
###############################################################################
#
# This file contains modified crystal structure data generated from the
# MOF subset of the Cambridge Structural Database (CSD) v543 
# hosted by the Cambridge Crystallographic Data Centre (CCDC).
#
# This work is licensed under the Creative Commons
# Attribution-NonCommercial-ShareAlike 4.0 International License.
# To view a copy of this license, visit
# http://creativecommons.org/licenses/by-nc-sa/4.0/
# or send a letter to
# Creative Commons, PO Box 1866, Mountain View, CA 94042, USA.
#
# CIF created using the CSD Python API on 29 September 2022
# The structure has been converted into the P1 space group
# The structure has a 3D framework
# The original CSD entry UKAQED is in the triclinic crystal system
# The framework has been calculated to contain at least 10.0% void space
# The void calculation uses a probe of radius 1.32A, grid spacing 0.4
#
###############################################################################

data_UKAQED
_chemical_formula_moiety         '(C48 H38 Eu2 N2 O16 P2)n'
_symmetry_cell_setting           triclinic
_symmetry_space_group_name_H-M   'P 1'
_symmetry_Int_Tables_number      1
_space_group_name_Hall           'P 1'
loop_
_symmetry_equiv_pos_site_id
_symmetry_equiv_pos_as_xyz
1 x,y,z
_cell_length_a                   10.724(2)
_cell_length_b                   11.831(2)
_cell_length_c                   14.593(3)
_cell_angle_alpha                73.66(3)
_cell_angle_beta                 71.98(3)
_cell_angle_gamma                66.90(3)
_cell_volume                     1592.2
loop_
_atom_site_label
_atom_site_type_symbol
_atom_site_fract_x
_atom_site_fract_y
_atom_site_fract_z
_atom_site_U_iso_or_equiv
_atom_site_thermal_displace_type
Eu10 Eu 0.01243(2) 0.44879(2) 0.372227(16) 0.0285 Uani
C18 C 0.0821(7) 0.0876(6) 0.7082(5) 0.0419 Uani
H11 H 0.1113 0.1363 0.7337 0.0510 Uiso
O4 O 0.1678(4) 0.4590(5) 0.2037(3) 0.0393 Uani
C12 C 0.0908(6) 0.5795(6) 0.0562(4) 0.0333 Uani
C13 C 0.0672(6) 0.5353(6) 0.1654(4) 0.0334 Uani
H8 H 0.2507 0.4235 0.0169 0.0500 Uiso
C15 C 0.0071(7) 0.6965(7) 0.0193(5) 0.0454 Uani
O19 O 0.0335(5) 0.6488(4) 0.3473(3) 0.0396 Uani
C29 C 0.0122(7) 0.0543(6) 0.3611(5) 0.0370 Uani
H21 H 0.0458 0.1024 0.3838 0.0450 Uiso
H23 H 0.0314 0.1783 0.1041 0.0510 Uiso
O24 O 0.1597(4) 0.4250(4) 0.4715(3) 0.0360 Uani
O26 O 0.1952(5) 0.2420(5) 0.3687(4) 0.0472 Uani
C46 C 0.2925(14) 0.1749(11) 0.3272(10) 0.1007 Uani
H32 H 0.3218 0.2008 0.2586 0.1210 Uiso
N2 N 0.3689(11) 0.0604(11) 0.3697(10) 0.1156 Uani
C47 C 0.331(2) 0.004(2) 0.4735(15) 0.2008 Uani
H35 H 0.2745 0.0703 0.5119 0.3020 Uiso
P1 P 0.14274(15) 0.71945(14) 0.72620(10) 0.0300 Uani
O2 O 0.7643(4) 0.5607(4) 0.4095(3) 0.0365 Uani
C1 C 0.1287(6) 0.6675(5) 0.8557(4) 0.0311 Uani
C2 C 0.4882(6) 0.6393(6) 0.5092(4) 0.0329 Uani
H1 H 0.5077 0.6323 0.4426 0.0400 Uiso
C3 C 0.0782(6) 0.8869(6) 0.7027(4) 0.0315 Uani
C4 C 0.3225(6) 0.6776(5) 0.6627(4) 0.0315 Uani
C6 C 0.3529(6) 0.6668(6) 0.5642(4) 0.0311 Uani
H3 H 0.2799 0.6786 0.5350 0.0370 Uiso
C7 C 0.5952(6) 0.6218(6) 0.5514(4) 0.0322 Uani
C8 C 0.0259(7) 0.7408(7) 0.9203(5) 0.0423 Uani
C9 C 0.5672(7) 0.6313(7) 0.6493(4) 0.0398 Uani
H5 H 0.6415 0.6168 0.6782 0.0480 Uiso
C10 C 0.4304(7) 0.6618(7) 0.7055(5) 0.0425 Uani
H6 H 0.4109 0.6718 0.7714 0.0510 Uiso
C11 C 0.1255(7) 0.9588(6) 0.7369(5) 0.0419 Uani
H7 H 0.1874 0.9191 0.7799 0.0500 Uiso
C14 C 0.1929(7) 0.5040(7) 0.9923(5) 0.0421 Uani
O6 O 0.8403(4) 0.5750(4) 0.5285(3) 0.0360 Uani
C20 C 0.7416(6) 0.5850(5) 0.4928(4) 0.0330 Uani
O7 O 0.0641(4) 0.6710(4) 0.6870(3) 0.0349 Uani
C21 C 0.2091(7) 0.5478(7) 0.8924(5) 0.0419 Uani
H12 H 0.2759 0.4956 0.8482 0.0510 Uiso
Eu6 Eu 0.98757(2) 0.55121(2) 0.627773(16) 0.0285 Uani
O9 O 0.0532(4) 0.4248(4) 0.7836(3) 0.0368 Uani
O12 O 0.2357(4) 0.4393(4) 0.5905(3) 0.0365 Uani
O15 O 0.0673(5) 0.6806(4) 0.4823(3) 0.0350 Uani
H28 H 0.0642 0.2532 0.9368 0.0550 Uiso
C40 C 0.0043(7) 0.8540(6) 0.3579(4) 0.0334 Uani
C41 C 0.0528(7) 0.9251(6) 0.3911(5) 0.0383 Uani
H29 H 0.1141 0.8851 0.4346 0.0450 Uiso
C43 C 0.0387(6) 0.7171(6) 0.3977(4) 0.0340 Uani
H33 H 0.2766 0.9509 0.4798 0.3020 Uiso
H34 H 0.4151 0.9535 0.4978 0.3020 Uiso
C48 C 0.497(2) 0.973(2) 0.330(2) 0.2422 Uani
H36 H 0.5746 0.9963 0.3313 0.3690 Uiso
H37 H 0.5052 0.8891 0.3702 0.3690 Uiso
H38 H 0.5001 0.9717 0.2629 0.3690 Uiso
O3 O 0.9327(5) 0.3194(4) 0.5177(3) 0.0350 Uani
O5 O 0.9665(5) 0.3512(4) 0.6527(3) 0.0396 Uani
C16 C 0.9957(7) 0.1460(6) 0.6421(4) 0.0334 Uani
C17 C 0.9472(7) 0.0749(6) 0.6089(5) 0.0383 Uani
H10 H 0.8859 0.1149 0.5654 0.0450 Uiso
C19 C 0.9613(6) 0.2829(6) 0.6023(4) 0.0340 Uani
H14 H 0.7234 0.0491 0.5202 0.3020 Uiso
H15 H 0.5849 0.0465 0.5022 0.3020 Uiso
C24 C 0.503(2) 0.027(2) 0.670(2) 0.2422 Uani
H17 H 0.4254 0.0037 0.6687 0.3690 Uiso
H18 H 0.4948 0.1109 0.6298 0.3690 Uiso
H19 H 0.4999 0.0283 0.7371 0.3690 Uiso
O1 O 0.9468(4) 0.5752(4) 0.2164(3) 0.0368 Uani
H9 H 0.9358 0.7468 0.0632 0.0550 Uiso
P2 P 0.85726(15) 0.28055(14) 0.27380(10) 0.0300 Uani
C25 C 0.8713(6) 0.3325(5) 0.1443(4) 0.0311 Uani
C26 C 0.5118(6) 0.3607(6) 0.4908(4) 0.0329 Uani
H20 H 0.4923 0.3677 0.5574 0.0400 Uiso
C27 C 0.9218(6) 0.1131(6) 0.2973(4) 0.0315 Uani
C28 C 0.6775(6) 0.3224(5) 0.3373(4) 0.0315 Uani
C30 C 0.6471(6) 0.3332(6) 0.4358(4) 0.0311 Uani
H22 H 0.7201 0.3214 0.4650 0.0370 Uiso
C31 C 0.4048(6) 0.3782(6) 0.4486(4) 0.0322 Uani
C32 C 0.9741(7) 0.2592(7) 0.0797(5) 0.0423 Uani
C33 C 0.4328(7) 0.3687(7) 0.3507(4) 0.0398 Uani
H24 H 0.3585 0.3832 0.3218 0.0480 Uiso
C34 C 0.5696(7) 0.3382(7) 0.2945(5) 0.0425 Uani
H25 H 0.5891 0.3282 0.2286 0.0510 Uiso
C35 C 0.8745(7) 0.0412(6) 0.2631(5) 0.0419 Uani
H26 H 0.8126 0.0809 0.2201 0.0500 Uiso
C38 C 0.8071(7) 0.4960(7) 0.0077(5) 0.0421 Uani
C44 C 0.2584(6) 0.4150(5) 0.5072(4) 0.0330 Uani
O25 O 0.9359(4) 0.3290(4) 0.3130(3) 0.0349 Uani
C45 C 0.7909(7) 0.4522(7) 0.1076(5) 0.0419 Uani
H31 H 0.7241 0.5044 0.1518 0.0510 Uiso
C5 C 0.9878(7) 0.9457(6) 0.6389(5) 0.0370 Uani
H2 H 0.9542 0.8976 0.6162 0.0450 Uiso
H4 H 0.9686 0.8217 0.8959 0.0510 Uiso
O8 O 0.8048(5) 0.7580(5) 0.6313(4) 0.0472 Uani
C22 C 0.7075(14) 0.8251(11) 0.6728(10) 0.1007 Uani
H13 H 0.6782 0.7992 0.7414 0.1210 Uiso
N1 N 0.6311(11) 0.9396(11) 0.6303(10) 0.1156 Uani
C23 C 0.669(2) 0.996(2) 0.5265(15) 0.2008 Uani
H16 H 0.7255 0.9297 0.4881 0.3020 Uiso
O16 O 0.8322(4) 0.5410(5) 0.7963(3) 0.0393 Uani
C36 C 0.9092(6) 0.4205(6) 0.9438(4) 0.0333 Uani
C37 C 0.9328(6) 0.4647(6) 0.8346(4) 0.0334 Uani
H27 H 0.7493 0.5765 0.9831 0.0500 Uiso
C39 C 0.9929(7) 0.3035(7) 0.9807(5) 0.0454 Uani
C42 C 0.9179(7) 0.9124(6) 0.2918(5) 0.0419 Uani
H30 H 0.8887 0.8637 0.2663 0.0510 Uiso
loop_
_atom_site_aniso_label
_atom_site_aniso_U_11
_atom_site_aniso_U_22
_atom_site_aniso_U_33
_atom_site_aniso_U_23
_atom_site_aniso_U_13
_atom_site_aniso_U_12
Eu10 0.0369 0.0242 0.0239 -0.0054 -0.00363 -0.01144
C18 0.06 0.035 0.041 -0.009 -0.018 -0.02
O4 0.042 0.045 0.03 -0.0062 -0.0051 -0.0163
C12 0.041 0.037 0.025 -0.005 -0.003 -0.02
C13 0.045 0.03 0.029 -0.007 -0.006 -0.017
C15 0.056 0.039 0.028 -0.011 0.001 -0.007
O19 0.063 0.03 0.032 -0.0066 -0.011 -0.021
C29 0.054 0.032 0.032 -0.004 -0.012 -0.021
O24 0.0373 0.031 0.04 -0.0056 -0.0113 -0.0103
O26 0.046 0.035 0.06 -0.016 -0.013 -0.007
C46 0.113 0.057 0.099 -0.028 0.038 -0.032
N2 0.08 0.066 0.14 0.002 0.008 -0.001
C47 0.113 0.15 0.32 0.07 -0.11 -0.055
P1 0.0388 0.026 0.0252 -0.0065 -0.0033 -0.0126
O2 0.042 0.033 0.031 -0.0085 -0.0049 -0.0097
C1 0.044 0.027 0.024 -0.005 -0.007 -0.014
C2 0.038 0.031 0.023 -0.006 0.001 -0.01
C3 0.041 0.027 0.024 -0.005 -0.003 -0.012
C4 0.042 0.027 0.025 -0.006 -0.004 -0.013
C6 0.037 0.035 0.023 -0.009 -0.002 -0.015
C7 0.038 0.029 0.03 -0.007 -0.003 -0.014
C8 0.051 0.036 0.029 -0.006 -0.004 -0.007
C9 0.047 0.046 0.028 -0.007 -0.006 -0.019
C10 0.054 0.049 0.031 -0.006 -0.012 -0.023
C11 0.061 0.031 0.041 -0.003 -0.021 -0.018
C14 0.047 0.034 0.036 -0.003 -0.007 -0.008
O6 0.0373 0.031 0.04 -0.0056 -0.0113 -0.0103
C20 0.04 0.026 0.031 -0.004 -0.005 -0.012
O7 0.043 0.033 0.031 -0.0117 -0.0021 -0.0159
C21 0.051 0.034 0.031 -0.009 0 -0.009
Eu6 0.0369 0.0242 0.0239 -0.0054 -0.00363 -0.01144
O9 0.042 0.037 0.0271 -0.0055 -0.0012 -0.0141
O12 0.042 0.033 0.031 -0.0085 -0.0049 -0.0097
O15 0.051 0.029 0.0272 0.0008 -0.0087 -0.0198
C40 0.045 0.029 0.026 -0.003 -0.005 -0.016
C41 0.052 0.032 0.034 -0.003 -0.014 -0.016
C43 0.048 0.028 0.028 -0.002 -0.007 -0.018
C48 0.17 0.19 0.29 -0.13 0.09 -0.03
O3 0.051 0.029 0.0272 0.0008 -0.0087 -0.0198
O5 0.063 0.03 0.032 -0.0066 -0.011 -0.021
C16 0.045 0.029 0.026 -0.003 -0.005 -0.016
C17 0.052 0.032 0.034 -0.003 -0.014 -0.016
C19 0.048 0.028 0.028 -0.002 -0.007 -0.018
C24 0.17 0.19 0.29 -0.13 0.09 -0.03
O1 0.042 0.037 0.0271 -0.0055 -0.0012 -0.0141
P2 0.0388 0.026 0.0252 -0.0065 -0.0033 -0.0126
C25 0.044 0.027 0.024 -0.005 -0.007 -0.014
C26 0.038 0.031 0.023 -0.006 0.001 -0.01
C27 0.041 0.027 0.024 -0.005 -0.003 -0.012
C28 0.042 0.027 0.025 -0.006 -0.004 -0.013
C30 0.037 0.035 0.023 -0.009 -0.002 -0.015
C31 0.038 0.029 0.03 -0.007 -0.003 -0.014
C32 0.051 0.036 0.029 -0.006 -0.004 -0.007
C33 0.047 0.046 0.028 -0.007 -0.006 -0.019
C34 0.054 0.049 0.031 -0.006 -0.012 -0.023
C35 0.061 0.031 0.041 -0.003 -0.021 -0.018
C38 0.047 0.034 0.036 -0.003 -0.007 -0.008
C44 0.04 0.026 0.031 -0.004 -0.005 -0.012
O25 0.043 0.033 0.031 -0.0117 -0.0021 -0.0159
C45 0.051 0.034 0.031 -0.009 0 -0.009
C5 0.054 0.032 0.032 -0.004 -0.012 -0.021
O8 0.046 0.035 0.06 -0.016 -0.013 -0.007
C22 0.113 0.057 0.099 -0.028 0.038 -0.032
N1 0.08 0.066 0.14 0.002 0.008 -0.001
C23 0.113 0.15 0.32 0.07 -0.11 -0.055
O16 0.042 0.045 0.03 -0.0062 -0.0051 -0.0163
C36 0.041 0.037 0.025 -0.005 -0.003 -0.02
C37 0.045 0.03 0.029 -0.007 -0.006 -0.017
C39 0.056 0.039 0.028 -0.011 0.001 -0.007
C42 0.06 0.035 0.041 -0.009 -0.018 -0.02
loop_
_geom_bond_atom_site_label_1
_geom_bond_atom_site_label_2
_geom_bond_site_symmetry_1
_geom_bond_site_symmetry_2
H11 C18 1_555 1_555
O4 C13 1_555 1_555
C12 C13 1_555 1_555
O19 Eu10 1_555 1_555
H21 C29 1_555 1_555
O24 Eu10 1_555 1_555
O26 Eu10 1_555 1_555
C46 O26 1_555 1_555
H32 C46 1_555 1_555
N2 C46 1_555 1_555
C47 N2 1_555 1_555
H35 C47 1_555 1_555
O4 Eu10 1_555 1_555
C12 C15 1_555 1_555
P1 C1 1_555 1_555
O2 C20 1_555 1_555
C1 C8 1_555 1_555
C2 H1 1_555 1_555
C3 P1 1_555 1_555
C4 P1 1_555 1_555
C6 C2 1_555 1_555
H3 C6 1_555 1_555
C7 C2 1_555 1_555
C9 C7 1_555 1_555
H5 C9 1_555 1_555
C10 C4 1_555 1_555
H6 C10 1_555 1_555
C11 C3 1_555 1_555
H7 C11 1_555 1_555
O6 C20 1_555 1_555
C20 C7 1_555 1_555
O7 P1 1_555 1_555
C21 C1 1_555 1_555
H12 C21 1_555 1_555
Eu6 O6 1_555 1_555
C4 C6 1_555 1_555
C9 C10 1_555 1_555
C14 C21 1_555 1_555
O15 C43 1_555 1_555
O19 C43 1_555 1_555
C40 C41 1_555 1_555
H29 C41 1_555 1_555
C43 C40 1_555 1_555
H36 C48 1_555 1_555
H37 C48 1_555 1_555
H38 C48 1_555 1_555
O3 C19 1_555 1_555
O5 C19 1_555 1_555
C16 C17 1_555 1_555
H10 C17 1_555 1_555
C19 C16 1_555 1_555
H17 C24 1_555 1_555
H18 C24 1_555 1_555
H19 C24 1_555 1_555
Eu6 O5 1_555 1_555
P2 C25 1_555 1_555
O12 C44 1_555 1_555
C25 C32 1_555 1_555
C26 H20 1_555 1_555
C27 P2 1_555 1_555
C28 P2 1_555 1_555
C30 C26 1_555 1_555
H22 C30 1_555 1_555
C31 C26 1_555 1_555
C33 C31 1_555 1_555
H24 C33 1_555 1_555
C34 C28 1_555 1_555
H25 C34 1_555 1_555
C35 C27 1_555 1_555
H26 C35 1_555 1_555
C44 C31 1_555 1_555
C45 C25 1_555 1_555
H31 C45 1_555 1_555
P2 O25 1_555 1_555
C28 C30 1_555 1_555
C33 C34 1_555 1_555
C38 C45 1_555 1_555
O24 C44 1_555 1_555
H2 C5 1_555 1_555
O8 Eu6 1_555 1_555
C22 O8 1_555 1_555
H13 C22 1_555 1_555
N1 C22 1_555 1_555
C23 N1 1_555 1_555
H16 C23 1_555 1_555
O16 Eu6 1_555 1_555
C36 C37 1_555 1_555
O16 C37 1_555 1_555
C36 C39 1_555 1_555
H30 C42 1_555 1_555

#END
