
###############################################################################
#
# This file contains modified crystal structure data generated from the
# MOF subset of the Cambridge Structural Database (CSD) v543 
# hosted by the Cambridge Crystallographic Data Centre (CCDC).
#
# This work is licensed under the Creative Commons
# Attribution-NonCommercial-ShareAlike 4.0 International License.
# To view a copy of this license, visit
# http://creativecommons.org/licenses/by-nc-sa/4.0/
# or send a letter to
# Creative Commons, PO Box 1866, Mountain View, CA 94042, USA.
#
# CIF created using the CSD Python API on 29 September 2022
# The structure has been converted into the P1 space group
# The structure has a 3D framework
# The original CSD entry UKAQIH is in the triclinic crystal system
# The framework has been calculated to contain at least 10.0% void space
# The void calculation uses a probe of radius 1.32A, grid spacing 0.4
#
###############################################################################

data_UKAQIH
_chemical_formula_moiety         '(C48 H38 Gd2 N2 O16 P2)n'
_symmetry_cell_setting           triclinic
_symmetry_space_group_name_H-M   'P 1'
_symmetry_Int_Tables_number      1
_space_group_name_Hall           'P 1'
loop_
_symmetry_equiv_pos_site_id
_symmetry_equiv_pos_as_xyz
1 x,y,z
_cell_length_a                   10.7961(5)
_cell_length_b                   11.8333(6)
_cell_length_c                   14.5779(7)
_cell_angle_alpha                73.7880(10)
_cell_angle_beta                 72.0830(10)
_cell_angle_gamma                67.0490(10)
_cell_volume                     1604.61
loop_
_atom_site_label
_atom_site_type_symbol
_atom_site_fract_x
_atom_site_fract_y
_atom_site_fract_z
_atom_site_U_iso_or_equiv
_atom_site_thermal_displace_type
Gd10 Gd 0.010738(14) 0.447706(12) 0.371849(10) 0.0200 Uani
C18 C 0.0841(4) 0.0881(3) 0.7088(3) 0.0344 Uani
H11 H 0.1124 0.1370 0.7347 0.0410 Uiso
O4 O 0.1639(2) 0.4588(2) 0.20432(17) 0.0329 Uani
C12 C 0.0881(3) 0.5791(3) 0.0568(2) 0.0265 Uani
C13 C 0.0641(3) 0.5344(3) 0.1658(2) 0.0260 Uani
H8 H 0.2511 0.4266 0.0181 0.0420 Uiso
C15 C 0.0025(4) 0.6939(4) 0.0193(3) 0.0385 Uani
O19 O 0.0272(3) 0.6495(2) 0.34803(17) 0.0307 Uani
C29 C 0.0089(4) 0.0542(3) 0.3605(2) 0.0299 Uani
H21 H 0.0435 0.1023 0.3822 0.0360 Uiso
H23 H 0.0331 0.1814 0.1064 0.0450 Uiso
O24 O 0.1612(2) 0.4247(2) 0.46648(18) 0.0296 Uani
O26 O 0.1920(3) 0.2417(2) 0.3661(2) 0.0413 Uani
C46 C 0.2806(9) 0.1784(6) 0.3224(8) 0.1473 Uani
H32 H 0.3008 0.2034 0.2531 0.1770 Uiso
N2 N 0.3662(7) 0.0613(6) 0.3642(8) 0.1758 Uani
C47 C 0.3353(10) 0.0104(10) 0.4667(10) 0.1896 Uani
H35 H 0.2563 0.0720 0.5006 0.2850 Uiso
H38 H 0.5137 0.0493 0.2418 0.5130 Uiso
P1 P 0.14563(8) 0.71967(7) 0.72562(6) 0.0213 Uani
O2 O 0.7668(2) 0.5592(2) 0.41245(16) 0.0282 Uani
C1 C 0.1317(3) 0.6670(3) 0.8552(2) 0.0231 Uani
C2 C 0.4911(3) 0.6384(3) 0.5115(2) 0.0251 Uani
H1 H 0.5118 0.6311 0.4448 0.0300 Uiso
C3 C 0.0811(3) 0.8881(3) 0.7023(2) 0.0223 Uani
C4 C 0.3251(3) 0.6785(3) 0.6630(2) 0.0230 Uani
C6 C 0.3552(3) 0.6656(3) 0.5656(2) 0.0248 Uani
H3 H 0.2835 0.6752 0.5363 0.0300 Uiso
C7 C 0.5964(3) 0.6220(3) 0.5546(2) 0.0243 Uani
C8 C 0.0247(4) 0.7389(3) 0.9188(3) 0.0374 Uani
C9 C 0.5658(4) 0.6349(3) 0.6518(2) 0.0318 Uani
H5 H 0.6378 0.6236 0.6814 0.0380 Uiso
C10 C 0.4298(4) 0.6644(4) 0.7056(2) 0.0337 Uani
H6 H 0.4089 0.6748 0.7716 0.0410 Uiso
C11 C 0.1274(4) 0.9596(3) 0.7373(3) 0.0340 Uani
H7 H 0.1884 0.9201 0.7806 0.0410 Uiso
C14 C 0.1928(4) 0.5061(3) 0.9930(3) 0.0351 Uani
O6 O 0.8388(2) 0.5753(2) 0.53352(18) 0.0296 Uani
C20 C 0.7430(3) 0.5853(3) 0.4956(2) 0.0254 Uani
O7 O 0.0692(2) 0.6713(2) 0.68493(16) 0.0261 Uani
C21 C 0.2121(4) 0.5497(3) 0.8920(3) 0.0364 Uani
H12 H 0.2812 0.4981 0.8484 0.0440 Uiso
Gd6 Gd 0.989262(14) 0.552294(12) 0.628151(10) 0.0200 Uani
O9 O 0.0567(2) 0.4257(2) 0.78364(16) 0.0282 Uani
O12 O 0.2332(2) 0.4408(2) 0.58755(16) 0.0282 Uani
O15 O 0.0656(2) 0.6801(2) 0.48120(16) 0.0276 Uani
H28 H 0.0719 0.2576 0.9375 0.0460 Uiso
C40 C 0.0008(3) 0.8542(3) 0.3579(2) 0.0249 Uani
C41 C 0.0479(4) 0.9250(3) 0.3914(2) 0.0284 Uani
H29 H 0.1074 0.8854 0.4358 0.0340 Uiso
C43 C 0.0347(3) 0.7161(3) 0.3983(2) 0.0245 Uani
H33 H 0.3127 0.9349 0.4756 0.2850 Uiso
H34 H 0.4156 0.9895 0.4939 0.2850 Uiso
C48 C 0.4923(19) 0.9944(15) 0.3042(16) 0.3399 Uani
H36 H 0.5676 0.9663 0.3381 0.5130 Uiso
H37 H 0.4817 0.9219 0.2916 0.5130 Uiso
O3 O 0.9344(2) 0.3199(2) 0.51880(16) 0.0276 Uani
O5 O 0.9728(3) 0.3505(2) 0.65197(17) 0.0307 Uani
C16 C 0.9992(3) 0.1458(3) 0.6421(2) 0.0249 Uani
C17 C 0.9521(4) 0.0750(3) 0.6086(2) 0.0284 Uani
H10 H 0.8926 0.1146 0.5642 0.0340 Uiso
C19 C 0.9653(3) 0.2839(3) 0.6017(2) 0.0245 Uani
H14 H 0.6873 0.0651 0.5244 0.2850 Uiso
H15 H 0.5844 0.0105 0.5061 0.2850 Uiso
C24 C 0.5077(19) 0.0056(15) 0.6958(16) 0.3399 Uani
H17 H 0.4324 0.0337 0.6619 0.5130 Uiso
H18 H 0.5183 0.0781 0.7084 0.5130 Uiso
O1 O 0.9433(2) 0.5743(2) 0.21636(16) 0.0282 Uani
H9 H 0.9281 0.7424 0.0625 0.0460 Uiso
P2 P 0.85437(8) 0.28033(7) 0.27438(6) 0.0213 Uani
C25 C 0.8683(3) 0.3330(3) 0.1448(2) 0.0231 Uani
C26 C 0.5089(3) 0.3616(3) 0.4885(2) 0.0251 Uani
H20 H 0.4882 0.3689 0.5552 0.0300 Uiso
C27 C 0.9189(3) 0.1119(3) 0.2977(2) 0.0223 Uani
C28 C 0.6749(3) 0.3215(3) 0.3370(2) 0.0230 Uani
C30 C 0.6448(3) 0.3344(3) 0.4344(2) 0.0248 Uani
H22 H 0.7165 0.3248 0.4637 0.0300 Uiso
C31 C 0.4036(3) 0.3780(3) 0.4454(2) 0.0243 Uani
C32 C 0.9753(4) 0.2611(3) 0.0812(3) 0.0374 Uani
C33 C 0.4342(4) 0.3651(3) 0.3482(2) 0.0318 Uani
H24 H 0.3622 0.3764 0.3186 0.0380 Uiso
C34 C 0.5702(4) 0.3356(4) 0.2944(2) 0.0337 Uani
H25 H 0.5911 0.3252 0.2284 0.0410 Uiso
C35 C 0.8726(4) 0.0404(3) 0.2627(3) 0.0340 Uani
H26 H 0.8116 0.0799 0.2194 0.0410 Uiso
C38 C 0.8072(4) 0.4939(3) 0.0070(3) 0.0351 Uani
C44 C 0.2570(3) 0.4147(3) 0.5044(2) 0.0254 Uani
O25 O 0.9308(2) 0.3287(2) 0.31507(16) 0.0261 Uani
C45 C 0.7879(4) 0.4503(3) 0.1080(3) 0.0364 Uani
H31 H 0.7188 0.5019 0.1516 0.0440 Uiso
C5 C 0.9911(4) 0.9458(3) 0.6395(2) 0.0299 Uani
H2 H 0.9565 0.8977 0.6178 0.0360 Uiso
H4 H 0.9669 0.8186 0.8936 0.0450 Uiso
O8 O 0.8080(3) 0.7583(2) 0.6339(2) 0.0413 Uani
C22 C 0.7194(9) 0.8216(6) 0.6776(8) 0.1473 Uani
H13 H 0.6992 0.7966 0.7469 0.1770 Uiso
N1 N 0.6338(7) 0.9387(6) 0.6358(8) 0.1758 Uani
C23 C 0.6647(10) 0.9896(10) 0.5333(10) 0.1896 Uani
H16 H 0.7437 0.9280 0.4994 0.2850 Uiso
H19 H 0.4863 0.9507 0.7582 0.5130 Uiso
O16 O 0.8361(2) 0.5412(2) 0.79568(17) 0.0329 Uani
C36 C 0.9119(3) 0.4209(3) 0.9432(2) 0.0265 Uani
C37 C 0.9359(3) 0.4656(3) 0.8342(2) 0.0260 Uani
H27 H 0.7489 0.5734 0.9819 0.0420 Uiso
C39 C 0.9975(4) 0.3061(4) 0.9807(3) 0.0385 Uani
C42 C 0.9159(4) 0.9119(3) 0.2912(3) 0.0344 Uani
H30 H 0.8876 0.8630 0.2653 0.0410 Uiso
loop_
_atom_site_aniso_label
_atom_site_aniso_U_11
_atom_site_aniso_U_22
_atom_site_aniso_U_33
_atom_site_aniso_U_23
_atom_site_aniso_U_13
_atom_site_aniso_U_12
Gd10 0.02706 0.01617 0.01562 -0.00437 -0.00239 -0.00678
C18 0.05 0.0251 0.0372 -0.0058 -0.0206 -0.0136
O4 0.0349 0.0364 0.0226 -0.0048 -0.0062 -0.0075
C12 0.0325 0.0286 0.0203 -0.0059 -0.002 -0.0141
C13 0.0356 0.0251 0.0213 -0.0082 -0.0044 -0.0129
C15 0.044 0.0344 0.0224 -0.0067 0.0018 -0.0037
O19 0.0514 0.0201 0.0226 -0.0038 -0.0062 -0.0158
C29 0.0451 0.022 0.0284 -0.0055 -0.0099 -0.0154
O24 0.0309 0.0222 0.0356 -0.0044 -0.0098 -0.0074
O26 0.0357 0.0239 0.0602 -0.0147 -0.0125 0.0004
C46 0.128 0.05 0.207 -0.049 0.061 -0.028
N2 0.089 0.067 0.255 -0.001 0.054 0.005
C47 0.103 0.144 0.231 0.039 0.019 -0.04
P1 0.0284 0.0183 0.0161 -0.0056 -0.0014 -0.0077
O2 0.0299 0.0248 0.0247 -0.0096 -0.0012 -0.0041
C1 0.0299 0.0226 0.0175 -0.005 -0.0015 -0.0116
C2 0.0323 0.0221 0.0184 -0.0071 -0.0029 -0.0063
C3 0.0295 0.0178 0.0178 -0.0056 -0.0009 -0.0077
C4 0.0296 0.0177 0.0194 -0.0043 -0.0019 -0.0076
C6 0.0297 0.0203 0.022 -0.0058 -0.0057 -0.0047
C7 0.0309 0.0164 0.023 -0.0031 -0.0049 -0.0064
C8 0.044 0.0282 0.0247 -0.005 -0.0052 0.0021
C9 0.0351 0.041 0.0232 -0.0064 -0.0074 -0.0157
C10 0.0371 0.047 0.0188 -0.0126 0.0012 -0.017
C11 0.048 0.0234 0.0362 -0.004 -0.0225 -0.0087
C14 0.0377 0.0299 0.0241 -0.0024 -0.0029 -0.0019
O6 0.0309 0.0222 0.0356 -0.0044 -0.0098 -0.0074
C20 0.0313 0.0156 0.0265 -0.0009 -0.0078 -0.006
O7 0.0342 0.0212 0.0235 -0.0067 -0.0037 -0.0102
C21 0.0377 0.0327 0.0235 -0.0076 0.0035 -0.0019
Gd6 0.02706 0.01617 0.01562 -0.00437 -0.00239 -0.00678
O9 0.0322 0.0294 0.0209 -0.0046 -0.0032 -0.01
O12 0.0299 0.0248 0.0247 -0.0096 -0.0012 -0.0041
O15 0.0391 0.0248 0.0196 -0.0013 -0.0063 -0.0135
C40 0.0347 0.02 0.0181 -0.005 -0.0004 -0.0102
C41 0.0411 0.0223 0.0244 0.0011 -0.0145 -0.0114
C43 0.0331 0.0227 0.0175 -0.0024 -0.0019 -0.0129
C48 0.31 0.17 0.36 -0.108 0.06 0.045
O3 0.0391 0.0248 0.0196 -0.0013 -0.0063 -0.0135
O5 0.0514 0.0201 0.0226 -0.0038 -0.0062 -0.0158
C16 0.0347 0.02 0.0181 -0.005 -0.0004 -0.0102
C17 0.0411 0.0223 0.0244 0.0011 -0.0145 -0.0114
C19 0.0331 0.0227 0.0175 -0.0024 -0.0019 -0.0129
C24 0.31 0.17 0.36 -0.108 0.06 0.045
O1 0.0322 0.0294 0.0209 -0.0046 -0.0032 -0.01
P2 0.0284 0.0183 0.0161 -0.0056 -0.0014 -0.0077
C25 0.0299 0.0226 0.0175 -0.005 -0.0015 -0.0116
C26 0.0323 0.0221 0.0184 -0.0071 -0.0029 -0.0063
C27 0.0295 0.0178 0.0178 -0.0056 -0.0009 -0.0077
C28 0.0296 0.0177 0.0194 -0.0043 -0.0019 -0.0076
C30 0.0297 0.0203 0.022 -0.0058 -0.0057 -0.0047
C31 0.0309 0.0164 0.023 -0.0031 -0.0049 -0.0064
C32 0.044 0.0282 0.0247 -0.005 -0.0052 0.0021
C33 0.0351 0.041 0.0232 -0.0064 -0.0074 -0.0157
C34 0.0371 0.047 0.0188 -0.0126 0.0012 -0.017
C35 0.048 0.0234 0.0362 -0.004 -0.0225 -0.0087
C38 0.0377 0.0299 0.0241 -0.0024 -0.0029 -0.0019
C44 0.0313 0.0156 0.0265 -0.0009 -0.0078 -0.006
O25 0.0342 0.0212 0.0235 -0.0067 -0.0037 -0.0102
C45 0.0377 0.0327 0.0235 -0.0076 0.0035 -0.0019
C5 0.0451 0.022 0.0284 -0.0055 -0.0099 -0.0154
O8 0.0357 0.0239 0.0602 -0.0147 -0.0125 0.0004
C22 0.128 0.05 0.207 -0.049 0.061 -0.028
N1 0.089 0.067 0.255 -0.001 0.054 0.005
C23 0.103 0.144 0.231 0.039 0.019 -0.04
O16 0.0349 0.0364 0.0226 -0.0048 -0.0062 -0.0075
C36 0.0325 0.0286 0.0203 -0.0059 -0.002 -0.0141
C37 0.0356 0.0251 0.0213 -0.0082 -0.0044 -0.0129
C39 0.044 0.0344 0.0224 -0.0067 0.0018 -0.0037
C42 0.05 0.0251 0.0372 -0.0058 -0.0206 -0.0136
loop_
_geom_bond_atom_site_label_1
_geom_bond_atom_site_label_2
_geom_bond_site_symmetry_1
_geom_bond_site_symmetry_2
H11 C18 1_555 1_555
O4 C13 1_555 1_555
C12 C13 1_555 1_555
O19 Gd10 1_555 1_555
H21 C29 1_555 1_555
O24 Gd10 1_555 1_555
O26 Gd10 1_555 1_555
C46 O26 1_555 1_555
H32 C46 1_555 1_555
N2 C46 1_555 1_555
C47 N2 1_555 1_555
H35 C47 1_555 1_555
O4 Gd10 1_555 1_555
C12 C15 1_555 1_555
P1 C1 1_555 1_555
O2 C20 1_555 1_555
C1 C8 1_555 1_555
C2 H1 1_555 1_555
C3 P1 1_555 1_555
C4 P1 1_555 1_555
C6 C2 1_555 1_555
H3 C6 1_555 1_555
C7 C2 1_555 1_555
C9 C7 1_555 1_555
H5 C9 1_555 1_555
C10 C4 1_555 1_555
H6 C10 1_555 1_555
C11 C3 1_555 1_555
H7 C11 1_555 1_555
O6 C20 1_555 1_555
C20 C7 1_555 1_555
O7 P1 1_555 1_555
C21 C1 1_555 1_555
H12 C21 1_555 1_555
Gd6 O6 1_555 1_555
C4 C6 1_555 1_555
C9 C10 1_555 1_555
C14 C21 1_555 1_555
O15 C43 1_555 1_555
O19 C43 1_555 1_555
C40 C41 1_555 1_555
H29 C41 1_555 1_555
C43 C40 1_555 1_555
H36 C48 1_555 1_555
H37 C48 1_555 1_555
O3 C19 1_555 1_555
O5 C19 1_555 1_555
C16 C17 1_555 1_555
H10 C17 1_555 1_555
C19 C16 1_555 1_555
H17 C24 1_555 1_555
H18 C24 1_555 1_555
Gd6 O5 1_555 1_555
P2 C25 1_555 1_555
O12 C44 1_555 1_555
C25 C32 1_555 1_555
C26 H20 1_555 1_555
C27 P2 1_555 1_555
C28 P2 1_555 1_555
C30 C26 1_555 1_555
H22 C30 1_555 1_555
C31 C26 1_555 1_555
C33 C31 1_555 1_555
H24 C33 1_555 1_555
C34 C28 1_555 1_555
H25 C34 1_555 1_555
C35 C27 1_555 1_555
H26 C35 1_555 1_555
C44 C31 1_555 1_555
C45 C25 1_555 1_555
H31 C45 1_555 1_555
P2 O25 1_555 1_555
C28 C30 1_555 1_555
C33 C34 1_555 1_555
C38 C45 1_555 1_555
O24 C44 1_555 1_555
H2 C5 1_555 1_555
O8 Gd6 1_555 1_555
C22 O8 1_555 1_555
H13 C22 1_555 1_555
N1 C22 1_555 1_555
C23 N1 1_555 1_555
H16 C23 1_555 1_555
O16 Gd6 1_555 1_555
C36 C37 1_555 1_555
O16 C37 1_555 1_555
C36 C39 1_555 1_555
H30 C42 1_555 1_555

#END
