
###############################################################################
#
# This file contains modified crystal structure data generated from the
# MOF subset of the Cambridge Structural Database (CSD) v543 
# hosted by the Cambridge Crystallographic Data Centre (CCDC).
#
# This work is licensed under the Creative Commons
# Attribution-NonCommercial-ShareAlike 4.0 International License.
# To view a copy of this license, visit
# http://creativecommons.org/licenses/by-nc-sa/4.0/
# or send a letter to
# Creative Commons, PO Box 1866, Mountain View, CA 94042, USA.
#
# CIF created using the CSD Python API on 29 September 2022
# The structure has been converted into the P1 space group
# The structure has a 3D framework
# The original CSD entry UKEVIR is in the trigonal crystal system
# The framework has been calculated to contain at least 10.0% void space
# The void calculation uses a probe of radius 1.32A, grid spacing 0.4
#
###############################################################################

data_UKEVIR
_chemical_formula_moiety         '(C90 H54 Cu10 F18 N6 O12)n'
_symmetry_cell_setting           triclinic
_symmetry_space_group_name_H-M   'P 1'
_symmetry_Int_Tables_number      1
_space_group_name_Hall           'P 1'
loop_
_symmetry_equiv_pos_site_id
_symmetry_equiv_pos_as_xyz
1 x,y,z
_cell_length_a                   21.5669(5)
_cell_length_b                   21.5669(5)
_cell_length_c                   7.7969(2)
_cell_angle_alpha                90
_cell_angle_beta                 90
_cell_angle_gamma                120
_cell_volume                     3140.71
loop_
_atom_site_label
_atom_site_type_symbol
_atom_site_fract_x
_atom_site_fract_y
_atom_site_fract_z
Cu3 Cu 0.5000 0.5000 0.0000
Cu1 Cu 0.5000 1.0000 1.0000
F2 F 0.3076(2) 0.9954(2) 0.6698(6)
O4 O 0.49651(19) 0.91397(17) 0.8594(4)
N2 N 0.50477(19) 0.57441(19) 0.1644(4)
C16 C 0.5140(2) 0.5674(2) 0.3324(4)
H10 H 0.5196 0.5292 0.3676
C17 C 0.5157(2) 0.6139(2) 0.4534(4)
H11 H 0.5227 0.6074 0.5681
C18 C 0.5069(3) 0.6712(2) 0.4048(5)
C19 C 0.4953(3) 0.6288(3) 0.1178(5)
H12 H 0.4881 0.6339 0.0023
C20 C 0.4957(4) 0.6773(3) 0.2320(6)
H13 H 0.4884 0.7140 0.1939
C21 C 0.5096(3) 0.7225(2) 0.5355(5)
C22 C 0.5553(3) 0.7404(3) 0.6756(5)
H14 H 0.5822 0.7179 0.6893
C23 C 0.5617(3) 0.7903(3) 0.7944(5)
H15 H 0.5941 0.8025 0.8844
C24 C 0.5195(3) 0.8230(3) 0.7802(5)
C25 C 0.4708(3) 0.8023(3) 0.6437(6)
H16 H 0.4414 0.8222 0.6345
C26 C 0.4657(3) 0.7534(3) 0.5231(6)
H17 H 0.4332 0.7408 0.4333
C27 C 0.5259(3) 0.8782(2) 0.9031(6)
Cu1_2 Cu 1.0000 0.5000 1.0000
F1 F 0.94606(19) 0.35276(28) 0.5284(4)
F3 F 0.88958(18) 0.25208(27) 0.6577(4)
O1 O 0.99927(15) 0.42153(23) 0.8378(4)
C13 C 0.8880(3) 0.3245(4) 0.9391(6)
H9 H 0.8525 0.2787 0.9076
C14 C 0.9450(3) 0.3595(4) 0.8306(6)
C15 C 0.9450(3) 0.3188(5) 0.6711(7)
N3 N 0.93036(27) 0.50477(33) 0.8356(4)
O2 O 0.58254(25) 0.49651(19) 0.1406(4)
C1 C 0.9466(3) 0.5140(2) 0.6676(4)
H1 H 0.9904 0.5196 0.6324
C2 C 0.9018(3) 0.5157(2) 0.5466(4)
H2 H 0.9153 0.5227 0.4319
C3 C 0.8357(4) 0.5069(3) 0.5952(5)
C4 C 0.8665(4) 0.4953(3) 0.8822(5)
H3 H 0.8542 0.4881 0.9977
C5 C 0.8184(5) 0.4957(4) 0.7680(6)
H4 H 0.7744 0.4884 0.8061
C6 C 0.7871(4) 0.5096(3) 0.4645(5)
C7 C 0.8149(4) 0.5553(3) 0.3244(5)
H5 H 0.8643 0.5822 0.3107
C8 C 0.7714(4) 0.5617(3) 0.2056(5)
H6 H 0.7916 0.5941 0.1156
C9 C 0.6965(4) 0.5195(3) 0.2198(5)
C10 C 0.6685(4) 0.4708(3) 0.3563(6)
H7 H 0.6192 0.4414 0.3655
C11 C 0.7123(4) 0.4657(3) 0.4769(6)
H8 H 0.6924 0.4332 0.5667
C12 C 0.6477(4) 0.5259(3) 0.0969(6)
F4 F 0.35276(28) 0.4067(2) 0.4716(4)
F5 F 0.3122(3) 0.3076(2) 0.3302(6)
F6 F 0.25208(27) 0.3625(2) 0.3423(4)
O3 O 0.42153(23) 0.42226(18) 0.1622(4)
C28 C 0.3245(4) 0.4365(3) 0.0609(6)
H18 H 0.2787 0.4262 0.0924
C29 C 0.3595(4) 0.4145(3) 0.1694(6)
C30 C 0.3188(5) 0.3738(4) 0.3289(7)
Cu1_3 Cu 0.5000 0.0000 0.0000
O2_2 O 0.50349(19) 0.08603(17) 0.1406(4)
N1 N 0.49523(19) 0.42559(19) 0.8356(4)
C1_2 C 0.4860(2) 0.4326(2) 0.6676(4)
H1_2 H 0.4804 0.4708 0.6324
C2_2 C 0.4843(2) 0.3861(2) 0.5466(4)
H2_2 H 0.4773 0.3926 0.4319
C3_2 C 0.4931(3) 0.3288(2) 0.5952(5)
C4_2 C 0.5047(3) 0.3712(3) 0.8822(5)
H3_2 H 0.5119 0.3661 0.9977
C5_2 C 0.5043(4) 0.3227(3) 0.7680(6)
H4_2 H 0.5116 0.2860 0.8061
C6_2 C 0.4904(3) 0.2775(2) 0.4645(5)
C7_2 C 0.4447(3) 0.2596(3) 0.3244(5)
H5_2 H 0.4178 0.2821 0.3107
C8_2 C 0.4383(3) 0.2097(3) 0.2056(5)
H6_2 H 0.4059 0.1975 0.1156
C9_2 C 0.4805(3) 0.1770(3) 0.2198(5)
C10_2 C 0.5292(3) 0.1977(3) 0.3563(6)
H7_2 H 0.5586 0.1778 0.3655
C11_2 C 0.5343(3) 0.2466(3) 0.4769(6)
H8_2 H 0.5668 0.2592 0.5667
C12_2 C 0.4741(3) 0.1218(2) 0.0969(6)
F5_2 F 0.6924(2) 0.0046(2) 0.3302(6)
Cu3_2 Cu 0.5000 0.5000 1.0000
Cu1_4 Cu 0.0000 0.5000 0.0000
F4_2 F 0.05394(19) 0.64724(28) 0.4716(4)
F6_2 F 0.11042(18) 0.74792(27) 0.3423(4)
O3_2 O 0.00073(15) 0.57847(23) 0.1622(4)
C28_2 C 0.1120(3) 0.6755(4) 0.0609(6)
H18_2 H 0.1475 0.7213 0.0924
C29_2 C 0.0550(3) 0.6405(4) 0.1694(6)
C30_2 C 0.0550(3) 0.6812(5) 0.3289(7)
N4 N 0.06964(27) 0.49523(33) 0.1644(4)
F1_2 F 0.64724(28) 0.5933(2) 0.5284(4)
F2_2 F 0.6878(3) 0.6924(2) 0.6698(6)
F3_2 F 0.74792(27) 0.6375(2) 0.6577(4)
O1_2 O 0.57847(23) 0.57774(18) 0.8378(4)
C13_2 C 0.6755(4) 0.5635(3) 0.9391(6)
H9_2 H 0.7213 0.5738 0.9076
C14_2 C 0.6405(4) 0.5855(3) 0.8306(6)
C15_2 C 0.6812(5) 0.6262(4) 0.6711(7)
O4_2 O 0.41746(25) 0.50349(19) 0.8594(4)
C16_2 C 0.0534(3) 0.4860(2) 0.3324(4)
H10_2 H 0.0096 0.4804 0.3676
C17_2 C 0.0982(3) 0.4843(2) 0.4534(4)
H11_2 H 0.0847 0.4773 0.5681
C18_2 C 0.1643(4) 0.4931(3) 0.4048(5)
C19_2 C 0.1335(4) 0.5047(3) 0.1178(5)
H12_2 H 0.1458 0.5119 0.0023
C20_2 C 0.1816(5) 0.5043(4) 0.2320(6)
H13_2 H 0.2256 0.5116 0.1939
C21_2 C 0.2129(4) 0.4904(3) 0.5355(5)
C22_2 C 0.1851(4) 0.4447(3) 0.6756(5)
H14_2 H 0.1357 0.4178 0.6893
C23_2 C 0.2286(4) 0.4383(3) 0.7944(5)
H15_2 H 0.2084 0.4059 0.8844
C24_2 C 0.3035(4) 0.4805(3) 0.7802(5)
C25_2 C 0.3315(4) 0.5292(3) 0.6437(6)
H16_2 H 0.3808 0.5586 0.6345
C26_2 C 0.2877(4) 0.5343(3) 0.5231(6)
H17_2 H 0.3076 0.5668 0.4333
C27_2 C 0.3523(4) 0.4741(3) 0.9031(6)
Cu1_5 Cu 0.5000 0.0000 1.0000
F1_3 F 0.4067(2) 0.05394(19) 0.5284(4)
F3_3 F 0.3625(2) 0.11042(18) 0.6577(4)
O1_3 O 0.42226(18) 0.00073(15) 0.8378(4)
C13_3 C 0.4365(3) 0.1120(3) 0.9391(6)
H9_3 H 0.4262 0.1475 0.9076
C14_3 C 0.4145(3) 0.0550(3) 0.8306(6)
C15_3 C 0.3738(4) 0.0550(3) 0.6711(7)
N3_2 N 0.57441(19) 0.06964(27) 0.8356(4)
Cu1_6 Cu 1.0000 0.5000 0.0000
O2_3 O 0.91397(17) 0.41746(25) 0.1406(4)
C1_3 C 0.5674(2) 0.0534(3) 0.6676(4)
H1_3 H 0.5292 0.0096 0.6324
C2_3 C 0.6139(2) 0.0982(3) 0.5466(4)
H2_3 H 0.6074 0.0847 0.4319
C3_3 C 0.6712(2) 0.1643(4) 0.5952(5)
C4_3 C 0.6288(3) 0.1335(4) 0.8822(5)
H3_3 H 0.6339 0.1458 0.9977
C5_3 C 0.6773(3) 0.1816(5) 0.7680(6)
H4_3 H 0.7140 0.2256 0.8061
C6_3 C 0.7225(2) 0.2129(4) 0.4645(5)
C7_3 C 0.7404(3) 0.1851(4) 0.3244(5)
H5_3 H 0.7179 0.1357 0.3107
C8_3 C 0.7903(3) 0.2286(4) 0.2056(5)
H6_3 H 0.8025 0.2084 0.1156
C9_3 C 0.8230(3) 0.3035(4) 0.2198(5)
C10_3 C 0.8023(3) 0.3315(4) 0.3563(6)
H7_3 H 0.8222 0.3808 0.3655
C11_3 C 0.7534(3) 0.2877(4) 0.4769(6)
H8_3 H 0.7408 0.3076 0.5667
C12_3 C 0.8782(2) 0.3523(4) 0.0969(6)
F5_3 F 0.9954(2) 0.6878(3) 0.3302(6)
Cu1_7 Cu 0.5000 1.0000 0.0000
F4_3 F 0.5933(2) 0.94606(19) 0.4716(4)
F6_3 F 0.6375(2) 0.88958(18) 0.3423(4)
O3_3 O 0.57774(18) 0.99927(15) 0.1622(4)
C28_3 C 0.5635(3) 0.8880(3) 0.0609(6)
H18_3 H 0.5738 0.8525 0.0924
C29_3 C 0.5855(3) 0.9450(3) 0.1694(6)
C30_3 C 0.6262(4) 0.9450(3) 0.3289(7)
N4_2 N 0.42559(19) 0.93036(27) 0.1644(4)
Cu1_8 Cu -0.0000 0.5000 1.0000
F2_3 F 0.0046(2) 0.3122(3) 0.6698(6)
O4_3 O 0.08603(17) 0.58254(25) 0.8594(4)
C16_3 C 0.4326(2) 0.9466(3) 0.3324(4)
H10_3 H 0.4708 0.9904 0.3676
C17_3 C 0.3861(2) 0.9018(3) 0.4534(4)
H11_3 H 0.3926 0.9153 0.5681
C18_3 C 0.3288(2) 0.8357(4) 0.4048(5)
C19_3 C 0.3712(3) 0.8665(4) 0.1178(5)
H12_3 H 0.3661 0.8542 0.0023
C20_3 C 0.3227(3) 0.8184(5) 0.2320(6)
H13_3 H 0.2860 0.7744 0.1939
C21_3 C 0.2775(2) 0.7871(4) 0.5355(5)
C22_3 C 0.2596(3) 0.8149(4) 0.6756(5)
H14_3 H 0.2821 0.8643 0.6893
C23_3 C 0.2097(3) 0.7714(4) 0.7944(5)
H15_3 H 0.1975 0.7916 0.8844
C24_3 C 0.1770(3) 0.6965(4) 0.7802(5)
C25_3 C 0.1977(3) 0.6685(4) 0.6437(6)
H16_3 H 0.1778 0.6192 0.6345
C26_3 C 0.2466(3) 0.7123(4) 0.5231(6)
H17_3 H 0.2592 0.6924 0.4333
C27_3 C 0.1218(2) 0.6477(4) 0.9031(6)
loop_
_geom_bond_atom_site_label_1
_geom_bond_atom_site_label_2
_geom_bond_site_symmetry_1
_geom_bond_site_symmetry_2
O4 Cu1 1_555 1_555
N2 C16 1_555 1_555
C16 H10 1_555 1_555
C17 C16 1_555 1_555
H11 C17 1_555 1_555
C18 C17 1_555 1_555
C19 N2 1_555 1_555
H12 C19 1_555 1_555
C20 C18 1_555 1_555
H13 C20 1_555 1_555
C21 C18 1_555 1_555
C22 C21 1_555 1_555
H14 C22 1_555 1_555
C23 C22 1_555 1_555
H15 C23 1_555 1_555
C24 C23 1_555 1_555
C25 C24 1_555 1_555
H16 C25 1_555 1_555
C26 C21 1_555 1_555
H17 C26 1_555 1_555
C27 O4 1_555 1_555
Cu3 N2 1_555 1_555
C19 C20 1_555 1_555
C24 C27 1_555 1_555
C25 C26 1_555 1_555
Cu1_2 O1 1_555 1_555
F1 C15 1_555 1_555
F3 C15 1_555 1_555
O1 C14 1_555 1_555
H9 C13 1_555 1_555
C14 C13 1_555 1_555
C15 C14 1_555 1_555
N3 Cu1_2 1_555 1_555
O2 Cu3 1_555 1_555
N3 C1 1_555 1_555
C1 H1 1_555 1_555
C2 C1 1_555 1_555
H2 C2 1_555 1_555
C3 C2 1_555 1_555
C4 N3 1_555 1_555
H3 C4 1_555 1_555
C5 C3 1_555 1_555
H4 C5 1_555 1_555
C6 C3 1_555 1_555
C7 C6 1_555 1_555
H5 C7 1_555 1_555
C8 C7 1_555 1_555
H6 C8 1_555 1_555
C9 C8 1_555 1_555
C10 C9 1_555 1_555
H7 C10 1_555 1_555
C11 C6 1_555 1_555
H8 C11 1_555 1_555
C12 O2 1_555 1_555
F4 C30 1_555 1_555
F5 C30 1_555 1_555
F6 C30 1_555 1_555
O3 Cu3 1_555 1_555
H18 C28 1_555 1_555
C29 O3 1_555 1_555
C30 C29 1_555 1_555
C4 C5 1_555 1_555
C9 C12 1_555 1_555
C10 C11 1_555 1_555
C28 C29 1_555 1_555
O2_2 Cu1_3 1_555 1_555
N1 C1_2 1_555 1_555
C1_2 H1_2 1_555 1_555
C2_2 C1_2 1_555 1_555
H2_2 C2_2 1_555 1_555
C3_2 C2_2 1_555 1_555
C4_2 N1 1_555 1_555
H3_2 C4_2 1_555 1_555
C5_2 C3_2 1_555 1_555
H4_2 C5_2 1_555 1_555
C6_2 C3_2 1_555 1_555
C7_2 C6_2 1_555 1_555
H5_2 C7_2 1_555 1_555
C8_2 C7_2 1_555 1_555
H6_2 C8_2 1_555 1_555
C9_2 C8_2 1_555 1_555
C10_2 C9_2 1_555 1_555
H7_2 C10_2 1_555 1_555
C11_2 C6_2 1_555 1_555
H8_2 C11_2 1_555 1_555
C12_2 O2_2 1_555 1_555
Cu3_2 N1 1_555 1_555
C4_2 C5_2 1_555 1_555
C9_2 C12_2 1_555 1_555
C10_2 C11_2 1_555 1_555
F4_2 C30_2 1_555 1_555
F6_2 C30_2 1_555 1_555
O3_2 Cu1_4 1_555 1_555
H18_2 C28_2 1_555 1_555
C29_2 O3_2 1_555 1_555
C30_2 C29_2 1_555 1_555
N4 Cu1_4 1_555 1_555
C28_2 C29_2 1_555 1_555
Cu3_2 O1_2 1_555 1_555
F1_2 C15_2 1_555 1_555
F2_2 C15_2 1_555 1_555
F3_2 C15_2 1_555 1_555
O1_2 C14_2 1_555 1_555
H9_2 C13_2 1_555 1_555
C14_2 C13_2 1_555 1_555
C15_2 C14_2 1_555 1_555
O4_2 Cu3_2 1_555 1_555
N4 C16_2 1_555 1_555
C16_2 H10_2 1_555 1_555
C17_2 C16_2 1_555 1_555
H11_2 C17_2 1_555 1_555
C18_2 C17_2 1_555 1_555
C19_2 N4 1_555 1_555
H12_2 C19_2 1_555 1_555
C20_2 C18_2 1_555 1_555
H13_2 C20_2 1_555 1_555
C21_2 C18_2 1_555 1_555
C22_2 C21_2 1_555 1_555
H14_2 C22_2 1_555 1_555
C23_2 C22_2 1_555 1_555
H15_2 C23_2 1_555 1_555
C24_2 C23_2 1_555 1_555
C25_2 C24_2 1_555 1_555
H16_2 C25_2 1_555 1_555
C26_2 C21_2 1_555 1_555
H17_2 C26_2 1_555 1_555
C27_2 O4_2 1_555 1_555
C19_2 C20_2 1_555 1_555
C24_2 C27_2 1_555 1_555
C25_2 C26_2 1_555 1_555
Cu1_5 O1_3 1_555 1_555
F1_3 C15_3 1_555 1_555
F3_3 C15_3 1_555 1_555
O1_3 C14_3 1_555 1_555
H9_3 C13_3 1_555 1_555
C14_3 C13_3 1_555 1_555
C15_3 C14_3 1_555 1_555
N3_2 Cu1_5 1_555 1_555
O2_3 Cu1_6 1_555 1_555
N3_2 C1_3 1_555 1_555
C1_3 H1_3 1_555 1_555
C2_3 C1_3 1_555 1_555
H2_3 C2_3 1_555 1_555
C3_3 C2_3 1_555 1_555
C4_3 N3_2 1_555 1_555
H3_3 C4_3 1_555 1_555
C5_3 C3_3 1_555 1_555
H4_3 C5_3 1_555 1_555
C6_3 C3_3 1_555 1_555
C7_3 C6_3 1_555 1_555
H5_3 C7_3 1_555 1_555
C8_3 C7_3 1_555 1_555
H6_3 C8_3 1_555 1_555
C9_3 C8_3 1_555 1_555
C10_3 C9_3 1_555 1_555
H7_3 C10_3 1_555 1_555
C11_3 C6_3 1_555 1_555
H8_3 C11_3 1_555 1_555
C12_3 O2_3 1_555 1_555
C4_3 C5_3 1_555 1_555
C9_3 C12_3 1_555 1_555
C10_3 C11_3 1_555 1_555
F4_3 C30_3 1_555 1_555
F6_3 C30_3 1_555 1_555
O3_3 Cu1_7 1_555 1_555
H18_3 C28_3 1_555 1_555
C29_3 O3_3 1_555 1_555
C30_3 C29_3 1_555 1_555
N4_2 Cu1_7 1_555 1_555
C28_3 C29_3 1_555 1_555
O4_3 Cu1_8 1_555 1_555
N4_2 C16_3 1_555 1_555
C16_3 H10_3 1_555 1_555
C17_3 C16_3 1_555 1_555
H11_3 C17_3 1_555 1_555
C18_3 C17_3 1_555 1_555
C19_3 N4_2 1_555 1_555
H12_3 C19_3 1_555 1_555
C20_3 C18_3 1_555 1_555
H13_3 C20_3 1_555 1_555
C21_3 C18_3 1_555 1_555
C22_3 C21_3 1_555 1_555
H14_3 C22_3 1_555 1_555
C23_3 C22_3 1_555 1_555
H15_3 C23_3 1_555 1_555
C24_3 C23_3 1_555 1_555
C25_3 C24_3 1_555 1_555
H16_3 C25_3 1_555 1_555
C26_3 C21_3 1_555 1_555
H17_3 C26_3 1_555 1_555
C27_3 O4_3 1_555 1_555
C19_3 C20_3 1_555 1_555
C24_3 C27_3 1_555 1_555
C25_3 C26_3 1_555 1_555

#END
