
###############################################################################
#
# This file contains modified crystal structure data generated from the
# MOF subset of the Cambridge Structural Database (CSD) v543 
# hosted by the Cambridge Crystallographic Data Centre (CCDC).
#
# This work is licensed under the Creative Commons
# Attribution-NonCommercial-ShareAlike 4.0 International License.
# To view a copy of this license, visit
# http://creativecommons.org/licenses/by-nc-sa/4.0/
# or send a letter to
# Creative Commons, PO Box 1866, Mountain View, CA 94042, USA.
#
# CIF created using the CSD Python API on 29 September 2022
# The structure has been converted into the P1 space group
# The structure has a 3D framework
# The original CSD entry UKEXEP is in the monoclinic crystal system
# The framework has been calculated to contain at least 10.0% void space
# The void calculation uses a probe of radius 1.32A, grid spacing 0.4
# The framework is charged, counterions have been retained in the structure
# H atom positions have been added when not included in the experimental data
#
###############################################################################

data_UKEXEP
_chemical_formula_moiety         '(C128 H56 Cd12 N16 O104 4-)n'
_symmetry_cell_setting           triclinic
_symmetry_space_group_name_H-M   'P 1'
_symmetry_Int_Tables_number      1
_space_group_name_Hall           'P 1'
loop_
_symmetry_equiv_pos_site_id
_symmetry_equiv_pos_as_xyz
1 x,y,z
_cell_length_a                   13.0719(6)
_cell_length_b                   22.5340(11)
_cell_length_c                   16.8938(8)
_cell_angle_alpha                90
_cell_angle_beta                 99.9080(10)
_cell_angle_gamma                90
_cell_volume                     4902.06
loop_
_atom_site_label
_atom_site_type_symbol
_atom_site_fract_x
_atom_site_fract_y
_atom_site_fract_z
O8 O 0.0490(2) 0.09645(16) 0.2347(2)
Cd5 Cd 0.16613(2) 0.146487(13) 0.171284(16)
C1 C 0.7183(3) 0.10971(19) 0.0804(2)
C2 C 0.7871(3) 0.05569(17) 0.0899(2)
C3 C 0.7994(3) 0.02291(19) 0.0207(2)
C7 C 0.8393(3) 0.03723(18) 0.1655(3)
C8 C 0.8214(3) 0.07259(18) 0.2372(2)
C9 C 0.7387(3) 0.06321(17) 0.2776(2)
C10 C 0.7199(3) 0.09855(18) 0.3408(2)
H3 H 0.6649 0.0900 0.3673
C11 C 0.7837(3) 0.14647(19) 0.3638(2)
C12 C 0.8626(3) 0.15989(19) 0.3224(3)
H4 H 0.9017 0.1941 0.3352
C13 C 0.8848(3) 0.12266(19) 0.2614(2)
C14 C 0.9782(3) 0.1336(2) 0.2227(2)
C16 C 0.7624(3) 0.1859(2) 0.4310(3)
C17 C 0.5702(3) 0.2878(2) 0.1567(2)
C18 C 0.4894(3) 0.30034(18) 0.2081(2)
C19 C 0.5144(3) 0.2916(2) 0.2900(2)
H5 H 0.5783 0.2751 0.3116
C20 C 0.4457(3) 0.30708(18) 0.3409(2)
C21 C 0.3487(3) 0.32896(19) 0.3077(2)
H6 H 0.3015 0.3395 0.3407
C22 C 0.3227(3) 0.33498(18) 0.2253(2)
C23 C 0.3926(3) 0.32218(18) 0.1728(2)
C24 C 0.3648(3) 0.32483(19) 0.0835(2)
C25 C 0.4012(3) 0.3685(2) 0.0347(3)
C29 C 0.3008(3) 0.28096(18) 0.0427(2)
C30 C 0.2605(3) 0.23145(18) 0.0893(2)
C31 C 0.4807(3) 0.3020(2) 0.4299(3)
Cd1 Cd 0.48088(2) 0.154030(14) 0.104540(17)
Cd3 Cd 0.69401(2) 0.248146(13) 0.047196(17)
N2 N 0.6648(3) 0.01545(17) 0.2514(2)
N3 N 0.4701(4) 0.4164(2) 0.0714(3)
N4 N 0.2175(3) 0.3589(2) 0.1949(2)
O1 O 0.7511(3) 0.15436(15) 0.0497(2)
O2 O 0.6346(2) 0.10485(15) 0.1057(2)
O7 O 0.9816(2) 0.18019(16) 0.1815(2)
O10 O 0.5737(3) 0.02362(16) 0.2583(2)
O11 O 0.7156(3) 0.16355(15) 0.4821(2)
O12 O 0.7914(3) 0.23798(15) 0.4340(2)
O13 O 0.5835(3) 0.23406(16) 0.1376(2)
O14 O 0.6192(3) 0.32780(18) 0.1335(3)
O15 O 0.2014(3) 0.3821(2) 0.1292(2)
O16 O 0.1524(3) 0.35388(19) 0.2369(3)
O17 O 0.4347(3) 0.33265(18) 0.47345(19)
O18 O 0.5536(3) 0.2670(2) 0.4530(2)
O19 O 0.3210(2) 0.19253(14) 0.12226(18)
O20 O 0.1658(2) 0.23099(16) 0.0925(2)
O21 O 0.4632(4) 0.4328(2) 0.1385(2)
O22 O 0.5286(4) 0.4381(2) 0.0317(3)
O25 O 0.4107(3) 0.06131(16) 0.0823(3)
O26 O 0.4881(3) 0.13930(18) 0.2406(2)
O27 O 0.8354(3) 0.2662(2) 0.1503(3)
Cd4 Cd 0.48088(2) 0.345970(14) 0.604540(17)
Cd8 Cd 0.69401(2) 0.251854(13) 0.547196(17)
O28 O 0.0720(3) 0.10553(17) 0.0405(2)
O29 O 0.2094(2) 0.06079(15) 0.10478(19)
O36 O 0.1976(3) 0.20498(15) 0.29463(18)
O37 O 0.2954(2) 0.12664(15) 0.28603(17)
H9 H 0.439114 0.0349406 0.127901
H10 H 0.334039 0.0637536 0.0775588
H11 H 0.55202 0.157981 0.270565
H12 H 0.426194 0.157508 0.257627
H13 H 0.901103 0.25711 0.130766
H14 H 0.835249 0.308537 0.166586
H1 H 0.7665 0.0358 0.9705
C26 C 0.3726(4) 0.3697(2) 0.9531(2)
H7 H 0.3984 0.3991 0.9233
C27 C 0.3048(3) 0.32721(19) 0.9147(2)
C28 C 0.2694(3) 0.28288(19) 0.9603(2)
H8 H 0.2239 0.2542 0.9352
C32 C 0.2635(3) 0.3312(2) 0.8261(2)
O23 O 0.1976(3) 0.29502(15) 0.79463(18)
O24 O 0.2954(2) 0.37336(15) 0.78603(17)
Cd7 Cd 0.16613(2) 0.353513(13) 0.671284(16)
O32 O 0.7156(3) 0.33645(15) 0.9821(2)
O33 O 0.7914(3) 0.26202(15) 0.9340(2)
O34 O 0.4347(3) 0.16735(18) 0.97345(19)
O35 O 0.5536(3) 0.2330(2) 0.9530(2)
C15 C 0.8617(3) 0.9330(2) 0.9555(3)
O5 O 0.9280(3) 0.89447(17) 0.9595(2)
O6 O 0.7906(2) 0.93921(15) 0.89522(19)
Cd6 Cd 0.83387(2) 0.853513(13) 0.828716(16)
O30 O 0.0184(2) 0.68019(16) 0.3185(2)
C1_2 C 0.2817(3) 0.60971(19) 0.4196(2)
C2_2 C 0.2129(3) 0.55569(17) 0.4101(2)
C3_2 C 0.2006(3) 0.52291(19) 0.4793(2)
H1_2 H 0.2335 0.5358 0.5295
C4 C 0.1409(3) 0.4726(2) 0.4735(3)
C5 C 0.0823(4) 0.4566(2) 0.3992(3)
H2 H 0.0362 0.4249 0.3951
C6 C 0.0947(4) 0.4893(2) 0.3319(3)
C7_2 C 0.1607(3) 0.53723(18) 0.3345(3)
C8_2 C 0.1786(3) 0.57259(18) 0.2628(2)
C9_2 C 0.2613(3) 0.56321(17) 0.2224(2)
C10_2 C 0.2801(3) 0.59855(18) 0.1592(2)
H3_2 H 0.3351 0.5900 0.1327
C11_2 C 0.2163(3) 0.64647(19) 0.1362(2)
C12_2 C 0.1374(3) 0.65989(19) 0.1776(3)
H4_2 H 0.0983 0.6941 0.1648
C13_2 C 0.1152(3) 0.62266(19) 0.2386(2)
C14_2 C 0.0218(3) 0.6336(2) 0.2773(2)
C15_2 C 0.1383(3) 0.4330(2) 0.5445(3)
C16_2 C 0.2376(3) 0.6859(2) 0.0690(3)
C17_2 C 0.4298(3) 0.7878(2) 0.3433(2)
C18_2 C 0.5106(3) 0.80034(18) 0.2919(2)
C19_2 C 0.4856(3) 0.7916(2) 0.2100(2)
H5_2 H 0.4217 0.7751 0.1884
C20_2 C 0.5543(3) 0.80708(18) 0.1591(2)
C21_2 C 0.6513(3) 0.82896(19) 0.1923(2)
H6_2 H 0.6985 0.8395 0.1593
C22_2 C 0.6773(3) 0.83498(18) 0.2747(2)
C23_2 C 0.6074(3) 0.82218(18) 0.3272(2)
C24_2 C 0.6352(3) 0.82483(19) 0.4165(2)
C25_2 C 0.5988(3) 0.8685(2) 0.4653(3)
C26_2 C 0.6274(4) 0.8697(2) 0.5469(2)
H7_2 H 0.6016 0.8991 0.5767
C27_2 C 0.6952(3) 0.82721(19) 0.5853(2)
C28_2 C 0.7306(3) 0.78288(19) 0.5397(2)
H8_2 H 0.7761 0.7542 0.5648
C29_2 C 0.6992(3) 0.78096(18) 0.4573(2)
C30_2 C 0.7395(3) 0.73145(18) 0.4107(2)
C31_2 C 0.5193(3) 0.8020(2) 0.0701(3)
C32_2 C 0.7365(3) 0.8312(2) 0.6739(2)
Cd1_2 Cd 0.51912(2) 0.654030(14) 0.395460(17)
Cd2 Cd 0.83387(2) 0.646487(13) 0.328716(16)
Cd3_2 Cd 0.30599(2) 0.748146(13) 0.452804(17)
N1 N 0.0327(4) 0.4703(2) 0.2555(2)
N2_2 N 0.3352(3) 0.51545(17) 0.2486(2)
N3_2 N 0.5299(4) 0.9164(2) 0.4286(3)
N4_2 N 0.7825(3) 0.8589(2) 0.3051(2)
O1_2 O 0.2489(3) 0.65436(15) 0.4503(2)
O2_2 O 0.3654(2) 0.60485(15) 0.3943(2)
O3 O 0.0610(3) 0.48337(17) 0.1925(2)
O5_2 O 0.0720(3) 0.39447(17) 0.5405(2)
O6_2 O 0.2094(2) 0.43921(15) 0.60478(19)
O9 O 0.3036(3) 0.47058(15) 0.2781(2)
O10_2 O 0.4263(3) 0.52362(16) 0.2417(2)
O11_2 O 0.2844(3) 0.66355(15) 0.0179(2)
O12_2 O 0.2086(3) 0.73798(15) 0.0660(2)
O13_2 O 0.4165(3) 0.73406(16) 0.3624(2)
O14_2 O 0.3808(3) 0.82780(18) 0.3665(3)
O15_2 O 0.7986(3) 0.8821(2) 0.3708(2)
O16_2 O 0.8476(3) 0.85388(19) 0.2631(3)
O17_2 O 0.5653(3) 0.83265(18) 0.02655(19)
O18_2 O 0.4464(3) 0.7670(2) 0.0470(2)
O19_2 O 0.6790(2) 0.69253(14) 0.37774(18)
O20_2 O 0.8342(2) 0.73099(16) 0.4075(2)
O21_2 O 0.5368(4) 0.9328(2) 0.3615(2)
O22_2 O 0.4714(4) 0.9381(2) 0.4683(3)
O23_2 O 0.8024(3) 0.79502(15) 0.70537(18)
O24_2 O 0.7046(2) 0.87336(15) 0.71397(17)
O25_2 O 0.5893(3) 0.56131(16) 0.4177(3)
O26_2 O 0.5119(3) 0.63930(18) 0.2594(2)
O27_2 O 0.1646(3) 0.7662(2) 0.3497(3)
O28_2 O 0.9280(3) 0.60553(17) 0.4595(2)
O29_2 O 0.7906(2) 0.56079(15) 0.39522(19)
O31 O 0.9510(2) 0.59645(16) 0.2653(2)
O32_2 O 0.2844(3) 0.83645(15) 0.5179(2)
O33_2 O 0.2086(3) 0.76202(15) 0.5660(2)
O34_2 O 0.5653(3) 0.66735(18) 0.52655(19)
O35_2 O 0.4464(3) 0.7330(2) 0.5470(2)
O36_2 O 0.8024(3) 0.70498(15) 0.20537(18)
O37_2 O 0.7046(2) 0.62664(15) 0.21397(17)
H9_2 H 0.560886 0.534941 0.372099
H10_2 H 0.665961 0.563754 0.422441
H11_2 H 0.44798 0.657981 0.229435
H12_2 H 0.573806 0.657508 0.242373
H13_2 H 0.0988966 0.75711 0.369234
H14_2 H 0.164751 0.808537 0.333414
Cd4_2 Cd 0.51912(2) 0.845970(14) 0.895460(17)
Cd8_2 Cd 0.30599(2) 0.751854(13) 0.952804(17)
O4 O 0.9527(4) 0.4409(2) 0.2584(3)
O30_2 O 0.0184(2) 0.81981(16) 0.8185(2)
C15_3 C 0.1383(3) 0.0670(2) 0.0445(3)
H1_3 H 0.2335 0.9642 0.0295
C26_3 C 0.6274(4) 0.6303(2) 0.0469(2)
H7_3 H 0.6016 0.6009 0.0767
C27_3 C 0.6952(3) 0.67279(19) 0.0853(2)
C28_3 C 0.7306(3) 0.71712(19) 0.0397(2)
H8_3 H 0.7761 0.7458 0.0648
C32_3 C 0.7365(3) 0.6688(2) 0.1739(2)
C1_3 C 0.2817(3) 0.89029(19) 0.9196(2)
C2_3 C 0.2129(3) 0.94431(17) 0.9101(2)
C3_3 C 0.2006(3) 0.97709(19) 0.9793(2)
C7_3 C 0.1607(3) 0.96277(18) 0.8345(3)
C8_3 C 0.1786(3) 0.92741(18) 0.7628(2)
C9_3 C 0.2613(3) 0.93679(17) 0.7224(2)
C10_3 C 0.2801(3) 0.90145(18) 0.6592(2)
H3_3 H 0.3351 0.9100 0.6327
C11_3 C 0.2163(3) 0.85353(19) 0.6362(2)
C12_3 C 0.1374(3) 0.84011(19) 0.6776(3)
H4_3 H 0.0983 0.8059 0.6648
C13_3 C 0.1152(3) 0.87734(19) 0.7386(2)
C14_3 C 0.0218(3) 0.8664(2) 0.7773(2)
C16_3 C 0.2376(3) 0.8141(2) 0.5690(3)
C17_3 C 0.4298(3) 0.7122(2) 0.8433(2)
C18_3 C 0.5106(3) 0.69966(18) 0.7919(2)
C19_3 C 0.4856(3) 0.7084(2) 0.7100(2)
H5_3 H 0.4217 0.7249 0.6884
C20_3 C 0.5543(3) 0.69292(18) 0.6591(2)
C21_3 C 0.6513(3) 0.67104(19) 0.6923(2)
H6_3 H 0.6985 0.6605 0.6593
C22_3 C 0.6773(3) 0.66502(18) 0.7747(2)
C23_3 C 0.6074(3) 0.67782(18) 0.8272(2)
C24_3 C 0.6352(3) 0.67517(19) 0.9165(2)
C25_3 C 0.5988(3) 0.6315(2) 0.9653(3)
C29_3 C 0.6992(3) 0.71904(18) 0.9573(2)
C30_3 C 0.7395(3) 0.76855(18) 0.9107(2)
C31_3 C 0.5193(3) 0.6980(2) 0.5701(3)
N2_3 N 0.3352(3) 0.98455(17) 0.7486(2)
N3_3 N 0.5299(4) 0.5836(2) 0.9286(3)
N4_3 N 0.7825(3) 0.6411(2) 0.8051(2)
O1_3 O 0.2489(3) 0.84564(15) 0.9503(2)
O2_3 O 0.3654(2) 0.89515(15) 0.8943(2)
O10_3 O 0.4263(3) 0.97638(16) 0.7417(2)
O13_3 O 0.4165(3) 0.76594(16) 0.8624(2)
O14_3 O 0.3808(3) 0.67220(18) 0.8665(3)
O15_3 O 0.7986(3) 0.6179(2) 0.8708(2)
O16_3 O 0.8476(3) 0.64612(19) 0.7631(3)
O19_3 O 0.6790(2) 0.80747(14) 0.87774(18)
O20_3 O 0.8342(2) 0.76901(16) 0.9075(2)
O21_3 O 0.5368(4) 0.5672(2) 0.8615(2)
O22_3 O 0.4714(4) 0.5619(2) 0.9683(3)
O25_3 O 0.5893(3) 0.93869(16) 0.9177(3)
O26_3 O 0.5119(3) 0.86070(18) 0.7594(2)
O27_3 O 0.1646(3) 0.7338(2) 0.8497(3)
O31_2 O 0.9510(2) 0.90355(16) 0.7653(2)
H9_3 H 0.560886 0.965059 0.872099
H10_3 H 0.665961 0.936246 0.922441
H11_3 H 0.44798 0.842019 0.729435
H12_3 H 0.573806 0.842492 0.742373
H13_3 H 0.0988966 0.74289 0.869234
H14_3 H 0.164751 0.691463 0.833414
O4_2 O 0.0473(4) 0.5591(2) 0.7416(3)
O8_2 O 0.0490(2) 0.40355(16) 0.7347(2)
C1_4 C 0.7183(3) 0.39029(19) 0.5804(2)
C2_4 C 0.7871(3) 0.44431(17) 0.5899(2)
C3_4 C 0.7994(3) 0.47709(19) 0.5207(2)
H1_4 H 0.7665 0.4642 0.4705
C4_2 C 0.8591(3) 0.5274(2) 0.5265(3)
C5_2 C 0.9177(4) 0.5434(2) 0.6008(3)
H2_2 H 0.9638 0.5751 0.6049
C6_2 C 0.9053(4) 0.5107(2) 0.6681(3)
C7_4 C 0.8393(3) 0.46277(18) 0.6655(3)
C8_4 C 0.8214(3) 0.42741(18) 0.7372(2)
C9_4 C 0.7387(3) 0.43679(17) 0.7776(2)
C10_4 C 0.7199(3) 0.40145(18) 0.8408(2)
H3_4 H 0.6649 0.4100 0.8673
C11_4 C 0.7837(3) 0.35353(19) 0.8638(2)
C12_4 C 0.8626(3) 0.34011(19) 0.8224(3)
H4_4 H 0.9017 0.3059 0.8352
C13_4 C 0.8848(3) 0.37734(19) 0.7614(2)
C14_4 C 0.9782(3) 0.3664(2) 0.7227(2)
C15_4 C 0.8617(3) 0.5670(2) 0.4555(3)
C16_4 C 0.7624(3) 0.3141(2) 0.9310(3)
C17_4 C 0.5702(3) 0.2122(2) 0.6567(2)
C18_4 C 0.4894(3) 0.19966(18) 0.7081(2)
C19_4 C 0.5144(3) 0.2084(2) 0.7900(2)
H5_4 H 0.5783 0.2249 0.8116
C20_4 C 0.4457(3) 0.19292(18) 0.8409(2)
C21_4 C 0.3487(3) 0.17104(19) 0.8077(2)
H6_4 H 0.3015 0.1605 0.8407
C22_4 C 0.3227(3) 0.16502(18) 0.7253(2)
C23_4 C 0.3926(3) 0.17782(18) 0.6728(2)
C24_4 C 0.3648(3) 0.17517(19) 0.5835(2)
C25_4 C 0.4012(3) 0.1315(2) 0.5347(3)
C26_4 C 0.3726(4) 0.1303(2) 0.4531(2)
H7_4 H 0.3984 0.1009 0.4233
C27_4 C 0.3048(3) 0.17279(19) 0.4147(2)
C28_4 C 0.2694(3) 0.21712(19) 0.4603(2)
H8_4 H 0.2239 0.2458 0.4352
C29_4 C 0.3008(3) 0.21904(18) 0.5427(2)
C30_4 C 0.2605(3) 0.26855(18) 0.5893(2)
C31_4 C 0.4807(3) 0.1980(2) 0.9299(3)
C32_4 C 0.2635(3) 0.1688(2) 0.3261(2)
N1_2 N 0.9673(4) 0.5297(2) 0.7445(2)
N2_4 N 0.6648(3) 0.48455(17) 0.7514(2)
N3_4 N 0.4701(4) 0.0836(2) 0.5714(3)
N4_4 N 0.2175(3) 0.1411(2) 0.6949(2)
O1_4 O 0.7511(3) 0.34564(15) 0.5497(2)
O2_4 O 0.6346(2) 0.39515(15) 0.6057(2)
O3_2 O 0.9390(3) 0.51663(17) 0.8075(2)
O7_2 O 0.9816(2) 0.31981(16) 0.6815(2)
O9_2 O 0.6964(3) 0.52942(15) 0.7219(2)
O10_4 O 0.5737(3) 0.47638(16) 0.7583(2)
O13_4 O 0.5835(3) 0.26594(16) 0.6376(2)
O14_4 O 0.6192(3) 0.17220(18) 0.6335(3)
O15_4 O 0.2014(3) 0.1179(2) 0.6292(2)
O16_4 O 0.1524(3) 0.14612(19) 0.7369(3)
O19_4 O 0.3210(2) 0.30747(14) 0.62226(18)
O20_4 O 0.1658(2) 0.26901(16) 0.5925(2)
O21_4 O 0.4632(4) 0.0672(2) 0.6385(2)
O22_4 O 0.5286(4) 0.0619(2) 0.5317(3)
O25_4 O 0.4107(3) 0.43869(16) 0.5823(3)
O26_4 O 0.4881(3) 0.36070(18) 0.7406(2)
O27_4 O 0.8354(3) 0.2338(2) 0.6503(3)
H9_4 H 0.439114 0.465059 0.627901
H10_4 H 0.334039 0.436246 0.577559
H11_4 H 0.55202 0.342019 0.770565
H12_4 H 0.426194 0.342492 0.757627
H13_4 H 0.901103 0.24289 0.630766
H14_4 H 0.835249 0.191463 0.666586
O4_3 O 0.0473(4) 0.9409(2) 0.2416(3)
C4_3 C 0.8591(3) 0.9726(2) 0.0265(3)
C5_3 C 0.9177(4) 0.9566(2) 0.1008(3)
H2_3 H 0.9638 0.9249 0.1049
C6_3 C 0.9053(4) 0.9893(2) 0.1681(3)
N1_3 N 0.9673(4) 0.9703(2) 0.2445(2)
O3_3 O 0.9390(3) 0.98337(17) 0.3075(2)
O9_3 O 0.6964(3) 0.97058(15) 0.2219(2)
C4_4 C 0.1409(3) 0.0274(2) 0.9735(3)
C5_4 C 0.0823(4) 0.0434(2) 0.8992(3)
H2_4 H 0.0362 0.0751 0.8951
C6_4 C 0.0947(4) 0.0107(2) 0.8319(3)
N1_4 N 0.0327(4) 0.0297(2) 0.7555(2)
O3_4 O 0.0610(3) 0.01663(17) 0.6925(2)
O9_4 O 0.3036(3) 0.02942(15) 0.7781(2)
O4_4 O 0.9527(4) 0.0591(2) 0.7584(3)
loop_
_geom_bond_atom_site_label_1
_geom_bond_atom_site_label_2
_geom_bond_site_symmetry_1
_geom_bond_site_symmetry_2
O8 Cd5 1_555 1_555
C1 C2 1_555 1_555
C2 C3 1_555 1_555
C7 C2 1_555 1_555
C8 C7 1_555 1_555
C9 C8 1_555 1_555
C10 C9 1_555 1_555
H3 C10 1_555 1_555
C11 C10 1_555 1_555
C12 C11 1_555 1_555
H4 C12 1_555 1_555
C13 C8 1_555 1_555
C14 C13 1_555 1_555
C16 C11 1_555 1_555
C17 C18 1_555 1_555
C18 C19 1_555 1_555
C19 H5 1_555 1_555
C20 C19 1_555 1_555
C21 C20 1_555 1_555
H6 C21 1_555 1_555
C22 C21 1_555 1_555
C23 C18 1_555 1_555
C24 C23 1_555 1_555
C25 C24 1_555 1_555
C29 C24 1_555 1_555
C30 C29 1_555 1_555
C31 C20 1_555 1_555
Cd1 O2 1_555 1_555
Cd5 O19 1_555 1_555
Cd3 O1 1_555 1_555
N2 C9 1_555 1_555
N3 C25 1_555 1_555
N4 C22 1_555 1_555
O1 C1 1_555 1_555
O2 C1 1_555 1_555
O7 C14 1_555 1_555
O10 N2 1_555 1_555
O11 C16 1_555 1_555
O12 C16 1_555 1_555
O13 C17 1_555 1_555
O14 C17 1_555 1_555
O15 N4 1_555 1_555
O16 N4 1_555 1_555
O17 C31 1_555 1_555
O18 C31 1_555 1_555
O19 C30 1_555 1_555
O20 C30 1_555 1_555
O21 N3 1_555 1_555
O22 N3 1_555 1_555
O25 Cd1 1_555 1_555
O26 Cd1 1_555 1_555
O27 Cd3 1_555 1_555
Cd4 O17 1_555 1_555
Cd8 O11 1_555 1_555
O28 Cd5 1_555 1_555
O29 Cd5 1_555 1_555
O36 Cd5 1_555 1_555
O37 Cd5 1_555 1_555
C12 C13 1_555 1_555
C22 C23 1_555 1_555
Cd1 O13 1_555 1_555
Cd1 O19 1_555 1_555
Cd5 O20 1_555 1_555
Cd3 O13 1_555 1_555
Cd3 O14 1_555 1_555
O12 Cd8 1_555 1_555
O18 Cd8 1_555 1_555
O25 H9 1_555 1_555
O25 H10 1_555 1_555
O26 H11 1_555 1_555
O26 H12 1_555 1_555
O27 H13 1_555 1_555
O27 H14 1_555 1_555
H7 C26 1_555 1_555
C27 C26 1_555 1_555
C28 C27 1_555 1_555
H8 C28 1_555 1_555
C32 C27 1_555 1_555
O23 C32 1_555 1_555
O24 C32 1_555 1_555
Cd7 O23 1_555 1_555
O24 Cd7 1_555 1_555
O5 C15 1_555 1_555
O6 C15 1_555 1_555
Cd6 O5 1_555 1_555
O6 Cd6 1_555 1_555
C1_2 C2_2 1_555 1_555
C2_2 C3_2 1_555 1_555
C3_2 H1_2 1_555 1_555
C4 C3_2 1_555 1_555
C5 C4 1_555 1_555
H2 C5 1_555 1_555
C6 C5 1_555 1_555
C7_2 C2_2 1_555 1_555
C8_2 C7_2 1_555 1_555
C9_2 C8_2 1_555 1_555
C10_2 C9_2 1_555 1_555
H3_2 C10_2 1_555 1_555
C11_2 C10_2 1_555 1_555
C12_2 C11_2 1_555 1_555
H4_2 C12_2 1_555 1_555
C13_2 C8_2 1_555 1_555
C14_2 C13_2 1_555 1_555
C15_2 C4 1_555 1_555
C16_2 C11_2 1_555 1_555
C17_2 C18_2 1_555 1_555
C18_2 C19_2 1_555 1_555
C19_2 H5_2 1_555 1_555
C20_2 C19_2 1_555 1_555
C21_2 C20_2 1_555 1_555
H6_2 C21_2 1_555 1_555
C22_2 C21_2 1_555 1_555
C23_2 C18_2 1_555 1_555
C24_2 C23_2 1_555 1_555
C25_2 C24_2 1_555 1_555
C26_2 C25_2 1_555 1_555
H7_2 C26_2 1_555 1_555
C27_2 C26_2 1_555 1_555
C28_2 C27_2 1_555 1_555
H8_2 C28_2 1_555 1_555
C29_2 C24_2 1_555 1_555
C30_2 C29_2 1_555 1_555
C31_2 C20_2 1_555 1_555
C32_2 C27_2 1_555 1_555
Cd1_2 O2_2 1_555 1_555
Cd2 O19_2 1_555 1_555
Cd3_2 O1_2 1_555 1_555
N1 C6 1_555 1_555
N2_2 C9_2 1_555 1_555
N3_2 C25_2 1_555 1_555
N4_2 C22_2 1_555 1_555
O1_2 C1_2 1_555 1_555
O2_2 C1_2 1_555 1_555
O3 N1 1_555 1_555
O5_2 C15_2 1_555 1_555
O6_2 C15_2 1_555 1_555
O30 C14_2 1_555 1_555
O9 N2_2 1_555 1_555
O10_2 N2_2 1_555 1_555
O11_2 C16_2 1_555 1_555
O12_2 C16_2 1_555 1_555
O13_2 C17_2 1_555 1_555
O14_2 C17_2 1_555 1_555
O15_2 N4_2 1_555 1_555
O16_2 N4_2 1_555 1_555
O17_2 C31_2 1_555 1_555
O18_2 C31_2 1_555 1_555
O19_2 C30_2 1_555 1_555
O20_2 C30_2 1_555 1_555
O21_2 N3_2 1_555 1_555
O22_2 N3_2 1_555 1_555
O23_2 C32_2 1_555 1_555
O24_2 C32_2 1_555 1_555
O25_2 Cd1_2 1_555 1_555
O26_2 Cd1_2 1_555 1_555
O27_2 Cd3_2 1_555 1_555
Cd7 O5_2 1_555 1_555
Cd6 O23_2 1_555 1_555
O28_2 Cd2 1_555 1_555
O29_2 Cd2 1_555 1_555
O31 Cd2 1_555 1_555
O32_2 Cd3_2 1_555 1_555
O33_2 Cd3_2 1_555 1_555
O34_2 Cd1_2 1_555 1_555
O35_2 Cd3_2 1_555 1_555
O36_2 Cd2 1_555 1_555
O37_2 Cd2 1_555 1_555
C6 C7_2 1_555 1_555
C12_2 C13_2 1_555 1_555
C22_2 C23_2 1_555 1_555
C28_2 C29_2 1_555 1_555
Cd1_2 O13_2 1_555 1_555
Cd1_2 O19_2 1_555 1_555
Cd2 O20_2 1_555 1_555
Cd3_2 O13_2 1_555 1_555
Cd3_2 O14_2 1_555 1_555
O6_2 Cd7 1_555 1_555
O24_2 Cd6 1_555 1_555
O25_2 H9_2 1_555 1_555
O25_2 H10_2 1_555 1_555
O26_2 H11_2 1_555 1_555
O26_2 H12_2 1_555 1_555
O27_2 H13_2 1_555 1_555
O27_2 H14_2 1_555 1_555
O28 C15_3 1_555 1_555
O29 C15_3 1_555 1_555
H7_3 C26_3 1_555 1_555
C27_3 C26_3 1_555 1_555
C28_3 C27_3 1_555 1_555
H8_3 C28_3 1_555 1_555
C32_3 C27_3 1_555 1_555
O36_2 C32_3 1_555 1_555
O37_2 C32_3 1_555 1_555
C1_3 C2_3 1_555 1_555
C2_3 C3_3 1_555 1_555
C7_3 C2_3 1_555 1_555
C8_3 C7_3 1_555 1_555
C9_3 C8_3 1_555 1_555
C10_3 C9_3 1_555 1_555
H3_3 C10_3 1_555 1_555
C11_3 C10_3 1_555 1_555
C12_3 C11_3 1_555 1_555
H4_3 C12_3 1_555 1_555
C13_3 C8_3 1_555 1_555
C14_3 C13_3 1_555 1_555
C16_3 C11_3 1_555 1_555
C17_3 C18_3 1_555 1_555
C18_3 C19_3 1_555 1_555
C19_3 H5_3 1_555 1_555
C20_3 C19_3 1_555 1_555
C21_3 C20_3 1_555 1_555
H6_3 C21_3 1_555 1_555
C22_3 C21_3 1_555 1_555
C23_3 C18_3 1_555 1_555
C24_3 C23_3 1_555 1_555
C25_3 C24_3 1_555 1_555
C29_3 C24_3 1_555 1_555
C30_3 C29_3 1_555 1_555
C31_3 C20_3 1_555 1_555
Cd4_2 O2_3 1_555 1_555
Cd6 O19_3 1_555 1_555
Cd8_2 O1_3 1_555 1_555
N2_3 C9_3 1_555 1_555
N3_3 C25_3 1_555 1_555
N4_3 C22_3 1_555 1_555
O1_3 C1_3 1_555 1_555
O2_3 C1_3 1_555 1_555
O30_2 C14_3 1_555 1_555
O10_3 N2_3 1_555 1_555
O32_2 C16_3 1_555 1_555
O33_2 C16_3 1_555 1_555
O13_3 C17_3 1_555 1_555
O14_3 C17_3 1_555 1_555
O15_3 N4_3 1_555 1_555
O16_3 N4_3 1_555 1_555
O34_2 C31_3 1_555 1_555
O35_2 C31_3 1_555 1_555
O19_3 C30_3 1_555 1_555
O20_3 C30_3 1_555 1_555
O21_3 N3_3 1_555 1_555
O22_3 N3_3 1_555 1_555
O25_3 Cd4_2 1_555 1_555
O26_3 Cd4_2 1_555 1_555
O27_3 Cd8_2 1_555 1_555
O31_2 Cd6 1_555 1_555
C12_3 C13_3 1_555 1_555
C22_3 C23_3 1_555 1_555
Cd4_2 O13_3 1_555 1_555
Cd4_2 O19_3 1_555 1_555
Cd6 O20_3 1_555 1_555
Cd8_2 O13_3 1_555 1_555
Cd8_2 O14_3 1_555 1_555
O25_3 H9_3 1_555 1_555
O25_3 H10_3 1_555 1_555
O26_3 H11_3 1_555 1_555
O26_3 H12_3 1_555 1_555
O27_3 H13_3 1_555 1_555
O27_3 H14_3 1_555 1_555
O8_2 Cd7 1_555 1_555
C1_4 C2_4 1_555 1_555
C2_4 C3_4 1_555 1_555
C3_4 H1_4 1_555 1_555
C4_2 C3_4 1_555 1_555
C5_2 C4_2 1_555 1_555
H2_2 C5_2 1_555 1_555
C6_2 C5_2 1_555 1_555
C7_4 C2_4 1_555 1_555
C8_4 C7_4 1_555 1_555
C9_4 C8_4 1_555 1_555
C10_4 C9_4 1_555 1_555
H3_4 C10_4 1_555 1_555
C11_4 C10_4 1_555 1_555
C12_4 C11_4 1_555 1_555
H4_4 C12_4 1_555 1_555
C13_4 C8_4 1_555 1_555
C14_4 C13_4 1_555 1_555
C15_4 C4_2 1_555 1_555
C16_4 C11_4 1_555 1_555
C17_4 C18_4 1_555 1_555
C18_4 C19_4 1_555 1_555
C19_4 H5_4 1_555 1_555
C20_4 C19_4 1_555 1_555
C21_4 C20_4 1_555 1_555
H6_4 C21_4 1_555 1_555
C22_4 C21_4 1_555 1_555
C23_4 C18_4 1_555 1_555
C24_4 C23_4 1_555 1_555
C25_4 C24_4 1_555 1_555
C26_4 C25_4 1_555 1_555
H7_4 C26_4 1_555 1_555
C27_4 C26_4 1_555 1_555
C28_4 C27_4 1_555 1_555
H8_4 C28_4 1_555 1_555
C29_4 C24_4 1_555 1_555
C30_4 C29_4 1_555 1_555
C31_4 C20_4 1_555 1_555
C32_4 C27_4 1_555 1_555
Cd4 O2_4 1_555 1_555
Cd7 O19_4 1_555 1_555
Cd8 O1_4 1_555 1_555
N1_2 C6_2 1_555 1_555
N2_4 C9_4 1_555 1_555
N3_4 C25_4 1_555 1_555
N4_4 C22_4 1_555 1_555
O1_4 C1_4 1_555 1_555
O2_4 C1_4 1_555 1_555
O3_2 N1_2 1_555 1_555
O28_2 C15_4 1_555 1_555
O29_2 C15_4 1_555 1_555
O7_2 C14_4 1_555 1_555
O9_2 N2_4 1_555 1_555
O10_4 N2_4 1_555 1_555
O32 C16_4 1_555 1_555
O33 C16_4 1_555 1_555
O13_4 C17_4 1_555 1_555
O14_4 C17_4 1_555 1_555
O15_4 N4_4 1_555 1_555
O16_4 N4_4 1_555 1_555
O34 C31_4 1_555 1_555
O35 C31_4 1_555 1_555
O19_4 C30_4 1_555 1_555
O20_4 C30_4 1_555 1_555
O21_4 N3_4 1_555 1_555
O22_4 N3_4 1_555 1_555
O36 C32_4 1_555 1_555
O37 C32_4 1_555 1_555
O25_4 Cd4 1_555 1_555
O26_4 Cd4 1_555 1_555
O27_4 Cd8 1_555 1_555
C6_2 C7_4 1_555 1_555
C12_4 C13_4 1_555 1_555
C22_4 C23_4 1_555 1_555
C28_4 C29_4 1_555 1_555
Cd4 O13_4 1_555 1_555
Cd4 O19_4 1_555 1_555
Cd7 O20_4 1_555 1_555
Cd8 O13_4 1_555 1_555
Cd8 O14_4 1_555 1_555
O25_4 H9_4 1_555 1_555
O25_4 H10_4 1_555 1_555
O26_4 H11_4 1_555 1_555
O26_4 H12_4 1_555 1_555
O27_4 H13_4 1_555 1_555
O27_4 H14_4 1_555 1_555
C5_3 C4_3 1_555 1_555
H2_3 C5_3 1_555 1_555
C6_3 C5_3 1_555 1_555
N1_3 C6_3 1_555 1_555
O3_3 N1_3 1_555 1_555
C5_4 C4_4 1_555 1_555
H2_4 C5_4 1_555 1_555
C6_4 C5_4 1_555 1_555
N1_4 C6_4 1_555 1_555
O3_4 N1_4 1_555 1_555

#END
