
###############################################################################
#
# This file contains modified crystal structure data generated from the
# MOF subset of the Cambridge Structural Database (CSD) v543 
# hosted by the Cambridge Crystallographic Data Centre (CCDC).
#
# This work is licensed under the Creative Commons
# Attribution-NonCommercial-ShareAlike 4.0 International License.
# To view a copy of this license, visit
# http://creativecommons.org/licenses/by-nc-sa/4.0/
# or send a letter to
# Creative Commons, PO Box 1866, Mountain View, CA 94042, USA.
#
# CIF created using the CSD Python API on 29 September 2022
# The structure has been converted into the P1 space group
# The structure has a 3D framework
# The original CSD entry UKIBIB is in the cubic crystal system
# The framework has been calculated to contain at least 10.0% void space
# The void calculation uses a probe of radius 1.32A, grid spacing 0.4
#
###############################################################################

data_UKIBIB
_chemical_formula_moiety         '(C648 H288 O160 Zr30)n'
_symmetry_cell_setting           triclinic
_symmetry_space_group_name_H-M   'P 1'
_symmetry_Int_Tables_number      1
_space_group_name_Hall           'P 1'
loop_
_symmetry_equiv_pos_site_id
_symmetry_equiv_pos_as_xyz
1 x,y,z
_cell_length_a                   33.3694(3)
_cell_length_b                   33.3694(3)
_cell_length_c                   33.3694(3)
_cell_angle_alpha                90
_cell_angle_beta                 90
_cell_angle_gamma                90
_cell_volume                     37157.4
loop_
_atom_site_label
_atom_site_type_symbol
_atom_site_fract_x
_atom_site_fract_y
_atom_site_fract_z
Zr1 Zr 0.5000 0.0000 0.07270(4)
O1 O 0.5000 0.0602(9) 0.1082(10)
O2 O 0.4677(4) 0.0323(4) 0.0323(4)
C1 C 0.5000 0.0897(8) 0.0897(8)
C2 C 0.5000 0.1211(7) 0.1211(7)
C3 C 0.5000 0.1106(6) 0.1596(6)
H1 H 0.5000 0.0836 0.1668
C4 C 0.5000 0.1391(7) 0.1881(7)
H2 H 0.5000 0.1320 0.2150
C5 C 0.5000 0.1777(5) 0.1777(5)
C6 C 0.5000 0.2092(4) 0.2092(4)
C7 C 0.5000 0.2343(2) 0.2343(2)
O3 O 0.5000 0.1082(10) 0.0602(9)
C8 C 0.5000 0.1596(6) 0.1106(6)
H3 H 0.5000 0.1668 0.0836
C9 C 0.5000 0.1881(7) 0.1391(7)
H4 H 0.5000 0.2150 0.1320
O4 O 0.5000 0.4398(9) 0.3918(10)
C10 C 0.5000 0.4103(8) 0.4103(8)
C11 C 0.5000 0.3789(7) 0.3789(7)
C12 C 0.5000 0.3894(6) 0.3404(6)
H5 H 0.5000 0.4164 0.3332
C13 C 0.5000 0.3609(7) 0.3119(7)
H6 H 0.5000 0.3680 0.2850
C14 C 0.5000 0.3223(5) 0.3223(5)
C15 C 0.5000 0.2908(4) 0.2908(4)
C16 C 0.5000 0.2657(2) 0.2657(2)
O5 O 0.5000 0.3918(10) 0.4398(9)
C17 C 0.5000 0.3404(6) 0.3894(6)
H7 H 0.5000 0.3332 0.4164
C18 C 0.5000 0.3119(7) 0.3609(7)
H8 H 0.5000 0.2850 0.3680
Zr4 Zr 0.5000 0.07270(4) 0.0000
Zr6 Zr 0.5000 0.42730(4) 0.5000
Zr8 Zr 0.5000 0.5000 0.42730(4)
Zr11 Zr 0.57270(4) 0.0000 0.0000
Zr12 Zr 0.42730(4) 0.0000 0.0000
O20 O 0.4398(9) 0.0000 0.1082(10)
O21 O 0.5602(9) 0.0000 0.1082(10)
O26 O 0.5323(4) 0.0323(4) 0.0323(4)
Zr3 Zr 0.5000 0.0000 0.92730(4)
Zr4_2 Zr 0.5000 0.07270(4) 1.0000
Zr11_2 Zr 0.57270(4) 0.0000 1.0000
Zr12_2 Zr 0.42730(4) 0.0000 1.0000
O17 O 0.5000 0.0602(9) 0.8918(10)
O22 O 0.5602(9) 0.0000 0.8918(10)
O23 O 0.4398(9) 0.0000 0.8918(10)
O24 O 0.4677(4) 0.0323(4) 0.9677(4)
O25 O 0.5323(4) 0.0323(4) 0.9677(4)
Zr1_2 Zr 0.5000 1.0000 0.07270(4)
O6 O 0.5000 0.9398(9) 0.1082(10)
O7 O 0.5323(4) 0.9677(4) 0.0323(4)
C19 C 0.5000 0.9103(8) 0.0897(8)
C20 C 0.5000 0.8789(7) 0.1211(7)
C21 C 0.5000 0.8894(6) 0.1596(6)
H9 H 0.5000 0.9164 0.1668
C22 C 0.5000 0.8609(7) 0.1881(7)
H10 H 0.5000 0.8680 0.2150
C23 C 0.5000 0.8223(5) 0.1777(5)
C24 C 0.5000 0.7908(4) 0.2092(4)
C25 C 0.5000 0.7657(2) 0.2343(2)
O8 O 0.5000 0.8918(10) 0.0602(9)
C26 C 0.5000 0.8404(6) 0.1106(6)
H11 H 0.5000 0.8332 0.0836
C27 C 0.5000 0.8119(7) 0.1391(7)
H12 H 0.5000 0.7850 0.1320
O9 O 0.5000 0.5602(9) 0.3918(10)
C28 C 0.5000 0.5897(8) 0.4103(8)
C29 C 0.5000 0.6211(7) 0.3789(7)
C30 C 0.5000 0.6106(6) 0.3404(6)
H13 H 0.5000 0.5836 0.3332
C31 C 0.5000 0.6391(7) 0.3119(7)
H14 H 0.5000 0.6320 0.2850
C32 C 0.5000 0.6777(5) 0.3223(5)
C33 C 0.5000 0.7092(4) 0.2908(4)
C34 C 0.5000 0.7343(2) 0.2657(2)
O10 O 0.5000 0.6082(10) 0.4398(9)
C35 C 0.5000 0.6596(6) 0.3894(6)
H15 H 0.5000 0.6668 0.4164
C36 C 0.5000 0.6881(7) 0.3609(7)
H16 H 0.5000 0.7150 0.3680
Zr2 Zr 0.5000 0.92730(4) 0.0000
O11 O 0.4677(4) 0.9677(4) 0.0323(4)
Zr10 Zr 0.5000 0.57270(4) 0.5000
Zr11_3 Zr 0.57270(4) 1.0000 0.0000
Zr12_3 Zr 0.42730(4) 1.0000 0.0000
O18 O 0.4398(9) 0.8918(10) 0.0000
O19 O 0.5602(9) 0.8918(10) 0.0000
O20_2 O 0.4398(9) 1.0000 0.1082(10)
O21_2 O 0.5602(9) 1.0000 0.1082(10)
Zr2_2 Zr 0.5000 0.92730(4) 1.0000
Zr3_2 Zr 0.5000 1.0000 0.92730(4)
O12 O 0.5000 0.9398(9) 0.8918(10)
O13 O 0.4677(4) 0.9677(4) 0.9677(4)
C37 C 0.5000 0.9103(8) 0.9103(8)
C38 C 0.5000 0.8789(7) 0.8789(7)
C39 C 0.5000 0.8894(6) 0.8404(6)
H17 H 0.5000 0.9164 0.8332
C40 C 0.5000 0.8609(7) 0.8119(7)
H18 H 0.5000 0.8680 0.7850
C41 C 0.5000 0.8223(5) 0.8223(5)
C42 C 0.5000 0.7908(4) 0.7908(4)
C43 C 0.5000 0.7657(2) 0.7657(2)
O14 O 0.5000 0.8918(10) 0.9398(9)
C44 C 0.5000 0.8404(6) 0.8894(6)
H19 H 0.5000 0.8332 0.9164
C45 C 0.5000 0.8119(7) 0.8609(7)
H20 H 0.5000 0.7850 0.8680
O15 O 0.5000 0.5602(9) 0.6082(10)
C46 C 0.5000 0.5897(8) 0.5897(8)
C47 C 0.5000 0.6211(7) 0.6211(7)
C48 C 0.5000 0.6106(6) 0.6596(6)
H21 H 0.5000 0.5836 0.6668
C49 C 0.5000 0.6391(7) 0.6881(7)
H22 H 0.5000 0.6320 0.7150
C50 C 0.5000 0.6777(5) 0.6777(5)
C51 C 0.5000 0.7092(4) 0.7092(4)
C52 C 0.5000 0.7343(2) 0.7343(2)
O16 O 0.5000 0.6082(10) 0.5602(9)
C53 C 0.5000 0.6596(6) 0.6106(6)
H23 H 0.5000 0.6668 0.5836
C54 C 0.5000 0.6881(7) 0.6391(7)
H24 H 0.5000 0.7150 0.6320
Zr5 Zr 0.5000 0.5000 0.57270(4)
Zr11_4 Zr 0.57270(4) 1.0000 1.0000
Zr12_4 Zr 0.42730(4) 1.0000 1.0000
O18_2 O 0.4398(9) 0.8918(10) 1.0000
O19_2 O 0.5602(9) 0.8918(10) 1.0000
O22_2 O 0.5602(9) 1.0000 0.8918(10)
O23_2 O 0.4398(9) 1.0000 0.8918(10)
O27 O 0.5323(4) 0.9677(4) 0.9677(4)
Zr1_3 Zr 0.0000 0.5000 0.07270(4)
O6_2 O 0.0602(9) 0.5000 0.1082(10)
O7_2 O 0.0323(4) 0.5323(4) 0.0323(4)
C19_2 C 0.0897(8) 0.5000 0.0897(8)
C20_2 C 0.1211(7) 0.5000 0.1211(7)
C21_2 C 0.1106(6) 0.5000 0.1596(6)
H9_2 H 0.0836 0.5000 0.1668
C22_2 C 0.1391(7) 0.5000 0.1881(7)
H10_2 H 0.1320 0.5000 0.2150
C23_2 C 0.1777(5) 0.5000 0.1777(5)
C24_2 C 0.2092(4) 0.5000 0.2092(4)
C25_2 C 0.2343(2) 0.5000 0.2343(2)
O8_2 O 0.1082(10) 0.5000 0.0602(9)
C26_2 C 0.1596(6) 0.5000 0.1106(6)
H11_2 H 0.1668 0.5000 0.0836
C27_2 C 0.1881(7) 0.5000 0.1391(7)
H12_2 H 0.2150 0.5000 0.1320
O9_2 O 0.4398(9) 0.5000 0.3918(10)
C28_2 C 0.4103(8) 0.5000 0.4103(8)
C29_2 C 0.3789(7) 0.5000 0.3789(7)
C30_2 C 0.3894(6) 0.5000 0.3404(6)
H13_2 H 0.4164 0.5000 0.3332
C31_2 C 0.3609(7) 0.5000 0.3119(7)
H14_2 H 0.3680 0.5000 0.2850
C32_2 C 0.3223(5) 0.5000 0.3223(5)
C33_2 C 0.2908(4) 0.5000 0.2908(4)
C34_2 C 0.2657(2) 0.5000 0.2657(2)
O10_2 O 0.3918(10) 0.5000 0.4398(9)
C35_2 C 0.3404(6) 0.5000 0.3894(6)
H15_2 H 0.3332 0.5000 0.4164
C36_2 C 0.3119(7) 0.5000 0.3609(7)
H16_2 H 0.2850 0.5000 0.3680
Zr2_3 Zr 0.07270(4) 0.5000 0.0000
O11_2 O 0.0323(4) 0.4677(4) 0.0323(4)
Zr10_2 Zr 0.42730(4) 0.5000 0.5000
Zr11_5 Zr 0.0000 0.57270(4) 0.0000
Zr12_5 Zr 0.0000 0.42730(4) 0.0000
O18_3 O 0.1082(10) 0.4398(9) 0.0000
O19_3 O 0.1082(10) 0.5602(9) 0.0000
O20_3 O 0.0000 0.4398(9) 0.1082(10)
O21_3 O 0.0000 0.5602(9) 0.1082(10)
Zr2_4 Zr 0.07270(4) 0.5000 1.0000
Zr3_3 Zr 0.0000 0.5000 0.92730(4)
O12_2 O 0.0602(9) 0.5000 0.8918(10)
O13_2 O 0.0323(4) 0.4677(4) 0.9677(4)
C37_2 C 0.0897(8) 0.5000 0.9103(8)
C38_2 C 0.1211(7) 0.5000 0.8789(7)
C39_2 C 0.1106(6) 0.5000 0.8404(6)
H17_2 H 0.0836 0.5000 0.8332
C40_2 C 0.1391(7) 0.5000 0.8119(7)
H18_2 H 0.1320 0.5000 0.7850
C41_2 C 0.1777(5) 0.5000 0.8223(5)
C42_2 C 0.2092(4) 0.5000 0.7908(4)
C43_2 C 0.2343(2) 0.5000 0.7657(2)
O14_2 O 0.1082(10) 0.5000 0.9398(9)
C44_2 C 0.1596(6) 0.5000 0.8894(6)
H19_2 H 0.1668 0.5000 0.9164
C45_2 C 0.1881(7) 0.5000 0.8609(7)
H20_2 H 0.2150 0.5000 0.8680
O15_2 O 0.4398(9) 0.5000 0.6082(10)
C46_2 C 0.4103(8) 0.5000 0.5897(8)
C47_2 C 0.3789(7) 0.5000 0.6211(7)
C48_2 C 0.3894(6) 0.5000 0.6596(6)
H21_2 H 0.4164 0.5000 0.6668
C49_2 C 0.3609(7) 0.5000 0.6881(7)
H22_2 H 0.3680 0.5000 0.7150
C50_2 C 0.3223(5) 0.5000 0.6777(5)
C51_2 C 0.2908(4) 0.5000 0.7092(4)
C52_2 C 0.2657(2) 0.5000 0.7343(2)
O16_2 O 0.3918(10) 0.5000 0.5602(9)
C53_2 C 0.3404(6) 0.5000 0.6106(6)
H23_2 H 0.3332 0.5000 0.5836
C54_2 C 0.3119(7) 0.5000 0.6391(7)
H24_2 H 0.2850 0.5000 0.6320
Zr11_6 Zr 0.0000 0.57270(4) 1.0000
Zr12_6 Zr 0.0000 0.42730(4) 1.0000
O18_4 O 0.1082(10) 0.4398(9) 1.0000
O19_4 O 0.1082(10) 0.5602(9) 1.0000
O22_3 O 0.0000 0.5602(9) 0.8918(10)
O23_3 O 0.0000 0.4398(9) 0.8918(10)
O27_2 O 0.0323(4) 0.5323(4) 0.9677(4)
Zr1_4 Zr 1.0000 0.5000 0.07270(4)
O1_2 O 0.9398(9) 0.5000 0.1082(10)
O2_2 O 0.9677(4) 0.4677(4) 0.0323(4)
C1_2 C 0.9103(8) 0.5000 0.0897(8)
C2_2 C 0.8789(7) 0.5000 0.1211(7)
C3_2 C 0.8894(6) 0.5000 0.1596(6)
H1_2 H 0.9164 0.5000 0.1668
C4_2 C 0.8609(7) 0.5000 0.1881(7)
H2_2 H 0.8680 0.5000 0.2150
C5_2 C 0.8223(5) 0.5000 0.1777(5)
C6_2 C 0.7908(4) 0.5000 0.2092(4)
C7_2 C 0.7657(2) 0.5000 0.2343(2)
O3_2 O 0.8918(10) 0.5000 0.0602(9)
C8_2 C 0.8404(6) 0.5000 0.1106(6)
H3_2 H 0.8332 0.5000 0.0836
C9_2 C 0.8119(7) 0.5000 0.1391(7)
H4_2 H 0.7850 0.5000 0.1320
O4_2 O 0.5602(9) 0.5000 0.3918(10)
C10_2 C 0.5897(8) 0.5000 0.4103(8)
C11_2 C 0.6211(7) 0.5000 0.3789(7)
C12_2 C 0.6106(6) 0.5000 0.3404(6)
H5_2 H 0.5836 0.5000 0.3332
C13_2 C 0.6391(7) 0.5000 0.3119(7)
H6_2 H 0.6320 0.5000 0.2850
C14_2 C 0.6777(5) 0.5000 0.3223(5)
C15_2 C 0.7092(4) 0.5000 0.2908(4)
C16_2 C 0.7343(2) 0.5000 0.2657(2)
O5_2 O 0.6082(10) 0.5000 0.4398(9)
C17_2 C 0.6596(6) 0.5000 0.3894(6)
H7_2 H 0.6668 0.5000 0.4164
C18_2 C 0.6881(7) 0.5000 0.3609(7)
H8_2 H 0.7150 0.5000 0.3680
Zr4_3 Zr 0.92730(4) 0.5000 0.0000
Zr6_2 Zr 0.57270(4) 0.5000 0.5000
Zr11_7 Zr 1.0000 0.57270(4) 0.0000
Zr12_7 Zr 1.0000 0.42730(4) 0.0000
O20_4 O 1.0000 0.4398(9) 0.1082(10)
O21_4 O 1.0000 0.5602(9) 0.1082(10)
O26_2 O 0.9677(4) 0.5323(4) 0.0323(4)
Zr3_4 Zr 1.0000 0.5000 0.92730(4)
Zr4_4 Zr 0.92730(4) 0.5000 1.0000
Zr11_8 Zr 1.0000 0.57270(4) 1.0000
Zr12_8 Zr 1.0000 0.42730(4) 1.0000
O17_2 O 0.9398(9) 0.5000 0.8918(10)
O22_4 O 1.0000 0.5602(9) 0.8918(10)
O23_4 O 1.0000 0.4398(9) 0.8918(10)
O24_2 O 0.9677(4) 0.4677(4) 0.9677(4)
O25_2 O 0.9677(4) 0.5323(4) 0.9677(4)
O18_5 O 0.5602(9) 0.1082(10) 0.0000
O19_5 O 0.4398(9) 0.1082(10) 0.0000
C37_3 C 0.5000 0.0897(8) 0.9103(8)
C38_3 C 0.5000 0.1211(7) 0.8789(7)
C39_3 C 0.5000 0.1106(6) 0.8404(6)
H17_3 H 0.5000 0.0836 0.8332
C40_3 C 0.5000 0.1391(7) 0.8119(7)
H18_3 H 0.5000 0.1320 0.7850
C41_3 C 0.5000 0.1777(5) 0.8223(5)
C42_3 C 0.5000 0.2092(4) 0.7908(4)
C43_3 C 0.5000 0.2343(2) 0.7657(2)
O14_3 O 0.5000 0.1082(10) 0.9398(9)
C44_3 C 0.5000 0.1596(6) 0.8894(6)
H19_3 H 0.5000 0.1668 0.9164
C45_3 C 0.5000 0.1881(7) 0.8609(7)
H20_3 H 0.5000 0.2150 0.8680
O15_3 O 0.5000 0.4398(9) 0.6082(10)
C46_3 C 0.5000 0.4103(8) 0.5897(8)
C47_3 C 0.5000 0.3789(7) 0.6211(7)
C48_3 C 0.5000 0.3894(6) 0.6596(6)
H21_3 H 0.5000 0.4164 0.6668
C49_3 C 0.5000 0.3609(7) 0.6881(7)
H22_3 H 0.5000 0.3680 0.7150
C50_3 C 0.5000 0.3223(5) 0.6777(5)
C51_3 C 0.5000 0.2908(4) 0.7092(4)
C52_3 C 0.5000 0.2657(2) 0.7343(2)
O16_3 O 0.5000 0.3918(10) 0.5602(9)
C53_3 C 0.5000 0.3404(6) 0.6106(6)
H23_3 H 0.5000 0.3332 0.5836
C54_3 C 0.5000 0.3119(7) 0.6391(7)
H24_3 H 0.5000 0.2850 0.6320
O18_6 O 0.5602(9) 0.1082(10) 1.0000
O19_6 O 0.4398(9) 0.1082(10) 1.0000
O18_7 O 0.8918(10) 0.5602(9) 0.0000
O19_7 O 0.8918(10) 0.4398(9) 0.0000
C37_4 C 0.9103(8) 0.5000 0.9103(8)
C38_4 C 0.8789(7) 0.5000 0.8789(7)
C39_4 C 0.8894(6) 0.5000 0.8404(6)
H17_4 H 0.9164 0.5000 0.8332
C40_4 C 0.8609(7) 0.5000 0.8119(7)
H18_4 H 0.8680 0.5000 0.7850
C41_4 C 0.8223(5) 0.5000 0.8223(5)
C42_4 C 0.7908(4) 0.5000 0.7908(4)
C43_4 C 0.7657(2) 0.5000 0.7657(2)
O14_4 O 0.8918(10) 0.5000 0.9398(9)
C44_4 C 0.8404(6) 0.5000 0.8894(6)
H19_4 H 0.8332 0.5000 0.9164
C45_4 C 0.8119(7) 0.5000 0.8609(7)
H20_4 H 0.7850 0.5000 0.8680
O15_4 O 0.5602(9) 0.5000 0.6082(10)
C46_4 C 0.5897(8) 0.5000 0.5897(8)
C47_4 C 0.6211(7) 0.5000 0.6211(7)
C48_4 C 0.6106(6) 0.5000 0.6596(6)
H21_4 H 0.5836 0.5000 0.6668
C49_4 C 0.6391(7) 0.5000 0.6881(7)
H22_4 H 0.6320 0.5000 0.7150
C50_4 C 0.6777(5) 0.5000 0.6777(5)
C51_4 C 0.7092(4) 0.5000 0.7092(4)
C52_4 C 0.7343(2) 0.5000 0.7343(2)
O16_4 O 0.6082(10) 0.5000 0.5602(9)
C53_4 C 0.6596(6) 0.5000 0.6106(6)
H23_4 H 0.6668 0.5000 0.5836
C54_4 C 0.6881(7) 0.5000 0.6391(7)
H24_4 H 0.7150 0.5000 0.6320
O18_8 O 0.8918(10) 0.5602(9) 1.0000
O19_8 O 0.8918(10) 0.4398(9) 1.0000
Zr1_5 Zr 0.07270(4) 0.0000 0.5000
O1_3 O 0.1082(10) 0.0602(9) 0.5000
O2_3 O 0.0323(4) 0.0323(4) 0.5323(4)
C1_3 C 0.0897(8) 0.0897(8) 0.5000
C2_3 C 0.1211(7) 0.1211(7) 0.5000
C3_3 C 0.1596(6) 0.1106(6) 0.5000
H1_3 H 0.1668 0.0836 0.5000
C4_3 C 0.1881(7) 0.1391(7) 0.5000
H2_3 H 0.2150 0.1320 0.5000
C5_3 C 0.1777(5) 0.1777(5) 0.5000
C6_3 C 0.2092(4) 0.2092(4) 0.5000
C7_3 C 0.2343(2) 0.2343(2) 0.5000
O3_3 O 0.0602(9) 0.1082(10) 0.5000
C8_3 C 0.1106(6) 0.1596(6) 0.5000
H3_3 H 0.0836 0.1668 0.5000
C9_3 C 0.1391(7) 0.1881(7) 0.5000
H4_3 H 0.1320 0.2150 0.5000
O4_3 O 0.3918(10) 0.4398(9) 0.5000
C10_3 C 0.4103(8) 0.4103(8) 0.5000
C11_3 C 0.3789(7) 0.3789(7) 0.5000
C12_3 C 0.3404(6) 0.3894(6) 0.5000
H5_3 H 0.3332 0.4164 0.5000
C13_3 C 0.3119(7) 0.3609(7) 0.5000
H6_3 H 0.2850 0.3680 0.5000
C14_3 C 0.3223(5) 0.3223(5) 0.5000
C15_3 C 0.2908(4) 0.2908(4) 0.5000
C16_3 C 0.2657(2) 0.2657(2) 0.5000
O5_3 O 0.4398(9) 0.3918(10) 0.5000
C17_3 C 0.3894(6) 0.3404(6) 0.5000
H7_3 H 0.4164 0.3332 0.5000
C18_3 C 0.3609(7) 0.3119(7) 0.5000
H8_3 H 0.3680 0.2850 0.5000
Zr4_5 Zr 0.0000 0.07270(4) 0.5000
Zr11_9 Zr -0.0000 0.0000 0.42730(4)
Zr12_9 Zr 0.0000 0.0000 0.57270(4)
O20_5 O 0.1082(10) 0.0000 0.5602(9)
O21_5 O 0.1082(10) 0.0000 0.4398(9)
O26_3 O 0.0323(4) 0.0323(4) 0.4677(4)
Zr1_6 Zr 0.07270(4) 1.0000 0.5000
O6_3 O 0.1082(10) 0.9398(9) 0.5000
O7_3 O 0.0323(4) 0.9677(4) 0.4677(4)
C19_3 C 0.0897(8) 0.9103(8) 0.5000
C20_3 C 0.1211(7) 0.8789(7) 0.5000
C21_3 C 0.1596(6) 0.8894(6) 0.5000
H9_3 H 0.1668 0.9164 0.5000
C22_3 C 0.1881(7) 0.8609(7) 0.5000
H10_3 H 0.2150 0.8680 0.5000
C23_3 C 0.1777(5) 0.8223(5) 0.5000
C24_3 C 0.2092(4) 0.7908(4) 0.5000
C25_3 C 0.2343(2) 0.7657(2) 0.5000
O8_3 O 0.0602(9) 0.8918(10) 0.5000
C26_3 C 0.1106(6) 0.8404(6) 0.5000
H11_3 H 0.0836 0.8332 0.5000
C27_3 C 0.1391(7) 0.8119(7) 0.5000
H12_3 H 0.1320 0.7850 0.5000
O9_3 O 0.3918(10) 0.5602(9) 0.5000
C28_3 C 0.4103(8) 0.5897(8) 0.5000
C29_3 C 0.3789(7) 0.6211(7) 0.5000
C30_3 C 0.3404(6) 0.6106(6) 0.5000
H13_3 H 0.3332 0.5836 0.5000
C31_3 C 0.3119(7) 0.6391(7) 0.5000
H14_3 H 0.2850 0.6320 0.5000
C32_3 C 0.3223(5) 0.6777(5) 0.5000
C33_3 C 0.2908(4) 0.7092(4) 0.5000
C34_3 C 0.2657(2) 0.7343(2) 0.5000
O10_3 O 0.4398(9) 0.6082(10) 0.5000
C35_3 C 0.3894(6) 0.6596(6) 0.5000
H15_3 H 0.4164 0.6668 0.5000
C36_3 C 0.3609(7) 0.6881(7) 0.5000
H16_3 H 0.3680 0.7150 0.5000
Zr2_5 Zr 0.0000 0.92730(4) 0.5000
O11_3 O 0.0323(4) 0.9677(4) 0.5323(4)
Zr11_10 Zr 0.0000 1.0000 0.42730(4)
Zr12_10 Zr 0.0000 1.0000 0.57270(4)
O18_9 O 0.0000 0.8918(10) 0.5602(9)
O19_9 O 0.0000 0.8918(10) 0.4398(9)
O20_6 O 0.1082(10) 1.0000 0.5602(9)
O21_6 O 0.1082(10) 1.0000 0.4398(9)
Zr3_5 Zr 0.92730(4) 0.0000 0.5000
Zr4_6 Zr 1.0000 0.07270(4) 0.5000
Zr11_11 Zr 1.0000 0.0000 0.42730(4)
Zr12_11 Zr 1.0000 0.0000 0.57270(4)
O17_3 O 0.8918(10) 0.0602(9) 0.5000
O22_5 O 0.8918(10) 0.0000 0.4398(9)
O23_5 O 0.8918(10) 0.0000 0.5602(9)
O24_3 O 0.9677(4) 0.0323(4) 0.5323(4)
O25_3 O 0.9677(4) 0.0323(4) 0.4677(4)
Zr2_6 Zr 1.0000 0.92730(4) 0.5000
Zr3_6 Zr 0.92730(4) 1.0000 0.5000
O12_3 O 0.8918(10) 0.9398(9) 0.5000
O13_3 O 0.9677(4) 0.9677(4) 0.5323(4)
C37_5 C 0.9103(8) 0.9103(8) 0.5000
C38_5 C 0.8789(7) 0.8789(7) 0.5000
C39_5 C 0.8404(6) 0.8894(6) 0.5000
H17_5 H 0.8332 0.9164 0.5000
C40_5 C 0.8119(7) 0.8609(7) 0.5000
H18_5 H 0.7850 0.8680 0.5000
C41_5 C 0.8223(5) 0.8223(5) 0.5000
C42_5 C 0.7908(4) 0.7908(4) 0.5000
C43_5 C 0.7657(2) 0.7657(2) 0.5000
O14_5 O 0.9398(9) 0.8918(10) 0.5000
C44_5 C 0.8894(6) 0.8404(6) 0.5000
H19_5 H 0.9164 0.8332 0.5000
C45_5 C 0.8609(7) 0.8119(7) 0.5000
H20_5 H 0.8680 0.7850 0.5000
O15_5 O 0.6082(10) 0.5602(9) 0.5000
C46_5 C 0.5897(8) 0.5897(8) 0.5000
C47_5 C 0.6211(7) 0.6211(7) 0.5000
C48_5 C 0.6596(6) 0.6106(6) 0.5000
H21_5 H 0.6668 0.5836 0.5000
C49_5 C 0.6881(7) 0.6391(7) 0.5000
H22_5 H 0.7150 0.6320 0.5000
C50_5 C 0.6777(5) 0.6777(5) 0.5000
C51_5 C 0.7092(4) 0.7092(4) 0.5000
C52_5 C 0.7343(2) 0.7343(2) 0.5000
O16_5 O 0.5602(9) 0.6082(10) 0.5000
C53_5 C 0.6106(6) 0.6596(6) 0.5000
H23_5 H 0.5836 0.6668 0.5000
C54_5 C 0.6391(7) 0.6881(7) 0.5000
H24_5 H 0.6320 0.7150 0.5000
Zr11_12 Zr 1.0000 1.0000 0.42730(4)
Zr12_12 Zr 1.0000 1.0000 0.57270(4)
O18_10 O 1.0000 0.8918(10) 0.5602(9)
O19_10 O 1.0000 0.8918(10) 0.4398(9)
O22_6 O 0.8918(10) 1.0000 0.4398(9)
O23_6 O 0.8918(10) 1.0000 0.5602(9)
O27_3 O 0.9677(4) 0.9677(4) 0.4677(4)
C1_4 C 0.9103(8) 0.0897(8) 0.5000
C2_4 C 0.8789(7) 0.1211(7) 0.5000
C3_4 C 0.8404(6) 0.1106(6) 0.5000
H1_4 H 0.8332 0.0836 0.5000
C4_4 C 0.8119(7) 0.1391(7) 0.5000
H2_4 H 0.7850 0.1320 0.5000
C5_4 C 0.8223(5) 0.1777(5) 0.5000
C6_4 C 0.7908(4) 0.2092(4) 0.5000
C7_4 C 0.7657(2) 0.2343(2) 0.5000
O3_4 O 0.9398(9) 0.1082(10) 0.5000
C8_4 C 0.8894(6) 0.1596(6) 0.5000
H3_4 H 0.9164 0.1668 0.5000
C9_4 C 0.8609(7) 0.1881(7) 0.5000
H4_4 H 0.8680 0.2150 0.5000
O4_4 O 0.6082(10) 0.4398(9) 0.5000
C10_4 C 0.5897(8) 0.4103(8) 0.5000
C11_4 C 0.6211(7) 0.3789(7) 0.5000
C12_4 C 0.6596(6) 0.3894(6) 0.5000
H5_4 H 0.6668 0.4164 0.5000
C13_4 C 0.6881(7) 0.3609(7) 0.5000
H6_4 H 0.7150 0.3680 0.5000
C14_4 C 0.6777(5) 0.3223(5) 0.5000
C15_4 C 0.7092(4) 0.2908(4) 0.5000
C16_4 C 0.7343(2) 0.2657(2) 0.5000
O5_4 O 0.5602(9) 0.3918(10) 0.5000
C17_4 C 0.6106(6) 0.3404(6) 0.5000
H7_4 H 0.5836 0.3332 0.5000
C18_4 C 0.6391(7) 0.3119(7) 0.5000
H8_4 H 0.6320 0.2850 0.5000
O20_7 O 0.0000 0.1082(10) 0.4398(9)
O21_7 O 0.0000 0.1082(10) 0.5602(9)
O20_8 O 1.0000 0.1082(10) 0.4398(9)
O21_8 O 1.0000 0.1082(10) 0.5602(9)
O2_4 O 0.4677(4) 0.5323(4) 0.5323(4)
O7_4 O 0.5323(4) 0.4677(4) 0.5323(4)
O11_4 O 0.4677(4) 0.4677(4) 0.5323(4)
O13_4 O 0.4677(4) 0.4677(4) 0.4677(4)
O24_4 O 0.4677(4) 0.5323(4) 0.4677(4)
O25_4 O 0.5323(4) 0.5323(4) 0.4677(4)
O26_4 O 0.5323(4) 0.5323(4) 0.5323(4)
O27_4 O 0.5323(4) 0.4677(4) 0.4677(4)
O6_4 O 0.0602(9) 0.0000 0.6082(10)
C19_4 C 0.0897(8) 0.0000 0.5897(8)
C20_4 C 0.1211(7) 0.0000 0.6211(7)
C21_4 C 0.1106(6) 0.0000 0.6596(6)
H9_4 H 0.0836 0.0000 0.6668
C22_4 C 0.1391(7) 0.0000 0.6881(7)
H10_4 H 0.1320 0.0000 0.7150
C23_4 C 0.1777(5) 0.0000 0.6777(5)
C24_4 C 0.2092(4) 0.0000 0.7092(4)
C25_4 C 0.2343(2) 0.0000 0.7343(2)
C26_4 C 0.1596(6) 0.0000 0.6106(6)
H11_4 H 0.1668 0.0000 0.5836
C27_4 C 0.1881(7) 0.0000 0.6391(7)
H12_4 H 0.2150 0.0000 0.6320
C28_4 C 0.4103(8) 0.0000 0.9103(8)
C29_4 C 0.3789(7) 0.0000 0.8789(7)
C30_4 C 0.3894(6) 0.0000 0.8404(6)
H13_4 H 0.4164 0.0000 0.8332
C31_4 C 0.3609(7) 0.0000 0.8119(7)
H14_4 H 0.3680 0.0000 0.7850
C32_4 C 0.3223(5) 0.0000 0.8223(5)
C33_4 C 0.2908(4) 0.0000 0.7908(4)
C34_4 C 0.2657(2) 0.0000 0.7657(2)
O10_4 O 0.3918(10) 0.0000 0.9398(9)
C35_4 C 0.3404(6) 0.0000 0.8894(6)
H15_4 H 0.3332 0.0000 0.9164
C36_4 C 0.3119(7) 0.0000 0.8609(7)
H16_4 H 0.2850 0.0000 0.8680
O12_4 O 0.0602(9) 0.0000 0.3918(10)
C37_6 C 0.0897(8) 0.0000 0.4103(8)
C38_6 C 0.1211(7) 0.0000 0.3789(7)
C39_6 C 0.1106(6) 0.0000 0.3404(6)
H17_6 H 0.0836 0.0000 0.3332
C40_6 C 0.1391(7) 0.0000 0.3119(7)
H18_6 H 0.1320 0.0000 0.2850
C41_6 C 0.1777(5) 0.0000 0.3223(5)
C42_6 C 0.2092(4) 0.0000 0.2908(4)
C43_6 C 0.2343(2) 0.0000 0.2657(2)
C44_6 C 0.1596(6) 0.0000 0.3894(6)
H19_6 H 0.1668 0.0000 0.4164
C45_6 C 0.1881(7) 0.0000 0.3609(7)
H20_6 H 0.2150 0.0000 0.3680
C46_6 C 0.4103(8) 0.0000 0.0897(8)
C47_6 C 0.3789(7) 0.0000 0.1211(7)
C48_6 C 0.3894(6) 0.0000 0.1596(6)
H21_6 H 0.4164 0.0000 0.1668
C49_6 C 0.3609(7) 0.0000 0.1881(7)
H22_6 H 0.3680 0.0000 0.2150
C50_6 C 0.3223(5) 0.0000 0.1777(5)
C51_6 C 0.2908(4) 0.0000 0.2092(4)
C52_6 C 0.2657(2) 0.0000 0.2343(2)
O16_6 O 0.3918(10) 0.0000 0.0602(9)
C53_6 C 0.3404(6) 0.0000 0.1106(6)
H23_6 H 0.3332 0.0000 0.0836
C54_6 C 0.3119(7) 0.0000 0.1391(7)
H24_6 H 0.2850 0.0000 0.1320
O21_9 O 0.0000 0.0602(9) 0.6082(10)
O22_7 O 0.0000 0.0602(9) 0.3918(10)
O6_5 O 0.0602(9) 1.0000 0.6082(10)
C19_5 C 0.0897(8) 1.0000 0.5897(8)
C20_5 C 0.1211(7) 1.0000 0.6211(7)
C21_5 C 0.1106(6) 1.0000 0.6596(6)
H9_5 H 0.0836 1.0000 0.6668
C22_5 C 0.1391(7) 1.0000 0.6881(7)
H10_5 H 0.1320 1.0000 0.7150
C23_5 C 0.1777(5) 1.0000 0.6777(5)
C24_5 C 0.2092(4) 1.0000 0.7092(4)
C25_5 C 0.2343(2) 1.0000 0.7343(2)
C26_5 C 0.1596(6) 1.0000 0.6106(6)
H11_5 H 0.1668 1.0000 0.5836
C27_5 C 0.1881(7) 1.0000 0.6391(7)
H12_5 H 0.2150 1.0000 0.6320
C28_5 C 0.4103(8) 1.0000 0.9103(8)
C29_5 C 0.3789(7) 1.0000 0.8789(7)
C30_5 C 0.3894(6) 1.0000 0.8404(6)
H13_5 H 0.4164 1.0000 0.8332
C31_5 C 0.3609(7) 1.0000 0.8119(7)
H14_5 H 0.3680 1.0000 0.7850
C32_5 C 0.3223(5) 1.0000 0.8223(5)
C33_5 C 0.2908(4) 1.0000 0.7908(4)
C34_5 C 0.2657(2) 1.0000 0.7657(2)
O10_5 O 0.3918(10) 1.0000 0.9398(9)
C35_5 C 0.3404(6) 1.0000 0.8894(6)
H15_5 H 0.3332 1.0000 0.9164
C36_5 C 0.3119(7) 1.0000 0.8609(7)
H16_5 H 0.2850 1.0000 0.8680
O12_5 O 0.0602(9) 1.0000 0.3918(10)
C37_7 C 0.0897(8) 1.0000 0.4103(8)
C38_7 C 0.1211(7) 1.0000 0.3789(7)
C39_7 C 0.1106(6) 1.0000 0.3404(6)
H17_7 H 0.0836 1.0000 0.3332
C40_7 C 0.1391(7) 1.0000 0.3119(7)
H18_7 H 0.1320 1.0000 0.2850
C41_7 C 0.1777(5) 1.0000 0.3223(5)
C42_7 C 0.2092(4) 1.0000 0.2908(4)
C43_7 C 0.2343(2) 1.0000 0.2657(2)
C44_7 C 0.1596(6) 1.0000 0.3894(6)
H19_7 H 0.1668 1.0000 0.4164
C45_7 C 0.1881(7) 1.0000 0.3609(7)
H20_7 H 0.2150 1.0000 0.3680
C46_7 C 0.4103(8) 1.0000 0.0897(8)
C47_7 C 0.3789(7) 1.0000 0.1211(7)
C48_7 C 0.3894(6) 1.0000 0.1596(6)
H21_7 H 0.4164 1.0000 0.1668
C49_7 C 0.3609(7) 1.0000 0.1881(7)
H22_7 H 0.3680 1.0000 0.2150
C50_7 C 0.3223(5) 1.0000 0.1777(5)
C51_7 C 0.2908(4) 1.0000 0.2092(4)
C52_7 C 0.2657(2) 1.0000 0.2343(2)
O16_7 O 0.3918(10) 1.0000 0.0602(9)
C53_7 C 0.3404(6) 1.0000 0.1106(6)
H23_7 H 0.3332 1.0000 0.0836
C54_7 C 0.3119(7) 1.0000 0.1391(7)
H24_7 H 0.2850 1.0000 0.1320
O20_9 O 0.0000 0.9398(9) 0.6082(10)
O23_7 O 0.0000 0.9398(9) 0.3918(10)
O1_4 O 0.9398(9) 0.0000 0.6082(10)
C1_5 C 0.9103(8) 0.0000 0.5897(8)
C2_5 C 0.8789(7) 0.0000 0.6211(7)
C3_5 C 0.8894(6) 0.0000 0.6596(6)
H1_5 H 0.9164 0.0000 0.6668
C4_5 C 0.8609(7) 0.0000 0.6881(7)
H2_5 H 0.8680 0.0000 0.7150
C5_5 C 0.8223(5) 0.0000 0.6777(5)
C6_5 C 0.7908(4) 0.0000 0.7092(4)
C7_5 C 0.7657(2) 0.0000 0.7343(2)
C8_5 C 0.8404(6) 0.0000 0.6106(6)
H3_5 H 0.8332 0.0000 0.5836
C9_5 C 0.8119(7) 0.0000 0.6391(7)
H4_5 H 0.7850 0.0000 0.6320
C10_5 C 0.5897(8) 0.0000 0.9103(8)
C11_5 C 0.6211(7) 0.0000 0.8789(7)
C12_5 C 0.6106(6) 0.0000 0.8404(6)
H5_5 H 0.5836 0.0000 0.8332
C13_5 C 0.6391(7) 0.0000 0.8119(7)
H6_5 H 0.6320 0.0000 0.7850
C14_5 C 0.6777(5) 0.0000 0.8223(5)
C15_5 C 0.7092(4) 0.0000 0.7908(4)
C16_5 C 0.7343(2) 0.0000 0.7657(2)
O5_5 O 0.6082(10) 0.0000 0.9398(9)
C17_5 C 0.6596(6) 0.0000 0.8894(6)
H7_5 H 0.6668 0.0000 0.9164
C18_5 C 0.6881(7) 0.0000 0.8609(7)
H8_5 H 0.7150 0.0000 0.8680
O17_4 O 0.9398(9) 0.0000 0.3918(10)
O21_10 O 1.0000 0.0602(9) 0.6082(10)
O22_8 O 1.0000 0.0602(9) 0.3918(10)
O1_5 O 0.9398(9) 1.0000 0.6082(10)
C1_6 C 0.9103(8) 1.0000 0.5897(8)
C2_6 C 0.8789(7) 1.0000 0.6211(7)
C3_6 C 0.8894(6) 1.0000 0.6596(6)
H1_6 H 0.9164 1.0000 0.6668
C4_6 C 0.8609(7) 1.0000 0.6881(7)
H2_6 H 0.8680 1.0000 0.7150
C5_6 C 0.8223(5) 1.0000 0.6777(5)
C6_6 C 0.7908(4) 1.0000 0.7092(4)
C7_6 C 0.7657(2) 1.0000 0.7343(2)
C8_6 C 0.8404(6) 1.0000 0.6106(6)
H3_6 H 0.8332 1.0000 0.5836
C9_6 C 0.8119(7) 1.0000 0.6391(7)
H4_6 H 0.7850 1.0000 0.6320
C10_6 C 0.5897(8) 1.0000 0.9103(8)
C11_6 C 0.6211(7) 1.0000 0.8789(7)
C12_6 C 0.6106(6) 1.0000 0.8404(6)
H5_6 H 0.5836 1.0000 0.8332
C13_6 C 0.6391(7) 1.0000 0.8119(7)
H6_6 H 0.6320 1.0000 0.7850
C14_6 C 0.6777(5) 1.0000 0.8223(5)
C15_6 C 0.7092(4) 1.0000 0.7908(4)
C16_6 C 0.7343(2) 1.0000 0.7657(2)
O5_6 O 0.6082(10) 1.0000 0.9398(9)
C17_6 C 0.6596(6) 1.0000 0.8894(6)
H7_6 H 0.6668 1.0000 0.9164
C18_6 C 0.6881(7) 1.0000 0.8609(7)
H8_6 H 0.7150 1.0000 0.8680
O17_5 O 0.9398(9) 1.0000 0.3918(10)
O20_10 O 1.0000 0.9398(9) 0.6082(10)
O23_8 O 1.0000 0.9398(9) 0.3918(10)
C37_8 C 0.9103(8) 0.0000 0.4103(8)
C38_8 C 0.8789(7) 0.0000 0.3789(7)
C39_8 C 0.8894(6) 0.0000 0.3404(6)
H17_8 H 0.9164 0.0000 0.3332
C40_8 C 0.8609(7) 0.0000 0.3119(7)
H18_8 H 0.8680 0.0000 0.2850
C41_8 C 0.8223(5) 0.0000 0.3223(5)
C42_8 C 0.7908(4) 0.0000 0.2908(4)
C43_8 C 0.7657(2) 0.0000 0.2657(2)
C44_8 C 0.8404(6) 0.0000 0.3894(6)
H19_8 H 0.8332 0.0000 0.4164
C45_8 C 0.8119(7) 0.0000 0.3609(7)
H20_8 H 0.7850 0.0000 0.3680
C46_8 C 0.5897(8) 0.0000 0.0897(8)
C47_8 C 0.6211(7) 0.0000 0.1211(7)
C48_8 C 0.6106(6) 0.0000 0.1596(6)
H21_8 H 0.5836 0.0000 0.1668
C49_8 C 0.6391(7) 0.0000 0.1881(7)
H22_8 H 0.6320 0.0000 0.2150
C50_8 C 0.6777(5) 0.0000 0.1777(5)
C51_8 C 0.7092(4) 0.0000 0.2092(4)
C52_8 C 0.7343(2) 0.0000 0.2343(2)
O16_8 O 0.6082(10) 0.0000 0.0602(9)
C53_8 C 0.6596(6) 0.0000 0.1106(6)
H23_8 H 0.6668 0.0000 0.0836
C54_8 C 0.6881(7) 0.0000 0.1391(7)
H24_8 H 0.7150 0.0000 0.1320
C37_9 C 0.9103(8) 1.0000 0.4103(8)
C38_9 C 0.8789(7) 1.0000 0.3789(7)
C39_9 C 0.8894(6) 1.0000 0.3404(6)
H17_9 H 0.9164 1.0000 0.3332
C40_9 C 0.8609(7) 1.0000 0.3119(7)
H18_9 H 0.8680 1.0000 0.2850
C41_9 C 0.8223(5) 1.0000 0.3223(5)
C42_9 C 0.7908(4) 1.0000 0.2908(4)
C43_9 C 0.7657(2) 1.0000 0.2657(2)
C44_9 C 0.8404(6) 1.0000 0.3894(6)
H19_9 H 0.8332 1.0000 0.4164
C45_9 C 0.8119(7) 1.0000 0.3609(7)
H20_9 H 0.7850 1.0000 0.3680
C46_9 C 0.5897(8) 1.0000 0.0897(8)
C47_9 C 0.6211(7) 1.0000 0.1211(7)
C48_9 C 0.6106(6) 1.0000 0.1596(6)
H21_9 H 0.5836 1.0000 0.1668
C49_9 C 0.6391(7) 1.0000 0.1881(7)
H22_9 H 0.6320 1.0000 0.2150
C50_9 C 0.6777(5) 1.0000 0.1777(5)
C51_9 C 0.7092(4) 1.0000 0.2092(4)
C52_9 C 0.7343(2) 1.0000 0.2343(2)
O16_9 O 0.6082(10) 1.0000 0.0602(9)
C53_9 C 0.6596(6) 1.0000 0.1106(6)
H23_9 H 0.6668 1.0000 0.0836
C54_9 C 0.6881(7) 1.0000 0.1391(7)
H24_9 H 0.7150 1.0000 0.1320
C1_7 C 0.0897(8) 0.5897(8) 0.0000
C2_7 C 0.1211(7) 0.6211(7) 0.0000
C3_7 C 0.1596(6) 0.6106(6) 0.0000
H1_7 H 0.1668 0.5836 0.0000
C4_7 C 0.1881(7) 0.6391(7) 0.0000
H2_7 H 0.2150 0.6320 0.0000
C5_7 C 0.1777(5) 0.6777(5) 0.0000
C6_7 C 0.2092(4) 0.7092(4) 0.0000
C7_7 C 0.2343(2) 0.7343(2) 0.0000
O3_5 O 0.0602(9) 0.6082(10) 0.0000
C8_7 C 0.1106(6) 0.6596(6) 0.0000
H3_7 H 0.0836 0.6668 0.0000
C9_7 C 0.1391(7) 0.6881(7) 0.0000
H4_7 H 0.1320 0.7150 0.0000
O4_5 O 0.3918(10) 0.9398(9) 0.0000
C10_7 C 0.4103(8) 0.9103(8) 0.0000
C11_7 C 0.3789(7) 0.8789(7) 0.0000
C12_7 C 0.3404(6) 0.8894(6) 0.0000
H5_7 H 0.3332 0.9164 0.0000
C13_7 C 0.3119(7) 0.8609(7) 0.0000
H6_7 H 0.2850 0.8680 0.0000
C14_7 C 0.3223(5) 0.8223(5) 0.0000
C15_7 C 0.2908(4) 0.7908(4) 0.0000
C16_7 C 0.2657(2) 0.7657(2) 0.0000
C17_7 C 0.3894(6) 0.8404(6) 0.0000
H7_7 H 0.4164 0.8332 0.0000
C18_7 C 0.3609(7) 0.8119(7) 0.0000
H8_7 H 0.3680 0.7850 0.0000
C19_6 C 0.0897(8) 0.4103(8) 0.0000
C20_6 C 0.1211(7) 0.3789(7) 0.0000
C21_6 C 0.1596(6) 0.3894(6) 0.0000
H9_6 H 0.1668 0.4164 0.0000
C22_6 C 0.1881(7) 0.3609(7) 0.0000
H10_6 H 0.2150 0.3680 0.0000
C23_6 C 0.1777(5) 0.3223(5) 0.0000
C24_6 C 0.2092(4) 0.2908(4) 0.0000
C25_6 C 0.2343(2) 0.2657(2) 0.0000
O8_4 O 0.0602(9) 0.3918(10) 0.0000
C26_6 C 0.1106(6) 0.3404(6) 0.0000
H11_6 H 0.0836 0.3332 0.0000
C27_6 C 0.1391(7) 0.3119(7) 0.0000
H12_6 H 0.1320 0.2850 0.0000
O9_4 O 0.3918(10) 0.0602(9) 0.0000
C28_6 C 0.4103(8) 0.0897(8) 0.0000
C29_6 C 0.3789(7) 0.1211(7) 0.0000
C30_6 C 0.3404(6) 0.1106(6) 0.0000
H13_6 H 0.3332 0.0836 0.0000
C31_6 C 0.3119(7) 0.1391(7) 0.0000
H14_6 H 0.2850 0.1320 0.0000
C32_6 C 0.3223(5) 0.1777(5) 0.0000
C33_6 C 0.2908(4) 0.2092(4) 0.0000
C34_6 C 0.2657(2) 0.2343(2) 0.0000
C35_6 C 0.3894(6) 0.1596(6) 0.0000
H15_6 H 0.4164 0.1668 0.0000
C36_6 C 0.3609(7) 0.1881(7) 0.0000
H16_6 H 0.3680 0.2150 0.0000
O18_11 O 0.0000 0.3918(10) 0.0602(9)
C1_8 C 0.0897(8) 0.5897(8) 1.0000
C2_8 C 0.1211(7) 0.6211(7) 1.0000
C3_8 C 0.1596(6) 0.6106(6) 1.0000
H1_8 H 0.1668 0.5836 1.0000
C4_8 C 0.1881(7) 0.6391(7) 1.0000
H2_8 H 0.2150 0.6320 1.0000
C5_8 C 0.1777(5) 0.6777(5) 1.0000
C6_8 C 0.2092(4) 0.7092(4) 1.0000
C7_8 C 0.2343(2) 0.7343(2) 1.0000
O3_6 O 0.0602(9) 0.6082(10) 1.0000
C8_8 C 0.1106(6) 0.6596(6) 1.0000
H3_8 H 0.0836 0.6668 1.0000
C9_8 C 0.1391(7) 0.6881(7) 1.0000
H4_8 H 0.1320 0.7150 1.0000
O4_6 O 0.3918(10) 0.9398(9) 1.0000
C10_8 C 0.4103(8) 0.9103(8) 1.0000
C11_8 C 0.3789(7) 0.8789(7) 1.0000
C12_8 C 0.3404(6) 0.8894(6) 1.0000
H5_8 H 0.3332 0.9164 1.0000
C13_8 C 0.3119(7) 0.8609(7) 1.0000
H6_8 H 0.2850 0.8680 1.0000
C14_8 C 0.3223(5) 0.8223(5) 1.0000
C15_8 C 0.2908(4) 0.7908(4) 1.0000
C16_8 C 0.2657(2) 0.7657(2) 1.0000
C17_8 C 0.3894(6) 0.8404(6) 1.0000
H7_8 H 0.4164 0.8332 1.0000
C18_8 C 0.3609(7) 0.8119(7) 1.0000
H8_8 H 0.3680 0.7850 1.0000
C19_7 C 0.0897(8) 0.4103(8) 1.0000
C20_7 C 0.1211(7) 0.3789(7) 1.0000
C21_7 C 0.1596(6) 0.3894(6) 1.0000
H9_7 H 0.1668 0.4164 1.0000
C22_7 C 0.1881(7) 0.3609(7) 1.0000
H10_7 H 0.2150 0.3680 1.0000
C23_7 C 0.1777(5) 0.3223(5) 1.0000
C24_7 C 0.2092(4) 0.2908(4) 1.0000
C25_7 C 0.2343(2) 0.2657(2) 1.0000
O8_5 O 0.0602(9) 0.3918(10) 1.0000
C26_7 C 0.1106(6) 0.3404(6) 1.0000
H11_7 H 0.0836 0.3332 1.0000
C27_7 C 0.1391(7) 0.3119(7) 1.0000
H12_7 H 0.1320 0.2850 1.0000
O9_5 O 0.3918(10) 0.0602(9) 1.0000
C28_7 C 0.4103(8) 0.0897(8) 1.0000
C29_7 C 0.3789(7) 0.1211(7) 1.0000
C30_7 C 0.3404(6) 0.1106(6) 1.0000
H13_7 H 0.3332 0.0836 1.0000
C31_7 C 0.3119(7) 0.1391(7) 1.0000
H14_7 H 0.2850 0.1320 1.0000
C32_7 C 0.3223(5) 0.1777(5) 1.0000
C33_7 C 0.2908(4) 0.2092(4) 1.0000
C34_7 C 0.2657(2) 0.2343(2) 1.0000
C35_7 C 0.3894(6) 0.1596(6) 1.0000
H15_7 H 0.4164 0.1668 1.0000
C36_7 C 0.3609(7) 0.1881(7) 1.0000
H16_7 H 0.3680 0.2150 1.0000
O19_11 O 0.0000 0.3918(10) 0.9398(9)
C37_10 C 0.9103(8) 0.4103(8) 0.0000
C38_10 C 0.8789(7) 0.3789(7) 0.0000
C39_10 C 0.8404(6) 0.3894(6) 0.0000
H17_10 H 0.8332 0.4164 0.0000
C40_10 C 0.8119(7) 0.3609(7) 0.0000
H18_10 H 0.7850 0.3680 0.0000
C41_10 C 0.8223(5) 0.3223(5) 0.0000
C42_10 C 0.7908(4) 0.2908(4) 0.0000
C43_10 C 0.7657(2) 0.2657(2) 0.0000
O14_6 O 0.9398(9) 0.3918(10) 0.0000
C44_10 C 0.8894(6) 0.3404(6) 0.0000
H19_10 H 0.9164 0.3332 0.0000
C45_10 C 0.8609(7) 0.3119(7) 0.0000
H20_10 H 0.8680 0.2850 0.0000
O15_6 O 0.6082(10) 0.0602(9) 0.0000
C46_10 C 0.5897(8) 0.0897(8) 0.0000
C47_10 C 0.6211(7) 0.1211(7) 0.0000
C48_10 C 0.6596(6) 0.1106(6) 0.0000
H21_10 H 0.6668 0.0836 0.0000
C49_10 C 0.6881(7) 0.1391(7) 0.0000
H22_10 H 0.7150 0.1320 0.0000
C50_10 C 0.6777(5) 0.1777(5) 0.0000
C51_10 C 0.7092(4) 0.2092(4) 0.0000
C52_10 C 0.7343(2) 0.2343(2) 0.0000
C53_10 C 0.6106(6) 0.1596(6) 0.0000
H23_10 H 0.5836 0.1668 0.0000
C54_10 C 0.6391(7) 0.1881(7) 0.0000
H24_10 H 0.6320 0.2150 0.0000
O18_12 O 1.0000 0.3918(10) 0.0602(9)
C37_11 C 0.9103(8) 0.4103(8) 1.0000
C38_11 C 0.8789(7) 0.3789(7) 1.0000
C39_11 C 0.8404(6) 0.3894(6) 1.0000
H17_11 H 0.8332 0.4164 1.0000
C40_11 C 0.8119(7) 0.3609(7) 1.0000
H18_11 H 0.7850 0.3680 1.0000
C41_11 C 0.8223(5) 0.3223(5) 1.0000
C42_11 C 0.7908(4) 0.2908(4) 1.0000
C43_11 C 0.7657(2) 0.2657(2) 1.0000
O14_7 O 0.9398(9) 0.3918(10) 1.0000
C44_11 C 0.8894(6) 0.3404(6) 1.0000
H19_11 H 0.9164 0.3332 1.0000
C45_11 C 0.8609(7) 0.3119(7) 1.0000
H20_11 H 0.8680 0.2850 1.0000
O15_7 O 0.6082(10) 0.0602(9) 1.0000
C46_11 C 0.5897(8) 0.0897(8) 1.0000
C47_11 C 0.6211(7) 0.1211(7) 1.0000
C48_11 C 0.6596(6) 0.1106(6) 1.0000
H21_11 H 0.6668 0.0836 1.0000
C49_11 C 0.6881(7) 0.1391(7) 1.0000
H22_11 H 0.7150 0.1320 1.0000
C50_11 C 0.6777(5) 0.1777(5) 1.0000
C51_11 C 0.7092(4) 0.2092(4) 1.0000
C52_11 C 0.7343(2) 0.2343(2) 1.0000
C53_11 C 0.6106(6) 0.1596(6) 1.0000
H23_11 H 0.5836 0.1668 1.0000
C54_11 C 0.6391(7) 0.1881(7) 1.0000
H24_11 H 0.6320 0.2150 1.0000
O19_12 O 1.0000 0.3918(10) 0.9398(9)
C1_9 C 0.9103(8) 0.5897(8) 0.0000
C2_9 C 0.8789(7) 0.6211(7) 0.0000
C3_9 C 0.8404(6) 0.6106(6) 0.0000
H1_9 H 0.8332 0.5836 0.0000
C4_9 C 0.8119(7) 0.6391(7) 0.0000
H2_9 H 0.7850 0.6320 0.0000
C5_9 C 0.8223(5) 0.6777(5) 0.0000
C6_9 C 0.7908(4) 0.7092(4) 0.0000
C7_9 C 0.7657(2) 0.7343(2) 0.0000
O3_7 O 0.9398(9) 0.6082(10) 0.0000
C8_9 C 0.8894(6) 0.6596(6) 0.0000
H3_9 H 0.9164 0.6668 0.0000
C9_9 C 0.8609(7) 0.6881(7) 0.0000
H4_9 H 0.8680 0.7150 0.0000
O4_7 O 0.6082(10) 0.9398(9) 0.0000
C10_9 C 0.5897(8) 0.9103(8) 0.0000
C11_9 C 0.6211(7) 0.8789(7) 0.0000
C12_9 C 0.6596(6) 0.8894(6) 0.0000
H5_9 H 0.6668 0.9164 0.0000
C13_9 C 0.6881(7) 0.8609(7) 0.0000
H6_9 H 0.7150 0.8680 0.0000
C14_9 C 0.6777(5) 0.8223(5) 0.0000
C15_9 C 0.7092(4) 0.7908(4) 0.0000
C16_9 C 0.7343(2) 0.7657(2) 0.0000
C17_9 C 0.6106(6) 0.8404(6) 0.0000
H7_9 H 0.5836 0.8332 0.0000
C18_9 C 0.6391(7) 0.8119(7) 0.0000
H8_9 H 0.6320 0.7850 0.0000
C1_10 C 0.9103(8) 0.5897(8) 1.0000
C2_10 C 0.8789(7) 0.6211(7) 1.0000
C3_10 C 0.8404(6) 0.6106(6) 1.0000
H1_10 H 0.8332 0.5836 1.0000
C4_10 C 0.8119(7) 0.6391(7) 1.0000
H2_10 H 0.7850 0.6320 1.0000
C5_10 C 0.8223(5) 0.6777(5) 1.0000
C6_10 C 0.7908(4) 0.7092(4) 1.0000
C7_10 C 0.7657(2) 0.7343(2) 1.0000
O3_8 O 0.9398(9) 0.6082(10) 1.0000
C8_10 C 0.8894(6) 0.6596(6) 1.0000
H3_10 H 0.9164 0.6668 1.0000
C9_10 C 0.8609(7) 0.6881(7) 1.0000
H4_10 H 0.8680 0.7150 1.0000
O4_8 O 0.6082(10) 0.9398(9) 1.0000
C10_10 C 0.5897(8) 0.9103(8) 1.0000
C11_10 C 0.6211(7) 0.8789(7) 1.0000
C12_10 C 0.6596(6) 0.8894(6) 1.0000
H5_10 H 0.6668 0.9164 1.0000
C13_10 C 0.6881(7) 0.8609(7) 1.0000
H6_10 H 0.7150 0.8680 1.0000
C14_10 C 0.6777(5) 0.8223(5) 1.0000
C15_10 C 0.7092(4) 0.7908(4) 1.0000
C16_10 C 0.7343(2) 0.7657(2) 1.0000
C17_10 C 0.6106(6) 0.8404(6) 1.0000
H7_10 H 0.5836 0.8332 1.0000
C18_10 C 0.6391(7) 0.8119(7) 1.0000
H8_10 H 0.6320 0.7850 1.0000
O21_11 O 0.0000 0.6082(10) 0.0602(9)
O20_11 O 0.0000 0.6082(10) 0.9398(9)
O21_12 O 1.0000 0.6082(10) 0.0602(9)
O20_12 O 1.0000 0.6082(10) 0.9398(9)
C1_11 C 0.0000 0.0897(8) 0.5897(8)
C2_11 C 0.0000 0.1211(7) 0.6211(7)
C3_11 C 0.0000 0.1106(6) 0.6596(6)
H1_11 H 0.0000 0.0836 0.6668
C4_11 C 0.0000 0.1391(7) 0.6881(7)
H2_11 H 0.0000 0.1320 0.7150
C5_11 C 0.0000 0.1777(5) 0.6777(5)
C6_11 C 0.0000 0.2092(4) 0.7092(4)
C7_11 C 0.0000 0.2343(2) 0.7343(2)
C8_11 C 0.0000 0.1596(6) 0.6106(6)
H3_11 H 0.0000 0.1668 0.5836
C9_11 C 0.0000 0.1881(7) 0.6391(7)
H4_11 H -0.0000 0.2150 0.6320
C10_11 C 0.0000 0.4103(8) 0.9103(8)
C11_11 C 0.0000 0.3789(7) 0.8789(7)
C12_11 C -0.0000 0.3894(6) 0.8404(6)
H5_11 H 0.0000 0.4164 0.8332
C13_11 C 0.0000 0.3609(7) 0.8119(7)
H6_11 H 0.0000 0.3680 0.7850
C14_11 C 0.0000 0.3223(5) 0.8223(5)
C15_11 C 0.0000 0.2908(4) 0.7908(4)
C16_11 C 0.0000 0.2657(2) 0.7657(2)
C17_11 C -0.0000 0.3404(6) 0.8894(6)
H7_11 H 0.0000 0.3332 0.9164
C18_11 C 0.0000 0.3119(7) 0.8609(7)
H8_11 H 0.0000 0.2850 0.8680
C19_8 C 0.0000 0.9103(8) 0.5897(8)
C20_8 C 0.0000 0.8789(7) 0.6211(7)
C21_8 C 0.0000 0.8894(6) 0.6596(6)
H9_8 H 0.0000 0.9164 0.6668
C22_8 C 0.0000 0.8609(7) 0.6881(7)
H10_8 H 0.0000 0.8680 0.7150
C23_8 C 0.0000 0.8223(5) 0.6777(5)
C24_8 C 0.0000 0.7908(4) 0.7092(4)
C25_8 C 0.0000 0.7657(2) 0.7343(2)
C26_8 C 0.0000 0.8404(6) 0.6106(6)
H11_8 H 0.0000 0.8332 0.5836
C27_8 C 0.0000 0.8119(7) 0.6391(7)
H12_8 H 0.0000 0.7850 0.6320
C28_8 C 0.0000 0.5897(8) 0.9103(8)
C29_8 C 0.0000 0.6211(7) 0.8789(7)
C30_8 C 0.0000 0.6106(6) 0.8404(6)
H13_8 H 0.0000 0.5836 0.8332
C31_8 C 0.0000 0.6391(7) 0.8119(7)
H14_8 H 0.0000 0.6320 0.7850
C32_8 C 0.0000 0.6777(5) 0.8223(5)
C33_8 C 0.0000 0.7092(4) 0.7908(4)
C34_8 C 0.0000 0.7343(2) 0.7657(2)
C35_8 C 0.0000 0.6596(6) 0.8894(6)
H15_8 H 0.0000 0.6668 0.9164
C36_8 C 0.0000 0.6881(7) 0.8609(7)
H16_8 H 0.0000 0.7150 0.8680
C37_12 C 0.0000 0.9103(8) 0.4103(8)
C38_12 C 0.0000 0.8789(7) 0.3789(7)
C39_12 C -0.0000 0.8894(6) 0.3404(6)
H17_12 H 0.0000 0.9164 0.3332
C40_12 C 0.0000 0.8609(7) 0.3119(7)
H18_12 H 0.0000 0.8680 0.2850
C41_12 C 0.0000 0.8223(5) 0.3223(5)
C42_12 C 0.0000 0.7908(4) 0.2908(4)
C43_12 C 0.0000 0.7657(2) 0.2657(2)
C44_12 C -0.0000 0.8404(6) 0.3894(6)
H19_12 H 0.0000 0.8332 0.4164
C45_12 C 0.0000 0.8119(7) 0.3609(7)
H20_12 H 0.0000 0.7850 0.3680
C46_12 C 0.0000 0.5897(8) 0.0897(8)
C47_12 C 0.0000 0.6211(7) 0.1211(7)
C48_12 C 0.0000 0.6106(6) 0.1596(6)
H21_12 H 0.0000 0.5836 0.1668
C49_12 C 0.0000 0.6391(7) 0.1881(7)
H22_12 H -0.0000 0.6320 0.2150
C50_12 C 0.0000 0.6777(5) 0.1777(5)
C51_12 C 0.0000 0.7092(4) 0.2092(4)
C52_12 C 0.0000 0.7343(2) 0.2343(2)
C53_12 C 0.0000 0.6596(6) 0.1106(6)
H23_12 H 0.0000 0.6668 0.0836
C54_12 C 0.0000 0.6881(7) 0.1391(7)
H24_12 H 0.0000 0.7150 0.1320
C1_12 C 1.0000 0.0897(8) 0.5897(8)
C2_12 C 1.0000 0.1211(7) 0.6211(7)
C3_12 C 1.0000 0.1106(6) 0.6596(6)
H1_12 H 1.0000 0.0836 0.6668
C4_12 C 1.0000 0.1391(7) 0.6881(7)
H2_12 H 1.0000 0.1320 0.7150
C5_12 C 1.0000 0.1777(5) 0.6777(5)
C6_12 C 1.0000 0.2092(4) 0.7092(4)
C7_12 C 1.0000 0.2343(2) 0.7343(2)
C8_12 C 1.0000 0.1596(6) 0.6106(6)
H3_12 H 1.0000 0.1668 0.5836
C9_12 C 1.0000 0.1881(7) 0.6391(7)
H4_12 H 1.0000 0.2150 0.6320
C10_12 C 1.0000 0.4103(8) 0.9103(8)
C11_12 C 1.0000 0.3789(7) 0.8789(7)
C12_12 C 1.0000 0.3894(6) 0.8404(6)
H5_12 H 1.0000 0.4164 0.8332
C13_12 C 1.0000 0.3609(7) 0.8119(7)
H6_12 H 1.0000 0.3680 0.7850
C14_12 C 1.0000 0.3223(5) 0.8223(5)
C15_12 C 1.0000 0.2908(4) 0.7908(4)
C16_12 C 1.0000 0.2657(2) 0.7657(2)
C17_12 C 1.0000 0.3404(6) 0.8894(6)
H7_12 H 1.0000 0.3332 0.9164
C18_12 C 1.0000 0.3119(7) 0.8609(7)
H8_12 H 1.0000 0.2850 0.8680
C19_9 C 1.0000 0.9103(8) 0.5897(8)
C20_9 C 1.0000 0.8789(7) 0.6211(7)
C21_9 C 1.0000 0.8894(6) 0.6596(6)
H9_9 H 1.0000 0.9164 0.6668
C22_9 C 1.0000 0.8609(7) 0.6881(7)
H10_9 H 1.0000 0.8680 0.7150
C23_9 C 1.0000 0.8223(5) 0.6777(5)
C24_9 C 1.0000 0.7908(4) 0.7092(4)
C25_9 C 1.0000 0.7657(2) 0.7343(2)
C26_9 C 1.0000 0.8404(6) 0.6106(6)
H11_9 H 1.0000 0.8332 0.5836
C27_9 C 1.0000 0.8119(7) 0.6391(7)
H12_9 H 1.0000 0.7850 0.6320
C28_9 C 1.0000 0.5897(8) 0.9103(8)
C29_9 C 1.0000 0.6211(7) 0.8789(7)
C30_9 C 1.0000 0.6106(6) 0.8404(6)
H13_9 H 1.0000 0.5836 0.8332
C31_9 C 1.0000 0.6391(7) 0.8119(7)
H14_9 H 1.0000 0.6320 0.7850
C32_9 C 1.0000 0.6777(5) 0.8223(5)
C33_9 C 1.0000 0.7092(4) 0.7908(4)
C34_9 C 1.0000 0.7343(2) 0.7657(2)
C35_9 C 1.0000 0.6596(6) 0.8894(6)
H15_9 H 1.0000 0.6668 0.9164
C36_9 C 1.0000 0.6881(7) 0.8609(7)
H16_9 H 1.0000 0.7150 0.8680
C37_13 C 1.0000 0.9103(8) 0.4103(8)
C38_13 C 1.0000 0.8789(7) 0.3789(7)
C39_13 C 1.0000 0.8894(6) 0.3404(6)
H17_13 H 1.0000 0.9164 0.3332
C40_13 C 1.0000 0.8609(7) 0.3119(7)
H18_13 H 1.0000 0.8680 0.2850
C41_13 C 1.0000 0.8223(5) 0.3223(5)
C42_13 C 1.0000 0.7908(4) 0.2908(4)
C43_13 C 1.0000 0.7657(2) 0.2657(2)
C44_13 C 1.0000 0.8404(6) 0.3894(6)
H19_13 H 1.0000 0.8332 0.4164
C45_13 C 1.0000 0.8119(7) 0.3609(7)
H20_13 H 1.0000 0.7850 0.3680
C46_13 C 1.0000 0.5897(8) 0.0897(8)
C47_13 C 1.0000 0.6211(7) 0.1211(7)
C48_13 C 1.0000 0.6106(6) 0.1596(6)
H21_13 H 1.0000 0.5836 0.1668
C49_13 C 1.0000 0.6391(7) 0.1881(7)
H22_13 H 1.0000 0.6320 0.2150
C50_13 C 1.0000 0.6777(5) 0.1777(5)
C51_13 C 1.0000 0.7092(4) 0.2092(4)
C52_13 C 1.0000 0.7343(2) 0.2343(2)
C53_13 C 1.0000 0.6596(6) 0.1106(6)
H23_13 H 1.0000 0.6668 0.0836
C54_13 C 1.0000 0.6881(7) 0.1391(7)
H24_13 H 1.0000 0.7150 0.1320
C37_14 C 0.0000 0.0897(8) 0.4103(8)
C38_14 C 0.0000 0.1211(7) 0.3789(7)
C39_14 C 0.0000 0.1106(6) 0.3404(6)
H17_14 H 0.0000 0.0836 0.3332
C40_14 C 0.0000 0.1391(7) 0.3119(7)
H18_14 H 0.0000 0.1320 0.2850
C41_14 C 0.0000 0.1777(5) 0.3223(5)
C42_14 C 0.0000 0.2092(4) 0.2908(4)
C43_14 C 0.0000 0.2343(2) 0.2657(2)
C44_14 C 0.0000 0.1596(6) 0.3894(6)
H19_14 H 0.0000 0.1668 0.4164
C45_14 C 0.0000 0.1881(7) 0.3609(7)
H20_14 H -0.0000 0.2150 0.3680
C46_14 C 0.0000 0.4103(8) 0.0897(8)
C47_14 C 0.0000 0.3789(7) 0.1211(7)
C48_14 C 0.0000 0.3894(6) 0.1596(6)
H21_14 H 0.0000 0.4164 0.1668
C49_14 C 0.0000 0.3609(7) 0.1881(7)
H22_14 H 0.0000 0.3680 0.2150
C50_14 C 0.0000 0.3223(5) 0.1777(5)
C51_14 C 0.0000 0.2908(4) 0.2092(4)
C52_14 C 0.0000 0.2657(2) 0.2343(2)
C53_14 C 0.0000 0.3404(6) 0.1106(6)
H23_14 H 0.0000 0.3332 0.0836
C54_14 C 0.0000 0.3119(7) 0.1391(7)
H24_14 H 0.0000 0.2850 0.1320
C37_15 C 1.0000 0.0897(8) 0.4103(8)
C38_15 C 1.0000 0.1211(7) 0.3789(7)
C39_15 C 1.0000 0.1106(6) 0.3404(6)
H17_15 H 1.0000 0.0836 0.3332
C40_15 C 1.0000 0.1391(7) 0.3119(7)
H18_15 H 1.0000 0.1320 0.2850
C41_15 C 1.0000 0.1777(5) 0.3223(5)
C42_15 C 1.0000 0.2092(4) 0.2908(4)
C43_15 C 1.0000 0.2343(2) 0.2657(2)
C44_15 C 1.0000 0.1596(6) 0.3894(6)
H19_15 H 1.0000 0.1668 0.4164
C45_15 C 1.0000 0.1881(7) 0.3609(7)
H20_15 H 1.0000 0.2150 0.3680
C46_15 C 1.0000 0.4103(8) 0.0897(8)
C47_15 C 1.0000 0.3789(7) 0.1211(7)
C48_15 C 1.0000 0.3894(6) 0.1596(6)
H21_15 H 1.0000 0.4164 0.1668
C49_15 C 1.0000 0.3609(7) 0.1881(7)
H22_15 H 1.0000 0.3680 0.2150
C50_15 C 1.0000 0.3223(5) 0.1777(5)
C51_15 C 1.0000 0.2908(4) 0.2092(4)
C52_15 C 1.0000 0.2657(2) 0.2343(2)
C53_15 C 1.0000 0.3404(6) 0.1106(6)
H23_15 H 1.0000 0.3332 0.0836
C54_15 C 1.0000 0.3119(7) 0.1391(7)
H24_15 H 1.0000 0.2850 0.1320
loop_
_geom_bond_atom_site_label_1
_geom_bond_atom_site_label_2
_geom_bond_site_symmetry_1
_geom_bond_site_symmetry_2
Zr1 O1 1_555 1_555
O1 C1 1_555 1_555
O2 Zr1 1_555 1_555
C1 C2 1_555 1_555
C2 C3 1_555 1_555
C3 H1 1_555 1_555
C4 C3 1_555 1_555
H2 C4 1_555 1_555
C5 C4 1_555 1_555
C6 C5 1_555 1_555
C7 C6 1_555 1_555
O3 C1 1_555 1_555
C8 C2 1_555 1_555
H3 C8 1_555 1_555
C9 C5 1_555 1_555
H4 C9 1_555 1_555
O4 C10 1_555 1_555
C10 C11 1_555 1_555
C11 C12 1_555 1_555
C12 H5 1_555 1_555
C13 C12 1_555 1_555
H6 C13 1_555 1_555
C14 C13 1_555 1_555
C15 C14 1_555 1_555
C16 C7 1_555 1_555
O5 C10 1_555 1_555
C17 C11 1_555 1_555
H7 C17 1_555 1_555
C18 C14 1_555 1_555
H8 C18 1_555 1_555
Zr4 O2 1_555 1_555
Zr6 O5 1_555 1_555
Zr8 O4 1_555 1_555
Zr12 O2 1_555 1_555
O20 Zr1 1_555 1_555
O21 Zr1 1_555 1_555
O26 Zr1 1_555 1_555
O3 Zr4 1_555 1_555
C8 C9 1_555 1_555
C15 C16 1_555 1_555
C17 C18 1_555 1_555
Zr4 O26 1_555 1_555
Zr11 O26 1_555 1_555
O17 Zr3 1_555 1_555
O22 Zr3 1_555 1_555
O23 Zr3 1_555 1_555
O24 Zr3 1_555 1_555
O25 Zr3 1_555 1_555
Zr4_2 O24 1_555 1_555
Zr4_2 O25 1_555 1_555
Zr11_2 O25 1_555 1_555
Zr12_2 O24 1_555 1_555
O6 Zr1_2 1_555 1_555
O7 Zr1_2 1_555 1_555
C19 O6 1_555 1_555
C20 C19 1_555 1_555
C21 C20 1_555 1_555
H9 C21 1_555 1_555
C22 C21 1_555 1_555
H10 C22 1_555 1_555
C23 C22 1_555 1_555
C24 C23 1_555 1_555
C25 C24 1_555 1_555
O8 C19 1_555 1_555
C26 C20 1_555 1_555
H11 C26 1_555 1_555
C27 C23 1_555 1_555
H12 C27 1_555 1_555
O9 C28 1_555 1_555
C28 C29 1_555 1_555
C29 C30 1_555 1_555
C30 H13 1_555 1_555
C31 C30 1_555 1_555
H14 C31 1_555 1_555
C32 C31 1_555 1_555
C33 C32 1_555 1_555
C34 C25 1_555 1_555
O10 C28 1_555 1_555
C35 C29 1_555 1_555
H15 C35 1_555 1_555
C36 C32 1_555 1_555
H16 C36 1_555 1_555
Zr2 O7 1_555 1_555
O11 Zr1_2 1_555 1_555
Zr8 O9 1_555 1_555
Zr10 O10 1_555 1_555
Zr11_3 O7 1_555 1_555
O18 Zr2 1_555 1_555
O19 Zr2 1_555 1_555
O20_2 Zr1_2 1_555 1_555
O21_2 Zr1_2 1_555 1_555
O8 Zr2 1_555 1_555
C26 C27 1_555 1_555
C33 C34 1_555 1_555
C35 C36 1_555 1_555
Zr2 O11 1_555 1_555
O11 Zr12_3 1_555 1_555
Zr3_2 O12 1_555 1_555
O12 C37 1_555 1_555
O13 Zr2_2 1_555 1_555
C37 C38 1_555 1_555
C38 C39 1_555 1_555
C39 H17 1_555 1_555
C40 C39 1_555 1_555
H18 C40 1_555 1_555
C41 C40 1_555 1_555
C42 C41 1_555 1_555
C43 C42 1_555 1_555
O14 Zr2_2 1_555 1_555
C44 C38 1_555 1_555
H19 C44 1_555 1_555
C45 C41 1_555 1_555
H20 C45 1_555 1_555
O15 C46 1_555 1_555
C46 C47 1_555 1_555
C47 C48 1_555 1_555
C48 H21 1_555 1_555
C49 C48 1_555 1_555
H22 C49 1_555 1_555
C50 C49 1_555 1_555
C51 C50 1_555 1_555
C52 C43 1_555 1_555
O16 C46 1_555 1_555
C53 C47 1_555 1_555
H23 C53 1_555 1_555
C54 C50 1_555 1_555
H24 C54 1_555 1_555
Zr5 O15 1_555 1_555
Zr10 O16 1_555 1_555
O18_2 Zr2_2 1_555 1_555
O19_2 Zr2_2 1_555 1_555
O22_2 Zr3_2 1_555 1_555
O23_2 Zr3_2 1_555 1_555
O27 Zr2_2 1_555 1_555
Zr3_2 O13 1_555 1_555
Zr3_2 O27 1_555 1_555
O13 Zr12_4 1_555 1_555
C37 O14 1_555 1_555
C44 C45 1_555 1_555
C51 C52 1_555 1_555
C53 C54 1_555 1_555
Zr11_4 O27 1_555 1_555
O6_2 Zr1_3 1_555 1_555
O7_2 Zr1_3 1_555 1_555
C19_2 O6_2 1_555 1_555
C20_2 C19_2 1_555 1_555
C21_2 C20_2 1_555 1_555
H9_2 C21_2 1_555 1_555
C22_2 C21_2 1_555 1_555
H10_2 C22_2 1_555 1_555
C23_2 C22_2 1_555 1_555
C24_2 C23_2 1_555 1_555
C25_2 C24_2 1_555 1_555
O8_2 C19_2 1_555 1_555
C26_2 C20_2 1_555 1_555
H11_2 C26_2 1_555 1_555
C27_2 C23_2 1_555 1_555
H12_2 C27_2 1_555 1_555
O9_2 C28_2 1_555 1_555
C28_2 C29_2 1_555 1_555
C29_2 C30_2 1_555 1_555
C30_2 H13_2 1_555 1_555
C31_2 C30_2 1_555 1_555
H14_2 C31_2 1_555 1_555
C32_2 C31_2 1_555 1_555
C33_2 C32_2 1_555 1_555
C34_2 C25_2 1_555 1_555
O10_2 C28_2 1_555 1_555
C35_2 C29_2 1_555 1_555
H15_2 C35_2 1_555 1_555
C36_2 C32_2 1_555 1_555
H16_2 C36_2 1_555 1_555
Zr2_3 O7_2 1_555 1_555
O11_2 Zr1_3 1_555 1_555
Zr8 O9_2 1_555 1_555
Zr10_2 O10_2 1_555 1_555
Zr11_5 O7_2 1_555 1_555
O18_3 Zr2_3 1_555 1_555
O19_3 Zr2_3 1_555 1_555
O20_3 Zr1_3 1_555 1_555
O21_3 Zr1_3 1_555 1_555
O8_2 Zr2_3 1_555 1_555
C26_2 C27_2 1_555 1_555
C33_2 C34_2 1_555 1_555
C35_2 C36_2 1_555 1_555
Zr2_3 O11_2 1_555 1_555
O11_2 Zr12_5 1_555 1_555
Zr3_3 O12_2 1_555 1_555
O12_2 C37_2 1_555 1_555
O13_2 Zr2_4 1_555 1_555
C37_2 C38_2 1_555 1_555
C38_2 C39_2 1_555 1_555
C39_2 H17_2 1_555 1_555
C40_2 C39_2 1_555 1_555
H18_2 C40_2 1_555 1_555
C41_2 C40_2 1_555 1_555
C42_2 C41_2 1_555 1_555
C43_2 C42_2 1_555 1_555
O14_2 Zr2_4 1_555 1_555
C44_2 C38_2 1_555 1_555
H19_2 C44_2 1_555 1_555
C45_2 C41_2 1_555 1_555
H20_2 C45_2 1_555 1_555
O15_2 C46_2 1_555 1_555
C46_2 C47_2 1_555 1_555
C47_2 C48_2 1_555 1_555
C48_2 H21_2 1_555 1_555
C49_2 C48_2 1_555 1_555
H22_2 C49_2 1_555 1_555
C50_2 C49_2 1_555 1_555
C51_2 C50_2 1_555 1_555
C52_2 C43_2 1_555 1_555
O16_2 C46_2 1_555 1_555
C53_2 C47_2 1_555 1_555
H23_2 C53_2 1_555 1_555
C54_2 C50_2 1_555 1_555
H24_2 C54_2 1_555 1_555
Zr5 O15_2 1_555 1_555
Zr10_2 O16_2 1_555 1_555
O18_4 Zr2_4 1_555 1_555
O19_4 Zr2_4 1_555 1_555
O22_3 Zr3_3 1_555 1_555
O23_3 Zr3_3 1_555 1_555
O27_2 Zr2_4 1_555 1_555
Zr3_3 O13_2 1_555 1_555
Zr3_3 O27_2 1_555 1_555
O13_2 Zr12_6 1_555 1_555
C37_2 O14_2 1_555 1_555
C44_2 C45_2 1_555 1_555
C51_2 C52_2 1_555 1_555
C53_2 C54_2 1_555 1_555
Zr11_6 O27_2 1_555 1_555
Zr1_4 O1_2 1_555 1_555
O1_2 C1_2 1_555 1_555
O2_2 Zr1_4 1_555 1_555
C1_2 C2_2 1_555 1_555
C2_2 C3_2 1_555 1_555
C3_2 H1_2 1_555 1_555
C4_2 C3_2 1_555 1_555
H2_2 C4_2 1_555 1_555
C5_2 C4_2 1_555 1_555
C6_2 C5_2 1_555 1_555
C7_2 C6_2 1_555 1_555
O3_2 C1_2 1_555 1_555
C8_2 C2_2 1_555 1_555
H3_2 C8_2 1_555 1_555
C9_2 C5_2 1_555 1_555
H4_2 C9_2 1_555 1_555
O4_2 C10_2 1_555 1_555
C10_2 C11_2 1_555 1_555
C11_2 C12_2 1_555 1_555
C12_2 H5_2 1_555 1_555
C13_2 C12_2 1_555 1_555
H6_2 C13_2 1_555 1_555
C14_2 C13_2 1_555 1_555
C15_2 C14_2 1_555 1_555
C16_2 C7_2 1_555 1_555
O5_2 C10_2 1_555 1_555
C17_2 C11_2 1_555 1_555
H7_2 C17_2 1_555 1_555
C18_2 C14_2 1_555 1_555
H8_2 C18_2 1_555 1_555
Zr4_3 O2_2 1_555 1_555
Zr6_2 O5_2 1_555 1_555
Zr8 O4_2 1_555 1_555
Zr12_7 O2_2 1_555 1_555
O20_4 Zr1_4 1_555 1_555
O21_4 Zr1_4 1_555 1_555
O26_2 Zr1_4 1_555 1_555
O3_2 Zr4_3 1_555 1_555
C8_2 C9_2 1_555 1_555
C15_2 C16_2 1_555 1_555
C17_2 C18_2 1_555 1_555
Zr4_3 O26_2 1_555 1_555
Zr11_7 O26_2 1_555 1_555
O17_2 Zr3_4 1_555 1_555
O22_4 Zr3_4 1_555 1_555
O23_4 Zr3_4 1_555 1_555
O24_2 Zr3_4 1_555 1_555
O25_2 Zr3_4 1_555 1_555
Zr4_4 O24_2 1_555 1_555
Zr4_4 O25_2 1_555 1_555
Zr11_8 O25_2 1_555 1_555
Zr12_8 O24_2 1_555 1_555
O18_5 Zr4 1_555 1_555
O19_5 Zr4 1_555 1_555
O17 C37_3 1_555 1_555
C37_3 C38_3 1_555 1_555
C38_3 C39_3 1_555 1_555
C39_3 H17_3 1_555 1_555
C40_3 C39_3 1_555 1_555
H18_3 C40_3 1_555 1_555
C41_3 C40_3 1_555 1_555
C42_3 C41_3 1_555 1_555
C43_3 C42_3 1_555 1_555
O14_3 Zr4_2 1_555 1_555
C44_3 C38_3 1_555 1_555
H19_3 C44_3 1_555 1_555
C45_3 C41_3 1_555 1_555
H20_3 C45_3 1_555 1_555
O15_3 C46_3 1_555 1_555
C46_3 C47_3 1_555 1_555
C47_3 C48_3 1_555 1_555
C48_3 H21_3 1_555 1_555
C49_3 C48_3 1_555 1_555
H22_3 C49_3 1_555 1_555
C50_3 C49_3 1_555 1_555
C51_3 C50_3 1_555 1_555
C52_3 C43_3 1_555 1_555
O16_3 C46_3 1_555 1_555
C53_3 C47_3 1_555 1_555
H23_3 C53_3 1_555 1_555
C54_3 C50_3 1_555 1_555
H24_3 C54_3 1_555 1_555
Zr5 O15_3 1_555 1_555
Zr6 O16_3 1_555 1_555
O18_6 Zr4_2 1_555 1_555
O19_6 Zr4_2 1_555 1_555
C37_3 O14_3 1_555 1_555
C44_3 C45_3 1_555 1_555
C51_3 C52_3 1_555 1_555
C53_3 C54_3 1_555 1_555
O18_7 Zr4_3 1_555 1_555
O19_7 Zr4_3 1_555 1_555
O17_2 C37_4 1_555 1_555
C37_4 C38_4 1_555 1_555
C38_4 C39_4 1_555 1_555
C39_4 H17_4 1_555 1_555
C40_4 C39_4 1_555 1_555
H18_4 C40_4 1_555 1_555
C41_4 C40_4 1_555 1_555
C42_4 C41_4 1_555 1_555
C43_4 C42_4 1_555 1_555
O14_4 Zr4_4 1_555 1_555
C44_4 C38_4 1_555 1_555
H19_4 C44_4 1_555 1_555
C45_4 C41_4 1_555 1_555
H20_4 C45_4 1_555 1_555
O15_4 C46_4 1_555 1_555
C46_4 C47_4 1_555 1_555
C47_4 C48_4 1_555 1_555
C48_4 H21_4 1_555 1_555
C49_4 C48_4 1_555 1_555
H22_4 C49_4 1_555 1_555
C50_4 C49_4 1_555 1_555
C51_4 C50_4 1_555 1_555
C52_4 C43_4 1_555 1_555
O16_4 C46_4 1_555 1_555
C53_4 C47_4 1_555 1_555
H23_4 C53_4 1_555 1_555
C54_4 C50_4 1_555 1_555
H24_4 C54_4 1_555 1_555
Zr5 O15_4 1_555 1_555
Zr6_2 O16_4 1_555 1_555
O18_8 Zr4_4 1_555 1_555
O19_8 Zr4_4 1_555 1_555
C37_4 O14_4 1_555 1_555
C44_4 C45_4 1_555 1_555
C51_4 C52_4 1_555 1_555
C53_4 C54_4 1_555 1_555
Zr1_5 O1_3 1_555 1_555
O1_3 C1_3 1_555 1_555
O2_3 Zr1_5 1_555 1_555
C1_3 C2_3 1_555 1_555
C2_3 C3_3 1_555 1_555
C3_3 H1_3 1_555 1_555
C4_3 C3_3 1_555 1_555
H2_3 C4_3 1_555 1_555
C5_3 C4_3 1_555 1_555
C6_3 C5_3 1_555 1_555
C7_3 C6_3 1_555 1_555
O3_3 C1_3 1_555 1_555
C8_3 C2_3 1_555 1_555
H3_3 C8_3 1_555 1_555
C9_3 C5_3 1_555 1_555
H4_3 C9_3 1_555 1_555
O4_3 C10_3 1_555 1_555
C10_3 C11_3 1_555 1_555
C11_3 C12_3 1_555 1_555
C12_3 H5_3 1_555 1_555
C13_3 C12_3 1_555 1_555
H6_3 C13_3 1_555 1_555
C14_3 C13_3 1_555 1_555
C15_3 C14_3 1_555 1_555
C16_3 C7_3 1_555 1_555
O5_3 C10_3 1_555 1_555
C17_3 C11_3 1_555 1_555
H7_3 C17_3 1_555 1_555
C18_3 C14_3 1_555 1_555
H8_3 C18_3 1_555 1_555
Zr4_5 O2_3 1_555 1_555
Zr6 O5_3 1_555 1_555
Zr10_2 O4_3 1_555 1_555
Zr12_9 O2_3 1_555 1_555
O20_5 Zr1_5 1_555 1_555
O21_5 Zr1_5 1_555 1_555
O26_3 Zr1_5 1_555 1_555
O3_3 Zr4_5 1_555 1_555
C8_3 C9_3 1_555 1_555
C15_3 C16_3 1_555 1_555
C17_3 C18_3 1_555 1_555
Zr4_5 O26_3 1_555 1_555
Zr11_9 O26_3 1_555 1_555
O6_3 Zr1_6 1_555 1_555
O7_3 Zr1_6 1_555 1_555
C19_3 O6_3 1_555 1_555
C20_3 C19_3 1_555 1_555
C21_3 C20_3 1_555 1_555
H9_3 C21_3 1_555 1_555
C22_3 C21_3 1_555 1_555
H10_3 C22_3 1_555 1_555
C23_3 C22_3 1_555 1_555
C24_3 C23_3 1_555 1_555
C25_3 C24_3 1_555 1_555
O8_3 C19_3 1_555 1_555
C26_3 C20_3 1_555 1_555
H11_3 C26_3 1_555 1_555
C27_3 C23_3 1_555 1_555
H12_3 C27_3 1_555 1_555
O9_3 C28_3 1_555 1_555
C28_3 C29_3 1_555 1_555
C29_3 C30_3 1_555 1_555
C30_3 H13_3 1_555 1_555
C31_3 C30_3 1_555 1_555
H14_3 C31_3 1_555 1_555
C32_3 C31_3 1_555 1_555
C33_3 C32_3 1_555 1_555
C34_3 C25_3 1_555 1_555
O10_3 C28_3 1_555 1_555
C35_3 C29_3 1_555 1_555
H15_3 C35_3 1_555 1_555
C36_3 C32_3 1_555 1_555
H16_3 C36_3 1_555 1_555
Zr2_5 O7_3 1_555 1_555
O11_3 Zr1_6 1_555 1_555
Zr10_2 O9_3 1_555 1_555
Zr10 O10_3 1_555 1_555
Zr11_10 O7_3 1_555 1_555
O18_9 Zr2_5 1_555 1_555
O19_9 Zr2_5 1_555 1_555
O20_6 Zr1_6 1_555 1_555
O21_6 Zr1_6 1_555 1_555
O8_3 Zr2_5 1_555 1_555
C26_3 C27_3 1_555 1_555
C33_3 C34_3 1_555 1_555
C35_3 C36_3 1_555 1_555
Zr2_5 O11_3 1_555 1_555
O11_3 Zr12_10 1_555 1_555
O17_3 Zr3_5 1_555 1_555
O22_5 Zr3_5 1_555 1_555
O23_5 Zr3_5 1_555 1_555
O24_3 Zr3_5 1_555 1_555
O25_3 Zr3_5 1_555 1_555
Zr4_6 O24_3 1_555 1_555
Zr4_6 O25_3 1_555 1_555
Zr11_11 O25_3 1_555 1_555
Zr12_11 O24_3 1_555 1_555
Zr3_6 O12_3 1_555 1_555
O12_3 C37_5 1_555 1_555
O13_3 Zr2_6 1_555 1_555
C37_5 C38_5 1_555 1_555
C38_5 C39_5 1_555 1_555
C39_5 H17_5 1_555 1_555
C40_5 C39_5 1_555 1_555
H18_5 C40_5 1_555 1_555
C41_5 C40_5 1_555 1_555
C42_5 C41_5 1_555 1_555
C43_5 C42_5 1_555 1_555
O14_5 Zr2_6 1_555 1_555
C44_5 C38_5 1_555 1_555
H19_5 C44_5 1_555 1_555
C45_5 C41_5 1_555 1_555
H20_5 C45_5 1_555 1_555
O15_5 C46_5 1_555 1_555
C46_5 C47_5 1_555 1_555
C47_5 C48_5 1_555 1_555
C48_5 H21_5 1_555 1_555
C49_5 C48_5 1_555 1_555
H22_5 C49_5 1_555 1_555
C50_5 C49_5 1_555 1_555
C51_5 C50_5 1_555 1_555
C52_5 C43_5 1_555 1_555
O16_5 C46_5 1_555 1_555
C53_5 C47_5 1_555 1_555
H23_5 C53_5 1_555 1_555
C54_5 C50_5 1_555 1_555
H24_5 C54_5 1_555 1_555
Zr6_2 O15_5 1_555 1_555
Zr10 O16_5 1_555 1_555
O18_10 Zr2_6 1_555 1_555
O19_10 Zr2_6 1_555 1_555
O22_6 Zr3_6 1_555 1_555
O23_6 Zr3_6 1_555 1_555
O27_3 Zr2_6 1_555 1_555
Zr3_6 O13_3 1_555 1_555
Zr3_6 O27_3 1_555 1_555
O13_3 Zr12_12 1_555 1_555
C37_5 O14_5 1_555 1_555
C44_5 C45_5 1_555 1_555
C51_5 C52_5 1_555 1_555
C53_5 C54_5 1_555 1_555
Zr11_12 O27_3 1_555 1_555
O17_3 C1_4 1_555 1_555
C1_4 C2_4 1_555 1_555
C2_4 C3_4 1_555 1_555
C3_4 H1_4 1_555 1_555
C4_4 C3_4 1_555 1_555
H2_4 C4_4 1_555 1_555
C5_4 C4_4 1_555 1_555
C6_4 C5_4 1_555 1_555
C7_4 C6_4 1_555 1_555
O3_4 C1_4 1_555 1_555
C8_4 C2_4 1_555 1_555
H3_4 C8_4 1_555 1_555
C9_4 C5_4 1_555 1_555
H4_4 C9_4 1_555 1_555
O4_4 C10_4 1_555 1_555
C10_4 C11_4 1_555 1_555
C11_4 C12_4 1_555 1_555
C12_4 H5_4 1_555 1_555
C13_4 C12_4 1_555 1_555
H6_4 C13_4 1_555 1_555
C14_4 C13_4 1_555 1_555
C15_4 C14_4 1_555 1_555
C16_4 C7_4 1_555 1_555
O5_4 C10_4 1_555 1_555
C17_4 C11_4 1_555 1_555
H7_4 C17_4 1_555 1_555
C18_4 C14_4 1_555 1_555
H8_4 C18_4 1_555 1_555
Zr6 O5_4 1_555 1_555
Zr6_2 O4_4 1_555 1_555
O3_4 Zr4_6 1_555 1_555
C8_4 C9_4 1_555 1_555
C15_4 C16_4 1_555 1_555
C17_4 C18_4 1_555 1_555
O20_7 Zr4_5 1_555 1_555
O21_7 Zr4_5 1_555 1_555
O20_8 Zr4_6 1_555 1_555
O21_8 Zr4_6 1_555 1_555
O2_4 Zr5 1_555 1_555
O7_4 Zr5 1_555 1_555
Zr6 O7_4 1_555 1_555
O11_4 Zr5 1_555 1_555
O13_4 Zr6 1_555 1_555
Zr10 O2_4 1_555 1_555
Zr6_2 O7_4 1_555 1_555
Zr10_2 O2_4 1_555 1_555
O24_4 Zr8 1_555 1_555
O25_4 Zr8 1_555 1_555
O26_4 Zr5 1_555 1_555
O27_4 Zr6 1_555 1_555
Zr6 O11_4 1_555 1_555
O11_4 Zr10_2 1_555 1_555
Zr8 O13_4 1_555 1_555
Zr8 O27_4 1_555 1_555
O13_4 Zr10_2 1_555 1_555
Zr10 O24_4 1_555 1_555
Zr10 O25_4 1_555 1_555
Zr10 O26_4 1_555 1_555
Zr6_2 O25_4 1_555 1_555
Zr6_2 O26_4 1_555 1_555
Zr6_2 O27_4 1_555 1_555
Zr10_2 O24_4 1_555 1_555
O6_4 Zr12_9 1_555 1_555
C19_4 O6_4 1_555 1_555
C20_4 C19_4 1_555 1_555
C21_4 C20_4 1_555 1_555
H9_4 C21_4 1_555 1_555
C22_4 C21_4 1_555 1_555
H10_4 C22_4 1_555 1_555
C23_4 C22_4 1_555 1_555
C24_4 C23_4 1_555 1_555
C25_4 C24_4 1_555 1_555
O20_5 C19_4 1_555 1_555
C26_4 C20_4 1_555 1_555
H11_4 C26_4 1_555 1_555
C27_4 C23_4 1_555 1_555
H12_4 C27_4 1_555 1_555
O23 C28_4 1_555 1_555
C28_4 C29_4 1_555 1_555
C29_4 C30_4 1_555 1_555
C30_4 H13_4 1_555 1_555
C31_4 C30_4 1_555 1_555
H14_4 C31_4 1_555 1_555
C32_4 C31_4 1_555 1_555
C33_4 C32_4 1_555 1_555
C34_4 C25_4 1_555 1_555
O10_4 C28_4 1_555 1_555
C35_4 C29_4 1_555 1_555
H15_4 C35_4 1_555 1_555
C36_4 C32_4 1_555 1_555
H16_4 C36_4 1_555 1_555
Zr11_9 O12_4 1_555 1_555
O12_4 C37_6 1_555 1_555
C37_6 C38_6 1_555 1_555
C38_6 C39_6 1_555 1_555
C39_6 H17_6 1_555 1_555
C40_6 C39_6 1_555 1_555
H18_6 C40_6 1_555 1_555
C41_6 C40_6 1_555 1_555
C42_6 C41_6 1_555 1_555
C43_6 C42_6 1_555 1_555
C44_6 C38_6 1_555 1_555
H19_6 C44_6 1_555 1_555
C45_6 C41_6 1_555 1_555
H20_6 C45_6 1_555 1_555
O20 C46_6 1_555 1_555
C46_6 C47_6 1_555 1_555
C47_6 C48_6 1_555 1_555
C48_6 H21_6 1_555 1_555
C49_6 C48_6 1_555 1_555
H22_6 C49_6 1_555 1_555
C50_6 C49_6 1_555 1_555
C51_6 C50_6 1_555 1_555
C52_6 C43_6 1_555 1_555
O16_6 C46_6 1_555 1_555
C53_6 C47_6 1_555 1_555
H23_6 C53_6 1_555 1_555
C54_6 C50_6 1_555 1_555
H24_6 C54_6 1_555 1_555
Zr12 O16_6 1_555 1_555
Zr12_2 O10_4 1_555 1_555
O21_9 Zr12_9 1_555 1_555
O22_7 Zr11_9 1_555 1_555
C26_4 C27_4 1_555 1_555
C33_4 C34_4 1_555 1_555
C35_4 C36_4 1_555 1_555
C37_6 O21_5 1_555 1_555
C44_6 C45_6 1_555 1_555
C51_6 C52_6 1_555 1_555
C53_6 C54_6 1_555 1_555
O6_5 Zr12_10 1_555 1_555
C19_5 O6_5 1_555 1_555
C20_5 C19_5 1_555 1_555
C21_5 C20_5 1_555 1_555
H9_5 C21_5 1_555 1_555
C22_5 C21_5 1_555 1_555
H10_5 C22_5 1_555 1_555
C23_5 C22_5 1_555 1_555
C24_5 C23_5 1_555 1_555
C25_5 C24_5 1_555 1_555
O20_6 C19_5 1_555 1_555
C26_5 C20_5 1_555 1_555
H11_5 C26_5 1_555 1_555
C27_5 C23_5 1_555 1_555
H12_5 C27_5 1_555 1_555
O23_2 C28_5 1_555 1_555
C28_5 C29_5 1_555 1_555
C29_5 C30_5 1_555 1_555
C30_5 H13_5 1_555 1_555
C31_5 C30_5 1_555 1_555
H14_5 C31_5 1_555 1_555
C32_5 C31_5 1_555 1_555
C33_5 C32_5 1_555 1_555
C34_5 C25_5 1_555 1_555
O10_5 C28_5 1_555 1_555
C35_5 C29_5 1_555 1_555
H15_5 C35_5 1_555 1_555
C36_5 C32_5 1_555 1_555
H16_5 C36_5 1_555 1_555
Zr11_10 O12_5 1_555 1_555
O12_5 C37_7 1_555 1_555
C37_7 C38_7 1_555 1_555
C38_7 C39_7 1_555 1_555
C39_7 H17_7 1_555 1_555
C40_7 C39_7 1_555 1_555
H18_7 C40_7 1_555 1_555
C41_7 C40_7 1_555 1_555
C42_7 C41_7 1_555 1_555
C43_7 C42_7 1_555 1_555
C44_7 C38_7 1_555 1_555
H19_7 C44_7 1_555 1_555
C45_7 C41_7 1_555 1_555
H20_7 C45_7 1_555 1_555
O20_2 C46_7 1_555 1_555
C46_7 C47_7 1_555 1_555
C47_7 C48_7 1_555 1_555
C48_7 H21_7 1_555 1_555
C49_7 C48_7 1_555 1_555
H22_7 C49_7 1_555 1_555
C50_7 C49_7 1_555 1_555
C51_7 C50_7 1_555 1_555
C52_7 C43_7 1_555 1_555
O16_7 C46_7 1_555 1_555
C53_7 C47_7 1_555 1_555
H23_7 C53_7 1_555 1_555
C54_7 C50_7 1_555 1_555
H24_7 C54_7 1_555 1_555
Zr12_3 O16_7 1_555 1_555
Zr12_4 O10_5 1_555 1_555
O20_9 Zr12_10 1_555 1_555
O23_7 Zr11_10 1_555 1_555
C26_5 C27_5 1_555 1_555
C33_5 C34_5 1_555 1_555
C35_5 C36_5 1_555 1_555
C37_7 O21_6 1_555 1_555
C44_7 C45_7 1_555 1_555
C51_7 C52_7 1_555 1_555
C53_7 C54_7 1_555 1_555
Zr12_11 O1_4 1_555 1_555
O1_4 C1_5 1_555 1_555
C1_5 C2_5 1_555 1_555
C2_5 C3_5 1_555 1_555
C3_5 H1_5 1_555 1_555
C4_5 C3_5 1_555 1_555
H2_5 C4_5 1_555 1_555
C5_5 C4_5 1_555 1_555
C6_5 C5_5 1_555 1_555
C7_5 C6_5 1_555 1_555
O23_5 C1_5 1_555 1_555
C8_5 C2_5 1_555 1_555
H3_5 C8_5 1_555 1_555
C9_5 C5_5 1_555 1_555
H4_5 C9_5 1_555 1_555
O22 C10_5 1_555 1_555
C10_5 C11_5 1_555 1_555
C11_5 C12_5 1_555 1_555
C12_5 H5_5 1_555 1_555
C13_5 C12_5 1_555 1_555
H6_5 C13_5 1_555 1_555
C14_5 C13_5 1_555 1_555
C15_5 C14_5 1_555 1_555
C16_5 C7_5 1_555 1_555
O5_5 C10_5 1_555 1_555
C17_5 C11_5 1_555 1_555
H7_5 C17_5 1_555 1_555
C18_5 C14_5 1_555 1_555
H8_5 C18_5 1_555 1_555
Zr11_2 O5_5 1_555 1_555
O17_4 Zr11_11 1_555 1_555
O21_10 Zr12_11 1_555 1_555
O22_8 Zr11_11 1_555 1_555
C8_5 C9_5 1_555 1_555
C15_5 C16_5 1_555 1_555
C17_5 C18_5 1_555 1_555
Zr12_12 O1_5 1_555 1_555
O1_5 C1_6 1_555 1_555
C1_6 C2_6 1_555 1_555
C2_6 C3_6 1_555 1_555
C3_6 H1_6 1_555 1_555
C4_6 C3_6 1_555 1_555
H2_6 C4_6 1_555 1_555
C5_6 C4_6 1_555 1_555
C6_6 C5_6 1_555 1_555
C7_6 C6_6 1_555 1_555
O23_6 C1_6 1_555 1_555
C8_6 C2_6 1_555 1_555
H3_6 C8_6 1_555 1_555
C9_6 C5_6 1_555 1_555
H4_6 C9_6 1_555 1_555
O22_2 C10_6 1_555 1_555
C10_6 C11_6 1_555 1_555
C11_6 C12_6 1_555 1_555
C12_6 H5_6 1_555 1_555
C13_6 C12_6 1_555 1_555
H6_6 C13_6 1_555 1_555
C14_6 C13_6 1_555 1_555
C15_6 C14_6 1_555 1_555
C16_6 C7_6 1_555 1_555
O5_6 C10_6 1_555 1_555
C17_6 C11_6 1_555 1_555
H7_6 C17_6 1_555 1_555
C18_6 C14_6 1_555 1_555
H8_6 C18_6 1_555 1_555
Zr11_4 O5_6 1_555 1_555
O17_5 Zr11_12 1_555 1_555
O20_10 Zr12_12 1_555 1_555
O23_8 Zr11_12 1_555 1_555
C8_6 C9_6 1_555 1_555
C15_6 C16_6 1_555 1_555
C17_6 C18_6 1_555 1_555
O17_4 C37_8 1_555 1_555
C37_8 C38_8 1_555 1_555
C38_8 C39_8 1_555 1_555
C39_8 H17_8 1_555 1_555
C40_8 C39_8 1_555 1_555
H18_8 C40_8 1_555 1_555
C41_8 C40_8 1_555 1_555
C42_8 C41_8 1_555 1_555
C43_8 C42_8 1_555 1_555
C44_8 C38_8 1_555 1_555
H19_8 C44_8 1_555 1_555
C45_8 C41_8 1_555 1_555
H20_8 C45_8 1_555 1_555
O21 C46_8 1_555 1_555
C46_8 C47_8 1_555 1_555
C47_8 C48_8 1_555 1_555
C48_8 H21_8 1_555 1_555
C49_8 C48_8 1_555 1_555
H22_8 C49_8 1_555 1_555
C50_8 C49_8 1_555 1_555
C51_8 C50_8 1_555 1_555
C52_8 C43_8 1_555 1_555
O16_8 C46_8 1_555 1_555
C53_8 C47_8 1_555 1_555
H23_8 C53_8 1_555 1_555
C54_8 C50_8 1_555 1_555
H24_8 C54_8 1_555 1_555
Zr11 O16_8 1_555 1_555
C37_8 O22_5 1_555 1_555
C44_8 C45_8 1_555 1_555
C51_8 C52_8 1_555 1_555
C53_8 C54_8 1_555 1_555
O17_5 C37_9 1_555 1_555
C37_9 C38_9 1_555 1_555
C38_9 C39_9 1_555 1_555
C39_9 H17_9 1_555 1_555
C40_9 C39_9 1_555 1_555
H18_9 C40_9 1_555 1_555
C41_9 C40_9 1_555 1_555
C42_9 C41_9 1_555 1_555
C43_9 C42_9 1_555 1_555
C44_9 C38_9 1_555 1_555
H19_9 C44_9 1_555 1_555
C45_9 C41_9 1_555 1_555
H20_9 C45_9 1_555 1_555
O21_2 C46_9 1_555 1_555
C46_9 C47_9 1_555 1_555
C47_9 C48_9 1_555 1_555
C48_9 H21_9 1_555 1_555
C49_9 C48_9 1_555 1_555
H22_9 C49_9 1_555 1_555
C50_9 C49_9 1_555 1_555
C51_9 C50_9 1_555 1_555
C52_9 C43_9 1_555 1_555
O16_9 C46_9 1_555 1_555
C53_9 C47_9 1_555 1_555
H23_9 C53_9 1_555 1_555
C54_9 C50_9 1_555 1_555
H24_9 C54_9 1_555 1_555
Zr11_3 O16_9 1_555 1_555
C37_9 O22_6 1_555 1_555
C44_9 C45_9 1_555 1_555
C51_9 C52_9 1_555 1_555
C53_9 C54_9 1_555 1_555
O19_3 C1_7 1_555 1_555
C1_7 C2_7 1_555 1_555
C2_7 C3_7 1_555 1_555
C3_7 H1_7 1_555 1_555
C4_7 C3_7 1_555 1_555
H2_7 C4_7 1_555 1_555
C5_7 C4_7 1_555 1_555
C6_7 C5_7 1_555 1_555
C7_7 C6_7 1_555 1_555
O3_5 C1_7 1_555 1_555
C8_7 C2_7 1_555 1_555
H3_7 C8_7 1_555 1_555
C9_7 C5_7 1_555 1_555
H4_7 C9_7 1_555 1_555
O4_5 C10_7 1_555 1_555
C10_7 C11_7 1_555 1_555
C11_7 C12_7 1_555 1_555
C12_7 H5_7 1_555 1_555
C13_7 C12_7 1_555 1_555
H6_7 C13_7 1_555 1_555
C14_7 C13_7 1_555 1_555
C15_7 C14_7 1_555 1_555
C16_7 C7_7 1_555 1_555
O18 C10_7 1_555 1_555
C17_7 C11_7 1_555 1_555
H7_7 C17_7 1_555 1_555
C18_7 C14_7 1_555 1_555
H8_7 C18_7 1_555 1_555
C19_6 O18_3 1_555 1_555
C20_6 C19_6 1_555 1_555
C21_6 C20_6 1_555 1_555
H9_6 C21_6 1_555 1_555
C22_6 C21_6 1_555 1_555
H10_6 C22_6 1_555 1_555
C23_6 C22_6 1_555 1_555
C24_6 C23_6 1_555 1_555
C25_6 C24_6 1_555 1_555
O8_4 C19_6 1_555 1_555
C26_6 C20_6 1_555 1_555
H11_6 C26_6 1_555 1_555
C27_6 C23_6 1_555 1_555
H12_6 C27_6 1_555 1_555
O9_4 C28_6 1_555 1_555
C28_6 C29_6 1_555 1_555
C29_6 C30_6 1_555 1_555
C30_6 H13_6 1_555 1_555
C31_6 C30_6 1_555 1_555
H14_6 C31_6 1_555 1_555
C32_6 C31_6 1_555 1_555
C33_6 C32_6 1_555 1_555
C34_6 C25_6 1_555 1_555
O19_5 C28_6 1_555 1_555
C35_6 C29_6 1_555 1_555
H15_6 C35_6 1_555 1_555
C36_6 C32_6 1_555 1_555
H16_6 C36_6 1_555 1_555
Zr12 O9_4 1_555 1_555
Zr12_3 O4_5 1_555 1_555
O18_11 Zr12_5 1_555 1_555
O3_5 Zr11_5 1_555 1_555
C8_7 C9_7 1_555 1_555
C15_7 C16_7 1_555 1_555
C17_7 C18_7 1_555 1_555
O8_4 Zr12_5 1_555 1_555
C26_6 C27_6 1_555 1_555
C33_6 C34_6 1_555 1_555
C35_6 C36_6 1_555 1_555
O19_4 C1_8 1_555 1_555
C1_8 C2_8 1_555 1_555
C2_8 C3_8 1_555 1_555
C3_8 H1_8 1_555 1_555
C4_8 C3_8 1_555 1_555
H2_8 C4_8 1_555 1_555
C5_8 C4_8 1_555 1_555
C6_8 C5_8 1_555 1_555
C7_8 C6_8 1_555 1_555
O3_6 C1_8 1_555 1_555
C8_8 C2_8 1_555 1_555
H3_8 C8_8 1_555 1_555
C9_8 C5_8 1_555 1_555
H4_8 C9_8 1_555 1_555
O4_6 C10_8 1_555 1_555
C10_8 C11_8 1_555 1_555
C11_8 C12_8 1_555 1_555
C12_8 H5_8 1_555 1_555
C13_8 C12_8 1_555 1_555
H6_8 C13_8 1_555 1_555
C14_8 C13_8 1_555 1_555
C15_8 C14_8 1_555 1_555
C16_8 C7_8 1_555 1_555
O18_2 C10_8 1_555 1_555
C17_8 C11_8 1_555 1_555
H7_8 C17_8 1_555 1_555
C18_8 C14_8 1_555 1_555
H8_8 C18_8 1_555 1_555
C19_7 O18_4 1_555 1_555
C20_7 C19_7 1_555 1_555
C21_7 C20_7 1_555 1_555
H9_7 C21_7 1_555 1_555
C22_7 C21_7 1_555 1_555
H10_7 C22_7 1_555 1_555
C23_7 C22_7 1_555 1_555
C24_7 C23_7 1_555 1_555
C25_7 C24_7 1_555 1_555
O8_5 C19_7 1_555 1_555
C26_7 C20_7 1_555 1_555
H11_7 C26_7 1_555 1_555
C27_7 C23_7 1_555 1_555
H12_7 C27_7 1_555 1_555
O9_5 C28_7 1_555 1_555
C28_7 C29_7 1_555 1_555
C29_7 C30_7 1_555 1_555
C30_7 H13_7 1_555 1_555
C31_7 C30_7 1_555 1_555
H14_7 C31_7 1_555 1_555
C32_7 C31_7 1_555 1_555
C33_7 C32_7 1_555 1_555
C34_7 C25_7 1_555 1_555
O19_6 C28_7 1_555 1_555
C35_7 C29_7 1_555 1_555
H15_7 C35_7 1_555 1_555
C36_7 C32_7 1_555 1_555
H16_7 C36_7 1_555 1_555
Zr12_2 O9_5 1_555 1_555
Zr12_4 O4_6 1_555 1_555
O19_11 Zr12_6 1_555 1_555
O3_6 Zr11_6 1_555 1_555
C8_8 C9_8 1_555 1_555
C15_8 C16_8 1_555 1_555
C17_8 C18_8 1_555 1_555
O8_5 Zr12_6 1_555 1_555
C26_7 C27_7 1_555 1_555
C33_7 C34_7 1_555 1_555
C35_7 C36_7 1_555 1_555
O19_7 C37_10 1_555 1_555
C37_10 C38_10 1_555 1_555
C38_10 C39_10 1_555 1_555
C39_10 H17_10 1_555 1_555
C40_10 C39_10 1_555 1_555
H18_10 C40_10 1_555 1_555
C41_10 C40_10 1_555 1_555
C42_10 C41_10 1_555 1_555
C43_10 C42_10 1_555 1_555
O14_6 Zr12_7 1_555 1_555
C44_10 C38_10 1_555 1_555
H19_10 C44_10 1_555 1_555
C45_10 C41_10 1_555 1_555
H20_10 C45_10 1_555 1_555
O15_6 C46_10 1_555 1_555
C46_10 C47_10 1_555 1_555
C47_10 C48_10 1_555 1_555
C48_10 H21_10 1_555 1_555
C49_10 C48_10 1_555 1_555
H22_10 C49_10 1_555 1_555
C50_10 C49_10 1_555 1_555
C51_10 C50_10 1_555 1_555
C52_10 C43_10 1_555 1_555
O18_5 C46_10 1_555 1_555
C53_10 C47_10 1_555 1_555
H23_10 C53_10 1_555 1_555
C54_10 C50_10 1_555 1_555
H24_10 C54_10 1_555 1_555
Zr11 O15_6 1_555 1_555
O18_12 Zr12_7 1_555 1_555
C37_10 O14_6 1_555 1_555
C44_10 C45_10 1_555 1_555
C51_10 C52_10 1_555 1_555
C53_10 C54_10 1_555 1_555
O19_8 C37_11 1_555 1_555
C37_11 C38_11 1_555 1_555
C38_11 C39_11 1_555 1_555
C39_11 H17_11 1_555 1_555
C40_11 C39_11 1_555 1_555
H18_11 C40_11 1_555 1_555
C41_11 C40_11 1_555 1_555
C42_11 C41_11 1_555 1_555
C43_11 C42_11 1_555 1_555
O14_7 Zr12_8 1_555 1_555
C44_11 C38_11 1_555 1_555
H19_11 C44_11 1_555 1_555
C45_11 C41_11 1_555 1_555
H20_11 C45_11 1_555 1_555
O15_7 C46_11 1_555 1_555
C46_11 C47_11 1_555 1_555
C47_11 C48_11 1_555 1_555
C48_11 H21_11 1_555 1_555
C49_11 C48_11 1_555 1_555
H22_11 C49_11 1_555 1_555
C50_11 C49_11 1_555 1_555
C51_11 C50_11 1_555 1_555
C52_11 C43_11 1_555 1_555
O18_6 C46_11 1_555 1_555
C53_11 C47_11 1_555 1_555
H23_11 C53_11 1_555 1_555
C54_11 C50_11 1_555 1_555
H24_11 C54_11 1_555 1_555
Zr11_2 O15_7 1_555 1_555
O19_12 Zr12_8 1_555 1_555
C37_11 O14_7 1_555 1_555
C44_11 C45_11 1_555 1_555
C51_11 C52_11 1_555 1_555
C53_11 C54_11 1_555 1_555
O18_7 C1_9 1_555 1_555
C1_9 C2_9 1_555 1_555
C2_9 C3_9 1_555 1_555
C3_9 H1_9 1_555 1_555
C4_9 C3_9 1_555 1_555
H2_9 C4_9 1_555 1_555
C5_9 C4_9 1_555 1_555
C6_9 C5_9 1_555 1_555
C7_9 C6_9 1_555 1_555
O3_7 C1_9 1_555 1_555
C8_9 C2_9 1_555 1_555
H3_9 C8_9 1_555 1_555
C9_9 C5_9 1_555 1_555
H4_9 C9_9 1_555 1_555
O4_7 C10_9 1_555 1_555
C10_9 C11_9 1_555 1_555
C11_9 C12_9 1_555 1_555
C12_9 H5_9 1_555 1_555
C13_9 C12_9 1_555 1_555
H6_9 C13_9 1_555 1_555
C14_9 C13_9 1_555 1_555
C15_9 C14_9 1_555 1_555
C16_9 C7_9 1_555 1_555
O19 C10_9 1_555 1_555
C17_9 C11_9 1_555 1_555
H7_9 C17_9 1_555 1_555
C18_9 C14_9 1_555 1_555
H8_9 C18_9 1_555 1_555
Zr11_3 O4_7 1_555 1_555
O3_7 Zr11_7 1_555 1_555
C8_9 C9_9 1_555 1_555
C15_9 C16_9 1_555 1_555
C17_9 C18_9 1_555 1_555
O18_8 C1_10 1_555 1_555
C1_10 C2_10 1_555 1_555
C2_10 C3_10 1_555 1_555
C3_10 H1_10 1_555 1_555
C4_10 C3_10 1_555 1_555
H2_10 C4_10 1_555 1_555
C5_10 C4_10 1_555 1_555
C6_10 C5_10 1_555 1_555
C7_10 C6_10 1_555 1_555
O3_8 C1_10 1_555 1_555
C8_10 C2_10 1_555 1_555
H3_10 C8_10 1_555 1_555
C9_10 C5_10 1_555 1_555
H4_10 C9_10 1_555 1_555
O4_8 C10_10 1_555 1_555
C10_10 C11_10 1_555 1_555
C11_10 C12_10 1_555 1_555
C12_10 H5_10 1_555 1_555
C13_10 C12_10 1_555 1_555
H6_10 C13_10 1_555 1_555
C14_10 C13_10 1_555 1_555
C15_10 C14_10 1_555 1_555
C16_10 C7_10 1_555 1_555
O19_2 C10_10 1_555 1_555
C17_10 C11_10 1_555 1_555
H7_10 C17_10 1_555 1_555
C18_10 C14_10 1_555 1_555
H8_10 C18_10 1_555 1_555
Zr11_4 O4_8 1_555 1_555
O3_8 Zr11_8 1_555 1_555
C8_10 C9_10 1_555 1_555
C15_10 C16_10 1_555 1_555
C17_10 C18_10 1_555 1_555
O21_11 Zr11_5 1_555 1_555
O20_11 Zr11_6 1_555 1_555
O21_12 Zr11_7 1_555 1_555
O20_12 Zr11_8 1_555 1_555
O21_9 C1_11 1_555 1_555
C1_11 C2_11 1_555 1_555
C2_11 C3_11 1_555 1_555
C3_11 H1_11 1_555 1_555
C4_11 C3_11 1_555 1_555
H2_11 C4_11 1_555 1_555
C5_11 C4_11 1_555 1_555
C6_11 C5_11 1_555 1_555
C7_11 C6_11 1_555 1_555
O21_7 C1_11 1_555 1_555
C8_11 C2_11 1_555 1_555
H3_11 C8_11 1_555 1_555
C9_11 C5_11 1_555 1_555
H4_11 C9_11 1_555 1_555
O23_3 C10_11 1_555 1_555
C10_11 C11_11 1_555 1_555
C11_11 C12_11 1_555 1_555
C12_11 H5_11 1_555 1_555
C13_11 C12_11 1_555 1_555
H6_11 C13_11 1_555 1_555
C14_11 C13_11 1_555 1_555
C15_11 C14_11 1_555 1_555
C16_11 C7_11 1_555 1_555
O19_11 C10_11 1_555 1_555
C17_11 C11_11 1_555 1_555
H7_11 C17_11 1_555 1_555
C18_11 C14_11 1_555 1_555
H8_11 C18_11 1_555 1_555
C8_11 C9_11 1_555 1_555
C15_11 C16_11 1_555 1_555
C17_11 C18_11 1_555 1_555
C19_8 O20_9 1_555 1_555
C20_8 C19_8 1_555 1_555
C21_8 C20_8 1_555 1_555
H9_8 C21_8 1_555 1_555
C22_8 C21_8 1_555 1_555
H10_8 C22_8 1_555 1_555
C23_8 C22_8 1_555 1_555
C24_8 C23_8 1_555 1_555
C25_8 C24_8 1_555 1_555
O18_9 C19_8 1_555 1_555
C26_8 C20_8 1_555 1_555
H11_8 C26_8 1_555 1_555
C27_8 C23_8 1_555 1_555
H12_8 C27_8 1_555 1_555
O22_3 C28_8 1_555 1_555
C28_8 C29_8 1_555 1_555
C29_8 C30_8 1_555 1_555
C30_8 H13_8 1_555 1_555
C31_8 C30_8 1_555 1_555
H14_8 C31_8 1_555 1_555
C32_8 C31_8 1_555 1_555
C33_8 C32_8 1_555 1_555
C34_8 C25_8 1_555 1_555
O20_11 C28_8 1_555 1_555
C35_8 C29_8 1_555 1_555
H15_8 C35_8 1_555 1_555
C36_8 C32_8 1_555 1_555
H16_8 C36_8 1_555 1_555
O23_7 C37_12 1_555 1_555
C37_12 C38_12 1_555 1_555
C38_12 C39_12 1_555 1_555
C39_12 H17_12 1_555 1_555
C40_12 C39_12 1_555 1_555
H18_12 C40_12 1_555 1_555
C41_12 C40_12 1_555 1_555
C42_12 C41_12 1_555 1_555
C43_12 C42_12 1_555 1_555
C44_12 C38_12 1_555 1_555
H19_12 C44_12 1_555 1_555
C45_12 C41_12 1_555 1_555
H20_12 C45_12 1_555 1_555
O21_3 C46_12 1_555 1_555
C46_12 C47_12 1_555 1_555
C47_12 C48_12 1_555 1_555
C48_12 H21_12 1_555 1_555
C49_12 C48_12 1_555 1_555
H22_12 C49_12 1_555 1_555
C50_12 C49_12 1_555 1_555
C51_12 C50_12 1_555 1_555
C52_12 C43_12 1_555 1_555
O21_11 C46_12 1_555 1_555
C53_12 C47_12 1_555 1_555
H23_12 C53_12 1_555 1_555
C54_12 C50_12 1_555 1_555
H24_12 C54_12 1_555 1_555
C26_8 C27_8 1_555 1_555
C33_8 C34_8 1_555 1_555
C35_8 C36_8 1_555 1_555
C37_12 O19_9 1_555 1_555
C44_12 C45_12 1_555 1_555
C51_12 C52_12 1_555 1_555
C53_12 C54_12 1_555 1_555
O21_10 C1_12 1_555 1_555
C1_12 C2_12 1_555 1_555
C2_12 C3_12 1_555 1_555
C3_12 H1_12 1_555 1_555
C4_12 C3_12 1_555 1_555
H2_12 C4_12 1_555 1_555
C5_12 C4_12 1_555 1_555
C6_12 C5_12 1_555 1_555
C7_12 C6_12 1_555 1_555
O21_8 C1_12 1_555 1_555
C8_12 C2_12 1_555 1_555
H3_12 C8_12 1_555 1_555
C9_12 C5_12 1_555 1_555
H4_12 C9_12 1_555 1_555
O23_4 C10_12 1_555 1_555
C10_12 C11_12 1_555 1_555
C11_12 C12_12 1_555 1_555
C12_12 H5_12 1_555 1_555
C13_12 C12_12 1_555 1_555
H6_12 C13_12 1_555 1_555
C14_12 C13_12 1_555 1_555
C15_12 C14_12 1_555 1_555
C16_12 C7_12 1_555 1_555
O19_12 C10_12 1_555 1_555
C17_12 C11_12 1_555 1_555
H7_12 C17_12 1_555 1_555
C18_12 C14_12 1_555 1_555
H8_12 C18_12 1_555 1_555
C8_12 C9_12 1_555 1_555
C15_12 C16_12 1_555 1_555
C17_12 C18_12 1_555 1_555
C19_9 O20_10 1_555 1_555
C20_9 C19_9 1_555 1_555
C21_9 C20_9 1_555 1_555
H9_9 C21_9 1_555 1_555
C22_9 C21_9 1_555 1_555
H10_9 C22_9 1_555 1_555
C23_9 C22_9 1_555 1_555
C24_9 C23_9 1_555 1_555
C25_9 C24_9 1_555 1_555
O18_10 C19_9 1_555 1_555
C26_9 C20_9 1_555 1_555
H11_9 C26_9 1_555 1_555
C27_9 C23_9 1_555 1_555
H12_9 C27_9 1_555 1_555
O22_4 C28_9 1_555 1_555
C28_9 C29_9 1_555 1_555
C29_9 C30_9 1_555 1_555
C30_9 H13_9 1_555 1_555
C31_9 C30_9 1_555 1_555
H14_9 C31_9 1_555 1_555
C32_9 C31_9 1_555 1_555
C33_9 C32_9 1_555 1_555
C34_9 C25_9 1_555 1_555
O20_12 C28_9 1_555 1_555
C35_9 C29_9 1_555 1_555
H15_9 C35_9 1_555 1_555
C36_9 C32_9 1_555 1_555
H16_9 C36_9 1_555 1_555
O23_8 C37_13 1_555 1_555
C37_13 C38_13 1_555 1_555
C38_13 C39_13 1_555 1_555
C39_13 H17_13 1_555 1_555
C40_13 C39_13 1_555 1_555
H18_13 C40_13 1_555 1_555
C41_13 C40_13 1_555 1_555
C42_13 C41_13 1_555 1_555
C43_13 C42_13 1_555 1_555
C44_13 C38_13 1_555 1_555
H19_13 C44_13 1_555 1_555
C45_13 C41_13 1_555 1_555
H20_13 C45_13 1_555 1_555
O21_4 C46_13 1_555 1_555
C46_13 C47_13 1_555 1_555
C47_13 C48_13 1_555 1_555
C48_13 H21_13 1_555 1_555
C49_13 C48_13 1_555 1_555
H22_13 C49_13 1_555 1_555
C50_13 C49_13 1_555 1_555
C51_13 C50_13 1_555 1_555
C52_13 C43_13 1_555 1_555
O21_12 C46_13 1_555 1_555
C53_13 C47_13 1_555 1_555
H23_13 C53_13 1_555 1_555
C54_13 C50_13 1_555 1_555
H24_13 C54_13 1_555 1_555
C26_9 C27_9 1_555 1_555
C33_9 C34_9 1_555 1_555
C35_9 C36_9 1_555 1_555
C37_13 O19_10 1_555 1_555
C44_13 C45_13 1_555 1_555
C51_13 C52_13 1_555 1_555
C53_13 C54_13 1_555 1_555
O22_7 C37_14 1_555 1_555
C37_14 C38_14 1_555 1_555
C38_14 C39_14 1_555 1_555
C39_14 H17_14 1_555 1_555
C40_14 C39_14 1_555 1_555
H18_14 C40_14 1_555 1_555
C41_14 C40_14 1_555 1_555
C42_14 C41_14 1_555 1_555
C43_14 C42_14 1_555 1_555
C44_14 C38_14 1_555 1_555
H19_14 C44_14 1_555 1_555
C45_14 C41_14 1_555 1_555
H20_14 C45_14 1_555 1_555
O20_3 C46_14 1_555 1_555
C46_14 C47_14 1_555 1_555
C47_14 C48_14 1_555 1_555
C48_14 H21_14 1_555 1_555
C49_14 C48_14 1_555 1_555
H22_14 C49_14 1_555 1_555
C50_14 C49_14 1_555 1_555
C51_14 C50_14 1_555 1_555
C52_14 C43_14 1_555 1_555
O18_11 C46_14 1_555 1_555
C53_14 C47_14 1_555 1_555
H23_14 C53_14 1_555 1_555
C54_14 C50_14 1_555 1_555
H24_14 C54_14 1_555 1_555
C37_14 O20_7 1_555 1_555
C44_14 C45_14 1_555 1_555
C51_14 C52_14 1_555 1_555
C53_14 C54_14 1_555 1_555
O22_8 C37_15 1_555 1_555
C37_15 C38_15 1_555 1_555
C38_15 C39_15 1_555 1_555
C39_15 H17_15 1_555 1_555
C40_15 C39_15 1_555 1_555
H18_15 C40_15 1_555 1_555
C41_15 C40_15 1_555 1_555
C42_15 C41_15 1_555 1_555
C43_15 C42_15 1_555 1_555
C44_15 C38_15 1_555 1_555
H19_15 C44_15 1_555 1_555
C45_15 C41_15 1_555 1_555
H20_15 C45_15 1_555 1_555
O20_4 C46_15 1_555 1_555
C46_15 C47_15 1_555 1_555
C47_15 C48_15 1_555 1_555
C48_15 H21_15 1_555 1_555
C49_15 C48_15 1_555 1_555
H22_15 C49_15 1_555 1_555
C50_15 C49_15 1_555 1_555
C51_15 C50_15 1_555 1_555
C52_15 C43_15 1_555 1_555
O18_12 C46_15 1_555 1_555
C53_15 C47_15 1_555 1_555
H23_15 C53_15 1_555 1_555
C54_15 C50_15 1_555 1_555
H24_15 C54_15 1_555 1_555
C37_15 O20_8 1_555 1_555
C44_15 C45_15 1_555 1_555
C51_15 C52_15 1_555 1_555
C53_15 C54_15 1_555 1_555

#END
