
###############################################################################
#
# This file contains modified crystal structure data generated from the
# MOF subset of the Cambridge Structural Database (CSD) v543 
# hosted by the Cambridge Crystallographic Data Centre (CCDC).
#
# This work is licensed under the Creative Commons
# Attribution-NonCommercial-ShareAlike 4.0 International License.
# To view a copy of this license, visit
# http://creativecommons.org/licenses/by-nc-sa/4.0/
# or send a letter to
# Creative Commons, PO Box 1866, Mountain View, CA 94042, USA.
#
# CIF created using the CSD Python API on 29 September 2022
# The structure has been converted into the P1 space group
# The structure has a 3D framework
# The original CSD entry UKIQOV is in the hexagonal crystal system
# The framework has been calculated to contain at least 10.0% void space
# The void calculation uses a probe of radius 1.32A, grid spacing 0.4
# H atom positions have been added when not included in the experimental data
# Generated hydrogen atom positions removed from atoms on special positions
#
###############################################################################

data_UKIQOV
_chemical_formula_moiety         '(C180 H168 Co6 Cu12 O76)n'
_symmetry_cell_setting           triclinic
_symmetry_space_group_name_H-M   'P 1'
_symmetry_Int_Tables_number      1
_space_group_name_Hall           'P 1'
loop_
_symmetry_equiv_pos_site_id
_symmetry_equiv_pos_as_xyz
1 x,y,z
_cell_length_a                   18.431(14)
_cell_length_b                   18.431(14)
_cell_length_c                   40.52(4)
_cell_angle_alpha                90
_cell_angle_beta                 90
_cell_angle_gamma                120
_cell_volume                     11920.6
loop_
_atom_site_label
_atom_site_type_symbol
_atom_site_fract_x
_atom_site_fract_y
_atom_site_fract_z
Cu30 Cu 0.52393(4) 0.04786(8) 0.52601(4)
Co14 Co 0.11626(14) 0.05813(7) 0.7500
Cu10 Cu 0.04786(8) 0.52393(4) 0.47399(4)
Cu14 Cu 0.04786(8) 0.52393(9) 0.02601(4)
Cu22 Cu 0.47607(9) 0.52393(4) 0.02601(4)
Cu25 Cu 0.52393(9) 0.47607(4) 0.52601(4)
Cu26 Cu 0.47607(4) 0.52393(9) 0.47399(4)
Cu29 Cu 0.47607(9) 0.95214(8) 0.47399(4)
Co2 Co 0.05813(16) 0.11626(14) 0.2500
Co11 Co 0.05813(7) 0.94187(16) 0.2500
O20 O 0.4815(4) 0.3718(3) 0.50233(15)
O21 O 0.4815(4) 0.1097(3) 0.50233(15)
O22 O 0.1097(3) 0.4815(4) 0.49767(15)
O23 O 0.3718(3) 0.4815(4) 0.49767(15)
O26 O 0.1097(3) 0.6282(3) 0.49767(15)
O27 O 0.3718(3) 0.8903(3) 0.49767(15)
O51 O 0.1317(6) 0.1222(5) 0.21525(18)
O52 O 0.1317(6) 0.0095(4) 0.21525(18)
O53 O 0.1317(6) 0.1222(5) 0.28475(18)
O54 O 0.1317(6) 0.0095(4) 0.28475(18)
O55 O 0.0095(4) 0.1317(6) 0.71525(18)
O56 O 0.1222(5) 0.1317(6) 0.71525(18)
O59 O 0.0095(4) 0.8778(5) 0.71525(18)
O60 O 0.1222(5) 0.9905(4) 0.71525(18)
O61 O 0.0095(4) 0.1317(6) 0.78475(18)
O77 O 0.1429(10) 0.5714(11) 0.4334(4)
O93 O 0.4379(4) 0.4115(3) 0.04332(13)
O94 O 0.4379(4) 0.0264(3) 0.04332(13)
O95 O 0.4379(4) 0.4115(3) 0.45668(13)
O96 O 0.4379(4) 0.0264(3) 0.45668(13)
O97 O 0.0264(3) 0.4379(4) 0.54332(13)
O98 O 0.4115(3) 0.4379(4) 0.54332(13)
O101 O 0.0264(3) 0.5885(3) 0.54332(13)
O102 O 0.4115(3) 0.9736(3) 0.54332(13)
C24 C 0.4492(7) 0.3581(5) 0.0266(3)
C25 C 0.4492(7) 0.0911(5) 0.0266(3)
C26 C 0.4492(7) 0.3581(5) 0.4734(3)
C27 C 0.4492(7) 0.0911(5) 0.4734(3)
C28 C 0.0911(5) 0.4492(7) 0.5266(3)
C29 C 0.3581(5) 0.4492(7) 0.5266(3)
C32 C 0.0911(5) 0.6419(5) 0.5266(3)
C33 C 0.3581(5) 0.9089(5) 0.5266(3)
C47 C 0.4235(6) 0.2778(4) 0.0429(2)
C48 C 0.4235(6) 0.1457(4) 0.0429(2)
C49 C 0.4235(6) 0.2778(4) 0.4571(2)
C50 C 0.4235(6) 0.1457(4) 0.4571(2)
C51 C 0.1457(4) 0.4235(6) 0.5429(2)
C52 C 0.2778(4) 0.4235(6) 0.5429(2)
C55 C 0.1457(4) 0.7222(4) 0.5429(2)
C56 C 0.2778(4) 0.8543(4) 0.5429(2)
C63 C 0.4442(4) 0.2221(3) 0.0286(2)
C64 C 0.4442(4) 0.2221(3) 0.4714(2)
C65 C 0.2221(3) 0.4442(4) 0.5286(2)
C67 C 0.2221(3) 0.7779(3) 0.5286(2)
H11 H 0.4730 0.2365 0.0086
H12 H 0.4730 0.2365 0.4914
H13 H 0.2365 0.4730 0.5086
H15 H 0.2365 0.7635 0.5086
C81 C 0.3804(7) 0.2554(5) 0.07245(17)
C82 C 0.3804(7) 0.1250(5) 0.07245(17)
C83 C 0.3804(7) 0.2554(5) 0.42755(17)
C84 C 0.3804(7) 0.1250(5) 0.42755(17)
C85 C 0.1250(5) 0.3804(7) 0.57245(17)
C86 C 0.2554(5) 0.3804(7) 0.57245(17)
C89 C 0.1250(5) 0.7446(5) 0.57245(17)
C90 C 0.2554(5) 0.8750(5) 0.57245(17)
H29 H 0.3672 0.2926 0.0826
H30 H 0.3672 0.0746 0.0826
H31 H 0.3672 0.2926 0.4174
H32 H 0.3672 0.0746 0.4174
H33 H 0.0746 0.3672 0.5826
H34 H 0.2926 0.3672 0.5826
H37 H 0.0746 0.7074 0.5826
H38 H 0.2926 0.9254 0.5826
C97 C 0.3560(4) 0.1780(3) 0.0876(3)
C98 C 0.3560(4) 0.1780(3) 0.4124(3)
C99 C 0.1780(3) 0.3560(4) 0.5876(3)
C101 C 0.1780(3) 0.8220(3) 0.5876(3)
C108 C 0.3080(6) 0.1540(4) 0.1180(3)
C109 C 0.3080(6) 0.1540(4) 0.3820(3)
C110 C 0.1540(4) 0.3080(6) 0.6180(3)
C112 C 0.1540(4) 0.8460(4) 0.6180(3)
C126 C 0.2805(12) 0.0832(8) 0.1306(3)
C127 C 0.2805(12) 0.1973(9) 0.1306(3)
C128 C 0.2805(12) 0.0832(8) 0.3694(3)
C129 C 0.2805(12) 0.1973(9) 0.3694(3)
C130 C 0.1973(9) 0.2805(12) 0.6306(3)
C131 C 0.0832(8) 0.2805(12) 0.6306(3)
C134 C 0.1973(9) 0.9168(8) 0.6306(3)
C135 C 0.0832(8) 0.8027(9) 0.6306(3)
H52 H 0.2892 0.0436 0.1199
H53 H 0.2892 0.2456 0.1199
H54 H 0.2892 0.0436 0.3801
H55 H 0.2892 0.2456 0.3801
H56 H 0.2456 0.2892 0.6199
H57 H 0.0436 0.2892 0.6199
H60 H 0.2456 0.9564 0.6199
H61 H 0.0436 0.7544 0.6199
C149 C 0.2336(11) 0.0605(7) 0.1628(4)
C150 C 0.2336(11) 0.1731(9) 0.1628(4)
C151 C 0.2336(11) 0.0605(7) 0.3372(4)
C152 C 0.2336(11) 0.1731(9) 0.3372(4)
C153 C 0.1731(9) 0.2336(11) 0.6628(4)
C154 C 0.0605(7) 0.2336(11) 0.6628(4)
C157 C 0.1731(9) 0.9395(7) 0.6628(4)
C158 C 0.0605(7) 0.8269(9) 0.6628(4)
H75 H 0.2234 0.0114 0.1732
H76 H 0.2234 0.2120 0.1732
H77 H 0.2234 0.0114 0.3268
H78 H 0.2234 0.2120 0.3268
H79 H 0.2120 0.2234 0.6732
H80 H 0.0114 0.2234 0.6732
H83 H 0.2120 0.9886 0.6732
H84 H 0.0114 0.7880 0.6732
C165 C 0.2078(4) 0.1039(3) 0.1760(3)
C166 C 0.2078(4) 0.1039(3) 0.3240(3)
C167 C 0.1039(3) 0.2078(4) 0.6760(3)
C169 C 0.1039(3) 0.8961(3) 0.6760(3)
C176 C 0.1536(6) 0.0768(4) 0.2043(3)
C177 C 0.1536(6) 0.0768(4) 0.2957(3)
C178 C 0.0768(4) 0.1536(6) 0.7043(3)
C180 C 0.0768(4) 0.9232(4) 0.7043(3)
Cu21 Cu 0.52393(4) 0.47607(9) 0.97399(4)
Cu23 Cu 0.52393(9) 0.04786(8) 0.97399(4)
O18 O 0.4815(4) 0.3718(3) 0.99767(15)
O19 O 0.4815(4) 0.1097(3) 0.99767(15)
O109 O 0.0264(3) 0.4379(4) 0.95668(13)
O110 O 0.0264(3) 0.5885(3) 0.95668(13)
Cu24 Cu 0.47607(4) 0.95214(8) 0.02601(4)
O36 O 0.1097(3) 0.6282(3) 0.00233(15)
O37 O 0.1097(3) 0.4815(4) 0.00233(15)
O63 O 0.0095(4) 0.8778(5) 0.78475(18)
O79 O 0.1429(10) 0.5715(5) 0.0666(4)
O1 O 0.6282(3) 0.1097(3) 0.50233(15)
O2 O 0.8778(5) 0.0095(4) 0.28475(18)
O3 O 0.5715(5) 0.1429(10) 0.5666(4)
O4 O 0.5885(3) 0.0264(3) 0.45668(13)
C1 C 0.6419(5) 0.0911(5) 0.4734(3)
C2 C 0.7222(4) 0.1457(4) 0.4571(2)
C3 C 0.7779(3) 0.2221(3) 0.4714(2)
H1 H 0.7635 0.2365 0.4914
C4 C 0.7446(5) 0.1250(5) 0.42755(17)
H2 H 0.7074 0.0746 0.4174
C5 C 0.8220(3) 0.1780(3) 0.4124(3)
C6 C 0.8460(4) 0.1540(4) 0.3820(3)
C7 C 0.9168(8) 0.1973(9) 0.3694(3)
H3 H 0.9564 0.2456 0.3801
C8 C 0.9395(7) 0.1731(9) 0.3372(4)
H4 H 0.9886 0.2120 0.3268
C9 C 0.8961(3) 0.1039(3) 0.3240(3)
C10 C 0.9232(4) 0.0768(4) 0.2957(3)
Cu2 Cu 0.95214(8) 0.47607(9) 0.52601(4)
Co4 Co 0.94187(7) 0.05813(16) 0.7500
Co12 Co 0.88374(14) 0.94187(7) 0.2500
Co13 Co 0.94187(16) 0.88374(14) 0.7500
O5 O 0.8903(3) 0.3718(3) 0.50233(15)
O24 O 0.8903(3) 0.5185(4) 0.50233(15)
O25 O 0.6282(3) 0.5185(4) 0.50233(15)
O38 O 0.9905(4) 0.1222(5) 0.28475(18)
O41 O 0.8778(5) 0.0095(4) 0.21525(18)
O42 O 0.9905(4) 0.1222(5) 0.21525(18)
O57 O 0.9905(4) 0.8683(6) 0.28475(18)
O58 O 0.8778(5) 0.8683(6) 0.28475(18)
O69 O 0.8571(10) 0.4285(5) 0.5666(4)
O80 O 0.9736(3) 0.4115(3) 0.45668(13)
O83 O 0.5885(3) 0.0264(3) 0.04332(13)
O84 O 0.9736(3) 0.4115(3) 0.04332(13)
O99 O 0.9736(3) 0.5621(4) 0.45668(13)
O100 O 0.5885(3) 0.5621(4) 0.45668(13)
C11 C 0.9089(5) 0.3581(5) 0.4734(3)
C14 C 0.6419(5) 0.0911(5) 0.0266(3)
C15 C 0.9089(5) 0.3581(5) 0.0266(3)
C30 C 0.9089(5) 0.5508(7) 0.4734(3)
C31 C 0.6419(5) 0.5508(7) 0.4734(3)
C34 C 0.8543(4) 0.2778(4) 0.4571(2)
C37 C 0.7222(4) 0.1457(4) 0.0429(2)
C38 C 0.8543(4) 0.2778(4) 0.0429(2)
C53 C 0.8543(4) 0.5765(6) 0.4571(2)
C54 C 0.7222(4) 0.5765(6) 0.4571(2)
C58 C 0.7779(3) 0.2221(3) 0.0286(2)
C66 C 0.7779(3) 0.5558(4) 0.4714(2)
H6 H 0.7635 0.2365 0.0086
H14 H 0.7635 0.5270 0.4914
C68 C 0.8750(5) 0.2554(5) 0.42755(17)
C71 C 0.7446(5) 0.1250(5) 0.07245(17)
C72 C 0.8750(5) 0.2554(5) 0.07245(17)
C87 C 0.8750(5) 0.6196(7) 0.42755(17)
C88 C 0.7446(5) 0.6196(7) 0.42755(17)
H16 H 0.9254 0.2926 0.4174
H19 H 0.7074 0.0746 0.0826
H20 H 0.9254 0.2926 0.0826
H35 H 0.9254 0.6328 0.4174
H36 H 0.7074 0.6328 0.4174
C92 C 0.8220(3) 0.1780(3) 0.0876(3)
C100 C 0.8220(3) 0.6440(4) 0.4124(3)
C103 C 0.8460(4) 0.1540(4) 0.1180(3)
C111 C 0.8460(4) 0.6920(6) 0.3820(3)
C113 C 0.8027(9) 0.0832(8) 0.3694(3)
C116 C 0.9168(8) 0.1973(9) 0.1306(3)
C117 C 0.8027(9) 0.0832(8) 0.1306(3)
C132 C 0.8027(9) 0.7195(12) 0.3694(3)
C133 C 0.9168(8) 0.7195(12) 0.3694(3)
H39 H 0.7544 0.0436 0.3801
H42 H 0.9564 0.2456 0.1199
H43 H 0.7544 0.0436 0.1199
H58 H 0.7544 0.7108 0.3801
H59 H 0.9564 0.7108 0.3801
C136 C 0.8269(9) 0.0605(7) 0.3372(4)
C139 C 0.9395(7) 0.1731(9) 0.1628(4)
C140 C 0.8269(9) 0.0605(7) 0.1628(4)
C155 C 0.8269(9) 0.7664(11) 0.3372(4)
C156 C 0.9395(7) 0.7664(11) 0.3372(4)
H62 H 0.7880 0.0114 0.3268
H65 H 0.9886 0.2120 0.1732
H66 H 0.7880 0.0114 0.1732
H81 H 0.7880 0.7766 0.3268
H82 H 0.9886 0.7766 0.3268
C160 C 0.8961(3) 0.1039(3) 0.1760(3)
C168 C 0.8961(3) 0.7922(4) 0.3240(3)
C171 C 0.9232(4) 0.0768(4) 0.2043(3)
C179 C 0.9232(4) 0.8464(6) 0.2957(3)
Cu6 Cu 0.95214(8) 0.47607(4) 0.97399(4)
O8 O 0.6282(3) 0.1097(3) 0.99767(15)
O9 O 0.8903(3) 0.3718(3) 0.99767(15)
O31 O 0.8903(3) 0.5185(4) 0.99767(15)
O72 O 0.5715(5) 0.1429(10) 0.9334(4)
O73 O 0.8571(10) 0.4285(5) 0.9334(4)
O12 O 0.5185(4) 0.8903(3) 0.49767(15)
O13 O 0.5185(4) 0.6282(3) 0.49767(15)
O34 O 0.5185(4) 0.6282(3) 0.00233(15)
O35 O 0.3718(3) 0.4815(4) 0.00233(15)
O39 O 0.8778(5) 0.8683(6) 0.21525(18)
O40 O 0.9905(4) 0.8683(6) 0.21525(18)
O45 O 0.8683(6) 0.9905(4) 0.71525(18)
O46 O 0.8683(6) 0.8778(5) 0.71525(18)
O62 O 0.8683(6) 0.9905(4) 0.78475(18)
O64 O 0.8683(6) 0.8778(5) 0.78475(18)
O74 O 0.5715(5) 0.4286(11) 0.5666(4)
O76 O 0.4286(11) 0.8571(10) 0.4334(4)
O78 O 0.4286(11) 0.5715(5) 0.0666(4)
O81 O 0.5885(3) 0.5621(4) 0.04332(13)
O82 O 0.9736(3) 0.5621(4) 0.04332(13)
O87 O 0.5621(4) 0.9736(3) 0.54332(13)
O88 O 0.5621(4) 0.5885(3) 0.54332(13)
C12 C 0.6419(5) 0.5508(7) 0.0266(3)
C13 C 0.9089(5) 0.5508(7) 0.0266(3)
C18 C 0.5508(7) 0.9089(5) 0.5266(3)
C19 C 0.5508(7) 0.6419(5) 0.5266(3)
C35 C 0.7222(4) 0.5765(6) 0.0429(2)
C36 C 0.8543(4) 0.5765(6) 0.0429(2)
C41 C 0.5765(6) 0.8543(4) 0.5429(2)
C42 C 0.5765(6) 0.7222(4) 0.5429(2)
C57 C 0.7779(3) 0.5558(4) 0.0286(2)
C60 C 0.5558(4) 0.7779(3) 0.5286(2)
H5 H 0.7635 0.5270 0.0086
H8 H 0.5270 0.7635 0.5086
C69 C 0.7446(5) 0.6196(7) 0.07245(17)
C70 C 0.8750(5) 0.6196(7) 0.07245(17)
C75 C 0.6196(7) 0.8750(5) 0.57245(17)
C76 C 0.6196(7) 0.7446(5) 0.57245(17)
H17 H 0.7074 0.6328 0.0826
H18 H 0.9254 0.6328 0.0826
H23 H 0.6328 0.9254 0.5826
H24 H 0.6328 0.7074 0.5826
C91 C 0.8220(3) 0.6440(4) 0.0876(3)
C94 C 0.6440(4) 0.8220(3) 0.5876(3)
C102 C 0.8460(4) 0.6920(6) 0.1180(3)
C105 C 0.6920(6) 0.8460(4) 0.6180(3)
C114 C 0.9168(8) 0.7195(12) 0.1306(3)
C115 C 0.8027(9) 0.7195(12) 0.1306(3)
C120 C 0.7195(12) 0.8027(9) 0.6306(3)
C121 C 0.7195(12) 0.9168(8) 0.6306(3)
H40 H 0.9564 0.7108 0.1199
H41 H 0.7544 0.7108 0.1199
H46 H 0.7108 0.7544 0.6199
H47 H 0.7108 0.9564 0.6199
C137 C 0.9395(7) 0.7664(11) 0.1628(4)
C138 C 0.8269(9) 0.7664(11) 0.1628(4)
C143 C 0.7664(11) 0.8269(9) 0.6628(4)
C144 C 0.7664(11) 0.9395(7) 0.6628(4)
H63 H 0.9886 0.7766 0.1732
H64 H 0.7880 0.7766 0.1732
H69 H 0.7766 0.7880 0.6732
H70 H 0.7766 0.9886 0.6732
C159 C 0.8961(3) 0.7922(4) 0.1760(3)
C162 C 0.7922(4) 0.8961(3) 0.6760(3)
C170 C 0.9232(4) 0.8464(6) 0.2043(3)
C173 C 0.8464(6) 0.9232(4) 0.7043(3)
O6 O 0.6282(3) 0.5185(4) 0.99767(15)
O70 O 0.5715(5) 0.4286(11) 0.9334(4)
O103 O 0.5621(4) 0.5885(3) 0.95668(13)
O104 O 0.4115(3) 0.4379(4) 0.95668(13)
O107 O 0.5621(4) 0.9736(3) 0.95668(13)
O108 O 0.4115(3) 0.9736(3) 0.95668(13)
O54_2 O 0.1222(7) 0.1317(6) 0.78475(18)
C26_2 C 0.0911(9) 0.4492(7) 0.9734(3)
C27_2 C 0.3581(9) 0.4492(7) 0.9734(3)
C49_2 C 0.1457(7) 0.4235(6) 0.9571(2)
C50_2 C 0.2778(7) 0.4235(6) 0.9571(2)
C64_2 C 0.2221(5) 0.4442(4) 0.9714(2)
H12_2 H 0.2365 0.4730 0.9914
C83_2 C 0.1250(9) 0.3804(7) 0.92755(17)
C84_2 C 0.2554(9) 0.3804(7) 0.92755(17)
H31_2 H 0.0746 0.3672 0.9174
H32_2 H 0.2926 0.3672 0.9174
C98_2 C 0.1780(5) 0.3560(4) 0.9124(3)
C109_2 C 0.1540(7) 0.3080(6) 0.8820(3)
C128_2 C 0.1973(14) 0.2805(12) 0.8694(3)
C129_2 C 0.0832(15) 0.2805(12) 0.8694(3)
H54_2 H 0.2456 0.2892 0.8801
H55_2 H 0.0436 0.2892 0.8801
C151_2 C 0.1731(13) 0.2336(11) 0.8372(4)
C152_2 C 0.0605(14) 0.2336(11) 0.8372(4)
H77_2 H 0.2120 0.2234 0.8268
H78_2 H 0.0114 0.2234 0.8268
C166_2 C 0.1039(5) 0.2078(4) 0.8240(3)
C177_2 C 0.0768(7) 0.1536(6) 0.7957(3)
O11 O 0.3718(5) 0.8903(3) 0.00233(15)
O33 O 0.5185(4) 0.8903(3) 0.00233(15)
O75 O 0.4285(15) 0.8571(10) 0.0666(4)
O44 O 0.1222(7) 0.9905(4) 0.78475(18)
C16 C 0.0911(9) 0.6419(5) 0.9734(3)
C17 C 0.3581(9) 0.9089(5) 0.9734(3)
C39 C 0.1457(7) 0.7222(4) 0.9571(2)
C40 C 0.2778(7) 0.8543(4) 0.9571(2)
C59 C 0.2221(5) 0.7779(3) 0.9714(2)
H7 H 0.2365 0.7635 0.9914
C73 C 0.1250(9) 0.7446(5) 0.92755(17)
C74 C 0.2554(9) 0.8750(5) 0.92755(17)
H21 H 0.0746 0.7074 0.9174
H22 H 0.2926 0.9254 0.9174
C93 C 0.1780(5) 0.8220(3) 0.9124(3)
C104 C 0.1540(7) 0.8460(4) 0.8820(3)
C118 C 0.1973(14) 0.9168(8) 0.8694(3)
C119 C 0.0832(15) 0.8027(9) 0.8694(3)
H44 H 0.2456 0.9564 0.8801
H45 H 0.0436 0.7544 0.8801
C141 C 0.1731(13) 0.9395(7) 0.8372(4)
C142 C 0.0605(14) 0.8269(9) 0.8372(4)
H67 H 0.2120 0.9886 0.8268
H68 H 0.0114 0.7880 0.8268
C161 C 0.1039(5) 0.8961(3) 0.8240(3)
C172 C 0.0768(7) 0.9232(4) 0.7957(3)
C1_2 C 0.5508(7) 0.6419(5) 0.9734(3)
C2_2 C 0.5765(6) 0.7222(4) 0.9571(2)
C3_2 C 0.5558(4) 0.7779(3) 0.9714(2)
H1_2 H 0.5270 0.7635 0.9914
C4_2 C 0.6196(7) 0.7446(5) 0.92755(17)
H2_2 H 0.6328 0.7074 0.9174
C5_2 C 0.6440(4) 0.8220(3) 0.9124(3)
C6_2 C 0.6920(6) 0.8460(4) 0.8820(3)
C7_2 C 0.7195(12) 0.9168(8) 0.8694(3)
H3_2 H 0.7108 0.9564 0.8801
C8_2 C 0.7664(11) 0.9395(7) 0.8372(4)
H4_2 H 0.7766 0.9886 0.8268
C9_2 C 0.7922(4) 0.8961(3) 0.8240(3)
C10_2 C 0.8464(6) 0.9232(4) 0.7957(3)
O72_2 O 0.4286(11) 0.5715(5) 0.4334(4)
C11_2 C 0.5508(7) 0.9089(5) 0.9734(3)
C34_2 C 0.5765(6) 0.8543(4) 0.9571(2)
C68_2 C 0.6196(7) 0.8750(5) 0.92755(17)
H16_2 H 0.6328 0.9254 0.9174
C113_2 C 0.7195(12) 0.8027(9) 0.8694(3)
H39_2 H 0.7108 0.7544 0.8801
C136_2 C 0.7664(11) 0.8269(9) 0.8372(4)
H62_2 H 0.7766 0.7880 0.8268
loop_
_geom_bond_atom_site_label_1
_geom_bond_atom_site_label_2
_geom_bond_site_symmetry_1
_geom_bond_site_symmetry_2
Cu10 O22 1_555 1_555
Cu22 O93 1_555 1_555
Cu25 Cu26 1_555 1_555
Cu26 O23 1_555 1_555
Co14 O56 1_555 1_555
O20 Cu25 1_555 1_555
O21 Cu30 1_555 1_555
O22 C28 1_555 1_555
O23 C29 1_555 1_555
O26 Cu10 1_555 1_555
O27 Cu29 1_555 1_555
O51 Co2 1_555 1_555
O53 Co2 1_555 1_555
O56 C178 1_555 1_555
O59 C180 1_555 1_555
O60 C180 1_555 1_555
O77 Cu10 1_555 1_555
O93 C24 1_555 1_555
O94 C25 1_555 1_555
O95 Cu26 1_555 1_555
O96 C27 1_555 1_555
O98 Cu25 1_555 1_555
O102 C33 1_555 1_555
C26 O20 1_555 1_555
C27 O21 1_555 1_555
C28 O97 1_555 1_555
C29 O98 1_555 1_555
C32 O26 1_555 1_555
C33 O27 1_555 1_555
C47 C24 1_555 1_555
C48 C25 1_555 1_555
C49 C26 1_555 1_555
C50 C27 1_555 1_555
C51 C28 1_555 1_555
C52 C29 1_555 1_555
C55 C32 1_555 1_555
C56 C33 1_555 1_555
C63 C47 1_555 1_555
C64 C49 1_555 1_555
C65 C51 1_555 1_555
C67 C55 1_555 1_555
H11 C63 1_555 1_555
H12 C64 1_555 1_555
H13 C65 1_555 1_555
H15 C67 1_555 1_555
C81 C47 1_555 1_555
C82 C48 1_555 1_555
C83 C49 1_555 1_555
C84 C50 1_555 1_555
C85 C51 1_555 1_555
C86 C52 1_555 1_555
C89 C55 1_555 1_555
C90 C56 1_555 1_555
H29 C81 1_555 1_555
H30 C82 1_555 1_555
H31 C83 1_555 1_555
H32 C84 1_555 1_555
H33 C85 1_555 1_555
H34 C86 1_555 1_555
H37 C89 1_555 1_555
H38 C90 1_555 1_555
C97 C81 1_555 1_555
C98 C83 1_555 1_555
C99 C85 1_555 1_555
C101 C89 1_555 1_555
C108 C97 1_555 1_555
C109 C98 1_555 1_555
C110 C99 1_555 1_555
C112 C101 1_555 1_555
C126 C108 1_555 1_555
C127 C108 1_555 1_555
C128 C109 1_555 1_555
C129 C109 1_555 1_555
C130 C110 1_555 1_555
C131 C110 1_555 1_555
C134 C112 1_555 1_555
C135 C112 1_555 1_555
H52 C126 1_555 1_555
H53 C127 1_555 1_555
H54 C128 1_555 1_555
H55 C129 1_555 1_555
H56 C130 1_555 1_555
H57 C131 1_555 1_555
H60 C134 1_555 1_555
H61 C135 1_555 1_555
C149 C126 1_555 1_555
C150 C127 1_555 1_555
C151 C128 1_555 1_555
C152 C129 1_555 1_555
C153 C130 1_555 1_555
C154 C131 1_555 1_555
C157 C134 1_555 1_555
C158 C135 1_555 1_555
H75 C149 1_555 1_555
H76 C150 1_555 1_555
H77 C151 1_555 1_555
H78 C152 1_555 1_555
H79 C153 1_555 1_555
H80 C154 1_555 1_555
H83 C157 1_555 1_555
H84 C158 1_555 1_555
C165 C149 1_555 1_555
C166 C151 1_555 1_555
C167 C153 1_555 1_555
C169 C157 1_555 1_555
C176 O51 1_555 1_555
C177 O53 1_555 1_555
C178 O55 1_555 1_555
C180 C169 1_555 1_555
O52 C176 1_555 1_555
O54 C177 1_555 1_555
O95 C26 1_555 1_555
O101 C32 1_555 1_555
C48 C63 1_555 1_555
C50 C64 1_555 1_555
C52 C65 1_555 1_555
C56 C67 1_555 1_555
C82 C97 1_555 1_555
C84 C98 1_555 1_555
C86 C99 1_555 1_555
C90 C101 1_555 1_555
C150 C165 1_555 1_555
C152 C166 1_555 1_555
C154 C167 1_555 1_555
C158 C169 1_555 1_555
C165 C176 1_555 1_555
C166 C177 1_555 1_555
C167 C178 1_555 1_555
O18 Cu21 1_555 1_555
O19 Cu23 1_555 1_555
Cu14 O36 1_555 1_555
O37 Cu14 1_555 1_555
O79 Cu14 1_555 1_555
Cu30 O1 1_555 1_555
O1 C1 1_555 1_555
O2 C10 1_555 1_555
O3 Cu30 1_555 1_555
O4 C1 1_555 1_555
C1 C2 1_555 1_555
C2 C3 1_555 1_555
C3 H1 1_555 1_555
C4 C2 1_555 1_555
H2 C4 1_555 1_555
C5 C4 1_555 1_555
C6 C5 1_555 1_555
C7 C6 1_555 1_555
H3 C7 1_555 1_555
C8 C7 1_555 1_555
H4 C8 1_555 1_555
C9 C8 1_555 1_555
C10 C9 1_555 1_555
Co12 O58 1_555 1_555
O5 Cu2 1_555 1_555
O24 Cu2 1_555 1_555
O25 Cu25 1_555 1_555
O38 C10 1_555 1_555
O57 C179 1_555 1_555
O58 C179 1_555 1_555
O69 Cu2 1_555 1_555
O83 C14 1_555 1_555
O84 C15 1_555 1_555
O100 Cu26 1_555 1_555
C11 O5 1_555 1_555
C30 O24 1_555 1_555
C31 O25 1_555 1_555
C34 C3 1_555 1_555
C37 C14 1_555 1_555
C38 C15 1_555 1_555
C53 C30 1_555 1_555
C54 C31 1_555 1_555
C58 C37 1_555 1_555
C66 C53 1_555 1_555
H6 C58 1_555 1_555
H14 C66 1_555 1_555
C68 C5 1_555 1_555
C71 C37 1_555 1_555
C72 C38 1_555 1_555
C87 C53 1_555 1_555
C88 C54 1_555 1_555
H16 C68 1_555 1_555
H19 C71 1_555 1_555
H20 C72 1_555 1_555
H35 C87 1_555 1_555
H36 C88 1_555 1_555
C92 C71 1_555 1_555
C100 C87 1_555 1_555
C103 C92 1_555 1_555
C111 C100 1_555 1_555
C113 C6 1_555 1_555
C116 C103 1_555 1_555
C117 C103 1_555 1_555
C132 C111 1_555 1_555
C133 C111 1_555 1_555
H39 C113 1_555 1_555
H42 C116 1_555 1_555
H43 C117 1_555 1_555
H58 C132 1_555 1_555
H59 C133 1_555 1_555
C136 C9 1_555 1_555
C139 C116 1_555 1_555
C140 C117 1_555 1_555
C155 C132 1_555 1_555
C156 C133 1_555 1_555
H62 C136 1_555 1_555
H65 C139 1_555 1_555
H66 C140 1_555 1_555
H81 C155 1_555 1_555
H82 C156 1_555 1_555
C160 C139 1_555 1_555
C168 C155 1_555 1_555
C171 O41 1_555 1_555
C179 C168 1_555 1_555
O42 C171 1_555 1_555
O80 C11 1_555 1_555
O99 C30 1_555 1_555
O100 C31 1_555 1_555
C11 C34 1_555 1_555
C34 C68 1_555 1_555
C38 C58 1_555 1_555
C54 C66 1_555 1_555
C72 C92 1_555 1_555
C88 C100 1_555 1_555
C113 C136 1_555 1_555
C140 C160 1_555 1_555
C156 C168 1_555 1_555
C160 C171 1_555 1_555
O8 Cu23 1_555 1_555
O9 Cu6 1_555 1_555
O31 Cu6 1_555 1_555
O72 Cu23 1_555 1_555
O73 Cu6 1_555 1_555
Cu22 O34 1_555 1_555
Cu26 O13 1_555 1_555
Co13 O46 1_555 1_555
O12 Cu29 1_555 1_555
O13 C19 1_555 1_555
O35 Cu22 1_555 1_555
O39 Co12 1_555 1_555
O40 C170 1_555 1_555
O45 C173 1_555 1_555
O46 C173 1_555 1_555
O64 Co13 1_555 1_555
O74 Cu25 1_555 1_555
O76 Cu29 1_555 1_555
O78 Cu22 1_555 1_555
O81 Cu22 1_555 1_555
O88 Cu25 1_555 1_555
C18 O12 1_555 1_555
C19 O88 1_555 1_555
C35 C12 1_555 1_555
C36 C13 1_555 1_555
C41 C18 1_555 1_555
C42 C19 1_555 1_555
C57 C35 1_555 1_555
C60 C41 1_555 1_555
H5 C57 1_555 1_555
H8 C60 1_555 1_555
C69 C35 1_555 1_555
C70 C36 1_555 1_555
C75 C41 1_555 1_555
C76 C42 1_555 1_555
H17 C69 1_555 1_555
H18 C70 1_555 1_555
H23 C75 1_555 1_555
H24 C76 1_555 1_555
C91 C69 1_555 1_555
C94 C75 1_555 1_555
C102 C91 1_555 1_555
C105 C94 1_555 1_555
C114 C102 1_555 1_555
C115 C102 1_555 1_555
C120 C105 1_555 1_555
C121 C105 1_555 1_555
H40 C114 1_555 1_555
H41 C115 1_555 1_555
H46 C120 1_555 1_555
H47 C121 1_555 1_555
C137 C114 1_555 1_555
C138 C115 1_555 1_555
C143 C120 1_555 1_555
C144 C121 1_555 1_555
H63 C137 1_555 1_555
H64 C138 1_555 1_555
H69 C143 1_555 1_555
H70 C144 1_555 1_555
C159 C137 1_555 1_555
C162 C143 1_555 1_555
C170 O39 1_555 1_555
C173 C162 1_555 1_555
O81 C12 1_555 1_555
O82 C13 1_555 1_555
O87 C18 1_555 1_555
C36 C57 1_555 1_555
C42 C60 1_555 1_555
C70 C91 1_555 1_555
C76 C94 1_555 1_555
C138 C159 1_555 1_555
C144 C162 1_555 1_555
C159 C170 1_555 1_555
O6 Cu21 1_555 1_555
O70 Cu21 1_555 1_555
O103 Cu21 1_555 1_555
O104 Cu21 1_555 1_555
O54_2 Co14 1_555 1_555
O104 C27_2 1_555 1_555
C49_2 C26_2 1_555 1_555
C50_2 C27_2 1_555 1_555
C64_2 C49_2 1_555 1_555
H12_2 C64_2 1_555 1_555
C83_2 C49_2 1_555 1_555
C84_2 C50_2 1_555 1_555
H31_2 C83_2 1_555 1_555
H32_2 C84_2 1_555 1_555
C98_2 C83_2 1_555 1_555
C109_2 C98_2 1_555 1_555
C128_2 C109_2 1_555 1_555
C129_2 C109_2 1_555 1_555
H54_2 C128_2 1_555 1_555
H55_2 C129_2 1_555 1_555
C151_2 C128_2 1_555 1_555
C152_2 C129_2 1_555 1_555
H77_2 C151_2 1_555 1_555
H78_2 C152_2 1_555 1_555
C166_2 C151_2 1_555 1_555
C177_2 O61 1_555 1_555
O54_2 C177_2 1_555 1_555
O109 C26_2 1_555 1_555
C50_2 C64_2 1_555 1_555
C84_2 C98_2 1_555 1_555
C152_2 C166_2 1_555 1_555
C166_2 C177_2 1_555 1_555
O11 Cu24 1_555 1_555
O33 Cu24 1_555 1_555
O75 Cu24 1_555 1_555
O108 C17 1_555 1_555
C39 C16 1_555 1_555
C40 C17 1_555 1_555
C59 C39 1_555 1_555
H7 C59 1_555 1_555
C73 C39 1_555 1_555
C74 C40 1_555 1_555
H21 C73 1_555 1_555
H22 C74 1_555 1_555
C93 C73 1_555 1_555
C104 C93 1_555 1_555
C118 C104 1_555 1_555
C119 C104 1_555 1_555
H44 C118 1_555 1_555
H45 C119 1_555 1_555
C141 C118 1_555 1_555
C142 C119 1_555 1_555
H67 C141 1_555 1_555
H68 C142 1_555 1_555
C161 C141 1_555 1_555
C172 O63 1_555 1_555
O44 C172 1_555 1_555
O110 C16 1_555 1_555
C40 C59 1_555 1_555
C74 C93 1_555 1_555
C142 C161 1_555 1_555
C161 C172 1_555 1_555
O64 C10_2 1_555 1_555
O103 C1_2 1_555 1_555
C1_2 C2_2 1_555 1_555
C2_2 C3_2 1_555 1_555
C3_2 H1_2 1_555 1_555
C4_2 C2_2 1_555 1_555
H2_2 C4_2 1_555 1_555
C5_2 C4_2 1_555 1_555
C6_2 C5_2 1_555 1_555
C7_2 C6_2 1_555 1_555
H3_2 C7_2 1_555 1_555
C8_2 C7_2 1_555 1_555
H4_2 C8_2 1_555 1_555
C9_2 C8_2 1_555 1_555
C10_2 C9_2 1_555 1_555
O62 C10_2 1_555 1_555
O72_2 Cu26 1_555 1_555
C34_2 C3_2 1_555 1_555
C68_2 C5_2 1_555 1_555
H16_2 C68_2 1_555 1_555
C113_2 C6_2 1_555 1_555
H39_2 C113_2 1_555 1_555
C136_2 C9_2 1_555 1_555
H62_2 C136_2 1_555 1_555
O107 C11_2 1_555 1_555
C11_2 C34_2 1_555 1_555
C34_2 C68_2 1_555 1_555
C113_2 C136_2 1_555 1_555

#END
