
###############################################################################
#
# This file contains modified crystal structure data generated from the
# MOF subset of the Cambridge Structural Database (CSD) v543 
# hosted by the Cambridge Crystallographic Data Centre (CCDC).
#
# This work is licensed under the Creative Commons
# Attribution-NonCommercial-ShareAlike 4.0 International License.
# To view a copy of this license, visit
# http://creativecommons.org/licenses/by-nc-sa/4.0/
# or send a letter to
# Creative Commons, PO Box 1866, Mountain View, CA 94042, USA.
#
# CIF created using the CSD Python API on 29 September 2022
# The structure has been converted into the P1 space group
# The structure has a 3D framework
# The original CSD entry UKOHIN is in the rhombohedral crystal system
# The framework has been calculated to contain at least 10.0% void space
# The void calculation uses a probe of radius 1.32A, grid spacing 0.4
#
###############################################################################

data_UKOHIN
_chemical_formula_moiety         '(C198 H126 N54 O36 Zn18)n'
_symmetry_cell_setting           triclinic
_symmetry_space_group_name_H-M   'P 1'
_symmetry_Int_Tables_number      1
_space_group_name_Hall           'P 1'
loop_
_symmetry_equiv_pos_site_id
_symmetry_equiv_pos_as_xyz
1 x,y,z
_cell_length_a                   24.2486(14)
_cell_length_b                   24.2486(14)
_cell_length_c                   21.477(3)
_cell_angle_alpha                90
_cell_angle_beta                 90
_cell_angle_gamma                120
_cell_volume                     10936.5
loop_
_atom_site_label
_atom_site_type_symbol
_atom_site_fract_x
_atom_site_fract_y
_atom_site_fract_z
N8 N 0.13119(13) 0.75404(9) 0.30759(10)
N9 N 0.09971(13) 0.78342(9) 0.28517(10)
C26 C 0.00017(19) 0.53357(13) 0.15700(16)
H16 H 0.0109 0.5009 0.1552
C27 C 0.03159(20) 0.58151(14) 0.19865(17)
H17 H 0.0628 0.5812 0.2251
C28 C 0.01854(17) 0.63099(12) 0.20287(13)
C31 C 0.05592(16) 0.68615(11) 0.24242(13)
C32 C 0.05464(16) 0.74318(11) 0.24662(13)
H20 H 0.0256 0.7518 0.2250
C33 C 0.10492(18) 0.69638(12) 0.28227(13)
H21 H 0.1181 0.6662 0.2905
Zn4 Zn 0.19657(2) 0.78891(2) 0.37526(2)
Zn7 Zn 0.13677(2) 0.87775(2) 0.29140(2)
Zn1 Zn 0.52990(2) 0.45558(2) 0.04193(2)
N1 N 0.47049(9) 0.42543(9) 0.11836(11)
N2 N 0.24596(9) 0.37715(9) 0.30759(10)
N3 N 0.21658(9) 0.31629(9) 0.28517(10)
O1 O 0.59978(9) 0.43926(9) 0.04794(13)
O2 O 0.52035(8) 0.34176(9) 0.04578(10)
C1 C 0.46643(13) 0.46660(14) 0.15700(16)
H1 H 0.4991 0.5100 0.1552
C2 C 0.41849(14) 0.45008(14) 0.19865(17)
H2 H 0.4188 0.4816 0.2251
C3 C 0.36901(12) 0.38755(12) 0.20287(13)
C4 C 0.37479(13) 0.34440(13) 0.16546(16)
H3 H 0.3437 0.3005 0.1676
C5 C 0.42536(13) 0.36469(13) 0.12506(15)
H4 H 0.4283 0.3336 0.1006
C6 C 0.31385(11) 0.36977(12) 0.24242(13)
C7 C 0.25682(11) 0.31146(12) 0.24662(13)
H5 H 0.2482 0.2738 0.2250
C8 C 0.30362(12) 0.40854(13) 0.28227(13)
H6 H 0.3338 0.4519 0.2905
C9 C 0.57725(13) 0.37934(13) 0.04796(15)
C10 C 0.62364(12) 0.35566(12) 0.04929(15)
C11 C 0.68893(12) 0.39812(12) 0.04965(16)
H7 H 0.7042 0.4426 0.0501
O3 O 0.56074(9) 0.16052(13) 0.04794(13)
O4 O 0.65824(9) 0.17859(12) 0.04578(10)
C12 C 0.62066(13) 0.19791(18) 0.04796(15)
C13 C 0.64434(12) 0.26798(17) 0.04929(15)
C14 C 0.60188(12) 0.29081(17) 0.04965(16)
H8 H 0.5574 0.2616 0.0501
O5 O 0.83948(13) 0.40022(9) 0.04794(13)
O6 O 0.82141(12) 0.47965(8) 0.04578(10)
C15 C 0.80209(18) 0.42275(13) 0.04796(15)
C16 C 0.73202(17) 0.37636(12) 0.04929(15)
C17 C 0.70919(17) 0.31107(12) 0.04965(16)
H9 H 0.7384 0.2958 0.0501
Zn2 Zn 0.54442(2) 0.07432(3) 0.04193(2)
N4 N 0.57457(9) 0.04506(13) 0.11836(11)
C21 C 0.65560(13) 0.03039(18) 0.16546(16)
H12 H 0.6995 0.0432 0.1676
C22 C 0.63531(13) 0.06067(18) 0.12506(15)
H13 H 0.6664 0.0947 0.1006
Zn3 Zn 0.92568(3) 0.47010(2) 0.04193(2)
N7 N 0.95494(13) 0.52951(9) 0.11836(11)
C29 C 0.96961(18) 0.62521(13) 0.16546(16)
H18 H 0.9568 0.6563 0.1676
C30 C 0.93933(18) 0.57464(13) 0.12506(15)
H19 H 0.9053 0.5717 0.1006
Zn5 Zn 0.21109(2) 0.40765(3) 0.37526(2)
Zn8 Zn 0.12225(2) 0.25901(3) 0.29140(2)
N13 N 0.45009(9) 0.01704(9) 0.04816(10)
N14 N 0.98296(9) 0.43304(13) 0.04816(10)
N15 N 0.56696(13) 0.54991(9) 0.04816(10)
N10 N 0.57929(9) 0.04382(9) 0.97426(10)
N11 N 0.95618(9) 0.53548(13) 0.97426(10)
N12 N 0.46452(13) 0.42071(9) 0.97426(10)
N5 N 0.62285(9) 0.86881(13) 0.30759(10)
N6 N 0.68371(9) 0.90029(13) 0.28517(10)
C18 C 0.53340(14) 0.99983(19) 0.15700(16)
H10 H 0.4900 0.9891 0.1552
C19 C 0.54992(14) 0.96841(20) 0.19865(17)
H11 H 0.5184 0.9372 0.2251
C20 C 0.61245(12) 0.98146(17) 0.20287(13)
C23 C 0.63023(12) 0.94408(16) 0.24242(13)
C24 C 0.68854(12) 0.94536(16) 0.24662(13)
H14 H 0.7262 0.9744 0.2250
C25 C 0.59146(13) 0.89508(18) 0.28227(13)
H15 H 0.5481 0.8819 0.2905
Zn6 Zn 0.59235(3) 0.80343(2) 0.37526(2)
Zn9 Zn 0.74099(3) 0.86323(2) 0.29140(2)
N8_2 N 0.79786(13) 0.08737(9) 0.64092(10)
N9_2 N 0.76638(13) 0.11675(9) 0.61850(10)
C31_2 C 0.72259(16) 0.01948(11) 0.57575(13)
C32_2 C 0.72131(16) 0.07651(11) 0.57995(13)
H20_2 H 0.6923 0.0851 0.5583
C33_2 C 0.77159(18) 0.02971(12) 0.61560(13)
Zn4_2 Zn 0.86323(2) 0.12225(2) 0.70860(2)
Zn7_2 Zn 0.80343(2) 0.21109(2) 0.62474(2)
N1_2 N 0.13716(9) 0.75876(9) 0.45169(11)
O1_2 O 0.26645(9) 0.77259(9) 0.38127(13)
O2_2 O 0.18702(8) 0.67509(9) 0.37911(10)
C1_2 C 0.13310(13) 0.79993(14) 0.49033(16)
H1_2 H 0.1658 0.8433 0.4885
C2_2 C 0.08516(14) 0.78341(14) 0.53198(17)
H2_2 H 0.0855 0.8149 0.5584
C3_2 C 0.03568(12) 0.72088(12) 0.53620(13)
C4_2 C 0.04146(13) 0.67773(13) 0.49879(16)
H3_2 H 0.0104 0.6338 0.5009
C5_2 C 0.09203(13) 0.69802(13) 0.45839(15)
H4_2 H 0.0950 0.6669 0.4339
H6_2 H 0.0005 0.7852 0.6238
C9_2 C 0.24392(13) 0.71267(13) 0.38129(15)
C10_2 C 0.29031(12) 0.68899(12) 0.38262(15)
C11_2 C 0.35560(12) 0.73145(12) 0.38298(16)
H7_2 H 0.3709 0.7759 0.3834
O3_2 O 0.22741(9) 0.49385(13) 0.38127(13)
O4_2 O 0.32491(9) 0.51192(12) 0.37911(10)
C12_2 C 0.28733(13) 0.53124(18) 0.38129(15)
C13_2 C 0.31101(12) 0.60131(17) 0.38262(15)
C14_2 C 0.26855(12) 0.62414(17) 0.38298(16)
H8_2 H 0.2241 0.5949 0.3834
O5_2 O 0.50615(13) 0.73355(9) 0.38127(13)
O6_2 O 0.48808(12) 0.81298(8) 0.37911(10)
C15_2 C 0.46876(18) 0.75608(13) 0.38129(15)
C16_2 C 0.39869(17) 0.70969(12) 0.38262(15)
C17_2 C 0.37586(17) 0.64440(12) 0.38298(16)
H9_2 H 0.4051 0.6291 0.3834
N4_2 N 0.24124(9) 0.37839(13) 0.45169(11)
N5_2 N 0.28952(9) 0.20214(13) 0.64092(10)
N6_2 N 0.35038(9) 0.23362(13) 0.61850(10)
C18_2 C 0.20007(14) 0.33316(19) 0.49033(16)
H10_2 H 0.1567 0.3224 0.4885
C19_2 C 0.21659(14) 0.30174(20) 0.53198(17)
H11_2 H 0.1851 0.2705 0.5584
C20_2 C 0.27912(12) 0.31479(17) 0.53620(13)
C21_2 C 0.32227(13) 0.36372(18) 0.49879(16)
H12_2 H 0.3662 0.3765 0.5009
C22_2 C 0.30198(13) 0.39400(18) 0.45839(15)
H13_2 H 0.3331 0.4280 0.4339
C23_2 C 0.29690(12) 0.27741(16) 0.57575(13)
C24_2 C 0.35521(12) 0.27869(16) 0.57995(13)
H14_2 H 0.3929 0.3077 0.5583
C25_2 C 0.25813(13) 0.22841(18) 0.61560(13)
H15_2 H 0.2148 0.2152 0.6238
N7_2 N 0.62161(13) 0.86284(9) 0.45169(11)
C26_2 C 0.66684(19) 0.86690(13) 0.49033(16)
H16_2 H 0.6776 0.8342 0.4885
C27_2 C 0.69826(20) 0.91484(14) 0.53198(17)
H17_2 H 0.7295 0.9145 0.5584
C28_2 C 0.68521(17) 0.96432(12) 0.53620(13)
C29_2 C 0.63628(18) 0.95854(13) 0.49879(16)
H18_2 H 0.6235 0.9896 0.5009
C30_2 C 0.60600(18) 0.90797(13) 0.45839(15)
H19_2 H 0.5720 0.9050 0.4339
H21_2 H 0.7848 0.9995 0.6238
Zn6_2 Zn 0.25901(3) 0.13677(2) 0.70860(2)
Zn9_2 Zn 0.40765(3) 0.19657(2) 0.62474(2)
N13_2 N 0.11675(9) 0.35038(9) 0.38150(10)
N14_2 N 0.64962(9) 0.76638(13) 0.38150(10)
N15_2 N 0.23362(13) 0.88325(9) 0.38150(10)
N2_2 N 0.91263(9) 0.71048(9) 0.64092(10)
N3_2 N 0.88325(9) 0.64962(9) 0.61850(10)
C6_2 C 0.98052(11) 0.70310(12) 0.57575(13)
C7_2 C 0.92349(11) 0.64479(12) 0.57995(13)
H5_2 H 0.9149 0.6071 0.5583
C8_2 C 0.97029(12) 0.74187(13) 0.61560(13)
Zn5_2 Zn 0.87775(2) 0.74099(3) 0.70860(2)
Zn8_2 Zn 0.78891(2) 0.59235(3) 0.62474(2)
C11_3 C 0.02226(12) 0.06479(12) 0.71632(16)
H7_3 H 0.0375 0.1093 0.7168
O5_3 O 0.17281(13) 0.06689(9) 0.71461(13)
O6_3 O 0.15474(12) 0.14632(8) 0.71245(10)
C15_3 C 0.13542(18) 0.08942(13) 0.71463(15)
C16_3 C 0.06535(17) 0.04303(12) 0.71596(15)
N7_3 N 0.28827(13) 0.19618(9) 0.78503(11)
N9_3 N 0.43304(13) 0.45009(9) 0.95184(10)
C26_3 C 0.33350(19) 0.20024(13) 0.82367(16)
H16_3 H 0.3442 0.1676 0.8219
C27_3 C 0.36492(20) 0.24818(14) 0.86532(17)
H17_3 H 0.3961 0.2479 0.8918
C28_3 C 0.35187(17) 0.29766(12) 0.86954(13)
C29_3 C 0.30294(18) 0.29188(13) 0.83213(16)
H18_3 H 0.2901 0.3230 0.8343
C30_3 C 0.27266(18) 0.24131(13) 0.79173(15)
H19_3 H 0.2386 0.2384 0.7673
C31_3 C 0.38925(16) 0.35282(11) 0.90909(13)
C32_3 C 0.38797(16) 0.40985(11) 0.91329(13)
H20_3 H 0.3589 0.4185 0.8917
C33_3 C 0.43825(18) 0.36305(12) 0.94894(13)
H21_3 H 0.4514 0.3329 0.9572
Zn7_3 Zn 0.47010(2) 0.54442(2) 0.95807(2)
N14_3 N 0.31629(9) 0.09971(13) 0.71483(10)
C17_3 C 0.04252(17) 0.97774(12) 0.71632(16)
H9_3 H 0.0717 0.9625 0.7168
N6_3 N 0.01704(9) 0.56696(13) 0.95184(10)
H12_3 H 0.0328 0.7099 0.8343
C24_3 C 0.02187(12) 0.61203(16) 0.91329(13)
H14_3 H 0.0595 0.6411 0.8917
Zn9_3 Zn 0.07432(3) 0.52990(2) 0.95807(2)
N1_3 N 0.80382(9) 0.09210(9) 0.78503(11)
O1_3 O 0.93311(9) 0.10593(9) 0.71461(13)
O2_3 O 0.85368(8) 0.00843(9) 0.71245(10)
C1_3 C 0.79976(13) 0.13327(14) 0.82367(16)
H1_3 H 0.8324 0.1767 0.8219
C2_3 C 0.75182(14) 0.11675(14) 0.86532(17)
H2_3 H 0.7521 0.1483 0.8918
C3_3 C 0.70234(12) 0.05422(12) 0.86954(13)
C4_3 C 0.70812(13) 0.01107(13) 0.83213(16)
C5_3 C 0.75869(13) 0.03136(13) 0.79173(15)
H4_3 H 0.7616 0.0003 0.7673
C6_3 C 0.64718(11) 0.03644(12) 0.90909(13)
C8_3 C 0.63695(12) 0.07521(13) 0.94894(13)
H6_3 H 0.6671 0.1186 0.9572
C9_3 C 0.91058(13) 0.04601(13) 0.71463(15)
C10_3 C 0.95697(12) 0.02233(12) 0.71596(15)
N15_3 N 0.90029(13) 0.21658(9) 0.71483(10)
N3_3 N 0.54991(9) 0.98296(9) 0.95184(10)
H3_3 H 0.6770 0.9672 0.8343
C7_3 C 0.59015(11) 0.97813(12) 0.91329(13)
H5_3 H 0.5815 0.9405 0.8917
O3_3 O 0.89407(9) 0.82719(13) 0.71461(13)
O4_3 O 0.99157(9) 0.84526(12) 0.71245(10)
C12_3 C 0.95399(13) 0.86458(18) 0.71463(15)
C13_3 C 0.97767(12) 0.93465(17) 0.71596(15)
C14_3 C 0.93521(12) 0.95748(17) 0.71632(16)
H8_3 H 0.8907 0.9283 0.7168
N4_3 N 0.90790(9) 0.71173(13) 0.78503(11)
C18_3 C 0.86673(14) 0.66650(19) 0.82367(16)
H10_3 H 0.8233 0.6558 0.8219
C19_3 C 0.88325(14) 0.63508(20) 0.86532(17)
H11_3 H 0.8517 0.6039 0.8918
C20_3 C 0.94578(12) 0.64813(17) 0.86954(13)
C21_3 C 0.98893(13) 0.69706(18) 0.83213(16)
C22_3 C 0.96864(13) 0.72734(18) 0.79173(15)
H13_3 H 0.9997 0.7614 0.7673
C23_3 C 0.96356(12) 0.61075(16) 0.90909(13)
C25_3 C 0.92479(13) 0.56175(18) 0.94894(13)
H15_3 H 0.8814 0.5486 0.9572
Zn8_3 Zn 0.45558(2) 0.92568(3) 0.95807(2)
N13_3 N 0.78342(9) 0.68371(9) 0.71483(10)
N5_3 N 0.37715(9) 0.13119(13) 0.69241(10)
C18_4 C 0.46660(14) 0.00017(19) 0.84300(16)
H10_4 H 0.5100 0.0109 0.8448
C19_4 C 0.45008(14) 0.03159(20) 0.80135(17)
H11_4 H 0.4816 0.0628 0.7749
C20_4 C 0.38755(12) 0.01854(17) 0.79713(13)
C23_4 C 0.36977(12) 0.05592(16) 0.75758(13)
C24_4 C 0.31146(12) 0.05464(16) 0.75338(13)
H14_4 H 0.2738 0.0256 0.7750
C25_4 C 0.40854(13) 0.10492(18) 0.71773(13)
H15_4 H 0.4519 0.1181 0.7095
N10_2 N 0.42071(9) 0.95618(9) 0.02574(10)
N11_2 N 0.04382(9) 0.46452(13) 0.02574(10)
N12_2 N 0.53548(13) 0.57929(9) 0.02574(10)
N1_4 N 0.52951(9) 0.57457(9) 0.88164(11)
N2_3 N 0.75404(9) 0.62285(9) 0.69241(10)
O1_4 O 0.40022(9) 0.56074(9) 0.95206(13)
O2_4 O 0.47965(8) 0.65824(9) 0.95422(10)
C1_4 C 0.53357(13) 0.53340(14) 0.84300(16)
H1_4 H 0.5009 0.4900 0.8448
C2_4 C 0.58151(14) 0.54992(14) 0.80135(17)
H2_4 H 0.5812 0.5184 0.7749
C3_4 C 0.63099(12) 0.61245(12) 0.79713(13)
C4_4 C 0.62521(13) 0.65560(13) 0.83454(16)
H3_4 H 0.6563 0.6995 0.8324
C5_4 C 0.57464(13) 0.63531(13) 0.87494(15)
H4_4 H 0.5717 0.6664 0.8994
C6_4 C 0.68615(11) 0.63023(12) 0.75758(13)
C7_4 C 0.74318(11) 0.68854(12) 0.75338(13)
H5_4 H 0.7518 0.7262 0.7750
C8_4 C 0.69638(12) 0.59146(13) 0.71773(13)
H6_4 H 0.6662 0.5481 0.7095
C9_4 C 0.42275(13) 0.62066(13) 0.95204(15)
C10_4 C 0.37636(12) 0.64434(12) 0.95071(15)
C11_4 C 0.31107(12) 0.60188(12) 0.95035(16)
H7_4 H 0.2958 0.5574 0.9499
O3_4 O 0.43926(9) 0.83948(13) 0.95206(13)
O4_4 O 0.34176(9) 0.82141(12) 0.95422(10)
C12_4 C 0.37934(13) 0.80209(18) 0.95204(15)
C13_4 C 0.35566(12) 0.73202(17) 0.95071(15)
C14_4 C 0.39812(12) 0.70919(17) 0.95035(16)
H8_4 H 0.4426 0.7384 0.9499
O5_4 O 0.16052(13) 0.59978(9) 0.95206(13)
O6_4 O 0.17859(12) 0.52035(8) 0.95422(10)
C15_4 C 0.19791(18) 0.57725(13) 0.95204(15)
C16_4 C 0.26798(17) 0.62364(12) 0.95071(15)
C17_4 C 0.29081(17) 0.68893(12) 0.95035(16)
H9_4 H 0.2616 0.7042 0.9499
N4_4 N 0.42543(9) 0.95494(13) 0.88164(11)
C21_4 C 0.34440(13) 0.96961(18) 0.83454(16)
H12_4 H 0.3005 0.9568 0.8324
C22_4 C 0.36469(13) 0.93933(18) 0.87494(15)
H13_4 H 0.3336 0.9053 0.8994
N7_4 N 0.04506(13) 0.47049(9) 0.88164(11)
C29_4 C 0.03039(18) 0.37479(13) 0.83454(16)
H18_4 H 0.0432 0.3437 0.8324
C30_4 C 0.06067(18) 0.42536(13) 0.87494(15)
H19_4 H 0.0947 0.4283 0.8994
N8_3 N 0.86881(13) 0.24596(9) 0.69241(10)
C26_4 C 0.99983(19) 0.46643(13) 0.84300(16)
H16_4 H 0.9891 0.4991 0.8448
C27_4 C 0.96841(20) 0.41849(14) 0.80135(17)
H17_4 H 0.9372 0.4188 0.7749
C28_4 C 0.98146(17) 0.36901(12) 0.79713(13)
C31_4 C 0.94408(16) 0.31385(11) 0.75758(13)
C32_4 C 0.94536(16) 0.25682(11) 0.75338(13)
H20_4 H 0.9744 0.2482 0.7750
C33_4 C 0.89508(18) 0.30362(12) 0.71773(13)
H21_4 H 0.8819 0.3338 0.7095
N2_4 N 0.08737(9) 0.28952(9) 0.35908(10)
C6_5 C 0.01948(11) 0.29690(12) 0.42425(13)
C7_5 C 0.07651(11) 0.35521(12) 0.42005(13)
H5_5 H 0.0851 0.3929 0.4417
C8_5 C 0.02971(12) 0.25813(13) 0.38440(13)
N1_5 N 0.86284(9) 0.24124(9) 0.54831(11)
O1_5 O 0.73355(9) 0.22741(9) 0.61873(13)
O2_5 O 0.81298(8) 0.32491(9) 0.62089(10)
C1_5 C 0.86690(13) 0.20007(14) 0.50967(16)
H1_5 H 0.8342 0.1567 0.5115
C2_5 C 0.91484(14) 0.21659(14) 0.46802(17)
H2_5 H 0.9145 0.1851 0.4416
C3_5 C 0.96432(12) 0.27912(12) 0.46380(13)
C4_5 C 0.95854(13) 0.32227(13) 0.50121(16)
H3_5 H 0.9896 0.3662 0.4991
C5_5 C 0.90797(13) 0.30198(13) 0.54161(15)
H4_5 H 0.9050 0.3331 0.5661
H6_5 H 0.9995 0.2148 0.3762
C9_5 C 0.75608(13) 0.28733(13) 0.61871(15)
C10_5 C 0.70969(12) 0.31101(12) 0.61738(15)
C11_5 C 0.64440(12) 0.26855(12) 0.61702(16)
H7_5 H 0.6291 0.2241 0.6166
O3_5 O 0.77259(9) 0.50615(13) 0.61873(13)
O4_5 O 0.67509(9) 0.48808(12) 0.62089(10)
C12_5 C 0.71267(13) 0.46876(18) 0.61871(15)
C13_5 C 0.68899(12) 0.39869(17) 0.61738(15)
C14_5 C 0.73145(12) 0.37586(17) 0.61702(16)
H8_5 H 0.7759 0.4051 0.6166
O5_5 O 0.49385(13) 0.26645(9) 0.61873(13)
O6_5 O 0.51192(12) 0.18702(8) 0.62089(10)
C15_5 C 0.53124(18) 0.24392(13) 0.61871(15)
C16_5 C 0.60131(17) 0.29031(12) 0.61738(15)
C17_5 C 0.62414(17) 0.35560(12) 0.61702(16)
H9_5 H 0.5949 0.3709 0.6166
N4_5 N 0.75876(9) 0.62161(13) 0.54831(11)
N5_4 N 0.71048(9) 0.79786(13) 0.35908(10)
C18_5 C 0.79993(14) 0.66684(19) 0.50967(16)
H10_5 H 0.8433 0.6776 0.5115
C19_5 C 0.78341(14) 0.69826(20) 0.46802(17)
H11_5 H 0.8149 0.7295 0.4416
C20_5 C 0.72088(12) 0.68521(17) 0.46380(13)
C21_5 C 0.67773(13) 0.63628(18) 0.50121(16)
H12_5 H 0.6338 0.6235 0.4991
C22_5 C 0.69802(13) 0.60600(18) 0.54161(15)
H13_5 H 0.6669 0.5720 0.5661
C23_5 C 0.70310(12) 0.72259(16) 0.42425(13)
C24_5 C 0.64479(12) 0.72131(16) 0.42005(13)
H14_5 H 0.6071 0.6923 0.4417
C25_5 C 0.74187(13) 0.77159(18) 0.38440(13)
H15_5 H 0.7852 0.7848 0.3762
N7_5 N 0.37839(13) 0.13716(9) 0.54831(11)
C26_5 C 0.33316(19) 0.13310(13) 0.50967(16)
H16_5 H 0.3224 0.1658 0.5115
C27_5 C 0.30174(20) 0.08516(14) 0.46802(17)
H17_5 H 0.2705 0.0855 0.4416
C28_5 C 0.31479(17) 0.03568(12) 0.46380(13)
C29_5 C 0.36372(18) 0.04146(13) 0.50121(16)
H18_5 H 0.3765 0.0104 0.4991
C30_5 C 0.39400(18) 0.09203(13) 0.54161(15)
H19_5 H 0.4280 0.0950 0.5661
H21_5 H 0.2152 0.0005 0.3762
N8_4 N 0.20214(13) 0.91263(9) 0.35908(10)
C31_5 C 0.27741(16) 0.98052(11) 0.42425(13)
C32_5 C 0.27869(16) 0.92349(11) 0.42005(13)
H20_5 H 0.3077 0.9149 0.4417
C33_5 C 0.22841(18) 0.97029(12) 0.38440(13)
H3_6 H 0.3230 0.0328 0.1657
C7_6 C 0.40985(11) 0.02187(12) 0.08671(13)
H5_6 H 0.4185 0.0595 0.1083
O3_6 O 0.10593(9) 0.17281(13) 0.28539(13)
O4_6 O 0.00843(9) 0.15474(12) 0.28755(10)
C12_6 C 0.04601(13) 0.13542(18) 0.28537(15)
C13_6 C 0.02233(12) 0.06535(17) 0.28404(15)
C14_6 C 0.06479(12) 0.04252(17) 0.28368(16)
H8_6 H 0.1093 0.0717 0.2832
N4_6 N 0.09210(9) 0.28827(13) 0.21497(11)
C18_6 C 0.13327(14) 0.33350(19) 0.17633(16)
H10_6 H 0.1767 0.3442 0.1781
C19_6 C 0.11675(14) 0.36492(20) 0.13468(17)
H11_6 H 0.1483 0.3961 0.1082
C20_6 C 0.05422(12) 0.35187(17) 0.13046(13)
C21_6 C 0.01107(13) 0.30294(18) 0.16787(16)
C22_6 C 0.03136(13) 0.27266(18) 0.20827(15)
H13_6 H 0.0003 0.2386 0.2327
C23_6 C 0.03644(12) 0.38925(16) 0.09091(13)
C25_6 C 0.07521(13) 0.43825(18) 0.05106(13)
H15_6 H 0.1186 0.4514 0.0428
N1_6 N 0.19618(9) 0.90790(9) 0.21497(11)
O1_6 O 0.06689(9) 0.89407(9) 0.28539(13)
O2_6 O 0.14632(8) 0.99157(9) 0.28755(10)
C1_6 C 0.20024(13) 0.86673(14) 0.17633(16)
H1_6 H 0.1676 0.8233 0.1781
C2_6 C 0.24818(14) 0.88325(14) 0.13468(17)
H2_6 H 0.2479 0.8517 0.1082
C3_6 C 0.29766(12) 0.94578(12) 0.13046(13)
C4_6 C 0.29188(13) 0.98893(13) 0.16787(16)
C5_6 C 0.24131(13) 0.96864(13) 0.20827(15)
H4_6 H 0.2384 0.9997 0.2327
C6_6 C 0.35282(11) 0.96356(12) 0.09091(13)
C8_6 C 0.36305(12) 0.92479(13) 0.05106(13)
H6_6 H 0.3329 0.8814 0.0428
C9_6 C 0.08942(13) 0.95399(13) 0.28537(15)
C10_6 C 0.04303(12) 0.97767(12) 0.28404(15)
C17_6 C 0.95748(17) 0.02226(12) 0.28368(16)
H9_6 H 0.9283 0.0375 0.2832
H12_6 H 0.9672 0.2901 0.1657
C24_6 C 0.97813(12) 0.38797(16) 0.08671(13)
H14_6 H 0.9405 0.3589 0.1083
C11_6 C 0.97774(12) 0.93521(12) 0.28368(16)
H7_6 H 0.9625 0.8907 0.2832
O5_6 O 0.82719(13) 0.93311(9) 0.28539(13)
O6_6 O 0.84526(12) 0.85368(8) 0.28755(10)
C15_6 C 0.86458(18) 0.91058(13) 0.28537(15)
C16_6 C 0.93465(17) 0.95697(12) 0.28404(15)
N7_6 N 0.71173(13) 0.80382(9) 0.21497(11)
C26_6 C 0.66650(19) 0.79976(13) 0.17633(16)
H16_6 H 0.6558 0.8324 0.1781
C27_6 C 0.63508(20) 0.75182(14) 0.13468(17)
H17_6 H 0.6039 0.7521 0.1082
C28_6 C 0.64813(17) 0.70234(12) 0.13046(13)
C29_6 C 0.69706(18) 0.70812(13) 0.16787(16)
H18_6 H 0.7099 0.6770 0.1657
C30_6 C 0.72734(18) 0.75869(13) 0.20827(15)
H19_6 H 0.7614 0.7616 0.2327
C31_6 C 0.61075(16) 0.64718(11) 0.09091(13)
C32_6 C 0.61203(16) 0.59015(11) 0.08671(13)
H20_6 H 0.6411 0.5815 0.1083
C33_6 C 0.56175(18) 0.63695(12) 0.05106(13)
H21_6 H 0.5486 0.6671 0.0428
loop_
_geom_bond_atom_site_label_1
_geom_bond_atom_site_label_2
_geom_bond_site_symmetry_1
_geom_bond_site_symmetry_2
N8 N9 1_555 1_555
N9 C32 1_555 1_555
H16 C26 1_555 1_555
C27 C26 1_555 1_555
H17 C27 1_555 1_555
C28 C27 1_555 1_555
C31 C28 1_555 1_555
C32 C31 1_555 1_555
H20 C32 1_555 1_555
C33 N8 1_555 1_555
H21 C33 1_555 1_555
Zn4 N8 1_555 1_555
Zn7 N9 1_555 1_555
C31 C33 1_555 1_555
Zn1 N1 1_555 1_555
N1 C1 1_555 1_555
N2 N3 1_555 1_555
N3 C7 1_555 1_555
O1 Zn1 1_555 1_555
O2 C9 1_555 1_555
C1 H1 1_555 1_555
C2 C1 1_555 1_555
H2 C2 1_555 1_555
C3 C2 1_555 1_555
C4 C3 1_555 1_555
H3 C4 1_555 1_555
C5 N1 1_555 1_555
H4 C5 1_555 1_555
C6 C3 1_555 1_555
C7 C6 1_555 1_555
H5 C7 1_555 1_555
C8 N2 1_555 1_555
H6 C8 1_555 1_555
C9 O1 1_555 1_555
C10 C9 1_555 1_555
C11 C10 1_555 1_555
H7 C11 1_555 1_555
O3 C12 1_555 1_555
O4 C12 1_555 1_555
C12 C13 1_555 1_555
C13 C14 1_555 1_555
C14 C10 1_555 1_555
H8 C14 1_555 1_555
O5 C15 1_555 1_555
O6 C15 1_555 1_555
C15 C16 1_555 1_555
C16 C11 1_555 1_555
C17 C13 1_555 1_555
H9 C17 1_555 1_555
Zn2 O3 1_555 1_555
N4 Zn2 1_555 1_555
H12 C21 1_555 1_555
C22 N4 1_555 1_555
H13 C22 1_555 1_555
Zn3 O5 1_555 1_555
N7 Zn3 1_555 1_555
H18 C29 1_555 1_555
C30 N7 1_555 1_555
H19 C30 1_555 1_555
Zn5 N2 1_555 1_555
Zn8 N3 1_555 1_555
N13 Zn2 1_555 1_555
N14 Zn3 1_555 1_555
N15 Zn1 1_555 1_555
C4 C5 1_555 1_555
C6 C8 1_555 1_555
C16 C17 1_555 1_555
C21 C22 1_555 1_555
C29 C30 1_555 1_555
N5 N6 1_555 1_555
N6 C24 1_555 1_555
H10 C18 1_555 1_555
C19 C18 1_555 1_555
H11 C19 1_555 1_555
C20 C19 1_555 1_555
C23 C20 1_555 1_555
C24 C23 1_555 1_555
H14 C24 1_555 1_555
C25 N5 1_555 1_555
H15 C25 1_555 1_555
Zn6 N5 1_555 1_555
Zn9 N6 1_555 1_555
C23 C25 1_555 1_555
N8_2 N9_2 1_555 1_555
N9_2 C32_2 1_555 1_555
C32_2 C31_2 1_555 1_555
H20_2 C32_2 1_555 1_555
C33_2 N8_2 1_555 1_555
Zn4_2 N8_2 1_555 1_555
Zn7_2 N9_2 1_555 1_555
C31_2 C33_2 1_555 1_555
Zn4 N1_2 1_555 1_555
N1_2 C1_2 1_555 1_555
O1_2 Zn4 1_555 1_555
O2_2 C9_2 1_555 1_555
C1_2 H1_2 1_555 1_555
C2_2 C1_2 1_555 1_555
H2_2 C2_2 1_555 1_555
C3_2 C2_2 1_555 1_555
C4_2 C3_2 1_555 1_555
H3_2 C4_2 1_555 1_555
C5_2 N1_2 1_555 1_555
H4_2 C5_2 1_555 1_555
C9_2 O1_2 1_555 1_555
C10_2 C9_2 1_555 1_555
C11_2 C10_2 1_555 1_555
H7_2 C11_2 1_555 1_555
O3_2 C12_2 1_555 1_555
O4_2 C12_2 1_555 1_555
C12_2 C13_2 1_555 1_555
C13_2 C14_2 1_555 1_555
C14_2 C10_2 1_555 1_555
H8_2 C14_2 1_555 1_555
O5_2 C15_2 1_555 1_555
O6_2 C15_2 1_555 1_555
C15_2 C16_2 1_555 1_555
C16_2 C11_2 1_555 1_555
C17_2 C13_2 1_555 1_555
H9_2 C17_2 1_555 1_555
Zn5 O3_2 1_555 1_555
N4_2 Zn5 1_555 1_555
N5_2 N6_2 1_555 1_555
N6_2 C24_2 1_555 1_555
C18_2 N4_2 1_555 1_555
H10_2 C18_2 1_555 1_555
C19_2 C18_2 1_555 1_555
H11_2 C19_2 1_555 1_555
C20_2 C19_2 1_555 1_555
C21_2 C20_2 1_555 1_555
H12_2 C21_2 1_555 1_555
C22_2 N4_2 1_555 1_555
H13_2 C22_2 1_555 1_555
C23_2 C20_2 1_555 1_555
C24_2 C23_2 1_555 1_555
H14_2 C24_2 1_555 1_555
C25_2 N5_2 1_555 1_555
H15_2 C25_2 1_555 1_555
Zn6 O5_2 1_555 1_555
N7_2 Zn6 1_555 1_555
C26_2 N7_2 1_555 1_555
H16_2 C26_2 1_555 1_555
C27_2 C26_2 1_555 1_555
H17_2 C27_2 1_555 1_555
C28_2 C27_2 1_555 1_555
C29_2 C28_2 1_555 1_555
H18_2 C29_2 1_555 1_555
C30_2 N7_2 1_555 1_555
H19_2 C30_2 1_555 1_555
Zn6_2 N5_2 1_555 1_555
Zn9_2 N6_2 1_555 1_555
N13_2 Zn5 1_555 1_555
N14_2 Zn6 1_555 1_555
N15_2 Zn4 1_555 1_555
C4_2 C5_2 1_555 1_555
C16_2 C17_2 1_555 1_555
C21_2 C22_2 1_555 1_555
C23_2 C25_2 1_555 1_555
C29_2 C30_2 1_555 1_555
N2_2 N3_2 1_555 1_555
N3_2 C7_2 1_555 1_555
C7_2 C6_2 1_555 1_555
H5_2 C7_2 1_555 1_555
C8_2 N2_2 1_555 1_555
Zn5_2 N2_2 1_555 1_555
Zn8_2 N3_2 1_555 1_555
C6_2 C8_2 1_555 1_555
H7_3 C11_3 1_555 1_555
O5_3 C15_3 1_555 1_555
O6_3 C15_3 1_555 1_555
C15_3 C16_3 1_555 1_555
C16_3 C11_3 1_555 1_555
Zn6_2 O5_3 1_555 1_555
N7_3 Zn6_2 1_555 1_555
N12 N9_3 1_555 1_555
N9_3 C32_3 1_555 1_555
C26_3 N7_3 1_555 1_555
H16_3 C26_3 1_555 1_555
C27_3 C26_3 1_555 1_555
H17_3 C27_3 1_555 1_555
C28_3 C27_3 1_555 1_555
C29_3 C28_3 1_555 1_555
H18_3 C29_3 1_555 1_555
C30_3 N7_3 1_555 1_555
H19_3 C30_3 1_555 1_555
C31_3 C28_3 1_555 1_555
C32_3 C31_3 1_555 1_555
H20_3 C32_3 1_555 1_555
C33_3 N12 1_555 1_555
H21_3 C33_3 1_555 1_555
Zn7_3 N9_3 1_555 1_555
N14_3 Zn6_2 1_555 1_555
C29_3 C30_3 1_555 1_555
C31_3 C33_3 1_555 1_555
H9_3 C17_3 1_555 1_555
N6_3 C24_3 1_555 1_555
H14_3 C24_3 1_555 1_555
Zn9_3 N6_3 1_555 1_555
Zn4_2 N1_3 1_555 1_555
N1_3 C1_3 1_555 1_555
O1_3 Zn4_2 1_555 1_555
O2_3 C9_3 1_555 1_555
C1_3 H1_3 1_555 1_555
C2_3 C1_3 1_555 1_555
H2_3 C2_3 1_555 1_555
C3_3 C2_3 1_555 1_555
C4_3 C3_3 1_555 1_555
C5_3 N1_3 1_555 1_555
H4_3 C5_3 1_555 1_555
C6_3 C3_3 1_555 1_555
C8_3 N10 1_555 1_555
H6_3 C8_3 1_555 1_555
C9_3 O1_3 1_555 1_555
C10_3 C9_3 1_555 1_555
N15_3 Zn4_2 1_555 1_555
C4_3 C5_3 1_555 1_555
C6_3 C8_3 1_555 1_555
N3_3 C7_3 1_555 1_555
H5_3 C7_3 1_555 1_555
O3_3 C12_3 1_555 1_555
O4_3 C12_3 1_555 1_555
C12_3 C13_3 1_555 1_555
C13_3 C14_3 1_555 1_555
H8_3 C14_3 1_555 1_555
Zn5_2 O3_3 1_555 1_555
N4_3 Zn5_2 1_555 1_555
C18_3 N4_3 1_555 1_555
H10_3 C18_3 1_555 1_555
C19_3 C18_3 1_555 1_555
H11_3 C19_3 1_555 1_555
C20_3 C19_3 1_555 1_555
C21_3 C20_3 1_555 1_555
C22_3 N4_3 1_555 1_555
H13_3 C22_3 1_555 1_555
C23_3 C20_3 1_555 1_555
C25_3 N11 1_555 1_555
H15_3 C25_3 1_555 1_555
Zn8_3 N3_3 1_555 1_555
N13_3 Zn5_2 1_555 1_555
C21_3 C22_3 1_555 1_555
C23_3 C25_3 1_555 1_555
N5_3 N14_3 1_555 1_555
N14_3 C24_4 1_555 1_555
H10_4 C18_4 1_555 1_555
C19_4 C18_4 1_555 1_555
H11_4 C19_4 1_555 1_555
C20_4 C19_4 1_555 1_555
C23_4 C20_4 1_555 1_555
C24_4 C23_4 1_555 1_555
H14_4 C24_4 1_555 1_555
C25_4 N5_3 1_555 1_555
H15_4 C25_4 1_555 1_555
Zn9_2 N5_3 1_555 1_555
C23_4 C25_4 1_555 1_555
Zn7_3 N1_4 1_555 1_555
N1_4 C1_4 1_555 1_555
N2_3 N13_3 1_555 1_555
N13_3 C7_4 1_555 1_555
O1_4 Zn7_3 1_555 1_555
O2_4 C9_4 1_555 1_555
C1_4 H1_4 1_555 1_555
C2_4 C1_4 1_555 1_555
H2_4 C2_4 1_555 1_555
C3_4 C2_4 1_555 1_555
C4_4 C3_4 1_555 1_555
H3_4 C4_4 1_555 1_555
C5_4 N1_4 1_555 1_555
H4_4 C5_4 1_555 1_555
C6_4 C3_4 1_555 1_555
C7_4 C6_4 1_555 1_555
H5_4 C7_4 1_555 1_555
C8_4 N2_3 1_555 1_555
H6_4 C8_4 1_555 1_555
C9_4 O1_4 1_555 1_555
C10_4 C9_4 1_555 1_555
C11_4 C10_4 1_555 1_555
H7_4 C11_4 1_555 1_555
O3_4 C12_4 1_555 1_555
O4_4 C12_4 1_555 1_555
C12_4 C13_4 1_555 1_555
C13_4 C14_4 1_555 1_555
C14_4 C10_4 1_555 1_555
H8_4 C14_4 1_555 1_555
O5_4 C15_4 1_555 1_555
O6_4 C15_4 1_555 1_555
C15_4 C16_4 1_555 1_555
C16_4 C11_4 1_555 1_555
C17_4 C13_4 1_555 1_555
H9_4 C17_4 1_555 1_555
Zn8_3 O3_4 1_555 1_555
N4_4 Zn8_3 1_555 1_555
H12_4 C21_4 1_555 1_555
C22_4 N4_4 1_555 1_555
H13_4 C22_4 1_555 1_555
Zn9_3 O5_4 1_555 1_555
N7_4 Zn9_3 1_555 1_555
H18_4 C29_4 1_555 1_555
C30_4 N7_4 1_555 1_555
H19_4 C30_4 1_555 1_555
Zn8_2 N2_3 1_555 1_555
C4_4 C5_4 1_555 1_555
C6_4 C8_4 1_555 1_555
C16_4 C17_4 1_555 1_555
C21_4 C22_4 1_555 1_555
C29_4 C30_4 1_555 1_555
N8_3 N15_3 1_555 1_555
N15_3 C32_4 1_555 1_555
H16_4 C26_4 1_555 1_555
C27_4 C26_4 1_555 1_555
H17_4 C27_4 1_555 1_555
C28_4 C27_4 1_555 1_555
C31_4 C28_4 1_555 1_555
C32_4 C31_4 1_555 1_555
H20_4 C32_4 1_555 1_555
C33_4 N8_3 1_555 1_555
H21_4 C33_4 1_555 1_555
Zn7_2 N8_3 1_555 1_555
C31_4 C33_4 1_555 1_555
N2_4 N13_2 1_555 1_555
N13_2 C7_5 1_555 1_555
C7_5 C6_5 1_555 1_555
H5_5 C7_5 1_555 1_555
C8_5 N2_4 1_555 1_555
Zn8 N2_4 1_555 1_555
C6_5 C8_5 1_555 1_555
Zn7_2 N1_5 1_555 1_555
N1_5 C1_5 1_555 1_555
O1_5 Zn7_2 1_555 1_555
O2_5 C9_5 1_555 1_555
C1_5 H1_5 1_555 1_555
C2_5 C1_5 1_555 1_555
H2_5 C2_5 1_555 1_555
C3_5 C2_5 1_555 1_555
C4_5 C3_5 1_555 1_555
H3_5 C4_5 1_555 1_555
C5_5 N1_5 1_555 1_555
H4_5 C5_5 1_555 1_555
C9_5 O1_5 1_555 1_555
C10_5 C9_5 1_555 1_555
C11_5 C10_5 1_555 1_555
H7_5 C11_5 1_555 1_555
O3_5 C12_5 1_555 1_555
O4_5 C12_5 1_555 1_555
C12_5 C13_5 1_555 1_555
C13_5 C14_5 1_555 1_555
C14_5 C10_5 1_555 1_555
H8_5 C14_5 1_555 1_555
O5_5 C15_5 1_555 1_555
O6_5 C15_5 1_555 1_555
C15_5 C16_5 1_555 1_555
C16_5 C11_5 1_555 1_555
C17_5 C13_5 1_555 1_555
H9_5 C17_5 1_555 1_555
Zn8_2 O3_5 1_555 1_555
N4_5 Zn8_2 1_555 1_555
N5_4 N14_2 1_555 1_555
N14_2 C24_5 1_555 1_555
C18_5 N4_5 1_555 1_555
H10_5 C18_5 1_555 1_555
C19_5 C18_5 1_555 1_555
H11_5 C19_5 1_555 1_555
C20_5 C19_5 1_555 1_555
C21_5 C20_5 1_555 1_555
H12_5 C21_5 1_555 1_555
C22_5 N4_5 1_555 1_555
H13_5 C22_5 1_555 1_555
C23_5 C20_5 1_555 1_555
C24_5 C23_5 1_555 1_555
H14_5 C24_5 1_555 1_555
C25_5 N5_4 1_555 1_555
H15_5 C25_5 1_555 1_555
Zn9_2 O5_5 1_555 1_555
N7_5 Zn9_2 1_555 1_555
C26_5 N7_5 1_555 1_555
H16_5 C26_5 1_555 1_555
C27_5 C26_5 1_555 1_555
H17_5 C27_5 1_555 1_555
C28_5 C27_5 1_555 1_555
C29_5 C28_5 1_555 1_555
H18_5 C29_5 1_555 1_555
C30_5 N7_5 1_555 1_555
H19_5 C30_5 1_555 1_555
Zn9 N5_4 1_555 1_555
C4_5 C5_5 1_555 1_555
C16_5 C17_5 1_555 1_555
C21_5 C22_5 1_555 1_555
C23_5 C25_5 1_555 1_555
C29_5 C30_5 1_555 1_555
N8_4 N15_2 1_555 1_555
N15_2 C32_5 1_555 1_555
C32_5 C31_5 1_555 1_555
H20_5 C32_5 1_555 1_555
C33_5 N8_4 1_555 1_555
Zn7 N8_4 1_555 1_555
C31_5 C33_5 1_555 1_555
N13 C7_6 1_555 1_555
H5_6 C7_6 1_555 1_555
O3_6 C12_6 1_555 1_555
O4_6 C12_6 1_555 1_555
C12_6 C13_6 1_555 1_555
C13_6 C14_6 1_555 1_555
H8_6 C14_6 1_555 1_555
Zn8 O3_6 1_555 1_555
N4_6 Zn8 1_555 1_555
C18_6 N4_6 1_555 1_555
H10_6 C18_6 1_555 1_555
C19_6 C18_6 1_555 1_555
H11_6 C19_6 1_555 1_555
C20_6 C19_6 1_555 1_555
C21_6 C20_6 1_555 1_555
C22_6 N4_6 1_555 1_555
H13_6 C22_6 1_555 1_555
C23_6 C20_6 1_555 1_555
C25_6 N11_2 1_555 1_555
H15_6 C25_6 1_555 1_555
C21_6 C22_6 1_555 1_555
C23_6 C25_6 1_555 1_555
Zn7 N1_6 1_555 1_555
N1_6 C1_6 1_555 1_555
O1_6 Zn7 1_555 1_555
O2_6 C9_6 1_555 1_555
C1_6 H1_6 1_555 1_555
C2_6 C1_6 1_555 1_555
H2_6 C2_6 1_555 1_555
C3_6 C2_6 1_555 1_555
C4_6 C3_6 1_555 1_555
C5_6 N1_6 1_555 1_555
H4_6 C5_6 1_555 1_555
C6_6 C3_6 1_555 1_555
C8_6 N10_2 1_555 1_555
H6_6 C8_6 1_555 1_555
C9_6 O1_6 1_555 1_555
C10_6 C9_6 1_555 1_555
C4_6 C5_6 1_555 1_555
C6_6 C8_6 1_555 1_555
H9_6 C17_6 1_555 1_555
N14 C24_6 1_555 1_555
H14_6 C24_6 1_555 1_555
H7_6 C11_6 1_555 1_555
O5_6 C15_6 1_555 1_555
O6_6 C15_6 1_555 1_555
C15_6 C16_6 1_555 1_555
C16_6 C11_6 1_555 1_555
Zn9 O5_6 1_555 1_555
N7_6 Zn9 1_555 1_555
N12_2 N15 1_555 1_555
N15 C32_6 1_555 1_555
C26_6 N7_6 1_555 1_555
H16_6 C26_6 1_555 1_555
C27_6 C26_6 1_555 1_555
H17_6 C27_6 1_555 1_555
C28_6 C27_6 1_555 1_555
C29_6 C28_6 1_555 1_555
H18_6 C29_6 1_555 1_555
C30_6 N7_6 1_555 1_555
H19_6 C30_6 1_555 1_555
C31_6 C28_6 1_555 1_555
C32_6 C31_6 1_555 1_555
H20_6 C32_6 1_555 1_555
C33_6 N12_2 1_555 1_555
H21_6 C33_6 1_555 1_555
C29_6 C30_6 1_555 1_555
C31_6 C33_6 1_555 1_555

#END
