
###############################################################################
#
# This file contains modified crystal structure data generated from the
# MOF subset of the Cambridge Structural Database (CSD) v543 
# hosted by the Cambridge Crystallographic Data Centre (CCDC).
#
# This work is licensed under the Creative Commons
# Attribution-NonCommercial-ShareAlike 4.0 International License.
# To view a copy of this license, visit
# http://creativecommons.org/licenses/by-nc-sa/4.0/
# or send a letter to
# Creative Commons, PO Box 1866, Mountain View, CA 94042, USA.
#
# CIF created using the CSD Python API on 29 September 2022
# The structure has been converted into the P1 space group
# The structure has a 3D framework
# The original CSD entry UKOZOK is in the monoclinic crystal system
# The framework has been calculated to contain at least 10.0% void space
# The void calculation uses a probe of radius 1.32A, grid spacing 0.4
# The framework is charged, counterions have been retained in the structure
# H atom positions have been added when not included in the experimental data
#
###############################################################################

data_UKOZOK
_chemical_formula_moiety         '(C144 H112 Bi19 O176 24-)n'
_symmetry_cell_setting           triclinic
_symmetry_space_group_name_H-M   'P 1'
_symmetry_Int_Tables_number      1
_space_group_name_Hall           'P 1'
loop_
_symmetry_equiv_pos_site_id
_symmetry_equiv_pos_as_xyz
1 x,y,z
_cell_length_a                   28.7950(4)
_cell_length_b                   9.50780(10)
_cell_length_c                   27.7363(3)
_cell_angle_alpha                90
_cell_angle_beta                 92.5940(10)
_cell_angle_gamma                90
_cell_volume                     7585.78
loop_
_atom_site_label
_atom_site_type_symbol
_atom_site_fract_x
_atom_site_fract_y
_atom_site_fract_z
Bi3 Bi 0.01101(2) 0.58766(8) 0.14321(2)
O18 O 0.0254(3) 0.6510(9) 0.0364(3)
C16 C 0.0170(4) 0.7499(12) 0.0063(4)
O22 O 0.0174(5) 0.3535(16) 0.1063(5)
Bi4 Bi 0.100099(16) 0.58333(5) 0.022157(16)
O24 O 0.0534(5) 0.7615(12) 0.1858(5)
O25 O 0.0509(3) 0.4881(11) 0.1979(3)
O26 O 0.0911(3) 0.5801(8) 0.1108(3)
H13 H 0.0223785 0.363929 0.0712876
H14 H 0.0440799 0.302221 0.121946
O17 O 0.0485(3) 0.7920(11) 0.9801(4)
Bi8 Bi 0.01101(2) 0.41234(8) 0.64321(2)
O1 O 0.9284(3) 0.4967(11) 0.0517(3)
O2 O 0.9351(3) 0.7003(11) 0.0926(3)
O4 O 0.8395(3) 0.5811(8) 0.0078(3)
O5 O 0.8097(3) 0.7686(9) 0.0395(3)
O6 O 0.6872(3) 0.4342(9) 0.0096(3)
O7 O 0.6460(3) 0.3470(11) 0.0683(3)
O8 O 0.7663(3) 0.4417(9) 0.0651(3)
O9 O 0.7108(3) 0.6935(9) 0.0651(3)
O10 O 0.6986(4) 0.7544(10) 0.1401(3)
O16 O 0.7686(4) 0.0437(10) 0.0916(4)
O19 O 0.7217(3) 0.1486(8) 0.0376(3)
C1 C 0.9324(4) 0.6318(16) 0.0539(5)
C2 C 0.9292(4) 0.7138(15) 0.0058(4)
C3 C 0.9699(5) 0.8163(15) 0.0039(5)
H2 H 0.9682 0.8818 0.0306
C4 C 0.8841(4) 0.7961(14) 0.0053(5)
H4 H 0.8879 0.8740 0.0277
C5 C 0.8413(5) 0.7108(15) 0.0185(4)
C6 C 0.6824(5) 0.3967(13) 0.0534(5)
C7 C 0.7255(5) 0.4056(13) 0.0885(4)
C8 C 0.7328(6) 0.2628(14) 0.1137(5)
H5 H 0.7589 0.2703 0.1370
H6 H 0.7054 0.2404 0.1312
C9 C 0.7157(5) 0.5163(14) 0.1269(5)
H7 H 0.6878 0.4893 0.1430
H8 H 0.7413 0.5166 0.1509
C10 C 0.7093(4) 0.6639(14) 0.1072(5)
C17 C 0.7422(5) 0.1433(14) 0.0788(4)
Bi5 Bi 0.746349(17) 0.94947(5) 0.002154(16)
O28 O 0.9515(3) 0.2080(11) 0.0199(4)
O31 O 0.9533(4) 0.4460(17) 0.1777(4)
O32 O 0.9560(4) 0.6638(18) 0.2040(4)
Bi1 Bi 0.899901(16) 0.41667(5) 0.977843(16)
Bi2 Bi 0.753651(17) 0.55053(5) 0.997846(16)
O3 O 0.9292(3) 0.6205(9) 0.9668(3)
O11 O 0.9466(5) 0.2385(12) 0.8142(5)
O12 O 0.8775(6) 0.2148(18) 0.7776(7)
O13 O 0.9491(3) 0.5119(11) 0.8021(3)
O14 O 0.8419(3) 0.5217(9) 0.8968(3)
O15 O 0.9089(3) 0.4199(8) 0.8892(3)
O20 O 0.9533(4) 0.5540(17) 0.6777(4)
O21 O 0.9560(4) 0.3362(18) 0.7040(4)
H1 H 0.9665 0.8701 0.9743
H3 H 0.8784 0.8354 0.9733
C11 C 0.9094(7) 0.287(2) 0.7920(7)
C12 C 0.9077(5) 0.4438(16) 0.7871(5)
C13 C 0.8969(6) 0.484(3) 0.7360(6)
H9 H 0.8902 0.5841 0.7341
H10 H 0.8697 0.4334 0.7237
C14 C 0.8670(5) 0.5036(17) 0.8178(4)
H11 H 0.8642 0.6038 0.8119
H12 H 0.8380 0.4602 0.8063
C15 C 0.8728(4) 0.4803(14) 0.8713(5)
C18 C 0.9396(7) 0.449(4) 0.7040(6)
Bi7 Bi 0.98899(2) 0.41234(8) 0.85679(2)
O23 O 0.6903(3) 0.7314(9) 0.9605(3)
O27 O 0.7314(4) 0.4563(10) 0.9084(4)
O29 O 0.9746(3) 0.3490(9) 0.9636(3)
O30 O 0.7783(3) 0.3514(8) 0.9624(3)
Bi1_2 Bi 0.100099(16) 0.41667(5) 0.522157(16)
Bi2_2 Bi 0.246349(17) 0.55053(5) 0.502154(16)
O1_2 O 0.0716(3) 0.4967(11) 0.4483(3)
O2_2 O 0.0649(3) 0.7003(11) 0.4074(3)
O3_2 O 0.0708(3) 0.6205(9) 0.5332(3)
O4_2 O 0.1605(3) 0.5811(8) 0.4922(3)
O5_2 O 0.1903(3) 0.7686(9) 0.4605(3)
O6_2 O 0.3128(3) 0.4342(9) 0.4904(3)
O7_2 O 0.3540(3) 0.3470(11) 0.4317(3)
O8_2 O 0.2337(3) 0.4417(9) 0.4349(3)
O9_2 O 0.2892(3) 0.6935(9) 0.4349(3)
O10_2 O 0.3014(4) 0.7544(10) 0.3599(3)
O11_2 O 0.0534(5) 0.2385(12) 0.6858(5)
O12_2 O 0.1225(6) 0.2148(18) 0.7224(7)
O13_2 O 0.0509(3) 0.5119(11) 0.6979(3)
O14_2 O 0.1581(3) 0.5217(9) 0.6032(3)
O15_2 O 0.0911(3) 0.4199(8) 0.6108(3)
O16_2 O 0.2314(4) 0.0437(10) 0.4084(4)
O19_2 O 0.2783(3) 0.1486(8) 0.4624(3)
O20_2 O 0.0467(4) 0.5540(17) 0.8223(4)
O21_2 O 0.0440(4) 0.3362(18) 0.7960(4)
C1_2 C 0.0676(4) 0.6318(16) 0.4461(5)
C2_2 C 0.0708(4) 0.7138(15) 0.4942(4)
C3_2 C 0.0301(5) 0.8163(15) 0.4961(5)
H1_2 H 0.0335 0.8701 0.5257
H2_2 H 0.0318 0.8818 0.4694
C4_2 C 0.1159(4) 0.7961(14) 0.4947(5)
H3_2 H 0.1216 0.8354 0.5267
H4_2 H 0.1121 0.8740 0.4723
C5_2 C 0.1587(5) 0.7108(15) 0.4815(4)
C6_2 C 0.3176(5) 0.3967(13) 0.4466(5)
C7_2 C 0.2745(5) 0.4056(13) 0.4115(4)
C8_2 C 0.2672(6) 0.2628(14) 0.3863(5)
H5_2 H 0.2411 0.2703 0.3630
H6_2 H 0.2946 0.2404 0.3688
C9_2 C 0.2843(5) 0.5163(14) 0.3731(5)
H7_2 H 0.3122 0.4893 0.3570
H8_2 H 0.2587 0.5166 0.3491
C10_2 C 0.2907(4) 0.6639(14) 0.3928(5)
C11_2 C 0.0906(7) 0.287(2) 0.7080(7)
C12_2 C 0.0923(5) 0.4438(16) 0.7129(5)
C13_2 C 0.1031(6) 0.484(3) 0.7640(6)
H9_2 H 0.1098 0.5841 0.7659
H10_2 H 0.1303 0.4334 0.7763
C14_2 C 0.1330(5) 0.5036(17) 0.6822(4)
H11_2 H 0.1358 0.6038 0.6881
H12_2 H 0.1620 0.4602 0.6937
C15_2 C 0.1272(4) 0.4803(14) 0.6287(5)
C17_2 C 0.2578(5) 0.1433(14) 0.4212(4)
C18_2 C 0.0604(7) 0.449(4) 0.7960(6)
Bi5_2 Bi 0.253651(17) 0.94947(5) 0.497846(16)
O23_2 O 0.3097(3) 0.7314(9) 0.5395(3)
O27_2 O 0.2686(4) 0.4563(10) 0.5916(4)
O28_2 O 0.0485(3) 0.2080(11) 0.4801(4)
O29_2 O 0.0254(3) 0.3490(9) 0.5364(3)
O30_2 O 0.2217(3) 0.3514(8) 0.5376(3)
O31_2 O 0.0467(4) 0.4460(17) 0.3223(4)
O32_2 O 0.0440(4) 0.6638(18) 0.2960(4)
Bi3_2 Bi 0.98899(2) 0.58766(8) 0.35679(2)
O17_2 O 0.9515(3) 0.7920(11) 0.5199(4)
O18_2 O 0.9746(3) 0.6510(9) 0.4636(3)
C16_2 C 0.9830(4) 0.7499(12) 0.4937(4)
O22_2 O 0.9826(5) 0.3535(16) 0.3937(5)
Bi4_2 Bi 0.899901(16) 0.58333(5) 0.477843(16)
O24_2 O 0.9466(5) 0.7615(12) 0.3142(5)
O25_2 O 0.9491(3) 0.4881(11) 0.3021(3)
O26_2 O 0.9089(3) 0.5801(8) 0.3892(3)
H13_2 H 0.977622 0.363929 0.428712
H14_2 H 0.95592 0.302221 0.378054
Bi3_3 Bi 0.51101(2) 0.08766(8) 0.14321(2)
O2_3 O 0.4351(3) 0.2003(11) 0.0926(3)
O4_3 O 0.3395(3) 0.0811(8) 0.0078(3)
O5_3 O 0.3097(3) 0.2686(9) 0.0395(3)
O9_3 O 0.2108(3) 0.1935(9) 0.0651(3)
O10_3 O 0.1986(4) 0.2544(10) 0.1401(3)
O18_3 O 0.5254(3) 0.1510(9) 0.0364(3)
C1_3 C 0.4324(4) 0.1318(16) 0.0539(5)
C2_3 C 0.4292(4) 0.2138(15) 0.0058(4)
C3_3 C 0.4699(5) 0.3163(15) 0.0039(5)
H2_3 H 0.4682 0.3818 0.0306
C4_3 C 0.3841(4) 0.2961(14) 0.0053(5)
H4_3 H 0.3879 0.3740 0.0277
C5_3 C 0.3413(5) 0.2108(15) 0.0185(4)
C9_3 C 0.2157(5) 0.0163(14) 0.1269(5)
H8_3 H 0.2413 0.0166 0.1509
C10_3 C 0.2093(4) 0.1639(14) 0.1072(5)
C16_3 C 0.5170(4) 0.2499(12) 0.0063(4)
Bi4_3 Bi 0.600099(16) 0.08333(5) 0.022157(16)
Bi5_3 Bi 0.246349(17) 0.44947(5) 0.002154(16)
O24_3 O 0.5534(5) 0.2615(12) 0.1858(5)
O26_3 O 0.5911(3) 0.0801(8) 0.1108(3)
O32_3 O 0.4560(4) 0.1638(18) 0.2040(4)
Bi2_3 Bi 0.253651(17) 0.05053(5) 0.997846(16)
O3_3 O 0.4292(3) 0.1205(9) 0.9668(3)
O13_3 O 0.4491(3) 0.0119(11) 0.8021(3)
O14_3 O 0.3419(3) 0.0217(9) 0.8968(3)
O17_3 O 0.5485(3) 0.2920(11) 0.9801(4)
O20_3 O 0.4533(4) 0.0540(17) 0.6777(4)
H1_3 H 0.4665 0.3701 0.9743
H3_3 H 0.3784 0.3354 0.9733
H9_3 H 0.3902 0.0841 0.7341
C14_3 C 0.3670(5) 0.0036(17) 0.8178(4)
H11_3 H 0.3642 0.1038 0.8119
O23_3 O 0.1903(3) 0.2314(9) 0.9605(3)
O1_3 O 0.4284(3) 0.9967(11) 0.0517(3)
O6_3 O 0.1872(3) 0.9342(9) 0.0096(3)
O7_3 O 0.1460(3) 0.8470(11) 0.0683(3)
O8_3 O 0.2663(3) 0.9417(9) 0.0651(3)
O16_3 O 0.2686(4) 0.5437(10) 0.0916(4)
O19_3 O 0.2217(3) 0.6486(8) 0.0376(3)
C6_3 C 0.1824(5) 0.8967(13) 0.0534(5)
C7_3 C 0.2255(5) 0.9056(13) 0.0885(4)
C8_3 C 0.2328(6) 0.7628(14) 0.1137(5)
H5_3 H 0.2589 0.7703 0.1370
H6_3 H 0.2054 0.7404 0.1312
H7_3 H 0.1878 0.9893 0.1430
C17_3 C 0.2422(5) 0.6433(14) 0.0788(4)
O22_3 O 0.5174(5) 0.8535(16) 0.1063(5)
O25_3 O 0.5509(3) 0.9881(11) 0.1979(3)
O28_3 O 0.4515(3) 0.7080(11) 0.0199(4)
O31_3 O 0.4533(4) 0.9460(17) 0.1777(4)
H13_3 H 0.522378 0.863929 0.0712876
H14_3 H 0.54408 0.802221 0.121946
Bi1_3 Bi 0.399901(16) 0.91667(5) 0.977843(16)
O11_3 O 0.4466(5) 0.7385(12) 0.8142(5)
O12_3 O 0.3775(6) 0.7148(18) 0.7776(7)
O15_3 O 0.4089(3) 0.9199(8) 0.8892(3)
O21_3 O 0.4560(4) 0.8362(18) 0.7040(4)
C11_3 C 0.4094(7) 0.787(2) 0.7920(7)
C12_3 C 0.4077(5) 0.9438(16) 0.7871(5)
C13_3 C 0.3969(6) 0.984(3) 0.7360(6)
H10_3 H 0.3697 0.9334 0.7237
H12_3 H 0.3380 0.9602 0.8063
C15_3 C 0.3728(4) 0.9803(14) 0.8713(5)
C18_3 C 0.4396(7) 0.949(4) 0.7040(6)
Bi7_2 Bi 0.48899(2) 0.91234(8) 0.85679(2)
Bi8_2 Bi 0.51101(2) 0.91234(8) 0.64321(2)
O27_3 O 0.2314(4) 0.9563(10) 0.9084(4)
O29_3 O 0.4746(3) 0.8490(9) 0.9636(3)
O30_3 O 0.2783(3) 0.8514(8) 0.9624(3)
Bi2_4 Bi 0.746349(17) 0.05053(5) 0.502154(16)
Bi3_4 Bi 0.48899(2) 0.08766(8) 0.35679(2)
O2_4 O 0.5649(3) 0.2003(11) 0.4074(3)
O3_4 O 0.5708(3) 0.1205(9) 0.5332(3)
O4_4 O 0.6605(3) 0.0811(8) 0.4922(3)
O5_4 O 0.6903(3) 0.2686(9) 0.4605(3)
O9_4 O 0.7892(3) 0.1935(9) 0.4349(3)
O10_4 O 0.8014(4) 0.2544(10) 0.3599(3)
O13_4 O 0.5509(3) 0.0119(11) 0.6979(3)
O14_4 O 0.6581(3) 0.0217(9) 0.6032(3)
O17_4 O 0.4515(3) 0.2920(11) 0.5199(4)
O18_4 O 0.4746(3) 0.1510(9) 0.4636(3)
O20_4 O 0.5467(4) 0.0540(17) 0.8223(4)
C1_4 C 0.5676(4) 0.1318(16) 0.4461(5)
C2_4 C 0.5708(4) 0.2138(15) 0.4942(4)
C3_4 C 0.5301(5) 0.3163(15) 0.4961(5)
H1_4 H 0.5335 0.3701 0.5257
H2_4 H 0.5318 0.3818 0.4694
C4_4 C 0.6159(4) 0.2961(14) 0.4947(5)
H3_4 H 0.6216 0.3354 0.5267
H4_4 H 0.6121 0.3740 0.4723
C5_4 C 0.6587(5) 0.2108(15) 0.4815(4)
C9_4 C 0.7843(5) 0.0163(14) 0.3731(5)
H8_4 H 0.7587 0.0166 0.3491
C10_4 C 0.7907(4) 0.1639(14) 0.3928(5)
H9_4 H 0.6098 0.0841 0.7659
C14_4 C 0.6330(5) 0.0036(17) 0.6822(4)
H11_4 H 0.6358 0.1038 0.6881
C16_4 C 0.4830(4) 0.2499(12) 0.4937(4)
Bi4_4 Bi 0.399901(16) 0.08333(5) 0.477843(16)
Bi5_4 Bi 0.753651(17) 0.44947(5) 0.497846(16)
O23_4 O 0.8097(3) 0.2314(9) 0.5395(3)
O24_4 O 0.4466(5) 0.2615(12) 0.3142(5)
O26_4 O 0.4089(3) 0.0801(8) 0.3892(3)
O32_4 O 0.5440(4) 0.1638(18) 0.2960(4)
Bi1_4 Bi 0.600099(16) 0.91667(5) 0.522157(16)
O1_4 O 0.5716(3) 0.9967(11) 0.4483(3)
O6_4 O 0.8128(3) 0.9342(9) 0.4904(3)
O7_4 O 0.8540(3) 0.8470(11) 0.4317(3)
O8_4 O 0.7337(3) 0.9417(9) 0.4349(3)
O11_4 O 0.5534(5) 0.7385(12) 0.6858(5)
O12_4 O 0.6225(6) 0.7148(18) 0.7224(7)
O15_4 O 0.5911(3) 0.9199(8) 0.6108(3)
O16_4 O 0.7314(4) 0.5437(10) 0.4084(4)
O19_4 O 0.7783(3) 0.6486(8) 0.4624(3)
O21_4 O 0.5440(4) 0.8362(18) 0.7960(4)
C6_4 C 0.8176(5) 0.8967(13) 0.4466(5)
C7_4 C 0.7745(5) 0.9056(13) 0.4115(4)
C8_4 C 0.7672(6) 0.7628(14) 0.3863(5)
H5_4 H 0.7411 0.7703 0.3630
H6_4 H 0.7946 0.7404 0.3688
H7_4 H 0.8122 0.9893 0.3570
C11_4 C 0.5906(7) 0.787(2) 0.7080(7)
C12_4 C 0.5923(5) 0.9438(16) 0.7129(5)
C13_4 C 0.6031(6) 0.984(3) 0.7640(6)
H10_4 H 0.6303 0.9334 0.7763
H12_4 H 0.6620 0.9602 0.6937
C15_4 C 0.6272(4) 0.9803(14) 0.6287(5)
C17_4 C 0.7578(5) 0.6433(14) 0.4212(4)
C18_4 C 0.5604(7) 0.949(4) 0.7960(6)
O22_4 O 0.4826(5) 0.8535(16) 0.3937(5)
O25_4 O 0.4491(3) 0.9881(11) 0.3021(3)
O27_4 O 0.7686(4) 0.9563(10) 0.5916(4)
O28_4 O 0.5485(3) 0.7080(11) 0.4801(4)
O29_4 O 0.5254(3) 0.8490(9) 0.5364(3)
O30_4 O 0.7217(3) 0.8514(8) 0.5376(3)
O31_4 O 0.5467(4) 0.9460(17) 0.3223(4)
H13_4 H 0.477622 0.863929 0.428712
H14_4 H 0.45592 0.802221 0.378054
O3_5 O 0.0708(3) 0.3795(9) 0.0332(3)
O12_5 O 0.1225(6) 0.7852(18) 0.2224(7)
O14_5 O 0.1581(3) 0.4783(9) 0.1032(3)
H1_5 H 0.0335 0.1299 0.0257
H3_5 H 0.1216 0.1646 0.0267
C11_5 C 0.0906(7) 0.713(2) 0.2080(7)
C12_5 C 0.0923(5) 0.5562(16) 0.2129(5)
C13_5 C 0.1031(6) 0.516(3) 0.2640(6)
H9_5 H 0.1098 0.4159 0.2659
H10_5 H 0.1303 0.5666 0.2763
C14_5 C 0.1330(5) 0.4964(17) 0.1822(4)
H11_5 H 0.1358 0.3962 0.1881
H12_5 H 0.1620 0.5398 0.1937
C15_5 C 0.1272(4) 0.5197(14) 0.1287(5)
C18_5 C 0.0604(7) 0.551(4) 0.2960(6)
O1_5 O 0.0716(3) 0.5033(11) 0.9483(3)
O2_5 O 0.0649(3) 0.2997(11) 0.9074(3)
O4_5 O 0.1605(3) 0.4189(8) 0.9922(3)
O6_5 O 0.3128(3) 0.5658(9) 0.9904(3)
O7_5 O 0.3540(3) 0.6530(11) 0.9317(3)
O8_5 O 0.2337(3) 0.5583(9) 0.9349(3)
O9_5 O 0.2892(3) 0.3065(9) 0.9349(3)
O10_5 O 0.3014(4) 0.2456(10) 0.8599(3)
C1_5 C 0.0676(4) 0.3682(16) 0.9461(5)
C2_5 C 0.0708(4) 0.2862(15) 0.9942(4)
C3_5 C 0.0301(5) 0.1837(15) 0.9961(5)
H2_5 H 0.0318 0.1182 0.9694
C4_5 C 0.1159(4) 0.2039(14) 0.9947(5)
H4_5 H 0.1121 0.1260 0.9723
C5_5 C 0.1587(5) 0.2892(15) 0.9815(4)
C6_5 C 0.3176(5) 0.6033(13) 0.9466(5)
C7_5 C 0.2745(5) 0.5944(13) 0.9115(4)
C8_5 C 0.2672(6) 0.7372(14) 0.8863(5)
H5_5 H 0.2411 0.7297 0.8630
H6_5 H 0.2946 0.7596 0.8688
C9_5 C 0.2843(5) 0.4837(14) 0.8731(5)
H7_5 H 0.3122 0.5107 0.8570
H8_5 H 0.2587 0.4834 0.8491
C10_5 C 0.2907(4) 0.3361(14) 0.8928(5)
C17_5 C 0.2578(5) 0.8567(14) 0.9212(4)
C16_5 C 0.9830(4) 0.2501(12) 0.9937(4)
O22_5 O 0.9826(5) 0.6465(16) 0.8937(5)
H13_5 H 0.977622 0.636071 0.928712
H14_5 H 0.95592 0.697779 0.878054
C16_6 C 0.0170(4) 0.2501(12) 0.5063(4)
O22_6 O 0.0174(5) 0.6465(16) 0.6063(5)
H13_6 H 0.0223785 0.636071 0.571288
H14_6 H 0.0440799 0.697779 0.621946
O1_6 O 0.9284(3) 0.5033(11) 0.5517(3)
O2_6 O 0.9351(3) 0.2997(11) 0.5926(3)
O3_6 O 0.9292(3) 0.3795(9) 0.4668(3)
O4_6 O 0.8395(3) 0.4189(8) 0.5078(3)
O6_6 O 0.6872(3) 0.5658(9) 0.5096(3)
O7_6 O 0.6460(3) 0.6530(11) 0.5683(3)
O8_6 O 0.7663(3) 0.5583(9) 0.5651(3)
O9_6 O 0.7108(3) 0.3065(9) 0.5651(3)
O10_6 O 0.6986(4) 0.2456(10) 0.6401(3)
O12_6 O 0.8775(6) 0.7852(18) 0.2776(7)
O14_6 O 0.8419(3) 0.4783(9) 0.3968(3)
C1_6 C 0.9324(4) 0.3682(16) 0.5539(5)
C2_6 C 0.9292(4) 0.2862(15) 0.5058(4)
C3_6 C 0.9699(5) 0.1837(15) 0.5039(5)
H1_6 H 0.9665 0.1299 0.4743
H2_6 H 0.9682 0.1182 0.5306
C4_6 C 0.8841(4) 0.2039(14) 0.5053(5)
H3_6 H 0.8784 0.1646 0.4733
H4_6 H 0.8879 0.1260 0.5277
C5_6 C 0.8413(5) 0.2892(15) 0.5185(4)
C6_6 C 0.6824(5) 0.6033(13) 0.5534(5)
C7_6 C 0.7255(5) 0.5944(13) 0.5885(4)
C8_6 C 0.7328(6) 0.7372(14) 0.6137(5)
H5_6 H 0.7589 0.7297 0.6370
H6_6 H 0.7054 0.7596 0.6312
C9_6 C 0.7157(5) 0.4837(14) 0.6269(5)
H7_6 H 0.6878 0.5107 0.6430
H8_6 H 0.7413 0.4834 0.6509
C10_6 C 0.7093(4) 0.3361(14) 0.6072(5)
C11_6 C 0.9094(7) 0.713(2) 0.2920(7)
C12_6 C 0.9077(5) 0.5562(16) 0.2871(5)
C13_6 C 0.8969(6) 0.516(3) 0.2360(6)
H9_6 H 0.8902 0.4159 0.2341
H10_6 H 0.8697 0.5666 0.2237
C14_6 C 0.8670(5) 0.4964(17) 0.3178(4)
H11_6 H 0.8642 0.3962 0.3119
H12_6 H 0.8380 0.5398 0.3063
C15_6 C 0.8728(4) 0.5197(14) 0.3713(5)
C17_6 C 0.7422(5) 0.8567(14) 0.5788(4)
C18_6 C 0.9396(7) 0.551(4) 0.2040(6)
O12_7 O 0.6225(6) 0.2852(18) 0.2224(7)
C11_7 C 0.5906(7) 0.213(2) 0.2080(7)
C12_7 C 0.5923(5) 0.0562(16) 0.2129(5)
C13_7 C 0.6031(6) 0.016(3) 0.2640(6)
H10_7 H 0.6303 0.0666 0.2763
H12_7 H 0.6620 0.0398 0.1937
C15_7 C 0.6272(4) 0.0197(14) 0.1287(5)
C18_7 C 0.5604(7) 0.051(4) 0.2960(6)
O1_7 O 0.5716(3) 0.0033(11) 0.9483(3)
O6_7 O 0.8128(3) 0.0658(9) 0.9904(3)
O7_7 O 0.8540(3) 0.1530(11) 0.9317(3)
O8_7 O 0.7337(3) 0.0583(9) 0.9349(3)
C6_7 C 0.8176(5) 0.1033(13) 0.9466(5)
C7_7 C 0.7745(5) 0.0944(13) 0.9115(4)
C8_7 C 0.7672(6) 0.2372(14) 0.8863(5)
H5_7 H 0.7411 0.2297 0.8630
H6_7 H 0.7946 0.2596 0.8688
H7_7 H 0.8122 0.0107 0.8570
C17_7 C 0.7578(5) 0.3567(14) 0.9212(4)
O22_7 O 0.4826(5) 0.1465(16) 0.8937(5)
H13_7 H 0.477622 0.136071 0.928712
H14_7 H 0.45592 0.197779 0.878054
O3_7 O 0.5708(3) 0.8795(9) 0.0332(3)
O14_7 O 0.6581(3) 0.9783(9) 0.1032(3)
H1_7 H 0.5335 0.6299 0.0257
H3_7 H 0.6216 0.6646 0.0267
H9_7 H 0.6098 0.9159 0.2659
C14_7 C 0.6330(5) 0.9964(17) 0.1822(4)
H11_7 H 0.6358 0.8962 0.1881
O2_7 O 0.5649(3) 0.7997(11) 0.9074(3)
O4_7 O 0.6605(3) 0.9189(8) 0.9922(3)
O9_7 O 0.7892(3) 0.8065(9) 0.9349(3)
O10_7 O 0.8014(4) 0.7456(10) 0.8599(3)
C1_7 C 0.5676(4) 0.8682(16) 0.9461(5)
C2_7 C 0.5708(4) 0.7862(15) 0.9942(4)
C3_7 C 0.5301(5) 0.6837(15) 0.9961(5)
H2_7 H 0.5318 0.6182 0.9694
C4_7 C 0.6159(4) 0.7039(14) 0.9947(5)
H4_7 H 0.6121 0.6260 0.9723
C5_7 C 0.6587(5) 0.7892(15) 0.9815(4)
C9_7 C 0.7843(5) 0.9837(14) 0.8731(5)
H8_7 H 0.7587 0.9834 0.8491
C10_7 C 0.7907(4) 0.8361(14) 0.8928(5)
C16_7 C 0.4830(4) 0.7501(12) 0.9937(4)
O1_8 O 0.4284(3) 0.0033(11) 0.5517(3)
O6_8 O 0.1872(3) 0.0658(9) 0.5096(3)
O7_8 O 0.1460(3) 0.1530(11) 0.5683(3)
O8_8 O 0.2663(3) 0.0583(9) 0.5651(3)
O12_8 O 0.3775(6) 0.2852(18) 0.2776(7)
C6_8 C 0.1824(5) 0.1033(13) 0.5534(5)
C7_8 C 0.2255(5) 0.0944(13) 0.5885(4)
C8_8 C 0.2328(6) 0.2372(14) 0.6137(5)
H5_8 H 0.2589 0.2297 0.6370
H6_8 H 0.2054 0.2596 0.6312
H7_8 H 0.1878 0.0107 0.6430
C11_8 C 0.4094(7) 0.213(2) 0.2920(7)
C12_8 C 0.4077(5) 0.0562(16) 0.2871(5)
C13_8 C 0.3969(6) 0.016(3) 0.2360(6)
H10_8 H 0.3697 0.0666 0.2237
H12_8 H 0.3380 0.0398 0.3063
C15_8 C 0.3728(4) 0.0197(14) 0.3713(5)
C17_8 C 0.2422(5) 0.3567(14) 0.5788(4)
C18_8 C 0.4396(7) 0.051(4) 0.2040(6)
O22_8 O 0.5174(5) 0.1465(16) 0.6063(5)
H13_8 H 0.522378 0.136071 0.571288
H14_8 H 0.54408 0.197779 0.621946
O2_8 O 0.4351(3) 0.7997(11) 0.5926(3)
O3_8 O 0.4292(3) 0.8795(9) 0.4668(3)
O4_8 O 0.3395(3) 0.9189(8) 0.5078(3)
O9_8 O 0.2108(3) 0.8065(9) 0.5651(3)
O10_8 O 0.1986(4) 0.7456(10) 0.6401(3)
O14_8 O 0.3419(3) 0.9783(9) 0.3968(3)
C1_8 C 0.4324(4) 0.8682(16) 0.5539(5)
C2_8 C 0.4292(4) 0.7862(15) 0.5058(4)
C3_8 C 0.4699(5) 0.6837(15) 0.5039(5)
H1_8 H 0.4665 0.6299 0.4743
H2_8 H 0.4682 0.6182 0.5306
C4_8 C 0.3841(4) 0.7039(14) 0.5053(5)
H3_8 H 0.3784 0.6646 0.4733
H4_8 H 0.3879 0.6260 0.5277
C5_8 C 0.3413(5) 0.7892(15) 0.5185(4)
C9_8 C 0.2157(5) 0.9837(14) 0.6269(5)
H8_8 H 0.2413 0.9834 0.6509
C10_8 C 0.2093(4) 0.8361(14) 0.6072(5)
H9_8 H 0.3902 0.9159 0.2341
C14_8 C 0.3670(5) 0.9964(17) 0.3178(4)
H11_8 H 0.3642 0.8962 0.3119
C16_8 C 0.5170(4) 0.7501(12) 0.5063(4)
loop_
_geom_bond_atom_site_label_1
_geom_bond_atom_site_label_2
_geom_bond_site_symmetry_1
_geom_bond_site_symmetry_2
O18 C16 1_555 1_555
O22 Bi3 1_555 1_555
O24 Bi3 1_555 1_555
O25 Bi3 1_555 1_555
O26 Bi3 1_555 1_555
O18 Bi4 1_555 1_555
Bi4 O26 1_555 1_555
O22 H13 1_555 1_555
O22 H14 1_555 1_555
O1 C1 1_555 1_555
O2 C1 1_555 1_555
O5 C5 1_555 1_555
O7 C6 1_555 1_555
O10 C10 1_555 1_555
O16 C17 1_555 1_555
O19 C17 1_555 1_555
C1 C2 1_555 1_555
C3 C2 1_555 1_555
H2 C3 1_555 1_555
C4 C2 1_555 1_555
H4 C4 1_555 1_555
C5 O4 1_555 1_555
C6 O6 1_555 1_555
C7 O8 1_555 1_555
C8 C7 1_555 1_555
H5 C8 1_555 1_555
H6 C8 1_555 1_555
C9 C7 1_555 1_555
H7 C9 1_555 1_555
H8 C9 1_555 1_555
C10 O9 1_555 1_555
C17 C8 1_555 1_555
Bi5 O5 1_555 1_555
C4 C5 1_555 1_555
C6 C7 1_555 1_555
C9 C10 1_555 1_555
O3 Bi1 1_555 1_555
O11 C11 1_555 1_555
O12 C11 1_555 1_555
O13 C12 1_555 1_555
O14 C15 1_555 1_555
O15 Bi1 1_555 1_555
O20 C18 1_555 1_555
O21 C18 1_555 1_555
C11 C12 1_555 1_555
C12 C13 1_555 1_555
C13 H9 1_555 1_555
H10 C13 1_555 1_555
C14 C12 1_555 1_555
H11 C14 1_555 1_555
H12 C14 1_555 1_555
C15 O15 1_555 1_555
C18 C13 1_555 1_555
Bi7 O11 1_555 1_555
O23 Bi2 1_555 1_555
O27 Bi2 1_555 1_555
O29 Bi1 1_555 1_555
O30 Bi2 1_555 1_555
O13 Bi7 1_555 1_555
O15 Bi7 1_555 1_555
C14 C15 1_555 1_555
Bi1_2 O1_2 1_555 1_555
Bi2_2 O4_2 1_555 1_555
O1_2 C1_2 1_555 1_555
O2_2 C1_2 1_555 1_555
O3_2 Bi1_2 1_555 1_555
O4_2 Bi1_2 1_555 1_555
O5_2 C5_2 1_555 1_555
O6_2 Bi2_2 1_555 1_555
O7_2 C6_2 1_555 1_555
O8_2 Bi2_2 1_555 1_555
O9_2 Bi2_2 1_555 1_555
O10_2 C10_2 1_555 1_555
O11_2 C11_2 1_555 1_555
O12_2 C11_2 1_555 1_555
O13_2 C12_2 1_555 1_555
O14_2 C15_2 1_555 1_555
O15_2 Bi1_2 1_555 1_555
O16_2 C17_2 1_555 1_555
O19_2 C17_2 1_555 1_555
O20_2 C18_2 1_555 1_555
O21_2 C18_2 1_555 1_555
C1_2 C2_2 1_555 1_555
C2_2 O3_2 1_555 1_555
C3_2 C2_2 1_555 1_555
H1_2 C3_2 1_555 1_555
H2_2 C3_2 1_555 1_555
C4_2 C2_2 1_555 1_555
H3_2 C4_2 1_555 1_555
H4_2 C4_2 1_555 1_555
C5_2 O4_2 1_555 1_555
C6_2 O6_2 1_555 1_555
C7_2 O8_2 1_555 1_555
C8_2 C7_2 1_555 1_555
H5_2 C8_2 1_555 1_555
H6_2 C8_2 1_555 1_555
C9_2 C7_2 1_555 1_555
H7_2 C9_2 1_555 1_555
H8_2 C9_2 1_555 1_555
C10_2 O9_2 1_555 1_555
C11_2 C12_2 1_555 1_555
C12_2 C13_2 1_555 1_555
C13_2 H9_2 1_555 1_555
H10_2 C13_2 1_555 1_555
C14_2 C12_2 1_555 1_555
H11_2 C14_2 1_555 1_555
H12_2 C14_2 1_555 1_555
C15_2 O15_2 1_555 1_555
C17_2 C8_2 1_555 1_555
C18_2 C13_2 1_555 1_555
Bi5_2 O5_2 1_555 1_555
Bi8 O11_2 1_555 1_555
O23_2 Bi2_2 1_555 1_555
O27_2 Bi2_2 1_555 1_555
O28_2 Bi1_2 1_555 1_555
O29_2 Bi1_2 1_555 1_555
O30_2 Bi2_2 1_555 1_555
O13_2 Bi8 1_555 1_555
O15_2 Bi8 1_555 1_555
C4_2 C5_2 1_555 1_555
C6_2 C7_2 1_555 1_555
C9_2 C10_2 1_555 1_555
C14_2 C15_2 1_555 1_555
O17_2 C16_2 1_555 1_555
O18_2 C16_2 1_555 1_555
O22_2 Bi3_2 1_555 1_555
Bi4_2 O17_2 1_555 1_555
O24_2 Bi3_2 1_555 1_555
O25_2 Bi3_2 1_555 1_555
O26_2 Bi3_2 1_555 1_555
O18_2 Bi4_2 1_555 1_555
Bi4_2 O26_2 1_555 1_555
O22_2 H13_2 1_555 1_555
O22_2 H14_2 1_555 1_555
Bi3_3 O2_3 1_555 1_555
O2_3 C1_3 1_555 1_555
O5_3 C5_3 1_555 1_555
O10_3 C10_3 1_555 1_555
O18_3 C16_3 1_555 1_555
C1_3 C2_3 1_555 1_555
C3_3 C2_3 1_555 1_555
H2_3 C3_3 1_555 1_555
C4_3 C2_3 1_555 1_555
H4_3 C4_3 1_555 1_555
C5_3 O4_3 1_555 1_555
H8_3 C9_3 1_555 1_555
C10_3 O9_3 1_555 1_555
C16_3 C3_3 1_555 1_555
Bi5_3 O5_3 1_555 1_555
O24_3 Bi3_3 1_555 1_555
O26_3 Bi3_3 1_555 1_555
O32_3 Bi3_3 1_555 1_555
O18_3 Bi4_3 1_555 1_555
C4_3 C5_3 1_555 1_555
C9_3 C10_3 1_555 1_555
Bi4_3 O26_3 1_555 1_555
H11_3 C14_3 1_555 1_555
O23_3 Bi2_3 1_555 1_555
O7_3 C6_3 1_555 1_555
O16_3 C17_3 1_555 1_555
O19_3 C17_3 1_555 1_555
C6_3 O6_3 1_555 1_555
C7_3 O8_3 1_555 1_555
C8_3 C7_3 1_555 1_555
H5_3 C8_3 1_555 1_555
H6_3 C8_3 1_555 1_555
C17_3 C8_3 1_555 1_555
Bi5_3 O16_3 1_555 1_555
O19_3 Bi5_3 1_555 1_555
C6_3 C7_3 1_555 1_555
O22_3 H13_3 1_555 1_555
O22_3 H14_3 1_555 1_555
O11_3 C11_3 1_555 1_555
O12_3 C11_3 1_555 1_555
O15_3 Bi1_3 1_555 1_555
O21_3 C18_3 1_555 1_555
C11_3 C12_3 1_555 1_555
C12_3 C13_3 1_555 1_555
H10_3 C13_3 1_555 1_555
C15_3 O15_3 1_555 1_555
C18_3 C13_3 1_555 1_555
Bi7_2 O11_3 1_555 1_555
O29_3 Bi1_3 1_555 1_555
O15_3 Bi7_2 1_555 1_555
O21_3 Bi8_2 1_555 1_555
Bi2_4 O4_4 1_555 1_555
Bi3_4 O2_4 1_555 1_555
O2_4 C1_4 1_555 1_555
O5_4 C5_4 1_555 1_555
O9_4 Bi2_4 1_555 1_555
O10_4 C10_4 1_555 1_555
O17_4 C16_4 1_555 1_555
O18_4 C16_4 1_555 1_555
C1_4 C2_4 1_555 1_555
C2_4 O3_4 1_555 1_555
C3_4 C2_4 1_555 1_555
H1_4 C3_4 1_555 1_555
H2_4 C3_4 1_555 1_555
C4_4 C2_4 1_555 1_555
H3_4 C4_4 1_555 1_555
H4_4 C4_4 1_555 1_555
C5_4 O4_4 1_555 1_555
H8_4 C9_4 1_555 1_555
C10_4 O9_4 1_555 1_555
H11_4 C14_4 1_555 1_555
C16_4 C3_4 1_555 1_555
Bi4_4 O17_4 1_555 1_555
Bi5_4 O5_4 1_555 1_555
O23_4 Bi2_4 1_555 1_555
O24_4 Bi3_4 1_555 1_555
O26_4 Bi3_4 1_555 1_555
O32_4 Bi3_4 1_555 1_555
O18_4 Bi4_4 1_555 1_555
C4_4 C5_4 1_555 1_555
C9_4 C10_4 1_555 1_555
Bi4_4 O26_4 1_555 1_555
Bi1_4 O1_4 1_555 1_555
O7_4 C6_4 1_555 1_555
O11_4 C11_4 1_555 1_555
O12_4 C11_4 1_555 1_555
O15_4 Bi1_4 1_555 1_555
O16_4 C17_4 1_555 1_555
O19_4 C17_4 1_555 1_555
O21_4 C18_4 1_555 1_555
C6_4 O6_4 1_555 1_555
C7_4 O8_4 1_555 1_555
C8_4 C7_4 1_555 1_555
H5_4 C8_4 1_555 1_555
H6_4 C8_4 1_555 1_555
C11_4 C12_4 1_555 1_555
C12_4 C13_4 1_555 1_555
H10_4 C13_4 1_555 1_555
C15_4 O15_4 1_555 1_555
C17_4 C8_4 1_555 1_555
C18_4 C13_4 1_555 1_555
Bi5_4 O16_4 1_555 1_555
Bi8_2 O11_4 1_555 1_555
O28_4 Bi1_4 1_555 1_555
O29_4 Bi1_4 1_555 1_555
O15_4 Bi8_2 1_555 1_555
O19_4 Bi5_4 1_555 1_555
O21_4 Bi7_2 1_555 1_555
C6_4 C7_4 1_555 1_555
O22_4 H13_4 1_555 1_555
O22_4 H14_4 1_555 1_555
O3_5 Bi4 1_555 1_555
O24 C11_5 1_555 1_555
O12_5 C11_5 1_555 1_555
O25 C12_5 1_555 1_555
O14_5 C15_5 1_555 1_555
O31_2 C18_5 1_555 1_555
O32_2 C18_5 1_555 1_555
C11_5 C12_5 1_555 1_555
C12_5 C13_5 1_555 1_555
C13_5 H9_5 1_555 1_555
H10_5 C13_5 1_555 1_555
C14_5 C12_5 1_555 1_555
H11_5 C14_5 1_555 1_555
H12_5 C14_5 1_555 1_555
C15_5 O26 1_555 1_555
C18_5 C13_5 1_555 1_555
C14_5 C15_5 1_555 1_555
O1_5 C1_5 1_555 1_555
O2_5 C1_5 1_555 1_555
O23_3 C5_5 1_555 1_555
O7_5 C6_5 1_555 1_555
O10_5 C10_5 1_555 1_555
O27_3 C17_5 1_555 1_555
O30_3 C17_5 1_555 1_555
C1_5 C2_5 1_555 1_555
C3_5 C2_5 1_555 1_555
H2_5 C3_5 1_555 1_555
C4_5 C2_5 1_555 1_555
H4_5 C4_5 1_555 1_555
C5_5 O4_5 1_555 1_555
C6_5 O6_5 1_555 1_555
C7_5 O8_5 1_555 1_555
C8_5 C7_5 1_555 1_555
H5_5 C8_5 1_555 1_555
H6_5 C8_5 1_555 1_555
C9_5 C7_5 1_555 1_555
H7_5 C9_5 1_555 1_555
H8_5 C9_5 1_555 1_555
C10_5 O9_5 1_555 1_555
C17_5 C8_5 1_555 1_555
C4_5 C5_5 1_555 1_555
C6_5 C7_5 1_555 1_555
C9_5 C10_5 1_555 1_555
O29 C16_5 1_555 1_555
O22_5 Bi7 1_555 1_555
O22_5 H13_5 1_555 1_555
O22_5 H14_5 1_555 1_555
O28_2 C16_6 1_555 1_555
O29_2 C16_6 1_555 1_555
O22_6 Bi8 1_555 1_555
O22_6 H13_6 1_555 1_555
O22_6 H14_6 1_555 1_555
Bi4_2 O1_6 1_555 1_555
Bi5_4 O4_6 1_555 1_555
O1_6 C1_6 1_555 1_555
O2_6 C1_6 1_555 1_555
O3_6 Bi4_2 1_555 1_555
O4_6 Bi4_2 1_555 1_555
O23_4 C5_6 1_555 1_555
O6_6 Bi5_4 1_555 1_555
O7_6 C6_6 1_555 1_555
O8_6 Bi5_4 1_555 1_555
O9_6 Bi5_4 1_555 1_555
O10_6 C10_6 1_555 1_555
O24_2 C11_6 1_555 1_555
O12_6 C11_6 1_555 1_555
O25_2 C12_6 1_555 1_555
O14_6 C15_6 1_555 1_555
O27_4 C17_6 1_555 1_555
O30_4 C17_6 1_555 1_555
O31 C18_6 1_555 1_555
O32 C18_6 1_555 1_555
C1_6 C2_6 1_555 1_555
C2_6 O3_6 1_555 1_555
C3_6 C2_6 1_555 1_555
H1_6 C3_6 1_555 1_555
H2_6 C3_6 1_555 1_555
C4_6 C2_6 1_555 1_555
H3_6 C4_6 1_555 1_555
H4_6 C4_6 1_555 1_555
C5_6 O4_6 1_555 1_555
C6_6 O6_6 1_555 1_555
C7_6 O8_6 1_555 1_555
C8_6 C7_6 1_555 1_555
H5_6 C8_6 1_555 1_555
H6_6 C8_6 1_555 1_555
C9_6 C7_6 1_555 1_555
H7_6 C9_6 1_555 1_555
H8_6 C9_6 1_555 1_555
C10_6 O9_6 1_555 1_555
C11_6 C12_6 1_555 1_555
C12_6 C13_6 1_555 1_555
C13_6 H9_6 1_555 1_555
H10_6 C13_6 1_555 1_555
C14_6 C12_6 1_555 1_555
H11_6 C14_6 1_555 1_555
H12_6 C14_6 1_555 1_555
C15_6 O26_2 1_555 1_555
C17_6 C8_6 1_555 1_555
C18_6 C13_6 1_555 1_555
C4_6 C5_6 1_555 1_555
C6_6 C7_6 1_555 1_555
C9_6 C10_6 1_555 1_555
C14_6 C15_6 1_555 1_555
O24_3 C11_7 1_555 1_555
O12_7 C11_7 1_555 1_555
O32_4 C18_7 1_555 1_555
C11_7 C12_7 1_555 1_555
C12_7 C13_7 1_555 1_555
H10_7 C13_7 1_555 1_555
C15_7 O26_3 1_555 1_555
C18_7 C13_7 1_555 1_555
O7_7 C6_7 1_555 1_555
O27 C17_7 1_555 1_555
O30 C17_7 1_555 1_555
C6_7 O6_7 1_555 1_555
C7_7 O8_7 1_555 1_555
C8_7 C7_7 1_555 1_555
H5_7 C8_7 1_555 1_555
H6_7 C8_7 1_555 1_555
C17_7 C8_7 1_555 1_555
C6_7 C7_7 1_555 1_555
O22_7 H13_7 1_555 1_555
O22_7 H14_7 1_555 1_555
H11_7 C14_7 1_555 1_555
Bi7_2 O2_7 1_555 1_555
O2_7 C1_7 1_555 1_555
O23 C5_7 1_555 1_555
O10_7 C10_7 1_555 1_555
O29_3 C16_7 1_555 1_555
C1_7 C2_7 1_555 1_555
C3_7 C2_7 1_555 1_555
H2_7 C3_7 1_555 1_555
C4_7 C2_7 1_555 1_555
H4_7 C4_7 1_555 1_555
C5_7 O4_7 1_555 1_555
H8_7 C9_7 1_555 1_555
C10_7 O9_7 1_555 1_555
C16_7 C3_7 1_555 1_555
C4_7 C5_7 1_555 1_555
C9_7 C10_7 1_555 1_555
Bi4_4 O1_8 1_555 1_555
O7_8 C6_8 1_555 1_555
O24_4 C11_8 1_555 1_555
O12_8 C11_8 1_555 1_555
O27_2 C17_8 1_555 1_555
O30_2 C17_8 1_555 1_555
O32_3 C18_8 1_555 1_555
C6_8 O6_8 1_555 1_555
C7_8 O8_8 1_555 1_555
C8_8 C7_8 1_555 1_555
H5_8 C8_8 1_555 1_555
H6_8 C8_8 1_555 1_555
C11_8 C12_8 1_555 1_555
C12_8 C13_8 1_555 1_555
H10_8 C13_8 1_555 1_555
C15_8 O26_4 1_555 1_555
C17_8 C8_8 1_555 1_555
C18_8 C13_8 1_555 1_555
C6_8 C7_8 1_555 1_555
O22_8 H13_8 1_555 1_555
O22_8 H14_8 1_555 1_555
Bi5_2 O4_8 1_555 1_555
Bi8_2 O2_8 1_555 1_555
O2_8 C1_8 1_555 1_555
O23_2 C5_8 1_555 1_555
O9_8 Bi5_2 1_555 1_555
O10_8 C10_8 1_555 1_555
O28_4 C16_8 1_555 1_555
O29_4 C16_8 1_555 1_555
C1_8 C2_8 1_555 1_555
C2_8 O3_8 1_555 1_555
C3_8 C2_8 1_555 1_555
H1_8 C3_8 1_555 1_555
H2_8 C3_8 1_555 1_555
C4_8 C2_8 1_555 1_555
H3_8 C4_8 1_555 1_555
H4_8 C4_8 1_555 1_555
C5_8 O4_8 1_555 1_555
H8_8 C9_8 1_555 1_555
C10_8 O9_8 1_555 1_555
H11_8 C14_8 1_555 1_555
C16_8 C3_8 1_555 1_555
C4_8 C5_8 1_555 1_555
C9_8 C10_8 1_555 1_555

#END
