
###############################################################################
#
# This file contains modified crystal structure data generated from the
# MOF subset of the Cambridge Structural Database (CSD) v543 
# hosted by the Cambridge Crystallographic Data Centre (CCDC).
#
# This work is licensed under the Creative Commons
# Attribution-NonCommercial-ShareAlike 4.0 International License.
# To view a copy of this license, visit
# http://creativecommons.org/licenses/by-nc-sa/4.0/
# or send a letter to
# Creative Commons, PO Box 1866, Mountain View, CA 94042, USA.
#
# CIF created using the CSD Python API on 29 September 2022
# The structure has been converted into the P1 space group
# The structure has a 3D framework
# The original CSD entry UKUBAE is in the triclinic crystal system
# The framework has been calculated to contain at least 10.0% void space
# The void calculation uses a probe of radius 1.32A, grid spacing 0.4
# H atom positions have been added when not included in the experimental data
#
###############################################################################

data_UKUBAE
_chemical_formula_moiety         '(C80 H76 Bi10 N4 O74)n'
_symmetry_cell_setting           triclinic
_symmetry_space_group_name_H-M   'P 1'
_symmetry_Int_Tables_number      1
_space_group_name_Hall           'P 1'
loop_
_symmetry_equiv_pos_site_id
_symmetry_equiv_pos_as_xyz
1 x,y,z
_cell_length_a                   14.2891(13)
_cell_length_b                   14.879(4)
_cell_length_c                   16.463(3)
_cell_angle_alpha                84.678(18)
_cell_angle_beta                 83.086(12)
_cell_angle_gamma                80.980(14)
_cell_volume                     3421.98
loop_
_atom_site_label
_atom_site_type_symbol
_atom_site_fract_x
_atom_site_fract_y
_atom_site_fract_z
Bi5 Bi 0.20976(2) 0.00983(2) 0.445989(19)
O1 O 0.0642(5) 0.0972(4) 0.4499(4)
O2 O 0.1373(5) 0.1306(4) 0.5514(4)
C1 C 0.0667(7) 0.1426(6) 0.5126(6)
O42 O 0.3036(5) 0.1509(4) 0.4159(4)
O50 O 0.1790(5) 0.0518(4) 0.3074(4)
Bi1 Bi 0.51365(2) 0.18018(2) 0.570118(18)
O3 O 0.8807(5) 0.2080(5) 0.3883(4)
O4 O 0.8617(5) 0.0675(4) 0.4410(4)
O5 O 0.6382(5) 0.2971(4) 0.5351(4)
O6 O 0.6891(5) 0.1505(4) 0.5530(4)
O7 O 0.8788(5) 0.1007(4) 0.5913(4)
O8 O 0.4339(5) 0.3226(4) 0.4925(4)
O9 O 0.4160(8) 0.4223(5) 0.3836(5)
O10 O 0.3788(5) 0.1436(4) 0.5278(4)
O14 O 0.5477(4) 0.1583(4) 0.4419(3)
O29 O 0.4745(5) 0.0709(4) 0.1446(4)
O30 O 0.3791(5) 0.2009(4) 0.1223(4)
C2 C 0.9803(7) 0.2116(6) 0.5347(6)
H1 H 0.9833 0.2296 0.5893
H2 H 0.9826 0.2654 0.4969
C3 C 0.8855(6) 0.1782(6) 0.5328(5)
C4 C 0.8026(6) 0.2566(6) 0.5504(6)
H3 H 0.8123 0.3081 0.5113
H4 H 0.8054 0.2757 0.6047
C5 C 0.7041(8) 0.2340(6) 0.5460(5)
C6 C 0.8761(7) 0.1495(6) 0.4462(5)
C7 C 0.4338(8) 0.3395(6) 0.4178(6)
C8 C 0.4524(7) 0.2691(6) 0.3545(5)
H5 H 0.5077 0.2802 0.3169
H6 H 0.3982 0.2756 0.3231
C9 C 0.4697(6) 0.1701(6) 0.3949(6)
C10 C 0.4897(7) 0.1045(6) 0.3272(6)
H7 H 0.4407 0.1209 0.2903
H8 H 0.5500 0.1136 0.2960
C11 C 0.4941(6) 0.0040(6) 0.3542(5)
C12 C 0.3751(6) 0.1528(6) 0.4503(5)
C25 C 0.2508(7) 0.0361(6) 0.2543(5)
C26 C 0.2331(7) 0.0745(6) 0.1666(5)
H17 H 0.1842 0.0447 0.1489
H18 H 0.2086 0.1390 0.1677
C27 C 0.3203(7) 0.0632(6) 0.1032(5)
C28 C 0.2901(7) 0.1012(6) 0.0193(6)
H19 H 0.2373 0.0721 0.0080
H20 H 0.2676 0.1661 0.0210
C30 C 0.3967(7) 0.1172(6) 0.1245(5)
O43 O 0.5519(4) 0.0202(4) 0.5790(3)
O44 O 0.4568(5) 0.0529(4) 0.6916(4)
O34 O 0.3571(5) 0.0566(5) 0.8855(4)
O35 O 0.4506(5) 0.1085(4) 0.9614(4)
C29 C 0.3683(6) 0.0870(5) 0.9512(5)
Bi9 Bi 0.52780(2) 0.08002(2) 0.831437(18)
Bi2 Bi 0.47765(2) 0.30572(2) 0.978428(19)
O25 O 0.0791(5) 0.2417(5) 0.9737(5)
O26 O 0.3118(5) 0.3359(4) 0.9534(4)
O27 O 0.3762(5) 0.2636(4) 0.8444(4)
O28 O 0.1456(5) 0.4601(5) 0.9132(4)
C20 C 0.0407(8) 0.3859(8) 0.8448(7)
H13 H 0.0582 0.4160 0.7916
H14 H 0.0266 0.3261 0.8360
C21 C 0.1254(7) 0.3744(7) 0.8957(6)
C22 C 0.2132(7) 0.3258(7) 0.8460(6)
H15 H 0.1975 0.2683 0.8324
H16 H 0.2235 0.3624 0.7947
C23 C 0.3071(7) 0.3055(5) 0.8825(6)
C24 C 0.1040(7) 0.3184(7) 0.9772(6)
O36 O 0.3156(5) 0.5447(5) 0.9168(4)
O45 O 0.6230(5) 0.3575(4) 0.9712(4)
O46 O 0.5837(5) 0.2306(4) 0.8599(4)
O47 O 0.4771(4) 0.4139(4) 0.8857(4)
H31 H 0.382795 0.537981 0.92912
H32 H 0.313024 0.516396 0.864964
O22 O 0.9234(5) 0.4202(5) 0.9604(4)
O23 O 0.9066(5) 0.5034(5) 0.8445(4)
C19 C 0.9526(7) 0.4406(7) 0.8854(6)
Bi8 Bi 0.79031(2) 0.54065(2) 0.956873(19)
O15 O 0.5858(4) 0.5786(4) 0.9426(4)
O16 O 0.4783(5) 0.6610(4) 0.8704(4)
O17 O 0.7275(5) 0.4181(4) 0.8812(4)
O20 O 0.6024(5) 0.2193(4) 0.7257(4)
O24 O 0.8861(5) 0.6484(5) 0.9563(4)
O31 O 0.6439(5) 0.0318(4) 0.9018(4)
O32 O 0.6708(5) 0.0070(4) 0.7293(4)
C13 C 0.5395(7) 0.5944(6) 0.8783(5)
C14 C 0.5652(7) 0.5270(5) 0.8126(5)
H9 H 0.5196 0.5417 0.7725
H10 H 0.6274 0.5351 0.7846
C15 C 0.5675(6) 0.4262(6) 0.8436(5)
C16 C 0.5917(7) 0.3693(6) 0.7688(6)
H11 H 0.6542 0.3793 0.7428
H12 H 0.5462 0.3921 0.7297
C17 C 0.5918(6) 0.2671(6) 0.7852(5)
C18 C 0.6448(7) 0.3989(5) 0.9024(5)
O38 O 0.7456(5) 0.6472(5) 0.8409(4)
H35 H 0.781675 0.625101 0.789399
H36 H 0.760779 0.708404 0.849064
O37 O 0.6906(5) 0.0118(4) 0.4206(4)
H33 H 0.728203 0.0401542 0.373139
H34 H 0.62898 0.0517986 0.432994
O37_2 O 0.3094(5) 0.9882(4) 0.5794(4)
O39 O 0.1383(5) 0.9325(4) 0.5590(4)
O40 O 0.3109(5) 0.8495(4) 0.4470(4)
O41 O 0.1212(5) 0.8993(4) 0.4087(4)
H33_2 H 0.271797 0.959846 0.626861
H34_2 H 0.37102 0.948201 0.567006
Bi3 Bi 0.20969(2) 0.45935(2) 0.043127(19)
Bi4 Bi 0.47220(2) 0.91998(2) 0.168563(18)
O12 O 0.4481(4) 0.9798(4) 0.4210(3)
O13 O 0.5432(5) 0.9471(4) 0.3084(4)
O15_2 O 0.4142(4) 0.4214(4) 0.0574(4)
O16_2 O 0.5217(5) 0.3390(4) 0.1296(4)
O17_2 O 0.2725(5) 0.5819(4) 0.1188(4)
O18 O 0.3770(5) 0.6425(4) 0.0288(4)
O19 O 0.4163(5) 0.7694(4) 0.1401(4)
O20_2 O 0.3976(5) 0.7807(4) 0.2743(4)
O21 O 0.5229(4) 0.5861(4) 0.1143(4)
O24_2 O 0.1139(5) 0.3516(5) 0.0437(4)
O31_2 O 0.3561(5) 0.9682(4) 0.0982(4)
O32_2 O 0.3292(5) 0.9930(4) 0.2707(4)
C13_2 C 0.4605(7) 0.4056(6) 0.1217(5)
C14_2 C 0.4348(7) 0.4730(5) 0.1874(5)
H9_2 H 0.4804 0.4583 0.2275
H10_2 H 0.3726 0.4649 0.2154
C15_2 C 0.4325(6) 0.5738(6) 0.1564(5)
C16_2 C 0.4083(7) 0.6307(6) 0.2312(6)
H11_2 H 0.3458 0.6207 0.2572
H12_2 H 0.4538 0.6079 0.2703
C17_2 C 0.4082(6) 0.7329(6) 0.2148(5)
C18_2 C 0.3552(7) 0.6011(5) 0.0976(5)
O38_2 O 0.2544(5) 0.3528(5) 0.1591(4)
Bi6 Bi 0.48635(2) 0.81982(2) 0.429882(18)
Bi7 Bi 0.52235(2) 0.69428(2) 0.021572(19)
Bi10 Bi 0.79024(2) 0.99017(2) 0.554011(19)
O48 O 0.0766(5) 0.5798(5) 0.0396(4)
O49 O 0.0934(5) 0.4966(5) 0.1555(4)
O51 O 0.6429(5) 0.9434(5) 0.1145(4)
O52 O 0.5494(5) 0.8915(4) 0.0386(4)
H35_2 H 0.218325 0.374899 0.210601
H36_2 H 0.239221 0.291596 0.150936
C19_2 C 0.0474(7) 0.5594(7) 0.1146(6)
O25_2 O 0.9209(5) 0.7583(5) 0.0263(5)
O26_2 O 0.6882(5) 0.6641(4) 0.0466(4)
O27_2 O 0.6238(5) 0.7364(4) 0.1556(4)
O28_2 O 0.8544(5) 0.5399(5) 0.0868(4)
C20_2 C 0.9593(8) 0.6141(8) 0.1552(7)
H13_2 H 0.9418 0.5840 0.2084
H14_2 H 0.9734 0.6739 0.1640
C21_2 C 0.8746(7) 0.6256(7) 0.1043(6)
C22_2 C 0.7868(7) 0.6742(7) 0.1540(6)
H15_2 H 0.8025 0.7317 0.1676
H16_2 H 0.7765 0.6376 0.2053
C23_2 C 0.6929(7) 0.6945(5) 0.1175(6)
C24_2 C 0.8960(7) 0.6816(7) 0.0228(6)
O36_2 O 0.6844(5) 0.4553(5) 0.0832(4)
H31_2 H 0.617205 0.462019 0.0708804
H32_2 H 0.686976 0.483604 0.135036
C29_2 C 0.6317(6) 0.9130(5) 0.0488(5)
O3_2 O 0.1193(5) 0.7920(5) 0.6117(4)
O5_2 O 0.3618(5) 0.7029(4) 0.4649(4)
O8_2 O 0.5661(5) 0.6774(4) 0.5075(4)
O9_2 O 0.5840(8) 0.5777(5) 0.6164(5)
O10_2 O 0.6212(5) 0.8564(4) 0.4722(4)
O11 O 0.6964(5) 0.8491(4) 0.5841(4)
O14_2 O 0.4523(4) 0.8417(4) 0.5581(3)
O29_2 O 0.5255(5) 0.9291(4) 0.8554(4)
O30_2 O 0.6209(5) 0.7991(4) 0.8777(4)
O33 O 0.8210(5) 0.9482(4) 0.6926(4)
C2_2 C 0.0197(7) 0.7884(6) 0.4653(6)
H1_2 H 0.0167 0.7704 0.4107
H2_2 H 0.0174 0.7346 0.5031
C3_2 C 0.1145(6) 0.8218(6) 0.4672(5)
C4_2 C 0.1974(6) 0.7434(6) 0.4496(6)
H3_2 H 0.1877 0.6919 0.4887
H4_2 H 0.1946 0.7243 0.3953
C5_2 C 0.2959(8) 0.7660(6) 0.4540(5)
C6_2 C 0.1239(7) 0.8505(6) 0.5538(5)
C7_2 C 0.5662(8) 0.6605(6) 0.5822(6)
C8_2 C 0.5476(7) 0.7309(6) 0.6455(5)
H5_2 H 0.4923 0.7198 0.6831
H6_2 H 0.6018 0.7244 0.6769
C9_2 C 0.5303(6) 0.8299(6) 0.6051(6)
C10_2 C 0.5103(7) 0.8955(6) 0.6728(6)
H7_2 H 0.5593 0.8791 0.7097
H8_2 H 0.4500 0.8864 0.7040
C11_2 C 0.5059(6) 0.9960(6) 0.6458(5)
C12_2 C 0.6249(6) 0.8472(6) 0.5497(5)
C25_2 C 0.7492(7) 0.9639(6) 0.7457(5)
C26_2 C 0.7669(7) 0.9255(6) 0.8334(5)
H17_2 H 0.8158 0.9553 0.8511
H18_2 H 0.7914 0.8610 0.8323
C27_2 C 0.6797(7) 0.9368(6) 0.8968(5)
C28_2 C 0.7099(7) 0.8988(6) 0.9807(6)
H19_2 H 0.7627 0.9279 0.9920
H20_2 H 0.7324 0.8339 0.9790
C30_2 C 0.6033(7) 0.8828(6) 0.8755(5)
O1_2 O 0.9358(5) 0.9028(4) 0.5501(4)
O2_2 O 0.8627(5) 0.8694(4) 0.4486(4)
C1_2 C 0.9333(7) 0.8574(6) 0.4874(6)
N1 N 0.1607(7) 0.0180(6) 0.7068(5)
C31 C 0.2064(9) 0.0442(8) 0.7639(6)
H21 H 0.2727 0.0366 0.7581
C32 C 0.1556(9) 0.0825(9) 0.8318(7)
H22 H 0.1871 0.1008 0.8723
C33 C 0.0559(10) 0.0937(9) 0.8390(8)
H23 H 0.0206 0.1193 0.8847
C34 C 0.0113(10) 0.0673(10) 0.7795(8)
C35 C 0.0665(9) 0.0285(9) 0.7137(7)
H25 H 0.0366 0.0090 0.6728
H38 H 0.19857 0.989451 0.657035
H24 H 0.9451 0.0751 0.7828
H24_2 H 0.0549 0.9249 0.2172
H38_2 H 0.80143 0.0105487 0.342965
N1_2 N 0.8393(7) 0.9820(6) 0.2932(5)
C31_2 C 0.7936(9) 0.9558(8) 0.2361(6)
H21_2 H 0.7273 0.9634 0.2419
C32_2 C 0.8444(9) 0.9175(9) 0.1682(7)
H22_2 H 0.8129 0.8992 0.1277
C33_2 C 0.9441(10) 0.9063(9) 0.1610(8)
H23_2 H 0.9794 0.8807 0.1153
C34_2 C 0.9887(10) 0.9327(10) 0.2205(8)
C35_2 C 0.9335(9) 0.9715(9) 0.2863(7)
H25_2 H 0.9634 0.9910 0.3272
N2 N 0.2914(6) 0.8626(5) 0.0022(5)
C36 C 0.2172(9) 0.8260(8) 0.0406(7)
H26 H 0.1980 0.8354 0.0956
H27 H 0.1172 0.7487 0.0266
H37 H 0.325282 0.900852 0.0337659
C37 C 0.1689(9) 0.7744(8) 0.9999(8)
C38 C 0.1992(9) 0.7616(8) 0.9175(8)
H28 H 0.1676 0.7273 0.8883
C39 C 0.2774(9) 0.8007(7) 0.8790(7)
H29 H 0.2986 0.7930 0.8240
C40 C 0.3224(8) 0.8508(7) 0.9244(6)
H30 H 0.3752 0.8765 0.9001
C37_2 C 0.8311(9) 0.2256(8) 0.0001(8)
C38_2 C 0.8008(9) 0.2384(8) 0.0825(8)
H28_2 H 0.8324 0.2727 0.1117
C39_2 C 0.7226(9) 0.1993(7) 0.1210(7)
H29_2 H 0.7014 0.2070 0.1760
C40_2 C 0.6776(8) 0.1492(7) 0.0756(6)
H30_2 H 0.6248 0.1235 0.0999
N2_2 N 0.7086(6) 0.1374(5) 0.9978(5)
C36_2 C 0.7828(9) 0.1740(8) 0.9594(7)
H26_2 H 0.8020 0.1646 0.9044
H27_2 H 0.8828 0.2513 0.9734
H37_2 H 0.674718 0.0991482 0.966234
loop_
_geom_bond_atom_site_label_1
_geom_bond_atom_site_label_2
_geom_bond_site_symmetry_1
_geom_bond_site_symmetry_2
Bi5 O1 1_555 1_555
O1 C1 1_555 1_555
O2 Bi5 1_555 1_555
C1 O2 1_555 1_555
O42 Bi5 1_555 1_555
O50 Bi5 1_555 1_555
Bi1 O5 1_555 1_555
O3 C6 1_555 1_555
O4 C6 1_555 1_555
O5 C5 1_555 1_555
O6 Bi1 1_555 1_555
O7 C3 1_555 1_555
O8 Bi1 1_555 1_555
O9 C7 1_555 1_555
O10 Bi1 1_555 1_555
O42 C12 1_555 1_555
O14 Bi1 1_555 1_555
O30 C30 1_555 1_555
O50 C25 1_555 1_555
H1 C2 1_555 1_555
H2 C2 1_555 1_555
C3 C2 1_555 1_555
C4 C3 1_555 1_555
H3 C4 1_555 1_555
H4 C4 1_555 1_555
C5 O6 1_555 1_555
C6 C3 1_555 1_555
C7 O8 1_555 1_555
C8 C7 1_555 1_555
H5 C8 1_555 1_555
H6 C8 1_555 1_555
C9 O14 1_555 1_555
C10 C9 1_555 1_555
H7 C10 1_555 1_555
H8 C10 1_555 1_555
C11 C10 1_555 1_555
C12 O10 1_555 1_555
C26 C25 1_555 1_555
H17 C26 1_555 1_555
H18 C26 1_555 1_555
C28 C27 1_555 1_555
H19 C28 1_555 1_555
H20 C28 1_555 1_555
C30 O29 1_555 1_555
O43 Bi1 1_555 1_555
O44 Bi1 1_555 1_555
C4 C5 1_555 1_555
C8 C9 1_555 1_555
C9 C12 1_555 1_555
C26 C27 1_555 1_555
C27 C30 1_555 1_555
O34 C29 1_555 1_555
O35 C29 1_555 1_555
Bi9 O34 1_555 1_555
O35 Bi9 1_555 1_555
O25 C24 1_555 1_555
O26 Bi2 1_555 1_555
O27 C23 1_555 1_555
C20 H13 1_555 1_555
H14 C20 1_555 1_555
C21 O28 1_555 1_555
C22 C21 1_555 1_555
H15 C22 1_555 1_555
H16 C22 1_555 1_555
C23 O26 1_555 1_555
O45 Bi2 1_555 1_555
O46 Bi2 1_555 1_555
O47 Bi2 1_555 1_555
C20 C21 1_555 1_555
C21 C24 1_555 1_555
C22 C23 1_555 1_555
O36 H31 1_555 1_555
O36 H32 1_555 1_555
O22 C19 1_555 1_555
O23 C19 1_555 1_555
Bi8 O22 1_555 1_555
O23 Bi8 1_555 1_555
Bi8 O17 1_555 1_555
Bi9 O44 1_555 1_555
O15 C13 1_555 1_555
O17 C18 1_555 1_555
O45 C18 1_555 1_555
O46 Bi9 1_555 1_555
O20 C17 1_555 1_555
O47 C15 1_555 1_555
O24 Bi8 1_555 1_555
O31 Bi9 1_555 1_555
O32 Bi9 1_555 1_555
C13 O16 1_555 1_555
C14 C13 1_555 1_555
H9 C14 1_555 1_555
H10 C14 1_555 1_555
C15 C14 1_555 1_555
C16 C15 1_555 1_555
H11 C16 1_555 1_555
H12 C16 1_555 1_555
C17 O46 1_555 1_555
C18 C15 1_555 1_555
O38 Bi8 1_555 1_555
C16 C17 1_555 1_555
O38 H35 1_555 1_555
O38 H36 1_555 1_555
O37 H33 1_555 1_555
O37 H34 1_555 1_555
O37_2 H33_2 1_555 1_555
O37_2 H34_2 1_555 1_555
Bi3 O17_2 1_555 1_555
Bi4 O13 1_555 1_555
O15_2 C13_2 1_555 1_555
O17_2 C18_2 1_555 1_555
O18 C18_2 1_555 1_555
O19 Bi4 1_555 1_555
O20_2 C17_2 1_555 1_555
O21 C15_2 1_555 1_555
O24_2 Bi3 1_555 1_555
O31_2 Bi4 1_555 1_555
O32_2 Bi4 1_555 1_555
C13_2 O16_2 1_555 1_555
C14_2 C13_2 1_555 1_555
H9_2 C14_2 1_555 1_555
H10_2 C14_2 1_555 1_555
C15_2 C14_2 1_555 1_555
C16_2 C15_2 1_555 1_555
H11_2 C16_2 1_555 1_555
H12_2 C16_2 1_555 1_555
C17_2 O19 1_555 1_555
C18_2 C15_2 1_555 1_555
O38_2 Bi3 1_555 1_555
Bi6 O12 1_555 1_555
Bi7 O18 1_555 1_555
O48 Bi3 1_555 1_555
O49 Bi3 1_555 1_555
O51 Bi4 1_555 1_555
O52 Bi4 1_555 1_555
O13 Bi6 1_555 1_555
O19 Bi7 1_555 1_555
O21 Bi7 1_555 1_555
C16_2 C17_2 1_555 1_555
O38_2 H35_2 1_555 1_555
O38_2 H36_2 1_555 1_555
O48 C19_2 1_555 1_555
O49 C19_2 1_555 1_555
O25_2 C24_2 1_555 1_555
O26_2 Bi7 1_555 1_555
O27_2 C23_2 1_555 1_555
C20_2 H13_2 1_555 1_555
H14_2 C20_2 1_555 1_555
C21_2 O28_2 1_555 1_555
C22_2 C21_2 1_555 1_555
H15_2 C22_2 1_555 1_555
H16_2 C22_2 1_555 1_555
C23_2 O26_2 1_555 1_555
C20_2 C21_2 1_555 1_555
C21_2 C24_2 1_555 1_555
C22_2 C23_2 1_555 1_555
O36_2 H31_2 1_555 1_555
O36_2 H32_2 1_555 1_555
O51 C29_2 1_555 1_555
O52 C29_2 1_555 1_555
Bi6 O5_2 1_555 1_555
O3_2 C6_2 1_555 1_555
O39 C6_2 1_555 1_555
O5_2 C5_2 1_555 1_555
O40 Bi6 1_555 1_555
O41 C3_2 1_555 1_555
O8_2 Bi6 1_555 1_555
O9_2 C7_2 1_555 1_555
O10_2 Bi6 1_555 1_555
O11 C12_2 1_555 1_555
O14_2 Bi6 1_555 1_555
O30_2 C30_2 1_555 1_555
O33 C25_2 1_555 1_555
H1_2 C2_2 1_555 1_555
H2_2 C2_2 1_555 1_555
C3_2 C2_2 1_555 1_555
C4_2 C3_2 1_555 1_555
H3_2 C4_2 1_555 1_555
H4_2 C4_2 1_555 1_555
C5_2 O40 1_555 1_555
C6_2 C3_2 1_555 1_555
C7_2 O8_2 1_555 1_555
C8_2 C7_2 1_555 1_555
H5_2 C8_2 1_555 1_555
H6_2 C8_2 1_555 1_555
C9_2 O14_2 1_555 1_555
C10_2 C9_2 1_555 1_555
H7_2 C10_2 1_555 1_555
H8_2 C10_2 1_555 1_555
C11_2 C10_2 1_555 1_555
C12_2 O10_2 1_555 1_555
C26_2 C25_2 1_555 1_555
H17_2 C26_2 1_555 1_555
H18_2 C26_2 1_555 1_555
C28_2 C27_2 1_555 1_555
H19_2 C28_2 1_555 1_555
H20_2 C28_2 1_555 1_555
C30_2 O29_2 1_555 1_555
Bi10 O11 1_555 1_555
O33 Bi10 1_555 1_555
C4_2 C5_2 1_555 1_555
C8_2 C9_2 1_555 1_555
C9_2 C12_2 1_555 1_555
C26_2 C27_2 1_555 1_555
C27_2 C30_2 1_555 1_555
Bi10 O1_2 1_555 1_555
O1_2 C1_2 1_555 1_555
O2_2 Bi10 1_555 1_555
C1_2 O2_2 1_555 1_555
N1 C31 1_555 1_555
C31 H21 1_555 1_555
C32 C31 1_555 1_555
H22 C32 1_555 1_555
C33 C32 1_555 1_555
H23 C33 1_555 1_555
C34 C33 1_555 1_555
C35 N1 1_555 1_555
H25 C35 1_555 1_555
C34 C35 1_555 1_555
N1_2 C31_2 1_555 1_555
C31_2 H21_2 1_555 1_555
C32_2 C31_2 1_555 1_555
H22_2 C32_2 1_555 1_555
C33_2 C32_2 1_555 1_555
H23_2 C33_2 1_555 1_555
C34_2 C33_2 1_555 1_555
C35_2 N1_2 1_555 1_555
H25_2 C35_2 1_555 1_555
C34_2 C35_2 1_555 1_555
N2 C36 1_555 1_555
C36 H26 1_555 1_555
N2 H37 1_555 1_555
C38 C37 1_555 1_555
H28 C38 1_555 1_555
C39 C38 1_555 1_555
H29 C39 1_555 1_555
H30 C40 1_555 1_555
C39 C40 1_555 1_555
C38_2 C37_2 1_555 1_555
H28_2 C38_2 1_555 1_555
C39_2 C38_2 1_555 1_555
H29_2 C39_2 1_555 1_555
H30_2 C40_2 1_555 1_555
C39_2 C40_2 1_555 1_555
N2_2 C36_2 1_555 1_555
C36_2 H26_2 1_555 1_555
N2_2 H37_2 1_555 1_555

#END
