
###############################################################################
#
# This file contains modified crystal structure data generated from the
# MOF subset of the Cambridge Structural Database (CSD) v543 
# hosted by the Cambridge Crystallographic Data Centre (CCDC).
#
# This work is licensed under the Creative Commons
# Attribution-NonCommercial-ShareAlike 4.0 International License.
# To view a copy of this license, visit
# http://creativecommons.org/licenses/by-nc-sa/4.0/
# or send a letter to
# Creative Commons, PO Box 1866, Mountain View, CA 94042, USA.
#
# CIF created using the CSD Python API on 29 September 2022
# The structure has been converted into the P1 space group
# The structure has a 3D framework
# The original CSD entry UKUBIM is in the tetragonal crystal system
# The framework has been calculated to contain at least 10.0% void space
# The void calculation uses a probe of radius 1.32A, grid spacing 0.4
#
###############################################################################

data_UKUBIM
_chemical_formula_moiety         '(C100 H104 Cd4 N12 O16 S8)n'
_symmetry_cell_setting           triclinic
_symmetry_space_group_name_H-M   'P 1'
_symmetry_Int_Tables_number      1
_space_group_name_Hall           'P 1'
loop_
_symmetry_equiv_pos_site_id
_symmetry_equiv_pos_as_xyz
1 x,y,z
_cell_length_a                   12.2731(8)
_cell_length_b                   12.2731(8)
_cell_length_c                   25.135(3)
_cell_angle_alpha                90
_cell_angle_beta                 90
_cell_angle_gamma                90
_cell_volume                     3786.06
loop_
_atom_site_label
_atom_site_type_symbol
_atom_site_fract_x
_atom_site_fract_y
_atom_site_fract_z
C14 C 0.3599(4) 0.0579(4) 0.15246(19)
H14 H 0.4190 0.0730 0.1306
C17 C 0.1926(4) 0.0160(4) 0.2186(2)
H16 H 0.1335 0.0046 0.2410
C18 C 0.1890(4) 0.0962(4) 0.1797(2)
H17 H 0.1260 0.1379 0.1771
Cd2 Cd 0.2500 0.2500 0.076780(15)
N3 N 0.2698(3) 0.1172(3) 0.14606(15)
C1 C 0.1401(4) 0.4421(4) 0.15246(19)
H1 H 0.0810 0.4270 0.1306
C2 C 0.1289(4) 0.5249(4) 0.1897(2)
H2 H 0.0648 0.5650 0.1919
C3 C 0.2148(4) 0.5461(4) 0.22319(18)
C4 C 0.3074(4) 0.4840(4) 0.2186(2)
H3 H 0.3665 0.4954 0.2410
C5 C 0.3110(4) 0.4038(4) 0.1797(2)
H4 H 0.3740 0.3621 0.1771
C6 C 0.2883(4) 0.6544(4) 0.29247(16)
H5 H 0.3523 0.6753 0.2722
H6 H 0.3068 0.5921 0.3144
C7 C 0.2500 0.7500 0.3275(2)
C8 C 0.3443(4) 0.7909(4) 0.36132(17)
H7 H 0.3983 0.8265 0.3391
H8 H 0.3185 0.8428 0.3876
C9 C 0.5644(5) 0.8184(4) 0.4884(2)
H9 H 0.5806 0.8863 0.5028
C10 C 0.4897(4) 0.8153(4) 0.4466(2)
H10 H 0.4597 0.8787 0.4327
C11 C 0.4627(4) 0.7161(4) 0.42728(19)
C12 C 0.5146(4) 0.6254(4) 0.4476(2)
H11 H 0.5002 0.5564 0.4340
C13 C 0.5882(4) 0.6388(4) 0.4885(2)
H12 H 0.6217 0.5770 0.5023
N1 N 0.2302(3) 0.3828(3) 0.14606(15)
N2 N 0.6138(4) 0.7332(3) 0.50914(14)
O1 O 0.2007(3) 0.6277(3) 0.25742(12)
O2 O 0.3908(3) 0.6975(2) 0.38710(13)
S1 S 0.45822(9) 0.27614(10) 0.07846(5)
H13 H 0.4913 0.2292 0.0525
C15 C 0.3711(4) 0.9751(4) 0.1897(2)
H15 H 0.4352 0.9350 0.1919
C16 C 0.2852(4) 0.9539(4) 0.22319(18)
C19 C 0.2117(4) 0.8456(4) 0.29247(16)
H18 H 0.1477 0.8247 0.2722
H19 H 0.1932 0.9079 0.3144
C20 C 0.1557(4) 0.7091(4) 0.36132(17)
H20 H 0.1017 0.6735 0.3391
H21 H 0.1815 0.6572 0.3876
C22 C 0.0103(4) 0.6847(4) 0.4466(2)
H23 H 0.0403 0.6213 0.4327
C23 C 0.0373(4) 0.7839(4) 0.42728(19)
Cd4 Cd 0.7500 0.7500 0.576780(15)
N6 N 0.2668(3) 0.1138(4) 0.00914(14)
N7 N 0.2332(3) 0.3862(4) 0.00914(14)
O3 O 0.2993(3) 0.8723(3) 0.25742(12)
O4 O 0.1092(3) 0.8025(2) 0.38710(13)
S2 S 0.04178(9) 0.22386(10) 0.07846(5)
H26 H 0.0087 0.2708 0.0525
C21 C 0.9356(5) 0.6816(4) 0.4884(2)
H22 H 0.9194 0.6137 0.5028
C24 C 0.9854(4) 0.8746(4) 0.4476(2)
H24 H 0.9998 0.9436 0.4340
C25 C 0.9118(4) 0.8612(4) 0.4885(2)
H25 H 0.8783 0.9230 0.5023
N5 N 0.8862(4) 0.7668(3) 0.50914(14)
H9_2 H 0.1137 0.0806 0.0028
H12_2 H 0.4230 0.1217 0.0023
H22_2 H 0.3863 0.4194 0.0028
H25_2 H 0.0770 0.3783 0.0023
C1_2 C 0.5579(4) 0.6401(4) 0.65246(19)
H1_2 H 0.5730 0.5810 0.6306
C2_2 C 0.4751(4) 0.6289(4) 0.6897(2)
H2_2 H 0.4350 0.5648 0.6919
C3_2 C 0.4539(4) 0.7148(4) 0.72319(18)
C4_2 C 0.5160(4) 0.8074(4) 0.7186(2)
H3_2 H 0.5046 0.8665 0.7410
C5_2 C 0.5962(4) 0.8110(4) 0.6797(2)
H4_2 H 0.6379 0.8740 0.6771
C6_2 C 0.3456(4) 0.7883(4) 0.79247(16)
H5_2 H 0.3247 0.8523 0.7722
H6_2 H 0.4079 0.8068 0.8144
C7_2 C 0.2500 0.7500 0.8275(2)
C8_2 C 0.2091(4) 0.8443(4) 0.86132(17)
H7_2 H 0.1735 0.8983 0.8391
H8_2 H 0.1572 0.8185 0.8876
C10_2 C 0.1847(4) 0.9897(4) 0.9466(2)
H10_2 H 0.1213 0.9597 0.9327
C11_2 C 0.2839(4) 0.9627(4) 0.92728(19)
N1_2 N 0.6172(3) 0.7302(3) 0.64606(15)
O1_2 O 0.3723(3) 0.7007(3) 0.75742(12)
O2_2 O 0.3025(2) 0.8908(3) 0.88710(13)
S1_2 S 0.72386(10) 0.95822(9) 0.57846(5)
H13_2 H 0.7708 0.9913 0.5525
C15_2 C 0.0249(4) 0.8711(4) 0.6897(2)
H15_2 H 0.0650 0.9352 0.6919
C16_2 C 0.0461(4) 0.7852(4) 0.72319(18)
C19_2 C 0.1544(4) 0.7117(4) 0.79247(16)
H18_2 H 0.1753 0.6477 0.7722
H19_2 H 0.0921 0.6932 0.8144
C20_2 C 0.2909(4) 0.6557(4) 0.86132(17)
H20_2 H 0.3265 0.6017 0.8391
H21_2 H 0.3428 0.6815 0.8876
C21_2 C 0.3184(4) 0.4356(5) 0.9884(2)
C22_2 C 0.3153(4) 0.5103(4) 0.9466(2)
H23_2 H 0.3787 0.5403 0.9327
C23_2 C 0.2161(4) 0.5373(4) 0.92728(19)
C24_2 C 0.1254(4) 0.4854(4) 0.9476(2)
H24_2 H 0.0564 0.4998 0.9340
C25_2 C 0.1388(4) 0.4118(4) 0.9885(2)
N4 N 0.8828(3) 0.7698(3) 0.64606(15)
O3_2 O 0.1277(3) 0.7993(3) 0.75742(12)
O4_2 O 0.1975(2) 0.6092(3) 0.88710(13)
S2_2 S 0.77614(10) 0.54178(9) 0.57846(5)
H26_2 H 0.7292 0.5087 0.5525
C14_2 C 0.9421(4) 0.8599(4) 0.65246(19)
H14_2 H 0.9270 0.9190 0.6306
C17_2 C 0.9840(4) 0.6926(4) 0.7186(2)
H16_2 H 0.9954 0.6335 0.7410
C18_2 C 0.9038(4) 0.6890(4) 0.6797(2)
H17_2 H 0.8621 0.6260 0.6771
C9_2 C 0.1816(4) 0.0644(5) 0.9884(2)
C12_2 C 0.3746(4) 0.0146(4) 0.9476(2)
H11_2 H 0.4436 0.0002 0.9340
C13_2 C 0.3612(4) 0.0882(4) 0.9885(2)
C21_3 C 0.0644(5) 0.3184(4) 0.5116(2)
H22_3 H 0.0806 0.3863 0.4972
C24_3 C 0.0146(4) 0.1254(4) 0.5524(2)
H24_3 H 0.0002 0.0564 0.5660
C25_3 C 0.0882(4) 0.1388(4) 0.5115(2)
H25_3 H 0.1217 0.0770 0.4977
Cd3 Cd 0.2500 0.2500 0.423220(15)
N5_2 N 0.1138(4) 0.2332(3) 0.49086(14)
C1_3 C 0.8599(4) 0.5579(4) 0.84754(19)
H1_3 H 0.9190 0.5730 0.8694
C2_3 C 0.8711(4) 0.4751(4) 0.8103(2)
H2_3 H 0.9352 0.4350 0.8081
C3_3 C 0.7852(4) 0.4539(4) 0.77681(18)
C4_3 C 0.6926(4) 0.5160(4) 0.7814(2)
H3_3 H 0.6335 0.5046 0.7590
C5_3 C 0.6890(4) 0.5962(4) 0.8203(2)
H4_3 H 0.6260 0.6379 0.8229
C6_3 C 0.7117(4) 0.3456(4) 0.70753(16)
H5_3 H 0.6477 0.3247 0.7278
H6_3 H 0.6932 0.4079 0.6856
C7_3 C 0.7500 0.2500 0.6725(2)
C8_3 C 0.6557(4) 0.2091(4) 0.63868(17)
H7_3 H 0.6017 0.1735 0.6609
H8_3 H 0.6815 0.1572 0.6124
C9_3 C 0.4356(5) 0.1816(4) 0.5116(2)
H9_3 H 0.4194 0.1137 0.4972
C10_3 C 0.5103(4) 0.1847(4) 0.5534(2)
H10_3 H 0.5403 0.1213 0.5673
C11_3 C 0.5373(4) 0.2839(4) 0.57272(19)
C12_3 C 0.4854(4) 0.3746(4) 0.5524(2)
H11_3 H 0.4998 0.4436 0.5660
C13_3 C 0.4118(4) 0.3612(4) 0.5115(2)
H12_3 H 0.3783 0.4230 0.4977
Cd1 Cd 0.7500 0.7500 0.923220(15)
N1_3 N 0.7698(3) 0.6172(3) 0.85394(15)
N2_2 N 0.3862(4) 0.2668(3) 0.49086(14)
O1_3 O 0.7993(3) 0.3723(3) 0.74258(12)
O2_3 O 0.6092(3) 0.3025(2) 0.61290(13)
S1_3 S 0.54178(9) 0.72386(10) 0.92154(5)
H13_3 H 0.5087 0.7708 0.9475
C15_3 C 0.6289(4) 0.0249(4) 0.8103(2)
H15_3 H 0.5648 0.0650 0.8081
C16_3 C 0.7148(4) 0.0461(4) 0.77681(18)
C19_3 C 0.7883(4) 0.1544(4) 0.70753(16)
H18_3 H 0.8523 0.1753 0.7278
H19_3 H 0.8068 0.0921 0.6856
C20_3 C 0.8443(4) 0.2909(4) 0.63868(17)
H20_3 H 0.8983 0.3265 0.6609
H21_3 H 0.8185 0.3428 0.6124
C22_3 C 0.9897(4) 0.3153(4) 0.5534(2)
H23_3 H 0.9597 0.3787 0.5673
C23_3 C 0.9627(4) 0.2161(4) 0.57272(19)
N4_2 N 0.7302(3) 0.8828(3) 0.85394(15)
N6_2 N 0.7332(3) 0.8862(4) 0.99086(14)
N7_2 N 0.7668(3) 0.6138(4) 0.99086(14)
O3_3 O 0.7007(3) 0.1277(3) 0.74258(12)
O4_3 O 0.8908(3) 0.1975(2) 0.61290(13)
S2_3 S 0.95822(9) 0.77614(10) 0.92154(5)
H26_3 H 0.9913 0.7292 0.9475
C14_3 C 0.6401(4) 0.9421(4) 0.84754(19)
H14_3 H 0.5810 0.9270 0.8694
C17_3 C 0.8074(4) 0.9840(4) 0.7814(2)
H16_3 H 0.8665 0.9954 0.7590
C18_3 C 0.8110(4) 0.9038(4) 0.8203(2)
H17_3 H 0.8740 0.8621 0.8229
C14_4 C 0.0579(4) 0.1401(4) 0.34754(19)
H14_4 H 0.0730 0.0810 0.3694
C17_4 C 0.0160(4) 0.3074(4) 0.2814(2)
H16_4 H 0.0046 0.3665 0.2590
C18_4 C 0.0962(4) 0.3110(4) 0.3203(2)
H17_4 H 0.1379 0.3740 0.3229
N3_2 N 0.1172(3) 0.2302(3) 0.35394(15)
C1_4 C 0.4421(4) 0.3599(4) 0.34754(19)
H1_4 H 0.4270 0.4190 0.3694
C2_4 C 0.5249(4) 0.3711(4) 0.3103(2)
H2_4 H 0.5650 0.4352 0.3081
C3_4 C 0.5461(4) 0.2852(4) 0.27681(18)
C4_4 C 0.4840(4) 0.1926(4) 0.2814(2)
H3_4 H 0.4954 0.1335 0.2590
C5_4 C 0.4038(4) 0.1890(4) 0.3203(2)
H4_4 H 0.3621 0.1260 0.3229
C6_4 C 0.6544(4) 0.2117(4) 0.20753(16)
H5_4 H 0.6753 0.1477 0.2278
H6_4 H 0.5921 0.1932 0.1856
C7_4 C 0.7500 0.2500 0.1725(2)
C8_4 C 0.7909(4) 0.1557(4) 0.13868(17)
H7_4 H 0.8265 0.1017 0.1609
H8_4 H 0.8428 0.1815 0.1124
C10_4 C 0.8153(4) 0.0103(4) 0.0534(2)
H10_4 H 0.8787 0.0403 0.0673
C11_4 C 0.7161(4) 0.0373(4) 0.07272(19)
N1_4 N 0.3828(3) 0.2698(3) 0.35394(15)
O1_4 O 0.6277(3) 0.2993(3) 0.24258(12)
O2_4 O 0.6975(2) 0.1092(3) 0.11290(13)
S1_4 S 0.27614(10) 0.04178(9) 0.42154(5)
H13_4 H 0.2292 0.0087 0.4475
C15_4 C 0.9751(4) 0.1289(4) 0.3103(2)
H15_4 H 0.9350 0.0648 0.3081
C16_4 C 0.9539(4) 0.2148(4) 0.27681(18)
C19_4 C 0.8456(4) 0.2883(4) 0.20753(16)
H18_4 H 0.8247 0.3523 0.2278
H19_4 H 0.9079 0.3068 0.1856
C20_4 C 0.7091(4) 0.3443(4) 0.13868(17)
H20_4 H 0.6735 0.3983 0.1609
H21_4 H 0.6572 0.3185 0.1124
C21_4 C 0.6816(4) 0.5644(5) 0.0116(2)
C22_4 C 0.6847(4) 0.4897(4) 0.0534(2)
H23_4 H 0.6213 0.4597 0.0673
C23_4 C 0.7839(4) 0.4627(4) 0.07272(19)
C24_4 C 0.8746(4) 0.5146(4) 0.0524(2)
H24_4 H 0.9436 0.5002 0.0660
C25_4 C 0.8612(4) 0.5882(4) 0.0115(2)
O3_4 O 0.8723(3) 0.2007(3) 0.24258(12)
O4_4 O 0.8025(2) 0.3908(3) 0.11290(13)
S2_4 S 0.22386(10) 0.45822(9) 0.42154(5)
H26_4 H 0.2708 0.4913 0.4475
H22_4 H 0.6137 0.5806 0.9972
H25_4 H 0.9230 0.6217 0.9977
H9_4 H 0.8863 0.9194 0.9972
H12_4 H 0.5770 0.8783 0.9977
C9_4 C 0.8184(4) 0.9356(5) 0.0116(2)
C12_4 C 0.6254(4) 0.9854(4) 0.0524(2)
H11_4 H 0.5564 0.9998 0.0660
C13_4 C 0.6388(4) 0.9118(4) 0.0115(2)
loop_
_geom_bond_atom_site_label_1
_geom_bond_atom_site_label_2
_geom_bond_site_symmetry_1
_geom_bond_site_symmetry_2
C14 H14 1_555 1_555
H16 C17 1_555 1_555
C18 C17 1_555 1_555
H17 C18 1_555 1_555
Cd2 N3 1_555 1_555
N3 C14 1_555 1_555
C18 N3 1_555 1_555
C1 H1 1_555 1_555
C2 C1 1_555 1_555
H2 C2 1_555 1_555
C3 C2 1_555 1_555
C4 C3 1_555 1_555
H3 C4 1_555 1_555
C5 C4 1_555 1_555
H4 C5 1_555 1_555
C6 H5 1_555 1_555
H6 C6 1_555 1_555
C7 C6 1_555 1_555
C8 C7 1_555 1_555
H7 C8 1_555 1_555
H8 C8 1_555 1_555
C9 H9 1_555 1_555
C10 C9 1_555 1_555
H10 C10 1_555 1_555
C11 C10 1_555 1_555
C12 C11 1_555 1_555
H11 C12 1_555 1_555
C13 C12 1_555 1_555
H12 C13 1_555 1_555
Cd2 N1 1_555 1_555
N1 C1 1_555 1_555
N2 C9 1_555 1_555
O1 C3 1_555 1_555
O2 C8 1_555 1_555
S1 Cd2 1_555 1_555
H13 S1 1_555 1_555
H15 C15 1_555 1_555
C16 C15 1_555 1_555
C19 C7 1_555 1_555
H18 C19 1_555 1_555
H19 C19 1_555 1_555
C20 C7 1_555 1_555
H20 C20 1_555 1_555
H21 C20 1_555 1_555
H23 C22 1_555 1_555
C23 C22 1_555 1_555
Cd4 N2 1_555 1_555
N6 Cd2 1_555 1_555
N7 Cd2 1_555 1_555
O3 C16 1_555 1_555
O4 C20 1_555 1_555
S2 Cd2 1_555 1_555
H26 S2 1_555 1_555
C5 N1 1_555 1_555
C6 O1 1_555 1_555
C11 O2 1_555 1_555
C13 N2 1_555 1_555
C19 O3 1_555 1_555
C23 O4 1_555 1_555
C21 H22 1_555 1_555
H24 C24 1_555 1_555
C25 C24 1_555 1_555
H25 C25 1_555 1_555
Cd4 N5 1_555 1_555
N5 C21 1_555 1_555
C25 N5 1_555 1_555
C1_2 H1_2 1_555 1_555
C2_2 C1_2 1_555 1_555
H2_2 C2_2 1_555 1_555
C3_2 C2_2 1_555 1_555
C4_2 C3_2 1_555 1_555
H3_2 C4_2 1_555 1_555
C5_2 C4_2 1_555 1_555
H4_2 C5_2 1_555 1_555
C6_2 H5_2 1_555 1_555
H6_2 C6_2 1_555 1_555
C7_2 C6_2 1_555 1_555
C8_2 C7_2 1_555 1_555
H7_2 C8_2 1_555 1_555
H8_2 C8_2 1_555 1_555
H10_2 C10_2 1_555 1_555
C11_2 C10_2 1_555 1_555
Cd4 N1_2 1_555 1_555
N1_2 C1_2 1_555 1_555
O1_2 C3_2 1_555 1_555
O2_2 C8_2 1_555 1_555
S1_2 Cd4 1_555 1_555
H13_2 S1_2 1_555 1_555
H15_2 C15_2 1_555 1_555
C16_2 C15_2 1_555 1_555
C19_2 C7_2 1_555 1_555
H18_2 C19_2 1_555 1_555
H19_2 C19_2 1_555 1_555
C20_2 C7_2 1_555 1_555
H20_2 C20_2 1_555 1_555
H21_2 C20_2 1_555 1_555
C22_2 C21_2 1_555 1_555
H23_2 C22_2 1_555 1_555
C23_2 C22_2 1_555 1_555
C24_2 C23_2 1_555 1_555
H24_2 C24_2 1_555 1_555
C25_2 C24_2 1_555 1_555
N4 Cd4 1_555 1_555
O3_2 C16_2 1_555 1_555
O4_2 C20_2 1_555 1_555
S2_2 Cd4 1_555 1_555
H26_2 S2_2 1_555 1_555
C5_2 N1_2 1_555 1_555
C6_2 O1_2 1_555 1_555
C11_2 O2_2 1_555 1_555
C19_2 O3_2 1_555 1_555
C23_2 O4_2 1_555 1_555
C14_2 H14_2 1_555 1_555
H16_2 C17_2 1_555 1_555
C18_2 C17_2 1_555 1_555
H17_2 C18_2 1_555 1_555
N4 C14_2 1_555 1_555
C18_2 N4 1_555 1_555
H11_2 C12_2 1_555 1_555
C13_2 C12_2 1_555 1_555
C21_3 H22_3 1_555 1_555
H24_3 C24_3 1_555 1_555
C25_3 C24_3 1_555 1_555
H25_3 C25_3 1_555 1_555
Cd3 N5_2 1_555 1_555
N5_2 C21_3 1_555 1_555
C25_3 N5_2 1_555 1_555
C1_3 H1_3 1_555 1_555
C2_3 C1_3 1_555 1_555
H2_3 C2_3 1_555 1_555
C3_3 C2_3 1_555 1_555
C4_3 C3_3 1_555 1_555
H3_3 C4_3 1_555 1_555
C5_3 C4_3 1_555 1_555
H4_3 C5_3 1_555 1_555
C6_3 H5_3 1_555 1_555
H6_3 C6_3 1_555 1_555
C7_3 C6_3 1_555 1_555
C8_3 C7_3 1_555 1_555
H7_3 C8_3 1_555 1_555
H8_3 C8_3 1_555 1_555
C9_3 H9_3 1_555 1_555
C10_3 C9_3 1_555 1_555
H10_3 C10_3 1_555 1_555
C11_3 C10_3 1_555 1_555
C12_3 C11_3 1_555 1_555
H11_3 C12_3 1_555 1_555
C13_3 C12_3 1_555 1_555
H12_3 C13_3 1_555 1_555
Cd1 N1_3 1_555 1_555
N1_3 C1_3 1_555 1_555
N2_2 C9_3 1_555 1_555
O1_3 C3_3 1_555 1_555
O2_3 C8_3 1_555 1_555
S1_3 Cd1 1_555 1_555
H13_3 S1_3 1_555 1_555
H15_3 C15_3 1_555 1_555
C16_3 C15_3 1_555 1_555
C19_3 C7_3 1_555 1_555
H18_3 C19_3 1_555 1_555
H19_3 C19_3 1_555 1_555
C20_3 C7_3 1_555 1_555
H20_3 C20_3 1_555 1_555
H21_3 C20_3 1_555 1_555
H23_3 C22_3 1_555 1_555
C23_3 C22_3 1_555 1_555
Cd3 N2_2 1_555 1_555
N4_2 Cd1 1_555 1_555
N6_2 Cd1 1_555 1_555
N7_2 Cd1 1_555 1_555
O3_3 C16_3 1_555 1_555
O4_3 C20_3 1_555 1_555
S2_3 Cd1 1_555 1_555
H26_3 S2_3 1_555 1_555
C5_3 N1_3 1_555 1_555
C6_3 O1_3 1_555 1_555
C11_3 O2_3 1_555 1_555
C13_3 N2_2 1_555 1_555
C19_3 O3_3 1_555 1_555
C23_3 O4_3 1_555 1_555
C14_3 H14_3 1_555 1_555
H16_3 C17_3 1_555 1_555
C18_3 C17_3 1_555 1_555
H17_3 C18_3 1_555 1_555
N4_2 C14_3 1_555 1_555
C18_3 N4_2 1_555 1_555
C14_4 H14_4 1_555 1_555
H16_4 C17_4 1_555 1_555
C18_4 C17_4 1_555 1_555
H17_4 C18_4 1_555 1_555
Cd3 N3_2 1_555 1_555
N3_2 C14_4 1_555 1_555
C18_4 N3_2 1_555 1_555
C1_4 H1_4 1_555 1_555
C2_4 C1_4 1_555 1_555
H2_4 C2_4 1_555 1_555
C3_4 C2_4 1_555 1_555
C4_4 C3_4 1_555 1_555
H3_4 C4_4 1_555 1_555
C5_4 C4_4 1_555 1_555
H4_4 C5_4 1_555 1_555
C6_4 H5_4 1_555 1_555
H6_4 C6_4 1_555 1_555
C7_4 C6_4 1_555 1_555
C8_4 C7_4 1_555 1_555
H7_4 C8_4 1_555 1_555
H8_4 C8_4 1_555 1_555
H10_4 C10_4 1_555 1_555
C11_4 C10_4 1_555 1_555
Cd3 N1_4 1_555 1_555
N1_4 C1_4 1_555 1_555
O1_4 C3_4 1_555 1_555
O2_4 C8_4 1_555 1_555
S1_4 Cd3 1_555 1_555
H13_4 S1_4 1_555 1_555
H15_4 C15_4 1_555 1_555
C16_4 C15_4 1_555 1_555
C19_4 C7_4 1_555 1_555
H18_4 C19_4 1_555 1_555
H19_4 C19_4 1_555 1_555
C20_4 C7_4 1_555 1_555
H20_4 C20_4 1_555 1_555
H21_4 C20_4 1_555 1_555
C22_4 C21_4 1_555 1_555
H23_4 C22_4 1_555 1_555
C23_4 C22_4 1_555 1_555
C24_4 C23_4 1_555 1_555
H24_4 C24_4 1_555 1_555
C25_4 C24_4 1_555 1_555
O3_4 C16_4 1_555 1_555
O4_4 C20_4 1_555 1_555
S2_4 Cd3 1_555 1_555
H26_4 S2_4 1_555 1_555
C5_4 N1_4 1_555 1_555
C6_4 O1_4 1_555 1_555
C11_4 O2_4 1_555 1_555
C19_4 O3_4 1_555 1_555
C23_4 O4_4 1_555 1_555
H11_4 C12_4 1_555 1_555
C13_4 C12_4 1_555 1_555

#END
