
###############################################################################
#
# This file contains modified crystal structure data generated from the
# MOF subset of the Cambridge Structural Database (CSD) v543 
# hosted by the Cambridge Crystallographic Data Centre (CCDC).
#
# This work is licensed under the Creative Commons
# Attribution-NonCommercial-ShareAlike 4.0 International License.
# To view a copy of this license, visit
# http://creativecommons.org/licenses/by-nc-sa/4.0/
# or send a letter to
# Creative Commons, PO Box 1866, Mountain View, CA 94042, USA.
#
# CIF created using the CSD Python API on 29 September 2022
# The structure has been converted into the P1 space group
# The structure has a 3D framework
# The original CSD entry UKUDEL is in the cubic crystal system
# The framework has been calculated to contain at least 10.0% void space
# The void calculation uses a probe of radius 1.32A, grid spacing 0.4
# H atom positions have been added when not included in the experimental data
# Generated hydrogen atom positions removed from atoms on special positions
#
###############################################################################

data_UKUDEL
_chemical_formula_moiety         '(C240 H456 O214 Zr54)n'
_symmetry_cell_setting           triclinic
_symmetry_space_group_name_H-M   'P 1'
_symmetry_Int_Tables_number      1
_space_group_name_Hall           'P 1'
loop_
_symmetry_equiv_pos_site_id
_symmetry_equiv_pos_as_xyz
1 x,y,z
_cell_length_a                   20.8002(5)
_cell_length_b                   20.8002(5)
_cell_length_c                   20.8002(5)
_cell_angle_alpha                90
_cell_angle_beta                 90
_cell_angle_gamma                90
_cell_volume                     8999.17
loop_
_atom_site_label
_atom_site_type_symbol
_atom_site_fract_x
_atom_site_fract_y
_atom_site_fract_z
Zr1 Zr 0.000 0.000 0.1168(3)
O1 O 0.0588(6) 0.0588(6) 0.0588(6)
O2 O 0.088(5) 0.000 0.172(4)
O3 O 0.175(4) 0.000 0.085(5)
C1 C 0.150(8) 0.000 0.147(9)
C2 C 0.210(3) 0.000 0.190(3)
O4 O -0.000 -0.000 0.218(4)
C4 C 0.2162(14) 0.0594(11) 0.2342(18)
O5 O 0.412(5) 0.000 0.328(4)
O6 O 0.325(4) 0.000 0.415(5)
C5 C 0.350(8) 0.000 0.353(9)
C6 C 0.290(3) -0.000 0.310(3)
C8 C 0.2838(14) 0.0594(11) 0.2658(18)
Zr3 Zr 0.000 0.1168(3) 0.000
O15 O -0.000 0.218(4) 0.000
O16 O -0.000 0.172(4) 0.088(5)
O17 O 0.000 0.085(5) 0.175(4)
C17 C 0.000 0.147(9) 0.150(8)
C18 C -0.000 0.190(3) 0.210(3)
C19 C 0.0594(11) 0.2342(18) 0.2162(14)
O18 O -0.000 0.328(4) 0.412(5)
O19 O 0.000 0.415(5) 0.325(4)
C21 C -0.000 0.353(9) 0.350(8)
C22 C -0.000 0.310(3) 0.290(3)
C23 C 0.0594(11) 0.2658(18) 0.2838(14)
Zr6 Zr 0.1168(3) 0.000 0.000
Zr7 Zr 0.500 0.000 0.3832(3)
Zr8 Zr 0.3832(3) -0.000 0.500
Zr10 Zr -0.000 0.500 0.3832(3)
Zr11 Zr -0.000 0.3832(3) 0.500
O30 O 0.085(5) 0.175(4) 0.000
H1 H 0.251659 2.41433e-18 0.158289
H7 H 0.179446 0.0574539 0.271435
H8 H 0.21008 0.103021 0.205901
H13 H -3.04965e-18 0.341711 0.248341
H14 H 0.103021 0.294099 0.28992
H15 H 0.0574539 0.228565 0.320554
H18 H 0.248341 -2.41433e-18 0.341711
H21 H 0.0574539 0.271435 0.179446
H22 H 0.103021 0.205901 0.21008
H27 H 0.28992 0.103021 0.294099
H28 H 0.320554 0.0574539 0.228565
H29 H -1.36539e-19 0.158289 0.251659
Zr3_2 Zr 0.000 0.1168(3) 1.000
O15_2 O 0.000 0.218(4) 1.000
Zr4 Zr 0.000 0.000 0.8832(3)
Zr6_2 Zr 0.1168(3) -0.000 1.000
O23 O 0.0588(6) 0.0588(6) 0.9412(6)
O26 O 0.000 0.172(4) 0.912(5)
O30_2 O 0.085(5) 0.175(4) 1.000
H5 H 0.043476 0.233913 0.988351
Zr1_2 Zr -0.000 1.000 0.1168(3)
O2_2 O 0.088(5) 1.000 0.172(4)
O3_2 O 0.175(4) 1.000 0.085(5)
C1_2 C 0.150(8) 1.000 0.147(9)
C2_2 C 0.210(3) 1.000 0.190(3)
C3 C 0.2162(14) 0.9406(11) 0.2342(18)
O4_2 O -0.000 1.000 0.218(4)
O5_2 O 0.412(5) 1.000 0.328(4)
O6_2 O 0.325(4) 1.000 0.415(5)
C5_2 C 0.350(8) 1.000 0.353(9)
C6_2 C 0.290(3) 1.000 0.310(3)
C7 C 0.2838(14) 0.9406(11) 0.2658(18)
Zr2 Zr 0.000 0.8832(3) 0.000
O10 O 0.000 0.782(4) 0.000
O11 O -0.000 0.828(4) 0.088(5)
O12 O -0.000 0.915(5) 0.175(4)
C9 C -0.000 0.853(9) 0.150(8)
C10 C -0.000 0.810(3) 0.210(3)
C11 C 0.0594(11) 0.7658(18) 0.2162(14)
O13 O 0.000 0.672(4) 0.412(5)
O14 O 0.000 0.585(5) 0.325(4)
C13 C 0.000 0.647(9) 0.350(8)
C14 C 0.000 0.690(3) 0.290(3)
C15 C 0.0594(11) 0.7342(18) 0.2838(14)
Zr6_3 Zr 0.1168(3) 1.000 0.000
Zr7_2 Zr 0.500 1.000 0.3832(3)
Zr8_2 Zr 0.3832(3) 1.000 0.500
Zr12 Zr 0.000 0.6168(3) 0.500
O22 O 0.0588(6) 0.9412(6) 0.0588(6)
O29 O 0.085(5) 0.825(4) 0.000
H1_2 H 0.251659 1 0.158289
H2 H -4.49263e-18 0.841711 0.251659
H18_2 H 0.248341 1 0.341711
H19 H 0.320554 0.942546 0.228565
H20 H 0.28992 0.896979 0.294099
H23 H 0.21008 0.896979 0.205901
H24 H 0.179446 0.942546 0.271435
H25 H 0.103021 0.794099 0.21008
H26 H 0.0574539 0.728565 0.179446
H30 H 0.0574539 0.771435 0.320554
H31 H 0.103021 0.705901 0.28992
H34 H 4.49263e-18 0.658289 0.248341
Zr2_2 Zr 0.000 0.8832(3) 1.000
O10_2 O 0.000 0.782(4) 1.000
Zr4_2 Zr -0.000 1.000 0.8832(3)
Zr6_4 Zr 0.1168(3) 1.000 1.000
O21 O 0.0588(6) 0.9412(6) 0.9412(6)
O25 O 0.000 0.828(4) 0.912(5)
O29_2 O 0.085(5) 0.825(4) 1.000
H10 H 0.0318266 0.766087 0.968173
Zr1_3 Zr 1.000 0.000 0.1168(3)
O4_3 O 1.000 -0.000 0.218(4)
O8 O 0.9412(6) 0.0588(6) 0.0588(6)
Zr3_3 Zr 1.000 0.1168(3) 0.000
O15_3 O 1.000 0.218(4) 0.000
O16_2 O 1.000 0.172(4) 0.088(5)
O17_2 O 1.000 0.085(5) 0.175(4)
C17_2 C 1.000 0.147(9) 0.150(8)
C18_2 C 1.000 0.190(3) 0.210(3)
C20 C 0.9406(11) 0.2342(18) 0.2162(14)
O18_2 O 1.000 0.328(4) 0.412(5)
O19_2 O 1.000 0.415(5) 0.325(4)
C21_2 C 1.000 0.353(9) 0.350(8)
C22_2 C 1.000 0.310(3) 0.290(3)
C24 C 0.9406(11) 0.2658(18) 0.2838(14)
Zr5 Zr 0.8832(3) 0.000 0.000
Zr10_2 Zr 1.000 0.500 0.3832(3)
Zr11_2 Zr 1.000 0.3832(3) 0.500
O24 O 0.912(5) 0.000 0.172(4)
O28 O 0.915(5) 0.175(4) 0.000
H3 H 0.942546 0.228565 0.320554
H4 H 0.896979 0.294099 0.28992
H13_2 H 1 0.341711 0.248341
H29_2 H 1 0.158289 0.251659
H32 H 0.988351 0.043476 0.233913
H35 H 0.896979 0.205901 0.21008
H36 H 0.942546 0.271435 0.179446
Zr3_4 Zr 1.000 0.1168(3) 1.000
O15_4 O 1.000 0.218(4) 1.000
Zr4_3 Zr 1.000 0.000 0.8832(3)
Zr5_2 Zr 0.8832(3) -0.000 1.000
O20 O 0.9412(6) 0.0588(6) 0.9412(6)
O26_2 O 1.000 0.172(4) 0.912(5)
O28_2 O 0.915(5) 0.175(4) 1.000
H6 H 0.968173 0.233913 0.968173
Zr1_4 Zr 1.000 1.000 0.1168(3)
O4_4 O 1.000 1.000 0.218(4)
O7 O 0.9412(6) 0.9412(6) 0.0588(6)
Zr2_3 Zr 1.000 0.8832(3) 0.000
O10_3 O 1.000 0.782(4) 0.000
O11_2 O 1.000 0.828(4) 0.088(5)
O12_2 O 1.000 0.915(5) 0.175(4)
C9_2 C 1.000 0.853(9) 0.150(8)
C10_2 C 1.000 0.810(3) 0.210(3)
C12 C 0.9406(11) 0.7658(18) 0.2162(14)
O13_2 O 1.000 0.672(4) 0.412(5)
O14_2 O 1.000 0.585(5) 0.325(4)
C13_2 C 1.000 0.647(9) 0.350(8)
C14_2 C 1.000 0.690(3) 0.290(3)
C16 C 0.9406(11) 0.7342(18) 0.2838(14)
Zr5_3 Zr 0.8832(3) 1.000 0.000
Zr12_2 Zr 1.000 0.6168(3) 0.500
O24_2 O 0.912(5) 1.000 0.172(4)
O27 O 0.915(5) 0.825(4) 0.000
H2_2 H 1 0.841711 0.251659
H11 H 0.942546 0.728565 0.179446
H12 H 0.896979 0.794099 0.21008
H16 H 0.896979 0.705901 0.28992
H17 H 0.942546 0.771435 0.320554
H33 H 0.968173 0.968173 0.233913
H34_2 H 1 0.658289 0.248341
Zr2_4 Zr 1.000 0.8832(3) 1.000
O9 O 0.9412(6) 0.9412(6) 0.9412(6)
O10_4 O 1.000 0.782(4) 1.000
Zr4_4 Zr 1.000 1.000 0.8832(3)
Zr5_4 Zr 0.8832(3) 1.000 1.000
O25_2 O 1.000 0.828(4) 0.912(5)
O27_2 O 0.915(5) 0.825(4) 1.000
H9 H 0.956524 0.766087 0.988351
H33_2 H 0.0318266 0.0318266 0.233913
H32_2 H 0.0116494 0.956524 0.233913
O3_3 O 0.825(4) 0.000 0.085(5)
C1_3 C 0.850(8) 0.000 0.147(9)
C2_3 C 0.790(3) 0.000 0.190(3)
C3_2 C 0.7838(14) 0.0594(11) 0.2342(18)
O5_3 O 0.588(5) 0.000 0.328(4)
O6_3 O 0.675(4) 0.000 0.415(5)
C5_3 C 0.650(8) 0.000 0.353(9)
C6_3 C 0.710(3) 0.000 0.310(3)
C7_2 C 0.7162(14) 0.0594(11) 0.2658(18)
Zr8_3 Zr 0.6168(3) 0.000 0.500
H1_3 H 0.748341 -2.41433e-18 0.158289
H18_3 H 0.751659 2.41433e-18 0.341711
H19_2 H 0.679446 0.0574539 0.228565
H20_2 H 0.71008 0.103021 0.294099
H23_2 H 0.78992 0.103021 0.205901
H24_2 H 0.820554 0.0574539 0.271435
O3_4 O 0.825(4) 1.000 0.085(5)
C1_4 C 0.850(8) 1.000 0.147(9)
C2_4 C 0.790(3) 1.000 0.190(3)
C4_2 C 0.7838(14) 0.9406(11) 0.2342(18)
O5_4 O 0.588(5) 1.000 0.328(4)
O6_4 O 0.675(4) 1.000 0.415(5)
C5_4 C 0.650(8) 1.000 0.353(9)
C6_4 C 0.710(3) 1.000 0.310(3)
C8_2 C 0.7162(14) 0.9406(11) 0.2658(18)
Zr8_4 Zr 0.6168(3) 1.000 0.500
H1_4 H 0.748341 1 0.158289
H7_2 H 0.820554 0.942546 0.271435
H8_2 H 0.78992 0.896979 0.205901
H18_4 H 0.751659 1 0.341711
H27_2 H 0.71008 0.896979 0.294099
H28_2 H 0.679446 0.942546 0.228565
H6_2 H 0.0318266 0.233913 0.0318266
O4_5 O 0.000 0.000 0.782(4)
O17_3 O -0.000 0.085(5) 0.825(4)
C17_3 C 0.000 0.147(9) 0.850(8)
C18_3 C -0.000 0.190(3) 0.790(3)
C20_2 C 0.0594(11) 0.2342(18) 0.7838(14)
O18_3 O 0.000 0.328(4) 0.588(5)
O19_3 O 0.000 0.415(5) 0.675(4)
C21_3 C 0.000 0.353(9) 0.650(8)
C22_3 C -0.000 0.310(3) 0.710(3)
C24_2 C 0.0594(11) 0.2658(18) 0.7162(14)
Zr10_3 Zr 0.000 0.500 0.6168(3)
O24_3 O 0.088(5) 0.000 0.828(4)
H3_2 H 0.0574539 0.228565 0.679446
H4_2 H 0.103021 0.294099 0.71008
H13_3 H 3.04965e-18 0.341711 0.751659
H29_3 H 1.36539e-19 0.158289 0.748341
H32_3 H 0.0116494 0.043476 0.766087
H35_2 H 0.103021 0.205901 0.78992
H36_2 H 0.0574539 0.271435 0.820554
H9_2 H 0.043476 0.766087 0.0116494
O4_6 O 0.000 1.000 0.782(4)
O12_3 O 0.000 0.915(5) 0.825(4)
C9_3 C 0.000 0.853(9) 0.850(8)
C10_3 C -0.000 0.810(3) 0.790(3)
C12_2 C 0.0594(11) 0.7658(18) 0.7838(14)
O13_3 O 0.000 0.672(4) 0.588(5)
O14_3 O 0.000 0.585(5) 0.675(4)
C13_3 C 0.000 0.647(9) 0.650(8)
C14_3 C -0.000 0.690(3) 0.710(3)
C16_2 C 0.0594(11) 0.7342(18) 0.7162(14)
O24_4 O 0.088(5) 1.000 0.828(4)
H2_3 H 4.49263e-18 0.841711 0.748341
H11_2 H 0.0574539 0.728565 0.820554
H12_2 H 0.103021 0.794099 0.78992
H16_2 H 0.103021 0.705901 0.71008
H17_2 H 0.0574539 0.771435 0.679446
H33_3 H 0.0318266 0.968173 0.766087
H34_3 H -4.49263e-18 0.658289 0.751659
H5_2 H 0.956524 0.233913 0.0116494
O2_3 O 0.912(5) 0.000 0.828(4)
O3_5 O 0.825(4) 0.000 0.915(5)
C1_5 C 0.850(8) -0.000 0.853(9)
C2_5 C 0.790(3) -0.000 0.810(3)
O4_7 O 1.000 0.000 0.782(4)
C4_3 C 0.7838(14) 0.0594(11) 0.7658(18)
O5_5 O 0.588(5) -0.000 0.672(4)
O6_5 O 0.675(4) 0.000 0.585(5)
C5_5 C 0.650(8) 0.000 0.647(9)
C6_5 C 0.710(3) -0.000 0.690(3)
C8_3 C 0.7162(14) 0.0594(11) 0.7342(18)
O17_4 O 1.000 0.085(5) 0.825(4)
C17_4 C 1.000 0.147(9) 0.850(8)
C18_4 C 1.000 0.190(3) 0.790(3)
C19_2 C 0.9406(11) 0.2342(18) 0.7838(14)
O18_4 O 1.000 0.328(4) 0.588(5)
O19_4 O 1.000 0.415(5) 0.675(4)
C21_4 C 1.000 0.353(9) 0.650(8)
C22_4 C 1.000 0.310(3) 0.710(3)
C23_2 C 0.9406(11) 0.2658(18) 0.7162(14)
Zr7_3 Zr 0.500 0.000 0.6168(3)
Zr10_4 Zr 1.000 0.500 0.6168(3)
H1_5 H 0.748341 2.41433e-18 0.841711
H7_3 H 0.820554 0.0574539 0.728565
H8_3 H 0.78992 0.103021 0.794099
H13_4 H 1 0.341711 0.751659
H14_2 H 0.896979 0.294099 0.71008
H15_2 H 0.942546 0.228565 0.679446
H18_5 H 0.751659 -2.41433e-18 0.658289
H21_2 H 0.942546 0.271435 0.820554
H22_2 H 0.896979 0.205901 0.78992
H27_3 H 0.71008 0.103021 0.705901
H28_3 H 0.679446 0.0574539 0.771435
H29_4 H 1 0.158289 0.748341
H10_2 H 0.968173 0.766087 0.0318266
O2_4 O 0.912(5) 1.000 0.828(4)
O3_6 O 0.825(4) 1.000 0.915(5)
C1_6 C 0.850(8) 1.000 0.853(9)
C2_6 C 0.790(3) 1.000 0.810(3)
C3_3 C 0.7838(14) 0.9406(11) 0.7658(18)
O4_8 O 1.000 1.000 0.782(4)
O5_6 O 0.588(5) 1.000 0.672(4)
O6_6 O 0.675(4) 1.000 0.585(5)
C5_6 C 0.650(8) 1.000 0.647(9)
C6_6 C 0.710(3) 1.000 0.690(3)
C7_3 C 0.7162(14) 0.9406(11) 0.7342(18)
O12_4 O 1.000 0.915(5) 0.825(4)
C9_4 C 1.000 0.853(9) 0.850(8)
C10_4 C 1.000 0.810(3) 0.790(3)
C11_2 C 0.9406(11) 0.7658(18) 0.7838(14)
O13_4 O 1.000 0.672(4) 0.588(5)
O14_4 O 1.000 0.585(5) 0.675(4)
C13_4 C 1.000 0.647(9) 0.650(8)
C14_4 C 1.000 0.690(3) 0.710(3)
C15_2 C 0.9406(11) 0.7342(18) 0.7162(14)
Zr7_4 Zr 0.500 1.000 0.6168(3)
H1_6 H 0.748341 1 0.841711
H2_4 H 1 0.841711 0.748341
H18_6 H 0.751659 1 0.658289
H19_3 H 0.679446 0.942546 0.771435
H20_3 H 0.71008 0.896979 0.705901
H23_3 H 0.78992 0.896979 0.794099
H24_3 H 0.820554 0.942546 0.728565
H25_2 H 0.896979 0.794099 0.78992
H26_2 H 0.942546 0.728565 0.820554
H30_2 H 0.942546 0.771435 0.679446
H31_2 H 0.896979 0.705901 0.71008
H34_4 H 1 0.658289 0.751659
O10_5 O 0.218(4) -0.000 0.000
O25_3 O 0.172(4) 0.088(5) 0.000
H10_3 H 0.233913 0.0318266 0.0318266
O10_6 O 0.218(4) -0.000 1.000
O25_4 O 0.172(4) 0.088(5) 1.000
O27_3 O 0.175(4) 0.000 0.915(5)
H9_3 H 0.233913 0.0116494 0.956524
O10_7 O 0.218(4) 1.000 0.000
O11_3 O 0.172(4) 0.912(5) 0.000
C9_5 C 0.147(9) 0.850(8) 0.000
C10_5 C 0.190(3) 0.790(3) 0.000
C11_3 C 0.2342(18) 0.7838(14) 0.0594(11)
O13_5 O 0.328(4) 0.588(5) 0.000
O14_5 O 0.415(5) 0.675(4) 0.000
C13_5 C 0.353(9) 0.650(8) 0.000
C14_5 C 0.310(3) 0.710(3) 0.000
C15_3 C 0.2658(18) 0.7162(14) 0.0594(11)
Zr9 Zr 0.500 0.6168(3) 0.000
Zr12_3 Zr 0.3832(3) 0.500 0.000
H2_5 H 0.158289 0.748341 -4.49263e-18
H25_3 H 0.205901 0.78992 0.103021
H26_3 H 0.271435 0.820554 0.0574539
H30_3 H 0.228565 0.679446 0.0574539
H31_3 H 0.294099 0.71008 0.103021
H34_5 H 0.341711 0.751659 4.49263e-18
O10_8 O 0.218(4) 1.000 1.000
O11_4 O 0.172(4) 0.912(5) 1.000
C9_6 C 0.147(9) 0.850(8) 1.000
C10_6 C 0.190(3) 0.790(3) 1.000
C12_3 C 0.2342(18) 0.7838(14) 0.9406(11)
O13_6 O 0.328(4) 0.588(5) 1.000
O14_6 O 0.415(5) 0.675(4) 1.000
C13_6 C 0.353(9) 0.650(8) 1.000
C14_6 C 0.310(3) 0.710(3) 1.000
C16_3 C 0.2658(18) 0.7162(14) 0.9406(11)
Zr9_2 Zr 0.500 0.6168(3) 1.000
Zr12_4 Zr 0.3832(3) 0.500 1.000
O27_4 O 0.175(4) 1.000 0.915(5)
H2_6 H 0.158289 0.748341 1
H11_3 H 0.271435 0.820554 0.942546
H12_3 H 0.205901 0.78992 0.896979
H16_3 H 0.294099 0.71008 0.896979
H17_3 H 0.228565 0.679446 0.942546
H34_6 H 0.341711 0.751659 1
O15_5 O 0.782(4) 0.000 -0.000
O26_3 O 0.828(4) 0.088(5) -0.000
H5_3 H 0.766087 0.0116494 0.043476
O15_6 O 0.782(4) -0.000 1.000
O26_4 O 0.828(4) 0.088(5) 1.000
H6_3 H 0.766087 0.0318266 0.968173
O15_7 O 0.782(4) 1.000 -0.000
O16_3 O 0.828(4) 0.912(5) -0.000
C17_5 C 0.853(9) 0.850(8) 0.000
C18_5 C 0.810(3) 0.790(3) 0.000
C19_3 C 0.7658(18) 0.7838(14) 0.0594(11)
O18_5 O 0.672(4) 0.588(5) 0.000
O19_5 O 0.585(5) 0.675(4) 0.000
C21_5 C 0.647(9) 0.650(8) -0.000
C22_5 C 0.690(3) 0.710(3) -0.000
C23_3 C 0.7342(18) 0.7162(14) 0.0594(11)
Zr11_3 Zr 0.6168(3) 0.500 -0.000
H13_5 H 0.658289 0.751659 -3.04965e-18
H14_3 H 0.705901 0.71008 0.103021
H15_3 H 0.771435 0.679446 0.0574539
H21_3 H 0.728565 0.820554 0.0574539
H22_3 H 0.794099 0.78992 0.103021
H29_5 H 0.841711 0.748341 -1.36539e-19
O15_8 O 0.782(4) 1.000 1.000
O16_4 O 0.828(4) 0.912(5) 1.000
C17_6 C 0.853(9) 0.850(8) 1.000
C18_6 C 0.810(3) 0.790(3) 1.000
C20_3 C 0.7658(18) 0.7838(14) 0.9406(11)
O18_6 O 0.672(4) 0.588(5) 1.000
O19_6 O 0.585(5) 0.675(4) 1.000
C21_6 C 0.647(9) 0.650(8) 1.000
C22_6 C 0.690(3) 0.710(3) 1.000
C24_3 C 0.7342(18) 0.7162(14) 0.9406(11)
Zr11_4 Zr 0.6168(3) 0.500 1.000
H3_3 H 0.771435 0.679446 0.942546
H4_3 H 0.705901 0.71008 0.896979
H13_6 H 0.658289 0.751659 1
H29_6 H 0.841711 0.748341 1
H35_3 H 0.794099 0.78992 0.896979
H36_3 H 0.728565 0.820554 0.942546
C9_7 C 0.147(9) 0.150(8) -0.000
C10_7 C 0.190(3) 0.210(3) 0.000
C12_4 C 0.2342(18) 0.2162(14) 0.0594(11)
O13_7 O 0.328(4) 0.412(5) -0.000
O14_7 O 0.415(5) 0.325(4) -0.000
C13_7 C 0.353(9) 0.350(8) 0.000
C14_7 C 0.310(3) 0.290(3) 0.000
C16_4 C 0.2658(18) 0.2838(14) 0.0594(11)
Zr9_3 Zr 0.500 0.3832(3) -0.000
H2_7 H 0.158289 0.251659 4.49263e-18
H11_4 H 0.271435 0.179446 0.0574539
H12_4 H 0.205901 0.21008 0.103021
H16_4 H 0.294099 0.28992 0.103021
H17_4 H 0.228565 0.320554 0.0574539
H34_7 H 0.341711 0.248341 -4.49263e-18
C9_8 C 0.147(9) 0.150(8) 1.000
C10_8 C 0.190(3) 0.210(3) 1.000
C11_4 C 0.2342(18) 0.2162(14) 0.9406(11)
O13_8 O 0.328(4) 0.412(5) 1.000
O14_8 O 0.415(5) 0.325(4) 1.000
C13_8 C 0.353(9) 0.350(8) 1.000
C14_8 C 0.310(3) 0.290(3) 1.000
C15_4 C 0.2658(18) 0.2838(14) 0.9406(11)
Zr9_4 Zr 0.500 0.3832(3) 1.000
H2_8 H 0.158289 0.251659 1
H25_4 H 0.205901 0.21008 0.896979
H26_4 H 0.271435 0.179446 0.942546
H30_4 H 0.228565 0.320554 0.942546
H31_4 H 0.294099 0.28992 0.896979
H34_8 H 0.341711 0.248341 1
H9_4 H 0.233913 0.988351 0.043476
H10_4 H 0.233913 0.968173 0.968173
C17_7 C 0.853(9) 0.150(8) 0.000
C18_7 C 0.810(3) 0.210(3) 0.000
C20_4 C 0.7658(18) 0.2162(14) 0.0594(11)
O18_7 O 0.672(4) 0.412(5) 0.000
O19_7 O 0.585(5) 0.325(4) -0.000
C21_7 C 0.647(9) 0.350(8) 0.000
C22_7 C 0.690(3) 0.290(3) 0.000
C24_4 C 0.7342(18) 0.2838(14) 0.0594(11)
H3_4 H 0.771435 0.320554 0.0574539
H4_4 H 0.705901 0.28992 0.103021
H13_7 H 0.658289 0.248341 3.04965e-18
H29_7 H 0.841711 0.251659 1.36539e-19
H35_4 H 0.794099 0.21008 0.103021
H36_4 H 0.728565 0.179446 0.0574539
C17_8 C 0.853(9) 0.150(8) 1.000
C18_8 C 0.810(3) 0.210(3) 1.000
C19_4 C 0.7658(18) 0.2162(14) 0.9406(11)
O18_8 O 0.672(4) 0.412(5) 1.000
O19_8 O 0.585(5) 0.325(4) 1.000
C21_8 C 0.647(9) 0.350(8) 1.000
C22_8 C 0.690(3) 0.290(3) 1.000
C23_4 C 0.7342(18) 0.2838(14) 0.9406(11)
H13_8 H 0.658289 0.248341 1
H14_4 H 0.705901 0.28992 0.896979
H15_4 H 0.771435 0.320554 0.942546
H21_4 H 0.728565 0.179446 0.942546
H22_4 H 0.794099 0.21008 0.896979
H29_8 H 0.841711 0.251659 1
H6_4 H 0.766087 0.968173 0.0318266
H5_4 H 0.766087 0.988351 0.956524
C17_9 C 0.150(8) -0.000 0.853(9)
C18_9 C 0.210(3) -0.000 0.810(3)
C20_5 C 0.2162(14) 0.0594(11) 0.7658(18)
O18_9 O 0.412(5) 0.000 0.672(4)
O19_9 O 0.325(4) -0.000 0.585(5)
C21_9 C 0.350(8) 0.000 0.647(9)
C22_9 C 0.290(3) 0.000 0.690(3)
C24_5 C 0.2838(14) 0.0594(11) 0.7342(18)
H3_5 H 0.320554 0.0574539 0.771435
H4_5 H 0.28992 0.103021 0.705901
H13_9 H 0.248341 3.04965e-18 0.658289
H29_9 H 0.251659 1.36539e-19 0.841711
H35_5 H 0.21008 0.103021 0.794099
H36_5 H 0.179446 0.0574539 0.728565
C17_10 C 0.150(8) 1.000 0.853(9)
C18_10 C 0.210(3) 1.000 0.810(3)
C19_5 C 0.2162(14) 0.9406(11) 0.7658(18)
O18_10 O 0.412(5) 1.000 0.672(4)
O19_10 O 0.325(4) 1.000 0.585(5)
C21_10 C 0.350(8) 1.000 0.647(9)
C22_10 C 0.290(3) 1.000 0.690(3)
C23_5 C 0.2838(14) 0.9406(11) 0.7342(18)
H13_10 H 0.248341 1 0.658289
H14_5 H 0.28992 0.896979 0.705901
H15_5 H 0.320554 0.942546 0.771435
H21_5 H 0.179446 0.942546 0.728565
H22_5 H 0.21008 0.896979 0.794099
H29_10 H 0.251659 1 0.841711
H6_5 H 0.968173 0.0318266 0.766087
H5_5 H 0.988351 0.956524 0.766087
Zr1_5 Zr 0.500 0.500 0.1168(3)
O1_2 O 0.5588(6) 0.5588(6) 0.0588(6)
O2_5 O 0.588(5) 0.500 0.172(4)
O3_7 O 0.675(4) 0.500 0.085(5)
C1_7 C 0.650(8) 0.500 0.147(9)
C2_7 C 0.710(3) 0.500 0.190(3)
C3_4 C 0.7162(14) 0.4406(11) 0.2342(18)
O4_9 O 0.500 0.500 0.218(4)
C4_4 C 0.7162(14) 0.5594(11) 0.2342(18)
O5_7 O 0.912(5) 0.500 0.328(4)
O6_7 O 0.825(4) 0.500 0.415(5)
C5_7 C 0.850(8) 0.500 0.353(9)
C6_7 C 0.790(3) 0.500 0.310(3)
C7_4 C 0.7838(14) 0.4406(11) 0.2658(18)
C8_4 C 0.7838(14) 0.5594(11) 0.2658(18)
O7_2 O 0.4412(6) 0.4412(6) 0.0588(6)
O8_2 O 0.4412(6) 0.5588(6) 0.0588(6)
O10_9 O 0.500 0.282(4) 0.000
O11_5 O 0.500 0.328(4) 0.088(5)
O12_5 O 0.500 0.415(5) 0.175(4)
C9_9 C 0.500 0.353(9) 0.150(8)
C10_9 C 0.500 0.310(3) 0.210(3)
C11_5 C 0.5594(11) 0.2658(18) 0.2162(14)
C12_5 C 0.4406(11) 0.2658(18) 0.2162(14)
O13_9 O 0.500 0.172(4) 0.412(5)
O14_9 O 0.500 0.085(5) 0.325(4)
C13_9 C 0.500 0.147(9) 0.350(8)
C14_9 C 0.500 0.190(3) 0.290(3)
C15_5 C 0.5594(11) 0.2342(18) 0.2838(14)
C16_5 C 0.4406(11) 0.2342(18) 0.2838(14)
O15_9 O 0.500 0.718(4) 0.000
O16_5 O 0.500 0.672(4) 0.088(5)
O17_5 O 0.500 0.585(5) 0.175(4)
C17_11 C 0.500 0.647(9) 0.150(8)
C18_11 C 0.500 0.690(3) 0.210(3)
C19_6 C 0.5594(11) 0.7342(18) 0.2162(14)
C20_6 C 0.4406(11) 0.7342(18) 0.2162(14)
O18_11 O 0.500 0.828(4) 0.412(5)
O19_11 O 0.500 0.915(5) 0.325(4)
C21_11 C 0.500 0.853(9) 0.350(8)
C22_11 C 0.500 0.810(3) 0.290(3)
C23_6 C 0.5594(11) 0.7658(18) 0.2838(14)
C24_6 C 0.4406(11) 0.7658(18) 0.2838(14)
Zr8_5 Zr 0.8832(3) 0.500 0.500
Zr11_5 Zr 0.500 0.8832(3) 0.500
Zr12_5 Zr 0.500 0.1168(3) 0.500
O22_2 O 0.5588(6) 0.4412(6) 0.0588(6)
O24_5 O 0.412(5) 0.500 0.172(4)
H1_7 H 0.751659 0.5 0.158289
H2_9 H 0.5 0.341711 0.251659
H3_6 H 0.442546 0.728565 0.320554
H4_6 H 0.396979 0.794099 0.28992
H7_4 H 0.679446 0.557454 0.271435
H8_4 H 0.71008 0.603021 0.205901
H11_5 H 0.442546 0.228565 0.179446
H12_5 H 0.396979 0.294099 0.21008
H13_11 H 0.5 0.841711 0.248341
H14_6 H 0.603021 0.794099 0.28992
H15_6 H 0.557454 0.728565 0.320554
H16_5 H 0.396979 0.205901 0.28992
H17_5 H 0.442546 0.271435 0.320554
H18_7 H 0.748341 0.5 0.341711
H19_4 H 0.820554 0.442546 0.228565
H20_4 H 0.78992 0.396979 0.294099
H21_6 H 0.557454 0.771435 0.179446
H22_6 H 0.603021 0.705901 0.21008
H23_4 H 0.71008 0.396979 0.205901
H24_4 H 0.679446 0.442546 0.271435
H25_5 H 0.603021 0.294099 0.21008
H26_5 H 0.557454 0.228565 0.179446
H27_4 H 0.78992 0.603021 0.294099
H28_4 H 0.820554 0.557454 0.228565
H29_11 H 0.5 0.658289 0.251659
H30_5 H 0.557454 0.271435 0.320554
H31_5 H 0.603021 0.205901 0.28992
H34_9 H 0.5 0.158289 0.248341
H35_6 H 0.396979 0.705901 0.21008
H36_6 H 0.442546 0.771435 0.179446
O9_2 O 0.4412(6) 0.4412(6) 0.9412(6)
O10_10 O 0.500 0.282(4) 1.000
O15_10 O 0.500 0.718(4) 1.000
Zr4_5 Zr 0.500 0.500 0.8832(3)
O20_2 O 0.4412(6) 0.5588(6) 0.9412(6)
O21_2 O 0.5588(6) 0.4412(6) 0.9412(6)
O23_2 O 0.5588(6) 0.5588(6) 0.9412(6)
O25_5 O 0.500 0.328(4) 0.912(5)
O26_5 O 0.500 0.672(4) 0.912(5)
O3_8 O 0.325(4) 0.500 0.085(5)
C1_8 C 0.350(8) 0.500 0.147(9)
C2_8 C 0.290(3) 0.500 0.190(3)
C3_5 C 0.2838(14) 0.5594(11) 0.2342(18)
C4_5 C 0.2838(14) 0.4406(11) 0.2342(18)
O5_8 O 0.088(5) 0.500 0.328(4)
O6_8 O 0.175(4) 0.500 0.415(5)
C5_8 C 0.150(8) 0.500 0.353(9)
C6_8 C 0.210(3) 0.500 0.310(3)
C7_5 C 0.2162(14) 0.5594(11) 0.2658(18)
C8_5 C 0.2162(14) 0.4406(11) 0.2658(18)
Zr8_6 Zr 0.1168(3) 0.500 0.500
H1_8 H 0.248341 0.5 0.158289
H7_5 H 0.320554 0.442546 0.271435
H8_5 H 0.28992 0.396979 0.205901
H18_8 H 0.251659 0.5 0.341711
H19_5 H 0.179446 0.557454 0.228565
H20_5 H 0.21008 0.603021 0.294099
H23_5 H 0.28992 0.603021 0.205901
H24_5 H 0.320554 0.557454 0.271435
H27_5 H 0.21008 0.396979 0.294099
H28_5 H 0.179446 0.442546 0.228565
O2_6 O 0.412(5) 0.500 0.828(4)
O3_9 O 0.325(4) 0.500 0.915(5)
C1_9 C 0.350(8) 0.500 0.853(9)
C2_9 C 0.290(3) 0.500 0.810(3)
C3_6 C 0.2838(14) 0.4406(11) 0.7658(18)
O4_10 O 0.500 0.500 0.782(4)
C4_6 C 0.2838(14) 0.5594(11) 0.7658(18)
O5_9 O 0.088(5) 0.500 0.672(4)
O6_9 O 0.175(4) 0.500 0.585(5)
C5_9 C 0.150(8) 0.500 0.647(9)
C6_9 C 0.210(3) 0.500 0.690(3)
C7_6 C 0.2162(14) 0.4406(11) 0.7342(18)
C8_6 C 0.2162(14) 0.5594(11) 0.7342(18)
O12_6 O 0.500 0.415(5) 0.825(4)
C9_10 C 0.500 0.353(9) 0.850(8)
C10_10 C 0.500 0.310(3) 0.790(3)
C11_6 C 0.4406(11) 0.2658(18) 0.7838(14)
C12_6 C 0.5594(11) 0.2658(18) 0.7838(14)
O13_10 O 0.500 0.172(4) 0.588(5)
O14_10 O 0.500 0.085(5) 0.675(4)
C13_10 C 0.500 0.147(9) 0.650(8)
C14_10 C 0.500 0.190(3) 0.710(3)
C15_6 C 0.4406(11) 0.2342(18) 0.7162(14)
C16_6 C 0.5594(11) 0.2342(18) 0.7162(14)
O17_6 O 0.500 0.585(5) 0.825(4)
C17_12 C 0.500 0.647(9) 0.850(8)
C18_12 C 0.500 0.690(3) 0.790(3)
C19_7 C 0.4406(11) 0.7342(18) 0.7838(14)
C20_7 C 0.5594(11) 0.7342(18) 0.7838(14)
O18_12 O 0.500 0.828(4) 0.588(5)
O19_12 O 0.500 0.915(5) 0.675(4)
C21_12 C 0.500 0.853(9) 0.650(8)
C22_12 C 0.500 0.810(3) 0.710(3)
C23_7 C 0.4406(11) 0.7658(18) 0.7162(14)
C24_7 C 0.5594(11) 0.7658(18) 0.7162(14)
O24_6 O 0.588(5) 0.500 0.828(4)
H1_9 H 0.248341 0.5 0.841711
H2_10 H 0.5 0.341711 0.748341
H3_7 H 0.557454 0.728565 0.679446
H4_7 H 0.603021 0.794099 0.71008
H7_6 H 0.320554 0.557454 0.728565
H8_6 H 0.28992 0.603021 0.794099
H11_6 H 0.557454 0.228565 0.820554
H12_6 H 0.603021 0.294099 0.78992
H13_12 H 0.5 0.841711 0.751659
H14_7 H 0.396979 0.794099 0.71008
H15_7 H 0.442546 0.728565 0.679446
H16_6 H 0.603021 0.205901 0.71008
H17_6 H 0.557454 0.271435 0.679446
H18_9 H 0.251659 0.5 0.658289
H19_6 H 0.179446 0.442546 0.771435
H20_6 H 0.21008 0.396979 0.705901
H21_7 H 0.442546 0.771435 0.820554
H22_7 H 0.396979 0.705901 0.78992
H23_6 H 0.28992 0.396979 0.794099
H24_6 H 0.320554 0.442546 0.728565
H25_6 H 0.396979 0.294099 0.78992
H26_6 H 0.442546 0.228565 0.820554
H27_6 H 0.21008 0.603021 0.705901
H28_6 H 0.179446 0.557454 0.771435
H29_12 H 0.5 0.658289 0.748341
H30_6 H 0.442546 0.271435 0.679446
H31_6 H 0.396979 0.205901 0.71008
H34_10 H 0.5 0.158289 0.751659
H35_7 H 0.603021 0.705901 0.78992
H36_7 H 0.557454 0.771435 0.820554
O10_11 O 0.718(4) 0.500 0.000
O15_11 O 0.282(4) 0.500 -0.000
O10_12 O 0.718(4) 0.500 1.000
O15_12 O 0.282(4) 0.500 1.000
O27_5 O 0.675(4) 0.500 0.915(5)
C17_13 C 0.650(8) 0.500 0.853(9)
C18_13 C 0.710(3) 0.500 0.810(3)
C19_8 C 0.7162(14) 0.4406(11) 0.7658(18)
C20_8 C 0.7162(14) 0.5594(11) 0.7658(18)
O18_13 O 0.912(5) 0.500 0.672(4)
O19_13 O 0.825(4) 0.500 0.585(5)
C21_13 C 0.850(8) 0.500 0.647(9)
C22_13 C 0.790(3) 0.500 0.690(3)
C23_8 C 0.7838(14) 0.4406(11) 0.7342(18)
C24_8 C 0.7838(14) 0.5594(11) 0.7342(18)
H3_8 H 0.820554 0.557454 0.771435
H4_8 H 0.78992 0.603021 0.705901
H13_13 H 0.748341 0.5 0.658289
H14_8 H 0.78992 0.396979 0.705901
H15_8 H 0.820554 0.442546 0.771435
H21_8 H 0.679446 0.442546 0.728565
H22_8 H 0.71008 0.396979 0.794099
H29_13 H 0.751659 0.5 0.841711
H35_8 H 0.71008 0.603021 0.794099
H36_8 H 0.679446 0.557454 0.728565
O1_3 O 0.5588(6) 0.0588(6) 0.5588(6)
O4_11 O 0.500 0.000 0.718(4)
O8_3 O 0.4412(6) 0.0588(6) 0.5588(6)
O15_13 O 0.500 0.218(4) 0.500
O20_3 O 0.4412(6) 0.0588(6) 0.4412(6)
O23_3 O 0.5588(6) 0.0588(6) 0.4412(6)
O28_3 O 0.415(5) 0.175(4) 0.500
O30_3 O 0.585(5) 0.175(4) 0.500
O4_12 O 0.500 1.000 0.718(4)
O7_3 O 0.4412(6) 0.9412(6) 0.5588(6)
O9_3 O 0.4412(6) 0.9412(6) 0.4412(6)
O10_13 O 0.500 0.782(4) 0.500
O21_3 O 0.5588(6) 0.9412(6) 0.4412(6)
O22_3 O 0.5588(6) 0.9412(6) 0.5588(6)
O27_6 O 0.415(5) 0.825(4) 0.500
O29_3 O 0.585(5) 0.825(4) 0.500
O4_13 O 0.500 -0.000 0.282(4)
O4_14 O 0.500 1.000 0.282(4)
O10_14 O 0.718(4) -0.000 0.500
O15_14 O 0.282(4) -0.000 0.500
O25_6 O 0.672(4) 0.088(5) 0.500
O26_6 O 0.328(4) 0.088(5) 0.500
O10_15 O 0.718(4) 1.000 0.500
O11_6 O 0.672(4) 0.912(5) 0.500
C9_11 C 0.647(9) 0.850(8) 0.500
C10_11 C 0.690(3) 0.790(3) 0.500
C11_7 C 0.7342(18) 0.7838(14) 0.5594(11)
C12_7 C 0.7342(18) 0.7838(14) 0.4406(11)
O13_11 O 0.828(4) 0.588(5) 0.500
O14_11 O 0.915(5) 0.675(4) 0.500
C13_11 C 0.853(9) 0.650(8) 0.500
C14_11 C 0.810(3) 0.710(3) 0.500
C15_7 C 0.7658(18) 0.7162(14) 0.5594(11)
C16_7 C 0.7658(18) 0.7162(14) 0.4406(11)
O15_15 O 0.282(4) 1.000 0.500
O16_6 O 0.328(4) 0.912(5) 0.500
C17_14 C 0.353(9) 0.850(8) 0.500
C18_14 C 0.310(3) 0.790(3) 0.500
C19_9 C 0.2658(18) 0.7838(14) 0.5594(11)
C20_9 C 0.2658(18) 0.7838(14) 0.4406(11)
O18_14 O 0.172(4) 0.588(5) 0.500
O19_14 O 0.085(5) 0.675(4) 0.500
C21_14 C 0.147(9) 0.650(8) 0.500
C22_14 C 0.190(3) 0.710(3) 0.500
C23_9 C 0.2342(18) 0.7162(14) 0.5594(11)
C24_9 C 0.2342(18) 0.7162(14) 0.4406(11)
H2_11 H 0.658289 0.748341 0.5
H3_9 H 0.271435 0.679446 0.442546
H4_9 H 0.205901 0.71008 0.396979
H11_7 H 0.771435 0.820554 0.442546
H12_7 H 0.705901 0.78992 0.396979
H13_14 H 0.158289 0.751659 0.5
H14_9 H 0.205901 0.71008 0.603021
H15_9 H 0.271435 0.679446 0.557454
H16_7 H 0.794099 0.71008 0.396979
H17_7 H 0.728565 0.679446 0.442546
H21_9 H 0.228565 0.820554 0.557454
H22_9 H 0.294099 0.78992 0.603021
H25_7 H 0.705901 0.78992 0.603021
H26_7 H 0.771435 0.820554 0.557454
H29_14 H 0.341711 0.748341 0.5
H30_7 H 0.728565 0.679446 0.557454
H31_7 H 0.794099 0.71008 0.603021
H34_11 H 0.841711 0.751659 0.5
H35_9 H 0.294099 0.78992 0.396979
H36_9 H 0.228565 0.820554 0.442546
C9_12 C 0.647(9) 0.150(8) 0.500
C10_12 C 0.690(3) 0.210(3) 0.500
C11_8 C 0.7342(18) 0.2162(14) 0.4406(11)
C12_8 C 0.7342(18) 0.2162(14) 0.5594(11)
O13_12 O 0.828(4) 0.412(5) 0.500
O14_12 O 0.915(5) 0.325(4) 0.500
C13_12 C 0.853(9) 0.350(8) 0.500
C14_12 C 0.810(3) 0.290(3) 0.500
C15_8 C 0.7658(18) 0.2838(14) 0.4406(11)
C16_8 C 0.7658(18) 0.2838(14) 0.5594(11)
C17_15 C 0.353(9) 0.150(8) 0.500
C18_15 C 0.310(3) 0.210(3) 0.500
C19_10 C 0.2658(18) 0.2162(14) 0.4406(11)
C20_10 C 0.2658(18) 0.2162(14) 0.5594(11)
O18_15 O 0.172(4) 0.412(5) 0.500
O19_15 O 0.085(5) 0.325(4) 0.500
C21_15 C 0.147(9) 0.350(8) 0.500
C22_15 C 0.190(3) 0.290(3) 0.500
C23_10 C 0.2342(18) 0.2838(14) 0.4406(11)
C24_10 C 0.2342(18) 0.2838(14) 0.5594(11)
H2_12 H 0.658289 0.251659 0.5
H3_10 H 0.271435 0.320554 0.557454
H4_10 H 0.205901 0.28992 0.603021
H11_8 H 0.771435 0.179446 0.557454
H12_8 H 0.705901 0.21008 0.603021
H13_15 H 0.158289 0.248341 0.5
H14_10 H 0.205901 0.28992 0.396979
H15_10 H 0.271435 0.320554 0.442546
H16_8 H 0.794099 0.28992 0.603021
H17_8 H 0.728565 0.320554 0.557454
H21_10 H 0.228565 0.179446 0.442546
H22_10 H 0.294099 0.21008 0.396979
H25_8 H 0.705901 0.21008 0.396979
H26_8 H 0.771435 0.179446 0.442546
H29_15 H 0.341711 0.251659 0.5
H30_8 H 0.728565 0.320554 0.442546
H31_8 H 0.794099 0.28992 0.396979
H34_12 H 0.841711 0.248341 0.5
H35_10 H 0.294099 0.21008 0.603021
H36_10 H 0.228565 0.179446 0.557454
O1_4 O 0.0588(6) 0.5588(6) 0.5588(6)
O4_15 O 0.000 0.500 0.718(4)
O10_16 O 0.000 0.282(4) 0.500
O15_16 O 0.000 0.718(4) 0.500
O21_4 O 0.0588(6) 0.4412(6) 0.4412(6)
O22_4 O 0.0588(6) 0.4412(6) 0.5588(6)
O23_4 O 0.0588(6) 0.5588(6) 0.4412(6)
O4_16 O 1.000 0.500 0.718(4)
O7_4 O 0.9412(6) 0.4412(6) 0.5588(6)
O8_4 O 0.9412(6) 0.5588(6) 0.5588(6)
O9_4 O 0.9412(6) 0.4412(6) 0.4412(6)
O10_17 O 1.000 0.282(4) 0.500
O15_17 O 1.000 0.718(4) 0.500
O20_4 O 0.9412(6) 0.5588(6) 0.4412(6)
O4_17 O 0.000 0.500 0.282(4)
O4_18 O 1.000 0.500 0.282(4)
O10_18 O 0.218(4) 0.500 0.500
O15_18 O 0.782(4) 0.500 0.500
H9_5 H 0.043476 0.233913 0.0116494
H33_4 H 0.0318266 0.0318266 0.766087
H6_6 H 0.0318266 0.766087 0.0318266
H32_4 H 0.0116494 0.956524 0.766087
H10_5 H 0.968173 0.233913 0.0318266
H5_6 H 0.956524 0.766087 0.0116494
H32_5 H 0.988351 0.043476 0.766087
H33_5 H 0.968173 0.968173 0.766087
H10_6 H 0.0318266 0.233913 0.968173
H5_7 H 0.043476 0.766087 0.988351
H33_6 H 0.968173 0.0318266 0.233913
H9_6 H 0.956524 0.233913 0.988351
H32_6 H 0.988351 0.956524 0.233913
H6_7 H 0.968173 0.766087 0.968173
H6_8 H 0.233913 0.968173 0.0318266
H5_8 H 0.233913 0.988351 0.956524
H9_7 H 0.766087 0.988351 0.043476
H10_7 H 0.766087 0.968173 0.968173
H5_9 H 0.233913 0.0116494 0.043476
H6_9 H 0.233913 0.0318266 0.968173
H10_8 H 0.766087 0.0318266 0.0318266
H9_8 H 0.766087 0.0116494 0.956524
H5_10 H 0.0116494 0.043476 0.233913
H6_10 H 0.0318266 0.968173 0.233913
loop_
_geom_bond_atom_site_label_1
_geom_bond_atom_site_label_2
_geom_bond_site_symmetry_1
_geom_bond_site_symmetry_2
Zr1 O1 1_555 1_555
O1 Zr3 1_555 1_555
O2 Zr1 1_555 1_555
O3 C1 1_555 1_555
C1 O2 1_555 1_555
C2 C1 1_555 1_555
O4 Zr1 1_555 1_555
C4 C2 1_555 1_555
O5 C5 1_555 1_555
O6 C5 1_555 1_555
C5 C6 1_555 1_555
C8 C4 1_555 1_555
O15 Zr3 1_555 1_555
O16 Zr3 1_555 1_555
O17 Zr1 1_555 1_555
C17 O16 1_555 1_555
C18 C17 1_555 1_555
C19 C18 1_555 1_555
O18 C21 1_555 1_555
O19 C21 1_555 1_555
C21 C22 1_555 1_555
C22 C23 1_555 1_555
C23 C19 1_555 1_555
Zr6 O1 1_555 1_555
Zr7 O5 1_555 1_555
Zr8 O6 1_555 1_555
Zr10 O19 1_555 1_555
Zr11 O18 1_555 1_555
O30 Zr3 1_555 1_555
O3 Zr6 1_555 1_555
C6 C8 1_555 1_555
O17 C17 1_555 1_555
C2 H1 1_555 1_555
C4 H7 1_555 1_555
C4 H8 1_555 1_555
C22 H13 1_555 1_555
C23 H14 1_555 1_555
C23 H15 1_555 1_555
C6 H18 1_555 1_555
C19 H21 1_555 1_555
C19 H22 1_555 1_555
C8 H27 1_555 1_555
C8 H28 1_555 1_555
C18 H29 1_555 1_555
O15_2 Zr3_2 1_555 1_555
O23 Zr3_2 1_555 1_555
O26 Zr3_2 1_555 1_555
O30_2 Zr3_2 1_555 1_555
Zr4 O23 1_555 1_555
Zr6_2 O23 1_555 1_555
O15_2 H5 1_555 1_555
O2_2 Zr1_2 1_555 1_555
O3_2 C1_2 1_555 1_555
C1_2 O2_2 1_555 1_555
C2_2 C1_2 1_555 1_555
C3 C2_2 1_555 1_555
O4_2 Zr1_2 1_555 1_555
O5_2 C5_2 1_555 1_555
O6_2 C5_2 1_555 1_555
C5_2 C6_2 1_555 1_555
C6_2 C7 1_555 1_555
C7 C3 1_555 1_555
O10 Zr2 1_555 1_555
O11 Zr2 1_555 1_555
O12 Zr1_2 1_555 1_555
C9 O11 1_555 1_555
C10 C9 1_555 1_555
C11 C10 1_555 1_555
O13 C13 1_555 1_555
O14 C13 1_555 1_555
C13 C14 1_555 1_555
C14 C15 1_555 1_555
C15 C11 1_555 1_555
Zr7_2 O5_2 1_555 1_555
Zr8_2 O6_2 1_555 1_555
Zr10 O14 1_555 1_555
Zr12 O13 1_555 1_555
O22 Zr1_2 1_555 1_555
O29 Zr2 1_555 1_555
O3_2 Zr6_3 1_555 1_555
Zr2 O22 1_555 1_555
O12 C9 1_555 1_555
Zr6_3 O22 1_555 1_555
C2_2 H1_2 1_555 1_555
C10 H2 1_555 1_555
C6_2 H18_2 1_555 1_555
C7 H19 1_555 1_555
C7 H20 1_555 1_555
C3 H23 1_555 1_555
C3 H24 1_555 1_555
C11 H25 1_555 1_555
C11 H26 1_555 1_555
C15 H30 1_555 1_555
C15 H31 1_555 1_555
C14 H34 1_555 1_555
O10_2 Zr2_2 1_555 1_555
O21 Zr2_2 1_555 1_555
O25 Zr2_2 1_555 1_555
O29_2 Zr2_2 1_555 1_555
Zr4_2 O21 1_555 1_555
Zr6_4 O21 1_555 1_555
O10_2 H10 1_555 1_555
O4_3 Zr1_3 1_555 1_555
O8 Zr1_3 1_555 1_555
Zr3_3 O8 1_555 1_555
O15_3 Zr3_3 1_555 1_555
O16_2 Zr3_3 1_555 1_555
O17_2 Zr1_3 1_555 1_555
C17_2 O16_2 1_555 1_555
C18_2 C17_2 1_555 1_555
C20 C18_2 1_555 1_555
O18_2 C21_2 1_555 1_555
O19_2 C21_2 1_555 1_555
C21_2 C22_2 1_555 1_555
C24 C20 1_555 1_555
Zr10_2 O19_2 1_555 1_555
Zr11_2 O18_2 1_555 1_555
O24 Zr1_3 1_555 1_555
O28 Zr3_3 1_555 1_555
O8 Zr5 1_555 1_555
O17_2 C17_2 1_555 1_555
C22_2 C24 1_555 1_555
C24 H3 1_555 1_555
C24 H4 1_555 1_555
C22_2 H13_2 1_555 1_555
C18_2 H29_2 1_555 1_555
O4_3 H32 1_555 1_555
C20 H35 1_555 1_555
C20 H36 1_555 1_555
O15_4 Zr3_4 1_555 1_555
O20 Zr3_4 1_555 1_555
O26_2 Zr3_4 1_555 1_555
O28_2 Zr3_4 1_555 1_555
Zr4_3 O20 1_555 1_555
Zr5_2 O20 1_555 1_555
O15_4 H6 1_555 1_555
O4_4 Zr1_4 1_555 1_555
O7 Zr1_4 1_555 1_555
Zr2_3 O7 1_555 1_555
O10_3 Zr2_3 1_555 1_555
O11_2 Zr2_3 1_555 1_555
O12_2 Zr1_4 1_555 1_555
C9_2 O11_2 1_555 1_555
C10_2 C9_2 1_555 1_555
C12 C10_2 1_555 1_555
O13_2 C13_2 1_555 1_555
O14_2 C13_2 1_555 1_555
C13_2 C14_2 1_555 1_555
C16 C12 1_555 1_555
Zr5_3 O7 1_555 1_555
Zr10_2 O14_2 1_555 1_555
Zr12_2 O13_2 1_555 1_555
O24_2 Zr1_4 1_555 1_555
O27 Zr2_3 1_555 1_555
O12_2 C9_2 1_555 1_555
C14_2 C16 1_555 1_555
C10_2 H2_2 1_555 1_555
C12 H11 1_555 1_555
C12 H12 1_555 1_555
C16 H16 1_555 1_555
C16 H17 1_555 1_555
O4_4 H33 1_555 1_555
C14_2 H34_2 1_555 1_555
O9 Zr2_4 1_555 1_555
O10_4 Zr2_4 1_555 1_555
Zr4_4 O9 1_555 1_555
O25_2 Zr2_4 1_555 1_555
O27_2 Zr2_4 1_555 1_555
O9 Zr5_4 1_555 1_555
O10_4 H9 1_555 1_555
O4 H33_2 1_555 1_555
O4_2 H32_2 1_555 1_555
O3_3 C1_3 1_555 1_555
C1_3 O24 1_555 1_555
C2_3 C1_3 1_555 1_555
C3_2 C2_3 1_555 1_555
O5_3 C5_3 1_555 1_555
O6_3 C5_3 1_555 1_555
C5_3 C6_3 1_555 1_555
C6_3 C7_2 1_555 1_555
C7_2 C3_2 1_555 1_555
Zr7 O5_3 1_555 1_555
Zr8_3 O6_3 1_555 1_555
O3_3 Zr5 1_555 1_555
C2_3 H1_3 1_555 1_555
C6_3 H18_3 1_555 1_555
C7_2 H19_2 1_555 1_555
C7_2 H20_2 1_555 1_555
C3_2 H23_2 1_555 1_555
C3_2 H24_2 1_555 1_555
O3_4 C1_4 1_555 1_555
C1_4 O24_2 1_555 1_555
C2_4 C1_4 1_555 1_555
C4_2 C2_4 1_555 1_555
O5_4 C5_4 1_555 1_555
O6_4 C5_4 1_555 1_555
C5_4 C6_4 1_555 1_555
C8_2 C4_2 1_555 1_555
Zr7_2 O5_4 1_555 1_555
Zr8_4 O6_4 1_555 1_555
O3_4 Zr5_3 1_555 1_555
C6_4 C8_2 1_555 1_555
C2_4 H1_4 1_555 1_555
C4_2 H7_2 1_555 1_555
C4_2 H8_2 1_555 1_555
C6_4 H18_4 1_555 1_555
C8_2 H27_2 1_555 1_555
C8_2 H28_2 1_555 1_555
O15 H6_2 1_555 1_555
O4_5 Zr4 1_555 1_555
O17_3 Zr4 1_555 1_555
C17_3 O26 1_555 1_555
C18_3 C17_3 1_555 1_555
C20_2 C18_3 1_555 1_555
O18_3 C21_3 1_555 1_555
O19_3 C21_3 1_555 1_555
C21_3 C22_3 1_555 1_555
C24_2 C20_2 1_555 1_555
Zr10_3 O19_3 1_555 1_555
Zr11 O18_3 1_555 1_555
O24_3 Zr4 1_555 1_555
O17_3 C17_3 1_555 1_555
C22_3 C24_2 1_555 1_555
C24_2 H3_2 1_555 1_555
C24_2 H4_2 1_555 1_555
C22_3 H13_3 1_555 1_555
C18_3 H29_3 1_555 1_555
O4_5 H32_3 1_555 1_555
C20_2 H35_2 1_555 1_555
C20_2 H36_2 1_555 1_555
O10 H9_2 1_555 1_555
O4_6 Zr4_2 1_555 1_555
O12_3 Zr4_2 1_555 1_555
C9_3 O25 1_555 1_555
C10_3 C9_3 1_555 1_555
C12_2 C10_3 1_555 1_555
O13_3 C13_3 1_555 1_555
O14_3 C13_3 1_555 1_555
C13_3 C14_3 1_555 1_555
C16_2 C12_2 1_555 1_555
Zr10_3 O14_3 1_555 1_555
Zr12 O13_3 1_555 1_555
O24_4 Zr4_2 1_555 1_555
O12_3 C9_3 1_555 1_555
C14_3 C16_2 1_555 1_555
C10_3 H2_3 1_555 1_555
C12_2 H11_2 1_555 1_555
C12_2 H12_2 1_555 1_555
C16_2 H16_2 1_555 1_555
C16_2 H17_2 1_555 1_555
O4_6 H33_3 1_555 1_555
C14_3 H34_3 1_555 1_555
O15_3 H5_2 1_555 1_555
O2_3 Zr4_3 1_555 1_555
O3_5 C1_5 1_555 1_555
C1_5 O2_3 1_555 1_555
C2_5 C1_5 1_555 1_555
O4_7 Zr4_3 1_555 1_555
C4_3 C2_5 1_555 1_555
O5_5 C5_5 1_555 1_555
O6_5 C5_5 1_555 1_555
C5_5 C6_5 1_555 1_555
C8_3 C4_3 1_555 1_555
O17_4 Zr4_3 1_555 1_555
C17_4 O26_2 1_555 1_555
C18_4 C17_4 1_555 1_555
C19_2 C18_4 1_555 1_555
O18_4 C21_4 1_555 1_555
O19_4 C21_4 1_555 1_555
C21_4 C22_4 1_555 1_555
C22_4 C23_2 1_555 1_555
C23_2 C19_2 1_555 1_555
Zr7_3 O5_5 1_555 1_555
Zr8_3 O6_5 1_555 1_555
Zr10_4 O19_4 1_555 1_555
Zr11_2 O18_4 1_555 1_555
O3_5 Zr5_2 1_555 1_555
C6_5 C8_3 1_555 1_555
O17_4 C17_4 1_555 1_555
C2_5 H1_5 1_555 1_555
C4_3 H7_3 1_555 1_555
C4_3 H8_3 1_555 1_555
C22_4 H13_4 1_555 1_555
C23_2 H14_2 1_555 1_555
C23_2 H15_2 1_555 1_555
C6_5 H18_5 1_555 1_555
C19_2 H21_2 1_555 1_555
C19_2 H22_2 1_555 1_555
C8_3 H27_3 1_555 1_555
C8_3 H28_3 1_555 1_555
C18_4 H29_4 1_555 1_555
O10_3 H10_2 1_555 1_555
O2_4 Zr4_4 1_555 1_555
O3_6 C1_6 1_555 1_555
C1_6 O2_4 1_555 1_555
C2_6 C1_6 1_555 1_555
C3_3 C2_6 1_555 1_555
O4_8 Zr4_4 1_555 1_555
O5_6 C5_6 1_555 1_555
O6_6 C5_6 1_555 1_555
C5_6 C6_6 1_555 1_555
C6_6 C7_3 1_555 1_555
C7_3 C3_3 1_555 1_555
O12_4 Zr4_4 1_555 1_555
C9_4 O25_2 1_555 1_555
C10_4 C9_4 1_555 1_555
C11_2 C10_4 1_555 1_555
O13_4 C13_4 1_555 1_555
O14_4 C13_4 1_555 1_555
C13_4 C14_4 1_555 1_555
C14_4 C15_2 1_555 1_555
C15_2 C11_2 1_555 1_555
Zr7_4 O5_6 1_555 1_555
Zr8_4 O6_6 1_555 1_555
Zr10_4 O14_4 1_555 1_555
Zr12_2 O13_4 1_555 1_555
O3_6 Zr5_4 1_555 1_555
O12_4 C9_4 1_555 1_555
C2_6 H1_6 1_555 1_555
C10_4 H2_4 1_555 1_555
C6_6 H18_6 1_555 1_555
C7_3 H19_3 1_555 1_555
C7_3 H20_3 1_555 1_555
C3_3 H23_3 1_555 1_555
C3_3 H24_3 1_555 1_555
C11_2 H25_2 1_555 1_555
C11_2 H26_2 1_555 1_555
C15_2 H30_2 1_555 1_555
C15_2 H31_2 1_555 1_555
C14_4 H34_4 1_555 1_555
O10_5 Zr6 1_555 1_555
O25_3 Zr6 1_555 1_555
O10_5 H10_3 1_555 1_555
O10_6 Zr6_2 1_555 1_555
O25_4 Zr6_2 1_555 1_555
O27_3 Zr6_2 1_555 1_555
O10_6 H9_3 1_555 1_555
O10_7 Zr6_3 1_555 1_555
O11_3 Zr6_3 1_555 1_555
C9_5 O11_3 1_555 1_555
C10_5 C9_5 1_555 1_555
C11_3 C10_5 1_555 1_555
O13_5 C13_5 1_555 1_555
O14_5 C13_5 1_555 1_555
C13_5 C14_5 1_555 1_555
C14_5 C15_3 1_555 1_555
C15_3 C11_3 1_555 1_555
Zr9 O14_5 1_555 1_555
Zr12_3 O13_5 1_555 1_555
O29 C9_5 1_555 1_555
C10_5 H2_5 1_555 1_555
C11_3 H25_3 1_555 1_555
C11_3 H26_3 1_555 1_555
C15_3 H30_3 1_555 1_555
C15_3 H31_3 1_555 1_555
C14_5 H34_5 1_555 1_555
O10_8 Zr6_4 1_555 1_555
O11_4 Zr6_4 1_555 1_555
C9_6 O11_4 1_555 1_555
C10_6 C9_6 1_555 1_555
C12_3 C10_6 1_555 1_555
O13_6 C13_6 1_555 1_555
O14_6 C13_6 1_555 1_555
C13_6 C14_6 1_555 1_555
C16_3 C12_3 1_555 1_555
Zr9_2 O14_6 1_555 1_555
Zr12_4 O13_6 1_555 1_555
O27_4 Zr6_4 1_555 1_555
O29_2 C9_6 1_555 1_555
C14_6 C16_3 1_555 1_555
C10_6 H2_6 1_555 1_555
C12_3 H11_3 1_555 1_555
C12_3 H12_3 1_555 1_555
C16_3 H16_3 1_555 1_555
C16_3 H17_3 1_555 1_555
C14_6 H34_6 1_555 1_555
O15_5 Zr5 1_555 1_555
O26_3 Zr5 1_555 1_555
O15_5 H5_3 1_555 1_555
O15_6 Zr5_2 1_555 1_555
O26_4 Zr5_2 1_555 1_555
O15_6 H6_3 1_555 1_555
O15_7 Zr5_3 1_555 1_555
O16_3 Zr5_3 1_555 1_555
C17_5 O16_3 1_555 1_555
C18_5 C17_5 1_555 1_555
C19_3 C18_5 1_555 1_555
O18_5 C21_5 1_555 1_555
O19_5 C21_5 1_555 1_555
C21_5 C22_5 1_555 1_555
C22_5 C23_3 1_555 1_555
C23_3 C19_3 1_555 1_555
Zr9 O19_5 1_555 1_555
Zr11_3 O18_5 1_555 1_555
O27 C17_5 1_555 1_555
C22_5 H13_5 1_555 1_555
C23_3 H14_3 1_555 1_555
C23_3 H15_3 1_555 1_555
C19_3 H21_3 1_555 1_555
C19_3 H22_3 1_555 1_555
C18_5 H29_5 1_555 1_555
O15_8 Zr5_4 1_555 1_555
O16_4 Zr5_4 1_555 1_555
C17_6 O16_4 1_555 1_555
C18_6 C17_6 1_555 1_555
C20_3 C18_6 1_555 1_555
O18_6 C21_6 1_555 1_555
O19_6 C21_6 1_555 1_555
C21_6 C22_6 1_555 1_555
C24_3 C20_3 1_555 1_555
Zr9_2 O19_6 1_555 1_555
Zr11_4 O18_6 1_555 1_555
O27_2 C17_6 1_555 1_555
C22_6 C24_3 1_555 1_555
C24_3 H3_3 1_555 1_555
C24_3 H4_3 1_555 1_555
C22_6 H13_6 1_555 1_555
C18_6 H29_6 1_555 1_555
C20_3 H35_3 1_555 1_555
C20_3 H36_3 1_555 1_555
C9_7 O25_3 1_555 1_555
C10_7 C9_7 1_555 1_555
C12_4 C10_7 1_555 1_555
O13_7 C13_7 1_555 1_555
O14_7 C13_7 1_555 1_555
C13_7 C14_7 1_555 1_555
C16_4 C12_4 1_555 1_555
Zr9_3 O14_7 1_555 1_555
Zr12_3 O13_7 1_555 1_555
O30 C9_7 1_555 1_555
C14_7 C16_4 1_555 1_555
C10_7 H2_7 1_555 1_555
C12_4 H11_4 1_555 1_555
C12_4 H12_4 1_555 1_555
C16_4 H16_4 1_555 1_555
C16_4 H17_4 1_555 1_555
C14_7 H34_7 1_555 1_555
C9_8 O25_4 1_555 1_555
C10_8 C9_8 1_555 1_555
C11_4 C10_8 1_555 1_555
O13_8 C13_8 1_555 1_555
O14_8 C13_8 1_555 1_555
C13_8 C14_8 1_555 1_555
C14_8 C15_4 1_555 1_555
C15_4 C11_4 1_555 1_555
Zr9_4 O14_8 1_555 1_555
Zr12_4 O13_8 1_555 1_555
O30_2 C9_8 1_555 1_555
C10_8 H2_8 1_555 1_555
C11_4 H25_4 1_555 1_555
C11_4 H26_4 1_555 1_555
C15_4 H30_4 1_555 1_555
C15_4 H31_4 1_555 1_555
C14_8 H34_8 1_555 1_555
O10_7 H9_4 1_555 1_555
O10_8 H10_4 1_555 1_555
C17_7 O26_3 1_555 1_555
C18_7 C17_7 1_555 1_555
C20_4 C18_7 1_555 1_555
O18_7 C21_7 1_555 1_555
O19_7 C21_7 1_555 1_555
C21_7 C22_7 1_555 1_555
C24_4 C20_4 1_555 1_555
Zr9_3 O19_7 1_555 1_555
Zr11_3 O18_7 1_555 1_555
O28 C17_7 1_555 1_555
C22_7 C24_4 1_555 1_555
C24_4 H3_4 1_555 1_555
C24_4 H4_4 1_555 1_555
C22_7 H13_7 1_555 1_555
C18_7 H29_7 1_555 1_555
C20_4 H35_4 1_555 1_555
C20_4 H36_4 1_555 1_555
C17_8 O26_4 1_555 1_555
C18_8 C17_8 1_555 1_555
C19_4 C18_8 1_555 1_555
O18_8 C21_8 1_555 1_555
O19_8 C21_8 1_555 1_555
C21_8 C22_8 1_555 1_555
C22_8 C23_4 1_555 1_555
C23_4 C19_4 1_555 1_555
Zr9_4 O19_8 1_555 1_555
Zr11_4 O18_8 1_555 1_555
O28_2 C17_8 1_555 1_555
C22_8 H13_8 1_555 1_555
C23_4 H14_4 1_555 1_555
C23_4 H15_4 1_555 1_555
C19_4 H21_4 1_555 1_555
C19_4 H22_4 1_555 1_555
C18_8 H29_8 1_555 1_555
O15_7 H6_4 1_555 1_555
O15_8 H5_4 1_555 1_555
C17_9 O24_3 1_555 1_555
C18_9 C17_9 1_555 1_555
C20_5 C18_9 1_555 1_555
O18_9 C21_9 1_555 1_555
O19_9 C21_9 1_555 1_555
C21_9 C22_9 1_555 1_555
C24_5 C20_5 1_555 1_555
Zr8 O19_9 1_555 1_555
Zr7_3 O18_9 1_555 1_555
O27_3 C17_9 1_555 1_555
C22_9 C24_5 1_555 1_555
C24_5 H3_5 1_555 1_555
C24_5 H4_5 1_555 1_555
C22_9 H13_9 1_555 1_555
C18_9 H29_9 1_555 1_555
C20_5 H35_5 1_555 1_555
C20_5 H36_5 1_555 1_555
C17_10 O24_4 1_555 1_555
C18_10 C17_10 1_555 1_555
C19_5 C18_10 1_555 1_555
O18_10 C21_10 1_555 1_555
O19_10 C21_10 1_555 1_555
C21_10 C22_10 1_555 1_555
C22_10 C23_5 1_555 1_555
C23_5 C19_5 1_555 1_555
Zr8_2 O19_10 1_555 1_555
Zr7_4 O18_10 1_555 1_555
O27_4 C17_10 1_555 1_555
C22_10 H13_10 1_555 1_555
C23_5 H14_5 1_555 1_555
C23_5 H15_5 1_555 1_555
C19_5 H21_5 1_555 1_555
C19_5 H22_5 1_555 1_555
C18_10 H29_10 1_555 1_555
O4_7 H6_5 1_555 1_555
O4_8 H5_5 1_555 1_555
Zr1_5 O1_2 1_555 1_555
O1_2 Zr9 1_555 1_555
O2_5 Zr1_5 1_555 1_555
O3_7 C1_7 1_555 1_555
C1_7 O2_5 1_555 1_555
C2_7 C1_7 1_555 1_555
C3_4 C2_7 1_555 1_555
O4_9 Zr1_5 1_555 1_555
C4_4 C2_7 1_555 1_555
O5_7 C5_7 1_555 1_555
O6_7 C5_7 1_555 1_555
C5_7 C6_7 1_555 1_555
C6_7 C7_4 1_555 1_555
C7_4 C3_4 1_555 1_555
C8_4 C4_4 1_555 1_555
O7_2 Zr1_5 1_555 1_555
O8_2 Zr1_5 1_555 1_555
Zr9_3 O7_2 1_555 1_555
O10_9 Zr9_3 1_555 1_555
O11_5 Zr9_3 1_555 1_555
O12_5 Zr1_5 1_555 1_555
C9_9 O11_5 1_555 1_555
C10_9 C9_9 1_555 1_555
C11_5 C10_9 1_555 1_555
C12_5 C10_9 1_555 1_555
O13_9 C13_9 1_555 1_555
O14_9 C13_9 1_555 1_555
C13_9 C14_9 1_555 1_555
C14_9 C15_5 1_555 1_555
C15_5 C11_5 1_555 1_555
C16_5 C12_5 1_555 1_555
Zr9 O8_2 1_555 1_555
O15_9 Zr9 1_555 1_555
O16_5 Zr9 1_555 1_555
O17_5 Zr1_5 1_555 1_555
C17_11 O16_5 1_555 1_555
C18_11 C17_11 1_555 1_555
C19_6 C18_11 1_555 1_555
C20_6 C18_11 1_555 1_555
O18_11 C21_11 1_555 1_555
O19_11 C21_11 1_555 1_555
C21_11 C22_11 1_555 1_555
C22_11 C23_6 1_555 1_555
C23_6 C19_6 1_555 1_555
C24_6 C20_6 1_555 1_555
Zr12_3 O7_2 1_555 1_555
Zr11_3 O1_2 1_555 1_555
Zr10_2 O5_7 1_555 1_555
Zr8_5 O6_7 1_555 1_555
Zr7 O14_9 1_555 1_555
Zr7_2 O19_11 1_555 1_555
Zr11_5 O18_11 1_555 1_555
Zr12_5 O13_9 1_555 1_555
O22_2 Zr1_5 1_555 1_555
O24_5 Zr1_5 1_555 1_555
O3_7 Zr11_3 1_555 1_555
C6_7 C8_4 1_555 1_555
O8_2 Zr12_3 1_555 1_555
Zr9_3 O22_2 1_555 1_555
O12_5 C9_9 1_555 1_555
C14_9 C16_5 1_555 1_555
O17_5 C17_11 1_555 1_555
C22_11 C24_6 1_555 1_555
Zr11_3 O22_2 1_555 1_555
C2_7 H1_7 1_555 1_555
C10_9 H2_9 1_555 1_555
C24_6 H3_6 1_555 1_555
C24_6 H4_6 1_555 1_555
C4_4 H7_4 1_555 1_555
C4_4 H8_4 1_555 1_555
C12_5 H11_5 1_555 1_555
C12_5 H12_5 1_555 1_555
C22_11 H13_11 1_555 1_555
C23_6 H14_6 1_555 1_555
C23_6 H15_6 1_555 1_555
C16_5 H16_5 1_555 1_555
C16_5 H17_5 1_555 1_555
C6_7 H18_7 1_555 1_555
C7_4 H19_4 1_555 1_555
C7_4 H20_4 1_555 1_555
C19_6 H21_6 1_555 1_555
C19_6 H22_6 1_555 1_555
C3_4 H23_4 1_555 1_555
C3_4 H24_4 1_555 1_555
C11_5 H25_5 1_555 1_555
C11_5 H26_5 1_555 1_555
C8_4 H27_4 1_555 1_555
C8_4 H28_4 1_555 1_555
C18_11 H29_11 1_555 1_555
C15_5 H30_5 1_555 1_555
C15_5 H31_5 1_555 1_555
C14_9 H34_9 1_555 1_555
C20_6 H35_6 1_555 1_555
C20_6 H36_6 1_555 1_555
O9_2 Zr9_4 1_555 1_555
O10_10 Zr9_4 1_555 1_555
O15_10 Zr9_2 1_555 1_555
Zr4_5 O9_2 1_555 1_555
O20_2 Zr9_2 1_555 1_555
O21_2 Zr9_4 1_555 1_555
O23_2 Zr9_2 1_555 1_555
O25_5 Zr9_4 1_555 1_555
O26_5 Zr9_2 1_555 1_555
O9_2 Zr12_4 1_555 1_555
Zr4_5 O20_2 1_555 1_555
Zr4_5 O21_2 1_555 1_555
Zr4_5 O23_2 1_555 1_555
Zr12_4 O20_2 1_555 1_555
Zr11_4 O21_2 1_555 1_555
Zr11_4 O23_2 1_555 1_555
O3_8 C1_8 1_555 1_555
C1_8 O24_5 1_555 1_555
C2_8 C1_8 1_555 1_555
C3_5 C2_8 1_555 1_555
C4_5 C2_8 1_555 1_555
O5_8 C5_8 1_555 1_555
O6_8 C5_8 1_555 1_555
C5_8 C6_8 1_555 1_555
C6_8 C7_5 1_555 1_555
C7_5 C3_5 1_555 1_555
C8_5 C4_5 1_555 1_555
Zr10 O5_8 1_555 1_555
Zr8_6 O6_8 1_555 1_555
O3_8 Zr12_3 1_555 1_555
C6_8 C8_5 1_555 1_555
C2_8 H1_8 1_555 1_555
C4_5 H7_5 1_555 1_555
C4_5 H8_5 1_555 1_555
C6_8 H18_8 1_555 1_555
C7_5 H19_5 1_555 1_555
C7_5 H20_5 1_555 1_555
C3_5 H23_5 1_555 1_555
C3_5 H24_5 1_555 1_555
C8_5 H27_5 1_555 1_555
C8_5 H28_5 1_555 1_555
O2_6 Zr4_5 1_555 1_555
O3_9 C1_9 1_555 1_555
C1_9 O2_6 1_555 1_555
C2_9 C1_9 1_555 1_555
C3_6 C2_9 1_555 1_555
O4_10 Zr4_5 1_555 1_555
C4_6 C2_9 1_555 1_555
O5_9 C5_9 1_555 1_555
O6_9 C5_9 1_555 1_555
C5_9 C6_9 1_555 1_555
C6_9 C7_6 1_555 1_555
C7_6 C3_6 1_555 1_555
C8_6 C4_6 1_555 1_555
O12_6 Zr4_5 1_555 1_555
C9_10 O25_5 1_555 1_555
C10_10 C9_10 1_555 1_555
C11_6 C10_10 1_555 1_555
C12_6 C10_10 1_555 1_555
O13_10 C13_10 1_555 1_555
O14_10 C13_10 1_555 1_555
C13_10 C14_10 1_555 1_555
C14_10 C15_6 1_555 1_555
C15_6 C11_6 1_555 1_555
C16_6 C12_6 1_555 1_555
O17_6 Zr4_5 1_555 1_555
C17_12 O26_5 1_555 1_555
C18_12 C17_12 1_555 1_555
C19_7 C18_12 1_555 1_555
C20_7 C18_12 1_555 1_555
O18_12 C21_12 1_555 1_555
O19_12 C21_12 1_555 1_555
C21_12 C22_12 1_555 1_555
C22_12 C23_7 1_555 1_555
C23_7 C19_7 1_555 1_555
C24_7 C20_7 1_555 1_555
Zr10_3 O5_9 1_555 1_555
Zr8_6 O6_9 1_555 1_555
Zr7_3 O14_10 1_555 1_555
Zr7_4 O19_12 1_555 1_555
Zr11_5 O18_12 1_555 1_555
Zr12_5 O13_10 1_555 1_555
O24_6 Zr4_5 1_555 1_555
O3_9 Zr12_4 1_555 1_555
C6_9 C8_6 1_555 1_555
O12_6 C9_10 1_555 1_555
C14_10 C16_6 1_555 1_555
O17_6 C17_12 1_555 1_555
C22_12 C24_7 1_555 1_555
C2_9 H1_9 1_555 1_555
C10_10 H2_10 1_555 1_555
C24_7 H3_7 1_555 1_555
C24_7 H4_7 1_555 1_555
C4_6 H7_6 1_555 1_555
C4_6 H8_6 1_555 1_555
C12_6 H11_6 1_555 1_555
C12_6 H12_6 1_555 1_555
C22_12 H13_12 1_555 1_555
C23_7 H14_7 1_555 1_555
C23_7 H15_7 1_555 1_555
C16_6 H16_6 1_555 1_555
C16_6 H17_6 1_555 1_555
C6_9 H18_9 1_555 1_555
C7_6 H19_6 1_555 1_555
C7_6 H20_6 1_555 1_555
C19_7 H21_7 1_555 1_555
C19_7 H22_7 1_555 1_555
C3_6 H23_6 1_555 1_555
C3_6 H24_6 1_555 1_555
C11_6 H25_6 1_555 1_555
C11_6 H26_6 1_555 1_555
C8_6 H27_6 1_555 1_555
C8_6 H28_6 1_555 1_555
C18_12 H29_12 1_555 1_555
C15_6 H30_6 1_555 1_555
C15_6 H31_6 1_555 1_555
C14_10 H34_10 1_555 1_555
C20_7 H35_7 1_555 1_555
C20_7 H36_7 1_555 1_555
O10_11 Zr11_3 1_555 1_555
O15_11 Zr12_3 1_555 1_555
O10_12 Zr11_4 1_555 1_555
O15_12 Zr12_4 1_555 1_555
O27_5 Zr11_4 1_555 1_555
C17_13 O24_6 1_555 1_555
C18_13 C17_13 1_555 1_555
C19_8 C18_13 1_555 1_555
C20_8 C18_13 1_555 1_555
O18_13 C21_13 1_555 1_555
O19_13 C21_13 1_555 1_555
C21_13 C22_13 1_555 1_555
C22_13 C23_8 1_555 1_555
C23_8 C19_8 1_555 1_555
C24_8 C20_8 1_555 1_555
Zr8_5 O19_13 1_555 1_555
Zr10_4 O18_13 1_555 1_555
O27_5 C17_13 1_555 1_555
C22_13 C24_8 1_555 1_555
C24_8 H3_8 1_555 1_555
C24_8 H4_8 1_555 1_555
C22_13 H13_13 1_555 1_555
C23_8 H14_8 1_555 1_555
C23_8 H15_8 1_555 1_555
C19_8 H21_8 1_555 1_555
C19_8 H22_8 1_555 1_555
C18_13 H29_13 1_555 1_555
C20_8 H35_8 1_555 1_555
C20_8 H36_8 1_555 1_555
Zr7_3 O1_3 1_555 1_555
O1_3 Zr12_5 1_555 1_555
O4_11 Zr7_3 1_555 1_555
O8_3 Zr7_3 1_555 1_555
Zr12_5 O8_3 1_555 1_555
O15_13 Zr12_5 1_555 1_555
Zr8_3 O1_3 1_555 1_555
O20_3 Zr12_5 1_555 1_555
O23_3 Zr12_5 1_555 1_555
O28_3 Zr12_5 1_555 1_555
O30_3 Zr12_5 1_555 1_555
O8_3 Zr8 1_555 1_555
Zr7 O20_3 1_555 1_555
Zr7 O23_3 1_555 1_555
Zr8 O20_3 1_555 1_555
Zr8_3 O23_3 1_555 1_555
O4_12 Zr7_4 1_555 1_555
O7_3 Zr7_4 1_555 1_555
Zr11_5 O7_3 1_555 1_555
O9_3 Zr11_5 1_555 1_555
O10_13 Zr11_5 1_555 1_555
Zr7_2 O9_3 1_555 1_555
Zr8_2 O7_3 1_555 1_555
O21_3 Zr11_5 1_555 1_555
O22_3 Zr7_4 1_555 1_555
O27_6 Zr11_5 1_555 1_555
O29_3 Zr11_5 1_555 1_555
Zr11_5 O22_3 1_555 1_555
O9_3 Zr8_2 1_555 1_555
Zr7_2 O21_3 1_555 1_555
Zr8_4 O21_3 1_555 1_555
Zr8_4 O22_3 1_555 1_555
O4_13 Zr7 1_555 1_555
O4_14 Zr7_2 1_555 1_555
O10_14 Zr8_3 1_555 1_555
O15_14 Zr8 1_555 1_555
O25_6 Zr8_3 1_555 1_555
O26_6 Zr8 1_555 1_555
O10_15 Zr8_4 1_555 1_555
O11_6 Zr8_4 1_555 1_555
C9_11 O11_6 1_555 1_555
C10_11 C9_11 1_555 1_555
C11_7 C10_11 1_555 1_555
C12_7 C10_11 1_555 1_555
O13_11 C13_11 1_555 1_555
O14_11 C13_11 1_555 1_555
C13_11 C14_11 1_555 1_555
C14_11 C15_7 1_555 1_555
C15_7 C11_7 1_555 1_555
C16_7 C12_7 1_555 1_555
O15_15 Zr8_2 1_555 1_555
O16_6 Zr8_2 1_555 1_555
C17_14 O16_6 1_555 1_555
C18_14 C17_14 1_555 1_555
C19_9 C18_14 1_555 1_555
C20_9 C18_14 1_555 1_555
O18_14 C21_14 1_555 1_555
O19_14 C21_14 1_555 1_555
C21_14 C22_14 1_555 1_555
C22_14 C23_9 1_555 1_555
C23_9 C19_9 1_555 1_555
C24_9 C20_9 1_555 1_555
Zr12_2 O14_11 1_555 1_555
Zr12 O19_14 1_555 1_555
Zr8_6 O18_14 1_555 1_555
Zr8_5 O13_11 1_555 1_555
O29_3 C9_11 1_555 1_555
C14_11 C16_7 1_555 1_555
O27_6 C17_14 1_555 1_555
C22_14 C24_9 1_555 1_555
C10_11 H2_11 1_555 1_555
C24_9 H3_9 1_555 1_555
C24_9 H4_9 1_555 1_555
C12_7 H11_7 1_555 1_555
C12_7 H12_7 1_555 1_555
C22_14 H13_14 1_555 1_555
C23_9 H14_9 1_555 1_555
C23_9 H15_9 1_555 1_555
C16_7 H16_7 1_555 1_555
C16_7 H17_7 1_555 1_555
C19_9 H21_9 1_555 1_555
C19_9 H22_9 1_555 1_555
C11_7 H25_7 1_555 1_555
C11_7 H26_7 1_555 1_555
C18_14 H29_14 1_555 1_555
C15_7 H30_7 1_555 1_555
C15_7 H31_7 1_555 1_555
C14_11 H34_11 1_555 1_555
C20_9 H35_9 1_555 1_555
C20_9 H36_9 1_555 1_555
C9_12 O25_6 1_555 1_555
C10_12 C9_12 1_555 1_555
C11_8 C10_12 1_555 1_555
C12_8 C10_12 1_555 1_555
O13_12 C13_12 1_555 1_555
O14_12 C13_12 1_555 1_555
C13_12 C14_12 1_555 1_555
C14_12 C15_8 1_555 1_555
C15_8 C11_8 1_555 1_555
C16_8 C12_8 1_555 1_555
C17_15 O26_6 1_555 1_555
C18_15 C17_15 1_555 1_555
C19_10 C18_15 1_555 1_555
C20_10 C18_15 1_555 1_555
O18_15 C21_15 1_555 1_555
O19_15 C21_15 1_555 1_555
C21_15 C22_15 1_555 1_555
C22_15 C23_10 1_555 1_555
C23_10 C19_10 1_555 1_555
C24_10 C20_10 1_555 1_555
Zr11_2 O14_12 1_555 1_555
Zr11 O19_15 1_555 1_555
Zr8_6 O18_15 1_555 1_555
Zr8_5 O13_12 1_555 1_555
O30_3 C9_12 1_555 1_555
C14_12 C16_8 1_555 1_555
O28_3 C17_15 1_555 1_555
C22_15 C24_10 1_555 1_555
C10_12 H2_12 1_555 1_555
C24_10 H3_10 1_555 1_555
C24_10 H4_10 1_555 1_555
C12_8 H11_8 1_555 1_555
C12_8 H12_8 1_555 1_555
C22_15 H13_15 1_555 1_555
C23_10 H14_10 1_555 1_555
C23_10 H15_10 1_555 1_555
C16_8 H16_8 1_555 1_555
C16_8 H17_8 1_555 1_555
C19_10 H21_10 1_555 1_555
C19_10 H22_10 1_555 1_555
C11_8 H25_8 1_555 1_555
C11_8 H26_8 1_555 1_555
C18_15 H29_15 1_555 1_555
C15_8 H30_8 1_555 1_555
C15_8 H31_8 1_555 1_555
C14_12 H34_12 1_555 1_555
C20_10 H35_10 1_555 1_555
C20_10 H36_10 1_555 1_555
Zr10_3 O1_4 1_555 1_555
O1_4 Zr12 1_555 1_555
O4_15 Zr10_3 1_555 1_555
O10_16 Zr11 1_555 1_555
O15_16 Zr12 1_555 1_555
Zr8_6 O1_4 1_555 1_555
O21_4 Zr11 1_555 1_555
O22_4 Zr10_3 1_555 1_555
O23_4 Zr12 1_555 1_555
Zr11 O22_4 1_555 1_555
Zr10 O21_4 1_555 1_555
Zr10 O23_4 1_555 1_555
Zr8_6 O21_4 1_555 1_555
Zr8_6 O22_4 1_555 1_555
Zr8_6 O23_4 1_555 1_555
O4_16 Zr10_4 1_555 1_555
O7_4 Zr10_4 1_555 1_555
O8_4 Zr10_4 1_555 1_555
Zr11_2 O7_4 1_555 1_555
O9_4 Zr11_2 1_555 1_555
O10_17 Zr11_2 1_555 1_555
Zr12_2 O8_4 1_555 1_555
O15_17 Zr12_2 1_555 1_555
Zr10_2 O9_4 1_555 1_555
Zr8_5 O7_4 1_555 1_555
O20_4 Zr12_2 1_555 1_555
O8_4 Zr8_5 1_555 1_555
O9_4 Zr8_5 1_555 1_555
Zr10_2 O20_4 1_555 1_555
Zr8_5 O20_4 1_555 1_555
O4_17 Zr10 1_555 1_555
O4_18 Zr10_2 1_555 1_555
O10_18 Zr8_6 1_555 1_555
O15_18 Zr8_5 1_555 1_555
O15 H9_5 1_555 1_555
O4_5 H33_4 1_555 1_555
O10 H6_6 1_555 1_555
O4_6 H32_4 1_555 1_555
O15_3 H10_5 1_555 1_555
O10_3 H5_6 1_555 1_555
O4_7 H32_5 1_555 1_555
O4_8 H33_5 1_555 1_555
O15_2 H10_6 1_555 1_555
O10_2 H5_7 1_555 1_555
O4_3 H33_6 1_555 1_555
O15_4 H9_6 1_555 1_555
O4_4 H32_6 1_555 1_555
O10_4 H6_7 1_555 1_555
O10_7 H6_8 1_555 1_555
O10_8 H5_8 1_555 1_555
O15_7 H9_7 1_555 1_555
O15_8 H10_7 1_555 1_555
O10_5 H5_9 1_555 1_555
O10_6 H6_9 1_555 1_555
O15_5 H10_8 1_555 1_555
O15_6 H9_8 1_555 1_555
O4 H5_10 1_555 1_555
O4_2 H6_10 1_555 1_555

#END
