
###############################################################################
#
# This file contains modified crystal structure data generated from the
# MOF subset of the Cambridge Structural Database (CSD) v543 
# hosted by the Cambridge Crystallographic Data Centre (CCDC).
#
# This work is licensed under the Creative Commons
# Attribution-NonCommercial-ShareAlike 4.0 International License.
# To view a copy of this license, visit
# http://creativecommons.org/licenses/by-nc-sa/4.0/
# or send a letter to
# Creative Commons, PO Box 1866, Mountain View, CA 94042, USA.
#
# CIF created using the CSD Python API on 29 September 2022
# The structure has been converted into the P1 space group
# The structure has a 3D framework
# The original CSD entry ULAJID is in the orthorhombic crystal system
# The framework has been calculated to contain at least 10.0% void space
# The void calculation uses a probe of radius 1.32A, grid spacing 0.4
#
###############################################################################

data_ULAJID
_chemical_formula_moiety         '(C264 H176 Cd8 N32 O40)n'
_symmetry_cell_setting           triclinic
_symmetry_space_group_name_H-M   'P 1'
_symmetry_Int_Tables_number      1
_space_group_name_Hall           'P 1'
loop_
_symmetry_equiv_pos_site_id
_symmetry_equiv_pos_as_xyz
1 x,y,z
_cell_length_a                   17.6724(2)
_cell_length_b                   12.07912(17)
_cell_length_c                   30.0948(3)
_cell_angle_alpha                90
_cell_angle_beta                 90
_cell_angle_gamma                90
_cell_volume                     6424.25
loop_
_atom_site_label
_atom_site_type_symbol
_atom_site_fract_x
_atom_site_fract_y
_atom_site_fract_z
C1 C 0.4495(2) 0.1096(3) 0.64093(12)
H1 H 0.4500 0.1744 0.6242
C8 C 0.3862(3) 0.0361(4) 0.50520(15)
H6 H 0.3695 0.0906 0.4857
C9 C 0.3983(3) 0.0621(4) 0.54965(15)
H7 H 0.3882 0.1331 0.5600
C13 C 0.3173(3) 0.0358(6) 0.33818(15)
H9 H 0.3323 0.0416 0.3086
C14 C 0.2538(2) 0.0893(4) 0.35254(13)
C15 C 0.2319(3) 0.0837(5) 0.39613(14)
H10 H 0.1887 0.1207 0.4056
C16 C 0.2746(3) 0.0224(5) 0.42618(15)
H11 H 0.2599 0.0185 0.4558
C17 C 0.1325(3) 0.1515(4) 0.32079(14)
H12 H 0.1018 0.1147 0.3411
C18 C 0.2328(3) 0.2131(5) 0.28680(17)
H13 H 0.2826 0.2280 0.2788
C19 C 0.1699(3) 0.2492(5) 0.26626(16)
H14 H 0.1692 0.2937 0.2410
C20 C 0.4144(3) 0.4227(3) 0.68544(14)
C21 C 0.3621(2) 0.5129(3) 0.67096(14)
C22 C 0.2906(3) 0.5139(4) 0.69000(18)
H15 H 0.2783 0.4607 0.7111
C23 C 0.2373(3) 0.5922(5) 0.6784(2)
H16 H 0.1901 0.5935 0.6920
C24 C 0.2558(3) 0.6692(5) 0.6456(2)
H17 H 0.2202 0.7218 0.6370
C25 C 0.3263(3) 0.6684(4) 0.6258(2)
H18 H 0.3374 0.7197 0.6038
C26 C 0.3815(3) 0.5912(3) 0.63856(14)
C27 C 0.4571(3) 0.6012(3) 0.61699(13)
C28 C 0.4621(4) 0.5844(4) 0.57082(15)
H19 H 0.4191 0.5626 0.5553
C29 C 0.5296(4) 0.5996(5) 0.54791(17)
H20 H 0.5310 0.5900 0.5173
C30 C 0.5937(4) 0.6284(5) 0.57014(17)
H21 H 0.6389 0.6382 0.5548
C31 C 0.5911(3) 0.6430(4) 0.61587(15)
H22 H 0.6352 0.6611 0.6311
C32 C 0.5237(2) 0.6310(3) 0.63932(13)
C33 C 0.5252(2) 0.6624(3) 0.68797(13)
Cd1 Cd 0.486322(17) 0.24708(2) 0.728796(9)
N1 N 0.4604(2) 0.1054(3) 0.68416(10)
N2 N 0.4377(2) 0.0078(3) 0.62405(10)
N3 N 0.1072(2) 0.2110(3) 0.28776(12)
N4 N 0.2086(2) 0.1501(4) 0.32184(11)
O1 O 0.4106(2) 0.3920(3) 0.72581(10)
O2 O 0.4578(2) 0.3768(3) 0.65826(10)
O3 O 0.5844(2) 0.6561(4) 0.70891(11)
O4 O 0.46674(19) 0.7008(3) 0.70430(10)
Cd2 Cd 0.513678(17) 0.74708(2) 0.771204(9)
N5 N 0.6072(2) 0.2890(3) 0.71224(12)
O6 O 0.4156(2) 0.1561(4) 0.79109(11)
O7 O 0.53326(19) 0.2008(3) 0.79570(10)
Cd3 Cd 0.986322(17) 0.25292(2) 0.271204(9)
C1_2 C 0.0505(2) 0.8904(3) 0.14093(12)
H1_2 H 0.0500 0.8256 0.1242
C8_2 C 0.1138(3) 0.9639(4) 0.00520(15)
C9_2 C 0.1017(3) 0.9379(4) 0.04965(15)
H7_2 H 0.1118 0.8669 0.0600
C20_2 C 0.0856(3) 0.5773(3) 0.18544(14)
C21_2 C 0.1379(2) 0.4871(3) 0.17096(14)
C22_2 C 0.2094(3) 0.4861(4) 0.19000(18)
H15_2 H 0.2217 0.5393 0.2111
C23_2 C 0.2627(3) 0.4078(5) 0.1784(2)
H16_2 H 0.3099 0.4065 0.1920
C24_2 C 0.2442(3) 0.3308(5) 0.1456(2)
H17_2 H 0.2798 0.2782 0.1370
C25_2 C 0.1737(3) 0.3316(4) 0.1258(2)
H18_2 H 0.1626 0.2803 0.1038
C26_2 C 0.1185(3) 0.4088(3) 0.13856(14)
C27_2 C 0.0429(3) 0.3988(3) 0.11699(13)
C28_2 C 0.0379(4) 0.4156(4) 0.07082(15)
H19_2 H 0.0809 0.4374 0.0553
Cd1_2 Cd 0.013678(17) 0.75292(2) 0.228796(9)
N1_2 N 0.0396(2) 0.8946(3) 0.18416(10)
N2_2 N 0.0623(2) 0.9922(3) 0.12405(10)
O1_2 O 0.0894(2) 0.6080(3) 0.22581(10)
O2_2 O 0.0422(2) 0.6232(3) 0.15826(10)
O4_2 O 0.03326(19) 0.2992(3) 0.20430(10)
O6_2 O 0.0844(2) 0.8439(4) 0.29109(11)
H6_2 H 0.1305 0.9094 0.9857
C13_2 C 0.1827(3) 0.9642(6) 0.83818(15)
H9_2 H 0.1677 0.9584 0.8086
C14_2 C 0.2462(2) 0.9107(4) 0.85254(13)
C15_2 C 0.2681(3) 0.9163(5) 0.89613(14)
H10_2 H 0.3113 0.8793 0.9056
C16_2 C 0.2254(3) 0.9776(5) 0.92618(15)
H11_2 H 0.2401 0.9815 0.9558
C17_2 C 0.3675(3) 0.8485(4) 0.82079(14)
H12_2 H 0.3982 0.8853 0.8411
C18_2 C 0.2672(3) 0.7869(5) 0.78680(17)
H13_2 H 0.2174 0.7720 0.7788
C19_2 C 0.3301(3) 0.7508(5) 0.76626(16)
H14_2 H 0.3308 0.7063 0.7410
N3_2 N 0.3928(2) 0.7890(3) 0.78776(12)
N4_2 N 0.2914(2) 0.8499(4) 0.82184(11)
C29_2 C 0.9704(4) 0.4004(5) 0.04791(17)
H20_2 H 0.9690 0.4100 0.0173
C30_2 C 0.9063(4) 0.3716(5) 0.07014(17)
H21_2 H 0.8611 0.3618 0.0548
C31_2 C 0.9089(3) 0.3570(4) 0.11587(15)
H22_2 H 0.8648 0.3389 0.1311
C32_2 C 0.9763(2) 0.3690(3) 0.13932(13)
C33_2 C 0.9748(2) 0.3376(3) 0.18797(13)
O3_2 O 0.9156(2) 0.3439(4) 0.20891(11)
N5_2 N 0.8928(2) 0.7110(3) 0.21224(12)
O7_2 O 0.96674(19) 0.7992(3) 0.29570(10)
C21_3 C 0.6379(2) 0.0129(3) 0.82904(14)
C22_3 C 0.7094(3) 0.0139(4) 0.81000(18)
C23_3 C 0.7627(3) 0.0922(5) 0.8216(2)
H16_3 H 0.8099 0.0935 0.8080
C24_3 C 0.7442(3) 0.1692(5) 0.8544(2)
H17_3 H 0.7798 0.2218 0.8630
C25_3 C 0.6737(3) 0.1684(4) 0.8742(2)
H18_3 H 0.6626 0.2197 0.8962
C26_3 C 0.6185(3) 0.0912(3) 0.86144(14)
C27_3 C 0.5429(3) 0.1012(3) 0.88301(13)
C28_3 C 0.5379(4) 0.0844(4) 0.92918(15)
H19_3 H 0.5809 0.0626 0.9447
C29_3 C 0.4704(4) 0.0996(5) 0.95209(17)
H20_3 H 0.4690 0.0900 0.9827
C30_3 C 0.4063(4) 0.1284(5) 0.92986(17)
H21_3 H 0.3611 0.1382 0.9452
C31_3 C 0.4089(3) 0.1430(4) 0.88413(15)
H22_3 H 0.3648 0.1611 0.8689
C32_3 C 0.4763(2) 0.1310(3) 0.86068(13)
C33_3 C 0.4748(2) 0.1624(3) 0.81203(13)
C7 C 0.6011(3) 0.4298(4) 0.01034(14)
H6_3 H 0.6305 0.5906 0.0143
C10 C 0.6139(3) 0.3975(4) 0.05775(15)
C11 C 0.6609(2) 0.4672(4) 0.08789(13)
C12 C 0.6407(3) 0.4732(5) 0.13237(15)
H8 H 0.5985 0.4347 0.1425
C13_3 C 0.6827(3) 0.5358(6) 0.16182(15)
H9_3 H 0.6677 0.5416 0.1914
C14_3 C 0.7462(2) 0.5893(4) 0.14746(13)
C15_3 C 0.7681(3) 0.5837(5) 0.10387(14)
H10_3 H 0.8113 0.6207 0.0944
C16_3 C 0.7254(3) 0.5224(5) 0.07382(15)
H11_3 H 0.7401 0.5185 0.0442
C17_3 C 0.8675(3) 0.6515(4) 0.17921(14)
H12_3 H 0.8982 0.6147 0.1589
C18_3 C 0.7672(3) 0.7131(5) 0.21320(17)
H13_3 H 0.7174 0.7280 0.2212
C19_3 C 0.8301(3) 0.7492(5) 0.23374(16)
H14_3 H 0.8308 0.7937 0.2590
N4_3 N 0.7914(2) 0.6501(4) 0.17816(11)
O5 O 0.5848(2) 0.3124(4) 0.07229(12)
C1_3 C 0.5505(2) 0.6096(3) 0.85907(12)
H1_3 H 0.5500 0.6744 0.8758
C2 C 0.5450(3) 0.4951(4) 0.80445(14)
H2 H 0.5396 0.4669 0.7759
C3 C 0.5594(3) 0.4342(4) 0.84099(14)
H3 H 0.5660 0.3579 0.8424
C4 C 0.5747(2) 0.4820(3) 0.92173(13)
C5 C 0.5574(3) 0.3776(4) 0.93756(14)
H4 H 0.5363 0.3250 0.9188
C6 C 0.5718(3) 0.3522(4) 0.98136(14)
H5 H 0.5615 0.2812 0.9917
C8_3 C 0.6138(3) 0.5361(4) 0.99480(15)
C9_3 C 0.6017(3) 0.5621(4) 0.95035(15)
H7_3 H 0.6118 0.6331 0.9400
C20_3 C 0.5856(3) 0.9227(3) 0.81456(14)
H15_3 H 0.7217 0.9607 0.7889
N1_3 N 0.5396(2) 0.6054(3) 0.81584(10)
N2_3 N 0.5623(2) 0.5078(3) 0.87595(10)
O1_3 O 0.5894(2) 0.8920(3) 0.77419(10)
O2_3 O 0.5422(2) 0.8768(3) 0.84174(10)
C29_4 C 0.0296(4) 0.9004(5) 0.45209(17)
H20_4 H 0.0310 0.9100 0.4827
C30_4 C 0.0937(4) 0.8716(5) 0.42986(17)
H21_4 H 0.1389 0.8618 0.4452
C31_4 C 0.0911(3) 0.8570(4) 0.38413(15)
H22_4 H 0.1352 0.8389 0.3689
C32_4 C 0.0237(2) 0.8690(3) 0.36068(13)
C33_4 C 0.0252(2) 0.8376(3) 0.31203(13)
C1_4 C 0.9495(2) 0.3904(3) 0.35907(12)
H1_4 H 0.9500 0.3256 0.3758
C2_2 C 0.9550(3) 0.5049(4) 0.30445(14)
H2_2 H 0.9604 0.5331 0.2759
C3_2 C 0.9406(3) 0.5658(4) 0.34099(14)
H3_2 H 0.9340 0.6421 0.3424
C4_2 C 0.9253(2) 0.5180(3) 0.42173(13)
C5_2 C 0.9426(3) 0.6224(4) 0.43756(14)
H4_2 H 0.9637 0.6750 0.4188
C6_2 C 0.9282(3) 0.6478(4) 0.48136(14)
H5_2 H 0.9385 0.7188 0.4917
C7_2 C 0.8989(3) 0.5702(4) 0.51034(14)
C8_4 C 0.8862(3) 0.4639(4) 0.49480(15)
H6_4 H 0.8695 0.4094 0.5143
C9_4 C 0.8983(3) 0.4379(4) 0.45035(15)
H7_4 H 0.8882 0.3669 0.4400
C10_2 C 0.8861(3) 0.6025(4) 0.55775(15)
C11_2 C 0.8391(2) 0.5328(4) 0.58789(13)
C12_2 C 0.8593(3) 0.5268(5) 0.63237(15)
H8_2 H 0.9015 0.5653 0.6425
C13_4 C 0.8173(3) 0.4642(6) 0.66182(15)
H9_4 H 0.8323 0.4584 0.6914
C14_4 C 0.7538(2) 0.4107(4) 0.64746(13)
C15_4 C 0.7319(3) 0.4163(5) 0.60387(14)
H10_4 H 0.6887 0.3793 0.5944
C16_4 C 0.7746(3) 0.4776(5) 0.57382(15)
H11_4 H 0.7599 0.4815 0.5442
C17_4 C 0.6325(3) 0.3485(4) 0.67921(14)
H12_4 H 0.6018 0.3853 0.6589
C18_4 C 0.7328(3) 0.2869(5) 0.71320(17)
H13_4 H 0.7826 0.2720 0.7212
C19_4 C 0.6699(3) 0.2508(5) 0.73374(16)
H14_4 H 0.6692 0.2063 0.7590
C20_4 C 0.9144(3) 0.0773(3) 0.31456(14)
H15_4 H 0.7783 0.0393 0.2889
N1_4 N 0.9604(2) 0.3946(3) 0.31584(10)
N2_4 N 0.9377(2) 0.4922(3) 0.37595(10)
N4_4 N 0.7086(2) 0.3499(4) 0.67816(11)
O1_4 O 0.9106(2) 0.1080(3) 0.27419(10)
O2_4 O 0.9578(2) 0.1232(3) 0.34174(10)
O5_2 O 0.9152(2) 0.6876(4) 0.57229(12)
C21_4 C 0.8621(2) 0.9871(3) 0.32904(14)
C22_4 C 0.7906(3) 0.9861(4) 0.31000(18)
C23_4 C 0.7373(3) 0.9078(5) 0.3216(2)
H16_4 H 0.6901 0.9065 0.3080
C24_4 C 0.7558(3) 0.8308(5) 0.3544(2)
H17_4 H 0.7202 0.7782 0.3630
C25_4 C 0.8263(3) 0.8316(4) 0.3742(2)
H18_4 H 0.8374 0.7803 0.3962
C26_4 C 0.8815(3) 0.9088(3) 0.36144(14)
C27_4 C 0.9571(3) 0.8988(3) 0.38301(13)
C28_4 C 0.9621(4) 0.9156(4) 0.42918(15)
H19_4 H 0.9191 0.9374 0.4447
C2_3 C 0.4550(3) 0.9951(4) 0.69555(14)
H2_3 H 0.4604 0.9669 0.7241
C3_3 C 0.4406(3) 0.9342(4) 0.65901(14)
H3_3 H 0.4340 0.8579 0.6576
C4_3 C 0.4253(2) 0.9820(3) 0.57827(13)
C5_3 C 0.4426(3) 0.8776(4) 0.56244(14)
H4_3 H 0.4637 0.8250 0.5812
C6_3 C 0.4282(3) 0.8522(4) 0.51864(14)
H5_3 H 0.4385 0.7812 0.5083
C7_3 C 0.3989(3) 0.9298(4) 0.48966(14)
C10_3 C 0.3861(3) 0.8975(4) 0.44225(15)
C11_3 C 0.3391(2) 0.9672(4) 0.41211(13)
C12_3 C 0.3593(3) 0.9732(5) 0.36763(15)
H8_3 H 0.4015 0.9347 0.3575
O5_3 O 0.4152(2) 0.8124(4) 0.42771(12)
C2_4 C 0.0450(3) 0.0049(4) 0.19555(14)
H2_4 H 0.0396 0.0331 0.2241
C3_4 C 0.0594(3) 0.0658(4) 0.15901(14)
H3_4 H 0.0660 0.1421 0.1576
C4_4 C 0.0747(2) 0.0180(3) 0.07827(13)
C5_4 C 0.0574(3) 0.1224(4) 0.06244(14)
H4_4 H 0.0363 0.1750 0.0812
C6_4 C 0.0718(3) 0.1478(4) 0.01864(14)
H5_4 H 0.0615 0.2188 0.0083
C7_4 C 0.1011(3) 0.0702(4) 0.98966(14)
C10_4 C 0.1139(3) 0.1025(4) 0.94225(15)
C11_4 C 0.1609(2) 0.0328(4) 0.91211(13)
C12_4 C 0.1407(3) 0.0268(5) 0.86763(15)
H8_4 H 0.0985 0.0653 0.8575
O5_4 O 0.0848(2) 0.1876(4) 0.92771(12)
Cd3_2 Cd 0.013678(17) 0.74708(2) 0.728796(9)
C1_5 C 0.5505(2) 0.8904(3) 0.35907(12)
H1_5 H 0.5500 0.8256 0.3758
C8_5 C 0.6138(3) 0.9639(4) 0.49480(15)
H6_5 H 0.6305 0.9094 0.5143
C9_5 C 0.6017(3) 0.9379(4) 0.45035(15)
H7_5 H 0.6118 0.8669 0.4400
C13_5 C 0.6827(3) 0.9642(6) 0.66182(15)
H9_5 H 0.6677 0.9584 0.6914
C14_5 C 0.7462(2) 0.9107(4) 0.64746(13)
C15_5 C 0.7681(3) 0.9163(5) 0.60387(14)
H10_5 H 0.8113 0.8793 0.5944
C16_5 C 0.7254(3) 0.9776(5) 0.57382(15)
H11_5 H 0.7401 0.9815 0.5442
C17_5 C 0.8675(3) 0.8485(4) 0.67921(14)
H12_5 H 0.8982 0.8853 0.6589
C18_5 C 0.7672(3) 0.7869(5) 0.71320(17)
H13_5 H 0.7174 0.7720 0.7212
C19_5 C 0.8301(3) 0.7508(5) 0.73374(16)
H14_5 H 0.8308 0.7063 0.7590
C20_5 C 0.5856(3) 0.5773(3) 0.31456(14)
C21_5 C 0.6379(2) 0.4871(3) 0.32904(14)
C22_5 C 0.7094(3) 0.4861(4) 0.31000(18)
H15_5 H 0.7217 0.5393 0.2889
C23_5 C 0.7627(3) 0.4078(5) 0.3216(2)
H16_5 H 0.8099 0.4065 0.3080
C24_5 C 0.7442(3) 0.3308(5) 0.3544(2)
H17_5 H 0.7798 0.2782 0.3630
C25_5 C 0.6737(3) 0.3316(4) 0.3742(2)
H18_5 H 0.6626 0.2803 0.3962
C26_5 C 0.6185(3) 0.4088(3) 0.36144(14)
C27_5 C 0.5429(3) 0.3988(3) 0.38301(13)
C28_5 C 0.5379(4) 0.4156(4) 0.42918(15)
H19_5 H 0.5809 0.4374 0.4447
C29_5 C 0.4704(4) 0.4004(5) 0.45209(17)
H20_5 H 0.4690 0.4100 0.4827
C30_5 C 0.4063(4) 0.3716(5) 0.42986(17)
H21_5 H 0.3611 0.3618 0.4452
C31_5 C 0.4089(3) 0.3570(4) 0.38413(15)
H22_5 H 0.3648 0.3389 0.3689
C32_5 C 0.4763(2) 0.3690(3) 0.36068(13)
C33_5 C 0.4748(2) 0.3376(3) 0.31203(13)
Cd1_3 Cd 0.513678(17) 0.75292(2) 0.271204(9)
N1_5 N 0.5396(2) 0.8946(3) 0.31584(10)
N2_5 N 0.5623(2) 0.9922(3) 0.37595(10)
N3_3 N 0.8928(2) 0.7890(3) 0.71224(12)
N4_5 N 0.7914(2) 0.8499(4) 0.67816(11)
O1_5 O 0.5894(2) 0.6080(3) 0.27419(10)
O2_5 O 0.5422(2) 0.6232(3) 0.34174(10)
O3_3 O 0.4156(2) 0.3439(4) 0.29109(11)
O4_3 O 0.53326(19) 0.2992(3) 0.29570(10)
Cd2_2 Cd 0.486322(17) 0.25292(2) 0.228796(9)
N5_3 N 0.3928(2) 0.7110(3) 0.28776(12)
O6_3 O 0.5844(2) 0.8439(4) 0.20891(11)
O7_3 O 0.46674(19) 0.7992(3) 0.20430(10)
C29_6 C 0.0296(4) 0.5996(5) 0.95209(17)
H20_6 H 0.0310 0.5900 0.9827
C30_6 C 0.0937(4) 0.6284(5) 0.92986(17)
H21_6 H 0.1389 0.6382 0.9452
C31_6 C 0.0911(3) 0.6430(4) 0.88413(15)
H22_6 H 0.1352 0.6611 0.8689
C32_6 C 0.0237(2) 0.6310(3) 0.86068(13)
C33_6 C 0.0252(2) 0.6624(3) 0.81203(13)
O3_4 O 0.0844(2) 0.6561(4) 0.79109(11)
N5_4 N 0.1072(2) 0.2890(3) 0.78776(12)
O7_4 O 0.03326(19) 0.2008(3) 0.70430(10)
H6_6 H 0.8695 0.0906 0.0143
C13_6 C 0.8173(3) 0.0358(6) 0.16182(15)
H9_6 H 0.8323 0.0416 0.1914
C14_6 C 0.7538(2) 0.0893(4) 0.14746(13)
C15_6 C 0.7319(3) 0.0837(5) 0.10387(14)
H10_6 H 0.6887 0.1207 0.0944
C16_6 C 0.7746(3) 0.0224(5) 0.07382(15)
H11_6 H 0.7599 0.0185 0.0442
C17_6 C 0.6325(3) 0.1515(4) 0.17921(14)
H12_6 H 0.6018 0.1147 0.1589
C18_6 C 0.7328(3) 0.2131(5) 0.21320(17)
H13_6 H 0.7826 0.2280 0.2212
C19_6 C 0.6699(3) 0.2492(5) 0.23374(16)
H14_6 H 0.6692 0.2937 0.2590
N3_4 N 0.6072(2) 0.2110(3) 0.21224(12)
N4_6 N 0.7086(2) 0.1501(4) 0.17816(11)
C1_6 C 0.9495(2) 0.1096(3) 0.85907(12)
H1_6 H 0.9500 0.1744 0.8758
C8_6 C 0.8862(3) 0.0361(4) 0.99480(15)
C9_6 C 0.8983(3) 0.0621(4) 0.95035(15)
H7_6 H 0.8882 0.1331 0.9400
C20_6 C 0.9144(3) 0.4227(3) 0.81456(14)
C21_6 C 0.8621(2) 0.5129(3) 0.82904(14)
C22_6 C 0.7906(3) 0.5139(4) 0.81000(18)
H15_6 H 0.7783 0.4607 0.7889
C23_6 C 0.7373(3) 0.5922(5) 0.8216(2)
H16_6 H 0.6901 0.5935 0.8080
C24_6 C 0.7558(3) 0.6692(5) 0.8544(2)
H17_6 H 0.7202 0.7218 0.8630
C25_6 C 0.8263(3) 0.6684(4) 0.8742(2)
H18_6 H 0.8374 0.7197 0.8962
C26_6 C 0.8815(3) 0.5912(3) 0.86144(14)
C27_6 C 0.9571(3) 0.6012(3) 0.88301(13)
C28_6 C 0.9621(4) 0.5844(4) 0.92918(15)
H19_6 H 0.9191 0.5626 0.9447
Cd1_4 Cd 0.986322(17) 0.24708(2) 0.771204(9)
N1_6 N 0.9604(2) 0.1054(3) 0.81584(10)
N2_6 N 0.9377(2) 0.0078(3) 0.87595(10)
O1_6 O 0.9106(2) 0.3920(3) 0.77419(10)
O2_6 O 0.9578(2) 0.3768(3) 0.84174(10)
O4_4 O 0.96674(19) 0.7008(3) 0.79570(10)
O6_4 O 0.9156(2) 0.1561(4) 0.70891(11)
C1_7 C 0.4495(2) 0.3904(3) 0.14093(12)
H1_7 H 0.4500 0.3256 0.1242
C2_5 C 0.4550(3) 0.5049(4) 0.19555(14)
H2_5 H 0.4604 0.5331 0.2241
C3_5 C 0.4406(3) 0.5658(4) 0.15901(14)
H3_5 H 0.4340 0.6421 0.1576
C4_5 C 0.4253(2) 0.5180(3) 0.07827(13)
C5_5 C 0.4426(3) 0.6224(4) 0.06244(14)
H4_5 H 0.4637 0.6750 0.0812
C6_5 C 0.4282(3) 0.6478(4) 0.01864(14)
H5_5 H 0.4385 0.7188 0.0083
C8_7 C 0.3862(3) 0.4639(4) 0.00520(15)
C9_7 C 0.3983(3) 0.4379(4) 0.04965(15)
H7_7 H 0.3882 0.3669 0.0600
C20_7 C 0.4144(3) 0.0773(3) 0.18544(14)
H15_7 H 0.2783 0.0393 0.2111
N1_7 N 0.4604(2) 0.3946(3) 0.18416(10)
N2_7 N 0.4377(2) 0.4922(3) 0.12405(10)
O1_7 O 0.4106(2) 0.1080(3) 0.22581(10)
O2_7 O 0.4578(2) 0.1232(3) 0.15826(10)
C7_5 C 0.3989(3) 0.5702(4) 0.98966(14)
H6_7 H 0.3695 0.4094 0.9857
C10_5 C 0.3861(3) 0.6025(4) 0.94225(15)
C11_5 C 0.3391(2) 0.5328(4) 0.91211(13)
C12_5 C 0.3593(3) 0.5268(5) 0.86763(15)
H8_5 H 0.4015 0.5653 0.8575
C13_7 C 0.3173(3) 0.4642(6) 0.83818(15)
H9_7 H 0.3323 0.4584 0.8086
C14_7 C 0.2538(2) 0.4107(4) 0.85254(13)
C15_7 C 0.2319(3) 0.4163(5) 0.89613(14)
H10_7 H 0.1887 0.3793 0.9056
C16_7 C 0.2746(3) 0.4776(5) 0.92618(15)
H11_7 H 0.2599 0.4815 0.9558
C17_7 C 0.1325(3) 0.3485(4) 0.82079(14)
H12_7 H 0.1018 0.3853 0.8411
C18_7 C 0.2328(3) 0.2869(5) 0.78680(17)
H13_7 H 0.2826 0.2720 0.7788
C19_7 C 0.1699(3) 0.2508(5) 0.76626(16)
H14_7 H 0.1692 0.2063 0.7410
N4_7 N 0.2086(2) 0.3499(4) 0.82184(11)
O5_5 O 0.4152(2) 0.6876(4) 0.92771(12)
C21_7 C 0.3621(2) 0.9871(3) 0.17096(14)
C22_7 C 0.2906(3) 0.9861(4) 0.19000(18)
C23_7 C 0.2373(3) 0.9078(5) 0.1784(2)
H16_7 H 0.1901 0.9065 0.1920
C24_7 C 0.2558(3) 0.8308(5) 0.1456(2)
H17_7 H 0.2202 0.7782 0.1370
C25_7 C 0.3263(3) 0.8316(4) 0.1258(2)
H18_7 H 0.3374 0.7803 0.1038
C26_7 C 0.3815(3) 0.9088(3) 0.13856(14)
C27_7 C 0.4571(3) 0.8988(3) 0.11699(13)
C28_7 C 0.4621(4) 0.9156(4) 0.07082(15)
H19_7 H 0.4191 0.9374 0.0553
C29_7 C 0.5296(4) 0.9004(5) 0.04791(17)
H20_7 H 0.5310 0.9100 0.0173
C30_7 C 0.5937(4) 0.8716(5) 0.07014(17)
H21_7 H 0.6389 0.8618 0.0548
C31_7 C 0.5911(3) 0.8570(4) 0.11587(15)
H22_7 H 0.6352 0.8389 0.1311
C32_7 C 0.5237(2) 0.8690(3) 0.13932(13)
C33_7 C 0.5252(2) 0.8376(3) 0.18797(13)
C21_8 C 0.1379(2) 0.0129(3) 0.67096(14)
C22_8 C 0.2094(3) 0.0139(4) 0.69000(18)
C23_8 C 0.2627(3) 0.0922(5) 0.6784(2)
H16_8 H 0.3099 0.0935 0.6920
C24_8 C 0.2442(3) 0.1692(5) 0.6456(2)
H17_8 H 0.2798 0.2218 0.6370
C25_8 C 0.1737(3) 0.1684(4) 0.6258(2)
H18_8 H 0.1626 0.2197 0.6038
C26_8 C 0.1185(3) 0.0912(3) 0.63856(14)
C27_8 C 0.0429(3) 0.1012(3) 0.61699(13)
C28_8 C 0.0379(4) 0.0844(4) 0.57082(15)
H19_8 H 0.0809 0.0626 0.5553
C1_8 C 0.0505(2) 0.6096(3) 0.64093(12)
H1_8 H 0.0500 0.6744 0.6242
C2_6 C 0.0450(3) 0.4951(4) 0.69555(14)
H2_6 H 0.0396 0.4669 0.7241
C3_6 C 0.0594(3) 0.4342(4) 0.65901(14)
H3_6 H 0.0660 0.3579 0.6576
C4_6 C 0.0747(2) 0.4820(3) 0.57827(13)
C5_6 C 0.0574(3) 0.3776(4) 0.56244(14)
H4_6 H 0.0363 0.3250 0.5812
C6_6 C 0.0718(3) 0.3522(4) 0.51864(14)
H5_6 H 0.0615 0.2812 0.5083
C7_6 C 0.1011(3) 0.4298(4) 0.48966(14)
C8_8 C 0.1138(3) 0.5361(4) 0.50520(15)
H6_8 H 0.1305 0.5906 0.4857
C9_8 C 0.1017(3) 0.5621(4) 0.54965(15)
H7_8 H 0.1118 0.6331 0.5600
C10_6 C 0.1139(3) 0.3975(4) 0.44225(15)
C11_6 C 0.1609(2) 0.4672(4) 0.41211(13)
C12_6 C 0.1407(3) 0.4732(5) 0.36763(15)
H8_6 H 0.0985 0.4347 0.3575
C13_8 C 0.1827(3) 0.5358(6) 0.33818(15)
H9_8 H 0.1677 0.5416 0.3086
C14_8 C 0.2462(2) 0.5893(4) 0.35254(13)
C15_8 C 0.2681(3) 0.5837(5) 0.39613(14)
H10_8 H 0.3113 0.6207 0.4056
C16_8 C 0.2254(3) 0.5224(5) 0.42618(15)
H11_8 H 0.2401 0.5185 0.4558
C17_8 C 0.3675(3) 0.6515(4) 0.32079(14)
H12_8 H 0.3982 0.6147 0.3411
C18_8 C 0.2672(3) 0.7131(5) 0.28680(17)
H13_8 H 0.2174 0.7280 0.2788
C19_8 C 0.3301(3) 0.7492(5) 0.26626(16)
H14_8 H 0.3308 0.7937 0.2410
C20_8 C 0.0856(3) 0.9227(3) 0.68544(14)
H15_8 H 0.2217 0.9607 0.7111
N1_8 N 0.0396(2) 0.6054(3) 0.68416(10)
N2_8 N 0.0623(2) 0.5078(3) 0.62405(10)
N4_8 N 0.2914(2) 0.6501(4) 0.32184(11)
O1_8 O 0.0894(2) 0.8920(3) 0.72581(10)
O2_8 O 0.0422(2) 0.8768(3) 0.65826(10)
O5_6 O 0.0848(2) 0.3124(4) 0.42771(12)
C29_8 C 0.9704(4) 0.0996(5) 0.54791(17)
H20_8 H 0.9690 0.0900 0.5173
C30_8 C 0.9063(4) 0.1284(5) 0.57014(17)
H21_8 H 0.8611 0.1382 0.5548
C31_8 C 0.9089(3) 0.1430(4) 0.61587(15)
H22_8 H 0.8648 0.1611 0.6311
C32_8 C 0.9763(2) 0.1310(3) 0.63932(13)
C33_8 C 0.9748(2) 0.1624(3) 0.68797(13)
C2_7 C 0.5450(3) 0.0049(4) 0.30445(14)
H2_7 H 0.5396 0.0331 0.2759
C3_7 C 0.5594(3) 0.0658(4) 0.34099(14)
H3_7 H 0.5660 0.1421 0.3424
C4_7 C 0.5747(2) 0.0180(3) 0.42173(13)
C5_7 C 0.5574(3) 0.1224(4) 0.43756(14)
H4_7 H 0.5363 0.1750 0.4188
C6_7 C 0.5718(3) 0.1478(4) 0.48136(14)
H5_7 H 0.5615 0.2188 0.4917
C7_7 C 0.6011(3) 0.0702(4) 0.51034(14)
C10_7 C 0.6139(3) 0.1025(4) 0.55775(15)
C11_7 C 0.6609(2) 0.0328(4) 0.58789(13)
C12_7 C 0.6407(3) 0.0268(5) 0.63237(15)
H8_7 H 0.5985 0.0653 0.6425
O5_7 O 0.5848(2) 0.1876(4) 0.57229(12)
C7_8 C 0.8989(3) 0.9298(4) 0.01034(14)
C10_8 C 0.8861(3) 0.8975(4) 0.05775(15)
C11_8 C 0.8391(2) 0.9672(4) 0.08789(13)
C12_8 C 0.8593(3) 0.9732(5) 0.13237(15)
H8_8 H 0.9015 0.9347 0.1425
O5_8 O 0.9152(2) 0.8124(4) 0.07229(12)
C2_8 C 0.9550(3) 0.9951(4) 0.80445(14)
H2_8 H 0.9604 0.9669 0.7759
C3_8 C 0.9406(3) 0.9342(4) 0.84099(14)
H3_8 H 0.9340 0.8579 0.8424
C4_8 C 0.9253(2) 0.9820(3) 0.92173(13)
C5_8 C 0.9426(3) 0.8776(4) 0.93756(14)
H4_8 H 0.9637 0.8250 0.9188
C6_8 C 0.9282(3) 0.8522(4) 0.98136(14)
H5_8 H 0.9385 0.7812 0.9917
loop_
_geom_bond_atom_site_label_1
_geom_bond_atom_site_label_2
_geom_bond_site_symmetry_1
_geom_bond_site_symmetry_2
C1 H1 1_555 1_555
H6 C8 1_555 1_555
H7 C9 1_555 1_555
H9 C13 1_555 1_555
C14 C13 1_555 1_555
C15 C14 1_555 1_555
H10 C15 1_555 1_555
H11 C16 1_555 1_555
C17 H12 1_555 1_555
C18 H13 1_555 1_555
C19 C18 1_555 1_555
H14 C19 1_555 1_555
C20 C21 1_555 1_555
C21 C22 1_555 1_555
C22 H15 1_555 1_555
C23 C22 1_555 1_555
H16 C23 1_555 1_555
C24 C23 1_555 1_555
H17 C24 1_555 1_555
C25 C24 1_555 1_555
H18 C25 1_555 1_555
C26 C21 1_555 1_555
C27 C26 1_555 1_555
C28 C27 1_555 1_555
H19 C28 1_555 1_555
C29 C28 1_555 1_555
H20 C29 1_555 1_555
C30 C29 1_555 1_555
H21 C30 1_555 1_555
C31 C30 1_555 1_555
H22 C31 1_555 1_555
C32 C27 1_555 1_555
C33 C32 1_555 1_555
Cd1 N1 1_555 1_555
N1 C1 1_555 1_555
N2 C1 1_555 1_555
N3 C17 1_555 1_555
N4 C14 1_555 1_555
O1 C20 1_555 1_555
O2 C20 1_555 1_555
O3 C33 1_555 1_555
O4 C33 1_555 1_555
Cd2 O3 1_555 1_555
N5 Cd1 1_555 1_555
O6 Cd1 1_555 1_555
O7 Cd1 1_555 1_555
C8 C9 1_555 1_555
C15 C16 1_555 1_555
C17 N4 1_555 1_555
C18 N4 1_555 1_555
C19 N3 1_555 1_555
C25 C26 1_555 1_555
C31 C32 1_555 1_555
Cd1 O1 1_555 1_555
Cd1 O2 1_555 1_555
O4 Cd2 1_555 1_555
C1_2 H1_2 1_555 1_555
H7_2 C9_2 1_555 1_555
C20_2 C21_2 1_555 1_555
C21_2 C22_2 1_555 1_555
C22_2 H15_2 1_555 1_555
C23_2 C22_2 1_555 1_555
H16_2 C23_2 1_555 1_555
C24_2 C23_2 1_555 1_555
H17_2 C24_2 1_555 1_555
C25_2 C24_2 1_555 1_555
H18_2 C25_2 1_555 1_555
C26_2 C21_2 1_555 1_555
C27_2 C26_2 1_555 1_555
C28_2 C27_2 1_555 1_555
H19_2 C28_2 1_555 1_555
Cd1_2 N1_2 1_555 1_555
N1_2 C1_2 1_555 1_555
N2_2 C1_2 1_555 1_555
O1_2 C20_2 1_555 1_555
O2_2 C20_2 1_555 1_555
O6_2 Cd1_2 1_555 1_555
C8_2 C9_2 1_555 1_555
C25_2 C26_2 1_555 1_555
Cd1_2 O1_2 1_555 1_555
Cd1_2 O2_2 1_555 1_555
H9_2 C13_2 1_555 1_555
C14_2 C13_2 1_555 1_555
C15_2 C14_2 1_555 1_555
H10_2 C15_2 1_555 1_555
H11_2 C16_2 1_555 1_555
C17_2 H12_2 1_555 1_555
C18_2 H13_2 1_555 1_555
C19_2 C18_2 1_555 1_555
H14_2 C19_2 1_555 1_555
N3_2 C17_2 1_555 1_555
N4_2 C14_2 1_555 1_555
Cd2 N3_2 1_555 1_555
C15_2 C16_2 1_555 1_555
C17_2 N4_2 1_555 1_555
C18_2 N4_2 1_555 1_555
C19_2 N3_2 1_555 1_555
H20_2 C29_2 1_555 1_555
C30_2 C29_2 1_555 1_555
H21_2 C30_2 1_555 1_555
C31_2 C30_2 1_555 1_555
H22_2 C31_2 1_555 1_555
C33_2 C32_2 1_555 1_555
O3_2 C33_2 1_555 1_555
Cd3 O3_2 1_555 1_555
C31_2 C32_2 1_555 1_555
C21_3 C22_3 1_555 1_555
C23_3 C22_3 1_555 1_555
H16_3 C23_3 1_555 1_555
C24_3 C23_3 1_555 1_555
H17_3 C24_3 1_555 1_555
C25_3 C24_3 1_555 1_555
H18_3 C25_3 1_555 1_555
C26_3 C21_3 1_555 1_555
C27_3 C26_3 1_555 1_555
C28_3 C27_3 1_555 1_555
H19_3 C28_3 1_555 1_555
C29_3 C28_3 1_555 1_555
H20_3 C29_3 1_555 1_555
C30_3 C29_3 1_555 1_555
H21_3 C30_3 1_555 1_555
C31_3 C30_3 1_555 1_555
H22_3 C31_3 1_555 1_555
C32_3 C27_3 1_555 1_555
C33_3 C32_3 1_555 1_555
O6 C33_3 1_555 1_555
O7 C33_3 1_555 1_555
C25_3 C26_3 1_555 1_555
C31_3 C32_3 1_555 1_555
C10 C7 1_555 1_555
C11 C10 1_555 1_555
C12 C11 1_555 1_555
H8 C12 1_555 1_555
C13_3 C12 1_555 1_555
H9_3 C13_3 1_555 1_555
C14_3 C13_3 1_555 1_555
C15_3 C14_3 1_555 1_555
H10_3 C15_3 1_555 1_555
C16_3 C11 1_555 1_555
H11_3 C16_3 1_555 1_555
C17_3 H12_3 1_555 1_555
C18_3 H13_3 1_555 1_555
C19_3 C18_3 1_555 1_555
H14_3 C19_3 1_555 1_555
N5_2 C17_3 1_555 1_555
N4_3 C14_3 1_555 1_555
O5 C10 1_555 1_555
C15_3 C16_3 1_555 1_555
C17_3 N4_3 1_555 1_555
C18_3 N4_3 1_555 1_555
C19_3 N5_2 1_555 1_555
C1_3 H1_3 1_555 1_555
C2 H2 1_555 1_555
C3 C2 1_555 1_555
H3 C3 1_555 1_555
C4 C5 1_555 1_555
C5 H4 1_555 1_555
C6 C5 1_555 1_555
H5 C6 1_555 1_555
C9_3 C4 1_555 1_555
H7_3 C9_3 1_555 1_555
Cd2 N1_3 1_555 1_555
N1_3 C1_3 1_555 1_555
N2_3 C1_3 1_555 1_555
O1_3 C20_3 1_555 1_555
O2_3 C20_3 1_555 1_555
C2 N1_3 1_555 1_555
C3 N2_3 1_555 1_555
C4 N2_3 1_555 1_555
C8_3 C9_3 1_555 1_555
Cd2 O1_3 1_555 1_555
Cd2 O2_3 1_555 1_555
H20_4 C29_4 1_555 1_555
C30_4 C29_4 1_555 1_555
H21_4 C30_4 1_555 1_555
C31_4 C30_4 1_555 1_555
H22_4 C31_4 1_555 1_555
C33_4 C32_4 1_555 1_555
O6_2 C33_4 1_555 1_555
C31_4 C32_4 1_555 1_555
C1_4 H1_4 1_555 1_555
C2_2 H2_2 1_555 1_555
C3_2 C2_2 1_555 1_555
H3_2 C3_2 1_555 1_555
C4_2 C5_2 1_555 1_555
C5_2 H4_2 1_555 1_555
C6_2 C5_2 1_555 1_555
H5_2 C6_2 1_555 1_555
C7_2 C6_2 1_555 1_555
C8_4 C7_2 1_555 1_555
H6_4 C8_4 1_555 1_555
C9_4 C4_2 1_555 1_555
H7_4 C9_4 1_555 1_555
C10_2 C7_2 1_555 1_555
C11_2 C10_2 1_555 1_555
C12_2 C11_2 1_555 1_555
H8_2 C12_2 1_555 1_555
C13_4 C12_2 1_555 1_555
H9_4 C13_4 1_555 1_555
C14_4 C13_4 1_555 1_555
C15_4 C14_4 1_555 1_555
H10_4 C15_4 1_555 1_555
C16_4 C11_2 1_555 1_555
H11_4 C16_4 1_555 1_555
C17_4 H12_4 1_555 1_555
C18_4 H13_4 1_555 1_555
C19_4 C18_4 1_555 1_555
H14_4 C19_4 1_555 1_555
Cd3 N1_4 1_555 1_555
N1_4 C1_4 1_555 1_555
N2_4 C1_4 1_555 1_555
N5 C17_4 1_555 1_555
N4_4 C14_4 1_555 1_555
O1_4 C20_4 1_555 1_555
O2_4 C20_4 1_555 1_555
O5_2 C10_2 1_555 1_555
C2_2 N1_4 1_555 1_555
C3_2 N2_4 1_555 1_555
C4_2 N2_4 1_555 1_555
C8_4 C9_4 1_555 1_555
C15_4 C16_4 1_555 1_555
C17_4 N4_4 1_555 1_555
C18_4 N4_4 1_555 1_555
C19_4 N5 1_555 1_555
Cd3 O1_4 1_555 1_555
Cd3 O2_4 1_555 1_555
C21_4 C22_4 1_555 1_555
C23_4 C22_4 1_555 1_555
H16_4 C23_4 1_555 1_555
C24_4 C23_4 1_555 1_555
H17_4 C24_4 1_555 1_555
C25_4 C24_4 1_555 1_555
H18_4 C25_4 1_555 1_555
C26_4 C21_4 1_555 1_555
C27_4 C26_4 1_555 1_555
C28_4 C27_4 1_555 1_555
H19_4 C28_4 1_555 1_555
C25_4 C26_4 1_555 1_555
C2_3 H2_3 1_555 1_555
C3_3 C2_3 1_555 1_555
H3_3 C3_3 1_555 1_555
C4_3 C5_3 1_555 1_555
C5_3 H4_3 1_555 1_555
C6_3 C5_3 1_555 1_555
H5_3 C6_3 1_555 1_555
C7_3 C6_3 1_555 1_555
C10_3 C7_3 1_555 1_555
C11_3 C10_3 1_555 1_555
C12_3 C11_3 1_555 1_555
H8_3 C12_3 1_555 1_555
O5_3 C10_3 1_555 1_555
C2_4 H2_4 1_555 1_555
C3_4 C2_4 1_555 1_555
H3_4 C3_4 1_555 1_555
C4_4 C5_4 1_555 1_555
C5_4 H4_4 1_555 1_555
C6_4 C5_4 1_555 1_555
H5_4 C6_4 1_555 1_555
C10_4 C7_4 1_555 1_555
C11_4 C10_4 1_555 1_555
C12_4 C11_4 1_555 1_555
H8_4 C12_4 1_555 1_555
O5_4 C10_4 1_555 1_555
C1_5 H1_5 1_555 1_555
H6_5 C8_5 1_555 1_555
H7_5 C9_5 1_555 1_555
H9_5 C13_5 1_555 1_555
C14_5 C13_5 1_555 1_555
C15_5 C14_5 1_555 1_555
H10_5 C15_5 1_555 1_555
H11_5 C16_5 1_555 1_555
C17_5 H12_5 1_555 1_555
C18_5 H13_5 1_555 1_555
C19_5 C18_5 1_555 1_555
H14_5 C19_5 1_555 1_555
C20_5 C21_5 1_555 1_555
C21_5 C22_5 1_555 1_555
C22_5 H15_5 1_555 1_555
C23_5 C22_5 1_555 1_555
H16_5 C23_5 1_555 1_555
C24_5 C23_5 1_555 1_555
H17_5 C24_5 1_555 1_555
C25_5 C24_5 1_555 1_555
H18_5 C25_5 1_555 1_555
C26_5 C21_5 1_555 1_555
C27_5 C26_5 1_555 1_555
C28_5 C27_5 1_555 1_555
H19_5 C28_5 1_555 1_555
C29_5 C28_5 1_555 1_555
H20_5 C29_5 1_555 1_555
C30_5 C29_5 1_555 1_555
H21_5 C30_5 1_555 1_555
C31_5 C30_5 1_555 1_555
H22_5 C31_5 1_555 1_555
C32_5 C27_5 1_555 1_555
C33_5 C32_5 1_555 1_555
Cd1_3 N1_5 1_555 1_555
N1_5 C1_5 1_555 1_555
N2_5 C1_5 1_555 1_555
N3_3 C17_5 1_555 1_555
N4_5 C14_5 1_555 1_555
O1_5 C20_5 1_555 1_555
O2_5 C20_5 1_555 1_555
O3_3 C33_5 1_555 1_555
O4_3 C33_5 1_555 1_555
Cd2_2 O3_3 1_555 1_555
N5_3 Cd1_3 1_555 1_555
O6_3 Cd1_3 1_555 1_555
O7_3 Cd1_3 1_555 1_555
C8_5 C9_5 1_555 1_555
C15_5 C16_5 1_555 1_555
C17_5 N4_5 1_555 1_555
C18_5 N4_5 1_555 1_555
C19_5 N3_3 1_555 1_555
C25_5 C26_5 1_555 1_555
C31_5 C32_5 1_555 1_555
Cd1_3 O1_5 1_555 1_555
Cd1_3 O2_5 1_555 1_555
O4_3 Cd2_2 1_555 1_555
H20_6 C29_6 1_555 1_555
C30_6 C29_6 1_555 1_555
H21_6 C30_6 1_555 1_555
C31_6 C30_6 1_555 1_555
H22_6 C31_6 1_555 1_555
C33_6 C32_6 1_555 1_555
O3_4 C33_6 1_555 1_555
Cd3_2 O3_4 1_555 1_555
C31_6 C32_6 1_555 1_555
H9_6 C13_6 1_555 1_555
C14_6 C13_6 1_555 1_555
C15_6 C14_6 1_555 1_555
H10_6 C15_6 1_555 1_555
H11_6 C16_6 1_555 1_555
C17_6 H12_6 1_555 1_555
C18_6 H13_6 1_555 1_555
C19_6 C18_6 1_555 1_555
H14_6 C19_6 1_555 1_555
N3_4 C17_6 1_555 1_555
N4_6 C14_6 1_555 1_555
Cd2_2 N3_4 1_555 1_555
C15_6 C16_6 1_555 1_555
C17_6 N4_6 1_555 1_555
C18_6 N4_6 1_555 1_555
C19_6 N3_4 1_555 1_555
C1_6 H1_6 1_555 1_555
H7_6 C9_6 1_555 1_555
C20_6 C21_6 1_555 1_555
C21_6 C22_6 1_555 1_555
C22_6 H15_6 1_555 1_555
C23_6 C22_6 1_555 1_555
H16_6 C23_6 1_555 1_555
C24_6 C23_6 1_555 1_555
H17_6 C24_6 1_555 1_555
C25_6 C24_6 1_555 1_555
H18_6 C25_6 1_555 1_555
C26_6 C21_6 1_555 1_555
C27_6 C26_6 1_555 1_555
C28_6 C27_6 1_555 1_555
H19_6 C28_6 1_555 1_555
Cd1_4 N1_6 1_555 1_555
N1_6 C1_6 1_555 1_555
N2_6 C1_6 1_555 1_555
O1_6 C20_6 1_555 1_555
O2_6 C20_6 1_555 1_555
O6_4 Cd1_4 1_555 1_555
C8_6 C9_6 1_555 1_555
C25_6 C26_6 1_555 1_555
Cd1_4 O1_6 1_555 1_555
Cd1_4 O2_6 1_555 1_555
C1_7 H1_7 1_555 1_555
C2_5 H2_5 1_555 1_555
C3_5 C2_5 1_555 1_555
H3_5 C3_5 1_555 1_555
C4_5 C5_5 1_555 1_555
C5_5 H4_5 1_555 1_555
C6_5 C5_5 1_555 1_555
H5_5 C6_5 1_555 1_555
C9_7 C4_5 1_555 1_555
H7_7 C9_7 1_555 1_555
Cd2_2 N1_7 1_555 1_555
N1_7 C1_7 1_555 1_555
N2_7 C1_7 1_555 1_555
O1_7 C20_7 1_555 1_555
O2_7 C20_7 1_555 1_555
C2_5 N1_7 1_555 1_555
C3_5 N2_7 1_555 1_555
C4_5 N2_7 1_555 1_555
C8_7 C9_7 1_555 1_555
Cd2_2 O1_7 1_555 1_555
Cd2_2 O2_7 1_555 1_555
C10_5 C7_5 1_555 1_555
C11_5 C10_5 1_555 1_555
C12_5 C11_5 1_555 1_555
H8_5 C12_5 1_555 1_555
C13_7 C12_5 1_555 1_555
H9_7 C13_7 1_555 1_555
C14_7 C13_7 1_555 1_555
C15_7 C14_7 1_555 1_555
H10_7 C15_7 1_555 1_555
C16_7 C11_5 1_555 1_555
H11_7 C16_7 1_555 1_555
C17_7 H12_7 1_555 1_555
C18_7 H13_7 1_555 1_555
C19_7 C18_7 1_555 1_555
H14_7 C19_7 1_555 1_555
N5_4 C17_7 1_555 1_555
N4_7 C14_7 1_555 1_555
O5_5 C10_5 1_555 1_555
C15_7 C16_7 1_555 1_555
C17_7 N4_7 1_555 1_555
C18_7 N4_7 1_555 1_555
C19_7 N5_4 1_555 1_555
C21_7 C22_7 1_555 1_555
C23_7 C22_7 1_555 1_555
H16_7 C23_7 1_555 1_555
C24_7 C23_7 1_555 1_555
H17_7 C24_7 1_555 1_555
C25_7 C24_7 1_555 1_555
H18_7 C25_7 1_555 1_555
C26_7 C21_7 1_555 1_555
C27_7 C26_7 1_555 1_555
C28_7 C27_7 1_555 1_555
H19_7 C28_7 1_555 1_555
C29_7 C28_7 1_555 1_555
H20_7 C29_7 1_555 1_555
C30_7 C29_7 1_555 1_555
H21_7 C30_7 1_555 1_555
C31_7 C30_7 1_555 1_555
H22_7 C31_7 1_555 1_555
C32_7 C27_7 1_555 1_555
C33_7 C32_7 1_555 1_555
O6_3 C33_7 1_555 1_555
O7_3 C33_7 1_555 1_555
C25_7 C26_7 1_555 1_555
C31_7 C32_7 1_555 1_555
C21_8 C22_8 1_555 1_555
C23_8 C22_8 1_555 1_555
H16_8 C23_8 1_555 1_555
C24_8 C23_8 1_555 1_555
H17_8 C24_8 1_555 1_555
C25_8 C24_8 1_555 1_555
H18_8 C25_8 1_555 1_555
C26_8 C21_8 1_555 1_555
C27_8 C26_8 1_555 1_555
C28_8 C27_8 1_555 1_555
H19_8 C28_8 1_555 1_555
C25_8 C26_8 1_555 1_555
C1_8 H1_8 1_555 1_555
C2_6 H2_6 1_555 1_555
C3_6 C2_6 1_555 1_555
H3_6 C3_6 1_555 1_555
C4_6 C5_6 1_555 1_555
C5_6 H4_6 1_555 1_555
C6_6 C5_6 1_555 1_555
H5_6 C6_6 1_555 1_555
C7_6 C6_6 1_555 1_555
C8_8 C7_6 1_555 1_555
H6_8 C8_8 1_555 1_555
C9_8 C4_6 1_555 1_555
H7_8 C9_8 1_555 1_555
C10_6 C7_6 1_555 1_555
C11_6 C10_6 1_555 1_555
C12_6 C11_6 1_555 1_555
H8_6 C12_6 1_555 1_555
C13_8 C12_6 1_555 1_555
H9_8 C13_8 1_555 1_555
C14_8 C13_8 1_555 1_555
C15_8 C14_8 1_555 1_555
H10_8 C15_8 1_555 1_555
C16_8 C11_6 1_555 1_555
H11_8 C16_8 1_555 1_555
C17_8 H12_8 1_555 1_555
C18_8 H13_8 1_555 1_555
C19_8 C18_8 1_555 1_555
H14_8 C19_8 1_555 1_555
Cd3_2 N1_8 1_555 1_555
N1_8 C1_8 1_555 1_555
N2_8 C1_8 1_555 1_555
N5_3 C17_8 1_555 1_555
N4_8 C14_8 1_555 1_555
O1_8 C20_8 1_555 1_555
O2_8 C20_8 1_555 1_555
O5_6 C10_6 1_555 1_555
C2_6 N1_8 1_555 1_555
C3_6 N2_8 1_555 1_555
C4_6 N2_8 1_555 1_555
C8_8 C9_8 1_555 1_555
C15_8 C16_8 1_555 1_555
C17_8 N4_8 1_555 1_555
C18_8 N4_8 1_555 1_555
C19_8 N5_3 1_555 1_555
Cd3_2 O1_8 1_555 1_555
Cd3_2 O2_8 1_555 1_555
H20_8 C29_8 1_555 1_555
C30_8 C29_8 1_555 1_555
H21_8 C30_8 1_555 1_555
C31_8 C30_8 1_555 1_555
H22_8 C31_8 1_555 1_555
C33_8 C32_8 1_555 1_555
O6_4 C33_8 1_555 1_555
C31_8 C32_8 1_555 1_555
C2_7 H2_7 1_555 1_555
C3_7 C2_7 1_555 1_555
H3_7 C3_7 1_555 1_555
C4_7 C5_7 1_555 1_555
C5_7 H4_7 1_555 1_555
C6_7 C5_7 1_555 1_555
H5_7 C6_7 1_555 1_555
C7_7 C6_7 1_555 1_555
C10_7 C7_7 1_555 1_555
C11_7 C10_7 1_555 1_555
C12_7 C11_7 1_555 1_555
H8_7 C12_7 1_555 1_555
O5_7 C10_7 1_555 1_555
C10_8 C7_8 1_555 1_555
C11_8 C10_8 1_555 1_555
C12_8 C11_8 1_555 1_555
H8_8 C12_8 1_555 1_555
O5_8 C10_8 1_555 1_555
C2_8 H2_8 1_555 1_555
C3_8 C2_8 1_555 1_555
H3_8 C3_8 1_555 1_555
C4_8 C5_8 1_555 1_555
C5_8 H4_8 1_555 1_555
C6_8 C5_8 1_555 1_555
H5_8 C6_8 1_555 1_555

#END
