
###############################################################################
#
# This file contains modified crystal structure data generated from the
# MOF subset of the Cambridge Structural Database (CSD) v543 
# hosted by the Cambridge Crystallographic Data Centre (CCDC).
#
# This work is licensed under the Creative Commons
# Attribution-NonCommercial-ShareAlike 4.0 International License.
# To view a copy of this license, visit
# http://creativecommons.org/licenses/by-nc-sa/4.0/
# or send a letter to
# Creative Commons, PO Box 1866, Mountain View, CA 94042, USA.
#
# CIF created using the CSD Python API on 29 September 2022
# The structure has been converted into the P1 space group
# The structure has a 3D framework
# The original CSD entry ULALOL is in the hexagonal crystal system
# The framework has been calculated to contain at least 10.0% void space
# The void calculation uses a probe of radius 1.32A, grid spacing 0.4
# The framework is charged, counterions have been retained in the structure
# H atom positions have been added when not included in the experimental data
# Generated hydrogen atom positions removed from atoms on special positions
#
###############################################################################

data_ULALOL
_chemical_formula_moiety         '(C264 H324 O118 Zr32 6-)n'
_symmetry_cell_setting           triclinic
_symmetry_space_group_name_H-M   'P 1'
_symmetry_Int_Tables_number      1
_space_group_name_Hall           'P 1'
loop_
_symmetry_equiv_pos_site_id
_symmetry_equiv_pos_as_xyz
1 x,y,z
_cell_length_a                   39.212(4)
_cell_length_b                   39.212(4)
_cell_length_c                   16.528(2)
_cell_angle_alpha                90
_cell_angle_beta                 90
_cell_angle_gamma                120
_cell_volume                     22008.4
loop_
_atom_site_label
_atom_site_type_symbol
_atom_site_fract_x
_atom_site_fract_y
_atom_site_fract_z
O5 O -0.000000 0.60126(13) 0.0946(4)
O6 O -0.000000 0.54224(14) 0.2414(3)
Zr2 Zr -0.000000 0.54513(2) 0.10644(4)
O13 O 0.03534(15) 0.47252(16) 0.000000
O14 O 0.03455(14) 0.51727(7) 0.1071(4)
O15 O -0.000000 0.39874(13) 0.0946(4)
O16 O -0.000000 0.45776(14) 0.2414(3)
Zr3 Zr -0.000000 0.45487(2) 0.10644(4)
O17 O 0.05811(10) 0.46628(12) 0.1500(2)
O19 O 0.05811(10) 0.59183(16) 0.1500(2)
O23 O 0.03534(15) 0.56282(22) 0.000000
Zr5 Zr 0.07216(2) 0.53608(2) 0.000000
Zr10 Zr -0.000000 0.545130(20) 0.89356(4)
O13_2 O 0.03534(15) 0.47252(16) 1.000000
O23_2 O 0.03534(15) 0.56282(22) 1.000000
Zr5_2 Zr 0.07216(2) 0.53608(2) 1.000000
Zr11 Zr 0.000000 0.454870(20) 0.89356(4)
Zr4 Zr 0.92784(2) 0.46392(2) -0.000000
Zr7 Zr 0.53608(2) 0.46392(3) -0.000000
C1 C 0.90596(13) 0.50771(16) 0.1343(3)
C2 C 0.87520(14) 0.50863(17) 0.1843(3)
C3 C 0.83632(16) 0.4788(2) 0.1748(4)
H1 H 0.829949 0.459285 0.136270
C4 C 0.80713(16) 0.4782(2) 0.2226(4)
H2 H 0.781165 0.458145 0.216669
C5 C 0.81661(15) 0.5077(2) 0.2797(3)
C6 C 0.85589(17) 0.5378(2) 0.2880(4)
H3 H 0.862505 0.558031 0.325065
C7 C 0.88463(16) 0.53736(18) 0.2410(4)
H4 H 0.910787 0.556816 0.248001
C8 C 0.75320(15) 0.5064(3) 0.2888(5)
H5 H 0.752770 0.505540 0.232575
C9 C 0.78476(17) 0.5070(2) 0.3288(3)
C10 C 0.78492(16) 0.5070(2) 0.4130(3)
C11 C 0.75325(14) 0.5065(3) 0.4566(5)
C12 C 0.81558(17) 0.5057(2) 0.4592(3)
H6 H 0.835856 0.504775 0.431888
O1 O 0.94189(10) 0.53372(12) 0.1500(2)
O2 O 0.89550(8) 0.48165(10) 0.0815(2)
O3 O 0.96466(15) 0.52748(16) 0.000000
O4 O 0.96545(14) 0.48273(7) 0.1071(4)
O5_2 O 1.000000 0.60126(13) 0.0946(4)
O6_2 O 1.000000 0.54224(14) 0.2414(3)
Zr2_2 Zr 1.000000 0.54513(2) 0.10644(4)
C13 C 0.60175(21) 0.50771(16) 0.8657(3)
C14 C 0.63343(22) 0.50863(17) 0.8157(3)
C15 C 0.64248(26) 0.4788(2) 0.8252(4)
H7 H 0.629336 0.459285 0.863730
C16 C 0.67107(26) 0.4782(2) 0.7774(4)
H8 H 0.676980 0.458145 0.783331
C17 C 0.69109(25) 0.5077(2) 0.7203(3)
C18 C 0.68191(26) 0.5378(2) 0.7120(4)
H9 H 0.695526 0.558031 0.674935
C19 C 0.65273(24) 0.53736(18) 0.7590(4)
H10 H 0.646029 0.556816 0.751999
C20 C 0.75320(34) 0.5064(3) 0.7112(5)
H11 H 0.752770 0.505540 0.767425
C21 C 0.72224(26) 0.5070(2) 0.6712(3)
C22 C 0.72208(26) 0.5070(2) 0.5870(3)
C23 C 0.75325(33) 0.5065(3) 0.5434(5)
C24 C 0.69012(26) 0.5057(2) 0.5408(3)
H12 H 0.668919 0.504775 0.568112
O7 O 0.59183(16) 0.53372(12) 0.8500(2)
O8 O 0.58615(13) 0.48165(10) 0.9185(2)
C25 C 0.90596(13) 0.50771(16) 0.8657(3)
C26 C 0.87520(14) 0.50863(17) 0.8157(3)
C27 C 0.83632(16) 0.4788(2) 0.8252(4)
H13 H 0.829949 0.459285 0.863730
C28 C 0.80713(16) 0.4782(2) 0.7774(4)
H14 H 0.781165 0.458145 0.783331
C29 C 0.81661(15) 0.5077(2) 0.7203(3)
C30 C 0.85589(17) 0.5378(2) 0.7120(4)
H15 H 0.862505 0.558031 0.674935
C31 C 0.88463(16) 0.53736(18) 0.7590(4)
H16 H 0.910787 0.556816 0.751999
C32 C 0.78476(17) 0.5070(2) 0.6712(3)
C33 C 0.78492(16) 0.5070(2) 0.5870(3)
C34 C 0.81558(17) 0.5057(2) 0.5408(3)
H17 H 0.835856 0.504775 0.568112
O9 O 0.94189(10) 0.53372(12) 0.8500(2)
O10 O 0.89550(8) 0.48165(10) 0.9185(2)
C35 C 0.60175(21) 0.50771(16) 0.1343(3)
C36 C 0.63343(22) 0.50863(17) 0.1843(3)
C37 C 0.64248(26) 0.4788(2) 0.1748(4)
H18 H 0.629336 0.459285 0.136270
C38 C 0.67107(26) 0.4782(2) 0.2226(4)
H19 H 0.676980 0.458145 0.216669
C39 C 0.69109(25) 0.5077(2) 0.2797(3)
C40 C 0.68191(26) 0.5378(2) 0.2880(4)
H20 H 0.695526 0.558031 0.325065
C41 C 0.65273(24) 0.53736(18) 0.2410(4)
H21 H 0.646029 0.556816 0.248001
C42 C 0.72224(26) 0.5070(2) 0.3288(3)
C43 C 0.72208(26) 0.5070(2) 0.4130(3)
C44 C 0.69012(26) 0.5057(2) 0.4592(3)
H22 H 0.668919 0.504775 0.431888
O11 O 0.59183(16) 0.53372(12) 0.1500(2)
O12 O 0.58615(13) 0.48165(10) 0.0815(2)
O15_2 O 1.000000 0.39874(13) 0.0946(4)
O16_2 O 1.000000 0.45776(14) 0.2414(3)
Zr3_2 Zr 1.000000 0.45487(2) 0.10644(4)
O18 O 0.94189(10) 0.40817(16) 0.1500(2)
O22 O 0.89550(8) 0.41385(13) 0.0815(2)
O24 O 0.96466(15) 0.43718(22) 0.000000
Zr4_2 Zr 0.92784(2) 0.46392(2) 1.000000
Zr7_2 Zr 0.53608(2) 0.46392(3) 1.000000
Zr8 Zr 0.54513(2) 0.545130(20) 0.10644(4)
Zr10_2 Zr 1.000000 0.545130(20) 0.89356(4)
Zr12 Zr 0.545130(20) 0.54513(2) 0.89356(4)
O3_2 O 0.96466(15) 0.52748(16) 1.000000
O20 O 0.89550(8) 0.41385(13) 0.9185(2)
O24_2 O 0.96466(15) 0.43718(22) 1.000000
O25 O 0.96545(14) 0.48272(16) 0.8929(4)
Zr11_2 Zr 1.000000 0.454870(20) 0.89356(4)
Zr7_3 Zr 0.46392(2) 0.53608(3) -0.000000
C1_2 C 0.09404(13) 0.49229(16) 0.1343(3)
C2_2 C 0.12480(14) 0.49137(17) 0.1843(3)
C3_2 C 0.16368(16) 0.5212(2) 0.1748(4)
H1_2 H 0.170051 0.540715 0.136270
C4_2 C 0.19287(16) 0.5218(2) 0.2226(4)
H2_2 H 0.218835 0.541855 0.216669
C5_2 C 0.18339(15) 0.4923(2) 0.2797(3)
C6_2 C 0.14411(17) 0.4622(2) 0.2880(4)
H3_2 H 0.137495 0.441969 0.325065
C7_2 C 0.11537(16) 0.46264(18) 0.2410(4)
H4_2 H 0.089213 0.443184 0.248001
C8_2 C 0.24680(15) 0.4936(3) 0.2888(5)
H5_2 H 0.247230 0.494460 0.232575
C9_2 C 0.21524(17) 0.4930(2) 0.3288(3)
C10_2 C 0.21508(16) 0.4930(2) 0.4130(3)
C11_2 C 0.24675(14) 0.4935(3) 0.4566(5)
C12_2 C 0.18442(17) 0.4943(2) 0.4592(3)
H6_2 H 0.164144 0.495225 0.431888
O2_2 O 0.10450(8) 0.51835(10) 0.0815(2)
C13_2 C 0.39825(21) 0.49229(16) 0.8657(3)
C14_2 C 0.36657(22) 0.49137(17) 0.8157(3)
C15_2 C 0.35752(26) 0.5212(2) 0.8252(4)
H7_2 H 0.370664 0.540715 0.863730
C16_2 C 0.32893(26) 0.5218(2) 0.7774(4)
H8_2 H 0.323020 0.541855 0.783331
C17_2 C 0.30891(25) 0.4923(2) 0.7203(3)
C18_2 C 0.31809(26) 0.4622(2) 0.7120(4)
H9_2 H 0.304474 0.441969 0.674935
C19_2 C 0.34727(24) 0.46264(18) 0.7590(4)
H10_2 H 0.353971 0.443184 0.751999
C20_2 C 0.24680(34) 0.4936(3) 0.7112(5)
H11_2 H 0.247230 0.494460 0.767425
C21_2 C 0.27776(26) 0.4930(2) 0.6712(3)
C22_2 C 0.27792(26) 0.4930(2) 0.5870(3)
C23_2 C 0.24675(33) 0.4935(3) 0.5434(5)
C24_2 C 0.30988(26) 0.4943(2) 0.5408(3)
H12_2 H 0.331081 0.495225 0.568112
O7_2 O 0.40817(16) 0.46628(12) 0.8500(2)
O8_2 O 0.41385(13) 0.51835(10) 0.9185(2)
C25_2 C 0.09404(13) 0.49229(16) 0.8657(3)
C26_2 C 0.12480(14) 0.49137(17) 0.8157(3)
C27_2 C 0.16368(16) 0.5212(2) 0.8252(4)
H13_2 H 0.170051 0.540715 0.863730
C28_2 C 0.19287(16) 0.5218(2) 0.7774(4)
H14_2 H 0.218835 0.541855 0.783331
C29_2 C 0.18339(15) 0.4923(2) 0.7203(3)
C30_2 C 0.14411(17) 0.4622(2) 0.7120(4)
H15_2 H 0.137495 0.441969 0.674935
C31_2 C 0.11537(16) 0.46264(18) 0.7590(4)
H16_2 H 0.089213 0.443184 0.751999
C32_2 C 0.21524(17) 0.4930(2) 0.6712(3)
C33_2 C 0.21508(16) 0.4930(2) 0.5870(3)
C34_2 C 0.18442(17) 0.4943(2) 0.5408(3)
H17_2 H 0.164144 0.495225 0.568112
O9_2 O 0.05811(10) 0.46628(12) 0.8500(2)
O10_2 O 0.10450(8) 0.51835(10) 0.9185(2)
C35_2 C 0.39825(21) 0.49229(16) 0.1343(3)
C36_2 C 0.36657(22) 0.49137(17) 0.1843(3)
C37_2 C 0.35752(26) 0.5212(2) 0.1748(4)
H18_2 H 0.370664 0.540715 0.136270
C38_2 C 0.32893(26) 0.5218(2) 0.2226(4)
H19_2 H 0.323020 0.541855 0.216669
C39_2 C 0.30891(25) 0.4923(2) 0.2797(3)
C40_2 C 0.31809(26) 0.4622(2) 0.2880(4)
H20_2 H 0.304474 0.441969 0.325065
C41_2 C 0.34727(24) 0.46264(18) 0.2410(4)
H21_2 H 0.353971 0.443184 0.248001
C42_2 C 0.27776(26) 0.4930(2) 0.3288(3)
C43_2 C 0.27792(26) 0.4930(2) 0.4130(3)
C44_2 C 0.30988(26) 0.4943(2) 0.4592(3)
H22_2 H 0.331081 0.495225 0.431888
O11_2 O 0.40817(16) 0.46628(12) 0.1500(2)
O12_2 O 0.41385(13) 0.51835(10) 0.0815(2)
O22_2 O 0.10450(8) 0.58615(13) 0.0815(2)
Zr7_4 Zr 0.46392(2) 0.53608(3) 1.000000
Zr8_2 Zr 0.45487(2) 0.454870(20) 0.10644(4)
Zr12_2 Zr 0.454870(20) 0.45487(2) 0.89356(4)
O20_2 O 0.10450(8) 0.58615(13) 0.9185(2)
O25_2 O 0.03455(14) 0.51728(16) 0.8929(4)
Zr7_5 Zr 0.53608(3) 0.07216(4) -0.000000
C1_3 C 0.49229(16) 0.39825(21) 0.1343(3)
C2_3 C 0.49137(17) 0.36657(22) 0.1843(3)
C3_3 C 0.5212(2) 0.35752(26) 0.1748(4)
H1_3 H 0.540715 0.370664 0.136270
C4_3 C 0.5218(2) 0.32893(26) 0.2226(4)
H2_3 H 0.541855 0.323020 0.216669
C5_3 C 0.4923(2) 0.30891(25) 0.2797(3)
C6_3 C 0.4622(2) 0.31809(26) 0.2880(4)
H3_3 H 0.441969 0.304474 0.325065
C7_3 C 0.46264(18) 0.34727(24) 0.2410(4)
H4_3 H 0.443184 0.353971 0.248001
C8_3 C 0.4936(3) 0.24680(34) 0.2888(5)
H5_3 H 0.494460 0.247230 0.232575
C9_3 C 0.4930(2) 0.27776(26) 0.3288(3)
C10_3 C 0.4930(2) 0.27792(26) 0.4130(3)
C11_3 C 0.4935(3) 0.24675(33) 0.4566(5)
C12_3 C 0.4943(2) 0.30988(26) 0.4592(3)
H6_3 H 0.495225 0.331081 0.431888
O1_2 O 0.46628(12) 0.40817(16) 0.1500(2)
O2_3 O 0.51835(10) 0.41385(13) 0.0815(2)
O3_3 O 0.47252(16) 0.43718(22) 0.000000
O4_2 O 0.51727(7) 0.48272(16) 0.1071(4)
O5_3 O 0.39874(13) 0.39874(13) 0.0946(4)
O6_3 O 0.45776(14) 0.45776(14) 0.2414(3)
C13_3 C 0.49229(16) 0.09404(26) 0.8657(3)
C14_3 C 0.49137(17) 0.12480(28) 0.8157(3)
C15_3 C 0.5212(2) 0.16368(33) 0.8252(4)
H7_3 H 0.540715 0.170051 0.863730
C16_3 C 0.5218(2) 0.19287(33) 0.7774(4)
H8_3 H 0.541855 0.218835 0.783331
C17_3 C 0.4923(2) 0.18339(32) 0.7203(3)
C18_3 C 0.4622(2) 0.14411(33) 0.7120(4)
H9_3 H 0.441969 0.137495 0.674935
C19_3 C 0.46264(18) 0.11537(30) 0.7590(4)
H10_3 H 0.443184 0.089213 0.751999
C20_3 C 0.4936(3) 0.24680(45) 0.7112(5)
H11_3 H 0.494460 0.247230 0.767425
C21_3 C 0.4930(2) 0.21524(33) 0.6712(3)
C22_3 C 0.4930(2) 0.21508(33) 0.5870(3)
C23_3 C 0.4935(3) 0.24675(45) 0.5434(5)
C24_3 C 0.4943(2) 0.18442(33) 0.5408(3)
H12_3 H 0.495225 0.164144 0.568112
O7_3 O 0.46628(12) 0.05811(20) 0.8500(2)
O8_3 O 0.51835(10) 0.10450(16) 0.9185(2)
C25_3 C 0.49229(16) 0.39825(21) 0.8657(3)
C26_3 C 0.49137(17) 0.36657(22) 0.8157(3)
C27_3 C 0.5212(2) 0.35752(26) 0.8252(4)
H13_3 H 0.540715 0.370664 0.863730
C28_3 C 0.5218(2) 0.32893(26) 0.7774(4)
H14_3 H 0.541855 0.323020 0.783331
C29_3 C 0.4923(2) 0.30891(25) 0.7203(3)
C30_3 C 0.4622(2) 0.31809(26) 0.7120(4)
H15_3 H 0.441969 0.304474 0.674935
C31_3 C 0.46264(18) 0.34727(24) 0.7590(4)
H16_3 H 0.443184 0.353971 0.751999
C32_3 C 0.4930(2) 0.27776(26) 0.6712(3)
C33_3 C 0.4930(2) 0.27792(26) 0.5870(3)
C34_3 C 0.4943(2) 0.30988(26) 0.5408(3)
H17_3 H 0.495225 0.331081 0.568112
O9_3 O 0.46628(12) 0.40817(16) 0.8500(2)
O10_3 O 0.51835(10) 0.41385(13) 0.9185(2)
C35_3 C 0.49229(16) 0.09404(26) 0.1343(3)
C36_3 C 0.49137(17) 0.12480(28) 0.1843(3)
C37_3 C 0.5212(2) 0.16368(33) 0.1748(4)
H18_3 H 0.540715 0.170051 0.136270
C38_3 C 0.5218(2) 0.19287(33) 0.2226(4)
H19_3 H 0.541855 0.218835 0.216669
C39_3 C 0.4923(2) 0.18339(32) 0.2797(3)
C40_3 C 0.4622(2) 0.14411(33) 0.2880(4)
H20_3 H 0.441969 0.137495 0.325065
C41_3 C 0.46264(18) 0.11537(30) 0.2410(4)
H21_3 H 0.443184 0.089213 0.248001
C42_3 C 0.4930(2) 0.21524(33) 0.3288(3)
C43_3 C 0.4930(2) 0.21508(33) 0.4130(3)
C44_3 C 0.4943(2) 0.18442(33) 0.4592(3)
H22_3 H 0.495225 0.164144 0.431888
O11_3 O 0.46628(12) 0.05811(20) 0.1500(2)
O12_3 O 0.51835(10) 0.10450(16) 0.0815(2)
O13_3 O 0.52748(16) 0.56282(22) 0.000000
O14_2 O 0.48273(7) 0.51728(16) 0.1071(4)
O15_3 O 0.60126(13) 0.60126(13) 0.0946(4)
O16_3 O 0.54224(14) 0.54224(14) 0.2414(3)
O17_2 O 0.53372(12) 0.59183(16) 0.1500(2)
O23_3 O 0.43718(22) 0.47252(27) 0.000000
O24_3 O 0.56282(22) 0.52748(27) 0.000000
Zr7_6 Zr 0.53608(3) 0.07216(4) 1.000000
Zr8_3 Zr 0.454870(20) 0.000000(28) 0.10644(4)
Zr12_3 Zr 0.45487(2) 0.000000(28) 0.89356(4)
O3_4 O 0.47252(16) 0.43718(22) 1.000000
O13_4 O 0.52748(16) 0.56282(22) 1.000000
O23_4 O 0.43718(22) 0.47252(27) 1.000000
O24_4 O 0.56282(22) 0.52748(27) 1.000000
O25_3 O 0.51728(16) 0.48273(21) 0.8929(4)
Zr8_4 Zr 0.454870(20) 1.000000(28) 0.10644(4)
Zr12_4 Zr 0.45487(2) 1.000000(28) 0.89356(4)
C1_4 C 0.60175(21) 0.09404(13) 0.1343(3)
C2_4 C 0.63343(22) 0.12480(14) 0.1843(3)
C3_4 C 0.64248(26) 0.16368(16) 0.1748(4)
H1_4 H 0.629336 0.170051 0.136270
C4_4 C 0.67107(26) 0.19287(16) 0.2226(4)
H2_4 H 0.676980 0.218835 0.216669
C5_4 C 0.69109(25) 0.18339(15) 0.2797(3)
C6_4 C 0.68191(26) 0.14411(17) 0.2880(4)
H3_4 H 0.695526 0.137495 0.325065
C7_4 C 0.65273(24) 0.11537(16) 0.2410(4)
H4_4 H 0.646029 0.089213 0.248001
C8_4 C 0.75320(34) 0.24680(15) 0.2888(5)
H5_4 H 0.752770 0.247230 0.232575
C9_4 C 0.72224(26) 0.21524(17) 0.3288(3)
C10_4 C 0.72208(26) 0.21508(16) 0.4130(3)
C11_4 C 0.75325(33) 0.24675(14) 0.4566(5)
C12_4 C 0.69012(26) 0.18442(17) 0.4592(3)
H6_4 H 0.668919 0.164144 0.431888
O1_3 O 0.59183(16) 0.05811(10) 0.1500(2)
O2_4 O 0.58615(13) 0.10450(8) 0.0815(2)
O3_5 O 0.56282(22) 0.03534(15) 0.000000
O4_3 O 0.51728(16) 0.03455(14) 0.1071(4)
O5_4 O 0.60126(13) 0.000000 0.0946(4)
O6_4 O 0.54224(14) -0.000000 0.2414(3)
Zr2_3 Zr 0.545130(20) 0.000000 0.10644(4)
C13_4 C 0.90596(26) 0.39825(21) 0.8657(3)
C14_4 C 0.87520(28) 0.36657(22) 0.8157(3)
C15_4 C 0.83632(33) 0.35752(26) 0.8252(4)
H7_4 H 0.829949 0.370664 0.863730
C16_4 C 0.80713(33) 0.32893(26) 0.7774(4)
H8_4 H 0.781165 0.323020 0.783331
C17_4 C 0.81661(32) 0.30891(25) 0.7203(3)
C18_4 C 0.85589(33) 0.31809(26) 0.7120(4)
H9_4 H 0.862505 0.304474 0.674935
C19_4 C 0.88463(30) 0.34727(24) 0.7590(4)
H10_4 H 0.910787 0.353971 0.751999
C20_4 C 0.75320(45) 0.24680(34) 0.7112(5)
H11_4 H 0.752770 0.247230 0.767425
C21_4 C 0.78476(33) 0.27776(26) 0.6712(3)
C22_4 C 0.78492(33) 0.27792(26) 0.5870(3)
C23_4 C 0.75325(45) 0.24675(33) 0.5434(5)
C24_4 C 0.81558(33) 0.30988(26) 0.5408(3)
H12_4 H 0.835856 0.331081 0.568112
O7_4 O 0.94189(20) 0.40817(16) 0.8500(2)
C25_4 C 0.60175(21) 0.09404(13) 0.8657(3)
C26_4 C 0.63343(22) 0.12480(14) 0.8157(3)
C27_4 C 0.64248(26) 0.16368(16) 0.8252(4)
H13_4 H 0.629336 0.170051 0.863730
C28_4 C 0.67107(26) 0.19287(16) 0.7774(4)
H14_4 H 0.676980 0.218835 0.783331
C29_4 C 0.69109(25) 0.18339(15) 0.7203(3)
C30_4 C 0.68191(26) 0.14411(17) 0.7120(4)
H15_4 H 0.695526 0.137495 0.674935
C31_4 C 0.65273(24) 0.11537(16) 0.7590(4)
H16_4 H 0.646029 0.089213 0.751999
C32_4 C 0.72224(26) 0.21524(17) 0.6712(3)
C33_4 C 0.72208(26) 0.21508(16) 0.5870(3)
C34_4 C 0.69012(26) 0.18442(17) 0.5408(3)
H17_4 H 0.668919 0.164144 0.568112
O9_4 O 0.59183(16) 0.05811(10) 0.8500(2)
O10_4 O 0.58615(13) 0.10450(8) 0.9185(2)
C35_4 C 0.90596(26) 0.39825(21) 0.1343(3)
C36_4 C 0.87520(28) 0.36657(22) 0.1843(3)
C37_4 C 0.83632(33) 0.35752(26) 0.1748(4)
H18_4 H 0.829949 0.370664 0.136270
C38_4 C 0.80713(33) 0.32893(26) 0.2226(4)
H19_4 H 0.781165 0.323020 0.216669
C39_4 C 0.81661(32) 0.30891(25) 0.2797(3)
C40_4 C 0.85589(33) 0.31809(26) 0.2880(4)
H20_4 H 0.862505 0.304474 0.325065
C41_4 C 0.88463(30) 0.34727(24) 0.2410(4)
H21_4 H 0.910787 0.353971 0.248001
C42_4 C 0.78476(33) 0.27776(26) 0.3288(3)
C43_4 C 0.78492(33) 0.27792(26) 0.4130(3)
C44_4 C 0.81558(33) 0.30988(26) 0.4592(3)
H22_4 H 0.835856 0.331081 0.431888
O15_4 O 0.39874(13) 0.000000 0.0946(4)
O16_4 O 0.45776(14) 0.000000 0.2414(3)
O24_5 O 0.47252(27) 0.03534(15) 0.000000
Zr10_3 Zr 0.545130(20) 0.000000 0.89356(4)
O3_6 O 0.56282(22) 0.03534(15) 1.000000
O24_6 O 0.47252(27) 0.03534(15) 1.000000
O25_4 O 0.51727(21) 0.03455(14) 0.8929(4)
O5_5 O 0.60126(13) 1.000000 0.0946(4)
O6_5 O 0.54224(14) 1.000000 0.2414(3)
Zr2_4 Zr 0.545130(20) 1.000000 0.10644(4)
O13_5 O 0.43718(22) 0.96466(15) 0.000000
O14_3 O 0.48272(16) 0.96545(14) 0.1071(4)
O15_5 O 0.39874(13) 1.000000 0.0946(4)
O16_5 O 0.45776(14) 1.000000 0.2414(3)
O17_3 O 0.40817(16) 0.94189(10) 0.1500(2)
O19_2 O 0.53372(19) 0.94189(10) 0.1500(2)
O23_5 O 0.52748(27) 0.96466(15) 0.000000
Zr5_3 Zr 0.46392(3) 0.92784(2) 0.000000
Zr10_4 Zr 0.545130(20) 1.000000 0.89356(4)
O13_6 O 0.43718(22) 0.96466(15) 1.000000
O23_6 O 0.52748(27) 0.96466(15) 1.000000
Zr5_4 Zr 0.46392(3) 0.92784(2) 1.000000
C1_5 C 0.39825(21) 0.90596(13) 0.1343(3)
C2_5 C 0.36657(22) 0.87520(14) 0.1843(3)
C3_5 C 0.35752(26) 0.83632(16) 0.1748(4)
H1_5 H 0.370664 0.829949 0.136270
C4_5 C 0.32893(26) 0.80713(16) 0.2226(4)
H2_5 H 0.323020 0.781165 0.216669
C5_5 C 0.30891(25) 0.81661(15) 0.2797(3)
C6_5 C 0.31809(26) 0.85589(17) 0.2880(4)
H3_5 H 0.304474 0.862505 0.325065
C7_5 C 0.34727(24) 0.88463(16) 0.2410(4)
H4_5 H 0.353971 0.910787 0.248001
C8_5 C 0.24680(34) 0.75320(15) 0.2888(5)
H5_5 H 0.247230 0.752770 0.232575
C9_5 C 0.27776(26) 0.78476(17) 0.3288(3)
C10_5 C 0.27792(26) 0.78492(16) 0.4130(3)
C11_5 C 0.24675(33) 0.75325(14) 0.4566(5)
C12_5 C 0.30988(26) 0.81558(17) 0.4592(3)
H6_5 H 0.331081 0.835856 0.431888
O2_5 O 0.41385(13) 0.89550(8) 0.0815(2)
C13_5 C 0.09404(26) 0.60175(21) 0.8657(3)
C14_5 C 0.12480(28) 0.63343(22) 0.8157(3)
C15_5 C 0.16368(33) 0.64248(26) 0.8252(4)
H7_5 H 0.170051 0.629336 0.863730
C16_5 C 0.19287(33) 0.67107(26) 0.7774(4)
H8_5 H 0.218835 0.676980 0.783331
C17_5 C 0.18339(32) 0.69109(25) 0.7203(3)
C18_5 C 0.14411(33) 0.68191(26) 0.7120(4)
H9_5 H 0.137495 0.695526 0.674935
C19_5 C 0.11537(30) 0.65273(24) 0.7590(4)
H10_5 H 0.089213 0.646029 0.751999
C20_5 C 0.24680(45) 0.75320(34) 0.7112(5)
H11_5 H 0.247230 0.752770 0.767425
C21_5 C 0.21524(33) 0.72224(26) 0.6712(3)
C22_5 C 0.21508(33) 0.72208(26) 0.5870(3)
C23_5 C 0.24675(45) 0.75325(33) 0.5434(5)
C24_5 C 0.18442(33) 0.69012(26) 0.5408(3)
H12_5 H 0.164144 0.668919 0.568112
O7_5 O 0.05811(20) 0.59183(16) 0.8500(2)
C25_5 C 0.39825(21) 0.90596(13) 0.8657(3)
C26_5 C 0.36657(22) 0.87520(14) 0.8157(3)
C27_5 C 0.35752(26) 0.83632(16) 0.8252(4)
H13_5 H 0.370664 0.829949 0.863730
C28_5 C 0.32893(26) 0.80713(16) 0.7774(4)
H14_5 H 0.323020 0.781165 0.783331
C29_5 C 0.30891(25) 0.81661(15) 0.7203(3)
C30_5 C 0.31809(26) 0.85589(17) 0.7120(4)
H15_5 H 0.304474 0.862505 0.674935
C31_5 C 0.34727(24) 0.88463(16) 0.7590(4)
H16_5 H 0.353971 0.910787 0.751999
C32_5 C 0.27776(26) 0.78476(17) 0.6712(3)
C33_5 C 0.27792(26) 0.78492(16) 0.5870(3)
C34_5 C 0.30988(26) 0.81558(17) 0.5408(3)
H17_5 H 0.331081 0.835856 0.568112
O9_5 O 0.40817(16) 0.94189(10) 0.8500(2)
O10_5 O 0.41385(13) 0.89550(8) 0.9185(2)
C35_5 C 0.09404(26) 0.60175(21) 0.1343(3)
C36_5 C 0.12480(28) 0.63343(22) 0.1843(3)
C37_5 C 0.16368(33) 0.64248(26) 0.1748(4)
H18_5 H 0.170051 0.629336 0.136270
C38_5 C 0.19287(33) 0.67107(26) 0.2226(4)
H19_5 H 0.218835 0.676980 0.216669
C39_5 C 0.18339(32) 0.69109(25) 0.2797(3)
C40_5 C 0.14411(33) 0.68191(26) 0.2880(4)
H20_5 H 0.137495 0.695526 0.325065
C41_5 C 0.11537(30) 0.65273(24) 0.2410(4)
H21_5 H 0.089213 0.646029 0.248001
C42_5 C 0.21524(33) 0.72224(26) 0.3288(3)
C43_5 C 0.21508(33) 0.72208(26) 0.4130(3)
C44_5 C 0.18442(33) 0.69012(26) 0.4592(3)
H22_5 H 0.164144 0.668919 0.431888
O22_3 O 0.48165(15) 0.89550(8) 0.0815(2)
O20_3 O 0.48165(15) 0.89550(8) 0.9185(2)
O25_5 O 0.48273(21) 0.96545(14) 0.8929(4)
C1_6 C 0.50771(16) 0.60175(21) 0.1343(3)
C2_6 C 0.50863(17) 0.63343(22) 0.1843(3)
C3_6 C 0.4788(2) 0.64248(26) 0.1748(4)
H1_6 H 0.459285 0.629336 0.136270
C4_6 C 0.4782(2) 0.67107(26) 0.2226(4)
H2_6 H 0.458145 0.676980 0.216669
C5_6 C 0.5077(2) 0.69109(25) 0.2797(3)
C6_6 C 0.5378(2) 0.68191(26) 0.2880(4)
H3_6 H 0.558031 0.695526 0.325065
C7_6 C 0.53736(18) 0.65273(24) 0.2410(4)
H4_6 H 0.556816 0.646029 0.248001
C8_6 C 0.5064(3) 0.75320(34) 0.2888(5)
H5_6 H 0.505540 0.752770 0.232575
C9_6 C 0.5070(2) 0.72224(26) 0.3288(3)
C10_6 C 0.5070(2) 0.72208(26) 0.4130(3)
C11_6 C 0.5065(3) 0.75325(33) 0.4566(5)
C12_6 C 0.5057(2) 0.69012(26) 0.4592(3)
H6_6 H 0.504775 0.668919 0.431888
O2_6 O 0.48165(10) 0.58615(13) 0.0815(2)
C13_6 C 0.50771(16) 0.90596(26) 0.8657(3)
C14_6 C 0.50863(17) 0.87520(28) 0.8157(3)
C15_6 C 0.4788(2) 0.83632(33) 0.8252(4)
H7_6 H 0.459285 0.829949 0.863730
C16_6 C 0.4782(2) 0.80713(33) 0.7774(4)
H8_6 H 0.458145 0.781165 0.783331
C17_6 C 0.5077(2) 0.81661(32) 0.7203(3)
C18_6 C 0.5378(2) 0.85589(33) 0.7120(4)
H9_6 H 0.558031 0.862505 0.674935
C19_6 C 0.53736(18) 0.88463(30) 0.7590(4)
H10_6 H 0.556816 0.910787 0.751999
C20_6 C 0.5064(3) 0.75320(45) 0.7112(5)
H11_6 H 0.505540 0.752770 0.767425
C21_6 C 0.5070(2) 0.78476(33) 0.6712(3)
C22_6 C 0.5070(2) 0.78492(33) 0.5870(3)
C23_6 C 0.5065(3) 0.75325(45) 0.5434(5)
C24_6 C 0.5057(2) 0.81558(33) 0.5408(3)
H12_6 H 0.504775 0.835856 0.568112
O7_6 O 0.53372(12) 0.94189(20) 0.8500(2)
C25_6 C 0.50771(16) 0.60175(21) 0.8657(3)
C26_6 C 0.50863(17) 0.63343(22) 0.8157(3)
C27_6 C 0.4788(2) 0.64248(26) 0.8252(4)
H13_6 H 0.459285 0.629336 0.863730
C28_6 C 0.4782(2) 0.67107(26) 0.7774(4)
H14_6 H 0.458145 0.676980 0.783331
C29_6 C 0.5077(2) 0.69109(25) 0.7203(3)
C30_6 C 0.5378(2) 0.68191(26) 0.7120(4)
H15_6 H 0.558031 0.695526 0.674935
C31_6 C 0.53736(18) 0.65273(24) 0.7590(4)
H16_6 H 0.556816 0.646029 0.751999
C32_6 C 0.5070(2) 0.72224(26) 0.6712(3)
C33_6 C 0.5070(2) 0.72208(26) 0.5870(3)
C34_6 C 0.5057(2) 0.69012(26) 0.5408(3)
H17_6 H 0.504775 0.668919 0.568112
O9_6 O 0.53372(12) 0.59183(16) 0.8500(2)
O10_6 O 0.48165(10) 0.58615(13) 0.9185(2)
C35_6 C 0.50771(16) 0.90596(26) 0.1343(3)
C36_6 C 0.50863(17) 0.87520(28) 0.1843(3)
C37_6 C 0.4788(2) 0.83632(33) 0.1748(4)
H18_6 H 0.459285 0.829949 0.136270
C38_6 C 0.4782(2) 0.80713(33) 0.2226(4)
H19_6 H 0.458145 0.781165 0.216669
C39_6 C 0.5077(2) 0.81661(32) 0.2797(3)
C40_6 C 0.5378(2) 0.85589(33) 0.2880(4)
H20_6 H 0.558031 0.862505 0.325065
C41_6 C 0.53736(18) 0.88463(30) 0.2410(4)
H21_6 H 0.556816 0.910787 0.248001
C42_6 C 0.5070(2) 0.78476(33) 0.3288(3)
C43_6 C 0.5070(2) 0.78492(33) 0.4130(3)
C44_6 C 0.5057(2) 0.81558(33) 0.4592(3)
H22_6 H 0.504775 0.835856 0.431888
O25_6 O 0.48272(16) 0.51727(21) 0.8929(4)
O5_6 O 0.39874(13) 0.39874(13) 0.9054(4)
O6_6 O 0.45776(14) 0.45776(14) 0.7586(3)
O15_6 O 0.60126(13) 0.60126(13) 0.9054(4)
O16_6 O 0.54224(14) 0.54224(14) 0.7586(3)
O5_7 O -0.000000 0.60126(13) 0.9054(4)
O6_7 O -0.000000 0.54224(14) 0.7586(3)
O15_7 O -0.000000 0.39874(13) 0.9054(4)
O16_7 O 0.000000 0.45776(14) 0.7586(3)
O5_8 O 1.000000 0.60126(13) 0.9054(4)
O6_8 O 1.000000 0.54224(14) 0.7586(3)
O15_8 O 1.000000 0.39874(13) 0.9054(4)
O16_8 O 1.000000 0.45776(14) 0.7586(3)
O5_9 O 0.60126(13) 0.000000 0.9054(4)
O6_9 O 0.54224(14) 0.000000 0.7586(3)
O15_9 O 0.39874(13) 0.000000 0.9054(4)
O16_9 O 0.45776(14) -0.000000 0.7586(3)
O5_10 O 0.60126(13) 1.000000 0.9054(4)
O6_10 O 0.54224(14) 1.000000 0.7586(3)
O15_10 O 0.39874(13) 1.000000 0.9054(4)
O16_10 O 0.45776(14) 1.000000 0.7586(3)
loop_
_geom_bond_atom_site_label_1
_geom_bond_atom_site_label_2
_geom_bond_site_symmetry_1
_geom_bond_site_symmetry_2
O5 Zr2 1_555 1_555
O6 Zr2 1_555 1_555
O13 Zr3 1_555 1_555
O14 Zr2 1_555 1_555
O15 Zr3 1_555 1_555
O16 Zr3 1_555 1_555
O17 Zr3 1_555 1_555
O19 Zr2 1_555 1_555
O23 Zr2 1_555 1_555
Zr5 O13 1_555 1_555
O14 Zr3 1_555 1_555
O14 Zr5 1_555 1_555
O23 Zr5 1_555 1_555
Zr5_2 O13_2 1_555 1_555
Zr11 O13_2 1_555 1_555
O23_2 Zr5_2 1_555 1_555
O23_2 Zr10 1_555 1_555
C1 C2 1_555 1_555
C2 C3 1_555 1_555
C3 H1 1_555 1_555
C4 C3 1_555 1_555
H2 C4 1_555 1_555
C5 C4 1_555 1_555
C6 C5 1_555 1_555
H3 C6 1_555 1_555
C7 C2 1_555 1_555
H4 C7 1_555 1_555
C8 H5 1_555 1_555
C9 C5 1_555 1_555
C10 C9 1_555 1_555
C11 C10 1_555 1_555
C12 C10 1_555 1_555
H6 C12 1_555 1_555
O1 C1 1_555 1_555
O2 C1 1_555 1_555
O3 Zr4 1_555 1_555
O4 Zr4 1_555 1_555
O5_2 Zr2_2 1_555 1_555
O6_2 Zr2_2 1_555 1_555
Zr4 O2 1_555 1_555
Zr2_2 O1 1_555 1_555
C13 C14 1_555 1_555
C14 C15 1_555 1_555
C15 H7 1_555 1_555
C16 C15 1_555 1_555
H8 C16 1_555 1_555
C17 C16 1_555 1_555
C18 C17 1_555 1_555
H9 C18 1_555 1_555
C19 C14 1_555 1_555
H10 C19 1_555 1_555
C20 H11 1_555 1_555
C21 C17 1_555 1_555
C22 C21 1_555 1_555
C23 C11 1_555 1_555
C24 C22 1_555 1_555
H12 C24 1_555 1_555
O7 C13 1_555 1_555
O8 C13 1_555 1_555
C25 C26 1_555 1_555
C26 C27 1_555 1_555
C27 H13 1_555 1_555
C28 C27 1_555 1_555
H14 C28 1_555 1_555
C29 C28 1_555 1_555
C30 C29 1_555 1_555
H15 C30 1_555 1_555
C31 C26 1_555 1_555
H16 C31 1_555 1_555
C32 C20 1_555 1_555
C33 C23 1_555 1_555
C34 C12 1_555 1_555
H17 C34 1_555 1_555
O9 C25 1_555 1_555
O10 C25 1_555 1_555
C35 C36 1_555 1_555
C36 C37 1_555 1_555
C37 H18 1_555 1_555
C38 C37 1_555 1_555
H19 C38 1_555 1_555
C39 C38 1_555 1_555
C40 C39 1_555 1_555
H20 C40 1_555 1_555
C41 C36 1_555 1_555
H21 C41 1_555 1_555
C42 C8 1_555 1_555
C43 C11 1_555 1_555
C44 C24 1_555 1_555
H22 C44 1_555 1_555
O11 C35 1_555 1_555
O12 C35 1_555 1_555
O15_2 Zr3_2 1_555 1_555
O16_2 Zr3_2 1_555 1_555
Zr3_2 O4 1_555 1_555
O18 Zr3_2 1_555 1_555
O22 Zr4 1_555 1_555
O24 Zr4 1_555 1_555
Zr4_2 O10 1_555 1_555
Zr7 O12 1_555 1_555
Zr7_2 O8 1_555 1_555
Zr8 O11 1_555 1_555
Zr10_2 O9 1_555 1_555
Zr12 O7 1_555 1_555
C6 C7 1_555 1_555
C8 C9 1_555 1_555
O3 Zr2_2 1_555 1_555
O4 Zr2_2 1_555 1_555
C18 C19 1_555 1_555
C20 C21 1_555 1_555
C22 C23 1_555 1_555
C29 C32 1_555 1_555
C30 C31 1_555 1_555
C32 C33 1_555 1_555
C33 C34 1_555 1_555
C39 C42 1_555 1_555
C40 C41 1_555 1_555
C42 C43 1_555 1_555
C43 C44 1_555 1_555
Zr3_2 O24 1_555 1_555
O3_2 Zr4_2 1_555 1_555
O20 Zr4_2 1_555 1_555
O24_2 Zr4_2 1_555 1_555
O25 Zr4_2 1_555 1_555
Zr10_2 O3_2 1_555 1_555
O24_2 Zr11_2 1_555 1_555
O25 Zr10_2 1_555 1_555
O25 Zr11_2 1_555 1_555
C1_2 C2_2 1_555 1_555
C2_2 C3_2 1_555 1_555
C3_2 H1_2 1_555 1_555
C4_2 C3_2 1_555 1_555
H2_2 C4_2 1_555 1_555
C5_2 C4_2 1_555 1_555
C6_2 C5_2 1_555 1_555
H3_2 C6_2 1_555 1_555
C7_2 C2_2 1_555 1_555
H4_2 C7_2 1_555 1_555
C8_2 H5_2 1_555 1_555
C9_2 C5_2 1_555 1_555
C10_2 C9_2 1_555 1_555
C11_2 C10_2 1_555 1_555
C12_2 C10_2 1_555 1_555
H6_2 C12_2 1_555 1_555
O17 C1_2 1_555 1_555
O2_2 C1_2 1_555 1_555
Zr5 O2_2 1_555 1_555
C13_2 C14_2 1_555 1_555
C14_2 C15_2 1_555 1_555
C15_2 H7_2 1_555 1_555
C16_2 C15_2 1_555 1_555
H8_2 C16_2 1_555 1_555
C17_2 C16_2 1_555 1_555
C18_2 C17_2 1_555 1_555
H9_2 C18_2 1_555 1_555
C19_2 C14_2 1_555 1_555
H10_2 C19_2 1_555 1_555
C20_2 H11_2 1_555 1_555
C21_2 C17_2 1_555 1_555
C22_2 C21_2 1_555 1_555
C23_2 C11_2 1_555 1_555
C24_2 C22_2 1_555 1_555
H12_2 C24_2 1_555 1_555
O7_2 C13_2 1_555 1_555
O8_2 C13_2 1_555 1_555
C25_2 C26_2 1_555 1_555
C26_2 C27_2 1_555 1_555
C27_2 H13_2 1_555 1_555
C28_2 C27_2 1_555 1_555
H14_2 C28_2 1_555 1_555
C29_2 C28_2 1_555 1_555
C30_2 C29_2 1_555 1_555
H15_2 C30_2 1_555 1_555
C31_2 C26_2 1_555 1_555
H16_2 C31_2 1_555 1_555
C32_2 C20_2 1_555 1_555
C33_2 C23_2 1_555 1_555
C34_2 C12_2 1_555 1_555
H17_2 C34_2 1_555 1_555
O9_2 C25_2 1_555 1_555
O10_2 C25_2 1_555 1_555
C35_2 C36_2 1_555 1_555
C36_2 C37_2 1_555 1_555
C37_2 H18_2 1_555 1_555
C38_2 C37_2 1_555 1_555
H19_2 C38_2 1_555 1_555
C39_2 C38_2 1_555 1_555
C40_2 C39_2 1_555 1_555
H20_2 C40_2 1_555 1_555
C41_2 C36_2 1_555 1_555
H21_2 C41_2 1_555 1_555
C42_2 C8_2 1_555 1_555
C43_2 C11_2 1_555 1_555
C44_2 C24_2 1_555 1_555
H22_2 C44_2 1_555 1_555
O11_2 C35_2 1_555 1_555
O12_2 C35_2 1_555 1_555
O22_2 Zr5 1_555 1_555
Zr5_2 O10_2 1_555 1_555
Zr7_3 O12_2 1_555 1_555
Zr7_4 O8_2 1_555 1_555
Zr8_2 O11_2 1_555 1_555
Zr11 O9_2 1_555 1_555
Zr12_2 O7_2 1_555 1_555
C6_2 C7_2 1_555 1_555
C8_2 C9_2 1_555 1_555
C18_2 C19_2 1_555 1_555
C20_2 C21_2 1_555 1_555
C22_2 C23_2 1_555 1_555
C29_2 C32_2 1_555 1_555
C30_2 C31_2 1_555 1_555
C32_2 C33_2 1_555 1_555
C33_2 C34_2 1_555 1_555
C39_2 C42_2 1_555 1_555
C40_2 C41_2 1_555 1_555
C42_2 C43_2 1_555 1_555
C43_2 C44_2 1_555 1_555
O20_2 Zr5_2 1_555 1_555
O25_2 Zr5_2 1_555 1_555
O25_2 Zr11 1_555 1_555
O25_2 Zr10 1_555 1_555
C1_3 C2_3 1_555 1_555
C2_3 C3_3 1_555 1_555
C3_3 H1_3 1_555 1_555
C4_3 C3_3 1_555 1_555
H2_3 C4_3 1_555 1_555
C5_3 C4_3 1_555 1_555
C6_3 C5_3 1_555 1_555
H3_3 C6_3 1_555 1_555
C7_3 C2_3 1_555 1_555
H4_3 C7_3 1_555 1_555
C8_3 H5_3 1_555 1_555
C9_3 C5_3 1_555 1_555
C10_3 C9_3 1_555 1_555
C11_3 C10_3 1_555 1_555
C12_3 C10_3 1_555 1_555
H6_3 C12_3 1_555 1_555
O1_2 C1_3 1_555 1_555
O2_3 C1_3 1_555 1_555
O3_3 Zr7 1_555 1_555
O4_2 Zr7 1_555 1_555
O5_3 Zr8_2 1_555 1_555
O6_3 Zr8_2 1_555 1_555
Zr7 O2_3 1_555 1_555
Zr8_2 O1_2 1_555 1_555
C13_3 C14_3 1_555 1_555
C14_3 C15_3 1_555 1_555
C15_3 H7_3 1_555 1_555
C16_3 C15_3 1_555 1_555
H8_3 C16_3 1_555 1_555
C17_3 C16_3 1_555 1_555
C18_3 C17_3 1_555 1_555
H9_3 C18_3 1_555 1_555
C19_3 C14_3 1_555 1_555
H10_3 C19_3 1_555 1_555
C20_3 H11_3 1_555 1_555
C21_3 C17_3 1_555 1_555
C22_3 C21_3 1_555 1_555
C23_3 C11_3 1_555 1_555
C24_3 C22_3 1_555 1_555
H12_3 C24_3 1_555 1_555
O7_3 C13_3 1_555 1_555
O8_3 C13_3 1_555 1_555
C25_3 C26_3 1_555 1_555
C26_3 C27_3 1_555 1_555
C27_3 H13_3 1_555 1_555
C28_3 C27_3 1_555 1_555
H14_3 C28_3 1_555 1_555
C29_3 C28_3 1_555 1_555
C30_3 C29_3 1_555 1_555
H15_3 C30_3 1_555 1_555
C31_3 C26_3 1_555 1_555
H16_3 C31_3 1_555 1_555
C32_3 C20_3 1_555 1_555
C33_3 C23_3 1_555 1_555
C34_3 C12_3 1_555 1_555
H17_3 C34_3 1_555 1_555
O9_3 C25_3 1_555 1_555
O10_3 C25_3 1_555 1_555
C35_3 C36_3 1_555 1_555
C36_3 C37_3 1_555 1_555
C37_3 H18_3 1_555 1_555
C38_3 C37_3 1_555 1_555
H19_3 C38_3 1_555 1_555
C39_3 C38_3 1_555 1_555
C40_3 C39_3 1_555 1_555
H20_3 C40_3 1_555 1_555
C41_3 C36_3 1_555 1_555
H21_3 C41_3 1_555 1_555
C42_3 C8_3 1_555 1_555
C43_3 C11_3 1_555 1_555
C44_3 C24_3 1_555 1_555
H22_3 C44_3 1_555 1_555
O11_3 C35_3 1_555 1_555
O12_3 C35_3 1_555 1_555
O13_3 Zr8 1_555 1_555
O14_2 Zr8_2 1_555 1_555
O15_3 Zr8 1_555 1_555
O16_3 Zr8 1_555 1_555
Zr8 O4_2 1_555 1_555
O17_2 Zr8 1_555 1_555
O23_3 Zr8_2 1_555 1_555
O24_3 Zr7 1_555 1_555
Zr7_2 O10_3 1_555 1_555
Zr7_3 O13_3 1_555 1_555
Zr7_5 O12_3 1_555 1_555
Zr7_6 O8_3 1_555 1_555
Zr8_3 O11_3 1_555 1_555
Zr12_2 O9_3 1_555 1_555
Zr12_3 O7_3 1_555 1_555
C6_3 C7_3 1_555 1_555
C8_3 C9_3 1_555 1_555
O3_3 Zr8_2 1_555 1_555
O4_2 Zr8_2 1_555 1_555
C18_3 C19_3 1_555 1_555
C20_3 C21_3 1_555 1_555
C22_3 C23_3 1_555 1_555
C29_3 C32_3 1_555 1_555
C30_3 C31_3 1_555 1_555
C32_3 C33_3 1_555 1_555
C33_3 C34_3 1_555 1_555
C39_3 C42_3 1_555 1_555
C40_3 C41_3 1_555 1_555
C42_3 C43_3 1_555 1_555
C43_3 C44_3 1_555 1_555
O14_2 Zr8 1_555 1_555
O14_2 Zr7_3 1_555 1_555
Zr8 O24_3 1_555 1_555
O23_3 Zr7_3 1_555 1_555
O3_4 Zr7_2 1_555 1_555
O24_4 Zr7_2 1_555 1_555
O25_3 Zr7_2 1_555 1_555
Zr7_4 O13_4 1_555 1_555
Zr12_2 O3_4 1_555 1_555
Zr12 O13_4 1_555 1_555
O23_4 Zr7_4 1_555 1_555
O23_4 Zr12_2 1_555 1_555
O24_4 Zr12 1_555 1_555
O25_3 Zr12_2 1_555 1_555
O25_3 Zr12 1_555 1_555
C1_4 C2_4 1_555 1_555
C2_4 C3_4 1_555 1_555
C3_4 H1_4 1_555 1_555
C4_4 C3_4 1_555 1_555
H2_4 C4_4 1_555 1_555
C5_4 C4_4 1_555 1_555
C6_4 C5_4 1_555 1_555
H3_4 C6_4 1_555 1_555
C7_4 C2_4 1_555 1_555
H4_4 C7_4 1_555 1_555
C8_4 H5_4 1_555 1_555
C9_4 C5_4 1_555 1_555
C10_4 C9_4 1_555 1_555
C11_4 C10_4 1_555 1_555
C12_4 C10_4 1_555 1_555
H6_4 C12_4 1_555 1_555
O1_3 C1_4 1_555 1_555
O2_4 C1_4 1_555 1_555
O3_5 Zr7_5 1_555 1_555
O4_3 Zr7_5 1_555 1_555
O5_4 Zr2_3 1_555 1_555
O6_4 Zr2_3 1_555 1_555
Zr7_5 O2_4 1_555 1_555
Zr2_3 O1_3 1_555 1_555
C13_4 C14_4 1_555 1_555
C14_4 C15_4 1_555 1_555
C15_4 H7_4 1_555 1_555
C16_4 C15_4 1_555 1_555
H8_4 C16_4 1_555 1_555
C17_4 C16_4 1_555 1_555
C18_4 C17_4 1_555 1_555
H9_4 C18_4 1_555 1_555
C19_4 C14_4 1_555 1_555
H10_4 C19_4 1_555 1_555
C20_4 H11_4 1_555 1_555
C21_4 C17_4 1_555 1_555
C22_4 C21_4 1_555 1_555
C23_4 C11_4 1_555 1_555
C24_4 C22_4 1_555 1_555
H12_4 C24_4 1_555 1_555
O7_4 C13_4 1_555 1_555
O20 C13_4 1_555 1_555
C25_4 C26_4 1_555 1_555
C26_4 C27_4 1_555 1_555
C27_4 H13_4 1_555 1_555
C28_4 C27_4 1_555 1_555
H14_4 C28_4 1_555 1_555
C29_4 C28_4 1_555 1_555
C30_4 C29_4 1_555 1_555
H15_4 C30_4 1_555 1_555
C31_4 C26_4 1_555 1_555
H16_4 C31_4 1_555 1_555
C32_4 C20_4 1_555 1_555
C33_4 C23_4 1_555 1_555
C34_4 C12_4 1_555 1_555
H17_4 C34_4 1_555 1_555
O9_4 C25_4 1_555 1_555
O10_4 C25_4 1_555 1_555
C35_4 C36_4 1_555 1_555
C36_4 C37_4 1_555 1_555
C37_4 H18_4 1_555 1_555
C38_4 C37_4 1_555 1_555
H19_4 C38_4 1_555 1_555
C39_4 C38_4 1_555 1_555
C40_4 C39_4 1_555 1_555
H20_4 C40_4 1_555 1_555
C41_4 C36_4 1_555 1_555
H21_4 C41_4 1_555 1_555
C42_4 C8_4 1_555 1_555
C43_4 C11_4 1_555 1_555
C44_4 C24_4 1_555 1_555
H22_4 C44_4 1_555 1_555
O18 C35_4 1_555 1_555
O22 C35_4 1_555 1_555
O15_4 Zr8_3 1_555 1_555
O16_4 Zr8_3 1_555 1_555
Zr8_3 O4_3 1_555 1_555
O24_5 Zr7_5 1_555 1_555
Zr7_6 O10_4 1_555 1_555
Zr10_3 O9_4 1_555 1_555
Zr11_2 O7_4 1_555 1_555
C6_4 C7_4 1_555 1_555
C8_4 C9_4 1_555 1_555
O3_5 Zr2_3 1_555 1_555
O4_3 Zr2_3 1_555 1_555
C18_4 C19_4 1_555 1_555
C20_4 C21_4 1_555 1_555
C22_4 C23_4 1_555 1_555
C29_4 C32_4 1_555 1_555
C30_4 C31_4 1_555 1_555
C32_4 C33_4 1_555 1_555
C33_4 C34_4 1_555 1_555
C39_4 C42_4 1_555 1_555
C40_4 C41_4 1_555 1_555
C42_4 C43_4 1_555 1_555
C43_4 C44_4 1_555 1_555
Zr8_3 O24_5 1_555 1_555
O3_6 Zr7_6 1_555 1_555
O24_6 Zr7_6 1_555 1_555
O25_4 Zr7_6 1_555 1_555
Zr10_3 O3_6 1_555 1_555
O24_6 Zr12_3 1_555 1_555
O25_4 Zr10_3 1_555 1_555
O25_4 Zr12_3 1_555 1_555
O5_5 Zr2_4 1_555 1_555
O6_5 Zr2_4 1_555 1_555
O13_5 Zr8_4 1_555 1_555
O14_3 Zr2_4 1_555 1_555
O15_5 Zr8_4 1_555 1_555
O16_5 Zr8_4 1_555 1_555
O17_3 Zr8_4 1_555 1_555
O19_2 Zr2_4 1_555 1_555
O23_5 Zr2_4 1_555 1_555
Zr5_3 O13_5 1_555 1_555
O14_3 Zr8_4 1_555 1_555
O14_3 Zr5_3 1_555 1_555
O23_5 Zr5_3 1_555 1_555
Zr5_4 O13_6 1_555 1_555
Zr12_4 O13_6 1_555 1_555
O23_6 Zr5_4 1_555 1_555
O23_6 Zr10_4 1_555 1_555
C1_5 C2_5 1_555 1_555
C2_5 C3_5 1_555 1_555
C3_5 H1_5 1_555 1_555
C4_5 C3_5 1_555 1_555
H2_5 C4_5 1_555 1_555
C5_5 C4_5 1_555 1_555
C6_5 C5_5 1_555 1_555
H3_5 C6_5 1_555 1_555
C7_5 C2_5 1_555 1_555
H4_5 C7_5 1_555 1_555
C8_5 H5_5 1_555 1_555
C9_5 C5_5 1_555 1_555
C10_5 C9_5 1_555 1_555
C11_5 C10_5 1_555 1_555
C12_5 C10_5 1_555 1_555
H6_5 C12_5 1_555 1_555
O17_3 C1_5 1_555 1_555
O2_5 C1_5 1_555 1_555
Zr5_3 O2_5 1_555 1_555
C13_5 C14_5 1_555 1_555
C14_5 C15_5 1_555 1_555
C15_5 H7_5 1_555 1_555
C16_5 C15_5 1_555 1_555
H8_5 C16_5 1_555 1_555
C17_5 C16_5 1_555 1_555
C18_5 C17_5 1_555 1_555
H9_5 C18_5 1_555 1_555
C19_5 C14_5 1_555 1_555
H10_5 C19_5 1_555 1_555
C20_5 H11_5 1_555 1_555
C21_5 C17_5 1_555 1_555
C22_5 C21_5 1_555 1_555
C23_5 C11_5 1_555 1_555
C24_5 C22_5 1_555 1_555
H12_5 C24_5 1_555 1_555
O7_5 C13_5 1_555 1_555
O20_2 C13_5 1_555 1_555
C25_5 C26_5 1_555 1_555
C26_5 C27_5 1_555 1_555
C27_5 H13_5 1_555 1_555
C28_5 C27_5 1_555 1_555
H14_5 C28_5 1_555 1_555
C29_5 C28_5 1_555 1_555
C30_5 C29_5 1_555 1_555
H15_5 C30_5 1_555 1_555
C31_5 C26_5 1_555 1_555
H16_5 C31_5 1_555 1_555
C32_5 C20_5 1_555 1_555
C33_5 C23_5 1_555 1_555
C34_5 C12_5 1_555 1_555
H17_5 C34_5 1_555 1_555
O9_5 C25_5 1_555 1_555
O10_5 C25_5 1_555 1_555
C35_5 C36_5 1_555 1_555
C36_5 C37_5 1_555 1_555
C37_5 H18_5 1_555 1_555
C38_5 C37_5 1_555 1_555
H19_5 C38_5 1_555 1_555
C39_5 C38_5 1_555 1_555
C40_5 C39_5 1_555 1_555
H20_5 C40_5 1_555 1_555
C41_5 C36_5 1_555 1_555
H21_5 C41_5 1_555 1_555
C42_5 C8_5 1_555 1_555
C43_5 C11_5 1_555 1_555
C44_5 C24_5 1_555 1_555
H22_5 C44_5 1_555 1_555
O19 C35_5 1_555 1_555
O22_2 C35_5 1_555 1_555
O22_3 Zr5_3 1_555 1_555
Zr5_4 O10_5 1_555 1_555
Zr12_4 O9_5 1_555 1_555
Zr10 O7_5 1_555 1_555
C6_5 C7_5 1_555 1_555
C8_5 C9_5 1_555 1_555
C18_5 C19_5 1_555 1_555
C20_5 C21_5 1_555 1_555
C22_5 C23_5 1_555 1_555
C29_5 C32_5 1_555 1_555
C30_5 C31_5 1_555 1_555
C32_5 C33_5 1_555 1_555
C33_5 C34_5 1_555 1_555
C39_5 C42_5 1_555 1_555
C40_5 C41_5 1_555 1_555
C42_5 C43_5 1_555 1_555
C43_5 C44_5 1_555 1_555
O20_3 Zr5_4 1_555 1_555
O25_5 Zr5_4 1_555 1_555
O25_5 Zr12_4 1_555 1_555
O25_5 Zr10_4 1_555 1_555
C1_6 C2_6 1_555 1_555
C2_6 C3_6 1_555 1_555
C3_6 H1_6 1_555 1_555
C4_6 C3_6 1_555 1_555
H2_6 C4_6 1_555 1_555
C5_6 C4_6 1_555 1_555
C6_6 C5_6 1_555 1_555
H3_6 C6_6 1_555 1_555
C7_6 C2_6 1_555 1_555
H4_6 C7_6 1_555 1_555
C8_6 H5_6 1_555 1_555
C9_6 C5_6 1_555 1_555
C10_6 C9_6 1_555 1_555
C11_6 C10_6 1_555 1_555
C12_6 C10_6 1_555 1_555
H6_6 C12_6 1_555 1_555
O17_2 C1_6 1_555 1_555
O2_6 C1_6 1_555 1_555
Zr7_3 O2_6 1_555 1_555
C13_6 C14_6 1_555 1_555
C14_6 C15_6 1_555 1_555
C15_6 H7_6 1_555 1_555
C16_6 C15_6 1_555 1_555
H8_6 C16_6 1_555 1_555
C17_6 C16_6 1_555 1_555
C18_6 C17_6 1_555 1_555
H9_6 C18_6 1_555 1_555
C19_6 C14_6 1_555 1_555
H10_6 C19_6 1_555 1_555
C20_6 H11_6 1_555 1_555
C21_6 C17_6 1_555 1_555
C22_6 C21_6 1_555 1_555
C23_6 C11_6 1_555 1_555
C24_6 C22_6 1_555 1_555
H12_6 C24_6 1_555 1_555
O7_6 C13_6 1_555 1_555
O20_3 C13_6 1_555 1_555
C25_6 C26_6 1_555 1_555
C26_6 C27_6 1_555 1_555
C27_6 H13_6 1_555 1_555
C28_6 C27_6 1_555 1_555
H14_6 C28_6 1_555 1_555
C29_6 C28_6 1_555 1_555
C30_6 C29_6 1_555 1_555
H15_6 C30_6 1_555 1_555
C31_6 C26_6 1_555 1_555
H16_6 C31_6 1_555 1_555
C32_6 C20_6 1_555 1_555
C33_6 C23_6 1_555 1_555
C34_6 C12_6 1_555 1_555
H17_6 C34_6 1_555 1_555
O9_6 C25_6 1_555 1_555
O10_6 C25_6 1_555 1_555
C35_6 C36_6 1_555 1_555
C36_6 C37_6 1_555 1_555
C37_6 H18_6 1_555 1_555
C38_6 C37_6 1_555 1_555
H19_6 C38_6 1_555 1_555
C39_6 C38_6 1_555 1_555
C40_6 C39_6 1_555 1_555
H20_6 C40_6 1_555 1_555
C41_6 C36_6 1_555 1_555
H21_6 C41_6 1_555 1_555
C42_6 C8_6 1_555 1_555
C43_6 C11_6 1_555 1_555
C44_6 C24_6 1_555 1_555
H22_6 C44_6 1_555 1_555
O19_2 C35_6 1_555 1_555
O22_3 C35_6 1_555 1_555
Zr7_4 O10_6 1_555 1_555
Zr12 O9_6 1_555 1_555
Zr10_4 O7_6 1_555 1_555
C6_6 C7_6 1_555 1_555
C8_6 C9_6 1_555 1_555
C18_6 C19_6 1_555 1_555
C20_6 C21_6 1_555 1_555
C22_6 C23_6 1_555 1_555
C29_6 C32_6 1_555 1_555
C30_6 C31_6 1_555 1_555
C32_6 C33_6 1_555 1_555
C33_6 C34_6 1_555 1_555
C39_6 C42_6 1_555 1_555
C40_6 C41_6 1_555 1_555
C42_6 C43_6 1_555 1_555
C43_6 C44_6 1_555 1_555
O25_6 Zr7_4 1_555 1_555
O25_6 Zr12 1_555 1_555
O25_6 Zr12_2 1_555 1_555
O5_6 Zr12_2 1_555 1_555
O6_6 Zr12_2 1_555 1_555
O15_6 Zr12 1_555 1_555
O16_6 Zr12 1_555 1_555
O5_7 Zr10 1_555 1_555
O6_7 Zr10 1_555 1_555
O15_7 Zr11 1_555 1_555
O16_7 Zr11 1_555 1_555
O5_8 Zr10_2 1_555 1_555
O6_8 Zr10_2 1_555 1_555
O15_8 Zr11_2 1_555 1_555
O16_8 Zr11_2 1_555 1_555
O5_9 Zr10_3 1_555 1_555
O6_9 Zr10_3 1_555 1_555
O15_9 Zr12_3 1_555 1_555
O16_9 Zr12_3 1_555 1_555
O5_10 Zr10_4 1_555 1_555
O6_10 Zr10_4 1_555 1_555
O15_10 Zr12_4 1_555 1_555
O16_10 Zr12_4 1_555 1_555

#END
