
###############################################################################
#
# This file contains modified crystal structure data generated from the
# MOF subset of the Cambridge Structural Database (CSD) v543 
# hosted by the Cambridge Crystallographic Data Centre (CCDC).
#
# This work is licensed under the Creative Commons
# Attribution-NonCommercial-ShareAlike 4.0 International License.
# To view a copy of this license, visit
# http://creativecommons.org/licenses/by-nc-sa/4.0/
# or send a letter to
# Creative Commons, PO Box 1866, Mountain View, CA 94042, USA.
#
# CIF created using the CSD Python API on 29 September 2022
# The structure has been converted into the P1 space group
# The structure has a 3D framework
# The original CSD entry ULAPUU is in the monoclinic crystal system
# The framework has been calculated to contain at least 10.0% void space
# The void calculation uses a probe of radius 1.32A, grid spacing 0.4
# The framework is charged, counterions have been retained in the structure
#
###############################################################################

data_ULAPUU
_chemical_formula_moiety         '(C288 H224 Cd4 O92 16-)n'
_symmetry_cell_setting           triclinic
_symmetry_space_group_name_H-M   'P 1'
_symmetry_Int_Tables_number      1
_space_group_name_Hall           'P 1'
loop_
_symmetry_equiv_pos_site_id
_symmetry_equiv_pos_as_xyz
1 x,y,z
_cell_length_a                   29.0460(9)
_cell_length_b                   21.4360(6)
_cell_length_c                   14.6820(5)
_cell_angle_alpha                90
_cell_angle_beta                 93.618(3)
_cell_angle_gamma                90
_cell_volume                     9123.24
loop_
_atom_site_label
_atom_site_type_symbol
_atom_site_fract_x
_atom_site_fract_y
_atom_site_fract_z
C11 C 0.01767(13) 0.29151(19) 0.4090(3)
O7 O 0.02961(11) 0.27439(16) 0.4850(2)
O8 O 0.03830(11) 0.33319(15) 0.3680(3)
Cd2 Cd 0.097679(10) 0.341693(13) 0.48388(2)
O25 O 0.1250(2) 0.2440(3) 0.3827(4)
O26 O 0.15644(16) 0.3313(3) 0.3940(4)
O28 O 0.11548(15) 0.30008(18) 0.6178(3)
O31 O 0.04795(10) 0.43004(12) 0.55296(19)
O33 O 0.10330(9) 0.44565(12) 0.46085(18)
Cd3 Cd 0.902321(10) 0.341693(13) 0.01612(2)
C1 C 0.8471(2) 0.2781(4) 0.1383(4)
C2 C 0.8129(2) 0.2609(3) 0.2062(5)
H1 H 0.8109 0.2948 0.2495
H2 H 0.7828 0.2561 0.1744
C3 C 0.63916(17) 0.1645(3) 0.1675(3)
C4 C 0.64755(15) 0.1869(2) 0.2634(3)
H3 H 0.6653 0.2252 0.2630
H4 H 0.6181 0.1965 0.2878
C5 C 0.71680(12) 0.15335(15) 0.3441(2)
C6 C 0.74598(14) 0.17872(19) 0.2843(2)
H5 H 0.7348 0.1914 0.2265
C7 C 0.79241(13) 0.18529(16) 0.3108(2)
C8 C 0.80961(12) 0.16736(14) 0.3961(2)
C9 C 0.77944(11) 0.14153(14) 0.4525(2)
H6 H 0.7910 0.1281 0.5097
C10 C 0.73251(11) 0.13380(14) 0.4304(2)
C12 C 0.97772(13) 0.26135(18) 0.3553(3)
H7 H 0.9630 0.2924 0.3151
H8 H 0.9896 0.2288 0.3173
C13 C 0.92630(13) 0.53555(16) 0.4868(2)
C14 C 0.93175(12) 0.46690(15) 0.4737(3)
H9 H 0.9392 0.4581 0.4115
H10 H 0.9565 0.4511 0.5147
C15 C 0.91862(12) 0.33711(14) 0.4499(3)
H11 H 0.9479 0.3536 0.4435
C16 C 0.91048(11) 0.27469(15) 0.4340(2)
C17 C 0.86777(11) 0.24913(14) 0.4442(2)
C18 C 0.83377(12) 0.28857(14) 0.4707(2)
H12 H 0.8049 0.2717 0.4793
C19 C 0.84003(11) 0.35205(14) 0.4854(2)
C20 C 0.88365(12) 0.37495(14) 0.4752(2)
C21 C 0.85989(12) 0.17971(16) 0.4272(3)
H13 H 0.8787 0.1676 0.3769
C22 C 0.87676(14) 0.14155(18) 0.5103(4)
C23 C 0.8698(2) 0.1586(2) 0.5965(4)
H14 H 0.8548 0.1961 0.6062
C24 C 0.8842(2) 0.1218(4) 0.6730(5)
H15 H 0.8778 0.1334 0.7319
C25 C 0.9079(4) 0.0687(5) 0.6567(12)
C26 C 0.9266(4) 0.0308(5) 0.7431(8)
H17 H 0.9012 0.0182 0.7777
H18 H 0.9472 0.0566 0.7803
C27 C 0.9162(5) 0.0498(5) 0.5675(11)
H19 H 0.9321 0.0131 0.5575
C28 C 0.9004(2) 0.0867(3) 0.4950(7)
H20 H 0.9056 0.0746 0.4357
C29 C 0.80057(11) 0.39511(14) 0.5056(2)
H21 H 0.8145 0.4312 0.5378
C30 C 0.77762(12) 0.41982(16) 0.4184(2)
C31 C 0.75813(14) 0.38160(18) 0.3511(3)
H22 H 0.7597 0.3386 0.3595
C32 C 0.73683(19) 0.4038(2) 0.2736(3)
H23 H 0.7234 0.3762 0.2309
C33 C 0.7347(2) 0.4664(3) 0.2570(4)
C34 C 0.7113(3) 0.4936(4) 0.1672(5)
H24 H 0.7006 0.4601 0.1280
H25 H 0.7333 0.5183 0.1367
H26 H 0.6857 0.5193 0.1814
C35 C 0.7540(3) 0.5051(3) 0.3223(5)
H27 H 0.7532 0.5479 0.3119
C36 C 0.77444(19) 0.4833(2) 0.4027(4)
H28 H 0.7862 0.5111 0.4468
O1 O 0.8750(2) 0.2440(3) 0.1173(4)
O2 O 0.84356(16) 0.3313(3) 0.1060(4)
O3 O 0.65394(17) 0.1158(3) 0.1426(3)
O4 O 0.61548(15) 0.19992(18) 0.1178(3)
O5 O 0.82342(10) 0.20847(13) 0.25193(19)
O6 O 0.67083(9) 0.14409(13) 0.32095(17)
O9 O 0.95205(10) 0.56996(12) 0.44704(19)
O10 O 0.89670(9) 0.55435(12) 0.53915(18)
O11 O 0.94399(8) 0.23507(11) 0.40889(19)
O12 O 0.88925(8) 0.43771(10) 0.49250(18)
C37 C 0.6529(2) 0.2219(4) 0.8617(4)
C38 C 0.6871(2) 0.2391(3) 0.7938(5)
H29 H 0.6891 0.2052 0.7505
H30 H 0.7172 0.2439 0.8256
C39 C 0.86084(17) 0.3355(3) 0.8325(3)
C40 C 0.85245(15) 0.3131(2) 0.7366(3)
H31 H 0.8347 0.2748 0.7370
H32 H 0.8819 0.3035 0.7122
C41 C 0.78320(12) 0.34665(15) 0.6559(2)
C42 C 0.75402(14) 0.32128(19) 0.7157(2)
H33 H 0.7652 0.3086 0.7735
C43 C 0.70759(13) 0.31471(16) 0.6892(2)
C44 C 0.69039(12) 0.33264(14) 0.6039(2)
C45 C 0.72056(11) 0.35847(14) 0.5475(2)
H34 H 0.7090 0.3719 0.4903
C46 C 0.76749(11) 0.36620(14) 0.5696(2)
C47 C 0.48233(13) 0.20849(19) 0.5910(3)
C48 C 0.52228(13) 0.23865(18) 0.6447(3)
H35 H 0.5370 0.2076 0.6849
H36 H 0.5104 0.2712 0.6827
C50 C 0.56825(12) 0.03310(15) 0.5263(3)
H37 H 0.5608 0.0419 0.5885
H38 H 0.5435 0.0489 0.4853
C51 C 0.58138(12) 0.16289(14) 0.5501(3)
H39 H 0.5521 0.1464 0.5565
C52 C 0.58952(11) 0.22531(15) 0.5660(2)
C53 C 0.63223(11) 0.25087(14) 0.5558(2)
C54 C 0.66623(12) 0.21143(14) 0.5293(2)
H40 H 0.6951 0.2283 0.5207
C55 C 0.65997(11) 0.14795(14) 0.5146(2)
C56 C 0.61635(12) 0.12505(14) 0.5248(2)
C57 C 0.64011(12) 0.32029(16) 0.5728(3)
H41 H 0.6213 0.3324 0.6231
C58 C 0.62324(14) 0.35845(18) 0.4897(4)
C59 C 0.6302(2) 0.3414(2) 0.4035(4)
H42 H 0.6452 0.3039 0.3938
C60 C 0.6158(2) 0.3782(4) 0.3270(5)
H43 H 0.6222 0.3666 0.2681
C61 C 0.5921(4) 0.4313(5) 0.3433(12)
C62 C 0.5734(4) 0.4692(5) 0.2569(8)
H44 H 0.5572 0.5055 0.2760
H45 H 0.5988 0.4818 0.2223
H46 H 0.5528 0.4434 0.2197
C63 C 0.5838(5) 0.4502(5) 0.4325(11)
H47 H 0.5679 0.4869 0.4425
C64 C 0.5996(2) 0.4133(3) 0.5050(7)
H48 H 0.5944 0.4254 0.5643
C65 C 0.69943(11) 0.10489(14) 0.4944(2)
H49 H 0.6855 0.0688 0.4622
C66 C 0.72238(12) 0.08018(16) 0.5816(2)
C67 C 0.74187(14) 0.11840(18) 0.6489(3)
H50 H 0.7403 0.1614 0.6405
C68 C 0.76317(19) 0.0962(2) 0.7264(3)
H51 H 0.7766 0.1238 0.7691
C69 C 0.7653(2) 0.0336(3) 0.7430(4)
C70 C 0.7887(3) 0.0064(4) 0.8328(5)
H52 H 0.7994 0.0399 0.8720
C72 C 0.72556(19) 0.0167(2) 0.5973(4)
O13 O 0.6250(2) 0.2560(3) 0.8827(4)
O14 O 0.65644(16) 0.1687(3) 0.8940(4)
O15 O 0.84606(17) 0.3842(3) 0.8574(3)
O16 O 0.88452(15) 0.30008(18) 0.8822(3)
O17 O 0.67658(10) 0.29153(13) 0.74807(19)
O18 O 0.82917(9) 0.35591(13) 0.67905(17)
O19 O 0.47039(11) 0.22561(16) 0.5150(2)
O20 O 0.46170(11) 0.16681(15) 0.6320(3)
O23 O 0.55601(8) 0.26493(11) 0.59111(19)
O24 O 0.61075(8) 0.06229(10) 0.50750(18)
O29 O 0.97039(11) 0.27439(16) 0.0150(2)
O30 O 0.96170(11) 0.33319(15) 0.1320(3)
O34 O 0.89670(9) 0.44565(12) 0.03915(18)
Cd5 Cd 0.902321(10) 0.658307(13) 0.51612(2)
Cd7 Cd 0.597679(10) 0.158307(13) 0.98388(2)
Cd8 Cd 0.402321(10) 0.158307(13) 0.51612(2)
O32 O 0.95205(10) 0.43004(12) 0.94704(19)
H16 H 0.9428 0.9945 0.7240
C49 C 0.57370(13) 0.96445(16) 0.5132(2)
H53 H 0.7667 0.9817 0.8633
H54 H 0.8143 0.9807 0.8186
C71 C 0.7460(3) 0.9949(3) 0.6777(5)
H55 H 0.7468 0.9521 0.6881
H56 H 0.7138 0.9889 0.5532
O21 O 0.54795(10) 0.93004(12) 0.55296(19)
O22 O 0.60330(9) 0.94565(12) 0.46085(18)
Cd4 Cd 0.597679(10) 0.841693(13) 0.48388(2)
C1_2 C 0.1529(2) 0.2781(4) 0.3617(4)
C2_2 C 0.1871(2) 0.2609(3) 0.2938(5)
H1_2 H 0.1891 0.2948 0.2505
H2_2 H 0.2172 0.2561 0.3256
C3_2 C 0.36084(17) 0.1645(3) 0.3325(3)
C4_2 C 0.35245(15) 0.1869(2) 0.2366(3)
H3_2 H 0.3347 0.2252 0.2370
H4_2 H 0.3819 0.1965 0.2122
C5_2 C 0.28320(12) 0.15335(15) 0.1559(2)
C6_2 C 0.25402(14) 0.17872(19) 0.2157(2)
H5_2 H 0.2652 0.1914 0.2735
C7_2 C 0.20759(13) 0.18529(16) 0.1892(2)
C8_2 C 0.19039(12) 0.16736(14) 0.1039(2)
C9_2 C 0.22056(11) 0.14153(14) 0.0475(2)
C10_2 C 0.26749(11) 0.13380(14) 0.0696(2)
C12_2 C 0.02228(13) 0.26135(18) 0.1447(3)
H7_2 H 0.0370 0.2924 0.1849
H8_2 H 0.0104 0.2288 0.1827
C13_2 C 0.07370(13) 0.53555(16) 0.0132(2)
C14_2 C 0.06825(12) 0.46690(15) 0.0263(3)
H9_2 H 0.0608 0.4581 0.0885
C15_2 C 0.08138(12) 0.33711(14) 0.0501(3)
H11_2 H 0.0521 0.3536 0.0565
C16_2 C 0.08952(11) 0.27469(15) 0.0660(2)
C17_2 C 0.13223(11) 0.24913(14) 0.0558(2)
C18_2 C 0.16623(12) 0.28857(14) 0.0293(2)
H12_2 H 0.1951 0.2717 0.0207
C19_2 C 0.15997(11) 0.35205(14) 0.0146(2)
C20_2 C 0.11635(12) 0.37495(14) 0.0248(2)
C21_2 C 0.14011(12) 0.17971(16) 0.0728(3)
H13_2 H 0.1213 0.1676 0.1231
C28_2 C 0.0996(2) 0.0867(3) 0.0050(7)
H20_2 H 0.0944 0.0746 0.0643
C30_2 C 0.22238(12) 0.41982(16) 0.0816(2)
C31_2 C 0.24187(14) 0.38160(18) 0.1489(3)
H22_2 H 0.2403 0.3386 0.1405
C32_2 C 0.26317(19) 0.4038(2) 0.2264(3)
H23_2 H 0.2766 0.3762 0.2691
C33_2 C 0.2653(2) 0.4664(3) 0.2430(4)
C34_2 C 0.2887(3) 0.4936(4) 0.3328(5)
H24_2 H 0.2994 0.4601 0.3720
H25_2 H 0.2667 0.5183 0.3633
H26_2 H 0.3143 0.5193 0.3186
C35_2 C 0.2460(3) 0.5051(3) 0.1777(5)
H27_2 H 0.2468 0.5479 0.1881
C36_2 C 0.22556(19) 0.4833(2) 0.0973(4)
H28_2 H 0.2138 0.5111 0.0532
O3_2 O 0.34606(17) 0.1158(3) 0.3574(3)
O4_2 O 0.38452(15) 0.19992(18) 0.3822(3)
O5_2 O 0.17658(10) 0.20847(13) 0.24807(19)
O6_2 O 0.32917(9) 0.14409(13) 0.17905(17)
O9_2 O 0.04795(10) 0.56996(12) 0.05296(19)
O11_2 O 0.05601(8) 0.23507(11) 0.09111(19)
O12_2 O 0.11075(8) 0.43771(10) 0.00750(18)
H34_2 H 0.2910 0.3719 0.0097
H38_2 H 0.4565 0.0489 0.0147
C58_2 C 0.37676(14) 0.35845(18) 0.0103(4)
C59_2 C 0.3698(2) 0.3414(2) 0.0965(4)
H42_2 H 0.3548 0.3039 0.1062
C60_2 C 0.3842(2) 0.3782(4) 0.1730(5)
H43_2 H 0.3778 0.3666 0.2319
C61_2 C 0.4079(4) 0.4313(5) 0.1567(12)
C62_2 C 0.4266(4) 0.4692(5) 0.2431(8)
H44_2 H 0.4428 0.5055 0.2240
H45_2 H 0.4012 0.4818 0.2777
H46_2 H 0.4472 0.4434 0.2803
C63_2 C 0.4162(5) 0.4502(5) 0.0675(11)
H47_2 H 0.4321 0.4869 0.0575
C65_2 C 0.30057(11) 0.10489(14) 0.0056(2)
H49_2 H 0.3145 0.0688 0.0378
H6_2 H 0.2090 0.1281 0.9903
H10_2 H 0.0435 0.4511 0.9853
C22_2 C 0.12324(14) 0.14155(18) 0.9897(4)
C23_2 C 0.1302(2) 0.1586(2) 0.9035(4)
H14_2 H 0.1452 0.1961 0.8938
C24_2 C 0.1158(2) 0.1218(4) 0.8270(5)
H15_2 H 0.1222 0.1334 0.7681
C25_2 C 0.0921(4) 0.0687(5) 0.8433(12)
C26_2 C 0.0734(4) 0.0308(5) 0.7569(8)
H17_2 H 0.0988 0.0182 0.7223
H18_2 H 0.0528 0.0566 0.7197
C27_2 C 0.0838(5) 0.0498(5) 0.9325(11)
H19_2 H 0.0679 0.0131 0.9425
C29_2 C 0.19943(11) 0.39511(14) 0.9944(2)
H21_2 H 0.1855 0.4312 0.9622
O10_2 O 0.10330(9) 0.55435(12) 0.96085(18)
C37_2 C 0.3471(2) 0.2219(4) 0.6383(4)
C38_2 C 0.3129(2) 0.2391(3) 0.7062(5)
H29_2 H 0.3109 0.2052 0.7495
H30_2 H 0.2828 0.2439 0.6744
C39_2 C 0.13916(17) 0.3355(3) 0.6675(3)
C40_2 C 0.14755(15) 0.3131(2) 0.7634(3)
H31_2 H 0.1653 0.2748 0.7630
H32_2 H 0.1181 0.3035 0.7878
C41_2 C 0.21680(12) 0.34665(15) 0.8441(2)
C42_2 C 0.24598(14) 0.32128(19) 0.7843(2)
H33_2 H 0.2348 0.3086 0.7265
C43_2 C 0.29241(13) 0.31471(16) 0.8108(2)
C44_2 C 0.30961(12) 0.33264(14) 0.8961(2)
C45_2 C 0.27944(11) 0.35847(14) 0.9525(2)
C46_2 C 0.23251(11) 0.36620(14) 0.9304(2)
C47_2 C 0.51767(13) 0.20849(19) 0.9090(3)
C48_2 C 0.47772(13) 0.23865(18) 0.8553(3)
H35_2 H 0.4630 0.2076 0.8151
H36_2 H 0.4896 0.2712 0.8173
C50_2 C 0.43175(12) 0.03310(15) 0.9737(3)
H37_2 H 0.4392 0.0419 0.9115
C51_2 C 0.41862(12) 0.16289(14) 0.9499(3)
H39_2 H 0.4479 0.1464 0.9435
C52_2 C 0.41048(11) 0.22531(15) 0.9340(2)
C53_2 C 0.36777(11) 0.25087(14) 0.9442(2)
C54_2 C 0.33377(12) 0.21143(14) 0.9707(2)
H40_2 H 0.3049 0.2283 0.9793
C55_2 C 0.34003(11) 0.14795(14) 0.9854(2)
C56_2 C 0.38365(12) 0.12505(14) 0.9752(2)
C57_2 C 0.35989(12) 0.32029(16) 0.9272(3)
H41_2 H 0.3787 0.3324 0.8769
C64_2 C 0.4004(2) 0.4133(3) 0.9950(7)
H48_2 H 0.4056 0.4254 0.9357
C66_2 C 0.27762(12) 0.08018(16) 0.9184(2)
C67_2 C 0.25813(14) 0.11840(18) 0.8511(3)
H50_2 H 0.2597 0.1614 0.8595
C68_2 C 0.23683(19) 0.0962(2) 0.7736(3)
H51_2 H 0.2234 0.1238 0.7309
C69_2 C 0.2347(2) 0.0336(3) 0.7570(4)
C70_2 C 0.2113(3) 0.0064(4) 0.6672(5)
H52_2 H 0.2006 0.0399 0.6280
C72_2 C 0.27444(19) 0.0167(2) 0.9027(4)
O13_2 O 0.3750(2) 0.2560(3) 0.6173(4)
O14_2 O 0.34356(16) 0.1687(3) 0.6060(4)
O15_2 O 0.15394(17) 0.3842(3) 0.6426(3)
O17_2 O 0.32342(10) 0.29153(13) 0.75193(19)
O18_2 O 0.17083(9) 0.35591(13) 0.82095(17)
O19_2 O 0.52961(11) 0.22561(16) 0.9850(2)
O20_2 O 0.53830(11) 0.16681(15) 0.8680(3)
O23_2 O 0.44399(8) 0.26493(11) 0.90889(19)
O24_2 O 0.38925(8) 0.06229(10) 0.99250(18)
Cd5_2 Cd 0.097679(10) 0.658307(13) 0.98388(2)
O22_2 O 0.39670(9) 0.94565(12) 0.03915(18)
Cd4_2 Cd 0.402321(10) 0.841693(13) 0.01612(2)
H16_2 H 0.0572 0.9945 0.7760
C49_2 C 0.42630(13) 0.96445(16) 0.9868(2)
H53_2 H 0.2333 0.9817 0.6367
H54_2 H 0.1857 0.9807 0.6814
C71_2 C 0.2540(3) 0.9949(3) 0.8223(5)
H55_2 H 0.2532 0.9521 0.8119
H56_2 H 0.2862 0.9889 0.9468
O21_2 O 0.45205(10) 0.93004(12) 0.94704(19)
C11_2 C 0.98233(13) 0.29151(19) 0.0910(3)
C13_3 C 0.42630(13) 0.03555(16) 0.4868(2)
H25_3 H 0.2333 0.0183 0.1367
H26_3 H 0.1857 0.0193 0.1814
C35_3 C 0.2540(3) 0.0051(3) 0.3223(5)
H27_3 H 0.2532 0.0479 0.3119
H28_3 H 0.2862 0.0111 0.4468
O9_3 O 0.45205(10) 0.06996(12) 0.44704(19)
O10_3 O 0.39670(9) 0.05435(12) 0.53915(18)
H44_3 H 0.0572 0.0055 0.2760
C1_3 C 0.3471(2) 0.7781(4) 0.1383(4)
C2_3 C 0.3129(2) 0.7609(3) 0.2062(5)
H1_3 H 0.3109 0.7948 0.2495
H2_3 H 0.2828 0.7561 0.1744
C3_3 C 0.13916(17) 0.6645(3) 0.1675(3)
C4_3 C 0.14755(15) 0.6869(2) 0.2634(3)
H3_3 H 0.1653 0.7252 0.2630
H4_3 H 0.1181 0.6965 0.2878
C5_3 C 0.21680(12) 0.65335(15) 0.3441(2)
C6_3 C 0.24598(14) 0.67872(19) 0.2843(2)
H5_3 H 0.2348 0.6914 0.2265
C7_3 C 0.29241(13) 0.68529(16) 0.3108(2)
C8_3 C 0.30961(12) 0.66736(14) 0.3961(2)
C9_3 C 0.27944(11) 0.64153(14) 0.4525(2)
H6_3 H 0.2910 0.6281 0.5097
C10_3 C 0.23251(11) 0.63380(14) 0.4304(2)
C11_3 C 0.51767(13) 0.79151(19) 0.4090(3)
C12_3 C 0.47772(13) 0.76135(18) 0.3553(3)
H7_3 H 0.4630 0.7924 0.3151
H8_3 H 0.4896 0.7288 0.3173
C14_3 C 0.43175(12) 0.96690(15) 0.4737(3)
H9_3 H 0.4392 0.9581 0.4115
H10_3 H 0.4565 0.9511 0.5147
C15_3 C 0.41862(12) 0.83711(14) 0.4499(3)
H11_3 H 0.4479 0.8536 0.4435
C16_3 C 0.41048(11) 0.77469(15) 0.4340(2)
C17_3 C 0.36777(11) 0.74913(14) 0.4442(2)
C18_3 C 0.33377(12) 0.78857(14) 0.4707(2)
H12_3 H 0.3049 0.7717 0.4793
C19_3 C 0.34003(11) 0.85205(14) 0.4854(2)
C20_3 C 0.38365(12) 0.87495(14) 0.4752(2)
C21_3 C 0.35989(12) 0.67971(16) 0.4272(3)
H13_3 H 0.3787 0.6676 0.3769
C22_3 C 0.37676(14) 0.64155(18) 0.5103(4)
C23_3 C 0.3698(2) 0.6586(2) 0.5965(4)
H14_3 H 0.3548 0.6961 0.6062
C24_3 C 0.3842(2) 0.6218(4) 0.6730(5)
H15_3 H 0.3778 0.6334 0.7319
C25_3 C 0.4079(4) 0.5687(5) 0.6567(12)
C26_3 C 0.4266(4) 0.5308(5) 0.7431(8)
H16_3 H 0.4428 0.4945 0.7240
H17_3 H 0.4012 0.5182 0.7777
H18_3 H 0.4472 0.5566 0.7803
C27_3 C 0.4162(5) 0.5498(5) 0.5675(11)
H19_3 H 0.4321 0.5131 0.5575
C28_3 C 0.4004(2) 0.5867(3) 0.4950(7)
H20_3 H 0.4056 0.5746 0.4357
C29_3 C 0.30057(11) 0.89511(14) 0.5056(2)
H21_3 H 0.3145 0.9312 0.5378
C30_3 C 0.27762(12) 0.91982(16) 0.4184(2)
C31_3 C 0.25813(14) 0.88160(18) 0.3511(3)
H22_3 H 0.2597 0.8386 0.3595
C32_3 C 0.23683(19) 0.9038(2) 0.2736(3)
H23_3 H 0.2234 0.8762 0.2309
C33_3 C 0.2347(2) 0.9664(3) 0.2570(4)
C34_3 C 0.2113(3) 0.9936(4) 0.1672(5)
H24_3 H 0.2006 0.9601 0.1280
C36_3 C 0.27444(19) 0.9833(2) 0.4027(4)
O1_2 O 0.3750(2) 0.7440(3) 0.1173(4)
O2_2 O 0.34356(16) 0.8313(3) 0.1060(4)
O3_3 O 0.15394(17) 0.6158(3) 0.1426(3)
O4_3 O 0.11548(15) 0.69992(18) 0.1178(3)
O5_3 O 0.32342(10) 0.70847(13) 0.25193(19)
O6_3 O 0.17083(9) 0.64409(13) 0.32095(17)
O7_2 O 0.52961(11) 0.77439(16) 0.4850(2)
O8_2 O 0.53830(11) 0.83319(15) 0.3680(3)
O11_3 O 0.44399(8) 0.73507(11) 0.40889(19)
O12_3 O 0.38925(8) 0.93771(10) 0.49250(18)
C37_3 C 0.1529(2) 0.7219(4) 0.8617(4)
C38_3 C 0.1871(2) 0.7391(3) 0.7938(5)
H29_3 H 0.1891 0.7052 0.7505
H30_3 H 0.2172 0.7439 0.8256
C39_3 C 0.36084(17) 0.8355(3) 0.8325(3)
C40_3 C 0.35245(15) 0.8131(2) 0.7366(3)
H31_3 H 0.3347 0.7748 0.7370
H32_3 H 0.3819 0.8035 0.7122
C41_3 C 0.28320(12) 0.84665(15) 0.6559(2)
C42_3 C 0.25402(14) 0.82128(19) 0.7157(2)
H33_3 H 0.2652 0.8086 0.7735
C43_3 C 0.20759(13) 0.81471(16) 0.6892(2)
C44_3 C 0.19039(12) 0.83264(14) 0.6039(2)
C45_3 C 0.22056(11) 0.85847(14) 0.5475(2)
H34_3 H 0.2090 0.8719 0.4903
C46_3 C 0.26749(11) 0.86620(14) 0.5696(2)
C48_3 C 0.02228(13) 0.73865(18) 0.6447(3)
H35_3 H 0.0370 0.7076 0.6849
H36_3 H 0.0104 0.7712 0.6827
C49_3 C 0.07370(13) 0.46445(16) 0.5132(2)
C50_3 C 0.06825(12) 0.53310(15) 0.5263(3)
H37_3 H 0.0608 0.5419 0.5885
H38_3 H 0.0435 0.5489 0.4853
C51_3 C 0.08138(12) 0.66289(14) 0.5501(3)
H39_3 H 0.0521 0.6464 0.5565
C52_3 C 0.08952(11) 0.72531(15) 0.5660(2)
C53_3 C 0.13223(11) 0.75087(14) 0.5558(2)
C54_3 C 0.16623(12) 0.71143(14) 0.5293(2)
H40_3 H 0.1951 0.7283 0.5207
C55_3 C 0.15997(11) 0.64795(14) 0.5146(2)
C56_3 C 0.11635(12) 0.62505(14) 0.5248(2)
C57_3 C 0.14011(12) 0.82029(16) 0.5728(3)
H41_3 H 0.1213 0.8324 0.6231
C58_3 C 0.12324(14) 0.85845(18) 0.4897(4)
C59_3 C 0.1302(2) 0.8414(2) 0.4035(4)
H42_3 H 0.1452 0.8039 0.3938
C60_3 C 0.1158(2) 0.8782(4) 0.3270(5)
H43_3 H 0.1222 0.8666 0.2681
C61_3 C 0.0921(4) 0.9313(5) 0.3433(12)
C62_3 C 0.0734(4) 0.9692(5) 0.2569(8)
H45_3 H 0.0988 0.9818 0.2223
H46_3 H 0.0528 0.9434 0.2197
C63_3 C 0.0838(5) 0.9502(5) 0.4325(11)
H47_3 H 0.0679 0.9869 0.4425
C64_3 C 0.0996(2) 0.9133(3) 0.5050(7)
H48_3 H 0.0944 0.9254 0.5643
C65_3 C 0.19943(11) 0.60489(14) 0.4944(2)
H49_3 H 0.1855 0.5688 0.4622
C66_3 C 0.22238(12) 0.58018(16) 0.5816(2)
C67_3 C 0.24187(14) 0.61840(18) 0.6489(3)
H50_3 H 0.2403 0.6614 0.6405
C68_3 C 0.26317(19) 0.5962(2) 0.7264(3)
H51_3 H 0.2766 0.6238 0.7691
C69_3 C 0.2653(2) 0.5336(3) 0.7430(4)
C70_3 C 0.2887(3) 0.5064(4) 0.8328(5)
H52_3 H 0.2994 0.5399 0.8720
H53_3 H 0.2667 0.4817 0.8633
H54_3 H 0.3143 0.4807 0.8186
C71_3 C 0.2460(3) 0.4949(3) 0.6777(5)
H55_3 H 0.2468 0.4521 0.6881
C72_3 C 0.22556(19) 0.5167(2) 0.5973(4)
H56_3 H 0.2138 0.4889 0.5532
O13_3 O 0.1250(2) 0.7560(3) 0.8827(4)
O14_3 O 0.15644(16) 0.6687(3) 0.8940(4)
O15_3 O 0.34606(17) 0.8842(3) 0.8574(3)
O16_2 O 0.38452(15) 0.80008(18) 0.8822(3)
O17_3 O 0.17658(10) 0.79153(13) 0.74807(19)
O18_3 O 0.32917(9) 0.85591(13) 0.67905(17)
O23_3 O 0.05601(8) 0.76493(11) 0.59111(19)
O24_3 O 0.11075(8) 0.56229(10) 0.50750(18)
O25_2 O 0.6250(2) 0.7440(3) 0.3827(4)
O26_2 O 0.65644(16) 0.8313(3) 0.3940(4)
O28_2 O 0.61548(15) 0.80008(18) 0.6178(3)
O29_2 O 0.47039(11) 0.77439(16) 0.0150(2)
O30_2 O 0.46170(11) 0.83319(15) 0.1320(3)
C47_3 C 0.98233(13) 0.70849(19) 0.5910(3)
O19_3 O 0.97039(11) 0.72561(16) 0.5150(2)
O20_3 O 0.96170(11) 0.66681(15) 0.6320(3)
C47_4 C 0.01767(13) 0.70849(19) 0.9090(3)
O19_4 O 0.02961(11) 0.72561(16) 0.9850(2)
O20_4 O 0.03830(11) 0.66681(15) 0.8680(3)
C13_4 C 0.57370(13) 0.03555(16) 0.0132(2)
H25_4 H 0.7667 0.0183 0.3633
H26_4 H 0.8143 0.0193 0.3186
C35_4 C 0.7460(3) 0.0051(3) 0.1777(5)
H27_4 H 0.7468 0.0479 0.1881
H28_4 H 0.7138 0.0111 0.0532
O9_4 O 0.54795(10) 0.06996(12) 0.05296(19)
H44_4 H 0.9428 0.0055 0.2240
O10_4 O 0.60330(9) 0.05435(12) 0.96085(18)
C1_4 C 0.6529(2) 0.7781(4) 0.3617(4)
C2_4 C 0.6871(2) 0.7609(3) 0.2938(5)
H1_4 H 0.6891 0.7948 0.2505
H2_4 H 0.7172 0.7561 0.3256
C3_4 C 0.86084(17) 0.6645(3) 0.3325(3)
C4_4 C 0.85245(15) 0.6869(2) 0.2366(3)
H3_4 H 0.8347 0.7252 0.2370
H4_4 H 0.8819 0.6965 0.2122
C5_4 C 0.78320(12) 0.65335(15) 0.1559(2)
C6_4 C 0.75402(14) 0.67872(19) 0.2157(2)
H5_4 H 0.7652 0.6914 0.2735
C7_4 C 0.70759(13) 0.68529(16) 0.1892(2)
C8_4 C 0.69039(12) 0.66736(14) 0.1039(2)
C9_4 C 0.72056(11) 0.64153(14) 0.0475(2)
C10_4 C 0.76749(11) 0.63380(14) 0.0696(2)
C11_4 C 0.48233(13) 0.79151(19) 0.0910(3)
C12_4 C 0.52228(13) 0.76135(18) 0.1447(3)
H7_4 H 0.5370 0.7924 0.1849
H8_4 H 0.5104 0.7288 0.1827
C14_4 C 0.56825(12) 0.96690(15) 0.0263(3)
H9_4 H 0.5608 0.9581 0.0885
C15_4 C 0.58138(12) 0.83711(14) 0.0501(3)
H11_4 H 0.5521 0.8536 0.0565
C16_4 C 0.58952(11) 0.77469(15) 0.0660(2)
C17_4 C 0.63223(11) 0.74913(14) 0.0558(2)
C18_4 C 0.66623(12) 0.78857(14) 0.0293(2)
H12_4 H 0.6951 0.7717 0.0207
C19_4 C 0.65997(11) 0.85205(14) 0.0146(2)
C20_4 C 0.61635(12) 0.87495(14) 0.0248(2)
C21_4 C 0.64011(12) 0.67971(16) 0.0728(3)
H13_4 H 0.6213 0.6676 0.1231
C28_4 C 0.5996(2) 0.5867(3) 0.0050(7)
H20_4 H 0.5944 0.5746 0.0643
C30_4 C 0.72238(12) 0.91982(16) 0.0816(2)
C31_4 C 0.74187(14) 0.88160(18) 0.1489(3)
H22_4 H 0.7403 0.8386 0.1405
C32_4 C 0.76317(19) 0.9038(2) 0.2264(3)
H23_4 H 0.7766 0.8762 0.2691
C33_4 C 0.7653(2) 0.9664(3) 0.2430(4)
C34_4 C 0.7887(3) 0.9936(4) 0.3328(5)
H24_4 H 0.7994 0.9601 0.3720
C36_4 C 0.72556(19) 0.9833(2) 0.0973(4)
O3_4 O 0.84606(17) 0.6158(3) 0.3574(3)
O4_4 O 0.88452(15) 0.69992(18) 0.3822(3)
O5_4 O 0.67658(10) 0.70847(13) 0.24807(19)
O6_4 O 0.82917(9) 0.64409(13) 0.17905(17)
O11_4 O 0.55601(8) 0.73507(11) 0.09111(19)
O12_4 O 0.61075(8) 0.93771(10) 0.00750(18)
H34_4 H 0.7910 0.8719 0.0097
H38_4 H 0.9565 0.5489 0.0147
C58_4 C 0.87676(14) 0.85845(18) 0.0103(4)
C59_4 C 0.8698(2) 0.8414(2) 0.0965(4)
H42_4 H 0.8548 0.8039 0.1062
C60_4 C 0.8842(2) 0.8782(4) 0.1730(5)
H43_4 H 0.8778 0.8666 0.2319
C61_4 C 0.9079(4) 0.9313(5) 0.1567(12)
C62_4 C 0.9266(4) 0.9692(5) 0.2431(8)
H45_4 H 0.9012 0.9818 0.2777
H46_4 H 0.9472 0.9434 0.2803
C63_4 C 0.9162(5) 0.9502(5) 0.0675(11)
H47_4 H 0.9321 0.9869 0.0575
C65_4 C 0.80057(11) 0.60489(14) 0.0056(2)
H49_4 H 0.8145 0.5688 0.0378
H6_4 H 0.7090 0.6281 0.9903
H10_4 H 0.5435 0.9511 0.9853
C22_4 C 0.62324(14) 0.64155(18) 0.9897(4)
C23_4 C 0.6302(2) 0.6586(2) 0.9035(4)
H14_4 H 0.6452 0.6961 0.8938
C24_4 C 0.6158(2) 0.6218(4) 0.8270(5)
H15_4 H 0.6222 0.6334 0.7681
C25_4 C 0.5921(4) 0.5687(5) 0.8433(12)
C26_4 C 0.5734(4) 0.5308(5) 0.7569(8)
H16_4 H 0.5572 0.4945 0.7760
H17_4 H 0.5988 0.5182 0.7223
H18_4 H 0.5528 0.5566 0.7197
C27_4 C 0.5838(5) 0.5498(5) 0.9325(11)
H19_4 H 0.5679 0.5131 0.9425
C29_4 C 0.69943(11) 0.89511(14) 0.9944(2)
H21_4 H 0.6855 0.9312 0.9622
C37_4 C 0.8471(2) 0.7219(4) 0.6383(4)
C38_4 C 0.8129(2) 0.7391(3) 0.7062(5)
H29_4 H 0.8109 0.7052 0.7495
H30_4 H 0.7828 0.7439 0.6744
C39_4 C 0.63916(17) 0.8355(3) 0.6675(3)
C40_4 C 0.64755(15) 0.8131(2) 0.7634(3)
H31_4 H 0.6653 0.7748 0.7630
H32_4 H 0.6181 0.8035 0.7878
C41_4 C 0.71680(12) 0.84665(15) 0.8441(2)
C42_4 C 0.74598(14) 0.82128(19) 0.7843(2)
H33_4 H 0.7348 0.8086 0.7265
C43_4 C 0.79241(13) 0.81471(16) 0.8108(2)
C44_4 C 0.80961(12) 0.83264(14) 0.8961(2)
C45_4 C 0.77944(11) 0.85847(14) 0.9525(2)
C46_4 C 0.73251(11) 0.86620(14) 0.9304(2)
C48_4 C 0.97772(13) 0.73865(18) 0.8553(3)
H35_4 H 0.9630 0.7076 0.8151
H36_4 H 0.9896 0.7712 0.8173
C49_4 C 0.92630(13) 0.46445(16) 0.9868(2)
C50_4 C 0.93175(12) 0.53310(15) 0.9737(3)
H37_4 H 0.9392 0.5419 0.9115
C51_4 C 0.91862(12) 0.66289(14) 0.9499(3)
H39_4 H 0.9479 0.6464 0.9435
C52_4 C 0.91048(11) 0.72531(15) 0.9340(2)
C53_4 C 0.86777(11) 0.75087(14) 0.9442(2)
C54_4 C 0.83377(12) 0.71143(14) 0.9707(2)
H40_4 H 0.8049 0.7283 0.9793
C55_4 C 0.84003(11) 0.64795(14) 0.9854(2)
C56_4 C 0.88365(12) 0.62505(14) 0.9752(2)
C57_4 C 0.85989(12) 0.82029(16) 0.9272(3)
H41_4 H 0.8787 0.8324 0.8769
C64_4 C 0.9004(2) 0.9133(3) 0.9950(7)
H48_4 H 0.9056 0.9254 0.9357
C66_4 C 0.77762(12) 0.58018(16) 0.9184(2)
C67_4 C 0.75813(14) 0.61840(18) 0.8511(3)
H50_4 H 0.7597 0.6614 0.8595
C68_4 C 0.73683(19) 0.5962(2) 0.7736(3)
H51_4 H 0.7234 0.6238 0.7309
C69_4 C 0.7347(2) 0.5336(3) 0.7570(4)
C70_4 C 0.7113(3) 0.5064(4) 0.6672(5)
H52_4 H 0.7006 0.5399 0.6280
H53_4 H 0.7333 0.4817 0.6367
H54_4 H 0.6857 0.4807 0.6814
C71_4 C 0.7540(3) 0.4949(3) 0.8223(5)
H55_4 H 0.7532 0.4521 0.8119
C72_4 C 0.77444(19) 0.5167(2) 0.9027(4)
H56_4 H 0.7862 0.4889 0.9468
O13_4 O 0.8750(2) 0.7560(3) 0.6173(4)
O14_4 O 0.84356(16) 0.6687(3) 0.6060(4)
O15_4 O 0.65394(17) 0.8842(3) 0.6426(3)
O17_4 O 0.82342(10) 0.79153(13) 0.75193(19)
O18_4 O 0.67083(9) 0.85591(13) 0.82095(17)
O23_4 O 0.94399(8) 0.76493(11) 0.90889(19)
O24_4 O 0.88925(8) 0.56229(10) 0.99250(18)
loop_
_geom_bond_atom_site_label_1
_geom_bond_atom_site_label_2
_geom_bond_site_symmetry_1
_geom_bond_site_symmetry_2
O7 C11 1_555 1_555
O8 C11 1_555 1_555
Cd2 O7 1_555 1_555
O25 Cd2 1_555 1_555
O26 Cd2 1_555 1_555
O28 Cd2 1_555 1_555
O31 Cd2 1_555 1_555
O33 Cd2 1_555 1_555
O8 Cd2 1_555 1_555
C1 C2 1_555 1_555
C2 H1 1_555 1_555
H2 C2 1_555 1_555
C3 C4 1_555 1_555
C4 H3 1_555 1_555
H4 C4 1_555 1_555
C5 C6 1_555 1_555
C6 H5 1_555 1_555
C7 C6 1_555 1_555
C8 C7 1_555 1_555
C9 C8 1_555 1_555
H6 C9 1_555 1_555
C10 C5 1_555 1_555
C12 H7 1_555 1_555
H8 C12 1_555 1_555
C13 C14 1_555 1_555
C14 H9 1_555 1_555
H10 C14 1_555 1_555
C15 H11 1_555 1_555
C16 C15 1_555 1_555
C17 C16 1_555 1_555
C18 C17 1_555 1_555
H12 C18 1_555 1_555
C19 C18 1_555 1_555
C20 C15 1_555 1_555
C21 C8 1_555 1_555
H13 C21 1_555 1_555
C22 C21 1_555 1_555
C23 C22 1_555 1_555
H14 C23 1_555 1_555
C24 C23 1_555 1_555
H15 C24 1_555 1_555
C25 C24 1_555 1_555
C26 C25 1_555 1_555
H17 C26 1_555 1_555
H18 C26 1_555 1_555
C27 C25 1_555 1_555
H19 C27 1_555 1_555
C28 C22 1_555 1_555
H20 C28 1_555 1_555
C29 C19 1_555 1_555
H21 C29 1_555 1_555
C30 C29 1_555 1_555
C31 C30 1_555 1_555
H22 C31 1_555 1_555
C32 C31 1_555 1_555
H23 C32 1_555 1_555
C33 C32 1_555 1_555
C34 C33 1_555 1_555
H24 C34 1_555 1_555
H25 C34 1_555 1_555
H26 C34 1_555 1_555
C35 C33 1_555 1_555
H27 C35 1_555 1_555
C36 C30 1_555 1_555
H28 C36 1_555 1_555
O1 C1 1_555 1_555
O2 C1 1_555 1_555
O3 C3 1_555 1_555
O4 C3 1_555 1_555
O5 C2 1_555 1_555
O6 C4 1_555 1_555
O9 C13 1_555 1_555
O10 C13 1_555 1_555
O11 C12 1_555 1_555
O12 C14 1_555 1_555
Cd3 O1 1_555 1_555
C37 C38 1_555 1_555
C38 H29 1_555 1_555
H30 C38 1_555 1_555
C39 C40 1_555 1_555
C40 H31 1_555 1_555
H32 C40 1_555 1_555
C41 C42 1_555 1_555
C42 H33 1_555 1_555
C43 C42 1_555 1_555
C44 C43 1_555 1_555
C45 C44 1_555 1_555
H34 C45 1_555 1_555
C46 C29 1_555 1_555
C47 C48 1_555 1_555
C48 H35 1_555 1_555
H36 C48 1_555 1_555
C50 H37 1_555 1_555
H38 C50 1_555 1_555
C51 H39 1_555 1_555
C52 C51 1_555 1_555
C53 C52 1_555 1_555
C54 C53 1_555 1_555
H40 C54 1_555 1_555
C55 C54 1_555 1_555
C56 C51 1_555 1_555
C57 C44 1_555 1_555
H41 C57 1_555 1_555
C58 C57 1_555 1_555
C59 C58 1_555 1_555
H42 C59 1_555 1_555
C60 C59 1_555 1_555
H43 C60 1_555 1_555
C61 C60 1_555 1_555
C62 C61 1_555 1_555
H44 C62 1_555 1_555
H45 C62 1_555 1_555
H46 C62 1_555 1_555
C63 C61 1_555 1_555
H47 C63 1_555 1_555
C64 C58 1_555 1_555
H48 C64 1_555 1_555
C65 C10 1_555 1_555
H49 C65 1_555 1_555
C66 C65 1_555 1_555
C67 C66 1_555 1_555
H50 C67 1_555 1_555
C68 C67 1_555 1_555
H51 C68 1_555 1_555
C69 C68 1_555 1_555
C70 C69 1_555 1_555
H52 C70 1_555 1_555
C72 C66 1_555 1_555
O13 C37 1_555 1_555
O14 C37 1_555 1_555
O15 C39 1_555 1_555
O16 C39 1_555 1_555
O17 C38 1_555 1_555
O18 C40 1_555 1_555
O19 C47 1_555 1_555
O20 C47 1_555 1_555
O23 C48 1_555 1_555
O24 C50 1_555 1_555
O29 Cd3 1_555 1_555
O30 Cd3 1_555 1_555
O34 Cd3 1_555 1_555
Cd5 O9 1_555 1_555
Cd7 O13 1_555 1_555
Cd8 O19 1_555 1_555
C5 O6 1_555 1_555
C7 O5 1_555 1_555
C9 C10 1_555 1_555
C16 O11 1_555 1_555
C17 C21 1_555 1_555
C19 C20 1_555 1_555
C20 O12 1_555 1_555
C27 C28 1_555 1_555
C35 C36 1_555 1_555
O2 Cd3 1_555 1_555
O10 Cd5 1_555 1_555
C41 C46 1_555 1_555
C41 O18 1_555 1_555
C43 O17 1_555 1_555
C45 C46 1_555 1_555
C52 O23 1_555 1_555
C53 C57 1_555 1_555
C55 C56 1_555 1_555
C55 C65 1_555 1_555
C56 O24 1_555 1_555
C63 C64 1_555 1_555
O14 Cd7 1_555 1_555
O20 Cd8 1_555 1_555
H55 C71 1_555 1_555
O21 C49 1_555 1_555
O22 C49 1_555 1_555
Cd4 O21 1_555 1_555
O22 Cd4 1_555 1_555
C1_2 C2_2 1_555 1_555
C2_2 H1_2 1_555 1_555
H2_2 C2_2 1_555 1_555
C3_2 C4_2 1_555 1_555
C4_2 H3_2 1_555 1_555
H4_2 C4_2 1_555 1_555
C5_2 C6_2 1_555 1_555
C6_2 H5_2 1_555 1_555
C7_2 C6_2 1_555 1_555
C8_2 C7_2 1_555 1_555
C9_2 C8_2 1_555 1_555
C10_2 C5_2 1_555 1_555
C12_2 H7_2 1_555 1_555
H8_2 C12_2 1_555 1_555
C13_2 C14_2 1_555 1_555
C14_2 H9_2 1_555 1_555
C15_2 H11_2 1_555 1_555
C16_2 C15_2 1_555 1_555
C17_2 C16_2 1_555 1_555
C18_2 C17_2 1_555 1_555
H12_2 C18_2 1_555 1_555
C19_2 C18_2 1_555 1_555
C20_2 C15_2 1_555 1_555
C21_2 C8_2 1_555 1_555
H13_2 C21_2 1_555 1_555
H20_2 C28_2 1_555 1_555
C31_2 C30_2 1_555 1_555
H22_2 C31_2 1_555 1_555
C32_2 C31_2 1_555 1_555
H23_2 C32_2 1_555 1_555
C33_2 C32_2 1_555 1_555
C34_2 C33_2 1_555 1_555
H24_2 C34_2 1_555 1_555
H25_2 C34_2 1_555 1_555
H26_2 C34_2 1_555 1_555
C35_2 C33_2 1_555 1_555
H27_2 C35_2 1_555 1_555
C36_2 C30_2 1_555 1_555
H28_2 C36_2 1_555 1_555
O25 C1_2 1_555 1_555
O26 C1_2 1_555 1_555
O3_2 C3_2 1_555 1_555
O4_2 C3_2 1_555 1_555
O5_2 C2_2 1_555 1_555
O6_2 C4_2 1_555 1_555
O9_2 C13_2 1_555 1_555
O11_2 C12_2 1_555 1_555
O12_2 C14_2 1_555 1_555
C59_2 C58_2 1_555 1_555
H42_2 C59_2 1_555 1_555
C60_2 C59_2 1_555 1_555
H43_2 C60_2 1_555 1_555
C61_2 C60_2 1_555 1_555
C62_2 C61_2 1_555 1_555
H44_2 C62_2 1_555 1_555
H45_2 C62_2 1_555 1_555
H46_2 C62_2 1_555 1_555
C63_2 C61_2 1_555 1_555
H47_2 C63_2 1_555 1_555
C65_2 C10_2 1_555 1_555
H49_2 C65_2 1_555 1_555
Cd8 O4_2 1_555 1_555
C5_2 O6_2 1_555 1_555
C7_2 O5_2 1_555 1_555
C9_2 C10_2 1_555 1_555
C16_2 O11_2 1_555 1_555
C17_2 C21_2 1_555 1_555
C19_2 C20_2 1_555 1_555
C20_2 O12_2 1_555 1_555
C35_2 C36_2 1_555 1_555
C23_2 C22_2 1_555 1_555
H14_2 C23_2 1_555 1_555
C24_2 C23_2 1_555 1_555
H15_2 C24_2 1_555 1_555
C25_2 C24_2 1_555 1_555
C26_2 C25_2 1_555 1_555
H17_2 C26_2 1_555 1_555
H18_2 C26_2 1_555 1_555
C27_2 C25_2 1_555 1_555
H19_2 C27_2 1_555 1_555
H21_2 C29_2 1_555 1_555
C37_2 C38_2 1_555 1_555
C38_2 H29_2 1_555 1_555
H30_2 C38_2 1_555 1_555
C39_2 C40_2 1_555 1_555
C40_2 H31_2 1_555 1_555
H32_2 C40_2 1_555 1_555
C41_2 C42_2 1_555 1_555
C42_2 H33_2 1_555 1_555
C43_2 C42_2 1_555 1_555
C44_2 C43_2 1_555 1_555
C45_2 C44_2 1_555 1_555
C46_2 C29_2 1_555 1_555
C47_2 C48_2 1_555 1_555
C48_2 H35_2 1_555 1_555
H36_2 C48_2 1_555 1_555
C50_2 H37_2 1_555 1_555
C51_2 H39_2 1_555 1_555
C52_2 C51_2 1_555 1_555
C53_2 C52_2 1_555 1_555
C54_2 C53_2 1_555 1_555
H40_2 C54_2 1_555 1_555
C55_2 C54_2 1_555 1_555
C56_2 C51_2 1_555 1_555
C57_2 C44_2 1_555 1_555
H41_2 C57_2 1_555 1_555
H48_2 C64_2 1_555 1_555
C67_2 C66_2 1_555 1_555
H50_2 C67_2 1_555 1_555
C68_2 C67_2 1_555 1_555
H51_2 C68_2 1_555 1_555
C69_2 C68_2 1_555 1_555
C70_2 C69_2 1_555 1_555
H52_2 C70_2 1_555 1_555
C72_2 C66_2 1_555 1_555
O13_2 C37_2 1_555 1_555
O14_2 C37_2 1_555 1_555
O15_2 C39_2 1_555 1_555
O28 C39_2 1_555 1_555
O17_2 C38_2 1_555 1_555
O18_2 C40_2 1_555 1_555
O19_2 C47_2 1_555 1_555
O20_2 C47_2 1_555 1_555
O23_2 C48_2 1_555 1_555
O24_2 C50_2 1_555 1_555
Cd8 O13_2 1_555 1_555
Cd7 O19_2 1_555 1_555
O10_2 Cd5_2 1_555 1_555
C41_2 C46_2 1_555 1_555
C41_2 O18_2 1_555 1_555
C43_2 O17_2 1_555 1_555
C45_2 C46_2 1_555 1_555
C52_2 O23_2 1_555 1_555
C53_2 C57_2 1_555 1_555
C55_2 C56_2 1_555 1_555
C56_2 O24_2 1_555 1_555
O14_2 Cd8 1_555 1_555
O20_2 Cd7 1_555 1_555
O22_2 Cd4_2 1_555 1_555
H55_2 C71_2 1_555 1_555
O21_2 C49_2 1_555 1_555
O29 C11_2 1_555 1_555
O30 C11_2 1_555 1_555
H27_3 C35_3 1_555 1_555
O9_3 C13_3 1_555 1_555
O10_3 C13_3 1_555 1_555
Cd8 O9_3 1_555 1_555
O10_3 Cd8 1_555 1_555
C1_3 C2_3 1_555 1_555
C2_3 H1_3 1_555 1_555
H2_3 C2_3 1_555 1_555
C3_3 C4_3 1_555 1_555
C4_3 H3_3 1_555 1_555
H4_3 C4_3 1_555 1_555
C5_3 C6_3 1_555 1_555
C6_3 H5_3 1_555 1_555
C7_3 C6_3 1_555 1_555
C8_3 C7_3 1_555 1_555
C9_3 C8_3 1_555 1_555
H6_3 C9_3 1_555 1_555
C10_3 C5_3 1_555 1_555
C11_3 C12_3 1_555 1_555
C12_3 H7_3 1_555 1_555
H8_3 C12_3 1_555 1_555
C14_3 H9_3 1_555 1_555
H10_3 C14_3 1_555 1_555
C15_3 H11_3 1_555 1_555
C16_3 C15_3 1_555 1_555
C17_3 C16_3 1_555 1_555
C18_3 C17_3 1_555 1_555
H12_3 C18_3 1_555 1_555
C19_3 C18_3 1_555 1_555
C20_3 C15_3 1_555 1_555
C21_3 C8_3 1_555 1_555
H13_3 C21_3 1_555 1_555
C22_3 C21_3 1_555 1_555
C23_3 C22_3 1_555 1_555
H14_3 C23_3 1_555 1_555
C24_3 C23_3 1_555 1_555
H15_3 C24_3 1_555 1_555
C25_3 C24_3 1_555 1_555
C26_3 C25_3 1_555 1_555
H16_3 C26_3 1_555 1_555
H17_3 C26_3 1_555 1_555
H18_3 C26_3 1_555 1_555
C27_3 C25_3 1_555 1_555
H19_3 C27_3 1_555 1_555
C28_3 C22_3 1_555 1_555
H20_3 C28_3 1_555 1_555
C29_3 C19_3 1_555 1_555
H21_3 C29_3 1_555 1_555
C30_3 C29_3 1_555 1_555
C31_3 C30_3 1_555 1_555
H22_3 C31_3 1_555 1_555
C32_3 C31_3 1_555 1_555
H23_3 C32_3 1_555 1_555
C33_3 C32_3 1_555 1_555
C34_3 C33_3 1_555 1_555
H24_3 C34_3 1_555 1_555
C36_3 C30_3 1_555 1_555
O1_2 C1_3 1_555 1_555
O2_2 C1_3 1_555 1_555
O3_3 C3_3 1_555 1_555
O4_3 C3_3 1_555 1_555
O5_3 C2_3 1_555 1_555
O6_3 C4_3 1_555 1_555
O7_2 C11_3 1_555 1_555
O8_2 C11_3 1_555 1_555
O11_3 C12_3 1_555 1_555
O12_3 C14_3 1_555 1_555
Cd4_2 O1_2 1_555 1_555
C37_3 C38_3 1_555 1_555
C38_3 H29_3 1_555 1_555
H30_3 C38_3 1_555 1_555
C39_3 C40_3 1_555 1_555
C40_3 H31_3 1_555 1_555
H32_3 C40_3 1_555 1_555
C41_3 C42_3 1_555 1_555
C42_3 H33_3 1_555 1_555
C43_3 C42_3 1_555 1_555
C44_3 C43_3 1_555 1_555
C45_3 C44_3 1_555 1_555
H34_3 C45_3 1_555 1_555
C46_3 C29_3 1_555 1_555
C48_3 H35_3 1_555 1_555
H36_3 C48_3 1_555 1_555
C49_3 C50_3 1_555 1_555
C50_3 H37_3 1_555 1_555
H38_3 C50_3 1_555 1_555
C51_3 H39_3 1_555 1_555
C52_3 C51_3 1_555 1_555
C53_3 C52_3 1_555 1_555
C54_3 C53_3 1_555 1_555
H40_3 C54_3 1_555 1_555
C55_3 C54_3 1_555 1_555
C56_3 C51_3 1_555 1_555
C57_3 C44_3 1_555 1_555
H41_3 C57_3 1_555 1_555
C58_3 C57_3 1_555 1_555
C59_3 C58_3 1_555 1_555
H42_3 C59_3 1_555 1_555
C60_3 C59_3 1_555 1_555
H43_3 C60_3 1_555 1_555
C61_3 C60_3 1_555 1_555
C62_3 C61_3 1_555 1_555
H45_3 C62_3 1_555 1_555
H46_3 C62_3 1_555 1_555
C63_3 C61_3 1_555 1_555
H47_3 C63_3 1_555 1_555
C64_3 C58_3 1_555 1_555
H48_3 C64_3 1_555 1_555
C65_3 C10_3 1_555 1_555
H49_3 C65_3 1_555 1_555
C66_3 C65_3 1_555 1_555
C67_3 C66_3 1_555 1_555
H50_3 C67_3 1_555 1_555
C68_3 C67_3 1_555 1_555
H51_3 C68_3 1_555 1_555
C69_3 C68_3 1_555 1_555
C70_3 C69_3 1_555 1_555
H52_3 C70_3 1_555 1_555
H53_3 C70_3 1_555 1_555
H54_3 C70_3 1_555 1_555
C71_3 C69_3 1_555 1_555
H55_3 C71_3 1_555 1_555
C72_3 C66_3 1_555 1_555
H56_3 C72_3 1_555 1_555
O13_3 C37_3 1_555 1_555
O14_3 C37_3 1_555 1_555
O15_3 C39_3 1_555 1_555
O16_2 C39_3 1_555 1_555
O17_3 C38_3 1_555 1_555
O18_3 C40_3 1_555 1_555
O31 C49_3 1_555 1_555
O33 C49_3 1_555 1_555
O23_3 C48_3 1_555 1_555
O24_3 C50_3 1_555 1_555
Cd4 O7_2 1_555 1_555
O25_2 Cd4 1_555 1_555
O26_2 Cd4 1_555 1_555
O28_2 Cd4 1_555 1_555
O29_2 Cd4_2 1_555 1_555
O30_2 Cd4_2 1_555 1_555
Cd5_2 O13_3 1_555 1_555
C5_3 O6_3 1_555 1_555
C7_3 O5_3 1_555 1_555
C9_3 C10_3 1_555 1_555
C16_3 O11_3 1_555 1_555
C17_3 C21_3 1_555 1_555
C19_3 C20_3 1_555 1_555
C20_3 O12_3 1_555 1_555
C27_3 C28_3 1_555 1_555
O2_2 Cd4_2 1_555 1_555
O8_2 Cd4 1_555 1_555
C41_3 C46_3 1_555 1_555
C41_3 O18_3 1_555 1_555
C43_3 O17_3 1_555 1_555
C45_3 C46_3 1_555 1_555
C52_3 O23_3 1_555 1_555
C53_3 C57_3 1_555 1_555
C55_3 C56_3 1_555 1_555
C55_3 C65_3 1_555 1_555
C56_3 O24_3 1_555 1_555
C63_3 C64_3 1_555 1_555
C71_3 C72_3 1_555 1_555
O14_3 Cd5_2 1_555 1_555
O19_3 C47_3 1_555 1_555
O20_3 C47_3 1_555 1_555
Cd5 O19_3 1_555 1_555
O20_3 Cd5 1_555 1_555
O19_4 C47_4 1_555 1_555
O20_4 C47_4 1_555 1_555
Cd5_2 O19_4 1_555 1_555
O20_4 Cd5_2 1_555 1_555
H27_4 C35_4 1_555 1_555
O9_4 C13_4 1_555 1_555
O10_4 Cd7 1_555 1_555
C1_4 C2_4 1_555 1_555
C2_4 H1_4 1_555 1_555
H2_4 C2_4 1_555 1_555
C3_4 C4_4 1_555 1_555
C4_4 H3_4 1_555 1_555
H4_4 C4_4 1_555 1_555
C5_4 C6_4 1_555 1_555
C6_4 H5_4 1_555 1_555
C7_4 C6_4 1_555 1_555
C8_4 C7_4 1_555 1_555
C9_4 C8_4 1_555 1_555
C10_4 C5_4 1_555 1_555
C11_4 C12_4 1_555 1_555
C12_4 H7_4 1_555 1_555
H8_4 C12_4 1_555 1_555
C14_4 H9_4 1_555 1_555
C15_4 H11_4 1_555 1_555
C16_4 C15_4 1_555 1_555
C17_4 C16_4 1_555 1_555
C18_4 C17_4 1_555 1_555
H12_4 C18_4 1_555 1_555
C19_4 C18_4 1_555 1_555
C20_4 C15_4 1_555 1_555
C21_4 C8_4 1_555 1_555
H13_4 C21_4 1_555 1_555
H20_4 C28_4 1_555 1_555
C31_4 C30_4 1_555 1_555
H22_4 C31_4 1_555 1_555
C32_4 C31_4 1_555 1_555
H23_4 C32_4 1_555 1_555
C33_4 C32_4 1_555 1_555
C34_4 C33_4 1_555 1_555
H24_4 C34_4 1_555 1_555
C36_4 C30_4 1_555 1_555
O25_2 C1_4 1_555 1_555
O26_2 C1_4 1_555 1_555
O3_4 C3_4 1_555 1_555
O4_4 C3_4 1_555 1_555
O5_4 C2_4 1_555 1_555
O6_4 C4_4 1_555 1_555
O29_2 C11_4 1_555 1_555
O30_2 C11_4 1_555 1_555
O11_4 C12_4 1_555 1_555
O12_4 C14_4 1_555 1_555
C59_4 C58_4 1_555 1_555
H42_4 C59_4 1_555 1_555
C60_4 C59_4 1_555 1_555
H43_4 C60_4 1_555 1_555
C61_4 C60_4 1_555 1_555
C62_4 C61_4 1_555 1_555
H45_4 C62_4 1_555 1_555
H46_4 C62_4 1_555 1_555
C63_4 C61_4 1_555 1_555
H47_4 C63_4 1_555 1_555
C65_4 C10_4 1_555 1_555
H49_4 C65_4 1_555 1_555
Cd5 O4_4 1_555 1_555
C5_4 O6_4 1_555 1_555
C7_4 O5_4 1_555 1_555
C9_4 C10_4 1_555 1_555
C16_4 O11_4 1_555 1_555
C17_4 C21_4 1_555 1_555
C19_4 C20_4 1_555 1_555
C20_4 O12_4 1_555 1_555
C23_4 C22_4 1_555 1_555
H14_4 C23_4 1_555 1_555
C24_4 C23_4 1_555 1_555
H15_4 C24_4 1_555 1_555
C25_4 C24_4 1_555 1_555
C26_4 C25_4 1_555 1_555
H16_4 C26_4 1_555 1_555
H17_4 C26_4 1_555 1_555
H18_4 C26_4 1_555 1_555
C27_4 C25_4 1_555 1_555
H19_4 C27_4 1_555 1_555
H21_4 C29_4 1_555 1_555
C37_4 C38_4 1_555 1_555
C38_4 H29_4 1_555 1_555
H30_4 C38_4 1_555 1_555
C39_4 C40_4 1_555 1_555
C40_4 H31_4 1_555 1_555
H32_4 C40_4 1_555 1_555
C41_4 C42_4 1_555 1_555
C42_4 H33_4 1_555 1_555
C43_4 C42_4 1_555 1_555
C44_4 C43_4 1_555 1_555
C45_4 C44_4 1_555 1_555
C46_4 C29_4 1_555 1_555
C48_4 H35_4 1_555 1_555
H36_4 C48_4 1_555 1_555
C49_4 C50_4 1_555 1_555
C50_4 H37_4 1_555 1_555
C51_4 H39_4 1_555 1_555
C52_4 C51_4 1_555 1_555
C53_4 C52_4 1_555 1_555
C54_4 C53_4 1_555 1_555
H40_4 C54_4 1_555 1_555
C55_4 C54_4 1_555 1_555
C56_4 C51_4 1_555 1_555
C57_4 C44_4 1_555 1_555
H41_4 C57_4 1_555 1_555
H48_4 C64_4 1_555 1_555
C67_4 C66_4 1_555 1_555
H50_4 C67_4 1_555 1_555
C68_4 C67_4 1_555 1_555
H51_4 C68_4 1_555 1_555
C69_4 C68_4 1_555 1_555
C70_4 C69_4 1_555 1_555
H52_4 C70_4 1_555 1_555
H53_4 C70_4 1_555 1_555
H54_4 C70_4 1_555 1_555
C71_4 C69_4 1_555 1_555
H55_4 C71_4 1_555 1_555
C72_4 C66_4 1_555 1_555
H56_4 C72_4 1_555 1_555
O13_4 C37_4 1_555 1_555
O14_4 C37_4 1_555 1_555
O15_4 C39_4 1_555 1_555
O28_2 C39_4 1_555 1_555
O17_4 C38_4 1_555 1_555
O18_4 C40_4 1_555 1_555
O32 C49_4 1_555 1_555
O23_4 C48_4 1_555 1_555
O24_4 C50_4 1_555 1_555
Cd5 O13_4 1_555 1_555
C41_4 C46_4 1_555 1_555
C41_4 O18_4 1_555 1_555
C43_4 O17_4 1_555 1_555
C45_4 C46_4 1_555 1_555
C52_4 O23_4 1_555 1_555
C53_4 C57_4 1_555 1_555
C55_4 C56_4 1_555 1_555
C56_4 O24_4 1_555 1_555
C71_4 C72_4 1_555 1_555
O14_4 Cd5 1_555 1_555

#END
