
###############################################################################
#
# This file contains modified crystal structure data generated from the
# MOF subset of the Cambridge Structural Database (CSD) v543 
# hosted by the Cambridge Crystallographic Data Centre (CCDC).
#
# This work is licensed under the Creative Commons
# Attribution-NonCommercial-ShareAlike 4.0 International License.
# To view a copy of this license, visit
# http://creativecommons.org/licenses/by-nc-sa/4.0/
# or send a letter to
# Creative Commons, PO Box 1866, Mountain View, CA 94042, USA.
#
# CIF created using the CSD Python API on 29 September 2022
# The structure has been converted into the P1 space group
# The structure has a 3D framework
# The original CSD entry ULAQAB is in the monoclinic crystal system
# The framework has been calculated to contain at least 10.0% void space
# The void calculation uses a probe of radius 1.32A, grid spacing 0.4
# The framework is charged, counterions have been retained in the structure
# H atom positions have been added when not included in the experimental data
#
###############################################################################

data_ULAQAB
_chemical_formula_moiety         '(C160 H176 N8 O48 Zn4 1-)n'
_symmetry_cell_setting           triclinic
_symmetry_space_group_name_H-M   'P 1'
_symmetry_Int_Tables_number      1
_space_group_name_Hall           'P 1'
loop_
_symmetry_equiv_pos_site_id
_symmetry_equiv_pos_as_xyz
1 x,y,z
_cell_length_a                   11.8040(5)
_cell_length_b                   24.8100(9)
_cell_length_c                   15.6720(7)
_cell_angle_alpha                90
_cell_angle_beta                 96.269(4)
_cell_angle_gamma                90
_cell_volume                     4562.21
loop_
_atom_site_label
_atom_site_type_symbol
_atom_site_fract_x
_atom_site_fract_y
_atom_site_fract_z
O26 O 0.0839(2) 0.39496(9) 0.07124(15)
Zn1 Zn 0.08714(3) 0.333136(13) 0.99298(2)
C2 C 0.0235(3) 0.37345(14) 0.7394(2)
H1 H 0.0729 0.4042 0.7335
H2 H 0.0686 0.3412 0.7336
C20 C 0.1816(3) 0.81815(13) 0.5221(2)
C22 C 0.0774(3) 0.78472(12) 0.5313(3)
H17 H 0.0513 0.7914 0.5869
H18 H 0.0168 0.7949 0.4874
C23 C 0.0153(2) 0.69415(11) 0.5299(2)
C28 C 0.0419(2) 0.63978(11) 0.51888(19)
C29 C 0.1601(2) 0.62490(11) 0.49580(19)
C30 C 0.2474(2) 0.62009(11) 0.5733(2)
C31 C 0.2280(3) 0.59217(15) 0.6465(2)
H21 H 0.1552 0.5796 0.6527
C32 C 0.3150(4) 0.58280(18) 0.7100(3)
H22 H 0.3001 0.5633 0.7582
C33 C 0.4229(4) 0.60130(17) 0.7046(3)
C34 C 0.4417(3) 0.63088(18) 0.6344(3)
H23 H 0.5138 0.6451 0.6301
C35 C 0.3551(3) 0.64014(15) 0.5693(3)
H24 H 0.3701 0.6604 0.5218
C36 C 0.5194(5) 0.5882(2) 0.7740(4)
H25 H 0.5886 0.6046 0.7598
H26 H 0.5293 0.5499 0.7778
H27 H 0.5012 0.6019 0.8281
O1 O 0.0735(2) 0.37196(11) 0.88474(16)
O9 O 0.1685(2) 0.86733(10) 0.5279(3)
O10 O 0.26990(19) 0.79485(9) 0.50847(17)
O12 O 0.10216(18) 0.72972(8) 0.52334(17)
C37 C 0.0122(3) 0.62571(13) 0.1721(2)
C39 C 0.1203(3) 0.39081(13) 0.1511(2)
C40 C 0.1010(4) 0.44134(14) 0.2003(2)
H30 H 0.0198 0.4471 0.2007
H31 H 0.1319 0.4719 0.1719
C41 C 0.1495(3) 0.48371(12) 0.3340(2)
C42 C 0.1034(3) 0.53173(12) 0.3032(2)
H32 H 0.0700 0.5342 0.2468
C43 C 0.1068(3) 0.57630(11) 0.3565(2)
C44 C 0.1565(2) 0.57389(11) 0.44034(19)
C45 C 0.2014(2) 0.52432(11) 0.46942(19)
H33 H 0.2347 0.5217 0.5258
C46 C 0.1984(2) 0.47877(11) 0.41778(19)
C47 C 0.2457(2) 0.42495(11) 0.44966(19)
H34 H 0.2929 0.4119 0.4063
C48 C 0.3225(3) 0.42683(11) 0.5337(2)
C49 C 0.4364(3) 0.43951(16) 0.5339(3)
H35 H 0.4642 0.4486 0.4825
C50 C 0.5100(3) 0.43906(19) 0.6086(3)
H36 H 0.5862 0.4478 0.6065
C51 C 0.4728(4) 0.42599(18) 0.6860(3)
C52 C 0.3594(4) 0.4144(2) 0.6854(3)
H37 H 0.3313 0.4062 0.7370
C53 C 0.2859(3) 0.41453(17) 0.6113(2)
H38 H 0.2095 0.4061 0.6138
C54 C 0.5534(5) 0.4246(3) 0.7678(4)
H39 H 0.6287 0.4341 0.7554
H40 H 0.5282 0.4497 0.8082
H41 H 0.5545 0.3889 0.7917
C55 C 0.4267(3) 0.24678(12) 0.4658(2)
C57 C 0.3453(3) 0.28669(14) 0.4974(2)
H42 H 0.3876 0.3131 0.5337
H43 H 0.2938 0.2682 0.5317
C60 C 0.0920(2) 0.29054(12) 0.4528(2)
H46 H 0.1091 0.2543 0.4460
C61 C 0.1744(2) 0.32962(11) 0.4457(2)
C62 C 0.1514(2) 0.38353(11) 0.45396(18)
C63 C 0.0427(2) 0.39742(11) 0.47239(19)
H47 H 0.0262 0.4337 0.4792
O14 O 0.1115(2) 0.62151(12) 0.16007(18)
O16 O 0.1648(3) 0.35121(10) 0.18401(18)
O17 O 0.0637(2) 0.62539(9) 0.32893(15)
O18 O 0.1522(2) 0.43833(9) 0.28412(14)
O19 O 0.4379(2) 0.24163(10) 0.38972(17)
O20 O 0.4817(2) 0.22009(10) 0.52636(16)
O23 O 0.28159(17) 0.31321(8) 0.42784(15)
Zn5 Zn 0.41286(3) 0.833136(13) 0.50702(2)
Zn8 Zn 0.58714(3) 0.166864(13) 0.49298(2)
O29 O 0.23010(19) 0.29485(9) 0.99153(17)
H67 H 0.187762 0.657707 0.456818
O28 O 0.0183(2) 0.72009(10) 0.97364(16)
Zn6 Zn 0.91286(3) 0.666864(13) 0.00702(2)
O27 O 0.9817(2) 0.27991(10) 0.02636(16)
C1 C 0.9878(3) 0.37429(13) 0.8279(2)
C3 C 0.8797(3) 0.60919(13) 0.8489(2)
C4 C 0.8990(4) 0.55866(14) 0.7997(2)
H3 H 0.9802 0.5529 0.7993
H4 H 0.8681 0.5281 0.8281
C5 C 0.8505(3) 0.51629(12) 0.6660(2)
C6 C 0.8966(3) 0.46827(12) 0.6968(2)
H5 H 0.9300 0.4658 0.7532
C7 C 0.8932(3) 0.42370(11) 0.6435(2)
C8 C 0.8435(2) 0.42611(11) 0.55966(19)
C9 C 0.7986(2) 0.47568(11) 0.53058(19)
H6 H 0.7653 0.4783 0.4742
C10 C 0.8016(2) 0.52123(11) 0.58222(19)
C11 C 0.7543(2) 0.57505(11) 0.55034(19)
H7 H 0.7071 0.5881 0.5937
C12 C 0.6775(3) 0.57317(11) 0.4663(2)
C13 C 0.5636(3) 0.56049(16) 0.4661(3)
H8 H 0.5358 0.5514 0.5175
C14 C 0.4900(3) 0.56094(19) 0.3914(3)
H9 H 0.4138 0.5522 0.3935
C15 C 0.5272(4) 0.57401(18) 0.3140(3)
C16 C 0.6406(4) 0.5856(2) 0.3146(3)
H10 H 0.6687 0.5938 0.2630
C17 C 0.7141(3) 0.58547(17) 0.3887(2)
H11 H 0.7905 0.5939 0.3862
C18 C 0.4466(5) 0.5754(3) 0.2322(4)
H12 H 0.3713 0.5659 0.2446
H13 H 0.4718 0.5503 0.1918
H14 H 0.4455 0.6111 0.2083
C19 C 0.5733(3) 0.75322(12) 0.5342(2)
C21 C 0.6547(3) 0.71331(14) 0.5026(2)
H15 H 0.6124 0.6869 0.4663
H16 H 0.7062 0.7318 0.4683
C24 C 0.9080(2) 0.70946(12) 0.5472(2)
H19 H 0.8909 0.7457 0.5540
C25 C 0.8256(2) 0.67038(11) 0.5543(2)
C26 C 0.8486(2) 0.61647(11) 0.54604(18)
C27 C 0.9573(2) 0.60258(11) 0.52761(19)
H20 H 0.9738 0.5663 0.5208
O2 O 0.8885(2) 0.37849(12) 0.83993(18)
O3 O 0.9161(2) 0.60504(9) 0.92876(15)
O4 O 0.8352(3) 0.64879(10) 0.81599(18)
O5 O 0.9363(2) 0.37461(9) 0.67107(15)
O6 O 0.8478(2) 0.56167(9) 0.71588(14)
O7 O 0.5621(2) 0.75837(10) 0.61028(17)
O8 O 0.5183(2) 0.77991(10) 0.47364(16)
O11 O 0.71841(17) 0.68679(8) 0.57216(15)
C38 C 0.9765(3) 0.62655(14) 0.2606(2)
H28 H 0.9271 0.5958 0.2665
H29 H 0.9314 0.6588 0.2664
C56 C 0.8184(3) 0.18185(13) 0.4779(2)
C58 C 0.9226(3) 0.21528(12) 0.4687(3)
H44 H 0.9487 0.2086 0.4131
H45 H 0.9832 0.2051 0.5126
C59 C 0.9847(2) 0.30585(11) 0.4701(2)
C64 C 0.9581(2) 0.36022(11) 0.48112(19)
C65 C 0.8399(2) 0.37510(11) 0.50420(19)
C66 C 0.7526(2) 0.37991(11) 0.4267(2)
C67 C 0.7720(3) 0.40783(15) 0.3535(2)
H48 H 0.8448 0.4204 0.3473
C68 C 0.6850(4) 0.41720(18) 0.2900(3)
H49 H 0.6999 0.4367 0.2418
C69 C 0.5771(4) 0.39870(17) 0.2954(3)
C70 C 0.5583(3) 0.36912(18) 0.3656(3)
H50 H 0.4862 0.3549 0.3699
C71 C 0.6449(3) 0.35986(15) 0.4307(3)
H51 H 0.6299 0.3396 0.4782
C72 C 0.4806(5) 0.4118(2) 0.2260(4)
H52 H 0.4114 0.3954 0.2402
H53 H 0.4707 0.4501 0.2222
H54 H 0.4988 0.3981 0.1719
O13 O 0.9265(2) 0.62804(11) 0.11526(16)
O21 O 0.8315(2) 0.13267(10) 0.4721(3)
O22 O 0.73010(19) 0.20515(9) 0.49153(17)
O24 O 0.89784(18) 0.27028(8) 0.47666(17)
O30 O 0.76990(19) 0.70515(9) 0.00847(17)
H68 H 0.812238 0.342293 0.543182
C12_2 C 0.8225(3) 0.07317(11) 0.0337(2)
C13_2 C 0.9364(3) 0.06049(16) 0.0339(3)
C15_2 C 0.9728(4) 0.07401(18) 0.1860(3)
C16_2 C 0.8594(4) 0.0856(2) 0.1854(3)
H10_2 H 0.8313 0.0938 0.2370
C17_2 C 0.7859(3) 0.08547(17) 0.1113(2)
H11_2 H 0.7095 0.0939 0.1138
H15_2 H 0.8876 0.1869 0.0337
H16_2 H 0.7938 0.2318 0.0317
H18_2 H 0.4832 0.2949 0.0126
C29_2 C 0.3399(2) 0.12490(11) 0.00420(19)
C37_2 C 0.4878(3) 0.12571(13) 0.3279(2)
C38_2 C 0.5235(3) 0.12655(14) 0.2394(2)
H28_2 H 0.5729 0.0958 0.2335
H29_2 H 0.5686 0.1588 0.2336
C42_2 C 0.3966(3) 0.03173(12) 0.1968(2)
H32_2 H 0.4300 0.0342 0.2532
C43_2 C 0.3932(3) 0.07630(11) 0.1435(2)
C44_2 C 0.3435(2) 0.07389(11) 0.05966(19)
C45_2 C 0.2986(2) 0.02432(11) 0.03058(19)
O13_2 O 0.5735(2) 0.12804(11) 0.38474(16)
O14_2 O 0.3885(2) 0.12151(12) 0.33993(18)
O17_2 O 0.4363(2) 0.12539(9) 0.17107(15)
O25 O 0.5839(2) 0.10504(9) 0.57124(15)
H67_2 H 0.312238 0.157707 0.0431823
C3_2 C 0.6203(3) 0.10919(13) 0.6511(2)
C4_2 C 0.6010(4) 0.05866(14) 0.7003(2)
H3_2 H 0.5198 0.0529 0.7007
H4_2 H 0.6319 0.0281 0.6719
C5_2 C 0.6495(3) 0.01629(12) 0.8340(2)
C10_2 C 0.6984(2) 0.02123(11) 0.91778(19)
C11_2 C 0.7457(2) 0.07505(11) 0.94966(19)
H7_2 H 0.7929 0.0881 0.9063
H8_2 H 0.9642 0.0514 0.9825
C19_2 C 0.9267(3) 0.25322(12) 0.9658(2)
C20_2 C 0.3184(3) 0.31815(13) 0.9779(2)
C21_2 C 0.8453(3) 0.21331(14) 0.9974(2)
C22_2 C 0.4226(3) 0.28472(12) 0.9687(3)
H17_2 H 0.4487 0.2914 0.9131
C23_2 C 0.4847(2) 0.19415(11) 0.9701(2)
C24_2 C 0.5920(2) 0.20946(12) 0.9528(2)
H19_2 H 0.6091 0.2457 0.9460
C25_2 C 0.6744(2) 0.17038(11) 0.9457(2)
C26_2 C 0.6514(2) 0.11647(11) 0.95396(18)
C27_2 C 0.5427(2) 0.10258(11) 0.97239(19)
H20_2 H 0.5262 0.0663 0.9792
C28_2 C 0.4581(2) 0.13978(11) 0.98112(19)
C30_2 C 0.2526(2) 0.12009(11) 0.9267(2)
C31_2 C 0.2720(3) 0.09217(15) 0.8535(2)
H21_2 H 0.3448 0.0796 0.8473
C32_2 C 0.1850(4) 0.08280(18) 0.7900(3)
H22_2 H 0.1999 0.0633 0.7418
C33_2 C 0.0771(4) 0.10130(17) 0.7954(3)
C34_2 C 0.0583(3) 0.13088(18) 0.8656(3)
C35_2 C 0.1449(3) 0.14014(15) 0.9307(3)
H24_2 H 0.1299 0.1604 0.9782
O4_2 O 0.6648(3) 0.14879(10) 0.68401(18)
O6_2 O 0.6522(2) 0.06167(9) 0.78412(14)
O7_2 O 0.9379(2) 0.25837(10) 0.88972(17)
O9_2 O 0.3315(2) 0.36733(10) 0.9721(3)
O11_2 O 0.78159(17) 0.18679(8) 0.92784(15)
O12_2 O 0.39784(18) 0.22972(8) 0.97666(17)
H33_2 H 0.2653 0.0217 0.9742
H6_2 H 0.7347 0.9783 0.0258
C39_2 C 0.3797(3) 0.89081(13) 0.3489(2)
C40_2 C 0.3990(4) 0.94134(14) 0.2997(2)
H30_2 H 0.4802 0.9471 0.2993
H31_2 H 0.3681 0.9719 0.3281
C41_2 C 0.3505(3) 0.98371(12) 0.1660(2)
C46_2 C 0.3016(2) 0.97877(11) 0.08222(19)
C47_2 C 0.2543(2) 0.92495(11) 0.05034(19)
H34_2 H 0.2071 0.9119 0.0937
H35_2 H 0.0358 0.9486 0.0175
C55_2 C 0.0733(3) 0.74678(12) 0.0342(2)
C56_2 C 0.6816(3) 0.68185(13) 0.0221(2)
C57_2 C 0.1547(3) 0.78669(14) 0.0026(2)
C58_2 C 0.5774(3) 0.71528(12) 0.0313(3)
H44_2 H 0.5513 0.7086 0.0869
C59_2 C 0.5153(2) 0.80585(11) 0.0299(2)
C60_2 C 0.4080(2) 0.79054(12) 0.0472(2)
H46_2 H 0.3909 0.7543 0.0540
C61_2 C 0.3256(2) 0.82962(11) 0.0543(2)
C62_2 C 0.3486(2) 0.88353(11) 0.04604(18)
C63_2 C 0.4573(2) 0.89742(11) 0.02761(19)
H47_2 H 0.4738 0.9337 0.0208
C64_2 C 0.5419(2) 0.86022(11) 0.01888(19)
C66_2 C 0.7474(2) 0.87991(11) 0.0733(2)
C67_2 C 0.7280(3) 0.90783(15) 0.1465(2)
H48_2 H 0.6552 0.9204 0.1527
C68_2 C 0.8150(4) 0.91720(18) 0.2100(3)
H49_2 H 0.8001 0.9367 0.2582
C69_2 C 0.9229(4) 0.89870(17) 0.2046(3)
C70_2 C 0.9417(3) 0.86912(18) 0.1344(3)
C71_2 C 0.8551(3) 0.85986(15) 0.0693(3)
H51_2 H 0.8701 0.8396 0.0218
O15 O 0.4161(2) 0.89496(9) 0.42876(15)
O16_2 O 0.3352(3) 0.85121(10) 0.31599(18)
O18_2 O 0.3478(2) 0.93833(9) 0.21588(14)
O19_2 O 0.0621(2) 0.74163(10) 0.11028(17)
O21_2 O 0.6685(2) 0.63267(10) 0.0279(3)
O23_2 O 0.21841(17) 0.81321(8) 0.07216(15)
O24_2 O 0.60216(18) 0.77028(8) 0.02334(17)
C1_2 C 0.5122(3) 0.87429(13) 0.6721(2)
C2_2 C 0.4765(3) 0.87345(14) 0.7606(2)
H1_2 H 0.4271 0.9042 0.7665
H2_2 H 0.4314 0.8412 0.7664
C6_2 C 0.6034(3) 0.96827(12) 0.8032(2)
H5_2 H 0.5700 0.9658 0.7468
C7_2 C 0.6068(3) 0.92370(11) 0.8565(2)
C8_2 C 0.6565(2) 0.92611(11) 0.94034(19)
C9_2 C 0.7014(2) 0.97568(11) 0.96942(19)
O1_2 O 0.4265(2) 0.87196(11) 0.61526(16)
O2_2 O 0.6115(2) 0.87849(12) 0.66007(18)
O5_2 O 0.5637(2) 0.87461(9) 0.82893(15)
C48_2 C 0.1775(3) 0.92683(11) 0.9663(2)
C49_2 C 0.0636(3) 0.93951(16) 0.9661(3)
C51_2 C 0.0272(4) 0.92599(18) 0.8140(3)
C52_2 C 0.1406(4) 0.9144(2) 0.8146(3)
H37_2 H 0.1687 0.9062 0.7630
C53_2 C 0.2141(3) 0.91453(17) 0.8887(2)
H38_2 H 0.2905 0.9061 0.8862
H42_2 H 0.1124 0.8131 0.9663
H43_2 H 0.2062 0.7682 0.9683
H45_2 H 0.5168 0.7051 0.9874
C65_2 C 0.6601(2) 0.87510(11) 0.99580(19)
H68_2 H 0.687762 0.842293 0.956818
C14_2 C 0.0100(3) 0.06094(19) 0.1086(3)
H9_2 H 0.0862 0.0522 0.1065
C18_2 C 0.0534(5) 0.0754(3) 0.2678(4)
H12_2 H 0.1287 0.0659 0.2554
H13_2 H 0.0282 0.0503 0.3082
H14_2 H 0.0545 0.1111 0.2917
H50_2 H 0.0138 0.8549 0.1301
C72_2 C 0.0194(5) 0.9118(2) 0.2740(4)
H52_2 H 0.0886 0.8954 0.2598
H53_2 H 0.0293 0.9501 0.2778
H54_2 H 0.0012 0.8981 0.3281
H23_2 H 0.9862 0.1451 0.8699
C36_2 C 0.9806(5) 0.0882(2) 0.7260(4)
H25_2 H 0.9114 0.1046 0.7402
H26_2 H 0.9707 0.0499 0.7222
H27_2 H 0.9988 0.1019 0.6719
C50_2 C 0.9900(3) 0.93906(19) 0.8914(3)
H36_2 H 0.9138 0.9478 0.8935
C54_2 C 0.9466(5) 0.9246(3) 0.7322(4)
H39_2 H 0.8713 0.9341 0.7446
H40_2 H 0.9718 0.9497 0.6918
H41_2 H 0.9455 0.8889 0.7083
C73 C 0.8020(5) 0.7777(3) 0.7661(5)
H55 H 0.8559 0.7752 0.7246
H56 H 0.8407 0.7728 0.8227
H57 H 0.7663 0.8125 0.7623
C74 C 0.6325(5) 0.7382(2) 0.8103(3)
H58 H 0.5771 0.7102 0.7975
H59 H 0.5953 0.7726 0.8068
H60 H 0.6701 0.7330 0.8672
N1 N 0.7158(3) 0.73614(14) 0.7491(2)
H71 H 0.754276 0.699501 0.752876
H72 H 0.675458 0.741514 0.689126
C73_2 C 0.6980(5) 0.2777(3) 0.7339(5)
H55_2 H 0.6441 0.2752 0.7754
H56_2 H 0.6593 0.2728 0.6773
H57_2 H 0.7337 0.3125 0.7377
C74_2 C 0.8675(5) 0.2382(2) 0.6897(3)
H58_2 H 0.9229 0.2102 0.7025
H59_2 H 0.9047 0.2726 0.6932
H60_2 H 0.8299 0.2330 0.6328
N1_2 N 0.7842(3) 0.23614(14) 0.7509(2)
H71_2 H 0.745724 0.199501 0.747124
H72_2 H 0.824542 0.241514 0.810874
C73_3 C 0.1980(5) 0.2223(3) 0.2339(5)
H55_3 H 0.1441 0.2248 0.2754
H56_3 H 0.1593 0.2272 0.1773
H57_3 H 0.2337 0.1875 0.2377
C74_3 C 0.3675(5) 0.2618(2) 0.1897(3)
H58_3 H 0.4229 0.2898 0.2025
H59_3 H 0.4047 0.2274 0.1932
H60_3 H 0.3299 0.2670 0.1328
N1_3 N 0.2842(3) 0.26386(14) 0.2509(2)
H71_3 H 0.245724 0.300499 0.247124
H72_3 H 0.324542 0.258486 0.310874
C73_4 C 0.3020(5) 0.7223(3) 0.2661(5)
H55_4 H 0.3559 0.7248 0.2246
H56_4 H 0.3407 0.7272 0.3227
H57_4 H 0.2663 0.6875 0.2623
C74_4 C 0.1325(5) 0.7618(2) 0.3103(3)
H58_4 H 0.0771 0.7898 0.2975
H59_4 H 0.0953 0.7274 0.3068
H60_4 H 0.1701 0.7670 0.3672
N1_4 N 0.2158(3) 0.76386(14) 0.2491(2)
H71_4 H 0.254276 0.800499 0.252876
H72_4 H 0.175458 0.758486 0.189126
C75 C 0.7442(8) 0.5123(3) 0.1073(4)
H61 H 0.8050 0.5249 0.1481
H62 H 0.7452 0.4736 0.1056
H63 H 0.6726 0.5243 0.1240
N2 N 0.7588(3) 0.53305(14) 0.0244(3)
H69 H 0.835552 0.520365 0.00859395
H70 H 0.758269 0.573902 0.0278209
C76 C 0.6718(5) 0.5166(3) 0.9562(5)
H64 H 0.6878 0.5323 0.9029
H65 H 0.5984 0.5285 0.9697
H66 H 0.6718 0.4780 0.9512
C75_2 C 0.7558(8) 0.0123(3) 0.3927(4)
H61_2 H 0.6950 0.0249 0.3519
H63_2 H 0.8274 0.0243 0.3760
C76_2 C 0.8282(5) 0.0166(3) 0.5438(5)
H64_2 H 0.8122 0.0323 0.5971
H65_2 H 0.9016 0.0285 0.5303
N2_2 N 0.7412(3) 0.03305(14) 0.4756(3)
H69_2 H 0.664448 0.0203649 0.491406
H70_2 H 0.741731 0.0739016 0.472179
H62_2 H 0.7548 0.9736 0.3944
H66_2 H 0.8282 0.9780 0.5488
C76_3 C 0.3282(5) 0.4834(3) 0.0438(5)
H64_3 H 0.3122 0.4677 0.0971
H65_3 H 0.4016 0.4715 0.0303
H66_3 H 0.3282 0.5220 0.0488
C75_3 C 0.2558(8) 0.4877(3) 0.8927(4)
H61_3 H 0.1950 0.4751 0.8519
H62_3 H 0.2548 0.5264 0.8944
H63_3 H 0.3274 0.4757 0.8760
N2_3 N 0.2412(3) 0.46695(14) 0.9756(3)
H69_3 H 0.164448 0.479635 0.991406
H70_3 H 0.241731 0.426098 0.972179
H62_4 H 0.2452 0.0264 0.6056
H66_4 H 0.1718 0.0220 0.4512
C75_4 C 0.2442(8) 0.9877(3) 0.6073(4)
H61_4 H 0.3050 0.9751 0.6481
H63_4 H 0.1726 0.9757 0.6240
C76_4 C 0.1718(5) 0.9834(3) 0.4562(5)
H64_4 H 0.1878 0.9677 0.4029
H65_4 H 0.0984 0.9715 0.4697
N2_4 N 0.2588(3) 0.96695(14) 0.5244(3)
H69_4 H 0.335552 0.979635 0.508594
H70_4 H 0.258269 0.926098 0.527821
loop_
_geom_bond_atom_site_label_1
_geom_bond_atom_site_label_2
_geom_bond_site_symmetry_1
_geom_bond_site_symmetry_2
Zn1 O1 1_555 1_555
C2 H1 1_555 1_555
H2 C2 1_555 1_555
C20 C22 1_555 1_555
C22 H17 1_555 1_555
H18 C22 1_555 1_555
C28 C23 1_555 1_555
C29 C28 1_555 1_555
C30 C29 1_555 1_555
C31 C30 1_555 1_555
H21 C31 1_555 1_555
C32 C31 1_555 1_555
H22 C32 1_555 1_555
C33 C32 1_555 1_555
C34 C33 1_555 1_555
H23 C34 1_555 1_555
C35 C30 1_555 1_555
H24 C35 1_555 1_555
C36 C33 1_555 1_555
H25 C36 1_555 1_555
H26 C36 1_555 1_555
H27 C36 1_555 1_555
O9 C20 1_555 1_555
O10 C20 1_555 1_555
O12 C22 1_555 1_555
C39 C40 1_555 1_555
C40 H30 1_555 1_555
H31 C40 1_555 1_555
C41 C42 1_555 1_555
C42 H32 1_555 1_555
C43 C42 1_555 1_555
C44 C29 1_555 1_555
C45 C44 1_555 1_555
H33 C45 1_555 1_555
C46 C41 1_555 1_555
C47 C46 1_555 1_555
H34 C47 1_555 1_555
C48 C47 1_555 1_555
C49 C48 1_555 1_555
H35 C49 1_555 1_555
C50 C49 1_555 1_555
H36 C50 1_555 1_555
C51 C50 1_555 1_555
C52 C51 1_555 1_555
H37 C52 1_555 1_555
C53 C48 1_555 1_555
H38 C53 1_555 1_555
C54 C51 1_555 1_555
H39 C54 1_555 1_555
H40 C54 1_555 1_555
H41 C54 1_555 1_555
C55 C57 1_555 1_555
C57 H42 1_555 1_555
H43 C57 1_555 1_555
C60 H46 1_555 1_555
C61 C60 1_555 1_555
C62 C47 1_555 1_555
C63 C62 1_555 1_555
H47 C63 1_555 1_555
O14 C37 1_555 1_555
O26 C39 1_555 1_555
O16 C39 1_555 1_555
O18 C40 1_555 1_555
O19 C55 1_555 1_555
O20 C55 1_555 1_555
O23 C57 1_555 1_555
Zn5 O10 1_555 1_555
Zn8 O20 1_555 1_555
O29 Zn1 1_555 1_555
C23 O12 1_555 1_555
C34 C35 1_555 1_555
C41 O18 1_555 1_555
C43 C44 1_555 1_555
C43 O17 1_555 1_555
C45 C46 1_555 1_555
C52 C53 1_555 1_555
C61 C62 1_555 1_555
C61 O23 1_555 1_555
C29 H67 1_555 1_555
C3 C4 1_555 1_555
C4 H3 1_555 1_555
H4 C4 1_555 1_555
C5 C6 1_555 1_555
C6 H5 1_555 1_555
C7 C6 1_555 1_555
C8 C7 1_555 1_555
C9 C8 1_555 1_555
H6 C9 1_555 1_555
C10 C5 1_555 1_555
C11 C10 1_555 1_555
H7 C11 1_555 1_555
C12 C11 1_555 1_555
C13 C12 1_555 1_555
H8 C13 1_555 1_555
C14 C13 1_555 1_555
H9 C14 1_555 1_555
C15 C14 1_555 1_555
C16 C15 1_555 1_555
H10 C16 1_555 1_555
C17 C12 1_555 1_555
H11 C17 1_555 1_555
C18 C15 1_555 1_555
H12 C18 1_555 1_555
H13 C18 1_555 1_555
H14 C18 1_555 1_555
C19 C21 1_555 1_555
C21 H15 1_555 1_555
H16 C21 1_555 1_555
C24 H19 1_555 1_555
C25 C24 1_555 1_555
C26 C11 1_555 1_555
C27 C26 1_555 1_555
H20 C27 1_555 1_555
O2 C1 1_555 1_555
O3 C3 1_555 1_555
O4 C3 1_555 1_555
O6 C4 1_555 1_555
O7 C19 1_555 1_555
O8 C19 1_555 1_555
O11 C21 1_555 1_555
C38 H28 1_555 1_555
H29 C38 1_555 1_555
C56 C58 1_555 1_555
C58 H44 1_555 1_555
H45 C58 1_555 1_555
C64 C59 1_555 1_555
C65 C8 1_555 1_555
C66 C65 1_555 1_555
C67 C66 1_555 1_555
H48 C67 1_555 1_555
C68 C67 1_555 1_555
H49 C68 1_555 1_555
C69 C68 1_555 1_555
C70 C69 1_555 1_555
H50 C70 1_555 1_555
C71 C66 1_555 1_555
H51 C71 1_555 1_555
C72 C69 1_555 1_555
H52 C72 1_555 1_555
H53 C72 1_555 1_555
H54 C72 1_555 1_555
O21 C56 1_555 1_555
O22 C56 1_555 1_555
O24 C58 1_555 1_555
Zn6 O13 1_555 1_555
Zn5 O8 1_555 1_555
Zn8 O22 1_555 1_555
O30 Zn6 1_555 1_555
C5 O6 1_555 1_555
C7 O5 1_555 1_555
C9 C10 1_555 1_555
C16 C17 1_555 1_555
C25 C26 1_555 1_555
C25 O11 1_555 1_555
C59 O24 1_555 1_555
C64 C65 1_555 1_555
C70 C71 1_555 1_555
C65 H68 1_555 1_555
C13_2 C12_2 1_555 1_555
C16_2 C15_2 1_555 1_555
H10_2 C16_2 1_555 1_555
C17_2 C12_2 1_555 1_555
H11_2 C17_2 1_555 1_555
C37_2 C38_2 1_555 1_555
C38_2 H28_2 1_555 1_555
H29_2 C38_2 1_555 1_555
C42_2 H32_2 1_555 1_555
C43_2 C42_2 1_555 1_555
C44_2 C29_2 1_555 1_555
C45_2 C44_2 1_555 1_555
O13_2 C37_2 1_555 1_555
O14_2 C37_2 1_555 1_555
O17_2 C38_2 1_555 1_555
Zn8 O13_2 1_555 1_555
O25 Zn8 1_555 1_555
C16_2 C17_2 1_555 1_555
C43_2 C44_2 1_555 1_555
C43_2 O17_2 1_555 1_555
C29_2 H67_2 1_555 1_555
C3_2 C4_2 1_555 1_555
C4_2 H3_2 1_555 1_555
H4_2 C4_2 1_555 1_555
C10_2 C5_2 1_555 1_555
C11_2 C10_2 1_555 1_555
H7_2 C11_2 1_555 1_555
C19_2 C21_2 1_555 1_555
C20_2 C22_2 1_555 1_555
C22_2 H17_2 1_555 1_555
C23_2 C24_2 1_555 1_555
C24_2 H19_2 1_555 1_555
C25_2 C24_2 1_555 1_555
C26_2 C11_2 1_555 1_555
C27_2 C26_2 1_555 1_555
H20_2 C27_2 1_555 1_555
C28_2 C23_2 1_555 1_555
C31_2 C30_2 1_555 1_555
H21_2 C31_2 1_555 1_555
C32_2 C31_2 1_555 1_555
H22_2 C32_2 1_555 1_555
C33_2 C32_2 1_555 1_555
C34_2 C33_2 1_555 1_555
C35_2 C30_2 1_555 1_555
H24_2 C35_2 1_555 1_555
O25 C3_2 1_555 1_555
O4_2 C3_2 1_555 1_555
O6_2 C4_2 1_555 1_555
O7_2 C19_2 1_555 1_555
O9_2 C20_2 1_555 1_555
O29 C20_2 1_555 1_555
O11_2 C21_2 1_555 1_555
O12_2 C22_2 1_555 1_555
C5_2 O6_2 1_555 1_555
C23_2 O12_2 1_555 1_555
C25_2 C26_2 1_555 1_555
C25_2 O11_2 1_555 1_555
C27_2 C28_2 1_555 1_555
C34_2 C35_2 1_555 1_555
C39_2 C40_2 1_555 1_555
C40_2 H30_2 1_555 1_555
H31_2 C40_2 1_555 1_555
C46_2 C41_2 1_555 1_555
C47_2 C46_2 1_555 1_555
H34_2 C47_2 1_555 1_555
C55_2 C57_2 1_555 1_555
C56_2 C58_2 1_555 1_555
C58_2 H44_2 1_555 1_555
C59_2 C60_2 1_555 1_555
C60_2 H46_2 1_555 1_555
C61_2 C60_2 1_555 1_555
C62_2 C47_2 1_555 1_555
C63_2 C62_2 1_555 1_555
H47_2 C63_2 1_555 1_555
C64_2 C59_2 1_555 1_555
C67_2 C66_2 1_555 1_555
H48_2 C67_2 1_555 1_555
C68_2 C67_2 1_555 1_555
H49_2 C68_2 1_555 1_555
C69_2 C68_2 1_555 1_555
C70_2 C69_2 1_555 1_555
C71_2 C66_2 1_555 1_555
H51_2 C71_2 1_555 1_555
O15 C39_2 1_555 1_555
O16_2 C39_2 1_555 1_555
O18_2 C40_2 1_555 1_555
O19_2 C55_2 1_555 1_555
O21_2 C56_2 1_555 1_555
O30 C56_2 1_555 1_555
O23_2 C57_2 1_555 1_555
O24_2 C58_2 1_555 1_555
Zn5 O15 1_555 1_555
C41_2 O18_2 1_555 1_555
C59_2 O24_2 1_555 1_555
C61_2 C62_2 1_555 1_555
C61_2 O23_2 1_555 1_555
C63_2 C64_2 1_555 1_555
C70_2 C71_2 1_555 1_555
Zn5 O1_2 1_555 1_555
C1_2 C2_2 1_555 1_555
C2_2 H1_2 1_555 1_555
H2_2 C2_2 1_555 1_555
C6_2 H5_2 1_555 1_555
C7_2 C6_2 1_555 1_555
C8_2 C7_2 1_555 1_555
C9_2 C8_2 1_555 1_555
O1_2 C1_2 1_555 1_555
O2_2 C1_2 1_555 1_555
O5_2 C2_2 1_555 1_555
C49_2 C48_2 1_555 1_555
C52_2 C51_2 1_555 1_555
H37_2 C52_2 1_555 1_555
C53_2 C48_2 1_555 1_555
H38_2 C53_2 1_555 1_555
C65_2 C8_2 1_555 1_555
C7_2 O5_2 1_555 1_555
C52_2 C53_2 1_555 1_555
C65_2 H68_2 1_555 1_555
H9_2 C14_2 1_555 1_555
H12_2 C18_2 1_555 1_555
H13_2 C18_2 1_555 1_555
H14_2 C18_2 1_555 1_555
H52_2 C72_2 1_555 1_555
H53_2 C72_2 1_555 1_555
H54_2 C72_2 1_555 1_555
H25_2 C36_2 1_555 1_555
H26_2 C36_2 1_555 1_555
H27_2 C36_2 1_555 1_555
H36_2 C50_2 1_555 1_555
H39_2 C54_2 1_555 1_555
H40_2 C54_2 1_555 1_555
H41_2 C54_2 1_555 1_555
C73 H55 1_555 1_555
H56 C73 1_555 1_555
H57 C73 1_555 1_555
C74 H58 1_555 1_555
H59 C74 1_555 1_555
H60 C74 1_555 1_555
N1 C73 1_555 1_555
C74 N1 1_555 1_555
N1 H71 1_555 1_555
N1 H72 1_555 1_555
C73_2 H55_2 1_555 1_555
H56_2 C73_2 1_555 1_555
H57_2 C73_2 1_555 1_555
C74_2 H58_2 1_555 1_555
H59_2 C74_2 1_555 1_555
H60_2 C74_2 1_555 1_555
N1_2 C73_2 1_555 1_555
C74_2 N1_2 1_555 1_555
N1_2 H71_2 1_555 1_555
N1_2 H72_2 1_555 1_555
C73_3 H55_3 1_555 1_555
H56_3 C73_3 1_555 1_555
H57_3 C73_3 1_555 1_555
C74_3 H58_3 1_555 1_555
H59_3 C74_3 1_555 1_555
H60_3 C74_3 1_555 1_555
N1_3 C73_3 1_555 1_555
C74_3 N1_3 1_555 1_555
N1_3 H71_3 1_555 1_555
N1_3 H72_3 1_555 1_555
C73_4 H55_4 1_555 1_555
H56_4 C73_4 1_555 1_555
H57_4 C73_4 1_555 1_555
C74_4 H58_4 1_555 1_555
H59_4 C74_4 1_555 1_555
H60_4 C74_4 1_555 1_555
N1_4 C73_4 1_555 1_555
C74_4 N1_4 1_555 1_555
N1_4 H71_4 1_555 1_555
N1_4 H72_4 1_555 1_555
C75 H61 1_555 1_555
H62 C75 1_555 1_555
H63 C75 1_555 1_555
N2 C75 1_555 1_555
N2 H69 1_555 1_555
N2 H70 1_555 1_555
C76 H64 1_555 1_555
H65 C76 1_555 1_555
H66 C76 1_555 1_555
C75_2 H61_2 1_555 1_555
H63_2 C75_2 1_555 1_555
C76_2 H64_2 1_555 1_555
H65_2 C76_2 1_555 1_555
N2_2 C75_2 1_555 1_555
C76_2 N2_2 1_555 1_555
N2_2 H69_2 1_555 1_555
N2_2 H70_2 1_555 1_555
C76_3 H64_3 1_555 1_555
H65_3 C76_3 1_555 1_555
H66_3 C76_3 1_555 1_555
C75_3 H61_3 1_555 1_555
H62_3 C75_3 1_555 1_555
H63_3 C75_3 1_555 1_555
N2_3 C75_3 1_555 1_555
N2_3 H69_3 1_555 1_555
N2_3 H70_3 1_555 1_555
C75_4 H61_4 1_555 1_555
H63_4 C75_4 1_555 1_555
C76_4 H64_4 1_555 1_555
H65_4 C76_4 1_555 1_555
N2_4 C75_4 1_555 1_555
C76_4 N2_4 1_555 1_555
N2_4 H69_4 1_555 1_555
N2_4 H70_4 1_555 1_555

#END
