
###############################################################################
#
# This file contains modified crystal structure data generated from the
# MOF subset of the Cambridge Structural Database (CSD) v543 
# hosted by the Cambridge Crystallographic Data Centre (CCDC).
#
# This work is licensed under the Creative Commons
# Attribution-NonCommercial-ShareAlike 4.0 International License.
# To view a copy of this license, visit
# http://creativecommons.org/licenses/by-nc-sa/4.0/
# or send a letter to
# Creative Commons, PO Box 1866, Mountain View, CA 94042, USA.
#
# CIF created using the CSD Python API on 29 September 2022
# The structure has been converted into the P1 space group
# The structure has a 3D framework
# The original CSD entry ULAQEF is in the monoclinic crystal system
# The framework has been calculated to contain at least 10.0% void space
# The void calculation uses a probe of radius 1.32A, grid spacing 0.4
# The framework is charged, counterions have been retained in the structure
# H atom positions have been added when not included in the experimental data
#
###############################################################################

data_ULAQEF
_chemical_formula_moiety         '(C160 H176 Co3 N8 O47 5+)n'
_symmetry_cell_setting           triclinic
_symmetry_space_group_name_H-M   'P 1'
_symmetry_Int_Tables_number      1
_space_group_name_Hall           'P 1'
loop_
_symmetry_equiv_pos_site_id
_symmetry_equiv_pos_as_xyz
1 x,y,z
_cell_length_a                   11.8380(8)
_cell_length_b                   24.7720(15)
_cell_length_c                   15.7730(8)
_cell_angle_alpha                90
_cell_angle_beta                 96.834(5)
_cell_angle_gamma                90
_cell_volume                     4592.58
loop_
_atom_site_label
_atom_site_type_symbol
_atom_site_fract_x
_atom_site_fract_y
_atom_site_fract_z
C1 C 0.0185(6) 0.37432(19) 0.1741(3)
C3 C 0.1242(4) 0.60863(18) 0.1516(3)
C4 C 0.1054(5) 0.55709(19) 0.2009(3)
H3 H 0.0245 0.5502 0.1989
H4 H 0.1394 0.5268 0.1743
C5 C 0.1032(4) 0.46775(17) 0.3050(2)
H5 H 0.0699 0.4653 0.2487
C6 C 0.1500(4) 0.51561(16) 0.3357(2)
C7 C 0.1994(3) 0.52077(16) 0.4197(2)
C8 C 0.2020(3) 0.47474(15) 0.4706(2)
H6 H 0.2360 0.4770 0.5267
C9 C 0.1562(3) 0.42554(15) 0.4414(2)
C10 C 0.1058(4) 0.42310(16) 0.3582(2)
C11 C 0.1591(3) 0.37479(15) 0.4978(2)
H7 H 0.1842 0.3451 0.4634
C12 C 0.2477(4) 0.37969(16) 0.5757(2)
C13 C 0.2287(4) 0.4074(2) 0.6475(3)
H8 H 0.1561 0.4204 0.6525
C14 C 0.3154(5) 0.4165(2) 0.7129(3)
H9 H 0.3004 0.4358 0.7610
C15 C 0.4236(5) 0.3973(2) 0.7078(3)
C16 C 0.5206(6) 0.4106(3) 0.7792(5)
H10 H 0.5898 0.3940 0.7662
H11 H 0.5015 0.3969 0.8326
H12 H 0.5308 0.4490 0.7830
C17 C 0.4414(5) 0.3682(2) 0.6374(4)
H13 H 0.5133 0.3541 0.6331
C18 C 0.3557(4) 0.3593(2) 0.5729(3)
H14 H 0.3705 0.3389 0.5259
C19 C 0.1820(5) 0.1809(2) 0.5267(3)
C20 C 0.0779(4) 0.21357(18) 0.5344(3)
H15 H 0.0172 0.2023 0.4912
H16 H 0.0529 0.2077 0.5900
C27 C 0.0418(3) 0.35945(15) 0.5194(2)
C28 C 0.0150(3) 0.30492(16) 0.5308(2)
O2 O 0.1199(4) 0.37619(18) 0.1658(2)
O3 O 0.0893(3) 0.60358(12) 0.07156(17)
O4 O 0.1648(3) 0.64871(14) 0.1849(2)
O5 O 0.2699(3) 0.20397(13) 0.5113(2)
O6 O 0.1705(4) 0.13173(17) 0.5342(4)
O9 O 0.0624(3) 0.37378(12) 0.33085(16)
O10 O 0.1534(3) 0.56147(11) 0.28561(15)
O12 O 0.1013(3) 0.26900(11) 0.52395(19)
C38 C 0.0203(4) 0.6277(2) 0.7407(3)
H29 H 0.0717 0.5976 0.7363
H30 H 0.0643 0.6605 0.7373
C57 C 0.4278(4) 0.75362(17) 0.4657(3)
C58 C 0.3475(4) 0.71361(19) 0.4966(3)
H45 H 0.2969 0.7320 0.5312
H46 H 0.3903 0.6870 0.5323
C59 C 0.0926(4) 0.71021(16) 0.4521(2)
H47 H 0.1098 0.7465 0.4453
C60 C 0.1741(3) 0.67110(16) 0.4451(2)
C61 C 0.1517(3) 0.61667(15) 0.4544(2)
C62 C 0.0429(3) 0.60291(15) 0.4721(2)
H48 H 0.0261 0.5666 0.4786
C65 C 0.2456(3) 0.57538(15) 0.4512(2)
H49 H 0.2925 0.5884 0.4083
C66 C 0.3238(4) 0.57346(16) 0.5358(2)
C67 C 0.2859(4) 0.5856(2) 0.6120(3)
H50 H 0.2095 0.5936 0.6137
C68 C 0.3614(5) 0.5859(2) 0.6882(3)
H51 H 0.3341 0.5943 0.7395
C69 C 0.4740(6) 0.5741(2) 0.6878(4)
C70 C 0.5553(7) 0.5757(3) 0.7713(4)
H52 H 0.5136 0.5854 0.8177
H53 H 0.5891 0.5408 0.7820
H54 H 0.6139 0.6019 0.7665
C71 C 0.5106(5) 0.5614(2) 0.6119(4)
H55 H 0.5868 0.5526 0.6106
C72 C 0.4375(4) 0.5612(2) 0.5360(3)
H56 H 0.4655 0.5527 0.4850
O13 O 0.0642(4) 0.62583(17) 0.8851(2)
O19 O 0.4836(3) 0.78051(13) 0.52633(19)
O20 O 0.4394(3) 0.75841(14) 0.3900(2)
O23 O 0.2822(2) 0.68721(11) 0.42755(17)
Co5 Co 0.58812(5) 0.83503(2) 0.49247(3)
Co6 Co 0.08812(5) 0.66497(2) 0.99247(3)
Co8 Co 0.41188(5) 0.16497(2) 0.50753(3)
O27 O 0.2301(3) 0.70397(13) 0.9887(2)
O30 O 0.0164(3) 0.28051(13) 0.97367(19)
Co3 Co 0.91188(5) 0.33503(2) 0.00753(3)
C2 C 0.9797(4) 0.3723(2) 0.2593(3)
H1 H 0.9283 0.4024 0.2637
H2 H 0.9357 0.3395 0.2627
C21 C 0.5722(4) 0.24638(17) 0.5343(3)
C22 C 0.6525(4) 0.28639(19) 0.5034(3)
H17 H 0.7031 0.2680 0.4688
H18 H 0.6097 0.3130 0.4677
C23 C 0.9074(4) 0.28979(16) 0.5479(2)
H19 H 0.8902 0.2535 0.5547
C24 C 0.8259(3) 0.32890(16) 0.5549(2)
C25 C 0.8483(3) 0.38333(15) 0.5456(2)
C26 C 0.9571(3) 0.39709(15) 0.5279(2)
H20 H 0.9739 0.4334 0.5214
C29 C 0.7544(3) 0.42462(15) 0.5488(2)
H21 H 0.7075 0.4116 0.5917
C30 C 0.6762(4) 0.42654(16) 0.4642(2)
C31 C 0.7141(4) 0.4144(2) 0.3880(3)
H22 H 0.7905 0.4064 0.3863
C32 C 0.6386(5) 0.4141(2) 0.3118(3)
H23 H 0.6659 0.4057 0.2605
C33 C 0.5260(6) 0.4259(2) 0.3122(4)
C34 C 0.4447(7) 0.4243(3) 0.2287(4)
H24 H 0.4864 0.4146 0.1823
H25 H 0.4109 0.4592 0.2180
H26 H 0.3861 0.3981 0.2335
C35 C 0.4894(5) 0.4386(2) 0.3881(4)
H27 H 0.4132 0.4474 0.3894
C36 C 0.5625(4) 0.4388(2) 0.4640(3)
H28 H 0.5345 0.4473 0.5150
O1 O 0.9358(4) 0.37417(17) 0.1149(2)
O7 O 0.5164(3) 0.21949(13) 0.47367(19)
O8 O 0.5606(3) 0.24159(14) 0.6100(2)
O11 O 0.7178(2) 0.31279(11) 0.57245(17)
C37 C 0.9815(6) 0.62568(19) 0.8259(3)
C39 C 0.8758(4) 0.39137(18) 0.8484(3)
C40 C 0.8946(5) 0.44291(19) 0.7991(3)
H31 H 0.9755 0.4498 0.8011
H32 H 0.8606 0.4732 0.8257
C41 C 0.8968(4) 0.53225(17) 0.6950(2)
H33 H 0.9301 0.5347 0.7513
C42 C 0.8500(4) 0.48439(16) 0.6643(2)
C43 C 0.8006(3) 0.47923(16) 0.5803(2)
C44 C 0.7980(3) 0.52526(15) 0.5294(2)
H34 H 0.7640 0.5230 0.4733
C45 C 0.8438(3) 0.57446(15) 0.5586(2)
C46 C 0.8942(4) 0.57690(16) 0.6418(2)
C47 C 0.8409(3) 0.62521(15) 0.5022(2)
H35 H 0.8158 0.6549 0.5366
C48 C 0.7523(4) 0.62031(16) 0.4243(2)
C49 C 0.7713(4) 0.5926(2) 0.3525(3)
H36 H 0.8439 0.5796 0.3475
C50 C 0.6846(5) 0.5835(2) 0.2871(3)
H37 H 0.6996 0.5642 0.2390
C51 C 0.5764(5) 0.6027(2) 0.2922(3)
C52 C 0.4794(6) 0.5894(3) 0.2208(5)
H38 H 0.4102 0.6060 0.2338
H39 H 0.4985 0.6031 0.1674
H40 H 0.4692 0.5510 0.2170
C53 C 0.5586(5) 0.6318(2) 0.3626(4)
H41 H 0.4867 0.6459 0.3669
C54 C 0.6443(4) 0.6407(2) 0.4271(3)
H42 H 0.6295 0.6611 0.4741
C55 C 0.8180(5) 0.8191(2) 0.4733(3)
C56 C 0.9221(4) 0.78643(18) 0.4656(3)
H43 H 0.9828 0.7977 0.5088
H44 H 0.9471 0.7923 0.4100
C63 C 0.9582(3) 0.64055(15) 0.4806(2)
C64 C 0.9850(3) 0.69508(16) 0.4692(2)
O14 O 0.8801(4) 0.62381(18) 0.8342(2)
O15 O 0.9107(3) 0.39642(12) 0.92844(17)
O16 O 0.8352(3) 0.35129(14) 0.8151(2)
O17 O 0.7301(3) 0.79603(13) 0.4887(2)
O18 O 0.8295(4) 0.86827(17) 0.4658(4)
O21 O 0.9376(3) 0.62622(12) 0.66915(16)
O22 O 0.8466(3) 0.43853(11) 0.71439(15)
O24 O 0.8987(3) 0.73100(11) 0.47605(19)
O28 O 0.7699(3) 0.29603(13) 0.0113(2)
O29 O 0.9836(3) 0.71949(13) 0.02633(19)
C3_2 C 0.3758(4) 0.10863(18) 0.3484(3)
C4_2 C 0.3946(5) 0.05709(19) 0.2991(3)
H3_2 H 0.4755 0.0502 0.3011
H4_2 H 0.3606 0.0268 0.3257
C6_2 C 0.3500(4) 0.01561(16) 0.1643(2)
C7_2 C 0.3006(3) 0.02077(16) 0.0803(2)
O3_2 O 0.4107(3) 0.10358(12) 0.42844(17)
O4_2 O 0.3352(3) 0.14871(14) 0.3151(2)
O10_2 O 0.3466(3) 0.06147(11) 0.21439(15)
H34_2 H 0.7360 0.0230 0.0267
C48_2 C 0.7477(4) 0.12031(16) 0.0757(2)
C49_2 C 0.7287(4) 0.0926(2) 0.1475(3)
H36_2 H 0.6561 0.0796 0.1525
C50_2 C 0.8154(5) 0.0835(2) 0.2129(3)
H37_2 H 0.8004 0.0642 0.2610
C51_2 C 0.9236(5) 0.1027(2) 0.2078(3)
C53_2 C 0.9414(5) 0.1318(2) 0.1374(4)
C54_2 C 0.8557(4) 0.1407(2) 0.0729(3)
H42_2 H 0.8705 0.1611 0.0259
C55_2 C 0.6820(5) 0.3191(2) 0.0267(3)
C56_2 C 0.5779(4) 0.28643(18) 0.0344(3)
H44_2 H 0.5529 0.2923 0.0900
C57_2 C 0.0722(4) 0.25362(17) 0.0343(3)
C58_2 C 0.1525(4) 0.21361(19) 0.0034(3)
C59_2 C 0.4074(4) 0.21021(16) 0.0479(2)
H47_2 H 0.3902 0.2465 0.0547
C60_2 C 0.3259(3) 0.17110(16) 0.0549(2)
C61_2 C 0.3483(3) 0.11667(15) 0.0456(2)
C62_2 C 0.4571(3) 0.10291(15) 0.0279(2)
H48_2 H 0.4739 0.0666 0.0214
C63_2 C 0.5418(3) 0.14055(15) 0.0194(2)
C64_2 C 0.5150(3) 0.19508(16) 0.0308(2)
C65_2 C 0.2544(3) 0.07538(15) 0.0488(2)
H49_2 H 0.2075 0.0884 0.0917
H56_2 H 0.0345 0.0527 0.0150
O18_2 O 0.6705(4) 0.36827(17) 0.0342(4)
O20_2 O 0.0606(3) 0.25841(14) 0.1100(2)
O23_2 O 0.2178(2) 0.18721(11) 0.07245(17)
O24_2 O 0.6013(3) 0.23100(11) 0.02395(19)
O25 O 0.4358(4) 0.12583(17) 0.6149(2)
C37_2 C 0.5185(6) 0.12568(19) 0.6741(3)
C38_2 C 0.4797(4) 0.1277(2) 0.7593(3)
H29_2 H 0.4283 0.0976 0.7637
H30_2 H 0.4357 0.1605 0.7627
C41_2 C 0.6032(4) 0.03225(17) 0.8050(2)
H33_2 H 0.5699 0.0347 0.7487
C44_2 C 0.7020(3) 0.02526(15) 0.9706(2)
C45_2 C 0.6562(3) 0.07446(15) 0.9414(2)
C46_2 C 0.6058(4) 0.07690(16) 0.8582(2)
C47_2 C 0.6591(3) 0.12521(15) 0.9978(2)
H35_2 H 0.6842 0.1549 0.9634
H43_2 H 0.5172 0.2977 0.9912
H45_2 H 0.2031 0.2320 0.9688
H46_2 H 0.1097 0.1870 0.9677
C66_2 C 0.1762(4) 0.07346(16) 0.9642(2)
C67_2 C 0.2141(4) 0.0856(2) 0.8880(3)
H50_2 H 0.2905 0.0936 0.8863
C68_2 C 0.1386(5) 0.0859(2) 0.8118(3)
H51_2 H 0.1659 0.0943 0.7605
C69_2 C 0.0260(6) 0.0741(2) 0.8122(4)
C72_2 C 0.0625(4) 0.0612(2) 0.9640(3)
O14_2 O 0.6199(4) 0.12381(18) 0.6658(2)
O21_2 O 0.5624(3) 0.12622(12) 0.83085(16)
C1_2 C 0.4815(6) 0.87432(19) 0.3259(3)
C2_2 C 0.5203(4) 0.8723(2) 0.2407(3)
H1_2 H 0.5717 0.9024 0.2363
H2_2 H 0.5643 0.8395 0.2373
C5_2 C 0.3968(4) 0.96775(17) 0.1950(2)
H5_2 H 0.4301 0.9653 0.2513
C8_2 C 0.2980(3) 0.97474(15) 0.0294(2)
C9_2 C 0.3438(3) 0.92554(15) 0.0586(2)
C10_2 C 0.3942(4) 0.92310(16) 0.1418(2)
C11_2 C 0.3409(3) 0.87479(15) 0.0022(2)
H7_2 H 0.3158 0.8451 0.0366
H15_2 H 0.4828 0.7023 0.0088
H17_2 H 0.7969 0.7680 0.0312
H18_2 H 0.8903 0.8130 0.0323
C30_2 C 0.8238(4) 0.92654(16) 0.0358(2)
C31_2 C 0.7859(4) 0.9144(2) 0.1120(3)
H22_2 H 0.7095 0.9064 0.1137
C32_2 C 0.8614(5) 0.9141(2) 0.1882(3)
H23_2 H 0.8341 0.9057 0.2395
C33_2 C 0.9740(6) 0.9259(2) 0.1878(4)
C36_2 C 0.9375(4) 0.9388(2) 0.0360(3)
O1_2 O 0.5642(4) 0.87417(17) 0.3851(2)
O2_2 O 0.3801(4) 0.87619(18) 0.3342(2)
O9_2 O 0.4376(3) 0.87378(12) 0.16915(16)
O26 O 0.5893(3) 0.89642(12) 0.57156(17)
H6_2 H 0.2640 0.9770 0.9733
C12_2 C 0.2523(4) 0.87969(16) 0.9243(2)
C13_2 C 0.2713(4) 0.9074(2) 0.8525(3)
H8_2 H 0.3439 0.9204 0.8475
C14_2 C 0.1846(5) 0.9165(2) 0.7871(3)
H9_2 H 0.1996 0.9358 0.7390
C15_2 C 0.0764(5) 0.8973(2) 0.7922(3)
C17_2 C 0.0586(5) 0.8682(2) 0.8626(4)
C18_2 C 0.1443(4) 0.8593(2) 0.9271(3)
H14_2 H 0.1295 0.8389 0.9741
C19_2 C 0.3180(5) 0.6809(2) 0.9733(3)
C20_2 C 0.4221(4) 0.71357(18) 0.9656(3)
H16_2 H 0.4471 0.7077 0.9100
C21_2 C 0.9278(4) 0.74638(17) 0.9657(3)
C22_2 C 0.8475(4) 0.78639(19) 0.9966(3)
C23_2 C 0.5926(4) 0.78979(16) 0.9521(2)
H19_2 H 0.6098 0.7535 0.9453
C24_2 C 0.6741(3) 0.82890(16) 0.9451(2)
C25_2 C 0.6517(3) 0.88333(15) 0.9544(2)
C26_2 C 0.5429(3) 0.89709(15) 0.9721(2)
H20_2 H 0.5261 0.9334 0.9786
C27_2 C 0.4582(3) 0.85945(15) 0.9806(2)
C28_2 C 0.4850(3) 0.80492(16) 0.9692(2)
C29_2 C 0.7456(3) 0.92462(15) 0.9512(2)
H21_2 H 0.7925 0.9116 0.9083
H28_2 H 0.9655 0.9473 0.9850
O6_2 O 0.3295(4) 0.63173(17) 0.9658(4)
O8_2 O 0.9394(3) 0.74159(14) 0.8900(2)
O11_2 O 0.7822(2) 0.81279(11) 0.92755(17)
O12_2 O 0.3987(3) 0.76900(11) 0.97605(19)
C39_2 C 0.6242(4) 0.89137(18) 0.6516(3)
C40_2 C 0.6054(5) 0.94291(19) 0.7009(3)
H31_2 H 0.5245 0.9498 0.6989
H32_2 H 0.6394 0.9732 0.6743
C42_2 C 0.6500(4) 0.98439(16) 0.8357(2)
C43_2 C 0.6994(3) 0.97923(16) 0.9197(2)
O16_2 O 0.6648(3) 0.85129(14) 0.6849(2)
O22_2 O 0.6534(3) 0.93853(11) 0.78561(15)
C52_2 C 0.0206(6) 0.0894(3) 0.2792(5)
H38_2 H 0.0898 0.1060 0.2662
H39_2 H 0.0015 0.1031 0.3326
H40_2 H 0.0308 0.0510 0.2830
H41_2 H 0.0133 0.1459 0.1331
C34_2 C 0.0553(7) 0.9243(3) 0.2713(4)
H24_2 H 0.0136 0.9146 0.3177
H25_2 H 0.0891 0.9592 0.2820
H26_2 H 0.1139 0.8981 0.2665
C35_2 C 0.0106(5) 0.9386(2) 0.1119(4)
H27_2 H 0.0868 0.9474 0.1106
C70_2 C 0.9447(7) 0.0757(3) 0.7287(4)
H52_2 H 0.9864 0.0854 0.6823
H53_2 H 0.9109 0.0408 0.7180
H54_2 H 0.8861 0.1019 0.7335
C71_2 C 0.9894(5) 0.0614(2) 0.8881(4)
H55_2 H 0.9132 0.0526 0.8894
C16_2 C 0.9794(6) 0.9106(3) 0.7208(5)
H10_2 H 0.9102 0.8940 0.7338
H11_2 H 0.9985 0.8969 0.6674
H12_2 H 0.9692 0.9490 0.7170
H13_2 H 0.9867 0.8541 0.8669
C73 C 0.2544(10) 0.0117(4) 0.6119(5)
H57 H 0.3172 0.0253 0.6500
H59 H 0.1843 0.0231 0.6313
C74 C 0.1688(9) 0.0134(5) 0.4630(7)
H60 H 0.1794 0.0289 0.4087
H61 H 0.0964 0.0244 0.4788
N1 N 0.2607(5) 0.0321(2) 0.5285(3)
H71 H 0.336324 0.0205512 0.51003
H72 H 0.257326 0.0730003 0.531116
H58 H 0.2574 0.9730 0.6109
H62 H 0.1710 0.9747 0.4591
C74_2 C 0.3312(9) 0.5134(5) 0.0370(7)
H60_2 H 0.3206 0.5289 0.0913
H61_2 H 0.4036 0.5244 0.0212
H62_2 H 0.3290 0.4747 0.0409
C73_2 C 0.2456(10) 0.5117(4) 0.8881(5)
H57_2 H 0.1828 0.5253 0.8500
H58_2 H 0.2426 0.4730 0.8891
H59_2 H 0.3157 0.5231 0.8687
N1_2 N 0.2393(5) 0.5321(2) 0.9715(3)
H71_2 H 0.163676 0.520551 0.98997
H72_2 H 0.242674 0.573 0.968884
H58_3 H 0.7426 0.0270 0.3891
H62_3 H 0.8290 0.0253 0.5409
C73_3 C 0.7456(10) 0.9883(4) 0.3881(5)
H57_3 H 0.6828 0.9747 0.3500
H59_3 H 0.8157 0.9769 0.3687
C74_3 C 0.8312(9) 0.9866(5) 0.5370(7)
H60_3 H 0.8206 0.9711 0.5913
H61_3 H 0.9036 0.9756 0.5212
N1_3 N 0.7393(5) 0.9679(2) 0.4715(3)
H71_3 H 0.663676 0.979449 0.48997
H72_3 H 0.742674 0.927 0.468884
C73_4 C 0.7544(10) 0.4883(4) 0.1119(5)
H57_4 H 0.8172 0.4747 0.1500
H58_4 H 0.7574 0.5270 0.1109
H59_4 H 0.6843 0.4769 0.1313
N1_4 N 0.7607(5) 0.4679(2) 0.0285(3)
H71_4 H 0.836324 0.479449 0.0100299
H72_4 H 0.757326 0.427 0.0311155
C74_4 C 0.6688(9) 0.4866(5) 0.9630(7)
H60_4 H 0.6794 0.4711 0.9087
H61_4 H 0.5964 0.4756 0.9788
H62_4 H 0.6710 0.5253 0.9591
C75 C 0.1368(6) 0.2397(3) 0.3127(4)
H63 H 0.0802 0.2121 0.3013
H64 H 0.1006 0.2745 0.3099
H65 H 0.1768 0.2344 0.3687
C76 C 0.3043(7) 0.2773(4) 0.2640(5)
H66 H 0.3554 0.2745 0.2214
H67 H 0.3456 0.2721 0.3195
H68 H 0.2699 0.3125 0.2611
N2 N 0.2172(4) 0.23691(19) 0.2491(3)
H69 H 0.174204 0.242631 0.190181
H70 H 0.254201 0.199889 0.251941
C75_2 C 0.3632(6) 0.7397(3) 0.1873(4)
H63_2 H 0.4198 0.7121 0.1987
H64_2 H 0.3994 0.7745 0.1901
H65_2 H 0.3232 0.7344 0.1313
C76_2 C 0.1957(7) 0.7773(4) 0.2360(5)
H66_2 H 0.1446 0.7745 0.2786
H67_2 H 0.1544 0.7721 0.1805
H68_2 H 0.2301 0.8125 0.2389
N2_2 N 0.2828(4) 0.73691(19) 0.2509(3)
H69_2 H 0.325796 0.742631 0.309819
H70_2 H 0.245799 0.699889 0.248059
C75_3 C 0.8632(6) 0.7603(3) 0.6873(4)
H63_3 H 0.9198 0.7879 0.6987
H64_3 H 0.8994 0.7255 0.6901
H65_3 H 0.8232 0.7656 0.6313
C76_3 C 0.6957(7) 0.7227(4) 0.7360(5)
H66_3 H 0.6446 0.7255 0.7786
H67_3 H 0.6544 0.7279 0.6805
H68_3 H 0.7301 0.6875 0.7389
N2_3 N 0.7828(4) 0.76309(19) 0.7509(3)
H69_3 H 0.825796 0.757369 0.809819
H70_3 H 0.745799 0.800111 0.748059
C75_4 C 0.6368(6) 0.2603(3) 0.8127(4)
H63_4 H 0.5802 0.2879 0.8013
H64_4 H 0.6006 0.2255 0.8099
H65_4 H 0.6768 0.2656 0.8687
C76_4 C 0.8043(7) 0.2227(4) 0.7640(5)
H66_4 H 0.8554 0.2255 0.7214
H67_4 H 0.8456 0.2279 0.8195
H68_4 H 0.7699 0.1875 0.7611
N2_4 N 0.7172(4) 0.26309(19) 0.7491(3)
H69_4 H 0.674204 0.257369 0.690181
H70_4 H 0.754201 0.300111 0.751941
loop_
_geom_bond_atom_site_label_1
_geom_bond_atom_site_label_2
_geom_bond_site_symmetry_1
_geom_bond_site_symmetry_2
C3 C4 1_555 1_555
C4 H3 1_555 1_555
H4 C4 1_555 1_555
C5 H5 1_555 1_555
C6 C5 1_555 1_555
C7 C6 1_555 1_555
C8 C7 1_555 1_555
H6 C8 1_555 1_555
C9 C8 1_555 1_555
C10 C5 1_555 1_555
C11 C9 1_555 1_555
H7 C11 1_555 1_555
C12 C11 1_555 1_555
C13 C12 1_555 1_555
H8 C13 1_555 1_555
C14 C13 1_555 1_555
H9 C14 1_555 1_555
C15 C14 1_555 1_555
C16 C15 1_555 1_555
H10 C16 1_555 1_555
H11 C16 1_555 1_555
H12 C16 1_555 1_555
C17 C15 1_555 1_555
H13 C17 1_555 1_555
C18 C12 1_555 1_555
H14 C18 1_555 1_555
C19 C20 1_555 1_555
C20 H15 1_555 1_555
H16 C20 1_555 1_555
C27 C11 1_555 1_555
O2 C1 1_555 1_555
O3 C3 1_555 1_555
O4 C3 1_555 1_555
O5 C19 1_555 1_555
O6 C19 1_555 1_555
O10 C4 1_555 1_555
O12 C20 1_555 1_555
C38 H29 1_555 1_555
H30 C38 1_555 1_555
C57 C58 1_555 1_555
C58 H45 1_555 1_555
H46 C58 1_555 1_555
C59 H47 1_555 1_555
C60 C59 1_555 1_555
C61 C60 1_555 1_555
C62 C61 1_555 1_555
H48 C62 1_555 1_555
C65 C7 1_555 1_555
H49 C65 1_555 1_555
C66 C65 1_555 1_555
C67 C66 1_555 1_555
H50 C67 1_555 1_555
C68 C67 1_555 1_555
H51 C68 1_555 1_555
C69 C68 1_555 1_555
C70 C69 1_555 1_555
H52 C70 1_555 1_555
H53 C70 1_555 1_555
H54 C70 1_555 1_555
C71 C69 1_555 1_555
H55 C71 1_555 1_555
C72 C66 1_555 1_555
H56 C72 1_555 1_555
O19 C57 1_555 1_555
O20 C57 1_555 1_555
O23 C58 1_555 1_555
Co5 O19 1_555 1_555
Co6 O13 1_555 1_555
Co8 O5 1_555 1_555
C6 O10 1_555 1_555
C9 C10 1_555 1_555
C10 O9 1_555 1_555
C17 C18 1_555 1_555
C27 C28 1_555 1_555
C28 O12 1_555 1_555
C60 O23 1_555 1_555
C61 C65 1_555 1_555
C71 C72 1_555 1_555
O27 Co6 1_555 1_555
Co3 O1 1_555 1_555
C2 H1 1_555 1_555
H2 C2 1_555 1_555
C21 C22 1_555 1_555
C22 H17 1_555 1_555
H18 C22 1_555 1_555
C23 H19 1_555 1_555
C24 C23 1_555 1_555
C25 C24 1_555 1_555
C26 C25 1_555 1_555
H20 C26 1_555 1_555
C29 C25 1_555 1_555
H21 C29 1_555 1_555
C30 C29 1_555 1_555
C31 C30 1_555 1_555
H22 C31 1_555 1_555
C32 C31 1_555 1_555
H23 C32 1_555 1_555
C33 C32 1_555 1_555
C34 C33 1_555 1_555
H24 C34 1_555 1_555
H25 C34 1_555 1_555
H26 C34 1_555 1_555
C35 C33 1_555 1_555
H27 C35 1_555 1_555
C36 C30 1_555 1_555
H28 C36 1_555 1_555
O7 C21 1_555 1_555
O8 C21 1_555 1_555
O11 C22 1_555 1_555
C39 C40 1_555 1_555
C40 H31 1_555 1_555
H32 C40 1_555 1_555
C41 H33 1_555 1_555
C42 C41 1_555 1_555
C43 C29 1_555 1_555
C44 C43 1_555 1_555
H34 C44 1_555 1_555
C45 C44 1_555 1_555
C46 C41 1_555 1_555
C47 C45 1_555 1_555
H35 C47 1_555 1_555
C48 C47 1_555 1_555
C49 C48 1_555 1_555
H36 C49 1_555 1_555
C50 C49 1_555 1_555
H37 C50 1_555 1_555
C51 C50 1_555 1_555
C52 C51 1_555 1_555
H38 C52 1_555 1_555
H39 C52 1_555 1_555
H40 C52 1_555 1_555
C53 C51 1_555 1_555
H41 C53 1_555 1_555
C54 C48 1_555 1_555
H42 C54 1_555 1_555
C55 C56 1_555 1_555
C56 H43 1_555 1_555
H44 C56 1_555 1_555
C63 C47 1_555 1_555
O14 C37 1_555 1_555
O15 C39 1_555 1_555
O16 C39 1_555 1_555
O17 C55 1_555 1_555
O18 C55 1_555 1_555
O22 C40 1_555 1_555
O24 C56 1_555 1_555
Co5 O17 1_555 1_555
Co8 O7 1_555 1_555
O28 Co3 1_555 1_555
C24 O11 1_555 1_555
C35 C36 1_555 1_555
C42 C43 1_555 1_555
C42 O22 1_555 1_555
C45 C46 1_555 1_555
C46 O21 1_555 1_555
C53 C54 1_555 1_555
C63 C64 1_555 1_555
C64 O24 1_555 1_555
C3_2 C4_2 1_555 1_555
C4_2 H3_2 1_555 1_555
H4_2 C4_2 1_555 1_555
C7_2 C6_2 1_555 1_555
O3_2 C3_2 1_555 1_555
O4_2 C3_2 1_555 1_555
O10_2 C4_2 1_555 1_555
C49_2 C48_2 1_555 1_555
H36_2 C49_2 1_555 1_555
C50_2 C49_2 1_555 1_555
H37_2 C50_2 1_555 1_555
C51_2 C50_2 1_555 1_555
C53_2 C51_2 1_555 1_555
C54_2 C48_2 1_555 1_555
H42_2 C54_2 1_555 1_555
C55_2 C56_2 1_555 1_555
H44_2 C56_2 1_555 1_555
C57_2 C58_2 1_555 1_555
C59_2 H47_2 1_555 1_555
C60_2 C59_2 1_555 1_555
C61_2 C60_2 1_555 1_555
C62_2 C61_2 1_555 1_555
H48_2 C62_2 1_555 1_555
C64_2 C59_2 1_555 1_555
C65_2 C7_2 1_555 1_555
H49_2 C65_2 1_555 1_555
O28 C55_2 1_555 1_555
O18_2 C55_2 1_555 1_555
O20_2 C57_2 1_555 1_555
O23_2 C58_2 1_555 1_555
O24_2 C56_2 1_555 1_555
Co8 O3_2 1_555 1_555
O25 Co8 1_555 1_555
C6_2 O10_2 1_555 1_555
C53_2 C54_2 1_555 1_555
C60_2 O23_2 1_555 1_555
C61_2 C65_2 1_555 1_555
C62_2 C63_2 1_555 1_555
C63_2 C64_2 1_555 1_555
C64_2 O24_2 1_555 1_555
C37_2 C38_2 1_555 1_555
C38_2 H29_2 1_555 1_555
H30_2 C38_2 1_555 1_555
C41_2 H33_2 1_555 1_555
C45_2 C44_2 1_555 1_555
C46_2 C41_2 1_555 1_555
C47_2 C45_2 1_555 1_555
H35_2 C47_2 1_555 1_555
C67_2 C66_2 1_555 1_555
H50_2 C67_2 1_555 1_555
C68_2 C67_2 1_555 1_555
H51_2 C68_2 1_555 1_555
C69_2 C68_2 1_555 1_555
C72_2 C66_2 1_555 1_555
O25 C37_2 1_555 1_555
O14_2 C37_2 1_555 1_555
O21_2 C38_2 1_555 1_555
C45_2 C46_2 1_555 1_555
C46_2 O21_2 1_555 1_555
Co5 O1_2 1_555 1_555
C1_2 C2_2 1_555 1_555
C2_2 H1_2 1_555 1_555
H2_2 C2_2 1_555 1_555
C5_2 H5_2 1_555 1_555
C9_2 C8_2 1_555 1_555
C10_2 C5_2 1_555 1_555
C11_2 C9_2 1_555 1_555
H7_2 C11_2 1_555 1_555
C31_2 C30_2 1_555 1_555
H22_2 C31_2 1_555 1_555
C32_2 C31_2 1_555 1_555
H23_2 C32_2 1_555 1_555
C33_2 C32_2 1_555 1_555
C36_2 C30_2 1_555 1_555
O1_2 C1_2 1_555 1_555
O2_2 C1_2 1_555 1_555
O9_2 C2_2 1_555 1_555
O26 Co5 1_555 1_555
C9_2 C10_2 1_555 1_555
C10_2 O9_2 1_555 1_555
C13_2 C12_2 1_555 1_555
H8_2 C13_2 1_555 1_555
C14_2 C13_2 1_555 1_555
H9_2 C14_2 1_555 1_555
C15_2 C14_2 1_555 1_555
C17_2 C15_2 1_555 1_555
C18_2 C12_2 1_555 1_555
H14_2 C18_2 1_555 1_555
C19_2 C20_2 1_555 1_555
H16_2 C20_2 1_555 1_555
C21_2 C22_2 1_555 1_555
C23_2 H19_2 1_555 1_555
C24_2 C23_2 1_555 1_555
C25_2 C24_2 1_555 1_555
C26_2 C25_2 1_555 1_555
H20_2 C26_2 1_555 1_555
C28_2 C23_2 1_555 1_555
C29_2 C25_2 1_555 1_555
H21_2 C29_2 1_555 1_555
O27 C19_2 1_555 1_555
O6_2 C19_2 1_555 1_555
O8_2 C21_2 1_555 1_555
O11_2 C22_2 1_555 1_555
O12_2 C20_2 1_555 1_555
C39_2 C40_2 1_555 1_555
C40_2 H31_2 1_555 1_555
H32_2 C40_2 1_555 1_555
C43_2 C29_2 1_555 1_555
O26 C39_2 1_555 1_555
O16_2 C39_2 1_555 1_555
O22_2 C40_2 1_555 1_555
C17_2 C18_2 1_555 1_555
C24_2 O11_2 1_555 1_555
C26_2 C27_2 1_555 1_555
C27_2 C28_2 1_555 1_555
C28_2 O12_2 1_555 1_555
C42_2 C43_2 1_555 1_555
C42_2 O22_2 1_555 1_555
H38_2 C52_2 1_555 1_555
H39_2 C52_2 1_555 1_555
H40_2 C52_2 1_555 1_555
H24_2 C34_2 1_555 1_555
H25_2 C34_2 1_555 1_555
H26_2 C34_2 1_555 1_555
H27_2 C35_2 1_555 1_555
H52_2 C70_2 1_555 1_555
H53_2 C70_2 1_555 1_555
H54_2 C70_2 1_555 1_555
H55_2 C71_2 1_555 1_555
H10_2 C16_2 1_555 1_555
H11_2 C16_2 1_555 1_555
H12_2 C16_2 1_555 1_555
C73 H57 1_555 1_555
H59 C73 1_555 1_555
C74 H60 1_555 1_555
H61 C74 1_555 1_555
N1 C73 1_555 1_555
C74 N1 1_555 1_555
N1 H71 1_555 1_555
N1 H72 1_555 1_555
C74_2 H60_2 1_555 1_555
H61_2 C74_2 1_555 1_555
H62_2 C74_2 1_555 1_555
C73_2 H57_2 1_555 1_555
H58_2 C73_2 1_555 1_555
H59_2 C73_2 1_555 1_555
N1_2 C73_2 1_555 1_555
N1_2 H71_2 1_555 1_555
N1_2 H72_2 1_555 1_555
C73_3 H57_3 1_555 1_555
H59_3 C73_3 1_555 1_555
C74_3 H60_3 1_555 1_555
H61_3 C74_3 1_555 1_555
N1_3 C73_3 1_555 1_555
C74_3 N1_3 1_555 1_555
N1_3 H71_3 1_555 1_555
N1_3 H72_3 1_555 1_555
C73_4 H57_4 1_555 1_555
H58_4 C73_4 1_555 1_555
H59_4 C73_4 1_555 1_555
N1_4 C73_4 1_555 1_555
N1_4 H71_4 1_555 1_555
N1_4 H72_4 1_555 1_555
C74_4 H60_4 1_555 1_555
H61_4 C74_4 1_555 1_555
H62_4 C74_4 1_555 1_555
C75 H63 1_555 1_555
H64 C75 1_555 1_555
H65 C75 1_555 1_555
C76 H66 1_555 1_555
H67 C76 1_555 1_555
H68 C76 1_555 1_555
N2 C75 1_555 1_555
C76 N2 1_555 1_555
N2 H69 1_555 1_555
N2 H70 1_555 1_555
C75_2 H63_2 1_555 1_555
H64_2 C75_2 1_555 1_555
H65_2 C75_2 1_555 1_555
C76_2 H66_2 1_555 1_555
H67_2 C76_2 1_555 1_555
H68_2 C76_2 1_555 1_555
N2_2 C75_2 1_555 1_555
C76_2 N2_2 1_555 1_555
N2_2 H69_2 1_555 1_555
N2_2 H70_2 1_555 1_555
C75_3 H63_3 1_555 1_555
H64_3 C75_3 1_555 1_555
H65_3 C75_3 1_555 1_555
C76_3 H66_3 1_555 1_555
H67_3 C76_3 1_555 1_555
H68_3 C76_3 1_555 1_555
N2_3 C75_3 1_555 1_555
C76_3 N2_3 1_555 1_555
N2_3 H69_3 1_555 1_555
N2_3 H70_3 1_555 1_555
C75_4 H63_4 1_555 1_555
H64_4 C75_4 1_555 1_555
H65_4 C75_4 1_555 1_555
C76_4 H66_4 1_555 1_555
H67_4 C76_4 1_555 1_555
H68_4 C76_4 1_555 1_555
N2_4 C75_4 1_555 1_555
C76_4 N2_4 1_555 1_555
N2_4 H69_4 1_555 1_555
N2_4 H70_4 1_555 1_555

#END
