
###############################################################################
#
# This file contains modified crystal structure data generated from the
# MOF subset of the Cambridge Structural Database (CSD) v543 
# hosted by the Cambridge Crystallographic Data Centre (CCDC).
#
# This work is licensed under the Creative Commons
# Attribution-NonCommercial-ShareAlike 4.0 International License.
# To view a copy of this license, visit
# http://creativecommons.org/licenses/by-nc-sa/4.0/
# or send a letter to
# Creative Commons, PO Box 1866, Mountain View, CA 94042, USA.
#
# CIF created using the CSD Python API on 29 September 2022
# The structure has been converted into the P1 space group
# The structure has a 3D framework
# The original CSD entry ULEJIH is in the tetragonal crystal system
# The framework has been calculated to contain at least 10.0% void space
# The void calculation uses a probe of radius 1.32A, grid spacing 0.4
# The framework is charged, counterions have been retained in the structure
#
###############################################################################

data_ULEJIH
_chemical_formula_moiety         '(C304 H224 N112 O64 Zn20 8-)n'
_symmetry_cell_setting           triclinic
_symmetry_space_group_name_H-M   'P 1'
_symmetry_Int_Tables_number      1
_space_group_name_Hall           'P 1'
loop_
_symmetry_equiv_pos_site_id
_symmetry_equiv_pos_as_xyz
1 x,y,z
_cell_length_a                   26.1307(2)
_cell_length_b                   26.1307(2)
_cell_length_c                   20.4822(2)
_cell_angle_alpha                90
_cell_angle_beta                 90
_cell_angle_gamma                90
_cell_volume                     13985.5
loop_
_atom_site_label
_atom_site_type_symbol
_atom_site_fract_x
_atom_site_fract_y
_atom_site_fract_z
O10 O 0.18604(9) 0.52475(10) 0.72109(13)
O13 O 0.23456(11) 0.48794(16) 0.6470(2)
C45 C 0.05733(15) 0.43607(17) 0.5788(2)
C46 C 0.19210(14) 0.49693(15) 0.6701(2)
C47 C 0.01179(15) 0.41184(16) 0.5470(2)
C49 C 0.05267(14) 0.46505(16) 0.6359(2)
N20 N 0.00555(15) 0.4744(2) 0.6639(3)
H34 H 0.003451 0.492337 0.698937
N21 N 0.00163(19) 0.35302(18) 0.6366(2)
H37 H 0.026713 0.367442 0.656568
H38 H 0.012559 0.455222 0.465511
C53 C 0.09676(14) 0.48498(16) 0.6650(2)
H39 H 0.093752 0.504443 0.702859
C54 C 0.14473(14) 0.47636(15) 0.6388(2)
C56 C 0.10555(18) 0.4292(2) 0.5520(2)
H41 H 0.108628 0.411077 0.513073
C57 C 0.14903(17) 0.4483(2) 0.5810(3)
H42 H 0.180971 0.442590 0.562385
Zn11 Zn 0.250000 0.55552(2) 0.750000
Zn4 Zn 0.05552(2) 0.750000 0.250000
O6 O 0.02475(10) 0.81396(9) 0.27891(13)
H25 H 0.004443 0.906248 0.297141
O18 O 0.02475(10) 0.68604(9) 0.22109(13)
N30 N 0.10680(11) 0.72977(10) 0.32023(14)
N31 N 0.10680(11) 0.77023(10) 0.17977(14)
Zn1 Zn 0.71863(2) 0.29951(2) 0.56120(2)
Zn2 Zn 0.44448(2) 0.750000 0.250000
O1 O 0.750000 0.250000 0.500000
O2 O 0.47525(10) 0.68604(9) 0.27891(13)
O3 O 0.68982(11) 0.35727(10) 0.51495(14)
N1 N 0.60680(11) 0.22977(10) 0.67977(14)
N2 N 0.67199(11) 0.25460(10) 0.61375(15)
O4 O 0.65518(14) 0.37980(12) 0.60945(15)
N3 N 0.72447(12) 0.17807(12) 0.62285(16)
O5 O 0.51206(16) 0.73456(11) 0.3530(2)
C1 C 0.62688(13) 0.26624(13) 0.64221(17)
H1 H 0.610861 0.297650 0.636018
C2 C 0.68219(13) 0.20649(12) 0.63593(16)
N4 N 0.60963(18) 0.12135(15) 0.7425(3)
H2 H 0.613890 0.091318 0.758817
H3 H 0.581820 0.137943 0.750062
C3 C 0.66196(15) 0.38678(14) 0.55048(19)
N5 N 0.68960(16) 0.11477(15) 0.6948(2)
C4 C 0.63669(15) 0.43075(14) 0.51667(19)
C5 C 0.64259(13) 0.19063(12) 0.67672(18)
C6 C 0.65291(16) 0.44585(15) 0.4555(2)
H4 H 0.679868 0.428645 0.435612
C7 C 0.56393(17) 0.55733(15) 0.4212(2)
C8 C 0.50307(15) 0.69210(14) 0.3299(2)
C9 C 0.58816(16) 0.51179(15) 0.4530(2)
C10 C 0.64619(17) 0.14224(15) 0.7056(2)
C11 C 0.53495(16) 0.55267(14) 0.3641(2)
C12 C 0.62944(17) 0.48658(16) 0.4231(2)
C13 C 0.59657(18) 0.45627(18) 0.5470(2)
H5 H 0.586110 0.446760 0.588699
N6 N 0.5256(2) 0.50555(15) 0.3361(3)
H6 H 0.507663 0.503451 0.301063
H7 H 0.537771 0.478273 0.353804
N7 N 0.64698(18) 0.50163(19) 0.3634(2)
H8 H 0.672455 0.486041 0.345823
H9 H 0.632558 0.526713 0.343432
C14 C 0.57223(18) 0.49609(18) 0.5146(2)
H10 H 0.544778 0.512559 0.534489
C15 C 0.51502(16) 0.59676(14) 0.3350(2)
H11 H 0.495557 0.593752 0.297141
C16 C 0.52364(15) 0.64473(14) 0.3612(2)
C17 C 0.72458(17) 0.13361(16) 0.6554(3)
H12 H 0.753372 0.113239 0.649270
C18 C 0.5708(2) 0.60555(18) 0.4480(2)
H13 H 0.588923 0.608628 0.486927
C19 C 0.5517(2) 0.64903(17) 0.4190(3)
H14 H 0.557410 0.680971 0.437615
Zn3 Zn 0.78137(2) 0.20049(2) 0.56120(2)
O7 O 0.81018(11) 0.14273(10) 0.51495(14)
N8 N 0.89320(11) 0.27023(10) 0.67977(14)
N9 N 0.82801(11) 0.24540(10) 0.61375(15)
O8 O 0.84482(14) 0.12020(12) 0.60945(15)
N10 N 0.77553(12) 0.32193(12) 0.62285(16)
C20 C 0.87312(13) 0.23376(13) 0.64221(17)
H15 H 0.889139 0.202350 0.636018
C21 C 0.81781(13) 0.29351(12) 0.63593(16)
N11 N 0.89037(18) 0.37865(15) 0.7425(3)
H16 H 0.886110 0.408682 0.758817
H17 H 0.918180 0.362057 0.750062
C22 C 0.83804(15) 0.11322(14) 0.55048(19)
N12 N 0.81040(16) 0.38523(15) 0.6948(2)
C23 C 0.86331(15) 0.06925(14) 0.51667(19)
C24 C 0.85741(13) 0.30937(12) 0.67672(18)
C25 C 0.84709(16) 0.05415(15) 0.4555(2)
H18 H 0.820132 0.071355 0.435612
C29 C 0.85381(17) 0.35776(15) 0.7056(2)
C31 C 0.87056(17) 0.01342(16) 0.4231(2)
C32 C 0.90343(18) 0.04373(18) 0.5470(2)
H19 H 0.913890 0.053240 0.588699
H21 H 0.962229 0.021727 0.353804
H22 H 0.827545 0.013959 0.345823
C33 C 0.92777(18) 0.00391(18) 0.5146(2)
C36 C 0.77542(17) 0.36639(16) 0.6554(3)
H26 H 0.746628 0.386761 0.649270
Zn5 Zn 0.79951(2) 0.28137(2) 0.43880(2)
O11 O 0.85727(10) 0.31018(11) 0.48505(14)
N15 N 0.72977(10) 0.39320(11) 0.32023(14)
N16 N 0.75460(10) 0.32801(11) 0.38625(15)
O12 O 0.87980(12) 0.34482(14) 0.39055(15)
N17 N 0.67807(12) 0.27553(12) 0.37715(16)
C39 C 0.76624(13) 0.37312(13) 0.35779(17)
H29 H 0.797650 0.389139 0.363982
C40 C 0.70649(12) 0.31781(13) 0.36407(16)
N18 N 0.62135(15) 0.39037(18) 0.2575(3)
H30 H 0.591318 0.386110 0.241183
H31 H 0.637943 0.418180 0.249938
C41 C 0.88678(14) 0.33804(15) 0.44952(19)
N19 N 0.61477(15) 0.31040(16) 0.3052(2)
C42 C 0.93075(14) 0.36331(15) 0.48333(19)
C43 C 0.69063(12) 0.35741(13) 0.32328(18)
C44 C 0.94585(15) 0.34709(16) 0.5445(2)
H32 H 0.928645 0.320132 0.564388
C48 C 0.64224(15) 0.35381(17) 0.2944(2)
C50 C 0.98658(16) 0.37056(17) 0.5769(2)
C51 C 0.95627(18) 0.40343(18) 0.4530(2)
H33 H 0.946760 0.413890 0.411301
H35 H 0.978273 0.462229 0.646196
H36 H 0.986041 0.327545 0.654177
C52 C 0.99609(18) 0.42777(18) 0.4854(2)
C55 C 0.63361(16) 0.27542(17) 0.3446(3)
H40 H 0.613239 0.246628 0.350730
Zn6 Zn 0.70049(2) 0.21863(2) 0.43880(2)
O15 O 0.64273(10) 0.18982(11) 0.48505(14)
N22 N 0.77023(10) 0.10680(11) 0.32023(14)
N23 N 0.74540(10) 0.17199(11) 0.38625(15)
O16 O 0.62020(12) 0.15518(14) 0.39055(15)
N24 N 0.82193(12) 0.22447(12) 0.37715(16)
O17 O 0.26544(11) 0.01206(16) 0.6470(2)
C58 C 0.73376(13) 0.12688(13) 0.35779(17)
H43 H 0.702350 0.110861 0.363982
C59 C 0.79351(12) 0.18219(13) 0.36407(16)
N25 N 0.87865(15) 0.10963(18) 0.2575(3)
H44 H 0.908682 0.113890 0.241183
H45 H 0.862057 0.081820 0.249938
C60 C 0.61322(14) 0.16196(15) 0.44952(19)
N26 N 0.88523(15) 0.18960(16) 0.3052(2)
C61 C 0.56925(14) 0.13669(15) 0.48333(19)
C62 C 0.80937(12) 0.14259(13) 0.32328(18)
C63 C 0.55415(15) 0.15291(16) 0.5445(2)
H46 H 0.571355 0.179868 0.564388
C64 C 0.44267(15) 0.06393(17) 0.5788(2)
C65 C 0.30790(14) 0.00307(15) 0.6701(2)
C66 C 0.48821(15) 0.08816(16) 0.5470(2)
C67 C 0.85776(15) 0.14619(17) 0.2944(2)
C68 C 0.44733(14) 0.03495(16) 0.6359(2)
C69 C 0.51342(16) 0.12944(17) 0.5769(2)
C70 C 0.54373(18) 0.09657(18) 0.4530(2)
H47 H 0.553240 0.086110 0.411301
N27 N 0.49445(15) 0.0256(2) 0.6639(3)
H48 H 0.496549 0.007663 0.698937
H49 H 0.521727 0.037771 0.646196
N28 N 0.49837(19) 0.14698(18) 0.6366(2)
H50 H 0.513959 0.172455 0.654177
H51 H 0.473287 0.132558 0.656568
C71 C 0.50391(18) 0.07223(18) 0.4854(2)
H52 H 0.487441 0.044778 0.465511
C72 C 0.40324(14) 0.01502(16) 0.6650(2)
C73 C 0.35527(14) 0.02364(15) 0.6388(2)
C74 C 0.86639(16) 0.22458(17) 0.3446(3)
H54 H 0.886761 0.253372 0.350730
C75 C 0.39445(18) 0.0708(2) 0.5520(2)
H55 H 0.391372 0.088923 0.513073
C76 C 0.35097(17) 0.0517(2) 0.5810(3)
H56 H 0.319029 0.057410 0.562385
Zn7 Zn 0.750000 0.44448(2) 0.250000
Zn8 Zn 0.750000 0.05552(2) 0.250000
Zn9 Zn 0.55552(2) 0.250000 0.750000
Zn10 Zn 0.94448(2) 0.250000 0.750000
O19 O 0.47525(10) 0.81396(9) 0.22109(13)
N29 N 0.39320(11) 0.77023(10) 0.32023(14)
N32 N 0.39320(11) 0.72977(10) 0.17977(14)
O9 O 0.98794(16) 0.76544(11) 0.3530(2)
C26 C 0.93607(17) 0.94267(15) 0.4212(2)
C27 C 0.99693(15) 0.80790(14) 0.3299(2)
C28 C 0.91184(16) 0.98821(15) 0.4530(2)
C30 C 0.96505(16) 0.94733(14) 0.3641(2)
N13 N 0.9744(2) 0.99445(15) 0.3361(3)
H20 H 0.992337 0.996549 0.301063
N14 N 0.85302(18) 0.99837(19) 0.3634(2)
H23 H 0.867442 0.973287 0.343432
H24 H 0.955222 0.987441 0.534489
C34 C 0.98498(16) 0.90324(14) 0.3350(2)
C35 C 0.97636(15) 0.85527(14) 0.3612(2)
C37 C 0.9292(2) 0.89445(18) 0.4480(2)
H27 H 0.911077 0.891372 0.486927
C38 C 0.9483(2) 0.85097(17) 0.4190(3)
H28 H 0.942590 0.819029 0.437615
O14 O 0.31396(9) 0.97525(10) 0.72109(13)
H53 H 0.406248 0.995557 0.702859
Zn12 Zn 0.250000 0.94448(2) 0.750000
O6_2 O 0.68604(9) 0.02475(10) 0.27891(13)
H25_2 H 0.593752 0.004443 0.297141
O13_2 O 0.01206(16) 0.23456(11) 0.6470(2)
C45_2 C 0.06393(17) 0.05733(15) 0.5788(2)
C46_2 C 0.00307(15) 0.19210(14) 0.6701(2)
C47_2 C 0.08816(16) 0.01179(15) 0.5470(2)
C49_2 C 0.03495(16) 0.05267(14) 0.6359(2)
N20_2 N 0.0256(2) 0.00555(15) 0.6639(3)
H34_2 H 0.007663 0.003451 0.698937
N21_2 N 0.14698(18) 0.00163(19) 0.6366(2)
H37_2 H 0.132558 0.026713 0.656568
H38_2 H 0.044778 0.012559 0.465511
C53_2 C 0.01502(16) 0.09676(14) 0.6650(2)
C54_2 C 0.02364(15) 0.14473(14) 0.6388(2)
C56_2 C 0.0708(2) 0.10555(18) 0.5520(2)
H41_2 H 0.088923 0.108628 0.513073
C57_2 C 0.0517(2) 0.14903(17) 0.5810(3)
H42_2 H 0.057410 0.180971 0.562385
O18_2 O 0.81396(9) 0.02475(10) 0.22109(13)
N31_2 N 0.72977(10) 0.10680(11) 0.17977(14)
Zn1_2 Zn 0.20049(2) 0.71863(2) 0.56120(2)
O1_2 O 0.250000 0.750000 0.500000
O3_2 O 0.14273(10) 0.68982(11) 0.51495(14)
N1_2 N 0.27023(10) 0.60680(11) 0.67977(14)
N2_2 N 0.24540(10) 0.67199(11) 0.61375(15)
O4_2 O 0.12020(12) 0.65518(14) 0.60945(15)
N3_2 N 0.32193(12) 0.72447(12) 0.62285(16)
C1_2 C 0.23376(13) 0.62688(13) 0.64221(17)
H1_2 H 0.202350 0.610861 0.636018
C2_2 C 0.29351(12) 0.68219(13) 0.63593(16)
N4_2 N 0.37865(15) 0.60963(18) 0.7425(3)
H2_2 H 0.408682 0.613890 0.758817
H3_2 H 0.362057 0.581820 0.750062
C3_2 C 0.11322(14) 0.66196(15) 0.55048(19)
N5_2 N 0.38523(15) 0.68960(16) 0.6948(2)
C4_2 C 0.06925(14) 0.63669(15) 0.51667(19)
C5_2 C 0.30937(12) 0.64259(13) 0.67672(18)
C6_2 C 0.05415(15) 0.65291(16) 0.4555(2)
H4_2 H 0.071355 0.679868 0.435612
C10_2 C 0.35776(15) 0.64619(17) 0.7056(2)
C12_2 C 0.01342(16) 0.62944(17) 0.4231(2)
C13_2 C 0.04373(18) 0.59657(18) 0.5470(2)
H5_2 H 0.053240 0.586110 0.588699
H7_2 H 0.021727 0.537771 0.353804
H8_2 H 0.013959 0.672455 0.345823
C14_2 C 0.00391(18) 0.57223(18) 0.5146(2)
C17_2 C 0.36639(16) 0.72458(17) 0.6554(3)
H12_2 H 0.386761 0.753372 0.649270
Zn3_2 Zn 0.29951(2) 0.78137(2) 0.56120(2)
O7_2 O 0.35727(10) 0.81018(11) 0.51495(14)
N8_2 N 0.22977(10) 0.89320(11) 0.67977(14)
N9_2 N 0.25460(10) 0.82801(11) 0.61375(15)
O8_2 O 0.37980(12) 0.84482(14) 0.60945(15)
N10_2 N 0.17807(12) 0.77553(12) 0.62285(16)
O9_2 O 0.73456(11) 0.98794(16) 0.3530(2)
C20_2 C 0.26624(13) 0.87312(13) 0.64221(17)
H15_2 H 0.297650 0.889139 0.636018
C21_2 C 0.20649(12) 0.81781(13) 0.63593(16)
N11_2 N 0.12135(15) 0.89037(18) 0.7425(3)
H16_2 H 0.091318 0.886110 0.758817
H17_2 H 0.137943 0.918180 0.750062
C22_2 C 0.38678(14) 0.83804(15) 0.55048(19)
N12_2 N 0.11477(15) 0.81040(16) 0.6948(2)
C23_2 C 0.43075(14) 0.86331(15) 0.51667(19)
C24_2 C 0.19063(12) 0.85741(13) 0.67672(18)
C25_2 C 0.44585(15) 0.84709(16) 0.4555(2)
H18_2 H 0.428645 0.820132 0.435612
C26_2 C 0.55733(15) 0.93607(17) 0.4212(2)
C27_2 C 0.69210(14) 0.99693(15) 0.3299(2)
C28_2 C 0.51179(15) 0.91184(16) 0.4530(2)
C29_2 C 0.14224(15) 0.85381(17) 0.7056(2)
C30_2 C 0.55267(14) 0.96505(16) 0.3641(2)
C31_2 C 0.48658(16) 0.87056(17) 0.4231(2)
C32_2 C 0.45627(18) 0.90343(18) 0.5470(2)
H19_2 H 0.446760 0.913890 0.588699
N13_2 N 0.50555(15) 0.9744(2) 0.3361(3)
H20_2 H 0.503451 0.992337 0.301063
H21_2 H 0.478273 0.962229 0.353804
N14_2 N 0.50163(19) 0.85302(18) 0.3634(2)
H22_2 H 0.486041 0.827545 0.345823
H23_2 H 0.526713 0.867442 0.343432
C33_2 C 0.49609(18) 0.92777(18) 0.5146(2)
H24_2 H 0.512559 0.955222 0.534489
C34_2 C 0.59676(14) 0.98498(16) 0.3350(2)
C35_2 C 0.64473(14) 0.97636(15) 0.3612(2)
C36_2 C 0.13361(16) 0.77542(17) 0.6554(3)
H26_2 H 0.113239 0.746628 0.649270
C37_2 C 0.60555(18) 0.9292(2) 0.4480(2)
H27_2 H 0.608628 0.911077 0.486927
C38_2 C 0.64903(17) 0.9483(2) 0.4190(3)
H28_2 H 0.680971 0.942590 0.437615
Zn5_2 Zn 0.21863(2) 0.79951(2) 0.43880(2)
O11_2 O 0.18982(11) 0.85727(10) 0.48505(14)
N16_2 N 0.17199(11) 0.75460(10) 0.38625(15)
O12_2 O 0.15518(14) 0.87980(12) 0.39055(15)
N17_2 N 0.22447(12) 0.67807(12) 0.37715(16)
C39_2 C 0.12688(13) 0.76624(13) 0.35779(17)
H29_2 H 0.110861 0.797650 0.363982
C40_2 C 0.18219(13) 0.70649(12) 0.36407(16)
N18_2 N 0.10963(18) 0.62135(15) 0.2575(3)
H30_2 H 0.113890 0.591318 0.241183
H31_2 H 0.081820 0.637943 0.249938
C41_2 C 0.16196(15) 0.88678(14) 0.44952(19)
N19_2 N 0.18960(16) 0.61477(15) 0.3052(2)
C42_2 C 0.13669(15) 0.93075(14) 0.48333(19)
C43_2 C 0.14259(13) 0.69063(12) 0.32328(18)
C44_2 C 0.15291(16) 0.94585(15) 0.5445(2)
H32_2 H 0.179868 0.928645 0.564388
C48_2 C 0.14619(17) 0.64224(15) 0.2944(2)
C50_2 C 0.12944(17) 0.98658(16) 0.5769(2)
C51_2 C 0.09657(18) 0.95627(18) 0.4530(2)
H33_2 H 0.086110 0.946760 0.411301
H35_2 H 0.037771 0.978273 0.646196
H36_2 H 0.172455 0.986041 0.654177
C52_2 C 0.07223(18) 0.99609(18) 0.4854(2)
C55_2 C 0.22458(17) 0.63361(16) 0.3446(3)
H40_2 H 0.253372 0.613239 0.350730
Zn6_2 Zn 0.28137(2) 0.70049(2) 0.43880(2)
O14_2 O 0.52475(10) 0.31396(9) 0.72109(13)
O15_2 O 0.31018(11) 0.64273(10) 0.48505(14)
N23_2 N 0.32801(11) 0.74540(10) 0.38625(15)
O16_2 O 0.34482(14) 0.62020(12) 0.39055(15)
N24_2 N 0.27553(12) 0.82193(12) 0.37715(16)
O17_2 O 0.48794(16) 0.26544(11) 0.6470(2)
C58_2 C 0.37312(13) 0.73376(13) 0.35779(17)
H43_2 H 0.389139 0.702350 0.363982
C59_2 C 0.31781(13) 0.79351(12) 0.36407(16)
N25_2 N 0.39037(18) 0.87865(15) 0.2575(3)
H44_2 H 0.386110 0.908682 0.241183
H45_2 H 0.418180 0.862057 0.249938
C60_2 C 0.33804(15) 0.61322(14) 0.44952(19)
N26_2 N 0.31040(16) 0.88523(15) 0.3052(2)
C61_2 C 0.36331(15) 0.56925(14) 0.48333(19)
C62_2 C 0.35741(13) 0.80937(12) 0.32328(18)
C63_2 C 0.34709(16) 0.55415(15) 0.5445(2)
H46_2 H 0.320132 0.571355 0.564388
C64_2 C 0.43607(17) 0.44267(15) 0.5788(2)
C65_2 C 0.49693(15) 0.30790(14) 0.6701(2)
C66_2 C 0.41184(16) 0.48821(15) 0.5470(2)
C67_2 C 0.35381(17) 0.85776(15) 0.2944(2)
C68_2 C 0.46505(16) 0.44733(14) 0.6359(2)
C69_2 C 0.37056(17) 0.51342(16) 0.5769(2)
C70_2 C 0.40343(18) 0.54373(18) 0.4530(2)
H47_2 H 0.413890 0.553240 0.411301
N27_2 N 0.4744(2) 0.49445(15) 0.6639(3)
H48_2 H 0.492337 0.496549 0.698937
H49_2 H 0.462229 0.521727 0.646196
N28_2 N 0.35302(18) 0.49837(19) 0.6366(2)
H50_2 H 0.327545 0.513959 0.654177
H51_2 H 0.367442 0.473287 0.656568
C71_2 C 0.42777(18) 0.50391(18) 0.4854(2)
H52_2 H 0.455222 0.487441 0.465511
C72_2 C 0.48498(16) 0.40324(14) 0.6650(2)
H53_2 H 0.504443 0.406248 0.702859
C73_2 C 0.47636(15) 0.35527(14) 0.6388(2)
C74_2 C 0.27542(17) 0.86639(16) 0.3446(3)
H54_2 H 0.246628 0.886761 0.350730
C75_2 C 0.4292(2) 0.39445(18) 0.5520(2)
H55_2 H 0.411077 0.391372 0.513073
C76_2 C 0.4483(2) 0.35097(17) 0.5810(3)
H56_2 H 0.442590 0.319029 0.562385
O10_2 O 0.97525(10) 0.18604(9) 0.72109(13)
H39_2 H 0.995557 0.093752 0.702859
O2_2 O 0.81396(9) 0.47525(10) 0.27891(13)
O5_2 O 0.76544(11) 0.51206(16) 0.3530(2)
C7_2 C 0.94267(15) 0.56393(17) 0.4212(2)
C8_2 C 0.80790(14) 0.50307(15) 0.3299(2)
C9_2 C 0.98821(15) 0.58816(16) 0.4530(2)
C11_2 C 0.94733(14) 0.53495(16) 0.3641(2)
N6_2 N 0.99445(15) 0.5256(2) 0.3361(3)
H6_2 H 0.996549 0.507663 0.301063
N7_2 N 0.99837(19) 0.64698(18) 0.3634(2)
H9_2 H 0.973287 0.632558 0.343432
H10_2 H 0.987441 0.544778 0.534489
C15_2 C 0.90324(14) 0.51502(16) 0.3350(2)
H11_2 H 0.906248 0.495557 0.297141
C16_2 C 0.85527(14) 0.52364(15) 0.3612(2)
C18_2 C 0.89445(18) 0.5708(2) 0.4480(2)
H13_2 H 0.891372 0.588923 0.486927
C19_2 C 0.85097(17) 0.5517(2) 0.4190(3)
H14_2 H 0.819029 0.557410 0.437615
O19_2 O 0.68604(9) 0.47525(10) 0.22109(13)
N32_2 N 0.77023(10) 0.39320(11) 0.17977(14)
H11_3 H 0.004443 0.593752 0.202859
H52_3 H 0.012559 0.044778 0.034489
O14_3 O 0.18604(9) 0.97525(10) 0.77891(13)
H53_3 H 0.093752 0.995557 0.797141
O1_3 O 0.750000 0.250000 -0.000000
O5_3 O 0.98794(16) 0.73456(11) 0.1470(2)
C6_3 C 0.84709(16) 0.44585(15) 0.0445(2)
H4_3 H 0.820132 0.428645 0.064388
C7_3 C 0.93607(17) 0.55733(15) 0.0788(2)
C8_3 C 0.99693(15) 0.69210(14) 0.1701(2)
C9_3 C 0.91184(16) 0.51179(15) 0.0470(2)
C11_3 C 0.96505(16) 0.55267(14) 0.1359(2)
C12_3 C 0.87056(17) 0.48658(16) 0.0769(2)
N6_3 N 0.9744(2) 0.50555(15) 0.1639(3)
H6_3 H 0.992337 0.503451 0.198937
H7_3 H 0.962229 0.478273 0.146196
N7_3 N 0.85302(18) 0.50163(19) 0.1366(2)
H8_3 H 0.827545 0.486041 0.154177
H9_3 H 0.867442 0.526713 0.156568
C15_3 C 0.98498(16) 0.59676(14) 0.1650(2)
C16_3 C 0.97636(15) 0.64473(14) 0.1388(2)
C18_3 C 0.9292(2) 0.60555(18) 0.0520(2)
H13_3 H 0.911077 0.608628 0.013073
C19_3 C 0.9483(2) 0.64903(17) 0.0810(3)
H14_3 H 0.942590 0.680971 0.062385
C25_3 C 0.65291(16) 0.05415(15) 0.0445(2)
H18_3 H 0.679868 0.071355 0.064388
C31_3 C 0.62944(17) 0.01342(16) 0.0769(2)
H21_3 H 0.537771 0.021727 0.146196
H22_3 H 0.672455 0.013959 0.154177
Zn5_3 Zn 0.70049(2) 0.28137(2) 0.06120(2)
O11_3 O 0.64273(10) 0.31018(11) 0.01495(14)
N16_3 N 0.74540(10) 0.32801(11) 0.11375(15)
O12_3 O 0.62020(12) 0.34482(14) 0.10945(15)
N17_3 N 0.82193(12) 0.27553(12) 0.12285(16)
C39_3 C 0.73376(13) 0.37312(13) 0.14221(17)
H29_3 H 0.702350 0.389139 0.136018
C40_3 C 0.79351(12) 0.31781(13) 0.13593(16)
N18_3 N 0.87865(15) 0.39037(18) 0.2425(3)
H30_3 H 0.908682 0.386110 0.258817
H31_3 H 0.862057 0.418180 0.250062
C41_3 C 0.61322(14) 0.33804(15) 0.05048(19)
N19_3 N 0.88523(15) 0.31040(16) 0.1948(2)
C42_3 C 0.56925(14) 0.36331(15) 0.01667(19)
C43_3 C 0.80937(12) 0.35741(13) 0.17672(18)
C48_3 C 0.85776(15) 0.35381(17) 0.2056(2)
C51_3 C 0.54373(18) 0.40343(18) 0.0470(2)
H33_3 H 0.553240 0.413890 0.088699
C52_3 C 0.50391(18) 0.42777(18) 0.0146(2)
H38_3 H 0.487441 0.455222 0.034489
C55_3 C 0.86639(16) 0.27542(17) 0.1554(3)
H40_3 H 0.886761 0.246628 0.149270
Zn6_3 Zn 0.79951(2) 0.21863(2) 0.06120(2)
O15_3 O 0.85727(10) 0.18982(11) 0.01495(14)
N23_3 N 0.75460(10) 0.17199(11) 0.11375(15)
O16_3 O 0.87980(12) 0.15518(14) 0.10945(15)
N24_3 N 0.67807(12) 0.22447(12) 0.12285(16)
C58_3 C 0.76624(13) 0.12688(13) 0.14221(17)
H43_3 H 0.797650 0.110861 0.136018
C59_3 C 0.70649(12) 0.18219(13) 0.13593(16)
N25_3 N 0.62135(15) 0.10963(18) 0.2425(3)
H44_3 H 0.591318 0.113890 0.258817
H45_3 H 0.637943 0.081820 0.250062
C60_3 C 0.88678(14) 0.16196(15) 0.05048(19)
N26_3 N 0.61477(15) 0.18960(16) 0.1948(2)
C61_3 C 0.93075(14) 0.13669(15) 0.01667(19)
C62_3 C 0.69063(12) 0.14259(13) 0.17672(18)
C67_3 C 0.64224(15) 0.14619(17) 0.2056(2)
C70_3 C 0.95627(18) 0.09657(18) 0.0470(2)
H47_3 H 0.946760 0.086110 0.088699
C71_3 C 0.99609(18) 0.07223(18) 0.0146(2)
C74_3 C 0.63361(16) 0.22458(17) 0.1554(3)
H54_3 H 0.613239 0.253372 0.149270
Zn1_3 Zn 0.78137(2) 0.29951(2) 0.93880(2)
O1_4 O 0.750000 0.250000 1.000000
O3_3 O 0.81018(11) 0.35727(10) 0.98505(14)
N1_3 N 0.89320(11) 0.22977(10) 0.82023(14)
N2_3 N 0.82801(11) 0.25460(10) 0.88625(15)
O4_3 O 0.84482(14) 0.37980(12) 0.89055(15)
N3_3 N 0.77553(12) 0.17807(12) 0.87715(16)
C1_3 C 0.87312(13) 0.26624(13) 0.85779(17)
H1_3 H 0.889139 0.297650 0.863982
C2_3 C 0.81781(13) 0.20649(12) 0.86407(16)
N4_3 N 0.89037(18) 0.12135(15) 0.7575(3)
H2_3 H 0.886110 0.091318 0.741183
H3_3 H 0.918180 0.137943 0.749938
C3_3 C 0.83804(15) 0.38678(14) 0.94952(19)
N5_3 N 0.81040(16) 0.11477(15) 0.8052(2)
C4_3 C 0.86331(15) 0.43075(14) 0.98333(19)
C5_3 C 0.85741(13) 0.19063(12) 0.82328(18)
C10_3 C 0.85381(17) 0.14224(15) 0.7944(2)
C13_3 C 0.90343(18) 0.45627(18) 0.9530(2)
H5_3 H 0.913890 0.446760 0.911301
C14_3 C 0.92777(18) 0.49609(18) 0.9854(2)
H10_3 H 0.955222 0.512559 0.965511
C17_3 C 0.77542(17) 0.13361(16) 0.8446(3)
H12_3 H 0.746628 0.113239 0.850730
Zn3_3 Zn 0.71863(2) 0.20049(2) 0.93880(2)
O7_3 O 0.68982(11) 0.14273(10) 0.98505(14)
N8_3 N 0.60680(11) 0.27023(10) 0.82023(14)
N9_3 N 0.67199(11) 0.24540(10) 0.88625(15)
O8_3 O 0.65518(14) 0.12020(12) 0.89055(15)
N10_3 N 0.72447(12) 0.32193(12) 0.87715(16)
C20_3 C 0.62688(13) 0.23376(13) 0.85779(17)
H15_3 H 0.610861 0.202350 0.863982
C21_3 C 0.68219(13) 0.29351(12) 0.86407(16)
N11_3 N 0.60963(18) 0.37865(15) 0.7575(3)
H16_3 H 0.613890 0.408682 0.741183
H17_3 H 0.581820 0.362057 0.749938
C22_3 C 0.66196(15) 0.11322(14) 0.94952(19)
N12_3 N 0.68960(16) 0.38523(15) 0.8052(2)
C23_3 C 0.63669(15) 0.06925(14) 0.98333(19)
C24_3 C 0.64259(13) 0.30937(12) 0.82328(18)
C29_3 C 0.64619(17) 0.35776(15) 0.7944(2)
C32_3 C 0.59657(18) 0.04373(18) 0.9530(2)
H19_3 H 0.586110 0.053240 0.911301
C33_3 C 0.57223(18) 0.00391(18) 0.9854(2)
C36_3 C 0.72458(17) 0.36639(16) 0.8446(3)
H26_3 H 0.753372 0.386761 0.850730
O10_3 O 0.31396(9) 0.52475(10) 0.77891(13)
O13_3 O 0.26544(11) 0.48794(16) 0.8530(2)
C44_3 C 0.55415(15) 0.34709(16) 0.9555(2)
H32_3 H 0.571355 0.320132 0.935612
C45_3 C 0.44267(15) 0.43607(17) 0.9212(2)
C46_3 C 0.30790(14) 0.49693(15) 0.8299(2)
C47_3 C 0.48821(15) 0.41184(16) 0.9530(2)
C49_3 C 0.44733(14) 0.46505(16) 0.8641(2)
C50_3 C 0.51342(16) 0.37056(17) 0.9231(2)
N20_3 N 0.49445(15) 0.4744(2) 0.8361(3)
H34_3 H 0.496549 0.492337 0.801063
H35_3 H 0.521727 0.462229 0.853804
N21_3 N 0.49837(19) 0.35302(18) 0.8634(2)
H36_3 H 0.513959 0.327545 0.845823
H37_3 H 0.473287 0.367442 0.843432
C53_3 C 0.40324(14) 0.48498(16) 0.8350(2)
H39_3 H 0.406248 0.504443 0.797141
C54_3 C 0.35527(14) 0.47636(15) 0.8612(2)
C56_3 C 0.39445(18) 0.4292(2) 0.9480(2)
H41_3 H 0.391372 0.411077 0.986927
C57_3 C 0.35097(17) 0.4483(2) 0.9190(3)
H42_3 H 0.319029 0.442590 0.937615
C63_3 C 0.94585(15) 0.15291(16) 0.9555(2)
H46_3 H 0.928645 0.179868 0.935612
C69_3 C 0.98658(16) 0.12944(17) 0.9231(2)
H49_3 H 0.978273 0.037771 0.853804
H50_3 H 0.986041 0.172455 0.845823
O9_3 O 0.51206(16) 0.76544(11) 0.1470(2)
C26_3 C 0.56393(17) 0.94267(15) 0.0788(2)
C27_3 C 0.50307(15) 0.80790(14) 0.1701(2)
C28_3 C 0.58816(16) 0.98821(15) 0.0470(2)
C30_3 C 0.53495(16) 0.94733(14) 0.1359(2)
N13_3 N 0.5256(2) 0.99445(15) 0.1639(3)
H20_3 H 0.507663 0.996549 0.198937
N14_3 N 0.64698(18) 0.99837(19) 0.1366(2)
H23_3 H 0.632558 0.973287 0.156568
C34_3 C 0.51502(16) 0.90324(14) 0.1650(2)
H25_3 H 0.495557 0.906248 0.202859
C35_3 C 0.52364(15) 0.85527(14) 0.1388(2)
C37_3 C 0.5708(2) 0.89445(18) 0.0520(2)
H27_3 H 0.588923 0.891372 0.013073
C38_3 C 0.5517(2) 0.85097(17) 0.0810(3)
H28_3 H 0.557410 0.819029 0.062385
O10_4 O 0.52475(10) 0.18604(9) 0.77891(13)
O13_4 O 0.48794(16) 0.23456(11) 0.8530(2)
C45_4 C 0.43607(17) 0.05733(15) 0.9212(2)
C46_4 C 0.49693(15) 0.19210(14) 0.8299(2)
C47_4 C 0.41184(16) 0.01179(15) 0.9530(2)
C49_4 C 0.46505(16) 0.05267(14) 0.8641(2)
N20_4 N 0.4744(2) 0.00555(15) 0.8361(3)
H34_4 H 0.492337 0.003451 0.801063
N21_4 N 0.35302(18) 0.00163(19) 0.8634(2)
H37_4 H 0.367442 0.026713 0.843432
C53_4 C 0.48498(16) 0.09676(14) 0.8350(2)
H39_4 H 0.504443 0.093752 0.797141
C54_4 C 0.47636(15) 0.14473(14) 0.8612(2)
C56_4 C 0.4292(2) 0.10555(18) 0.9480(2)
H41_4 H 0.411077 0.108628 0.986927
C57_4 C 0.4483(2) 0.14903(17) 0.9190(3)
H42_4 H 0.442590 0.180971 0.937615
O1_5 O 0.250000 0.750000 -0.000000
O5_4 O 0.73456(11) 0.51206(16) 0.1470(2)
C6_4 C 0.44585(15) 0.65291(16) 0.0445(2)
H4_4 H 0.428645 0.679868 0.064388
C7_4 C 0.55733(15) 0.56393(17) 0.0788(2)
C8_4 C 0.69210(14) 0.50307(15) 0.1701(2)
C9_4 C 0.51179(15) 0.58816(16) 0.0470(2)
C11_4 C 0.55267(14) 0.53495(16) 0.1359(2)
C12_4 C 0.48658(16) 0.62944(17) 0.0769(2)
N6_4 N 0.50555(15) 0.5256(2) 0.1639(3)
H6_4 H 0.503451 0.507663 0.198937
H7_4 H 0.478273 0.537771 0.146196
N7_4 N 0.50163(19) 0.64698(18) 0.1366(2)
H8_4 H 0.486041 0.672455 0.154177
H9_4 H 0.526713 0.632558 0.156568
C15_4 C 0.59676(14) 0.51502(16) 0.1650(2)
H11_4 H 0.593752 0.495557 0.202859
C16_4 C 0.64473(14) 0.52364(15) 0.1388(2)
C18_4 C 0.60555(18) 0.5708(2) 0.0520(2)
H13_4 H 0.608628 0.588923 0.013073
C19_4 C 0.64903(17) 0.5517(2) 0.0810(3)
H14_4 H 0.680971 0.557410 0.062385
C25_4 C 0.05415(15) 0.84709(16) 0.0445(2)
H18_4 H 0.071355 0.820132 0.064388
C31_4 C 0.01342(16) 0.87056(17) 0.0769(2)
H21_4 H 0.021727 0.962229 0.146196
H22_4 H 0.013959 0.827545 0.154177
Zn5_4 Zn 0.28137(2) 0.79951(2) 0.06120(2)
O11_4 O 0.31018(11) 0.85727(10) 0.01495(14)
N16_4 N 0.32801(11) 0.75460(10) 0.11375(15)
O12_4 O 0.34482(14) 0.87980(12) 0.10945(15)
N17_4 N 0.27553(12) 0.67807(12) 0.12285(16)
C39_4 C 0.37312(13) 0.76624(13) 0.14221(17)
H29_4 H 0.389139 0.797650 0.136018
C40_4 C 0.31781(13) 0.70649(12) 0.13593(16)
N18_4 N 0.39037(18) 0.62135(15) 0.2425(3)
H30_4 H 0.386110 0.591318 0.258817
H31_4 H 0.418180 0.637943 0.250062
C41_4 C 0.33804(15) 0.88678(14) 0.05048(19)
N19_4 N 0.31040(16) 0.61477(15) 0.1948(2)
C42_4 C 0.36331(15) 0.93075(14) 0.01667(19)
C43_4 C 0.35741(13) 0.69063(12) 0.17672(18)
C48_4 C 0.35381(17) 0.64224(15) 0.2056(2)
C51_4 C 0.40343(18) 0.95627(18) 0.0470(2)
H33_4 H 0.413890 0.946760 0.088699
C52_4 C 0.42777(18) 0.99609(18) 0.0146(2)
C55_4 C 0.27542(17) 0.63361(16) 0.1554(3)
H40_4 H 0.246628 0.613239 0.149270
Zn6_4 Zn 0.21863(2) 0.70049(2) 0.06120(2)
O15_4 O 0.18982(11) 0.64273(10) 0.01495(14)
N23_4 N 0.17199(11) 0.74540(10) 0.11375(15)
O16_4 O 0.15518(14) 0.62020(12) 0.10945(15)
N24_4 N 0.22447(12) 0.82193(12) 0.12285(16)
C58_4 C 0.12688(13) 0.73376(13) 0.14221(17)
H43_4 H 0.110861 0.702350 0.136018
C59_4 C 0.18219(13) 0.79351(12) 0.13593(16)
N25_4 N 0.10963(18) 0.87865(15) 0.2425(3)
H44_4 H 0.113890 0.908682 0.258817
H45_4 H 0.081820 0.862057 0.250062
C60_4 C 0.16196(15) 0.61322(14) 0.05048(19)
N26_4 N 0.18960(16) 0.88523(15) 0.1948(2)
C61_4 C 0.13669(15) 0.56925(14) 0.01667(19)
C62_4 C 0.14259(13) 0.80937(12) 0.17672(18)
C67_4 C 0.14619(17) 0.85776(15) 0.2056(2)
C70_4 C 0.09657(18) 0.54373(18) 0.0470(2)
H47_4 H 0.086110 0.553240 0.088699
C71_4 C 0.07223(18) 0.50391(18) 0.0146(2)
H52_4 H 0.044778 0.487441 0.034489
C74_4 C 0.22458(17) 0.86639(16) 0.1554(3)
H54_4 H 0.253372 0.886761 0.149270
Zn1_4 Zn 0.29951(2) 0.71863(2) 0.93880(2)
O1_6 O 0.250000 0.750000 1.000000
O3_4 O 0.35727(10) 0.68982(11) 0.98505(14)
N1_4 N 0.22977(10) 0.60680(11) 0.82023(14)
N2_4 N 0.25460(10) 0.67199(11) 0.88625(15)
O4_4 O 0.37980(12) 0.65518(14) 0.89055(15)
N3_4 N 0.17807(12) 0.72447(12) 0.87715(16)
C1_4 C 0.26624(13) 0.62688(13) 0.85779(17)
H1_4 H 0.297650 0.610861 0.863982
C2_4 C 0.20649(12) 0.68219(13) 0.86407(16)
N4_4 N 0.12135(15) 0.60963(18) 0.7575(3)
H2_4 H 0.091318 0.613890 0.741183
H3_4 H 0.137943 0.581820 0.749938
C3_4 C 0.38678(14) 0.66196(15) 0.94952(19)
N5_4 N 0.11477(15) 0.68960(16) 0.8052(2)
C4_4 C 0.43075(14) 0.63669(15) 0.98333(19)
C5_4 C 0.19063(12) 0.64259(13) 0.82328(18)
C10_4 C 0.14224(15) 0.64619(17) 0.7944(2)
C13_4 C 0.45627(18) 0.59657(18) 0.9530(2)
H5_4 H 0.446760 0.586110 0.911301
C14_4 C 0.49609(18) 0.57223(18) 0.9854(2)
H10_4 H 0.512559 0.544778 0.965511
C17_4 C 0.13361(16) 0.72458(17) 0.8446(3)
H12_4 H 0.113239 0.753372 0.850730
Zn3_4 Zn 0.20049(2) 0.78137(2) 0.93880(2)
O7_4 O 0.14273(10) 0.81018(11) 0.98505(14)
N8_4 N 0.27023(10) 0.89320(11) 0.82023(14)
N9_4 N 0.24540(10) 0.82801(11) 0.88625(15)
O8_4 O 0.12020(12) 0.84482(14) 0.89055(15)
N10_4 N 0.32193(12) 0.77553(12) 0.87715(16)
C20_4 C 0.23376(13) 0.87312(13) 0.85779(17)
H15_4 H 0.202350 0.889139 0.863982
C21_4 C 0.29351(12) 0.81781(13) 0.86407(16)
N11_4 N 0.37865(15) 0.89037(18) 0.7575(3)
H16_4 H 0.408682 0.886110 0.741183
H17_4 H 0.362057 0.918180 0.749938
C22_4 C 0.11322(14) 0.83804(15) 0.94952(19)
N12_4 N 0.38523(15) 0.81040(16) 0.8052(2)
C23_4 C 0.06925(14) 0.86331(15) 0.98333(19)
C24_4 C 0.30937(12) 0.85741(13) 0.82328(18)
C29_4 C 0.35776(15) 0.85381(17) 0.7944(2)
C32_4 C 0.04373(18) 0.90343(18) 0.9530(2)
H19_4 H 0.053240 0.913890 0.911301
C33_4 C 0.00391(18) 0.92777(18) 0.9854(2)
C36_4 C 0.36639(16) 0.77542(17) 0.8446(3)
H26_4 H 0.386761 0.746628 0.850730
C44_4 C 0.34709(16) 0.94585(15) 0.9555(2)
H32_4 H 0.320132 0.928645 0.935612
C50_4 C 0.37056(17) 0.98658(16) 0.9231(2)
H35_4 H 0.462229 0.978273 0.853804
H36_4 H 0.327545 0.986041 0.845823
O17_3 O 0.01206(16) 0.26544(11) 0.8530(2)
C63_4 C 0.15291(16) 0.55415(15) 0.9555(2)
H46_4 H 0.179868 0.571355 0.935612
C64_3 C 0.06393(17) 0.44267(15) 0.9212(2)
C65_3 C 0.00307(15) 0.30790(14) 0.8299(2)
C66_3 C 0.08816(16) 0.48821(15) 0.9530(2)
C68_3 C 0.03495(16) 0.44733(14) 0.8641(2)
C69_4 C 0.12944(17) 0.51342(16) 0.9231(2)
N27_3 N 0.0256(2) 0.49445(15) 0.8361(3)
H48_3 H 0.007663 0.496549 0.801063
H49_4 H 0.037771 0.521727 0.853804
N28_3 N 0.14698(18) 0.49837(19) 0.8634(2)
H50_4 H 0.172455 0.513959 0.845823
H51_3 H 0.132558 0.473287 0.843432
C72_3 C 0.01502(16) 0.40324(14) 0.8350(2)
C73_3 C 0.02364(15) 0.35527(14) 0.8612(2)
C75_3 C 0.0708(2) 0.39445(18) 0.9480(2)
H55_3 H 0.088923 0.391372 0.986927
C76_3 C 0.0517(2) 0.35097(17) 0.9190(3)
H56_3 H 0.057410 0.319029 0.937615
H25_4 H 0.906248 0.004443 0.202859
H24_3 H 0.987441 0.955222 0.965511
O14_4 O 0.97525(10) 0.31396(9) 0.77891(13)
H53_4 H 0.995557 0.406248 0.797141
O17_4 O 0.23456(11) 0.01206(16) 0.8530(2)
C64_4 C 0.05733(15) 0.06393(17) 0.9212(2)
C65_4 C 0.19210(14) 0.00307(15) 0.8299(2)
C66_4 C 0.01179(15) 0.08816(16) 0.9530(2)
C68_4 C 0.05267(14) 0.03495(16) 0.8641(2)
N27_4 N 0.00555(15) 0.0256(2) 0.8361(3)
H48_4 H 0.003451 0.007663 0.801063
N28_4 N 0.00163(19) 0.14698(18) 0.8634(2)
H51_4 H 0.026713 0.132558 0.843432
C72_4 C 0.09676(14) 0.01502(16) 0.8350(2)
C73_4 C 0.14473(14) 0.02364(15) 0.8612(2)
C75_4 C 0.10555(18) 0.0708(2) 0.9480(2)
H55_4 H 0.108628 0.088923 0.986927
C76_4 C 0.14903(17) 0.0517(2) 0.9190(3)
H56_4 H 0.180971 0.057410 0.937615
H24_4 H 0.544778 0.987441 0.965511
H38_4 H 0.455222 0.012559 0.034489
O9_4 O 0.76544(11) 0.98794(16) 0.1470(2)
C26_4 C 0.94267(15) 0.93607(17) 0.0788(2)
C27_4 C 0.80790(14) 0.99693(15) 0.1701(2)
C28_4 C 0.98821(15) 0.91184(16) 0.0470(2)
C30_4 C 0.94733(14) 0.96505(16) 0.1359(2)
N13_4 N 0.99445(15) 0.9744(2) 0.1639(3)
H20_4 H 0.996549 0.992337 0.198937
N14_4 N 0.99837(19) 0.85302(18) 0.1366(2)
H23_4 H 0.973287 0.867442 0.156568
C34_4 C 0.90324(14) 0.98498(16) 0.1650(2)
C35_4 C 0.85527(14) 0.97636(15) 0.1388(2)
C37_4 C 0.89445(18) 0.9292(2) 0.0520(2)
H27_4 H 0.891372 0.911077 0.013073
C38_4 C 0.85097(17) 0.9483(2) 0.0810(3)
H28_4 H 0.819029 0.942590 0.062385
loop_
_geom_bond_atom_site_label_1
_geom_bond_atom_site_label_2
_geom_bond_site_symmetry_1
_geom_bond_site_symmetry_2
O10 C46 1_555 1_555
O13 C46 1_555 1_555
C45 C47 1_555 1_555
C46 C54 1_555 1_555
C49 C45 1_555 1_555
N20 C49 1_555 1_555
H34 N20 1_555 1_555
H37 N21 1_555 1_555
C53 C49 1_555 1_555
H39 C53 1_555 1_555
C54 C53 1_555 1_555
C56 C45 1_555 1_555
H41 C56 1_555 1_555
C57 C54 1_555 1_555
H42 C57 1_555 1_555
Zn11 O10 1_555 1_555
C56 C57 1_555 1_555
Zn4 O6 1_555 1_555
O18 Zn4 1_555 1_555
N30 Zn4 1_555 1_555
N31 Zn4 1_555 1_555
Zn1 O1 1_555 1_555
Zn2 O2 1_555 1_555
O1 Zn3 1_555 1_555
O2 C8 1_555 1_555
O3 Zn1 1_555 1_555
N1 C1 1_555 1_555
N2 Zn1 1_555 1_555
O4 C3 1_555 1_555
N3 C2 1_555 1_555
O5 C8 1_555 1_555
C1 N2 1_555 1_555
H1 C1 1_555 1_555
C2 N2 1_555 1_555
N4 H2 1_555 1_555
H3 N4 1_555 1_555
C3 O3 1_555 1_555
N5 C10 1_555 1_555
C4 C3 1_555 1_555
C5 N1 1_555 1_555
C6 C4 1_555 1_555
H4 C6 1_555 1_555
C7 C9 1_555 1_555
C8 C16 1_555 1_555
C9 C12 1_555 1_555
C10 N4 1_555 1_555
C11 C7 1_555 1_555
C12 C6 1_555 1_555
C13 C4 1_555 1_555
H5 C13 1_555 1_555
N6 C11 1_555 1_555
H6 N6 1_555 1_555
H7 N6 1_555 1_555
N7 C12 1_555 1_555
H8 N7 1_555 1_555
H9 N7 1_555 1_555
C14 C9 1_555 1_555
H10 C14 1_555 1_555
C15 C11 1_555 1_555
H11 C15 1_555 1_555
C16 C15 1_555 1_555
C17 N3 1_555 1_555
H12 C17 1_555 1_555
C18 C7 1_555 1_555
H13 C18 1_555 1_555
C19 C16 1_555 1_555
H14 C19 1_555 1_555
Zn3 N3 1_555 1_555
O7 Zn3 1_555 1_555
N8 C20 1_555 1_555
N9 Zn3 1_555 1_555
O8 C22 1_555 1_555
N10 Zn1 1_555 1_555
C20 N9 1_555 1_555
H15 C20 1_555 1_555
C21 N9 1_555 1_555
N11 H16 1_555 1_555
H17 N11 1_555 1_555
C22 O7 1_555 1_555
N12 C29 1_555 1_555
C23 C22 1_555 1_555
C24 N8 1_555 1_555
C25 C23 1_555 1_555
H18 C25 1_555 1_555
C29 N11 1_555 1_555
C31 C25 1_555 1_555
C32 C23 1_555 1_555
H19 C32 1_555 1_555
C36 N10 1_555 1_555
H26 C36 1_555 1_555
Zn5 O1 1_555 1_555
O11 Zn5 1_555 1_555
N15 C39 1_555 1_555
N16 Zn5 1_555 1_555
O12 C41 1_555 1_555
N17 C40 1_555 1_555
C39 N16 1_555 1_555
H29 C39 1_555 1_555
C40 N16 1_555 1_555
N18 H30 1_555 1_555
H31 N18 1_555 1_555
C41 O11 1_555 1_555
N19 C48 1_555 1_555
C42 C41 1_555 1_555
C43 N15 1_555 1_555
C44 C42 1_555 1_555
H32 C44 1_555 1_555
C48 N18 1_555 1_555
C50 C44 1_555 1_555
C51 C42 1_555 1_555
H33 C51 1_555 1_555
C55 N17 1_555 1_555
H40 C55 1_555 1_555
Zn6 O1 1_555 1_555
O15 Zn6 1_555 1_555
N22 C58 1_555 1_555
N23 Zn6 1_555 1_555
O16 C60 1_555 1_555
N24 Zn5 1_555 1_555
O17 C65 1_555 1_555
C58 N23 1_555 1_555
H43 C58 1_555 1_555
C59 N23 1_555 1_555
N25 H44 1_555 1_555
H45 N25 1_555 1_555
C60 O15 1_555 1_555
N26 C67 1_555 1_555
C61 C60 1_555 1_555
C62 N22 1_555 1_555
C63 C61 1_555 1_555
H46 C63 1_555 1_555
C64 C66 1_555 1_555
C65 C73 1_555 1_555
C66 C69 1_555 1_555
C67 N25 1_555 1_555
C68 C64 1_555 1_555
C69 C63 1_555 1_555
C70 C61 1_555 1_555
H47 C70 1_555 1_555
N27 C68 1_555 1_555
H48 N27 1_555 1_555
H49 N27 1_555 1_555
N28 C69 1_555 1_555
H50 N28 1_555 1_555
H51 N28 1_555 1_555
C71 C66 1_555 1_555
H52 C71 1_555 1_555
C72 C68 1_555 1_555
C73 C72 1_555 1_555
C74 N24 1_555 1_555
H54 C74 1_555 1_555
C75 C64 1_555 1_555
H55 C75 1_555 1_555
C76 C73 1_555 1_555
H56 C76 1_555 1_555
Zn7 N15 1_555 1_555
Zn8 N22 1_555 1_555
Zn9 N1 1_555 1_555
Zn10 N8 1_555 1_555
O19 Zn2 1_555 1_555
N29 Zn2 1_555 1_555
N32 Zn2 1_555 1_555
C2 C5 1_555 1_555
N5 C17 1_555 1_555
C5 C10 1_555 1_555
C13 C14 1_555 1_555
C18 C19 1_555 1_555
N10 C21 1_555 1_555
C21 C24 1_555 1_555
N12 C36 1_555 1_555
C24 C29 1_555 1_555
C32 C33 1_555 1_555
N17 Zn6 1_555 1_555
C40 C43 1_555 1_555
N19 C55 1_555 1_555
C43 C48 1_555 1_555
C51 C52 1_555 1_555
N24 C59 1_555 1_555
C59 C62 1_555 1_555
N26 C74 1_555 1_555
C62 C67 1_555 1_555
C70 C71 1_555 1_555
C75 C76 1_555 1_555
O9 C27 1_555 1_555
C26 C28 1_555 1_555
C27 C35 1_555 1_555
C30 C26 1_555 1_555
N13 C30 1_555 1_555
H20 N13 1_555 1_555
H23 N14 1_555 1_555
C34 C30 1_555 1_555
C35 C34 1_555 1_555
C37 C26 1_555 1_555
H27 C37 1_555 1_555
C38 C35 1_555 1_555
H28 C38 1_555 1_555
Zn12 O14 1_555 1_555
C37 C38 1_555 1_555
Zn8 O6_2 1_555 1_555
O13_2 C46_2 1_555 1_555
C45_2 C47_2 1_555 1_555
C46_2 C54_2 1_555 1_555
C49_2 C45_2 1_555 1_555
N20_2 C49_2 1_555 1_555
H34_2 N20_2 1_555 1_555
H37_2 N21_2 1_555 1_555
C53_2 C49_2 1_555 1_555
C54_2 C53_2 1_555 1_555
C56_2 C45_2 1_555 1_555
H41_2 C56_2 1_555 1_555
C57_2 C54_2 1_555 1_555
H42_2 C57_2 1_555 1_555
O18_2 Zn8 1_555 1_555
N31_2 Zn8 1_555 1_555
C56_2 C57_2 1_555 1_555
Zn1_2 O1_2 1_555 1_555
O1_2 Zn3_2 1_555 1_555
O3_2 Zn1_2 1_555 1_555
N1_2 C1_2 1_555 1_555
N2_2 Zn1_2 1_555 1_555
O4_2 C3_2 1_555 1_555
N3_2 C2_2 1_555 1_555
C1_2 N2_2 1_555 1_555
H1_2 C1_2 1_555 1_555
C2_2 N2_2 1_555 1_555
N4_2 H2_2 1_555 1_555
H3_2 N4_2 1_555 1_555
C3_2 O3_2 1_555 1_555
N5_2 C10_2 1_555 1_555
C4_2 C3_2 1_555 1_555
C5_2 N1_2 1_555 1_555
C6_2 C4_2 1_555 1_555
H4_2 C6_2 1_555 1_555
C10_2 N4_2 1_555 1_555
C12_2 C6_2 1_555 1_555
C13_2 C4_2 1_555 1_555
H5_2 C13_2 1_555 1_555
C17_2 N3_2 1_555 1_555
H12_2 C17_2 1_555 1_555
Zn3_2 N3_2 1_555 1_555
O7_2 Zn3_2 1_555 1_555
N8_2 C20_2 1_555 1_555
N9_2 Zn3_2 1_555 1_555
O8_2 C22_2 1_555 1_555
N10_2 Zn1_2 1_555 1_555
O9_2 C27_2 1_555 1_555
C20_2 N9_2 1_555 1_555
H15_2 C20_2 1_555 1_555
C21_2 N9_2 1_555 1_555
N11_2 H16_2 1_555 1_555
H17_2 N11_2 1_555 1_555
C22_2 O7_2 1_555 1_555
N12_2 C29_2 1_555 1_555
C23_2 C22_2 1_555 1_555
C24_2 N8_2 1_555 1_555
C25_2 C23_2 1_555 1_555
H18_2 C25_2 1_555 1_555
C26_2 C28_2 1_555 1_555
C27_2 C35_2 1_555 1_555
C28_2 C31_2 1_555 1_555
C29_2 N11_2 1_555 1_555
C30_2 C26_2 1_555 1_555
C31_2 C25_2 1_555 1_555
C32_2 C23_2 1_555 1_555
H19_2 C32_2 1_555 1_555
N13_2 C30_2 1_555 1_555
H20_2 N13_2 1_555 1_555
H21_2 N13_2 1_555 1_555
N14_2 C31_2 1_555 1_555
H22_2 N14_2 1_555 1_555
H23_2 N14_2 1_555 1_555
C33_2 C28_2 1_555 1_555
H24_2 C33_2 1_555 1_555
C34_2 C30_2 1_555 1_555
C35_2 C34_2 1_555 1_555
C36_2 N10_2 1_555 1_555
H26_2 C36_2 1_555 1_555
C37_2 C26_2 1_555 1_555
H27_2 C37_2 1_555 1_555
C38_2 C35_2 1_555 1_555
H28_2 C38_2 1_555 1_555
Zn5_2 O1_2 1_555 1_555
O11_2 Zn5_2 1_555 1_555
N30 C39_2 1_555 1_555
N16_2 Zn5_2 1_555 1_555
O12_2 C41_2 1_555 1_555
N17_2 C40_2 1_555 1_555
C39_2 N16_2 1_555 1_555
H29_2 C39_2 1_555 1_555
C40_2 N16_2 1_555 1_555
N18_2 H30_2 1_555 1_555
H31_2 N18_2 1_555 1_555
C41_2 O11_2 1_555 1_555
N19_2 C48_2 1_555 1_555
C42_2 C41_2 1_555 1_555
C43_2 N30 1_555 1_555
C44_2 C42_2 1_555 1_555
H32_2 C44_2 1_555 1_555
C48_2 N18_2 1_555 1_555
C50_2 C44_2 1_555 1_555
C51_2 C42_2 1_555 1_555
H33_2 C51_2 1_555 1_555
C55_2 N17_2 1_555 1_555
H40_2 C55_2 1_555 1_555
Zn6_2 O1_2 1_555 1_555
O14_2 C65_2 1_555 1_555
O15_2 Zn6_2 1_555 1_555
N29 C58_2 1_555 1_555
N23_2 Zn6_2 1_555 1_555
O16_2 C60_2 1_555 1_555
N24_2 Zn5_2 1_555 1_555
O17_2 C65_2 1_555 1_555
C58_2 N23_2 1_555 1_555
H43_2 C58_2 1_555 1_555
C59_2 N23_2 1_555 1_555
N25_2 H44_2 1_555 1_555
H45_2 N25_2 1_555 1_555
C60_2 O15_2 1_555 1_555
N26_2 C67_2 1_555 1_555
C61_2 C60_2 1_555 1_555
C62_2 N29 1_555 1_555
C63_2 C61_2 1_555 1_555
H46_2 C63_2 1_555 1_555
C64_2 C66_2 1_555 1_555
C65_2 C73_2 1_555 1_555
C66_2 C69_2 1_555 1_555
C67_2 N25_2 1_555 1_555
C68_2 C64_2 1_555 1_555
C69_2 C63_2 1_555 1_555
C70_2 C61_2 1_555 1_555
H47_2 C70_2 1_555 1_555
N27_2 C68_2 1_555 1_555
H48_2 N27_2 1_555 1_555
H49_2 N27_2 1_555 1_555
N28_2 C69_2 1_555 1_555
H50_2 N28_2 1_555 1_555
H51_2 N28_2 1_555 1_555
C71_2 C66_2 1_555 1_555
H52_2 C71_2 1_555 1_555
C72_2 C68_2 1_555 1_555
H53_2 C72_2 1_555 1_555
C73_2 C72_2 1_555 1_555
C74_2 N24_2 1_555 1_555
H54_2 C74_2 1_555 1_555
C75_2 C64_2 1_555 1_555
H55_2 C75_2 1_555 1_555
C76_2 C73_2 1_555 1_555
H56_2 C76_2 1_555 1_555
Zn11 N1_2 1_555 1_555
Zn12 N8_2 1_555 1_555
Zn9 O14_2 1_555 1_555
C2_2 C5_2 1_555 1_555
N5_2 C17_2 1_555 1_555
C5_2 C10_2 1_555 1_555
C13_2 C14_2 1_555 1_555
N10_2 C21_2 1_555 1_555
C21_2 C24_2 1_555 1_555
N12_2 C36_2 1_555 1_555
C24_2 C29_2 1_555 1_555
C32_2 C33_2 1_555 1_555
C37_2 C38_2 1_555 1_555
N17_2 Zn6_2 1_555 1_555
C40_2 C43_2 1_555 1_555
N19_2 C55_2 1_555 1_555
C43_2 C48_2 1_555 1_555
C51_2 C52_2 1_555 1_555
N24_2 C59_2 1_555 1_555
C59_2 C62_2 1_555 1_555
N26_2 C74_2 1_555 1_555
C62_2 C67_2 1_555 1_555
C70_2 C71_2 1_555 1_555
C75_2 C76_2 1_555 1_555
Zn10 O10_2 1_555 1_555
Zn7 O2_2 1_555 1_555
O2_2 C8_2 1_555 1_555
O5_2 C8_2 1_555 1_555
C7_2 C9_2 1_555 1_555
C8_2 C16_2 1_555 1_555
C11_2 C7_2 1_555 1_555
N6_2 C11_2 1_555 1_555
H6_2 N6_2 1_555 1_555
H9_2 N7_2 1_555 1_555
C15_2 C11_2 1_555 1_555
H11_2 C15_2 1_555 1_555
C16_2 C15_2 1_555 1_555
C18_2 C7_2 1_555 1_555
H13_2 C18_2 1_555 1_555
C19_2 C16_2 1_555 1_555
H14_2 C19_2 1_555 1_555
O19_2 Zn7 1_555 1_555
N32_2 Zn7 1_555 1_555
C18_2 C19_2 1_555 1_555
Zn12 O14_3 1_555 1_555
O5_3 C8_3 1_555 1_555
H4_3 C6_3 1_555 1_555
C7_3 C9_3 1_555 1_555
C8_3 C16_3 1_555 1_555
C9_3 C12_3 1_555 1_555
C11_3 C7_3 1_555 1_555
C12_3 C6_3 1_555 1_555
N6_3 C11_3 1_555 1_555
H6_3 N6_3 1_555 1_555
H7_3 N6_3 1_555 1_555
N7_3 C12_3 1_555 1_555
H8_3 N7_3 1_555 1_555
H9_3 N7_3 1_555 1_555
C15_3 C11_3 1_555 1_555
C16_3 C15_3 1_555 1_555
C18_3 C7_3 1_555 1_555
H13_3 C18_3 1_555 1_555
C19_3 C16_3 1_555 1_555
H14_3 C19_3 1_555 1_555
H18_3 C25_3 1_555 1_555
C31_3 C25_3 1_555 1_555
Zn5_3 O1_3 1_555 1_555
O11_3 Zn5_3 1_555 1_555
N32_2 C39_3 1_555 1_555
N16_3 Zn5_3 1_555 1_555
O12_3 C41_3 1_555 1_555
N17_3 C40_3 1_555 1_555
C39_3 N16_3 1_555 1_555
H29_3 C39_3 1_555 1_555
C40_3 N16_3 1_555 1_555
N18_3 H30_3 1_555 1_555
H31_3 N18_3 1_555 1_555
C41_3 O11_3 1_555 1_555
N19_3 C48_3 1_555 1_555
C42_3 C41_3 1_555 1_555
C43_3 N32_2 1_555 1_555
C48_3 N18_3 1_555 1_555
C51_3 C42_3 1_555 1_555
H33_3 C51_3 1_555 1_555
H38_3 C52_3 1_555 1_555
C55_3 N17_3 1_555 1_555
H40_3 C55_3 1_555 1_555
Zn6_3 O1_3 1_555 1_555
O15_3 Zn6_3 1_555 1_555
N31_2 C58_3 1_555 1_555
N23_3 Zn6_3 1_555 1_555
O16_3 C60_3 1_555 1_555
N24_3 Zn5_3 1_555 1_555
C58_3 N23_3 1_555 1_555
H43_3 C58_3 1_555 1_555
C59_3 N23_3 1_555 1_555
N25_3 H44_3 1_555 1_555
H45_3 N25_3 1_555 1_555
C60_3 O15_3 1_555 1_555
N26_3 C67_3 1_555 1_555
C61_3 C60_3 1_555 1_555
C62_3 N31_2 1_555 1_555
C67_3 N25_3 1_555 1_555
C70_3 C61_3 1_555 1_555
H47_3 C70_3 1_555 1_555
C74_3 N24_3 1_555 1_555
H54_3 C74_3 1_555 1_555
C18_3 C19_3 1_555 1_555
N17_3 Zn6_3 1_555 1_555
C40_3 C43_3 1_555 1_555
N19_3 C55_3 1_555 1_555
C43_3 C48_3 1_555 1_555
C51_3 C52_3 1_555 1_555
N24_3 C59_3 1_555 1_555
C59_3 C62_3 1_555 1_555
N26_3 C74_3 1_555 1_555
C62_3 C67_3 1_555 1_555
C70_3 C71_3 1_555 1_555
Zn1_3 O1_4 1_555 1_555
O1_4 Zn3_3 1_555 1_555
O3_3 Zn1_3 1_555 1_555
N1_3 C1_3 1_555 1_555
N2_3 Zn1_3 1_555 1_555
O4_3 C3_3 1_555 1_555
N3_3 C2_3 1_555 1_555
C1_3 N2_3 1_555 1_555
H1_3 C1_3 1_555 1_555
C2_3 N2_3 1_555 1_555
N4_3 H2_3 1_555 1_555
H3_3 N4_3 1_555 1_555
C3_3 O3_3 1_555 1_555
N5_3 C10_3 1_555 1_555
C4_3 C3_3 1_555 1_555
C5_3 N1_3 1_555 1_555
C10_3 N4_3 1_555 1_555
C13_3 C4_3 1_555 1_555
H5_3 C13_3 1_555 1_555
H10_3 C14_3 1_555 1_555
C17_3 N3_3 1_555 1_555
H12_3 C17_3 1_555 1_555
Zn3_3 N3_3 1_555 1_555
O7_3 Zn3_3 1_555 1_555
N8_3 C20_3 1_555 1_555
N9_3 Zn3_3 1_555 1_555
O8_3 C22_3 1_555 1_555
N10_3 Zn1_3 1_555 1_555
C20_3 N9_3 1_555 1_555
H15_3 C20_3 1_555 1_555
C21_3 N9_3 1_555 1_555
N11_3 H16_3 1_555 1_555
H17_3 N11_3 1_555 1_555
C22_3 O7_3 1_555 1_555
N12_3 C29_3 1_555 1_555
C23_3 C22_3 1_555 1_555
C24_3 N8_3 1_555 1_555
C29_3 N11_3 1_555 1_555
C32_3 C23_3 1_555 1_555
H19_3 C32_3 1_555 1_555
C36_3 N10_3 1_555 1_555
H26_3 C36_3 1_555 1_555
O10_3 C46_3 1_555 1_555
O13_3 C46_3 1_555 1_555
H32_3 C44_3 1_555 1_555
C45_3 C47_3 1_555 1_555
C46_3 C54_3 1_555 1_555
C47_3 C50_3 1_555 1_555
C49_3 C45_3 1_555 1_555
C50_3 C44_3 1_555 1_555
N20_3 C49_3 1_555 1_555
H34_3 N20_3 1_555 1_555
H35_3 N20_3 1_555 1_555
N21_3 C50_3 1_555 1_555
H36_3 N21_3 1_555 1_555
H37_3 N21_3 1_555 1_555
C53_3 C49_3 1_555 1_555
H39_3 C53_3 1_555 1_555
C54_3 C53_3 1_555 1_555
C56_3 C45_3 1_555 1_555
H41_3 C56_3 1_555 1_555
C57_3 C54_3 1_555 1_555
H42_3 C57_3 1_555 1_555
H46_3 C63_3 1_555 1_555
C69_3 C63_3 1_555 1_555
Zn10 N1_3 1_555 1_555
Zn9 N8_3 1_555 1_555
Zn11 O10_3 1_555 1_555
C2_3 C5_3 1_555 1_555
N5_3 C17_3 1_555 1_555
C5_3 C10_3 1_555 1_555
C13_3 C14_3 1_555 1_555
N10_3 C21_3 1_555 1_555
C21_3 C24_3 1_555 1_555
N12_3 C36_3 1_555 1_555
C24_3 C29_3 1_555 1_555
C32_3 C33_3 1_555 1_555
C56_3 C57_3 1_555 1_555
O19 C27_3 1_555 1_555
O9_3 C27_3 1_555 1_555
C26_3 C28_3 1_555 1_555
C27_3 C35_3 1_555 1_555
C30_3 C26_3 1_555 1_555
N13_3 C30_3 1_555 1_555
H20_3 N13_3 1_555 1_555
H23_3 N14_3 1_555 1_555
C34_3 C30_3 1_555 1_555
H25_3 C34_3 1_555 1_555
C35_3 C34_3 1_555 1_555
C37_3 C26_3 1_555 1_555
H27_3 C37_3 1_555 1_555
C38_3 C35_3 1_555 1_555
H28_3 C38_3 1_555 1_555
C37_3 C38_3 1_555 1_555
O10_4 C46_4 1_555 1_555
O13_4 C46_4 1_555 1_555
C45_4 C47_4 1_555 1_555
C46_4 C54_4 1_555 1_555
C49_4 C45_4 1_555 1_555
N20_4 C49_4 1_555 1_555
H34_4 N20_4 1_555 1_555
H37_4 N21_4 1_555 1_555
C53_4 C49_4 1_555 1_555
H39_4 C53_4 1_555 1_555
C54_4 C53_4 1_555 1_555
C56_4 C45_4 1_555 1_555
H41_4 C56_4 1_555 1_555
C57_4 C54_4 1_555 1_555
H42_4 C57_4 1_555 1_555
Zn9 O10_4 1_555 1_555
C56_4 C57_4 1_555 1_555
O19_2 C8_4 1_555 1_555
O5_4 C8_4 1_555 1_555
H4_4 C6_4 1_555 1_555
C7_4 C9_4 1_555 1_555
C8_4 C16_4 1_555 1_555
C9_4 C12_4 1_555 1_555
C11_4 C7_4 1_555 1_555
C12_4 C6_4 1_555 1_555
N6_4 C11_4 1_555 1_555
H6_4 N6_4 1_555 1_555
H7_4 N6_4 1_555 1_555
N7_4 C12_4 1_555 1_555
H8_4 N7_4 1_555 1_555
H9_4 N7_4 1_555 1_555
C15_4 C11_4 1_555 1_555
H11_4 C15_4 1_555 1_555
C16_4 C15_4 1_555 1_555
C18_4 C7_4 1_555 1_555
H13_4 C18_4 1_555 1_555
C19_4 C16_4 1_555 1_555
H14_4 C19_4 1_555 1_555
H18_4 C25_4 1_555 1_555
C31_4 C25_4 1_555 1_555
Zn5_4 O1_5 1_555 1_555
O11_4 Zn5_4 1_555 1_555
N32 C39_4 1_555 1_555
N16_4 Zn5_4 1_555 1_555
O12_4 C41_4 1_555 1_555
N17_4 C40_4 1_555 1_555
C39_4 N16_4 1_555 1_555
H29_4 C39_4 1_555 1_555
C40_4 N16_4 1_555 1_555
N18_4 H30_4 1_555 1_555
H31_4 N18_4 1_555 1_555
C41_4 O11_4 1_555 1_555
N19_4 C48_4 1_555 1_555
C42_4 C41_4 1_555 1_555
C43_4 N32 1_555 1_555
C48_4 N18_4 1_555 1_555
C51_4 C42_4 1_555 1_555
H33_4 C51_4 1_555 1_555
C55_4 N17_4 1_555 1_555
H40_4 C55_4 1_555 1_555
Zn6_4 O1_5 1_555 1_555
O15_4 Zn6_4 1_555 1_555
N31 C58_4 1_555 1_555
N23_4 Zn6_4 1_555 1_555
O16_4 C60_4 1_555 1_555
N24_4 Zn5_4 1_555 1_555
C58_4 N23_4 1_555 1_555
H43_4 C58_4 1_555 1_555
C59_4 N23_4 1_555 1_555
N25_4 H44_4 1_555 1_555
H45_4 N25_4 1_555 1_555
C60_4 O15_4 1_555 1_555
N26_4 C67_4 1_555 1_555
C61_4 C60_4 1_555 1_555
C62_4 N31 1_555 1_555
C67_4 N25_4 1_555 1_555
C70_4 C61_4 1_555 1_555
H47_4 C70_4 1_555 1_555
H52_4 C71_4 1_555 1_555
C74_4 N24_4 1_555 1_555
H54_4 C74_4 1_555 1_555
C18_4 C19_4 1_555 1_555
N17_4 Zn6_4 1_555 1_555
C40_4 C43_4 1_555 1_555
N19_4 C55_4 1_555 1_555
C43_4 C48_4 1_555 1_555
C51_4 C52_4 1_555 1_555
N24_4 C59_4 1_555 1_555
C59_4 C62_4 1_555 1_555
N26_4 C74_4 1_555 1_555
C62_4 C67_4 1_555 1_555
C70_4 C71_4 1_555 1_555
Zn1_4 O1_6 1_555 1_555
O1_6 Zn3_4 1_555 1_555
O3_4 Zn1_4 1_555 1_555
N1_4 C1_4 1_555 1_555
N2_4 Zn1_4 1_555 1_555
O4_4 C3_4 1_555 1_555
N3_4 C2_4 1_555 1_555
C1_4 N2_4 1_555 1_555
H1_4 C1_4 1_555 1_555
C2_4 N2_4 1_555 1_555
N4_4 H2_4 1_555 1_555
H3_4 N4_4 1_555 1_555
C3_4 O3_4 1_555 1_555
N5_4 C10_4 1_555 1_555
C4_4 C3_4 1_555 1_555
C5_4 N1_4 1_555 1_555
C10_4 N4_4 1_555 1_555
C13_4 C4_4 1_555 1_555
H5_4 C13_4 1_555 1_555
H10_4 C14_4 1_555 1_555
C17_4 N3_4 1_555 1_555
H12_4 C17_4 1_555 1_555
Zn3_4 N3_4 1_555 1_555
O7_4 Zn3_4 1_555 1_555
N8_4 C20_4 1_555 1_555
N9_4 Zn3_4 1_555 1_555
O8_4 C22_4 1_555 1_555
N10_4 Zn1_4 1_555 1_555
C20_4 N9_4 1_555 1_555
H15_4 C20_4 1_555 1_555
C21_4 N9_4 1_555 1_555
N11_4 H16_4 1_555 1_555
H17_4 N11_4 1_555 1_555
C22_4 O7_4 1_555 1_555
N12_4 C29_4 1_555 1_555
C23_4 C22_4 1_555 1_555
C24_4 N8_4 1_555 1_555
C29_4 N11_4 1_555 1_555
C32_4 C23_4 1_555 1_555
H19_4 C32_4 1_555 1_555
C36_4 N10_4 1_555 1_555
H26_4 C36_4 1_555 1_555
H32_4 C44_4 1_555 1_555
C50_4 C44_4 1_555 1_555
O17_3 C65_3 1_555 1_555
H46_4 C63_4 1_555 1_555
C64_3 C66_3 1_555 1_555
C65_3 C73_3 1_555 1_555
C66_3 C69_4 1_555 1_555
C68_3 C64_3 1_555 1_555
C69_4 C63_4 1_555 1_555
N27_3 C68_3 1_555 1_555
H48_3 N27_3 1_555 1_555
H49_4 N27_3 1_555 1_555
N28_3 C69_4 1_555 1_555
H50_4 N28_3 1_555 1_555
H51_3 N28_3 1_555 1_555
C72_3 C68_3 1_555 1_555
C73_3 C72_3 1_555 1_555
C75_3 C64_3 1_555 1_555
H55_3 C75_3 1_555 1_555
C76_3 C73_3 1_555 1_555
H56_3 C76_3 1_555 1_555
Zn11 N1_4 1_555 1_555
Zn12 N8_4 1_555 1_555
C2_4 C5_4 1_555 1_555
N5_4 C17_4 1_555 1_555
C5_4 C10_4 1_555 1_555
C13_4 C14_4 1_555 1_555
N10_4 C21_4 1_555 1_555
C21_4 C24_4 1_555 1_555
N12_4 C36_4 1_555 1_555
C24_4 C29_4 1_555 1_555
C32_4 C33_4 1_555 1_555
C75_3 C76_3 1_555 1_555
Zn10 O14_4 1_555 1_555
O17_4 C65_4 1_555 1_555
C64_4 C66_4 1_555 1_555
C65_4 C73_4 1_555 1_555
C68_4 C64_4 1_555 1_555
N27_4 C68_4 1_555 1_555
H48_4 N27_4 1_555 1_555
H51_4 N28_4 1_555 1_555
C72_4 C68_4 1_555 1_555
C73_4 C72_4 1_555 1_555
C75_4 C64_4 1_555 1_555
H55_4 C75_4 1_555 1_555
C76_4 C73_4 1_555 1_555
H56_4 C76_4 1_555 1_555
C75_4 C76_4 1_555 1_555
O9_4 C27_4 1_555 1_555
C26_4 C28_4 1_555 1_555
C27_4 C35_4 1_555 1_555
C30_4 C26_4 1_555 1_555
N13_4 C30_4 1_555 1_555
H20_4 N13_4 1_555 1_555
H23_4 N14_4 1_555 1_555
C34_4 C30_4 1_555 1_555
C35_4 C34_4 1_555 1_555
C37_4 C26_4 1_555 1_555
H27_4 C37_4 1_555 1_555
C38_4 C35_4 1_555 1_555
H28_4 C38_4 1_555 1_555
C37_4 C38_4 1_555 1_555

#END
