
###############################################################################
#
# This file contains modified crystal structure data generated from the
# MOF subset of the Cambridge Structural Database (CSD) v543 
# hosted by the Cambridge Crystallographic Data Centre (CCDC).
#
# This work is licensed under the Creative Commons
# Attribution-NonCommercial-ShareAlike 4.0 International License.
# To view a copy of this license, visit
# http://creativecommons.org/licenses/by-nc-sa/4.0/
# or send a letter to
# Creative Commons, PO Box 1866, Mountain View, CA 94042, USA.
#
# CIF created using the CSD Python API on 29 September 2022
# The structure has been converted into the P1 space group
# The structure has a 3D framework
# The original CSD entry ULIJAD is in the monoclinic crystal system
# The framework has been calculated to contain at least 10.0% void space
# The void calculation uses a probe of radius 1.32A, grid spacing 0.4
# H atom positions have been added when not included in the experimental data
# Generated hydrogen atom positions removed from atoms on special positions
#
###############################################################################

data_ULIJAD
_chemical_formula_moiety         '(C136 H144 Cd12 N96 O35)n'
_symmetry_cell_setting           triclinic
_symmetry_space_group_name_H-M   'P 1'
_symmetry_Int_Tables_number      1
_space_group_name_Hall           'P 1'
loop_
_symmetry_equiv_pos_site_id
_symmetry_equiv_pos_as_xyz
1 x,y,z
_cell_length_a                   32.296(4)
_cell_length_b                   20.004(3)
_cell_length_c                   12.5788(17)
_cell_angle_alpha                90
_cell_angle_beta                 104.979(4)
_cell_angle_gamma                90
_cell_volume                     7850.39
loop_
_atom_site_label
_atom_site_type_symbol
_atom_site_fract_x
_atom_site_fract_y
_atom_site_fract_z
Cd1 Cd 0.145640(4) 0.106269(6) 0.219591(10)
Cd2 Cd 0.172870(4) 0.003251(6) 0.496310(10)
C1 C 0.21427(7) 0.11652(10) 0.45781(17)
C2 C 0.23337(7) 0.18490(11) 0.45388(17)
C4 C 0.34428(6) 0.31217(10) 0.05368(16)
H3 H 0.3624 0.3463 0.0384
C5 C 0.31227(7) 0.20287(10) 0.01723(16)
C6 C 0.29636(6) 0.27168(10) 0.15784(15)
H5 H 0.2820 0.2781 0.2141
C8 C 0.04314(6) 0.02740(11) 0.01211(15)
C10 C 0.32292(6) 0.32166(9) 0.13622(15)
C13 C 0.20408(10) 0.23814(14) 0.4770(4)
H8 H 0.2000 0.2315 0.5516
H9 H 0.1757 0.2345 0.4234
C14 C 0.27721(10) 0.19209(15) 0.5309(4)
H10 H 0.2965 0.1579 0.5128
H11 H 0.2755 0.1841 0.6073
C15 C 0.29057(6) 0.21247(10) 0.09828(16)
N1 N 0.25055(6) 0.10566(8) 0.05641(14)
N2 N 0.23504(6) 0.17013(8) 0.18488(14)
N4 N 0.32531(6) 0.38494(8) 0.30602(14)
N5 N 0.33803(6) 0.48515(8) 0.25466(13)
N6 N 0.20959(6) 0.11635(8) 0.16794(14)
N8 N 0.21892(5) 0.07811(8) 0.09102(13)
C16 C 0.25961(6) 0.16231(10) 0.11491(15)
N10 N 0.33178(6) 0.44896(8) 0.33563(13)
N11 N 0.33565(5) 0.44505(8) 0.16771(12)
C17 C 0.32800(6) 0.38380(9) 0.20161(15)
O1 O 0.17524(5) 0.10614(7) 0.40305(11)
O2 O 0.11659(4) 0.06377(7) 0.04676(10)
O3 O 0.23467(5) 0.07138(8) 0.51681(15)
O4 O 0.08117(5) 0.09824(9) 0.26173(13)
C18 C 0.28573(7) 0.38348(10) 0.54219(17)
C19 C 0.26663(7) 0.31510(11) 0.54612(17)
C20 C 0.29592(10) 0.26186(14) 0.5230(4)
H12 H 0.3000 0.2685 0.4484
H13 H 0.3243 0.2655 0.5766
C21 C 0.22279(10) 0.30791(15) 0.4691(4)
H14 H 0.2035 0.3421 0.4872
H15 H 0.2245 0.3159 0.3927
O6 O 0.32476(5) 0.39386(7) 0.59695(11)
O7 O 0.26533(5) 0.42862(8) 0.48319(15)
H21 H 0.1911 0.3379 0.0227
C30 C 0.16106(7) 0.24716(10) 0.00588(17)
C31 C 0.13904(9) 0.25986(11) 0.0935(2)
N15 N 0.12929(7) 0.21447(9) 0.16091(16)
N19 N 0.10710(15) 0.31154(14) 0.1959(3)
N21 N 0.12520(13) 0.31992(12) 0.1122(3)
N24 N 0.10935(10) 0.24907(12) 0.2264(2)
Cd5 Cd 0.354360(4) 0.606269(6) 0.280409(10)
Cd8 Cd 0.354360(4) 0.393731(6) 0.780409(10)
Cd10 Cd 0.327130(4) 0.503251(6) 0.003690(10)
Cd12 Cd 0.327130(4) 0.496749(6) 0.503690(10)
N29 N 0.16822(6) 0.05104(8) 0.66437(13)
O16 O 0.09792(5) 0.02545(8) 0.44491(13)
H26 H 0.263577 0.307246 0.629427
H28 H 0.127749 0.363039 0.0718309
H31 H 0.236423 0.192754 0.370573
H32 H 0.0399391 0.0750418 0.0511174
C3 C 0.01038(7) 0.02516(12) 0.90041(16)
H1 H 0.0154 0.0631 0.8548
H4 H 0.3089 0.1621 0.9773
C7 C 0.08835(6) 0.02192(11) 0.99968(15)
C11 C 0.33894(7) 0.25284(10) 0.99412(17)
C12 C 0.36096(9) 0.24014(11) 0.9065(2)
N3 N 0.37071(7) 0.28553(9) 0.83909(16)
N7 N 0.39290(15) 0.18846(14) 0.8041(3)
N9 N 0.37480(13) 0.18008(12) 0.8878(3)
N12 N 0.39065(10) 0.25093(12) 0.7736(2)
C26 C 0.15572(6) 0.18783(10) 0.94632(16)
H20 H 0.1376 0.1537 0.9616
C27 C 0.18773(7) 0.29713(10) 0.98277(16)
C28 C 0.20364(6) 0.22832(10) 0.84216(15)
H22 H 0.2180 0.2219 0.7859
C29 C 0.17708(6) 0.17834(9) 0.86378(15)
C32 C 0.20943(6) 0.28753(10) 0.90172(16)
N13 N 0.24945(6) 0.39434(8) 0.94359(14)
N14 N 0.26496(6) 0.32987(8) 0.81512(14)
N16 N 0.17469(6) 0.11506(8) 0.69398(14)
N17 N 0.16197(6) 0.01485(8) 0.74534(13)
N18 N 0.29041(6) 0.38365(8) 0.83206(14)
N20 N 0.28108(5) 0.42189(8) 0.90898(13)
C33 C 0.24039(6) 0.33769(10) 0.88509(15)
N23 N 0.16435(5) 0.05495(8) 0.83229(12)
C34 C 0.17200(6) 0.11620(9) 0.79839(15)
O10 O 0.41883(5) 0.40176(9) 0.73827(13)
N26 N 0.33803(6) 0.51485(8) 0.75466(13)
O14 O 0.38341(4) 0.43623(7) 0.95324(10)
H23 H 0.372251 0.136961 0.928169
C9 C 0.03513(7) 0.97112(12) 0.08674(16)
H6 H 0.0397 0.9274 0.0547
H7 H 0.0558 0.9749 0.1599
N25 N 0.16197(6) 0.98515(8) 0.24534(13)
N28 N 0.21892(5) 0.92189(8) 0.59102(13)
N32 N 0.16435(5) 0.94505(8) 0.33229(12)
O13 O 0.11659(4) 0.93623(7) 0.54676(10)
H2 H 0.0140 0.9832 0.8621
O5 O 0.09792(5) 0.97455(8) 0.94491(13)
Cd7 Cd 0.145640(4) 0.893731(6) 0.719591(10)
Cd11 Cd 0.172870(4) 0.996749(6) 0.996310(10)
H17 H 0.9860 0.0168 0.1379
O9 O 0.90208(5) 0.02545(8) 0.05509(13)
Cd3 Cd 0.827130(4) 0.003251(6) 0.003690(10)
O11 O 0.82476(5) 0.10614(7) 0.09695(11)
C25 C 0.96487(7) 0.02888(12) 0.91326(16)
H18 H 0.9603 0.0726 0.9453
H19 H 0.9442 0.0251 0.8401
N30 N 0.83178(6) 0.05104(8) 0.83563(13)
O15 O 0.76533(5) 0.07138(8) 0.98319(15)
C22 C 0.98962(7) 0.97484(12) 0.09959(16)
H16 H 0.9846 0.9369 0.1452
C23 C 0.91165(6) 0.97808(11) 0.00032(15)
N31 N 0.83565(5) 0.94505(8) 0.16771(12)
C24 C 0.95686(6) 0.97260(11) 0.98789(15)
O8 O 0.88341(4) 0.93623(7) 0.95324(10)
Cd6 Cd 0.854360(4) 0.893731(6) 0.780409(10)
N27 N 0.78108(5) 0.92189(8) 0.90898(13)
H27 H 0.960061 0.924958 0.948883
H17_2 H 0.0140 0.0168 0.3621
C25_2 C 0.03513(7) 0.02888(12) 0.58674(16)
H18_2 H 0.0397 0.0726 0.5547
H19_2 H 0.0558 0.0251 0.6599
C22_2 C 0.01038(7) 0.97484(12) 0.40041(16)
H16_2 H 0.0154 0.9369 0.3548
C23_2 C 0.08835(6) 0.97808(11) 0.49968(15)
C24_2 C 0.04314(6) 0.97260(11) 0.51211(15)
H27_2 H 0.0399391 0.924958 0.551117
Cd1_2 Cd 0.854360(4) 0.106269(6) 0.280409(10)
C1_2 C 0.78573(7) 0.11652(10) 0.04219(17)
C2_2 C 0.76663(7) 0.18490(11) 0.04612(17)
C3_2 C 0.98962(7) 0.02516(12) 0.59959(16)
H1_2 H 0.9846 0.0631 0.6452
C4_2 C 0.65572(6) 0.31217(10) 0.44632(16)
H3_2 H 0.6376 0.3463 0.4616
C5_2 C 0.68773(7) 0.20287(10) 0.48277(16)
H4_2 H 0.6911 0.1621 0.5227
C6_2 C 0.70364(6) 0.27168(10) 0.34216(15)
H5_2 H 0.7180 0.2781 0.2859
C7_2 C 0.91165(6) 0.02192(11) 0.50032(15)
C8_2 C 0.95686(6) 0.02740(11) 0.48789(15)
C10_2 C 0.67708(6) 0.32166(9) 0.36378(15)
C11_2 C 0.66106(7) 0.25284(10) 0.50588(17)
C12_2 C 0.63904(9) 0.24014(11) 0.5935(2)
C13_2 C 0.79592(10) 0.23814(14) 0.0230(4)
H9_2 H 0.8243 0.2345 0.0766
C15_2 C 0.70943(6) 0.21247(10) 0.40172(16)
N1_2 N 0.74945(6) 0.10566(8) 0.44359(14)
N2_2 N 0.76496(6) 0.17013(8) 0.31512(14)
N3_2 N 0.62929(7) 0.28553(9) 0.66091(16)
N4_2 N 0.67469(6) 0.38494(8) 0.19398(14)
N5_2 N 0.66197(6) 0.48515(8) 0.24534(13)
N6_2 N 0.79041(6) 0.11635(8) 0.33206(14)
N7_2 N 0.60710(15) 0.18846(14) 0.6959(3)
N8_2 N 0.78108(5) 0.07811(8) 0.40898(13)
C16_2 C 0.74039(6) 0.16231(10) 0.38509(15)
N9_2 N 0.62520(13) 0.18008(12) 0.6122(3)
N10_2 N 0.66822(6) 0.44896(8) 0.16437(13)
N11_2 N 0.66435(5) 0.44505(8) 0.33229(12)
C17_2 C 0.67200(6) 0.38380(9) 0.29839(15)
N12_2 N 0.60935(10) 0.25093(12) 0.7264(2)
O2_2 O 0.88341(4) 0.06377(7) 0.45324(10)
O4_2 O 0.91883(5) 0.09824(9) 0.23827(13)
H12_2 H 0.7000 0.2685 0.0516
C21_2 C 0.77721(10) 0.30791(15) 0.0309(4)
H14_2 H 0.7965 0.3421 0.0128
H15_2 H 0.7755 0.3159 0.1073
O7_2 O 0.73467(5) 0.42862(8) 0.01681(15)
Cd4 Cd 0.645640(4) 0.393731(6) 0.719591(10)
C26_2 C 0.84428(6) 0.18783(10) 0.55368(16)
H20_2 H 0.8624 0.1537 0.5384
C27_2 C 0.81227(7) 0.29713(10) 0.51723(16)
H21_2 H 0.8089 0.3379 0.4773
C28_2 C 0.79636(6) 0.22832(10) 0.65784(15)
H22_2 H 0.7820 0.2219 0.7141
C29_2 C 0.82292(6) 0.17834(9) 0.63622(15)
C30_2 C 0.83894(7) 0.24716(10) 0.49412(17)
C31_2 C 0.86096(9) 0.25986(11) 0.4065(2)
C32_2 C 0.79057(6) 0.28753(10) 0.59828(16)
N13_2 N 0.75055(6) 0.39434(8) 0.55641(14)
N14_2 N 0.73504(6) 0.32987(8) 0.68488(14)
N15_2 N 0.87071(7) 0.21447(9) 0.33909(16)
N16_2 N 0.82531(6) 0.11506(8) 0.80602(14)
N17_2 N 0.83803(6) 0.01485(8) 0.75466(13)
N18_2 N 0.70959(6) 0.38365(8) 0.66794(14)
N19_2 N 0.89290(15) 0.31154(14) 0.3041(3)
N20_2 N 0.71892(5) 0.42189(8) 0.59102(13)
C33_2 C 0.75961(6) 0.33769(10) 0.61491(15)
N21_2 N 0.87480(13) 0.31992(12) 0.3878(3)
N23_2 N 0.83565(5) 0.05495(8) 0.66771(12)
C34_2 C 0.82800(6) 0.11620(9) 0.70161(15)
N24_2 N 0.89065(10) 0.24907(12) 0.2736(2)
O10_2 O 0.58117(5) 0.40176(9) 0.76173(13)
Cd5_2 Cd 0.645640(4) 0.606269(6) 0.219591(10)
Cd10_2 Cd 0.672870(4) 0.503251(6) 0.496310(10)
N26_2 N 0.66197(6) 0.51485(8) 0.74534(13)
O12 O 0.67524(5) 0.39386(7) 0.90305(11)
O14_2 O 0.61659(4) 0.43623(7) 0.54676(10)
H23_2 H 0.627749 0.136961 0.571831
H28_2 H 0.872251 0.363039 0.428169
H31_2 H 0.763577 0.192754 0.129427
H32_2 H 0.960061 0.0750418 0.448883
H8_2 H 0.8000 0.2315 0.9484
C14_2 C 0.72279(10) 0.19209(15) 0.9691(4)
H10_2 H 0.7035 0.1579 0.9872
H11_2 H 0.7245 0.1841 0.8927
C18_2 C 0.71427(7) 0.38348(10) 0.95781(17)
C19_2 C 0.73337(7) 0.31510(11) 0.95388(17)
C20_2 C 0.70408(10) 0.26186(14) 0.9770(4)
H13_2 H 0.6757 0.2655 0.9234
Cd12_2 Cd 0.672870(4) 0.496749(6) 0.996310(10)
H26_2 H 0.736423 0.307246 0.870573
H2_2 H 0.9860 0.9832 0.6379
C9_2 C 0.96487(7) 0.97112(12) 0.41326(16)
H6_2 H 0.9603 0.9274 0.4453
H7_2 H 0.9442 0.9749 0.3401
O5_2 O 0.90208(5) 0.97455(8) 0.55509(13)
Cd11_2 Cd 0.827130(4) 0.996749(6) 0.503690(10)
N25_2 N 0.83803(6) 0.98515(8) 0.25466(13)
C1_3 C 0.71427(7) 0.61652(10) 0.45781(17)
C2_3 C 0.73337(7) 0.68490(11) 0.45388(17)
C4_3 C 0.84428(6) 0.81217(10) 0.05368(16)
H3_3 H 0.8624 0.8463 0.0384
C5_3 C 0.81227(7) 0.70287(10) 0.01723(16)
C6_3 C 0.79636(6) 0.77168(10) 0.15784(15)
H5_3 H 0.7820 0.7781 0.2141
C8_3 C 0.54314(6) 0.52740(11) 0.01211(15)
C9_3 C 0.53513(7) 0.47112(12) 0.08674(16)
H6_3 H 0.5397 0.4274 0.0547
H7_3 H 0.5558 0.4749 0.1599
C10_3 C 0.82292(6) 0.82166(9) 0.13622(15)
C13_3 C 0.70408(10) 0.73814(14) 0.4770(4)
H8_3 H 0.7000 0.7315 0.5516
H9_3 H 0.6757 0.7345 0.4234
C14_3 C 0.77721(10) 0.69209(15) 0.5309(4)
H10_3 H 0.7965 0.6579 0.5128
H11_3 H 0.7755 0.6841 0.6073
C15_3 C 0.79057(6) 0.71247(10) 0.09828(16)
N1_3 N 0.75055(6) 0.60566(8) 0.05641(14)
N2_3 N 0.73504(6) 0.67013(8) 0.18488(14)
N4_3 N 0.82531(6) 0.88494(8) 0.30602(14)
N6_3 N 0.70959(6) 0.61635(8) 0.16794(14)
N8_3 N 0.71892(5) 0.57811(8) 0.09102(13)
C16_3 C 0.75961(6) 0.66231(10) 0.11491(15)
N10_3 N 0.83178(6) 0.94896(8) 0.33563(13)
C17_3 C 0.82800(6) 0.88380(9) 0.20161(15)
O1_2 O 0.67524(5) 0.60614(7) 0.40305(11)
O2_3 O 0.61659(4) 0.56377(7) 0.04676(10)
O3_2 O 0.73467(5) 0.57138(8) 0.51681(15)
O4_3 O 0.58117(5) 0.59824(9) 0.26173(13)
C18_3 C 0.78573(7) 0.88348(10) 0.54219(17)
C19_3 C 0.76663(7) 0.81510(11) 0.54612(17)
C20_3 C 0.79592(10) 0.76186(14) 0.5230(4)
H12_3 H 0.8000 0.7685 0.4484
H13_3 H 0.8243 0.7655 0.5766
C21_3 C 0.72279(10) 0.80791(15) 0.4691(4)
H14_3 H 0.7035 0.8421 0.4872
H15_3 H 0.7245 0.8159 0.3927
O6_2 O 0.82476(5) 0.89386(7) 0.59695(11)
O7_3 O 0.76533(5) 0.92862(8) 0.48319(15)
C22_3 C 0.48962(7) 0.47484(12) 0.09959(16)
H16_3 H 0.4846 0.4369 0.1452
H17_3 H 0.4860 0.5168 0.1379
C23_3 C 0.41165(6) 0.47808(11) 0.00032(15)
O9_2 O 0.40208(5) 0.52545(8) 0.05509(13)
H21_3 H 0.6911 0.8379 0.0227
C30_3 C 0.66106(7) 0.74716(10) 0.00588(17)
C31_3 C 0.63904(9) 0.75986(11) 0.0935(2)
N15_3 N 0.62929(7) 0.71447(9) 0.16091(16)
N19_3 N 0.60710(15) 0.81154(14) 0.1959(3)
N21_3 N 0.62520(13) 0.81992(12) 0.1122(3)
N24_3 N 0.60935(10) 0.74907(12) 0.2264(2)
N29_2 N 0.66822(6) 0.55104(8) 0.66437(13)
O11_2 O 0.32476(5) 0.60614(7) 0.09695(11)
O16_2 O 0.59792(5) 0.52545(8) 0.44491(13)
H26_3 H 0.763577 0.807246 0.629427
H28_3 H 0.627749 0.863039 0.0718309
H31_3 H 0.736423 0.692754 0.370573
H32_3 H 0.539939 0.575042 0.0511174
C3_3 C 0.51038(7) 0.52516(12) 0.90041(16)
H1_3 H 0.5154 0.5631 0.8548
H2_3 H 0.5140 0.4832 0.8621
H4_3 H 0.8089 0.6621 0.9773
C7_3 C 0.58835(6) 0.52192(11) 0.99968(15)
C11_3 C 0.83894(7) 0.75284(10) 0.99412(17)
C12_3 C 0.86096(9) 0.74014(11) 0.9065(2)
N3_3 N 0.87071(7) 0.78553(9) 0.83909(16)
N7_3 N 0.89290(15) 0.68846(14) 0.8041(3)
N9_3 N 0.87480(13) 0.68008(12) 0.8878(3)
N12_3 N 0.89065(10) 0.75093(12) 0.7736(2)
O5_3 O 0.59792(5) 0.47455(8) 0.94491(13)
C24_3 C 0.45686(6) 0.47260(11) 0.98789(15)
C25_3 C 0.46487(7) 0.52888(12) 0.91326(16)
H18_3 H 0.4603 0.5726 0.9453
H19_3 H 0.4442 0.5251 0.8401
C26_3 C 0.65572(6) 0.68783(10) 0.94632(16)
H20_3 H 0.6376 0.6537 0.9616
C27_3 C 0.68773(7) 0.79713(10) 0.98277(16)
C28_3 C 0.70364(6) 0.72832(10) 0.84216(15)
H22_3 H 0.7180 0.7219 0.7859
C29_3 C 0.67708(6) 0.67834(9) 0.86378(15)
C32_3 C 0.70943(6) 0.78753(10) 0.90172(16)
N13_3 N 0.74945(6) 0.89434(8) 0.94359(14)
N14_3 N 0.76496(6) 0.82987(8) 0.81512(14)
N16_3 N 0.67469(6) 0.61506(8) 0.69398(14)
N18_3 N 0.79041(6) 0.88365(8) 0.83206(14)
C33_3 C 0.74039(6) 0.83769(10) 0.88509(15)
N23_3 N 0.66435(5) 0.55495(8) 0.83229(12)
C34_3 C 0.67200(6) 0.61620(9) 0.79839(15)
O10_3 O 0.91883(5) 0.90176(9) 0.73827(13)
N30_2 N 0.33178(6) 0.55104(8) 0.83563(13)
O15_2 O 0.26533(5) 0.57138(8) 0.98319(15)
H23_3 H 0.872251 0.636961 0.928169
H27_3 H 0.460061 0.424958 0.948883
C1_4 C 0.28573(7) 0.61652(10) 0.04219(17)
C2_4 C 0.26663(7) 0.68490(11) 0.04612(17)
C3_4 C 0.48962(7) 0.52516(12) 0.59959(16)
H1_4 H 0.4846 0.5631 0.6452
H2_4 H 0.4860 0.4832 0.6379
C4_4 C 0.15572(6) 0.81217(10) 0.44632(16)
H3_4 H 0.1376 0.8463 0.4616
C5_4 C 0.18773(7) 0.70287(10) 0.48277(16)
H4_4 H 0.1911 0.6621 0.5227
C6_4 C 0.20364(6) 0.77168(10) 0.34216(15)
H5_4 H 0.2180 0.7781 0.2859
C7_4 C 0.41165(6) 0.52192(11) 0.50032(15)
C8_4 C 0.45686(6) 0.52740(11) 0.48789(15)
C9_4 C 0.46487(7) 0.47112(12) 0.41326(16)
H6_4 H 0.4603 0.4274 0.4453
H7_4 H 0.4442 0.4749 0.3401
C10_4 C 0.17708(6) 0.82166(9) 0.36378(15)
C11_4 C 0.16106(7) 0.75284(10) 0.50588(17)
C12_4 C 0.13904(9) 0.74014(11) 0.5935(2)
C13_4 C 0.29592(10) 0.73814(14) 0.0230(4)
H9_4 H 0.3243 0.7345 0.0766
C15_4 C 0.20943(6) 0.71247(10) 0.40172(16)
N1_4 N 0.24945(6) 0.60566(8) 0.44359(14)
N2_4 N 0.26496(6) 0.67013(8) 0.31512(14)
N3_4 N 0.12929(7) 0.78553(9) 0.66091(16)
N4_4 N 0.17469(6) 0.88494(8) 0.19398(14)
N6_4 N 0.29041(6) 0.61635(8) 0.33206(14)
N7_4 N 0.10710(15) 0.68846(14) 0.6959(3)
N8_4 N 0.28108(5) 0.57811(8) 0.40898(13)
C16_4 C 0.24039(6) 0.66231(10) 0.38509(15)
N9_4 N 0.12520(13) 0.68008(12) 0.6122(3)
N10_4 N 0.16822(6) 0.94896(8) 0.16437(13)
C17_4 C 0.17200(6) 0.88380(9) 0.29839(15)
N12_4 N 0.10935(10) 0.75093(12) 0.7264(2)
O2_4 O 0.38341(4) 0.56377(7) 0.45324(10)
O4_4 O 0.41883(5) 0.59824(9) 0.23827(13)
O5_4 O 0.40208(5) 0.47455(8) 0.55509(13)
H12_4 H 0.2000 0.7685 0.0516
C21_4 C 0.27721(10) 0.80791(15) 0.0309(4)
H14_4 H 0.2965 0.8421 0.0128
H15_4 H 0.2755 0.8159 0.1073
O7_4 O 0.23467(5) 0.92862(8) 0.01681(15)
C22_4 C 0.51038(7) 0.47484(12) 0.40041(16)
H16_4 H 0.5154 0.4369 0.3548
H17_4 H 0.5140 0.5168 0.3621
C23_4 C 0.58835(6) 0.47808(11) 0.49968(15)
C24_4 C 0.54314(6) 0.47260(11) 0.51211(15)
C25_4 C 0.53513(7) 0.52888(12) 0.58674(16)
H18_4 H 0.5397 0.5726 0.5547
H19_4 H 0.5558 0.5251 0.6599
C26_4 C 0.34428(6) 0.68783(10) 0.55368(16)
H20_4 H 0.3624 0.6537 0.5384
C27_4 C 0.31227(7) 0.79713(10) 0.51723(16)
H21_4 H 0.3089 0.8379 0.4773
C28_4 C 0.29636(6) 0.72832(10) 0.65784(15)
H22_4 H 0.2820 0.7219 0.7141
C29_4 C 0.32292(6) 0.67834(9) 0.63622(15)
C30_4 C 0.33894(7) 0.74716(10) 0.49412(17)
C31_4 C 0.36096(9) 0.75986(11) 0.4065(2)
C32_4 C 0.29057(6) 0.78753(10) 0.59828(16)
N13_4 N 0.25055(6) 0.89434(8) 0.55641(14)
N14_4 N 0.23504(6) 0.82987(8) 0.68488(14)
N15_4 N 0.37071(7) 0.71447(9) 0.33909(16)
N16_4 N 0.32531(6) 0.61506(8) 0.80602(14)
N18_4 N 0.20959(6) 0.88365(8) 0.66794(14)
N19_4 N 0.39290(15) 0.81154(14) 0.3041(3)
C33_4 C 0.25961(6) 0.83769(10) 0.61491(15)
N21_4 N 0.37480(13) 0.81992(12) 0.3878(3)
N23_4 N 0.33565(5) 0.55495(8) 0.66771(12)
C34_4 C 0.32800(6) 0.61620(9) 0.70161(15)
N24_4 N 0.39065(10) 0.74907(12) 0.2736(2)
O10_4 O 0.08117(5) 0.90176(9) 0.76173(13)
O12_2 O 0.17524(5) 0.89386(7) 0.90305(11)
H23_4 H 0.127749 0.636961 0.571831
H27_4 H 0.539939 0.424958 0.551117
H28_4 H 0.372251 0.863039 0.428169
H31_4 H 0.263577 0.692754 0.129427
H32_4 H 0.460061 0.575042 0.448883
H8_4 H 0.3000 0.7315 0.9484
C14_4 C 0.22279(10) 0.69209(15) 0.9691(4)
H10_4 H 0.2035 0.6579 0.9872
H11_4 H 0.2245 0.6841 0.8927
C18_4 C 0.21427(7) 0.88348(10) 0.95781(17)
C19_4 C 0.23337(7) 0.81510(11) 0.95388(17)
C20_4 C 0.20408(10) 0.76186(14) 0.9770(4)
H13_4 H 0.1757 0.7655 0.9234
H26_4 H 0.236423 0.807246 0.870573
loop_
_geom_bond_atom_site_label_1
_geom_bond_atom_site_label_2
_geom_bond_site_symmetry_1
_geom_bond_site_symmetry_2
Cd1 N6 1_555 1_555
Cd2 O1 1_555 1_555
C1 C2 1_555 1_555
C2 C13 1_555 1_555
C4 H3 1_555 1_555
C6 H5 1_555 1_555
C10 C4 1_555 1_555
C13 H8 1_555 1_555
H9 C13 1_555 1_555
C14 C2 1_555 1_555
H10 C14 1_555 1_555
H11 C14 1_555 1_555
C15 C5 1_555 1_555
N1 N8 1_555 1_555
N2 N6 1_555 1_555
N4 N10 1_555 1_555
N5 N10 1_555 1_555
N6 N8 1_555 1_555
C16 C15 1_555 1_555
N10 Cd12 1_555 1_555
N11 N5 1_555 1_555
C17 C10 1_555 1_555
O1 Cd1 1_555 1_555
O2 Cd1 1_555 1_555
O3 Cd2 1_555 1_555
O4 Cd1 1_555 1_555
C18 C19 1_555 1_555
C19 C20 1_555 1_555
C20 C14 1_555 1_555
H12 C20 1_555 1_555
H13 C20 1_555 1_555
C21 C13 1_555 1_555
H14 C21 1_555 1_555
H15 C21 1_555 1_555
O6 C18 1_555 1_555
O7 C18 1_555 1_555
C31 C30 1_555 1_555
N15 Cd1 1_555 1_555
N19 N21 1_555 1_555
N21 C31 1_555 1_555
N24 N15 1_555 1_555
Cd5 N5 1_555 1_555
Cd8 O6 1_555 1_555
Cd10 N11 1_555 1_555
Cd12 O6 1_555 1_555
N29 Cd2 1_555 1_555
O16 Cd2 1_555 1_555
C1 O1 1_555 1_555
C1 O3 1_555 1_555
C6 C10 1_555 1_555
C6 C15 1_555 1_555
N1 C16 1_555 1_555
N2 C16 1_555 1_555
N4 C17 1_555 1_555
N11 C17 1_555 1_555
C19 C21 1_555 1_555
O7 Cd12 1_555 1_555
C31 N15 1_555 1_555
N19 N24 1_555 1_555
C19 H26 1_555 1_555
N21 H28 1_555 1_555
C2 H31 1_555 1_555
C8 H32 1_555 1_555
C3 H1 1_555 1_555
C12 C11 1_555 1_555
N3 C12 1_555 1_555
N7 N9 1_555 1_555
N9 C12 1_555 1_555
N12 N3 1_555 1_555
Cd8 N3 1_555 1_555
C26 H20 1_555 1_555
C28 H22 1_555 1_555
C29 C26 1_555 1_555
C32 C27 1_555 1_555
N13 N20 1_555 1_555
N14 N18 1_555 1_555
N16 N29 1_555 1_555
N17 N29 1_555 1_555
N18 Cd8 1_555 1_555
N20 N18 1_555 1_555
C33 C32 1_555 1_555
N23 N17 1_555 1_555
C34 C29 1_555 1_555
O10 Cd8 1_555 1_555
N26 Cd8 1_555 1_555
O14 Cd8 1_555 1_555
N7 N12 1_555 1_555
C28 C29 1_555 1_555
C28 C32 1_555 1_555
N13 C33 1_555 1_555
N14 C33 1_555 1_555
N16 C34 1_555 1_555
N23 C34 1_555 1_555
N9 H23 1_555 1_555
H6 C9 1_555 1_555
H7 C9 1_555 1_555
N25 N32 1_555 1_555
O5 Cd11 1_555 1_555
O11 Cd3 1_555 1_555
O9 Cd3 1_555 1_555
H18 C25 1_555 1_555
H19 C25 1_555 1_555
H16 C22 1_555 1_555
Cd6 O8 1_555 1_555
C24 H27 1_555 1_555
H18_2 C25_2 1_555 1_555
H19_2 C25_2 1_555 1_555
H16_2 C22_2 1_555 1_555
C23_2 C24_2 1_555 1_555
C24_2 C22_2 1_555 1_555
O13 C23_2 1_555 1_555
Cd7 O13 1_555 1_555
C24_2 H27_2 1_555 1_555
Cd1_2 N6_2 1_555 1_555
C1_2 C2_2 1_555 1_555
C2_2 C13_2 1_555 1_555
C3_2 H1_2 1_555 1_555
C4_2 H3_2 1_555 1_555
C5_2 H4_2 1_555 1_555
C6_2 H5_2 1_555 1_555
C7_2 C8_2 1_555 1_555
C8_2 C3_2 1_555 1_555
C10_2 C4_2 1_555 1_555
C11_2 C4_2 1_555 1_555
C12_2 C11_2 1_555 1_555
H9_2 C13_2 1_555 1_555
C15_2 C5_2 1_555 1_555
N1_2 N8_2 1_555 1_555
N2_2 N6_2 1_555 1_555
N3_2 C12_2 1_555 1_555
N4_2 N10_2 1_555 1_555
N5_2 N10_2 1_555 1_555
N6_2 N8_2 1_555 1_555
N7_2 N9_2 1_555 1_555
C16_2 C15_2 1_555 1_555
N9_2 C12_2 1_555 1_555
N11_2 N5_2 1_555 1_555
C17_2 C10_2 1_555 1_555
N12_2 N3_2 1_555 1_555
O11 Cd1_2 1_555 1_555
O2_2 Cd1_2 1_555 1_555
O4_2 Cd1_2 1_555 1_555
C21_2 C13_2 1_555 1_555
H14_2 C21_2 1_555 1_555
H15_2 C21_2 1_555 1_555
Cd4 N3_2 1_555 1_555
C26_2 H20_2 1_555 1_555
C27_2 H21_2 1_555 1_555
C28_2 H22_2 1_555 1_555
C29_2 C26_2 1_555 1_555
C30_2 C26_2 1_555 1_555
C31_2 C30_2 1_555 1_555
C32_2 C27_2 1_555 1_555
N13_2 N20_2 1_555 1_555
N14_2 N18_2 1_555 1_555
N15_2 Cd1_2 1_555 1_555
N16_2 N30 1_555 1_555
N17_2 N30 1_555 1_555
N18_2 Cd4 1_555 1_555
N19_2 N21_2 1_555 1_555
N20_2 N18_2 1_555 1_555
C33_2 C32_2 1_555 1_555
N21_2 C31_2 1_555 1_555
N23_2 N17_2 1_555 1_555
C34_2 C29_2 1_555 1_555
N24_2 N15_2 1_555 1_555
O10_2 Cd4 1_555 1_555
Cd5_2 N5_2 1_555 1_555
Cd10_2 N11_2 1_555 1_555
N26_2 Cd4 1_555 1_555
O12 Cd4 1_555 1_555
O14_2 Cd4 1_555 1_555
C1_2 O11 1_555 1_555
C5_2 C11_2 1_555 1_555
C6_2 C10_2 1_555 1_555
C6_2 C15_2 1_555 1_555
C7_2 O2_2 1_555 1_555
N1_2 C16_2 1_555 1_555
N2_2 C16_2 1_555 1_555
N4_2 C17_2 1_555 1_555
N7_2 N12_2 1_555 1_555
N11_2 C17_2 1_555 1_555
C27_2 C30_2 1_555 1_555
C28_2 C29_2 1_555 1_555
C28_2 C32_2 1_555 1_555
C31_2 N15_2 1_555 1_555
N13_2 C33_2 1_555 1_555
N14_2 C33_2 1_555 1_555
N16_2 C34_2 1_555 1_555
N19_2 N24_2 1_555 1_555
N20_2 Cd10_2 1_555 1_555
N23_2 C34_2 1_555 1_555
Cd10_2 O14_2 1_555 1_555
N9_2 H23_2 1_555 1_555
N21_2 H28_2 1_555 1_555
C2_2 H31_2 1_555 1_555
C8_2 H32_2 1_555 1_555
H10_2 C14_2 1_555 1_555
H11_2 C14_2 1_555 1_555
C18_2 C19_2 1_555 1_555
C19_2 C20_2 1_555 1_555
C20_2 C14_2 1_555 1_555
H13_2 C20_2 1_555 1_555
O12 C18_2 1_555 1_555
Cd12_2 O12 1_555 1_555
C19_2 H26_2 1_555 1_555
H6_2 C9_2 1_555 1_555
H7_2 C9_2 1_555 1_555
O5_2 Cd11_2 1_555 1_555
N25_2 N31 1_555 1_555
Cd5_2 N6_3 1_555 1_555
Cd10_2 O1_2 1_555 1_555
C1_3 C2_3 1_555 1_555
C2_3 C13_3 1_555 1_555
C4_3 H3_3 1_555 1_555
C6_3 H5_3 1_555 1_555
C9_3 C8_3 1_555 1_555
H6_3 C9_3 1_555 1_555
H7_3 C9_3 1_555 1_555
C10_3 C4_3 1_555 1_555
C13_3 H8_3 1_555 1_555
H9_3 C13_3 1_555 1_555
C14_3 C2_3 1_555 1_555
H10_3 C14_3 1_555 1_555
H11_3 C14_3 1_555 1_555
C15_3 C5_3 1_555 1_555
N1_3 N8_3 1_555 1_555
N2_3 N6_3 1_555 1_555
N4_3 N10_3 1_555 1_555
N25_2 N10_3 1_555 1_555
N6_3 N8_3 1_555 1_555
C16_3 C15_3 1_555 1_555
N10_3 Cd11_2 1_555 1_555
C17_3 C10_3 1_555 1_555
O1_2 Cd5_2 1_555 1_555
O2_3 Cd5_2 1_555 1_555
O3_2 Cd10_2 1_555 1_555
O4_3 Cd5_2 1_555 1_555
C18_3 C19_3 1_555 1_555
C19_3 C20_3 1_555 1_555
C20_3 C14_3 1_555 1_555
H12_3 C20_3 1_555 1_555
H13_3 C20_3 1_555 1_555
C21_3 C13_3 1_555 1_555
H14_3 C21_3 1_555 1_555
H15_3 C21_3 1_555 1_555
O6_2 C18_3 1_555 1_555
O7_3 C18_3 1_555 1_555
C22_3 C9_3 1_555 1_555
H16_3 C22_3 1_555 1_555
H17_3 C22_3 1_555 1_555
O9_2 C23_3 1_555 1_555
C31_3 C30_3 1_555 1_555
N15_3 Cd5_2 1_555 1_555
N19_3 N21_3 1_555 1_555
N21_3 C31_3 1_555 1_555
N24_3 N15_3 1_555 1_555
Cd6 O6_2 1_555 1_555
Cd11_2 O6_2 1_555 1_555
N29_2 Cd10_2 1_555 1_555
O11_2 Cd10 1_555 1_555
O16_2 Cd10_2 1_555 1_555
C1_3 O1_2 1_555 1_555
C1_3 O3_2 1_555 1_555
C6_3 C10_3 1_555 1_555
C6_3 C15_3 1_555 1_555
N1_3 C16_3 1_555 1_555
N2_3 C16_3 1_555 1_555
N4_3 C17_3 1_555 1_555
N31 C17_3 1_555 1_555
C19_3 C21_3 1_555 1_555
O7_3 Cd11_2 1_555 1_555
O9_2 Cd10 1_555 1_555
C31_3 N15_3 1_555 1_555
N19_3 N24_3 1_555 1_555
C19_3 H26_3 1_555 1_555
N21_3 H28_3 1_555 1_555
C2_3 H31_3 1_555 1_555
C8_3 H32_3 1_555 1_555
C3_3 H1_3 1_555 1_555
H2_3 C3_3 1_555 1_555
C12_3 C11_3 1_555 1_555
N3_3 C12_3 1_555 1_555
N7_3 N9_3 1_555 1_555
N9_3 C12_3 1_555 1_555
N12_3 N3_3 1_555 1_555
O5_3 C7_3 1_555 1_555
C25_3 C3_3 1_555 1_555
H18_3 C25_3 1_555 1_555
H19_3 C25_3 1_555 1_555
Cd6 N3_3 1_555 1_555
C26_3 H20_3 1_555 1_555
C28_3 H22_3 1_555 1_555
C29_3 C26_3 1_555 1_555
C32_3 C27_3 1_555 1_555
N13_3 N27 1_555 1_555
N14_3 N18_3 1_555 1_555
N16_3 N29_2 1_555 1_555
N26_2 N29_2 1_555 1_555
N18_3 Cd6 1_555 1_555
N27 N18_3 1_555 1_555
C33_3 C32_3 1_555 1_555
N23_3 N26_2 1_555 1_555
C34_3 C29_3 1_555 1_555
O10_3 Cd6 1_555 1_555
N7_3 N12_3 1_555 1_555
O5_3 Cd12_2 1_555 1_555
C24_3 C25_3 1_555 1_555
C28_3 C29_3 1_555 1_555
C28_3 C32_3 1_555 1_555
N13_3 C33_3 1_555 1_555
N14_3 C33_3 1_555 1_555
N16_3 C34_3 1_555 1_555
N23_3 C34_3 1_555 1_555
N23_3 Cd12_2 1_555 1_555
N9_3 H23_3 1_555 1_555
C24_3 H27_3 1_555 1_555
Cd5 N6_4 1_555 1_555
C1_4 C2_4 1_555 1_555
C2_4 C13_4 1_555 1_555
C3_4 H1_4 1_555 1_555
H2_4 C3_4 1_555 1_555
C4_4 H3_4 1_555 1_555
C5_4 H4_4 1_555 1_555
C6_4 H5_4 1_555 1_555
C7_4 C8_4 1_555 1_555
C8_4 C3_4 1_555 1_555
C9_4 C8_4 1_555 1_555
H6_4 C9_4 1_555 1_555
H7_4 C9_4 1_555 1_555
C10_4 C4_4 1_555 1_555
C11_4 C4_4 1_555 1_555
C12_4 C11_4 1_555 1_555
H9_4 C13_4 1_555 1_555
C15_4 C5_4 1_555 1_555
N1_4 N8_4 1_555 1_555
N2_4 N6_4 1_555 1_555
N3_4 C12_4 1_555 1_555
N4_4 N10_4 1_555 1_555
N25 N10_4 1_555 1_555
N6_4 N8_4 1_555 1_555
N7_4 N9_4 1_555 1_555
N8_4 Cd12 1_555 1_555
C16_4 C15_4 1_555 1_555
N9_4 C12_4 1_555 1_555
C17_4 C10_4 1_555 1_555
N12_4 N3_4 1_555 1_555
O11_2 Cd5 1_555 1_555
O2_4 Cd5 1_555 1_555
O4_4 Cd5 1_555 1_555
O5_4 C7_4 1_555 1_555
C21_4 C13_4 1_555 1_555
H14_4 C21_4 1_555 1_555
H15_4 C21_4 1_555 1_555
C22_4 C9_4 1_555 1_555
H16_4 C22_4 1_555 1_555
H17_4 C22_4 1_555 1_555
C23_4 C24_4 1_555 1_555
C24_4 C22_4 1_555 1_555
C25_4 C3_4 1_555 1_555
H18_4 C25_4 1_555 1_555
H19_4 C25_4 1_555 1_555
O14_2 C23_4 1_555 1_555
O16_2 C23_4 1_555 1_555
Cd7 N3_4 1_555 1_555
C26_4 H20_4 1_555 1_555
C27_4 H21_4 1_555 1_555
C28_4 H22_4 1_555 1_555
C29_4 C26_4 1_555 1_555
C30_4 C26_4 1_555 1_555
C31_4 C30_4 1_555 1_555
C32_4 C27_4 1_555 1_555
N13_4 N28 1_555 1_555
N14_4 N18_4 1_555 1_555
N15_4 Cd5 1_555 1_555
N16_4 N30_2 1_555 1_555
N26 N30_2 1_555 1_555
N18_4 Cd7 1_555 1_555
N19_4 N21_4 1_555 1_555
N28 N18_4 1_555 1_555
C33_4 C32_4 1_555 1_555
N21_4 C31_4 1_555 1_555
N23_4 N26 1_555 1_555
C34_4 C29_4 1_555 1_555
N24_4 N15_4 1_555 1_555
O10_4 Cd7 1_555 1_555
Cd12 O2_4 1_555 1_555
O12_2 Cd7 1_555 1_555
C1_4 O11_2 1_555 1_555
C5_4 C11_4 1_555 1_555
C6_4 C10_4 1_555 1_555
C6_4 C15_4 1_555 1_555
C7_4 O2_4 1_555 1_555
N1_4 C16_4 1_555 1_555
N2_4 C16_4 1_555 1_555
N4_4 C17_4 1_555 1_555
N7_4 N12_4 1_555 1_555
N32 C17_4 1_555 1_555
O5_4 Cd12 1_555 1_555
C24_4 C25_4 1_555 1_555
C27_4 C30_4 1_555 1_555
C28_4 C29_4 1_555 1_555
C28_4 C32_4 1_555 1_555
C31_4 N15_4 1_555 1_555
N13_4 C33_4 1_555 1_555
N14_4 C33_4 1_555 1_555
N16_4 C34_4 1_555 1_555
N19_4 N24_4 1_555 1_555
N23_4 C34_4 1_555 1_555
N23_4 Cd12 1_555 1_555
N9_4 H23_4 1_555 1_555
C24_4 H27_4 1_555 1_555
N21_4 H28_4 1_555 1_555
C2_4 H31_4 1_555 1_555
C8_4 H32_4 1_555 1_555
H10_4 C14_4 1_555 1_555
H11_4 C14_4 1_555 1_555
C18_4 C19_4 1_555 1_555
C19_4 C20_4 1_555 1_555
C20_4 C14_4 1_555 1_555
H13_4 C20_4 1_555 1_555
O12_2 C18_4 1_555 1_555
Cd11 O12_2 1_555 1_555
C19_4 H26_4 1_555 1_555

#END
