
###############################################################################
#
# This file contains modified crystal structure data generated from the
# MOF subset of the Cambridge Structural Database (CSD) v543 
# hosted by the Cambridge Crystallographic Data Centre (CCDC).
#
# This work is licensed under the Creative Commons
# Attribution-NonCommercial-ShareAlike 4.0 International License.
# To view a copy of this license, visit
# http://creativecommons.org/licenses/by-nc-sa/4.0/
# or send a letter to
# Creative Commons, PO Box 1866, Mountain View, CA 94042, USA.
#
# CIF created using the CSD Python API on 29 September 2022
# The structure has been converted into the P1 space group
# The structure has a 3D framework
# The original CSD entry ULILEI is in the orthorhombic crystal system
# The framework has been calculated to contain at least 10.0% void space
# The void calculation uses a probe of radius 1.32A, grid spacing 0.4
#
###############################################################################

data_ULILEI
_chemical_formula_moiety         '(C208 H160 Cd8 N96 O16)n'
_symmetry_cell_setting           triclinic
_symmetry_space_group_name_H-M   'P 1'
_symmetry_Int_Tables_number      1
_space_group_name_Hall           'P 1'
loop_
_symmetry_equiv_pos_site_id
_symmetry_equiv_pos_as_xyz
1 x,y,z
_cell_length_a                   28.6376(15)
_cell_length_b                   10.5812(4)
_cell_length_c                   22.7685(10)
_cell_angle_alpha                90
_cell_angle_beta                 90
_cell_angle_gamma                90
_cell_volume                     6899.31
loop_
_atom_site_label
_atom_site_type_symbol
_atom_site_fract_x
_atom_site_fract_y
_atom_site_fract_z
C16 C 0.0921(3) 0.0600(7) 0.3399(3)
H10 H 0.1080 0.1363 0.3440
N1 N 0.0533(2) 0.0261(8) 0.3703(3)
N11 N 0.01106(12) 0.3165(3) 0.54555(16)
O1 O 0.06663(11) 0.2994(3) 0.41566(13)
H19 H 0.0881 0.2786 0.4396
H20 H 0.0558 0.3693 0.4279
Cd1 Cd 0.003710(13) 0.14397(3) 0.430998(13)
N14 N 0.05727(14) 0.0708(3) 0.50463(16)
C1 C 0.61471(18) 0.1176(4) 0.4396(2)
C2 C 0.65977(18) 0.1689(4) 0.4194(2)
C3 C 0.68433(19) 0.2498(5) 0.4549(2)
H1 H 0.6722 0.2726 0.4913
C4 C 0.72693(19) 0.2976(5) 0.4370(2)
H2 H 0.7434 0.3522 0.4614
C5 C 0.74523(18) 0.2646(5) 0.3829(2)
C6 C 0.7213(2) 0.1814(5) 0.3477(3)
H3 H 0.7338 0.1566 0.3118
C7 C 0.6789(2) 0.1348(5) 0.3659(2)
H4 H 0.6627 0.0791 0.3417
C8 C 0.82390(18) 0.3278(5) 0.4017(2)
C9 C 0.84576(16) 0.4429(5) 0.4056(2)
H5 H 0.8345 0.5118 0.3846
C10 C 0.88468(16) 0.4556(4) 0.44109(18)
H6 H 0.8999 0.5330 0.4439
C11 C 0.90109(15) 0.3509(4) 0.47283(19)
C12 C 0.87821(17) 0.2359(5) 0.4687(2)
H7 H 0.8890 0.1665 0.4898
C13 C 0.83893(19) 0.2244(5) 0.4329(2)
H8 H 0.8231 0.1478 0.4303
C14 C 0.94411(14) 0.3606(3) 0.50809(18)
N5 N 0.59881(13) 0.1333(3) 0.49440(17)
N6 N 0.55727(14) 0.0708(3) 0.49537(16)
N7 N 0.54983(14) 0.0209(3) 0.44303(16)
N8 N 0.58535(15) 0.0493(3) 0.40642(18)
N9 N 0.95343(12) 0.4519(3) 0.54643(14)
N10 N 0.99630(13) 0.4216(3) 0.56911(14)
N12 N 0.97889(12) 0.2760(3) 0.50595(15)
O2 O 0.78628(12) 0.3159(4) 0.36160(16)
N13 N 0.9574(3) 0.2474(8) 0.3591(3)
Cd4 Cd 0.503710(13) 0.14397(3) 0.569002(13)
C15 C 0.4587(5) 0.0885(8) 0.3507(5)
H9 H 0.4851 0.1333 0.3624
C17 C 0.3958(3) 0.0343(7) 0.3028(3)
H11 H 0.3709 0.0339 0.2765
N2 N 0.4266(2) 0.1295(7) 0.3112(4)
C18 C 0.43106(15) 0.2512(4) 0.28063(19)
C19 C 0.43578(15) 0.2612(4) 0.21978(19)
H12 H 0.4377 0.1890 0.1966
C20 C 0.43751(15) 0.3799(4) 0.19439(19)
H13 H 0.4402 0.3881 0.1539
C21 C 0.43521(14) 0.4857(4) 0.22946(18)
C22 C 0.42950(14) 0.4768(4) 0.28998(17)
H14 H 0.4271 0.5490 0.3131
C23 C 0.42746(15) 0.3576(4) 0.31490(19)
H15 H 0.4236 0.3494 0.3553
C24 C 0.4056(3) 0.6983(6) 0.2101(3)
H16 H 0.3810 0.7014 0.2367
C25 C 0.4194(3) 0.7909(6) 0.1729(3)
H17 H 0.4051 0.8695 0.1696
C26 C 0.4670(5) 0.6355(9) 0.1595(5)
H18 H 0.4918 0.5863 0.1464
N3 N 0.4353(3) 0.5991(6) 0.2005(4)
N4 N 0.4574(3) 0.7526(8) 0.1409(3)
Cd3 Cd 0.503710(13) 0.85603(3) 0.069002(13)
C1_2 C 0.11471(18) 0.8824(4) 0.0604(2)
C2_2 C 0.15977(18) 0.8311(4) 0.0806(2)
C3_2 C 0.18433(19) 0.7502(5) 0.0451(2)
H1_2 H 0.1722 0.7274 0.0087
C4_2 C 0.22693(19) 0.7024(5) 0.0630(2)
H2_2 H 0.2434 0.6478 0.0386
C5_2 C 0.24523(18) 0.7354(5) 0.1171(2)
C6_2 C 0.2213(2) 0.8186(5) 0.1523(3)
H3_2 H 0.2338 0.8434 0.1882
C7_2 C 0.1789(2) 0.8652(5) 0.1341(2)
H4_2 H 0.1627 0.9209 0.1583
C8_2 C 0.32390(18) 0.6722(5) 0.0983(2)
C9_2 C 0.34576(16) 0.5571(5) 0.0944(2)
H5_2 H 0.3345 0.4882 0.1154
C10_2 C 0.38468(16) 0.5444(4) 0.05891(18)
H6_2 H 0.3999 0.4670 0.0561
C11_2 C 0.40109(15) 0.6491(4) 0.02717(19)
C12_2 C 0.37821(17) 0.7641(5) 0.0313(2)
H7_2 H 0.3890 0.8335 0.0102
C13_2 C 0.33893(19) 0.7756(5) 0.0671(2)
H8_2 H 0.3231 0.8522 0.0697
C16_2 C 0.5921(3) 0.9400(7) 0.1601(3)
H10_2 H 0.6080 0.8637 0.1560
N1_2 N 0.5533(2) 0.9739(8) 0.1297(3)
N5_2 N 0.09881(13) 0.8667(3) 0.00560(17)
N6_2 N 0.05727(14) 0.9292(3) 0.00463(16)
N7_2 N 0.04983(14) 0.9791(3) 0.05697(16)
N8_2 N 0.08535(15) 0.9507(3) 0.09358(18)
O1_2 O 0.56663(11) 0.7006(3) 0.08434(13)
H19_2 H 0.5881 0.7214 0.0604
H20_2 H 0.5558 0.6307 0.0721
O2_2 O 0.28628(12) 0.6841(4) 0.13840(16)
C14_2 C 0.44411(14) 0.6394(3) 0.99191(18)
N9_2 N 0.45343(12) 0.5481(3) 0.95357(14)
N10_2 N 0.49630(13) 0.5784(3) 0.93089(14)
N11_2 N 0.51106(12) 0.6835(3) 0.95445(16)
N12_2 N 0.47889(12) 0.7240(3) 0.99405(15)
N14_2 N 0.55727(14) 0.9292(3) 0.99537(16)
Cd4_2 Cd 0.003710(13) 0.85603(3) 0.930998(13)
C15_2 C 0.9587(5) 0.9115(8) 0.1493(5)
H9_2 H 0.9851 0.8667 0.1376
C17_2 C 0.8958(3) 0.9657(7) 0.1972(3)
H11_2 H 0.8709 0.9661 0.2235
N2_2 N 0.9266(2) 0.8705(7) 0.1888(4)
C18_2 C 0.93106(15) 0.7488(4) 0.21937(19)
C19_2 C 0.93578(15) 0.7388(4) 0.28022(19)
H12_2 H 0.9377 0.8110 0.3034
C20_2 C 0.93751(15) 0.6201(4) 0.30561(19)
H13_2 H 0.9402 0.6119 0.3461
C21_2 C 0.93521(14) 0.5143(4) 0.27054(18)
C22_2 C 0.92950(14) 0.5232(4) 0.21002(17)
H14_2 H 0.9271 0.4510 0.1869
C23_2 C 0.92746(15) 0.6424(4) 0.18510(19)
H15_2 H 0.9236 0.6506 0.1447
C24_2 C 0.9056(3) 0.3017(6) 0.2899(3)
H16_2 H 0.8810 0.2986 0.2633
C25_2 C 0.9194(3) 0.2091(6) 0.3271(3)
H17_2 H 0.9051 0.1305 0.3304
C26_2 C 0.9670(5) 0.3645(9) 0.3405(5)
H18_2 H 0.9918 0.4137 0.3536
N3_2 N 0.9353(3) 0.4009(6) 0.2995(4)
N15 N 0.04983(14) 0.0209(3) 0.55697(16)
C15_3 C 0.9587(5) 0.0885(8) 0.6493(5)
H9_3 H 0.9851 0.1333 0.6376
C17_3 C 0.8958(3) 0.0343(7) 0.6972(3)
H11_3 H 0.8709 0.0339 0.7235
N2_3 N 0.9266(2) 0.1295(7) 0.6888(4)
C18_3 C 0.93106(15) 0.2512(4) 0.71937(19)
C19_3 C 0.93578(15) 0.2612(4) 0.78022(19)
H12_3 H 0.9377 0.1890 0.8034
C20_3 C 0.93751(15) 0.3799(4) 0.80561(19)
H13_3 H 0.9402 0.3881 0.8461
C21_3 C 0.93521(14) 0.4857(4) 0.77054(18)
C22_3 C 0.92950(14) 0.4768(4) 0.71002(17)
H14_3 H 0.9271 0.5490 0.6869
C23_3 C 0.92746(15) 0.3576(4) 0.68510(19)
H15_3 H 0.9236 0.3494 0.6447
C24_3 C 0.9056(3) 0.6983(6) 0.7899(3)
H16_3 H 0.8810 0.7014 0.7633
C25_3 C 0.9194(3) 0.7909(6) 0.8271(3)
H17_3 H 0.9051 0.8695 0.8304
C26_3 C 0.9670(5) 0.6355(9) 0.8405(5)
H18_3 H 0.9918 0.5863 0.8536
N3_3 N 0.9353(3) 0.5991(6) 0.7995(4)
N4_2 N 0.9574(3) 0.7526(8) 0.8591(3)
C1_3 C 0.11471(18) 0.1176(4) 0.5604(2)
C2_3 C 0.15977(18) 0.1689(4) 0.5806(2)
C3_3 C 0.18433(19) 0.2498(5) 0.5451(2)
H1_3 H 0.1722 0.2726 0.5087
C4_3 C 0.22693(19) 0.2976(5) 0.5630(2)
H2_3 H 0.2434 0.3522 0.5386
C5_3 C 0.24523(18) 0.2646(5) 0.6171(2)
C6_3 C 0.2213(2) 0.1814(5) 0.6523(3)
H3_3 H 0.2338 0.1566 0.6882
C7_3 C 0.1789(2) 0.1348(5) 0.6341(2)
H4_3 H 0.1627 0.0791 0.6583
C8_3 C 0.32390(18) 0.3278(5) 0.5983(2)
C9_3 C 0.34576(16) 0.4429(5) 0.5944(2)
H5_3 H 0.3345 0.5118 0.6154
C10_3 C 0.38468(16) 0.4556(4) 0.55891(18)
H6_3 H 0.3999 0.5330 0.5561
C11_3 C 0.40109(15) 0.3509(4) 0.52717(19)
C12_3 C 0.37821(17) 0.2359(5) 0.5313(2)
H7_3 H 0.3890 0.1665 0.5102
C13_3 C 0.33893(19) 0.2244(5) 0.5671(2)
H8_3 H 0.3231 0.1478 0.5697
C14_3 C 0.44411(14) 0.3606(3) 0.49191(18)
C16_3 C 0.5921(3) 0.0600(7) 0.6601(3)
H10_3 H 0.6080 0.1363 0.6560
N1_3 N 0.5533(2) 0.0261(8) 0.6297(3)
N5_3 N 0.09881(13) 0.1333(3) 0.50560(17)
N8_3 N 0.08535(15) 0.0493(3) 0.59358(18)
N9_3 N 0.45343(12) 0.4519(3) 0.45357(14)
N10_3 N 0.49630(13) 0.4216(3) 0.43089(14)
N11_3 N 0.51106(12) 0.3165(3) 0.45445(16)
N12_3 N 0.47889(12) 0.2760(3) 0.49405(15)
O1_3 O 0.56663(11) 0.2994(3) 0.58434(13)
H19_3 H 0.5881 0.2786 0.5604
H20_3 H 0.5558 0.3693 0.5721
O2_3 O 0.28628(12) 0.3159(4) 0.63840(16)
N13_2 N 0.4574(3) 0.2474(8) 0.6409(3)
C15_4 C 0.4587(5) 0.9115(8) 0.8507(5)
H9_4 H 0.4851 0.8667 0.8624
C17_4 C 0.3958(3) 0.9657(7) 0.8028(3)
H11_4 H 0.3709 0.9661 0.7765
N2_4 N 0.4266(2) 0.8705(7) 0.8112(4)
C18_4 C 0.43106(15) 0.7488(4) 0.78063(19)
C19_4 C 0.43578(15) 0.7388(4) 0.71978(19)
H12_4 H 0.4377 0.8110 0.6966
C20_4 C 0.43751(15) 0.6201(4) 0.69439(19)
H13_4 H 0.4402 0.6119 0.6539
C21_4 C 0.43521(14) 0.5143(4) 0.72946(18)
C22_4 C 0.42950(14) 0.5232(4) 0.78998(17)
H14_4 H 0.4271 0.4510 0.8131
C23_4 C 0.42746(15) 0.6424(4) 0.81490(19)
H15_4 H 0.4236 0.6506 0.8553
C24_4 C 0.4056(3) 0.3017(6) 0.7101(3)
H16_4 H 0.3810 0.2986 0.7367
C25_4 C 0.4194(3) 0.2091(6) 0.6729(3)
H17_4 H 0.4051 0.1305 0.6696
C26_4 C 0.4670(5) 0.3645(9) 0.6595(5)
H18_4 H 0.4918 0.4137 0.6464
N3_4 N 0.4353(3) 0.4009(6) 0.7005(4)
N15_2 N 0.54983(14) 0.9791(3) 0.94303(16)
N11_4 N 0.01106(12) 0.6835(3) 0.04555(16)
C16_4 C 0.0921(3) 0.9400(7) 0.8399(3)
H10_4 H 0.1080 0.8637 0.8440
N1_4 N 0.0533(2) 0.9739(8) 0.8703(3)
O1_4 O 0.06663(11) 0.7006(3) 0.91566(13)
H19_4 H 0.0881 0.7214 0.9396
H20_4 H 0.0558 0.6307 0.9279
C14_4 C 0.94411(14) 0.6394(3) 0.00809(18)
N9_4 N 0.95343(12) 0.5481(3) 0.04643(14)
N10_4 N 0.99630(13) 0.5784(3) 0.06911(14)
N12_4 N 0.97889(12) 0.7240(3) 0.00595(15)
C1_4 C 0.61471(18) 0.8824(4) 0.9396(2)
C2_4 C 0.65977(18) 0.8311(4) 0.9194(2)
C3_4 C 0.68433(19) 0.7502(5) 0.9549(2)
H1_4 H 0.6722 0.7274 0.9913
C4_4 C 0.72693(19) 0.7024(5) 0.9370(2)
H2_4 H 0.7434 0.6478 0.9614
C5_4 C 0.74523(18) 0.7354(5) 0.8829(2)
C6_4 C 0.7213(2) 0.8186(5) 0.8477(3)
H3_4 H 0.7338 0.8434 0.8118
C7_4 C 0.6789(2) 0.8652(5) 0.8659(2)
H4_4 H 0.6627 0.9209 0.8417
C8_4 C 0.82390(18) 0.6722(5) 0.9017(2)
C9_4 C 0.84576(16) 0.5571(5) 0.9056(2)
H5_4 H 0.8345 0.4882 0.8846
C10_4 C 0.88468(16) 0.5444(4) 0.94109(18)
H6_4 H 0.8999 0.4670 0.9439
C11_4 C 0.90109(15) 0.6491(4) 0.97283(19)
C12_4 C 0.87821(17) 0.7641(5) 0.9687(2)
H7_4 H 0.8890 0.8335 0.9898
C13_4 C 0.83893(19) 0.7756(5) 0.9329(2)
H8_4 H 0.8231 0.8522 0.9303
N5_4 N 0.59881(13) 0.8667(3) 0.99440(17)
N8_4 N 0.58535(15) 0.9507(3) 0.90642(18)
O2_4 O 0.78628(12) 0.6841(4) 0.86160(16)
C15_5 C 0.0413(5) 0.9115(8) 0.3507(5)
H9_5 H 0.0149 0.8667 0.3624
C17_5 C 0.1042(3) 0.9657(7) 0.3028(3)
H11_5 H 0.1291 0.9661 0.2765
N2_5 N 0.0734(2) 0.8705(7) 0.3112(4)
C18_5 C 0.06894(15) 0.7488(4) 0.28063(19)
C19_5 C 0.06422(15) 0.7388(4) 0.21978(19)
H12_5 H 0.0623 0.8110 0.1966
C20_5 C 0.06249(15) 0.6201(4) 0.19439(19)
H13_5 H 0.0598 0.6119 0.1539
C21_5 C 0.06479(14) 0.5143(4) 0.22946(18)
C22_5 C 0.07050(14) 0.5232(4) 0.28998(17)
H14_5 H 0.0729 0.4510 0.3131
C23_5 C 0.07254(15) 0.6424(4) 0.31490(19)
H15_5 H 0.0764 0.6506 0.3553
C24_5 C 0.0944(3) 0.3017(6) 0.2101(3)
H16_5 H 0.1190 0.2986 0.2367
C25_5 C 0.0806(3) 0.2091(6) 0.1729(3)
H17_5 H 0.0949 0.1305 0.1696
C26_5 C 0.0330(5) 0.3645(9) 0.1595(5)
H18_5 H 0.0082 0.4137 0.1464
N3_5 N 0.0647(3) 0.4009(6) 0.2005(4)
N4_3 N 0.0426(3) 0.2474(8) 0.1409(3)
N15_3 N 0.95017(14) 0.9791(3) 0.44303(16)
Cd2 Cd 0.496290(13) 0.85603(3) 0.430998(13)
Cd3_2 Cd 0.996290(13) 0.14397(3) 0.069002(13)
C1_5 C 0.88529(18) 0.8824(4) 0.4396(2)
C2_5 C 0.84023(18) 0.8311(4) 0.4194(2)
C3_5 C 0.81567(19) 0.7502(5) 0.4549(2)
H1_5 H 0.8278 0.7274 0.4913
C4_5 C 0.77307(19) 0.7024(5) 0.4370(2)
H2_5 H 0.7566 0.6478 0.4614
C5_5 C 0.75477(18) 0.7354(5) 0.3829(2)
C6_5 C 0.7787(2) 0.8186(5) 0.3477(3)
H3_5 H 0.7662 0.8434 0.3118
C7_5 C 0.8211(2) 0.8652(5) 0.3659(2)
H4_5 H 0.8373 0.9209 0.3417
C8_5 C 0.67610(18) 0.6722(5) 0.4017(2)
C9_5 C 0.65424(16) 0.5571(5) 0.4056(2)
H5_5 H 0.6655 0.4882 0.3846
C10_5 C 0.61532(16) 0.5444(4) 0.44109(18)
H6_5 H 0.6001 0.4670 0.4439
C11_5 C 0.59891(15) 0.6491(4) 0.47283(19)
C12_5 C 0.62179(17) 0.7641(5) 0.4687(2)
H7_5 H 0.6110 0.8335 0.4898
C13_5 C 0.66107(19) 0.7756(5) 0.4329(2)
H8_5 H 0.6769 0.8522 0.4303
C14_5 C 0.55589(14) 0.6394(3) 0.50809(18)
C16_5 C 0.4079(3) 0.9400(7) 0.3399(3)
H10_5 H 0.3920 0.8637 0.3440
N1_5 N 0.4467(2) 0.9739(8) 0.3703(3)
N5_5 N 0.90119(13) 0.8667(3) 0.49440(17)
N6_3 N 0.94273(14) 0.9292(3) 0.49537(16)
N8_5 N 0.91465(15) 0.9507(3) 0.40642(18)
N9_5 N 0.54657(12) 0.5481(3) 0.54643(14)
N10_5 N 0.50370(13) 0.5784(3) 0.56911(14)
N11_5 N 0.48894(12) 0.6835(3) 0.54555(16)
N12_5 N 0.52111(12) 0.7240(3) 0.50595(15)
O1_5 O 0.43337(11) 0.7006(3) 0.41566(13)
H19_5 H 0.4119 0.7214 0.4396
H20_5 H 0.4442 0.6307 0.4279
O2_5 O 0.71372(12) 0.6841(4) 0.36160(16)
N13_3 N 0.5426(3) 0.7526(8) 0.3591(3)
N14_3 N 0.44273(14) 0.9292(3) 0.50463(16)
Cd4_3 Cd 0.996290(13) 0.85603(3) 0.569002(13)
C15_6 C 0.5413(5) 0.0885(8) 0.1493(5)
H9_6 H 0.5149 0.1333 0.1376
C17_6 C 0.6042(3) 0.0343(7) 0.1972(3)
H11_6 H 0.6291 0.0339 0.2235
N2_6 N 0.5734(2) 0.1295(7) 0.1888(4)
C18_6 C 0.56894(15) 0.2512(4) 0.21937(19)
C19_6 C 0.56422(15) 0.2612(4) 0.28022(19)
H12_6 H 0.5623 0.1890 0.3034
C20_6 C 0.56249(15) 0.3799(4) 0.30561(19)
H13_6 H 0.5598 0.3881 0.3461
C21_6 C 0.56479(14) 0.4857(4) 0.27054(18)
C22_6 C 0.57050(14) 0.4768(4) 0.21002(17)
H14_6 H 0.5729 0.5490 0.1869
C23_6 C 0.57254(15) 0.3576(4) 0.18510(19)
H15_6 H 0.5764 0.3494 0.1447
C24_6 C 0.5944(3) 0.6983(6) 0.2899(3)
H16_6 H 0.6190 0.7014 0.2633
C25_6 C 0.5806(3) 0.7909(6) 0.3271(3)
H17_6 H 0.5949 0.8695 0.3304
C26_6 C 0.5330(5) 0.6355(9) 0.3405(5)
H18_6 H 0.5082 0.5863 0.3536
N3_6 N 0.5647(3) 0.5991(6) 0.2995(4)
N15_4 N 0.45017(14) 0.0209(3) 0.05697(16)
C1_6 C 0.38529(18) 0.1176(4) 0.0604(2)
C2_6 C 0.34023(18) 0.1689(4) 0.0806(2)
C3_6 C 0.31567(19) 0.2498(5) 0.0451(2)
H1_6 H 0.3278 0.2726 0.0087
C4_6 C 0.27307(19) 0.2976(5) 0.0630(2)
H2_6 H 0.2566 0.3522 0.0386
C5_6 C 0.25477(18) 0.2646(5) 0.1171(2)
C6_6 C 0.2787(2) 0.1814(5) 0.1523(3)
H3_6 H 0.2662 0.1566 0.1882
C7_6 C 0.3211(2) 0.1348(5) 0.1341(2)
H4_6 H 0.3373 0.0791 0.1583
C8_6 C 0.17610(18) 0.3278(5) 0.0983(2)
C9_6 C 0.15424(16) 0.4429(5) 0.0944(2)
H5_6 H 0.1655 0.5118 0.1154
C10_6 C 0.11532(16) 0.4556(4) 0.05891(18)
H6_6 H 0.1001 0.5330 0.0561
C11_6 C 0.09891(15) 0.3509(4) 0.02717(19)
C12_6 C 0.12179(17) 0.2359(5) 0.0313(2)
H7_6 H 0.1110 0.1665 0.0102
C13_6 C 0.16107(19) 0.2244(5) 0.0671(2)
H8_6 H 0.1769 0.1478 0.0697
N5_6 N 0.40119(13) 0.1333(3) 0.00560(17)
N6_4 N 0.44273(14) 0.0708(3) 0.00463(16)
N8_6 N 0.41465(15) 0.0493(3) 0.09358(18)
O2_6 O 0.21372(12) 0.3159(4) 0.13840(16)
C14_6 C 0.05589(14) 0.3606(3) 0.99191(18)
N9_6 N 0.04657(12) 0.4519(3) 0.95357(14)
N10_6 N 0.00370(13) 0.4216(3) 0.93089(14)
N12_6 N 0.02111(12) 0.2760(3) 0.99405(15)
Cd4_4 Cd 0.496290(13) 0.14397(3) 0.930998(13)
C16_6 C 0.9079(3) 0.0600(7) 0.1601(3)
H10_6 H 0.8920 0.1363 0.1560
N1_6 N 0.9467(2) 0.0261(8) 0.1297(3)
O1_6 O 0.93337(11) 0.2994(3) 0.08434(13)
H19_6 H 0.9119 0.2786 0.0604
H20_6 H 0.9442 0.3693 0.0721
N11_6 N 0.98894(12) 0.3165(3) 0.95445(16)
N14_4 N 0.94273(14) 0.0708(3) 0.99537(16)
C1_7 C 0.38529(18) 0.8824(4) 0.5604(2)
C2_7 C 0.34023(18) 0.8311(4) 0.5806(2)
C3_7 C 0.31567(19) 0.7502(5) 0.5451(2)
H1_7 H 0.3278 0.7274 0.5087
C4_7 C 0.27307(19) 0.7024(5) 0.5630(2)
H2_7 H 0.2566 0.6478 0.5386
C5_7 C 0.25477(18) 0.7354(5) 0.6171(2)
C6_7 C 0.2787(2) 0.8186(5) 0.6523(3)
H3_7 H 0.2662 0.8434 0.6882
C7_7 C 0.3211(2) 0.8652(5) 0.6341(2)
H4_7 H 0.3373 0.9209 0.6583
C8_7 C 0.17610(18) 0.6722(5) 0.5983(2)
C9_7 C 0.15424(16) 0.5571(5) 0.5944(2)
H5_7 H 0.1655 0.4882 0.6154
C10_7 C 0.11532(16) 0.5444(4) 0.55891(18)
H6_7 H 0.1001 0.4670 0.5561
C11_7 C 0.09891(15) 0.6491(4) 0.52717(19)
C12_7 C 0.12179(17) 0.7641(5) 0.5313(2)
H7_7 H 0.1110 0.8335 0.5102
C13_7 C 0.16107(19) 0.7756(5) 0.5671(2)
H8_7 H 0.1769 0.8522 0.5697
C14_7 C 0.05589(14) 0.6394(3) 0.49191(18)
N5_7 N 0.40119(13) 0.8667(3) 0.50560(17)
N7_3 N 0.45017(14) 0.9791(3) 0.55697(16)
N8_7 N 0.41465(15) 0.9507(3) 0.59358(18)
N9_7 N 0.04657(12) 0.5481(3) 0.45357(14)
N10_7 N 0.00370(13) 0.5784(3) 0.43089(14)
N12_7 N 0.02111(12) 0.7240(3) 0.49405(15)
O2_7 O 0.21372(12) 0.6841(4) 0.63840(16)
N13_4 N 0.0426(3) 0.7526(8) 0.6409(3)
C16_7 C 0.9079(3) 0.9400(7) 0.6601(3)
H10_7 H 0.8920 0.8637 0.6560
N1_7 N 0.9467(2) 0.9739(8) 0.6297(3)
N11_7 N 0.98894(12) 0.6835(3) 0.45445(16)
O1_7 O 0.93337(11) 0.7006(3) 0.58434(13)
H19_7 H 0.9119 0.7214 0.5604
H20_7 H 0.9442 0.6307 0.5721
C15_7 C 0.5413(5) 0.9115(8) 0.6493(5)
H9_7 H 0.5149 0.8667 0.6376
C17_7 C 0.6042(3) 0.9657(7) 0.6972(3)
H11_7 H 0.6291 0.9661 0.7235
N2_7 N 0.5734(2) 0.8705(7) 0.6888(4)
C18_7 C 0.56894(15) 0.7488(4) 0.71937(19)
C19_7 C 0.56422(15) 0.7388(4) 0.78022(19)
H12_7 H 0.5623 0.8110 0.8034
C20_7 C 0.56249(15) 0.6201(4) 0.80561(19)
H13_7 H 0.5598 0.6119 0.8461
C21_7 C 0.56479(14) 0.5143(4) 0.77054(18)
C22_7 C 0.57050(14) 0.5232(4) 0.71002(17)
H14_7 H 0.5729 0.4510 0.6869
C23_7 C 0.57254(15) 0.6424(4) 0.68510(19)
H15_7 H 0.5764 0.6506 0.6447
C24_7 C 0.5944(3) 0.3017(6) 0.7899(3)
H16_7 H 0.6190 0.2986 0.7633
C25_7 C 0.5806(3) 0.2091(6) 0.8271(3)
H17_7 H 0.5949 0.1305 0.8304
C26_7 C 0.5330(5) 0.3645(9) 0.8405(5)
H18_7 H 0.5082 0.4137 0.8536
N3_7 N 0.5647(3) 0.4009(6) 0.7995(4)
N4_4 N 0.5426(3) 0.2474(8) 0.8591(3)
C14_8 C 0.55589(14) 0.3606(3) 0.00809(18)
N9_8 N 0.54657(12) 0.4519(3) 0.04643(14)
N10_8 N 0.50370(13) 0.4216(3) 0.06911(14)
N11_8 N 0.48894(12) 0.3165(3) 0.04555(16)
N12_8 N 0.52111(12) 0.2760(3) 0.00595(15)
C1_8 C 0.88529(18) 0.1176(4) 0.9396(2)
C2_8 C 0.84023(18) 0.1689(4) 0.9194(2)
C3_8 C 0.81567(19) 0.2498(5) 0.9549(2)
H1_8 H 0.8278 0.2726 0.9913
C4_8 C 0.77307(19) 0.2976(5) 0.9370(2)
H2_8 H 0.7566 0.3522 0.9614
C5_8 C 0.75477(18) 0.2646(5) 0.8829(2)
C6_8 C 0.7787(2) 0.1814(5) 0.8477(3)
H3_8 H 0.7662 0.1566 0.8118
C7_8 C 0.8211(2) 0.1348(5) 0.8659(2)
H4_8 H 0.8373 0.0791 0.8417
C8_8 C 0.67610(18) 0.3278(5) 0.9017(2)
C9_8 C 0.65424(16) 0.4429(5) 0.9056(2)
H5_8 H 0.6655 0.5118 0.8846
C10_8 C 0.61532(16) 0.4556(4) 0.94109(18)
H6_8 H 0.6001 0.5330 0.9439
C11_8 C 0.59891(15) 0.3509(4) 0.97283(19)
C12_8 C 0.62179(17) 0.2359(5) 0.9687(2)
H7_8 H 0.6110 0.1665 0.9898
C13_8 C 0.66107(19) 0.2244(5) 0.9329(2)
H8_8 H 0.6769 0.1478 0.9303
C16_8 C 0.4079(3) 0.0600(7) 0.8399(3)
H10_8 H 0.3920 0.1363 0.8440
N1_8 N 0.4467(2) 0.0261(8) 0.8703(3)
N5_8 N 0.90119(13) 0.1333(3) 0.99440(17)
N7_4 N 0.95017(14) 0.0209(3) 0.94303(16)
N8_8 N 0.91465(15) 0.0493(3) 0.90642(18)
O1_8 O 0.43337(11) 0.2994(3) 0.91566(13)
H19_8 H 0.4119 0.2786 0.9396
H20_8 H 0.4442 0.3693 0.9279
O2_8 O 0.71372(12) 0.3159(4) 0.86160(16)
C15_8 C 0.0413(5) 0.0885(8) 0.8507(5)
H9_8 H 0.0149 0.1333 0.8624
C17_8 C 0.1042(3) 0.0343(7) 0.8028(3)
H11_8 H 0.1291 0.0339 0.7765
N2_8 N 0.0734(2) 0.1295(7) 0.8112(4)
C18_8 C 0.06894(15) 0.2512(4) 0.78063(19)
C19_8 C 0.06422(15) 0.2612(4) 0.71978(19)
H12_8 H 0.0623 0.1890 0.6966
C20_8 C 0.06249(15) 0.3799(4) 0.69439(19)
H13_8 H 0.0598 0.3881 0.6539
C21_8 C 0.06479(14) 0.4857(4) 0.72946(18)
C22_8 C 0.07050(14) 0.4768(4) 0.78998(17)
H14_8 H 0.0729 0.5490 0.8131
C23_8 C 0.07254(15) 0.3576(4) 0.81490(19)
H15_8 H 0.0764 0.3494 0.8553
C24_8 C 0.0944(3) 0.6983(6) 0.7101(3)
H16_8 H 0.1190 0.7014 0.7367
C25_8 C 0.0806(3) 0.7909(6) 0.6729(3)
H17_8 H 0.0949 0.8695 0.6696
C26_8 C 0.0330(5) 0.6355(9) 0.6595(5)
H18_8 H 0.0082 0.5863 0.6464
N3_8 N 0.0647(3) 0.5991(6) 0.7005(4)
loop_
_geom_bond_atom_site_label_1
_geom_bond_atom_site_label_2
_geom_bond_site_symmetry_1
_geom_bond_site_symmetry_2
C16 H10 1_555 1_555
O1 H19 1_555 1_555
H20 O1 1_555 1_555
Cd1 N1 1_555 1_555
N14 Cd1 1_555 1_555
C16 N1 1_555 1_555
O1 Cd1 1_555 1_555
C1 C2 1_555 1_555
C2 C3 1_555 1_555
C3 H1 1_555 1_555
C4 C3 1_555 1_555
H2 C4 1_555 1_555
C5 C4 1_555 1_555
C6 C5 1_555 1_555
H3 C6 1_555 1_555
C7 C2 1_555 1_555
H4 C7 1_555 1_555
C8 C9 1_555 1_555
C9 H5 1_555 1_555
C10 C9 1_555 1_555
H6 C10 1_555 1_555
C11 C10 1_555 1_555
C12 C11 1_555 1_555
H7 C12 1_555 1_555
C13 C8 1_555 1_555
H8 C13 1_555 1_555
C14 C11 1_555 1_555
N5 C1 1_555 1_555
N6 N5 1_555 1_555
N7 N6 1_555 1_555
N8 C1 1_555 1_555
N9 C14 1_555 1_555
N10 N9 1_555 1_555
N12 C14 1_555 1_555
O2 C5 1_555 1_555
Cd4 N6 1_555 1_555
C6 C7 1_555 1_555
C8 O2 1_555 1_555
C12 C13 1_555 1_555
N7 N8 1_555 1_555
C15 H9 1_555 1_555
H11 C17 1_555 1_555
N2 C15 1_555 1_555
C18 N2 1_555 1_555
C19 C18 1_555 1_555
H12 C19 1_555 1_555
C20 C19 1_555 1_555
H13 C20 1_555 1_555
C21 C20 1_555 1_555
C22 C21 1_555 1_555
H14 C22 1_555 1_555
C23 C18 1_555 1_555
H15 C23 1_555 1_555
C24 H16 1_555 1_555
C25 C24 1_555 1_555
H17 C25 1_555 1_555
C26 H18 1_555 1_555
N3 C21 1_555 1_555
N4 C25 1_555 1_555
Cd3 N4 1_555 1_555
C17 N2 1_555 1_555
C22 C23 1_555 1_555
C24 N3 1_555 1_555
C26 N3 1_555 1_555
C26 N4 1_555 1_555
C1_2 C2_2 1_555 1_555
C2_2 C3_2 1_555 1_555
C3_2 H1_2 1_555 1_555
C4_2 C3_2 1_555 1_555
H2_2 C4_2 1_555 1_555
C5_2 C4_2 1_555 1_555
C6_2 C5_2 1_555 1_555
H3_2 C6_2 1_555 1_555
C7_2 C2_2 1_555 1_555
H4_2 C7_2 1_555 1_555
C8_2 C9_2 1_555 1_555
C9_2 H5_2 1_555 1_555
C10_2 C9_2 1_555 1_555
H6_2 C10_2 1_555 1_555
C11_2 C10_2 1_555 1_555
C12_2 C11_2 1_555 1_555
H7_2 C12_2 1_555 1_555
C13_2 C8_2 1_555 1_555
H8_2 C13_2 1_555 1_555
C16_2 H10_2 1_555 1_555
N5_2 C1_2 1_555 1_555
N6_2 N5_2 1_555 1_555
N7_2 N6_2 1_555 1_555
N8_2 C1_2 1_555 1_555
O1_2 H19_2 1_555 1_555
H20_2 O1_2 1_555 1_555
O2_2 C5_2 1_555 1_555
Cd3 N1_2 1_555 1_555
C6_2 C7_2 1_555 1_555
C8_2 O2_2 1_555 1_555
C12_2 C13_2 1_555 1_555
C16_2 N1_2 1_555 1_555
N7_2 N8_2 1_555 1_555
O1_2 Cd3 1_555 1_555
N9_2 C14_2 1_555 1_555
N10_2 N9_2 1_555 1_555
N11_2 N10_2 1_555 1_555
N12_2 C14_2 1_555 1_555
N11_2 N12_2 1_555 1_555
C15_2 H9_2 1_555 1_555
H11_2 C17_2 1_555 1_555
N2_2 C15_2 1_555 1_555
C18_2 N2_2 1_555 1_555
C19_2 C18_2 1_555 1_555
H12_2 C19_2 1_555 1_555
C20_2 C19_2 1_555 1_555
H13_2 C20_2 1_555 1_555
C21_2 C20_2 1_555 1_555
C22_2 C21_2 1_555 1_555
H14_2 C22_2 1_555 1_555
C23_2 C18_2 1_555 1_555
H15_2 C23_2 1_555 1_555
C24_2 H16_2 1_555 1_555
C25_2 C24_2 1_555 1_555
H17_2 C25_2 1_555 1_555
C26_2 H18_2 1_555 1_555
N3_2 C21_2 1_555 1_555
N13 C25_2 1_555 1_555
C17_2 N2_2 1_555 1_555
C22_2 C23_2 1_555 1_555
C24_2 N3_2 1_555 1_555
C26_2 N3_2 1_555 1_555
C26_2 N13 1_555 1_555
C15_3 H9_3 1_555 1_555
H11_3 C17_3 1_555 1_555
N2_3 C15_3 1_555 1_555
C18_3 N2_3 1_555 1_555
C19_3 C18_3 1_555 1_555
H12_3 C19_3 1_555 1_555
C20_3 C19_3 1_555 1_555
H13_3 C20_3 1_555 1_555
C21_3 C20_3 1_555 1_555
C22_3 C21_3 1_555 1_555
H14_3 C22_3 1_555 1_555
C23_3 C18_3 1_555 1_555
H15_3 C23_3 1_555 1_555
C24_3 H16_3 1_555 1_555
C25_3 C24_3 1_555 1_555
H17_3 C25_3 1_555 1_555
C26_3 H18_3 1_555 1_555
N3_3 C21_3 1_555 1_555
N4_2 C25_3 1_555 1_555
C17_3 N2_3 1_555 1_555
C22_3 C23_3 1_555 1_555
C24_3 N3_3 1_555 1_555
C26_3 N3_3 1_555 1_555
C26_3 N4_2 1_555 1_555
C1_3 C2_3 1_555 1_555
C2_3 C3_3 1_555 1_555
C3_3 H1_3 1_555 1_555
C4_3 C3_3 1_555 1_555
H2_3 C4_3 1_555 1_555
C5_3 C4_3 1_555 1_555
C6_3 C5_3 1_555 1_555
H3_3 C6_3 1_555 1_555
C7_3 C2_3 1_555 1_555
H4_3 C7_3 1_555 1_555
C8_3 C9_3 1_555 1_555
C9_3 H5_3 1_555 1_555
C10_3 C9_3 1_555 1_555
H6_3 C10_3 1_555 1_555
C11_3 C10_3 1_555 1_555
C12_3 C11_3 1_555 1_555
H7_3 C12_3 1_555 1_555
C13_3 C8_3 1_555 1_555
H8_3 C13_3 1_555 1_555
C14_3 C11_3 1_555 1_555
C16_3 H10_3 1_555 1_555
N5_3 C1_3 1_555 1_555
N14 N5_3 1_555 1_555
N15 N14 1_555 1_555
N8_3 C1_3 1_555 1_555
N9_3 C14_3 1_555 1_555
N10_3 N9_3 1_555 1_555
N11_3 N10_3 1_555 1_555
N12_3 C14_3 1_555 1_555
O1_3 H19_3 1_555 1_555
H20_3 O1_3 1_555 1_555
O2_3 C5_3 1_555 1_555
Cd4 N1_3 1_555 1_555
N13_2 Cd4 1_555 1_555
C6_3 C7_3 1_555 1_555
C8_3 O2_3 1_555 1_555
C12_3 C13_3 1_555 1_555
C16_3 N1_3 1_555 1_555
N15 N8_3 1_555 1_555
N11_3 N12_3 1_555 1_555
N12_3 Cd4 1_555 1_555
O1_3 Cd4 1_555 1_555
C15_4 H9_4 1_555 1_555
H11_4 C17_4 1_555 1_555
N2_4 C15_4 1_555 1_555
C18_4 N2_4 1_555 1_555
C19_4 C18_4 1_555 1_555
H12_4 C19_4 1_555 1_555
C20_4 C19_4 1_555 1_555
H13_4 C20_4 1_555 1_555
C21_4 C20_4 1_555 1_555
C22_4 C21_4 1_555 1_555
H14_4 C22_4 1_555 1_555
C23_4 C18_4 1_555 1_555
H15_4 C23_4 1_555 1_555
C24_4 H16_4 1_555 1_555
C25_4 C24_4 1_555 1_555
H17_4 C25_4 1_555 1_555
C26_4 H18_4 1_555 1_555
N3_4 C21_4 1_555 1_555
N13_2 C25_4 1_555 1_555
C17_4 N2_4 1_555 1_555
C22_4 C23_4 1_555 1_555
C24_4 N3_4 1_555 1_555
C26_4 N3_4 1_555 1_555
C26_4 N13_2 1_555 1_555
C16_4 H10_4 1_555 1_555
O1_4 H19_4 1_555 1_555
H20_4 O1_4 1_555 1_555
Cd4_2 N1_4 1_555 1_555
C16_4 N1_4 1_555 1_555
O1_4 Cd4_2 1_555 1_555
N9_4 C14_4 1_555 1_555
N10_4 N9_4 1_555 1_555
N12_4 C14_4 1_555 1_555
C1_4 C2_4 1_555 1_555
C2_4 C3_4 1_555 1_555
C3_4 H1_4 1_555 1_555
C4_4 C3_4 1_555 1_555
H2_4 C4_4 1_555 1_555
C5_4 C4_4 1_555 1_555
C6_4 C5_4 1_555 1_555
H3_4 C6_4 1_555 1_555
C7_4 C2_4 1_555 1_555
H4_4 C7_4 1_555 1_555
C8_4 C9_4 1_555 1_555
C9_4 H5_4 1_555 1_555
C10_4 C9_4 1_555 1_555
H6_4 C10_4 1_555 1_555
C11_4 C10_4 1_555 1_555
C12_4 C11_4 1_555 1_555
H7_4 C12_4 1_555 1_555
C13_4 C8_4 1_555 1_555
H8_4 C13_4 1_555 1_555
N5_4 C1_4 1_555 1_555
N14_2 N5_4 1_555 1_555
N15_2 N14_2 1_555 1_555
N8_4 C1_4 1_555 1_555
O2_4 C5_4 1_555 1_555
C6_4 C7_4 1_555 1_555
C8_4 O2_4 1_555 1_555
C12_4 C13_4 1_555 1_555
N15_2 N8_4 1_555 1_555
C15_5 H9_5 1_555 1_555
H11_5 C17_5 1_555 1_555
N2_5 C15_5 1_555 1_555
C18_5 N2_5 1_555 1_555
C19_5 C18_5 1_555 1_555
H12_5 C19_5 1_555 1_555
C20_5 C19_5 1_555 1_555
H13_5 C20_5 1_555 1_555
C21_5 C20_5 1_555 1_555
C22_5 C21_5 1_555 1_555
H14_5 C22_5 1_555 1_555
C23_5 C18_5 1_555 1_555
H15_5 C23_5 1_555 1_555
C24_5 H16_5 1_555 1_555
C25_5 C24_5 1_555 1_555
H17_5 C25_5 1_555 1_555
C26_5 H18_5 1_555 1_555
N3_5 C21_5 1_555 1_555
N4_3 C25_5 1_555 1_555
C17_5 N2_5 1_555 1_555
C22_5 C23_5 1_555 1_555
C24_5 N3_5 1_555 1_555
C26_5 N3_5 1_555 1_555
C26_5 N4_3 1_555 1_555
C1_5 C2_5 1_555 1_555
C2_5 C3_5 1_555 1_555
C3_5 H1_5 1_555 1_555
C4_5 C3_5 1_555 1_555
H2_5 C4_5 1_555 1_555
C5_5 C4_5 1_555 1_555
C6_5 C5_5 1_555 1_555
H3_5 C6_5 1_555 1_555
C7_5 C2_5 1_555 1_555
H4_5 C7_5 1_555 1_555
C8_5 C9_5 1_555 1_555
C9_5 H5_5 1_555 1_555
C10_5 C9_5 1_555 1_555
H6_5 C10_5 1_555 1_555
C11_5 C10_5 1_555 1_555
C12_5 C11_5 1_555 1_555
H7_5 C12_5 1_555 1_555
C13_5 C8_5 1_555 1_555
H8_5 C13_5 1_555 1_555
C14_5 C11_5 1_555 1_555
C16_5 H10_5 1_555 1_555
N5_5 C1_5 1_555 1_555
N6_3 N5_5 1_555 1_555
N15_3 N6_3 1_555 1_555
N8_5 C1_5 1_555 1_555
N9_5 C14_5 1_555 1_555
N10_5 N9_5 1_555 1_555
N11_5 N10_5 1_555 1_555
N12_5 C14_5 1_555 1_555
O1_5 H19_5 1_555 1_555
H20_5 O1_5 1_555 1_555
O2_5 C5_5 1_555 1_555
Cd2 N1_5 1_555 1_555
N13_3 Cd2 1_555 1_555
N14_3 Cd2 1_555 1_555
Cd4_3 N6_3 1_555 1_555
C6_5 C7_5 1_555 1_555
C8_5 O2_5 1_555 1_555
C12_5 C13_5 1_555 1_555
C16_5 N1_5 1_555 1_555
N15_3 N8_5 1_555 1_555
N11_5 N12_5 1_555 1_555
N12_5 Cd2 1_555 1_555
O1_5 Cd2 1_555 1_555
C15_6 H9_6 1_555 1_555
H11_6 C17_6 1_555 1_555
N2_6 C15_6 1_555 1_555
C18_6 N2_6 1_555 1_555
C19_6 C18_6 1_555 1_555
H12_6 C19_6 1_555 1_555
C20_6 C19_6 1_555 1_555
H13_6 C20_6 1_555 1_555
C21_6 C20_6 1_555 1_555
C22_6 C21_6 1_555 1_555
H14_6 C22_6 1_555 1_555
C23_6 C18_6 1_555 1_555
H15_6 C23_6 1_555 1_555
C24_6 H16_6 1_555 1_555
C25_6 C24_6 1_555 1_555
H17_6 C25_6 1_555 1_555
C26_6 H18_6 1_555 1_555
N3_6 C21_6 1_555 1_555
N13_3 C25_6 1_555 1_555
C17_6 N2_6 1_555 1_555
C22_6 C23_6 1_555 1_555
C24_6 N3_6 1_555 1_555
C26_6 N3_6 1_555 1_555
C26_6 N13_3 1_555 1_555
C1_6 C2_6 1_555 1_555
C2_6 C3_6 1_555 1_555
C3_6 H1_6 1_555 1_555
C4_6 C3_6 1_555 1_555
H2_6 C4_6 1_555 1_555
C5_6 C4_6 1_555 1_555
C6_6 C5_6 1_555 1_555
H3_6 C6_6 1_555 1_555
C7_6 C2_6 1_555 1_555
H4_6 C7_6 1_555 1_555
C8_6 C9_6 1_555 1_555
C9_6 H5_6 1_555 1_555
C10_6 C9_6 1_555 1_555
H6_6 C10_6 1_555 1_555
C11_6 C10_6 1_555 1_555
C12_6 C11_6 1_555 1_555
H7_6 C12_6 1_555 1_555
C13_6 C8_6 1_555 1_555
H8_6 C13_6 1_555 1_555
N5_6 C1_6 1_555 1_555
N6_4 N5_6 1_555 1_555
N15_4 N6_4 1_555 1_555
N8_6 C1_6 1_555 1_555
O2_6 C5_6 1_555 1_555
C6_6 C7_6 1_555 1_555
C8_6 O2_6 1_555 1_555
C12_6 C13_6 1_555 1_555
N15_4 N8_6 1_555 1_555
N9_6 C14_6 1_555 1_555
N10_6 N9_6 1_555 1_555
N12_6 C14_6 1_555 1_555
C16_6 H10_6 1_555 1_555
O1_6 H19_6 1_555 1_555
H20_6 O1_6 1_555 1_555
Cd3_2 N1_6 1_555 1_555
C16_6 N1_6 1_555 1_555
O1_6 Cd3_2 1_555 1_555
C1_7 C2_7 1_555 1_555
C2_7 C3_7 1_555 1_555
C3_7 H1_7 1_555 1_555
C4_7 C3_7 1_555 1_555
H2_7 C4_7 1_555 1_555
C5_7 C4_7 1_555 1_555
C6_7 C5_7 1_555 1_555
H3_7 C6_7 1_555 1_555
C7_7 C2_7 1_555 1_555
H4_7 C7_7 1_555 1_555
C8_7 C9_7 1_555 1_555
C9_7 H5_7 1_555 1_555
C10_7 C9_7 1_555 1_555
H6_7 C10_7 1_555 1_555
C11_7 C10_7 1_555 1_555
C12_7 C11_7 1_555 1_555
H7_7 C12_7 1_555 1_555
C13_7 C8_7 1_555 1_555
H8_7 C13_7 1_555 1_555
C14_7 C11_7 1_555 1_555
N5_7 C1_7 1_555 1_555
N14_3 N5_7 1_555 1_555
N7_3 N14_3 1_555 1_555
N8_7 C1_7 1_555 1_555
N9_7 C14_7 1_555 1_555
N10_7 N9_7 1_555 1_555
N12_7 C14_7 1_555 1_555
O2_7 C5_7 1_555 1_555
C6_7 C7_7 1_555 1_555
C8_7 O2_7 1_555 1_555
C12_7 C13_7 1_555 1_555
N7_3 N8_7 1_555 1_555
C16_7 H10_7 1_555 1_555
O1_7 H19_7 1_555 1_555
H20_7 O1_7 1_555 1_555
Cd4_3 N1_7 1_555 1_555
C16_7 N1_7 1_555 1_555
O1_7 Cd4_3 1_555 1_555
C15_7 H9_7 1_555 1_555
H11_7 C17_7 1_555 1_555
N2_7 C15_7 1_555 1_555
C18_7 N2_7 1_555 1_555
C19_7 C18_7 1_555 1_555
H12_7 C19_7 1_555 1_555
C20_7 C19_7 1_555 1_555
H13_7 C20_7 1_555 1_555
C21_7 C20_7 1_555 1_555
C22_7 C21_7 1_555 1_555
H14_7 C22_7 1_555 1_555
C23_7 C18_7 1_555 1_555
H15_7 C23_7 1_555 1_555
C24_7 H16_7 1_555 1_555
C25_7 C24_7 1_555 1_555
H17_7 C25_7 1_555 1_555
C26_7 H18_7 1_555 1_555
N3_7 C21_7 1_555 1_555
N4_4 C25_7 1_555 1_555
Cd4_4 N4_4 1_555 1_555
C17_7 N2_7 1_555 1_555
C22_7 C23_7 1_555 1_555
C24_7 N3_7 1_555 1_555
C26_7 N3_7 1_555 1_555
C26_7 N4_4 1_555 1_555
N9_8 C14_8 1_555 1_555
N10_8 N9_8 1_555 1_555
N11_8 N10_8 1_555 1_555
N12_8 C14_8 1_555 1_555
N11_8 N12_8 1_555 1_555
C1_8 C2_8 1_555 1_555
C2_8 C3_8 1_555 1_555
C3_8 H1_8 1_555 1_555
C4_8 C3_8 1_555 1_555
H2_8 C4_8 1_555 1_555
C5_8 C4_8 1_555 1_555
C6_8 C5_8 1_555 1_555
H3_8 C6_8 1_555 1_555
C7_8 C2_8 1_555 1_555
H4_8 C7_8 1_555 1_555
C8_8 C9_8 1_555 1_555
C9_8 H5_8 1_555 1_555
C10_8 C9_8 1_555 1_555
H6_8 C10_8 1_555 1_555
C11_8 C10_8 1_555 1_555
C12_8 C11_8 1_555 1_555
H7_8 C12_8 1_555 1_555
C13_8 C8_8 1_555 1_555
H8_8 C13_8 1_555 1_555
C16_8 H10_8 1_555 1_555
N5_8 C1_8 1_555 1_555
N14_4 N5_8 1_555 1_555
N7_4 N14_4 1_555 1_555
N8_8 C1_8 1_555 1_555
O1_8 H19_8 1_555 1_555
H20_8 O1_8 1_555 1_555
O2_8 C5_8 1_555 1_555
Cd4_4 N1_8 1_555 1_555
C6_8 C7_8 1_555 1_555
C8_8 O2_8 1_555 1_555
C12_8 C13_8 1_555 1_555
C16_8 N1_8 1_555 1_555
N7_4 N8_8 1_555 1_555
O1_8 Cd4_4 1_555 1_555
C15_8 H9_8 1_555 1_555
H11_8 C17_8 1_555 1_555
N2_8 C15_8 1_555 1_555
C18_8 N2_8 1_555 1_555
C19_8 C18_8 1_555 1_555
H12_8 C19_8 1_555 1_555
C20_8 C19_8 1_555 1_555
H13_8 C20_8 1_555 1_555
C21_8 C20_8 1_555 1_555
C22_8 C21_8 1_555 1_555
H14_8 C22_8 1_555 1_555
C23_8 C18_8 1_555 1_555
H15_8 C23_8 1_555 1_555
C24_8 H16_8 1_555 1_555
C25_8 C24_8 1_555 1_555
H17_8 C25_8 1_555 1_555
C26_8 H18_8 1_555 1_555
N3_8 C21_8 1_555 1_555
N13_4 C25_8 1_555 1_555
C17_8 N2_8 1_555 1_555
C22_8 C23_8 1_555 1_555
C24_8 N3_8 1_555 1_555
C26_8 N3_8 1_555 1_555
C26_8 N13_4 1_555 1_555

#END
