
###############################################################################
#
# This file contains modified crystal structure data generated from the
# MOF subset of the Cambridge Structural Database (CSD) v543 
# hosted by the Cambridge Crystallographic Data Centre (CCDC).
#
# This work is licensed under the Creative Commons
# Attribution-NonCommercial-ShareAlike 4.0 International License.
# To view a copy of this license, visit
# http://creativecommons.org/licenses/by-nc-sa/4.0/
# or send a letter to
# Creative Commons, PO Box 1866, Mountain View, CA 94042, USA.
#
# CIF created using the CSD Python API on 29 September 2022
# The structure has been converted into the P1 space group
# The structure has a 3D framework
# The original CSD entry ULIMIN is in the monoclinic crystal system
# The framework has been calculated to contain at least 10.0% void space
# The void calculation uses a probe of radius 1.32A, grid spacing 0.4
# H atom positions have been added when not included in the experimental data
# Generated hydrogen atom positions removed from atoms on special positions
#
###############################################################################

data_ULIMIN
_chemical_formula_moiety         '(C184 H204 Co19 N64 O64)n'
_symmetry_cell_setting           triclinic
_symmetry_space_group_name_H-M   'P 1'
_symmetry_Int_Tables_number      1
_space_group_name_Hall           'P 1'
loop_
_symmetry_equiv_pos_site_id
_symmetry_equiv_pos_as_xyz
1 x,y,z
_cell_length_a                   31.281(4)
_cell_length_b                   10.5676(13)
_cell_length_c                   19.875(2)
_cell_angle_alpha                90
_cell_angle_beta                 94.444(5)
_cell_angle_gamma                90
_cell_volume                     6550.23
loop_
_atom_site_label
_atom_site_type_symbol
_atom_site_fract_x
_atom_site_fract_y
_atom_site_fract_z
Co1 Co 0.0000 0.0000 0.0000
O4 O 0.09579(7) 0.1257(2) 0.09058(13)
O5 O 0.25040(7) 0.0462(2) 0.16497(14)
H2 H 0.1693 0.0523 0.1291
N3 N 0.02060(9) 0.2586(2) 0.06297(15)
H4 H 0.0462 0.2315 0.0731
C6 C 0.08715(10) 0.0103(3) 0.09315(17)
C11 C 0.00749(12) 0.3772(3) 0.07483(19)
H8 H 0.0241 0.4419 0.0950
O17 O 0.33061(7) 0.01173(19) 0.30748(14)
Co1_2 Co -0.0000 0.0000 1.0000
N18 N 0.04119(9) 0.0749(3) 0.92941(15)
Co1_3 Co 0.0000 1.0000 0.0000
Co2 Co 0.328129(12) 0.84107(4) 0.25700(2)
O1 O 0.26669(7) 0.8570(2) 0.20796(13)
O2 O 0.39024(7) 0.7960(2) 0.30321(13)
O3 O 0.05165(7) 0.9611(2) 0.07344(13)
C1 C 0.12206(9) 0.9225(3) 0.12262(16)
C2 C 0.16317(9) 0.9679(3) 0.13757(16)
N1 N 0.32832(9) 0.6566(2) 0.21517(15)
O6 O 0.29424(8) 0.7720(2) 0.34025(13)
C3 C 0.19543(9) 0.8890(3) 0.16515(17)
C4 C 0.24083(9) 0.9356(3) 0.18016(16)
C5 C 0.14496(10) 0.7137(3) 0.16040(17)
C9 C 0.11292(10) 0.7948(3) 0.13277(17)
H6 H 0.0855 0.7638 0.1212
C10 C 0.18546(10) 0.7638(3) 0.17768(17)
H7 H 0.2065 0.7116 0.1983
C12 C 0.33992(12) 0.4613(3) 0.17501(19)
C13 C 0.35774(11) 0.5714(3) 0.20400(19)
H9 H 0.3870 0.5833 0.2143
N4 N 0.29123(10) 0.6009(3) 0.19306(18)
H10 H 0.2666 0.6365 0.1939
C15 C 0.36199(15) 0.3413(3) 0.1580(3)
H13 H 0.3442 0.2967 0.1236
H14 H 0.3648 0.2880 0.1978
C16 C 0.29692(13) 0.4844(4) 0.1696(2)
H15 H 0.2755 0.4292 0.1527
C17 C 0.40563(14) 0.3609(3) 0.1331(2)
C18 C 0.41708(11) 0.4294(4) 0.0784(2)
H16 H 0.3976 0.4742 0.0499
C19 C 0.44290(18) 0.3088(5) 0.1567(3)
H17 H 0.4465 0.2543 0.1935
N5 N 0.45881(9) 0.4251(3) 0.07059(15)
N6 N 0.47363(12) 0.3472(4) 0.1196(2)
H18 H 0.5000 0.3246 0.1262
O7 O 0.16939(7) 0.51173(19) 0.19252(14)
O8 O 0.09985(8) 0.5335(2) 0.16018(17)
C23 C 0.13745(11) 0.5775(3) 0.17260(19)
Co5 Co 0.5000 0.5000 0.0000
Co7 Co 0.171871(12) 0.34107(4) 0.24300(2)
N19 N 0.35746(9) 0.9243(3) 0.17675(15)
Co1_4 Co -0.0000 1.0000 1.0000
N10 N 0.01104(8) 0.8122(2) 0.96654(15)
C30 C 0.04460(11) 0.7348(3) 0.97313(19)
H26 H 0.0715 0.7584 0.9922
C31 C 0.03490(11) 0.6150(3) 0.94839(19)
C37 C 0.06337(13) 0.5003(3) 0.9478(2)
H32 H 0.0464 0.4290 0.9304
H33 H 0.0737 0.4806 0.9938
N15 N 0.14254(9) 0.5757(3) 0.82325(15)
C43 C 0.10112(11) 0.5157(3) 0.9064(2)
N16 N 0.16381(9) 0.4931(2) 0.86538(16)
H40 H 0.1895 0.4673 0.8611
C44 C 0.14007(11) 0.4565(3) 0.9141(2)
H41 H 0.1485 0.3996 0.9483
C45 C 0.10455(11) 0.5891(3) 0.8486(2)
H42 H 0.0828 0.6412 0.8299
Co5_2 Co 0.5000 0.5000 1.0000
Co8 Co 0.171871(12) 0.65893(4) 0.74300(2)
Co1_5 Co 1.0000 0.0000 0.0000
N2 N 0.98896(8) 0.1878(2) 0.03346(15)
C7 C 0.95540(11) 0.2652(3) 0.02687(19)
H5 H 0.9285 0.2416 0.0078
C8 C 0.96510(11) 0.3850(3) 0.05161(19)
C14 C 0.93663(13) 0.4997(3) 0.0522(2)
H11 H 0.9536 0.5710 0.0696
H12 H 0.9263 0.5194 0.0062
N7 N 0.85746(9) 0.4243(3) 0.17675(15)
C20 C 0.89888(11) 0.4843(3) 0.0936(2)
N8 N 0.83619(9) 0.5069(2) 0.13462(16)
H19 H 0.8105 0.5327 0.1389
C21 C 0.85993(11) 0.5435(3) 0.0859(2)
H20 H 0.8515 0.6004 0.0517
C22 C 0.89545(11) 0.4109(3) 0.1514(2)
H21 H 0.9172 0.3588 0.1701
Co6 Co 0.828129(12) 0.34107(4) 0.25700(2)
Co1_6 Co 1.0000 0.0000 1.0000
Co3 Co 0.671871(12) 0.15893(4) 0.74300(2)
O9 O 0.73331(7) 0.1430(2) 0.79204(13)
O10 O 0.60976(7) 0.2040(2) 0.69679(13)
O11 O 0.94835(7) 0.0389(2) 0.92656(13)
C24 C 0.87794(9) 0.0775(3) 0.87738(16)
C25 C 0.83683(9) 0.0321(3) 0.86243(16)
N9 N 0.67168(9) 0.3434(2) 0.78483(15)
O14 O 0.70576(8) 0.2280(2) 0.65975(13)
C26 C 0.80457(9) 0.1110(3) 0.83485(17)
C27 C 0.75917(9) 0.0644(3) 0.81984(16)
C28 C 0.85504(10) 0.2863(3) 0.83960(17)
C32 C 0.88708(10) 0.2052(3) 0.86723(17)
H27 H 0.9145 0.2362 0.8788
C33 C 0.81454(10) 0.2362(3) 0.82232(17)
H28 H 0.7935 0.2884 0.8017
C35 C 0.66008(12) 0.5387(3) 0.82499(19)
C36 C 0.64226(11) 0.4286(3) 0.79600(19)
H30 H 0.6130 0.4167 0.7857
N12 N 0.70877(10) 0.3991(3) 0.80694(18)
H31 H 0.7334 0.3635 0.8061
C38 C 0.63801(15) 0.6587(3) 0.8420(3)
H34 H 0.6558 0.7033 0.8764
H35 H 0.6352 0.7120 0.8022
C39 C 0.70308(13) 0.5156(4) 0.8304(2)
H36 H 0.7245 0.5708 0.8473
C40 C 0.59437(14) 0.6391(3) 0.8669(2)
C41 C 0.58292(11) 0.5706(4) 0.9216(2)
H37 H 0.6024 0.5258 0.9501
C42 C 0.55710(18) 0.6912(5) 0.8433(3)
H38 H 0.5535 0.7457 0.8065
N13 N 0.54119(9) 0.5749(3) 0.92941(15)
N14 N 0.52637(12) 0.6528(4) 0.8804(2)
H39 H 0.5000 0.6754 0.8738
O15 O 0.83061(7) 0.48827(19) 0.80748(14)
O16 O 0.90015(8) 0.4665(2) 0.83982(17)
C46 C 0.86255(11) 0.4225(3) 0.82740(19)
Co9 Co 0.828129(12) 0.65893(4) 0.75700(2)
N20 N 0.64254(9) 0.0757(3) 0.82325(15)
Co1_7 Co 1.0000 1.0000 0.0000
N17 N 0.95881(9) 0.9251(3) 0.07059(15)
Co1_8 Co 1.0000 1.0000 1.0000
O12 O 0.90421(7) 0.8743(2) 0.90942(13)
O13 O 0.74960(7) 0.9538(2) 0.83503(14)
H23 H 0.8307 0.9477 0.8709
N11 N 0.97940(9) 0.7414(2) 0.93703(15)
H25 H 0.9538 0.7685 0.9269
C29 C 0.91285(10) 0.9897(3) 0.90685(17)
C34 C 0.99251(12) 0.6228(3) 0.92517(19)
H29 H 0.9759 0.5581 0.9050
O18 O 0.66939(7) 0.98827(19) 0.69252(14)
Co1_9 Co -0.0000 0.0000 0.5000
N2_2 N 0.01104(8) 0.1878(2) 0.46654(15)
C7_2 C 0.04460(11) 0.2652(3) 0.47313(19)
H5_2 H 0.0715 0.2416 0.4922
C8_2 C 0.03490(11) 0.3850(3) 0.44839(19)
C14_2 C 0.06337(13) 0.4997(3) 0.4478(2)
H11_2 H 0.0464 0.5710 0.4304
H12_2 H 0.0737 0.5194 0.4938
N7_2 N 0.14254(9) 0.4243(3) 0.32325(15)
C20_2 C 0.10112(11) 0.4843(3) 0.4064(2)
N8_2 N 0.16381(9) 0.5069(2) 0.36538(16)
H19_2 H 0.1895 0.5327 0.3611
C21_2 C 0.14007(11) 0.5435(3) 0.4141(2)
H20_2 H 0.1485 0.6004 0.4483
C22_2 C 0.10455(11) 0.4109(3) 0.3486(2)
H21_2 H 0.0828 0.3588 0.3299
Co3_2 Co 0.328129(12) 0.15893(4) 0.75700(2)
O9_2 O 0.26669(7) 0.1430(2) 0.70796(13)
O10_2 O 0.39024(7) 0.2040(2) 0.80321(13)
O11_2 O 0.05165(7) 0.0389(2) 0.57344(13)
C24_2 C 0.12206(9) 0.0775(3) 0.62262(16)
C25_2 C 0.16317(9) 0.0321(3) 0.63757(16)
N9_2 N 0.32832(9) 0.3434(2) 0.71517(15)
O14_2 O 0.29424(8) 0.2280(2) 0.84025(13)
C26_2 C 0.19543(9) 0.1110(3) 0.66515(17)
C27_2 C 0.24083(9) 0.0644(3) 0.68016(16)
C28_2 C 0.14496(10) 0.2863(3) 0.66040(17)
C32_2 C 0.11292(10) 0.2052(3) 0.63277(17)
H27_2 H 0.0855 0.2362 0.6212
C33_2 C 0.18546(10) 0.2362(3) 0.67768(17)
H28_2 H 0.2065 0.2884 0.6983
C35_2 C 0.33992(12) 0.5387(3) 0.67501(19)
C36_2 C 0.35774(11) 0.4286(3) 0.70400(19)
H30_2 H 0.3870 0.4167 0.7143
N12_2 N 0.29123(10) 0.3991(3) 0.69306(18)
H31_2 H 0.2666 0.3635 0.6939
C38_2 C 0.36199(15) 0.6587(3) 0.6580(3)
H34_2 H 0.3442 0.7033 0.6236
H35_2 H 0.3648 0.7120 0.6978
C39_2 C 0.29692(13) 0.5156(4) 0.6696(2)
H36_2 H 0.2755 0.5708 0.6527
C40_2 C 0.40563(14) 0.6391(3) 0.6331(2)
C41_2 C 0.41708(11) 0.5706(4) 0.5784(2)
H37_2 H 0.3976 0.5258 0.5499
C42_2 C 0.44290(18) 0.6912(5) 0.6567(3)
H38_2 H 0.4465 0.7457 0.6935
N13_2 N 0.45881(9) 0.5749(3) 0.57059(15)
N14_2 N 0.47363(12) 0.6528(4) 0.6196(2)
H39_2 H 0.5000 0.6754 0.6262
O15_2 O 0.16939(7) 0.48827(19) 0.69252(14)
O16_2 O 0.09985(8) 0.4665(2) 0.66018(17)
C46_2 C 0.13745(11) 0.4225(3) 0.67260(19)
Co4 Co 0.5000 0.5000 0.5000
N20_2 N 0.35746(9) 0.0757(3) 0.67675(15)
Co1_10 Co -0.0000 1.0000 0.5000
O12_2 O 0.09579(7) 0.8743(2) 0.59058(13)
O13_2 O 0.25040(7) 0.9538(2) 0.66497(14)
H23_2 H 0.1693 0.9477 0.6291
N11_2 N 0.02060(9) 0.7414(2) 0.56297(15)
H25_2 H 0.0462 0.7685 0.5731
C29_2 C 0.08715(10) 0.9897(3) 0.59315(17)
C34_2 C 0.00749(12) 0.6228(3) 0.57483(19)
H29_2 H 0.0241 0.5581 0.5950
N17_2 N 0.04119(9) 0.9251(3) 0.42941(15)
O18_2 O 0.33061(7) 0.98827(19) 0.80748(14)
Co1_11 Co 1.0000 0.0000 0.5000
O4_2 O 0.90421(7) 0.1257(2) 0.40942(13)
O5_2 O 0.74960(7) 0.0462(2) 0.33503(14)
H2_2 H 0.8307 0.0523 0.3709
N3_2 N 0.97940(9) 0.2586(2) 0.43703(15)
H4_2 H 0.9538 0.2315 0.4269
C6_2 C 0.91285(10) 0.0103(3) 0.40685(17)
C11_2 C 0.99251(12) 0.3772(3) 0.42517(19)
H8_2 H 0.9759 0.4419 0.4050
N18_2 N 0.95881(9) 0.0749(3) 0.57059(15)
O17_2 O 0.66939(7) 0.01173(19) 0.19252(14)
Co1_12 Co 1.0000 1.0000 0.5000
Co2_2 Co 0.671871(12) 0.84107(4) 0.24300(2)
O1_2 O 0.73331(7) 0.8570(2) 0.29204(13)
O2_2 O 0.60976(7) 0.7960(2) 0.19679(13)
O3_2 O 0.94835(7) 0.9611(2) 0.42656(13)
C1_2 C 0.87794(9) 0.9225(3) 0.37738(16)
C2_2 C 0.83683(9) 0.9679(3) 0.36243(16)
N1_2 N 0.67168(9) 0.6566(2) 0.28483(15)
O6_2 O 0.70576(8) 0.7720(2) 0.15975(13)
C3_2 C 0.80457(9) 0.8890(3) 0.33485(17)
C4_2 C 0.75917(9) 0.9356(3) 0.31984(16)
C5_2 C 0.85504(10) 0.7137(3) 0.33960(17)
C9_2 C 0.88708(10) 0.7948(3) 0.36723(17)
H6_2 H 0.9145 0.7638 0.3788
C10_2 C 0.81454(10) 0.7638(3) 0.32232(17)
H7_2 H 0.7935 0.7116 0.3017
C12_2 C 0.66008(12) 0.4613(3) 0.32499(19)
C13_2 C 0.64226(11) 0.5714(3) 0.29600(19)
H9_2 H 0.6130 0.5833 0.2857
N4_2 N 0.70877(10) 0.6009(3) 0.30694(18)
H10_2 H 0.7334 0.6365 0.3061
C15_2 C 0.63801(15) 0.3413(3) 0.3420(3)
H13_2 H 0.6558 0.2967 0.3764
H14_2 H 0.6352 0.2880 0.3022
C16_2 C 0.70308(13) 0.4844(4) 0.3304(2)
H15_2 H 0.7245 0.4292 0.3473
C17_2 C 0.59437(14) 0.3609(3) 0.3669(2)
C18_2 C 0.58292(11) 0.4294(4) 0.4216(2)
H16_2 H 0.6024 0.4742 0.4501
C19_2 C 0.55710(18) 0.3088(5) 0.3433(3)
H17_2 H 0.5535 0.2543 0.3065
N5_2 N 0.54119(9) 0.4251(3) 0.42941(15)
N6_2 N 0.52637(12) 0.3472(4) 0.3804(2)
H18_2 H 0.5000 0.3246 0.3738
O7_2 O 0.83061(7) 0.51173(19) 0.30748(14)
O8_2 O 0.90015(8) 0.5335(2) 0.33982(17)
C23_2 C 0.86255(11) 0.5775(3) 0.32740(19)
N10_2 N 0.98896(8) 0.8122(2) 0.53346(15)
C30_2 C 0.95540(11) 0.7348(3) 0.52687(19)
H26_2 H 0.9285 0.7584 0.5078
C31_2 C 0.96510(11) 0.6150(3) 0.55161(19)
C37_2 C 0.93663(13) 0.5003(3) 0.5522(2)
H32_2 H 0.9536 0.4290 0.5696
H33_2 H 0.9263 0.4806 0.5062
N15_2 N 0.85746(9) 0.5757(3) 0.67675(15)
C43_2 C 0.89888(11) 0.5157(3) 0.5936(2)
N16_2 N 0.83619(9) 0.4931(2) 0.63462(16)
H40_2 H 0.8105 0.4673 0.6389
C44_2 C 0.85993(11) 0.4565(3) 0.5859(2)
H41_2 H 0.8515 0.3996 0.5517
C45_2 C 0.89545(11) 0.5891(3) 0.6514(2)
H42_2 H 0.9172 0.6412 0.6701
N19_2 N 0.64254(9) 0.9243(3) 0.32325(15)
H18_3 H 0.0000 0.8246 0.1262
H11_3 H 0.4536 0.0710 0.0696
H12_3 H 0.4263 0.0194 0.0062
N8_3 N 0.33619(9) 0.0069(2) 0.13462(16)
H19_3 H 0.3105 0.0327 0.1389
C21_3 C 0.35993(11) 0.0435(3) 0.0859(2)
H20_3 H 0.3515 0.1004 0.0517
C35_3 C 0.16008(12) 0.0387(3) 0.82499(19)
C38_3 C 0.13801(15) 0.1587(3) 0.8420(3)
H34_3 H 0.1558 0.2033 0.8764
H35_3 H 0.1352 0.2120 0.8022
C39_3 C 0.20308(13) 0.0156(4) 0.8304(2)
H36_3 H 0.2245 0.0708 0.8473
C40_3 C 0.09437(14) 0.1391(3) 0.8669(2)
C41_3 C 0.08292(11) 0.0706(4) 0.9216(2)
H37_3 H 0.1024 0.0258 0.9501
C42_3 C 0.05710(18) 0.1912(5) 0.8433(3)
H38_3 H 0.0535 0.2457 0.8065
N14_3 N 0.02637(12) 0.1528(4) 0.8804(2)
H39_3 H -0.0000 0.1754 0.8738
O1_3 O 0.76669(7) 0.3570(2) 0.20796(13)
O2_3 O 0.89024(7) 0.2960(2) 0.30321(13)
O3_3 O 0.55165(7) 0.4611(2) 0.07344(13)
O4_3 O 0.59579(7) 0.6257(2) 0.09058(13)
O5_3 O 0.75040(7) 0.5462(2) 0.16497(14)
C1_3 C 0.62206(9) 0.4225(3) 0.12262(16)
C2_3 C 0.66317(9) 0.4679(3) 0.13757(16)
H2_3 H 0.6693 0.5523 0.1291
N1_3 N 0.82832(9) 0.1566(2) 0.21517(15)
O6_3 O 0.79424(8) 0.2720(2) 0.34025(13)
N2_3 N 0.48896(8) 0.6878(2) 0.03346(15)
N3_3 N 0.52060(9) 0.7586(2) 0.06297(15)
H4_3 H 0.5462 0.7315 0.0731
C3_3 C 0.69543(9) 0.3890(3) 0.16515(17)
C4_3 C 0.74083(9) 0.4356(3) 0.18016(16)
C5_3 C 0.64496(10) 0.2137(3) 0.16040(17)
C6_3 C 0.58715(10) 0.5103(3) 0.09315(17)
C7_3 C 0.45540(11) 0.7652(3) 0.02687(19)
H5_3 H 0.4285 0.7416 0.0078
C8_3 C 0.46510(11) 0.8850(3) 0.05161(19)
C9_3 C 0.61292(10) 0.2948(3) 0.13277(17)
H6_3 H 0.5855 0.2638 0.1212
C10_3 C 0.68546(10) 0.2638(3) 0.17768(17)
H7_3 H 0.7065 0.2116 0.1983
C11_3 C 0.50749(12) 0.8772(3) 0.07483(19)
H8_3 H 0.5241 0.9419 0.0950
C13_3 C 0.85774(11) 0.0714(3) 0.20400(19)
H9_3 H 0.8870 0.0833 0.2143
N4_3 N 0.79123(10) 0.1009(3) 0.19306(18)
H10_3 H 0.7666 0.1365 0.1939
C14_3 C 0.43663(13) 0.9997(3) 0.0522(2)
C20_3 C 0.39888(11) 0.9843(3) 0.0936(2)
C22_3 C 0.39545(11) 0.9109(3) 0.1514(2)
H21_3 H 0.4172 0.8588 0.1701
O8_3 O 0.59985(8) 0.0335(2) 0.16018(17)
C23_3 C 0.63745(11) 0.0775(3) 0.17260(19)
O9_3 O 0.23331(7) 0.6430(2) 0.79204(13)
O10_3 O 0.10976(7) 0.7040(2) 0.69679(13)
O11_3 O 0.44835(7) 0.5389(2) 0.92656(13)
O12_3 O 0.40421(7) 0.3743(2) 0.90942(13)
O13_3 O 0.24960(7) 0.4538(2) 0.83503(14)
C24_3 C 0.37794(9) 0.5775(3) 0.87738(16)
C25_3 C 0.33683(9) 0.5321(3) 0.86243(16)
H23_3 H 0.3307 0.4477 0.8709
N9_3 N 0.17168(9) 0.8434(2) 0.78483(15)
O14_3 O 0.20576(8) 0.7280(2) 0.65975(13)
N10_3 N 0.51104(8) 0.3122(2) 0.96654(15)
N11_3 N 0.47940(9) 0.2414(2) 0.93703(15)
H25_3 H 0.4538 0.2685 0.9269
C26_3 C 0.30457(9) 0.6110(3) 0.83485(17)
C27_3 C 0.25917(9) 0.5644(3) 0.81984(16)
C28_3 C 0.35504(10) 0.7863(3) 0.83960(17)
C29_3 C 0.41285(10) 0.4897(3) 0.90685(17)
C30_3 C 0.54460(11) 0.2348(3) 0.97313(19)
H26_3 H 0.5715 0.2584 0.9922
C31_3 C 0.53490(11) 0.1150(3) 0.94839(19)
C32_3 C 0.38708(10) 0.7052(3) 0.86723(17)
H27_3 H 0.4145 0.7362 0.8788
C33_3 C 0.31454(10) 0.7362(3) 0.82232(17)
H28_3 H 0.2935 0.7884 0.8017
C34_3 C 0.49251(12) 0.1228(3) 0.92517(19)
H29_3 H 0.4759 0.0581 0.9050
C36_3 C 0.14226(11) 0.9286(3) 0.79600(19)
H30_3 H 0.1130 0.9167 0.7857
N12_3 N 0.20877(10) 0.8991(3) 0.80694(18)
H31_3 H 0.2334 0.8635 0.8061
C37_3 C 0.56337(13) 0.0003(3) 0.9478(2)
C43_3 C 0.60112(11) 0.0157(3) 0.9064(2)
C45_3 C 0.60455(11) 0.0891(3) 0.8486(2)
H42_3 H 0.5828 0.1412 0.8299
O16_3 O 0.40015(8) 0.9665(2) 0.83982(17)
C46_3 C 0.36255(11) 0.9225(3) 0.82740(19)
C12_3 C 0.83992(12) 0.9613(3) 0.17501(19)
C15_3 C 0.86199(15) 0.8413(3) 0.1580(3)
H13_3 H 0.8442 0.7967 0.1236
H14_3 H 0.8648 0.7880 0.1978
C16_3 C 0.79692(13) 0.9844(4) 0.1696(2)
H15_3 H 0.7755 0.9292 0.1527
C17_3 C 0.90563(14) 0.8609(3) 0.1331(2)
C18_3 C 0.91708(11) 0.9294(4) 0.0784(2)
H16_3 H 0.8976 0.9742 0.0499
C19_3 C 0.94290(18) 0.8088(5) 0.1567(3)
H17_3 H 0.9465 0.7543 0.1935
N6_3 N 0.97363(12) 0.8472(4) 0.1196(2)
H18_4 H 1.0000 0.8246 0.1262
H32_3 H 0.5464 0.9290 0.9304
H33_3 H 0.5737 0.9806 0.9938
N16_3 N 0.66381(9) 0.9931(2) 0.86538(16)
H40_3 H 0.6895 0.9673 0.8611
C44_3 C 0.64007(11) 0.9565(3) 0.9141(2)
H41_3 H 0.6485 0.8996 0.9483
H39_4 H 1.0000 0.1754 0.8738
H39_5 H 0.0000 0.1754 0.6262
H11_4 H 0.5464 0.0710 0.4304
H12_4 H 0.5737 0.0194 0.4938
N8_4 N 0.66381(9) 0.0069(2) 0.36538(16)
H19_4 H 0.6895 0.0327 0.3611
C21_4 C 0.64007(11) 0.0435(3) 0.4141(2)
H20_4 H 0.6485 0.1004 0.4483
C35_4 C 0.83992(12) 0.0387(3) 0.67501(19)
C38_4 C 0.86199(15) 0.1587(3) 0.6580(3)
H34_4 H 0.8442 0.2033 0.6236
H35_4 H 0.8648 0.2120 0.6978
C39_4 C 0.79692(13) 0.0156(4) 0.6696(2)
H36_4 H 0.7755 0.0708 0.6527
C40_4 C 0.90563(14) 0.1391(3) 0.6331(2)
C41_4 C 0.91708(11) 0.0706(4) 0.5784(2)
H37_4 H 0.8976 0.0258 0.5499
C42_4 C 0.94290(18) 0.1912(5) 0.6567(3)
H38_4 H 0.9465 0.2457 0.6935
N14_4 N 0.97363(12) 0.1528(4) 0.6196(2)
H39_6 H 1.0000 0.1754 0.6262
O1_4 O 0.23331(7) 0.3570(2) 0.29204(13)
O2_4 O 0.10976(7) 0.2960(2) 0.19679(13)
O3_4 O 0.44835(7) 0.4611(2) 0.42656(13)
O4_4 O 0.40421(7) 0.6257(2) 0.40942(13)
O5_4 O 0.24960(7) 0.5462(2) 0.33503(14)
C1_4 C 0.37794(9) 0.4225(3) 0.37738(16)
C2_4 C 0.33683(9) 0.4679(3) 0.36243(16)
H2_4 H 0.3307 0.5523 0.3709
N1_4 N 0.17168(9) 0.1566(2) 0.28483(15)
O6_4 O 0.20576(8) 0.2720(2) 0.15975(13)
N2_4 N 0.51104(8) 0.6878(2) 0.46654(15)
N3_4 N 0.47940(9) 0.7586(2) 0.43703(15)
H4_4 H 0.4538 0.7315 0.4269
C3_4 C 0.30457(9) 0.3890(3) 0.33485(17)
C4_4 C 0.25917(9) 0.4356(3) 0.31984(16)
C5_4 C 0.35504(10) 0.2137(3) 0.33960(17)
C6_4 C 0.41285(10) 0.5103(3) 0.40685(17)
C7_4 C 0.54460(11) 0.7652(3) 0.47313(19)
H5_4 H 0.5715 0.7416 0.4922
C8_4 C 0.53490(11) 0.8850(3) 0.44839(19)
C9_4 C 0.38708(10) 0.2948(3) 0.36723(17)
H6_4 H 0.4145 0.2638 0.3788
C10_4 C 0.31454(10) 0.2638(3) 0.32232(17)
H7_4 H 0.2935 0.2116 0.3017
C11_4 C 0.49251(12) 0.8772(3) 0.42517(19)
H8_4 H 0.4759 0.9419 0.4050
C13_4 C 0.14226(11) 0.0714(3) 0.29600(19)
H9_4 H 0.1130 0.0833 0.2857
N4_4 N 0.20877(10) 0.1009(3) 0.30694(18)
H10_4 H 0.2334 0.1365 0.3061
C14_4 C 0.56337(13) 0.9997(3) 0.4478(2)
C20_4 C 0.60112(11) 0.9843(3) 0.4064(2)
C22_4 C 0.60455(11) 0.9109(3) 0.3486(2)
H21_4 H 0.5828 0.8588 0.3299
O8_4 O 0.40015(8) 0.0335(2) 0.33982(17)
C23_4 C 0.36255(11) 0.0775(3) 0.32740(19)
O9_4 O 0.76669(7) 0.6430(2) 0.70796(13)
O10_4 O 0.89024(7) 0.7040(2) 0.80321(13)
O11_4 O 0.55165(7) 0.5389(2) 0.57344(13)
O12_4 O 0.59579(7) 0.3743(2) 0.59058(13)
O13_4 O 0.75040(7) 0.4538(2) 0.66497(14)
C24_4 C 0.62206(9) 0.5775(3) 0.62262(16)
C25_4 C 0.66317(9) 0.5321(3) 0.63757(16)
H23_4 H 0.6693 0.4477 0.6291
N9_4 N 0.82832(9) 0.8434(2) 0.71517(15)
O14_4 O 0.79424(8) 0.7280(2) 0.84025(13)
N10_4 N 0.48896(8) 0.3122(2) 0.53346(15)
N11_4 N 0.52060(9) 0.2414(2) 0.56297(15)
H25_4 H 0.5462 0.2685 0.5731
C26_4 C 0.69543(9) 0.6110(3) 0.66515(17)
C27_4 C 0.74083(9) 0.5644(3) 0.68016(16)
C28_4 C 0.64496(10) 0.7863(3) 0.66040(17)
C29_4 C 0.58715(10) 0.4897(3) 0.59315(17)
C30_4 C 0.45540(11) 0.2348(3) 0.52687(19)
H26_4 H 0.4285 0.2584 0.5078
C31_4 C 0.46510(11) 0.1150(3) 0.55161(19)
C32_4 C 0.61292(10) 0.7052(3) 0.63277(17)
H27_4 H 0.5855 0.7362 0.6212
C33_4 C 0.68546(10) 0.7362(3) 0.67768(17)
H28_4 H 0.7065 0.7884 0.6983
C34_4 C 0.50749(12) 0.1228(3) 0.57483(19)
H29_4 H 0.5241 0.0581 0.5950
C36_4 C 0.85774(11) 0.9286(3) 0.70400(19)
H30_4 H 0.8870 0.9167 0.7143
N12_4 N 0.79123(10) 0.8991(3) 0.69306(18)
H31_4 H 0.7666 0.8635 0.6939
C37_4 C 0.43663(13) 0.0003(3) 0.5522(2)
C43_4 C 0.39888(11) 0.0157(3) 0.5936(2)
C45_4 C 0.39545(11) 0.0891(3) 0.6514(2)
H42_4 H 0.4172 0.1412 0.6701
O16_4 O 0.59985(8) 0.9665(2) 0.66018(17)
C46_4 C 0.63745(11) 0.9225(3) 0.67260(19)
C12_4 C 0.16008(12) 0.9613(3) 0.32499(19)
C15_4 C 0.13801(15) 0.8413(3) 0.3420(3)
H13_4 H 0.1558 0.7967 0.3764
H14_4 H 0.1352 0.7880 0.3022
C16_4 C 0.20308(13) 0.9844(4) 0.3304(2)
H15_4 H 0.2245 0.9292 0.3473
C17_4 C 0.09437(14) 0.8609(3) 0.3669(2)
C18_4 C 0.08292(11) 0.9294(4) 0.4216(2)
H16_4 H 0.1024 0.9742 0.4501
C19_4 C 0.05710(18) 0.8088(5) 0.3433(3)
H17_4 H 0.0535 0.7543 0.3065
N6_4 N 0.02637(12) 0.8472(4) 0.3804(2)
H18_5 H -0.0000 0.8246 0.3738
H32_4 H 0.4536 0.9290 0.5696
H33_4 H 0.4263 0.9806 0.5062
N16_4 N 0.33619(9) 0.9931(2) 0.63462(16)
H40_4 H 0.3105 0.9673 0.6389
C44_4 C 0.35993(11) 0.9565(3) 0.5859(2)
H41_4 H 0.3515 0.8996 0.5517
H18_6 H 1.0000 0.8246 0.3738
loop_
_geom_bond_atom_site_label_1
_geom_bond_atom_site_label_2
_geom_bond_site_symmetry_1
_geom_bond_site_symmetry_2
O4 C6 1_555 1_555
H4 N3 1_555 1_555
C11 N3 1_555 1_555
H8 C11 1_555 1_555
N18 Co1_2 1_555 1_555
Co1_3 O3 1_555 1_555
Co2 O1 1_555 1_555
O1 C4 1_555 1_555
O2 Co2 1_555 1_555
C1 C2 1_555 1_555
N1 Co2 1_555 1_555
O6 Co2 1_555 1_555
C3 C2 1_555 1_555
C4 C3 1_555 1_555
C5 C9 1_555 1_555
C9 C1 1_555 1_555
H6 C9 1_555 1_555
C10 C3 1_555 1_555
H7 C10 1_555 1_555
C12 C13 1_555 1_555
C13 N1 1_555 1_555
H9 C13 1_555 1_555
N4 N1 1_555 1_555
H10 N4 1_555 1_555
C15 C12 1_555 1_555
H13 C15 1_555 1_555
H14 C15 1_555 1_555
C16 C12 1_555 1_555
H15 C16 1_555 1_555
C17 C15 1_555 1_555
C18 C17 1_555 1_555
H16 C18 1_555 1_555
C19 C17 1_555 1_555
H17 C19 1_555 1_555
N5 C18 1_555 1_555
N6 C19 1_555 1_555
H18 N6 1_555 1_555
O7 C23 1_555 1_555
O8 C23 1_555 1_555
C23 C5 1_555 1_555
Co5 N5 1_555 1_555
Co7 O7 1_555 1_555
N19 Co2 1_555 1_555
C5 C10 1_555 1_555
N4 C16 1_555 1_555
N5 N6 1_555 1_555
N10 Co1_4 1_555 1_555
C30 N10 1_555 1_555
H26 C30 1_555 1_555
C31 C30 1_555 1_555
C37 C31 1_555 1_555
H32 C37 1_555 1_555
H33 C37 1_555 1_555
N15 N16 1_555 1_555
C43 C37 1_555 1_555
N16 H40 1_555 1_555
C44 C43 1_555 1_555
H41 C44 1_555 1_555
C45 N15 1_555 1_555
H42 C45 1_555 1_555
Co8 N15 1_555 1_555
C43 C45 1_555 1_555
N16 C44 1_555 1_555
N2 Co1_5 1_555 1_555
C7 N2 1_555 1_555
H5 C7 1_555 1_555
C8 C7 1_555 1_555
C14 C8 1_555 1_555
H11 C14 1_555 1_555
H12 C14 1_555 1_555
N7 N8 1_555 1_555
C20 C14 1_555 1_555
N8 H19 1_555 1_555
C21 C20 1_555 1_555
H20 C21 1_555 1_555
C22 N7 1_555 1_555
H21 C22 1_555 1_555
Co6 N7 1_555 1_555
C20 C22 1_555 1_555
N8 C21 1_555 1_555
Co3 O9 1_555 1_555
O9 C27 1_555 1_555
O10 Co3 1_555 1_555
O11 Co1_6 1_555 1_555
C24 C25 1_555 1_555
N9 Co3 1_555 1_555
O14 Co3 1_555 1_555
C26 C25 1_555 1_555
C27 C26 1_555 1_555
C28 C32 1_555 1_555
C32 C24 1_555 1_555
H27 C32 1_555 1_555
C33 C26 1_555 1_555
H28 C33 1_555 1_555
C35 C36 1_555 1_555
C36 N9 1_555 1_555
H30 C36 1_555 1_555
N12 N9 1_555 1_555
H31 N12 1_555 1_555
C38 C35 1_555 1_555
H34 C38 1_555 1_555
H35 C38 1_555 1_555
C39 C35 1_555 1_555
H36 C39 1_555 1_555
C40 C38 1_555 1_555
C41 C40 1_555 1_555
H37 C41 1_555 1_555
C42 C40 1_555 1_555
H38 C42 1_555 1_555
N13 C41 1_555 1_555
N14 C42 1_555 1_555
H39 N14 1_555 1_555
O15 C46 1_555 1_555
O16 C46 1_555 1_555
C46 C28 1_555 1_555
Co5_2 N13 1_555 1_555
Co9 O15 1_555 1_555
N20 Co3 1_555 1_555
C28 C33 1_555 1_555
N12 C39 1_555 1_555
N13 N14 1_555 1_555
N17 Co1_7 1_555 1_555
O12 C29 1_555 1_555
H25 N11 1_555 1_555
C34 N11 1_555 1_555
H29 C34 1_555 1_555
N2_2 Co1_9 1_555 1_555
C7_2 N2_2 1_555 1_555
H5_2 C7_2 1_555 1_555
C8_2 C7_2 1_555 1_555
C14_2 C8_2 1_555 1_555
H11_2 C14_2 1_555 1_555
H12_2 C14_2 1_555 1_555
N7_2 N8_2 1_555 1_555
C20_2 C14_2 1_555 1_555
N8_2 H19_2 1_555 1_555
C21_2 C20_2 1_555 1_555
H20_2 C21_2 1_555 1_555
C22_2 N7_2 1_555 1_555
H21_2 C22_2 1_555 1_555
Co3_2 O9_2 1_555 1_555
O9_2 C27_2 1_555 1_555
O10_2 Co3_2 1_555 1_555
O11_2 Co1_9 1_555 1_555
C24_2 C25_2 1_555 1_555
N9_2 Co3_2 1_555 1_555
O14_2 Co3_2 1_555 1_555
C26_2 C25_2 1_555 1_555
C27_2 C26_2 1_555 1_555
C28_2 C32_2 1_555 1_555
C32_2 C24_2 1_555 1_555
H27_2 C32_2 1_555 1_555
C33_2 C26_2 1_555 1_555
H28_2 C33_2 1_555 1_555
C35_2 C36_2 1_555 1_555
C36_2 N9_2 1_555 1_555
H30_2 C36_2 1_555 1_555
N12_2 N9_2 1_555 1_555
H31_2 N12_2 1_555 1_555
C38_2 C35_2 1_555 1_555
H34_2 C38_2 1_555 1_555
H35_2 C38_2 1_555 1_555
C39_2 C35_2 1_555 1_555
H36_2 C39_2 1_555 1_555
C40_2 C38_2 1_555 1_555
C41_2 C40_2 1_555 1_555
H37_2 C41_2 1_555 1_555
C42_2 C40_2 1_555 1_555
H38_2 C42_2 1_555 1_555
N13_2 C41_2 1_555 1_555
N14_2 C42_2 1_555 1_555
H39_2 N14_2 1_555 1_555
O15_2 C46_2 1_555 1_555
O16_2 C46_2 1_555 1_555
C46_2 C28_2 1_555 1_555
Co4 N13_2 1_555 1_555
Co7 N7_2 1_555 1_555
Co8 O15_2 1_555 1_555
N20_2 Co3_2 1_555 1_555
C20_2 C22_2 1_555 1_555
N8_2 C21_2 1_555 1_555
C28_2 C33_2 1_555 1_555
N12_2 C39_2 1_555 1_555
N13_2 N14_2 1_555 1_555
O12_2 C29_2 1_555 1_555
H25_2 N11_2 1_555 1_555
C34_2 N11_2 1_555 1_555
H29_2 C34_2 1_555 1_555
N17_2 Co1_10 1_555 1_555
O4_2 C6_2 1_555 1_555
H4_2 N3_2 1_555 1_555
C11_2 N3_2 1_555 1_555
H8_2 C11_2 1_555 1_555
N18_2 Co1_11 1_555 1_555
Co1_12 O3_2 1_555 1_555
Co2_2 O1_2 1_555 1_555
O1_2 C4_2 1_555 1_555
O2_2 Co2_2 1_555 1_555
C1_2 C2_2 1_555 1_555
N1_2 Co2_2 1_555 1_555
O6_2 Co2_2 1_555 1_555
C3_2 C2_2 1_555 1_555
C4_2 C3_2 1_555 1_555
C5_2 C9_2 1_555 1_555
C9_2 C1_2 1_555 1_555
H6_2 C9_2 1_555 1_555
C10_2 C3_2 1_555 1_555
H7_2 C10_2 1_555 1_555
C12_2 C13_2 1_555 1_555
C13_2 N1_2 1_555 1_555
H9_2 C13_2 1_555 1_555
N4_2 N1_2 1_555 1_555
H10_2 N4_2 1_555 1_555
C15_2 C12_2 1_555 1_555
H13_2 C15_2 1_555 1_555
H14_2 C15_2 1_555 1_555
C16_2 C12_2 1_555 1_555
H15_2 C16_2 1_555 1_555
C17_2 C15_2 1_555 1_555
C18_2 C17_2 1_555 1_555
H16_2 C18_2 1_555 1_555
C19_2 C17_2 1_555 1_555
H17_2 C19_2 1_555 1_555
N5_2 C18_2 1_555 1_555
N6_2 C19_2 1_555 1_555
H18_2 N6_2 1_555 1_555
O7_2 C23_2 1_555 1_555
O8_2 C23_2 1_555 1_555
C23_2 C5_2 1_555 1_555
N10_2 Co1_12 1_555 1_555
C30_2 N10_2 1_555 1_555
H26_2 C30_2 1_555 1_555
C31_2 C30_2 1_555 1_555
C37_2 C31_2 1_555 1_555
H32_2 C37_2 1_555 1_555
H33_2 C37_2 1_555 1_555
N15_2 N16_2 1_555 1_555
C43_2 C37_2 1_555 1_555
N16_2 H40_2 1_555 1_555
C44_2 C43_2 1_555 1_555
H41_2 C44_2 1_555 1_555
C45_2 N15_2 1_555 1_555
H42_2 C45_2 1_555 1_555
Co4 N5_2 1_555 1_555
Co6 O7_2 1_555 1_555
Co9 N15_2 1_555 1_555
N19_2 Co2_2 1_555 1_555
C5_2 C10_2 1_555 1_555
N4_2 C16_2 1_555 1_555
N5_2 N6_2 1_555 1_555
C43_2 C45_2 1_555 1_555
N16_2 C44_2 1_555 1_555
N8_3 H19_3 1_555 1_555
H20_3 C21_3 1_555 1_555
N8_3 C21_3 1_555 1_555
C38_3 C35_3 1_555 1_555
H34_3 C38_3 1_555 1_555
H35_3 C38_3 1_555 1_555
C39_3 C35_3 1_555 1_555
H36_3 C39_3 1_555 1_555
C40_3 C38_3 1_555 1_555
C41_3 C40_3 1_555 1_555
H37_3 C41_3 1_555 1_555
C42_3 C40_3 1_555 1_555
H38_3 C42_3 1_555 1_555
N18 C41_3 1_555 1_555
N14_3 C42_3 1_555 1_555
H39_3 N14_3 1_555 1_555
N18 N14_3 1_555 1_555
Co5 O3_3 1_555 1_555
Co6 O1_3 1_555 1_555
O1_3 C4_3 1_555 1_555
O2_3 Co6 1_555 1_555
O3_3 C6_3 1_555 1_555
O4_3 C6_3 1_555 1_555
O5_3 C4_3 1_555 1_555
C1_3 C2_3 1_555 1_555
C2_3 H2_3 1_555 1_555
N1_3 Co6 1_555 1_555
O6_3 Co6 1_555 1_555
N2_3 Co5 1_555 1_555
N3_3 N2_3 1_555 1_555
H4_3 N3_3 1_555 1_555
C3_3 C2_3 1_555 1_555
C4_3 C3_3 1_555 1_555
C5_3 C9_3 1_555 1_555
C6_3 C1_3 1_555 1_555
C7_3 N2_3 1_555 1_555
H5_3 C7_3 1_555 1_555
C8_3 C7_3 1_555 1_555
C9_3 C1_3 1_555 1_555
H6_3 C9_3 1_555 1_555
C10_3 C3_3 1_555 1_555
H7_3 C10_3 1_555 1_555
C11_3 N3_3 1_555 1_555
H8_3 C11_3 1_555 1_555
C13_3 N1_3 1_555 1_555
H9_3 C13_3 1_555 1_555
N4_3 N1_3 1_555 1_555
H10_3 N4_3 1_555 1_555
C14_3 C8_3 1_555 1_555
C20_3 C14_3 1_555 1_555
C22_3 N19 1_555 1_555
H21_3 C22_3 1_555 1_555
O17_2 C23_3 1_555 1_555
O8_3 C23_3 1_555 1_555
C23_3 C5_3 1_555 1_555
C5_3 C10_3 1_555 1_555
C8_3 C11_3 1_555 1_555
C20_3 C22_3 1_555 1_555
Co8 O9_3 1_555 1_555
O9_3 C27_3 1_555 1_555
O10_3 Co8 1_555 1_555
O11_3 Co5_2 1_555 1_555
O12_3 C29_3 1_555 1_555
O13_3 C27_3 1_555 1_555
C24_3 C25_3 1_555 1_555
C25_3 H23_3 1_555 1_555
N9_3 Co8 1_555 1_555
O14_3 Co8 1_555 1_555
N10_3 Co5_2 1_555 1_555
N11_3 N10_3 1_555 1_555
H25_3 N11_3 1_555 1_555
C26_3 C25_3 1_555 1_555
C27_3 C26_3 1_555 1_555
C28_3 C32_3 1_555 1_555
C29_3 O11_3 1_555 1_555
C30_3 N10_3 1_555 1_555
H26_3 C30_3 1_555 1_555
C31_3 C30_3 1_555 1_555
C32_3 C24_3 1_555 1_555
H27_3 C32_3 1_555 1_555
C33_3 C26_3 1_555 1_555
H28_3 C33_3 1_555 1_555
C34_3 N11_3 1_555 1_555
H29_3 C34_3 1_555 1_555
C36_3 N9_3 1_555 1_555
H30_3 C36_3 1_555 1_555
N12_3 N9_3 1_555 1_555
H31_3 N12_3 1_555 1_555
C37_3 C31_3 1_555 1_555
C43_3 C37_3 1_555 1_555
C45_3 N20 1_555 1_555
H42_3 C45_3 1_555 1_555
O18_2 C46_3 1_555 1_555
O16_3 C46_3 1_555 1_555
C46_3 C28_3 1_555 1_555
C24_3 C29_3 1_555 1_555
C28_3 C33_3 1_555 1_555
C31_3 C34_3 1_555 1_555
C43_3 C45_3 1_555 1_555
C15_3 C12_3 1_555 1_555
H13_3 C15_3 1_555 1_555
H14_3 C15_3 1_555 1_555
C16_3 C12_3 1_555 1_555
H15_3 C16_3 1_555 1_555
C17_3 C15_3 1_555 1_555
C18_3 C17_3 1_555 1_555
H16_3 C18_3 1_555 1_555
C19_3 C17_3 1_555 1_555
H17_3 C19_3 1_555 1_555
N17 C18_3 1_555 1_555
N6_3 C19_3 1_555 1_555
H18_4 N6_3 1_555 1_555
N17 N6_3 1_555 1_555
N16_3 H40_3 1_555 1_555
H41_3 C44_3 1_555 1_555
N16_3 C44_3 1_555 1_555
N8_4 H19_4 1_555 1_555
H20_4 C21_4 1_555 1_555
C38_4 C35_4 1_555 1_555
H34_4 C38_4 1_555 1_555
H35_4 C38_4 1_555 1_555
C39_4 C35_4 1_555 1_555
H36_4 C39_4 1_555 1_555
C40_4 C38_4 1_555 1_555
C41_4 C40_4 1_555 1_555
H37_4 C41_4 1_555 1_555
C42_4 C40_4 1_555 1_555
H38_4 C42_4 1_555 1_555
N18_2 C41_4 1_555 1_555
N14_4 C42_4 1_555 1_555
H39_6 N14_4 1_555 1_555
N8_4 C21_4 1_555 1_555
N18_2 N14_4 1_555 1_555
Co4 O3_4 1_555 1_555
Co7 O1_4 1_555 1_555
O1_4 C4_4 1_555 1_555
O2_4 Co7 1_555 1_555
O3_4 C6_4 1_555 1_555
O4_4 C6_4 1_555 1_555
O5_4 C4_4 1_555 1_555
C1_4 C2_4 1_555 1_555
C2_4 H2_4 1_555 1_555
N1_4 Co7 1_555 1_555
O6_4 Co7 1_555 1_555
N2_4 Co4 1_555 1_555
N3_4 N2_4 1_555 1_555
H4_4 N3_4 1_555 1_555
C3_4 C2_4 1_555 1_555
C4_4 C3_4 1_555 1_555
C5_4 C9_4 1_555 1_555
C6_4 C1_4 1_555 1_555
C7_4 N2_4 1_555 1_555
H5_4 C7_4 1_555 1_555
C8_4 C7_4 1_555 1_555
C9_4 C1_4 1_555 1_555
H6_4 C9_4 1_555 1_555
C10_4 C3_4 1_555 1_555
H7_4 C10_4 1_555 1_555
C11_4 N3_4 1_555 1_555
H8_4 C11_4 1_555 1_555
C13_4 N1_4 1_555 1_555
H9_4 C13_4 1_555 1_555
N4_4 N1_4 1_555 1_555
H10_4 N4_4 1_555 1_555
C14_4 C8_4 1_555 1_555
C20_4 C14_4 1_555 1_555
C22_4 N19_2 1_555 1_555
H21_4 C22_4 1_555 1_555
O17 C23_4 1_555 1_555
O8_4 C23_4 1_555 1_555
C23_4 C5_4 1_555 1_555
Co9 O9_4 1_555 1_555
O9_4 C27_4 1_555 1_555
O10_4 Co9 1_555 1_555
O11_4 Co4 1_555 1_555
O12_4 C29_4 1_555 1_555
O13_4 C27_4 1_555 1_555
C24_4 C25_4 1_555 1_555
C25_4 H23_4 1_555 1_555
N9_4 Co9 1_555 1_555
O14_4 Co9 1_555 1_555
N10_4 Co4 1_555 1_555
N11_4 N10_4 1_555 1_555
H25_4 N11_4 1_555 1_555
C26_4 C25_4 1_555 1_555
C27_4 C26_4 1_555 1_555
C28_4 C32_4 1_555 1_555
C29_4 O11_4 1_555 1_555
C30_4 N10_4 1_555 1_555
H26_4 C30_4 1_555 1_555
C31_4 C30_4 1_555 1_555
C32_4 C24_4 1_555 1_555
H27_4 C32_4 1_555 1_555
C33_4 C26_4 1_555 1_555
H28_4 C33_4 1_555 1_555
C34_4 N11_4 1_555 1_555
H29_4 C34_4 1_555 1_555
C36_4 N9_4 1_555 1_555
H30_4 C36_4 1_555 1_555
N12_4 N9_4 1_555 1_555
H31_4 N12_4 1_555 1_555
C37_4 C31_4 1_555 1_555
C43_4 C37_4 1_555 1_555
C45_4 N20_2 1_555 1_555
H42_4 C45_4 1_555 1_555
O18 C46_4 1_555 1_555
O16_4 C46_4 1_555 1_555
C46_4 C28_4 1_555 1_555
C5_4 C10_4 1_555 1_555
C8_4 C11_4 1_555 1_555
C20_4 C22_4 1_555 1_555
C24_4 C29_4 1_555 1_555
C28_4 C33_4 1_555 1_555
C31_4 C34_4 1_555 1_555
C43_4 C45_4 1_555 1_555
C15_4 C12_4 1_555 1_555
H13_4 C15_4 1_555 1_555
H14_4 C15_4 1_555 1_555
C16_4 C12_4 1_555 1_555
H15_4 C16_4 1_555 1_555
C17_4 C15_4 1_555 1_555
C18_4 C17_4 1_555 1_555
H16_4 C18_4 1_555 1_555
C19_4 C17_4 1_555 1_555
H17_4 C19_4 1_555 1_555
N17_2 C18_4 1_555 1_555
N6_4 C19_4 1_555 1_555
H18_5 N6_4 1_555 1_555
N16_4 H40_4 1_555 1_555
H41_4 C44_4 1_555 1_555
N17_2 N6_4 1_555 1_555
N16_4 C44_4 1_555 1_555

#END
