
###############################################################################
#
# This file contains modified crystal structure data generated from the
# MOF subset of the Cambridge Structural Database (CSD) v543 
# hosted by the Cambridge Crystallographic Data Centre (CCDC).
#
# This work is licensed under the Creative Commons
# Attribution-NonCommercial-ShareAlike 4.0 International License.
# To view a copy of this license, visit
# http://creativecommons.org/licenses/by-nc-sa/4.0/
# or send a letter to
# Creative Commons, PO Box 1866, Mountain View, CA 94042, USA.
#
# CIF created using the CSD Python API on 29 September 2022
# The structure has been converted into the P1 space group
# The structure has a 3D framework
# The original CSD entry ULINEK is in the monoclinic crystal system
# The framework has been calculated to contain at least 10.0% void space
# The void calculation uses a probe of radius 1.32A, grid spacing 0.4
#
###############################################################################

data_ULINEK
_chemical_formula_moiety         '(C104 H114 Co10 N30 O15)n'
_symmetry_cell_setting           triclinic
_symmetry_space_group_name_H-M   'P 1'
_symmetry_Int_Tables_number      1
_space_group_name_Hall           'P 1'
loop_
_symmetry_equiv_pos_site_id
_symmetry_equiv_pos_as_xyz
1 x,y,z
_cell_length_a                   10.6402(4)
_cell_length_b                   13.6428(5)
_cell_length_c                   20.9029(8)
_cell_angle_alpha                90
_cell_angle_beta                 95.418(2)
_cell_angle_gamma                90
_cell_volume                     3020.75
loop_
_atom_site_label
_atom_site_type_symbol
_atom_site_fract_x
_atom_site_fract_y
_atom_site_fract_z
Co3 Co 0.5000 0.0000 0.5000
Co2 Co -0.0000 0.5000 0.5000
N2 N 0.16187(17) 0.52728(12) 0.44825(8)
C7 C 0.27280(18) 0.56874(13) 0.46805(9)
H4 H 0.2902 0.5986 0.5079
C10 C 0.35931(18) 0.56202(12) 0.42201(9)
N4 N 0.1771(2) 0.49552(15) 0.38885(10)
H10 H 0.1196 0.4658 0.3645
C16 C 0.2920(3) 0.51533(19) 0.37200(12)
H11 H 0.3216 0.5000 0.3327
N7 N 0.52597(14) 0.84386(11) 0.49259(7)
N8 N 0.62813(15) 0.79865(11) 0.52110(7)
H24 H 0.6845 0.8266 0.5471
C23 C 0.52778(17) 0.68575(12) 0.46128(8)
C24 C 0.46540(18) 0.77546(13) 0.45589(9)
H25 H 0.3908 0.7864 0.4299
C25 C 0.49551(19) 0.59143(13) 0.42594(10)
H26 H 0.5200 0.5975 0.3826
H27 H 0.5457 0.5392 0.4469
C26 C 0.6309(2) 0.70403(14) 0.50377(9)
H28 H 0.6924 0.6587 0.5182
N12 N 0.05688(18) 0.21492(12) 0.03217(9)
H46 H 0.0833 0.1957 0.0703
C45 C 0.0543(2) 0.30766(15) 0.01360(13)
H48 H 0.0804 0.3611 0.0391
Co3_2 Co 0.5000 1.0000 0.5000
Co6 Co 0.0000 0.0000 0.0000
O9 O 0.12337(15) 0.50432(9) 0.58604(7)
N18 N 0.01383(15) 0.34510(11) 0.48505(8)
H35 H 0.0449 0.4498 0.9216
N11 N 0.01383(15) 0.15490(11) 0.98505(8)
C44 C 0.00725(19) 0.31150(14) 0.95110(11)
Co6_2 Co 0.0000 0.0000 1.0000
Co6_3 Co 0.0000 1.0000 0.0000
Co6_4 Co 0.0000 1.0000 1.0000
N14 N 0.1771(2) 0.00448(15) 0.88885(10)
H50 H 0.1196 0.0342 0.8645
H51 H 0.3216 0.0000 0.8327
Co1 Co 0.5000 0.5000 0.0000
Co2_2 Co 1.0000 0.5000 0.5000
O1 O 0.58801(14) 0.48331(10) 0.09351(6)
C1 C 0.67964(17) 0.48380(12) 0.20042(8)
O2 O 0.87663(15) 0.49568(9) 0.41396(7)
O3 O 0.73661(13) 0.59472(11) 0.12097(6)
C2 C 0.61488(17) 0.39998(13) 0.21447(8)
H1 H 0.5644 0.3691 0.1817
N1 N 0.33069(16) 0.51749(11) 0.04566(7)
C3 C 0.75486(16) 0.53106(15) 0.24888(7)
H2 H 0.7982 0.5879 0.2400
C4 C 0.76480(19) 0.49256(12) 0.31093(8)
C5 C 0.66900(17) 0.52489(14) 0.13269(8)
C6 C 0.69958(18) 0.40814(13) 0.32353(8)
H3 H 0.7076 0.3829 0.3650
C8 C 0.62269(18) 0.35994(13) 0.27638(8)
C9 C 0.14742(18) 0.55703(13) 0.08496(10)
C11 C 0.8469(2) 0.54283(15) 0.36379(9)
C12 C 0.22233(19) 0.56497(14) 0.03409(10)
N3 N 0.32478(18) 0.47837(14) 0.10358(9)
H6 H 0.3832 0.4423 0.1226
C13 C 0.2181(2) 0.50128(15) 0.12899(11)
H7 H 0.1960 0.4827 0.1692
C14 C 0.0184(2) 0.59964(16) 0.09053(14)
H9 H 0.0111 0.6174 0.1350
O4 O 0.8815(2) 0.62775(13) 0.35374(8)
C15 C 0.5482(2) 0.26745(15) 0.28945(10)
C17 C 0.5694(4) 0.2362(2) 0.35961(13)
H12 H 0.6581 0.2276 0.3714
H13 H 0.5262 0.1755 0.3654
H14 H 0.5371 0.2858 0.3863
C18 C 0.5944(5) 0.1831(2) 0.25106(17)
H15 H 0.6810 0.1693 0.2654
H16 H 0.5876 0.2002 0.2063
H17 H 0.5439 0.1261 0.2571
C19 C 0.4112(4) 0.2823(3) 0.2683(3)
H18 H 0.4017 0.3016 0.2239
H19 H 0.3777 0.3325 0.2940
H20 H 0.3663 0.2221 0.2733
C20 C 0.0166(2) 0.78650(15) 0.06485(10)
H22 H 0.0496 0.8081 0.1052
H32 H 0.8009 0.4005 0.0035
H49 H 0.2902 0.9014 0.0079
N16 N 0.62813(15) 0.70135(11) 0.02110(7)
H52 H 0.6845 0.6734 0.0471
C52 C 0.6309(2) 0.79597(14) 0.00377(9)
H56 H 0.6924 0.8413 0.0182
Co6_5 Co 1.0000 0.0000 0.0000
N17 N 0.83813(17) 0.47272(12) 0.55175(8)
N19 N 0.98617(15) 0.65490(11) 0.51495(8)
N20 N 0.47403(14) 0.34386(11) 0.00741(7)
Co1_2 Co 0.5000 0.5000 1.0000
H5 H 0.1991 0.5995 0.9965
O5 O 0.41199(14) 0.51669(10) 0.90649(6)
C27 C 0.32036(17) 0.51620(12) 0.79958(8)
O7 O 0.26339(13) 0.40528(11) 0.87903(6)
C28 C 0.38512(17) 0.60002(13) 0.78553(8)
H29 H 0.4356 0.6309 0.8183
N9 N 0.66931(16) 0.48251(11) 0.95434(7)
C29 C 0.24514(16) 0.46894(15) 0.75112(7)
H30 H 0.2018 0.4121 0.7600
C30 C 0.23520(19) 0.50744(12) 0.68907(8)
C31 C 0.33100(17) 0.47511(14) 0.86731(8)
C32 C 0.30042(18) 0.59186(13) 0.67647(8)
H31 H 0.2924 0.6171 0.6350
C33 C 0.37731(18) 0.64006(13) 0.72362(8)
C34 C 0.85258(18) 0.44297(13) 0.91504(10)
C35 C 0.1531(2) 0.45717(15) 0.63621(9)
C36 C 0.77767(19) 0.43503(14) 0.96591(10)
N10 N 0.67522(18) 0.52163(14) 0.89642(9)
H33 H 0.6168 0.5577 0.8774
C37 C 0.7819(2) 0.49872(15) 0.87101(11)
H34 H 0.8040 0.5173 0.8308
C38 C 0.9816(2) 0.40036(16) 0.90947(14)
H36 H 0.9889 0.3826 0.8650
O8 O 0.1185(2) 0.37225(13) 0.64626(8)
C39 C 0.4518(2) 0.73255(15) 0.71055(10)
C40 C 0.4306(4) 0.7638(2) 0.64039(13)
H37 H 0.3419 0.7724 0.6286
H38 H 0.4738 0.8245 0.6346
H39 H 0.4629 0.7142 0.6137
C41 C 0.4056(5) 0.8169(2) 0.74894(17)
H40 H 0.3190 0.8307 0.7346
H41 H 0.4124 0.7998 0.7937
H42 H 0.4561 0.8739 0.7429
C42 C 0.5888(4) 0.7177(3) 0.7317(3)
H43 H 0.5983 0.6984 0.7761
H44 H 0.6223 0.6675 0.7060
H45 H 0.6337 0.7779 0.7267
C43 C 0.9834(2) 0.21350(15) 0.93515(10)
H47 H 0.9504 0.1919 0.8948
N13 N 0.16187(17) 0.97272(12) 0.94825(8)
C46 C 0.27280(18) 0.93126(13) 0.96805(9)
C47 C 0.35931(18) 0.93798(12) 0.92201(9)
C48 C 0.2920(3) 0.98467(19) 0.87200(12)
H51_2 H 0.3216 1.0000 0.8327
N15 N 0.52597(14) 0.65614(11) 0.99259(7)
C49 C 0.52778(17) 0.81425(12) 0.96128(8)
C50 C 0.46540(18) 0.72454(13) 0.95589(9)
H53 H 0.3908 0.7136 0.9299
C51 C 0.49551(19) 0.90857(13) 0.92594(10)
H54 H 0.5200 0.9025 0.8826
H55 H 0.5457 0.9608 0.9469
Co6_6 Co 1.0000 0.0000 1.0000
Co6_7 Co 1.0000 1.0000 0.0000
Co6_8 Co 1.0000 1.0000 1.0000
H8 H 0.9551 0.5502 0.0784
N5 N 0.98617(15) 0.84510(11) 0.01495(8)
C21 C 0.99275(19) 0.68850(14) 0.04890(11)
N6 N 0.94312(18) 0.78508(12) 0.96783(9)
H21 H 0.9167 0.8043 0.9297
C22 C 0.9457(2) 0.69234(15) 0.98640(13)
H23 H 0.9196 0.6389 0.9609
H8_2 H 0.0449 0.0502 0.4216
N6_2 N 0.05688(18) 0.28508(12) 0.53217(9)
H21_2 H 0.0833 0.3043 0.5703
C21_2 C 0.00725(19) 0.18850(14) 0.45110(11)
C22_2 C 0.0543(2) 0.19234(15) 0.51360(13)
H23_2 H 0.0804 0.1389 0.5391
O3_2 O 0.26339(13) 0.09472(11) 0.37903(6)
N1_2 N 0.66931(16) 0.01749(11) 0.45434(7)
C3_2 C 0.24514(16) 0.03106(15) 0.25112(7)
H2_2 H 0.2018 0.0879 0.2600
C5_2 C 0.33100(17) 0.02489(14) 0.36731(8)
C9_2 C 0.85258(18) 0.05703(13) 0.41504(10)
C11_2 C 0.1531(2) 0.04283(15) 0.13621(9)
C12_2 C 0.77767(19) 0.06497(14) 0.46591(10)
H5_2 H 0.8009 0.0995 0.5035
C13_2 C 0.7819(2) 0.00128(15) 0.37101(11)
C14_2 C 0.9816(2) 0.09964(16) 0.40947(14)
H9_2 H 0.9889 0.1174 0.3650
O4_2 O 0.1185(2) 0.12775(13) 0.14626(8)
C20_2 C 0.9834(2) 0.28650(15) 0.43515(10)
H22_2 H 0.9504 0.3081 0.3948
O5_2 O 0.58801(14) 0.01669(10) 0.59351(6)
C27_2 C 0.67964(17) 0.01620(12) 0.70042(8)
O6 O 0.87663(15) 0.00432(9) 0.91396(7)
C28_2 C 0.61488(17) 0.10002(13) 0.71447(8)
H29_2 H 0.5644 0.1309 0.6817
C30_2 C 0.76480(19) 0.00744(12) 0.81093(8)
C32_2 C 0.69958(18) 0.09186(13) 0.82353(8)
H31_2 H 0.7076 0.1171 0.8650
C33_2 C 0.62269(18) 0.14006(13) 0.77638(8)
N10_2 N 0.32478(18) 0.02163(14) 0.60358(9)
H33_2 H 0.3832 0.0577 0.6226
H34_2 H 0.1960 0.0173 0.6692
C39_2 C 0.5482(2) 0.23255(15) 0.78945(10)
C40_2 C 0.5694(4) 0.2638(2) 0.85961(13)
H37_2 H 0.6581 0.2724 0.8714
H38_2 H 0.5262 0.3245 0.8654
H39_2 H 0.5371 0.2142 0.8863
C41_2 C 0.5944(5) 0.3169(2) 0.75106(17)
H40_2 H 0.6810 0.3307 0.7654
H41_2 H 0.5876 0.2998 0.7063
H42_2 H 0.5439 0.3739 0.7571
C42_2 C 0.4112(4) 0.2177(3) 0.7683(3)
H43_2 H 0.4017 0.1984 0.7239
H44_2 H 0.3777 0.1675 0.7940
H45_2 H 0.3663 0.2779 0.7733
C46_2 C 0.72720(18) 0.43126(13) 0.53195(9)
H49_2 H 0.7098 0.4014 0.4921
C47_2 C 0.64069(18) 0.43798(12) 0.57799(9)
N14_2 N 0.8229(2) 0.50448(15) 0.61115(10)
H50_2 H 0.8804 0.5342 0.6355
C48_2 C 0.7080(3) 0.48467(19) 0.62800(12)
H51_3 H 0.6784 0.5000 0.6673
N15_2 N 0.47403(14) 0.15614(11) 0.50741(7)
N16_2 N 0.37187(15) 0.20135(11) 0.47890(7)
H52_2 H 0.3155 0.1734 0.4529
C49_2 C 0.47222(17) 0.31425(12) 0.53872(8)
C50_2 C 0.53460(18) 0.22454(13) 0.54411(9)
H53_2 H 0.6092 0.2136 0.5701
C51_2 C 0.50449(19) 0.40857(13) 0.57406(10)
H54_2 H 0.4800 0.4025 0.6174
H55_2 H 0.4543 0.4608 0.5531
C52_2 C 0.3691(2) 0.29597(14) 0.49623(9)
H56_2 H 0.3076 0.3413 0.4818
O1_2 O 0.41199(14) 0.98331(10) 0.40649(6)
C1_2 C 0.32036(17) 0.98380(12) 0.29958(8)
O2_2 O 0.12337(15) 0.99568(9) 0.08604(7)
C2_2 C 0.38512(17) 0.89998(13) 0.28553(8)
H1_2 H 0.4356 0.8691 0.3183
C4_2 C 0.23520(19) 0.99256(12) 0.18907(8)
C6_2 C 0.30042(18) 0.90814(13) 0.17647(8)
H3_2 H 0.2924 0.8829 0.1350
C8_2 C 0.37731(18) 0.85994(13) 0.22362(8)
N3_2 N 0.67522(18) 0.97837(14) 0.39642(9)
H6_2 H 0.6168 0.9423 0.3774
H7_2 H 0.8040 0.9827 0.3308
C15_2 C 0.4518(2) 0.76745(15) 0.21055(10)
C17_2 C 0.4306(4) 0.7362(2) 0.14039(13)
H12_2 H 0.3419 0.7276 0.1286
H13_2 H 0.4738 0.6755 0.1346
H14_2 H 0.4629 0.7858 0.1137
C18_2 C 0.4056(5) 0.6831(2) 0.24894(17)
H15_2 H 0.3190 0.6693 0.2346
H16_2 H 0.4124 0.7002 0.2937
H17_2 H 0.4561 0.6261 0.2429
C19_2 C 0.5888(4) 0.7823(3) 0.2317(3)
H18_2 H 0.5983 0.8016 0.2761
H19_2 H 0.6223 0.8325 0.2060
H20_2 H 0.6337 0.7221 0.2267
O7_2 O 0.73661(13) 0.90528(11) 0.62097(6)
N9_2 N 0.33069(16) 0.98251(11) 0.54566(7)
C29_2 C 0.75486(16) 0.96894(15) 0.74888(7)
H30_2 H 0.7982 0.9121 0.7400
C31_2 C 0.66900(17) 0.97511(14) 0.63269(8)
C34_2 C 0.14742(18) 0.94297(13) 0.58496(10)
C35_2 C 0.8469(2) 0.95717(15) 0.86379(9)
C36_2 C 0.22233(19) 0.93503(14) 0.53409(10)
H32_2 H 0.1991 0.9005 0.4965
C37_2 C 0.2181(2) 0.99872(15) 0.62899(11)
C38_2 C 0.0184(2) 0.90036(16) 0.59053(14)
H36_2 H 0.0111 0.8826 0.6350
O8_2 O 0.8815(2) 0.87225(13) 0.85374(8)
C43_2 C 0.0166(2) 0.71350(15) 0.56485(10)
H47_2 H 0.0496 0.6919 0.6052
N2_2 N 0.83813(17) 0.02728(12) 0.05175(8)
C7_2 C 0.72720(18) 0.06874(13) 0.03195(9)
C10_2 C 0.64069(18) 0.06202(12) 0.07799(9)
C16_2 C 0.7080(3) 0.01533(19) 0.12800(12)
H11_2 H 0.6784 0.0000 0.1673
C23_2 C 0.47222(17) 0.18575(12) 0.03872(8)
C24_2 C 0.53460(18) 0.27546(13) 0.04411(9)
H25_2 H 0.6092 0.2864 0.0701
C25_2 C 0.50449(19) 0.09143(13) 0.07406(10)
H26_2 H 0.4800 0.0975 0.1174
H27_2 H 0.4543 0.0392 0.0531
H4_2 H 0.7098 0.0986 0.9921
N8_2 N 0.37187(15) 0.29865(11) 0.97890(7)
H24_2 H 0.3155 0.3266 0.9529
C26_2 C 0.3691(2) 0.20403(14) 0.99623(9)
H28_2 H 0.3076 0.1587 0.9818
N4_2 N 0.8229(2) 0.99552(15) 0.11115(10)
H10_2 H 0.8804 0.9658 0.1355
H11_3 H 0.6784 1.0000 0.1673
H35_2 H 0.9551 0.9498 0.5784
N12_2 N 0.94312(18) 0.71492(12) 0.46783(9)
H46_2 H 0.9167 0.6957 0.4297
C44_2 C 0.99275(19) 0.81150(14) 0.54890(11)
C45_2 C 0.9457(2) 0.80766(15) 0.48640(13)
H48_2 H 0.9196 0.8611 0.4609
loop_
_geom_bond_atom_site_label_1
_geom_bond_atom_site_label_2
_geom_bond_site_symmetry_1
_geom_bond_site_symmetry_2
N2 Co2 1_555 1_555
C7 N2 1_555 1_555
H4 C7 1_555 1_555
C10 C7 1_555 1_555
N4 N2 1_555 1_555
H10 N4 1_555 1_555
C16 C10 1_555 1_555
H11 C16 1_555 1_555
N7 N8 1_555 1_555
N8 H24 1_555 1_555
C23 C24 1_555 1_555
C24 N7 1_555 1_555
H25 C24 1_555 1_555
C25 C10 1_555 1_555
H26 C25 1_555 1_555
H27 C25 1_555 1_555
C26 N8 1_555 1_555
H28 C26 1_555 1_555
N12 H46 1_555 1_555
C45 N12 1_555 1_555
H48 C45 1_555 1_555
Co3_2 N7 1_555 1_555
O9 Co2 1_555 1_555
N18 Co2 1_555 1_555
N4 C16 1_555 1_555
C23 C25 1_555 1_555
C23 C26 1_555 1_555
Co6_2 N11 1_555 1_555
H50 N14 1_555 1_555
Co1 O1 1_555 1_555
Co2_2 O2 1_555 1_555
O1 C5 1_555 1_555
C1 C2 1_555 1_555
O2 C11 1_555 1_555
O3 C5 1_555 1_555
C2 H1 1_555 1_555
N1 Co1 1_555 1_555
C3 C1 1_555 1_555
H2 C3 1_555 1_555
C4 C3 1_555 1_555
C5 C1 1_555 1_555
C6 C4 1_555 1_555
H3 C6 1_555 1_555
C8 C2 1_555 1_555
C9 C12 1_555 1_555
C11 C4 1_555 1_555
C12 N1 1_555 1_555
N3 N1 1_555 1_555
H6 N3 1_555 1_555
C13 C9 1_555 1_555
H7 C13 1_555 1_555
C14 C9 1_555 1_555
H9 C14 1_555 1_555
O4 C11 1_555 1_555
C15 C8 1_555 1_555
C17 C15 1_555 1_555
H12 C17 1_555 1_555
H13 C17 1_555 1_555
H14 C17 1_555 1_555
C18 C15 1_555 1_555
H15 C18 1_555 1_555
H16 C18 1_555 1_555
H17 C18 1_555 1_555
C19 C15 1_555 1_555
H18 C19 1_555 1_555
H19 C19 1_555 1_555
H20 C19 1_555 1_555
H22 C20 1_555 1_555
H52 N16 1_555 1_555
C52 N16 1_555 1_555
H56 C52 1_555 1_555
N17 Co2_2 1_555 1_555
N19 Co2_2 1_555 1_555
N20 Co1 1_555 1_555
C6 C8 1_555 1_555
N3 C13 1_555 1_555
O5 Co1_2 1_555 1_555
C27 C28 1_555 1_555
O9 C35 1_555 1_555
O7 C31 1_555 1_555
C28 H29 1_555 1_555
N9 Co1_2 1_555 1_555
C29 C27 1_555 1_555
H30 C29 1_555 1_555
C30 C29 1_555 1_555
C31 O5 1_555 1_555
C32 C30 1_555 1_555
H31 C32 1_555 1_555
C33 C28 1_555 1_555
C34 C36 1_555 1_555
C35 C30 1_555 1_555
C36 N9 1_555 1_555
N10 N9 1_555 1_555
H33 N10 1_555 1_555
C37 C34 1_555 1_555
H34 C37 1_555 1_555
C38 C34 1_555 1_555
H36 C38 1_555 1_555
O8 C35 1_555 1_555
C39 C33 1_555 1_555
C40 C39 1_555 1_555
H37 C40 1_555 1_555
H38 C40 1_555 1_555
H39 C40 1_555 1_555
C41 C39 1_555 1_555
H40 C41 1_555 1_555
H41 C41 1_555 1_555
H42 C41 1_555 1_555
C42 C39 1_555 1_555
H43 C42 1_555 1_555
H44 C42 1_555 1_555
H45 C42 1_555 1_555
H47 C43 1_555 1_555
N13 C46 1_555 1_555
C47 C46 1_555 1_555
C48 C47 1_555 1_555
H51_2 C48 1_555 1_555
N15 Co1_2 1_555 1_555
C49 C50 1_555 1_555
C50 N15 1_555 1_555
H53 C50 1_555 1_555
C51 C47 1_555 1_555
H54 C51 1_555 1_555
H55 C51 1_555 1_555
C27 C31 1_555 1_555
C32 C33 1_555 1_555
N10 C37 1_555 1_555
N13 Co6_4 1_555 1_555
C49 C51 1_555 1_555
Co6_7 N5 1_555 1_555
N6 H21 1_555 1_555
C22 N6 1_555 1_555
H23 C22 1_555 1_555
N18 N6_2 1_555 1_555
N6_2 H21_2 1_555 1_555
C22_2 N6_2 1_555 1_555
H23_2 C22_2 1_555 1_555
C21_2 C22_2 1_555 1_555
O3_2 C5_2 1_555 1_555
N1_2 Co3 1_555 1_555
H2_2 C3_2 1_555 1_555
C9_2 C12_2 1_555 1_555
C12_2 N1_2 1_555 1_555
H5_2 C12_2 1_555 1_555
C13_2 C9_2 1_555 1_555
C14_2 C9_2 1_555 1_555
H9_2 C14_2 1_555 1_555
O4_2 C11_2 1_555 1_555
H22_2 C20_2 1_555 1_555
O5_2 Co3 1_555 1_555
C27_2 C28_2 1_555 1_555
C28_2 H29_2 1_555 1_555
C32_2 C30_2 1_555 1_555
H31_2 C32_2 1_555 1_555
C33_2 C28_2 1_555 1_555
H33_2 N10_2 1_555 1_555
C39_2 C33_2 1_555 1_555
C40_2 C39_2 1_555 1_555
H37_2 C40_2 1_555 1_555
H38_2 C40_2 1_555 1_555
H39_2 C40_2 1_555 1_555
C41_2 C39_2 1_555 1_555
H40_2 C41_2 1_555 1_555
H41_2 C41_2 1_555 1_555
H42_2 C41_2 1_555 1_555
C42_2 C39_2 1_555 1_555
H43_2 C42_2 1_555 1_555
H44_2 C42_2 1_555 1_555
H45_2 C42_2 1_555 1_555
N17 C46_2 1_555 1_555
C46_2 H49_2 1_555 1_555
C47_2 C46_2 1_555 1_555
N14_2 N17 1_555 1_555
H50_2 N14_2 1_555 1_555
C48_2 C47_2 1_555 1_555
H51_3 C48_2 1_555 1_555
N15_2 Co3 1_555 1_555
N16_2 N15_2 1_555 1_555
H52_2 N16_2 1_555 1_555
C49_2 C50_2 1_555 1_555
C50_2 N15_2 1_555 1_555
H53_2 C50_2 1_555 1_555
C51_2 C47_2 1_555 1_555
H54_2 C51_2 1_555 1_555
H55_2 C51_2 1_555 1_555
C52_2 N16_2 1_555 1_555
H56_2 C52_2 1_555 1_555
Co6_6 O6 1_555 1_555
C32_2 C33_2 1_555 1_555
N14_2 C48_2 1_555 1_555
C49_2 C51_2 1_555 1_555
C49_2 C52_2 1_555 1_555
Co3_2 O1_2 1_555 1_555
Co6_3 O2_2 1_555 1_555
C1_2 C2_2 1_555 1_555
C2_2 H1_2 1_555 1_555
C6_2 C4_2 1_555 1_555
H3_2 C6_2 1_555 1_555
C8_2 C2_2 1_555 1_555
H6_2 N3_2 1_555 1_555
C15_2 C8_2 1_555 1_555
C17_2 C15_2 1_555 1_555
H12_2 C17_2 1_555 1_555
H13_2 C17_2 1_555 1_555
H14_2 C17_2 1_555 1_555
C18_2 C15_2 1_555 1_555
H15_2 C18_2 1_555 1_555
H16_2 C18_2 1_555 1_555
H17_2 C18_2 1_555 1_555
C19_2 C15_2 1_555 1_555
H18_2 C19_2 1_555 1_555
H19_2 C19_2 1_555 1_555
H20_2 C19_2 1_555 1_555
O7_2 C31_2 1_555 1_555
N9_2 Co3_2 1_555 1_555
H30_2 C29_2 1_555 1_555
C34_2 C36_2 1_555 1_555
C36_2 N9_2 1_555 1_555
H32_2 C36_2 1_555 1_555
C37_2 C34_2 1_555 1_555
C38_2 C34_2 1_555 1_555
H36_2 C38_2 1_555 1_555
O8_2 C35_2 1_555 1_555
H47_2 C43_2 1_555 1_555
C6_2 C8_2 1_555 1_555
N2_2 Co6_5 1_555 1_555
C7_2 N2_2 1_555 1_555
C10_2 C7_2 1_555 1_555
C16_2 C10_2 1_555 1_555
H11_2 C16_2 1_555 1_555
C23_2 C24_2 1_555 1_555
C24_2 N20 1_555 1_555
H25_2 C24_2 1_555 1_555
C25_2 C10_2 1_555 1_555
H26_2 C25_2 1_555 1_555
H27_2 C25_2 1_555 1_555
C23_2 C25_2 1_555 1_555
N8_2 H24_2 1_555 1_555
C26_2 N8_2 1_555 1_555
H28_2 C26_2 1_555 1_555
H10_2 N4_2 1_555 1_555
N19 N12_2 1_555 1_555
N12_2 H46_2 1_555 1_555
C45_2 N12_2 1_555 1_555
H48_2 C45_2 1_555 1_555
C44_2 C45_2 1_555 1_555

#END
