
###############################################################################
#
# This file contains modified crystal structure data generated from the
# MOF subset of the Cambridge Structural Database (CSD) v543 
# hosted by the Cambridge Crystallographic Data Centre (CCDC).
#
# This work is licensed under the Creative Commons
# Attribution-NonCommercial-ShareAlike 4.0 International License.
# To view a copy of this license, visit
# http://creativecommons.org/licenses/by-nc-sa/4.0/
# or send a letter to
# Creative Commons, PO Box 1866, Mountain View, CA 94042, USA.
#
# CIF created using the CSD Python API on 29 September 2022
# The structure has been converted into the P1 space group
# The structure has a 3D framework
# The original CSD entry ULISOZ is in the monoclinic crystal system
# The framework has been calculated to contain at least 10.0% void space
# The void calculation uses a probe of radius 1.32A, grid spacing 0.4
#
###############################################################################

data_ULISOZ
_chemical_formula_moiety         '(C36 H28 N4 O24 Zn4)n'
_symmetry_cell_setting           triclinic
_symmetry_space_group_name_H-M   'P 1'
_symmetry_Int_Tables_number      1
_space_group_name_Hall           'P 1'
loop_
_symmetry_equiv_pos_site_id
_symmetry_equiv_pos_as_xyz
1 x,y,z
_cell_length_a                   9.470(4)
_cell_length_b                   12.351(5)
_cell_length_c                   13.575(5)
_cell_angle_alpha                90
_cell_angle_beta                 94.327(5)
_cell_angle_gamma                90
_cell_volume                     1583.26
loop_
_atom_site_label
_atom_site_type_symbol
_atom_site_fract_x
_atom_site_fract_y
_atom_site_fract_z
O7 O 0.1608(5) 0.0746(4) 0.5835(3)
H2 H 0.3177 0.0186 0.4492
C16 C 0.0650(8) 0.0658(6) 0.5106(6)
Zn7 Zn 0.12372(5) 0.18421(5) 0.67921(4)
O4 O 0.0719(5) 0.5942(4) 0.2254(4)
O5 O 0.2069(6) 0.3161(3) 0.4860(4)
O6 O 0.0633(6) 0.3192(3) 0.6113(4)
O9 O 0.4623(5) 0.8233(3) 0.2583(4)
O10 O 0.5241(4) 0.9792(3) 0.3323(3)
C2 C 0.0366(7) 0.8843(5) 0.2878(5)
C3 C 0.1771(7) 0.8723(5) 0.2683(5)
H1 H 0.2011 0.8307 0.2132
C4 C 0.2836(7) 0.9213(5) 0.3297(5)
C5 C 0.2461(7) 0.9836(5) 0.4080(5)
C6 C 0.1059(7) 0.9959(5) 0.4271(5)
C11 C 0.0130(8) 0.4415(6) 0.3723(6)
H5 H 0.1102 0.4529 0.3628
C12 C 0.0904(8) 0.3363(5) 0.5231(6)
C17 C 0.4354(7) 0.9100(5) 0.3065(5)
Zn4 Zn 0.39147(5) 0.32045(5) 0.55911(4)
Zn5 Zn 0.62372(5) 0.81579(5) 0.17921(4)
O17 O 0.0529(6) 0.6840(3) 0.9809(4)
Zn1 Zn 0.89147(5) 0.67955(5) 0.05911(4)
O1 O 0.9514(6) 0.8118(3) 0.1336(4)
O2 O 0.8070(6) 0.8139(3) 0.2567(4)
O3 O 0.8606(5) 0.5625(4) 0.1496(3)
O11 O 0.5529(6) 0.3160(3) 0.4809(4)
O12 O 0.4855(4) 0.4436(3) 0.3714(3)
C1 C 0.9235(8) 0.8327(5) 0.2208(6)
C7 C 0.9997(8) 0.9460(5) 0.3666(5)
H3 H 0.9031 0.9544 0.3795
C8 C 0.9530(7) 0.5524(5) 0.2213(5)
C9 C 0.9120(7) 0.4837(5) 0.3048(5)
C10 C 0.7684(8) 0.4637(5) 0.3179(5)
H4 H 0.6968 0.4899 0.2710
C13 C 0.9770(7) 0.3830(5) 0.4535(5)
C14 C 0.8341(7) 0.3660(5) 0.4684(5)
H6 H 0.8079 0.3280 0.5251
C15 C 0.7317(7) 0.4051(5) 0.4000(5)
C18 C 0.5761(7) 0.3891(5) 0.4169(5)
O14 O 0.5633(6) 0.6808(3) 0.1113(4)
O15 O 0.6608(5) 0.9254(4) 0.0835(3)
O13 O 0.7069(6) 0.6839(3) 0.9860(4)
O10_2 O 0.0241(4) 0.0208(3) 0.8323(3)
C12_2 C 0.5904(8) 0.6637(5) 0.0231(6)
H6_2 H 0.3079 0.6720 0.0251
O1_2 O 0.4514(6) 0.1882(3) 0.6336(4)
O2_2 O 0.3070(6) 0.1861(3) 0.7567(4)
O3_2 O 0.3606(5) 0.4375(4) 0.6496(3)
O4_2 O 0.5719(5) 0.4058(4) 0.7254(4)
O9_2 O 0.9623(5) 0.1767(3) 0.7583(4)
C1_2 C 0.4235(8) 0.1673(5) 0.7208(6)
C2_2 C 0.5366(7) 0.1157(5) 0.7878(5)
C3_2 C 0.6771(7) 0.1277(5) 0.7683(5)
H1_2 H 0.7011 0.1693 0.7132
C4_2 C 0.7836(7) 0.0787(5) 0.8297(5)
C5_2 C 0.7461(7) 0.0164(5) 0.9080(5)
C6_2 C 0.6059(7) 0.0041(5) 0.9271(5)
C7_2 C 0.4997(8) 0.0540(5) 0.8666(5)
H3_2 H 0.4031 0.0456 0.8795
C8_2 C 0.4530(7) 0.4476(5) 0.7213(5)
C9_2 C 0.4120(7) 0.5163(5) 0.8048(5)
C10_2 C 0.2684(8) 0.5363(5) 0.8179(5)
H4_2 H 0.1968 0.5101 0.7710
C11_2 C 0.5130(8) 0.5585(6) 0.8723(6)
H5_2 H 0.6102 0.5471 0.8628
C13_2 C 0.4770(7) 0.6170(5) 0.9535(5)
C14_2 C 0.3341(7) 0.6340(5) 0.9684(5)
C15_2 C 0.2317(7) 0.5949(5) 0.9000(5)
C17_2 C 0.9354(7) 0.0900(5) 0.8065(5)
C18_2 C 0.0761(7) 0.6109(5) 0.9169(5)
O8 O 0.4502(5) 0.8860(4) 0.0057(4)
C16_2 C 0.5650(8) 0.9342(6) 0.0106(6)
O12_2 O 0.9855(4) 0.5564(3) 0.8714(3)
O8_2 O 0.9502(5) 0.1140(4) 0.5057(4)
H2_2 H 0.8177 0.9814 0.9492
N1 N 0.6628(5) 0.0862(4) 0.4962(4)
H7 H 0.628(7) 0.062(5) 0.438(3)
H8 H 0.749(4) 0.105(5) 0.483(5)
H9 H 0.620(6) 0.145(4) 0.515(5)
H10 H 0.687(7) 0.036(4) 0.539(4)
H9_2 H 0.120(6) 0.855(4) 0.015(5)
H10_2 H 0.187(7) 0.964(4) 0.039(4)
N1_2 N 0.1628(5) 0.9138(4) 0.9962(4)
H7_2 H 0.128(7) 0.938(5) 0.938(3)
H8_2 H 0.249(4) 0.895(5) 0.983(5)
N2 N 0.3320(5) 0.6331(4) 0.3316(4)
H11 H 0.249(4) 0.624(5) 0.302(4)
H12 H 0.369(6) 0.683(4) 0.296(4)
H13 H 0.393(6) 0.580(4) 0.328(4)
H14 H 0.326(7) 0.660(5) 0.392(3)
N2_2 N 0.8320(5) 0.3669(4) 0.8316(4)
H11_2 H 0.749(4) 0.376(5) 0.802(4)
H12_2 H 0.869(6) 0.317(4) 0.796(4)
H13_2 H 0.893(6) 0.420(4) 0.828(4)
H14_2 H 0.826(7) 0.340(5) 0.892(3)
loop_
_geom_bond_atom_site_label_1
_geom_bond_atom_site_label_2
_geom_bond_site_symmetry_1
_geom_bond_site_symmetry_2
O7 C16 1_555 1_555
Zn7 O7 1_555 1_555
O5 C12 1_555 1_555
O6 C12 1_555 1_555
O9 C17 1_555 1_555
O10 C17 1_555 1_555
C2 C3 1_555 1_555
C3 H1 1_555 1_555
C4 C3 1_555 1_555
C5 C4 1_555 1_555
C6 C5 1_555 1_555
H5 C11 1_555 1_555
C17 C4 1_555 1_555
Zn4 O5 1_555 1_555
Zn5 O9 1_555 1_555
Zn7 O6 1_555 1_555
Zn1 O1 1_555 1_555
Zn5 O2 1_555 1_555
O1 C1 1_555 1_555
O2 C1 1_555 1_555
O3 Zn1 1_555 1_555
O11 C18 1_555 1_555
O12 C18 1_555 1_555
H3 C7 1_555 1_555
C8 O3 1_555 1_555
C9 C8 1_555 1_555
C10 C9 1_555 1_555
H4 C10 1_555 1_555
C14 C13 1_555 1_555
H6 C14 1_555 1_555
C15 C10 1_555 1_555
C18 C15 1_555 1_555
Zn4 O11 1_555 1_555
O14 Zn5 1_555 1_555
O15 Zn5 1_555 1_555
C14 C15 1_555 1_555
O14 C12_2 1_555 1_555
Zn4 O1_2 1_555 1_555
Zn7 O2_2 1_555 1_555
O1_2 C1_2 1_555 1_555
O2_2 C1_2 1_555 1_555
O3_2 Zn4 1_555 1_555
O4_2 C8_2 1_555 1_555
O9_2 C17_2 1_555 1_555
O17 C18_2 1_555 1_555
C1_2 C2_2 1_555 1_555
C2_2 C3_2 1_555 1_555
C3_2 H1_2 1_555 1_555
C4_2 C3_2 1_555 1_555
C5_2 C4_2 1_555 1_555
C6_2 C5_2 1_555 1_555
C7_2 C2_2 1_555 1_555
H3_2 C7_2 1_555 1_555
C8_2 O3_2 1_555 1_555
C9_2 C8_2 1_555 1_555
C10_2 C9_2 1_555 1_555
H4_2 C10_2 1_555 1_555
C11_2 C9_2 1_555 1_555
H5_2 C11_2 1_555 1_555
C13_2 C11_2 1_555 1_555
C14_2 C13_2 1_555 1_555
C15_2 C10_2 1_555 1_555
C17_2 C4_2 1_555 1_555
C18_2 C15_2 1_555 1_555
C6_2 C7_2 1_555 1_555
C14_2 C15_2 1_555 1_555
O15 C16_2 1_555 1_555
O8 C16_2 1_555 1_555
N1 H7 1_555 1_555
H8 N1 1_555 1_555
H9 N1 1_555 1_555
H10 N1 1_555 1_555
N1_2 H7_2 1_555 1_555
H8_2 N1_2 1_555 1_555
N2 H11 1_555 1_555
H12 N2 1_555 1_555
H13 N2 1_555 1_555
H14 N2 1_555 1_555
N2_2 H11_2 1_555 1_555
H12_2 N2_2 1_555 1_555
H13_2 N2_2 1_555 1_555
H14_2 N2_2 1_555 1_555

#END
