
###############################################################################
#
# This file contains modified crystal structure data generated from the
# MOF subset of the Cambridge Structural Database (CSD) v543 
# hosted by the Cambridge Crystallographic Data Centre (CCDC).
#
# This work is licensed under the Creative Commons
# Attribution-NonCommercial-ShareAlike 4.0 International License.
# To view a copy of this license, visit
# http://creativecommons.org/licenses/by-nc-sa/4.0/
# or send a letter to
# Creative Commons, PO Box 1866, Mountain View, CA 94042, USA.
#
# CIF created using the CSD Python API on 29 September 2022
# The structure has been converted into the P1 space group
# The structure has a 3D framework
# The original CSD entry ULOLAK is in the monoclinic crystal system
# The framework has been calculated to contain at least 10.0% void space
# The void calculation uses a probe of radius 1.32A, grid spacing 0.4
#
###############################################################################

data_ULOLAK
_chemical_formula_moiety         '(C288 H192 I48 N96 Zn24)n'
_symmetry_cell_setting           triclinic
_symmetry_space_group_name_H-M   'P 1'
_symmetry_Int_Tables_number      1
_space_group_name_Hall           'P 1'
loop_
_symmetry_equiv_pos_site_id
_symmetry_equiv_pos_as_xyz
1 x,y,z
_cell_length_a                   35.1590(5)
_cell_length_b                   14.62744(13)
_cell_length_c                   31.1596(4)
_cell_angle_alpha                90
_cell_angle_beta                 101.4862(12)
_cell_angle_gamma                90
_cell_volume                     15704
loop_
_atom_site_label
_atom_site_type_symbol
_atom_site_fract_x
_atom_site_fract_y
_atom_site_fract_z
I1 I 0.26808(2) 0.24564(4) 0.20883(2)
I3 I 0.37450(2) 0.16405(5) 0.30409(2)
I4 I 0.60846(3) 0.24157(5) 0.60254(3)
I6 I 0.64848(2) 0.09748(8) 0.49184(3)
Zn2 Zn 0.62586(3) 0.09916(9) 0.56384(4)
Zn3 Zn 0.32974(4) 0.15187(8) 0.22913(4)
N1 N 0.5786(2) 0.0124(5) 0.5585(3)
N4 N 0.3181(2) 0.0133(5) 0.2203(3)
H16 H 0.2683 0.0207 0.1769
C35 C 0.5622(4) 0.0022(11) 0.5931(4)
H23 H 0.5730 0.0347 0.6190
N13 N 0.6677(2) 0.0310(5) 0.6084(3)
N14 N 0.3619(2) 0.1717(5) 0.1815(3)
N10 N 0.4750(2) 0.2277(5) 0.0255(3)
N11 N 0.4600(2) 0.1465(5) 0.0859(3)
N12 N 0.4244(2) 0.2787(5) 0.0593(3)
C3 C 0.5147(2) 0.0998(6) 0.0555(3)
C5 C 0.4810(2) 0.1617(6) 0.0555(3)
C9 C 0.4311(3) 0.2066(6) 0.0856(3)
C12 C 0.4073(3) 0.1943(6) 0.1188(3)
C13 C 0.4410(3) 0.3671(6) 0.0009(3)
C15 C 0.5321(3) 0.0913(7) 0.0203(3)
C19 C 0.3504(3) 0.2239(7) 0.1464(4)
H9 H 0.3259 0.2530 0.1430
C23 C 0.5636(3) 0.0353(7) 0.0224(3)
H15 H 0.3878 0.4020 0.0124
C28 C 0.4196(3) 0.1404(8) 0.1551(4)
H17 H 0.4438 0.1094 0.1589
C29 C 0.4468(3) 0.2862(6) 0.0297(3)
C33 C 0.3967(3) 0.1314(8) 0.1857(4)
H21 H 0.4059 0.0951 0.2109
C34 C 0.3718(3) 0.2382(7) 0.1149(3)
H22 H 0.3625 0.2774 0.0908
C36 C 0.5307(4) 0.0522(11) 0.0936(4)
H24 H 0.5200 0.0575 0.1192
I2 I 0.87941(2) 0.24187(5) 0.94031(3)
I5 I 0.97597(6) 0.16164(19) 0.86850(17)
Zn1 Zn 0.91674(4) 0.12836(8) 0.90347(4)
N2 N 0.8785(2) 0.0587(5) 0.8544(3)
N8 N 0.9292(2) 0.0190(5) 0.9468(3)
C1 C 0.6842(3) 0.0688(6) 0.6470(3)
H1 H 0.6751 0.1264 0.6547
C2 C 0.8466(3) 0.0952(6) 0.8314(3)
H2 H 0.8393 0.1549 0.8386
C8 C 0.7140(3) 0.0259(6) 0.6756(3)
H4 H 0.7256 0.0544 0.7024
C16 C 0.8234(3) 0.0489(6) 0.7971(3)
H8 H 0.8008 0.0771 0.7806
H19 H 0.8792 0.0279 0.9672
I2_2 I 0.37941(2) 0.25813(5) 0.44031(3)
I5_2 I 0.47597(6) 0.33836(19) 0.36850(17)
Zn1_2 Zn 0.41674(4) 0.37164(8) 0.40347(4)
N2_2 N 0.3785(2) 0.4413(5) 0.3544(3)
N3 N 0.1677(2) 0.4690(5) 0.1084(3)
N5 N 0.3619(2) 0.8283(5) 0.6815(3)
N6 N 0.2792(2) 0.5522(5) 0.2264(3)
N7 N 0.2666(2) 0.6926(5) 0.1877(3)
N8_2 N 0.4292(2) 0.4810(5) 0.4468(3)
N9 N 0.3197(2) 0.6792(5) 0.2474(3)
N10_2 N 0.4750(2) 0.7723(5) 0.5255(3)
N11_2 N 0.4600(2) 0.8535(5) 0.5859(3)
C1_2 C 0.1842(3) 0.4312(6) 0.1470(3)
H1_2 H 0.1751 0.3736 0.1547
N12_2 N 0.4244(2) 0.7213(5) 0.5593(3)
C2_2 C 0.3466(3) 0.4048(6) 0.3314(3)
H2_2 H 0.3393 0.3451 0.3386
C3_2 C 0.5147(2) 0.9002(6) 0.5555(3)
C4 C 0.3334(3) 0.5387(6) 0.2873(3)
C5_2 C 0.4810(2) 0.8383(6) 0.5555(3)
C6 C 0.2266(3) 0.5586(6) 0.1647(3)
C7 C 0.4616(3) 0.5311(7) 0.4509(3)
H3 H 0.4807 0.5131 0.4348
C8_2 C 0.2140(3) 0.4741(6) 0.1756(3)
H4_2 H 0.2256 0.4456 0.2024
C9_2 C 0.4311(3) 0.7934(6) 0.5856(3)
C10 C 0.2592(2) 0.6039(6) 0.1944(3)
C11 C 0.1799(3) 0.5503(7) 0.0983(3)
H5 H 0.1681 0.5766 0.0710
C12_2 C 0.4073(3) 0.8057(6) 0.6188(3)
C13_2 C 0.4410(3) 0.6329(6) 0.5009(3)
C14 C 0.2088(3) 0.5988(6) 0.1251(3)
H6 H 0.2164 0.6576 0.1169
C15_2 C 0.5321(3) 0.9087(7) 0.5203(3)
H7 H 0.5222 0.8757 0.4942
C16_2 C 0.3234(3) 0.4511(6) 0.2971(3)
H8_2 H 0.3008 0.4229 0.2806
C17 C 0.3098(3) 0.5934(6) 0.2516(3)
C18 C 0.3048(3) 0.8260(6) 0.2152(3)
C19_2 C 0.3504(3) 0.7761(7) 0.6464(4)
H9_2 H 0.3259 0.7470 0.6430
C20 C 0.3671(3) 0.5764(6) 0.3118(4)
H10 H 0.3750 0.6366 0.3061
C21 C 0.3433(3) 0.9544(7) 0.2435(4)
H11 H 0.3659 0.9780 0.2621
C22 C 0.3886(3) 0.5243(7) 0.3443(3)
H12 H 0.4120 0.5493 0.3605
C23_2 C 0.5636(3) 0.9647(7) 0.5224(3)
H13 H 0.5753 0.9698 0.4975
C24 C 0.4687(3) 0.6070(7) 0.4771(3)
H14 H 0.4920 0.6411 0.4790
C25 C 0.4073(3) 0.5814(8) 0.4967(4)
H15_2 H 0.3878 0.5980 0.5124
C26 C 0.2862(3) 0.9796(6) 0.1938(3)
C27 C 0.2966(3) 0.7262(6) 0.2160(3)
C28_2 C 0.4196(3) 0.8596(8) 0.6551(4)
H17_2 H 0.4438 0.8906 0.6589
C29_2 C 0.4468(3) 0.7138(6) 0.5297(3)
C30 C 0.3379(3) 0.8619(7) 0.2417(4)
H18 H 0.3566 0.8224 0.2584
C31 C 0.4023(3) 0.5069(7) 0.4698(4)
H19_2 H 0.3792 0.4721 0.4672
C32 C 0.2789(3) 0.8871(6) 0.1905(3)
H20 H 0.2563 0.8649 0.1714
C33_2 C 0.3967(3) 0.8686(8) 0.6857(4)
H21_2 H 0.4059 0.9049 0.7109
C34_2 C 0.3718(3) 0.7618(7) 0.6149(3)
H22_2 H 0.3625 0.7226 0.5908
C36_2 C 0.5307(4) 0.9478(11) 0.5936(4)
H24_2 H 0.5200 0.9425 0.6192
Zn4 Zn 0.12586(3) 0.40084(9) 0.06384(4)
Zn5 Zn 0.32974(4) 0.84813(8) 0.72913(4)
I1_2 I 0.26808(2) 0.75436(4) 0.70883(2)
I3_2 I 0.37450(2) 0.83595(5) 0.80409(2)
I6_2 I 0.64848(2) 0.90252(8) 0.99184(3)
N4_2 N 0.3181(2) 0.9867(5) 0.7203(3)
H16_2 H 0.2683 0.9793 0.6769
I4_2 I 0.10846(3) 0.25843(5) 0.10254(3)
N1_2 N 0.0786(2) 0.4876(5) 0.0585(3)
C3_3 C 0.0147(2) 0.5998(6) 0.0555(3)
C15_3 C 0.0321(3) 0.5913(7) 0.0203(3)
C23_3 C 0.0636(3) 0.5353(7) 0.0224(3)
C35_2 C 0.0622(4) 0.4978(11) 0.0931(4)
H23_2 H 0.0730 0.4653 0.1190
C36_3 C 0.0307(4) 0.5522(11) 0.0936(4)
H24_3 H 0.0200 0.5575 0.1192
I1_3 I 0.73192(2) 0.24564(4) 0.29117(2)
I3_3 I 0.62550(2) 0.16405(5) 0.19591(2)
I6_3 I 0.35152(2) 0.09748(8) 0.00816(3)
Zn3_2 Zn 0.67026(4) 0.15187(8) 0.27087(4)
N4_3 N 0.6819(2) 0.0133(5) 0.2797(3)
H16_3 H 0.7317 0.0207 0.3231
N14_2 N 0.6381(2) 0.1717(5) 0.3185(3)
I4_3 I 0.89154(3) 0.74157(5) 0.89746(3)
Zn2_2 Zn 0.87414(3) 0.59916(9) 0.93616(4)
N1_3 N 0.9214(2) 0.5124(5) 0.9415(3)
C3_4 C 0.9853(2) 0.4002(6) 0.9445(3)
C15_4 C 0.9679(3) 0.4087(7) 0.9797(3)
C23_4 C 0.9364(3) 0.4647(7) 0.9776(3)
C35_3 C 0.9378(4) 0.5022(11) 0.9069(4)
H23_3 H 0.9270 0.5347 0.8810
C36_4 C 0.9693(4) 0.4478(11) 0.9064(4)
H24_4 H 0.9800 0.4425 0.8808
N13_2 N 0.8323(2) 0.5310(5) 0.8916(3)
I2_3 I 0.62059(2) 0.74187(5) 0.55969(3)
I5_3 I 0.52403(6) 0.66164(19) 0.63150(17)
Zn1_3 Zn 0.58326(4) 0.62836(8) 0.59653(4)
N2_3 N 0.6215(2) 0.5587(5) 0.6456(3)
N6_2 N 0.7208(2) 0.4478(5) 0.7736(3)
N7_2 N 0.7334(2) 0.3074(5) 0.8123(3)
N8_3 N 0.5708(2) 0.5190(5) 0.5532(3)
N9_2 N 0.6803(2) 0.3208(5) 0.7526(3)
N10_3 N 0.5250(2) 0.2277(5) 0.4745(3)
N11_3 N 0.5400(2) 0.1465(5) 0.4141(3)
C1_3 C 0.8158(3) 0.5688(6) 0.8530(3)
H1_3 H 0.8249 0.6264 0.8453
N12_3 N 0.5756(2) 0.2787(5) 0.4407(3)
C2_3 C 0.6534(3) 0.5952(6) 0.6686(3)
H2_3 H 0.6607 0.6549 0.6614
C3_5 C 0.4853(2) 0.0998(6) 0.4445(3)
C4_2 C 0.6666(3) 0.4613(6) 0.7127(3)
C5_3 C 0.5190(2) 0.1617(6) 0.4445(3)
C6_2 C 0.7734(3) 0.4414(6) 0.8353(3)
C7_2 C 0.5384(3) 0.4689(7) 0.5491(3)
H3_2 H 0.5193 0.4869 0.5652
C8_3 C 0.7860(3) 0.5259(6) 0.8244(3)
H4_3 H 0.7744 0.5544 0.7976
C9_3 C 0.5689(3) 0.2066(6) 0.4144(3)
C10_2 C 0.7408(2) 0.3961(6) 0.8056(3)
C11_2 C 0.8201(3) 0.4497(7) 0.9017(3)
H5_2 H 0.8319 0.4234 0.9290
C12_3 C 0.5927(3) 0.1943(6) 0.3812(3)
C13_3 C 0.5590(3) 0.3671(6) 0.4991(3)
C14_2 C 0.7912(3) 0.4012(6) 0.8749(3)
H6_2 H 0.7836 0.3424 0.8831
C15_5 C 0.4679(3) 0.0913(7) 0.4797(3)
H7_2 H 0.4778 0.1243 0.5058
C16_3 C 0.6766(3) 0.5489(6) 0.7029(3)
H8_3 H 0.6992 0.5771 0.7194
C17_2 C 0.6902(3) 0.4066(6) 0.7484(3)
C18_2 C 0.6952(3) 0.1740(6) 0.7848(3)
C19_3 C 0.6496(3) 0.2239(7) 0.3536(4)
H9_3 H 0.6741 0.2530 0.3570
C20_2 C 0.6329(3) 0.4236(6) 0.6882(4)
H10_2 H 0.6250 0.3634 0.6939
C21_2 C 0.6567(3) 0.0456(7) 0.7565(4)
H11_2 H 0.6341 0.0220 0.7379
C22_2 C 0.6114(3) 0.4757(7) 0.6557(3)
H12_2 H 0.5880 0.4507 0.6395
C23_5 C 0.4364(3) 0.0353(7) 0.4776(3)
H13_2 H 0.4247 0.0302 0.5025
C24_2 C 0.5313(3) 0.3930(7) 0.5229(3)
H14_2 H 0.5080 0.3589 0.5210
C25_2 C 0.5927(3) 0.4186(8) 0.5033(4)
H15_3 H 0.6122 0.4020 0.4876
C26_2 C 0.7138(3) 0.0204(6) 0.8062(3)
C27_2 C 0.7034(3) 0.2738(6) 0.7840(3)
C28_3 C 0.5804(3) 0.1404(8) 0.3449(4)
H17_3 H 0.5562 0.1094 0.3411
C29_3 C 0.5532(3) 0.2862(6) 0.4703(3)
C30_2 C 0.6621(3) 0.1381(7) 0.7583(4)
H18_2 H 0.6434 0.1776 0.7416
C31_2 C 0.5977(3) 0.4931(7) 0.5302(4)
H19_3 H 0.6208 0.5279 0.5328
C32_2 C 0.7211(3) 0.1129(6) 0.8095(3)
H20_2 H 0.7437 0.1351 0.8286
C33_3 C 0.6033(3) 0.1314(8) 0.3143(4)
H21_3 H 0.5941 0.0951 0.2891
C34_3 C 0.6282(3) 0.2382(7) 0.3851(3)
H22_3 H 0.6375 0.2774 0.4092
C36_5 C 0.4693(4) 0.0522(11) 0.4064(4)
H24_5 H 0.4800 0.0575 0.3808
I4_4 I 0.39154(3) 0.24157(5) 0.89746(3)
Zn2_3 Zn 0.37414(3) 0.09916(9) 0.93616(4)
N1_4 N 0.4214(2) 0.0124(5) 0.9415(3)
C35_4 C 0.4378(4) 0.0022(11) 0.9069(4)
H23_4 H 0.4270 0.0347 0.8810
N13_3 N 0.3323(2) 0.0310(5) 0.8916(3)
I2_4 I 0.12059(2) 0.24187(5) 0.55969(3)
I5_4 I 0.02403(6) 0.16164(19) 0.63150(17)
Zn1_4 Zn 0.08326(4) 0.12836(8) 0.59653(4)
N2_4 N 0.1215(2) 0.0587(5) 0.6456(3)
N8_4 N 0.0708(2) 0.0190(5) 0.5532(3)
C1_4 C 0.3158(3) 0.0688(6) 0.8530(3)
H1_4 H 0.3249 0.1264 0.8453
C2_4 C 0.1534(3) 0.0952(6) 0.6686(3)
H2_4 H 0.1607 0.1549 0.6614
C8_4 C 0.2860(3) 0.0259(6) 0.8244(3)
H4_4 H 0.2744 0.0544 0.7976
C16_4 C 0.1766(3) 0.0489(6) 0.7029(3)
H8_4 H 0.1992 0.0771 0.7194
H19_4 H 0.1208 0.0279 0.5328
I2_5 I 0.62059(2) 0.25813(5) 0.05969(3)
I5_5 I 0.52403(6) 0.33836(19) 0.13150(17)
Zn1_5 Zn 0.58326(4) 0.37164(8) 0.09653(4)
N2_5 N 0.6215(2) 0.4413(5) 0.1456(3)
N3_2 N 0.8323(2) 0.4690(5) 0.3916(3)
N6_3 N 0.7208(2) 0.5522(5) 0.2736(3)
N7_3 N 0.7334(2) 0.6926(5) 0.3123(3)
N8_5 N 0.5708(2) 0.4810(5) 0.0532(3)
N9_3 N 0.6803(2) 0.6792(5) 0.2526(3)
C1_5 C 0.8158(3) 0.4312(6) 0.3530(3)
H1_5 H 0.8249 0.3736 0.3453
C2_5 C 0.6534(3) 0.4048(6) 0.1686(3)
H2_5 H 0.6607 0.3451 0.1614
C4_3 C 0.6666(3) 0.5387(6) 0.2127(3)
C6_3 C 0.7734(3) 0.5586(6) 0.3353(3)
C7_3 C 0.5384(3) 0.5311(7) 0.0491(3)
H3_3 H 0.5193 0.5131 0.0652
C8_5 C 0.7860(3) 0.4741(6) 0.3244(3)
H4_5 H 0.7744 0.4456 0.2976
C10_3 C 0.7408(2) 0.6039(6) 0.3056(3)
C11_3 C 0.8201(3) 0.5503(7) 0.4017(3)
H5_3 H 0.8319 0.5766 0.4290
C14_3 C 0.7912(3) 0.5988(6) 0.3749(3)
H6_3 H 0.7836 0.6576 0.3831
H7_3 H 0.4778 0.8757 0.0058
C16_5 C 0.6766(3) 0.4511(6) 0.2029(3)
H8_5 H 0.6992 0.4229 0.2194
C17_3 C 0.6902(3) 0.5934(6) 0.2484(3)
C18_3 C 0.6952(3) 0.8260(6) 0.2848(3)
C20_3 C 0.6329(3) 0.5764(6) 0.1882(4)
H10_3 H 0.6250 0.6366 0.1939
C21_3 C 0.6567(3) 0.9544(7) 0.2565(4)
H11_3 H 0.6341 0.9780 0.2379
C22_3 C 0.6114(3) 0.5243(7) 0.1557(3)
H12_3 H 0.5880 0.5493 0.1395
H13_3 H 0.4247 0.9698 0.0025
C24_3 C 0.5313(3) 0.6070(7) 0.0229(3)
H14_3 H 0.5080 0.6411 0.0210
C25_3 C 0.5927(3) 0.5814(8) 0.0033(4)
C26_3 C 0.7138(3) 0.9796(6) 0.3062(3)
C27_3 C 0.7034(3) 0.7262(6) 0.2840(3)
C30_3 C 0.6621(3) 0.8619(7) 0.2583(4)
H18_3 H 0.6434 0.8224 0.2416
C31_3 C 0.5977(3) 0.5069(7) 0.0302(4)
H19_5 H 0.6208 0.4721 0.0328
C32_3 C 0.7211(3) 0.8871(6) 0.3095(3)
H20_3 H 0.7437 0.8649 0.3286
Zn4_2 Zn 0.87414(3) 0.40084(9) 0.43616(4)
I4_5 I 0.89154(3) 0.25843(5) 0.39746(3)
I6_4 I 0.85152(2) 0.40252(8) 0.50816(3)
N1_5 N 0.9214(2) 0.4876(5) 0.4415(3)
C3_6 C 0.9853(2) 0.5998(6) 0.4445(3)
C15_6 C 0.9679(3) 0.5913(7) 0.4797(3)
H7_4 H 0.9778 0.6243 0.5058
C23_6 C 0.9364(3) 0.5353(7) 0.4776(3)
H13_4 H 0.9247 0.5302 0.5025
C35_5 C 0.9378(4) 0.4978(11) 0.4069(4)
H23_5 H 0.9270 0.4653 0.3810
C36_6 C 0.9693(4) 0.5522(11) 0.4064(4)
H24_6 H 0.9800 0.5575 0.3808
N5_2 N 0.6381(2) 0.8283(5) 0.8185(3)
N10_4 N 0.5250(2) 0.7723(5) 0.9745(3)
N11_4 N 0.5400(2) 0.8535(5) 0.9141(3)
N12_4 N 0.5756(2) 0.7213(5) 0.9407(3)
C3_7 C 0.4853(2) 0.9002(6) 0.9445(3)
C5_4 C 0.5190(2) 0.8383(6) 0.9445(3)
C9_4 C 0.5689(3) 0.7934(6) 0.9144(3)
C12_4 C 0.5927(3) 0.8057(6) 0.8812(3)
C13_4 C 0.5590(3) 0.6329(6) 0.9991(3)
C15_7 C 0.4679(3) 0.9087(7) 0.9797(3)
C19_4 C 0.6496(3) 0.7761(7) 0.8536(4)
H9_4 H 0.6741 0.7470 0.8570
C23_7 C 0.4364(3) 0.9647(7) 0.9776(3)
H15_4 H 0.6122 0.5980 0.9876
C28_4 C 0.5804(3) 0.8596(8) 0.8449(4)
H17_4 H 0.5562 0.8906 0.8411
C29_4 C 0.5532(3) 0.7138(6) 0.9703(3)
C33_4 C 0.6033(3) 0.8686(8) 0.8143(4)
H21_4 H 0.5941 0.9049 0.7891
C34_4 C 0.6282(3) 0.7618(7) 0.8851(3)
H22_4 H 0.6375 0.7226 0.9092
C36_7 C 0.4693(4) 0.9478(11) 0.9064(4)
H24_7 H 0.4800 0.9425 0.8808
Zn5_2 Zn 0.67026(4) 0.84813(8) 0.77087(4)
I2_6 I 0.12059(2) 0.75813(5) 0.05969(3)
I5_6 I 0.02403(6) 0.83836(19) 0.13150(17)
Zn1_6 Zn 0.08326(4) 0.87164(8) 0.09653(4)
N2_6 N 0.1215(2) 0.9413(5) 0.1456(3)
N3_3 N 0.3323(2) 0.9690(5) 0.3916(3)
N8_6 N 0.0708(2) 0.9810(5) 0.0532(3)
C1_6 C 0.3158(3) 0.9312(6) 0.3530(3)
H1_6 H 0.3249 0.8736 0.3453
C2_6 C 0.1534(3) 0.9048(6) 0.1686(3)
H2_6 H 0.1607 0.8451 0.1614
C8_6 C 0.2860(3) 0.9741(6) 0.3244(3)
H4_6 H 0.2744 0.9456 0.2976
C16_6 C 0.1766(3) 0.9511(6) 0.2029(3)
H8_6 H 0.1992 0.9229 0.2194
H19_6 H 0.1208 0.9721 0.0328
Zn4_3 Zn 0.37414(3) 0.90084(9) 0.43616(4)
I1_4 I 0.73192(2) 0.75436(4) 0.79117(2)
I3_4 I 0.62550(2) 0.83595(5) 0.69591(2)
I4_6 I 0.39154(3) 0.75843(5) 0.39746(3)
I6_5 I 0.35152(2) 0.90252(8) 0.50816(3)
N1_6 N 0.4214(2) 0.9876(5) 0.4415(3)
N4_4 N 0.6819(2) 0.9867(5) 0.7797(3)
H16_4 H 0.7317 0.9793 0.8231
C35_6 C 0.4378(4) 0.9978(11) 0.4069(4)
H23_6 H 0.4270 0.9653 0.3810
I4_7 I 0.10846(3) 0.74157(5) 0.60254(3)
I6_6 I 0.14848(2) 0.59748(8) 0.49184(3)
Zn2_4 Zn 0.12586(3) 0.59916(9) 0.56384(4)
N1_7 N 0.0786(2) 0.5124(5) 0.5585(3)
C3_8 C 0.0147(2) 0.4002(6) 0.5555(3)
C15_8 C 0.0321(3) 0.4087(7) 0.5203(3)
H7_5 H 0.0222 0.3757 0.4942
C23_8 C 0.0636(3) 0.4647(7) 0.5224(3)
H13_5 H 0.0753 0.4698 0.4975
C35_7 C 0.0622(4) 0.5022(11) 0.5931(4)
H23_7 H 0.0730 0.5347 0.6190
C36_8 C 0.0307(4) 0.4478(11) 0.5936(4)
H24_8 H 0.0200 0.4425 0.6192
N13_4 N 0.1677(2) 0.5310(5) 0.6084(3)
I2_7 I 0.37941(2) 0.74187(5) 0.94031(3)
I5_7 I 0.47597(6) 0.66164(19) 0.86850(17)
Zn1_7 Zn 0.41674(4) 0.62836(8) 0.90347(4)
N2_7 N 0.3785(2) 0.5587(5) 0.8544(3)
N6_4 N 0.2792(2) 0.4478(5) 0.7264(3)
N7_4 N 0.2666(2) 0.3074(5) 0.6877(3)
N8_7 N 0.4292(2) 0.5190(5) 0.9468(3)
N9_4 N 0.3197(2) 0.3208(5) 0.7474(3)
C1_7 C 0.1842(3) 0.5688(6) 0.6470(3)
H1_7 H 0.1751 0.6264 0.6547
C2_7 C 0.3466(3) 0.5952(6) 0.8314(3)
H2_7 H 0.3393 0.6549 0.8386
C4_4 C 0.3334(3) 0.4613(6) 0.7873(3)
C6_4 C 0.2266(3) 0.4414(6) 0.6647(3)
C7_4 C 0.4616(3) 0.4689(7) 0.9509(3)
H3_4 H 0.4807 0.4869 0.9348
C8_7 C 0.2140(3) 0.5259(6) 0.6756(3)
H4_7 H 0.2256 0.5544 0.7024
C10_4 C 0.2592(2) 0.3961(6) 0.6944(3)
C11_4 C 0.1799(3) 0.4497(7) 0.5983(3)
H5_4 H 0.1681 0.4234 0.5710
C14_4 C 0.2088(3) 0.4012(6) 0.6251(3)
H6_4 H 0.2164 0.3424 0.6169
H7_6 H 0.5222 0.1243 0.9942
C16_7 C 0.3234(3) 0.5489(6) 0.7971(3)
H8_7 H 0.3008 0.5771 0.7806
C17_4 C 0.3098(3) 0.4066(6) 0.7516(3)
C18_4 C 0.3048(3) 0.1740(6) 0.7152(3)
C20_4 C 0.3671(3) 0.4236(6) 0.8118(4)
H10_4 H 0.3750 0.3634 0.8061
C21_4 C 0.3433(3) 0.0456(7) 0.7435(4)
H11_4 H 0.3659 0.0220 0.7621
C22_4 C 0.3886(3) 0.4757(7) 0.8443(3)
H12_4 H 0.4120 0.4507 0.8605
H13_6 H 0.5753 0.0302 0.9975
C24_4 C 0.4687(3) 0.3930(7) 0.9771(3)
H14_4 H 0.4920 0.3589 0.9790
C25_4 C 0.4073(3) 0.4186(8) 0.9967(4)
C26_4 C 0.2862(3) 0.0204(6) 0.6938(3)
C27_4 C 0.2966(3) 0.2738(6) 0.7160(3)
C30_4 C 0.3379(3) 0.1381(7) 0.7417(4)
H18_4 H 0.3566 0.1776 0.7584
C31_4 C 0.4023(3) 0.4931(7) 0.9698(4)
H19_7 H 0.3792 0.5279 0.9672
C32_4 C 0.2789(3) 0.1129(6) 0.6905(3)
H20_4 H 0.2563 0.1351 0.6714
I1_5 I 0.76808(2) 0.74564(4) 0.20883(2)
I3_5 I 0.87450(2) 0.66405(5) 0.30409(2)
Zn3_3 Zn 0.82974(4) 0.65187(8) 0.22913(4)
N4_5 N 0.8181(2) 0.5133(5) 0.2203(3)
N5_3 N 0.8619(2) 0.3283(5) 0.6815(3)
N6_5 N 0.7792(2) 0.0522(5) 0.2264(3)
N7_5 N 0.7666(2) 0.1926(5) 0.1877(3)
N9_5 N 0.8197(2) 0.1792(5) 0.2474(3)
N10_5 N 0.9750(2) 0.2723(5) 0.5255(3)
N11_5 N 0.9600(2) 0.3535(5) 0.5859(3)
N12_5 N 0.9244(2) 0.2213(5) 0.5593(3)
C4_5 C 0.8334(3) 0.0387(6) 0.2873(3)
C5_5 C 0.9810(2) 0.3383(6) 0.5555(3)
C6_5 C 0.7266(3) 0.0586(6) 0.1647(3)
C7_5 C 0.9616(3) 0.0311(7) 0.4509(3)
H3_5 H 0.9807 0.0131 0.4348
C9_5 C 0.9311(3) 0.2934(6) 0.5856(3)
C10_5 C 0.7592(2) 0.1039(6) 0.1944(3)
C11_5 C 0.6799(3) 0.0503(7) 0.0983(3)
H5_5 H 0.6681 0.0766 0.0710
C12_5 C 0.9073(3) 0.3057(6) 0.6188(3)
C13_5 C 0.9410(3) 0.1329(6) 0.5009(3)
C14_5 C 0.7088(3) 0.0988(6) 0.1251(3)
H6_5 H 0.7164 0.1576 0.1169
C17_5 C 0.8098(3) 0.0934(6) 0.2516(3)
C18_5 C 0.8048(3) 0.3260(6) 0.2152(3)
C19_5 C 0.8504(3) 0.2761(7) 0.6464(4)
H9_5 H 0.8259 0.2470 0.6430
C20_5 C 0.8671(3) 0.0764(6) 0.3118(4)
H10_5 H 0.8750 0.1366 0.3061
C21_5 C 0.8433(3) 0.4544(7) 0.2435(4)
H11_5 H 0.8659 0.4780 0.2621
C22_5 C 0.8886(3) 0.0243(7) 0.3443(3)
H12_5 H 0.9120 0.0493 0.3605
C24_5 C 0.9687(3) 0.1070(7) 0.4771(3)
H14_5 H 0.9920 0.1411 0.4790
C25_5 C 0.9073(3) 0.0814(8) 0.4967(4)
H15_5 H 0.8878 0.0980 0.5124
C26_5 C 0.7862(3) 0.4796(6) 0.1938(3)
H16_5 H 0.7683 0.5207 0.1769
C27_5 C 0.7966(3) 0.2262(6) 0.2160(3)
C28_5 C 0.9196(3) 0.3596(8) 0.6551(4)
H17_5 H 0.9438 0.3906 0.6589
C29_5 C 0.9468(3) 0.2138(6) 0.5297(3)
C30_5 C 0.8379(3) 0.3619(7) 0.2417(4)
H18_5 H 0.8566 0.3224 0.2584
C31_5 C 0.9023(3) 0.0069(7) 0.4698(4)
C32_5 C 0.7789(3) 0.3871(6) 0.1905(3)
H20_5 H 0.7563 0.3649 0.1714
C33_5 C 0.8967(3) 0.3686(8) 0.6857(4)
H21_5 H 0.9059 0.4049 0.7109
C34_5 C 0.8718(3) 0.2618(7) 0.6149(3)
H22_5 H 0.8625 0.2226 0.5908
Zn5_3 Zn 0.82974(4) 0.34813(8) 0.72913(4)
N14_3 N 0.8619(2) 0.6717(5) 0.1815(3)
N10_6 N 0.9750(2) 0.7277(5) 0.0255(3)
N11_6 N 0.9600(2) 0.6465(5) 0.0859(3)
N12_6 N 0.9244(2) 0.7787(5) 0.0593(3)
C5_6 C 0.9810(2) 0.6617(6) 0.0555(3)
C9_6 C 0.9311(3) 0.7066(6) 0.0856(3)
C12_6 C 0.9073(3) 0.6943(6) 0.1188(3)
C13_6 C 0.9410(3) 0.8671(6) 0.0009(3)
C19_6 C 0.8504(3) 0.7239(7) 0.1464(4)
H9_6 H 0.8259 0.7530 0.1430
H15_6 H 0.8878 0.9020 0.0124
C28_6 C 0.9196(3) 0.6404(8) 0.1551(4)
H17_6 H 0.9438 0.6094 0.1589
C29_6 C 0.9468(3) 0.7862(6) 0.0297(3)
C33_6 C 0.8967(3) 0.6314(8) 0.1857(4)
H21_6 H 0.9059 0.5951 0.2109
C34_6 C 0.8718(3) 0.7382(7) 0.1149(3)
H22_6 H 0.8625 0.7774 0.0908
I1_6 I 0.76808(2) 0.25436(4) 0.70883(2)
I3_6 I 0.87450(2) 0.33595(5) 0.80409(2)
N4_6 N 0.8181(2) 0.4867(5) 0.7203(3)
N6_6 N 0.7792(2) 0.9478(5) 0.7264(3)
N7_6 N 0.7666(2) 0.8074(5) 0.6877(3)
N9_6 N 0.8197(2) 0.8208(5) 0.7474(3)
C4_6 C 0.8334(3) 0.9613(6) 0.7873(3)
C6_6 C 0.7266(3) 0.9414(6) 0.6647(3)
C7_6 C 0.9616(3) 0.9689(7) 0.9509(3)
H3_6 H 0.9807 0.9869 0.9348
C10_6 C 0.7592(2) 0.8961(6) 0.6944(3)
C11_6 C 0.6799(3) 0.9497(7) 0.5983(3)
H5_6 H 0.6681 0.9234 0.5710
C14_6 C 0.7088(3) 0.9012(6) 0.6251(3)
H6_6 H 0.7164 0.8424 0.6169
C17_6 C 0.8098(3) 0.9066(6) 0.7516(3)
C18_6 C 0.8048(3) 0.6740(6) 0.7152(3)
C20_6 C 0.8671(3) 0.9236(6) 0.8118(4)
H10_6 H 0.8750 0.8634 0.8061
C21_6 C 0.8433(3) 0.5456(7) 0.7435(4)
H11_6 H 0.8659 0.5220 0.7621
C22_6 C 0.8886(3) 0.9757(7) 0.8443(3)
H12_6 H 0.9120 0.9507 0.8605
C24_6 C 0.9687(3) 0.8930(7) 0.9771(3)
H14_6 H 0.9920 0.8589 0.9790
C25_6 C 0.9073(3) 0.9186(8) 0.9967(4)
C26_6 C 0.7862(3) 0.5204(6) 0.6938(3)
H16_6 H 0.7683 0.4793 0.6769
C27_6 C 0.7966(3) 0.7738(6) 0.7160(3)
C30_6 C 0.8379(3) 0.6381(7) 0.7417(4)
H18_6 H 0.8566 0.6776 0.7584
C31_6 C 0.9023(3) 0.9931(7) 0.9698(4)
C32_6 C 0.7789(3) 0.6129(6) 0.6905(3)
H20_6 H 0.7563 0.6351 0.6714
I2_8 I 0.87941(2) 0.75813(5) 0.44031(3)
I5_8 I 0.97597(6) 0.83836(19) 0.36850(17)
Zn1_8 Zn 0.91674(4) 0.87164(8) 0.40347(4)
N2_8 N 0.8785(2) 0.9413(5) 0.3544(3)
N3_4 N 0.6677(2) 0.9690(5) 0.1084(3)
N8_8 N 0.9292(2) 0.9810(5) 0.4468(3)
C1_8 C 0.6842(3) 0.9312(6) 0.1470(3)
H1_8 H 0.6751 0.8736 0.1547
C2_8 C 0.8466(3) 0.9048(6) 0.3314(3)
H2_8 H 0.8393 0.8451 0.3386
C8_8 C 0.7140(3) 0.9741(6) 0.1756(3)
H4_8 H 0.7256 0.9456 0.2024
C16_8 C 0.8234(3) 0.9511(6) 0.2971(3)
H8_8 H 0.8008 0.9229 0.2806
H19_8 H 0.8792 0.9721 0.4672
Zn4_4 Zn 0.62586(3) 0.90084(9) 0.06384(4)
I4_8 I 0.60846(3) 0.75843(5) 0.10254(3)
N1_8 N 0.5786(2) 0.9876(5) 0.0585(3)
C35_8 C 0.5622(4) 0.9978(11) 0.0931(4)
H23_8 H 0.5730 0.9653 0.1190
I1_7 I 0.23192(2) 0.74564(4) 0.29117(2)
I3_7 I 0.12550(2) 0.66405(5) 0.19591(2)
Zn3_4 Zn 0.17026(4) 0.65187(8) 0.27087(4)
N4_7 N 0.1819(2) 0.5133(5) 0.2797(3)
N6_7 N 0.2208(2) 0.0522(5) 0.2736(3)
N7_7 N 0.2334(2) 0.1926(5) 0.3123(3)
N9_7 N 0.1803(2) 0.1792(5) 0.2526(3)
C4_7 C 0.1666(3) 0.0387(6) 0.2127(3)
C6_7 C 0.2734(3) 0.0586(6) 0.3353(3)
C7_7 C 0.0384(3) 0.0311(7) 0.0491(3)
H3_7 H 0.0193 0.0131 0.0652
C10_7 C 0.2408(2) 0.1039(6) 0.3056(3)
C11_7 C 0.3201(3) 0.0503(7) 0.4017(3)
H5_7 H 0.3319 0.0766 0.4290
C14_7 C 0.2912(3) 0.0988(6) 0.3749(3)
H6_7 H 0.2836 0.1576 0.3831
C17_7 C 0.1902(3) 0.0934(6) 0.2484(3)
C18_7 C 0.1952(3) 0.3260(6) 0.2848(3)
C20_7 C 0.1329(3) 0.0764(6) 0.1882(4)
H10_7 H 0.1250 0.1366 0.1939
C21_7 C 0.1567(3) 0.4544(7) 0.2565(4)
H11_7 H 0.1341 0.4780 0.2379
C22_7 C 0.1114(3) 0.0243(7) 0.1557(3)
H12_7 H 0.0880 0.0493 0.1395
C24_7 C 0.0313(3) 0.1070(7) 0.0229(3)
H14_7 H 0.0080 0.1411 0.0210
C25_7 C 0.0927(3) 0.0814(8) 0.0033(4)
C26_7 C 0.2138(3) 0.4796(6) 0.3062(3)
H16_7 H 0.2317 0.5207 0.3231
C27_7 C 0.2034(3) 0.2262(6) 0.2840(3)
C30_7 C 0.1621(3) 0.3619(7) 0.2583(4)
H18_7 H 0.1434 0.3224 0.2416
C31_7 C 0.0977(3) 0.0069(7) 0.0302(4)
C32_7 C 0.2211(3) 0.3871(6) 0.3095(3)
H20_7 H 0.2437 0.3649 0.3286
N14_4 N 0.1381(2) 0.6717(5) 0.3185(3)
N5_4 N 0.1381(2) 0.3283(5) 0.8185(3)
N10_7 N 0.0250(2) 0.2723(5) 0.9745(3)
N11_7 N 0.0400(2) 0.3535(5) 0.9141(3)
N12_7 N 0.0756(2) 0.2213(5) 0.9407(3)
C5_7 C 0.0190(2) 0.3383(6) 0.9445(3)
C9_7 C 0.0689(3) 0.2934(6) 0.9144(3)
C12_7 C 0.0927(3) 0.3057(6) 0.8812(3)
C13_7 C 0.0590(3) 0.1329(6) 0.9991(3)
C19_7 C 0.1496(3) 0.2761(7) 0.8536(4)
H9_7 H 0.1741 0.2470 0.8570
H15_7 H 0.1122 0.0980 0.9876
C28_7 C 0.0804(3) 0.3596(8) 0.8449(4)
H17_7 H 0.0562 0.3906 0.8411
C29_7 C 0.0532(3) 0.2138(6) 0.9703(3)
C33_7 C 0.1033(3) 0.3686(8) 0.8143(4)
H21_7 H 0.0941 0.4049 0.7891
C34_7 C 0.1282(3) 0.2618(7) 0.8851(3)
H22_7 H 0.1375 0.2226 0.9092
Zn5_4 Zn 0.17026(4) 0.34813(8) 0.77087(4)
I1_8 I 0.23192(2) 0.25436(4) 0.79117(2)
I3_8 I 0.12550(2) 0.33595(5) 0.69591(2)
N4_8 N 0.1819(2) 0.4867(5) 0.7797(3)
N6_8 N 0.2208(2) 0.9478(5) 0.7736(3)
N7_8 N 0.2334(2) 0.8074(5) 0.8123(3)
N9_8 N 0.1803(2) 0.8208(5) 0.7526(3)
N10_8 N 0.0250(2) 0.7277(5) 0.4745(3)
N11_8 N 0.0400(2) 0.6465(5) 0.4141(3)
N12_8 N 0.0756(2) 0.7787(5) 0.4407(3)
C4_8 C 0.1666(3) 0.9613(6) 0.7127(3)
C5_8 C 0.0190(2) 0.6617(6) 0.4445(3)
C6_8 C 0.2734(3) 0.9414(6) 0.8353(3)
C7_8 C 0.0384(3) 0.9689(7) 0.5491(3)
H3_8 H 0.0193 0.9869 0.5652
C9_8 C 0.0689(3) 0.7066(6) 0.4144(3)
C10_8 C 0.2408(2) 0.8961(6) 0.8056(3)
C11_8 C 0.3201(3) 0.9497(7) 0.9017(3)
H5_8 H 0.3319 0.9234 0.9290
C12_8 C 0.0927(3) 0.6943(6) 0.3812(3)
C13_8 C 0.0590(3) 0.8671(6) 0.4991(3)
C14_8 C 0.2912(3) 0.9012(6) 0.8749(3)
H6_8 H 0.2836 0.8424 0.8831
C17_8 C 0.1902(3) 0.9066(6) 0.7484(3)
C18_8 C 0.1952(3) 0.6740(6) 0.7848(3)
C19_8 C 0.1496(3) 0.7239(7) 0.3536(4)
H9_8 H 0.1741 0.7530 0.3570
C20_8 C 0.1329(3) 0.9236(6) 0.6882(4)
H10_8 H 0.1250 0.8634 0.6939
C21_8 C 0.1567(3) 0.5456(7) 0.7565(4)
H11_8 H 0.1341 0.5220 0.7379
C22_8 C 0.1114(3) 0.9757(7) 0.6557(3)
H12_8 H 0.0880 0.9507 0.6395
C24_8 C 0.0313(3) 0.8930(7) 0.5229(3)
H14_8 H 0.0080 0.8589 0.5210
C25_8 C 0.0927(3) 0.9186(8) 0.5033(4)
H15_8 H 0.1122 0.9020 0.4876
C26_8 C 0.2138(3) 0.5204(6) 0.8062(3)
H16_8 H 0.2317 0.4793 0.8231
C27_8 C 0.2034(3) 0.7738(6) 0.7840(3)
C28_8 C 0.0804(3) 0.6404(8) 0.3449(4)
H17_8 H 0.0562 0.6094 0.3411
C29_8 C 0.0532(3) 0.7862(6) 0.4703(3)
C30_8 C 0.1621(3) 0.6381(7) 0.7583(4)
H18_8 H 0.1434 0.6776 0.7416
C31_8 C 0.0977(3) 0.9931(7) 0.5302(4)
C32_8 C 0.2211(3) 0.6129(6) 0.8095(3)
H20_8 H 0.2437 0.6351 0.8286
C33_8 C 0.1033(3) 0.6314(8) 0.3143(4)
H21_8 H 0.0941 0.5951 0.2891
C34_8 C 0.1282(3) 0.7382(7) 0.3851(3)
H22_8 H 0.1375 0.7774 0.4092
I6_7 I 0.85152(2) 0.59748(8) 0.00816(3)
H7_7 H 0.9778 0.3757 0.0058
H13_7 H 0.9247 0.4698 0.0025
I6_8 I 0.14848(2) 0.40252(8) 0.99184(3)
H7_8 H 0.0222 0.6243 0.9942
H13_8 H 0.0753 0.5302 0.9975
loop_
_geom_bond_atom_site_label_1
_geom_bond_atom_site_label_2
_geom_bond_site_symmetry_1
_geom_bond_site_symmetry_2
I1 Zn3 1_555 1_555
I3 Zn3 1_555 1_555
I4 Zn2 1_555 1_555
I6 Zn2 1_555 1_555
Zn2 N1 1_555 1_555
Zn3 N4 1_555 1_555
C35 N1 1_555 1_555
H23 C35 1_555 1_555
N13 Zn2 1_555 1_555
N14 Zn3 1_555 1_555
N14 C19 1_555 1_555
N10 C5 1_555 1_555
N11 C5 1_555 1_555
N12 C9 1_555 1_555
C3 C5 1_555 1_555
C9 N11 1_555 1_555
C12 C9 1_555 1_555
C15 C3 1_555 1_555
C19 H9 1_555 1_555
C23 C15 1_555 1_555
C28 C12 1_555 1_555
H17 C28 1_555 1_555
C29 N10 1_555 1_555
C33 N14 1_555 1_555
H21 C33 1_555 1_555
C34 C12 1_555 1_555
H22 C34 1_555 1_555
C36 C3 1_555 1_555
H24 C36 1_555 1_555
N12 C29 1_555 1_555
C13 C29 1_555 1_555
C19 C34 1_555 1_555
C28 C33 1_555 1_555
I2 Zn1 1_555 1_555
I5 Zn1 1_555 1_555
Zn1 N2 1_555 1_555
N2 C2 1_555 1_555
N13 C1 1_555 1_555
N8 Zn1 1_555 1_555
C1 H1 1_555 1_555
C2 H2 1_555 1_555
C8 C1 1_555 1_555
H4 C8 1_555 1_555
C16 C2 1_555 1_555
H8 C16 1_555 1_555
I2_2 Zn1_2 1_555 1_555
I5_2 Zn1_2 1_555 1_555
Zn1_2 N2_2 1_555 1_555
N2_2 C2_2 1_555 1_555
N3 C1_2 1_555 1_555
N5 C19_2 1_555 1_555
N6 C10 1_555 1_555
N7 C10 1_555 1_555
N8_2 Zn1_2 1_555 1_555
N9 C17 1_555 1_555
N10_2 C5_2 1_555 1_555
N11_2 C5_2 1_555 1_555
C1_2 H1_2 1_555 1_555
N12_2 C9_2 1_555 1_555
C2_2 H2_2 1_555 1_555
C3_2 C5_2 1_555 1_555
C4 C16_2 1_555 1_555
C6 C8_2 1_555 1_555
C7 N8_2 1_555 1_555
H3 C7 1_555 1_555
C8_2 C1_2 1_555 1_555
H4_2 C8_2 1_555 1_555
C9_2 N11_2 1_555 1_555
C10 C6 1_555 1_555
C11 N3 1_555 1_555
H5 C11 1_555 1_555
C12_2 C9_2 1_555 1_555
C13_2 C24 1_555 1_555
C14 C6 1_555 1_555
H6 C14 1_555 1_555
C15_2 C3_2 1_555 1_555
H7 C15_2 1_555 1_555
C16_2 C2_2 1_555 1_555
H8_2 C16_2 1_555 1_555
C17 N6 1_555 1_555
C18 C27 1_555 1_555
C19_2 H9_2 1_555 1_555
C20 C4 1_555 1_555
H10 C20 1_555 1_555
C21 H11 1_555 1_555
C22 N2_2 1_555 1_555
H12 C22 1_555 1_555
C23_2 C15_2 1_555 1_555
H13 C23_2 1_555 1_555
C24 C7 1_555 1_555
H14 C24 1_555 1_555
C25 C13_2 1_555 1_555
H15_2 C25 1_555 1_555
C27 N7 1_555 1_555
C28_2 C12_2 1_555 1_555
H17_2 C28_2 1_555 1_555
C29_2 N10_2 1_555 1_555
C30 C18 1_555 1_555
H18 C30 1_555 1_555
C31 N8_2 1_555 1_555
H19_2 C31 1_555 1_555
C32 C18 1_555 1_555
H20 C32 1_555 1_555
C33_2 N5 1_555 1_555
H21_2 C33_2 1_555 1_555
C34_2 C12_2 1_555 1_555
H22_2 C34_2 1_555 1_555
C36_2 C3_2 1_555 1_555
H24_2 C36_2 1_555 1_555
Zn4 N3 1_555 1_555
Zn5 N5 1_555 1_555
N9 C27 1_555 1_555
N12_2 C29_2 1_555 1_555
C4 C17 1_555 1_555
C11 C14 1_555 1_555
C13_2 C29_2 1_555 1_555
C19_2 C34_2 1_555 1_555
C20 C22 1_555 1_555
C21 C30 1_555 1_555
C25 C31 1_555 1_555
C26 C32 1_555 1_555
C28_2 C33_2 1_555 1_555
I1_2 Zn5 1_555 1_555
I3_2 Zn5 1_555 1_555
Zn5 N4_2 1_555 1_555
I4_2 Zn4 1_555 1_555
Zn4 N1_2 1_555 1_555
N1_2 C23_3 1_555 1_555
C15_3 C3_3 1_555 1_555
C23_3 C15_3 1_555 1_555
C35_2 N1_2 1_555 1_555
H23_2 C35_2 1_555 1_555
C36_3 C3_3 1_555 1_555
H24_3 C36_3 1_555 1_555
C35_2 C36_3 1_555 1_555
I1_3 Zn3_2 1_555 1_555
I3_3 Zn3_2 1_555 1_555
Zn3_2 N4_3 1_555 1_555
N14_2 Zn3_2 1_555 1_555
I4_3 Zn2_2 1_555 1_555
Zn2_2 N1_3 1_555 1_555
N1_3 C23_4 1_555 1_555
C15_4 C3_4 1_555 1_555
C23_4 C15_4 1_555 1_555
C35_3 N1_3 1_555 1_555
H23_3 C35_3 1_555 1_555
C36_4 C3_4 1_555 1_555
H24_4 C36_4 1_555 1_555
N13_2 Zn2_2 1_555 1_555
C35_3 C36_4 1_555 1_555
I2_3 Zn1_3 1_555 1_555
I5_3 Zn1_3 1_555 1_555
Zn1_3 N2_3 1_555 1_555
N2_3 C2_3 1_555 1_555
N13_2 C1_3 1_555 1_555
N14_2 C19_3 1_555 1_555
N6_2 C10_2 1_555 1_555
N7_2 C10_2 1_555 1_555
N8_3 Zn1_3 1_555 1_555
N9_2 C17_2 1_555 1_555
N10_3 C5_3 1_555 1_555
N11_3 C5_3 1_555 1_555
C1_3 H1_3 1_555 1_555
N12_3 C9_3 1_555 1_555
C2_3 H2_3 1_555 1_555
C3_5 C5_3 1_555 1_555
C4_2 C16_3 1_555 1_555
C6_2 C8_3 1_555 1_555
C7_2 N8_3 1_555 1_555
H3_2 C7_2 1_555 1_555
C8_3 C1_3 1_555 1_555
H4_3 C8_3 1_555 1_555
C9_3 N11_3 1_555 1_555
C10_2 C6_2 1_555 1_555
C11_2 N13_2 1_555 1_555
H5_2 C11_2 1_555 1_555
C12_3 C9_3 1_555 1_555
C13_3 C24_2 1_555 1_555
C14_2 C6_2 1_555 1_555
H6_2 C14_2 1_555 1_555
C15_5 C3_5 1_555 1_555
H7_2 C15_5 1_555 1_555
C16_3 C2_3 1_555 1_555
H8_3 C16_3 1_555 1_555
C17_2 N6_2 1_555 1_555
C18_2 C27_2 1_555 1_555
C19_3 H9_3 1_555 1_555
C20_2 C4_2 1_555 1_555
H10_2 C20_2 1_555 1_555
C21_2 H11_2 1_555 1_555
C22_2 N2_3 1_555 1_555
H12_2 C22_2 1_555 1_555
C23_5 C15_5 1_555 1_555
H13_2 C23_5 1_555 1_555
C24_2 C7_2 1_555 1_555
H14_2 C24_2 1_555 1_555
C25_2 C13_3 1_555 1_555
H15_3 C25_2 1_555 1_555
C27_2 N7_2 1_555 1_555
C28_3 C12_3 1_555 1_555
H17_3 C28_3 1_555 1_555
C29_3 N10_3 1_555 1_555
C30_2 C18_2 1_555 1_555
H18_2 C30_2 1_555 1_555
C31_2 N8_3 1_555 1_555
H19_3 C31_2 1_555 1_555
C32_2 C18_2 1_555 1_555
H20_2 C32_2 1_555 1_555
C33_3 N14_2 1_555 1_555
H21_3 C33_3 1_555 1_555
C34_3 C12_3 1_555 1_555
H22_3 C34_3 1_555 1_555
C36_5 C3_5 1_555 1_555
H24_5 C36_5 1_555 1_555
N9_2 C27_2 1_555 1_555
N12_3 C29_3 1_555 1_555
C4_2 C17_2 1_555 1_555
C11_2 C14_2 1_555 1_555
C13_3 C29_3 1_555 1_555
C19_3 C34_3 1_555 1_555
C20_2 C22_2 1_555 1_555
C21_2 C30_2 1_555 1_555
C25_2 C31_2 1_555 1_555
C26_2 C32_2 1_555 1_555
C28_3 C33_3 1_555 1_555
I4_4 Zn2_3 1_555 1_555
Zn2_3 N1_4 1_555 1_555
C35_4 N1_4 1_555 1_555
H23_4 C35_4 1_555 1_555
N13_3 Zn2_3 1_555 1_555
I2_4 Zn1_4 1_555 1_555
I5_4 Zn1_4 1_555 1_555
Zn1_4 N2_4 1_555 1_555
N2_4 C2_4 1_555 1_555
N13_3 C1_4 1_555 1_555
N8_4 Zn1_4 1_555 1_555
C1_4 H1_4 1_555 1_555
C2_4 H2_4 1_555 1_555
C8_4 C1_4 1_555 1_555
H4_4 C8_4 1_555 1_555
C16_4 C2_4 1_555 1_555
H8_4 C16_4 1_555 1_555
I2_5 Zn1_5 1_555 1_555
I5_5 Zn1_5 1_555 1_555
Zn1_5 N2_5 1_555 1_555
N2_5 C2_5 1_555 1_555
N3_2 C1_5 1_555 1_555
N6_3 C10_3 1_555 1_555
N7_3 C10_3 1_555 1_555
N8_5 Zn1_5 1_555 1_555
N9_3 C17_3 1_555 1_555
C1_5 H1_5 1_555 1_555
C2_5 H2_5 1_555 1_555
C4_3 C16_5 1_555 1_555
C6_3 C8_5 1_555 1_555
C7_3 N8_5 1_555 1_555
H3_3 C7_3 1_555 1_555
C8_5 C1_5 1_555 1_555
H4_5 C8_5 1_555 1_555
C10_3 C6_3 1_555 1_555
C11_3 N3_2 1_555 1_555
H5_3 C11_3 1_555 1_555
C14_3 C6_3 1_555 1_555
H6_3 C14_3 1_555 1_555
C16_5 C2_5 1_555 1_555
H8_5 C16_5 1_555 1_555
C17_3 N6_3 1_555 1_555
C18_3 C27_3 1_555 1_555
C20_3 C4_3 1_555 1_555
H10_3 C20_3 1_555 1_555
C21_3 H11_3 1_555 1_555
C22_3 N2_5 1_555 1_555
H12_3 C22_3 1_555 1_555
C24_3 C7_3 1_555 1_555
H14_3 C24_3 1_555 1_555
C27_3 N7_3 1_555 1_555
C30_3 C18_3 1_555 1_555
H18_3 C30_3 1_555 1_555
C31_3 N8_5 1_555 1_555
H19_5 C31_3 1_555 1_555
C32_3 C18_3 1_555 1_555
H20_3 C32_3 1_555 1_555
Zn4_2 N3_2 1_555 1_555
N9_3 C27_3 1_555 1_555
C4_3 C17_3 1_555 1_555
C11_3 C14_3 1_555 1_555
C20_3 C22_3 1_555 1_555
C21_3 C30_3 1_555 1_555
C25_3 C31_3 1_555 1_555
C26_3 C32_3 1_555 1_555
I4_5 Zn4_2 1_555 1_555
I6_4 Zn4_2 1_555 1_555
Zn4_2 N1_5 1_555 1_555
N1_5 C23_6 1_555 1_555
C15_6 C3_6 1_555 1_555
H7_4 C15_6 1_555 1_555
C23_6 C15_6 1_555 1_555
H13_4 C23_6 1_555 1_555
C35_5 N1_5 1_555 1_555
H23_5 C35_5 1_555 1_555
C36_6 C3_6 1_555 1_555
H24_6 C36_6 1_555 1_555
C35_5 C36_6 1_555 1_555
N5_2 C19_4 1_555 1_555
N10_4 C5_4 1_555 1_555
N11_4 C5_4 1_555 1_555
N12_4 C9_4 1_555 1_555
C3_7 C5_4 1_555 1_555
C9_4 N11_4 1_555 1_555
C12_4 C9_4 1_555 1_555
C15_7 C3_7 1_555 1_555
C19_4 H9_4 1_555 1_555
C23_7 C15_7 1_555 1_555
C28_4 C12_4 1_555 1_555
H17_4 C28_4 1_555 1_555
C29_4 N10_4 1_555 1_555
C33_4 N5_2 1_555 1_555
H21_4 C33_4 1_555 1_555
C34_4 C12_4 1_555 1_555
H22_4 C34_4 1_555 1_555
C36_7 C3_7 1_555 1_555
H24_7 C36_7 1_555 1_555
Zn5_2 N5_2 1_555 1_555
N12_4 C29_4 1_555 1_555
C13_4 C29_4 1_555 1_555
C19_4 C34_4 1_555 1_555
C28_4 C33_4 1_555 1_555
I2_6 Zn1_6 1_555 1_555
I5_6 Zn1_6 1_555 1_555
Zn1_6 N2_6 1_555 1_555
N2_6 C2_6 1_555 1_555
N3_3 C1_6 1_555 1_555
N8_6 Zn1_6 1_555 1_555
C1_6 H1_6 1_555 1_555
C2_6 H2_6 1_555 1_555
C8_6 C1_6 1_555 1_555
H4_6 C8_6 1_555 1_555
C16_6 C2_6 1_555 1_555
H8_6 C16_6 1_555 1_555
Zn4_3 N3_3 1_555 1_555
I1_4 Zn5_2 1_555 1_555
I3_4 Zn5_2 1_555 1_555
I4_6 Zn4_3 1_555 1_555
I6_5 Zn4_3 1_555 1_555
Zn4_3 N1_6 1_555 1_555
Zn5_2 N4_4 1_555 1_555
C35_6 N1_6 1_555 1_555
H23_6 C35_6 1_555 1_555
I4_7 Zn2_4 1_555 1_555
I6_6 Zn2_4 1_555 1_555
Zn2_4 N1_7 1_555 1_555
N1_7 C23_8 1_555 1_555
C15_8 C3_8 1_555 1_555
H7_5 C15_8 1_555 1_555
C23_8 C15_8 1_555 1_555
H13_5 C23_8 1_555 1_555
C35_7 N1_7 1_555 1_555
H23_7 C35_7 1_555 1_555
C36_8 C3_8 1_555 1_555
H24_8 C36_8 1_555 1_555
N13_4 Zn2_4 1_555 1_555
C35_7 C36_8 1_555 1_555
I2_7 Zn1_7 1_555 1_555
I5_7 Zn1_7 1_555 1_555
Zn1_7 N2_7 1_555 1_555
N2_7 C2_7 1_555 1_555
N13_4 C1_7 1_555 1_555
N6_4 C10_4 1_555 1_555
N7_4 C10_4 1_555 1_555
N8_7 Zn1_7 1_555 1_555
N9_4 C17_4 1_555 1_555
C1_7 H1_7 1_555 1_555
C2_7 H2_7 1_555 1_555
C4_4 C16_7 1_555 1_555
C6_4 C8_7 1_555 1_555
C7_4 N8_7 1_555 1_555
H3_4 C7_4 1_555 1_555
C8_7 C1_7 1_555 1_555
H4_7 C8_7 1_555 1_555
C10_4 C6_4 1_555 1_555
C11_4 N13_4 1_555 1_555
H5_4 C11_4 1_555 1_555
C14_4 C6_4 1_555 1_555
H6_4 C14_4 1_555 1_555
C16_7 C2_7 1_555 1_555
H8_7 C16_7 1_555 1_555
C17_4 N6_4 1_555 1_555
C18_4 C27_4 1_555 1_555
C20_4 C4_4 1_555 1_555
H10_4 C20_4 1_555 1_555
C21_4 H11_4 1_555 1_555
C22_4 N2_7 1_555 1_555
H12_4 C22_4 1_555 1_555
C24_4 C7_4 1_555 1_555
H14_4 C24_4 1_555 1_555
C27_4 N7_4 1_555 1_555
C30_4 C18_4 1_555 1_555
H18_4 C30_4 1_555 1_555
C31_4 N8_7 1_555 1_555
H19_7 C31_4 1_555 1_555
C32_4 C18_4 1_555 1_555
H20_4 C32_4 1_555 1_555
N9_4 C27_4 1_555 1_555
C4_4 C17_4 1_555 1_555
C11_4 C14_4 1_555 1_555
C20_4 C22_4 1_555 1_555
C21_4 C30_4 1_555 1_555
C25_4 C31_4 1_555 1_555
C26_4 C32_4 1_555 1_555
I1_5 Zn3_3 1_555 1_555
I3_5 Zn3_3 1_555 1_555
Zn3_3 N4_5 1_555 1_555
N4_5 C21_5 1_555 1_555
N5_3 C19_5 1_555 1_555
N6_5 C10_5 1_555 1_555
N7_5 C10_5 1_555 1_555
N9_5 C17_5 1_555 1_555
N10_5 C5_5 1_555 1_555
N11_5 C5_5 1_555 1_555
N12_5 C9_5 1_555 1_555
H3_5 C7_5 1_555 1_555
C9_5 N11_5 1_555 1_555
C10_5 C6_5 1_555 1_555
H5_5 C11_5 1_555 1_555
C12_5 C9_5 1_555 1_555
C13_5 C24_5 1_555 1_555
C14_5 C6_5 1_555 1_555
H6_5 C14_5 1_555 1_555
C17_5 N6_5 1_555 1_555
C18_5 C27_5 1_555 1_555
C19_5 H9_5 1_555 1_555
C20_5 C4_5 1_555 1_555
H10_5 C20_5 1_555 1_555
C21_5 H11_5 1_555 1_555
H12_5 C22_5 1_555 1_555
C24_5 C7_5 1_555 1_555
H14_5 C24_5 1_555 1_555
C25_5 C13_5 1_555 1_555
H15_5 C25_5 1_555 1_555
C26_5 N4_5 1_555 1_555
H16_5 C26_5 1_555 1_555
C27_5 N7_5 1_555 1_555
C28_5 C12_5 1_555 1_555
H17_5 C28_5 1_555 1_555
C29_5 N10_5 1_555 1_555
C30_5 C18_5 1_555 1_555
H18_5 C30_5 1_555 1_555
C32_5 C18_5 1_555 1_555
H20_5 C32_5 1_555 1_555
C33_5 N5_3 1_555 1_555
H21_5 C33_5 1_555 1_555
C34_5 C12_5 1_555 1_555
H22_5 C34_5 1_555 1_555
Zn5_3 N5_3 1_555 1_555
N14_3 Zn3_3 1_555 1_555
N9_5 C27_5 1_555 1_555
N12_5 C29_5 1_555 1_555
C4_5 C17_5 1_555 1_555
C11_5 C14_5 1_555 1_555
C13_5 C29_5 1_555 1_555
C19_5 C34_5 1_555 1_555
C20_5 C22_5 1_555 1_555
C21_5 C30_5 1_555 1_555
C25_5 C31_5 1_555 1_555
C26_5 C32_5 1_555 1_555
C28_5 C33_5 1_555 1_555
N14_3 C19_6 1_555 1_555
N10_6 C5_6 1_555 1_555
N11_6 C5_6 1_555 1_555
N12_6 C9_6 1_555 1_555
C9_6 N11_6 1_555 1_555
C12_6 C9_6 1_555 1_555
C19_6 H9_6 1_555 1_555
C28_6 C12_6 1_555 1_555
H17_6 C28_6 1_555 1_555
C29_6 N10_6 1_555 1_555
C33_6 N14_3 1_555 1_555
H21_6 C33_6 1_555 1_555
C34_6 C12_6 1_555 1_555
H22_6 C34_6 1_555 1_555
N12_6 C29_6 1_555 1_555
C13_6 C29_6 1_555 1_555
C19_6 C34_6 1_555 1_555
C28_6 C33_6 1_555 1_555
I1_6 Zn5_3 1_555 1_555
I3_6 Zn5_3 1_555 1_555
Zn5_3 N4_6 1_555 1_555
N4_6 C21_6 1_555 1_555
N6_6 C10_6 1_555 1_555
N7_6 C10_6 1_555 1_555
N9_6 C17_6 1_555 1_555
H3_6 C7_6 1_555 1_555
C10_6 C6_6 1_555 1_555
H5_6 C11_6 1_555 1_555
C14_6 C6_6 1_555 1_555
H6_6 C14_6 1_555 1_555
C17_6 N6_6 1_555 1_555
C18_6 C27_6 1_555 1_555
C20_6 C4_6 1_555 1_555
H10_6 C20_6 1_555 1_555
C21_6 H11_6 1_555 1_555
H12_6 C22_6 1_555 1_555
C24_6 C7_6 1_555 1_555
H14_6 C24_6 1_555 1_555
C26_6 N4_6 1_555 1_555
H16_6 C26_6 1_555 1_555
C27_6 N7_6 1_555 1_555
C30_6 C18_6 1_555 1_555
H18_6 C30_6 1_555 1_555
C32_6 C18_6 1_555 1_555
H20_6 C32_6 1_555 1_555
N9_6 C27_6 1_555 1_555
C4_6 C17_6 1_555 1_555
C11_6 C14_6 1_555 1_555
C20_6 C22_6 1_555 1_555
C21_6 C30_6 1_555 1_555
C25_6 C31_6 1_555 1_555
C26_6 C32_6 1_555 1_555
I2_8 Zn1_8 1_555 1_555
I5_8 Zn1_8 1_555 1_555
Zn1_8 N2_8 1_555 1_555
N2_8 C2_8 1_555 1_555
N3_4 C1_8 1_555 1_555
N8_8 Zn1_8 1_555 1_555
C1_8 H1_8 1_555 1_555
C2_8 H2_8 1_555 1_555
C8_8 C1_8 1_555 1_555
H4_8 C8_8 1_555 1_555
C16_8 C2_8 1_555 1_555
H8_8 C16_8 1_555 1_555
Zn4_4 N3_4 1_555 1_555
I4_8 Zn4_4 1_555 1_555
Zn4_4 N1_8 1_555 1_555
C35_8 N1_8 1_555 1_555
H23_8 C35_8 1_555 1_555
I1_7 Zn3_4 1_555 1_555
I3_7 Zn3_4 1_555 1_555
Zn3_4 N4_7 1_555 1_555
N4_7 C21_7 1_555 1_555
N6_7 C10_7 1_555 1_555
N7_7 C10_7 1_555 1_555
N9_7 C17_7 1_555 1_555
H3_7 C7_7 1_555 1_555
C10_7 C6_7 1_555 1_555
H5_7 C11_7 1_555 1_555
C14_7 C6_7 1_555 1_555
H6_7 C14_7 1_555 1_555
C17_7 N6_7 1_555 1_555
C18_7 C27_7 1_555 1_555
C20_7 C4_7 1_555 1_555
H10_7 C20_7 1_555 1_555
C21_7 H11_7 1_555 1_555
H12_7 C22_7 1_555 1_555
C24_7 C7_7 1_555 1_555
H14_7 C24_7 1_555 1_555
C26_7 N4_7 1_555 1_555
H16_7 C26_7 1_555 1_555
C27_7 N7_7 1_555 1_555
C30_7 C18_7 1_555 1_555
H18_7 C30_7 1_555 1_555
C32_7 C18_7 1_555 1_555
H20_7 C32_7 1_555 1_555
N14_4 Zn3_4 1_555 1_555
N9_7 C27_7 1_555 1_555
C4_7 C17_7 1_555 1_555
C11_7 C14_7 1_555 1_555
C20_7 C22_7 1_555 1_555
C21_7 C30_7 1_555 1_555
C25_7 C31_7 1_555 1_555
C26_7 C32_7 1_555 1_555
N5_4 C19_7 1_555 1_555
N10_7 C5_7 1_555 1_555
N11_7 C5_7 1_555 1_555
N12_7 C9_7 1_555 1_555
C9_7 N11_7 1_555 1_555
C12_7 C9_7 1_555 1_555
C19_7 H9_7 1_555 1_555
C28_7 C12_7 1_555 1_555
H17_7 C28_7 1_555 1_555
C29_7 N10_7 1_555 1_555
C33_7 N5_4 1_555 1_555
H21_7 C33_7 1_555 1_555
C34_7 C12_7 1_555 1_555
H22_7 C34_7 1_555 1_555
Zn5_4 N5_4 1_555 1_555
N12_7 C29_7 1_555 1_555
C13_7 C29_7 1_555 1_555
C19_7 C34_7 1_555 1_555
C28_7 C33_7 1_555 1_555
I1_8 Zn5_4 1_555 1_555
I3_8 Zn5_4 1_555 1_555
Zn5_4 N4_8 1_555 1_555
N4_8 C21_8 1_555 1_555
N14_4 C19_8 1_555 1_555
N6_8 C10_8 1_555 1_555
N7_8 C10_8 1_555 1_555
N9_8 C17_8 1_555 1_555
N10_8 C5_8 1_555 1_555
N11_8 C5_8 1_555 1_555
N12_8 C9_8 1_555 1_555
H3_8 C7_8 1_555 1_555
C9_8 N11_8 1_555 1_555
C10_8 C6_8 1_555 1_555
H5_8 C11_8 1_555 1_555
C12_8 C9_8 1_555 1_555
C13_8 C24_8 1_555 1_555
C14_8 C6_8 1_555 1_555
H6_8 C14_8 1_555 1_555
C17_8 N6_8 1_555 1_555
C18_8 C27_8 1_555 1_555
C19_8 H9_8 1_555 1_555
C20_8 C4_8 1_555 1_555
H10_8 C20_8 1_555 1_555
C21_8 H11_8 1_555 1_555
H12_8 C22_8 1_555 1_555
C24_8 C7_8 1_555 1_555
H14_8 C24_8 1_555 1_555
C25_8 C13_8 1_555 1_555
H15_8 C25_8 1_555 1_555
C26_8 N4_8 1_555 1_555
H16_8 C26_8 1_555 1_555
C27_8 N7_8 1_555 1_555
C28_8 C12_8 1_555 1_555
H17_8 C28_8 1_555 1_555
C29_8 N10_8 1_555 1_555
C30_8 C18_8 1_555 1_555
H18_8 C30_8 1_555 1_555
C32_8 C18_8 1_555 1_555
H20_8 C32_8 1_555 1_555
C33_8 N14_4 1_555 1_555
H21_8 C33_8 1_555 1_555
C34_8 C12_8 1_555 1_555
H22_8 C34_8 1_555 1_555
N9_8 C27_8 1_555 1_555
N12_8 C29_8 1_555 1_555
C4_8 C17_8 1_555 1_555
C11_8 C14_8 1_555 1_555
C13_8 C29_8 1_555 1_555
C19_8 C34_8 1_555 1_555
C20_8 C22_8 1_555 1_555
C21_8 C30_8 1_555 1_555
C25_8 C31_8 1_555 1_555
C26_8 C32_8 1_555 1_555
C28_8 C33_8 1_555 1_555

#END
