
###############################################################################
#
# This file contains modified crystal structure data generated from the
# MOF subset of the Cambridge Structural Database (CSD) v543 
# hosted by the Cambridge Crystallographic Data Centre (CCDC).
#
# This work is licensed under the Creative Commons
# Attribution-NonCommercial-ShareAlike 4.0 International License.
# To view a copy of this license, visit
# http://creativecommons.org/licenses/by-nc-sa/4.0/
# or send a letter to
# Creative Commons, PO Box 1866, Mountain View, CA 94042, USA.
#
# CIF created using the CSD Python API on 29 September 2022
# The structure has been converted into the P1 space group
# The structure has a 3D framework
# The original CSD entry ULUVUT is in the monoclinic crystal system
# The framework has been calculated to contain at least 10.0% void space
# The void calculation uses a probe of radius 1.32A, grid spacing 0.4
#
###############################################################################

data_ULUVUT
_chemical_formula_moiety         '(C8 H16 N38 Zn3)n'
_symmetry_cell_setting           triclinic
_symmetry_space_group_name_H-M   'P 1'
_symmetry_Int_Tables_number      1
_space_group_name_Hall           'P 1'
loop_
_symmetry_equiv_pos_site_id
_symmetry_equiv_pos_as_xyz
1 x,y,z
_cell_length_a                   13.330(3)
_cell_length_b                   15.327(3)
_cell_length_c                   8.7796(17)
_cell_angle_alpha                90
_cell_angle_beta                 131.20(2)
_cell_angle_gamma                90
_cell_volume                     1349.64
loop_
_atom_site_label
_atom_site_type_symbol
_atom_site_fract_x
_atom_site_fract_y
_atom_site_fract_z
N7 N 0.1248(4) 0.0128(3) 0.9548(8)
N1 N 0.1166(4) 0.7736(3) 0.2790(6)
N2 N 0.0892(4) 0.6936(3) 0.1921(7)
N3 N 0.3142(5) 0.8363(4) 0.5804(9)
H1 H 0.2704 0.8770 0.5444
H2 H 0.4017 0.8296 0.6968
N4 N 0.2978(4) 0.6947(3) 0.4600(7)
N5 N 0.1938(5) 0.6472(3) 0.2972(9)
N6 N 0.1224(5) 0.9468(3) 0.0400(8)
C1 C 0.2471(4) 0.7720(3) 0.4455(7)
Zn3 Zn 0.47457(5) 0.63771(2) 0.63267(6)
N9 N 0.9997(4) 0.0475(3) 0.8188(7)
N10 N 0.7913(5) 0.0089(4) 0.7198(11)
H3 H 0.7551 0.0610 0.6915
Zn2 Zn 0.97457(5) 0.13771(2) 0.63267(6)
N8 N 0.9943(4) 0.9344(3) 0.9645(7)
H4 H 0.7525 0.9719 0.7369
C2 C 0.9226(5) 0.9981(3) 0.8285(7)
N11 N 0.7978(4) 0.8053(3) 0.9600(7)
N3_2 N 0.3142(5) 0.1637(4) 0.0804(9)
H1_2 H 0.2704 0.1230 0.0444
H2_2 H 0.4017 0.1704 0.1968
Zn3_2 Zn 0.47457(5) 0.36229(2) 0.13267(6)
N1_2 N 0.1166(4) 0.2264(3) 0.7790(6)
N2_2 N 0.0892(4) 0.3064(3) 0.6921(7)
N4_2 N 0.2978(4) 0.3053(3) 0.9600(7)
N5_2 N 0.1938(5) 0.3528(3) 0.7972(9)
N6_2 N 0.1224(5) 0.0532(3) 0.5400(8)
C1_2 C 0.2471(4) 0.2280(3) 0.9455(7)
N8_2 N 0.9943(4) 0.0656(3) 0.4645(7)
H4_2 H 0.7525 0.0281 0.2369
C2_2 C 0.9226(5) 0.0019(3) 0.3285(7)
N11_2 N 0.7978(4) 0.1947(3) 0.4600(7)
N1_3 N 0.6166(4) 0.2736(3) 0.2790(6)
N2_3 N 0.5892(4) 0.1936(3) 0.1921(7)
N3_3 N 0.8142(5) 0.3363(4) 0.5804(9)
H1_3 H 0.7704 0.3770 0.5444
H2_3 H 0.9017 0.3296 0.6968
N5_3 N 0.6938(5) 0.1472(3) 0.2972(9)
N6_3 N 0.6224(5) 0.4468(3) 0.0400(8)
C1_3 C 0.7471(4) 0.2720(3) 0.4455(7)
N12 N 0.4997(4) 0.4525(3) 0.3188(7)
N7_2 N 0.6248(4) 0.5128(3) 0.9548(8)
N8_3 N 0.4943(4) 0.4344(3) 0.9645(7)
N9_2 N 0.4997(4) 0.5475(3) 0.8188(7)
N10_2 N 0.2913(5) 0.5089(4) 0.7198(11)
H3_2 H 0.2551 0.5610 0.6915
H4_3 H 0.2525 0.4719 0.7369
C2_3 C 0.4226(5) 0.4981(3) 0.8285(7)
N1_4 N 0.6166(4) 0.7264(3) 0.7790(6)
N2_4 N 0.5892(4) 0.8064(3) 0.6921(7)
N5_4 N 0.6938(5) 0.8528(3) 0.7972(9)
N6_4 N 0.6224(5) 0.5532(3) 0.5400(8)
N7_3 N 0.6248(4) 0.4872(3) 0.4548(8)
N8_4 N 0.4943(4) 0.5656(3) 0.4645(7)
N10_3 N 0.2913(5) 0.4911(4) 0.2198(11)
H3_3 H 0.2551 0.4390 0.1915
H4_4 H 0.2525 0.5281 0.2369
C1_4 C 0.7471(4) 0.7280(3) 0.9455(7)
C2_4 C 0.4226(5) 0.5019(3) 0.3285(7)
Zn1 Zn 0.97457(5) 0.86229(2) 0.13267(6)
N12_2 N 0.9997(4) 0.9525(3) 0.3188(7)
N10_4 N 0.7913(5) 0.9911(4) 0.2198(11)
H3_4 H 0.7551 0.9390 0.1915
N3_4 N 0.8142(5) 0.6637(4) 0.0804(9)
H1_4 H 0.7704 0.6230 0.0444
H2_4 H 0.9017 0.6704 0.1968
N7_4 N 0.1248(4) 0.9872(3) 0.4548(8)
loop_
_geom_bond_atom_site_label_1
_geom_bond_atom_site_label_2
_geom_bond_site_symmetry_1
_geom_bond_site_symmetry_2
N1 N2 1_555 1_555
N2 N5 1_555 1_555
N3 H1 1_555 1_555
H2 N3 1_555 1_555
N4 N5 1_555 1_555
C1 N1 1_555 1_555
Zn3 N4 1_555 1_555
N3 C1 1_555 1_555
N4 C1 1_555 1_555
N10 H3 1_555 1_555
Zn2 N9 1_555 1_555
C2 N8 1_555 1_555
N3_2 H1_2 1_555 1_555
H2_2 N3_2 1_555 1_555
N1_2 N2_2 1_555 1_555
N2_2 N5_2 1_555 1_555
N4_2 N5_2 1_555 1_555
C1_2 N1_2 1_555 1_555
N4_2 C1_2 1_555 1_555
N8_2 Zn2 1_555 1_555
C2_2 N8_2 1_555 1_555
N11_2 Zn2 1_555 1_555
Zn3_2 N1_3 1_555 1_555
N1_3 N2_3 1_555 1_555
N2_3 N5_3 1_555 1_555
N3_3 H1_3 1_555 1_555
H2_3 N3_3 1_555 1_555
N11_2 N5_3 1_555 1_555
C1_3 N1_3 1_555 1_555
N12 Zn3_2 1_555 1_555
N3_3 C1_3 1_555 1_555
N11_2 C1_3 1_555 1_555
N7_2 N9_2 1_555 1_555
N9_2 C2_3 1_555 1_555
N10_2 H3_2 1_555 1_555
H4_3 N10_2 1_555 1_555
C2_3 N8_3 1_555 1_555
Zn3 N9_2 1_555 1_555
N10_2 C2_3 1_555 1_555
Zn3 N1_4 1_555 1_555
N1_4 N2_4 1_555 1_555
N2_4 N5_4 1_555 1_555
N11 N5_4 1_555 1_555
N6_4 N7_3 1_555 1_555
N7_3 N12 1_555 1_555
N8_4 Zn3 1_555 1_555
N12 C2_4 1_555 1_555
N10_3 H3_3 1_555 1_555
H4_4 N10_3 1_555 1_555
C1_4 N1_4 1_555 1_555
C2_4 N8_4 1_555 1_555
N11 C1_4 1_555 1_555
N6_4 N8_4 1_555 1_555
N10_3 C2_4 1_555 1_555
N12_2 Zn1 1_555 1_555
N10_4 H3_4 1_555 1_555
N3_4 H1_4 1_555 1_555
H2_4 N3_4 1_555 1_555

#END
