
###############################################################################
#
# This file contains modified crystal structure data generated from the
# MOF subset of the Cambridge Structural Database (CSD) v543 
# hosted by the Cambridge Crystallographic Data Centre (CCDC).
#
# This work is licensed under the Creative Commons
# Attribution-NonCommercial-ShareAlike 4.0 International License.
# To view a copy of this license, visit
# http://creativecommons.org/licenses/by-nc-sa/4.0/
# or send a letter to
# Creative Commons, PO Box 1866, Mountain View, CA 94042, USA.
#
# CIF created using the CSD Python API on 29 September 2022
# The structure has been converted into the P1 space group
# The structure has a 3D framework
# The original CSD entry UMAVOW is in the monoclinic crystal system
# The framework has been calculated to contain at least 10.0% void space
# The void calculation uses a probe of radius 1.32A, grid spacing 0.4
#
###############################################################################

data_UMAVOW
_chemical_formula_moiety         '(C140 H152 N8 O56 Zn16)n'
_symmetry_cell_setting           triclinic
_symmetry_space_group_name_H-M   'P 1'
_symmetry_Int_Tables_number      1
_space_group_name_Hall           'P 1'
loop_
_symmetry_equiv_pos_site_id
_symmetry_equiv_pos_as_xyz
1 x,y,z
_cell_length_a                   11.8995(2)
_cell_length_b                   18.0811(3)
_cell_length_c                   20.4967(3)
_cell_angle_alpha                90
_cell_angle_beta                 103.0436(16)
_cell_angle_gamma                90
_cell_volume                     4296.21
loop_
_atom_site_label
_atom_site_type_symbol
_atom_site_fract_x
_atom_site_fract_y
_atom_site_fract_z
Zn9 Zn 0.10187(3) 0.656367(19) 0.898223(18)
Zn12 Zn 0.03534(4) 0.74345(2) 0.76810(2)
C22 C 0.9761(3) 0.04440(19) 0.55277(17)
C25 C 0.9454(3) 0.0878(2) 0.60898(19)
H19 H 0.8872 0.0607 0.6265
H20 H 0.9145 0.1361 0.5922
C28 C 0.9262(3) 0.53026(18) 0.53477(17)
H22 H 0.8737 0.5519 0.5580
H23 H 0.9397 0.4788 0.6522
O17 O 0.7325(2) 0.60204(13) 0.44677(14)
O18 O 0.8708(2) 0.66309(13) 0.41214(14)
C41 C 0.9202(3) 0.55081(17) 0.46883(16)
C42 C 0.9944(3) 0.52037(19) 0.43215(17)
C44 C 0.8346(3) 0.60963(17) 0.43967(16)
C45 C 0.9879(4) 0.5360(2) 0.35913(19)
H45 H 0.9239 0.5080 0.3316
H46 H 0.9752 0.5890 0.3505
H66 H 0.8035 0.0018 0.3369
H67 H 0.7212 0.0492 0.2795
H69 H 0.8167 0.0285 0.1858
Zn11 Zn 0.60763(3) 0.672618(19) 0.417689(19)
Zn15 Zn 0.79848(3) 0.749809(18) 0.358700(19)
C23 C 0.9025(3) 0.98874(18) 0.52276(16)
H18 H 0.8341 0.9798 0.5381
O15 O 0.7329(2) 0.90317(13) 0.44007(13)
O16 O 0.8724(2) 0.82674(13) 0.42544(13)
C36 C 0.9245(3) 0.94521(18) 0.47101(16)
C39 C 0.8376(3) 0.88707(19) 0.44309(16)
H42 H 0.9854 0.9052 0.3552
Zn5 Zn 0.60187(3) 0.843633(19) 0.398223(18)
Zn7 Zn 0.53534(4) 0.75655(2) 0.26810(2)
O19 O 0.63493(18) 0.75095(10) 0.35890(10)
O20 O 0.5241(3) 0.82552(14) 0.47180(13)
O21 O 0.5846(2) 0.71217(14) 0.50307(12)
O22 O 0.4044(3) 0.73505(15) 0.79927(14)
O23 O 0.2739(2) 0.81503(14) 0.75211(13)
O24 O 0.4750(2) 0.61205(14) 0.38021(14)
O25 O 0.4341(3) 0.66645(14) 0.28028(14)
O26 O 0.0085(2) 0.41066(13) 0.15360(12)
O27 O 0.0873(2) 0.33426(12) 0.23663(13)
O28 O 0.6623(3) 0.85571(15) 0.26509(17)
N3 N 0.5181(3) 0.73411(17) 0.16855(16)
H47 H 0.5785 0.7581 0.1554
N4 N 0.7712(3) 0.95299(18) 0.24704(18)
C46 C 0.4931(3) 0.77987(19) 0.57348(16)
C47 C 0.3912(3) 0.81918(19) 0.57599(17)
C48 C 0.3554(3) 0.81630(19) 0.63512(17)
H48 H 0.2843 0.8391 0.6369
C49 C 0.4185(3) 0.78141(19) 0.69290(16)
C50 C 0.5229(3) 0.7474(2) 0.69179(19)
C51 C 0.5550(3) 0.74668(18) 0.63122(18)
H49 H 0.6243 0.7217 0.6290
C52 C 0.5367(3) 0.77147(19) 0.51153(16)
C53 C 0.3202(4) 0.8604(2) 0.51742(19)
H50 H 0.2423 0.8682 0.5245
H51 H 0.3562 0.9083 0.5131
H52 H 0.3157 0.8316 0.4764
C54 C 0.3621(3) 0.7780(2) 0.75188(18)
C55 C 0.6030(4) 0.7137(3) 0.7523(2)
H53 H 0.6802 0.7082 0.7435
H54 H 0.6071 0.7461 0.7911
H55 H 0.5737 0.6651 0.7615
C56 C 0.3346(3) 0.55699(17) 0.29405(18)
C57 C 0.3227(3) 0.49216(17) 0.32951(17)
C58 C 0.2377(3) 0.44213(17) 0.29678(17)
H56 H 0.2270 0.3980 0.3198
C59 C 0.1691(3) 0.45270(17) 0.23370(17)
C60 C 0.1821(3) 0.51803(18) 0.19887(18)
C61 C 0.2653(3) 0.56792(19) 0.23110(19)
H57 H 0.2750 0.6124 0.2083
C62 C 0.4209(3) 0.61623(17) 0.31929(17)
C63 C 0.3934(4) 0.4722(2) 0.39741(19)
H58 H 0.4755 0.4760 0.3974
H59 H 0.3753 0.5061 0.4309
H60 H 0.3755 0.4214 0.4084
C64 C 0.0815(3) 0.39465(17) 0.20577(18)
C65 C 0.1150(4) 0.5363(2) 0.1287(2)
H61 H 0.1444 0.5824 0.1138
H62 H 0.1240 0.4961 0.0982
H63 H 0.0331 0.5422 0.1288
C66 C 0.7287(4) 0.8861(2) 0.2348(2)
H64 H 0.7506 0.8589 0.2000
C67 C 0.7393(4) 0.9994(2) 0.2975(2)
H65 H 0.6714 0.9784 0.3104
C68 C 0.8502(5) 0.9835(3) 0.2089(3)
H68 H 0.8629 0.9471 0.1759
H70 H 0.9239 0.9955 0.2394
C69 C 0.5275(4) 0.6563(3) 0.1530(2)
H71 H 0.5304 0.6510 0.1058
H72 H 0.5980 0.6358 0.1814
H73 H 0.4603 0.6296 0.1612
C70 C 0.4121(6) 0.7644(3) 0.1278(3)
H74 H 0.4055 0.7505 0.0809
H75 H 0.3459 0.7447 0.1433
H76 H 0.4133 0.8184 0.1318
Zn14 Zn 0.29848(3) 0.750191(18) 0.858700(19)
O29 O 0.9044(3) 0.76495(15) 0.29927(14)
O31 O 0.7739(2) 0.68497(14) 0.25211(13)
O34 O 0.4915(2) 0.91066(13) 0.34640(12)
O36 O 0.4127(2) 0.83426(12) 0.26337(13)
O24_2 O 0.0250(2) 0.11205(14) 0.11979(14)
O25_2 O 0.0659(3) 0.16645(14) 0.21972(14)
H52_2 H 0.1843 0.3316 0.0236
C56_2 C 0.1654(3) 0.05699(17) 0.20595(18)
C60_2 C 0.3179(3) 0.01803(18) 0.30113(18)
C61_2 C 0.2347(3) 0.06792(19) 0.26890(19)
H57_2 H 0.2250 0.1124 0.2917
C62_2 C 0.0791(3) 0.11623(17) 0.18071(17)
H59_2 H 0.1247 0.0061 0.0691
C65_2 C 0.3850(4) 0.0363(2) 0.3713(2)
H61_2 H 0.3556 0.0824 0.3862
H63_2 H 0.4669 0.0422 0.3712
H73_2 H 0.0397 0.1296 0.3388
C70_2 C 0.0879(6) 0.2644(3) 0.3722(3)
H74_2 H 0.0945 0.2505 0.4191
H75_2 H 0.1541 0.2447 0.3567
H76_2 H 0.0867 0.3184 0.3682
C57_2 C 0.1773(3) 0.99216(17) 0.17049(17)
C58_2 C 0.2623(3) 0.94213(17) 0.20322(17)
H56_2 H 0.2730 0.8980 0.1802
C59_2 C 0.3309(3) 0.95270(17) 0.26630(17)
C63_2 C 0.1066(4) 0.9722(2) 0.10259(19)
H58_2 H 0.0245 0.9760 0.1026
H60_2 H 0.1245 0.9214 0.0916
C64_2 C 0.4185(3) 0.89465(17) 0.29423(18)
H62_2 H 0.3760 0.9961 0.4018
C28_2 C 0.5738(3) 0.03026(18) 0.96523(17)
H22_2 H 0.6263 0.0519 0.9420
Zn2 Zn 0.10763(3) 0.827382(19) 0.917689(19)
O1 O 0.13493(18) 0.74905(10) 0.85890(10)
O2 O 0.0241(3) 0.67448(14) 0.97180(13)
O10 O 0.2329(2) 0.59683(13) 0.94007(13)
O11 O 0.3724(2) 0.67326(13) 0.92544(13)
O12 O 0.2325(2) 0.89796(13) 0.94677(14)
O13 O 0.3708(2) 0.83691(13) 0.91214(14)
O14 O 0.1623(3) 0.64429(15) 0.76509(17)
N1 N 0.0181(3) 0.76589(17) 0.66855(16)
H1 H 0.0785 0.7419 0.6554
N2 N 0.2712(3) 0.54701(18) 0.74704(18)
C21 C 0.4245(3) 0.55479(18) 0.97101(16)
C22_2 C 0.5239(3) 0.54440(19) 0.94723(17)
C23_2 C 0.5975(3) 0.48874(18) 0.97724(16)
H18_2 H 0.6659 0.4798 0.9619
C24 C 0.3376(3) 0.61293(19) 0.94309(16)
C25_2 C 0.5546(3) 0.5878(2) 0.89102(19)
H19_2 H 0.6128 0.5607 0.8735
H20_2 H 0.5855 0.6361 0.9078
H21 H 0.4854 0.5948 0.8552
C26 C 0.4202(3) 0.94919(17) 0.96883(16)
C27 C 0.4944(3) 0.97963(19) 0.93215(17)
C29 C 0.3346(3) 0.89037(17) 0.93967(16)
C30 C 0.4879(4) 0.9640(2) 0.85913(19)
H23_2 H 0.5603 0.9788 0.8478
H24 H 0.4239 0.9920 0.8316
H25 H 0.4752 0.9110 0.8505
C31 C 0.2287(4) 0.6139(2) 0.7348(2)
H26 H 0.2506 0.6411 0.7000
C32 C 0.2393(4) 0.5006(2) 0.7975(2)
H27 H 0.1714 0.5216 0.8104
H28 H 0.3035 0.4982 0.8369
H29 H 0.2212 0.4508 0.7795
C33 C 0.3502(5) 0.5165(3) 0.7089(3)
H30 H 0.3629 0.5529 0.6759
H31 H 0.3167 0.4715 0.6858
H32 H 0.4239 0.5045 0.7394
C34 C 0.0275(4) 0.8437(3) 0.6530(2)
H33 H 0.0304 0.8490 0.6058
H34 H 0.0980 0.8642 0.6814
O21_2 O 0.9154(2) 0.21217(14) 0.99693(12)
C50_2 C 0.9771(3) 0.2474(2) 0.80821(19)
C51_2 C 0.9450(3) 0.24668(18) 0.86878(18)
H49_2 H 0.8757 0.2217 0.8710
C52_2 C 0.9633(3) 0.27147(19) 0.98847(16)
C55_2 C 0.8970(4) 0.2137(3) 0.7477(2)
H53_2 H 0.8198 0.2082 0.7565
H54_2 H 0.8929 0.2461 0.7089
H55_2 H 0.9263 0.1651 0.7385
C1 C 0.9931(3) 0.72013(19) 0.07348(16)
C2 C 0.8912(3) 0.68082(19) 0.07599(17)
C3 C 0.8554(3) 0.68370(19) 0.13512(17)
H2 H 0.7843 0.6609 0.1369
C4 C 0.9185(3) 0.71859(19) 0.19290(16)
C8 C 0.8202(4) 0.6396(2) 0.01742(19)
H4 H 0.7423 0.6318 0.0245
H5 H 0.8562 0.5917 0.0131
C9 C 0.8621(3) 0.7220(2) 0.25188(18)
Zn1 Zn 0.39813(3) 0.156367(19) 0.601777(18)
Zn2_2 Zn 0.39237(3) 0.327382(19) 0.582311(19)
Zn3 Zn 0.46466(4) 0.24345(2) 0.73190(2)
Zn4 Zn 0.20152(3) 0.250191(18) 0.641300(19)
O1_2 O 0.36507(18) 0.24905(10) 0.64110(10)
O2_2 O 0.4759(3) 0.17448(14) 0.52820(13)
O3 O 0.4154(2) 0.28783(14) 0.49693(12)
O4 O 0.5956(3) 0.26495(15) 0.20073(14)
O5 O 0.7261(2) 0.18497(14) 0.24789(13)
O6 O 0.5250(2) 0.38795(14) 0.61979(14)
O7 O 0.5659(3) 0.33355(14) 0.71972(14)
O8 O 0.9915(2) 0.58934(13) 0.84640(12)
O9 O 0.9127(2) 0.66574(12) 0.76337(13)
O10_2 O 0.2671(2) 0.09683(13) 0.55993(13)
O11_2 O 0.1276(2) 0.17326(13) 0.57456(13)
O12_2 O 0.2675(2) 0.39796(13) 0.55323(14)
O13_2 O 0.1292(2) 0.33691(13) 0.58786(14)
O14_2 O 0.3377(3) 0.14429(15) 0.73491(17)
N1_2 N 0.4819(3) 0.26589(17) 0.83145(16)
H1_2 H 0.4215 0.2419 0.8446
N2_2 N 0.2288(3) 0.04701(18) 0.75296(18)
C1_2 C 0.5069(3) 0.22013(19) 0.42652(16)
C2_2 C 0.6088(3) 0.18082(19) 0.42401(17)
C3_2 C 0.6446(3) 0.18370(19) 0.36488(17)
H2_2 H 0.7157 0.1609 0.3631
C4_2 C 0.5815(3) 0.21859(19) 0.30710(16)
C5 C 0.4771(3) 0.2526(2) 0.30821(19)
C6 C 0.4450(3) 0.25332(18) 0.36878(18)
H3 H 0.3757 0.2783 0.3710
C7 C 0.4633(3) 0.22853(19) 0.48847(16)
C8_2 C 0.6798(4) 0.1396(2) 0.48258(19)
H4_2 H 0.7577 0.1318 0.4755
H5_2 H 0.6438 0.0917 0.4869
H6 H 0.6843 0.1684 0.5236
C9_2 C 0.6379(3) 0.2220(2) 0.24812(18)
C10 C 0.3970(4) 0.2863(3) 0.2477(2)
H7 H 0.3198 0.2918 0.2565
H8 H 0.3929 0.2539 0.2089
H9 H 0.4263 0.3349 0.2385
C11 C 0.6654(3) 0.44301(17) 0.70595(18)
C12 C 0.6773(3) 0.50784(17) 0.67049(17)
C13 C 0.7623(3) 0.55787(17) 0.70322(17)
H10 H 0.7730 0.6020 0.6802
C14 C 0.8309(3) 0.54730(17) 0.76630(17)
C15 C 0.8179(3) 0.48197(18) 0.80113(18)
C16 C 0.7347(3) 0.43208(19) 0.76890(19)
H11 H 0.7250 0.3876 0.7917
C17 C 0.5791(3) 0.38377(17) 0.68071(17)
C18 C 0.6066(4) 0.5278(2) 0.60259(19)
H12 H 0.5245 0.5240 0.6026
H13 H 0.6247 0.4939 0.5691
H14 H 0.6245 0.5786 0.5916
C19 C 0.9185(3) 0.60535(17) 0.79423(18)
C20 C 0.8850(4) 0.4637(2) 0.8713(2)
H15 H 0.8556 0.4176 0.8862
H16 H 0.8760 0.5039 0.9018
H17 H 0.9669 0.4578 0.8712
C21_2 C 0.0755(3) 0.05479(18) 0.52899(16)
C24_2 C 0.1624(3) 0.11293(19) 0.55691(16)
H21_2 H 0.0146 0.0948 0.6448
C26_2 C 0.0798(3) 0.44919(17) 0.53117(16)
C27_2 C 0.0056(3) 0.47963(19) 0.56785(17)
C29_2 C 0.1654(3) 0.39037(17) 0.56033(16)
C30_2 C 0.0121(4) 0.4640(2) 0.64087(19)
H24_2 H 0.0761 0.4920 0.6684
H25_2 H 0.0248 0.4110 0.6495
C31_2 C 0.2713(4) 0.1139(2) 0.7652(2)
H26_2 H 0.2494 0.1411 0.8000
C32_2 C 0.2607(4) 0.0006(2) 0.7025(2)
H27_2 H 0.3286 0.0216 0.6896
C33_2 C 0.1498(5) 0.0165(3) 0.7911(3)
H30_2 H 0.1371 0.0529 0.8241
H32_2 H 0.0761 0.0045 0.7606
C34_2 C 0.4725(4) 0.3437(3) 0.8470(2)
H33_2 H 0.4696 0.3490 0.8942
H34_2 H 0.4020 0.3642 0.8186
H35 H 0.5397 0.3704 0.8388
C35 C 0.5879(6) 0.2356(3) 0.8722(3)
H36 H 0.5945 0.2495 0.9191
H37 H 0.6541 0.2553 0.8567
H38 H 0.5867 0.1816 0.8682
C38 C 0.0975(3) 0.01126(18) 0.47724(16)
H39 H 0.1659 0.0202 0.4619
C43 C 0.0738(3) 0.46974(18) 0.46523(17)
H43 H 0.1263 0.4481 0.4420
H44 H 0.0603 0.5212 0.3478
Zn16 Zn 0.70152(3) 0.249809(18) 0.141300(19)
O30 O 0.0956(3) 0.23505(15) 0.70073(14)
O32 O 0.2261(2) 0.31503(14) 0.74789(13)
O33 O 0.5085(2) 0.08934(13) 0.65360(12)
O35 O 0.5873(2) 0.16574(12) 0.73663(13)
H28_2 H 0.1965 0.9982 0.6631
H29_2 H 0.2788 0.9508 0.7205
H31_2 H 0.1833 0.9715 0.8142
C37 C 0.0239(3) 0.95560(19) 0.44723(17)
C40 C 0.0546(3) 0.9122(2) 0.39102(19)
H40 H 0.1128 0.9393 0.3735
H41 H 0.0855 0.8639 0.4078
Zn10 Zn 0.89813(3) 0.343633(19) 0.101777(18)
Zn13 Zn 0.96466(4) 0.25655(2) 0.23190(2)
C46_2 C 0.0069(3) 0.27987(19) 0.92652(16)
C47_2 C 0.1088(3) 0.31918(19) 0.92401(17)
C48_2 C 0.1446(3) 0.31630(19) 0.86488(17)
H48_2 H 0.2157 0.3391 0.8631
C49_2 C 0.0815(3) 0.28141(19) 0.80710(16)
C53_2 C 0.1798(4) 0.3604(2) 0.98258(19)
H50_2 H 0.2577 0.3682 0.9755
H51_2 H 0.1438 0.4083 0.9869
C54_2 C 0.1379(3) 0.2780(2) 0.74812(18)
O17_2 O 0.7675(2) 0.10204(13) 0.05323(14)
O18_2 O 0.6292(2) 0.16309(13) 0.08786(14)
C41_2 C 0.5798(3) 0.05081(17) 0.03117(16)
C42_2 C 0.5056(3) 0.02037(19) 0.06785(17)
C44_2 C 0.6654(3) 0.10963(17) 0.06033(16)
C45_2 C 0.5121(4) 0.0360(2) 0.14087(19)
H44_2 H 0.4397 0.0212 0.1522
H45_2 H 0.5761 0.0080 0.1684
H46_2 H 0.5248 0.0890 0.1495
Zn11_2 Zn 0.89237(3) 0.172618(19) 0.082311(19)
O3_2 O 0.0846(2) 0.78783(14) 0.00307(12)
C5_2 C 0.0229(3) 0.7526(2) 0.19179(19)
C6_2 C 0.0550(3) 0.75332(18) 0.13122(18)
H3_2 H 0.1243 0.7783 0.1290
C7_2 C 0.0367(3) 0.72853(19) 0.01153(16)
C10_2 C 0.1030(4) 0.7863(3) 0.2523(2)
H7_2 H 0.1802 0.7918 0.2435
H8_2 H 0.1071 0.7539 0.2911
H9_2 H 0.0737 0.8349 0.2615
O15_2 O 0.7671(2) 0.40317(13) 0.05993(13)
O16_2 O 0.6276(2) 0.32674(13) 0.07456(13)
C36_2 C 0.5755(3) 0.44521(18) 0.02899(16)
C37_2 C 0.4761(3) 0.45560(19) 0.05277(17)
C38_2 C 0.4025(3) 0.51126(18) 0.02276(16)
H39_2 H 0.3341 0.5202 0.0381
C39_2 C 0.6624(3) 0.38707(19) 0.05691(16)
C40_2 C 0.4454(3) 0.4122(2) 0.10898(19)
H40_2 H 0.3872 0.4393 0.1265
H41_2 H 0.4145 0.3639 0.0922
H42_2 H 0.5146 0.4052 0.1448
C43_2 C 0.4262(3) 0.96974(18) 0.03477(17)
H43_2 H 0.3737 0.9481 0.0580
O19_2 O 0.86507(18) 0.25095(10) 0.14110(10)
O20_2 O 0.9759(3) 0.32552(14) 0.02820(13)
O28_2 O 0.8377(3) 0.35571(15) 0.23491(17)
N3_2 N 0.9819(3) 0.23411(17) 0.33145(16)
H47_2 H 0.9215 0.2581 0.3446
N4_2 N 0.7288(3) 0.45299(18) 0.25296(18)
C66_2 C 0.7713(4) 0.3861(2) 0.2652(2)
H64_2 H 0.7494 0.3589 0.3000
C67_2 C 0.7607(4) 0.4994(2) 0.2025(2)
H65_2 H 0.8286 0.4784 0.1896
H66_2 H 0.6965 0.5018 0.1631
H67_2 H 0.7788 0.5492 0.2205
C68_2 C 0.6498(5) 0.4835(3) 0.2911(3)
H68_2 H 0.6371 0.4471 0.3241
H69_2 H 0.6833 0.5285 0.3142
H70_2 H 0.5761 0.4955 0.2606
C69_2 C 0.9725(4) 0.1563(3) 0.3470(2)
H71_2 H 0.9696 0.1510 0.3942
H72_2 H 0.9020 0.1358 0.3186
C12_2 C 0.8227(3) 0.00784(17) 0.82951(17)
C13_2 C 0.7377(3) 0.05787(17) 0.79678(17)
H10_2 H 0.7270 0.1020 0.8198
C14_2 C 0.6691(3) 0.04730(17) 0.73370(17)
C18_2 C 0.8934(4) 0.0278(2) 0.89741(19)
H12_2 H 0.9755 0.0240 0.8974
H14_2 H 0.8755 0.0786 0.9084
C19_2 C 0.5815(3) 0.10535(17) 0.70577(18)
H16_2 H 0.6240 0.0039 0.5982
O6_2 O 0.9750(2) 0.88795(14) 0.88021(14)
O7_2 O 0.9341(3) 0.83355(14) 0.78028(14)
H6_2 H 0.8157 0.6684 0.9764
C11_2 C 0.8346(3) 0.94301(17) 0.79405(18)
C15_2 C 0.6821(3) 0.98197(18) 0.69887(18)
C16_2 C 0.7653(3) 0.93208(19) 0.73110(19)
H11_2 H 0.7750 0.8876 0.7083
C17_2 C 0.9209(3) 0.88377(17) 0.81929(17)
H13_2 H 0.8753 0.9939 0.9309
C20_2 C 0.6150(4) 0.9637(2) 0.6287(2)
H15_2 H 0.6444 0.9176 0.6138
H17_2 H 0.5331 0.9578 0.6288
H35_2 H 0.9603 0.8704 0.6612
C35_2 C 0.9121(6) 0.7356(3) 0.6278(3)
H36_2 H 0.9055 0.7495 0.5809
H37_2 H 0.8459 0.7553 0.6433
H38_2 H 0.9133 0.6816 0.6318
loop_
_geom_bond_atom_site_label_1
_geom_bond_atom_site_label_2
_geom_bond_site_symmetry_1
_geom_bond_site_symmetry_2
C25 C22 1_555 1_555
H19 C25 1_555 1_555
H20 C25 1_555 1_555
C28 H22 1_555 1_555
O17 C44 1_555 1_555
O18 C44 1_555 1_555
C41 C28 1_555 1_555
C42 C41 1_555 1_555
C44 C41 1_555 1_555
C45 C42 1_555 1_555
H45 C45 1_555 1_555
H46 C45 1_555 1_555
Zn11 O17 1_555 1_555
Zn15 O18 1_555 1_555
C23 H18 1_555 1_555
O15 C39 1_555 1_555
O16 C39 1_555 1_555
C36 C23 1_555 1_555
C39 C36 1_555 1_555
Zn5 O15 1_555 1_555
Zn11 O19 1_555 1_555
Zn7 O19 1_555 1_555
Zn15 O16 1_555 1_555
O19 Zn5 1_555 1_555
O20 Zn5 1_555 1_555
O21 Zn11 1_555 1_555
O22 C54 1_555 1_555
O23 C54 1_555 1_555
O24 Zn11 1_555 1_555
O25 Zn7 1_555 1_555
O26 C64 1_555 1_555
O27 C64 1_555 1_555
O28 Zn7 1_555 1_555
N3 Zn7 1_555 1_555
H47 N3 1_555 1_555
N4 C66 1_555 1_555
C46 C47 1_555 1_555
C47 C48 1_555 1_555
C48 H48 1_555 1_555
C49 C48 1_555 1_555
C50 C49 1_555 1_555
C51 C46 1_555 1_555
H49 C51 1_555 1_555
C52 O20 1_555 1_555
C53 C47 1_555 1_555
H50 C53 1_555 1_555
H51 C53 1_555 1_555
H52 C53 1_555 1_555
C54 C49 1_555 1_555
C55 C50 1_555 1_555
H53 C55 1_555 1_555
H54 C55 1_555 1_555
H55 C55 1_555 1_555
C56 C57 1_555 1_555
C57 C58 1_555 1_555
C58 H56 1_555 1_555
C59 C58 1_555 1_555
C60 C59 1_555 1_555
C61 C56 1_555 1_555
H57 C61 1_555 1_555
C62 O24 1_555 1_555
C63 C57 1_555 1_555
H58 C63 1_555 1_555
H59 C63 1_555 1_555
H60 C63 1_555 1_555
C64 C59 1_555 1_555
C65 C60 1_555 1_555
H61 C65 1_555 1_555
H62 C65 1_555 1_555
H63 C65 1_555 1_555
C66 O28 1_555 1_555
H64 C66 1_555 1_555
C67 N4 1_555 1_555
H65 C67 1_555 1_555
C68 N4 1_555 1_555
H68 C68 1_555 1_555
H70 C68 1_555 1_555
C69 N3 1_555 1_555
H71 C69 1_555 1_555
H72 C69 1_555 1_555
H73 C69 1_555 1_555
C70 N3 1_555 1_555
H74 C70 1_555 1_555
H75 C70 1_555 1_555
H76 C70 1_555 1_555
Zn14 O22 1_555 1_555
O29 Zn15 1_555 1_555
O31 Zn15 1_555 1_555
O34 Zn5 1_555 1_555
O36 Zn7 1_555 1_555
Zn15 O19 1_555 1_555
O21 C52 1_555 1_555
O23 Zn14 1_555 1_555
O25 C62 1_555 1_555
C46 C52 1_555 1_555
C50 C51 1_555 1_555
C56 C62 1_555 1_555
C60 C61 1_555 1_555
C61_2 C56_2 1_555 1_555
H57_2 C61_2 1_555 1_555
C62_2 O24_2 1_555 1_555
C65_2 C60_2 1_555 1_555
H61_2 C65_2 1_555 1_555
H63_2 C65_2 1_555 1_555
H74_2 C70_2 1_555 1_555
H75_2 C70_2 1_555 1_555
H76_2 C70_2 1_555 1_555
O25_2 C62_2 1_555 1_555
C56_2 C62_2 1_555 1_555
C60_2 C61_2 1_555 1_555
O34 C64_2 1_555 1_555
O36 C64_2 1_555 1_555
C57_2 C58_2 1_555 1_555
C58_2 H56_2 1_555 1_555
C59_2 C58_2 1_555 1_555
C63_2 C57_2 1_555 1_555
H58_2 C63_2 1_555 1_555
H60_2 C63_2 1_555 1_555
C64_2 C59_2 1_555 1_555
C28_2 H22_2 1_555 1_555
Zn9 O1 1_555 1_555
Zn2 O1 1_555 1_555
Zn12 O1 1_555 1_555
Zn14 O1 1_555 1_555
O2 Zn9 1_555 1_555
O10 Zn9 1_555 1_555
O11 Zn14 1_555 1_555
O12 Zn2 1_555 1_555
O13 Zn14 1_555 1_555
O14 Zn12 1_555 1_555
N1 Zn12 1_555 1_555
H1 N1 1_555 1_555
N2 C31 1_555 1_555
C21 C22_2 1_555 1_555
C22_2 C23_2 1_555 1_555
C23_2 H18_2 1_555 1_555
C24 O10 1_555 1_555
C25_2 C22_2 1_555 1_555
H19_2 C25_2 1_555 1_555
H20_2 C25_2 1_555 1_555
H21 C25_2 1_555 1_555
C26 C27 1_555 1_555
C29 O12 1_555 1_555
C30 C27 1_555 1_555
H23_2 C30 1_555 1_555
H24 C30 1_555 1_555
H25 C30 1_555 1_555
C31 O14 1_555 1_555
H26 C31 1_555 1_555
C32 N2 1_555 1_555
H27 C32 1_555 1_555
H28 C32 1_555 1_555
H29 C32 1_555 1_555
C33 N2 1_555 1_555
H30 C33 1_555 1_555
H31 C33 1_555 1_555
H32 C33 1_555 1_555
C34 N1 1_555 1_555
H33 C34 1_555 1_555
H34 C34 1_555 1_555
H49_2 C51_2 1_555 1_555
C55_2 C50_2 1_555 1_555
H53_2 C55_2 1_555 1_555
H54_2 C55_2 1_555 1_555
H55_2 C55_2 1_555 1_555
O11 C24 1_555 1_555
O13 C29 1_555 1_555
C21 C24 1_555 1_555
C26 C29 1_555 1_555
O21_2 C52_2 1_555 1_555
C50_2 C51_2 1_555 1_555
O29 C9 1_555 1_555
O31 C9 1_555 1_555
C1 C2 1_555 1_555
C2 C3 1_555 1_555
C3 H2 1_555 1_555
C4 C3 1_555 1_555
C8 C2 1_555 1_555
H4 C8 1_555 1_555
H5 C8 1_555 1_555
C9 C4 1_555 1_555
Zn1 O1_2 1_555 1_555
Zn2_2 O1_2 1_555 1_555
Zn3 O1_2 1_555 1_555
Zn4 O1_2 1_555 1_555
O2_2 Zn1 1_555 1_555
O3 Zn2_2 1_555 1_555
O4 C9_2 1_555 1_555
O5 C9_2 1_555 1_555
O6 Zn2_2 1_555 1_555
O7 Zn3 1_555 1_555
O8 C19 1_555 1_555
O9 C19 1_555 1_555
O10_2 Zn1 1_555 1_555
O11_2 Zn4 1_555 1_555
O12_2 Zn2_2 1_555 1_555
O13_2 Zn4 1_555 1_555
O14_2 Zn3 1_555 1_555
N1_2 Zn3 1_555 1_555
H1_2 N1_2 1_555 1_555
N2_2 C31_2 1_555 1_555
C1_2 C2_2 1_555 1_555
C2_2 C3_2 1_555 1_555
C3_2 H2_2 1_555 1_555
C4_2 C3_2 1_555 1_555
C5 C4_2 1_555 1_555
C6 C1_2 1_555 1_555
H3 C6 1_555 1_555
C7 O2_2 1_555 1_555
C8_2 C2_2 1_555 1_555
H4_2 C8_2 1_555 1_555
H5_2 C8_2 1_555 1_555
H6 C8_2 1_555 1_555
C9_2 C4_2 1_555 1_555
C10 C5 1_555 1_555
H7 C10 1_555 1_555
H8 C10 1_555 1_555
H9 C10 1_555 1_555
C11 C12 1_555 1_555
C12 C13 1_555 1_555
C13 H10 1_555 1_555
C14 C13 1_555 1_555
C15 C14 1_555 1_555
C16 C11 1_555 1_555
H11 C16 1_555 1_555
C17 O6 1_555 1_555
C18 C12 1_555 1_555
H12 C18 1_555 1_555
H13 C18 1_555 1_555
H14 C18 1_555 1_555
C19 C14 1_555 1_555
C20 C15 1_555 1_555
H15 C20 1_555 1_555
H16 C20 1_555 1_555
H17 C20 1_555 1_555
C24_2 O10_2 1_555 1_555
C26_2 C27_2 1_555 1_555
C29_2 O12_2 1_555 1_555
C30_2 C27_2 1_555 1_555
H24_2 C30_2 1_555 1_555
H25_2 C30_2 1_555 1_555
C31_2 O14_2 1_555 1_555
H26_2 C31_2 1_555 1_555
C32_2 N2_2 1_555 1_555
H27_2 C32_2 1_555 1_555
C33_2 N2_2 1_555 1_555
H30_2 C33_2 1_555 1_555
H32_2 C33_2 1_555 1_555
C34_2 N1_2 1_555 1_555
H33_2 C34_2 1_555 1_555
H34_2 C34_2 1_555 1_555
H35 C34_2 1_555 1_555
C35 N1_2 1_555 1_555
H36 C35 1_555 1_555
H37 C35 1_555 1_555
H38 C35 1_555 1_555
C38 C21_2 1_555 1_555
H39 C38 1_555 1_555
C43 C26_2 1_555 1_555
H43 C43 1_555 1_555
Zn16 O4 1_555 1_555
O30 Zn4 1_555 1_555
O32 Zn4 1_555 1_555
O33 Zn1 1_555 1_555
O35 Zn3 1_555 1_555
O3 C7 1_555 1_555
O5 Zn16 1_555 1_555
O7 C17 1_555 1_555
O11_2 C24_2 1_555 1_555
O13_2 C29_2 1_555 1_555
C1_2 C7 1_555 1_555
C5 C6 1_555 1_555
C11 C17 1_555 1_555
C15 C16 1_555 1_555
C21_2 C24_2 1_555 1_555
C26_2 C29_2 1_555 1_555
C40 C37 1_555 1_555
H40 C40 1_555 1_555
H41 C40 1_555 1_555
O30 C54_2 1_555 1_555
O32 C54_2 1_555 1_555
C46_2 C47_2 1_555 1_555
C47_2 C48_2 1_555 1_555
C48_2 H48_2 1_555 1_555
C49_2 C48_2 1_555 1_555
C53_2 C47_2 1_555 1_555
H50_2 C53_2 1_555 1_555
H51_2 C53_2 1_555 1_555
C54_2 C49_2 1_555 1_555
O17_2 C44_2 1_555 1_555
O18_2 C44_2 1_555 1_555
C42_2 C41_2 1_555 1_555
C44_2 C41_2 1_555 1_555
C45_2 C42_2 1_555 1_555
H44_2 C45_2 1_555 1_555
H45_2 C45_2 1_555 1_555
H46_2 C45_2 1_555 1_555
Zn11_2 O17_2 1_555 1_555
Zn16 O18_2 1_555 1_555
H3_2 C6_2 1_555 1_555
C10_2 C5_2 1_555 1_555
H7_2 C10_2 1_555 1_555
H8_2 C10_2 1_555 1_555
H9_2 C10_2 1_555 1_555
O15_2 C39_2 1_555 1_555
O16_2 C39_2 1_555 1_555
C37_2 C36_2 1_555 1_555
H39_2 C38_2 1_555 1_555
C39_2 C36_2 1_555 1_555
C40_2 C37_2 1_555 1_555
H40_2 C40_2 1_555 1_555
H41_2 C40_2 1_555 1_555
H42_2 C40_2 1_555 1_555
H43_2 C43_2 1_555 1_555
Zn10 O15_2 1_555 1_555
Zn11_2 O19_2 1_555 1_555
Zn13 O19_2 1_555 1_555
Zn16 O16_2 1_555 1_555
O19_2 Zn10 1_555 1_555
O20_2 Zn10 1_555 1_555
O28_2 Zn13 1_555 1_555
N3_2 Zn13 1_555 1_555
H47_2 N3_2 1_555 1_555
N4_2 C66_2 1_555 1_555
C66_2 O28_2 1_555 1_555
H64_2 C66_2 1_555 1_555
C67_2 N4_2 1_555 1_555
H65_2 C67_2 1_555 1_555
H66_2 C67_2 1_555 1_555
H67_2 C67_2 1_555 1_555
C68_2 N4_2 1_555 1_555
H68_2 C68_2 1_555 1_555
H69_2 C68_2 1_555 1_555
H70_2 C68_2 1_555 1_555
C69_2 N3_2 1_555 1_555
H71_2 C69_2 1_555 1_555
H72_2 C69_2 1_555 1_555
O3_2 C7_2 1_555 1_555
C5_2 C6_2 1_555 1_555
C37_2 C38_2 1_555 1_555
Zn16 O19_2 1_555 1_555
O33 C19_2 1_555 1_555
O35 C19_2 1_555 1_555
C12_2 C13_2 1_555 1_555
C13_2 H10_2 1_555 1_555
C14_2 C13_2 1_555 1_555
C18_2 C12_2 1_555 1_555
H12_2 C18_2 1_555 1_555
H14_2 C18_2 1_555 1_555
C19_2 C14_2 1_555 1_555
C16_2 C11_2 1_555 1_555
H11_2 C16_2 1_555 1_555
C17_2 O6_2 1_555 1_555
C20_2 C15_2 1_555 1_555
H15_2 C20_2 1_555 1_555
H17_2 C20_2 1_555 1_555
H36_2 C35_2 1_555 1_555
H37_2 C35_2 1_555 1_555
H38_2 C35_2 1_555 1_555
O7_2 C17_2 1_555 1_555
C11_2 C17_2 1_555 1_555
C15_2 C16_2 1_555 1_555

#END
