
###############################################################################
#
# This file contains modified crystal structure data generated from the
# MOF subset of the Cambridge Structural Database (CSD) v543 
# hosted by the Cambridge Crystallographic Data Centre (CCDC).
#
# This work is licensed under the Creative Commons
# Attribution-NonCommercial-ShareAlike 4.0 International License.
# To view a copy of this license, visit
# http://creativecommons.org/licenses/by-nc-sa/4.0/
# or send a letter to
# Creative Commons, PO Box 1866, Mountain View, CA 94042, USA.
#
# CIF created using the CSD Python API on 29 September 2022
# The structure has been converted into the P1 space group
# The structure has a 3D framework
# The original CSD entry UMECUN is in the monoclinic crystal system
# The framework has been calculated to contain at least 10.0% void space
# The void calculation uses a probe of radius 1.32A, grid spacing 0.4
#
###############################################################################

data_UMECUN
_chemical_formula_moiety         '(C56 H36 N4 O14)n'
_symmetry_cell_setting           triclinic
_symmetry_space_group_name_H-M   'P 1'
_symmetry_Int_Tables_number      1
_space_group_name_Hall           'P 1'
loop_
_symmetry_equiv_pos_site_id
_symmetry_equiv_pos_as_xyz
1 x,y,z
_cell_length_a                   10.5718(2)
_cell_length_b                   10.8997(2)
_cell_length_c                   14.4162(3)
_cell_angle_alpha                90
_cell_angle_beta                 107.242(2)
_cell_angle_gamma                90
_cell_volume                     1586.52
loop_
_atom_site_label
_atom_site_type_symbol
_atom_site_fract_x
_atom_site_fract_y
_atom_site_fract_z
H8 H 0.028842 0.151133 0.544325
O1 O 0.02757(19) 0.32569(19) 0.43316(14)
O2 O 0.1934(2) 0.46376(19) 0.45922(15)
O4 O 0.0282(2) 0.10700(19) 0.12445(15)
N1 N 0.7834(2) 0.2483(2) 0.49652(16)
C1 C 0.2136(3) 0.2758(2) 0.38398(19)
C2 C 0.3517(3) 0.2653(2) 0.42138(19)
H1 H 0.397779 0.314737 0.472878
C3 C 0.4199(3) 0.1810(3) 0.38168(19)
C4 C 0.3496(3) 0.1101(3) 0.3016(2)
H2 H 0.394237 0.052802 0.275099
C5 C 0.2132(3) 0.1254(3) 0.26150(19)
C6 C 0.1455(3) 0.2064(3) 0.30464(19)
H3 H 0.054011 0.213755 0.279919
C7 C 0.1399(3) 0.3622(2) 0.42936(18)
C8 C 0.1396(2) 0.0620(3) 0.16837(18)
C9 C 0.5647(3) 0.1627(3) 0.42623(19)
C10 C 0.6530(3) 0.2605(3) 0.4517(2)
H4 H 0.619653 0.339323 0.436607
C11 C 0.8304(3) 0.1334(3) 0.5220(2)
C12 C 0.7496(3) 0.0314(3) 0.4960(2)
C13 C 0.6166(3) 0.0449(3) 0.4464(2)
C14 C 0.9732(3) 0.1184(3) 0.5802(3)
H7 H 0.992464 0.032936 0.592897
H9 H 0.989448 0.161700 0.640643
Cu2 Cu 0.90587(3) 0.41278(3) 0.49133(3)
Cu4 Cu 0.09413(3) 0.58722(3) 0.50867(3)
O7 O 0.0282(2) 0.39300(19) 0.62445(15)
O3 O 0.1936(2) 0.97234(19) 0.14007(15)
H5 H 0.784907 0.953345 0.512004
H6 H 0.562748 0.976420 0.426748
Cu3 Cu 0.09413(3) 0.91278(3) 0.00867(3)
O5 O 0.8066(2) 0.53624(19) 0.54078(15)
O6 O 0.8064(2) 0.47234(19) 0.35993(15)
Cu5 Cu 0.90587(3) 0.08722(3) 0.99133(3)
O5_2 O 0.1934(2) 0.03624(19) 0.95922(15)
N2 N 0.2166(2) 0.7483(2) 0.00348(16)
O1_2 O 0.97243(19) 0.82569(19) 0.06684(14)
O2_2 O 0.8066(2) 0.96376(19) 0.04078(15)
O4_2 O 0.9718(2) 0.60700(19) 0.37555(15)
C1_2 C 0.7864(3) 0.7758(2) 0.11602(19)
C2_2 C 0.6483(3) 0.7653(2) 0.07862(19)
H1_2 H 0.602221 0.814737 0.027122
C3_2 C 0.5801(3) 0.6810(3) 0.11832(19)
C4_2 C 0.6504(3) 0.6101(3) 0.1984(2)
H2_2 H 0.605763 0.552802 0.224901
C5_2 C 0.7868(3) 0.6254(3) 0.23850(19)
C6_2 C 0.8545(3) 0.7064(3) 0.19536(19)
H3_2 H 0.945989 0.713755 0.220081
C7_2 C 0.8601(3) 0.8622(2) 0.07064(18)
C8_2 C 0.8604(2) 0.5620(3) 0.33163(18)
C9_2 C 0.4353(3) 0.6627(3) 0.07377(19)
C10_2 C 0.3470(3) 0.7605(3) 0.0483(2)
H4_2 H 0.380347 0.839323 0.063393
C12_2 C 0.2504(3) 0.5314(3) 0.0040(2)
C13_2 C 0.3834(3) 0.5449(3) 0.0536(2)
H6_2 H 0.437252 0.476420 0.073252
C11_2 C 0.1696(3) 0.6334(3) 0.9780(2)
H5_2 H 0.215093 0.453345 0.987996
C14_2 C 0.0268(3) 0.6184(3) 0.9198(3)
H7_2 H 0.007536 0.532936 0.907103
H9_2 H 0.010552 0.661700 0.859357
O7_2 O 0.9718(2) 0.89300(19) 0.87555(15)
O6_2 O 0.1936(2) 0.52766(19) 0.64007(15)
N2_2 N 0.2166(2) 0.7517(2) 0.50348(16)
O3_2 O 0.8064(2) 0.02766(19) 0.85993(15)
H5_3 H 0.215093 0.046655 0.487996
H6_3 H 0.437252 0.023580 0.573252
O1_3 O 0.97243(19) 0.67431(19) 0.56684(14)
C1_3 C 0.7864(3) 0.7242(2) 0.61602(19)
C2_3 C 0.6483(3) 0.7347(2) 0.57862(19)
H1_3 H 0.602221 0.685263 0.527122
C3_3 C 0.5801(3) 0.8190(3) 0.61832(19)
C4_3 C 0.6504(3) 0.8899(3) 0.6984(2)
H2_3 H 0.605763 0.947198 0.724901
C5_3 C 0.7868(3) 0.8746(3) 0.73850(19)
C6_3 C 0.8545(3) 0.7936(3) 0.69536(19)
H3_3 H 0.945989 0.786245 0.720081
C7_3 C 0.8601(3) 0.6378(2) 0.57064(18)
C8_3 C 0.8604(2) 0.9380(3) 0.83163(18)
C9_3 C 0.4353(3) 0.8373(3) 0.57377(19)
C10_3 C 0.3470(3) 0.7395(3) 0.5483(2)
H4_3 H 0.380347 0.660677 0.563393
C11_3 C 0.1696(3) 0.8666(3) 0.4780(2)
C12_3 C 0.2504(3) 0.9686(3) 0.5040(2)
C13_3 C 0.3834(3) 0.9551(3) 0.5536(2)
C14_3 C 0.0268(3) 0.8816(3) 0.4198(3)
H7_3 H 0.007536 0.967064 0.407103
H9_3 H 0.010552 0.838300 0.359357
C11_4 C 0.8304(3) 0.3666(3) 0.0220(2)
H5_4 H 0.784907 0.546655 0.012004
C14_4 C 0.9732(3) 0.3816(3) 0.0802(3)
H7_4 H 0.992464 0.467064 0.092897
H9_4 H 0.989448 0.338300 0.140643
O1_4 O 0.02757(19) 0.17431(19) 0.93316(14)
N1_2 N 0.7834(2) 0.2517(2) 0.99652(16)
C1_4 C 0.2136(3) 0.2242(2) 0.88398(19)
C2_4 C 0.3517(3) 0.2347(2) 0.92138(19)
H1_4 H 0.397779 0.185263 0.972878
C3_4 C 0.4199(3) 0.3190(3) 0.88168(19)
C4_4 C 0.3496(3) 0.3899(3) 0.8016(2)
H2_4 H 0.394237 0.447198 0.775099
C5_4 C 0.2132(3) 0.3746(3) 0.76150(19)
C6_4 C 0.1455(3) 0.2936(3) 0.80464(19)
H3_4 H 0.054011 0.286245 0.779919
C7_4 C 0.1399(3) 0.1378(2) 0.92936(18)
C8_4 C 0.1396(2) 0.4380(3) 0.66837(18)
C9_4 C 0.5647(3) 0.3373(3) 0.92623(19)
C10_4 C 0.6530(3) 0.2395(3) 0.9517(2)
H4_4 H 0.619653 0.160677 0.936607
C12_4 C 0.7496(3) 0.4686(3) 0.9960(2)
C13_4 C 0.6166(3) 0.4551(3) 0.9464(2)
H6_4 H 0.562748 0.523580 0.926748
H8_2 H 0.971158 0.651133 0.955675
H8_3 H 0.971158 0.848867 0.455675
H8_4 H 0.028842 0.348867 0.044325
loop_
_geom_bond_atom_site_label_1
_geom_bond_atom_site_label_2
_geom_bond_site_symmetry_1
_geom_bond_site_symmetry_2
O1 C7 1_555 1_555
O2 C7 1_555 1_555
O4 C8 1_555 1_555
N1 C10 1_555 1_555
C1 C2 1_555 1_555
C2 H1 1_555 1_555
C3 C2 1_555 1_555
C4 C3 1_555 1_555
H2 C4 1_555 1_555
C5 C4 1_555 1_555
C6 C1 1_555 1_555
H3 C6 1_555 1_555
C7 C1 1_555 1_555
C8 C5 1_555 1_555
C9 C3 1_555 1_555
C10 C9 1_555 1_555
H4 C10 1_555 1_555
C11 N1 1_555 1_555
C12 C11 1_555 1_555
C13 C9 1_555 1_555
C14 C11 1_555 1_555
H7 C14 1_555 1_555
H9 C14 1_555 1_555
Cu2 N1 1_555 1_555
Cu4 O2 1_555 1_555
C5 C6 1_555 1_555
C12 C13 1_555 1_555
Cu3 O3 1_555 1_555
O5 Cu2 1_555 1_555
O6 Cu2 1_555 1_555
N2 Cu3 1_555 1_555
O1_2 C7_2 1_555 1_555
O2_2 C7_2 1_555 1_555
O6 C8_2 1_555 1_555
O4_2 C8_2 1_555 1_555
N2 C10_2 1_555 1_555
C1_2 C2_2 1_555 1_555
C2_2 H1_2 1_555 1_555
C3_2 C2_2 1_555 1_555
C4_2 C3_2 1_555 1_555
H2_2 C4_2 1_555 1_555
C5_2 C4_2 1_555 1_555
C6_2 C1_2 1_555 1_555
H3_2 C6_2 1_555 1_555
C7_2 C1_2 1_555 1_555
C8_2 C5_2 1_555 1_555
C9_2 C3_2 1_555 1_555
C10_2 C9_2 1_555 1_555
H4_2 C10_2 1_555 1_555
C13_2 C9_2 1_555 1_555
H6_2 C13_2 1_555 1_555
C5_2 C6_2 1_555 1_555
C12_2 C13_2 1_555 1_555
C14_2 C11_2 1_555 1_555
H7_2 C14_2 1_555 1_555
H9_2 C14_2 1_555 1_555
O6_2 Cu4 1_555 1_555
N2_2 Cu4 1_555 1_555
Cu5 O3_2 1_555 1_555
O1_3 C7_3 1_555 1_555
O5 C7_3 1_555 1_555
O7_2 C8_3 1_555 1_555
N2_2 C10_3 1_555 1_555
C1_3 C2_3 1_555 1_555
C2_3 H1_3 1_555 1_555
C3_3 C2_3 1_555 1_555
C4_3 C3_3 1_555 1_555
H2_3 C4_3 1_555 1_555
C5_3 C4_3 1_555 1_555
C6_3 C1_3 1_555 1_555
H3_3 C6_3 1_555 1_555
C7_3 C1_3 1_555 1_555
C8_3 C5_3 1_555 1_555
C9_3 C3_3 1_555 1_555
C10_3 C9_3 1_555 1_555
H4_3 C10_3 1_555 1_555
C11_3 N2_2 1_555 1_555
C12_3 C11_3 1_555 1_555
C13_3 C9_3 1_555 1_555
C14_3 C11_3 1_555 1_555
H7_3 C14_3 1_555 1_555
H9_3 C14_3 1_555 1_555
C5_3 C6_3 1_555 1_555
C12_3 C13_3 1_555 1_555
C14_4 C11_4 1_555 1_555
H7_4 C14_4 1_555 1_555
H9_4 C14_4 1_555 1_555
O1_4 C7_4 1_555 1_555
O5_2 C7_4 1_555 1_555
O6_2 C8_4 1_555 1_555
O7 C8_4 1_555 1_555
N1_2 C10_4 1_555 1_555
C1_4 C2_4 1_555 1_555
C2_4 H1_4 1_555 1_555
C3_4 C2_4 1_555 1_555
C4_4 C3_4 1_555 1_555
H2_4 C4_4 1_555 1_555
C5_4 C4_4 1_555 1_555
C6_4 C1_4 1_555 1_555
H3_4 C6_4 1_555 1_555
C7_4 C1_4 1_555 1_555
C8_4 C5_4 1_555 1_555
C9_4 C3_4 1_555 1_555
C10_4 C9_4 1_555 1_555
H4_4 C10_4 1_555 1_555
C13_4 C9_4 1_555 1_555
H6_4 C13_4 1_555 1_555
Cu5 N1_2 1_555 1_555
C5_4 C6_4 1_555 1_555
C12_4 C13_4 1_555 1_555

#END
