
###############################################################################
#
# This file contains modified crystal structure data generated from the
# MOF subset of the Cambridge Structural Database (CSD) v543 
# hosted by the Cambridge Crystallographic Data Centre (CCDC).
#
# This work is licensed under the Creative Commons
# Attribution-NonCommercial-ShareAlike 4.0 International License.
# To view a copy of this license, visit
# http://creativecommons.org/licenses/by-nc-sa/4.0/
# or send a letter to
# Creative Commons, PO Box 1866, Mountain View, CA 94042, USA.
#
# CIF created using the CSD Python API on 29 September 2022
# The structure has been converted into the P1 space group
# The structure has a 3D framework
# The original CSD entry UMEFAW is in the rhombohedral crystal system
# The framework has been calculated to contain at least 10.0% void space
# The void calculation uses a probe of radius 1.32A, grid spacing 0.4
#
###############################################################################

data_UMEFAW
_chemical_formula_moiety         '(C504 H324 Cu36 N36 O144)n'
_symmetry_cell_setting           triclinic
_symmetry_space_group_name_H-M   'P 1'
_symmetry_Int_Tables_number      1
_space_group_name_Hall           'P 1'
loop_
_symmetry_equiv_pos_site_id
_symmetry_equiv_pos_as_xyz
1 x,y,z
_cell_length_a                   18.7311(2)
_cell_length_b                   18.7311(2)
_cell_length_c                   56.7460(16)
_cell_angle_alpha                90
_cell_angle_beta                 90
_cell_angle_gamma                120
_cell_volume                     17242.2
loop_
_atom_site_label
_atom_site_type_symbol
_atom_site_fract_x
_atom_site_fract_y
_atom_site_fract_z
Cu1 Cu 0.50496(2) 0.04505(2) 0.23037(2)
O1 O 0.46954(16) 0.11444(13) 0.24583(4)
O2 O 0.42252(16) 0.03496(13) 0.27790(4)
O3 O 0.49438(16) 0.38722(13) 0.24622(4)
O4 O 0.46172(17) 0.42806(14) 0.27953(4)
C1 C 0.4100(2) 0.15404(18) 0.27568(5)
C2 C 0.4451(2) 0.23339(18) 0.26651(5)
H1 H 0.482557 0.249187 0.254131
C3 C 0.4242(2) 0.28895(18) 0.27588(5)
C4 C 0.3654(2) 0.26400(19) 0.29367(5)
H2 H 0.351233 0.301218 0.299882
C5 C 0.3274(2) 0.18328(19) 0.30226(5)
C6 C 0.3515(2) 0.12947(18) 0.29360(5)
H3 H 0.328520 0.076533 0.299788
C7 C 0.43623(18) 0.09641(17) 0.26582(5)
C8 C 0.46387(19) 0.37497(18) 0.26644(5)
C9 C 0.2627(2) 0.15775(19) 0.32101(5)
C10 C 0.1822(2) 0.1370(3) 0.31620(7)
C11 C 0.1285(2) 0.1165(4) 0.33522(7)
H4 H 0.073616 0.100905 0.332656
C12 C 0.1564(2) 0.1191(3) 0.35773(6)
H5 H 0.119744 0.106767 0.370178
N1 N 0.23332(16) 0.13846(16) 0.36249(4)
C13 C 0.28464(18) 0.15704(19) 0.34418(6)
H6 H 0.338673 0.170373 0.347276
C14 C 0.1523(4) 0.1378(6) 0.29125(9)
H7 H 0.094921 0.121559 0.291653
H8 H 0.183403 0.192298 0.284802
H9 H 0.159746 0.099909 0.281586
Cu2 Cu 0.54009(3) 0.49504(2) 0.23037(2)
Cu4 Cu 0.49504(2) 0.54009(3) 0.26963(2)
Cu5 Cu 0.28828(2) 0.16171(2) 0.39704(2)
O6 O 0.61278(13) 0.10716(21) 0.24622(4)
N2 N 0.52821(16) 0.10001(16) 0.19582(4)
Cu3 Cu 0.45991(3) 0.95495(2) 0.26963(2)
O5 O 0.38756(21) 0.96504(13) 0.22210(4)
O7 O 0.53828(17) 0.96634(22) 0.22047(4)
Cu3_2 Cu 0.04505(2) 0.50496(4) 0.26963(2)
O5_2 O 0.03496(13) 0.42252(25) 0.22210(4)
O7_2 O 0.03366(22) 0.57194(28) 0.22047(4)
Cu1_2 Cu 0.95495(2) 0.45991(3) 0.23037(2)
O1_2 O 0.88556(13) 0.35510(21) 0.24583(4)
O2_2 O 0.96504(13) 0.38756(21) 0.27790(4)
O4_2 O 0.57194(14) 0.03366(22) 0.27953(4)
C1_2 C 0.84596(18) 0.25596(27) 0.27568(5)
C2_2 C 0.76661(18) 0.21171(27) 0.26651(5)
H1_2 H 0.750813 0.233370 0.254131
C3_2 C 0.71105(18) 0.13525(27) 0.27588(5)
C4_2 C 0.73600(19) 0.10140(28) 0.29367(5)
H2_2 H 0.698782 0.050015 0.299882
C5_2 C 0.81672(19) 0.14412(28) 0.30226(5)
C6_2 C 0.87053(18) 0.22203(27) 0.29360(5)
H3_2 H 0.923467 0.251987 0.299788
C7_2 C 0.90359(17) 0.33982(25) 0.26582(5)
C8_2 C 0.62503(18) 0.08890(26) 0.26644(5)
C9_2 C 0.84225(19) 0.10495(28) 0.32101(5)
C10_2 C 0.8630(3) 0.0452(4) 0.31620(7)
C11_2 C 0.8835(4) 0.0120(4) 0.33522(7)
C12_2 C 0.8809(3) 0.0373(4) 0.35773(6)
H5_2 H 0.893233 0.012977 0.370178
N1_2 N 0.86154(16) 0.09486(23) 0.36249(4)
C13_2 C 0.84296(19) 0.12760(26) 0.34418(6)
H6_2 H 0.829627 0.168300 0.347276
C14_2 C 0.8622(6) 0.0145(7) 0.29125(9)
H9_2 H 0.900091 0.059837 0.281586
Cu5_2 Cu 0.83829(2) 0.12658(3) 0.39704(2)
O6_2 O 0.89284(21) 0.50562(25) 0.24622(4)
N2_2 N 0.89999(16) 0.42819(23) 0.19582(4)
H4_2 H 0.899095 0.972711 0.332656
H7_2 H 0.878441 0.973362 0.291653
H8_2 H 0.807702 0.991105 0.284802
H4_3 H 0.027289 0.926384 0.332656
H7_3 H 0.026638 0.905079 0.291653
H8_3 H 0.008895 0.816597 0.284802
O1_3 O 0.64490(21) 0.53046(16) 0.24583(4)
O2_3 O 0.61244(21) 0.57748(16) 0.27790(4)
O4_3 O 0.96634(22) 0.53828(17) 0.27953(4)
C1_3 C 0.74404(27) 0.5900(2) 0.27568(5)
C2_3 C 0.78829(27) 0.5549(2) 0.26651(5)
H1_3 H 0.766630 0.517443 0.254131
C3_3 C 0.86475(27) 0.5758(2) 0.27588(5)
C4_3 C 0.89860(28) 0.6346(2) 0.29367(5)
H2_3 H 0.949985 0.648767 0.299882
C5_3 C 0.85588(28) 0.6726(2) 0.30226(5)
C6_3 C 0.77797(27) 0.6485(2) 0.29360(5)
H3_3 H 0.748013 0.671480 0.299788
C7_3 C 0.66018(25) 0.56377(18) 0.26582(5)
C8_3 C 0.91110(26) 0.53613(19) 0.26644(5)
C9_3 C 0.89505(28) 0.7373(2) 0.32101(5)
C10_3 C 0.9548(4) 0.8178(2) 0.31620(7)
C11_3 C 0.9880(4) 0.8715(2) 0.33522(7)
C12_3 C 0.9627(4) 0.8436(2) 0.35773(6)
H5_3 H 0.987023 0.880256 0.370178
N1_3 N 0.90514(23) 0.76668(16) 0.36249(4)
C13_3 C 0.87240(26) 0.71536(18) 0.34418(6)
H6_3 H 0.831700 0.661327 0.347276
C14_3 C 0.9855(7) 0.8477(4) 0.29125(9)
H9_3 H 0.940163 0.840254 0.281586
Cu5_3 Cu 0.87342(3) 0.71172(2) 0.39704(2)
O5_3 O 0.57748(25) 0.61244(21) 0.22210(4)
O7_3 O 0.42806(28) 0.46172(17) 0.22047(4)
N2_3 N 0.57181(23) 0.47179(16) 0.19582(4)
O1_4 O 0.11444(13) 0.46954(16) 0.25417(4)
O3_2 O 0.38722(13) 0.49438(16) 0.25378(4)
C1_4 C 0.15404(18) 0.4100(2) 0.22432(5)
C2_4 C 0.23339(18) 0.4451(2) 0.23349(5)
H1_4 H 0.249187 0.482557 0.245869
C3_4 C 0.28895(18) 0.4242(2) 0.22412(5)
C4_4 C 0.26400(19) 0.3654(2) 0.20633(5)
H2_4 H 0.301218 0.351233 0.200118
C5_4 C 0.18328(19) 0.3274(2) 0.19774(5)
C6_4 C 0.12947(18) 0.3515(2) 0.20640(5)
H3_4 H 0.076533 0.328520 0.200212
C7_4 C 0.09641(17) 0.43623(18) 0.23418(5)
C8_4 C 0.37497(18) 0.46387(19) 0.23356(5)
C9_4 C 0.15775(19) 0.2627(2) 0.17899(5)
C10_4 C 0.1370(3) 0.1822(2) 0.18380(7)
C11_4 C 0.1165(4) 0.1285(2) 0.16478(7)
H4_4 H 0.100905 0.073616 0.167344
C12_4 C 0.1191(3) 0.1564(2) 0.14227(6)
H5_4 H 0.106767 0.119744 0.129822
N1_4 N 0.13846(16) 0.23332(16) 0.13751(4)
C13_4 C 0.15704(19) 0.28464(18) 0.15582(6)
H6_4 H 0.170373 0.338673 0.152724
C14_4 C 0.1378(6) 0.1523(4) 0.20875(9)
H7_4 H 0.121559 0.094921 0.208347
H8_4 H 0.192298 0.183403 0.215198
H9_4 H 0.099909 0.159746 0.218414
Cu5_4 Cu 0.16171(2) 0.28828(2) 0.10296(2)
O6_3 O 0.10716(21) 0.61278(13) 0.25378(4)
N2_4 N 0.10001(16) 0.52821(16) 0.30418(4)
O1_5 O 0.35510(21) 0.88556(13) 0.25417(4)
C1_5 C 0.25596(27) 0.84596(18) 0.22432(5)
C2_5 C 0.21171(27) 0.76661(18) 0.23349(5)
H1_5 H 0.233370 0.750813 0.245869
C3_5 C 0.13525(27) 0.71105(18) 0.22412(5)
C4_5 C 0.10140(28) 0.73600(19) 0.20633(5)
H2_5 H 0.050015 0.698782 0.200118
C5_5 C 0.14412(28) 0.81672(19) 0.19774(5)
C6_5 C 0.22203(27) 0.87053(18) 0.20640(5)
H3_5 H 0.251987 0.923467 0.200212
C7_5 C 0.33982(25) 0.90359(17) 0.23418(5)
C8_5 C 0.08890(26) 0.62503(18) 0.23356(5)
C9_5 C 0.10495(28) 0.84225(19) 0.17899(5)
C10_5 C 0.0452(4) 0.8630(3) 0.18380(7)
C11_5 C 0.0120(4) 0.8835(4) 0.16478(7)
C12_5 C 0.0373(4) 0.8809(3) 0.14227(6)
H5_5 H 0.012977 0.893233 0.129822
N1_5 N 0.09486(23) 0.86154(16) 0.13751(4)
C13_5 C 0.12760(26) 0.84296(19) 0.15582(6)
H6_5 H 0.168300 0.829627 0.152724
C14_5 C 0.0145(7) 0.8622(6) 0.20875(9)
H9_5 H 0.059837 0.900091 0.218414
Cu5_5 Cu 0.12658(3) 0.83829(2) 0.10296(2)
O6_4 O 0.50562(25) 0.89284(21) 0.25378(4)
N2_5 N 0.42819(23) 0.89999(16) 0.30418(4)
H4_5 H 0.972711 0.899095 0.167344
H7_5 H 0.973362 0.878441 0.208347
H8_5 H 0.991105 0.807702 0.215198
H4_6 H 0.926384 0.027289 0.167344
H7_6 H 0.905079 0.026638 0.208347
H8_6 H 0.816597 0.008895 0.215198
O1_6 O 0.53046(16) 0.64490(21) 0.25417(4)
C1_6 C 0.5900(2) 0.74404(27) 0.22432(5)
C2_6 C 0.5549(2) 0.78829(27) 0.23349(5)
H1_6 H 0.517443 0.766630 0.245869
C3_6 C 0.5758(2) 0.86475(27) 0.22412(5)
C4_6 C 0.6346(2) 0.89860(28) 0.20633(5)
H2_6 H 0.648767 0.949985 0.200118
C5_6 C 0.6726(2) 0.85588(28) 0.19774(5)
C6_6 C 0.6485(2) 0.77797(27) 0.20640(5)
H3_6 H 0.671480 0.748013 0.200212
C7_6 C 0.56377(18) 0.66018(25) 0.23418(5)
C8_6 C 0.53613(19) 0.91110(26) 0.23356(5)
C9_6 C 0.7373(2) 0.89505(28) 0.17899(5)
C10_6 C 0.8178(2) 0.9548(4) 0.18380(7)
C11_6 C 0.8715(2) 0.9880(4) 0.16478(7)
C12_6 C 0.8436(2) 0.9627(4) 0.14227(6)
H5_6 H 0.880256 0.987023 0.129822
N1_6 N 0.76668(16) 0.90514(23) 0.13751(4)
C13_6 C 0.71536(18) 0.87240(26) 0.15582(6)
H6_6 H 0.661327 0.831700 0.152724
C14_6 C 0.8477(4) 0.9855(7) 0.20875(9)
H9_6 H 0.840254 0.940163 0.218414
Cu5_6 Cu 0.71172(2) 0.87342(3) 0.10296(2)
N2_6 N 0.47179(16) 0.57181(23) 0.30418(4)
Cu1_3 Cu 0.17163(2) 0.37838(2) 0.56370(2)
O1_7 O 0.13621(16) 0.44777(13) 0.57916(4)
O2_4 O 0.08919(16) 0.36829(13) 0.61123(4)
O3_3 O 0.16105(16) 0.72055(13) 0.57955(4)
O4_4 O 0.12839(17) 0.76139(14) 0.61286(4)
C1_7 C 0.0767(2) 0.48737(18) 0.60901(5)
C2_7 C 0.1118(2) 0.56672(18) 0.59984(5)
H1_7 H 0.149224 0.582520 0.587464
C3_7 C 0.0909(2) 0.62228(18) 0.60921(5)
C4_7 C 0.0321(2) 0.59733(19) 0.62700(5)
H2_7 H 0.017900 0.634551 0.633215
C6_7 C 0.0182(2) 0.46280(18) 0.62693(5)
C7_7 C 0.10290(18) 0.42974(17) 0.59915(5)
C8_7 C 0.13054(19) 0.70830(18) 0.59977(5)
H6_7 H 0.005340 0.503706 0.680609
Cu2_2 Cu 0.20676(3) 0.82837(2) 0.56370(2)
Cu3_3 Cu 0.12658(3) 0.28828(2) 0.60296(2)
Cu4_2 Cu 0.16171(2) 0.87342(3) 0.60296(2)
O5_4 O 0.05423(21) 0.29837(13) 0.55543(4)
O6_5 O 0.27945(13) 0.44049(21) 0.57955(4)
O7_4 O 0.20495(17) 0.29967(22) 0.55380(4)
N2_7 N 0.19487(16) 0.43335(16) 0.52916(4)
C5_7 C 0.9941(2) 0.51661(19) 0.63559(5)
H3_7 H 0.995187 0.409866 0.633121
C9_7 C 0.9294(2) 0.49108(19) 0.65434(5)
C10_7 C 0.8489(2) 0.4703(3) 0.64953(7)
C11_7 C 0.7952(2) 0.4498(4) 0.66855(7)
H4_7 H 0.740283 0.434238 0.665989
C12_7 C 0.8231(2) 0.4524(3) 0.69106(6)
H5_7 H 0.786411 0.440100 0.703511
N1_7 N 0.89999(16) 0.47179(16) 0.69582(4)
C13_7 C 0.95131(18) 0.49037(19) 0.67751(6)
C14_7 C 0.8190(4) 0.4711(6) 0.62458(9)
H7_7 H 0.761588 0.454892 0.624986
H8_7 H 0.850070 0.525631 0.618135
H9_7 H 0.826413 0.433242 0.614919
Cu5_7 Cu 0.95495(2) 0.49504(2) 0.73037(2)
Cu1_4 Cu 0.62162(2) 0.79324(3) 0.56370(2)
O1_8 O 0.55223(13) 0.68843(21) 0.57916(4)
O2_5 O 0.63171(13) 0.72089(21) 0.61123(4)
O4_5 O 0.23861(14) 0.36699(22) 0.61286(4)
C1_8 C 0.51263(18) 0.58929(27) 0.60901(5)
C2_8 C 0.43328(18) 0.54504(27) 0.59984(5)
H1_8 H 0.417480 0.566703 0.587464
C3_8 C 0.37772(18) 0.46858(27) 0.60921(5)
C4_8 C 0.40267(19) 0.43473(28) 0.62700(5)
H2_8 H 0.365449 0.383348 0.633215
C5_8 C 0.48339(19) 0.47745(28) 0.63559(5)
C6_8 C 0.53720(18) 0.55536(27) 0.62693(5)
H3_8 H 0.590134 0.585320 0.633121
C7_8 C 0.57026(17) 0.67315(25) 0.59915(5)
C8_8 C 0.29170(18) 0.42223(26) 0.59977(5)
C9_8 C 0.50892(19) 0.43828(28) 0.65434(5)
C10_8 C 0.5297(3) 0.3785(4) 0.64953(7)
C11_8 C 0.5502(4) 0.3453(4) 0.66855(7)
H4_8 H 0.565762 0.306044 0.665989
C12_8 C 0.5476(3) 0.3706(4) 0.69106(6)
H5_8 H 0.559900 0.346310 0.703511
N1_8 N 0.52821(16) 0.42819(23) 0.69582(4)
C13_8 C 0.50963(19) 0.46093(26) 0.67751(6)
H6_8 H 0.496294 0.501633 0.680609
C14_8 C 0.5289(6) 0.3478(7) 0.62458(9)
H7_8 H 0.545108 0.306695 0.624986
H8_8 H 0.474369 0.324438 0.618135
H9_8 H 0.566758 0.393170 0.614919
Cu3_4 Cu 0.71172(2) 0.83829(4) 0.60296(2)
Cu5_8 Cu 0.50496(2) 0.45991(3) 0.73037(2)
O5_5 O 0.70163(13) 0.75585(25) 0.55543(4)
O6_6 O 0.55951(21) 0.83895(25) 0.57955(4)
O7_5 O 0.70033(22) 0.90527(28) 0.55380(4)
N2_8 N 0.56665(16) 0.76153(23) 0.52916(4)
C5_9 C 0.52255(28) 0.0059(2) 0.63559(5)
H3_9 H 0.414680 0.004813 0.633121
C9_9 C 0.56172(28) 0.0706(2) 0.65434(5)
C10_9 C 0.6215(4) 0.1511(2) 0.64953(7)
C11_9 C 0.6547(4) 0.2048(2) 0.66855(7)
H4_9 H 0.693956 0.259717 0.665989
C12_9 C 0.6294(4) 0.1769(2) 0.69106(6)
H5_9 H 0.653690 0.213589 0.703511
N1_9 N 0.57181(23) 0.10001(16) 0.69582(4)
C13_9 C 0.53907(26) 0.04869(18) 0.67751(6)
C14_9 C 0.6522(7) 0.1810(4) 0.62458(9)
H7_9 H 0.693305 0.238412 0.624986
H8_9 H 0.675562 0.149930 0.618135
H9_9 H 0.606830 0.173587 0.614919
Cu5_9 Cu 0.54009(3) 0.04505(2) 0.73037(2)
O1_9 O 0.31157(21) 0.86379(16) 0.57916(4)
O2_6 O 0.27911(21) 0.91081(16) 0.61123(4)
O4_6 O 0.63301(22) 0.87161(17) 0.61286(4)
C1_9 C 0.41071(27) 0.9233(2) 0.60901(5)
C2_9 C 0.45496(27) 0.8882(2) 0.59984(5)
H1_9 H 0.433297 0.850776 0.587464
C3_9 C 0.53142(27) 0.9091(2) 0.60921(5)
C4_9 C 0.56527(28) 0.9679(2) 0.62700(5)
H2_9 H 0.616652 0.982100 0.633215
C6_9 C 0.44464(27) 0.9818(2) 0.62693(5)
C7_9 C 0.32685(25) 0.89710(18) 0.59915(5)
C8_9 C 0.57777(26) 0.86946(19) 0.59977(5)
H6_9 H 0.498367 0.994660 0.680609
O5_6 O 0.24415(25) 0.94577(21) 0.55543(4)
O7_6 O 0.09473(28) 0.79505(17) 0.55380(4)
N2_9 N 0.23847(23) 0.80513(16) 0.52916(4)
O3_4 O 0.05389(13) 0.82771(16) 0.58711(4)
C8_10 C 0.04164(18) 0.79720(19) 0.56689(5)
O1_10 O 0.78111(13) 0.80287(16) 0.58750(4)
C1_10 C 0.82071(18) 0.7433(2) 0.55765(5)
C2_10 C 0.90006(18) 0.7784(2) 0.56682(5)
H1_10 H 0.915854 0.815890 0.579202
C3_10 C 0.95562(18) 0.7575(2) 0.55745(5)
C4_10 C 0.93067(19) 0.6987(2) 0.53966(5)
H2_10 H 0.967885 0.684566 0.533451
C5_10 C 0.84995(19) 0.6607(2) 0.53107(5)
C6_10 C 0.79614(18) 0.6848(2) 0.53973(5)
H3_10 H 0.743200 0.661853 0.533545
C7_10 C 0.76308(17) 0.76956(18) 0.56751(5)
C9_10 C 0.82442(19) 0.5960(2) 0.51232(5)
C10_10 C 0.8037(3) 0.5155(2) 0.51713(7)
C11_10 C 0.7832(4) 0.4618(2) 0.49811(7)
H4_10 H 0.767572 0.406949 0.500677
C12_10 C 0.7858(3) 0.4897(2) 0.47560(6)
H5_10 H 0.773434 0.453077 0.463155
N1_10 N 0.80513(16) 0.56665(16) 0.47084(4)
C13_10 C 0.82371(19) 0.61797(18) 0.48915(6)
H6_10 H 0.837040 0.672006 0.486057
C14_10 C 0.8045(6) 0.4856(4) 0.54208(9)
H7_10 H 0.788226 0.428254 0.541680
H8_10 H 0.858965 0.516736 0.548531
H9_10 H 0.766576 0.493079 0.551747
Cu5_10 Cu 0.82837(2) 0.62162(2) 0.43630(2)
O6_7 O 0.77383(21) 0.94611(13) 0.58711(4)
N2_10 N 0.76668(16) 0.86154(16) 0.63751(4)
O1_11 O 0.02177(21) 0.21889(13) 0.58750(4)
C7_11 C 0.00649(25) 0.23692(17) 0.56751(5)
O6_8 O 0.17229(25) 0.22617(21) 0.58711(4)
N2_11 N 0.09486(23) 0.23332(16) 0.63751(4)
C1_11 C 0.92263(27) 0.17929(18) 0.55765(5)
C2_11 C 0.87838(27) 0.09994(18) 0.56682(5)
H1_11 H 0.900037 0.084146 0.579202
C3_11 C 0.80192(27) 0.04438(18) 0.55745(5)
C4_11 C 0.76807(28) 0.06933(19) 0.53966(5)
H2_11 H 0.716682 0.032115 0.533451
C5_11 C 0.81079(28) 0.15005(19) 0.53107(5)
C6_11 C 0.88870(27) 0.20386(18) 0.53973(5)
H3_11 H 0.918654 0.256800 0.533545
C9_11 C 0.77162(28) 0.17558(19) 0.51232(5)
C10_11 C 0.7119(4) 0.1963(3) 0.51713(7)
C11_11 C 0.6787(4) 0.2168(4) 0.49811(7)
H4_11 H 0.639378 0.232428 0.500677
C12_11 C 0.7040(4) 0.2142(3) 0.47560(6)
H5_11 H 0.679644 0.226566 0.463155
N1_11 N 0.76153(23) 0.19487(16) 0.47084(4)
C13_11 C 0.79427(26) 0.17629(19) 0.48915(6)
H6_11 H 0.834967 0.162960 0.486057
C14_11 C 0.6812(7) 0.1955(6) 0.54208(9)
H7_11 H 0.640029 0.211774 0.541680
H8_11 H 0.657772 0.141035 0.548531
H9_11 H 0.726504 0.233424 0.551747
Cu5_11 Cu 0.79324(3) 0.17163(2) 0.43630(2)
C8_11 C 0.75557(26) 0.95836(18) 0.56689(5)
C1_12 C 0.2567(2) 0.07737(27) 0.55765(5)
C2_12 C 0.2216(2) 0.12162(27) 0.56682(5)
H1_12 H 0.184110 0.099963 0.579202
C3_12 C 0.2425(2) 0.19808(27) 0.55745(5)
C4_12 C 0.3013(2) 0.23193(28) 0.53966(5)
H2_12 H 0.315434 0.283318 0.533451
C5_12 C 0.3393(2) 0.18921(28) 0.53107(5)
C6_12 C 0.3152(2) 0.11130(27) 0.53973(5)
H3_12 H 0.338147 0.081346 0.533545
C8_12 C 0.20280(19) 0.24443(26) 0.56689(5)
C9_12 C 0.4040(2) 0.22838(28) 0.51232(5)
C10_12 C 0.4845(2) 0.2881(4) 0.51713(7)
C11_12 C 0.5382(2) 0.3213(4) 0.49811(7)
H4_12 H 0.593051 0.360622 0.500677
C12_12 C 0.5103(2) 0.2960(4) 0.47560(6)
H5_12 H 0.546923 0.320356 0.463155
N1_12 N 0.43335(16) 0.23847(23) 0.47084(4)
C13_12 C 0.38203(18) 0.20573(26) 0.48915(6)
H6_12 H 0.327994 0.165033 0.486057
C14_12 C 0.5144(4) 0.3188(7) 0.54208(9)
H7_12 H 0.571746 0.359971 0.541680
H8_12 H 0.483264 0.342228 0.548531
H9_12 H 0.506921 0.273496 0.551747
Cu5_12 Cu 0.37838(2) 0.20676(3) 0.43630(2)
O1_12 O 0.19713(16) 0.97823(21) 0.58750(4)
C7_12 C 0.23044(18) 0.99351(25) 0.56751(5)
N2_12 N 0.13846(16) 0.90514(23) 0.63751(4)
O3_5 O 0.82771(16) 0.05389(13) 0.91289(4)
O4_7 O 0.79505(17) 0.09473(14) 0.94620(4)
C8_13 C 0.79720(19) 0.04164(18) 0.93311(5)
Cu2_3 Cu 0.87342(3) 0.16171(2) 0.89704(2)
Cu4_3 Cu 0.82837(2) 0.20676(3) 0.93630(2)
C11_13 C 0.4618(2) 0.7832(4) 0.00189(7)
C12_13 C 0.4897(2) 0.7858(3) 0.02440(6)
H5_13 H 0.453077 0.773434 0.036845
N1_13 N 0.56665(16) 0.80513(16) 0.02916(4)
C13_13 C 0.61797(18) 0.82371(19) 0.01085(6)
H6_13 H 0.672006 0.837040 0.013943
Cu5_13 Cu 0.62162(2) 0.82837(2) 0.06370(2)
Cu1_5 Cu 0.83829(2) 0.71172(2) 0.89704(2)
O1_13 O 0.80287(16) 0.78111(13) 0.91250(4)
O2_7 O 0.75585(16) 0.70163(13) 0.94457(4)
C1_13 C 0.7433(2) 0.82071(18) 0.94235(5)
C2_13 C 0.7784(2) 0.90006(18) 0.93318(5)
H1_13 H 0.815890 0.915854 0.920798
C3_13 C 0.7575(2) 0.95562(18) 0.94255(5)
C4_13 C 0.6987(2) 0.93067(19) 0.96034(5)
H2_13 H 0.684566 0.967885 0.966549
C5_13 C 0.6607(2) 0.84995(19) 0.96893(5)
C6_13 C 0.6848(2) 0.79614(18) 0.96027(5)
H3_13 H 0.661853 0.743200 0.966455
C7_13 C 0.76956(18) 0.76308(17) 0.93249(5)
C9_13 C 0.5960(2) 0.82442(19) 0.98768(5)
C10_13 C 0.5155(2) 0.8037(3) 0.98287(7)
H4_13 H 0.406949 0.767572 0.999323
C14_13 C 0.4856(4) 0.8045(6) 0.95792(9)
H7_13 H 0.428254 0.788226 0.958320
H8_13 H 0.516736 0.858965 0.951469
H9_13 H 0.493079 0.766576 0.948253
Cu3_5 Cu 0.79324(3) 0.62162(2) 0.93630(2)
O5_7 O 0.72089(21) 0.63171(13) 0.88877(4)
O6_9 O 0.94611(13) 0.77383(21) 0.91289(4)
O7_7 O 0.87161(17) 0.63301(22) 0.88714(4)
N2_13 N 0.86154(16) 0.76668(16) 0.86249(4)
Cu1_6 Cu 0.28828(2) 0.12658(3) 0.89704(2)
O1_14 O 0.21889(13) 0.02177(21) 0.91250(4)
O2_8 O 0.29837(13) 0.05423(21) 0.94457(4)
C7_14 C 0.23692(17) 0.00649(25) 0.93249(5)
Cu3_6 Cu 0.37838(2) 0.17163(4) 0.93630(2)
O5_8 O 0.36829(13) 0.08919(25) 0.88877(4)
O6_10 O 0.22617(21) 0.17229(25) 0.91289(4)
O7_8 O 0.36699(22) 0.23861(28) 0.88714(4)
N2_14 N 0.23332(16) 0.09486(23) 0.86249(4)
C11_14 C 0.2168(4) 0.6787(4) 0.00189(7)
C12_14 C 0.2142(3) 0.7040(4) 0.02440(6)
H5_14 H 0.226566 0.679644 0.036845
N1_14 N 0.19487(16) 0.76153(23) 0.02916(4)
C13_14 C 0.17629(19) 0.79427(26) 0.01085(6)
H6_14 H 0.162960 0.834967 0.013943
Cu5_14 Cu 0.17163(2) 0.79324(3) 0.06370(2)
O4_8 O 0.90527(14) 0.70033(22) 0.94620(4)
C8_14 C 0.95836(18) 0.75557(26) 0.93311(5)
C11_15 C 0.3213(4) 0.5382(2) 0.00189(7)
C12_15 C 0.2960(4) 0.5103(2) 0.02440(6)
H5_15 H 0.320356 0.546923 0.036845
N1_15 N 0.23847(23) 0.43335(16) 0.02916(4)
C13_15 C 0.20573(26) 0.38203(18) 0.01085(6)
H6_15 H 0.165033 0.327994 0.013943
Cu5_15 Cu 0.20676(3) 0.37838(2) 0.06370(2)
O4_9 O 0.29967(22) 0.20495(17) 0.94620(4)
C1_14 C 0.07737(27) 0.2567(2) 0.94235(5)
C2_14 C 0.12162(27) 0.2216(2) 0.93318(5)
H1_14 H 0.099963 0.184110 0.920798
C3_14 C 0.19808(27) 0.2425(2) 0.94255(5)
C4_14 C 0.23193(28) 0.3013(2) 0.96034(5)
H2_14 H 0.283318 0.315434 0.966549
C5_14 C 0.18921(28) 0.3393(2) 0.96893(5)
C6_14 C 0.11130(27) 0.3152(2) 0.96027(5)
H3_14 H 0.081346 0.338147 0.966455
C8_15 C 0.24443(26) 0.20280(19) 0.93311(5)
C9_14 C 0.22838(28) 0.4040(2) 0.98768(5)
C10_14 C 0.2881(4) 0.4845(2) 0.98287(7)
H4_14 H 0.360622 0.593051 0.999323
C14_14 C 0.3188(7) 0.5144(4) 0.95792(9)
H7_14 H 0.359971 0.571746 0.958320
H8_14 H 0.342228 0.483264 0.951469
H9_14 H 0.273496 0.506921 0.948253
O1_15 O 0.97823(21) 0.19713(16) 0.91250(4)
O2_9 O 0.94577(21) 0.24415(16) 0.94457(4)
C7_15 C 0.99351(25) 0.23044(18) 0.93249(5)
O5_9 O 0.91081(25) 0.27911(21) 0.88877(4)
O7_9 O 0.76139(28) 0.12839(17) 0.88714(4)
N2_15 N 0.90514(23) 0.13846(16) 0.86249(4)
O1_16 O 0.44777(13) 0.13621(16) 0.92084(4)
O3_6 O 0.72055(13) 0.16105(16) 0.92045(4)
C1_15 C 0.48737(18) 0.0767(2) 0.89099(5)
C2_15 C 0.56672(18) 0.1118(2) 0.90016(5)
H1_15 H 0.582520 0.149224 0.912536
C3_15 C 0.62228(18) 0.0909(2) 0.89079(5)
C4_15 C 0.59733(19) 0.0321(2) 0.87300(5)
H2_15 H 0.634551 0.017900 0.866785
C6_15 C 0.46280(18) 0.0182(2) 0.87307(5)
C7_16 C 0.42974(17) 0.10290(18) 0.90085(5)
C8_16 C 0.70830(18) 0.13054(19) 0.90023(5)
H6_16 H 0.503706 0.005340 0.819391
O6_11 O 0.44049(21) 0.27945(13) 0.92045(4)
N2_16 N 0.43335(16) 0.19487(16) 0.97084(4)
C5_15 C 0.51661(19) 0.9941(2) 0.86441(5)
H3_15 H 0.409866 0.995187 0.866879
C9_15 C 0.49108(19) 0.9294(2) 0.84566(5)
C10_15 C 0.4703(3) 0.8489(2) 0.85047(7)
C11_16 C 0.4498(4) 0.7952(2) 0.83145(7)
H4_15 H 0.434238 0.740283 0.834011
C12_16 C 0.4524(3) 0.8231(2) 0.80894(6)
H5_16 H 0.440100 0.786411 0.796489
N1_16 N 0.47179(16) 0.89999(16) 0.80418(4)
C13_16 C 0.49037(19) 0.95131(18) 0.82249(6)
C14_15 C 0.4711(6) 0.8190(4) 0.87542(9)
H7_15 H 0.454892 0.761588 0.875014
H8_15 H 0.525631 0.850070 0.881865
H9_15 H 0.433242 0.826413 0.885081
Cu5_16 Cu 0.49504(2) 0.95495(2) 0.76963(2)
O1_17 O 0.68843(21) 0.55223(13) 0.92084(4)
C1_16 C 0.58929(27) 0.51263(18) 0.89099(5)
C2_16 C 0.54504(27) 0.43328(18) 0.90016(5)
H1_16 H 0.566703 0.417480 0.912536
C3_16 C 0.46858(27) 0.37772(18) 0.89079(5)
C4_16 C 0.43473(28) 0.40267(19) 0.87300(5)
H2_16 H 0.383348 0.365449 0.866785
C5_16 C 0.47745(28) 0.48339(19) 0.86441(5)
C6_16 C 0.55536(27) 0.53720(18) 0.87307(5)
H3_16 H 0.585320 0.590134 0.866879
C7_17 C 0.67315(25) 0.57026(17) 0.90085(5)
C8_17 C 0.42223(26) 0.29170(18) 0.90023(5)
C9_16 C 0.43828(28) 0.50892(19) 0.84566(5)
C10_16 C 0.3785(4) 0.5297(3) 0.85047(7)
C11_17 C 0.3453(4) 0.5502(4) 0.83145(7)
H4_16 H 0.306044 0.565762 0.834011
C12_17 C 0.3706(4) 0.5476(3) 0.80894(6)
H5_17 H 0.346310 0.559900 0.796489
N1_17 N 0.42819(23) 0.52821(16) 0.80418(4)
C13_17 C 0.46093(26) 0.50963(19) 0.82249(6)
H6_17 H 0.501633 0.496294 0.819391
C14_16 C 0.3478(7) 0.5289(6) 0.87542(9)
H7_16 H 0.306695 0.545108 0.875014
H8_16 H 0.324438 0.474369 0.881865
H9_16 H 0.393170 0.566758 0.885081
Cu5_17 Cu 0.45991(3) 0.50496(2) 0.76963(2)
O6_12 O 0.83895(25) 0.55951(21) 0.92045(4)
N2_17 N 0.76153(23) 0.56665(16) 0.97084(4)
C5_17 C 0.0059(2) 0.52255(28) 0.86441(5)
H3_17 H 0.004813 0.414680 0.866879
C9_17 C 0.0706(2) 0.56172(28) 0.84566(5)
C10_17 C 0.1511(2) 0.6215(4) 0.85047(7)
C11_18 C 0.2048(2) 0.6547(4) 0.83145(7)
H4_17 H 0.259717 0.693956 0.834011
C12_18 C 0.1769(2) 0.6294(4) 0.80894(6)
H5_18 H 0.213589 0.653690 0.796489
N1_18 N 0.10001(16) 0.57181(23) 0.80418(4)
C13_18 C 0.04869(18) 0.53907(26) 0.82249(6)
C14_17 C 0.1810(4) 0.6522(7) 0.87542(9)
H7_17 H 0.238412 0.693305 0.875014
H8_17 H 0.149930 0.675562 0.881865
H9_17 H 0.173587 0.606830 0.885081
Cu5_18 Cu 0.04505(2) 0.54009(3) 0.76963(2)
O1_18 O 0.86379(16) 0.31157(21) 0.92084(4)
C1_17 C 0.9233(2) 0.41071(27) 0.89099(5)
C2_17 C 0.8882(2) 0.45496(27) 0.90016(5)
H1_17 H 0.850776 0.433297 0.912536
C3_17 C 0.9091(2) 0.53142(27) 0.89079(5)
C4_17 C 0.9679(2) 0.56527(28) 0.87300(5)
H2_17 H 0.982100 0.616652 0.866785
C6_17 C 0.9818(2) 0.44464(27) 0.87307(5)
C7_18 C 0.89710(18) 0.32685(25) 0.90085(5)
C8_18 C 0.86946(19) 0.57777(26) 0.90023(5)
H6_18 H 0.994660 0.498367 0.819391
N2_18 N 0.80513(16) 0.23847(23) 0.97084(4)
O5_10 O 0.61244(21) 0.03496(13) 0.77790(4)
O7_10 O 0.46172(17) 0.03366(22) 0.77953(4)
O1_19 O 0.53046(16) 0.88556(13) 0.75417(4)
O2_10 O 0.57748(16) 0.96504(13) 0.72210(4)
O3_7 O 0.50562(16) 0.61278(13) 0.75378(4)
O4_10 O 0.53828(17) 0.57194(14) 0.72047(4)
C1_18 C 0.5900(2) 0.84596(18) 0.72432(5)
C2_18 C 0.5549(2) 0.76661(18) 0.73349(5)
H1_18 H 0.517443 0.750813 0.745869
C3_18 C 0.5758(2) 0.71105(18) 0.72412(5)
C4_18 C 0.6346(2) 0.73600(19) 0.70633(5)
H2_18 H 0.648767 0.698782 0.700118
C5_18 C 0.6726(2) 0.81672(19) 0.69774(5)
C6_18 C 0.6485(2) 0.87053(18) 0.70640(5)
H3_18 H 0.671480 0.923467 0.700212
C7_19 C 0.56377(18) 0.90359(17) 0.73418(5)
C8_19 C 0.53613(19) 0.62503(18) 0.73356(5)
C9_18 C 0.7373(2) 0.84225(19) 0.67899(5)
C10_18 C 0.8178(2) 0.8630(3) 0.68380(7)
C11_19 C 0.8715(2) 0.8835(4) 0.66478(7)
H4_18 H 0.926384 0.899095 0.667344
C12_19 C 0.8436(2) 0.8809(3) 0.64227(6)
H5_19 H 0.880256 0.893233 0.629822
C13_19 C 0.71536(18) 0.84296(19) 0.65582(6)
H6_19 H 0.661327 0.829627 0.652724
C14_18 C 0.8477(4) 0.8622(6) 0.70875(9)
H7_18 H 0.905079 0.878441 0.708347
H8_18 H 0.816597 0.807702 0.715198
H9_18 H 0.840254 0.900091 0.718414
O6_13 O 0.38722(13) 0.89284(21) 0.75378(4)
H4_19 H 0.100905 0.027289 0.667344
H7_19 H 0.121559 0.026638 0.708347
H8_19 H 0.192298 0.008895 0.715198
O1_20 O 0.11444(13) 0.64490(21) 0.75417(4)
O2_11 O 0.03496(13) 0.61244(21) 0.72210(4)
O4_11 O 0.42806(14) 0.96634(22) 0.72047(4)
C1_19 C 0.15404(18) 0.74404(27) 0.72432(5)
C2_19 C 0.23339(18) 0.78829(27) 0.73349(5)
H1_19 H 0.249187 0.766630 0.745869
C3_19 C 0.28895(18) 0.86475(27) 0.72412(5)
C4_19 C 0.26400(19) 0.89860(28) 0.70633(5)
H2_19 H 0.301218 0.949985 0.700118
C5_19 C 0.18328(19) 0.85588(28) 0.69774(5)
C6_19 C 0.12947(18) 0.77797(27) 0.70640(5)
H3_19 H 0.076533 0.748013 0.700212
C7_20 C 0.09641(17) 0.66018(25) 0.73418(5)
C8_20 C 0.37497(18) 0.91110(26) 0.73356(5)
C9_19 C 0.15775(19) 0.89505(28) 0.67899(5)
C10_19 C 0.1370(3) 0.9548(4) 0.68380(7)
C11_20 C 0.1165(4) 0.9880(4) 0.66478(7)
C12_20 C 0.1191(3) 0.9627(4) 0.64227(6)
H5_20 H 0.106767 0.987023 0.629822
C13_20 C 0.15704(19) 0.87240(26) 0.65582(6)
H6_20 H 0.170373 0.831700 0.652724
C14_19 C 0.1378(6) 0.9855(7) 0.70875(9)
H9_19 H 0.099909 0.940163 0.718414
O6_14 O 0.10716(21) 0.49438(25) 0.75378(4)
O5_11 O 0.96504(13) 0.57748(25) 0.77790(4)
O7_11 O 0.96634(22) 0.42806(28) 0.77953(4)
O1_21 O 0.35510(21) 0.46954(16) 0.75417(4)
O2_12 O 0.38756(21) 0.42252(16) 0.72210(4)
O4_12 O 0.03366(22) 0.46172(17) 0.72047(4)
C1_20 C 0.25596(27) 0.4100(2) 0.72432(5)
C2_20 C 0.21171(27) 0.4451(2) 0.73349(5)
H1_20 H 0.233370 0.482557 0.745869
C3_20 C 0.13525(27) 0.4242(2) 0.72412(5)
C4_20 C 0.10140(28) 0.3654(2) 0.70633(5)
H2_20 H 0.050015 0.351233 0.700118
C5_20 C 0.14412(28) 0.3274(2) 0.69774(5)
C6_20 C 0.22203(27) 0.3515(2) 0.70640(5)
H3_20 H 0.251987 0.328520 0.700212
C7_21 C 0.33982(25) 0.43623(18) 0.73418(5)
C8_21 C 0.08890(26) 0.46387(19) 0.73356(5)
C9_20 C 0.10495(28) 0.2627(2) 0.67899(5)
C10_20 C 0.0452(4) 0.1822(2) 0.68380(7)
C11_21 C 0.0120(4) 0.1285(2) 0.66478(7)
C12_21 C 0.0373(4) 0.1564(2) 0.64227(6)
H5_21 H 0.012977 0.119744 0.629822
C13_21 C 0.12760(26) 0.28464(18) 0.65582(6)
H6_21 H 0.168300 0.338673 0.652724
C14_20 C 0.0145(7) 0.1523(4) 0.70875(9)
H9_20 H 0.059837 0.159746 0.718414
O5_12 O 0.42252(25) 0.38756(21) 0.77790(4)
O7_12 O 0.57194(28) 0.53828(17) 0.77953(4)
H4_20 H 0.972711 0.073616 0.667344
H7_20 H 0.973362 0.094921 0.708347
H8_20 H 0.991105 0.183403 0.715198
O1_22 O 0.88556(13) 0.53046(16) 0.74583(4)
O3_8 O 0.61278(13) 0.50562(16) 0.74622(4)
C1_21 C 0.84596(18) 0.5900(2) 0.77568(5)
C2_21 C 0.76661(18) 0.5549(2) 0.76651(5)
H1_21 H 0.750813 0.517443 0.754131
C3_21 C 0.71105(18) 0.5758(2) 0.77588(5)
C4_21 C 0.73600(19) 0.6346(2) 0.79367(5)
H2_21 H 0.698782 0.648767 0.799882
C5_21 C 0.81672(19) 0.6726(2) 0.80226(5)
C6_21 C 0.87053(18) 0.6485(2) 0.79360(5)
H3_21 H 0.923467 0.671480 0.799788
C7_22 C 0.90359(17) 0.56377(18) 0.76582(5)
C8_22 C 0.62503(18) 0.53613(19) 0.76644(5)
C9_21 C 0.84225(19) 0.7373(2) 0.82101(5)
C10_21 C 0.8630(3) 0.8178(2) 0.81620(7)
C11_22 C 0.8835(4) 0.8715(2) 0.83522(7)
H4_21 H 0.899095 0.926384 0.832656
C12_22 C 0.8809(3) 0.8436(2) 0.85773(6)
H5_22 H 0.893233 0.880256 0.870178
C13_22 C 0.84296(19) 0.71536(18) 0.84418(6)
H6_22 H 0.829627 0.661327 0.847276
C14_21 C 0.8622(6) 0.8477(4) 0.79125(9)
H7_21 H 0.878441 0.905079 0.791653
H8_21 H 0.807702 0.816597 0.784802
H9_21 H 0.900091 0.840254 0.781586
O6_15 O 0.89284(21) 0.38722(13) 0.74622(4)
H4_22 H 0.027289 0.100905 0.832656
H7_22 H 0.026638 0.121559 0.791653
H8_22 H 0.008895 0.192298 0.784802
O1_23 O 0.64490(21) 0.11444(13) 0.74583(4)
C1_22 C 0.74404(27) 0.15404(18) 0.77568(5)
C2_22 C 0.78829(27) 0.23339(18) 0.76651(5)
H1_22 H 0.766630 0.249187 0.754131
C3_22 C 0.86475(27) 0.28895(18) 0.77588(5)
C4_22 C 0.89860(28) 0.26400(19) 0.79367(5)
H2_22 H 0.949985 0.301218 0.799882
C5_22 C 0.85588(28) 0.18328(19) 0.80226(5)
C6_22 C 0.77797(27) 0.12947(18) 0.79360(5)
H3_22 H 0.748013 0.076533 0.799788
C7_23 C 0.66018(25) 0.09641(17) 0.76582(5)
C8_23 C 0.91110(26) 0.37497(18) 0.76644(5)
C9_22 C 0.89505(28) 0.15775(19) 0.82101(5)
C10_22 C 0.9548(4) 0.1370(3) 0.81620(7)
C11_23 C 0.9880(4) 0.1165(4) 0.83522(7)
C12_23 C 0.9627(4) 0.1191(3) 0.85773(6)
H5_23 H 0.987023 0.106767 0.870178
C13_23 C 0.87240(26) 0.15704(19) 0.84418(6)
H6_23 H 0.831700 0.170373 0.847276
C14_22 C 0.9855(7) 0.1378(6) 0.79125(9)
H9_22 H 0.940163 0.099909 0.781586
O6_16 O 0.49438(25) 0.10716(21) 0.74622(4)
O1_24 O 0.46954(16) 0.35510(21) 0.74583(4)
C1_23 C 0.4100(2) 0.25596(27) 0.77568(5)
C2_23 C 0.4451(2) 0.21171(27) 0.76651(5)
H1_23 H 0.482557 0.233370 0.754131
C3_23 C 0.4242(2) 0.13525(27) 0.77588(5)
C4_23 C 0.3654(2) 0.10140(28) 0.79367(5)
H2_23 H 0.351233 0.050015 0.799882
C5_23 C 0.3274(2) 0.14412(28) 0.80226(5)
C6_23 C 0.3515(2) 0.22203(27) 0.79360(5)
H3_23 H 0.328520 0.251987 0.799788
C7_24 C 0.43623(18) 0.33982(25) 0.76582(5)
C8_24 C 0.46387(19) 0.08890(26) 0.76644(5)
C9_23 C 0.2627(2) 0.10495(28) 0.82101(5)
C10_23 C 0.1822(2) 0.0452(4) 0.81620(7)
C11_24 C 0.1285(2) 0.0120(4) 0.83522(7)
C12_24 C 0.1564(2) 0.0373(4) 0.85773(6)
H5_24 H 0.119744 0.012977 0.870178
C13_24 C 0.28464(18) 0.12760(26) 0.84418(6)
H6_24 H 0.338673 0.168300 0.847276
C14_23 C 0.1523(4) 0.0145(7) 0.79125(9)
H9_23 H 0.159746 0.059837 0.781586
H4_23 H 0.073616 0.972711 0.832656
H7_23 H 0.094921 0.973362 0.791653
H8_23 H 0.183403 0.991105 0.784802
C5_24 C 0.0059(2) 0.48339(19) 0.36441(5)
H3_24 H 0.004813 0.590134 0.366879
C9_24 C 0.0706(2) 0.50892(19) 0.34566(5)
C10_24 C 0.1511(2) 0.5297(3) 0.35047(7)
C11_25 C 0.2048(2) 0.5502(4) 0.33145(7)
H4_24 H 0.259717 0.565762 0.334011
C12_25 C 0.1769(2) 0.5476(3) 0.30894(6)
H5_25 H 0.213589 0.559900 0.296489
C13_25 C 0.04869(18) 0.50963(19) 0.32249(6)
C14_24 C 0.1810(4) 0.5289(6) 0.37542(9)
H7_24 H 0.238412 0.545108 0.375014
H8_24 H 0.149930 0.474369 0.381865
H9_24 H 0.173587 0.566758 0.385081
O1_25 O 0.86379(16) 0.55223(13) 0.42084(4)
O2_13 O 0.91081(16) 0.63171(13) 0.38877(4)
O3_9 O 0.83895(16) 0.27945(13) 0.42045(4)
O4_13 O 0.87161(17) 0.23861(14) 0.38714(4)
C1_24 C 0.9233(2) 0.51263(18) 0.39099(5)
C2_24 C 0.8882(2) 0.43328(18) 0.40016(5)
H1_24 H 0.850776 0.417480 0.412536
C3_24 C 0.9091(2) 0.37772(18) 0.39079(5)
C4_24 C 0.9679(2) 0.40267(19) 0.37300(5)
H2_24 H 0.982100 0.365449 0.366785
C6_24 C 0.9818(2) 0.53720(18) 0.37307(5)
C7_25 C 0.89710(18) 0.57026(17) 0.40085(5)
C8_25 C 0.86946(19) 0.29170(18) 0.40023(5)
H6_25 H 0.994660 0.496294 0.319391
O5_13 O 0.94577(21) 0.70163(13) 0.44457(4)
O6_17 O 0.72055(13) 0.55951(21) 0.42045(4)
O7_13 O 0.79505(17) 0.70033(22) 0.44620(4)
O1_26 O 0.44777(13) 0.31157(21) 0.42084(4)
O2_14 O 0.36829(13) 0.27911(21) 0.38877(4)
O4_14 O 0.76139(14) 0.63301(22) 0.38714(4)
C1_25 C 0.48737(18) 0.41071(27) 0.39099(5)
C2_25 C 0.56672(18) 0.45496(27) 0.40016(5)
H1_25 H 0.582520 0.433297 0.412536
C3_25 C 0.62228(18) 0.53142(27) 0.39079(5)
C4_25 C 0.59733(19) 0.56527(28) 0.37300(5)
H2_25 H 0.634551 0.616652 0.366785
C5_25 C 0.51661(19) 0.52255(28) 0.36441(5)
C6_25 C 0.46280(18) 0.44464(27) 0.37307(5)
H3_25 H 0.409866 0.414680 0.366879
C7_26 C 0.42974(17) 0.32685(25) 0.40085(5)
C8_26 C 0.70830(18) 0.57777(26) 0.40023(5)
C9_25 C 0.49108(19) 0.56172(28) 0.34566(5)
C10_25 C 0.4703(3) 0.6215(4) 0.35047(7)
C11_26 C 0.4498(4) 0.6547(4) 0.33145(7)
H4_25 H 0.434238 0.693956 0.334011
C12_26 C 0.4524(3) 0.6294(4) 0.30894(6)
H5_26 H 0.440100 0.653690 0.296489
C13_26 C 0.49037(19) 0.53907(26) 0.32249(6)
H6_26 H 0.503706 0.498367 0.319391
C14_25 C 0.4711(6) 0.6522(7) 0.37542(9)
H7_25 H 0.454892 0.693305 0.375014
H8_25 H 0.525631 0.675562 0.381865
H9_25 H 0.433242 0.606830 0.385081
O5_14 O 0.29837(13) 0.24415(25) 0.44457(4)
O6_18 O 0.44049(21) 0.16105(25) 0.42045(4)
O7_14 O 0.29967(22) 0.09473(28) 0.44620(4)
O1_27 O 0.68843(21) 0.13621(16) 0.42084(4)
O2_15 O 0.72089(21) 0.08919(16) 0.38877(4)
O4_15 O 0.36699(22) 0.12839(17) 0.38714(4)
C1_26 C 0.58929(27) 0.0767(2) 0.39099(5)
C2_26 C 0.54504(27) 0.1118(2) 0.40016(5)
H1_26 H 0.566703 0.149224 0.412536
C3_26 C 0.46858(27) 0.0909(2) 0.39079(5)
C4_26 C 0.43473(28) 0.0321(2) 0.37300(5)
H2_26 H 0.383348 0.017900 0.366785
C6_26 C 0.55536(27) 0.0182(2) 0.37307(5)
C7_27 C 0.67315(25) 0.10290(18) 0.40085(5)
C8_27 C 0.42223(26) 0.13054(19) 0.40023(5)
H6_27 H 0.501633 0.005340 0.319391
O5_15 O 0.75585(25) 0.05423(21) 0.44457(4)
O7_15 O 0.90527(28) 0.20495(17) 0.44620(4)
C5_26 C 0.47745(28) 0.9941(2) 0.36441(5)
H3_26 H 0.585320 0.995187 0.366879
C9_26 C 0.43828(28) 0.9294(2) 0.34566(5)
C10_26 C 0.3785(4) 0.8489(2) 0.35047(7)
C11_27 C 0.3453(4) 0.7952(2) 0.33145(7)
H4_26 H 0.306044 0.740283 0.334011
C12_27 C 0.3706(4) 0.8231(2) 0.30894(6)
H5_27 H 0.346310 0.786411 0.296489
C13_27 C 0.46093(26) 0.95131(18) 0.32249(6)
C14_26 C 0.3478(7) 0.8190(4) 0.37542(9)
H7_26 H 0.306695 0.761588 0.375014
H8_26 H 0.324438 0.850070 0.381865
H9_26 H 0.393170 0.826413 0.385081
O1_28 O 0.21889(13) 0.19713(16) 0.41250(4)
C1_27 C 0.17929(18) 0.2567(2) 0.44235(5)
C2_27 C 0.09994(18) 0.2216(2) 0.43318(5)
H1_27 H 0.084146 0.184110 0.420798
C3_27 C 0.04438(18) 0.2425(2) 0.44255(5)
C4_27 C 0.06933(19) 0.3013(2) 0.46034(5)
H2_27 H 0.032115 0.315434 0.466549
C5_27 C 0.15005(19) 0.3393(2) 0.46893(5)
C6_27 C 0.20386(18) 0.3152(2) 0.46027(5)
H3_27 H 0.256800 0.338147 0.466455
C7_28 C 0.23692(17) 0.23044(18) 0.43249(5)
C9_27 C 0.17558(19) 0.4040(2) 0.48768(5)
C10_27 C 0.1963(3) 0.4845(2) 0.48287(7)
C11_28 C 0.2168(4) 0.5382(2) 0.50189(7)
H4_27 H 0.232428 0.593051 0.499323
C12_28 C 0.2142(3) 0.5103(2) 0.52440(6)
H5_28 H 0.226566 0.546923 0.536845
C13_28 C 0.17629(19) 0.38203(18) 0.51085(6)
H6_28 H 0.162960 0.327994 0.513943
C14_27 C 0.1955(6) 0.5144(4) 0.45792(9)
H7_27 H 0.211774 0.571746 0.458320
H8_27 H 0.141035 0.483264 0.451469
H9_27 H 0.233424 0.506921 0.448253
O6_19 O 0.22617(21) 0.05389(13) 0.41289(4)
O3_10 O 0.94611(13) 0.17229(16) 0.41289(4)
C8_28 C 0.95836(18) 0.20280(19) 0.43311(5)
C8_29 C 0.24443(26) 0.04164(18) 0.43311(5)
C1_28 C 0.07737(27) 0.82071(18) 0.44235(5)
C2_28 C 0.12162(27) 0.90006(18) 0.43318(5)
H1_28 H 0.099963 0.915854 0.420798
C3_28 C 0.19808(27) 0.95562(18) 0.44255(5)
C4_28 C 0.23193(28) 0.93067(19) 0.46034(5)
H2_28 H 0.283318 0.967885 0.466549
C5_28 C 0.18921(28) 0.84995(19) 0.46893(5)
C6_28 C 0.11130(27) 0.79614(18) 0.46027(5)
H3_28 H 0.081346 0.743200 0.466455
C9_28 C 0.22838(28) 0.82442(19) 0.48768(5)
C10_28 C 0.2881(4) 0.8037(3) 0.48287(7)
C11_29 C 0.3213(4) 0.7832(4) 0.50189(7)
H4_28 H 0.360622 0.767572 0.499323
C12_29 C 0.2960(4) 0.7858(3) 0.52440(6)
H5_29 H 0.320356 0.773434 0.536845
C13_29 C 0.20573(26) 0.82371(19) 0.51085(6)
H6_29 H 0.165033 0.837040 0.513943
C14_28 C 0.3188(7) 0.8045(6) 0.45792(9)
H7_28 H 0.359971 0.788226 0.458320
H8_28 H 0.342228 0.858965 0.451469
H9_28 H 0.273496 0.766576 0.448253
O1_29 O 0.97823(21) 0.78111(13) 0.41250(4)
C7_29 C 0.99351(25) 0.76308(17) 0.43249(5)
O6_20 O 0.82771(25) 0.77383(21) 0.41289(4)
O1_30 O 0.80287(16) 0.02177(21) 0.41250(4)
C7_30 C 0.76956(18) 0.00649(25) 0.43249(5)
C1_29 C 0.7433(2) 0.92263(27) 0.44235(5)
C2_29 C 0.7784(2) 0.87838(27) 0.43318(5)
H1_29 H 0.815890 0.900037 0.420798
C3_29 C 0.7575(2) 0.80192(27) 0.44255(5)
C4_29 C 0.6987(2) 0.76807(28) 0.46034(5)
H2_29 H 0.684566 0.716682 0.466549
C5_29 C 0.6607(2) 0.81079(28) 0.46893(5)
C6_29 C 0.6848(2) 0.88870(27) 0.46027(5)
H3_29 H 0.661853 0.918654 0.466455
C8_30 C 0.79720(19) 0.75557(26) 0.43311(5)
C9_29 C 0.5960(2) 0.77162(28) 0.48768(5)
C10_29 C 0.5155(2) 0.7119(4) 0.48287(7)
C11_30 C 0.4618(2) 0.6787(4) 0.50189(7)
H4_29 H 0.406949 0.639378 0.499323
C12_30 C 0.4897(2) 0.7040(4) 0.52440(6)
H5_30 H 0.453077 0.679644 0.536845
C13_30 C 0.61797(18) 0.79427(26) 0.51085(6)
H6_30 H 0.672006 0.834967 0.513943
C14_29 C 0.4856(4) 0.6812(7) 0.45792(9)
H7_29 H 0.428254 0.640029 0.458320
H8_29 H 0.516736 0.657772 0.451469
H9_29 H 0.493079 0.726504 0.448253
O1_31 O 0.19713(16) 0.21889(13) 0.08750(4)
O2_16 O 0.24415(16) 0.29837(13) 0.05543(4)
C1_30 C 0.2567(2) 0.17929(18) 0.05765(5)
C2_30 C 0.2216(2) 0.09994(18) 0.06682(5)
H1_30 H 0.184110 0.084146 0.079202
C3_30 C 0.2425(2) 0.04438(18) 0.05745(5)
C4_30 C 0.3013(2) 0.06933(19) 0.03966(5)
H2_30 H 0.315434 0.032115 0.033451
C5_30 C 0.3393(2) 0.15005(19) 0.03107(5)
C6_30 C 0.3152(2) 0.20386(18) 0.03973(5)
H3_30 H 0.338147 0.256800 0.033545
C7_31 C 0.23044(18) 0.23692(17) 0.06751(5)
C9_30 C 0.4040(2) 0.17558(19) 0.01232(5)
C10_30 C 0.4845(2) 0.1963(3) 0.01713(7)
H4_30 H 0.593051 0.232428 0.000677
C14_30 C 0.5144(4) 0.1955(6) 0.04208(9)
H7_30 H 0.571746 0.211774 0.041680
H8_30 H 0.483264 0.141035 0.048531
H9_30 H 0.506921 0.233424 0.051747
O5_16 O 0.27911(21) 0.36829(13) 0.11123(4)
O6_21 O 0.05389(13) 0.22617(21) 0.08711(4)
O7_16 O 0.12839(17) 0.36699(22) 0.11286(4)
C11_31 C 0.5382(2) 0.2168(4) 0.99811(7)
C12_31 C 0.5103(2) 0.2142(3) 0.97560(6)
H5_31 H 0.546923 0.226566 0.963155
C13_31 C 0.38203(18) 0.17629(19) 0.98915(6)
H6_31 H 0.327994 0.162960 0.986057
O3_11 O 0.17229(16) 0.94611(13) 0.08711(4)
O4_16 O 0.20495(17) 0.90527(14) 0.05380(4)
C8_31 C 0.20280(19) 0.95836(18) 0.06689(5)
O4_17 O 0.09473(14) 0.29967(22) 0.05380(4)
C8_32 C 0.04164(18) 0.24443(26) 0.06689(5)
C11_32 C 0.7832(4) 0.3213(4) 0.99811(7)
C12_32 C 0.7858(3) 0.2960(4) 0.97560(6)
H5_32 H 0.773434 0.320356 0.963155
C13_32 C 0.82371(19) 0.20573(26) 0.98915(6)
H6_32 H 0.837040 0.165033 0.986057
O1_32 O 0.78111(13) 0.97823(21) 0.08750(4)
O2_17 O 0.70163(13) 0.94577(21) 0.05543(4)
C7_32 C 0.76308(17) 0.99351(25) 0.06751(5)
O5_17 O 0.63171(13) 0.91081(25) 0.11123(4)
O6_22 O 0.77383(21) 0.82771(25) 0.08711(4)
O7_17 O 0.63301(22) 0.76139(28) 0.11286(4)
O1_33 O 0.02177(21) 0.80287(16) 0.08750(4)
O2_18 O 0.05423(21) 0.75585(16) 0.05543(4)
C7_33 C 0.00649(25) 0.76956(18) 0.06751(5)
O5_18 O 0.08919(25) 0.72089(21) 0.11123(4)
O7_18 O 0.23861(28) 0.87161(17) 0.11286(4)
O4_18 O 0.70033(22) 0.79505(17) 0.05380(4)
C1_31 C 0.92263(27) 0.7433(2) 0.05765(5)
C2_31 C 0.87838(27) 0.7784(2) 0.06682(5)
H1_31 H 0.900037 0.815890 0.079202
C3_31 C 0.80192(27) 0.7575(2) 0.05745(5)
C4_31 C 0.76807(28) 0.6987(2) 0.03966(5)
H2_31 H 0.716682 0.684566 0.033451
C5_31 C 0.81079(28) 0.6607(2) 0.03107(5)
C6_31 C 0.88870(27) 0.6848(2) 0.03973(5)
H3_31 H 0.918654 0.661853 0.033545
C8_33 C 0.75557(26) 0.79720(19) 0.06689(5)
C9_31 C 0.77162(28) 0.5960(2) 0.01232(5)
C10_31 C 0.7119(4) 0.5155(2) 0.01713(7)
H4_31 H 0.639378 0.406949 0.000677
C14_31 C 0.6812(7) 0.4856(4) 0.04208(9)
H7_31 H 0.640029 0.428254 0.041680
H8_31 H 0.657772 0.516736 0.048531
H9_31 H 0.726504 0.493079 0.051747
C11_33 C 0.6787(4) 0.4618(2) 0.99811(7)
C12_33 C 0.7040(4) 0.4897(2) 0.97560(6)
H5_33 H 0.679644 0.453077 0.963155
C13_33 C 0.79427(26) 0.61797(18) 0.98915(6)
H6_33 H 0.834967 0.672006 0.986057
C5_32 C 0.48339(19) 0.0059(2) 0.13559(5)
H3_32 H 0.590134 0.004813 0.133121
C9_32 C 0.50892(19) 0.0706(2) 0.15434(5)
C10_32 C 0.5297(3) 0.1511(2) 0.14953(7)
C11_34 C 0.5502(4) 0.2048(2) 0.16855(7)
H4_32 H 0.565762 0.259717 0.165989
C12_34 C 0.5476(3) 0.1769(2) 0.19106(6)
H5_34 H 0.559900 0.213589 0.203511
C13_34 C 0.50963(19) 0.04869(18) 0.17751(6)
C14_32 C 0.5289(6) 0.1810(4) 0.12458(9)
H7_32 H 0.545108 0.238412 0.124986
H8_32 H 0.474369 0.149930 0.118135
H9_32 H 0.566758 0.173587 0.114919
O1_34 O 0.55223(13) 0.86379(16) 0.07916(4)
O3_12 O 0.27945(13) 0.83895(16) 0.07955(4)
C1_32 C 0.51263(18) 0.9233(2) 0.10901(5)
C2_32 C 0.43328(18) 0.8882(2) 0.09984(5)
H1_32 H 0.417480 0.850776 0.087464
C3_32 C 0.37772(18) 0.9091(2) 0.10921(5)
C4_32 C 0.40267(19) 0.9679(2) 0.12700(5)
H2_32 H 0.365449 0.982100 0.133215
C6_32 C 0.53720(18) 0.9818(2) 0.12693(5)
C7_34 C 0.57026(17) 0.89710(18) 0.09915(5)
C8_34 C 0.29170(18) 0.86946(19) 0.09977(5)
H6_34 H 0.496294 0.994660 0.180609
O6_23 O 0.55951(21) 0.72055(13) 0.07955(4)
O1_35 O 0.31157(21) 0.44777(13) 0.07916(4)
C1_33 C 0.41071(27) 0.48737(18) 0.10901(5)
C2_33 C 0.45496(27) 0.56672(18) 0.09984(5)
H1_33 H 0.433297 0.582520 0.087464
C3_33 C 0.53142(27) 0.62228(18) 0.10921(5)
C4_33 C 0.56527(28) 0.59733(19) 0.12700(5)
H2_33 H 0.616652 0.634551 0.133215
C5_33 C 0.52255(28) 0.51661(19) 0.13559(5)
C6_33 C 0.44464(27) 0.46280(18) 0.12693(5)
H3_33 H 0.414680 0.409866 0.133121
C7_35 C 0.32685(25) 0.42974(17) 0.09915(5)
C8_35 C 0.57777(26) 0.70830(18) 0.09977(5)
C9_33 C 0.56172(28) 0.49108(19) 0.15434(5)
C10_33 C 0.6215(4) 0.4703(3) 0.14953(7)
C11_35 C 0.6547(4) 0.4498(4) 0.16855(7)
H4_33 H 0.693956 0.434238 0.165989
C12_35 C 0.6294(4) 0.4524(3) 0.19106(6)
H5_35 H 0.653690 0.440100 0.203511
C13_35 C 0.53907(26) 0.49037(19) 0.17751(6)
H6_35 H 0.498367 0.503706 0.180609
C14_33 C 0.6522(7) 0.4711(6) 0.12458(9)
H7_33 H 0.693305 0.454892 0.124986
H8_33 H 0.675562 0.525631 0.118135
H9_33 H 0.606830 0.433242 0.114919
O6_24 O 0.16105(25) 0.44049(21) 0.07955(4)
O1_36 O 0.13621(16) 0.68843(21) 0.07916(4)
C1_34 C 0.0767(2) 0.58929(27) 0.10901(5)
C2_34 C 0.1118(2) 0.54504(27) 0.09984(5)
H1_34 H 0.149224 0.566703 0.087464
C3_34 C 0.0909(2) 0.46858(27) 0.10921(5)
C4_34 C 0.0321(2) 0.43473(28) 0.12700(5)
H2_34 H 0.017900 0.383348 0.133215
C6_34 C 0.0182(2) 0.55536(27) 0.12693(5)
C7_36 C 0.10290(18) 0.67315(25) 0.09915(5)
C8_36 C 0.13054(19) 0.42223(26) 0.09977(5)
H6_36 H 0.005340 0.501633 0.180609
C5_34 C 0.9941(2) 0.47745(28) 0.13559(5)
H3_34 H 0.995187 0.585320 0.133121
C9_34 C 0.9294(2) 0.43828(28) 0.15434(5)
C10_34 C 0.8489(2) 0.3785(4) 0.14953(7)
C11_36 C 0.7952(2) 0.3453(4) 0.16855(7)
H4_34 H 0.740283 0.306044 0.165989
C12_36 C 0.8231(2) 0.3706(4) 0.19106(6)
H5_36 H 0.786411 0.346310 0.203511
C13_36 C 0.95131(18) 0.46093(26) 0.17751(6)
C14_34 C 0.8190(4) 0.3478(7) 0.12458(9)
H7_34 H 0.761588 0.306695 0.124986
H8_34 H 0.850070 0.324438 0.118135
H9_34 H 0.826413 0.393170 0.114919
C1_35 C 0.17929(18) 0.92263(27) 0.94235(5)
C2_35 C 0.09994(18) 0.87838(27) 0.93318(5)
H1_35 H 0.084146 0.900037 0.920798
C3_35 C 0.04438(18) 0.80192(27) 0.94255(5)
C4_35 C 0.06933(19) 0.76807(28) 0.96034(5)
H2_35 H 0.032115 0.716682 0.966549
C5_35 C 0.15005(19) 0.81079(28) 0.96893(5)
C6_35 C 0.20386(18) 0.88870(27) 0.96027(5)
H3_35 H 0.256800 0.918654 0.966455
C9_35 C 0.17558(19) 0.77162(28) 0.98768(5)
C10_35 C 0.1963(3) 0.7119(4) 0.98287(7)
H4_35 H 0.232428 0.639378 0.999323
C14_35 C 0.1955(6) 0.6812(7) 0.95792(9)
H7_35 H 0.211774 0.640029 0.958320
H8_35 H 0.141035 0.657772 0.951469
H9_35 H 0.233424 0.726504 0.948253
C1_36 C 0.82071(18) 0.07737(27) 0.05765(5)
C2_36 C 0.90006(18) 0.12162(27) 0.06682(5)
H1_36 H 0.915854 0.099963 0.079202
C3_36 C 0.95562(18) 0.19808(27) 0.05745(5)
C4_36 C 0.93067(19) 0.23193(28) 0.03966(5)
H2_36 H 0.967885 0.283318 0.033451
C5_36 C 0.84995(19) 0.18921(28) 0.03107(5)
C6_36 C 0.79614(18) 0.11130(27) 0.03973(5)
H3_36 H 0.743200 0.081346 0.033545
C9_36 C 0.82442(19) 0.22838(28) 0.01232(5)
C10_36 C 0.8037(3) 0.2881(4) 0.01713(7)
H4_36 H 0.767572 0.360622 0.000677
C14_36 C 0.8045(6) 0.3188(7) 0.04208(9)
H7_36 H 0.788226 0.359971 0.041680
H8_36 H 0.858965 0.342228 0.048531
H9_36 H 0.766576 0.273496 0.051747
loop_
_geom_bond_atom_site_label_1
_geom_bond_atom_site_label_2
_geom_bond_site_symmetry_1
_geom_bond_site_symmetry_2
Cu1 O1 1_555 1_555
O1 C7 1_555 1_555
O2 C7 1_555 1_555
O3 C8 1_555 1_555
O4 C8 1_555 1_555
C1 C2 1_555 1_555
C2 H1 1_555 1_555
C3 C2 1_555 1_555
C4 C3 1_555 1_555
H2 C4 1_555 1_555
C5 C4 1_555 1_555
C6 C1 1_555 1_555
H3 C6 1_555 1_555
C7 C1 1_555 1_555
C8 C3 1_555 1_555
C9 C5 1_555 1_555
C10 C9 1_555 1_555
C11 C10 1_555 1_555
H4 C11 1_555 1_555
C12 C11 1_555 1_555
H5 C12 1_555 1_555
N1 C12 1_555 1_555
C13 C9 1_555 1_555
H6 C13 1_555 1_555
C14 C10 1_555 1_555
H7 C14 1_555 1_555
H8 C14 1_555 1_555
H9 C14 1_555 1_555
Cu2 O3 1_555 1_555
Cu4 O4 1_555 1_555
Cu5 N1 1_555 1_555
O6 Cu1 1_555 1_555
N2 Cu1 1_555 1_555
C5 C6 1_555 1_555
N1 C13 1_555 1_555
Cu1_2 O1_2 1_555 1_555
O1_2 C7_2 1_555 1_555
O2_2 C7_2 1_555 1_555
O6 C8_2 1_555 1_555
O4_2 C8_2 1_555 1_555
C1_2 C2_2 1_555 1_555
C2_2 H1_2 1_555 1_555
C3_2 C2_2 1_555 1_555
C4_2 C3_2 1_555 1_555
H2_2 C4_2 1_555 1_555
C5_2 C4_2 1_555 1_555
C6_2 C1_2 1_555 1_555
H3_2 C6_2 1_555 1_555
C7_2 C1_2 1_555 1_555
C8_2 C3_2 1_555 1_555
C9_2 C5_2 1_555 1_555
C10_2 C9_2 1_555 1_555
C11_2 C10_2 1_555 1_555
C12_2 C11_2 1_555 1_555
H5_2 C12_2 1_555 1_555
N1_2 C12_2 1_555 1_555
C13_2 C9_2 1_555 1_555
H6_2 C13_2 1_555 1_555
C14_2 C10_2 1_555 1_555
H9_2 C14_2 1_555 1_555
Cu5_2 N1_2 1_555 1_555
O6_2 Cu1_2 1_555 1_555
N2_2 Cu1_2 1_555 1_555
C5_2 C6_2 1_555 1_555
N1_2 C13_2 1_555 1_555
Cu2 O1_3 1_555 1_555
O1_3 C7_3 1_555 1_555
O2_3 C7_3 1_555 1_555
O6_2 C8_3 1_555 1_555
O4_3 C8_3 1_555 1_555
C1_3 C2_3 1_555 1_555
C2_3 H1_3 1_555 1_555
C3_3 C2_3 1_555 1_555
C4_3 C3_3 1_555 1_555
H2_3 C4_3 1_555 1_555
C5_3 C4_3 1_555 1_555
C6_3 C1_3 1_555 1_555
H3_3 C6_3 1_555 1_555
C7_3 C1_3 1_555 1_555
C8_3 C3_3 1_555 1_555
C9_3 C5_3 1_555 1_555
C10_3 C9_3 1_555 1_555
C11_3 C10_3 1_555 1_555
C12_3 C11_3 1_555 1_555
H5_3 C12_3 1_555 1_555
N1_3 C12_3 1_555 1_555
C13_3 C9_3 1_555 1_555
H6_3 C13_3 1_555 1_555
C14_3 C10_3 1_555 1_555
H9_3 C14_3 1_555 1_555
Cu4 O2_3 1_555 1_555
Cu5_3 N1_3 1_555 1_555
O5_3 Cu2 1_555 1_555
O7_3 Cu2 1_555 1_555
N2_3 Cu2 1_555 1_555
C5_3 C6_3 1_555 1_555
N1_3 C13_3 1_555 1_555
Cu3_2 O1_4 1_555 1_555
O1_4 C7_4 1_555 1_555
O5_2 C7_4 1_555 1_555
O3_2 C8_4 1_555 1_555
O7_3 C8_4 1_555 1_555
C1_4 C2_4 1_555 1_555
C2_4 H1_4 1_555 1_555
C3_4 C2_4 1_555 1_555
C4_4 C3_4 1_555 1_555
H2_4 C4_4 1_555 1_555
C5_4 C4_4 1_555 1_555
C6_4 C1_4 1_555 1_555
H3_4 C6_4 1_555 1_555
C7_4 C1_4 1_555 1_555
C8_4 C3_4 1_555 1_555
C9_4 C5_4 1_555 1_555
C10_4 C9_4 1_555 1_555
C11_4 C10_4 1_555 1_555
H4_4 C11_4 1_555 1_555
C12_4 C11_4 1_555 1_555
H5_4 C12_4 1_555 1_555
N1_4 C12_4 1_555 1_555
C13_4 C9_4 1_555 1_555
H6_4 C13_4 1_555 1_555
C14_4 C10_4 1_555 1_555
H7_4 C14_4 1_555 1_555
H8_4 C14_4 1_555 1_555
H9_4 C14_4 1_555 1_555
Cu4 O3_2 1_555 1_555
Cu5_4 N1_4 1_555 1_555
O6_3 Cu3_2 1_555 1_555
N2_4 Cu3_2 1_555 1_555
C5_4 C6_4 1_555 1_555
N1_4 C13_4 1_555 1_555
Cu3 O1_5 1_555 1_555
O1_5 C7_5 1_555 1_555
O5 C7_5 1_555 1_555
O6_3 C8_5 1_555 1_555
O7_2 C8_5 1_555 1_555
C1_5 C2_5 1_555 1_555
C2_5 H1_5 1_555 1_555
C3_5 C2_5 1_555 1_555
C4_5 C3_5 1_555 1_555
H2_5 C4_5 1_555 1_555
C5_5 C4_5 1_555 1_555
C6_5 C1_5 1_555 1_555
H3_5 C6_5 1_555 1_555
C7_5 C1_5 1_555 1_555
C8_5 C3_5 1_555 1_555
C9_5 C5_5 1_555 1_555
C10_5 C9_5 1_555 1_555
C11_5 C10_5 1_555 1_555
C12_5 C11_5 1_555 1_555
H5_5 C12_5 1_555 1_555
N1_5 C12_5 1_555 1_555
C13_5 C9_5 1_555 1_555
H6_5 C13_5 1_555 1_555
C14_5 C10_5 1_555 1_555
H9_5 C14_5 1_555 1_555
Cu5_5 N1_5 1_555 1_555
O6_4 Cu3 1_555 1_555
N2_5 Cu3 1_555 1_555
C5_5 C6_5 1_555 1_555
N1_5 C13_5 1_555 1_555
Cu4 O1_6 1_555 1_555
O1_6 C7_6 1_555 1_555
O5_3 C7_6 1_555 1_555
O6_4 C8_6 1_555 1_555
O7 C8_6 1_555 1_555
C1_6 C2_6 1_555 1_555
C2_6 H1_6 1_555 1_555
C3_6 C2_6 1_555 1_555
C4_6 C3_6 1_555 1_555
H2_6 C4_6 1_555 1_555
C5_6 C4_6 1_555 1_555
C6_6 C1_6 1_555 1_555
H3_6 C6_6 1_555 1_555
C7_6 C1_6 1_555 1_555
C8_6 C3_6 1_555 1_555
C9_6 C5_6 1_555 1_555
C10_6 C9_6 1_555 1_555
C11_6 C10_6 1_555 1_555
C12_6 C11_6 1_555 1_555
H5_6 C12_6 1_555 1_555
N1_6 C12_6 1_555 1_555
C13_6 C9_6 1_555 1_555
H6_6 C13_6 1_555 1_555
C14_6 C10_6 1_555 1_555
H9_6 C14_6 1_555 1_555
Cu5_6 N1_6 1_555 1_555
N2_6 Cu4 1_555 1_555
C5_6 C6_6 1_555 1_555
N1_6 C13_6 1_555 1_555
Cu1_3 O1_7 1_555 1_555
O1_7 C7_7 1_555 1_555
O2_4 C7_7 1_555 1_555
O3_3 C8_7 1_555 1_555
O4_4 C8_7 1_555 1_555
C1_7 C2_7 1_555 1_555
C2_7 H1_7 1_555 1_555
C3_7 C2_7 1_555 1_555
C4_7 C3_7 1_555 1_555
H2_7 C4_7 1_555 1_555
C6_7 C1_7 1_555 1_555
C7_7 C1_7 1_555 1_555
C8_7 C3_7 1_555 1_555
Cu2_2 O3_3 1_555 1_555
Cu3_3 O2_4 1_555 1_555
Cu4_2 O4_4 1_555 1_555
O5_4 Cu1_3 1_555 1_555
O6_5 Cu1_3 1_555 1_555
O7_4 Cu1_3 1_555 1_555
N2_7 Cu1_3 1_555 1_555
C9_7 C5_7 1_555 1_555
C10_7 C9_7 1_555 1_555
C11_7 C10_7 1_555 1_555
H4_7 C11_7 1_555 1_555
C12_7 C11_7 1_555 1_555
H5_7 C12_7 1_555 1_555
N1_7 C12_7 1_555 1_555
C13_7 C9_7 1_555 1_555
C14_7 C10_7 1_555 1_555
H7_7 C14_7 1_555 1_555
H8_7 C14_7 1_555 1_555
H9_7 C14_7 1_555 1_555
Cu5_7 N1_7 1_555 1_555
N1_7 C13_7 1_555 1_555
Cu1_4 O1_8 1_555 1_555
O1_8 C7_8 1_555 1_555
O2_5 C7_8 1_555 1_555
O6_5 C8_8 1_555 1_555
O4_5 C8_8 1_555 1_555
C1_8 C2_8 1_555 1_555
C2_8 H1_8 1_555 1_555
C3_8 C2_8 1_555 1_555
C4_8 C3_8 1_555 1_555
H2_8 C4_8 1_555 1_555
C5_8 C4_8 1_555 1_555
C6_8 C1_8 1_555 1_555
H3_8 C6_8 1_555 1_555
C7_8 C1_8 1_555 1_555
C8_8 C3_8 1_555 1_555
C9_8 C5_8 1_555 1_555
C10_8 C9_8 1_555 1_555
C11_8 C10_8 1_555 1_555
H4_8 C11_8 1_555 1_555
C12_8 C11_8 1_555 1_555
H5_8 C12_8 1_555 1_555
N1_8 C12_8 1_555 1_555
C13_8 C9_8 1_555 1_555
H6_8 C13_8 1_555 1_555
C14_8 C10_8 1_555 1_555
H7_8 C14_8 1_555 1_555
H8_8 C14_8 1_555 1_555
H9_8 C14_8 1_555 1_555
Cu3_4 O2_5 1_555 1_555
Cu3_3 O4_5 1_555 1_555
Cu5_8 N1_8 1_555 1_555
O5_5 Cu1_4 1_555 1_555
O6_6 Cu1_4 1_555 1_555
O7_5 Cu1_4 1_555 1_555
N2_8 Cu1_4 1_555 1_555
C5_8 C6_8 1_555 1_555
N1_8 C13_8 1_555 1_555
C9_9 C5_9 1_555 1_555
C10_9 C9_9 1_555 1_555
C11_9 C10_9 1_555 1_555
H4_9 C11_9 1_555 1_555
C12_9 C11_9 1_555 1_555
H5_9 C12_9 1_555 1_555
N1_9 C12_9 1_555 1_555
C13_9 C9_9 1_555 1_555
C14_9 C10_9 1_555 1_555
H7_9 C14_9 1_555 1_555
H8_9 C14_9 1_555 1_555
H9_9 C14_9 1_555 1_555
Cu5_9 N1_9 1_555 1_555
N1_9 C13_9 1_555 1_555
Cu2_2 O1_9 1_555 1_555
O1_9 C7_9 1_555 1_555
O2_6 C7_9 1_555 1_555
O6_6 C8_9 1_555 1_555
O4_6 C8_9 1_555 1_555
C1_9 C2_9 1_555 1_555
C2_9 H1_9 1_555 1_555
C3_9 C2_9 1_555 1_555
C4_9 C3_9 1_555 1_555
H2_9 C4_9 1_555 1_555
C6_9 C1_9 1_555 1_555
C7_9 C1_9 1_555 1_555
C8_9 C3_9 1_555 1_555
Cu4_2 O2_6 1_555 1_555
Cu3_4 O4_6 1_555 1_555
O5_6 Cu2_2 1_555 1_555
O7_6 Cu2_2 1_555 1_555
N2_9 Cu2_2 1_555 1_555
O3_4 C8_10 1_555 1_555
O7_6 C8_10 1_555 1_555
Cu4_2 O3_4 1_555 1_555
Cu3_4 O1_10 1_555 1_555
O1_10 C7_10 1_555 1_555
O5_5 C7_10 1_555 1_555
C1_10 C2_10 1_555 1_555
C2_10 H1_10 1_555 1_555
C3_10 C2_10 1_555 1_555
C4_10 C3_10 1_555 1_555
H2_10 C4_10 1_555 1_555
C5_10 C4_10 1_555 1_555
C6_10 C1_10 1_555 1_555
H3_10 C6_10 1_555 1_555
C7_10 C1_10 1_555 1_555
C9_10 C5_10 1_555 1_555
C10_10 C9_10 1_555 1_555
C11_10 C10_10 1_555 1_555
H4_10 C11_10 1_555 1_555
C12_10 C11_10 1_555 1_555
H5_10 C12_10 1_555 1_555
N1_10 C12_10 1_555 1_555
C13_10 C9_10 1_555 1_555
H6_10 C13_10 1_555 1_555
C14_10 C10_10 1_555 1_555
H7_10 C14_10 1_555 1_555
H8_10 C14_10 1_555 1_555
H9_10 C14_10 1_555 1_555
Cu5_10 N1_10 1_555 1_555
O6_7 Cu3_4 1_555 1_555
N2_10 Cu3_4 1_555 1_555
C5_10 C6_10 1_555 1_555
N1_10 C13_10 1_555 1_555
Cu3_3 O1_11 1_555 1_555
O1_11 C7_11 1_555 1_555
O5_4 C7_11 1_555 1_555
O6_8 Cu3_3 1_555 1_555
N2_11 Cu3_3 1_555 1_555
C1_11 C2_11 1_555 1_555
C2_11 H1_11 1_555 1_555
C3_11 C2_11 1_555 1_555
C4_11 C3_11 1_555 1_555
H2_11 C4_11 1_555 1_555
C5_11 C4_11 1_555 1_555
C6_11 C1_11 1_555 1_555
H3_11 C6_11 1_555 1_555
C9_11 C5_11 1_555 1_555
C10_11 C9_11 1_555 1_555
C11_11 C10_11 1_555 1_555
H4_11 C11_11 1_555 1_555
C12_11 C11_11 1_555 1_555
H5_11 C12_11 1_555 1_555
N1_11 C12_11 1_555 1_555
C13_11 C9_11 1_555 1_555
H6_11 C13_11 1_555 1_555
C14_11 C10_11 1_555 1_555
H7_11 C14_11 1_555 1_555
H8_11 C14_11 1_555 1_555
H9_11 C14_11 1_555 1_555
Cu5_11 N1_11 1_555 1_555
C5_11 C6_11 1_555 1_555
N1_11 C13_11 1_555 1_555
O6_7 C8_11 1_555 1_555
O7_5 C8_11 1_555 1_555
O6_8 C8_12 1_555 1_555
O7_4 C8_12 1_555 1_555
C1_12 C2_12 1_555 1_555
C2_12 H1_12 1_555 1_555
C3_12 C2_12 1_555 1_555
C4_12 C3_12 1_555 1_555
H2_12 C4_12 1_555 1_555
C5_12 C4_12 1_555 1_555
C6_12 C1_12 1_555 1_555
H3_12 C6_12 1_555 1_555
C8_12 C3_12 1_555 1_555
C9_12 C5_12 1_555 1_555
C10_12 C9_12 1_555 1_555
C11_12 C10_12 1_555 1_555
H4_12 C11_12 1_555 1_555
C12_12 C11_12 1_555 1_555
H5_12 C12_12 1_555 1_555
N1_12 C12_12 1_555 1_555
C13_12 C9_12 1_555 1_555
H6_12 C13_12 1_555 1_555
C14_12 C10_12 1_555 1_555
H7_12 C14_12 1_555 1_555
H8_12 C14_12 1_555 1_555
H9_12 C14_12 1_555 1_555
Cu5_12 N1_12 1_555 1_555
C5_12 C6_12 1_555 1_555
N1_12 C13_12 1_555 1_555
Cu4_2 O1_12 1_555 1_555
O1_12 C7_12 1_555 1_555
O5_6 C7_12 1_555 1_555
N2_12 Cu4_2 1_555 1_555
O3_5 C8_13 1_555 1_555
O4_7 C8_13 1_555 1_555
Cu2_3 O3_5 1_555 1_555
Cu4_3 O4_7 1_555 1_555
C12_13 C11_13 1_555 1_555
H5_13 C12_13 1_555 1_555
N1_13 C12_13 1_555 1_555
H6_13 C13_13 1_555 1_555
Cu5_13 N1_13 1_555 1_555
N1_13 C13_13 1_555 1_555
Cu1_5 O1_13 1_555 1_555
O1_13 C7_13 1_555 1_555
O2_7 C7_13 1_555 1_555
C1_13 C2_13 1_555 1_555
C2_13 H1_13 1_555 1_555
C3_13 C2_13 1_555 1_555
C4_13 C3_13 1_555 1_555
H2_13 C4_13 1_555 1_555
C5_13 C4_13 1_555 1_555
C6_13 C1_13 1_555 1_555
H3_13 C6_13 1_555 1_555
C7_13 C1_13 1_555 1_555
C9_13 C5_13 1_555 1_555
C10_13 C9_13 1_555 1_555
C14_13 C10_13 1_555 1_555
H7_13 C14_13 1_555 1_555
H8_13 C14_13 1_555 1_555
H9_13 C14_13 1_555 1_555
Cu3_5 O2_7 1_555 1_555
O5_7 Cu1_5 1_555 1_555
O6_9 Cu1_5 1_555 1_555
O7_7 Cu1_5 1_555 1_555
N2_13 Cu1_5 1_555 1_555
C5_13 C6_13 1_555 1_555
Cu1_6 O1_14 1_555 1_555
O1_14 C7_14 1_555 1_555
O2_8 C7_14 1_555 1_555
Cu3_6 O2_8 1_555 1_555
O5_8 Cu1_6 1_555 1_555
O6_10 Cu1_6 1_555 1_555
O7_8 Cu1_6 1_555 1_555
N2_14 Cu1_6 1_555 1_555
C12_14 C11_14 1_555 1_555
H5_14 C12_14 1_555 1_555
N1_14 C12_14 1_555 1_555
H6_14 C13_14 1_555 1_555
Cu5_14 N1_14 1_555 1_555
N1_14 C13_14 1_555 1_555
O6_9 C8_14 1_555 1_555
O4_8 C8_14 1_555 1_555
Cu3_5 O4_8 1_555 1_555
C12_15 C11_15 1_555 1_555
H5_15 C12_15 1_555 1_555
N1_15 C12_15 1_555 1_555
H6_15 C13_15 1_555 1_555
Cu5_15 N1_15 1_555 1_555
N1_15 C13_15 1_555 1_555
O6_10 C8_15 1_555 1_555
O4_9 C8_15 1_555 1_555
C1_14 C2_14 1_555 1_555
C2_14 H1_14 1_555 1_555
C3_14 C2_14 1_555 1_555
C4_14 C3_14 1_555 1_555
H2_14 C4_14 1_555 1_555
C5_14 C4_14 1_555 1_555
C6_14 C1_14 1_555 1_555
H3_14 C6_14 1_555 1_555
C8_15 C3_14 1_555 1_555
C9_14 C5_14 1_555 1_555
C10_14 C9_14 1_555 1_555
C14_14 C10_14 1_555 1_555
H7_14 C14_14 1_555 1_555
H8_14 C14_14 1_555 1_555
H9_14 C14_14 1_555 1_555
Cu3_6 O4_9 1_555 1_555
C5_14 C6_14 1_555 1_555
Cu2_3 O1_15 1_555 1_555
O1_15 C7_15 1_555 1_555
O2_9 C7_15 1_555 1_555
Cu4_3 O2_9 1_555 1_555
O5_9 Cu2_3 1_555 1_555
O7_9 Cu2_3 1_555 1_555
N2_15 Cu2_3 1_555 1_555
Cu3_6 O1_16 1_555 1_555
O1_16 C7_16 1_555 1_555
O5_8 C7_16 1_555 1_555
O3_6 C8_16 1_555 1_555
O7_9 C8_16 1_555 1_555
C1_15 C2_15 1_555 1_555
C2_15 H1_15 1_555 1_555
C3_15 C2_15 1_555 1_555
C4_15 C3_15 1_555 1_555
H2_15 C4_15 1_555 1_555
C6_15 C1_15 1_555 1_555
C7_16 C1_15 1_555 1_555
C8_16 C3_15 1_555 1_555
Cu4_3 O3_6 1_555 1_555
O6_11 Cu3_6 1_555 1_555
N2_16 Cu3_6 1_555 1_555
C9_15 C5_15 1_555 1_555
C10_15 C9_15 1_555 1_555
C11_16 C10_15 1_555 1_555
H4_15 C11_16 1_555 1_555
C12_16 C11_16 1_555 1_555
H5_16 C12_16 1_555 1_555
N1_16 C12_16 1_555 1_555
C13_16 C9_15 1_555 1_555
C14_15 C10_15 1_555 1_555
H7_15 C14_15 1_555 1_555
H8_15 C14_15 1_555 1_555
H9_15 C14_15 1_555 1_555
Cu5_16 N1_16 1_555 1_555
N1_16 C13_16 1_555 1_555
Cu3_5 O1_17 1_555 1_555
O1_17 C7_17 1_555 1_555
O5_7 C7_17 1_555 1_555
O6_11 C8_17 1_555 1_555
O7_8 C8_17 1_555 1_555
C1_16 C2_16 1_555 1_555
C2_16 H1_16 1_555 1_555
C3_16 C2_16 1_555 1_555
C4_16 C3_16 1_555 1_555
H2_16 C4_16 1_555 1_555
C5_16 C4_16 1_555 1_555
C6_16 C1_16 1_555 1_555
H3_16 C6_16 1_555 1_555
C7_17 C1_16 1_555 1_555
C8_17 C3_16 1_555 1_555
C9_16 C5_16 1_555 1_555
C10_16 C9_16 1_555 1_555
C11_17 C10_16 1_555 1_555
H4_16 C11_17 1_555 1_555
C12_17 C11_17 1_555 1_555
H5_17 C12_17 1_555 1_555
N1_17 C12_17 1_555 1_555
C13_17 C9_16 1_555 1_555
H6_17 C13_17 1_555 1_555
C14_16 C10_16 1_555 1_555
H7_16 C14_16 1_555 1_555
H8_16 C14_16 1_555 1_555
H9_16 C14_16 1_555 1_555
Cu5_17 N1_17 1_555 1_555
O6_12 Cu3_5 1_555 1_555
N2_17 Cu3_5 1_555 1_555
C5_16 C6_16 1_555 1_555
N1_17 C13_17 1_555 1_555
C9_17 C5_17 1_555 1_555
C10_17 C9_17 1_555 1_555
C11_18 C10_17 1_555 1_555
H4_17 C11_18 1_555 1_555
C12_18 C11_18 1_555 1_555
H5_18 C12_18 1_555 1_555
N1_18 C12_18 1_555 1_555
C13_18 C9_17 1_555 1_555
C14_17 C10_17 1_555 1_555
H7_17 C14_17 1_555 1_555
H8_17 C14_17 1_555 1_555
H9_17 C14_17 1_555 1_555
Cu5_18 N1_18 1_555 1_555
N1_18 C13_18 1_555 1_555
Cu4_3 O1_18 1_555 1_555
O1_18 C7_18 1_555 1_555
O5_9 C7_18 1_555 1_555
O6_12 C8_18 1_555 1_555
O7_7 C8_18 1_555 1_555
C1_17 C2_17 1_555 1_555
C2_17 H1_17 1_555 1_555
C3_17 C2_17 1_555 1_555
C4_17 C3_17 1_555 1_555
H2_17 C4_17 1_555 1_555
C6_17 C1_17 1_555 1_555
C7_18 C1_17 1_555 1_555
C8_18 C3_17 1_555 1_555
N2_18 Cu4_3 1_555 1_555
Cu5_16 O1_19 1_555 1_555
O1_19 C7_19 1_555 1_555
O2_10 C7_19 1_555 1_555
O3_7 C8_19 1_555 1_555
O4_10 C8_19 1_555 1_555
C1_18 C2_18 1_555 1_555
C2_18 H1_18 1_555 1_555
C3_18 C2_18 1_555 1_555
C4_18 C3_18 1_555 1_555
H2_18 C4_18 1_555 1_555
C5_18 C4_18 1_555 1_555
C6_18 C1_18 1_555 1_555
H3_18 C6_18 1_555 1_555
C7_19 C1_18 1_555 1_555
C8_19 C3_18 1_555 1_555
C9_18 C5_18 1_555 1_555
C10_18 C9_18 1_555 1_555
C11_19 C10_18 1_555 1_555
H4_18 C11_19 1_555 1_555
C12_19 C11_19 1_555 1_555
H5_19 C12_19 1_555 1_555
N2_10 C12_19 1_555 1_555
C13_19 C9_18 1_555 1_555
H6_19 C13_19 1_555 1_555
C14_18 C10_18 1_555 1_555
H7_18 C14_18 1_555 1_555
H8_18 C14_18 1_555 1_555
H9_18 C14_18 1_555 1_555
Cu5_17 O3_7 1_555 1_555
Cu5_8 O4_10 1_555 1_555
O6_13 Cu5_16 1_555 1_555
C5_18 C6_18 1_555 1_555
N2_10 C13_19 1_555 1_555
Cu5_18 O1_20 1_555 1_555
O1_20 C7_20 1_555 1_555
O2_11 C7_20 1_555 1_555
O6_13 C8_20 1_555 1_555
O4_11 C8_20 1_555 1_555
C1_19 C2_19 1_555 1_555
C2_19 H1_19 1_555 1_555
C3_19 C2_19 1_555 1_555
C4_19 C3_19 1_555 1_555
H2_19 C4_19 1_555 1_555
C5_19 C4_19 1_555 1_555
C6_19 C1_19 1_555 1_555
H3_19 C6_19 1_555 1_555
C7_20 C1_19 1_555 1_555
C8_20 C3_19 1_555 1_555
C9_19 C5_19 1_555 1_555
C10_19 C9_19 1_555 1_555
C11_20 C10_19 1_555 1_555
C12_20 C11_20 1_555 1_555
H5_20 C12_20 1_555 1_555
N2_12 C12_20 1_555 1_555
C13_20 C9_19 1_555 1_555
H6_20 C13_20 1_555 1_555
C14_19 C10_19 1_555 1_555
H9_19 C14_19 1_555 1_555
O6_14 Cu5_18 1_555 1_555
C5_19 C6_19 1_555 1_555
N2_12 C13_20 1_555 1_555
Cu5_17 O1_21 1_555 1_555
O1_21 C7_21 1_555 1_555
O2_12 C7_21 1_555 1_555
O6_14 C8_21 1_555 1_555
O4_12 C8_21 1_555 1_555
C1_20 C2_20 1_555 1_555
C2_20 H1_20 1_555 1_555
C3_20 C2_20 1_555 1_555
C4_20 C3_20 1_555 1_555
H2_20 C4_20 1_555 1_555
C5_20 C4_20 1_555 1_555
C6_20 C1_20 1_555 1_555
H3_20 C6_20 1_555 1_555
C7_21 C1_20 1_555 1_555
C8_21 C3_20 1_555 1_555
C9_20 C5_20 1_555 1_555
C10_20 C9_20 1_555 1_555
C11_21 C10_20 1_555 1_555
C12_21 C11_21 1_555 1_555
H5_21 C12_21 1_555 1_555
N2_11 C12_21 1_555 1_555
C13_21 C9_20 1_555 1_555
H6_21 C13_21 1_555 1_555
C14_20 C10_20 1_555 1_555
H9_20 C14_20 1_555 1_555
Cu5_8 O2_12 1_555 1_555
O5_12 Cu5_17 1_555 1_555
O7_12 Cu5_17 1_555 1_555
C5_20 C6_20 1_555 1_555
N2_11 C13_21 1_555 1_555
Cu5_7 O1_22 1_555 1_555
O1_22 C7_22 1_555 1_555
O5_11 C7_22 1_555 1_555
O3_8 C8_22 1_555 1_555
O7_12 C8_22 1_555 1_555
C1_21 C2_21 1_555 1_555
C2_21 H1_21 1_555 1_555
C3_21 C2_21 1_555 1_555
C4_21 C3_21 1_555 1_555
H2_21 C4_21 1_555 1_555
C5_21 C4_21 1_555 1_555
C6_21 C1_21 1_555 1_555
H3_21 C6_21 1_555 1_555
C7_22 C1_21 1_555 1_555
C8_22 C3_21 1_555 1_555
C9_21 C5_21 1_555 1_555
C10_21 C9_21 1_555 1_555
C11_22 C10_21 1_555 1_555
H4_21 C11_22 1_555 1_555
C12_22 C11_22 1_555 1_555
H5_22 C12_22 1_555 1_555
N2_13 C12_22 1_555 1_555
C13_22 C9_21 1_555 1_555
H6_22 C13_22 1_555 1_555
C14_21 C10_21 1_555 1_555
H7_21 C14_21 1_555 1_555
H8_21 C14_21 1_555 1_555
H9_21 C14_21 1_555 1_555
Cu5_8 O3_8 1_555 1_555
O6_15 Cu5_7 1_555 1_555
C5_21 C6_21 1_555 1_555
N2_13 C13_22 1_555 1_555
Cu5_9 O1_23 1_555 1_555
O1_23 C7_23 1_555 1_555
O5_10 C7_23 1_555 1_555
O6_15 C8_23 1_555 1_555
O7_11 C8_23 1_555 1_555
C1_22 C2_22 1_555 1_555
C2_22 H1_22 1_555 1_555
C3_22 C2_22 1_555 1_555
C4_22 C3_22 1_555 1_555
H2_22 C4_22 1_555 1_555
C5_22 C4_22 1_555 1_555
C6_22 C1_22 1_555 1_555
H3_22 C6_22 1_555 1_555
C7_23 C1_22 1_555 1_555
C8_23 C3_22 1_555 1_555
C9_22 C5_22 1_555 1_555
C10_22 C9_22 1_555 1_555
C11_23 C10_22 1_555 1_555
C12_23 C11_23 1_555 1_555
H5_23 C12_23 1_555 1_555
N2_15 C12_23 1_555 1_555
C13_23 C9_22 1_555 1_555
H6_23 C13_23 1_555 1_555
C14_22 C10_22 1_555 1_555
H9_22 C14_22 1_555 1_555
O6_16 Cu5_9 1_555 1_555
C5_22 C6_22 1_555 1_555
N2_15 C13_23 1_555 1_555
Cu5_8 O1_24 1_555 1_555
O1_24 C7_24 1_555 1_555
O5_12 C7_24 1_555 1_555
O6_16 C8_24 1_555 1_555
O7_10 C8_24 1_555 1_555
C1_23 C2_23 1_555 1_555
C2_23 H1_23 1_555 1_555
C3_23 C2_23 1_555 1_555
C4_23 C3_23 1_555 1_555
H2_23 C4_23 1_555 1_555
C5_23 C4_23 1_555 1_555
C6_23 C1_23 1_555 1_555
H3_23 C6_23 1_555 1_555
C7_24 C1_23 1_555 1_555
C8_24 C3_23 1_555 1_555
C9_23 C5_23 1_555 1_555
C10_23 C9_23 1_555 1_555
C11_24 C10_23 1_555 1_555
C12_24 C11_24 1_555 1_555
H5_24 C12_24 1_555 1_555
N2_14 C12_24 1_555 1_555
C13_24 C9_23 1_555 1_555
H6_24 C13_24 1_555 1_555
C14_23 C10_23 1_555 1_555
H9_23 C14_23 1_555 1_555
C5_23 C6_23 1_555 1_555
N2_14 C13_24 1_555 1_555
C9_24 C5_24 1_555 1_555
C10_24 C9_24 1_555 1_555
C11_25 C10_24 1_555 1_555
H4_24 C11_25 1_555 1_555
C12_25 C11_25 1_555 1_555
H5_25 C12_25 1_555 1_555
N2_4 C12_25 1_555 1_555
C13_25 C9_24 1_555 1_555
C14_24 C10_24 1_555 1_555
H7_24 C14_24 1_555 1_555
H8_24 C14_24 1_555 1_555
H9_24 C14_24 1_555 1_555
N2_4 C13_25 1_555 1_555
Cu5_10 O1_25 1_555 1_555
O1_25 C7_25 1_555 1_555
O2_13 C7_25 1_555 1_555
O3_9 C8_25 1_555 1_555
O4_13 C8_25 1_555 1_555
C1_24 C2_24 1_555 1_555
C2_24 H1_24 1_555 1_555
C3_24 C2_24 1_555 1_555
C4_24 C3_24 1_555 1_555
H2_24 C4_24 1_555 1_555
C6_24 C1_24 1_555 1_555
C7_25 C1_24 1_555 1_555
C8_25 C3_24 1_555 1_555
Cu5_11 O3_9 1_555 1_555
Cu5_3 O2_13 1_555 1_555
Cu5_2 O4_13 1_555 1_555
O5_13 Cu5_10 1_555 1_555
O6_17 Cu5_10 1_555 1_555
O7_13 Cu5_10 1_555 1_555
Cu5_12 O1_26 1_555 1_555
O1_26 C7_26 1_555 1_555
O2_14 C7_26 1_555 1_555
O6_17 C8_26 1_555 1_555
O4_14 C8_26 1_555 1_555
C1_25 C2_25 1_555 1_555
C2_25 H1_25 1_555 1_555
C3_25 C2_25 1_555 1_555
C4_25 C3_25 1_555 1_555
H2_25 C4_25 1_555 1_555
C5_25 C4_25 1_555 1_555
C6_25 C1_25 1_555 1_555
H3_25 C6_25 1_555 1_555
C7_26 C1_25 1_555 1_555
C8_26 C3_25 1_555 1_555
C9_25 C5_25 1_555 1_555
C10_25 C9_25 1_555 1_555
C11_26 C10_25 1_555 1_555
H4_25 C11_26 1_555 1_555
C12_26 C11_26 1_555 1_555
H5_26 C12_26 1_555 1_555
N2_6 C12_26 1_555 1_555
C13_26 C9_25 1_555 1_555
H6_26 C13_26 1_555 1_555
C14_25 C10_25 1_555 1_555
H7_25 C14_25 1_555 1_555
H8_25 C14_25 1_555 1_555
H9_25 C14_25 1_555 1_555
Cu5 O2_14 1_555 1_555
Cu5_3 O4_14 1_555 1_555
O5_14 Cu5_12 1_555 1_555
O6_18 Cu5_12 1_555 1_555
O7_14 Cu5_12 1_555 1_555
C5_25 C6_25 1_555 1_555
N2_6 C13_26 1_555 1_555
Cu5_11 O1_27 1_555 1_555
O1_27 C7_27 1_555 1_555
O2_15 C7_27 1_555 1_555
O6_18 C8_27 1_555 1_555
O4_15 C8_27 1_555 1_555
C1_26 C2_26 1_555 1_555
C2_26 H1_26 1_555 1_555
C3_26 C2_26 1_555 1_555
C4_26 C3_26 1_555 1_555
H2_26 C4_26 1_555 1_555
C6_26 C1_26 1_555 1_555
C7_27 C1_26 1_555 1_555
C8_27 C3_26 1_555 1_555
Cu5_2 O2_15 1_555 1_555
Cu5 O4_15 1_555 1_555
O5_15 Cu5_11 1_555 1_555
O7_15 Cu5_11 1_555 1_555
C9_26 C5_26 1_555 1_555
C10_26 C9_26 1_555 1_555
C11_27 C10_26 1_555 1_555
H4_26 C11_27 1_555 1_555
C12_27 C11_27 1_555 1_555
H5_27 C12_27 1_555 1_555
N2_5 C12_27 1_555 1_555
C13_27 C9_26 1_555 1_555
C14_26 C10_26 1_555 1_555
H7_26 C14_26 1_555 1_555
H8_26 C14_26 1_555 1_555
H9_26 C14_26 1_555 1_555
N2_5 C13_27 1_555 1_555
Cu5 O1_28 1_555 1_555
O1_28 C7_28 1_555 1_555
O5_14 C7_28 1_555 1_555
C1_27 C2_27 1_555 1_555
C2_27 H1_27 1_555 1_555
C3_27 C2_27 1_555 1_555
C4_27 C3_27 1_555 1_555
H2_27 C4_27 1_555 1_555
C5_27 C4_27 1_555 1_555
C6_27 C1_27 1_555 1_555
H3_27 C6_27 1_555 1_555
C7_28 C1_27 1_555 1_555
C9_27 C5_27 1_555 1_555
C10_27 C9_27 1_555 1_555
C11_28 C10_27 1_555 1_555
H4_27 C11_28 1_555 1_555
C12_28 C11_28 1_555 1_555
H5_28 C12_28 1_555 1_555
N2_7 C12_28 1_555 1_555
C13_28 C9_27 1_555 1_555
H6_28 C13_28 1_555 1_555
C14_27 C10_27 1_555 1_555
H7_27 C14_27 1_555 1_555
H8_27 C14_27 1_555 1_555
H9_27 C14_27 1_555 1_555
O6_19 Cu5 1_555 1_555
C5_27 C6_27 1_555 1_555
N2_7 C13_28 1_555 1_555
O3_10 C8_28 1_555 1_555
O7_15 C8_28 1_555 1_555
Cu5_2 O3_10 1_555 1_555
O6_19 C8_29 1_555 1_555
O7_14 C8_29 1_555 1_555
C1_28 C2_28 1_555 1_555
C2_28 H1_28 1_555 1_555
C3_28 C2_28 1_555 1_555
C4_28 C3_28 1_555 1_555
H2_28 C4_28 1_555 1_555
C5_28 C4_28 1_555 1_555
C6_28 C1_28 1_555 1_555
H3_28 C6_28 1_555 1_555
C9_28 C5_28 1_555 1_555
C10_28 C9_28 1_555 1_555
C11_29 C10_28 1_555 1_555
H4_28 C11_29 1_555 1_555
C12_29 C11_29 1_555 1_555
H5_29 C12_29 1_555 1_555
N2_9 C12_29 1_555 1_555
C13_29 C9_28 1_555 1_555
H6_29 C13_29 1_555 1_555
C14_28 C10_28 1_555 1_555
H7_28 C14_28 1_555 1_555
H8_28 C14_28 1_555 1_555
H9_28 C14_28 1_555 1_555
C5_28 C6_28 1_555 1_555
N2_9 C13_29 1_555 1_555
Cu5_3 O1_29 1_555 1_555
O1_29 C7_29 1_555 1_555
O5_13 C7_29 1_555 1_555
O6_20 Cu5_3 1_555 1_555
Cu5_2 O1_30 1_555 1_555
O1_30 C7_30 1_555 1_555
O5_15 C7_30 1_555 1_555
O6_20 C8_30 1_555 1_555
O7_13 C8_30 1_555 1_555
C1_29 C2_29 1_555 1_555
C2_29 H1_29 1_555 1_555
C3_29 C2_29 1_555 1_555
C4_29 C3_29 1_555 1_555
H2_29 C4_29 1_555 1_555
C5_29 C4_29 1_555 1_555
C6_29 C1_29 1_555 1_555
H3_29 C6_29 1_555 1_555
C8_30 C3_29 1_555 1_555
C9_29 C5_29 1_555 1_555
C10_29 C9_29 1_555 1_555
C11_30 C10_29 1_555 1_555
H4_29 C11_30 1_555 1_555
C12_30 C11_30 1_555 1_555
H5_30 C12_30 1_555 1_555
N2_8 C12_30 1_555 1_555
C13_30 C9_29 1_555 1_555
H6_30 C13_30 1_555 1_555
C14_29 C10_29 1_555 1_555
H7_29 C14_29 1_555 1_555
H8_29 C14_29 1_555 1_555
H9_29 C14_29 1_555 1_555
C5_29 C6_29 1_555 1_555
N2_8 C13_30 1_555 1_555
Cu5_4 O1_31 1_555 1_555
O1_31 C7_31 1_555 1_555
O2_16 C7_31 1_555 1_555
C1_30 C2_30 1_555 1_555
C2_30 H1_30 1_555 1_555
C3_30 C2_30 1_555 1_555
C4_30 C3_30 1_555 1_555
H2_30 C4_30 1_555 1_555
C5_30 C4_30 1_555 1_555
C6_30 C1_30 1_555 1_555
H3_30 C6_30 1_555 1_555
C7_31 C1_30 1_555 1_555
C9_30 C5_30 1_555 1_555
C10_30 C9_30 1_555 1_555
C14_30 C10_30 1_555 1_555
H7_30 C14_30 1_555 1_555
H8_30 C14_30 1_555 1_555
H9_30 C14_30 1_555 1_555
Cu5_15 O2_16 1_555 1_555
O5_16 Cu5_4 1_555 1_555
O6_21 Cu5_4 1_555 1_555
O7_16 Cu5_4 1_555 1_555
C5_30 C6_30 1_555 1_555
C12_31 C11_31 1_555 1_555
H5_31 C12_31 1_555 1_555
N2_16 C12_31 1_555 1_555
H6_31 C13_31 1_555 1_555
N2_16 C13_31 1_555 1_555
O3_11 C8_31 1_555 1_555
O4_16 C8_31 1_555 1_555
Cu5_5 O3_11 1_555 1_555
Cu5_14 O4_16 1_555 1_555
O6_21 C8_32 1_555 1_555
O4_17 C8_32 1_555 1_555
Cu5_15 O4_17 1_555 1_555
C12_32 C11_32 1_555 1_555
H5_32 C12_32 1_555 1_555
N2_18 C12_32 1_555 1_555
H6_32 C13_32 1_555 1_555
N2_18 C13_32 1_555 1_555
Cu5_6 O1_32 1_555 1_555
O1_32 C7_32 1_555 1_555
O2_17 C7_32 1_555 1_555
Cu5_13 O2_17 1_555 1_555
O5_17 Cu5_6 1_555 1_555
O6_22 Cu5_6 1_555 1_555
O7_17 Cu5_6 1_555 1_555
Cu5_5 O1_33 1_555 1_555
O1_33 C7_33 1_555 1_555
O2_18 C7_33 1_555 1_555
Cu5_14 O2_18 1_555 1_555
O5_18 Cu5_5 1_555 1_555
O7_18 Cu5_5 1_555 1_555
O6_22 C8_33 1_555 1_555
O4_18 C8_33 1_555 1_555
C1_31 C2_31 1_555 1_555
C2_31 H1_31 1_555 1_555
C3_31 C2_31 1_555 1_555
C4_31 C3_31 1_555 1_555
H2_31 C4_31 1_555 1_555
C5_31 C4_31 1_555 1_555
C6_31 C1_31 1_555 1_555
H3_31 C6_31 1_555 1_555
C8_33 C3_31 1_555 1_555
C9_31 C5_31 1_555 1_555
C10_31 C9_31 1_555 1_555
C14_31 C10_31 1_555 1_555
H7_31 C14_31 1_555 1_555
H8_31 C14_31 1_555 1_555
H9_31 C14_31 1_555 1_555
Cu5_13 O4_18 1_555 1_555
C5_31 C6_31 1_555 1_555
C12_33 C11_33 1_555 1_555
H5_33 C12_33 1_555 1_555
N2_17 C12_33 1_555 1_555
H6_33 C13_33 1_555 1_555
N2_17 C13_33 1_555 1_555
C9_32 C5_32 1_555 1_555
C10_32 C9_32 1_555 1_555
C11_34 C10_32 1_555 1_555
H4_32 C11_34 1_555 1_555
C12_34 C11_34 1_555 1_555
H5_34 C12_34 1_555 1_555
N2 C12_34 1_555 1_555
C13_34 C9_32 1_555 1_555
C14_32 C10_32 1_555 1_555
H7_32 C14_32 1_555 1_555
H8_32 C14_32 1_555 1_555
H9_32 C14_32 1_555 1_555
N2 C13_34 1_555 1_555
Cu5_13 O1_34 1_555 1_555
O1_34 C7_34 1_555 1_555
O5_17 C7_34 1_555 1_555
O3_12 C8_34 1_555 1_555
O7_18 C8_34 1_555 1_555
C1_32 C2_32 1_555 1_555
C2_32 H1_32 1_555 1_555
C3_32 C2_32 1_555 1_555
C4_32 C3_32 1_555 1_555
H2_32 C4_32 1_555 1_555
C6_32 C1_32 1_555 1_555
C7_34 C1_32 1_555 1_555
C8_34 C3_32 1_555 1_555
Cu5_14 O3_12 1_555 1_555
O6_23 Cu5_13 1_555 1_555
Cu5_15 O1_35 1_555 1_555
O1_35 C7_35 1_555 1_555
O5_16 C7_35 1_555 1_555
O6_23 C8_35 1_555 1_555
O7_17 C8_35 1_555 1_555
C1_33 C2_33 1_555 1_555
C2_33 H1_33 1_555 1_555
C3_33 C2_33 1_555 1_555
C4_33 C3_33 1_555 1_555
H2_33 C4_33 1_555 1_555
C5_33 C4_33 1_555 1_555
C6_33 C1_33 1_555 1_555
H3_33 C6_33 1_555 1_555
C7_35 C1_33 1_555 1_555
C8_35 C3_33 1_555 1_555
C9_33 C5_33 1_555 1_555
C10_33 C9_33 1_555 1_555
C11_35 C10_33 1_555 1_555
H4_33 C11_35 1_555 1_555
C12_35 C11_35 1_555 1_555
H5_35 C12_35 1_555 1_555
N2_3 C12_35 1_555 1_555
C13_35 C9_33 1_555 1_555
H6_35 C13_35 1_555 1_555
C14_33 C10_33 1_555 1_555
H7_33 C14_33 1_555 1_555
H8_33 C14_33 1_555 1_555
H9_33 C14_33 1_555 1_555
O6_24 Cu5_15 1_555 1_555
C5_33 C6_33 1_555 1_555
N2_3 C13_35 1_555 1_555
Cu5_14 O1_36 1_555 1_555
O1_36 C7_36 1_555 1_555
O5_18 C7_36 1_555 1_555
O6_24 C8_36 1_555 1_555
O7_16 C8_36 1_555 1_555
C1_34 C2_34 1_555 1_555
C2_34 H1_34 1_555 1_555
C3_34 C2_34 1_555 1_555
C4_34 C3_34 1_555 1_555
H2_34 C4_34 1_555 1_555
C6_34 C1_34 1_555 1_555
C7_36 C1_34 1_555 1_555
C8_36 C3_34 1_555 1_555
C9_34 C5_34 1_555 1_555
C10_34 C9_34 1_555 1_555
C11_36 C10_34 1_555 1_555
H4_34 C11_36 1_555 1_555
C12_36 C11_36 1_555 1_555
H5_36 C12_36 1_555 1_555
N2_2 C12_36 1_555 1_555
C13_36 C9_34 1_555 1_555
C14_34 C10_34 1_555 1_555
H7_34 C14_34 1_555 1_555
H8_34 C14_34 1_555 1_555
H9_34 C14_34 1_555 1_555
N2_2 C13_36 1_555 1_555
C1_35 C2_35 1_555 1_555
C2_35 H1_35 1_555 1_555
C3_35 C2_35 1_555 1_555
C4_35 C3_35 1_555 1_555
H2_35 C4_35 1_555 1_555
C5_35 C4_35 1_555 1_555
C6_35 C1_35 1_555 1_555
H3_35 C6_35 1_555 1_555
C9_35 C5_35 1_555 1_555
C10_35 C9_35 1_555 1_555
C14_35 C10_35 1_555 1_555
H7_35 C14_35 1_555 1_555
H8_35 C14_35 1_555 1_555
H9_35 C14_35 1_555 1_555
C5_35 C6_35 1_555 1_555
C1_36 C2_36 1_555 1_555
C2_36 H1_36 1_555 1_555
C3_36 C2_36 1_555 1_555
C4_36 C3_36 1_555 1_555
H2_36 C4_36 1_555 1_555
C5_36 C4_36 1_555 1_555
C6_36 C1_36 1_555 1_555
H3_36 C6_36 1_555 1_555
C9_36 C5_36 1_555 1_555
C10_36 C9_36 1_555 1_555
C14_36 C10_36 1_555 1_555
H7_36 C14_36 1_555 1_555
H8_36 C14_36 1_555 1_555
H9_36 C14_36 1_555 1_555
C5_36 C6_36 1_555 1_555

#END
