
###############################################################################
#
# This file contains modified crystal structure data generated from the
# MOF subset of the Cambridge Structural Database (CSD) v543 
# hosted by the Cambridge Crystallographic Data Centre (CCDC).
#
# This work is licensed under the Creative Commons
# Attribution-NonCommercial-ShareAlike 4.0 International License.
# To view a copy of this license, visit
# http://creativecommons.org/licenses/by-nc-sa/4.0/
# or send a letter to
# Creative Commons, PO Box 1866, Mountain View, CA 94042, USA.
#
# CIF created using the CSD Python API on 29 September 2022
# The structure has been converted into the P1 space group
# The structure has a 3D framework
# The original CSD entry UMEKEE is in the orthorhombic crystal system
# The framework has been calculated to contain at least 10.0% void space
# The void calculation uses a probe of radius 1.32A, grid spacing 0.4
#
###############################################################################

data_UMEKEE
_chemical_formula_moiety         '(C68 H80 N64 O16 Zn8)n'
_symmetry_cell_setting           triclinic
_symmetry_space_group_name_H-M   'P 1'
_symmetry_Int_Tables_number      1
_space_group_name_Hall           'P 1'
loop_
_symmetry_equiv_pos_site_id
_symmetry_equiv_pos_as_xyz
1 x,y,z
_cell_length_a                   31.928(17)
_cell_length_b                   16.003(8)
_cell_length_c                   10.329(5)
_cell_angle_alpha                90
_cell_angle_beta                 90
_cell_angle_gamma                90
_cell_volume                     5277.54
loop_
_atom_site_label
_atom_site_type_symbol
_atom_site_fract_x
_atom_site_fract_y
_atom_site_fract_z
N1 N 0.4766(7) 0.2500 0.608(2)
H1 H 0.4615 0.2952 0.5857
C1 C 0.5013(8) 0.2500 0.7320(18)
H2 H 0.4739 0.2500 0.7704
H3 H 0.5163 0.2010 0.7591
C2 C 0.4973(7) 0.2500 0.4794(18)
H4 H 0.4899 0.2500 0.3893
H5 H 0.5135 0.2990 0.4987
H6 H 0.4615 0.2048 0.5857
H7 H 0.5163 0.2990 0.7591
H8 H 0.5135 0.2010 0.4987
N1_2 N 0.0234(7) 0.7500 0.108(2)
H1_2 H 0.0385 0.7048 0.0857
H2_2 H 0.0261 0.7500 0.2704
H6_2 H 0.0385 0.7952 0.0857
C2_2 C 0.0027(7) 0.7500 0.9794(18)
H4_2 H 0.0101 0.7500 0.8893
C1_2 C 0.9987(8) 0.7500 0.2320(18)
H3_2 H 0.9837 0.7990 0.2591
H7_2 H 0.9837 0.7010 0.2591
H5_2 H 0.9865 0.7010 0.9987
H8_2 H 0.9865 0.7990 0.9987
N1_3 N 0.5234(7) 0.7500 0.392(2)
H1_3 H 0.5385 0.7952 0.4143
C1_3 C 0.4987(8) 0.7500 0.2680(18)
H2_3 H 0.5261 0.7500 0.2296
H3_3 H 0.4837 0.7010 0.2409
C2_3 C 0.5027(7) 0.7500 0.5206(18)
H4_3 H 0.5101 0.7500 0.6107
H5_3 H 0.4865 0.7990 0.5013
H6_3 H 0.5385 0.7048 0.4143
H7_3 H 0.4837 0.7990 0.2409
H8_3 H 0.4865 0.7010 0.5013
H5_4 H 0.0135 0.2010 0.0013
H8_4 H 0.0135 0.2990 0.0013
C1_4 C 0.0013(8) 0.2500 0.7680(18)
H3_4 H 0.0163 0.2990 0.7409
H7_4 H 0.0163 0.2010 0.7409
C2_4 C 0.9973(7) 0.2500 0.0206(18)
H4_4 H 0.9899 0.2500 0.1107
N1_4 N 0.9766(7) 0.2500 0.892(2)
H1_4 H 0.9615 0.2048 0.9143
H2_4 H 0.9739 0.2500 0.7296
H6_4 H 0.9615 0.2952 0.9143
Zn1 Zn 0.293468(13) 0.05792(3) 0.39859(4)
N2 N 0.28311(10) 0.1803(2) 0.4080(3)
C3 C 0.37637(12) 0.0443(3) 0.4815(5)
O1 O 0.36358(9) 0.0809(2) 0.5835(3)
C4 C 0.42213(11) 0.0221(3) 0.4676(4)
N3 N 0.24710(12) 0.2090(3) 0.3461(5)
N4 N 0.34162(17) 0.2500 0.5063(6)
H9 H 0.3541 0.2013 0.5264
N5 N 0.26039(9) 0.0038(2) 0.5404(3)
C6 C 0.44874(14) 0.0330(4) 0.5705(5)
H11 H 0.4381 0.0521 0.6489
C7 C 0.49234(13) 0.0149(3) 0.5596(4)
C8 C 0.51988(15) 0.0224(5) 0.6643(6)
H12 H 0.5097 0.0388 0.7447
C9 C 0.30371(18) 0.2500 0.4436(6)
N9 N 0.28857(11) 0.0638(3) 0.7361(4)
H13 H 0.2856 0.0706 0.8221
H14 H 0.3097 0.0891 0.6941
C10 C 0.26099(11) 0.0144(3) 0.6699(3)
O2 O 0.35261(9) 0.0266(3) 0.3857(3)
N10 N 0.28311(10) 0.3197(2) 0.4080(3)
N11 N 0.24710(12) 0.2910(3) 0.3461(5)
H15 H 0.3541 0.2987 0.5264
C13 C 0.56221(15) 0.0052(5) 0.6504(6)
H16 H 0.5803 0.0123 0.7202
N13 N 0.77322(11) 0.0452(3) 0.4856(3)
N14 N 0.79244(12) 0.0636(3) 0.3784(4)
N15 N 0.77170(10) 0.0266(2) 0.2767(3)
Zn4 Zn 0.793468(13) 0.05792(3) 0.10141(4)
Zn5 Zn 0.293468(13) 0.44208(3) 0.39859(4)
N18 N 0.27170(10) 0.0266(2) 0.2233(3)
C5 C 0.43779(15) 0.9948(5) 0.3496(6)
H10 H 0.4197 0.9877 0.2798
N6 N 0.22678(11) 0.9548(3) 0.5144(3)
N7 N 0.20756(12) 0.9364(3) 0.6216(4)
N8 N 0.22830(10) 0.9734(2) 0.7233(3)
C11 C 0.62363(12) 0.9557(3) 0.5185(5)
O3 O 0.63642(9) 0.9191(2) 0.4165(3)
C12 C 0.57787(11) 0.9779(3) 0.5324(4)
C14 C 0.55126(14) 0.9670(4) 0.4295(5)
H17 H 0.5619 0.9479 0.3511
C15 C 0.50766(13) 0.9851(3) 0.4404(4)
C16 C 0.48012(15) 0.9776(5) 0.3357(6)
H18 H 0.4903 0.9612 0.2553
O4 O 0.64739(9) 0.9734(3) 0.6143(3)
Zn2 Zn 0.706532(13) 0.94208(3) 0.60141(4)
N12 N 0.73961(9) 0.9962(2) 0.4596(3)
N16 N 0.71143(11) 0.9362(3) 0.2639(4)
H19 H 0.7144 0.9294 0.1779
H20 H 0.6903 0.9109 0.3059
C17 C 0.73901(11) 0.9856(3) 0.3301(3)
Zn3 Zn 0.206532(13) 0.94208(3) 0.89859(4)
N17 N 0.71689(10) 0.8197(2) 0.5920(3)
N19 N 0.72830(10) 0.9734(2) 0.7767(3)
N6_2 N 0.27322(11) 0.0452(3) 0.0144(3)
N7_2 N 0.29244(12) 0.0636(3) 0.1216(4)
O1_2 O 0.13642(9) 0.9191(2) 0.0835(3)
N4_2 N 0.15838(17) 0.7500 0.0063(6)
H9_2 H 0.1459 0.7987 0.0264
N5_2 N 0.23961(9) 0.9962(2) 0.0404(3)
C6_2 C 0.05126(14) 0.9670(4) 0.0705(5)
H11_2 H 0.0619 0.9479 0.1489
C7_2 C 0.00766(13) 0.9851(3) 0.0596(4)
N9_2 N 0.21143(11) 0.9362(3) 0.2361(4)
H13_2 H 0.2144 0.9294 0.3221
H14_2 H 0.1903 0.9109 0.1941
C10_2 C 0.23901(11) 0.9856(3) 0.1699(3)
H15_2 H 0.1459 0.7013 0.0264
N2_2 N 0.21689(10) 0.8197(2) 0.9080(3)
C3_2 C 0.12363(12) 0.9557(3) 0.9815(5)
C4_2 C 0.07787(11) 0.9779(3) 0.9676(4)
N3_2 N 0.25290(12) 0.7910(3) 0.8461(5)
C9_2 C 0.19629(18) 0.7500 0.9436(6)
O2_2 O 0.14739(9) 0.9734(3) 0.8857(3)
N10_2 N 0.21689(10) 0.6803(2) 0.9080(3)
N11_2 N 0.25290(12) 0.7090(3) 0.8461(5)
Zn5_2 Zn 0.206532(13) 0.55792(3) 0.89859(4)
C11_2 C 0.87637(12) 0.0443(3) 0.0185(5)
C12_2 C 0.92213(11) 0.0221(3) 0.0324(4)
O4_2 O 0.85261(9) 0.0266(3) 0.1143(3)
N17_2 N 0.78311(10) 0.1803(2) 0.0920(3)
O3_2 O 0.86358(9) 0.0809(2) 0.9165(3)
C14_2 C 0.94874(14) 0.0330(4) 0.9295(5)
H17_2 H 0.9381 0.0521 0.8511
C15_2 C 0.99234(13) 0.0149(3) 0.9404(4)
N12_2 N 0.76039(9) 0.0038(2) 0.9596(3)
N16_2 N 0.78857(11) 0.0638(3) 0.7639(4)
H19_2 H 0.7856 0.0706 0.6779
H20_2 H 0.8097 0.0891 0.8059
C17_2 C 0.76099(11) 0.0144(3) 0.8301(3)
N13_2 N 0.72678(11) 0.9548(3) 0.9856(3)
N14_2 N 0.70756(12) 0.9364(3) 0.8784(4)
Zn1_2 Zn 0.706532(13) 0.55792(3) 0.60141(4)
N2_3 N 0.71689(10) 0.6803(2) 0.5920(3)
C3_3 C 0.62363(12) 0.5443(3) 0.5185(5)
O1_3 O 0.63642(9) 0.5809(2) 0.4165(3)
C4_3 C 0.57787(11) 0.5221(3) 0.5324(4)
N3_3 N 0.75290(12) 0.7090(3) 0.6539(5)
N4_3 N 0.65838(17) 0.7500 0.4937(6)
H9_3 H 0.6459 0.7013 0.4736
C5_2 C 0.56221(15) 0.4948(5) 0.6504(6)
H10_2 H 0.5803 0.4877 0.7202
N5_3 N 0.73961(9) 0.5038(2) 0.4596(3)
C6_3 C 0.55126(14) 0.5330(4) 0.4295(5)
H11_3 H 0.5619 0.5521 0.3511
N6_3 N 0.77322(11) 0.4548(3) 0.4856(3)
C7_3 C 0.50766(13) 0.5149(3) 0.4404(4)
N7_3 N 0.79244(12) 0.4364(3) 0.3784(4)
C8_2 C 0.48012(15) 0.5224(5) 0.3357(6)
H12_2 H 0.4903 0.5388 0.2553
C9_3 C 0.69629(18) 0.7500 0.5564(6)
N8_2 N 0.77170(10) 0.4734(2) 0.2767(3)
N9_3 N 0.71143(11) 0.5638(3) 0.2639(4)
H13_3 H 0.7144 0.5706 0.1779
H14_3 H 0.6903 0.5891 0.3059
C10_3 C 0.73901(11) 0.5144(3) 0.3301(3)
O2_3 O 0.64739(9) 0.5266(3) 0.6143(3)
N11_3 N 0.75290(12) 0.7910(3) 0.6539(5)
H15_3 H 0.6459 0.7987 0.4736
C11_3 C 0.37637(12) 0.4557(3) 0.4815(5)
O3_3 O 0.36358(9) 0.4191(2) 0.5835(3)
C12_3 C 0.42213(11) 0.4779(3) 0.4676(4)
C13_2 C 0.43779(15) 0.5052(5) 0.3496(6)
H16_2 H 0.4197 0.5123 0.2798
C14_3 C 0.44874(14) 0.4670(4) 0.5705(5)
H17_3 H 0.4381 0.4479 0.6489
C15_3 C 0.49234(13) 0.4851(3) 0.5596(4)
C16_2 C 0.51988(15) 0.4776(5) 0.6643(6)
H18_2 H 0.5097 0.4612 0.7447
O4_3 O 0.35261(9) 0.4734(3) 0.3857(3)
N12_3 N 0.26039(9) 0.4962(2) 0.5404(3)
N13_3 N 0.22678(11) 0.5452(3) 0.5144(3)
N14_3 N 0.20756(12) 0.5636(3) 0.6216(4)
N15_2 N 0.22830(10) 0.5266(2) 0.7233(3)
N16_3 N 0.28857(11) 0.4362(3) 0.7361(4)
H19_3 H 0.2856 0.4294 0.8221
H20_3 H 0.3097 0.4109 0.6941
C17_3 C 0.26099(11) 0.4856(3) 0.6699(3)
Zn3_2 Zn 0.793468(13) 0.44208(3) 0.10141(4)
N18_2 N 0.72830(10) 0.5266(2) 0.7767(3)
N19_2 N 0.27170(10) 0.4734(2) 0.2233(3)
O3_4 O 0.13642(9) 0.5809(2) 0.0835(3)
C14_4 C 0.05126(14) 0.5330(4) 0.0705(5)
H17_4 H 0.0619 0.5521 0.1489
C15_4 C 0.00766(13) 0.5149(3) 0.0596(4)
N12_4 N 0.23961(9) 0.5038(2) 0.0404(3)
N13_4 N 0.27322(11) 0.4548(3) 0.0144(3)
N14_4 N 0.29244(12) 0.4364(3) 0.1216(4)
N16_4 N 0.21143(11) 0.5638(3) 0.2361(4)
H19_4 H 0.2144 0.5706 0.3221
H20_4 H 0.1903 0.5891 0.1941
C17_4 C 0.23901(11) 0.5144(3) 0.1699(3)
C8_3 C 0.01988(15) 0.4776(5) 0.8357(6)
H12_3 H 0.0097 0.4612 0.7553
C11_4 C 0.12363(12) 0.5443(3) 0.9815(5)
C12_4 C 0.07787(11) 0.5221(3) 0.9676(4)
C13_3 C 0.06221(15) 0.4948(5) 0.8496(6)
H16_3 H 0.0803 0.4877 0.7798
O4_4 O 0.14739(9) 0.5266(3) 0.8857(3)
N2_4 N 0.78311(10) 0.3197(2) 0.0920(3)
C3_4 C 0.87637(12) 0.4557(3) 0.0185(5)
C4_4 C 0.92213(11) 0.4779(3) 0.0324(4)
N3_4 N 0.74710(12) 0.2910(3) 0.1539(5)
C5_3 C 0.93779(15) 0.5052(5) 0.1504(6)
H10_3 H 0.9197 0.5123 0.2202
C9_4 C 0.80371(18) 0.2500 0.0564(6)
O2_4 O 0.85261(9) 0.4734(3) 0.1143(3)
N11_4 N 0.74710(12) 0.2090(3) 0.1539(5)
C16_3 C 0.98012(15) 0.5224(5) 0.1643(6)
H18_3 H 0.9903 0.5388 0.2447
O1_4 O 0.86358(9) 0.4191(2) 0.9165(3)
N4_4 N 0.84162(17) 0.2500 0.9937(6)
H9_4 H 0.8541 0.2987 0.9736
N5_4 N 0.76039(9) 0.4962(2) 0.9596(3)
C6_4 C 0.94874(14) 0.4670(4) 0.9295(5)
H11_4 H 0.9381 0.4479 0.8511
N6_4 N 0.72678(11) 0.5452(3) 0.9856(3)
C7_4 C 0.99234(13) 0.4851(3) 0.9404(4)
N7_4 N 0.70756(12) 0.5636(3) 0.8784(4)
N9_4 N 0.78857(11) 0.4362(3) 0.7639(4)
H13_4 H 0.7856 0.4294 0.6779
H14_4 H 0.8097 0.4109 0.8059
C10_4 C 0.76099(11) 0.4856(3) 0.8301(3)
H15_4 H 0.8541 0.2013 0.9736
C5_4 C 0.06221(15) 0.0052(5) 0.8496(6)
H10_4 H 0.0803 0.0123 0.7798
C16_4 C 0.01988(15) 0.0224(5) 0.8357(6)
H18_4 H 0.0097 0.0388 0.7553
C8_4 C 0.98012(15) 0.9776(5) 0.1643(6)
H12_4 H 0.9903 0.9612 0.2447
C13_4 C 0.93779(15) 0.9948(5) 0.1504(6)
H16_4 H 0.9197 0.9877 0.2202
loop_
_geom_bond_atom_site_label_1
_geom_bond_atom_site_label_2
_geom_bond_site_symmetry_1
_geom_bond_site_symmetry_2
N1 H1 1_555 1_555
C1 N1 1_555 1_555
H2 C1 1_555 1_555
H3 C1 1_555 1_555
C2 N1 1_555 1_555
H4 C2 1_555 1_555
H5 C2 1_555 1_555
H6 N1 1_555 1_555
H7 C1 1_555 1_555
H8 C2 1_555 1_555
N1_2 H1_2 1_555 1_555
H6_2 N1_2 1_555 1_555
H4_2 C2_2 1_555 1_555
H3_2 C1_2 1_555 1_555
H7_2 C1_2 1_555 1_555
N1_3 H1_3 1_555 1_555
C1_3 N1_3 1_555 1_555
H2_3 C1_3 1_555 1_555
H3_3 C1_3 1_555 1_555
C2_3 N1_3 1_555 1_555
H4_3 C2_3 1_555 1_555
H5_3 C2_3 1_555 1_555
H6_3 N1_3 1_555 1_555
H7_3 C1_3 1_555 1_555
H8_3 C2_3 1_555 1_555
H3_4 C1_4 1_555 1_555
H7_4 C1_4 1_555 1_555
H4_4 C2_4 1_555 1_555
N1_4 H1_4 1_555 1_555
H6_4 N1_4 1_555 1_555
Zn1 N2 1_555 1_555
N2 N3 1_555 1_555
C3 O1 1_555 1_555
C4 C3 1_555 1_555
N3 N11 1_555 1_555
N4 H9 1_555 1_555
N5 Zn1 1_555 1_555
C6 C4 1_555 1_555
H11 C6 1_555 1_555
C7 C6 1_555 1_555
C8 C7 1_555 1_555
H12 C8 1_555 1_555
C9 N2 1_555 1_555
N9 H13 1_555 1_555
H14 N9 1_555 1_555
C10 N5 1_555 1_555
O2 Zn1 1_555 1_555
N10 C9 1_555 1_555
N11 N10 1_555 1_555
H15 N4 1_555 1_555
C13 C8 1_555 1_555
H16 C13 1_555 1_555
N14 N13 1_555 1_555
N15 N14 1_555 1_555
Zn4 N15 1_555 1_555
Zn5 N10 1_555 1_555
N18 Zn1 1_555 1_555
C3 O2 1_555 1_555
N4 C9 1_555 1_555
N9 C10 1_555 1_555
H10 C5 1_555 1_555
N7 N6 1_555 1_555
N8 N7 1_555 1_555
C11 O3 1_555 1_555
C12 C11 1_555 1_555
C14 C12 1_555 1_555
H17 C14 1_555 1_555
C16 C5 1_555 1_555
H18 C16 1_555 1_555
O4 C11 1_555 1_555
Zn2 O4 1_555 1_555
N12 Zn2 1_555 1_555
N16 H19 1_555 1_555
H20 N16 1_555 1_555
C17 N12 1_555 1_555
Zn3 N8 1_555 1_555
N17 Zn2 1_555 1_555
N19 Zn2 1_555 1_555
C14 C15 1_555 1_555
C15 C16 1_555 1_555
N16 C17 1_555 1_555
N7_2 N6_2 1_555 1_555
N18 N7_2 1_555 1_555
N4_2 H9_2 1_555 1_555
H11_2 C6_2 1_555 1_555
C7_2 C6_2 1_555 1_555
N9_2 H13_2 1_555 1_555
H14_2 N9_2 1_555 1_555
C10_2 N5_2 1_555 1_555
H15_2 N4_2 1_555 1_555
N9_2 C10_2 1_555 1_555
Zn3 N2_2 1_555 1_555
N2_2 N3_2 1_555 1_555
C4_2 C3_2 1_555 1_555
N3_2 N11_2 1_555 1_555
C9_2 N2_2 1_555 1_555
O2_2 Zn3 1_555 1_555
N10_2 C9_2 1_555 1_555
N11_2 N10_2 1_555 1_555
Zn5_2 N10_2 1_555 1_555
C3_2 O2_2 1_555 1_555
C12_2 C11_2 1_555 1_555
O4_2 C11_2 1_555 1_555
Zn4 O4_2 1_555 1_555
N17_2 Zn4 1_555 1_555
H17_2 C14_2 1_555 1_555
N16_2 H19_2 1_555 1_555
H20_2 N16_2 1_555 1_555
C17_2 N12_2 1_555 1_555
C14_2 C15_2 1_555 1_555
N16_2 C17_2 1_555 1_555
N14_2 N13_2 1_555 1_555
N19 N14_2 1_555 1_555
Zn1_2 N2_3 1_555 1_555
N2_3 N3_3 1_555 1_555
C3_3 O1_3 1_555 1_555
C4_3 C3_3 1_555 1_555
N3_3 N11_3 1_555 1_555
N4_3 H9_3 1_555 1_555
C5_2 C4_3 1_555 1_555
H10_2 C5_2 1_555 1_555
N5_3 Zn1_2 1_555 1_555
C6_3 C4_3 1_555 1_555
H11_3 C6_3 1_555 1_555
N6_3 N5_3 1_555 1_555
C7_3 C6_3 1_555 1_555
N7_3 N6_3 1_555 1_555
C8_2 C7_3 1_555 1_555
H12_2 C8_2 1_555 1_555
C9_3 N2_3 1_555 1_555
N8_2 N7_3 1_555 1_555
N9_3 H13_3 1_555 1_555
H14_3 N9_3 1_555 1_555
C10_3 N5_3 1_555 1_555
O2_3 Zn1_2 1_555 1_555
N17 C9_3 1_555 1_555
N11_3 N17 1_555 1_555
H15_3 N4_3 1_555 1_555
C11_3 O3_3 1_555 1_555
C12_3 C11_3 1_555 1_555
C13_2 C8_2 1_555 1_555
H16_2 C13_2 1_555 1_555
C14_3 C12_3 1_555 1_555
H17_3 C14_3 1_555 1_555
C15_3 C7_3 1_555 1_555
C16_2 C5_2 1_555 1_555
H18_2 C16_2 1_555 1_555
O4_3 C11_3 1_555 1_555
Zn5 O4_3 1_555 1_555
N12_3 Zn5 1_555 1_555
N13_3 N12_3 1_555 1_555
N14_3 N13_3 1_555 1_555
N15_2 N14_3 1_555 1_555
N16_3 H19_3 1_555 1_555
H20_3 N16_3 1_555 1_555
C17_3 N12_3 1_555 1_555
Zn3_2 N8_2 1_555 1_555
Zn5_2 N15_2 1_555 1_555
N18_2 Zn1_2 1_555 1_555
N19_2 Zn5 1_555 1_555
C3_3 O2_3 1_555 1_555
N4_3 C9_3 1_555 1_555
N8_2 C10_3 1_555 1_555
N9_3 C10_3 1_555 1_555
C12_3 C13_2 1_555 1_555
C14_3 C15_3 1_555 1_555
C15_3 C16_2 1_555 1_555
N15_2 C17_3 1_555 1_555
N16_3 C17_3 1_555 1_555
H17_4 C14_4 1_555 1_555
N13_4 N12_4 1_555 1_555
N14_4 N13_4 1_555 1_555
N19_2 N14_4 1_555 1_555
N16_4 H19_4 1_555 1_555
H20_4 N16_4 1_555 1_555
C17_4 N12_4 1_555 1_555
C14_4 C15_4 1_555 1_555
N19_2 C17_4 1_555 1_555
N16_4 C17_4 1_555 1_555
H12_3 C8_3 1_555 1_555
C12_4 C11_4 1_555 1_555
C13_3 C8_3 1_555 1_555
H16_3 C13_3 1_555 1_555
O4_4 C11_4 1_555 1_555
Zn5_2 O4_4 1_555 1_555
C12_4 C13_3 1_555 1_555
Zn3_2 N2_4 1_555 1_555
N2_4 N3_4 1_555 1_555
C4_4 C3_4 1_555 1_555
N3_4 N11_4 1_555 1_555
C5_3 C4_4 1_555 1_555
H10_3 C5_3 1_555 1_555
C9_4 N2_4 1_555 1_555
O2_4 Zn3_2 1_555 1_555
N17_2 C9_4 1_555 1_555
N11_4 N17_2 1_555 1_555
C16_3 C5_3 1_555 1_555
H18_3 C16_3 1_555 1_555
C3_4 O2_4 1_555 1_555
N4_4 H9_4 1_555 1_555
H11_4 C6_4 1_555 1_555
N6_4 N5_4 1_555 1_555
C7_4 C6_4 1_555 1_555
N7_4 N6_4 1_555 1_555
N18_2 N7_4 1_555 1_555
N9_4 H13_4 1_555 1_555
H14_4 N9_4 1_555 1_555
C10_4 N5_4 1_555 1_555
H15_4 N4_4 1_555 1_555
N18_2 C10_4 1_555 1_555
N9_4 C10_4 1_555 1_555
H10_4 C5_4 1_555 1_555
C16_4 C5_4 1_555 1_555
H18_4 C16_4 1_555 1_555
H12_4 C8_4 1_555 1_555
C13_4 C8_4 1_555 1_555
H16_4 C13_4 1_555 1_555

#END
