
###############################################################################
#
# This file contains modified crystal structure data generated from the
# MOF subset of the Cambridge Structural Database (CSD) v543 
# hosted by the Cambridge Crystallographic Data Centre (CCDC).
#
# This work is licensed under the Creative Commons
# Attribution-NonCommercial-ShareAlike 4.0 International License.
# To view a copy of this license, visit
# http://creativecommons.org/licenses/by-nc-sa/4.0/
# or send a letter to
# Creative Commons, PO Box 1866, Mountain View, CA 94042, USA.
#
# CIF created using the CSD Python API on 29 September 2022
# The structure has been converted into the P1 space group
# The structure has a 3D framework
# The original CSD entry UMEKII is in the orthorhombic crystal system
# The framework has been calculated to contain at least 10.0% void space
# The void calculation uses a probe of radius 1.32A, grid spacing 0.4
#
###############################################################################

data_UMEKII
_chemical_formula_moiety         '(C78 H88 N68 O16 Zn8 2+)n'
_symmetry_cell_setting           triclinic
_symmetry_space_group_name_H-M   'P 1'
_symmetry_Int_Tables_number      1
_space_group_name_Hall           'P 1'
loop_
_symmetry_equiv_pos_site_id
_symmetry_equiv_pos_as_xyz
1 x,y,z
_cell_length_a                   20.818(9)
_cell_length_b                   9.887(4)
_cell_length_c                   17.281(7)
_cell_angle_alpha                90
_cell_angle_beta                 90
_cell_angle_gamma                90
_cell_volume                     3556.91
loop_
_atom_site_label
_atom_site_type_symbol
_atom_site_fract_x
_atom_site_fract_y
_atom_site_fract_z
N6 N 0.2736(2) 0.0548(5) 0.1864(2)
N7 N 0.2727(2) 0.0374(4) 0.2644(2)
C12 C 0.1195(3) 0.1670(6) 0.3124(4)
H8 H 0.1595 0.1590 0.3360
C13 C 0.0207(2) 0.0614(5) 0.2691(3)
C14 C 0.0374(3) 0.3033(6) 0.2559(4)
H9 H 0.0223 0.3875 0.2401
C15 C 0.0977(3) 0.2925(7) 0.2891(5)
H10 H 0.1235 0.3687 0.2951
C16 C 0.0818(3) 0.0536(6) 0.3021(3)
Zn3 Zn 0.31617(3) 0.18973(6) 0.32282(3)
Zn1 Zn 0.18383(3) 0.68973(6) 0.17718(3)
O1 O 0.09799(19) 0.6909(4) 0.2251(2)
N1 N 0.1930(2) 0.6620(5) 0.0635(3)
C1 C 0.0016(3) 0.8117(5) 0.2447(3)
O2 O 0.0800(2) 0.8718(4) 0.1499(2)
C2 C 0.0649(2) 0.7933(5) 0.2032(3)
C3 C 0.1731(4) 0.7247(8) 0.0000
N2 N 0.2490(2) 0.9495(4) 0.1528(3)
C4 C 0.2455(2) 0.9149(5) 0.2761(3)
N3 N 0.2321(3) 0.8594(5) 0.3453(3)
H1 H 0.2413 0.9019 0.3873
H2 H 0.2147 0.7806 0.3475
N4 N 0.1347(7) 0.8356(12) 0.0000
H3 H 0.1214 0.8716 0.0451
N5 N 0.2301(5) 0.5604(7) 0.0371(3)
N8 N 0.2306(2) 0.8590(4) 0.2081(2)
H11 H 0.0975 0.9699 0.3178
N17 N 0.2273(2) 0.5374(4) 0.2356(2)
C3_2 C 0.1731(4) 0.7247(8) 1.0000
N4_2 N 0.1347(7) 0.8356(12) 1.0000
N9 N 0.1930(2) 0.6620(5) 0.9365(3)
H12 H 0.1214 0.8716 0.9549
N10 N 0.2301(5) 0.5604(7) 0.9629(3)
Zn5 Zn 0.18383(3) 0.68973(6) 0.82282(3)
H7 H 0.9025 0.0301 0.3178
O3 O 0.90201(19) 0.3091(4) 0.2251(2)
C10 C 0.9984(3) 0.1883(5) 0.2447(3)
O4 O 0.9200(2) 0.1282(4) 0.1499(2)
C11 C 0.9351(2) 0.2067(5) 0.2032(3)
Zn2 Zn 0.81617(3) 0.31027(6) 0.17718(3)
N11 N 0.7510(2) 0.0505(4) 0.1528(3)
C17 C 0.7545(2) 0.0851(5) 0.2761(3)
N12 N 0.7679(3) 0.1406(5) 0.3453(3)
H13 H 0.7587 0.0981 0.3873
H14 H 0.7853 0.2194 0.3475
N15 N 0.7694(2) 0.1410(4) 0.2081(2)
N16 N 0.8070(2) 0.3380(5) 0.0635(3)
N18 N 0.7727(2) 0.4626(4) 0.2356(2)
C5 C 0.8805(3) 0.8330(6) 0.3124(4)
H4 H 0.8405 0.8410 0.3360
C6 C 0.9793(2) 0.9386(5) 0.2691(3)
C7 C 0.9626(3) 0.6967(6) 0.2559(4)
H5 H 0.9777 0.6125 0.2401
C8 C 0.9023(3) 0.7075(7) 0.2891(5)
H6 H 0.8765 0.6313 0.2951
C9 C 0.9182(3) 0.9464(6) 0.3021(3)
N13 N 0.7264(2) 0.9452(5) 0.1864(2)
N14 N 0.7273(2) 0.9626(4) 0.2644(2)
Zn4 Zn 0.68383(3) 0.81027(6) 0.32282(3)
C3_3 C 0.8269(4) 0.2753(8) 0.0000
N4_3 N 0.8653(7) 0.1644(12) 0.0000
H3_2 H 0.8786 0.1284 0.0451
N5_2 N 0.7699(5) 0.4396(7) 0.0371(3)
C3_4 C 0.8269(4) 0.2753(8) 1.0000
N4_4 N 0.8653(7) 0.1644(12) 1.0000
N9_2 N 0.8070(2) 0.3380(5) 0.9365(3)
H12_2 H 0.8786 0.1284 0.9549
N10_2 N 0.7699(5) 0.4396(7) 0.9629(3)
Zn5_2 Zn 0.81617(3) 0.31027(6) 0.82282(3)
O1_2 O 0.40201(19) 0.1909(4) 0.2749(2)
N1_2 N 0.3070(2) 0.1620(5) 0.4365(3)
C1_2 C 0.4984(3) 0.3117(5) 0.2553(3)
O2_2 O 0.4200(2) 0.3718(4) 0.3501(2)
C2_2 C 0.4351(2) 0.2933(5) 0.2968(3)
C3_5 C 0.3269(4) 0.2247(8) 0.5000
N2_2 N 0.2510(2) 0.4495(4) 0.3472(3)
C4_2 C 0.2545(2) 0.4149(5) 0.2239(3)
N3_2 N 0.2679(3) 0.3594(5) 0.1547(3)
H1_2 H 0.2587 0.4019 0.1127
H2_2 H 0.2853 0.2806 0.1525
N4_5 N 0.3653(7) 0.3356(12) 0.5000
H3_3 H 0.3786 0.3716 0.4549
C5_2 C 0.6195(3) 0.3330(6) 0.1876(4)
H4_2 H 0.6595 0.3410 0.1640
N5_3 N 0.2699(5) 0.0604(7) 0.4629(3)
C6_2 C 0.5207(2) 0.4386(5) 0.2309(3)
C7_2 C 0.5374(3) 0.1967(6) 0.2441(4)
H5_2 H 0.5223 0.1125 0.2599
C8_2 C 0.5977(3) 0.2075(7) 0.2109(5)
H6_2 H 0.6235 0.1313 0.2049
C9_2 C 0.5818(3) 0.4464(6) 0.1979(3)
H7_2 H 0.5975 0.5301 0.1822
N6_2 N 0.2264(2) 0.5548(5) 0.3136(2)
N8_2 N 0.2694(2) 0.3590(4) 0.2919(2)
O3_2 O 0.59799(19) 0.8091(4) 0.2749(2)
C10_2 C 0.5016(3) 0.6883(5) 0.2553(3)
O4_2 O 0.5800(2) 0.6282(4) 0.3501(2)
C11_2 C 0.5649(2) 0.7067(5) 0.2968(3)
C12_2 C 0.3805(3) 0.6670(6) 0.1876(4)
H8_2 H 0.3405 0.6590 0.1640
C13_2 C 0.4793(2) 0.5614(5) 0.2309(3)
C14_2 C 0.4626(3) 0.8033(6) 0.2441(4)
H9_2 H 0.4777 0.8875 0.2599
C15_2 C 0.4023(3) 0.7925(7) 0.2109(5)
H10_2 H 0.3765 0.8687 0.2049
C16_2 C 0.4182(3) 0.5536(6) 0.1979(3)
H11_2 H 0.4025 0.4699 0.1822
N9_3 N 0.3070(2) 0.1620(5) 0.5635(3)
H12_3 H 0.3786 0.3716 0.5451
N10_3 N 0.2699(5) 0.0604(7) 0.5371(3)
N11_2 N 0.7490(2) 0.5505(4) 0.3472(3)
C17_2 C 0.7455(2) 0.5851(5) 0.2239(3)
N12_2 N 0.7321(3) 0.6406(5) 0.1547(3)
H13_2 H 0.7413 0.5981 0.1127
H14_2 H 0.7147 0.7194 0.1525
N13_2 N 0.7736(2) 0.4452(5) 0.3136(2)
N15_2 N 0.7306(2) 0.6410(4) 0.2919(2)
Zn5_3 Zn 0.31617(3) 0.18973(6) 0.67718(3)
N16_2 N 0.6930(2) 0.8380(5) 0.4365(3)
C3_6 C 0.6731(4) 0.7753(8) 0.5000
N4_6 N 0.6347(7) 0.6644(12) 0.5000
H3_4 H 0.6214 0.6284 0.4549
N5_4 N 0.7301(5) 0.9396(7) 0.4629(3)
N9_4 N 0.6930(2) 0.8380(5) 0.5635(3)
H12_4 H 0.6214 0.6284 0.5451
N10_4 N 0.7301(5) 0.9396(7) 0.5371(3)
Zn5_4 Zn 0.68383(3) 0.81027(6) 0.67718(3)
C5_3 C 0.1195(3) 0.1670(6) 0.6876(4)
H4_3 H 0.1595 0.1590 0.6640
C6_3 C 0.0207(2) 0.0614(5) 0.7309(3)
C7_3 C 0.0374(3) 0.3033(6) 0.7441(4)
H5_3 H 0.0223 0.3875 0.7599
C8_3 C 0.0977(3) 0.2925(7) 0.7109(5)
H6_3 H 0.1235 0.3687 0.7049
C9_3 C 0.0818(3) 0.0536(6) 0.6979(3)
N13_3 N 0.2736(2) 0.0548(5) 0.8136(2)
N14_2 N 0.2727(2) 0.0374(4) 0.7356(2)
H7_3 H 0.0975 0.9699 0.6822
O3_3 O 0.09799(19) 0.6909(4) 0.7749(2)
C10_3 C 0.0016(3) 0.8117(5) 0.7553(3)
O4_3 O 0.0800(2) 0.8718(4) 0.8501(2)
C11_3 C 0.0649(2) 0.7933(5) 0.7968(3)
N11_3 N 0.2490(2) 0.9495(4) 0.8472(3)
C17_3 C 0.2455(2) 0.9149(5) 0.7239(3)
N12_3 N 0.2321(3) 0.8594(5) 0.6547(3)
H13_3 H 0.2413 0.9019 0.6127
H14_3 H 0.2147 0.7806 0.6525
N15_3 N 0.2306(2) 0.8590(4) 0.7919(2)
N18_2 N 0.2273(2) 0.5374(4) 0.7644(2)
O1_3 O 0.90201(19) 0.3091(4) 0.7749(2)
C1_3 C 0.9984(3) 0.1883(5) 0.7553(3)
O2_3 O 0.9200(2) 0.1282(4) 0.8501(2)
C2_3 C 0.9351(2) 0.2067(5) 0.7968(3)
N2_3 N 0.7510(2) 0.0505(4) 0.8472(3)
C4_3 C 0.7545(2) 0.0851(5) 0.7239(3)
N3_3 N 0.7679(3) 0.1406(5) 0.6547(3)
H1_3 H 0.7587 0.0981 0.6127
H2_3 H 0.7853 0.2194 0.6525
N8_3 N 0.7694(2) 0.1410(4) 0.7919(2)
H11_3 H 0.9025 0.0301 0.6822
N17_2 N 0.7727(2) 0.4626(4) 0.7644(2)
N6_3 N 0.7264(2) 0.9452(5) 0.8136(2)
N7_2 N 0.7273(2) 0.9626(4) 0.7356(2)
C12_3 C 0.8805(3) 0.8330(6) 0.6876(4)
H8_3 H 0.8405 0.8410 0.6640
C13_3 C 0.9793(2) 0.9386(5) 0.7309(3)
C14_3 C 0.9626(3) 0.6967(6) 0.7441(4)
H9_3 H 0.9777 0.6125 0.7599
C15_3 C 0.9023(3) 0.7075(7) 0.7109(5)
H10_3 H 0.8765 0.6313 0.7049
C16_3 C 0.9182(3) 0.9464(6) 0.6979(3)
O1_4 O 0.59799(19) 0.8091(4) 0.7251(2)
C1_4 C 0.5016(3) 0.6883(5) 0.7447(3)
O2_4 O 0.5800(2) 0.6282(4) 0.6499(2)
C2_4 C 0.5649(2) 0.7067(5) 0.7032(3)
N2_4 N 0.7490(2) 0.5505(4) 0.6528(3)
C4_4 C 0.7455(2) 0.5851(5) 0.7761(3)
N3_4 N 0.7321(3) 0.6406(5) 0.8453(3)
H1_4 H 0.7413 0.5981 0.8873
H2_4 H 0.7147 0.7194 0.8475
C5_4 C 0.3805(3) 0.6670(6) 0.8124(4)
H4_4 H 0.3405 0.6590 0.8360
C6_4 C 0.4793(2) 0.5614(5) 0.7691(3)
C7_4 C 0.4626(3) 0.8033(6) 0.7559(4)
H5_4 H 0.4777 0.8875 0.7401
C8_4 C 0.4023(3) 0.7925(7) 0.7891(5)
H6_4 H 0.3765 0.8687 0.7951
C9_4 C 0.4182(3) 0.5536(6) 0.8021(3)
H7_4 H 0.4025 0.4699 0.8178
N6_4 N 0.7736(2) 0.4452(5) 0.6864(2)
N8_4 N 0.7306(2) 0.6410(4) 0.7081(2)
O3_4 O 0.40201(19) 0.1909(4) 0.7251(2)
C10_4 C 0.4984(3) 0.3117(5) 0.7447(3)
O4_4 O 0.4200(2) 0.3718(4) 0.6499(2)
C11_4 C 0.4351(2) 0.2933(5) 0.7032(3)
C12_4 C 0.6195(3) 0.3330(6) 0.8124(4)
H8_4 H 0.6595 0.3410 0.8360
C13_4 C 0.5207(2) 0.4386(5) 0.7691(3)
C14_4 C 0.5374(3) 0.1967(6) 0.7559(4)
H9_4 H 0.5223 0.1125 0.7401
C15_4 C 0.5977(3) 0.2075(7) 0.7891(5)
H10_4 H 0.6235 0.1313 0.7951
C16_4 C 0.5818(3) 0.4464(6) 0.8021(3)
H11_4 H 0.5975 0.5301 0.8178
N11_4 N 0.2510(2) 0.4495(4) 0.6528(3)
C17_4 C 0.2545(2) 0.4149(5) 0.7761(3)
N12_4 N 0.2679(3) 0.3594(5) 0.8453(3)
H13_4 H 0.2587 0.4019 0.8873
H14_4 H 0.2853 0.2806 0.8475
N13_4 N 0.2264(2) 0.5548(5) 0.6864(2)
N15_4 N 0.2694(2) 0.3590(4) 0.7081(2)
N19 N 0.1240(9) 0.1834(19) 0.0000
C18 C 0.1217(11) 0.193(2) 0.0893(12)
H16 H 0.1640 0.2243 0.1020
H17 H 0.0904 0.2568 0.1070
H18 H 0.1143 0.1069 0.1138
H19 H 0.1514 0.1212 0.0189
N19_2 N 0.1240(9) 0.1834(19) 1.0000
H15 H 0.1514 0.1212 0.9811
C19 C 0.1217(11) 0.193(2) 0.9107(12)
H20 H 0.1640 0.2243 0.8980
H21 H 0.0904 0.2568 0.8930
H22 H 0.1143 0.1069 0.8862
N19_3 N 0.8760(9) 0.8166(19) 0.0000
C18_2 C 0.8783(11) 0.807(2) 0.0893(12)
H16_2 H 0.8360 0.7757 0.1020
H17_2 H 0.9096 0.7432 0.1070
H18_2 H 0.8857 0.8931 0.1138
H19_2 H 0.8486 0.8788 0.0189
N19_4 N 0.8760(9) 0.8166(19) 1.0000
H15_2 H 0.8486 0.8788 0.9811
C19_2 C 0.8783(11) 0.807(2) 0.9107(12)
H20_2 H 0.8360 0.7757 0.8980
H21_2 H 0.9096 0.7432 0.8930
H22_2 H 0.8857 0.8931 0.8862
N19_5 N 0.3760(9) 0.6834(19) 0.5000
H15_3 H 0.3486 0.6212 0.5189
C18_3 C 0.3783(11) 0.693(2) 0.4107(12)
H16_3 H 0.3360 0.7243 0.3980
H17_3 H 0.4096 0.7568 0.3930
H18_3 H 0.3857 0.6069 0.3862
H19_3 H 0.3486 0.6212 0.4811
C19_3 C 0.3783(11) 0.693(2) 0.5893(12)
H20_3 H 0.3360 0.7243 0.6020
H21_3 H 0.4096 0.7568 0.6070
H22_3 H 0.3857 0.6069 0.6138
N19_6 N 0.6240(9) 0.3166(19) 0.5000
H15_4 H 0.6514 0.3788 0.5189
C18_4 C 0.6217(11) 0.307(2) 0.4107(12)
H16_4 H 0.6640 0.2757 0.3980
H17_4 H 0.5904 0.2432 0.3930
H18_4 H 0.6143 0.3931 0.3862
H19_4 H 0.6514 0.3788 0.4811
C19_4 C 0.6217(11) 0.307(2) 0.5893(12)
H20_4 H 0.6640 0.2757 0.6020
H21_4 H 0.5904 0.2432 0.6070
H22_4 H 0.6143 0.3931 0.6138
loop_
_geom_bond_atom_site_label_1
_geom_bond_atom_site_label_2
_geom_bond_site_symmetry_1
_geom_bond_site_symmetry_2
N6 N7 1_555 1_555
C12 H8 1_555 1_555
H9 C14 1_555 1_555
C15 C12 1_555 1_555
H10 C15 1_555 1_555
C16 C12 1_555 1_555
Zn3 N7 1_555 1_555
C13 C16 1_555 1_555
C14 C15 1_555 1_555
Zn1 O1 1_555 1_555
O1 C2 1_555 1_555
N1 Zn1 1_555 1_555
C1 C2 1_555 1_555
O2 C2 1_555 1_555
C3 N1 1_555 1_555
C4 N3 1_555 1_555
N3 H1 1_555 1_555
H2 N3 1_555 1_555
N4 C3 1_555 1_555
H3 N4 1_555 1_555
N5 N1 1_555 1_555
N8 Zn1 1_555 1_555
N17 Zn1 1_555 1_555
N2 N8 1_555 1_555
C4 N8 1_555 1_555
N4_2 C3_2 1_555 1_555
N9 C3_2 1_555 1_555
H12 N4_2 1_555 1_555
Zn5 N9 1_555 1_555
N9 N10 1_555 1_555
O3 C11 1_555 1_555
C10 C11 1_555 1_555
O4 C11 1_555 1_555
Zn2 O3 1_555 1_555
C17 N12 1_555 1_555
N12 H13 1_555 1_555
H14 N12 1_555 1_555
N15 Zn2 1_555 1_555
N16 Zn2 1_555 1_555
N18 Zn2 1_555 1_555
N11 N15 1_555 1_555
C17 N15 1_555 1_555
C5 H4 1_555 1_555
H5 C7 1_555 1_555
C8 C5 1_555 1_555
H6 C8 1_555 1_555
C9 C5 1_555 1_555
N13 N14 1_555 1_555
Zn4 N14 1_555 1_555
C6 C9 1_555 1_555
C7 C8 1_555 1_555
C3_3 N16 1_555 1_555
N4_3 C3_3 1_555 1_555
H3_2 N4_3 1_555 1_555
N5_2 N16 1_555 1_555
N4_4 C3_4 1_555 1_555
N9_2 C3_4 1_555 1_555
H12_2 N4_4 1_555 1_555
Zn5_2 N9_2 1_555 1_555
N9_2 N10_2 1_555 1_555
Zn3 O1_2 1_555 1_555
O1_2 C2_2 1_555 1_555
N1_2 Zn3 1_555 1_555
C1_2 C2_2 1_555 1_555
O2_2 C2_2 1_555 1_555
C3_5 N1_2 1_555 1_555
N2_2 N6_2 1_555 1_555
C4_2 N3_2 1_555 1_555
N3_2 H1_2 1_555 1_555
H2_2 N3_2 1_555 1_555
N4_5 C3_5 1_555 1_555
H3_3 N4_5 1_555 1_555
C5_2 H4_2 1_555 1_555
N5_3 N1_2 1_555 1_555
C6_2 C1_2 1_555 1_555
C7_2 C1_2 1_555 1_555
H5_2 C7_2 1_555 1_555
C8_2 C5_2 1_555 1_555
H6_2 C8_2 1_555 1_555
C9_2 C5_2 1_555 1_555
H7_2 C9_2 1_555 1_555
N6_2 N17 1_555 1_555
N17 C4_2 1_555 1_555
N8_2 Zn3 1_555 1_555
O3_2 C11_2 1_555 1_555
C10_2 C11_2 1_555 1_555
O4_2 C11_2 1_555 1_555
C12_2 H8_2 1_555 1_555
C13_2 C6_2 1_555 1_555
C14_2 C10_2 1_555 1_555
H9_2 C14_2 1_555 1_555
C15_2 C12_2 1_555 1_555
H10_2 C15_2 1_555 1_555
C16_2 C12_2 1_555 1_555
H11_2 C16_2 1_555 1_555
N9_3 C3_5 1_555 1_555
H12_3 N4_5 1_555 1_555
N10_3 N5_3 1_555 1_555
Zn4 O3_2 1_555 1_555
N11_2 N13_2 1_555 1_555
C17_2 N12_2 1_555 1_555
N12_2 H13_2 1_555 1_555
H14_2 N12_2 1_555 1_555
N13_2 N18 1_555 1_555
N18 C17_2 1_555 1_555
N15_2 Zn4 1_555 1_555
Zn5_3 N9_3 1_555 1_555
N16_2 Zn4 1_555 1_555
N2_2 N8_2 1_555 1_555
C4_2 N8_2 1_555 1_555
C6_2 C9_2 1_555 1_555
C7_2 C8_2 1_555 1_555
C10_2 C13_2 1_555 1_555
C13_2 C16_2 1_555 1_555
C14_2 C15_2 1_555 1_555
N9_3 N10_3 1_555 1_555
N11_2 N15_2 1_555 1_555
C17_2 N15_2 1_555 1_555
C3_6 N16_2 1_555 1_555
N4_6 C3_6 1_555 1_555
H3_4 N4_6 1_555 1_555
N5_4 N16_2 1_555 1_555
N9_4 C3_6 1_555 1_555
H12_4 N4_6 1_555 1_555
N10_4 N5_4 1_555 1_555
Zn5_4 N9_4 1_555 1_555
N9_4 N10_4 1_555 1_555
C5_3 H4_3 1_555 1_555
H5_3 C7_3 1_555 1_555
C8_3 C5_3 1_555 1_555
H6_3 C8_3 1_555 1_555
C9_3 C5_3 1_555 1_555
N13_3 N14_2 1_555 1_555
Zn5_3 N14_2 1_555 1_555
C6_3 C9_3 1_555 1_555
C7_3 C8_3 1_555 1_555
O3_3 C11_3 1_555 1_555
C10_3 C11_3 1_555 1_555
O4_3 C11_3 1_555 1_555
Zn5 O3_3 1_555 1_555
C17_3 N12_3 1_555 1_555
N12_3 H13_3 1_555 1_555
H14_3 N12_3 1_555 1_555
N15_3 Zn5 1_555 1_555
N18_2 Zn5 1_555 1_555
N11_3 N15_3 1_555 1_555
C17_3 N15_3 1_555 1_555
Zn5_2 O1_3 1_555 1_555
O1_3 C2_3 1_555 1_555
C1_3 C2_3 1_555 1_555
O2_3 C2_3 1_555 1_555
C4_3 N3_3 1_555 1_555
N3_3 H1_3 1_555 1_555
H2_3 N3_3 1_555 1_555
N8_3 Zn5_2 1_555 1_555
N17_2 Zn5_2 1_555 1_555
N2_3 N8_3 1_555 1_555
C4_3 N8_3 1_555 1_555
N6_3 N7_2 1_555 1_555
C12_3 H8_3 1_555 1_555
H9_3 C14_3 1_555 1_555
C15_3 C12_3 1_555 1_555
H10_3 C15_3 1_555 1_555
C16_3 C12_3 1_555 1_555
Zn5_4 N7_2 1_555 1_555
C13_3 C16_3 1_555 1_555
C14_3 C15_3 1_555 1_555
Zn5_4 O1_4 1_555 1_555
O1_4 C2_4 1_555 1_555
C1_4 C2_4 1_555 1_555
O2_4 C2_4 1_555 1_555
N2_4 N6_4 1_555 1_555
C4_4 N3_4 1_555 1_555
N3_4 H1_4 1_555 1_555
H2_4 N3_4 1_555 1_555
C5_4 H4_4 1_555 1_555
C6_4 C1_4 1_555 1_555
C7_4 C1_4 1_555 1_555
H5_4 C7_4 1_555 1_555
C8_4 C5_4 1_555 1_555
H6_4 C8_4 1_555 1_555
C9_4 C5_4 1_555 1_555
H7_4 C9_4 1_555 1_555
N6_4 N17_2 1_555 1_555
N17_2 C4_4 1_555 1_555
N8_4 Zn5_4 1_555 1_555
O3_4 C11_4 1_555 1_555
C10_4 C11_4 1_555 1_555
O4_4 C11_4 1_555 1_555
C12_4 H8_4 1_555 1_555
C13_4 C6_4 1_555 1_555
C14_4 C10_4 1_555 1_555
H9_4 C14_4 1_555 1_555
C15_4 C12_4 1_555 1_555
H10_4 C15_4 1_555 1_555
C16_4 C12_4 1_555 1_555
H11_4 C16_4 1_555 1_555
Zn5_3 O3_4 1_555 1_555
N11_4 N13_4 1_555 1_555
C17_4 N12_4 1_555 1_555
N12_4 H13_4 1_555 1_555
H14_4 N12_4 1_555 1_555
N13_4 N18_2 1_555 1_555
N18_2 C17_4 1_555 1_555
N15_4 Zn5_3 1_555 1_555
N2_4 N8_4 1_555 1_555
C4_4 N8_4 1_555 1_555
C6_4 C9_4 1_555 1_555
C7_4 C8_4 1_555 1_555
C10_4 C13_4 1_555 1_555
C13_4 C16_4 1_555 1_555
C14_4 C15_4 1_555 1_555
N11_4 N15_4 1_555 1_555
C17_4 N15_4 1_555 1_555
C18 N19 1_555 1_555
H16 C18 1_555 1_555
H17 C18 1_555 1_555
H18 C18 1_555 1_555
H19 N19 1_555 1_555
N19_2 H15 1_555 1_555
C19 N19_2 1_555 1_555
H20 C19 1_555 1_555
H21 C19 1_555 1_555
H22 C19 1_555 1_555
C18_2 N19_3 1_555 1_555
H16_2 C18_2 1_555 1_555
H17_2 C18_2 1_555 1_555
H18_2 C18_2 1_555 1_555
H19_2 N19_3 1_555 1_555
N19_4 H15_2 1_555 1_555
C19_2 N19_4 1_555 1_555
H20_2 C19_2 1_555 1_555
H21_2 C19_2 1_555 1_555
H22_2 C19_2 1_555 1_555
N19_5 H15_3 1_555 1_555
C18_3 N19_5 1_555 1_555
H16_3 C18_3 1_555 1_555
H17_3 C18_3 1_555 1_555
H18_3 C18_3 1_555 1_555
H19_3 N19_5 1_555 1_555
C19_3 N19_5 1_555 1_555
H20_3 C19_3 1_555 1_555
H21_3 C19_3 1_555 1_555
H22_3 C19_3 1_555 1_555
N19_6 H15_4 1_555 1_555
C18_4 N19_6 1_555 1_555
H16_4 C18_4 1_555 1_555
H17_4 C18_4 1_555 1_555
H18_4 C18_4 1_555 1_555
H19_4 N19_6 1_555 1_555
C19_4 N19_6 1_555 1_555
H20_4 C19_4 1_555 1_555
H21_4 C19_4 1_555 1_555
H22_4 C19_4 1_555 1_555

#END
