
###############################################################################
#
# This file contains modified crystal structure data generated from the
# MOF subset of the Cambridge Structural Database (CSD) v543 
# hosted by the Cambridge Crystallographic Data Centre (CCDC).
#
# This work is licensed under the Creative Commons
# Attribution-NonCommercial-ShareAlike 4.0 International License.
# To view a copy of this license, visit
# http://creativecommons.org/licenses/by-nc-sa/4.0/
# or send a letter to
# Creative Commons, PO Box 1866, Mountain View, CA 94042, USA.
#
# CIF created using the CSD Python API on 29 September 2022
# The structure has been converted into the P1 space group
# The structure has a 3D framework
# The original CSD entry UMEXUF is in the monoclinic crystal system
# The framework has been calculated to contain at least 10.0% void space
# The void calculation uses a probe of radius 1.32A, grid spacing 0.4
#
###############################################################################

data_UMEXUF
_chemical_formula_moiety         '(C40 H28 O42 Zn15)n'
_symmetry_cell_setting           triclinic
_symmetry_space_group_name_H-M   'P 1'
_symmetry_Int_Tables_number      1
_space_group_name_Hall           'P 1'
loop_
_symmetry_equiv_pos_site_id
_symmetry_equiv_pos_as_xyz
1 x,y,z
_cell_length_a                   7.4087(3)
_cell_length_b                   16.4236(6)
_cell_length_c                   14.5347(5)
_cell_angle_alpha                90
_cell_angle_beta                 94.9930(10)
_cell_angle_gamma                90
_cell_volume                     1761.84
loop_
_atom_site_label
_atom_site_type_symbol
_atom_site_fract_x
_atom_site_fract_y
_atom_site_fract_z
Zn16 Zn 0.0000 0.0000 0.0000
O13 O 0.0174(7) 0.3947(3) 0.6833(3)
O18 O 0.0783(7) 0.0705(4) 0.7831(4)
H9 H 0.0486 0.2244 0.7292
Zn4 Zn 0.22160(10) 0.48192(5) 0.68087(5)
Zn5 Zn 0.19130(10) 0.37277(5) 0.47910(5)
O21 O 0.3799(8) 0.4070(3) 0.7644(4)
H11 H 0.3648 0.3578 0.7809
H12 H 0.3587 0.4387 0.8082
O22 O 0.1580(10) 0.2413(5) 0.4283(5)
H13 H 0.2193 0.2025 0.4554
H14 H 0.0719 0.2211 0.3931
Zn16_2 Zn 0.0000 0.0000 1.0000
O33 O 0.0728(6) 0.5496(3) 0.7671(3)
O34 O 0.4217(7) 0.5705(4) 0.7169(4)
O35 O 0.2460(6) 0.4826(3) 0.5465(3)
O36 O 0.3778(6) 0.3138(3) 0.5603(4)
O37 O 0.0237(6) 0.4130(3) 0.3716(3)
O38 O 0.4014(6) 0.4157(3) 0.3973(3)
H16 H 0.1638 0.5240 0.5180
Zn16_3 Zn 0.0000 1.0000 0.0000
Zn15 Zn 0.27840(10) 0.98192(5) 0.81913(5)
Zn16_4 Zn 0.0000 1.0000 1.0000
Zn7 Zn 0.72160(10) 0.01808(5) 0.18087(5)
Zn16_5 Zn 1.0000 0.0000 0.0000
Zn1 Zn 0.5000 0.5000 0.5000
O1 O 0.0300(7) 0.6590(3) 0.4574(3)
O3 O 0.6222(6) 0.6862(3) 0.4397(4)
O4 O 0.3962(6) 0.5959(3) 0.4191(3)
O5 O 0.4763(6) 0.9130(3) 0.1284(3)
O6 O 0.5728(6) 0.9504(3) 0.2671(3)
O8 O 0.0986(6) 0.9157(3) 0.1027(3)
C1 C 0.1693(8) 0.7197(4) 0.3356(4)
C2 C 0.3569(9) 0.7253(4) 0.3524(4)
C3 C 0.4465(8) 0.7895(4) 0.3128(4)
C4 C 0.3561(8) 0.8455(4) 0.2552(4)
C5 C 0.1673(8) 0.8403(4) 0.2401(4)
C6 C 0.0770(8) 0.7784(4) 0.2805(4)
C7 C 0.0541(8) 0.6543(4) 0.3741(5)
C8 C 0.4656(9) 0.6637(4) 0.4080(4)
C9 C 0.4719(8) 0.9079(4) 0.2137(4)
C10 C 0.0544(9) 0.9007(4) 0.1810(4)
H6 H 0.5712 0.7946 0.3258
O12 O 0.9700(7) 0.3410(3) 0.5426(3)
O15 O 0.6038(6) 0.4041(3) 0.5809(3)
O16 O 0.5237(6) 0.0870(3) 0.8716(3)
O17 O 0.4272(6) 0.0496(3) 0.7329(3)
O19 O 0.9014(6) 0.0843(3) 0.8973(3)
C11 C 0.8307(8) 0.2803(4) 0.6644(4)
C12 C 0.6431(9) 0.2747(4) 0.6476(4)
C13 C 0.5535(8) 0.2105(4) 0.6872(4)
C14 C 0.6439(8) 0.1545(4) 0.7448(4)
C15 C 0.8327(8) 0.1597(4) 0.7599(4)
C16 C 0.9230(8) 0.2216(4) 0.7195(4)
C17 C 0.9459(8) 0.3457(4) 0.6259(5)
C18 C 0.5344(9) 0.3363(4) 0.5920(4)
C19 C 0.5281(8) 0.0921(4) 0.7863(4)
C20 C 0.9456(9) 0.0993(4) 0.8190(4)
H8 H 0.4288 0.2054 0.6742
O20 O 0.7540(6) 0.5174(3) 0.4535(3)
H10 H 0.8362 0.4760 0.4820
O23 O 0.5986(6) 0.5843(3) 0.6027(3)
Zn6 Zn 0.80870(10) 0.62723(5) 0.52090(5)
Zn8 Zn 0.30870(10) 0.87277(5) 0.02090(5)
Zn14 Zn 0.69130(10) 0.12723(5) 0.97910(5)
Zn16_6 Zn 1.0000 0.0000 1.0000
Zn17 Zn 0.77840(10) 0.51808(5) 0.31913(5)
O32 O 0.9763(6) 0.5870(3) 0.6284(3)
Zn16_7 Zn 1.0000 1.0000 0.0000
Zn16_8 Zn 1.0000 1.0000 1.0000
O2 O 0.9826(7) 0.6053(3) 0.3167(3)
O7 O 0.9217(7) 0.9295(4) 0.2169(4)
O10 O 0.8420(10) 0.7587(5) 0.5717(5)
O11 O 0.6201(8) 0.5930(3) 0.2356(4)
H2 H 0.7807 0.7975 0.5446
H3 H 0.9281 0.7789 0.6069
H4 H 0.6352 0.6422 0.2191
H5 H 0.6413 0.5613 0.1918
H7 H 0.9514 0.7756 0.2708
O26 O 0.9272(6) 0.4504(3) 0.2329(3)
O27 O 0.5783(7) 0.4295(4) 0.2831(4)
O1_2 O 0.4700(7) 0.1590(3) 0.0426(3)
O2_2 O 0.5174(7) 0.1053(3) 0.1833(3)
O4_2 O 0.1038(6) 0.0959(3) 0.0809(3)
O11_2 O 0.8799(8) 0.0930(3) 0.2644(4)
C1_2 C 0.3307(8) 0.2197(4) 0.1644(4)
C2_2 C 0.1431(9) 0.2253(4) 0.1476(4)
C3_2 C 0.0535(8) 0.2895(4) 0.1872(4)
C4_2 C 0.1439(8) 0.3455(4) 0.2448(4)
C5_2 C 0.3327(8) 0.3403(4) 0.2599(4)
C6_2 C 0.4230(8) 0.2784(4) 0.2195(4)
C7_2 C 0.4459(8) 0.1543(4) 0.1259(5)
C8_2 C 0.0344(9) 0.1637(4) 0.0920(4)
C9_2 C 0.0281(8) 0.4079(4) 0.2863(4)
C10_2 C 0.4456(9) 0.4007(4) 0.3190(4)
H4_2 H 0.8648 0.1422 0.2809
H5_2 H 0.8587 0.0613 0.3082
H7_2 H 0.5486 0.2756 0.2292
O28 O 0.7460(6) 0.0174(3) 0.0465(3)
O29 O 0.8778(6) 0.1862(3) 0.0603(4)
O10_2 O 0.6580(10) 0.2587(5) 0.9283(5)
H1 H 0.3362 0.0240 0.9820
H2_2 H 0.7193 0.2975 0.9554
H3_2 H 0.5719 0.2789 0.8931
H15 H 0.6638 0.9760 0.0180
O9 O 0.2540(6) 0.9826(3) 0.9535(3)
O14 O 0.1222(6) 0.8138(3) 0.9397(4)
H8_2 H 0.0712 0.7054 0.8258
H6_2 H 0.9288 0.2946 0.1742
O22_2 O 0.3420(10) 0.7413(5) 0.0717(5)
H13_2 H 0.2807 0.7025 0.0446
H14_2 H 0.4281 0.7211 0.1069
O12_2 O 0.5300(7) 0.8410(3) 0.9574(3)
O13_2 O 0.4826(7) 0.8947(3) 0.8167(3)
O15_2 O 0.8962(6) 0.9041(3) 0.9191(3)
C11_2 C 0.6693(8) 0.7803(4) 0.8356(4)
C12_2 C 0.8569(9) 0.7747(4) 0.8524(4)
C13_2 C 0.9465(8) 0.7105(4) 0.8128(4)
C14_2 C 0.8561(8) 0.6545(4) 0.7552(4)
C15_2 C 0.6673(8) 0.6597(4) 0.7401(4)
C16_2 C 0.5770(8) 0.7216(4) 0.7805(4)
C17_2 C 0.5541(8) 0.8457(4) 0.8741(5)
C18_2 C 0.9656(9) 0.8363(4) 0.9080(4)
C19_2 C 0.9719(8) 0.5921(4) 0.7137(4)
C20_2 C 0.5544(9) 0.5993(4) 0.6810(4)
H9_2 H 0.4514 0.7244 0.7708
O21_2 O 0.1201(8) 0.9070(3) 0.7356(4)
H11_2 H 0.1352 0.8578 0.7191
H12_2 H 0.1413 0.9387 0.6918
loop_
_geom_bond_atom_site_label_1
_geom_bond_atom_site_label_2
_geom_bond_site_symmetry_1
_geom_bond_site_symmetry_2
Zn4 O13 1_555 1_555
O21 Zn4 1_555 1_555
H11 O21 1_555 1_555
H12 O21 1_555 1_555
O22 Zn5 1_555 1_555
H13 O22 1_555 1_555
H14 O22 1_555 1_555
O33 Zn4 1_555 1_555
O34 Zn4 1_555 1_555
O35 Zn4 1_555 1_555
O36 Zn5 1_555 1_555
O37 Zn5 1_555 1_555
O38 Zn5 1_555 1_555
H16 O35 1_555 1_555
Zn5 O35 1_555 1_555
Zn1 O4 1_555 1_555
O1 C7 1_555 1_555
O3 C8 1_555 1_555
O4 C8 1_555 1_555
O5 C9 1_555 1_555
O6 C9 1_555 1_555
O8 C10 1_555 1_555
O35 Zn1 1_555 1_555
C1 C2 1_555 1_555
C2 C3 1_555 1_555
C3 C4 1_555 1_555
C4 C5 1_555 1_555
C5 C6 1_555 1_555
C6 C1 1_555 1_555
C7 C1 1_555 1_555
C8 C2 1_555 1_555
C9 C4 1_555 1_555
C10 C5 1_555 1_555
H6 C3 1_555 1_555
O12 C17 1_555 1_555
O36 C18 1_555 1_555
O15 Zn1 1_555 1_555
O16 C19 1_555 1_555
O17 C19 1_555 1_555
O19 C20 1_555 1_555
C11 C12 1_555 1_555
C12 C13 1_555 1_555
C13 C14 1_555 1_555
C14 C15 1_555 1_555
C15 C16 1_555 1_555
C16 C11 1_555 1_555
C17 C11 1_555 1_555
C18 O15 1_555 1_555
C19 C14 1_555 1_555
C20 C15 1_555 1_555
H8 C13 1_555 1_555
O20 Zn1 1_555 1_555
H10 O20 1_555 1_555
O23 Zn1 1_555 1_555
O38 Zn1 1_555 1_555
Zn6 O3 1_555 1_555
Zn8 O5 1_555 1_555
Zn16_3 O8 1_555 1_555
Zn14 O16 1_555 1_555
Zn16_6 O19 1_555 1_555
Zn17 O20 1_555 1_555
O8 Zn8 1_555 1_555
O19 Zn14 1_555 1_555
C12 C18 1_555 1_555
O20 Zn6 1_555 1_555
O23 Zn6 1_555 1_555
Zn6 O32 1_555 1_555
Zn17 O2 1_555 1_555
O10 Zn6 1_555 1_555
O11 Zn17 1_555 1_555
H2 O10 1_555 1_555
H3 O10 1_555 1_555
H4 O11 1_555 1_555
H5 O11 1_555 1_555
O26 Zn17 1_555 1_555
O27 Zn17 1_555 1_555
Zn16 O4_2 1_555 1_555
Zn7 O2_2 1_555 1_555
O1_2 C7_2 1_555 1_555
O2_2 C7_2 1_555 1_555
O4_2 C8_2 1_555 1_555
O37 C9_2 1_555 1_555
O27 C10_2 1_555 1_555
O38 C10_2 1_555 1_555
O11_2 Zn7 1_555 1_555
C1_2 C2_2 1_555 1_555
C2_2 C3_2 1_555 1_555
C3_2 C4_2 1_555 1_555
C4_2 C5_2 1_555 1_555
C5_2 C6_2 1_555 1_555
C6_2 C1_2 1_555 1_555
C7_2 C1_2 1_555 1_555
C8_2 C2_2 1_555 1_555
C9_2 C4_2 1_555 1_555
C10_2 C5_2 1_555 1_555
H4_2 O11_2 1_555 1_555
H5_2 O11_2 1_555 1_555
H7_2 C6_2 1_555 1_555
O28 Zn7 1_555 1_555
O10_2 Zn14 1_555 1_555
H2_2 O10_2 1_555 1_555
H3_2 O10_2 1_555 1_555
O9 Zn16_4 1_555 1_555
Zn15 O9 1_555 1_555
O28 Zn16_5 1_555 1_555
O22_2 Zn8 1_555 1_555
H13_2 O22_2 1_555 1_555
H14_2 O22_2 1_555 1_555
O12_2 C17_2 1_555 1_555
O13_2 C17_2 1_555 1_555
O15_2 Zn16_8 1_555 1_555
O32 C19_2 1_555 1_555
O34 C20_2 1_555 1_555
O23 C20_2 1_555 1_555
C11_2 C12_2 1_555 1_555
C12_2 C13_2 1_555 1_555
C13_2 C14_2 1_555 1_555
C14_2 C15_2 1_555 1_555
C15_2 C16_2 1_555 1_555
C16_2 C11_2 1_555 1_555
C17_2 C11_2 1_555 1_555
C18_2 O15_2 1_555 1_555
C19_2 C14_2 1_555 1_555
C20_2 C15_2 1_555 1_555
H9_2 C16_2 1_555 1_555
Zn15 O13_2 1_555 1_555
O21_2 Zn15 1_555 1_555
H11_2 O21_2 1_555 1_555
H12_2 O21_2 1_555 1_555
C12_2 C18_2 1_555 1_555

#END
