
###############################################################################
#
# This file contains modified crystal structure data generated from the
# MOF subset of the Cambridge Structural Database (CSD) v543 
# hosted by the Cambridge Crystallographic Data Centre (CCDC).
#
# This work is licensed under the Creative Commons
# Attribution-NonCommercial-ShareAlike 4.0 International License.
# To view a copy of this license, visit
# http://creativecommons.org/licenses/by-nc-sa/4.0/
# or send a letter to
# Creative Commons, PO Box 1866, Mountain View, CA 94042, USA.
#
# CIF created using the CSD Python API on 29 September 2022
# The structure has been converted into the P1 space group
# The structure has a 3D framework
# The original CSD entry UMIGAA is in the tetragonal crystal system
# The framework has been calculated to contain at least 10.0% void space
# The void calculation uses a probe of radius 1.32A, grid spacing 0.4
# The framework is charged, counterions have been retained in the structure
# H atom positions have been added when not included in the experimental data
# Generated hydrogen atom positions removed from atoms on special positions
#
###############################################################################

data_UMIGAA
_chemical_formula_moiety         '(C144 H72 Co8 O112 Zn16 8-)n'
_symmetry_cell_setting           triclinic
_symmetry_space_group_name_H-M   'P 1'
_symmetry_Int_Tables_number      1
_space_group_name_Hall           'P 1'
loop_
_symmetry_equiv_pos_site_id
_symmetry_equiv_pos_as_xyz
1 x,y,z
_cell_length_a                   20.508(4)
_cell_length_b                   20.508(4)
_cell_length_c                   17.792(4)
_cell_angle_alpha                90
_cell_angle_beta                 90
_cell_angle_gamma                90
_cell_volume                     7482.92
loop_
_atom_site_label
_atom_site_type_symbol
_atom_site_fract_x
_atom_site_fract_y
_atom_site_fract_z
O3 O 0.66349(18) 0.05693(18) 0.4309(3)
O8 O 0.7393(3) 0.0347(2) 0.3428(3)
C9 C 0.7069(3) 0.0222(3) 0.4027(3)
Co3 Co 0.65818(3) 0.15818(3) 0.43856(6)
Zn3 Zn 0.74291(4) 0.11922(4) 0.28977(5)
Co1 Co 0.65818(3) 0.84182(3) 0.93856(6)
Zn1 Zn 0.74291(4) 0.88078(4) 0.78977(5)
O1 O 0.66237(17) 0.83763(17) 0.8195(3)
O4 O 0.8401(3) 0.7599(2) 0.4509(3)
C1 C 0.7256(3) 0.9613(3) 0.4440(3)
O5 O 0.7651(4) 0.8677(3) 0.6845(3)
O6 O 0.8281(3) 0.8112(2) 0.3397(2)
C2 C 0.7272(4) 0.9046(3) 0.6455(4)
O7 O 0.6847(4) 0.9410(3) 0.6736(3)
C3 C 0.7114(3) 0.9575(3) 0.5198(3)
H1 H 0.6849 0.9897 0.5431
C4 C 0.7370(3) 0.9051(3) 0.5622(3)
C5 C 0.7825(3) 0.8574(3) 0.4487(3)
C6 C 0.7726(3) 0.8567(3) 0.5255(3)
H2 H 0.7907 0.8221 0.5542
C7 C 0.8187(4) 0.8042(3) 0.4112(3)
C8 C 0.7597(3) 0.9106(3) 0.4098(3)
H3 H 0.7675 0.9129 0.3573
Zn2 Zn 0.61922(4) 0.75709(4) 0.78977(5)
O9 O 0.44307(18) 0.83651(18) 0.4309(3)
O10 O 0.7401(2) 0.6599(3) 0.4509(3)
C10 C 0.5387(3) 0.7744(3) 0.4440(3)
O11 O 0.6323(3) 0.7349(4) 0.6845(3)
O12 O 0.6888(2) 0.6719(3) 0.3397(2)
C11 C 0.5954(3) 0.7728(4) 0.6455(4)
O13 O 0.5590(3) 0.8153(4) 0.6736(3)
C12 C 0.5425(3) 0.7886(3) 0.5198(3)
H4 H 0.5103 0.8151 0.5431
C13 C 0.5949(3) 0.7630(3) 0.5622(3)
C14 C 0.6426(3) 0.7175(3) 0.4487(3)
C15 C 0.6433(3) 0.7274(3) 0.5255(3)
H5 H 0.6779 0.7093 0.5542
C16 C 0.6958(3) 0.6813(4) 0.4112(3)
C17 C 0.5894(3) 0.7403(3) 0.4098(3)
H6 H 0.5871 0.7325 0.3573
O14 O 0.4653(2) 0.7607(3) 0.3428(3)
C18 C 0.4778(3) 0.7931(3) 0.4027(3)
Co2 Co 0.34182(3) 0.84182(3) 0.43856(6)
Co4 Co 0.84182(3) 0.65818(3) 0.43856(6)
Zn4 Zn 0.88078(4) 0.74291(4) 0.28977(5)
Zn5 Zn 0.75709(4) 0.61922(4) 0.28977(5)
Zn6 Zn 0.38078(4) 0.75709(4) 0.28977(5)
O15 O 0.66349(18) 0.94307(18) 0.9309(3)
O16 O 0.55693(18) 0.83651(18) 0.9309(3)
O17 O 0.7599(2) 0.8401(3) 0.9509(3)
O18 O 0.6599(3) 0.7401(2) 0.9509(3)
O19 O 0.8112(2) 0.8281(3) 0.8397(2)
O20 O 0.6719(3) 0.6888(2) 0.8397(2)
O21 O 0.7393(3) 0.9653(2) 0.8428(3)
O22 O 0.5347(2) 0.7607(3) 0.8428(3)
Co1_2 Co 0.15818(3) 0.65818(3) 0.93856(6)
Zn1_2 Zn 0.11922(4) 0.74291(4) 0.78977(5)
O1_2 O 0.16237(17) 0.66237(17) 0.8195(3)
O4_2 O 0.2401(2) 0.8401(3) 0.4509(3)
C1_2 C 0.0387(3) 0.7256(3) 0.4440(3)
O5_2 O 0.1323(3) 0.7651(4) 0.6845(3)
O6_2 O 0.1888(2) 0.8281(3) 0.3397(2)
C2_2 C 0.0954(3) 0.7272(4) 0.6455(4)
O7_2 O 0.0590(3) 0.6847(4) 0.6736(3)
C3_2 C 0.0425(3) 0.7114(3) 0.5198(3)
H1_2 H 0.0103 0.6849 0.5431
C4_2 C 0.0949(3) 0.7370(3) 0.5622(3)
C5_2 C 0.1426(3) 0.7825(3) 0.4487(3)
C6_2 C 0.1433(3) 0.7726(3) 0.5255(3)
H2_2 H 0.1779 0.7907 0.5542
C7_2 C 0.1958(3) 0.8187(4) 0.4112(3)
C8_2 C 0.0894(3) 0.7597(3) 0.4098(3)
H3_2 H 0.0871 0.7675 0.3573
Zn2_2 Zn 0.24291(4) 0.61922(4) 0.78977(5)
O9_2 O 0.16349(18) 0.44307(18) 0.4309(3)
O10_2 O 0.3401(3) 0.7401(2) 0.4509(3)
C10_2 C 0.2256(3) 0.5387(3) 0.4440(3)
O11_2 O 0.2651(4) 0.6323(3) 0.6845(3)
O12_2 O 0.3281(3) 0.6888(2) 0.3397(2)
C11_2 C 0.2272(4) 0.5954(3) 0.6455(4)
O13_2 O 0.1847(4) 0.5590(3) 0.6736(3)
C12_2 C 0.2114(3) 0.5425(3) 0.5198(3)
H4_2 H 0.1849 0.5103 0.5431
C13_2 C 0.2370(3) 0.5949(3) 0.5622(3)
C14_2 C 0.2825(3) 0.6426(3) 0.4487(3)
C15_2 C 0.2726(3) 0.6433(3) 0.5255(3)
H5_2 H 0.2907 0.6779 0.5542
C16_2 C 0.3187(4) 0.6958(3) 0.4112(3)
C17_2 C 0.2597(3) 0.5894(3) 0.4098(3)
H6_2 H 0.2675 0.5871 0.3573
O14_2 O 0.2393(3) 0.4653(2) 0.3428(3)
C18_2 C 0.2069(3) 0.4778(3) 0.4027(3)
Co2_2 Co 0.15818(3) 0.34182(3) 0.43856(6)
Zn4_2 Zn 0.25709(4) 0.88078(4) 0.28977(5)
Zn6_2 Zn 0.24291(4) 0.38078(4) 0.28977(5)
O15_2 O 0.05693(18) 0.66349(18) 0.9309(3)
O16_2 O 0.16349(18) 0.55693(18) 0.9309(3)
O17_2 O 0.1599(3) 0.7599(2) 0.9509(3)
O18_2 O 0.2599(2) 0.6599(3) 0.9509(3)
O19_2 O 0.1719(3) 0.8112(2) 0.8397(2)
O20_2 O 0.3112(2) 0.6719(3) 0.8397(2)
O21_2 O 0.0347(2) 0.7393(3) 0.8428(3)
O22_2 O 0.2393(3) 0.5347(2) 0.8428(3)
O3_2 O 0.94307(18) 0.66349(18) 0.4309(3)
O8_2 O 0.9653(2) 0.7393(3) 0.3428(3)
C9_2 C 0.9778(3) 0.7069(3) 0.4027(3)
Co1_3 Co 0.34182(3) 0.15818(3) 0.93856(6)
Zn1_3 Zn 0.25709(4) 0.11922(4) 0.78977(5)
O1_3 O 0.33763(17) 0.16237(17) 0.8195(3)
O4_3 O 0.1599(3) 0.2401(2) 0.4509(3)
C1_3 C 0.2744(3) 0.0387(3) 0.4440(3)
O5_3 O 0.2349(4) 0.1323(3) 0.6845(3)
O6_3 O 0.1719(3) 0.1888(2) 0.3397(2)
C2_3 C 0.2728(4) 0.0954(3) 0.6455(4)
O7_3 O 0.3153(4) 0.0590(3) 0.6736(3)
C3_3 C 0.2886(3) 0.0425(3) 0.5198(3)
H1_3 H 0.3151 0.0103 0.5431
C4_3 C 0.2630(3) 0.0949(3) 0.5622(3)
C5_3 C 0.2175(3) 0.1426(3) 0.4487(3)
C6_3 C 0.2274(3) 0.1433(3) 0.5255(3)
H2_3 H 0.2093 0.1779 0.5542
C7_3 C 0.1813(4) 0.1958(3) 0.4112(3)
C8_3 C 0.2403(3) 0.0894(3) 0.4098(3)
H3_3 H 0.2325 0.0871 0.3573
Zn2_3 Zn 0.38078(4) 0.24291(4) 0.78977(5)
O9_3 O 0.55693(18) 0.16349(18) 0.4309(3)
O10_3 O 0.2599(2) 0.3401(3) 0.4509(3)
C10_3 C 0.4613(3) 0.2256(3) 0.4440(3)
O11_3 O 0.3677(3) 0.2651(4) 0.6845(3)
O12_3 O 0.3112(2) 0.3281(3) 0.3397(2)
C11_3 C 0.4046(3) 0.2272(4) 0.6455(4)
O13_3 O 0.4410(3) 0.1847(4) 0.6736(3)
C12_3 C 0.4575(3) 0.2114(3) 0.5198(3)
H4_3 H 0.4897 0.1849 0.5431
C13_3 C 0.4051(3) 0.2370(3) 0.5622(3)
C14_3 C 0.3574(3) 0.2825(3) 0.4487(3)
C15_3 C 0.3567(3) 0.2726(3) 0.5255(3)
H5_3 H 0.3221 0.2907 0.5542
C16_3 C 0.3042(3) 0.3187(4) 0.4112(3)
C17_3 C 0.4106(3) 0.2597(3) 0.4098(3)
H6_3 H 0.4129 0.2675 0.3573
O14_3 O 0.5347(2) 0.2393(3) 0.3428(3)
C18_3 C 0.5222(3) 0.2069(3) 0.4027(3)
Zn4_3 Zn 0.11922(4) 0.25709(4) 0.28977(5)
Zn6_3 Zn 0.61922(4) 0.24291(4) 0.28977(5)
O15_3 O 0.33651(18) 0.05693(18) 0.9309(3)
O16_3 O 0.44307(18) 0.16349(18) 0.9309(3)
O17_3 O 0.2401(2) 0.1599(3) 0.9509(3)
O18_3 O 0.3401(3) 0.2599(2) 0.9509(3)
O19_3 O 0.1888(2) 0.1719(3) 0.8397(2)
O20_3 O 0.3281(3) 0.3112(2) 0.8397(2)
O21_3 O 0.2607(3) 0.0347(2) 0.8428(3)
O22_3 O 0.4653(2) 0.2393(3) 0.8428(3)
O3_3 O 0.33651(18) 0.94307(18) 0.4309(3)
O8_3 O 0.2607(3) 0.9653(2) 0.3428(3)
C9_3 C 0.2931(3) 0.9778(3) 0.4027(3)
O3_4 O 0.05693(18) 0.33651(18) 0.4309(3)
O8_4 O 0.0347(2) 0.2607(3) 0.3428(3)
C9_4 C 0.0222(3) 0.2931(3) 0.4027(3)
Co1_4 Co 0.84182(3) 0.34182(3) 0.93856(6)
Zn1_4 Zn 0.88078(4) 0.25709(4) 0.78977(5)
O1_4 O 0.83763(17) 0.33763(17) 0.8195(3)
O4_4 O 0.7599(2) 0.1599(3) 0.4509(3)
C1_4 C 0.9613(3) 0.2744(3) 0.4440(3)
O5_4 O 0.8677(3) 0.2349(4) 0.6845(3)
O6_4 O 0.8112(2) 0.1719(3) 0.3397(2)
C2_4 C 0.9046(3) 0.2728(4) 0.6455(4)
O7_4 O 0.9410(3) 0.3153(4) 0.6736(3)
C3_4 C 0.9575(3) 0.2886(3) 0.5198(3)
H1_4 H 0.9897 0.3151 0.5431
C4_4 C 0.9051(3) 0.2630(3) 0.5622(3)
C5_4 C 0.8574(3) 0.2175(3) 0.4487(3)
C6_4 C 0.8567(3) 0.2274(3) 0.5255(3)
H2_4 H 0.8221 0.2093 0.5542
C7_4 C 0.8042(3) 0.1813(4) 0.4112(3)
C8_4 C 0.9106(3) 0.2403(3) 0.4098(3)
H3_4 H 0.9129 0.2325 0.3573
Zn2_4 Zn 0.75709(4) 0.38078(4) 0.78977(5)
O9_4 O 0.83651(18) 0.55693(18) 0.4309(3)
O10_4 O 0.6599(3) 0.2599(2) 0.4509(3)
C10_4 C 0.7744(3) 0.4613(3) 0.4440(3)
O11_4 O 0.7349(4) 0.3677(3) 0.6845(3)
O12_4 O 0.6719(3) 0.3112(2) 0.3397(2)
C11_4 C 0.7728(4) 0.4046(3) 0.6455(4)
O13_4 O 0.8153(4) 0.4410(3) 0.6736(3)
C12_4 C 0.7886(3) 0.4575(3) 0.5198(3)
H4_4 H 0.8151 0.4897 0.5431
C13_4 C 0.7630(3) 0.4051(3) 0.5622(3)
C14_4 C 0.7175(3) 0.3574(3) 0.4487(3)
C15_4 C 0.7274(3) 0.3567(3) 0.5255(3)
H5_4 H 0.7093 0.3221 0.5542
C16_4 C 0.6813(4) 0.3042(3) 0.4112(3)
C17_4 C 0.7403(3) 0.4106(3) 0.4098(3)
H6_4 H 0.7325 0.4129 0.3573
O14_4 O 0.7607(3) 0.5347(2) 0.3428(3)
C18_4 C 0.7931(3) 0.5222(3) 0.4027(3)
O15_4 O 0.94307(18) 0.33651(18) 0.9309(3)
O16_4 O 0.83651(18) 0.44307(18) 0.9309(3)
O17_4 O 0.8401(3) 0.2401(2) 0.9509(3)
O18_4 O 0.7401(2) 0.3401(3) 0.9509(3)
O19_4 O 0.8281(3) 0.1888(2) 0.8397(2)
O20_4 O 0.6888(2) 0.3281(3) 0.8397(2)
O21_4 O 0.9653(2) 0.2607(3) 0.8428(3)
O22_4 O 0.7607(3) 0.4653(2) 0.8428(3)
C9_5 C 0.2931(3) 0.0222(3) 0.9027(3)
O1_5 O 0.33763(17) 0.83763(17) 0.3195(3)
O2 O 0.3515(3) 0.8515(3) 0.5524(4)
O5_5 O 0.2349(4) 0.8677(3) 0.1845(3)
C2_5 C 0.2728(4) 0.9046(3) 0.1455(4)
O7_5 O 0.3153(4) 0.9410(3) 0.1736(3)
C3_5 C 0.2886(3) 0.9575(3) 0.0198(3)
H1_5 H 0.3151 0.9897 0.0431
C4_5 C 0.2630(3) 0.9051(3) 0.0622(3)
C6_5 C 0.2274(3) 0.8567(3) 0.0255(3)
H2_5 H 0.2093 0.8221 0.0542
O11_5 O 0.3677(3) 0.7349(4) 0.1845(3)
C11_5 C 0.4046(3) 0.7728(4) 0.1455(4)
O13_5 O 0.4410(3) 0.8153(4) 0.1736(3)
C12_5 C 0.4575(3) 0.7886(3) 0.0198(3)
H4_5 H 0.4897 0.8151 0.0431
C13_5 C 0.4051(3) 0.7630(3) 0.0622(3)
C15_5 C 0.3567(3) 0.7274(3) 0.0255(3)
H5_5 H 0.3221 0.7093 0.0542
C1_5 C 0.2744(3) 0.9613(3) 0.9440(3)
C5_5 C 0.2175(3) 0.8574(3) 0.9487(3)
C7_5 C 0.1813(4) 0.8042(3) 0.9112(3)
C8_5 C 0.2403(3) 0.9106(3) 0.9098(3)
H3_5 H 0.2325 0.9129 0.8573
C10_5 C 0.4613(3) 0.7744(3) 0.9440(3)
C14_5 C 0.3574(3) 0.7175(3) 0.9487(3)
C16_5 C 0.3042(3) 0.6813(4) 0.9112(3)
C17_5 C 0.4106(3) 0.7403(3) 0.9098(3)
H6_5 H 0.4129 0.7325 0.8573
C18_5 C 0.5222(3) 0.7931(3) 0.9027(3)
O1_6 O 0.66237(17) 0.16237(17) 0.3195(3)
O2_2 O 0.6485(3) 0.1485(3) 0.5524(4)
O5_6 O 0.7651(4) 0.1323(3) 0.1845(3)
C2_6 C 0.7272(4) 0.0954(3) 0.1455(4)
O7_6 O 0.6847(4) 0.0590(3) 0.1736(3)
C3_6 C 0.7114(3) 0.0425(3) 0.0198(3)
H1_6 H 0.6849 0.0103 0.0431
C4_6 C 0.7370(3) 0.0949(3) 0.0622(3)
C6_6 C 0.7726(3) 0.1433(3) 0.0255(3)
H2_6 H 0.7907 0.1779 0.0542
O11_6 O 0.6323(3) 0.2651(4) 0.1845(3)
C11_6 C 0.5954(3) 0.2272(4) 0.1455(4)
O13_6 O 0.5590(3) 0.1847(4) 0.1736(3)
C12_6 C 0.5425(3) 0.2114(3) 0.0198(3)
H4_6 H 0.5103 0.1849 0.0431
C13_6 C 0.5949(3) 0.2370(3) 0.0622(3)
C15_6 C 0.6433(3) 0.2726(3) 0.0255(3)
H5_6 H 0.6779 0.2907 0.0542
C1_6 C 0.7256(3) 0.0387(3) 0.9440(3)
C5_6 C 0.7825(3) 0.1426(3) 0.9487(3)
C7_6 C 0.8187(4) 0.1958(3) 0.9112(3)
C8_6 C 0.7597(3) 0.0894(3) 0.9098(3)
H3_6 H 0.7675 0.0871 0.8573
C10_6 C 0.5387(3) 0.2256(3) 0.9440(3)
C14_6 C 0.6426(3) 0.2825(3) 0.9487(3)
C16_6 C 0.6958(3) 0.3187(4) 0.9112(3)
C17_6 C 0.5894(3) 0.2597(3) 0.9098(3)
H6_6 H 0.5871 0.2675 0.8573
C18_6 C 0.4778(3) 0.2069(3) 0.9027(3)
C9_6 C 0.7069(3) 0.9778(3) 0.9027(3)
O1_7 O 0.16237(17) 0.33763(17) 0.3195(3)
O2_3 O 0.1485(3) 0.3515(3) 0.5524(4)
O5_7 O 0.1323(3) 0.2349(4) 0.1845(3)
C2_7 C 0.0954(3) 0.2728(4) 0.1455(4)
O7_7 O 0.0590(3) 0.3153(4) 0.1736(3)
C3_7 C 0.0425(3) 0.2886(3) 0.0198(3)
H1_7 H 0.0103 0.3151 0.0431
C4_7 C 0.0949(3) 0.2630(3) 0.0622(3)
C6_7 C 0.1433(3) 0.2274(3) 0.0255(3)
H2_7 H 0.1779 0.2093 0.0542
O11_7 O 0.2651(4) 0.3677(3) 0.1845(3)
C11_7 C 0.2272(4) 0.4046(3) 0.1455(4)
O13_7 O 0.1847(4) 0.4410(3) 0.1736(3)
C12_7 C 0.2114(3) 0.4575(3) 0.0198(3)
H4_7 H 0.1849 0.4897 0.0431
C13_7 C 0.2370(3) 0.4051(3) 0.0622(3)
C15_7 C 0.2726(3) 0.3567(3) 0.0255(3)
H5_7 H 0.2907 0.3221 0.0542
C1_7 C 0.0387(3) 0.2744(3) 0.9440(3)
C5_7 C 0.1426(3) 0.2175(3) 0.9487(3)
C7_7 C 0.1958(3) 0.1813(4) 0.9112(3)
C8_7 C 0.0894(3) 0.2403(3) 0.9098(3)
H3_7 H 0.0871 0.2325 0.8573
C10_7 C 0.2256(3) 0.4613(3) 0.9440(3)
C14_7 C 0.2825(3) 0.3574(3) 0.9487(3)
C16_7 C 0.3187(4) 0.3042(3) 0.9112(3)
C17_7 C 0.2597(3) 0.4106(3) 0.9098(3)
H6_7 H 0.2675 0.4129 0.8573
C18_7 C 0.2069(3) 0.5222(3) 0.9027(3)
C9_7 C 0.9778(3) 0.2931(3) 0.9027(3)
C9_8 C 0.0222(3) 0.7069(3) 0.9027(3)
O1_8 O 0.83763(17) 0.66237(17) 0.3195(3)
O2_4 O 0.8515(3) 0.6485(3) 0.5524(4)
O5_8 O 0.8677(3) 0.7651(4) 0.1845(3)
C2_8 C 0.9046(3) 0.7272(4) 0.1455(4)
O7_8 O 0.9410(3) 0.6847(4) 0.1736(3)
C3_8 C 0.9575(3) 0.7114(3) 0.0198(3)
H1_8 H 0.9897 0.6849 0.0431
C4_8 C 0.9051(3) 0.7370(3) 0.0622(3)
C6_8 C 0.8567(3) 0.7726(3) 0.0255(3)
H2_8 H 0.8221 0.7907 0.0542
O11_8 O 0.7349(4) 0.6323(3) 0.1845(3)
C11_8 C 0.7728(4) 0.5954(3) 0.1455(4)
O13_8 O 0.8153(4) 0.5590(3) 0.1736(3)
C12_8 C 0.7886(3) 0.5425(3) 0.0198(3)
H4_8 H 0.8151 0.5103 0.0431
C13_8 C 0.7630(3) 0.5949(3) 0.0622(3)
C15_8 C 0.7274(3) 0.6433(3) 0.0255(3)
H5_8 H 0.7093 0.6779 0.0542
C1_8 C 0.9613(3) 0.7256(3) 0.9440(3)
C5_8 C 0.8574(3) 0.7825(3) 0.9487(3)
C7_8 C 0.8042(3) 0.8187(4) 0.9112(3)
C8_8 C 0.9106(3) 0.7597(3) 0.9098(3)
H3_8 H 0.9129 0.7675 0.8573
C10_8 C 0.7744(3) 0.5387(3) 0.9440(3)
C14_8 C 0.7175(3) 0.6426(3) 0.9487(3)
C16_8 C 0.6813(4) 0.6958(3) 0.9112(3)
C17_8 C 0.7403(3) 0.5894(3) 0.9098(3)
H6_8 H 0.7325 0.5871 0.8573
C18_8 C 0.7931(3) 0.4778(3) 0.9027(3)
O2_5 O 0.6485(3) 0.8515(3) 0.0524(4)
O2_6 O 0.1485(3) 0.6485(3) 0.0524(4)
O2_7 O 0.3515(3) 0.1485(3) 0.0524(4)
O2_8 O 0.8515(3) 0.3515(3) 0.0524(4)
loop_
_geom_bond_atom_site_label_1
_geom_bond_atom_site_label_2
_geom_bond_site_symmetry_1
_geom_bond_site_symmetry_2
O3 C9 1_555 1_555
O8 C9 1_555 1_555
Co3 O3 1_555 1_555
Zn3 O8 1_555 1_555
Co1 O1 1_555 1_555
Zn1 O1 1_555 1_555
O1 Zn2 1_555 1_555
O4 C7 1_555 1_555
C1 C3 1_555 1_555
O5 Zn1 1_555 1_555
O6 C7 1_555 1_555
C2 O5 1_555 1_555
O7 C2 1_555 1_555
C3 H1 1_555 1_555
C4 C2 1_555 1_555
C5 C6 1_555 1_555
C6 C4 1_555 1_555
H2 C6 1_555 1_555
C7 C5 1_555 1_555
C8 C1 1_555 1_555
H3 C8 1_555 1_555
Zn2 O11 1_555 1_555
O9 C18 1_555 1_555
O10 C16 1_555 1_555
C10 C12 1_555 1_555
O11 C11 1_555 1_555
O12 C16 1_555 1_555
C11 O13 1_555 1_555
C12 H4 1_555 1_555
C13 C11 1_555 1_555
C14 C15 1_555 1_555
C15 C13 1_555 1_555
H5 C15 1_555 1_555
C16 C14 1_555 1_555
C17 C10 1_555 1_555
H6 C17 1_555 1_555
O14 C18 1_555 1_555
C18 C10 1_555 1_555
Co2 O9 1_555 1_555
Co4 O4 1_555 1_555
Zn4 O6 1_555 1_555
Zn5 O12 1_555 1_555
Zn6 O14 1_555 1_555
O15 Co1 1_555 1_555
O16 Co1 1_555 1_555
O17 Co1 1_555 1_555
O18 Co1 1_555 1_555
O19 Zn1 1_555 1_555
O20 Zn2 1_555 1_555
O21 Zn1 1_555 1_555
O22 Zn2 1_555 1_555
C3 C4 1_555 1_555
C5 C8 1_555 1_555
O10 Co4 1_555 1_555
C12 C13 1_555 1_555
C14 C17 1_555 1_555
Co1_2 O1_2 1_555 1_555
Zn1_2 O1_2 1_555 1_555
O1_2 Zn2_2 1_555 1_555
O4_2 C7_2 1_555 1_555
C1_2 C3_2 1_555 1_555
O5_2 Zn1_2 1_555 1_555
O6_2 C7_2 1_555 1_555
C2_2 O5_2 1_555 1_555
O7_2 C2_2 1_555 1_555
C3_2 H1_2 1_555 1_555
C4_2 C2_2 1_555 1_555
C5_2 C6_2 1_555 1_555
C6_2 C4_2 1_555 1_555
H2_2 C6_2 1_555 1_555
C7_2 C5_2 1_555 1_555
C8_2 C1_2 1_555 1_555
H3_2 C8_2 1_555 1_555
Zn2_2 O11_2 1_555 1_555
O9_2 C18_2 1_555 1_555
O10_2 C16_2 1_555 1_555
C10_2 C12_2 1_555 1_555
O11_2 C11_2 1_555 1_555
O12_2 C16_2 1_555 1_555
C11_2 O13_2 1_555 1_555
C12_2 H4_2 1_555 1_555
C13_2 C11_2 1_555 1_555
C14_2 C15_2 1_555 1_555
C15_2 C13_2 1_555 1_555
H5_2 C15_2 1_555 1_555
C16_2 C14_2 1_555 1_555
C17_2 C10_2 1_555 1_555
H6_2 C17_2 1_555 1_555
O14_2 C18_2 1_555 1_555
C18_2 C10_2 1_555 1_555
Co2_2 O9_2 1_555 1_555
Co2 O4_2 1_555 1_555
Zn4_2 O6_2 1_555 1_555
Zn6 O12_2 1_555 1_555
Zn6_2 O14_2 1_555 1_555
O15_2 Co1_2 1_555 1_555
O16_2 Co1_2 1_555 1_555
O17_2 Co1_2 1_555 1_555
O18_2 Co1_2 1_555 1_555
O19_2 Zn1_2 1_555 1_555
O20_2 Zn2_2 1_555 1_555
O21_2 Zn1_2 1_555 1_555
O22_2 Zn2_2 1_555 1_555
C3_2 C4_2 1_555 1_555
C5_2 C8_2 1_555 1_555
O10_2 Co2 1_555 1_555
C12_2 C13_2 1_555 1_555
C14_2 C17_2 1_555 1_555
O3_2 C9_2 1_555 1_555
O8_2 C9_2 1_555 1_555
Co4 O3_2 1_555 1_555
Zn4 O8_2 1_555 1_555
Co1_3 O1_3 1_555 1_555
Zn1_3 O1_3 1_555 1_555
O1_3 Zn2_3 1_555 1_555
O4_3 C7_3 1_555 1_555
C1_3 C3_3 1_555 1_555
O5_3 Zn1_3 1_555 1_555
O6_3 C7_3 1_555 1_555
C2_3 O5_3 1_555 1_555
O7_3 C2_3 1_555 1_555
C3_3 H1_3 1_555 1_555
C4_3 C2_3 1_555 1_555
C5_3 C6_3 1_555 1_555
C6_3 C4_3 1_555 1_555
H2_3 C6_3 1_555 1_555
C7_3 C5_3 1_555 1_555
C8_3 C1_3 1_555 1_555
H3_3 C8_3 1_555 1_555
Zn2_3 O11_3 1_555 1_555
O9_3 C18_3 1_555 1_555
O10_3 C16_3 1_555 1_555
C10_3 C12_3 1_555 1_555
O11_3 C11_3 1_555 1_555
O12_3 C16_3 1_555 1_555
C11_3 O13_3 1_555 1_555
C12_3 H4_3 1_555 1_555
C13_3 C11_3 1_555 1_555
C14_3 C15_3 1_555 1_555
C15_3 C13_3 1_555 1_555
H5_3 C15_3 1_555 1_555
C16_3 C14_3 1_555 1_555
C17_3 C10_3 1_555 1_555
H6_3 C17_3 1_555 1_555
O14_3 C18_3 1_555 1_555
C18_3 C10_3 1_555 1_555
Co3 O9_3 1_555 1_555
Co2_2 O4_3 1_555 1_555
Zn4_3 O6_3 1_555 1_555
Zn6_2 O12_3 1_555 1_555
Zn6_3 O14_3 1_555 1_555
O15_3 Co1_3 1_555 1_555
O16_3 Co1_3 1_555 1_555
O17_3 Co1_3 1_555 1_555
O18_3 Co1_3 1_555 1_555
O19_3 Zn1_3 1_555 1_555
O20_3 Zn2_3 1_555 1_555
O21_3 Zn1_3 1_555 1_555
O22_3 Zn2_3 1_555 1_555
C3_3 C4_3 1_555 1_555
C5_3 C8_3 1_555 1_555
O10_3 Co2_2 1_555 1_555
C12_3 C13_3 1_555 1_555
C14_3 C17_3 1_555 1_555
O3_3 C9_3 1_555 1_555
O8_3 C9_3 1_555 1_555
Co2 O3_3 1_555 1_555
Zn4_2 O8_3 1_555 1_555
O3_4 C9_4 1_555 1_555
O8_4 C9_4 1_555 1_555
Co2_2 O3_4 1_555 1_555
Zn4_3 O8_4 1_555 1_555
Co1_4 O1_4 1_555 1_555
Zn1_4 O1_4 1_555 1_555
O1_4 Zn2_4 1_555 1_555
O4_4 C7_4 1_555 1_555
C1_4 C3_4 1_555 1_555
O5_4 Zn1_4 1_555 1_555
O6_4 C7_4 1_555 1_555
C2_4 O5_4 1_555 1_555
O7_4 C2_4 1_555 1_555
C3_4 H1_4 1_555 1_555
C4_4 C2_4 1_555 1_555
C5_4 C6_4 1_555 1_555
C6_4 C4_4 1_555 1_555
H2_4 C6_4 1_555 1_555
C7_4 C5_4 1_555 1_555
C8_4 C1_4 1_555 1_555
H3_4 C8_4 1_555 1_555
Zn2_4 O11_4 1_555 1_555
O9_4 C18_4 1_555 1_555
O10_4 C16_4 1_555 1_555
C10_4 C12_4 1_555 1_555
O11_4 C11_4 1_555 1_555
O12_4 C16_4 1_555 1_555
C11_4 O13_4 1_555 1_555
C12_4 H4_4 1_555 1_555
C13_4 C11_4 1_555 1_555
C14_4 C15_4 1_555 1_555
C15_4 C13_4 1_555 1_555
H5_4 C15_4 1_555 1_555
C16_4 C14_4 1_555 1_555
C17_4 C10_4 1_555 1_555
H6_4 C17_4 1_555 1_555
O14_4 C18_4 1_555 1_555
C18_4 C10_4 1_555 1_555
Co4 O9_4 1_555 1_555
Co3 O4_4 1_555 1_555
Zn3 O6_4 1_555 1_555
Zn6_3 O12_4 1_555 1_555
Zn5 O14_4 1_555 1_555
O15_4 Co1_4 1_555 1_555
O16_4 Co1_4 1_555 1_555
O17_4 Co1_4 1_555 1_555
O18_4 Co1_4 1_555 1_555
O19_4 Zn1_4 1_555 1_555
O20_4 Zn2_4 1_555 1_555
O21_4 Zn1_4 1_555 1_555
O22_4 Zn2_4 1_555 1_555
C3_4 C4_4 1_555 1_555
C5_4 C8_4 1_555 1_555
O10_4 Co3 1_555 1_555
C12_4 C13_4 1_555 1_555
C14_4 C17_4 1_555 1_555
O15_3 C9_5 1_555 1_555
O21_3 C9_5 1_555 1_555
Co2 O1_5 1_555 1_555
Zn4_2 O1_5 1_555 1_555
O1_5 Zn6 1_555 1_555
O2 Co2 1_555 1_555
O5_5 Zn4_2 1_555 1_555
C2_5 O5_5 1_555 1_555
O7_5 C2_5 1_555 1_555
C3_5 H1_5 1_555 1_555
C4_5 C2_5 1_555 1_555
C6_5 C4_5 1_555 1_555
H2_5 C6_5 1_555 1_555
Zn6 O11_5 1_555 1_555
O11_5 C11_5 1_555 1_555
C11_5 O13_5 1_555 1_555
C12_5 H4_5 1_555 1_555
C13_5 C11_5 1_555 1_555
C15_5 C13_5 1_555 1_555
H5_5 C15_5 1_555 1_555
C3_5 C4_5 1_555 1_555
C12_5 C13_5 1_555 1_555
O17_2 C7_5 1_555 1_555
O19_2 C7_5 1_555 1_555
C7_5 C5_5 1_555 1_555
C8_5 C1_5 1_555 1_555
H3_5 C8_5 1_555 1_555
O16 C18_5 1_555 1_555
O18_2 C16_5 1_555 1_555
O20_2 C16_5 1_555 1_555
C16_5 C14_5 1_555 1_555
C17_5 C10_5 1_555 1_555
H6_5 C17_5 1_555 1_555
O22 C18_5 1_555 1_555
C18_5 C10_5 1_555 1_555
C5_5 C8_5 1_555 1_555
C14_5 C17_5 1_555 1_555
Co3 O1_6 1_555 1_555
Zn3 O1_6 1_555 1_555
O1_6 Zn6_3 1_555 1_555
O2_2 Co3 1_555 1_555
O5_6 Zn3 1_555 1_555
C2_6 O5_6 1_555 1_555
O7_6 C2_6 1_555 1_555
C3_6 H1_6 1_555 1_555
C4_6 C2_6 1_555 1_555
C6_6 C4_6 1_555 1_555
H2_6 C6_6 1_555 1_555
Zn6_3 O11_6 1_555 1_555
O11_6 C11_6 1_555 1_555
C11_6 O13_6 1_555 1_555
C12_6 H4_6 1_555 1_555
C13_6 C11_6 1_555 1_555
C15_6 C13_6 1_555 1_555
H5_6 C15_6 1_555 1_555
C3_6 C4_6 1_555 1_555
C12_6 C13_6 1_555 1_555
O17_4 C7_6 1_555 1_555
O19_4 C7_6 1_555 1_555
C7_6 C5_6 1_555 1_555
C8_6 C1_6 1_555 1_555
H3_6 C8_6 1_555 1_555
O16_3 C18_6 1_555 1_555
O18_4 C16_6 1_555 1_555
O20_4 C16_6 1_555 1_555
C16_6 C14_6 1_555 1_555
C17_6 C10_6 1_555 1_555
H6_6 C17_6 1_555 1_555
O22_3 C18_6 1_555 1_555
C18_6 C10_6 1_555 1_555
C5_6 C8_6 1_555 1_555
C14_6 C17_6 1_555 1_555
O15 C9_6 1_555 1_555
O21 C9_6 1_555 1_555
Co2_2 O1_7 1_555 1_555
Zn4_3 O1_7 1_555 1_555
O1_7 Zn6_2 1_555 1_555
O2_3 Co2_2 1_555 1_555
O5_7 Zn4_3 1_555 1_555
C2_7 O5_7 1_555 1_555
O7_7 C2_7 1_555 1_555
C3_7 H1_7 1_555 1_555
C4_7 C2_7 1_555 1_555
C6_7 C4_7 1_555 1_555
H2_7 C6_7 1_555 1_555
Zn6_2 O11_7 1_555 1_555
O11_7 C11_7 1_555 1_555
C11_7 O13_7 1_555 1_555
C12_7 H4_7 1_555 1_555
C13_7 C11_7 1_555 1_555
C15_7 C13_7 1_555 1_555
H5_7 C15_7 1_555 1_555
C3_7 C4_7 1_555 1_555
C12_7 C13_7 1_555 1_555
O17_3 C7_7 1_555 1_555
O19_3 C7_7 1_555 1_555
C7_7 C5_7 1_555 1_555
C8_7 C1_7 1_555 1_555
H3_7 C8_7 1_555 1_555
O16_2 C18_7 1_555 1_555
O18_3 C16_7 1_555 1_555
O20_3 C16_7 1_555 1_555
C16_7 C14_7 1_555 1_555
C17_7 C10_7 1_555 1_555
H6_7 C17_7 1_555 1_555
O22_2 C18_7 1_555 1_555
C18_7 C10_7 1_555 1_555
C5_7 C8_7 1_555 1_555
C14_7 C17_7 1_555 1_555
O15_4 C9_7 1_555 1_555
O21_4 C9_7 1_555 1_555
O15_2 C9_8 1_555 1_555
O21_2 C9_8 1_555 1_555
Co4 O1_8 1_555 1_555
Zn4 O1_8 1_555 1_555
O1_8 Zn5 1_555 1_555
O2_4 Co4 1_555 1_555
O5_8 Zn4 1_555 1_555
C2_8 O5_8 1_555 1_555
O7_8 C2_8 1_555 1_555
C3_8 H1_8 1_555 1_555
C4_8 C2_8 1_555 1_555
C6_8 C4_8 1_555 1_555
H2_8 C6_8 1_555 1_555
Zn5 O11_8 1_555 1_555
O11_8 C11_8 1_555 1_555
C11_8 O13_8 1_555 1_555
C12_8 H4_8 1_555 1_555
C13_8 C11_8 1_555 1_555
C15_8 C13_8 1_555 1_555
H5_8 C15_8 1_555 1_555
C3_8 C4_8 1_555 1_555
C12_8 C13_8 1_555 1_555
O17 C7_8 1_555 1_555
O19 C7_8 1_555 1_555
C7_8 C5_8 1_555 1_555
C8_8 C1_8 1_555 1_555
H3_8 C8_8 1_555 1_555
O16_4 C18_8 1_555 1_555
O18 C16_8 1_555 1_555
O20 C16_8 1_555 1_555
C16_8 C14_8 1_555 1_555
C17_8 C10_8 1_555 1_555
H6_8 C17_8 1_555 1_555
O22_4 C18_8 1_555 1_555
C18_8 C10_8 1_555 1_555
C5_8 C8_8 1_555 1_555
C14_8 C17_8 1_555 1_555

#END
