
###############################################################################
#
# This file contains modified crystal structure data generated from the
# MOF subset of the Cambridge Structural Database (CSD) v543 
# hosted by the Cambridge Crystallographic Data Centre (CCDC).
#
# This work is licensed under the Creative Commons
# Attribution-NonCommercial-ShareAlike 4.0 International License.
# To view a copy of this license, visit
# http://creativecommons.org/licenses/by-nc-sa/4.0/
# or send a letter to
# Creative Commons, PO Box 1866, Mountain View, CA 94042, USA.
#
# CIF created using the CSD Python API on 29 September 2022
# The structure has been converted into the P1 space group
# The structure has a 3D framework
# The original CSD entry UMOCAD is in the monoclinic crystal system
# The framework has been calculated to contain at least 10.0% void space
# The void calculation uses a probe of radius 1.32A, grid spacing 0.4
# The framework is charged, counterions have been retained in the structure
#
###############################################################################

data_UMOCAD
_chemical_formula_moiety         '(C960 H832 Cu14 N64 O128 S64 14+)n'
_symmetry_cell_setting           triclinic
_symmetry_space_group_name_H-M   'P 1'
_symmetry_Int_Tables_number      1
_space_group_name_Hall           'P 1'
loop_
_symmetry_equiv_pos_site_id
_symmetry_equiv_pos_as_xyz
1 x,y,z
_cell_length_a                   21.8025(10)
_cell_length_b                   22.0950(10)
_cell_length_c                   48.236(2)
_cell_angle_alpha                90
_cell_angle_beta                 90.174(4)
_cell_angle_gamma                90
_cell_volume                     23236.4
loop_
_atom_site_label
_atom_site_type_symbol
_atom_site_fract_x
_atom_site_fract_y
_atom_site_fract_z
S1 S 0.25314(7) 0.14200(8) 0.29703(4)
S3 S 0.26849(7) 0.11333(9) 0.19326(4)
O1 O 0.13377(17) 0.07794(17) 0.33818(8)
O3 O 0.15906(17) 0.01794(17) 0.15295(8)
O4 O 0.12499(18) 0.20558(17) 0.25954(9)
O5 O 0.73562(18) 0.10429(18) 0.40431(8)
O8 O 0.13289(17) 0.18900(17) 0.21123(8)
O10 O 0.65824(18) 0.10627(19) 0.58708(8)
O11 O 0.55543(16) 0.10422(19) 0.45929(8)
O12 O 0.53271(16) 0.1069(2) 0.50689(9)
N4 N 0.4234(2) 0.2131(2) 0.15048(11)
N5 N 0.4074(2) 0.2198(2) 0.34928(10)
C1 C 0.0409(2) 0.0513(2) 0.20369(11)
H1 H 0.005345 0.034249 0.210879
C2 C 0.0517(2) 0.1246(2) 0.26344(11)
C4 C 0.1263(2) 0.0459(2) 0.17361(11)
C5 C 0.0730(2) 0.0196(2) 0.18378(11)
C9 C 0.0557(2) 0.0584(2) 0.30365(11)
C11 C 0.0596(2) 0.1078(2) 0.21350(11)
C12 C 0.6815(2) 0.2134(2) 0.45571(11)
H4 H 0.692991 0.250353 0.463313
C13 C 0.7013(3) 0.1322(2) 0.42495(11)
C15 C 0.6265(2) 0.1877(3) 0.46411(11)
C16 C 0.0301(2) 0.0760(2) 0.27865(11)
C17 C 0.0243(2) 0.1417(2) 0.23546(12)
H7 H 0.032804 0.184808 0.232669
C19 C 0.1070(2) 0.0913(3) 0.31283(11)
C20 C 0.1024(2) 0.1560(2) 0.27391(12)
C21 C 0.6466(3) 0.1044(2) 0.43223(11)
C22 C 0.6496(2) 0.2138(2) 0.53005(11)
H8 H 0.667770 0.249828 0.524473
C24 C 0.6688(2) 0.1878(3) 0.55463(12)
C25 C 0.7197(2) 0.1866(2) 0.43660(11)
C28 C 0.0336(2) 0.0041(2) 0.32040(12)
H10 H 0.043737 0.011946 0.339882
C31 C 0.1135(2) 0.1319(2) 0.20304(12)
C34 C 0.1298(2) 0.1410(2) 0.29826(12)
C38 C 0.6115(3) 0.1309(3) 0.45226(12)
C39 C 0.1472(2) 0.1011(2) 0.18294(12)
C40 C 0.7200(2) 0.2147(3) 0.57196(11)
H13 H 0.712571 0.201611 0.591070
C41 C 0.6048(2) 0.1890(3) 0.51345(12)
C43 C 0.3103(3) 0.1735(3) 0.31804(12)
C45 C 0.4240(3) 0.2010(3) 0.17704(14)
H15 H 0.457831 0.213885 0.187269
C47 C 0.4161(3) 0.1848(3) 0.32728(13)
H16 H 0.456439 0.175947 0.322513
C48 C 0.3272(2) 0.1525(3) 0.17604(12)
C53 C 0.6418(3) 0.1336(3) 0.56239(12)
C55 C 0.5954(2) 0.1077(3) 0.54703(12)
C58 C 0.3784(3) 0.1705(3) 0.19099(13)
H21 H 0.381860 0.162305 0.209837
C59 C 0.6252(3) 0.0472(2) 0.41809(12)
H22 H 0.642565 0.045103 0.399636
H23 H 0.580850 0.047922 0.416289
C61 C 0.5788(3) 0.1349(3) 0.52254(13)
C62 C 0.5864(3) 0.2157(3) 0.48595(12)
H25 H 0.544439 0.202166 0.482190
C65 C 0.2038(2) 0.1291(3) 0.17092(13)
H29 H 0.198221 0.172512 0.169211
H30 H 0.211248 0.112710 0.152585
C71 C 0.7124(3) 0.0706(3) 0.58653(14)
H38 H 0.719387 0.056365 0.567787
H39 H 0.707046 0.035551 0.598370
C79 C 0.1641(3) 0.1935(3) 0.23659(13)
H47 H 0.194362 0.225502 0.235268
H48 H 0.185821 0.155871 0.239986
C80 C 0.2999(3) 0.2099(3) 0.34091(13)
H49 H 0.260262 0.219740 0.346317
C82 C 0.3503(3) 0.2313(3) 0.35558(13)
H53 H 0.342917 0.255598 0.370972
C86 C 0.1750(3) 0.0283(3) 0.33908(13)
H58 H 0.194149 0.023801 0.321065
H59 H 0.207115 0.036832 0.352489
C87 C 0.1827(2) 0.1755(3) 0.31010(14)
H60 H 0.181997 0.173488 0.330188
H61 H 0.180224 0.217703 0.304623
C88 C 0.3708(3) 0.1608(3) 0.31106(13)
H62 H 0.380066 0.136696 0.295841
C89 C 0.5537(3) 0.0717(3) 0.48424(13)
H63 H 0.594542 0.056777 0.488411
H64 H 0.526952 0.036999 0.481967
C97 C 0.5651(3) 0.0512(3) 0.55788(14)
H72 H 0.522469 0.050241 0.552081
H73 H 0.566420 0.051026 0.577983
C98 C 0.3742(3) 0.1952(4) 0.13632(15)
H74 H 0.372321 0.203285 0.117414
C104 C 0.5856(3) 0.2840(3) 0.48494(14)
H80 H 0.625835 0.299287 0.489144
H81 H 0.556907 0.299150 0.498303
H82 H 0.573656 0.297112 0.466733
C106 C 0.7203(3) 0.2840(3) 0.57245(14)
H84 H 0.729474 0.299074 0.554268
H85 H 0.750858 0.297913 0.585323
H86 H 0.680713 0.298481 0.578085
C110 C 0.3258(3) 0.1651(3) 0.14862(14)
H92 H 0.292148 0.153503 0.137984
O17 O 0.76438(18) 0.10429(18) 0.59569(8)
O18 O 0.84176(18) 0.10627(19) 0.41292(8)
O19 O 0.94457(16) 0.10422(19) 0.54071(8)
O20 O 0.96729(16) 0.1069(2) 0.49311(9)
C121 C 0.8185(2) 0.2134(2) 0.54429(11)
H105 H 0.807009 0.250353 0.536687
C122 C 0.7987(3) 0.1322(2) 0.57505(11)
C123 C 0.8735(2) 0.1877(3) 0.53589(11)
C124 C 0.8534(3) 0.1044(2) 0.56777(11)
C125 C 0.8504(2) 0.2138(2) 0.46995(11)
H106 H 0.832230 0.249828 0.475527
C126 C 0.8312(2) 0.1878(3) 0.44537(12)
C127 C 0.7803(2) 0.1866(2) 0.56340(11)
C128 C 0.8885(3) 0.1309(3) 0.54774(12)
C129 C 0.7800(2) 0.2147(3) 0.42804(11)
H107 H 0.787429 0.201611 0.408930
C130 C 0.8952(2) 0.1890(3) 0.48655(12)
C132 C 0.8582(3) 0.1336(3) 0.43761(12)
C134 C 0.9046(2) 0.1077(3) 0.45297(12)
C136 C 0.8748(3) 0.0472(2) 0.58191(12)
H110 H 0.857435 0.045103 0.600364
H111 H 0.919150 0.047922 0.583711
C137 C 0.9212(3) 0.1349(3) 0.47746(13)
C138 C 0.9136(3) 0.2157(3) 0.51405(12)
H112 H 0.955561 0.202166 0.517810
C139 C 0.7876(3) 0.0706(3) 0.41347(14)
H113 H 0.780613 0.056365 0.432213
H114 H 0.792954 0.035551 0.401630
C143 C 0.9463(3) 0.0717(3) 0.51576(13)
H117 H 0.905458 0.056777 0.511589
H118 H 0.973048 0.036999 0.518033
C146 C 0.9349(3) 0.0512(3) 0.44212(14)
H121 H 0.977531 0.050241 0.447919
H122 H 0.933580 0.051026 0.422017
C147 C 0.9144(3) 0.2840(3) 0.51506(14)
H123 H 0.874165 0.299287 0.510856
H124 H 0.943093 0.299150 0.501697
H125 H 0.926344 0.297112 0.533267
C148 C 0.7797(3) 0.2840(3) 0.42755(14)
H126 H 0.770526 0.299074 0.445732
H127 H 0.749142 0.297913 0.414677
H128 H 0.819287 0.298481 0.421915
S13 S 0.24686(7) 0.14200(8) 0.70297(4)
S15 S 0.23151(7) 0.11333(9) 0.80674(4)
O25 O 0.36623(17) 0.07794(17) 0.66182(8)
O27 O 0.34094(17) 0.01794(17) 0.84705(8)
O28 O 0.37501(18) 0.20558(17) 0.74046(9)
O31 O 0.36711(17) 0.18900(17) 0.78877(8)
N14 N 0.0766(2) 0.2131(2) 0.84952(11)
N15 N 0.0926(2) 0.2198(2) 0.65072(10)
C181 C 0.4591(2) 0.0513(2) 0.79631(11)
H157 H 0.494655 0.034249 0.789121
C182 C 0.4483(2) 0.1246(2) 0.73656(11)
C184 C 0.3737(2) 0.0459(2) 0.82639(11)
C185 C 0.4270(2) 0.0196(2) 0.81622(11)
C189 C 0.4443(2) 0.0584(2) 0.69635(11)
C191 C 0.4404(2) 0.1078(2) 0.78650(11)
C193 C 0.4699(2) 0.0760(2) 0.72135(11)
H161 H 0.503094 0.054152 0.728259
C194 C 0.4757(2) 0.1417(2) 0.76454(12)
H162 H 0.467196 0.184808 0.767331
C195 C 0.3930(2) 0.0913(3) 0.68717(11)
C196 C 0.3976(2) 0.1560(2) 0.72609(12)
C200 C 0.4664(2) 0.0041(2) 0.67960(12)
H164 H 0.456263 0.011946 0.660118
C202 C 0.3865(2) 0.1319(2) 0.79696(12)
C204 C 0.3702(2) 0.1410(2) 0.70174(12)
C205 C 0.3528(2) 0.1011(2) 0.81706(12)
C206 C 0.1897(3) 0.1735(3) 0.68196(12)
C208 C 0.0760(3) 0.2010(3) 0.82296(14)
H165 H 0.042169 0.213885 0.812731
C209 C 0.0839(3) 0.1848(3) 0.67272(13)
H166 H 0.043561 0.175947 0.677487
C210 C 0.1728(2) 0.1525(3) 0.82396(12)
C215 C 0.1216(3) 0.1705(3) 0.80901(13)
H169 H 0.118140 0.162305 0.790163
C218 C 0.2962(2) 0.1291(3) 0.82908(13)
H173 H 0.301779 0.172512 0.830789
H174 H 0.288752 0.112710 0.847415
C221 C 0.5448(2) 0.1340(3) 0.76640(13)
H178 H 0.555485 0.092956 0.762027
H179 H 0.558383 0.143361 0.784866
H180 H 0.564299 0.160854 0.753491
C226 C 0.3359(3) 0.1935(3) 0.76341(13)
H187 H 0.305638 0.225502 0.764732
H188 H 0.314179 0.155871 0.760014
C227 C 0.2001(3) 0.2099(3) 0.65909(13)
H189 H 0.239738 0.219740 0.653683
H191 H 0.557456 0.029913 0.676241
C229 C 0.1497(3) 0.2313(3) 0.64442(13)
H193 H 0.157083 0.255598 0.629028
C231 C 0.3250(3) 0.0283(3) 0.66092(13)
H197 H 0.305851 0.023801 0.678935
H198 H 0.292885 0.036832 0.647511
C232 C 0.3173(2) 0.1755(3) 0.68990(14)
H199 H 0.318003 0.173488 0.669812
H200 H 0.319776 0.217703 0.695377
C233 C 0.1292(3) 0.1608(3) 0.68894(13)
H201 H 0.119934 0.136696 0.704159
C236 C 0.1258(3) 0.1952(4) 0.86368(15)
H204 H 0.127679 0.203285 0.882586
C240 C 0.1742(3) 0.1651(3) 0.85138(14)
H208 H 0.207852 0.153503 0.862016
Cu6 Cu 0.47583(3) 0.24131(4) 0.37630(2)
Cu7 Cu 0.02417(3) 0.24131(4) 0.62370(2)
Cu11 Cu 0.01086(3) 0.25613(3) 0.87168(2)
Cu12 Cu 0.48914(3) 0.25613(3) 0.12832(2)
Cu1 Cu 0.52417(3) 0.75869(4) 0.62370(2)
Cu2 Cu 0.51086(3) 0.75613(3) 0.37168(2)
S2 S 0.28854(7) 0.90740(8) 0.31024(4)
S4 S 0.60499(8) 0.98568(8) 0.54449(4)
S5 S 0.64802(9) 0.98183(8) 0.43765(4)
S6 S 0.24355(8) 0.79278(10) 0.15818(4)
S7 S 0.38542(11) 0.54505(9) 0.45096(4)
S8 S 0.42974(14) 0.48471(11) 0.60206(5)
O2 O 0.14587(17) 0.97349(18) 0.34627(8)
O6 O 0.18260(18) 0.80790(17) 0.28629(8)
O7 O 0.17075(17) 0.91315(18) 0.15853(8)
O9 O 0.18734(18) 0.78970(17) 0.23846(8)
O13 O 0.3337(2) 0.4159(2) 0.40809(8)
O14 O 0.2732(2) 0.4189(2) 0.59802(9)
O15 O 0.45769(19) 0.4268(2) 0.48871(10)
O16 O 0.44225(19) 0.4274(2) 0.53649(10)
N1 N 0.4427(2) 0.7977(2) 0.34899(10)
N2 N 0.5512(2) 0.8251(2) 0.39453(10)
N3 N 0.4693(2) 0.6949(2) 0.39775(12)
N6 N 0.5350(2) 0.8262(2) 0.59506(12)
N7 N 0.4387(2) 0.7308(2) 0.14317(11)
N8 N 0.5056(2) 0.6756(2) 0.61009(12)
C3 C 0.0709(2) 0.9492(2) 0.31126(11)
C6 C 0.0527(2) 0.9589(2) 0.17365(11)
H2 H 0.066704 0.955114 0.154434
C7 C 0.0885(2) 0.8628(2) 0.28143(11)
C8 C 0.0939(2) 0.8451(2) 0.23078(11)
C10 C 0.0685(2) 0.8211(2) 0.25794(11)
H3 H 0.087758 0.781703 0.261278
C14 C 0.0518(2) 0.9111(2) 0.29026(11)
H5 H 0.013990 0.917640 0.281834
C18 C 0.2873(2) 0.3382(3) 0.56498(11)
C23 C 0.0862(2) 0.9105(2) 0.19040(11)
C26 C 0.0620(2) 0.8858(2) 0.21442(11)
H9 H 0.022682 0.897156 0.219761
C27 C 0.1443(2) 0.8553(2) 0.29404(11)
C29 C 0.1264(2) 0.9383(2) 0.32378(11)
C30 C 0.3901(2) 0.3421(3) 0.48298(11)
C32 C 0.3223(2) 0.3129(3) 0.54388(12)
H11 H 0.310377 0.276091 0.536212
C33 C 0.1651(2) 0.8915(3) 0.31527(11)
C35 C 0.3457(2) 0.3136(3) 0.46706(12)
H12 H 0.329288 0.277239 0.473275
C36 C 0.3246(2) 0.3377(3) 0.44196(12)
C37 C 0.3745(2) 0.3412(3) 0.53405(12)
C42 C 0.2729(2) 0.3088(3) 0.42561(12)
H14 H 0.278848 0.319773 0.406117
C44 C 0.1787(2) 0.8503(3) 0.19814(11)
C46 C 0.3512(3) 0.3914(3) 0.43338(12)
C49 C 0.6100(3) 0.9234(3) 0.42047(12)
C50 C 0.1528(3) 0.8289(2) 0.22188(12)
C51 C 0.3474(2) 0.8651(3) 0.32577(12)
C52 C 0.2234(2) 0.8791(3) 0.33015(12)
H17 H 0.227831 0.835829 0.333001
H18 H 0.222655 0.898503 0.348179
C54 C 0.5728(3) 0.9305(3) 0.39731(12)
H19 H 0.567011 0.968744 0.389701
C56 C 0.5450(3) 0.8819(3) 0.38579(13)
H20 H 0.519636 0.888675 0.370574
C57 C 0.1450(3) 0.8918(2) 0.18274(11)
C60 C 0.4124(2) 0.3156(3) 0.51053(13)
H24 H 0.454569 0.329923 0.513300
C63 C 0.0004(3) 0.8107(3) 0.25665(13)
C64 C 0.3198(2) 0.7726(3) 0.15351(12)
C66 C 0.4456(3) 0.8202(3) 0.32326(14)
H31 H 0.481100 0.813649 0.313044
C67 C 0.1996(3) 0.9710(3) 0.16128(13)
H32 H 0.211817 0.977170 0.180424
H33 H 0.236261 0.972103 0.149923
C69 C 0.3052(3) 0.3934(3) 0.57599(12)
C70 C 0.3914(3) 0.7140(3) 0.12786(13)
H37 H 0.398541 0.687527 0.113248
C72 C 0.3680(3) 0.7892(3) 0.17026(13)
H40 H 0.361858 0.814613 0.185371
C73 C 0.5773(3) 0.9256(3) 0.56494(13)
C74 C 0.5641(3) 0.8207(3) 0.57103(14)
H41 H 0.569730 0.781794 0.564160
C75 C 0.2438(3) 0.8350(3) 0.19023(12)
H42 H 0.262807 0.811091 0.204779
H43 H 0.267382 0.871883 0.187982
C76 C 0.4131(3) 0.3969(3) 0.47333(13)
C77 C 0.2169(3) 0.8183(3) 0.26172(12)
H44 H 0.258007 0.802115 0.263943
H45 H 0.220232 0.861463 0.258390
C78 C 0.5267(3) 0.8833(3) 0.60374(14)
H46 H 0.505850 0.889009 0.620327
C84 C 0.4639(3) 0.6972(3) 0.42403(14)
H57 H 0.478330 0.731840 0.432835
C85 C 0.3957(3) 0.4203(3) 0.44847(13)
C90 C 0.3905(3) 0.3967(3) 0.54561(13)
C91 C 0.3325(3) 0.7331(3) 0.13210(13)
H65 H 0.301078 0.719478 0.120604
C92 C 0.4182(3) 0.6022(3) 0.42997(13)
C93 C 0.2717(3) 0.2403(3) 0.42710(14)
H66 H 0.263480 0.227878 0.445795
H67 H 0.310696 0.224525 0.421397
H68 H 0.240137 0.225099 0.415049
C94 C 0.4255(3) 0.7677(3) 0.16429(14)
H69 H 0.457596 0.779648 0.175770
C95 C 0.5866(3) 0.8681(3) 0.55546(14)
H70 H 0.607487 0.861097 0.538998
C96 C 0.5466(3) 0.9335(3) 0.59006(13)
H71 H 0.539934 0.971931 0.597258
C99 C 0.2199(4) 0.4518(3) 0.59107(15)
H75 H 0.224452 0.468424 0.572588
H76 H 0.215429 0.485343 0.603873
C100 C 0.3990(3) 0.8522(3) 0.31125(14)
H77 H 0.402613 0.865302 0.293000
C101 C 0.3448(3) 0.8442(4) 0.35236(13)
H78 H 0.310930 0.852958 0.363326
C102 C 0.3568(3) 0.4246(3) 0.56626(14)
C103 C 0.3926(3) 0.8099(4) 0.36307(14)
H79 H 0.389144 0.794829 0.381002
C105 C 0.4385(3) 0.6532(3) 0.44050(14)
H83 H 0.435713 0.659704 0.459503
C107 C 0.4149(3) 0.2464(3) 0.51007(14)
H87 H 0.373923 0.230480 0.510654
H88 H 0.437544 0.232169 0.525865
H89 H 0.434668 0.233108 0.493390
C108 C 0.6173(3) 0.8642(3) 0.43002(15)
H90 H 0.641763 0.856083 0.445391
C109 C 0.5881(3) 0.8190(3) 0.41651(15)
H91 H 0.594367 0.779984 0.423142
C111 C 0.4352(4) 0.4591(3) 0.51177(15)
H93 H 0.456750 0.497411 0.513178
H94 H 0.392044 0.467832 0.508900
C112 C 0.4598(3) 0.6657(3) 0.59295(16)
H95 H 0.445161 0.697790 0.582358
C113 C 0.4233(3) 0.4787(3) 0.43735(15)
H96 H 0.420107 0.478889 0.417290
H97 H 0.466435 0.480221 0.442217
C114 C 0.5284(4) 0.6271(3) 0.62311(16)
H98 H 0.562964 0.632433 0.634161
C115 C 0.4560(3) 0.5610(3) 0.60496(14)
C116 C 0.4317(3) 0.6087(4) 0.58991(16)
H99 H 0.398174 0.603290 0.578224
C117 C 0.3705(3) 0.4966(4) 0.57459(15)
H100 H 0.334219 0.516517 0.581778
H101 H 0.386462 0.519407 0.559024
C118 C 0.4395(5) 0.6486(4) 0.38647(17)
H102 H 0.435256 0.647555 0.367285
C119 C 0.4140(5) 0.6014(4) 0.40198(18)
H103 H 0.394316 0.569505 0.393068
C120 C 0.5045(4) 0.5710(4) 0.62129(16)
H104 H 0.521659 0.539417 0.631375
S9 S 0.89501(8) 0.98568(8) 0.45551(4)
S10 S 0.85198(9) 0.98183(8) 0.56235(4)
N9 N 0.9488(2) 0.8251(2) 0.60547(10)
N10 N 0.9650(2) 0.8262(2) 0.40494(12)
C131 C 0.8900(3) 0.9234(3) 0.57953(12)
C133 C 0.9272(3) 0.9305(3) 0.60269(12)
H108 H 0.932989 0.968744 0.610299
C135 C 0.9550(3) 0.8819(3) 0.61421(13)
H109 H 0.980364 0.888675 0.629426
C140 C 0.9227(3) 0.9256(3) 0.43506(13)
C141 C 0.9359(3) 0.8207(3) 0.42897(14)
H115 H 0.930270 0.781794 0.435840
C142 C 0.9733(3) 0.8833(3) 0.39626(14)
H116 H 0.994150 0.889009 0.379673
C144 C 0.9134(3) 0.8681(3) 0.44454(14)
H119 H 0.892513 0.861097 0.461002
C145 C 0.9534(3) 0.9335(3) 0.40994(13)
H120 H 0.960066 0.971931 0.402742
C149 C 0.8827(3) 0.8642(3) 0.56998(15)
H129 H 0.858237 0.856083 0.554609
C150 C 0.9119(3) 0.8190(3) 0.58349(15)
H130 H 0.905633 0.779984 0.576858
S11 S 0.11458(11) 0.54505(9) 0.54904(4)
S12 S 0.07026(14) 0.48471(11) 0.39794(5)
O21 O 0.1663(2) 0.4159(2) 0.59191(8)
O22 O 0.2268(2) 0.4189(2) 0.40198(9)
O23 O 0.04231(19) 0.4268(2) 0.51129(10)
O24 O 0.05775(19) 0.4274(2) 0.46351(10)
N11 N 0.0307(2) 0.6949(2) 0.60225(12)
C151 C 0.2127(2) 0.3382(3) 0.43502(11)
C152 C 0.1099(2) 0.3421(3) 0.51702(11)
C153 C 0.1777(2) 0.3129(3) 0.45612(12)
H131 H 0.189623 0.276091 0.463788
C154 C 0.1543(2) 0.3136(3) 0.53294(12)
H132 H 0.170712 0.277239 0.526725
C155 C 0.1754(2) 0.3377(3) 0.55804(12)
C156 C 0.1255(2) 0.3412(3) 0.46595(12)
C157 C 0.2271(2) 0.3088(3) 0.57439(12)
H133 H 0.221152 0.319773 0.593883
C158 C 0.1488(3) 0.3914(3) 0.56662(12)
C159 C 0.0876(2) 0.3156(3) 0.48947(13)
H134 H 0.045431 0.329923 0.486700
C160 C 0.1948(3) 0.3934(3) 0.42401(12)
C161 C 0.0869(3) 0.3969(3) 0.52667(13)
C162 C 0.0361(3) 0.6972(3) 0.57597(14)
H135 H 0.021670 0.731840 0.567165
C163 C 0.1043(3) 0.4203(3) 0.55153(13)
C164 C 0.1095(3) 0.3967(3) 0.45439(13)
C165 C 0.0818(3) 0.6022(3) 0.57003(13)
C166 C 0.2283(3) 0.2403(3) 0.57290(14)
H136 H 0.236520 0.227878 0.554205
H137 H 0.189304 0.224525 0.578603
H138 H 0.259863 0.225099 0.584951
C167 C 0.2801(4) 0.4518(3) 0.40893(15)
H139 H 0.275548 0.468424 0.427412
H140 H 0.284571 0.485343 0.396127
C168 C 0.1432(3) 0.4246(3) 0.43374(14)
C169 C 0.0615(3) 0.6532(3) 0.55950(14)
H141 H 0.064287 0.659704 0.540497
C170 C 0.0851(3) 0.2464(3) 0.48993(14)
H142 H 0.126077 0.230480 0.489346
H143 H 0.062456 0.232169 0.474135
H144 H 0.065332 0.233108 0.506610
C171 C 0.0648(4) 0.4591(3) 0.48823(15)
H145 H 0.043250 0.497411 0.486822
H146 H 0.107956 0.467832 0.491100
C172 C 0.0402(3) 0.6657(3) 0.40705(16)
H147 H 0.054839 0.697790 0.417642
C173 C 0.0767(3) 0.4787(3) 0.56265(15)
H148 H 0.079893 0.478889 0.582710
H149 H 0.033565 0.480221 0.557783
C175 C 0.0440(3) 0.5610(3) 0.39504(14)
C176 C 0.0683(3) 0.6087(4) 0.41009(16)
H151 H 0.101826 0.603290 0.421776
C177 C 0.1295(3) 0.4966(4) 0.42541(15)
H152 H 0.165781 0.516517 0.418222
H153 H 0.113538 0.519407 0.440976
C178 C 0.0605(5) 0.6486(4) 0.61353(17)
H154 H 0.064744 0.647555 0.632715
C179 C 0.0860(5) 0.6014(4) 0.59802(18)
H155 H 0.105684 0.569505 0.606932
S14 S 0.21146(7) 0.90740(8) 0.68976(4)
S16 S 0.25645(8) 0.79278(10) 0.84182(4)
O26 O 0.35413(17) 0.97349(18) 0.65373(8)
O29 O 0.31740(18) 0.80790(17) 0.71371(8)
O30 O 0.32925(17) 0.91315(18) 0.84147(8)
O32 O 0.31266(18) 0.78970(17) 0.76154(8)
N13 N 0.0573(2) 0.7977(2) 0.65101(10)
N16 N 0.0613(2) 0.7308(2) 0.85683(11)
C183 C 0.4291(2) 0.9492(2) 0.68874(11)
C186 C 0.4473(2) 0.9589(2) 0.82635(11)
H158 H 0.433296 0.955114 0.845566
C187 C 0.4115(2) 0.8628(2) 0.71857(11)
C188 C 0.4061(2) 0.8451(2) 0.76922(11)
C190 C 0.4315(2) 0.8211(2) 0.74206(11)
H159 H 0.412242 0.781703 0.738722
C192 C 0.4482(2) 0.9111(2) 0.70974(11)
H160 H 0.486010 0.917640 0.718166
C197 C 0.4138(2) 0.9105(2) 0.80960(11)
C198 C 0.4380(2) 0.8858(2) 0.78558(11)
H163 H 0.477318 0.897156 0.780239
C199 C 0.3557(2) 0.8553(2) 0.70596(11)
C201 C 0.3736(2) 0.9383(2) 0.67622(11)
C203 C 0.3349(2) 0.8915(3) 0.68473(11)
C207 C 0.3213(2) 0.8503(3) 0.80186(11)
C211 C 0.3472(3) 0.8289(2) 0.77812(12)
C212 C 0.1526(2) 0.8651(3) 0.67423(12)
C213 C 0.2766(2) 0.8791(3) 0.66985(12)
H167 H 0.272169 0.835829 0.666999
H168 H 0.277345 0.898503 0.651821
C214 C 0.3550(3) 0.8918(2) 0.81726(11)
C216 C 0.4996(3) 0.8107(3) 0.74335(13)
H170 H 0.512616 0.790166 0.726858
H171 H 0.509244 0.786450 0.759273
H172 H 0.520295 0.848947 0.744736
C217 C 0.1802(2) 0.7726(3) 0.84649(12)
C219 C 0.0544(3) 0.8202(3) 0.67674(14)
H175 H 0.018900 0.813649 0.686956
C220 C 0.3004(3) 0.9710(3) 0.83872(13)
H176 H 0.288183 0.977170 0.819576
H177 H 0.263739 0.972103 0.850077
C222 C 0.1086(3) 0.7140(3) 0.87214(13)
H181 H 0.101459 0.687527 0.886752
C223 C 0.1320(3) 0.7892(3) 0.82974(13)
H182 H 0.138142 0.814613 0.814629
C224 C 0.2562(3) 0.8350(3) 0.80977(12)
H183 H 0.237193 0.811091 0.795221
H184 H 0.232618 0.871883 0.812018
C225 C 0.2831(3) 0.8183(3) 0.73828(12)
H185 H 0.241993 0.802115 0.736057
H186 H 0.279768 0.861463 0.741610
C228 C 0.5363(3) 0.9935(3) 0.68133(14)
H190 H 0.547322 0.982438 0.699941
H192 H 0.547611 0.961478 0.668892
C230 C 0.5165(2) 0.9504(3) 0.82666(13)
H194 H 0.531520 0.949999 0.807970
H195 H 0.526450 0.912774 0.835536
H196 H 0.535243 0.983151 0.836660
C234 C 0.1675(3) 0.7331(3) 0.86790(13)
H202 H 0.198922 0.719478 0.879396
C235 C 0.0745(3) 0.7677(3) 0.83571(14)
H203 H 0.042404 0.779648 0.824230
C237 C 0.1010(3) 0.8522(3) 0.68875(14)
H205 H 0.097387 0.865302 0.707000
C238 C 0.1552(3) 0.8442(4) 0.64764(13)
H206 H 0.189070 0.852958 0.636674
C239 C 0.1074(3) 0.8099(4) 0.63693(14)
H207 H 0.110856 0.794829 0.618998
Cu5 Cu 0.97583(3) 0.75869(4) 0.37630(2)
Cu9 Cu 0.52417(3) 0.74131(4) 0.12370(2)
Cu10 Cu 0.98914(3) 0.75613(3) 0.62832(2)
N19 N 0.5766(2) 0.7131(2) 0.34952(11)
N20 N 0.5926(2) 0.7802(2) 0.65072(10)
N23 N 0.0613(2) 0.7692(2) 0.35683(11)
N24 N 0.4387(2) 0.7692(2) 0.64317(11)
H6 H 0.996906 0.054152 0.271741
C68 C 0.9552(2) 0.1340(3) 0.23360(13)
H34 H 0.944515 0.092956 0.237973
H35 H 0.941617 0.143361 0.215134
H36 H 0.935701 0.160854 0.246509
H51 H 0.942544 0.029913 0.323759
H26 H 0.987384 0.790166 0.273142
H27 H 0.990756 0.786450 0.240727
H28 H 0.979705 0.848947 0.255264
C81 C 0.9637(3) 0.9935(3) 0.31867(14)
H50 H 0.952678 0.982438 0.300059
H52 H 0.952389 0.961478 0.331108
C83 C 0.9835(2) 0.9504(3) 0.17334(13)
H54 H 0.968480 0.949999 0.192030
H55 H 0.973550 0.912774 0.164464
H56 H 0.964757 0.983151 0.163340
N12 N 0.9944(2) 0.6756(2) 0.38991(12)
C174 C 0.9716(4) 0.6271(3) 0.37689(16)
H150 H 0.937036 0.632433 0.365839
C180 C 0.9955(4) 0.5710(4) 0.37871(16)
H156 H 0.978341 0.539417 0.368625
Cu8 Cu 0.97583(3) 0.74131(4) 0.87630(2)
N18 N 0.9234(2) 0.7131(2) 0.65048(11)
N21 N 0.9074(2) 0.7802(2) 0.34928(10)
Cu1_2 Cu 0.02417(3) 0.25869(4) 0.12370(2)
S4_2 S 0.10499(8) 0.48568(8) 0.04449(4)
O10_2 O 0.15824(18) 0.60627(19) 0.08708(8)
O12_2 O 0.03271(16) 0.6069(2) 0.00689(9)
N6_2 N 0.0350(2) 0.3262(2) 0.09506(12)
N8_2 N 0.0056(2) 0.1756(2) 0.11009(12)
C22_2 C 0.1496(2) 0.7138(2) 0.03005(11)
H8_2 H 0.167770 0.749828 0.024473
C24_2 C 0.1688(2) 0.6878(3) 0.05463(12)
C40_2 C 0.2200(2) 0.7147(3) 0.07196(11)
H13_2 H 0.212571 0.701611 0.091070
C41_2 C 0.1048(2) 0.6890(3) 0.01345(12)
C53_2 C 0.1418(3) 0.6336(3) 0.06239(12)
C55_2 C 0.0954(2) 0.6077(3) 0.04703(12)
C61_2 C 0.0788(3) 0.6349(3) 0.02254(13)
C71_2 C 0.2124(3) 0.5706(3) 0.08653(14)
H38_2 H 0.219387 0.556365 0.067787
H39_2 H 0.207046 0.535551 0.098370
C73_2 C 0.0773(3) 0.4256(3) 0.06494(13)
C74_2 C 0.0641(3) 0.3207(3) 0.07103(14)
H41_2 H 0.069730 0.281794 0.064160
C78_2 C 0.0267(3) 0.3833(3) 0.10374(14)
H46_2 H 0.005850 0.389009 0.120327
C95_2 C 0.0866(3) 0.3681(3) 0.05546(14)
H70_2 H 0.107487 0.361097 0.038998
C96_2 C 0.0466(3) 0.4335(3) 0.09006(13)
H71_2 H 0.039934 0.471931 0.097258
C97_2 C 0.0651(3) 0.5512(3) 0.05788(14)
H72_2 H 0.022469 0.550241 0.052081
H73_2 H 0.066420 0.551026 0.077983
C106_2 C 0.2203(3) 0.7840(3) 0.07245(14)
H84_2 H 0.229474 0.799074 0.054268
H85_2 H 0.250858 0.797913 0.085323
H86_2 H 0.180713 0.798481 0.078085
C114_2 C 0.0284(4) 0.1271(3) 0.12311(16)
H98_2 H 0.062964 0.132433 0.134161
C120_2 C 0.0045(4) 0.0710(4) 0.12129(16)
H104_2 H 0.021659 0.039417 0.131375
S10_2 S 0.35198(9) 0.48183(8) 0.06235(4)
O17_2 O 0.26438(18) 0.60429(18) 0.09569(8)
O19_2 O 0.44457(16) 0.60422(19) 0.04071(8)
N9_2 N 0.4488(2) 0.3251(2) 0.10547(10)
C121_2 C 0.3185(2) 0.7134(2) 0.04429(11)
H105_2 H 0.307009 0.750353 0.036687
C122_2 C 0.2987(3) 0.6322(2) 0.07505(11)
C123_2 C 0.3735(2) 0.6877(3) 0.03589(11)
C124_2 C 0.3534(3) 0.6044(2) 0.06777(11)
C127_2 C 0.2803(2) 0.6866(2) 0.06340(11)
C128_2 C 0.3885(3) 0.6309(3) 0.04774(12)
C131_2 C 0.3900(3) 0.4234(3) 0.07953(12)
C133_2 C 0.4272(3) 0.4305(3) 0.10269(12)
H108_2 H 0.432989 0.468744 0.110299
C135_2 C 0.4550(3) 0.3819(3) 0.11421(13)
H109_2 H 0.480364 0.388675 0.129426
C136_2 C 0.3748(3) 0.5472(2) 0.08191(12)
H110_2 H 0.357435 0.545103 0.100364
H111_2 H 0.419150 0.547922 0.083711
C138_2 C 0.4136(3) 0.7157(3) 0.01405(12)
H112_2 H 0.455561 0.702166 0.017810
C143_2 C 0.4463(3) 0.5717(3) 0.01576(13)
H117_2 H 0.405458 0.556777 0.011589
H118_2 H 0.473048 0.536999 0.018033
C147_2 C 0.4144(3) 0.7840(3) 0.01506(14)
H123_2 H 0.374165 0.799287 0.010856
H124_2 H 0.443093 0.799150 0.001697
H125_2 H 0.426344 0.797112 0.033267
C149_2 C 0.3827(3) 0.3642(3) 0.06998(15)
H129_2 H 0.358237 0.356083 0.054609
C150_2 C 0.4119(3) 0.3190(3) 0.08349(15)
H130_2 H 0.405633 0.279984 0.076858
H161_2 H 0.003094 0.554152 0.228259
H170_2 H 0.012616 0.290166 0.226858
H171_2 H 0.009244 0.286450 0.259273
H172_2 H 0.020295 0.348947 0.244736
C221_2 C 0.0448(2) 0.6340(3) 0.26640(13)
H178_2 H 0.055485 0.592956 0.262027
H179_2 H 0.058383 0.643361 0.284866
H180_2 H 0.064299 0.660854 0.253491
C228_2 C 0.0363(3) 0.4935(3) 0.18133(14)
H190_2 H 0.047322 0.482438 0.199941
H191_2 H 0.057456 0.529913 0.176241
H192_2 H 0.047611 0.461478 0.168892
C230_2 C 0.0165(2) 0.4504(3) 0.32666(13)
H194_2 H 0.031520 0.449999 0.307970
H195_2 H 0.026450 0.412774 0.335536
H196_2 H 0.035243 0.483151 0.336660
N20_2 N 0.0926(2) 0.2802(2) 0.15072(10)
S5_2 S 0.14802(9) 0.48183(8) 0.93765(4)
O5_2 O 0.23562(18) 0.60429(18) 0.90431(8)
O11_2 O 0.05543(16) 0.60422(19) 0.95929(8)
N2_2 N 0.0512(2) 0.3251(2) 0.89453(10)
C12_2 C 0.1815(2) 0.7134(2) 0.95571(11)
H4_2 H 0.192991 0.750353 0.963313
C13_2 C 0.2013(3) 0.6322(2) 0.92495(11)
C15_2 C 0.1265(2) 0.6877(3) 0.96411(11)
C21_2 C 0.1466(3) 0.6044(2) 0.93223(11)
C25_2 C 0.2197(2) 0.6866(2) 0.93660(11)
C38_2 C 0.1115(3) 0.6309(3) 0.95226(12)
C49_2 C 0.1100(3) 0.4234(3) 0.92047(12)
C54_2 C 0.0728(3) 0.4305(3) 0.89731(12)
H19_2 H 0.067011 0.468744 0.889701
C56_2 C 0.0450(3) 0.3819(3) 0.88579(13)
H20_2 H 0.019636 0.388675 0.870574
C59_2 C 0.1252(3) 0.5472(2) 0.91809(12)
H22_2 H 0.142565 0.545103 0.899636
H23_2 H 0.080850 0.547922 0.916289
C62_2 C 0.0864(3) 0.7157(3) 0.98595(12)
H25_2 H 0.044439 0.702166 0.982190
C89_2 C 0.0537(3) 0.5717(3) 0.98424(13)
H63_2 H 0.094542 0.556777 0.988411
H64_2 H 0.026952 0.536999 0.981967
C104_2 C 0.0856(3) 0.7840(3) 0.98494(14)
H80_2 H 0.125835 0.799287 0.989144
H81_2 H 0.056907 0.799150 0.998303
H82_2 H 0.073656 0.797112 0.966733
C108_2 C 0.1173(3) 0.3642(3) 0.93002(15)
H90_2 H 0.141763 0.356083 0.945391
C109_2 C 0.0881(3) 0.3190(3) 0.91651(15)
H91_2 H 0.094367 0.279984 0.923142
S9_2 S 0.39501(8) 0.48568(8) 0.95551(4)
O18_2 O 0.34176(18) 0.60627(19) 0.91292(8)
O20_2 O 0.46729(16) 0.6069(2) 0.99311(9)
N10_2 N 0.4650(2) 0.3262(2) 0.90494(12)
C125_2 C 0.3504(2) 0.7138(2) 0.96995(11)
H106_2 H 0.332230 0.749828 0.975527
C126_2 C 0.3312(2) 0.6878(3) 0.94537(12)
C129_2 C 0.2800(2) 0.7147(3) 0.92804(11)
H107_2 H 0.287429 0.701611 0.908930
C130_2 C 0.3952(2) 0.6890(3) 0.98655(12)
C132_2 C 0.3582(3) 0.6336(3) 0.93761(12)
C134_2 C 0.4046(2) 0.6077(3) 0.95297(12)
C137_2 C 0.4212(3) 0.6349(3) 0.97746(13)
C139_2 C 0.2876(3) 0.5706(3) 0.91347(14)
H113_2 H 0.280613 0.556365 0.932213
H114_2 H 0.292954 0.535551 0.901630
C140_2 C 0.4227(3) 0.4256(3) 0.93506(13)
C141_2 C 0.4359(3) 0.3207(3) 0.92897(14)
H115_2 H 0.430270 0.281794 0.935840
C142_2 C 0.4733(3) 0.3833(3) 0.89626(14)
H116_2 H 0.494150 0.389009 0.879673
C144_2 C 0.4134(3) 0.3681(3) 0.94454(14)
H119_2 H 0.392513 0.361097 0.961002
C145_2 C 0.4534(3) 0.4335(3) 0.90994(13)
H120_2 H 0.460066 0.471931 0.902742
C146_2 C 0.4349(3) 0.5512(3) 0.94212(14)
H121_2 H 0.477531 0.550241 0.947919
H122_2 H 0.433580 0.551026 0.922017
C148_2 C 0.2797(3) 0.7840(3) 0.92755(14)
H126_2 H 0.270526 0.799074 0.945732
H127_2 H 0.249142 0.797913 0.914677
H128_2 H 0.319287 0.798481 0.921915
Cu5_2 Cu 0.47583(3) 0.25869(4) 0.87630(2)
C112_2 C 0.9598(3) 0.1657(3) 0.09295(16)
H95_2 H 0.945161 0.197790 0.082358
C115_2 C 0.9560(3) 0.0610(3) 0.10496(14)
C116_2 C 0.9317(3) 0.1087(4) 0.08991(16)
H99_2 H 0.898174 0.103290 0.078224
H100_2 H 0.834219 0.016517 0.081778
H101_2 H 0.886462 0.019407 0.059024
S11_2 S 0.61458(11) 0.04505(9) 0.04904(4)
N11_2 N 0.5307(2) 0.1949(2) 0.10225(12)
C162_2 C 0.5361(3) 0.1972(3) 0.07597(14)
H135_2 H 0.521670 0.231840 0.067165
C165_2 C 0.5818(3) 0.1022(3) 0.07003(13)
C169_2 C 0.5615(3) 0.1532(3) 0.05950(14)
H141_2 H 0.564287 0.159704 0.040497
C178_2 C 0.5605(5) 0.1486(4) 0.11353(17)
H154_2 H 0.564744 0.147555 0.132715
C179_2 C 0.5860(5) 0.1014(4) 0.09802(18)
H155_2 H 0.605684 0.069505 0.106932
S13_2 S 0.74686(7) 0.64200(8) 0.20297(4)
S14_2 S 0.71146(7) 0.40740(8) 0.18976(4)
S15_2 S 0.73151(7) 0.61333(9) 0.30674(4)
S16_2 S 0.75645(8) 0.29278(10) 0.34182(4)
O25_2 O 0.86623(17) 0.57794(17) 0.16182(8)
O26_2 O 0.85413(17) 0.47349(18) 0.15373(8)
O27_2 O 0.84094(17) 0.51794(17) 0.34705(8)
O28_2 O 0.87501(18) 0.70558(17) 0.24046(9)
O29_2 O 0.81740(18) 0.30790(17) 0.21371(8)
O30_2 O 0.82925(17) 0.41315(18) 0.34147(8)
O31_2 O 0.86711(17) 0.68900(17) 0.28877(8)
O32_2 O 0.81266(18) 0.28970(17) 0.26154(8)
N13_2 N 0.5573(2) 0.2977(2) 0.15101(10)
N15_2 N 0.5926(2) 0.7198(2) 0.15072(10)
N16_2 N 0.5613(2) 0.2308(2) 0.35683(11)
C181_2 C 0.9591(2) 0.5513(2) 0.29631(11)
H157_2 H 0.994655 0.534249 0.289121
C182_2 C 0.9483(2) 0.6246(2) 0.23656(11)
C183_2 C 0.9291(2) 0.4492(2) 0.18874(11)
C184_2 C 0.8737(2) 0.5459(2) 0.32639(11)
C185_2 C 0.9270(2) 0.5196(2) 0.31622(11)
C186_2 C 0.9473(2) 0.4589(2) 0.32635(11)
H158_2 H 0.933296 0.455114 0.345566
C187_2 C 0.9115(2) 0.3628(2) 0.21857(11)
C188_2 C 0.9061(2) 0.3451(2) 0.26922(11)
C189_2 C 0.9443(2) 0.5584(2) 0.19635(11)
C190_2 C 0.9315(2) 0.3211(2) 0.24206(11)
H159_2 H 0.912242 0.281703 0.238722
C191_2 C 0.9404(2) 0.6078(2) 0.28650(11)
C192_2 C 0.9482(2) 0.4111(2) 0.20974(11)
H160_2 H 0.986010 0.417640 0.218166
C193_2 C 0.9699(2) 0.5760(2) 0.22135(11)
C194_2 C 0.9757(2) 0.6417(2) 0.26454(12)
H162_2 H 0.967196 0.684808 0.267331
C195_2 C 0.8930(2) 0.5913(3) 0.18717(11)
C196_2 C 0.8976(2) 0.6560(2) 0.22609(12)
C197_2 C 0.9138(2) 0.4105(2) 0.30960(11)
C198_2 C 0.9380(2) 0.3858(2) 0.28558(11)
H163_2 H 0.977318 0.397156 0.280239
C199_2 C 0.8557(2) 0.3553(2) 0.20596(11)
C200_2 C 0.9664(2) 0.5041(2) 0.17960(12)
H164_2 H 0.956263 0.511946 0.160118
C201_2 C 0.8736(2) 0.4383(2) 0.17622(11)
C202_2 C 0.8865(2) 0.6319(2) 0.29696(12)
C203_2 C 0.8349(2) 0.3915(3) 0.18473(11)
C204_2 C 0.8702(2) 0.6410(2) 0.20174(12)
C205_2 C 0.8528(2) 0.6011(2) 0.31706(12)
C206_2 C 0.6897(3) 0.6735(3) 0.18196(12)
C207_2 C 0.8213(2) 0.3503(3) 0.30186(11)
C208_2 C 0.5760(3) 0.7010(3) 0.32296(14)
H165_2 H 0.542169 0.713885 0.312731
C209_2 C 0.5839(3) 0.6848(3) 0.17272(13)
H166_2 H 0.543561 0.675947 0.177487
C210_2 C 0.6728(2) 0.6525(3) 0.32396(12)
C211_2 C 0.8472(3) 0.3289(2) 0.27812(12)
C212_2 C 0.6526(2) 0.3651(3) 0.17423(12)
C213_2 C 0.7766(2) 0.3791(3) 0.16985(12)
H167_2 H 0.772169 0.335829 0.166999
H168_2 H 0.777345 0.398503 0.151821
C214_2 C 0.8550(3) 0.3918(2) 0.31726(11)
C215_2 C 0.6216(3) 0.6705(3) 0.30901(13)
H169_2 H 0.618140 0.662305 0.290163
C216_2 C 0.9996(3) 0.3107(3) 0.24335(13)
C217_2 C 0.6802(2) 0.2726(3) 0.34649(12)
C218_2 C 0.7962(2) 0.6291(3) 0.32908(13)
H173_2 H 0.801779 0.672512 0.330789
H174_2 H 0.788752 0.612710 0.347415
C219_2 C 0.5544(3) 0.3202(3) 0.17674(14)
H175_2 H 0.518900 0.313649 0.186956
C220_2 C 0.8004(3) 0.4710(3) 0.33872(13)
H176_2 H 0.788183 0.477170 0.319576
H177_2 H 0.763739 0.472103 0.350077
C222_2 C 0.6086(3) 0.2140(3) 0.37214(13)
H181_2 H 0.601459 0.187527 0.386752
C223_2 C 0.6320(3) 0.2892(3) 0.32974(13)
H182_2 H 0.638142 0.314613 0.314629
C224_2 C 0.7562(3) 0.3350(3) 0.30977(12)
H183_2 H 0.737193 0.311091 0.295221
H184_2 H 0.732618 0.371883 0.312018
C225_2 C 0.7831(3) 0.3183(3) 0.23828(12)
H185_2 H 0.741993 0.302115 0.236057
H186_2 H 0.779768 0.361463 0.241610
C226_2 C 0.8359(3) 0.6935(3) 0.26341(13)
H187_2 H 0.805638 0.725502 0.264732
H188_2 H 0.814179 0.655871 0.260014
C227_2 C 0.7001(3) 0.7099(3) 0.15909(13)
H189_2 H 0.739738 0.719740 0.153683
C229_2 C 0.6497(3) 0.7313(3) 0.14442(13)
H193_2 H 0.657083 0.755598 0.129028
C231_2 C 0.8250(3) 0.5283(3) 0.16092(13)
H197_2 H 0.805851 0.523801 0.178935
H198_2 H 0.792885 0.536832 0.147511
C232_2 C 0.8173(2) 0.6755(3) 0.18990(14)
H199_2 H 0.818003 0.673488 0.169812
H200_2 H 0.819776 0.717703 0.195377
C233_2 C 0.6292(3) 0.6608(3) 0.18894(13)
H201_2 H 0.619934 0.636696 0.204159
C234_2 C 0.6675(3) 0.2331(3) 0.36790(13)
H202_2 H 0.698922 0.219478 0.379396
C235_2 C 0.5745(3) 0.2677(3) 0.33571(14)
H203_2 H 0.542404 0.279648 0.324230
C236_2 C 0.6258(3) 0.6952(4) 0.36368(15)
H204_2 H 0.627679 0.703285 0.382586
C237_2 C 0.6010(3) 0.3522(3) 0.18875(14)
H205_2 H 0.597387 0.365302 0.207000
C238_2 C 0.6552(3) 0.3442(4) 0.14764(13)
H206_2 H 0.689070 0.352958 0.136674
C239_2 C 0.6074(3) 0.3099(4) 0.13693(14)
H207_2 H 0.610856 0.294829 0.118998
C240_2 C 0.6742(3) 0.6651(3) 0.35138(14)
H208_2 H 0.707852 0.653503 0.362016
N24_2 N 0.9387(2) 0.2692(2) 0.14317(11)
S1_2 S 0.75314(7) 0.64200(8) 0.79703(4)
S2_2 S 0.78854(7) 0.40740(8) 0.81024(4)
S3_2 S 0.76849(7) 0.61333(9) 0.69326(4)
S6_2 S 0.74355(8) 0.29278(10) 0.65818(4)
S7_2 S 0.88542(11) 0.04505(9) 0.95096(4)
O1_2 O 0.63377(17) 0.57794(17) 0.83818(8)
O2_2 O 0.64587(17) 0.47349(18) 0.84627(8)
O3_2 O 0.65906(17) 0.51794(17) 0.65295(8)
O4_2 O 0.62499(18) 0.70558(17) 0.75954(9)
O6_2 O 0.68260(18) 0.30790(17) 0.78629(8)
O7_2 O 0.67075(17) 0.41315(18) 0.65853(8)
O8_2 O 0.63289(17) 0.68900(17) 0.71123(8)
O9_2 O 0.68734(18) 0.28970(17) 0.73846(8)
N1_2 N 0.9427(2) 0.2977(2) 0.84899(10)
N3_2 N 0.9693(2) 0.1949(2) 0.89775(12)
N5_2 N 0.9074(2) 0.7198(2) 0.84928(10)
N7_2 N 0.9387(2) 0.2308(2) 0.64317(11)
C1_2 C 0.5409(2) 0.5513(2) 0.70369(11)
H1_2 H 0.505345 0.534249 0.710879
C2_2 C 0.5517(2) 0.6246(2) 0.76344(11)
C3_2 C 0.5709(2) 0.4492(2) 0.81126(11)
C4_2 C 0.6263(2) 0.5459(2) 0.67361(11)
C5_2 C 0.5730(2) 0.5196(2) 0.68378(11)
C6_2 C 0.5527(2) 0.4589(2) 0.67365(11)
H2_2 H 0.566704 0.455114 0.654434
C7_2 C 0.5885(2) 0.3628(2) 0.78143(11)
C8_2 C 0.5939(2) 0.3451(2) 0.73078(11)
C9_2 C 0.5557(2) 0.5584(2) 0.80365(11)
C10_2 C 0.5685(2) 0.3211(2) 0.75794(11)
H3_2 H 0.587758 0.281703 0.761278
C11_2 C 0.5596(2) 0.6078(2) 0.71350(11)
C14_2 C 0.5518(2) 0.4111(2) 0.79026(11)
H5_2 H 0.513990 0.417640 0.781834
C16_2 C 0.5301(2) 0.5760(2) 0.77865(11)
H6_2 H 0.496906 0.554152 0.771741
C17_2 C 0.5243(2) 0.6417(2) 0.73546(12)
H7_2 H 0.532804 0.684808 0.732669
C19_2 C 0.6070(2) 0.5913(3) 0.81283(11)
C20_2 C 0.6024(2) 0.6560(2) 0.77391(12)
C23_2 C 0.5862(2) 0.4105(2) 0.69040(11)
C26_2 C 0.5620(2) 0.3858(2) 0.71442(11)
H9_2 H 0.522682 0.397156 0.719761
C27_2 C 0.6443(2) 0.3553(2) 0.79404(11)
C28_2 C 0.5336(2) 0.5041(2) 0.82040(12)
H10_2 H 0.543737 0.511946 0.839882
C29_2 C 0.6264(2) 0.4383(2) 0.82378(11)
C31_2 C 0.6135(2) 0.6319(2) 0.70304(12)
C33_2 C 0.6651(2) 0.3915(3) 0.81527(11)
C34_2 C 0.6298(2) 0.6410(2) 0.79826(12)
C39_2 C 0.6472(2) 0.6011(2) 0.68294(12)
C43_2 C 0.8103(3) 0.6735(3) 0.81804(12)
C44_2 C 0.6787(2) 0.3503(3) 0.69814(11)
C45_2 C 0.9240(3) 0.7010(3) 0.67704(14)
H15_2 H 0.957831 0.713885 0.687269
C47_2 C 0.9161(3) 0.6848(3) 0.82728(13)
H16_2 H 0.956439 0.675947 0.822513
C48_2 C 0.8272(2) 0.6525(3) 0.67604(12)
C50_2 C 0.6528(3) 0.3289(2) 0.72188(12)
C51_2 C 0.8474(2) 0.3651(3) 0.82577(12)
C52_2 C 0.7234(2) 0.3791(3) 0.83015(12)
H17_2 H 0.727831 0.335829 0.833001
H18_2 H 0.722655 0.398503 0.848179
C57_2 C 0.6450(3) 0.3918(2) 0.68274(11)
C58_2 C 0.8784(3) 0.6705(3) 0.69099(13)
H21_2 H 0.881860 0.662305 0.709837
C63_2 C 0.5004(3) 0.3107(3) 0.75665(13)
H26_2 H 0.487384 0.290166 0.773142
H27_2 H 0.490756 0.286450 0.740727
H28_2 H 0.479705 0.348947 0.755264
C64_2 C 0.8198(2) 0.2726(3) 0.65351(12)
C65_2 C 0.7038(2) 0.6291(3) 0.67092(13)
H29_2 H 0.698221 0.672512 0.669211
H30_2 H 0.711248 0.612710 0.652585
C66_2 C 0.9456(3) 0.3202(3) 0.82326(14)
H31_2 H 0.981100 0.313649 0.813044
C67_2 C 0.6996(3) 0.4710(3) 0.66128(13)
H32_2 H 0.711817 0.477170 0.680424
H33_2 H 0.736261 0.472103 0.649923
C68_2 C 0.4552(2) 0.6340(3) 0.73360(13)
H34_2 H 0.444515 0.592956 0.737973
H35_2 H 0.441617 0.643361 0.715134
H36_2 H 0.435701 0.660854 0.746509
C70_2 C 0.8914(3) 0.2140(3) 0.62786(13)
H37_2 H 0.898541 0.187527 0.613248
C72_2 C 0.8680(3) 0.2892(3) 0.67026(13)
H40_2 H 0.861858 0.314613 0.685371
C75_2 C 0.7438(3) 0.3350(3) 0.69023(12)
H42_2 H 0.762807 0.311091 0.704779
H43_2 H 0.767382 0.371883 0.687982
C77_2 C 0.7169(3) 0.3183(3) 0.76172(12)
H44_2 H 0.758007 0.302115 0.763943
H45_2 H 0.720232 0.361463 0.758390
C79_2 C 0.6641(3) 0.6935(3) 0.73659(13)
H47_2 H 0.694362 0.725502 0.735268
H48_2 H 0.685821 0.655871 0.739986
C80_2 C 0.7999(3) 0.7099(3) 0.84091(13)
H49_2 H 0.760262 0.719740 0.846317
C81_2 C 0.4637(3) 0.4935(3) 0.81867(14)
H50_2 H 0.452678 0.482438 0.800059
H51_2 H 0.442544 0.529913 0.823759
H52_2 H 0.452389 0.461478 0.831108
C82_2 C 0.8503(3) 0.7313(3) 0.85558(13)
H53_2 H 0.842917 0.755598 0.870972
C83_2 C 0.4835(2) 0.4504(3) 0.67334(13)
H54_2 H 0.468480 0.449999 0.692030
H55_2 H 0.473550 0.412774 0.664464
H56_2 H 0.464757 0.483151 0.663340
C84_2 C 0.9639(3) 0.1972(3) 0.92403(14)
H57_2 H 0.978330 0.231840 0.932835
C86_2 C 0.6750(3) 0.5283(3) 0.83908(13)
H58_2 H 0.694149 0.523801 0.821065
H59_2 H 0.707115 0.536832 0.852489
C87_2 C 0.6827(2) 0.6755(3) 0.81010(14)
H60_2 H 0.681997 0.673488 0.830188
H61_2 H 0.680224 0.717703 0.804623
C88_2 C 0.8708(3) 0.6608(3) 0.81106(13)
H62_2 H 0.880066 0.636696 0.795841
C91_2 C 0.8325(3) 0.2331(3) 0.63210(13)
H65_2 H 0.801078 0.219478 0.620604
C92_2 C 0.9182(3) 0.1022(3) 0.92997(13)
C94_2 C 0.9255(3) 0.2677(3) 0.66429(14)
H69_2 H 0.957596 0.279648 0.675770
C98_2 C 0.8742(3) 0.6952(4) 0.63632(15)
H74_2 H 0.872321 0.703285 0.617414
C100_2 C 0.8990(3) 0.3522(3) 0.81125(14)
H77_2 H 0.902613 0.365302 0.793000
C101_2 C 0.8448(3) 0.3442(4) 0.85236(13)
H78_2 H 0.810930 0.352958 0.863326
C103_2 C 0.8926(3) 0.3099(4) 0.86307(14)
H79_2 H 0.889144 0.294829 0.881002
C105_2 C 0.9385(3) 0.1532(3) 0.94050(14)
H83_2 H 0.935713 0.159704 0.959503
C110_2 C 0.8258(3) 0.6651(3) 0.64862(14)
H92_2 H 0.792148 0.653503 0.637984
C118_2 C 0.9395(5) 0.1486(4) 0.88647(17)
H102_2 H 0.935256 0.147555 0.867285
C119_2 C 0.9140(5) 0.1014(4) 0.90198(18)
H103_2 H 0.894316 0.069505 0.893068
N12_2 N 0.4944(2) 0.1756(2) 0.88991(12)
C172_2 C 0.5402(3) 0.1657(3) 0.90705(16)
H147_2 H 0.554839 0.197790 0.917642
C174_2 C 0.4716(4) 0.1271(3) 0.87689(16)
H150_2 H 0.437036 0.132433 0.865839
C175_2 C 0.5440(3) 0.0610(3) 0.89504(14)
C176_2 C 0.5683(3) 0.1087(4) 0.91009(16)
H151_2 H 0.601826 0.103290 0.921776
H152_2 H 0.665781 0.016517 0.918222
H153_2 H 0.613538 0.019407 0.940976
C180_2 C 0.4955(4) 0.0710(4) 0.87871(16)
H156_2 H 0.478341 0.039417 0.868625
N21_2 N 0.4074(2) 0.2802(2) 0.84928(10)
N23_2 N 0.5613(2) 0.2692(2) 0.85683(11)
H26_3 H 0.012616 0.209834 0.726858
H27_3 H 0.009244 0.213550 0.759273
H28_3 H 0.020295 0.151053 0.744736
C81_3 C 0.0363(3) 0.0065(3) 0.68133(14)
H50_3 H 0.047322 0.017562 0.699941
H52_3 H 0.047611 0.038522 0.668892
C83_3 C 0.0165(2) 0.0496(3) 0.82666(13)
H54_3 H 0.031520 0.050001 0.807970
H55_3 H 0.026450 0.087226 0.835536
H56_3 H 0.035243 0.016849 0.836660
N12_3 N 0.0056(2) 0.3244(2) 0.61009(12)
C174_3 C 0.0284(4) 0.3729(3) 0.62311(16)
H150_3 H 0.062964 0.367567 0.634161
C180_3 C 0.0045(4) 0.4290(4) 0.62129(16)
H156_3 H 0.021659 0.460583 0.631375
Cu4 Cu 0.01086(3) 0.24387(3) 0.37168(2)
N17 N 0.0512(2) 0.1749(2) 0.39453(10)
N18_2 N 0.0766(2) 0.2869(2) 0.34952(11)
N22 N 0.0350(2) 0.1738(2) 0.59506(12)
H6_3 H 0.003094 0.945848 0.728259
C68_3 C 0.0448(2) 0.8660(3) 0.76640(13)
H34_3 H 0.055485 0.907044 0.762027
H35_3 H 0.058383 0.856639 0.784866
H36_3 H 0.064299 0.839146 0.753491
H51_3 H 0.057456 0.970087 0.676241
Cu2_2 Cu 0.48914(3) 0.24387(3) 0.62832(2)
S2_3 S 0.71146(7) 0.09260(8) 0.68976(4)
S4_3 S 0.39501(8) 0.01432(8) 0.45551(4)
S5_3 S 0.35198(9) 0.01817(8) 0.56235(4)
S6_3 S 0.75645(8) 0.20722(10) 0.84182(4)
S7_3 S 0.61458(11) 0.45495(9) 0.54904(4)
S8_2 S 0.57026(14) 0.51529(11) 0.39794(5)
O2_3 O 0.85413(17) 0.02651(18) 0.65373(8)
O6_3 O 0.81740(18) 0.19210(17) 0.71371(8)
O7_3 O 0.82925(17) 0.08685(18) 0.84147(8)
O9_3 O 0.81266(18) 0.21030(17) 0.76154(8)
O13_2 O 0.6663(2) 0.5841(2) 0.59191(8)
O14_2 O 0.7268(2) 0.5811(2) 0.40198(9)
O15_2 O 0.54231(19) 0.5732(2) 0.51129(10)
O16_2 O 0.55775(19) 0.5726(2) 0.46351(10)
N1_3 N 0.5573(2) 0.2023(2) 0.65101(10)
N2_3 N 0.4488(2) 0.1749(2) 0.60547(10)
N3_3 N 0.5307(2) 0.3051(2) 0.60225(12)
N6_3 N 0.4650(2) 0.1738(2) 0.40494(12)
N8_3 N 0.4944(2) 0.3244(2) 0.38991(12)
C3_3 C 0.9291(2) 0.0508(2) 0.68874(11)
C6_3 C 0.9473(2) 0.0411(2) 0.82635(11)
H2_3 H 0.933296 0.044886 0.845566
C7_3 C 0.9115(2) 0.1372(2) 0.71857(11)
C8_3 C 0.9061(2) 0.1549(2) 0.76922(11)
C10_3 C 0.9315(2) 0.1789(2) 0.74206(11)
H3_3 H 0.912242 0.218297 0.738722
C14_3 C 0.9482(2) 0.0889(2) 0.70974(11)
H5_3 H 0.986010 0.082360 0.718166
C18_2 C 0.7127(2) 0.6618(3) 0.43502(11)
C23_3 C 0.9138(2) 0.0895(2) 0.80960(11)
C26_3 C 0.9380(2) 0.1142(2) 0.78558(11)
H9_3 H 0.977318 0.102844 0.780239
C27_3 C 0.8557(2) 0.1447(2) 0.70596(11)
C29_3 C 0.8736(2) 0.0617(2) 0.67622(11)
C30_2 C 0.6099(2) 0.6579(3) 0.51702(11)
C32_2 C 0.6777(2) 0.6871(3) 0.45612(12)
H11_2 H 0.689623 0.723909 0.463788
C33_3 C 0.8349(2) 0.1085(3) 0.68473(11)
C35_2 C 0.6543(2) 0.6864(3) 0.53294(12)
H12_2 H 0.670712 0.722761 0.526725
C36_2 C 0.6754(2) 0.6623(3) 0.55804(12)
C37_2 C 0.6255(2) 0.6588(3) 0.46595(12)
C42_2 C 0.7271(2) 0.6912(3) 0.57439(12)
H14_2 H 0.721152 0.680227 0.593883
C44_3 C 0.8213(2) 0.1497(3) 0.80186(11)
C46_2 C 0.6488(3) 0.6086(3) 0.56662(12)
C49_3 C 0.3900(3) 0.0766(3) 0.57953(12)
C50_3 C 0.8472(3) 0.1711(2) 0.77812(12)
C51_3 C 0.6526(2) 0.1349(3) 0.67423(12)
C52_3 C 0.7766(2) 0.1209(3) 0.66985(12)
H17_3 H 0.772169 0.164171 0.666999
H18_3 H 0.777345 0.101497 0.651821
C54_3 C 0.4272(3) 0.0695(3) 0.60269(12)
H19_3 H 0.432989 0.031256 0.610299
C56_3 C 0.4550(3) 0.1181(3) 0.61421(13)
H20_3 H 0.480364 0.111325 0.629426
C57_3 C 0.8550(3) 0.1082(2) 0.81726(11)
C60_2 C 0.5876(2) 0.6844(3) 0.48947(13)
H24_2 H 0.545431 0.670077 0.486700
C63_3 C 0.9996(3) 0.1893(3) 0.74335(13)
C64_3 C 0.6802(2) 0.2274(3) 0.84649(12)
C66_3 C 0.5544(3) 0.1798(3) 0.67674(14)
H31_3 H 0.518900 0.186351 0.686956
C67_3 C 0.8004(3) 0.0290(3) 0.83872(13)
H32_3 H 0.788183 0.022830 0.819576
H33_3 H 0.763739 0.027897 0.850077
C69_2 C 0.6948(3) 0.6066(3) 0.42401(12)
C70_3 C 0.6086(3) 0.2860(3) 0.87214(13)
H37_3 H 0.601459 0.312473 0.886752
C72_3 C 0.6320(3) 0.2108(3) 0.82974(13)
H40_3 H 0.638142 0.185387 0.814629
C73_3 C 0.4227(3) 0.0744(3) 0.43506(13)
C74_3 C 0.4359(3) 0.1793(3) 0.42897(14)
H41_3 H 0.430270 0.218206 0.435840
C75_3 C 0.7562(3) 0.1650(3) 0.80977(12)
H42_3 H 0.737193 0.188909 0.795221
H43_3 H 0.732618 0.128117 0.812018
C76_2 C 0.5869(3) 0.6031(3) 0.52667(13)
C77_3 C 0.7831(3) 0.1817(3) 0.73828(12)
H44_3 H 0.741993 0.197885 0.736057
H45_3 H 0.779768 0.138537 0.741610
C78_3 C 0.4733(3) 0.1167(3) 0.39626(14)
H46_3 H 0.494150 0.110991 0.379673
C84_3 C 0.5361(3) 0.3028(3) 0.57597(14)
H57_3 H 0.521670 0.268160 0.567165
C85_2 C 0.6043(3) 0.5797(3) 0.55153(13)
C90_2 C 0.6095(3) 0.6033(3) 0.45439(13)
C91_3 C 0.6675(3) 0.2669(3) 0.86790(13)
H65_3 H 0.698922 0.280522 0.879396
C92_3 C 0.5818(3) 0.3978(3) 0.57003(13)
C93_2 C 0.7283(3) 0.7597(3) 0.57290(14)
H66_2 H 0.736520 0.772122 0.554205
H67_2 H 0.689304 0.775475 0.578603
H68_2 H 0.759863 0.774901 0.584951
C94_3 C 0.5745(3) 0.2323(3) 0.83571(14)
H69_3 H 0.542404 0.220352 0.824230
C95_3 C 0.4134(3) 0.1319(3) 0.44454(14)
H70_3 H 0.392513 0.138903 0.461002
C96_3 C 0.4534(3) 0.0665(3) 0.40994(13)
H71_3 H 0.460066 0.028069 0.402742
C99_2 C 0.7801(4) 0.5482(3) 0.40893(15)
H75_2 H 0.775548 0.531576 0.427412
H76_2 H 0.784571 0.514657 0.396127
C100_3 C 0.6010(3) 0.1478(3) 0.68875(14)
H77_3 H 0.597387 0.134698 0.707000
C101_3 C 0.6552(3) 0.1558(4) 0.64764(13)
H78_3 H 0.689070 0.147042 0.636674
C102_2 C 0.6432(3) 0.5754(3) 0.43374(14)
C103_3 C 0.6074(3) 0.1901(4) 0.63693(14)
H79_3 H 0.610856 0.205171 0.618998
C105_3 C 0.5615(3) 0.3468(3) 0.55950(14)
H83_3 H 0.564287 0.340296 0.540497
C107_2 C 0.5851(3) 0.7536(3) 0.48993(14)
H87_2 H 0.626077 0.769520 0.489346
H88_2 H 0.562456 0.767831 0.474135
H89_2 H 0.565332 0.766892 0.506610
C108_3 C 0.3827(3) 0.1358(3) 0.56998(15)
H90_3 H 0.358237 0.143917 0.554609
C109_3 C 0.4119(3) 0.1810(3) 0.58349(15)
H91_3 H 0.405633 0.220016 0.576858
C111_2 C 0.5648(4) 0.5409(3) 0.48823(15)
H93_2 H 0.543250 0.502589 0.486822
H94_2 H 0.607956 0.532168 0.491100
C112_3 C 0.5402(3) 0.3343(3) 0.40705(16)
H95_3 H 0.554839 0.302210 0.417642
C113_2 C 0.5767(3) 0.5213(3) 0.56265(15)
H96_2 H 0.579893 0.521111 0.582710
H97_2 H 0.533565 0.519779 0.557783
C114_3 C 0.4716(4) 0.3729(3) 0.37689(16)
H98_3 H 0.437036 0.367567 0.365839
C115_3 C 0.5440(3) 0.4390(3) 0.39504(14)
C116_3 C 0.5683(3) 0.3913(4) 0.41009(16)
H99_3 H 0.601826 0.396710 0.421776
C117_2 C 0.6295(3) 0.5034(4) 0.42541(15)
H100_3 H 0.665781 0.483483 0.418222
H101_3 H 0.613538 0.480593 0.440976
C118_3 C 0.5605(5) 0.3514(4) 0.61353(17)
H102_3 H 0.564744 0.352445 0.632715
C119_3 C 0.5860(5) 0.3986(4) 0.59802(18)
H103_3 H 0.605684 0.430495 0.606932
C120_3 C 0.4955(4) 0.4290(4) 0.37871(16)
H104_3 H 0.478341 0.460583 0.368625
S9_3 S 0.10499(8) 0.01432(8) 0.54449(4)
S10_3 S 0.14802(9) 0.01817(8) 0.43765(4)
C131_3 C 0.1100(3) 0.0766(3) 0.42047(12)
C133_3 C 0.0728(3) 0.0695(3) 0.39731(12)
H108_3 H 0.067011 0.031256 0.389701
C135_3 C 0.0450(3) 0.1181(3) 0.38579(13)
H109_3 H 0.019636 0.111325 0.370574
C140_3 C 0.0773(3) 0.0744(3) 0.56494(13)
C141_3 C 0.0641(3) 0.1793(3) 0.57103(14)
H115_3 H 0.069730 0.218206 0.564160
C142_3 C 0.0267(3) 0.1167(3) 0.60374(14)
H116_3 H 0.005850 0.110991 0.620327
C144_3 C 0.0866(3) 0.1319(3) 0.55546(14)
H119_3 H 0.107487 0.138903 0.538998
C145_3 C 0.0466(3) 0.0665(3) 0.59006(13)
H120_3 H 0.039934 0.028069 0.597258
C149_3 C 0.1173(3) 0.1358(3) 0.43002(15)
H129_3 H 0.141763 0.143917 0.445391
C150_3 C 0.0881(3) 0.1810(3) 0.41651(15)
H130_3 H 0.094367 0.220016 0.423142
S11_3 S 0.88542(11) 0.45495(9) 0.45096(4)
S12_2 S 0.92974(14) 0.51529(11) 0.60206(5)
O21_2 O 0.8337(2) 0.5841(2) 0.40809(8)
O22_2 O 0.7732(2) 0.5811(2) 0.59802(9)
O23_2 O 0.95769(19) 0.5732(2) 0.48871(10)
O24_2 O 0.94225(19) 0.5726(2) 0.53649(10)
N11_3 N 0.9693(2) 0.3051(2) 0.39775(12)
C151_2 C 0.7873(2) 0.6618(3) 0.56498(11)
C152_2 C 0.8901(2) 0.6579(3) 0.48298(11)
C153_2 C 0.8223(2) 0.6871(3) 0.54388(12)
H131_2 H 0.810377 0.723909 0.536212
C154_2 C 0.8457(2) 0.6864(3) 0.46706(12)
H132_2 H 0.829288 0.722761 0.473275
C155_2 C 0.8246(2) 0.6623(3) 0.44196(12)
C156_2 C 0.8745(2) 0.6588(3) 0.53405(12)
C157_2 C 0.7729(2) 0.6912(3) 0.42561(12)
H133_2 H 0.778848 0.680227 0.406117
C158_2 C 0.8512(3) 0.6086(3) 0.43338(12)
C159_2 C 0.9124(2) 0.6844(3) 0.51053(13)
H134_2 H 0.954569 0.670077 0.513300
C160_2 C 0.8052(3) 0.6066(3) 0.57599(12)
C161_2 C 0.9131(3) 0.6031(3) 0.47333(13)
C162_3 C 0.9639(3) 0.3028(3) 0.42403(14)
H135_3 H 0.978330 0.268160 0.432835
C163_2 C 0.8957(3) 0.5797(3) 0.44847(13)
C164_2 C 0.8905(3) 0.6033(3) 0.54561(13)
C165_3 C 0.9182(3) 0.3978(3) 0.42997(13)
C166_2 C 0.7717(3) 0.7597(3) 0.42710(14)
H136_2 H 0.763480 0.772122 0.445795
H137_2 H 0.810696 0.775475 0.421397
H138_2 H 0.740137 0.774901 0.415049
C167_2 C 0.7199(4) 0.5482(3) 0.59107(15)
H139_2 H 0.724452 0.531576 0.572588
H140_2 H 0.715429 0.514657 0.603873
C168_2 C 0.8568(3) 0.5754(3) 0.56626(14)
C169_3 C 0.9385(3) 0.3468(3) 0.44050(14)
H141_3 H 0.935713 0.340296 0.459503
C170_2 C 0.9149(3) 0.7536(3) 0.51007(14)
H142_2 H 0.873923 0.769520 0.510654
H143_2 H 0.937544 0.767831 0.525865
H144_2 H 0.934668 0.766892 0.493390
C171_2 C 0.9352(4) 0.5409(3) 0.51177(15)
H145_2 H 0.956750 0.502589 0.513178
H146_2 H 0.892044 0.532168 0.508900
C172_3 C 0.9598(3) 0.3343(3) 0.59295(16)
H147_3 H 0.945161 0.302210 0.582358
C173_2 C 0.9233(3) 0.5213(3) 0.43735(15)
H148_2 H 0.920107 0.521111 0.417290
H149_2 H 0.966435 0.519779 0.442217
C175_3 C 0.9560(3) 0.4390(3) 0.60496(14)
C176_3 C 0.9317(3) 0.3913(4) 0.58991(16)
H151_3 H 0.898174 0.396710 0.578224
C177_2 C 0.8705(3) 0.5034(4) 0.57459(15)
H152_3 H 0.834219 0.483483 0.581778
H153_3 H 0.886462 0.480593 0.559024
C178_3 C 0.9395(5) 0.3514(4) 0.38647(17)
H154_3 H 0.935256 0.352445 0.367285
C179_3 C 0.9140(5) 0.3986(4) 0.40198(18)
H155_3 H 0.894316 0.430495 0.393068
S14_3 S 0.78854(7) 0.09260(8) 0.31024(4)
S16_3 S 0.74355(8) 0.20722(10) 0.15818(4)
O26_3 O 0.64587(17) 0.02651(18) 0.34627(8)
O29_3 O 0.68260(18) 0.19210(17) 0.28629(8)
O30_3 O 0.67075(17) 0.08685(18) 0.15853(8)
O32_3 O 0.68734(18) 0.21030(17) 0.23846(8)
N13_3 N 0.9427(2) 0.2023(2) 0.34899(10)
C183_3 C 0.5709(2) 0.0508(2) 0.31126(11)
C186_3 C 0.5527(2) 0.0411(2) 0.17365(11)
H158_3 H 0.566704 0.044886 0.154434
C187_3 C 0.5885(2) 0.1372(2) 0.28143(11)
C188_3 C 0.5939(2) 0.1549(2) 0.23078(11)
C190_3 C 0.5685(2) 0.1789(2) 0.25794(11)
H159_3 H 0.587758 0.218297 0.261278
C192_3 C 0.5518(2) 0.0889(2) 0.29026(11)
H160_3 H 0.513990 0.082360 0.281834
C197_3 C 0.5862(2) 0.0895(2) 0.19040(11)
C198_3 C 0.5620(2) 0.1142(2) 0.21442(11)
H163_3 H 0.522682 0.102844 0.219761
C199_3 C 0.6443(2) 0.1447(2) 0.29404(11)
C201_3 C 0.6264(2) 0.0617(2) 0.32378(11)
C203_3 C 0.6651(2) 0.1085(3) 0.31527(11)
C207_3 C 0.6787(2) 0.1497(3) 0.19814(11)
C211_3 C 0.6528(3) 0.1711(2) 0.22188(12)
C212_3 C 0.8474(2) 0.1349(3) 0.32577(12)
C213_3 C 0.7234(2) 0.1209(3) 0.33015(12)
H167_3 H 0.727831 0.164171 0.333001
H168_3 H 0.722655 0.101497 0.348179
C214_3 C 0.6450(3) 0.1082(2) 0.18274(11)
C216_3 C 0.5004(3) 0.1893(3) 0.25665(13)
H170_3 H 0.487384 0.209834 0.273142
H171_3 H 0.490756 0.213550 0.240727
H172_3 H 0.479705 0.151053 0.255264
C217_3 C 0.8198(2) 0.2274(3) 0.15351(12)
C219_3 C 0.9456(3) 0.1798(3) 0.32326(14)
H175_3 H 0.981100 0.186351 0.313044
C220_3 C 0.6996(3) 0.0290(3) 0.16128(13)
H176_3 H 0.711817 0.022830 0.180424
H177_3 H 0.736261 0.027897 0.149923
C222_3 C 0.8914(3) 0.2860(3) 0.12786(13)
H181_3 H 0.898541 0.312473 0.113248
C223_3 C 0.8680(3) 0.2108(3) 0.17026(13)
H182_3 H 0.861858 0.185387 0.185371
C224_3 C 0.7438(3) 0.1650(3) 0.19023(12)
H183_3 H 0.762807 0.188909 0.204779
H184_3 H 0.767382 0.128117 0.187982
C225_3 C 0.7169(3) 0.1817(3) 0.26172(12)
H185_3 H 0.758007 0.197885 0.263943
H186_3 H 0.720232 0.138537 0.258390
C228_3 C 0.4637(3) 0.0065(3) 0.31867(14)
H190_3 H 0.452678 0.017562 0.300059
H192_3 H 0.452389 0.038522 0.331108
C230_3 C 0.4835(2) 0.0496(3) 0.17334(13)
H194_3 H 0.468480 0.050001 0.192030
H195_3 H 0.473550 0.087226 0.164464
H196_3 H 0.464757 0.016849 0.163340
C234_3 C 0.8325(3) 0.2669(3) 0.13210(13)
H202_3 H 0.801078 0.280522 0.120604
C235_3 C 0.9255(3) 0.2323(3) 0.16429(14)
H203_3 H 0.957596 0.220352 0.175770
C237_3 C 0.8990(3) 0.1478(3) 0.31125(14)
H205_3 H 0.902613 0.134698 0.293000
C238_3 C 0.8448(3) 0.1558(4) 0.35236(13)
H206_3 H 0.810930 0.147042 0.363326
C239_3 C 0.8926(3) 0.1901(4) 0.36307(14)
H207_3 H 0.889144 0.205171 0.381002
N19_2 N 0.4234(2) 0.2869(2) 0.65048(11)
S1_3 S 0.74686(7) 0.85800(8) 0.70297(4)
S3_3 S 0.73151(7) 0.88667(9) 0.80674(4)
O1_3 O 0.86623(17) 0.92206(17) 0.66182(8)
O3_3 O 0.84094(17) 0.98206(17) 0.84705(8)
O4_3 O 0.87501(18) 0.79442(17) 0.74046(9)
O5_3 O 0.26438(18) 0.89571(18) 0.59569(8)
O8_3 O 0.86711(17) 0.81100(17) 0.78877(8)
O10_3 O 0.34176(18) 0.89373(19) 0.41292(8)
O11_3 O 0.44457(16) 0.89578(19) 0.54071(8)
O12_3 O 0.46729(16) 0.8931(2) 0.49311(9)
N4_2 N 0.5766(2) 0.7869(2) 0.84952(11)
C1_3 C 0.9591(2) 0.9487(2) 0.79631(11)
H1_3 H 0.994655 0.965751 0.789121
C2_3 C 0.9483(2) 0.8754(2) 0.73656(11)
C4_3 C 0.8737(2) 0.9541(2) 0.82639(11)
C5_3 C 0.9270(2) 0.9804(2) 0.81622(11)
C9_3 C 0.9443(2) 0.9416(2) 0.69635(11)
C11_3 C 0.9404(2) 0.8922(2) 0.78650(11)
C12_3 C 0.3185(2) 0.7866(2) 0.54429(11)
H4_3 H 0.307009 0.749647 0.536687
C13_3 C 0.2987(3) 0.8678(2) 0.57505(11)
C15_3 C 0.3735(2) 0.8123(3) 0.53589(11)
C16_3 C 0.9699(2) 0.9240(2) 0.72135(11)
C17_3 C 0.9757(2) 0.8583(2) 0.76454(12)
H7_3 H 0.967196 0.815192 0.767331
C19_3 C 0.8930(2) 0.9087(3) 0.68717(11)
C20_3 C 0.8976(2) 0.8440(2) 0.72609(12)
C21_3 C 0.3534(3) 0.8956(2) 0.56777(11)
C22_3 C 0.3504(2) 0.7862(2) 0.46995(11)
H8_3 H 0.332230 0.750172 0.475527
C24_3 C 0.3312(2) 0.8122(3) 0.44537(12)
C25_3 C 0.2803(2) 0.8134(2) 0.56340(11)
C28_3 C 0.9664(2) 0.9959(2) 0.67960(12)
H10_3 H 0.956263 0.988054 0.660118
C31_3 C 0.8865(2) 0.8681(2) 0.79696(12)
C34_3 C 0.8702(2) 0.8590(2) 0.70174(12)
C38_3 C 0.3885(3) 0.8691(3) 0.54774(12)
C39_3 C 0.8528(2) 0.8989(2) 0.81706(12)
C40_3 C 0.2800(2) 0.7853(3) 0.42804(11)
H13_3 H 0.287429 0.798389 0.408930
C41_3 C 0.3952(2) 0.8110(3) 0.48655(12)
C43_3 C 0.6897(3) 0.8265(3) 0.68196(12)
C45_3 C 0.5760(3) 0.7990(3) 0.82296(14)
H15_3 H 0.542169 0.786115 0.812731
C47_3 C 0.5839(3) 0.8152(3) 0.67272(13)
H16_3 H 0.543561 0.824053 0.677487
C48_3 C 0.6728(2) 0.8475(3) 0.82396(12)
C53_3 C 0.3582(3) 0.8664(3) 0.43761(12)
C55_3 C 0.4046(2) 0.8923(3) 0.45297(12)
C58_3 C 0.6216(3) 0.8295(3) 0.80901(13)
H21_3 H 0.618140 0.837695 0.790163
C59_3 C 0.3748(3) 0.9528(2) 0.58191(12)
H22_3 H 0.357435 0.954897 0.600364
H23_3 H 0.419150 0.952078 0.583711
C61_3 C 0.4212(3) 0.8651(3) 0.47746(13)
C62_3 C 0.4136(3) 0.7843(3) 0.51405(12)
H25_3 H 0.455561 0.797834 0.517810
C65_3 C 0.7962(2) 0.8709(3) 0.82908(13)
H29_3 H 0.801779 0.827488 0.830789
H30_3 H 0.788752 0.887290 0.847415
C71_3 C 0.2876(3) 0.9294(3) 0.41347(14)
H38_3 H 0.280613 0.943635 0.432213
H39_3 H 0.292954 0.964449 0.401630
C79_3 C 0.8359(3) 0.8065(3) 0.76341(13)
H47_3 H 0.805638 0.774498 0.764732
H48_3 H 0.814179 0.844129 0.760014
C80_3 C 0.7001(3) 0.7901(3) 0.65909(13)
H49_3 H 0.739738 0.780260 0.653683
C82_3 C 0.6497(3) 0.7687(3) 0.64442(13)
H53_3 H 0.657083 0.744402 0.629028
C86_3 C 0.8250(3) 0.9717(3) 0.66092(13)
H58_3 H 0.805851 0.976199 0.678935
H59_3 H 0.792885 0.963168 0.647511
C87_3 C 0.8173(2) 0.8245(3) 0.68990(14)
H60_3 H 0.818003 0.826512 0.669812
H61_3 H 0.819776 0.782297 0.695377
C88_3 C 0.6292(3) 0.8392(3) 0.68894(13)
H62_3 H 0.619934 0.863304 0.704159
C89_3 C 0.4463(3) 0.9283(3) 0.51576(13)
H63_3 H 0.405458 0.943223 0.511589
H64_3 H 0.473048 0.963001 0.518033
C97_3 C 0.4349(3) 0.9488(3) 0.44212(14)
H72_3 H 0.477531 0.949759 0.447919
H73_3 H 0.433580 0.948974 0.422017
C98_3 C 0.6258(3) 0.8048(4) 0.86368(15)
H74_3 H 0.627679 0.796715 0.882586
C104_3 C 0.4144(3) 0.7160(3) 0.51506(14)
H80_3 H 0.374165 0.700713 0.510856
H81_3 H 0.443093 0.700850 0.501697
H82_3 H 0.426344 0.702888 0.533267
C106_3 C 0.2797(3) 0.7160(3) 0.42755(14)
H84_3 H 0.270526 0.700926 0.445732
H85_3 H 0.249142 0.702087 0.414677
H86_3 H 0.319287 0.701519 0.421915
C110_3 C 0.6742(3) 0.8349(3) 0.85138(14)
H92_3 H 0.707852 0.846497 0.862016
O17_3 O 0.23562(18) 0.89571(18) 0.40431(8)
O18_3 O 0.15824(18) 0.89373(19) 0.58708(8)
O19_3 O 0.05543(16) 0.89578(19) 0.45929(8)
O20_3 O 0.03271(16) 0.8931(2) 0.50689(9)
C121_3 C 0.1815(2) 0.7866(2) 0.45571(11)
H105_3 H 0.192991 0.749647 0.463313
C122_3 C 0.2013(3) 0.8678(2) 0.42495(11)
C123_3 C 0.1265(2) 0.8123(3) 0.46411(11)
C124_3 C 0.1466(3) 0.8956(2) 0.43223(11)
C125_3 C 0.1496(2) 0.7862(2) 0.53005(11)
H106_3 H 0.167770 0.750172 0.524473
C126_3 C 0.1688(2) 0.8122(3) 0.55463(12)
C127_3 C 0.2197(2) 0.8134(2) 0.43660(11)
C128_3 C 0.1115(3) 0.8691(3) 0.45226(12)
C129_3 C 0.2200(2) 0.7853(3) 0.57196(11)
H107_3 H 0.212571 0.798389 0.591070
C130_3 C 0.1048(2) 0.8110(3) 0.51345(12)
C132_3 C 0.1418(3) 0.8664(3) 0.56239(12)
C134_3 C 0.0954(2) 0.8923(3) 0.54703(12)
C136_3 C 0.1252(3) 0.9528(2) 0.41809(12)
H110_3 H 0.142565 0.954897 0.399636
H111_3 H 0.080850 0.952078 0.416289
C137_3 C 0.0788(3) 0.8651(3) 0.52254(13)
C138_3 C 0.0864(3) 0.7843(3) 0.48595(12)
H112_3 H 0.044439 0.797834 0.482190
C139_3 C 0.2124(3) 0.9294(3) 0.58653(14)
H113_3 H 0.219387 0.943635 0.567787
H114_3 H 0.207046 0.964449 0.598370
C143_3 C 0.0537(3) 0.9283(3) 0.48424(13)
H117_3 H 0.094542 0.943223 0.488411
H118_3 H 0.026952 0.963001 0.481967
C146_3 C 0.0651(3) 0.9488(3) 0.55788(14)
H121_3 H 0.022469 0.949759 0.552081
H122_3 H 0.066420 0.948974 0.577983
C147_3 C 0.0856(3) 0.7160(3) 0.48494(14)
H123_3 H 0.125835 0.700713 0.489144
H124_3 H 0.056907 0.700850 0.498303
H125_3 H 0.073656 0.702888 0.466733
C148_3 C 0.2203(3) 0.7160(3) 0.57245(14)
H126_3 H 0.229474 0.700926 0.554268
H127_3 H 0.250858 0.702087 0.585323
H128_3 H 0.180713 0.701519 0.578085
S13_3 S 0.75314(7) 0.85800(8) 0.29703(4)
S15_3 S 0.76849(7) 0.88667(9) 0.19326(4)
O25_3 O 0.63377(17) 0.92206(17) 0.33818(8)
O27_3 O 0.65906(17) 0.98206(17) 0.15295(8)
O28_3 O 0.62499(18) 0.79442(17) 0.25954(9)
O31_3 O 0.63289(17) 0.81100(17) 0.21123(8)
N14_2 N 0.9234(2) 0.7869(2) 0.15048(11)
C181_3 C 0.5409(2) 0.9487(2) 0.20369(11)
H157_3 H 0.505345 0.965751 0.210879
C182_3 C 0.5517(2) 0.8754(2) 0.26344(11)
C184_3 C 0.6263(2) 0.9541(2) 0.17361(11)
C185_3 C 0.5730(2) 0.9804(2) 0.18378(11)
C189_3 C 0.5557(2) 0.9416(2) 0.30365(11)
C191_3 C 0.5596(2) 0.8922(2) 0.21350(11)
C193_3 C 0.5301(2) 0.9240(2) 0.27865(11)
H161_3 H 0.496906 0.945848 0.271741
C194_3 C 0.5243(2) 0.8583(2) 0.23546(12)
H162_3 H 0.532804 0.815192 0.232669
C195_3 C 0.6070(2) 0.9087(3) 0.31283(11)
C196_3 C 0.6024(2) 0.8440(2) 0.27391(12)
C200_3 C 0.5336(2) 0.9959(2) 0.32040(12)
H164_3 H 0.543737 0.988054 0.339882
C202_3 C 0.6135(2) 0.8681(2) 0.20304(12)
C204_3 C 0.6298(2) 0.8590(2) 0.29826(12)
C205_3 C 0.6472(2) 0.8989(2) 0.18294(12)
C206_3 C 0.8103(3) 0.8265(3) 0.31804(12)
C208_3 C 0.9240(3) 0.7990(3) 0.17704(14)
H165_3 H 0.957831 0.786115 0.187269
C209_3 C 0.9161(3) 0.8152(3) 0.32728(13)
H166_3 H 0.956439 0.824053 0.322513
C210_3 C 0.8272(2) 0.8475(3) 0.17604(12)
C215_3 C 0.8784(3) 0.8295(3) 0.19099(13)
H169_3 H 0.881860 0.837695 0.209837
C218_3 C 0.7038(2) 0.8709(3) 0.17092(13)
H173_3 H 0.698221 0.827488 0.169211
H174_3 H 0.711248 0.887290 0.152585
C221_3 C 0.4552(2) 0.8660(3) 0.23360(13)
H178_3 H 0.444515 0.907044 0.237973
H179_3 H 0.441617 0.856639 0.215134
H180_3 H 0.435701 0.839146 0.246509
C226_3 C 0.6641(3) 0.8065(3) 0.23659(13)
H187_3 H 0.694362 0.774498 0.235268
H188_3 H 0.685821 0.844129 0.239986
C227_3 C 0.7999(3) 0.7901(3) 0.34091(13)
H189_3 H 0.760262 0.780260 0.346317
H191_3 H 0.442544 0.970087 0.323759
C229_3 C 0.8503(3) 0.7687(3) 0.35558(13)
H193_3 H 0.842917 0.744402 0.370972
C231_3 C 0.6750(3) 0.9717(3) 0.33908(13)
H197_3 H 0.694149 0.976199 0.321065
H198_3 H 0.707115 0.963168 0.352489
C232_3 C 0.6827(2) 0.8245(3) 0.31010(14)
H199_3 H 0.681997 0.826512 0.330188
H200_3 H 0.680224 0.782297 0.304623
C233_3 C 0.8708(3) 0.8392(3) 0.31106(13)
H201_3 H 0.880066 0.863304 0.295841
C236_3 C 0.8742(3) 0.8048(4) 0.13632(15)
H204_3 H 0.872321 0.796715 0.117414
C240_3 C 0.8258(3) 0.8349(3) 0.14862(14)
H208_3 H 0.792148 0.846497 0.137984
Cu11_2 Cu 0.98914(3) 0.74387(3) 0.12832(2)
Cu12_2 Cu 0.51086(3) 0.74387(3) 0.87168(2)
S1_4 S 0.24686(7) 0.35800(8) 0.20297(4)
S2_4 S 0.21146(7) 0.59260(8) 0.18976(4)
S3_4 S 0.23151(7) 0.38667(9) 0.30674(4)
S6_4 S 0.25645(8) 0.70722(10) 0.34182(4)
S7_4 S 0.11458(11) 0.95495(9) 0.04904(4)
O1_4 O 0.36623(17) 0.42206(17) 0.16182(8)
O2_4 O 0.35413(17) 0.52651(18) 0.15373(8)
O3_4 O 0.34094(17) 0.48206(17) 0.34705(8)
O4_4 O 0.37501(18) 0.29442(17) 0.24046(9)
O6_4 O 0.31740(18) 0.69210(17) 0.21371(8)
O7_4 O 0.32925(17) 0.58685(18) 0.34147(8)
O8_4 O 0.36711(17) 0.31100(17) 0.28877(8)
O9_4 O 0.31266(18) 0.71030(17) 0.26154(8)
N1_4 N 0.0573(2) 0.7023(2) 0.15101(10)
N3_4 N 0.0307(2) 0.8051(2) 0.10225(12)
C1_4 C 0.4591(2) 0.4487(2) 0.29631(11)
H1_4 H 0.494655 0.465751 0.289121
C2_4 C 0.4483(2) 0.3754(2) 0.23656(11)
C3_4 C 0.4291(2) 0.5508(2) 0.18874(11)
C4_4 C 0.3737(2) 0.4541(2) 0.32639(11)
C5_4 C 0.4270(2) 0.4804(2) 0.31622(11)
C6_4 C 0.4473(2) 0.5411(2) 0.32635(11)
H2_4 H 0.433296 0.544886 0.345566
C7_4 C 0.4115(2) 0.6372(2) 0.21857(11)
C8_4 C 0.4061(2) 0.6549(2) 0.26922(11)
C9_4 C 0.4443(2) 0.4416(2) 0.19635(11)
C10_4 C 0.4315(2) 0.6789(2) 0.24206(11)
H3_4 H 0.412242 0.718297 0.238722
C11_4 C 0.4404(2) 0.3922(2) 0.28650(11)
C14_4 C 0.4482(2) 0.5889(2) 0.20974(11)
H5_4 H 0.486010 0.582360 0.218166
C16_4 C 0.4699(2) 0.4240(2) 0.22135(11)
H6_4 H 0.503094 0.445848 0.228259
C17_4 C 0.4757(2) 0.3583(2) 0.26454(12)
H7_4 H 0.467196 0.315192 0.267331
C19_4 C 0.3930(2) 0.4087(3) 0.18717(11)
C20_4 C 0.3976(2) 0.3440(2) 0.22609(12)
C23_4 C 0.4138(2) 0.5895(2) 0.30960(11)
C26_4 C 0.4380(2) 0.6142(2) 0.28558(11)
H9_4 H 0.477318 0.602844 0.280239
C27_4 C 0.3557(2) 0.6447(2) 0.20596(11)
C28_4 C 0.4664(2) 0.4959(2) 0.17960(12)
H10_4 H 0.456263 0.488054 0.160118
C29_4 C 0.3736(2) 0.5617(2) 0.17622(11)
C31_4 C 0.3865(2) 0.3681(2) 0.29696(12)
C33_4 C 0.3349(2) 0.6085(3) 0.18473(11)
C34_4 C 0.3702(2) 0.3590(2) 0.20174(12)
C39_4 C 0.3528(2) 0.3989(2) 0.31706(12)
C43_4 C 0.1897(3) 0.3265(3) 0.18196(12)
C44_4 C 0.3213(2) 0.6497(3) 0.30186(11)
C45_4 C 0.0760(3) 0.2990(3) 0.32296(14)
H15_4 H 0.042169 0.286115 0.312731
C47_4 C 0.0839(3) 0.3152(3) 0.17272(13)
H16_4 H 0.043561 0.324053 0.177487
C48_4 C 0.1728(2) 0.3475(3) 0.32396(12)
C50_4 C 0.3472(3) 0.6711(2) 0.27812(12)
C51_4 C 0.1526(2) 0.6349(3) 0.17423(12)
C52_4 C 0.2766(2) 0.6209(3) 0.16985(12)
H17_4 H 0.272169 0.664171 0.166999
H18_4 H 0.277345 0.601497 0.151821
C57_4 C 0.3550(3) 0.6082(2) 0.31726(11)
C58_4 C 0.1216(3) 0.3295(3) 0.30901(13)
H21_4 H 0.118140 0.337695 0.290163
C63_4 C 0.4996(3) 0.6893(3) 0.24335(13)
H26_4 H 0.512616 0.709834 0.226858
H27_4 H 0.509244 0.713550 0.259273
H28_4 H 0.520295 0.651053 0.244736
C64_4 C 0.1802(2) 0.7274(3) 0.34649(12)
C65_4 C 0.2962(2) 0.3709(3) 0.32908(13)
H29_4 H 0.301779 0.327488 0.330789
H30_4 H 0.288752 0.387290 0.347415
C66_4 C 0.0544(3) 0.6798(3) 0.17674(14)
H31_4 H 0.018900 0.686351 0.186956
C67_4 C 0.3004(3) 0.5290(3) 0.33872(13)
H32_4 H 0.288183 0.522830 0.319576
H33_4 H 0.263739 0.527897 0.350077
C68_4 C 0.5448(2) 0.3660(3) 0.26640(13)
H34_4 H 0.555485 0.407044 0.262027
H35_4 H 0.558383 0.356639 0.284866
H36_4 H 0.564299 0.339146 0.253491
C70_4 C 0.1086(3) 0.7860(3) 0.37214(13)
H37_4 H 0.101459 0.812473 0.386752
C72_4 C 0.1320(3) 0.7108(3) 0.32974(13)
H40_4 H 0.138142 0.685387 0.314629
C75_4 C 0.2562(3) 0.6650(3) 0.30977(12)
H42_4 H 0.237193 0.688909 0.295221
H43_4 H 0.232618 0.628117 0.312018
C77_4 C 0.2831(3) 0.6817(3) 0.23828(12)
H44_4 H 0.241993 0.697885 0.236057
H45_4 H 0.279768 0.638537 0.241610
C79_4 C 0.3359(3) 0.3065(3) 0.26341(13)
H47_4 H 0.305638 0.274498 0.264732
H48_4 H 0.314179 0.344129 0.260014
C80_4 C 0.2001(3) 0.2901(3) 0.15909(13)
H49_4 H 0.239738 0.280260 0.153683
C81_4 C 0.5363(3) 0.5065(3) 0.18133(14)
H50_4 H 0.547322 0.517562 0.199941
H51_4 H 0.557456 0.470087 0.176241
H52_4 H 0.547611 0.538522 0.168892
C82_4 C 0.1497(3) 0.2687(3) 0.14442(13)
H53_4 H 0.157083 0.244402 0.129028
C83_4 C 0.5165(2) 0.5496(3) 0.32666(13)
H54_4 H 0.531520 0.550001 0.307970
H55_4 H 0.526450 0.587226 0.335536
H56_4 H 0.535243 0.516849 0.336660
C84_4 C 0.0361(3) 0.8028(3) 0.07597(14)
H57_4 H 0.021670 0.768160 0.067165
C86_4 C 0.3250(3) 0.4717(3) 0.16092(13)
H58_4 H 0.305851 0.476199 0.178935
H59_4 H 0.292885 0.463168 0.147511
C87_4 C 0.3173(2) 0.3245(3) 0.18990(14)
H60_4 H 0.318003 0.326512 0.169812
H61_4 H 0.319776 0.282297 0.195377
C88_4 C 0.1292(3) 0.3392(3) 0.18894(13)
H62_4 H 0.119934 0.363304 0.204159
C91_4 C 0.1675(3) 0.7669(3) 0.36790(13)
H65_4 H 0.198922 0.780522 0.379396
C92_4 C 0.0818(3) 0.8978(3) 0.07003(13)
C94_4 C 0.0745(3) 0.7323(3) 0.33571(14)
H69_4 H 0.042404 0.720352 0.324230
C98_4 C 0.1258(3) 0.3048(4) 0.36368(15)
H74_4 H 0.127679 0.296715 0.382586
C100_4 C 0.1010(3) 0.6478(3) 0.18875(14)
H77_4 H 0.097387 0.634698 0.207000
C101_4 C 0.1552(3) 0.6558(4) 0.14764(13)
H78_4 H 0.189070 0.647042 0.136674
C103_4 C 0.1074(3) 0.6901(4) 0.13693(14)
H79_4 H 0.110856 0.705171 0.118998
C105_4 C 0.0615(3) 0.8468(3) 0.05950(14)
H83_4 H 0.064287 0.840296 0.040497
C110_4 C 0.1742(3) 0.3349(3) 0.35138(14)
H92_4 H 0.207852 0.346497 0.362016
C118_4 C 0.0605(5) 0.8514(4) 0.11353(17)
H102_4 H 0.064744 0.852445 0.132715
C119_4 C 0.0860(5) 0.8986(4) 0.09802(18)
H103_4 H 0.105684 0.930495 0.106932
N12_4 N 0.5056(2) 0.8244(2) 0.11009(12)
C172_4 C 0.4598(3) 0.8343(3) 0.09295(16)
H147_4 H 0.445161 0.802210 0.082358
C174_4 C 0.5284(4) 0.8729(3) 0.12311(16)
H150_4 H 0.562964 0.867567 0.134161
C175_4 C 0.4560(3) 0.9390(3) 0.10496(14)
C176_4 C 0.4317(3) 0.8913(4) 0.08991(16)
H151_4 H 0.398174 0.896710 0.078224
H152_4 H 0.334219 0.983483 0.081778
H153_4 H 0.386462 0.980593 0.059024
C180_4 C 0.5045(4) 0.9290(4) 0.12129(16)
H156_4 H 0.521659 0.960583 0.131375
N22_2 N 0.5350(2) 0.6738(2) 0.09506(12)
C112_4 C 0.0402(3) 0.8343(3) 0.90705(16)
H95_4 H 0.054839 0.802210 0.917642
C115_4 C 0.0440(3) 0.9390(3) 0.89504(14)
C116_4 C 0.0683(3) 0.8913(4) 0.91009(16)
H99_4 H 0.101826 0.896710 0.921776
H100_4 H 0.165781 0.983483 0.918222
H101_4 H 0.113538 0.980593 0.940976
S11_4 S 0.38542(11) 0.95495(9) 0.95096(4)
N11_4 N 0.4693(2) 0.8051(2) 0.89775(12)
C162_4 C 0.4639(3) 0.8028(3) 0.92403(14)
H135_4 H 0.478330 0.768160 0.932835
C165_4 C 0.4182(3) 0.8978(3) 0.92997(13)
C169_4 C 0.4385(3) 0.8468(3) 0.94050(14)
H141_4 H 0.435713 0.840296 0.959503
C178_4 C 0.4395(5) 0.8514(4) 0.88647(17)
H154_4 H 0.435256 0.852445 0.867285
C179_4 C 0.4140(5) 0.8986(4) 0.90198(18)
H155_4 H 0.394316 0.930495 0.893068
S13_4 S 0.25314(7) 0.35800(8) 0.79703(4)
S14_4 S 0.28854(7) 0.59260(8) 0.81024(4)
S15_4 S 0.26849(7) 0.38667(9) 0.69326(4)
S16_4 S 0.24355(8) 0.70722(10) 0.65818(4)
O25_4 O 0.13377(17) 0.42206(17) 0.83818(8)
O26_4 O 0.14587(17) 0.52651(18) 0.84627(8)
O27_4 O 0.15906(17) 0.48206(17) 0.65295(8)
O28_4 O 0.12499(18) 0.29442(17) 0.75954(9)
O29_4 O 0.18260(18) 0.69210(17) 0.78629(8)
O30_4 O 0.17075(17) 0.58685(18) 0.65853(8)
O31_4 O 0.13289(17) 0.31100(17) 0.71123(8)
O32_4 O 0.18734(18) 0.71030(17) 0.73846(8)
N13_4 N 0.4427(2) 0.7023(2) 0.84899(10)
C181_4 C 0.0409(2) 0.4487(2) 0.70369(11)
H157_4 H 0.005345 0.465751 0.710879
C182_4 C 0.0517(2) 0.3754(2) 0.76344(11)
C183_4 C 0.0709(2) 0.5508(2) 0.81126(11)
C184_4 C 0.1263(2) 0.4541(2) 0.67361(11)
C185_4 C 0.0730(2) 0.4804(2) 0.68378(11)
C186_4 C 0.0527(2) 0.5411(2) 0.67365(11)
H158_4 H 0.066704 0.544886 0.654434
C187_4 C 0.0885(2) 0.6372(2) 0.78143(11)
C188_4 C 0.0939(2) 0.6549(2) 0.73078(11)
C189_4 C 0.0557(2) 0.4416(2) 0.80365(11)
C190_4 C 0.0685(2) 0.6789(2) 0.75794(11)
H159_4 H 0.087758 0.718297 0.761278
C191_4 C 0.0596(2) 0.3922(2) 0.71350(11)
C192_4 C 0.0518(2) 0.5889(2) 0.79026(11)
H160_4 H 0.013990 0.582360 0.781834
C193_4 C 0.0301(2) 0.4240(2) 0.77865(11)
C194_4 C 0.0243(2) 0.3583(2) 0.73546(12)
H162_4 H 0.032804 0.315192 0.732669
C195_4 C 0.1070(2) 0.4087(3) 0.81283(11)
C196_4 C 0.1024(2) 0.3440(2) 0.77391(12)
C197_4 C 0.0862(2) 0.5895(2) 0.69040(11)
C198_4 C 0.0620(2) 0.6142(2) 0.71442(11)
H163_4 H 0.022682 0.602844 0.719761
C199_4 C 0.1443(2) 0.6447(2) 0.79404(11)
C200_4 C 0.0336(2) 0.4959(2) 0.82040(12)
H164_4 H 0.043737 0.488054 0.839882
C201_4 C 0.1264(2) 0.5617(2) 0.82378(11)
C202_4 C 0.1135(2) 0.3681(2) 0.70304(12)
C203_4 C 0.1651(2) 0.6085(3) 0.81527(11)
C204_4 C 0.1298(2) 0.3590(2) 0.79826(12)
C205_4 C 0.1472(2) 0.3989(2) 0.68294(12)
C206_4 C 0.3103(3) 0.3265(3) 0.81804(12)
C207_4 C 0.1787(2) 0.6497(3) 0.69814(11)
C208_4 C 0.4240(3) 0.2990(3) 0.67704(14)
H165_4 H 0.457831 0.286115 0.687269
C209_4 C 0.4161(3) 0.3152(3) 0.82728(13)
H166_4 H 0.456439 0.324053 0.822513
C210_4 C 0.3272(2) 0.3475(3) 0.67604(12)
C211_4 C 0.1528(3) 0.6711(2) 0.72188(12)
C212_4 C 0.3474(2) 0.6349(3) 0.82577(12)
C213_4 C 0.2234(2) 0.6209(3) 0.83015(12)
H167_4 H 0.227831 0.664171 0.833001
H168_4 H 0.222655 0.601497 0.848179
C214_4 C 0.1450(3) 0.6082(2) 0.68274(11)
C215_4 C 0.3784(3) 0.3295(3) 0.69099(13)
H169_4 H 0.381860 0.337695 0.709837
C216_4 C 0.0004(3) 0.6893(3) 0.75665(13)
C217_4 C 0.3198(2) 0.7274(3) 0.65351(12)
C218_4 C 0.2038(2) 0.3709(3) 0.67092(13)
H173_4 H 0.198221 0.327488 0.669211
H174_4 H 0.211248 0.387290 0.652585
C219_4 C 0.4456(3) 0.6798(3) 0.82326(14)
H175_4 H 0.481100 0.686351 0.813044
C220_4 C 0.1996(3) 0.5290(3) 0.66128(13)
H176_4 H 0.211817 0.522830 0.680424
H177_4 H 0.236261 0.527897 0.649923
C222_4 C 0.3914(3) 0.7860(3) 0.62786(13)
H181_4 H 0.398541 0.812473 0.613248
C223_4 C 0.3680(3) 0.7108(3) 0.67026(13)
H182_4 H 0.361858 0.685387 0.685371
C224_4 C 0.2438(3) 0.6650(3) 0.69023(12)
H183_4 H 0.262807 0.688909 0.704779
H184_4 H 0.267382 0.628117 0.687982
C225_4 C 0.2169(3) 0.6817(3) 0.76172(12)
H185_4 H 0.258007 0.697885 0.763943
H186_4 H 0.220232 0.638537 0.758390
C226_4 C 0.1641(3) 0.3065(3) 0.73659(13)
H187_4 H 0.194362 0.274498 0.735268
H188_4 H 0.185821 0.344129 0.739986
C227_4 C 0.2999(3) 0.2901(3) 0.84091(13)
H189_4 H 0.260262 0.280260 0.846317
C229_4 C 0.3503(3) 0.2687(3) 0.85558(13)
H193_4 H 0.342917 0.244402 0.870972
C231_4 C 0.1750(3) 0.4717(3) 0.83908(13)
H197_4 H 0.194149 0.476199 0.821065
H198_4 H 0.207115 0.463168 0.852489
C232_4 C 0.1827(2) 0.3245(3) 0.81010(14)
H199_4 H 0.181997 0.326512 0.830188
H200_4 H 0.180224 0.282297 0.804623
C233_4 C 0.3708(3) 0.3392(3) 0.81106(13)
H201_4 H 0.380066 0.363304 0.795841
C234_4 C 0.3325(3) 0.7669(3) 0.63210(13)
H202_4 H 0.301078 0.780522 0.620604
C235_4 C 0.4255(3) 0.7323(3) 0.66429(14)
H203_4 H 0.457596 0.720352 0.675770
C236_4 C 0.3742(3) 0.3048(4) 0.63632(15)
H204_4 H 0.372321 0.296715 0.617414
C237_4 C 0.3990(3) 0.6478(3) 0.81125(14)
H205_4 H 0.402613 0.634698 0.793000
C238_4 C 0.3448(3) 0.6558(4) 0.85236(13)
H206_4 H 0.310930 0.647042 0.863326
C239_4 C 0.3926(3) 0.6901(4) 0.86307(14)
H207_4 H 0.389144 0.705171 0.881002
C240_4 C 0.3258(3) 0.3349(3) 0.64862(14)
H208_4 H 0.292148 0.346497 0.637984
N17_2 N 0.5512(2) 0.6749(2) 0.89453(10)
S5_4 S 0.85198(9) 0.51817(8) 0.06235(4)
O5_4 O 0.76438(18) 0.39571(18) 0.09569(8)
O11_4 O 0.94457(16) 0.39578(19) 0.04071(8)
N2_4 N 0.9488(2) 0.6749(2) 0.10547(10)
C12_4 C 0.8185(2) 0.2866(2) 0.04429(11)
H4_4 H 0.807009 0.249647 0.036687
C13_4 C 0.7987(3) 0.3678(2) 0.07505(11)
C15_4 C 0.8735(2) 0.3123(3) 0.03589(11)
C21_4 C 0.8534(3) 0.3956(2) 0.06777(11)
C25_4 C 0.7803(2) 0.3134(2) 0.06340(11)
C38_4 C 0.8885(3) 0.3691(3) 0.04774(12)
C49_4 C 0.8900(3) 0.5766(3) 0.07953(12)
C54_4 C 0.9272(3) 0.5695(3) 0.10269(12)
H19_4 H 0.932989 0.531256 0.110299
C56_4 C 0.9550(3) 0.6181(3) 0.11421(13)
H20_4 H 0.980364 0.611325 0.129426
C59_4 C 0.8748(3) 0.4528(2) 0.08191(12)
H22_4 H 0.857435 0.454897 0.100364
H23_4 H 0.919150 0.452078 0.083711
C62_4 C 0.9136(3) 0.2843(3) 0.01405(12)
H25_4 H 0.955561 0.297834 0.017810
C89_4 C 0.9463(3) 0.4283(3) 0.01576(13)
H63_4 H 0.905458 0.443223 0.011589
H64_4 H 0.973048 0.463001 0.018033
C104_4 C 0.9144(3) 0.2160(3) 0.01506(14)
H80_4 H 0.874165 0.200713 0.010856
H81_4 H 0.943093 0.200850 0.001697
H82_4 H 0.926344 0.202888 0.033267
C108_4 C 0.8827(3) 0.6358(3) 0.06998(15)
H90_4 H 0.858237 0.643917 0.054609
C109_4 C 0.9119(3) 0.6810(3) 0.08349(15)
H91_4 H 0.905633 0.720016 0.076858
S9_4 S 0.60499(8) 0.51432(8) 0.04449(4)
O18_4 O 0.65824(18) 0.39373(19) 0.08708(8)
O20_4 O 0.53271(16) 0.3931(2) 0.00689(9)
C125_4 C 0.6496(2) 0.2862(2) 0.03005(11)
H106_4 H 0.667770 0.250172 0.024473
C126_4 C 0.6688(2) 0.3122(3) 0.05463(12)
C129_4 C 0.7200(2) 0.2853(3) 0.07196(11)
H107_4 H 0.712571 0.298389 0.091070
C130_4 C 0.6048(2) 0.3110(3) 0.01345(12)
C132_4 C 0.6418(3) 0.3664(3) 0.06239(12)
C134_4 C 0.5954(2) 0.3923(3) 0.04703(12)
C137_4 C 0.5788(3) 0.3651(3) 0.02254(13)
C139_4 C 0.7124(3) 0.4294(3) 0.08653(14)
H113_4 H 0.719387 0.443635 0.067787
H114_4 H 0.707046 0.464449 0.098370
C140_4 C 0.5773(3) 0.5744(3) 0.06494(13)
C141_4 C 0.5641(3) 0.6793(3) 0.07103(14)
H115_4 H 0.569730 0.718206 0.064160
C142_4 C 0.5267(3) 0.6167(3) 0.10374(14)
H116_4 H 0.505850 0.610991 0.120327
C144_4 C 0.5866(3) 0.6319(3) 0.05546(14)
H119_4 H 0.607487 0.638903 0.038998
C145_4 C 0.5466(3) 0.5665(3) 0.09006(13)
H120_4 H 0.539934 0.528069 0.097258
C146_4 C 0.5651(3) 0.4488(3) 0.05788(14)
H121_4 H 0.522469 0.449759 0.052081
H122_4 H 0.566420 0.448974 0.077983
C148_4 C 0.7203(3) 0.2160(3) 0.07245(14)
H126_4 H 0.729474 0.200926 0.054268
H127_4 H 0.750858 0.202087 0.085323
H128_4 H 0.680713 0.201519 0.078085
S4_4 S 0.89501(8) 0.51432(8) 0.95551(4)
O10_4 O 0.84176(18) 0.39373(19) 0.91292(8)
O12_4 O 0.96729(16) 0.3931(2) 0.99311(9)
N6_4 N 0.9650(2) 0.6738(2) 0.90494(12)
N8_4 N 0.9944(2) 0.8244(2) 0.88991(12)
C22_4 C 0.8504(2) 0.2862(2) 0.96995(11)
H8_4 H 0.832230 0.250172 0.975527
C24_4 C 0.8312(2) 0.3122(3) 0.94537(12)
C40_4 C 0.7800(2) 0.2853(3) 0.92804(11)
H13_4 H 0.787429 0.298389 0.908930
C41_4 C 0.8952(2) 0.3110(3) 0.98655(12)
C53_4 C 0.8582(3) 0.3664(3) 0.93761(12)
C55_4 C 0.9046(2) 0.3923(3) 0.95297(12)
C61_4 C 0.9212(3) 0.3651(3) 0.97746(13)
C71_4 C 0.7876(3) 0.4294(3) 0.91347(14)
H38_4 H 0.780613 0.443635 0.932213
H39_4 H 0.792954 0.464449 0.901630
C73_4 C 0.9227(3) 0.5744(3) 0.93506(13)
C74_4 C 0.9359(3) 0.6793(3) 0.92897(14)
H41_4 H 0.930270 0.718206 0.935840
C78_4 C 0.9733(3) 0.6167(3) 0.89626(14)
H46_4 H 0.994150 0.610991 0.879673
C95_4 C 0.9134(3) 0.6319(3) 0.94454(14)
H70_4 H 0.892513 0.638903 0.961002
C96_4 C 0.9534(3) 0.5665(3) 0.90994(13)
H71_4 H 0.960066 0.528069 0.902742
C97_4 C 0.9349(3) 0.4488(3) 0.94212(14)
H72_4 H 0.977531 0.449759 0.947919
H73_4 H 0.933580 0.448974 0.922017
C106_4 C 0.7797(3) 0.2160(3) 0.92755(14)
H84_4 H 0.770526 0.200926 0.945732
H85_4 H 0.749142 0.202087 0.914677
H86_4 H 0.819287 0.201519 0.921915
C114_4 C 0.9716(4) 0.8729(3) 0.87689(16)
H98_4 H 0.937036 0.867567 0.865839
C120_4 C 0.9955(4) 0.9290(4) 0.87871(16)
H104_4 H 0.978341 0.960583 0.868625
S10_4 S 0.64802(9) 0.51817(8) 0.93765(4)
O17_4 O 0.73562(18) 0.39571(18) 0.90431(8)
O19_4 O 0.55543(16) 0.39578(19) 0.95929(8)
C121_4 C 0.6815(2) 0.2866(2) 0.95571(11)
H105_4 H 0.692991 0.249647 0.963313
C122_4 C 0.7013(3) 0.3678(2) 0.92495(11)
C123_4 C 0.6265(2) 0.3123(3) 0.96411(11)
C124_4 C 0.6466(3) 0.3956(2) 0.93223(11)
C127_4 C 0.7197(2) 0.3134(2) 0.93660(11)
C128_4 C 0.6115(3) 0.3691(3) 0.95226(12)
C131_4 C 0.6100(3) 0.5766(3) 0.92047(12)
C133_4 C 0.5728(3) 0.5695(3) 0.89731(12)
H108_4 H 0.567011 0.531256 0.889701
C135_4 C 0.5450(3) 0.6181(3) 0.88579(13)
H109_4 H 0.519636 0.611325 0.870574
C136_4 C 0.6252(3) 0.4528(2) 0.91809(12)
H110_4 H 0.642565 0.454897 0.899636
H111_4 H 0.580850 0.452078 0.916289
C138_4 C 0.5864(3) 0.2843(3) 0.98595(12)
H112_4 H 0.544439 0.297834 0.982190
C143_4 C 0.5537(3) 0.4283(3) 0.98424(13)
H117_4 H 0.594542 0.443223 0.988411
H118_4 H 0.526952 0.463001 0.981967
C147_4 C 0.5856(3) 0.2160(3) 0.98494(14)
H123_4 H 0.625835 0.200713 0.989144
H124_4 H 0.556907 0.200850 0.998303
H125_4 H 0.573656 0.202888 0.966733
C149_4 C 0.6173(3) 0.6358(3) 0.93002(15)
H129_4 H 0.641763 0.643917 0.945391
C150_4 C 0.5881(3) 0.6810(3) 0.91651(15)
H130_4 H 0.594367 0.720016 0.923142
H161_4 H 0.996906 0.445848 0.771741
H170_4 H 0.987384 0.709834 0.773142
H171_4 H 0.990756 0.713550 0.740727
H172_4 H 0.979705 0.651053 0.755264
C221_4 C 0.9552(2) 0.3660(3) 0.73360(13)
H178_4 H 0.944515 0.407044 0.737973
H179_4 H 0.941617 0.356639 0.715134
H180_4 H 0.935701 0.339146 0.746509
C228_4 C 0.9637(3) 0.5065(3) 0.81867(14)
H190_4 H 0.952678 0.517562 0.800059
H191_4 H 0.942544 0.470087 0.823759
H192_4 H 0.952389 0.538522 0.831108
C230_4 C 0.9835(2) 0.5496(3) 0.67334(13)
H194_4 H 0.968480 0.550001 0.692030
H195_4 H 0.973550 0.587226 0.664464
H196_4 H 0.964757 0.516849 0.663340
S8_3 S 0.92974(14) 0.98471(11) 0.10206(5)
O14_3 O 0.7732(2) 0.9189(2) 0.09802(9)
O16_3 O 0.94225(19) 0.9274(2) 0.03649(10)
C18_3 C 0.7873(2) 0.8382(3) 0.06498(11)
C32_3 C 0.8223(2) 0.8129(3) 0.04388(12)
H11_3 H 0.810377 0.776091 0.036212
C37_3 C 0.8745(2) 0.8412(3) 0.03405(12)
C60_3 C 0.9124(2) 0.8156(3) 0.01053(13)
H24_3 H 0.954569 0.829923 0.013300
C69_3 C 0.8052(3) 0.8934(3) 0.07599(12)
C90_3 C 0.8905(3) 0.8967(3) 0.04561(13)
C99_3 C 0.7199(4) 0.9518(3) 0.09107(15)
H75_3 H 0.724452 0.968424 0.072588
H76_3 H 0.715429 0.985343 0.103873
C102_3 C 0.8568(3) 0.9246(3) 0.06626(14)
C107_3 C 0.9149(3) 0.7464(3) 0.01007(14)
H87_3 H 0.873923 0.730480 0.010654
H88_3 H 0.937544 0.732169 0.025865
C111_3 C 0.9352(4) 0.9591(3) 0.01177(15)
H93_3 H 0.956750 0.997411 0.013178
H94_3 H 0.892044 0.967832 0.008900
C117_3 C 0.8705(3) 0.9966(4) 0.07459(15)
O21_3 O 0.6663(2) 0.9159(2) 0.09191(8)
O23_3 O 0.54231(19) 0.9268(2) 0.01129(10)
C152_3 C 0.6099(2) 0.8421(3) 0.01702(11)
C154_3 C 0.6543(2) 0.8136(3) 0.03294(12)
H132_3 H 0.670712 0.777239 0.026725
C155_3 C 0.6754(2) 0.8377(3) 0.05804(12)
C157_3 C 0.7271(2) 0.8088(3) 0.07439(12)
H133_3 H 0.721152 0.819773 0.093883
C158_3 C 0.6488(3) 0.8914(3) 0.06662(12)
C161_3 C 0.5869(3) 0.8969(3) 0.02667(13)
C163_3 C 0.6043(3) 0.9203(3) 0.05153(13)
C166_3 C 0.7283(3) 0.7403(3) 0.07290(14)
H136_3 H 0.736520 0.727878 0.054205
H137_3 H 0.689304 0.724525 0.078603
H138_3 H 0.759863 0.725099 0.084951
H144_3 H 0.565332 0.733108 0.006610
C173_3 C 0.5767(3) 0.9787(3) 0.06265(15)
H148_3 H 0.579893 0.978889 0.082710
H149_3 H 0.533565 0.980221 0.057783
O13_3 O 0.8337(2) 0.9159(2) 0.90809(8)
O15_3 O 0.95769(19) 0.9268(2) 0.98871(10)
C30_3 C 0.8901(2) 0.8421(3) 0.98298(11)
C35_3 C 0.8457(2) 0.8136(3) 0.96706(12)
H12_3 H 0.829288 0.777239 0.973275
C36_3 C 0.8246(2) 0.8377(3) 0.94196(12)
C42_3 C 0.7729(2) 0.8088(3) 0.92561(12)
H14_3 H 0.778848 0.819773 0.906117
C46_3 C 0.8512(3) 0.8914(3) 0.93338(12)
C76_3 C 0.9131(3) 0.8969(3) 0.97333(13)
C85_3 C 0.8957(3) 0.9203(3) 0.94847(13)
C93_3 C 0.7717(3) 0.7403(3) 0.92710(14)
H66_3 H 0.763480 0.727878 0.945795
H67_3 H 0.810696 0.724525 0.921397
H68_3 H 0.740137 0.725099 0.915049
H89_3 H 0.934668 0.733108 0.993390
C113_3 C 0.9233(3) 0.9787(3) 0.93735(15)
H96_3 H 0.920107 0.978889 0.917290
H97_3 H 0.966435 0.980221 0.942217
S12_3 S 0.57026(14) 0.98471(11) 0.89794(5)
O22_3 O 0.7268(2) 0.9189(2) 0.90198(9)
O24_3 O 0.55775(19) 0.9274(2) 0.96351(10)
C151_3 C 0.7127(2) 0.8382(3) 0.93502(11)
C153_3 C 0.6777(2) 0.8129(3) 0.95612(12)
H131_3 H 0.689623 0.776091 0.963788
C156_3 C 0.6255(2) 0.8412(3) 0.96595(12)
C159_3 C 0.5876(2) 0.8156(3) 0.98947(13)
H134_3 H 0.545431 0.829923 0.986700
C160_3 C 0.6948(3) 0.8934(3) 0.92401(12)
C164_3 C 0.6095(3) 0.8967(3) 0.95439(13)
C167_3 C 0.7801(4) 0.9518(3) 0.90893(15)
H139_3 H 0.775548 0.968424 0.927412
H140_3 H 0.784571 0.985343 0.896127
C168_3 C 0.6432(3) 0.9246(3) 0.93374(14)
C170_3 C 0.5851(3) 0.7464(3) 0.98993(14)
H142_3 H 0.626077 0.730480 0.989346
H143_3 H 0.562456 0.732169 0.974135
C171_3 C 0.5648(4) 0.9591(3) 0.98823(15)
H145_3 H 0.543250 0.997411 0.986822
H146_3 H 0.607956 0.967832 0.991100
C177_3 C 0.6295(3) 0.9966(4) 0.92541(15)
O13_4 O 0.1663(2) 0.0841(2) 0.09191(8)
O15_4 O 0.04231(19) 0.0732(2) 0.01129(10)
C30_4 C 0.1099(2) 0.1579(3) 0.01702(11)
C35_4 C 0.1543(2) 0.1864(3) 0.03294(12)
H12_4 H 0.170712 0.222761 0.026725
C36_4 C 0.1754(2) 0.1623(3) 0.05804(12)
C42_4 C 0.2271(2) 0.1912(3) 0.07439(12)
H14_4 H 0.221152 0.180227 0.093883
C46_4 C 0.1488(3) 0.1086(3) 0.06662(12)
C76_4 C 0.0869(3) 0.1031(3) 0.02667(13)
C85_4 C 0.1043(3) 0.0797(3) 0.05153(13)
C93_4 C 0.2283(3) 0.2597(3) 0.07290(14)
H66_4 H 0.236520 0.272122 0.054205
H67_4 H 0.189304 0.275475 0.078603
H68_4 H 0.259863 0.274901 0.084951
H89_4 H 0.065332 0.266892 0.006610
C113_4 C 0.0767(3) 0.0213(3) 0.06265(15)
H96_4 H 0.079893 0.021111 0.082710
H97_4 H 0.033565 0.019779 0.057783
S12_4 S 0.42974(14) 0.01529(11) 0.10206(5)
O22_4 O 0.2732(2) 0.0811(2) 0.09802(9)
O24_4 O 0.44225(19) 0.0726(2) 0.03649(10)
C151_4 C 0.2873(2) 0.1618(3) 0.06498(11)
C153_4 C 0.3223(2) 0.1871(3) 0.04388(12)
H131_4 H 0.310377 0.223909 0.036212
C156_4 C 0.3745(2) 0.1588(3) 0.03405(12)
C159_4 C 0.4124(2) 0.1844(3) 0.01053(13)
H134_4 H 0.454569 0.170077 0.013300
C160_4 C 0.3052(3) 0.1066(3) 0.07599(12)
C164_4 C 0.3905(3) 0.1033(3) 0.04561(13)
C167_4 C 0.2199(4) 0.0482(3) 0.09107(15)
H139_4 H 0.224452 0.031576 0.072588
H140_4 H 0.215429 0.014657 0.103873
C168_4 C 0.3568(3) 0.0754(3) 0.06626(14)
C170_4 C 0.4149(3) 0.2536(3) 0.01007(14)
H142_4 H 0.373923 0.269520 0.010654
H143_4 H 0.437544 0.267831 0.025865
C171_4 C 0.4352(4) 0.0409(3) 0.01177(15)
H145_4 H 0.456750 0.002589 0.013178
H146_4 H 0.392044 0.032168 0.008900
C177_4 C 0.3705(3) 0.0034(4) 0.07459(15)
S8_4 S 0.07026(14) 0.01529(11) 0.89794(5)
O14_4 O 0.2268(2) 0.0811(2) 0.90198(9)
O16_4 O 0.05775(19) 0.0726(2) 0.96351(10)
C18_4 C 0.2127(2) 0.1618(3) 0.93502(11)
C32_4 C 0.1777(2) 0.1871(3) 0.95612(12)
H11_4 H 0.189623 0.223909 0.963788
C37_4 C 0.1255(2) 0.1588(3) 0.96595(12)
C60_4 C 0.0876(2) 0.1844(3) 0.98947(13)
H24_4 H 0.045431 0.170077 0.986700
C69_4 C 0.1948(3) 0.1066(3) 0.92401(12)
C90_4 C 0.1095(3) 0.1033(3) 0.95439(13)
C99_4 C 0.2801(4) 0.0482(3) 0.90893(15)
H75_4 H 0.275548 0.031576 0.927412
H76_4 H 0.284571 0.014657 0.896127
C102_4 C 0.1432(3) 0.0754(3) 0.93374(14)
C107_4 C 0.0851(3) 0.2536(3) 0.98993(14)
H87_4 H 0.126077 0.269520 0.989346
H88_4 H 0.062456 0.267831 0.974135
C111_4 C 0.0648(4) 0.0409(3) 0.98823(15)
H93_4 H 0.043250 0.002589 0.986822
H94_4 H 0.107956 0.032168 0.991100
C117_4 C 0.1295(3) 0.0034(4) 0.92541(15)
O21_4 O 0.3337(2) 0.0841(2) 0.90809(8)
O23_4 O 0.45769(19) 0.0732(2) 0.98871(10)
C152_4 C 0.3901(2) 0.1579(3) 0.98298(11)
C154_4 C 0.3457(2) 0.1864(3) 0.96706(12)
H132_4 H 0.329288 0.222761 0.973275
C155_4 C 0.3246(2) 0.1623(3) 0.94196(12)
C157_4 C 0.2729(2) 0.1912(3) 0.92561(12)
H133_4 H 0.278848 0.180227 0.906117
C158_4 C 0.3512(3) 0.1086(3) 0.93338(12)
C161_4 C 0.4131(3) 0.1031(3) 0.97333(13)
C163_4 C 0.3957(3) 0.0797(3) 0.94847(13)
C166_4 C 0.2717(3) 0.2597(3) 0.92710(14)
H136_4 H 0.263480 0.272122 0.945795
H137_4 H 0.310696 0.275475 0.921397
H138_4 H 0.240137 0.274901 0.915049
H144_4 H 0.434668 0.266892 0.993390
C173_4 C 0.4233(3) 0.0213(3) 0.93735(15)
H148_4 H 0.420107 0.021111 0.917290
H149_4 H 0.466435 0.019779 0.942217
loop_
_geom_bond_atom_site_label_1
_geom_bond_atom_site_label_2
_geom_bond_site_symmetry_1
_geom_bond_site_symmetry_2
S1 C43 1_555 1_555
S3 C48 1_555 1_555
O1 C19 1_555 1_555
O3 C4 1_555 1_555
O4 C20 1_555 1_555
O5 C13 1_555 1_555
O8 C31 1_555 1_555
O10 C53 1_555 1_555
O11 C38 1_555 1_555
O12 C61 1_555 1_555
N4 C45 1_555 1_555
N5 C47 1_555 1_555
C1 H1 1_555 1_555
C2 C16 1_555 1_555
C4 C5 1_555 1_555
C5 C1 1_555 1_555
C9 C16 1_555 1_555
C11 C1 1_555 1_555
C12 H4 1_555 1_555
C13 C21 1_555 1_555
C15 C12 1_555 1_555
C17 C2 1_555 1_555
H7 C17 1_555 1_555
C19 C9 1_555 1_555
C20 C2 1_555 1_555
C21 C38 1_555 1_555
C22 H8 1_555 1_555
C24 C22 1_555 1_555
C25 C12 1_555 1_555
H10 C28 1_555 1_555
C31 C11 1_555 1_555
C34 C19 1_555 1_555
C38 C15 1_555 1_555
C39 C4 1_555 1_555
C40 C24 1_555 1_555
H13 C40 1_555 1_555
C41 C22 1_555 1_555
C43 C80 1_555 1_555
C45 H15 1_555 1_555
C47 H16 1_555 1_555
C48 C58 1_555 1_555
C53 C24 1_555 1_555
C55 C53 1_555 1_555
C58 C45 1_555 1_555
H21 C58 1_555 1_555
H22 C59 1_555 1_555
H23 C59 1_555 1_555
C61 C41 1_555 1_555
C62 C15 1_555 1_555
H25 C62 1_555 1_555
C65 S3 1_555 1_555
H29 C65 1_555 1_555
H30 C65 1_555 1_555
C71 O10 1_555 1_555
H38 C71 1_555 1_555
H39 C71 1_555 1_555
C79 O4 1_555 1_555
H47 C79 1_555 1_555
H48 C79 1_555 1_555
C80 H49 1_555 1_555
C82 N5 1_555 1_555
H53 C82 1_555 1_555
C86 O1 1_555 1_555
H58 C86 1_555 1_555
H59 C86 1_555 1_555
C87 S1 1_555 1_555
H60 C87 1_555 1_555
H61 C87 1_555 1_555
C88 C43 1_555 1_555
H62 C88 1_555 1_555
C89 O11 1_555 1_555
H63 C89 1_555 1_555
H64 C89 1_555 1_555
H72 C97 1_555 1_555
H73 C97 1_555 1_555
C98 N4 1_555 1_555
H74 C98 1_555 1_555
C104 C62 1_555 1_555
H80 C104 1_555 1_555
H81 C104 1_555 1_555
H82 C104 1_555 1_555
C106 C40 1_555 1_555
H84 C106 1_555 1_555
H85 C106 1_555 1_555
H86 C106 1_555 1_555
C110 C48 1_555 1_555
H92 C110 1_555 1_555
O17 C71 1_555 1_555
O18 C132 1_555 1_555
O19 C128 1_555 1_555
O20 C137 1_555 1_555
C121 H105 1_555 1_555
C122 O17 1_555 1_555
C123 C121 1_555 1_555
C124 C122 1_555 1_555
C125 H106 1_555 1_555
C126 C125 1_555 1_555
C127 C40 1_555 1_555
C128 C123 1_555 1_555
C129 C25 1_555 1_555
H107 C129 1_555 1_555
C130 C125 1_555 1_555
C132 C126 1_555 1_555
C134 C132 1_555 1_555
H110 C136 1_555 1_555
H111 C136 1_555 1_555
C137 C130 1_555 1_555
C138 C123 1_555 1_555
H112 C138 1_555 1_555
C139 O5 1_555 1_555
H113 C139 1_555 1_555
H114 C139 1_555 1_555
C143 O19 1_555 1_555
H117 C143 1_555 1_555
H118 C143 1_555 1_555
H121 C146 1_555 1_555
H122 C146 1_555 1_555
C147 C138 1_555 1_555
H123 C147 1_555 1_555
H124 C147 1_555 1_555
H125 C147 1_555 1_555
C148 C129 1_555 1_555
H126 C148 1_555 1_555
H127 C148 1_555 1_555
H128 C148 1_555 1_555
S13 C206 1_555 1_555
S15 C210 1_555 1_555
O25 C195 1_555 1_555
O27 C184 1_555 1_555
O28 C196 1_555 1_555
O31 C202 1_555 1_555
N14 C208 1_555 1_555
N15 C209 1_555 1_555
C181 H157 1_555 1_555
C182 C193 1_555 1_555
C184 C185 1_555 1_555
C185 C181 1_555 1_555
C189 C193 1_555 1_555
C191 C181 1_555 1_555
C193 H161 1_555 1_555
C194 C182 1_555 1_555
H162 C194 1_555 1_555
C195 C189 1_555 1_555
C196 C182 1_555 1_555
H164 C200 1_555 1_555
C202 C191 1_555 1_555
C204 C195 1_555 1_555
C205 C184 1_555 1_555
C206 C227 1_555 1_555
C208 H165 1_555 1_555
C209 H166 1_555 1_555
C210 C215 1_555 1_555
C215 C208 1_555 1_555
H169 C215 1_555 1_555
C218 S15 1_555 1_555
H173 C218 1_555 1_555
H174 C218 1_555 1_555
C221 C194 1_555 1_555
H178 C221 1_555 1_555
H179 C221 1_555 1_555
H180 C221 1_555 1_555
C226 O28 1_555 1_555
H187 C226 1_555 1_555
H188 C226 1_555 1_555
C227 H189 1_555 1_555
C229 N15 1_555 1_555
H193 C229 1_555 1_555
C231 O25 1_555 1_555
H197 C231 1_555 1_555
H198 C231 1_555 1_555
C232 S13 1_555 1_555
H199 C232 1_555 1_555
H200 C232 1_555 1_555
C233 C206 1_555 1_555
H201 C233 1_555 1_555
C236 N14 1_555 1_555
H204 C236 1_555 1_555
C240 C210 1_555 1_555
H208 C240 1_555 1_555
Cu6 N5 1_555 1_555
Cu7 N15 1_555 1_555
Cu11 N14 1_555 1_555
Cu12 N4 1_555 1_555
O8 C79 1_555 1_555
O12 C89 1_555 1_555
C9 C28 1_555 1_555
C11 C17 1_555 1_555
C13 C25 1_555 1_555
C20 C34 1_555 1_555
C21 C59 1_555 1_555
C31 C39 1_555 1_555
C34 C87 1_555 1_555
C39 C65 1_555 1_555
C41 C62 1_555 1_555
C47 C88 1_555 1_555
C55 C61 1_555 1_555
C55 C97 1_555 1_555
C80 C82 1_555 1_555
C98 C110 1_555 1_555
O18 C139 1_555 1_555
O20 C143 1_555 1_555
C121 C127 1_555 1_555
C122 C127 1_555 1_555
C124 C128 1_555 1_555
C124 C136 1_555 1_555
C126 C129 1_555 1_555
C130 C138 1_555 1_555
C134 C137 1_555 1_555
C134 C146 1_555 1_555
O31 C226 1_555 1_555
C189 C200 1_555 1_555
C191 C194 1_555 1_555
C196 C204 1_555 1_555
C202 C205 1_555 1_555
C204 C232 1_555 1_555
C205 C218 1_555 1_555
C209 C233 1_555 1_555
C227 C229 1_555 1_555
C236 C240 1_555 1_555
Cu1 N6 1_555 1_555
Cu2 N1 1_555 1_555
S2 C51 1_555 1_555
S4 C73 1_555 1_555
S5 C49 1_555 1_555
S6 C64 1_555 1_555
S7 C92 1_555 1_555
S8 C115 1_555 1_555
O2 C29 1_555 1_555
O6 C27 1_555 1_555
O7 C57 1_555 1_555
O9 C50 1_555 1_555
O13 C46 1_555 1_555
O14 C69 1_555 1_555
O15 C76 1_555 1_555
O16 C90 1_555 1_555
N1 C66 1_555 1_555
N2 Cu2 1_555 1_555
N3 Cu2 1_555 1_555
N6 C74 1_555 1_555
N7 C70 1_555 1_555
N8 Cu1 1_555 1_555
C3 C14 1_555 1_555
H2 C6 1_555 1_555
C7 C10 1_555 1_555
C8 C10 1_555 1_555
C10 H3 1_555 1_555
C14 C7 1_555 1_555
H5 C14 1_555 1_555
C18 C32 1_555 1_555
C23 C6 1_555 1_555
C26 C8 1_555 1_555
H9 C26 1_555 1_555
C27 C7 1_555 1_555
C29 C3 1_555 1_555
C30 C35 1_555 1_555
C32 H11 1_555 1_555
C33 C27 1_555 1_555
C35 H12 1_555 1_555
C36 C35 1_555 1_555
C37 C32 1_555 1_555
C42 C36 1_555 1_555
H14 C42 1_555 1_555
C44 C50 1_555 1_555
C46 C36 1_555 1_555
C49 C54 1_555 1_555
C50 C8 1_555 1_555
C51 C100 1_555 1_555
C52 S2 1_555 1_555
H17 C52 1_555 1_555
H18 C52 1_555 1_555
C54 H19 1_555 1_555
C56 N2 1_555 1_555
H20 C56 1_555 1_555
C57 C23 1_555 1_555
C60 C30 1_555 1_555
H24 C60 1_555 1_555
C63 C10 1_555 1_555
C64 C72 1_555 1_555
C66 H31 1_555 1_555
H32 C67 1_555 1_555
H33 C67 1_555 1_555
C69 C18 1_555 1_555
C70 H37 1_555 1_555
C72 H40 1_555 1_555
C73 C95 1_555 1_555
C74 H41 1_555 1_555
C75 S6 1_555 1_555
H42 C75 1_555 1_555
H43 C75 1_555 1_555
C76 C30 1_555 1_555
C77 O6 1_555 1_555
H44 C77 1_555 1_555
H45 C77 1_555 1_555
C78 N6 1_555 1_555
H46 C78 1_555 1_555
C84 N3 1_555 1_555
H57 C84 1_555 1_555
C85 C46 1_555 1_555
C90 C37 1_555 1_555
C91 C64 1_555 1_555
H65 C91 1_555 1_555
C92 C105 1_555 1_555
C93 C42 1_555 1_555
H66 C93 1_555 1_555
H67 C93 1_555 1_555
H68 C93 1_555 1_555
C94 N7 1_555 1_555
H69 C94 1_555 1_555
C95 C74 1_555 1_555
H70 C95 1_555 1_555
C96 C73 1_555 1_555
H71 C96 1_555 1_555
C99 O14 1_555 1_555
H75 C99 1_555 1_555
H76 C99 1_555 1_555
C100 C66 1_555 1_555
H77 C100 1_555 1_555
C101 C51 1_555 1_555
H78 C101 1_555 1_555
C102 C69 1_555 1_555
C103 N1 1_555 1_555
H79 C103 1_555 1_555
C105 C84 1_555 1_555
H83 C105 1_555 1_555
C107 C60 1_555 1_555
H87 C107 1_555 1_555
H88 C107 1_555 1_555
H89 C107 1_555 1_555
C108 C49 1_555 1_555
H90 C108 1_555 1_555
C109 N2 1_555 1_555
H91 C109 1_555 1_555
C111 O15 1_555 1_555
H93 C111 1_555 1_555
H94 C111 1_555 1_555
C112 N8 1_555 1_555
H95 C112 1_555 1_555
C113 S7 1_555 1_555
H96 C113 1_555 1_555
H97 C113 1_555 1_555
C114 N8 1_555 1_555
H98 C114 1_555 1_555
C115 C116 1_555 1_555
C116 C112 1_555 1_555
H99 C116 1_555 1_555
C117 S8 1_555 1_555
H100 C117 1_555 1_555
H101 C117 1_555 1_555
C118 N3 1_555 1_555
H102 C118 1_555 1_555
C119 C92 1_555 1_555
H103 C119 1_555 1_555
C120 C114 1_555 1_555
H104 C120 1_555 1_555
S9 C140 1_555 1_555
S10 C131 1_555 1_555
N9 C135 1_555 1_555
N10 C141 1_555 1_555
C131 C133 1_555 1_555
C133 H108 1_555 1_555
C135 C133 1_555 1_555
H109 C135 1_555 1_555
C140 C144 1_555 1_555
C141 H115 1_555 1_555
C142 N10 1_555 1_555
H116 C142 1_555 1_555
C144 C141 1_555 1_555
H119 C144 1_555 1_555
C145 C140 1_555 1_555
H120 C145 1_555 1_555
C149 C131 1_555 1_555
H129 C149 1_555 1_555
C150 N9 1_555 1_555
H130 C150 1_555 1_555
S11 C165 1_555 1_555
S12 C175 1_555 1_555
O21 C99 1_555 1_555
O22 C160 1_555 1_555
O23 C161 1_555 1_555
O24 C164 1_555 1_555
N11 C162 1_555 1_555
C151 C42 1_555 1_555
C152 C154 1_555 1_555
C153 C151 1_555 1_555
H131 C153 1_555 1_555
C154 H132 1_555 1_555
C155 C154 1_555 1_555
C156 C153 1_555 1_555
C157 C18 1_555 1_555
H133 C157 1_555 1_555
C158 O21 1_555 1_555
C159 C152 1_555 1_555
H134 C159 1_555 1_555
C160 C151 1_555 1_555
C161 C152 1_555 1_555
C162 H135 1_555 1_555
C163 C158 1_555 1_555
C164 C156 1_555 1_555
C165 C169 1_555 1_555
C166 C157 1_555 1_555
H136 C166 1_555 1_555
H137 C166 1_555 1_555
H138 C166 1_555 1_555
C167 O13 1_555 1_555
H139 C167 1_555 1_555
H140 C167 1_555 1_555
C168 C160 1_555 1_555
C169 C162 1_555 1_555
H141 C169 1_555 1_555
C170 C159 1_555 1_555
H142 C170 1_555 1_555
H143 C170 1_555 1_555
H144 C170 1_555 1_555
C171 O23 1_555 1_555
H145 C171 1_555 1_555
H146 C171 1_555 1_555
C172 H147 1_555 1_555
C173 S11 1_555 1_555
H148 C173 1_555 1_555
H149 C173 1_555 1_555
C175 C176 1_555 1_555
C176 C172 1_555 1_555
H151 C176 1_555 1_555
C177 S12 1_555 1_555
H152 C177 1_555 1_555
H153 C177 1_555 1_555
C178 N11 1_555 1_555
H154 C178 1_555 1_555
C179 C165 1_555 1_555
H155 C179 1_555 1_555
S14 C212 1_555 1_555
S16 C217 1_555 1_555
O26 C201 1_555 1_555
O29 C199 1_555 1_555
O30 C214 1_555 1_555
O32 C211 1_555 1_555
N16 C222 1_555 1_555
C183 C192 1_555 1_555
H158 C186 1_555 1_555
C187 C190 1_555 1_555
C188 C190 1_555 1_555
C190 H159 1_555 1_555
C192 C187 1_555 1_555
H160 C192 1_555 1_555
C197 C186 1_555 1_555
C198 C188 1_555 1_555
H163 C198 1_555 1_555
C199 C187 1_555 1_555
C201 C183 1_555 1_555
C203 C199 1_555 1_555
C207 C211 1_555 1_555
C211 C188 1_555 1_555
C212 C237 1_555 1_555
C213 S14 1_555 1_555
H167 C213 1_555 1_555
H168 C213 1_555 1_555
C214 C197 1_555 1_555
C216 C190 1_555 1_555
H170 C216 1_555 1_555
H171 C216 1_555 1_555
H172 C216 1_555 1_555
C217 C223 1_555 1_555
C219 N13 1_555 1_555
H175 C219 1_555 1_555
H176 C220 1_555 1_555
H177 C220 1_555 1_555
C222 H181 1_555 1_555
C223 H182 1_555 1_555
C224 S16 1_555 1_555
H183 C224 1_555 1_555
H184 C224 1_555 1_555
C225 O29 1_555 1_555
H185 C225 1_555 1_555
H186 C225 1_555 1_555
H190 C228 1_555 1_555
H192 C228 1_555 1_555
C230 C186 1_555 1_555
H194 C230 1_555 1_555
H195 C230 1_555 1_555
H196 C230 1_555 1_555
C234 C217 1_555 1_555
H202 C234 1_555 1_555
C235 N16 1_555 1_555
H203 C235 1_555 1_555
C237 C219 1_555 1_555
H205 C237 1_555 1_555
C238 C212 1_555 1_555
H206 C238 1_555 1_555
C239 N13 1_555 1_555
H207 C239 1_555 1_555
Cu5 N10 1_555 1_555
Cu9 N7 1_555 1_555
Cu10 N9 1_555 1_555
N19 Cu2 1_555 1_555
N20 Cu1 1_555 1_555
N24 Cu1 1_555 1_555
O7 C67 1_555 1_555
O9 C77 1_555 1_555
O16 C111 1_555 1_555
C23 C26 1_555 1_555
C29 C33 1_555 1_555
C33 C52 1_555 1_555
C37 C60 1_555 1_555
C44 C57 1_555 1_555
C44 C75 1_555 1_555
C54 C56 1_555 1_555
C70 C91 1_555 1_555
C72 C94 1_555 1_555
C76 C85 1_555 1_555
C78 C96 1_555 1_555
C85 C113 1_555 1_555
C90 C102 1_555 1_555
C101 C103 1_555 1_555
C102 C117 1_555 1_555
C108 C109 1_555 1_555
C115 C120 1_555 1_555
C118 C119 1_555 1_555
C142 C145 1_555 1_555
C149 C150 1_555 1_555
O22 C167 1_555 1_555
O24 C171 1_555 1_555
C155 C157 1_555 1_555
C155 C158 1_555 1_555
C156 C159 1_555 1_555
C161 C163 1_555 1_555
C163 C173 1_555 1_555
C164 C168 1_555 1_555
C168 C177 1_555 1_555
C178 C179 1_555 1_555
O30 C220 1_555 1_555
O32 C225 1_555 1_555
C197 C198 1_555 1_555
C201 C203 1_555 1_555
C203 C213 1_555 1_555
C207 C214 1_555 1_555
C207 C224 1_555 1_555
C222 C234 1_555 1_555
C223 C235 1_555 1_555
C238 C239 1_555 1_555
H34 C68 1_555 1_555
H35 C68 1_555 1_555
H36 C68 1_555 1_555
H50 C81 1_555 1_555
H52 C81 1_555 1_555
H54 C83 1_555 1_555
H55 C83 1_555 1_555
H56 C83 1_555 1_555
C174 N12 1_555 1_555
H150 C174 1_555 1_555
C180 C174 1_555 1_555
H156 C180 1_555 1_555
Cu5 N12 1_555 1_555
N18 Cu10 1_555 1_555
N21 Cu5 1_555 1_555
Cu1_2 N6_2 1_555 1_555
S4_2 C73_2 1_555 1_555
O10_2 C53_2 1_555 1_555
O12_2 C61_2 1_555 1_555
N6_2 C74_2 1_555 1_555
N8_2 Cu1_2 1_555 1_555
C22_2 H8_2 1_555 1_555
C24_2 C22_2 1_555 1_555
C40_2 C24_2 1_555 1_555
H13_2 C40_2 1_555 1_555
C41_2 C22_2 1_555 1_555
C53_2 C24_2 1_555 1_555
C55_2 C53_2 1_555 1_555
C61_2 C41_2 1_555 1_555
C71_2 O10_2 1_555 1_555
H38_2 C71_2 1_555 1_555
H39_2 C71_2 1_555 1_555
C73_2 C95_2 1_555 1_555
C74_2 H41_2 1_555 1_555
C78_2 N6_2 1_555 1_555
H46_2 C78_2 1_555 1_555
C95_2 C74_2 1_555 1_555
H70_2 C95_2 1_555 1_555
C96_2 C73_2 1_555 1_555
H71_2 C96_2 1_555 1_555
C97_2 S4_2 1_555 1_555
H72_2 C97_2 1_555 1_555
H73_2 C97_2 1_555 1_555
C106_2 C40_2 1_555 1_555
H84_2 C106_2 1_555 1_555
H85_2 C106_2 1_555 1_555
H86_2 C106_2 1_555 1_555
C114_2 N8_2 1_555 1_555
H98_2 C114_2 1_555 1_555
C120_2 C114_2 1_555 1_555
H104_2 C120_2 1_555 1_555
S10_2 C131_2 1_555 1_555
O17_2 C71_2 1_555 1_555
O19_2 C128_2 1_555 1_555
N9_2 C135_2 1_555 1_555
C121_2 H105_2 1_555 1_555
C122_2 O17_2 1_555 1_555
C123_2 C121_2 1_555 1_555
C124_2 C122_2 1_555 1_555
C127_2 C40_2 1_555 1_555
C128_2 C123_2 1_555 1_555
C131_2 C133_2 1_555 1_555
C133_2 H108_2 1_555 1_555
C135_2 C133_2 1_555 1_555
H109_2 C135_2 1_555 1_555
C136_2 S10_2 1_555 1_555
H110_2 C136_2 1_555 1_555
H111_2 C136_2 1_555 1_555
C138_2 C123_2 1_555 1_555
H112_2 C138_2 1_555 1_555
C143_2 O19_2 1_555 1_555
H117_2 C143_2 1_555 1_555
H118_2 C143_2 1_555 1_555
C147_2 C138_2 1_555 1_555
H123_2 C147_2 1_555 1_555
H124_2 C147_2 1_555 1_555
H125_2 C147_2 1_555 1_555
C149_2 C131_2 1_555 1_555
H129_2 C149_2 1_555 1_555
C150_2 N9_2 1_555 1_555
H130_2 C150_2 1_555 1_555
H178_2 C221_2 1_555 1_555
H179_2 C221_2 1_555 1_555
H180_2 C221_2 1_555 1_555
H190_2 C228_2 1_555 1_555
H191_2 C228_2 1_555 1_555
H192_2 C228_2 1_555 1_555
H194_2 C230_2 1_555 1_555
H195_2 C230_2 1_555 1_555
H196_2 C230_2 1_555 1_555
Cu12 N9_2 1_555 1_555
N20_2 Cu1_2 1_555 1_555
C55_2 C61_2 1_555 1_555
C55_2 C97_2 1_555 1_555
C78_2 C96_2 1_555 1_555
C121_2 C127_2 1_555 1_555
C122_2 C127_2 1_555 1_555
C124_2 C128_2 1_555 1_555
C124_2 C136_2 1_555 1_555
C149_2 C150_2 1_555 1_555
S5_2 C49_2 1_555 1_555
O5_2 C13_2 1_555 1_555
O11_2 C38_2 1_555 1_555
N2_2 Cu11 1_555 1_555
C12_2 H4_2 1_555 1_555
C13_2 C21_2 1_555 1_555
C15_2 C12_2 1_555 1_555
C21_2 C38_2 1_555 1_555
C25_2 C12_2 1_555 1_555
C38_2 C15_2 1_555 1_555
C49_2 C54_2 1_555 1_555
C54_2 H19_2 1_555 1_555
C56_2 N2_2 1_555 1_555
H20_2 C56_2 1_555 1_555
C59_2 S5_2 1_555 1_555
H22_2 C59_2 1_555 1_555
H23_2 C59_2 1_555 1_555
C62_2 C15_2 1_555 1_555
H25_2 C62_2 1_555 1_555
C89_2 O11_2 1_555 1_555
H63_2 C89_2 1_555 1_555
H64_2 C89_2 1_555 1_555
C104_2 C62_2 1_555 1_555
H80_2 C104_2 1_555 1_555
H81_2 C104_2 1_555 1_555
H82_2 C104_2 1_555 1_555
C108_2 C49_2 1_555 1_555
H90_2 C108_2 1_555 1_555
C109_2 N2_2 1_555 1_555
H91_2 C109_2 1_555 1_555
S9_2 C140_2 1_555 1_555
O18_2 C132_2 1_555 1_555
O20_2 C137_2 1_555 1_555
N10_2 C141_2 1_555 1_555
C125_2 H106_2 1_555 1_555
C126_2 C125_2 1_555 1_555
C129_2 C25_2 1_555 1_555
H107_2 C129_2 1_555 1_555
C130_2 C125_2 1_555 1_555
C132_2 C126_2 1_555 1_555
C134_2 C132_2 1_555 1_555
C137_2 C130_2 1_555 1_555
C139_2 O5_2 1_555 1_555
H113_2 C139_2 1_555 1_555
H114_2 C139_2 1_555 1_555
C140_2 C144_2 1_555 1_555
C141_2 H115_2 1_555 1_555
C142_2 N10_2 1_555 1_555
H116_2 C142_2 1_555 1_555
C144_2 C141_2 1_555 1_555
H119_2 C144_2 1_555 1_555
C145_2 C140_2 1_555 1_555
H120_2 C145_2 1_555 1_555
C146_2 S9_2 1_555 1_555
H121_2 C146_2 1_555 1_555
H122_2 C146_2 1_555 1_555
C148_2 C129_2 1_555 1_555
H126_2 C148_2 1_555 1_555
H127_2 C148_2 1_555 1_555
H128_2 C148_2 1_555 1_555
Cu5_2 N10_2 1_555 1_555
C13_2 C25_2 1_555 1_555
C21_2 C59_2 1_555 1_555
C54_2 C56_2 1_555 1_555
C108_2 C109_2 1_555 1_555
O18_2 C139_2 1_555 1_555
C126_2 C129_2 1_555 1_555
C134_2 C137_2 1_555 1_555
C134_2 C146_2 1_555 1_555
C142_2 C145_2 1_555 1_555
H95_2 C112_2 1_555 1_555
C115_2 C116_2 1_555 1_555
C116_2 C112_2 1_555 1_555
H99_2 C116_2 1_555 1_555
S11_2 C165_2 1_555 1_555
N11_2 C162_2 1_555 1_555
C162_2 H135_2 1_555 1_555
C165_2 C169_2 1_555 1_555
C169_2 C162_2 1_555 1_555
H141_2 C169_2 1_555 1_555
C178_2 N11_2 1_555 1_555
H154_2 C178_2 1_555 1_555
C179_2 C165_2 1_555 1_555
H155_2 C179_2 1_555 1_555
Cu12 N11_2 1_555 1_555
S13_2 C206_2 1_555 1_555
S14_2 C212_2 1_555 1_555
S15_2 C210_2 1_555 1_555
S16_2 C217_2 1_555 1_555
O25_2 C195_2 1_555 1_555
O26_2 C201_2 1_555 1_555
O27_2 C184_2 1_555 1_555
O28_2 C196_2 1_555 1_555
O29_2 C199_2 1_555 1_555
O30_2 C214_2 1_555 1_555
O31_2 C202_2 1_555 1_555
O32_2 C211_2 1_555 1_555
N13_2 Cu12 1_555 1_555
N19 C208_2 1_555 1_555
N15_2 C209_2 1_555 1_555
N16_2 C222_2 1_555 1_555
C181_2 H157_2 1_555 1_555
C182_2 C193_2 1_555 1_555
C183_2 C192_2 1_555 1_555
C184_2 C185_2 1_555 1_555
C185_2 C181_2 1_555 1_555
C186_2 C185_2 1_555 1_555
H158_2 C186_2 1_555 1_555
C187_2 C190_2 1_555 1_555
C188_2 C190_2 1_555 1_555
C189_2 C193_2 1_555 1_555
C190_2 H159_2 1_555 1_555
C191_2 C181_2 1_555 1_555
C192_2 C187_2 1_555 1_555
H160_2 C192_2 1_555 1_555
C194_2 C182_2 1_555 1_555
H162_2 C194_2 1_555 1_555
C195_2 C189_2 1_555 1_555
C196_2 C182_2 1_555 1_555
C197_2 C186_2 1_555 1_555
C198_2 C188_2 1_555 1_555
H163_2 C198_2 1_555 1_555
C199_2 C187_2 1_555 1_555
C200_2 C183_2 1_555 1_555
H164_2 C200_2 1_555 1_555
C201_2 C183_2 1_555 1_555
C202_2 C191_2 1_555 1_555
C203_2 C199_2 1_555 1_555
C204_2 C195_2 1_555 1_555
C205_2 C184_2 1_555 1_555
C206_2 C227_2 1_555 1_555
C207_2 C211_2 1_555 1_555
C208_2 H165_2 1_555 1_555
C209_2 H166_2 1_555 1_555
C210_2 C215_2 1_555 1_555
C211_2 C188_2 1_555 1_555
C212_2 C237_2 1_555 1_555
C213_2 S14_2 1_555 1_555
H167_2 C213_2 1_555 1_555
H168_2 C213_2 1_555 1_555
C214_2 C197_2 1_555 1_555
C215_2 C208_2 1_555 1_555
H169_2 C215_2 1_555 1_555
C216_2 C190_2 1_555 1_555
C217_2 C223_2 1_555 1_555
C218_2 S15_2 1_555 1_555
H173_2 C218_2 1_555 1_555
H174_2 C218_2 1_555 1_555
C219_2 N13_2 1_555 1_555
H175_2 C219_2 1_555 1_555
C220_2 O27_2 1_555 1_555
H176_2 C220_2 1_555 1_555
H177_2 C220_2 1_555 1_555
C222_2 H181_2 1_555 1_555
C223_2 H182_2 1_555 1_555
C224_2 S16_2 1_555 1_555
H183_2 C224_2 1_555 1_555
H184_2 C224_2 1_555 1_555
C225_2 O29_2 1_555 1_555
H185_2 C225_2 1_555 1_555
H186_2 C225_2 1_555 1_555
C226_2 O28_2 1_555 1_555
H187_2 C226_2 1_555 1_555
H188_2 C226_2 1_555 1_555
C227_2 H189_2 1_555 1_555
C229_2 N15_2 1_555 1_555
H193_2 C229_2 1_555 1_555
C231_2 O25_2 1_555 1_555
H197_2 C231_2 1_555 1_555
H198_2 C231_2 1_555 1_555
C232_2 S13_2 1_555 1_555
H199_2 C232_2 1_555 1_555
H200_2 C232_2 1_555 1_555
C233_2 C206_2 1_555 1_555
H201_2 C233_2 1_555 1_555
C234_2 C217_2 1_555 1_555
H202_2 C234_2 1_555 1_555
C235_2 N16_2 1_555 1_555
H203_2 C235_2 1_555 1_555
C236_2 N19 1_555 1_555
H204_2 C236_2 1_555 1_555
C237_2 C219_2 1_555 1_555
H205_2 C237_2 1_555 1_555
C238_2 C212_2 1_555 1_555
H206_2 C238_2 1_555 1_555
C239_2 N13_2 1_555 1_555
H207_2 C239_2 1_555 1_555
C240_2 C210_2 1_555 1_555
H208_2 C240_2 1_555 1_555
Cu9 N15_2 1_555 1_555
Cu6 N16_2 1_555 1_555
C178_2 C179_2 1_555 1_555
O26_2 C231_2 1_555 1_555
O30_2 C220_2 1_555 1_555
O31_2 C226_2 1_555 1_555
O32_2 C225_2 1_555 1_555
C189_2 C200_2 1_555 1_555
C191_2 C194_2 1_555 1_555
C196_2 C204_2 1_555 1_555
C197_2 C198_2 1_555 1_555
C201_2 C203_2 1_555 1_555
C202_2 C205_2 1_555 1_555
C203_2 C213_2 1_555 1_555
C204_2 C232_2 1_555 1_555
C205_2 C218_2 1_555 1_555
C207_2 C214_2 1_555 1_555
C207_2 C224_2 1_555 1_555
C209_2 C233_2 1_555 1_555
C222_2 C234_2 1_555 1_555
C223_2 C235_2 1_555 1_555
C227_2 C229_2 1_555 1_555
C236_2 C240_2 1_555 1_555
C238_2 C239_2 1_555 1_555
S1_2 C43_2 1_555 1_555
S2_2 C51_2 1_555 1_555
S3_2 C48_2 1_555 1_555
S6_2 C64_2 1_555 1_555
S7_2 C92_2 1_555 1_555
O1_2 C19_2 1_555 1_555
O2_2 C29_2 1_555 1_555
O3_2 C4_2 1_555 1_555
O4_2 C20_2 1_555 1_555
O6_2 C27_2 1_555 1_555
O7_2 C57_2 1_555 1_555
O8_2 C31_2 1_555 1_555
O9_2 C50_2 1_555 1_555
N1_2 C66_2 1_555 1_555
N18 C45_2 1_555 1_555
N5_2 C47_2 1_555 1_555
N7_2 C70_2 1_555 1_555
C1_2 H1_2 1_555 1_555
C2_2 C16_2 1_555 1_555
C3_2 C14_2 1_555 1_555
C4_2 C5_2 1_555 1_555
C5_2 C1_2 1_555 1_555
C6_2 C5_2 1_555 1_555
H2_2 C6_2 1_555 1_555
C7_2 C10_2 1_555 1_555
C8_2 C10_2 1_555 1_555
C9_2 C16_2 1_555 1_555
C10_2 H3_2 1_555 1_555
C11_2 C1_2 1_555 1_555
C14_2 C7_2 1_555 1_555
H5_2 C14_2 1_555 1_555
C16_2 H6_2 1_555 1_555
C17_2 C2_2 1_555 1_555
H7_2 C17_2 1_555 1_555
C19_2 C9_2 1_555 1_555
C20_2 C2_2 1_555 1_555
C23_2 C6_2 1_555 1_555
C26_2 C8_2 1_555 1_555
H9_2 C26_2 1_555 1_555
C27_2 C7_2 1_555 1_555
C28_2 C3_2 1_555 1_555
H10_2 C28_2 1_555 1_555
C29_2 C3_2 1_555 1_555
C31_2 C11_2 1_555 1_555
C33_2 C27_2 1_555 1_555
C34_2 C19_2 1_555 1_555
C39_2 C4_2 1_555 1_555
C43_2 C80_2 1_555 1_555
C44_2 C50_2 1_555 1_555
C45_2 H15_2 1_555 1_555
C47_2 H16_2 1_555 1_555
C48_2 C58_2 1_555 1_555
C50_2 C8_2 1_555 1_555
C51_2 C100_2 1_555 1_555
C52_2 S2_2 1_555 1_555
H17_2 C52_2 1_555 1_555
H18_2 C52_2 1_555 1_555
C57_2 C23_2 1_555 1_555
C58_2 C45_2 1_555 1_555
H21_2 C58_2 1_555 1_555
C63_2 C10_2 1_555 1_555
H26_2 C63_2 1_555 1_555
H27_2 C63_2 1_555 1_555
H28_2 C63_2 1_555 1_555
C64_2 C72_2 1_555 1_555
C65_2 S3_2 1_555 1_555
H29_2 C65_2 1_555 1_555
H30_2 C65_2 1_555 1_555
C66_2 H31_2 1_555 1_555
C67_2 O3_2 1_555 1_555
H32_2 C67_2 1_555 1_555
H33_2 C67_2 1_555 1_555
C68_2 C17_2 1_555 1_555
H34_2 C68_2 1_555 1_555
H35_2 C68_2 1_555 1_555
H36_2 C68_2 1_555 1_555
C70_2 H37_2 1_555 1_555
C72_2 H40_2 1_555 1_555
C75_2 S6_2 1_555 1_555
H42_2 C75_2 1_555 1_555
H43_2 C75_2 1_555 1_555
C77_2 O6_2 1_555 1_555
H44_2 C77_2 1_555 1_555
H45_2 C77_2 1_555 1_555
C79_2 O4_2 1_555 1_555
H47_2 C79_2 1_555 1_555
H48_2 C79_2 1_555 1_555
C80_2 H49_2 1_555 1_555
C81_2 C28_2 1_555 1_555
H50_2 C81_2 1_555 1_555
H51_2 C81_2 1_555 1_555
H52_2 C81_2 1_555 1_555
C82_2 N5_2 1_555 1_555
H53_2 C82_2 1_555 1_555
C83_2 C6_2 1_555 1_555
H54_2 C83_2 1_555 1_555
H55_2 C83_2 1_555 1_555
H56_2 C83_2 1_555 1_555
C84_2 N3_2 1_555 1_555
H57_2 C84_2 1_555 1_555
C86_2 O1_2 1_555 1_555
H58_2 C86_2 1_555 1_555
H59_2 C86_2 1_555 1_555
C87_2 S1_2 1_555 1_555
H60_2 C87_2 1_555 1_555
H61_2 C87_2 1_555 1_555
C88_2 C43_2 1_555 1_555
H62_2 C88_2 1_555 1_555
C91_2 C64_2 1_555 1_555
H65_2 C91_2 1_555 1_555
C92_2 C105_2 1_555 1_555
C94_2 N7_2 1_555 1_555
H69_2 C94_2 1_555 1_555
C98_2 N18 1_555 1_555
H74_2 C98_2 1_555 1_555
C100_2 C66_2 1_555 1_555
H77_2 C100_2 1_555 1_555
C101_2 C51_2 1_555 1_555
H78_2 C101_2 1_555 1_555
C103_2 N1_2 1_555 1_555
H79_2 C103_2 1_555 1_555
C105_2 C84_2 1_555 1_555
H83_2 C105_2 1_555 1_555
C110_2 C48_2 1_555 1_555
H92_2 C110_2 1_555 1_555
C118_2 N3_2 1_555 1_555
H102_2 C118_2 1_555 1_555
C119_2 C92_2 1_555 1_555
H103_2 C119_2 1_555 1_555
N12_2 C172_2 1_555 1_555
C172_2 H147_2 1_555 1_555
C174_2 N12_2 1_555 1_555
H150_2 C174_2 1_555 1_555
C175_2 C176_2 1_555 1_555
C176_2 C172_2 1_555 1_555
H151_2 C176_2 1_555 1_555
C180_2 C174_2 1_555 1_555
H156_2 C180_2 1_555 1_555
Cu5_2 N12_2 1_555 1_555
Cu8 N5_2 1_555 1_555
N21_2 Cu5_2 1_555 1_555
N23_2 Cu5_2 1_555 1_555
O2_2 C86_2 1_555 1_555
O7_2 C67_2 1_555 1_555
O8_2 C79_2 1_555 1_555
O9_2 C77_2 1_555 1_555
C9_2 C28_2 1_555 1_555
C11_2 C17_2 1_555 1_555
C20_2 C34_2 1_555 1_555
C23_2 C26_2 1_555 1_555
C29_2 C33_2 1_555 1_555
C31_2 C39_2 1_555 1_555
C33_2 C52_2 1_555 1_555
C34_2 C87_2 1_555 1_555
C39_2 C65_2 1_555 1_555
C44_2 C57_2 1_555 1_555
C44_2 C75_2 1_555 1_555
C47_2 C88_2 1_555 1_555
C70_2 C91_2 1_555 1_555
C72_2 C94_2 1_555 1_555
C80_2 C82_2 1_555 1_555
C98_2 C110_2 1_555 1_555
C101_2 C103_2 1_555 1_555
C118_2 C119_2 1_555 1_555
C175_2 C180_2 1_555 1_555
H50_3 C81_3 1_555 1_555
H52_3 C81_3 1_555 1_555
H54_3 C83_3 1_555 1_555
H55_3 C83_3 1_555 1_555
H56_3 C83_3 1_555 1_555
C174_3 N12_3 1_555 1_555
H150_3 C174_3 1_555 1_555
C180_3 C174_3 1_555 1_555
H156_3 C180_3 1_555 1_555
Cu7 N12_3 1_555 1_555
N17 Cu4 1_555 1_555
N18_2 Cu4 1_555 1_555
N22 Cu7 1_555 1_555
H34_3 C68_3 1_555 1_555
H35_3 C68_3 1_555 1_555
H36_3 C68_3 1_555 1_555
Cu6 N6_3 1_555 1_555
Cu2_2 N1_3 1_555 1_555
S2_3 C51_3 1_555 1_555
S4_3 C73_3 1_555 1_555
S5_3 C49_3 1_555 1_555
S6_3 C64_3 1_555 1_555
S7_3 C92_3 1_555 1_555
S8_2 C115_3 1_555 1_555
O2_3 C29_3 1_555 1_555
O6_3 C27_3 1_555 1_555
O7_3 C57_3 1_555 1_555
O9_3 C50_3 1_555 1_555
O13_2 C46_2 1_555 1_555
O14_2 C69_2 1_555 1_555
O15_2 C76_2 1_555 1_555
O16_2 C90_2 1_555 1_555
N1_3 C66_3 1_555 1_555
N2_3 Cu2_2 1_555 1_555
N3_3 Cu2_2 1_555 1_555
N6_3 C74_3 1_555 1_555
N23_2 C70_3 1_555 1_555
N8_3 Cu6 1_555 1_555
C3_3 C14_3 1_555 1_555
H2_3 C6_3 1_555 1_555
C7_3 C10_3 1_555 1_555
C8_3 C10_3 1_555 1_555
C10_3 H3_3 1_555 1_555
C14_3 C7_3 1_555 1_555
H5_3 C14_3 1_555 1_555
C18_2 C32_2 1_555 1_555
C23_3 C6_3 1_555 1_555
C26_3 C8_3 1_555 1_555
H9_3 C26_3 1_555 1_555
C27_3 C7_3 1_555 1_555
C29_3 C3_3 1_555 1_555
C30_2 C35_2 1_555 1_555
C32_2 H11_2 1_555 1_555
C33_3 C27_3 1_555 1_555
C35_2 H12_2 1_555 1_555
C36_2 C35_2 1_555 1_555
C37_2 C32_2 1_555 1_555
C42_2 C36_2 1_555 1_555
H14_2 C42_2 1_555 1_555
C44_3 C50_3 1_555 1_555
C46_2 C36_2 1_555 1_555
C49_3 C54_3 1_555 1_555
C50_3 C8_3 1_555 1_555
C51_3 C100_3 1_555 1_555
C52_3 S2_3 1_555 1_555
H17_3 C52_3 1_555 1_555
H18_3 C52_3 1_555 1_555
C54_3 H19_3 1_555 1_555
C56_3 N2_3 1_555 1_555
H20_3 C56_3 1_555 1_555
C57_3 C23_3 1_555 1_555
C60_2 C30_2 1_555 1_555
H24_2 C60_2 1_555 1_555
C63_3 C10_3 1_555 1_555
C64_3 C72_3 1_555 1_555
C66_3 H31_3 1_555 1_555
H32_3 C67_3 1_555 1_555
H33_3 C67_3 1_555 1_555
C69_2 C18_2 1_555 1_555
C70_3 H37_3 1_555 1_555
C72_3 H40_3 1_555 1_555
C73_3 C95_3 1_555 1_555
C74_3 H41_3 1_555 1_555
C75_3 S6_3 1_555 1_555
H42_3 C75_3 1_555 1_555
H43_3 C75_3 1_555 1_555
C76_2 C30_2 1_555 1_555
C77_3 O6_3 1_555 1_555
H44_3 C77_3 1_555 1_555
H45_3 C77_3 1_555 1_555
C78_3 N6_3 1_555 1_555
H46_3 C78_3 1_555 1_555
C84_3 N3_3 1_555 1_555
H57_3 C84_3 1_555 1_555
C85_2 C46_2 1_555 1_555
C90_2 C37_2 1_555 1_555
C91_3 C64_3 1_555 1_555
H65_3 C91_3 1_555 1_555
C92_3 C105_3 1_555 1_555
C93_2 C42_2 1_555 1_555
H66_2 C93_2 1_555 1_555
H67_2 C93_2 1_555 1_555
H68_2 C93_2 1_555 1_555
C94_3 N23_2 1_555 1_555
H69_3 C94_3 1_555 1_555
C95_3 C74_3 1_555 1_555
H70_3 C95_3 1_555 1_555
C96_3 C73_3 1_555 1_555
H71_3 C96_3 1_555 1_555
C99_2 O14_2 1_555 1_555
H75_2 C99_2 1_555 1_555
H76_2 C99_2 1_555 1_555
C100_3 C66_3 1_555 1_555
H77_3 C100_3 1_555 1_555
C101_3 C51_3 1_555 1_555
H78_3 C101_3 1_555 1_555
C102_2 C69_2 1_555 1_555
C103_3 N1_3 1_555 1_555
H79_3 C103_3 1_555 1_555
C105_3 C84_3 1_555 1_555
H83_3 C105_3 1_555 1_555
C107_2 C60_2 1_555 1_555
H87_2 C107_2 1_555 1_555
H88_2 C107_2 1_555 1_555
H89_2 C107_2 1_555 1_555
C108_3 C49_3 1_555 1_555
H90_3 C108_3 1_555 1_555
C109_3 N2_3 1_555 1_555
H91_3 C109_3 1_555 1_555
C111_2 O15_2 1_555 1_555
H93_2 C111_2 1_555 1_555
H94_2 C111_2 1_555 1_555
C112_3 N8_3 1_555 1_555
H95_3 C112_3 1_555 1_555
C113_2 S7_3 1_555 1_555
H96_2 C113_2 1_555 1_555
H97_2 C113_2 1_555 1_555
C114_3 N8_3 1_555 1_555
H98_3 C114_3 1_555 1_555
C115_3 C116_3 1_555 1_555
C116_3 C112_3 1_555 1_555
H99_3 C116_3 1_555 1_555
C117_2 S8_2 1_555 1_555
H100_3 C117_2 1_555 1_555
H101_3 C117_2 1_555 1_555
C118_3 N3_3 1_555 1_555
H102_3 C118_3 1_555 1_555
C119_3 C92_3 1_555 1_555
H103_3 C119_3 1_555 1_555
C120_3 C114_3 1_555 1_555
H104_3 C120_3 1_555 1_555
S9_3 C140_3 1_555 1_555
S10_3 C131_3 1_555 1_555
N17 C135_3 1_555 1_555
N22 C141_3 1_555 1_555
C131_3 C133_3 1_555 1_555
C133_3 H108_3 1_555 1_555
C135_3 C133_3 1_555 1_555
H109_3 C135_3 1_555 1_555
C140_3 C144_3 1_555 1_555
C141_3 H115_3 1_555 1_555
C142_3 N22 1_555 1_555
H116_3 C142_3 1_555 1_555
C144_3 C141_3 1_555 1_555
H119_3 C144_3 1_555 1_555
C145_3 C140_3 1_555 1_555
H120_3 C145_3 1_555 1_555
C149_3 C131_3 1_555 1_555
H129_3 C149_3 1_555 1_555
C150_3 N17 1_555 1_555
H130_3 C150_3 1_555 1_555
S11_3 C165_3 1_555 1_555
S12_2 C175_3 1_555 1_555
O21_2 C99_2 1_555 1_555
O22_2 C160_2 1_555 1_555
O23_2 C161_2 1_555 1_555
O24_2 C164_2 1_555 1_555
N11_3 C162_3 1_555 1_555
C151_2 C42_2 1_555 1_555
C152_2 C154_2 1_555 1_555
C153_2 C151_2 1_555 1_555
H131_2 C153_2 1_555 1_555
C154_2 H132_2 1_555 1_555
C155_2 C154_2 1_555 1_555
C156_2 C153_2 1_555 1_555
C157_2 C18_2 1_555 1_555
H133_2 C157_2 1_555 1_555
C158_2 O21_2 1_555 1_555
C159_2 C152_2 1_555 1_555
H134_2 C159_2 1_555 1_555
C160_2 C151_2 1_555 1_555
C161_2 C152_2 1_555 1_555
C162_3 H135_3 1_555 1_555
C163_2 C158_2 1_555 1_555
C164_2 C156_2 1_555 1_555
C165_3 C169_3 1_555 1_555
C166_2 C157_2 1_555 1_555
H136_2 C166_2 1_555 1_555
H137_2 C166_2 1_555 1_555
H138_2 C166_2 1_555 1_555
C167_2 O13_2 1_555 1_555
H139_2 C167_2 1_555 1_555
H140_2 C167_2 1_555 1_555
C168_2 C160_2 1_555 1_555
C169_3 C162_3 1_555 1_555
H141_3 C169_3 1_555 1_555
C170_2 C159_2 1_555 1_555
H142_2 C170_2 1_555 1_555
H143_2 C170_2 1_555 1_555
H144_2 C170_2 1_555 1_555
C171_2 O23_2 1_555 1_555
H145_2 C171_2 1_555 1_555
H146_2 C171_2 1_555 1_555
C172_3 H147_3 1_555 1_555
C173_2 S11_3 1_555 1_555
H148_2 C173_2 1_555 1_555
H149_2 C173_2 1_555 1_555
C175_3 C176_3 1_555 1_555
C176_3 C172_3 1_555 1_555
H151_3 C176_3 1_555 1_555
C177_2 S12_2 1_555 1_555
H152_3 C177_2 1_555 1_555
H153_3 C177_2 1_555 1_555
C178_3 N11_3 1_555 1_555
H154_3 C178_3 1_555 1_555
C179_3 C165_3 1_555 1_555
H155_3 C179_3 1_555 1_555
S14_3 C212_3 1_555 1_555
S16_3 C217_3 1_555 1_555
O26_3 C201_3 1_555 1_555
O29_3 C199_3 1_555 1_555
O30_3 C214_3 1_555 1_555
O32_3 C211_3 1_555 1_555
N24_2 C222_3 1_555 1_555
C183_3 C192_3 1_555 1_555
H158_3 C186_3 1_555 1_555
C187_3 C190_3 1_555 1_555
C188_3 C190_3 1_555 1_555
C190_3 H159_3 1_555 1_555
C192_3 C187_3 1_555 1_555
H160_3 C192_3 1_555 1_555
C197_3 C186_3 1_555 1_555
C198_3 C188_3 1_555 1_555
H163_3 C198_3 1_555 1_555
C199_3 C187_3 1_555 1_555
C201_3 C183_3 1_555 1_555
C203_3 C199_3 1_555 1_555
C207_3 C211_3 1_555 1_555
C211_3 C188_3 1_555 1_555
C212_3 C237_3 1_555 1_555
C213_3 S14_3 1_555 1_555
H167_3 C213_3 1_555 1_555
H168_3 C213_3 1_555 1_555
C214_3 C197_3 1_555 1_555
C216_3 C190_3 1_555 1_555
H170_3 C216_3 1_555 1_555
H171_3 C216_3 1_555 1_555
H172_3 C216_3 1_555 1_555
C217_3 C223_3 1_555 1_555
C219_3 N13_3 1_555 1_555
H175_3 C219_3 1_555 1_555
H176_3 C220_3 1_555 1_555
H177_3 C220_3 1_555 1_555
C222_3 H181_3 1_555 1_555
C223_3 H182_3 1_555 1_555
C224_3 S16_3 1_555 1_555
H183_3 C224_3 1_555 1_555
H184_3 C224_3 1_555 1_555
C225_3 O29_3 1_555 1_555
H185_3 C225_3 1_555 1_555
H186_3 C225_3 1_555 1_555
H190_3 C228_3 1_555 1_555
H192_3 C228_3 1_555 1_555
C230_3 C186_3 1_555 1_555
H194_3 C230_3 1_555 1_555
H195_3 C230_3 1_555 1_555
H196_3 C230_3 1_555 1_555
C234_3 C217_3 1_555 1_555
H202_3 C234_3 1_555 1_555
C235_3 N24_2 1_555 1_555
H203_3 C235_3 1_555 1_555
C237_3 C219_3 1_555 1_555
H205_3 C237_3 1_555 1_555
C238_3 C212_3 1_555 1_555
H206_3 C238_3 1_555 1_555
C239_3 N13_3 1_555 1_555
H207_3 C239_3 1_555 1_555
N19_2 Cu2_2 1_555 1_555
O7_3 C67_3 1_555 1_555
O9_3 C77_3 1_555 1_555
O16_2 C111_2 1_555 1_555
C23_3 C26_3 1_555 1_555
C29_3 C33_3 1_555 1_555
C33_3 C52_3 1_555 1_555
C37_2 C60_2 1_555 1_555
C44_3 C57_3 1_555 1_555
C44_3 C75_3 1_555 1_555
C54_3 C56_3 1_555 1_555
C70_3 C91_3 1_555 1_555
C72_3 C94_3 1_555 1_555
C76_2 C85_2 1_555 1_555
C78_3 C96_3 1_555 1_555
C85_2 C113_2 1_555 1_555
C90_2 C102_2 1_555 1_555
C101_3 C103_3 1_555 1_555
C102_2 C117_2 1_555 1_555
C108_3 C109_3 1_555 1_555
C115_3 C120_3 1_555 1_555
C118_3 C119_3 1_555 1_555
C142_3 C145_3 1_555 1_555
C149_3 C150_3 1_555 1_555
O22_2 C167_2 1_555 1_555
O24_2 C171_2 1_555 1_555
C155_2 C157_2 1_555 1_555
C155_2 C158_2 1_555 1_555
C156_2 C159_2 1_555 1_555
C161_2 C163_2 1_555 1_555
C163_2 C173_2 1_555 1_555
C164_2 C168_2 1_555 1_555
C168_2 C177_2 1_555 1_555
C178_3 C179_3 1_555 1_555
O30_3 C220_3 1_555 1_555
O32_3 C225_3 1_555 1_555
C197_3 C198_3 1_555 1_555
C201_3 C203_3 1_555 1_555
C203_3 C213_3 1_555 1_555
C207_3 C214_3 1_555 1_555
C207_3 C224_3 1_555 1_555
C222_3 C234_3 1_555 1_555
C223_3 C235_3 1_555 1_555
C238_3 C239_3 1_555 1_555
S1_3 C43_3 1_555 1_555
S3_3 C48_3 1_555 1_555
O1_3 C19_3 1_555 1_555
O3_3 C4_3 1_555 1_555
O4_3 C20_3 1_555 1_555
O5_3 C13_3 1_555 1_555
O8_3 C31_3 1_555 1_555
O10_3 C53_3 1_555 1_555
O11_3 C38_3 1_555 1_555
O12_3 C61_3 1_555 1_555
N4_2 C45_3 1_555 1_555
N20 C47_3 1_555 1_555
C1_3 H1_3 1_555 1_555
C2_3 C16_3 1_555 1_555
C4_3 C5_3 1_555 1_555
C5_3 C1_3 1_555 1_555
C9_3 C16_3 1_555 1_555
C11_3 C1_3 1_555 1_555
C12_3 H4_3 1_555 1_555
C13_3 C21_3 1_555 1_555
C15_3 C12_3 1_555 1_555
C17_3 C2_3 1_555 1_555
H7_3 C17_3 1_555 1_555
C19_3 C9_3 1_555 1_555
C20_3 C2_3 1_555 1_555
C21_3 C38_3 1_555 1_555
C22_3 H8_3 1_555 1_555
C24_3 C22_3 1_555 1_555
C25_3 C12_3 1_555 1_555
H10_3 C28_3 1_555 1_555
C31_3 C11_3 1_555 1_555
C34_3 C19_3 1_555 1_555
C38_3 C15_3 1_555 1_555
C39_3 C4_3 1_555 1_555
C40_3 C24_3 1_555 1_555
H13_3 C40_3 1_555 1_555
C41_3 C22_3 1_555 1_555
C43_3 C80_3 1_555 1_555
C45_3 H15_3 1_555 1_555
C47_3 H16_3 1_555 1_555
C48_3 C58_3 1_555 1_555
C53_3 C24_3 1_555 1_555
C55_3 C53_3 1_555 1_555
C58_3 C45_3 1_555 1_555
H21_3 C58_3 1_555 1_555
H22_3 C59_3 1_555 1_555
H23_3 C59_3 1_555 1_555
C61_3 C41_3 1_555 1_555
C62_3 C15_3 1_555 1_555
H25_3 C62_3 1_555 1_555
C65_3 S3_3 1_555 1_555
H29_3 C65_3 1_555 1_555
H30_3 C65_3 1_555 1_555
C71_3 O10_3 1_555 1_555
H38_3 C71_3 1_555 1_555
H39_3 C71_3 1_555 1_555
C79_3 O4_3 1_555 1_555
H47_3 C79_3 1_555 1_555
H48_3 C79_3 1_555 1_555
C80_3 H49_3 1_555 1_555
C82_3 N20 1_555 1_555
H53_3 C82_3 1_555 1_555
C86_3 O1_3 1_555 1_555
H58_3 C86_3 1_555 1_555
H59_3 C86_3 1_555 1_555
C87_3 S1_3 1_555 1_555
H60_3 C87_3 1_555 1_555
H61_3 C87_3 1_555 1_555
C88_3 C43_3 1_555 1_555
H62_3 C88_3 1_555 1_555
C89_3 O11_3 1_555 1_555
H63_3 C89_3 1_555 1_555
H64_3 C89_3 1_555 1_555
H72_3 C97_3 1_555 1_555
H73_3 C97_3 1_555 1_555
C98_3 N4_2 1_555 1_555
H74_3 C98_3 1_555 1_555
C104_3 C62_3 1_555 1_555
H80_3 C104_3 1_555 1_555
H81_3 C104_3 1_555 1_555
H82_3 C104_3 1_555 1_555
C106_3 C40_3 1_555 1_555
H84_3 C106_3 1_555 1_555
H85_3 C106_3 1_555 1_555
H86_3 C106_3 1_555 1_555
C110_3 C48_3 1_555 1_555
H92_3 C110_3 1_555 1_555
O17_3 C71_3 1_555 1_555
O18_3 C132_3 1_555 1_555
O19_3 C128_3 1_555 1_555
O20_3 C137_3 1_555 1_555
C121_3 H105_3 1_555 1_555
C122_3 O17_3 1_555 1_555
C123_3 C121_3 1_555 1_555
C124_3 C122_3 1_555 1_555
C125_3 H106_3 1_555 1_555
C126_3 C125_3 1_555 1_555
C127_3 C40_3 1_555 1_555
C128_3 C123_3 1_555 1_555
C129_3 C25_3 1_555 1_555
H107_3 C129_3 1_555 1_555
C130_3 C125_3 1_555 1_555
C132_3 C126_3 1_555 1_555
C134_3 C132_3 1_555 1_555
H110_3 C136_3 1_555 1_555
H111_3 C136_3 1_555 1_555
C137_3 C130_3 1_555 1_555
C138_3 C123_3 1_555 1_555
H112_3 C138_3 1_555 1_555
C139_3 O5_3 1_555 1_555
H113_3 C139_3 1_555 1_555
H114_3 C139_3 1_555 1_555
C143_3 O19_3 1_555 1_555
H117_3 C143_3 1_555 1_555
H118_3 C143_3 1_555 1_555
H121_3 C146_3 1_555 1_555
H122_3 C146_3 1_555 1_555
C147_3 C138_3 1_555 1_555
H123_3 C147_3 1_555 1_555
H124_3 C147_3 1_555 1_555
H125_3 C147_3 1_555 1_555
C148_3 C129_3 1_555 1_555
H126_3 C148_3 1_555 1_555
H127_3 C148_3 1_555 1_555
H128_3 C148_3 1_555 1_555
S13_3 C206_3 1_555 1_555
S15_3 C210_3 1_555 1_555
O25_3 C195_3 1_555 1_555
O27_3 C184_3 1_555 1_555
O28_3 C196_3 1_555 1_555
O31_3 C202_3 1_555 1_555
N14_2 C208_3 1_555 1_555
N21 C209_3 1_555 1_555
C181_3 H157_3 1_555 1_555
C182_3 C193_3 1_555 1_555
C184_3 C185_3 1_555 1_555
C185_3 C181_3 1_555 1_555
C189_3 C193_3 1_555 1_555
C191_3 C181_3 1_555 1_555
C193_3 H161_3 1_555 1_555
C194_3 C182_3 1_555 1_555
H162_3 C194_3 1_555 1_555
C195_3 C189_3 1_555 1_555
C196_3 C182_3 1_555 1_555
H164_3 C200_3 1_555 1_555
C202_3 C191_3 1_555 1_555
C204_3 C195_3 1_555 1_555
C205_3 C184_3 1_555 1_555
C206_3 C227_3 1_555 1_555
C208_3 H165_3 1_555 1_555
C209_3 H166_3 1_555 1_555
C210_3 C215_3 1_555 1_555
C215_3 C208_3 1_555 1_555
H169_3 C215_3 1_555 1_555
C218_3 S15_3 1_555 1_555
H173_3 C218_3 1_555 1_555
H174_3 C218_3 1_555 1_555
C221_3 C194_3 1_555 1_555
H178_3 C221_3 1_555 1_555
H179_3 C221_3 1_555 1_555
H180_3 C221_3 1_555 1_555
C226_3 O28_3 1_555 1_555
H187_3 C226_3 1_555 1_555
H188_3 C226_3 1_555 1_555
C227_3 H189_3 1_555 1_555
C229_3 N21 1_555 1_555
H193_3 C229_3 1_555 1_555
C231_3 O25_3 1_555 1_555
H197_3 C231_3 1_555 1_555
H198_3 C231_3 1_555 1_555
C232_3 S13_3 1_555 1_555
H199_3 C232_3 1_555 1_555
H200_3 C232_3 1_555 1_555
C233_3 C206_3 1_555 1_555
H201_3 C233_3 1_555 1_555
C236_3 N14_2 1_555 1_555
H204_3 C236_3 1_555 1_555
C240_3 C210_3 1_555 1_555
H208_3 C240_3 1_555 1_555
Cu11_2 N14_2 1_555 1_555
Cu12_2 N4_2 1_555 1_555
O8_3 C79_3 1_555 1_555
O12_3 C89_3 1_555 1_555
C9_3 C28_3 1_555 1_555
C11_3 C17_3 1_555 1_555
C13_3 C25_3 1_555 1_555
C20_3 C34_3 1_555 1_555
C21_3 C59_3 1_555 1_555
C31_3 C39_3 1_555 1_555
C34_3 C87_3 1_555 1_555
C39_3 C65_3 1_555 1_555
C41_3 C62_3 1_555 1_555
C47_3 C88_3 1_555 1_555
C55_3 C61_3 1_555 1_555
C55_3 C97_3 1_555 1_555
C80_3 C82_3 1_555 1_555
C98_3 C110_3 1_555 1_555
O18_3 C139_3 1_555 1_555
O20_3 C143_3 1_555 1_555
C121_3 C127_3 1_555 1_555
C122_3 C127_3 1_555 1_555
C124_3 C128_3 1_555 1_555
C124_3 C136_3 1_555 1_555
C126_3 C129_3 1_555 1_555
C130_3 C138_3 1_555 1_555
C134_3 C137_3 1_555 1_555
C134_3 C146_3 1_555 1_555
O31_3 C226_3 1_555 1_555
C189_3 C200_3 1_555 1_555
C191_3 C194_3 1_555 1_555
C196_3 C204_3 1_555 1_555
C202_3 C205_3 1_555 1_555
C204_3 C232_3 1_555 1_555
C205_3 C218_3 1_555 1_555
C209_3 C233_3 1_555 1_555
C227_3 C229_3 1_555 1_555
C236_3 C240_3 1_555 1_555
S1_4 C43_4 1_555 1_555
S2_4 C51_4 1_555 1_555
S3_4 C48_4 1_555 1_555
S6_4 C64_4 1_555 1_555
S7_4 C92_4 1_555 1_555
O1_4 C19_4 1_555 1_555
O2_4 C29_4 1_555 1_555
O3_4 C4_4 1_555 1_555
O4_4 C20_4 1_555 1_555
O6_4 C27_4 1_555 1_555
O7_4 C57_4 1_555 1_555
O8_4 C31_4 1_555 1_555
O9_4 C50_4 1_555 1_555
N1_4 C66_4 1_555 1_555
N18_2 C45_4 1_555 1_555
N20_2 C47_4 1_555 1_555
N23 C70_4 1_555 1_555
C1_4 H1_4 1_555 1_555
C2_4 C16_4 1_555 1_555
C3_4 C14_4 1_555 1_555
C4_4 C5_4 1_555 1_555
C5_4 C1_4 1_555 1_555
C6_4 C5_4 1_555 1_555
H2_4 C6_4 1_555 1_555
C7_4 C10_4 1_555 1_555
C8_4 C10_4 1_555 1_555
C9_4 C16_4 1_555 1_555
C10_4 H3_4 1_555 1_555
C11_4 C1_4 1_555 1_555
C14_4 C7_4 1_555 1_555
H5_4 C14_4 1_555 1_555
C16_4 H6_4 1_555 1_555
C17_4 C2_4 1_555 1_555
H7_4 C17_4 1_555 1_555
C19_4 C9_4 1_555 1_555
C20_4 C2_4 1_555 1_555
C23_4 C6_4 1_555 1_555
C26_4 C8_4 1_555 1_555
H9_4 C26_4 1_555 1_555
C27_4 C7_4 1_555 1_555
C28_4 C3_4 1_555 1_555
H10_4 C28_4 1_555 1_555
C29_4 C3_4 1_555 1_555
C31_4 C11_4 1_555 1_555
C33_4 C27_4 1_555 1_555
C34_4 C19_4 1_555 1_555
C39_4 C4_4 1_555 1_555
C43_4 C80_4 1_555 1_555
C44_4 C50_4 1_555 1_555
C45_4 H15_4 1_555 1_555
C47_4 H16_4 1_555 1_555
C48_4 C58_4 1_555 1_555
C50_4 C8_4 1_555 1_555
C51_4 C100_4 1_555 1_555
C52_4 S2_4 1_555 1_555
H17_4 C52_4 1_555 1_555
H18_4 C52_4 1_555 1_555
C57_4 C23_4 1_555 1_555
C58_4 C45_4 1_555 1_555
H21_4 C58_4 1_555 1_555
C63_4 C10_4 1_555 1_555
H26_4 C63_4 1_555 1_555
H27_4 C63_4 1_555 1_555
H28_4 C63_4 1_555 1_555
C64_4 C72_4 1_555 1_555
C65_4 S3_4 1_555 1_555
H29_4 C65_4 1_555 1_555
H30_4 C65_4 1_555 1_555
C66_4 H31_4 1_555 1_555
C67_4 O3_4 1_555 1_555
H32_4 C67_4 1_555 1_555
H33_4 C67_4 1_555 1_555
C68_4 C17_4 1_555 1_555
H34_4 C68_4 1_555 1_555
H35_4 C68_4 1_555 1_555
H36_4 C68_4 1_555 1_555
C70_4 H37_4 1_555 1_555
C72_4 H40_4 1_555 1_555
C75_4 S6_4 1_555 1_555
H42_4 C75_4 1_555 1_555
H43_4 C75_4 1_555 1_555
C77_4 O6_4 1_555 1_555
H44_4 C77_4 1_555 1_555
H45_4 C77_4 1_555 1_555
C79_4 O4_4 1_555 1_555
H47_4 C79_4 1_555 1_555
H48_4 C79_4 1_555 1_555
C80_4 H49_4 1_555 1_555
C81_4 C28_4 1_555 1_555
H50_4 C81_4 1_555 1_555
H51_4 C81_4 1_555 1_555
H52_4 C81_4 1_555 1_555
C82_4 N20_2 1_555 1_555
H53_4 C82_4 1_555 1_555
C83_4 C6_4 1_555 1_555
H54_4 C83_4 1_555 1_555
H55_4 C83_4 1_555 1_555
H56_4 C83_4 1_555 1_555
C84_4 N3_4 1_555 1_555
H57_4 C84_4 1_555 1_555
C86_4 O1_4 1_555 1_555
H58_4 C86_4 1_555 1_555
H59_4 C86_4 1_555 1_555
C87_4 S1_4 1_555 1_555
H60_4 C87_4 1_555 1_555
H61_4 C87_4 1_555 1_555
C88_4 C43_4 1_555 1_555
H62_4 C88_4 1_555 1_555
C91_4 C64_4 1_555 1_555
H65_4 C91_4 1_555 1_555
C92_4 C105_4 1_555 1_555
C94_4 N23 1_555 1_555
H69_4 C94_4 1_555 1_555
C98_4 N18_2 1_555 1_555
H74_4 C98_4 1_555 1_555
C100_4 C66_4 1_555 1_555
H77_4 C100_4 1_555 1_555
C101_4 C51_4 1_555 1_555
H78_4 C101_4 1_555 1_555
C103_4 N1_4 1_555 1_555
H79_4 C103_4 1_555 1_555
C105_4 C84_4 1_555 1_555
H83_4 C105_4 1_555 1_555
C110_4 C48_4 1_555 1_555
H92_4 C110_4 1_555 1_555
C118_4 N3_4 1_555 1_555
H102_4 C118_4 1_555 1_555
C119_4 C92_4 1_555 1_555
H103_4 C119_4 1_555 1_555
N12_4 C172_4 1_555 1_555
C172_4 H147_4 1_555 1_555
C174_4 N12_4 1_555 1_555
H150_4 C174_4 1_555 1_555
C175_4 C176_4 1_555 1_555
C176_4 C172_4 1_555 1_555
H151_4 C176_4 1_555 1_555
C180_4 C174_4 1_555 1_555
H156_4 C180_4 1_555 1_555
Cu9 N12_4 1_555 1_555
N22_2 Cu9 1_555 1_555
O2_4 C86_4 1_555 1_555
O7_4 C67_4 1_555 1_555
O8_4 C79_4 1_555 1_555
O9_4 C77_4 1_555 1_555
C9_4 C28_4 1_555 1_555
C11_4 C17_4 1_555 1_555
C20_4 C34_4 1_555 1_555
C23_4 C26_4 1_555 1_555
C29_4 C33_4 1_555 1_555
C31_4 C39_4 1_555 1_555
C33_4 C52_4 1_555 1_555
C34_4 C87_4 1_555 1_555
C39_4 C65_4 1_555 1_555
C44_4 C57_4 1_555 1_555
C44_4 C75_4 1_555 1_555
C47_4 C88_4 1_555 1_555
C70_4 C91_4 1_555 1_555
C72_4 C94_4 1_555 1_555
C80_4 C82_4 1_555 1_555
C98_4 C110_4 1_555 1_555
C101_4 C103_4 1_555 1_555
C118_4 C119_4 1_555 1_555
C175_4 C180_4 1_555 1_555
H95_4 C112_4 1_555 1_555
C115_4 C116_4 1_555 1_555
C116_4 C112_4 1_555 1_555
H99_4 C116_4 1_555 1_555
S11_4 C165_4 1_555 1_555
N11_4 C162_4 1_555 1_555
C162_4 H135_4 1_555 1_555
C165_4 C169_4 1_555 1_555
C169_4 C162_4 1_555 1_555
H141_4 C169_4 1_555 1_555
C178_4 N11_4 1_555 1_555
H154_4 C178_4 1_555 1_555
C179_4 C165_4 1_555 1_555
H155_4 C179_4 1_555 1_555
Cu12_2 N11_4 1_555 1_555
S13_4 C206_4 1_555 1_555
S14_4 C212_4 1_555 1_555
S15_4 C210_4 1_555 1_555
S16_4 C217_4 1_555 1_555
O25_4 C195_4 1_555 1_555
O26_4 C201_4 1_555 1_555
O27_4 C184_4 1_555 1_555
O28_4 C196_4 1_555 1_555
O29_4 C199_4 1_555 1_555
O30_4 C214_4 1_555 1_555
O31_4 C202_4 1_555 1_555
O32_4 C211_4 1_555 1_555
N13_4 Cu12_2 1_555 1_555
N19_2 C208_4 1_555 1_555
N21_2 C209_4 1_555 1_555
N24 C222_4 1_555 1_555
C181_4 H157_4 1_555 1_555
C182_4 C193_4 1_555 1_555
C183_4 C192_4 1_555 1_555
C184_4 C185_4 1_555 1_555
C185_4 C181_4 1_555 1_555
C186_4 C185_4 1_555 1_555
H158_4 C186_4 1_555 1_555
C187_4 C190_4 1_555 1_555
C188_4 C190_4 1_555 1_555
C189_4 C193_4 1_555 1_555
C190_4 H159_4 1_555 1_555
C191_4 C181_4 1_555 1_555
C192_4 C187_4 1_555 1_555
H160_4 C192_4 1_555 1_555
C194_4 C182_4 1_555 1_555
H162_4 C194_4 1_555 1_555
C195_4 C189_4 1_555 1_555
C196_4 C182_4 1_555 1_555
C197_4 C186_4 1_555 1_555
C198_4 C188_4 1_555 1_555
H163_4 C198_4 1_555 1_555
C199_4 C187_4 1_555 1_555
C200_4 C183_4 1_555 1_555
H164_4 C200_4 1_555 1_555
C201_4 C183_4 1_555 1_555
C202_4 C191_4 1_555 1_555
C203_4 C199_4 1_555 1_555
C204_4 C195_4 1_555 1_555
C205_4 C184_4 1_555 1_555
C206_4 C227_4 1_555 1_555
C207_4 C211_4 1_555 1_555
C208_4 H165_4 1_555 1_555
C209_4 H166_4 1_555 1_555
C210_4 C215_4 1_555 1_555
C211_4 C188_4 1_555 1_555
C212_4 C237_4 1_555 1_555
C213_4 S14_4 1_555 1_555
H167_4 C213_4 1_555 1_555
H168_4 C213_4 1_555 1_555
C214_4 C197_4 1_555 1_555
C215_4 C208_4 1_555 1_555
H169_4 C215_4 1_555 1_555
C216_4 C190_4 1_555 1_555
C217_4 C223_4 1_555 1_555
C218_4 S15_4 1_555 1_555
H173_4 C218_4 1_555 1_555
H174_4 C218_4 1_555 1_555
C219_4 N13_4 1_555 1_555
H175_4 C219_4 1_555 1_555
C220_4 O27_4 1_555 1_555
H176_4 C220_4 1_555 1_555
H177_4 C220_4 1_555 1_555
C222_4 H181_4 1_555 1_555
C223_4 H182_4 1_555 1_555
C224_4 S16_4 1_555 1_555
H183_4 C224_4 1_555 1_555
H184_4 C224_4 1_555 1_555
C225_4 O29_4 1_555 1_555
H185_4 C225_4 1_555 1_555
H186_4 C225_4 1_555 1_555
C226_4 O28_4 1_555 1_555
H187_4 C226_4 1_555 1_555
H188_4 C226_4 1_555 1_555
C227_4 H189_4 1_555 1_555
C229_4 N21_2 1_555 1_555
H193_4 C229_4 1_555 1_555
C231_4 O25_4 1_555 1_555
H197_4 C231_4 1_555 1_555
H198_4 C231_4 1_555 1_555
C232_4 S13_4 1_555 1_555
H199_4 C232_4 1_555 1_555
H200_4 C232_4 1_555 1_555
C233_4 C206_4 1_555 1_555
H201_4 C233_4 1_555 1_555
C234_4 C217_4 1_555 1_555
H202_4 C234_4 1_555 1_555
C235_4 N24 1_555 1_555
H203_4 C235_4 1_555 1_555
C236_4 N19_2 1_555 1_555
H204_4 C236_4 1_555 1_555
C237_4 C219_4 1_555 1_555
H205_4 C237_4 1_555 1_555
C238_4 C212_4 1_555 1_555
H206_4 C238_4 1_555 1_555
C239_4 N13_4 1_555 1_555
H207_4 C239_4 1_555 1_555
C240_4 C210_4 1_555 1_555
H208_4 C240_4 1_555 1_555
N17_2 Cu12_2 1_555 1_555
C178_4 C179_4 1_555 1_555
O26_4 C231_4 1_555 1_555
O30_4 C220_4 1_555 1_555
O31_4 C226_4 1_555 1_555
O32_4 C225_4 1_555 1_555
C189_4 C200_4 1_555 1_555
C191_4 C194_4 1_555 1_555
C196_4 C204_4 1_555 1_555
C197_4 C198_4 1_555 1_555
C201_4 C203_4 1_555 1_555
C202_4 C205_4 1_555 1_555
C203_4 C213_4 1_555 1_555
C204_4 C232_4 1_555 1_555
C205_4 C218_4 1_555 1_555
C207_4 C214_4 1_555 1_555
C207_4 C224_4 1_555 1_555
C209_4 C233_4 1_555 1_555
C222_4 C234_4 1_555 1_555
C223_4 C235_4 1_555 1_555
C227_4 C229_4 1_555 1_555
C236_4 C240_4 1_555 1_555
C238_4 C239_4 1_555 1_555
S5_4 C49_4 1_555 1_555
O5_4 C13_4 1_555 1_555
O11_4 C38_4 1_555 1_555
N2_4 Cu11_2 1_555 1_555
C12_4 H4_4 1_555 1_555
C13_4 C21_4 1_555 1_555
C15_4 C12_4 1_555 1_555
C21_4 C38_4 1_555 1_555
C25_4 C12_4 1_555 1_555
C38_4 C15_4 1_555 1_555
C49_4 C54_4 1_555 1_555
C54_4 H19_4 1_555 1_555
C56_4 N2_4 1_555 1_555
H20_4 C56_4 1_555 1_555
C59_4 S5_4 1_555 1_555
H22_4 C59_4 1_555 1_555
H23_4 C59_4 1_555 1_555
C62_4 C15_4 1_555 1_555
H25_4 C62_4 1_555 1_555
C89_4 O11_4 1_555 1_555
H63_4 C89_4 1_555 1_555
H64_4 C89_4 1_555 1_555
C104_4 C62_4 1_555 1_555
H80_4 C104_4 1_555 1_555
H81_4 C104_4 1_555 1_555
H82_4 C104_4 1_555 1_555
C108_4 C49_4 1_555 1_555
H90_4 C108_4 1_555 1_555
C109_4 N2_4 1_555 1_555
H91_4 C109_4 1_555 1_555
S9_4 C140_4 1_555 1_555
O18_4 C132_4 1_555 1_555
O20_4 C137_4 1_555 1_555
N22_2 C141_4 1_555 1_555
C125_4 H106_4 1_555 1_555
C126_4 C125_4 1_555 1_555
C129_4 C25_4 1_555 1_555
H107_4 C129_4 1_555 1_555
C130_4 C125_4 1_555 1_555
C132_4 C126_4 1_555 1_555
C134_4 C132_4 1_555 1_555
C137_4 C130_4 1_555 1_555
C139_4 O5_4 1_555 1_555
H113_4 C139_4 1_555 1_555
H114_4 C139_4 1_555 1_555
C140_4 C144_4 1_555 1_555
C141_4 H115_4 1_555 1_555
C142_4 N22_2 1_555 1_555
H116_4 C142_4 1_555 1_555
C144_4 C141_4 1_555 1_555
H119_4 C144_4 1_555 1_555
C145_4 C140_4 1_555 1_555
H120_4 C145_4 1_555 1_555
C146_4 S9_4 1_555 1_555
H121_4 C146_4 1_555 1_555
H122_4 C146_4 1_555 1_555
C148_4 C129_4 1_555 1_555
H126_4 C148_4 1_555 1_555
H127_4 C148_4 1_555 1_555
H128_4 C148_4 1_555 1_555
C13_4 C25_4 1_555 1_555
C21_4 C59_4 1_555 1_555
C54_4 C56_4 1_555 1_555
C108_4 C109_4 1_555 1_555
O18_4 C139_4 1_555 1_555
C126_4 C129_4 1_555 1_555
C134_4 C137_4 1_555 1_555
C134_4 C146_4 1_555 1_555
C142_4 C145_4 1_555 1_555
Cu8 N6_4 1_555 1_555
S4_4 C73_4 1_555 1_555
O10_4 C53_4 1_555 1_555
O12_4 C61_4 1_555 1_555
N6_4 C74_4 1_555 1_555
N8_4 Cu8 1_555 1_555
C22_4 H8_4 1_555 1_555
C24_4 C22_4 1_555 1_555
C40_4 C24_4 1_555 1_555
H13_4 C40_4 1_555 1_555
C41_4 C22_4 1_555 1_555
C53_4 C24_4 1_555 1_555
C55_4 C53_4 1_555 1_555
C61_4 C41_4 1_555 1_555
C71_4 O10_4 1_555 1_555
H38_4 C71_4 1_555 1_555
H39_4 C71_4 1_555 1_555
C73_4 C95_4 1_555 1_555
C74_4 H41_4 1_555 1_555
C78_4 N6_4 1_555 1_555
H46_4 C78_4 1_555 1_555
C95_4 C74_4 1_555 1_555
H70_4 C95_4 1_555 1_555
C96_4 C73_4 1_555 1_555
H71_4 C96_4 1_555 1_555
C97_4 S4_4 1_555 1_555
H72_4 C97_4 1_555 1_555
H73_4 C97_4 1_555 1_555
C106_4 C40_4 1_555 1_555
H84_4 C106_4 1_555 1_555
H85_4 C106_4 1_555 1_555
H86_4 C106_4 1_555 1_555
C114_4 N8_4 1_555 1_555
H98_4 C114_4 1_555 1_555
C120_4 C114_4 1_555 1_555
H104_4 C120_4 1_555 1_555
S10_4 C131_4 1_555 1_555
O17_4 C71_4 1_555 1_555
O19_4 C128_4 1_555 1_555
N17_2 C135_4 1_555 1_555
C121_4 H105_4 1_555 1_555
C122_4 O17_4 1_555 1_555
C123_4 C121_4 1_555 1_555
C124_4 C122_4 1_555 1_555
C127_4 C40_4 1_555 1_555
C128_4 C123_4 1_555 1_555
C131_4 C133_4 1_555 1_555
C133_4 H108_4 1_555 1_555
C135_4 C133_4 1_555 1_555
H109_4 C135_4 1_555 1_555
C136_4 S10_4 1_555 1_555
H110_4 C136_4 1_555 1_555
H111_4 C136_4 1_555 1_555
C138_4 C123_4 1_555 1_555
H112_4 C138_4 1_555 1_555
C143_4 O19_4 1_555 1_555
H117_4 C143_4 1_555 1_555
H118_4 C143_4 1_555 1_555
C147_4 C138_4 1_555 1_555
H123_4 C147_4 1_555 1_555
H124_4 C147_4 1_555 1_555
H125_4 C147_4 1_555 1_555
C149_4 C131_4 1_555 1_555
H129_4 C149_4 1_555 1_555
C150_4 N17_2 1_555 1_555
H130_4 C150_4 1_555 1_555
H178_4 C221_4 1_555 1_555
H179_4 C221_4 1_555 1_555
H180_4 C221_4 1_555 1_555
H190_4 C228_4 1_555 1_555
H191_4 C228_4 1_555 1_555
H192_4 C228_4 1_555 1_555
H194_4 C230_4 1_555 1_555
H195_4 C230_4 1_555 1_555
H196_4 C230_4 1_555 1_555
C55_4 C61_4 1_555 1_555
C55_4 C97_4 1_555 1_555
C78_4 C96_4 1_555 1_555
C121_4 C127_4 1_555 1_555
C122_4 C127_4 1_555 1_555
C124_4 C128_4 1_555 1_555
C124_4 C136_4 1_555 1_555
C149_4 C150_4 1_555 1_555
O14_3 C69_3 1_555 1_555
O16_3 C90_3 1_555 1_555
C18_3 C32_3 1_555 1_555
C32_3 H11_3 1_555 1_555
C37_3 C32_3 1_555 1_555
H24_3 C60_3 1_555 1_555
C69_3 C18_3 1_555 1_555
C90_3 C37_3 1_555 1_555
C99_3 O14_3 1_555 1_555
H75_3 C99_3 1_555 1_555
H76_3 C99_3 1_555 1_555
C102_3 C69_3 1_555 1_555
C107_3 C60_3 1_555 1_555
H87_3 C107_3 1_555 1_555
H88_3 C107_3 1_555 1_555
H93_3 C111_3 1_555 1_555
H94_3 C111_3 1_555 1_555
C117_3 S8_3 1_555 1_555
O21_3 C99_3 1_555 1_555
O23_3 C161_3 1_555 1_555
C152_3 C154_3 1_555 1_555
C154_3 H132_3 1_555 1_555
C155_3 C154_3 1_555 1_555
C157_3 C18_3 1_555 1_555
H133_3 C157_3 1_555 1_555
C158_3 O21_3 1_555 1_555
C161_3 C152_3 1_555 1_555
C163_3 C158_3 1_555 1_555
C166_3 C157_3 1_555 1_555
H136_3 C166_3 1_555 1_555
H137_3 C166_3 1_555 1_555
H138_3 C166_3 1_555 1_555
H148_3 C173_3 1_555 1_555
H149_3 C173_3 1_555 1_555
O16_3 C111_3 1_555 1_555
C37_3 C60_3 1_555 1_555
C90_3 C102_3 1_555 1_555
C102_3 C117_3 1_555 1_555
C155_3 C157_3 1_555 1_555
C155_3 C158_3 1_555 1_555
C161_3 C163_3 1_555 1_555
C163_3 C173_3 1_555 1_555
O13_3 C46_3 1_555 1_555
O15_3 C76_3 1_555 1_555
C30_3 C35_3 1_555 1_555
C35_3 H12_3 1_555 1_555
C36_3 C35_3 1_555 1_555
C42_3 C36_3 1_555 1_555
H14_3 C42_3 1_555 1_555
C46_3 C36_3 1_555 1_555
C76_3 C30_3 1_555 1_555
C85_3 C46_3 1_555 1_555
C93_3 C42_3 1_555 1_555
H66_3 C93_3 1_555 1_555
H67_3 C93_3 1_555 1_555
H68_3 C93_3 1_555 1_555
H96_3 C113_3 1_555 1_555
H97_3 C113_3 1_555 1_555
O22_3 C160_3 1_555 1_555
O24_3 C164_3 1_555 1_555
C151_3 C42_3 1_555 1_555
C153_3 C151_3 1_555 1_555
H131_3 C153_3 1_555 1_555
C156_3 C153_3 1_555 1_555
H134_3 C159_3 1_555 1_555
C160_3 C151_3 1_555 1_555
C164_3 C156_3 1_555 1_555
C167_3 O13_3 1_555 1_555
H139_3 C167_3 1_555 1_555
H140_3 C167_3 1_555 1_555
C168_3 C160_3 1_555 1_555
C170_3 C159_3 1_555 1_555
H142_3 C170_3 1_555 1_555
H143_3 C170_3 1_555 1_555
H145_3 C171_3 1_555 1_555
H146_3 C171_3 1_555 1_555
C177_3 S12_3 1_555 1_555
C76_3 C85_3 1_555 1_555
C85_3 C113_3 1_555 1_555
O22_3 C167_3 1_555 1_555
O24_3 C171_3 1_555 1_555
C156_3 C159_3 1_555 1_555
C164_3 C168_3 1_555 1_555
C168_3 C177_3 1_555 1_555
O13_4 C46_4 1_555 1_555
O15_4 C76_4 1_555 1_555
C30_4 C35_4 1_555 1_555
C35_4 H12_4 1_555 1_555
C36_4 C35_4 1_555 1_555
C42_4 C36_4 1_555 1_555
H14_4 C42_4 1_555 1_555
C46_4 C36_4 1_555 1_555
C76_4 C30_4 1_555 1_555
C85_4 C46_4 1_555 1_555
C93_4 C42_4 1_555 1_555
H66_4 C93_4 1_555 1_555
H67_4 C93_4 1_555 1_555
H68_4 C93_4 1_555 1_555
H96_4 C113_4 1_555 1_555
H97_4 C113_4 1_555 1_555
O22_4 C160_4 1_555 1_555
O24_4 C164_4 1_555 1_555
C151_4 C42_4 1_555 1_555
C153_4 C151_4 1_555 1_555
H131_4 C153_4 1_555 1_555
C156_4 C153_4 1_555 1_555
H134_4 C159_4 1_555 1_555
C160_4 C151_4 1_555 1_555
C164_4 C156_4 1_555 1_555
C167_4 O13_4 1_555 1_555
H139_4 C167_4 1_555 1_555
H140_4 C167_4 1_555 1_555
C168_4 C160_4 1_555 1_555
C170_4 C159_4 1_555 1_555
H142_4 C170_4 1_555 1_555
H143_4 C170_4 1_555 1_555
H145_4 C171_4 1_555 1_555
H146_4 C171_4 1_555 1_555
C177_4 S12_4 1_555 1_555
C76_4 C85_4 1_555 1_555
C85_4 C113_4 1_555 1_555
O22_4 C167_4 1_555 1_555
O24_4 C171_4 1_555 1_555
C156_4 C159_4 1_555 1_555
C164_4 C168_4 1_555 1_555
C168_4 C177_4 1_555 1_555
O14_4 C69_4 1_555 1_555
O16_4 C90_4 1_555 1_555
C18_4 C32_4 1_555 1_555
C32_4 H11_4 1_555 1_555
C37_4 C32_4 1_555 1_555
H24_4 C60_4 1_555 1_555
C69_4 C18_4 1_555 1_555
C90_4 C37_4 1_555 1_555
C99_4 O14_4 1_555 1_555
H75_4 C99_4 1_555 1_555
H76_4 C99_4 1_555 1_555
C102_4 C69_4 1_555 1_555
C107_4 C60_4 1_555 1_555
H87_4 C107_4 1_555 1_555
H88_4 C107_4 1_555 1_555
H93_4 C111_4 1_555 1_555
H94_4 C111_4 1_555 1_555
C117_4 S8_4 1_555 1_555
O21_4 C99_4 1_555 1_555
O23_4 C161_4 1_555 1_555
C152_4 C154_4 1_555 1_555
C154_4 H132_4 1_555 1_555
C155_4 C154_4 1_555 1_555
C157_4 C18_4 1_555 1_555
H133_4 C157_4 1_555 1_555
C158_4 O21_4 1_555 1_555
C161_4 C152_4 1_555 1_555
C163_4 C158_4 1_555 1_555
C166_4 C157_4 1_555 1_555
H136_4 C166_4 1_555 1_555
H137_4 C166_4 1_555 1_555
H138_4 C166_4 1_555 1_555
H148_4 C173_4 1_555 1_555
H149_4 C173_4 1_555 1_555
O16_4 C111_4 1_555 1_555
C37_4 C60_4 1_555 1_555
C90_4 C102_4 1_555 1_555
C102_4 C117_4 1_555 1_555
C155_4 C157_4 1_555 1_555
C155_4 C158_4 1_555 1_555
C161_4 C163_4 1_555 1_555
C163_4 C173_4 1_555 1_555

#END
