
###############################################################################
#
# This file contains modified crystal structure data generated from the
# MOF subset of the Cambridge Structural Database (CSD) v543 
# hosted by the Cambridge Crystallographic Data Centre (CCDC).
#
# This work is licensed under the Creative Commons
# Attribution-NonCommercial-ShareAlike 4.0 International License.
# To view a copy of this license, visit
# http://creativecommons.org/licenses/by-nc-sa/4.0/
# or send a letter to
# Creative Commons, PO Box 1866, Mountain View, CA 94042, USA.
#
# CIF created using the CSD Python API on 29 September 2022
# The structure has been converted into the P1 space group
# The structure has a 3D framework
# The original CSD entry UMOYOM17 is in the rhombohedral crystal system
# The framework has been calculated to contain at least 10.0% void space
# The void calculation uses a probe of radius 1.32A, grid spacing 0.4
# H atom positions have been added when not included in the experimental data
# Generated hydrogen atom positions removed from atoms on special positions
#
###############################################################################

data_UMOYOM17
_chemical_formula_moiety         '(C414 H432 Cu18 O96)n'
_symmetry_cell_setting           triclinic
_symmetry_space_group_name_H-M   'P 1'
_symmetry_Int_Tables_number      1
_space_group_name_Hall           'P 1'
loop_
_symmetry_equiv_pos_site_id
_symmetry_equiv_pos_as_xyz
1 x,y,z
_cell_length_a                   35.852(3)
_cell_length_b                   35.852(3)
_cell_length_c                   15.301(4)
_cell_angle_alpha                90
_cell_angle_beta                 90
_cell_angle_gamma                120
_cell_volume                     17032.5
loop_
_atom_site_label
_atom_site_type_symbol
_atom_site_fract_x
_atom_site_fract_y
_atom_site_fract_z
Cu1 Cu 0.16237(2) 0.32474(3) 0.41775(10)
O1 O 0.22353(10) 0.36933(13) 0.4147(4)
O2 O 0.23119(10) 0.38490(14) 0.2712(4)
O3 O 0.43005(12) 0.56995(12) 0.3477(6)
O4 O 0.16155(16) 0.3231(3) 0.5591(5)
C1 C 0.24539(16) 0.39093(19) 0.3475(6)
C2 C 0.29143(15) 0.42192(16) 0.3627(6)
C3 C 0.3186(2) 0.4488(2) 0.2958(7)
H1 H 0.3073 0.4482 0.2407
C4 C 0.3615(2) 0.4758(2) 0.3117(7)
H2 H 0.3796 0.4919 0.2661
C5 C 0.37836(17) 0.47939(18) 0.3935(6)
C6 C 0.3513(2) 0.4553(2) 0.4592(6)
H3 H 0.3623 0.4581 0.5154
C7 C 0.30860(19) 0.4271(2) 0.4450(6)
H4 H 0.2910 0.4113 0.4914
C8 C 0.42581(17) 0.50675(18) 0.4127(6)
C9 C 0.44580(17) 0.48815(17) 0.4534(6)
H5 H 0.4301 0.4588 0.4655
C10 C 0.48900(15) 0.51100(15) 0.4780(7)
C11 C 0.45016(12) 0.54984(12) 0.3890(7)
C12 C 0.4094(2) 0.5906(2) 0.3839(15)
C13 C 0.3908(3) 0.6092(3) 0.322(2)
C14 C 0.4048(5) 0.5952(5) 0.4774(16)
O5 O 0.36933(13) 0.22353(10) 0.5853(4)
O6 O 0.38490(14) 0.23119(10) 0.7288(4)
O7 O 0.56995(12) 0.43005(12) 0.6523(6)
C15 C 0.39093(19) 0.24539(16) 0.6525(6)
C16 C 0.42192(16) 0.29143(15) 0.6373(6)
C17 C 0.4488(2) 0.3186(2) 0.7042(7)
H6 H 0.4482 0.3073 0.7593
C18 C 0.4758(2) 0.3615(2) 0.6883(7)
H7 H 0.4919 0.3796 0.7339
C19 C 0.47939(18) 0.37836(17) 0.6065(6)
C20 C 0.4553(2) 0.3513(2) 0.5408(6)
H8 H 0.4581 0.3623 0.4846
C21 C 0.4271(2) 0.30860(19) 0.5550(6)
H9 H 0.4113 0.2910 0.5086
C22 C 0.50675(18) 0.42581(17) 0.5873(6)
C23 C 0.48815(17) 0.44580(17) 0.5466(6)
H10 H 0.4588 0.4301 0.5345
C24 C 0.51100(15) 0.48900(15) 0.5220(7)
C25 C 0.54984(12) 0.45016(12) 0.6110(7)
C26 C 0.5906(2) 0.4094(2) 0.6161(15)
C27 C 0.6092(3) 0.3908(3) 0.678(2)
C28 C 0.5952(5) 0.4048(5) 0.5226(16)
O8 O 0.77647(10) 0.63067(13) 0.5853(4)
O9 O 0.76881(10) 0.61510(14) 0.7288(4)
C29 C 0.75461(16) 0.60907(19) 0.6525(6)
C30 C 0.70857(15) 0.57808(16) 0.6373(6)
C31 C 0.6814(2) 0.5512(2) 0.7042(7)
H11 H 0.6927 0.5518 0.7593
C32 C 0.6385(2) 0.5242(2) 0.6883(7)
H12 H 0.6204 0.5081 0.7339
C33 C 0.62164(17) 0.52061(18) 0.6065(6)
C34 C 0.6487(2) 0.5447(2) 0.5408(6)
H13 H 0.6377 0.5419 0.4846
C35 C 0.69140(19) 0.5729(2) 0.5550(6)
H14 H 0.7090 0.5887 0.5086
C36 C 0.57419(17) 0.49325(18) 0.5873(6)
C37 C 0.55420(17) 0.51185(17) 0.5466(6)
H15 H 0.5699 0.5412 0.5345
O10 O 0.63067(13) 0.77647(10) 0.4147(4)
O11 O 0.61510(14) 0.76881(10) 0.2712(4)
C38 C 0.60907(19) 0.75461(16) 0.3475(6)
C39 C 0.57808(16) 0.70857(15) 0.3627(6)
C40 C 0.5512(2) 0.6814(2) 0.2958(7)
H16 H 0.5518 0.6927 0.2407
C41 C 0.5242(2) 0.6385(2) 0.3117(7)
H17 H 0.5081 0.6204 0.2661
C42 C 0.52061(18) 0.62164(17) 0.3935(6)
C43 C 0.5447(2) 0.6487(2) 0.4592(6)
H18 H 0.5419 0.6377 0.5154
C44 C 0.5729(2) 0.69140(19) 0.4450(6)
H19 H 0.5887 0.7090 0.4914
C45 C 0.49325(18) 0.57419(17) 0.4127(6)
C46 C 0.51185(17) 0.55420(17) 0.4534(6)
H20 H 0.5412 0.5699 0.4655
Cu2 Cu 0.67526(3) 0.83763(4) 0.41775(10)
O12 O 0.6769(3) 0.83845(34) 0.5591(5)
Cu3 Cu 0.83763(4) 0.67526(3) 0.58225(10)
Cu4 Cu 0.32474(3) 0.16237(2) 0.58225(10)
Cu5 Cu 0.82904(2) 0.65807(3) 0.75108(10)
Cu6 Cu 0.34193(3) 0.17096(4) 0.75108(10)
Cu7 Cu 0.17096(4) 0.34193(3) 0.24892(10)
Cu8 Cu 0.65807(3) 0.82904(2) 0.24892(10)
O13 O 0.63067(13) 0.85420(16) 0.4147(4)
O14 O 0.14580(16) 0.36933(13) 0.4147(4)
O15 O 0.17962(17) 0.28177(14) 0.3955(4)
O16 O 0.71823(14) 0.89786(10) 0.3955(4)
O17 O 0.10214(10) 0.28177(14) 0.3955(4)
O18 O 0.71823(14) 0.82038(17) 0.3955(4)
H21 H 0.436563 0.613039 0.507234
H22 H 0.387441 0.612559 0.487526
H23 H 0.386961 0.563437 0.507234
H24 H 0.379025 0.560225 0.3839
H27 H 0.366721 0.583677 0.281013
H28 H 0.375796 0.624204 0.358844
H29 H 0.416323 0.633279 0.281013
H32 H 0.583677 0.366721 0.718987
H33 H 0.624204 0.375796 0.641156
H34 H 0.633279 0.416323 0.718987
H35 H 0.613039 0.436563 0.492766
H36 H 0.612559 0.387441 0.512474
H37 H 0.563437 0.386961 0.492766
H38 H 0.560225 0.379025 0.6161
O5_2 O 0.77647(10) 0.14580(16) 0.5853(4)
O6_2 O 0.76881(10) 0.15371(17) 0.7288(4)
O7_2 O 0.56995(12) 0.13990(17) 0.6523(6)
C15_2 C 0.75461(16) 0.14554(25) 0.6525(6)
C16_2 C 0.70857(15) 0.13049(22) 0.6373(6)
C17_2 C 0.6814(2) 0.1302(3) 0.7042(7)
H6_2 H 0.6927 0.1409 0.7593
C18_2 C 0.6385(2) 0.1143(3) 0.6883(7)
H7_2 H 0.6204 0.1123 0.7339
C19_2 C 0.62164(17) 0.10103(25) 0.6065(6)
C20_2 C 0.6487(2) 0.1040(3) 0.5408(6)
H8_2 H 0.6377 0.0958 0.4846
C21_2 C 0.69140(19) 0.11850(28) 0.5550(6)
H9_2 H 0.7090 0.1203 0.5086
C22_2 C 0.57419(17) 0.08094(25) 0.5873(6)
C23_2 C 0.55420(17) 0.04235(24) 0.5466(6)
H10_2 H 0.5699 0.0287 0.5345
C24_2 C 0.51100(15) 0.02200(21) 0.5220(7)
C25_2 C 0.54984(12) 0.09968(17) 0.6110(7)
C26_2 C 0.5906(2) 0.1812(3) 0.6161(15)
C27_2 C 0.6092(3) 0.2184(4) 0.678(2)
C28_2 C 0.5952(5) 0.1904(7) 0.5226(16)
O8_2 O 0.36933(13) 0.14580(16) 0.5853(4)
O9_2 O 0.38490(14) 0.15371(17) 0.7288(4)
C29_2 C 0.39093(19) 0.14554(25) 0.6525(6)
C30_2 C 0.42192(16) 0.13049(22) 0.6373(6)
C31_2 C 0.4488(2) 0.1302(3) 0.7042(7)
H11_2 H 0.4482 0.1409 0.7593
C32_2 C 0.4758(2) 0.1143(3) 0.6883(7)
H12_2 H 0.4919 0.1123 0.7339
C33_2 C 0.47939(18) 0.10103(25) 0.6065(6)
C34_2 C 0.4553(2) 0.1040(3) 0.5408(6)
H13_2 H 0.4581 0.0958 0.4846
C35_2 C 0.4271(2) 0.11850(28) 0.5550(6)
H14_2 H 0.4113 0.1203 0.5086
C36_2 C 0.50675(18) 0.08094(25) 0.5873(6)
C37_2 C 0.48815(17) 0.04235(24) 0.5466(6)
H15_2 H 0.4588 0.0287 0.5345
Cu4_2 Cu 0.83763(2) 0.16237(4) 0.58225(10)
Cu6_2 Cu 0.82904(4) 0.17096(5) 0.75108(10)
H32_2 H 0.633279 0.216956 0.718987
H33_2 H 0.624204 0.248408 0.641156
H34_2 H 0.583677 0.216956 0.718987
H35_2 H 0.563437 0.176475 0.492766
H36_2 H 0.612559 0.225117 0.512474
H37_2 H 0.613039 0.176475 0.492766
H38_2 H 0.620975 0.1812 0.6161
O2_2 O 0.61510(14) 0.84629(17) 0.2712(4)
O3_2 O 0.43005(12) 0.86010(17) 0.3477(6)
C1_2 C 0.60907(19) 0.85446(25) 0.3475(6)
C2_2 C 0.57808(16) 0.86951(22) 0.3627(6)
C3_2 C 0.5512(2) 0.8698(3) 0.2958(7)
H1_2 H 0.5518 0.8591 0.2407
C4_2 C 0.5242(2) 0.8857(3) 0.3117(7)
H2_2 H 0.5081 0.8877 0.2661
C5_2 C 0.52061(18) 0.89897(25) 0.3935(6)
C6_2 C 0.5447(2) 0.8960(3) 0.4592(6)
H3_2 H 0.5419 0.9042 0.5154
C7_2 C 0.5729(2) 0.88150(28) 0.4450(6)
H4_2 H 0.5887 0.8797 0.4914
C8_2 C 0.49325(18) 0.91906(25) 0.4127(6)
C9_2 C 0.51185(17) 0.95765(24) 0.4534(6)
H5_2 H 0.5412 0.9713 0.4655
C10_2 C 0.48900(15) 0.97800(21) 0.4780(7)
C11_2 C 0.45016(12) 0.90032(17) 0.3890(7)
C12_2 C 0.4094(2) 0.8188(3) 0.3839(15)
C13_2 C 0.3908(3) 0.7816(4) 0.322(2)
C14_2 C 0.4048(5) 0.8096(7) 0.4774(16)
O10_2 O 0.22353(10) 0.85420(16) 0.4147(4)
O11_2 O 0.23119(10) 0.84629(17) 0.2712(4)
C38_2 C 0.24539(16) 0.85446(25) 0.3475(6)
C39_2 C 0.29143(15) 0.86951(22) 0.3627(6)
C40_2 C 0.3186(2) 0.8698(3) 0.2958(7)
H16_2 H 0.3073 0.8591 0.2407
C41_2 C 0.3615(2) 0.8857(3) 0.3117(7)
H17_2 H 0.3796 0.8877 0.2661
C42_2 C 0.37836(17) 0.89897(25) 0.3935(6)
C43_2 C 0.3513(2) 0.8960(3) 0.4592(6)
H18_2 H 0.3623 0.9042 0.5154
C44_2 C 0.30860(19) 0.88150(28) 0.4450(6)
H19_2 H 0.2910 0.8797 0.4914
C45_2 C 0.42581(17) 0.91906(25) 0.4127(6)
C46_2 C 0.44580(17) 0.95765(24) 0.4534(6)
H20_2 H 0.4301 0.9713 0.4655
Cu2_2 Cu 0.16237(4) 0.83763(5) 0.41775(10)
O12_2 O 0.16155(34) 0.83845(45) 0.5591(5)
Cu8_2 Cu 0.17096(2) 0.82904(4) 0.24892(10)
O13_2 O 0.14580(16) 0.77647(21) 0.4147(4)
O16_2 O 0.10214(10) 0.82038(17) 0.3955(4)
O18_2 O 0.17962(17) 0.89786(22) 0.3955(4)
H21_2 H 0.386961 0.823525 0.507234
H22_2 H 0.387441 0.774883 0.487526
H23_2 H 0.436563 0.823525 0.507234
H24_2 H 0.439775 0.8188 0.3839
H27_2 H 0.416323 0.783044 0.281013
H28_2 H 0.375796 0.751592 0.358844
H29_2 H 0.366721 0.783044 0.281013
O2_3 O 0.15371(17) 0.76881(10) 0.2712(4)
O3_3 O 0.13990(17) 0.56995(12) 0.3477(6)
C1_3 C 0.14554(25) 0.75461(16) 0.3475(6)
C2_3 C 0.13049(22) 0.70857(15) 0.3627(6)
C3_3 C 0.1302(3) 0.6814(2) 0.2958(7)
H1_3 H 0.1409 0.6927 0.2407
C4_3 C 0.1143(3) 0.6385(2) 0.3117(7)
H2_3 H 0.1123 0.6204 0.2661
C5_3 C 0.10103(25) 0.62164(17) 0.3935(6)
C6_3 C 0.1040(3) 0.6487(2) 0.4592(6)
H3_3 H 0.0958 0.6377 0.5154
C7_3 C 0.11850(28) 0.69140(19) 0.4450(6)
H4_3 H 0.1203 0.7090 0.4914
C8_3 C 0.08094(25) 0.57419(17) 0.4127(6)
C9_3 C 0.04235(24) 0.55420(17) 0.4534(6)
H5_3 H 0.0287 0.5699 0.4655
C10_3 C 0.02200(21) 0.51100(15) 0.4780(7)
C11_3 C 0.09968(17) 0.54984(12) 0.3890(7)
C12_3 C 0.1812(3) 0.5906(2) 0.3839(15)
C13_3 C 0.2184(4) 0.6092(3) 0.322(2)
C14_3 C 0.1904(7) 0.5952(5) 0.4774(16)
O11_3 O 0.15371(17) 0.38490(14) 0.2712(4)
C38_3 C 0.14554(25) 0.39093(19) 0.3475(6)
C39_3 C 0.13049(22) 0.42192(16) 0.3627(6)
C40_3 C 0.1302(3) 0.4488(2) 0.2958(7)
H16_3 H 0.1409 0.4482 0.2407
C41_3 C 0.1143(3) 0.4758(2) 0.3117(7)
H17_3 H 0.1123 0.4919 0.2661
C42_3 C 0.10103(25) 0.47939(18) 0.3935(6)
C43_3 C 0.1040(3) 0.4553(2) 0.4592(6)
H18_3 H 0.0958 0.4581 0.5154
C44_3 C 0.11850(28) 0.4271(2) 0.4450(6)
H19_3 H 0.1203 0.4113 0.4914
C45_3 C 0.08094(25) 0.50675(18) 0.4127(6)
C46_3 C 0.04235(24) 0.48815(17) 0.4534(6)
H20_3 H 0.0287 0.4588 0.4655
H21_3 H 0.176475 0.563437 0.507234
H22_3 H 0.225117 0.612559 0.487526
H23_3 H 0.176475 0.613039 0.507234
H24_3 H 0.1812 0.620975 0.3839
H27_3 H 0.216956 0.633279 0.281013
H28_3 H 0.248408 0.624204 0.358844
H29_3 H 0.216956 0.583677 0.281013
O5_3 O 0.85420(16) 0.63067(13) 0.5853(4)
O6_3 O 0.84629(17) 0.61510(14) 0.7288(4)
O7_3 O 0.86010(17) 0.43005(12) 0.6523(6)
C15_3 C 0.85446(25) 0.60907(19) 0.6525(6)
C16_3 C 0.86951(22) 0.57808(16) 0.6373(6)
C17_3 C 0.8698(3) 0.5512(2) 0.7042(7)
H6_3 H 0.8591 0.5518 0.7593
C18_3 C 0.8857(3) 0.5242(2) 0.6883(7)
H7_3 H 0.8877 0.5081 0.7339
C19_3 C 0.89897(25) 0.52061(18) 0.6065(6)
C20_3 C 0.8960(3) 0.5447(2) 0.5408(6)
H8_3 H 0.9042 0.5419 0.4846
C21_3 C 0.88150(28) 0.5729(2) 0.5550(6)
H9_3 H 0.8797 0.5887 0.5086
C22_3 C 0.91906(25) 0.49325(18) 0.5873(6)
C23_3 C 0.95765(24) 0.51185(17) 0.5466(6)
H10_3 H 0.9713 0.5412 0.5345
C24_3 C 0.97800(21) 0.48900(15) 0.5220(7)
C25_3 C 0.90032(17) 0.45016(12) 0.6110(7)
C26_3 C 0.8188(3) 0.4094(2) 0.6161(15)
C27_3 C 0.7816(4) 0.3908(3) 0.678(2)
C28_3 C 0.8096(7) 0.4048(5) 0.5226(16)
O8_3 O 0.85420(16) 0.22353(10) 0.5853(4)
O9_3 O 0.84629(17) 0.23119(10) 0.7288(4)
C29_3 C 0.85446(25) 0.24539(16) 0.6525(6)
C30_3 C 0.86951(22) 0.29143(15) 0.6373(6)
C31_3 C 0.8698(3) 0.3186(2) 0.7042(7)
H11_3 H 0.8591 0.3073 0.7593
C32_3 C 0.8857(3) 0.3615(2) 0.6883(7)
H12_3 H 0.8877 0.3796 0.7339
C33_3 C 0.89897(25) 0.37836(17) 0.6065(6)
C34_3 C 0.8960(3) 0.3513(2) 0.5408(6)
H13_3 H 0.9042 0.3623 0.4846
C35_3 C 0.88150(28) 0.30860(19) 0.5550(6)
H14_3 H 0.8797 0.2910 0.5086
C36_3 C 0.91906(25) 0.42581(17) 0.5873(6)
C37_3 C 0.95765(24) 0.44580(17) 0.5466(6)
H15_3 H 0.9713 0.4301 0.5345
H32_3 H 0.783044 0.416323 0.718987
H33_3 H 0.751592 0.375796 0.641156
H34_3 H 0.783044 0.366721 0.718987
H35_3 H 0.823525 0.386961 0.492766
H36_3 H 0.774883 0.387441 0.512474
H37_3 H 0.823525 0.436563 0.492766
H38_3 H 0.8188 0.439775 0.6161
O4_2 O 0.83845(34) 0.6769(3) 0.4409(5)
O12_3 O 0.83845(45) 0.16155(34) 0.4409(5)
O15_2 O 0.89786(22) 0.71823(14) 0.6045(4)
O16_3 O 0.82038(17) 0.10214(10) 0.6045(4)
O17_2 O 0.82038(17) 0.71823(14) 0.6045(4)
O18_3 O 0.89786(22) 0.17962(17) 0.6045(4)
O12_4 O 0.3231(3) 0.16155(45) 0.4409(5)
O16_4 O 0.28177(14) 0.17962(17) 0.6045(4)
O18_4 O 0.28177(14) 0.10214(22) 0.6045(4)
O10_3 O 0.29734(13) 0.10980(10) 0.7480(4)
C38_4 C 0.27574(19) 0.08794(16) 0.6808(6)
C39_4 C 0.24475(16) 0.04190(15) 0.6960(6)
C40_4 C 0.2179(2) 0.0147(2) 0.6291(7)
H16_4 H 0.2185 0.0260 0.5740
C44_4 C 0.2396(2) 0.02473(19) 0.7783(6)
H19_4 H 0.2554 0.0423 0.8247
O12_5 O 0.3436(3) 0.17178(34) 0.8924(5)
Cu3_2 Cu 0.50430(4) 0.00859(3) 0.91558(10)
O13_3 O 0.29734(13) 0.18753(16) 0.7480(4)
O6_4 O 0.05157(14) 0.56452(10) 0.0621(4)
C17_4 C 0.1155(2) 0.6519(2) 0.0375(7)
H6_4 H 0.1149 0.6406 0.0926
C18_4 C 0.1425(2) 0.6948(2) 0.0216(7)
H7_4 H 0.1586 0.7129 0.0672
C27_4 C 0.2759(3) 0.7241(3) 0.011(2)
O9_4 O 0.43548(10) 0.94843(14) 0.0621(4)
C31_4 C 0.3481(2) 0.8845(2) 0.0375(7)
H11_4 H 0.3594 0.8851 0.0926
C32_4 C 0.3052(2) 0.8575(2) 0.0216(7)
H12_4 H 0.2871 0.8414 0.0672
Cu5_2 Cu 0.49570(2) 0.99141(3) 0.08442(10)
Cu6_3 Cu 0.00859(3) 0.50430(4) 0.08442(10)
H32_4 H 0.250344 0.700054 0.0523199
H34_4 H 0.299946 0.749656 0.0523199
O3_4 O 0.09672(12) 0.90328(12) 0.6810(6)
C4_4 C 0.0282(2) 0.8091(2) 0.6450(7)
H2_4 H 0.0463 0.8252 0.5994
C5_4 C 0.04503(17) 0.81272(18) 0.7268(6)
C6_4 C 0.0180(2) 0.7886(2) 0.7925(6)
H3_4 H 0.0290 0.7914 0.8487
C8_4 C 0.09248(17) 0.84008(18) 0.7460(6)
C9_4 C 0.11247(17) 0.82148(17) 0.7867(6)
H5_4 H 0.0968 0.7921 0.7988
C10_4 C 0.15567(15) 0.84433(15) 0.8113(7)
C11_4 C 0.11683(12) 0.88317(12) 0.7223(7)
C12_4 C 0.0761(2) 0.9239(2) 0.7172(15)
C13_4 C 0.0575(3) 0.9425(3) 0.655(2)
C14_4 C 0.0715(5) 0.9285(5) 0.8107(16)
O5_4 O 0.03600(13) 0.55686(10) 0.9186(4)
O7_4 O 0.23662(12) 0.76338(12) 0.9856(6)
C15_4 C 0.05760(19) 0.57872(16) 0.9858(6)
C16_4 C 0.08859(16) 0.62476(15) 0.9706(6)
C19_4 C 0.14606(18) 0.71169(17) 0.9398(6)
C20_4 C 0.1220(2) 0.6846(2) 0.8741(6)
H8_4 H 0.1248 0.6956 0.8179
C21_4 C 0.0938(2) 0.64193(19) 0.8883(6)
H9_4 H 0.0780 0.6243 0.8419
C22_4 C 0.17342(18) 0.75914(17) 0.9206(6)
C23_4 C 0.15482(17) 0.77913(17) 0.8799(6)
H10_4 H 0.1255 0.7634 0.8678
C24_4 C 0.17767(15) 0.82233(15) 0.8553(7)
C25_4 C 0.21651(12) 0.78349(12) 0.9443(7)
C26_4 C 0.2573(2) 0.7427(2) 0.9494(15)
C28_4 C 0.2619(5) 0.7381(5) 0.8559(16)
O8_4 O 0.44314(10) 0.96400(13) 0.9186(4)
C29_4 C 0.42128(16) 0.94240(19) 0.9858(6)
C30_4 C 0.37524(15) 0.91141(16) 0.9706(6)
C33_4 C 0.28831(17) 0.85394(18) 0.9398(6)
C34_4 C 0.3154(2) 0.8780(2) 0.8741(6)
H13_4 H 0.3044 0.8752 0.8179
C35_4 C 0.35807(19) 0.9062(2) 0.8883(6)
H14_4 H 0.3757 0.9220 0.8419
C36_4 C 0.24086(17) 0.82658(18) 0.9206(6)
C37_4 C 0.22087(17) 0.84518(17) 0.8799(6)
H15_4 H 0.2366 0.8745 0.8678
C41_4 C 0.1909(2) 0.9718(2) 0.6450(7)
H17_4 H 0.1748 0.9537 0.5994
C42_4 C 0.18728(18) 0.95497(17) 0.7268(6)
C43_4 C 0.2114(2) 0.9820(2) 0.7925(6)
H18_4 H 0.2086 0.9710 0.8487
C45_4 C 0.15992(18) 0.90752(17) 0.7460(6)
C46_4 C 0.17852(17) 0.88753(17) 0.7867(6)
H20_4 H 0.2079 0.9032 0.7988
H21_4 H 0.10323 0.946372 0.840567
H22_4 H 0.0541081 0.945892 0.82086
H23_4 H 0.0536281 0.89677 0.840567
H24_4 H 0.0456918 0.893558 0.717233
H27_4 H 0.0333875 0.917011 0.614347
H28_4 H 0.0424625 0.957538 0.692177
H29_4 H 0.0829894 0.966613 0.614347
H33_4 H 0.290871 0.709129 0.974489
H35_4 H 0.279705 0.769897 0.826099
H36_4 H 0.279225 0.720775 0.845807
H37_4 H 0.230103 0.720295 0.826099
H38_4 H 0.226892 0.712358 0.949433
O1_2 O 0.89020(10) 0.70266(13) 0.7480(4)
O4_3 O 0.82822(16) 0.6564(3) 0.8924(5)
C1_4 C 0.91206(16) 0.72426(19) 0.6808(6)
C2_4 C 0.95810(15) 0.75525(16) 0.6960(6)
C3_4 C 0.9853(2) 0.7821(2) 0.6291(7)
H1_4 H 0.9740 0.7815 0.5740
C7_4 C 0.97527(19) 0.7604(2) 0.7783(6)
H4_4 H 0.9577 0.7446 0.8247
Cu4_3 Cu 0.99141(3) 0.49570(2) 0.91558(10)
O14_2 O 0.81247(16) 0.70266(13) 0.7480(4)
O6_5 O 0.43548(10) 0.48704(17) 0.0621(4)
C17_5 C 0.3481(2) 0.4635(3) 0.0375(7)
H6_5 H 0.3594 0.4742 0.0926
C18_5 C 0.3052(2) 0.4476(3) 0.0216(7)
H7_5 H 0.2871 0.4456 0.0672
C27_5 C 0.2759(3) 0.5517(4) 0.011(2)
O9_5 O 0.05157(14) 0.48704(17) 0.0621(4)
C31_5 C 0.1155(2) 0.4635(3) 0.0375(7)
H11_5 H 0.1149 0.4742 0.0926
C32_5 C 0.1425(2) 0.4476(3) 0.0216(7)
H12_5 H 0.1586 0.4456 0.0672
Cu6_4 Cu 0.49570(4) 0.50430(5) 0.08442(10)
H32_5 H 0.299946 0.55029 0.0523199
H34_5 H 0.250344 0.55029 0.0523199
O3_5 O 0.09672(12) 0.19343(17) 0.6810(6)
C1_5 C 0.27574(19) 0.18779(25) 0.6808(6)
C2_5 C 0.24475(16) 0.20284(22) 0.6960(6)
C3_5 C 0.2179(2) 0.2031(3) 0.6291(7)
H1_5 H 0.2185 0.1924 0.5740
C4_5 C 0.1909(2) 0.2190(3) 0.6450(7)
H2_5 H 0.1748 0.2210 0.5994
C5_5 C 0.18728(18) 0.23230(25) 0.7268(6)
C6_5 C 0.2114(2) 0.2293(3) 0.7925(6)
H3_5 H 0.2086 0.2375 0.8487
C7_5 C 0.2396(2) 0.21483(28) 0.7783(6)
H4_5 H 0.2554 0.2130 0.8247
C8_5 C 0.15992(18) 0.25239(25) 0.7460(6)
C9_5 C 0.17852(17) 0.29098(24) 0.7867(6)
H5_5 H 0.2079 0.3046 0.7988
C10_5 C 0.15567(15) 0.31133(21) 0.8113(7)
C11_5 C 0.11683(12) 0.23365(17) 0.7223(7)
C12_5 C 0.0761(2) 0.1521(3) 0.7172(15)
C13_5 C 0.0575(3) 0.1149(4) 0.655(2)
C14_5 C 0.0715(5) 0.1429(7) 0.8107(16)
O5_5 O 0.44314(10) 0.47913(16) 0.9186(4)
O7_5 O 0.23662(12) 0.47323(17) 0.9856(6)
C15_5 C 0.42128(16) 0.47887(25) 0.9858(6)
C16_5 C 0.37524(15) 0.46382(22) 0.9706(6)
C19_5 C 0.28831(17) 0.43436(25) 0.9398(6)
C20_5 C 0.3154(2) 0.4373(3) 0.8741(6)
H8_5 H 0.3044 0.4291 0.8179
C21_5 C 0.35807(19) 0.45183(28) 0.8883(6)
H9_5 H 0.3757 0.4536 0.8419
C22_5 C 0.24086(17) 0.41427(25) 0.9206(6)
C23_5 C 0.22087(17) 0.37568(24) 0.8799(6)
H10_5 H 0.2366 0.3620 0.8678
C24_5 C 0.17767(15) 0.35533(21) 0.8553(7)
C25_5 C 0.21651(12) 0.43301(17) 0.9443(7)
C26_5 C 0.2573(2) 0.5145(3) 0.9494(15)
C28_5 C 0.2619(5) 0.5237(7) 0.8559(16)
O8_5 O 0.03600(13) 0.47913(16) 0.9186(4)
C29_5 C 0.05760(19) 0.47887(25) 0.9858(6)
C30_5 C 0.08859(16) 0.46382(22) 0.9706(6)
C33_5 C 0.14606(18) 0.43436(25) 0.9398(6)
C34_5 C 0.1220(2) 0.4373(3) 0.8741(6)
H13_5 H 0.1248 0.4291 0.8179
C35_5 C 0.0938(2) 0.45183(28) 0.8883(6)
H14_5 H 0.0780 0.4536 0.8419
C36_5 C 0.17342(18) 0.41427(25) 0.9206(6)
C37_5 C 0.15482(17) 0.37568(24) 0.8799(6)
H15_5 H 0.1255 0.3620 0.8678
C41_5 C 0.0282(2) 0.2190(3) 0.6450(7)
H17_5 H 0.0463 0.2210 0.5994
C42_5 C 0.04503(17) 0.23230(25) 0.7268(6)
C43_5 C 0.0180(2) 0.2293(3) 0.7925(6)
H18_5 H 0.0290 0.2375 0.8487
C45_5 C 0.09248(17) 0.25239(25) 0.7460(6)
C46_5 C 0.11247(17) 0.29098(24) 0.7867(6)
H20_5 H 0.0968 0.3046 0.7988
Cu4_4 Cu 0.50430(2) 0.49570(4) 0.91558(10)
H21_5 H 0.0536281 0.156858 0.840567
H22_5 H 0.0541081 0.108216 0.82086
H23_5 H 0.10323 0.156858 0.840567
H24_5 H 0.106442 0.152133 0.717233
H27_5 H 0.0829894 0.116377 0.614347
H28_5 H 0.0424625 0.0849249 0.692177
H29_5 H 0.0333875 0.116377 0.614347
H33_5 H 0.290871 0.581742 0.974489
H35_5 H 0.230103 0.509809 0.826099
H36_5 H 0.279225 0.55845 0.845807
H37_5 H 0.279705 0.509809 0.826099
H38_5 H 0.287642 0.514533 0.949433
O10_4 O 0.89020(10) 0.18753(16) 0.7480(4)
C38_5 C 0.91206(16) 0.18779(25) 0.6808(6)
C39_5 C 0.95810(15) 0.20284(22) 0.6960(6)
C40_5 C 0.9853(2) 0.2031(3) 0.6291(7)
H16_5 H 0.9740 0.1924 0.5740
C44_5 C 0.97527(19) 0.21483(28) 0.7783(6)
H19_5 H 0.9577 0.2130 0.8247
O12_6 O 0.82822(34) 0.17178(45) 0.8924(5)
O13_4 O 0.81247(16) 0.10980(21) 0.7480(4)
C1_6 C 0.81221(25) 0.08794(16) 0.6808(6)
C2_6 C 0.79716(22) 0.04190(15) 0.6960(6)
C3_6 C 0.7969(3) 0.0147(2) 0.6291(7)
H1_6 H 0.8076 0.0260 0.5740
C7_6 C 0.78517(28) 0.02473(19) 0.7783(6)
H4_6 H 0.7870 0.0423 0.8247
O6_6 O 0.51296(17) 0.94843(14) 0.0621(4)
C17_6 C 0.5365(3) 0.8845(2) 0.0375(7)
H6_6 H 0.5258 0.8851 0.0926
C18_6 C 0.5524(3) 0.8575(2) 0.0216(7)
H7_6 H 0.5544 0.8414 0.0672
C27_6 C 0.4483(4) 0.7241(3) 0.011(2)
O9_6 O 0.51296(17) 0.56452(10) 0.0621(4)
C31_6 C 0.5365(3) 0.6519(2) 0.0375(7)
H11_6 H 0.5258 0.6406 0.0926
C32_6 C 0.5524(3) 0.6948(2) 0.0216(7)
H12_6 H 0.5544 0.7129 0.0672
H32_6 H 0.44971 0.749656 0.0523199
H34_6 H 0.44971 0.700054 0.0523199
O3_6 O 0.80657(17) 0.90328(12) 0.6810(6)
C4_6 C 0.7810(3) 0.9718(2) 0.6450(7)
H2_6 H 0.7790 0.9537 0.5994
C5_6 C 0.76770(25) 0.95497(17) 0.7268(6)
C6_6 C 0.7707(3) 0.9820(2) 0.7925(6)
H3_6 H 0.7625 0.9710 0.8487
C8_6 C 0.74761(25) 0.90752(17) 0.7460(6)
C9_6 C 0.70902(24) 0.88753(17) 0.7867(6)
H5_6 H 0.6954 0.9032 0.7988
C10_6 C 0.68867(21) 0.84433(15) 0.8113(7)
C11_6 C 0.76635(17) 0.88317(12) 0.7223(7)
C12_6 C 0.8479(3) 0.9239(2) 0.7172(15)
C13_6 C 0.8851(4) 0.9425(3) 0.655(2)
C14_6 C 0.8571(7) 0.9285(5) 0.8107(16)
O5_6 O 0.52087(16) 0.96400(13) 0.9186(4)
O7_6 O 0.52677(17) 0.76338(12) 0.9856(6)
C15_6 C 0.52113(25) 0.94240(19) 0.9858(6)
C16_6 C 0.53618(22) 0.91141(16) 0.9706(6)
C19_6 C 0.56564(25) 0.85394(18) 0.9398(6)
C20_6 C 0.5627(3) 0.8780(2) 0.8741(6)
H8_6 H 0.5709 0.8752 0.8179
C21_6 C 0.54817(28) 0.9062(2) 0.8883(6)
H9_6 H 0.5464 0.9220 0.8419
C22_6 C 0.58573(25) 0.82658(18) 0.9206(6)
C23_6 C 0.62432(24) 0.84518(17) 0.8799(6)
H10_6 H 0.6380 0.8745 0.8678
C24_6 C 0.64467(21) 0.82233(15) 0.8553(7)
C25_6 C 0.56699(17) 0.78349(12) 0.9443(7)
C26_6 C 0.4855(3) 0.7427(2) 0.9494(15)
C28_6 C 0.4763(7) 0.7381(5) 0.8559(16)
O8_6 O 0.52087(16) 0.55686(10) 0.9186(4)
C29_6 C 0.52113(25) 0.57872(16) 0.9858(6)
C30_6 C 0.53618(22) 0.62476(15) 0.9706(6)
C33_6 C 0.56564(25) 0.71169(17) 0.9398(6)
C34_6 C 0.5627(3) 0.6846(2) 0.8741(6)
H13_6 H 0.5709 0.6956 0.8179
C35_6 C 0.54817(28) 0.64193(19) 0.8883(6)
H14_6 H 0.5464 0.6243 0.8419
C36_6 C 0.58573(25) 0.75914(17) 0.9206(6)
C37_6 C 0.62432(24) 0.77913(17) 0.8799(6)
H15_6 H 0.6380 0.7634 0.8678
C38_6 C 0.81221(25) 0.72426(19) 0.6808(6)
C39_6 C 0.79716(22) 0.75525(16) 0.6960(6)
C40_6 C 0.7969(3) 0.7821(2) 0.6291(7)
H16_6 H 0.8076 0.7815 0.5740
C41_6 C 0.7810(3) 0.8091(2) 0.6450(7)
H17_6 H 0.7790 0.8252 0.5994
C42_6 C 0.76770(25) 0.81272(18) 0.7268(6)
C43_6 C 0.7707(3) 0.7886(2) 0.7925(6)
H18_6 H 0.7625 0.7914 0.8487
C44_6 C 0.78517(28) 0.7604(2) 0.7783(6)
H19_6 H 0.7870 0.7446 0.8247
C45_6 C 0.74761(25) 0.84008(18) 0.7460(6)
C46_6 C 0.70902(24) 0.82148(17) 0.7867(6)
H20_6 H 0.6954 0.7921 0.7988
H21_6 H 0.843142 0.89677 0.840567
H22_6 H 0.891784 0.945892 0.82086
H23_6 H 0.843142 0.946372 0.840567
H24_6 H 0.847867 0.954308 0.717233
H27_6 H 0.883623 0.966613 0.614347
H28_6 H 0.915075 0.957538 0.692177
H29_6 H 0.883623 0.917011 0.614347
H33_6 H 0.418258 0.709129 0.974489
H35_6 H 0.490191 0.720295 0.826099
H36_6 H 0.44155 0.720775 0.845807
H37_6 H 0.490191 0.769897 0.826099
H38_6 H 0.485467 0.773108 0.949433
O4_4 O 0.50512(34) 0.0102(3) 0.7742(5)
O15_3 O 0.56452(22) 0.05157(14) 0.9379(4)
O17_3 O 0.48704(17) 0.05157(14) 0.9379(4)
O12_7 O 0.50512(45) 0.49488(34) 0.7742(5)
O16_5 O 0.48704(17) 0.43548(10) 0.9379(4)
O18_5 O 0.56452(22) 0.51296(17) 0.9379(4)
H25 H 0.484005 0.981338 0.751214
O12_8 O 0.9898(3) 0.49488(45) 0.7742(5)
O16_6 O 0.94843(14) 0.51296(17) 0.9379(4)
O18_6 O 0.94843(14) 0.43548(22) 0.9379(4)
H25_2 H 0.0186622 0.502667 0.751214
O8_7 O 0.10980(10) 0.29734(13) 0.2520(4)
C29_7 C 0.08794(16) 0.27574(19) 0.3192(6)
C30_7 C 0.04190(15) 0.24475(16) 0.3040(6)
C31_7 C 0.0147(2) 0.2179(2) 0.3709(7)
H11_7 H 0.0260 0.2185 0.4260
C35_7 C 0.02473(19) 0.2396(2) 0.2217(6)
H14_7 H 0.0423 0.2554 0.1753
O12_9 O 0.0102(3) 0.50512(34) 0.2258(5)
O1_3 O 0.55686(10) 0.03600(13) 0.0814(4)
O3_7 O 0.76338(12) 0.23662(12) 0.0144(6)
C1_7 C 0.57872(16) 0.05760(19) 0.0142(6)
C2_7 C 0.62476(15) 0.08859(16) 0.0294(6)
C5_7 C 0.71169(17) 0.14606(18) 0.0602(6)
C6_7 C 0.6846(2) 0.1220(2) 0.1259(6)
H3_7 H 0.6956 0.1248 0.1821
C7_7 C 0.64193(19) 0.0938(2) 0.1117(6)
H4_7 H 0.6243 0.0780 0.1581
C8_7 C 0.75914(17) 0.17342(18) 0.0794(6)
C9_7 C 0.77913(17) 0.15482(17) 0.1201(6)
H5_7 H 0.7634 0.1255 0.1322
C10_7 C 0.82233(15) 0.17767(15) 0.1447(7)
C11_7 C 0.78349(12) 0.21651(12) 0.0557(7)
C12_7 C 0.7427(2) 0.2573(2) 0.0506(15)
C14_7 C 0.7381(5) 0.2619(5) 0.1441(16)
O7_7 O 0.90328(12) 0.09672(12) 0.3190(6)
C18_7 C 0.8091(2) 0.0282(2) 0.3550(7)
H7_7 H 0.8252 0.0463 0.4006
C19_7 C 0.81272(18) 0.04503(17) 0.2732(6)
C20_7 C 0.7886(2) 0.0180(2) 0.2075(6)
H8_7 H 0.7914 0.0290 0.1513
C22_7 C 0.84008(18) 0.09248(17) 0.2540(6)
C23_7 C 0.82148(17) 0.11247(17) 0.2133(6)
H10_7 H 0.7921 0.0968 0.2012
C24_7 C 0.84433(15) 0.15567(15) 0.1887(7)
C25_7 C 0.88317(12) 0.11683(12) 0.2777(7)
C26_7 C 0.9239(2) 0.0761(2) 0.2828(15)
C27_7 C 0.9425(3) 0.0575(3) 0.345(2)
C28_7 C 0.9285(5) 0.0715(5) 0.1893(16)
C32_7 C 0.9718(2) 0.1909(2) 0.3550(7)
H12_7 H 0.9537 0.1748 0.4006
C33_7 C 0.95497(17) 0.18728(18) 0.2732(6)
C34_7 C 0.9820(2) 0.2114(2) 0.2075(6)
H13_7 H 0.9710 0.2086 0.1513
C36_7 C 0.90752(17) 0.15992(18) 0.2540(6)
C37_7 C 0.88753(17) 0.17852(17) 0.2133(6)
H15_7 H 0.9032 0.2079 0.2012
O10_5 O 0.96400(13) 0.44314(10) 0.0814(4)
C38_7 C 0.94240(19) 0.42128(16) 0.0142(6)
C39_7 C 0.91141(16) 0.37524(15) 0.0294(6)
C42_7 C 0.85394(18) 0.28831(17) 0.0602(6)
C43_7 C 0.8780(2) 0.3154(2) 0.1259(6)
H18_7 H 0.8752 0.3044 0.1821
C44_7 C 0.9062(2) 0.35807(19) 0.1117(6)
H19_7 H 0.9220 0.3757 0.1581
C45_7 C 0.82658(18) 0.24086(17) 0.0794(6)
C46_7 C 0.84518(17) 0.22087(17) 0.1201(6)
H20_7 H 0.8745 0.2366 0.1322
O13_5 O 0.96400(13) 0.52087(16) 0.0814(4)
O14_3 O 0.47913(16) 0.03600(13) 0.0814(4)
H21_7 H 0.769897 0.279705 0.173901
H22_7 H 0.720775 0.279225 0.154193
H23_7 H 0.720295 0.230103 0.173901
H24_7 H 0.712358 0.226892 0.0505667
H25_3 H 0.502667 0.0186622 0.248786
H28_7 H 0.709129 0.290871 0.0255105
H32_7 H 0.917011 0.0333875 0.385653
H33_7 H 0.957538 0.0424625 0.307823
H34_7 H 0.966613 0.0829894 0.385653
H35_7 H 0.946372 0.10323 0.159433
H36_7 H 0.945892 0.0541081 0.17914
H37_7 H 0.89677 0.0536281 0.159433
H38_7 H 0.893558 0.0456918 0.282767
C3_7 C 0.6519(2) 0.1155(2) 0.9625(7)
H1_7 H 0.6406 0.1149 0.9074
C4_7 C 0.6948(2) 0.1425(2) 0.9784(7)
H2_7 H 0.7129 0.1586 0.9328
C13_7 C 0.7241(3) 0.2759(3) 0.989(2)
C40_7 C 0.8845(2) 0.3481(2) 0.9625(7)
H16_7 H 0.8851 0.3594 0.9074
C41_7 C 0.8575(2) 0.3052(2) 0.9784(7)
H17_7 H 0.8414 0.2871 0.9328
H27_7 H 0.700054 0.250344 0.94768
H29_7 H 0.749656 0.299946 0.94768
O4_5 O 0.49488(16) 0.9898(3) 0.2258(5)
O5_7 O 0.70266(13) 0.89020(10) 0.2520(4)
C15_7 C 0.72426(19) 0.91206(16) 0.3192(6)
C16_7 C 0.75525(16) 0.95810(15) 0.3040(6)
C17_7 C 0.7821(2) 0.9853(2) 0.3709(7)
H6_7 H 0.7815 0.9740 0.4260
C21_7 C 0.7604(2) 0.97527(19) 0.2217(6)
H9_7 H 0.7446 0.9577 0.1753
O5_8 O 0.10980(10) 0.81247(16) 0.2520(4)
C15_8 C 0.08794(16) 0.81221(25) 0.3192(6)
C16_8 C 0.04190(15) 0.79716(22) 0.3040(6)
C17_8 C 0.0147(2) 0.7969(3) 0.3709(7)
H6_8 H 0.0260 0.8076 0.4260
C21_8 C 0.02473(19) 0.78517(28) 0.2217(6)
H9_8 H 0.0423 0.7870 0.1753
O3_8 O 0.76338(12) 0.52677(17) 0.0144(6)
C1_8 C 0.94240(19) 0.52113(25) 0.0142(6)
C2_8 C 0.91141(16) 0.53618(22) 0.0294(6)
C5_8 C 0.85394(18) 0.56564(25) 0.0602(6)
C6_8 C 0.8780(2) 0.5627(3) 0.1259(6)
H3_8 H 0.8752 0.5709 0.1821
C7_8 C 0.9062(2) 0.54817(28) 0.1117(6)
H4_8 H 0.9220 0.5464 0.1581
C8_8 C 0.82658(18) 0.58573(25) 0.0794(6)
C9_8 C 0.84518(17) 0.62432(24) 0.1201(6)
H5_8 H 0.8745 0.6380 0.1322
C10_8 C 0.82233(15) 0.64467(21) 0.1447(7)
C11_8 C 0.78349(12) 0.56699(17) 0.0557(7)
C12_8 C 0.7427(2) 0.4855(3) 0.0506(15)
C14_8 C 0.7381(5) 0.4763(7) 0.1441(16)
O7_8 O 0.90328(12) 0.80657(17) 0.3190(6)
C18_8 C 0.9718(2) 0.7810(3) 0.3550(7)
H7_8 H 0.9537 0.7790 0.4006
C19_8 C 0.95497(17) 0.76770(25) 0.2732(6)
C20_8 C 0.9820(2) 0.7707(3) 0.2075(6)
H8_8 H 0.9710 0.7625 0.1513
C22_8 C 0.90752(17) 0.74761(25) 0.2540(6)
C23_8 C 0.88753(17) 0.70902(24) 0.2133(6)
H10_8 H 0.9032 0.6954 0.2012
C24_8 C 0.84433(15) 0.68867(21) 0.1887(7)
C25_8 C 0.88317(12) 0.76635(17) 0.2777(7)
C26_8 C 0.9239(2) 0.8479(3) 0.2828(15)
C27_8 C 0.9425(3) 0.8851(4) 0.345(2)
C28_8 C 0.9285(5) 0.8571(7) 0.1893(16)
O8_8 O 0.70266(13) 0.81247(16) 0.2520(4)
C29_8 C 0.72426(19) 0.81221(25) 0.3192(6)
C30_8 C 0.75525(16) 0.79716(22) 0.3040(6)
C31_8 C 0.7821(2) 0.7969(3) 0.3709(7)
H11_8 H 0.7815 0.8076 0.4260
C32_8 C 0.8091(2) 0.7810(3) 0.3550(7)
H12_8 H 0.8252 0.7790 0.4006
C33_8 C 0.81272(18) 0.76770(25) 0.2732(6)
C34_8 C 0.7886(2) 0.7707(3) 0.2075(6)
H13_8 H 0.7914 0.7625 0.1513
C35_8 C 0.7604(2) 0.78517(28) 0.2217(6)
H14_8 H 0.7446 0.7870 0.1753
C36_8 C 0.84008(18) 0.74761(25) 0.2540(6)
C37_8 C 0.82148(17) 0.70902(24) 0.2133(6)
H15_8 H 0.7921 0.6954 0.2012
O10_6 O 0.55686(10) 0.52087(16) 0.0814(4)
C38_8 C 0.57872(16) 0.52113(25) 0.0142(6)
C39_8 C 0.62476(15) 0.53618(22) 0.0294(6)
C42_8 C 0.71169(17) 0.56564(25) 0.0602(6)
C43_8 C 0.6846(2) 0.5627(3) 0.1259(6)
H18_8 H 0.6956 0.5709 0.1821
C44_8 C 0.64193(19) 0.54817(28) 0.1117(6)
H19_8 H 0.6243 0.5464 0.1581
C45_8 C 0.75914(17) 0.58573(25) 0.0794(6)
C46_8 C 0.77913(17) 0.62432(24) 0.1201(6)
H20_8 H 0.7634 0.6380 0.1322
O12_10 O 0.49488(34) 0.50512(45) 0.2258(5)
O13_6 O 0.47913(16) 0.44314(21) 0.0814(4)
H21_8 H 0.720295 0.490191 0.173901
H22_8 H 0.720775 0.44155 0.154193
H23_8 H 0.769897 0.490191 0.173901
H24_8 H 0.773108 0.485467 0.0505667
H25_4 H 0.981338 0.484005 0.248786
H28_8 H 0.709129 0.418258 0.0255105
H32_8 H 0.966613 0.883623 0.385653
H33_8 H 0.957538 0.915075 0.307823
H34_8 H 0.917011 0.883623 0.385653
H35_8 H 0.89677 0.843142 0.159433
H36_8 H 0.945892 0.891784 0.17914
H37_8 H 0.946372 0.843142 0.159433
H38_8 H 0.954308 0.847867 0.282767
C3_8 C 0.8845(2) 0.5365(3) 0.9625(7)
H1_8 H 0.8851 0.5258 0.9074
C4_8 C 0.8575(2) 0.5524(3) 0.9784(7)
H2_8 H 0.8414 0.5544 0.9328
C13_8 C 0.7241(3) 0.4483(4) 0.989(2)
C40_8 C 0.6519(2) 0.5365(3) 0.9625(7)
H16_8 H 0.6406 0.5258 0.9074
C41_8 C 0.6948(2) 0.5524(3) 0.9784(7)
H17_8 H 0.7129 0.5544 0.9328
H27_8 H 0.749656 0.44971 0.94768
H29_8 H 0.700054 0.44971 0.94768
O3_9 O 0.47323(17) 0.23662(12) 0.0144(6)
C1_9 C 0.47887(25) 0.42128(16) 0.0142(6)
C2_9 C 0.46382(22) 0.37524(15) 0.0294(6)
C5_9 C 0.43436(25) 0.28831(17) 0.0602(6)
C6_9 C 0.4373(3) 0.3154(2) 0.1259(6)
H3_9 H 0.4291 0.3044 0.1821
C7_9 C 0.45183(28) 0.35807(19) 0.1117(6)
H4_9 H 0.4536 0.3757 0.1581
C8_9 C 0.41427(25) 0.24086(17) 0.0794(6)
C9_9 C 0.37568(24) 0.22087(17) 0.1201(6)
H5_9 H 0.3620 0.2366 0.1322
C10_9 C 0.35533(21) 0.17767(15) 0.1447(7)
C11_9 C 0.43301(17) 0.21651(12) 0.0557(7)
C12_9 C 0.5145(3) 0.2573(2) 0.0506(15)
C14_9 C 0.5237(7) 0.2619(5) 0.1441(16)
O5_9 O 0.18753(16) 0.29734(13) 0.2520(4)
O7_9 O 0.19343(17) 0.09672(12) 0.3190(6)
C15_9 C 0.18779(25) 0.27574(19) 0.3192(6)
C16_9 C 0.20284(22) 0.24475(16) 0.3040(6)
C17_9 C 0.2031(3) 0.2179(2) 0.3709(7)
H6_9 H 0.1924 0.2185 0.4260
C18_9 C 0.2190(3) 0.1909(2) 0.3550(7)
H7_9 H 0.2210 0.1748 0.4006
C19_9 C 0.23230(25) 0.18728(18) 0.2732(6)
C20_9 C 0.2293(3) 0.2114(2) 0.2075(6)
H8_9 H 0.2375 0.2086 0.1513
C21_9 C 0.21483(28) 0.2396(2) 0.2217(6)
H9_9 H 0.2130 0.2554 0.1753
C22_9 C 0.25239(25) 0.15992(18) 0.2540(6)
C23_9 C 0.29098(24) 0.17852(17) 0.2133(6)
H10_9 H 0.3046 0.2079 0.2012
C24_9 C 0.31133(21) 0.15567(15) 0.1887(7)
C25_9 C 0.23365(17) 0.11683(12) 0.2777(7)
C26_9 C 0.1521(3) 0.0761(2) 0.2828(15)
C27_9 C 0.1149(4) 0.0575(3) 0.345(2)
C28_9 C 0.1429(7) 0.0715(5) 0.1893(16)
C32_9 C 0.2190(3) 0.0282(2) 0.3550(7)
H12_9 H 0.2210 0.0463 0.4006
C33_9 C 0.23230(25) 0.04503(17) 0.2732(6)
C34_9 C 0.2293(3) 0.0180(2) 0.2075(6)
H13_9 H 0.2375 0.0290 0.1513
C36_9 C 0.25239(25) 0.09248(17) 0.2540(6)
C37_9 C 0.29098(24) 0.11247(17) 0.2133(6)
H15_9 H 0.3046 0.0968 0.2012
C38_9 C 0.47887(25) 0.05760(19) 0.0142(6)
C39_9 C 0.46382(22) 0.08859(16) 0.0294(6)
C42_9 C 0.43436(25) 0.14606(18) 0.0602(6)
C43_9 C 0.4373(3) 0.1220(2) 0.1259(6)
H18_9 H 0.4291 0.1248 0.1821
C44_9 C 0.45183(28) 0.0938(2) 0.1117(6)
H19_9 H 0.4536 0.0780 0.1581
C45_9 C 0.41427(25) 0.17342(18) 0.0794(6)
C46_9 C 0.37568(24) 0.15482(17) 0.1201(6)
H20_9 H 0.3620 0.1255 0.1322
H21_9 H 0.509809 0.230103 0.173901
H22_9 H 0.55845 0.279225 0.154193
H23_9 H 0.509809 0.279705 0.173901
H24_9 H 0.514533 0.287642 0.0505667
H28_9 H 0.581742 0.290871 0.0255105
H32_9 H 0.116377 0.0829894 0.385653
H33_9 H 0.0849249 0.0424625 0.307823
H34_9 H 0.116377 0.0333875 0.385653
H35_9 H 0.156858 0.0536281 0.159433
H36_9 H 0.108216 0.0541081 0.17914
H37_9 H 0.156858 0.10323 0.159433
H38_9 H 0.152133 0.106442 0.282767
C3_9 C 0.4635(3) 0.3481(2) 0.9625(7)
H1_9 H 0.4742 0.3594 0.9074
C4_9 C 0.4476(3) 0.3052(2) 0.9784(7)
H2_9 H 0.4456 0.2871 0.9328
C13_9 C 0.5517(4) 0.2759(3) 0.989(2)
C40_9 C 0.4635(3) 0.1155(2) 0.9625(7)
H16_9 H 0.4742 0.1149 0.9074
C41_9 C 0.4476(3) 0.1425(2) 0.9784(7)
H17_9 H 0.4456 0.1586 0.9328
H27_9 H 0.55029 0.299946 0.94768
H29_9 H 0.55029 0.250344 0.94768
O8_9 O 0.18753(16) 0.89020(10) 0.2520(4)
C29_9 C 0.18779(25) 0.91206(16) 0.3192(6)
C30_9 C 0.20284(22) 0.95810(15) 0.3040(6)
C31_9 C 0.2031(3) 0.9853(2) 0.3709(7)
H11_9 H 0.1924 0.9740 0.4260
C35_9 C 0.21483(28) 0.97527(19) 0.2217(6)
H14_9 H 0.2130 0.9577 0.1753
O4_6 O 0.17178(34) 0.3436(3) 0.1076(5)
O12_11 O 0.17178(45) 0.82822(34) 0.1076(5)
O12_12 O 0.6564(3) 0.82822(45) 0.1076(5)
H24_10 H 0.620975 0.439775 0.6161
H38_10 H 0.439775 0.620975 0.3839
H24_11 H 0.560225 0.1812 0.6161
H38_11 H 0.379025 0.8188 0.3839
H38_12 H 0.1812 0.560225 0.3839
H24_12 H 0.8188 0.379025 0.6161
H24_13 H 0.954308 0.106442 0.282767
H38_13 H 0.773108 0.287642 0.0505667
H24_14 H 0.893558 0.847867 0.282767
H38_14 H 0.712358 0.485467 0.0505667
H24_15 H 0.152133 0.0456918 0.282767
H38_15 H 0.514533 0.226892 0.0505667
H25_5 H 0.515995 0.0186622 0.248786
H25_6 H 0.981338 0.497333 0.248786
H24_16 H 0.287642 0.773108 0.949433
H25_7 H 0.497333 0.981338 0.751214
H38_16 H 0.106442 0.954308 0.717233
H24_17 H 0.226892 0.514533 0.949433
H25_8 H 0.0186622 0.515995 0.751214
H38_17 H 0.0456918 0.152133 0.717233
H24_18 H 0.485467 0.712358 0.949433
H38_18 H 0.847867 0.893558 0.717233
loop_
_geom_bond_atom_site_label_1
_geom_bond_atom_site_label_2
_geom_bond_site_symmetry_1
_geom_bond_site_symmetry_2
Cu1 O1 1_555 1_555
O1 C1 1_555 1_555
O2 C1 1_555 1_555
O3 C11 1_555 1_555
O4 Cu1 1_555 1_555
C1 C2 1_555 1_555
C2 C3 1_555 1_555
C3 H1 1_555 1_555
C4 C3 1_555 1_555
H2 C4 1_555 1_555
C5 C4 1_555 1_555
C6 C5 1_555 1_555
H3 C6 1_555 1_555
C7 C2 1_555 1_555
H4 C7 1_555 1_555
C8 C5 1_555 1_555
C9 C8 1_555 1_555
H5 C9 1_555 1_555
C10 C9 1_555 1_555
C11 C8 1_555 1_555
C12 O3 1_555 1_555
C13 C12 1_555 1_555
C14 C12 1_555 1_555
O5 C15 1_555 1_555
O6 C15 1_555 1_555
O7 C25 1_555 1_555
C15 C16 1_555 1_555
C16 C17 1_555 1_555
C17 H6 1_555 1_555
C18 C17 1_555 1_555
H7 C18 1_555 1_555
C19 C18 1_555 1_555
C20 C19 1_555 1_555
H8 C20 1_555 1_555
C21 C16 1_555 1_555
H9 C21 1_555 1_555
C22 C19 1_555 1_555
C23 C22 1_555 1_555
H10 C23 1_555 1_555
C24 C10 1_555 1_555
C25 C22 1_555 1_555
C26 O7 1_555 1_555
C27 C26 1_555 1_555
C28 C26 1_555 1_555
O8 C29 1_555 1_555
O9 C29 1_555 1_555
C29 C30 1_555 1_555
C30 C31 1_555 1_555
C31 H11 1_555 1_555
C32 C31 1_555 1_555
H12 C32 1_555 1_555
C33 C32 1_555 1_555
C34 C33 1_555 1_555
H13 C34 1_555 1_555
C35 C30 1_555 1_555
H14 C35 1_555 1_555
C36 C25 1_555 1_555
C37 C24 1_555 1_555
H15 C37 1_555 1_555
O10 C38 1_555 1_555
O11 C38 1_555 1_555
C38 C39 1_555 1_555
C39 C40 1_555 1_555
C40 H16 1_555 1_555
C41 C40 1_555 1_555
H17 C41 1_555 1_555
C42 C41 1_555 1_555
C43 C42 1_555 1_555
H18 C43 1_555 1_555
C44 C39 1_555 1_555
H19 C44 1_555 1_555
C45 C11 1_555 1_555
C46 C10 1_555 1_555
H20 C46 1_555 1_555
Cu2 O10 1_555 1_555
O12 Cu2 1_555 1_555
Cu3 O8 1_555 1_555
Cu4 O5 1_555 1_555
Cu5 O9 1_555 1_555
Cu6 O6 1_555 1_555
Cu7 O2 1_555 1_555
Cu8 O11 1_555 1_555
O13 Cu2 1_555 1_555
O14 Cu1 1_555 1_555
O15 Cu1 1_555 1_555
O16 Cu2 1_555 1_555
O17 Cu1 1_555 1_555
O18 Cu2 1_555 1_555
C6 C7 1_555 1_555
C20 C21 1_555 1_555
C23 C24 1_555 1_555
C33 C36 1_555 1_555
C34 C35 1_555 1_555
C36 C37 1_555 1_555
C42 C45 1_555 1_555
C43 C44 1_555 1_555
C45 C46 1_555 1_555
C14 H21 1_555 1_555
C14 H22 1_555 1_555
C14 H23 1_555 1_555
C12 H24 1_555 1_555
C13 H27 1_555 1_555
C13 H28 1_555 1_555
C13 H29 1_555 1_555
C27 H32 1_555 1_555
C27 H33 1_555 1_555
C27 H34 1_555 1_555
C28 H35 1_555 1_555
C28 H36 1_555 1_555
C28 H37 1_555 1_555
C26 H38 1_555 1_555
O5_2 C15_2 1_555 1_555
O6_2 C15_2 1_555 1_555
O7_2 C25_2 1_555 1_555
C15_2 C16_2 1_555 1_555
C16_2 C17_2 1_555 1_555
C17_2 H6_2 1_555 1_555
C18_2 C17_2 1_555 1_555
H7_2 C18_2 1_555 1_555
C19_2 C18_2 1_555 1_555
C20_2 C19_2 1_555 1_555
H8_2 C20_2 1_555 1_555
C21_2 C16_2 1_555 1_555
H9_2 C21_2 1_555 1_555
C22_2 C19_2 1_555 1_555
C23_2 C22_2 1_555 1_555
H10_2 C23_2 1_555 1_555
C25_2 C22_2 1_555 1_555
C26_2 O7_2 1_555 1_555
C27_2 C26_2 1_555 1_555
C28_2 C26_2 1_555 1_555
O8_2 C29_2 1_555 1_555
O9_2 C29_2 1_555 1_555
C29_2 C30_2 1_555 1_555
C30_2 C31_2 1_555 1_555
C31_2 H11_2 1_555 1_555
C32_2 C31_2 1_555 1_555
H12_2 C32_2 1_555 1_555
C33_2 C32_2 1_555 1_555
C34_2 C33_2 1_555 1_555
H13_2 C34_2 1_555 1_555
C35_2 C30_2 1_555 1_555
H14_2 C35_2 1_555 1_555
C36_2 C25_2 1_555 1_555
C37_2 C24_2 1_555 1_555
H15_2 C37_2 1_555 1_555
Cu4 O8_2 1_555 1_555
Cu4_2 O5_2 1_555 1_555
Cu6 O9_2 1_555 1_555
Cu6_2 O6_2 1_555 1_555
C20_2 C21_2 1_555 1_555
C23_2 C24_2 1_555 1_555
C33_2 C36_2 1_555 1_555
C34_2 C35_2 1_555 1_555
C36_2 C37_2 1_555 1_555
C27_2 H32_2 1_555 1_555
C27_2 H33_2 1_555 1_555
C27_2 H34_2 1_555 1_555
C28_2 H35_2 1_555 1_555
C28_2 H36_2 1_555 1_555
C28_2 H37_2 1_555 1_555
C26_2 H38_2 1_555 1_555
O13 C1_2 1_555 1_555
O2_2 C1_2 1_555 1_555
O3_2 C11_2 1_555 1_555
C1_2 C2_2 1_555 1_555
C2_2 C3_2 1_555 1_555
C3_2 H1_2 1_555 1_555
C4_2 C3_2 1_555 1_555
H2_2 C4_2 1_555 1_555
C5_2 C4_2 1_555 1_555
C6_2 C5_2 1_555 1_555
H3_2 C6_2 1_555 1_555
C7_2 C2_2 1_555 1_555
H4_2 C7_2 1_555 1_555
C8_2 C5_2 1_555 1_555
C9_2 C8_2 1_555 1_555
H5_2 C9_2 1_555 1_555
C10_2 C9_2 1_555 1_555
C11_2 C8_2 1_555 1_555
C12_2 O3_2 1_555 1_555
C13_2 C12_2 1_555 1_555
C14_2 C12_2 1_555 1_555
O10_2 C38_2 1_555 1_555
O11_2 C38_2 1_555 1_555
C38_2 C39_2 1_555 1_555
C39_2 C40_2 1_555 1_555
C40_2 H16_2 1_555 1_555
C41_2 C40_2 1_555 1_555
H17_2 C41_2 1_555 1_555
C42_2 C41_2 1_555 1_555
C43_2 C42_2 1_555 1_555
H18_2 C43_2 1_555 1_555
C44_2 C39_2 1_555 1_555
H19_2 C44_2 1_555 1_555
C45_2 C11_2 1_555 1_555
C46_2 C10_2 1_555 1_555
H20_2 C46_2 1_555 1_555
Cu2_2 O10_2 1_555 1_555
O12_2 Cu2_2 1_555 1_555
Cu8 O2_2 1_555 1_555
Cu8_2 O11_2 1_555 1_555
O13_2 Cu2_2 1_555 1_555
O16_2 Cu2_2 1_555 1_555
O18_2 Cu2_2 1_555 1_555
C6_2 C7_2 1_555 1_555
C42_2 C45_2 1_555 1_555
C43_2 C44_2 1_555 1_555
C45_2 C46_2 1_555 1_555
C14_2 H21_2 1_555 1_555
C14_2 H22_2 1_555 1_555
C14_2 H23_2 1_555 1_555
C12_2 H24_2 1_555 1_555
C13_2 H27_2 1_555 1_555
C13_2 H28_2 1_555 1_555
C13_2 H29_2 1_555 1_555
O13_2 C1_3 1_555 1_555
O2_3 C1_3 1_555 1_555
O3_3 C11_3 1_555 1_555
C1_3 C2_3 1_555 1_555
C2_3 C3_3 1_555 1_555
C3_3 H1_3 1_555 1_555
C4_3 C3_3 1_555 1_555
H2_3 C4_3 1_555 1_555
C5_3 C4_3 1_555 1_555
C6_3 C5_3 1_555 1_555
H3_3 C6_3 1_555 1_555
C7_3 C2_3 1_555 1_555
H4_3 C7_3 1_555 1_555
C8_3 C5_3 1_555 1_555
C9_3 C8_3 1_555 1_555
H5_3 C9_3 1_555 1_555
C10_3 C9_3 1_555 1_555
C11_3 C8_3 1_555 1_555
C12_3 O3_3 1_555 1_555
C13_3 C12_3 1_555 1_555
C14_3 C12_3 1_555 1_555
O14 C38_3 1_555 1_555
O11_3 C38_3 1_555 1_555
C38_3 C39_3 1_555 1_555
C39_3 C40_3 1_555 1_555
C40_3 H16_3 1_555 1_555
C41_3 C40_3 1_555 1_555
H17_3 C41_3 1_555 1_555
C42_3 C41_3 1_555 1_555
C43_3 C42_3 1_555 1_555
H18_3 C43_3 1_555 1_555
C44_3 C39_3 1_555 1_555
H19_3 C44_3 1_555 1_555
C45_3 C11_3 1_555 1_555
C46_3 C10_3 1_555 1_555
H20_3 C46_3 1_555 1_555
Cu8_2 O2_3 1_555 1_555
Cu7 O11_3 1_555 1_555
C6_3 C7_3 1_555 1_555
C42_3 C45_3 1_555 1_555
C43_3 C44_3 1_555 1_555
C45_3 C46_3 1_555 1_555
C14_3 H21_3 1_555 1_555
C14_3 H22_3 1_555 1_555
C14_3 H23_3 1_555 1_555
C12_3 H24_3 1_555 1_555
C13_3 H27_3 1_555 1_555
C13_3 H28_3 1_555 1_555
C13_3 H29_3 1_555 1_555
O5_3 C15_3 1_555 1_555
O6_3 C15_3 1_555 1_555
O7_3 C25_3 1_555 1_555
C15_3 C16_3 1_555 1_555
C16_3 C17_3 1_555 1_555
C17_3 H6_3 1_555 1_555
C18_3 C17_3 1_555 1_555
H7_3 C18_3 1_555 1_555
C19_3 C18_3 1_555 1_555
C20_3 C19_3 1_555 1_555
H8_3 C20_3 1_555 1_555
C21_3 C16_3 1_555 1_555
H9_3 C21_3 1_555 1_555
C22_3 C19_3 1_555 1_555
C23_3 C22_3 1_555 1_555
H10_3 C23_3 1_555 1_555
C25_3 C22_3 1_555 1_555
C26_3 O7_3 1_555 1_555
C27_3 C26_3 1_555 1_555
C28_3 C26_3 1_555 1_555
O8_3 C29_3 1_555 1_555
O9_3 C29_3 1_555 1_555
C29_3 C30_3 1_555 1_555
C30_3 C31_3 1_555 1_555
C31_3 H11_3 1_555 1_555
C32_3 C31_3 1_555 1_555
H12_3 C32_3 1_555 1_555
C33_3 C32_3 1_555 1_555
C34_3 C33_3 1_555 1_555
H13_3 C34_3 1_555 1_555
C35_3 C30_3 1_555 1_555
H14_3 C35_3 1_555 1_555
C36_3 C25_3 1_555 1_555
C37_3 C24_3 1_555 1_555
H15_3 C37_3 1_555 1_555
Cu4_2 O8_3 1_555 1_555
Cu3 O5_3 1_555 1_555
Cu6_2 O9_3 1_555 1_555
Cu5 O6_3 1_555 1_555
C20_3 C21_3 1_555 1_555
C23_3 C24_3 1_555 1_555
C33_3 C36_3 1_555 1_555
C34_3 C35_3 1_555 1_555
C36_3 C37_3 1_555 1_555
C27_3 H32_3 1_555 1_555
C27_3 H33_3 1_555 1_555
C27_3 H34_3 1_555 1_555
C28_3 H35_3 1_555 1_555
C28_3 H36_3 1_555 1_555
C28_3 H37_3 1_555 1_555
C26_3 H38_3 1_555 1_555
O4_2 Cu3 1_555 1_555
O12_3 Cu4_2 1_555 1_555
O15_2 Cu3 1_555 1_555
O16_3 Cu4_2 1_555 1_555
O17_2 Cu3 1_555 1_555
O18_3 Cu4_2 1_555 1_555
O12_4 Cu4 1_555 1_555
O16_4 Cu4 1_555 1_555
O18_4 Cu4 1_555 1_555
O10_3 C38_4 1_555 1_555
O18_4 C38_4 1_555 1_555
C38_4 C39_4 1_555 1_555
C39_4 C40_4 1_555 1_555
C40_4 H16_4 1_555 1_555
C44_4 C39_4 1_555 1_555
H19_4 C44_4 1_555 1_555
Cu6 O10_3 1_555 1_555
O12_5 Cu6 1_555 1_555
O13_3 Cu6 1_555 1_555
C17_4 H6_4 1_555 1_555
C18_4 C17_4 1_555 1_555
H7_4 C18_4 1_555 1_555
C31_4 H11_4 1_555 1_555
C32_4 C31_4 1_555 1_555
H12_4 C32_4 1_555 1_555
Cu5_2 O9_4 1_555 1_555
Cu6_3 O6_4 1_555 1_555
C27_4 H32_4 1_555 1_555
C27_4 H34_4 1_555 1_555
O3_4 C11_4 1_555 1_555
H2_4 C4_4 1_555 1_555
C5_4 C4_4 1_555 1_555
C6_4 C5_4 1_555 1_555
H3_4 C6_4 1_555 1_555
C8_4 C5_4 1_555 1_555
C9_4 C8_4 1_555 1_555
H5_4 C9_4 1_555 1_555
C10_4 C9_4 1_555 1_555
C11_4 C8_4 1_555 1_555
C12_4 O3_4 1_555 1_555
C13_4 C12_4 1_555 1_555
C14_4 C12_4 1_555 1_555
O5_4 C15_4 1_555 1_555
O7_4 C25_4 1_555 1_555
C15_4 C16_4 1_555 1_555
C20_4 C19_4 1_555 1_555
H8_4 C20_4 1_555 1_555
C21_4 C16_4 1_555 1_555
H9_4 C21_4 1_555 1_555
C22_4 C19_4 1_555 1_555
C23_4 C22_4 1_555 1_555
H10_4 C23_4 1_555 1_555
C24_4 C10_4 1_555 1_555
C25_4 C22_4 1_555 1_555
C26_4 O7_4 1_555 1_555
C28_4 C26_4 1_555 1_555
O8_4 C29_4 1_555 1_555
C29_4 C30_4 1_555 1_555
C34_4 C33_4 1_555 1_555
H13_4 C34_4 1_555 1_555
C35_4 C30_4 1_555 1_555
H14_4 C35_4 1_555 1_555
C36_4 C25_4 1_555 1_555
C37_4 C24_4 1_555 1_555
H15_4 C37_4 1_555 1_555
H17_4 C41_4 1_555 1_555
C42_4 C41_4 1_555 1_555
C43_4 C42_4 1_555 1_555
H18_4 C43_4 1_555 1_555
C45_4 C11_4 1_555 1_555
C46_4 C10_4 1_555 1_555
H20_4 C46_4 1_555 1_555
C20_4 C21_4 1_555 1_555
C23_4 C24_4 1_555 1_555
C33_4 C36_4 1_555 1_555
C34_4 C35_4 1_555 1_555
C36_4 C37_4 1_555 1_555
C42_4 C45_4 1_555 1_555
C45_4 C46_4 1_555 1_555
C14_4 H21_4 1_555 1_555
C14_4 H22_4 1_555 1_555
C14_4 H23_4 1_555 1_555
C12_4 H24_4 1_555 1_555
C13_4 H27_4 1_555 1_555
C13_4 H28_4 1_555 1_555
C13_4 H29_4 1_555 1_555
C28_4 H35_4 1_555 1_555
C28_4 H36_4 1_555 1_555
C28_4 H37_4 1_555 1_555
C26_4 H38_4 1_555 1_555
Cu5 O1_2 1_555 1_555
O1_2 C1_4 1_555 1_555
O15_2 C1_4 1_555 1_555
O4_3 Cu5 1_555 1_555
C1_4 C2_4 1_555 1_555
C2_4 C3_4 1_555 1_555
C3_4 H1_4 1_555 1_555
C7_4 C2_4 1_555 1_555
H4_4 C7_4 1_555 1_555
O14_2 Cu5 1_555 1_555
C17_5 H6_5 1_555 1_555
C18_5 C17_5 1_555 1_555
H7_5 C18_5 1_555 1_555
C31_5 H11_5 1_555 1_555
C32_5 C31_5 1_555 1_555
H12_5 C32_5 1_555 1_555
Cu6_3 O9_5 1_555 1_555
Cu6_4 O6_5 1_555 1_555
C27_5 H32_5 1_555 1_555
C27_5 H34_5 1_555 1_555
O13_3 C1_5 1_555 1_555
O16_4 C1_5 1_555 1_555
O3_5 C11_5 1_555 1_555
C1_5 C2_5 1_555 1_555
C2_5 C3_5 1_555 1_555
C3_5 H1_5 1_555 1_555
C4_5 C3_5 1_555 1_555
H2_5 C4_5 1_555 1_555
C5_5 C4_5 1_555 1_555
C6_5 C5_5 1_555 1_555
H3_5 C6_5 1_555 1_555
C7_5 C2_5 1_555 1_555
H4_5 C7_5 1_555 1_555
C8_5 C5_5 1_555 1_555
C9_5 C8_5 1_555 1_555
H5_5 C9_5 1_555 1_555
C10_5 C9_5 1_555 1_555
C11_5 C8_5 1_555 1_555
C12_5 O3_5 1_555 1_555
C13_5 C12_5 1_555 1_555
C14_5 C12_5 1_555 1_555
O5_5 C15_5 1_555 1_555
O7_5 C25_5 1_555 1_555
C15_5 C16_5 1_555 1_555
C20_5 C19_5 1_555 1_555
H8_5 C20_5 1_555 1_555
C21_5 C16_5 1_555 1_555
H9_5 C21_5 1_555 1_555
C22_5 C19_5 1_555 1_555
C23_5 C22_5 1_555 1_555
H10_5 C23_5 1_555 1_555
C24_5 C10_5 1_555 1_555
C25_5 C22_5 1_555 1_555
C26_5 O7_5 1_555 1_555
C28_5 C26_5 1_555 1_555
O8_5 C29_5 1_555 1_555
C29_5 C30_5 1_555 1_555
C34_5 C33_5 1_555 1_555
H13_5 C34_5 1_555 1_555
C35_5 C30_5 1_555 1_555
H14_5 C35_5 1_555 1_555
C36_5 C25_5 1_555 1_555
C37_5 C24_5 1_555 1_555
H15_5 C37_5 1_555 1_555
H17_5 C41_5 1_555 1_555
C42_5 C41_5 1_555 1_555
C43_5 C42_5 1_555 1_555
H18_5 C43_5 1_555 1_555
C45_5 C11_5 1_555 1_555
C46_5 C10_5 1_555 1_555
H20_5 C46_5 1_555 1_555
Cu4_4 O5_5 1_555 1_555
C6_5 C7_5 1_555 1_555
C20_5 C21_5 1_555 1_555
C23_5 C24_5 1_555 1_555
C33_5 C36_5 1_555 1_555
C34_5 C35_5 1_555 1_555
C36_5 C37_5 1_555 1_555
C42_5 C45_5 1_555 1_555
C45_5 C46_5 1_555 1_555
C14_5 H21_5 1_555 1_555
C14_5 H22_5 1_555 1_555
C14_5 H23_5 1_555 1_555
C12_5 H24_5 1_555 1_555
C13_5 H27_5 1_555 1_555
C13_5 H28_5 1_555 1_555
C13_5 H29_5 1_555 1_555
C28_5 H35_5 1_555 1_555
C28_5 H36_5 1_555 1_555
C28_5 H37_5 1_555 1_555
C26_5 H38_5 1_555 1_555
O10_4 C38_5 1_555 1_555
O18_3 C38_5 1_555 1_555
C38_5 C39_5 1_555 1_555
C39_5 C40_5 1_555 1_555
C40_5 H16_5 1_555 1_555
C44_5 C39_5 1_555 1_555
H19_5 C44_5 1_555 1_555
Cu6_2 O10_4 1_555 1_555
O12_6 Cu6_2 1_555 1_555
O13_4 Cu6_2 1_555 1_555
O13_4 C1_6 1_555 1_555
O16_3 C1_6 1_555 1_555
C1_6 C2_6 1_555 1_555
C2_6 C3_6 1_555 1_555
C3_6 H1_6 1_555 1_555
C7_6 C2_6 1_555 1_555
H4_6 C7_6 1_555 1_555
C17_6 H6_6 1_555 1_555
C18_6 C17_6 1_555 1_555
H7_6 C18_6 1_555 1_555
C31_6 H11_6 1_555 1_555
C32_6 C31_6 1_555 1_555
H12_6 C32_6 1_555 1_555
Cu6_4 O9_6 1_555 1_555
Cu5_2 O6_6 1_555 1_555
C27_6 H32_6 1_555 1_555
C27_6 H34_6 1_555 1_555
O3_6 C11_6 1_555 1_555
H2_6 C4_6 1_555 1_555
C5_6 C4_6 1_555 1_555
C6_6 C5_6 1_555 1_555
H3_6 C6_6 1_555 1_555
C8_6 C5_6 1_555 1_555
C9_6 C8_6 1_555 1_555
H5_6 C9_6 1_555 1_555
C10_6 C9_6 1_555 1_555
C11_6 C8_6 1_555 1_555
C12_6 O3_6 1_555 1_555
C13_6 C12_6 1_555 1_555
C14_6 C12_6 1_555 1_555
O5_6 C15_6 1_555 1_555
O7_6 C25_6 1_555 1_555
C15_6 C16_6 1_555 1_555
C20_6 C19_6 1_555 1_555
H8_6 C20_6 1_555 1_555
C21_6 C16_6 1_555 1_555
H9_6 C21_6 1_555 1_555
C22_6 C19_6 1_555 1_555
C23_6 C22_6 1_555 1_555
H10_6 C23_6 1_555 1_555
C24_6 C10_6 1_555 1_555
C25_6 C22_6 1_555 1_555
C26_6 O7_6 1_555 1_555
C28_6 C26_6 1_555 1_555
O8_6 C29_6 1_555 1_555
C29_6 C30_6 1_555 1_555
C34_6 C33_6 1_555 1_555
H13_6 C34_6 1_555 1_555
C35_6 C30_6 1_555 1_555
H14_6 C35_6 1_555 1_555
C36_6 C25_6 1_555 1_555
C37_6 C24_6 1_555 1_555
H15_6 C37_6 1_555 1_555
O14_2 C38_6 1_555 1_555
O17_2 C38_6 1_555 1_555
C38_6 C39_6 1_555 1_555
C39_6 C40_6 1_555 1_555
C40_6 H16_6 1_555 1_555
C41_6 C40_6 1_555 1_555
H17_6 C41_6 1_555 1_555
C42_6 C41_6 1_555 1_555
C43_6 C42_6 1_555 1_555
H18_6 C43_6 1_555 1_555
C44_6 C39_6 1_555 1_555
H19_6 C44_6 1_555 1_555
C45_6 C11_6 1_555 1_555
C46_6 C10_6 1_555 1_555
H20_6 C46_6 1_555 1_555
Cu4_4 O8_6 1_555 1_555
C20_6 C21_6 1_555 1_555
C23_6 C24_6 1_555 1_555
C33_6 C36_6 1_555 1_555
C34_6 C35_6 1_555 1_555
C36_6 C37_6 1_555 1_555
C42_6 C45_6 1_555 1_555
C43_6 C44_6 1_555 1_555
C45_6 C46_6 1_555 1_555
C14_6 H21_6 1_555 1_555
C14_6 H22_6 1_555 1_555
C14_6 H23_6 1_555 1_555
C12_6 H24_6 1_555 1_555
C13_6 H27_6 1_555 1_555
C13_6 H28_6 1_555 1_555
C13_6 H29_6 1_555 1_555
C28_6 H35_6 1_555 1_555
C28_6 H36_6 1_555 1_555
C28_6 H37_6 1_555 1_555
C26_6 H38_6 1_555 1_555
O4_4 Cu3_2 1_555 1_555
O15_3 Cu3_2 1_555 1_555
O17_3 Cu3_2 1_555 1_555
O12_7 Cu4_4 1_555 1_555
O16_5 Cu4_4 1_555 1_555
O18_5 Cu4_4 1_555 1_555
O12_8 Cu4_3 1_555 1_555
O16_6 Cu4_3 1_555 1_555
O18_6 Cu4_3 1_555 1_555
O8_7 C29_7 1_555 1_555
O17 C29_7 1_555 1_555
C29_7 C30_7 1_555 1_555
C30_7 C31_7 1_555 1_555
C31_7 H11_7 1_555 1_555
C35_7 C30_7 1_555 1_555
H14_7 C35_7 1_555 1_555
O12_9 Cu6_3 1_555 1_555
Cu7 O8_7 1_555 1_555
O1_3 C1_7 1_555 1_555
O3_7 C11_7 1_555 1_555
C1_7 C2_7 1_555 1_555
C6_7 C5_7 1_555 1_555
H3_7 C6_7 1_555 1_555
C7_7 C2_7 1_555 1_555
H4_7 C7_7 1_555 1_555
C8_7 C5_7 1_555 1_555
C9_7 C8_7 1_555 1_555
H5_7 C9_7 1_555 1_555
C10_7 C9_7 1_555 1_555
C11_7 C8_7 1_555 1_555
C12_7 O3_7 1_555 1_555
C14_7 C12_7 1_555 1_555
O7_7 C25_7 1_555 1_555
H7_7 C18_7 1_555 1_555
C19_7 C18_7 1_555 1_555
C20_7 C19_7 1_555 1_555
H8_7 C20_7 1_555 1_555
C22_7 C19_7 1_555 1_555
C23_7 C22_7 1_555 1_555
H10_7 C23_7 1_555 1_555
C24_7 C10_7 1_555 1_555
C25_7 C22_7 1_555 1_555
C26_7 O7_7 1_555 1_555
C27_7 C26_7 1_555 1_555
C28_7 C26_7 1_555 1_555
H12_7 C32_7 1_555 1_555
C33_7 C32_7 1_555 1_555
C34_7 C33_7 1_555 1_555
H13_7 C34_7 1_555 1_555
C36_7 C25_7 1_555 1_555
C37_7 C24_7 1_555 1_555
H15_7 C37_7 1_555 1_555
O10_5 C38_7 1_555 1_555
C38_7 C39_7 1_555 1_555
C43_7 C42_7 1_555 1_555
H18_7 C43_7 1_555 1_555
C44_7 C39_7 1_555 1_555
H19_7 C44_7 1_555 1_555
C45_7 C11_7 1_555 1_555
C46_7 C10_7 1_555 1_555
H20_7 C46_7 1_555 1_555
C6_7 C7_7 1_555 1_555
C23_7 C24_7 1_555 1_555
C33_7 C36_7 1_555 1_555
C36_7 C37_7 1_555 1_555
C42_7 C45_7 1_555 1_555
C43_7 C44_7 1_555 1_555
C45_7 C46_7 1_555 1_555
C14_7 H21_7 1_555 1_555
C14_7 H22_7 1_555 1_555
C14_7 H23_7 1_555 1_555
C12_7 H24_7 1_555 1_555
C27_7 H32_7 1_555 1_555
C27_7 H33_7 1_555 1_555
C27_7 H34_7 1_555 1_555
C28_7 H35_7 1_555 1_555
C28_7 H36_7 1_555 1_555
C28_7 H37_7 1_555 1_555
C26_7 H38_7 1_555 1_555
C3_7 H1_7 1_555 1_555
C4_7 C3_7 1_555 1_555
H2_7 C4_7 1_555 1_555
C40_7 H16_7 1_555 1_555
C41_7 C40_7 1_555 1_555
H17_7 C41_7 1_555 1_555
C13_7 H27_7 1_555 1_555
C13_7 H29_7 1_555 1_555
O4_5 Cu5_2 1_555 1_555
O5_7 C15_7 1_555 1_555
O16 C15_7 1_555 1_555
C15_7 C16_7 1_555 1_555
C16_7 C17_7 1_555 1_555
C17_7 H6_7 1_555 1_555
C21_7 C16_7 1_555 1_555
H9_7 C21_7 1_555 1_555
Cu8 O5_7 1_555 1_555
O5_8 C15_8 1_555 1_555
O16_2 C15_8 1_555 1_555
C15_8 C16_8 1_555 1_555
C16_8 C17_8 1_555 1_555
C17_8 H6_8 1_555 1_555
C21_8 C16_8 1_555 1_555
H9_8 C21_8 1_555 1_555
Cu8_2 O5_8 1_555 1_555
O13_5 C1_8 1_555 1_555
O3_8 C11_8 1_555 1_555
C1_8 C2_8 1_555 1_555
C6_8 C5_8 1_555 1_555
H3_8 C6_8 1_555 1_555
C7_8 C2_8 1_555 1_555
H4_8 C7_8 1_555 1_555
C8_8 C5_8 1_555 1_555
C9_8 C8_8 1_555 1_555
H5_8 C9_8 1_555 1_555
C10_8 C9_8 1_555 1_555
C11_8 C8_8 1_555 1_555
C12_8 O3_8 1_555 1_555
C14_8 C12_8 1_555 1_555
O7_8 C25_8 1_555 1_555
H7_8 C18_8 1_555 1_555
C19_8 C18_8 1_555 1_555
C20_8 C19_8 1_555 1_555
H8_8 C20_8 1_555 1_555
C22_8 C19_8 1_555 1_555
C23_8 C22_8 1_555 1_555
H10_8 C23_8 1_555 1_555
C24_8 C10_8 1_555 1_555
C25_8 C22_8 1_555 1_555
C26_8 O7_8 1_555 1_555
C27_8 C26_8 1_555 1_555
C28_8 C26_8 1_555 1_555
O8_8 C29_8 1_555 1_555
O18 C29_8 1_555 1_555
C29_8 C30_8 1_555 1_555
C30_8 C31_8 1_555 1_555
C31_8 H11_8 1_555 1_555
C32_8 C31_8 1_555 1_555
H12_8 C32_8 1_555 1_555
C33_8 C32_8 1_555 1_555
C34_8 C33_8 1_555 1_555
H13_8 C34_8 1_555 1_555
C35_8 C30_8 1_555 1_555
H14_8 C35_8 1_555 1_555
C36_8 C25_8 1_555 1_555
C37_8 C24_8 1_555 1_555
H15_8 C37_8 1_555 1_555
O10_6 C38_8 1_555 1_555
C38_8 C39_8 1_555 1_555
C43_8 C42_8 1_555 1_555
H18_8 C43_8 1_555 1_555
C44_8 C39_8 1_555 1_555
H19_8 C44_8 1_555 1_555
C45_8 C11_8 1_555 1_555
C46_8 C10_8 1_555 1_555
H20_8 C46_8 1_555 1_555
Cu6_4 O10_6 1_555 1_555
O12_10 Cu6_4 1_555 1_555
Cu8 O8_8 1_555 1_555
O13_6 Cu6_4 1_555 1_555
C6_8 C7_8 1_555 1_555
C23_8 C24_8 1_555 1_555
C33_8 C36_8 1_555 1_555
C34_8 C35_8 1_555 1_555
C36_8 C37_8 1_555 1_555
C42_8 C45_8 1_555 1_555
C43_8 C44_8 1_555 1_555
C45_8 C46_8 1_555 1_555
C14_8 H21_8 1_555 1_555
C14_8 H22_8 1_555 1_555
C14_8 H23_8 1_555 1_555
C12_8 H24_8 1_555 1_555
C27_8 H32_8 1_555 1_555
C27_8 H33_8 1_555 1_555
C27_8 H34_8 1_555 1_555
C28_8 H35_8 1_555 1_555
C28_8 H36_8 1_555 1_555
C28_8 H37_8 1_555 1_555
C26_8 H38_8 1_555 1_555
C3_8 H1_8 1_555 1_555
C4_8 C3_8 1_555 1_555
H2_8 C4_8 1_555 1_555
C40_8 H16_8 1_555 1_555
C41_8 C40_8 1_555 1_555
H17_8 C41_8 1_555 1_555
C13_8 H27_8 1_555 1_555
C13_8 H29_8 1_555 1_555
O13_6 C1_9 1_555 1_555
O3_9 C11_9 1_555 1_555
C1_9 C2_9 1_555 1_555
C6_9 C5_9 1_555 1_555
H3_9 C6_9 1_555 1_555
C7_9 C2_9 1_555 1_555
H4_9 C7_9 1_555 1_555
C8_9 C5_9 1_555 1_555
C9_9 C8_9 1_555 1_555
H5_9 C9_9 1_555 1_555
C10_9 C9_9 1_555 1_555
C11_9 C8_9 1_555 1_555
C12_9 O3_9 1_555 1_555
C14_9 C12_9 1_555 1_555
O5_9 C15_9 1_555 1_555
O15 C15_9 1_555 1_555
O7_9 C25_9 1_555 1_555
C15_9 C16_9 1_555 1_555
C16_9 C17_9 1_555 1_555
C17_9 H6_9 1_555 1_555
C18_9 C17_9 1_555 1_555
H7_9 C18_9 1_555 1_555
C19_9 C18_9 1_555 1_555
C20_9 C19_9 1_555 1_555
H8_9 C20_9 1_555 1_555
C21_9 C16_9 1_555 1_555
H9_9 C21_9 1_555 1_555
C22_9 C19_9 1_555 1_555
C23_9 C22_9 1_555 1_555
H10_9 C23_9 1_555 1_555
C24_9 C10_9 1_555 1_555
C25_9 C22_9 1_555 1_555
C26_9 O7_9 1_555 1_555
C27_9 C26_9 1_555 1_555
C28_9 C26_9 1_555 1_555
H12_9 C32_9 1_555 1_555
C33_9 C32_9 1_555 1_555
C34_9 C33_9 1_555 1_555
H13_9 C34_9 1_555 1_555
C36_9 C25_9 1_555 1_555
C37_9 C24_9 1_555 1_555
H15_9 C37_9 1_555 1_555
O14_3 C38_9 1_555 1_555
C38_9 C39_9 1_555 1_555
C43_9 C42_9 1_555 1_555
H18_9 C43_9 1_555 1_555
C44_9 C39_9 1_555 1_555
H19_9 C44_9 1_555 1_555
C45_9 C11_9 1_555 1_555
C46_9 C10_9 1_555 1_555
H20_9 C46_9 1_555 1_555
Cu7 O5_9 1_555 1_555
C6_9 C7_9 1_555 1_555
C20_9 C21_9 1_555 1_555
C23_9 C24_9 1_555 1_555
C33_9 C36_9 1_555 1_555
C36_9 C37_9 1_555 1_555
C42_9 C45_9 1_555 1_555
C43_9 C44_9 1_555 1_555
C45_9 C46_9 1_555 1_555
C14_9 H21_9 1_555 1_555
C14_9 H22_9 1_555 1_555
C14_9 H23_9 1_555 1_555
C12_9 H24_9 1_555 1_555
C27_9 H32_9 1_555 1_555
C27_9 H33_9 1_555 1_555
C27_9 H34_9 1_555 1_555
C28_9 H35_9 1_555 1_555
C28_9 H36_9 1_555 1_555
C28_9 H37_9 1_555 1_555
C26_9 H38_9 1_555 1_555
C3_9 H1_9 1_555 1_555
C4_9 C3_9 1_555 1_555
H2_9 C4_9 1_555 1_555
C40_9 H16_9 1_555 1_555
C41_9 C40_9 1_555 1_555
H17_9 C41_9 1_555 1_555
C13_9 H27_9 1_555 1_555
C13_9 H29_9 1_555 1_555
O8_9 C29_9 1_555 1_555
O18_2 C29_9 1_555 1_555
C29_9 C30_9 1_555 1_555
C30_9 C31_9 1_555 1_555
C31_9 H11_9 1_555 1_555
C35_9 C30_9 1_555 1_555
H14_9 C35_9 1_555 1_555
Cu8_2 O8_9 1_555 1_555
O4_6 Cu7 1_555 1_555
O12_11 Cu8_2 1_555 1_555
O12_12 Cu8 1_555 1_555
C26 H24_10 1_555 1_555
C12 H38_10 1_555 1_555
C26_2 H24_11 1_555 1_555
C12_2 H38_11 1_555 1_555
C12_3 H38_12 1_555 1_555
C26_3 H24_12 1_555 1_555
C26_7 H24_13 1_555 1_555
C12_7 H38_13 1_555 1_555
C26_8 H24_14 1_555 1_555
C12_8 H38_14 1_555 1_555
C26_9 H24_15 1_555 1_555
C12_9 H38_15 1_555 1_555
C26_4 H24_16 1_555 1_555
C12_4 H38_16 1_555 1_555
C26_5 H24_17 1_555 1_555
C12_5 H38_17 1_555 1_555
C26_6 H24_18 1_555 1_555
C12_6 H38_18 1_555 1_555

#END
