
###############################################################################
#
# This file contains modified crystal structure data generated from the
# MOF subset of the Cambridge Structural Database (CSD) v543 
# hosted by the Cambridge Crystallographic Data Centre (CCDC).
#
# This work is licensed under the Creative Commons
# Attribution-NonCommercial-ShareAlike 4.0 International License.
# To view a copy of this license, visit
# http://creativecommons.org/licenses/by-nc-sa/4.0/
# or send a letter to
# Creative Commons, PO Box 1866, Mountain View, CA 94042, USA.
#
# CIF created using the CSD Python API on 29 September 2022
# The structure has been converted into the P1 space group
# The structure has a 3D framework
# The original CSD entry UMUXAC is in the hexagonal crystal system
# The original CSD entry UMUXAC is in a Sohncke space group
# The framework has been calculated to contain at least 10.0% void space
# The void calculation uses a probe of radius 1.32A, grid spacing 0.4
#
###############################################################################

data_UMUXAC
_chemical_formula_moiety         '(C108 H216 Cu34 I21 N36)n'
_symmetry_cell_setting           triclinic
_symmetry_space_group_name_H-M   'P 1'
_symmetry_Int_Tables_number      1
_space_group_name_Hall           'P 1'
loop_
_symmetry_equiv_pos_site_id
_symmetry_equiv_pos_as_xyz
1 x,y,z
_cell_length_a                   17.5949(3)
_cell_length_b                   17.5949(3)
_cell_length_c                   22.5436(13)
_cell_angle_alpha                90
_cell_angle_beta                 90
_cell_angle_gamma                120
_cell_volume                     6044.04
loop_
_atom_site_label
_atom_site_type_symbol
_atom_site_fract_x
_atom_site_fract_y
_atom_site_fract_z
I1 I 0.17742(4) 0.31750(4) 0.10123(3)
I2 I 0.13621(4) 0.52052(4) 0.02962(3)
Cu3 Cu 0.25914(7) 0.48107(7) 0.05638(5)
Cu4 Cu 0.10575(7) 0.35728(7) 0.01123(5)
N3 N 0.3367(5) 0.5614(5) 0.1251(3)
C1 C 0.4042(6) 0.5387(6) 0.1411(4)
H1 H 0.4409 0.5468 0.1068
H2 H 0.3759 0.4774 0.1525
C2 C 0.2857(6) 0.5553(6) 0.1785(4)
H3 H 0.2566 0.4956 0.1934
H4 H 0.2409 0.5699 0.1684
C8 C 0.3815(7) 0.6541(6) 0.1059(4)
H15 H 0.3383 0.6714 0.0973
H16 H 0.4144 0.6607 0.0698
Cu10 Cu 0.51893(7) 0.74086(7) 0.27695(5)
N6 N 0.4386(5) 0.6633(5) 0.2082(3)
C10 C 0.4613(6) 0.5958(6) 0.1922(4)
H19 H 0.4532 0.5591 0.2265
H20 H 0.5226 0.6241 0.1808
C11 C 0.4447(6) 0.7143(6) 0.1548(4)
H21 H 0.5044 0.7434 0.1399
H22 H 0.4301 0.7591 0.1649
C17 C 0.3459(6) 0.6185(7) 0.2274(4)
H33 H 0.3286 0.6617 0.2360
H34 H 0.3393 0.5856 0.2635
I5 I 0.14008(6) 0.31750(4) 0.89877(3)
I9 I 0.38431(6) 0.52052(4) 0.97038(3)
Cu9 Cu 0.22193(10) 0.48107(7) 0.94362(5)
Cu14 Cu 0.25153(10) 0.35728(7) 0.98877(5)
N7 N 0.2247(7) 0.5614(5) 0.8749(3)
I4 I 0.59008(3) 0.18017(5) 0.0000
Cu1 Cu 0.5000 0.0000 0.05607(9)
Cu2 Cu 0.66572(7) 0.08386(7) 0.00828(5)
N1 N 0.9707(4) 0.2745(4) 0.0139(3)
N2 N 0.8021(4) 0.1683(4) 0.0132(3)
C3 C 0.9301(6) 0.2814(6) 0.0699(5)
H5 H 0.9452 0.3419 0.0760
H6 H 0.9535 0.2641 0.1029
C4 C 0.9483(5) 0.1813(5) 0.0088(4)
H7 H 0.9763 0.1674 0.0407
C7 C 0.8495(5) 0.1195(5) 0.0115(4)
H14 H 0.8352 0.0830 0.0467
C9 C 0.8299(6) 0.2228(6) 0.0682(4)
H17 H 0.8105 0.1848 0.1028
H18 H 0.8028 0.2591 0.0694
I10 I 0.37525(4) 0.01360(4) 0.10405(3)
I4_2 I 0.59008(3) 0.18017(5) 1.0000
H8 H 0.9707 0.1729 0.9715
C5 C 0.9296(6) 0.2940(6) 0.9648(4)
H9 H 0.9567 0.2917 0.9279
H10 H 0.9391 0.3529 0.9694
C6 C 0.8297(6) 0.2277(6) 0.9623(5)
H11 H 0.7977 0.2593 0.9621
H12 H 0.8160 0.1939 0.9259
H13 H 0.8308 0.0813 0.9771
I11 I 0.63835(6) 0.01360(4) 0.89595(3)
Cu5 Cu 0.5000 0.0000 0.94393(9)
Cu8 Cu 0.41814(10) 0.08386(7) 0.99172(5)
I6 I 0.14008(6) 0.82258(4) 0.76790(3)
I7 I 0.17742(7) 0.85992(6) 0.56544(3)
I8 I 0.38431(6) 0.86379(4) 0.69629(3)
Cu11 Cu 0.25914(12) 0.77807(10) 0.61029(5)
Cu12 Cu 0.22193(10) 0.74086(7) 0.72305(5)
Cu13 Cu 0.25153(10) 0.89425(7) 0.67790(5)
I1_2 I 0.68250(4) 0.85992(6) 0.43456(3)
I2_2 I 0.47948(4) 0.61569(6) 0.36295(3)
I4_3 I 0.81983(5) 0.40991(6) 0.3333
Cu1_2 Cu 1.0000 0.5000 0.38940(9)
Cu2_2 Cu 0.91614(7) 0.58186(10) 0.34161(5)
Cu3_2 Cu 0.51893(7) 0.77807(10) 0.38971(5)
Cu4_2 Cu 0.64272(7) 0.74847(10) 0.34456(5)
N1_2 N 0.7255(4) 0.6962(6) 0.3472(3)
N2_2 N 0.8317(4) 0.6338(6) 0.3465(3)
N3_2 N 0.4386(5) 0.7753(7) 0.4584(3)
C1_2 C 0.4613(6) 0.8655(8) 0.4744(4)
H1_2 H 0.4532 0.8941 0.4401
H2_2 H 0.5226 0.8985 0.4858
C2_2 C 0.4447(6) 0.7304(8) 0.5118(4)
H3_2 H 0.5044 0.7610 0.5267
H4_2 H 0.4301 0.6710 0.5017
C3_2 C 0.7186(6) 0.6487(8) 0.4032(5)
H5_2 H 0.6581 0.6033 0.4093
H6_2 H 0.7359 0.6894 0.4362
C4_2 C 0.8187(5) 0.7670(7) 0.3421(4)
H7_2 H 0.8326 0.8089 0.3740
H8_2 H 0.8271 0.7978 0.3048
C5_2 C 0.7060(6) 0.6356(8) 0.2981(4)
H9_2 H 0.7083 0.6650 0.2612
H10_2 H 0.6471 0.5862 0.3027
C6_2 C 0.7723(6) 0.6020(8) 0.2956(5)
H11_2 H 0.7407 0.5384 0.2954
H12_2 H 0.8061 0.6221 0.2592
C7_2 C 0.8805(5) 0.7300(7) 0.3448(4)
H13_2 H 0.9187 0.7495 0.3104
H14_2 H 0.9170 0.7522 0.3800
C8_2 C 0.3459(6) 0.7274(9) 0.4392(4)
H15_2 H 0.3286 0.6669 0.4306
H16_2 H 0.3393 0.7537 0.4031
C9_2 C 0.7772(6) 0.6071(8) 0.4015(4)
H17_2 H 0.8152 0.6257 0.4361
H18_2 H 0.7409 0.5437 0.4027
I5_2 I 0.68250(4) 0.82258(7) 0.23210(3)
I9_2 I 0.47948(4) 0.86379(7) 0.30371(3)
I10_2 I 0.98640(4) 0.36165(6) 0.43738(3)
I11_2 I 0.98640(4) 0.62475(7) 0.22928(3)
Cu5_2 Cu 1.0000 0.5000 0.27726(9)
Cu8_2 Cu 0.91614(7) 0.33428(12) 0.32505(5)
Cu14_2 Cu 0.64272(7) 0.89425(12) 0.32210(5)
N6_2 N 0.3367(5) 0.7753(7) 0.5416(3)
C10_2 C 0.4042(6) 0.8655(8) 0.5256(4)
H19_2 H 0.4409 0.8941 0.5599
H20_2 H 0.3759 0.8985 0.5142
C11_2 C 0.2857(6) 0.7304(8) 0.4882(4)
H21_2 H 0.2566 0.7610 0.4733
H22_2 H 0.2409 0.6710 0.4983
C17_2 C 0.3815(7) 0.7274(9) 0.5608(4)
H33_2 H 0.3383 0.6669 0.5694
H34_2 H 0.4144 0.7537 0.5969
N3_3 N 0.2247(7) 0.6633(5) 0.7918(3)
C1_3 C 0.1345(8) 0.5958(6) 0.8078(4)
H1_3 H 0.1059 0.5591 0.7735
H2_3 H 0.1015 0.6241 0.8192
C2_3 C 0.2696(8) 0.7143(6) 0.8452(4)
H3_3 H 0.2390 0.7434 0.8601
H4_3 H 0.3290 0.7591 0.8351
C8_3 C 0.2726(9) 0.6185(7) 0.7726(4)
H15_3 H 0.3331 0.6617 0.7640
H16_3 H 0.2463 0.5856 0.7365
I9_3 I 0.13621(7) 0.61569(6) 0.63705(3)
Cu14_3 Cu 0.10575(12) 0.74847(10) 0.65544(5)
C10_3 C 0.1345(8) 0.5387(6) 0.8589(4)
H19_3 H 0.1059 0.5468 0.8932
H20_3 H 0.1015 0.4774 0.8475
C11_3 C 0.2696(8) 0.5553(6) 0.8215(4)
H21_3 H 0.2390 0.4956 0.8066
H22_3 H 0.3290 0.5699 0.8316
C17_3 C 0.2726(9) 0.6541(6) 0.8941(4)
H33_3 H 0.3331 0.6714 0.9027
H34_3 H 0.2463 0.6607 0.9302
N1_3 N 0.7255(4) 0.0293(4) 0.3194(3)
N2_3 N 0.8317(4) 0.1979(4) 0.3201(3)
C3_3 C 0.7186(6) 0.0699(6) 0.2634(5)
H5_3 H 0.6581 0.0548 0.2573
H6_3 H 0.7359 0.0465 0.2304
C4_3 C 0.8187(5) 0.0517(5) 0.3245(4)
H7_3 H 0.8326 0.0237 0.2926
H8_3 H 0.8271 0.0293 0.3618
C5_3 C 0.7060(6) 0.0704(6) 0.3685(4)
H9_3 H 0.7083 0.0433 0.4054
H10_3 H 0.6471 0.0609 0.3639
C6_3 C 0.7723(6) 0.1703(6) 0.3710(5)
H11_3 H 0.7407 0.2023 0.3712
H12_3 H 0.8061 0.1840 0.4074
C7_3 C 0.8805(5) 0.1505(5) 0.3218(4)
H13_3 H 0.9187 0.1692 0.3562
H14_3 H 0.9170 0.1648 0.2866
C9_3 C 0.7772(6) 0.1701(6) 0.2651(4)
H17_3 H 0.8152 0.1895 0.2305
H18_3 H 0.7409 0.1972 0.2639
H26 H 0.2022 0.1729 0.0285
C14 C 0.3644(8) 0.2940(6) 0.0352(4)
H27 H 0.3350 0.2917 0.0721
H28 H 0.4138 0.3529 0.0306
C15 C 0.3980(8) 0.2277(6) 0.0377(5)
H29 H 0.4616 0.2593 0.0379
H30 H 0.3779 0.1939 0.0741
H31 H 0.2505 0.0813 0.0229
N4 N 0.3038(6) 0.2745(4) 0.9861(3)
N5 N 0.3662(6) 0.1683(4) 0.9868(3)
C12 C 0.3513(8) 0.2814(6) 0.9301(5)
H23 H 0.3967 0.3419 0.9240
H24 H 0.3106 0.2641 0.8971
C13 C 0.2330(7) 0.1813(5) 0.9912(4)
H25 H 0.1911 0.1674 0.9593
C16 C 0.2700(7) 0.1195(5) 0.9885(4)
H32 H 0.2478 0.0830 0.9533
C18 C 0.3929(8) 0.2228(6) 0.9318(4)
H35 H 0.3743 0.1848 0.8972
H36 H 0.4563 0.2591 0.9306
I3 I 0.62475(4) 0.98640(4) 0.10405(3)
Cu1_3 Cu 0.5000 1.0000 0.05607(9)
I13 I 0.40991(6) 0.81983(5) 0.0000
Cu6 Cu 0.33428(7) 0.91614(7) 0.00828(5)
N4_2 N 0.0293(4) 0.7255(4) 0.0139(3)
N5_2 N 0.1979(4) 0.8317(4) 0.0132(3)
C12_2 C 0.0699(6) 0.7186(6) 0.0699(5)
H23_2 H 0.0548 0.6581 0.0760
H24_2 H 0.0465 0.7359 0.1029
C13_2 C 0.0517(5) 0.8187(5) 0.0088(4)
H25_2 H 0.0237 0.8326 0.0407
C16_2 C 0.1505(5) 0.8805(5) 0.0115(4)
H32_2 H 0.1648 0.9170 0.0467
C18_2 C 0.1701(6) 0.7772(6) 0.0682(4)
H35_2 H 0.1895 0.8152 0.1028
H36_2 H 0.1972 0.7409 0.0694
I12 I 0.36165(6) 0.98640(4) 0.89595(3)
I13_2 I 0.40991(6) 0.81983(5) 1.0000
Cu5_3 Cu 0.5000 1.0000 0.94393(9)
Cu7 Cu 0.58186(10) 0.91614(7) 0.99172(5)
H26_2 H 0.0293 0.8271 0.9715
C14_2 C 0.0704(6) 0.7060(6) 0.9648(4)
H27_2 H 0.0433 0.7083 0.9279
H28_2 H 0.0609 0.6471 0.9694
C15_2 C 0.1703(6) 0.7723(6) 0.9623(5)
H29_2 H 0.2023 0.7407 0.9621
H30_2 H 0.1840 0.8061 0.9259
H31_2 H 0.1692 0.9187 0.9771
I6_2 I 0.82258(4) 0.68250(4) 0.10123(3)
I8_2 I 0.86379(4) 0.47948(4) 0.02962(3)
Cu12_2 Cu 0.74086(7) 0.51893(7) 0.05638(5)
Cu13_2 Cu 0.89425(7) 0.64272(7) 0.01123(5)
I7_2 I 0.85992(6) 0.68250(4) 0.89877(3)
Cu11_2 Cu 0.77807(10) 0.51893(7) 0.94362(5)
I1_3 I 0.85992(6) 0.17742(4) 0.76790(3)
I2_3 I 0.61569(6) 0.13621(4) 0.69629(3)
Cu3_3 Cu 0.77807(10) 0.25914(7) 0.72305(5)
Cu4_3 Cu 0.74847(10) 0.10575(7) 0.67790(5)
N3_4 N 0.7753(7) 0.3367(5) 0.7918(3)
C1_4 C 0.8655(8) 0.4042(6) 0.8078(4)
H1_4 H 0.8941 0.4409 0.7735
H2_4 H 0.8985 0.3759 0.8192
C2_4 C 0.7304(8) 0.2857(6) 0.8452(4)
H3_4 H 0.7610 0.2566 0.8601
H4_4 H 0.6710 0.2409 0.8351
C8_4 C 0.7274(9) 0.3815(7) 0.7726(4)
H15_4 H 0.6669 0.3383 0.7640
H16_4 H 0.7537 0.4144 0.7365
I5_3 I 0.82258(7) 0.14008(6) 0.56544(3)
I9_4 I 0.86379(7) 0.38431(6) 0.63705(3)
Cu9_2 Cu 0.74086(12) 0.22193(10) 0.61029(5)
Cu14_4 Cu 0.89425(12) 0.25153(10) 0.65544(5)
N6_3 N 0.7753(7) 0.4386(5) 0.8749(3)
N7_2 N 0.6633(9) 0.2247(7) 0.5416(3)
C10_4 C 0.8655(8) 0.4613(6) 0.8589(4)
H19_4 H 0.8941 0.4532 0.8932
H20_4 H 0.8985 0.5226 0.8475
C11_4 C 0.7304(8) 0.4447(6) 0.8215(4)
H21_4 H 0.7610 0.5044 0.8066
H22_4 H 0.6710 0.4301 0.8316
C17_4 C 0.7274(9) 0.3459(6) 0.8941(4)
H33_4 H 0.6669 0.3286 0.9027
H34_4 H 0.7537 0.3393 0.9302
I3_2 I 0.01360(4) 0.63835(6) 0.43738(3)
Cu1_4 Cu 0.0000 0.5000 0.38940(9)
I6_3 I 0.31750(4) 0.14008(6) 0.43456(3)
I7_3 I 0.31750(4) 0.17742(7) 0.23210(3)
I8_3 I 0.52052(4) 0.38431(6) 0.36295(3)
I12_2 I 0.01360(4) 0.37525(7) 0.22928(3)
I13_3 I 0.18017(5) 0.59008(8) 0.3333
Cu5_4 Cu -0.0000 0.5000 0.27726(9)
Cu6_2 Cu 0.08386(7) 0.41814(10) 0.34161(5)
Cu7_2 Cu 0.08386(7) 0.66572(12) 0.32505(5)
Cu11_3 Cu 0.48107(7) 0.25914(12) 0.27695(5)
Cu12_3 Cu 0.48107(7) 0.22193(10) 0.38971(5)
Cu13_3 Cu 0.35728(7) 0.25153(10) 0.34456(5)
N4_3 N 0.2745(4) 0.3038(6) 0.3472(3)
N5_3 N 0.1683(4) 0.3662(6) 0.3465(3)
C12_3 C 0.2814(6) 0.3513(8) 0.4032(5)
H23_3 H 0.3419 0.3967 0.4093
H24_3 H 0.2641 0.3106 0.4362
C13_3 C 0.1813(5) 0.2330(7) 0.3421(4)
H25_3 H 0.1674 0.1911 0.3740
H26_3 H 0.1729 0.2022 0.3048
C14_3 C 0.2940(6) 0.3644(8) 0.2981(4)
H27_3 H 0.2917 0.3350 0.2612
H28_3 H 0.3529 0.4138 0.3027
C15_3 C 0.2277(6) 0.3980(8) 0.2956(5)
H29_3 H 0.2593 0.4616 0.2954
H30_3 H 0.1939 0.3779 0.2592
C16_3 C 0.1195(5) 0.2700(7) 0.3448(4)
H31_3 H 0.0813 0.2505 0.3104
H32_3 H 0.0830 0.2478 0.3800
C18_3 C 0.2228(6) 0.3929(8) 0.4015(4)
H35_3 H 0.1848 0.3743 0.4361
H36_3 H 0.2591 0.4563 0.4027
N3_5 N 0.6633(5) 0.4386(5) 0.1251(3)
C1_5 C 0.5958(6) 0.4613(6) 0.1411(4)
H1_5 H 0.5591 0.4532 0.1068
H2_5 H 0.6241 0.5226 0.1525
C2_5 C 0.7143(6) 0.4447(6) 0.1785(4)
H3_5 H 0.7434 0.5044 0.1934
H4_5 H 0.7591 0.4301 0.1684
C8_5 C 0.6185(7) 0.3459(6) 0.1059(4)
H15_5 H 0.6617 0.3286 0.0973
H16_5 H 0.5856 0.3393 0.0698
N6_4 N 0.5614(5) 0.3367(5) 0.2082(3)
C10_5 C 0.5387(6) 0.4042(6) 0.1922(4)
H19_5 H 0.5468 0.4409 0.2265
H20_5 H 0.4774 0.3759 0.1808
C11_5 C 0.5553(6) 0.2857(6) 0.1548(4)
H21_5 H 0.4956 0.2566 0.1399
H22_5 H 0.5699 0.2409 0.1649
C17_5 C 0.6541(6) 0.3815(7) 0.2274(4)
H33_5 H 0.6714 0.3383 0.2360
H34_5 H 0.6607 0.4144 0.2635
I9_5 I 0.61569(6) 0.47948(4) 0.97038(3)
Cu14_5 Cu 0.74847(10) 0.64272(7) 0.98877(5)
N3_6 N 0.5614(5) 0.2247(7) 0.4584(3)
C1_6 C 0.5387(6) 0.1345(8) 0.4744(4)
H1_6 H 0.5468 0.1059 0.4401
H2_6 H 0.4774 0.1015 0.4858
C2_6 C 0.5553(6) 0.2696(8) 0.5118(4)
H3_6 H 0.4956 0.2390 0.5267
H4_6 H 0.5699 0.3290 0.5017
C8_6 C 0.6541(6) 0.2726(9) 0.4392(4)
H15_6 H 0.6714 0.3331 0.4306
H16_6 H 0.6607 0.2463 0.4031
I9_6 I 0.52052(4) 0.13621(7) 0.30371(3)
Cu14_6 Cu 0.35728(7) 0.10575(12) 0.32210(5)
C10_6 C 0.5958(6) 0.1345(8) 0.5256(4)
H19_6 H 0.5591 0.1059 0.5599
H20_6 H 0.6241 0.1015 0.5142
C11_6 C 0.7143(6) 0.2696(8) 0.4882(4)
H21_6 H 0.7434 0.2390 0.4733
H22_6 H 0.7591 0.3290 0.4983
C17_6 C 0.6185(7) 0.2726(9) 0.5608(4)
H33_6 H 0.6617 0.3331 0.5694
H34_6 H 0.5856 0.2463 0.5969
N4_4 N 0.2745(4) 0.9707(4) 0.3194(3)
N5_4 N 0.1683(4) 0.8021(4) 0.3201(3)
C12_4 C 0.2814(6) 0.9301(6) 0.2634(5)
H23_4 H 0.3419 0.9452 0.2573
H24_4 H 0.2641 0.9535 0.2304
C13_4 C 0.1813(5) 0.9483(5) 0.3245(4)
H25_4 H 0.1674 0.9763 0.2926
H26_4 H 0.1729 0.9707 0.3618
C14_4 C 0.2940(6) 0.9296(6) 0.3685(4)
H27_4 H 0.2917 0.9567 0.4054
H28_4 H 0.3529 0.9391 0.3639
C15_4 C 0.2277(6) 0.8297(6) 0.3710(5)
H29_4 H 0.2593 0.7977 0.3712
H30_4 H 0.1939 0.8160 0.4074
C16_4 C 0.1195(5) 0.8495(5) 0.3218(4)
H31_4 H 0.0813 0.8308 0.3562
H32_4 H 0.0830 0.8352 0.2866
C18_4 C 0.2228(6) 0.8299(6) 0.2651(4)
H35_4 H 0.1848 0.8105 0.2305
H36_4 H 0.2591 0.8028 0.2639
H8_4 H 0.7978 0.8271 0.0285
C5_4 C 0.6356(8) 0.7060(6) 0.0352(4)
H9_4 H 0.6650 0.7083 0.0721
H10_4 H 0.5862 0.6471 0.0306
C6_4 C 0.6020(8) 0.7723(6) 0.0377(5)
H11_4 H 0.5384 0.7407 0.0379
H12_4 H 0.6221 0.8061 0.0741
H13_4 H 0.7495 0.9187 0.0229
N1_4 N 0.6962(6) 0.7255(4) 0.9861(3)
N2_4 N 0.6338(6) 0.8317(4) 0.9868(3)
C3_4 C 0.6487(8) 0.7186(6) 0.9301(5)
H5_4 H 0.6033 0.6581 0.9240
H6_4 H 0.6894 0.7359 0.8971
C4_4 C 0.7670(7) 0.8187(5) 0.9912(4)
H7_4 H 0.8089 0.8326 0.9593
C7_4 C 0.7300(7) 0.8805(5) 0.9885(4)
H14_4 H 0.7522 0.9170 0.9533
C9_4 C 0.6071(8) 0.7772(6) 0.9318(4)
H17_4 H 0.6257 0.8152 0.8972
H18_4 H 0.5437 0.7409 0.9306
I3_3 I 0.63835(6) 0.62475(4) 0.77072(3)
I4_4 I 0.40991(6) 0.59008(3) 0.6667
Cu1_5 Cu 0.5000 0.5000 0.72274(9)
Cu2_3 Cu 0.58186(10) 0.66572(7) 0.67495(5)
N1_5 N 0.6962(6) 0.9707(4) 0.6806(3)
N2_5 N 0.6338(6) 0.8021(4) 0.6799(3)
C3_5 C 0.6487(8) 0.9301(6) 0.7366(5)
H5_5 H 0.6033 0.9452 0.7427
H6_5 H 0.6894 0.9535 0.7696
C4_5 C 0.7670(7) 0.9483(5) 0.6755(4)
H7_5 H 0.8089 0.9763 0.7074
H8_5 H 0.7978 0.9707 0.6382
C5_5 C 0.6356(8) 0.9296(6) 0.6315(4)
H9_5 H 0.6650 0.9567 0.5946
H10_5 H 0.5862 0.9391 0.6361
C6_5 C 0.6020(8) 0.8297(6) 0.6290(5)
H11_5 H 0.5384 0.7977 0.6288
H12_5 H 0.6221 0.8160 0.5926
C7_5 C 0.7300(7) 0.8495(5) 0.6782(4)
H13_5 H 0.7495 0.8308 0.6438
H14_5 H 0.7522 0.8352 0.7134
C9_5 C 0.6071(8) 0.8299(6) 0.7349(4)
H17_5 H 0.6257 0.8105 0.7695
H18_5 H 0.5437 0.8028 0.7361
I10_3 I 0.36165(6) 0.37525(4) 0.77072(3)
I11_3 I 0.62475(7) 0.63835(6) 0.56262(3)
I12_3 I 0.37525(7) 0.36165(6) 0.56262(3)
I13_4 I 0.59008(8) 0.40991(6) 0.6667
Cu5_5 Cu 0.5000 0.5000 0.61060(9)
Cu6_3 Cu 0.41814(10) 0.33428(7) 0.67495(5)
Cu7_3 Cu 0.66572(12) 0.58186(10) 0.65839(5)
Cu8_3 Cu 0.33428(12) 0.41814(10) 0.65839(5)
N4_5 N 0.3038(6) 0.0293(4) 0.6806(3)
N5_5 N 0.3662(6) 0.1979(4) 0.6799(3)
C12_5 C 0.3513(8) 0.0699(6) 0.7366(5)
H23_5 H 0.3967 0.0548 0.7427
H24_5 H 0.3106 0.0465 0.7696
C13_5 C 0.2330(7) 0.0517(5) 0.6755(4)
H25_5 H 0.1911 0.0237 0.7074
H26_5 H 0.2022 0.0293 0.6382
C14_5 C 0.3644(8) 0.0704(6) 0.6315(4)
H27_5 H 0.3350 0.0433 0.5946
H28_5 H 0.4138 0.0609 0.6361
C15_5 C 0.3980(8) 0.1703(6) 0.6290(5)
H29_5 H 0.4616 0.2023 0.6288
H30_5 H 0.3779 0.1840 0.5926
C16_5 C 0.2700(7) 0.1505(5) 0.6782(4)
H31_5 H 0.2505 0.1692 0.6438
H32_5 H 0.2478 0.1648 0.7134
C18_5 C 0.3929(8) 0.1701(6) 0.7349(4)
H35_5 H 0.3743 0.1895 0.7695
H36_5 H 0.4563 0.1972 0.7361
N1_6 N 0.9707(4) 0.6962(6) 0.6528(3)
N2_6 N 0.8021(4) 0.6338(6) 0.6535(3)
C3_6 C 0.9301(6) 0.6487(8) 0.5968(5)
H5_6 H 0.9452 0.6033 0.5907
H6_6 H 0.9535 0.6894 0.5638
C4_6 C 0.9483(5) 0.7670(7) 0.6579(4)
H7_6 H 0.9763 0.8089 0.6260
H8_6 H 0.9707 0.7978 0.6952
C5_6 C 0.9296(6) 0.6356(8) 0.7019(4)
H9_6 H 0.9567 0.6650 0.7388
H10_6 H 0.9391 0.5862 0.6973
C6_6 C 0.8297(6) 0.6020(8) 0.7044(5)
H11_6 H 0.7977 0.5384 0.7046
H12_6 H 0.8160 0.6221 0.7408
C7_6 C 0.8495(5) 0.7300(7) 0.6552(4)
H13_6 H 0.8308 0.7495 0.6896
H14_6 H 0.8352 0.7522 0.6200
C9_6 C 0.8299(6) 0.6071(8) 0.5985(4)
H17_6 H 0.8105 0.6257 0.5639
H18_6 H 0.8028 0.5437 0.5973
N4_6 N 0.0293(4) 0.3038(6) 0.6528(3)
N5_6 N 0.1979(4) 0.3662(6) 0.6535(3)
C12_6 C 0.0699(6) 0.3513(8) 0.5968(5)
H23_6 H 0.0548 0.3967 0.5907
H24_6 H 0.0465 0.3106 0.5638
C13_6 C 0.0517(5) 0.2330(7) 0.6579(4)
H25_6 H 0.0237 0.1911 0.6260
H26_6 H 0.0293 0.2022 0.6952
C14_6 C 0.0704(6) 0.3644(8) 0.7019(4)
H27_6 H 0.0433 0.3350 0.7388
H28_6 H 0.0609 0.4138 0.6973
C15_6 C 0.1703(6) 0.3980(8) 0.7044(5)
H29_6 H 0.2023 0.4616 0.7046
H30_6 H 0.1840 0.3779 0.7408
C16_6 C 0.1505(5) 0.2700(7) 0.6552(4)
H31_6 H 0.1692 0.2505 0.6896
H32_6 H 0.1648 0.2478 0.6200
C18_6 C 0.1701(6) 0.3929(8) 0.5985(4)
H35_6 H 0.1895 0.3743 0.5639
H36_6 H 0.1972 0.4563 0.5973
loop_
_geom_bond_atom_site_label_1
_geom_bond_atom_site_label_2
_geom_bond_site_symmetry_1
_geom_bond_site_symmetry_2
I1 Cu3 1_555 1_555
I2 Cu3 1_555 1_555
Cu3 N3 1_555 1_555
Cu4 I1 1_555 1_555
N3 C1 1_555 1_555
C1 H1 1_555 1_555
H2 C1 1_555 1_555
C2 N3 1_555 1_555
H3 C2 1_555 1_555
H4 C2 1_555 1_555
C8 N3 1_555 1_555
H15 C8 1_555 1_555
H16 C8 1_555 1_555
Cu10 N6 1_555 1_555
N6 C10 1_555 1_555
C10 C1 1_555 1_555
H19 C10 1_555 1_555
H20 C10 1_555 1_555
C11 C8 1_555 1_555
H21 C11 1_555 1_555
H22 C11 1_555 1_555
C17 C2 1_555 1_555
H33 C17 1_555 1_555
H34 C17 1_555 1_555
I2 Cu4 1_555 1_555
N6 C11 1_555 1_555
N6 C17 1_555 1_555
N7 Cu9 1_555 1_555
I5 Cu9 1_555 1_555
I5 Cu14 1_555 1_555
I9 Cu9 1_555 1_555
I9 Cu14 1_555 1_555
I4 Cu1 1_555 1_555
Cu1 I10 1_555 1_555
N2 Cu2 1_555 1_555
C3 N1 1_555 1_555
H5 C3 1_555 1_555
H6 C3 1_555 1_555
C4 N1 1_555 1_555
H7 C4 1_555 1_555
C7 N2 1_555 1_555
H14 C7 1_555 1_555
C9 N2 1_555 1_555
H17 C9 1_555 1_555
H18 C9 1_555 1_555
I4 Cu2 1_555 1_555
C3 C9 1_555 1_555
C4 C7 1_555 1_555
H9 C5 1_555 1_555
H10 C5 1_555 1_555
H11 C6 1_555 1_555
H12 C6 1_555 1_555
Cu5 I4_2 1_555 1_555
Cu8 I4_2 1_555 1_555
C5 C6 1_555 1_555
I11 Cu5 1_555 1_555
I6 Cu12 1_555 1_555
I7 Cu11 1_555 1_555
I8 Cu11 1_555 1_555
Cu12 I8 1_555 1_555
Cu13 I6 1_555 1_555
I7 Cu13 1_555 1_555
I8 Cu13 1_555 1_555
I1_2 Cu3_2 1_555 1_555
I2_2 Cu3_2 1_555 1_555
I4_3 Cu1_2 1_555 1_555
Cu1_2 I10_2 1_555 1_555
Cu3_2 N3_2 1_555 1_555
Cu4_2 I1_2 1_555 1_555
N1_2 Cu4_2 1_555 1_555
N2_2 Cu2_2 1_555 1_555
N3_2 C1_2 1_555 1_555
C1_2 H1_2 1_555 1_555
H2_2 C1_2 1_555 1_555
C2_2 N3_2 1_555 1_555
H3_2 C2_2 1_555 1_555
H4_2 C2_2 1_555 1_555
C3_2 N1_2 1_555 1_555
H5_2 C3_2 1_555 1_555
H6_2 C3_2 1_555 1_555
C4_2 N1_2 1_555 1_555
H7_2 C4_2 1_555 1_555
H8_2 C4_2 1_555 1_555
C5_2 N1_2 1_555 1_555
H9_2 C5_2 1_555 1_555
H10_2 C5_2 1_555 1_555
C6_2 N2_2 1_555 1_555
H11_2 C6_2 1_555 1_555
H12_2 C6_2 1_555 1_555
C7_2 N2_2 1_555 1_555
H13_2 C7_2 1_555 1_555
H14_2 C7_2 1_555 1_555
C8_2 N3_2 1_555 1_555
H15_2 C8_2 1_555 1_555
H16_2 C8_2 1_555 1_555
C9_2 N2_2 1_555 1_555
H17_2 C9_2 1_555 1_555
H18_2 C9_2 1_555 1_555
I5_2 Cu4_2 1_555 1_555
I9_2 Cu3_2 1_555 1_555
I11_2 Cu2_2 1_555 1_555
Cu5_2 I4_3 1_555 1_555
Cu8_2 I4_3 1_555 1_555
Cu10 I2_2 1_555 1_555
Cu11 N6_2 1_555 1_555
Cu14_2 I1_2 1_555 1_555
N6_2 C10_2 1_555 1_555
C10_2 C1_2 1_555 1_555
H19_2 C10_2 1_555 1_555
H20_2 C10_2 1_555 1_555
C11_2 C8_2 1_555 1_555
H21_2 C11_2 1_555 1_555
H22_2 C11_2 1_555 1_555
C17_2 C2_2 1_555 1_555
H33_2 C17_2 1_555 1_555
H34_2 C17_2 1_555 1_555
I2_2 Cu4_2 1_555 1_555
I4_3 Cu2_2 1_555 1_555
C3_2 C9_2 1_555 1_555
C4_2 C7_2 1_555 1_555
C5_2 C6_2 1_555 1_555
I5_2 Cu10 1_555 1_555
I5_2 Cu14_2 1_555 1_555
I9_2 Cu10 1_555 1_555
I9_2 Cu14_2 1_555 1_555
I10_2 Cu8_2 1_555 1_555
I11_2 Cu5_2 1_555 1_555
N6_2 C11_2 1_555 1_555
N6_2 C17_2 1_555 1_555
Cu12 N3_3 1_555 1_555
N3_3 C1_3 1_555 1_555
C1_3 H1_3 1_555 1_555
H2_3 C1_3 1_555 1_555
C2_3 N3_3 1_555 1_555
H3_3 C2_3 1_555 1_555
H4_3 C2_3 1_555 1_555
C8_3 N3_3 1_555 1_555
H15_3 C8_3 1_555 1_555
H16_3 C8_3 1_555 1_555
I9_3 Cu12 1_555 1_555
Cu14_3 I6 1_555 1_555
N7 C10_3 1_555 1_555
C10_3 C1_3 1_555 1_555
H19_3 C10_3 1_555 1_555
H20_3 C10_3 1_555 1_555
C11_3 C8_3 1_555 1_555
H21_3 C11_3 1_555 1_555
H22_3 C11_3 1_555 1_555
C17_3 C2_3 1_555 1_555
H33_3 C17_3 1_555 1_555
H34_3 C17_3 1_555 1_555
I7 Cu14_3 1_555 1_555
I9_3 Cu11 1_555 1_555
I9_3 Cu14_3 1_555 1_555
N7 C11_3 1_555 1_555
N7 C17_3 1_555 1_555
N2_3 Cu8_2 1_555 1_555
C3_3 N1_3 1_555 1_555
H5_3 C3_3 1_555 1_555
H6_3 C3_3 1_555 1_555
C4_3 N1_3 1_555 1_555
H7_3 C4_3 1_555 1_555
H8_3 C4_3 1_555 1_555
C5_3 N1_3 1_555 1_555
H9_3 C5_3 1_555 1_555
H10_3 C5_3 1_555 1_555
C6_3 N2_3 1_555 1_555
H11_3 C6_3 1_555 1_555
H12_3 C6_3 1_555 1_555
C7_3 N2_3 1_555 1_555
H13_3 C7_3 1_555 1_555
H14_3 C7_3 1_555 1_555
C9_3 N2_3 1_555 1_555
H17_3 C9_3 1_555 1_555
H18_3 C9_3 1_555 1_555
C3_3 C9_3 1_555 1_555
C4_3 C7_3 1_555 1_555
C5_3 C6_3 1_555 1_555
H27 C14 1_555 1_555
H28 C14 1_555 1_555
H29 C15 1_555 1_555
H30 C15 1_555 1_555
C14 C15 1_555 1_555
N4 Cu14 1_555 1_555
N5 Cu8 1_555 1_555
C12 N4 1_555 1_555
H23 C12 1_555 1_555
H24 C12 1_555 1_555
C13 N4 1_555 1_555
H25 C13 1_555 1_555
C16 N5 1_555 1_555
H32 C16 1_555 1_555
C18 N5 1_555 1_555
H35 C18 1_555 1_555
H36 C18 1_555 1_555
C12 C18 1_555 1_555
C13 C16 1_555 1_555
I3 Cu1_3 1_555 1_555
I13 Cu1_3 1_555 1_555
N5_2 Cu6 1_555 1_555
C12_2 N4_2 1_555 1_555
H23_2 C12_2 1_555 1_555
H24_2 C12_2 1_555 1_555
C13_2 N4_2 1_555 1_555
H25_2 C13_2 1_555 1_555
C16_2 N5_2 1_555 1_555
H32_2 C16_2 1_555 1_555
C18_2 N5_2 1_555 1_555
H35_2 C18_2 1_555 1_555
H36_2 C18_2 1_555 1_555
I13 Cu6 1_555 1_555
C12_2 C18_2 1_555 1_555
C13_2 C16_2 1_555 1_555
I12 Cu5_3 1_555 1_555
H27_2 C14_2 1_555 1_555
H28_2 C14_2 1_555 1_555
H29_2 C15_2 1_555 1_555
H30_2 C15_2 1_555 1_555
I13_2 Cu5_3 1_555 1_555
I13_2 Cu7 1_555 1_555
C14_2 C15_2 1_555 1_555
I6_2 Cu12_2 1_555 1_555
Cu12_2 I8_2 1_555 1_555
Cu13_2 I6_2 1_555 1_555
I8_2 Cu13_2 1_555 1_555
I7_2 Cu11_2 1_555 1_555
I1_3 Cu3_3 1_555 1_555
I2_3 Cu3_3 1_555 1_555
Cu3_3 N3_4 1_555 1_555
Cu4_3 I1_3 1_555 1_555
N3_4 C1_4 1_555 1_555
C1_4 H1_4 1_555 1_555
H2_4 C1_4 1_555 1_555
C2_4 N3_4 1_555 1_555
H3_4 C2_4 1_555 1_555
H4_4 C2_4 1_555 1_555
C8_4 N3_4 1_555 1_555
H15_4 C8_4 1_555 1_555
H16_4 C8_4 1_555 1_555
I5_3 Cu4_3 1_555 1_555
I9_4 Cu3_3 1_555 1_555
Cu9_2 I2_3 1_555 1_555
Cu11_2 N6_3 1_555 1_555
Cu14_4 I1_3 1_555 1_555
N6_3 C10_4 1_555 1_555
N7_2 Cu9_2 1_555 1_555
C10_4 C1_4 1_555 1_555
H19_4 C10_4 1_555 1_555
H20_4 C10_4 1_555 1_555
C11_4 C8_4 1_555 1_555
H21_4 C11_4 1_555 1_555
H22_4 C11_4 1_555 1_555
C17_4 C2_4 1_555 1_555
H33_4 C17_4 1_555 1_555
H34_4 C17_4 1_555 1_555
I2_3 Cu4_3 1_555 1_555
I5_3 Cu9_2 1_555 1_555
I5_3 Cu14_4 1_555 1_555
I9_4 Cu9_2 1_555 1_555
I9_4 Cu14_4 1_555 1_555
N6_3 C11_4 1_555 1_555
N6_3 C17_4 1_555 1_555
I3_2 Cu1_4 1_555 1_555
I6_3 Cu12_3 1_555 1_555
I7_3 Cu11_3 1_555 1_555
I8_3 Cu11_3 1_555 1_555
I12_2 Cu5_4 1_555 1_555
I13_3 Cu1_4 1_555 1_555
Cu6_2 I12_2 1_555 1_555
Cu7_2 I3_2 1_555 1_555
Cu12_3 I8_3 1_555 1_555
Cu13_3 I6_3 1_555 1_555
N4_3 Cu13_3 1_555 1_555
N5_3 Cu6_2 1_555 1_555
C12_3 N4_3 1_555 1_555
H23_3 C12_3 1_555 1_555
H24_3 C12_3 1_555 1_555
C13_3 N4_3 1_555 1_555
H25_3 C13_3 1_555 1_555
H26_3 C13_3 1_555 1_555
C14_3 N4_3 1_555 1_555
H27_3 C14_3 1_555 1_555
H28_3 C14_3 1_555 1_555
C15_3 N5_3 1_555 1_555
H29_3 C15_3 1_555 1_555
H30_3 C15_3 1_555 1_555
C16_3 N5_3 1_555 1_555
H31_3 C16_3 1_555 1_555
H32_3 C16_3 1_555 1_555
C18_3 N5_3 1_555 1_555
H35_3 C18_3 1_555 1_555
H36_3 C18_3 1_555 1_555
I7_3 Cu13_3 1_555 1_555
I8_3 Cu13_3 1_555 1_555
I13_3 Cu5_4 1_555 1_555
I13_3 Cu6_2 1_555 1_555
I13_3 Cu7_2 1_555 1_555
C12_3 C18_3 1_555 1_555
C13_3 C16_3 1_555 1_555
C14_3 C15_3 1_555 1_555
Cu12_2 N3_5 1_555 1_555
N3_5 C1_5 1_555 1_555
C1_5 H1_5 1_555 1_555
H2_5 C1_5 1_555 1_555
C2_5 N3_5 1_555 1_555
H3_5 C2_5 1_555 1_555
H4_5 C2_5 1_555 1_555
C8_5 N3_5 1_555 1_555
H15_5 C8_5 1_555 1_555
H16_5 C8_5 1_555 1_555
Cu11_3 N6_4 1_555 1_555
N6_4 C10_5 1_555 1_555
C10_5 C1_5 1_555 1_555
H19_5 C10_5 1_555 1_555
H20_5 C10_5 1_555 1_555
C11_5 C8_5 1_555 1_555
H21_5 C11_5 1_555 1_555
H22_5 C11_5 1_555 1_555
C17_5 C2_5 1_555 1_555
H33_5 C17_5 1_555 1_555
H34_5 C17_5 1_555 1_555
N6_4 C11_5 1_555 1_555
N6_4 C17_5 1_555 1_555
I7_2 Cu14_5 1_555 1_555
I9_5 Cu11_2 1_555 1_555
I9_5 Cu14_5 1_555 1_555
Cu12_3 N3_6 1_555 1_555
N3_6 C1_6 1_555 1_555
C1_6 H1_6 1_555 1_555
H2_6 C1_6 1_555 1_555
C2_6 N3_6 1_555 1_555
H3_6 C2_6 1_555 1_555
H4_6 C2_6 1_555 1_555
C8_6 N3_6 1_555 1_555
H15_6 C8_6 1_555 1_555
H16_6 C8_6 1_555 1_555
I9_6 Cu12_3 1_555 1_555
Cu14_6 I6_3 1_555 1_555
N7_2 C10_6 1_555 1_555
C10_6 C1_6 1_555 1_555
H19_6 C10_6 1_555 1_555
H20_6 C10_6 1_555 1_555
C11_6 C8_6 1_555 1_555
H21_6 C11_6 1_555 1_555
H22_6 C11_6 1_555 1_555
C17_6 C2_6 1_555 1_555
H33_6 C17_6 1_555 1_555
H34_6 C17_6 1_555 1_555
I7_3 Cu14_6 1_555 1_555
I9_6 Cu11_3 1_555 1_555
I9_6 Cu14_6 1_555 1_555
N7_2 C11_6 1_555 1_555
N7_2 C17_6 1_555 1_555
N5_4 Cu7_2 1_555 1_555
C12_4 N4_4 1_555 1_555
H23_4 C12_4 1_555 1_555
H24_4 C12_4 1_555 1_555
C13_4 N4_4 1_555 1_555
H25_4 C13_4 1_555 1_555
H26_4 C13_4 1_555 1_555
C14_4 N4_4 1_555 1_555
H27_4 C14_4 1_555 1_555
H28_4 C14_4 1_555 1_555
C15_4 N5_4 1_555 1_555
H29_4 C15_4 1_555 1_555
H30_4 C15_4 1_555 1_555
C16_4 N5_4 1_555 1_555
H31_4 C16_4 1_555 1_555
H32_4 C16_4 1_555 1_555
C18_4 N5_4 1_555 1_555
H35_4 C18_4 1_555 1_555
H36_4 C18_4 1_555 1_555
C12_4 C18_4 1_555 1_555
C13_4 C16_4 1_555 1_555
C14_4 C15_4 1_555 1_555
H9_4 C5_4 1_555 1_555
H10_4 C5_4 1_555 1_555
H11_4 C6_4 1_555 1_555
H12_4 C6_4 1_555 1_555
C5_4 C6_4 1_555 1_555
N1_4 Cu14_5 1_555 1_555
N2_4 Cu7 1_555 1_555
C3_4 N1_4 1_555 1_555
H5_4 C3_4 1_555 1_555
H6_4 C3_4 1_555 1_555
C4_4 N1_4 1_555 1_555
H7_4 C4_4 1_555 1_555
C7_4 N2_4 1_555 1_555
H14_4 C7_4 1_555 1_555
C9_4 N2_4 1_555 1_555
H17_4 C9_4 1_555 1_555
H18_4 C9_4 1_555 1_555
C3_4 C9_4 1_555 1_555
C4_4 C7_4 1_555 1_555
I3_3 Cu1_5 1_555 1_555
I4_4 Cu1_5 1_555 1_555
Cu1_5 I10_3 1_555 1_555
Cu2_3 I3_3 1_555 1_555
N2_5 Cu2_3 1_555 1_555
C3_5 N1_5 1_555 1_555
H5_5 C3_5 1_555 1_555
H6_5 C3_5 1_555 1_555
C4_5 N1_5 1_555 1_555
H7_5 C4_5 1_555 1_555
H8_5 C4_5 1_555 1_555
C5_5 N1_5 1_555 1_555
H9_5 C5_5 1_555 1_555
H10_5 C5_5 1_555 1_555
C6_5 N2_5 1_555 1_555
H11_5 C6_5 1_555 1_555
H12_5 C6_5 1_555 1_555
C7_5 N2_5 1_555 1_555
H13_5 C7_5 1_555 1_555
H14_5 C7_5 1_555 1_555
C9_5 N2_5 1_555 1_555
H17_5 C9_5 1_555 1_555
H18_5 C9_5 1_555 1_555
I10_3 Cu6_3 1_555 1_555
I11_3 Cu2_3 1_555 1_555
I12_3 Cu5_5 1_555 1_555
I13_4 Cu1_5 1_555 1_555
Cu5_5 I4_4 1_555 1_555
Cu6_3 I12_3 1_555 1_555
Cu7_3 I3_3 1_555 1_555
Cu8_3 I4_4 1_555 1_555
N5_5 Cu6_3 1_555 1_555
C12_5 N4_5 1_555 1_555
H23_5 C12_5 1_555 1_555
H24_5 C12_5 1_555 1_555
C13_5 N4_5 1_555 1_555
H25_5 C13_5 1_555 1_555
H26_5 C13_5 1_555 1_555
C14_5 N4_5 1_555 1_555
H27_5 C14_5 1_555 1_555
H28_5 C14_5 1_555 1_555
C15_5 N5_5 1_555 1_555
H29_5 C15_5 1_555 1_555
H30_5 C15_5 1_555 1_555
C16_5 N5_5 1_555 1_555
H31_5 C16_5 1_555 1_555
H32_5 C16_5 1_555 1_555
C18_5 N5_5 1_555 1_555
H35_5 C18_5 1_555 1_555
H36_5 C18_5 1_555 1_555
I4_4 Cu2_3 1_555 1_555
C3_5 C9_5 1_555 1_555
C4_5 C7_5 1_555 1_555
C5_5 C6_5 1_555 1_555
I10_3 Cu8_3 1_555 1_555
I11_3 Cu5_5 1_555 1_555
I11_3 Cu7_3 1_555 1_555
I12_3 Cu8_3 1_555 1_555
I13_4 Cu5_5 1_555 1_555
I13_4 Cu6_3 1_555 1_555
I13_4 Cu7_3 1_555 1_555
C12_5 C18_5 1_555 1_555
C13_5 C16_5 1_555 1_555
C14_5 C15_5 1_555 1_555
N2_6 Cu7_3 1_555 1_555
C3_6 N1_6 1_555 1_555
H5_6 C3_6 1_555 1_555
H6_6 C3_6 1_555 1_555
C4_6 N1_6 1_555 1_555
H7_6 C4_6 1_555 1_555
H8_6 C4_6 1_555 1_555
C5_6 N1_6 1_555 1_555
H9_6 C5_6 1_555 1_555
H10_6 C5_6 1_555 1_555
C6_6 N2_6 1_555 1_555
H11_6 C6_6 1_555 1_555
H12_6 C6_6 1_555 1_555
C7_6 N2_6 1_555 1_555
H13_6 C7_6 1_555 1_555
H14_6 C7_6 1_555 1_555
C9_6 N2_6 1_555 1_555
H17_6 C9_6 1_555 1_555
H18_6 C9_6 1_555 1_555
N5_6 Cu8_3 1_555 1_555
C12_6 N4_6 1_555 1_555
H23_6 C12_6 1_555 1_555
H24_6 C12_6 1_555 1_555
C13_6 N4_6 1_555 1_555
H25_6 C13_6 1_555 1_555
H26_6 C13_6 1_555 1_555
C14_6 N4_6 1_555 1_555
H27_6 C14_6 1_555 1_555
H28_6 C14_6 1_555 1_555
C15_6 N5_6 1_555 1_555
H29_6 C15_6 1_555 1_555
H30_6 C15_6 1_555 1_555
C16_6 N5_6 1_555 1_555
H31_6 C16_6 1_555 1_555
H32_6 C16_6 1_555 1_555
C18_6 N5_6 1_555 1_555
H35_6 C18_6 1_555 1_555
H36_6 C18_6 1_555 1_555
C3_6 C9_6 1_555 1_555
C4_6 C7_6 1_555 1_555
C5_6 C6_6 1_555 1_555
C12_6 C18_6 1_555 1_555
C13_6 C16_6 1_555 1_555
C14_6 C15_6 1_555 1_555

#END
