
###############################################################################
#
# This file contains modified crystal structure data generated from the
# MOF subset of the Cambridge Structural Database (CSD) v543 
# hosted by the Cambridge Crystallographic Data Centre (CCDC).
#
# This work is licensed under the Creative Commons
# Attribution-NonCommercial-ShareAlike 4.0 International License.
# To view a copy of this license, visit
# http://creativecommons.org/licenses/by-nc-sa/4.0/
# or send a letter to
# Creative Commons, PO Box 1866, Mountain View, CA 94042, USA.
#
# CIF created using the CSD Python API on 29 September 2022
# The structure has been converted into the P1 space group
# The structure has a 3D framework
# The original CSD entry UNABUH01 is in the monoclinic crystal system
# The framework has been calculated to contain at least 10.0% void space
# The void calculation uses a probe of radius 1.32A, grid spacing 0.4
#
###############################################################################

data_UNABUH01
_chemical_formula_moiety         '(C56 H32 Cu4 N8 O18)n'
_symmetry_cell_setting           triclinic
_symmetry_space_group_name_H-M   'P 1'
_symmetry_Int_Tables_number      1
_space_group_name_Hall           'P 1'
loop_
_symmetry_equiv_pos_site_id
_symmetry_equiv_pos_as_xyz
1 x,y,z
_cell_length_a                   8.4048(12)
_cell_length_b                   10.2379(15)
_cell_length_c                   17.7707(18)
_cell_angle_alpha                90
_cell_angle_beta                 104.405(5)
_cell_angle_gamma                90
_cell_volume                     1481.05
loop_
_atom_site_label
_atom_site_type_symbol
_atom_site_fract_x
_atom_site_fract_y
_atom_site_fract_z
Cu1 Cu 0.60575(6) 0.44226(5) 0.43204(3)
C1 C 0.5201(5) 0.3892(4) 0.1976(2)
C2 C 0.5606(5) 0.2972(4) 0.1493(2)
H1 H 0.6327 0.2297 0.1696
C3 C 0.4927(5) 0.3059(4) 0.0697(2)
C4 C 0.3837(5) 0.4056(4) 0.0381(2)
C5 C 0.3427(5) 0.4973(4) 0.0882(2)
C6 C 0.4119(5) 0.4889(4) 0.1667(2)
H3 H 0.3856 0.5512 0.1998
C7 C 0.5892(5) 0.3809(4) 0.2839(2)
C8 C 0.5304(5) 0.2071(4) 0.0166(2)
H7 H 0.0228 0.7742 0.0921
N2 N 0.2335(4) 0.6016(4) 0.0627(2)
H8 H 0.2312 0.6619 0.0961
O1 O 0.5305(4) 0.4638(3) 0.32362(15)
O2 O 0.6936(4) 0.2993(3) 0.31250(17)
O4 O 0.6208(4) 0.1094(3) 0.04172(16)
N3 N 0.7839(4) 0.5722(4) 0.4510(2)
O6 O 0.4745(3) 0.2840(3) 0.44418(16)
O7 O 0.6208(4) 0.3906(3) 0.54172(16)
H2 H 0.3392 0.4108 0.9848
C9 C 0.1320(5) 0.6171(4) 0.9912(2)
C10 C 0.0169(5) 0.7317(4) 0.9811(2)
O3 O 0.4745(3) 0.2160(3) 0.94418(16)
O5 O 0.1271(4) 0.5427(3) 0.93745(17)
Cu3 Cu 0.60575(6) 0.05774(5) 0.93204(3)
C1_2 C 0.5201(5) 0.1108(4) 0.6976(2)
C2_2 C 0.5606(5) 0.2028(4) 0.6493(2)
H1_2 H 0.6327 0.2703 0.6696
C3_2 C 0.4927(5) 0.1941(4) 0.5697(2)
C4_2 C 0.3837(5) 0.0944(4) 0.5381(2)
H2_2 H 0.3392 0.0892 0.4848
C5_2 C 0.3427(5) 0.0027(4) 0.5882(2)
C6_2 C 0.4119(5) 0.0111(4) 0.6667(2)
C7_2 C 0.5892(5) 0.1191(4) 0.7839(2)
C8_2 C 0.5304(5) 0.2929(4) 0.5166(2)
O1_2 O 0.5305(4) 0.0362(3) 0.82362(15)
O2_2 O 0.6936(4) 0.2007(3) 0.81250(17)
C11 C 0.9417(5) 0.7303(5) 0.4054(2)
H4 H 0.9695 0.7711 0.3637
C12 C 0.8276(5) 0.6335(5) 0.3926(2)
H5 H 0.7784 0.6090 0.3418
C13 C 0.8577(5) 0.6074(4) 0.5237(2)
H6 H 0.8290 0.5644 0.5645
C14 C 0.9739(5) 0.7041(4) 0.5407(2)
C13_2 C 0.8577(5) 0.8926(4) 0.0237(2)
H6_2 H 0.8290 0.9356 0.0645
C14_2 C 0.9739(5) 0.7959(4) 0.0407(2)
C11_2 C 0.9417(5) 0.7697(5) 0.9054(2)
H4_2 H 0.9695 0.7289 0.8637
C12_2 C 0.8276(5) 0.8665(5) 0.8926(2)
H5_2 H 0.7784 0.8910 0.8418
N1 N 0.7839(4) 0.9278(4) 0.9510(2)
H3_2 H 0.3856 0.9488 0.6998
C9_2 C 0.1320(5) 0.8829(4) 0.4912(2)
C10_2 C 0.0169(5) 0.7683(4) 0.4811(2)
H7_2 H 0.0228 0.7258 0.5921
N2_2 N 0.2335(4) 0.8984(4) 0.5627(2)
H8_2 H 0.2312 0.8381 0.5961
O5_2 O 0.1271(4) 0.9573(3) 0.43745(17)
C11_3 C 0.0583(5) 0.2697(5) 0.5946(2)
H4_3 H 0.0305 0.2289 0.6363
C12_3 C 0.1724(5) 0.3665(5) 0.6074(2)
H5_3 H 0.2216 0.3910 0.6582
C13_3 C 0.1423(5) 0.3926(4) 0.4763(2)
H6_3 H 0.1710 0.4356 0.4355
C14_3 C 0.0261(5) 0.2959(4) 0.4593(2)
N1_2 N 0.2161(4) 0.4278(4) 0.5490(2)
Cu2 Cu 0.39425(6) 0.55774(5) 0.56796(3)
Cu1_2 Cu 0.39425(6) 0.94226(5) 0.06796(3)
C1_3 C 0.4799(5) 0.8892(4) 0.3024(2)
C2_3 C 0.4394(5) 0.7972(4) 0.3507(2)
H1_3 H 0.3673 0.7297 0.3304
C3_3 C 0.5073(5) 0.8059(4) 0.4303(2)
C4_3 C 0.6163(5) 0.9056(4) 0.4619(2)
H2_3 H 0.6608 0.9108 0.5152
C5_3 C 0.6573(5) 0.9973(4) 0.4118(2)
C6_3 C 0.5881(5) 0.9889(4) 0.3333(2)
C7_3 C 0.4108(5) 0.8809(4) 0.2161(2)
C8_3 C 0.4696(5) 0.7071(4) 0.4834(2)
O1_3 O 0.4695(4) 0.9638(3) 0.17638(15)
O2_3 O 0.3064(4) 0.7993(3) 0.18750(17)
O3_2 O 0.5255(3) 0.7160(3) 0.55582(16)
O4_2 O 0.3792(4) 0.6094(3) 0.45828(16)
O6_2 O 0.5255(3) 0.7840(3) 0.05582(16)
O7_2 O 0.3792(4) 0.8906(3) 0.95828(16)
H2_4 H 0.6608 0.5892 0.0152
C9_3 C 0.8680(5) 0.3829(4) 0.0088(2)
C10_3 C 0.9831(5) 0.2683(4) 0.0189(2)
O5_3 O 0.8729(4) 0.4573(3) 0.06255(17)
C1_4 C 0.4799(5) 0.6108(4) 0.8024(2)
C2_4 C 0.4394(5) 0.7028(4) 0.8507(2)
H1_4 H 0.3673 0.7703 0.8304
C3_4 C 0.5073(5) 0.6941(4) 0.9303(2)
C4_4 C 0.6163(5) 0.5944(4) 0.9619(2)
C5_4 C 0.6573(5) 0.5027(4) 0.9118(2)
C6_4 C 0.5881(5) 0.5111(4) 0.8333(2)
H3_3 H 0.6144 0.4488 0.8002
C7_4 C 0.4108(5) 0.6191(4) 0.7161(2)
C8_4 C 0.4696(5) 0.7929(4) 0.9834(2)
H7_3 H 0.9772 0.2258 0.9079
N2_3 N 0.7665(4) 0.3984(4) 0.9373(2)
H8_3 H 0.7688 0.3381 0.9039
O1_4 O 0.4695(4) 0.5362(3) 0.67638(15)
O2_4 O 0.3064(4) 0.7007(3) 0.68750(17)
H3_4 H 0.6144 0.0512 0.3002
C9_4 C 0.8680(5) 0.1171(4) 0.5088(2)
C10_4 C 0.9831(5) 0.2317(4) 0.5189(2)
H7_4 H 0.9772 0.2742 0.4079
N2_4 N 0.7665(4) 0.1016(4) 0.4373(2)
H8_4 H 0.7688 0.1619 0.4039
O5_4 O 0.8729(4) 0.0427(3) 0.56255(17)
N3_2 N 0.2161(4) 0.0722(4) 0.0490(2)
C11_4 C 0.0583(5) 0.2303(5) 0.0946(2)
H4_4 H 0.0305 0.2711 0.1363
C12_4 C 0.1724(5) 0.1335(5) 0.1074(2)
H5_4 H 0.2216 0.1090 0.1582
C13_4 C 0.1423(5) 0.1074(4) 0.9763(2)
H6_4 H 0.1710 0.0644 0.9355
C14_4 C 0.0261(5) 0.2041(4) 0.9593(2)
loop_
_geom_bond_atom_site_label_1
_geom_bond_atom_site_label_2
_geom_bond_site_symmetry_1
_geom_bond_site_symmetry_2
Cu1 O1 1_555 1_555
C1 C2 1_555 1_555
C2 H1 1_555 1_555
C3 C2 1_555 1_555
C4 C3 1_555 1_555
C5 C4 1_555 1_555
C6 C1 1_555 1_555
H3 C6 1_555 1_555
C7 C1 1_555 1_555
C8 C3 1_555 1_555
N2 C5 1_555 1_555
H8 N2 1_555 1_555
O1 C7 1_555 1_555
O2 C7 1_555 1_555
O4 C8 1_555 1_555
N3 Cu1 1_555 1_555
O6 Cu1 1_555 1_555
O7 Cu1 1_555 1_555
C5 C6 1_555 1_555
C9 C10 1_555 1_555
O5 C9 1_555 1_555
Cu3 O3 1_555 1_555
Cu3 O1_2 1_555 1_555
C1_2 C2_2 1_555 1_555
C2_2 H1_2 1_555 1_555
C3_2 C2_2 1_555 1_555
C4_2 C3_2 1_555 1_555
H2_2 C4_2 1_555 1_555
C5_2 C4_2 1_555 1_555
C6_2 C1_2 1_555 1_555
C7_2 C1_2 1_555 1_555
C8_2 C3_2 1_555 1_555
O1_2 C7_2 1_555 1_555
O2_2 C7_2 1_555 1_555
O6 C8_2 1_555 1_555
O7 C8_2 1_555 1_555
C5_2 C6_2 1_555 1_555
C11 H4 1_555 1_555
C12 C11 1_555 1_555
H5 C12 1_555 1_555
C13 H6 1_555 1_555
N3 C12 1_555 1_555
C13 C14 1_555 1_555
C13 N3 1_555 1_555
C13_2 H6_2 1_555 1_555
C13_2 C14_2 1_555 1_555
C11_2 H4_2 1_555 1_555
C12_2 C11_2 1_555 1_555
H5_2 C12_2 1_555 1_555
N1 C12_2 1_555 1_555
C9_2 C10_2 1_555 1_555
H8_2 N2_2 1_555 1_555
O5_2 C9_2 1_555 1_555
C9_2 N2_2 1_555 1_555
C11_3 H4_3 1_555 1_555
C12_3 C11_3 1_555 1_555
H5_3 C12_3 1_555 1_555
C13_3 H6_3 1_555 1_555
N1_2 C12_3 1_555 1_555
Cu2 N1_2 1_555 1_555
C13_3 C14_3 1_555 1_555
C13_3 N1_2 1_555 1_555
Cu1_2 O1_3 1_555 1_555
C1_3 C2_3 1_555 1_555
C2_3 H1_3 1_555 1_555
C3_3 C2_3 1_555 1_555
C4_3 C3_3 1_555 1_555
H2_3 C4_3 1_555 1_555
C5_3 C4_3 1_555 1_555
C6_3 C1_3 1_555 1_555
C7_3 C1_3 1_555 1_555
C8_3 C3_3 1_555 1_555
O1_3 C7_3 1_555 1_555
O2_3 C7_3 1_555 1_555
O3_2 C8_3 1_555 1_555
O4_2 C8_3 1_555 1_555
Cu2 O3_2 1_555 1_555
O6_2 Cu1_2 1_555 1_555
C5_3 C6_3 1_555 1_555
O4_2 Cu2 1_555 1_555
C9_3 C10_3 1_555 1_555
O5_3 C9_3 1_555 1_555
Cu2 O1_4 1_555 1_555
C1_4 C2_4 1_555 1_555
C2_4 H1_4 1_555 1_555
C3_4 C2_4 1_555 1_555
C4_4 C3_4 1_555 1_555
C5_4 C4_4 1_555 1_555
C6_4 C1_4 1_555 1_555
H3_3 C6_4 1_555 1_555
C7_4 C1_4 1_555 1_555
C8_4 C3_4 1_555 1_555
N2_3 C5_4 1_555 1_555
H8_3 N2_3 1_555 1_555
O1_4 C7_4 1_555 1_555
O2_4 C7_4 1_555 1_555
O7_2 C8_4 1_555 1_555
C5_4 C6_4 1_555 1_555
C9_4 C10_4 1_555 1_555
H8_4 N2_4 1_555 1_555
O5_4 C9_4 1_555 1_555
C9_4 N2_4 1_555 1_555
C11_4 H4_4 1_555 1_555
C12_4 C11_4 1_555 1_555
H5_4 C12_4 1_555 1_555
N3_2 C12_4 1_555 1_555
C13_4 H6_4 1_555 1_555
C13_4 C14_4 1_555 1_555

#END
