
###############################################################################
#
# This file contains modified crystal structure data generated from the
# MOF subset of the Cambridge Structural Database (CSD) v543 
# hosted by the Cambridge Crystallographic Data Centre (CCDC).
#
# This work is licensed under the Creative Commons
# Attribution-NonCommercial-ShareAlike 4.0 International License.
# To view a copy of this license, visit
# http://creativecommons.org/licenses/by-nc-sa/4.0/
# or send a letter to
# Creative Commons, PO Box 1866, Mountain View, CA 94042, USA.
#
# CIF created using the CSD Python API on 29 September 2022
# The structure has been converted into the P1 space group
# The structure has a 3D framework
# The original CSD entry UNABUH is in the monoclinic crystal system
# The framework has been calculated to contain at least 10.0% void space
# The void calculation uses a probe of radius 1.32A, grid spacing 0.4
#
###############################################################################

data_UNABUH
_chemical_formula_moiety         '(C56 H32 Cu4 N8 O18)n'
_symmetry_cell_setting           triclinic
_symmetry_space_group_name_H-M   'P 1'
_symmetry_Int_Tables_number      1
_space_group_name_Hall           'P 1'
loop_
_symmetry_equiv_pos_site_id
_symmetry_equiv_pos_as_xyz
1 x,y,z
_cell_length_a                   8.405(5)
_cell_length_b                   10.293(4)
_cell_length_c                   17.812(8)
_cell_angle_alpha                90
_cell_angle_beta                 104.582(19)
_cell_angle_gamma                90
_cell_volume                     1491.33
loop_
_atom_site_label
_atom_site_type_symbol
_atom_site_fract_x
_atom_site_fract_y
_atom_site_fract_z
O6 O 0.6220(3) 0.6092(3) 0.04178(12)
Cu1 Cu 0.60564(4) 0.55755(3) 0.931976(19)
O1 O 0.1244(4) 0.4591(3) 0.43674(13)
O2 O 0.5309(3) 0.5375(2) 0.82375(12)
O3 O 0.6936(3) 0.7026(3) 0.81292(13)
O4 O 0.6220(3) 0.8908(3) 0.54178(12)
O5 O 0.4729(3) 0.7847(2) 0.44385(12)
N1 N 0.2349(3) 0.3984(3) 0.56182(14)
C1 C 0.3437(4) 0.5029(3) 0.58786(16)
C2 C 0.4129(4) 0.5119(3) 0.66700(16)
C3 C 0.5208(4) 0.6120(3) 0.69788(16)
C4 C 0.5612(4) 0.7048(3) 0.64908(16)
C5 C 0.4923(4) 0.6949(3) 0.56946(16)
C6 C 0.3846(4) 0.5950(3) 0.53778(16)
C7 C 0.1315(4) 0.3848(3) 0.49097(17)
C10 C 0.0171(4) 0.2690(3) 0.48026(17)
C13 C 0.5896(4) 0.6208(3) 0.78422(16)
C14 C 0.5310(4) 0.7931(3) 0.51648(16)
H1 H 0.2346 0.3371 0.5946
H2 H 0.3867 0.4500 0.7000
H3 H 0.6329 0.7723 0.6692
H4 H 0.3407 0.5895 0.4845
H6 H 0.0230 0.2276 0.5917
Cu2 Cu 0.60564(4) 0.94245(3) 0.431976(19)
O7 O 0.4729(3) 0.7153(2) 0.94385(12)
N3 N 0.7843(3) 0.4278(3) 0.95068(15)
O2_2 O 0.5309(3) 0.9625(2) 0.32375(12)
O3_2 O 0.6936(3) 0.7974(3) 0.31292(13)
C1_2 C 0.3437(4) 0.9971(3) 0.08786(16)
C2_2 C 0.4129(4) 0.9881(3) 0.16700(16)
C3_2 C 0.5208(4) 0.8880(3) 0.19788(16)
C4_2 C 0.5612(4) 0.7952(3) 0.14908(16)
C5_2 C 0.4923(4) 0.8051(3) 0.06946(16)
C6_2 C 0.3846(4) 0.9050(3) 0.03778(16)
C13_2 C 0.5896(4) 0.8792(3) 0.28422(16)
C14_2 C 0.5310(4) 0.7069(3) 0.01648(16)
H3_2 H 0.6329 0.7277 0.1692
H4_2 H 0.3407 0.9105 0.9845
C11 C 0.9429(4) 0.2687(4) 0.90468(18)
C12 C 0.8273(4) 0.3666(4) 0.89206(18)
H7 H 0.9708 0.2284 0.8631
H8 H 0.7774 0.3911 0.8413
N2 N 0.7843(3) 0.0722(3) 0.45068(15)
C8 C 0.8576(4) 0.1073(3) 0.52380(17)
C9 C 0.9742(4) 0.2051(3) 0.54055(17)
C11_2 C 0.9429(4) 0.2313(4) 0.40468(18)
C12_2 C 0.8273(4) 0.1334(4) 0.39206(18)
H5 H 0.8292 0.0645 0.5645
H7_2 H 0.9708 0.2716 0.3631
H8_2 H 0.7774 0.1089 0.3413
N1_2 N 0.2349(3) 0.1016(3) 0.06182(14)
H1_2 H 0.2346 0.1629 0.0946
H2_2 H 0.3867 0.0500 0.2000
H6_2 H 0.0230 0.2724 0.0917
N2_2 N 0.2157(3) 0.5722(3) 0.04932(15)
C11_3 C 0.0571(4) 0.7313(4) 0.09532(18)
C12_3 C 0.1727(4) 0.6334(4) 0.10794(18)
H7_3 H 0.0292 0.7716 0.1369
H8_3 H 0.2226 0.6089 0.1587
Cu3 Cu 0.39436(4) 0.44245(3) 0.068024(19)
O5_2 O 0.5271(3) 0.2847(2) 0.05615(12)
H4_3 H 0.6593 0.0895 0.0155
Cu1_2 Cu 0.39436(4) 0.05755(3) 0.568024(19)
O2_3 O 0.4691(3) 0.0375(2) 0.67625(12)
O3_3 O 0.3064(3) 0.2026(3) 0.68708(13)
O4_2 O 0.3780(3) 0.3908(3) 0.95822(12)
C1_3 C 0.6563(4) 0.0029(3) 0.91214(16)
C2_3 C 0.5871(4) 0.0119(3) 0.83300(16)
C3_3 C 0.4792(4) 0.1120(3) 0.80212(16)
C4_3 C 0.4388(4) 0.2048(3) 0.85092(16)
C5_3 C 0.5077(4) 0.1949(3) 0.93054(16)
C6_3 C 0.6154(4) 0.0950(3) 0.96222(16)
C13_3 C 0.4104(4) 0.1208(3) 0.71578(16)
C14_3 C 0.4690(4) 0.2931(3) 0.98352(16)
H3_3 H 0.3671 0.2723 0.8308
O6_2 O 0.3780(3) 0.1092(3) 0.45822(12)
O7_2 O 0.5271(3) 0.2153(2) 0.55615(12)
O1_2 O 0.8756(4) 0.5409(3) 0.56326(13)
O2_4 O 0.4691(3) 0.4625(2) 0.17625(12)
O3_4 O 0.3064(3) 0.2974(3) 0.18708(13)
N1_3 N 0.7651(3) 0.6016(3) 0.43818(14)
C1_4 C 0.6563(4) 0.4971(3) 0.41214(16)
C2_4 C 0.5871(4) 0.4881(3) 0.33300(16)
C3_4 C 0.4792(4) 0.3880(3) 0.30212(16)
C4_4 C 0.4388(4) 0.2952(3) 0.35092(16)
C5_4 C 0.5077(4) 0.3051(3) 0.43054(16)
C6_4 C 0.6154(4) 0.4050(3) 0.46222(16)
C7_2 C 0.8685(4) 0.6152(3) 0.50903(17)
C10_2 C 0.9829(4) 0.7310(3) 0.51974(17)
C13_4 C 0.4104(4) 0.3792(3) 0.21578(16)
C14_4 C 0.4690(4) 0.2069(3) 0.48352(16)
H1_3 H 0.7654 0.6629 0.4054
H2_3 H 0.6133 0.5500 0.3000
H3_4 H 0.3671 0.2277 0.3308
H4_4 H 0.6593 0.4105 0.5155
H6_3 H 0.9770 0.7724 0.4083
C8_2 C 0.1424(4) 0.6073(3) 0.97620(17)
C9_2 C 0.0258(4) 0.7051(3) 0.95945(17)
H5_2 H 0.1708 0.5645 0.9355
O1_3 O 0.8756(4) 0.9591(3) 0.06326(13)
C7_3 C 0.8685(4) 0.8848(3) 0.00903(17)
C10_3 C 0.9829(4) 0.7690(3) 0.01974(17)
N1_4 N 0.7651(3) 0.8984(3) 0.93818(14)
H1_4 H 0.7654 0.8371 0.9054
H2_4 H 0.6133 0.9500 0.8000
H6_4 H 0.9770 0.7276 0.9083
N3_2 N 0.2157(3) 0.9278(3) 0.54932(15)
C8_3 C 0.1424(4) 0.8927(3) 0.47620(17)
C9_3 C 0.0258(4) 0.7949(3) 0.45945(17)
C11_4 C 0.0571(4) 0.7687(4) 0.59532(18)
C12_4 C 0.1727(4) 0.8666(4) 0.60794(18)
H5_3 H 0.1708 0.9355 0.4355
H7_4 H 0.0292 0.7284 0.6369
H8_4 H 0.2226 0.8911 0.6587
O1_4 O 0.1244(4) 0.0409(3) 0.93674(13)
C7_4 C 0.1315(4) 0.1152(3) 0.99097(17)
C10_4 C 0.0171(4) 0.2310(3) 0.98026(17)
C8_4 C 0.8576(4) 0.3927(3) 0.02380(17)
C9_4 C 0.9742(4) 0.2949(3) 0.04055(17)
H5_4 H 0.8292 0.4355 0.0645
loop_
_geom_bond_atom_site_label_1
_geom_bond_atom_site_label_2
_geom_bond_site_symmetry_1
_geom_bond_site_symmetry_2
Cu1 O2 1_555 1_555
O1 C7 1_555 1_555
O2 C13 1_555 1_555
O3 C13 1_555 1_555
O4 C14 1_555 1_555
O5 C14 1_555 1_555
N1 C1 1_555 1_555
C1 C2 1_555 1_555
C2 C3 1_555 1_555
C3 C4 1_555 1_555
C4 C5 1_555 1_555
C5 C6 1_555 1_555
C6 C1 1_555 1_555
C7 N1 1_555 1_555
C10 C7 1_555 1_555
C13 C3 1_555 1_555
C14 C5 1_555 1_555
H1 N1 1_555 1_555
H2 C2 1_555 1_555
H3 C4 1_555 1_555
H4 C6 1_555 1_555
Cu2 O4 1_555 1_555
O7 Cu1 1_555 1_555
N3 Cu1 1_555 1_555
O5 Cu2 1_555 1_555
Cu2 O2_2 1_555 1_555
O2_2 C13_2 1_555 1_555
O3_2 C13_2 1_555 1_555
O6 C14_2 1_555 1_555
C1_2 C2_2 1_555 1_555
C2_2 C3_2 1_555 1_555
C3_2 C4_2 1_555 1_555
C4_2 C5_2 1_555 1_555
C5_2 C6_2 1_555 1_555
C6_2 C1_2 1_555 1_555
C13_2 C3_2 1_555 1_555
C14_2 C5_2 1_555 1_555
H3_2 C4_2 1_555 1_555
C12 N3 1_555 1_555
H7 C11 1_555 1_555
H8 C12 1_555 1_555
C11 C12 1_555 1_555
N2 C8 1_555 1_555
C8 C9 1_555 1_555
C12_2 N2 1_555 1_555
H5 C8 1_555 1_555
H7_2 C11_2 1_555 1_555
H8_2 C12_2 1_555 1_555
C11_2 C12_2 1_555 1_555
H1_2 N1_2 1_555 1_555
C12_3 N2_2 1_555 1_555
H7_3 C11_3 1_555 1_555
H8_3 C12_3 1_555 1_555
Cu3 N2_2 1_555 1_555
C11_3 C12_3 1_555 1_555
O5_2 Cu3 1_555 1_555
Cu1_2 O2_3 1_555 1_555
O2_3 C13_3 1_555 1_555
O3_3 C13_3 1_555 1_555
O4_2 C14_3 1_555 1_555
C1_3 C2_3 1_555 1_555
C2_3 C3_3 1_555 1_555
C3_3 C4_3 1_555 1_555
C4_3 C5_3 1_555 1_555
C5_3 C6_3 1_555 1_555
C6_3 C1_3 1_555 1_555
C13_3 C3_3 1_555 1_555
C14_3 C5_3 1_555 1_555
H3_3 C4_3 1_555 1_555
O6_2 Cu1_2 1_555 1_555
O7_2 Cu1_2 1_555 1_555
Cu3 O2_4 1_555 1_555
O1_2 C7_2 1_555 1_555
O2_4 C13_4 1_555 1_555
O3_4 C13_4 1_555 1_555
O6_2 C14_4 1_555 1_555
O7_2 C14_4 1_555 1_555
N1_3 C1_4 1_555 1_555
C1_4 C2_4 1_555 1_555
C2_4 C3_4 1_555 1_555
C3_4 C4_4 1_555 1_555
C4_4 C5_4 1_555 1_555
C5_4 C6_4 1_555 1_555
C6_4 C1_4 1_555 1_555
C7_2 N1_3 1_555 1_555
C10_2 C7_2 1_555 1_555
C13_4 C3_4 1_555 1_555
C14_4 C5_4 1_555 1_555
H1_3 N1_3 1_555 1_555
H2_3 C2_4 1_555 1_555
H3_4 C4_4 1_555 1_555
H4_4 C6_4 1_555 1_555
C8_2 C9_2 1_555 1_555
H5_2 C8_2 1_555 1_555
O1_3 C7_3 1_555 1_555
C10_3 C7_3 1_555 1_555
H1_4 N1_4 1_555 1_555
N3_2 C8_3 1_555 1_555
C8_3 C9_3 1_555 1_555
C12_4 N3_2 1_555 1_555
H5_3 C8_3 1_555 1_555
H7_4 C11_4 1_555 1_555
H8_4 C12_4 1_555 1_555
C11_4 C12_4 1_555 1_555
O1_4 C7_4 1_555 1_555
C10_4 C7_4 1_555 1_555
C8_4 C9_4 1_555 1_555
H5_4 C8_4 1_555 1_555

#END
