
###############################################################################
#
# This file contains modified crystal structure data generated from the
# MOF subset of the Cambridge Structural Database (CSD) v543 
# hosted by the Cambridge Crystallographic Data Centre (CCDC).
#
# This work is licensed under the Creative Commons
# Attribution-NonCommercial-ShareAlike 4.0 International License.
# To view a copy of this license, visit
# http://creativecommons.org/licenses/by-nc-sa/4.0/
# or send a letter to
# Creative Commons, PO Box 1866, Mountain View, CA 94042, USA.
#
# CIF created using the CSD Python API on 29 September 2022
# The structure has been converted into the P1 space group
# The structure has a 3D framework
# The original CSD entry UNACIW is in the monoclinic crystal system
# The framework has been calculated to contain at least 10.0% void space
# The void calculation uses a probe of radius 1.32A, grid spacing 0.4
#
###############################################################################

data_UNACIW
_chemical_formula_moiety         '(C56 H32 Cu4 N8 O18)n'
_symmetry_cell_setting           triclinic
_symmetry_space_group_name_H-M   'P 1'
_symmetry_Int_Tables_number      1
_space_group_name_Hall           'P 1'
loop_
_symmetry_equiv_pos_site_id
_symmetry_equiv_pos_as_xyz
1 x,y,z
_cell_length_a                   8.4283(11)
_cell_length_b                   10.2553(13)
_cell_length_c                   17.8159(18)
_cell_angle_alpha                90
_cell_angle_beta                 104.408(5)
_cell_angle_gamma                90
_cell_volume                     1491.48
loop_
_atom_site_label
_atom_site_type_symbol
_atom_site_fract_x
_atom_site_fract_y
_atom_site_fract_z
O7 O 0.6209(10) 0.6087(7) 0.0415(4)
Cu1 Cu 0.60603(16) 0.55776(12) 0.93208(7)
O1 O 0.4747(9) 0.7850(7) 0.4443(4)
O2 O 0.6209(10) 0.8913(7) 0.5415(4)
O3 O 0.6936(10) 0.7006(8) 0.8126(4)
O4 O 0.5307(10) 0.5363(7) 0.8236(4)
O5 O 0.1273(11) 0.4585(9) 0.4379(5)
N1 N 0.2342(11) 0.3987(9) 0.5624(5)
H1 H 0.2326 0.3383 0.5956
C1 C 0.5311(13) 0.7937(10) 0.5164(6)
C2 C 0.4917(13) 0.6941(10) 0.5697(6)
C3 C 0.5620(13) 0.7029(10) 0.6492(6)
H2 H 0.6358 0.7691 0.6692
C4 C 0.5193(13) 0.6107(10) 0.6976(6)
C5 C 0.4118(13) 0.5118(10) 0.6669(6)
H3 H 0.3849 0.4498 0.6998
C6 C 0.3430(13) 0.5033(10) 0.5878(6)
C7 C 0.3855(12) 0.5940(10) 0.5385(6)
H4 H 0.3433 0.5877 0.4852
C8 C 0.5897(13) 0.6194(10) 0.7834(6)
C9 C 0.1324(13) 0.3834(10) 0.4914(6)
C10 C 0.0178(13) 0.2679(10) 0.4809(6)
H7 H 0.0228 0.2266 0.5915
Cu2 Cu 0.60603(16) 0.94224(12) 0.43208(7)
O6 O 0.4747(9) 0.7150(7) 0.9443(4)
N3 N 0.7824(11) 0.4268(8) 0.9511(5)
O3_2 O 0.6936(10) 0.7994(8) 0.3126(4)
O4_2 O 0.5307(10) 0.9637(7) 0.3236(4)
C1_2 C 0.5311(13) 0.7063(10) 0.0164(6)
C2_2 C 0.4917(13) 0.8059(10) 0.0697(6)
C3_2 C 0.5620(13) 0.7971(10) 0.1492(6)
H2_2 H 0.6358 0.7309 0.1692
C4_2 C 0.5193(13) 0.8893(10) 0.1976(6)
C5_2 C 0.4118(13) 0.9882(10) 0.1669(6)
C6_2 C 0.3430(13) 0.9967(10) 0.0878(6)
C7_2 C 0.3855(12) 0.9060(10) 0.0385(6)
C8_2 C 0.5897(13) 0.8806(10) 0.2834(6)
H4_2 H 0.3433 0.9123 0.9852
C11 C 0.9421(14) 0.2687(12) 0.9051(6)
H5 H 0.9691 0.2276 0.8635
C12 C 0.8264(13) 0.3668(10) 0.8926(6)
H6 H 0.7774 0.3921 0.8420
N2 N 0.7824(11) 0.0732(8) 0.4511(5)
C11_2 C 0.9421(14) 0.2313(12) 0.4051(6)
H5_2 H 0.9691 0.2724 0.3635
C12_2 C 0.8264(13) 0.1332(10) 0.3926(6)
H6_2 H 0.7774 0.1079 0.3420
C13 C 0.9741(13) 0.2043(10) 0.5403(6)
C14 C 0.8583(13) 0.1075(10) 0.5242(6)
H8 H 0.8312 0.0641 0.5651
N1_2 N 0.2342(11) 0.1013(9) 0.0624(5)
H1_2 H 0.2326 0.1617 0.0956
H3_2 H 0.3849 0.0502 0.1998
H7_2 H 0.0228 0.2734 0.0915
N2_2 N 0.2176(11) 0.5732(8) 0.0489(5)
C11_3 C 0.0579(14) 0.7313(12) 0.0949(6)
H5_3 H 0.0309 0.7724 0.1365
C12_3 C 0.1736(13) 0.6332(10) 0.1074(6)
H6_3 H 0.2226 0.6079 0.1580
Cu3 Cu 0.39397(16) 0.44224(12) 0.06792(7)
O1_2 O 0.5253(9) 0.2850(7) 0.0557(4)
H4_3 H 0.6567 0.0877 0.0148
Cu1_2 Cu 0.39397(16) 0.05776(12) 0.56792(7)
O2_2 O 0.3791(10) 0.3913(7) 0.9585(4)
O3_3 O 0.3064(10) 0.2006(8) 0.6874(4)
O4_3 O 0.4693(10) 0.0363(7) 0.6764(4)
C1_3 C 0.4689(13) 0.2937(10) 0.9836(6)
C2_3 C 0.5083(13) 0.1941(10) 0.9303(6)
C3_3 C 0.4380(13) 0.2029(10) 0.8508(6)
H2_3 H 0.3642 0.2691 0.8308
C4_3 C 0.4807(13) 0.1107(10) 0.8024(6)
C5_3 C 0.5882(13) 0.0118(10) 0.8331(6)
C6_3 C 0.6570(13) 0.0033(10) 0.9122(6)
C7_3 C 0.6145(12) 0.0940(10) 0.9615(6)
C8_3 C 0.4103(13) 0.1194(10) 0.7166(6)
O6_2 O 0.5253(9) 0.2150(7) 0.5557(4)
O7_2 O 0.3791(10) 0.1087(7) 0.4585(4)
O3_4 O 0.3064(10) 0.2994(8) 0.1874(4)
O4_4 O 0.4693(10) 0.4637(7) 0.1764(4)
O5_2 O 0.8727(11) 0.5415(9) 0.5621(5)
N1_3 N 0.7658(11) 0.6013(9) 0.4376(5)
H1_3 H 0.7674 0.6617 0.4044
C1_4 C 0.4689(13) 0.2063(10) 0.4836(6)
C2_4 C 0.5083(13) 0.3059(10) 0.4303(6)
C3_4 C 0.4380(13) 0.2971(10) 0.3508(6)
H2_4 H 0.3642 0.2309 0.3308
C4_4 C 0.4807(13) 0.3893(10) 0.3024(6)
C5_4 C 0.5882(13) 0.4882(10) 0.3331(6)
H3_3 H 0.6151 0.5502 0.3002
C6_4 C 0.6570(13) 0.4967(10) 0.4122(6)
C7_4 C 0.6145(12) 0.4060(10) 0.4615(6)
H4_4 H 0.6567 0.4123 0.5148
C8_4 C 0.4103(13) 0.3806(10) 0.2166(6)
C9_2 C 0.8676(13) 0.6166(10) 0.5086(6)
C10_2 C 0.9822(13) 0.7321(10) 0.5191(6)
H7_3 H 0.9772 0.7734 0.4085
C13_2 C 0.0259(13) 0.7043(10) 0.9597(6)
C14_2 C 0.1417(13) 0.6075(10) 0.9758(6)
H8_2 H 0.1688 0.5641 0.9349
O5_3 O 0.8727(11) 0.9585(9) 0.0621(5)
C9_3 C 0.8676(13) 0.8834(10) 0.0086(6)
C10_3 C 0.9822(13) 0.7679(10) 0.0191(6)
N1_4 N 0.7658(11) 0.8987(9) 0.9376(5)
H1_4 H 0.7674 0.8383 0.9044
H3_4 H 0.6151 0.9498 0.8002
H7_4 H 0.9772 0.7266 0.9085
N3_2 N 0.2176(11) 0.9268(8) 0.5489(5)
C11_4 C 0.0579(14) 0.7687(12) 0.5949(6)
H5_4 H 0.0309 0.7276 0.6365
C12_4 C 0.1736(13) 0.8668(10) 0.6074(6)
H6_4 H 0.2226 0.8921 0.6580
C13_3 C 0.0259(13) 0.7957(10) 0.4597(6)
C14_3 C 0.1417(13) 0.8925(10) 0.4758(6)
H8_3 H 0.1688 0.9359 0.4349
O5_4 O 0.1273(11) 0.0415(9) 0.9379(5)
C9_4 C 0.1324(13) 0.1166(10) 0.9914(6)
C10_4 C 0.0178(13) 0.2321(10) 0.9809(6)
C13_4 C 0.9741(13) 0.2957(10) 0.0403(6)
C14_4 C 0.8583(13) 0.3925(10) 0.0242(6)
H8_4 H 0.8312 0.4359 0.0651
loop_
_geom_bond_atom_site_label_1
_geom_bond_atom_site_label_2
_geom_bond_site_symmetry_1
_geom_bond_site_symmetry_2
Cu1 O4 1_555 1_555
O1 C1 1_555 1_555
O2 C1 1_555 1_555
O3 C8 1_555 1_555
O4 C8 1_555 1_555
O5 C9 1_555 1_555
N1 H1 1_555 1_555
C1 C2 1_555 1_555
C2 C3 1_555 1_555
C3 H2 1_555 1_555
C4 C3 1_555 1_555
C5 C4 1_555 1_555
H3 C5 1_555 1_555
C6 N1 1_555 1_555
C7 C2 1_555 1_555
H4 C7 1_555 1_555
C8 C4 1_555 1_555
C9 N1 1_555 1_555
C10 C9 1_555 1_555
Cu2 O1 1_555 1_555
O6 Cu1 1_555 1_555
N3 Cu1 1_555 1_555
O2 Cu2 1_555 1_555
C5 C6 1_555 1_555
C6 C7 1_555 1_555
Cu2 O4_2 1_555 1_555
O7 C1_2 1_555 1_555
O3_2 C8_2 1_555 1_555
O4_2 C8_2 1_555 1_555
C1_2 C2_2 1_555 1_555
C2_2 C3_2 1_555 1_555
C3_2 H2_2 1_555 1_555
C4_2 C3_2 1_555 1_555
C5_2 C4_2 1_555 1_555
C7_2 C2_2 1_555 1_555
C8_2 C4_2 1_555 1_555
C5_2 C6_2 1_555 1_555
C6_2 C7_2 1_555 1_555
N3 C12 1_555 1_555
H5 C11 1_555 1_555
C12 C11 1_555 1_555
H6 C12 1_555 1_555
N2 C12_2 1_555 1_555
H5_2 C11_2 1_555 1_555
C12_2 C11_2 1_555 1_555
H6_2 C12_2 1_555 1_555
C14 N2 1_555 1_555
H8 C14 1_555 1_555
C13 C14 1_555 1_555
N1_2 H1_2 1_555 1_555
N2_2 C12_3 1_555 1_555
H5_3 C11_3 1_555 1_555
C12_3 C11_3 1_555 1_555
H6_3 C12_3 1_555 1_555
Cu3 N2_2 1_555 1_555
Cu3 O1_2 1_555 1_555
Cu1_2 O4_3 1_555 1_555
O2_2 C1_3 1_555 1_555
O3_3 C8_3 1_555 1_555
O4_3 C8_3 1_555 1_555
C1_3 C2_3 1_555 1_555
C2_3 C3_3 1_555 1_555
C3_3 H2_3 1_555 1_555
C4_3 C3_3 1_555 1_555
C5_3 C4_3 1_555 1_555
C7_3 C2_3 1_555 1_555
C8_3 C4_3 1_555 1_555
O6_2 Cu1_2 1_555 1_555
O7_2 Cu1_2 1_555 1_555
C5_3 C6_3 1_555 1_555
C6_3 C7_3 1_555 1_555
Cu3 O4_4 1_555 1_555
O6_2 C1_4 1_555 1_555
O7_2 C1_4 1_555 1_555
O3_4 C8_4 1_555 1_555
O4_4 C8_4 1_555 1_555
O5_2 C9_2 1_555 1_555
N1_3 H1_3 1_555 1_555
C1_4 C2_4 1_555 1_555
C2_4 C3_4 1_555 1_555
C3_4 H2_4 1_555 1_555
C4_4 C3_4 1_555 1_555
C5_4 C4_4 1_555 1_555
H3_3 C5_4 1_555 1_555
C6_4 N1_3 1_555 1_555
C7_4 C2_4 1_555 1_555
H4_4 C7_4 1_555 1_555
C8_4 C4_4 1_555 1_555
C9_2 N1_3 1_555 1_555
C10_2 C9_2 1_555 1_555
C5_4 C6_4 1_555 1_555
C6_4 C7_4 1_555 1_555
H8_2 C14_2 1_555 1_555
C13_2 C14_2 1_555 1_555
O5_3 C9_3 1_555 1_555
C10_3 C9_3 1_555 1_555
N1_4 H1_4 1_555 1_555
N3_2 C12_4 1_555 1_555
H5_4 C11_4 1_555 1_555
C12_4 C11_4 1_555 1_555
H6_4 C12_4 1_555 1_555
C14_3 N3_2 1_555 1_555
H8_3 C14_3 1_555 1_555
C13_3 C14_3 1_555 1_555
O5_4 C9_4 1_555 1_555
C10_4 C9_4 1_555 1_555
H8_4 C14_4 1_555 1_555
C13_4 C14_4 1_555 1_555

#END
