
###############################################################################
#
# This file contains modified crystal structure data generated from the
# MOF subset of the Cambridge Structural Database (CSD) v543 
# hosted by the Cambridge Crystallographic Data Centre (CCDC).
#
# This work is licensed under the Creative Commons
# Attribution-NonCommercial-ShareAlike 4.0 International License.
# To view a copy of this license, visit
# http://creativecommons.org/licenses/by-nc-sa/4.0/
# or send a letter to
# Creative Commons, PO Box 1866, Mountain View, CA 94042, USA.
#
# CIF created using the CSD Python API on 29 September 2022
# The structure has been converted into the P1 space group
# The structure has a 3D framework
# The original CSD entry UNACES is in the monoclinic crystal system
# The framework has been calculated to contain at least 10.0% void space
# The void calculation uses a probe of radius 1.32A, grid spacing 0.4
#
###############################################################################

data_UNACES
_chemical_formula_moiety         '(C56 H32 Cu4 N8 O20)n'
_symmetry_cell_setting           triclinic
_symmetry_space_group_name_H-M   'P 1'
_symmetry_Int_Tables_number      1
_space_group_name_Hall           'P 1'
loop_
_symmetry_equiv_pos_site_id
_symmetry_equiv_pos_as_xyz
1 x,y,z
_cell_length_a                   8.497(5)
_cell_length_b                   10.296(4)
_cell_length_c                   17.749(7)
_cell_angle_alpha                90
_cell_angle_beta                 104.624(18)
_cell_angle_gamma                90
_cell_volume                     1502.47
loop_
_atom_site_label
_atom_site_type_symbol
_atom_site_fract_x
_atom_site_fract_y
_atom_site_fract_z
O6 O 0.1280(3) 0.3901(2) 0.04192(11)
Cu1 Cu 0.11185(4) 0.44452(3) 0.932156(17)
O2 O 0.0439(3) 0.46603(18) 0.82341(10)
O3 O 0.1962(3) 0.2954(2) 0.81257(11)
O4 O 0.1280(3) 0.1099(2) 0.54192(11)
C3 C 0.0251(3) 0.3866(2) 0.69760(13)
C4 C 0.0652(3) 0.2942(2) 0.64858(14)
H3 H 0.1373 0.2274 0.6687
C13 C 0.0959(3) 0.3793(2) 0.78427(14)
C14 C 0.0355(3) 0.2052(2) 0.51571(14)
Cu2 Cu 0.11185(4) 0.05548(3) 0.432156(17)
N3 N 0.2878(3) 0.5771(2) 0.95262(13)
O2_2 O 0.0439(3) 0.03397(18) 0.32341(10)
O3_2 O 0.1962(3) 0.2046(2) 0.31257(11)
C3_2 C 0.0251(3) 0.1134(2) 0.19760(13)
C4_2 C 0.0652(3) 0.2058(2) 0.14858(14)
H3_2 H 0.1373 0.2726 0.1687
C13_2 C 0.0959(3) 0.1207(2) 0.28427(14)
C14_2 C 0.0355(3) 0.2948(2) 0.01571(14)
O1 O 0.6230(3) 0.9626(2) 0.93638(12)
C7 C 0.6325(3) 0.8893(3) 0.99066(15)
C10 C 0.5189(3) 0.7739(2) 0.98153(15)
C11 C 0.4441(4) 0.7356(3) 0.90620(16)
H7 H 0.4711 0.7755 0.8641
C12 C 0.3303(4) 0.6385(3) 0.89409(16)
H8 H 0.2804 0.6142 0.8432
O1_2 O 0.6230(3) 0.5374(2) 0.43638(12)
O5 O 0.9771(2) 0.21097(18) 0.44327(10)
N1 N 0.7379(3) 0.5975(2) 0.56136(12)
H1 H 0.7385 0.6590 0.5942
N2 N 0.2878(3) 0.9229(2) 0.45262(13)
C1 C 0.8466(3) 0.4940(2) 0.58708(14)
C2 C 0.9166(3) 0.4859(3) 0.66684(14)
H2 H 0.8905 0.5476 0.7000
C5 C 0.9956(3) 0.3033(2) 0.56881(14)
C6 C 0.8871(3) 0.4020(2) 0.53730(14)
H4 H 0.8421 0.4066 0.4839
C7_2 C 0.6325(3) 0.6107(3) 0.49066(15)
C8 C 0.3596(3) 0.8866(3) 0.52507(15)
H5 H 0.3314 0.9288 0.5661
C9 C 0.4749(3) 0.7885(3) 0.54180(15)
H6 H 0.5220 0.7651 0.5931
C10_2 C 0.5189(3) 0.7261(2) 0.48153(15)
C11_2 C 0.4441(4) 0.7644(3) 0.40620(16)
H7_2 H 0.4711 0.7245 0.3641
C12_2 C 0.3303(4) 0.8615(3) 0.39409(16)
H8_2 H 0.2804 0.8858 0.3432
O7 O 0.9771(2) 0.28903(18) 0.94327(10)
C1_2 C 0.8466(3) 0.0060(2) 0.08708(14)
C2_2 C 0.9166(3) 0.0141(3) 0.16684(14)
C5_2 C 0.9956(3) 0.1967(2) 0.06881(14)
C6_2 C 0.8871(3) 0.0980(2) 0.03730(14)
H4_2 H 0.8421 0.0934 0.9839
O1_3 O 0.3770(3) 0.0374(2) 0.06362(12)
N2_2 N 0.7122(3) 0.4229(2) 0.04738(13)
C7_3 C 0.3675(3) 0.1107(3) 0.00934(15)
C10_3 C 0.4811(3) 0.2261(2) 0.01847(15)
C11_3 C 0.5559(4) 0.2644(3) 0.09380(16)
H7_3 H 0.5289 0.2245 0.1359
C12_3 C 0.6697(4) 0.3615(3) 0.10591(16)
H8_3 H 0.7196 0.3858 0.1568
Cu3 Cu 0.88815(4) 0.55548(3) 0.067844(17)
Cu1_2 Cu 0.88815(4) 0.94452(3) 0.567844(17)
O2_3 O 0.9561(3) 0.96603(18) 0.67659(10)
O3_3 O 0.8038(3) 0.7954(2) 0.68743(11)
O4_2 O 0.8720(3) 0.6099(2) 0.95808(11)
C3_3 C 0.9749(3) 0.8866(2) 0.80240(13)
C4_3 C 0.9348(3) 0.7942(2) 0.85142(14)
H3_3 H 0.8627 0.7274 0.8313
C13_3 C 0.9041(3) 0.8793(2) 0.71573(14)
C14_3 C 0.9645(3) 0.7052(2) 0.98429(14)
O6_2 O 0.8720(3) 0.8901(2) 0.45808(11)
O2_4 O 0.9561(3) 0.53397(18) 0.17659(10)
O3_4 O 0.8038(3) 0.7046(2) 0.18743(11)
C3_4 C 0.9749(3) 0.6134(2) 0.30240(13)
C4_4 C 0.9348(3) 0.7058(2) 0.35142(14)
H3_4 H 0.8627 0.7726 0.3313
C13_4 C 0.9041(3) 0.6207(2) 0.21573(14)
C14_4 C 0.9645(3) 0.7948(2) 0.48429(14)
N1_2 N 0.2621(3) 0.0975(2) 0.93864(12)
H1_2 H 0.2615 0.1590 0.9058
H2_2 H 0.1095 0.0476 0.8000
C8_2 C 0.6404(3) 0.3866(3) 0.97493(15)
H5_2 H 0.6686 0.4288 0.9339
C9_2 C 0.5251(3) 0.2885(3) 0.95820(15)
H6_2 H 0.4780 0.2651 0.9069
O5_2 O 0.0229(2) 0.71097(18) 0.05673(10)
H4_3 H 0.1579 0.9066 0.0161
C1_3 C 0.1534(3) 0.9940(2) 0.91292(14)
C2_3 C 0.0834(3) 0.9859(3) 0.83316(14)
C5_3 C 0.0044(3) 0.8033(2) 0.93119(14)
C6_3 C 0.1129(3) 0.9020(2) 0.96270(14)
O7_2 O 0.0229(2) 0.78903(18) 0.55673(10)
N3_2 N 0.7122(3) 0.0771(2) 0.54738(13)
O1_4 O 0.3770(3) 0.4626(2) 0.56362(12)
N1_3 N 0.2621(3) 0.4025(2) 0.43864(12)
H1_3 H 0.2615 0.3410 0.4058
C1_4 C 0.1534(3) 0.5060(2) 0.41292(14)
C2_4 C 0.0834(3) 0.5141(3) 0.33316(14)
H2_3 H 0.1095 0.4524 0.3000
C5_4 C 0.0044(3) 0.6967(2) 0.43119(14)
C6_4 C 0.1129(3) 0.5980(2) 0.46270(14)
H4_4 H 0.1579 0.5934 0.5161
C7_4 C 0.3675(3) 0.3893(3) 0.50934(15)
C8_3 C 0.6404(3) 0.1134(3) 0.47493(15)
H5_3 H 0.6686 0.0712 0.4339
C9_3 C 0.5251(3) 0.2115(3) 0.45820(15)
H6_3 H 0.4780 0.2349 0.4069
C10_4 C 0.4811(3) 0.2739(2) 0.51847(15)
C11_4 C 0.5559(4) 0.2356(3) 0.59380(16)
H7_4 H 0.5289 0.2755 0.6359
C12_4 C 0.6697(4) 0.1385(3) 0.60591(16)
H8_4 H 0.7196 0.1142 0.6568
N1_4 N 0.7379(3) 0.9025(2) 0.06136(12)
H1_4 H 0.7385 0.8410 0.0942
H2_4 H 0.8905 0.9524 0.2000
C8_4 C 0.3596(3) 0.6134(3) 0.02507(15)
H5_4 H 0.3314 0.5712 0.0661
C9_4 C 0.4749(3) 0.7115(3) 0.04180(15)
H6_4 H 0.5220 0.7349 0.0931
loop_
_geom_bond_atom_site_label_1
_geom_bond_atom_site_label_2
_geom_bond_site_symmetry_1
_geom_bond_site_symmetry_2
Cu1 O2 1_555 1_555
O2 C13 1_555 1_555
O3 C13 1_555 1_555
O4 C14 1_555 1_555
C4 C3 1_555 1_555
H3 C4 1_555 1_555
C13 C3 1_555 1_555
Cu2 O4 1_555 1_555
N3 Cu1 1_555 1_555
Cu2 O2_2 1_555 1_555
O2_2 C13_2 1_555 1_555
O3_2 C13_2 1_555 1_555
O6 C14_2 1_555 1_555
C4_2 C3_2 1_555 1_555
H3_2 C4_2 1_555 1_555
C13_2 C3_2 1_555 1_555
O1 C7 1_555 1_555
C10 C7 1_555 1_555
C11 C10 1_555 1_555
H7 C11 1_555 1_555
C12 N3 1_555 1_555
H8 C12 1_555 1_555
C11 C12 1_555 1_555
O1_2 C7_2 1_555 1_555
N1 H1 1_555 1_555
N2 C8 1_555 1_555
C1 N1 1_555 1_555
C2 C1 1_555 1_555
H2 C2 1_555 1_555
C6 C1 1_555 1_555
H4 C6 1_555 1_555
C7_2 N1 1_555 1_555
C8 H5 1_555 1_555
C9 C8 1_555 1_555
H6 C9 1_555 1_555
C10_2 C7_2 1_555 1_555
C11_2 C10_2 1_555 1_555
H7_2 C11_2 1_555 1_555
C12_2 N2 1_555 1_555
H8_2 C12_2 1_555 1_555
C5 C6 1_555 1_555
C9 C10_2 1_555 1_555
C11_2 C12_2 1_555 1_555
C2_2 C1_2 1_555 1_555
C6_2 C1_2 1_555 1_555
C5_2 C6_2 1_555 1_555
O1_3 C7_3 1_555 1_555
C10_3 C7_3 1_555 1_555
C11_3 C10_3 1_555 1_555
H7_3 C11_3 1_555 1_555
C12_3 N2_2 1_555 1_555
H8_3 C12_3 1_555 1_555
Cu3 N2_2 1_555 1_555
C11_3 C12_3 1_555 1_555
Cu1_2 O2_3 1_555 1_555
O2_3 C13_3 1_555 1_555
O3_3 C13_3 1_555 1_555
O4_2 C14_3 1_555 1_555
C4_3 C3_3 1_555 1_555
H3_3 C4_3 1_555 1_555
C13_3 C3_3 1_555 1_555
O6_2 Cu1_2 1_555 1_555
Cu3 O2_4 1_555 1_555
O2_4 C13_4 1_555 1_555
O3_4 C13_4 1_555 1_555
O6_2 C14_4 1_555 1_555
C4_4 C3_4 1_555 1_555
H3_4 C4_4 1_555 1_555
C13_4 C3_4 1_555 1_555
N1_2 H1_2 1_555 1_555
C8_2 H5_2 1_555 1_555
C9_2 C8_2 1_555 1_555
H6_2 C9_2 1_555 1_555
C2_3 C1_3 1_555 1_555
C6_3 C1_3 1_555 1_555
C5_3 C6_3 1_555 1_555
O1_4 C7_4 1_555 1_555
N1_3 H1_3 1_555 1_555
N3_2 C8_3 1_555 1_555
C1_4 N1_3 1_555 1_555
C2_4 C1_4 1_555 1_555
H2_3 C2_4 1_555 1_555
C6_4 C1_4 1_555 1_555
H4_4 C6_4 1_555 1_555
C7_4 N1_3 1_555 1_555
C8_3 H5_3 1_555 1_555
C9_3 C8_3 1_555 1_555
H6_3 C9_3 1_555 1_555
C10_4 C7_4 1_555 1_555
C11_4 C10_4 1_555 1_555
H7_4 C11_4 1_555 1_555
C12_4 N3_2 1_555 1_555
H8_4 C12_4 1_555 1_555
C5_4 C6_4 1_555 1_555
C9_3 C10_4 1_555 1_555
C11_4 C12_4 1_555 1_555
N1_4 H1_4 1_555 1_555
C8_4 H5_4 1_555 1_555
C9_4 C8_4 1_555 1_555
H6_4 C9_4 1_555 1_555

#END
