
###############################################################################
#
# This file contains modified crystal structure data generated from the
# MOF subset of the Cambridge Structural Database (CSD) v543 
# hosted by the Cambridge Crystallographic Data Centre (CCDC).
#
# This work is licensed under the Creative Commons
# Attribution-NonCommercial-ShareAlike 4.0 International License.
# To view a copy of this license, visit
# http://creativecommons.org/licenses/by-nc-sa/4.0/
# or send a letter to
# Creative Commons, PO Box 1866, Mountain View, CA 94042, USA.
#
# CIF created using the CSD Python API on 29 September 2022
# The structure has been converted into the P1 space group
# The structure has a 3D framework
# The original CSD entry UNATIP is in the orthorhombic crystal system
# The framework has been calculated to contain at least 10.0% void space
# The void calculation uses a probe of radius 1.32A, grid spacing 0.4
#
###############################################################################

data_UNATIP
_chemical_formula_moiety         '(C112 H168 N48 O32 Re8 Sr8)n'
_symmetry_cell_setting           triclinic
_symmetry_space_group_name_H-M   'P 1'
_symmetry_Int_Tables_number      1
_space_group_name_Hall           'P 1'
loop_
_symmetry_equiv_pos_site_id
_symmetry_equiv_pos_as_xyz
1 x,y,z
_cell_length_a                   18.4340(10)
_cell_length_b                   13.9900(8)
_cell_length_c                   19.2240(12)
_cell_angle_alpha                90
_cell_angle_beta                 90
_cell_angle_gamma                90
_cell_volume                     4957.71
loop_
_atom_site_label
_atom_site_type_symbol
_atom_site_fract_x
_atom_site_fract_y
_atom_site_fract_z
Sr1 Sr 0.21399(7) 0.10778(9) 0.31471(6)
C12 C 0.3183(9) 0.1080(12) 0.4716(8)
H9 H 0.32814 0.070655 0.513743
H10 H 0.363405 0.116349 0.445328
H11 H 0.298981 0.17072 0.484672
C13 C 0.0531(9) 0.0964(11) 0.4276(8)
H12 H 0.02751 0.130313 0.464839
H13 H 0.021217 0.090572 0.387011
H14 H 0.066921 0.032566 0.443821
C14 C 0.1684(8) 0.3551(10) 0.3348(9)
H15 H 0.18761 0.419189 0.344166
H16 H 0.144761 0.35445 0.289192
H17 H 0.13301 0.338141 0.370814
O1 O 0.2532(5) 0.0101(7) 0.2089(5)
O2 O 0.2674(5) 0.0596(7) 0.4304(5)
H19 H 0.23647 0.033149 0.456094
O3 O 0.1171(5) 0.1489(7) 0.4086(5)
H20 H 0.151223 0.134088 0.435486
O4 O 0.2272(5) 0.2867(7) 0.3354(6)
H21 H 0.267045 0.315845 0.336371
N14 N 0.1062(7) 0.1590(8) 0.2326(6)
N15 N 0.3522(7) 0.1483(8) 0.2865(6)
C18 C 0.0001(7) 0.0182(9) 0.8608(7)
H25 H 0.006629 0.013684 0.757315
C22 C 0.0620(7) 0.1031(9) 0.6509(7)
C23 C 0.0622(7) 0.2958(10) 0.7067(6)
N10 N 0.1092(7) 0.0506(9) 0.6415(6)
N11 N 0.1062(7) 0.3410(8) 0.7326(6)
Sr4 Sr 0.21399(7) 0.39222(9) 0.81471(6)
Re1 Re 0.01894(3) 0.79074(4) 0.33677(3)
C1 C 0.1027(7) 0.8903(9) 0.3417(7)
C4 C 0.0993(7) 0.6959(10) 0.3012(7)
C5 C 0.0318(7) 0.7958(10) 0.1635(7)
H1 H 0.04241 0.730379 0.171881
C6 C 0.0296(8) 0.8268(9) 0.0954(7)
H2 H 0.040771 0.784457 0.058288
C7 C 0.0103(7) 0.9230(9) 0.0819(7)
C9 C 0.0032(7) 0.9451(9) 0.2046(7)
C10 C 0.0053(7) 0.9543(9) 0.0091(7)
C11 C 0.2110(9) 0.9423(11) 0.1712(8)
H6 H 0.239983 0.915832 0.13306
H7 H 0.195958 0.89059 0.202417
H8 H 0.16786 0.973873 0.152112
H18 H 0.297381 0.99644 0.204953
N1 N 0.0175(7) 0.7532(8) 0.4198(5)
N2 N 0.1530(6) 0.9418(8) 0.3397(6)
N5 N 0.1478(7) 0.6483(8) 0.2865(6)
N6 N 0.0200(7) 0.8523(8) 0.2181(5)
Sr3 Sr 0.28601(7) 0.60778(9) 0.31471(6)
C15 C 0.9682(7) 0.2042(10) 0.8365(7)
H22 H 0.95759 0.269621 0.828119
C16 C 0.9704(8) 0.1732(9) 0.9046(7)
H23 H 0.959229 0.215543 0.941712
C17 C 0.9897(7) 0.0770(9) 0.9181(7)
C19 C 0.9968(7) 0.0549(9) 0.7954(7)
C20 C 0.9947(7) 0.0457(9) 0.9909(7)
N7 N 0.9800(7) 0.1477(8) 0.7819(5)
Re2 Re 0.98106(3) 0.20926(4) 0.66323(3)
C21 C 0.8973(7) 0.1097(9) 0.6583(7)
C24 C 0.9007(7) 0.3041(10) 0.6988(7)
C25 C 0.7890(9) 0.0577(11) 0.8288(8)
H27 H 0.760017 0.084168 0.86694
H28 H 0.804042 0.10941 0.797583
H29 H 0.83214 0.026127 0.847888
H39 H 0.702619 0.00356 0.795047
N8 N 0.9825(7) 0.2468(8) 0.5802(5)
N9 N 0.8470(6) 0.0582(8) 0.6603(6)
N12 N 0.8522(7) 0.3517(8) 0.7135(6)
Sr5 Sr 0.71399(7) 0.39222(9) 0.68529(6)
C2 C 0.9380(7) 0.8969(9) 0.3491(7)
C3 C 0.9378(7) 0.7042(10) 0.2933(6)
C8 C 0.9999(7) 0.9818(9) 0.1392(7)
H4 H 0.993371 0.986316 0.242685
N3 N 0.8908(7) 0.9494(9) 0.3585(6)
N4 N 0.8938(7) 0.6590(8) 0.2674(6)
Sr6 Sr 0.78601(7) 0.60778(9) 0.18529(6)
Sr2 Sr 0.78601(7) 0.89222(9) 0.68529(6)
C26 C 0.6817(9) 0.8920(12) 0.5284(8)
H30 H 0.67186 0.929345 0.486257
H31 H 0.636595 0.883651 0.554672
H32 H 0.701019 0.82928 0.515328
C27 C 0.9469(9) 0.9036(11) 0.5724(8)
H33 H 0.97249 0.869687 0.535161
H34 H 0.978783 0.909428 0.612989
H35 H 0.933079 0.967434 0.556179
C28 C 0.8316(8) 0.6449(10) 0.6652(9)
H36 H 0.81239 0.580811 0.655834
H37 H 0.855239 0.64555 0.710808
H38 H 0.86699 0.661859 0.629186
O5 O 0.7468(5) 0.9899(7) 0.7911(5)
O6 O 0.7326(5) 0.9404(7) 0.5696(5)
H40 H 0.76353 0.966851 0.543906
O7 O 0.8829(5) 0.8511(7) 0.5914(5)
H41 H 0.848777 0.865912 0.564514
O8 O 0.7728(5) 0.7133(7) 0.6646(6)
H42 H 0.732955 0.684155 0.663629
N13 N 0.8938(7) 0.8410(8) 0.7674(6)
N16 N 0.6478(7) 0.8517(8) 0.7135(6)
Re1_2 Re 0.48106(3) 0.20926(4) 0.83677(3)
C1_2 C 0.3973(7) 0.1097(9) 0.8417(7)
C2_2 C 0.5620(7) 0.1031(9) 0.8491(7)
C3_2 C 0.5622(7) 0.2958(10) 0.7933(6)
C4_2 C 0.4007(7) 0.3041(10) 0.8012(7)
C5_2 C 0.4682(7) 0.2042(10) 0.6635(7)
H1_2 H 0.45759 0.269621 0.671881
C6_2 C 0.4704(8) 0.1732(9) 0.5954(7)
H2_2 H 0.459229 0.215543 0.558288
C7_2 C 0.4897(7) 0.0770(9) 0.5819(7)
C8_2 C 0.5001(7) 0.0182(9) 0.6392(7)
C9_2 C 0.4968(7) 0.0549(9) 0.7046(7)
H4_2 H 0.506629 0.013684 0.742685
C10_2 C 0.4947(7) 0.0457(9) 0.5091(7)
H5 H 0.490097 0.092167 0.473315
C11_2 C 0.2890(9) 0.0577(11) 0.6712(8)
H6_2 H 0.260017 0.084168 0.63306
H7_2 H 0.304042 0.10941 0.702417
H8_2 H 0.33214 0.026127 0.652112
H18_2 H 0.202619 0.00356 0.704953
N1_2 N 0.4825(7) 0.2468(8) 0.9198(5)
N2_2 N 0.3470(6) 0.0582(8) 0.8397(6)
N3_2 N 0.6092(7) 0.0506(9) 0.8585(6)
N4_2 N 0.6062(7) 0.3410(8) 0.7674(6)
N5_2 N 0.3522(7) 0.3517(8) 0.7865(6)
N6_2 N 0.4800(7) 0.1477(8) 0.7181(5)
H24 H 0.490485 0.047969 0.367251
Sr2_2 Sr 0.71399(7) 0.10778(9) 0.18529(6)
C26_2 C 0.8183(9) 0.1080(12) 0.0284(8)
H31_2 H 0.863405 0.116349 0.054672
H32_2 H 0.798981 0.17072 0.015328
C27_2 C 0.5531(9) 0.0964(11) 0.0724(8)
H33_2 H 0.52751 0.130313 0.035161
H34_2 H 0.521217 0.090572 0.112989
H35_2 H 0.566921 0.032566 0.056179
C28_2 C 0.6684(8) 0.3551(10) 0.1652(9)
H36_2 H 0.68761 0.419189 0.155834
H37_2 H 0.644761 0.35445 0.210808
H38_2 H 0.63301 0.338141 0.129186
O5_2 O 0.7532(5) 0.0101(7) 0.2911(5)
O6_2 O 0.7674(5) 0.0596(7) 0.0696(5)
H40_2 H 0.73647 0.033149 0.043906
O7_2 O 0.6171(5) 0.1489(7) 0.0914(5)
H41_2 H 0.651223 0.134088 0.064514
O8_2 O 0.7272(5) 0.2867(7) 0.1646(6)
H42_2 H 0.767045 0.315845 0.163629
N13_2 N 0.6062(7) 0.1590(8) 0.2674(6)
N16_2 N 0.8522(7) 0.1483(8) 0.2135(6)
Sr1_2 Sr 0.28601(7) 0.89222(9) 0.81471(6)
H3 H 0.509515 0.952031 0.632749
C12_2 C 0.1817(9) 0.8920(12) 0.9716(8)
H10_2 H 0.136595 0.883651 0.945328
H11_2 H 0.201019 0.82928 0.984672
C13_2 C 0.4469(9) 0.9036(11) 0.9276(8)
H12_2 H 0.47249 0.869687 0.964839
H13_2 H 0.478783 0.909428 0.887011
H14_2 H 0.433079 0.967434 0.943821
C14_2 C 0.3316(8) 0.6449(10) 0.8348(9)
H15_2 H 0.31239 0.580811 0.844166
H16_2 H 0.355239 0.64555 0.789192
H17_2 H 0.36699 0.661859 0.870814
O1_2 O 0.2468(5) 0.9899(7) 0.7089(5)
O2_2 O 0.2326(5) 0.9404(7) 0.9304(5)
H19_2 H 0.26353 0.966851 0.956094
O3_2 O 0.3829(5) 0.8511(7) 0.9086(5)
H20_2 H 0.348777 0.865912 0.935486
O4_2 O 0.2728(5) 0.7133(7) 0.8354(6)
H21_2 H 0.232955 0.684155 0.836371
C15_2 C 0.5318(7) 0.7958(10) 0.3365(7)
H22_2 H 0.54241 0.730379 0.328119
C16_2 C 0.5296(8) 0.8268(9) 0.4046(7)
H23_2 H 0.540771 0.784457 0.441712
C17_2 C 0.5103(7) 0.9230(9) 0.4181(7)
C18_2 C 0.4999(7) 0.9818(9) 0.3608(7)
C19_2 C 0.5032(7) 0.9451(9) 0.2954(7)
H25_2 H 0.493371 0.986316 0.257315
C20_2 C 0.5053(7) 0.9543(9) 0.4909(7)
H26 H 0.509903 0.907833 0.526685
N7_2 N 0.5200(7) 0.8523(8) 0.2819(5)
Re2_2 Re 0.51894(3) 0.79074(4) 0.16323(3)
C21_2 C 0.6027(7) 0.8903(9) 0.1583(7)
C22_2 C 0.4380(7) 0.8969(9) 0.1509(7)
C23_2 C 0.4378(7) 0.7042(10) 0.2067(6)
C24_2 C 0.5993(7) 0.6959(10) 0.1988(7)
C25_2 C 0.7110(9) 0.9423(11) 0.3288(8)
H27_2 H 0.739983 0.915832 0.36694
H28_2 H 0.695958 0.89059 0.297583
H29_2 H 0.66786 0.973873 0.347888
H39_2 H 0.797381 0.99644 0.295047
N8_2 N 0.5175(7) 0.7532(8) 0.0802(5)
N9_2 N 0.6530(6) 0.9418(8) 0.1603(6)
N10_2 N 0.3908(7) 0.9494(9) 0.1415(6)
N11_2 N 0.3938(7) 0.6590(8) 0.2326(6)
N12_2 N 0.6478(7) 0.6483(8) 0.2135(6)
N14_2 N 0.3938(7) 0.8410(8) 0.7326(6)
N15_2 N 0.1478(7) 0.8517(8) 0.7865(6)
H5_2 H 0.509903 0.592167 0.026685
C15_3 C 0.4682(7) 0.2958(10) 0.1635(7)
H22_3 H 0.45759 0.230379 0.171881
C16_3 C 0.4704(8) 0.3268(9) 0.0954(7)
H23_3 H 0.459229 0.284457 0.058288
C17_3 C 0.4897(7) 0.4230(9) 0.0819(7)
C18_3 C 0.5001(7) 0.4818(9) 0.1392(7)
H24_2 H 0.509515 0.547969 0.132749
C19_3 C 0.4968(7) 0.4451(9) 0.2046(7)
H25_3 H 0.506629 0.486316 0.242685
C20_3 C 0.4947(7) 0.4543(9) 0.0091(7)
N7_3 N 0.4800(7) 0.3523(8) 0.2181(5)
Re2_3 Re 0.48106(3) 0.29074(4) 0.33677(3)
C21_3 C 0.3973(7) 0.3903(9) 0.3417(7)
C22_3 C 0.5620(7) 0.3969(9) 0.3491(7)
C23_3 C 0.5622(7) 0.2042(10) 0.2933(6)
C24_3 C 0.4007(7) 0.1959(10) 0.3012(7)
C25_3 C 0.2890(9) 0.4423(11) 0.1712(8)
H27_3 H 0.260017 0.415832 0.13306
H28_3 H 0.304042 0.39059 0.202417
H29_3 H 0.33214 0.473873 0.152112
C26_3 C 0.1817(9) 0.6080(12) 0.4716(8)
H30_2 H 0.17186 0.570655 0.513743
H31_3 H 0.136595 0.616349 0.445328
H32_3 H 0.201019 0.67072 0.484672
C27_3 C 0.4469(9) 0.5964(11) 0.4276(8)
H33_3 H 0.47249 0.630313 0.464839
H34_3 H 0.478783 0.590572 0.387011
H35_3 H 0.433079 0.532566 0.443821
C28_3 C 0.3316(8) 0.8551(10) 0.3348(9)
H36_3 H 0.31239 0.919189 0.344166
H37_3 H 0.355239 0.85445 0.289192
H38_3 H 0.36699 0.838141 0.370814
O5_3 O 0.2468(5) 0.5101(7) 0.2089(5)
H39_3 H 0.202619 0.49644 0.204953
O6_3 O 0.2326(5) 0.5596(7) 0.4304(5)
H40_3 H 0.26353 0.533149 0.456094
O7_3 O 0.3829(5) 0.6489(7) 0.4086(5)
H41_3 H 0.348777 0.634088 0.435486
O8_3 O 0.2728(5) 0.7867(7) 0.3354(6)
H42_3 H 0.232955 0.815845 0.336371
N8_3 N 0.4825(7) 0.2532(8) 0.4198(5)
N9_3 N 0.3470(6) 0.4418(8) 0.3397(6)
N10_3 N 0.6092(7) 0.4494(9) 0.3585(6)
Re1_3 Re 0.51894(3) 0.70926(4) 0.66323(3)
C1_3 C 0.6027(7) 0.6097(9) 0.6583(7)
C2_3 C 0.4380(7) 0.6031(9) 0.6509(7)
C3_3 C 0.4378(7) 0.7958(10) 0.7067(6)
C4_3 C 0.5993(7) 0.8041(10) 0.6988(7)
C5_3 C 0.5318(7) 0.7042(10) 0.8365(7)
H1_3 H 0.54241 0.769621 0.828119
C6_3 C 0.5296(8) 0.6732(9) 0.9046(7)
H2_3 H 0.540771 0.715543 0.941712
C7_3 C 0.5103(7) 0.5770(9) 0.9181(7)
C8_3 C 0.4999(7) 0.5182(9) 0.8608(7)
H3_2 H 0.490485 0.452031 0.867251
C9_3 C 0.5032(7) 0.5549(9) 0.7954(7)
H4_3 H 0.493371 0.513684 0.757315
C10_3 C 0.5053(7) 0.5457(9) 0.9909(7)
C11_3 C 0.7110(9) 0.5577(11) 0.8288(8)
H6_3 H 0.739983 0.584168 0.86694
H7_3 H 0.695958 0.60941 0.797583
H8_3 H 0.66786 0.526127 0.847888
C12_3 C 0.8183(9) 0.3920(12) 0.5284(8)
H9_2 H 0.82814 0.429345 0.486257
H10_3 H 0.863405 0.383651 0.554672
H11_3 H 0.798981 0.32928 0.515328
C13_3 C 0.5531(9) 0.4036(11) 0.5724(8)
H12_3 H 0.52751 0.369687 0.535161
H13_3 H 0.521217 0.409428 0.612989
H14_3 H 0.566921 0.467434 0.556179
C14_3 C 0.6684(8) 0.1449(10) 0.6652(9)
H15_3 H 0.68761 0.080811 0.655834
H16_3 H 0.644761 0.14555 0.710808
H17_3 H 0.63301 0.161859 0.629186
O1_3 O 0.7532(5) 0.4899(7) 0.7911(5)
H18_3 H 0.797381 0.50356 0.795047
O2_3 O 0.7674(5) 0.4404(7) 0.5696(5)
H19_3 H 0.73647 0.466851 0.543906
O3_3 O 0.6171(5) 0.3511(7) 0.5914(5)
H20_3 H 0.651223 0.365912 0.564514
O4_3 O 0.7272(5) 0.2133(7) 0.6646(6)
H21_3 H 0.767045 0.184155 0.663629
N1_3 N 0.5175(7) 0.7468(8) 0.5802(5)
N2_3 N 0.6530(6) 0.5582(8) 0.6603(6)
N3_3 N 0.3908(7) 0.5506(9) 0.6415(6)
N6_3 N 0.5200(7) 0.6477(8) 0.7819(5)
H26_2 H 0.490097 0.407833 0.973315
C2_4 C 0.0620(7) 0.3969(9) 0.1509(7)
C3_4 C 0.0622(7) 0.2042(10) 0.2067(6)
C8_4 C 0.0001(7) 0.4818(9) 0.3608(7)
H3_3 H 0.009515 0.547969 0.367251
H4_4 H 0.006629 0.486316 0.257315
N3_4 N 0.1092(7) 0.4494(9) 0.1415(6)
C15_4 C 0.0318(7) 0.7042(10) 0.6635(7)
H22_4 H 0.04241 0.769621 0.671881
C16_4 C 0.0296(8) 0.6732(9) 0.5954(7)
H23_4 H 0.040771 0.715543 0.558288
C17_4 C 0.0103(7) 0.5770(9) 0.5819(7)
C19_4 C 0.0032(7) 0.5549(9) 0.7046(7)
C20_4 C 0.0053(7) 0.5457(9) 0.5091(7)
H26_3 H 0.009903 0.592167 0.473315
N7_4 N 0.0200(7) 0.6477(8) 0.7181(5)
Re2_4 Re 0.01894(3) 0.70926(4) 0.83677(3)
C21_4 C 0.1027(7) 0.6097(9) 0.8417(7)
C24_4 C 0.0993(7) 0.8041(10) 0.8012(7)
C25_4 C 0.2110(9) 0.5577(11) 0.6712(8)
H27_4 H 0.239983 0.584168 0.63306
H28_4 H 0.195958 0.60941 0.702417
H29_4 H 0.16786 0.526127 0.652112
C26_4 C 0.3183(9) 0.3920(12) 0.9716(8)
H31_4 H 0.363405 0.383651 0.945328
H32_4 H 0.298981 0.32928 0.984672
C27_4 C 0.0531(9) 0.4036(11) 0.9276(8)
H33_4 H 0.02751 0.369687 0.964839
H34_4 H 0.021217 0.409428 0.887011
H35_4 H 0.066921 0.467434 0.943821
C28_4 C 0.1684(8) 0.1449(10) 0.8348(9)
H36_4 H 0.18761 0.080811 0.844166
H37_4 H 0.144761 0.14555 0.789192
H38_4 H 0.13301 0.161859 0.870814
O5_4 O 0.2532(5) 0.4899(7) 0.7089(5)
H39_4 H 0.297381 0.50356 0.704953
O6_4 O 0.2674(5) 0.4404(7) 0.9304(5)
H40_4 H 0.23647 0.466851 0.956094
O7_4 O 0.1171(5) 0.3511(7) 0.9086(5)
H41_4 H 0.151223 0.365912 0.935486
O8_4 O 0.2272(5) 0.2133(7) 0.8354(6)
H42_4 H 0.267045 0.184155 0.836371
N8_4 N 0.0175(7) 0.7468(8) 0.9198(5)
N9_4 N 0.1530(6) 0.5582(8) 0.8397(6)
Re1_4 Re 0.98106(3) 0.29074(4) 0.16323(3)
C1_4 C 0.8973(7) 0.3903(9) 0.1583(7)
C4_4 C 0.9007(7) 0.1959(10) 0.1988(7)
C5_4 C 0.9682(7) 0.2958(10) 0.3365(7)
H1_4 H 0.95759 0.230379 0.328119
C6_4 C 0.9704(8) 0.3268(9) 0.4046(7)
H2_4 H 0.959229 0.284457 0.441712
C7_4 C 0.9897(7) 0.4230(9) 0.4181(7)
C9_4 C 0.9968(7) 0.4451(9) 0.2954(7)
C10_4 C 0.9947(7) 0.4543(9) 0.4909(7)
H5_3 H 0.990097 0.407833 0.526685
C11_4 C 0.7890(9) 0.4423(11) 0.3288(8)
H6_4 H 0.760017 0.415832 0.36694
H7_4 H 0.804042 0.39059 0.297583
H8_4 H 0.83214 0.473873 0.347888
C12_4 C 0.6817(9) 0.6080(12) 0.0284(8)
H10_4 H 0.636595 0.616349 0.054672
H11_4 H 0.701019 0.67072 0.015328
C13_4 C 0.9469(9) 0.5964(11) 0.0724(8)
H12_4 H 0.97249 0.630313 0.035161
H13_4 H 0.978783 0.590572 0.112989
H14_4 H 0.933079 0.532566 0.056179
C14_4 C 0.8316(8) 0.8551(10) 0.1652(9)
H15_4 H 0.81239 0.919189 0.155834
H16_4 H 0.855239 0.85445 0.210808
H17_4 H 0.86699 0.838141 0.129186
O1_4 O 0.7468(5) 0.5101(7) 0.2911(5)
H18_4 H 0.702619 0.49644 0.295047
O2_4 O 0.7326(5) 0.5596(7) 0.0696(5)
H19_4 H 0.76353 0.533149 0.043906
O3_4 O 0.8829(5) 0.6489(7) 0.0914(5)
H20_4 H 0.848777 0.634088 0.064514
O4_4 O 0.7728(5) 0.7867(7) 0.1646(6)
H21_4 H 0.732955 0.815845 0.163629
N1_4 N 0.9825(7) 0.2532(8) 0.0802(5)
N2_4 N 0.8470(6) 0.4418(8) 0.1603(6)
N6_4 N 0.9800(7) 0.3523(8) 0.2819(5)
C18_4 C 0.9999(7) 0.5182(9) 0.6392(7)
H24_3 H 0.990485 0.452031 0.632749
H25_4 H 0.993371 0.513684 0.742685
C22_4 C 0.9380(7) 0.6031(9) 0.8491(7)
C23_4 C 0.9378(7) 0.7958(10) 0.7933(6)
N10_4 N 0.8908(7) 0.5506(9) 0.8585(6)
H5_4 H 0.009903 0.907833 0.973315
H24_4 H 0.009515 0.952031 0.867251
H3_4 H 0.990485 0.047969 0.132749
H26_4 H 0.990097 0.092167 0.026685
H30_3 H 0.82814 0.070655 0.986257
H9_3 H 0.17186 0.929345 0.013743
H30_4 H 0.32814 0.429345 0.013743
H9_4 H 0.67186 0.570655 0.986257
loop_
_geom_bond_atom_site_label_1
_geom_bond_atom_site_label_2
_geom_bond_site_symmetry_1
_geom_bond_site_symmetry_2
Sr1 O1 1_555 1_555
C12 H9 1_555 1_555
H10 C12 1_555 1_555
H11 C12 1_555 1_555
C13 H12 1_555 1_555
H13 C13 1_555 1_555
H14 C13 1_555 1_555
C14 H15 1_555 1_555
H16 C14 1_555 1_555
H17 C14 1_555 1_555
O2 Sr1 1_555 1_555
H19 O2 1_555 1_555
O3 Sr1 1_555 1_555
H20 O3 1_555 1_555
O4 Sr1 1_555 1_555
H21 O4 1_555 1_555
N14 Sr1 1_555 1_555
N15 Sr1 1_555 1_555
C12 O2 1_555 1_555
C13 O3 1_555 1_555
C14 O4 1_555 1_555
N10 C22 1_555 1_555
N11 C23 1_555 1_555
Sr4 N11 1_555 1_555
Re1 C1 1_555 1_555
C1 N2 1_555 1_555
C4 Re1 1_555 1_555
C5 H1 1_555 1_555
C6 C5 1_555 1_555
H2 C6 1_555 1_555
C7 C6 1_555 1_555
C10 C7 1_555 1_555
C11 H6 1_555 1_555
H7 C11 1_555 1_555
H8 C11 1_555 1_555
N1 Re1 1_555 1_555
N5 C4 1_555 1_555
N6 Re1 1_555 1_555
Sr3 N5 1_555 1_555
C5 N6 1_555 1_555
C9 N6 1_555 1_555
C15 H22 1_555 1_555
C16 C15 1_555 1_555
H23 C16 1_555 1_555
C17 C16 1_555 1_555
N7 C15 1_555 1_555
Re2 N7 1_555 1_555
C21 Re2 1_555 1_555
C24 Re2 1_555 1_555
C25 H27 1_555 1_555
H28 C25 1_555 1_555
H29 C25 1_555 1_555
N8 Re2 1_555 1_555
N12 C24 1_555 1_555
Sr5 N12 1_555 1_555
C17 C20 1_555 1_555
C19 N7 1_555 1_555
C21 N9 1_555 1_555
N3 C2 1_555 1_555
N4 C3 1_555 1_555
Sr6 N4 1_555 1_555
Sr2 O5 1_555 1_555
C26 H30 1_555 1_555
H31 C26 1_555 1_555
H32 C26 1_555 1_555
C27 H33 1_555 1_555
H34 C27 1_555 1_555
H35 C27 1_555 1_555
C28 H36 1_555 1_555
H37 C28 1_555 1_555
H38 C28 1_555 1_555
O6 Sr2 1_555 1_555
H40 O6 1_555 1_555
O7 Sr2 1_555 1_555
H41 O7 1_555 1_555
O8 Sr2 1_555 1_555
H42 O8 1_555 1_555
N13 Sr2 1_555 1_555
N16 Sr2 1_555 1_555
C26 O6 1_555 1_555
C27 O7 1_555 1_555
C28 O8 1_555 1_555
Re1_2 C1_2 1_555 1_555
C1_2 N2_2 1_555 1_555
C2_2 Re1_2 1_555 1_555
C3_2 Re1_2 1_555 1_555
C4_2 Re1_2 1_555 1_555
C5_2 H1_2 1_555 1_555
C6_2 C5_2 1_555 1_555
H2_2 C6_2 1_555 1_555
C7_2 C6_2 1_555 1_555
C8_2 C7_2 1_555 1_555
C9_2 C8_2 1_555 1_555
H4_2 C9_2 1_555 1_555
C10_2 C7_2 1_555 1_555
H5 C10_2 1_555 1_555
C11_2 H6_2 1_555 1_555
H7_2 C11_2 1_555 1_555
H8_2 C11_2 1_555 1_555
N1_2 Re1_2 1_555 1_555
N3_2 C2_2 1_555 1_555
N4_2 C3_2 1_555 1_555
N5_2 C4_2 1_555 1_555
N6_2 Re1_2 1_555 1_555
Sr2_2 O5_2 1_555 1_555
H31_2 C26_2 1_555 1_555
H32_2 C26_2 1_555 1_555
C27_2 H33_2 1_555 1_555
H34_2 C27_2 1_555 1_555
H35_2 C27_2 1_555 1_555
C28_2 H36_2 1_555 1_555
H37_2 C28_2 1_555 1_555
H38_2 C28_2 1_555 1_555
O6_2 Sr2_2 1_555 1_555
H40_2 O6_2 1_555 1_555
O7_2 Sr2_2 1_555 1_555
H41_2 O7_2 1_555 1_555
O8_2 Sr2_2 1_555 1_555
H42_2 O8_2 1_555 1_555
Sr4 N5_2 1_555 1_555
Sr5 N4_2 1_555 1_555
N13_2 Sr2_2 1_555 1_555
N16_2 Sr2_2 1_555 1_555
C5_2 N6_2 1_555 1_555
C9_2 N6_2 1_555 1_555
C26_2 O6_2 1_555 1_555
C27_2 O7_2 1_555 1_555
C28_2 O8_2 1_555 1_555
Sr1_2 O1_2 1_555 1_555
H10_2 C12_2 1_555 1_555
H11_2 C12_2 1_555 1_555
C13_2 H12_2 1_555 1_555
H13_2 C13_2 1_555 1_555
H14_2 C13_2 1_555 1_555
C14_2 H15_2 1_555 1_555
H16_2 C14_2 1_555 1_555
H17_2 C14_2 1_555 1_555
O2_2 Sr1_2 1_555 1_555
H19_2 O2_2 1_555 1_555
O3_2 Sr1_2 1_555 1_555
H20_2 O3_2 1_555 1_555
O4_2 Sr1_2 1_555 1_555
H21_2 O4_2 1_555 1_555
C15_2 H22_2 1_555 1_555
C16_2 C15_2 1_555 1_555
H23_2 C16_2 1_555 1_555
C17_2 C16_2 1_555 1_555
C18_2 C17_2 1_555 1_555
C19_2 C18_2 1_555 1_555
H25_2 C19_2 1_555 1_555
H26 C20_2 1_555 1_555
N7_2 C15_2 1_555 1_555
Re2_2 N7_2 1_555 1_555
C21_2 Re2_2 1_555 1_555
C22_2 Re2_2 1_555 1_555
C23_2 Re2_2 1_555 1_555
C24_2 Re2_2 1_555 1_555
C25_2 H27_2 1_555 1_555
H28_2 C25_2 1_555 1_555
H29_2 C25_2 1_555 1_555
N8_2 Re2_2 1_555 1_555
N10_2 C22_2 1_555 1_555
N11_2 C23_2 1_555 1_555
N12_2 C24_2 1_555 1_555
Sr3 N11_2 1_555 1_555
Sr6 N12_2 1_555 1_555
N14_2 Sr1_2 1_555 1_555
N15_2 Sr1_2 1_555 1_555
C12_2 O2_2 1_555 1_555
C13_2 O3_2 1_555 1_555
C14_2 O4_2 1_555 1_555
C17_2 C20_2 1_555 1_555
C19_2 N7_2 1_555 1_555
C21_2 N9_2 1_555 1_555
C15_3 H22_3 1_555 1_555
C16_3 C15_3 1_555 1_555
H23_3 C16_3 1_555 1_555
C17_3 C16_3 1_555 1_555
C18_3 C17_3 1_555 1_555
H24_2 C18_3 1_555 1_555
C19_3 C18_3 1_555 1_555
H25_3 C19_3 1_555 1_555
N7_3 C15_3 1_555 1_555
Re2_3 N7_3 1_555 1_555
Sr3 O5_3 1_555 1_555
C21_3 Re2_3 1_555 1_555
C22_3 Re2_3 1_555 1_555
C23_3 Re2_3 1_555 1_555
C24_3 Re2_3 1_555 1_555
C25_3 H27_3 1_555 1_555
H28_3 C25_3 1_555 1_555
H29_3 C25_3 1_555 1_555
C26_3 H30_2 1_555 1_555
H31_3 C26_3 1_555 1_555
H32_3 C26_3 1_555 1_555
C27_3 H33_3 1_555 1_555
H34_3 C27_3 1_555 1_555
H35_3 C27_3 1_555 1_555
C28_3 H36_3 1_555 1_555
H37_3 C28_3 1_555 1_555
H38_3 C28_3 1_555 1_555
O5_3 C25_3 1_555 1_555
H39_3 O5_3 1_555 1_555
O6_3 Sr3 1_555 1_555
H40_3 O6_3 1_555 1_555
O7_3 Sr3 1_555 1_555
H41_3 O7_3 1_555 1_555
O8_3 Sr3 1_555 1_555
H42_3 O8_3 1_555 1_555
N8_3 Re2_3 1_555 1_555
N9_3 Sr3 1_555 1_555
N10_3 C22_3 1_555 1_555
N13_2 C23_3 1_555 1_555
N15 C24_3 1_555 1_555
C17_3 C20_3 1_555 1_555
C19_3 N7_3 1_555 1_555
C21_3 N9_3 1_555 1_555
C26_3 O6_3 1_555 1_555
C27_3 O7_3 1_555 1_555
C28_3 O8_3 1_555 1_555
Re1_3 C1_3 1_555 1_555
Sr5 O1_3 1_555 1_555
C1_3 N2_3 1_555 1_555
C2_3 Re1_3 1_555 1_555
C3_3 Re1_3 1_555 1_555
C4_3 Re1_3 1_555 1_555
C5_3 H1_3 1_555 1_555
C6_3 C5_3 1_555 1_555
H2_3 C6_3 1_555 1_555
C7_3 C6_3 1_555 1_555
C8_3 C7_3 1_555 1_555
H3_2 C8_3 1_555 1_555
C9_3 C8_3 1_555 1_555
H4_3 C9_3 1_555 1_555
C10_3 C7_3 1_555 1_555
C11_3 H6_3 1_555 1_555
H7_3 C11_3 1_555 1_555
H8_3 C11_3 1_555 1_555
C12_3 H9_2 1_555 1_555
H10_3 C12_3 1_555 1_555
H11_3 C12_3 1_555 1_555
C13_3 H12_3 1_555 1_555
H13_3 C13_3 1_555 1_555
H14_3 C13_3 1_555 1_555
C14_3 H15_3 1_555 1_555
H16_3 C14_3 1_555 1_555
H17_3 C14_3 1_555 1_555
O1_3 C11_3 1_555 1_555
H18_3 O1_3 1_555 1_555
O2_3 Sr5 1_555 1_555
H19_3 O2_3 1_555 1_555
O3_3 Sr5 1_555 1_555
H20_3 O3_3 1_555 1_555
O4_3 Sr5 1_555 1_555
H21_3 O4_3 1_555 1_555
N1_3 Re1_3 1_555 1_555
N2_3 Sr5 1_555 1_555
N3_3 C2_3 1_555 1_555
N14_2 C3_3 1_555 1_555
N16 C4_3 1_555 1_555
N6_3 Re1_3 1_555 1_555
C5_3 N6_3 1_555 1_555
C9_3 N6_3 1_555 1_555
C12_3 O2_3 1_555 1_555
C13_3 O3_3 1_555 1_555
C14_3 O4_3 1_555 1_555
H3_3 C8_4 1_555 1_555
N3_4 C2_4 1_555 1_555
N14 C3_4 1_555 1_555
C15_4 H22_4 1_555 1_555
C16_4 C15_4 1_555 1_555
H23_4 C16_4 1_555 1_555
C17_4 C16_4 1_555 1_555
H26_3 C20_4 1_555 1_555
N7_4 C15_4 1_555 1_555
Re2_4 N7_4 1_555 1_555
Sr4 O5_4 1_555 1_555
C21_4 Re2_4 1_555 1_555
C24_4 Re2_4 1_555 1_555
C25_4 H27_4 1_555 1_555
H28_4 C25_4 1_555 1_555
H29_4 C25_4 1_555 1_555
H31_4 C26_4 1_555 1_555
H32_4 C26_4 1_555 1_555
C27_4 H33_4 1_555 1_555
H34_4 C27_4 1_555 1_555
H35_4 C27_4 1_555 1_555
C28_4 H36_4 1_555 1_555
H37_4 C28_4 1_555 1_555
H38_4 C28_4 1_555 1_555
O5_4 C25_4 1_555 1_555
H39_4 O5_4 1_555 1_555
O6_4 Sr4 1_555 1_555
H40_4 O6_4 1_555 1_555
O7_4 Sr4 1_555 1_555
H41_4 O7_4 1_555 1_555
O8_4 Sr4 1_555 1_555
H42_4 O8_4 1_555 1_555
N8_4 Re2_4 1_555 1_555
N9_4 Sr4 1_555 1_555
N15_2 C24_4 1_555 1_555
C17_4 C20_4 1_555 1_555
C19_4 N7_4 1_555 1_555
C21_4 N9_4 1_555 1_555
C26_4 O6_4 1_555 1_555
C27_4 O7_4 1_555 1_555
C28_4 O8_4 1_555 1_555
Re1_4 C1_4 1_555 1_555
Sr6 O1_4 1_555 1_555
C1_4 N2_4 1_555 1_555
C4_4 Re1_4 1_555 1_555
C5_4 H1_4 1_555 1_555
C6_4 C5_4 1_555 1_555
H2_4 C6_4 1_555 1_555
C7_4 C6_4 1_555 1_555
C10_4 C7_4 1_555 1_555
H5_3 C10_4 1_555 1_555
C11_4 H6_4 1_555 1_555
H7_4 C11_4 1_555 1_555
H8_4 C11_4 1_555 1_555
H10_4 C12_4 1_555 1_555
H11_4 C12_4 1_555 1_555
C13_4 H12_4 1_555 1_555
H13_4 C13_4 1_555 1_555
H14_4 C13_4 1_555 1_555
C14_4 H15_4 1_555 1_555
H16_4 C14_4 1_555 1_555
H17_4 C14_4 1_555 1_555
O1_4 C11_4 1_555 1_555
H18_4 O1_4 1_555 1_555
O2_4 Sr6 1_555 1_555
H19_4 O2_4 1_555 1_555
O3_4 Sr6 1_555 1_555
H20_4 O3_4 1_555 1_555
O4_4 Sr6 1_555 1_555
H21_4 O4_4 1_555 1_555
N1_4 Re1_4 1_555 1_555
N2_4 Sr6 1_555 1_555
N16_2 C4_4 1_555 1_555
N6_4 Re1_4 1_555 1_555
H24_3 C18_4 1_555 1_555
N10_4 C22_4 1_555 1_555
N13 C23_4 1_555 1_555
C5_4 N6_4 1_555 1_555
C9_4 N6_4 1_555 1_555
C12_4 O2_4 1_555 1_555
C13_4 O3_4 1_555 1_555
C14_4 O4_4 1_555 1_555

#END
