
###############################################################################
#
# This file contains modified crystal structure data generated from the
# MOF subset of the Cambridge Structural Database (CSD) v543 
# hosted by the Cambridge Crystallographic Data Centre (CCDC).
#
# This work is licensed under the Creative Commons
# Attribution-NonCommercial-ShareAlike 4.0 International License.
# To view a copy of this license, visit
# http://creativecommons.org/licenses/by-nc-sa/4.0/
# or send a letter to
# Creative Commons, PO Box 1866, Mountain View, CA 94042, USA.
#
# CIF created using the CSD Python API on 29 September 2022
# The structure has been converted into the P1 space group
# The structure has a 3D framework
# The original CSD entry UNAZIT is in the orthorhombic crystal system
# The original CSD entry UNAZIT is in a Sohncke space group
# The framework has been calculated to contain at least 10.0% void space
# The void calculation uses a probe of radius 1.32A, grid spacing 0.4
#
###############################################################################

data_UNAZIT
_chemical_formula_moiety         '(C280 H200 Cd8 N56 O38)n'
_symmetry_cell_setting           triclinic
_symmetry_space_group_name_H-M   'P 1'
_symmetry_Int_Tables_number      1
_space_group_name_Hall           'P 1'
loop_
_symmetry_equiv_pos_site_id
_symmetry_equiv_pos_as_xyz
1 x,y,z
_cell_length_a                   18.1535(12)
_cell_length_b                   18.3033(14)
_cell_length_c                   25.2354(19)
_cell_angle_alpha                90
_cell_angle_beta                 90
_cell_angle_gamma                90
_cell_volume                     8384.94
loop_
_atom_site_label
_atom_site_type_symbol
_atom_site_fract_x
_atom_site_fract_y
_atom_site_fract_z
C6 C 0.0158(3) 0.1327(2) 0.59435(19)
H6 H 0.0310 0.1677 0.6187
C7 C 0.3374(3) 0.4804(2) 0.32727(17)
H7 H 0.3448 0.4829 0.3637
C8 C 0.3562(3) 0.4740(3) 0.2435(2)
H8 H 0.3804 0.4719 0.2111
C9 C 0.2821(3) 0.4645(3) 0.25061(18)
H9 H 0.2469 0.4566 0.2245
C24 C 0.0815(3) 0.4231(2) 0.39017(19)
C25 C 0.0890(3) 0.3934(3) 0.3420(2)
H17 H 0.0527 0.3623 0.3293
C26 C 0.1521(3) 0.4086(3) 0.3099(2)
H18 H 0.1576 0.3889 0.2762
C27 C 0.2033(3) 0.4535(3) 0.33147(18)
C28 C 0.1948(3) 0.4849(3) 0.38304(17)
H19 H 0.2313 0.5143 0.3976
C29 C 0.1310(3) 0.4700(3) 0.41031(18)
H20 H 0.1222 0.4925 0.4427
C30 C 0.0168(3) 0.3396(3) 0.45096(19)
C33 C 0.0131(3) 0.2147(3) 0.51381(19)
C34 C 0.0437(2) 0.2132(3) 0.46533(18)
H23 H 0.0646 0.1701 0.4529
C35 C 0.0444(3) 0.2757(3) 0.4334(2)
H24 H 0.0642 0.2731 0.3994
N3 N 0.0158(2) 0.4037(2) 0.42098(15)
N4 N 0.0014(2) 0.0649(2) 0.60580(15)
N5 N 0.0056(2) 0.1447(2) 0.54289(15)
N6 N 0.3902(2) 0.4874(2) 0.29211(15)
N7 N 0.2706(2) 0.4692(2) 0.30431(15)
Cd3 Cd 0.511318(18) 0.50292(2) 0.311747(13)
Cd4 Cd 0.488682(18) 0.00292(2) 0.188253(13)
C1 C 0.6840(3) 0.4844(3) 0.33654(19)
H1 H 0.6752 0.4366 0.3474
C2 C 0.6676(3) 0.5936(2) 0.3073(2)
H2 H 0.6443 0.6351 0.2941
C3 C 0.7420(2) 0.5873(2) 0.32050(17)
H3 H 0.7782 0.6230 0.3174
C4 C 0.9824(3) 0.0335(3) 0.56126(18)
C5 C 0.9821(3) 0.0825(2) 0.51898(18)
H5 H 0.9692 0.0747 0.4838
C10 C 0.4757(3) 0.6520(3) 0.33503(18)
C11 C 0.4572(3) 0.7277(3) 0.34758(17)
C12 C 0.4564(3) 0.7766(3) 0.30405(19)
H10 H 0.4612 0.7596 0.2695
C13 C 0.4478(3) 0.8535(3) 0.3147(2)
C14 C 0.4350(3) 0.8750(3) 0.36571(19)
H11 H 0.4278 0.9245 0.3724
C15 C 0.4321(3) 0.8249(3) 0.40974(19)
C16 C 0.4441(3) 0.7519(3) 0.39642(19)
H12 H 0.4429 0.7176 0.4236
C17 C 0.4578(3) 0.9050(3) 0.27018(17)
C18 C 0.8164(3) 0.4876(2) 0.35786(18)
C19 C 0.8749(3) 0.5322(3) 0.37033(19)
H13 H 0.8708 0.5821 0.3644
C20 C 0.9397(3) 0.5050(3) 0.39140(19)
H14 H 0.9786 0.5369 0.3978
C21 C 0.9479(3) 0.4332(3) 0.4029(2)
C22 C 0.8889(3) 0.3867(3) 0.3914(2)
H15 H 0.8932 0.3371 0.3988
C23 C 0.8246(3) 0.4127(3) 0.36907(19)
H16 H 0.7864 0.3805 0.3614
C31 C 0.9874(3) 0.3406(2) 0.50149(17)
H21 H 0.9676 0.3847 0.5130
C32 C 0.9844(3) 0.2806(3) 0.5380(2)
H22 H 0.9664 0.2836 0.5724
N1 N 0.6346(2) 0.5266(2) 0.31757(15)
N2 N 0.7507(2) 0.5173(2) 0.33895(17)
O1 O 0.49800(19) 0.63043(18) 0.28937(12)
O2 O 0.47104(19) 0.60456(19) 0.37340(13)
O3 O 0.46313(19) 0.97124(19) 0.27889(12)
O4 O 0.4586(2) 0.88173(18) 0.22556(12)
O5 O 0.4193(2) 0.85386(19) 0.45549(13)
H25 H 0.4187 0.8153 0.4812
N8 N 0.5014(2) 0.4351(2) 0.39420(15)
O6 O 0.53687(19) 0.47124(19) 0.22111(12)
O7 O 0.5414(2) 0.38173(18) 0.27444(12)
C10_2 C 0.0243(3) 0.3480(3) 0.83503(18)
C11_2 C 0.0428(3) 0.2723(3) 0.84758(17)
C12_2 C 0.0436(3) 0.2234(3) 0.80405(19)
H10_2 H 0.0388 0.2404 0.7695
C13_2 C 0.0522(3) 0.1465(3) 0.8147(2)
C14_2 C 0.0650(3) 0.1250(3) 0.86571(19)
H11_2 H 0.0722 0.0755 0.8724
C15_2 C 0.0679(3) 0.1751(3) 0.90974(19)
C16_2 C 0.0559(3) 0.2481(3) 0.89642(19)
H12_2 H 0.0571 0.2824 0.9236
C17_2 C 0.0422(3) 0.0950(3) 0.77018(17)
O1_2 O 0.00200(19) 0.36957(18) 0.78937(12)
O2_2 O 0.02896(19) 0.39544(19) 0.87340(13)
O3_2 O 0.03687(19) 0.02876(19) 0.77889(12)
O4_2 O 0.0414(2) 0.11827(18) 0.72556(12)
O5_2 O 0.0807(2) 0.14614(19) 0.95549(13)
H25_2 H 0.0813 0.1847 0.9812
N9 N 0.1098(2) 0.5126(2) 0.79211(15)
H4 H 0.5295 0.0157 0.0582
C4_2 C 0.5176(3) 0.9665(3) 0.06126(18)
C5_2 C 0.5179(3) 0.9175(2) 0.01898(18)
C6_2 C 0.4842(3) 0.8673(2) 0.09435(19)
H6_2 H 0.4690 0.8323 0.1187
C31_2 C 0.5126(3) 0.6594(2) 0.00149(17)
H21_2 H 0.5324 0.6153 0.0130
C32_2 C 0.5156(3) 0.7194(3) 0.0380(2)
H22_2 H 0.5336 0.7164 0.0724
C33_2 C 0.4869(3) 0.7853(3) 0.01381(19)
N4_2 N 0.4986(2) 0.9351(2) 0.10580(15)
N5_2 N 0.4944(2) 0.8553(2) 0.04289(15)
C1_2 C 0.8160(3) 0.5156(3) 0.83654(19)
H1_2 H 0.8248 0.5634 0.8474
C2_2 C 0.8324(3) 0.4064(2) 0.8073(2)
H2_2 H 0.8557 0.3649 0.7941
C3_2 C 0.7580(2) 0.4127(2) 0.82050(17)
H3_2 H 0.7218 0.3770 0.8174
H5_2 H 0.5308 0.9253 0.9838
C7_2 C 0.1626(3) 0.5196(2) 0.82727(17)
H7_2 H 0.1552 0.5171 0.8637
C8_2 C 0.1438(3) 0.5260(3) 0.7435(2)
H8_2 H 0.1196 0.5281 0.7111
C9_2 C 0.2179(3) 0.5355(3) 0.75061(18)
H9_2 H 0.2531 0.5434 0.7245
C18_2 C 0.6836(3) 0.5124(2) 0.85786(18)
C19_2 C 0.6251(3) 0.4678(3) 0.87033(19)
H13_2 H 0.6292 0.4179 0.8644
C20_2 C 0.5603(3) 0.4950(3) 0.89140(19)
H14_2 H 0.5214 0.4631 0.8978
C21_2 C 0.5521(3) 0.5668(3) 0.9029(2)
C22_2 C 0.6111(3) 0.6133(3) 0.8914(2)
H15_2 H 0.6068 0.6629 0.8988
C23_2 C 0.6754(3) 0.5873(3) 0.86907(19)
H16_2 H 0.7136 0.6195 0.8614
C24_2 C 0.4185(3) 0.5769(2) 0.89017(19)
C25_2 C 0.4110(3) 0.6066(3) 0.8420(2)
H17_2 H 0.4473 0.6377 0.8293
C26_2 C 0.3479(3) 0.5914(3) 0.8099(2)
H18_2 H 0.3424 0.6111 0.7762
C27_2 C 0.2967(3) 0.5465(3) 0.83147(18)
C28_2 C 0.3052(3) 0.5151(3) 0.88304(17)
H19_2 H 0.2687 0.4857 0.8976
C29_2 C 0.3690(3) 0.5300(3) 0.91031(18)
H20_2 H 0.3778 0.5075 0.9427
C30_2 C 0.4832(3) 0.6604(3) 0.95096(19)
C34_2 C 0.4563(2) 0.7868(3) 0.96533(18)
H23_2 H 0.4354 0.8299 0.9529
C35_2 C 0.4556(3) 0.7243(3) 0.9334(2)
H24_2 H 0.4358 0.7269 0.8994
Cd1 Cd 0.988682(18) 0.49708(2) 0.811747(13)
N1_2 N 0.8654(2) 0.4734(2) 0.81757(15)
N2_2 N 0.7493(2) 0.4827(2) 0.83895(17)
N3_2 N 0.4842(2) 0.5963(2) 0.92098(15)
N7_2 N 0.2294(2) 0.5308(2) 0.80431(15)
N8_2 N 0.9986(2) 0.5649(2) 0.89420(15)
O6_2 O 0.96313(19) 0.52876(19) 0.72111(12)
O7_2 O 0.9586(2) 0.61827(18) 0.77444(12)
C1_3 C 0.1840(3) 0.0156(3) 0.66346(19)
H1_3 H 0.1752 0.0634 0.6526
C4_3 C 0.4824(3) 0.4665(3) 0.43874(18)
H4_2 H 0.4705 0.5157 0.4418
C5_3 C 0.4821(3) 0.4175(2) 0.48102(18)
H5_3 H 0.4692 0.4253 0.5162
C6_3 C 0.5158(3) 0.3673(2) 0.40565(19)
H6_3 H 0.5310 0.3323 0.3813
C7_3 C 0.8374(3) 0.0196(2) 0.67273(17)
H7_3 H 0.8448 0.0171 0.6363
C8_3 C 0.8562(3) 0.0260(3) 0.7565(2)
H8_3 H 0.8804 0.0281 0.7889
C9_3 C 0.7821(3) 0.0355(3) 0.74939(18)
H9_3 H 0.7469 0.0434 0.7755
C18_3 C 0.3164(3) 0.0124(2) 0.64214(18)
C21_3 C 0.4479(3) 0.0668(3) 0.5971(2)
C22_3 C 0.3889(3) 0.1133(3) 0.6086(2)
H15_3 H 0.3932 0.1629 0.6012
C23_3 C 0.3246(3) 0.0873(3) 0.63093(19)
H16_3 H 0.2864 0.1195 0.6386
C24_3 C 0.5815(3) 0.0769(2) 0.60983(19)
C25_3 C 0.5890(3) 0.1066(3) 0.6580(2)
H17_3 H 0.5527 0.1377 0.6707
C26_3 C 0.6521(3) 0.0914(3) 0.6901(2)
H18_3 H 0.6576 0.1111 0.7238
C27_3 C 0.7033(3) 0.0465(3) 0.66853(18)
C28_3 C 0.6948(3) 0.0151(3) 0.61696(17)
C29_3 C 0.6310(3) 0.0300(3) 0.58969(18)
H20_3 H 0.6222 0.0075 0.5573
C30_3 C 0.5168(3) 0.1604(3) 0.54904(19)
C31_3 C 0.4874(3) 0.1594(2) 0.49851(17)
H21_3 H 0.4676 0.1153 0.4870
C32_3 C 0.4844(3) 0.2194(3) 0.4620(2)
H22_3 H 0.4664 0.2164 0.4276
C33_3 C 0.5131(3) 0.2853(3) 0.48619(19)
C34_3 C 0.5437(2) 0.2868(3) 0.53467(18)
H23_3 H 0.5646 0.3299 0.5471
C35_3 C 0.5444(3) 0.2243(3) 0.5666(2)
H24_3 H 0.5642 0.2269 0.6006
N3_3 N 0.5158(2) 0.0963(2) 0.57902(15)
N5_3 N 0.5056(2) 0.3553(2) 0.45711(15)
N6_2 N 0.8902(2) 0.0126(2) 0.70789(15)
N7_3 N 0.7706(2) 0.0308(2) 0.69569(15)
C10_3 C 0.9757(3) 0.8480(3) 0.66497(18)
C11_3 C 0.9572(3) 0.7723(3) 0.65242(17)
C12_3 C 0.9564(3) 0.7234(3) 0.69595(19)
H10_3 H 0.9612 0.7404 0.7305
C13_3 C 0.9478(3) 0.6465(3) 0.6853(2)
C14_3 C 0.9350(3) 0.6250(3) 0.63429(19)
H11_3 H 0.9278 0.5755 0.6276
C15_3 C 0.9321(3) 0.6751(3) 0.59026(19)
C16_3 C 0.9441(3) 0.7481(3) 0.60358(19)
H12_3 H 0.9429 0.7824 0.5764
C17_3 C 0.9578(3) 0.5950(3) 0.72982(17)
O1_3 O 0.99800(19) 0.86957(18) 0.71063(12)
O2_3 O 0.97104(19) 0.89544(19) 0.62660(13)
O5_3 O 0.9193(2) 0.64614(19) 0.54451(13)
H25_3 H 0.9187 0.6847 0.5188
C2_3 C 0.3324(3) 0.0936(2) 0.1927(2)
H2_3 H 0.3557 0.1351 0.2059
C3_3 C 0.2580(2) 0.0873(2) 0.17950(17)
H3_3 H 0.2218 0.1230 0.1826
C10_4 C 0.5243(3) 0.1520(3) 0.16497(18)
C11_4 C 0.5428(3) 0.2277(3) 0.15242(17)
C12_4 C 0.5436(3) 0.2766(3) 0.19595(19)
H10_4 H 0.5388 0.2596 0.2305
C13_4 C 0.5522(3) 0.3535(3) 0.1853(2)
C14_4 C 0.5650(3) 0.3750(3) 0.13429(19)
H11_4 H 0.5722 0.4245 0.1276
C15_4 C 0.5679(3) 0.3249(3) 0.09026(19)
C16_4 C 0.5559(3) 0.2519(3) 0.10358(19)
H12_4 H 0.5571 0.2176 0.0764
C17_4 C 0.5422(3) 0.4050(3) 0.22982(17)
C19_3 C 0.1251(3) 0.0322(3) 0.12967(19)
H13_3 H 0.1292 0.0821 0.1356
C20_3 C 0.0603(3) 0.0050(3) 0.10860(19)
H14_3 H 0.0214 0.0369 0.1022
N1_3 N 0.3654(2) 0.0266(2) 0.18243(15)
N2_3 N 0.2493(2) 0.0173(2) 0.16105(17)
O1_4 O 0.50200(19) 0.13043(18) 0.21063(12)
O2_4 O 0.52896(19) 0.10456(19) 0.12660(13)
O5_4 O 0.5807(2) 0.35386(19) 0.04451(13)
H25_4 H 0.5813 0.3153 0.0188
C1_4 C 0.3160(3) 0.9844(3) 0.16346(19)
H1_4 H 0.3248 0.9366 0.1526
H5_4 H 0.0308 0.5747 0.0162
C18_4 C 0.1836(3) 0.9876(2) 0.14214(18)
C21_4 C 0.0521(3) 0.9332(3) 0.0971(2)
C22_4 C 0.1111(3) 0.8867(3) 0.1086(2)
H15_4 H 0.1068 0.8371 0.1012
C23_4 C 0.1754(3) 0.9127(3) 0.13093(19)
H16_4 H 0.2136 0.8805 0.1386
N9_2 N 0.6098(2) 0.9874(2) 0.20789(15)
H19_3 H 0.7687 0.0143 0.1024
C7_4 C 0.6626(3) 0.9804(2) 0.17273(17)
H7_4 H 0.6552 0.9829 0.1363
C8_4 C 0.6438(3) 0.9740(3) 0.2565(2)
H8_4 H 0.6196 0.9719 0.2889
C9_4 C 0.7179(3) 0.9645(3) 0.24939(18)
H9_4 H 0.7531 0.9566 0.2755
C24_4 C 0.9185(3) 0.9231(2) 0.10983(19)
C25_4 C 0.9110(3) 0.8934(3) 0.1580(2)
H17_4 H 0.9473 0.8623 0.1707
C26_4 C 0.8479(3) 0.9086(3) 0.1901(2)
H18_4 H 0.8424 0.8889 0.2238
C27_4 C 0.7967(3) 0.9535(3) 0.16853(18)
C28_4 C 0.8052(3) 0.9849(3) 0.11696(17)
C29_4 C 0.8690(3) 0.9700(3) 0.08969(18)
H20_4 H 0.8778 0.9925 0.0573
C30_4 C 0.9832(3) 0.8396(3) 0.04904(19)
C34_4 C 0.9563(2) 0.7132(3) 0.03467(18)
H23_4 H 0.9354 0.6701 0.0471
C35_4 C 0.9556(3) 0.7757(3) 0.0666(2)
H24_4 H 0.9358 0.7731 0.1006
N3_4 N 0.9842(2) 0.9037(2) 0.07902(15)
N7_4 N 0.7294(2) 0.9692(2) 0.19569(15)
C6_4 C 0.9842(3) 0.6327(2) 0.90565(19)
H6_4 H 0.9690 0.6677 0.8813
C33_4 C 0.9869(3) 0.7147(3) 0.98619(19)
N5_4 N 0.9944(2) 0.6447(2) 0.95711(15)
Cd2 Cd 0.011318(18) 0.99708(2) 0.688253(13)
C2_4 C 0.1676(3) 0.9064(2) 0.6927(2)
H2_4 H 0.1443 0.8649 0.7059
C3_4 C 0.2420(2) 0.9127(2) 0.67950(17)
H3_4 H 0.2782 0.8770 0.6826
C19_4 C 0.3749(3) 0.9678(3) 0.62967(19)
H13_4 H 0.3708 0.9179 0.6356
C20_4 C 0.4397(3) 0.9950(3) 0.60860(19)
H14_4 H 0.4786 0.9631 0.6022
H19_4 H 0.7313 0.9857 0.6024
N1_4 N 0.1346(2) 0.9734(2) 0.68243(15)
N2_4 N 0.2507(2) 0.9827(2) 0.66105(17)
H4_3 H 0.9705 0.9843 0.5582
C4_4 C 0.0176(3) 0.5335(3) 0.93874(18)
H4_4 H 0.0295 0.4843 0.9418
C5_4 C 0.0179(3) 0.5825(2) 0.98102(18)
C31_4 C 0.0126(3) 0.8406(2) 0.99851(17)
H21_4 H 0.0324 0.8847 0.9870
C32_4 C 0.0156(3) 0.7806(3) 0.9620(2)
H22_4 H 0.0336 0.7836 0.9276
C46 C 0.0084(3) 0.7051(2) 0.40847(17)
C47 C 0.0345(3) 0.6823(3) 0.35979(19)
H35 H 0.0026 0.6789 0.3311
C48 C 0.1050(3) 0.6654(3) 0.35395(18)
C49 C 0.1565(3) 0.6704(3) 0.39568(19)
H36 H 0.2066 0.6639 0.3897
C50 C 0.1300(3) 0.6850(2) 0.44524(18)
C51 C 0.0560(3) 0.7025(3) 0.45180(18)
H37 H 0.0381 0.7126 0.4855
C52 C 0.1811(3) 0.6823(3) 0.49183(19)
O10 O 0.15454(19) 0.67959(19) 0.53646(12)
O11 O 0.25054(19) 0.69158(19) 0.48103(14)
O12 O 0.1351(2) 0.6516(2) 0.30136(13)
H50 H 0.1867 0.6407 0.3039
Cd8 Cd 0.285420(19) 0.718503(18) 0.570517(13)
C36 C 0.6663(3) 0.6524(3) 0.4358(2)
H26 H 0.6331 0.6830 0.4187
C37 C 0.6518(3) 0.5805(3) 0.4537(2)
H27 H 0.6068 0.5562 0.4541
C38 C 0.7648(3) 0.6120(3) 0.46659(19)
H28 H 0.8139 0.6110 0.4771
C39 C 0.8476(3) 0.2002(2) 0.84151(19)
H29 H 0.8797 0.1873 0.8687
C40 C 0.8684(3) 0.2073(2) 0.79000(18)
H30 H 0.9150 0.2014 0.7753
C41 C 0.7486(3) 0.2289(3) 0.80156(17)
H31 H 0.6994 0.2402 0.7951
C43 C 0.8429(3) 0.0076(3) 0.37703(19)
H33 H 0.8550 0.0432 0.3522
C45 C 0.9297(3) 0.7263(2) 0.41528(17)
C53 C 0.7333(3) 0.4818(3) 0.48857(19)
C54 C 0.6940(3) 0.4254(3) 0.4687(2)
H38 H 0.6578 0.4329 0.4432
C55 C 0.7095(3) 0.3559(3) 0.48762(19)
H39 H 0.6834 0.3161 0.4744
C56 C 0.7626(3) 0.3447(3) 0.52535(18)
C57 C 0.8038(3) 0.4008(3) 0.54552(18)
H40 H 0.8415 0.3920 0.5696
C58 C 0.7872(3) 0.4731(3) 0.52860(18)
H41 H 0.8110 0.5132 0.5433
C59 C 0.7833(3) 0.2615(3) 0.5995(2)
C60 C 0.8329(3) 0.2124(3) 0.61918(19)
H42 H 0.8637 0.1878 0.5957
C61 C 0.8389(3) 0.1979(2) 0.67247(18)
H43 H 0.8727 0.1635 0.6844
C62 C 0.7931(3) 0.2356(2) 0.70966(19)
C63 C 0.7444(3) 0.2869(3) 0.6908(2)
H44 H 0.7170 0.3149 0.7144
C64 C 0.7359(3) 0.2973(3) 0.6341(2)
H45 H 0.6991 0.3277 0.6211
C65 C 0.7828(3) 0.2112(3) 0.51087(17)
C66 C 0.8247(3) 0.2128(3) 0.46581(18)
H46 H 0.8451 0.2566 0.4542
C67 C 0.8363(3) 0.1503(2) 0.43816(18)
H47 H 0.8671 0.1513 0.4087
C68 C 0.8034(3) 0.0847(2) 0.45277(19)
C69 C 0.7553(3) 0.0834(3) 0.49614(19)
H48 H 0.7277 0.0420 0.5037
C70 C 0.7501(3) 0.1446(3) 0.5271(2)
H49 H 0.7248 0.1423 0.5591
Cd5 Cd 0.785420(19) 0.781497(18) 0.429483(13)
N10 N 0.7329(2) 0.6677(2) 0.44723(14)
N11 N 0.7188(2) 0.5549(2) 0.47010(15)
N12 N 0.7778(2) 0.2689(2) 0.54500(17)
N13 N 0.7763(2) 0.2136(2) 0.84853(14)
N14 N 0.8016(2) 0.2259(2) 0.76427(14)
N16 N 0.8175(2) 0.01833(19) 0.42516(15)
O8 O 0.89145(18) 0.73710(17) 0.37575(12)
O9 O 0.90331(18) 0.73732(19) 0.45998(12)
Cd6 Cd 0.714580(19) 0.218503(18) 0.929483(13)
N17 N 0.7237(2) 0.7864(2) 0.34853(14)
N18 N 0.8221(2) 0.8968(2) 0.41363(15)
O13 O 0.65454(19) 0.82041(19) 0.46354(12)
O14 O 0.75054(19) 0.80842(19) 0.51897(14)
C42 C 0.8478(3) 0.9325(3) 0.3707(2)
H32 H 0.8664 0.9096 0.3407
C44 C 0.8074(3) 0.9541(3) 0.44725(19)
H34 H 0.7920 0.9480 0.4821
C42_2 C 0.6522(3) 0.0675(3) 0.8707(2)
H32_2 H 0.6336 0.0904 0.8407
C44_2 C 0.6926(3) 0.0459(3) 0.94725(19)
H34_2 H 0.7080 0.0520 0.9821
N15 N 0.6779(2) 0.1032(2) 0.91363(15)
C39_2 C 0.6524(3) 0.7998(2) 0.34151(19)
H29_2 H 0.6203 0.8127 0.3687
C40_2 C 0.6316(3) 0.7927(2) 0.29000(18)
H30_2 H 0.5850 0.7986 0.2753
C41_2 C 0.7514(3) 0.7711(3) 0.30156(17)
H31_2 H 0.8006 0.7598 0.2951
C56_2 C 0.7374(3) 0.6553(3) 0.02535(18)
C57_2 C 0.6962(3) 0.5992(3) 0.04552(18)
H40_2 H 0.6585 0.6080 0.0696
C58_2 C 0.7128(3) 0.5269(3) 0.02860(18)
H41_2 H 0.6890 0.4868 0.0433
C59_2 C 0.7167(3) 0.7385(3) 0.0995(2)
C60_2 C 0.6671(3) 0.7876(3) 0.11918(19)
H42_2 H 0.6363 0.8122 0.0957
C61_2 C 0.6611(3) 0.8021(2) 0.17247(18)
H43_2 H 0.6273 0.8365 0.1844
C62_2 C 0.7069(3) 0.7644(2) 0.20966(19)
C63_2 C 0.7556(3) 0.7131(3) 0.1908(2)
H44_2 H 0.7830 0.6851 0.2144
C64_2 C 0.7641(3) 0.7027(3) 0.1341(2)
H45_2 H 0.8009 0.6723 0.1211
C65_2 C 0.7172(3) 0.7888(3) 0.01087(17)
H48_2 H 0.7723 0.9580 0.0037
C70_2 C 0.7499(3) 0.8554(3) 0.0271(2)
H49_2 H 0.7752 0.8577 0.0591
N12_2 N 0.7222(2) 0.7311(2) 0.04500(17)
N14_2 N 0.6984(2) 0.7741(2) 0.26427(14)
O10_2 O 0.34546(19) 0.32041(19) 0.03646(12)
Cd8_2 Cd 0.214580(19) 0.281497(18) 0.070517(13)
O14_2 O 0.74946(19) 0.19158(19) 0.01897(14)
C36_2 C 0.8337(3) 0.3476(3) 0.9358(2)
H26_2 H 0.8669 0.3170 0.9187
C37_2 C 0.8482(3) 0.4195(3) 0.9537(2)
H27_2 H 0.8932 0.4438 0.9541
C38_2 C 0.7352(3) 0.3880(3) 0.96659(19)
H28_2 H 0.6861 0.3890 0.9771
C43_2 C 0.6571(3) 0.9924(3) 0.87703(19)
H33_2 H 0.6450 0.9568 0.8522
C45_2 C 0.5703(3) 0.2737(2) 0.91528(17)
C46_2 C 0.4916(3) 0.2949(2) 0.90847(17)
C47_2 C 0.4655(3) 0.3177(3) 0.85979(19)
H35_2 H 0.4974 0.3211 0.8311
C48_2 C 0.3950(3) 0.3346(3) 0.85395(18)
C49_2 C 0.3435(3) 0.3296(3) 0.89568(19)
H36_2 H 0.2934 0.3361 0.8897
C50_2 C 0.3700(3) 0.3150(2) 0.94524(18)
C51_2 C 0.4440(3) 0.2975(3) 0.95180(18)
H37_2 H 0.4619 0.2874 0.9855
C52_2 C 0.3189(3) 0.3177(3) 0.99183(19)
C53_2 C 0.7667(3) 0.5182(3) 0.98857(19)
C54_2 C 0.8060(3) 0.5746(3) 0.9687(2)
H38_2 H 0.8422 0.5671 0.9432
C55_2 C 0.7905(3) 0.6441(3) 0.98762(19)
H39_2 H 0.8166 0.6839 0.9744
C66_2 C 0.6753(3) 0.7872(3) 0.96581(18)
H46_2 H 0.6549 0.7434 0.9542
C67_2 C 0.6637(3) 0.8497(2) 0.93816(18)
H47_2 H 0.6329 0.8487 0.9087
C68_2 C 0.6966(3) 0.9153(2) 0.95277(19)
C69_2 C 0.7447(3) 0.9166(3) 0.99614(19)
N10_2 N 0.7671(2) 0.3323(2) 0.94723(14)
N11_2 N 0.7812(2) 0.4451(2) 0.97010(15)
N16_2 N 0.6825(2) 0.98167(19) 0.92516(15)
O8_2 O 0.60855(18) 0.26290(17) 0.87575(12)
O9_2 O 0.59669(18) 0.26268(19) 0.95998(12)
O11_2 O 0.24946(19) 0.30842(19) 0.98103(14)
O12_2 O 0.3649(2) 0.3484(2) 0.80136(13)
H50_2 H 0.3133 0.3593 0.8039
O13_2 O 0.84546(19) 0.17959(19) 0.96354(12)
C39_3 C 0.3476(3) 0.2998(2) 0.15849(19)
H29_3 H 0.3797 0.3127 0.1313
C40_3 C 0.3684(3) 0.2927(2) 0.21000(18)
H30_3 H 0.4150 0.2986 0.2247
C41_3 C 0.2486(3) 0.2711(3) 0.19844(17)
H31_3 H 0.1994 0.2598 0.2049
C42_3 C 0.3478(3) 0.5675(3) 0.6293(2)
H32_3 H 0.3664 0.5904 0.6593
C43_3 C 0.3429(3) 0.4924(3) 0.62297(19)
H33_3 H 0.3550 0.4568 0.6478
C44_3 C 0.3074(3) 0.5459(3) 0.55275(19)
H34_3 H 0.2920 0.5520 0.5179
C53_3 C 0.2333(3) 0.0182(3) 0.51143(19)
C54_3 C 0.1940(3) 0.0746(3) 0.5313(2)
H38_3 H 0.1578 0.0671 0.5568
C55_3 C 0.2095(3) 0.1441(3) 0.51238(19)
H39_3 H 0.1834 0.1839 0.5256
C56_3 C 0.2626(3) 0.1553(3) 0.47465(18)
C57_3 C 0.3038(3) 0.0992(3) 0.45448(18)
H40_3 H 0.3415 0.1080 0.4304
C58_3 C 0.2872(3) 0.0269(3) 0.47140(18)
C59_3 C 0.2833(3) 0.2385(3) 0.4005(2)
C60_3 C 0.3329(3) 0.2876(3) 0.38082(19)
H42_3 H 0.3637 0.3122 0.4043
C61_3 C 0.3389(3) 0.3021(2) 0.32753(18)
H43_3 H 0.3727 0.3365 0.3156
C62_3 C 0.2931(3) 0.2644(2) 0.29034(19)
C63_3 C 0.2444(3) 0.2131(3) 0.3092(2)
H44_3 H 0.2170 0.1851 0.2856
C64_3 C 0.2359(3) 0.2027(3) 0.3659(2)
H45_3 H 0.1991 0.1723 0.3789
C65_3 C 0.2828(3) 0.2888(3) 0.48913(17)
C66_3 C 0.3247(3) 0.2872(3) 0.53419(18)
H46_3 H 0.3451 0.2434 0.5458
C67_3 C 0.3363(3) 0.3497(2) 0.56184(18)
H47_3 H 0.3671 0.3487 0.5913
C68_3 C 0.3034(3) 0.4153(2) 0.54723(19)
C69_3 C 0.2553(3) 0.4166(3) 0.50386(19)
H48_3 H 0.2277 0.4580 0.4963
C70_3 C 0.2501(3) 0.3554(3) 0.4729(2)
H49_3 H 0.2248 0.3577 0.4409
N12_3 N 0.2778(2) 0.2311(2) 0.45500(17)
N13_2 N 0.2763(2) 0.2864(2) 0.15147(14)
N14_3 N 0.3016(2) 0.2741(2) 0.23573(14)
N15_2 N 0.3221(2) 0.6032(2) 0.58637(15)
N16_3 N 0.3175(2) 0.48167(19) 0.57484(15)
C36_3 C 0.1663(3) 0.8476(3) 0.5642(2)
H26_3 H 0.1331 0.8170 0.5813
C37_3 C 0.1518(3) 0.9195(3) 0.5463(2)
H27_3 H 0.1068 0.9438 0.5459
C38_3 C 0.2648(3) 0.8880(3) 0.53341(19)
H28_3 H 0.3139 0.8890 0.5229
C45_3 C 0.4297(3) 0.7737(2) 0.58472(17)
C46_3 C 0.5084(3) 0.7949(2) 0.59153(17)
C47_3 C 0.5345(3) 0.8177(3) 0.64021(19)
H35_3 H 0.5026 0.8211 0.6689
C48_3 C 0.6050(3) 0.8346(3) 0.64605(18)
C49_3 C 0.6565(3) 0.8296(3) 0.60432(19)
H36_3 H 0.7066 0.8361 0.6103
C50_3 C 0.6300(3) 0.8150(2) 0.55476(18)
C51_3 C 0.5560(3) 0.7975(3) 0.54820(18)
H37_3 H 0.5381 0.7874 0.5145
C52_3 C 0.6811(3) 0.8177(3) 0.50817(19)
H41_3 H 0.3110 0.9868 0.4567
N10_3 N 0.2329(2) 0.8323(2) 0.55277(14)
N11_3 N 0.2188(2) 0.9451(2) 0.52990(15)
O8_3 O 0.39145(18) 0.76290(17) 0.62425(12)
O9_3 O 0.40331(18) 0.76268(19) 0.54002(12)
O12_3 O 0.6351(2) 0.8484(2) 0.69864(13)
H50_3 H 0.6867 0.8593 0.6961
N17_2 N 0.2237(2) 0.7136(2) 0.65147(14)
C36_4 C 0.3337(3) 0.1524(3) 0.0642(2)
H26_4 H 0.3669 0.1830 0.0813
C37_4 C 0.3482(3) 0.0805(3) 0.0463(2)
H27_4 H 0.3932 0.0562 0.0459
C38_4 C 0.2352(3) 0.1120(3) 0.03341(19)
H28_4 H 0.1861 0.1110 0.0229
C45_4 C 0.0703(3) 0.2263(2) 0.08472(17)
N10_4 N 0.2671(2) 0.1677(2) 0.05277(14)
N11_4 N 0.2812(2) 0.0549(2) 0.02990(15)
O8_4 O 0.10855(18) 0.23710(17) 0.12425(12)
O9_4 O 0.09669(18) 0.23732(19) 0.04002(12)
N18_2 N 0.1779(2) 0.3968(2) 0.08637(15)
H41_4 H 0.1890 0.0132 0.9567
C42_4 C 0.1522(3) 0.4325(3) 0.1293(2)
H32_4 H 0.1336 0.4096 0.1593
C43_4 C 0.1571(3) 0.5076(3) 0.12297(19)
H33_4 H 0.1450 0.5432 0.1478
C44_4 C 0.1926(3) 0.4541(3) 0.05275(19)
H34_4 H 0.2080 0.4480 0.0179
C53_4 C 0.2667(3) 0.9818(3) 0.01143(19)
C54_4 C 0.3060(3) 0.9254(3) 0.0313(2)
H38_4 H 0.3422 0.9329 0.0568
C55_4 C 0.2905(3) 0.8559(3) 0.01238(19)
H39_4 H 0.3166 0.8161 0.0256
C66_4 C 0.1753(3) 0.7128(3) 0.03419(18)
H46_4 H 0.1549 0.7566 0.0458
C67_4 C 0.1637(3) 0.6503(2) 0.06184(18)
H47_4 H 0.1329 0.6513 0.0913
C68_4 C 0.1966(3) 0.5847(2) 0.04723(19)
C69_4 C 0.2447(3) 0.5834(3) 0.00386(19)
N16_4 N 0.1825(2) 0.51833(19) 0.07484(15)
C39_4 C 0.1524(3) 0.7002(2) 0.65849(19)
H29_4 H 0.1203 0.6873 0.6313
C40_4 C 0.1316(3) 0.7073(2) 0.71000(18)
H30_4 H 0.0850 0.7014 0.7247
C41_4 C 0.2514(3) 0.7289(3) 0.69844(17)
H31_4 H 0.3006 0.7402 0.7049
C56_4 C 0.2374(3) 0.8447(3) 0.97465(18)
C57_4 C 0.1962(3) 0.9008(3) 0.95448(18)
H40_4 H 0.1585 0.8920 0.9304
C58_4 C 0.2128(3) 0.9731(3) 0.97140(18)
C59_4 C 0.2167(3) 0.7615(3) 0.9005(2)
C60_4 C 0.1671(3) 0.7124(3) 0.88082(19)
H42_4 H 0.1363 0.6878 0.9043
C61_4 C 0.1611(3) 0.6979(2) 0.82753(18)
H43_4 H 0.1273 0.6635 0.8156
C62_4 C 0.2069(3) 0.7356(2) 0.79034(19)
C63_4 C 0.2556(3) 0.7869(3) 0.8092(2)
H44_4 H 0.2830 0.8149 0.7856
C64_4 C 0.2641(3) 0.7973(3) 0.8659(2)
H45_4 H 0.3009 0.8277 0.8789
C65_4 C 0.2172(3) 0.7112(3) 0.98913(17)
H48_4 H 0.2723 0.5420 0.9963
C70_4 C 0.2499(3) 0.6446(3) 0.9729(2)
H49_4 H 0.2752 0.6423 0.9409
N12_4 N 0.2222(2) 0.7689(2) 0.95500(17)
N14_4 N 0.1984(2) 0.7259(2) 0.73573(14)
C46_4 C 0.9916(3) 0.2051(2) 0.09153(17)
C47_4 C 0.9655(3) 0.1823(3) 0.14021(19)
H35_4 H 0.9974 0.1789 0.1689
C48_4 C 0.8950(3) 0.1654(3) 0.14605(18)
C49_4 C 0.8435(3) 0.1704(3) 0.10432(19)
H36_4 H 0.7934 0.1639 0.1103
C50_4 C 0.8700(3) 0.1850(2) 0.05476(18)
C51_4 C 0.9440(3) 0.2025(3) 0.04820(18)
H37_4 H 0.9619 0.2126 0.0145
C52_4 C 0.8189(3) 0.1823(3) 0.00817(19)
O12_4 O 0.8649(2) 0.1516(2) 0.19864(13)
H50_4 H 0.8133 0.1407 0.1961
loop_
_geom_bond_atom_site_label_1
_geom_bond_atom_site_label_2
_geom_bond_site_symmetry_1
_geom_bond_site_symmetry_2
C6 H6 1_555 1_555
C7 H7 1_555 1_555
C8 H8 1_555 1_555
C9 C8 1_555 1_555
H9 C9 1_555 1_555
C24 C25 1_555 1_555
C25 H17 1_555 1_555
C26 C25 1_555 1_555
H18 C26 1_555 1_555
C27 C26 1_555 1_555
C28 C27 1_555 1_555
H19 C28 1_555 1_555
C29 C24 1_555 1_555
H20 C29 1_555 1_555
C34 C33 1_555 1_555
H23 C34 1_555 1_555
C35 C30 1_555 1_555
H24 C35 1_555 1_555
N6 C7 1_555 1_555
N7 C7 1_555 1_555
Cd3 N6 1_555 1_555
C6 N4 1_555 1_555
C6 N5 1_555 1_555
C8 N6 1_555 1_555
C9 N7 1_555 1_555
C24 N3 1_555 1_555
C27 N7 1_555 1_555
C28 C29 1_555 1_555
C30 N3 1_555 1_555
C33 N5 1_555 1_555
C34 C35 1_555 1_555
C1 H1 1_555 1_555
C2 H2 1_555 1_555
C3 C2 1_555 1_555
H3 C3 1_555 1_555
C5 C4 1_555 1_555
H5 C5 1_555 1_555
C10 C11 1_555 1_555
C11 C12 1_555 1_555
C12 H10 1_555 1_555
C13 C12 1_555 1_555
C14 C13 1_555 1_555
H11 C14 1_555 1_555
C15 C14 1_555 1_555
C16 C11 1_555 1_555
H12 C16 1_555 1_555
C17 C13 1_555 1_555
C18 C19 1_555 1_555
C19 H13 1_555 1_555
C20 C19 1_555 1_555
H14 C20 1_555 1_555
C21 C20 1_555 1_555
C22 C21 1_555 1_555
H15 C22 1_555 1_555
C23 C18 1_555 1_555
H16 C23 1_555 1_555
C31 H21 1_555 1_555
C32 C31 1_555 1_555
H22 C32 1_555 1_555
Cd3 N1 1_555 1_555
N1 C1 1_555 1_555
N2 C1 1_555 1_555
O1 C10 1_555 1_555
O2 C10 1_555 1_555
O3 C17 1_555 1_555
O4 C17 1_555 1_555
O5 C15 1_555 1_555
H25 O5 1_555 1_555
N8 Cd3 1_555 1_555
O6 Cd3 1_555 1_555
O7 Cd3 1_555 1_555
C2 N1 1_555 1_555
C3 N2 1_555 1_555
C15 C16 1_555 1_555
C18 N2 1_555 1_555
C22 C23 1_555 1_555
Cd3 O1 1_555 1_555
Cd3 O2 1_555 1_555
C10_2 C11_2 1_555 1_555
C11_2 C12_2 1_555 1_555
C12_2 H10_2 1_555 1_555
C13_2 C12_2 1_555 1_555
C14_2 C13_2 1_555 1_555
H11_2 C14_2 1_555 1_555
C15_2 C14_2 1_555 1_555
C16_2 C11_2 1_555 1_555
H12_2 C16_2 1_555 1_555
C17_2 C13_2 1_555 1_555
O1_2 C10_2 1_555 1_555
O2_2 C10_2 1_555 1_555
O3_2 C17_2 1_555 1_555
O4_2 C17_2 1_555 1_555
O5_2 C15_2 1_555 1_555
H25_2 O5_2 1_555 1_555
C15_2 C16_2 1_555 1_555
C5_2 C4_2 1_555 1_555
C6_2 H6_2 1_555 1_555
C31_2 H21_2 1_555 1_555
C32_2 C31_2 1_555 1_555
H22_2 C32_2 1_555 1_555
C33_2 C32_2 1_555 1_555
N4_2 C4_2 1_555 1_555
N5_2 C5_2 1_555 1_555
C6_2 N4_2 1_555 1_555
C6_2 N5_2 1_555 1_555
C33_2 N5_2 1_555 1_555
C1_2 H1_2 1_555 1_555
C2_2 H2_2 1_555 1_555
C3_2 C2_2 1_555 1_555
H3_2 C3_2 1_555 1_555
C7_2 H7_2 1_555 1_555
C8_2 H8_2 1_555 1_555
C9_2 C8_2 1_555 1_555
H9_2 C9_2 1_555 1_555
C18_2 C19_2 1_555 1_555
C19_2 H13_2 1_555 1_555
C20_2 C19_2 1_555 1_555
H14_2 C20_2 1_555 1_555
C21_2 C20_2 1_555 1_555
C22_2 C21_2 1_555 1_555
H15_2 C22_2 1_555 1_555
C23_2 C18_2 1_555 1_555
H16_2 C23_2 1_555 1_555
C24_2 C25_2 1_555 1_555
C25_2 H17_2 1_555 1_555
C26_2 C25_2 1_555 1_555
H18_2 C26_2 1_555 1_555
C27_2 C26_2 1_555 1_555
C28_2 C27_2 1_555 1_555
H19_2 C28_2 1_555 1_555
C29_2 C24_2 1_555 1_555
H20_2 C29_2 1_555 1_555
H23_2 C34_2 1_555 1_555
C35_2 C30_2 1_555 1_555
H24_2 C35_2 1_555 1_555
Cd1 N1_2 1_555 1_555
N1_2 C1_2 1_555 1_555
N2_2 C1_2 1_555 1_555
N3_2 C21_2 1_555 1_555
N9 C7_2 1_555 1_555
N7_2 C7_2 1_555 1_555
N8_2 Cd1 1_555 1_555
O6_2 Cd1 1_555 1_555
O7_2 Cd1 1_555 1_555
C2_2 N1_2 1_555 1_555
C3_2 N2_2 1_555 1_555
C8_2 N9 1_555 1_555
C9_2 N7_2 1_555 1_555
C18_2 N2_2 1_555 1_555
C22_2 C23_2 1_555 1_555
C24_2 N3_2 1_555 1_555
C27_2 N7_2 1_555 1_555
C28_2 C29_2 1_555 1_555
C30_2 N3_2 1_555 1_555
C34_2 C35_2 1_555 1_555
C1_3 H1_3 1_555 1_555
C4_3 H4_2 1_555 1_555
C5_3 C4_3 1_555 1_555
H5_3 C5_3 1_555 1_555
C6_3 H6_3 1_555 1_555
C7_3 H7_3 1_555 1_555
C8_3 H8_3 1_555 1_555
C9_3 C8_3 1_555 1_555
H9_3 C9_3 1_555 1_555
C22_3 C21_3 1_555 1_555
H15_3 C22_3 1_555 1_555
C23_3 C18_3 1_555 1_555
H16_3 C23_3 1_555 1_555
C24_3 C25_3 1_555 1_555
C25_3 H17_3 1_555 1_555
C26_3 C25_3 1_555 1_555
H18_3 C26_3 1_555 1_555
C27_3 C26_3 1_555 1_555
C28_3 C27_3 1_555 1_555
C29_3 C24_3 1_555 1_555
H20_3 C29_3 1_555 1_555
C30_3 C31_3 1_555 1_555
C31_3 H21_3 1_555 1_555
C32_3 C31_3 1_555 1_555
H22_3 C32_3 1_555 1_555
C33_3 C32_3 1_555 1_555
C34_3 C33_3 1_555 1_555
H23_3 C34_3 1_555 1_555
C35_3 C30_3 1_555 1_555
H24_3 C35_3 1_555 1_555
N3_3 C21_3 1_555 1_555
N8 C4_3 1_555 1_555
N5_3 C5_3 1_555 1_555
N6_2 C7_3 1_555 1_555
N7_3 C7_3 1_555 1_555
C6_3 N8 1_555 1_555
C6_3 N5_3 1_555 1_555
C8_3 N6_2 1_555 1_555
C9_3 N7_3 1_555 1_555
C22_3 C23_3 1_555 1_555
C24_3 N3_3 1_555 1_555
C27_3 N7_3 1_555 1_555
C28_3 C29_3 1_555 1_555
C30_3 N3_3 1_555 1_555
C33_3 N5_3 1_555 1_555
C34_3 C35_3 1_555 1_555
C10_3 C11_3 1_555 1_555
C11_3 C12_3 1_555 1_555
C12_3 H10_3 1_555 1_555
C13_3 C12_3 1_555 1_555
C14_3 C13_3 1_555 1_555
H11_3 C14_3 1_555 1_555
C15_3 C14_3 1_555 1_555
C16_3 C11_3 1_555 1_555
H12_3 C16_3 1_555 1_555
C17_3 C13_3 1_555 1_555
O1_3 C10_3 1_555 1_555
O2_3 C10_3 1_555 1_555
O6_2 C17_3 1_555 1_555
O7_2 C17_3 1_555 1_555
O5_3 C15_3 1_555 1_555
H25_3 O5_3 1_555 1_555
C15_3 C16_3 1_555 1_555
C2_3 H2_3 1_555 1_555
C3_3 C2_3 1_555 1_555
H3_3 C3_3 1_555 1_555
C10_4 C11_4 1_555 1_555
C11_4 C12_4 1_555 1_555
C12_4 H10_4 1_555 1_555
C13_4 C12_4 1_555 1_555
C14_4 C13_4 1_555 1_555
H11_4 C14_4 1_555 1_555
C15_4 C14_4 1_555 1_555
C16_4 C11_4 1_555 1_555
H12_4 C16_4 1_555 1_555
C17_4 C13_4 1_555 1_555
C19_3 H13_3 1_555 1_555
C20_3 C19_3 1_555 1_555
H14_3 C20_3 1_555 1_555
Cd4 N1_3 1_555 1_555
O1_4 C10_4 1_555 1_555
O2_4 C10_4 1_555 1_555
O6 C17_4 1_555 1_555
O7 C17_4 1_555 1_555
O5_4 C15_4 1_555 1_555
H25_4 O5_4 1_555 1_555
C2_3 N1_3 1_555 1_555
C3_3 N2_3 1_555 1_555
C15_4 C16_4 1_555 1_555
Cd4 O1_4 1_555 1_555
Cd4 O2_4 1_555 1_555
C1_4 H1_4 1_555 1_555
C22_4 C21_4 1_555 1_555
H15_4 C22_4 1_555 1_555
C23_4 C18_4 1_555 1_555
H16_4 C23_4 1_555 1_555
C22_4 C23_4 1_555 1_555
C7_4 H7_4 1_555 1_555
C8_4 H8_4 1_555 1_555
C9_4 C8_4 1_555 1_555
H9_4 C9_4 1_555 1_555
C24_4 C25_4 1_555 1_555
C25_4 H17_4 1_555 1_555
C26_4 C25_4 1_555 1_555
H18_4 C26_4 1_555 1_555
C27_4 C26_4 1_555 1_555
C28_4 C27_4 1_555 1_555
C29_4 C24_4 1_555 1_555
H20_4 C29_4 1_555 1_555
H23_4 C34_4 1_555 1_555
C35_4 C30_4 1_555 1_555
H24_4 C35_4 1_555 1_555
N9_2 C7_4 1_555 1_555
N7_4 C7_4 1_555 1_555
C8_4 N9_2 1_555 1_555
C9_4 N7_4 1_555 1_555
C24_4 N3_4 1_555 1_555
C27_4 N7_4 1_555 1_555
C28_4 C29_4 1_555 1_555
C30_4 N3_4 1_555 1_555
C34_4 C35_4 1_555 1_555
C6_4 H6_4 1_555 1_555
C6_4 N8_2 1_555 1_555
C6_4 N5_4 1_555 1_555
C33_4 N5_4 1_555 1_555
C2_4 H2_4 1_555 1_555
C3_4 C2_4 1_555 1_555
H3_4 C3_4 1_555 1_555
C19_4 H13_4 1_555 1_555
C20_4 C19_4 1_555 1_555
H14_4 C20_4 1_555 1_555
Cd2 N1_4 1_555 1_555
C2_4 N1_4 1_555 1_555
C3_4 N2_4 1_555 1_555
C4_4 H4_4 1_555 1_555
C5_4 C4_4 1_555 1_555
C31_4 H21_4 1_555 1_555
C32_4 C31_4 1_555 1_555
H22_4 C32_4 1_555 1_555
C46 C47 1_555 1_555
C47 H35 1_555 1_555
C48 C47 1_555 1_555
C49 C48 1_555 1_555
H36 C49 1_555 1_555
C50 C49 1_555 1_555
C51 C46 1_555 1_555
H37 C51 1_555 1_555
C52 C50 1_555 1_555
O10 C52 1_555 1_555
O11 C52 1_555 1_555
O12 C48 1_555 1_555
H50 O12 1_555 1_555
Cd8 O10 1_555 1_555
C50 C51 1_555 1_555
O11 Cd8 1_555 1_555
C36 H26 1_555 1_555
C37 C36 1_555 1_555
H27 C37 1_555 1_555
C38 H28 1_555 1_555
C39 H29 1_555 1_555
C40 C39 1_555 1_555
H30 C40 1_555 1_555
C41 H31 1_555 1_555
H33 C43 1_555 1_555
C53 C54 1_555 1_555
C54 H38 1_555 1_555
C55 C54 1_555 1_555
H39 C55 1_555 1_555
C56 C55 1_555 1_555
C57 C56 1_555 1_555
H40 C57 1_555 1_555
C58 C53 1_555 1_555
H41 C58 1_555 1_555
C59 C60 1_555 1_555
C60 H42 1_555 1_555
C61 C60 1_555 1_555
H43 C61 1_555 1_555
C62 C61 1_555 1_555
C63 C62 1_555 1_555
H44 C63 1_555 1_555
C64 C59 1_555 1_555
H45 C64 1_555 1_555
C65 C66 1_555 1_555
C66 H46 1_555 1_555
C67 C66 1_555 1_555
H47 C67 1_555 1_555
C68 C67 1_555 1_555
C69 C68 1_555 1_555
H48 C69 1_555 1_555
C70 C65 1_555 1_555
H49 C70 1_555 1_555
Cd5 N10 1_555 1_555
N10 C36 1_555 1_555
N11 C37 1_555 1_555
N12 C56 1_555 1_555
N13 C39 1_555 1_555
N14 C40 1_555 1_555
N16 C43 1_555 1_555
O8 C45 1_555 1_555
O9 C45 1_555 1_555
Cd6 N13 1_555 1_555
N17 Cd5 1_555 1_555
N18 Cd5 1_555 1_555
O13 Cd5 1_555 1_555
O14 Cd5 1_555 1_555
C38 N10 1_555 1_555
C38 N11 1_555 1_555
C41 N13 1_555 1_555
C41 N14 1_555 1_555
C53 N11 1_555 1_555
C57 C58 1_555 1_555
C59 N12 1_555 1_555
C62 N14 1_555 1_555
C63 C64 1_555 1_555
C65 N12 1_555 1_555
C68 N16 1_555 1_555
C69 C70 1_555 1_555
Cd5 O8 1_555 1_555
Cd5 O9 1_555 1_555
C42 H32 1_555 1_555
C44 H34 1_555 1_555
N18 C42 1_555 1_555
C44 N18 1_555 1_555
C42_2 H32_2 1_555 1_555
C44_2 H34_2 1_555 1_555
N15 C42_2 1_555 1_555
Cd6 N15 1_555 1_555
C44_2 N15 1_555 1_555
C39_2 H29_2 1_555 1_555
C40_2 C39_2 1_555 1_555
H30_2 C40_2 1_555 1_555
C41_2 H31_2 1_555 1_555
C57_2 C56_2 1_555 1_555
H40_2 C57_2 1_555 1_555
H41_2 C58_2 1_555 1_555
C59_2 C60_2 1_555 1_555
C60_2 H42_2 1_555 1_555
C61_2 C60_2 1_555 1_555
H43_2 C61_2 1_555 1_555
C62_2 C61_2 1_555 1_555
C63_2 C62_2 1_555 1_555
H44_2 C63_2 1_555 1_555
C64_2 C59_2 1_555 1_555
H45_2 C64_2 1_555 1_555
C70_2 C65_2 1_555 1_555
H49_2 C70_2 1_555 1_555
N12_2 C56_2 1_555 1_555
N17 C39_2 1_555 1_555
N14_2 C40_2 1_555 1_555
Cd8_2 O10_2 1_555 1_555
C41_2 N17 1_555 1_555
C41_2 N14_2 1_555 1_555
C57_2 C58_2 1_555 1_555
C59_2 N12_2 1_555 1_555
C62_2 N14_2 1_555 1_555
C63_2 C64_2 1_555 1_555
C65_2 N12_2 1_555 1_555
C36_2 H26_2 1_555 1_555
C37_2 C36_2 1_555 1_555
H27_2 C37_2 1_555 1_555
C38_2 H28_2 1_555 1_555
H33_2 C43_2 1_555 1_555
C45_2 C46_2 1_555 1_555
C46_2 C47_2 1_555 1_555
C47_2 H35_2 1_555 1_555
C48_2 C47_2 1_555 1_555
C49_2 C48_2 1_555 1_555
H36_2 C49_2 1_555 1_555
C50_2 C49_2 1_555 1_555
C51_2 C46_2 1_555 1_555
H37_2 C51_2 1_555 1_555
C52_2 C50_2 1_555 1_555
C53_2 C54_2 1_555 1_555
C54_2 H38_2 1_555 1_555
C55_2 C54_2 1_555 1_555
H39_2 C55_2 1_555 1_555
C66_2 H46_2 1_555 1_555
C67_2 C66_2 1_555 1_555
H47_2 C67_2 1_555 1_555
C68_2 C67_2 1_555 1_555
C69_2 C68_2 1_555 1_555
Cd6 N10_2 1_555 1_555
N10_2 C36_2 1_555 1_555
N11_2 C37_2 1_555 1_555
N16_2 C43_2 1_555 1_555
O8_2 C45_2 1_555 1_555
O9_2 C45_2 1_555 1_555
O11_2 C52_2 1_555 1_555
O12_2 C48_2 1_555 1_555
H50_2 O12_2 1_555 1_555
O13_2 Cd6 1_555 1_555
C38_2 N10_2 1_555 1_555
C38_2 N11_2 1_555 1_555
C50_2 C51_2 1_555 1_555
C53_2 N11_2 1_555 1_555
C68_2 N16_2 1_555 1_555
Cd6 O8_2 1_555 1_555
Cd6 O9_2 1_555 1_555
C39_3 H29_3 1_555 1_555
C40_3 C39_3 1_555 1_555
H30_3 C40_3 1_555 1_555
C41_3 H31_3 1_555 1_555
C42_3 H32_3 1_555 1_555
C43_3 C42_3 1_555 1_555
H33_3 C43_3 1_555 1_555
C44_3 H34_3 1_555 1_555
C53_3 C54_3 1_555 1_555
C54_3 H38_3 1_555 1_555
C55_3 C54_3 1_555 1_555
H39_3 C55_3 1_555 1_555
C56_3 C55_3 1_555 1_555
C57_3 C56_3 1_555 1_555
H40_3 C57_3 1_555 1_555
C58_3 C53_3 1_555 1_555
C59_3 C60_3 1_555 1_555
C60_3 H42_3 1_555 1_555
C61_3 C60_3 1_555 1_555
H43_3 C61_3 1_555 1_555
C62_3 C61_3 1_555 1_555
C63_3 C62_3 1_555 1_555
H44_3 C63_3 1_555 1_555
C64_3 C59_3 1_555 1_555
H45_3 C64_3 1_555 1_555
C65_3 C66_3 1_555 1_555
C66_3 H46_3 1_555 1_555
C67_3 C66_3 1_555 1_555
H47_3 C67_3 1_555 1_555
C68_3 C67_3 1_555 1_555
C69_3 C68_3 1_555 1_555
H48_3 C69_3 1_555 1_555
C70_3 C65_3 1_555 1_555
H49_3 C70_3 1_555 1_555
N12_3 C56_3 1_555 1_555
N13_2 C39_3 1_555 1_555
N14_3 C40_3 1_555 1_555
N15_2 C42_3 1_555 1_555
N16_3 C43_3 1_555 1_555
Cd8_2 N13_2 1_555 1_555
Cd8 N15_2 1_555 1_555
C41_3 N13_2 1_555 1_555
C41_3 N14_3 1_555 1_555
C44_3 N15_2 1_555 1_555
C44_3 N16_3 1_555 1_555
C57_3 C58_3 1_555 1_555
C59_3 N12_3 1_555 1_555
C62_3 N14_3 1_555 1_555
C63_3 C64_3 1_555 1_555
C65_3 N12_3 1_555 1_555
C68_3 N16_3 1_555 1_555
C69_3 C70_3 1_555 1_555
C36_3 H26_3 1_555 1_555
C37_3 C36_3 1_555 1_555
H27_3 C37_3 1_555 1_555
C38_3 H28_3 1_555 1_555
C45_3 C46_3 1_555 1_555
C46_3 C47_3 1_555 1_555
C47_3 H35_3 1_555 1_555
C48_3 C47_3 1_555 1_555
C49_3 C48_3 1_555 1_555
H36_3 C49_3 1_555 1_555
C50_3 C49_3 1_555 1_555
C51_3 C46_3 1_555 1_555
H37_3 C51_3 1_555 1_555
C52_3 C50_3 1_555 1_555
Cd8 N10_3 1_555 1_555
N10_3 C36_3 1_555 1_555
N11_3 C37_3 1_555 1_555
O8_3 C45_3 1_555 1_555
O9_3 C45_3 1_555 1_555
O13 C52_3 1_555 1_555
O14 C52_3 1_555 1_555
O12_3 C48_3 1_555 1_555
H50_3 O12_3 1_555 1_555
N17_2 Cd8 1_555 1_555
C38_3 N10_3 1_555 1_555
C38_3 N11_3 1_555 1_555
C50_3 C51_3 1_555 1_555
Cd8 O8_3 1_555 1_555
Cd8 O9_3 1_555 1_555
C36_4 H26_4 1_555 1_555
C37_4 C36_4 1_555 1_555
H27_4 C37_4 1_555 1_555
C38_4 H28_4 1_555 1_555
Cd8_2 N10_4 1_555 1_555
N10_4 C36_4 1_555 1_555
N11_4 C37_4 1_555 1_555
O8_4 C45_4 1_555 1_555
O9_4 C45_4 1_555 1_555
N18_2 Cd8_2 1_555 1_555
C38_4 N10_4 1_555 1_555
C38_4 N11_4 1_555 1_555
Cd8_2 O8_4 1_555 1_555
Cd8_2 O9_4 1_555 1_555
C42_4 H32_4 1_555 1_555
C43_4 C42_4 1_555 1_555
H33_4 C43_4 1_555 1_555
C44_4 H34_4 1_555 1_555
C53_4 C54_4 1_555 1_555
C54_4 H38_4 1_555 1_555
C55_4 C54_4 1_555 1_555
H39_4 C55_4 1_555 1_555
C66_4 H46_4 1_555 1_555
C67_4 C66_4 1_555 1_555
H47_4 C67_4 1_555 1_555
C68_4 C67_4 1_555 1_555
C69_4 C68_4 1_555 1_555
N18_2 C42_4 1_555 1_555
N16_4 C43_4 1_555 1_555
C44_4 N18_2 1_555 1_555
C44_4 N16_4 1_555 1_555
C68_4 N16_4 1_555 1_555
C39_4 H29_4 1_555 1_555
C40_4 C39_4 1_555 1_555
H30_4 C40_4 1_555 1_555
C41_4 H31_4 1_555 1_555
C57_4 C56_4 1_555 1_555
H40_4 C57_4 1_555 1_555
C59_4 C60_4 1_555 1_555
C60_4 H42_4 1_555 1_555
C61_4 C60_4 1_555 1_555
H43_4 C61_4 1_555 1_555
C62_4 C61_4 1_555 1_555
C63_4 C62_4 1_555 1_555
H44_4 C63_4 1_555 1_555
C64_4 C59_4 1_555 1_555
H45_4 C64_4 1_555 1_555
C70_4 C65_4 1_555 1_555
H49_4 C70_4 1_555 1_555
N12_4 C56_4 1_555 1_555
N17_2 C39_4 1_555 1_555
N14_4 C40_4 1_555 1_555
C41_4 N17_2 1_555 1_555
C41_4 N14_4 1_555 1_555
C57_4 C58_4 1_555 1_555
C59_4 N12_4 1_555 1_555
C62_4 N14_4 1_555 1_555
C63_4 C64_4 1_555 1_555
C65_4 N12_4 1_555 1_555
C46_4 C47_4 1_555 1_555
C47_4 H35_4 1_555 1_555
C48_4 C47_4 1_555 1_555
C49_4 C48_4 1_555 1_555
H36_4 C49_4 1_555 1_555
C50_4 C49_4 1_555 1_555
C51_4 C46_4 1_555 1_555
H37_4 C51_4 1_555 1_555
C52_4 C50_4 1_555 1_555
O14_2 C52_4 1_555 1_555
O12_4 C48_4 1_555 1_555
H50_4 O12_4 1_555 1_555
C50_4 C51_4 1_555 1_555

#END
