
###############################################################################
#
# This file contains modified crystal structure data generated from the
# MOF subset of the Cambridge Structural Database (CSD) v543 
# hosted by the Cambridge Crystallographic Data Centre (CCDC).
#
# This work is licensed under the Creative Commons
# Attribution-NonCommercial-ShareAlike 4.0 International License.
# To view a copy of this license, visit
# http://creativecommons.org/licenses/by-nc-sa/4.0/
# or send a letter to
# Creative Commons, PO Box 1866, Mountain View, CA 94042, USA.
#
# CIF created using the CSD Python API on 29 September 2022
# The structure has been converted into the P1 space group
# The structure has a 3D framework
# The original CSD entry UNEBIZ is in the triclinic crystal system
# The original CSD entry UNEBIZ is in a Sohncke space group
# The framework has been calculated to contain at least 10.0% void space
# The void calculation uses a probe of radius 1.32A, grid spacing 0.4
#
###############################################################################

data_UNEBIZ
_chemical_formula_moiety         '(C189 H225 Mn9 N15 O39)n'
_symmetry_cell_setting           triclinic
_symmetry_space_group_name_H-M   'P 1'
_symmetry_Int_Tables_number      1
_space_group_name_Hall           'P 1'
loop_
_symmetry_equiv_pos_site_id
_symmetry_equiv_pos_as_xyz
1 x,y,z
_cell_length_a                   13.663(2)
_cell_length_b                   18.329(3)
_cell_length_c                   22.173(4)
_cell_angle_alpha                67.204(3)
_cell_angle_beta                 88.260(4)
_cell_angle_gamma                86.712(3)
_cell_volume                     5110.41
loop_
_atom_site_label
_atom_site_type_symbol
_atom_site_fract_x
_atom_site_fract_y
_atom_site_fract_z
_atom_site_U_iso_or_equiv
_atom_site_thermal_displace_type
Mn13 Mn 0.41826(12) 0.00172(10) 0.40789(7) 0.0461 Uani
Mn7 Mn 0.14743(11) 0.15778(8) 0.68039(7) 0.0362 Uani
C95 C 0.0288(8) 0.0256(6) 0.6885(5) 0.0423 Uani
C103 C 0.3383(6) 0.0828(5) 0.6936(5) 0.0455 Uani
H115 H 0.3544 0.1129 0.6475 0.0540 Uiso
C104 C 0.4129(8) 0.0136(7) 0.7191(6) 0.0530 Uani
C105 C 0.5123(9) 0.0465(8) 0.7089(8) 0.0856 Uani
H118 H 0.5607 0.0029 0.7255 0.1030 Uiso
H119 H 0.5239 0.0732 0.6622 0.1030 Uiso
C106 C 0.5274(7) 0.1028(7) 0.7405(6) 0.0627 Uani
H120 H 0.5914 0.1247 0.7284 0.0750 Uiso
H121 H 0.5251 0.0752 0.7876 0.0750 Uiso
C107 C 0.4469(9) 0.1710(7) 0.7189(6) 0.0596 Uani
H122 H 0.4524 0.2036 0.7441 0.0710 Uiso
H123 H 0.4561 0.2042 0.6731 0.0710 Uiso
C108 C 0.3466(6) 0.1375(5) 0.7293(4) 0.0406 Uani
H124 H 0.3378 0.1065 0.7762 0.0490 Uiso
C109 C 0.2662(9) 0.2645(7) 0.7101(5) 0.0487 Uani
H125 H 0.3262 0.2774 0.7208 0.0580 Uiso
C110 C 0.1870(8) 0.3229(6) 0.6987(5) 0.0513 Uani
C111 C 0.0879(7) 0.3069(5) 0.6917(4) 0.0387 Uani
C112 C 0.0089(8) 0.3663(6) 0.6893(5) 0.0543 Uani
C113 C 0.0399(7) 0.4347(5) 0.6908(5) 0.0490 Uani
C114 C 0.1359(8) 0.4527(6) 0.6983(5) 0.0573 Uani
C115 C 0.2081(8) 0.3972(6) 0.7027(6) 0.0584 Uani
H127 H 0.2725 0.4071 0.7083 0.0700 Uiso
C116 C 0.1606(13) 0.5270(7) 0.7080(8) 0.0760 Uani
N7 N 0.2348(6) 0.0633(5) 0.6967(4) 0.0395 Uani
N8 N 0.2629(7) 0.1969(5) 0.7070(4) 0.0443 Uani
O19 O 0.0395(5) 0.1013(4) 0.6775(4) 0.0460 Uani
O20 O 0.0667(5) 0.2416(4) 0.6896(4) 0.0454 Uani
O21 O 0.0890(8) 0.5685(6) 0.7121(5) 0.0787 Uani
O22 O 0.2435(10) 0.5396(8) 0.7146(9) 0.1551 Uani
O43 O 0.1645(7) 0.2160(5) 0.5804(4) 0.0668 Uani
Mn6 Mn 0.12849(14) 0.75371(13) 0.14976(9) 0.0630 Uani
Mn8 Mn 0.14558(11) 0.41608(10) 0.19966(7) 0.0430 Uani
Mn9 Mn 0.43953(13) 0.66217(11) 0.46427(8) 0.0539 Uani
C72 C 0.0959(11) 0.7299(9) 0.0291(7) 0.0729 Uani
C73 C 0.2662(8) 0.7239(7) 0.0569(5) 0.0594 Uani
H81 H 0.2861 0.7774 0.0298 0.0720 Uiso
C74 C 0.2980(11) 0.6710(9) 0.0228(7) 0.0766 Uani
H83 H 0.2773 0.6178 0.0479 0.0910 Uiso
C75 C 0.4078(10) 0.6694(8) 0.0147(6) 0.0781 Uani
C76 C 0.4631(9) 0.6514(9) 0.0753(7) 0.0814 Uani
H86 H 0.5321 0.6585 0.0643 0.0980 Uiso
H87 H 0.4561 0.5962 0.1034 0.0980 Uiso
C77 C 0.4314(9) 0.7013(9) 0.1127(7) 0.0752 Uani
H88 H 0.4488 0.7557 0.0886 0.0900 Uiso
H89 H 0.4638 0.6817 0.1548 0.0900 Uiso
C78 C 0.3186(8) 0.6976(7) 0.1227(5) 0.0623 Uani
H90 H 0.3052 0.6417 0.1468 0.0750 Uiso
C79 C 0.3205(9) 0.7604(7) 0.2022(6) 0.0567 Uani
H91 H 0.3876 0.7479 0.2045 0.0680 Uiso
C80 C 0.2817(7) 0.7971(7) 0.2440(5) 0.0539 Uani
C81 C 0.1795(7) 0.8160(6) 0.2454(4) 0.0497 Uani
C82 C 0.1455(8) 0.8568(6) 0.2891(5) 0.0577 Uani
C83 C 0.2181(8) 0.8684(7) 0.3251(5) 0.0658 Uani
H92 H 0.2006 0.8995 0.3488 0.0790 Uiso
C84 C 0.3173(7) 0.8386(6) 0.3305(5) 0.0491 Uani
C85 C 0.3473(7) 0.8065(7) 0.2869(5) 0.0613 Uani
H93 H 0.4129 0.7904 0.2857 0.0740 Uiso
C86 C 0.3868(7) 0.8431(8) 0.3803(5) 0.0480 Uani
C87 C 0.0396(10) 0.8840(11) 0.2907(7) 0.0746 Uani
C89 C 0.0091(10) 0.9411(11) 0.2254(8) 0.1051 Uani
H97 H 0.0204 0.9173 0.1939 0.1580 Uiso
H98 H 0.0463 0.9876 0.2132 0.1580 Uiso
C90 C 0.0202(13) 0.9241(15) 0.3400(11) 0.1589 Uani
H100 H 0.0382 0.8875 0.3830 0.2380 Uiso
H102 H 0.0584 0.9701 0.3278 0.2380 Uiso
C125 C 0.0097(8) 0.4914(6) 0.0906(5) 0.0428 Uani
C126 C 0.0899(9) 0.4976(7) 0.0444(5) 0.0456 Uani
C132 C 0.1903(7) 0.4748(6) 0.0605(5) 0.0401 Uani
H148 H 0.2344 0.4802 0.0264 0.0480 Uiso
C133 C 0.3319(6) 0.4308(6) 0.1315(4) 0.0450 Uani
H149 H 0.3543 0.4693 0.1482 0.0540 Uiso
C134 C 0.3951(8) 0.4354(7) 0.0737(5) 0.0543 Uani
H150 H 0.3888 0.4881 0.0397 0.0650 Uiso
H151 H 0.3746 0.3979 0.0560 0.0650 Uiso
C135 C 0.5031(6) 0.4156(6) 0.0964(5) 0.0600 Uani
H152 H 0.5448 0.4174 0.0598 0.0720 Uiso
H153 H 0.5240 0.4549 0.1120 0.0720 Uiso
C136 C 0.5134(8) 0.3363(7) 0.1492(5) 0.0586 Uani
H154 H 0.5811 0.3263 0.1634 0.0700 Uiso
H155 H 0.4983 0.2970 0.1320 0.0700 Uiso
C137 C 0.4453(9) 0.3262(8) 0.2099(6) 0.0641 Uani
H156 H 0.4496 0.2716 0.2409 0.0770 Uiso
H157 H 0.4656 0.3598 0.2315 0.0770 Uiso
C138 C 0.3409(7) 0.3495(6) 0.1858(4) 0.0479 Uani
H158 H 0.3200 0.3109 0.1688 0.0580 Uiso
C139 C 0.2803(9) 0.3121(7) 0.2986(6) 0.0546 Uani
H159 H 0.3396 0.2829 0.3108 0.0650 Uiso
C140 C 0.2122(9) 0.3080(7) 0.3501(5) 0.0486 Uani
C141 C 0.1149(9) 0.3374(8) 0.3394(5) 0.0575 Uani
C142 C 0.0500(9) 0.3295(8) 0.3940(6) 0.0659 Uani
C143 C 0.0855(11) 0.2911(8) 0.4547(6) 0.0673 Uani
H160 H 0.0445 0.2864 0.4901 0.0810 Uiso
C144 C 0.1840(9) 0.2567(8) 0.4677(6) 0.0608 Uani
C145 C 0.2435(9) 0.2683(8) 0.4149(6) 0.0647 Uani
H161 H 0.3084 0.2489 0.4221 0.0780 Uiso
C146 C 0.2205(11) 0.2123(8) 0.5353(6) 0.0646 Uani
C184 C 0.0413(12) 0.2611(11) 0.2029(11) 0.2245 Uani
H212 H 0.0146 0.2528 0.2440 0.2690 Uiso
C185 C 0.020(2) 0.248(2) 0.0980(8) 0.3862 Uani
H213 H 0.0849 0.2679 0.0898 0.5800 Uiso
H215 H 0.0190 0.2012 0.0887 0.5800 Uiso
N5 N 0.1583(7) 0.7295(7) 0.0723(5) 0.0586 Uani
N6 N 0.2695(8) 0.7421(7) 0.1597(5) 0.0645 Uani
N9 N 0.2225(6) 0.4482(5) 0.1172(4) 0.0442 Uani
N10 N 0.2675(6) 0.3519(6) 0.2378(4) 0.0482 Uani
O14 O 0.1158(6) 0.7988(5) 0.2135(4) 0.0637 Uani
O15 O 0.4504(6) 0.7888(5) 0.3993(4) 0.0581 Uani
O16 O 0.3696(7) 0.8938(5) 0.4059(4) 0.0649 Uani
O25 O 0.0285(5) 0.4617(5) 0.1537(3) 0.0483 Uani
O26 O 0.0785(6) 0.3756(6) 0.2782(3) 0.0686 Uani
O28 O 0.2998(8) 0.1732(8) 0.5443(4) 0.1191 Uani
O36 O 0.1141(9) 0.2981(7) 0.1865(7) 0.1166 Uani
C187 C 0.3516(18) 0.504(2) 0.5611(18) 0.3500 Uiso
H219 H 0.3099 0.5241 0.5855 0.4200 Uiso
O39 O 0.4341(13) 0.5254(10) 0.5477(8) 0.2030 Uiso
N15 N 0.3187(18) 0.4423(15) 0.5363(12) 0.3960 Uiso
C188 C 0.387(2) 0.3707(19) 0.537(2) 0.3700 Uiso
H220 H 0.4525 0.3780 0.5461 0.5620 Uiso
H221 H 0.3849 0.3675 0.4944 0.5620 Uiso
H222 H 0.3640 0.3226 0.5694 0.5620 Uiso
C189 C 0.2096(19) 0.444(2) 0.5145(17) 0.2960 Uiso
H223 H 0.1745 0.4905 0.5151 0.4430 Uiso
H224 H 0.1786 0.3976 0.5440 0.4430 Uiso
H225 H 0.2093 0.4445 0.4710 0.4430 Uiso
N16 N 0.4129(7) 0.6963(6) 0.5372(4) 0.0546 Uani
N17 N 0.2931(7) 0.6651(6) 0.4607(5) 0.0513 Uani
O44 O 0.5708(7) 0.6482(5) 0.4807(4) 0.0634 Uani
O45 O 0.4504(6) 0.6127(5) 0.4043(4) 0.0630 Uani
O46 O 0.1130(7) 0.6279(6) 0.2110(5) 0.0767 Uani
O47 O 0.1972(6) 0.5145(6) 0.2175(5) 0.0772 Uani
H80 H 0.1192 0.7167 0.9946 0.0870 Uiso
H82 H 0.2675 0.6898 0.9802 0.0910 Uiso
H84 H 0.4272 0.6301 0.9968 0.0930 Uiso
H85 H 0.4261 0.7205 0.9831 0.0930 Uiso
C92 C 0.0062(8) 0.8669(6) 0.7151(5) 0.0414 Uani
C93 C 0.1001(8) 0.8905(7) 0.7181(6) 0.0452 Uani
H103 H 0.1538 0.8544 0.7289 0.0540 Uiso
C94 C 0.1104(8) 0.9722(7) 0.7039(5) 0.0410 Uani
C102 C 0.2084(8) 0.9929(6) 0.7081(5) 0.0388 Uani
H114 H 0.2569 0.9523 0.7201 0.0470 Uiso
H116 H 0.4014 0.9833 0.7653 0.0640 Uiso
H117 H 0.4078 0.9790 0.6957 0.0640 Uiso
C127 C 0.0684(9) 0.5282(7) 0.9765(5) 0.0436 Uani
H138 H 0.1184 0.5324 0.9461 0.0530 Uiso
O18 O 0.0677(6) 0.7359(5) 0.7302(4) 0.0594 Uani
O23 O 0.0243(7) 0.5827(6) 0.8466(4) 0.0674 Uani
H43 H 0.7998 0.0051 0.4199 0.1240 Uiso
H44 H 0.7612 0.0225 0.4805 0.1240 Uiso
H45 H 0.6872 0.0205 0.4286 0.1240 Uiso
C43 C 0.2486(6) 0.0380(7) 0.4766(4) 0.0547 Uani
H47 H 0.2616 0.0934 0.4671 0.0660 Uiso
C44 C 0.1747(7) 0.0110(7) 0.5337(5) 0.0562 Uani
H49 H 0.2001 0.0192 0.5708 0.0670 Uiso
C45 C 0.0786(7) 0.0571(8) 0.5132(5) 0.0756 Uani
H50 H 0.0869 0.1117 0.5072 0.0910 Uiso
H51 H 0.0307 0.0356 0.5480 0.0910 Uiso
C46 C 0.0399(8) 0.0551(9) 0.4506(6) 0.0763 Uani
H52 H 0.0261 0.0012 0.4573 0.0920 Uiso
C47 C 0.1156(8) 0.0861(8) 0.3968(6) 0.0583 Uani
H54 H 0.1293 0.1401 0.3902 0.0700 Uiso
H55 H 0.0904 0.0865 0.3562 0.0700 Uiso
C48 C 0.2095(7) 0.0337(7) 0.4153(4) 0.0581 Uani
C49 C 0.2780(9) 0.0918(7) 0.3065(5) 0.0532 Uani
H57 H 0.2147 0.1122 0.2937 0.0640 Uiso
C50 C 0.3508(10) 0.1074(8) 0.2558(6) 0.0580 Uani
C51 C 0.4488(10) 0.0720(7) 0.2671(5) 0.0496 Uani
C52 C 0.5147(10) 0.0861(7) 0.2132(5) 0.0561 Uani
C53 C 0.4780(10) 0.1338(8) 0.1515(6) 0.0561 Uani
H58 H 0.5201 0.1439 0.1157 0.0680 Uiso
C54 C 0.3844(10) 0.1666(7) 0.1402(5) 0.0541 Uani
C55 C 0.3208(9) 0.1550(7) 0.1912(5) 0.0495 Uani
H59 H 0.2577 0.1783 0.1836 0.0600 Uiso
C56 C 0.3526(11) 0.2170(8) 0.0710(6) 0.0588 Uani
C57 C 0.6201(10) 0.0488(9) 0.2240(6) 0.0688 Uani
C58 C 0.6800(13) 0.0708(11) 0.1614(7) 0.1064 Uani
H60 H 0.6509 0.0505 0.1326 0.1600 Uiso
H61 H 0.7457 0.0484 0.1715 0.1600 Uiso
H62 H 0.6815 0.1274 0.1405 0.1600 Uiso
C59 C 0.6714(10) 0.0847(12) 0.2703(8) 0.1070 Uani
H63 H 0.7375 0.0628 0.2793 0.1600 Uiso
H64 H 0.6352 0.0713 0.3107 0.1600 Uiso
H65 H 0.6722 0.1413 0.2486 0.1600 Uiso
C96 C 0.9354(8) 0.0013(6) 0.6824(5) 0.0410 Uani
C98 C 0.8457(9) 0.0607(7) 0.6604(6) 0.0544 Uani
C99 C 0.7576(9) 0.0188(8) 0.6535(8) 0.0862 Uani
H105 H 0.7024 0.0561 0.6397 0.1300 Uiso
C100 C 0.8669(10) 0.1257(7) 0.5944(6) 0.0730 Uani
H108 H 0.8115 0.1628 0.5813 0.1100 Uiso
H109 H 0.8793 0.1028 0.5625 0.1100 Uiso
H110 H 0.9235 0.1527 0.5978 0.1100 Uiso
C101 C 0.8189(11) 0.0988(9) 0.7102(7) 0.0859 Uani
H111 H 0.7638 0.1358 0.6944 0.1290 Uiso
H112 H 0.8738 0.1260 0.7155 0.1290 Uiso
H113 H 0.8023 0.0583 0.7515 0.1290 Uiso
H126 H 0.9916 0.4743 0.6863 0.0590 Uiso
C117 C 0.9052(10) 0.3489(7) 0.6832(7) 0.0592 Uani
C118 C 0.8367(9) 0.4194(9) 0.6806(8) 0.0839 Uani
H128 H 0.8445 0.4295 0.7195 0.1260 Uiso
H129 H 0.7700 0.4073 0.6776 0.1260 Uiso
H130 H 0.8529 0.4654 0.6430 0.1260 Uiso
C119 C 0.8887(11) 0.3348(9) 0.6205(8) 0.0825 Uani
H131 H 0.9309 0.2911 0.6203 0.1240 Uiso
H132 H 0.9033 0.3816 0.5831 0.1240 Uiso
H133 H 0.8216 0.3228 0.6188 0.1240 Uiso
C120 C 0.8796(10) 0.2794(9) 0.7448(7) 0.0815 Uani
H134 H 0.8899 0.2920 0.7822 0.1230 Uiso
H135 H 0.9205 0.2338 0.7478 0.1230 Uiso
H136 H 0.8121 0.2682 0.7435 0.1230 Uiso
C181 C 0.4807(12) 0.1367(9) 0.4504(8) 0.1245 Uani
H205 H 0.4512 0.1098 0.4907 0.1490 Uiso
C182 C 0.627(3) 0.2020(17) 0.4829(14) 0.6141 Uani
H206 H 0.6076 0.1730 0.5273 0.9230 Uiso
H207 H 0.6226 0.2577 0.4738 0.9230 Uiso
H208 H 0.6939 0.1864 0.4765 0.9230 Uiso
C183 C 0.613(2) 0.2280(18) 0.3725(10) 0.3230 Uani
H209 H 0.5861 0.2108 0.3410 0.4840 Uiso
H210 H 0.6821 0.2158 0.3758 0.4840 Uiso
H211 H 0.6004 0.2842 0.3589 0.4840 Uiso
N4 N 0.2915(7) 0.0527(6) 0.3672(4) 0.0488 Uani
N13 N 0.5642(8) 0.1855(7) 0.4392(7) 0.1248 Uani
O8 O 0.4790(6) 0.0303(5) 0.3249(4) 0.0583 Uani
O9 O 0.4078(7) 0.2142(6) 0.0261(4) 0.0759 Uani
O10 O 0.2769(9) 0.2561(7) 0.0634(5) 0.0950 Uani
O35 O 0.4547(8) 0.1367(6) 0.3967(5) 0.0907 Uani
Mn11 Mn 0.99108(11) 0.62990(9) 0.74777(7) 0.0400 Uani
Mn12 Mn 0.41769(11) 0.25979(9) 0.92725(7) 0.0368 Uani
C10 C 0.6950(10) 0.2879(8) 0.0144(7) 0.0754 Uani
H6 H 0.6371 0.2630 0.0103 0.1130 Uiso
H7 H 0.6858 0.3070 0.0489 0.1130 Uiso
H8 H 0.7499 0.2502 0.0243 0.1130 Uiso
H31 H 0.6613 0.0398 0.0251 0.1140 Uiso
C64 C 0.9917(9) 0.7497(7) 0.0317(6) 0.0518 Uani
C65 C 0.9456(10) 0.7687(7) 0.0805(5) 0.0564 Uani
C66 C 0.8438(10) 0.7842(8) 0.0789(6) 0.0586 Uani
C67 C 0.7923(10) 0.7829(7) 0.0268(6) 0.0585 Uani
H70 H 0.7249 0.7936 0.0253 0.0700 Uiso
C68 C 0.7853(11) 0.8000(10) 0.1342(7) 0.0822 Uani
C69 C 0.6747(9) 0.8070(12) 0.1255(8) 0.1017 Uani
H71 H 0.6526 0.7582 0.1256 0.1530 Uiso
H72 H 0.6582 0.8494 0.0847 0.1530 Uiso
H73 H 0.6437 0.8177 0.1608 0.1530 Uiso
C70 C 0.8189(11) 0.8812(10) 0.1321(9) 0.0979 Uani
H74 H 0.8034 0.9220 0.0903 0.1470 Uiso
H75 H 0.8884 0.8777 0.1388 0.1470 Uiso
H76 H 0.7855 0.8936 0.1659 0.1470 Uiso
C71 C 0.8107(12) 0.7343(10) 0.2029(6) 0.0858 Uani
H77 H 0.7917 0.6840 0.2046 0.1290 Uiso
H78 H 0.7761 0.7468 0.2363 0.1290 Uiso
H79 H 0.8800 0.7319 0.2100 0.1290 Uiso
C88 C 0.9753(13) 0.8156(11) 0.3097(8) 0.1046 Uani
H94 H 0.9936 0.7774 0.3521 0.1570 Uiso
H95 H 0.9825 0.7914 0.2782 0.1570 Uiso
H96 H 0.9082 0.8338 0.3109 0.1570 Uiso
H99 H 0.9406 0.9555 0.2265 0.1580 Uiso
H101 H 0.9518 0.9396 0.3397 0.2380 Uiso
C123 C 0.8997(8) 0.5455(6) 0.0012(6) 0.0435 Uani
C124 C 0.9138(8) 0.5161(6) 0.0679(5) 0.0415 Uani
C128 C 0.8316(8) 0.5066(7) 0.1167(6) 0.0537 Uani
C129 C 0.8104(10) 0.4210(7) 0.1591(7) 0.0730 Uani
H139 H 0.7994 0.3928 0.1316 0.1090 Uiso
H140 H 0.7531 0.4200 0.1855 0.1090 Uiso
H141 H 0.8654 0.3963 0.1869 0.1090 Uiso
C130 C 0.8499(10) 0.5561(8) 0.1602(6) 0.0708 Uani
H142 H 0.9100 0.5370 0.1837 0.1060 Uiso
H143 H 0.7965 0.5501 0.1906 0.1060 Uiso
H144 H 0.8542 0.6111 0.1324 0.1060 Uiso
C131 C 0.7310(10) 0.5428(10) 0.0817(8) 0.0845 Uani
H145 H 0.7151 0.5162 0.0537 0.1270 Uiso
H146 H 0.7365 0.5982 0.0560 0.1270 Uiso
H147 H 0.6802 0.5358 0.1140 0.1270 Uiso
C147 C 0.9411(12) 0.3596(12) 0.3820(7) 0.1039 Uani
C148 C 0.9392(14) 0.4529(13) 0.3463(8) 0.1432 Uani
H162 H 0.9734 0.4670 0.3052 0.2120 Uiso
H163 H 0.9705 0.4748 0.3731 0.2120 Uiso
H164 H 0.8725 0.4734 0.3387 0.2120 Uiso
C149 C 0.8870(13) 0.3267(15) 0.3446(9) 0.1360 Uani
H165 H 0.8863 0.2702 0.3672 0.2020 Uiso
H166 H 0.9176 0.3390 0.3024 0.2020 Uiso
H167 H 0.8209 0.3489 0.3390 0.2020 Uiso
C150 C 0.8887(11) 0.3371(14) 0.4500(7) 0.1413 Uani
H168 H 0.8883 0.2804 0.4715 0.2110 Uiso
H169 H 0.8225 0.3590 0.4439 0.2110 Uiso
H170 H 0.9232 0.3579 0.4765 0.2110 Uiso
H214 H 0.9743 0.2877 0.0704 0.5800 Uiso
C186 C 0.9106(16) 0.1848(16) 0.1906(14) 0.3206 Uani
H216 H 0.9096 0.1690 0.2372 0.4820 Uiso
H217 H 0.9136 0.1386 0.1801 0.4820 Uiso
H218 H 0.8522 0.2165 0.1725 0.4820 Uiso
N14 N 0.9946 0.2301 0.1637 0.1748 Uani
O13 O 0.9950(6) 0.7755(6) 0.1278(4) 0.0734 Uani
Mn1 Mn 0.57682(11) 0.78643(9) 0.86040(7) 0.0402 Uani
Mn2 Mn 0.78299(15) 0.70723(12) 0.80533(9) 0.0345 Uani
C1 C 0.5682(8) 0.6339(7) 0.8794(5) 0.0433 Uani
C2 C 0.5567(8) 0.5531(7) 0.8940(5) 0.0428 Uani
C3 C 0.6346(9) 0.4983(7) 0.9106(5) 0.0502 Uani
H1 H 0.6964 0.5169 0.9111 0.0600 Uiso
C4 C 0.6287(8) 0.4173(7) 0.9266(5) 0.0443 Uani
C5 C 0.5338(8) 0.3912(6) 0.9187(5) 0.0413 Uani
C6 C 0.4516(8) 0.4482(6) 0.9008(5) 0.0405 Uani
C7 C 0.4669(9) 0.5249(7) 0.8910(5) 0.0467 Uani
H2 H 0.4128 0.5605 0.8816 0.0560 Uiso
C8 C 0.7147(9) 0.3574(7) 0.9500(6) 0.0557 Uani
C9 C 0.7391(9) 0.3262(9) 0.8965(8) 0.0865 Uani
H3 H 0.6824 0.3034 0.8878 0.1300 Uiso
H4 H 0.7917 0.2865 0.9106 0.1300 Uiso
H5 H 0.7585 0.3690 0.8574 0.1300 Uiso
C11 C 0.8087(9) 0.3924(8) 0.9621(7) 0.0726 Uani
H9 H 0.8260 0.4364 0.9232 0.1090 Uiso
H10 H 0.8613 0.3525 0.9734 0.1090 Uiso
H11 H 0.7974 0.4100 0.9974 0.1090 Uiso
C12 C 0.3569(9) 0.4271(7) 0.8912(5) 0.0481 Uani
H12 H 0.3091 0.4681 0.8763 0.0580 Uiso
C13 C 0.2286(6) 0.3454(6) 0.8819(5) 0.0468 Uani
H13 H 0.2314 0.3557 0.8351 0.0560 Uiso
C14 C 0.1484(9) 0.3986(7) 0.8913(7) 0.0593 Uani
H14 H 0.1612 0.4530 0.8636 0.0710 Uiso
H15 H 0.1482 0.3940 0.9363 0.0710 Uiso
C15 C 0.0473(9) 0.3794(7) 0.8750(7) 0.0699 Uani
H17 H 0.0415 0.3975 0.8279 0.0840 Uiso
C16 C 0.0293(7) 0.2923(6) 0.9056(6) 0.0642 Uani
H19 H 0.0175 0.2775 0.9521 0.0770 Uiso
C17 C 0.1139(8) 0.2394(8) 0.8961(7) 0.0613 Uani
H20 H 0.1013 0.1842 0.9216 0.0730 Uiso
H21 H 0.1186 0.2467 0.8504 0.0730 Uiso
C18 C 0.2094(6) 0.2592(5) 0.9173(5) 0.0436 Uani
H22 H 0.2010 0.2505 0.9637 0.0520 Uiso
C19 C 0.2961(8) 0.1447(7) 0.9083(5) 0.0432 Uani
H23 H 0.2348 0.1283 0.9031 0.0520 Uiso
C21 C 0.3785(4) 0.0924(4) 0.9105(4) 0.0400 Uani
C22 C 0.4749(5) 0.1084(3) 0.9172(4) 0.0479 Uani
C23 C 0.5503(4) 0.0528(4) 0.9204(4) 0.0416 Uani
C26 C 0.3576(4) 0.0208(4) 0.9070(4) 0.0497 Uani
H25 H 0.2931 0.0101 0.9025 0.0600 Uiso
C27 C 0.6610(9) 0.0711(8) 0.9241(6) 0.0574 Uani
C28 C 0.6920(10) 0.1426(8) 0.8666(7) 0.0728 Uani
H26 H 0.6477 0.1870 0.8621 0.1090 Uiso
H27 H 0.6909 0.1319 0.8276 0.1090 Uiso
H28 H 0.7572 0.1547 0.8734 0.1090 Uiso
C29 C 0.6761(10) 0.0864(9) 0.9875(7) 0.0761 Uani
H29 H 0.6333 0.1300 0.9870 0.1140 Uiso
H30 H 0.7430 0.0988 0.9895 0.1140 Uiso
H32 H 0.7988 0.0131 0.9309 0.1630 Uiso
C31 C 0.6135(10) 0.8330(6) 0.7232(6) 0.0475 Uani
C32 C 0.5916(9) 0.8622(6) 0.6531(5) 0.0478 Uani
C33 C 0.6675(9) 0.8682(7) 0.6054(6) 0.0542 Uani
H35 H 0.7305 0.8487 0.6199 0.0650 Uiso
C34 C 0.6507(9) 0.9018(7) 0.5387(6) 0.0513 Uani
C35 C 0.5504(8) 0.9293(7) 0.5178(5) 0.0446 Uani
C36 C 0.4791(8) 0.9200(6) 0.5649(5) 0.0410 Uani
C37 C 0.4995(9) 0.8871(7) 0.6306(5) 0.0482 Uani
H36 H 0.4486 0.8817 0.6606 0.0580 Uiso
C38 C 0.7366(10) 0.9072(8) 0.4906(6) 0.0639 Uani
C39 C 0.7129(11) 0.8717(11) 0.4444(8) 0.0948 Uani
H37 H 0.7041 0.8161 0.4677 0.1430 Uiso
H38 H 0.7654 0.8789 0.4132 0.1430 Uiso
H39 H 0.6535 0.8968 0.4220 0.1430 Uiso
C40 C 0.8302(11) 0.8718(11) 0.5268(8) 0.0989 Uani
H40 H 0.8236 0.8162 0.5517 0.1480 Uiso
H41 H 0.8435 0.8976 0.5557 0.1480 Uiso
H42 H 0.8833 0.8788 0.4959 0.1480 Uiso
C41 C 0.7472(10) 0.9975(9) 0.4511(7) 0.0826 Uani
C42 C 0.3825(9) 0.9532(8) 0.5465(6) 0.0566 Uani
H46 H 0.3393 0.9465 0.5812 0.0680 Uiso
H48 H 0.1650 0.9548 0.5470 0.0670 Uiso
H56 H 0.1928 0.9790 0.4253 0.0700 Uiso
C60 C 0.6157(14) 0.9590(9) 0.2554(8) 0.1113 Uani
H66 H 0.5836 0.9406 0.2264 0.1660 Uiso
H67 H 0.5798 0.9443 0.2959 0.1660 Uiso
H68 H 0.6811 0.9355 0.2636 0.1660 Uiso
C61 C 0.7786(12) 0.7709(8) 0.9174(6) 0.0624 Uani
C62 C 0.8389(10) 0.7659(7) 0.9753(6) 0.0532 Uani
C63 C 0.9362(10) 0.7471(7) 0.9782(6) 0.0585 Uani
H69 H 0.9670 0.7327 0.9462 0.0700 Uiso
C91 C 0.9930(11) 0.7775(7) 0.7308(5) 0.0492 Uani
C97 C 0.9264(8) 0.9217(7) 0.6965(5) 0.0431 Uani
H104 H 0.8651 0.9040 0.6934 0.0520 Uiso
H106 H 0.7429 0.9776 0.6949 0.1300 Uiso
H107 H 0.7714 0.9961 0.6216 0.1300 Uiso
C121 C 0.9512(11) 0.5816(7) 0.8830(6) 0.0550 Uani
C122 C 0.9739(9) 0.5517(6) 0.9558(5) 0.0436 Uani
H137 H 0.8364 0.5621 0.9858 0.0520 Uiso
C151 C 0.7862(10) 0.6402(7) 0.6954(6) 0.0518 Uani
C152 C 0.7316(9) 0.6457(7) 0.6375(6) 0.0501 Uani
C153 C 0.7763(9) 0.6319(7) 0.5859(6) 0.0541 Uani
H171 H 0.8435 0.6199 0.5883 0.0650 Uiso
C154 C 0.7284(9) 0.6347(7) 0.5306(5) 0.0501 Uani
C155 C 0.6227(8) 0.6516(7) 0.5289(6) 0.0516 Uani
C156 C 0.5763(9) 0.6727(7) 0.5784(5) 0.0464 Uani
C157 C 0.6320(9) 0.6698(7) 0.6313(5) 0.0509 Uani
H172 H 0.6020 0.6845 0.6634 0.0610 Uiso
C158 C 0.7774(9) 0.6142(8) 0.4762(6) 0.0611 Uani
C159 C 0.8921(12) 0.6023(12) 0.4857(8) 0.1086 Uani
H173 H 0.9217 0.5902 0.4507 0.1620 Uiso
H174 H 0.9067 0.5595 0.5267 0.1620 Uiso
H175 H 0.9177 0.6501 0.4856 0.1620 Uiso
C160 C 0.7440(11) 0.5391(9) 0.4746(7) 0.0836 Uani
H176 H 0.6743 0.5436 0.4684 0.1250 Uiso
H177 H 0.7599 0.4961 0.5153 0.1250 Uiso
H178 H 0.7762 0.5293 0.4393 0.1250 Uiso
C161 C 0.7621(12) 0.6810(10) 0.4116(7) 0.0882 Uani
H179 H 0.6932 0.6905 0.4026 0.1320 Uiso
H180 H 0.7945 0.6676 0.3779 0.1320 Uiso
H181 H 0.7888 0.7279 0.4125 0.1320 Uiso
C162 C 0.4749(9) 0.6952(7) 0.5782(5) 0.0485 Uani
H182 H 0.4523 0.7106 0.6117 0.0580 Uiso
C163 C 0.3105(8) 0.7310(6) 0.5341(5) 0.0567 Uani
H183 H 0.3089 0.7820 0.4968 0.0680 Uiso
C164 C 0.2711(10) 0.7476(8) 0.5925(6) 0.0654 Uani
H184 H 0.3136 0.7829 0.6012 0.0780 Uiso
H185 H 0.2708 0.6984 0.6308 0.0780 Uiso
C165 C 0.1670(11) 0.7853(9) 0.5796(7) 0.0870 Uani
H186 H 0.1679 0.8362 0.5431 0.1040 Uiso
H187 H 0.1422 0.7940 0.6178 0.1040 Uiso
C166 C 0.0997(11) 0.7311(10) 0.5639(6) 0.0959 Uani
H188 H 0.0345 0.7564 0.5540 0.1150 Uiso
H189 H 0.0946 0.6818 0.6017 0.1150 Uiso
C167 C 0.1411(10) 0.7132(10) 0.5039(7) 0.0792 Uani
H190 H 0.1004 0.6760 0.4963 0.0950 Uiso
H191 H 0.1395 0.7618 0.4649 0.0950 Uiso
C168 C 0.2459(7) 0.6788(7) 0.5168(5) 0.0577 Uani
H192 H 0.2448 0.6277 0.5541 0.0700 Uiso
C169 C 0.2460(9) 0.6487(7) 0.4205(5) 0.0560 Uani
H193 H 0.1781 0.6546 0.4228 0.0670 Uiso
C170 C 0.1799(11) 0.5703(10) 0.2365(7) 0.0774 Uani
C171 C 0.2846(5) 0.6213(5) 0.3703(3) 0.0537 Uani
C172 C 0.3824(5) 0.5967(5) 0.3683(3) 0.0622 Uani
C173 C 0.4124(4) 0.5609(5) 0.3254(4) 0.0569 Uani
C174 C 0.3447(6) 0.5497(5) 0.2846(4) 0.0588 Uani
H194 H 0.3649 0.5258 0.2559 0.0700 Uiso
C175 C 0.2470(5) 0.5743(5) 0.2867(4) 0.0586 Uani
C176 C 0.2169(4) 0.6101(5) 0.3295(4) 0.0585 Uani
H195 H 0.1516 0.6266 0.3309 0.0700 Uiso
C177 C 0.5240(11) 0.5325(9) 0.3229(7) 0.0759 Uani
C178 C 0.5900(10) 0.6050(12) 0.2986(9) 0.1112 Uani
H196 H 0.6573 0.5871 0.2979 0.1660 Uiso
H197 H 0.5825 0.6327 0.3275 0.1660 Uiso
H198 H 0.5709 0.6401 0.2552 0.1660 Uiso
C179 C 0.5515(14) 0.4704(9) 0.3902(8) 0.1055 Uani
H199 H 0.6189 0.4526 0.3897 0.1590 Uiso
H200 H 0.5105 0.4262 0.4009 0.1590 Uiso
H201 H 0.5424 0.4932 0.4224 0.1590 Uiso
C180 C 0.5373(10) 0.4914(10) 0.2745(8) 0.0930 Uani
H202 H 0.6047 0.4738 0.2739 0.1400 Uiso
H203 H 0.5189 0.5281 0.2315 0.1400 Uiso
H204 H 0.4967 0.4467 0.2878 0.1400 Uiso
N1 N 0.3292(6) 0.3558(5) 0.9011(4) 0.0411 Uani
N2 N 0.2985(6) 0.2130(5) 0.9128(4) 0.0396 Uani
N3 N 0.3447(6) 0.9918(5) 0.4884(4) 0.0429 Uani
O1 O 0.6523(6) 0.6625(4) 0.8704(4) 0.0514 Uani
O2 O 0.4947(7) 0.6809(5) 0.8770(5) 0.0691 Uani
O3 O 0.5274(5) 0.3176(4) 0.9254(4) 0.0519 Uani
O4 O 0.4969(5) 0.1780(4) 0.9204(4) 0.0494 Uani
O5 O 0.7004(7) 0.8120(6) 0.7432(5) 0.0804 Uani
O6 O 0.5450(7) 0.8307(5) 0.7629(4) 0.0662 Uani
O7 O 0.5347(6) 0.9634(5) 0.4548(4) 0.0543 Uani
O11 O 0.8232(7) 0.7562(6) 0.8733(4) 0.0687 Uani
O12 O 0.6915(7) 0.7926(6) 0.9172(4) 0.0738 Uani
O17 O 0.9104(6) 0.7521(5) 0.7425(4) 0.0540 Uani
O24 O 0.8650(6) 0.6011(5) 0.8657(4) 0.0628 Uani
O29 O 0.8784(7) 0.6199(6) 0.6955(4) 0.0722 Uani
O30 O 0.7412(6) 0.6558(5) 0.7394(4) 0.0638 Uani
O48 O 0.4815(8) 0.8473(6) 0.8965(5) 0.0854 Uani
C20 C 0.4115(10) 0.8906(8) 0.9020(6) 0.0580 Uani
C24 C 0.5294(5) 0.9813(4) 0.9169(4) 0.0535 Uani
H24 H 0.5798 0.9441 0.9190 0.0640 Uiso
C25 C 0.4330(6) 0.9652(3) 0.9102(4) 0.0464 Uani
C30 C 0.7326(12) 0.9995(9) 0.9289(10) 0.1087 Uani
H33 H 0.7252 0.9870 0.8911 0.1630 Uiso
H34 H 0.7176 0.9544 0.9676 0.1630 Uiso
O38 O 0.3263(9) 0.8734(6) 0.9033(6) 0.1074 Uani
H53 H 0.9795 0.0875 0.4384 0.0920 Uiso
H16 H 0.9972 0.4082 0.8902 0.0840 Uiso
H18 H 0.9705 0.2827 0.8870 0.0770 Uiso
loop_
_atom_site_aniso_label
_atom_site_aniso_U_11
_atom_site_aniso_U_22
_atom_site_aniso_U_33
_atom_site_aniso_U_23
_atom_site_aniso_U_13
_atom_site_aniso_U_12
Mn13 0.0449 0.0611 0.0337 -0.0206 -0.0004 0.0032
Mn7 0.0378 0.0329 0.0377 -0.0134 -0.002 -0.0006
C95 0.055 0.036 0.033 -0.012 -0.004 0.014
C103 0.038 0.044 0.059 -0.025 0.001 -0.002
C104 0.04 0.049 0.076 -0.032 -0.012 0.014
C105 0.042 0.062 0.156 -0.046 -0.021 0.01
C106 0.033 0.076 0.082 -0.034 -0.013 0.007
C107 0.061 0.041 0.081 -0.029 0.01 -0.003
C108 0.038 0.042 0.039 -0.012 -0.003 -0.004
C109 0.054 0.043 0.056 -0.026 0.003 -0.01
C110 0.062 0.044 0.049 -0.021 0.007 0.007
C111 0.045 0.028 0.037 -0.007 0.001 0.005
C112 0.068 0.045 0.046 -0.016 -0.001 0.017
C113 0.061 0.036 0.05 -0.019 -0.008 0.019
C114 0.063 0.046 0.071 -0.032 -0.005 0.004
C115 0.058 0.035 0.087 -0.029 0.007 -0.006
C116 0.09 0.032 0.118 -0.043 -0.02 0.013
N7 0.037 0.044 0.045 -0.025 -0.003 -0.003
N8 0.048 0.039 0.049 -0.021 -0.002 0.003
O19 0.042 0.034 0.061 -0.017 -0.011 0.001
O20 0.042 0.037 0.058 -0.02 0.005 0.001
O21 0.115 0.056 0.084 -0.048 0.015 -0.011
O22 0.088 0.122 0.33 -0.169 0.003 -0.009
O43 0.087 0.073 0.033 -0.013 -0.01 0.005
Mn6 0.054 0.0946 0.0529 -0.0428 -0.0098 0.0068
Mn8 0.0378 0.0589 0.029 -0.0134 -0.0048 0.0013
Mn9 0.0541 0.0696 0.0491 -0.0354 -0.0158 0.0066
C72 0.091 0.081 0.059 -0.04 -0.02 0.003
C73 0.059 0.069 0.049 -0.023 0 0.007
C74 0.081 0.099 0.06 -0.044 -0.011 0.017
C75 0.093 0.079 0.064 -0.033 0.007 0.018
C76 0.061 0.111 0.093 -0.064 -0.003 0.011
C77 0.055 0.092 0.081 -0.038 0.016 0.001
C78 0.06 0.068 0.067 -0.035 -0.004 0
C79 0.046 0.071 0.056 -0.026 -0.015 -0.008
C80 0.042 0.071 0.064 -0.043 -0.004 0.001
C81 0.046 0.074 0.039 -0.031 0.007 -0.02
C82 0.064 0.057 0.062 -0.034 -0.005 0.001
C83 0.068 0.087 0.053 -0.039 -0.019 0.009
C84 0.058 0.054 0.04 -0.024 -0.001 0.003
C85 0.048 0.084 0.058 -0.037 -0.018 0.028
C86 0.031 0.071 0.034 -0.01 0 -0.014
C87 0.055 0.124 0.066 -0.06 -0.008 -0.001
C89 0.052 0.169 0.123 -0.092 -0.037 0.045
C90 0.094 0.29 0.2 -0.22 -0.04 0.068
C125 0.047 0.042 0.038 -0.013 0.001 -0.009
C126 0.053 0.056 0.035 -0.026 -0.003 0.003
C132 0.031 0.058 0.027 -0.012 -0.008 0.003
C133 0.034 0.064 0.041 -0.025 -0.006 0.002
C134 0.059 0.059 0.044 -0.019 0.002 -0.004
C135 0.041 0.079 0.055 -0.021 0.002 0.001
C136 0.041 0.068 0.066 -0.027 0.006 0.008
C137 0.06 0.08 0.046 -0.021 -0.011 0.027
C138 0.043 0.066 0.032 -0.017 -0.001 0.006
C139 0.046 0.058 0.046 -0.006 -0.01 0.011
C140 0.053 0.052 0.031 -0.007 -0.003 0.011
C141 0.047 0.087 0.03 -0.014 0.003 0.001
C142 0.05 0.089 0.037 -0.003 0.002 0.013
C143 0.085 0.073 0.035 -0.012 0.013 -0.005
C144 0.053 0.076 0.044 -0.014 -0.001 0.006
C145 0.048 0.088 0.043 -0.01 -0.011 0.011
C146 0.077 0.072 0.039 -0.016 0.002 0.001
C184 0.102 0.153 0.47 -0.17 -0.12 0.007
C185 0.55 0.54 0.12 -0.2 -0.04 0.11
N5 0.05 0.078 0.054 -0.032 -0.008 -0.002
N6 0.068 0.078 0.058 -0.037 -0.003 -0.008
N9 0.034 0.056 0.041 -0.017 -0.01 0.004
N10 0.038 0.067 0.033 -0.013 0.002 0.002
O14 0.056 0.093 0.063 -0.053 -0.006 -0.002
O15 0.047 0.074 0.044 -0.014 -0.007 0.01
O16 0.082 0.055 0.074 -0.043 -0.005 0
O25 0.032 0.078 0.034 -0.02 -0.009 -0.002
O26 0.043 0.118 0.024 -0.006 0.001 0.004
O28 0.086 0.197 0.034 -0.008 -0.02 0.058
O36 0.1 0.114 0.167 -0.087 0.009 -0.022
N16 0.061 0.068 0.04 -0.028 -0.014 0.015
N17 0.043 0.067 0.052 -0.033 -0.006 0.008
O44 0.08 0.075 0.044 -0.034 -0.016 0.015
O45 0.057 0.089 0.055 -0.042 -0.022 0.016
O46 0.068 0.093 0.088 -0.055 -0.01 -0.004
O47 0.057 0.111 0.092 -0.068 -0.013 -0.014
C92 0.056 0.034 0.041 -0.022 0.015 -0.011
C93 0.04 0.037 0.066 -0.027 0.005 -0.011
C94 0.039 0.045 0.045 -0.024 0 -0.002
C102 0.037 0.034 0.045 -0.016 0.005 0.005
C127 0.053 0.046 0.036 -0.021 -0.016 0.01
O18 0.06 0.036 0.091 -0.035 0.009 -0.001
O23 0.075 0.094 0.027 -0.018 -0.001 0.007
C43 0.045 0.077 0.046 -0.029 -0.003 0.006
C44 0.041 0.077 0.048 -0.023 0.001 0.008
C45 0.053 0.12 0.052 -0.032 0.005 -0.001
C46 0.047 0.127 0.059 -0.041 0.003 -0.002
C47 0.04 0.09 0.045 -0.026 -0.001 -0.005
C48 0.047 0.096 0.039 -0.035 0.004 -0.002
C49 0.047 0.074 0.04 -0.024 -0.002 0
C50 0.06 0.073 0.045 -0.026 0.002 -0.013
C51 0.064 0.047 0.037 -0.016 -0.006 0.005
C52 0.078 0.056 0.039 -0.024 0.006 -0.004
C53 0.065 0.065 0.034 -0.016 0.001 0.007
C54 0.074 0.052 0.032 -0.012 -0.002 0.001
C55 0.062 0.046 0.038 -0.014 -0.012 0.007
C56 0.075 0.056 0.038 -0.009 -0.009 -0.007
C57 0.062 0.094 0.049 -0.028 -0.004 0.012
C58 0.098 0.138 0.058 -0.015 0.012 0.023
C59 0.048 0.176 0.083 -0.034 -0.021 -0.001
C96 0.043 0.039 0.046 -0.022 0.009 -0.006
C98 0.036 0.054 0.081 -0.035 0.006 -0.002
C99 0.042 0.061 0.14 -0.022 -0.021 0.01
C100 0.061 0.057 0.07 0.008 -0.017 0.016
C101 0.095 0.081 0.088 -0.044 0.004 0.026
C117 0.055 0.042 0.084 -0.029 -0.005 0.006
C118 0.044 0.109 0.122 -0.07 -0.017 0.003
C119 0.075 0.083 0.105 -0.056 -0.039 0.035
C120 0.063 0.091 0.097 -0.046 0.019 0.005
C181 0.148 0.09 0.13 -0.041 -0.015 0.034
C182 0.92 0.18 0.62 0.05 -0.64 -0.21
C183 0.42 0.22 0.23 0.05 -0.07 -0.19
N4 0.049 0.063 0.039 -0.025 0 0
N13 0.075 0.108 0.194 -0.056 -0.053 -0.015
O8 0.059 0.073 0.038 -0.018 -0.006 0.013
O9 0.077 0.091 0.044 -0.011 0.012 0.005
O10 0.102 0.113 0.061 -0.029 -0.008 0.036
O35 0.086 0.096 0.096 -0.043 -0.001 -0.009
Mn11 0.0495 0.0394 0.0351 -0.0182 -0.0079 -0.0014
Mn12 0.0365 0.033 0.043 -0.0168 -0.0009 -0.0028
C10 0.062 0.065 0.107 -0.04 -0.011 -0.011
C64 0.056 0.053 0.046 -0.019 -0.009 0.004
C65 0.073 0.059 0.034 -0.015 -0.009 0.004
C66 0.068 0.07 0.048 -0.032 -0.008 -0.014
C67 0.07 0.063 0.047 -0.027 -0.007 0.006
C68 0.072 0.13 0.076 -0.076 0.012 0.001
C69 0.039 0.203 0.106 -0.11 -0.006 0.02
C70 0.068 0.1 0.141 -0.064 -0.009 0.005
C71 0.092 0.116 0.051 -0.032 -0.004 -0.019
C88 0.105 0.118 0.095 -0.047 0.031 -0.014
C123 0.039 0.038 0.058 -0.023 -0.019 0.004
C124 0.043 0.04 0.042 -0.016 -0.009 0
C128 0.037 0.054 0.061 -0.013 -0.015 0.011
C129 0.066 0.057 0.079 -0.008 0.006 -0.005
C130 0.072 0.079 0.062 -0.028 0.007 -0.006
C131 0.046 0.101 0.09 -0.021 -0.009 0.016
C147 0.07 0.168 0.036 -0.006 0.02 0.04
C148 0.139 0.19 0.069 -0.032 -0.003 0.114
C149 0.075 0.25 0.071 -0.05 0.032 -0.016
C150 0.06 0.26 0.056 -0.018 0.021 0.05
C186 0.25 0.21 0.49 -0.13 0.23 -0.08
N14 0.215 0.118 0.199 -0.064 -0.095 -0.001
O13 0.049 0.131 0.067 -0.069 -0.022 0.017
Mn1 0.0462 0.0387 0.0417 -0.0216 -0.006 -0.0033
Mn2 0.0359 0.0382 0.0288 -0.0117 -0.0081 -0.0026
C1 0.038 0.049 0.05 -0.026 0.003 -0.01
C2 0.039 0.045 0.05 -0.024 -0.003 -0.004
C3 0.059 0.053 0.048 -0.028 0.01 -0.021
C4 0.037 0.054 0.05 -0.028 0.004 -0.011
C5 0.041 0.041 0.052 -0.027 0.016 -0.026
C6 0.041 0.036 0.042 -0.012 0.002 -0.005
C7 0.055 0.044 0.042 -0.019 0.007 0.005
C8 0.037 0.054 0.082 -0.032 0.004 -0.01
C9 0.033 0.095 0.15 -0.069 0.018 -0.003
C11 0.048 0.074 0.112 -0.051 0.003 -0.024
C12 0.048 0.036 0.058 -0.016 0.001 -0.001
C13 0.035 0.048 0.063 -0.027 -0.001 -0.005
C14 0.044 0.05 0.085 -0.027 -0.009 0.001
C15 0.038 0.055 0.106 -0.02 -0.009 0.006
C16 0.041 0.067 0.09 -0.036 -0.003 -0.004
C17 0.035 0.064 0.093 -0.037 -0.009 -0.013
C18 0.037 0.042 0.054 -0.022 0 0.005
C19 0.038 0.04 0.052 -0.018 0.003 -0.005
C21 0.044 0.032 0.047 -0.017 -0.006 -0.01
C22 0.05 0.05 0.05 -0.026 0.007 -0.009
C23 0.041 0.042 0.046 -0.021 0.004 -0.009
C26 0.055 0.053 0.044 -0.021 -0.003 -0.008
C27 0.049 0.069 0.065 -0.039 -0.004 0.009
C28 0.065 0.073 0.087 -0.035 0.012 -0.033
C29 0.069 0.098 0.074 -0.046 -0.012 -0.006
C31 0.061 0.026 0.056 -0.017 -0.013 0.008
C32 0.058 0.036 0.046 -0.014 -0.019 0.021
C33 0.056 0.041 0.058 -0.012 -0.001 0.006
C34 0.052 0.052 0.05 -0.02 -0.001 0
C35 0.046 0.047 0.048 -0.027 -0.019 0.013
C36 0.034 0.047 0.042 -0.018 -0.005 0.007
C37 0.051 0.053 0.04 -0.018 0.005 -0.001
C38 0.054 0.066 0.067 -0.022 0.025 -0.005
C39 0.081 0.124 0.1 -0.071 0.023 0.019
C40 0.05 0.145 0.083 -0.027 0.01 0.015
C41 0.051 0.108 0.077 -0.022 0.007 -0.014
C42 0.07 0.07 0.036 -0.028 0.01 -0.004
C60 0.137 0.084 0.091 -0.017 0.018 0.037
C61 0.082 0.071 0.05 -0.039 -0.027 -0.001
C62 0.062 0.053 0.044 -0.016 -0.017 -0.01
C63 0.066 0.051 0.051 -0.011 -0.001 -0.006
C91 0.083 0.039 0.032 -0.019 0.007 -0.019
C97 0.03 0.046 0.054 -0.02 0.008 -0.008
C121 0.079 0.038 0.041 -0.005 -0.041 0
C122 0.055 0.037 0.041 -0.015 -0.007 -0.016
C151 0.055 0.045 0.055 -0.017 -0.015 -0.009
C152 0.06 0.055 0.048 -0.033 -0.013 -0.002
C153 0.049 0.053 0.07 -0.033 -0.03 0.003
C154 0.053 0.057 0.047 -0.029 -0.018 0.017
C155 0.044 0.064 0.064 -0.043 -0.035 0.012
C156 0.061 0.046 0.035 -0.018 -0.014 -0.001
C157 0.064 0.07 0.039 -0.042 -0.018 -0.004
C158 0.044 0.086 0.06 -0.035 -0.027 0.007
C159 0.108 0.141 0.082 -0.048 -0.011 -0.007
C160 0.093 0.109 0.083 -0.077 -0.037 0.033
C161 0.094 0.122 0.058 -0.047 0.013 0.002
C162 0.063 0.056 0.031 -0.023 -0.004 0.007
C163 0.063 0.063 0.044 -0.022 0.001 0.007
C164 0.069 0.08 0.052 -0.03 0.009 -0.015
C165 0.1 0.101 0.069 -0.047 0.015 0.019
C166 0.078 0.157 0.063 -0.055 0.006 0
C167 0.054 0.128 0.077 -0.064 -0.015 0.009
C168 0.055 0.079 0.044 -0.029 -0.005 -0.001
C169 0.056 0.079 0.04 -0.031 -0.011 0.004
C170 0.088 0.095 0.075 -0.063 -0.016 0.018
C171 0.071 0.054 0.036 -0.019 -0.015 0.016
C172 0.078 0.053 0.06 -0.027 -0.035 0.018
C173 0.043 0.086 0.049 -0.035 -0.013 0.009
C174 0.064 0.066 0.058 -0.036 0.004 -0.01
C175 0.047 0.075 0.058 -0.029 -0.016 -0.005
C176 0.069 0.07 0.044 -0.027 0.003 -0.03
C177 0.072 0.093 0.088 -0.065 -0.017 0.022
C178 0.043 0.189 0.151 -0.117 -0.003 -0.026
C179 0.149 0.072 0.099 -0.04 -0.041 0.039
C180 0.047 0.156 0.112 -0.094 -0.025 0.029
N1 0.033 0.038 0.051 -0.016 0.004 -0.003
N2 0.031 0.035 0.056 -0.02 0 -0.009
N3 0.039 0.063 0.028 -0.02 -0.003 0.006
O1 0.048 0.048 0.066 -0.03 0.009 -0.012
O2 0.062 0.056 0.103 -0.044 0.013 -0.024
O3 0.04 0.04 0.078 -0.025 0.002 -0.005
O4 0.042 0.041 0.072 -0.029 -0.014 0.004
O5 0.07 0.068 0.08 -0.002 -0.041 0.009
O6 0.066 0.076 0.052 -0.021 -0.025 0.02
O7 0.051 0.077 0.04 -0.03 -0.001 0.011
O11 0.076 0.087 0.062 -0.048 -0.002 -0.015
O12 0.061 0.1 0.081 -0.057 -0.02 0.002
O17 0.063 0.045 0.052 -0.014 0.016 -0.029
O24 0.066 0.053 0.052 0 -0.029 0.004
O29 0.081 0.086 0.07 -0.051 -0.043 0.008
O30 0.06 0.098 0.051 -0.045 -0.015 -0.019
O48 0.093 0.06 0.12 -0.057 0.018 0.013
C20 0.071 0.052 0.062 -0.033 0.021 -0.023
C24 0.067 0.043 0.05 -0.018 0.012 -0.006
C25 0.069 0.027 0.042 -0.013 0.014 -0.002
C30 0.079 0.073 0.183 -0.065 -0.012 0.045
O38 0.091 0.061 0.192 -0.071 0.007 -0.021
loop_
_geom_bond_atom_site_label_1
_geom_bond_atom_site_label_2
_geom_bond_site_symmetry_1
_geom_bond_site_symmetry_2
Mn7 N7 1_555 1_555
C103 H115 1_555 1_555
C104 C103 1_555 1_555
C105 C104 1_555 1_555
H118 C105 1_555 1_555
H119 C105 1_555 1_555
C106 C105 1_555 1_555
H120 C106 1_555 1_555
H121 C106 1_555 1_555
C107 C106 1_555 1_555
H122 C107 1_555 1_555
H123 C107 1_555 1_555
C108 C103 1_555 1_555
H124 C108 1_555 1_555
C109 H125 1_555 1_555
C110 C109 1_555 1_555
C111 C110 1_555 1_555
C112 C111 1_555 1_555
C113 C112 1_555 1_555
C114 C113 1_555 1_555
C115 C110 1_555 1_555
H127 C115 1_555 1_555
C116 C114 1_555 1_555
N8 Mn7 1_555 1_555
O19 Mn7 1_555 1_555
O20 Mn7 1_555 1_555
O21 C116 1_555 1_555
O22 C116 1_555 1_555
O43 Mn7 1_555 1_555
C95 O19 1_555 1_555
C103 N7 1_555 1_555
C107 C108 1_555 1_555
C108 N8 1_555 1_555
C109 N8 1_555 1_555
C111 O20 1_555 1_555
C114 C115 1_555 1_555
Mn6 N5 1_555 1_555
Mn8 N9 1_555 1_555
Mn9 O15 1_555 1_555
C73 H81 1_555 1_555
C74 C73 1_555 1_555
H83 C74 1_555 1_555
C75 C74 1_555 1_555
C76 C75 1_555 1_555
H86 C76 1_555 1_555
H87 C76 1_555 1_555
C77 C76 1_555 1_555
H88 C77 1_555 1_555
H89 C77 1_555 1_555
C78 C73 1_555 1_555
H90 C78 1_555 1_555
C79 H91 1_555 1_555
C80 C79 1_555 1_555
C81 C80 1_555 1_555
C82 C81 1_555 1_555
C83 C82 1_555 1_555
H92 C83 1_555 1_555
C84 C83 1_555 1_555
C85 C80 1_555 1_555
H93 C85 1_555 1_555
C86 C84 1_555 1_555
C87 C82 1_555 1_555
C89 C87 1_555 1_555
H97 C89 1_555 1_555
H98 C89 1_555 1_555
C90 C87 1_555 1_555
H100 C90 1_555 1_555
H102 C90 1_555 1_555
C126 C125 1_555 1_555
C132 C126 1_555 1_555
H148 C132 1_555 1_555
C133 H149 1_555 1_555
C134 C133 1_555 1_555
H150 C134 1_555 1_555
H151 C134 1_555 1_555
C135 C134 1_555 1_555
H152 C135 1_555 1_555
H153 C135 1_555 1_555
C136 C135 1_555 1_555
H154 C136 1_555 1_555
H155 C136 1_555 1_555
C137 C136 1_555 1_555
H156 C137 1_555 1_555
H157 C137 1_555 1_555
C138 C133 1_555 1_555
H158 C138 1_555 1_555
C139 H159 1_555 1_555
C140 C139 1_555 1_555
C141 C140 1_555 1_555
C142 C141 1_555 1_555
C143 C142 1_555 1_555
H160 C143 1_555 1_555
C144 C143 1_555 1_555
C145 C140 1_555 1_555
H161 C145 1_555 1_555
C146 C144 1_555 1_555
C184 H212 1_555 1_555
C185 H213 1_555 1_555
H215 C185 1_555 1_555
N5 C72 1_555 1_555
N6 Mn6 1_555 1_555
N9 C132 1_555 1_555
N10 Mn8 1_555 1_555
O14 Mn6 1_555 1_555
O15 C86 1_555 1_555
O16 C86 1_555 1_555
O25 Mn8 1_555 1_555
O26 Mn8 1_555 1_555
O43 C146 1_555 1_555
O28 C146 1_555 1_555
O36 Mn8 1_555 1_555
C187 H219 1_555 1_555
O39 Mn9 1_555 1_555
N15 C187 1_555 1_555
C188 N15 1_555 1_555
H220 C188 1_555 1_555
H221 C188 1_555 1_555
H222 C188 1_555 1_555
C189 N15 1_555 1_555
H223 C189 1_555 1_555
H224 C189 1_555 1_555
H225 C189 1_555 1_555
N16 Mn9 1_555 1_555
N17 Mn9 1_555 1_555
O44 Mn9 1_555 1_555
O45 Mn9 1_555 1_555
O46 Mn6 1_555 1_555
O47 Mn8 1_555 1_555
C73 N5 1_555 1_555
C77 C78 1_555 1_555
C78 N6 1_555 1_555
C79 N6 1_555 1_555
C81 O14 1_555 1_555
C84 C85 1_555 1_555
C125 O25 1_555 1_555
C133 N9 1_555 1_555
C137 C138 1_555 1_555
C138 N10 1_555 1_555
C139 N10 1_555 1_555
C141 O26 1_555 1_555
C144 C145 1_555 1_555
C184 O36 1_555 1_555
C187 O39 1_555 1_555
C92 C93 1_555 1_555
C93 H103 1_555 1_555
C94 C93 1_555 1_555
C102 C94 1_555 1_555
H114 C102 1_555 1_555
H138 C127 1_555 1_555
C43 H47 1_555 1_555
C44 C43 1_555 1_555
H49 C44 1_555 1_555
C45 C44 1_555 1_555
H50 C45 1_555 1_555
H51 C45 1_555 1_555
C46 C45 1_555 1_555
H52 C46 1_555 1_555
C47 C46 1_555 1_555
H54 C47 1_555 1_555
H55 C47 1_555 1_555
C48 C43 1_555 1_555
C49 H57 1_555 1_555
C50 C49 1_555 1_555
C51 C50 1_555 1_555
C52 C51 1_555 1_555
C53 C52 1_555 1_555
H58 C53 1_555 1_555
C54 C53 1_555 1_555
C55 C50 1_555 1_555
H59 C55 1_555 1_555
C56 C54 1_555 1_555
C57 C52 1_555 1_555
C58 C57 1_555 1_555
H60 C58 1_555 1_555
H61 C58 1_555 1_555
H62 C58 1_555 1_555
C59 C57 1_555 1_555
H63 C59 1_555 1_555
H64 C59 1_555 1_555
H65 C59 1_555 1_555
C98 C96 1_555 1_555
C99 C98 1_555 1_555
H105 C99 1_555 1_555
C100 C98 1_555 1_555
H108 C100 1_555 1_555
H109 C100 1_555 1_555
H110 C100 1_555 1_555
C101 C98 1_555 1_555
H111 C101 1_555 1_555
H112 C101 1_555 1_555
H113 C101 1_555 1_555
C118 C117 1_555 1_555
H128 C118 1_555 1_555
H129 C118 1_555 1_555
H130 C118 1_555 1_555
C119 C117 1_555 1_555
H131 C119 1_555 1_555
H132 C119 1_555 1_555
H133 C119 1_555 1_555
C120 C117 1_555 1_555
H134 C120 1_555 1_555
H135 C120 1_555 1_555
H136 C120 1_555 1_555
C181 H205 1_555 1_555
C182 H206 1_555 1_555
H207 C182 1_555 1_555
H208 C182 1_555 1_555
C183 H209 1_555 1_555
H210 C183 1_555 1_555
H211 C183 1_555 1_555
N4 Mn13 1_555 1_555
N13 C181 1_555 1_555
O8 Mn13 1_555 1_555
O9 C56 1_555 1_555
O10 C56 1_555 1_555
O35 Mn13 1_555 1_555
C47 C48 1_555 1_555
C48 N4 1_555 1_555
C49 N4 1_555 1_555
C51 O8 1_555 1_555
C54 C55 1_555 1_555
C181 O35 1_555 1_555
C182 N13 1_555 1_555
C183 N13 1_555 1_555
H6 C10 1_555 1_555
H7 C10 1_555 1_555
H8 C10 1_555 1_555
C65 C64 1_555 1_555
C66 C65 1_555 1_555
H70 C67 1_555 1_555
C68 C66 1_555 1_555
C69 C68 1_555 1_555
H71 C69 1_555 1_555
H72 C69 1_555 1_555
H73 C69 1_555 1_555
C70 C68 1_555 1_555
H74 C70 1_555 1_555
H75 C70 1_555 1_555
H76 C70 1_555 1_555
C71 C68 1_555 1_555
H77 C71 1_555 1_555
H78 C71 1_555 1_555
H79 C71 1_555 1_555
H94 C88 1_555 1_555
H95 C88 1_555 1_555
H96 C88 1_555 1_555
C124 C123 1_555 1_555
C128 C124 1_555 1_555
C129 C128 1_555 1_555
H139 C129 1_555 1_555
H140 C129 1_555 1_555
H141 C129 1_555 1_555
C130 C128 1_555 1_555
H142 C130 1_555 1_555
H143 C130 1_555 1_555
H144 C130 1_555 1_555
C131 C128 1_555 1_555
H145 C131 1_555 1_555
H146 C131 1_555 1_555
H147 C131 1_555 1_555
C148 C147 1_555 1_555
H162 C148 1_555 1_555
H163 C148 1_555 1_555
H164 C148 1_555 1_555
C149 C147 1_555 1_555
H165 C149 1_555 1_555
H166 C149 1_555 1_555
H167 C149 1_555 1_555
C150 C147 1_555 1_555
H168 C150 1_555 1_555
H169 C150 1_555 1_555
H170 C150 1_555 1_555
C186 H216 1_555 1_555
H217 C186 1_555 1_555
H218 C186 1_555 1_555
C65 O13 1_555 1_555
C66 C67 1_555 1_555
C186 N14 1_555 1_555
Mn1 O1 1_555 1_555
Mn2 O1 1_555 1_555
Mn11 O17 1_555 1_555
Mn12 N1 1_555 1_555
C1 C2 1_555 1_555
C2 C3 1_555 1_555
C3 H1 1_555 1_555
C4 C3 1_555 1_555
C5 C4 1_555 1_555
C6 C5 1_555 1_555
C7 C2 1_555 1_555
H2 C7 1_555 1_555
C8 C4 1_555 1_555
C9 C8 1_555 1_555
H3 C9 1_555 1_555
H4 C9 1_555 1_555
H5 C9 1_555 1_555
C11 C8 1_555 1_555
H9 C11 1_555 1_555
H10 C11 1_555 1_555
H11 C11 1_555 1_555
C12 C6 1_555 1_555
H12 C12 1_555 1_555
C13 H13 1_555 1_555
C14 C13 1_555 1_555
H14 C14 1_555 1_555
H15 C14 1_555 1_555
C15 C14 1_555 1_555
H17 C15 1_555 1_555
C16 C15 1_555 1_555
H19 C16 1_555 1_555
C17 C16 1_555 1_555
H20 C17 1_555 1_555
H21 C17 1_555 1_555
C18 C13 1_555 1_555
H22 C18 1_555 1_555
C19 H23 1_555 1_555
C21 C19 1_555 1_555
C22 C21 1_555 1_555
C23 C22 1_555 1_555
C26 C21 1_555 1_555
H25 C26 1_555 1_555
C27 C23 1_555 1_555
C28 C27 1_555 1_555
H26 C28 1_555 1_555
H27 C28 1_555 1_555
H28 C28 1_555 1_555
C29 C27 1_555 1_555
H29 C29 1_555 1_555
H30 C29 1_555 1_555
C31 C32 1_555 1_555
C32 C33 1_555 1_555
C33 H35 1_555 1_555
C34 C33 1_555 1_555
C35 C34 1_555 1_555
C36 C35 1_555 1_555
C37 C32 1_555 1_555
H36 C37 1_555 1_555
C38 C34 1_555 1_555
C39 C38 1_555 1_555
H37 C39 1_555 1_555
H38 C39 1_555 1_555
H39 C39 1_555 1_555
C40 C38 1_555 1_555
H40 C40 1_555 1_555
H41 C40 1_555 1_555
H42 C40 1_555 1_555
C41 C38 1_555 1_555
C42 C36 1_555 1_555
H46 C42 1_555 1_555
H66 C60 1_555 1_555
H67 C60 1_555 1_555
H68 C60 1_555 1_555
C61 C62 1_555 1_555
C62 C63 1_555 1_555
C63 H69 1_555 1_555
H104 C97 1_555 1_555
C121 C122 1_555 1_555
C151 C152 1_555 1_555
C152 C153 1_555 1_555
C153 H171 1_555 1_555
C154 C153 1_555 1_555
C155 C154 1_555 1_555
C156 C155 1_555 1_555
C157 C152 1_555 1_555
H172 C157 1_555 1_555
C158 C154 1_555 1_555
C159 C158 1_555 1_555
H173 C159 1_555 1_555
H174 C159 1_555 1_555
H175 C159 1_555 1_555
C160 C158 1_555 1_555
H176 C160 1_555 1_555
H177 C160 1_555 1_555
H178 C160 1_555 1_555
C161 C158 1_555 1_555
H179 C161 1_555 1_555
H180 C161 1_555 1_555
H181 C161 1_555 1_555
C162 C156 1_555 1_555
H182 C162 1_555 1_555
C163 H183 1_555 1_555
C164 C163 1_555 1_555
H184 C164 1_555 1_555
H185 C164 1_555 1_555
C165 C164 1_555 1_555
H186 C165 1_555 1_555
H187 C165 1_555 1_555
C166 C165 1_555 1_555
H188 C166 1_555 1_555
H189 C166 1_555 1_555
C167 C166 1_555 1_555
H190 C167 1_555 1_555
H191 C167 1_555 1_555
C168 C163 1_555 1_555
H192 C168 1_555 1_555
C169 H193 1_555 1_555
C170 C175 1_555 1_555
C171 C169 1_555 1_555
C172 C171 1_555 1_555
C173 C172 1_555 1_555
C174 C173 1_555 1_555
H194 C174 1_555 1_555
C175 C174 1_555 1_555
C176 C171 1_555 1_555
H195 C176 1_555 1_555
C177 C173 1_555 1_555
C178 C177 1_555 1_555
H196 C178 1_555 1_555
H197 C178 1_555 1_555
H198 C178 1_555 1_555
C179 C177 1_555 1_555
H199 C179 1_555 1_555
H200 C179 1_555 1_555
H201 C179 1_555 1_555
C180 C177 1_555 1_555
H202 C180 1_555 1_555
H203 C180 1_555 1_555
H204 C180 1_555 1_555
N1 C12 1_555 1_555
N2 Mn12 1_555 1_555
N3 C42 1_555 1_555
N16 C162 1_555 1_555
N17 C168 1_555 1_555
O1 C1 1_555 1_555
O2 Mn1 1_555 1_555
O3 Mn12 1_555 1_555
O4 Mn12 1_555 1_555
O5 Mn2 1_555 1_555
O6 Mn1 1_555 1_555
O11 Mn2 1_555 1_555
O12 Mn1 1_555 1_555
O17 Mn2 1_555 1_555
O24 Mn2 1_555 1_555
O29 Mn11 1_555 1_555
O30 Mn2 1_555 1_555
O44 C155 1_555 1_555
O45 C172 1_555 1_555
O46 C170 1_555 1_555
O47 C170 1_555 1_555
O48 Mn1 1_555 1_555
C1 O2 1_555 1_555
C5 O3 1_555 1_555
C6 C7 1_555 1_555
C13 N1 1_555 1_555
C17 C18 1_555 1_555
C18 N2 1_555 1_555
C19 N2 1_555 1_555
C22 O4 1_555 1_555
C31 O5 1_555 1_555
C31 O6 1_555 1_555
C35 O7 1_555 1_555
C36 C37 1_555 1_555
C61 O11 1_555 1_555
C61 O12 1_555 1_555
C91 O17 1_555 1_555
C121 O24 1_555 1_555
C151 O29 1_555 1_555
C151 O30 1_555 1_555
C156 C157 1_555 1_555
C163 N16 1_555 1_555
C167 C168 1_555 1_555
C169 N17 1_555 1_555
C175 C176 1_555 1_555
C20 C25 1_555 1_555
H24 C24 1_555 1_555
C25 C24 1_555 1_555
H33 C30 1_555 1_555
H34 C30 1_555 1_555
O48 C20 1_555 1_555
O38 C20 1_555 1_555

#END
