
###############################################################################
#
# This file contains modified crystal structure data generated from the
# MOF subset of the Cambridge Structural Database (CSD) v543 
# hosted by the Cambridge Crystallographic Data Centre (CCDC).
#
# This work is licensed under the Creative Commons
# Attribution-NonCommercial-ShareAlike 4.0 International License.
# To view a copy of this license, visit
# http://creativecommons.org/licenses/by-nc-sa/4.0/
# or send a letter to
# Creative Commons, PO Box 1866, Mountain View, CA 94042, USA.
#
# CIF created using the CSD Python API on 29 September 2022
# The structure has been converted into the P1 space group
# The structure has a 3D framework
# The original CSD entry UNIGEE is in the cubic crystal system
# The framework has been calculated to contain at least 10.0% void space
# The void calculation uses a probe of radius 1.32A, grid spacing 0.4
#
###############################################################################

data_UNIGEE
_chemical_formula_moiety         '(C192 H96 O104 Zn24)n'
_symmetry_cell_setting           triclinic
_symmetry_space_group_name_H-M   'P 1'
_symmetry_Int_Tables_number      1
_space_group_name_Hall           'P 1'
loop_
_symmetry_equiv_pos_site_id
_symmetry_equiv_pos_as_xyz
1 x,y,z
_cell_length_a                   25.6572(5)
_cell_length_b                   25.6572(5)
_cell_length_c                   25.6572(5)
_cell_angle_alpha                90
_cell_angle_beta                 90
_cell_angle_gamma                90
_cell_volume                     16889.9
loop_
_atom_site_label
_atom_site_type_symbol
_atom_site_fract_x
_atom_site_fract_y
_atom_site_fract_z
Zn3 Zn 0.206317(16) 0.206317(16) 0.206317(16)
Zn4 Zn 0.293683(16) 0.206317(16) 0.293683(16)
Zn11 Zn 0.206317(16) 0.293683(16) 0.293683(16)
Zn12 Zn 0.293683(16) 0.293683(16) 0.206317(16)
O3 O 0.2500 0.2500 0.2500
O7 O 0.21778(10) 0.13365(10) 0.21778(13)
O8 O 0.28222(10) 0.13365(10) 0.28222(13)
O19 O 0.21778(13) 0.21778(10) 0.13365(10)
O20 O 0.13365(10) 0.21778(13) 0.21778(10)
O21 O 0.28222(13) 0.21778(10) 0.36635(10)
O22 O 0.36635(10) 0.21778(13) 0.28222(10)
O31 O 0.28222(13) 0.28222(10) 0.13365(10)
C4 C 0.21696(15) 0.02603(15) 0.21696(18)
C5 C 0.28304(15) 0.02603(15) 0.28304(18)
C19 C 0.21696(18) 0.21696(15) 0.02603(15)
C20 C 0.28304(18) 0.28304(15) 0.02603(15)
H2 H 0.1943 0.0445 0.1943
H3 H 0.3057 0.0445 0.3057
H17 H 0.1943 0.1943 0.0445
H18 H 0.3057 0.3057 0.0445
C27 C 0.2500 0.0532 0.2500(2)
C34 C 0.2500(2) 0.2500 0.0532
C38 C 0.2500 0.1116 0.2500(2)
C45 C 0.2500(2) 0.2500 0.1116
Zn17 Zn 0.206317(16) 0.206317(16) 0.793683(16)
Zn18 Zn 0.293683(16) 0.293683(16) 0.793683(16)
O36 O 0.21778(10) 0.21778(13) 0.86635(10)
O37 O 0.28222(10) 0.28222(13) 0.86635(10)
C25 C 0.21696(15) 0.21696(18) 0.97397(15)
C26 C 0.28304(15) 0.28304(18) 0.97397(15)
H23 H 0.1943 0.1943 0.9555
H24 H 0.3057 0.3057 0.9555
C37 C 0.2500 0.2500(2) 0.9468
C48 C 0.2500 0.2500(2) 0.8884
Zn1 Zn 0.206317(16) 0.793683(16) 0.206317(16)
O1 O 0.2500 0.7500 0.2500
O2 O 0.21778(13) 0.86635(10) 0.21778(10)
C1 C 0.21696(18) 0.97397(15) 0.21696(15)
H1 H 0.1943 0.9555 0.1943
C2 C 0.2500(2) 0.9468 0.2500
C3 C 0.2500(2) 0.8884 0.2500
Zn2 Zn 0.293683(16) 0.793683(16) 0.293683(16)
Zn5 Zn 0.206317(16) 0.706317(16) 0.293683(16)
Zn6 Zn 0.293683(16) 0.706317(16) 0.206317(16)
Zn13 Zn 0.706317(16) 0.793683(16) 0.293683(16)
Zn14 Zn 0.706317(16) 0.706317(16) 0.206317(16)
Zn15 Zn 0.206317(16) 0.706317(16) 0.706317(16)
Zn16 Zn 0.293683(16) 0.793683(16) 0.706317(16)
O6 O 0.28222(13) 0.86635(10) 0.28222(10)
O9 O 0.13365(10) 0.78222(10) 0.21778(13)
O10 O 0.13365(10) 0.71778(10) 0.28222(13)
O13 O 0.21778(10) 0.78222(13) 0.13365(10)
O14 O 0.28222(10) 0.71778(13) 0.13365(10)
O17 O 0.36635(10) 0.78222(10) 0.28222(13)
O18 O 0.28222(10) 0.78222(13) 0.36635(10)
O23 O 0.21778(13) 0.63365(10) 0.28222(10)
O24 O 0.21778(10) 0.71778(13) 0.36635(10)
O25 O 0.28222(13) 0.63365(10) 0.21778(10)
O26 O 0.36635(10) 0.71778(10) 0.21778(13)
O32 O 0.63365(10) 0.78222(13) 0.28222(10)
O33 O 0.63365(10) 0.71778(13) 0.21778(10)
O34 O 0.21778(13) 0.71778(10) 0.63365(10)
O35 O 0.28222(13) 0.78222(10) 0.63365(10)
C6 C 0.28304(18) 0.97397(15) 0.28304(15)
C7 C 0.02603(15) 0.78304(15) 0.21696(18)
C10 C 0.02603(15) 0.71696(15) 0.28304(18)
C11 C 0.21696(15) 0.78304(18) 0.02603(15)
C14 C 0.28304(15) 0.71696(18) 0.02603(15)
C15 C 0.47397(15) 0.78304(15) 0.28304(18)
C16 C 0.47397(15) 0.71696(15) 0.21696(18)
C17 C 0.21696(15) 0.71696(18) 0.47397(15)
C18 C 0.28304(15) 0.78304(18) 0.47397(15)
C21 C 0.52603(15) 0.78304(18) 0.28304(15)
C22 C 0.52603(15) 0.71696(18) 0.21696(15)
C23 C 0.21696(18) 0.71696(15) 0.52603(15)
C24 C 0.28304(18) 0.78304(15) 0.52603(15)
H4 H 0.3057 0.9555 0.3057
H5 H 0.0445 0.8057 0.1943
H8 H 0.0445 0.6943 0.3057
H9 H 0.1943 0.8057 0.0445
H12 H 0.3057 0.6943 0.0445
H13 H 0.4555 0.8057 0.3057
H14 H 0.4555 0.6943 0.1943
H15 H 0.1943 0.6943 0.4555
H16 H 0.3057 0.8057 0.4555
H19 H 0.5445 0.8057 0.3057
H20 H 0.5445 0.6943 0.1943
H21 H 0.1943 0.6943 0.5445
H22 H 0.3057 0.8057 0.5445
C28 C 0.0532 0.7500 0.2500(2)
C30 C 0.2500 0.7500(2) 0.0532
C32 C 0.4468 0.7500 0.2500(2)
C33 C 0.2500 0.7500(2) 0.4468
C35 C 0.5532 0.7500(2) 0.2500
C36 C 0.2500(2) 0.7500 0.5532
C39 C 0.1116 0.7500 0.2500(2)
C41 C 0.2500 0.7500(2) 0.1116
C43 C 0.3884 0.7500 0.2500(2)
C44 C 0.2500 0.7500(2) 0.3884
C46 C 0.6116 0.7500(2) 0.2500
C47 C 0.2500(2) 0.7500 0.6116
Zn9 Zn 0.206317(16) 0.793683(16) 0.793683(16)
Zn10 Zn 0.293683(16) 0.706317(16) 0.793683(16)
O5 O 0.2500 0.7500 0.7500
O15 O 0.21778(13) 0.78222(10) 0.86635(10)
O16 O 0.28222(13) 0.71778(10) 0.86635(10)
O29 O 0.13365(10) 0.78222(13) 0.78222(10)
O30 O 0.21778(10) 0.86635(10) 0.78222(13)
C12 C 0.21696(18) 0.78304(15) 0.97397(15)
C13 C 0.28304(18) 0.71696(15) 0.97397(15)
H10 H 0.1943 0.8057 0.9555
H11 H 0.3057 0.6943 0.9555
C31 C 0.2500(2) 0.7500 0.9468
C42 C 0.2500(2) 0.7500 0.8884
Zn7 Zn 0.793683(16) 0.793683(16) 0.206317(16)
Zn8 Zn 0.793683(16) 0.706317(16) 0.293683(16)
O4 O 0.7500 0.7500 0.2500
O11 O 0.86635(10) 0.78222(13) 0.21778(10)
O12 O 0.86635(10) 0.71778(13) 0.28222(10)
O27 O 0.78222(13) 0.78222(10) 0.13365(10)
O28 O 0.78222(10) 0.86635(10) 0.21778(13)
C8 C 0.97397(15) 0.78304(18) 0.21696(15)
C9 C 0.97397(15) 0.71696(18) 0.28304(15)
H6 H 0.9555 0.8057 0.1943
H7 H 0.9555 0.6943 0.3057
C29 C 0.9468 0.7500(2) 0.2500
C40 C 0.8884 0.7500(2) 0.2500
O12_2 O 0.13365(10) 0.28222(13) 0.28222(10)
C8_2 C 0.02603(15) 0.21696(18) 0.21696(15)
C9_2 C 0.02603(15) 0.28304(18) 0.28304(15)
H6_2 H 0.0445 0.1943 0.1943
H7_2 H 0.0445 0.3057 0.3057
C29_2 C 0.0532 0.2500(2) 0.2500
C40_2 C 0.1116 0.2500(2) 0.2500
Zn1_2 Zn 0.793683(16) 0.206317(16) 0.206317(16)
O1_2 O 0.7500 0.2500 0.2500
O2_2 O 0.78222(13) 0.13365(10) 0.21778(10)
C1_2 C 0.78304(18) 0.02603(15) 0.21696(15)
H1_2 H 0.8057 0.0445 0.1943
C2_2 C 0.7500(2) 0.0532 0.2500
C3_2 C 0.7500(2) 0.1116 0.2500
Zn2_2 Zn 0.706317(16) 0.206317(16) 0.293683(16)
Zn5_2 Zn 0.793683(16) 0.293683(16) 0.293683(16)
Zn6_2 Zn 0.706317(16) 0.293683(16) 0.206317(16)
Zn15_2 Zn 0.793683(16) 0.293683(16) 0.706317(16)
Zn16_2 Zn 0.706317(16) 0.206317(16) 0.706317(16)
O6_2 O 0.71778(13) 0.13365(10) 0.28222(10)
O9_2 O 0.86635(10) 0.21778(10) 0.21778(13)
O10_2 O 0.86635(10) 0.28222(10) 0.28222(13)
O13_2 O 0.78222(10) 0.21778(13) 0.13365(10)
O14_2 O 0.71778(10) 0.28222(13) 0.13365(10)
O17_2 O 0.63365(10) 0.21778(10) 0.28222(13)
O18_2 O 0.71778(10) 0.21778(13) 0.36635(10)
O23_2 O 0.78222(13) 0.36635(10) 0.28222(10)
O24_2 O 0.78222(10) 0.28222(13) 0.36635(10)
O25_2 O 0.71778(13) 0.36635(10) 0.21778(10)
O26_2 O 0.63365(10) 0.28222(10) 0.21778(13)
O33_2 O 0.36635(10) 0.28222(13) 0.21778(10)
O34_2 O 0.78222(13) 0.28222(10) 0.63365(10)
O35_2 O 0.71778(13) 0.21778(10) 0.63365(10)
C6_2 C 0.71696(18) 0.02603(15) 0.28304(15)
C7_2 C 0.97397(15) 0.21696(15) 0.21696(18)
C10_2 C 0.97397(15) 0.28304(15) 0.28304(18)
C11_2 C 0.78304(15) 0.21696(18) 0.02603(15)
C14_2 C 0.71696(15) 0.28304(18) 0.02603(15)
C15_2 C 0.52603(15) 0.21696(15) 0.28304(18)
C16_2 C 0.52603(15) 0.28304(15) 0.21696(18)
C17_2 C 0.78304(15) 0.28304(18) 0.47397(15)
C18_2 C 0.71696(15) 0.21696(18) 0.47397(15)
C21_2 C 0.47397(15) 0.21696(18) 0.28304(15)
C22_2 C 0.47397(15) 0.28304(18) 0.21696(15)
C23_2 C 0.78304(18) 0.28304(15) 0.52603(15)
C24_2 C 0.71696(18) 0.21696(15) 0.52603(15)
H4_2 H 0.6943 0.0445 0.3057
H5_2 H 0.9555 0.1943 0.1943
H8_2 H 0.9555 0.3057 0.3057
H9_2 H 0.8057 0.1943 0.0445
H12_2 H 0.6943 0.3057 0.0445
H13_2 H 0.5445 0.1943 0.3057
H14_2 H 0.5445 0.3057 0.1943
H15_2 H 0.8057 0.3057 0.4555
H16_2 H 0.6943 0.1943 0.4555
H19_2 H 0.4555 0.1943 0.3057
H20_2 H 0.4555 0.3057 0.1943
H21_2 H 0.8057 0.3057 0.5445
H22_2 H 0.6943 0.1943 0.5445
C28_2 C 0.9468 0.2500 0.2500(2)
C30_2 C 0.7500 0.2500(2) 0.0532
C32_2 C 0.5532 0.2500 0.2500(2)
C33_2 C 0.7500 0.2500(2) 0.4468
C35_2 C 0.4468 0.2500(2) 0.2500
C36_2 C 0.7500(2) 0.2500 0.5532
C39_2 C 0.8884 0.2500 0.2500(2)
C41_2 C 0.7500 0.2500(2) 0.1116
C43_2 C 0.6116 0.2500 0.2500(2)
C44_2 C 0.7500 0.2500(2) 0.3884
C46_2 C 0.3884 0.2500(2) 0.2500
C47_2 C 0.7500(2) 0.2500 0.6116
Zn9_2 Zn 0.793683(16) 0.206317(16) 0.793683(16)
Zn10_2 Zn 0.706317(16) 0.293683(16) 0.793683(16)
O5_2 O 0.7500 0.2500 0.7500
O15_2 O 0.78222(13) 0.21778(10) 0.86635(10)
O16_2 O 0.71778(13) 0.28222(10) 0.86635(10)
O29_2 O 0.86635(10) 0.21778(13) 0.78222(10)
O30_2 O 0.78222(10) 0.13365(10) 0.78222(13)
C12_2 C 0.78304(18) 0.21696(15) 0.97397(15)
C13_2 C 0.71696(18) 0.28304(15) 0.97397(15)
H10_2 H 0.8057 0.1943 0.9555
H11_2 H 0.6943 0.3057 0.9555
C31_2 C 0.7500(2) 0.2500 0.9468
C42_2 C 0.7500(2) 0.2500 0.8884
O8_2 O 0.71778(10) 0.86635(10) 0.28222(13)
O21_2 O 0.71778(13) 0.78222(10) 0.36635(10)
O31_2 O 0.71778(13) 0.71778(10) 0.13365(10)
C4_2 C 0.78304(15) 0.97397(15) 0.21696(18)
C5_2 C 0.71696(15) 0.97397(15) 0.28304(18)
C19_2 C 0.78304(18) 0.78304(15) 0.02603(15)
C20_2 C 0.71696(18) 0.71696(15) 0.02603(15)
H2_2 H 0.8057 0.9555 0.1943
H3_2 H 0.6943 0.9555 0.3057
H17_2 H 0.8057 0.8057 0.0445
H18_2 H 0.6943 0.6943 0.0445
C27_2 C 0.7500 0.9468 0.2500(2)
C34_2 C 0.7500(2) 0.7500 0.0532
C38_2 C 0.7500 0.8884 0.2500(2)
C45_2 C 0.7500(2) 0.7500 0.1116
Zn17_2 Zn 0.793683(16) 0.793683(16) 0.793683(16)
Zn18_2 Zn 0.706317(16) 0.706317(16) 0.793683(16)
O36_2 O 0.78222(10) 0.78222(13) 0.86635(10)
O37_2 O 0.71778(10) 0.71778(13) 0.86635(10)
C25_2 C 0.78304(15) 0.78304(18) 0.97397(15)
C26_2 C 0.71696(15) 0.71696(18) 0.97397(15)
H23_2 H 0.8057 0.8057 0.9555
H24_2 H 0.6943 0.6943 0.9555
C37_2 C 0.7500 0.7500(2) 0.9468
C48_2 C 0.7500 0.7500(2) 0.8884
O12_3 O 0.13365(10) 0.71778(13) 0.71778(10)
C8_3 C 0.02603(15) 0.78304(18) 0.78304(15)
C9_3 C 0.02603(15) 0.71696(18) 0.71696(15)
H6_3 H 0.0445 0.8057 0.8057
H7_3 H 0.0445 0.6943 0.6943
C29_3 C 0.0532 0.7500(2) 0.7500
C40_3 C 0.1116 0.7500(2) 0.7500
O8_3 O 0.71778(10) 0.13365(10) 0.71778(13)
O22_2 O 0.63365(10) 0.21778(13) 0.71778(10)
C4_3 C 0.78304(15) 0.02603(15) 0.78304(18)
C5_3 C 0.71696(15) 0.02603(15) 0.71696(18)
H2_3 H 0.8057 0.0445 0.8057
H3_3 H 0.6943 0.0445 0.6943
C27_3 C 0.7500 0.0532 0.7500(2)
C38_3 C 0.7500 0.1116 0.7500(2)
O1_3 O 0.7500 0.7500 0.7500
O2_3 O 0.78222(13) 0.86635(10) 0.78222(10)
C1_3 C 0.78304(18) 0.97397(15) 0.78304(15)
H1_3 H 0.8057 0.9555 0.8057
C2_3 C 0.7500(2) 0.9468 0.7500
C3_3 C 0.7500(2) 0.8884 0.7500
Zn2_3 Zn 0.706317(16) 0.793683(16) 0.706317(16)
Zn5_3 Zn 0.793683(16) 0.706317(16) 0.706317(16)
O6_3 O 0.71778(13) 0.86635(10) 0.71778(10)
O9_3 O 0.86635(10) 0.78222(10) 0.78222(13)
O10_3 O 0.86635(10) 0.71778(10) 0.71778(13)
O17_3 O 0.63365(10) 0.78222(10) 0.71778(13)
O18_3 O 0.71778(10) 0.78222(13) 0.63365(10)
O23_3 O 0.78222(13) 0.63365(10) 0.71778(10)
O24_3 O 0.78222(10) 0.71778(13) 0.63365(10)
O25_3 O 0.71778(13) 0.63365(10) 0.78222(10)
O26_3 O 0.63365(10) 0.71778(10) 0.78222(13)
O32_2 O 0.36635(10) 0.78222(13) 0.71778(10)
O33_3 O 0.36635(10) 0.71778(13) 0.78222(10)
O34_3 O 0.78222(13) 0.71778(10) 0.36635(10)
C6_3 C 0.71696(18) 0.97397(15) 0.71696(15)
C7_3 C 0.97397(15) 0.78304(15) 0.78304(18)
C10_3 C 0.97397(15) 0.71696(15) 0.71696(18)
C15_3 C 0.52603(15) 0.78304(15) 0.71696(18)
C16_3 C 0.52603(15) 0.71696(15) 0.78304(18)
C17_3 C 0.78304(15) 0.71696(18) 0.52603(15)
C18_3 C 0.71696(15) 0.78304(18) 0.52603(15)
C21_3 C 0.47397(15) 0.78304(18) 0.71696(15)
C22_3 C 0.47397(15) 0.71696(18) 0.78304(15)
C23_3 C 0.78304(18) 0.71696(15) 0.47397(15)
C24_3 C 0.71696(18) 0.78304(15) 0.47397(15)
H4_3 H 0.6943 0.9555 0.6943
H5_3 H 0.9555 0.8057 0.8057
H8_3 H 0.9555 0.6943 0.6943
H13_3 H 0.5445 0.8057 0.6943
H14_3 H 0.5445 0.6943 0.8057
H15_3 H 0.8057 0.6943 0.5445
H16_3 H 0.6943 0.8057 0.5445
H19_3 H 0.4555 0.8057 0.6943
H20_3 H 0.4555 0.6943 0.8057
H21_3 H 0.8057 0.6943 0.4555
H22_3 H 0.6943 0.8057 0.4555
C28_3 C 0.9468 0.7500 0.7500(2)
C32_3 C 0.5532 0.7500 0.7500(2)
C33_3 C 0.7500 0.7500(2) 0.5532
C35_3 C 0.4468 0.7500(2) 0.7500
C36_3 C 0.7500(2) 0.7500 0.4468
C39_3 C 0.8884 0.7500 0.7500(2)
C43_3 C 0.6116 0.7500 0.7500(2)
C44_3 C 0.7500 0.7500(2) 0.6116
C46_3 C 0.3884 0.7500(2) 0.7500
C47_3 C 0.7500(2) 0.7500 0.3884
O1_4 O 0.2500 0.2500 0.7500
O2_4 O 0.21778(13) 0.13365(10) 0.78222(10)
C1_4 C 0.21696(18) 0.02603(15) 0.78304(15)
H1_4 H 0.1943 0.0445 0.8057
C2_4 C 0.2500(2) 0.0532 0.7500
C3_4 C 0.2500(2) 0.1116 0.7500
Zn2_4 Zn 0.293683(16) 0.206317(16) 0.706317(16)
Zn5_4 Zn 0.206317(16) 0.293683(16) 0.706317(16)
O6_4 O 0.28222(13) 0.13365(10) 0.71778(10)
O9_4 O 0.13365(10) 0.21778(10) 0.78222(13)
O10_4 O 0.13365(10) 0.28222(10) 0.71778(13)
O17_4 O 0.36635(10) 0.21778(10) 0.71778(13)
O18_4 O 0.28222(10) 0.21778(13) 0.63365(10)
O23_4 O 0.21778(13) 0.36635(10) 0.71778(10)
O24_4 O 0.21778(10) 0.28222(13) 0.63365(10)
O25_4 O 0.28222(13) 0.36635(10) 0.78222(10)
O26_4 O 0.36635(10) 0.28222(10) 0.78222(13)
O33_4 O 0.63365(10) 0.28222(13) 0.78222(10)
O34_4 O 0.21778(13) 0.28222(10) 0.36635(10)
C6_4 C 0.28304(18) 0.02603(15) 0.71696(15)
C7_4 C 0.02603(15) 0.21696(15) 0.78304(18)
C10_4 C 0.02603(15) 0.28304(15) 0.71696(18)
C15_4 C 0.47397(15) 0.21696(15) 0.71696(18)
C16_4 C 0.47397(15) 0.28304(15) 0.78304(18)
C17_4 C 0.21696(15) 0.28304(18) 0.52603(15)
C18_4 C 0.28304(15) 0.21696(18) 0.52603(15)
C21_4 C 0.52603(15) 0.21696(18) 0.71696(15)
C22_4 C 0.52603(15) 0.28304(18) 0.78304(15)
C23_4 C 0.21696(18) 0.28304(15) 0.47397(15)
C24_4 C 0.28304(18) 0.21696(15) 0.47397(15)
H4_4 H 0.3057 0.0445 0.6943
H5_4 H 0.0445 0.1943 0.8057
H8_4 H 0.0445 0.3057 0.6943
H13_4 H 0.4555 0.1943 0.6943
H14_4 H 0.4555 0.3057 0.8057
H15_4 H 0.1943 0.3057 0.5445
H16_4 H 0.3057 0.1943 0.5445
H19_4 H 0.5445 0.1943 0.6943
H20_4 H 0.5445 0.3057 0.8057
H21_4 H 0.1943 0.3057 0.4555
H22_4 H 0.3057 0.1943 0.4555
C28_4 C 0.0532 0.2500 0.7500(2)
C32_4 C 0.4468 0.2500 0.7500(2)
C33_4 C 0.2500 0.2500(2) 0.5532
C35_4 C 0.5532 0.2500(2) 0.7500
C36_4 C 0.2500(2) 0.2500 0.4468
C39_4 C 0.1116 0.2500 0.7500(2)
C43_4 C 0.3884 0.2500 0.7500(2)
C44_4 C 0.2500 0.2500(2) 0.6116
C46_4 C 0.6116 0.2500(2) 0.7500
C47_4 C 0.2500(2) 0.2500 0.3884
O8_4 O 0.28222(10) 0.86635(10) 0.71778(13)
C4_4 C 0.21696(15) 0.97397(15) 0.78304(18)
C5_4 C 0.28304(15) 0.97397(15) 0.71696(18)
H2_4 H 0.1943 0.9555 0.8057
H3_4 H 0.3057 0.9555 0.6943
C27_4 C 0.2500 0.9468 0.7500(2)
C38_4 C 0.2500 0.8884 0.7500(2)
O12_4 O 0.86635(10) 0.28222(13) 0.71778(10)
C8_4 C 0.97397(15) 0.21696(18) 0.78304(15)
C9_4 C 0.97397(15) 0.28304(18) 0.71696(15)
H6_4 H 0.9555 0.1943 0.8057
H7_4 H 0.9555 0.3057 0.6943
C29_4 C 0.9468 0.2500(2) 0.7500
C40_4 C 0.8884 0.2500(2) 0.7500
O22_3 O 0.28222(10) 0.36635(10) 0.21778(13)
O32_3 O 0.28222(10) 0.63365(10) 0.78222(13)
O33_5 O 0.21778(10) 0.63365(10) 0.71778(13)
C15_5 C 0.28304(18) 0.47397(15) 0.78304(15)
C16_5 C 0.21696(18) 0.47397(15) 0.71696(15)
C21_5 C 0.28304(15) 0.52603(15) 0.78304(18)
C22_5 C 0.21696(15) 0.52603(15) 0.71696(18)
H13_5 H 0.3057 0.4555 0.8057
H14_5 H 0.1943 0.4555 0.6943
H19_5 H 0.3057 0.5445 0.8057
H20_5 H 0.1943 0.5445 0.6943
C32_5 C 0.2500(2) 0.4468 0.7500
C35_5 C 0.2500 0.5532 0.7500(2)
C43_5 C 0.2500(2) 0.3884 0.7500
C46_5 C 0.2500 0.6116 0.7500(2)
O33_6 O 0.21778(10) 0.36635(10) 0.28222(13)
C15_6 C 0.28304(18) 0.52603(15) 0.21696(15)
C16_6 C 0.21696(18) 0.52603(15) 0.28304(15)
C21_6 C 0.28304(15) 0.47397(15) 0.21696(18)
C22_6 C 0.21696(15) 0.47397(15) 0.28304(18)
H13_6 H 0.3057 0.5445 0.1943
H14_6 H 0.1943 0.5445 0.3057
H19_6 H 0.3057 0.4555 0.1943
H20_6 H 0.1943 0.4555 0.3057
C32_6 C 0.2500(2) 0.5532 0.2500
C35_6 C 0.2500 0.4468 0.2500(2)
C43_6 C 0.2500(2) 0.6116 0.2500
C46_6 C 0.2500 0.3884 0.2500(2)
O22_4 O 0.71778(10) 0.63365(10) 0.21778(13)
O32_4 O 0.71778(10) 0.36635(10) 0.78222(13)
O33_7 O 0.78222(10) 0.36635(10) 0.71778(13)
C15_7 C 0.71696(18) 0.52603(15) 0.78304(15)
C16_7 C 0.78304(18) 0.52603(15) 0.71696(15)
C21_7 C 0.71696(15) 0.47397(15) 0.78304(18)
C22_7 C 0.78304(15) 0.47397(15) 0.71696(18)
H13_7 H 0.6943 0.5445 0.8057
H14_7 H 0.8057 0.5445 0.6943
H19_7 H 0.6943 0.4555 0.8057
H20_7 H 0.8057 0.4555 0.6943
C32_7 C 0.7500(2) 0.5532 0.7500
C35_7 C 0.7500 0.4468 0.7500(2)
C43_7 C 0.7500(2) 0.6116 0.7500
C46_7 C 0.7500 0.3884 0.7500(2)
O33_8 O 0.78222(10) 0.63365(10) 0.28222(13)
C15_8 C 0.71696(18) 0.47397(15) 0.21696(15)
C16_8 C 0.78304(18) 0.47397(15) 0.28304(15)
C21_8 C 0.71696(15) 0.52603(15) 0.21696(18)
C22_8 C 0.78304(15) 0.52603(15) 0.28304(18)
H13_8 H 0.6943 0.4555 0.1943
H14_8 H 0.8057 0.4555 0.3057
H19_8 H 0.6943 0.5445 0.1943
H20_8 H 0.8057 0.5445 0.3057
C32_8 C 0.7500(2) 0.4468 0.2500
C35_8 C 0.7500 0.5532 0.2500(2)
C43_8 C 0.7500(2) 0.3884 0.2500
C46_8 C 0.7500 0.6116 0.2500(2)
loop_
_geom_bond_atom_site_label_1
_geom_bond_atom_site_label_2
_geom_bond_site_symmetry_1
_geom_bond_site_symmetry_2
Zn3 O3 1_555 1_555
Zn4 O3 1_555 1_555
Zn11 O3 1_555 1_555
Zn12 O3 1_555 1_555
O7 Zn3 1_555 1_555
O8 Zn4 1_555 1_555
O19 Zn3 1_555 1_555
O20 Zn3 1_555 1_555
O21 Zn4 1_555 1_555
O22 Zn4 1_555 1_555
O31 Zn12 1_555 1_555
H2 C4 1_555 1_555
H3 C5 1_555 1_555
H17 C19 1_555 1_555
H18 C20 1_555 1_555
C27 C4 1_555 1_555
C34 C19 1_555 1_555
C38 O7 1_555 1_555
C45 O19 1_555 1_555
O8 C38 1_555 1_555
O31 C45 1_555 1_555
C5 C27 1_555 1_555
C20 C34 1_555 1_555
C27 C38 1_555 1_555
C34 C45 1_555 1_555
Zn17 O36 1_555 1_555
Zn18 O37 1_555 1_555
O36 C48 1_555 1_555
O37 C48 1_555 1_555
C25 H23 1_555 1_555
C26 H24 1_555 1_555
C37 C25 1_555 1_555
C48 C37 1_555 1_555
C26 C37 1_555 1_555
Zn1 O1 1_555 1_555
O1 Zn2 1_555 1_555
O2 Zn1 1_555 1_555
C1 H1 1_555 1_555
C2 C1 1_555 1_555
C3 O2 1_555 1_555
Zn2 O6 1_555 1_555
Zn5 O1 1_555 1_555
Zn6 O1 1_555 1_555
Zn13 O32 1_555 1_555
Zn14 O33 1_555 1_555
Zn15 O34 1_555 1_555
Zn16 O35 1_555 1_555
O6 C3 1_555 1_555
O9 Zn1 1_555 1_555
O10 Zn5 1_555 1_555
O13 Zn1 1_555 1_555
O14 Zn6 1_555 1_555
O17 Zn2 1_555 1_555
O18 Zn2 1_555 1_555
O23 Zn5 1_555 1_555
O24 Zn5 1_555 1_555
O25 Zn6 1_555 1_555
O26 Zn6 1_555 1_555
O32 C46 1_555 1_555
O33 C46 1_555 1_555
O34 C47 1_555 1_555
O35 C47 1_555 1_555
C6 C2 1_555 1_555
C10 H8 1_555 1_555
C14 H12 1_555 1_555
C15 C21 1_555 1_555
C16 C22 1_555 1_555
C17 C23 1_555 1_555
C18 C24 1_555 1_555
C21 H19 1_555 1_555
C22 H20 1_555 1_555
C23 H21 1_555 1_555
C24 H22 1_555 1_555
H4 C6 1_555 1_555
H5 C7 1_555 1_555
H9 C11 1_555 1_555
H13 C15 1_555 1_555
H14 C16 1_555 1_555
H15 C17 1_555 1_555
H16 C18 1_555 1_555
C28 C7 1_555 1_555
C30 C11 1_555 1_555
C32 C15 1_555 1_555
C33 C17 1_555 1_555
C35 C21 1_555 1_555
C36 C23 1_555 1_555
C39 O9 1_555 1_555
C41 O13 1_555 1_555
C43 O17 1_555 1_555
C44 O18 1_555 1_555
C46 C35 1_555 1_555
C47 C36 1_555 1_555
C2 C3 1_555 1_555
O10 C39 1_555 1_555
O14 C41 1_555 1_555
O24 C44 1_555 1_555
O26 C43 1_555 1_555
C10 C28 1_555 1_555
C14 C30 1_555 1_555
C16 C32 1_555 1_555
C18 C33 1_555 1_555
C22 C35 1_555 1_555
C24 C36 1_555 1_555
C28 C39 1_555 1_555
C30 C41 1_555 1_555
C32 C43 1_555 1_555
C33 C44 1_555 1_555
Zn9 O5 1_555 1_555
Zn10 O5 1_555 1_555
O15 Zn9 1_555 1_555
O16 Zn10 1_555 1_555
O29 Zn9 1_555 1_555
O30 Zn9 1_555 1_555
C12 H10 1_555 1_555
H11 C13 1_555 1_555
C31 C12 1_555 1_555
C42 O15 1_555 1_555
O16 C42 1_555 1_555
C13 C31 1_555 1_555
C31 C42 1_555 1_555
Zn7 O4 1_555 1_555
Zn8 O4 1_555 1_555
O11 Zn7 1_555 1_555
O12 Zn8 1_555 1_555
O27 Zn7 1_555 1_555
O28 Zn7 1_555 1_555
C8 H6 1_555 1_555
H7 C9 1_555 1_555
C29 C8 1_555 1_555
C40 O11 1_555 1_555
O12 C40 1_555 1_555
C9 C29 1_555 1_555
C29 C40 1_555 1_555
O12_2 Zn11 1_555 1_555
C8_2 H6_2 1_555 1_555
H7_2 C9_2 1_555 1_555
C29_2 C8_2 1_555 1_555
C40_2 O20 1_555 1_555
O12_2 C40_2 1_555 1_555
C9_2 C29_2 1_555 1_555
C29_2 C40_2 1_555 1_555
Zn1_2 O1_2 1_555 1_555
O1_2 Zn2_2 1_555 1_555
O2_2 Zn1_2 1_555 1_555
C1_2 H1_2 1_555 1_555
C2_2 C1_2 1_555 1_555
C3_2 O2_2 1_555 1_555
Zn2_2 O6_2 1_555 1_555
Zn5_2 O1_2 1_555 1_555
Zn6_2 O1_2 1_555 1_555
Zn12 O33_2 1_555 1_555
Zn15_2 O34_2 1_555 1_555
Zn16_2 O35_2 1_555 1_555
O6_2 C3_2 1_555 1_555
O9_2 Zn1_2 1_555 1_555
O10_2 Zn5_2 1_555 1_555
O13_2 Zn1_2 1_555 1_555
O14_2 Zn6_2 1_555 1_555
O17_2 Zn2_2 1_555 1_555
O18_2 Zn2_2 1_555 1_555
O23_2 Zn5_2 1_555 1_555
O24_2 Zn5_2 1_555 1_555
O25_2 Zn6_2 1_555 1_555
O26_2 Zn6_2 1_555 1_555
O22 C46_2 1_555 1_555
O33_2 C46_2 1_555 1_555
O34_2 C47_2 1_555 1_555
O35_2 C47_2 1_555 1_555
C6_2 C2_2 1_555 1_555
C10_2 H8_2 1_555 1_555
C14_2 H12_2 1_555 1_555
C15_2 C21_2 1_555 1_555
C16_2 C22_2 1_555 1_555
C17_2 C23_2 1_555 1_555
C18_2 C24_2 1_555 1_555
C21_2 H19_2 1_555 1_555
C22_2 H20_2 1_555 1_555
C23_2 H21_2 1_555 1_555
C24_2 H22_2 1_555 1_555
H4_2 C6_2 1_555 1_555
H5_2 C7_2 1_555 1_555
H9_2 C11_2 1_555 1_555
H13_2 C15_2 1_555 1_555
H14_2 C16_2 1_555 1_555
H15_2 C17_2 1_555 1_555
H16_2 C18_2 1_555 1_555
C28_2 C7_2 1_555 1_555
C30_2 C11_2 1_555 1_555
C32_2 C15_2 1_555 1_555
C33_2 C17_2 1_555 1_555
C35_2 C21_2 1_555 1_555
C36_2 C23_2 1_555 1_555
C39_2 O9_2 1_555 1_555
C41_2 O13_2 1_555 1_555
C43_2 O17_2 1_555 1_555
C44_2 O18_2 1_555 1_555
C46_2 C35_2 1_555 1_555
C47_2 C36_2 1_555 1_555
C2_2 C3_2 1_555 1_555
O10_2 C39_2 1_555 1_555
O14_2 C41_2 1_555 1_555
O24_2 C44_2 1_555 1_555
O26_2 C43_2 1_555 1_555
C10_2 C28_2 1_555 1_555
C14_2 C30_2 1_555 1_555
C16_2 C32_2 1_555 1_555
C18_2 C33_2 1_555 1_555
C22_2 C35_2 1_555 1_555
C24_2 C36_2 1_555 1_555
C28_2 C39_2 1_555 1_555
C30_2 C41_2 1_555 1_555
C32_2 C43_2 1_555 1_555
C33_2 C44_2 1_555 1_555
Zn9_2 O5_2 1_555 1_555
Zn10_2 O5_2 1_555 1_555
O15_2 Zn9_2 1_555 1_555
O16_2 Zn10_2 1_555 1_555
O29_2 Zn9_2 1_555 1_555
O30_2 Zn9_2 1_555 1_555
C12_2 H10_2 1_555 1_555
H11_2 C13_2 1_555 1_555
C31_2 C12_2 1_555 1_555
C42_2 O15_2 1_555 1_555
O16_2 C42_2 1_555 1_555
C13_2 C31_2 1_555 1_555
C31_2 C42_2 1_555 1_555
Zn13 O4 1_555 1_555
Zn14 O4 1_555 1_555
O8_2 Zn13 1_555 1_555
O21_2 Zn13 1_555 1_555
O31_2 Zn14 1_555 1_555
H2_2 C4_2 1_555 1_555
H3_2 C5_2 1_555 1_555
H17_2 C19_2 1_555 1_555
H18_2 C20_2 1_555 1_555
C27_2 C4_2 1_555 1_555
C34_2 C19_2 1_555 1_555
C38_2 O28 1_555 1_555
C45_2 O27 1_555 1_555
O8_2 C38_2 1_555 1_555
O31_2 C45_2 1_555 1_555
C5_2 C27_2 1_555 1_555
C20_2 C34_2 1_555 1_555
C27_2 C38_2 1_555 1_555
C34_2 C45_2 1_555 1_555
Zn17_2 O36_2 1_555 1_555
Zn18_2 O37_2 1_555 1_555
O36_2 C48_2 1_555 1_555
O37_2 C48_2 1_555 1_555
C25_2 H23_2 1_555 1_555
C26_2 H24_2 1_555 1_555
C37_2 C25_2 1_555 1_555
C48_2 C37_2 1_555 1_555
C26_2 C37_2 1_555 1_555
Zn15 O5 1_555 1_555
O12_3 Zn15 1_555 1_555
C8_3 H6_3 1_555 1_555
H7_3 C9_3 1_555 1_555
C29_3 C8_3 1_555 1_555
C40_3 O29 1_555 1_555
O12_3 C40_3 1_555 1_555
C9_3 C29_3 1_555 1_555
C29_3 C40_3 1_555 1_555
Zn16_2 O5_2 1_555 1_555
Zn15_2 O5_2 1_555 1_555
O8_3 Zn16_2 1_555 1_555
O22_2 Zn16_2 1_555 1_555
H2_3 C4_3 1_555 1_555
H3_3 C5_3 1_555 1_555
C27_3 C4_3 1_555 1_555
C38_3 O30_2 1_555 1_555
O8_3 C38_3 1_555 1_555
C5_3 C27_3 1_555 1_555
C27_3 C38_3 1_555 1_555
Zn17_2 O1_3 1_555 1_555
O1_3 Zn2_3 1_555 1_555
O2_3 Zn17_2 1_555 1_555
C1_3 H1_3 1_555 1_555
C2_3 C1_3 1_555 1_555
C3_3 O2_3 1_555 1_555
Zn2_3 O6_3 1_555 1_555
Zn5_3 O1_3 1_555 1_555
Zn18_2 O1_3 1_555 1_555
Zn16 O32_2 1_555 1_555
Zn10 O33_3 1_555 1_555
Zn8 O34_3 1_555 1_555
O6_3 C3_3 1_555 1_555
O9_3 Zn17_2 1_555 1_555
O10_3 Zn5_3 1_555 1_555
O17_3 Zn2_3 1_555 1_555
O18_3 Zn2_3 1_555 1_555
O23_3 Zn5_3 1_555 1_555
O24_3 Zn5_3 1_555 1_555
O25_3 Zn18_2 1_555 1_555
O26_3 Zn18_2 1_555 1_555
O32_2 C46_3 1_555 1_555
O33_3 C46_3 1_555 1_555
O34_3 C47_3 1_555 1_555
O21_2 C47_3 1_555 1_555
C6_3 C2_3 1_555 1_555
C10_3 H8_3 1_555 1_555
C15_3 C21_3 1_555 1_555
C16_3 C22_3 1_555 1_555
C17_3 C23_3 1_555 1_555
C18_3 C24_3 1_555 1_555
C21_3 H19_3 1_555 1_555
C22_3 H20_3 1_555 1_555
C23_3 H21_3 1_555 1_555
C24_3 H22_3 1_555 1_555
H4_3 C6_3 1_555 1_555
H5_3 C7_3 1_555 1_555
H13_3 C15_3 1_555 1_555
H14_3 C16_3 1_555 1_555
H15_3 C17_3 1_555 1_555
H16_3 C18_3 1_555 1_555
C28_3 C7_3 1_555 1_555
C32_3 C15_3 1_555 1_555
C33_3 C17_3 1_555 1_555
C35_3 C21_3 1_555 1_555
C36_3 C23_3 1_555 1_555
C39_3 O9_3 1_555 1_555
C43_3 O17_3 1_555 1_555
C44_3 O18_3 1_555 1_555
C46_3 C35_3 1_555 1_555
C47_3 C36_3 1_555 1_555
C2_3 C3_3 1_555 1_555
O10_3 C39_3 1_555 1_555
O24_3 C44_3 1_555 1_555
O26_3 C43_3 1_555 1_555
C10_3 C28_3 1_555 1_555
C16_3 C32_3 1_555 1_555
C18_3 C33_3 1_555 1_555
C22_3 C35_3 1_555 1_555
C24_3 C36_3 1_555 1_555
C28_3 C39_3 1_555 1_555
C32_3 C43_3 1_555 1_555
C33_3 C44_3 1_555 1_555
Zn17 O1_4 1_555 1_555
O1_4 Zn2_4 1_555 1_555
O2_4 Zn17 1_555 1_555
C1_4 H1_4 1_555 1_555
C2_4 C1_4 1_555 1_555
C3_4 O2_4 1_555 1_555
Zn2_4 O6_4 1_555 1_555
Zn5_4 O1_4 1_555 1_555
Zn18 O1_4 1_555 1_555
Zn10_2 O33_4 1_555 1_555
Zn11 O34_4 1_555 1_555
O6_4 C3_4 1_555 1_555
O9_4 Zn17 1_555 1_555
O10_4 Zn5_4 1_555 1_555
O17_4 Zn2_4 1_555 1_555
O18_4 Zn2_4 1_555 1_555
O23_4 Zn5_4 1_555 1_555
O24_4 Zn5_4 1_555 1_555
O25_4 Zn18 1_555 1_555
O26_4 Zn18 1_555 1_555
O22_2 C46_4 1_555 1_555
O33_4 C46_4 1_555 1_555
O34_4 C47_4 1_555 1_555
O21 C47_4 1_555 1_555
C6_4 C2_4 1_555 1_555
C10_4 H8_4 1_555 1_555
C15_4 C21_4 1_555 1_555
C16_4 C22_4 1_555 1_555
C17_4 C23_4 1_555 1_555
C18_4 C24_4 1_555 1_555
C21_4 H19_4 1_555 1_555
C22_4 H20_4 1_555 1_555
C23_4 H21_4 1_555 1_555
C24_4 H22_4 1_555 1_555
H4_4 C6_4 1_555 1_555
H5_4 C7_4 1_555 1_555
H13_4 C15_4 1_555 1_555
H14_4 C16_4 1_555 1_555
H15_4 C17_4 1_555 1_555
H16_4 C18_4 1_555 1_555
C28_4 C7_4 1_555 1_555
C32_4 C15_4 1_555 1_555
C33_4 C17_4 1_555 1_555
C35_4 C21_4 1_555 1_555
C36_4 C23_4 1_555 1_555
C39_4 O9_4 1_555 1_555
C43_4 O17_4 1_555 1_555
C44_4 O18_4 1_555 1_555
C46_4 C35_4 1_555 1_555
C47_4 C36_4 1_555 1_555
C2_4 C3_4 1_555 1_555
O10_4 C39_4 1_555 1_555
O24_4 C44_4 1_555 1_555
O26_4 C43_4 1_555 1_555
C10_4 C28_4 1_555 1_555
C16_4 C32_4 1_555 1_555
C18_4 C33_4 1_555 1_555
C22_4 C35_4 1_555 1_555
C24_4 C36_4 1_555 1_555
C28_4 C39_4 1_555 1_555
C32_4 C43_4 1_555 1_555
C33_4 C44_4 1_555 1_555
Zn16 O5 1_555 1_555
O8_4 Zn16 1_555 1_555
H2_4 C4_4 1_555 1_555
H3_4 C5_4 1_555 1_555
C27_4 C4_4 1_555 1_555
C38_4 O30 1_555 1_555
O8_4 C38_4 1_555 1_555
C5_4 C27_4 1_555 1_555
C27_4 C38_4 1_555 1_555
O12_4 Zn15_2 1_555 1_555
C8_4 H6_4 1_555 1_555
H7_4 C9_4 1_555 1_555
C29_4 C8_4 1_555 1_555
C40_4 O29_2 1_555 1_555
O12_4 C40_4 1_555 1_555
C9_4 C29_4 1_555 1_555
C29_4 C40_4 1_555 1_555
O22_3 Zn12 1_555 1_555
Zn10 O32_3 1_555 1_555
Zn15 O33_5 1_555 1_555
O32_3 C46_5 1_555 1_555
O33_5 C46_5 1_555 1_555
C15_5 C21_5 1_555 1_555
C16_5 C22_5 1_555 1_555
C21_5 H19_5 1_555 1_555
C22_5 H20_5 1_555 1_555
H13_5 C15_5 1_555 1_555
H14_5 C16_5 1_555 1_555
C32_5 C15_5 1_555 1_555
C35_5 C21_5 1_555 1_555
C43_5 O25_4 1_555 1_555
C46_5 C35_5 1_555 1_555
O23_4 C43_5 1_555 1_555
C16_5 C32_5 1_555 1_555
C22_5 C35_5 1_555 1_555
C32_5 C43_5 1_555 1_555
Zn11 O33_6 1_555 1_555
O22_3 C46_6 1_555 1_555
O33_6 C46_6 1_555 1_555
C15_6 C21_6 1_555 1_555
C16_6 C22_6 1_555 1_555
C21_6 H19_6 1_555 1_555
C22_6 H20_6 1_555 1_555
H13_6 C15_6 1_555 1_555
H14_6 C16_6 1_555 1_555
C32_6 C15_6 1_555 1_555
C35_6 C21_6 1_555 1_555
C43_6 O25 1_555 1_555
C46_6 C35_6 1_555 1_555
O23 C43_6 1_555 1_555
C16_6 C32_6 1_555 1_555
C22_6 C35_6 1_555 1_555
C32_6 C43_6 1_555 1_555
O22_4 Zn14 1_555 1_555
Zn10_2 O32_4 1_555 1_555
Zn15_2 O33_7 1_555 1_555
O32_4 C46_7 1_555 1_555
O33_7 C46_7 1_555 1_555
C15_7 C21_7 1_555 1_555
C16_7 C22_7 1_555 1_555
C21_7 H19_7 1_555 1_555
C22_7 H20_7 1_555 1_555
H13_7 C15_7 1_555 1_555
H14_7 C16_7 1_555 1_555
C32_7 C15_7 1_555 1_555
C35_7 C21_7 1_555 1_555
C43_7 O25_3 1_555 1_555
C46_7 C35_7 1_555 1_555
O23_3 C43_7 1_555 1_555
C16_7 C32_7 1_555 1_555
C22_7 C35_7 1_555 1_555
C32_7 C43_7 1_555 1_555
Zn8 O33_8 1_555 1_555
O22_4 C46_8 1_555 1_555
O33_8 C46_8 1_555 1_555
C15_8 C21_8 1_555 1_555
C16_8 C22_8 1_555 1_555
C21_8 H19_8 1_555 1_555
C22_8 H20_8 1_555 1_555
H13_8 C15_8 1_555 1_555
H14_8 C16_8 1_555 1_555
C32_8 C15_8 1_555 1_555
C35_8 C21_8 1_555 1_555
C43_8 O25_2 1_555 1_555
C46_8 C35_8 1_555 1_555
O23_2 C43_8 1_555 1_555
C16_8 C32_8 1_555 1_555
C22_8 C35_8 1_555 1_555
C32_8 C43_8 1_555 1_555

#END
