
###############################################################################
#
# This file contains modified crystal structure data generated from the
# MOF subset of the Cambridge Structural Database (CSD) v543 
# hosted by the Cambridge Crystallographic Data Centre (CCDC).
#
# This work is licensed under the Creative Commons
# Attribution-NonCommercial-ShareAlike 4.0 International License.
# To view a copy of this license, visit
# http://creativecommons.org/licenses/by-nc-sa/4.0/
# or send a letter to
# Creative Commons, PO Box 1866, Mountain View, CA 94042, USA.
#
# CIF created using the CSD Python API on 29 September 2022
# The structure has been converted into the P1 space group
# The structure has a 3D framework
# The original CSD entry UNIPEN is in the orthorhombic crystal system
# The original CSD entry UNIPEN is in a Sohncke space group
# The framework has been calculated to contain at least 10.0% void space
# The void calculation uses a probe of radius 1.32A, grid spacing 0.4
#
###############################################################################

data_UNIPEN
_chemical_formula_moiety         '(C152 H136 Cd4 N16 O16)n'
_symmetry_cell_setting           triclinic
_symmetry_space_group_name_H-M   'P 1'
_symmetry_Int_Tables_number      1
_space_group_name_Hall           'P 1'
loop_
_symmetry_equiv_pos_site_id
_symmetry_equiv_pos_as_xyz
1 x,y,z
_cell_length_a                   10.4451(6)
_cell_length_b                   12.4548(10)
_cell_length_c                   28.6487(17)
_cell_angle_alpha                90
_cell_angle_beta                 90
_cell_angle_gamma                90
_cell_volume                     3726.96
loop_
_atom_site_label
_atom_site_type_symbol
_atom_site_fract_x
_atom_site_fract_y
_atom_site_fract_z
C16 C 0.1352(12) 0.0228(10) 0.0049(5)
H10 H 0.2116 0.0551 0.0140
C13 C 0.0439(11) 0.0833(10) 0.9828(4)
H7 H 0.0608 0.1554 0.9769
C17 C 0.1166(12) 0.9143(9) 0.0141(5)
C18 C 0.2100(10) 0.8491(11) 0.0382(4)
H11 H 0.2817 0.8946 0.0467
H12 H 0.2417 0.7954 0.0166
C19 C 0.1644(14) 0.7935(11) 0.0809(5)
H13 H 0.0973 0.7435 0.0721
H14 H 0.2346 0.7520 0.0937
C20 C 0.1150(14) 0.8647(12) 0.1173(5)
H15 H 0.0588 0.9167 0.1027
H16 H 0.1867 0.9040 0.1304
C21 C 0.0428(15) 0.8127(12) 0.1572(6)
C24 C 0.0698(15) 0.8227(13) 0.2029(5)
H19 H 0.1416 0.8612 0.2123
H20 H 0.0118 0.7949 0.2657
C1 C 0.6099(10) 0.0595(10) 0.0052(4)
C2 C 0.5555(10) 0.0054(8) 0.0476(3)
C3 C 0.4802(10) 0.0585(8) 0.0805(3)
C4 C 0.4463(11) 0.0123(9) 0.1212(4)
H1 H 0.4013 0.0509 0.1436
C12 C 0.4226(10) 0.1703(10) 0.0727(4)
O2 O 0.6600(6) 0.1508(7) 0.0113(2)
O3 O 0.3754(7) 0.1884(6) 0.0326(3)
O4 O 0.4209(8) 0.2363(7) 0.1044(3)
Cd3 Cd 0.26681(7) 0.34829(6) 0.06091(2)
Cd1 Cd 0.76681(7) 0.15171(6) 0.93909(2)
C26 C 0.1374(14) 0.5524(11) 0.6571(5)
H21 H 0.0589 0.5732 0.6447
C27 C 0.1444(19) 0.5191(13) 0.7045(6)
H22 H 0.0721 0.5270 0.7231
C28 C 0.3431(12) 0.5165(12) 0.6496(6)
H23 H 0.4155 0.5160 0.6308
C29 C 0.3565(16) 0.4773(15) 0.6945(5)
H24 H 0.4340 0.4512 0.7057
C30 C 0.2431(17) 0.4796(14) 0.7225(4)
C31 C 0.265(2) 0.4222(15) 0.7710(5)
H25 H 0.1904 0.3801 0.7793
H26 H 0.3383 0.3744 0.7691
C32 C 0.289(2) 0.5077(15) 0.8074(5)
H27 H 0.3700 0.5428 0.8016
H28 H 0.2216 0.5614 0.8061
C33 C 0.2901(16) 0.4552(14) 0.8546(4)
H29 H 0.2120 0.4134 0.8570
H30 H 0.2837 0.5123 0.8775
C34 C 0.4019(13) 0.3808(10) 0.8704(4)
C35 C 0.5200(13) 0.3725(10) 0.8494(4)
H31 H 0.5364 0.4108 0.8222
C36 C 0.6102(13) 0.3110(11) 0.8674(4)
H32 H 0.6882 0.3079 0.8518
C37 C 0.3870(12) 0.3218(11) 0.9098(4)
H33 H 0.3093 0.3240 0.9256
C38 C 0.4864(11) 0.2574(10) 0.9270(3)
H34 H 0.4724 0.2170 0.9539
N1 N 0.9294(8) 0.0414(8) 0.9692(3)
N3 N 0.5983(10) 0.2522(8) 0.9066(4)
N4 N 0.2365(10) 0.5544(7) 0.6312(3)
O1 O 0.6137(8) 0.0112(7) 0.9667(3)
Cd2 Cd 0.23319(7) 0.65171(6) 0.56091(2)
N5 N 0.7635(10) 0.0544(7) 0.8688(3)
O5 O 0.8754(7) 0.3116(6) 0.9674(3)
O6 O 0.9209(8) 0.2637(7) 0.8956(3)
C3_2 C 0.0198(10) 0.9415(8) 0.5805(3)
C4_2 C 0.0537(11) 0.9877(9) 0.6212(4)
H1_2 H 0.0987 0.9491 0.6436
C12_2 C 0.0774(10) 0.8297(10) 0.5727(4)
C26_2 C 0.3626(14) 0.4476(11) 0.1571(5)
H21_2 H 0.4411 0.4268 0.1447
C27_2 C 0.3556(19) 0.4809(13) 0.2045(6)
H22_2 H 0.4279 0.4730 0.2231
C28_2 C 0.1569(12) 0.4835(12) 0.1496(6)
H23_2 H 0.0845 0.4840 0.1308
C29_2 C 0.1435(16) 0.5227(15) 0.1945(5)
H24_2 H 0.0660 0.5488 0.2057
C30_2 C 0.2569(17) 0.5204(14) 0.2225(4)
C31_2 C 0.235(2) 0.5778(15) 0.2710(5)
H25_2 H 0.3096 0.6199 0.2793
H26_2 H 0.1617 0.6256 0.2691
C32_2 C 0.211(2) 0.4923(15) 0.3074(5)
H27_2 H 0.1300 0.4572 0.3016
H28_2 H 0.2784 0.4386 0.3061
C33_2 C 0.2099(16) 0.5448(14) 0.3546(4)
H29_2 H 0.2880 0.5866 0.3570
H30_2 H 0.2163 0.4877 0.3775
C34_2 C 0.0981(13) 0.6192(10) 0.3704(4)
C37_2 C 0.1130(12) 0.6782(11) 0.4098(4)
H33_2 H 0.1907 0.6760 0.4256
C38_2 C 0.0136(11) 0.7426(10) 0.4270(3)
H34_2 H 0.0276 0.7830 0.4539
N4_2 N 0.2635(10) 0.4456(7) 0.1312(3)
O3_2 O 0.1246(7) 0.8116(6) 0.5326(3)
O4_2 O 0.0791(8) 0.7637(7) 0.6044(3)
Cd1_2 Cd 0.73319(7) 0.84829(6) 0.43909(2)
C1_2 C 0.8901(10) 0.9405(10) 0.5052(4)
C2_2 C 0.9445(10) 0.9946(8) 0.5476(3)
C13_2 C 0.4561(11) 0.9167(10) 0.4828(4)
H7_2 H 0.4392 0.8446 0.4769
C16_2 C 0.3648(12) 0.9772(10) 0.5049(5)
H10_2 H 0.2884 0.9449 0.5140
C35_2 C 0.9800(13) 0.6275(10) 0.3494(4)
H31_2 H 0.9636 0.5892 0.3222
C36_2 C 0.8898(13) 0.6890(11) 0.3674(4)
H32_2 H 0.8118 0.6921 0.3518
N1_2 N 0.5706(8) 0.9586(8) 0.4692(3)
N3_2 N 0.9017(10) 0.7478(8) 0.4066(4)
O1_2 O 0.8863(8) 0.9888(7) 0.4667(3)
O2_2 O 0.8400(6) 0.8492(7) 0.5113(2)
N5_2 N 0.7365(10) 0.9456(7) 0.3688(3)
O5_2 O 0.6246(7) 0.6884(6) 0.4674(3)
O6_2 O 0.5791(8) 0.7363(7) 0.3956(3)
C26_3 C 0.8626(14) 0.0524(11) 0.8429(5)
H21_3 H 0.9411 0.0732 0.8553
C27_3 C 0.8556(19) 0.0191(13) 0.7955(6)
H22_3 H 0.9279 0.0270 0.7769
C28_3 C 0.6569(12) 0.0165(12) 0.8504(6)
H23_3 H 0.5845 0.0160 0.8692
C32_3 C 0.711(2) 0.0077(15) 0.6926(5)
H27_3 H 0.6300 0.0428 0.6984
H28_3 H 0.7784 0.0614 0.6939
H30_3 H 0.7163 0.0123 0.6225
C1_3 C 0.3901(10) 0.5595(10) 0.4948(4)
C2_3 C 0.4445(10) 0.5054(8) 0.4524(3)
C3_3 C 0.5198(10) 0.5585(8) 0.4195(3)
C4_3 C 0.5537(11) 0.5123(9) 0.3788(4)
H1_3 H 0.5987 0.5509 0.3564
C5 C 0.5195(11) 0.4040(10) 0.3708(4)
C6 C 0.5576(11) 0.3505(12) 0.3277(4)
H2 H 0.6072 0.3860 0.3056
C7 C 0.5192(13) 0.2482(11) 0.3206(5)
H3 H 0.5387 0.2152 0.2923
C8 C 0.4510(12) 0.1904(12) 0.3543(5)
H4 H 0.4303 0.1188 0.3490
C9 C 0.4150(13) 0.2389(10) 0.3949(5)
H5 H 0.3681 0.2011 0.4170
C10 C 0.4498(10) 0.3484(10) 0.4032(4)
C11 C 0.4131(9) 0.4007(8) 0.4447(4)
H6 H 0.3667 0.3632 0.4671
C12_3 C 0.5774(10) 0.6703(10) 0.4273(4)
C14 C 0.0887(11) 0.4397(11) 0.5217(4)
H8 H 0.1657 0.4091 0.5310
C15 C 0.0016(11) 0.3750(9) 0.4993(5)
H9 H 0.0226 0.3038 0.4930
C22 C 0.0661(15) 0.2519(17) 0.3512(6)
H17 H 0.0949 0.2437 0.3817
C23 C 0.1329(16) 0.2031(17) 0.3153(6)
H18 H 0.2037 0.1607 0.3223
C25 C 0.0060(17) 0.2778(15) 0.2652(5)
C29_3 C 0.6435(16) 0.9773(15) 0.8055(5)
H24_3 H 0.5660 0.9512 0.7943
C30_3 C 0.7569(17) 0.9796(14) 0.7775(4)
C31_3 C 0.735(2) 0.9222(15) 0.7290(5)
H25_3 H 0.8096 0.8801 0.7207
H26_3 H 0.6617 0.8744 0.7309
C33_3 C 0.7099(16) 0.9552(14) 0.6454(4)
H29_3 H 0.7880 0.9134 0.6430
C34_3 C 0.5981(13) 0.8808(10) 0.6296(4)
C35_3 C 0.4800(13) 0.8725(10) 0.6506(4)
H31_3 H 0.4636 0.9108 0.6778
C36_3 C 0.3898(13) 0.8110(11) 0.6326(4)
H32_3 H 0.3118 0.8079 0.6482
C37_3 C 0.6130(12) 0.8218(11) 0.5902(4)
H33_3 H 0.6907 0.8240 0.5744
C38_3 C 0.5136(11) 0.7574(10) 0.5730(3)
H34_3 H 0.5276 0.7170 0.5461
N1_3 N 0.0706(8) 0.5414(8) 0.5308(3)
N2 N 0.0978(12) 0.2157(13) 0.2716(5)
N3_3 N 0.4017(10) 0.7522(8) 0.5934(4)
O1_3 O 0.3863(8) 0.5112(7) 0.5333(3)
O2_3 O 0.3400(6) 0.6508(7) 0.4887(2)
C13_3 C 0.5439(11) 0.4167(10) 0.0172(4)
H7_3 H 0.5608 0.3446 0.0231
C14_2 C 0.4113(11) 0.5603(11) 0.0217(4)
H8_2 H 0.3343 0.5909 0.0310
C35_4 C 0.0200(13) 0.1275(10) 0.1506(4)
H31_4 H 0.0364 0.0892 0.1778
C36_4 C 0.1102(13) 0.1890(11) 0.1326(4)
H32_4 H 0.1882 0.1921 0.1482
N1_4 N 0.4294(8) 0.4586(8) 0.0308(3)
N3_4 N 0.0983(10) 0.2478(8) 0.0934(4)
O1_4 O 0.1137(8) 0.4888(7) 0.0333(3)
C3_4 C 0.9802(10) 0.4415(8) 0.9195(3)
C4_4 C 0.9463(11) 0.4877(9) 0.8788(4)
H1_4 H 0.9013 0.4491 0.8564
C5_2 C 0.9805(11) 0.5960(10) 0.8708(4)
C6_2 C 0.9424(11) 0.6495(12) 0.8277(4)
H2_2 H 0.8928 0.6140 0.8056
C7_2 C 0.9808(13) 0.7518(11) 0.8206(5)
H3_2 H 0.9613 0.7848 0.7923
C12_4 C 0.9226(10) 0.3297(10) 0.9273(4)
C26_4 C 0.6374(14) 0.9476(11) 0.3429(5)
H21_4 H 0.5589 0.9268 0.3553
C27_4 C 0.6444(19) 0.9809(13) 0.2955(6)
H22_4 H 0.5721 0.9730 0.2769
C28_4 C 0.8431(12) 0.9835(12) 0.3504(6)
H23_4 H 0.9155 0.9840 0.3692
C32_4 C 0.789(2) 0.9923(15) 0.1926(5)
H27_4 H 0.8700 0.9572 0.1984
H28_4 H 0.7216 0.9386 0.1939
H30_4 H 0.7837 0.9877 0.1225
C5_3 C 0.4805(11) 0.9040(10) 0.1292(4)
C6_3 C 0.4424(11) 0.8505(12) 0.1723(4)
H2_3 H 0.3928 0.8860 0.1944
C7_3 C 0.4808(13) 0.7482(11) 0.1794(5)
H3_3 H 0.4613 0.7152 0.2077
C8_2 C 0.5490(12) 0.6904(12) 0.1457(5)
H4_2 H 0.5697 0.6188 0.1510
C9_2 C 0.5850(13) 0.7389(10) 0.1051(5)
H5_2 H 0.6319 0.7011 0.0830
C10_2 C 0.5502(10) 0.8484(10) 0.0968(4)
C11_2 C 0.5869(9) 0.9007(8) 0.0553(4)
H6_2 H 0.6333 0.8632 0.0329
C15_2 C 0.9984(11) 0.8750(9) 0.0007(5)
H9_2 H 0.9774 0.8038 0.0070
C22_2 C 0.9339(15) 0.7519(17) 0.1488(6)
H17_2 H 0.9051 0.7437 0.1183
C23_2 C 0.8671(16) 0.7031(17) 0.1847(6)
H18_2 H 0.7963 0.6607 0.1777
C25_2 C 0.9940(17) 0.7778(15) 0.2348(5)
N2_2 N 0.9022(12) 0.7157(13) 0.2284(5)
C14_3 C 0.9113(11) 0.9397(11) 0.9783(4)
H8_3 H 0.8343 0.9091 0.9690
C5_4 C 0.0195(11) 0.0960(10) 0.6292(4)
C6_4 C 0.0576(11) 0.1495(12) 0.6723(4)
H2_4 H 0.1072 0.1140 0.6944
C7_4 C 0.0192(13) 0.2518(11) 0.6794(5)
H3_4 H 0.0387 0.2848 0.7077
C8_3 C 0.9510(12) 0.3096(12) 0.6457(5)
H4_3 H 0.9303 0.3812 0.6510
C9_3 C 0.9150(13) 0.2611(10) 0.6051(5)
H5_3 H 0.8681 0.2989 0.5830
C10_3 C 0.9498(10) 0.1516(10) 0.5968(4)
C11_3 C 0.9131(9) 0.0993(8) 0.5553(4)
H6_3 H 0.8667 0.1368 0.5329
C14_4 C 0.5887(11) 0.0603(11) 0.4783(4)
H8_4 H 0.6657 0.0909 0.4690
C15_3 C 0.5016(11) 0.1250(9) 0.5007(5)
H9_3 H 0.5226 0.1962 0.5070
C17_2 C 0.3834(12) 0.0857(9) 0.5141(5)
C18_2 C 0.2900(10) 0.1509(11) 0.5382(4)
H11_2 H 0.2183 0.1054 0.5467
H12_2 H 0.2583 0.2046 0.5166
C19_2 C 0.3356(14) 0.2065(11) 0.5809(5)
H13_2 H 0.4027 0.2565 0.5721
H14_2 H 0.2654 0.2480 0.5937
C20_2 C 0.3850(14) 0.1353(12) 0.6173(5)
H15_2 H 0.4412 0.0833 0.6027
H16_2 H 0.3133 0.0960 0.6304
C21_2 C 0.4572(15) 0.1873(12) 0.6572(6)
C22_3 C 0.5661(15) 0.2481(17) 0.6488(6)
H17_3 H 0.5949 0.2563 0.6183
C23_3 C 0.6329(16) 0.2969(17) 0.6847(6)
H18_3 H 0.7037 0.3393 0.6777
C24_2 C 0.4302(15) 0.1773(13) 0.7029(5)
H19_2 H 0.3584 0.1388 0.7123
C25_3 C 0.5060(17) 0.2222(15) 0.7348(5)
H20_2 H 0.4882 0.2051 0.7657
N2_3 N 0.5978(12) 0.2843(13) 0.7284(5)
C13_4 C 0.9561(11) 0.5833(10) 0.5172(4)
H7_4 H 0.9392 0.6554 0.5231
C16_3 C 0.8648(12) 0.5228(10) 0.4951(5)
H10_3 H 0.7884 0.5551 0.4860
C17_3 C 0.8834(12) 0.4143(9) 0.4859(5)
C18_3 C 0.7900(10) 0.3491(11) 0.4618(4)
H11_3 H 0.7183 0.3946 0.4533
H12_3 H 0.7583 0.2954 0.4834
C19_3 C 0.8356(14) 0.2935(11) 0.4191(5)
H13_3 H 0.9027 0.2435 0.4279
H14_3 H 0.7654 0.2520 0.4063
C20_3 C 0.8850(14) 0.3647(12) 0.3827(5)
H15_3 H 0.9412 0.4167 0.3973
H16_3 H 0.8133 0.4040 0.3696
C21_3 C 0.9572(15) 0.3127(12) 0.3428(6)
C24_3 C 0.9302(15) 0.3227(13) 0.2971(5)
H19_3 H 0.8584 0.3612 0.2877
H20_3 H 0.9882 0.2949 0.2343
C1_4 C 0.1099(10) 0.4405(10) 0.9948(4)
C2_4 C 0.0555(10) 0.4946(8) 0.9524(3)
C8_4 C 0.0490(12) 0.8096(12) 0.8543(5)
H4_4 H 0.0697 0.8812 0.8490
C9_4 C 0.0850(13) 0.7611(10) 0.8949(5)
H5_4 H 0.1319 0.7989 0.9170
C10_4 C 0.0502(10) 0.6516(10) 0.9032(4)
C11_4 C 0.0869(9) 0.5993(8) 0.9447(4)
H6_4 H 0.1333 0.6368 0.9671
C15_4 C 0.4984(11) 0.6250(9) 0.9993(5)
H9_4 H 0.4774 0.6962 0.9930
C16_4 C 0.6352(12) 0.4772(10) 0.9951(5)
H10_4 H 0.7116 0.4449 0.9860
C17_4 C 0.6166(12) 0.5857(9) 0.9859(5)
C18_4 C 0.7100(10) 0.6509(11) 0.9618(4)
H11_4 H 0.7817 0.6054 0.9533
H12_4 H 0.7417 0.7046 0.9834
C19_4 C 0.6644(14) 0.7065(11) 0.9191(5)
H13_4 H 0.5973 0.7565 0.9279
H14_4 H 0.7346 0.7480 0.9063
C20_4 C 0.6150(14) 0.6353(12) 0.8827(5)
H15_4 H 0.5588 0.5833 0.8973
H16_4 H 0.6867 0.5960 0.8696
C21_4 C 0.5428(15) 0.6873(12) 0.8428(6)
C22_4 C 0.4339(15) 0.7481(17) 0.8512(6)
H17_4 H 0.4051 0.7563 0.8817
C23_4 C 0.3671(16) 0.7969(17) 0.8153(6)
H18_4 H 0.2963 0.8393 0.8223
C24_4 C 0.5698(15) 0.6773(13) 0.7971(5)
H19_4 H 0.6416 0.6388 0.7877
C25_4 C 0.4940(17) 0.7222(15) 0.7652(5)
H20_4 H 0.5118 0.7051 0.7343
N2_4 N 0.4022(12) 0.7843(13) 0.7716(5)
O2_4 O 0.1600(6) 0.3492(7) 0.9887(2)
C29_4 C 0.8565(16) 0.0227(15) 0.3055(5)
H24_4 H 0.9340 0.0488 0.2943
C30_4 C 0.7431(17) 0.0204(14) 0.2775(4)
C31_4 C 0.765(2) 0.0778(15) 0.2290(5)
H25_4 H 0.6904 0.1199 0.2207
H26_4 H 0.8383 0.1256 0.2309
C33_4 C 0.7901(16) 0.0448(14) 0.1454(4)
H29_4 H 0.7120 0.0866 0.1430
C34_4 C 0.9019(13) 0.1192(10) 0.1296(4)
C37_4 C 0.8870(12) 0.1782(11) 0.0902(4)
H33_4 H 0.8093 0.1760 0.0744
C38_4 C 0.9864(11) 0.2426(10) 0.0730(3)
H34_4 H 0.9724 0.2830 0.0461
loop_
_geom_bond_atom_site_label_1
_geom_bond_atom_site_label_2
_geom_bond_site_symmetry_1
_geom_bond_site_symmetry_2
H10 C16 1_555 1_555
C13 H7 1_555 1_555
C18 C17 1_555 1_555
H11 C18 1_555 1_555
H12 C18 1_555 1_555
C19 C18 1_555 1_555
H13 C19 1_555 1_555
H14 C19 1_555 1_555
C20 C19 1_555 1_555
H15 C20 1_555 1_555
H16 C20 1_555 1_555
C21 C20 1_555 1_555
C24 C21 1_555 1_555
H19 C24 1_555 1_555
C1 C2 1_555 1_555
C2 C3 1_555 1_555
C3 C4 1_555 1_555
C4 H1 1_555 1_555
C12 C3 1_555 1_555
O3 C12 1_555 1_555
O4 C12 1_555 1_555
Cd3 O3 1_555 1_555
C1 O2 1_555 1_555
O4 Cd3 1_555 1_555
Cd1 N1 1_555 1_555
C26 H21 1_555 1_555
C27 C26 1_555 1_555
H22 C27 1_555 1_555
C28 H23 1_555 1_555
C29 C28 1_555 1_555
H24 C29 1_555 1_555
C30 C27 1_555 1_555
C31 C30 1_555 1_555
H25 C31 1_555 1_555
H26 C31 1_555 1_555
C32 C31 1_555 1_555
H27 C32 1_555 1_555
H28 C32 1_555 1_555
C33 C32 1_555 1_555
H29 C33 1_555 1_555
H30 C33 1_555 1_555
C34 C33 1_555 1_555
C35 C34 1_555 1_555
H31 C35 1_555 1_555
C36 C35 1_555 1_555
H32 C36 1_555 1_555
C37 C34 1_555 1_555
H33 C37 1_555 1_555
C38 C37 1_555 1_555
H34 C38 1_555 1_555
N3 Cd1 1_555 1_555
N4 C26 1_555 1_555
O1 Cd1 1_555 1_555
Cd2 N4 1_555 1_555
N5 Cd1 1_555 1_555
O5 Cd1 1_555 1_555
O6 Cd1 1_555 1_555
C28 N4 1_555 1_555
C29 C30 1_555 1_555
C36 N3 1_555 1_555
C38 N3 1_555 1_555
C3_2 C4_2 1_555 1_555
C4_2 H1_2 1_555 1_555
C12_2 C3_2 1_555 1_555
C26_2 H21_2 1_555 1_555
C27_2 C26_2 1_555 1_555
H22_2 C27_2 1_555 1_555
C28_2 H23_2 1_555 1_555
C29_2 C28_2 1_555 1_555
H24_2 C29_2 1_555 1_555
C30_2 C27_2 1_555 1_555
C31_2 C30_2 1_555 1_555
H25_2 C31_2 1_555 1_555
H26_2 C31_2 1_555 1_555
C32_2 C31_2 1_555 1_555
H27_2 C32_2 1_555 1_555
H28_2 C32_2 1_555 1_555
C33_2 C32_2 1_555 1_555
H29_2 C33_2 1_555 1_555
H30_2 C33_2 1_555 1_555
C34_2 C33_2 1_555 1_555
C37_2 C34_2 1_555 1_555
H33_2 C37_2 1_555 1_555
C38_2 C37_2 1_555 1_555
H34_2 C38_2 1_555 1_555
N4_2 C26_2 1_555 1_555
O3_2 C12_2 1_555 1_555
O4_2 C12_2 1_555 1_555
Cd3 N4_2 1_555 1_555
Cd2 O3_2 1_555 1_555
C28_2 N4_2 1_555 1_555
C29_2 C30_2 1_555 1_555
O4_2 Cd2 1_555 1_555
Cd1_2 N1_2 1_555 1_555
C1_2 C2_2 1_555 1_555
C13_2 H7_2 1_555 1_555
C16_2 C13_2 1_555 1_555
H10_2 C16_2 1_555 1_555
H31_2 C35_2 1_555 1_555
C36_2 C35_2 1_555 1_555
H32_2 C36_2 1_555 1_555
N1_2 C13_2 1_555 1_555
N3_2 Cd1_2 1_555 1_555
O1_2 Cd1_2 1_555 1_555
O2_2 Cd1_2 1_555 1_555
N5_2 Cd1_2 1_555 1_555
O5_2 Cd1_2 1_555 1_555
O6_2 Cd1_2 1_555 1_555
C1_2 O1_2 1_555 1_555
C1_2 O2_2 1_555 1_555
C36_2 N3_2 1_555 1_555
C26_3 H21_3 1_555 1_555
C27_3 C26_3 1_555 1_555
H22_3 C27_3 1_555 1_555
C28_3 H23_3 1_555 1_555
H27_3 C32_3 1_555 1_555
H28_3 C32_3 1_555 1_555
N5 C26_3 1_555 1_555
C28_3 N5 1_555 1_555
Cd2 N1_3 1_555 1_555
C1_3 C2_3 1_555 1_555
C2_3 C3_3 1_555 1_555
C3_3 C4_3 1_555 1_555
C4_3 H1_3 1_555 1_555
C5 C4_3 1_555 1_555
C6 C5 1_555 1_555
H2 C6 1_555 1_555
C7 C6 1_555 1_555
H3 C7 1_555 1_555
C8 C7 1_555 1_555
H4 C8 1_555 1_555
C9 C8 1_555 1_555
H5 C9 1_555 1_555
C10 C5 1_555 1_555
C11 C2_3 1_555 1_555
H6 C11 1_555 1_555
C12_3 C3_3 1_555 1_555
C14 H8 1_555 1_555
C15 C14 1_555 1_555
H9 C15 1_555 1_555
H17 C22 1_555 1_555
C23 C22 1_555 1_555
H18 C23 1_555 1_555
H24_3 C29_3 1_555 1_555
C31_3 C30_3 1_555 1_555
H25_3 C31_3 1_555 1_555
H26_3 C31_3 1_555 1_555
H29_3 C33_3 1_555 1_555
C34_3 C33_3 1_555 1_555
C35_3 C34_3 1_555 1_555
H31_3 C35_3 1_555 1_555
C36_3 C35_3 1_555 1_555
H32_3 C36_3 1_555 1_555
C37_3 C34_3 1_555 1_555
H33_3 C37_3 1_555 1_555
C38_3 C37_3 1_555 1_555
H34_3 C38_3 1_555 1_555
N2 C23 1_555 1_555
N3_3 Cd2 1_555 1_555
O1_3 Cd2 1_555 1_555
O2_3 Cd2 1_555 1_555
O5_2 C12_3 1_555 1_555
O6_2 C12_3 1_555 1_555
C1_3 O1_3 1_555 1_555
C1_3 O2_3 1_555 1_555
C9 C10 1_555 1_555
C10 C11 1_555 1_555
C14 N1_3 1_555 1_555
C25 N2 1_555 1_555
C29_3 C30_3 1_555 1_555
C36_3 N3_3 1_555 1_555
C38_3 N3_3 1_555 1_555
Cd3 N1_4 1_555 1_555
C13_3 H7_3 1_555 1_555
C14_2 H8_2 1_555 1_555
H31_4 C35_4 1_555 1_555
C36_4 C35_4 1_555 1_555
H32_4 C36_4 1_555 1_555
N1_4 C13_3 1_555 1_555
N3_4 Cd3 1_555 1_555
O1_4 Cd3 1_555 1_555
C14_2 N1_4 1_555 1_555
C36_4 N3_4 1_555 1_555
C3_4 C4_4 1_555 1_555
C4_4 H1_4 1_555 1_555
C5_2 C4_4 1_555 1_555
C6_2 C5_2 1_555 1_555
H2_2 C6_2 1_555 1_555
C7_2 C6_2 1_555 1_555
H3_2 C7_2 1_555 1_555
C12_4 C3_4 1_555 1_555
O5 C12_4 1_555 1_555
O6 C12_4 1_555 1_555
C26_4 H21_4 1_555 1_555
C27_4 C26_4 1_555 1_555
H22_4 C27_4 1_555 1_555
C28_4 H23_4 1_555 1_555
H27_4 C32_4 1_555 1_555
H28_4 C32_4 1_555 1_555
N5_2 C26_4 1_555 1_555
C28_4 N5_2 1_555 1_555
C6_3 C5_3 1_555 1_555
H2_3 C6_3 1_555 1_555
C7_3 C6_3 1_555 1_555
H3_3 C7_3 1_555 1_555
C8_2 C7_3 1_555 1_555
H4_2 C8_2 1_555 1_555
C9_2 C8_2 1_555 1_555
H5_2 C9_2 1_555 1_555
C10_2 C5_3 1_555 1_555
H6_2 C11_2 1_555 1_555
H9_2 C15_2 1_555 1_555
H17_2 C22_2 1_555 1_555
C23_2 C22_2 1_555 1_555
H18_2 C23_2 1_555 1_555
N2_2 C23_2 1_555 1_555
C9_2 C10_2 1_555 1_555
C10_2 C11_2 1_555 1_555
C25_2 N2_2 1_555 1_555
C14_3 H8_3 1_555 1_555
C6_4 C5_4 1_555 1_555
H2_4 C6_4 1_555 1_555
C7_4 C6_4 1_555 1_555
H3_4 C7_4 1_555 1_555
H4_3 C8_3 1_555 1_555
C9_3 C8_3 1_555 1_555
H5_3 C9_3 1_555 1_555
H6_3 C11_3 1_555 1_555
C14_4 H8_4 1_555 1_555
C15_3 C14_4 1_555 1_555
H9_3 C15_3 1_555 1_555
C17_2 C15_3 1_555 1_555
C18_2 C17_2 1_555 1_555
H11_2 C18_2 1_555 1_555
H12_2 C18_2 1_555 1_555
C19_2 C18_2 1_555 1_555
H13_2 C19_2 1_555 1_555
H14_2 C19_2 1_555 1_555
C20_2 C19_2 1_555 1_555
H15_2 C20_2 1_555 1_555
H16_2 C20_2 1_555 1_555
C21_2 C20_2 1_555 1_555
C22_3 C21_2 1_555 1_555
H17_3 C22_3 1_555 1_555
C23_3 C22_3 1_555 1_555
H18_3 C23_3 1_555 1_555
C24_2 C21_2 1_555 1_555
H19_2 C24_2 1_555 1_555
C25_3 C24_2 1_555 1_555
H20_2 C25_3 1_555 1_555
N2_3 C23_3 1_555 1_555
C9_3 C10_3 1_555 1_555
C10_3 C11_3 1_555 1_555
C25_3 N2_3 1_555 1_555
C13_4 H7_4 1_555 1_555
C16_3 C13_4 1_555 1_555
H10_3 C16_3 1_555 1_555
C18_3 C17_3 1_555 1_555
H11_3 C18_3 1_555 1_555
H12_3 C18_3 1_555 1_555
C19_3 C18_3 1_555 1_555
H13_3 C19_3 1_555 1_555
H14_3 C19_3 1_555 1_555
C20_3 C19_3 1_555 1_555
H15_3 C20_3 1_555 1_555
H16_3 C20_3 1_555 1_555
C21_3 C20_3 1_555 1_555
C24_3 C21_3 1_555 1_555
H19_3 C24_3 1_555 1_555
C16_3 C17_3 1_555 1_555
C1_4 C2_4 1_555 1_555
H4_4 C8_4 1_555 1_555
C9_4 C8_4 1_555 1_555
H5_4 C9_4 1_555 1_555
C11_4 C2_4 1_555 1_555
H6_4 C11_4 1_555 1_555
H9_4 C15_4 1_555 1_555
H10_4 C16_4 1_555 1_555
C17_4 C15_4 1_555 1_555
C18_4 C17_4 1_555 1_555
H11_4 C18_4 1_555 1_555
H12_4 C18_4 1_555 1_555
C19_4 C18_4 1_555 1_555
H13_4 C19_4 1_555 1_555
H14_4 C19_4 1_555 1_555
C20_4 C19_4 1_555 1_555
H15_4 C20_4 1_555 1_555
H16_4 C20_4 1_555 1_555
C21_4 C20_4 1_555 1_555
C22_4 C21_4 1_555 1_555
H17_4 C22_4 1_555 1_555
C23_4 C22_4 1_555 1_555
H18_4 C23_4 1_555 1_555
C24_4 C21_4 1_555 1_555
H19_4 C24_4 1_555 1_555
C25_4 C24_4 1_555 1_555
H20_4 C25_4 1_555 1_555
N2_4 C23_4 1_555 1_555
C1_4 O2_4 1_555 1_555
C9_4 C10_4 1_555 1_555
C10_4 C11_4 1_555 1_555
C16_4 C17_4 1_555 1_555
C25_4 N2_4 1_555 1_555
H24_4 C29_4 1_555 1_555
C31_4 C30_4 1_555 1_555
H25_4 C31_4 1_555 1_555
H26_4 C31_4 1_555 1_555
H29_4 C33_4 1_555 1_555
C34_4 C33_4 1_555 1_555
C37_4 C34_4 1_555 1_555
H33_4 C37_4 1_555 1_555
C38_4 C37_4 1_555 1_555
H34_4 C38_4 1_555 1_555
C29_4 C30_4 1_555 1_555

#END
