
###############################################################################
#
# This file contains modified crystal structure data generated from the
# MOF subset of the Cambridge Structural Database (CSD) v543 
# hosted by the Cambridge Crystallographic Data Centre (CCDC).
#
# This work is licensed under the Creative Commons
# Attribution-NonCommercial-ShareAlike 4.0 International License.
# To view a copy of this license, visit
# http://creativecommons.org/licenses/by-nc-sa/4.0/
# or send a letter to
# Creative Commons, PO Box 1866, Mountain View, CA 94042, USA.
#
# CIF created using the CSD Python API on 29 September 2022
# The structure has been converted into the P1 space group
# The structure has a 3D framework
# The original CSD entry UNIPAJ is in the monoclinic crystal system
# The framework has been calculated to contain at least 10.0% void space
# The void calculation uses a probe of radius 1.32A, grid spacing 0.4
#
###############################################################################

data_UNIPAJ
_chemical_formula_moiety         '(C176 H128 Cd8 N31 O40)n'
_symmetry_cell_setting           triclinic
_symmetry_space_group_name_H-M   'P 1'
_symmetry_Int_Tables_number      1
_space_group_name_Hall           'P 1'
loop_
_symmetry_equiv_pos_site_id
_symmetry_equiv_pos_as_xyz
1 x,y,z
_cell_length_a                   18.4754(10)
_cell_length_b                   21.5101(14)
_cell_length_c                   12.5984(6)
_cell_angle_alpha                90
_cell_angle_beta                 102.731(5)
_cell_angle_gamma                90
_cell_volume                     4883.61
loop_
_atom_site_label
_atom_site_type_symbol
_atom_site_fract_x
_atom_site_fract_y
_atom_site_fract_z
H20 H 0.4471 0.3737 0.0147
H21 H 0.4436 0.2698 0.0459
N4 N 0.2505(2) 0.27785(16) 0.0093(3)
Cd2 Cd 0.353194(14) 0.048144(12) 0.422999(19)
C23 C 0.3732(2) 0.11858(19) 0.6106(3)
C24 C 0.38681(19) 0.15984(17) 0.7100(3)
C25 C 0.3952(2) 0.22148(19) 0.6945(3)
H17 H 0.3917 0.2359 0.6240
C26 C 0.4093(2) 0.26507(19) 0.7814(3)
C27 C 0.4116(3) 0.3300(2) 0.7642(4)
H18 H 0.4041 0.3458 0.6939
C28 C 0.4250(3) 0.3690(2) 0.8512(4)
H19 H 0.4259 0.4117 0.8399
C29 C 0.4373(3) 0.3462(2) 0.9563(4)
C30 C 0.4353(3) 0.2844(2) 0.9748(4)
C31 C 0.4210(2) 0.24183(18) 0.8879(3)
C32 C 0.4134(2) 0.17728(18) 0.9036(3)
H22 H 0.4214 0.1620 0.9743
C33 C 0.39512(19) 0.13672(17) 0.8195(3)
C34 C 0.3741(2) 0.07170(17) 0.8451(3)
C35 C 0.2899(3) 0.1658(2) 0.2769(3)
H23 H 0.2885 0.1801 0.3461
C36 C 0.2701(3) 0.2067(2) 0.1903(3)
H24 H 0.2575 0.2477 0.2011
C37 C 0.2698(2) 0.1846(2) 0.0884(3)
C38 C 0.2888(3) 0.1246(2) 0.0762(3)
H25 H 0.2881 0.1088 0.0072
C39 C 0.3094(2) 0.0868(2) 0.1668(3)
H26 H 0.3227 0.0458 0.1574
N5 N 0.31062(17) 0.10725(15) 0.2670(2)
N7 N 0.23057(17) 0.02562(16) 0.4427(2)
O6 O 0.33445(16) 0.14111(14) 0.52454(19)
O7 O 0.40082(15) 0.06566(12) 0.61168(19)
O10 O 0.32293(15) 0.04377(13) 0.78263(19)
O13 O 0.40769(13) 0.04814(12) 0.93528(19)
O14 O 0.47070(14) 0.08244(12) 0.40149(19)
H31 H 0.5026 0.0673 0.4543
H32 H 0.4829 0.0548 0.3606
C40 C 0.2063(2) 0.0426(2) 0.5307(3)
H27 H 0.2397 0.0606 0.5885
C41 C 0.1337(2) 0.0346(2) 0.5398(3)
H28 H 0.1190 0.0470 0.6025
C42 C 0.0840(2) 0.00831(18) 0.4556(3)
C21 C 0.1085(2) 0.0097(2) 0.8644(3)
H13 H 0.0760 0.0278 0.8055
C22 C 0.1818(2) 0.0004(2) 0.8621(3)
H14 H 0.1980 0.0131 0.8007
N3 N 0.00738(17) 0.00274(16) 0.9546(2)
Cd1 Cd 0.146806(14) 0.451856(12) 0.577001(19)
C1 C 0.1268(2) 0.38142(19) 0.3894(3)
C2 C 0.11319(19) 0.34016(17) 0.2900(3)
C3 C 0.1048(2) 0.27852(19) 0.3055(3)
H1 H 0.1083 0.2641 0.3760
C4 C 0.0907(2) 0.23493(19) 0.2186(3)
C5 C 0.0884(3) 0.1700(2) 0.2358(4)
H2 H 0.0959 0.1542 0.3061
C6 C 0.0750(3) 0.1310(2) 0.1488(4)
H3 H 0.0741 0.0883 0.1601
C7 C 0.0627(3) 0.1538(2) 0.0437(4)
C8 C 0.0647(3) 0.2156(2) 0.0252(4)
C9 C 0.0790(2) 0.25817(18) 0.1121(3)
C10 C 0.0866(2) 0.32272(18) 0.0964(3)
H6 H 0.0786 0.3380 0.0257
C11 C 0.10488(19) 0.36328(17) 0.1805(3)
C12 C 0.1259(2) 0.42830(17) 0.1549(3)
C13 C 0.2101(3) 0.3342(2) 0.7231(3)
H7 H 0.2115 0.3199 0.6539
C14 C 0.2299(3) 0.2933(2) 0.8097(3)
H8 H 0.2425 0.2523 0.7989
C15 C 0.2302(2) 0.3154(2) 0.9116(3)
C16 C 0.2112(3) 0.3754(2) 0.9238(3)
H9 H 0.2119 0.3912 0.9928
C17 C 0.1906(2) 0.4132(2) 0.8332(3)
H10 H 0.1773 0.4542 0.8426
C18 C 0.2937(2) 0.4574(2) 0.4693(3)
H11 H 0.2603 0.4394 0.4115
C19 C 0.3663(2) 0.4654(2) 0.4602(3)
H12 H 0.3810 0.4530 0.3975
C20 C 0.4160(2) 0.49169(18) 0.5444(3)
C21_2 C 0.3915(2) 0.5097(2) 0.6356(3)
H13_2 H 0.4240 0.5278 0.6945
C22_2 C 0.3182(2) 0.5004(2) 0.6379(3)
H14_2 H 0.3020 0.5131 0.6993
N1 N 0.18938(17) 0.39275(15) 0.7330(2)
N2 N 0.26943(17) 0.47438(16) 0.5573(2)
N3_2 N 0.49262(17) 0.50274(16) 0.5454(2)
O1 O 0.16555(16) 0.35889(14) 0.47546(19)
O2 O 0.09918(15) 0.43434(12) 0.38832(19)
O3 O 0.17707(15) 0.45623(13) 0.21737(19)
O4 O 0.09231(13) 0.45186(12) 0.06472(19)
O5 O 0.02930(14) 0.41756(12) 0.59851(19)
H16 H 0.0171 0.4452 0.6394
Cd3 Cd 0.146806(14) 0.548144(12) 0.077001(19)
Cd4 Cd 0.853194(14) 0.548144(12) 0.422999(19)
C40_2 C 0.7063(2) 0.5426(2) 0.5307(3)
H27_2 H 0.7397 0.5606 0.5885
C41_2 C 0.6337(2) 0.5346(2) 0.5398(3)
H28_2 H 0.6190 0.5470 0.6025
C42_2 C 0.5840(2) 0.50831(18) 0.4556(3)
C43 C 0.6085(2) 0.4903(2) 0.3644(3)
H29 H 0.5760 0.4722 0.3055
C44 C 0.6818(2) 0.4996(2) 0.3621(3)
H30 H 0.6980 0.4869 0.3007
N6 N 0.73057(17) 0.52562(16) 0.4427(2)
N8 N 0.50738(17) 0.49726(16) 0.4546(2)
N9 N 0.2495(2) 0.22215(16) 0.9907(3)
O8 O 0.17707(15) 0.54377(13) 0.71737(19)
O11 O 0.09231(13) 0.54814(12) 0.56472(19)
Cd5 Cd 0.353194(14) 0.951856(12) 0.922999(19)
O9 O 0.32293(15) 0.95623(13) 0.28263(19)
O12 O 0.40769(13) 0.95186(12) 0.43528(19)
C1_2 C 0.8732(2) 0.38142(19) 0.1106(3)
C2_2 C 0.88681(19) 0.34016(17) 0.2100(3)
C3_2 C 0.8952(2) 0.27852(19) 0.1945(3)
H1_2 H 0.8917 0.2641 0.1240
C4_2 C 0.9093(2) 0.23493(19) 0.2814(3)
C5_2 C 0.9116(3) 0.1700(2) 0.2642(4)
H2_2 H 0.9041 0.1542 0.1939
C6_2 C 0.9250(3) 0.1310(2) 0.3512(4)
H3_2 H 0.9259 0.0883 0.3399
C7_2 C 0.9373(3) 0.1538(2) 0.4563(4)
H4 H 0.9471 0.1263 0.5147
C8_2 C 0.9353(3) 0.2156(2) 0.4748(4)
H5 H 0.9436 0.2302 0.5459
C9_2 C 0.9210(2) 0.25817(18) 0.3879(3)
C10_2 C 0.9134(2) 0.32272(18) 0.4036(3)
H6_2 H 0.9214 0.3380 0.4743
C11_2 C 0.89512(19) 0.36328(17) 0.3195(3)
C12_2 C 0.8741(2) 0.42830(17) 0.3451(3)
C18_2 C 0.7063(2) 0.4574(2) 0.0307(3)
H11_2 H 0.7397 0.4394 0.0885
C19_2 C 0.6337(2) 0.4654(2) 0.0398(3)
H12_2 H 0.6190 0.4530 0.1025
O1_2 O 0.83445(16) 0.35889(14) 0.02454(19)
O2_2 O 0.90082(15) 0.43434(12) 0.11168(19)
O3_2 O 0.82293(15) 0.45623(13) 0.28263(19)
O4_2 O 0.90769(13) 0.45186(12) 0.43528(19)
C42_3 C 0.4160(2) 0.50831(18) 0.0444(3)
C43_2 C 0.3915(2) 0.4903(2) 0.1356(3)
H29_2 H 0.4240 0.4722 0.1945
C44_2 C 0.3182(2) 0.4996(2) 0.1379(3)
H30_2 H 0.3020 0.4869 0.1993
N6_2 N 0.26943(17) 0.52562(16) 0.0573(2)
N8_2 N 0.49262(17) 0.49726(16) 0.0454(2)
Cd1_2 Cd 0.853194(14) 0.451856(12) 0.922999(19)
C13_2 C 0.7899(3) 0.3342(2) 0.7769(3)
H7_2 H 0.7885 0.3199 0.8461
C14_2 C 0.7701(3) 0.2933(2) 0.6903(3)
H8_2 H 0.7575 0.2523 0.7011
C15_2 C 0.7698(2) 0.3154(2) 0.5884(3)
C16_2 C 0.7888(3) 0.3754(2) 0.5762(3)
H9_2 H 0.7881 0.3912 0.5072
C17_2 C 0.8094(2) 0.4132(2) 0.6668(3)
H10_2 H 0.8227 0.4542 0.6574
C20_2 C 0.5840(2) 0.49169(18) 0.9556(3)
C21_3 C 0.6085(2) 0.5097(2) 0.8644(3)
H13_3 H 0.5760 0.5278 0.8055
C22_3 C 0.6818(2) 0.5004(2) 0.8621(3)
H14_3 H 0.6980 0.5131 0.8007
N1_2 N 0.81062(17) 0.39275(15) 0.7670(2)
N2_2 N 0.73057(17) 0.47438(16) 0.9427(2)
N3_3 N 0.50738(17) 0.50274(16) 0.9546(2)
N4_2 N 0.7495(2) 0.27785(16) 0.4907(3)
O5_2 O 0.97070(14) 0.41756(12) 0.90149(19)
H16_2 H 0.9829 0.4452 0.8606
Cd2_2 Cd 0.646806(14) 0.048144(12) 0.077001(19)
C35_2 C 0.7101(3) 0.1658(2) 0.2231(3)
H23_2 H 0.7115 0.1801 0.1539
C36_2 C 0.7299(3) 0.2067(2) 0.3097(3)
H24_2 H 0.7425 0.2477 0.2989
C37_2 C 0.7302(2) 0.1846(2) 0.4116(3)
C38_2 C 0.7112(3) 0.1246(2) 0.4238(3)
H25_2 H 0.7119 0.1088 0.4928
C39_2 C 0.6906(2) 0.0868(2) 0.3332(3)
H26_2 H 0.6773 0.0458 0.3426
C40_3 C 0.2937(2) 0.5426(2) 0.9693(3)
H27_3 H 0.2603 0.5606 0.9115
C41_3 C 0.3663(2) 0.5346(2) 0.9602(3)
H28_3 H 0.3810 0.5470 0.8975
N5_2 N 0.68938(17) 0.10725(15) 0.2330(2)
N7_2 N 0.76943(17) 0.02562(16) 0.0573(2)
N9_2 N 0.7505(2) 0.22215(16) 0.5093(3)
O8_2 O 0.82293(15) 0.54377(13) 0.78263(19)
O11_2 O 0.90769(13) 0.54814(12) 0.93528(19)
O14_2 O 0.52930(14) 0.08244(12) 0.09851(19)
H31_2 H 0.4974 0.0673 0.0457
H32_2 H 0.5171 0.0548 0.1394
C23_2 C 0.6268(2) 0.11858(19) 0.8894(3)
C24_2 C 0.61319(19) 0.15984(17) 0.7900(3)
C25_2 C 0.6048(2) 0.22148(19) 0.8055(3)
H17_2 H 0.6083 0.2359 0.8760
C26_2 C 0.5907(2) 0.26507(19) 0.7186(3)
C27_2 C 0.5884(3) 0.3300(2) 0.7358(4)
H18_2 H 0.5959 0.3458 0.8061
C28_2 C 0.5750(3) 0.3690(2) 0.6488(4)
H19_2 H 0.5741 0.4117 0.6601
C29_2 C 0.5627(3) 0.3462(2) 0.5437(4)
H20_2 H 0.5529 0.3737 0.4853
C30_2 C 0.5647(3) 0.2844(2) 0.5252(4)
H21_2 H 0.5564 0.2698 0.4541
C31_2 C 0.5790(2) 0.24183(18) 0.6121(3)
C32_2 C 0.5866(2) 0.17728(18) 0.5964(3)
H22_2 H 0.5786 0.1620 0.5257
C33_2 C 0.60488(19) 0.13672(17) 0.6805(3)
C34_2 C 0.6259(2) 0.07170(17) 0.6549(3)
O6_2 O 0.66555(16) 0.14111(14) 0.97546(19)
O7_2 O 0.59918(15) 0.06566(12) 0.88832(19)
O10_2 O 0.67707(15) 0.04377(13) 0.71737(19)
O13_2 O 0.59231(13) 0.04814(12) 0.56472(19)
C43_3 C 0.1085(2) 0.9903(2) 0.3644(3)
H29_3 H 0.0760 0.9722 0.3055
C44_3 C 0.1818(2) 0.9996(2) 0.3621(3)
H30_3 H 0.1980 0.9869 0.3007
N8_3 N 0.00738(17) 0.99726(16) 0.4546(2)
C21_4 C 0.8915(2) 0.0097(2) 0.6356(3)
H13_4 H 0.9240 0.0278 0.6945
C22_4 C 0.8182(2) 0.0004(2) 0.6379(3)
H14_4 H 0.8020 0.0131 0.6993
N3_4 N 0.99262(17) 0.00274(16) 0.5454(2)
N4_3 N 0.7505(2) 0.77785(16) 0.0093(3)
C23_3 C 0.8732(2) 0.61858(19) 0.6106(3)
C24_3 C 0.88681(19) 0.65984(17) 0.7100(3)
C25_3 C 0.8952(2) 0.72148(19) 0.6945(3)
H17_3 H 0.8917 0.7359 0.6240
C26_3 C 0.9093(2) 0.76507(19) 0.7814(3)
C27_3 C 0.9116(3) 0.8300(2) 0.7642(4)
H18_3 H 0.9041 0.8458 0.6939
C28_3 C 0.9250(3) 0.8690(2) 0.8512(4)
H19_3 H 0.9259 0.9117 0.8399
C29_3 C 0.9373(3) 0.8462(2) 0.9563(4)
C30_3 C 0.9353(3) 0.7844(2) 0.9748(4)
C31_3 C 0.9210(2) 0.74183(18) 0.8879(3)
C32_3 C 0.9134(2) 0.67728(18) 0.9036(3)
H22_3 H 0.9214 0.6620 0.9743
C33_3 C 0.89512(19) 0.63672(17) 0.8195(3)
C34_3 C 0.8741(2) 0.57170(17) 0.8451(3)
C35_3 C 0.7899(3) 0.6658(2) 0.2769(3)
H23_3 H 0.7885 0.6801 0.3461
C36_3 C 0.7701(3) 0.7067(2) 0.1903(3)
H24_3 H 0.7575 0.7477 0.2011
C37_3 C 0.7698(2) 0.6846(2) 0.0884(3)
C38_3 C 0.7888(3) 0.6246(2) 0.0762(3)
H25_3 H 0.7881 0.6088 0.0072
C39_3 C 0.8094(2) 0.5868(2) 0.1668(3)
H26_3 H 0.8227 0.5458 0.1574
N5_3 N 0.81062(17) 0.60725(15) 0.2670(2)
O6_3 O 0.83445(16) 0.64111(14) 0.52454(19)
O7_3 O 0.90082(15) 0.56566(12) 0.61168(19)
O14_3 O 0.97070(14) 0.58244(12) 0.40149(19)
H32_3 H 0.9829 0.5548 0.3606
C1_3 C 0.3732(2) 0.88142(19) 0.1106(3)
C2_3 C 0.38681(19) 0.84016(17) 0.2100(3)
C3_3 C 0.3952(2) 0.77852(19) 0.1945(3)
H1_3 H 0.3917 0.7641 0.1240
C4_3 C 0.4093(2) 0.73493(19) 0.2814(3)
C5_3 C 0.4116(3) 0.6700(2) 0.2642(4)
H2_3 H 0.4041 0.6542 0.1939
C6_3 C 0.4250(3) 0.6310(2) 0.3512(4)
H3_3 H 0.4259 0.5883 0.3399
C7_3 C 0.4373(3) 0.6538(2) 0.4563(4)
H4_2 H 0.4471 0.6263 0.5147
C8_3 C 0.4353(3) 0.7156(2) 0.4748(4)
H5_2 H 0.4436 0.7302 0.5459
C9_3 C 0.4210(2) 0.75817(18) 0.3879(3)
C10_3 C 0.4134(2) 0.82272(18) 0.4036(3)
H6_3 H 0.4214 0.8380 0.4743
C11_3 C 0.39512(19) 0.86328(17) 0.3195(3)
C12_3 C 0.3741(2) 0.92830(17) 0.3451(3)
C18_3 C 0.2063(2) 0.9574(2) 0.0307(3)
H11_3 H 0.2397 0.9394 0.0885
C19_3 C 0.1337(2) 0.9654(2) 0.0398(3)
H12_3 H 0.1190 0.9530 0.1025
O1_3 O 0.33445(16) 0.85889(14) 0.02454(19)
O2_3 O 0.40082(15) 0.93434(12) 0.11168(19)
C13_3 C 0.2899(3) 0.8342(2) 0.7769(3)
H7_3 H 0.2885 0.8199 0.8461
C14_3 C 0.2701(3) 0.7933(2) 0.6903(3)
H8_3 H 0.2575 0.7523 0.7011
C15_3 C 0.2698(2) 0.8154(2) 0.5884(3)
C16_3 C 0.2888(3) 0.8754(2) 0.5762(3)
H9_3 H 0.2881 0.8912 0.5072
C17_3 C 0.3094(2) 0.9132(2) 0.6668(3)
H10_3 H 0.3227 0.9542 0.6574
C20_3 C 0.0840(2) 0.99169(18) 0.9556(3)
N1_3 N 0.31062(17) 0.89275(15) 0.7670(2)
N2_3 N 0.23057(17) 0.97438(16) 0.9427(2)
N4_4 N 0.2495(2) 0.77785(16) 0.4907(3)
O5_3 O 0.47070(14) 0.91756(12) 0.90149(19)
H15 H 0.5026 0.9327 0.9543
H16_3 H 0.4829 0.9452 0.8606
C35_4 C 0.2101(3) 0.6658(2) 0.2231(3)
H23_4 H 0.2115 0.6801 0.1539
C36_4 C 0.2299(3) 0.7067(2) 0.3097(3)
H24_4 H 0.2425 0.7477 0.2989
C37_4 C 0.2302(2) 0.6846(2) 0.4116(3)
C38_4 C 0.2112(3) 0.6246(2) 0.4238(3)
H25_4 H 0.2119 0.6088 0.4928
C39_4 C 0.1906(2) 0.5868(2) 0.3332(3)
H26_4 H 0.1773 0.5458 0.3426
N5_4 N 0.18938(17) 0.60725(15) 0.2330(2)
N9_3 N 0.2505(2) 0.72215(16) 0.5093(3)
O14_4 O 0.02930(14) 0.58244(12) 0.09851(19)
H32_4 H 0.0171 0.5548 0.1394
C23_4 C 0.1268(2) 0.61858(19) 0.8894(3)
C24_4 C 0.11319(19) 0.65984(17) 0.7900(3)
C25_4 C 0.1048(2) 0.72148(19) 0.8055(3)
H17_4 H 0.1083 0.7359 0.8760
C26_4 C 0.0907(2) 0.76507(19) 0.7186(3)
C27_4 C 0.0884(3) 0.8300(2) 0.7358(4)
H18_4 H 0.0959 0.8458 0.8061
C28_4 C 0.0750(3) 0.8690(2) 0.6488(4)
H19_4 H 0.0741 0.9117 0.6601
C29_4 C 0.0627(3) 0.8462(2) 0.5437(4)
H20_3 H 0.0529 0.8737 0.4853
C30_4 C 0.0647(3) 0.7844(2) 0.5252(4)
H21_3 H 0.0564 0.7698 0.4541
C31_4 C 0.0790(2) 0.74183(18) 0.6121(3)
C32_4 C 0.0866(2) 0.67728(18) 0.5964(3)
H22_4 H 0.0786 0.6620 0.5257
C33_4 C 0.10488(19) 0.63672(17) 0.6805(3)
C34_4 C 0.1259(2) 0.57170(17) 0.6549(3)
O6_4 O 0.16555(16) 0.64111(14) 0.97546(19)
O7_4 O 0.09918(15) 0.56566(12) 0.88832(19)
C42_4 C 0.9160(2) 0.00831(18) 0.0444(3)
C40_4 C 0.7937(2) 0.0426(2) 0.9693(3)
H27_4 H 0.7603 0.0606 0.9115
C41_4 C 0.8663(2) 0.0346(2) 0.9602(3)
H28_4 H 0.8810 0.0470 0.8975
H4_3 H 0.0529 0.1263 0.9853
H5_3 H 0.0564 0.2302 0.9541
H15_2 H 0.9974 0.4327 0.5457
H15_3 H 0.0026 0.4327 0.9543
O9_2 O 0.67707(15) 0.95623(13) 0.21737(19)
O12_2 O 0.59231(13) 0.95186(12) 0.06472(19)
Cd5_2 Cd 0.646806(14) 0.951856(12) 0.577001(19)
C1_4 C 0.6268(2) 0.88142(19) 0.3894(3)
C2_4 C 0.61319(19) 0.84016(17) 0.2900(3)
C3_4 C 0.6048(2) 0.77852(19) 0.3055(3)
H1_4 H 0.6083 0.7641 0.3760
C4_4 C 0.5907(2) 0.73493(19) 0.2186(3)
C5_4 C 0.5884(3) 0.6700(2) 0.2358(4)
H2_4 H 0.5959 0.6542 0.3061
C6_4 C 0.5750(3) 0.6310(2) 0.1488(4)
H3_4 H 0.5741 0.5883 0.1601
C7_4 C 0.5627(3) 0.6538(2) 0.0437(4)
C8_4 C 0.5647(3) 0.7156(2) 0.0252(4)
C9_4 C 0.5790(2) 0.75817(18) 0.1121(3)
C10_4 C 0.5866(2) 0.82272(18) 0.0964(3)
H6_4 H 0.5786 0.8380 0.0257
C11_4 C 0.60488(19) 0.86328(17) 0.1805(3)
C12_4 C 0.6259(2) 0.92830(17) 0.1549(3)
C13_4 C 0.7101(3) 0.8342(2) 0.7231(3)
H7_4 H 0.7115 0.8199 0.6539
C14_4 C 0.7299(3) 0.7933(2) 0.8097(3)
H8_4 H 0.7425 0.7523 0.7989
C15_4 C 0.7302(2) 0.8154(2) 0.9116(3)
C16_4 C 0.7112(3) 0.8754(2) 0.9238(3)
H9_4 H 0.7119 0.8912 0.9928
C17_4 C 0.6906(2) 0.9132(2) 0.8332(3)
H10_4 H 0.6773 0.9542 0.8426
C18_4 C 0.7937(2) 0.9574(2) 0.4693(3)
H11_4 H 0.7603 0.9394 0.4115
C19_4 C 0.8663(2) 0.9654(2) 0.4602(3)
H12_4 H 0.8810 0.9530 0.3975
C20_4 C 0.9160(2) 0.99169(18) 0.5444(3)
N1_4 N 0.68938(17) 0.89275(15) 0.7330(2)
N2_4 N 0.76943(17) 0.97438(16) 0.5573(2)
O1_4 O 0.66555(16) 0.85889(14) 0.47546(19)
O2_4 O 0.59918(15) 0.93434(12) 0.38832(19)
O5_4 O 0.52930(14) 0.91756(12) 0.59851(19)
H15_4 H 0.4974 0.9327 0.5457
H16_4 H 0.5171 0.9452 0.6394
N9_4 N 0.7495(2) 0.72215(16) 0.9907(3)
C43_4 C 0.8915(2) 0.9903(2) 0.1356(3)
H29_4 H 0.9240 0.9722 0.1945
C44_4 C 0.8182(2) 0.9996(2) 0.1379(3)
H30_4 H 0.8020 0.9869 0.1993
N8_4 N 0.99262(17) 0.99726(16) 0.0454(2)
H31_3 H 0.0026 0.5673 0.4543
H20_4 H 0.9471 0.8737 0.0147
H21_4 H 0.9436 0.7698 0.0459
H4_4 H 0.5529 0.6263 0.9853
H5_4 H 0.5564 0.7302 0.9541
H31_4 H 0.9974 0.5673 0.0457
loop_
_geom_bond_atom_site_label_1
_geom_bond_atom_site_label_2
_geom_bond_site_symmetry_1
_geom_bond_site_symmetry_2
Cd2 N5 1_555 1_555
C23 C24 1_555 1_555
C24 C25 1_555 1_555
C25 H17 1_555 1_555
C26 C25 1_555 1_555
C27 C26 1_555 1_555
H18 C27 1_555 1_555
C28 C27 1_555 1_555
H19 C28 1_555 1_555
C29 C28 1_555 1_555
C30 C29 1_555 1_555
C31 C26 1_555 1_555
C32 C31 1_555 1_555
H22 C32 1_555 1_555
C33 C24 1_555 1_555
C34 C33 1_555 1_555
C35 H23 1_555 1_555
C36 C35 1_555 1_555
H24 C36 1_555 1_555
C37 C36 1_555 1_555
C38 C37 1_555 1_555
H25 C38 1_555 1_555
C39 C38 1_555 1_555
H26 C39 1_555 1_555
N5 C35 1_555 1_555
N7 Cd2 1_555 1_555
O6 Cd2 1_555 1_555
O7 Cd2 1_555 1_555
O10 C34 1_555 1_555
O14 Cd2 1_555 1_555
H31 O14 1_555 1_555
H32 O14 1_555 1_555
C23 O6 1_555 1_555
C23 O7 1_555 1_555
C30 C31 1_555 1_555
C32 C33 1_555 1_555
C34 O13 1_555 1_555
C39 N5 1_555 1_555
C40 H27 1_555 1_555
C41 C40 1_555 1_555
H28 C41 1_555 1_555
C42 C41 1_555 1_555
N7 C40 1_555 1_555
H13 C21 1_555 1_555
C22 C21 1_555 1_555
H14 C22 1_555 1_555
Cd1 N1 1_555 1_555
C1 C2 1_555 1_555
C2 C3 1_555 1_555
C3 H1 1_555 1_555
C4 C3 1_555 1_555
C5 C4 1_555 1_555
H2 C5 1_555 1_555
C6 C5 1_555 1_555
H3 C6 1_555 1_555
C7 C6 1_555 1_555
C8 C7 1_555 1_555
C9 C4 1_555 1_555
C10 C9 1_555 1_555
H6 C10 1_555 1_555
C11 C2 1_555 1_555
C12 C11 1_555 1_555
C13 H7 1_555 1_555
C14 C13 1_555 1_555
H8 C14 1_555 1_555
C15 C14 1_555 1_555
C16 C15 1_555 1_555
H9 C16 1_555 1_555
C17 C16 1_555 1_555
H10 C17 1_555 1_555
C18 H11 1_555 1_555
C19 C18 1_555 1_555
H12 C19 1_555 1_555
C20 C19 1_555 1_555
C21_2 C20 1_555 1_555
H13_2 C21_2 1_555 1_555
C22_2 C21_2 1_555 1_555
H14_2 C22_2 1_555 1_555
N1 C13 1_555 1_555
N2 Cd1 1_555 1_555
N3_2 C20 1_555 1_555
O1 Cd1 1_555 1_555
O2 Cd1 1_555 1_555
O3 C12 1_555 1_555
O4 C12 1_555 1_555
O5 Cd1 1_555 1_555
H16 O5 1_555 1_555
Cd3 O3 1_555 1_555
Cd4 N6 1_555 1_555
C40_2 H27_2 1_555 1_555
C41_2 C40_2 1_555 1_555
H28_2 C41_2 1_555 1_555
C42_2 C41_2 1_555 1_555
C43 C42_2 1_555 1_555
H29 C43 1_555 1_555
C44 C43 1_555 1_555
H30 C44 1_555 1_555
N6 C40_2 1_555 1_555
N8 N3_2 1_555 1_555
O8 Cd1 1_555 1_555
O11 Cd1 1_555 1_555
C1 O1 1_555 1_555
C1 O2 1_555 1_555
C8 C9 1_555 1_555
C10 C11 1_555 1_555
C17 N1 1_555 1_555
C18 N2 1_555 1_555
C22_2 N2 1_555 1_555
O4 Cd3 1_555 1_555
C42_2 N8 1_555 1_555
C44 N6 1_555 1_555
C1_2 C2_2 1_555 1_555
C2_2 C3_2 1_555 1_555
C3_2 H1_2 1_555 1_555
C4_2 C3_2 1_555 1_555
C5_2 C4_2 1_555 1_555
H2_2 C5_2 1_555 1_555
C6_2 C5_2 1_555 1_555
H3_2 C6_2 1_555 1_555
C7_2 C6_2 1_555 1_555
H4 C7_2 1_555 1_555
C8_2 C7_2 1_555 1_555
H5 C8_2 1_555 1_555
C9_2 C4_2 1_555 1_555
C10_2 C9_2 1_555 1_555
H6_2 C10_2 1_555 1_555
C11_2 C2_2 1_555 1_555
C12_2 C11_2 1_555 1_555
C18_2 H11_2 1_555 1_555
C19_2 C18_2 1_555 1_555
H12_2 C19_2 1_555 1_555
O3_2 C12_2 1_555 1_555
O4_2 C12_2 1_555 1_555
Cd4 O3_2 1_555 1_555
Cd3 N6_2 1_555 1_555
C43_2 C42_3 1_555 1_555
H29_2 C43_2 1_555 1_555
C44_2 C43_2 1_555 1_555
H30_2 C44_2 1_555 1_555
C1_2 O1_2 1_555 1_555
C1_2 O2_2 1_555 1_555
C8_2 C9_2 1_555 1_555
C10_2 C11_2 1_555 1_555
O4_2 Cd4 1_555 1_555
C42_3 N8_2 1_555 1_555
C44_2 N6_2 1_555 1_555
Cd1_2 N1_2 1_555 1_555
C13_2 H7_2 1_555 1_555
C14_2 C13_2 1_555 1_555
H8_2 C14_2 1_555 1_555
C15_2 C14_2 1_555 1_555
C16_2 C15_2 1_555 1_555
H9_2 C16_2 1_555 1_555
C17_2 C16_2 1_555 1_555
H10_2 C17_2 1_555 1_555
C21_3 C20_2 1_555 1_555
H13_3 C21_3 1_555 1_555
C22_3 C21_3 1_555 1_555
H14_3 C22_3 1_555 1_555
N1_2 C13_2 1_555 1_555
N2_2 Cd1_2 1_555 1_555
N3_3 C20_2 1_555 1_555
N4_2 C15_2 1_555 1_555
O5_2 Cd1_2 1_555 1_555
H16_2 O5_2 1_555 1_555
Cd2_2 N5_2 1_555 1_555
C35_2 H23_2 1_555 1_555
C36_2 C35_2 1_555 1_555
H24_2 C36_2 1_555 1_555
C37_2 C36_2 1_555 1_555
C38_2 C37_2 1_555 1_555
H25_2 C38_2 1_555 1_555
C39_2 C38_2 1_555 1_555
H26_2 C39_2 1_555 1_555
C40_3 H27_3 1_555 1_555
C41_3 C40_3 1_555 1_555
H28_3 C41_3 1_555 1_555
N5_2 C35_2 1_555 1_555
N7_2 Cd2_2 1_555 1_555
N9_2 N4_2 1_555 1_555
O8_2 Cd1_2 1_555 1_555
O11_2 Cd1_2 1_555 1_555
O14_2 Cd2_2 1_555 1_555
H31_2 O14_2 1_555 1_555
H32_2 O14_2 1_555 1_555
C17_2 N1_2 1_555 1_555
C22_3 N2_2 1_555 1_555
C37_2 N9_2 1_555 1_555
C39_2 N5_2 1_555 1_555
C23_2 C24_2 1_555 1_555
C24_2 C25_2 1_555 1_555
C25_2 H17_2 1_555 1_555
C26_2 C25_2 1_555 1_555
C27_2 C26_2 1_555 1_555
H18_2 C27_2 1_555 1_555
C28_2 C27_2 1_555 1_555
H19_2 C28_2 1_555 1_555
C29_2 C28_2 1_555 1_555
H20_2 C29_2 1_555 1_555
C30_2 C29_2 1_555 1_555
H21_2 C30_2 1_555 1_555
C31_2 C26_2 1_555 1_555
C32_2 C31_2 1_555 1_555
H22_2 C32_2 1_555 1_555
C33_2 C24_2 1_555 1_555
C34_2 C33_2 1_555 1_555
O10_2 C34_2 1_555 1_555
C23_2 O6_2 1_555 1_555
C23_2 O7_2 1_555 1_555
C30_2 C31_2 1_555 1_555
C32_2 C33_2 1_555 1_555
C34_2 O13_2 1_555 1_555
H29_3 C43_3 1_555 1_555
C44_3 C43_3 1_555 1_555
H30_3 C44_3 1_555 1_555
H13_4 C21_4 1_555 1_555
C22_4 C21_4 1_555 1_555
H14_4 C22_4 1_555 1_555
Cd4 N5_3 1_555 1_555
C23_3 C24_3 1_555 1_555
C24_3 C25_3 1_555 1_555
C25_3 H17_3 1_555 1_555
C26_3 C25_3 1_555 1_555
C27_3 C26_3 1_555 1_555
H18_3 C27_3 1_555 1_555
C28_3 C27_3 1_555 1_555
H19_3 C28_3 1_555 1_555
C29_3 C28_3 1_555 1_555
C30_3 C29_3 1_555 1_555
C31_3 C26_3 1_555 1_555
C32_3 C31_3 1_555 1_555
H22_3 C32_3 1_555 1_555
C33_3 C24_3 1_555 1_555
C34_3 C33_3 1_555 1_555
C35_3 H23_3 1_555 1_555
C36_3 C35_3 1_555 1_555
H24_3 C36_3 1_555 1_555
C37_3 C36_3 1_555 1_555
C38_3 C37_3 1_555 1_555
H25_3 C38_3 1_555 1_555
C39_3 C38_3 1_555 1_555
H26_3 C39_3 1_555 1_555
N5_3 C35_3 1_555 1_555
O6_3 Cd4 1_555 1_555
O7_3 Cd4 1_555 1_555
O8_2 C34_3 1_555 1_555
O14_3 Cd4 1_555 1_555
H32_3 O14_3 1_555 1_555
C23_3 O6_3 1_555 1_555
C23_3 O7_3 1_555 1_555
C30_3 C31_3 1_555 1_555
C32_3 C33_3 1_555 1_555
C34_3 O11_2 1_555 1_555
C39_3 N5_3 1_555 1_555
C1_3 C2_3 1_555 1_555
C2_3 C3_3 1_555 1_555
C3_3 H1_3 1_555 1_555
C4_3 C3_3 1_555 1_555
C5_3 C4_3 1_555 1_555
H2_3 C5_3 1_555 1_555
C6_3 C5_3 1_555 1_555
H3_3 C6_3 1_555 1_555
C7_3 C6_3 1_555 1_555
H4_2 C7_3 1_555 1_555
C8_3 C7_3 1_555 1_555
H5_2 C8_3 1_555 1_555
C9_3 C4_3 1_555 1_555
C10_3 C9_3 1_555 1_555
H6_3 C10_3 1_555 1_555
C11_3 C2_3 1_555 1_555
C12_3 C11_3 1_555 1_555
C18_3 H11_3 1_555 1_555
C19_3 C18_3 1_555 1_555
H12_3 C19_3 1_555 1_555
O9 C12_3 1_555 1_555
O12 C12_3 1_555 1_555
C1_3 O1_3 1_555 1_555
C1_3 O2_3 1_555 1_555
C8_3 C9_3 1_555 1_555
C10_3 C11_3 1_555 1_555
Cd5 N1_3 1_555 1_555
C13_3 H7_3 1_555 1_555
C14_3 C13_3 1_555 1_555
H8_3 C14_3 1_555 1_555
C15_3 C14_3 1_555 1_555
C16_3 C15_3 1_555 1_555
H9_3 C16_3 1_555 1_555
C17_3 C16_3 1_555 1_555
H10_3 C17_3 1_555 1_555
N1_3 C13_3 1_555 1_555
N2_3 Cd5 1_555 1_555
N4_4 C15_3 1_555 1_555
O5_3 Cd5 1_555 1_555
H15 O5_3 1_555 1_555
H16_3 O5_3 1_555 1_555
Cd3 N5_4 1_555 1_555
C35_4 H23_4 1_555 1_555
C36_4 C35_4 1_555 1_555
H24_4 C36_4 1_555 1_555
C37_4 C36_4 1_555 1_555
C38_4 C37_4 1_555 1_555
H25_4 C38_4 1_555 1_555
C39_4 C38_4 1_555 1_555
H26_4 C39_4 1_555 1_555
N5_4 C35_4 1_555 1_555
N9_3 N4_4 1_555 1_555
O14_4 Cd3 1_555 1_555
H32_4 O14_4 1_555 1_555
C17_3 N1_3 1_555 1_555
C37_4 N9_3 1_555 1_555
C39_4 N5_4 1_555 1_555
C23_4 C24_4 1_555 1_555
C24_4 C25_4 1_555 1_555
C25_4 H17_4 1_555 1_555
C26_4 C25_4 1_555 1_555
C27_4 C26_4 1_555 1_555
H18_4 C27_4 1_555 1_555
C28_4 C27_4 1_555 1_555
H19_4 C28_4 1_555 1_555
C29_4 C28_4 1_555 1_555
H20_3 C29_4 1_555 1_555
C30_4 C29_4 1_555 1_555
H21_3 C30_4 1_555 1_555
C31_4 C26_4 1_555 1_555
C32_4 C31_4 1_555 1_555
H22_4 C32_4 1_555 1_555
C33_4 C24_4 1_555 1_555
C34_4 C33_4 1_555 1_555
O8 C34_4 1_555 1_555
C23_4 O6_4 1_555 1_555
C23_4 O7_4 1_555 1_555
C30_4 C31_4 1_555 1_555
C32_4 C33_4 1_555 1_555
C34_4 O11 1_555 1_555
C40_4 H27_4 1_555 1_555
C41_4 C40_4 1_555 1_555
H28_4 C41_4 1_555 1_555
Cd5_2 N1_4 1_555 1_555
C1_4 C2_4 1_555 1_555
C2_4 C3_4 1_555 1_555
C3_4 H1_4 1_555 1_555
C4_4 C3_4 1_555 1_555
C5_4 C4_4 1_555 1_555
H2_4 C5_4 1_555 1_555
C6_4 C5_4 1_555 1_555
H3_4 C6_4 1_555 1_555
C7_4 C6_4 1_555 1_555
C8_4 C7_4 1_555 1_555
C9_4 C4_4 1_555 1_555
C10_4 C9_4 1_555 1_555
H6_4 C10_4 1_555 1_555
C11_4 C2_4 1_555 1_555
C12_4 C11_4 1_555 1_555
C13_4 H7_4 1_555 1_555
C14_4 C13_4 1_555 1_555
H8_4 C14_4 1_555 1_555
C15_4 C14_4 1_555 1_555
C16_4 C15_4 1_555 1_555
H9_4 C16_4 1_555 1_555
C17_4 C16_4 1_555 1_555
H10_4 C17_4 1_555 1_555
C18_4 H11_4 1_555 1_555
C19_4 C18_4 1_555 1_555
H12_4 C19_4 1_555 1_555
C20_4 C19_4 1_555 1_555
N1_4 C13_4 1_555 1_555
N2_4 Cd5_2 1_555 1_555
O1_4 Cd5_2 1_555 1_555
O2_4 Cd5_2 1_555 1_555
O9_2 C12_4 1_555 1_555
O12_2 C12_4 1_555 1_555
O5_4 Cd5_2 1_555 1_555
H15_4 O5_4 1_555 1_555
H16_4 O5_4 1_555 1_555
C1_4 O1_4 1_555 1_555
C1_4 O2_4 1_555 1_555
C8_4 C9_4 1_555 1_555
C10_4 C11_4 1_555 1_555
C17_4 N1_4 1_555 1_555
C18_4 N2_4 1_555 1_555
H29_4 C43_4 1_555 1_555
C44_4 C43_4 1_555 1_555
H30_4 C44_4 1_555 1_555

#END
