
###############################################################################
#
# This file contains modified crystal structure data generated from the
# MOF subset of the Cambridge Structural Database (CSD) v543 
# hosted by the Cambridge Crystallographic Data Centre (CCDC).
#
# This work is licensed under the Creative Commons
# Attribution-NonCommercial-ShareAlike 4.0 International License.
# To view a copy of this license, visit
# http://creativecommons.org/licenses/by-nc-sa/4.0/
# or send a letter to
# Creative Commons, PO Box 1866, Mountain View, CA 94042, USA.
#
# CIF created using the CSD Python API on 29 September 2022
# The structure has been converted into the P1 space group
# The structure has a 3D framework
# The original CSD entry UNOBUX is in the orthorhombic crystal system
# The framework has been calculated to contain at least 10.0% void space
# The void calculation uses a probe of radius 1.32A, grid spacing 0.4
#
###############################################################################

data_UNOBUX
_chemical_formula_moiety         '(C640 H480 Co44 N64 O214 S96)n'
_symmetry_cell_setting           triclinic
_symmetry_space_group_name_H-M   'P 1'
_symmetry_Int_Tables_number      1
_space_group_name_Hall           'P 1'
loop_
_symmetry_equiv_pos_site_id
_symmetry_equiv_pos_as_xyz
1 x,y,z
_cell_length_a                   11.746(2)
_cell_length_b                   42.150(4)
_cell_length_c                   51.849(2)
_cell_angle_alpha                90
_cell_angle_beta                 90
_cell_angle_gamma                90
_cell_volume                     25670.1
loop_
_atom_site_label
_atom_site_type_symbol
_atom_site_fract_x
_atom_site_fract_y
_atom_site_fract_z
Co9 Co -0.000000 0.750000 0.750000
Co1 Co 0.49059(2) 0.45282(2) 0.74160(2)
Co2 Co 0.250000 0.500000 0.750000
N1 N 0.42183(15) 0.40556(4) 0.74213(3)
C1 C 0.48745(18) 0.37953(5) 0.74201(5)
H1 H 0.567852 0.381932 0.741629
C2 C 0.44145(19) 0.34908(5) 0.74242(4)
H2 H 0.490973 0.331275 0.742907
O1 O 0.42166(12) 0.45918(4) 0.70643(3)
O2 O 0.24111(11) 0.47173(3) 0.71721(3)
C3 C 0.31748(17) 0.46351(5) 0.70151(4)
C4 C 0.28263(17) 0.45814(5) 0.67443(4)
C5 C 0.34927(19) 0.45309(6) 0.65341(4)
H3 H 0.429901 0.451582 0.654130
C6 C 0.2858(2) 0.45032(6) 0.63035(4)
H4 H 0.319037 0.446908 0.613886
C7 C 0.17085(18) 0.45310(5) 0.63439(4)
S1 S 0.14091(4) 0.45943(2) 0.66645(2)
O3 O 0.55218(12) 0.49843(3) 0.74111(3)
O4 O 0.38790(12) 0.52573(3) 0.73636(3)
C8 C 0.49429(16) 0.52283(4) 0.73632(4)
C9 C 0.56140(17) 0.55190(5) 0.73059(4)
C10 C 0.67522(19) 0.55481(5) 0.72553(5)
H5 H 0.725546 0.537226 0.724333
C11 C 0.71017(19) 0.58647(5) 0.72227(5)
H6 H 0.786602 0.592448 0.718762
C12 C 0.62283(19) 0.60786(5) 0.72468(5)
S2 S 0.49572(4) 0.58853(2) 0.73081(2)
O5 O 0.14373(11) 0.53510(3) 0.73186(3)
C13 C 0.07744(17) 0.54126(5) 0.71299(4)
C14 C 0.12064(19) 0.53963(5) 0.68652(4)
C15 C 0.23095(19) 0.53734(5) 0.67826(4)
H7 H 0.294421 0.535867 0.689551
C16 C 0.2401(2) 0.53742(6) 0.65111(4)
H8 H 0.310748 0.536190 0.642237
C17 C 0.1365(2) 0.53947(5) 0.63873(4)
S3 S 0.02707(5) 0.54217(2) 0.66085(2)
O7 O 0.64025(12) 0.43567(3) 0.72646(3)
C18 C 0.7135(2) 0.45465(6) 0.71849(6)
H9 H 0.698506 0.476586 0.720998
N2 N 0.8085(2) 0.44732(6) 0.70705(5)
C19 C 0.8898(3) 0.47139(10) 0.69907(8)
H10 H 0.966176 0.465396 0.704924
H11 H 0.868743 0.491846 0.706687
H12 H 0.889355 0.473162 0.680227
C20 C 0.8401(3) 0.41490(9) 0.70276(8)
H13 H 0.917419 0.411328 0.709268
H14 H 0.837766 0.410302 0.684241
H15 H 0.786892 0.400913 0.711838
N3 N 0.32817(15) 0.34444(4) 0.74213(3)
C21 C 0.26255(18) 0.37047(5) 0.74201(5)
H16 H 0.182148 0.368068 0.741629
C22 C 0.30855(19) 0.40092(5) 0.74242(4)
H17 H 0.259027 0.418725 0.742907
O9 O 0.00889(11) 0.47173(3) 0.53279(3)
C27 C 0.07915(18) 0.45310(5) 0.61561(4)
S4 S 0.10909(4) 0.45943(2) 0.58355(2)
O10 O 0.69782(12) 0.75157(3) 0.74111(3)
O11 O 0.86210(12) 0.72427(3) 0.73636(3)
C28 C 0.75571(16) 0.72717(4) 0.73632(4)
C29 C 0.68860(17) 0.69810(5) 0.73059(4)
C30 C 0.57478(19) 0.69519(5) 0.72553(5)
H20 H 0.524454 0.712774 0.724333
C31 C 0.53983(19) 0.66353(5) 0.72227(5)
H21 H 0.463398 0.657552 0.718762
C32 C 0.62717(19) 0.64214(5) 0.72468(5)
S5 S 0.75428(4) 0.66147(2) 0.73081(2)
O12 O 0.10627(11) 0.53510(3) 0.51814(3)
O13 O 0.27372(12) 0.54991(4) 0.53278(3)
C33 C 0.17256(17) 0.54126(5) 0.53701(4)
C34 C 0.12936(19) 0.53963(5) 0.56348(4)
C35 C 0.01905(19) 0.53734(5) 0.57174(4)
C36 C 0.0099(2) 0.53742(6) 0.59889(4)
C37 C 0.1135(2) 0.53947(5) 0.61127(4)
S6 S 0.22293(5) 0.54217(2) 0.58915(2)
Co3 Co 0.25941(2) 0.29718(2) 0.74160(2)
O14 O 0.10975(12) 0.31433(3) 0.72646(3)
C38 C 0.0365(2) 0.29535(6) 0.71849(6)
H24 H 0.051494 0.273414 0.720998
Co5 Co 0.75941(2) 0.79718(2) 0.74160(2)
Co6 Co 0.00941(2) 0.54718(2) 0.75840(2)
Co7 Co 0.24059(2) 0.54718(2) 0.49160(2)
Co8 Co 0.000000 0.500000 0.500000
Co9_2 Co 1.000000 0.750000 0.750000
O15 O 0.32834(12) 0.29082(4) 0.70643(3)
O16 O 0.25889(11) 0.52827(3) 0.78279(3)
O17 O 0.19782(12) 0.25157(3) 0.74111(3)
O18 O 0.11210(12) 0.47427(3) 0.76364(3)
O19 O 0.39373(11) 0.28510(3) 0.76814(3)
O20 O 0.35627(11) 0.46490(3) 0.76814(3)
O21 O 0.22628(12) 0.29991(4) 0.78278(3)
O22 O 0.52372(12) 0.45009(4) 0.78278(3)
O6 O 0.97628(12) 0.54991(4) 0.71722(3)
O8 O 0.82834(12) 0.45918(4) 0.54357(3)
C23 C 0.93252(17) 0.46351(5) 0.54849(4)
C24 C 0.96737(17) 0.45814(5) 0.57557(4)
C25 C 0.90073(19) 0.45309(6) 0.59659(4)
H18 H 0.820099 0.451582 0.595870
C26 C 0.9642(2) 0.45032(6) 0.61965(4)
H19 H 0.930963 0.446908 0.636114
H22 H 0.955579 0.535867 0.560449
H23 H 0.939252 0.536190 0.607763
N4 N 0.9415(2) 0.30268(6) 0.70705(5)
C39 C 0.8602(3) 0.27861(10) 0.69907(8)
H25 H 0.783824 0.284604 0.704924
H26 H 0.881257 0.258154 0.706687
H27 H 0.860645 0.276838 0.680227
C40 C 0.9099(3) 0.33510(9) 0.70276(8)
H28 H 0.832581 0.338672 0.709268
H29 H 0.912234 0.339698 0.684241
H30 H 0.963108 0.349087 0.711838
Co4 Co 0.75941(2) 0.45282(2) 0.50840(2)
Co8_2 Co 1.000000 0.500000 0.500000
Co2_2 Co 0.500000 0.250000 0.750000
O2_2 O 0.50889(11) 0.27827(3) 0.71721(3)
C3_2 C 0.43252(17) 0.28649(5) 0.70151(4)
C4_2 C 0.46737(17) 0.29186(5) 0.67443(4)
C5_2 C 0.40073(19) 0.29691(6) 0.65341(4)
H3_2 H 0.320099 0.298418 0.654130
C6_2 C 0.4642(2) 0.29968(6) 0.63035(4)
H4_2 H 0.430963 0.303092 0.613886
C7_2 C 0.57915(18) 0.29690(5) 0.63439(4)
S1_2 S 0.60909(4) 0.29057(2) 0.66645(2)
O4_2 O 0.36210(12) 0.22427(3) 0.73636(3)
C8_2 C 0.25571(16) 0.22717(4) 0.73632(4)
C9_2 C 0.18860(17) 0.19810(5) 0.73059(4)
C10_2 C 0.07478(19) 0.19519(5) 0.72553(5)
H5_2 H 0.024454 0.212774 0.724333
C11_2 C 0.03983(19) 0.16353(5) 0.72227(5)
C12_2 C 0.12717(19) 0.14214(5) 0.72468(5)
S2_2 S 0.25428(4) 0.16147(2) 0.73081(2)
O5_2 O 0.60627(11) 0.21490(3) 0.73186(3)
O6_2 O 0.77372(12) 0.20009(4) 0.71722(3)
C13_2 C 0.67256(17) 0.20874(5) 0.71299(4)
C14_2 C 0.62936(19) 0.21037(5) 0.68652(4)
C15_2 C 0.51905(19) 0.21266(5) 0.67826(4)
H7_2 H 0.455579 0.214133 0.689551
C16_2 C 0.5099(2) 0.21258(6) 0.65111(4)
H8_2 H 0.439252 0.213810 0.642237
C17_2 C 0.6135(2) 0.21053(5) 0.63873(4)
S3_2 S 0.72293(5) 0.20783(2) 0.66085(2)
O8_2 O 0.92166(12) 0.29082(4) 0.54357(3)
O9_2 O 0.74111(11) 0.27827(3) 0.53279(3)
C23_2 C 0.81748(17) 0.28649(5) 0.54849(4)
C24_2 C 0.78263(17) 0.29186(5) 0.57557(4)
C25_2 C 0.84927(19) 0.29691(6) 0.59659(4)
H18_2 H 0.929901 0.298418 0.595870
C26_2 C 0.7858(2) 0.29968(6) 0.61965(4)
H19_2 H 0.819037 0.303092 0.636114
C27_2 C 0.67085(18) 0.29690(5) 0.61561(4)
S4_2 S 0.64091(4) 0.29057(2) 0.58355(2)
C29_2 C 0.06140(17) 0.05190(5) 0.73059(4)
C30_2 C 0.17522(19) 0.05481(5) 0.72553(5)
H20_2 H 0.225546 0.037226 0.724333
C31_2 C 0.21017(19) 0.08647(5) 0.72227(5)
H21_2 H 0.286602 0.092448 0.718762
C32_2 C 0.12283(19) 0.10786(5) 0.72468(5)
O12_2 O 0.64373(11) 0.21490(3) 0.51814(3)
O13_2 O 0.47628(12) 0.20009(4) 0.53278(3)
C33_2 C 0.57744(17) 0.20874(5) 0.53701(4)
C34_2 C 0.62064(19) 0.21037(5) 0.56348(4)
C35_2 C 0.73095(19) 0.21266(5) 0.57174(4)
H22_2 H 0.794421 0.214133 0.560449
C36_2 C 0.7401(2) 0.21258(6) 0.59889(4)
H23_2 H 0.810748 0.213810 0.607763
C37_2 C 0.6365(2) 0.21053(5) 0.61127(4)
S6_2 S 0.52707(5) 0.20783(2) 0.58915(2)
Co4_2 Co 0.99059(2) 0.29718(2) 0.50840(2)
Co6_2 Co 0.74059(2) 0.20282(2) 0.75840(2)
Co7_2 Co 0.50941(2) 0.20282(2) 0.49160(2)
Co8_3 Co 0.750000 0.250000 0.500000
O16_2 O 0.49111(11) 0.22173(3) 0.78279(3)
O18_2 O 0.63790(12) 0.27573(3) 0.76364(3)
O10_2 O 0.05218(12) 0.99843(3) 0.74111(3)
H6_2 H 0.963398 0.157552 0.718762
O11_2 O 0.88790(12) 0.02573(3) 0.73636(3)
C28_2 C 0.99429(16) 0.02283(4) 0.73632(4)
S5_2 S 0.99572(4) 0.08853(2) 0.73081(2)
Co9_3 Co 0.750000 0.000000 0.750000
Co5_2 Co 0.99059(2) 0.95282(2) 0.74160(2)
Co9_4 Co 0.750000 1.000000 0.750000
Co1_2 Co 0.25941(2) 0.45282(2) 0.00840(2)
Co2_3 Co 0.500000 0.500000 -0.000000
N1_2 N 0.32817(15) 0.40556(4) 0.00787(3)
C1_2 C 0.26255(18) 0.37953(5) 0.00799(5)
H1_2 H 0.182148 0.381932 0.008371
C2_2 C 0.30855(19) 0.34908(5) 0.00758(4)
H2_2 H 0.259027 0.331275 0.007093
O1_2 O 0.32834(12) 0.45918(4) 0.04357(3)
O2_3 O 0.50889(11) 0.47173(3) 0.03279(3)
C3_3 C 0.43252(17) 0.46351(5) 0.04849(4)
C4_3 C 0.46737(17) 0.45814(5) 0.07557(4)
C5_3 C 0.40073(19) 0.45309(6) 0.09659(4)
H3_3 H 0.320099 0.451582 0.095870
C6_3 C 0.4642(2) 0.45032(6) 0.11965(4)
H4_3 H 0.430963 0.446908 0.136114
C7_3 C 0.57915(18) 0.45310(5) 0.11561(4)
S1_3 S 0.60909(4) 0.45943(2) 0.08355(2)
O3_2 O 0.19782(12) 0.49843(3) 0.00889(3)
O4_3 O 0.36210(12) 0.52573(3) 0.01364(3)
C8_3 C 0.25571(16) 0.52283(4) 0.01368(4)
C9_3 C 0.18860(17) 0.55190(5) 0.01941(4)
C10_3 C 0.07478(19) 0.55481(5) 0.02447(5)
H5_3 H 0.024454 0.537226 0.025667
C11_3 C 0.03983(19) 0.58647(5) 0.02773(5)
C12_3 C 0.12717(19) 0.60786(5) 0.02532(5)
S2_3 S 0.25428(4) 0.58853(2) 0.01919(2)
O5_3 O 0.60627(11) 0.53510(3) 0.01814(3)
O6_3 O 0.77372(12) 0.54991(4) 0.03278(3)
C13_3 C 0.67256(17) 0.54126(5) 0.03701(4)
C14_3 C 0.62936(19) 0.53963(5) 0.06348(4)
C15_3 C 0.51905(19) 0.53734(5) 0.07174(4)
H7_3 H 0.455579 0.535867 0.060449
C16_3 C 0.5099(2) 0.53742(6) 0.09889(4)
H8_3 H 0.439252 0.536190 0.107763
C17_3 C 0.6135(2) 0.53947(5) 0.11127(4)
S3_3 S 0.72293(5) 0.54217(2) 0.08915(2)
O7_2 O 0.10975(12) 0.43567(3) 0.02354(3)
C18_2 C 0.0365(2) 0.45465(6) 0.03151(6)
H9_2 H 0.051494 0.476586 0.029002
N3_2 N 0.42183(15) 0.34444(4) 0.00787(3)
C21_2 C 0.48745(18) 0.37047(5) 0.00799(5)
H16_2 H 0.567852 0.368068 0.008371
C22_2 C 0.44145(19) 0.40092(5) 0.00758(4)
H17_2 H 0.490973 0.418725 0.007093
O8_3 O 0.92166(12) 0.45918(4) 0.20643(3)
O9_3 O 0.74111(11) 0.47173(3) 0.21721(3)
C23_3 C 0.81748(17) 0.46351(5) 0.20151(4)
C24_3 C 0.78263(17) 0.45814(5) 0.17443(4)
C25_3 C 0.84927(19) 0.45309(6) 0.15341(4)
H18_3 H 0.929901 0.451582 0.154130
C26_3 C 0.7858(2) 0.45032(6) 0.13035(4)
H19_3 H 0.819037 0.446908 0.113886
C27_3 C 0.67085(18) 0.45310(5) 0.13439(4)
S4_3 S 0.64091(4) 0.45943(2) 0.16645(2)
O10_3 O 0.05218(12) 0.75157(3) 0.00889(3)
C29_3 C 0.06140(17) 0.69810(5) 0.01941(4)
C30_3 C 0.17522(19) 0.69519(5) 0.02447(5)
H20_3 H 0.225546 0.712774 0.025667
C31_3 C 0.21017(19) 0.66353(5) 0.02773(5)
H21_3 H 0.286602 0.657552 0.031238
C32_3 C 0.12283(19) 0.64214(5) 0.02532(5)
O12_3 O 0.64373(11) 0.53510(3) 0.23186(3)
O13_3 O 0.47628(12) 0.54991(4) 0.21722(3)
C33_3 C 0.57744(17) 0.54126(5) 0.21299(4)
C34_3 C 0.62064(19) 0.53963(5) 0.18652(4)
C35_3 C 0.73095(19) 0.53734(5) 0.17826(4)
H22_3 H 0.794421 0.535867 0.189551
C36_3 C 0.7401(2) 0.53742(6) 0.15111(4)
H23_3 H 0.810748 0.536190 0.142237
C37_3 C 0.6365(2) 0.53947(5) 0.13873(4)
S6_3 S 0.52707(5) 0.54217(2) 0.16085(2)
Co3_2 Co 0.49059(2) 0.29718(2) 0.00840(2)
O14_2 O 0.64025(12) 0.31433(3) 0.02354(3)
C38_2 C 0.7135(2) 0.29535(6) 0.03151(6)
H24_2 H 0.698506 0.273414 0.029002
N4_2 N 0.8085(2) 0.30268(6) 0.04295(5)
C39_2 C 0.8898(3) 0.27861(10) 0.05093(8)
H25_2 H 0.966176 0.284604 0.045076
H26_2 H 0.868743 0.258154 0.043313
H27_2 H 0.889355 0.276838 0.069773
C40_2 C 0.8401(3) 0.33510(9) 0.04724(8)
H28_2 H 0.917419 0.338672 0.040732
H29_2 H 0.837766 0.339698 0.065759
H30_2 H 0.786892 0.349087 0.038162
Co4_3 Co 0.99059(2) 0.45282(2) 0.24160(2)
Co7_3 Co 0.50941(2) 0.54718(2) 0.25840(2)
Co8_4 Co 0.750000 0.500000 0.250000
O15_2 O 0.42166(12) 0.29082(4) 0.04357(3)
O17_2 O 0.55218(12) 0.25157(3) 0.00889(3)
Co2_4 Co 0.500000 0.500000 1.000000
Co6_3 Co 0.74059(2) 0.54718(2) 0.99160(2)
O16_3 O 0.49111(11) 0.52827(3) 0.96721(3)
O18_3 O 0.63790(12) 0.47427(3) 0.98636(3)
O19_2 O 0.35627(11) 0.28510(3) 0.98186(3)
O20_2 O 0.39373(11) 0.46490(3) 0.98186(3)
O21_2 O 0.52372(12) 0.29991(4) 0.96722(3)
O22_2 O 0.22628(12) 0.45009(4) 0.96722(3)
H6_3 H 0.963398 0.592448 0.031238
N2_2 N 0.9415(2) 0.44732(6) 0.04295(5)
C19_2 C 0.8602(3) 0.47139(10) 0.05093(8)
H10_2 H 0.783824 0.465396 0.045076
H11_2 H 0.881257 0.491846 0.043313
H12_2 H 0.860645 0.473162 0.069773
C20_2 C 0.9099(3) 0.41490(9) 0.04724(8)
H13_2 H 0.832581 0.411328 0.040732
H14_2 H 0.912234 0.410302 0.065759
H15_2 H 0.963108 0.400913 0.038162
O11_3 O 0.88790(12) 0.72427(3) 0.01364(3)
C28_3 C 0.99429(16) 0.72717(4) 0.01368(4)
S5_3 S 0.99572(4) 0.66147(2) 0.01919(2)
Co5_3 Co 0.99059(2) 0.79718(2) 0.00840(2)
Co9_5 Co 0.750000 0.750000 -0.000000
Co9_6 Co 0.750000 0.750000 1.000000
Co9_7 Co -0.000000 0.000000 -0.000000
Co9_8 Co -0.000000 0.000000 1.000000
Co9_9 Co -0.000000 1.000000 -0.000000
Co9_10 Co -0.000000 1.000000 1.000000
Co2_5 Co 0.250000 0.250000 -0.000000
O2_4 O 0.24111(11) 0.27827(3) 0.03279(3)
C3_4 C 0.31748(17) 0.28649(5) 0.04849(4)
C4_4 C 0.28263(17) 0.29186(5) 0.07557(4)
C5_4 C 0.34927(19) 0.29691(6) 0.09659(4)
H3_4 H 0.429901 0.298418 0.095870
C6_4 C 0.2858(2) 0.29968(6) 0.11965(4)
H4_4 H 0.319037 0.303092 0.136114
C7_4 C 0.17085(18) 0.29690(5) 0.11561(4)
S1_4 S 0.14091(4) 0.29057(2) 0.08355(2)
O4_4 O 0.38790(12) 0.22427(3) 0.01364(3)
C8_4 C 0.49429(16) 0.22717(4) 0.01368(4)
C9_4 C 0.56140(17) 0.19810(5) 0.01941(4)
C10_4 C 0.67522(19) 0.19519(5) 0.02447(5)
H5_4 H 0.725546 0.212774 0.025667
C11_4 C 0.71017(19) 0.16353(5) 0.02773(5)
H6_4 H 0.786602 0.157552 0.031238
C12_4 C 0.62283(19) 0.14214(5) 0.02532(5)
S2_4 S 0.49572(4) 0.16147(2) 0.01919(2)
O5_4 O 0.14373(11) 0.21490(3) 0.01814(3)
C13_4 C 0.07744(17) 0.20874(5) 0.03701(4)
C14_4 C 0.12064(19) 0.21037(5) 0.06348(4)
C15_4 C 0.23095(19) 0.21266(5) 0.07174(4)
H7_4 H 0.294421 0.214133 0.060449
C16_4 C 0.2401(2) 0.21258(6) 0.09889(4)
H8_4 H 0.310748 0.213810 0.107763
C17_4 C 0.1365(2) 0.21053(5) 0.11127(4)
S3_4 S 0.02707(5) 0.20783(2) 0.08915(2)
O9_4 O 0.00889(11) 0.27827(3) 0.21721(3)
C27_4 C 0.07915(18) 0.29690(5) 0.13439(4)
S4_4 S 0.10909(4) 0.29057(2) 0.16645(2)
O11_4 O 0.86210(12) 0.02573(3) 0.01364(3)
C28_4 C 0.75571(16) 0.02283(4) 0.01368(4)
C29_4 C 0.68860(17) 0.05190(5) 0.01941(4)
C30_4 C 0.57478(19) 0.05481(5) 0.02447(5)
H20_4 H 0.524454 0.037226 0.025667
C31_4 C 0.53983(19) 0.08647(5) 0.02773(5)
H21_4 H 0.463398 0.092448 0.031238
C32_4 C 0.62717(19) 0.10786(5) 0.02532(5)
S5_4 S 0.75428(4) 0.08853(2) 0.01919(2)
O12_4 O 0.10627(11) 0.21490(3) 0.23186(3)
O13_4 O 0.27372(12) 0.20009(4) 0.21722(3)
C33_4 C 0.17256(17) 0.20874(5) 0.21299(4)
C34_4 C 0.12936(19) 0.21037(5) 0.18652(4)
C35_4 C 0.01905(19) 0.21266(5) 0.17826(4)
C36_4 C 0.0099(2) 0.21258(6) 0.15111(4)
C37_4 C 0.1135(2) 0.21053(5) 0.13873(4)
S6_4 S 0.22293(5) 0.20783(2) 0.16085(2)
Co7_4 Co 0.24059(2) 0.20282(2) 0.25840(2)
Co8_5 Co 0.000000 0.250000 0.250000
Co9_11 Co 1.000000 0.000000 -0.000000
Co2_6 Co 0.250000 0.250000 1.000000
Co6_4 Co 0.00941(2) 0.20282(2) 0.99160(2)
Co9_12 Co 1.000000 0.000000 1.000000
O16_4 O 0.25889(11) 0.22173(3) 0.96721(3)
O18_4 O 0.11210(12) 0.27573(3) 0.98636(3)
O10_4 O 0.69782(12) 0.99843(3) 0.00889(3)
Co5_4 Co 0.75941(2) 0.95282(2) 0.00840(2)
Co9_13 Co 1.000000 1.000000 -0.000000
Co9_14 Co 1.000000 1.000000 1.000000
O6_4 O 0.97628(12) 0.20009(4) 0.03278(3)
O8_4 O 0.82834(12) 0.29082(4) 0.20643(3)
C23_4 C 0.93252(17) 0.28649(5) 0.20151(4)
C24_4 C 0.96737(17) 0.29186(5) 0.17443(4)
C25_4 C 0.90073(19) 0.29691(6) 0.15341(4)
H18_4 H 0.820099 0.298418 0.154130
C26_4 C 0.9642(2) 0.29968(6) 0.13035(4)
H19_4 H 0.930963 0.303092 0.113886
H22_4 H 0.955579 0.214133 0.189551
H23_4 H 0.939252 0.213810 0.142237
Co4_4 Co 0.75941(2) 0.29718(2) 0.24160(2)
Co8_6 Co 1.000000 0.250000 0.250000
Co2_7 Co 0.250000 0.000000 0.250000
O4_5 O 0.38790(12) 0.02573(3) 0.23636(3)
C8_5 C 0.49429(16) 0.02283(4) 0.23632(4)
C9_5 C 0.56140(17) 0.05190(5) 0.23059(4)
C10_5 C 0.67522(19) 0.05481(5) 0.22553(5)
H5_5 H 0.725546 0.037226 0.224333
C11_5 C 0.71017(19) 0.08647(5) 0.22227(5)
H6_5 H 0.786602 0.092448 0.218762
C12_5 C 0.62283(19) 0.10786(5) 0.22468(5)
S2_5 S 0.49572(4) 0.08853(2) 0.23081(2)
O5_5 O 0.14373(11) 0.03510(3) 0.23186(3)
C13_5 C 0.07744(17) 0.04126(5) 0.21299(4)
C14_5 C 0.12064(19) 0.03963(5) 0.18652(4)
C15_5 C 0.23095(19) 0.03734(5) 0.17826(4)
H7_5 H 0.294421 0.035867 0.189551
C16_5 C 0.2401(2) 0.03742(6) 0.15111(4)
H8_5 H 0.310748 0.036190 0.142237
C17_5 C 0.1365(2) 0.03947(5) 0.13873(4)
S3_5 S 0.02707(5) 0.04217(2) 0.16085(2)
O10_5 O 0.69782(12) 0.25157(3) 0.24111(3)
O11_5 O 0.86210(12) 0.22427(3) 0.23636(3)
C28_5 C 0.75571(16) 0.22717(4) 0.23632(4)
C29_5 C 0.68860(17) 0.19810(5) 0.23059(4)
C30_5 C 0.57478(19) 0.19519(5) 0.22553(5)
H20_5 H 0.524454 0.212774 0.224333
C31_5 C 0.53983(19) 0.16353(5) 0.22227(5)
H21_5 H 0.463398 0.157552 0.218762
C32_5 C 0.62717(19) 0.14214(5) 0.22468(5)
S5_5 S 0.75428(4) 0.16147(2) 0.23081(2)
O12_5 O 0.10627(11) 0.03510(3) 0.01814(3)
O13_5 O 0.27372(12) 0.04991(4) 0.03278(3)
C33_5 C 0.17256(17) 0.04126(5) 0.03701(4)
C34_5 C 0.12936(19) 0.03963(5) 0.06348(4)
C35_5 C 0.01905(19) 0.03734(5) 0.07174(4)
C36_5 C 0.0099(2) 0.03742(6) 0.09889(4)
C37_5 C 0.1135(2) 0.03947(5) 0.11127(4)
S6_5 S 0.22293(5) 0.04217(2) 0.08915(2)
Co6_5 Co 0.00941(2) 0.04718(2) 0.25840(2)
O16_5 O 0.25889(11) 0.02827(3) 0.28279(3)
Co7_5 Co 0.24059(2) 0.04718(2) 0.99160(2)
Co1_3 Co 0.49059(2) 0.95282(2) 0.24160(2)
Co2_8 Co 0.250000 1.000000 0.250000
N1_3 N 0.42183(15) 0.90556(4) 0.24213(3)
C1_3 C 0.48745(18) 0.87953(5) 0.24201(5)
H1_3 H 0.567852 0.881932 0.241629
C2_3 C 0.44145(19) 0.84908(5) 0.24242(4)
H2_3 H 0.490973 0.831275 0.242907
O1_3 O 0.42166(12) 0.95918(4) 0.20643(3)
O2_5 O 0.24111(11) 0.97173(3) 0.21721(3)
C3_5 C 0.31748(17) 0.96351(5) 0.20151(4)
C4_5 C 0.28263(17) 0.95814(5) 0.17443(4)
C5_5 C 0.34927(19) 0.95309(6) 0.15341(4)
H3_5 H 0.429901 0.951582 0.154130
C6_5 C 0.2858(2) 0.95032(6) 0.13035(4)
H4_5 H 0.319037 0.946908 0.113886
C7_5 C 0.17085(18) 0.95310(5) 0.13439(4)
S1_5 S 0.14091(4) 0.95943(2) 0.16645(2)
O3_3 O 0.55218(12) 0.99843(3) 0.24111(3)
O7_3 O 0.64025(12) 0.93567(3) 0.22646(3)
C18_3 C 0.7135(2) 0.95465(6) 0.21849(6)
H9_3 H 0.698506 0.976586 0.220998
N2_3 N 0.8085(2) 0.94732(6) 0.20705(5)
C19_3 C 0.8898(3) 0.97139(10) 0.19907(8)
H10_3 H 0.966176 0.965396 0.204924
H11_3 H 0.868743 0.991846 0.206687
H12_3 H 0.889355 0.973162 0.180227
C20_3 C 0.8401(3) 0.91490(9) 0.20276(8)
H13_3 H 0.917419 0.911328 0.209268
H14_3 H 0.837766 0.910302 0.184241
H15_3 H 0.786892 0.900913 0.211838
N3_3 N 0.32817(15) 0.84444(4) 0.24213(3)
C21_3 C 0.26255(18) 0.87047(5) 0.24201(5)
H16_3 H 0.182148 0.868068 0.241629
C22_3 C 0.30855(19) 0.90092(5) 0.24242(4)
H17_3 H 0.259027 0.918725 0.242907
O9_5 O 0.00889(11) 0.97173(3) 0.03279(3)
C27_5 C 0.07915(18) 0.95310(5) 0.11561(4)
S4_5 S 0.10909(4) 0.95943(2) 0.08355(2)
Co3_3 Co 0.25941(2) 0.79718(2) 0.24160(2)
O14_3 O 0.10975(12) 0.81433(3) 0.22646(3)
C38_3 C 0.0365(2) 0.79535(6) 0.21849(6)
H24_3 H 0.051494 0.773414 0.220998
O15_3 O 0.32834(12) 0.79082(4) 0.20643(3)
O17_3 O 0.19782(12) 0.75157(3) 0.24111(3)
O18_5 O 0.11210(12) 0.97427(3) 0.26364(3)
O19_3 O 0.39373(11) 0.78510(3) 0.26814(3)
O20_3 O 0.35627(11) 0.96490(3) 0.26814(3)
O21_3 O 0.22628(12) 0.79991(4) 0.28278(3)
O22_3 O 0.52372(12) 0.95009(4) 0.28278(3)
O6_5 O 0.97628(12) 0.04991(4) 0.21722(3)
H22_5 H 0.955579 0.035867 0.060449
H23_5 H 0.939252 0.036190 0.107763
O8_5 O 0.82834(12) 0.95918(4) 0.04357(3)
C23_5 C 0.93252(17) 0.96351(5) 0.04849(4)
C24_5 C 0.96737(17) 0.95814(5) 0.07557(4)
C25_5 C 0.90073(19) 0.95309(6) 0.09659(4)
H18_5 H 0.820099 0.951582 0.095870
C26_5 C 0.9642(2) 0.95032(6) 0.11965(4)
H19_5 H 0.930963 0.946908 0.136114
N4_3 N 0.9415(2) 0.80268(6) 0.20705(5)
C39_3 C 0.8602(3) 0.77861(10) 0.19907(8)
H25_3 H 0.783824 0.784604 0.204924
H26_3 H 0.881257 0.758154 0.206687
H27_3 H 0.860645 0.776838 0.180227
C40_3 C 0.9099(3) 0.83510(9) 0.20276(8)
H28_3 H 0.832581 0.838672 0.209268
H29_3 H 0.912234 0.839698 0.184241
H30_3 H 0.963108 0.849087 0.211838
Co2_9 Co 0.500000 0.750000 0.250000
O2_6 O 0.50889(11) 0.77827(3) 0.21721(3)
C3_6 C 0.43252(17) 0.78649(5) 0.20151(4)
C4_6 C 0.46737(17) 0.79186(5) 0.17443(4)
C5_6 C 0.40073(19) 0.79691(6) 0.15341(4)
H3_6 H 0.320099 0.798418 0.154130
C6_6 C 0.4642(2) 0.79968(6) 0.13035(4)
H4_6 H 0.430963 0.803092 0.113886
C7_6 C 0.57915(18) 0.79690(5) 0.13439(4)
S1_6 S 0.60909(4) 0.79057(2) 0.16645(2)
O4_6 O 0.36210(12) 0.72427(3) 0.23636(3)
C8_6 C 0.25571(16) 0.72717(4) 0.23632(4)
C9_6 C 0.18860(17) 0.69810(5) 0.23059(4)
C10_6 C 0.07478(19) 0.69519(5) 0.22553(5)
H5_6 H 0.024454 0.712774 0.224333
C11_6 C 0.03983(19) 0.66353(5) 0.22227(5)
C12_6 C 0.12717(19) 0.64214(5) 0.22468(5)
S2_6 S 0.25428(4) 0.66147(2) 0.23081(2)
O5_6 O 0.60627(11) 0.71490(3) 0.23186(3)
O6_6 O 0.77372(12) 0.70009(4) 0.21722(3)
C13_6 C 0.67256(17) 0.70874(5) 0.21299(4)
C14_6 C 0.62936(19) 0.71037(5) 0.18652(4)
C15_6 C 0.51905(19) 0.71266(5) 0.17826(4)
H7_6 H 0.455579 0.714133 0.189551
C16_6 C 0.5099(2) 0.71258(6) 0.15111(4)
H8_6 H 0.439252 0.713810 0.142237
C17_6 C 0.6135(2) 0.71053(5) 0.13873(4)
S3_6 S 0.72293(5) 0.70783(2) 0.16085(2)
O8_6 O 0.92166(12) 0.79082(4) 0.04357(3)
O9_6 O 0.74111(11) 0.77827(3) 0.03279(3)
C23_6 C 0.81748(17) 0.78649(5) 0.04849(4)
C24_6 C 0.78263(17) 0.79186(5) 0.07557(4)
C25_6 C 0.84927(19) 0.79691(6) 0.09659(4)
H18_6 H 0.929901 0.798418 0.095870
C26_6 C 0.7858(2) 0.79968(6) 0.11965(4)
H19_6 H 0.819037 0.803092 0.136114
C27_6 C 0.67085(18) 0.79690(5) 0.11561(4)
S4_6 S 0.64091(4) 0.79057(2) 0.08355(2)
O10_6 O 0.05218(12) 0.49843(3) 0.24111(3)
C29_6 C 0.06140(17) 0.55190(5) 0.23059(4)
C30_6 C 0.17522(19) 0.55481(5) 0.22553(5)
H20_6 H 0.225546 0.537226 0.224333
C31_6 C 0.21017(19) 0.58647(5) 0.22227(5)
H21_6 H 0.286602 0.592448 0.218762
C32_6 C 0.12283(19) 0.60786(5) 0.22468(5)
O12_6 O 0.64373(11) 0.71490(3) 0.01814(3)
O13_6 O 0.47628(12) 0.70009(4) 0.03278(3)
C33_6 C 0.57744(17) 0.70874(5) 0.03701(4)
C34_6 C 0.62064(19) 0.71037(5) 0.06348(4)
C35_6 C 0.73095(19) 0.71266(5) 0.07174(4)
H22_6 H 0.794421 0.714133 0.060449
C36_6 C 0.7401(2) 0.71258(6) 0.09889(4)
H23_6 H 0.810748 0.713810 0.107763
C37_6 C 0.6365(2) 0.71053(5) 0.11127(4)
S6_6 S 0.52707(5) 0.70783(2) 0.08915(2)
Co6_6 Co 0.74059(2) 0.70282(2) 0.25840(2)
O16_6 O 0.49111(11) 0.72173(3) 0.28279(3)
O18_6 O 0.63790(12) 0.77573(3) 0.26364(3)
Co7_6 Co 0.50941(2) 0.70282(2) 0.99160(2)
H6_6 H 0.963398 0.657552 0.218762
O11_6 O 0.88790(12) 0.52573(3) 0.23636(3)
C28_6 C 0.99429(16) 0.52283(4) 0.23632(4)
S5_6 S 0.99572(4) 0.58853(2) 0.23081(2)
Co2_10 Co 0.500000 0.000000 0.500000
O4_7 O 0.36210(12) 0.02573(3) 0.51364(3)
C8_7 C 0.25571(16) 0.02283(4) 0.51368(4)
C9_7 C 0.18860(17) 0.05190(5) 0.51941(4)
C10_7 C 0.07478(19) 0.05481(5) 0.52447(5)
H5_7 H 0.024454 0.037226 0.525667
C11_7 C 0.03983(19) 0.08647(5) 0.52773(5)
C12_7 C 0.12717(19) 0.10786(5) 0.52532(5)
S2_7 S 0.25428(4) 0.08853(2) 0.51919(2)
O5_7 O 0.60627(11) 0.03510(3) 0.51814(3)
O6_7 O 0.77372(12) 0.04991(4) 0.53278(3)
C13_7 C 0.67256(17) 0.04126(5) 0.53701(4)
C14_7 C 0.62936(19) 0.03963(5) 0.56348(4)
C15_7 C 0.51905(19) 0.03734(5) 0.57174(4)
H7_7 H 0.455579 0.035867 0.560449
C16_7 C 0.5099(2) 0.03742(6) 0.59889(4)
H8_7 H 0.439252 0.036190 0.607763
C17_7 C 0.6135(2) 0.03947(5) 0.61127(4)
S3_7 S 0.72293(5) 0.04217(2) 0.58915(2)
O10_7 O 0.05218(12) 0.25157(3) 0.50889(3)
C29_7 C 0.06140(17) 0.19810(5) 0.51941(4)
C30_7 C 0.17522(19) 0.19519(5) 0.52447(5)
H20_7 H 0.225546 0.212774 0.525667
C31_7 C 0.21017(19) 0.16353(5) 0.52773(5)
H21_7 H 0.286602 0.157552 0.531238
C32_7 C 0.12283(19) 0.14214(5) 0.52532(5)
O12_7 O 0.64373(11) 0.03510(3) 0.73186(3)
O13_7 O 0.47628(12) 0.04991(4) 0.71722(3)
C33_7 C 0.57744(17) 0.04126(5) 0.71299(4)
C34_7 C 0.62064(19) 0.03963(5) 0.68652(4)
C35_7 C 0.73095(19) 0.03734(5) 0.67826(4)
H22_7 H 0.794421 0.035867 0.689551
C36_7 C 0.7401(2) 0.03742(6) 0.65111(4)
H23_7 H 0.810748 0.036190 0.642237
C37_7 C 0.6365(2) 0.03947(5) 0.63873(4)
S6_7 S 0.52707(5) 0.04217(2) 0.66085(2)
Co6_7 Co 0.74059(2) 0.04718(2) 0.49160(2)
Co7_7 Co 0.50941(2) 0.04718(2) 0.75840(2)
O16_7 O 0.49111(11) 0.02827(3) 0.46721(3)
Co1_4 Co 0.25941(2) 0.95282(2) 0.50840(2)
Co2_11 Co 0.500000 1.000000 0.500000
N1_4 N 0.32817(15) 0.90556(4) 0.50787(3)
C1_4 C 0.26255(18) 0.87953(5) 0.50799(5)
H1_4 H 0.182148 0.881932 0.508371
C2_4 C 0.30855(19) 0.84908(5) 0.50758(4)
H2_4 H 0.259027 0.831275 0.507093
O1_4 O 0.32834(12) 0.95918(4) 0.54357(3)
O2_7 O 0.50889(11) 0.97173(3) 0.53279(3)
C3_7 C 0.43252(17) 0.96351(5) 0.54849(4)
C4_7 C 0.46737(17) 0.95814(5) 0.57557(4)
C5_7 C 0.40073(19) 0.95309(6) 0.59659(4)
H3_7 H 0.320099 0.951582 0.595870
C6_7 C 0.4642(2) 0.95032(6) 0.61965(4)
H4_7 H 0.430963 0.946908 0.636114
C7_7 C 0.57915(18) 0.95310(5) 0.61561(4)
S1_7 S 0.60909(4) 0.95943(2) 0.58355(2)
O3_4 O 0.19782(12) 0.99843(3) 0.50889(3)
O7_4 O 0.10975(12) 0.93567(3) 0.52354(3)
C18_4 C 0.0365(2) 0.95465(6) 0.53151(6)
H9_4 H 0.051494 0.976586 0.529002
N3_4 N 0.42183(15) 0.84444(4) 0.50787(3)
C21_4 C 0.48745(18) 0.87047(5) 0.50799(5)
H16_4 H 0.567852 0.868068 0.508371
C22_4 C 0.44145(19) 0.90092(5) 0.50758(4)
H17_4 H 0.490973 0.918725 0.507093
O8_7 O 0.92166(12) 0.95918(4) 0.70643(3)
O9_7 O 0.74111(11) 0.97173(3) 0.71721(3)
C23_7 C 0.81748(17) 0.96351(5) 0.70151(4)
C24_7 C 0.78263(17) 0.95814(5) 0.67443(4)
C25_7 C 0.84927(19) 0.95309(6) 0.65341(4)
H18_7 H 0.929901 0.951582 0.654130
C26_7 C 0.7858(2) 0.95032(6) 0.63035(4)
H19_7 H 0.819037 0.946908 0.613886
C27_7 C 0.67085(18) 0.95310(5) 0.63439(4)
S4_7 S 0.64091(4) 0.95943(2) 0.66645(2)
Co3_4 Co 0.49059(2) 0.79718(2) 0.50840(2)
O14_4 O 0.64025(12) 0.81433(3) 0.52354(3)
C38_4 C 0.7135(2) 0.79535(6) 0.53151(6)
H24_4 H 0.698506 0.773414 0.529002
N4_4 N 0.8085(2) 0.80268(6) 0.54295(5)
C39_4 C 0.8898(3) 0.77861(10) 0.55093(8)
H25_4 H 0.966176 0.784604 0.545076
H26_4 H 0.868743 0.758154 0.543313
H27_4 H 0.889355 0.776838 0.569773
C40_4 C 0.8401(3) 0.83510(9) 0.54724(8)
H28_4 H 0.917419 0.838672 0.540732
H29_4 H 0.837766 0.839698 0.565759
H30_4 H 0.786892 0.849087 0.538162
O15_4 O 0.42166(12) 0.79082(4) 0.54357(3)
O17_4 O 0.55218(12) 0.75157(3) 0.50889(3)
O18_7 O 0.63790(12) 0.97427(3) 0.48636(3)
O19_4 O 0.35627(11) 0.78510(3) 0.48186(3)
O20_4 O 0.39373(11) 0.96490(3) 0.48186(3)
O21_4 O 0.52372(12) 0.79991(4) 0.46722(3)
O22_4 O 0.22628(12) 0.95009(4) 0.46722(3)
H6_7 H 0.963398 0.092448 0.531238
O11_7 O 0.88790(12) 0.22427(3) 0.51364(3)
C28_7 C 0.99429(16) 0.22717(4) 0.51368(4)
S5_7 S 0.99572(4) 0.16147(2) 0.51919(2)
N2_4 N 0.9415(2) 0.94732(6) 0.54295(5)
C19_4 C 0.8602(3) 0.97139(10) 0.55093(8)
H10_4 H 0.783824 0.965396 0.545076
H11_4 H 0.881257 0.991846 0.543313
H12_4 H 0.860645 0.973162 0.569773
C20_4 C 0.9099(3) 0.91490(9) 0.54724(8)
H13_4 H 0.832581 0.911328 0.540732
H14_4 H 0.912234 0.910302 0.565759
H15_4 H 0.963108 0.900913 0.538162
Co2_12 Co 0.250000 0.750000 0.500000
O2_8 O 0.24111(11) 0.77827(3) 0.53279(3)
C3_8 C 0.31748(17) 0.78649(5) 0.54849(4)
C4_8 C 0.28263(17) 0.79186(5) 0.57557(4)
C5_8 C 0.34927(19) 0.79691(6) 0.59659(4)
H3_8 H 0.429901 0.798418 0.595870
C6_8 C 0.2858(2) 0.79968(6) 0.61965(4)
H4_8 H 0.319037 0.803092 0.636114
C7_8 C 0.17085(18) 0.79690(5) 0.61561(4)
S1_8 S 0.14091(4) 0.79057(2) 0.58355(2)
O4_8 O 0.38790(12) 0.72427(3) 0.51364(3)
C8_8 C 0.49429(16) 0.72717(4) 0.51368(4)
C9_8 C 0.56140(17) 0.69810(5) 0.51941(4)
C10_8 C 0.67522(19) 0.69519(5) 0.52447(5)
H5_8 H 0.725546 0.712774 0.525667
C11_8 C 0.71017(19) 0.66353(5) 0.52773(5)
H6_8 H 0.786602 0.657552 0.531238
C12_8 C 0.62283(19) 0.64214(5) 0.52532(5)
S2_8 S 0.49572(4) 0.66147(2) 0.51919(2)
O5_8 O 0.14373(11) 0.71490(3) 0.51814(3)
C13_8 C 0.07744(17) 0.70874(5) 0.53701(4)
C14_8 C 0.12064(19) 0.71037(5) 0.56348(4)
C15_8 C 0.23095(19) 0.71266(5) 0.57174(4)
H7_8 H 0.294421 0.714133 0.560449
C16_8 C 0.2401(2) 0.71258(6) 0.59889(4)
H8_8 H 0.310748 0.713810 0.607763
C17_8 C 0.1365(2) 0.71053(5) 0.61127(4)
S3_8 S 0.02707(5) 0.70783(2) 0.58915(2)
O9_8 O 0.00889(11) 0.77827(3) 0.71721(3)
C27_8 C 0.07915(18) 0.79690(5) 0.63439(4)
S4_8 S 0.10909(4) 0.79057(2) 0.66645(2)
O10_8 O 0.69782(12) 0.49843(3) 0.50889(3)
O11_8 O 0.86210(12) 0.52573(3) 0.51364(3)
C28_8 C 0.75571(16) 0.52283(4) 0.51368(4)
C29_8 C 0.68860(17) 0.55190(5) 0.51941(4)
C30_8 C 0.57478(19) 0.55481(5) 0.52447(5)
H20_8 H 0.524454 0.537226 0.525667
C31_8 C 0.53983(19) 0.58647(5) 0.52773(5)
H21_8 H 0.463398 0.592448 0.531238
C32_8 C 0.62717(19) 0.60786(5) 0.52532(5)
S5_8 S 0.75428(4) 0.58853(2) 0.51919(2)
O12_8 O 0.10627(11) 0.71490(3) 0.73186(3)
O13_8 O 0.27372(12) 0.70009(4) 0.71722(3)
C33_8 C 0.17256(17) 0.70874(5) 0.71299(4)
C34_8 C 0.12936(19) 0.71037(5) 0.68652(4)
C35_8 C 0.01905(19) 0.71266(5) 0.67826(4)
C36_8 C 0.0099(2) 0.71258(6) 0.65111(4)
C37_8 C 0.1135(2) 0.71053(5) 0.63873(4)
S6_8 S 0.22293(5) 0.70783(2) 0.66085(2)
Co6_8 Co 0.00941(2) 0.70282(2) 0.49160(2)
Co7_8 Co 0.24059(2) 0.70282(2) 0.75840(2)
O16_8 O 0.25889(11) 0.72173(3) 0.46721(3)
O18_8 O 0.11210(12) 0.77573(3) 0.48636(3)
O6_8 O 0.97628(12) 0.70009(4) 0.53278(3)
O8_8 O 0.82834(12) 0.79082(4) 0.70643(3)
C23_8 C 0.93252(17) 0.78649(5) 0.70151(4)
C24_8 C 0.96737(17) 0.79186(5) 0.67443(4)
C25_8 C 0.90073(19) 0.79691(6) 0.65341(4)
H18_8 H 0.820099 0.798418 0.654130
C26_8 C 0.9642(2) 0.79968(6) 0.63035(4)
H19_8 H 0.930963 0.803092 0.613886
H22_8 H 0.955579 0.714133 0.689551
H23_8 H 0.939252 0.713810 0.642237
H1_5 H 0.067852 0.381932 0.241629
O7_5 O 0.14025(12) 0.43567(3) 0.22646(3)
C18_5 C 0.2135(2) 0.45465(6) 0.21849(6)
H9_5 H 0.198506 0.476586 0.220998
N2_5 N 0.3085(2) 0.44732(6) 0.20705(5)
C19_5 C 0.3898(3) 0.47139(10) 0.19907(8)
H10_5 H 0.466176 0.465396 0.204924
H11_5 H 0.368743 0.491846 0.206687
H12_5 H 0.389355 0.473162 0.180227
C20_5 C 0.3401(3) 0.41490(9) 0.20276(8)
H13_5 H 0.417419 0.411328 0.209268
H14_5 H 0.337766 0.410302 0.184241
H15_5 H 0.286892 0.400913 0.211838
O22_5 O 0.02372(12) 0.45009(4) 0.28278(3)
N1_5 N 0.92183(15) 0.40556(4) 0.24213(3)
C1_5 C 0.98745(18) 0.37953(5) 0.24201(5)
C2_5 C 0.94145(19) 0.34908(5) 0.24242(4)
H2_5 H 0.990973 0.331275 0.242907
N3_5 N 0.82817(15) 0.34444(4) 0.24213(3)
C21_5 C 0.76255(18) 0.37047(5) 0.24201(5)
H16_5 H 0.682148 0.368068 0.241629
C22_5 C 0.80855(19) 0.40092(5) 0.24242(4)
H17_5 H 0.759027 0.418725 0.242907
O14_5 O 0.60975(12) 0.31433(3) 0.22646(3)
C38_5 C 0.5365(2) 0.29535(6) 0.21849(6)
H24_5 H 0.551494 0.273414 0.220998
N4_5 N 0.4415(2) 0.30268(6) 0.20705(5)
C39_5 C 0.3602(3) 0.27861(10) 0.19907(8)
H25_5 H 0.283824 0.284604 0.204924
H26_5 H 0.381257 0.258154 0.206687
H27_5 H 0.360645 0.276838 0.180227
C40_5 C 0.4099(3) 0.33510(9) 0.20276(8)
H28_5 H 0.332581 0.338672 0.209268
H29_5 H 0.412234 0.339698 0.184241
H30_5 H 0.463108 0.349087 0.211838
O16_9 O 0.75889(11) 0.52827(3) 0.28279(3)
O18_9 O 0.61210(12) 0.47427(3) 0.26364(3)
O19_5 O 0.89373(11) 0.28510(3) 0.26814(3)
O20_5 O 0.85627(11) 0.46490(3) 0.26814(3)
O21_5 O 0.72628(12) 0.29991(4) 0.28278(3)
O18_10 O 0.13790(12) 0.27573(3) 0.26364(3)
O16_10 O 0.99111(11) 0.22173(3) 0.28279(3)
H16_6 H 0.067852 0.368068 0.508371
O14_6 O 0.14025(12) 0.31433(3) 0.52354(3)
C38_6 C 0.2135(2) 0.29535(6) 0.53151(6)
H24_6 H 0.198506 0.273414 0.529002
N4_6 N 0.3085(2) 0.30268(6) 0.54295(5)
C39_6 C 0.3898(3) 0.27861(10) 0.55093(8)
H25_6 H 0.466176 0.284604 0.545076
H26_6 H 0.368743 0.258154 0.543313
H27_6 H 0.389355 0.276838 0.569773
C40_6 C 0.3401(3) 0.33510(9) 0.54724(8)
H28_6 H 0.417419 0.338672 0.540732
H29_6 H 0.337766 0.339698 0.565759
H30_6 H 0.286892 0.349087 0.538162
O18_11 O 0.13790(12) 0.47427(3) 0.48636(3)
O21_6 O 0.02372(12) 0.29991(4) 0.46722(3)
N1_6 N 0.82817(15) 0.40556(4) 0.50787(3)
C1_6 C 0.76255(18) 0.37953(5) 0.50799(5)
H1_6 H 0.682148 0.381932 0.508371
C2_6 C 0.80855(19) 0.34908(5) 0.50758(4)
H2_6 H 0.759027 0.331275 0.507093
O7_6 O 0.60975(12) 0.43567(3) 0.52354(3)
C18_6 C 0.5365(2) 0.45465(6) 0.53151(6)
H9_6 H 0.551494 0.476586 0.529002
N2_6 N 0.4415(2) 0.44732(6) 0.54295(5)
C19_6 C 0.3602(3) 0.47139(10) 0.55093(8)
H10_6 H 0.283824 0.465396 0.545076
H11_6 H 0.381257 0.491846 0.543313
H12_6 H 0.360645 0.473162 0.569773
C20_6 C 0.4099(3) 0.41490(9) 0.54724(8)
H13_6 H 0.332581 0.411328 0.540732
H14_6 H 0.412234 0.410302 0.565759
H15_6 H 0.463108 0.400913 0.538162
N3_6 N 0.92183(15) 0.34444(4) 0.50787(3)
C21_6 C 0.98745(18) 0.37047(5) 0.50799(5)
C22_6 C 0.94145(19) 0.40092(5) 0.50758(4)
H17_6 H 0.990973 0.418725 0.507093
O16_11 O 0.99111(11) 0.52827(3) 0.46721(3)
O19_6 O 0.85627(11) 0.28510(3) 0.48186(3)
O20_6 O 0.89373(11) 0.46490(3) 0.48186(3)
O22_6 O 0.72628(12) 0.45009(4) 0.46722(3)
O16_12 O 0.75889(11) 0.22173(3) 0.46721(3)
O18_12 O 0.61210(12) 0.27573(3) 0.48636(3)
H1_7 H 0.067852 0.881932 0.741629
O7_7 O 0.14025(12) 0.93567(3) 0.72646(3)
C18_7 C 0.2135(2) 0.95465(6) 0.71849(6)
H9_7 H 0.198506 0.976586 0.720998
N2_7 N 0.3085(2) 0.94732(6) 0.70705(5)
C19_7 C 0.3898(3) 0.97139(10) 0.69907(8)
H10_7 H 0.466176 0.965396 0.704924
H11_7 H 0.368743 0.991846 0.706687
H12_7 H 0.389355 0.973162 0.680227
C20_7 C 0.3401(3) 0.91490(9) 0.70276(8)
H13_7 H 0.417419 0.911328 0.709268
H14_7 H 0.337766 0.910302 0.684241
H15_7 H 0.286892 0.900913 0.711838
O22_7 O 0.02372(12) 0.95009(4) 0.78278(3)
O16_13 O 0.75889(11) 0.02827(3) 0.78279(3)
N1_7 N 0.92183(15) 0.90556(4) 0.74213(3)
C1_7 C 0.98745(18) 0.87953(5) 0.74201(5)
C2_7 C 0.94145(19) 0.84908(5) 0.74242(4)
H2_7 H 0.990973 0.831275 0.742907
N3_7 N 0.82817(15) 0.84444(4) 0.74213(3)
C21_7 C 0.76255(18) 0.87047(5) 0.74201(5)
H16_7 H 0.682148 0.868068 0.741629
C22_7 C 0.80855(19) 0.90092(5) 0.74242(4)
H17_7 H 0.759027 0.918725 0.742907
O14_7 O 0.60975(12) 0.81433(3) 0.72646(3)
C38_7 C 0.5365(2) 0.79535(6) 0.71849(6)
H24_7 H 0.551494 0.773414 0.720998
N4_7 N 0.4415(2) 0.80268(6) 0.70705(5)
C39_7 C 0.3602(3) 0.77861(10) 0.69907(8)
H25_7 H 0.283824 0.784604 0.704924
H26_7 H 0.381257 0.758154 0.706687
H27_7 H 0.360645 0.776838 0.680227
C40_7 C 0.4099(3) 0.83510(9) 0.70276(8)
H28_7 H 0.332581 0.838672 0.709268
H29_7 H 0.412234 0.839698 0.684241
H30_7 H 0.463108 0.849087 0.711838
O18_13 O 0.61210(12) 0.97427(3) 0.76364(3)
O19_7 O 0.89373(11) 0.78510(3) 0.76814(3)
O20_7 O 0.85627(11) 0.96490(3) 0.76814(3)
O21_7 O 0.72628(12) 0.79991(4) 0.78278(3)
O18_14 O 0.13790(12) 0.77573(3) 0.76364(3)
O16_14 O 0.99111(11) 0.72173(3) 0.78279(3)
H16_8 H 0.067852 0.868068 0.008371
O14_8 O 0.14025(12) 0.81433(3) 0.02354(3)
C38_8 C 0.2135(2) 0.79535(6) 0.03151(6)
H24_8 H 0.198506 0.773414 0.029002
N4_8 N 0.3085(2) 0.80268(6) 0.04295(5)
C39_8 C 0.3898(3) 0.77861(10) 0.05093(8)
H25_8 H 0.466176 0.784604 0.045076
H26_8 H 0.368743 0.758154 0.043313
H27_8 H 0.389355 0.776838 0.069773
C40_8 C 0.3401(3) 0.83510(9) 0.04724(8)
H28_8 H 0.417419 0.838672 0.040732
H29_8 H 0.337766 0.839698 0.065759
H30_8 H 0.286892 0.849087 0.038162
O18_15 O 0.13790(12) 0.97427(3) 0.98636(3)
O21_8 O 0.02372(12) 0.79991(4) 0.96722(3)
O16_15 O 0.99111(11) 0.02827(3) 0.96721(3)
N1_8 N 0.82817(15) 0.90556(4) 0.00787(3)
C1_8 C 0.76255(18) 0.87953(5) 0.00799(5)
H1_8 H 0.682148 0.881932 0.008371
C2_8 C 0.80855(19) 0.84908(5) 0.00758(4)
H2_8 H 0.759027 0.831275 0.007093
O7_8 O 0.60975(12) 0.93567(3) 0.02354(3)
C18_8 C 0.5365(2) 0.95465(6) 0.03151(6)
H9_8 H 0.551494 0.976586 0.029002
N2_8 N 0.4415(2) 0.94732(6) 0.04295(5)
C19_8 C 0.3602(3) 0.97139(10) 0.05093(8)
H10_8 H 0.283824 0.965396 0.045076
H11_8 H 0.381257 0.991846 0.043313
H12_8 H 0.360645 0.973162 0.069773
C20_8 C 0.4099(3) 0.91490(9) 0.04724(8)
H13_8 H 0.332581 0.911328 0.040732
H14_8 H 0.412234 0.910302 0.065759
H15_8 H 0.463108 0.900913 0.038162
N3_8 N 0.92183(15) 0.84444(4) 0.00787(3)
C21_8 C 0.98745(18) 0.87047(5) 0.00799(5)
C22_8 C 0.94145(19) 0.90092(5) 0.00758(4)
H17_8 H 0.990973 0.918725 0.007093
O19_8 O 0.85627(11) 0.78510(3) 0.98186(3)
O20_8 O 0.89373(11) 0.96490(3) 0.98186(3)
O22_8 O 0.72628(12) 0.95009(4) 0.96722(3)
O16_16 O 0.75889(11) 0.72173(3) 0.96721(3)
O18_16 O 0.61210(12) 0.77573(3) 0.98636(3)
O8_9 O 0.17166(12) 0.54082(4) 0.45643(3)
C23_9 C 0.06748(17) 0.53649(5) 0.45151(4)
C24_9 C 0.03263(17) 0.54186(5) 0.42443(4)
C25_9 C 0.09927(19) 0.54691(6) 0.40341(4)
H18_9 H 0.179901 0.548418 0.404130
C26_9 C 0.0358(2) 0.54968(6) 0.38035(4)
H19_9 H 0.069037 0.553092 0.363886
H22_9 H 0.044421 0.464133 0.439551
H23_9 H 0.060748 0.463810 0.392237
N4_9 N 0.0585(2) 0.69732(6) 0.29295(5)
C39_9 C 0.1398(3) 0.72139(10) 0.30093(8)
H25_9 H 0.216176 0.715396 0.295076
H26_9 H 0.118743 0.741846 0.293313
H27_9 H 0.139355 0.723162 0.319773
C40_9 C 0.0901(3) 0.66490(9) 0.29724(8)
H28_9 H 0.167419 0.661328 0.290732
H29_9 H 0.087766 0.660302 0.315759
H30_9 H 0.036892 0.650913 0.288162
N1_9 N 0.57817(15) 0.59444(4) 0.25787(3)
C1_9 C 0.51255(18) 0.62047(5) 0.25799(5)
H1_9 H 0.432148 0.618068 0.258371
C2_9 C 0.55855(19) 0.65092(5) 0.25758(4)
H2_9 H 0.509027 0.668725 0.257093
O1_5 O 0.57834(12) 0.54082(4) 0.29357(3)
C3_9 C 0.68252(17) 0.53649(5) 0.29849(4)
C4_9 C 0.71737(17) 0.54186(5) 0.32557(4)
C5_9 C 0.65073(19) 0.54691(6) 0.34659(4)
H3_9 H 0.570099 0.548418 0.345870
C6_9 C 0.7142(2) 0.54968(6) 0.36965(4)
H4_9 H 0.680963 0.553092 0.386114
C7_9 C 0.82915(18) 0.54690(5) 0.36561(4)
S1_9 S 0.85909(4) 0.54057(2) 0.33355(2)
O3_5 O 0.44782(12) 0.50157(3) 0.25889(3)
C8_9 C 0.50571(16) 0.47717(4) 0.26368(4)
C9_9 C 0.43860(17) 0.44810(5) 0.26941(4)
C10_9 C 0.32478(19) 0.44519(5) 0.27447(5)
H5_9 H 0.274454 0.462774 0.275667
C11_9 C 0.28983(19) 0.41353(5) 0.27773(5)
H6_9 H 0.213398 0.407552 0.281238
C12_9 C 0.37717(19) 0.39214(5) 0.27532(5)
S2_9 S 0.50428(4) 0.41147(2) 0.26919(2)
C13_9 C 0.92256(17) 0.45874(5) 0.28701(4)
C14_9 C 0.87936(19) 0.46037(5) 0.31348(4)
C15_9 C 0.76905(19) 0.46266(5) 0.32174(4)
H7_9 H 0.705579 0.464133 0.310449
C16_9 C 0.7599(2) 0.46258(6) 0.34889(4)
H8_9 H 0.689252 0.463810 0.357763
C17_9 C 0.8635(2) 0.46053(5) 0.36127(4)
S3_9 S 0.97293(5) 0.45783(2) 0.33915(2)
O7_9 O 0.35975(12) 0.56433(3) 0.27354(3)
C18_9 C 0.2865(2) 0.54535(6) 0.28151(6)
H9_9 H 0.301494 0.523414 0.279002
N2_9 N 0.1915(2) 0.55268(6) 0.29295(5)
C19_9 C 0.1102(3) 0.52861(10) 0.30093(8)
H10_9 H 0.033824 0.534604 0.295076
H11_9 H 0.131257 0.508154 0.293313
H12_9 H 0.110645 0.526838 0.319773
C20_9 C 0.1599(3) 0.58510(9) 0.29724(8)
H13_9 H 0.082581 0.588672 0.290732
H14_9 H 0.162234 0.589698 0.315759
H15_9 H 0.213108 0.599087 0.288162
N3_9 N 0.67183(15) 0.65556(4) 0.25787(3)
C21_9 C 0.73745(18) 0.62953(5) 0.25799(5)
H16_9 H 0.817852 0.631932 0.258371
C22_9 C 0.69145(19) 0.59908(5) 0.25758(4)
H17_9 H 0.740973 0.581275 0.257093
C27_9 C 0.92085(18) 0.54690(5) 0.38439(4)
S4_9 S 0.89091(4) 0.54057(2) 0.41645(2)
O10_9 O 0.30218(12) 0.24843(3) 0.25889(3)
C28_9 C 0.24429(16) 0.27283(4) 0.26368(4)
C29_9 C 0.31140(17) 0.30190(5) 0.26941(4)
C30_9 C 0.42522(19) 0.30481(5) 0.27447(5)
H20_9 H 0.475546 0.287226 0.275667
C31_9 C 0.46017(19) 0.33647(5) 0.27773(5)
H21_9 H 0.536602 0.342448 0.281238
C32_9 C 0.37283(19) 0.35786(5) 0.27532(5)
S5_9 S 0.24572(4) 0.33853(2) 0.26919(2)
C33_9 C 0.82744(17) 0.45874(5) 0.46299(4)
C34_9 C 0.87064(19) 0.46037(5) 0.43652(4)
C35_9 C 0.98095(19) 0.46266(5) 0.42826(4)
C36_9 C 0.9901(2) 0.46258(6) 0.40111(4)
C37_9 C 0.8865(2) 0.46053(5) 0.38873(4)
S6_9 S 0.77707(5) 0.45783(2) 0.41085(2)
O14_9 O 0.89025(12) 0.68567(3) 0.27354(3)
C38_9 C 0.9635(2) 0.70465(6) 0.28151(6)
H24_9 H 0.948506 0.726586 0.279002
O15_5 O 0.67166(12) 0.70918(4) 0.29357(3)
O17_5 O 0.80218(12) 0.74843(3) 0.25889(3)
H6_10 H 0.036602 0.842448 0.281238
C28_10 C 0.00571(16) 0.97717(4) 0.26368(4)
S5_10 S 0.00428(4) 0.91147(2) 0.26919(2)
O10_10 O 0.94782(12) 0.00157(3) 0.25889(3)
C3_10 C 0.56748(17) 0.71351(5) 0.29849(4)
C4_10 C 0.53263(17) 0.70814(5) 0.32557(4)
C5_10 C 0.59927(19) 0.70309(6) 0.34659(4)
H3_10 H 0.679901 0.701582 0.345870
C6_10 C 0.5358(2) 0.70032(6) 0.36965(4)
H4_10 H 0.569037 0.696908 0.386114
C7_10 C 0.42085(18) 0.70310(5) 0.36561(4)
S1_10 S 0.39091(4) 0.70943(2) 0.33355(2)
C8_10 C 0.74429(16) 0.77283(4) 0.26368(4)
C9_10 C 0.81140(17) 0.80190(5) 0.26941(4)
C10_10 C 0.92522(19) 0.80481(5) 0.27447(5)
H5_10 H 0.975546 0.787226 0.275667
C11_10 C 0.96017(19) 0.83647(5) 0.27773(5)
C12_10 C 0.87283(19) 0.85786(5) 0.27532(5)
S2_10 S 0.74572(4) 0.83853(2) 0.26919(2)
C13_10 C 0.32744(17) 0.79126(5) 0.28701(4)
C14_10 C 0.37064(19) 0.78963(5) 0.31348(4)
C15_10 C 0.48095(19) 0.78734(5) 0.32174(4)
H7_10 H 0.544421 0.785867 0.310449
C16_10 C 0.4901(2) 0.78742(6) 0.34889(4)
H8_10 H 0.560748 0.786190 0.357763
C17_10 C 0.3865(2) 0.78947(5) 0.36127(4)
S3_10 S 0.27707(5) 0.79217(2) 0.33915(2)
O8_10 O 0.07834(12) 0.70918(4) 0.45643(3)
C23_10 C 0.18252(17) 0.71351(5) 0.45151(4)
C24_10 C 0.21737(17) 0.70814(5) 0.42443(4)
C25_10 C 0.15073(19) 0.70309(6) 0.40341(4)
H18_10 H 0.070099 0.701582 0.404130
C26_10 C 0.2142(2) 0.70032(6) 0.38035(4)
H19_10 H 0.180963 0.696908 0.363886
C27_10 C 0.32915(18) 0.70310(5) 0.38439(4)
S4_10 S 0.35909(4) 0.70943(2) 0.41645(2)
C29_10 C 0.93860(17) 0.94810(5) 0.26941(4)
C30_10 C 0.82478(19) 0.94519(5) 0.27447(5)
H20_10 H 0.774454 0.962774 0.275667
C31_10 C 0.78983(19) 0.91353(5) 0.27773(5)
H21_10 H 0.713398 0.907552 0.281238
C32_10 C 0.87717(19) 0.89214(5) 0.27532(5)
C33_10 C 0.42256(17) 0.79126(5) 0.46299(4)
C34_10 C 0.37936(19) 0.78963(5) 0.43652(4)
C35_10 C 0.26905(19) 0.78734(5) 0.42826(4)
H22_10 H 0.205579 0.785867 0.439551
C36_10 C 0.2599(2) 0.78742(6) 0.40111(4)
H23_10 H 0.189252 0.786190 0.392237
C37_10 C 0.3635(2) 0.78947(5) 0.38873(4)
S6_10 S 0.47293(5) 0.79217(2) 0.41085(2)
H6_11 H 0.036602 0.407552 0.968762
N2_10 N 0.0585(2) 0.55268(6) 0.95705(5)
C19_10 C 0.1398(3) 0.52861(10) 0.94907(8)
H10_10 H 0.216176 0.534604 0.954924
H11_10 H 0.118743 0.508154 0.956687
H12_10 H 0.139355 0.526838 0.930227
C20_10 C 0.0901(3) 0.58510(9) 0.95276(8)
H13_10 H 0.167419 0.588672 0.959268
H14_10 H 0.087766 0.589698 0.934241
H15_10 H 0.036892 0.599087 0.961838
C28_11 C 0.00571(16) 0.27283(4) 0.98632(4)
S5_11 S 0.00428(4) 0.33853(2) 0.98081(2)
N1_10 N 0.67183(15) 0.59444(4) 0.99213(3)
C1_10 C 0.73745(18) 0.62047(5) 0.99201(5)
H1_10 H 0.817852 0.618068 0.991629
C2_10 C 0.69145(19) 0.65092(5) 0.99242(4)
H2_10 H 0.740973 0.668725 0.992907
O1_6 O 0.67166(12) 0.54082(4) 0.95643(3)
C3_11 C 0.56748(17) 0.53649(5) 0.95151(4)
C4_11 C 0.53263(17) 0.54186(5) 0.92443(4)
C5_11 C 0.59927(19) 0.54691(6) 0.90341(4)
H3_11 H 0.679901 0.548418 0.904130
C6_11 C 0.5358(2) 0.54968(6) 0.88035(4)
H4_11 H 0.569037 0.553092 0.863886
C7_11 C 0.42085(18) 0.54690(5) 0.88439(4)
S1_11 S 0.39091(4) 0.54057(2) 0.91645(2)
O3_6 O 0.80218(12) 0.50157(3) 0.99111(3)
C8_11 C 0.74429(16) 0.47717(4) 0.98632(4)
C9_11 C 0.81140(17) 0.44810(5) 0.98059(4)
C10_11 C 0.92522(19) 0.44519(5) 0.97553(5)
H5_11 H 0.975546 0.462774 0.974333
C11_11 C 0.96017(19) 0.41353(5) 0.97227(5)
C12_11 C 0.87283(19) 0.39214(5) 0.97468(5)
S2_11 S 0.74572(4) 0.41147(2) 0.98081(2)
C13_11 C 0.32744(17) 0.45874(5) 0.96299(4)
C14_11 C 0.37064(19) 0.46037(5) 0.93652(4)
C15_11 C 0.48095(19) 0.46266(5) 0.92826(4)
H7_11 H 0.544421 0.464133 0.939551
C16_11 C 0.4901(2) 0.46258(6) 0.90111(4)
H8_11 H 0.560748 0.463810 0.892237
C17_11 C 0.3865(2) 0.46053(5) 0.88873(4)
S3_11 S 0.27707(5) 0.45783(2) 0.91085(2)
O7_10 O 0.89025(12) 0.56433(3) 0.97646(3)
C18_10 C 0.9635(2) 0.54535(6) 0.96849(6)
H9_10 H 0.948506 0.523414 0.970998
N3_10 N 0.57817(15) 0.65556(4) 0.99213(3)
C21_10 C 0.51255(18) 0.62953(5) 0.99201(5)
H16_10 H 0.432148 0.631932 0.991629
C22_10 C 0.55855(19) 0.59908(5) 0.99242(4)
H17_10 H 0.509027 0.581275 0.992907
O8_11 O 0.07834(12) 0.54082(4) 0.79357(3)
C23_11 C 0.18252(17) 0.53649(5) 0.79849(4)
C24_11 C 0.21737(17) 0.54186(5) 0.82557(4)
C25_11 C 0.15073(19) 0.54691(6) 0.84659(4)
H18_11 H 0.070099 0.548418 0.845870
C26_11 C 0.2142(2) 0.54968(6) 0.86965(4)
H19_11 H 0.180963 0.553092 0.886114
C27_11 C 0.32915(18) 0.54690(5) 0.86561(4)
S4_11 S 0.35909(4) 0.54057(2) 0.83355(2)
O10_11 O 0.94782(12) 0.24843(3) 0.99111(3)
C29_11 C 0.93860(17) 0.30190(5) 0.98059(4)
C30_11 C 0.82478(19) 0.30481(5) 0.97553(5)
H20_11 H 0.774454 0.287226 0.974333
C31_11 C 0.78983(19) 0.33647(5) 0.97227(5)
H21_11 H 0.713398 0.342448 0.968762
C32_11 C 0.87717(19) 0.35786(5) 0.97468(5)
C33_11 C 0.42256(17) 0.45874(5) 0.78701(4)
C34_11 C 0.37936(19) 0.46037(5) 0.81348(4)
C35_11 C 0.26905(19) 0.46266(5) 0.82174(4)
H22_11 H 0.205579 0.464133 0.810449
C36_11 C 0.2599(2) 0.46258(6) 0.84889(4)
H23_11 H 0.189252 0.463810 0.857763
C37_11 C 0.3635(2) 0.46053(5) 0.86127(4)
S6_11 S 0.47293(5) 0.45783(2) 0.83915(2)
O14_10 O 0.35975(12) 0.68567(3) 0.97646(3)
C38_10 C 0.2865(2) 0.70465(6) 0.96849(6)
H24_10 H 0.301494 0.726586 0.970998
N4_10 N 0.1915(2) 0.69732(6) 0.95705(5)
C39_10 C 0.1102(3) 0.72139(10) 0.94907(8)
H25_10 H 0.033824 0.715396 0.954924
H26_10 H 0.131257 0.741846 0.956687
H27_10 H 0.110645 0.723162 0.930227
C40_10 C 0.1599(3) 0.66490(9) 0.95276(8)
H28_10 H 0.082581 0.661328 0.959268
H29_10 H 0.162234 0.660302 0.934241
H30_10 H 0.213108 0.650913 0.961838
O15_6 O 0.57834(12) 0.70918(4) 0.95643(3)
O17_6 O 0.44782(12) 0.74843(3) 0.99111(3)
O8_12 O 0.17166(12) 0.70918(4) 0.79357(3)
C23_12 C 0.06748(17) 0.71351(5) 0.79849(4)
C24_12 C 0.03263(17) 0.70814(5) 0.82557(4)
C25_12 C 0.09927(19) 0.70309(6) 0.84659(4)
H18_12 H 0.179901 0.701582 0.845870
C26_12 C 0.0358(2) 0.70032(6) 0.86965(4)
H19_12 H 0.069037 0.696908 0.886114
H22_12 H 0.044421 0.785867 0.810449
H23_12 H 0.060748 0.786190 0.857763
O10_12 O 0.30218(12) 0.00157(3) 0.99111(3)
C3_12 C 0.68252(17) 0.71351(5) 0.95151(4)
C4_12 C 0.71737(17) 0.70814(5) 0.92443(4)
C5_12 C 0.65073(19) 0.70309(6) 0.90341(4)
H3_12 H 0.570099 0.701582 0.904130
C6_12 C 0.7142(2) 0.70032(6) 0.88035(4)
H4_12 H 0.680963 0.696908 0.863886
C7_12 C 0.82915(18) 0.70310(5) 0.88439(4)
S1_12 S 0.85909(4) 0.70943(2) 0.91645(2)
C8_12 C 0.50571(16) 0.77283(4) 0.98632(4)
C9_12 C 0.43860(17) 0.80190(5) 0.98059(4)
C10_12 C 0.32478(19) 0.80481(5) 0.97553(5)
H5_12 H 0.274454 0.787226 0.974333
C11_12 C 0.28983(19) 0.83647(5) 0.97227(5)
H6_12 H 0.213398 0.842448 0.968762
C12_12 C 0.37717(19) 0.85786(5) 0.97468(5)
S2_12 S 0.50428(4) 0.83853(2) 0.98081(2)
C13_12 C 0.92256(17) 0.79126(5) 0.96299(4)
C14_12 C 0.87936(19) 0.78963(5) 0.93652(4)
C15_12 C 0.76905(19) 0.78734(5) 0.92826(4)
H7_12 H 0.705579 0.785867 0.939551
C16_12 C 0.7599(2) 0.78742(6) 0.90111(4)
H8_12 H 0.689252 0.786190 0.892237
C17_12 C 0.8635(2) 0.78947(5) 0.88873(4)
S3_12 S 0.97293(5) 0.79217(2) 0.91085(2)
C27_12 C 0.92085(18) 0.70310(5) 0.86561(4)
S4_12 S 0.89091(4) 0.70943(2) 0.83355(2)
C28_12 C 0.24429(16) 0.97717(4) 0.98632(4)
C29_12 C 0.31140(17) 0.94810(5) 0.98059(4)
C30_12 C 0.42522(19) 0.94519(5) 0.97553(5)
H20_12 H 0.475546 0.962774 0.974333
C31_12 C 0.46017(19) 0.91353(5) 0.97227(5)
H21_12 H 0.536602 0.907552 0.968762
C32_12 C 0.37283(19) 0.89214(5) 0.97468(5)
S5_12 S 0.24572(4) 0.91147(2) 0.98081(2)
C33_12 C 0.82744(17) 0.79126(5) 0.78701(4)
C34_12 C 0.87064(19) 0.78963(5) 0.81348(4)
C35_12 C 0.98095(19) 0.78734(5) 0.82174(4)
C36_12 C 0.9901(2) 0.78742(6) 0.84889(4)
C37_12 C 0.8865(2) 0.78947(5) 0.86127(4)
S6_12 S 0.77707(5) 0.79217(2) 0.83915(2)
O8_13 O 0.17166(12) 0.04082(4) 0.95643(3)
C23_13 C 0.06748(17) 0.03649(5) 0.95151(4)
C24_13 C 0.03263(17) 0.04186(5) 0.92443(4)
C25_13 C 0.09927(19) 0.04691(6) 0.90341(4)
H18_13 H 0.179901 0.048418 0.904130
C26_13 C 0.0358(2) 0.04968(6) 0.88035(4)
H19_13 H 0.069037 0.053092 0.863886
N4_11 N 0.0585(2) 0.19732(6) 0.79295(5)
C39_11 C 0.1398(3) 0.22139(10) 0.80093(8)
H25_11 H 0.216176 0.215396 0.795076
H26_11 H 0.118743 0.241846 0.793313
H27_11 H 0.139355 0.223162 0.819773
C40_11 C 0.0901(3) 0.16490(9) 0.79724(8)
H28_11 H 0.167419 0.161328 0.790732
H29_11 H 0.087766 0.160302 0.815759
H30_11 H 0.036892 0.150913 0.788162
H22_13 H 0.044421 0.964133 0.939551
H23_13 H 0.060748 0.963810 0.892237
N1_11 N 0.57817(15) 0.09444(4) 0.75787(3)
C1_11 C 0.51255(18) 0.12047(5) 0.75799(5)
H1_11 H 0.432148 0.118068 0.758371
C2_11 C 0.55855(19) 0.15092(5) 0.75758(4)
H2_11 H 0.509027 0.168725 0.757093
O1_7 O 0.57834(12) 0.04082(4) 0.79357(3)
C3_13 C 0.68252(17) 0.03649(5) 0.79849(4)
C4_13 C 0.71737(17) 0.04186(5) 0.82557(4)
C5_13 C 0.65073(19) 0.04691(6) 0.84659(4)
H3_13 H 0.570099 0.048418 0.845870
C6_13 C 0.7142(2) 0.04968(6) 0.86965(4)
H4_13 H 0.680963 0.053092 0.886114
C7_13 C 0.82915(18) 0.04690(5) 0.86561(4)
S1_13 S 0.85909(4) 0.04057(2) 0.83355(2)
O3_7 O 0.44782(12) 0.00157(3) 0.75889(3)
O7_11 O 0.35975(12) 0.06433(3) 0.77354(3)
C18_11 C 0.2865(2) 0.04535(6) 0.78151(6)
H9_11 H 0.301494 0.023414 0.779002
N2_11 N 0.1915(2) 0.05268(6) 0.79295(5)
C19_11 C 0.1102(3) 0.02861(10) 0.80093(8)
H10_11 H 0.033824 0.034604 0.795076
H11_11 H 0.131257 0.008154 0.793313
H12_11 H 0.110645 0.026838 0.819773
C20_11 C 0.1599(3) 0.08510(9) 0.79724(8)
H13_11 H 0.082581 0.088672 0.790732
H14_11 H 0.162234 0.089698 0.815759
H15_11 H 0.213108 0.099087 0.788162
N3_11 N 0.67183(15) 0.15556(4) 0.75787(3)
C21_11 C 0.73745(18) 0.12953(5) 0.75799(5)
H16_11 H 0.817852 0.131932 0.758371
C22_11 C 0.69145(19) 0.09908(5) 0.75758(4)
H17_11 H 0.740973 0.081275 0.757093
C27_13 C 0.92085(18) 0.04690(5) 0.88439(4)
S4_13 S 0.89091(4) 0.04057(2) 0.91645(2)
O14_11 O 0.89025(12) 0.18567(3) 0.77354(3)
C38_11 C 0.9635(2) 0.20465(6) 0.78151(6)
H24_11 H 0.948506 0.226586 0.779002
O15_7 O 0.67166(12) 0.20918(4) 0.79357(3)
O17_7 O 0.80218(12) 0.24843(3) 0.75889(3)
C8_13 C 0.50571(16) 0.97717(4) 0.76368(4)
C9_13 C 0.43860(17) 0.94810(5) 0.76941(4)
C10_13 C 0.32478(19) 0.94519(5) 0.77447(5)
H5_13 H 0.274454 0.962774 0.775667
C11_13 C 0.28983(19) 0.91353(5) 0.77773(5)
H6_13 H 0.213398 0.907552 0.781238
C12_13 C 0.37717(19) 0.89214(5) 0.77532(5)
S2_13 S 0.50428(4) 0.91147(2) 0.76919(2)
C13_13 C 0.92256(17) 0.95874(5) 0.78701(4)
C14_13 C 0.87936(19) 0.96037(5) 0.81348(4)
C15_13 C 0.76905(19) 0.96266(5) 0.82174(4)
H7_13 H 0.705579 0.964133 0.810449
C16_13 C 0.7599(2) 0.96258(6) 0.84889(4)
H8_13 H 0.689252 0.963810 0.857763
C17_13 C 0.8635(2) 0.96053(5) 0.86127(4)
S3_13 S 0.97293(5) 0.95783(2) 0.83915(2)
O10_13 O 0.30218(12) 0.74843(3) 0.75889(3)
C28_13 C 0.24429(16) 0.77283(4) 0.76368(4)
C29_13 C 0.31140(17) 0.80190(5) 0.76941(4)
C30_13 C 0.42522(19) 0.80481(5) 0.77447(5)
H20_13 H 0.475546 0.787226 0.775667
C31_13 C 0.46017(19) 0.83647(5) 0.77773(5)
H21_13 H 0.536602 0.842448 0.781238
C32_13 C 0.37283(19) 0.85786(5) 0.77532(5)
S5_13 S 0.24572(4) 0.83853(2) 0.76919(2)
C33_13 C 0.82744(17) 0.95874(5) 0.96299(4)
C34_13 C 0.87064(19) 0.96037(5) 0.93652(4)
C35_13 C 0.98095(19) 0.96266(5) 0.92826(4)
C36_13 C 0.9901(2) 0.96258(6) 0.90111(4)
C37_13 C 0.8865(2) 0.96053(5) 0.88873(4)
S6_13 S 0.77707(5) 0.95783(2) 0.91085(2)
H6_14 H 0.036602 0.342448 0.781238
C28_14 C 0.00571(16) 0.47717(4) 0.76368(4)
S5_14 S 0.00428(4) 0.41147(2) 0.76919(2)
C3_14 C 0.56748(17) 0.21351(5) 0.79849(4)
C4_14 C 0.53263(17) 0.20814(5) 0.82557(4)
C5_14 C 0.59927(19) 0.20309(6) 0.84659(4)
H3_14 H 0.679901 0.201582 0.845870
C6_14 C 0.5358(2) 0.20032(6) 0.86965(4)
H4_14 H 0.569037 0.196908 0.886114
C7_14 C 0.42085(18) 0.20310(5) 0.86561(4)
S1_14 S 0.39091(4) 0.20943(2) 0.83355(2)
C8_14 C 0.74429(16) 0.27283(4) 0.76368(4)
C9_14 C 0.81140(17) 0.30190(5) 0.76941(4)
C10_14 C 0.92522(19) 0.30481(5) 0.77447(5)
H5_14 H 0.975546 0.287226 0.775667
C11_14 C 0.96017(19) 0.33647(5) 0.77773(5)
C12_14 C 0.87283(19) 0.35786(5) 0.77532(5)
S2_14 S 0.74572(4) 0.33853(2) 0.76919(2)
C13_14 C 0.32744(17) 0.29126(5) 0.78701(4)
C14_14 C 0.37064(19) 0.28963(5) 0.81348(4)
C15_14 C 0.48095(19) 0.28734(5) 0.82174(4)
H7_14 H 0.544421 0.285867 0.810449
C16_14 C 0.4901(2) 0.28742(6) 0.84889(4)
H8_14 H 0.560748 0.286190 0.857763
C17_14 C 0.3865(2) 0.28947(5) 0.86127(4)
S3_14 S 0.27707(5) 0.29217(2) 0.83915(2)
O8_14 O 0.07834(12) 0.20918(4) 0.95643(3)
C23_14 C 0.18252(17) 0.21351(5) 0.95151(4)
C24_14 C 0.21737(17) 0.20814(5) 0.92443(4)
C25_14 C 0.15073(19) 0.20309(6) 0.90341(4)
H18_14 H 0.070099 0.201582 0.904130
C26_14 C 0.2142(2) 0.20032(6) 0.88035(4)
H19_14 H 0.180963 0.196908 0.863886
C27_14 C 0.32915(18) 0.20310(5) 0.88439(4)
S4_14 S 0.35909(4) 0.20943(2) 0.91645(2)
O10_14 O 0.94782(12) 0.50157(3) 0.75889(3)
C29_14 C 0.93860(17) 0.44810(5) 0.76941(4)
C30_14 C 0.82478(19) 0.44519(5) 0.77447(5)
H20_14 H 0.774454 0.462774 0.775667
C31_14 C 0.78983(19) 0.41353(5) 0.77773(5)
H21_14 H 0.713398 0.407552 0.781238
C32_14 C 0.87717(19) 0.39214(5) 0.77532(5)
C33_14 C 0.42256(17) 0.29126(5) 0.96299(4)
C34_14 C 0.37936(19) 0.28963(5) 0.93652(4)
C35_14 C 0.26905(19) 0.28734(5) 0.92826(4)
H22_14 H 0.205579 0.285867 0.939551
C36_14 C 0.2599(2) 0.28742(6) 0.90111(4)
H23_14 H 0.189252 0.286190 0.892237
C37_14 C 0.3635(2) 0.28947(5) 0.88873(4)
S6_14 S 0.47293(5) 0.29217(2) 0.91085(2)
N2_12 N 0.0585(2) 0.05268(6) 0.45705(5)
C19_12 C 0.1398(3) 0.02861(10) 0.44907(8)
H10_12 H 0.216176 0.034604 0.454924
H11_12 H 0.118743 0.008154 0.456687
H12_12 H 0.139355 0.026838 0.430227
C20_12 C 0.0901(3) 0.08510(9) 0.45276(8)
H13_12 H 0.167419 0.088672 0.459268
H14_12 H 0.087766 0.089698 0.434241
H15_12 H 0.036892 0.099087 0.461838
H6_15 H 0.036602 0.907552 0.468762
C28_15 C 0.00571(16) 0.77283(4) 0.48632(4)
S5_15 S 0.00428(4) 0.83853(2) 0.48081(2)
N1_12 N 0.67183(15) 0.09444(4) 0.49213(3)
C1_12 C 0.73745(18) 0.12047(5) 0.49201(5)
H1_12 H 0.817852 0.118068 0.491629
C2_12 C 0.69145(19) 0.15092(5) 0.49242(4)
H2_12 H 0.740973 0.168725 0.492907
O1_8 O 0.67166(12) 0.04082(4) 0.45643(3)
C3_15 C 0.56748(17) 0.03649(5) 0.45151(4)
C4_15 C 0.53263(17) 0.04186(5) 0.42443(4)
C5_15 C 0.59927(19) 0.04691(6) 0.40341(4)
H3_15 H 0.679901 0.048418 0.404130
C6_15 C 0.5358(2) 0.04968(6) 0.38035(4)
H4_15 H 0.569037 0.053092 0.363886
C7_15 C 0.42085(18) 0.04690(5) 0.38439(4)
S1_15 S 0.39091(4) 0.04057(2) 0.41645(2)
O3_8 O 0.80218(12) 0.00157(3) 0.49111(3)
O7_12 O 0.89025(12) 0.06433(3) 0.47646(3)
C18_12 C 0.9635(2) 0.04535(6) 0.46849(6)
H9_12 H 0.948506 0.023414 0.470998
N3_12 N 0.57817(15) 0.15556(4) 0.49213(3)
C21_12 C 0.51255(18) 0.12953(5) 0.49201(5)
H16_12 H 0.432148 0.131932 0.491629
C22_12 C 0.55855(19) 0.09908(5) 0.49242(4)
H17_12 H 0.509027 0.081275 0.492907
O8_15 O 0.07834(12) 0.04082(4) 0.29357(3)
C23_15 C 0.18252(17) 0.03649(5) 0.29849(4)
C24_15 C 0.21737(17) 0.04186(5) 0.32557(4)
C25_15 C 0.15073(19) 0.04691(6) 0.34659(4)
H18_15 H 0.070099 0.048418 0.345870
C26_15 C 0.2142(2) 0.04968(6) 0.36965(4)
H19_15 H 0.180963 0.053092 0.386114
C27_15 C 0.32915(18) 0.04690(5) 0.36561(4)
S4_15 S 0.35909(4) 0.04057(2) 0.33355(2)
O14_12 O 0.35975(12) 0.18567(3) 0.47646(3)
C38_12 C 0.2865(2) 0.20465(6) 0.46849(6)
H24_12 H 0.301494 0.226586 0.470998
N4_12 N 0.1915(2) 0.19732(6) 0.45705(5)
C39_12 C 0.1102(3) 0.22139(10) 0.44907(8)
H25_12 H 0.033824 0.215396 0.454924
H26_12 H 0.131257 0.241846 0.456687
H27_12 H 0.110645 0.223162 0.430227
C40_12 C 0.1599(3) 0.16490(9) 0.45276(8)
H28_12 H 0.082581 0.161328 0.459268
H29_12 H 0.162234 0.160302 0.434241
H30_12 H 0.213108 0.150913 0.461838
O15_8 O 0.57834(12) 0.20918(4) 0.45643(3)
O17_8 O 0.44782(12) 0.24843(3) 0.49111(3)
C8_15 C 0.74429(16) 0.97717(4) 0.48632(4)
C9_15 C 0.81140(17) 0.94810(5) 0.48059(4)
C10_15 C 0.92522(19) 0.94519(5) 0.47553(5)
H5_15 H 0.975546 0.962774 0.474333
C11_15 C 0.96017(19) 0.91353(5) 0.47227(5)
C12_15 C 0.87283(19) 0.89214(5) 0.47468(5)
S2_15 S 0.74572(4) 0.91147(2) 0.48081(2)
C13_15 C 0.32744(17) 0.95874(5) 0.46299(4)
C14_15 C 0.37064(19) 0.96037(5) 0.43652(4)
C15_15 C 0.48095(19) 0.96266(5) 0.42826(4)
H7_15 H 0.544421 0.964133 0.439551
C16_15 C 0.4901(2) 0.96258(6) 0.40111(4)
H8_15 H 0.560748 0.963810 0.392237
C17_15 C 0.3865(2) 0.96053(5) 0.38873(4)
S3_15 S 0.27707(5) 0.95783(2) 0.41085(2)
O10_15 O 0.94782(12) 0.74843(3) 0.49111(3)
C29_15 C 0.93860(17) 0.80190(5) 0.48059(4)
C30_15 C 0.82478(19) 0.80481(5) 0.47553(5)
H20_15 H 0.774454 0.787226 0.474333
C31_15 C 0.78983(19) 0.83647(5) 0.47227(5)
H21_15 H 0.713398 0.842448 0.468762
C32_15 C 0.87717(19) 0.85786(5) 0.47468(5)
C33_15 C 0.42256(17) 0.95874(5) 0.28701(4)
C34_15 C 0.37936(19) 0.96037(5) 0.31348(4)
C35_15 C 0.26905(19) 0.96266(5) 0.32174(4)
H22_15 H 0.205579 0.964133 0.310449
C36_15 C 0.2599(2) 0.96258(6) 0.34889(4)
H23_15 H 0.189252 0.963810 0.357763
C37_15 C 0.3635(2) 0.96053(5) 0.36127(4)
S6_15 S 0.47293(5) 0.95783(2) 0.33915(2)
O8_16 O 0.17166(12) 0.20918(4) 0.29357(3)
C23_16 C 0.06748(17) 0.21351(5) 0.29849(4)
C24_16 C 0.03263(17) 0.20814(5) 0.32557(4)
C25_16 C 0.09927(19) 0.20309(6) 0.34659(4)
H18_16 H 0.179901 0.201582 0.345870
C26_16 C 0.0358(2) 0.20032(6) 0.36965(4)
H19_16 H 0.069037 0.196908 0.386114
H22_16 H 0.044421 0.285867 0.310449
H23_16 H 0.060748 0.286190 0.357763
C3_16 C 0.68252(17) 0.21351(5) 0.45151(4)
C4_16 C 0.71737(17) 0.20814(5) 0.42443(4)
C5_16 C 0.65073(19) 0.20309(6) 0.40341(4)
H3_16 H 0.570099 0.201582 0.404130
C6_16 C 0.7142(2) 0.20032(6) 0.38035(4)
H4_16 H 0.680963 0.196908 0.363886
C7_16 C 0.82915(18) 0.20310(5) 0.38439(4)
S1_16 S 0.85909(4) 0.20943(2) 0.41645(2)
C8_16 C 0.50571(16) 0.27283(4) 0.48632(4)
C9_16 C 0.43860(17) 0.30190(5) 0.48059(4)
C10_16 C 0.32478(19) 0.30481(5) 0.47553(5)
H5_16 H 0.274454 0.287226 0.474333
C11_16 C 0.28983(19) 0.33647(5) 0.47227(5)
H6_16 H 0.213398 0.342448 0.468762
C12_16 C 0.37717(19) 0.35786(5) 0.47468(5)
S2_16 S 0.50428(4) 0.33853(2) 0.48081(2)
C13_16 C 0.92256(17) 0.29126(5) 0.46299(4)
C14_16 C 0.87936(19) 0.28963(5) 0.43652(4)
C15_16 C 0.76905(19) 0.28734(5) 0.42826(4)
H7_16 H 0.705579 0.285867 0.439551
C16_16 C 0.7599(2) 0.28742(6) 0.40111(4)
H8_16 H 0.689252 0.286190 0.392237
C17_16 C 0.8635(2) 0.28947(5) 0.38873(4)
S3_16 S 0.97293(5) 0.29217(2) 0.41085(2)
C27_16 C 0.92085(18) 0.20310(5) 0.36561(4)
S4_16 S 0.89091(4) 0.20943(2) 0.33355(2)
O10_16 O 0.30218(12) 0.50157(3) 0.49111(3)
C28_16 C 0.24429(16) 0.47717(4) 0.48632(4)
C29_16 C 0.31140(17) 0.44810(5) 0.48059(4)
C30_16 C 0.42522(19) 0.44519(5) 0.47553(5)
H20_16 H 0.475546 0.462774 0.474333
C31_16 C 0.46017(19) 0.41353(5) 0.47227(5)
H21_16 H 0.536602 0.407552 0.468762
C32_16 C 0.37283(19) 0.39214(5) 0.47468(5)
S5_16 S 0.24572(4) 0.41147(2) 0.48081(2)
C33_16 C 0.82744(17) 0.29126(5) 0.28701(4)
C34_16 C 0.87064(19) 0.28963(5) 0.31348(4)
C35_16 C 0.98095(19) 0.28734(5) 0.32174(4)
C36_16 C 0.9901(2) 0.28742(6) 0.34889(4)
C37_16 C 0.8865(2) 0.28947(5) 0.36127(4)
S6_16 S 0.77707(5) 0.29217(2) 0.33915(2)
N1_13 N 0.07817(15) 0.59444(4) 0.75787(3)
C1_13 C 0.01255(18) 0.62047(5) 0.75799(5)
C2_13 C 0.05855(19) 0.65092(5) 0.75758(4)
H2_13 H 0.009027 0.668725 0.757093
N3_13 N 0.17183(15) 0.65556(4) 0.75787(3)
C21_13 C 0.23745(18) 0.62953(5) 0.75799(5)
H16_13 H 0.317852 0.631932 0.758371
C22_13 C 0.19145(19) 0.59908(5) 0.75758(4)
H17_13 H 0.240973 0.581275 0.757093
O14_13 O 0.39025(12) 0.68567(3) 0.77354(3)
C38_13 C 0.4635(2) 0.70465(6) 0.78151(6)
H24_13 H 0.448506 0.726586 0.779002
N4_13 N 0.5585(2) 0.69732(6) 0.79295(5)
C39_13 C 0.6398(3) 0.72139(10) 0.80093(8)
H25_13 H 0.716176 0.715396 0.795076
H26_13 H 0.618743 0.741846 0.793313
H27_13 H 0.639355 0.723162 0.819773
C40_13 C 0.5901(3) 0.66490(9) 0.79724(8)
H28_13 H 0.667419 0.661328 0.790732
H29_13 H 0.587766 0.660302 0.815759
H30_13 H 0.536892 0.650913 0.788162
H1_13 H 0.932148 0.618068 0.758371
O7_13 O 0.85975(12) 0.56433(3) 0.77354(3)
C18_13 C 0.7865(2) 0.54535(6) 0.78151(6)
H9_13 H 0.801494 0.523414 0.779002
N2_13 N 0.6915(2) 0.55268(6) 0.79295(5)
C19_13 C 0.6102(3) 0.52861(10) 0.80093(8)
H10_13 H 0.533824 0.534604 0.795076
H11_13 H 0.631257 0.508154 0.793313
H12_13 H 0.610645 0.526838 0.819773
C20_13 C 0.6599(3) 0.58510(9) 0.79724(8)
H13_13 H 0.582581 0.588672 0.790732
H14_13 H 0.662234 0.589698 0.815759
H15_13 H 0.713108 0.599087 0.788162
N1_14 N 0.17183(15) 0.59444(4) 0.49213(3)
C1_14 C 0.23745(18) 0.62047(5) 0.49201(5)
H1_14 H 0.317852 0.618068 0.491629
C2_14 C 0.19145(19) 0.65092(5) 0.49242(4)
H2_14 H 0.240973 0.668725 0.492907
O7_14 O 0.39025(12) 0.56433(3) 0.47646(3)
C18_14 C 0.4635(2) 0.54535(6) 0.46849(6)
H9_14 H 0.448506 0.523414 0.470998
N2_14 N 0.5585(2) 0.55268(6) 0.45705(5)
C19_14 C 0.6398(3) 0.52861(10) 0.44907(8)
H10_14 H 0.716176 0.534604 0.454924
H11_14 H 0.618743 0.508154 0.456687
H12_14 H 0.639355 0.526838 0.430227
C20_14 C 0.5901(3) 0.58510(9) 0.45276(8)
H13_14 H 0.667419 0.588672 0.459268
H14_14 H 0.587766 0.589698 0.434241
H15_14 H 0.536892 0.599087 0.461838
N3_14 N 0.07817(15) 0.65556(4) 0.49213(3)
C21_14 C 0.01255(18) 0.62953(5) 0.49201(5)
C22_14 C 0.05855(19) 0.59908(5) 0.49242(4)
H17_14 H 0.009027 0.581275 0.492907
H16_14 H 0.932148 0.631932 0.491629
O14_14 O 0.85975(12) 0.68567(3) 0.47646(3)
C38_14 C 0.7865(2) 0.70465(6) 0.46849(6)
H24_14 H 0.801494 0.726586 0.470998
N4_14 N 0.6915(2) 0.69732(6) 0.45705(5)
C39_14 C 0.6102(3) 0.72139(10) 0.44907(8)
H25_14 H 0.533824 0.715396 0.454924
H26_14 H 0.631257 0.741846 0.456687
H27_14 H 0.610645 0.723162 0.430227
C40_14 C 0.6599(3) 0.66490(9) 0.45276(8)
H28_14 H 0.582581 0.661328 0.459268
H29_14 H 0.662234 0.660302 0.434241
H30_14 H 0.713108 0.650913 0.461838
N1_15 N 0.07817(15) 0.09444(4) 0.25787(3)
C1_15 C 0.01255(18) 0.12047(5) 0.25799(5)
C2_15 C 0.05855(19) 0.15092(5) 0.25758(4)
H2_15 H 0.009027 0.168725 0.257093
N3_15 N 0.17183(15) 0.15556(4) 0.25787(3)
C21_15 C 0.23745(18) 0.12953(5) 0.25799(5)
H16_15 H 0.317852 0.131932 0.258371
C22_15 C 0.19145(19) 0.09908(5) 0.25758(4)
H17_15 H 0.240973 0.081275 0.257093
O14_15 O 0.39025(12) 0.18567(3) 0.27354(3)
C38_15 C 0.4635(2) 0.20465(6) 0.28151(6)
H24_15 H 0.448506 0.226586 0.279002
N4_15 N 0.5585(2) 0.19732(6) 0.29295(5)
C39_15 C 0.6398(3) 0.22139(10) 0.30093(8)
H25_15 H 0.716176 0.215396 0.295076
H26_15 H 0.618743 0.241846 0.293313
H27_15 H 0.639355 0.223162 0.319773
C40_15 C 0.5901(3) 0.16490(9) 0.29724(8)
H28_15 H 0.667419 0.161328 0.290732
H29_15 H 0.587766 0.160302 0.315759
H30_15 H 0.536892 0.150913 0.288162
H1_15 H 0.932148 0.118068 0.258371
O7_15 O 0.85975(12) 0.06433(3) 0.27354(3)
C18_15 C 0.7865(2) 0.04535(6) 0.28151(6)
H9_15 H 0.801494 0.023414 0.279002
N2_15 N 0.6915(2) 0.05268(6) 0.29295(5)
C19_15 C 0.6102(3) 0.02861(10) 0.30093(8)
H10_15 H 0.533824 0.034604 0.295076
H11_15 H 0.631257 0.008154 0.293313
H12_15 H 0.610645 0.026838 0.319773
C20_15 C 0.6599(3) 0.08510(9) 0.29724(8)
H13_15 H 0.582581 0.088672 0.290732
H14_15 H 0.662234 0.089698 0.315759
H15_15 H 0.713108 0.099087 0.288162
N1_16 N 0.17183(15) 0.09444(4) 0.99213(3)
C1_16 C 0.23745(18) 0.12047(5) 0.99201(5)
H1_16 H 0.317852 0.118068 0.991629
C2_16 C 0.19145(19) 0.15092(5) 0.99242(4)
H2_16 H 0.240973 0.168725 0.992907
O7_16 O 0.39025(12) 0.06433(3) 0.97646(3)
C18_16 C 0.4635(2) 0.04535(6) 0.96849(6)
H9_16 H 0.448506 0.023414 0.970998
N2_16 N 0.5585(2) 0.05268(6) 0.95705(5)
C19_16 C 0.6398(3) 0.02861(10) 0.94907(8)
H10_16 H 0.716176 0.034604 0.954924
H11_16 H 0.618743 0.008154 0.956687
H12_16 H 0.639355 0.026838 0.930227
C20_16 C 0.5901(3) 0.08510(9) 0.95276(8)
H13_16 H 0.667419 0.088672 0.959268
H14_16 H 0.587766 0.089698 0.934241
H15_16 H 0.536892 0.099087 0.961838
N3_16 N 0.07817(15) 0.15556(4) 0.99213(3)
C21_16 C 0.01255(18) 0.12953(5) 0.99201(5)
C22_16 C 0.05855(19) 0.09908(5) 0.99242(4)
H17_16 H 0.009027 0.081275 0.992907
H16_16 H 0.932148 0.131932 0.991629
O14_16 O 0.85975(12) 0.18567(3) 0.97646(3)
C38_16 C 0.7865(2) 0.20465(6) 0.96849(6)
H24_16 H 0.801494 0.226586 0.970998
N4_16 N 0.6915(2) 0.19732(6) 0.95705(5)
C39_16 C 0.6102(3) 0.22139(10) 0.94907(8)
H25_16 H 0.533824 0.215396 0.954924
H26_16 H 0.631257 0.241846 0.956687
H27_16 H 0.610645 0.223162 0.930227
C40_16 C 0.6599(3) 0.16490(9) 0.95276(8)
H28_16 H 0.582581 0.161328 0.959268
H29_16 H 0.662234 0.160302 0.934241
H30_16 H 0.713108 0.150913 0.961838
loop_
_geom_bond_atom_site_label_1
_geom_bond_atom_site_label_2
_geom_bond_site_symmetry_1
_geom_bond_site_symmetry_2
Co1 N1 1_555 1_555
Co2 O2 1_555 1_555
N1 C1 1_555 1_555
C1 H1 1_555 1_555
C2 C1 1_555 1_555
H2 C2 1_555 1_555
O1 Co1 1_555 1_555
O2 C3 1_555 1_555
C3 O1 1_555 1_555
C4 C3 1_555 1_555
C5 C4 1_555 1_555
H3 C5 1_555 1_555
C6 C5 1_555 1_555
H4 C6 1_555 1_555
C7 C6 1_555 1_555
S1 C4 1_555 1_555
O3 Co1 1_555 1_555
O4 Co2 1_555 1_555
C8 O3 1_555 1_555
C9 C8 1_555 1_555
C10 C9 1_555 1_555
H5 C10 1_555 1_555
C11 C10 1_555 1_555
H6 C11 1_555 1_555
C12 C11 1_555 1_555
S2 C9 1_555 1_555
O5 Co2 1_555 1_555
C13 O5 1_555 1_555
C14 C13 1_555 1_555
C15 C14 1_555 1_555
H7 C15 1_555 1_555
C16 C15 1_555 1_555
H8 C16 1_555 1_555
C17 C16 1_555 1_555
S3 C14 1_555 1_555
O7 Co1 1_555 1_555
C18 O7 1_555 1_555
H9 C18 1_555 1_555
N2 C18 1_555 1_555
C19 N2 1_555 1_555
H10 C19 1_555 1_555
H11 C19 1_555 1_555
H12 C19 1_555 1_555
C20 N2 1_555 1_555
H13 C20 1_555 1_555
H14 C20 1_555 1_555
H15 C20 1_555 1_555
N3 C2 1_555 1_555
C21 N3 1_555 1_555
H16 C21 1_555 1_555
C22 N1 1_555 1_555
H17 C22 1_555 1_555
C27 C7 1_555 1_555
O10 C28 1_555 1_555
O11 C28 1_555 1_555
C28 C29 1_555 1_555
C29 C30 1_555 1_555
C30 H20 1_555 1_555
C31 C30 1_555 1_555
H21 C31 1_555 1_555
C32 C12 1_555 1_555
S5 C29 1_555 1_555
O12 C33 1_555 1_555
O13 C33 1_555 1_555
C33 C34 1_555 1_555
C34 C35 1_555 1_555
C36 C35 1_555 1_555
C37 C17 1_555 1_555
S6 C34 1_555 1_555
Co3 N3 1_555 1_555
O14 Co3 1_555 1_555
C38 O14 1_555 1_555
H24 C38 1_555 1_555
Co5 O10 1_555 1_555
Co6 O5 1_555 1_555
Co7 O12 1_555 1_555
Co8 O9 1_555 1_555
Co9_2 O11 1_555 1_555
O15 Co3 1_555 1_555
O16 Co2 1_555 1_555
O17 Co3 1_555 1_555
O18 Co2 1_555 1_555
O19 Co3 1_555 1_555
O20 Co1 1_555 1_555
O21 Co3 1_555 1_555
O22 Co1 1_555 1_555
Co2 O20 1_555 1_555
C7 S1 1_555 1_555
O4 C8 1_555 1_555
C12 S2 1_555 1_555
C17 S3 1_555 1_555
C21 C22 1_555 1_555
C27 S4 1_555 1_555
C31 C32 1_555 1_555
C32 S5 1_555 1_555
O12 Co8 1_555 1_555
O13 Co7 1_555 1_555
C36 C37 1_555 1_555
C37 S6 1_555 1_555
O8 C23 1_555 1_555
C23 C24 1_555 1_555
C24 C25 1_555 1_555
C25 H18 1_555 1_555
C26 C25 1_555 1_555
H19 C26 1_555 1_555
C39 N4 1_555 1_555
H25 C39 1_555 1_555
H26 C39 1_555 1_555
H27 C39 1_555 1_555
C40 N4 1_555 1_555
H28 C40 1_555 1_555
H29 C40 1_555 1_555
H30 C40 1_555 1_555
Co4 O8 1_555 1_555
Co2_2 O2_2 1_555 1_555
O2_2 C3_2 1_555 1_555
C3_2 O15 1_555 1_555
C4_2 C3_2 1_555 1_555
C5_2 C4_2 1_555 1_555
H3_2 C5_2 1_555 1_555
C6_2 C5_2 1_555 1_555
H4_2 C6_2 1_555 1_555
C7_2 C6_2 1_555 1_555
S1_2 C4_2 1_555 1_555
O4_2 Co2_2 1_555 1_555
C8_2 O17 1_555 1_555
C9_2 C8_2 1_555 1_555
C10_2 C9_2 1_555 1_555
H5_2 C10_2 1_555 1_555
C11_2 C10_2 1_555 1_555
C12_2 C11_2 1_555 1_555
S2_2 C9_2 1_555 1_555
O5_2 Co2_2 1_555 1_555
O6_2 C13_2 1_555 1_555
C13_2 O5_2 1_555 1_555
C14_2 C13_2 1_555 1_555
C15_2 C14_2 1_555 1_555
H7_2 C15_2 1_555 1_555
C16_2 C15_2 1_555 1_555
H8_2 C16_2 1_555 1_555
C17_2 C16_2 1_555 1_555
S3_2 C14_2 1_555 1_555
O8_2 C23_2 1_555 1_555
O9_2 C23_2 1_555 1_555
C23_2 C24_2 1_555 1_555
C24_2 C25_2 1_555 1_555
C25_2 H18_2 1_555 1_555
C26_2 C25_2 1_555 1_555
H19_2 C26_2 1_555 1_555
C27_2 C7_2 1_555 1_555
S4_2 C24_2 1_555 1_555
C29_2 C30_2 1_555 1_555
C30_2 H20_2 1_555 1_555
C31_2 C30_2 1_555 1_555
H21_2 C31_2 1_555 1_555
C32_2 C12_2 1_555 1_555
O12_2 C33_2 1_555 1_555
O13_2 C33_2 1_555 1_555
C33_2 C34_2 1_555 1_555
C34_2 C35_2 1_555 1_555
C35_2 H22_2 1_555 1_555
C36_2 C35_2 1_555 1_555
H23_2 C36_2 1_555 1_555
C37_2 C17_2 1_555 1_555
S6_2 C34_2 1_555 1_555
Co4_2 O8_2 1_555 1_555
Co6_2 O5_2 1_555 1_555
Co7_2 O12_2 1_555 1_555
Co8_3 O9_2 1_555 1_555
O16_2 Co2_2 1_555 1_555
O18_2 Co2_2 1_555 1_555
Co2_2 O19 1_555 1_555
C7_2 S1_2 1_555 1_555
O4_2 C8_2 1_555 1_555
C12_2 S2_2 1_555 1_555
O6_2 Co6_2 1_555 1_555
C17_2 S3_2 1_555 1_555
C26_2 C27_2 1_555 1_555
C27_2 S4_2 1_555 1_555
C31_2 C32_2 1_555 1_555
O12_2 Co8_3 1_555 1_555
O13_2 Co7_2 1_555 1_555
C36_2 C37_2 1_555 1_555
C37_2 S6_2 1_555 1_555
O11_2 C28_2 1_555 1_555
Co9_3 O11_2 1_555 1_555
Co1_2 N1_2 1_555 1_555
Co2_3 O2_3 1_555 1_555
N1_2 C1_2 1_555 1_555
C1_2 H1_2 1_555 1_555
C2_2 C1_2 1_555 1_555
H2_2 C2_2 1_555 1_555
O1_2 Co1_2 1_555 1_555
O2_3 C3_3 1_555 1_555
C3_3 O1_2 1_555 1_555
C4_3 C3_3 1_555 1_555
C5_3 C4_3 1_555 1_555
H3_3 C5_3 1_555 1_555
C6_3 C5_3 1_555 1_555
H4_3 C6_3 1_555 1_555
C7_3 C6_3 1_555 1_555
S1_3 C4_3 1_555 1_555
O3_2 Co1_2 1_555 1_555
O4_3 Co2_3 1_555 1_555
C8_3 O3_2 1_555 1_555
C9_3 C8_3 1_555 1_555
C10_3 C9_3 1_555 1_555
H5_3 C10_3 1_555 1_555
C11_3 C10_3 1_555 1_555
C12_3 C11_3 1_555 1_555
S2_3 C9_3 1_555 1_555
O5_3 Co2_3 1_555 1_555
O6_3 C13_3 1_555 1_555
C13_3 O5_3 1_555 1_555
C14_3 C13_3 1_555 1_555
C15_3 C14_3 1_555 1_555
H7_3 C15_3 1_555 1_555
C16_3 C15_3 1_555 1_555
H8_3 C16_3 1_555 1_555
C17_3 C16_3 1_555 1_555
S3_3 C14_3 1_555 1_555
O7_2 Co1_2 1_555 1_555
C18_2 O7_2 1_555 1_555
H9_2 C18_2 1_555 1_555
N3_2 C2_2 1_555 1_555
C21_2 N3_2 1_555 1_555
H16_2 C21_2 1_555 1_555
C22_2 N1_2 1_555 1_555
H17_2 C22_2 1_555 1_555
O8_3 C23_3 1_555 1_555
O9_3 C23_3 1_555 1_555
C23_3 C24_3 1_555 1_555
C24_3 C25_3 1_555 1_555
C25_3 H18_3 1_555 1_555
C26_3 C25_3 1_555 1_555
H19_3 C26_3 1_555 1_555
C27_3 C7_3 1_555 1_555
S4_3 C24_3 1_555 1_555
C29_3 C30_3 1_555 1_555
C30_3 H20_3 1_555 1_555
C31_3 C30_3 1_555 1_555
H21_3 C31_3 1_555 1_555
C32_3 C12_3 1_555 1_555
O12_3 C33_3 1_555 1_555
O13_3 C33_3 1_555 1_555
C33_3 C34_3 1_555 1_555
C34_3 C35_3 1_555 1_555
C35_3 H22_3 1_555 1_555
C36_3 C35_3 1_555 1_555
H23_3 C36_3 1_555 1_555
C37_3 C17_3 1_555 1_555
S6_3 C34_3 1_555 1_555
Co3_2 N3_2 1_555 1_555
O14_2 Co3_2 1_555 1_555
C38_2 O14_2 1_555 1_555
H24_2 C38_2 1_555 1_555
N4_2 C38_2 1_555 1_555
C39_2 N4_2 1_555 1_555
H25_2 C39_2 1_555 1_555
H26_2 C39_2 1_555 1_555
H27_2 C39_2 1_555 1_555
C40_2 N4_2 1_555 1_555
H28_2 C40_2 1_555 1_555
H29_2 C40_2 1_555 1_555
H30_2 C40_2 1_555 1_555
Co4_3 O8_3 1_555 1_555
Co7_3 O12_3 1_555 1_555
Co8_4 O9_3 1_555 1_555
O15_2 Co3_2 1_555 1_555
O17_2 Co3_2 1_555 1_555
C7_3 S1_3 1_555 1_555
O4_3 C8_3 1_555 1_555
C12_3 S2_3 1_555 1_555
C17_3 S3_3 1_555 1_555
C21_2 C22_2 1_555 1_555
C26_3 C27_3 1_555 1_555
C27_3 S4_3 1_555 1_555
C31_3 C32_3 1_555 1_555
O12_3 Co8_4 1_555 1_555
O13_3 Co7_3 1_555 1_555
C36_3 C37_3 1_555 1_555
C37_3 S6_3 1_555 1_555
O16_3 Co2_4 1_555 1_555
O18_3 Co2_4 1_555 1_555
Co2_4 O20_2 1_555 1_555
C19_2 N2_2 1_555 1_555
H10_2 C19_2 1_555 1_555
H11_2 C19_2 1_555 1_555
H12_2 C19_2 1_555 1_555
C20_2 N2_2 1_555 1_555
H13_2 C20_2 1_555 1_555
H14_2 C20_2 1_555 1_555
H15_2 C20_2 1_555 1_555
O11_3 C28_3 1_555 1_555
Co9_5 O11_3 1_555 1_555
Co2_5 O2_4 1_555 1_555
O2_4 C3_4 1_555 1_555
C3_4 O15_2 1_555 1_555
C4_4 C3_4 1_555 1_555
C5_4 C4_4 1_555 1_555
H3_4 C5_4 1_555 1_555
C6_4 C5_4 1_555 1_555
H4_4 C6_4 1_555 1_555
C7_4 C6_4 1_555 1_555
S1_4 C4_4 1_555 1_555
O4_4 Co2_5 1_555 1_555
C8_4 O17_2 1_555 1_555
C9_4 C8_4 1_555 1_555
C10_4 C9_4 1_555 1_555
H5_4 C10_4 1_555 1_555
C11_4 C10_4 1_555 1_555
H6_4 C11_4 1_555 1_555
C12_4 C11_4 1_555 1_555
S2_4 C9_4 1_555 1_555
O5_4 Co2_5 1_555 1_555
C13_4 O5_4 1_555 1_555
C14_4 C13_4 1_555 1_555
C15_4 C14_4 1_555 1_555
H7_4 C15_4 1_555 1_555
C16_4 C15_4 1_555 1_555
H8_4 C16_4 1_555 1_555
C17_4 C16_4 1_555 1_555
S3_4 C14_4 1_555 1_555
C27_4 C7_4 1_555 1_555
O11_4 C28_4 1_555 1_555
C28_4 C29_4 1_555 1_555
C29_4 C30_4 1_555 1_555
C30_4 H20_4 1_555 1_555
C31_4 C30_4 1_555 1_555
H21_4 C31_4 1_555 1_555
C32_4 C12_4 1_555 1_555
S5_4 C29_4 1_555 1_555
O12_4 C33_4 1_555 1_555
O13_4 C33_4 1_555 1_555
C33_4 C34_4 1_555 1_555
C34_4 C35_4 1_555 1_555
C36_4 C35_4 1_555 1_555
C37_4 C17_4 1_555 1_555
S6_4 C34_4 1_555 1_555
Co7_4 O12_4 1_555 1_555
Co8_5 O9_4 1_555 1_555
Co9_11 O11_4 1_555 1_555
C7_4 S1_4 1_555 1_555
O4_4 C8_4 1_555 1_555
C12_4 S2_4 1_555 1_555
C17_4 S3_4 1_555 1_555
C27_4 S4_4 1_555 1_555
C31_4 C32_4 1_555 1_555
C32_4 S5_4 1_555 1_555
O12_4 Co8_5 1_555 1_555
O13_4 Co7_4 1_555 1_555
C36_4 C37_4 1_555 1_555
C37_4 S6_4 1_555 1_555
O16_4 Co2_6 1_555 1_555
O18_4 Co2_6 1_555 1_555
Co2_6 O19_2 1_555 1_555
Co5_4 O10_4 1_555 1_555
O8_4 C23_4 1_555 1_555
C23_4 C24_4 1_555 1_555
C24_4 C25_4 1_555 1_555
C25_4 H18_4 1_555 1_555
C26_4 C25_4 1_555 1_555
H19_4 C26_4 1_555 1_555
Co4_4 O8_4 1_555 1_555
O4_5 Co2_7 1_555 1_555
C9_5 C8_5 1_555 1_555
C10_5 C9_5 1_555 1_555
H5_5 C10_5 1_555 1_555
C11_5 C10_5 1_555 1_555
H6_5 C11_5 1_555 1_555
C12_5 C11_5 1_555 1_555
S2_5 C9_5 1_555 1_555
O5_5 Co2_7 1_555 1_555
C13_5 O5_5 1_555 1_555
C14_5 C13_5 1_555 1_555
C15_5 C14_5 1_555 1_555
H7_5 C15_5 1_555 1_555
C16_5 C15_5 1_555 1_555
H8_5 C16_5 1_555 1_555
C17_5 C16_5 1_555 1_555
S3_5 C14_5 1_555 1_555
O10_5 C28_5 1_555 1_555
O11_5 C28_5 1_555 1_555
C28_5 C29_5 1_555 1_555
C29_5 C30_5 1_555 1_555
C30_5 H20_5 1_555 1_555
C31_5 C30_5 1_555 1_555
H21_5 C31_5 1_555 1_555
C32_5 C12_5 1_555 1_555
S5_5 C29_5 1_555 1_555
O12_5 C33_5 1_555 1_555
O13_5 C33_5 1_555 1_555
C33_5 C34_5 1_555 1_555
C34_5 C35_5 1_555 1_555
C36_5 C35_5 1_555 1_555
C37_5 C17_5 1_555 1_555
S6_5 C34_5 1_555 1_555
Co4_4 O10_5 1_555 1_555
Co6_5 O5_5 1_555 1_555
Co8_6 O11_5 1_555 1_555
O16_5 Co2_7 1_555 1_555
O4_5 C8_5 1_555 1_555
C12_5 S2_5 1_555 1_555
C17_5 S3_5 1_555 1_555
C31_5 C32_5 1_555 1_555
C32_5 S5_5 1_555 1_555
O12_5 Co9_7 1_555 1_555
C36_5 C37_5 1_555 1_555
C37_5 S6_5 1_555 1_555
Co1_3 N1_3 1_555 1_555
Co2_8 O2_5 1_555 1_555
N1_3 C1_3 1_555 1_555
C1_3 H1_3 1_555 1_555
C2_3 C1_3 1_555 1_555
H2_3 C2_3 1_555 1_555
O1_3 Co1_3 1_555 1_555
O2_5 C3_5 1_555 1_555
C3_5 O1_3 1_555 1_555
C4_5 C3_5 1_555 1_555
C5_5 C4_5 1_555 1_555
H3_5 C5_5 1_555 1_555
C6_5 C5_5 1_555 1_555
H4_5 C6_5 1_555 1_555
C7_5 C6_5 1_555 1_555
S1_5 C4_5 1_555 1_555
O3_3 Co1_3 1_555 1_555
O7_3 Co1_3 1_555 1_555
C18_3 O7_3 1_555 1_555
H9_3 C18_3 1_555 1_555
N2_3 C18_3 1_555 1_555
C19_3 N2_3 1_555 1_555
H10_3 C19_3 1_555 1_555
H11_3 C19_3 1_555 1_555
H12_3 C19_3 1_555 1_555
C20_3 N2_3 1_555 1_555
H13_3 C20_3 1_555 1_555
H14_3 C20_3 1_555 1_555
H15_3 C20_3 1_555 1_555
N3_3 C2_3 1_555 1_555
C21_3 N3_3 1_555 1_555
H16_3 C21_3 1_555 1_555
C22_3 N1_3 1_555 1_555
H17_3 C22_3 1_555 1_555
C27_5 C7_5 1_555 1_555
Co3_3 N3_3 1_555 1_555
O14_3 Co3_3 1_555 1_555
C38_3 O14_3 1_555 1_555
H24_3 C38_3 1_555 1_555
Co9_9 O9_5 1_555 1_555
O15_3 Co3_3 1_555 1_555
O17_3 Co3_3 1_555 1_555
O18_5 Co2_8 1_555 1_555
O19_3 Co3_3 1_555 1_555
O20_3 Co1_3 1_555 1_555
O21_3 Co3_3 1_555 1_555
O22_3 Co1_3 1_555 1_555
Co2_8 O20_3 1_555 1_555
C7_5 S1_5 1_555 1_555
C21_3 C22_3 1_555 1_555
C27_5 S4_5 1_555 1_555
O8_5 C23_5 1_555 1_555
C23_5 C24_5 1_555 1_555
C24_5 C25_5 1_555 1_555
C25_5 H18_5 1_555 1_555
C26_5 C25_5 1_555 1_555
H19_5 C26_5 1_555 1_555
C39_3 N4_3 1_555 1_555
H25_3 C39_3 1_555 1_555
H26_3 C39_3 1_555 1_555
H27_3 C39_3 1_555 1_555
C40_3 N4_3 1_555 1_555
H28_3 C40_3 1_555 1_555
H29_3 C40_3 1_555 1_555
H30_3 C40_3 1_555 1_555
Co5_4 O8_5 1_555 1_555
Co2_9 O2_6 1_555 1_555
O2_6 C3_6 1_555 1_555
C3_6 O15_3 1_555 1_555
C4_6 C3_6 1_555 1_555
C5_6 C4_6 1_555 1_555
H3_6 C5_6 1_555 1_555
C6_6 C5_6 1_555 1_555
H4_6 C6_6 1_555 1_555
C7_6 C6_6 1_555 1_555
S1_6 C4_6 1_555 1_555
O4_6 Co2_9 1_555 1_555
C8_6 O17_3 1_555 1_555
C9_6 C8_6 1_555 1_555
C10_6 C9_6 1_555 1_555
H5_6 C10_6 1_555 1_555
C11_6 C10_6 1_555 1_555
C12_6 C11_6 1_555 1_555
S2_6 C9_6 1_555 1_555
O5_6 Co2_9 1_555 1_555
O6_6 C13_6 1_555 1_555
C13_6 O5_6 1_555 1_555
C14_6 C13_6 1_555 1_555
C15_6 C14_6 1_555 1_555
H7_6 C15_6 1_555 1_555
C16_6 C15_6 1_555 1_555
H8_6 C16_6 1_555 1_555
C17_6 C16_6 1_555 1_555
S3_6 C14_6 1_555 1_555
O8_6 C23_6 1_555 1_555
O9_6 C23_6 1_555 1_555
C23_6 C24_6 1_555 1_555
C24_6 C25_6 1_555 1_555
C25_6 H18_6 1_555 1_555
C26_6 C25_6 1_555 1_555
H19_6 C26_6 1_555 1_555
C27_6 C7_6 1_555 1_555
S4_6 C24_6 1_555 1_555
C29_6 C30_6 1_555 1_555
C30_6 H20_6 1_555 1_555
C31_6 C30_6 1_555 1_555
H21_6 C31_6 1_555 1_555
C32_6 C12_6 1_555 1_555
O12_6 C33_6 1_555 1_555
O13_6 C33_6 1_555 1_555
C33_6 C34_6 1_555 1_555
C34_6 C35_6 1_555 1_555
C35_6 H22_6 1_555 1_555
C36_6 C35_6 1_555 1_555
H23_6 C36_6 1_555 1_555
C37_6 C17_6 1_555 1_555
S6_6 C34_6 1_555 1_555
Co5_3 O8_6 1_555 1_555
Co6_6 O5_6 1_555 1_555
Co9_5 O9_6 1_555 1_555
O16_6 Co2_9 1_555 1_555
O18_6 Co2_9 1_555 1_555
Co2_9 O19_3 1_555 1_555
C7_6 S1_6 1_555 1_555
O4_6 C8_6 1_555 1_555
C12_6 S2_6 1_555 1_555
O6_6 Co6_6 1_555 1_555
C17_6 S3_6 1_555 1_555
C26_6 C27_6 1_555 1_555
C27_6 S4_6 1_555 1_555
C31_6 C32_6 1_555 1_555
O12_6 Co9_5 1_555 1_555
C36_6 C37_6 1_555 1_555
C37_6 S6_6 1_555 1_555
O11_6 C28_6 1_555 1_555
Co8_4 O11_6 1_555 1_555
O4_7 Co2_10 1_555 1_555
C9_7 C8_7 1_555 1_555
C10_7 C9_7 1_555 1_555
H5_7 C10_7 1_555 1_555
C11_7 C10_7 1_555 1_555
C12_7 C11_7 1_555 1_555
S2_7 C9_7 1_555 1_555
O5_7 Co2_10 1_555 1_555
O6_7 C13_7 1_555 1_555
C13_7 O5_7 1_555 1_555
C14_7 C13_7 1_555 1_555
C15_7 C14_7 1_555 1_555
H7_7 C15_7 1_555 1_555
C16_7 C15_7 1_555 1_555
H8_7 C16_7 1_555 1_555
C17_7 C16_7 1_555 1_555
S3_7 C14_7 1_555 1_555
C29_7 C30_7 1_555 1_555
C30_7 H20_7 1_555 1_555
C31_7 C30_7 1_555 1_555
H21_7 C31_7 1_555 1_555
C32_7 C12_7 1_555 1_555
O12_7 C33_7 1_555 1_555
O13_7 C33_7 1_555 1_555
C33_7 C34_7 1_555 1_555
C34_7 C35_7 1_555 1_555
C35_7 H22_7 1_555 1_555
C36_7 C35_7 1_555 1_555
H23_7 C36_7 1_555 1_555
C37_7 C17_7 1_555 1_555
S6_7 C34_7 1_555 1_555
Co6_7 O5_7 1_555 1_555
Co7_7 O12_7 1_555 1_555
O16_7 Co2_10 1_555 1_555
O4_7 C8_7 1_555 1_555
C12_7 S2_7 1_555 1_555
O6_7 Co6_7 1_555 1_555
C17_7 S3_7 1_555 1_555
C31_7 C32_7 1_555 1_555
O12_7 Co9_3 1_555 1_555
O13_7 Co7_7 1_555 1_555
C36_7 C37_7 1_555 1_555
C37_7 S6_7 1_555 1_555
Co1_4 N1_4 1_555 1_555
Co2_11 O2_7 1_555 1_555
N1_4 C1_4 1_555 1_555
C1_4 H1_4 1_555 1_555
C2_4 C1_4 1_555 1_555
H2_4 C2_4 1_555 1_555
O1_4 Co1_4 1_555 1_555
O2_7 C3_7 1_555 1_555
C3_7 O1_4 1_555 1_555
C4_7 C3_7 1_555 1_555
C5_7 C4_7 1_555 1_555
H3_7 C5_7 1_555 1_555
C6_7 C5_7 1_555 1_555
H4_7 C6_7 1_555 1_555
C7_7 C6_7 1_555 1_555
S1_7 C4_7 1_555 1_555
O3_4 Co1_4 1_555 1_555
O7_4 Co1_4 1_555 1_555
C18_4 O7_4 1_555 1_555
H9_4 C18_4 1_555 1_555
N3_4 C2_4 1_555 1_555
C21_4 N3_4 1_555 1_555
H16_4 C21_4 1_555 1_555
C22_4 N1_4 1_555 1_555
H17_4 C22_4 1_555 1_555
O8_7 C23_7 1_555 1_555
O9_7 C23_7 1_555 1_555
C23_7 C24_7 1_555 1_555
C24_7 C25_7 1_555 1_555
C25_7 H18_7 1_555 1_555
C26_7 C25_7 1_555 1_555
H19_7 C26_7 1_555 1_555
C27_7 C7_7 1_555 1_555
S4_7 C24_7 1_555 1_555
Co3_4 N3_4 1_555 1_555
O14_4 Co3_4 1_555 1_555
C38_4 O14_4 1_555 1_555
H24_4 C38_4 1_555 1_555
N4_4 C38_4 1_555 1_555
C39_4 N4_4 1_555 1_555
H25_4 C39_4 1_555 1_555
H26_4 C39_4 1_555 1_555
H27_4 C39_4 1_555 1_555
C40_4 N4_4 1_555 1_555
H28_4 C40_4 1_555 1_555
H29_4 C40_4 1_555 1_555
H30_4 C40_4 1_555 1_555
Co5_2 O8_7 1_555 1_555
Co9_4 O9_7 1_555 1_555
O15_4 Co3_4 1_555 1_555
O17_4 Co3_4 1_555 1_555
O18_7 Co2_11 1_555 1_555
O19_4 Co3_4 1_555 1_555
O20_4 Co1_4 1_555 1_555
O21_4 Co3_4 1_555 1_555
O22_4 Co1_4 1_555 1_555
Co2_11 O20_4 1_555 1_555
C7_7 S1_7 1_555 1_555
C21_4 C22_4 1_555 1_555
C26_7 C27_7 1_555 1_555
C27_7 S4_7 1_555 1_555
O11_7 C28_7 1_555 1_555
Co8_3 O11_7 1_555 1_555
C19_4 N2_4 1_555 1_555
H10_4 C19_4 1_555 1_555
H11_4 C19_4 1_555 1_555
H12_4 C19_4 1_555 1_555
C20_4 N2_4 1_555 1_555
H13_4 C20_4 1_555 1_555
H14_4 C20_4 1_555 1_555
H15_4 C20_4 1_555 1_555
Co2_12 O2_8 1_555 1_555
O2_8 C3_8 1_555 1_555
C3_8 O15_4 1_555 1_555
C4_8 C3_8 1_555 1_555
C5_8 C4_8 1_555 1_555
H3_8 C5_8 1_555 1_555
C6_8 C5_8 1_555 1_555
H4_8 C6_8 1_555 1_555
C7_8 C6_8 1_555 1_555
S1_8 C4_8 1_555 1_555
O4_8 Co2_12 1_555 1_555
C8_8 O17_4 1_555 1_555
C9_8 C8_8 1_555 1_555
C10_8 C9_8 1_555 1_555
H5_8 C10_8 1_555 1_555
C11_8 C10_8 1_555 1_555
H6_8 C11_8 1_555 1_555
C12_8 C11_8 1_555 1_555
S2_8 C9_8 1_555 1_555
O5_8 Co2_12 1_555 1_555
C13_8 O5_8 1_555 1_555
C14_8 C13_8 1_555 1_555
C15_8 C14_8 1_555 1_555
H7_8 C15_8 1_555 1_555
C16_8 C15_8 1_555 1_555
H8_8 C16_8 1_555 1_555
C17_8 C16_8 1_555 1_555
S3_8 C14_8 1_555 1_555
C27_8 C7_8 1_555 1_555
O10_8 C28_8 1_555 1_555
O11_8 C28_8 1_555 1_555
C28_8 C29_8 1_555 1_555
C29_8 C30_8 1_555 1_555
C30_8 H20_8 1_555 1_555
C31_8 C30_8 1_555 1_555
H21_8 C31_8 1_555 1_555
C32_8 C12_8 1_555 1_555
S5_8 C29_8 1_555 1_555
O12_8 C33_8 1_555 1_555
O13_8 C33_8 1_555 1_555
C33_8 C34_8 1_555 1_555
C34_8 C35_8 1_555 1_555
C36_8 C35_8 1_555 1_555
C37_8 C17_8 1_555 1_555
S6_8 C34_8 1_555 1_555
Co4 O10_8 1_555 1_555
Co6_8 O5_8 1_555 1_555
Co7_8 O12_8 1_555 1_555
Co9 O9_8 1_555 1_555
Co8_2 O11_8 1_555 1_555
O16_8 Co2_12 1_555 1_555
O18_8 Co2_12 1_555 1_555
Co2_12 O19_4 1_555 1_555
C7_8 S1_8 1_555 1_555
O4_8 C8_8 1_555 1_555
C12_8 S2_8 1_555 1_555
C17_8 S3_8 1_555 1_555
C27_8 S4_8 1_555 1_555
C31_8 C32_8 1_555 1_555
C32_8 S5_8 1_555 1_555
O12_8 Co9 1_555 1_555
O13_8 Co7_8 1_555 1_555
C36_8 C37_8 1_555 1_555
C37_8 S6_8 1_555 1_555
O8_8 C23_8 1_555 1_555
C23_8 C24_8 1_555 1_555
C24_8 C25_8 1_555 1_555
C25_8 H18_8 1_555 1_555
C26_8 C25_8 1_555 1_555
H19_8 C26_8 1_555 1_555
Co5 O8_8 1_555 1_555
C18_5 O7_5 1_555 1_555
H9_5 C18_5 1_555 1_555
N2_5 C18_5 1_555 1_555
C19_5 N2_5 1_555 1_555
H10_5 C19_5 1_555 1_555
H11_5 C19_5 1_555 1_555
H12_5 C19_5 1_555 1_555
C20_5 N2_5 1_555 1_555
H13_5 C20_5 1_555 1_555
H14_5 C20_5 1_555 1_555
H15_5 C20_5 1_555 1_555
Co4_3 N1_5 1_555 1_555
N1_5 C1_5 1_555 1_555
C2_5 C1_5 1_555 1_555
H2_5 C2_5 1_555 1_555
N3_5 C2_5 1_555 1_555
C21_5 N3_5 1_555 1_555
H16_5 C21_5 1_555 1_555
C22_5 N1_5 1_555 1_555
H17_5 C22_5 1_555 1_555
Co4_4 N3_5 1_555 1_555
O14_5 Co4_4 1_555 1_555
C38_5 O14_5 1_555 1_555
H24_5 C38_5 1_555 1_555
N4_5 C38_5 1_555 1_555
C39_5 N4_5 1_555 1_555
H25_5 C39_5 1_555 1_555
H26_5 C39_5 1_555 1_555
H27_5 C39_5 1_555 1_555
C40_5 N4_5 1_555 1_555
H28_5 C40_5 1_555 1_555
H29_5 C40_5 1_555 1_555
H30_5 C40_5 1_555 1_555
O16_9 Co8_4 1_555 1_555
O18_9 Co8_4 1_555 1_555
O19_5 Co4_4 1_555 1_555
O20_5 Co4_3 1_555 1_555
O21_5 Co4_4 1_555 1_555
Co8_4 O20_5 1_555 1_555
C21_5 C22_5 1_555 1_555
O18_10 Co8_5 1_555 1_555
O16_10 Co8_6 1_555 1_555
Co8_6 O19_5 1_555 1_555
C38_6 O14_6 1_555 1_555
H24_6 C38_6 1_555 1_555
N4_6 C38_6 1_555 1_555
C39_6 N4_6 1_555 1_555
H25_6 C39_6 1_555 1_555
H26_6 C39_6 1_555 1_555
H27_6 C39_6 1_555 1_555
C40_6 N4_6 1_555 1_555
H28_6 C40_6 1_555 1_555
H29_6 C40_6 1_555 1_555
H30_6 C40_6 1_555 1_555
O18_11 Co8 1_555 1_555
Co4 N1_6 1_555 1_555
N1_6 C1_6 1_555 1_555
C1_6 H1_6 1_555 1_555
C2_6 C1_6 1_555 1_555
H2_6 C2_6 1_555 1_555
O7_6 Co4 1_555 1_555
C18_6 O7_6 1_555 1_555
H9_6 C18_6 1_555 1_555
N2_6 C18_6 1_555 1_555
C19_6 N2_6 1_555 1_555
H10_6 C19_6 1_555 1_555
H11_6 C19_6 1_555 1_555
H12_6 C19_6 1_555 1_555
C20_6 N2_6 1_555 1_555
H13_6 C20_6 1_555 1_555
H14_6 C20_6 1_555 1_555
H15_6 C20_6 1_555 1_555
N3_6 C2_6 1_555 1_555
C21_6 N3_6 1_555 1_555
C22_6 N1_6 1_555 1_555
H17_6 C22_6 1_555 1_555
Co4_2 N3_6 1_555 1_555
O16_11 Co8_2 1_555 1_555
O19_6 Co4_2 1_555 1_555
O20_6 Co4 1_555 1_555
O22_6 Co4 1_555 1_555
Co8_2 O20_6 1_555 1_555
C21_6 C22_6 1_555 1_555
O16_12 Co8_3 1_555 1_555
O18_12 Co8_3 1_555 1_555
Co8_3 O19_6 1_555 1_555
C18_7 O7_7 1_555 1_555
H9_7 C18_7 1_555 1_555
N2_7 C18_7 1_555 1_555
C19_7 N2_7 1_555 1_555
H10_7 C19_7 1_555 1_555
H11_7 C19_7 1_555 1_555
H12_7 C19_7 1_555 1_555
C20_7 N2_7 1_555 1_555
H13_7 C20_7 1_555 1_555
H14_7 C20_7 1_555 1_555
H15_7 C20_7 1_555 1_555
O16_13 Co9_3 1_555 1_555
Co5_2 N1_7 1_555 1_555
N1_7 C1_7 1_555 1_555
C2_7 C1_7 1_555 1_555
H2_7 C2_7 1_555 1_555
N3_7 C2_7 1_555 1_555
C21_7 N3_7 1_555 1_555
H16_7 C21_7 1_555 1_555
C22_7 N1_7 1_555 1_555
H17_7 C22_7 1_555 1_555
Co5 N3_7 1_555 1_555
O14_7 Co5 1_555 1_555
C38_7 O14_7 1_555 1_555
H24_7 C38_7 1_555 1_555
N4_7 C38_7 1_555 1_555
C39_7 N4_7 1_555 1_555
H25_7 C39_7 1_555 1_555
H26_7 C39_7 1_555 1_555
H27_7 C39_7 1_555 1_555
C40_7 N4_7 1_555 1_555
H28_7 C40_7 1_555 1_555
H29_7 C40_7 1_555 1_555
H30_7 C40_7 1_555 1_555
O18_13 Co9_4 1_555 1_555
O19_7 Co5 1_555 1_555
O20_7 Co5_2 1_555 1_555
O21_7 Co5 1_555 1_555
Co9_4 O20_7 1_555 1_555
C21_7 C22_7 1_555 1_555
O18_14 Co9 1_555 1_555
O16_14 Co9_2 1_555 1_555
Co9_2 O19_7 1_555 1_555
C38_8 O14_8 1_555 1_555
H24_8 C38_8 1_555 1_555
N4_8 C38_8 1_555 1_555
C39_8 N4_8 1_555 1_555
H25_8 C39_8 1_555 1_555
H26_8 C39_8 1_555 1_555
H27_8 C39_8 1_555 1_555
C40_8 N4_8 1_555 1_555
H28_8 C40_8 1_555 1_555
H29_8 C40_8 1_555 1_555
H30_8 C40_8 1_555 1_555
O18_15 Co9_10 1_555 1_555
O16_15 Co9_12 1_555 1_555
Co5_4 N1_8 1_555 1_555
N1_8 C1_8 1_555 1_555
C1_8 H1_8 1_555 1_555
C2_8 C1_8 1_555 1_555
H2_8 C2_8 1_555 1_555
O7_8 Co5_4 1_555 1_555
C18_8 O7_8 1_555 1_555
H9_8 C18_8 1_555 1_555
N2_8 C18_8 1_555 1_555
C19_8 N2_8 1_555 1_555
H10_8 C19_8 1_555 1_555
H11_8 C19_8 1_555 1_555
H12_8 C19_8 1_555 1_555
C20_8 N2_8 1_555 1_555
H13_8 C20_8 1_555 1_555
H14_8 C20_8 1_555 1_555
H15_8 C20_8 1_555 1_555
N3_8 C2_8 1_555 1_555
C21_8 N3_8 1_555 1_555
C22_8 N1_8 1_555 1_555
H17_8 C22_8 1_555 1_555
Co5_3 N3_8 1_555 1_555
C21_8 C22_8 1_555 1_555
Co9_14 O20_8 1_555 1_555
O16_16 Co9_6 1_555 1_555
O18_16 Co9_6 1_555 1_555
Co9_6 O19_8 1_555 1_555
O8_9 C23_9 1_555 1_555
C23_9 C24_9 1_555 1_555
C24_9 C25_9 1_555 1_555
C25_9 H18_9 1_555 1_555
C26_9 C25_9 1_555 1_555
H19_9 C26_9 1_555 1_555
C39_9 N4_9 1_555 1_555
H25_9 C39_9 1_555 1_555
H26_9 C39_9 1_555 1_555
H27_9 C39_9 1_555 1_555
C40_9 N4_9 1_555 1_555
H28_9 C40_9 1_555 1_555
H29_9 C40_9 1_555 1_555
H30_9 C40_9 1_555 1_555
Co7 O8_9 1_555 1_555
Co7_3 N1_9 1_555 1_555
N1_9 C1_9 1_555 1_555
C1_9 H1_9 1_555 1_555
C2_9 C1_9 1_555 1_555
H2_9 C2_9 1_555 1_555
O1_5 Co7_3 1_555 1_555
O16_9 C3_9 1_555 1_555
C3_9 O1_5 1_555 1_555
C4_9 C3_9 1_555 1_555
C5_9 C4_9 1_555 1_555
H3_9 C5_9 1_555 1_555
C6_9 C5_9 1_555 1_555
H4_9 C6_9 1_555 1_555
C7_9 C6_9 1_555 1_555
S1_9 C4_9 1_555 1_555
O3_5 Co7_3 1_555 1_555
C8_9 O3_5 1_555 1_555
C9_9 C8_9 1_555 1_555
C10_9 C9_9 1_555 1_555
H5_9 C10_9 1_555 1_555
C11_9 C10_9 1_555 1_555
H6_9 C11_9 1_555 1_555
C12_9 C11_9 1_555 1_555
S2_9 C9_9 1_555 1_555
C13_9 O20_5 1_555 1_555
C14_9 C13_9 1_555 1_555
C15_9 C14_9 1_555 1_555
H7_9 C15_9 1_555 1_555
C16_9 C15_9 1_555 1_555
H8_9 C16_9 1_555 1_555
C17_9 C16_9 1_555 1_555
S3_9 C14_9 1_555 1_555
O7_9 Co7_3 1_555 1_555
C18_9 O7_9 1_555 1_555
H9_9 C18_9 1_555 1_555
N2_9 C18_9 1_555 1_555
C19_9 N2_9 1_555 1_555
H10_9 C19_9 1_555 1_555
H11_9 C19_9 1_555 1_555
H12_9 C19_9 1_555 1_555
C20_9 N2_9 1_555 1_555
H13_9 C20_9 1_555 1_555
H14_9 C20_9 1_555 1_555
H15_9 C20_9 1_555 1_555
N3_9 C2_9 1_555 1_555
C21_9 N3_9 1_555 1_555
H16_9 C21_9 1_555 1_555
C22_9 N1_9 1_555 1_555
H17_9 C22_9 1_555 1_555
C27_9 C7_9 1_555 1_555
O10_9 C28_9 1_555 1_555
O18_10 C28_9 1_555 1_555
C28_9 C29_9 1_555 1_555
C29_9 C30_9 1_555 1_555
C30_9 H20_9 1_555 1_555
C31_9 C30_9 1_555 1_555
H21_9 C31_9 1_555 1_555
C32_9 C12_9 1_555 1_555
S5_9 C29_9 1_555 1_555
O20_6 C33_9 1_555 1_555
O22_6 C33_9 1_555 1_555
C33_9 C34_9 1_555 1_555
C34_9 C35_9 1_555 1_555
C36_9 C35_9 1_555 1_555
C37_9 C17_9 1_555 1_555
S6_9 C34_9 1_555 1_555
Co6_6 N3_9 1_555 1_555
O14_9 Co6_6 1_555 1_555
C38_9 O14_9 1_555 1_555
H24_9 C38_9 1_555 1_555
Co7_4 O10_9 1_555 1_555
O15_5 Co6_6 1_555 1_555
O17_5 Co6_6 1_555 1_555
C7_9 S1_9 1_555 1_555
O18_9 C8_9 1_555 1_555
C12_9 S2_9 1_555 1_555
C17_9 S3_9 1_555 1_555
C21_9 C22_9 1_555 1_555
C27_9 S4_9 1_555 1_555
C31_9 C32_9 1_555 1_555
C32_9 S5_9 1_555 1_555
C36_9 C37_9 1_555 1_555
C37_9 S6_9 1_555 1_555
O18_5 C28_10 1_555 1_555
O16_6 C3_10 1_555 1_555
C3_10 O15_5 1_555 1_555
C4_10 C3_10 1_555 1_555
C5_10 C4_10 1_555 1_555
H3_10 C5_10 1_555 1_555
C6_10 C5_10 1_555 1_555
H4_10 C6_10 1_555 1_555
C7_10 C6_10 1_555 1_555
S1_10 C4_10 1_555 1_555
C8_10 O17_5 1_555 1_555
C9_10 C8_10 1_555 1_555
C10_10 C9_10 1_555 1_555
H5_10 C10_10 1_555 1_555
C11_10 C10_10 1_555 1_555
C12_10 C11_10 1_555 1_555
S2_10 C9_10 1_555 1_555
O21_3 C13_10 1_555 1_555
C13_10 O19_3 1_555 1_555
C14_10 C13_10 1_555 1_555
C15_10 C14_10 1_555 1_555
H7_10 C15_10 1_555 1_555
C16_10 C15_10 1_555 1_555
H8_10 C16_10 1_555 1_555
C17_10 C16_10 1_555 1_555
S3_10 C14_10 1_555 1_555
O8_10 C23_10 1_555 1_555
O16_8 C23_10 1_555 1_555
C23_10 C24_10 1_555 1_555
C24_10 C25_10 1_555 1_555
C25_10 H18_10 1_555 1_555
C26_10 C25_10 1_555 1_555
H19_10 C26_10 1_555 1_555
C27_10 C7_10 1_555 1_555
S4_10 C24_10 1_555 1_555
C29_10 C30_10 1_555 1_555
C30_10 H20_10 1_555 1_555
C31_10 C30_10 1_555 1_555
H21_10 C31_10 1_555 1_555
C32_10 C12_10 1_555 1_555
O19_4 C33_10 1_555 1_555
O21_4 C33_10 1_555 1_555
C33_10 C34_10 1_555 1_555
C34_10 C35_10 1_555 1_555
C35_10 H22_10 1_555 1_555
C36_10 C35_10 1_555 1_555
H23_10 C36_10 1_555 1_555
C37_10 C17_10 1_555 1_555
S6_10 C34_10 1_555 1_555
Co6_8 O8_10 1_555 1_555
C7_10 S1_10 1_555 1_555
O18_6 C8_10 1_555 1_555
C12_10 S2_10 1_555 1_555
C17_10 S3_10 1_555 1_555
C26_10 C27_10 1_555 1_555
C27_10 S4_10 1_555 1_555
C31_10 C32_10 1_555 1_555
C36_10 C37_10 1_555 1_555
C37_10 S6_10 1_555 1_555
C19_10 N2_10 1_555 1_555
H10_10 C19_10 1_555 1_555
H11_10 C19_10 1_555 1_555
H12_10 C19_10 1_555 1_555
C20_10 N2_10 1_555 1_555
H13_10 C20_10 1_555 1_555
H14_10 C20_10 1_555 1_555
H15_10 C20_10 1_555 1_555
O18_4 C28_11 1_555 1_555
Co6_3 N1_10 1_555 1_555
N1_10 C1_10 1_555 1_555
C1_10 H1_10 1_555 1_555
C2_10 C1_10 1_555 1_555
H2_10 C2_10 1_555 1_555
O1_6 Co6_3 1_555 1_555
O16_3 C3_11 1_555 1_555
C3_11 O1_6 1_555 1_555
C4_11 C3_11 1_555 1_555
C5_11 C4_11 1_555 1_555
H3_11 C5_11 1_555 1_555
C6_11 C5_11 1_555 1_555
H4_11 C6_11 1_555 1_555
C7_11 C6_11 1_555 1_555
S1_11 C4_11 1_555 1_555
O3_6 Co6_3 1_555 1_555
C8_11 O3_6 1_555 1_555
C9_11 C8_11 1_555 1_555
C10_11 C9_11 1_555 1_555
H5_11 C10_11 1_555 1_555
C11_11 C10_11 1_555 1_555
C12_11 C11_11 1_555 1_555
S2_11 C9_11 1_555 1_555
O22_2 C13_11 1_555 1_555
C13_11 O20_2 1_555 1_555
C14_11 C13_11 1_555 1_555
C15_11 C14_11 1_555 1_555
H7_11 C15_11 1_555 1_555
C16_11 C15_11 1_555 1_555
H8_11 C16_11 1_555 1_555
C17_11 C16_11 1_555 1_555
S3_11 C14_11 1_555 1_555
O7_10 Co6_3 1_555 1_555
C18_10 O7_10 1_555 1_555
H9_10 C18_10 1_555 1_555
N3_10 C2_10 1_555 1_555
C21_10 N3_10 1_555 1_555
H16_10 C21_10 1_555 1_555
C22_10 N1_10 1_555 1_555
H17_10 C22_10 1_555 1_555
O8_11 C23_11 1_555 1_555
O16 C23_11 1_555 1_555
C23_11 C24_11 1_555 1_555
C24_11 C25_11 1_555 1_555
C25_11 H18_11 1_555 1_555
C26_11 C25_11 1_555 1_555
H19_11 C26_11 1_555 1_555
C27_11 C7_11 1_555 1_555
S4_11 C24_11 1_555 1_555
C29_11 C30_11 1_555 1_555
C30_11 H20_11 1_555 1_555
C31_11 C30_11 1_555 1_555
H21_11 C31_11 1_555 1_555
C32_11 C12_11 1_555 1_555
O20 C33_11 1_555 1_555
O22 C33_11 1_555 1_555
C33_11 C34_11 1_555 1_555
C34_11 C35_11 1_555 1_555
C35_11 H22_11 1_555 1_555
C36_11 C35_11 1_555 1_555
H23_11 C36_11 1_555 1_555
C37_11 C17_11 1_555 1_555
S6_11 C34_11 1_555 1_555
Co7_6 N3_10 1_555 1_555
O14_10 Co7_6 1_555 1_555
C38_10 O14_10 1_555 1_555
H24_10 C38_10 1_555 1_555
N4_10 C38_10 1_555 1_555
C39_10 N4_10 1_555 1_555
H25_10 C39_10 1_555 1_555
H26_10 C39_10 1_555 1_555
H27_10 C39_10 1_555 1_555
C40_10 N4_10 1_555 1_555
H28_10 C40_10 1_555 1_555
H29_10 C40_10 1_555 1_555
H30_10 C40_10 1_555 1_555
Co6 O8_11 1_555 1_555
O15_6 Co7_6 1_555 1_555
O17_6 Co7_6 1_555 1_555
C7_11 S1_11 1_555 1_555
O18_3 C8_11 1_555 1_555
C12_11 S2_11 1_555 1_555
C17_11 S3_11 1_555 1_555
C21_10 C22_10 1_555 1_555
C26_11 C27_11 1_555 1_555
C27_11 S4_11 1_555 1_555
C31_11 C32_11 1_555 1_555
C36_11 C37_11 1_555 1_555
C37_11 S6_11 1_555 1_555
O8_12 C23_12 1_555 1_555
C23_12 C24_12 1_555 1_555
C24_12 C25_12 1_555 1_555
C25_12 H18_12 1_555 1_555
C26_12 C25_12 1_555 1_555
H19_12 C26_12 1_555 1_555
Co7_8 O8_12 1_555 1_555
Co7_5 O10_12 1_555 1_555
O16_16 C3_12 1_555 1_555
C3_12 O15_6 1_555 1_555
C4_12 C3_12 1_555 1_555
C5_12 C4_12 1_555 1_555
H3_12 C5_12 1_555 1_555
C6_12 C5_12 1_555 1_555
H4_12 C6_12 1_555 1_555
C7_12 C6_12 1_555 1_555
S1_12 C4_12 1_555 1_555
C8_12 O17_6 1_555 1_555
C9_12 C8_12 1_555 1_555
C10_12 C9_12 1_555 1_555
H5_12 C10_12 1_555 1_555
C11_12 C10_12 1_555 1_555
H6_12 C11_12 1_555 1_555
C12_12 C11_12 1_555 1_555
S2_12 C9_12 1_555 1_555
C13_12 O19_8 1_555 1_555
C14_12 C13_12 1_555 1_555
C15_12 C14_12 1_555 1_555
H7_12 C15_12 1_555 1_555
C16_12 C15_12 1_555 1_555
H8_12 C16_12 1_555 1_555
C17_12 C16_12 1_555 1_555
S3_12 C14_12 1_555 1_555
C27_12 C7_12 1_555 1_555
O18_15 C28_12 1_555 1_555
C28_12 C29_12 1_555 1_555
C29_12 C30_12 1_555 1_555
C30_12 H20_12 1_555 1_555
C31_12 C30_12 1_555 1_555
H21_12 C31_12 1_555 1_555
C32_12 C12_12 1_555 1_555
S5_12 C29_12 1_555 1_555
O19_7 C33_12 1_555 1_555
O21_7 C33_12 1_555 1_555
C33_12 C34_12 1_555 1_555
C34_12 C35_12 1_555 1_555
C36_12 C35_12 1_555 1_555
C37_12 C17_12 1_555 1_555
S6_12 C34_12 1_555 1_555
C7_12 S1_12 1_555 1_555
O18_16 C8_12 1_555 1_555
C12_12 S2_12 1_555 1_555
C17_12 S3_12 1_555 1_555
C27_12 S4_12 1_555 1_555
C31_12 C32_12 1_555 1_555
C32_12 S5_12 1_555 1_555
C36_12 C37_12 1_555 1_555
C37_12 S6_12 1_555 1_555
O8_13 C23_13 1_555 1_555
C23_13 C24_13 1_555 1_555
C24_13 C25_13 1_555 1_555
C25_13 H18_13 1_555 1_555
C26_13 C25_13 1_555 1_555
H19_13 C26_13 1_555 1_555
C39_11 N4_11 1_555 1_555
H25_11 C39_11 1_555 1_555
H26_11 C39_11 1_555 1_555
H27_11 C39_11 1_555 1_555
C40_11 N4_11 1_555 1_555
H28_11 C40_11 1_555 1_555
H29_11 C40_11 1_555 1_555
H30_11 C40_11 1_555 1_555
Co7_5 O8_13 1_555 1_555
Co7_7 N1_11 1_555 1_555
N1_11 C1_11 1_555 1_555
C1_11 H1_11 1_555 1_555
C2_11 C1_11 1_555 1_555
H2_11 C2_11 1_555 1_555
O1_7 Co7_7 1_555 1_555
O16_13 C3_13 1_555 1_555
C3_13 O1_7 1_555 1_555
C4_13 C3_13 1_555 1_555
C5_13 C4_13 1_555 1_555
H3_13 C5_13 1_555 1_555
C6_13 C5_13 1_555 1_555
H4_13 C6_13 1_555 1_555
C7_13 C6_13 1_555 1_555
S1_13 C4_13 1_555 1_555
O3_7 Co7_7 1_555 1_555
O7_11 Co7_7 1_555 1_555
C18_11 O7_11 1_555 1_555
H9_11 C18_11 1_555 1_555
N2_11 C18_11 1_555 1_555
C19_11 N2_11 1_555 1_555
H10_11 C19_11 1_555 1_555
H11_11 C19_11 1_555 1_555
H12_11 C19_11 1_555 1_555
C20_11 N2_11 1_555 1_555
H13_11 C20_11 1_555 1_555
H14_11 C20_11 1_555 1_555
H15_11 C20_11 1_555 1_555
N3_11 C2_11 1_555 1_555
C21_11 N3_11 1_555 1_555
H16_11 C21_11 1_555 1_555
C22_11 N1_11 1_555 1_555
H17_11 C22_11 1_555 1_555
C27_13 C7_13 1_555 1_555
Co6_2 N3_11 1_555 1_555
O14_11 Co6_2 1_555 1_555
C38_11 O14_11 1_555 1_555
H24_11 C38_11 1_555 1_555
O15_7 Co6_2 1_555 1_555
O17_7 Co6_2 1_555 1_555
C7_13 S1_13 1_555 1_555
C21_11 C22_11 1_555 1_555
C27_13 S4_13 1_555 1_555
C9_13 C8_13 1_555 1_555
C10_13 C9_13 1_555 1_555
H5_13 C10_13 1_555 1_555
C11_13 C10_13 1_555 1_555
H6_13 C11_13 1_555 1_555
C12_13 C11_13 1_555 1_555
S2_13 C9_13 1_555 1_555
C13_13 O20_7 1_555 1_555
C14_13 C13_13 1_555 1_555
C15_13 C14_13 1_555 1_555
H7_13 C15_13 1_555 1_555
C16_13 C15_13 1_555 1_555
H8_13 C16_13 1_555 1_555
C17_13 C16_13 1_555 1_555
S3_13 C14_13 1_555 1_555
O10_13 C28_13 1_555 1_555
O18_14 C28_13 1_555 1_555
C28_13 C29_13 1_555 1_555
C29_13 C30_13 1_555 1_555
C30_13 H20_13 1_555 1_555
C31_13 C30_13 1_555 1_555
H21_13 C31_13 1_555 1_555
C32_13 C12_13 1_555 1_555
S5_13 C29_13 1_555 1_555
O20_8 C33_13 1_555 1_555
O22_8 C33_13 1_555 1_555
C33_13 C34_13 1_555 1_555
C34_13 C35_13 1_555 1_555
C36_13 C35_13 1_555 1_555
C37_13 C17_13 1_555 1_555
S6_13 C34_13 1_555 1_555
Co7_8 O10_13 1_555 1_555
O18_13 C8_13 1_555 1_555
C12_13 S2_13 1_555 1_555
C17_13 S3_13 1_555 1_555
C31_13 C32_13 1_555 1_555
C32_13 S5_13 1_555 1_555
C36_13 C37_13 1_555 1_555
C37_13 S6_13 1_555 1_555
O18 C28_14 1_555 1_555
O16_2 C3_14 1_555 1_555
C3_14 O15_7 1_555 1_555
C4_14 C3_14 1_555 1_555
C5_14 C4_14 1_555 1_555
H3_14 C5_14 1_555 1_555
C6_14 C5_14 1_555 1_555
H4_14 C6_14 1_555 1_555
C7_14 C6_14 1_555 1_555
S1_14 C4_14 1_555 1_555
C8_14 O17_7 1_555 1_555
C9_14 C8_14 1_555 1_555
C10_14 C9_14 1_555 1_555
H5_14 C10_14 1_555 1_555
C11_14 C10_14 1_555 1_555
C12_14 C11_14 1_555 1_555
S2_14 C9_14 1_555 1_555
O21 C13_14 1_555 1_555
C13_14 O19 1_555 1_555
C14_14 C13_14 1_555 1_555
C15_14 C14_14 1_555 1_555
H7_14 C15_14 1_555 1_555
C16_14 C15_14 1_555 1_555
H8_14 C16_14 1_555 1_555
C17_14 C16_14 1_555 1_555
S3_14 C14_14 1_555 1_555
O8_14 C23_14 1_555 1_555
O16_4 C23_14 1_555 1_555
C23_14 C24_14 1_555 1_555
C24_14 C25_14 1_555 1_555
C25_14 H18_14 1_555 1_555
C26_14 C25_14 1_555 1_555
H19_14 C26_14 1_555 1_555
C27_14 C7_14 1_555 1_555
S4_14 C24_14 1_555 1_555
C29_14 C30_14 1_555 1_555
C30_14 H20_14 1_555 1_555
C31_14 C30_14 1_555 1_555
H21_14 C31_14 1_555 1_555
C32_14 C12_14 1_555 1_555
O19_2 C33_14 1_555 1_555
O21_2 C33_14 1_555 1_555
C33_14 C34_14 1_555 1_555
C34_14 C35_14 1_555 1_555
C35_14 H22_14 1_555 1_555
C36_14 C35_14 1_555 1_555
H23_14 C36_14 1_555 1_555
C37_14 C17_14 1_555 1_555
S6_14 C34_14 1_555 1_555
Co6_4 O8_14 1_555 1_555
C7_14 S1_14 1_555 1_555
O18_2 C8_14 1_555 1_555
C12_14 S2_14 1_555 1_555
C17_14 S3_14 1_555 1_555
C26_14 C27_14 1_555 1_555
C27_14 S4_14 1_555 1_555
C31_14 C32_14 1_555 1_555
C36_14 C37_14 1_555 1_555
C37_14 S6_14 1_555 1_555
C19_12 N2_12 1_555 1_555
H10_12 C19_12 1_555 1_555
H11_12 C19_12 1_555 1_555
H12_12 C19_12 1_555 1_555
C20_12 N2_12 1_555 1_555
H13_12 C20_12 1_555 1_555
H14_12 C20_12 1_555 1_555
H15_12 C20_12 1_555 1_555
O18_8 C28_15 1_555 1_555
Co6_7 N1_12 1_555 1_555
N1_12 C1_12 1_555 1_555
C1_12 H1_12 1_555 1_555
C2_12 C1_12 1_555 1_555
H2_12 C2_12 1_555 1_555
O1_8 Co6_7 1_555 1_555
O16_7 C3_15 1_555 1_555
C3_15 O1_8 1_555 1_555
C4_15 C3_15 1_555 1_555
C5_15 C4_15 1_555 1_555
H3_15 C5_15 1_555 1_555
C6_15 C5_15 1_555 1_555
H4_15 C6_15 1_555 1_555
C7_15 C6_15 1_555 1_555
S1_15 C4_15 1_555 1_555
O3_8 Co6_7 1_555 1_555
O7_12 Co6_7 1_555 1_555
C18_12 O7_12 1_555 1_555
H9_12 C18_12 1_555 1_555
N3_12 C2_12 1_555 1_555
C21_12 N3_12 1_555 1_555
H16_12 C21_12 1_555 1_555
C22_12 N1_12 1_555 1_555
H17_12 C22_12 1_555 1_555
O8_15 C23_15 1_555 1_555
O16_5 C23_15 1_555 1_555
C23_15 C24_15 1_555 1_555
C24_15 C25_15 1_555 1_555
C25_15 H18_15 1_555 1_555
C26_15 C25_15 1_555 1_555
H19_15 C26_15 1_555 1_555
C27_15 C7_15 1_555 1_555
S4_15 C24_15 1_555 1_555
Co7_2 N3_12 1_555 1_555
O14_12 Co7_2 1_555 1_555
C38_12 O14_12 1_555 1_555
H24_12 C38_12 1_555 1_555
N4_12 C38_12 1_555 1_555
C39_12 N4_12 1_555 1_555
H25_12 C39_12 1_555 1_555
H26_12 C39_12 1_555 1_555
H27_12 C39_12 1_555 1_555
C40_12 N4_12 1_555 1_555
H28_12 C40_12 1_555 1_555
H29_12 C40_12 1_555 1_555
H30_12 C40_12 1_555 1_555
Co6_5 O8_15 1_555 1_555
O15_8 Co7_2 1_555 1_555
O17_8 Co7_2 1_555 1_555
C7_15 S1_15 1_555 1_555
C21_12 C22_12 1_555 1_555
C26_15 C27_15 1_555 1_555
C27_15 S4_15 1_555 1_555
C9_15 C8_15 1_555 1_555
C10_15 C9_15 1_555 1_555
H5_15 C10_15 1_555 1_555
C11_15 C10_15 1_555 1_555
C12_15 C11_15 1_555 1_555
S2_15 C9_15 1_555 1_555
O22_4 C13_15 1_555 1_555
C13_15 O20_4 1_555 1_555
C14_15 C13_15 1_555 1_555
C15_15 C14_15 1_555 1_555
H7_15 C15_15 1_555 1_555
C16_15 C15_15 1_555 1_555
H8_15 C16_15 1_555 1_555
C17_15 C16_15 1_555 1_555
S3_15 C14_15 1_555 1_555
C29_15 C30_15 1_555 1_555
C30_15 H20_15 1_555 1_555
C31_15 C30_15 1_555 1_555
H21_15 C31_15 1_555 1_555
C32_15 C12_15 1_555 1_555
O20_3 C33_15 1_555 1_555
O22_3 C33_15 1_555 1_555
C33_15 C34_15 1_555 1_555
C34_15 C35_15 1_555 1_555
C35_15 H22_15 1_555 1_555
C36_15 C35_15 1_555 1_555
H23_15 C36_15 1_555 1_555
C37_15 C17_15 1_555 1_555
S6_15 C34_15 1_555 1_555
O18_7 C8_15 1_555 1_555
C12_15 S2_15 1_555 1_555
C17_15 S3_15 1_555 1_555
C31_15 C32_15 1_555 1_555
C36_15 C37_15 1_555 1_555
C37_15 S6_15 1_555 1_555
O8_16 C23_16 1_555 1_555
C23_16 C24_16 1_555 1_555
C24_16 C25_16 1_555 1_555
C25_16 H18_16 1_555 1_555
C26_16 C25_16 1_555 1_555
H19_16 C26_16 1_555 1_555
Co7_4 O8_16 1_555 1_555
O16_12 C3_16 1_555 1_555
C3_16 O15_8 1_555 1_555
C4_16 C3_16 1_555 1_555
C5_16 C4_16 1_555 1_555
H3_16 C5_16 1_555 1_555
C6_16 C5_16 1_555 1_555
H4_16 C6_16 1_555 1_555
C7_16 C6_16 1_555 1_555
S1_16 C4_16 1_555 1_555
C8_16 O17_8 1_555 1_555
C9_16 C8_16 1_555 1_555
C10_16 C9_16 1_555 1_555
H5_16 C10_16 1_555 1_555
C11_16 C10_16 1_555 1_555
H6_16 C11_16 1_555 1_555
C12_16 C11_16 1_555 1_555
S2_16 C9_16 1_555 1_555
C13_16 O19_6 1_555 1_555
C14_16 C13_16 1_555 1_555
C15_16 C14_16 1_555 1_555
H7_16 C15_16 1_555 1_555
C16_16 C15_16 1_555 1_555
H8_16 C16_16 1_555 1_555
C17_16 C16_16 1_555 1_555
S3_16 C14_16 1_555 1_555
C27_16 C7_16 1_555 1_555
O10_16 C28_16 1_555 1_555
O18_11 C28_16 1_555 1_555
C28_16 C29_16 1_555 1_555
C29_16 C30_16 1_555 1_555
C30_16 H20_16 1_555 1_555
C31_16 C30_16 1_555 1_555
H21_16 C31_16 1_555 1_555
C32_16 C12_16 1_555 1_555
S5_16 C29_16 1_555 1_555
O19_5 C33_16 1_555 1_555
O21_5 C33_16 1_555 1_555
C33_16 C34_16 1_555 1_555
C34_16 C35_16 1_555 1_555
C36_16 C35_16 1_555 1_555
C37_16 C17_16 1_555 1_555
S6_16 C34_16 1_555 1_555
Co7 O10_16 1_555 1_555
C7_16 S1_16 1_555 1_555
O18_12 C8_16 1_555 1_555
C12_16 S2_16 1_555 1_555
C17_16 S3_16 1_555 1_555
C27_16 S4_16 1_555 1_555
C31_16 C32_16 1_555 1_555
C32_16 S5_16 1_555 1_555
C36_16 C37_16 1_555 1_555
C37_16 S6_16 1_555 1_555
Co6 N1_13 1_555 1_555
N1_13 C1_13 1_555 1_555
C2_13 C1_13 1_555 1_555
H2_13 C2_13 1_555 1_555
N3_13 C2_13 1_555 1_555
C21_13 N3_13 1_555 1_555
H16_13 C21_13 1_555 1_555
C22_13 N1_13 1_555 1_555
H17_13 C22_13 1_555 1_555
Co7_8 N3_13 1_555 1_555
O14_13 Co7_8 1_555 1_555
C38_13 O14_13 1_555 1_555
H24_13 C38_13 1_555 1_555
N4_13 C38_13 1_555 1_555
C39_13 N4_13 1_555 1_555
H25_13 C39_13 1_555 1_555
H26_13 C39_13 1_555 1_555
H27_13 C39_13 1_555 1_555
C40_13 N4_13 1_555 1_555
H28_13 C40_13 1_555 1_555
H29_13 C40_13 1_555 1_555
H30_13 C40_13 1_555 1_555
C21_13 C22_13 1_555 1_555
C18_13 O7_13 1_555 1_555
H9_13 C18_13 1_555 1_555
N2_13 C18_13 1_555 1_555
C19_13 N2_13 1_555 1_555
H10_13 C19_13 1_555 1_555
H11_13 C19_13 1_555 1_555
H12_13 C19_13 1_555 1_555
C20_13 N2_13 1_555 1_555
H13_13 C20_13 1_555 1_555
H14_13 C20_13 1_555 1_555
H15_13 C20_13 1_555 1_555
Co7 N1_14 1_555 1_555
N1_14 C1_14 1_555 1_555
C1_14 H1_14 1_555 1_555
C2_14 C1_14 1_555 1_555
H2_14 C2_14 1_555 1_555
O7_14 Co7 1_555 1_555
C18_14 O7_14 1_555 1_555
H9_14 C18_14 1_555 1_555
N2_14 C18_14 1_555 1_555
C19_14 N2_14 1_555 1_555
H10_14 C19_14 1_555 1_555
H11_14 C19_14 1_555 1_555
H12_14 C19_14 1_555 1_555
C20_14 N2_14 1_555 1_555
H13_14 C20_14 1_555 1_555
H14_14 C20_14 1_555 1_555
H15_14 C20_14 1_555 1_555
N3_14 C2_14 1_555 1_555
C21_14 N3_14 1_555 1_555
C22_14 N1_14 1_555 1_555
H17_14 C22_14 1_555 1_555
Co6_8 N3_14 1_555 1_555
C21_14 C22_14 1_555 1_555
C38_14 O14_14 1_555 1_555
H24_14 C38_14 1_555 1_555
N4_14 C38_14 1_555 1_555
C39_14 N4_14 1_555 1_555
H25_14 C39_14 1_555 1_555
H26_14 C39_14 1_555 1_555
H27_14 C39_14 1_555 1_555
C40_14 N4_14 1_555 1_555
H28_14 C40_14 1_555 1_555
H29_14 C40_14 1_555 1_555
H30_14 C40_14 1_555 1_555
Co6_5 N1_15 1_555 1_555
N1_15 C1_15 1_555 1_555
C2_15 C1_15 1_555 1_555
H2_15 C2_15 1_555 1_555
N3_15 C2_15 1_555 1_555
C21_15 N3_15 1_555 1_555
H16_15 C21_15 1_555 1_555
C22_15 N1_15 1_555 1_555
H17_15 C22_15 1_555 1_555
Co7_4 N3_15 1_555 1_555
O14_15 Co7_4 1_555 1_555
C38_15 O14_15 1_555 1_555
H24_15 C38_15 1_555 1_555
N4_15 C38_15 1_555 1_555
C39_15 N4_15 1_555 1_555
H25_15 C39_15 1_555 1_555
H26_15 C39_15 1_555 1_555
H27_15 C39_15 1_555 1_555
C40_15 N4_15 1_555 1_555
H28_15 C40_15 1_555 1_555
H29_15 C40_15 1_555 1_555
H30_15 C40_15 1_555 1_555
C21_15 C22_15 1_555 1_555
C18_15 O7_15 1_555 1_555
H9_15 C18_15 1_555 1_555
N2_15 C18_15 1_555 1_555
C19_15 N2_15 1_555 1_555
H10_15 C19_15 1_555 1_555
H11_15 C19_15 1_555 1_555
H12_15 C19_15 1_555 1_555
C20_15 N2_15 1_555 1_555
H13_15 C20_15 1_555 1_555
H14_15 C20_15 1_555 1_555
H15_15 C20_15 1_555 1_555
Co7_5 N1_16 1_555 1_555
N1_16 C1_16 1_555 1_555
C1_16 H1_16 1_555 1_555
C2_16 C1_16 1_555 1_555
H2_16 C2_16 1_555 1_555
O7_16 Co7_5 1_555 1_555
C18_16 O7_16 1_555 1_555
H9_16 C18_16 1_555 1_555
N2_16 C18_16 1_555 1_555
C19_16 N2_16 1_555 1_555
H10_16 C19_16 1_555 1_555
H11_16 C19_16 1_555 1_555
H12_16 C19_16 1_555 1_555
C20_16 N2_16 1_555 1_555
H13_16 C20_16 1_555 1_555
H14_16 C20_16 1_555 1_555
H15_16 C20_16 1_555 1_555
N3_16 C2_16 1_555 1_555
C21_16 N3_16 1_555 1_555
C22_16 N1_16 1_555 1_555
H17_16 C22_16 1_555 1_555
Co6_4 N3_16 1_555 1_555
C21_16 C22_16 1_555 1_555
C38_16 O14_16 1_555 1_555
H24_16 C38_16 1_555 1_555
N4_16 C38_16 1_555 1_555
C39_16 N4_16 1_555 1_555
H25_16 C39_16 1_555 1_555
H26_16 C39_16 1_555 1_555
H27_16 C39_16 1_555 1_555
C40_16 N4_16 1_555 1_555
H28_16 C40_16 1_555 1_555
H29_16 C40_16 1_555 1_555
H30_16 C40_16 1_555 1_555

#END
