
###############################################################################
#
# This file contains modified crystal structure data generated from the
# MOF subset of the Cambridge Structural Database (CSD) v543 
# hosted by the Cambridge Crystallographic Data Centre (CCDC).
#
# This work is licensed under the Creative Commons
# Attribution-NonCommercial-ShareAlike 4.0 International License.
# To view a copy of this license, visit
# http://creativecommons.org/licenses/by-nc-sa/4.0/
# or send a letter to
# Creative Commons, PO Box 1866, Mountain View, CA 94042, USA.
#
# CIF created using the CSD Python API on 29 September 2022
# The structure has been converted into the P1 space group
# The structure has a 3D framework
# The original CSD entry UNOBOR is in the monoclinic crystal system
# The framework has been calculated to contain at least 10.0% void space
# The void calculation uses a probe of radius 1.32A, grid spacing 0.4
#
###############################################################################

data_UNOBOR
_chemical_formula_moiety         '(C100 H56 Co8 N8 O24 S12)n'
_symmetry_cell_setting           triclinic
_symmetry_space_group_name_H-M   'P 1'
_symmetry_Int_Tables_number      1
_space_group_name_Hall           'P 1'
loop_
_symmetry_equiv_pos_site_id
_symmetry_equiv_pos_as_xyz
1 x,y,z
_cell_length_a                   10.852(2)
_cell_length_b                   25.406(5)
_cell_length_c                   12.801(2)
_cell_angle_alpha                90
_cell_angle_beta                 109.74(3)
_cell_angle_gamma                90
_cell_volume                     3321.91
loop_
_atom_site_label
_atom_site_type_symbol
_atom_site_fract_x
_atom_site_fract_y
_atom_site_fract_z
O7 O 0.15978(19) 0.53321(8) 0.45024(14)
O8 O 0.32509(19) 0.52002(8) 0.38376(15)
C26 C 0.2069(3) 0.52607(10) 0.3740(2)
C27 C 0.1125(3) 0.52336(11) 0.2592(2)
C30 C 0.0121(3) 0.50649(11) 0.0580(2)
S4 S 0.16885(7) 0.50653(3) 0.15264(5)
Co5 Co 0.26230(4) 0.54206(2) 0.61366(3)
Co7 Co 0.500000 0.500000 0.500000
C1 C 0.0157(3) 0.42261(11) 0.4228(2)
H1 H 0.031344 0.433556 0.497115
C2 C 0.1206(3) 0.40456(12) 0.3934(3)
H2 H 0.206507 0.403551 0.446336
C3 C 0.0968(3) 0.38811(14) 0.2851(3)
H3 H 0.166493 0.375401 0.262926
C13 C 0.0201(3) 0.47065(12) 0.7769(2)
H9 H 0.068445 0.461058 0.730241
C14 C 0.0772(3) 0.48042(13) 0.8921(2)
H10 H 0.168662 0.478112 0.931011
Co9 Co 0.500000 0.000000 0.000000
Co6 Co 0.73770(4) 0.04206(2) 0.88634(3)
Co9_2 Co 0.500000 0.000000 1.000000
C28 C 0.9799(3) 0.52935(12) 0.2231(2)
H15 H 0.931555 0.538942 0.269759
C29 C 0.9228(3) 0.51958(13) 0.1079(2)
H16 H 0.831338 0.521888 0.068989
C38 C 0.4350(5) 0.5898(2) 0.0057(3)
H22 H 0.466285 0.599994 0.081515
H23 H 0.607230 0.558880 0.002474
Co9_3 Co 0.500000 1.000000 0.000000
Co1 Co 0.73770(4) 0.45794(2) 0.38634(3)
N1 N 0.8944(2) 0.42509(9) 0.35064(18)
N2 N 0.6553(3) 0.44154(14) 0.2133(2)
C4 C 0.9708(3) 0.39031(13) 0.2097(2)
H4 H 0.952447 0.378514 0.135550
C5 C 0.8720(3) 0.41006(12) 0.2443(2)
C6 C 0.7356(3) 0.41704(15) 0.1685(2)
C7 C 0.6920(4) 0.40078(19) 0.0575(3)
H5 H 0.749635 0.383557 0.026869
C9 C 0.4816(5) 0.4346(2) 0.0407(4)
C10 C 0.5307(4) 0.4494(2) 0.1523(3)
H8 H 0.473764 0.465387 0.185239
O1 O 0.84022(19) 0.46679(8) 0.54976(14)
O2 O 0.67491(19) 0.47998(8) 0.61624(15)
C11 C 0.7931(3) 0.47393(10) 0.6260(2)
C12 C 0.8875(3) 0.47664(11) 0.7408(2)
C15 C 0.9879(3) 0.49351(11) 0.9420(2)
S1 S 0.83115(7) 0.49347(3) 0.84736(5)
O3 O 0.6367(2) 0.39438(9) 0.4050(2)
O4 O 0.4606(2) 0.42112(8) 0.44675(16)
O5 O 0.41337(18) 0.01531(7) 0.12267(14)
O6 O 0.2364(2) 0.04054(8) 0.15608(16)
C16 C 0.5275(3) 0.38784(11) 0.4181(2)
C17 C 0.4752(3) 0.33360(12) 0.3921(2)
C18 C 0.3763(3) 0.30883(12) 0.4163(3)
H11 H 0.326776 0.324911 0.456247
C19 C 0.3557(4) 0.25662(13) 0.3755(3)
H12 H 0.290416 0.233989 0.384672
C20 C 0.4404(3) 0.24205(11) 0.3208(2)
C21 C 0.4502(3) 0.19166(11) 0.2705(2)
C22 C 0.5553(3) 0.17074(12) 0.2500(3)
H13 H 0.636278 0.188679 0.265389
C23 C 0.5317(3) 0.11942(12) 0.2033(3)
H14 H 0.594936 0.099218 0.184559
C24 C 0.4065(3) 0.10245(11) 0.1885(2)
C25 C 0.3481(3) 0.05081(11) 0.1522(2)
S2 S 0.54392(8) 0.29292(3) 0.31924(7)
S3 S 0.31794(7) 0.14915(3) 0.23122(6)
N3 N 0.1056(2) 0.57491(9) 0.64936(18)
N4 N 0.3447(3) 0.55846(14) 0.7867(2)
C34 C 0.0292(3) 0.60969(13) 0.7903(2)
H20 H 0.047553 0.621486 0.864450
C35 C 0.1280(3) 0.58994(12) 0.7557(2)
C36 C 0.2644(3) 0.58296(15) 0.8315(2)
C37 C 0.3080(4) 0.59922(19) 0.9425(3)
H21 H 0.250365 0.616443 0.973131
C39 C 0.5184(5) 0.5654(2) 0.9593(4)
C40 C 0.4693(4) 0.5506(2) 0.8477(3)
H24 H 0.526236 0.534613 0.814761
O9 O 0.3633(2) 0.60562(9) 0.5950(2)
O10 O 0.5394(2) 0.57888(8) 0.55325(16)
O11 O 0.58663(18) 0.98469(7) 0.87733(14)
O12 O 0.7636(2) 0.95946(8) 0.84392(16)
C41 C 0.4725(3) 0.61216(11) 0.5819(2)
C42 C 0.5248(3) 0.66640(12) 0.6079(2)
C43 C 0.6237(3) 0.69117(12) 0.5837(3)
H25 H 0.673224 0.675089 0.543753
C44 C 0.6443(4) 0.74338(13) 0.6245(3)
H26 H 0.709584 0.766011 0.615328
C45 C 0.5596(3) 0.75795(11) 0.6792(2)
C46 C 0.5498(3) 0.80834(11) 0.7295(2)
C47 C 0.4447(3) 0.82926(12) 0.7500(3)
H27 H 0.363722 0.811321 0.734611
C48 C 0.4683(3) 0.88058(12) 0.7967(3)
H28 H 0.405064 0.900782 0.815441
C49 C 0.5935(3) 0.89755(11) 0.8115(2)
C50 C 0.6519(3) 0.94919(11) 0.8478(2)
S5 S 0.45608(8) 0.70708(3) 0.68076(7)
S6 S 0.68206(7) 0.85085(3) 0.76878(6)
Co9_4 Co 0.500000 1.000000 1.000000
O15 O 0.58663(18) 0.51531(7) 0.37733(14)
O16 O 0.41337(18) 0.48469(7) 0.62267(14)
O17 O 0.7636(2) 0.54054(8) 0.34392(16)
O18 O 0.2364(2) 0.45946(8) 0.65608(16)
C8 C 0.5650(5) 0.4102(2) 0.9943(3)
H6 H 0.533715 0.400006 0.918485
H7 H 0.392770 0.441120 0.997526
Co4 Co 0.26230(4) 0.95794(2) 0.11366(3)
C31 C 0.9843(3) 0.57739(11) 0.5772(2)
H17 H 0.968656 0.566444 0.502885
C32 C 0.8794(3) 0.59544(12) 0.6066(3)
H18 H 0.793493 0.596449 0.553664
C33 C 0.9032(3) 0.61189(14) 0.7149(3)
H19 H 0.833507 0.624599 0.737074
O13 O 0.84022(19) 0.03321(8) 0.04976(14)
O14 O 0.67491(19) 0.02002(8) 0.11624(15)
C28_2 C 0.0201(3) 0.02935(12) 0.2769(2)
H15_2 H 0.068445 0.038942 0.230241
C29_2 C 0.0772(3) 0.01958(13) 0.3921(2)
H16_2 H 0.168662 0.021888 0.431011
N3_2 N 0.8944(2) 0.07491(9) 0.85064(18)
N4_2 N 0.6553(3) 0.05846(14) 0.7133(2)
C34_2 C 0.9708(3) 0.10969(13) 0.7097(2)
H20_2 H 0.952447 0.121486 0.635550
C35_2 C 0.8720(3) 0.08994(12) 0.7443(2)
C36_2 C 0.7356(3) 0.08296(15) 0.6685(2)
C37_2 C 0.6920(4) 0.09922(19) 0.5575(3)
H21_2 H 0.749635 0.116443 0.526869
C38_2 C 0.5650(5) 0.0898(2) 0.4943(3)
H22_2 H 0.533715 0.099994 0.418485
C39_2 C 0.4816(5) 0.0654(2) 0.5407(4)
H23_2 H 0.392770 0.058880 0.497526
C40_2 C 0.5307(4) 0.0506(2) 0.6523(3)
H24_2 H 0.473764 0.034613 0.685239
O9_2 O 0.6367(2) 0.10562(9) 0.9050(2)
O10_2 O 0.4606(2) 0.07888(8) 0.94675(16)
C41_2 C 0.5275(3) 0.11216(11) 0.9181(2)
C42_2 C 0.4752(3) 0.16640(12) 0.8921(2)
C43_2 C 0.3763(3) 0.19117(12) 0.9163(3)
H25_2 H 0.326776 0.175089 0.956247
C44_2 C 0.3557(4) 0.24338(13) 0.8755(3)
H26_2 H 0.290416 0.266011 0.884672
C45_2 C 0.4404(3) 0.25795(11) 0.8208(2)
C46_2 C 0.4502(3) 0.30834(11) 0.7705(2)
C47_2 C 0.5553(3) 0.32926(12) 0.7500(3)
H27_2 H 0.636278 0.311321 0.765389
C48_2 C 0.5317(3) 0.38058(12) 0.7033(3)
H28_2 H 0.594936 0.400782 0.684559
C49_2 C 0.4065(3) 0.39755(11) 0.6885(2)
C50_2 C 0.3481(3) 0.44919(11) 0.6522(2)
S5_2 S 0.54392(8) 0.20708(3) 0.81924(7)
S6_2 S 0.31794(7) 0.35085(3) 0.73122(6)
N1_2 N 0.1056(2) 0.92509(9) 0.14936(18)
N2_2 N 0.3447(3) 0.94154(14) 0.2867(2)
C4_2 C 0.0292(3) 0.89031(13) 0.2903(2)
H4_2 H 0.047553 0.878514 0.364450
C5_2 C 0.1280(3) 0.91006(12) 0.2557(2)
C6_2 C 0.2644(3) 0.91704(15) 0.3315(2)
C7_2 C 0.3080(4) 0.90078(19) 0.4425(3)
H5_2 H 0.250365 0.883557 0.473131
C8_2 C 0.4350(5) 0.9102(2) 0.5057(3)
H6_2 H 0.466285 0.900006 0.581515
C9_2 C 0.5184(5) 0.9346(2) 0.4593(4)
H7_2 H 0.607230 0.941120 0.502474
C10_2 C 0.4693(4) 0.9494(2) 0.3477(3)
H8_2 H 0.526236 0.965387 0.314761
O3_2 O 0.3633(2) 0.89438(9) 0.0950(2)
O4_2 O 0.5394(2) 0.92112(8) 0.05325(16)
C16_2 C 0.4725(3) 0.88784(11) 0.0819(2)
C17_2 C 0.5248(3) 0.83360(12) 0.1079(2)
C18_2 C 0.6237(3) 0.80883(12) 0.0837(3)
H11_2 H 0.673224 0.824911 0.043753
C19_2 C 0.6443(4) 0.75662(13) 0.1245(3)
H12_2 H 0.709584 0.733989 0.115328
C20_2 C 0.5596(3) 0.74205(11) 0.1792(2)
C21_2 C 0.5498(3) 0.69166(11) 0.2295(2)
C22_2 C 0.4447(3) 0.67074(12) 0.2500(3)
H13_2 H 0.363722 0.688679 0.234611
C23_2 C 0.4683(3) 0.61942(12) 0.2967(3)
H14_2 H 0.405064 0.599218 0.315441
C24_2 C 0.5935(3) 0.60245(11) 0.3115(2)
C25_2 C 0.6519(3) 0.55081(11) 0.3478(2)
S2_2 S 0.45608(8) 0.79292(3) 0.18076(7)
S3_2 S 0.68206(7) 0.64915(3) 0.26878(6)
O1_2 O 0.15978(19) 0.96679(8) 0.95024(14)
O2_2 O 0.32509(19) 0.97998(8) 0.88376(15)
C11_2 C 0.2069(3) 0.97393(10) 0.8740(2)
C12_2 C 0.1125(3) 0.97664(11) 0.7592(2)
C15_2 C 0.0121(3) 0.99351(11) 0.5580(2)
S1_2 S 0.16885(7) 0.99347(3) 0.65264(5)
C26_2 C 0.7931(3) 0.02607(10) 0.1260(2)
C27_2 C 0.8875(3) 0.02336(11) 0.2408(2)
C30_2 C 0.9879(3) 0.00649(11) 0.4420(2)
S4_2 S 0.83115(7) 0.00653(3) 0.34736(5)
C13_2 C 0.9799(3) 0.97065(12) 0.7231(2)
H9_2 H 0.931555 0.961058 0.769759
C14_2 C 0.9228(3) 0.98042(13) 0.6079(2)
H10_2 H 0.831338 0.978112 0.568989
C31_2 C 0.0157(3) 0.07739(11) 0.9228(2)
H17_2 H 0.031344 0.066444 0.997115
C32_2 C 0.1206(3) 0.09544(12) 0.8934(3)
H18_2 H 0.206507 0.096449 0.946336
C33_2 C 0.0968(3) 0.11189(14) 0.7851(3)
H19_2 H 0.166493 0.124599 0.762926
C1_2 C 0.9843(3) 0.92261(11) 0.0772(2)
H1_2 H 0.968656 0.933556 0.002885
C2_2 C 0.8794(3) 0.90456(12) 0.1066(3)
H2_2 H 0.793493 0.903551 0.053664
C3_2 C 0.9032(3) 0.88811(14) 0.2149(3)
H3_2 H 0.833507 0.875401 0.237074
loop_
_geom_bond_atom_site_label_1
_geom_bond_atom_site_label_2
_geom_bond_site_symmetry_1
_geom_bond_site_symmetry_2
O7 C26 1_555 1_555
O8 C26 1_555 1_555
C26 C27 1_555 1_555
S4 C27 1_555 1_555
Co5 O7 1_555 1_555
Co7 O8 1_555 1_555
C30 S4 1_555 1_555
C1 H1 1_555 1_555
C2 C1 1_555 1_555
H2 C2 1_555 1_555
C3 C2 1_555 1_555
H3 C3 1_555 1_555
H9 C13 1_555 1_555
C14 C13 1_555 1_555
H10 C14 1_555 1_555
C28 H15 1_555 1_555
C29 C28 1_555 1_555
H16 C29 1_555 1_555
H22 C38 1_555 1_555
Co1 N1 1_555 1_555
Co7 O2 1_555 1_555
N2 Co1 1_555 1_555
H4 C4 1_555 1_555
C5 N1 1_555 1_555
C6 N2 1_555 1_555
C7 C6 1_555 1_555
H5 C7 1_555 1_555
C10 N2 1_555 1_555
H8 C10 1_555 1_555
O1 Co1 1_555 1_555
O2 C11 1_555 1_555
C11 O1 1_555 1_555
C12 C11 1_555 1_555
S1 C12 1_555 1_555
O3 Co1 1_555 1_555
O4 Co7 1_555 1_555
O5 C25 1_555 1_555
O6 C25 1_555 1_555
C16 O3 1_555 1_555
C17 C16 1_555 1_555
C18 C17 1_555 1_555
H11 C18 1_555 1_555
C19 C18 1_555 1_555
H12 C19 1_555 1_555
C20 C19 1_555 1_555
C21 C20 1_555 1_555
C22 C21 1_555 1_555
H13 C22 1_555 1_555
C23 C22 1_555 1_555
H14 C23 1_555 1_555
C24 C23 1_555 1_555
C25 C24 1_555 1_555
S2 C17 1_555 1_555
S3 C21 1_555 1_555
Co5 N3 1_555 1_555
N4 Co5 1_555 1_555
H20 C34 1_555 1_555
C35 N3 1_555 1_555
C36 N4 1_555 1_555
C37 C36 1_555 1_555
H21 C37 1_555 1_555
C40 N4 1_555 1_555
H24 C40 1_555 1_555
O9 Co5 1_555 1_555
O10 Co7 1_555 1_555
O11 C50 1_555 1_555
O12 C50 1_555 1_555
C41 O9 1_555 1_555
C42 C41 1_555 1_555
C43 C42 1_555 1_555
H25 C43 1_555 1_555
C44 C43 1_555 1_555
H26 C44 1_555 1_555
C45 C44 1_555 1_555
C46 C45 1_555 1_555
C47 C46 1_555 1_555
H27 C47 1_555 1_555
C48 C47 1_555 1_555
H28 C48 1_555 1_555
C49 C48 1_555 1_555
C50 C49 1_555 1_555
S5 C42 1_555 1_555
S6 C46 1_555 1_555
Co9 O5 1_555 1_555
Co9_4 O11 1_555 1_555
O15 Co1 1_555 1_555
O16 Co7 1_555 1_555
O17 Co1 1_555 1_555
O18 Co5 1_555 1_555
Co7 O15 1_555 1_555
C4 C5 1_555 1_555
C5 C6 1_555 1_555
C9 C10 1_555 1_555
C15 S1 1_555 1_555
O4 C16 1_555 1_555
C20 S2 1_555 1_555
C24 S3 1_555 1_555
Co5 O16 1_555 1_555
C34 C35 1_555 1_555
C35 C36 1_555 1_555
C39 C40 1_555 1_555
O10 C41 1_555 1_555
C45 S5 1_555 1_555
C49 S6 1_555 1_555
H6 C8 1_555 1_555
C31 H17 1_555 1_555
C32 C31 1_555 1_555
H18 C32 1_555 1_555
C33 C32 1_555 1_555
H19 C33 1_555 1_555
O14 Co9 1_555 1_555
C28_2 H15_2 1_555 1_555
C29_2 C28_2 1_555 1_555
H16_2 C29_2 1_555 1_555
Co6 N3_2 1_555 1_555
N4_2 Co6 1_555 1_555
H20_2 C34_2 1_555 1_555
C35_2 N3_2 1_555 1_555
C36_2 N4_2 1_555 1_555
C37_2 C36_2 1_555 1_555
H21_2 C37_2 1_555 1_555
C38_2 C37_2 1_555 1_555
H22_2 C38_2 1_555 1_555
C39_2 C38_2 1_555 1_555
H23_2 C39_2 1_555 1_555
C40_2 N4_2 1_555 1_555
H24_2 C40_2 1_555 1_555
O9_2 Co6 1_555 1_555
O10_2 Co9_2 1_555 1_555
O16 C50_2 1_555 1_555
O18 C50_2 1_555 1_555
C41_2 O9_2 1_555 1_555
C42_2 C41_2 1_555 1_555
C43_2 C42_2 1_555 1_555
H25_2 C43_2 1_555 1_555
C44_2 C43_2 1_555 1_555
H26_2 C44_2 1_555 1_555
C45_2 C44_2 1_555 1_555
C46_2 C45_2 1_555 1_555
C47_2 C46_2 1_555 1_555
H27_2 C47_2 1_555 1_555
C48_2 C47_2 1_555 1_555
H28_2 C48_2 1_555 1_555
C49_2 C48_2 1_555 1_555
C50_2 C49_2 1_555 1_555
S5_2 C42_2 1_555 1_555
S6_2 C46_2 1_555 1_555
C34_2 C35_2 1_555 1_555
C35_2 C36_2 1_555 1_555
C39_2 C40_2 1_555 1_555
O10_2 C41_2 1_555 1_555
C45_2 S5_2 1_555 1_555
C49_2 S6_2 1_555 1_555
Co4 N1_2 1_555 1_555
N2_2 Co4 1_555 1_555
H4_2 C4_2 1_555 1_555
C5_2 N1_2 1_555 1_555
C6_2 N2_2 1_555 1_555
C7_2 C6_2 1_555 1_555
H5_2 C7_2 1_555 1_555
C8_2 C7_2 1_555 1_555
H6_2 C8_2 1_555 1_555
C9_2 C8_2 1_555 1_555
H7_2 C9_2 1_555 1_555
C10_2 N2_2 1_555 1_555
H8_2 C10_2 1_555 1_555
O3_2 Co4 1_555 1_555
O4_2 Co9_3 1_555 1_555
O15 C25_2 1_555 1_555
O17 C25_2 1_555 1_555
C16_2 O3_2 1_555 1_555
C17_2 C16_2 1_555 1_555
C18_2 C17_2 1_555 1_555
H11_2 C18_2 1_555 1_555
C19_2 C18_2 1_555 1_555
H12_2 C19_2 1_555 1_555
C20_2 C19_2 1_555 1_555
C21_2 C20_2 1_555 1_555
C22_2 C21_2 1_555 1_555
H13_2 C22_2 1_555 1_555
C23_2 C22_2 1_555 1_555
H14_2 C23_2 1_555 1_555
C24_2 C23_2 1_555 1_555
C25_2 C24_2 1_555 1_555
S2_2 C17_2 1_555 1_555
S3_2 C21_2 1_555 1_555
C4_2 C5_2 1_555 1_555
C5_2 C6_2 1_555 1_555
C9_2 C10_2 1_555 1_555
O4_2 C16_2 1_555 1_555
C20_2 S2_2 1_555 1_555
C24_2 S3_2 1_555 1_555
Co9_4 O2_2 1_555 1_555
O2_2 C11_2 1_555 1_555
C11_2 O1_2 1_555 1_555
C12_2 C11_2 1_555 1_555
S1_2 C12_2 1_555 1_555
C15_2 S1_2 1_555 1_555
O13 C26_2 1_555 1_555
O14 C26_2 1_555 1_555
C26_2 C27_2 1_555 1_555
S4_2 C27_2 1_555 1_555
C30_2 S4_2 1_555 1_555
H9_2 C13_2 1_555 1_555
C14_2 C13_2 1_555 1_555
H10_2 C14_2 1_555 1_555
C31_2 H17_2 1_555 1_555
C32_2 C31_2 1_555 1_555
H18_2 C32_2 1_555 1_555
C33_2 C32_2 1_555 1_555
H19_2 C33_2 1_555 1_555
C1_2 H1_2 1_555 1_555
C2_2 C1_2 1_555 1_555
H2_2 C2_2 1_555 1_555
C3_2 C2_2 1_555 1_555
H3_2 C3_2 1_555 1_555

#END
