
###############################################################################
#
# This file contains modified crystal structure data generated from the
# MOF subset of the Cambridge Structural Database (CSD) v543 
# hosted by the Cambridge Crystallographic Data Centre (CCDC).
#
# This work is licensed under the Creative Commons
# Attribution-NonCommercial-ShareAlike 4.0 International License.
# To view a copy of this license, visit
# http://creativecommons.org/licenses/by-nc-sa/4.0/
# or send a letter to
# Creative Commons, PO Box 1866, Mountain View, CA 94042, USA.
#
# CIF created using the CSD Python API on 29 September 2022
# The structure has been converted into the P1 space group
# The structure has a 3D framework
# The original CSD entry UNUNEY is in the cubic crystal system
# The framework has been calculated to contain at least 10.0% void space
# The void calculation uses a probe of radius 1.32A, grid spacing 0.4
# The framework is charged, counterions have been retained in the structure
#
###############################################################################

data_UNUNEY
_chemical_formula_moiety         '(C1104 H552 O256 U32 26-)n'
_symmetry_cell_setting           triclinic
_symmetry_space_group_name_H-M   'P 1'
_symmetry_Int_Tables_number      1
_space_group_name_Hall           'P 1'
loop_
_symmetry_equiv_pos_site_id
_symmetry_equiv_pos_as_xyz
1 x,y,z
_cell_length_a                   55.0575(19)
_cell_length_b                   55.0575(19)
_cell_length_c                   55.0575(19)
_cell_angle_alpha                90
_cell_angle_beta                 90
_cell_angle_gamma                90
_cell_volume                     166897
loop_
_atom_site_label
_atom_site_type_symbol
_atom_site_fract_x
_atom_site_fract_y
_atom_site_fract_z
C1 C 0.67236(11) 0.67236(11) 0.39058(17)
C2 C 0.68435(9) 0.68435(9) 0.41359(13)
C3 C 0.70391(12) 0.67476(13) 0.42305(14)
H1 H 0.7111 0.6609 0.4157
C4 C 0.71373(12) 0.68453(13) 0.44306(13)
H2 H 0.7287 0.6783 0.4490
C5 C 0.70285(9) 0.70285(9) 0.45479(14)
C6 C 0.71388(12) 0.71388(12) 0.47829(15)
C7 C 0.70550(12) 0.70550(12) 0.5000
H3 H 0.6933 0.6933 0.5000
C8 C 0.73157(11) 0.73157(11) 0.47639(11)
C9 C 0.74131(6) 0.74131(6) 0.45486(11)
H4 H 0.7354 0.7354 0.4397
C10 C 0.74074(10) 0.74074(10) 0.5000
O1 O 0.65380(6) 0.68188(5) 0.38157(6)
O2 O 0.63383(11) 0.63383(11) 0.36617(11)
O3 O 0.66920(10) 0.66920(10) 0.33080(10)
U1 U 0.65150(2) 0.65150(2) 0.34850(2)
C11 C 0.67236(11) 0.67236(11) 0.60942(17)
C12 C 0.68435(9) 0.68435(9) 0.58641(13)
C13 C 0.67476(13) 0.70391(12) 0.57695(14)
H5 H 0.6609 0.7111 0.5843
C14 C 0.68453(13) 0.71373(12) 0.55694(13)
H6 H 0.6783 0.7287 0.5510
C15 C 0.70285(9) 0.70285(9) 0.54521(14)
C16 C 0.71388(12) 0.71388(12) 0.52171(15)
C17 C 0.73157(11) 0.73157(11) 0.52361(11)
C18 C 0.74131(6) 0.74131(6) 0.54514(11)
H7 H 0.7354 0.7354 0.5603
O4 O 0.68188(5) 0.65380(6) 0.61843(6)
C19 C 0.82764(11) 0.82764(11) 0.39058(17)
C20 C 0.81565(9) 0.81565(9) 0.41359(13)
C21 C 0.79609(12) 0.82524(13) 0.42305(14)
H8 H 0.7889 0.8391 0.4157
C22 C 0.78627(12) 0.81547(13) 0.44306(13)
H9 H 0.7713 0.8217 0.4490
C23 C 0.79715(9) 0.79715(9) 0.45479(14)
C24 C 0.78612(12) 0.78612(12) 0.47829(15)
C25 C 0.79450(12) 0.79450(12) 0.5000
H10 H 0.8067 0.8067 0.5000
C26 C 0.76843(11) 0.76843(11) 0.47639(11)
C27 C 0.75869(6) 0.75869(6) 0.45486(11)
H11 H 0.7646 0.7646 0.4397
C28 C 0.75926(10) 0.75926(10) 0.5000
O5 O 0.84620(6) 0.81812(5) 0.38157(6)
C29 C 0.82764(11) 0.82764(11) 0.60942(17)
C30 C 0.81565(9) 0.81565(9) 0.58641(13)
C31 C 0.82524(13) 0.79609(12) 0.57695(14)
H12 H 0.8391 0.7889 0.5843
C32 C 0.81547(13) 0.78627(12) 0.55694(13)
H13 H 0.8217 0.7713 0.5510
C33 C 0.79715(9) 0.79715(9) 0.54521(14)
C34 C 0.78612(12) 0.78612(12) 0.52171(15)
C35 C 0.76843(11) 0.76843(11) 0.52361(11)
C36 C 0.75869(6) 0.75869(6) 0.54514(11)
H14 H 0.7646 0.7646 0.5603
O6 O 0.81812(5) 0.84620(6) 0.61843(6)
C37 C 0.70391(12) 0.67476(13) 0.57695(14)
H15 H 0.7111 0.6609 0.5843
C38 C 0.71373(12) 0.68453(13) 0.55694(13)
H16 H 0.7287 0.6783 0.5510
O7 O 0.65380(6) 0.68188(5) 0.61843(6)
C39 C 0.67476(13) 0.70391(12) 0.42305(14)
H17 H 0.6609 0.7111 0.4157
C40 C 0.68453(13) 0.71373(12) 0.44306(13)
H18 H 0.6783 0.7287 0.4490
O8 O 0.68188(5) 0.65380(6) 0.38157(6)
C41 C 0.79609(12) 0.82524(13) 0.57695(14)
H19 H 0.7889 0.8391 0.5843
C42 C 0.78627(12) 0.81547(13) 0.55694(13)
H20 H 0.7713 0.8217 0.5510
O9 O 0.84620(6) 0.81812(5) 0.61843(6)
C43 C 0.82524(13) 0.79609(12) 0.42305(14)
H21 H 0.8391 0.7889 0.4157
C44 C 0.81547(13) 0.78627(12) 0.44306(13)
H22 H 0.8217 0.7713 0.4490
O10 O 0.81812(5) 0.84620(6) 0.38157(6)
C45 C 0.60942(17) 0.67236(11) 0.32764(11)
C46 C 0.58641(13) 0.68435(9) 0.31565(9)
C47 C 0.57695(14) 0.70391(12) 0.32524(13)
H23 H 0.5843 0.7111 0.3391
C48 C 0.55694(13) 0.71373(12) 0.31547(13)
H24 H 0.5510 0.7287 0.3217
C49 C 0.54521(14) 0.70285(9) 0.29715(9)
C50 C 0.52171(15) 0.71388(12) 0.28612(12)
C51 C 0.5000 0.70550(12) 0.29450(12)
H25 H 0.5000 0.6933 0.3067
C52 C 0.52361(11) 0.73157(11) 0.26843(11)
C53 C 0.54514(11) 0.74131(6) 0.25869(6)
H26 H 0.5603 0.7354 0.2646
C54 C 0.5000 0.74074(10) 0.25926(10)
O11 O 0.61843(6) 0.65380(6) 0.31812(5)
C55 C 0.39058(17) 0.67236(11) 0.32764(11)
C56 C 0.41359(13) 0.68435(9) 0.31565(9)
C57 C 0.42305(14) 0.67476(13) 0.29609(12)
H27 H 0.4157 0.6609 0.2889
C58 C 0.44306(13) 0.68453(13) 0.28627(12)
H28 H 0.4490 0.6783 0.2713
C59 C 0.45479(14) 0.70285(9) 0.29715(9)
C60 C 0.47829(15) 0.71388(12) 0.28612(12)
C61 C 0.47639(11) 0.73157(11) 0.26843(11)
C62 C 0.45486(11) 0.74131(6) 0.25869(6)
H29 H 0.4397 0.7354 0.2646
O12 O 0.38157(6) 0.68188(5) 0.34620(6)
C63 C 0.60942(17) 0.82764(11) 0.17236(11)
C64 C 0.58641(13) 0.81565(9) 0.18435(9)
C65 C 0.57695(14) 0.79609(12) 0.17476(13)
H30 H 0.5843 0.7889 0.1609
C66 C 0.55694(13) 0.78627(12) 0.18453(13)
H31 H 0.5510 0.7713 0.1783
C67 C 0.54521(14) 0.79715(9) 0.20285(9)
C68 C 0.52171(15) 0.78612(12) 0.21388(12)
C69 C 0.5000 0.79450(12) 0.20550(12)
H32 H 0.5000 0.8067 0.1933
C70 C 0.52361(11) 0.76843(11) 0.23157(11)
C71 C 0.54514(11) 0.75869(6) 0.24131(6)
H33 H 0.5603 0.7646 0.2354
C72 C 0.5000 0.75926(10) 0.24074(10)
O13 O 0.61843(6) 0.84620(6) 0.18188(5)
C73 C 0.39058(17) 0.82764(11) 0.17236(11)
C74 C 0.41359(13) 0.81565(9) 0.18435(9)
C75 C 0.42305(14) 0.82524(13) 0.20391(12)
H34 H 0.4157 0.8391 0.2111
C76 C 0.44306(13) 0.81547(13) 0.21373(12)
H35 H 0.4490 0.8217 0.2287
C77 C 0.45479(14) 0.79715(9) 0.20285(9)
C78 C 0.47829(15) 0.78612(12) 0.21388(12)
C79 C 0.47639(11) 0.76843(11) 0.23157(11)
C80 C 0.45486(11) 0.75869(6) 0.24131(6)
H36 H 0.4397 0.7646 0.2354
O14 O 0.38157(6) 0.81812(5) 0.15380(6)
C81 C 0.42305(14) 0.70391(12) 0.32524(13)
H37 H 0.4157 0.7111 0.3391
C82 C 0.44306(13) 0.71373(12) 0.31547(13)
H38 H 0.4490 0.7287 0.3217
O15 O 0.38157(6) 0.65380(6) 0.31812(5)
C83 C 0.57695(14) 0.67476(13) 0.29609(12)
H39 H 0.5843 0.6609 0.2889
C84 C 0.55694(13) 0.68453(13) 0.28627(12)
H40 H 0.5510 0.6783 0.2713
O16 O 0.61843(6) 0.68188(5) 0.34620(6)
C85 C 0.42305(14) 0.79609(12) 0.17476(13)
H41 H 0.4157 0.7889 0.1609
C86 C 0.44306(13) 0.78627(12) 0.18453(13)
H42 H 0.4490 0.7713 0.1783
O17 O 0.38157(6) 0.84620(6) 0.18188(5)
C87 C 0.57695(14) 0.82524(13) 0.20391(12)
H43 H 0.5843 0.8391 0.2111
C88 C 0.55694(13) 0.81547(13) 0.21373(12)
H44 H 0.5510 0.8217 0.2287
O18 O 0.61843(6) 0.81812(5) 0.15380(6)
C89 C 0.67236(11) 0.60942(17) 0.32764(11)
C90 C 0.68435(9) 0.58641(13) 0.31565(9)
C91 C 0.67476(13) 0.57695(14) 0.29609(12)
H45 H 0.6609 0.5843 0.2889
C92 C 0.68453(13) 0.55694(13) 0.28627(12)
H46 H 0.6783 0.5510 0.2713
C93 C 0.70285(9) 0.54521(14) 0.29715(9)
C94 C 0.71388(12) 0.52171(15) 0.28612(12)
C95 C 0.70550(12) 0.5000 0.29450(12)
H47 H 0.6933 0.5000 0.3067
C96 C 0.73157(11) 0.52361(11) 0.26843(11)
C97 C 0.74131(6) 0.54514(11) 0.25869(6)
H48 H 0.7354 0.5603 0.2646
C98 C 0.74074(10) 0.5000 0.25926(10)
O19 O 0.68188(5) 0.61843(6) 0.34620(6)
C99 C 0.67236(11) 0.39058(17) 0.32764(11)
C100 C 0.68435(9) 0.41359(13) 0.31565(9)
C101 C 0.70391(12) 0.42305(14) 0.32524(13)
H49 H 0.7111 0.4157 0.3391
C102 C 0.71373(12) 0.44306(13) 0.31547(13)
H50 H 0.7287 0.4490 0.3217
C103 C 0.70285(9) 0.45479(14) 0.29715(9)
C104 C 0.71388(12) 0.47829(15) 0.28612(12)
C105 C 0.73157(11) 0.47639(11) 0.26843(11)
C106 C 0.74131(6) 0.45486(11) 0.25869(6)
H51 H 0.7354 0.4397 0.2646
O20 O 0.65380(6) 0.38157(6) 0.31812(5)
C107 C 0.82764(11) 0.60942(17) 0.17236(11)
C108 C 0.81565(9) 0.58641(13) 0.18435(9)
C109 C 0.82524(13) 0.57695(14) 0.20391(12)
H52 H 0.8391 0.5843 0.2111
C110 C 0.81547(13) 0.55694(13) 0.21373(12)
H53 H 0.8217 0.5510 0.2287
C111 C 0.79715(9) 0.54521(14) 0.20285(9)
C112 C 0.78612(12) 0.52171(15) 0.21388(12)
C113 C 0.79450(12) 0.5000 0.20550(12)
H54 H 0.8067 0.5000 0.1933
C114 C 0.76843(11) 0.52361(11) 0.23157(11)
C115 C 0.75869(6) 0.54514(11) 0.24131(6)
H55 H 0.7646 0.5603 0.2354
C116 C 0.75926(10) 0.5000 0.24074(10)
O21 O 0.81812(5) 0.61843(6) 0.15380(6)
C117 C 0.82764(11) 0.39058(17) 0.17236(11)
C118 C 0.81565(9) 0.41359(13) 0.18435(9)
C119 C 0.79609(12) 0.42305(14) 0.17476(13)
H56 H 0.7889 0.4157 0.1609
C120 C 0.78627(12) 0.44306(13) 0.18453(13)
H57 H 0.7713 0.4490 0.1783
C121 C 0.79715(9) 0.45479(14) 0.20285(9)
C122 C 0.78612(12) 0.47829(15) 0.21388(12)
C123 C 0.76843(11) 0.47639(11) 0.23157(11)
C124 C 0.75869(6) 0.45486(11) 0.24131(6)
H58 H 0.7646 0.4397 0.2354
O22 O 0.84620(6) 0.38157(6) 0.18188(5)
C125 C 0.67476(13) 0.42305(14) 0.29609(12)
H59 H 0.6609 0.4157 0.2889
C126 C 0.68453(13) 0.44306(13) 0.28627(12)
H60 H 0.6783 0.4490 0.2713
O23 O 0.68188(5) 0.38157(6) 0.34620(6)
C127 C 0.70391(12) 0.57695(14) 0.32524(13)
H61 H 0.7111 0.5843 0.3391
C128 C 0.71373(12) 0.55694(13) 0.31547(13)
H62 H 0.7287 0.5510 0.3217
O24 O 0.65380(6) 0.61843(6) 0.31812(5)
C129 C 0.82524(13) 0.42305(14) 0.20391(12)
H63 H 0.8391 0.4157 0.2111
C130 C 0.81547(13) 0.44306(13) 0.21373(12)
H64 H 0.8217 0.4490 0.2287
O25 O 0.81812(5) 0.38157(6) 0.15380(6)
C131 C 0.79609(12) 0.57695(14) 0.17476(13)
H65 H 0.7889 0.5843 0.1609
C132 C 0.78627(12) 0.55694(13) 0.18453(13)
H66 H 0.7713 0.5510 0.1783
O26 O 0.84620(6) 0.61843(6) 0.18188(5)
O27 O 0.63383(11) 0.63383(11) 0.63383(11)
O28 O 0.66920(10) 0.66920(10) 0.66920(10)
U2 U 0.65150(2) 0.65150(2) 0.65150(2)
O29 O 0.63383(11) 0.36617(11) 0.36617(11)
O30 O 0.66920(10) 0.33080(10) 0.33080(10)
U3 U 0.65150(2) 0.34850(2) 0.34850(2)
O31 O 0.36617(11) 0.63383(11) 0.36617(11)
O32 O 0.33080(10) 0.66920(10) 0.33080(10)
U4 U 0.34850(2) 0.65150(2) 0.34850(2)
O33 O 0.68188(5) 0.34620(6) 0.38157(6)
O34 O 0.31812(5) 0.65380(6) 0.38157(6)
O35 O 0.34620(6) 0.61843(6) 0.31812(5)
O36 O 0.65380(6) 0.61843(6) 0.68188(5)
O37 O 0.61843(6) 0.68188(5) 0.65380(6)
O38 O 0.61843(6) 0.31812(5) 0.34620(6)
O39 O 0.65380(6) 0.31812(5) 0.38157(6)
O40 O 0.34620(6) 0.68188(5) 0.38157(6)
O41 O 0.61843(6) 0.34620(6) 0.31812(5)
O42 O 0.61843(6) 0.65380(6) 0.68188(5)
O43 O 0.31812(5) 0.61843(6) 0.34620(6)
O44 O 0.68188(5) 0.61843(6) 0.65380(6)
U5 U 0.65150(2) 0.84850(2) 0.15150(2)
U6 U 0.34850(2) 0.84850(2) 0.15150(2)
U7 U 0.84850(2) 0.65150(2) 0.15150(2)
U8 U 0.84850(2) 0.34850(2) 0.15150(2)
U9 U 0.84850(2) 0.84850(2) 0.34850(2)
U10 U 0.84850(2) 0.84850(2) 0.65150(2)
C1_2 C 0.32764(11) 0.32764(11) 0.39058(17)
C2_2 C 0.31565(9) 0.31565(9) 0.41359(13)
C3_2 C 0.29609(12) 0.32524(13) 0.42305(14)
H1_2 H 0.2889 0.3391 0.4157
C4_2 C 0.28627(12) 0.31547(13) 0.44306(13)
H2_2 H 0.2713 0.3217 0.4490
C5_2 C 0.29715(9) 0.29715(9) 0.45479(14)
C6_2 C 0.28612(12) 0.28612(12) 0.47829(15)
C7_2 C 0.29450(12) 0.29450(12) 0.5000
H3_2 H 0.3067 0.3067 0.5000
C8_2 C 0.26843(11) 0.26843(11) 0.47639(11)
C9_2 C 0.25869(6) 0.25869(6) 0.45486(11)
H4_2 H 0.2646 0.2646 0.4397
C10_2 C 0.25926(10) 0.25926(10) 0.5000
O1_2 O 0.34620(6) 0.31812(5) 0.38157(6)
O2_2 O 0.36617(11) 0.36617(11) 0.36617(11)
O3_2 O 0.33080(10) 0.33080(10) 0.33080(10)
U1_2 U 0.34850(2) 0.34850(2) 0.34850(2)
C11_2 C 0.32764(11) 0.32764(11) 0.60942(17)
C12_2 C 0.31565(9) 0.31565(9) 0.58641(13)
C13_2 C 0.32524(13) 0.29609(12) 0.57695(14)
H5_2 H 0.3391 0.2889 0.5843
C14_2 C 0.31547(13) 0.28627(12) 0.55694(13)
H6_2 H 0.3217 0.2713 0.5510
C15_2 C 0.29715(9) 0.29715(9) 0.54521(14)
C16_2 C 0.28612(12) 0.28612(12) 0.52171(15)
C17_2 C 0.26843(11) 0.26843(11) 0.52361(11)
C18_2 C 0.25869(6) 0.25869(6) 0.54514(11)
H7_2 H 0.2646 0.2646 0.5603
O4_2 O 0.31812(5) 0.34620(6) 0.61843(6)
C19_2 C 0.17236(11) 0.17236(11) 0.39058(17)
C20_2 C 0.18435(9) 0.18435(9) 0.41359(13)
C21_2 C 0.20391(12) 0.17476(13) 0.42305(14)
H8_2 H 0.2111 0.1609 0.4157
C22_2 C 0.21373(12) 0.18453(13) 0.44306(13)
H9_2 H 0.2287 0.1783 0.4490
C23_2 C 0.20285(9) 0.20285(9) 0.45479(14)
C24_2 C 0.21388(12) 0.21388(12) 0.47829(15)
C25_2 C 0.20550(12) 0.20550(12) 0.5000
H10_2 H 0.1933 0.1933 0.5000
C26_2 C 0.23157(11) 0.23157(11) 0.47639(11)
C27_2 C 0.24131(6) 0.24131(6) 0.45486(11)
H11_2 H 0.2354 0.2354 0.4397
C28_2 C 0.24074(10) 0.24074(10) 0.5000
O5_2 O 0.15380(6) 0.18188(5) 0.38157(6)
C29_2 C 0.17236(11) 0.17236(11) 0.60942(17)
C30_2 C 0.18435(9) 0.18435(9) 0.58641(13)
C31_2 C 0.17476(13) 0.20391(12) 0.57695(14)
H12_2 H 0.1609 0.2111 0.5843
C32_2 C 0.18453(13) 0.21373(12) 0.55694(13)
H13_2 H 0.1783 0.2287 0.5510
C33_2 C 0.20285(9) 0.20285(9) 0.54521(14)
C34_2 C 0.21388(12) 0.21388(12) 0.52171(15)
C35_2 C 0.23157(11) 0.23157(11) 0.52361(11)
C36_2 C 0.24131(6) 0.24131(6) 0.54514(11)
H14_2 H 0.2354 0.2354 0.5603
O6_2 O 0.18188(5) 0.15380(6) 0.61843(6)
C37_2 C 0.29609(12) 0.32524(13) 0.57695(14)
H15_2 H 0.2889 0.3391 0.5843
C38_2 C 0.28627(12) 0.31547(13) 0.55694(13)
H16_2 H 0.2713 0.3217 0.5510
O7_2 O 0.34620(6) 0.31812(5) 0.61843(6)
C39_2 C 0.32524(13) 0.29609(12) 0.42305(14)
H17_2 H 0.3391 0.2889 0.4157
C40_2 C 0.31547(13) 0.28627(12) 0.44306(13)
H18_2 H 0.3217 0.2713 0.4490
O8_2 O 0.31812(5) 0.34620(6) 0.38157(6)
C41_2 C 0.20391(12) 0.17476(13) 0.57695(14)
H19_2 H 0.2111 0.1609 0.5843
C42_2 C 0.21373(12) 0.18453(13) 0.55694(13)
H20_2 H 0.2287 0.1783 0.5510
O9_2 O 0.15380(6) 0.18188(5) 0.61843(6)
C43_2 C 0.17476(13) 0.20391(12) 0.42305(14)
H21_2 H 0.1609 0.2111 0.4157
C44_2 C 0.18453(13) 0.21373(12) 0.44306(13)
H22_2 H 0.1783 0.2287 0.4490
O10_2 O 0.18188(5) 0.15380(6) 0.38157(6)
C45_2 C 0.39058(17) 0.32764(11) 0.32764(11)
C46_2 C 0.41359(13) 0.31565(9) 0.31565(9)
C47_2 C 0.42305(14) 0.29609(12) 0.32524(13)
H23_2 H 0.4157 0.2889 0.3391
C48_2 C 0.44306(13) 0.28627(12) 0.31547(13)
H24_2 H 0.4490 0.2713 0.3217
C49_2 C 0.45479(14) 0.29715(9) 0.29715(9)
C50_2 C 0.47829(15) 0.28612(12) 0.28612(12)
C51_2 C 0.5000 0.29450(12) 0.29450(12)
H25_2 H 0.5000 0.3067 0.3067
C52_2 C 0.47639(11) 0.26843(11) 0.26843(11)
C53_2 C 0.45486(11) 0.25869(6) 0.25869(6)
H26_2 H 0.4397 0.2646 0.2646
C54_2 C 0.5000 0.25926(10) 0.25926(10)
O11_2 O 0.38157(6) 0.34620(6) 0.31812(5)
C55_2 C 0.60942(17) 0.32764(11) 0.32764(11)
C56_2 C 0.58641(13) 0.31565(9) 0.31565(9)
C57_2 C 0.57695(14) 0.32524(13) 0.29609(12)
H27_2 H 0.5843 0.3391 0.2889
C58_2 C 0.55694(13) 0.31547(13) 0.28627(12)
H28_2 H 0.5510 0.3217 0.2713
C59_2 C 0.54521(14) 0.29715(9) 0.29715(9)
C60_2 C 0.52171(15) 0.28612(12) 0.28612(12)
C61_2 C 0.52361(11) 0.26843(11) 0.26843(11)
C62_2 C 0.54514(11) 0.25869(6) 0.25869(6)
H29_2 H 0.5603 0.2646 0.2646
C63_2 C 0.39058(17) 0.17236(11) 0.17236(11)
C64_2 C 0.41359(13) 0.18435(9) 0.18435(9)
C65_2 C 0.42305(14) 0.20391(12) 0.17476(13)
H30_2 H 0.4157 0.2111 0.1609
C66_2 C 0.44306(13) 0.21373(12) 0.18453(13)
H31_2 H 0.4490 0.2287 0.1783
C67_2 C 0.45479(14) 0.20285(9) 0.20285(9)
C68_2 C 0.47829(15) 0.21388(12) 0.21388(12)
C69_2 C 0.5000 0.20550(12) 0.20550(12)
H32_2 H 0.5000 0.1933 0.1933
C70_2 C 0.47639(11) 0.23157(11) 0.23157(11)
C71_2 C 0.45486(11) 0.24131(6) 0.24131(6)
H33_2 H 0.4397 0.2354 0.2354
C72_2 C 0.5000 0.24074(10) 0.24074(10)
O13_2 O 0.38157(6) 0.15380(6) 0.18188(5)
C73_2 C 0.60942(17) 0.17236(11) 0.17236(11)
C74_2 C 0.58641(13) 0.18435(9) 0.18435(9)
C75_2 C 0.57695(14) 0.17476(13) 0.20391(12)
H34_2 H 0.5843 0.1609 0.2111
C76_2 C 0.55694(13) 0.18453(13) 0.21373(12)
H35_2 H 0.5510 0.1783 0.2287
C77_2 C 0.54521(14) 0.20285(9) 0.20285(9)
C78_2 C 0.52171(15) 0.21388(12) 0.21388(12)
C79_2 C 0.52361(11) 0.23157(11) 0.23157(11)
C80_2 C 0.54514(11) 0.24131(6) 0.24131(6)
H36_2 H 0.5603 0.2354 0.2354
O14_2 O 0.61843(6) 0.18188(5) 0.15380(6)
C81_2 C 0.57695(14) 0.29609(12) 0.32524(13)
H37_2 H 0.5843 0.2889 0.3391
C82_2 C 0.55694(13) 0.28627(12) 0.31547(13)
H38_2 H 0.5510 0.2713 0.3217
C83_2 C 0.42305(14) 0.32524(13) 0.29609(12)
H39_2 H 0.4157 0.3391 0.2889
C84_2 C 0.44306(13) 0.31547(13) 0.28627(12)
H40_2 H 0.4490 0.3217 0.2713
O16_2 O 0.38157(6) 0.31812(5) 0.34620(6)
C85_2 C 0.57695(14) 0.20391(12) 0.17476(13)
H41_2 H 0.5843 0.2111 0.1609
C86_2 C 0.55694(13) 0.21373(12) 0.18453(13)
H42_2 H 0.5510 0.2287 0.1783
O17_2 O 0.61843(6) 0.15380(6) 0.18188(5)
C87_2 C 0.42305(14) 0.17476(13) 0.20391(12)
H43_2 H 0.4157 0.1609 0.2111
C88_2 C 0.44306(13) 0.18453(13) 0.21373(12)
H44_2 H 0.4490 0.1783 0.2287
O18_2 O 0.38157(6) 0.18188(5) 0.15380(6)
C89_2 C 0.32764(11) 0.39058(17) 0.32764(11)
C90_2 C 0.31565(9) 0.41359(13) 0.31565(9)
C91_2 C 0.32524(13) 0.42305(14) 0.29609(12)
H45_2 H 0.3391 0.4157 0.2889
C92_2 C 0.31547(13) 0.44306(13) 0.28627(12)
H46_2 H 0.3217 0.4490 0.2713
C93_2 C 0.29715(9) 0.45479(14) 0.29715(9)
C94_2 C 0.28612(12) 0.47829(15) 0.28612(12)
C95_2 C 0.29450(12) 0.5000 0.29450(12)
H47_2 H 0.3067 0.5000 0.3067
C96_2 C 0.26843(11) 0.47639(11) 0.26843(11)
C97_2 C 0.25869(6) 0.45486(11) 0.25869(6)
H48_2 H 0.2646 0.4397 0.2646
C98_2 C 0.25926(10) 0.5000 0.25926(10)
O19_2 O 0.31812(5) 0.38157(6) 0.34620(6)
C99_2 C 0.32764(11) 0.60942(17) 0.32764(11)
C100_2 C 0.31565(9) 0.58641(13) 0.31565(9)
C101_2 C 0.29609(12) 0.57695(14) 0.32524(13)
H49_2 H 0.2889 0.5843 0.3391
C102_2 C 0.28627(12) 0.55694(13) 0.31547(13)
H50_2 H 0.2713 0.5510 0.3217
C103_2 C 0.29715(9) 0.54521(14) 0.29715(9)
C104_2 C 0.28612(12) 0.52171(15) 0.28612(12)
C105_2 C 0.26843(11) 0.52361(11) 0.26843(11)
C106_2 C 0.25869(6) 0.54514(11) 0.25869(6)
H51_2 H 0.2646 0.5603 0.2646
C107_2 C 0.17236(11) 0.39058(17) 0.17236(11)
C108_2 C 0.18435(9) 0.41359(13) 0.18435(9)
C109_2 C 0.17476(13) 0.42305(14) 0.20391(12)
H52_2 H 0.1609 0.4157 0.2111
C110_2 C 0.18453(13) 0.44306(13) 0.21373(12)
H53_2 H 0.1783 0.4490 0.2287
C111_2 C 0.20285(9) 0.45479(14) 0.20285(9)
C112_2 C 0.21388(12) 0.47829(15) 0.21388(12)
C113_2 C 0.20550(12) 0.5000 0.20550(12)
H54_2 H 0.1933 0.5000 0.1933
C114_2 C 0.23157(11) 0.47639(11) 0.23157(11)
C115_2 C 0.24131(6) 0.45486(11) 0.24131(6)
H55_2 H 0.2354 0.4397 0.2354
C116_2 C 0.24074(10) 0.5000 0.24074(10)
O21_2 O 0.18188(5) 0.38157(6) 0.15380(6)
C117_2 C 0.17236(11) 0.60942(17) 0.17236(11)
C118_2 C 0.18435(9) 0.58641(13) 0.18435(9)
C119_2 C 0.20391(12) 0.57695(14) 0.17476(13)
H56_2 H 0.2111 0.5843 0.1609
C120_2 C 0.21373(12) 0.55694(13) 0.18453(13)
H57_2 H 0.2287 0.5510 0.1783
C121_2 C 0.20285(9) 0.54521(14) 0.20285(9)
C122_2 C 0.21388(12) 0.52171(15) 0.21388(12)
C123_2 C 0.23157(11) 0.52361(11) 0.23157(11)
C124_2 C 0.24131(6) 0.54514(11) 0.24131(6)
H58_2 H 0.2354 0.5603 0.2354
O22_2 O 0.15380(6) 0.61843(6) 0.18188(5)
C125_2 C 0.32524(13) 0.57695(14) 0.29609(12)
H59_2 H 0.3391 0.5843 0.2889
C126_2 C 0.31547(13) 0.55694(13) 0.28627(12)
H60_2 H 0.3217 0.5510 0.2713
C127_2 C 0.29609(12) 0.42305(14) 0.32524(13)
H61_2 H 0.2889 0.4157 0.3391
C128_2 C 0.28627(12) 0.44306(13) 0.31547(13)
H62_2 H 0.2713 0.4490 0.3217
O24_2 O 0.34620(6) 0.38157(6) 0.31812(5)
C129_2 C 0.17476(13) 0.57695(14) 0.20391(12)
H63_2 H 0.1609 0.5843 0.2111
C130_2 C 0.18453(13) 0.55694(13) 0.21373(12)
H64_2 H 0.1783 0.5510 0.2287
O25_2 O 0.18188(5) 0.61843(6) 0.15380(6)
C131_2 C 0.20391(12) 0.42305(14) 0.17476(13)
H65_2 H 0.2111 0.4157 0.1609
C132_2 C 0.21373(12) 0.44306(13) 0.18453(13)
H66_2 H 0.2287 0.4490 0.1783
O26_2 O 0.15380(6) 0.38157(6) 0.18188(5)
O27_2 O 0.36617(11) 0.36617(11) 0.63383(11)
O28_2 O 0.33080(10) 0.33080(10) 0.66920(10)
U2_2 U 0.34850(2) 0.34850(2) 0.65150(2)
O36_2 O 0.34620(6) 0.38157(6) 0.68188(5)
O37_2 O 0.38157(6) 0.31812(5) 0.65380(6)
O42_2 O 0.38157(6) 0.34620(6) 0.68188(5)
O44_2 O 0.31812(5) 0.38157(6) 0.65380(6)
U5_2 U 0.34850(2) 0.15150(2) 0.15150(2)
U6_2 U 0.65150(2) 0.15150(2) 0.15150(2)
U7_2 U 0.15150(2) 0.34850(2) 0.15150(2)
U8_2 U 0.15150(2) 0.65150(2) 0.15150(2)
U9_2 U 0.15150(2) 0.15150(2) 0.34850(2)
U10_2 U 0.15150(2) 0.15150(2) 0.65150(2)
C1_3 C 0.32764(11) 0.67236(11) 0.60942(17)
C2_3 C 0.31565(9) 0.68435(9) 0.58641(13)
C3_3 C 0.29609(12) 0.67476(13) 0.57695(14)
H1_3 H 0.2889 0.6609 0.5843
C4_3 C 0.28627(12) 0.68453(13) 0.55694(13)
H2_3 H 0.2713 0.6783 0.5510
C5_3 C 0.29715(9) 0.70285(9) 0.54521(14)
C6_3 C 0.28612(12) 0.71388(12) 0.52171(15)
C7_3 C 0.29450(12) 0.70550(12) 0.5000
H3_3 H 0.3067 0.6933 0.5000
C8_3 C 0.26843(11) 0.73157(11) 0.52361(11)
C9_3 C 0.25869(6) 0.74131(6) 0.54514(11)
H4_3 H 0.2646 0.7354 0.5603
C10_3 C 0.25926(10) 0.74074(10) 0.5000
O1_3 O 0.34620(6) 0.68188(5) 0.61843(6)
O2_3 O 0.36617(11) 0.63383(11) 0.63383(11)
O3_3 O 0.33080(10) 0.66920(10) 0.66920(10)
U1_3 U 0.34850(2) 0.65150(2) 0.65150(2)
C11_3 C 0.32764(11) 0.67236(11) 0.39058(17)
C12_3 C 0.31565(9) 0.68435(9) 0.41359(13)
C13_3 C 0.32524(13) 0.70391(12) 0.42305(14)
H5_3 H 0.3391 0.7111 0.4157
C14_3 C 0.31547(13) 0.71373(12) 0.44306(13)
H6_3 H 0.3217 0.7287 0.4490
C15_3 C 0.29715(9) 0.70285(9) 0.45479(14)
C16_3 C 0.28612(12) 0.71388(12) 0.47829(15)
C17_3 C 0.26843(11) 0.73157(11) 0.47639(11)
C18_3 C 0.25869(6) 0.74131(6) 0.45486(11)
H7_3 H 0.2646 0.7354 0.4397
C19_3 C 0.17236(11) 0.82764(11) 0.60942(17)
C20_3 C 0.18435(9) 0.81565(9) 0.58641(13)
C21_3 C 0.20391(12) 0.82524(13) 0.57695(14)
H8_3 H 0.2111 0.8391 0.5843
C22_3 C 0.21373(12) 0.81547(13) 0.55694(13)
H9_3 H 0.2287 0.8217 0.5510
C23_3 C 0.20285(9) 0.79715(9) 0.54521(14)
C24_3 C 0.21388(12) 0.78612(12) 0.52171(15)
C25_3 C 0.20550(12) 0.79450(12) 0.5000
H10_3 H 0.1933 0.8067 0.5000
C26_3 C 0.23157(11) 0.76843(11) 0.52361(11)
C27_3 C 0.24131(6) 0.75869(6) 0.54514(11)
H11_3 H 0.2354 0.7646 0.5603
C28_3 C 0.24074(10) 0.75926(10) 0.5000
O5_3 O 0.15380(6) 0.81812(5) 0.61843(6)
C29_3 C 0.17236(11) 0.82764(11) 0.39058(17)
C30_3 C 0.18435(9) 0.81565(9) 0.41359(13)
C31_3 C 0.17476(13) 0.79609(12) 0.42305(14)
H12_3 H 0.1609 0.7889 0.4157
C32_3 C 0.18453(13) 0.78627(12) 0.44306(13)
H13_3 H 0.1783 0.7713 0.4490
C33_3 C 0.20285(9) 0.79715(9) 0.45479(14)
C34_3 C 0.21388(12) 0.78612(12) 0.47829(15)
C35_3 C 0.23157(11) 0.76843(11) 0.47639(11)
C36_3 C 0.24131(6) 0.75869(6) 0.45486(11)
H14_3 H 0.2354 0.7646 0.4397
O6_3 O 0.18188(5) 0.84620(6) 0.38157(6)
C37_3 C 0.29609(12) 0.67476(13) 0.42305(14)
H15_3 H 0.2889 0.6609 0.4157
C38_3 C 0.28627(12) 0.68453(13) 0.44306(13)
H16_3 H 0.2713 0.6783 0.4490
C39_3 C 0.32524(13) 0.70391(12) 0.57695(14)
H17_3 H 0.3391 0.7111 0.5843
C40_3 C 0.31547(13) 0.71373(12) 0.55694(13)
H18_3 H 0.3217 0.7287 0.5510
O8_3 O 0.31812(5) 0.65380(6) 0.61843(6)
C41_3 C 0.20391(12) 0.82524(13) 0.42305(14)
H19_3 H 0.2111 0.8391 0.4157
C42_3 C 0.21373(12) 0.81547(13) 0.44306(13)
H20_3 H 0.2287 0.8217 0.4490
O9_3 O 0.15380(6) 0.81812(5) 0.38157(6)
C43_3 C 0.17476(13) 0.79609(12) 0.57695(14)
H21_3 H 0.1609 0.7889 0.5843
C44_3 C 0.18453(13) 0.78627(12) 0.55694(13)
H22_3 H 0.1783 0.7713 0.5510
O10_3 O 0.18188(5) 0.84620(6) 0.61843(6)
C45_3 C 0.39058(17) 0.67236(11) 0.67236(11)
C46_3 C 0.41359(13) 0.68435(9) 0.68435(9)
C47_3 C 0.42305(14) 0.70391(12) 0.67476(13)
H23_3 H 0.4157 0.7111 0.6609
C48_3 C 0.44306(13) 0.71373(12) 0.68453(13)
H24_3 H 0.4490 0.7287 0.6783
C49_3 C 0.45479(14) 0.70285(9) 0.70285(9)
C50_3 C 0.47829(15) 0.71388(12) 0.71388(12)
C51_3 C 0.5000 0.70550(12) 0.70550(12)
H25_3 H 0.5000 0.6933 0.6933
C52_3 C 0.47639(11) 0.73157(11) 0.73157(11)
C53_3 C 0.45486(11) 0.74131(6) 0.74131(6)
H26_3 H 0.4397 0.7354 0.7354
C54_3 C 0.5000 0.74074(10) 0.74074(10)
O11_3 O 0.38157(6) 0.65380(6) 0.68188(5)
C55_3 C 0.60942(17) 0.67236(11) 0.67236(11)
C56_3 C 0.58641(13) 0.68435(9) 0.68435(9)
C57_3 C 0.57695(14) 0.67476(13) 0.70391(12)
H27_3 H 0.5843 0.6609 0.7111
C58_3 C 0.55694(13) 0.68453(13) 0.71373(12)
H28_3 H 0.5510 0.6783 0.7287
C59_3 C 0.54521(14) 0.70285(9) 0.70285(9)
C60_3 C 0.52171(15) 0.71388(12) 0.71388(12)
C61_3 C 0.52361(11) 0.73157(11) 0.73157(11)
C62_3 C 0.54514(11) 0.74131(6) 0.74131(6)
H29_3 H 0.5603 0.7354 0.7354
C63_3 C 0.39058(17) 0.82764(11) 0.82764(11)
C64_3 C 0.41359(13) 0.81565(9) 0.81565(9)
C65_3 C 0.42305(14) 0.79609(12) 0.82524(13)
H30_3 H 0.4157 0.7889 0.8391
C66_3 C 0.44306(13) 0.78627(12) 0.81547(13)
H31_3 H 0.4490 0.7713 0.8217
C67_3 C 0.45479(14) 0.79715(9) 0.79715(9)
C68_3 C 0.47829(15) 0.78612(12) 0.78612(12)
C69_3 C 0.5000 0.79450(12) 0.79450(12)
H32_3 H 0.5000 0.8067 0.8067
C70_3 C 0.47639(11) 0.76843(11) 0.76843(11)
C71_3 C 0.45486(11) 0.75869(6) 0.75869(6)
H33_3 H 0.4397 0.7646 0.7646
C72_3 C 0.5000 0.75926(10) 0.75926(10)
O13_3 O 0.38157(6) 0.84620(6) 0.81812(5)
C73_3 C 0.60942(17) 0.82764(11) 0.82764(11)
C74_3 C 0.58641(13) 0.81565(9) 0.81565(9)
C75_3 C 0.57695(14) 0.82524(13) 0.79609(12)
H34_3 H 0.5843 0.8391 0.7889
C76_3 C 0.55694(13) 0.81547(13) 0.78627(12)
H35_3 H 0.5510 0.8217 0.7713
C77_3 C 0.54521(14) 0.79715(9) 0.79715(9)
C78_3 C 0.52171(15) 0.78612(12) 0.78612(12)
C79_3 C 0.52361(11) 0.76843(11) 0.76843(11)
C80_3 C 0.54514(11) 0.75869(6) 0.75869(6)
H36_3 H 0.5603 0.7646 0.7646
O14_3 O 0.61843(6) 0.81812(5) 0.84620(6)
C81_3 C 0.57695(14) 0.70391(12) 0.67476(13)
H37_3 H 0.5843 0.7111 0.6609
C82_3 C 0.55694(13) 0.71373(12) 0.68453(13)
H38_3 H 0.5510 0.7287 0.6783
C83_3 C 0.42305(14) 0.67476(13) 0.70391(12)
H39_3 H 0.4157 0.6609 0.7111
C84_3 C 0.44306(13) 0.68453(13) 0.71373(12)
H40_3 H 0.4490 0.6783 0.7287
O16_3 O 0.38157(6) 0.68188(5) 0.65380(6)
C85_3 C 0.57695(14) 0.79609(12) 0.82524(13)
H41_3 H 0.5843 0.7889 0.8391
C86_3 C 0.55694(13) 0.78627(12) 0.81547(13)
H42_3 H 0.5510 0.7713 0.8217
O17_3 O 0.61843(6) 0.84620(6) 0.81812(5)
C87_3 C 0.42305(14) 0.82524(13) 0.79609(12)
H43_3 H 0.4157 0.8391 0.7889
C88_3 C 0.44306(13) 0.81547(13) 0.78627(12)
H44_3 H 0.4490 0.8217 0.7713
O18_3 O 0.38157(6) 0.81812(5) 0.84620(6)
C89_3 C 0.32764(11) 0.60942(17) 0.67236(11)
C90_3 C 0.31565(9) 0.58641(13) 0.68435(9)
C91_3 C 0.32524(13) 0.57695(14) 0.70391(12)
H45_3 H 0.3391 0.5843 0.7111
C92_3 C 0.31547(13) 0.55694(13) 0.71373(12)
H46_3 H 0.3217 0.5510 0.7287
C93_3 C 0.29715(9) 0.54521(14) 0.70285(9)
C94_3 C 0.28612(12) 0.52171(15) 0.71388(12)
C95_3 C 0.29450(12) 0.5000 0.70550(12)
H47_3 H 0.3067 0.5000 0.6933
C96_3 C 0.26843(11) 0.52361(11) 0.73157(11)
C97_3 C 0.25869(6) 0.54514(11) 0.74131(6)
H48_3 H 0.2646 0.5603 0.7354
C98_3 C 0.25926(10) 0.5000 0.74074(10)
O19_3 O 0.31812(5) 0.61843(6) 0.65380(6)
C99_3 C 0.32764(11) 0.39058(17) 0.67236(11)
C100_3 C 0.31565(9) 0.41359(13) 0.68435(9)
C101_3 C 0.29609(12) 0.42305(14) 0.67476(13)
H49_3 H 0.2889 0.4157 0.6609
C102_3 C 0.28627(12) 0.44306(13) 0.68453(13)
H50_3 H 0.2713 0.4490 0.6783
C103_3 C 0.29715(9) 0.45479(14) 0.70285(9)
C104_3 C 0.28612(12) 0.47829(15) 0.71388(12)
C105_3 C 0.26843(11) 0.47639(11) 0.73157(11)
C106_3 C 0.25869(6) 0.45486(11) 0.74131(6)
H51_3 H 0.2646 0.4397 0.7354
C107_3 C 0.17236(11) 0.60942(17) 0.82764(11)
C108_3 C 0.18435(9) 0.58641(13) 0.81565(9)
C109_3 C 0.17476(13) 0.57695(14) 0.79609(12)
H52_3 H 0.1609 0.5843 0.7889
C110_3 C 0.18453(13) 0.55694(13) 0.78627(12)
H53_3 H 0.1783 0.5510 0.7713
C111_3 C 0.20285(9) 0.54521(14) 0.79715(9)
C112_3 C 0.21388(12) 0.52171(15) 0.78612(12)
C113_3 C 0.20550(12) 0.5000 0.79450(12)
H54_3 H 0.1933 0.5000 0.8067
C114_3 C 0.23157(11) 0.52361(11) 0.76843(11)
C115_3 C 0.24131(6) 0.54514(11) 0.75869(6)
H55_3 H 0.2354 0.5603 0.7646
C116_3 C 0.24074(10) 0.5000 0.75926(10)
O21_3 O 0.18188(5) 0.61843(6) 0.84620(6)
C117_3 C 0.17236(11) 0.39058(17) 0.82764(11)
C118_3 C 0.18435(9) 0.41359(13) 0.81565(9)
C119_3 C 0.20391(12) 0.42305(14) 0.82524(13)
H56_3 H 0.2111 0.4157 0.8391
C120_3 C 0.21373(12) 0.44306(13) 0.81547(13)
H57_3 H 0.2287 0.4490 0.8217
C121_3 C 0.20285(9) 0.45479(14) 0.79715(9)
C122_3 C 0.21388(12) 0.47829(15) 0.78612(12)
C123_3 C 0.23157(11) 0.47639(11) 0.76843(11)
C124_3 C 0.24131(6) 0.45486(11) 0.75869(6)
H58_3 H 0.2354 0.4397 0.7646
O22_3 O 0.15380(6) 0.38157(6) 0.81812(5)
C125_3 C 0.32524(13) 0.42305(14) 0.70391(12)
H59_3 H 0.3391 0.4157 0.7111
C126_3 C 0.31547(13) 0.44306(13) 0.71373(12)
H60_3 H 0.3217 0.4490 0.7287
C127_3 C 0.29609(12) 0.57695(14) 0.67476(13)
H61_3 H 0.2889 0.5843 0.6609
C128_3 C 0.28627(12) 0.55694(13) 0.68453(13)
H62_3 H 0.2713 0.5510 0.6783
O24_3 O 0.34620(6) 0.61843(6) 0.68188(5)
C129_3 C 0.17476(13) 0.42305(14) 0.79609(12)
H63_3 H 0.1609 0.4157 0.7889
C130_3 C 0.18453(13) 0.44306(13) 0.78627(12)
H64_3 H 0.1783 0.4490 0.7713
O25_3 O 0.18188(5) 0.38157(6) 0.84620(6)
C131_3 C 0.20391(12) 0.57695(14) 0.82524(13)
H65_3 H 0.2111 0.5843 0.8391
C132_3 C 0.21373(12) 0.55694(13) 0.81547(13)
H66_3 H 0.2287 0.5510 0.8217
O26_3 O 0.15380(6) 0.61843(6) 0.81812(5)
U5_3 U 0.34850(2) 0.84850(2) 0.84850(2)
U6_3 U 0.65150(2) 0.84850(2) 0.84850(2)
U7_3 U 0.15150(2) 0.65150(2) 0.84850(2)
U8_3 U 0.15150(2) 0.34850(2) 0.84850(2)
U9_3 U 0.15150(2) 0.84850(2) 0.65150(2)
U10_3 U 0.15150(2) 0.84850(2) 0.34850(2)
C1_4 C 0.67236(11) 0.32764(11) 0.60942(17)
C2_4 C 0.68435(9) 0.31565(9) 0.58641(13)
C3_4 C 0.70391(12) 0.32524(13) 0.57695(14)
H1_4 H 0.7111 0.3391 0.5843
C4_4 C 0.71373(12) 0.31547(13) 0.55694(13)
H2_4 H 0.7287 0.3217 0.5510
C5_4 C 0.70285(9) 0.29715(9) 0.54521(14)
C6_4 C 0.71388(12) 0.28612(12) 0.52171(15)
C7_4 C 0.70550(12) 0.29450(12) 0.5000
H3_4 H 0.6933 0.3067 0.5000
C8_4 C 0.73157(11) 0.26843(11) 0.52361(11)
C9_4 C 0.74131(6) 0.25869(6) 0.54514(11)
H4_4 H 0.7354 0.2646 0.5603
C10_4 C 0.74074(10) 0.25926(10) 0.5000
O1_4 O 0.65380(6) 0.31812(5) 0.61843(6)
O2_4 O 0.63383(11) 0.36617(11) 0.63383(11)
O3_4 O 0.66920(10) 0.33080(10) 0.66920(10)
U1_4 U 0.65150(2) 0.34850(2) 0.65150(2)
C11_4 C 0.67236(11) 0.32764(11) 0.39058(17)
C12_4 C 0.68435(9) 0.31565(9) 0.41359(13)
C13_4 C 0.67476(13) 0.29609(12) 0.42305(14)
H5_4 H 0.6609 0.2889 0.4157
C14_4 C 0.68453(13) 0.28627(12) 0.44306(13)
H6_4 H 0.6783 0.2713 0.4490
C15_4 C 0.70285(9) 0.29715(9) 0.45479(14)
C16_4 C 0.71388(12) 0.28612(12) 0.47829(15)
C17_4 C 0.73157(11) 0.26843(11) 0.47639(11)
C18_4 C 0.74131(6) 0.25869(6) 0.45486(11)
H7_4 H 0.7354 0.2646 0.4397
C19_4 C 0.82764(11) 0.17236(11) 0.60942(17)
C20_4 C 0.81565(9) 0.18435(9) 0.58641(13)
C21_4 C 0.79609(12) 0.17476(13) 0.57695(14)
H8_4 H 0.7889 0.1609 0.5843
C22_4 C 0.78627(12) 0.18453(13) 0.55694(13)
H9_4 H 0.7713 0.1783 0.5510
C23_4 C 0.79715(9) 0.20285(9) 0.54521(14)
C24_4 C 0.78612(12) 0.21388(12) 0.52171(15)
C25_4 C 0.79450(12) 0.20550(12) 0.5000
H10_4 H 0.8067 0.1933 0.5000
C26_4 C 0.76843(11) 0.23157(11) 0.52361(11)
C27_4 C 0.75869(6) 0.24131(6) 0.54514(11)
H11_4 H 0.7646 0.2354 0.5603
C28_4 C 0.75926(10) 0.24074(10) 0.5000
O5_4 O 0.84620(6) 0.18188(5) 0.61843(6)
C29_4 C 0.82764(11) 0.17236(11) 0.39058(17)
C30_4 C 0.81565(9) 0.18435(9) 0.41359(13)
C31_4 C 0.82524(13) 0.20391(12) 0.42305(14)
H12_4 H 0.8391 0.2111 0.4157
C32_4 C 0.81547(13) 0.21373(12) 0.44306(13)
H13_4 H 0.8217 0.2287 0.4490
C33_4 C 0.79715(9) 0.20285(9) 0.45479(14)
C34_4 C 0.78612(12) 0.21388(12) 0.47829(15)
C35_4 C 0.76843(11) 0.23157(11) 0.47639(11)
C36_4 C 0.75869(6) 0.24131(6) 0.45486(11)
H14_4 H 0.7646 0.2354 0.4397
O6_4 O 0.81812(5) 0.15380(6) 0.38157(6)
C37_4 C 0.70391(12) 0.32524(13) 0.42305(14)
H15_4 H 0.7111 0.3391 0.4157
C38_4 C 0.71373(12) 0.31547(13) 0.44306(13)
H16_4 H 0.7287 0.3217 0.4490
C39_4 C 0.67476(13) 0.29609(12) 0.57695(14)
H17_4 H 0.6609 0.2889 0.5843
C40_4 C 0.68453(13) 0.28627(12) 0.55694(13)
H18_4 H 0.6783 0.2713 0.5510
O8_4 O 0.68188(5) 0.34620(6) 0.61843(6)
C41_4 C 0.79609(12) 0.17476(13) 0.42305(14)
H19_4 H 0.7889 0.1609 0.4157
C42_4 C 0.78627(12) 0.18453(13) 0.44306(13)
H20_4 H 0.7713 0.1783 0.4490
O9_4 O 0.84620(6) 0.18188(5) 0.38157(6)
C43_4 C 0.82524(13) 0.20391(12) 0.57695(14)
H21_4 H 0.8391 0.2111 0.5843
C44_4 C 0.81547(13) 0.21373(12) 0.55694(13)
H22_4 H 0.8217 0.2287 0.5510
O10_4 O 0.81812(5) 0.15380(6) 0.61843(6)
C45_4 C 0.60942(17) 0.32764(11) 0.67236(11)
C46_4 C 0.58641(13) 0.31565(9) 0.68435(9)
C47_4 C 0.57695(14) 0.29609(12) 0.67476(13)
H23_4 H 0.5843 0.2889 0.6609
C48_4 C 0.55694(13) 0.28627(12) 0.68453(13)
H24_4 H 0.5510 0.2713 0.6783
C49_4 C 0.54521(14) 0.29715(9) 0.70285(9)
C50_4 C 0.52171(15) 0.28612(12) 0.71388(12)
C51_4 C 0.5000 0.29450(12) 0.70550(12)
H25_4 H 0.5000 0.3067 0.6933
C52_4 C 0.52361(11) 0.26843(11) 0.73157(11)
C53_4 C 0.54514(11) 0.25869(6) 0.74131(6)
H26_4 H 0.5603 0.2646 0.7354
C54_4 C 0.5000 0.25926(10) 0.74074(10)
O11_4 O 0.61843(6) 0.34620(6) 0.68188(5)
C55_4 C 0.39058(17) 0.32764(11) 0.67236(11)
C56_4 C 0.41359(13) 0.31565(9) 0.68435(9)
C57_4 C 0.42305(14) 0.32524(13) 0.70391(12)
H27_4 H 0.4157 0.3391 0.7111
C58_4 C 0.44306(13) 0.31547(13) 0.71373(12)
H28_4 H 0.4490 0.3217 0.7287
C59_4 C 0.45479(14) 0.29715(9) 0.70285(9)
C60_4 C 0.47829(15) 0.28612(12) 0.71388(12)
C61_4 C 0.47639(11) 0.26843(11) 0.73157(11)
C62_4 C 0.45486(11) 0.25869(6) 0.74131(6)
H29_4 H 0.4397 0.2646 0.7354
C63_4 C 0.60942(17) 0.17236(11) 0.82764(11)
C64_4 C 0.58641(13) 0.18435(9) 0.81565(9)
C65_4 C 0.57695(14) 0.20391(12) 0.82524(13)
H30_4 H 0.5843 0.2111 0.8391
C66_4 C 0.55694(13) 0.21373(12) 0.81547(13)
H31_4 H 0.5510 0.2287 0.8217
C67_4 C 0.54521(14) 0.20285(9) 0.79715(9)
C68_4 C 0.52171(15) 0.21388(12) 0.78612(12)
C69_4 C 0.5000 0.20550(12) 0.79450(12)
H32_4 H 0.5000 0.1933 0.8067
C70_4 C 0.52361(11) 0.23157(11) 0.76843(11)
C71_4 C 0.54514(11) 0.24131(6) 0.75869(6)
H33_4 H 0.5603 0.2354 0.7646
C72_4 C 0.5000 0.24074(10) 0.75926(10)
O13_4 O 0.61843(6) 0.15380(6) 0.81812(5)
C73_4 C 0.39058(17) 0.17236(11) 0.82764(11)
C74_4 C 0.41359(13) 0.18435(9) 0.81565(9)
C75_4 C 0.42305(14) 0.17476(13) 0.79609(12)
H34_4 H 0.4157 0.1609 0.7889
C76_4 C 0.44306(13) 0.18453(13) 0.78627(12)
H35_4 H 0.4490 0.1783 0.7713
C77_4 C 0.45479(14) 0.20285(9) 0.79715(9)
C78_4 C 0.47829(15) 0.21388(12) 0.78612(12)
C79_4 C 0.47639(11) 0.23157(11) 0.76843(11)
C80_4 C 0.45486(11) 0.24131(6) 0.75869(6)
H36_4 H 0.4397 0.2354 0.7646
O14_4 O 0.38157(6) 0.18188(5) 0.84620(6)
C81_4 C 0.42305(14) 0.29609(12) 0.67476(13)
H37_4 H 0.4157 0.2889 0.6609
C82_4 C 0.44306(13) 0.28627(12) 0.68453(13)
H38_4 H 0.4490 0.2713 0.6783
C83_4 C 0.57695(14) 0.32524(13) 0.70391(12)
H39_4 H 0.5843 0.3391 0.7111
C84_4 C 0.55694(13) 0.31547(13) 0.71373(12)
H40_4 H 0.5510 0.3217 0.7287
O16_4 O 0.61843(6) 0.31812(5) 0.65380(6)
C85_4 C 0.42305(14) 0.20391(12) 0.82524(13)
H41_4 H 0.4157 0.2111 0.8391
C86_4 C 0.44306(13) 0.21373(12) 0.81547(13)
H42_4 H 0.4490 0.2287 0.8217
O17_4 O 0.38157(6) 0.15380(6) 0.81812(5)
C87_4 C 0.57695(14) 0.17476(13) 0.79609(12)
H43_4 H 0.5843 0.1609 0.7889
C88_4 C 0.55694(13) 0.18453(13) 0.78627(12)
H44_4 H 0.5510 0.1783 0.7713
O18_4 O 0.61843(6) 0.18188(5) 0.84620(6)
C89_4 C 0.67236(11) 0.39058(17) 0.67236(11)
C90_4 C 0.68435(9) 0.41359(13) 0.68435(9)
C91_4 C 0.67476(13) 0.42305(14) 0.70391(12)
H45_4 H 0.6609 0.4157 0.7111
C92_4 C 0.68453(13) 0.44306(13) 0.71373(12)
H46_4 H 0.6783 0.4490 0.7287
C93_4 C 0.70285(9) 0.45479(14) 0.70285(9)
C94_4 C 0.71388(12) 0.47829(15) 0.71388(12)
C95_4 C 0.70550(12) 0.5000 0.70550(12)
H47_4 H 0.6933 0.5000 0.6933
C96_4 C 0.73157(11) 0.47639(11) 0.73157(11)
C97_4 C 0.74131(6) 0.45486(11) 0.74131(6)
H48_4 H 0.7354 0.4397 0.7354
C98_4 C 0.74074(10) 0.5000 0.74074(10)
O19_4 O 0.68188(5) 0.38157(6) 0.65380(6)
C99_4 C 0.67236(11) 0.60942(17) 0.67236(11)
C100_4 C 0.68435(9) 0.58641(13) 0.68435(9)
C101_4 C 0.70391(12) 0.57695(14) 0.67476(13)
H49_4 H 0.7111 0.5843 0.6609
C102_4 C 0.71373(12) 0.55694(13) 0.68453(13)
H50_4 H 0.7287 0.5510 0.6783
C103_4 C 0.70285(9) 0.54521(14) 0.70285(9)
C104_4 C 0.71388(12) 0.52171(15) 0.71388(12)
C105_4 C 0.73157(11) 0.52361(11) 0.73157(11)
C106_4 C 0.74131(6) 0.54514(11) 0.74131(6)
H51_4 H 0.7354 0.5603 0.7354
C107_4 C 0.82764(11) 0.39058(17) 0.82764(11)
C108_4 C 0.81565(9) 0.41359(13) 0.81565(9)
C109_4 C 0.82524(13) 0.42305(14) 0.79609(12)
H52_4 H 0.8391 0.4157 0.7889
C110_4 C 0.81547(13) 0.44306(13) 0.78627(12)
H53_4 H 0.8217 0.4490 0.7713
C111_4 C 0.79715(9) 0.45479(14) 0.79715(9)
C112_4 C 0.78612(12) 0.47829(15) 0.78612(12)
C113_4 C 0.79450(12) 0.5000 0.79450(12)
H54_4 H 0.8067 0.5000 0.8067
C114_4 C 0.76843(11) 0.47639(11) 0.76843(11)
C115_4 C 0.75869(6) 0.45486(11) 0.75869(6)
H55_4 H 0.7646 0.4397 0.7646
C116_4 C 0.75926(10) 0.5000 0.75926(10)
O21_4 O 0.81812(5) 0.38157(6) 0.84620(6)
C117_4 C 0.82764(11) 0.60942(17) 0.82764(11)
C118_4 C 0.81565(9) 0.58641(13) 0.81565(9)
C119_4 C 0.79609(12) 0.57695(14) 0.82524(13)
H56_4 H 0.7889 0.5843 0.8391
C120_4 C 0.78627(12) 0.55694(13) 0.81547(13)
H57_4 H 0.7713 0.5510 0.8217
C121_4 C 0.79715(9) 0.54521(14) 0.79715(9)
C122_4 C 0.78612(12) 0.52171(15) 0.78612(12)
C123_4 C 0.76843(11) 0.52361(11) 0.76843(11)
C124_4 C 0.75869(6) 0.54514(11) 0.75869(6)
H58_4 H 0.7646 0.5603 0.7646
O22_4 O 0.84620(6) 0.61843(6) 0.81812(5)
C125_4 C 0.67476(13) 0.57695(14) 0.70391(12)
H59_4 H 0.6609 0.5843 0.7111
C126_4 C 0.68453(13) 0.55694(13) 0.71373(12)
H60_4 H 0.6783 0.5510 0.7287
C127_4 C 0.70391(12) 0.42305(14) 0.67476(13)
H61_4 H 0.7111 0.4157 0.6609
C128_4 C 0.71373(12) 0.44306(13) 0.68453(13)
H62_4 H 0.7287 0.4490 0.6783
O24_4 O 0.65380(6) 0.38157(6) 0.68188(5)
C129_4 C 0.82524(13) 0.57695(14) 0.79609(12)
H63_4 H 0.8391 0.5843 0.7889
C130_4 C 0.81547(13) 0.55694(13) 0.78627(12)
H64_4 H 0.8217 0.5510 0.7713
O25_4 O 0.81812(5) 0.61843(6) 0.84620(6)
C131_4 C 0.79609(12) 0.42305(14) 0.82524(13)
H65_4 H 0.7889 0.4157 0.8391
C132_4 C 0.78627(12) 0.44306(13) 0.81547(13)
H66_4 H 0.7713 0.4490 0.8217
O26_4 O 0.84620(6) 0.38157(6) 0.81812(5)
U5_4 U 0.65150(2) 0.15150(2) 0.84850(2)
U6_4 U 0.34850(2) 0.15150(2) 0.84850(2)
U7_4 U 0.84850(2) 0.34850(2) 0.84850(2)
U8_4 U 0.84850(2) 0.65150(2) 0.84850(2)
U9_4 U 0.84850(2) 0.15150(2) 0.65150(2)
U10_4 U 0.84850(2) 0.15150(2) 0.34850(2)
C7_5 C 0.70550(12) 0.20550(12) 0.0000
H3_5 H 0.6933 0.1933 0.0000
C10_5 C 0.74074(10) 0.24074(10) 0.0000
C11_5 C 0.67236(11) 0.17236(11) 0.10942(17)
C12_5 C 0.68435(9) 0.18435(9) 0.08641(13)
C13_5 C 0.67476(13) 0.20391(12) 0.07695(14)
H5_5 H 0.6609 0.2111 0.0843
C14_5 C 0.68453(13) 0.21373(12) 0.05694(13)
H6_5 H 0.6783 0.2287 0.0510
C15_5 C 0.70285(9) 0.20285(9) 0.04521(14)
C16_5 C 0.71388(12) 0.21388(12) 0.02171(15)
C17_5 C 0.73157(11) 0.23157(11) 0.02361(11)
C18_5 C 0.74131(6) 0.24131(6) 0.04514(11)
H7_5 H 0.7354 0.2354 0.0603
O4_3 O 0.68188(5) 0.15380(6) 0.11843(6)
C25_5 C 0.79450(12) 0.29450(12) 0.0000
H10_5 H 0.8067 0.3067 0.0000
C28_5 C 0.75926(10) 0.25926(10) 0.0000
C29_5 C 0.82764(11) 0.32764(11) 0.10942(17)
C30_5 C 0.81565(9) 0.31565(9) 0.08641(13)
C31_5 C 0.82524(13) 0.29609(12) 0.07695(14)
H12_5 H 0.8391 0.2889 0.0843
C32_5 C 0.81547(13) 0.28627(12) 0.05694(13)
H13_5 H 0.8217 0.2713 0.0510
C33_5 C 0.79715(9) 0.29715(9) 0.04521(14)
C34_5 C 0.78612(12) 0.28612(12) 0.02171(15)
C35_5 C 0.76843(11) 0.26843(11) 0.02361(11)
C36_5 C 0.75869(6) 0.25869(6) 0.04514(11)
H14_5 H 0.7646 0.2646 0.0603
O6_5 O 0.81812(5) 0.34620(6) 0.11843(6)
C37_5 C 0.70391(12) 0.17476(13) 0.07695(14)
H15_5 H 0.7111 0.1609 0.0843
C38_5 C 0.71373(12) 0.18453(13) 0.05694(13)
H16_5 H 0.7287 0.1783 0.0510
O7_3 O 0.65380(6) 0.18188(5) 0.11843(6)
C41_5 C 0.79609(12) 0.32524(13) 0.07695(14)
H19_5 H 0.7889 0.3391 0.0843
C42_5 C 0.78627(12) 0.31547(13) 0.05694(13)
H20_5 H 0.7713 0.3217 0.0510
O9_5 O 0.84620(6) 0.31812(5) 0.11843(6)
O27_3 O 0.63383(11) 0.13383(11) 0.13383(11)
O28_3 O 0.66920(10) 0.16920(10) 0.16920(10)
O36_3 O 0.65380(6) 0.11843(6) 0.18188(5)
O44_3 O 0.68188(5) 0.11843(6) 0.15380(6)
C1_5 C 0.67236(11) 0.17236(11) 0.89058(17)
C2_5 C 0.68435(9) 0.18435(9) 0.91359(13)
C3_5 C 0.70391(12) 0.17476(13) 0.92305(14)
H1_5 H 0.7111 0.1609 0.9157
C4_5 C 0.71373(12) 0.18453(13) 0.94306(13)
H2_5 H 0.7287 0.1783 0.9490
C5_5 C 0.70285(9) 0.20285(9) 0.95479(14)
C6_5 C 0.71388(12) 0.21388(12) 0.97829(15)
C7_6 C 0.70550(12) 0.20550(12) 1.0000
H3_6 H 0.6933 0.1933 1.0000
C8_5 C 0.73157(11) 0.23157(11) 0.97639(11)
C9_5 C 0.74131(6) 0.24131(6) 0.95486(11)
H4_5 H 0.7354 0.2354 0.9397
C10_6 C 0.74074(10) 0.24074(10) 1.0000
O1_5 O 0.65380(6) 0.18188(5) 0.88157(6)
O2_5 O 0.63383(11) 0.13383(11) 0.86617(11)
O3_5 O 0.66920(10) 0.16920(10) 0.83080(10)
C19_5 C 0.82764(11) 0.32764(11) 0.89058(17)
C20_5 C 0.81565(9) 0.31565(9) 0.91359(13)
C21_5 C 0.79609(12) 0.32524(13) 0.92305(14)
H8_5 H 0.7889 0.3391 0.9157
C22_5 C 0.78627(12) 0.31547(13) 0.94306(13)
H9_5 H 0.7713 0.3217 0.9490
C23_5 C 0.79715(9) 0.29715(9) 0.95479(14)
C24_5 C 0.78612(12) 0.28612(12) 0.97829(15)
C25_6 C 0.79450(12) 0.29450(12) 1.0000
H10_6 H 0.8067 0.3067 1.0000
C26_5 C 0.76843(11) 0.26843(11) 0.97639(11)
C27_5 C 0.75869(6) 0.25869(6) 0.95486(11)
H11_5 H 0.7646 0.2646 0.9397
C28_6 C 0.75926(10) 0.25926(10) 1.0000
O5_5 O 0.84620(6) 0.31812(5) 0.88157(6)
C39_5 C 0.67476(13) 0.20391(12) 0.92305(14)
H17_5 H 0.6609 0.2111 0.9157
C40_5 C 0.68453(13) 0.21373(12) 0.94306(13)
H18_5 H 0.6783 0.2287 0.9490
O8_5 O 0.68188(5) 0.15380(6) 0.88157(6)
C43_5 C 0.82524(13) 0.29609(12) 0.92305(14)
H21_5 H 0.8391 0.2889 0.9157
C44_5 C 0.81547(13) 0.28627(12) 0.94306(13)
H22_5 H 0.8217 0.2713 0.9490
O10_5 O 0.81812(5) 0.34620(6) 0.88157(6)
C89_5 C 0.67236(11) 0.10942(17) 0.82764(11)
C90_5 C 0.68435(9) 0.08641(13) 0.81565(9)
C91_5 C 0.67476(13) 0.07695(14) 0.79609(12)
H45_5 H 0.6609 0.0843 0.7889
C92_5 C 0.68453(13) 0.05694(13) 0.78627(12)
H46_5 H 0.6783 0.0510 0.7713
C93_5 C 0.70285(9) 0.04521(14) 0.79715(9)
C94_5 C 0.71388(12) 0.02171(15) 0.78612(12)
C95_5 C 0.70550(12) 0.0000 0.79450(12)
H47_5 H 0.6933 0.0000 0.8067
C96_5 C 0.73157(11) 0.02361(11) 0.76843(11)
C97_5 C 0.74131(6) 0.04514(11) 0.75869(6)
H48_5 H 0.7354 0.0603 0.7646
C98_5 C 0.74074(10) 0.0000 0.75926(10)
O19_5 O 0.68188(5) 0.11843(6) 0.84620(6)
C107_5 C 0.82764(11) 0.10942(17) 0.67236(11)
C108_5 C 0.81565(9) 0.08641(13) 0.68435(9)
C109_5 C 0.82524(13) 0.07695(14) 0.70391(12)
H52_5 H 0.8391 0.0843 0.7111
C110_5 C 0.81547(13) 0.05694(13) 0.71373(12)
H53_5 H 0.8217 0.0510 0.7287
C111_5 C 0.79715(9) 0.04521(14) 0.70285(9)
C112_5 C 0.78612(12) 0.02171(15) 0.71388(12)
C113_5 C 0.79450(12) 0.0000 0.70550(12)
H54_5 H 0.8067 0.0000 0.6933
C114_5 C 0.76843(11) 0.02361(11) 0.73157(11)
C115_5 C 0.75869(6) 0.04514(11) 0.74131(6)
H55_5 H 0.7646 0.0603 0.7354
C116_5 C 0.75926(10) 0.0000 0.74074(10)
O21_5 O 0.81812(5) 0.11843(6) 0.65380(6)
C127_5 C 0.70391(12) 0.07695(14) 0.82524(13)
H61_5 H 0.7111 0.0843 0.8391
C128_5 C 0.71373(12) 0.05694(13) 0.81547(13)
H62_5 H 0.7287 0.0510 0.8217
O24_5 O 0.65380(6) 0.11843(6) 0.81812(5)
C131_5 C 0.79609(12) 0.07695(14) 0.67476(13)
H65_5 H 0.7889 0.0843 0.6609
C132_5 C 0.78627(12) 0.05694(13) 0.68453(13)
H66_5 H 0.7713 0.0510 0.6783
O26_5 O 0.84620(6) 0.11843(6) 0.68188(5)
O31_2 O 0.36617(11) 0.13383(11) 0.86617(11)
O32_2 O 0.33080(10) 0.16920(10) 0.83080(10)
O34_2 O 0.31812(5) 0.15380(6) 0.88157(6)
O35_2 O 0.34620(6) 0.11843(6) 0.81812(5)
O40_2 O 0.34620(6) 0.18188(5) 0.88157(6)
O43_2 O 0.31812(5) 0.11843(6) 0.84620(6)
C95_6 C 0.70550(12) 1.0000 0.79450(12)
H47_6 H 0.6933 1.0000 0.8067
C98_6 C 0.74074(10) 1.0000 0.75926(10)
C99_5 C 0.67236(11) 0.89058(17) 0.82764(11)
C100_5 C 0.68435(9) 0.91359(13) 0.81565(9)
C101_5 C 0.70391(12) 0.92305(14) 0.82524(13)
H49_5 H 0.7111 0.9157 0.8391
C102_5 C 0.71373(12) 0.94306(13) 0.81547(13)
H50_5 H 0.7287 0.9490 0.8217
C103_5 C 0.70285(9) 0.95479(14) 0.79715(9)
C104_5 C 0.71388(12) 0.97829(15) 0.78612(12)
C105_5 C 0.73157(11) 0.97639(11) 0.76843(11)
C106_5 C 0.74131(6) 0.95486(11) 0.75869(6)
H51_5 H 0.7354 0.9397 0.7646
O20_2 O 0.65380(6) 0.88157(6) 0.81812(5)
C113_6 C 0.79450(12) 1.0000 0.70550(12)
H54_6 H 0.8067 1.0000 0.6933
C116_6 C 0.75926(10) 1.0000 0.74074(10)
C117_5 C 0.82764(11) 0.89058(17) 0.67236(11)
C118_5 C 0.81565(9) 0.91359(13) 0.68435(9)
C119_5 C 0.79609(12) 0.92305(14) 0.67476(13)
H56_5 H 0.7889 0.9157 0.6609
C120_5 C 0.78627(12) 0.94306(13) 0.68453(13)
H57_5 H 0.7713 0.9490 0.6783
C121_5 C 0.79715(9) 0.95479(14) 0.70285(9)
C122_5 C 0.78612(12) 0.97829(15) 0.71388(12)
C123_5 C 0.76843(11) 0.97639(11) 0.73157(11)
C124_5 C 0.75869(6) 0.95486(11) 0.74131(6)
H58_5 H 0.7646 0.9397 0.7354
O22_5 O 0.84620(6) 0.88157(6) 0.68188(5)
C125_5 C 0.67476(13) 0.92305(14) 0.79609(12)
H59_5 H 0.6609 0.9157 0.7889
C126_5 C 0.68453(13) 0.94306(13) 0.78627(12)
H60_5 H 0.6783 0.9490 0.7713
O23_2 O 0.68188(5) 0.88157(6) 0.84620(6)
C129_5 C 0.82524(13) 0.92305(14) 0.70391(12)
H63_5 H 0.8391 0.9157 0.7111
C130_5 C 0.81547(13) 0.94306(13) 0.71373(12)
H64_5 H 0.8217 0.9490 0.7287
O25_5 O 0.81812(5) 0.88157(6) 0.65380(6)
O29_2 O 0.63383(11) 0.86617(11) 0.86617(11)
O30_2 O 0.66920(10) 0.83080(10) 0.83080(10)
O33_2 O 0.68188(5) 0.84620(6) 0.88157(6)
O39_2 O 0.65380(6) 0.81812(5) 0.88157(6)
C95_7 C 0.29450(12) 0.0000 0.79450(12)
H47_7 H 0.3067 0.0000 0.8067
C98_7 C 0.25926(10) 0.0000 0.75926(10)
C99_6 C 0.32764(11) 0.10942(17) 0.82764(11)
C100_6 C 0.31565(9) 0.08641(13) 0.81565(9)
C101_6 C 0.29609(12) 0.07695(14) 0.82524(13)
H49_6 H 0.2889 0.0843 0.8391
C102_6 C 0.28627(12) 0.05694(13) 0.81547(13)
H50_6 H 0.2713 0.0510 0.8217
C103_6 C 0.29715(9) 0.04521(14) 0.79715(9)
C104_6 C 0.28612(12) 0.02171(15) 0.78612(12)
C105_6 C 0.26843(11) 0.02361(11) 0.76843(11)
C106_6 C 0.25869(6) 0.04514(11) 0.75869(6)
H51_6 H 0.2646 0.0603 0.7646
C113_7 C 0.20550(12) 0.0000 0.70550(12)
H54_7 H 0.1933 0.0000 0.6933
C116_7 C 0.24074(10) 0.0000 0.74074(10)
C117_6 C 0.17236(11) 0.10942(17) 0.67236(11)
C118_6 C 0.18435(9) 0.08641(13) 0.68435(9)
C119_6 C 0.20391(12) 0.07695(14) 0.67476(13)
H56_6 H 0.2111 0.0843 0.6609
C120_6 C 0.21373(12) 0.05694(13) 0.68453(13)
H57_6 H 0.2287 0.0510 0.6783
C121_6 C 0.20285(9) 0.04521(14) 0.70285(9)
C122_6 C 0.21388(12) 0.02171(15) 0.71388(12)
C123_6 C 0.23157(11) 0.02361(11) 0.73157(11)
C124_6 C 0.24131(6) 0.04514(11) 0.74131(6)
H58_6 H 0.2354 0.0603 0.7354
O22_6 O 0.15380(6) 0.11843(6) 0.68188(5)
C125_6 C 0.32524(13) 0.07695(14) 0.79609(12)
H59_6 H 0.3391 0.0843 0.7889
C126_6 C 0.31547(13) 0.05694(13) 0.78627(12)
H60_6 H 0.3217 0.0510 0.7713
C129_6 C 0.17476(13) 0.07695(14) 0.70391(12)
H63_6 H 0.1609 0.0843 0.7111
C130_6 C 0.18453(13) 0.05694(13) 0.71373(12)
H64_6 H 0.1783 0.0510 0.7287
O25_6 O 0.18188(5) 0.11843(6) 0.65380(6)
C7_7 C 0.29450(12) 0.79450(12) 0.0000
H3_7 H 0.3067 0.8067 0.0000
C10_7 C 0.25926(10) 0.75926(10) 0.0000
C11_6 C 0.32764(11) 0.82764(11) 0.10942(17)
C12_6 C 0.31565(9) 0.81565(9) 0.08641(13)
C13_6 C 0.32524(13) 0.79609(12) 0.07695(14)
H5_6 H 0.3391 0.7889 0.0843
C14_6 C 0.31547(13) 0.78627(12) 0.05694(13)
H6_6 H 0.3217 0.7713 0.0510
C15_6 C 0.29715(9) 0.79715(9) 0.04521(14)
C16_6 C 0.28612(12) 0.78612(12) 0.02171(15)
C17_6 C 0.26843(11) 0.76843(11) 0.02361(11)
C18_6 C 0.25869(6) 0.75869(6) 0.04514(11)
H7_6 H 0.2646 0.7646 0.0603
O4_4 O 0.31812(5) 0.84620(6) 0.11843(6)
C25_7 C 0.20550(12) 0.70550(12) 0.0000
H10_7 H 0.1933 0.6933 0.0000
C28_7 C 0.24074(10) 0.74074(10) 0.0000
C29_6 C 0.17236(11) 0.67236(11) 0.10942(17)
C30_6 C 0.18435(9) 0.68435(9) 0.08641(13)
C31_6 C 0.17476(13) 0.70391(12) 0.07695(14)
H12_6 H 0.1609 0.7111 0.0843
C32_6 C 0.18453(13) 0.71373(12) 0.05694(13)
H13_6 H 0.1783 0.7287 0.0510
C33_6 C 0.20285(9) 0.70285(9) 0.04521(14)
C34_6 C 0.21388(12) 0.71388(12) 0.02171(15)
C35_6 C 0.23157(11) 0.73157(11) 0.02361(11)
C36_6 C 0.24131(6) 0.74131(6) 0.04514(11)
H14_6 H 0.2354 0.7354 0.0603
O6_6 O 0.18188(5) 0.65380(6) 0.11843(6)
C37_6 C 0.29609(12) 0.82524(13) 0.07695(14)
H15_6 H 0.2889 0.8391 0.0843
C38_6 C 0.28627(12) 0.81547(13) 0.05694(13)
H16_6 H 0.2713 0.8217 0.0510
O7_4 O 0.34620(6) 0.81812(5) 0.11843(6)
C41_6 C 0.20391(12) 0.67476(13) 0.07695(14)
H19_6 H 0.2111 0.6609 0.0843
C42_6 C 0.21373(12) 0.68453(13) 0.05694(13)
H20_6 H 0.2287 0.6783 0.0510
O9_6 O 0.15380(6) 0.68188(5) 0.11843(6)
O27_4 O 0.36617(11) 0.86617(11) 0.13383(11)
O28_4 O 0.33080(10) 0.83080(10) 0.16920(10)
O36_4 O 0.34620(6) 0.88157(6) 0.18188(5)
O44_4 O 0.31812(5) 0.88157(6) 0.15380(6)
C1_6 C 0.32764(11) 0.82764(11) 0.89058(17)
C2_6 C 0.31565(9) 0.81565(9) 0.91359(13)
C3_6 C 0.29609(12) 0.82524(13) 0.92305(14)
H1_6 H 0.2889 0.8391 0.9157
C4_6 C 0.28627(12) 0.81547(13) 0.94306(13)
H2_6 H 0.2713 0.8217 0.9490
C5_6 C 0.29715(9) 0.79715(9) 0.95479(14)
C6_6 C 0.28612(12) 0.78612(12) 0.97829(15)
C7_8 C 0.29450(12) 0.79450(12) 1.0000
H3_8 H 0.3067 0.8067 1.0000
C8_6 C 0.26843(11) 0.76843(11) 0.97639(11)
C9_6 C 0.25869(6) 0.75869(6) 0.95486(11)
H4_6 H 0.2646 0.7646 0.9397
C10_8 C 0.25926(10) 0.75926(10) 1.0000
O1_6 O 0.34620(6) 0.81812(5) 0.88157(6)
O2_6 O 0.36617(11) 0.86617(11) 0.86617(11)
O3_6 O 0.33080(10) 0.83080(10) 0.83080(10)
C19_6 C 0.17236(11) 0.67236(11) 0.89058(17)
C20_6 C 0.18435(9) 0.68435(9) 0.91359(13)
C21_6 C 0.20391(12) 0.67476(13) 0.92305(14)
H8_6 H 0.2111 0.6609 0.9157
C22_6 C 0.21373(12) 0.68453(13) 0.94306(13)
H9_6 H 0.2287 0.6783 0.9490
C23_6 C 0.20285(9) 0.70285(9) 0.95479(14)
C24_6 C 0.21388(12) 0.71388(12) 0.97829(15)
C25_8 C 0.20550(12) 0.70550(12) 1.0000
H10_8 H 0.1933 0.6933 1.0000
C26_6 C 0.23157(11) 0.73157(11) 0.97639(11)
C27_6 C 0.24131(6) 0.74131(6) 0.95486(11)
H11_6 H 0.2354 0.7354 0.9397
C28_8 C 0.24074(10) 0.74074(10) 1.0000
O5_6 O 0.15380(6) 0.68188(5) 0.88157(6)
C39_6 C 0.32524(13) 0.79609(12) 0.92305(14)
H17_6 H 0.3391 0.7889 0.9157
C40_6 C 0.31547(13) 0.78627(12) 0.94306(13)
H18_6 H 0.3217 0.7713 0.9490
O8_6 O 0.31812(5) 0.84620(6) 0.88157(6)
C43_6 C 0.17476(13) 0.70391(12) 0.92305(14)
H21_6 H 0.1609 0.7111 0.9157
C44_6 C 0.18453(13) 0.71373(12) 0.94306(13)
H22_6 H 0.1783 0.7287 0.9490
O10_6 O 0.18188(5) 0.65380(6) 0.88157(6)
C89_6 C 0.32764(11) 0.89058(17) 0.82764(11)
C90_6 C 0.31565(9) 0.91359(13) 0.81565(9)
C91_6 C 0.32524(13) 0.92305(14) 0.79609(12)
H45_6 H 0.3391 0.9157 0.7889
C92_6 C 0.31547(13) 0.94306(13) 0.78627(12)
H46_6 H 0.3217 0.9490 0.7713
C93_6 C 0.29715(9) 0.95479(14) 0.79715(9)
C94_6 C 0.28612(12) 0.97829(15) 0.78612(12)
C95_8 C 0.29450(12) 1.0000 0.79450(12)
H47_8 H 0.3067 1.0000 0.8067
C96_6 C 0.26843(11) 0.97639(11) 0.76843(11)
C97_6 C 0.25869(6) 0.95486(11) 0.75869(6)
H48_6 H 0.2646 0.9397 0.7646
C98_8 C 0.25926(10) 1.0000 0.75926(10)
O19_6 O 0.31812(5) 0.88157(6) 0.84620(6)
C107_6 C 0.17236(11) 0.89058(17) 0.67236(11)
C108_6 C 0.18435(9) 0.91359(13) 0.68435(9)
C109_6 C 0.17476(13) 0.92305(14) 0.70391(12)
H52_6 H 0.1609 0.9157 0.7111
C110_6 C 0.18453(13) 0.94306(13) 0.71373(12)
H53_6 H 0.1783 0.9490 0.7287
C111_6 C 0.20285(9) 0.95479(14) 0.70285(9)
C112_6 C 0.21388(12) 0.97829(15) 0.71388(12)
C113_8 C 0.20550(12) 1.0000 0.70550(12)
H54_8 H 0.1933 1.0000 0.6933
C114_6 C 0.23157(11) 0.97639(11) 0.73157(11)
C115_6 C 0.24131(6) 0.95486(11) 0.74131(6)
H55_6 H 0.2354 0.9397 0.7354
C116_8 C 0.24074(10) 1.0000 0.74074(10)
O21_6 O 0.18188(5) 0.88157(6) 0.65380(6)
C127_6 C 0.29609(12) 0.92305(14) 0.82524(13)
H61_6 H 0.2889 0.9157 0.8391
C128_6 C 0.28627(12) 0.94306(13) 0.81547(13)
H62_6 H 0.2713 0.9490 0.8217
O24_6 O 0.34620(6) 0.88157(6) 0.81812(5)
C131_6 C 0.20391(12) 0.92305(14) 0.67476(13)
H65_6 H 0.2111 0.9157 0.6609
C132_6 C 0.21373(12) 0.94306(13) 0.68453(13)
H66_6 H 0.2287 0.9490 0.6783
O26_6 O 0.15380(6) 0.88157(6) 0.68188(5)
C1_7 C 0.32764(11) 0.17236(11) 0.10942(17)
C2_7 C 0.31565(9) 0.18435(9) 0.08641(13)
C3_7 C 0.29609(12) 0.17476(13) 0.07695(14)
H1_7 H 0.2889 0.1609 0.0843
C4_7 C 0.28627(12) 0.18453(13) 0.05694(13)
H2_7 H 0.2713 0.1783 0.0510
C5_7 C 0.29715(9) 0.20285(9) 0.04521(14)
C6_7 C 0.28612(12) 0.21388(12) 0.02171(15)
C7_9 C 0.29450(12) 0.20550(12) 0.0000
H3_9 H 0.3067 0.1933 0.0000
C8_7 C 0.26843(11) 0.23157(11) 0.02361(11)
C9_7 C 0.25869(6) 0.24131(6) 0.04514(11)
H4_7 H 0.2646 0.2354 0.0603
C10_9 C 0.25926(10) 0.24074(10) 0.0000
O1_7 O 0.34620(6) 0.18188(5) 0.11843(6)
O2_7 O 0.36617(11) 0.13383(11) 0.13383(11)
O3_7 O 0.33080(10) 0.16920(10) 0.16920(10)
C19_7 C 0.17236(11) 0.32764(11) 0.10942(17)
C20_7 C 0.18435(9) 0.31565(9) 0.08641(13)
C21_7 C 0.20391(12) 0.32524(13) 0.07695(14)
H8_7 H 0.2111 0.3391 0.0843
C22_7 C 0.21373(12) 0.31547(13) 0.05694(13)
H9_7 H 0.2287 0.3217 0.0510
C23_7 C 0.20285(9) 0.29715(9) 0.04521(14)
C24_7 C 0.21388(12) 0.28612(12) 0.02171(15)
C25_9 C 0.20550(12) 0.29450(12) 0.0000
H10_9 H 0.1933 0.3067 0.0000
C26_7 C 0.23157(11) 0.26843(11) 0.02361(11)
C27_7 C 0.24131(6) 0.25869(6) 0.04514(11)
H11_7 H 0.2354 0.2646 0.0603
C28_9 C 0.24074(10) 0.25926(10) 0.0000
O5_7 O 0.15380(6) 0.31812(5) 0.11843(6)
C39_7 C 0.32524(13) 0.20391(12) 0.07695(14)
H17_7 H 0.3391 0.2111 0.0843
C40_7 C 0.31547(13) 0.21373(12) 0.05694(13)
H18_7 H 0.3217 0.2287 0.0510
O8_7 O 0.31812(5) 0.15380(6) 0.11843(6)
C43_7 C 0.17476(13) 0.29609(12) 0.07695(14)
H21_7 H 0.1609 0.2889 0.0843
C44_7 C 0.18453(13) 0.28627(12) 0.05694(13)
H22_7 H 0.1783 0.2713 0.0510
O10_7 O 0.18188(5) 0.34620(6) 0.11843(6)
C89_7 C 0.32764(11) 0.10942(17) 0.17236(11)
C90_7 C 0.31565(9) 0.08641(13) 0.18435(9)
C91_7 C 0.32524(13) 0.07695(14) 0.20391(12)
H45_7 H 0.3391 0.0843 0.2111
C92_7 C 0.31547(13) 0.05694(13) 0.21373(12)
H46_7 H 0.3217 0.0510 0.2287
C93_7 C 0.29715(9) 0.04521(14) 0.20285(9)
C94_7 C 0.28612(12) 0.02171(15) 0.21388(12)
C95_9 C 0.29450(12) 0.0000 0.20550(12)
H47_9 H 0.3067 0.0000 0.1933
C96_7 C 0.26843(11) 0.02361(11) 0.23157(11)
C97_7 C 0.25869(6) 0.04514(11) 0.24131(6)
H48_7 H 0.2646 0.0603 0.2354
C98_9 C 0.25926(10) -0.0000 0.24074(10)
O19_7 O 0.31812(5) 0.11843(6) 0.15380(6)
C107_7 C 0.17236(11) 0.10942(17) 0.32764(11)
C108_7 C 0.18435(9) 0.08641(13) 0.31565(9)
C109_7 C 0.17476(13) 0.07695(14) 0.29609(12)
H52_7 H 0.1609 0.0843 0.2889
C110_7 C 0.18453(13) 0.05694(13) 0.28627(12)
H53_7 H 0.1783 0.0510 0.2713
C111_7 C 0.20285(9) 0.04521(14) 0.29715(9)
C112_7 C 0.21388(12) 0.02171(15) 0.28612(12)
C113_9 C 0.20550(12) 0.0000 0.29450(12)
H54_9 H 0.1933 0.0000 0.3067
C114_7 C 0.23157(11) 0.02361(11) 0.26843(11)
C115_7 C 0.24131(6) 0.04514(11) 0.25869(6)
H55_7 H 0.2354 0.0603 0.2646
C116_9 C 0.24074(10) 0.0000 0.25926(10)
O21_7 O 0.18188(5) 0.11843(6) 0.34620(6)
C127_7 C 0.29609(12) 0.07695(14) 0.17476(13)
H61_7 H 0.2889 0.0843 0.1609
C128_7 C 0.28627(12) 0.05694(13) 0.18453(13)
H62_7 H 0.2713 0.0510 0.1783
O24_7 O 0.34620(6) 0.11843(6) 0.18188(5)
C131_7 C 0.20391(12) 0.07695(14) 0.32524(13)
H65_7 H 0.2111 0.0843 0.3391
C132_7 C 0.21373(12) 0.05694(13) 0.31547(13)
H66_7 H 0.2287 0.0510 0.3217
O26_7 O 0.15380(6) 0.11843(6) 0.31812(5)
C7_10 C 0.29450(12) 0.20550(12) 1.0000
H3_10 H 0.3067 0.1933 1.0000
C10_10 C 0.25926(10) 0.24074(10) 1.0000
C11_7 C 0.32764(11) 0.17236(11) 0.89058(17)
C12_7 C 0.31565(9) 0.18435(9) 0.91359(13)
C13_7 C 0.32524(13) 0.20391(12) 0.92305(14)
H5_7 H 0.3391 0.2111 0.9157
C14_7 C 0.31547(13) 0.21373(12) 0.94306(13)
H6_7 H 0.3217 0.2287 0.9490
C15_7 C 0.29715(9) 0.20285(9) 0.95479(14)
C16_7 C 0.28612(12) 0.21388(12) 0.97829(15)
C17_7 C 0.26843(11) 0.23157(11) 0.97639(11)
C18_7 C 0.25869(6) 0.24131(6) 0.95486(11)
H7_7 H 0.2646 0.2354 0.9397
C25_10 C 0.20550(12) 0.29450(12) 1.0000
H10_10 H 0.1933 0.3067 1.0000
C28_10 C 0.24074(10) 0.25926(10) 1.0000
C29_7 C 0.17236(11) 0.32764(11) 0.89058(17)
C30_7 C 0.18435(9) 0.31565(9) 0.91359(13)
C31_7 C 0.17476(13) 0.29609(12) 0.92305(14)
H12_7 H 0.1609 0.2889 0.9157
C32_7 C 0.18453(13) 0.28627(12) 0.94306(13)
H13_7 H 0.1783 0.2713 0.9490
C33_7 C 0.20285(9) 0.29715(9) 0.95479(14)
C34_7 C 0.21388(12) 0.28612(12) 0.97829(15)
C35_7 C 0.23157(11) 0.26843(11) 0.97639(11)
C36_7 C 0.24131(6) 0.25869(6) 0.95486(11)
H14_7 H 0.2354 0.2646 0.9397
O6_7 O 0.18188(5) 0.34620(6) 0.88157(6)
C37_7 C 0.29609(12) 0.17476(13) 0.92305(14)
H15_7 H 0.2889 0.1609 0.9157
C38_7 C 0.28627(12) 0.18453(13) 0.94306(13)
H16_7 H 0.2713 0.1783 0.9490
C41_7 C 0.20391(12) 0.32524(13) 0.92305(14)
H19_7 H 0.2111 0.3391 0.9157
C42_7 C 0.21373(12) 0.31547(13) 0.94306(13)
H20_7 H 0.2287 0.3217 0.9490
O9_7 O 0.15380(6) 0.31812(5) 0.88157(6)
C95_10 C 0.29450(12) 1.0000 0.20550(12)
H47_10 H 0.3067 1.0000 0.1933
C98_10 C 0.25926(10) 1.0000 0.24074(10)
C99_7 C 0.32764(11) 0.89058(17) 0.17236(11)
C100_7 C 0.31565(9) 0.91359(13) 0.18435(9)
C101_7 C 0.29609(12) 0.92305(14) 0.17476(13)
H49_7 H 0.2889 0.9157 0.1609
C102_7 C 0.28627(12) 0.94306(13) 0.18453(13)
H50_7 H 0.2713 0.9490 0.1783
C103_7 C 0.29715(9) 0.95479(14) 0.20285(9)
C104_7 C 0.28612(12) 0.97829(15) 0.21388(12)
C105_7 C 0.26843(11) 0.97639(11) 0.23157(11)
C106_7 C 0.25869(6) 0.95486(11) 0.24131(6)
H51_7 H 0.2646 0.9397 0.2354
C113_10 C 0.20550(12) 1.0000 0.29450(12)
H54_10 H 0.1933 1.0000 0.3067
C116_10 C 0.24074(10) 1.0000 0.25926(10)
C117_7 C 0.17236(11) 0.89058(17) 0.32764(11)
C118_7 C 0.18435(9) 0.91359(13) 0.31565(9)
C119_7 C 0.20391(12) 0.92305(14) 0.32524(13)
H56_7 H 0.2111 0.9157 0.3391
C120_7 C 0.21373(12) 0.94306(13) 0.31547(13)
H57_7 H 0.2287 0.9490 0.3217
C121_7 C 0.20285(9) 0.95479(14) 0.29715(9)
C122_7 C 0.21388(12) 0.97829(15) 0.28612(12)
C123_7 C 0.23157(11) 0.97639(11) 0.26843(11)
C124_7 C 0.24131(6) 0.95486(11) 0.25869(6)
H58_7 H 0.2354 0.9397 0.2646
O22_7 O 0.15380(6) 0.88157(6) 0.31812(5)
C125_7 C 0.32524(13) 0.92305(14) 0.20391(12)
H59_7 H 0.3391 0.9157 0.2111
C126_7 C 0.31547(13) 0.94306(13) 0.21373(12)
H60_7 H 0.3217 0.9490 0.2287
C129_7 C 0.17476(13) 0.92305(14) 0.29609(12)
H63_7 H 0.1609 0.9157 0.2889
C130_7 C 0.18453(13) 0.94306(13) 0.28627(12)
H64_7 H 0.1783 0.9490 0.2713
O25_7 O 0.18188(5) 0.88157(6) 0.34620(6)
C95_11 C 0.70550(12) 0.0000 0.20550(12)
H47_11 H 0.6933 0.0000 0.1933
C98_11 C 0.74074(10) -0.0000 0.24074(10)
C99_8 C 0.67236(11) 0.10942(17) 0.17236(11)
C100_8 C 0.68435(9) 0.08641(13) 0.18435(9)
C101_8 C 0.70391(12) 0.07695(14) 0.17476(13)
H49_8 H 0.7111 0.0843 0.1609
C102_8 C 0.71373(12) 0.05694(13) 0.18453(13)
H50_8 H 0.7287 0.0510 0.1783
C103_8 C 0.70285(9) 0.04521(14) 0.20285(9)
C104_8 C 0.71388(12) 0.02171(15) 0.21388(12)
C105_8 C 0.73157(11) 0.02361(11) 0.23157(11)
C106_8 C 0.74131(6) 0.04514(11) 0.24131(6)
H51_8 H 0.7354 0.0603 0.2354
C113_11 C 0.79450(12) 0.0000 0.29450(12)
H54_11 H 0.8067 0.0000 0.3067
C116_11 C 0.75926(10) 0.0000 0.25926(10)
C117_8 C 0.82764(11) 0.10942(17) 0.32764(11)
C118_8 C 0.81565(9) 0.08641(13) 0.31565(9)
C119_8 C 0.79609(12) 0.07695(14) 0.32524(13)
H56_8 H 0.7889 0.0843 0.3391
C120_8 C 0.78627(12) 0.05694(13) 0.31547(13)
H57_8 H 0.7713 0.0510 0.3217
C121_8 C 0.79715(9) 0.04521(14) 0.29715(9)
C122_8 C 0.78612(12) 0.02171(15) 0.28612(12)
C123_8 C 0.76843(11) 0.02361(11) 0.26843(11)
C124_8 C 0.75869(6) 0.04514(11) 0.25869(6)
H58_8 H 0.7646 0.0603 0.2646
O22_8 O 0.84620(6) 0.11843(6) 0.31812(5)
C125_8 C 0.67476(13) 0.07695(14) 0.20391(12)
H59_8 H 0.6609 0.0843 0.2111
C126_8 C 0.68453(13) 0.05694(13) 0.21373(12)
H60_8 H 0.6783 0.0510 0.2287
C129_8 C 0.82524(13) 0.07695(14) 0.29609(12)
H63_8 H 0.8391 0.0843 0.2889
C130_8 C 0.81547(13) 0.05694(13) 0.28627(12)
H64_8 H 0.8217 0.0510 0.2713
O25_8 O 0.81812(5) 0.11843(6) 0.34620(6)
C1_8 C 0.67236(11) 0.82764(11) 0.10942(17)
C2_8 C 0.68435(9) 0.81565(9) 0.08641(13)
C3_8 C 0.70391(12) 0.82524(13) 0.07695(14)
H1_8 H 0.7111 0.8391 0.0843
C4_8 C 0.71373(12) 0.81547(13) 0.05694(13)
H2_8 H 0.7287 0.8217 0.0510
C5_8 C 0.70285(9) 0.79715(9) 0.04521(14)
C6_8 C 0.71388(12) 0.78612(12) 0.02171(15)
C7_11 C 0.70550(12) 0.79450(12) 0.0000
H3_11 H 0.6933 0.8067 0.0000
C8_8 C 0.73157(11) 0.76843(11) 0.02361(11)
C9_8 C 0.74131(6) 0.75869(6) 0.04514(11)
H4_8 H 0.7354 0.7646 0.0603
C10_11 C 0.74074(10) 0.75926(10) 0.0000
O1_8 O 0.65380(6) 0.81812(5) 0.11843(6)
O2_8 O 0.63383(11) 0.86617(11) 0.13383(11)
O3_8 O 0.66920(10) 0.83080(10) 0.16920(10)
C19_8 C 0.82764(11) 0.67236(11) 0.10942(17)
C20_8 C 0.81565(9) 0.68435(9) 0.08641(13)
C21_8 C 0.79609(12) 0.67476(13) 0.07695(14)
H8_8 H 0.7889 0.6609 0.0843
C22_8 C 0.78627(12) 0.68453(13) 0.05694(13)
H9_8 H 0.7713 0.6783 0.0510
C23_8 C 0.79715(9) 0.70285(9) 0.04521(14)
C24_8 C 0.78612(12) 0.71388(12) 0.02171(15)
C25_11 C 0.79450(12) 0.70550(12) 0.0000
H10_11 H 0.8067 0.6933 0.0000
C26_8 C 0.76843(11) 0.73157(11) 0.02361(11)
C27_8 C 0.75869(6) 0.74131(6) 0.04514(11)
H11_8 H 0.7646 0.7354 0.0603
C28_11 C 0.75926(10) 0.74074(10) 0.0000
O5_8 O 0.84620(6) 0.68188(5) 0.11843(6)
C39_8 C 0.67476(13) 0.79609(12) 0.07695(14)
H17_8 H 0.6609 0.7889 0.0843
C40_8 C 0.68453(13) 0.78627(12) 0.05694(13)
H18_8 H 0.6783 0.7713 0.0510
O8_8 O 0.68188(5) 0.84620(6) 0.11843(6)
C43_8 C 0.82524(13) 0.70391(12) 0.07695(14)
H21_8 H 0.8391 0.7111 0.0843
C44_8 C 0.81547(13) 0.71373(12) 0.05694(13)
H22_8 H 0.8217 0.7287 0.0510
O10_8 O 0.81812(5) 0.65380(6) 0.11843(6)
C89_8 C 0.67236(11) 0.89058(17) 0.17236(11)
C90_8 C 0.68435(9) 0.91359(13) 0.18435(9)
C91_8 C 0.67476(13) 0.92305(14) 0.20391(12)
H45_8 H 0.6609 0.9157 0.2111
C92_8 C 0.68453(13) 0.94306(13) 0.21373(12)
H46_8 H 0.6783 0.9490 0.2287
C93_8 C 0.70285(9) 0.95479(14) 0.20285(9)
C94_8 C 0.71388(12) 0.97829(15) 0.21388(12)
C95_12 C 0.70550(12) 1.0000 0.20550(12)
H47_12 H 0.6933 1.0000 0.1933
C96_8 C 0.73157(11) 0.97639(11) 0.23157(11)
C97_8 C 0.74131(6) 0.95486(11) 0.24131(6)
H48_8 H 0.7354 0.9397 0.2354
C98_12 C 0.74074(10) 1.0000 0.24074(10)
O19_8 O 0.68188(5) 0.88157(6) 0.15380(6)
C107_8 C 0.82764(11) 0.89058(17) 0.32764(11)
C108_8 C 0.81565(9) 0.91359(13) 0.31565(9)
C109_8 C 0.82524(13) 0.92305(14) 0.29609(12)
H52_8 H 0.8391 0.9157 0.2889
C110_8 C 0.81547(13) 0.94306(13) 0.28627(12)
H53_8 H 0.8217 0.9490 0.2713
C111_8 C 0.79715(9) 0.95479(14) 0.29715(9)
C112_8 C 0.78612(12) 0.97829(15) 0.28612(12)
C113_12 C 0.79450(12) 1.0000 0.29450(12)
H54_12 H 0.8067 1.0000 0.3067
C114_8 C 0.76843(11) 0.97639(11) 0.26843(11)
C115_8 C 0.75869(6) 0.95486(11) 0.25869(6)
H55_8 H 0.7646 0.9397 0.2646
C116_12 C 0.75926(10) 1.0000 0.25926(10)
O21_8 O 0.81812(5) 0.88157(6) 0.34620(6)
C127_8 C 0.70391(12) 0.92305(14) 0.17476(13)
H61_8 H 0.7111 0.9157 0.1609
C128_8 C 0.71373(12) 0.94306(13) 0.18453(13)
H62_8 H 0.7287 0.9490 0.1783
O24_8 O 0.65380(6) 0.88157(6) 0.18188(5)
C131_8 C 0.79609(12) 0.92305(14) 0.32524(13)
H65_8 H 0.7889 0.9157 0.3391
C132_8 C 0.78627(12) 0.94306(13) 0.31547(13)
H66_8 H 0.7713 0.9490 0.3217
O26_8 O 0.84620(6) 0.88157(6) 0.31812(5)
C7_12 C 0.70550(12) 0.79450(12) 1.0000
H3_12 H 0.6933 0.8067 1.0000
C10_12 C 0.74074(10) 0.75926(10) 1.0000
C11_8 C 0.67236(11) 0.82764(11) 0.89058(17)
C12_8 C 0.68435(9) 0.81565(9) 0.91359(13)
C13_8 C 0.67476(13) 0.79609(12) 0.92305(14)
H5_8 H 0.6609 0.7889 0.9157
C14_8 C 0.68453(13) 0.78627(12) 0.94306(13)
H6_8 H 0.6783 0.7713 0.9490
C15_8 C 0.70285(9) 0.79715(9) 0.95479(14)
C16_8 C 0.71388(12) 0.78612(12) 0.97829(15)
C17_8 C 0.73157(11) 0.76843(11) 0.97639(11)
C18_8 C 0.74131(6) 0.75869(6) 0.95486(11)
H7_8 H 0.7354 0.7646 0.9397
C25_12 C 0.79450(12) 0.70550(12) 1.0000
H10_12 H 0.8067 0.6933 1.0000
C28_12 C 0.75926(10) 0.74074(10) 1.0000
C29_8 C 0.82764(11) 0.67236(11) 0.89058(17)
C30_8 C 0.81565(9) 0.68435(9) 0.91359(13)
C31_8 C 0.82524(13) 0.70391(12) 0.92305(14)
H12_8 H 0.8391 0.7111 0.9157
C32_8 C 0.81547(13) 0.71373(12) 0.94306(13)
H13_8 H 0.8217 0.7287 0.9490
C33_8 C 0.79715(9) 0.70285(9) 0.95479(14)
C34_8 C 0.78612(12) 0.71388(12) 0.97829(15)
C35_8 C 0.76843(11) 0.73157(11) 0.97639(11)
C36_8 C 0.75869(6) 0.74131(6) 0.95486(11)
H14_8 H 0.7646 0.7354 0.9397
O6_8 O 0.81812(5) 0.65380(6) 0.88157(6)
C37_8 C 0.70391(12) 0.82524(13) 0.92305(14)
H15_8 H 0.7111 0.8391 0.9157
C38_8 C 0.71373(12) 0.81547(13) 0.94306(13)
H16_8 H 0.7287 0.8217 0.9490
C41_8 C 0.79609(12) 0.67476(13) 0.92305(14)
H19_8 H 0.7889 0.6609 0.9157
C42_8 C 0.78627(12) 0.68453(13) 0.94306(13)
H20_8 H 0.7713 0.6783 0.9490
O9_8 O 0.84620(6) 0.68188(5) 0.88157(6)
O27_5 O 0.13383(11) 0.63383(11) 0.13383(11)
O28_5 O 0.16920(10) 0.66920(10) 0.16920(10)
O37_3 O 0.11843(6) 0.68188(5) 0.15380(6)
O42_3 O 0.11843(6) 0.65380(6) 0.18188(5)
O2_9 O 0.13383(11) 0.63383(11) 0.86617(11)
O3_9 O 0.16920(10) 0.66920(10) 0.83080(10)
C45_5 C 0.10942(17) 0.67236(11) 0.82764(11)
C46_5 C 0.08641(13) 0.68435(9) 0.81565(9)
C47_5 C 0.07695(14) 0.70391(12) 0.82524(13)
H23_5 H 0.0843 0.7111 0.8391
C48_5 C 0.05694(13) 0.71373(12) 0.81547(13)
H24_5 H 0.0510 0.7287 0.8217
C49_5 C 0.04521(14) 0.70285(9) 0.79715(9)
C50_5 C 0.02171(15) 0.71388(12) 0.78612(12)
C51_5 C 0.0000 0.70550(12) 0.79450(12)
H25_5 H 0.0000 0.6933 0.8067
C52_5 C 0.02361(11) 0.73157(11) 0.76843(11)
C53_5 C 0.04514(11) 0.74131(6) 0.75869(6)
H26_5 H 0.0603 0.7354 0.7646
C54_5 C 0.0000 0.74074(10) 0.75926(10)
O11_5 O 0.11843(6) 0.65380(6) 0.81812(5)
C63_5 C 0.10942(17) 0.82764(11) 0.67236(11)
C64_5 C 0.08641(13) 0.81565(9) 0.68435(9)
C65_5 C 0.07695(14) 0.79609(12) 0.67476(13)
H30_5 H 0.0843 0.7889 0.6609
C66_5 C 0.05694(13) 0.78627(12) 0.68453(13)
H31_5 H 0.0510 0.7713 0.6783
C67_5 C 0.04521(14) 0.79715(9) 0.70285(9)
C68_5 C 0.02171(15) 0.78612(12) 0.71388(12)
C69_5 C 0.0000 0.79450(12) 0.70550(12)
H32_5 H 0.0000 0.8067 0.6933
C70_5 C 0.02361(11) 0.76843(11) 0.73157(11)
C71_5 C 0.04514(11) 0.75869(6) 0.74131(6)
H33_5 H 0.0603 0.7646 0.7354
C72_5 C 0.0000 0.75926(10) 0.74074(10)
O13_5 O 0.11843(6) 0.84620(6) 0.68188(5)
C83_5 C 0.07695(14) 0.67476(13) 0.79609(12)
H39_5 H 0.0843 0.6609 0.7889
C84_5 C 0.05694(13) 0.68453(13) 0.78627(12)
H40_5 H 0.0510 0.6783 0.7713
O16_5 O 0.11843(6) 0.68188(5) 0.84620(6)
C87_5 C 0.07695(14) 0.82524(13) 0.70391(12)
H43_5 H 0.0843 0.8391 0.7111
C88_5 C 0.05694(13) 0.81547(13) 0.71373(12)
H44_5 H 0.0510 0.8217 0.7287
O18_5 O 0.11843(6) 0.81812(5) 0.65380(6)
O29_3 O 0.13383(11) 0.36617(11) 0.86617(11)
O30_3 O 0.16920(10) 0.33080(10) 0.83080(10)
O38_2 O 0.11843(6) 0.31812(5) 0.84620(6)
O41_2 O 0.11843(6) 0.34620(6) 0.81812(5)
C51_6 C 1.0000 0.70550(12) 0.79450(12)
H25_6 H 1.0000 0.6933 0.8067
C54_6 C 1.0000 0.74074(10) 0.75926(10)
C55_5 C 0.89058(17) 0.67236(11) 0.82764(11)
C56_5 C 0.91359(13) 0.68435(9) 0.81565(9)
C57_5 C 0.92305(14) 0.67476(13) 0.79609(12)
H27_5 H 0.9157 0.6609 0.7889
C58_5 C 0.94306(13) 0.68453(13) 0.78627(12)
H28_5 H 0.9490 0.6783 0.7713
C59_5 C 0.95479(14) 0.70285(9) 0.79715(9)
C60_5 C 0.97829(15) 0.71388(12) 0.78612(12)
C61_5 C 0.97639(11) 0.73157(11) 0.76843(11)
C62_5 C 0.95486(11) 0.74131(6) 0.75869(6)
H29_5 H 0.9397 0.7354 0.7646
O12_2 O 0.88157(6) 0.68188(5) 0.84620(6)
C69_6 C 1.0000 0.79450(12) 0.70550(12)
H32_6 H 1.0000 0.8067 0.6933
C72_6 C 1.0000 0.75926(10) 0.74074(10)
C73_5 C 0.89058(17) 0.82764(11) 0.67236(11)
C74_5 C 0.91359(13) 0.81565(9) 0.68435(9)
C75_5 C 0.92305(14) 0.82524(13) 0.70391(12)
H34_5 H 0.9157 0.8391 0.7111
C76_5 C 0.94306(13) 0.81547(13) 0.71373(12)
H35_5 H 0.9490 0.8217 0.7287
C77_5 C 0.95479(14) 0.79715(9) 0.70285(9)
C78_5 C 0.97829(15) 0.78612(12) 0.71388(12)
C79_5 C 0.97639(11) 0.76843(11) 0.73157(11)
C80_5 C 0.95486(11) 0.75869(6) 0.74131(6)
H36_5 H 0.9397 0.7646 0.7354
O14_5 O 0.88157(6) 0.81812(5) 0.65380(6)
C81_5 C 0.92305(14) 0.70391(12) 0.82524(13)
H37_5 H 0.9157 0.7111 0.8391
C82_5 C 0.94306(13) 0.71373(12) 0.81547(13)
H38_5 H 0.9490 0.7287 0.8217
O15_2 O 0.88157(6) 0.65380(6) 0.81812(5)
C85_5 C 0.92305(14) 0.79609(12) 0.67476(13)
H41_5 H 0.9157 0.7889 0.6609
C86_5 C 0.94306(13) 0.78627(12) 0.68453(13)
H42_5 H 0.9490 0.7713 0.6783
O17_5 O 0.88157(6) 0.84620(6) 0.68188(5)
O31_3 O 0.86617(11) 0.63383(11) 0.86617(11)
O32_3 O 0.83080(10) 0.66920(10) 0.83080(10)
C51_7 C -0.0000 0.29450(12) 0.79450(12)
H25_7 H -0.0000 0.3067 0.8067
C54_7 C -0.0000 0.25926(10) 0.75926(10)
C55_6 C 0.10942(17) 0.32764(11) 0.82764(11)
C56_6 C 0.08641(13) 0.31565(9) 0.81565(9)
C57_6 C 0.07695(14) 0.32524(13) 0.79609(12)
H27_6 H 0.0843 0.3391 0.7889
C58_6 C 0.05694(13) 0.31547(13) 0.78627(12)
H28_6 H 0.0510 0.3217 0.7713
C59_6 C 0.04521(14) 0.29715(9) 0.79715(9)
C60_6 C 0.02171(15) 0.28612(12) 0.78612(12)
C61_6 C 0.02361(11) 0.26843(11) 0.76843(11)
C62_6 C 0.04514(11) 0.25869(6) 0.75869(6)
H29_6 H 0.0603 0.2646 0.7646
C69_7 C -0.0000 0.20550(12) 0.70550(12)
H32_7 H -0.0000 0.1933 0.6933
C72_7 C -0.0000 0.24074(10) 0.74074(10)
C73_6 C 0.10942(17) 0.17236(11) 0.67236(11)
C74_6 C 0.08641(13) 0.18435(9) 0.68435(9)
C75_6 C 0.07695(14) 0.17476(13) 0.70391(12)
H34_6 H 0.0843 0.1609 0.7111
C76_6 C 0.05694(13) 0.18453(13) 0.71373(12)
H35_6 H 0.0510 0.1783 0.7287
C77_6 C 0.04521(14) 0.20285(9) 0.70285(9)
C78_6 C 0.02171(15) 0.21388(12) 0.71388(12)
C79_6 C 0.02361(11) 0.23157(11) 0.73157(11)
C80_6 C 0.04514(11) 0.24131(6) 0.74131(6)
H36_6 H 0.0603 0.2354 0.7354
O14_6 O 0.11843(6) 0.18188(5) 0.65380(6)
C81_6 C 0.07695(14) 0.29609(12) 0.82524(13)
H37_6 H 0.0843 0.2889 0.8391
C82_6 C 0.05694(13) 0.28627(12) 0.81547(13)
H38_6 H 0.0510 0.2713 0.8217
C85_6 C 0.07695(14) 0.20391(12) 0.67476(13)
H41_6 H 0.0843 0.2111 0.6609
C86_6 C 0.05694(13) 0.21373(12) 0.68453(13)
H42_6 H 0.0510 0.2287 0.6783
O17_6 O 0.11843(6) 0.15380(6) 0.68188(5)
O27_6 O 0.86617(11) 0.36617(11) 0.13383(11)
O28_6 O 0.83080(10) 0.33080(10) 0.16920(10)
O37_4 O 0.88157(6) 0.31812(5) 0.15380(6)
O42_4 O 0.88157(6) 0.34620(6) 0.18188(5)
O2_10 O 0.86617(11) 0.36617(11) 0.86617(11)
O3_10 O 0.83080(10) 0.33080(10) 0.83080(10)
C45_6 C 0.89058(17) 0.32764(11) 0.82764(11)
C46_6 C 0.91359(13) 0.31565(9) 0.81565(9)
C47_6 C 0.92305(14) 0.29609(12) 0.82524(13)
H23_6 H 0.9157 0.2889 0.8391
C48_6 C 0.94306(13) 0.28627(12) 0.81547(13)
H24_6 H 0.9490 0.2713 0.8217
C49_6 C 0.95479(14) 0.29715(9) 0.79715(9)
C50_6 C 0.97829(15) 0.28612(12) 0.78612(12)
C51_8 C 1.0000 0.29450(12) 0.79450(12)
H25_8 H 1.0000 0.3067 0.8067
C52_6 C 0.97639(11) 0.26843(11) 0.76843(11)
C53_6 C 0.95486(11) 0.25869(6) 0.75869(6)
H26_6 H 0.9397 0.2646 0.7646
C54_8 C 1.0000 0.25926(10) 0.75926(10)
O11_6 O 0.88157(6) 0.34620(6) 0.81812(5)
C63_6 C 0.89058(17) 0.17236(11) 0.67236(11)
C64_6 C 0.91359(13) 0.18435(9) 0.68435(9)
C65_6 C 0.92305(14) 0.20391(12) 0.67476(13)
H30_6 H 0.9157 0.2111 0.6609
C66_6 C 0.94306(13) 0.21373(12) 0.68453(13)
H31_6 H 0.9490 0.2287 0.6783
C67_6 C 0.95479(14) 0.20285(9) 0.70285(9)
C68_6 C 0.97829(15) 0.21388(12) 0.71388(12)
C69_8 C 1.0000 0.20550(12) 0.70550(12)
H32_8 H 1.0000 0.1933 0.6933
C70_6 C 0.97639(11) 0.23157(11) 0.73157(11)
C71_6 C 0.95486(11) 0.24131(6) 0.74131(6)
H33_6 H 0.9397 0.2354 0.7354
C72_8 C 1.0000 0.24074(10) 0.74074(10)
O13_6 O 0.88157(6) 0.15380(6) 0.68188(5)
C83_6 C 0.92305(14) 0.32524(13) 0.79609(12)
H39_6 H 0.9157 0.3391 0.7889
C84_6 C 0.94306(13) 0.31547(13) 0.78627(12)
H40_6 H 0.9490 0.3217 0.7713
O16_6 O 0.88157(6) 0.31812(5) 0.84620(6)
C87_6 C 0.92305(14) 0.17476(13) 0.70391(12)
H43_6 H 0.9157 0.1609 0.7111
C88_6 C 0.94306(13) 0.18453(13) 0.71373(12)
H44_6 H 0.9490 0.1783 0.7287
O18_6 O 0.88157(6) 0.18188(5) 0.65380(6)
C51_9 C -0.0000 0.70550(12) 0.20550(12)
H25_9 H -0.0000 0.6933 0.1933
C54_9 C -0.0000 0.74074(10) 0.24074(10)
C55_7 C 0.10942(17) 0.67236(11) 0.17236(11)
C56_7 C 0.08641(13) 0.68435(9) 0.18435(9)
C57_7 C 0.07695(14) 0.67476(13) 0.20391(12)
H27_7 H 0.0843 0.6609 0.2111
C58_7 C 0.05694(13) 0.68453(13) 0.21373(12)
H28_7 H 0.0510 0.6783 0.2287
C59_7 C 0.04521(14) 0.70285(9) 0.20285(9)
C60_7 C 0.02171(15) 0.71388(12) 0.21388(12)
C61_7 C 0.02361(11) 0.73157(11) 0.23157(11)
C62_7 C 0.04514(11) 0.74131(6) 0.24131(6)
H29_7 H 0.0603 0.7354 0.2354
C69_9 C -0.0000 0.79450(12) 0.29450(12)
H32_9 H -0.0000 0.8067 0.3067
C72_9 C -0.0000 0.75926(10) 0.25926(10)
C73_7 C 0.10942(17) 0.82764(11) 0.32764(11)
C74_7 C 0.08641(13) 0.81565(9) 0.31565(9)
C75_7 C 0.07695(14) 0.82524(13) 0.29609(12)
H34_7 H 0.0843 0.8391 0.2889
C76_7 C 0.05694(13) 0.81547(13) 0.28627(12)
H35_7 H 0.0510 0.8217 0.2713
C77_7 C 0.04521(14) 0.79715(9) 0.29715(9)
C78_7 C 0.02171(15) 0.78612(12) 0.28612(12)
C79_7 C 0.02361(11) 0.76843(11) 0.26843(11)
C80_7 C 0.04514(11) 0.75869(6) 0.25869(6)
H36_7 H 0.0603 0.7646 0.2646
O14_7 O 0.11843(6) 0.81812(5) 0.34620(6)
C81_7 C 0.07695(14) 0.70391(12) 0.17476(13)
H37_7 H 0.0843 0.7111 0.1609
C82_7 C 0.05694(13) 0.71373(12) 0.18453(13)
H38_7 H 0.0510 0.7287 0.1783
C85_7 C 0.07695(14) 0.79609(12) 0.32524(13)
H41_7 H 0.0843 0.7889 0.3391
C86_7 C 0.05694(13) 0.78627(12) 0.31547(13)
H42_7 H 0.0510 0.7713 0.3217
O17_7 O 0.11843(6) 0.84620(6) 0.31812(5)
O2_11 O 0.86617(11) 0.63383(11) 0.13383(11)
O3_11 O 0.83080(10) 0.66920(10) 0.16920(10)
C45_7 C 0.89058(17) 0.67236(11) 0.17236(11)
C46_7 C 0.91359(13) 0.68435(9) 0.18435(9)
C47_7 C 0.92305(14) 0.70391(12) 0.17476(13)
H23_7 H 0.9157 0.7111 0.1609
C48_7 C 0.94306(13) 0.71373(12) 0.18453(13)
H24_7 H 0.9490 0.7287 0.1783
C49_7 C 0.95479(14) 0.70285(9) 0.20285(9)
C50_7 C 0.97829(15) 0.71388(12) 0.21388(12)
C51_10 C 1.0000 0.70550(12) 0.20550(12)
H25_10 H 1.0000 0.6933 0.1933
C52_7 C 0.97639(11) 0.73157(11) 0.23157(11)
C53_7 C 0.95486(11) 0.74131(6) 0.24131(6)
H26_7 H 0.9397 0.7354 0.2354
C54_10 C 1.0000 0.74074(10) 0.24074(10)
O11_7 O 0.88157(6) 0.65380(6) 0.18188(5)
C63_7 C 0.89058(17) 0.82764(11) 0.32764(11)
C64_7 C 0.91359(13) 0.81565(9) 0.31565(9)
C65_7 C 0.92305(14) 0.79609(12) 0.32524(13)
H30_7 H 0.9157 0.7889 0.3391
C66_7 C 0.94306(13) 0.78627(12) 0.31547(13)
H31_7 H 0.9490 0.7713 0.3217
C67_7 C 0.95479(14) 0.79715(9) 0.29715(9)
C68_7 C 0.97829(15) 0.78612(12) 0.28612(12)
C69_10 C 1.0000 0.79450(12) 0.29450(12)
H32_10 H 1.0000 0.8067 0.3067
C70_7 C 0.97639(11) 0.76843(11) 0.26843(11)
C71_7 C 0.95486(11) 0.75869(6) 0.25869(6)
H33_7 H 0.9397 0.7646 0.2646
C72_10 C 1.0000 0.75926(10) 0.25926(10)
O13_7 O 0.88157(6) 0.84620(6) 0.31812(5)
C83_7 C 0.92305(14) 0.67476(13) 0.20391(12)
H39_7 H 0.9157 0.6609 0.2111
C84_7 C 0.94306(13) 0.68453(13) 0.21373(12)
H40_7 H 0.9490 0.6783 0.2287
O16_7 O 0.88157(6) 0.68188(5) 0.15380(6)
C87_7 C 0.92305(14) 0.82524(13) 0.29609(12)
H43_7 H 0.9157 0.8391 0.2889
C88_7 C 0.94306(13) 0.81547(13) 0.28627(12)
H44_7 H 0.9490 0.8217 0.2713
O18_7 O 0.88157(6) 0.81812(5) 0.34620(6)
O2_12 O 0.13383(11) 0.36617(11) 0.13383(11)
O3_12 O 0.16920(10) 0.33080(10) 0.16920(10)
C45_8 C 0.10942(17) 0.32764(11) 0.17236(11)
C46_8 C 0.08641(13) 0.31565(9) 0.18435(9)
C47_8 C 0.07695(14) 0.29609(12) 0.17476(13)
H23_8 H 0.0843 0.2889 0.1609
C48_8 C 0.05694(13) 0.28627(12) 0.18453(13)
H24_8 H 0.0510 0.2713 0.1783
C49_8 C 0.04521(14) 0.29715(9) 0.20285(9)
C50_8 C 0.02171(15) 0.28612(12) 0.21388(12)
C51_11 C 0.0000 0.29450(12) 0.20550(12)
H25_11 H 0.0000 0.3067 0.1933
C52_8 C 0.02361(11) 0.26843(11) 0.23157(11)
C53_8 C 0.04514(11) 0.25869(6) 0.24131(6)
H26_8 H 0.0603 0.2646 0.2354
C54_11 C 0.0000 0.25926(10) 0.24074(10)
O11_8 O 0.11843(6) 0.34620(6) 0.18188(5)
C63_8 C 0.10942(17) 0.17236(11) 0.32764(11)
C64_8 C 0.08641(13) 0.18435(9) 0.31565(9)
C65_8 C 0.07695(14) 0.20391(12) 0.32524(13)
H30_8 H 0.0843 0.2111 0.3391
C66_8 C 0.05694(13) 0.21373(12) 0.31547(13)
H31_8 H 0.0510 0.2287 0.3217
C67_8 C 0.04521(14) 0.20285(9) 0.29715(9)
C68_8 C 0.02171(15) 0.21388(12) 0.28612(12)
C69_11 C 0.0000 0.20550(12) 0.29450(12)
H32_11 H 0.0000 0.1933 0.3067
C70_8 C 0.02361(11) 0.23157(11) 0.26843(11)
C71_8 C 0.04514(11) 0.24131(6) 0.25869(6)
H33_8 H 0.0603 0.2354 0.2646
C72_11 C 0.0000 0.24074(10) 0.25926(10)
O13_8 O 0.11843(6) 0.15380(6) 0.31812(5)
C83_8 C 0.07695(14) 0.32524(13) 0.20391(12)
H39_8 H 0.0843 0.3391 0.2111
C84_8 C 0.05694(13) 0.31547(13) 0.21373(12)
H40_8 H 0.0510 0.3217 0.2287
O16_8 O 0.11843(6) 0.31812(5) 0.15380(6)
C87_8 C 0.07695(14) 0.17476(13) 0.29609(12)
H43_8 H 0.0843 0.1609 0.2889
C88_8 C 0.05694(13) 0.18453(13) 0.28627(12)
H44_8 H 0.0510 0.1783 0.2713
O18_8 O 0.11843(6) 0.18188(5) 0.34620(6)
C51_12 C 1.0000 0.29450(12) 0.20550(12)
H25_12 H 1.0000 0.3067 0.1933
C54_12 C 1.0000 0.25926(10) 0.24074(10)
C55_8 C 0.89058(17) 0.32764(11) 0.17236(11)
C56_8 C 0.91359(13) 0.31565(9) 0.18435(9)
C57_8 C 0.92305(14) 0.32524(13) 0.20391(12)
H27_8 H 0.9157 0.3391 0.2111
C58_8 C 0.94306(13) 0.31547(13) 0.21373(12)
H28_8 H 0.9490 0.3217 0.2287
C59_8 C 0.95479(14) 0.29715(9) 0.20285(9)
C60_8 C 0.97829(15) 0.28612(12) 0.21388(12)
C61_8 C 0.97639(11) 0.26843(11) 0.23157(11)
C62_8 C 0.95486(11) 0.25869(6) 0.24131(6)
H29_8 H 0.9397 0.2646 0.2354
C69_12 C 1.0000 0.20550(12) 0.29450(12)
H32_12 H 1.0000 0.1933 0.3067
C72_12 C 1.0000 0.24074(10) 0.25926(10)
C73_8 C 0.89058(17) 0.17236(11) 0.32764(11)
C74_8 C 0.91359(13) 0.18435(9) 0.31565(9)
C75_8 C 0.92305(14) 0.17476(13) 0.29609(12)
H34_8 H 0.9157 0.1609 0.2889
C76_8 C 0.94306(13) 0.18453(13) 0.28627(12)
H35_8 H 0.9490 0.1783 0.2713
C77_8 C 0.95479(14) 0.20285(9) 0.29715(9)
C78_8 C 0.97829(15) 0.21388(12) 0.28612(12)
C79_8 C 0.97639(11) 0.23157(11) 0.26843(11)
C80_8 C 0.95486(11) 0.24131(6) 0.25869(6)
H36_8 H 0.9397 0.2354 0.2646
O14_8 O 0.88157(6) 0.18188(5) 0.34620(6)
C81_8 C 0.92305(14) 0.29609(12) 0.17476(13)
H37_8 H 0.9157 0.2889 0.1609
C82_8 C 0.94306(13) 0.28627(12) 0.18453(13)
H38_8 H 0.9490 0.2713 0.1783
C85_8 C 0.92305(14) 0.20391(12) 0.32524(13)
H41_8 H 0.9157 0.2111 0.3391
C86_8 C 0.94306(13) 0.21373(12) 0.31547(13)
H42_8 H 0.9490 0.2287 0.3217
O17_8 O 0.88157(6) 0.15380(6) 0.31812(5)
O2_13 O 0.13383(11) 0.13383(11) 0.36617(11)
O3_13 O 0.16920(10) 0.16920(10) 0.33080(10)
O27_7 O 0.13383(11) 0.13383(11) 0.63383(11)
O28_7 O 0.16920(10) 0.16920(10) 0.66920(10)
O29_4 O 0.13383(11) 0.86617(11) 0.36617(11)
O30_4 O 0.16920(10) 0.83080(10) 0.33080(10)
O31_4 O 0.86617(11) 0.13383(11) 0.36617(11)
O32_4 O 0.83080(10) 0.16920(10) 0.33080(10)
O2_14 O 0.86617(11) 0.86617(11) 0.36617(11)
O3_14 O 0.83080(10) 0.83080(10) 0.33080(10)
O27_8 O 0.86617(11) 0.86617(11) 0.63383(11)
O28_8 O 0.83080(10) 0.83080(10) 0.66920(10)
O2_15 O 0.86617(11) 0.13383(11) 0.63383(11)
O3_15 O 0.83080(10) 0.16920(10) 0.66920(10)
O2_16 O 0.13383(11) 0.86617(11) 0.63383(11)
O3_16 O 0.16920(10) 0.83080(10) 0.66920(10)
loop_
_geom_bond_atom_site_label_1
_geom_bond_atom_site_label_2
_geom_bond_site_symmetry_1
_geom_bond_site_symmetry_2
C1 C2 1_555 1_555
C2 C3 1_555 1_555
C3 H1 1_555 1_555
C4 C3 1_555 1_555
H2 C4 1_555 1_555
C5 C4 1_555 1_555
C6 C5 1_555 1_555
C7 C6 1_555 1_555
H3 C7 1_555 1_555
C8 C6 1_555 1_555
C9 C8 1_555 1_555
H4 C9 1_555 1_555
C10 C8 1_555 1_555
O1 C1 1_555 1_555
O2 U1 1_555 1_555
O3 U1 1_555 1_555
U1 O1 1_555 1_555
C11 C12 1_555 1_555
C12 C13 1_555 1_555
C13 H5 1_555 1_555
C14 C13 1_555 1_555
H6 C14 1_555 1_555
C15 C14 1_555 1_555
C16 C7 1_555 1_555
C17 C10 1_555 1_555
C18 C17 1_555 1_555
H7 C18 1_555 1_555
O4 C11 1_555 1_555
C19 C20 1_555 1_555
C20 C21 1_555 1_555
C21 H8 1_555 1_555
C22 C21 1_555 1_555
H9 C22 1_555 1_555
C23 C22 1_555 1_555
C24 C23 1_555 1_555
C25 C24 1_555 1_555
H10 C25 1_555 1_555
C26 C24 1_555 1_555
C27 C9 1_555 1_555
H11 C27 1_555 1_555
C28 C10 1_555 1_555
O5 C19 1_555 1_555
C29 C30 1_555 1_555
C30 C31 1_555 1_555
C31 H12 1_555 1_555
C32 C31 1_555 1_555
H13 C32 1_555 1_555
C33 C32 1_555 1_555
C34 C25 1_555 1_555
C35 C28 1_555 1_555
C36 C18 1_555 1_555
H14 C36 1_555 1_555
O6 C29 1_555 1_555
C37 C12 1_555 1_555
H15 C37 1_555 1_555
C38 C15 1_555 1_555
H16 C38 1_555 1_555
O7 C11 1_555 1_555
C39 C2 1_555 1_555
H17 C39 1_555 1_555
C40 C5 1_555 1_555
H18 C40 1_555 1_555
O8 C1 1_555 1_555
C41 C30 1_555 1_555
H19 C41 1_555 1_555
C42 C33 1_555 1_555
H20 C42 1_555 1_555
O9 C29 1_555 1_555
C43 C20 1_555 1_555
H21 C43 1_555 1_555
C44 C23 1_555 1_555
H22 C44 1_555 1_555
O10 C19 1_555 1_555
C45 C46 1_555 1_555
C46 C47 1_555 1_555
C47 H23 1_555 1_555
C48 C47 1_555 1_555
H24 C48 1_555 1_555
C49 C48 1_555 1_555
C50 C49 1_555 1_555
C51 C50 1_555 1_555
H25 C51 1_555 1_555
C52 C50 1_555 1_555
C53 C52 1_555 1_555
H26 C53 1_555 1_555
C54 C52 1_555 1_555
O11 U1 1_555 1_555
C55 C56 1_555 1_555
C56 C57 1_555 1_555
C57 H27 1_555 1_555
C58 C57 1_555 1_555
H28 C58 1_555 1_555
C59 C58 1_555 1_555
C60 C51 1_555 1_555
C61 C54 1_555 1_555
C62 C61 1_555 1_555
H29 C62 1_555 1_555
O12 C55 1_555 1_555
C63 C64 1_555 1_555
C64 C65 1_555 1_555
C65 H30 1_555 1_555
C66 C65 1_555 1_555
H31 C66 1_555 1_555
C67 C66 1_555 1_555
C68 C67 1_555 1_555
C69 C68 1_555 1_555
H32 C69 1_555 1_555
C70 C68 1_555 1_555
C71 C53 1_555 1_555
H33 C71 1_555 1_555
C72 C54 1_555 1_555
O13 C63 1_555 1_555
C73 C74 1_555 1_555
C74 C75 1_555 1_555
C75 H34 1_555 1_555
C76 C75 1_555 1_555
H35 C76 1_555 1_555
C77 C76 1_555 1_555
C78 C69 1_555 1_555
C79 C72 1_555 1_555
C80 C62 1_555 1_555
H36 C80 1_555 1_555
O14 C73 1_555 1_555
C81 C56 1_555 1_555
H37 C81 1_555 1_555
C82 C59 1_555 1_555
H38 C82 1_555 1_555
O15 C55 1_555 1_555
C83 C46 1_555 1_555
H39 C83 1_555 1_555
C84 C49 1_555 1_555
H40 C84 1_555 1_555
O16 U1 1_555 1_555
C85 C74 1_555 1_555
H41 C85 1_555 1_555
C86 C77 1_555 1_555
H42 C86 1_555 1_555
O17 C73 1_555 1_555
C87 C64 1_555 1_555
H43 C87 1_555 1_555
C88 C67 1_555 1_555
H44 C88 1_555 1_555
O18 C63 1_555 1_555
C89 C90 1_555 1_555
C90 C91 1_555 1_555
C91 H45 1_555 1_555
C92 C91 1_555 1_555
H46 C92 1_555 1_555
C93 C92 1_555 1_555
C94 C93 1_555 1_555
C95 C94 1_555 1_555
H47 C95 1_555 1_555
C96 C94 1_555 1_555
C97 C96 1_555 1_555
H48 C97 1_555 1_555
C98 C96 1_555 1_555
O19 U1 1_555 1_555
C99 C100 1_555 1_555
C100 C101 1_555 1_555
C101 H49 1_555 1_555
C102 C101 1_555 1_555
H50 C102 1_555 1_555
C103 C102 1_555 1_555
C104 C95 1_555 1_555
C105 C98 1_555 1_555
C106 C105 1_555 1_555
H51 C106 1_555 1_555
O20 C99 1_555 1_555
C107 C108 1_555 1_555
C108 C109 1_555 1_555
C109 H52 1_555 1_555
C110 C109 1_555 1_555
H53 C110 1_555 1_555
C111 C110 1_555 1_555
C112 C111 1_555 1_555
C113 C112 1_555 1_555
H54 C113 1_555 1_555
C114 C112 1_555 1_555
C115 C97 1_555 1_555
H55 C115 1_555 1_555
C116 C98 1_555 1_555
O21 C107 1_555 1_555
C117 C118 1_555 1_555
C118 C119 1_555 1_555
C119 H56 1_555 1_555
C120 C119 1_555 1_555
H57 C120 1_555 1_555
C121 C120 1_555 1_555
C122 C113 1_555 1_555
C123 C116 1_555 1_555
C124 C106 1_555 1_555
H58 C124 1_555 1_555
O22 C117 1_555 1_555
C125 C100 1_555 1_555
H59 C125 1_555 1_555
C126 C103 1_555 1_555
H60 C126 1_555 1_555
O23 C99 1_555 1_555
C127 C90 1_555 1_555
H61 C127 1_555 1_555
C128 C93 1_555 1_555
H62 C128 1_555 1_555
O24 U1 1_555 1_555
C129 C118 1_555 1_555
H63 C129 1_555 1_555
C130 C121 1_555 1_555
H64 C130 1_555 1_555
O25 C117 1_555 1_555
C131 C108 1_555 1_555
H65 C131 1_555 1_555
C132 C111 1_555 1_555
H66 C132 1_555 1_555
O26 C107 1_555 1_555
O27 U2 1_555 1_555
O28 U2 1_555 1_555
U2 O4 1_555 1_555
O29 U3 1_555 1_555
O30 U3 1_555 1_555
U3 O20 1_555 1_555
O31 U4 1_555 1_555
O32 U4 1_555 1_555
U4 O12 1_555 1_555
O33 U3 1_555 1_555
O34 U4 1_555 1_555
O35 U4 1_555 1_555
O36 U2 1_555 1_555
O37 U2 1_555 1_555
O38 U3 1_555 1_555
O39 U3 1_555 1_555
O40 U4 1_555 1_555
O41 U3 1_555 1_555
O42 U2 1_555 1_555
O43 U4 1_555 1_555
O44 U2 1_555 1_555
U5 O13 1_555 1_555
U6 O14 1_555 1_555
U7 O21 1_555 1_555
U8 O22 1_555 1_555
U9 O5 1_555 1_555
U10 O6 1_555 1_555
U1 O8 1_555 1_555
C15 C16 1_555 1_555
C16 C17 1_555 1_555
C26 C27 1_555 1_555
C26 C28 1_555 1_555
C33 C34 1_555 1_555
C34 C35 1_555 1_555
C35 C36 1_555 1_555
C37 C38 1_555 1_555
O7 U2 1_555 1_555
C39 C40 1_555 1_555
C41 C42 1_555 1_555
O9 U10 1_555 1_555
C43 C44 1_555 1_555
O10 U9 1_555 1_555
C45 O11 1_555 1_555
C45 O16 1_555 1_555
C59 C60 1_555 1_555
C60 C61 1_555 1_555
C70 C71 1_555 1_555
C70 C72 1_555 1_555
C77 C78 1_555 1_555
C78 C79 1_555 1_555
C79 C80 1_555 1_555
C81 C82 1_555 1_555
O15 U4 1_555 1_555
C83 C84 1_555 1_555
C85 C86 1_555 1_555
O17 U6 1_555 1_555
C87 C88 1_555 1_555
O18 U5 1_555 1_555
C89 O19 1_555 1_555
C89 O24 1_555 1_555
C103 C104 1_555 1_555
C104 C105 1_555 1_555
C114 C115 1_555 1_555
C114 C116 1_555 1_555
C121 C122 1_555 1_555
C122 C123 1_555 1_555
C123 C124 1_555 1_555
C125 C126 1_555 1_555
O23 U3 1_555 1_555
C127 C128 1_555 1_555
C129 C130 1_555 1_555
O25 U8 1_555 1_555
C131 C132 1_555 1_555
O26 U7 1_555 1_555
C1_2 C2_2 1_555 1_555
C2_2 C3_2 1_555 1_555
C3_2 H1_2 1_555 1_555
C4_2 C3_2 1_555 1_555
H2_2 C4_2 1_555 1_555
C5_2 C4_2 1_555 1_555
C6_2 C5_2 1_555 1_555
C7_2 C6_2 1_555 1_555
H3_2 C7_2 1_555 1_555
C8_2 C6_2 1_555 1_555
C9_2 C8_2 1_555 1_555
H4_2 C9_2 1_555 1_555
C10_2 C8_2 1_555 1_555
O1_2 C1_2 1_555 1_555
O2_2 U1_2 1_555 1_555
O3_2 U1_2 1_555 1_555
U1_2 O1_2 1_555 1_555
C11_2 C12_2 1_555 1_555
C12_2 C13_2 1_555 1_555
C13_2 H5_2 1_555 1_555
C14_2 C13_2 1_555 1_555
H6_2 C14_2 1_555 1_555
C15_2 C14_2 1_555 1_555
C16_2 C7_2 1_555 1_555
C17_2 C10_2 1_555 1_555
C18_2 C17_2 1_555 1_555
H7_2 C18_2 1_555 1_555
O4_2 C11_2 1_555 1_555
C19_2 C20_2 1_555 1_555
C20_2 C21_2 1_555 1_555
C21_2 H8_2 1_555 1_555
C22_2 C21_2 1_555 1_555
H9_2 C22_2 1_555 1_555
C23_2 C22_2 1_555 1_555
C24_2 C23_2 1_555 1_555
C25_2 C24_2 1_555 1_555
H10_2 C25_2 1_555 1_555
C26_2 C24_2 1_555 1_555
C27_2 C9_2 1_555 1_555
H11_2 C27_2 1_555 1_555
C28_2 C10_2 1_555 1_555
O5_2 C19_2 1_555 1_555
C29_2 C30_2 1_555 1_555
C30_2 C31_2 1_555 1_555
C31_2 H12_2 1_555 1_555
C32_2 C31_2 1_555 1_555
H13_2 C32_2 1_555 1_555
C33_2 C32_2 1_555 1_555
C34_2 C25_2 1_555 1_555
C35_2 C28_2 1_555 1_555
C36_2 C18_2 1_555 1_555
H14_2 C36_2 1_555 1_555
O6_2 C29_2 1_555 1_555
C37_2 C12_2 1_555 1_555
H15_2 C37_2 1_555 1_555
C38_2 C15_2 1_555 1_555
H16_2 C38_2 1_555 1_555
O7_2 C11_2 1_555 1_555
C39_2 C2_2 1_555 1_555
H17_2 C39_2 1_555 1_555
C40_2 C5_2 1_555 1_555
H18_2 C40_2 1_555 1_555
O8_2 C1_2 1_555 1_555
C41_2 C30_2 1_555 1_555
H19_2 C41_2 1_555 1_555
C42_2 C33_2 1_555 1_555
H20_2 C42_2 1_555 1_555
O9_2 C29_2 1_555 1_555
C43_2 C20_2 1_555 1_555
H21_2 C43_2 1_555 1_555
C44_2 C23_2 1_555 1_555
H22_2 C44_2 1_555 1_555
O10_2 C19_2 1_555 1_555
C45_2 C46_2 1_555 1_555
C46_2 C47_2 1_555 1_555
C47_2 H23_2 1_555 1_555
C48_2 C47_2 1_555 1_555
H24_2 C48_2 1_555 1_555
C49_2 C48_2 1_555 1_555
C50_2 C49_2 1_555 1_555
C51_2 C50_2 1_555 1_555
H25_2 C51_2 1_555 1_555
C52_2 C50_2 1_555 1_555
C53_2 C52_2 1_555 1_555
H26_2 C53_2 1_555 1_555
C54_2 C52_2 1_555 1_555
O11_2 U1_2 1_555 1_555
C55_2 C56_2 1_555 1_555
C56_2 C57_2 1_555 1_555
C57_2 H27_2 1_555 1_555
C58_2 C57_2 1_555 1_555
H28_2 C58_2 1_555 1_555
C59_2 C58_2 1_555 1_555
C60_2 C51_2 1_555 1_555
C61_2 C54_2 1_555 1_555
C62_2 C61_2 1_555 1_555
H29_2 C62_2 1_555 1_555
O38 C55_2 1_555 1_555
C63_2 C64_2 1_555 1_555
C64_2 C65_2 1_555 1_555
C65_2 H30_2 1_555 1_555
C66_2 C65_2 1_555 1_555
H31_2 C66_2 1_555 1_555
C67_2 C66_2 1_555 1_555
C68_2 C67_2 1_555 1_555
C69_2 C68_2 1_555 1_555
H32_2 C69_2 1_555 1_555
C70_2 C68_2 1_555 1_555
C71_2 C53_2 1_555 1_555
H33_2 C71_2 1_555 1_555
C72_2 C54_2 1_555 1_555
O13_2 C63_2 1_555 1_555
C73_2 C74_2 1_555 1_555
C74_2 C75_2 1_555 1_555
C75_2 H34_2 1_555 1_555
C76_2 C75_2 1_555 1_555
H35_2 C76_2 1_555 1_555
C77_2 C76_2 1_555 1_555
C78_2 C69_2 1_555 1_555
C79_2 C72_2 1_555 1_555
C80_2 C62_2 1_555 1_555
H36_2 C80_2 1_555 1_555
O14_2 C73_2 1_555 1_555
C81_2 C56_2 1_555 1_555
H37_2 C81_2 1_555 1_555
C82_2 C59_2 1_555 1_555
H38_2 C82_2 1_555 1_555
O41 C55_2 1_555 1_555
C83_2 C46_2 1_555 1_555
H39_2 C83_2 1_555 1_555
C84_2 C49_2 1_555 1_555
H40_2 C84_2 1_555 1_555
O16_2 U1_2 1_555 1_555
C85_2 C74_2 1_555 1_555
H41_2 C85_2 1_555 1_555
C86_2 C77_2 1_555 1_555
H42_2 C86_2 1_555 1_555
O17_2 C73_2 1_555 1_555
C87_2 C64_2 1_555 1_555
H43_2 C87_2 1_555 1_555
C88_2 C67_2 1_555 1_555
H44_2 C88_2 1_555 1_555
O18_2 C63_2 1_555 1_555
C89_2 C90_2 1_555 1_555
C90_2 C91_2 1_555 1_555
C91_2 H45_2 1_555 1_555
C92_2 C91_2 1_555 1_555
H46_2 C92_2 1_555 1_555
C93_2 C92_2 1_555 1_555
C94_2 C93_2 1_555 1_555
C95_2 C94_2 1_555 1_555
H47_2 C95_2 1_555 1_555
C96_2 C94_2 1_555 1_555
C97_2 C96_2 1_555 1_555
H48_2 C97_2 1_555 1_555
C98_2 C96_2 1_555 1_555
O19_2 U1_2 1_555 1_555
C99_2 C100_2 1_555 1_555
C100_2 C101_2 1_555 1_555
C101_2 H49_2 1_555 1_555
C102_2 C101_2 1_555 1_555
H50_2 C102_2 1_555 1_555
C103_2 C102_2 1_555 1_555
C104_2 C95_2 1_555 1_555
C105_2 C98_2 1_555 1_555
C106_2 C105_2 1_555 1_555
H51_2 C106_2 1_555 1_555
O35 C99_2 1_555 1_555
C107_2 C108_2 1_555 1_555
C108_2 C109_2 1_555 1_555
C109_2 H52_2 1_555 1_555
C110_2 C109_2 1_555 1_555
H53_2 C110_2 1_555 1_555
C111_2 C110_2 1_555 1_555
C112_2 C111_2 1_555 1_555
C113_2 C112_2 1_555 1_555
H54_2 C113_2 1_555 1_555
C114_2 C112_2 1_555 1_555
C115_2 C97_2 1_555 1_555
H55_2 C115_2 1_555 1_555
C116_2 C98_2 1_555 1_555
O21_2 C107_2 1_555 1_555
C117_2 C118_2 1_555 1_555
C118_2 C119_2 1_555 1_555
C119_2 H56_2 1_555 1_555
C120_2 C119_2 1_555 1_555
H57_2 C120_2 1_555 1_555
C121_2 C120_2 1_555 1_555
C122_2 C113_2 1_555 1_555
C123_2 C116_2 1_555 1_555
C124_2 C106_2 1_555 1_555
H58_2 C124_2 1_555 1_555
O22_2 C117_2 1_555 1_555
C125_2 C100_2 1_555 1_555
H59_2 C125_2 1_555 1_555
C126_2 C103_2 1_555 1_555
H60_2 C126_2 1_555 1_555
O43 C99_2 1_555 1_555
C127_2 C90_2 1_555 1_555
H61_2 C127_2 1_555 1_555
C128_2 C93_2 1_555 1_555
H62_2 C128_2 1_555 1_555
O24_2 U1_2 1_555 1_555
C129_2 C118_2 1_555 1_555
H63_2 C129_2 1_555 1_555
C130_2 C121_2 1_555 1_555
H64_2 C130_2 1_555 1_555
O25_2 C117_2 1_555 1_555
C131_2 C108_2 1_555 1_555
H65_2 C131_2 1_555 1_555
C132_2 C111_2 1_555 1_555
H66_2 C132_2 1_555 1_555
O26_2 C107_2 1_555 1_555
O27_2 U2_2 1_555 1_555
O28_2 U2_2 1_555 1_555
U2_2 O4_2 1_555 1_555
O36_2 U2_2 1_555 1_555
O37_2 U2_2 1_555 1_555
O42_2 U2_2 1_555 1_555
O44_2 U2_2 1_555 1_555
U5_2 O13_2 1_555 1_555
U6_2 O14_2 1_555 1_555
U7_2 O21_2 1_555 1_555
U8_2 O22_2 1_555 1_555
U9_2 O5_2 1_555 1_555
U10_2 O6_2 1_555 1_555
U1_2 O8_2 1_555 1_555
C15_2 C16_2 1_555 1_555
C16_2 C17_2 1_555 1_555
C26_2 C27_2 1_555 1_555
C26_2 C28_2 1_555 1_555
C33_2 C34_2 1_555 1_555
C34_2 C35_2 1_555 1_555
C35_2 C36_2 1_555 1_555
C37_2 C38_2 1_555 1_555
O7_2 U2_2 1_555 1_555
C39_2 C40_2 1_555 1_555
C41_2 C42_2 1_555 1_555
O9_2 U10_2 1_555 1_555
C43_2 C44_2 1_555 1_555
O10_2 U9_2 1_555 1_555
C45_2 O11_2 1_555 1_555
C45_2 O16_2 1_555 1_555
C59_2 C60_2 1_555 1_555
C60_2 C61_2 1_555 1_555
C70_2 C71_2 1_555 1_555
C70_2 C72_2 1_555 1_555
C77_2 C78_2 1_555 1_555
C78_2 C79_2 1_555 1_555
C79_2 C80_2 1_555 1_555
C81_2 C82_2 1_555 1_555
C83_2 C84_2 1_555 1_555
C85_2 C86_2 1_555 1_555
O17_2 U6_2 1_555 1_555
C87_2 C88_2 1_555 1_555
O18_2 U5_2 1_555 1_555
C89_2 O19_2 1_555 1_555
C89_2 O24_2 1_555 1_555
C103_2 C104_2 1_555 1_555
C104_2 C105_2 1_555 1_555
C114_2 C115_2 1_555 1_555
C114_2 C116_2 1_555 1_555
C121_2 C122_2 1_555 1_555
C122_2 C123_2 1_555 1_555
C123_2 C124_2 1_555 1_555
C125_2 C126_2 1_555 1_555
C127_2 C128_2 1_555 1_555
C129_2 C130_2 1_555 1_555
O25_2 U8_2 1_555 1_555
C131_2 C132_2 1_555 1_555
O26_2 U7_2 1_555 1_555
C1_3 C2_3 1_555 1_555
C2_3 C3_3 1_555 1_555
C3_3 H1_3 1_555 1_555
C4_3 C3_3 1_555 1_555
H2_3 C4_3 1_555 1_555
C5_3 C4_3 1_555 1_555
C6_3 C5_3 1_555 1_555
C7_3 C6_3 1_555 1_555
H3_3 C7_3 1_555 1_555
C8_3 C6_3 1_555 1_555
C9_3 C8_3 1_555 1_555
H4_3 C9_3 1_555 1_555
C10_3 C8_3 1_555 1_555
O1_3 C1_3 1_555 1_555
O2_3 U1_3 1_555 1_555
O3_3 U1_3 1_555 1_555
U1_3 O1_3 1_555 1_555
C11_3 C12_3 1_555 1_555
C12_3 C13_3 1_555 1_555
C13_3 H5_3 1_555 1_555
C14_3 C13_3 1_555 1_555
H6_3 C14_3 1_555 1_555
C15_3 C14_3 1_555 1_555
C16_3 C7_3 1_555 1_555
C17_3 C10_3 1_555 1_555
C18_3 C17_3 1_555 1_555
H7_3 C18_3 1_555 1_555
O34 C11_3 1_555 1_555
C19_3 C20_3 1_555 1_555
C20_3 C21_3 1_555 1_555
C21_3 H8_3 1_555 1_555
C22_3 C21_3 1_555 1_555
H9_3 C22_3 1_555 1_555
C23_3 C22_3 1_555 1_555
C24_3 C23_3 1_555 1_555
C25_3 C24_3 1_555 1_555
H10_3 C25_3 1_555 1_555
C26_3 C24_3 1_555 1_555
C27_3 C9_3 1_555 1_555
H11_3 C27_3 1_555 1_555
C28_3 C10_3 1_555 1_555
O5_3 C19_3 1_555 1_555
C29_3 C30_3 1_555 1_555
C30_3 C31_3 1_555 1_555
C31_3 H12_3 1_555 1_555
C32_3 C31_3 1_555 1_555
H13_3 C32_3 1_555 1_555
C33_3 C32_3 1_555 1_555
C34_3 C25_3 1_555 1_555
C35_3 C28_3 1_555 1_555
C36_3 C18_3 1_555 1_555
H14_3 C36_3 1_555 1_555
O6_3 C29_3 1_555 1_555
C37_3 C12_3 1_555 1_555
H15_3 C37_3 1_555 1_555
C38_3 C15_3 1_555 1_555
H16_3 C38_3 1_555 1_555
O40 C11_3 1_555 1_555
C39_3 C2_3 1_555 1_555
H17_3 C39_3 1_555 1_555
C40_3 C5_3 1_555 1_555
H18_3 C40_3 1_555 1_555
O8_3 C1_3 1_555 1_555
C41_3 C30_3 1_555 1_555
H19_3 C41_3 1_555 1_555
C42_3 C33_3 1_555 1_555
H20_3 C42_3 1_555 1_555
O9_3 C29_3 1_555 1_555
C43_3 C20_3 1_555 1_555
H21_3 C43_3 1_555 1_555
C44_3 C23_3 1_555 1_555
H22_3 C44_3 1_555 1_555
O10_3 C19_3 1_555 1_555
C45_3 C46_3 1_555 1_555
C46_3 C47_3 1_555 1_555
C47_3 H23_3 1_555 1_555
C48_3 C47_3 1_555 1_555
H24_3 C48_3 1_555 1_555
C49_3 C48_3 1_555 1_555
C50_3 C49_3 1_555 1_555
C51_3 C50_3 1_555 1_555
H25_3 C51_3 1_555 1_555
C52_3 C50_3 1_555 1_555
C53_3 C52_3 1_555 1_555
H26_3 C53_3 1_555 1_555
C54_3 C52_3 1_555 1_555
O11_3 U1_3 1_555 1_555
C55_3 C56_3 1_555 1_555
C56_3 C57_3 1_555 1_555
C57_3 H27_3 1_555 1_555
C58_3 C57_3 1_555 1_555
H28_3 C58_3 1_555 1_555
C59_3 C58_3 1_555 1_555
C60_3 C51_3 1_555 1_555
C61_3 C54_3 1_555 1_555
C62_3 C61_3 1_555 1_555
H29_3 C62_3 1_555 1_555
O37 C55_3 1_555 1_555
C63_3 C64_3 1_555 1_555
C64_3 C65_3 1_555 1_555
C65_3 H30_3 1_555 1_555
C66_3 C65_3 1_555 1_555
H31_3 C66_3 1_555 1_555
C67_3 C66_3 1_555 1_555
C68_3 C67_3 1_555 1_555
C69_3 C68_3 1_555 1_555
H32_3 C69_3 1_555 1_555
C70_3 C68_3 1_555 1_555
C71_3 C53_3 1_555 1_555
H33_3 C71_3 1_555 1_555
C72_3 C54_3 1_555 1_555
O13_3 C63_3 1_555 1_555
C73_3 C74_3 1_555 1_555
C74_3 C75_3 1_555 1_555
C75_3 H34_3 1_555 1_555
C76_3 C75_3 1_555 1_555
H35_3 C76_3 1_555 1_555
C77_3 C76_3 1_555 1_555
C78_3 C69_3 1_555 1_555
C79_3 C72_3 1_555 1_555
C80_3 C62_3 1_555 1_555
H36_3 C80_3 1_555 1_555
O14_3 C73_3 1_555 1_555
C81_3 C56_3 1_555 1_555
H37_3 C81_3 1_555 1_555
C82_3 C59_3 1_555 1_555
H38_3 C82_3 1_555 1_555
O42 C55_3 1_555 1_555
C83_3 C46_3 1_555 1_555
H39_3 C83_3 1_555 1_555
C84_3 C49_3 1_555 1_555
H40_3 C84_3 1_555 1_555
O16_3 U1_3 1_555 1_555
C85_3 C74_3 1_555 1_555
H41_3 C85_3 1_555 1_555
C86_3 C77_3 1_555 1_555
H42_3 C86_3 1_555 1_555
O17_3 C73_3 1_555 1_555
C87_3 C64_3 1_555 1_555
H43_3 C87_3 1_555 1_555
C88_3 C67_3 1_555 1_555
H44_3 C88_3 1_555 1_555
O18_3 C63_3 1_555 1_555
C89_3 C90_3 1_555 1_555
C90_3 C91_3 1_555 1_555
C91_3 H45_3 1_555 1_555
C92_3 C91_3 1_555 1_555
H46_3 C92_3 1_555 1_555
C93_3 C92_3 1_555 1_555
C94_3 C93_3 1_555 1_555
C95_3 C94_3 1_555 1_555
H47_3 C95_3 1_555 1_555
C96_3 C94_3 1_555 1_555
C97_3 C96_3 1_555 1_555
H48_3 C97_3 1_555 1_555
C98_3 C96_3 1_555 1_555
O19_3 U1_3 1_555 1_555
C99_3 C100_3 1_555 1_555
C100_3 C101_3 1_555 1_555
C101_3 H49_3 1_555 1_555
C102_3 C101_3 1_555 1_555
H50_3 C102_3 1_555 1_555
C103_3 C102_3 1_555 1_555
C104_3 C95_3 1_555 1_555
C105_3 C98_3 1_555 1_555
C106_3 C105_3 1_555 1_555
H51_3 C106_3 1_555 1_555
O36_2 C99_3 1_555 1_555
C107_3 C108_3 1_555 1_555
C108_3 C109_3 1_555 1_555
C109_3 H52_3 1_555 1_555
C110_3 C109_3 1_555 1_555
H53_3 C110_3 1_555 1_555
C111_3 C110_3 1_555 1_555
C112_3 C111_3 1_555 1_555
C113_3 C112_3 1_555 1_555
H54_3 C113_3 1_555 1_555
C114_3 C112_3 1_555 1_555
C115_3 C97_3 1_555 1_555
H55_3 C115_3 1_555 1_555
C116_3 C98_3 1_555 1_555
O21_3 C107_3 1_555 1_555
C117_3 C118_3 1_555 1_555
C118_3 C119_3 1_555 1_555
C119_3 H56_3 1_555 1_555
C120_3 C119_3 1_555 1_555
H57_3 C120_3 1_555 1_555
C121_3 C120_3 1_555 1_555
C122_3 C113_3 1_555 1_555
C123_3 C116_3 1_555 1_555
C124_3 C106_3 1_555 1_555
H58_3 C124_3 1_555 1_555
O22_3 C117_3 1_555 1_555
C125_3 C100_3 1_555 1_555
H59_3 C125_3 1_555 1_555
C126_3 C103_3 1_555 1_555
H60_3 C126_3 1_555 1_555
O44_2 C99_3 1_555 1_555
C127_3 C90_3 1_555 1_555
H61_3 C127_3 1_555 1_555
C128_3 C93_3 1_555 1_555
H62_3 C128_3 1_555 1_555
O24_3 U1_3 1_555 1_555
C129_3 C118_3 1_555 1_555
H63_3 C129_3 1_555 1_555
C130_3 C121_3 1_555 1_555
H64_3 C130_3 1_555 1_555
O25_3 C117_3 1_555 1_555
C131_3 C108_3 1_555 1_555
H65_3 C131_3 1_555 1_555
C132_3 C111_3 1_555 1_555
H66_3 C132_3 1_555 1_555
O26_3 C107_3 1_555 1_555
U5_3 O13_3 1_555 1_555
U6_3 O14_3 1_555 1_555
U7_3 O21_3 1_555 1_555
U8_3 O22_3 1_555 1_555
U9_3 O5_3 1_555 1_555
U10_3 O6_3 1_555 1_555
U1_3 O8_3 1_555 1_555
C15_3 C16_3 1_555 1_555
C16_3 C17_3 1_555 1_555
C26_3 C27_3 1_555 1_555
C26_3 C28_3 1_555 1_555
C33_3 C34_3 1_555 1_555
C34_3 C35_3 1_555 1_555
C35_3 C36_3 1_555 1_555
C37_3 C38_3 1_555 1_555
C39_3 C40_3 1_555 1_555
C41_3 C42_3 1_555 1_555
O9_3 U10_3 1_555 1_555
C43_3 C44_3 1_555 1_555
O10_3 U9_3 1_555 1_555
C45_3 O11_3 1_555 1_555
C45_3 O16_3 1_555 1_555
C59_3 C60_3 1_555 1_555
C60_3 C61_3 1_555 1_555
C70_3 C71_3 1_555 1_555
C70_3 C72_3 1_555 1_555
C77_3 C78_3 1_555 1_555
C78_3 C79_3 1_555 1_555
C79_3 C80_3 1_555 1_555
C81_3 C82_3 1_555 1_555
C83_3 C84_3 1_555 1_555
C85_3 C86_3 1_555 1_555
O17_3 U6_3 1_555 1_555
C87_3 C88_3 1_555 1_555
O18_3 U5_3 1_555 1_555
C89_3 O19_3 1_555 1_555
C89_3 O24_3 1_555 1_555
C103_3 C104_3 1_555 1_555
C104_3 C105_3 1_555 1_555
C114_3 C115_3 1_555 1_555
C114_3 C116_3 1_555 1_555
C121_3 C122_3 1_555 1_555
C122_3 C123_3 1_555 1_555
C123_3 C124_3 1_555 1_555
C125_3 C126_3 1_555 1_555
C127_3 C128_3 1_555 1_555
C129_3 C130_3 1_555 1_555
O25_3 U8_3 1_555 1_555
C131_3 C132_3 1_555 1_555
O26_3 U7_3 1_555 1_555
C1_4 C2_4 1_555 1_555
C2_4 C3_4 1_555 1_555
C3_4 H1_4 1_555 1_555
C4_4 C3_4 1_555 1_555
H2_4 C4_4 1_555 1_555
C5_4 C4_4 1_555 1_555
C6_4 C5_4 1_555 1_555
C7_4 C6_4 1_555 1_555
H3_4 C7_4 1_555 1_555
C8_4 C6_4 1_555 1_555
C9_4 C8_4 1_555 1_555
H4_4 C9_4 1_555 1_555
C10_4 C8_4 1_555 1_555
O1_4 C1_4 1_555 1_555
O2_4 U1_4 1_555 1_555
O3_4 U1_4 1_555 1_555
U1_4 O1_4 1_555 1_555
C11_4 C12_4 1_555 1_555
C12_4 C13_4 1_555 1_555
C13_4 H5_4 1_555 1_555
C14_4 C13_4 1_555 1_555
H6_4 C14_4 1_555 1_555
C15_4 C14_4 1_555 1_555
C16_4 C7_4 1_555 1_555
C17_4 C10_4 1_555 1_555
C18_4 C17_4 1_555 1_555
H7_4 C18_4 1_555 1_555
O33 C11_4 1_555 1_555
C19_4 C20_4 1_555 1_555
C20_4 C21_4 1_555 1_555
C21_4 H8_4 1_555 1_555
C22_4 C21_4 1_555 1_555
H9_4 C22_4 1_555 1_555
C23_4 C22_4 1_555 1_555
C24_4 C23_4 1_555 1_555
C25_4 C24_4 1_555 1_555
H10_4 C25_4 1_555 1_555
C26_4 C24_4 1_555 1_555
C27_4 C9_4 1_555 1_555
H11_4 C27_4 1_555 1_555
C28_4 C10_4 1_555 1_555
O5_4 C19_4 1_555 1_555
C29_4 C30_4 1_555 1_555
C30_4 C31_4 1_555 1_555
C31_4 H12_4 1_555 1_555
C32_4 C31_4 1_555 1_555
H13_4 C32_4 1_555 1_555
C33_4 C32_4 1_555 1_555
C34_4 C25_4 1_555 1_555
C35_4 C28_4 1_555 1_555
C36_4 C18_4 1_555 1_555
H14_4 C36_4 1_555 1_555
O6_4 C29_4 1_555 1_555
C37_4 C12_4 1_555 1_555
H15_4 C37_4 1_555 1_555
C38_4 C15_4 1_555 1_555
H16_4 C38_4 1_555 1_555
O39 C11_4 1_555 1_555
C39_4 C2_4 1_555 1_555
H17_4 C39_4 1_555 1_555
C40_4 C5_4 1_555 1_555
H18_4 C40_4 1_555 1_555
O8_4 C1_4 1_555 1_555
C41_4 C30_4 1_555 1_555
H19_4 C41_4 1_555 1_555
C42_4 C33_4 1_555 1_555
H20_4 C42_4 1_555 1_555
O9_4 C29_4 1_555 1_555
C43_4 C20_4 1_555 1_555
H21_4 C43_4 1_555 1_555
C44_4 C23_4 1_555 1_555
H22_4 C44_4 1_555 1_555
O10_4 C19_4 1_555 1_555
C45_4 C46_4 1_555 1_555
C46_4 C47_4 1_555 1_555
C47_4 H23_4 1_555 1_555
C48_4 C47_4 1_555 1_555
H24_4 C48_4 1_555 1_555
C49_4 C48_4 1_555 1_555
C50_4 C49_4 1_555 1_555
C51_4 C50_4 1_555 1_555
H25_4 C51_4 1_555 1_555
C52_4 C50_4 1_555 1_555
C53_4 C52_4 1_555 1_555
H26_4 C53_4 1_555 1_555
C54_4 C52_4 1_555 1_555
O11_4 U1_4 1_555 1_555
C55_4 C56_4 1_555 1_555
C56_4 C57_4 1_555 1_555
C57_4 H27_4 1_555 1_555
C58_4 C57_4 1_555 1_555
H28_4 C58_4 1_555 1_555
C59_4 C58_4 1_555 1_555
C60_4 C51_4 1_555 1_555
C61_4 C54_4 1_555 1_555
C62_4 C61_4 1_555 1_555
H29_4 C62_4 1_555 1_555
O37_2 C55_4 1_555 1_555
C63_4 C64_4 1_555 1_555
C64_4 C65_4 1_555 1_555
C65_4 H30_4 1_555 1_555
C66_4 C65_4 1_555 1_555
H31_4 C66_4 1_555 1_555
C67_4 C66_4 1_555 1_555
C68_4 C67_4 1_555 1_555
C69_4 C68_4 1_555 1_555
H32_4 C69_4 1_555 1_555
C70_4 C68_4 1_555 1_555
C71_4 C53_4 1_555 1_555
H33_4 C71_4 1_555 1_555
C72_4 C54_4 1_555 1_555
O13_4 C63_4 1_555 1_555
C73_4 C74_4 1_555 1_555
C74_4 C75_4 1_555 1_555
C75_4 H34_4 1_555 1_555
C76_4 C75_4 1_555 1_555
H35_4 C76_4 1_555 1_555
C77_4 C76_4 1_555 1_555
C78_4 C69_4 1_555 1_555
C79_4 C72_4 1_555 1_555
C80_4 C62_4 1_555 1_555
H36_4 C80_4 1_555 1_555
O14_4 C73_4 1_555 1_555
C81_4 C56_4 1_555 1_555
H37_4 C81_4 1_555 1_555
C82_4 C59_4 1_555 1_555
H38_4 C82_4 1_555 1_555
O42_2 C55_4 1_555 1_555
C83_4 C46_4 1_555 1_555
H39_4 C83_4 1_555 1_555
C84_4 C49_4 1_555 1_555
H40_4 C84_4 1_555 1_555
O16_4 U1_4 1_555 1_555
C85_4 C74_4 1_555 1_555
H41_4 C85_4 1_555 1_555
C86_4 C77_4 1_555 1_555
H42_4 C86_4 1_555 1_555
O17_4 C73_4 1_555 1_555
C87_4 C64_4 1_555 1_555
H43_4 C87_4 1_555 1_555
C88_4 C67_4 1_555 1_555
H44_4 C88_4 1_555 1_555
O18_4 C63_4 1_555 1_555
C89_4 C90_4 1_555 1_555
C90_4 C91_4 1_555 1_555
C91_4 H45_4 1_555 1_555
C92_4 C91_4 1_555 1_555
H46_4 C92_4 1_555 1_555
C93_4 C92_4 1_555 1_555
C94_4 C93_4 1_555 1_555
C95_4 C94_4 1_555 1_555
H47_4 C95_4 1_555 1_555
C96_4 C94_4 1_555 1_555
C97_4 C96_4 1_555 1_555
H48_4 C97_4 1_555 1_555
C98_4 C96_4 1_555 1_555
O19_4 U1_4 1_555 1_555
C99_4 C100_4 1_555 1_555
C100_4 C101_4 1_555 1_555
C101_4 H49_4 1_555 1_555
C102_4 C101_4 1_555 1_555
H50_4 C102_4 1_555 1_555
C103_4 C102_4 1_555 1_555
C104_4 C95_4 1_555 1_555
C105_4 C98_4 1_555 1_555
C106_4 C105_4 1_555 1_555
H51_4 C106_4 1_555 1_555
O36 C99_4 1_555 1_555
C107_4 C108_4 1_555 1_555
C108_4 C109_4 1_555 1_555
C109_4 H52_4 1_555 1_555
C110_4 C109_4 1_555 1_555
H53_4 C110_4 1_555 1_555
C111_4 C110_4 1_555 1_555
C112_4 C111_4 1_555 1_555
C113_4 C112_4 1_555 1_555
H54_4 C113_4 1_555 1_555
C114_4 C112_4 1_555 1_555
C115_4 C97_4 1_555 1_555
H55_4 C115_4 1_555 1_555
C116_4 C98_4 1_555 1_555
O21_4 C107_4 1_555 1_555
C117_4 C118_4 1_555 1_555
C118_4 C119_4 1_555 1_555
C119_4 H56_4 1_555 1_555
C120_4 C119_4 1_555 1_555
H57_4 C120_4 1_555 1_555
C121_4 C120_4 1_555 1_555
C122_4 C113_4 1_555 1_555
C123_4 C116_4 1_555 1_555
C124_4 C106_4 1_555 1_555
H58_4 C124_4 1_555 1_555
O22_4 C117_4 1_555 1_555
C125_4 C100_4 1_555 1_555
H59_4 C125_4 1_555 1_555
C126_4 C103_4 1_555 1_555
H60_4 C126_4 1_555 1_555
O44 C99_4 1_555 1_555
C127_4 C90_4 1_555 1_555
H61_4 C127_4 1_555 1_555
C128_4 C93_4 1_555 1_555
H62_4 C128_4 1_555 1_555
O24_4 U1_4 1_555 1_555
C129_4 C118_4 1_555 1_555
H63_4 C129_4 1_555 1_555
C130_4 C121_4 1_555 1_555
H64_4 C130_4 1_555 1_555
O25_4 C117_4 1_555 1_555
C131_4 C108_4 1_555 1_555
H65_4 C131_4 1_555 1_555
C132_4 C111_4 1_555 1_555
H66_4 C132_4 1_555 1_555
O26_4 C107_4 1_555 1_555
U5_4 O13_4 1_555 1_555
U6_4 O14_4 1_555 1_555
U7_4 O21_4 1_555 1_555
U8_4 O22_4 1_555 1_555
U9_4 O5_4 1_555 1_555
U10_4 O6_4 1_555 1_555
U1_4 O8_4 1_555 1_555
C15_4 C16_4 1_555 1_555
C16_4 C17_4 1_555 1_555
C26_4 C27_4 1_555 1_555
C26_4 C28_4 1_555 1_555
C33_4 C34_4 1_555 1_555
C34_4 C35_4 1_555 1_555
C35_4 C36_4 1_555 1_555
C37_4 C38_4 1_555 1_555
C39_4 C40_4 1_555 1_555
C41_4 C42_4 1_555 1_555
O9_4 U10_4 1_555 1_555
C43_4 C44_4 1_555 1_555
O10_4 U9_4 1_555 1_555
C45_4 O11_4 1_555 1_555
C45_4 O16_4 1_555 1_555
C59_4 C60_4 1_555 1_555
C60_4 C61_4 1_555 1_555
C70_4 C71_4 1_555 1_555
C70_4 C72_4 1_555 1_555
C77_4 C78_4 1_555 1_555
C78_4 C79_4 1_555 1_555
C79_4 C80_4 1_555 1_555
C81_4 C82_4 1_555 1_555
C83_4 C84_4 1_555 1_555
C85_4 C86_4 1_555 1_555
O17_4 U6_4 1_555 1_555
C87_4 C88_4 1_555 1_555
O18_4 U5_4 1_555 1_555
C89_4 O19_4 1_555 1_555
C89_4 O24_4 1_555 1_555
C103_4 C104_4 1_555 1_555
C104_4 C105_4 1_555 1_555
C114_4 C115_4 1_555 1_555
C114_4 C116_4 1_555 1_555
C121_4 C122_4 1_555 1_555
C122_4 C123_4 1_555 1_555
C123_4 C124_4 1_555 1_555
C125_4 C126_4 1_555 1_555
C127_4 C128_4 1_555 1_555
C129_4 C130_4 1_555 1_555
O25_4 U8_4 1_555 1_555
C131_4 C132_4 1_555 1_555
O26_4 U7_4 1_555 1_555
H3_5 C7_5 1_555 1_555
C11_5 C12_5 1_555 1_555
C12_5 C13_5 1_555 1_555
C13_5 H5_5 1_555 1_555
C14_5 C13_5 1_555 1_555
H6_5 C14_5 1_555 1_555
C15_5 C14_5 1_555 1_555
C16_5 C7_5 1_555 1_555
C17_5 C10_5 1_555 1_555
C18_5 C17_5 1_555 1_555
H7_5 C18_5 1_555 1_555
O4_3 C11_5 1_555 1_555
H10_5 C25_5 1_555 1_555
C28_5 C10_5 1_555 1_555
C29_5 C30_5 1_555 1_555
C30_5 C31_5 1_555 1_555
C31_5 H12_5 1_555 1_555
C32_5 C31_5 1_555 1_555
H13_5 C32_5 1_555 1_555
C33_5 C32_5 1_555 1_555
C34_5 C25_5 1_555 1_555
C35_5 C28_5 1_555 1_555
C36_5 C18_5 1_555 1_555
H14_5 C36_5 1_555 1_555
O6_5 C29_5 1_555 1_555
C37_5 C12_5 1_555 1_555
H15_5 C37_5 1_555 1_555
C38_5 C15_5 1_555 1_555
H16_5 C38_5 1_555 1_555
O7_3 C11_5 1_555 1_555
C41_5 C30_5 1_555 1_555
H19_5 C41_5 1_555 1_555
C42_5 C33_5 1_555 1_555
H20_5 C42_5 1_555 1_555
O9_5 C29_5 1_555 1_555
O27_3 U6_2 1_555 1_555
O28_3 U6_2 1_555 1_555
U6_2 O4_3 1_555 1_555
O36_3 U6_2 1_555 1_555
O44_3 U6_2 1_555 1_555
U8 O6_5 1_555 1_555
C15_5 C16_5 1_555 1_555
C16_5 C17_5 1_555 1_555
C33_5 C34_5 1_555 1_555
C34_5 C35_5 1_555 1_555
C35_5 C36_5 1_555 1_555
C37_5 C38_5 1_555 1_555
O7_3 U6_2 1_555 1_555
C41_5 C42_5 1_555 1_555
O9_5 U8 1_555 1_555
C1_5 C2_5 1_555 1_555
C2_5 C3_5 1_555 1_555
C3_5 H1_5 1_555 1_555
C4_5 C3_5 1_555 1_555
H2_5 C4_5 1_555 1_555
C5_5 C4_5 1_555 1_555
C6_5 C5_5 1_555 1_555
C7_6 C6_5 1_555 1_555
H3_6 C7_6 1_555 1_555
C8_5 C6_5 1_555 1_555
C9_5 C8_5 1_555 1_555
H4_5 C9_5 1_555 1_555
C10_6 C8_5 1_555 1_555
O1_5 C1_5 1_555 1_555
O2_5 U5_4 1_555 1_555
O3_5 U5_4 1_555 1_555
U5_4 O1_5 1_555 1_555
C19_5 C20_5 1_555 1_555
C20_5 C21_5 1_555 1_555
C21_5 H8_5 1_555 1_555
C22_5 C21_5 1_555 1_555
H9_5 C22_5 1_555 1_555
C23_5 C22_5 1_555 1_555
C24_5 C23_5 1_555 1_555
C25_6 C24_5 1_555 1_555
H10_6 C25_6 1_555 1_555
C26_5 C24_5 1_555 1_555
C27_5 C9_5 1_555 1_555
H11_5 C27_5 1_555 1_555
C28_6 C10_6 1_555 1_555
O5_5 C19_5 1_555 1_555
C39_5 C2_5 1_555 1_555
H17_5 C39_5 1_555 1_555
C40_5 C5_5 1_555 1_555
H18_5 C40_5 1_555 1_555
O8_5 C1_5 1_555 1_555
C43_5 C20_5 1_555 1_555
H21_5 C43_5 1_555 1_555
C44_5 C23_5 1_555 1_555
H22_5 C44_5 1_555 1_555
O10_5 C19_5 1_555 1_555
C89_5 C90_5 1_555 1_555
C90_5 C91_5 1_555 1_555
C91_5 H45_5 1_555 1_555
C92_5 C91_5 1_555 1_555
H46_5 C92_5 1_555 1_555
C93_5 C92_5 1_555 1_555
C94_5 C93_5 1_555 1_555
C95_5 C94_5 1_555 1_555
H47_5 C95_5 1_555 1_555
C96_5 C94_5 1_555 1_555
C97_5 C96_5 1_555 1_555
H48_5 C97_5 1_555 1_555
C98_5 C96_5 1_555 1_555
O19_5 U5_4 1_555 1_555
C107_5 C108_5 1_555 1_555
C108_5 C109_5 1_555 1_555
C109_5 H52_5 1_555 1_555
C110_5 C109_5 1_555 1_555
H53_5 C110_5 1_555 1_555
C111_5 C110_5 1_555 1_555
C112_5 C111_5 1_555 1_555
C113_5 C112_5 1_555 1_555
H54_5 C113_5 1_555 1_555
C114_5 C112_5 1_555 1_555
C115_5 C97_5 1_555 1_555
H55_5 C115_5 1_555 1_555
C116_5 C98_5 1_555 1_555
O21_5 C107_5 1_555 1_555
C127_5 C90_5 1_555 1_555
H61_5 C127_5 1_555 1_555
C128_5 C93_5 1_555 1_555
H62_5 C128_5 1_555 1_555
O24_5 U5_4 1_555 1_555
C131_5 C108_5 1_555 1_555
H65_5 C131_5 1_555 1_555
C132_5 C111_5 1_555 1_555
H66_5 C132_5 1_555 1_555
O26_5 C107_5 1_555 1_555
O31_2 U6_4 1_555 1_555
O32_2 U6_4 1_555 1_555
O34_2 U6_4 1_555 1_555
O35_2 U6_4 1_555 1_555
O40_2 U6_4 1_555 1_555
O43_2 U6_4 1_555 1_555
U9_4 O21_5 1_555 1_555
U7_4 O5_5 1_555 1_555
U5_4 O8_5 1_555 1_555
C26_5 C27_5 1_555 1_555
C26_5 C28_6 1_555 1_555
C39_5 C40_5 1_555 1_555
C43_5 C44_5 1_555 1_555
O10_5 U7_4 1_555 1_555
C89_5 O19_5 1_555 1_555
C89_5 O24_5 1_555 1_555
C114_5 C115_5 1_555 1_555
C114_5 C116_5 1_555 1_555
C127_5 C128_5 1_555 1_555
C131_5 C132_5 1_555 1_555
O26_5 U9_4 1_555 1_555
H47_6 C95_6 1_555 1_555
C99_5 C100_5 1_555 1_555
C100_5 C101_5 1_555 1_555
C101_5 H49_5 1_555 1_555
C102_5 C101_5 1_555 1_555
H50_5 C102_5 1_555 1_555
C103_5 C102_5 1_555 1_555
C104_5 C95_6 1_555 1_555
C105_5 C98_6 1_555 1_555
C106_5 C105_5 1_555 1_555
H51_5 C106_5 1_555 1_555
O20_2 C99_5 1_555 1_555
H54_6 C113_6 1_555 1_555
C116_6 C98_6 1_555 1_555
C117_5 C118_5 1_555 1_555
C118_5 C119_5 1_555 1_555
C119_5 H56_5 1_555 1_555
C120_5 C119_5 1_555 1_555
H57_5 C120_5 1_555 1_555
C121_5 C120_5 1_555 1_555
C122_5 C113_6 1_555 1_555
C123_5 C116_6 1_555 1_555
C124_5 C106_5 1_555 1_555
H58_5 C124_5 1_555 1_555
O22_5 C117_5 1_555 1_555
C125_5 C100_5 1_555 1_555
H59_5 C125_5 1_555 1_555
C126_5 C103_5 1_555 1_555
H60_5 C126_5 1_555 1_555
O23_2 C99_5 1_555 1_555
C129_5 C118_5 1_555 1_555
H63_5 C129_5 1_555 1_555
C130_5 C121_5 1_555 1_555
H64_5 C130_5 1_555 1_555
O25_5 C117_5 1_555 1_555
O29_2 U6_3 1_555 1_555
O30_2 U6_3 1_555 1_555
U6_3 O20_2 1_555 1_555
O33_2 U6_3 1_555 1_555
O39_2 U6_3 1_555 1_555
U10 O22_5 1_555 1_555
C103_5 C104_5 1_555 1_555
C104_5 C105_5 1_555 1_555
C121_5 C122_5 1_555 1_555
C122_5 C123_5 1_555 1_555
C123_5 C124_5 1_555 1_555
C125_5 C126_5 1_555 1_555
O23_2 U6_3 1_555 1_555
C129_5 C130_5 1_555 1_555
O25_5 U10 1_555 1_555
H47_7 C95_7 1_555 1_555
C99_6 C100_6 1_555 1_555
C100_6 C101_6 1_555 1_555
C101_6 H49_6 1_555 1_555
C102_6 C101_6 1_555 1_555
H50_6 C102_6 1_555 1_555
C103_6 C102_6 1_555 1_555
C104_6 C95_7 1_555 1_555
C105_6 C98_7 1_555 1_555
C106_6 C105_6 1_555 1_555
H51_6 C106_6 1_555 1_555
O35_2 C99_6 1_555 1_555
H54_7 C113_7 1_555 1_555
C116_7 C98_7 1_555 1_555
C117_6 C118_6 1_555 1_555
C118_6 C119_6 1_555 1_555
C119_6 H56_6 1_555 1_555
C120_6 C119_6 1_555 1_555
H57_6 C120_6 1_555 1_555
C121_6 C120_6 1_555 1_555
C122_6 C113_7 1_555 1_555
C123_6 C116_7 1_555 1_555
C124_6 C106_6 1_555 1_555
H58_6 C124_6 1_555 1_555
O22_6 C117_6 1_555 1_555
C125_6 C100_6 1_555 1_555
H59_6 C125_6 1_555 1_555
C126_6 C103_6 1_555 1_555
H60_6 C126_6 1_555 1_555
O43_2 C99_6 1_555 1_555
C129_6 C118_6 1_555 1_555
H63_6 C129_6 1_555 1_555
C130_6 C121_6 1_555 1_555
H64_6 C130_6 1_555 1_555
O25_6 C117_6 1_555 1_555
U10_2 O22_6 1_555 1_555
C103_6 C104_6 1_555 1_555
C104_6 C105_6 1_555 1_555
C121_6 C122_6 1_555 1_555
C122_6 C123_6 1_555 1_555
C123_6 C124_6 1_555 1_555
C125_6 C126_6 1_555 1_555
C129_6 C130_6 1_555 1_555
O25_6 U10_2 1_555 1_555
H3_7 C7_7 1_555 1_555
C11_6 C12_6 1_555 1_555
C12_6 C13_6 1_555 1_555
C13_6 H5_6 1_555 1_555
C14_6 C13_6 1_555 1_555
H6_6 C14_6 1_555 1_555
C15_6 C14_6 1_555 1_555
C16_6 C7_7 1_555 1_555
C17_6 C10_7 1_555 1_555
C18_6 C17_6 1_555 1_555
H7_6 C18_6 1_555 1_555
O4_4 C11_6 1_555 1_555
H10_7 C25_7 1_555 1_555
C28_7 C10_7 1_555 1_555
C29_6 C30_6 1_555 1_555
C30_6 C31_6 1_555 1_555
C31_6 H12_6 1_555 1_555
C32_6 C31_6 1_555 1_555
H13_6 C32_6 1_555 1_555
C33_6 C32_6 1_555 1_555
C34_6 C25_7 1_555 1_555
C35_6 C28_7 1_555 1_555
C36_6 C18_6 1_555 1_555
H14_6 C36_6 1_555 1_555
O6_6 C29_6 1_555 1_555
C37_6 C12_6 1_555 1_555
H15_6 C37_6 1_555 1_555
C38_6 C15_6 1_555 1_555
H16_6 C38_6 1_555 1_555
O7_4 C11_6 1_555 1_555
C41_6 C30_6 1_555 1_555
H19_6 C41_6 1_555 1_555
C42_6 C33_6 1_555 1_555
H20_6 C42_6 1_555 1_555
O9_6 C29_6 1_555 1_555
O27_4 U6 1_555 1_555
O28_4 U6 1_555 1_555
U6 O4_4 1_555 1_555
O36_4 U6 1_555 1_555
O44_4 U6 1_555 1_555
U8_2 O6_6 1_555 1_555
C15_6 C16_6 1_555 1_555
C16_6 C17_6 1_555 1_555
C33_6 C34_6 1_555 1_555
C34_6 C35_6 1_555 1_555
C35_6 C36_6 1_555 1_555
C37_6 C38_6 1_555 1_555
O7_4 U6 1_555 1_555
C41_6 C42_6 1_555 1_555
O9_6 U8_2 1_555 1_555
C1_6 C2_6 1_555 1_555
C2_6 C3_6 1_555 1_555
C3_6 H1_6 1_555 1_555
C4_6 C3_6 1_555 1_555
H2_6 C4_6 1_555 1_555
C5_6 C4_6 1_555 1_555
C6_6 C5_6 1_555 1_555
C7_8 C6_6 1_555 1_555
H3_8 C7_8 1_555 1_555
C8_6 C6_6 1_555 1_555
C9_6 C8_6 1_555 1_555
H4_6 C9_6 1_555 1_555
C10_8 C8_6 1_555 1_555
O1_6 C1_6 1_555 1_555
O2_6 U5_3 1_555 1_555
O3_6 U5_3 1_555 1_555
U5_3 O1_6 1_555 1_555
C19_6 C20_6 1_555 1_555
C20_6 C21_6 1_555 1_555
C21_6 H8_6 1_555 1_555
C22_6 C21_6 1_555 1_555
H9_6 C22_6 1_555 1_555
C23_6 C22_6 1_555 1_555
C24_6 C23_6 1_555 1_555
C25_8 C24_6 1_555 1_555
H10_8 C25_8 1_555 1_555
C26_6 C24_6 1_555 1_555
C27_6 C9_6 1_555 1_555
H11_6 C27_6 1_555 1_555
C28_8 C10_8 1_555 1_555
O5_6 C19_6 1_555 1_555
C39_6 C2_6 1_555 1_555
H17_6 C39_6 1_555 1_555
C40_6 C5_6 1_555 1_555
H18_6 C40_6 1_555 1_555
O8_6 C1_6 1_555 1_555
C43_6 C20_6 1_555 1_555
H21_6 C43_6 1_555 1_555
C44_6 C23_6 1_555 1_555
H22_6 C44_6 1_555 1_555
O10_6 C19_6 1_555 1_555
C89_6 C90_6 1_555 1_555
C90_6 C91_6 1_555 1_555
C91_6 H45_6 1_555 1_555
C92_6 C91_6 1_555 1_555
H46_6 C92_6 1_555 1_555
C93_6 C92_6 1_555 1_555
C94_6 C93_6 1_555 1_555
C95_8 C94_6 1_555 1_555
H47_8 C95_8 1_555 1_555
C96_6 C94_6 1_555 1_555
C97_6 C96_6 1_555 1_555
H48_6 C97_6 1_555 1_555
C98_8 C96_6 1_555 1_555
O19_6 U5_3 1_555 1_555
C107_6 C108_6 1_555 1_555
C108_6 C109_6 1_555 1_555
C109_6 H52_6 1_555 1_555
C110_6 C109_6 1_555 1_555
H53_6 C110_6 1_555 1_555
C111_6 C110_6 1_555 1_555
C112_6 C111_6 1_555 1_555
C113_8 C112_6 1_555 1_555
H54_8 C113_8 1_555 1_555
C114_6 C112_6 1_555 1_555
C115_6 C97_6 1_555 1_555
H55_6 C115_6 1_555 1_555
C116_8 C98_8 1_555 1_555
O21_6 C107_6 1_555 1_555
C127_6 C90_6 1_555 1_555
H61_6 C127_6 1_555 1_555
C128_6 C93_6 1_555 1_555
H62_6 C128_6 1_555 1_555
O24_6 U5_3 1_555 1_555
C131_6 C108_6 1_555 1_555
H65_6 C131_6 1_555 1_555
C132_6 C111_6 1_555 1_555
H66_6 C132_6 1_555 1_555
O26_6 C107_6 1_555 1_555
U9_3 O21_6 1_555 1_555
U7_3 O5_6 1_555 1_555
U5_3 O8_6 1_555 1_555
C26_6 C27_6 1_555 1_555
C26_6 C28_8 1_555 1_555
C39_6 C40_6 1_555 1_555
C43_6 C44_6 1_555 1_555
O10_6 U7_3 1_555 1_555
C89_6 O19_6 1_555 1_555
C89_6 O24_6 1_555 1_555
C114_6 C115_6 1_555 1_555
C114_6 C116_8 1_555 1_555
C127_6 C128_6 1_555 1_555
C131_6 C132_6 1_555 1_555
O26_6 U9_3 1_555 1_555
C1_7 C2_7 1_555 1_555
C2_7 C3_7 1_555 1_555
C3_7 H1_7 1_555 1_555
C4_7 C3_7 1_555 1_555
H2_7 C4_7 1_555 1_555
C5_7 C4_7 1_555 1_555
C6_7 C5_7 1_555 1_555
C7_9 C6_7 1_555 1_555
H3_9 C7_9 1_555 1_555
C8_7 C6_7 1_555 1_555
C9_7 C8_7 1_555 1_555
H4_7 C9_7 1_555 1_555
C10_9 C8_7 1_555 1_555
O1_7 C1_7 1_555 1_555
O2_7 U5_2 1_555 1_555
O3_7 U5_2 1_555 1_555
U5_2 O1_7 1_555 1_555
C19_7 C20_7 1_555 1_555
C20_7 C21_7 1_555 1_555
C21_7 H8_7 1_555 1_555
C22_7 C21_7 1_555 1_555
H9_7 C22_7 1_555 1_555
C23_7 C22_7 1_555 1_555
C24_7 C23_7 1_555 1_555
C25_9 C24_7 1_555 1_555
H10_9 C25_9 1_555 1_555
C26_7 C24_7 1_555 1_555
C27_7 C9_7 1_555 1_555
H11_7 C27_7 1_555 1_555
C28_9 C10_9 1_555 1_555
O5_7 C19_7 1_555 1_555
C39_7 C2_7 1_555 1_555
H17_7 C39_7 1_555 1_555
C40_7 C5_7 1_555 1_555
H18_7 C40_7 1_555 1_555
O8_7 C1_7 1_555 1_555
C43_7 C20_7 1_555 1_555
H21_7 C43_7 1_555 1_555
C44_7 C23_7 1_555 1_555
H22_7 C44_7 1_555 1_555
O10_7 C19_7 1_555 1_555
C89_7 C90_7 1_555 1_555
C90_7 C91_7 1_555 1_555
C91_7 H45_7 1_555 1_555
C92_7 C91_7 1_555 1_555
H46_7 C92_7 1_555 1_555
C93_7 C92_7 1_555 1_555
C94_7 C93_7 1_555 1_555
C95_9 C94_7 1_555 1_555
H47_9 C95_9 1_555 1_555
C96_7 C94_7 1_555 1_555
C97_7 C96_7 1_555 1_555
H48_7 C97_7 1_555 1_555
C98_9 C96_7 1_555 1_555
O19_7 U5_2 1_555 1_555
C107_7 C108_7 1_555 1_555
C108_7 C109_7 1_555 1_555
C109_7 H52_7 1_555 1_555
C110_7 C109_7 1_555 1_555
H53_7 C110_7 1_555 1_555
C111_7 C110_7 1_555 1_555
C112_7 C111_7 1_555 1_555
C113_9 C112_7 1_555 1_555
H54_9 C113_9 1_555 1_555
C114_7 C112_7 1_555 1_555
C115_7 C97_7 1_555 1_555
H55_7 C115_7 1_555 1_555
C116_9 C98_9 1_555 1_555
O21_7 C107_7 1_555 1_555
C127_7 C90_7 1_555 1_555
H61_7 C127_7 1_555 1_555
C128_7 C93_7 1_555 1_555
H62_7 C128_7 1_555 1_555
O24_7 U5_2 1_555 1_555
C131_7 C108_7 1_555 1_555
H65_7 C131_7 1_555 1_555
C132_7 C111_7 1_555 1_555
H66_7 C132_7 1_555 1_555
O26_7 C107_7 1_555 1_555
U9_2 O21_7 1_555 1_555
U7_2 O5_7 1_555 1_555
U5_2 O8_7 1_555 1_555
C26_7 C27_7 1_555 1_555
C26_7 C28_9 1_555 1_555
C39_7 C40_7 1_555 1_555
C43_7 C44_7 1_555 1_555
O10_7 U7_2 1_555 1_555
C89_7 O19_7 1_555 1_555
C89_7 O24_7 1_555 1_555
C114_7 C115_7 1_555 1_555
C114_7 C116_9 1_555 1_555
C127_7 C128_7 1_555 1_555
C131_7 C132_7 1_555 1_555
O26_7 U9_2 1_555 1_555
H3_10 C7_10 1_555 1_555
C11_7 C12_7 1_555 1_555
C12_7 C13_7 1_555 1_555
C13_7 H5_7 1_555 1_555
C14_7 C13_7 1_555 1_555
H6_7 C14_7 1_555 1_555
C15_7 C14_7 1_555 1_555
C16_7 C7_10 1_555 1_555
C17_7 C10_10 1_555 1_555
C18_7 C17_7 1_555 1_555
H7_7 C18_7 1_555 1_555
O34_2 C11_7 1_555 1_555
H10_10 C25_10 1_555 1_555
C28_10 C10_10 1_555 1_555
C29_7 C30_7 1_555 1_555
C30_7 C31_7 1_555 1_555
C31_7 H12_7 1_555 1_555
C32_7 C31_7 1_555 1_555
H13_7 C32_7 1_555 1_555
C33_7 C32_7 1_555 1_555
C34_7 C25_10 1_555 1_555
C35_7 C28_10 1_555 1_555
C36_7 C18_7 1_555 1_555
H14_7 C36_7 1_555 1_555
O6_7 C29_7 1_555 1_555
C37_7 C12_7 1_555 1_555
H15_7 C37_7 1_555 1_555
C38_7 C15_7 1_555 1_555
H16_7 C38_7 1_555 1_555
O40_2 C11_7 1_555 1_555
C41_7 C30_7 1_555 1_555
H19_7 C41_7 1_555 1_555
C42_7 C33_7 1_555 1_555
H20_7 C42_7 1_555 1_555
O9_7 C29_7 1_555 1_555
U8_3 O6_7 1_555 1_555
C15_7 C16_7 1_555 1_555
C16_7 C17_7 1_555 1_555
C33_7 C34_7 1_555 1_555
C34_7 C35_7 1_555 1_555
C35_7 C36_7 1_555 1_555
C37_7 C38_7 1_555 1_555
C41_7 C42_7 1_555 1_555
O9_7 U8_3 1_555 1_555
H47_10 C95_10 1_555 1_555
C99_7 C100_7 1_555 1_555
C100_7 C101_7 1_555 1_555
C101_7 H49_7 1_555 1_555
C102_7 C101_7 1_555 1_555
H50_7 C102_7 1_555 1_555
C103_7 C102_7 1_555 1_555
C104_7 C95_10 1_555 1_555
C105_7 C98_10 1_555 1_555
C106_7 C105_7 1_555 1_555
H51_7 C106_7 1_555 1_555
O36_4 C99_7 1_555 1_555
H54_10 C113_10 1_555 1_555
C116_10 C98_10 1_555 1_555
C117_7 C118_7 1_555 1_555
C118_7 C119_7 1_555 1_555
C119_7 H56_7 1_555 1_555
C120_7 C119_7 1_555 1_555
H57_7 C120_7 1_555 1_555
C121_7 C120_7 1_555 1_555
C122_7 C113_10 1_555 1_555
C123_7 C116_10 1_555 1_555
C124_7 C106_7 1_555 1_555
H58_7 C124_7 1_555 1_555
O22_7 C117_7 1_555 1_555
C125_7 C100_7 1_555 1_555
H59_7 C125_7 1_555 1_555
C126_7 C103_7 1_555 1_555
H60_7 C126_7 1_555 1_555
O44_4 C99_7 1_555 1_555
C129_7 C118_7 1_555 1_555
H63_7 C129_7 1_555 1_555
C130_7 C121_7 1_555 1_555
H64_7 C130_7 1_555 1_555
O25_7 C117_7 1_555 1_555
U10_3 O22_7 1_555 1_555
C103_7 C104_7 1_555 1_555
C104_7 C105_7 1_555 1_555
C121_7 C122_7 1_555 1_555
C122_7 C123_7 1_555 1_555
C123_7 C124_7 1_555 1_555
C125_7 C126_7 1_555 1_555
C129_7 C130_7 1_555 1_555
O25_7 U10_3 1_555 1_555
H47_11 C95_11 1_555 1_555
C99_8 C100_8 1_555 1_555
C100_8 C101_8 1_555 1_555
C101_8 H49_8 1_555 1_555
C102_8 C101_8 1_555 1_555
H50_8 C102_8 1_555 1_555
C103_8 C102_8 1_555 1_555
C104_8 C95_11 1_555 1_555
C105_8 C98_11 1_555 1_555
C106_8 C105_8 1_555 1_555
H51_8 C106_8 1_555 1_555
O36_3 C99_8 1_555 1_555
H54_11 C113_11 1_555 1_555
C116_11 C98_11 1_555 1_555
C117_8 C118_8 1_555 1_555
C118_8 C119_8 1_555 1_555
C119_8 H56_8 1_555 1_555
C120_8 C119_8 1_555 1_555
H57_8 C120_8 1_555 1_555
C121_8 C120_8 1_555 1_555
C122_8 C113_11 1_555 1_555
C123_8 C116_11 1_555 1_555
C124_8 C106_8 1_555 1_555
H58_8 C124_8 1_555 1_555
O22_8 C117_8 1_555 1_555
C125_8 C100_8 1_555 1_555
H59_8 C125_8 1_555 1_555
C126_8 C103_8 1_555 1_555
H60_8 C126_8 1_555 1_555
O44_3 C99_8 1_555 1_555
C129_8 C118_8 1_555 1_555
H63_8 C129_8 1_555 1_555
C130_8 C121_8 1_555 1_555
H64_8 C130_8 1_555 1_555
O25_8 C117_8 1_555 1_555
U10_4 O22_8 1_555 1_555
C103_8 C104_8 1_555 1_555
C104_8 C105_8 1_555 1_555
C121_8 C122_8 1_555 1_555
C122_8 C123_8 1_555 1_555
C123_8 C124_8 1_555 1_555
C125_8 C126_8 1_555 1_555
C129_8 C130_8 1_555 1_555
O25_8 U10_4 1_555 1_555
C1_8 C2_8 1_555 1_555
C2_8 C3_8 1_555 1_555
C3_8 H1_8 1_555 1_555
C4_8 C3_8 1_555 1_555
H2_8 C4_8 1_555 1_555
C5_8 C4_8 1_555 1_555
C6_8 C5_8 1_555 1_555
C7_11 C6_8 1_555 1_555
H3_11 C7_11 1_555 1_555
C8_8 C6_8 1_555 1_555
C9_8 C8_8 1_555 1_555
H4_8 C9_8 1_555 1_555
C10_11 C8_8 1_555 1_555
O1_8 C1_8 1_555 1_555
O2_8 U5 1_555 1_555
O3_8 U5 1_555 1_555
U5 O1_8 1_555 1_555
C19_8 C20_8 1_555 1_555
C20_8 C21_8 1_555 1_555
C21_8 H8_8 1_555 1_555
C22_8 C21_8 1_555 1_555
H9_8 C22_8 1_555 1_555
C23_8 C22_8 1_555 1_555
C24_8 C23_8 1_555 1_555
C25_11 C24_8 1_555 1_555
H10_11 C25_11 1_555 1_555
C26_8 C24_8 1_555 1_555
C27_8 C9_8 1_555 1_555
H11_8 C27_8 1_555 1_555
C28_11 C10_11 1_555 1_555
O5_8 C19_8 1_555 1_555
C39_8 C2_8 1_555 1_555
H17_8 C39_8 1_555 1_555
C40_8 C5_8 1_555 1_555
H18_8 C40_8 1_555 1_555
O8_8 C1_8 1_555 1_555
C43_8 C20_8 1_555 1_555
H21_8 C43_8 1_555 1_555
C44_8 C23_8 1_555 1_555
H22_8 C44_8 1_555 1_555
O10_8 C19_8 1_555 1_555
C89_8 C90_8 1_555 1_555
C90_8 C91_8 1_555 1_555
C91_8 H45_8 1_555 1_555
C92_8 C91_8 1_555 1_555
H46_8 C92_8 1_555 1_555
C93_8 C92_8 1_555 1_555
C94_8 C93_8 1_555 1_555
C95_12 C94_8 1_555 1_555
H47_12 C95_12 1_555 1_555
C96_8 C94_8 1_555 1_555
C97_8 C96_8 1_555 1_555
H48_8 C97_8 1_555 1_555
C98_12 C96_8 1_555 1_555
O19_8 U5 1_555 1_555
C107_8 C108_8 1_555 1_555
C108_8 C109_8 1_555 1_555
C109_8 H52_8 1_555 1_555
C110_8 C109_8 1_555 1_555
H53_8 C110_8 1_555 1_555
C111_8 C110_8 1_555 1_555
C112_8 C111_8 1_555 1_555
C113_12 C112_8 1_555 1_555
H54_12 C113_12 1_555 1_555
C114_8 C112_8 1_555 1_555
C115_8 C97_8 1_555 1_555
H55_8 C115_8 1_555 1_555
C116_12 C98_12 1_555 1_555
O21_8 C107_8 1_555 1_555
C127_8 C90_8 1_555 1_555
H61_8 C127_8 1_555 1_555
C128_8 C93_8 1_555 1_555
H62_8 C128_8 1_555 1_555
O24_8 U5 1_555 1_555
C131_8 C108_8 1_555 1_555
H65_8 C131_8 1_555 1_555
C132_8 C111_8 1_555 1_555
H66_8 C132_8 1_555 1_555
O26_8 C107_8 1_555 1_555
U9 O21_8 1_555 1_555
U7 O5_8 1_555 1_555
U5 O8_8 1_555 1_555
C26_8 C27_8 1_555 1_555
C26_8 C28_11 1_555 1_555
C39_8 C40_8 1_555 1_555
C43_8 C44_8 1_555 1_555
O10_8 U7 1_555 1_555
C89_8 O19_8 1_555 1_555
C89_8 O24_8 1_555 1_555
C114_8 C115_8 1_555 1_555
C114_8 C116_12 1_555 1_555
C127_8 C128_8 1_555 1_555
C131_8 C132_8 1_555 1_555
O26_8 U9 1_555 1_555
H3_12 C7_12 1_555 1_555
C11_8 C12_8 1_555 1_555
C12_8 C13_8 1_555 1_555
C13_8 H5_8 1_555 1_555
C14_8 C13_8 1_555 1_555
H6_8 C14_8 1_555 1_555
C15_8 C14_8 1_555 1_555
C16_8 C7_12 1_555 1_555
C17_8 C10_12 1_555 1_555
C18_8 C17_8 1_555 1_555
H7_8 C18_8 1_555 1_555
O33_2 C11_8 1_555 1_555
H10_12 C25_12 1_555 1_555
C28_12 C10_12 1_555 1_555
C29_8 C30_8 1_555 1_555
C30_8 C31_8 1_555 1_555
C31_8 H12_8 1_555 1_555
C32_8 C31_8 1_555 1_555
H13_8 C32_8 1_555 1_555
C33_8 C32_8 1_555 1_555
C34_8 C25_12 1_555 1_555
C35_8 C28_12 1_555 1_555
C36_8 C18_8 1_555 1_555
H14_8 C36_8 1_555 1_555
O6_8 C29_8 1_555 1_555
C37_8 C12_8 1_555 1_555
H15_8 C37_8 1_555 1_555
C38_8 C15_8 1_555 1_555
H16_8 C38_8 1_555 1_555
O39_2 C11_8 1_555 1_555
C41_8 C30_8 1_555 1_555
H19_8 C41_8 1_555 1_555
C42_8 C33_8 1_555 1_555
H20_8 C42_8 1_555 1_555
O9_8 C29_8 1_555 1_555
U8_4 O6_8 1_555 1_555
C15_8 C16_8 1_555 1_555
C16_8 C17_8 1_555 1_555
C33_8 C34_8 1_555 1_555
C34_8 C35_8 1_555 1_555
C35_8 C36_8 1_555 1_555
C37_8 C38_8 1_555 1_555
C41_8 C42_8 1_555 1_555
O9_8 U8_4 1_555 1_555
O27_5 U8_2 1_555 1_555
O28_5 U8_2 1_555 1_555
O37_3 U8_2 1_555 1_555
O42_3 U8_2 1_555 1_555
O2_9 U7_3 1_555 1_555
O3_9 U7_3 1_555 1_555
C45_5 C46_5 1_555 1_555
C46_5 C47_5 1_555 1_555
C47_5 H23_5 1_555 1_555
C48_5 C47_5 1_555 1_555
H24_5 C48_5 1_555 1_555
C49_5 C48_5 1_555 1_555
C50_5 C49_5 1_555 1_555
C51_5 C50_5 1_555 1_555
H25_5 C51_5 1_555 1_555
C52_5 C50_5 1_555 1_555
C53_5 C52_5 1_555 1_555
H26_5 C53_5 1_555 1_555
C54_5 C52_5 1_555 1_555
O11_5 U7_3 1_555 1_555
C63_5 C64_5 1_555 1_555
C64_5 C65_5 1_555 1_555
C65_5 H30_5 1_555 1_555
C66_5 C65_5 1_555 1_555
H31_5 C66_5 1_555 1_555
C67_5 C66_5 1_555 1_555
C68_5 C67_5 1_555 1_555
C69_5 C68_5 1_555 1_555
H32_5 C69_5 1_555 1_555
C70_5 C68_5 1_555 1_555
C71_5 C53_5 1_555 1_555
H33_5 C71_5 1_555 1_555
C72_5 C54_5 1_555 1_555
O13_5 C63_5 1_555 1_555
C83_5 C46_5 1_555 1_555
H39_5 C83_5 1_555 1_555
C84_5 C49_5 1_555 1_555
H40_5 C84_5 1_555 1_555
O16_5 U7_3 1_555 1_555
C87_5 C64_5 1_555 1_555
H43_5 C87_5 1_555 1_555
C88_5 C67_5 1_555 1_555
H44_5 C88_5 1_555 1_555
O18_5 C63_5 1_555 1_555
O29_3 U8_3 1_555 1_555
O30_3 U8_3 1_555 1_555
O38_2 U8_3 1_555 1_555
O41_2 U8_3 1_555 1_555
U9_3 O13_5 1_555 1_555
C45_5 O11_5 1_555 1_555
C45_5 O16_5 1_555 1_555
C70_5 C71_5 1_555 1_555
C70_5 C72_5 1_555 1_555
C83_5 C84_5 1_555 1_555
C87_5 C88_5 1_555 1_555
O18_5 U9_3 1_555 1_555
H25_6 C51_6 1_555 1_555
C55_5 C56_5 1_555 1_555
C56_5 C57_5 1_555 1_555
C57_5 H27_5 1_555 1_555
C58_5 C57_5 1_555 1_555
H28_5 C58_5 1_555 1_555
C59_5 C58_5 1_555 1_555
C60_5 C51_6 1_555 1_555
C61_5 C54_6 1_555 1_555
C62_5 C61_5 1_555 1_555
H29_5 C62_5 1_555 1_555
O12_2 C55_5 1_555 1_555
H32_6 C69_6 1_555 1_555
C72_6 C54_6 1_555 1_555
C73_5 C74_5 1_555 1_555
C74_5 C75_5 1_555 1_555
C75_5 H34_5 1_555 1_555
C76_5 C75_5 1_555 1_555
H35_5 C76_5 1_555 1_555
C77_5 C76_5 1_555 1_555
C78_5 C69_6 1_555 1_555
C79_5 C72_6 1_555 1_555
C80_5 C62_5 1_555 1_555
H36_5 C80_5 1_555 1_555
O14_5 C73_5 1_555 1_555
C81_5 C56_5 1_555 1_555
H37_5 C81_5 1_555 1_555
C82_5 C59_5 1_555 1_555
H38_5 C82_5 1_555 1_555
O15_2 C55_5 1_555 1_555
C85_5 C74_5 1_555 1_555
H41_5 C85_5 1_555 1_555
C86_5 C77_5 1_555 1_555
H42_5 C86_5 1_555 1_555
O17_5 C73_5 1_555 1_555
O31_3 U8_4 1_555 1_555
O32_3 U8_4 1_555 1_555
U8_4 O12_2 1_555 1_555
U10 O14_5 1_555 1_555
C59_5 C60_5 1_555 1_555
C60_5 C61_5 1_555 1_555
C77_5 C78_5 1_555 1_555
C78_5 C79_5 1_555 1_555
C79_5 C80_5 1_555 1_555
C81_5 C82_5 1_555 1_555
O15_2 U8_4 1_555 1_555
C85_5 C86_5 1_555 1_555
O17_5 U10 1_555 1_555
H25_7 C51_7 1_555 1_555
C55_6 C56_6 1_555 1_555
C56_6 C57_6 1_555 1_555
C57_6 H27_6 1_555 1_555
C58_6 C57_6 1_555 1_555
H28_6 C58_6 1_555 1_555
C59_6 C58_6 1_555 1_555
C60_6 C51_7 1_555 1_555
C61_6 C54_7 1_555 1_555
C62_6 C61_6 1_555 1_555
H29_6 C62_6 1_555 1_555
O38_2 C55_6 1_555 1_555
H32_7 C69_7 1_555 1_555
C72_7 C54_7 1_555 1_555
C73_6 C74_6 1_555 1_555
C74_6 C75_6 1_555 1_555
C75_6 H34_6 1_555 1_555
C76_6 C75_6 1_555 1_555
H35_6 C76_6 1_555 1_555
C77_6 C76_6 1_555 1_555
C78_6 C69_7 1_555 1_555
C79_6 C72_7 1_555 1_555
C80_6 C62_6 1_555 1_555
H36_6 C80_6 1_555 1_555
O14_6 C73_6 1_555 1_555
C81_6 C56_6 1_555 1_555
H37_6 C81_6 1_555 1_555
C82_6 C59_6 1_555 1_555
H38_6 C82_6 1_555 1_555
O41_2 C55_6 1_555 1_555
C85_6 C74_6 1_555 1_555
H41_6 C85_6 1_555 1_555
C86_6 C77_6 1_555 1_555
H42_6 C86_6 1_555 1_555
O17_6 C73_6 1_555 1_555
U10_2 O14_6 1_555 1_555
C59_6 C60_6 1_555 1_555
C60_6 C61_6 1_555 1_555
C77_6 C78_6 1_555 1_555
C78_6 C79_6 1_555 1_555
C79_6 C80_6 1_555 1_555
C81_6 C82_6 1_555 1_555
C85_6 C86_6 1_555 1_555
O17_6 U10_2 1_555 1_555
O27_6 U8 1_555 1_555
O28_6 U8 1_555 1_555
O37_4 U8 1_555 1_555
O42_4 U8 1_555 1_555
O2_10 U7_4 1_555 1_555
O3_10 U7_4 1_555 1_555
C45_6 C46_6 1_555 1_555
C46_6 C47_6 1_555 1_555
C47_6 H23_6 1_555 1_555
C48_6 C47_6 1_555 1_555
H24_6 C48_6 1_555 1_555
C49_6 C48_6 1_555 1_555
C50_6 C49_6 1_555 1_555
C51_8 C50_6 1_555 1_555
H25_8 C51_8 1_555 1_555
C52_6 C50_6 1_555 1_555
C53_6 C52_6 1_555 1_555
H26_6 C53_6 1_555 1_555
C54_8 C52_6 1_555 1_555
O11_6 U7_4 1_555 1_555
C63_6 C64_6 1_555 1_555
C64_6 C65_6 1_555 1_555
C65_6 H30_6 1_555 1_555
C66_6 C65_6 1_555 1_555
H31_6 C66_6 1_555 1_555
C67_6 C66_6 1_555 1_555
C68_6 C67_6 1_555 1_555
C69_8 C68_6 1_555 1_555
H32_8 C69_8 1_555 1_555
C70_6 C68_6 1_555 1_555
C71_6 C53_6 1_555 1_555
H33_6 C71_6 1_555 1_555
C72_8 C54_8 1_555 1_555
O13_6 C63_6 1_555 1_555
C83_6 C46_6 1_555 1_555
H39_6 C83_6 1_555 1_555
C84_6 C49_6 1_555 1_555
H40_6 C84_6 1_555 1_555
O16_6 U7_4 1_555 1_555
C87_6 C64_6 1_555 1_555
H43_6 C87_6 1_555 1_555
C88_6 C67_6 1_555 1_555
H44_6 C88_6 1_555 1_555
O18_6 C63_6 1_555 1_555
U9_4 O13_6 1_555 1_555
C45_6 O11_6 1_555 1_555
C45_6 O16_6 1_555 1_555
C70_6 C71_6 1_555 1_555
C70_6 C72_8 1_555 1_555
C83_6 C84_6 1_555 1_555
C87_6 C88_6 1_555 1_555
O18_6 U9_4 1_555 1_555
H25_9 C51_9 1_555 1_555
C55_7 C56_7 1_555 1_555
C56_7 C57_7 1_555 1_555
C57_7 H27_7 1_555 1_555
C58_7 C57_7 1_555 1_555
H28_7 C58_7 1_555 1_555
C59_7 C58_7 1_555 1_555
C60_7 C51_9 1_555 1_555
C61_7 C54_9 1_555 1_555
C62_7 C61_7 1_555 1_555
H29_7 C62_7 1_555 1_555
O37_3 C55_7 1_555 1_555
H32_9 C69_9 1_555 1_555
C72_9 C54_9 1_555 1_555
C73_7 C74_7 1_555 1_555
C74_7 C75_7 1_555 1_555
C75_7 H34_7 1_555 1_555
C76_7 C75_7 1_555 1_555
H35_7 C76_7 1_555 1_555
C77_7 C76_7 1_555 1_555
C78_7 C69_9 1_555 1_555
C79_7 C72_9 1_555 1_555
C80_7 C62_7 1_555 1_555
H36_7 C80_7 1_555 1_555
O14_7 C73_7 1_555 1_555
C81_7 C56_7 1_555 1_555
H37_7 C81_7 1_555 1_555
C82_7 C59_7 1_555 1_555
H38_7 C82_7 1_555 1_555
O42_3 C55_7 1_555 1_555
C85_7 C74_7 1_555 1_555
H41_7 C85_7 1_555 1_555
C86_7 C77_7 1_555 1_555
H42_7 C86_7 1_555 1_555
O17_7 C73_7 1_555 1_555
U10_3 O14_7 1_555 1_555
C59_7 C60_7 1_555 1_555
C60_7 C61_7 1_555 1_555
C77_7 C78_7 1_555 1_555
C78_7 C79_7 1_555 1_555
C79_7 C80_7 1_555 1_555
C81_7 C82_7 1_555 1_555
C85_7 C86_7 1_555 1_555
O17_7 U10_3 1_555 1_555
O2_11 U7 1_555 1_555
O3_11 U7 1_555 1_555
C45_7 C46_7 1_555 1_555
C46_7 C47_7 1_555 1_555
C47_7 H23_7 1_555 1_555
C48_7 C47_7 1_555 1_555
H24_7 C48_7 1_555 1_555
C49_7 C48_7 1_555 1_555
C50_7 C49_7 1_555 1_555
C51_10 C50_7 1_555 1_555
H25_10 C51_10 1_555 1_555
C52_7 C50_7 1_555 1_555
C53_7 C52_7 1_555 1_555
H26_7 C53_7 1_555 1_555
C54_10 C52_7 1_555 1_555
O11_7 U7 1_555 1_555
C63_7 C64_7 1_555 1_555
C64_7 C65_7 1_555 1_555
C65_7 H30_7 1_555 1_555
C66_7 C65_7 1_555 1_555
H31_7 C66_7 1_555 1_555
C67_7 C66_7 1_555 1_555
C68_7 C67_7 1_555 1_555
C69_10 C68_7 1_555 1_555
H32_10 C69_10 1_555 1_555
C70_7 C68_7 1_555 1_555
C71_7 C53_7 1_555 1_555
H33_7 C71_7 1_555 1_555
C72_10 C54_10 1_555 1_555
O13_7 C63_7 1_555 1_555
C83_7 C46_7 1_555 1_555
H39_7 C83_7 1_555 1_555
C84_7 C49_7 1_555 1_555
H40_7 C84_7 1_555 1_555
O16_7 U7 1_555 1_555
C87_7 C64_7 1_555 1_555
H43_7 C87_7 1_555 1_555
C88_7 C67_7 1_555 1_555
H44_7 C88_7 1_555 1_555
O18_7 C63_7 1_555 1_555
U9 O13_7 1_555 1_555
C45_7 O11_7 1_555 1_555
C45_7 O16_7 1_555 1_555
C70_7 C71_7 1_555 1_555
C70_7 C72_10 1_555 1_555
C83_7 C84_7 1_555 1_555
C87_7 C88_7 1_555 1_555
O18_7 U9 1_555 1_555
O2_12 U7_2 1_555 1_555
O3_12 U7_2 1_555 1_555
C45_8 C46_8 1_555 1_555
C46_8 C47_8 1_555 1_555
C47_8 H23_8 1_555 1_555
C48_8 C47_8 1_555 1_555
H24_8 C48_8 1_555 1_555
C49_8 C48_8 1_555 1_555
C50_8 C49_8 1_555 1_555
C51_11 C50_8 1_555 1_555
H25_11 C51_11 1_555 1_555
C52_8 C50_8 1_555 1_555
C53_8 C52_8 1_555 1_555
H26_8 C53_8 1_555 1_555
C54_11 C52_8 1_555 1_555
O11_8 U7_2 1_555 1_555
C63_8 C64_8 1_555 1_555
C64_8 C65_8 1_555 1_555
C65_8 H30_8 1_555 1_555
C66_8 C65_8 1_555 1_555
H31_8 C66_8 1_555 1_555
C67_8 C66_8 1_555 1_555
C68_8 C67_8 1_555 1_555
C69_11 C68_8 1_555 1_555
H32_11 C69_11 1_555 1_555
C70_8 C68_8 1_555 1_555
C71_8 C53_8 1_555 1_555
H33_8 C71_8 1_555 1_555
C72_11 C54_11 1_555 1_555
O13_8 C63_8 1_555 1_555
C83_8 C46_8 1_555 1_555
H39_8 C83_8 1_555 1_555
C84_8 C49_8 1_555 1_555
H40_8 C84_8 1_555 1_555
O16_8 U7_2 1_555 1_555
C87_8 C64_8 1_555 1_555
H43_8 C87_8 1_555 1_555
C88_8 C67_8 1_555 1_555
H44_8 C88_8 1_555 1_555
O18_8 C63_8 1_555 1_555
U9_2 O13_8 1_555 1_555
C45_8 O11_8 1_555 1_555
C45_8 O16_8 1_555 1_555
C70_8 C71_8 1_555 1_555
C70_8 C72_11 1_555 1_555
C83_8 C84_8 1_555 1_555
C87_8 C88_8 1_555 1_555
O18_8 U9_2 1_555 1_555
H25_12 C51_12 1_555 1_555
C55_8 C56_8 1_555 1_555
C56_8 C57_8 1_555 1_555
C57_8 H27_8 1_555 1_555
C58_8 C57_8 1_555 1_555
H28_8 C58_8 1_555 1_555
C59_8 C58_8 1_555 1_555
C60_8 C51_12 1_555 1_555
C61_8 C54_12 1_555 1_555
C62_8 C61_8 1_555 1_555
H29_8 C62_8 1_555 1_555
O37_4 C55_8 1_555 1_555
H32_12 C69_12 1_555 1_555
C72_12 C54_12 1_555 1_555
C73_8 C74_8 1_555 1_555
C74_8 C75_8 1_555 1_555
C75_8 H34_8 1_555 1_555
C76_8 C75_8 1_555 1_555
H35_8 C76_8 1_555 1_555
C77_8 C76_8 1_555 1_555
C78_8 C69_12 1_555 1_555
C79_8 C72_12 1_555 1_555
C80_8 C62_8 1_555 1_555
H36_8 C80_8 1_555 1_555
O14_8 C73_8 1_555 1_555
C81_8 C56_8 1_555 1_555
H37_8 C81_8 1_555 1_555
C82_8 C59_8 1_555 1_555
H38_8 C82_8 1_555 1_555
O42_4 C55_8 1_555 1_555
C85_8 C74_8 1_555 1_555
H41_8 C85_8 1_555 1_555
C86_8 C77_8 1_555 1_555
H42_8 C86_8 1_555 1_555
O17_8 C73_8 1_555 1_555
U10_4 O14_8 1_555 1_555
C59_8 C60_8 1_555 1_555
C60_8 C61_8 1_555 1_555
C77_8 C78_8 1_555 1_555
C78_8 C79_8 1_555 1_555
C79_8 C80_8 1_555 1_555
C81_8 C82_8 1_555 1_555
C85_8 C86_8 1_555 1_555
O17_8 U10_4 1_555 1_555
O2_13 U9_2 1_555 1_555
O3_13 U9_2 1_555 1_555
O27_7 U10_2 1_555 1_555
O28_7 U10_2 1_555 1_555
O29_4 U10_3 1_555 1_555
O30_4 U10_3 1_555 1_555
O31_4 U10_4 1_555 1_555
O32_4 U10_4 1_555 1_555
O2_14 U9 1_555 1_555
O3_14 U9 1_555 1_555
O27_8 U10 1_555 1_555
O28_8 U10 1_555 1_555
O2_15 U9_4 1_555 1_555
O3_15 U9_4 1_555 1_555
O2_16 U9_3 1_555 1_555
O3_16 U9_3 1_555 1_555

#END
