
###############################################################################
#
# This file contains modified crystal structure data generated from the
# MOF subset of the Cambridge Structural Database (CSD) v543 
# hosted by the Cambridge Crystallographic Data Centre (CCDC).
#
# This work is licensed under the Creative Commons
# Attribution-NonCommercial-ShareAlike 4.0 International License.
# To view a copy of this license, visit
# http://creativecommons.org/licenses/by-nc-sa/4.0/
# or send a letter to
# Creative Commons, PO Box 1866, Mountain View, CA 94042, USA.
#
# CIF created using the CSD Python API on 29 September 2022
# The structure has been converted into the P1 space group
# The structure has a 3D framework
# The original CSD entry UPIBOM is in the tetragonal crystal system
# The original CSD entry UPIBOM is in a Sohncke space group
# The framework has been calculated to contain at least 10.0% void space
# The void calculation uses a probe of radius 1.32A, grid spacing 0.4
#
###############################################################################

data_UPIBOM
_chemical_formula_moiety         '(C36 H20 O26 Tb4)n'
_symmetry_cell_setting           triclinic
_symmetry_space_group_name_H-M   'P 1'
_symmetry_Int_Tables_number      1
_space_group_name_Hall           'P 1'
loop_
_symmetry_equiv_pos_site_id
_symmetry_equiv_pos_as_xyz
1 x,y,z
_cell_length_a                   10.3397(4)
_cell_length_b                   10.3397(4)
_cell_length_c                   14.5061(8)
_cell_angle_alpha                90
_cell_angle_beta                 90
_cell_angle_gamma                90
_cell_volume                     1550.84
loop_
_atom_site_label
_atom_site_type_symbol
_atom_site_fract_x
_atom_site_fract_y
_atom_site_fract_z
Tb1 Tb 0.64745(4) 0.64736(4) 0.15744(12)
C1 C 0.3055(10) 0.5008(12) 0.2821(8)
H1 H 0.3955 0.5034 0.2826
O1 O 0.4303(9) 0.6105(13) 0.1303(7)
C2 C 0.0387(10) 0.5007(14) 0.2819(9)
C3 C 0.3139(13) 0.5875(13) 0.1206(9)
C4 C 0.1044(11) 0.4561(12) 0.3591(7)
H2 H 0.0592 0.4260 0.4102
C5 C 0.2397(10) 0.5411(12) 0.2044(7)
C6 C 0.1026(10) 0.5417(13) 0.2049(8)
H3 H 0.0568 0.5697 0.1534
C7 C 0.2408(10) 0.4571(12) 0.3589(7)
C9 C 0.3136(12) 0.4136(12) 0.4435(8)
O4 O 0.2547(9) 0.4045(10) 0.5181(6)
O5 O 0.4300(9) 0.3905(12) 0.4340(7)
O6 O 0.2545(9) 0.5948(10) 0.0464(6)
O7 O 0.8125(11) 0.8120(11) 0.1592(19)
H4 H 0.7933 0.8897 0.1456
H5 H 0.8898 0.7925 0.1734
Tb3 Tb 0.35255(4) 0.35264(4) 0.65744(12)
Tb6 Tb 0.64736(4) 0.35255(4) 0.40744(12)
O8 O 0.5712(10) 0.8358(8) 0.0894(6)
O9 O 0.8366(8) 0.5672(10) 0.2228(7)
O10 O 0.7453(9) 0.5955(10) 0.0181(6)
O11 O 0.6095(12) 0.4300(9) 0.1840(7)
O12 O 0.5948(10) 0.7455(9) 0.2964(6)
Tb4 Tb 0.35264(4) 0.64745(4) 0.90744(12)
O2 O 0.8358(8) 0.4288(10) 0.3394(6)
C8 C 0.8883(10) 0.4995(12) 0.2818(10)
O2_2 O 0.1642(8) 0.5712(10) 0.8394(6)
O3 O 0.1634(8) 0.4328(10) 0.7228(7)
C8_2 C 0.1117(10) 0.5005(12) 0.7818(10)
C1_2 C 0.6945(10) 0.4992(12) 0.7821(8)
H1_2 H 0.6045 0.4966 0.7826
O1_2 O 0.5697(9) 0.3895(13) 0.6303(7)
C2_2 C 0.9613(10) 0.4993(14) 0.7819(9)
C3_2 C 0.6861(13) 0.4125(13) 0.6206(9)
C4_2 C 0.8956(11) 0.5439(12) 0.8591(7)
H2_2 H 0.9408 0.5740 0.9102
C5_2 C 0.7603(10) 0.4589(12) 0.7044(7)
C6_2 C 0.8974(10) 0.4583(13) 0.7049(8)
H3_2 H 0.9432 0.4303 0.6534
C7_2 C 0.7592(10) 0.5429(12) 0.8589(7)
C9_2 C 0.6864(12) 0.5864(12) 0.9435(8)
O5_2 O 0.5700(9) 0.6095(12) 0.9340(7)
O6_2 O 0.7455(9) 0.4052(10) 0.5464(6)
O7_2 O 0.1875(11) 0.1880(11) 0.6592(19)
H4_2 H 0.2067 0.1103 0.6456
H5_2 H 0.1102 0.2075 0.6734
O8_2 O 0.4288(10) 0.1642(8) 0.5894(6)
O11_2 O 0.3905(12) 0.5700(9) 0.6840(7)
O12_2 O 0.4052(10) 0.2545(9) 0.7964(6)
C1_3 C 0.4992(12) 0.3055(10) 0.0321(8)
H1_3 H 0.4966 0.3955 0.0326
C2_3 C 0.4993(14) 0.0387(10) 0.0319(9)
C4_3 C 0.5439(12) 0.1044(11) 0.1091(7)
H2_3 H 0.5740 0.0592 0.1602
C7_3 C 0.5429(12) 0.2408(10) 0.1089(7)
C9_3 C 0.5864(12) 0.3136(12) 0.1935(8)
O4_2 O 0.5955(10) 0.2547(9) 0.2681(6)
O1_3 O 0.3895(13) 0.4303(9) 0.8803(7)
C3_3 C 0.4125(13) 0.3139(13) 0.8706(9)
C5_3 C 0.4589(12) 0.2397(10) 0.9544(7)
C6_3 C 0.4583(13) 0.1026(10) 0.9549(8)
H3_3 H 0.4303 0.0568 0.9034
O7_3 O 0.1880(11) 0.8125(11) 0.9092(19)
H4_3 H 0.1103 0.7933 0.8956
H5_3 H 0.2075 0.8898 0.9234
O9_2 O 0.4328(10) 0.8366(8) 0.9728(7)
O10_2 O 0.4045(10) 0.7453(9) 0.7681(6)
C8_3 C 0.5005(12) 0.8883(10) 0.0318(10)
O3_2 O 0.5672(10) 0.1634(8) 0.4728(7)
C8_4 C 0.4995(12) 0.1117(10) 0.5318(10)
C1_4 C 0.5008(12) 0.6945(10) 0.5321(8)
H1_4 H 0.5034 0.6045 0.5326
O1_4 O 0.6105(13) 0.5697(9) 0.3803(7)
C2_4 C 0.5007(14) 0.9613(10) 0.5319(9)
C3_4 C 0.5875(13) 0.6861(13) 0.3706(9)
C4_4 C 0.4561(12) 0.8956(11) 0.6091(7)
H2_4 H 0.4260 0.9408 0.6602
C5_4 C 0.5411(12) 0.7603(10) 0.4544(7)
C6_4 C 0.5417(13) 0.8974(10) 0.4549(8)
H3_4 H 0.5697 0.9432 0.4034
C7_4 C 0.4571(12) 0.7592(10) 0.6089(7)
C9_4 C 0.4136(12) 0.6864(12) 0.6935(8)
O7_4 O 0.8120(11) 0.1875(11) 0.4092(19)
H4_4 H 0.8897 0.2067 0.3956
H5_4 H 0.7925 0.1102 0.4234
loop_
_geom_bond_atom_site_label_1
_geom_bond_atom_site_label_2
_geom_bond_site_symmetry_1
_geom_bond_site_symmetry_2
Tb1 O1 1_555 1_555
C1 H1 1_555 1_555
O1 C3 1_555 1_555
C2 C4 1_555 1_555
C3 C5 1_555 1_555
C4 H2 1_555 1_555
C5 C1 1_555 1_555
C6 C2 1_555 1_555
H3 C6 1_555 1_555
C7 C1 1_555 1_555
C9 C7 1_555 1_555
O4 C9 1_555 1_555
O5 C9 1_555 1_555
O6 C3 1_555 1_555
O7 Tb1 1_555 1_555
H4 O7 1_555 1_555
H5 O7 1_555 1_555
Tb3 O4 1_555 1_555
Tb6 O5 1_555 1_555
O8 Tb1 1_555 1_555
O9 Tb1 1_555 1_555
O10 Tb1 1_555 1_555
O11 Tb1 1_555 1_555
O12 Tb1 1_555 1_555
C4 C7 1_555 1_555
C5 C6 1_555 1_555
O2 C8 1_555 1_555
O9 C8 1_555 1_555
Tb6 O2 1_555 1_555
O2_2 C8_2 1_555 1_555
O3 C8_2 1_555 1_555
Tb3 O3 1_555 1_555
Tb4 O2_2 1_555 1_555
Tb3 O1_2 1_555 1_555
C1_2 H1_2 1_555 1_555
O1_2 C3_2 1_555 1_555
C2_2 C4_2 1_555 1_555
C3_2 C5_2 1_555 1_555
C4_2 H2_2 1_555 1_555
C5_2 C1_2 1_555 1_555
C6_2 C2_2 1_555 1_555
H3_2 C6_2 1_555 1_555
C7_2 C1_2 1_555 1_555
C9_2 C7_2 1_555 1_555
O5_2 C9_2 1_555 1_555
O6_2 C3_2 1_555 1_555
O7_2 Tb3 1_555 1_555
H4_2 O7_2 1_555 1_555
H5_2 O7_2 1_555 1_555
Tb6 O6_2 1_555 1_555
Tb4 O5_2 1_555 1_555
O8_2 Tb3 1_555 1_555
O11_2 Tb3 1_555 1_555
O12_2 Tb3 1_555 1_555
C4_2 C7_2 1_555 1_555
C5_2 C6_2 1_555 1_555
C1_3 H1_3 1_555 1_555
C2_3 C4_3 1_555 1_555
C4_3 H2_3 1_555 1_555
C7_3 C1_3 1_555 1_555
C9_3 C7_3 1_555 1_555
O4_2 C9_3 1_555 1_555
O11 C9_3 1_555 1_555
Tb6 O4_2 1_555 1_555
C4_3 C7_3 1_555 1_555
Tb4 O1_3 1_555 1_555
O1_3 C3_3 1_555 1_555
C3_3 C5_3 1_555 1_555
H3_3 C6_3 1_555 1_555
O12_2 C3_3 1_555 1_555
O7_3 Tb4 1_555 1_555
H4_3 O7_3 1_555 1_555
H5_3 O7_3 1_555 1_555
O9_2 Tb4 1_555 1_555
O10_2 Tb4 1_555 1_555
C5_3 C6_3 1_555 1_555
O8 C8_3 1_555 1_555
O8_2 C8_4 1_555 1_555
O3_2 C8_4 1_555 1_555
Tb6 O3_2 1_555 1_555
Tb6 O1_4 1_555 1_555
C1_4 H1_4 1_555 1_555
O1_4 C3_4 1_555 1_555
C2_4 C4_4 1_555 1_555
C3_4 C5_4 1_555 1_555
C4_4 H2_4 1_555 1_555
C5_4 C1_4 1_555 1_555
C6_4 C2_4 1_555 1_555
H3_4 C6_4 1_555 1_555
C7_4 C1_4 1_555 1_555
C9_4 C7_4 1_555 1_555
O10_2 C9_4 1_555 1_555
O11_2 C9_4 1_555 1_555
O12 C3_4 1_555 1_555
O7_4 Tb6 1_555 1_555
H4_4 O7_4 1_555 1_555
H5_4 O7_4 1_555 1_555
C4_4 C7_4 1_555 1_555
C5_4 C6_4 1_555 1_555

#END
