
###############################################################################
#
# This file contains modified crystal structure data generated from the
# MOF subset of the Cambridge Structural Database (CSD) v543 
# hosted by the Cambridge Crystallographic Data Centre (CCDC).
#
# This work is licensed under the Creative Commons
# Attribution-NonCommercial-ShareAlike 4.0 International License.
# To view a copy of this license, visit
# http://creativecommons.org/licenses/by-nc-sa/4.0/
# or send a letter to
# Creative Commons, PO Box 1866, Mountain View, CA 94042, USA.
#
# CIF created using the CSD Python API on 29 September 2022
# The structure has been converted into the P1 space group
# The structure has a 3D framework
# The original CSD entry UPINAL is in the tetragonal crystal system
# The framework has been calculated to contain at least 10.0% void space
# The void calculation uses a probe of radius 1.32A, grid spacing 0.4
#
###############################################################################

data_UPINAL
_chemical_formula_moiety         '(C208 H120 Dy12 N16 O64)n'
_symmetry_cell_setting           triclinic
_symmetry_space_group_name_H-M   'P 1'
_symmetry_Int_Tables_number      1
_space_group_name_Hall           'P 1'
loop_
_symmetry_equiv_pos_site_id
_symmetry_equiv_pos_as_xyz
1 x,y,z
_cell_length_a                   30.1735(8)
_cell_length_b                   30.1735(8)
_cell_length_c                   8.2202(3)
_cell_angle_alpha                90
_cell_angle_beta                 90
_cell_angle_gamma                90
_cell_volume                     7484
loop_
_atom_site_label
_atom_site_type_symbol
_atom_site_fract_x
_atom_site_fract_y
_atom_site_fract_z
Dy2 Dy 0.05675(2) 0.72415(2) 0.21089(2)
O7 O 0.01884(8) 0.79005(8) 0.2587(3)
O2 O 0.00281(10) 0.37206(9) 0.5878(4)
H4 H 0.006173 0.523657 0.704543
H7 H 0.018296 0.450654 0.634589
Dy3 Dy 0.02585(2) 0.30675(2) 0.46089(2)
H1 H 0.974(3) 0.6890(19) 0.197(8)
Dy1 Dy 0.94325(2) 0.77585(2) 0.21089(2)
O1 O 0.91788(9) 0.71830(9) 0.0297(3)
O3 O 0.98116(8) 0.70995(8) 0.2587(3)
H2 H 0.918173 0.560352 0.082067
C13 C 0.91908(18) 0.62493(14) 0.0120(6)
H8 H 0.908962 0.636954 0.109365
Dy6 Dy 0.97415(2) 0.69325(2) 0.53911(2)
O6 O 0.87794(9) 0.75281(10) 0.3378(4)
O8 O 0.95995(8) 0.76884(8) 0.4913(3)
O9 O 0.93998(10) 0.85085(9) 0.2919(4)
N2 N 0.88607(10) 0.80748(11) 0.0122(4)
O4 O 0.93998(10) 0.35085(9) 0.7081(4)
O5 O 0.94114(10) 0.72344(9) 0.7723(3)
N1 N 0.94252(11) 0.63607(10) 0.7378(4)
C1 C 0.92907(11) 0.70223(11) 0.8956(4)
C2 C 0.9243(2) 0.57923(15) 0.9955(7)
C3 C 0.93890(17) 0.56239(13) 0.8475(6)
C4 C 0.94725(15) 0.59246(13) 0.7232(5)
H3 H 0.956741 0.581383 0.623525
C5 C 0.94781(18) 0.51443(14) 0.8184(6)
C6 C 0.98549(18) 0.50220(15) 0.7334(7)
C7 C 0.92909(12) 0.65204(12) 0.8821(5)
C8 C 0.9190(2) 0.48152(16) 0.8696(9)
H5 H 0.894555 0.488807 0.933319
C9 C 0.9264(2) 0.43782(15) 0.8260(8)
H6 H 0.906836 0.415984 0.861033
C10 C 0.96222(16) 0.42621(13) 0.7319(6)
C11 C 0.96883(14) 0.37914(12) 0.6719(5)
C12 C 0.99273(17) 0.45842(14) 0.6910(6)
Dy4 Dy 0.94325(2) 0.27585(2) 0.78911(2)
O10 O 0.97344(9) 0.80886(10) 0.9777(3)
H1_2 H 0.0610(19) 0.224(3) 0.447(8)
O1_2 O 0.03170(9) 0.16788(9) 0.2797(3)
O3_2 O 0.04005(8) 0.23116(8) 0.5087(3)
O5_2 O 0.02656(9) 0.19114(10) 0.0223(3)
C1_2 C 0.04777(11) 0.17907(11) 0.1456(4)
C2_2 C 0.17077(15) 0.1743(2) 0.2455(7)
H2_2 H 0.189648 0.168173 0.332067
C3_2 C 0.18761(13) 0.18890(17) 0.0975(6)
C5_2 C 0.23557(14) 0.19781(18) 0.0684(6)
C7_2 C 0.09796(12) 0.17909(12) 0.1321(5)
C8_2 C 0.26848(16) 0.1690(2) 0.1196(9)
H5_2 H 0.261193 0.144555 0.183319
C9_2 C 0.31218(15) 0.1764(2) 0.0760(8)
H6_2 H 0.334016 0.156836 0.111033
C13_2 C 0.12507(14) 0.16908(18) 0.2620(6)
H8_2 H 0.113046 0.158962 0.359365
Dy4_2 Dy 0.47415(2) 0.19325(2) 0.03911(2)
Dy6_2 Dy 0.05675(2) 0.22415(2) 0.78911(2)
O2_2 O 0.37794(9) 0.25281(10) 0.8378(4)
O4_2 O 0.39915(9) 0.18998(10) 0.9581(4)
N1_2 N 0.11393(10) 0.19252(11) 0.9878(4)
C4_2 C 0.15754(13) 0.19725(15) 0.9732(5)
H3_2 H 0.168617 0.206741 0.873525
C6_2 C 0.24780(15) 0.23549(18) 0.9834(7)
H4_2 H 0.226343 0.256173 0.954543
C10_2 C 0.32379(13) 0.21222(16) 0.9819(6)
C11_2 C 0.37086(12) 0.21883(14) 0.9219(5)
C12_2 C 0.29158(14) 0.24273(17) 0.9410(6)
H7_2 H 0.299346 0.268296 0.884589
Dy3_2 Dy 0.44325(2) 0.27585(2) 0.71089(2)
Dy1_2 Dy 0.97415(2) 0.19325(2) 0.46089(2)
O6_2 O 0.99719(10) 0.12794(9) 0.5878(4)
O7_2 O 0.95995(8) 0.26884(8) 0.5087(3)
O8_2 O 0.98116(8) 0.20995(8) 0.7413(3)
O9_2 O 0.89915(9) 0.18998(10) 0.5419(4)
O10_2 O 0.94114(10) 0.22344(9) 0.2277(3)
N2_2 N 0.94252(11) 0.13607(10) 0.2622(4)
Dy6_3 Dy 0.52585(2) 0.30675(2) 0.03911(2)
H1_3 H 0.526(3) 0.3110(19) 0.697(8)
Dy1_3 Dy 0.55675(2) 0.22415(2) 0.71089(2)
O1_3 O 0.58212(9) 0.28170(9) 0.5297(3)
O2_3 O 0.49719(10) 0.62794(9) 0.0878(4)
O3_3 O 0.51884(8) 0.29005(8) 0.7587(3)
O4_3 O 0.56002(10) 0.64915(9) 0.2081(4)
O5_3 O 0.55886(10) 0.27656(9) 0.2723(3)
N1_3 N 0.55748(11) 0.36393(10) 0.2378(4)
C1_3 C 0.57093(11) 0.29777(11) 0.3956(4)
C2_3 C 0.5757(2) 0.42077(15) 0.4955(7)
H2_3 H 0.581827 0.439648 0.582067
C3_3 C 0.56110(17) 0.43761(13) 0.3475(6)
C4_3 C 0.55275(15) 0.40754(13) 0.2232(5)
H3_3 H 0.543259 0.418617 0.123525
C5_3 C 0.55219(18) 0.48557(14) 0.3184(6)
C6_3 C 0.51451(18) 0.49780(15) 0.2334(7)
H4_3 H 0.493827 0.476343 0.204543
C7_3 C 0.57091(12) 0.34796(12) 0.3821(5)
C8_3 C 0.5810(2) 0.51848(16) 0.3696(9)
H5_3 H 0.605445 0.511193 0.433319
C9_3 C 0.5736(2) 0.56218(15) 0.3260(8)
H6_3 H 0.593164 0.584016 0.361033
C10_3 C 0.53778(16) 0.57379(13) 0.2319(6)
C11_3 C 0.53117(14) 0.62086(12) 0.1719(5)
C12_3 C 0.50727(17) 0.54158(14) 0.1910(6)
H7_3 H 0.481704 0.549346 0.134589
C13_3 C 0.58092(18) 0.37507(14) 0.5120(6)
H8_3 H 0.591038 0.363046 0.609365
Dy4_3 Dy 0.55675(2) 0.72415(2) 0.28911(2)
O6_3 O 0.62206(9) 0.24719(10) 0.8378(4)
O7_3 O 0.48116(8) 0.20995(8) 0.7587(3)
O8_3 O 0.54005(8) 0.23116(8) 0.9913(3)
O9_3 O 0.56002(10) 0.14915(9) 0.7919(4)
O10_3 O 0.52656(9) 0.19114(10) 0.4777(3)
N2_3 N 0.61393(10) 0.19252(11) 0.5122(4)
Dy3_3 Dy 0.47415(2) 0.69325(2) 0.96089(2)
O3_4 O 0.45995(8) 0.76884(8) 0.0087(3)
Dy6_4 Dy 0.44325(2) 0.77585(2) 0.28911(2)
O6_4 O 0.50281(10) 0.87206(9) 0.0878(4)
O7_4 O 0.54005(8) 0.73116(8) 0.0087(3)
O8_4 O 0.51884(8) 0.79005(8) 0.2413(3)
O9_4 O 0.60085(9) 0.81002(10) 0.0419(4)
H1_4 H 0.4390(19) 0.776(3) 0.947(8)
Dy1_4 Dy 0.52585(2) 0.80675(2) 0.96089(2)
O1_4 O 0.46830(9) 0.83212(9) 0.7797(3)
O2_4 O 0.12206(9) 0.74719(10) 0.3378(4)
O4_4 O 0.10085(9) 0.81002(10) 0.4581(4)
O5_4 O 0.47344(9) 0.80886(10) 0.5223(3)
N1_4 N 0.38607(10) 0.80748(11) 0.4878(4)
C1_4 C 0.45223(11) 0.82093(11) 0.6456(4)
C2_4 C 0.32923(15) 0.8257(2) 0.7455(7)
H2_4 H 0.310352 0.831827 0.832067
C3_4 C 0.31239(13) 0.81110(17) 0.5975(6)
C4_4 C 0.34246(13) 0.80275(15) 0.4732(5)
H3_4 H 0.331383 0.793259 0.373525
C5_4 C 0.26443(14) 0.80219(18) 0.5684(6)
C6_4 C 0.25220(15) 0.76451(18) 0.4834(7)
H4_4 H 0.273657 0.743827 0.454543
C7_4 C 0.40204(12) 0.82091(12) 0.6321(5)
C8_4 C 0.23152(16) 0.8310(2) 0.6196(9)
H5_4 H 0.238807 0.855445 0.683319
C9_4 C 0.18782(15) 0.8236(2) 0.5760(8)
H6_4 H 0.165984 0.843164 0.611033
C10_4 C 0.17621(13) 0.78778(16) 0.4819(6)
C11_4 C 0.12914(12) 0.78117(14) 0.4219(5)
C12_4 C 0.20842(14) 0.75727(17) 0.4410(6)
H7_4 H 0.200654 0.731704 0.384589
C13_4 C 0.37493(14) 0.83092(18) 0.7620(6)
H8_4 H 0.386954 0.841038 0.859365
Dy4_4 Dy 0.02585(2) 0.80675(2) 0.53911(2)
O10_4 O 0.55886(10) 0.77656(9) 0.7277(3)
N2_4 N 0.55748(11) 0.86393(10) 0.7622(4)
H1_5 H 0.474(3) 0.1890(19) 0.697(8)
O1_5 O 0.41788(9) 0.21830(9) 0.5297(3)
O5_5 O 0.44114(10) 0.22344(9) 0.2723(3)
N1_5 N 0.44252(11) 0.13607(10) 0.2378(4)
C1_5 C 0.42907(11) 0.20223(11) 0.3956(4)
C2_5 C 0.4243(2) 0.07923(15) 0.4955(7)
H2_5 H 0.418173 0.060352 0.582067
C3_5 C 0.43890(17) 0.06239(13) 0.3475(6)
C4_5 C 0.44725(15) 0.09246(13) 0.2232(5)
H3_5 H 0.456741 0.081383 0.123525
C5_5 C 0.44781(18) 0.01443(14) 0.3184(6)
C6_5 C 0.48549(18) 0.00220(15) 0.2334(7)
H4_5 H 0.506173 0.023657 0.204543
C7_5 C 0.42909(12) 0.15204(12) 0.3821(5)
C13_5 C 0.41908(18) 0.12493(14) 0.5120(6)
H8_5 H 0.408962 0.136954 0.609365
O8_5 O 0.45995(8) 0.26884(8) 0.9913(3)
O9_5 O 0.43998(10) 0.35085(9) 0.7919(4)
O10_5 O 0.47344(9) 0.30886(10) 0.4777(3)
N2_5 N 0.38607(10) 0.30748(11) 0.5122(4)
O4_5 O 0.43998(10) 0.85085(9) 0.2081(4)
C8_5 C 0.4190(2) 0.98152(16) 0.3696(9)
H5_5 H 0.394555 0.988807 0.433319
C9_5 C 0.4264(2) 0.93782(15) 0.3260(8)
H6_5 H 0.406836 0.915984 0.361033
C10_5 C 0.46222(16) 0.92621(13) 0.2319(6)
C11_5 C 0.46883(14) 0.87914(12) 0.1719(5)
C12_5 C 0.49273(17) 0.95842(14) 0.1910(6)
H7_5 H 0.518296 0.950654 0.134589
O8_6 O 0.48116(8) 0.70995(8) 0.2413(3)
O9_6 O 0.39915(9) 0.68998(10) 0.0419(4)
H1_6 H 0.5610(19) 0.724(3) 0.947(8)
O1_6 O 0.53170(9) 0.66788(9) 0.7797(3)
O4_6 O 0.89915(9) 0.68998(10) 0.4581(4)
O5_6 O 0.52656(9) 0.69114(10) 0.5223(3)
N1_6 N 0.61393(10) 0.69252(11) 0.4878(4)
C1_6 C 0.54777(11) 0.67907(11) 0.6456(4)
C2_6 C 0.67077(15) 0.6743(2) 0.7455(7)
H2_6 H 0.689648 0.668173 0.832067
C3_6 C 0.68761(13) 0.68890(17) 0.5975(6)
C4_6 C 0.65754(13) 0.69725(15) 0.4732(5)
H3_6 H 0.668617 0.706741 0.373525
C5_6 C 0.73557(14) 0.69781(18) 0.5684(6)
C6_6 C 0.74780(15) 0.73549(18) 0.4834(7)
H4_6 H 0.726343 0.756173 0.454543
C7_6 C 0.59796(12) 0.67909(12) 0.6321(5)
C8_6 C 0.76848(16) 0.6690(2) 0.6196(9)
H5_6 H 0.761193 0.644555 0.683319
C9_6 C 0.81218(15) 0.6764(2) 0.5760(8)
H6_6 H 0.834016 0.656836 0.611033
C10_6 C 0.82379(13) 0.71222(16) 0.4819(6)
C11_6 C 0.87086(12) 0.71883(14) 0.4219(5)
C12_6 C 0.79158(14) 0.74273(17) 0.4410(6)
H7_6 H 0.799346 0.768296 0.384589
C13_6 C 0.62507(14) 0.66908(18) 0.7620(6)
H8_6 H 0.613046 0.658962 0.859365
O10_6 O 0.44114(10) 0.72344(9) 0.7277(3)
N2_6 N 0.44252(11) 0.63607(10) 0.7622(4)
O4_7 O 0.06002(10) 0.14915(9) 0.7081(4)
C8_7 C 0.0810(2) 0.01848(16) 0.8696(9)
H5_7 H 0.105445 0.011193 0.933319
C9_7 C 0.0736(2) 0.06218(15) 0.8260(8)
H6_7 H 0.093164 0.084016 0.861033
C10_7 C 0.03778(16) 0.07379(13) 0.7319(6)
C11_7 C 0.03117(14) 0.12086(12) 0.6719(5)
C12_7 C 0.00727(17) 0.04158(14) 0.6910(6)
H1_7 H 0.026(3) 0.8110(19) 0.197(8)
O1_7 O 0.08212(9) 0.78170(9) 0.0297(3)
H2_7 H 0.081827 0.939648 0.082067
C13_7 C 0.08092(18) 0.87507(14) 0.0120(6)
H8_7 H 0.091038 0.863046 0.109365
O8_7 O 0.04005(8) 0.73116(8) 0.4913(3)
O9_7 O 0.06002(10) 0.64915(9) 0.2919(4)
N2_7 N 0.11393(10) 0.69252(11) 0.0122(4)
O5_7 O 0.05886(10) 0.77656(9) 0.7723(3)
N1_7 N 0.05748(11) 0.86393(10) 0.7378(4)
C1_7 C 0.07093(11) 0.79777(11) 0.8956(4)
C2_7 C 0.0757(2) 0.92077(15) 0.9955(7)
C3_7 C 0.06110(17) 0.93761(13) 0.8475(6)
C4_7 C 0.05275(15) 0.90754(13) 0.7232(5)
H3_7 H 0.043259 0.918617 0.623525
C5_7 C 0.05219(18) 0.98557(14) 0.8184(6)
C6_7 C 0.01451(18) 0.99780(15) 0.7334(7)
C7_7 C 0.07091(12) 0.84796(12) 0.8821(5)
O10_7 O 0.02656(9) 0.69114(10) 0.9777(3)
H7_7 H 0.981704 0.049346 0.634589
O8_8 O 0.01884(8) 0.29005(8) 0.7413(3)
O9_8 O 0.10085(9) 0.31002(10) 0.5419(4)
O10_8 O 0.05886(10) 0.27656(9) 0.2277(3)
N2_8 N 0.05748(11) 0.36393(10) 0.2622(4)
H1_8 H 0.9390(19) 0.276(3) 0.447(8)
O1_8 O 0.96830(9) 0.33212(9) 0.2797(3)
O5_8 O 0.97344(9) 0.30886(10) 0.0223(3)
C1_8 C 0.95223(11) 0.32093(11) 0.1456(4)
C2_8 C 0.82923(15) 0.3257(2) 0.2455(7)
H2_8 H 0.810352 0.331827 0.332067
C3_8 C 0.81239(13) 0.31110(17) 0.0975(6)
C5_8 C 0.76443(14) 0.30219(18) 0.0684(6)
C7_8 C 0.90204(12) 0.32091(12) 0.1321(5)
C8_8 C 0.73152(16) 0.3310(2) 0.1196(9)
H5_8 H 0.738807 0.355445 0.183319
C9_8 C 0.68782(15) 0.3236(2) 0.0760(8)
H6_8 H 0.665984 0.343164 0.111033
C13_8 C 0.87493(14) 0.33092(18) 0.2620(6)
H8_8 H 0.886954 0.341038 0.359365
O4_8 O 0.60085(9) 0.31002(10) 0.9581(4)
N1_8 N 0.88607(10) 0.30748(11) 0.9878(4)
C4_8 C 0.84246(13) 0.30275(15) 0.9732(5)
H3_8 H 0.831383 0.293259 0.873525
C6_8 C 0.75220(15) 0.26451(18) 0.9834(7)
H4_7 H 0.773657 0.243827 0.954543
C10_8 C 0.67621(13) 0.28778(16) 0.9819(6)
C11_8 C 0.62914(12) 0.28117(14) 0.9219(5)
C12_8 C 0.70842(14) 0.25727(17) 0.9410(6)
H7_8 H 0.700654 0.231704 0.884589
C1_9 C 0.07093(11) 0.29777(11) 0.1044(4)
C2_9 C 0.0757(2) 0.42077(15) 0.0045(7)
C3_9 C 0.06110(17) 0.43761(13) 0.1525(6)
C4_9 C 0.05275(15) 0.40754(13) 0.2768(5)
H3_9 H 0.043259 0.418617 0.376475
C5_9 C 0.05219(18) 0.48557(14) 0.1816(6)
C6_9 C 0.01451(18) 0.49780(15) 0.2666(7)
C7_9 C 0.07091(12) 0.34796(12) 0.1179(5)
C8_9 C 0.0810(2) 0.51848(16) 0.1304(9)
H5_9 H 0.105445 0.511193 0.066681
C9_9 C 0.0736(2) 0.56218(15) 0.1740(8)
H6_9 H 0.093164 0.584016 0.138967
C10_9 C 0.03778(16) 0.57379(13) 0.2681(6)
C11_9 C 0.03117(14) 0.62086(12) 0.3281(5)
C12_9 C 0.00727(17) 0.54158(14) 0.3090(6)
H1_9 H 0.026(3) 0.3110(19) 0.803(8)
O1_9 O 0.08212(9) 0.28170(9) 0.9703(3)
H2_9 H 0.081827 0.439648 0.917933
C13_9 C 0.08092(18) 0.37507(14) 0.9880(6)
H8_9 H 0.091038 0.363046 0.890635
O6_5 O 0.12206(9) 0.24719(10) 0.6622(4)
O2_5 O 0.99719(10) 0.62794(9) 0.4122(4)
H4_8 H 0.993827 0.476343 0.295457
H7_9 H 0.981704 0.549346 0.365411
O6_6 O 0.00281(10) 0.87206(9) 0.4122(4)
O2_6 O 0.62206(9) 0.74719(10) 0.1622(4)
C4_10 C 0.84246(13) 0.80275(15) 0.0268(5)
H3_10 H 0.831383 0.793259 0.126475
C6_10 C 0.75220(15) 0.76451(18) 0.0166(7)
H4_9 H 0.773657 0.743827 0.045457
C10_10 C 0.67621(13) 0.78778(16) 0.0181(6)
C11_10 C 0.62914(12) 0.78117(14) 0.0781(5)
C12_10 C 0.70842(14) 0.75727(17) 0.0590(6)
H7_10 H 0.700654 0.731704 0.115411
H1_10 H 0.9390(19) 0.776(3) 0.553(8)
O1_10 O 0.96830(9) 0.83212(9) 0.7203(3)
C1_10 C 0.95223(11) 0.82093(11) 0.8544(4)
C2_10 C 0.82923(15) 0.8257(2) 0.7545(7)
H2_10 H 0.810352 0.831827 0.667933
C3_10 C 0.81239(13) 0.81110(17) 0.9025(6)
C5_10 C 0.76443(14) 0.80219(18) 0.9316(6)
C7_10 C 0.90204(12) 0.82091(12) 0.8679(5)
C8_10 C 0.73152(16) 0.8310(2) 0.8804(9)
H5_10 H 0.738807 0.855445 0.816681
C9_10 C 0.68782(15) 0.8236(2) 0.9240(8)
H6_10 H 0.665984 0.843164 0.888967
C13_10 C 0.87493(14) 0.83092(18) 0.7380(6)
H8_10 H 0.886954 0.841038 0.640635
H1_11 H 0.474(3) 0.6890(19) 0.303(8)
O1_11 O 0.41788(9) 0.71830(9) 0.4703(3)
O2_7 O 0.50281(10) 0.37206(9) 0.9122(4)
C1_11 C 0.42907(11) 0.70223(11) 0.6044(4)
C2_11 C 0.4243(2) 0.57923(15) 0.5045(7)
H2_11 H 0.418173 0.560352 0.417933
C3_11 C 0.43890(17) 0.56239(13) 0.6525(6)
C4_11 C 0.44725(15) 0.59246(13) 0.7768(5)
H3_11 H 0.456741 0.581383 0.876475
C5_11 C 0.44781(18) 0.51443(14) 0.6816(6)
C6_11 C 0.48549(18) 0.50220(15) 0.7666(7)
H4_10 H 0.506173 0.523657 0.795457
C7_11 C 0.42909(12) 0.65204(12) 0.6179(5)
C8_11 C 0.4190(2) 0.48152(16) 0.6304(9)
H5_11 H 0.394555 0.488807 0.566681
C9_11 C 0.4264(2) 0.43782(15) 0.6740(8)
H6_11 H 0.406836 0.415984 0.638967
C10_11 C 0.46222(16) 0.42621(13) 0.7681(6)
C11_11 C 0.46883(14) 0.37914(12) 0.8281(5)
C12_11 C 0.49273(17) 0.45842(14) 0.8090(6)
H7_11 H 0.518296 0.450654 0.865411
C13_11 C 0.41908(18) 0.62493(14) 0.4880(6)
H8_11 H 0.408962 0.636954 0.390635
O6_7 O 0.37794(9) 0.75281(10) 0.1622(4)
H1_12 H 0.5610(19) 0.224(3) 0.053(8)
O1_12 O 0.53170(9) 0.16788(9) 0.2203(3)
O2_8 O 0.87794(9) 0.25281(10) 0.6622(4)
C1_12 C 0.54777(11) 0.17907(11) 0.3544(4)
C2_12 C 0.67077(15) 0.1743(2) 0.2545(7)
H2_12 H 0.689648 0.168173 0.167933
C3_12 C 0.68761(13) 0.18890(17) 0.4025(6)
C4_12 C 0.65754(13) 0.19725(15) 0.5268(5)
H3_12 H 0.668617 0.206741 0.626475
C5_12 C 0.73557(14) 0.19781(18) 0.4316(6)
C6_12 C 0.74780(15) 0.23549(18) 0.5166(7)
H4_11 H 0.726343 0.256173 0.545457
C7_12 C 0.59796(12) 0.17909(12) 0.3679(5)
C8_12 C 0.76848(16) 0.1690(2) 0.3804(9)
H5_12 H 0.761193 0.144555 0.316681
C9_12 C 0.81218(15) 0.1764(2) 0.4240(8)
H6_12 H 0.834016 0.156836 0.388967
C10_12 C 0.82379(13) 0.21222(16) 0.5181(6)
C11_12 C 0.87086(12) 0.21883(14) 0.5781(5)
C12_12 C 0.79158(14) 0.24273(17) 0.5590(6)
H7_12 H 0.799346 0.268296 0.615411
C13_12 C 0.62507(14) 0.16908(18) 0.2380(6)
H8_12 H 0.613046 0.158962 0.140635
O6_8 O 0.49719(10) 0.12794(9) 0.9122(4)
C8_13 C 0.5810(2) 0.01848(16) 0.6304(9)
H5_13 H 0.605445 0.011193 0.566681
C9_13 C 0.5736(2) 0.06218(15) 0.6740(8)
H6_13 H 0.593164 0.084016 0.638967
C10_13 C 0.53778(16) 0.07379(13) 0.7681(6)
C11_13 C 0.53117(14) 0.12086(12) 0.8281(5)
C12_13 C 0.50727(17) 0.04158(14) 0.8090(6)
H7_13 H 0.481704 0.049346 0.865411
H1_13 H 0.526(3) 0.8110(19) 0.303(8)
O1_13 O 0.58212(9) 0.78170(9) 0.4703(3)
C1_13 C 0.57093(11) 0.79777(11) 0.6044(4)
C2_13 C 0.5757(2) 0.92077(15) 0.5045(7)
H2_13 H 0.581827 0.939648 0.417933
C3_13 C 0.56110(17) 0.93761(13) 0.6525(6)
C4_13 C 0.55275(15) 0.90754(13) 0.7768(5)
H3_13 H 0.543259 0.918617 0.876475
C5_13 C 0.55219(18) 0.98557(14) 0.6816(6)
C6_13 C 0.51451(18) 0.99780(15) 0.7666(7)
H4_12 H 0.493827 0.976343 0.795457
C7_13 C 0.57091(12) 0.84796(12) 0.6179(5)
C13_13 C 0.58092(18) 0.87507(14) 0.4880(6)
H8_13 H 0.591038 0.863046 0.390635
H1_14 H 0.4390(19) 0.276(3) 0.053(8)
O1_14 O 0.46830(9) 0.33212(9) 0.2203(3)
C1_14 C 0.45223(11) 0.32093(11) 0.3544(4)
C2_14 C 0.32923(15) 0.3257(2) 0.2545(7)
H2_14 H 0.310352 0.331827 0.167933
C3_14 C 0.31239(13) 0.31110(17) 0.4025(6)
C4_14 C 0.34246(13) 0.30275(15) 0.5268(5)
H3_14 H 0.331383 0.293259 0.626475
C5_14 C 0.26443(14) 0.30219(18) 0.4316(6)
C6_14 C 0.25220(15) 0.26451(18) 0.5166(7)
H4_13 H 0.273657 0.243827 0.545457
C7_14 C 0.40204(12) 0.32091(12) 0.3679(5)
C8_14 C 0.23152(16) 0.3310(2) 0.3804(9)
H5_14 H 0.238807 0.355445 0.316681
C9_14 C 0.18782(15) 0.3236(2) 0.4240(8)
H6_14 H 0.165984 0.343164 0.388967
C10_14 C 0.17621(13) 0.28778(16) 0.5181(6)
C11_14 C 0.12914(12) 0.28117(14) 0.5781(5)
C12_14 C 0.20842(14) 0.25727(17) 0.5590(6)
H7_14 H 0.200654 0.231704 0.615411
C13_14 C 0.37493(14) 0.33092(18) 0.2380(6)
H8_14 H 0.386954 0.341038 0.140635
H7_15 H 0.018296 0.950654 0.365411
C1_15 C 0.92907(11) 0.20223(11) 0.1044(4)
C2_15 C 0.9243(2) 0.07923(15) 0.0045(7)
C3_15 C 0.93890(17) 0.06239(13) 0.1525(6)
C4_15 C 0.94725(15) 0.09246(13) 0.2768(5)
H3_15 H 0.956741 0.081383 0.376475
C5_15 C 0.94781(18) 0.01443(14) 0.1816(6)
C6_15 C 0.98549(18) 0.00220(15) 0.2666(7)
C7_15 C 0.92909(12) 0.15204(12) 0.1179(5)
H1_15 H 0.974(3) 0.1890(19) 0.803(8)
O1_15 O 0.91788(9) 0.21830(9) 0.9703(3)
H2_15 H 0.918173 0.060352 0.917933
C13_15 C 0.91908(18) 0.12493(14) 0.9880(6)
H8_15 H 0.908962 0.136954 0.890635
C8_15 C 0.9190(2) 0.98152(16) 0.1304(9)
H5_15 H 0.894555 0.988807 0.066681
C9_15 C 0.9264(2) 0.93782(15) 0.1740(8)
H6_15 H 0.906836 0.915984 0.138967
C10_15 C 0.96222(16) 0.92621(13) 0.2681(6)
C11_15 C 0.96883(14) 0.87914(12) 0.3281(5)
C12_15 C 0.99273(17) 0.95842(14) 0.3090(6)
C4_16 C 0.15754(13) 0.69725(15) 0.0268(5)
H3_16 H 0.168617 0.706741 0.126475
C6_16 C 0.24780(15) 0.73549(18) 0.0166(7)
H4_14 H 0.226343 0.756173 0.045457
C10_16 C 0.32379(13) 0.71222(16) 0.0181(6)
C11_16 C 0.37086(12) 0.71883(14) 0.0781(5)
C12_16 C 0.29158(14) 0.74273(17) 0.0590(6)
H7_16 H 0.299346 0.768296 0.115411
H1_16 H 0.0610(19) 0.724(3) 0.553(8)
O1_16 O 0.03170(9) 0.66788(9) 0.7203(3)
C1_16 C 0.04777(11) 0.67907(11) 0.8544(4)
C2_16 C 0.17077(15) 0.6743(2) 0.7545(7)
H2_16 H 0.189648 0.668173 0.667933
C3_16 C 0.18761(13) 0.68890(17) 0.9025(6)
C5_16 C 0.23557(14) 0.69781(18) 0.9316(6)
C7_16 C 0.09796(12) 0.67909(12) 0.8679(5)
C8_16 C 0.26848(16) 0.6690(2) 0.8804(9)
H5_16 H 0.261193 0.644555 0.816681
C9_16 C 0.31218(15) 0.6764(2) 0.9240(8)
H6_16 H 0.334016 0.656836 0.888967
C13_16 C 0.12507(14) 0.66908(18) 0.7380(6)
H8_16 H 0.113046 0.658962 0.640635
H4_15 H 0.993827 0.976343 0.704543
H4_16 H 0.006173 0.023657 0.295457
loop_
_geom_bond_atom_site_label_1
_geom_bond_atom_site_label_2
_geom_bond_site_symmetry_1
_geom_bond_site_symmetry_2
Dy2 O7 1_555 1_555
Dy3 O2 1_555 1_555
H1 O3 1_555 1_555
Dy1 O1 1_555 1_555
O3 Dy1 1_555 1_555
H8 C13 1_555 1_555
Dy6 O3 1_555 1_555
O6 Dy1 1_555 1_555
O8 Dy1 1_555 1_555
O9 Dy1 1_555 1_555
N2 Dy1 1_555 1_555
Dy6 O8 1_555 1_555
O4 C11 1_555 1_555
O5 C1 1_555 1_555
N1 C4 1_555 1_555
C1 C7 1_555 1_555
C3 C2 1_555 1_555
C4 C3 1_555 1_555
H3 C4 1_555 1_555
C5 C3 1_555 1_555
C6 C5 1_555 1_555
C7 N1 1_555 1_555
C8 C5 1_555 1_555
H5 C8 1_555 1_555
C9 C8 1_555 1_555
H6 C9 1_555 1_555
C10 C9 1_555 1_555
C11 C10 1_555 1_555
C12 C6 1_555 1_555
Dy4 O4 1_555 1_555
Dy6 O5 1_555 1_555
N1 Dy6 1_555 1_555
C10 C12 1_555 1_555
H1_2 O3_2 1_555 1_555
O1_2 C1_2 1_555 1_555
O5_2 C1_2 1_555 1_555
C1_2 C7_2 1_555 1_555
C2_2 H2_2 1_555 1_555
C3_2 C2_2 1_555 1_555
C5_2 C3_2 1_555 1_555
C8_2 C5_2 1_555 1_555
H5_2 C8_2 1_555 1_555
C9_2 C8_2 1_555 1_555
H6_2 C9_2 1_555 1_555
C13_2 C2_2 1_555 1_555
H8_2 C13_2 1_555 1_555
Dy3 O3_2 1_555 1_555
Dy6_2 O3_2 1_555 1_555
C7_2 C13_2 1_555 1_555
O2_2 C11_2 1_555 1_555
O4_2 C11_2 1_555 1_555
N1_2 C4_2 1_555 1_555
H3_2 C4_2 1_555 1_555
H4_2 C6_2 1_555 1_555
C11_2 C10_2 1_555 1_555
C12_2 C6_2 1_555 1_555
H7_2 C12_2 1_555 1_555
Dy3_2 O2_2 1_555 1_555
N1_2 Dy6_2 1_555 1_555
C10_2 C12_2 1_555 1_555
O6_2 Dy1_2 1_555 1_555
O7_2 Dy1_2 1_555 1_555
O8_2 Dy1_2 1_555 1_555
O9_2 Dy1_2 1_555 1_555
O10_2 Dy1_2 1_555 1_555
N2_2 Dy1_2 1_555 1_555
H1_3 O3_3 1_555 1_555
Dy1_3 O1_3 1_555 1_555
O1_3 C1_3 1_555 1_555
O2_3 C11_3 1_555 1_555
O3_3 Dy1_3 1_555 1_555
O4_3 C11_3 1_555 1_555
O5_3 C1_3 1_555 1_555
N1_3 C4_3 1_555 1_555
C1_3 C7_3 1_555 1_555
C2_3 H2_3 1_555 1_555
C3_3 C2_3 1_555 1_555
C4_3 C3_3 1_555 1_555
H3_3 C4_3 1_555 1_555
C5_3 C3_3 1_555 1_555
C6_3 C5_3 1_555 1_555
H4_3 C6_3 1_555 1_555
C7_3 N1_3 1_555 1_555
C8_3 C5_3 1_555 1_555
H5_3 C8_3 1_555 1_555
C9_3 C8_3 1_555 1_555
H6_3 C9_3 1_555 1_555
C10_3 C9_3 1_555 1_555
C11_3 C10_3 1_555 1_555
C12_3 C6_3 1_555 1_555
H7_3 C12_3 1_555 1_555
C13_3 C2_3 1_555 1_555
H8_3 C13_3 1_555 1_555
Dy3_2 O3_3 1_555 1_555
Dy4_3 O4_3 1_555 1_555
Dy6_3 O5_3 1_555 1_555
O6_3 Dy1_3 1_555 1_555
O7_3 Dy1_3 1_555 1_555
O8_3 Dy1_3 1_555 1_555
O9_3 Dy1_3 1_555 1_555
O10_3 Dy1_3 1_555 1_555
N2_3 Dy1_3 1_555 1_555
N1_3 Dy6_3 1_555 1_555
C7_3 C13_3 1_555 1_555
C10_3 C12_3 1_555 1_555
Dy3_2 O7_3 1_555 1_555
Dy6_4 O3_4 1_555 1_555
Dy6_4 O8_4 1_555 1_555
Dy1_4 O1_4 1_555 1_555
O1_4 C1_4 1_555 1_555
O2_4 C11_4 1_555 1_555
O4_4 C11_4 1_555 1_555
O5_4 C1_4 1_555 1_555
N1_4 C4_4 1_555 1_555
C1_4 C7_4 1_555 1_555
C2_4 H2_4 1_555 1_555
C3_4 C2_4 1_555 1_555
C4_4 C3_4 1_555 1_555
H3_4 C4_4 1_555 1_555
C5_4 C3_4 1_555 1_555
C6_4 C5_4 1_555 1_555
H4_4 C6_4 1_555 1_555
C7_4 N1_4 1_555 1_555
C8_4 C5_4 1_555 1_555
H5_4 C8_4 1_555 1_555
C9_4 C8_4 1_555 1_555
H6_4 C9_4 1_555 1_555
C10_4 C9_4 1_555 1_555
C11_4 C10_4 1_555 1_555
C12_4 C6_4 1_555 1_555
H7_4 C12_4 1_555 1_555
C13_4 C2_4 1_555 1_555
H8_4 C13_4 1_555 1_555
Dy2 O2_4 1_555 1_555
Dy4_4 O4_4 1_555 1_555
Dy6_4 O5_4 1_555 1_555
O10_4 Dy1_4 1_555 1_555
N2_4 Dy1_4 1_555 1_555
N1_4 Dy6_4 1_555 1_555
C7_4 C13_4 1_555 1_555
C10_4 C12_4 1_555 1_555
H1_5 O7_3 1_555 1_555
Dy3_2 O1_5 1_555 1_555
O1_5 C1_5 1_555 1_555
O5_5 C1_5 1_555 1_555
N1_5 C4_5 1_555 1_555
C1_5 C7_5 1_555 1_555
C2_5 H2_5 1_555 1_555
C3_5 C2_5 1_555 1_555
C4_5 C3_5 1_555 1_555
H3_5 C4_5 1_555 1_555
C5_5 C3_5 1_555 1_555
C6_5 C5_5 1_555 1_555
H4_5 C6_5 1_555 1_555
C7_5 N1_5 1_555 1_555
C13_5 C2_5 1_555 1_555
H8_5 C13_5 1_555 1_555
Dy4_2 O5_5 1_555 1_555
O8_5 Dy3_2 1_555 1_555
O9_5 Dy3_2 1_555 1_555
O10_5 Dy3_2 1_555 1_555
N2_5 Dy3_2 1_555 1_555
N1_5 Dy4_2 1_555 1_555
C7_5 C13_5 1_555 1_555
O6_4 C11_5 1_555 1_555
O4_5 C11_5 1_555 1_555
H5_5 C8_5 1_555 1_555
C9_5 C8_5 1_555 1_555
H6_5 C9_5 1_555 1_555
C10_5 C9_5 1_555 1_555
C11_5 C10_5 1_555 1_555
H7_5 C12_5 1_555 1_555
Dy6_4 O4_5 1_555 1_555
C10_5 C12_5 1_555 1_555
Dy4_3 O7_4 1_555 1_555
Dy4_3 O8_6 1_555 1_555
Dy3_3 O1_6 1_555 1_555
O1_6 C1_6 1_555 1_555
O6 C11_6 1_555 1_555
O4_6 C11_6 1_555 1_555
O5_6 C1_6 1_555 1_555
N1_6 C4_6 1_555 1_555
C1_6 C7_6 1_555 1_555
C2_6 H2_6 1_555 1_555
C3_6 C2_6 1_555 1_555
C4_6 C3_6 1_555 1_555
H3_6 C4_6 1_555 1_555
C5_6 C3_6 1_555 1_555
C6_6 C5_6 1_555 1_555
H4_6 C6_6 1_555 1_555
C7_6 N1_6 1_555 1_555
C8_6 C5_6 1_555 1_555
H5_6 C8_6 1_555 1_555
C9_6 C8_6 1_555 1_555
H6_6 C9_6 1_555 1_555
C10_6 C9_6 1_555 1_555
C11_6 C10_6 1_555 1_555
C12_6 C6_6 1_555 1_555
H7_6 C12_6 1_555 1_555
C13_6 C2_6 1_555 1_555
H8_6 C13_6 1_555 1_555
Dy6 O4_6 1_555 1_555
Dy4_3 O5_6 1_555 1_555
O10_6 Dy3_3 1_555 1_555
N2_6 Dy3_3 1_555 1_555
N1_6 Dy4_3 1_555 1_555
C7_6 C13_6 1_555 1_555
C10_6 C12_6 1_555 1_555
O4_7 C11_7 1_555 1_555
H5_7 C8_7 1_555 1_555
C9_7 C8_7 1_555 1_555
H6_7 C9_7 1_555 1_555
C10_7 C9_7 1_555 1_555
C11_7 C10_7 1_555 1_555
Dy6_2 O4_7 1_555 1_555
C10_7 C12_7 1_555 1_555
H1_7 O7 1_555 1_555
Dy2 O1_7 1_555 1_555
H8_7 C13_7 1_555 1_555
Dy4_4 O7 1_555 1_555
O8_7 Dy2 1_555 1_555
O9_7 Dy2 1_555 1_555
N2_7 Dy2 1_555 1_555
Dy4_4 O8_7 1_555 1_555
O5_7 C1_7 1_555 1_555
N1_7 C4_7 1_555 1_555
C1_7 C7_7 1_555 1_555
C3_7 C2_7 1_555 1_555
C4_7 C3_7 1_555 1_555
H3_7 C4_7 1_555 1_555
C5_7 C3_7 1_555 1_555
C6_7 C5_7 1_555 1_555
C7_7 N1_7 1_555 1_555
Dy4_4 O5_7 1_555 1_555
N1_7 Dy4_4 1_555 1_555
O8_8 Dy3 1_555 1_555
O9_8 Dy3 1_555 1_555
O10_8 Dy3 1_555 1_555
N2_8 Dy3 1_555 1_555
H1_8 O7_2 1_555 1_555
O1_8 C1_8 1_555 1_555
O5_8 C1_8 1_555 1_555
C1_8 C7_8 1_555 1_555
C2_8 H2_8 1_555 1_555
C3_8 C2_8 1_555 1_555
C5_8 C3_8 1_555 1_555
C8_8 C5_8 1_555 1_555
H5_8 C8_8 1_555 1_555
C9_8 C8_8 1_555 1_555
H6_8 C9_8 1_555 1_555
C13_8 C2_8 1_555 1_555
H8_8 C13_8 1_555 1_555
Dy4 O7_2 1_555 1_555
C7_8 C13_8 1_555 1_555
O6_3 C11_8 1_555 1_555
O4_8 C11_8 1_555 1_555
N1_8 C4_8 1_555 1_555
H3_8 C4_8 1_555 1_555
H4_7 C6_8 1_555 1_555
C11_8 C10_8 1_555 1_555
C12_8 C6_8 1_555 1_555
H7_8 C12_8 1_555 1_555
N1_8 Dy4 1_555 1_555
C10_8 C12_8 1_555 1_555
O9_7 C11_9 1_555 1_555
O10_8 C1_9 1_555 1_555
N2_8 C4_9 1_555 1_555
C1_9 C7_9 1_555 1_555
C3_9 C2_9 1_555 1_555
C4_9 C3_9 1_555 1_555
H3_9 C4_9 1_555 1_555
C5_9 C3_9 1_555 1_555
C6_9 C5_9 1_555 1_555
C7_9 N2_8 1_555 1_555
C8_9 C5_9 1_555 1_555
H5_9 C8_9 1_555 1_555
C9_9 C8_9 1_555 1_555
H6_9 C9_9 1_555 1_555
C10_9 C9_9 1_555 1_555
C11_9 C10_9 1_555 1_555
C12_9 C6_9 1_555 1_555
C10_9 C12_9 1_555 1_555
H1_9 O8_8 1_555 1_555
Dy6_2 O1_9 1_555 1_555
O8_8 Dy6_2 1_555 1_555
H8_9 C13_9 1_555 1_555
O6_5 Dy6_2 1_555 1_555
Dy6 O2_5 1_555 1_555
Dy4 O8_2 1_555 1_555
O6_6 Dy4_4 1_555 1_555
O2_6 C11_10 1_555 1_555
O9_4 C11_10 1_555 1_555
N2 C4_10 1_555 1_555
H3_10 C4_10 1_555 1_555
H4_9 C6_10 1_555 1_555
C11_10 C10_10 1_555 1_555
C12_10 C6_10 1_555 1_555
H7_10 C12_10 1_555 1_555
Dy4_3 O2_6 1_555 1_555
C10_10 C12_10 1_555 1_555
H1_10 O8 1_555 1_555
O1_10 C1_10 1_555 1_555
O10 C1_10 1_555 1_555
C1_10 C7_10 1_555 1_555
C2_10 H2_10 1_555 1_555
C3_10 C2_10 1_555 1_555
C5_10 C3_10 1_555 1_555
C8_10 C5_10 1_555 1_555
H5_10 C8_10 1_555 1_555
C9_10 C8_10 1_555 1_555
H6_10 C9_10 1_555 1_555
C13_10 C2_10 1_555 1_555
H8_10 C13_10 1_555 1_555
C7_10 C13_10 1_555 1_555
H1_11 O8_6 1_555 1_555
Dy6_4 O1_11 1_555 1_555
O1_11 C1_11 1_555 1_555
O2_7 C11_11 1_555 1_555
O8_6 Dy6_4 1_555 1_555
O9_5 C11_11 1_555 1_555
O10_6 C1_11 1_555 1_555
N2_6 C4_11 1_555 1_555
C1_11 C7_11 1_555 1_555
C2_11 H2_11 1_555 1_555
C3_11 C2_11 1_555 1_555
C4_11 C3_11 1_555 1_555
H3_11 C4_11 1_555 1_555
C5_11 C3_11 1_555 1_555
C6_11 C5_11 1_555 1_555
H4_10 C6_11 1_555 1_555
C7_11 N2_6 1_555 1_555
C8_11 C5_11 1_555 1_555
H5_11 C8_11 1_555 1_555
C9_11 C8_11 1_555 1_555
H6_11 C9_11 1_555 1_555
C10_11 C9_11 1_555 1_555
C11_11 C10_11 1_555 1_555
C12_11 C6_11 1_555 1_555
H7_11 C12_11 1_555 1_555
C13_11 C2_11 1_555 1_555
H8_11 C13_11 1_555 1_555
O6_7 Dy6_4 1_555 1_555
C7_11 C13_11 1_555 1_555
C10_11 C12_11 1_555 1_555
Dy4_3 O8_4 1_555 1_555
Dy4_2 O1_12 1_555 1_555
O1_12 C1_12 1_555 1_555
O2_8 C11_12 1_555 1_555
O9_2 C11_12 1_555 1_555
O10_3 C1_12 1_555 1_555
N2_3 C4_12 1_555 1_555
C1_12 C7_12 1_555 1_555
C2_12 H2_12 1_555 1_555
C3_12 C2_12 1_555 1_555
C4_12 C3_12 1_555 1_555
H3_12 C4_12 1_555 1_555
C5_12 C3_12 1_555 1_555
C6_12 C5_12 1_555 1_555
H4_11 C6_12 1_555 1_555
C7_12 N2_3 1_555 1_555
C8_12 C5_12 1_555 1_555
H5_12 C8_12 1_555 1_555
C9_12 C8_12 1_555 1_555
H6_12 C9_12 1_555 1_555
C10_12 C9_12 1_555 1_555
C11_12 C10_12 1_555 1_555
C12_12 C6_12 1_555 1_555
H7_12 C12_12 1_555 1_555
C13_12 C2_12 1_555 1_555
H8_12 C13_12 1_555 1_555
Dy4 O2_8 1_555 1_555
C7_12 C13_12 1_555 1_555
C10_12 C12_12 1_555 1_555
O6_8 C11_13 1_555 1_555
O9_3 C11_13 1_555 1_555
H5_13 C8_13 1_555 1_555
C9_13 C8_13 1_555 1_555
H6_13 C9_13 1_555 1_555
C10_13 C9_13 1_555 1_555
C11_13 C10_13 1_555 1_555
H7_13 C12_13 1_555 1_555
C10_13 C12_13 1_555 1_555
H1_13 O8_4 1_555 1_555
Dy4_3 O1_13 1_555 1_555
O1_13 C1_13 1_555 1_555
O10_4 C1_13 1_555 1_555
N2_4 C4_13 1_555 1_555
C1_13 C7_13 1_555 1_555
C2_13 H2_13 1_555 1_555
C3_13 C2_13 1_555 1_555
C4_13 C3_13 1_555 1_555
H3_13 C4_13 1_555 1_555
C5_13 C3_13 1_555 1_555
C6_13 C5_13 1_555 1_555
H4_12 C6_13 1_555 1_555
C7_13 N2_4 1_555 1_555
C13_13 C2_13 1_555 1_555
H8_13 C13_13 1_555 1_555
C7_13 C13_13 1_555 1_555
Dy6_3 O1_14 1_555 1_555
O1_14 C1_14 1_555 1_555
O6_5 C11_14 1_555 1_555
O9_8 C11_14 1_555 1_555
O10_5 C1_14 1_555 1_555
N2_5 C4_14 1_555 1_555
C1_14 C7_14 1_555 1_555
C2_14 H2_14 1_555 1_555
C3_14 C2_14 1_555 1_555
C4_14 C3_14 1_555 1_555
H3_14 C4_14 1_555 1_555
C5_14 C3_14 1_555 1_555
C6_14 C5_14 1_555 1_555
H4_13 C6_14 1_555 1_555
C7_14 N2_5 1_555 1_555
C8_14 C5_14 1_555 1_555
H5_14 C8_14 1_555 1_555
C9_14 C8_14 1_555 1_555
H6_14 C9_14 1_555 1_555
C10_14 C9_14 1_555 1_555
C11_14 C10_14 1_555 1_555
C12_14 C6_14 1_555 1_555
H7_14 C12_14 1_555 1_555
C13_14 C2_14 1_555 1_555
H8_14 C13_14 1_555 1_555
C7_14 C13_14 1_555 1_555
C10_14 C12_14 1_555 1_555
O10_2 C1_15 1_555 1_555
N2_2 C4_15 1_555 1_555
C1_15 C7_15 1_555 1_555
C3_15 C2_15 1_555 1_555
C4_15 C3_15 1_555 1_555
H3_15 C4_15 1_555 1_555
C5_15 C3_15 1_555 1_555
C6_15 C5_15 1_555 1_555
C7_15 N2_2 1_555 1_555
H1_15 O8_2 1_555 1_555
Dy4 O1_15 1_555 1_555
H8_15 C13_15 1_555 1_555
O9 C11_15 1_555 1_555
H5_15 C8_15 1_555 1_555
C9_15 C8_15 1_555 1_555
H6_15 C9_15 1_555 1_555
C10_15 C9_15 1_555 1_555
C11_15 C10_15 1_555 1_555
C10_15 C12_15 1_555 1_555
O6_7 C11_16 1_555 1_555
O9_6 C11_16 1_555 1_555
N2_7 C4_16 1_555 1_555
H3_16 C4_16 1_555 1_555
H4_14 C6_16 1_555 1_555
C11_16 C10_16 1_555 1_555
C12_16 C6_16 1_555 1_555
H7_16 C12_16 1_555 1_555
C10_16 C12_16 1_555 1_555
H1_16 O8_7 1_555 1_555
O1_16 C1_16 1_555 1_555
O10_7 C1_16 1_555 1_555
C1_16 C7_16 1_555 1_555
C2_16 H2_16 1_555 1_555
C3_16 C2_16 1_555 1_555
C5_16 C3_16 1_555 1_555
C8_16 C5_16 1_555 1_555
H5_16 C8_16 1_555 1_555
C9_16 C8_16 1_555 1_555
H6_16 C9_16 1_555 1_555
C13_16 C2_16 1_555 1_555
H8_16 C13_16 1_555 1_555
C7_16 C13_16 1_555 1_555

#END
