
###############################################################################
#
# This file contains modified crystal structure data generated from the
# MOF subset of the Cambridge Structural Database (CSD) v543 
# hosted by the Cambridge Crystallographic Data Centre (CCDC).
#
# This work is licensed under the Creative Commons
# Attribution-NonCommercial-ShareAlike 4.0 International License.
# To view a copy of this license, visit
# http://creativecommons.org/licenses/by-nc-sa/4.0/
# or send a letter to
# Creative Commons, PO Box 1866, Mountain View, CA 94042, USA.
#
# CIF created using the CSD Python API on 29 September 2022
# The structure has been converted into the P1 space group
# The structure has a 3D framework
# The original CSD entry UPOVOL is in the triclinic crystal system
# The framework has been calculated to contain at least 10.0% void space
# The void calculation uses a probe of radius 1.32A, grid spacing 0.4
#
###############################################################################

data_UPOVOL
_chemical_formula_moiety         '(C24 H28 Er2 N6 O20)n'
_symmetry_cell_setting           triclinic
_symmetry_space_group_name_H-M   'P 1'
_symmetry_Int_Tables_number      1
_space_group_name_Hall           'P 1'
loop_
_symmetry_equiv_pos_site_id
_symmetry_equiv_pos_as_xyz
1 x,y,z
_cell_length_a                   7.8529(19)
_cell_length_b                   12.186(3)
_cell_length_c                   13.2217(18)
_cell_angle_alpha                112.156(14)
_cell_angle_beta                 105.457(15)
_cell_angle_gamma                91.541(18)
_cell_volume                     1117.88
loop_
_atom_site_label
_atom_site_type_symbol
_atom_site_fract_x
_atom_site_fract_y
_atom_site_fract_z
H13 H 0.1816 0.2573 0.0138
O11 O 0.0554(5) 0.0864(3) 0.1040(3)
O12 O 0.4423(5) 0.1810(3) 0.1393(3)
Er1 Er 0.25030(3) 0.018553(18) 0.989261(16)
O10 O 0.1507(6) 0.1884(4) 0.9593(4)
H14 H 0.0839 0.1806 0.8940
O15 O 0.4645(5) 0.0500(3) 0.9148(3)
O14 O 0.5355(5) 0.9500(3) 0.0852(3)
O16 O 0.2859(5) 0.9191(4) 0.1189(4)
O1 O 0.0763(5) 0.9575(4) 0.7857(3)
O13 O 0.2824(5) 0.8186(3) 0.8804(3)
Er2 Er 0.74970(3) 0.981447(18) 0.010739(16)
C1 C 0.6604(8) 0.6013(5) 0.4413(5)
C2 C 0.6338(9) 0.7948(5) 0.4275(5)
C3 C 0.4630(8) 0.6129(6) 0.2700(5)
C4 C 0.8539(8) 0.7830(6) 0.5904(5)
H1 H 0.9232 0.8463 0.5847
H2 H 0.9320 0.7250 0.6000
C5 C 0.7919(8) 0.8352(6) 0.6941(5)
H3 H 0.7381 0.7713 0.7075
H4 H 0.7023 0.8858 0.6818
C6 C 0.9465(7) 0.9076(5) 0.7969(4)
C7 C 0.4222(8) 0.8091(6) 0.2630(5)
H5 H 0.4061 0.8845 0.3181
H6 H 0.3052 0.7678 0.2120
C8 C 0.5330(8) 0.8334(6) 0.1951(6)
H7 H 0.5519 0.7579 0.1416
H8 H 0.6488 0.8766 0.2465
C9 C 0.4460(7) 0.9053(5) 0.1299(4)
C10 C 0.4953(8) 0.4181(5) 0.2798(5)
H9 H 0.3801 0.3949 0.2216
H10 H 0.4887 0.3875 0.3367
C11 C 0.6371(9) 0.3650(5) 0.2259(6)
H11 H 0.6536 0.4041 0.1768
H12 H 0.7491 0.3815 0.2859
C12 C 0.5939(7) 0.2316(5) 0.1564(4)
N1 N 0.5369(6) 0.5497(4) 0.3341(4)
N2 N 0.7082(7) 0.7242(4) 0.4832(4)
N3 N 0.5061(7) 0.7359(4) 0.3241(4)
O2 O 0.9446(5) 0.9136(3) 0.8960(3)
O4 O 0.7176(5) 0.1814(3) 0.1196(3)
O7 O 0.3625(7) 0.5636(5) 0.1735(4)
O8 O 0.7248(7) 0.5428(4) 0.4943(4)
O9 O 0.6772(8) 0.9022(4) 0.4690(4)
C1_2 C 0.3396(8) 0.3987(5) 0.5587(5)
C2_2 C 0.3662(9) 0.2052(5) 0.5725(5)
C3_2 C 0.5370(8) 0.3871(6) 0.7300(5)
C4_2 C 0.1461(8) 0.2170(6) 0.4096(5)
H1_2 H 0.0768 0.1537 0.4153
H2_2 H 0.0680 0.2750 0.4000
C5_2 C 0.2081(8) 0.1648(6) 0.3059(5)
H3_2 H 0.2619 0.2287 0.2925
H4_2 H 0.2977 0.1142 0.3182
C6_2 C 0.0535(7) 0.0924(5) 0.2031(4)
C7_2 C 0.5778(8) 0.1909(6) 0.7370(5)
H5_2 H 0.5939 0.1155 0.6819
H6_2 H 0.6948 0.2322 0.7880
C8_2 C 0.4670(8) 0.1666(6) 0.8049(6)
H7_2 H 0.4481 0.2421 0.8584
H8_2 H 0.3512 0.1234 0.7535
C9_2 C 0.5540(7) 0.0947(5) 0.8701(4)
C10_2 C 0.5047(8) 0.5819(5) 0.7202(5)
H9_2 H 0.6199 0.6051 0.7784
H10_2 H 0.5113 0.6125 0.6633
C11_2 C 0.3629(9) 0.6350(5) 0.7741(6)
H11_2 H 0.3464 0.5959 0.8232
H12_2 H 0.2509 0.6185 0.7141
C12_2 C 0.4061(7) 0.7684(5) 0.8436(4)
N1_2 N 0.4631(6) 0.4503(4) 0.6659(4)
N2_2 N 0.2918(7) 0.2758(4) 0.5168(4)
N3_2 N 0.4939(7) 0.2641(4) 0.6759(4)
O3 O 0.5577(5) 0.8190(3) 0.8607(3)
O6 O 0.7141(5) 0.0809(4) 0.8811(4)
O7_2 O 0.6375(7) 0.4364(5) 0.8265(4)
O8_2 O 0.2752(7) 0.4572(4) 0.5057(4)
O9_2 O 0.3228(8) 0.0978(4) 0.5310(4)
O1_2 O 0.9237(5) 0.0425(4) 0.2143(3)
O10_2 O 0.8493(6) 0.8116(4) 0.0407(4)
H14_2 H 0.9161 0.8194 0.1060
H13_2 H 0.8184 0.7427 0.9862
loop_
_geom_bond_atom_site_label_1
_geom_bond_atom_site_label_2
_geom_bond_site_symmetry_1
_geom_bond_site_symmetry_2
O10 Er1 1_555 1_555
H14 O10 1_555 1_555
O15 Er1 1_555 1_555
C1 N1 1_555 1_555
C2 N2 1_555 1_555
C3 N1 1_555 1_555
C4 H1 1_555 1_555
H2 C4 1_555 1_555
C5 C4 1_555 1_555
H3 C5 1_555 1_555
H4 C5 1_555 1_555
C6 C5 1_555 1_555
C7 H5 1_555 1_555
H6 C7 1_555 1_555
C8 C7 1_555 1_555
H7 C8 1_555 1_555
H8 C8 1_555 1_555
C9 C8 1_555 1_555
C10 H9 1_555 1_555
H10 C10 1_555 1_555
C11 C10 1_555 1_555
H11 C11 1_555 1_555
H12 C11 1_555 1_555
C12 C11 1_555 1_555
N1 C10 1_555 1_555
N2 C1 1_555 1_555
N3 C2 1_555 1_555
O12 C12 1_555 1_555
O4 C12 1_555 1_555
O14 C9 1_555 1_555
O16 C9 1_555 1_555
O7 C3 1_555 1_555
O8 C1 1_555 1_555
O9 C2 1_555 1_555
Er2 O14 1_555 1_555
C3 N3 1_555 1_555
C4 N2 1_555 1_555
C6 O2 1_555 1_555
C7 N3 1_555 1_555
C1_2 N1_2 1_555 1_555
C2_2 N2_2 1_555 1_555
C3_2 N1_2 1_555 1_555
C4_2 H1_2 1_555 1_555
H2_2 C4_2 1_555 1_555
C5_2 C4_2 1_555 1_555
H3_2 C5_2 1_555 1_555
H4_2 C5_2 1_555 1_555
C6_2 C5_2 1_555 1_555
C7_2 H5_2 1_555 1_555
H6_2 C7_2 1_555 1_555
C8_2 C7_2 1_555 1_555
H7_2 C8_2 1_555 1_555
H8_2 C8_2 1_555 1_555
C9_2 C8_2 1_555 1_555
C10_2 H9_2 1_555 1_555
H10_2 C10_2 1_555 1_555
C11_2 C10_2 1_555 1_555
H11_2 C11_2 1_555 1_555
H12_2 C11_2 1_555 1_555
C12_2 C11_2 1_555 1_555
N1_2 C10_2 1_555 1_555
N2_2 C1_2 1_555 1_555
N3_2 C2_2 1_555 1_555
O3 C12_2 1_555 1_555
O13 C12_2 1_555 1_555
O15 C9_2 1_555 1_555
O6 C9_2 1_555 1_555
O7_2 C3_2 1_555 1_555
O8_2 C1_2 1_555 1_555
O9_2 C2_2 1_555 1_555
C3_2 N3_2 1_555 1_555
C4_2 N2_2 1_555 1_555
C6_2 O11 1_555 1_555
C7_2 N3_2 1_555 1_555
O10_2 Er2 1_555 1_555
H14_2 O10_2 1_555 1_555

#END
