
###############################################################################
#
# This file contains modified crystal structure data generated from the
# MOF subset of the Cambridge Structural Database (CSD) v543 
# hosted by the Cambridge Crystallographic Data Centre (CCDC).
#
# This work is licensed under the Creative Commons
# Attribution-NonCommercial-ShareAlike 4.0 International License.
# To view a copy of this license, visit
# http://creativecommons.org/licenses/by-nc-sa/4.0/
# or send a letter to
# Creative Commons, PO Box 1866, Mountain View, CA 94042, USA.
#
# CIF created using the CSD Python API on 29 September 2022
# The structure has been converted into the P1 space group
# The structure has a 3D framework
# The original CSD entry UPOZAB is in the cubic crystal system
# The framework has been calculated to contain at least 10.0% void space
# The void calculation uses a probe of radius 1.32A, grid spacing 0.4
#
###############################################################################

data_UPOZAB
_chemical_formula_moiety         '(C288 H96 Cl32 N136 O72 Zn36)n'
_symmetry_cell_setting           triclinic
_symmetry_space_group_name_H-M   'P 1'
_symmetry_Int_Tables_number      1
_space_group_name_Hall           'P 1'
loop_
_symmetry_equiv_pos_site_id
_symmetry_equiv_pos_as_xyz
1 x,y,z
_cell_length_a                   31.0569(6)
_cell_length_b                   31.0569(6)
_cell_length_c                   31.0569(6)
_cell_angle_alpha                90
_cell_angle_beta                 90
_cell_angle_gamma                90
_cell_volume                     29955.3
loop_
_atom_site_label
_atom_site_type_symbol
_atom_site_fract_x
_atom_site_fract_y
_atom_site_fract_z
_atom_site_U_iso_or_equiv
_atom_site_thermal_displace_type
Zn1 Zn 0.31771(19) 0.31771(19) 0.182292 0.0210 Uiso
Cl1 Cl 0.3562(4) 0.3562(4) 0.143819 0.0520 Uiso
Zn2 Zn 0.25000 0.25000 0.25000 0.0310 Uiso
N1 N 0.34070(4) 0.27492(3) 0.225076 0.0630 Uiso
C1 C 0.38265(3) 0.26599(4) 0.234012 0.0160 Uiso
N2 N 0.31573(3) 0.25000 0.25000 0.0630 Uiso
C2 C 0.42117(3) 0.28257(3) 0.217431 0.0160 Uiso
C3 C 0.46096(3) 0.26662(3) 0.233378 0.0160 Uiso
O1 O 0.50000 0.28346(4) 0.216539 0.0640 Uiso
H1 H 0.420705 0.303742 0.196258 0.0380 Uiso
Zn3 Zn 0.31771(19) 0.18229(19) 0.317708 0.0210 Uiso
Zn4 Zn 0.68229(19) 0.317708 0.18229(19) 0.0210 Uiso
Zn5 Zn 0.68229(19) 0.182292 0.31771(19) 0.0210 Uiso
Zn6 Zn 0.182292 0.31771(19) 0.31771(19) 0.0210 Uiso
Zn7 Zn 0.18229(19) 0.68229(19) 0.317708 0.0210 Uiso
Zn8 Zn 0.31771(19) 0.68229(19) 0.182292 0.0210 Uiso
Zn9 Zn 0.317708 0.18229(19) 0.68229(19) 0.0210 Uiso
Zn10 Zn 0.182292 0.31771(19) 0.68229(19) 0.0210 Uiso
Cl2 Cl 0.3562(4) 0.1438(4) 0.356181 0.0520 Uiso
Cl3 Cl 0.6438(4) 0.356181 0.1438(4) 0.0520 Uiso
Cl4 Cl 0.6438(4) 0.143819 0.3562(4) 0.0520 Uiso
Zn11 Zn 0.75000 0.25000 0.25000 0.0310 Uiso
Zn12 Zn 0.25000 0.75000 0.25000 0.0310 Uiso
Zn13 Zn 0.25000 0.25000 0.75000 0.0310 Uiso
N3 N 0.34070(4) 0.22508(3) 0.274924 0.0630 Uiso
N4 N 0.65930(4) 0.274924 0.22508(3) 0.0630 Uiso
N5 N 0.65930(4) 0.225076 0.27492(3) 0.0630 Uiso
N6 N 0.225076 0.34070(4) 0.27492(3) 0.0630 Uiso
N7 N 0.274924 0.34070(4) 0.22508(3) 0.0630 Uiso
N8 N 0.22508(3) 0.65930(4) 0.274924 0.0630 Uiso
N9 N 0.27492(3) 0.65930(4) 0.225076 0.0630 Uiso
N10 N 0.27492(3) 0.225076 0.34070(4) 0.0630 Uiso
N11 N 0.22508(3) 0.274924 0.34070(4) 0.0630 Uiso
N12 N 0.274924 0.22508(3) 0.65930(4) 0.0630 Uiso
N13 N 0.225076 0.27492(3) 0.65930(4) 0.0630 Uiso
N14 N 0.27492(3) 0.274924 0.15930(4) 0.0630 Uiso
N15 N 0.274924 0.15930(4) 0.27492(3) 0.0630 Uiso
N16 N 0.72508(3) 0.34070(4) 0.225076 0.0630 Uiso
N17 N 0.725076 0.27492(3) 0.15930(4) 0.0630 Uiso
N18 N 0.72508(3) 0.15930(4) 0.274924 0.0630 Uiso
N19 N 0.725076 0.22508(3) 0.34070(4) 0.0630 Uiso
C4 C 0.38265(3) 0.23401(4) 0.265988 0.0160 Uiso
C5 C 0.61735(3) 0.265988 0.23401(4) 0.0160 Uiso
C6 C 0.61735(3) 0.234012 0.26599(4) 0.0160 Uiso
C7 C 0.234012 0.38265(3) 0.26599(4) 0.0160 Uiso
C8 C 0.265988 0.38265(3) 0.23401(4) 0.0160 Uiso
C9 C 0.23401(4) 0.61735(3) 0.265988 0.0160 Uiso
C10 C 0.26599(4) 0.61735(3) 0.234012 0.0160 Uiso
C11 C 0.26599(4) 0.234012 0.38265(3) 0.0160 Uiso
C12 C 0.23401(4) 0.265988 0.38265(3) 0.0160 Uiso
C13 C 0.265988 0.23401(4) 0.61735(3) 0.0160 Uiso
C14 C 0.234012 0.26599(4) 0.61735(3) 0.0160 Uiso
N20 N 0.68427(3) 0.25000 0.25000 0.0630 Uiso
N21 N 0.25000 0.31573(3) 0.25000 0.0630 Uiso
N22 N 0.25000 0.68427(3) 0.25000 0.0630 Uiso
N23 N 0.25000 0.25000 0.31573(3) 0.0630 Uiso
N24 N 0.25000 0.25000 0.68427(3) 0.0630 Uiso
N25 N 0.25000 0.18427(3) 0.25000 0.0630 Uiso
N26 N 0.25000 0.25000 0.18427(3) 0.0630 Uiso
N27 N 0.18427(3) 0.25000 0.25000 0.0630 Uiso
C15 C 0.42117(3) 0.21743(3) 0.282569 0.0160 Uiso
C16 C 0.57883(3) 0.282569 0.21743(3) 0.0160 Uiso
C17 C 0.57883(3) 0.217431 0.28257(3) 0.0160 Uiso
C18 C 0.217431 0.42117(3) 0.28257(3) 0.0160 Uiso
C19 C 0.282569 0.42117(3) 0.21743(3) 0.0160 Uiso
C20 C 0.21743(3) 0.57883(3) 0.282569 0.0160 Uiso
C21 C 0.28257(3) 0.57883(3) 0.217431 0.0160 Uiso
C22 C 0.28257(3) 0.217431 0.42117(3) 0.0160 Uiso
C23 C 0.21743(3) 0.282569 0.42117(3) 0.0160 Uiso
C24 C 0.282569 0.21743(3) 0.57883(3) 0.0160 Uiso
C25 C 0.217431 0.28257(3) 0.57883(3) 0.0160 Uiso
C26 C 0.46096(3) 0.23338(3) 0.266622 0.0160 Uiso
C27 C 0.53904(3) 0.266622 0.23338(3) 0.0160 Uiso
C28 C 0.53904(3) 0.233378 0.26662(3) 0.0160 Uiso
C29 C 0.233378 0.46096(3) 0.26662(3) 0.0160 Uiso
C30 C 0.266622 0.46096(3) 0.23338(3) 0.0160 Uiso
C31 C 0.23338(3) 0.53904(3) 0.266622 0.0160 Uiso
C32 C 0.26662(3) 0.53904(3) 0.233378 0.0160 Uiso
C33 C 0.26662(3) 0.233378 0.46096(3) 0.0160 Uiso
C34 C 0.23338(3) 0.266622 0.46096(3) 0.0160 Uiso
C35 C 0.266622 0.23338(3) 0.53904(3) 0.0160 Uiso
C36 C 0.233378 0.26662(3) 0.53904(3) 0.0160 Uiso
O2 O 0.50000 0.216539 0.28346(4) 0.0640 Uiso
O3 O 0.216539 0.50000 0.28346(4) 0.0640 Uiso
O4 O 0.28346(4) 0.50000 0.216539 0.0640 Uiso
O5 O 0.28346(4) 0.216539 0.50000 0.0640 Uiso
O6 O 0.216539 0.28346(4) 0.50000 0.0640 Uiso
H2 H 0.579295 0.196258 0.303742 0.0380 Uiso
H3 H 0.579295 0.303742 0.196258 0.0380 Uiso
H4 H 0.420705 0.196258 0.303742 0.0380 Uiso
H5 H 0.196258 0.420705 0.303742 0.0380 Uiso
H6 H 0.303742 0.579295 0.196258 0.0380 Uiso
H7 H 0.196258 0.579295 0.303742 0.0380 Uiso
H8 H 0.303742 0.420705 0.196258 0.0380 Uiso
H9 H 0.303742 0.196258 0.420705 0.0380 Uiso
H10 H 0.196258 0.303742 0.579295 0.0380 Uiso
H11 H 0.303742 0.196258 0.579295 0.0380 Uiso
H12 H 0.196258 0.303742 0.420705 0.0380 Uiso
Zn1_2 Zn 0.68229(19) 0.68229(19) 0.182292 0.0210 Uiso
Cl1_2 Cl 0.6438(4) 0.6438(4) 0.143819 0.0520 Uiso
Zn2_2 Zn 0.75000 0.75000 0.25000 0.0310 Uiso
N1_2 N 0.65930(4) 0.72508(3) 0.225076 0.0630 Uiso
C1_2 C 0.61735(3) 0.73401(4) 0.234012 0.0160 Uiso
N2_2 N 0.68427(3) 0.75000 0.25000 0.0630 Uiso
C2_2 C 0.57883(3) 0.71743(3) 0.217431 0.0160 Uiso
C3_2 C 0.53904(3) 0.73338(3) 0.233378 0.0160 Uiso
O1_2 O 0.50000 0.71654(4) 0.216539 0.0640 Uiso
H1_2 H 0.579295 0.696258 0.196258 0.0380 Uiso
Zn3_2 Zn 0.68229(19) 0.81771(19) 0.317708 0.0210 Uiso
Zn5_2 Zn 0.31771(19) 0.817708 0.31771(19) 0.0210 Uiso
Zn6_2 Zn 0.817708 0.68229(19) 0.31771(19) 0.0210 Uiso
Zn7_2 Zn 0.81771(19) 0.31771(19) 0.317708 0.0210 Uiso
Zn9_2 Zn 0.682292 0.81771(19) 0.68229(19) 0.0210 Uiso
Zn10_2 Zn 0.817708 0.68229(19) 0.68229(19) 0.0210 Uiso
Cl2_2 Cl 0.6438(4) 0.8562(4) 0.356181 0.0520 Uiso
Cl3_2 Cl 0.3562(4) 0.643819 0.1438(4) 0.0520 Uiso
Cl4_2 Cl 0.3562(4) 0.856181 0.3562(4) 0.0520 Uiso
Zn13_2 Zn 0.75000 0.75000 0.75000 0.0310 Uiso
N3_2 N 0.65930(4) 0.77492(3) 0.274924 0.0630 Uiso
N4_2 N 0.34070(4) 0.725076 0.22508(3) 0.0630 Uiso
N5_2 N 0.34070(4) 0.774924 0.27492(3) 0.0630 Uiso
N6_2 N 0.774924 0.65930(4) 0.27492(3) 0.0630 Uiso
N7_2 N 0.725076 0.65930(4) 0.22508(3) 0.0630 Uiso
N8_2 N 0.77492(3) 0.34070(4) 0.274924 0.0630 Uiso
N10_2 N 0.72508(3) 0.774924 0.34070(4) 0.0630 Uiso
N11_2 N 0.77492(3) 0.725076 0.34070(4) 0.0630 Uiso
N12_2 N 0.725076 0.77492(3) 0.65930(4) 0.0630 Uiso
N13_2 N 0.774924 0.72508(3) 0.65930(4) 0.0630 Uiso
N14_2 N 0.72508(3) 0.725076 0.15930(4) 0.0630 Uiso
N15_2 N 0.725076 0.84070(4) 0.27492(3) 0.0630 Uiso
N17_2 N 0.274924 0.72508(3) 0.15930(4) 0.0630 Uiso
N18_2 N 0.27492(3) 0.84070(4) 0.274924 0.0630 Uiso
N19_2 N 0.274924 0.77492(3) 0.34070(4) 0.0630 Uiso
C4_2 C 0.61735(3) 0.76599(4) 0.265988 0.0160 Uiso
C5_2 C 0.38265(3) 0.734012 0.23401(4) 0.0160 Uiso
C6_2 C 0.38265(3) 0.765988 0.26599(4) 0.0160 Uiso
C7_2 C 0.765988 0.61735(3) 0.26599(4) 0.0160 Uiso
C8_2 C 0.734012 0.61735(3) 0.23401(4) 0.0160 Uiso
C9_2 C 0.76599(4) 0.38265(3) 0.265988 0.0160 Uiso
C10_2 C 0.73401(4) 0.38265(3) 0.234012 0.0160 Uiso
C11_2 C 0.73401(4) 0.765988 0.38265(3) 0.0160 Uiso
C12_2 C 0.76599(4) 0.734012 0.38265(3) 0.0160 Uiso
C13_2 C 0.734012 0.76599(4) 0.61735(3) 0.0160 Uiso
C14_2 C 0.765988 0.73401(4) 0.61735(3) 0.0160 Uiso
N20_2 N 0.31573(3) 0.75000 0.25000 0.0630 Uiso
N21_2 N 0.75000 0.68427(3) 0.25000 0.0630 Uiso
N22_2 N 0.75000 0.31573(3) 0.25000 0.0630 Uiso
N23_2 N 0.75000 0.75000 0.31573(3) 0.0630 Uiso
N24_2 N 0.75000 0.75000 0.68427(3) 0.0630 Uiso
N25_2 N 0.75000 0.81573(3) 0.25000 0.0630 Uiso
N26_2 N 0.75000 0.75000 0.18427(3) 0.0630 Uiso
N27_2 N 0.81573(3) 0.75000 0.25000 0.0630 Uiso
C15_2 C 0.57883(3) 0.78257(3) 0.282569 0.0160 Uiso
C16_2 C 0.42117(3) 0.717431 0.21743(3) 0.0160 Uiso
C17_2 C 0.42117(3) 0.782569 0.28257(3) 0.0160 Uiso
C18_2 C 0.782569 0.57883(3) 0.28257(3) 0.0160 Uiso
C19_2 C 0.717431 0.57883(3) 0.21743(3) 0.0160 Uiso
C20_2 C 0.78257(3) 0.42117(3) 0.282569 0.0160 Uiso
C21_2 C 0.71743(3) 0.42117(3) 0.217431 0.0160 Uiso
C22_2 C 0.71743(3) 0.782569 0.42117(3) 0.0160 Uiso
C23_2 C 0.78257(3) 0.717431 0.42117(3) 0.0160 Uiso
C24_2 C 0.717431 0.78257(3) 0.57883(3) 0.0160 Uiso
C25_2 C 0.782569 0.71743(3) 0.57883(3) 0.0160 Uiso
C26_2 C 0.53904(3) 0.76662(3) 0.266622 0.0160 Uiso
C27_2 C 0.46096(3) 0.733378 0.23338(3) 0.0160 Uiso
C28_2 C 0.46096(3) 0.766622 0.26662(3) 0.0160 Uiso
C29_2 C 0.766622 0.53904(3) 0.26662(3) 0.0160 Uiso
C30_2 C 0.733378 0.53904(3) 0.23338(3) 0.0160 Uiso
C31_2 C 0.76662(3) 0.46096(3) 0.266622 0.0160 Uiso
C32_2 C 0.73338(3) 0.46096(3) 0.233378 0.0160 Uiso
C33_2 C 0.73338(3) 0.766622 0.46096(3) 0.0160 Uiso
C34_2 C 0.76662(3) 0.733378 0.46096(3) 0.0160 Uiso
C35_2 C 0.733378 0.76662(3) 0.53904(3) 0.0160 Uiso
C36_2 C 0.766622 0.73338(3) 0.53904(3) 0.0160 Uiso
O2_2 O 0.50000 0.783461 0.28346(4) 0.0640 Uiso
O3_2 O 0.783461 0.50000 0.28346(4) 0.0640 Uiso
O4_2 O 0.71654(4) 0.50000 0.216539 0.0640 Uiso
O5_2 O 0.71654(4) 0.783461 0.50000 0.0640 Uiso
O6_2 O 0.783461 0.71654(4) 0.50000 0.0640 Uiso
H2_2 H 0.420705 0.803742 0.303742 0.0380 Uiso
H3_2 H 0.420705 0.696258 0.196258 0.0380 Uiso
H4_2 H 0.579295 0.803742 0.303742 0.0380 Uiso
H5_2 H 0.803742 0.579295 0.303742 0.0380 Uiso
H6_2 H 0.696258 0.420705 0.196258 0.0380 Uiso
H7_2 H 0.803742 0.420705 0.303742 0.0380 Uiso
H8_2 H 0.696258 0.579295 0.196258 0.0380 Uiso
H9_2 H 0.696258 0.803742 0.420705 0.0380 Uiso
H10_2 H 0.803742 0.696258 0.579295 0.0380 Uiso
H11_2 H 0.696258 0.803742 0.579295 0.0380 Uiso
H12_2 H 0.803742 0.696258 0.420705 0.0380 Uiso
Zn1_3 Zn 0.68229(19) 0.31771(19) 0.817708 0.0210 Uiso
Cl1_3 Cl 0.6438(4) 0.3562(4) 0.856181 0.0520 Uiso
Zn2_3 Zn 0.75000 0.25000 0.75000 0.0310 Uiso
N1_3 N 0.65930(4) 0.27492(3) 0.774924 0.0630 Uiso
C1_3 C 0.61735(3) 0.26599(4) 0.765988 0.0160 Uiso
N2_3 N 0.68427(3) 0.25000 0.75000 0.0630 Uiso
C2_3 C 0.57883(3) 0.28257(3) 0.782569 0.0160 Uiso
C3_3 C 0.53904(3) 0.26662(3) 0.766622 0.0160 Uiso
O1_3 O 0.50000 0.28346(4) 0.783461 0.0640 Uiso
H1_3 H 0.579295 0.303742 0.803742 0.0380 Uiso
Zn3_3 Zn 0.68229(19) 0.18229(19) 0.682292 0.0210 Uiso
Zn4_2 Zn 0.31771(19) 0.317708 0.81771(19) 0.0210 Uiso
Zn6_3 Zn 0.817708 0.31771(19) 0.68229(19) 0.0210 Uiso
Zn8_2 Zn 0.68229(19) 0.68229(19) 0.817708 0.0210 Uiso
Cl2_3 Cl 0.6438(4) 0.1438(4) 0.643819 0.0520 Uiso
Cl3_3 Cl 0.3562(4) 0.356181 0.8562(4) 0.0520 Uiso
Cl4_3 Cl 0.3562(4) 0.143819 0.6438(4) 0.0520 Uiso
N3_3 N 0.65930(4) 0.22508(3) 0.725076 0.0630 Uiso
N4_3 N 0.34070(4) 0.274924 0.77492(3) 0.0630 Uiso
N5_3 N 0.34070(4) 0.225076 0.72508(3) 0.0630 Uiso
N6_3 N 0.774924 0.34070(4) 0.72508(3) 0.0630 Uiso
N7_3 N 0.725076 0.34070(4) 0.77492(3) 0.0630 Uiso
N8_3 N 0.77492(3) 0.65930(4) 0.725076 0.0630 Uiso
N9_2 N 0.72508(3) 0.65930(4) 0.774924 0.0630 Uiso
N10_3 N 0.72508(3) 0.225076 0.65930(4) 0.0630 Uiso
N11_3 N 0.77492(3) 0.274924 0.65930(4) 0.0630 Uiso
N13_3 N 0.774924 0.27492(3) 0.34070(4) 0.0630 Uiso
N14_3 N 0.72508(3) 0.274924 0.84070(4) 0.0630 Uiso
N15_3 N 0.725076 0.15930(4) 0.72508(3) 0.0630 Uiso
N16_2 N 0.27492(3) 0.34070(4) 0.774924 0.0630 Uiso
N17_3 N 0.274924 0.27492(3) 0.84070(4) 0.0630 Uiso
N18_3 N 0.27492(3) 0.15930(4) 0.725076 0.0630 Uiso
C4_3 C 0.61735(3) 0.23401(4) 0.734012 0.0160 Uiso
C5_3 C 0.38265(3) 0.265988 0.76599(4) 0.0160 Uiso
C6_3 C 0.38265(3) 0.234012 0.73401(4) 0.0160 Uiso
C7_3 C 0.765988 0.38265(3) 0.73401(4) 0.0160 Uiso
C8_3 C 0.734012 0.38265(3) 0.76599(4) 0.0160 Uiso
C9_3 C 0.76599(4) 0.61735(3) 0.734012 0.0160 Uiso
C10_3 C 0.73401(4) 0.61735(3) 0.765988 0.0160 Uiso
C11_3 C 0.73401(4) 0.234012 0.61735(3) 0.0160 Uiso
C12_3 C 0.76599(4) 0.265988 0.61735(3) 0.0160 Uiso
C13_3 C 0.734012 0.23401(4) 0.38265(3) 0.0160 Uiso
C14_3 C 0.765988 0.26599(4) 0.38265(3) 0.0160 Uiso
N20_3 N 0.31573(3) 0.25000 0.75000 0.0630 Uiso
N21_3 N 0.75000 0.31573(3) 0.75000 0.0630 Uiso
N22_3 N 0.75000 0.68427(3) 0.75000 0.0630 Uiso
N23_3 N 0.75000 0.25000 0.68427(3) 0.0630 Uiso
N24_3 N 0.75000 0.25000 0.31573(3) 0.0630 Uiso
N25_3 N 0.75000 0.18427(3) 0.75000 0.0630 Uiso
N26_3 N 0.75000 0.25000 0.81573(3) 0.0630 Uiso
N27_3 N 0.81573(3) 0.25000 0.75000 0.0630 Uiso
C15_3 C 0.57883(3) 0.21743(3) 0.717431 0.0160 Uiso
C16_3 C 0.42117(3) 0.282569 0.78257(3) 0.0160 Uiso
C17_3 C 0.42117(3) 0.217431 0.71743(3) 0.0160 Uiso
C18_3 C 0.782569 0.42117(3) 0.71743(3) 0.0160 Uiso
C19_3 C 0.717431 0.42117(3) 0.78257(3) 0.0160 Uiso
C20_3 C 0.78257(3) 0.57883(3) 0.717431 0.0160 Uiso
C21_3 C 0.71743(3) 0.57883(3) 0.782569 0.0160 Uiso
C22_3 C 0.71743(3) 0.217431 0.57883(3) 0.0160 Uiso
C23_3 C 0.78257(3) 0.282569 0.57883(3) 0.0160 Uiso
C24_3 C 0.717431 0.21743(3) 0.42117(3) 0.0160 Uiso
C25_3 C 0.782569 0.28257(3) 0.42117(3) 0.0160 Uiso
C26_3 C 0.53904(3) 0.23338(3) 0.733378 0.0160 Uiso
C27_3 C 0.46096(3) 0.266622 0.76662(3) 0.0160 Uiso
C28_3 C 0.46096(3) 0.233378 0.73338(3) 0.0160 Uiso
C29_3 C 0.766622 0.46096(3) 0.73338(3) 0.0160 Uiso
C30_3 C 0.733378 0.46096(3) 0.76662(3) 0.0160 Uiso
C31_3 C 0.76662(3) 0.53904(3) 0.733378 0.0160 Uiso
C32_3 C 0.73338(3) 0.53904(3) 0.766622 0.0160 Uiso
C33_3 C 0.73338(3) 0.233378 0.53904(3) 0.0160 Uiso
C34_3 C 0.76662(3) 0.266622 0.53904(3) 0.0160 Uiso
C35_3 C 0.733378 0.23338(3) 0.46096(3) 0.0160 Uiso
C36_3 C 0.766622 0.26662(3) 0.46096(3) 0.0160 Uiso
O2_3 O 0.50000 0.216539 0.71654(4) 0.0640 Uiso
O3_3 O 0.783461 0.50000 0.71654(4) 0.0640 Uiso
O4_3 O 0.71654(4) 0.50000 0.783461 0.0640 Uiso
O5_3 O 0.71654(4) 0.216539 0.50000 0.0640 Uiso
O6_3 O 0.783461 0.28346(4) 0.50000 0.0640 Uiso
H2_3 H 0.420705 0.196258 0.696258 0.0380 Uiso
H3_3 H 0.420705 0.303742 0.803742 0.0380 Uiso
H4_3 H 0.579295 0.196258 0.696258 0.0380 Uiso
H5_3 H 0.803742 0.420705 0.696258 0.0380 Uiso
H6_3 H 0.696258 0.579295 0.803742 0.0380 Uiso
H7_3 H 0.803742 0.579295 0.696258 0.0380 Uiso
H8_3 H 0.696258 0.420705 0.803742 0.0380 Uiso
H9_3 H 0.696258 0.196258 0.579295 0.0380 Uiso
H10_3 H 0.803742 0.303742 0.420705 0.0380 Uiso
H11_3 H 0.696258 0.196258 0.420705 0.0380 Uiso
H12_3 H 0.803742 0.303742 0.579295 0.0380 Uiso
Zn1_4 Zn 0.31771(19) 0.68229(19) 0.817708 0.0210 Uiso
Cl1_4 Cl 0.3562(4) 0.6438(4) 0.856181 0.0520 Uiso
Zn2_4 Zn 0.25000 0.75000 0.75000 0.0310 Uiso
N1_4 N 0.34070(4) 0.72508(3) 0.774924 0.0630 Uiso
C1_4 C 0.38265(3) 0.73401(4) 0.765988 0.0160 Uiso
N2_4 N 0.31573(3) 0.75000 0.75000 0.0630 Uiso
C2_4 C 0.42117(3) 0.71743(3) 0.782569 0.0160 Uiso
C3_4 C 0.46096(3) 0.73338(3) 0.766622 0.0160 Uiso
O1_4 O 0.50000 0.71654(4) 0.783461 0.0640 Uiso
H1_4 H 0.420705 0.696258 0.803742 0.0380 Uiso
Zn3_4 Zn 0.31771(19) 0.81771(19) 0.682292 0.0210 Uiso
Zn6_4 Zn 0.182292 0.68229(19) 0.68229(19) 0.0210 Uiso
Cl2_4 Cl 0.3562(4) 0.8562(4) 0.643819 0.0520 Uiso
Cl3_4 Cl 0.6438(4) 0.643819 0.8562(4) 0.0520 Uiso
Cl4_4 Cl 0.6438(4) 0.856181 0.6438(4) 0.0520 Uiso
N3_4 N 0.34070(4) 0.77492(3) 0.725076 0.0630 Uiso
N4_4 N 0.65930(4) 0.725076 0.77492(3) 0.0630 Uiso
N5_4 N 0.65930(4) 0.774924 0.72508(3) 0.0630 Uiso
N6_4 N 0.225076 0.65930(4) 0.72508(3) 0.0630 Uiso
N7_4 N 0.274924 0.65930(4) 0.77492(3) 0.0630 Uiso
N8_4 N 0.22508(3) 0.34070(4) 0.725076 0.0630 Uiso
N10_4 N 0.27492(3) 0.774924 0.65930(4) 0.0630 Uiso
N11_4 N 0.22508(3) 0.725076 0.65930(4) 0.0630 Uiso
N13_4 N 0.225076 0.72508(3) 0.34070(4) 0.0630 Uiso
N14_4 N 0.27492(3) 0.725076 0.84070(4) 0.0630 Uiso
N15_4 N 0.274924 0.84070(4) 0.72508(3) 0.0630 Uiso
N17_4 N 0.725076 0.72508(3) 0.84070(4) 0.0630 Uiso
N18_4 N 0.72508(3) 0.84070(4) 0.725076 0.0630 Uiso
C4_4 C 0.38265(3) 0.76599(4) 0.734012 0.0160 Uiso
C5_4 C 0.61735(3) 0.734012 0.76599(4) 0.0160 Uiso
C6_4 C 0.61735(3) 0.765988 0.73401(4) 0.0160 Uiso
C7_4 C 0.234012 0.61735(3) 0.73401(4) 0.0160 Uiso
C8_4 C 0.265988 0.61735(3) 0.76599(4) 0.0160 Uiso
C9_4 C 0.23401(4) 0.38265(3) 0.734012 0.0160 Uiso
C10_4 C 0.26599(4) 0.38265(3) 0.765988 0.0160 Uiso
C11_4 C 0.26599(4) 0.765988 0.61735(3) 0.0160 Uiso
C12_4 C 0.23401(4) 0.734012 0.61735(3) 0.0160 Uiso
C13_4 C 0.265988 0.76599(4) 0.38265(3) 0.0160 Uiso
C14_4 C 0.234012 0.73401(4) 0.38265(3) 0.0160 Uiso
N20_4 N 0.68427(3) 0.75000 0.75000 0.0630 Uiso
N21_4 N 0.25000 0.68427(3) 0.75000 0.0630 Uiso
N22_4 N 0.25000 0.31573(3) 0.75000 0.0630 Uiso
N23_4 N 0.25000 0.75000 0.68427(3) 0.0630 Uiso
N24_4 N 0.25000 0.75000 0.31573(3) 0.0630 Uiso
N25_4 N 0.25000 0.81573(3) 0.75000 0.0630 Uiso
N26_4 N 0.25000 0.75000 0.81573(3) 0.0630 Uiso
N27_4 N 0.18427(3) 0.75000 0.75000 0.0630 Uiso
C15_4 C 0.42117(3) 0.78257(3) 0.717431 0.0160 Uiso
C16_4 C 0.57883(3) 0.717431 0.78257(3) 0.0160 Uiso
C17_4 C 0.57883(3) 0.782569 0.71743(3) 0.0160 Uiso
C18_4 C 0.217431 0.57883(3) 0.71743(3) 0.0160 Uiso
C19_4 C 0.282569 0.57883(3) 0.78257(3) 0.0160 Uiso
C20_4 C 0.21743(3) 0.42117(3) 0.717431 0.0160 Uiso
C21_4 C 0.28257(3) 0.42117(3) 0.782569 0.0160 Uiso
C22_4 C 0.28257(3) 0.782569 0.57883(3) 0.0160 Uiso
C23_4 C 0.21743(3) 0.717431 0.57883(3) 0.0160 Uiso
C24_4 C 0.282569 0.78257(3) 0.42117(3) 0.0160 Uiso
C25_4 C 0.217431 0.71743(3) 0.42117(3) 0.0160 Uiso
C26_4 C 0.46096(3) 0.76662(3) 0.733378 0.0160 Uiso
C27_4 C 0.53904(3) 0.733378 0.76662(3) 0.0160 Uiso
C28_4 C 0.53904(3) 0.766622 0.73338(3) 0.0160 Uiso
C29_4 C 0.233378 0.53904(3) 0.73338(3) 0.0160 Uiso
C30_4 C 0.266622 0.53904(3) 0.76662(3) 0.0160 Uiso
C31_4 C 0.23338(3) 0.46096(3) 0.733378 0.0160 Uiso
C32_4 C 0.26662(3) 0.46096(3) 0.766622 0.0160 Uiso
C33_4 C 0.26662(3) 0.766622 0.53904(3) 0.0160 Uiso
C34_4 C 0.23338(3) 0.733378 0.53904(3) 0.0160 Uiso
C35_4 C 0.266622 0.76662(3) 0.46096(3) 0.0160 Uiso
C36_4 C 0.233378 0.73338(3) 0.46096(3) 0.0160 Uiso
O2_4 O 0.50000 0.783461 0.71654(4) 0.0640 Uiso
O3_4 O 0.216539 0.50000 0.71654(4) 0.0640 Uiso
O4_4 O 0.28346(4) 0.50000 0.783461 0.0640 Uiso
O5_4 O 0.28346(4) 0.783461 0.50000 0.0640 Uiso
O6_4 O 0.216539 0.71654(4) 0.50000 0.0640 Uiso
H2_4 H 0.579295 0.803742 0.696258 0.0380 Uiso
H3_4 H 0.579295 0.696258 0.803742 0.0380 Uiso
H4_4 H 0.420705 0.803742 0.696258 0.0380 Uiso
H5_4 H 0.196258 0.579295 0.696258 0.0380 Uiso
H6_4 H 0.303742 0.420705 0.803742 0.0380 Uiso
H7_4 H 0.196258 0.420705 0.696258 0.0380 Uiso
H8_4 H 0.303742 0.579295 0.803742 0.0380 Uiso
H9_4 H 0.303742 0.803742 0.579295 0.0380 Uiso
H10_4 H 0.196258 0.696258 0.420705 0.0380 Uiso
H11_4 H 0.303742 0.803742 0.420705 0.0380 Uiso
H12_4 H 0.196258 0.696258 0.579295 0.0380 Uiso
Cl1_5 Cl 0.143819 0.3562(4) 0.3562(4) 0.0520 Uiso
Cl3_5 Cl 0.1438(4) 0.6438(4) 0.356181 0.0520 Uiso
N14_5 N 0.15930(4) 0.27492(3) 0.274924 0.0630 Uiso
N17_5 N 0.15930(4) 0.725076 0.27492(3) 0.0630 Uiso
Cl1_6 Cl 0.143819 0.6438(4) 0.6438(4) 0.0520 Uiso
Cl3_6 Cl 0.1438(4) 0.3562(4) 0.643819 0.0520 Uiso
N14_6 N 0.15930(4) 0.72508(3) 0.725076 0.0630 Uiso
N17_6 N 0.15930(4) 0.274924 0.72508(3) 0.0630 Uiso
Cl1_7 Cl 0.856181 0.6438(4) 0.3562(4) 0.0520 Uiso
Cl3_7 Cl 0.8562(4) 0.3562(4) 0.356181 0.0520 Uiso
N14_7 N 0.84070(4) 0.72508(3) 0.274924 0.0630 Uiso
N17_7 N 0.84070(4) 0.274924 0.27492(3) 0.0630 Uiso
Cl1_8 Cl 0.856181 0.3562(4) 0.6438(4) 0.0520 Uiso
Cl3_8 Cl 0.8562(4) 0.6438(4) 0.643819 0.0520 Uiso
N14_8 N 0.84070(4) 0.27492(3) 0.725076 0.0630 Uiso
N17_8 N 0.84070(4) 0.725076 0.72508(3) 0.0630 Uiso
N25_5 N 0.18427(3) 0.25000 0.75000 0.0630 Uiso
N26_5 N 0.25000 0.25000 0.81573(3) 0.0630 Uiso
N27_5 N 0.25000 0.18427(3) 0.75000 0.0630 Uiso
N25_6 N 0.81573(3) 0.75000 0.75000 0.0630 Uiso
N26_6 N 0.75000 0.75000 0.81573(3) 0.0630 Uiso
N27_6 N 0.75000 0.81573(3) 0.75000 0.0630 Uiso
N25_7 N 0.18427(3) 0.75000 0.25000 0.0630 Uiso
N26_7 N 0.25000 0.75000 0.18427(3) 0.0630 Uiso
N27_7 N 0.25000 0.81573(3) 0.25000 0.0630 Uiso
N25_8 N 0.81573(3) 0.25000 0.25000 0.0630 Uiso
N26_8 N 0.75000 0.25000 0.18427(3) 0.0630 Uiso
N27_8 N 0.75000 0.18427(3) 0.25000 0.0630 Uiso
Zn7_3 Zn 0.18229(19) 0.18229(19) 0.817708 0.0210 Uiso
N8_5 N 0.22508(3) 0.15930(4) 0.774924 0.0630 Uiso
C9_5 C 0.23401(4) 0.11735(3) 0.765988 0.0160 Uiso
C10_5 C 0.26599(4) 0.11735(3) 0.734012 0.0160 Uiso
C20_5 C 0.21743(3) 0.07883(3) 0.782569 0.0160 Uiso
C21_5 C 0.28257(3) 0.07883(3) 0.717431 0.0160 Uiso
C31_5 C 0.23338(3) 0.03904(3) 0.766622 0.0160 Uiso
C32_5 C 0.26662(3) 0.03904(3) 0.733378 0.0160 Uiso
O3_5 O 0.216539 0.00000 0.78346(4) 0.0640 Uiso
O4_5 O 0.28346(4) 0.00000 0.716539 0.0640 Uiso
H6_5 H 0.303742 0.079295 0.696258 0.0380 Uiso
H7_5 H 0.196258 0.079295 0.803742 0.0380 Uiso
Zn10_3 Zn 0.182292 0.81771(19) 0.18229(19) 0.0210 Uiso
N13_5 N 0.225076 0.77492(3) 0.15930(4) 0.0630 Uiso
C13_5 C 0.265988 0.73401(4) 0.11735(3) 0.0160 Uiso
C14_5 C 0.234012 0.76599(4) 0.11735(3) 0.0160 Uiso
C24_5 C 0.282569 0.71743(3) 0.07883(3) 0.0160 Uiso
C25_5 C 0.217431 0.78257(3) 0.07883(3) 0.0160 Uiso
C35_5 C 0.266622 0.73338(3) 0.03904(3) 0.0160 Uiso
C36_5 C 0.233378 0.76662(3) 0.03904(3) 0.0160 Uiso
O5_5 O 0.28346(4) 0.716539 0.00000 0.0640 Uiso
O6_5 O 0.216539 0.78346(4) 0.00000 0.0640 Uiso
H10_5 H 0.196258 0.803742 0.079295 0.0380 Uiso
H11_5 H 0.303742 0.696258 0.079295 0.0380 Uiso
Zn6_5 Zn 0.182292 0.81771(19) 0.81771(19) 0.0210 Uiso
N6_5 N 0.225076 0.84070(4) 0.77492(3) 0.0630 Uiso
N11_5 N 0.22508(3) 0.774924 0.84070(4) 0.0630 Uiso
C7_5 C 0.234012 0.88265(3) 0.76599(4) 0.0160 Uiso
C8_5 C 0.265988 0.88265(3) 0.73401(4) 0.0160 Uiso
C11_5 C 0.26599(4) 0.734012 0.88265(3) 0.0160 Uiso
C12_5 C 0.23401(4) 0.765988 0.88265(3) 0.0160 Uiso
C18_5 C 0.217431 0.92117(3) 0.78257(3) 0.0160 Uiso
C19_5 C 0.282569 0.92117(3) 0.71743(3) 0.0160 Uiso
C22_5 C 0.28257(3) 0.717431 0.92117(3) 0.0160 Uiso
C23_5 C 0.21743(3) 0.782569 0.92117(3) 0.0160 Uiso
C29_5 C 0.233378 0.96096(3) 0.76662(3) 0.0160 Uiso
C30_5 C 0.266622 0.96096(3) 0.73338(3) 0.0160 Uiso
C33_5 C 0.26662(3) 0.733378 0.96096(3) 0.0160 Uiso
C34_5 C 0.23338(3) 0.766622 0.96096(3) 0.0160 Uiso
O3_6 O 0.216539 1.00000 0.78346(4) 0.0640 Uiso
O4_6 O 0.28346(4) 1.00000 0.716539 0.0640 Uiso
O5_6 O 0.28346(4) 0.716539 1.00000 0.0640 Uiso
O6_6 O 0.216539 0.78346(4) 1.00000 0.0640 Uiso
H5_5 H 0.196258 0.920705 0.803742 0.0380 Uiso
H8_5 H 0.303742 0.920705 0.696258 0.0380 Uiso
H9_5 H 0.303742 0.696258 0.920705 0.0380 Uiso
H12_5 H 0.196258 0.803742 0.920705 0.0380 Uiso
Zn10_4 Zn 0.817708 0.18229(19) 0.18229(19) 0.0210 Uiso
N13_6 N 0.774924 0.22508(3) 0.15930(4) 0.0630 Uiso
C13_6 C 0.734012 0.26599(4) 0.11735(3) 0.0160 Uiso
C14_6 C 0.765988 0.23401(4) 0.11735(3) 0.0160 Uiso
C24_6 C 0.717431 0.28257(3) 0.07883(3) 0.0160 Uiso
C25_6 C 0.782569 0.21743(3) 0.07883(3) 0.0160 Uiso
C35_6 C 0.733378 0.26662(3) 0.03904(3) 0.0160 Uiso
C36_6 C 0.766622 0.23338(3) 0.03904(3) 0.0160 Uiso
O5_7 O 0.71654(4) 0.283461 0.00000 0.0640 Uiso
O6_7 O 0.783461 0.21654(4) 0.00000 0.0640 Uiso
H10_6 H 0.803742 0.196258 0.079295 0.0380 Uiso
H11_6 H 0.696258 0.303742 0.079295 0.0380 Uiso
Zn6_6 Zn 0.817708 0.18229(19) 0.81771(19) 0.0210 Uiso
N6_6 N 0.774924 0.15930(4) 0.77492(3) 0.0630 Uiso
N11_6 N 0.77492(3) 0.225076 0.84070(4) 0.0630 Uiso
C7_6 C 0.765988 0.11735(3) 0.76599(4) 0.0160 Uiso
C8_6 C 0.734012 0.11735(3) 0.73401(4) 0.0160 Uiso
C11_6 C 0.73401(4) 0.265988 0.88265(3) 0.0160 Uiso
C12_6 C 0.76599(4) 0.234012 0.88265(3) 0.0160 Uiso
C18_6 C 0.782569 0.07883(3) 0.78257(3) 0.0160 Uiso
C19_6 C 0.717431 0.07883(3) 0.71743(3) 0.0160 Uiso
C22_6 C 0.71743(3) 0.282569 0.92117(3) 0.0160 Uiso
C23_6 C 0.78257(3) 0.217431 0.92117(3) 0.0160 Uiso
C29_6 C 0.766622 0.03904(3) 0.76662(3) 0.0160 Uiso
C30_6 C 0.733378 0.03904(3) 0.73338(3) 0.0160 Uiso
C33_6 C 0.73338(3) 0.266622 0.96096(3) 0.0160 Uiso
C34_6 C 0.76662(3) 0.233378 0.96096(3) 0.0160 Uiso
O3_7 O 0.783461 0.00000 0.78346(4) 0.0640 Uiso
O4_7 O 0.71654(4) 0.00000 0.716539 0.0640 Uiso
O5_8 O 0.71654(4) 0.283461 1.00000 0.0640 Uiso
O6_8 O 0.783461 0.21654(4) 1.00000 0.0640 Uiso
H5_6 H 0.803742 0.079295 0.803742 0.0380 Uiso
H8_6 H 0.696258 0.079295 0.696258 0.0380 Uiso
H9_6 H 0.696258 0.303742 0.920705 0.0380 Uiso
H12_6 H 0.803742 0.196258 0.920705 0.0380 Uiso
Zn7_4 Zn 0.81771(19) 0.81771(19) 0.817708 0.0210 Uiso
N8_6 N 0.77492(3) 0.84070(4) 0.774924 0.0630 Uiso
C9_6 C 0.76599(4) 0.88265(3) 0.765988 0.0160 Uiso
C10_6 C 0.73401(4) 0.88265(3) 0.734012 0.0160 Uiso
C20_6 C 0.78257(3) 0.92117(3) 0.782569 0.0160 Uiso
C21_6 C 0.71743(3) 0.92117(3) 0.717431 0.0160 Uiso
C31_6 C 0.76662(3) 0.96096(3) 0.766622 0.0160 Uiso
C32_6 C 0.73338(3) 0.96096(3) 0.733378 0.0160 Uiso
O3_8 O 0.783461 1.00000 0.78346(4) 0.0640 Uiso
O4_8 O 0.71654(4) 1.00000 0.716539 0.0640 Uiso
H6_6 H 0.696258 0.920705 0.696258 0.0380 Uiso
H7_6 H 0.803742 0.920705 0.803742 0.0380 Uiso
N8_7 N 0.77492(3) 0.15930(4) 0.225076 0.0630 Uiso
C9_7 C 0.76599(4) 0.11735(3) 0.234012 0.0160 Uiso
C10_7 C 0.73401(4) 0.11735(3) 0.265988 0.0160 Uiso
C20_7 C 0.78257(3) 0.07883(3) 0.217431 0.0160 Uiso
C21_7 C 0.71743(3) 0.07883(3) 0.282569 0.0160 Uiso
C31_7 C 0.76662(3) 0.03904(3) 0.233378 0.0160 Uiso
C32_7 C 0.73338(3) 0.03904(3) 0.266622 0.0160 Uiso
O3_9 O 0.783461 0.00000 0.21654(4) 0.0640 Uiso
O4_9 O 0.71654(4) 0.00000 0.283461 0.0640 Uiso
H6_7 H 0.696258 0.079295 0.303742 0.0380 Uiso
H7_7 H 0.803742 0.079295 0.196258 0.0380 Uiso
Zn6_7 Zn 0.817708 0.81771(19) 0.18229(19) 0.0210 Uiso
N6_7 N 0.774924 0.84070(4) 0.22508(3) 0.0630 Uiso
N11_7 N 0.77492(3) 0.774924 0.15930(4) 0.0630 Uiso
C7_7 C 0.765988 0.88265(3) 0.23401(4) 0.0160 Uiso
C8_7 C 0.734012 0.88265(3) 0.26599(4) 0.0160 Uiso
C11_7 C 0.73401(4) 0.734012 0.11735(3) 0.0160 Uiso
C12_7 C 0.76599(4) 0.765988 0.11735(3) 0.0160 Uiso
C18_7 C 0.782569 0.92117(3) 0.21743(3) 0.0160 Uiso
C19_7 C 0.717431 0.92117(3) 0.28257(3) 0.0160 Uiso
C22_7 C 0.71743(3) 0.717431 0.07883(3) 0.0160 Uiso
C23_7 C 0.78257(3) 0.782569 0.07883(3) 0.0160 Uiso
C29_7 C 0.766622 0.96096(3) 0.23338(3) 0.0160 Uiso
C30_7 C 0.733378 0.96096(3) 0.26662(3) 0.0160 Uiso
C33_7 C 0.73338(3) 0.733378 0.03904(3) 0.0160 Uiso
C34_7 C 0.76662(3) 0.766622 0.03904(3) 0.0160 Uiso
O3_10 O 0.783461 1.00000 0.21654(4) 0.0640 Uiso
O4_10 O 0.71654(4) 1.00000 0.283461 0.0640 Uiso
O5_9 O 0.71654(4) 0.716539 0.00000 0.0640 Uiso
O6_9 O 0.783461 0.78346(4) 0.00000 0.0640 Uiso
H5_7 H 0.803742 0.920705 0.196258 0.0380 Uiso
H8_7 H 0.696258 0.920705 0.303742 0.0380 Uiso
H9_7 H 0.696258 0.696258 0.079295 0.0380 Uiso
H12_7 H 0.803742 0.803742 0.079295 0.0380 Uiso
N13_7 N 0.774924 0.77492(3) 0.84070(4) 0.0630 Uiso
C13_7 C 0.734012 0.73401(4) 0.88265(3) 0.0160 Uiso
C14_7 C 0.765988 0.76599(4) 0.88265(3) 0.0160 Uiso
C24_7 C 0.717431 0.71743(3) 0.92117(3) 0.0160 Uiso
C25_7 C 0.782569 0.78257(3) 0.92117(3) 0.0160 Uiso
C35_7 C 0.733378 0.73338(3) 0.96096(3) 0.0160 Uiso
C36_7 C 0.766622 0.76662(3) 0.96096(3) 0.0160 Uiso
O5_10 O 0.71654(4) 0.716539 1.00000 0.0640 Uiso
O6_10 O 0.783461 0.78346(4) 1.00000 0.0640 Uiso
H10_7 H 0.803742 0.803742 0.920705 0.0380 Uiso
H11_7 H 0.696258 0.696258 0.920705 0.0380 Uiso
Zn6_8 Zn 0.182292 0.18229(19) 0.18229(19) 0.0210 Uiso
N6_8 N 0.225076 0.15930(4) 0.22508(3) 0.0630 Uiso
N11_8 N 0.22508(3) 0.225076 0.15930(4) 0.0630 Uiso
C7_8 C 0.234012 0.11735(3) 0.23401(4) 0.0160 Uiso
C8_8 C 0.265988 0.11735(3) 0.26599(4) 0.0160 Uiso
C11_8 C 0.26599(4) 0.265988 0.11735(3) 0.0160 Uiso
C12_8 C 0.23401(4) 0.234012 0.11735(3) 0.0160 Uiso
C18_8 C 0.217431 0.07883(3) 0.21743(3) 0.0160 Uiso
C19_8 C 0.282569 0.07883(3) 0.28257(3) 0.0160 Uiso
C22_8 C 0.28257(3) 0.282569 0.07883(3) 0.0160 Uiso
C23_8 C 0.21743(3) 0.217431 0.07883(3) 0.0160 Uiso
C29_8 C 0.233378 0.03904(3) 0.23338(3) 0.0160 Uiso
C30_8 C 0.266622 0.03904(3) 0.26662(3) 0.0160 Uiso
C33_8 C 0.26662(3) 0.266622 0.03904(3) 0.0160 Uiso
C34_8 C 0.23338(3) 0.233378 0.03904(3) 0.0160 Uiso
O3_11 O 0.216539 0.00000 0.21654(4) 0.0640 Uiso
O4_11 O 0.28346(4) 0.00000 0.283461 0.0640 Uiso
O5_11 O 0.28346(4) 0.283461 0.00000 0.0640 Uiso
O6_11 O 0.216539 0.21654(4) 0.00000 0.0640 Uiso
H5_8 H 0.196258 0.079295 0.196258 0.0380 Uiso
H8_8 H 0.303742 0.079295 0.303742 0.0380 Uiso
H9_8 H 0.303742 0.303742 0.079295 0.0380 Uiso
H12_8 H 0.196258 0.196258 0.079295 0.0380 Uiso
N13_8 N 0.225076 0.22508(3) 0.84070(4) 0.0630 Uiso
C13_8 C 0.265988 0.26599(4) 0.88265(3) 0.0160 Uiso
C14_8 C 0.234012 0.23401(4) 0.88265(3) 0.0160 Uiso
C24_8 C 0.282569 0.28257(3) 0.92117(3) 0.0160 Uiso
C25_8 C 0.217431 0.21743(3) 0.92117(3) 0.0160 Uiso
C35_8 C 0.266622 0.26662(3) 0.96096(3) 0.0160 Uiso
C36_8 C 0.233378 0.23338(3) 0.96096(3) 0.0160 Uiso
O5_12 O 0.28346(4) 0.283461 1.00000 0.0640 Uiso
O6_12 O 0.216539 0.21654(4) 1.00000 0.0640 Uiso
H10_8 H 0.196258 0.196258 0.920705 0.0380 Uiso
H11_8 H 0.303742 0.303742 0.920705 0.0380 Uiso
N8_8 N 0.22508(3) 0.84070(4) 0.225076 0.0630 Uiso
C9_8 C 0.23401(4) 0.88265(3) 0.234012 0.0160 Uiso
C10_8 C 0.26599(4) 0.88265(3) 0.265988 0.0160 Uiso
C20_8 C 0.21743(3) 0.92117(3) 0.217431 0.0160 Uiso
C21_8 C 0.28257(3) 0.92117(3) 0.282569 0.0160 Uiso
C31_8 C 0.23338(3) 0.96096(3) 0.233378 0.0160 Uiso
C32_8 C 0.26662(3) 0.96096(3) 0.266622 0.0160 Uiso
O3_12 O 0.216539 1.00000 0.21654(4) 0.0640 Uiso
O4_12 O 0.28346(4) 1.00000 0.283461 0.0640 Uiso
H6_8 H 0.303742 0.920705 0.303742 0.0380 Uiso
H7_8 H 0.196258 0.920705 0.196258 0.0380 Uiso
Cl3_9 Cl 0.1438(4) 0.1438(4) 0.856181 0.0520 Uiso
N17_9 N 0.15930(4) 0.225076 0.77492(3) 0.0630 Uiso
Cl1_9 Cl 0.143819 0.8562(4) 0.8562(4) 0.0520 Uiso
N14_9 N 0.15930(4) 0.77492(3) 0.774924 0.0630 Uiso
Cl1_10 Cl 0.143819 0.1438(4) 0.1438(4) 0.0520 Uiso
N14_10 N 0.15930(4) 0.22508(3) 0.225076 0.0630 Uiso
Cl3_10 Cl 0.1438(4) 0.8562(4) 0.143819 0.0520 Uiso
N17_10 N 0.15930(4) 0.774924 0.22508(3) 0.0630 Uiso
Cl1_11 Cl 0.856181 0.1438(4) 0.8562(4) 0.0520 Uiso
N14_11 N 0.84070(4) 0.22508(3) 0.774924 0.0630 Uiso
Cl3_11 Cl 0.8562(4) 0.8562(4) 0.856181 0.0520 Uiso
N17_11 N 0.84070(4) 0.774924 0.77492(3) 0.0630 Uiso
Cl3_12 Cl 0.8562(4) 0.1438(4) 0.143819 0.0520 Uiso
N17_12 N 0.84070(4) 0.225076 0.22508(3) 0.0630 Uiso
Cl1_12 Cl 0.856181 0.8562(4) 0.1438(4) 0.0520 Uiso
N14_12 N 0.84070(4) 0.77492(3) 0.225076 0.0630 Uiso
O1_5 O -0.00000 0.28346(4) 0.716539 0.0640 Uiso
C5_5 C 0.11735(3) 0.265988 0.73401(4) 0.0160 Uiso
C6_5 C 0.11735(3) 0.234012 0.76599(4) 0.0160 Uiso
C16_5 C 0.07883(3) 0.282569 0.71743(3) 0.0160 Uiso
C17_5 C 0.07883(3) 0.217431 0.78257(3) 0.0160 Uiso
C27_5 C 0.03904(3) 0.266622 0.73338(3) 0.0160 Uiso
C28_5 C 0.03904(3) 0.233378 0.76662(3) 0.0160 Uiso
O2_5 O 0.00000 0.216539 0.78346(4) 0.0640 Uiso
H2_5 H 0.079295 0.196258 0.803742 0.0380 Uiso
H3_5 H 0.079295 0.303742 0.696258 0.0380 Uiso
C1_5 C 0.88265(3) 0.26599(4) 0.734012 0.0160 Uiso
C2_5 C 0.92117(3) 0.28257(3) 0.717431 0.0160 Uiso
C3_5 C 0.96096(3) 0.26662(3) 0.733378 0.0160 Uiso
O1_6 O 1.00000 0.28346(4) 0.716539 0.0640 Uiso
H1_5 H 0.920705 0.303742 0.696258 0.0380 Uiso
C4_5 C 0.88265(3) 0.23401(4) 0.765988 0.0160 Uiso
C15_5 C 0.92117(3) 0.21743(3) 0.782569 0.0160 Uiso
C26_5 C 0.96096(3) 0.23338(3) 0.766622 0.0160 Uiso
O2_6 O 1.00000 0.216539 0.78346(4) 0.0640 Uiso
H4_5 H 0.920705 0.196258 0.803742 0.0380 Uiso
C1_6 C 0.11735(3) 0.73401(4) 0.734012 0.0160 Uiso
C2_6 C 0.07883(3) 0.71743(3) 0.717431 0.0160 Uiso
C3_6 C 0.03904(3) 0.73338(3) 0.733378 0.0160 Uiso
O1_7 O 0.00000 0.71654(4) 0.716539 0.0640 Uiso
H1_6 H 0.079295 0.696258 0.696258 0.0380 Uiso
C4_6 C 0.11735(3) 0.76599(4) 0.765988 0.0160 Uiso
C15_6 C 0.07883(3) 0.78257(3) 0.782569 0.0160 Uiso
C26_6 C 0.03904(3) 0.76662(3) 0.766622 0.0160 Uiso
O2_7 O 0.00000 0.783461 0.78346(4) 0.0640 Uiso
H4_6 H 0.079295 0.803742 0.803742 0.0380 Uiso
O1_8 O 1.00000 0.71654(4) 0.716539 0.0640 Uiso
C5_6 C 0.88265(3) 0.734012 0.73401(4) 0.0160 Uiso
C6_6 C 0.88265(3) 0.765988 0.76599(4) 0.0160 Uiso
C16_6 C 0.92117(3) 0.717431 0.71743(3) 0.0160 Uiso
C17_6 C 0.92117(3) 0.782569 0.78257(3) 0.0160 Uiso
C27_6 C 0.96096(3) 0.733378 0.73338(3) 0.0160 Uiso
C28_6 C 0.96096(3) 0.766622 0.76662(3) 0.0160 Uiso
O2_8 O 1.00000 0.783461 0.78346(4) 0.0640 Uiso
H2_6 H 0.920705 0.803742 0.803742 0.0380 Uiso
H3_6 H 0.920705 0.696258 0.696258 0.0380 Uiso
C1_7 C 0.11735(3) 0.26599(4) 0.265988 0.0160 Uiso
C2_7 C 0.07883(3) 0.28257(3) 0.282569 0.0160 Uiso
C3_7 C 0.03904(3) 0.26662(3) 0.266622 0.0160 Uiso
O1_9 O 0.00000 0.28346(4) 0.283461 0.0640 Uiso
H1_7 H 0.079295 0.303742 0.303742 0.0380 Uiso
C4_7 C 0.11735(3) 0.23401(4) 0.234012 0.0160 Uiso
C15_7 C 0.07883(3) 0.21743(3) 0.217431 0.0160 Uiso
C26_7 C 0.03904(3) 0.23338(3) 0.233378 0.0160 Uiso
O2_9 O -0.00000 0.216539 0.21654(4) 0.0640 Uiso
H4_7 H 0.079295 0.196258 0.196258 0.0380 Uiso
O1_10 O 1.00000 0.28346(4) 0.283461 0.0640 Uiso
C5_7 C 0.88265(3) 0.265988 0.26599(4) 0.0160 Uiso
C6_7 C 0.88265(3) 0.234012 0.23401(4) 0.0160 Uiso
C16_7 C 0.92117(3) 0.282569 0.28257(3) 0.0160 Uiso
C17_7 C 0.92117(3) 0.217431 0.21743(3) 0.0160 Uiso
C27_7 C 0.96096(3) 0.266622 0.26662(3) 0.0160 Uiso
C28_7 C 0.96096(3) 0.233378 0.23338(3) 0.0160 Uiso
O2_10 O 1.00000 0.216539 0.21654(4) 0.0640 Uiso
H2_7 H 0.920705 0.196258 0.196258 0.0380 Uiso
H3_7 H 0.920705 0.303742 0.303742 0.0380 Uiso
O1_11 O 0.00000 0.71654(4) 0.283461 0.0640 Uiso
C5_8 C 0.11735(3) 0.734012 0.26599(4) 0.0160 Uiso
C6_8 C 0.11735(3) 0.765988 0.23401(4) 0.0160 Uiso
C16_8 C 0.07883(3) 0.717431 0.28257(3) 0.0160 Uiso
C17_8 C 0.07883(3) 0.782569 0.21743(3) 0.0160 Uiso
C27_8 C 0.03904(3) 0.733378 0.26662(3) 0.0160 Uiso
C28_8 C 0.03904(3) 0.766622 0.23338(3) 0.0160 Uiso
O2_11 O 0.00000 0.783461 0.21654(4) 0.0640 Uiso
H2_8 H 0.079295 0.803742 0.196258 0.0380 Uiso
H3_8 H 0.079295 0.696258 0.303742 0.0380 Uiso
C1_8 C 0.88265(3) 0.73401(4) 0.265988 0.0160 Uiso
C2_8 C 0.92117(3) 0.71743(3) 0.282569 0.0160 Uiso
C3_8 C 0.96096(3) 0.73338(3) 0.266622 0.0160 Uiso
O1_12 O 1.00000 0.71654(4) 0.283461 0.0640 Uiso
H1_8 H 0.920705 0.696258 0.303742 0.0380 Uiso
C4_8 C 0.88265(3) 0.76599(4) 0.234012 0.0160 Uiso
C15_8 C 0.92117(3) 0.78257(3) 0.217431 0.0160 Uiso
C26_8 C 0.96096(3) 0.76662(3) 0.233378 0.0160 Uiso
O2_12 O 1.00000 0.783461 0.21654(4) 0.0640 Uiso
H4_8 H 0.920705 0.803742 0.196258 0.0380 Uiso
loop_
_geom_bond_atom_site_label_1
_geom_bond_atom_site_label_2
_geom_bond_site_symmetry_1
_geom_bond_site_symmetry_2
Zn1 Cl1 1_555 1_555
Zn2 N2 1_555 1_555
N1 Zn1 1_555 1_555
C1 N1 1_555 1_555
N2 N1 1_555 1_555
C2 C1 1_555 1_555
C3 C2 1_555 1_555
O1 C3 1_555 1_555
H1 C2 1_555 1_555
Zn3 Cl2 1_555 1_555
Zn4 Cl3 1_555 1_555
Zn5 Cl4 1_555 1_555
Zn6 N6 1_555 1_555
Zn7 N8 1_555 1_555
Zn8 N9 1_555 1_555
Zn9 N12 1_555 1_555
Zn10 N13 1_555 1_555
Zn11 N20 1_555 1_555
Zn12 N22 1_555 1_555
Zn13 N24 1_555 1_555
N3 N2 1_555 1_555
N4 Zn4 1_555 1_555
N5 Zn5 1_555 1_555
N6 C7 1_555 1_555
N7 Zn1 1_555 1_555
N8 C9 1_555 1_555
N9 C10 1_555 1_555
N10 Zn3 1_555 1_555
N11 Zn6 1_555 1_555
N12 C13 1_555 1_555
N13 C14 1_555 1_555
N14 Zn1 1_555 1_555
N15 Zn3 1_555 1_555
N16 Zn4 1_555 1_555
N17 Zn4 1_555 1_555
N18 Zn5 1_555 1_555
N19 Zn5 1_555 1_555
C4 C1 1_555 1_555
C5 N4 1_555 1_555
C6 N5 1_555 1_555
C7 C8 1_555 1_555
C8 N7 1_555 1_555
C9 C10 1_555 1_555
C10 C21 1_555 1_555
C11 N10 1_555 1_555
C12 N11 1_555 1_555
C13 C14 1_555 1_555
C14 C25 1_555 1_555
N20 N4 1_555 1_555
N21 Zn2 1_555 1_555
N22 N8 1_555 1_555
N23 Zn2 1_555 1_555
N24 N12 1_555 1_555
N25 Zn2 1_555 1_555
N26 Zn2 1_555 1_555
N27 Zn2 1_555 1_555
C15 C4 1_555 1_555
C16 C5 1_555 1_555
C17 C6 1_555 1_555
C18 C7 1_555 1_555
C19 C8 1_555 1_555
C20 C9 1_555 1_555
C21 C32 1_555 1_555
C22 C11 1_555 1_555
C23 C12 1_555 1_555
C24 C13 1_555 1_555
C25 C36 1_555 1_555
C26 C3 1_555 1_555
C27 O1 1_555 1_555
C28 C17 1_555 1_555
C29 C18 1_555 1_555
C30 C19 1_555 1_555
C31 C20 1_555 1_555
C32 C31 1_555 1_555
C33 C22 1_555 1_555
C34 C23 1_555 1_555
C35 C24 1_555 1_555
C36 C35 1_555 1_555
O2 C26 1_555 1_555
O3 C29 1_555 1_555
O4 C30 1_555 1_555
O5 C33 1_555 1_555
O6 C34 1_555 1_555
H2 C17 1_555 1_555
H3 C16 1_555 1_555
H4 C15 1_555 1_555
H5 C18 1_555 1_555
H6 C21 1_555 1_555
H7 C20 1_555 1_555
H8 C19 1_555 1_555
H9 C22 1_555 1_555
H10 C25 1_555 1_555
H11 C24 1_555 1_555
H12 C23 1_555 1_555
Zn3 N3 1_555 1_555
N3 C4 1_555 1_555
N5 N20 1_555 1_555
N6 N21 1_555 1_555
N7 N21 1_555 1_555
N9 N22 1_555 1_555
N10 N23 1_555 1_555
N11 N23 1_555 1_555
N13 N24 1_555 1_555
N14 N26 1_555 1_555
N15 N25 1_555 1_555
C5 C6 1_555 1_555
C11 C12 1_555 1_555
C15 C26 1_555 1_555
C16 C27 1_555 1_555
C27 C28 1_555 1_555
C28 O2 1_555 1_555
C29 C30 1_555 1_555
C31 O3 1_555 1_555
C32 O4 1_555 1_555
C33 C34 1_555 1_555
C35 O5 1_555 1_555
C36 O6 1_555 1_555
Zn1_2 Cl1_2 1_555 1_555
Zn2_2 N2_2 1_555 1_555
N1_2 Zn1_2 1_555 1_555
C1_2 N1_2 1_555 1_555
N2_2 N1_2 1_555 1_555
C2_2 C1_2 1_555 1_555
C3_2 C2_2 1_555 1_555
O1_2 C3_2 1_555 1_555
H1_2 C2_2 1_555 1_555
Zn3_2 Cl2_2 1_555 1_555
Zn8 Cl3_2 1_555 1_555
Zn5_2 Cl4_2 1_555 1_555
Zn6_2 N6_2 1_555 1_555
Zn7_2 N8_2 1_555 1_555
Zn9_2 N12_2 1_555 1_555
Zn10_2 N13_2 1_555 1_555
Zn12 N20_2 1_555 1_555
Zn11 N22_2 1_555 1_555
Zn13_2 N24_2 1_555 1_555
N3_2 N2_2 1_555 1_555
N4_2 Zn8 1_555 1_555
N5_2 Zn5_2 1_555 1_555
N6_2 C7_2 1_555 1_555
N7_2 Zn1_2 1_555 1_555
N8_2 C9_2 1_555 1_555
N16 C10_2 1_555 1_555
N10_2 Zn3_2 1_555 1_555
N11_2 Zn6_2 1_555 1_555
N12_2 C13_2 1_555 1_555
N13_2 C14_2 1_555 1_555
N14_2 Zn1_2 1_555 1_555
N15_2 Zn3_2 1_555 1_555
N17_2 Zn8 1_555 1_555
N18_2 Zn5_2 1_555 1_555
N19_2 Zn5_2 1_555 1_555
C4_2 C1_2 1_555 1_555
C5_2 N4_2 1_555 1_555
C6_2 N5_2 1_555 1_555
C7_2 C8_2 1_555 1_555
C8_2 N7_2 1_555 1_555
C9_2 C10_2 1_555 1_555
C10_2 C21_2 1_555 1_555
C11_2 N10_2 1_555 1_555
C12_2 N11_2 1_555 1_555
C13_2 C14_2 1_555 1_555
C14_2 C25_2 1_555 1_555
N20_2 N4_2 1_555 1_555
N21_2 Zn2_2 1_555 1_555
N22_2 N8_2 1_555 1_555
N23_2 Zn2_2 1_555 1_555
N24_2 N12_2 1_555 1_555
N25_2 Zn2_2 1_555 1_555
N26_2 Zn2_2 1_555 1_555
N27_2 Zn2_2 1_555 1_555
C15_2 C4_2 1_555 1_555
C16_2 C5_2 1_555 1_555
C17_2 C6_2 1_555 1_555
C18_2 C7_2 1_555 1_555
C19_2 C8_2 1_555 1_555
C20_2 C9_2 1_555 1_555
C21_2 C32_2 1_555 1_555
C22_2 C11_2 1_555 1_555
C23_2 C12_2 1_555 1_555
C24_2 C13_2 1_555 1_555
C25_2 C36_2 1_555 1_555
C26_2 C3_2 1_555 1_555
C27_2 O1_2 1_555 1_555
C28_2 C17_2 1_555 1_555
C29_2 C18_2 1_555 1_555
C30_2 C19_2 1_555 1_555
C31_2 C20_2 1_555 1_555
C32_2 C31_2 1_555 1_555
C33_2 C22_2 1_555 1_555
C34_2 C23_2 1_555 1_555
C35_2 C24_2 1_555 1_555
C36_2 C35_2 1_555 1_555
O2_2 C26_2 1_555 1_555
O3_2 C29_2 1_555 1_555
O4_2 C30_2 1_555 1_555
O5_2 C33_2 1_555 1_555
O6_2 C34_2 1_555 1_555
H2_2 C17_2 1_555 1_555
H3_2 C16_2 1_555 1_555
H4_2 C15_2 1_555 1_555
H5_2 C18_2 1_555 1_555
H6_2 C21_2 1_555 1_555
H7_2 C20_2 1_555 1_555
H8_2 C19_2 1_555 1_555
H9_2 C22_2 1_555 1_555
H10_2 C25_2 1_555 1_555
H11_2 C24_2 1_555 1_555
H12_2 C23_2 1_555 1_555
Zn3_2 N3_2 1_555 1_555
N3_2 C4_2 1_555 1_555
N5_2 N20_2 1_555 1_555
N6_2 N21_2 1_555 1_555
N7_2 N21_2 1_555 1_555
N16 N22_2 1_555 1_555
N10_2 N23_2 1_555 1_555
N11_2 N23_2 1_555 1_555
N13_2 N24_2 1_555 1_555
N14_2 N26_2 1_555 1_555
N15_2 N25_2 1_555 1_555
C5_2 C6_2 1_555 1_555
C11_2 C12_2 1_555 1_555
C15_2 C26_2 1_555 1_555
C16_2 C27_2 1_555 1_555
C27_2 C28_2 1_555 1_555
C28_2 O2_2 1_555 1_555
C29_2 C30_2 1_555 1_555
C31_2 O3_2 1_555 1_555
C32_2 O4_2 1_555 1_555
C33_2 C34_2 1_555 1_555
C35_2 O5_2 1_555 1_555
C36_2 O6_2 1_555 1_555
Zn1_3 Cl1_3 1_555 1_555
Zn2_3 N2_3 1_555 1_555
N1_3 Zn1_3 1_555 1_555
C1_3 N1_3 1_555 1_555
N2_3 N1_3 1_555 1_555
C2_3 C1_3 1_555 1_555
C3_3 C2_3 1_555 1_555
O1_3 C3_3 1_555 1_555
H1_3 C2_3 1_555 1_555
Zn3_3 Cl2_3 1_555 1_555
Zn4_2 Cl3_3 1_555 1_555
Zn9 Cl4_3 1_555 1_555
Zn6_3 N6_3 1_555 1_555
Zn10_2 N8_3 1_555 1_555
Zn8_2 N9_2 1_555 1_555
Zn7_2 N13_3 1_555 1_555
Zn13 N20_3 1_555 1_555
Zn13_2 N22_3 1_555 1_555
Zn11 N24_3 1_555 1_555
N3_3 N2_3 1_555 1_555
N4_3 Zn4_2 1_555 1_555
N5_3 Zn9 1_555 1_555
N6_3 C7_3 1_555 1_555
N7_3 Zn1_3 1_555 1_555
N8_3 C9_3 1_555 1_555
N9_2 C10_3 1_555 1_555
N10_3 Zn3_3 1_555 1_555
N11_3 Zn6_3 1_555 1_555
N19 C13_3 1_555 1_555
N13_3 C14_3 1_555 1_555
N14_3 Zn1_3 1_555 1_555
N15_3 Zn3_3 1_555 1_555
N16_2 Zn4_2 1_555 1_555
N17_3 Zn4_2 1_555 1_555
N18_3 Zn9 1_555 1_555
C4_3 C1_3 1_555 1_555
C5_3 N4_3 1_555 1_555
C6_3 N5_3 1_555 1_555
C7_3 C8_3 1_555 1_555
C8_3 N7_3 1_555 1_555
C9_3 C10_3 1_555 1_555
C10_3 C21_3 1_555 1_555
C11_3 N10_3 1_555 1_555
C12_3 N11_3 1_555 1_555
C13_3 C14_3 1_555 1_555
C14_3 C25_3 1_555 1_555
N20_3 N4_3 1_555 1_555
N21_3 Zn2_3 1_555 1_555
N22_3 N8_3 1_555 1_555
N23_3 Zn2_3 1_555 1_555
N24_3 N19 1_555 1_555
N25_3 Zn2_3 1_555 1_555
N26_3 Zn2_3 1_555 1_555
N27_3 Zn2_3 1_555 1_555
C15_3 C4_3 1_555 1_555
C16_3 C5_3 1_555 1_555
C17_3 C6_3 1_555 1_555
C18_3 C7_3 1_555 1_555
C19_3 C8_3 1_555 1_555
C20_3 C9_3 1_555 1_555
C21_3 C32_3 1_555 1_555
C22_3 C11_3 1_555 1_555
C23_3 C12_3 1_555 1_555
C24_3 C13_3 1_555 1_555
C25_3 C36_3 1_555 1_555
C26_3 C3_3 1_555 1_555
C27_3 O1_3 1_555 1_555
C28_3 C17_3 1_555 1_555
C29_3 C18_3 1_555 1_555
C30_3 C19_3 1_555 1_555
C31_3 C20_3 1_555 1_555
C32_3 C31_3 1_555 1_555
C33_3 C22_3 1_555 1_555
C34_3 C23_3 1_555 1_555
C35_3 C24_3 1_555 1_555
C36_3 C35_3 1_555 1_555
O2_3 C26_3 1_555 1_555
O3_3 C29_3 1_555 1_555
O4_3 C30_3 1_555 1_555
O5_3 C33_3 1_555 1_555
O6_3 C34_3 1_555 1_555
H2_3 C17_3 1_555 1_555
H3_3 C16_3 1_555 1_555
H4_3 C15_3 1_555 1_555
H5_3 C18_3 1_555 1_555
H6_3 C21_3 1_555 1_555
H7_3 C20_3 1_555 1_555
H8_3 C19_3 1_555 1_555
H9_3 C22_3 1_555 1_555
H10_3 C25_3 1_555 1_555
H11_3 C24_3 1_555 1_555
H12_3 C23_3 1_555 1_555
Zn3_3 N3_3 1_555 1_555
N3_3 C4_3 1_555 1_555
N5_3 N20_3 1_555 1_555
N6_3 N21_3 1_555 1_555
N7_3 N21_3 1_555 1_555
N9_2 N22_3 1_555 1_555
N10_3 N23_3 1_555 1_555
N11_3 N23_3 1_555 1_555
N13_3 N24_3 1_555 1_555
N14_3 N26_3 1_555 1_555
N15_3 N25_3 1_555 1_555
C5_3 C6_3 1_555 1_555
C11_3 C12_3 1_555 1_555
C15_3 C26_3 1_555 1_555
C16_3 C27_3 1_555 1_555
C27_3 C28_3 1_555 1_555
C28_3 O2_3 1_555 1_555
C29_3 C30_3 1_555 1_555
C31_3 O3_3 1_555 1_555
C32_3 O4_3 1_555 1_555
C33_3 C34_3 1_555 1_555
C35_3 O5_3 1_555 1_555
C36_3 O6_3 1_555 1_555
Zn1_4 Cl1_4 1_555 1_555
Zn2_4 N2_4 1_555 1_555
N1_4 Zn1_4 1_555 1_555
C1_4 N1_4 1_555 1_555
N2_4 N1_4 1_555 1_555
C2_4 C1_4 1_555 1_555
C3_4 C2_4 1_555 1_555
O1_4 C3_4 1_555 1_555
H1_4 C2_4 1_555 1_555
Zn3_4 Cl2_4 1_555 1_555
Zn8_2 Cl3_4 1_555 1_555
Zn9_2 Cl4_4 1_555 1_555
Zn6_4 N6_4 1_555 1_555
Zn10 N8_4 1_555 1_555
Zn7 N13_4 1_555 1_555
Zn13_2 N20_4 1_555 1_555
Zn13 N22_4 1_555 1_555
Zn12 N24_4 1_555 1_555
N3_4 N2_4 1_555 1_555
N4_4 Zn8_2 1_555 1_555
N5_4 Zn9_2 1_555 1_555
N6_4 C7_4 1_555 1_555
N7_4 Zn1_4 1_555 1_555
N8_4 C9_4 1_555 1_555
N16_2 C10_4 1_555 1_555
N10_4 Zn3_4 1_555 1_555
N11_4 Zn6_4 1_555 1_555
N19_2 C13_4 1_555 1_555
N13_4 C14_4 1_555 1_555
N14_4 Zn1_4 1_555 1_555
N15_4 Zn3_4 1_555 1_555
N17_4 Zn8_2 1_555 1_555
N18_4 Zn9_2 1_555 1_555
C4_4 C1_4 1_555 1_555
C5_4 N4_4 1_555 1_555
C6_4 N5_4 1_555 1_555
C7_4 C8_4 1_555 1_555
C8_4 N7_4 1_555 1_555
C9_4 C10_4 1_555 1_555
C10_4 C21_4 1_555 1_555
C11_4 N10_4 1_555 1_555
C12_4 N11_4 1_555 1_555
C13_4 C14_4 1_555 1_555
C14_4 C25_4 1_555 1_555
N20_4 N4_4 1_555 1_555
N21_4 Zn2_4 1_555 1_555
N22_4 N8_4 1_555 1_555
N23_4 Zn2_4 1_555 1_555
N24_4 N19_2 1_555 1_555
N25_4 Zn2_4 1_555 1_555
N26_4 Zn2_4 1_555 1_555
N27_4 Zn2_4 1_555 1_555
C15_4 C4_4 1_555 1_555
C16_4 C5_4 1_555 1_555
C17_4 C6_4 1_555 1_555
C18_4 C7_4 1_555 1_555
C19_4 C8_4 1_555 1_555
C20_4 C9_4 1_555 1_555
C21_4 C32_4 1_555 1_555
C22_4 C11_4 1_555 1_555
C23_4 C12_4 1_555 1_555
C24_4 C13_4 1_555 1_555
C25_4 C36_4 1_555 1_555
C26_4 C3_4 1_555 1_555
C27_4 O1_4 1_555 1_555
C28_4 C17_4 1_555 1_555
C29_4 C18_4 1_555 1_555
C30_4 C19_4 1_555 1_555
C31_4 C20_4 1_555 1_555
C32_4 C31_4 1_555 1_555
C33_4 C22_4 1_555 1_555
C34_4 C23_4 1_555 1_555
C35_4 C24_4 1_555 1_555
C36_4 C35_4 1_555 1_555
O2_4 C26_4 1_555 1_555
O3_4 C29_4 1_555 1_555
O4_4 C30_4 1_555 1_555
O5_4 C33_4 1_555 1_555
O6_4 C34_4 1_555 1_555
H2_4 C17_4 1_555 1_555
H3_4 C16_4 1_555 1_555
H4_4 C15_4 1_555 1_555
H5_4 C18_4 1_555 1_555
H6_4 C21_4 1_555 1_555
H7_4 C20_4 1_555 1_555
H8_4 C19_4 1_555 1_555
H9_4 C22_4 1_555 1_555
H10_4 C25_4 1_555 1_555
H11_4 C24_4 1_555 1_555
H12_4 C23_4 1_555 1_555
Zn3_4 N3_4 1_555 1_555
N3_4 C4_4 1_555 1_555
N5_4 N20_4 1_555 1_555
N6_4 N21_4 1_555 1_555
N7_4 N21_4 1_555 1_555
N16_2 N22_4 1_555 1_555
N10_4 N23_4 1_555 1_555
N11_4 N23_4 1_555 1_555
N13_4 N24_4 1_555 1_555
N14_4 N26_4 1_555 1_555
N15_4 N25_4 1_555 1_555
C5_4 C6_4 1_555 1_555
C11_4 C12_4 1_555 1_555
C15_4 C26_4 1_555 1_555
C16_4 C27_4 1_555 1_555
C27_4 C28_4 1_555 1_555
C28_4 O2_4 1_555 1_555
C29_4 C30_4 1_555 1_555
C31_4 O3_4 1_555 1_555
C32_4 O4_4 1_555 1_555
C33_4 C34_4 1_555 1_555
C35_4 O5_4 1_555 1_555
C36_4 O6_4 1_555 1_555
Zn6 Cl1_5 1_555 1_555
Zn7 Cl3_5 1_555 1_555
N14_5 Zn6 1_555 1_555
N17_5 Zn7 1_555 1_555
N14_5 N27 1_555 1_555
Zn6_4 Cl1_6 1_555 1_555
Zn10 Cl3_6 1_555 1_555
N14_6 Zn6_4 1_555 1_555
N17_6 Zn10 1_555 1_555
N14_6 N27_4 1_555 1_555
Zn6_2 Cl1_7 1_555 1_555
Zn7_2 Cl3_7 1_555 1_555
N14_7 Zn6_2 1_555 1_555
N17_7 Zn7_2 1_555 1_555
N14_7 N27_2 1_555 1_555
Zn6_3 Cl1_8 1_555 1_555
Zn10_2 Cl3_8 1_555 1_555
N14_8 Zn6_3 1_555 1_555
N17_8 Zn10_2 1_555 1_555
N14_8 N27_3 1_555 1_555
N25_5 Zn13 1_555 1_555
N26_5 Zn13 1_555 1_555
N27_5 Zn13 1_555 1_555
N17_3 N26_5 1_555 1_555
N17_6 N25_5 1_555 1_555
N25_6 Zn13_2 1_555 1_555
N26_6 Zn13_2 1_555 1_555
N27_6 Zn13_2 1_555 1_555
N17_4 N26_6 1_555 1_555
N17_8 N25_6 1_555 1_555
N25_7 Zn12 1_555 1_555
N26_7 Zn12 1_555 1_555
N27_7 Zn12 1_555 1_555
N17_2 N26_7 1_555 1_555
N17_5 N25_7 1_555 1_555
N25_8 Zn11 1_555 1_555
N26_8 Zn11 1_555 1_555
N27_8 Zn11 1_555 1_555
N17 N26_8 1_555 1_555
N17_7 N25_8 1_555 1_555
N18_3 N27_5 1_555 1_555
N18 N27_8 1_555 1_555
N18_4 N27_6 1_555 1_555
N18_2 N27_7 1_555 1_555
Zn7_3 N8_5 1_555 1_555
N8_5 C9_5 1_555 1_555
N18_3 C10_5 1_555 1_555
C9_5 C10_5 1_555 1_555
C10_5 C21_5 1_555 1_555
N27_5 N8_5 1_555 1_555
C20_5 C9_5 1_555 1_555
C21_5 C32_5 1_555 1_555
C31_5 C20_5 1_555 1_555
C32_5 C31_5 1_555 1_555
H6_5 C21_5 1_555 1_555
H7_5 C20_5 1_555 1_555
C31_5 O3_5 1_555 1_555
C32_5 O4_5 1_555 1_555
Zn10_3 N13_5 1_555 1_555
N17_2 C13_5 1_555 1_555
N13_5 C14_5 1_555 1_555
C13_5 C14_5 1_555 1_555
C14_5 C25_5 1_555 1_555
C24_5 C13_5 1_555 1_555
C25_5 C36_5 1_555 1_555
C35_5 C24_5 1_555 1_555
C36_5 C35_5 1_555 1_555
H10_5 C25_5 1_555 1_555
H11_5 C24_5 1_555 1_555
N13_5 N26_7 1_555 1_555
C35_5 O5_5 1_555 1_555
C36_5 O6_5 1_555 1_555
Zn6_5 N6_5 1_555 1_555
N6_5 C7_5 1_555 1_555
N11_5 Zn6_5 1_555 1_555
C7_5 C8_5 1_555 1_555
C8_5 N15_4 1_555 1_555
C11_5 N14_4 1_555 1_555
C12_5 N11_5 1_555 1_555
C18_5 C7_5 1_555 1_555
C19_5 C8_5 1_555 1_555
C22_5 C11_5 1_555 1_555
C23_5 C12_5 1_555 1_555
C29_5 C18_5 1_555 1_555
C30_5 C19_5 1_555 1_555
C33_5 C22_5 1_555 1_555
C34_5 C23_5 1_555 1_555
O3_6 C29_5 1_555 1_555
O4_6 C30_5 1_555 1_555
O5_6 C33_5 1_555 1_555
O6_6 C34_5 1_555 1_555
H5_5 C18_5 1_555 1_555
H8_5 C19_5 1_555 1_555
H9_5 C22_5 1_555 1_555
H12_5 C23_5 1_555 1_555
N6_5 N25_4 1_555 1_555
N11_5 N26_4 1_555 1_555
C11_5 C12_5 1_555 1_555
C29_5 C30_5 1_555 1_555
C33_5 C34_5 1_555 1_555
Zn10_4 N13_6 1_555 1_555
N17 C13_6 1_555 1_555
N13_6 C14_6 1_555 1_555
C13_6 C14_6 1_555 1_555
C14_6 C25_6 1_555 1_555
C24_6 C13_6 1_555 1_555
C25_6 C36_6 1_555 1_555
C35_6 C24_6 1_555 1_555
C36_6 C35_6 1_555 1_555
H10_6 C25_6 1_555 1_555
H11_6 C24_6 1_555 1_555
N13_6 N26_8 1_555 1_555
C35_6 O5_7 1_555 1_555
C36_6 O6_7 1_555 1_555
Zn6_6 N6_6 1_555 1_555
N6_6 C7_6 1_555 1_555
N11_6 Zn6_6 1_555 1_555
C7_6 C8_6 1_555 1_555
C8_6 N15_3 1_555 1_555
C11_6 N14_3 1_555 1_555
C12_6 N11_6 1_555 1_555
C18_6 C7_6 1_555 1_555
C19_6 C8_6 1_555 1_555
C22_6 C11_6 1_555 1_555
C23_6 C12_6 1_555 1_555
C29_6 C18_6 1_555 1_555
C30_6 C19_6 1_555 1_555
C33_6 C22_6 1_555 1_555
C34_6 C23_6 1_555 1_555
O3_7 C29_6 1_555 1_555
O4_7 C30_6 1_555 1_555
O5_8 C33_6 1_555 1_555
O6_8 C34_6 1_555 1_555
H5_6 C18_6 1_555 1_555
H8_6 C19_6 1_555 1_555
H9_6 C22_6 1_555 1_555
H12_6 C23_6 1_555 1_555
N6_6 N25_3 1_555 1_555
N11_6 N26_3 1_555 1_555
C11_6 C12_6 1_555 1_555
C29_6 C30_6 1_555 1_555
C33_6 C34_6 1_555 1_555
Zn7_4 N8_6 1_555 1_555
N8_6 C9_6 1_555 1_555
N18_4 C10_6 1_555 1_555
C9_6 C10_6 1_555 1_555
C10_6 C21_6 1_555 1_555
N27_6 N8_6 1_555 1_555
C20_6 C9_6 1_555 1_555
C21_6 C32_6 1_555 1_555
C31_6 C20_6 1_555 1_555
C32_6 C31_6 1_555 1_555
H6_6 C21_6 1_555 1_555
H7_6 C20_6 1_555 1_555
C31_6 O3_8 1_555 1_555
C32_6 O4_8 1_555 1_555
Zn10_4 N8_7 1_555 1_555
N8_7 C9_7 1_555 1_555
N18 C10_7 1_555 1_555
C9_7 C10_7 1_555 1_555
C10_7 C21_7 1_555 1_555
N27_8 N8_7 1_555 1_555
C20_7 C9_7 1_555 1_555
C21_7 C32_7 1_555 1_555
C31_7 C20_7 1_555 1_555
C32_7 C31_7 1_555 1_555
H6_7 C21_7 1_555 1_555
H7_7 C20_7 1_555 1_555
C31_7 O3_9 1_555 1_555
C32_7 O4_9 1_555 1_555
Zn6_7 N6_7 1_555 1_555
N6_7 C7_7 1_555 1_555
N11_7 Zn6_7 1_555 1_555
C7_7 C8_7 1_555 1_555
C8_7 N15_2 1_555 1_555
C11_7 N14_2 1_555 1_555
C12_7 N11_7 1_555 1_555
C18_7 C7_7 1_555 1_555
C19_7 C8_7 1_555 1_555
C22_7 C11_7 1_555 1_555
C23_7 C12_7 1_555 1_555
C29_7 C18_7 1_555 1_555
C30_7 C19_7 1_555 1_555
C33_7 C22_7 1_555 1_555
C34_7 C23_7 1_555 1_555
O3_10 C29_7 1_555 1_555
O4_10 C30_7 1_555 1_555
O5_9 C33_7 1_555 1_555
O6_9 C34_7 1_555 1_555
H5_7 C18_7 1_555 1_555
H8_7 C19_7 1_555 1_555
H9_7 C22_7 1_555 1_555
H12_7 C23_7 1_555 1_555
N6_7 N25_2 1_555 1_555
N11_7 N26_2 1_555 1_555
C11_7 C12_7 1_555 1_555
C29_7 C30_7 1_555 1_555
C33_7 C34_7 1_555 1_555
Zn7_4 N13_7 1_555 1_555
N17_4 C13_7 1_555 1_555
N13_7 C14_7 1_555 1_555
C13_7 C14_7 1_555 1_555
C14_7 C25_7 1_555 1_555
C24_7 C13_7 1_555 1_555
C25_7 C36_7 1_555 1_555
C35_7 C24_7 1_555 1_555
C36_7 C35_7 1_555 1_555
H10_7 C25_7 1_555 1_555
H11_7 C24_7 1_555 1_555
N13_7 N26_6 1_555 1_555
C35_7 O5_10 1_555 1_555
C36_7 O6_10 1_555 1_555
Zn6_8 N6_8 1_555 1_555
N6_8 C7_8 1_555 1_555
N11_8 Zn6_8 1_555 1_555
C7_8 C8_8 1_555 1_555
C8_8 N15 1_555 1_555
C11_8 N14 1_555 1_555
C12_8 N11_8 1_555 1_555
C18_8 C7_8 1_555 1_555
C19_8 C8_8 1_555 1_555
C22_8 C11_8 1_555 1_555
C23_8 C12_8 1_555 1_555
C29_8 C18_8 1_555 1_555
C30_8 C19_8 1_555 1_555
C33_8 C22_8 1_555 1_555
C34_8 C23_8 1_555 1_555
O3_11 C29_8 1_555 1_555
O4_11 C30_8 1_555 1_555
O5_11 C33_8 1_555 1_555
O6_11 C34_8 1_555 1_555
H5_8 C18_8 1_555 1_555
H8_8 C19_8 1_555 1_555
H9_8 C22_8 1_555 1_555
H12_8 C23_8 1_555 1_555
N6_8 N25 1_555 1_555
N11_8 N26 1_555 1_555
C11_8 C12_8 1_555 1_555
C29_8 C30_8 1_555 1_555
C33_8 C34_8 1_555 1_555
Zn7_3 N13_8 1_555 1_555
N17_3 C13_8 1_555 1_555
N13_8 C14_8 1_555 1_555
C13_8 C14_8 1_555 1_555
C14_8 C25_8 1_555 1_555
C24_8 C13_8 1_555 1_555
C25_8 C36_8 1_555 1_555
C35_8 C24_8 1_555 1_555
C36_8 C35_8 1_555 1_555
H10_8 C25_8 1_555 1_555
H11_8 C24_8 1_555 1_555
N13_8 N26_5 1_555 1_555
C35_8 O5_12 1_555 1_555
C36_8 O6_12 1_555 1_555
Zn10_3 N8_8 1_555 1_555
N8_8 C9_8 1_555 1_555
N18_2 C10_8 1_555 1_555
C9_8 C10_8 1_555 1_555
C10_8 C21_8 1_555 1_555
N27_7 N8_8 1_555 1_555
C20_8 C9_8 1_555 1_555
C21_8 C32_8 1_555 1_555
C31_8 C20_8 1_555 1_555
C32_8 C31_8 1_555 1_555
H6_8 C21_8 1_555 1_555
H7_8 C20_8 1_555 1_555
C31_8 O3_12 1_555 1_555
C32_8 O4_12 1_555 1_555
Zn7_3 Cl3_9 1_555 1_555
N17_9 Zn7_3 1_555 1_555
Zn6_5 Cl1_9 1_555 1_555
N14_9 Zn6_5 1_555 1_555
N14_9 N27_4 1_555 1_555
Zn6_8 Cl1_10 1_555 1_555
N14_10 Zn6_8 1_555 1_555
N14_10 N27 1_555 1_555
Zn10_3 Cl3_10 1_555 1_555
N17_10 Zn10_3 1_555 1_555
Zn6_6 Cl1_11 1_555 1_555
N14_11 Zn6_6 1_555 1_555
N14_11 N27_3 1_555 1_555
Zn7_4 Cl3_11 1_555 1_555
N17_11 Zn7_4 1_555 1_555
Zn10_4 Cl3_12 1_555 1_555
N17_12 Zn10_4 1_555 1_555
Zn6_7 Cl1_12 1_555 1_555
N14_12 Zn6_7 1_555 1_555
N14_12 N27_2 1_555 1_555
N17_10 N25_7 1_555 1_555
N17_12 N25_8 1_555 1_555
N17_9 N25_5 1_555 1_555
N17_11 N25_6 1_555 1_555
C5_5 N17_6 1_555 1_555
C6_5 N17_9 1_555 1_555
C16_5 C5_5 1_555 1_555
C17_5 C6_5 1_555 1_555
C27_5 O1_5 1_555 1_555
C28_5 C17_5 1_555 1_555
H2_5 C17_5 1_555 1_555
H3_5 C16_5 1_555 1_555
C5_5 C6_5 1_555 1_555
C16_5 C27_5 1_555 1_555
C27_5 C28_5 1_555 1_555
C28_5 O2_5 1_555 1_555
C1_5 N14_8 1_555 1_555
C2_5 C1_5 1_555 1_555
C3_5 C2_5 1_555 1_555
O1_6 C3_5 1_555 1_555
H1_5 C2_5 1_555 1_555
C4_5 C1_5 1_555 1_555
C15_5 C4_5 1_555 1_555
C26_5 C3_5 1_555 1_555
O2_6 C26_5 1_555 1_555
H4_5 C15_5 1_555 1_555
N14_11 C4_5 1_555 1_555
C15_5 C26_5 1_555 1_555
C1_6 N14_6 1_555 1_555
C2_6 C1_6 1_555 1_555
C3_6 C2_6 1_555 1_555
O1_7 C3_6 1_555 1_555
H1_6 C2_6 1_555 1_555
C4_6 C1_6 1_555 1_555
C15_6 C4_6 1_555 1_555
C26_6 C3_6 1_555 1_555
O2_7 C26_6 1_555 1_555
H4_6 C15_6 1_555 1_555
N14_9 C4_6 1_555 1_555
C15_6 C26_6 1_555 1_555
C5_6 N17_8 1_555 1_555
C6_6 N17_11 1_555 1_555
C16_6 C5_6 1_555 1_555
C17_6 C6_6 1_555 1_555
C27_6 O1_8 1_555 1_555
C28_6 C17_6 1_555 1_555
H2_6 C17_6 1_555 1_555
H3_6 C16_6 1_555 1_555
C5_6 C6_6 1_555 1_555
C16_6 C27_6 1_555 1_555
C27_6 C28_6 1_555 1_555
C28_6 O2_8 1_555 1_555
C1_7 N14_5 1_555 1_555
C2_7 C1_7 1_555 1_555
C3_7 C2_7 1_555 1_555
O1_9 C3_7 1_555 1_555
H1_7 C2_7 1_555 1_555
C4_7 C1_7 1_555 1_555
C15_7 C4_7 1_555 1_555
C26_7 C3_7 1_555 1_555
O2_9 C26_7 1_555 1_555
H4_7 C15_7 1_555 1_555
N14_10 C4_7 1_555 1_555
C15_7 C26_7 1_555 1_555
C5_7 N17_7 1_555 1_555
C6_7 N17_12 1_555 1_555
C16_7 C5_7 1_555 1_555
C17_7 C6_7 1_555 1_555
C27_7 O1_10 1_555 1_555
C28_7 C17_7 1_555 1_555
H2_7 C17_7 1_555 1_555
H3_7 C16_7 1_555 1_555
C5_7 C6_7 1_555 1_555
C16_7 C27_7 1_555 1_555
C27_7 C28_7 1_555 1_555
C28_7 O2_10 1_555 1_555
C5_8 N17_5 1_555 1_555
C6_8 N17_10 1_555 1_555
C16_8 C5_8 1_555 1_555
C17_8 C6_8 1_555 1_555
C27_8 O1_11 1_555 1_555
C28_8 C17_8 1_555 1_555
H2_8 C17_8 1_555 1_555
H3_8 C16_8 1_555 1_555
C5_8 C6_8 1_555 1_555
C16_8 C27_8 1_555 1_555
C27_8 C28_8 1_555 1_555
C28_8 O2_11 1_555 1_555
C1_8 N14_7 1_555 1_555
C2_8 C1_8 1_555 1_555
C3_8 C2_8 1_555 1_555
O1_12 C3_8 1_555 1_555
H1_8 C2_8 1_555 1_555
C4_8 C1_8 1_555 1_555
C15_8 C4_8 1_555 1_555
C26_8 C3_8 1_555 1_555
O2_12 C26_8 1_555 1_555
H4_8 C15_8 1_555 1_555
N14_12 C4_8 1_555 1_555
C15_8 C26_8 1_555 1_555

#END
