
###############################################################################
#
# This file contains modified crystal structure data generated from the
# MOF subset of the Cambridge Structural Database (CSD) v543 
# hosted by the Cambridge Crystallographic Data Centre (CCDC).
#
# This work is licensed under the Creative Commons
# Attribution-NonCommercial-ShareAlike 4.0 International License.
# To view a copy of this license, visit
# http://creativecommons.org/licenses/by-nc-sa/4.0/
# or send a letter to
# Creative Commons, PO Box 1866, Mountain View, CA 94042, USA.
#
# CIF created using the CSD Python API on 29 September 2022
# The structure has been converted into the P1 space group
# The structure has a 3D framework
# The original CSD entry UQEFED is in the monoclinic crystal system
# The framework has been calculated to contain at least 10.0% void space
# The void calculation uses a probe of radius 1.32A, grid spacing 0.4
#
###############################################################################

data_UQEFED
_chemical_formula_moiety         '(C56 H32 Ca2 O22 S4)n'
_symmetry_cell_setting           triclinic
_symmetry_space_group_name_H-M   'P 1'
_symmetry_Int_Tables_number      1
_space_group_name_Hall           'P 1'
loop_
_symmetry_equiv_pos_site_id
_symmetry_equiv_pos_as_xyz
1 x,y,z
_cell_length_a                   11.6193(5)
_cell_length_b                   5.5667(2)
_cell_length_c                   22.9312(10)
_cell_angle_alpha                90
_cell_angle_beta                 100.897(4)
_cell_angle_gamma                90
_cell_volume                     1456.47
loop_
_atom_site_label
_atom_site_type_symbol
_atom_site_fract_x
_atom_site_fract_y
_atom_site_fract_z
O7 O 0.5409(3) 0.0808(7) 0.24372(16)
O9 O 0.7371(3) 0.0232(7) 0.17265(16)
C1 C 0.4932(5) 0.2586(9) 0.2620(2)
C2 C 0.3998(5) 0.2111(10) 0.2991(2)
C3 C 0.3121(5) 0.3789(10) 0.3001(2)
H1 H 0.3142 0.5287 0.2804
C4 C 0.2208(5) 0.3282(11) 0.3299(2)
H2 H 0.1597 0.4413 0.3304
C5 C 0.2209(5) 0.1096(10) 0.3589(2)
C8 C 0.1490(4) 0.1119(10) 0.4702(2)
C9 C 0.1194(5) 0.3340(10) 0.4901(2)
H5 H 0.0803 0.4502 0.4630
C10 C 0.1482(5) 0.3837(10) 0.5508(2)
H6 H 0.1298 0.5361 0.5652
C11 C 0.2036(5) 0.2114(10) 0.5900(2)
C14 C 0.2275(4) 0.2624(9) 0.6557(2)
O1 O 0.5124(3) 0.4755(7) 0.25221(16)
O3 O 0.0054(3) 0.1958(7) 0.37124(15)
O5 O 0.2371(3) 0.4768(7) 0.67265(16)
O6 O 0.2406(3) 0.0850(7) 0.69066(16)
S1 S 0.10323(11) 0.0364(2) 0.39414(5)
Ca1 Ca 0.63720(8) 0.74331(17) 0.22117(4)
O8 O 0.4946(3) 0.6958(7) 0.12876(15)
O10 O 0.7594(3) 0.9150(7) 0.30934(16)
O11 O 0.7406(3) 0.4150(7) 0.19066(16)
Ca4 Ca 0.36280(8) 0.25669(17) 0.77883(4)
Ca6 Ca 0.13720(8) 0.75669(17) 0.72117(4)
C6 C 0.3109(5) 0.9413(10) 0.3603(2)
H3 H 0.3110 0.7958 0.3820
C7 C 0.4002(5) 0.9912(10) 0.3293(2)
H4 H 0.4609 0.8777 0.3286
C12 C 0.2367(5) 0.9905(10) 0.5693(2)
H7 H 0.2775 0.8759 0.5962
C13 C 0.2095(5) 0.9398(10) 0.5088(2)
H8 H 0.2317 0.7910 0.4939
O4 O 0.0866(3) 0.7796(7) 0.39054(16)
Ca3 Ca 0.86280(8) 0.24331(17) 0.27883(4)
H1_2 H 0.1858 0.0287 0.2196
H6_2 H 0.3702 0.0361 0.9348
C1_2 C 0.0068(5) 0.7586(9) 0.2380(2)
C2_2 C 0.1002(5) 0.7111(10) 0.2009(2)
C3_2 C 0.1879(5) 0.8789(10) 0.1999(2)
C4_2 C 0.2792(5) 0.8282(11) 0.1701(2)
H2_2 H 0.3403 0.9413 0.1696
C5_2 C 0.2791(5) 0.6096(10) 0.1411(2)
C6_2 C 0.1891(5) 0.4413(10) 0.1397(2)
H3_2 H 0.1890 0.2958 0.1180
C7_2 C 0.0998(5) 0.4912(10) 0.1707(2)
H4_2 H 0.0391 0.3777 0.1714
C8_2 C 0.3510(4) 0.6119(10) 0.0298(2)
C9_2 C 0.3806(5) 0.8340(10) 0.0099(2)
H5_2 H 0.4197 0.9502 0.0370
H8_2 H 0.2683 0.2910 0.0061
O4_2 O 0.4134(3) 0.2796(7) 0.10946(16)
S1_2 S 0.39677(11) 0.5364(2) 0.10586(5)
C10_2 C 0.3518(5) 0.8837(10) 0.9492(2)
C11_2 C 0.2964(5) 0.7114(10) 0.9100(2)
C12_2 C 0.2633(5) 0.4905(10) 0.9307(2)
H7_2 H 0.2225 0.3759 0.9038
C13_2 C 0.2905(5) 0.4398(10) 0.9912(2)
C14_2 C 0.2725(4) 0.7624(9) 0.8443(2)
O5_2 O 0.2629(3) 0.9768(7) 0.82735(16)
O6_2 O 0.2594(3) 0.5850(7) 0.80934(16)
O7_2 O 0.9591(3) 0.5808(7) 0.25628(16)
O9_2 O 0.7629(3) 0.5232(7) 0.32735(16)
O1_2 O 0.9876(3) 0.9755(7) 0.24779(16)
C6_3 C 0.6891(5) 0.0587(10) 0.6397(2)
H3_3 H 0.6890 0.2042 0.6180
C7_3 C 0.5998(5) 0.0088(10) 0.6707(2)
H4_3 H 0.5391 0.1223 0.6714
C12_3 C 0.7633(5) 0.0095(10) 0.4307(2)
H7_3 H 0.7225 0.1241 0.4038
C13_3 C 0.7905(5) 0.0602(10) 0.4912(2)
H8_3 H 0.7683 0.2090 0.5061
O4_3 O 0.9134(3) 0.2204(7) 0.60946(16)
C1_3 C 0.5068(5) 0.7414(9) 0.7380(2)
C2_3 C 0.6002(5) 0.7889(10) 0.7009(2)
C3_3 C 0.6879(5) 0.6211(10) 0.6999(2)
H1_3 H 0.6858 0.4713 0.7196
C4_3 C 0.7792(5) 0.6718(11) 0.6701(2)
H2_3 H 0.8403 0.5587 0.6696
C5_3 C 0.7791(5) 0.8904(10) 0.6411(2)
C8_3 C 0.8510(4) 0.8881(10) 0.5298(2)
C9_3 C 0.8806(5) 0.6660(10) 0.5099(2)
H5_3 H 0.9197 0.5498 0.5370
C10_3 C 0.8518(5) 0.6163(10) 0.4492(2)
H6_3 H 0.8702 0.4639 0.4348
C11_3 C 0.7964(5) 0.7886(10) 0.4100(2)
C14_3 C 0.7725(4) 0.7376(9) 0.3443(2)
O1_3 O 0.4876(3) 0.5245(7) 0.74779(16)
O2 O 0.4591(3) 0.9192(7) 0.75628(16)
O3_2 O 0.9946(3) 0.8042(7) 0.62876(15)
S1_3 S 0.89677(11) 0.9636(2) 0.60586(5)
O8_2 O 0.5054(3) 0.3042(7) 0.87124(15)
O1_4 O 0.0124(3) 0.0245(7) 0.75221(16)
O2_2 O 0.0409(3) 0.4192(7) 0.74372(16)
C10_4 C 0.6482(5) 0.1163(10) 0.0508(2)
C11_4 C 0.7036(5) 0.2886(10) 0.0900(2)
C12_4 C 0.7367(5) 0.5095(10) 0.0693(2)
H7_4 H 0.7775 0.6241 0.0962
C13_4 C 0.7095(5) 0.5602(10) 0.0088(2)
C14_4 C 0.7275(4) 0.2376(9) 0.1557(2)
C1_4 C 0.9932(5) 0.2414(9) 0.7620(2)
C2_4 C 0.8998(5) 0.2889(10) 0.7991(2)
C3_4 C 0.8121(5) 0.1211(10) 0.8001(2)
C4_4 C 0.7208(5) 0.1718(11) 0.8299(2)
H2_4 H 0.6597 0.0587 0.8304
C5_4 C 0.7209(5) 0.3904(10) 0.8589(2)
C6_4 C 0.8109(5) 0.5587(10) 0.8603(2)
H3_4 H 0.8110 0.7042 0.8820
C7_4 C 0.9002(5) 0.5088(10) 0.8293(2)
H4_4 H 0.9609 0.6223 0.8286
C8_4 C 0.6490(4) 0.3881(10) 0.9702(2)
C9_4 C 0.6194(5) 0.1660(10) 0.9901(2)
H5_4 H 0.5803 0.0498 0.9630
H8_4 H 0.7317 0.7090 0.9939
O4_4 O 0.5866(3) 0.7204(7) 0.89054(16)
S1_4 S 0.60323(11) 0.4636(2) 0.89414(5)
H6_4 H 0.6298 0.9639 0.0652
H1_4 H 0.8142 0.9713 0.7804
loop_
_geom_bond_atom_site_label_1
_geom_bond_atom_site_label_2
_geom_bond_site_symmetry_1
_geom_bond_site_symmetry_2
C1 C2 1_555 1_555
C2 C3 1_555 1_555
C3 H1 1_555 1_555
C4 C3 1_555 1_555
H2 C4 1_555 1_555
C5 C4 1_555 1_555
C8 C9 1_555 1_555
C9 H5 1_555 1_555
C10 C9 1_555 1_555
H6 C10 1_555 1_555
C11 C10 1_555 1_555
C14 C11 1_555 1_555
O1 C1 1_555 1_555
O7 C1 1_555 1_555
O3 S1 1_555 1_555
O5 C14 1_555 1_555
O6 C14 1_555 1_555
S1 C5 1_555 1_555
Ca1 O1 1_555 1_555
O8 Ca1 1_555 1_555
O10 Ca1 1_555 1_555
O11 Ca1 1_555 1_555
Ca4 O6 1_555 1_555
Ca6 O5 1_555 1_555
C8 S1 1_555 1_555
H3 C6 1_555 1_555
H4 C7 1_555 1_555
H7 C12 1_555 1_555
H8 C13 1_555 1_555
C6 C7 1_555 1_555
C12 C13 1_555 1_555
C1_2 C2_2 1_555 1_555
C2_2 C3_2 1_555 1_555
C4_2 C3_2 1_555 1_555
H2_2 C4_2 1_555 1_555
C5_2 C4_2 1_555 1_555
C6_2 C5_2 1_555 1_555
H3_2 C6_2 1_555 1_555
C7_2 C2_2 1_555 1_555
H4_2 C7_2 1_555 1_555
C8_2 C9_2 1_555 1_555
C9_2 H5_2 1_555 1_555
O8 S1_2 1_555 1_555
O4_2 S1_2 1_555 1_555
S1_2 C5_2 1_555 1_555
C6_2 C7_2 1_555 1_555
C8_2 S1_2 1_555 1_555
C11_2 C10_2 1_555 1_555
C12_2 C11_2 1_555 1_555
H7_2 C12_2 1_555 1_555
C14_2 C11_2 1_555 1_555
O5_2 C14_2 1_555 1_555
O6_2 C14_2 1_555 1_555
Ca6 O6_2 1_555 1_555
Ca4 O6_2 1_555 1_555
C12_2 C13_2 1_555 1_555
O7_2 Ca3 1_555 1_555
O9_2 Ca3 1_555 1_555
O11 Ca3 1_555 1_555
H3_3 C6_3 1_555 1_555
H4_3 C7_3 1_555 1_555
H7_3 C12_3 1_555 1_555
H8_3 C13_3 1_555 1_555
C6_3 C7_3 1_555 1_555
C12_3 C13_3 1_555 1_555
C1_3 C2_3 1_555 1_555
C2_3 C3_3 1_555 1_555
C3_3 H1_3 1_555 1_555
C4_3 C3_3 1_555 1_555
H2_3 C4_3 1_555 1_555
C5_3 C4_3 1_555 1_555
C8_3 C9_3 1_555 1_555
C9_3 H5_3 1_555 1_555
C10_3 C9_3 1_555 1_555
H6_3 C10_3 1_555 1_555
C11_3 C10_3 1_555 1_555
C14_3 C11_3 1_555 1_555
O1_3 C1_3 1_555 1_555
O2 C1_3 1_555 1_555
O3_2 S1_3 1_555 1_555
O9_2 C14_3 1_555 1_555
O10 C14_3 1_555 1_555
S1_3 C5_3 1_555 1_555
Ca4 O1_3 1_555 1_555
O8_2 Ca4 1_555 1_555
C8_3 S1_3 1_555 1_555
Ca6 O2_2 1_555 1_555
C11_4 C10_4 1_555 1_555
C12_4 C11_4 1_555 1_555
H7_4 C12_4 1_555 1_555
C14_4 C11_4 1_555 1_555
O9 C14_4 1_555 1_555
O11 C14_4 1_555 1_555
C12_4 C13_4 1_555 1_555
C1_4 C2_4 1_555 1_555
C2_4 C3_4 1_555 1_555
C4_4 C3_4 1_555 1_555
H2_4 C4_4 1_555 1_555
C5_4 C4_4 1_555 1_555
C6_4 C5_4 1_555 1_555
H3_4 C6_4 1_555 1_555
C7_4 C2_4 1_555 1_555
H4_4 C7_4 1_555 1_555
C8_4 C9_4 1_555 1_555
C9_4 H5_4 1_555 1_555
O8_2 S1_4 1_555 1_555
O4_4 S1_4 1_555 1_555
S1_4 C5_4 1_555 1_555
C6_4 C7_4 1_555 1_555
C8_4 S1_4 1_555 1_555

#END
