
###############################################################################
#
# This file contains modified crystal structure data generated from the
# MOF subset of the Cambridge Structural Database (CSD) v543 
# hosted by the Cambridge Crystallographic Data Centre (CCDC).
#
# This work is licensed under the Creative Commons
# Attribution-NonCommercial-ShareAlike 4.0 International License.
# To view a copy of this license, visit
# http://creativecommons.org/licenses/by-nc-sa/4.0/
# or send a letter to
# Creative Commons, PO Box 1866, Mountain View, CA 94042, USA.
#
# CIF created using the CSD Python API on 29 September 2022
# The structure has been converted into the P1 space group
# The structure has a 3D framework
# The original CSD entry UQEFAZ is in the monoclinic crystal system
# The framework has been calculated to contain at least 10.0% void space
# The void calculation uses a probe of radius 1.32A, grid spacing 0.4
#
###############################################################################

data_UQEFAZ
_chemical_formula_moiety         '(C56 H32 Ca4 O24 S4)n'
_symmetry_cell_setting           triclinic
_symmetry_space_group_name_H-M   'P 1'
_symmetry_Int_Tables_number      1
_space_group_name_Hall           'P 1'
loop_
_symmetry_equiv_pos_site_id
_symmetry_equiv_pos_as_xyz
1 x,y,z
_cell_length_a                   11.8819(3)
_cell_length_b                   5.55550(10)
_cell_length_c                   22.6411(5)
_cell_angle_alpha                90
_cell_angle_beta                 101.302(2)
_cell_angle_gamma                90
_cell_volume                     1465.55
loop_
_atom_site_label
_atom_site_type_symbol
_atom_site_fract_x
_atom_site_fract_y
_atom_site_fract_z
Ca2 Ca 0.10216(3) 0.73476(6) 0.042089(14)
H3 H 0.3269 0.0144 0.2676
H8 H 0.6582 0.0306 0.0316
Ca4 Ca 0.39784(3) 0.23476(6) 0.457911(14)
O11 O 0.10628(11) 0.0661(2) 0.10080(6)
Ca6 Ca 0.89784(3) 0.26524(6) 0.957911(14)
O10 O 0.13211(11) 0.0162(2) 0.97037(5)
S1 S 0.39234(3) 0.52469(7) 0.104576(17)
O1 O 0.90738(10) 0.5927(2) 0.02680(5)
O2 O 0.38235(11) 0.9616(2) 0.38006(6)
O3 O 0.37900(11) 0.2674(2) 0.09805(6)
O4 O 0.86789(11) 0.9838(2) 0.02963(5)
O5 O 0.30944(10) 0.6829(2) 0.06774(5)
O6 O 0.39372(11) 0.5661(2) 0.39920(6)
C1 C 0.39875(14) 0.6964(3) 0.30054(7)
C2 C 0.39781(14) 0.5978(3) 0.18083(7)
C3 C 0.52786(14) 0.6015(3) 0.08913(7)
C4 C 0.73430(14) 0.7087(3) 0.05665(7)
C5 C 0.44349(15) 0.4792(3) 0.28465(7)
H1 H 0.4733 0.3648 0.3149
C6 C 0.84398(13) 0.7668(3) 0.03573(7)
C7 C 0.71987(14) 0.4872(3) 0.08301(8)
H2 H 0.7806 0.3731 0.0894
C8 C 0.35538(14) 0.8650(3) 0.25628(7)
C9 C 0.39155(14) 0.7457(3) 0.36557(7)
C10 C 0.61600(14) 0.4334(3) 0.09995(8)
H4 H 0.6057 0.2840 0.1186
C11 C 0.44452(15) 0.4302(3) 0.22446(8)
H5 H 0.4766 0.2844 0.2133
C12 C 0.54223(14) 0.8261(3) 0.06440(8)
H6 H 0.4820 0.9414 0.0586
C13 C 0.35342(14) 0.8167(3) 0.19571(7)
H7 H 0.3227 0.9300 0.1654
C14 C 0.64667(14) 0.8779(3) 0.04840(8)
O9 O 0.11765(11) 0.4616(2) 0.11994(6)
O8 O 0.09262(10) 0.4073(2) 0.97320(5)
S1_2 S 0.10766(3) 0.02469(7) 0.395424(17)
O5_2 O 0.19056(10) 0.1829(2) 0.43226(5)
C1_2 C 0.10125(14) 0.1964(3) 0.19946(7)
C2_2 C 0.10219(14) 0.0978(3) 0.31917(7)
C8_2 C 0.14462(14) 0.3650(3) 0.24372(7)
H3_2 H 0.1731 0.5144 0.2324
C9_2 C 0.10845(14) 0.2457(3) 0.13443(7)
H6_2 H 0.0180 0.4414 0.4414
C13_2 C 0.14658(14) 0.3167(3) 0.30429(7)
H7_2 H 0.1773 0.4300 0.3346
O7 O 0.59262(10) 0.0927(2) 0.47320(5)
O10_2 O 0.36789(11) 0.5162(2) 0.52963(5)
O3_2 O 0.12100(11) 0.7674(2) 0.40195(6)
C5_2 C 0.05651(15) 0.9792(3) 0.21535(7)
H1_2 H 0.0267 0.8648 0.1851
C11_2 C 0.05548(15) 0.9302(3) 0.27554(8)
H5_2 H 0.0234 0.7844 0.2867
O8_2 O 0.40738(10) 0.9073(2) 0.52680(5)
O4_2 O 0.63211(11) 0.4838(2) 0.47037(5)
C3_2 C 0.97214(14) 0.1015(3) 0.41087(7)
C4_2 C 0.76570(14) 0.2087(3) 0.44335(7)
C6_2 C 0.65602(13) 0.2668(3) 0.46427(7)
C12_2 C 0.95777(14) 0.3261(3) 0.43560(8)
C14_2 C 0.85333(14) 0.3779(3) 0.45160(8)
H8_2 H 0.8418 0.5306 0.4684
Ca6_2 Ca 0.60216(3) 0.76524(6) 0.542089(14)
C7_2 C 0.78013(14) 0.9872(3) 0.41699(8)
H2_2 H 0.7194 0.8731 0.4106
C10_2 C 0.88400(14) 0.9334(3) 0.40005(8)
H4_2 H 0.8943 0.7840 0.3814
S1_3 S 0.60766(3) 0.47531(7) 0.895424(17)
O2_2 O 0.61765(11) 0.0384(2) 0.61994(6)
O3_3 O 0.62100(11) 0.7326(2) 0.90195(6)
O5_3 O 0.69056(10) 0.3171(2) 0.93226(5)
O6_2 O 0.60628(11) 0.4339(2) 0.60080(6)
C1_3 C 0.60125(14) 0.3036(3) 0.69946(7)
C2_3 C 0.60219(14) 0.4022(3) 0.81917(7)
C3_3 C 0.47214(14) 0.3985(3) 0.91087(7)
C4_3 C 0.26570(14) 0.2913(3) 0.94335(7)
C5_3 C 0.55651(15) 0.5208(3) 0.71535(7)
H1_3 H 0.5267 0.6352 0.6851
C6_3 C 0.15602(13) 0.2332(3) 0.96427(7)
C7_3 C 0.28013(14) 0.5128(3) 0.91699(8)
H2_3 H 0.2194 0.6269 0.9106
C8_3 C 0.64462(14) 0.1350(3) 0.74372(7)
C9_3 C 0.60845(14) 0.2543(3) 0.63443(7)
C10_3 C 0.38400(14) 0.5666(3) 0.90005(8)
H4_3 H 0.3943 0.7160 0.8814
C11_3 C 0.55548(15) 0.5698(3) 0.77554(8)
H5_3 H 0.5234 0.7156 0.7867
C12_3 C 0.45777(14) 0.1739(3) 0.93560(8)
H6_3 H 0.5180 0.0586 0.9414
C13_3 C 0.64658(14) 0.1833(3) 0.80429(7)
H7_3 H 0.6773 0.0700 0.8346
C14_3 C 0.35333(14) 0.1221(3) 0.95160(8)
O9_2 O 0.88235(11) 0.5384(2) 0.88006(6)
H3_3 H 0.6731 0.9856 0.7324
H8_3 H 0.3418 0.9694 0.9684
O11_2 O 0.89372(11) 0.9339(2) 0.89920(6)
C7_4 C 0.21987(14) 0.0128(3) 0.58301(8)
H2_4 H 0.2806 0.1269 0.5894
C10_4 C 0.11600(14) 0.0666(3) 0.59995(8)
H4_4 H 0.1057 0.2160 0.6186
C3_4 C 0.02786(14) 0.8985(3) 0.58913(7)
C4_4 C 0.23430(14) 0.7913(3) 0.55665(7)
C6_4 C 0.34398(13) 0.7332(3) 0.53573(7)
C12_4 C 0.04223(14) 0.6739(3) 0.56440(8)
C14_4 C 0.14667(14) 0.6221(3) 0.54840(8)
H8_4 H 0.1582 0.4694 0.5316
O3_4 O 0.87900(11) 0.2326(2) 0.59805(6)
C5_4 C 0.94349(15) 0.0208(3) 0.78465(7)
H1_4 H 0.9733 0.1352 0.8149
C11_4 C 0.94452(15) 0.0698(3) 0.72446(8)
H5_4 H 0.9766 0.2156 0.7133
S1_4 S 0.89234(3) 0.97531(7) 0.604576(17)
O5_4 O 0.80944(10) 0.8171(2) 0.56774(5)
C1_4 C 0.89875(14) 0.8036(3) 0.80054(7)
C2_4 C 0.89781(14) 0.9022(3) 0.68083(7)
C8_4 C 0.85538(14) 0.6350(3) 0.75628(7)
H3_4 H 0.8269 0.4856 0.7676
C9_4 C 0.89155(14) 0.7543(3) 0.86557(7)
H6_4 H 0.9820 0.5586 0.5586
C13_4 C 0.85342(14) 0.6833(3) 0.69571(7)
H7_4 H 0.8227 0.5700 0.6654
loop_
_geom_bond_atom_site_label_1
_geom_bond_atom_site_label_2
_geom_bond_site_symmetry_1
_geom_bond_site_symmetry_2
Ca2 O5 1_555 1_555
S1 O3 1_555 1_555
O1 C6 1_555 1_555
O2 C9 1_555 1_555
O4 C6 1_555 1_555
O5 S1 1_555 1_555
O6 C9 1_555 1_555
C1 C5 1_555 1_555
C2 S1 1_555 1_555
C3 S1 1_555 1_555
C4 C6 1_555 1_555
C5 H1 1_555 1_555
C7 C4 1_555 1_555
H2 C7 1_555 1_555
C8 C1 1_555 1_555
C9 C1 1_555 1_555
C10 C3 1_555 1_555
H4 C10 1_555 1_555
C11 C2 1_555 1_555
H5 C11 1_555 1_555
C12 C3 1_555 1_555
H6 C12 1_555 1_555
C13 C2 1_555 1_555
H7 C13 1_555 1_555
C14 C4 1_555 1_555
Ca4 O6 1_555 1_555
O9 Ca2 1_555 1_555
C5 C11 1_555 1_555
C7 C10 1_555 1_555
C8 C13 1_555 1_555
C12 C14 1_555 1_555
Ca4 O5_2 1_555 1_555
O9 C9_2 1_555 1_555
O5_2 S1_2 1_555 1_555
O11 C9_2 1_555 1_555
C2_2 S1_2 1_555 1_555
C8_2 C1_2 1_555 1_555
H3_2 C8_2 1_555 1_555
C9_2 C1_2 1_555 1_555
C13_2 C2_2 1_555 1_555
H7_2 C13_2 1_555 1_555
O7 Ca4 1_555 1_555
O10_2 Ca4 1_555 1_555
C8_2 C13_2 1_555 1_555
C5_2 H1_2 1_555 1_555
H5_2 C11_2 1_555 1_555
C5_2 C11_2 1_555 1_555
O7 C6_2 1_555 1_555
O4_2 C6_2 1_555 1_555
C4_2 C6_2 1_555 1_555
C12_2 C3_2 1_555 1_555
C14_2 C4_2 1_555 1_555
H8_2 C14_2 1_555 1_555
Ca6_2 O4_2 1_555 1_555
C12_2 C14_2 1_555 1_555
H2_2 C7_2 1_555 1_555
H4_2 C10_2 1_555 1_555
C7_2 C10_2 1_555 1_555
Ca6 O5_3 1_555 1_555
S1_3 O3_3 1_555 1_555
O8 C6_3 1_555 1_555
O2_2 C9_3 1_555 1_555
O10 C6_3 1_555 1_555
O5_3 S1_3 1_555 1_555
O6_2 C9_3 1_555 1_555
C1_3 C5_3 1_555 1_555
C2_3 S1_3 1_555 1_555
C3_3 S1_3 1_555 1_555
C4_3 C6_3 1_555 1_555
C5_3 H1_3 1_555 1_555
C7_3 C4_3 1_555 1_555
H2_3 C7_3 1_555 1_555
C8_3 C1_3 1_555 1_555
C9_3 C1_3 1_555 1_555
C10_3 C3_3 1_555 1_555
H4_3 C10_3 1_555 1_555
C11_3 C2_3 1_555 1_555
H5_3 C11_3 1_555 1_555
C12_3 C3_3 1_555 1_555
H6_3 C12_3 1_555 1_555
C13_3 C2_3 1_555 1_555
H7_3 C13_3 1_555 1_555
C14_3 C4_3 1_555 1_555
Ca6_2 O6_2 1_555 1_555
O9_2 Ca6 1_555 1_555
C5_3 C11_3 1_555 1_555
C7_3 C10_3 1_555 1_555
C8_3 C13_3 1_555 1_555
C12_3 C14_3 1_555 1_555
H2_4 C7_4 1_555 1_555
H4_4 C10_4 1_555 1_555
C7_4 C10_4 1_555 1_555
O8_2 C6_4 1_555 1_555
O10_2 C6_4 1_555 1_555
C4_4 C6_4 1_555 1_555
C12_4 C3_4 1_555 1_555
C14_4 C4_4 1_555 1_555
H8_4 C14_4 1_555 1_555
Ca6_2 O8_2 1_555 1_555
C12_4 C14_4 1_555 1_555
C5_4 H1_4 1_555 1_555
H5_4 C11_4 1_555 1_555
C5_4 C11_4 1_555 1_555
Ca6_2 O5_4 1_555 1_555
O9_2 C9_4 1_555 1_555
O5_4 S1_4 1_555 1_555
O11_2 C9_4 1_555 1_555
C2_4 S1_4 1_555 1_555
C8_4 C1_4 1_555 1_555
H3_4 C8_4 1_555 1_555
C9_4 C1_4 1_555 1_555
C13_4 C2_4 1_555 1_555
H7_4 C13_4 1_555 1_555
C8_4 C13_4 1_555 1_555

#END
