
###############################################################################
#
# This file contains modified crystal structure data generated from the
# MOF subset of the Cambridge Structural Database (CSD) v543 
# hosted by the Cambridge Crystallographic Data Centre (CCDC).
#
# This work is licensed under the Creative Commons
# Attribution-NonCommercial-ShareAlike 4.0 International License.
# To view a copy of this license, visit
# http://creativecommons.org/licenses/by-nc-sa/4.0/
# or send a letter to
# Creative Commons, PO Box 1866, Mountain View, CA 94042, USA.
#
# CIF created using the CSD Python API on 29 September 2022
# The structure has been converted into the P1 space group
# The structure has a 3D framework
# The original CSD entry UQENIP is in the monoclinic crystal system
# The framework has been calculated to contain at least 10.0% void space
# The void calculation uses a probe of radius 1.32A, grid spacing 0.4
#
###############################################################################

data_UQENIP
_chemical_formula_moiety         '(C224 H160 N48 O29 Zn8)n'
_symmetry_cell_setting           triclinic
_symmetry_space_group_name_H-M   'P 1'
_symmetry_Int_Tables_number      1
_space_group_name_Hall           'P 1'
loop_
_symmetry_equiv_pos_site_id
_symmetry_equiv_pos_as_xyz
1 x,y,z
_cell_length_a                   24.534(6)
_cell_length_b                   13.873(4)
_cell_length_c                   24.267(7)
_cell_angle_alpha                90
_cell_angle_beta                 102.558(5)
_cell_angle_gamma                90
_cell_volume                     8061.92
loop_
_atom_site_label
_atom_site_type_symbol
_atom_site_fract_x
_atom_site_fract_y
_atom_site_fract_z
C15 C 0.05448(9) 0.05203(16) 0.09233(10)
H13 H 0.0818 0.0995 0.1009
C23 C 0.19245(8) 0.07164(17) 0.10559(10)
C24 C 0.21548(8) 0.14909(15) 0.07261(9)
C25 C 0.22019(8) 0.13338(15) 0.01830(9)
H18 H 0.2092 0.0743 0.0014
O4 O 0.18870(8) 0.09143(14) 0.15421(8)
C38 C 0.25847(8) 0.29472(14) 0.01299(9)
C39 C 0.25302(10) 0.30982(17) 0.06931(10)
H25 H 0.2635 0.3687 0.0867
C40 C 0.23246(10) 0.23880(17) 0.09848(10)
H26 H 0.2297 0.2497 0.1356
N9 N 0.28181(6) 0.30203(12) 0.40194(7)
N10 N 0.21615(7) 0.19278(12) 0.40033(7)
C43 C 0.18681(8) 0.05111(15) 0.34167(8)
H28 H 0.2091 0.0700 0.3171
C44 C 0.18465(8) 0.10545(14) 0.38886(8)
C45 C 0.15218(8) 0.07644(15) 0.42632(8)
H29 H 0.1521 0.1124 0.4586
H30 H 0.1594 0.0064 0.2212
C50 C 0.26521(8) 0.21485(15) 0.38613(9)
H33 H 0.2847 0.1730 0.3674
C51 C 0.24187(9) 0.33757(17) 0.42831(10)
H34 H 0.2426 0.3987 0.4442
C52 C 0.20179(9) 0.27196(17) 0.42790(10)
H35 H 0.1704 0.2787 0.4433
C56 C 0.00056(9) 0.06879(17) 0.42691(10)
H40 H 0.0179 0.1285 0.4340
Zn4 Zn 0.356515(9) 0.379264(16) 0.390926(9)
C26 C 0.24153(8) 0.20528(14) 0.98701(9)
C27 C 0.24698(10) 0.19018(17) 0.93069(10)
H19 H 0.2365 0.1313 0.9133
C28 C 0.26754(10) 0.26120(17) 0.90152(10)
H20 H 0.2703 0.2503 0.8644
C35 C 0.30755(8) 0.42836(17) 0.89441(10)
C36 C 0.28452(8) 0.35091(15) 0.92739(9)
C37 C 0.27981(8) 0.36662(15) 0.98170(9)
H24 H 0.2908 0.4257 0.9986
O7 O 0.32274(5) 0.50441(10) 0.92057(6)
O8 O 0.31130(8) 0.40857(14) 0.84579(8)
Zn6 Zn 0.356515(9) 0.620736(16) 0.890926(9)
Zn1 Zn 0.143485(9) 0.879264(16) 0.109074(9)
N5 N 0.06412(7) 0.95501(12) 0.09738(7)
C14 C 0.01499(8) 0.91511(16) 0.08114(9)
H12 H 0.0089 0.8489 0.0801
C17 C 0.08848(8) 0.74152(15) 0.04277(10)
C18 C 0.05389(8) 0.65629(14) 0.01820(9)
C19 C 0.03982(9) 0.58684(16) 0.05216(9)
H15 H 0.0512 0.5935 0.0911
C20 C 0.00817(8) 0.50407(15) 0.02972(8)
H16 H 0.0039 0.4376 0.1034
O1 O 0.10183(6) 0.80155(11) 0.00988(6)
O2 O 0.10077(5) 0.74973(10) 0.09598(6)
O3 O 0.17726(5) 0.99559(10) 0.07943(6)
N7 N 0.15780(6) 0.86921(12) 0.19599(7)
N8 N 0.15711(7) 0.90968(12) 0.28360(7)
N12 N 0.02567(6) 0.98105(12) 0.43392(7)
C41 C 0.12147(8) 0.93933(15) 0.36793(8)
H27 H 0.1000 0.8837 0.3603
C42 C 0.15517(8) 0.96818(15) 0.33171(8)
C46 C 0.11994(8) 0.99356(15) 0.41525(8)
C47 C 0.15834(8) 0.94178(16) 0.23106(8)
C48 C 0.15649(10) 0.78733(16) 0.22737(9)
H31 H 0.1558 0.7248 0.2135
C49 C 0.15629(10) 0.81052(16) 0.28078(9)
H32 H 0.1557 0.7680 0.3103
C53 C 0.08510(8) 0.96220(17) 0.45597(9)
H36 H 0.0906 0.8938 0.4634
H37 H 0.0974 0.9963 0.4914
N13 N 0.21819(6) 0.80203(12) 0.09806(7)
C33 C 0.00669(10) 0.56802(17) 0.93565(9)
C34 C 0.03658(9) 0.64627(16) 0.95908(9)
H23 H 0.0457 0.6939 0.9357
N3 N 0.71819(6) 0.30203(12) 0.09806(7)
N4 N 0.78385(7) 0.19278(12) 0.09967(7)
C3 C 0.81319(8) 0.05111(15) 0.15833(8)
H2 H 0.7909 0.0700 0.1829
C4 C 0.81535(8) 0.10545(14) 0.11114(8)
C5 C 0.84782(8) 0.07644(15) 0.07368(8)
H3 H 0.8479 0.1124 0.0414
H4 H 0.8406 0.0064 0.2788
C10 C 0.73479(8) 0.21485(15) 0.11387(9)
H7 H 0.7153 0.1730 0.1326
C11 C 0.75813(9) 0.33757(17) 0.07169(10)
H8 H 0.7574 0.3987 0.0558
C12 C 0.79821(9) 0.27196(17) 0.07210(10)
H9 H 0.8296 0.2787 0.0567
C16 C 0.99944(9) 0.06879(17) 0.07309(10)
H14 H 0.9821 0.1285 0.0660
C55 C 0.94552(9) 0.05203(16) 0.40767(10)
H39 H 0.9182 0.0995 0.3991
Zn3 Zn 0.643485(9) 0.379264(16) 0.109074(9)
N1 N 0.84220(6) 0.86921(12) 0.30401(7)
N2 N 0.84289(7) 0.90968(12) 0.21640(7)
N6 N 0.97433(6) 0.98105(12) 0.06608(7)
C1 C 0.87853(8) 0.93933(15) 0.13207(8)
H1 H 0.9000 0.8837 0.1397
C2 C 0.84483(8) 0.96818(15) 0.16829(8)
C6 C 0.88006(8) 0.99356(15) 0.08475(8)
C7 C 0.84166(8) 0.94178(16) 0.26894(8)
C8 C 0.84351(10) 0.78733(16) 0.27263(9)
H5 H 0.8442 0.7248 0.2865
C9 C 0.84371(10) 0.81052(16) 0.21922(9)
H6 H 0.8443 0.7680 0.1897
C13 C 0.91490(8) 0.96220(17) 0.04403(9)
H10 H 0.9094 0.8938 0.0366
H11 H 0.9026 0.9963 0.0086
C21 C 0.99331(10) 0.43198(17) 0.06435(9)
C22 C 0.96342(9) 0.35373(16) 0.04092(9)
H17 H 0.9543 0.3061 0.0643
Zn2 Zn 0.856515(9) 0.879264(16) 0.390926(9)
N11 N 0.93588(7) 0.95501(12) 0.40262(7)
C54 C 0.98501(8) 0.91511(16) 0.41886(9)
H38 H 0.9911 0.8489 0.4199
N14 N 0.78181(6) 0.80203(12) 0.40194(7)
O9 O 0.89923(5) 0.74973(10) 0.40402(6)
O10 O 0.82274(5) 0.99559(10) 0.42057(6)
C29 C 0.91152(8) 0.25848(15) 0.95723(10)
C30 C 0.94611(8) 0.34371(14) 0.98180(9)
C31 C 0.96018(9) 0.41316(16) 0.94784(9)
H21 H 0.9488 0.4065 0.9089
C32 C 0.99183(8) 0.49593(15) 0.97028(8)
H22 H 0.9961 0.5624 0.8966
O5 O 0.89817(6) 0.19845(11) 0.99012(6)
O6 O 0.89923(5) 0.25027(10) 0.90402(6)
Zn5 Zn 0.856515(9) 0.120736(16) 0.890926(9)
C21_2 C 0.00669(10) 0.43198(17) 0.43565(9)
C22_2 C 0.03658(9) 0.35373(16) 0.45908(9)
H17_2 H 0.0457 0.3061 0.4357
C29_2 C 0.08848(8) 0.25848(15) 0.54277(10)
C30_2 C 0.05389(8) 0.34371(14) 0.51820(9)
C31_2 C 0.03982(9) 0.41316(16) 0.55216(9)
H21_2 H 0.0512 0.4065 0.5911
C32_2 C 0.00817(8) 0.49593(15) 0.52972(8)
H22_2 H 0.0039 0.5624 0.6034
O5_2 O 0.10183(6) 0.19845(11) 0.50988(6)
O6_2 O 0.10077(5) 0.25027(10) 0.59598(6)
Zn5_2 Zn 0.143485(9) 0.120736(16) 0.609074(9)
C23_2 C 0.80755(8) 0.07164(17) 0.39441(10)
C24_2 C 0.78452(8) 0.14909(15) 0.42739(9)
C25_2 C 0.77981(8) 0.13338(15) 0.48170(9)
H18_2 H 0.7908 0.0743 0.4986
C26_2 C 0.75847(8) 0.20528(14) 0.51299(9)
C27_2 C 0.75302(10) 0.19018(17) 0.56931(10)
H19_2 H 0.7635 0.1313 0.5867
C28_2 C 0.73246(10) 0.26120(17) 0.59848(10)
H20_2 H 0.7297 0.2503 0.6356
O4_2 O 0.81130(8) 0.09143(14) 0.34579(8)
C35_2 C 0.69245(8) 0.42836(17) 0.60559(10)
C36_2 C 0.71548(8) 0.35091(15) 0.57261(9)
C37_2 C 0.72019(8) 0.36662(15) 0.51830(9)
H24_2 H 0.7092 0.4257 0.5014
C38_2 C 0.74153(8) 0.29472(14) 0.48701(9)
C39_2 C 0.74698(10) 0.30982(17) 0.43069(10)
H25_2 H 0.7365 0.3687 0.4133
C40_2 C 0.76754(10) 0.23880(17) 0.40152(10)
H26_2 H 0.7703 0.2497 0.3644
O7_2 O 0.67726(5) 0.50441(10) 0.57943(6)
O8_2 O 0.68870(8) 0.40857(14) 0.65421(8)
Zn6_2 Zn 0.643485(9) 0.620736(16) 0.609074(9)
C17_2 C 0.91152(8) 0.74152(15) 0.45723(10)
C18_2 C 0.94611(8) 0.65629(14) 0.48180(9)
C19_2 C 0.96018(9) 0.58684(16) 0.44784(9)
H15_2 H 0.9488 0.5935 0.4089
C20_2 C 0.99183(8) 0.50407(15) 0.47028(8)
H16_2 H 0.9961 0.4376 0.3966
O1_2 O 0.89817(6) 0.80155(11) 0.49012(6)
C33_2 C 0.99331(10) 0.56802(17) 0.56435(9)
C34_2 C 0.96342(9) 0.64627(16) 0.54092(9)
H23_2 H 0.9543 0.6939 0.5643
O7_3 O 0.82274(5) 0.00441(10) 0.92057(6)
N1_2 N 0.34220(6) 0.36921(12) 0.30401(7)
N2_2 N 0.34289(7) 0.40968(12) 0.21640(7)
N4_2 N 0.28385(7) 0.69278(12) 0.09967(7)
N5_2 N 0.56412(7) 0.45501(12) 0.09738(7)
N6_2 N 0.47433(6) 0.48105(12) 0.06608(7)
C1_2 C 0.37853(8) 0.43933(15) 0.13207(8)
H1_2 H 0.4000 0.3837 0.1397
C2_2 C 0.34483(8) 0.46818(15) 0.16829(8)
C3_2 C 0.31319(8) 0.55111(15) 0.15833(8)
H2_2 H 0.2909 0.5700 0.1829
C4_2 C 0.31535(8) 0.60545(14) 0.11114(8)
C5_2 C 0.34782(8) 0.57644(15) 0.07368(8)
H3_2 H 0.3479 0.6124 0.0414
C6_2 C 0.38006(8) 0.49356(15) 0.08475(8)
C7_2 C 0.34166(8) 0.44178(16) 0.26894(8)
H4_2 H 0.3406 0.5064 0.2788
C8_2 C 0.34351(10) 0.28733(16) 0.27263(9)
H5_2 H 0.3442 0.2248 0.2865
C9_2 C 0.34371(10) 0.31052(16) 0.21922(9)
H6_2 H 0.3443 0.2680 0.1897
C10_2 C 0.23479(8) 0.71485(15) 0.11387(9)
H7_2 H 0.2153 0.6730 0.1326
C11_2 C 0.25813(9) 0.83757(17) 0.07169(10)
H8_2 H 0.2574 0.8987 0.0558
C12_2 C 0.29821(9) 0.77196(17) 0.07210(10)
H9_2 H 0.3296 0.7787 0.0567
C13_2 C 0.41490(8) 0.46220(17) 0.04403(9)
H10_2 H 0.4094 0.3938 0.0366
H11_2 H 0.4026 0.4963 0.0086
C14_2 C 0.51499(8) 0.41511(16) 0.08114(9)
H12_2 H 0.5089 0.3489 0.0801
C15_2 C 0.55448(9) 0.55203(16) 0.09233(10)
H13_2 H 0.5818 0.5995 0.1009
C16_2 C 0.49944(9) 0.56879(17) 0.07309(10)
H14_2 H 0.4821 0.6285 0.0660
C17_3 C 0.58848(8) 0.24152(15) 0.04277(10)
C18_3 C 0.55389(8) 0.15629(14) 0.01820(9)
C19_3 C 0.53982(9) 0.08684(16) 0.05216(9)
H15_3 H 0.5512 0.0935 0.0911
C20_3 C 0.50817(8) 0.00407(15) 0.02972(8)
C23_3 C 0.69245(8) 0.57164(17) 0.10559(10)
C24_3 C 0.71548(8) 0.64909(15) 0.07261(9)
C25_3 C 0.72019(8) 0.63338(15) 0.01830(9)
H18_3 H 0.7092 0.5743 0.0014
O1_3 O 0.60183(6) 0.30155(11) 0.00988(6)
O2_2 O 0.60077(5) 0.24973(10) 0.09598(6)
O3_2 O 0.67726(5) 0.49559(10) 0.07943(6)
O4_3 O 0.68870(8) 0.59143(14) 0.15421(8)
C38_3 C 0.75847(8) 0.79472(14) 0.01299(9)
C39_3 C 0.75302(10) 0.80982(17) 0.06931(10)
H25_3 H 0.7635 0.8687 0.0867
C40_3 C 0.73246(10) 0.73880(17) 0.09848(10)
H26_3 H 0.7297 0.7497 0.1356
N7_2 N 0.65780(6) 0.36921(12) 0.19599(7)
N8_2 N 0.65711(7) 0.40968(12) 0.28360(7)
N10_2 N 0.71615(7) 0.69278(12) 0.40033(7)
N11_2 N 0.43588(7) 0.45501(12) 0.40262(7)
N12_2 N 0.52567(6) 0.48105(12) 0.43392(7)
C41_2 C 0.62147(8) 0.43933(15) 0.36793(8)
H27_2 H 0.6000 0.3837 0.3603
C42_2 C 0.65517(8) 0.46818(15) 0.33171(8)
C43_2 C 0.68681(8) 0.55111(15) 0.34167(8)
H28_2 H 0.7091 0.5700 0.3171
C44_2 C 0.68465(8) 0.60545(14) 0.38886(8)
C45_2 C 0.65218(8) 0.57644(15) 0.42632(8)
H29_2 H 0.6521 0.6124 0.4586
C46_2 C 0.61994(8) 0.49356(15) 0.41525(8)
C47_2 C 0.65834(8) 0.44178(16) 0.23106(8)
H30_2 H 0.6594 0.5064 0.2212
C48_2 C 0.65649(10) 0.28733(16) 0.22737(9)
H31_2 H 0.6558 0.2248 0.2135
C49_2 C 0.65629(10) 0.31052(16) 0.28078(9)
H32_2 H 0.6557 0.2680 0.3103
C50_2 C 0.76521(8) 0.71485(15) 0.38613(9)
H33_2 H 0.7847 0.6730 0.3674
C51_2 C 0.74187(9) 0.83757(17) 0.42831(10)
H34_2 H 0.7426 0.8987 0.4442
C52_2 C 0.70179(9) 0.77196(17) 0.42790(10)
H35_2 H 0.6704 0.7787 0.4433
C53_2 C 0.58510(8) 0.46220(17) 0.45597(9)
H36_2 H 0.5906 0.3938 0.4634
H37_2 H 0.5974 0.4963 0.4914
C54_2 C 0.48501(8) 0.41511(16) 0.41886(9)
H38_2 H 0.4911 0.3489 0.4199
C55_2 C 0.44552(9) 0.55203(16) 0.40767(10)
H39_2 H 0.4182 0.5995 0.3991
C56_2 C 0.50056(9) 0.56879(17) 0.42691(10)
H40_2 H 0.5179 0.6285 0.4340
O9_2 O 0.39923(5) 0.24973(10) 0.40402(6)
O10_2 O 0.32274(5) 0.49559(10) 0.42057(6)
C26_3 C 0.74153(8) 0.70528(14) 0.98701(9)
C27_3 C 0.74698(10) 0.69018(17) 0.93069(10)
H19_3 H 0.7365 0.6313 0.9133
C28_3 C 0.76754(10) 0.76120(17) 0.90152(10)
H20_3 H 0.7703 0.7503 0.8644
C33_3 C 0.50669(10) 0.06802(17) 0.93565(9)
H22_3 H 0.4961 0.0624 0.8966
C34_3 C 0.53658(9) 0.14627(16) 0.95908(9)
H23_3 H 0.5457 0.1939 0.9357
C35_3 C 0.80755(8) 0.92836(17) 0.89441(10)
C36_3 C 0.78452(8) 0.85091(15) 0.92739(9)
C37_3 C 0.77981(8) 0.86662(15) 0.98170(9)
H24_3 H 0.7908 0.9257 0.9986
O8_3 O 0.81130(8) 0.90857(14) 0.84579(8)
C21_3 C 0.49331(10) 0.93198(17) 0.06435(9)
H16_3 H 0.5039 0.9376 0.1034
C22_3 C 0.46342(9) 0.85373(16) 0.04092(9)
H17_3 H 0.4543 0.8061 0.0643
C29_3 C 0.41152(8) 0.75848(15) 0.95723(10)
C30_3 C 0.44611(8) 0.84371(14) 0.98180(9)
C31_3 C 0.46018(9) 0.91316(16) 0.94784(9)
H21_3 H 0.4488 0.9065 0.9089
C32_3 C 0.49183(8) 0.99593(15) 0.97028(8)
O5_3 O 0.39817(6) 0.69845(11) 0.99012(6)
O6_3 O 0.39923(5) 0.75027(10) 0.90402(6)
O7_4 O 0.17726(5) 0.00441(10) 0.57943(6)
C17_4 C 0.41152(8) 0.24152(15) 0.45723(10)
C18_4 C 0.44611(8) 0.15629(14) 0.48180(9)
C19_4 C 0.46018(9) 0.08684(16) 0.44784(9)
H15_4 H 0.4488 0.0935 0.4089
C20_4 C 0.49183(8) 0.00407(15) 0.47028(8)
C23_4 C 0.30755(8) 0.57164(17) 0.39441(10)
C24_4 C 0.28452(8) 0.64909(15) 0.42739(9)
C25_4 C 0.27981(8) 0.63338(15) 0.48170(9)
H18_4 H 0.2908 0.5743 0.4986
C26_4 C 0.25847(8) 0.70528(14) 0.51299(9)
C27_4 C 0.25302(10) 0.69018(17) 0.56931(10)
H19_4 H 0.2635 0.6313 0.5867
C28_4 C 0.23246(10) 0.76120(17) 0.59848(10)
H20_4 H 0.2297 0.7503 0.6356
O1_4 O 0.39817(6) 0.30155(11) 0.49012(6)
O4_4 O 0.31130(8) 0.59143(14) 0.34579(8)
C33_4 C 0.49331(10) 0.06802(17) 0.56435(9)
H22_4 H 0.5039 0.0624 0.6034
C34_4 C 0.46342(9) 0.14627(16) 0.54092(9)
H23_4 H 0.4543 0.1939 0.5643
C35_4 C 0.19245(8) 0.92836(17) 0.60559(10)
C36_4 C 0.21548(8) 0.85091(15) 0.57261(9)
C37_4 C 0.22019(8) 0.86662(15) 0.51830(9)
H24_4 H 0.2092 0.9257 0.5014
C38_4 C 0.24153(8) 0.79472(14) 0.48701(9)
C39_4 C 0.24698(10) 0.80982(17) 0.43069(10)
H25_4 H 0.2365 0.8687 0.4133
C40_4 C 0.26754(10) 0.73880(17) 0.40152(10)
H26_4 H 0.2703 0.7497 0.3644
O8_4 O 0.18870(8) 0.90857(14) 0.65421(8)
C21_4 C 0.50669(10) 0.93198(17) 0.43565(9)
H16_4 H 0.4961 0.9376 0.3966
C22_4 C 0.53658(9) 0.85373(16) 0.45908(9)
H17_4 H 0.5457 0.8061 0.4357
C29_4 C 0.58848(8) 0.75848(15) 0.54277(10)
C30_4 C 0.55389(8) 0.84371(14) 0.51820(9)
C31_4 C 0.53982(9) 0.91316(16) 0.55216(9)
H21_4 H 0.5512 0.9065 0.5911
C32_4 C 0.50817(8) 0.99593(15) 0.52972(8)
O5_4 O 0.60183(6) 0.69845(11) 0.50988(6)
O6_4 O 0.60077(5) 0.75027(10) 0.59598(6)
N1_3 N 0.15780(6) 0.13079(12) 0.69599(7)
N2_3 N 0.15711(7) 0.09032(12) 0.78360(7)
N6_3 N 0.02567(6) 0.01895(12) 0.93392(7)
C1_3 C 0.12147(8) 0.06067(15) 0.86793(8)
H1_3 H 0.1000 0.1163 0.8603
C2_3 C 0.15517(8) 0.03182(15) 0.83171(8)
C6_3 C 0.11994(8) 0.00644(15) 0.91525(8)
C7_3 C 0.15834(8) 0.05822(16) 0.73106(8)
C8_3 C 0.15649(10) 0.21267(16) 0.72737(9)
H5_3 H 0.1558 0.2752 0.7135
C9_3 C 0.15629(10) 0.18948(16) 0.78078(9)
H6_3 H 0.1557 0.2320 0.8103
C13_3 C 0.08510(8) 0.03780(17) 0.95597(9)
H10_3 H 0.0906 0.1062 0.9634
H11_3 H 0.0974 0.0037 0.9914
N11_3 N 0.06412(7) 0.04499(12) 0.59738(7)
C54_3 C 0.01499(8) 0.08489(16) 0.58114(9)
H38_3 H 0.0089 0.1511 0.5801
N14_2 N 0.21819(6) 0.19797(12) 0.59806(7)
N3_2 N 0.28181(6) 0.69797(12) 0.90194(7)
N4_3 N 0.21615(7) 0.80722(12) 0.90033(7)
C3_3 C 0.18681(8) 0.94889(15) 0.84167(8)
H2_3 H 0.2091 0.9300 0.8171
C4_3 C 0.18465(8) 0.89455(14) 0.88886(8)
C5_3 C 0.15218(8) 0.92356(15) 0.92632(8)
H3_3 H 0.1521 0.8876 0.9586
H4_3 H 0.1594 0.9936 0.7212
C10_3 C 0.26521(8) 0.78515(15) 0.88613(9)
H7_3 H 0.2847 0.8270 0.8674
C11_3 C 0.24187(9) 0.66243(17) 0.92831(10)
H8_3 H 0.2426 0.6013 0.9442
C12_3 C 0.20179(9) 0.72804(17) 0.92790(10)
H9_3 H 0.1704 0.7213 0.9433
C16_3 C 0.00056(9) 0.93121(17) 0.92691(10)
H14_3 H 0.0179 0.8715 0.9340
C55_3 C 0.05448(9) 0.94797(16) 0.59233(10)
H39_3 H 0.0818 0.9005 0.6009
N5_3 N 0.93588(7) 0.04499(12) 0.90262(7)
C14_3 C 0.98501(8) 0.08489(16) 0.91886(9)
H12_3 H 0.9911 0.1511 0.9199
N7_3 N 0.84220(6) 0.13079(12) 0.80401(7)
N8_3 N 0.84289(7) 0.09032(12) 0.71640(7)
N12_3 N 0.97433(6) 0.01895(12) 0.56608(7)
C41_3 C 0.87853(8) 0.06067(15) 0.63207(8)
H27_3 H 0.9000 0.1163 0.6397
C42_3 C 0.84483(8) 0.03182(15) 0.66829(8)
C46_3 C 0.88006(8) 0.00644(15) 0.58475(8)
C47_3 C 0.84166(8) 0.05822(16) 0.76894(8)
C48_3 C 0.84351(10) 0.21267(16) 0.77263(9)
H31_3 H 0.8442 0.2752 0.7865
C49_3 C 0.84371(10) 0.18948(16) 0.71922(9)
H32_3 H 0.8443 0.2320 0.6897
C53_3 C 0.91490(8) 0.03780(17) 0.54403(9)
H36_3 H 0.9094 0.1062 0.5366
H37_3 H 0.9026 0.0037 0.5086
N13_2 N 0.78181(6) 0.19797(12) 0.90194(7)
C15_3 C 0.94552(9) 0.94797(16) 0.90767(10)
H13_3 H 0.9182 0.9005 0.8991
N9_2 N 0.71819(6) 0.69797(12) 0.59806(7)
N10_3 N 0.78385(7) 0.80722(12) 0.59967(7)
C43_3 C 0.81319(8) 0.94889(15) 0.65833(8)
H28_3 H 0.7909 0.9300 0.6829
C44_3 C 0.81535(8) 0.89455(14) 0.61114(8)
C45_3 C 0.84782(8) 0.92356(15) 0.57368(8)
H29_3 H 0.8479 0.8876 0.5414
H30_3 H 0.8406 0.9936 0.7788
C50_3 C 0.73479(8) 0.78515(15) 0.61387(9)
H33_3 H 0.7153 0.8270 0.6326
C51_3 C 0.75813(9) 0.66243(17) 0.57169(10)
H34_3 H 0.7574 0.6013 0.5558
C52_3 C 0.79821(9) 0.72804(17) 0.57210(10)
H35_3 H 0.8296 0.7213 0.5567
C56_3 C 0.99944(9) 0.93121(17) 0.57309(10)
H40_3 H 0.9821 0.8715 0.5660
N1_4 N 0.65780(6) 0.63079(12) 0.69599(7)
N2_4 N 0.65711(7) 0.59032(12) 0.78360(7)
N4_4 N 0.71615(7) 0.30722(12) 0.90033(7)
N5_4 N 0.43588(7) 0.54499(12) 0.90262(7)
N6_4 N 0.52567(6) 0.51895(12) 0.93392(7)
C1_4 C 0.62147(8) 0.56067(15) 0.86793(8)
H1_4 H 0.6000 0.6163 0.8603
C2_4 C 0.65517(8) 0.53182(15) 0.83171(8)
C3_4 C 0.68681(8) 0.44889(15) 0.84167(8)
H2_4 H 0.7091 0.4300 0.8171
C4_4 C 0.68465(8) 0.39455(14) 0.88886(8)
C5_4 C 0.65218(8) 0.42356(15) 0.92632(8)
H3_4 H 0.6521 0.3876 0.9586
C6_4 C 0.61994(8) 0.50644(15) 0.91525(8)
C7_4 C 0.65834(8) 0.55822(16) 0.73106(8)
H4_4 H 0.6594 0.4936 0.7212
C8_4 C 0.65649(10) 0.71267(16) 0.72737(9)
H5_4 H 0.6558 0.7752 0.7135
C9_4 C 0.65629(10) 0.68948(16) 0.78078(9)
H6_4 H 0.6557 0.7320 0.8103
C10_4 C 0.76521(8) 0.28515(15) 0.88613(9)
H7_4 H 0.7847 0.3270 0.8674
C11_4 C 0.74187(9) 0.16243(17) 0.92831(10)
H8_4 H 0.7426 0.1013 0.9442
C12_4 C 0.70179(9) 0.22804(17) 0.92790(10)
H9_4 H 0.6704 0.2213 0.9433
C13_4 C 0.58510(8) 0.53780(17) 0.95597(9)
H10_4 H 0.5906 0.6062 0.9634
H11_4 H 0.5974 0.5037 0.9914
C14_4 C 0.48501(8) 0.58489(16) 0.91886(9)
H12_4 H 0.4911 0.6511 0.9199
C15_4 C 0.44552(9) 0.44797(16) 0.90767(10)
H13_4 H 0.4182 0.4005 0.8991
C16_4 C 0.50056(9) 0.43121(17) 0.92691(10)
H14_4 H 0.5179 0.3715 0.9340
N7_4 N 0.34220(6) 0.63079(12) 0.80401(7)
N8_4 N 0.34289(7) 0.59032(12) 0.71640(7)
N10_4 N 0.28385(7) 0.30722(12) 0.59967(7)
N11_4 N 0.56412(7) 0.54499(12) 0.59738(7)
N12_4 N 0.47433(6) 0.51895(12) 0.56608(7)
C41_4 C 0.37853(8) 0.56067(15) 0.63207(8)
H27_4 H 0.4000 0.6163 0.6397
C42_4 C 0.34483(8) 0.53182(15) 0.66829(8)
C43_4 C 0.31319(8) 0.44889(15) 0.65833(8)
H28_4 H 0.2909 0.4300 0.6829
C44_4 C 0.31535(8) 0.39455(14) 0.61114(8)
C45_4 C 0.34782(8) 0.42356(15) 0.57368(8)
H29_4 H 0.3479 0.3876 0.5414
C46_4 C 0.38006(8) 0.50644(15) 0.58475(8)
C47_4 C 0.34166(8) 0.55822(16) 0.76894(8)
H30_4 H 0.3406 0.4936 0.7788
C48_4 C 0.34351(10) 0.71267(16) 0.77263(9)
H31_4 H 0.3442 0.7752 0.7865
C49_4 C 0.34371(10) 0.68948(16) 0.71922(9)
H32_4 H 0.3443 0.7320 0.6897
C50_4 C 0.23479(8) 0.28515(15) 0.61387(9)
H33_4 H 0.2153 0.3270 0.6326
C51_4 C 0.25813(9) 0.16243(17) 0.57169(10)
H34_4 H 0.2574 0.1013 0.5558
C52_4 C 0.29821(9) 0.22804(17) 0.57210(10)
H35_4 H 0.3296 0.2213 0.5567
C53_4 C 0.41490(8) 0.53780(17) 0.54403(9)
H36_4 H 0.4094 0.6062 0.5366
H37_4 H 0.4026 0.5037 0.5086
C54_4 C 0.51499(8) 0.58489(16) 0.58114(9)
H38_4 H 0.5089 0.6511 0.5801
C55_4 C 0.55448(9) 0.44797(16) 0.59233(10)
H39_4 H 0.5818 0.4005 0.6009
C56_4 C 0.49944(9) 0.43121(17) 0.57309(10)
H40_4 H 0.4821 0.3715 0.5660
loop_
_geom_bond_atom_site_label_1
_geom_bond_atom_site_label_2
_geom_bond_site_symmetry_1
_geom_bond_site_symmetry_2
H13 C15 1_555 1_555
C23 C24 1_555 1_555
C24 C25 1_555 1_555
C25 H18 1_555 1_555
O4 C23 1_555 1_555
C39 C38 1_555 1_555
H25 C39 1_555 1_555
C40 C24 1_555 1_555
H26 C40 1_555 1_555
N9 C50 1_555 1_555
N10 C44 1_555 1_555
H28 C43 1_555 1_555
C44 C43 1_555 1_555
C45 C44 1_555 1_555
H29 C45 1_555 1_555
C50 N10 1_555 1_555
H33 C50 1_555 1_555
C51 N9 1_555 1_555
H34 C51 1_555 1_555
C52 N10 1_555 1_555
H35 C52 1_555 1_555
H40 C56 1_555 1_555
Zn4 N9 1_555 1_555
C39 C40 1_555 1_555
C51 C52 1_555 1_555
C27 C26 1_555 1_555
H19 C27 1_555 1_555
C28 C27 1_555 1_555
H20 C28 1_555 1_555
C35 C36 1_555 1_555
C36 C28 1_555 1_555
C37 C36 1_555 1_555
H24 C37 1_555 1_555
O7 C35 1_555 1_555
O8 C35 1_555 1_555
Zn6 O7 1_555 1_555
Zn1 N5 1_555 1_555
N5 C14 1_555 1_555
H12 C14 1_555 1_555
C17 C18 1_555 1_555
C18 C19 1_555 1_555
C19 H15 1_555 1_555
C20 C19 1_555 1_555
O1 C17 1_555 1_555
O2 Zn1 1_555 1_555
O3 Zn1 1_555 1_555
N7 Zn1 1_555 1_555
N8 C42 1_555 1_555
N12 C53 1_555 1_555
C41 H27 1_555 1_555
C42 C41 1_555 1_555
C46 C41 1_555 1_555
C47 N7 1_555 1_555
C48 N7 1_555 1_555
H31 C48 1_555 1_555
C49 N8 1_555 1_555
H32 C49 1_555 1_555
C53 C46 1_555 1_555
H36 C53 1_555 1_555
H37 C53 1_555 1_555
N13 Zn1 1_555 1_555
C17 O2 1_555 1_555
N8 C47 1_555 1_555
C48 C49 1_555 1_555
H23 C34 1_555 1_555
C33 C34 1_555 1_555
N3 C10 1_555 1_555
N4 C4 1_555 1_555
H2 C3 1_555 1_555
C4 C3 1_555 1_555
C5 C4 1_555 1_555
H3 C5 1_555 1_555
C10 N4 1_555 1_555
H7 C10 1_555 1_555
C11 N3 1_555 1_555
H8 C11 1_555 1_555
C12 N4 1_555 1_555
H9 C12 1_555 1_555
H14 C16 1_555 1_555
H39 C55 1_555 1_555
Zn3 N3 1_555 1_555
C11 C12 1_555 1_555
N1 C7 1_555 1_555
N2 C2 1_555 1_555
N6 C13 1_555 1_555
C1 H1 1_555 1_555
C2 C1 1_555 1_555
C6 C1 1_555 1_555
C7 N2 1_555 1_555
C8 N1 1_555 1_555
H5 C8 1_555 1_555
C9 N2 1_555 1_555
H6 C9 1_555 1_555
C13 C6 1_555 1_555
H10 C13 1_555 1_555
H11 C13 1_555 1_555
C22 C21 1_555 1_555
H17 C22 1_555 1_555
Zn2 N1 1_555 1_555
N11 Zn2 1_555 1_555
C54 N11 1_555 1_555
H38 C54 1_555 1_555
N14 Zn2 1_555 1_555
O9 Zn2 1_555 1_555
O10 Zn2 1_555 1_555
C8 C9 1_555 1_555
C29 C30 1_555 1_555
C31 C30 1_555 1_555
H21 C31 1_555 1_555
O5 C29 1_555 1_555
O6 C29 1_555 1_555
Zn5 O6 1_555 1_555
C31 C32 1_555 1_555
C22_2 C21_2 1_555 1_555
H17_2 C22_2 1_555 1_555
C29_2 C30_2 1_555 1_555
C30_2 C22_2 1_555 1_555
C31_2 C30_2 1_555 1_555
H21_2 C31_2 1_555 1_555
O5_2 C29_2 1_555 1_555
O6_2 C29_2 1_555 1_555
Zn5_2 O6_2 1_555 1_555
C31_2 C32_2 1_555 1_555
C23_2 C24_2 1_555 1_555
C24_2 C25_2 1_555 1_555
C25_2 H18_2 1_555 1_555
C26_2 C25_2 1_555 1_555
C27_2 C26_2 1_555 1_555
H19_2 C27_2 1_555 1_555
C28_2 C27_2 1_555 1_555
H20_2 C28_2 1_555 1_555
O4_2 C23_2 1_555 1_555
C35_2 C36_2 1_555 1_555
C36_2 C28_2 1_555 1_555
C37_2 C36_2 1_555 1_555
H24_2 C37_2 1_555 1_555
C38_2 C26_2 1_555 1_555
C39_2 C38_2 1_555 1_555
H25_2 C39_2 1_555 1_555
C40_2 C24_2 1_555 1_555
H26_2 C40_2 1_555 1_555
O7_2 C35_2 1_555 1_555
O8_2 C35_2 1_555 1_555
Zn6_2 O7_2 1_555 1_555
C37_2 C38_2 1_555 1_555
C39_2 C40_2 1_555 1_555
C17_2 C18_2 1_555 1_555
C18_2 C19_2 1_555 1_555
C19_2 H15_2 1_555 1_555
C20_2 C19_2 1_555 1_555
O1_2 C17_2 1_555 1_555
C34_2 C18_2 1_555 1_555
H23_2 C34_2 1_555 1_555
C17_2 O9 1_555 1_555
C33_2 C34_2 1_555 1_555
Zn5 O7_3 1_555 1_555
Zn3 N5_2 1_555 1_555
N1_2 C7_2 1_555 1_555
N2_2 C2_2 1_555 1_555
N13 C10_2 1_555 1_555
N4_2 C4_2 1_555 1_555
N5_2 C14_2 1_555 1_555
N6_2 C13_2 1_555 1_555
C1_2 H1_2 1_555 1_555
C2_2 C1_2 1_555 1_555
C3_2 C2_2 1_555 1_555
H2_2 C3_2 1_555 1_555
C4_2 C3_2 1_555 1_555
C5_2 C4_2 1_555 1_555
H3_2 C5_2 1_555 1_555
C6_2 C1_2 1_555 1_555
C7_2 N2_2 1_555 1_555
H4_2 C7_2 1_555 1_555
C8_2 N1_2 1_555 1_555
H5_2 C8_2 1_555 1_555
C9_2 N2_2 1_555 1_555
H6_2 C9_2 1_555 1_555
C10_2 N4_2 1_555 1_555
H7_2 C10_2 1_555 1_555
C11_2 N13 1_555 1_555
H8_2 C11_2 1_555 1_555
C12_2 N4_2 1_555 1_555
H9_2 C12_2 1_555 1_555
C13_2 C6_2 1_555 1_555
H10_2 C13_2 1_555 1_555
H11_2 C13_2 1_555 1_555
C14_2 N6_2 1_555 1_555
H12_2 C14_2 1_555 1_555
C15_2 N5_2 1_555 1_555
H13_2 C15_2 1_555 1_555
C16_2 N6_2 1_555 1_555
H14_2 C16_2 1_555 1_555
C17_3 C18_3 1_555 1_555
C18_3 C19_3 1_555 1_555
C19_3 H15_3 1_555 1_555
C20_3 C19_3 1_555 1_555
C23_3 C24_3 1_555 1_555
C24_3 C25_3 1_555 1_555
C25_3 H18_3 1_555 1_555
O1_3 C17_3 1_555 1_555
O2_2 Zn3 1_555 1_555
O3_2 Zn3 1_555 1_555
O4_3 C23_3 1_555 1_555
C39_3 C38_3 1_555 1_555
H25_3 C39_3 1_555 1_555
C40_3 C24_3 1_555 1_555
H26_3 C40_3 1_555 1_555
Zn4 N1_2 1_555 1_555
N7_2 Zn3 1_555 1_555
N8_2 C42_2 1_555 1_555
N14 C50_2 1_555 1_555
N10_2 C44_2 1_555 1_555
N11_2 Zn4 1_555 1_555
N12_2 C53_2 1_555 1_555
C41_2 H27_2 1_555 1_555
C42_2 C41_2 1_555 1_555
C43_2 C42_2 1_555 1_555
H28_2 C43_2 1_555 1_555
C44_2 C43_2 1_555 1_555
C45_2 C44_2 1_555 1_555
H29_2 C45_2 1_555 1_555
C46_2 C41_2 1_555 1_555
C47_2 N7_2 1_555 1_555
H30_2 C47_2 1_555 1_555
C48_2 N7_2 1_555 1_555
H31_2 C48_2 1_555 1_555
C49_2 N8_2 1_555 1_555
H32_2 C49_2 1_555 1_555
C50_2 N10_2 1_555 1_555
H33_2 C50_2 1_555 1_555
C51_2 N14 1_555 1_555
H34_2 C51_2 1_555 1_555
C52_2 N10_2 1_555 1_555
H35_2 C52_2 1_555 1_555
C53_2 C46_2 1_555 1_555
H36_2 C53_2 1_555 1_555
H37_2 C53_2 1_555 1_555
C54_2 N11_2 1_555 1_555
H38_2 C54_2 1_555 1_555
C55_2 N11_2 1_555 1_555
H39_2 C55_2 1_555 1_555
C56_2 N12_2 1_555 1_555
H40_2 C56_2 1_555 1_555
O9_2 Zn4 1_555 1_555
O10_2 Zn4 1_555 1_555
C5_2 C6_2 1_555 1_555
C8_2 C9_2 1_555 1_555
C11_2 C12_2 1_555 1_555
C15_2 C16_2 1_555 1_555
C17_3 O2_2 1_555 1_555
C23_3 O3_2 1_555 1_555
C39_3 C40_3 1_555 1_555
N8_2 C47_2 1_555 1_555
N12_2 C54_2 1_555 1_555
C45_2 C46_2 1_555 1_555
C48_2 C49_2 1_555 1_555
C51_2 C52_2 1_555 1_555
C55_2 C56_2 1_555 1_555
C27_3 C26_3 1_555 1_555
H19_3 C27_3 1_555 1_555
C28_3 C27_3 1_555 1_555
H20_3 C28_3 1_555 1_555
H22_3 C33_3 1_555 1_555
H23_3 C34_3 1_555 1_555
C35_3 C36_3 1_555 1_555
C36_3 C28_3 1_555 1_555
C37_3 C36_3 1_555 1_555
H24_3 C37_3 1_555 1_555
O8_3 C35_3 1_555 1_555
C33_3 C34_3 1_555 1_555
H16_3 C21_3 1_555 1_555
C22_3 C21_3 1_555 1_555
H17_3 C22_3 1_555 1_555
C29_3 C30_3 1_555 1_555
C31_3 C30_3 1_555 1_555
H21_3 C31_3 1_555 1_555
O5_3 C29_3 1_555 1_555
O6_3 C29_3 1_555 1_555
Zn6 O6_3 1_555 1_555
C31_3 C32_3 1_555 1_555
Zn5_2 O7_4 1_555 1_555
C17_4 C18_4 1_555 1_555
C18_4 C19_4 1_555 1_555
C19_4 H15_4 1_555 1_555
C20_4 C19_4 1_555 1_555
C23_4 C24_4 1_555 1_555
C24_4 C25_4 1_555 1_555
C25_4 H18_4 1_555 1_555
C26_4 C25_4 1_555 1_555
C27_4 C26_4 1_555 1_555
H19_4 C27_4 1_555 1_555
C28_4 C27_4 1_555 1_555
H20_4 C28_4 1_555 1_555
O1_4 C17_4 1_555 1_555
O4_4 C23_4 1_555 1_555
H22_4 C33_4 1_555 1_555
C34_4 C18_4 1_555 1_555
H23_4 C34_4 1_555 1_555
C35_4 C36_4 1_555 1_555
C36_4 C28_4 1_555 1_555
C37_4 C36_4 1_555 1_555
H24_4 C37_4 1_555 1_555
C38_4 C26_4 1_555 1_555
C39_4 C38_4 1_555 1_555
H25_4 C39_4 1_555 1_555
C40_4 C24_4 1_555 1_555
H26_4 C40_4 1_555 1_555
O8_4 C35_4 1_555 1_555
C17_4 O9_2 1_555 1_555
C23_4 O10_2 1_555 1_555
C33_4 C34_4 1_555 1_555
C37_4 C38_4 1_555 1_555
C39_4 C40_4 1_555 1_555
H16_4 C21_4 1_555 1_555
C22_4 C21_4 1_555 1_555
H17_4 C22_4 1_555 1_555
C29_4 C30_4 1_555 1_555
C30_4 C22_4 1_555 1_555
C31_4 C30_4 1_555 1_555
H21_4 C31_4 1_555 1_555
O5_4 C29_4 1_555 1_555
O6_4 C29_4 1_555 1_555
Zn6_2 O6_4 1_555 1_555
C31_4 C32_4 1_555 1_555
N1_3 C7_3 1_555 1_555
N2_3 C2_3 1_555 1_555
N6_3 C13_3 1_555 1_555
C1_3 H1_3 1_555 1_555
C2_3 C1_3 1_555 1_555
C6_3 C1_3 1_555 1_555
C7_3 N2_3 1_555 1_555
C8_3 N1_3 1_555 1_555
H5_3 C8_3 1_555 1_555
C9_3 N2_3 1_555 1_555
H6_3 C9_3 1_555 1_555
C13_3 C6_3 1_555 1_555
H10_3 C13_3 1_555 1_555
H11_3 C13_3 1_555 1_555
Zn5_2 N1_3 1_555 1_555
N11_3 Zn5_2 1_555 1_555
C54_3 N11_3 1_555 1_555
H38_3 C54_3 1_555 1_555
N14_2 Zn5_2 1_555 1_555
C8_3 C9_3 1_555 1_555
N3_2 C10_3 1_555 1_555
N4_3 C4_3 1_555 1_555
H2_3 C3_3 1_555 1_555
C4_3 C3_3 1_555 1_555
C5_3 C4_3 1_555 1_555
H3_3 C5_3 1_555 1_555
C10_3 N4_3 1_555 1_555
H7_3 C10_3 1_555 1_555
C11_3 N3_2 1_555 1_555
H8_3 C11_3 1_555 1_555
C12_3 N4_3 1_555 1_555
H9_3 C12_3 1_555 1_555
H14_3 C16_3 1_555 1_555
H39_3 C55_3 1_555 1_555
Zn6 N3_2 1_555 1_555
C11_3 C12_3 1_555 1_555
Zn5 N5_3 1_555 1_555
N5_3 C14_3 1_555 1_555
H12_3 C14_3 1_555 1_555
N7_3 Zn5 1_555 1_555
N8_3 C42_3 1_555 1_555
N12_3 C53_3 1_555 1_555
C41_3 H27_3 1_555 1_555
C42_3 C41_3 1_555 1_555
C46_3 C41_3 1_555 1_555
C47_3 N7_3 1_555 1_555
C48_3 N7_3 1_555 1_555
H31_3 C48_3 1_555 1_555
C49_3 N8_3 1_555 1_555
H32_3 C49_3 1_555 1_555
C53_3 C46_3 1_555 1_555
H36_3 C53_3 1_555 1_555
H37_3 C53_3 1_555 1_555
N13_2 Zn5 1_555 1_555
N8_3 C47_3 1_555 1_555
C48_3 C49_3 1_555 1_555
H13_3 C15_3 1_555 1_555
N9_2 C50_3 1_555 1_555
N10_3 C44_3 1_555 1_555
H28_3 C43_3 1_555 1_555
C44_3 C43_3 1_555 1_555
C45_3 C44_3 1_555 1_555
H29_3 C45_3 1_555 1_555
C50_3 N10_3 1_555 1_555
H33_3 C50_3 1_555 1_555
C51_3 N9_2 1_555 1_555
H34_3 C51_3 1_555 1_555
C52_3 N10_3 1_555 1_555
H35_3 C52_3 1_555 1_555
H40_3 C56_3 1_555 1_555
Zn6_2 N9_2 1_555 1_555
C51_3 C52_3 1_555 1_555
Zn6 N5_4 1_555 1_555
N1_4 C7_4 1_555 1_555
N2_4 C2_4 1_555 1_555
N13_2 C10_4 1_555 1_555
N4_4 C4_4 1_555 1_555
N5_4 C14_4 1_555 1_555
N6_4 C13_4 1_555 1_555
C1_4 H1_4 1_555 1_555
C2_4 C1_4 1_555 1_555
C3_4 C2_4 1_555 1_555
H2_4 C3_4 1_555 1_555
C4_4 C3_4 1_555 1_555
C5_4 C4_4 1_555 1_555
H3_4 C5_4 1_555 1_555
C6_4 C1_4 1_555 1_555
C7_4 N2_4 1_555 1_555
H4_4 C7_4 1_555 1_555
C8_4 N1_4 1_555 1_555
H5_4 C8_4 1_555 1_555
C9_4 N2_4 1_555 1_555
H6_4 C9_4 1_555 1_555
C10_4 N4_4 1_555 1_555
H7_4 C10_4 1_555 1_555
C11_4 N13_2 1_555 1_555
H8_4 C11_4 1_555 1_555
C12_4 N4_4 1_555 1_555
H9_4 C12_4 1_555 1_555
C13_4 C6_4 1_555 1_555
H10_4 C13_4 1_555 1_555
H11_4 C13_4 1_555 1_555
C14_4 N6_4 1_555 1_555
H12_4 C14_4 1_555 1_555
C15_4 N5_4 1_555 1_555
H13_4 C15_4 1_555 1_555
C16_4 N6_4 1_555 1_555
H14_4 C16_4 1_555 1_555
Zn6_2 N1_4 1_555 1_555
N7_4 Zn6 1_555 1_555
N8_4 C42_4 1_555 1_555
N14_2 C50_4 1_555 1_555
N10_4 C44_4 1_555 1_555
N11_4 Zn6_2 1_555 1_555
N12_4 C53_4 1_555 1_555
C41_4 H27_4 1_555 1_555
C42_4 C41_4 1_555 1_555
C43_4 C42_4 1_555 1_555
H28_4 C43_4 1_555 1_555
C44_4 C43_4 1_555 1_555
C45_4 C44_4 1_555 1_555
H29_4 C45_4 1_555 1_555
C46_4 C41_4 1_555 1_555
C47_4 N7_4 1_555 1_555
H30_4 C47_4 1_555 1_555
C48_4 N7_4 1_555 1_555
H31_4 C48_4 1_555 1_555
C49_4 N8_4 1_555 1_555
H32_4 C49_4 1_555 1_555
C50_4 N10_4 1_555 1_555
H33_4 C50_4 1_555 1_555
C51_4 N14_2 1_555 1_555
H34_4 C51_4 1_555 1_555
C52_4 N10_4 1_555 1_555
H35_4 C52_4 1_555 1_555
C53_4 C46_4 1_555 1_555
H36_4 C53_4 1_555 1_555
H37_4 C53_4 1_555 1_555
C54_4 N11_4 1_555 1_555
H38_4 C54_4 1_555 1_555
C55_4 N11_4 1_555 1_555
H39_4 C55_4 1_555 1_555
C56_4 N12_4 1_555 1_555
H40_4 C56_4 1_555 1_555
C5_4 C6_4 1_555 1_555
C8_4 C9_4 1_555 1_555
C11_4 C12_4 1_555 1_555
C15_4 C16_4 1_555 1_555
N8_4 C47_4 1_555 1_555
N12_4 C54_4 1_555 1_555
C45_4 C46_4 1_555 1_555
C48_4 C49_4 1_555 1_555
C51_4 C52_4 1_555 1_555
C55_4 C56_4 1_555 1_555

#END
