
###############################################################################
#
# This file contains modified crystal structure data generated from the
# MOF subset of the Cambridge Structural Database (CSD) v543 
# hosted by the Cambridge Crystallographic Data Centre (CCDC).
#
# This work is licensed under the Creative Commons
# Attribution-NonCommercial-ShareAlike 4.0 International License.
# To view a copy of this license, visit
# http://creativecommons.org/licenses/by-nc-sa/4.0/
# or send a letter to
# Creative Commons, PO Box 1866, Mountain View, CA 94042, USA.
#
# CIF created using the CSD Python API on 29 September 2022
# The structure has been converted into the P1 space group
# The structure has a 3D framework
# The original CSD entry UQENAH is in the monoclinic crystal system
# The framework has been calculated to contain at least 10.0% void space
# The void calculation uses a probe of radius 1.32A, grid spacing 0.4
#
###############################################################################

data_UQENAH
_chemical_formula_moiety         '(C248 H168 N48 O44 Zn10)n'
_symmetry_cell_setting           triclinic
_symmetry_space_group_name_H-M   'P 1'
_symmetry_Int_Tables_number      1
_space_group_name_Hall           'P 1'
loop_
_symmetry_equiv_pos_site_id
_symmetry_equiv_pos_as_xyz
1 x,y,z
_cell_length_a                   22.8083(15)
_cell_length_b                   13.6010(8)
_cell_length_c                   28.0312(16)
_cell_angle_alpha                90
_cell_angle_beta                 92.200(2)
_cell_angle_gamma                90
_cell_volume                     8689.31
loop_
_atom_site_label
_atom_site_type_symbol
_atom_site_fract_x
_atom_site_fract_y
_atom_site_fract_z
N2 N 0.23014(13) 0.00408(19) 0.42455(10)
N3 N 0.27190(14) 0.4837(2) 0.39980(10)
N4 N 0.27789(14) 0.3348(2) 0.37143(10)
N5 N 0.06855(15) 0.0292(2) 0.24296(10)
N6 N 0.15943(14) 0.0777(2) 0.24281(9)
C1 C 0.23075(16) 0.0447(3) 0.33976(12)
C2 C 0.23914(16) 0.0742(2) 0.38718(12)
C3 C 0.25541(16) 0.1695(2) 0.39864(12)
H2 H 0.2613 0.1897 0.4302
C4 C 0.26246(17) 0.2335(2) 0.36072(13)
C5 C 0.25438(16) 0.2061(3) 0.31398(12)
H3 H 0.2599 0.2511 0.2896
C6 C 0.23799(16) 0.1107(3) 0.30365(12)
C7 C 0.25400(16) 0.0054(2) 0.46845(12)
H4 H 0.2796 0.0539 0.4799
C10 C 0.25087(18) 0.3938(2) 0.40120(13)
H7 H 0.2208 0.3741 0.4206
C11 C 0.31470(19) 0.4799(3) 0.36701(13)
H8 H 0.3376 0.5331 0.3583
C12 C 0.3191(2) 0.3897(3) 0.34923(14)
H9 H 0.3448 0.3684 0.3264
C13 C 0.22387(19) 0.0772(3) 0.25249(13)
H10 H 0.2426 0.1208 0.2303
H11 H 0.2391 0.0114 0.2479
C14 C 0.12199(18) 0.0053(2) 0.25331(11)
C15 C 0.0717(2) 0.1210(3) 0.22322(15)
H13 H 0.0399 0.1569 0.2110
C16 C 0.1278(2) 0.1513(3) 0.22417(15)
H14 H 0.1417 0.2117 0.2139
Zn6 Zn 0.24691(2) 0.60232(3) 0.436873(14)
N13 N 0.22810(14) 0.0163(2) 0.60020(10)
Zn1 Zn 0.25309(2) 0.89768(3) 0.563127(14)
Zn2 Zn -0.0000 0.93565(4) 0.2500
N1 N 0.23723(14) 0.9304(2) 0.49383(10)
H1 H 0.2202 0.9801 0.3327
C8 C 0.20075(19) 0.8758(3) 0.46298(13)
H5 H 0.1822 0.8174 0.4708
C9 C 0.19641(18) 0.9199(3) 0.42051(13)
H6 H 0.1750 0.8983 0.3936
H12 H 0.1334 0.9452 0.2665
C17 C 0.19216(15) 0.7487(2) 0.60519(13)
C18 C 0.15467(14) 0.6582(2) 0.60613(11)
C19 C 0.14847(15) 0.6056(2) 0.64814(12)
H15 H 0.1700 0.6234 0.6756
C20 C 0.12379(16) 0.6284(2) 0.56537(12)
H16 H 0.1288 0.6616 0.5368
C21 C 0.11036(17) 0.5270(3) 0.64899(13)
H17 H 0.1072 0.4913 0.6771
C22 C 0.08543(17) 0.5498(3) 0.56656(13)
H18 H 0.0654 0.5301 0.5386
C23 C 0.07640(15) 0.4998(2) 0.60867(12)
C24 C 0.02998(16) 0.4250(2) 0.61246(12)
C25 C 0.03776(17) 0.3405(3) 0.64084(13)
H19 H 0.0742 0.3279 0.6557
C31 C 0.0035(3) 0.1911(3) 0.68306(17)
O1 O 0.21925(12) 0.77475(19) 0.64283(9)
O2 O 0.19326(11) 0.79464(17) 0.56657(9)
O5 O 0.0507(2) 0.1843(3) 0.70446(15)
Zn9 Zn 0.0000 0.06435(4) 0.7500
O13 O 0.32907(11) 0.83998(19) 0.58091(10)
O16 O 0.0507(2) 0.8157(3) 0.20446(15)
O17 O 0.0368(2) 0.8664(2) 0.31179(15)
C57 C 0.02491(17) 0.4413(3) 0.90964(12)
H41 H 0.0306 0.4968 0.9286
C58 C 0.0080(2) 0.2762(3) 0.85311(13)
C59 C 0.07148(16) 0.3765(2) 0.90413(13)
C60 C 0.06138(19) 0.2933(2) 0.87486(14)
H42 H 0.0919 0.2492 0.8703
C61 C 0.13002(18) 0.4028(3) 0.92356(15)
O9 O 0.17093(11) 0.33998(19) 0.91909(10)
O10 O 0.13924(13) 0.4839(2) 0.94358(12)
O12 O 0.0368(2) 0.1336(2) 0.81179(15)
Zn5 Zn 0.24691(2) 0.39768(3) 0.936873(14)
N8 N 0.76986(13) 0.00408(19) 0.07545(10)
N9 N 0.72810(14) 0.4837(2) 0.10020(10)
N10 N 0.72211(14) 0.3348(2) 0.12857(10)
N11 N 0.93145(15) 0.0292(2) 0.25704(10)
N12 N 0.84057(14) 0.0777(2) 0.25719(9)
C32 C 0.76925(16) 0.0447(3) 0.16024(12)
C33 C 0.76086(16) 0.0742(2) 0.11282(12)
C34 C 0.74459(16) 0.1695(2) 0.10136(12)
H23 H 0.7387 0.1897 0.0698
C35 C 0.73754(17) 0.2335(2) 0.13928(13)
C36 C 0.74562(16) 0.2061(3) 0.18602(12)
H24 H 0.7401 0.2511 0.2104
C37 C 0.76201(16) 0.1107(3) 0.19635(12)
C38 C 0.74600(16) 0.0054(2) 0.03155(12)
H25 H 0.7204 0.0539 0.0201
C41 C 0.74913(18) 0.3938(2) 0.09880(13)
H28 H 0.7792 0.3741 0.0794
C42 C 0.68530(19) 0.4799(3) 0.13299(13)
H29 H 0.6624 0.5331 0.1417
C43 C 0.6809(2) 0.3897(3) 0.15077(14)
H30 H 0.6552 0.3684 0.1736
C44 C 0.77613(19) 0.0772(3) 0.24751(13)
H31 H 0.7574 0.1208 0.2697
H32 H 0.7609 0.0114 0.2521
C45 C 0.87801(18) 0.0053(2) 0.24669(11)
C46 C 0.9283(2) 0.1210(3) 0.27678(15)
H34 H 0.9601 0.1569 0.2890
C47 C 0.8722(2) 0.1513(3) 0.27583(15)
H35 H 0.8583 0.2117 0.2861
Zn7 Zn 0.75309(2) 0.60232(3) 0.063127(14)
N14 N 0.77190(14) 0.0163(2) 0.89980(10)
Zn2_2 Zn 1.0000 0.93565(4) 0.2500
C26 C 0.97509(17) 0.4413(3) 0.59036(12)
H20 H 0.9694 0.4968 0.5714
C27 C 0.9920(2) 0.2762(3) 0.64689(13)
C28 C 0.92852(16) 0.3765(2) 0.59587(13)
C29 C 0.93862(19) 0.2933(2) 0.62514(14)
H21 H 0.9081 0.2492 0.6297
C30 C 0.86998(18) 0.4028(3) 0.57644(15)
O3 O 0.82907(11) 0.33998(19) 0.58091(10)
O4 O 0.86076(13) 0.4839(2) 0.55642(12)
O6 O 0.9632(2) 0.1336(2) 0.68821(15)
N7 N 0.76277(14) 0.9304(2) 0.00617(10)
H22 H 0.7798 0.9801 0.1673
C39 C 0.79925(19) 0.8758(3) 0.03702(13)
H26 H 0.8178 0.8174 0.0292
C40 C 0.80359(18) 0.9199(3) 0.07949(13)
H27 H 0.8250 0.8983 0.1064
H33 H 0.8666 0.9452 0.2335
Zn4 Zn 0.75309(2) 0.39768(3) 0.563127(14)
Zn9_2 Zn 1.0000 0.06435(4) 0.7500
O15 O 0.9493(2) 0.8157(3) 0.29554(15)
O18 O 0.9632(2) 0.8664(2) 0.18821(15)
Zn3 Zn 0.74691(2) 0.89768(3) 0.936873(14)
C48 C 0.80784(15) 0.7487(2) 0.89481(13)
C49 C 0.84533(14) 0.6582(2) 0.89387(11)
C50 C 0.85153(15) 0.6056(2) 0.85186(12)
H36 H 0.8300 0.6234 0.8244
C51 C 0.87621(16) 0.6284(2) 0.93463(12)
H37 H 0.8712 0.6616 0.9632
C52 C 0.88964(17) 0.5270(3) 0.85101(13)
H38 H 0.8928 0.4913 0.8229
C53 C 0.91457(17) 0.5498(3) 0.93344(13)
H39 H 0.9346 0.5301 0.9614
C54 C 0.92360(15) 0.4998(2) 0.89133(12)
C55 C 0.97002(16) 0.4250(2) 0.88754(12)
C56 C 0.96224(17) 0.3405(3) 0.85916(13)
H40 H 0.9258 0.3279 0.8443
C62 C 0.9965(3) 0.1911(3) 0.81694(17)
O7 O 0.78075(12) 0.77475(19) 0.85717(9)
O8 O 0.80674(11) 0.79464(17) 0.93343(9)
O11 O 0.9493(2) 0.1843(3) 0.79554(15)
O14 O 0.67093(11) 0.83998(19) 0.91909(10)
H8_2 H 0.8376 0.0331 0.3583
H29_2 H 0.1624 0.0331 0.1417
Zn6_2 Zn 0.74691(2) 0.10232(3) 0.436873(14)
Zn7_2 Zn 0.25309(2) 0.10232(3) 0.063127(14)
Zn2_3 Zn 0.5000 0.43565(4) 0.2500
N1_2 N 0.73723(14) 0.4304(2) 0.49383(10)
N2_2 N 0.73014(13) 0.50408(19) 0.42455(10)
N3_2 N 0.77190(14) 0.9837(2) 0.39980(10)
N4_2 N 0.77789(14) 0.8348(2) 0.37143(10)
N5_2 N 0.56855(15) 0.5292(2) 0.24296(10)
N6_2 N 0.65943(14) 0.5777(2) 0.24281(9)
C1_2 C 0.73075(16) 0.5447(3) 0.33976(12)
H1_2 H 0.7202 0.4801 0.3327
C2_2 C 0.73914(16) 0.5742(2) 0.38718(12)
C3_2 C 0.75541(16) 0.6695(2) 0.39864(12)
H2_2 H 0.7613 0.6897 0.4302
C4_2 C 0.76246(17) 0.7335(2) 0.36072(13)
C5_2 C 0.75438(16) 0.7061(3) 0.31398(12)
H3_2 H 0.7599 0.7511 0.2896
C6_2 C 0.73799(16) 0.6107(3) 0.30365(12)
C7_2 C 0.75400(16) 0.5054(2) 0.46845(12)
H4_2 H 0.7796 0.5539 0.4799
C8_2 C 0.70075(19) 0.3758(3) 0.46298(13)
H5_2 H 0.6822 0.3174 0.4708
C9_2 C 0.69641(18) 0.4199(3) 0.42051(13)
H6_2 H 0.6750 0.3983 0.3936
C10_2 C 0.75087(18) 0.8938(2) 0.40120(13)
H7_2 H 0.7208 0.8741 0.4206
C11_2 C 0.81470(19) 0.9799(3) 0.36701(13)
C12_2 C 0.8191(2) 0.8897(3) 0.34923(14)
H9_2 H 0.8448 0.8684 0.3264
C13_2 C 0.72387(19) 0.5772(3) 0.25249(13)
H10_2 H 0.7426 0.6208 0.2303
H11_2 H 0.7391 0.5114 0.2479
C14_2 C 0.62199(18) 0.5053(2) 0.25331(11)
H12_2 H 0.6334 0.4452 0.2665
C15_2 C 0.5717(2) 0.6210(3) 0.22322(15)
H13_2 H 0.5399 0.6569 0.2110
C16_2 C 0.6278(2) 0.6513(3) 0.22417(15)
H14_2 H 0.6417 0.7117 0.2139
C17_2 C 0.69216(15) 0.2487(2) 0.60519(13)
C18_2 C 0.65467(14) 0.1582(2) 0.60613(11)
C19_2 C 0.64847(15) 0.1056(2) 0.64814(12)
H15_2 H 0.6700 0.1234 0.6756
C20_2 C 0.62379(16) 0.1284(2) 0.56537(12)
H16_2 H 0.6288 0.1616 0.5368
C21_2 C 0.61036(17) 0.0270(3) 0.64899(13)
C22_2 C 0.58543(17) 0.0498(3) 0.56656(13)
H18_2 H 0.5654 0.0301 0.5386
O1_2 O 0.71925(12) 0.27475(19) 0.64283(9)
O2_2 O 0.69326(11) 0.29464(17) 0.56657(9)
N7_2 N 0.26277(14) 0.4304(2) 0.00617(10)
N8_2 N 0.26986(13) 0.50408(19) 0.07545(10)
N9_2 N 0.22810(14) 0.9837(2) 0.10020(10)
N10_2 N 0.22211(14) 0.8348(2) 0.12857(10)
N11_2 N 0.43145(15) 0.5292(2) 0.25704(10)
N12_2 N 0.34057(14) 0.5777(2) 0.25719(9)
C32_2 C 0.26925(16) 0.5447(3) 0.16024(12)
H22_2 H 0.2798 0.4801 0.1673
C33_2 C 0.26086(16) 0.5742(2) 0.11282(12)
C34_2 C 0.24459(16) 0.6695(2) 0.10136(12)
H23_2 H 0.2387 0.6897 0.0698
C35_2 C 0.23754(17) 0.7335(2) 0.13928(13)
C36_2 C 0.24562(16) 0.7061(3) 0.18602(12)
H24_2 H 0.2401 0.7511 0.2104
C37_2 C 0.26201(16) 0.6107(3) 0.19635(12)
C38_2 C 0.24600(16) 0.5054(2) 0.03155(12)
H25_2 H 0.2204 0.5539 0.0201
C39_2 C 0.29925(19) 0.3758(3) 0.03702(13)
H26_2 H 0.3178 0.3174 0.0292
C40_2 C 0.30359(18) 0.4199(3) 0.07949(13)
H27_2 H 0.3250 0.3983 0.1064
C41_2 C 0.24913(18) 0.8938(2) 0.09880(13)
H28_2 H 0.2792 0.8741 0.0794
C42_2 C 0.18530(19) 0.9799(3) 0.13299(13)
C43_2 C 0.1809(2) 0.8897(3) 0.15077(14)
H30_2 H 0.1552 0.8684 0.1736
C44_2 C 0.27613(19) 0.5772(3) 0.24751(13)
H31_2 H 0.2574 0.6208 0.2697
H32_2 H 0.2609 0.5114 0.2521
C45_2 C 0.37801(18) 0.5053(2) 0.24669(11)
H33_2 H 0.3666 0.4452 0.2335
C46_2 C 0.4283(2) 0.6210(3) 0.27678(15)
H34_2 H 0.4601 0.6569 0.2890
C47_2 C 0.3722(2) 0.6513(3) 0.27583(15)
H35_2 H 0.3583 0.7117 0.2861
N13_2 N 0.72810(14) 0.5163(2) 0.60020(10)
O15_2 O 0.4493(2) 0.3157(3) 0.29554(15)
O16_2 O 0.5507(2) 0.3157(3) 0.20446(15)
O17_2 O 0.5368(2) 0.3664(2) 0.31179(15)
O18_2 O 0.4632(2) 0.3664(2) 0.18821(15)
C48_2 C 0.30784(15) 0.2487(2) 0.89481(13)
C49_2 C 0.34533(14) 0.1582(2) 0.89387(11)
C50_2 C 0.35153(15) 0.1056(2) 0.85186(12)
H36_2 H 0.3300 0.1234 0.8244
C51_2 C 0.37621(16) 0.1284(2) 0.93463(12)
H37_2 H 0.3712 0.1616 0.9632
C52_2 C 0.38964(17) 0.0270(3) 0.85101(13)
C53_2 C 0.41457(17) 0.0498(3) 0.93344(13)
H39_2 H 0.4346 0.0301 0.9614
O7_2 O 0.28075(12) 0.27475(19) 0.85717(9)
O8_2 O 0.30674(11) 0.29464(17) 0.93343(9)
N14_2 N 0.27190(14) 0.5163(2) 0.89980(10)
H17_2 H 0.6072 0.9913 0.6771
C23_2 C 0.57640(15) 0.9998(2) 0.60867(12)
C24_2 C 0.52998(16) 0.9250(2) 0.61246(12)
C25_2 C 0.53776(17) 0.8405(3) 0.64084(13)
H19_2 H 0.5742 0.8279 0.6557
C26_2 C 0.47509(17) 0.9413(3) 0.59036(12)
H20_2 H 0.4694 0.9968 0.5714
C27_2 C 0.4920(2) 0.7762(3) 0.64689(13)
C28_2 C 0.42852(16) 0.8765(2) 0.59587(13)
C29_2 C 0.43862(19) 0.7933(2) 0.62514(14)
H21_2 H 0.4081 0.7492 0.6297
C30_2 C 0.36998(18) 0.9028(3) 0.57644(15)
C31_2 C 0.5035(3) 0.6911(3) 0.68306(17)
O4_2 O 0.36076(13) 0.9839(2) 0.55642(12)
O5_2 O 0.5507(2) 0.6843(3) 0.70446(15)
O6_2 O 0.4632(2) 0.6336(2) 0.68821(15)
Zn9_3 Zn 0.5000 0.56435(4) 0.7500
H38_2 H 0.3928 0.9913 0.8229
C54_2 C 0.42360(15) 0.9998(2) 0.89133(12)
C55_2 C 0.47002(16) 0.9250(2) 0.88754(12)
C56_2 C 0.46224(17) 0.8405(3) 0.85916(13)
H40_2 H 0.4258 0.8279 0.8443
C57_2 C 0.52491(17) 0.9413(3) 0.90964(12)
H41_2 H 0.5306 0.9968 0.9286
C58_2 C 0.5080(2) 0.7762(3) 0.85311(13)
C59_2 C 0.57148(16) 0.8765(2) 0.90413(13)
C60_2 C 0.56138(19) 0.7933(2) 0.87486(14)
H42_2 H 0.5919 0.7492 0.8703
C61_2 C 0.63002(18) 0.9028(3) 0.92356(15)
C62_2 C 0.4965(3) 0.6911(3) 0.81694(17)
O10_2 O 0.63924(13) 0.9839(2) 0.94358(12)
O11_2 O 0.4493(2) 0.6843(3) 0.79554(15)
O12_2 O 0.5368(2) 0.6336(2) 0.81179(15)
C48_3 C 0.19216(15) 0.2513(2) 0.10519(13)
C49_3 C 0.15467(14) 0.3418(2) 0.10613(11)
C50_3 C 0.14847(15) 0.3944(2) 0.14814(12)
H36_3 H 0.1700 0.3766 0.1756
C51_3 C 0.12379(16) 0.3716(2) 0.06537(12)
H37_3 H 0.1288 0.3384 0.0368
C52_3 C 0.11036(17) 0.4730(3) 0.14899(13)
H38_3 H 0.1072 0.5087 0.1771
C53_3 C 0.08543(17) 0.4502(3) 0.06656(13)
H39_3 H 0.0654 0.4699 0.0386
C54_3 C 0.07640(15) 0.5002(2) 0.10867(12)
C55_3 C 0.02998(16) 0.5750(2) 0.11246(12)
C56_3 C 0.03776(17) 0.6595(3) 0.14084(13)
H40_3 H 0.0742 0.6721 0.1557
C62_3 C 0.0035(3) 0.8089(3) 0.18306(17)
O7_3 O 0.21925(12) 0.22525(19) 0.14283(9)
O8_3 O 0.19326(11) 0.20536(17) 0.06657(9)
O14_2 O 0.32907(11) 0.16002(19) 0.08091(10)
C26_3 C 0.02491(17) 0.5587(3) 0.40964(12)
H20_3 H 0.0306 0.5032 0.4286
C27_3 C 0.0080(2) 0.7238(3) 0.35311(13)
C28_3 C 0.07148(16) 0.6235(2) 0.40413(13)
C29_3 C 0.06138(19) 0.7067(2) 0.37486(14)
H21_3 H 0.0919 0.7508 0.3703
C30_3 C 0.13002(18) 0.5972(3) 0.42356(15)
O3_2 O 0.17093(11) 0.66002(19) 0.41909(10)
O4_3 O 0.13924(13) 0.5161(2) 0.44358(12)
N7_3 N 0.23723(14) 0.0696(2) 0.99383(10)
H22_3 H 0.2202 0.0199 0.8327
C39_3 C 0.20075(19) 0.1242(3) 0.96298(13)
H26_3 H 0.1822 0.1826 0.9708
C40_3 C 0.19641(18) 0.0801(3) 0.92051(13)
H27_3 H 0.1750 0.1017 0.8936
H33_3 H 0.1334 0.0548 0.7665
N8_3 N 0.23014(13) 0.99592(19) 0.92455(10)
N10_3 N 0.27789(14) 0.6652(2) 0.87143(10)
N11_3 N 0.06855(15) 0.9708(2) 0.74296(10)
N12_3 N 0.15943(14) 0.9223(2) 0.74281(9)
C32_3 C 0.23075(16) 0.9553(3) 0.83976(12)
C33_3 C 0.23914(16) 0.9258(2) 0.88718(12)
C34_3 C 0.25541(16) 0.8305(2) 0.89864(12)
H23_3 H 0.2613 0.8103 0.9302
C35_3 C 0.26246(17) 0.7665(2) 0.86072(13)
C36_3 C 0.25438(16) 0.7939(3) 0.81398(12)
H24_3 H 0.2599 0.7489 0.7896
C37_3 C 0.23799(16) 0.8893(3) 0.80365(12)
C38_3 C 0.25400(16) 0.9946(2) 0.96845(12)
H25_3 H 0.2796 0.9461 0.9799
C41_3 C 0.25087(18) 0.6062(2) 0.90120(13)
H28_3 H 0.2208 0.6259 0.9206
C42_3 C 0.31470(19) 0.5201(3) 0.86701(13)
H29_3 H 0.3376 0.4669 0.8583
C43_3 C 0.3191(2) 0.6103(3) 0.84923(14)
H30_3 H 0.3448 0.6316 0.8264
C44_3 C 0.22387(19) 0.9228(3) 0.75249(13)
H31_3 H 0.2426 0.8792 0.7303
H32_3 H 0.2391 0.9886 0.7479
C45_3 C 0.12199(18) 0.9947(2) 0.75331(11)
C46_3 C 0.0717(2) 0.8790(3) 0.72322(15)
H34_3 H 0.0399 0.8431 0.7110
C47_3 C 0.1278(2) 0.8487(3) 0.72417(15)
H35_3 H 0.1417 0.7883 0.7139
C57_3 C 0.97509(17) 0.5587(3) 0.09036(12)
H41_3 H 0.9694 0.5032 0.0714
C58_3 C 0.9920(2) 0.7238(3) 0.14689(13)
C59_3 C 0.92852(16) 0.6235(2) 0.09587(13)
C60_3 C 0.93862(19) 0.7067(2) 0.12514(14)
H42_3 H 0.9081 0.7508 0.1297
C61_3 C 0.86998(18) 0.5972(3) 0.07644(15)
O9_2 O 0.82907(11) 0.66002(19) 0.08091(10)
O10_3 O 0.86076(13) 0.5161(2) 0.05642(12)
N1_3 N 0.76277(14) 0.0696(2) 0.50617(10)
H1_3 H 0.7798 0.0199 0.6673
C8_3 C 0.79925(19) 0.1242(3) 0.53702(13)
H5_3 H 0.8178 0.1826 0.5292
C9_3 C 0.80359(18) 0.0801(3) 0.57949(13)
H6_3 H 0.8250 0.1017 0.6064
H12_3 H 0.8666 0.0548 0.7335
C17_3 C 0.80784(15) 0.2513(2) 0.39481(13)
C18_3 C 0.84533(14) 0.3418(2) 0.39387(11)
C19_3 C 0.85153(15) 0.3944(2) 0.35186(12)
H15_3 H 0.8300 0.3766 0.3244
C20_3 C 0.87621(16) 0.3716(2) 0.43463(12)
H16_3 H 0.8712 0.3384 0.4632
C21_3 C 0.88964(17) 0.4730(3) 0.35101(13)
H17_3 H 0.8928 0.5087 0.3229
C22_3 C 0.91457(17) 0.4502(3) 0.43344(13)
H18_3 H 0.9346 0.4699 0.4614
C23_3 C 0.92360(15) 0.5002(2) 0.39133(12)
C24_3 C 0.97002(16) 0.5750(2) 0.38754(12)
C25_3 C 0.96224(17) 0.6595(3) 0.35916(13)
H19_3 H 0.9258 0.6721 0.3443
C31_3 C 0.9965(3) 0.8089(3) 0.31694(17)
O1_3 O 0.78075(12) 0.22525(19) 0.35717(9)
O2_3 O 0.80674(11) 0.20536(17) 0.43343(9)
O13_2 O 0.67093(11) 0.16002(19) 0.41909(10)
N2_3 N 0.76986(13) 0.99592(19) 0.57545(10)
N4_3 N 0.72211(14) 0.6652(2) 0.62857(10)
N5_3 N 0.93145(15) 0.9708(2) 0.75704(10)
N6_3 N 0.84057(14) 0.9223(2) 0.75719(9)
C1_3 C 0.76925(16) 0.9553(3) 0.66024(12)
C2_3 C 0.76086(16) 0.9258(2) 0.61282(12)
C3_3 C 0.74459(16) 0.8305(2) 0.60136(12)
H2_3 H 0.7387 0.8103 0.5698
C4_3 C 0.73754(17) 0.7665(2) 0.63928(13)
C5_3 C 0.74562(16) 0.7939(3) 0.68602(12)
H3_3 H 0.7401 0.7489 0.7104
C6_3 C 0.76201(16) 0.8893(3) 0.69635(12)
C7_3 C 0.74600(16) 0.9946(2) 0.53155(12)
H4_3 H 0.7204 0.9461 0.5201
C10_3 C 0.74913(18) 0.6062(2) 0.59880(13)
H7_3 H 0.7792 0.6259 0.5794
C11_3 C 0.68530(19) 0.5201(3) 0.63299(13)
H8_3 H 0.6624 0.4669 0.6417
C12_3 C 0.6809(2) 0.6103(3) 0.65077(14)
H9_3 H 0.6552 0.6316 0.6736
C13_3 C 0.77613(19) 0.9228(3) 0.74751(13)
H10_3 H 0.7574 0.8792 0.7697
H11_3 H 0.7609 0.9886 0.7521
C14_3 C 0.87801(18) 0.9947(2) 0.74669(11)
C15_3 C 0.9283(2) 0.8790(3) 0.77678(15)
H13_3 H 0.9601 0.8431 0.7890
C16_3 C 0.8722(2) 0.8487(3) 0.77583(15)
H14_3 H 0.8583 0.7883 0.7861
H38_4 H 0.6072 0.0087 0.1771
C54_4 C 0.57640(15) 0.0002(2) 0.10867(12)
C55_4 C 0.52998(16) 0.0750(2) 0.11246(12)
C56_4 C 0.53776(17) 0.1595(3) 0.14084(13)
H40_4 H 0.5742 0.1721 0.1557
C57_4 C 0.47509(17) 0.0587(3) 0.09036(12)
H41_4 H 0.4694 0.0032 0.0714
C58_4 C 0.4920(2) 0.2238(3) 0.14689(13)
C59_4 C 0.42852(16) 0.1235(2) 0.09587(13)
C60_4 C 0.43862(19) 0.2067(2) 0.12514(14)
H42_4 H 0.4081 0.2508 0.1297
C61_4 C 0.36998(18) 0.0972(3) 0.07644(15)
C62_4 C 0.5035(3) 0.3089(3) 0.18306(17)
O10_4 O 0.36076(13) 0.0161(2) 0.05642(12)
H17_4 H 0.3928 0.0087 0.3229
C23_4 C 0.42360(15) 0.0002(2) 0.39133(12)
C24_4 C 0.47002(16) 0.0750(2) 0.38754(12)
C25_4 C 0.46224(17) 0.1595(3) 0.35916(13)
H19_4 H 0.4258 0.1721 0.3443
C26_4 C 0.52491(17) 0.0587(3) 0.40964(12)
H20_4 H 0.5306 0.0032 0.4286
C27_4 C 0.5080(2) 0.2238(3) 0.35311(13)
C28_4 C 0.57148(16) 0.1235(2) 0.40413(13)
C29_4 C 0.56138(19) 0.2067(2) 0.37486(14)
H21_4 H 0.5919 0.2508 0.3703
C30_4 C 0.63002(18) 0.0972(3) 0.42356(15)
C31_4 C 0.4965(3) 0.3089(3) 0.31694(17)
O4_4 O 0.63924(13) 0.0161(2) 0.44358(12)
C48_4 C 0.69216(15) 0.7513(2) 0.10519(13)
C49_4 C 0.65467(14) 0.8418(2) 0.10613(11)
C50_4 C 0.64847(15) 0.8944(2) 0.14814(12)
H36_4 H 0.6700 0.8766 0.1756
C51_4 C 0.62379(16) 0.8716(2) 0.06537(12)
H37_4 H 0.6288 0.8384 0.0368
C52_4 C 0.61036(17) 0.9730(3) 0.14899(13)
C53_4 C 0.58543(17) 0.9502(3) 0.06656(13)
H39_4 H 0.5654 0.9699 0.0386
O7_4 O 0.71925(12) 0.72525(19) 0.14283(9)
O8_4 O 0.69326(11) 0.70536(17) 0.06657(9)
N1_4 N 0.26277(14) 0.5696(2) 0.50617(10)
N2_4 N 0.26986(13) 0.49592(19) 0.57545(10)
N4_4 N 0.22211(14) 0.1652(2) 0.62857(10)
N5_4 N 0.43145(15) 0.4708(2) 0.75704(10)
N6_4 N 0.34057(14) 0.4223(2) 0.75719(9)
C1_4 C 0.26925(16) 0.4553(3) 0.66024(12)
H1_4 H 0.2798 0.5199 0.6673
C2_4 C 0.26086(16) 0.4258(2) 0.61282(12)
C3_4 C 0.24459(16) 0.3305(2) 0.60136(12)
H2_4 H 0.2387 0.3103 0.5698
C4_4 C 0.23754(17) 0.2665(2) 0.63928(13)
C5_4 C 0.24562(16) 0.2939(3) 0.68602(12)
H3_4 H 0.2401 0.2489 0.7104
C6_4 C 0.26201(16) 0.3893(3) 0.69635(12)
C7_4 C 0.24600(16) 0.4946(2) 0.53155(12)
H4_4 H 0.2204 0.4461 0.5201
C8_4 C 0.29925(19) 0.6242(3) 0.53702(13)
H5_4 H 0.3178 0.6826 0.5292
C9_4 C 0.30359(18) 0.5801(3) 0.57949(13)
H6_4 H 0.3250 0.6017 0.6064
C10_4 C 0.24913(18) 0.1062(2) 0.59880(13)
H7_4 H 0.2792 0.1259 0.5794
C11_4 C 0.18530(19) 0.0201(3) 0.63299(13)
C12_4 C 0.1809(2) 0.1103(3) 0.65077(14)
H9_4 H 0.1552 0.1316 0.6736
C13_4 C 0.27613(19) 0.4228(3) 0.74751(13)
H10_4 H 0.2574 0.3792 0.7697
H11_4 H 0.2609 0.4886 0.7521
C14_4 C 0.37801(18) 0.4947(2) 0.74669(11)
H12_4 H 0.3666 0.5548 0.7335
C15_4 C 0.4283(2) 0.3790(3) 0.77678(15)
H13_4 H 0.4601 0.3431 0.7890
C16_4 C 0.3722(2) 0.3487(3) 0.77583(15)
H14_4 H 0.3583 0.2883 0.7861
C17_4 C 0.30784(15) 0.7513(2) 0.39481(13)
C18_4 C 0.34533(14) 0.8418(2) 0.39387(11)
C19_4 C 0.35153(15) 0.8944(2) 0.35186(12)
H15_4 H 0.3300 0.8766 0.3244
C20_4 C 0.37621(16) 0.8716(2) 0.43463(12)
H16_4 H 0.3712 0.8384 0.4632
C21_4 C 0.38964(17) 0.9730(3) 0.35101(13)
C22_4 C 0.41457(17) 0.9502(3) 0.43344(13)
H18_4 H 0.4346 0.9699 0.4614
O1_4 O 0.28075(12) 0.72525(19) 0.35717(9)
O2_4 O 0.30674(11) 0.70536(17) 0.43343(9)
N7_4 N 0.73723(14) 0.5696(2) 0.99383(10)
N8_4 N 0.73014(13) 0.49592(19) 0.92455(10)
N10_4 N 0.77789(14) 0.1652(2) 0.87143(10)
N11_4 N 0.56855(15) 0.4708(2) 0.74296(10)
N12_4 N 0.65943(14) 0.4223(2) 0.74281(9)
C32_4 C 0.73075(16) 0.4553(3) 0.83976(12)
H22_4 H 0.7202 0.5199 0.8327
C33_4 C 0.73914(16) 0.4258(2) 0.88718(12)
C34_4 C 0.75541(16) 0.3305(2) 0.89864(12)
H23_4 H 0.7613 0.3103 0.9302
C35_4 C 0.76246(17) 0.2665(2) 0.86072(13)
C36_4 C 0.75438(16) 0.2939(3) 0.81398(12)
H24_4 H 0.7599 0.2489 0.7896
C37_4 C 0.73799(16) 0.3893(3) 0.80365(12)
C38_4 C 0.75400(16) 0.4946(2) 0.96845(12)
H25_4 H 0.7796 0.4461 0.9799
C39_4 C 0.70075(19) 0.6242(3) 0.96298(13)
H26_4 H 0.6822 0.6826 0.9708
C40_4 C 0.69641(18) 0.5801(3) 0.92051(13)
H27_4 H 0.6750 0.6017 0.8936
C41_4 C 0.75087(18) 0.1062(2) 0.90120(13)
H28_4 H 0.7208 0.1259 0.9206
C42_4 C 0.81470(19) 0.0201(3) 0.86701(13)
C43_4 C 0.8191(2) 0.1103(3) 0.84923(14)
H30_4 H 0.8448 0.1316 0.8264
C44_4 C 0.72387(19) 0.4228(3) 0.75249(13)
H31_4 H 0.7426 0.3792 0.7303
H32_4 H 0.7391 0.4886 0.7479
C45_4 C 0.62199(18) 0.4947(2) 0.75331(11)
H33_4 H 0.6334 0.5548 0.7665
C46_4 C 0.5717(2) 0.3790(3) 0.72322(15)
H34_4 H 0.5399 0.3431 0.7110
C47_4 C 0.6278(2) 0.3487(3) 0.72417(15)
H35_4 H 0.6417 0.2883 0.7139
H8_4 H 0.1624 0.9669 0.6417
H29_4 H 0.8376 0.9669 0.8583
loop_
_geom_bond_atom_site_label_1
_geom_bond_atom_site_label_2
_geom_bond_site_symmetry_1
_geom_bond_site_symmetry_2
N2 C2 1_555 1_555
N3 C10 1_555 1_555
N4 C4 1_555 1_555
N5 C14 1_555 1_555
N6 C13 1_555 1_555
C2 C1 1_555 1_555
C3 C2 1_555 1_555
H2 C3 1_555 1_555
C4 C3 1_555 1_555
C5 C4 1_555 1_555
H3 C5 1_555 1_555
C6 C1 1_555 1_555
C7 N2 1_555 1_555
H4 C7 1_555 1_555
C10 N4 1_555 1_555
H7 C10 1_555 1_555
C11 N3 1_555 1_555
H8 C11 1_555 1_555
C12 N4 1_555 1_555
H9 C12 1_555 1_555
C13 C6 1_555 1_555
H10 C13 1_555 1_555
H11 C13 1_555 1_555
C14 N6 1_555 1_555
C15 N5 1_555 1_555
H13 C15 1_555 1_555
C16 N6 1_555 1_555
H14 C16 1_555 1_555
Zn6 N3 1_555 1_555
C5 C6 1_555 1_555
C11 C12 1_555 1_555
C15 C16 1_555 1_555
Zn1 N1 1_555 1_555
C8 N1 1_555 1_555
H5 C8 1_555 1_555
H6 C9 1_555 1_555
C17 C18 1_555 1_555
C18 C19 1_555 1_555
C19 H15 1_555 1_555
C20 C18 1_555 1_555
H16 C20 1_555 1_555
C21 C19 1_555 1_555
H17 C21 1_555 1_555
C22 C20 1_555 1_555
H18 C22 1_555 1_555
C23 C21 1_555 1_555
C24 C23 1_555 1_555
C25 C24 1_555 1_555
H19 C25 1_555 1_555
O1 C17 1_555 1_555
O2 Zn1 1_555 1_555
O5 C31 1_555 1_555
Zn9 O5 1_555 1_555
O13 Zn1 1_555 1_555
O16 Zn2 1_555 1_555
O17 Zn2 1_555 1_555
C8 C9 1_555 1_555
C17 O2 1_555 1_555
C22 C23 1_555 1_555
H41 C57 1_555 1_555
C59 C57 1_555 1_555
C60 C58 1_555 1_555
H42 C60 1_555 1_555
C61 C59 1_555 1_555
O9 C61 1_555 1_555
O10 C61 1_555 1_555
Zn5 O9 1_555 1_555
C59 C60 1_555 1_555
O12 Zn9 1_555 1_555
N8 C33 1_555 1_555
N9 C41 1_555 1_555
N10 C35 1_555 1_555
N12 C44 1_555 1_555
C33 C32 1_555 1_555
C34 C33 1_555 1_555
H23 C34 1_555 1_555
C35 C34 1_555 1_555
C36 C35 1_555 1_555
H24 C36 1_555 1_555
C37 C32 1_555 1_555
C38 N8 1_555 1_555
H25 C38 1_555 1_555
C41 N10 1_555 1_555
H28 C41 1_555 1_555
C42 N9 1_555 1_555
H29 C42 1_555 1_555
C43 N10 1_555 1_555
H30 C43 1_555 1_555
C44 C37 1_555 1_555
H31 C44 1_555 1_555
H32 C44 1_555 1_555
C45 N11 1_555 1_555
C46 N11 1_555 1_555
H34 C46 1_555 1_555
C47 N12 1_555 1_555
H35 C47 1_555 1_555
Zn7 N9 1_555 1_555
N12 C45 1_555 1_555
C36 C37 1_555 1_555
C42 C43 1_555 1_555
C46 C47 1_555 1_555
H20 C26 1_555 1_555
C28 C26 1_555 1_555
C29 C27 1_555 1_555
H21 C29 1_555 1_555
C30 C28 1_555 1_555
O3 C30 1_555 1_555
O4 C30 1_555 1_555
C39 N7 1_555 1_555
H26 C39 1_555 1_555
H27 C40 1_555 1_555
Zn4 O3 1_555 1_555
O15 Zn2_2 1_555 1_555
O18 Zn2_2 1_555 1_555
C28 C29 1_555 1_555
O6 Zn9_2 1_555 1_555
C39 C40 1_555 1_555
C48 C49 1_555 1_555
C49 C50 1_555 1_555
C50 H36 1_555 1_555
C51 C49 1_555 1_555
H37 C51 1_555 1_555
C52 C50 1_555 1_555
H38 C52 1_555 1_555
C53 C51 1_555 1_555
H39 C53 1_555 1_555
C54 C52 1_555 1_555
C55 C54 1_555 1_555
C56 C55 1_555 1_555
H40 C56 1_555 1_555
O7 C48 1_555 1_555
O8 Zn3 1_555 1_555
O11 C62 1_555 1_555
Zn9_2 O11 1_555 1_555
O14 Zn3 1_555 1_555
C48 O8 1_555 1_555
C53 C54 1_555 1_555
Zn4 N1_2 1_555 1_555
Zn2_3 N5_2 1_555 1_555
N1_2 C7_2 1_555 1_555
N2_2 C2_2 1_555 1_555
N3_2 C10_2 1_555 1_555
N4_2 C4_2 1_555 1_555
N5_2 C14_2 1_555 1_555
N6_2 C13_2 1_555 1_555
C1_2 H1_2 1_555 1_555
C2_2 C1_2 1_555 1_555
C3_2 C2_2 1_555 1_555
H2_2 C3_2 1_555 1_555
C4_2 C3_2 1_555 1_555
C5_2 C4_2 1_555 1_555
H3_2 C5_2 1_555 1_555
C6_2 C1_2 1_555 1_555
C7_2 N2_2 1_555 1_555
H4_2 C7_2 1_555 1_555
C8_2 N1_2 1_555 1_555
H5_2 C8_2 1_555 1_555
C9_2 N2_2 1_555 1_555
H6_2 C9_2 1_555 1_555
C10_2 N4_2 1_555 1_555
H7_2 C10_2 1_555 1_555
C11_2 N3_2 1_555 1_555
C12_2 N4_2 1_555 1_555
H9_2 C12_2 1_555 1_555
C13_2 C6_2 1_555 1_555
H10_2 C13_2 1_555 1_555
H11_2 C13_2 1_555 1_555
C14_2 N6_2 1_555 1_555
H12_2 C14_2 1_555 1_555
C15_2 N5_2 1_555 1_555
H13_2 C15_2 1_555 1_555
C16_2 N6_2 1_555 1_555
H14_2 C16_2 1_555 1_555
C17_2 C18_2 1_555 1_555
C18_2 C19_2 1_555 1_555
C19_2 H15_2 1_555 1_555
C20_2 C18_2 1_555 1_555
H16_2 C20_2 1_555 1_555
C21_2 C19_2 1_555 1_555
C22_2 C20_2 1_555 1_555
H18_2 C22_2 1_555 1_555
O1_2 C17_2 1_555 1_555
O2_2 Zn4 1_555 1_555
N7_2 C38_2 1_555 1_555
N8_2 C33_2 1_555 1_555
N9_2 C41_2 1_555 1_555
N10_2 C35_2 1_555 1_555
N11_2 Zn2_3 1_555 1_555
N12_2 C44_2 1_555 1_555
C32_2 H22_2 1_555 1_555
C33_2 C32_2 1_555 1_555
C34_2 C33_2 1_555 1_555
H23_2 C34_2 1_555 1_555
C35_2 C34_2 1_555 1_555
C36_2 C35_2 1_555 1_555
H24_2 C36_2 1_555 1_555
C37_2 C32_2 1_555 1_555
C38_2 N8_2 1_555 1_555
H25_2 C38_2 1_555 1_555
C39_2 N7_2 1_555 1_555
H26_2 C39_2 1_555 1_555
C40_2 N8_2 1_555 1_555
H27_2 C40_2 1_555 1_555
C41_2 N10_2 1_555 1_555
H28_2 C41_2 1_555 1_555
C42_2 N9_2 1_555 1_555
C43_2 N10_2 1_555 1_555
H30_2 C43_2 1_555 1_555
C44_2 C37_2 1_555 1_555
H31_2 C44_2 1_555 1_555
H32_2 C44_2 1_555 1_555
C45_2 N11_2 1_555 1_555
H33_2 C45_2 1_555 1_555
C46_2 N11_2 1_555 1_555
H34_2 C46_2 1_555 1_555
C47_2 N12_2 1_555 1_555
H35_2 C47_2 1_555 1_555
N13_2 Zn4 1_555 1_555
O15_2 Zn2_3 1_555 1_555
O16_2 Zn2_3 1_555 1_555
O17_2 Zn2_3 1_555 1_555
O18_2 Zn2_3 1_555 1_555
C5_2 C6_2 1_555 1_555
C8_2 C9_2 1_555 1_555
C11_2 C12_2 1_555 1_555
C15_2 C16_2 1_555 1_555
C17_2 O2_2 1_555 1_555
N12_2 C45_2 1_555 1_555
C36_2 C37_2 1_555 1_555
C39_2 C40_2 1_555 1_555
C42_2 C43_2 1_555 1_555
C46_2 C47_2 1_555 1_555
C48_2 C49_2 1_555 1_555
C49_2 C50_2 1_555 1_555
C50_2 H36_2 1_555 1_555
C51_2 C49_2 1_555 1_555
H37_2 C51_2 1_555 1_555
C52_2 C50_2 1_555 1_555
C53_2 C51_2 1_555 1_555
H39_2 C53_2 1_555 1_555
O7_2 C48_2 1_555 1_555
O8_2 Zn5 1_555 1_555
N14_2 Zn5 1_555 1_555
C48_2 O8_2 1_555 1_555
C24_2 C23_2 1_555 1_555
C25_2 C24_2 1_555 1_555
H19_2 C25_2 1_555 1_555
C26_2 C24_2 1_555 1_555
H20_2 C26_2 1_555 1_555
C27_2 C25_2 1_555 1_555
C28_2 C26_2 1_555 1_555
C29_2 C27_2 1_555 1_555
H21_2 C29_2 1_555 1_555
C30_2 C28_2 1_555 1_555
C31_2 C27_2 1_555 1_555
O13 C30_2 1_555 1_555
O4_2 C30_2 1_555 1_555
O5_2 C31_2 1_555 1_555
O6_2 C31_2 1_555 1_555
Zn9_3 O5_2 1_555 1_555
C28_2 C29_2 1_555 1_555
O6_2 Zn9_3 1_555 1_555
C55_2 C54_2 1_555 1_555
C56_2 C55_2 1_555 1_555
H40_2 C56_2 1_555 1_555
C57_2 C55_2 1_555 1_555
H41_2 C57_2 1_555 1_555
C58_2 C56_2 1_555 1_555
C59_2 C57_2 1_555 1_555
C60_2 C58_2 1_555 1_555
H42_2 C60_2 1_555 1_555
C61_2 C59_2 1_555 1_555
C62_2 C58_2 1_555 1_555
O14 C61_2 1_555 1_555
O10_2 C61_2 1_555 1_555
O11_2 C62_2 1_555 1_555
O12_2 C62_2 1_555 1_555
Zn9_3 O11_2 1_555 1_555
C59_2 C60_2 1_555 1_555
O12_2 Zn9_3 1_555 1_555
C48_3 C49_3 1_555 1_555
C49_3 C50_3 1_555 1_555
C50_3 H36_3 1_555 1_555
C51_3 C49_3 1_555 1_555
H37_3 C51_3 1_555 1_555
C52_3 C50_3 1_555 1_555
H38_3 C52_3 1_555 1_555
C53_3 C51_3 1_555 1_555
H39_3 C53_3 1_555 1_555
C54_3 C52_3 1_555 1_555
C55_3 C54_3 1_555 1_555
C56_3 C55_3 1_555 1_555
H40_3 C56_3 1_555 1_555
O7_3 C48_3 1_555 1_555
O8_3 Zn7_2 1_555 1_555
O16 C62_3 1_555 1_555
O14_2 Zn7_2 1_555 1_555
C48_3 O8_3 1_555 1_555
C53_3 C54_3 1_555 1_555
H20_3 C26_3 1_555 1_555
C28_3 C26_3 1_555 1_555
C29_3 C27_3 1_555 1_555
H21_3 C29_3 1_555 1_555
C30_3 C28_3 1_555 1_555
O3_2 C30_3 1_555 1_555
O4_3 C30_3 1_555 1_555
C39_3 N7_3 1_555 1_555
H26_3 C39_3 1_555 1_555
H27_3 C40_3 1_555 1_555
Zn6 O3_2 1_555 1_555
C28_3 C29_3 1_555 1_555
C39_3 C40_3 1_555 1_555
N8_3 C33_3 1_555 1_555
N14_2 C41_3 1_555 1_555
N10_3 C35_3 1_555 1_555
N12_3 C44_3 1_555 1_555
C33_3 C32_3 1_555 1_555
C34_3 C33_3 1_555 1_555
H23_3 C34_3 1_555 1_555
C35_3 C34_3 1_555 1_555
C36_3 C35_3 1_555 1_555
H24_3 C36_3 1_555 1_555
C37_3 C32_3 1_555 1_555
C38_3 N8_3 1_555 1_555
H25_3 C38_3 1_555 1_555
C41_3 N10_3 1_555 1_555
H28_3 C41_3 1_555 1_555
C42_3 N14_2 1_555 1_555
H29_3 C42_3 1_555 1_555
C43_3 N10_3 1_555 1_555
H30_3 C43_3 1_555 1_555
C44_3 C37_3 1_555 1_555
H31_3 C44_3 1_555 1_555
H32_3 C44_3 1_555 1_555
C45_3 N11_3 1_555 1_555
C46_3 N11_3 1_555 1_555
H34_3 C46_3 1_555 1_555
C47_3 N12_3 1_555 1_555
H35_3 C47_3 1_555 1_555
N12_3 C45_3 1_555 1_555
C36_3 C37_3 1_555 1_555
C42_3 C43_3 1_555 1_555
C46_3 C47_3 1_555 1_555
H41_3 C57_3 1_555 1_555
C59_3 C57_3 1_555 1_555
C60_3 C58_3 1_555 1_555
H42_3 C60_3 1_555 1_555
C61_3 C59_3 1_555 1_555
O9_2 C61_3 1_555 1_555
O10_3 C61_3 1_555 1_555
Zn7 O9_2 1_555 1_555
C59_3 C60_3 1_555 1_555
Zn6_2 N1_3 1_555 1_555
C8_3 N1_3 1_555 1_555
H5_3 C8_3 1_555 1_555
H6_3 C9_3 1_555 1_555
C17_3 C18_3 1_555 1_555
C18_3 C19_3 1_555 1_555
C19_3 H15_3 1_555 1_555
C20_3 C18_3 1_555 1_555
H16_3 C20_3 1_555 1_555
C21_3 C19_3 1_555 1_555
H17_3 C21_3 1_555 1_555
C22_3 C20_3 1_555 1_555
H18_3 C22_3 1_555 1_555
C23_3 C21_3 1_555 1_555
C24_3 C23_3 1_555 1_555
C25_3 C24_3 1_555 1_555
H19_3 C25_3 1_555 1_555
O1_3 C17_3 1_555 1_555
O2_3 Zn6_2 1_555 1_555
O15 C31_3 1_555 1_555
O13_2 Zn6_2 1_555 1_555
C8_3 C9_3 1_555 1_555
C17_3 O2_3 1_555 1_555
C22_3 C23_3 1_555 1_555
N2_3 C2_3 1_555 1_555
N13_2 C10_3 1_555 1_555
N4_3 C4_3 1_555 1_555
N5_3 C14_3 1_555 1_555
N6_3 C13_3 1_555 1_555
C2_3 C1_3 1_555 1_555
C3_3 C2_3 1_555 1_555
H2_3 C3_3 1_555 1_555
C4_3 C3_3 1_555 1_555
C5_3 C4_3 1_555 1_555
H3_3 C5_3 1_555 1_555
C6_3 C1_3 1_555 1_555
C7_3 N2_3 1_555 1_555
H4_3 C7_3 1_555 1_555
C10_3 N4_3 1_555 1_555
H7_3 C10_3 1_555 1_555
C11_3 N13_2 1_555 1_555
H8_3 C11_3 1_555 1_555
C12_3 N4_3 1_555 1_555
H9_3 C12_3 1_555 1_555
C13_3 C6_3 1_555 1_555
H10_3 C13_3 1_555 1_555
H11_3 C13_3 1_555 1_555
C14_3 N6_3 1_555 1_555
C15_3 N5_3 1_555 1_555
H13_3 C15_3 1_555 1_555
C16_3 N6_3 1_555 1_555
H14_3 C16_3 1_555 1_555
C5_3 C6_3 1_555 1_555
C11_3 C12_3 1_555 1_555
C15_3 C16_3 1_555 1_555
C55_4 C54_4 1_555 1_555
C56_4 C55_4 1_555 1_555
H40_4 C56_4 1_555 1_555
C57_4 C55_4 1_555 1_555
H41_4 C57_4 1_555 1_555
C58_4 C56_4 1_555 1_555
C59_4 C57_4 1_555 1_555
C60_4 C58_4 1_555 1_555
H42_4 C60_4 1_555 1_555
C61_4 C59_4 1_555 1_555
C62_4 C58_4 1_555 1_555
O14_2 C61_4 1_555 1_555
O10_4 C61_4 1_555 1_555
O16_2 C62_4 1_555 1_555
O18_2 C62_4 1_555 1_555
C59_4 C60_4 1_555 1_555
C24_4 C23_4 1_555 1_555
C25_4 C24_4 1_555 1_555
H19_4 C25_4 1_555 1_555
C26_4 C24_4 1_555 1_555
H20_4 C26_4 1_555 1_555
C27_4 C25_4 1_555 1_555
C28_4 C26_4 1_555 1_555
C29_4 C27_4 1_555 1_555
H21_4 C29_4 1_555 1_555
C30_4 C28_4 1_555 1_555
C31_4 C27_4 1_555 1_555
O13_2 C30_4 1_555 1_555
O4_4 C30_4 1_555 1_555
O15_2 C31_4 1_555 1_555
O17_2 C31_4 1_555 1_555
C28_4 C29_4 1_555 1_555
C48_4 C49_4 1_555 1_555
C49_4 C50_4 1_555 1_555
C50_4 H36_4 1_555 1_555
C51_4 C49_4 1_555 1_555
H37_4 C51_4 1_555 1_555
C52_4 C50_4 1_555 1_555
C53_4 C51_4 1_555 1_555
H39_4 C53_4 1_555 1_555
O7_4 C48_4 1_555 1_555
O8_4 Zn7 1_555 1_555
C48_4 O8_4 1_555 1_555
Zn6 N1_4 1_555 1_555
Zn9_3 N5_4 1_555 1_555
N1_4 C7_4 1_555 1_555
N2_4 C2_4 1_555 1_555
N13 C10_4 1_555 1_555
N4_4 C4_4 1_555 1_555
N5_4 C14_4 1_555 1_555
N6_4 C13_4 1_555 1_555
C1_4 H1_4 1_555 1_555
C2_4 C1_4 1_555 1_555
C3_4 C2_4 1_555 1_555
H2_4 C3_4 1_555 1_555
C4_4 C3_4 1_555 1_555
C5_4 C4_4 1_555 1_555
H3_4 C5_4 1_555 1_555
C6_4 C1_4 1_555 1_555
C7_4 N2_4 1_555 1_555
H4_4 C7_4 1_555 1_555
C8_4 N1_4 1_555 1_555
H5_4 C8_4 1_555 1_555
C9_4 N2_4 1_555 1_555
H6_4 C9_4 1_555 1_555
C10_4 N4_4 1_555 1_555
H7_4 C10_4 1_555 1_555
C11_4 N13 1_555 1_555
C12_4 N4_4 1_555 1_555
H9_4 C12_4 1_555 1_555
C13_4 C6_4 1_555 1_555
H10_4 C13_4 1_555 1_555
H11_4 C13_4 1_555 1_555
C14_4 N6_4 1_555 1_555
H12_4 C14_4 1_555 1_555
C15_4 N5_4 1_555 1_555
H13_4 C15_4 1_555 1_555
C16_4 N6_4 1_555 1_555
H14_4 C16_4 1_555 1_555
C17_4 C18_4 1_555 1_555
C18_4 C19_4 1_555 1_555
C19_4 H15_4 1_555 1_555
C20_4 C18_4 1_555 1_555
H16_4 C20_4 1_555 1_555
C21_4 C19_4 1_555 1_555
C22_4 C20_4 1_555 1_555
H18_4 C22_4 1_555 1_555
O1_4 C17_4 1_555 1_555
O2_4 Zn6 1_555 1_555
N7_4 C38_4 1_555 1_555
N8_4 C33_4 1_555 1_555
N14 C41_4 1_555 1_555
N10_4 C35_4 1_555 1_555
N11_4 Zn9_3 1_555 1_555
N12_4 C44_4 1_555 1_555
C32_4 H22_4 1_555 1_555
C33_4 C32_4 1_555 1_555
C34_4 C33_4 1_555 1_555
H23_4 C34_4 1_555 1_555
C35_4 C34_4 1_555 1_555
C36_4 C35_4 1_555 1_555
H24_4 C36_4 1_555 1_555
C37_4 C32_4 1_555 1_555
C38_4 N8_4 1_555 1_555
H25_4 C38_4 1_555 1_555
C39_4 N7_4 1_555 1_555
H26_4 C39_4 1_555 1_555
C40_4 N8_4 1_555 1_555
H27_4 C40_4 1_555 1_555
C41_4 N10_4 1_555 1_555
H28_4 C41_4 1_555 1_555
C42_4 N14 1_555 1_555
C43_4 N10_4 1_555 1_555
H30_4 C43_4 1_555 1_555
C44_4 C37_4 1_555 1_555
H31_4 C44_4 1_555 1_555
H32_4 C44_4 1_555 1_555
C45_4 N11_4 1_555 1_555
H33_4 C45_4 1_555 1_555
C46_4 N11_4 1_555 1_555
H34_4 C46_4 1_555 1_555
C47_4 N12_4 1_555 1_555
H35_4 C47_4 1_555 1_555
C5_4 C6_4 1_555 1_555
C8_4 C9_4 1_555 1_555
C11_4 C12_4 1_555 1_555
C15_4 C16_4 1_555 1_555
C17_4 O2_4 1_555 1_555
N12_4 C45_4 1_555 1_555
C36_4 C37_4 1_555 1_555
C39_4 C40_4 1_555 1_555
C42_4 C43_4 1_555 1_555
C46_4 C47_4 1_555 1_555

#END
