
###############################################################################
#
# This file contains modified crystal structure data generated from the
# MOF subset of the Cambridge Structural Database (CSD) v543 
# hosted by the Cambridge Crystallographic Data Centre (CCDC).
#
# This work is licensed under the Creative Commons
# Attribution-NonCommercial-ShareAlike 4.0 International License.
# To view a copy of this license, visit
# http://creativecommons.org/licenses/by-nc-sa/4.0/
# or send a letter to
# Creative Commons, PO Box 1866, Mountain View, CA 94042, USA.
#
# CIF created using the CSD Python API on 29 September 2022
# The structure has been converted into the P1 space group
# The structure has a 3D framework
# The original CSD entry UQEVIY is in the orthorhombic crystal system
# The original CSD entry UQEVIY is in a Sohncke space group
# The framework has been calculated to contain at least 10.0% void space
# The void calculation uses a probe of radius 1.32A, grid spacing 0.4
#
###############################################################################

data_UQEVIY
_chemical_formula_moiety         '(C28 H24 N22 O23 Zn11)n'
_symmetry_cell_setting           triclinic
_symmetry_space_group_name_H-M   'P 1'
_symmetry_Int_Tables_number      1
_space_group_name_Hall           'P 1'
loop_
_symmetry_equiv_pos_site_id
_symmetry_equiv_pos_as_xyz
1 x,y,z
_cell_length_a                   7.7498(6)
_cell_length_b                   11.1124(8)
_cell_length_c                   20.6337(13)
_cell_angle_alpha                90
_cell_angle_beta                 90
_cell_angle_gamma                90
_cell_volume                     1776.95
loop_
_atom_site_label
_atom_site_type_symbol
_atom_site_fract_x
_atom_site_fract_y
_atom_site_fract_z
Zn1 Zn 0.4448(5) 0.0041(3) 0.28758(15)
O1 O 0.616(3) 0.0538(18) 0.3530(9)
H1 H 0.6916 0.1037 0.3337
H3 H 0.0698 0.1118 0.2765
O7 O 0.760(3) 0.0328(15) 0.4923(9)
O8 O 0.335(3) 0.1721(16) 0.2699(10)
Zn2 Zn 0.4365(5) 0.7221(3) 0.37414(16)
Zn3 Zn 0.7341(5) 0.9413(3) 0.40892(16)
O2 O 0.627(3) 0.7929(17) 0.4229(11)
H2 H 0.6240 0.7675 0.4641
O3 O 0.324(3) 0.6451(15) 0.4647(8)
O4 O 0.260(3) 0.4672(15) 0.5077(9)
O6 O 0.469(2) 0.3111(14) 0.2096(8)
N2 N 0.224(3) 0.936(2) 0.3254(12)
N3 N 0.228(4) 0.830(2) 0.3609(11)
N5 N 0.409(3) 0.545(2) 0.3517(10)
N6 N 0.433(3) 0.4756(15) 0.2990(9)
C1 C 0.070(4) 0.976(3) 0.3318(16)
C2 C 0.068(4) 0.821(3) 0.3853(16)
H5 H 0.0311 0.7556 0.4098
C3 C 0.310(4) 0.536(3) 0.4612(12)
C4 C 0.343(4) 0.477(2) 0.3969(12)
C5 C 0.322(4) 0.362(2) 0.3748(14)
H6 H 0.2816 0.2951 0.3972
C6 C 0.374(4) 0.369(2) 0.3122(13)
C7 C 0.387(4) 0.274(2) 0.2615(12)
Zn5 Zn 0.5552(5) 0.5041(3) 0.21242(15)
Zn6 Zn 0.5635(5) 0.2221(3) 0.12586(16)
Zn8 Zn 0.2341(5) 0.5587(3) 0.59108(16)
O9 O 0.531(2) 0.8111(14) 0.2904(8)
N7 N 0.969(3) 0.911(2) 0.3717(13)
N8 N 0.567(3) 0.9756(15) 0.2010(9)
O4_2 O 0.240(3) 0.5328(15) 0.0077(9)
Zn8_2 Zn 0.2659(5) 0.4413(3) 0.09108(16)
Zn2_2 Zn 0.0635(5) 0.2779(3) 0.87414(16)
O3_2 O 0.176(3) 0.3549(15) 0.9647(8)
O5 O 0.165(3) 0.8279(16) 0.7699(10)
O6_2 O 0.031(2) 0.6889(14) 0.7096(8)
N1 N 0.531(3) 0.089(2) 0.8717(13)
N2_2 N 0.276(3) 0.064(2) 0.8254(12)
N3_2 N 0.272(4) 0.170(2) 0.8609(11)
N5_2 N 0.091(3) 0.455(2) 0.8517(10)
N6_2 N 0.067(3) 0.5244(15) 0.7990(9)
C1_2 C 0.430(4) 0.024(3) 0.8318(16)
C2_2 C 0.432(4) 0.179(3) 0.8853(16)
H5_2 H 0.4689 0.2444 0.9098
C3_2 C 0.190(4) 0.464(3) 0.9612(12)
C4_2 C 0.157(4) 0.523(2) 0.8969(12)
C5_2 C 0.178(4) 0.638(2) 0.8748(14)
H6_2 H 0.2184 0.7049 0.8972
C6_2 C 0.126(4) 0.631(2) 0.8122(13)
C7_2 C 0.113(4) 0.726(2) 0.7615(12)
Zn4 Zn 0.0552(5) 0.9959(3) 0.78758(15)
Zn7 Zn 0.7659(5) 0.0587(3) 0.90892(16)
N4 N 0.503(4) 0.917(4) 0.805(2)
H3_2 H 0.4302 0.8882 0.7765
H4 H 0.6023 0.9365 0.7868
O2_2 O 0.873(3) 0.2071(17) 0.9229(11)
H2_2 H 0.8760 0.2325 0.9641
Zn5_2 Zn 0.9448(5) 0.4959(3) 0.71242(15)
Zn6_2 Zn 0.9365(5) 0.7779(3) 0.62586(16)
O9_2 O 0.969(2) 0.1889(14) 0.7904(8)
N8_2 N 0.933(3) 0.0244(15) 0.7010(9)
O1_2 O 0.116(3) 0.4462(18) 0.6470(9)
H1_2 H 0.1916 0.3963 0.6663
O2_3 O 0.127(3) 0.7071(17) 0.5771(11)
H2_3 H 0.1240 0.7325 0.5359
N7_2 N 0.469(3) 0.589(2) 0.6283(13)
O5_2 O 0.835(3) 0.3279(16) 0.7301(10)
C4_3 C 0.843(4) 0.023(2) 0.6031(12)
C5_3 C 0.822(4) 0.138(2) 0.6252(14)
H6_3 H 0.7816 0.2049 0.6028
C6_3 C 0.874(4) 0.131(2) 0.6878(13)
C7_3 C 0.887(4) 0.226(2) 0.7385(12)
O3_3 O 0.824(3) 0.8549(15) 0.5353(8)
N2_3 N 0.724(3) 0.564(2) 0.6746(12)
N3_3 N 0.728(4) 0.670(2) 0.6391(11)
N4_2 N 0.497(4) 0.417(4) 0.695(2)
H3_3 H 0.5698 0.3882 0.7235
H4_2 H 0.3977 0.4365 0.7132
N5_3 N 0.909(3) 0.955(2) 0.6483(10)
C1_3 C 0.570(4) 0.524(3) 0.6682(16)
C2_3 C 0.568(4) 0.679(3) 0.6147(16)
H5_3 H 0.5311 0.7444 0.5902
C3_3 C 0.810(4) 0.964(3) 0.5388(12)
N1_2 N 0.031(3) 0.411(2) 0.1283(13)
N4_3 N 0.003(4) 0.583(4) 0.195(2)
H4_3 H 0.1023 0.5635 0.2132
O1_3 O 0.384(3) 0.5538(18) 0.1470(9)
H1_3 H 0.3084 0.6037 0.1663
O2_4 O 0.373(3) 0.2929(17) 0.0771(11)
H2_4 H 0.3760 0.2675 0.0359
O3_4 O 0.676(3) 0.1451(15) 0.0353(8)
N2_4 N 0.776(3) 0.436(2) 0.1746(12)
N3_4 N 0.772(4) 0.330(2) 0.1391(11)
H3_4 H 0.9302 0.6118 0.2235
N5_4 N 0.591(3) 0.045(2) 0.1483(10)
C1_4 C 0.930(4) 0.476(3) 0.1682(16)
C2_4 C 0.932(4) 0.321(3) 0.1147(16)
H5_4 H 0.9689 0.2556 0.0902
C3_4 C 0.690(4) 0.036(3) 0.0388(12)
O8_2 O 0.665(3) 0.6721(16) 0.2301(10)
C4_4 C 0.657(4) 0.977(2) 0.1031(12)
C5_4 C 0.678(4) 0.862(2) 0.1252(14)
H6_4 H 0.7184 0.7951 0.1028
C6_4 C 0.626(4) 0.869(2) 0.1878(13)
C7_4 C 0.613(4) 0.774(2) 0.2385(12)
N4_4 N 0.997(4) 0.083(4) 0.305(2)
H4_4 H 0.8977 0.0635 0.2868
O1_4 O 0.884(3) 0.9462(18) 0.8530(9)
H1_4 H 0.8084 0.8963 0.8337
O7_2 O 0.740(3) 0.9672(15) 0.9923(9)
loop_
_geom_bond_atom_site_label_1
_geom_bond_atom_site_label_2
_geom_bond_site_symmetry_1
_geom_bond_site_symmetry_2
Zn1 O1 1_555 1_555
O1 H1 1_555 1_555
O8 Zn1 1_555 1_555
Zn2 O2 1_555 1_555
O2 Zn3 1_555 1_555
H2 O2 1_555 1_555
O3 Zn2 1_555 1_555
O4 C3 1_555 1_555
O8 C7 1_555 1_555
O6 C7 1_555 1_555
N3 Zn2 1_555 1_555
N5 Zn2 1_555 1_555
N6 N5 1_555 1_555
C1 N2 1_555 1_555
H5 C2 1_555 1_555
C3 O3 1_555 1_555
C4 N5 1_555 1_555
C5 C4 1_555 1_555
H6 C5 1_555 1_555
C6 N6 1_555 1_555
C7 C6 1_555 1_555
Zn5 O6 1_555 1_555
Zn6 O6 1_555 1_555
Zn8 O4 1_555 1_555
N7 Zn3 1_555 1_555
Zn2 O9 1_555 1_555
N2 N3 1_555 1_555
N3 C2 1_555 1_555
N6 Zn5 1_555 1_555
C3 C4 1_555 1_555
C5 C6 1_555 1_555
Zn8_2 O4_2 1_555 1_555
O3_2 Zn2_2 1_555 1_555
O5 C7_2 1_555 1_555
O6_2 C7_2 1_555 1_555
N1 C1_2 1_555 1_555
N3_2 Zn2_2 1_555 1_555
N5_2 Zn2_2 1_555 1_555
N6_2 N5_2 1_555 1_555
C1_2 N2_2 1_555 1_555
C2_2 N1 1_555 1_555
H5_2 C2_2 1_555 1_555
C3_2 O3_2 1_555 1_555
C4_2 N5_2 1_555 1_555
C5_2 C4_2 1_555 1_555
H6_2 C5_2 1_555 1_555
C6_2 N6_2 1_555 1_555
C7_2 C6_2 1_555 1_555
Zn4 O5 1_555 1_555
Zn7 N1 1_555 1_555
N2_2 N3_2 1_555 1_555
N3_2 C2_2 1_555 1_555
C3_2 C4_2 1_555 1_555
C5_2 C6_2 1_555 1_555
N4 H3_2 1_555 1_555
H4 N4 1_555 1_555
O2_2 Zn7 1_555 1_555
H2_2 O2_2 1_555 1_555
Zn8 O1_2 1_555 1_555
O1_2 H1_2 1_555 1_555
O2_3 Zn8 1_555 1_555
H2_3 O2_3 1_555 1_555
N7_2 Zn8 1_555 1_555
O5_2 C7_3 1_555 1_555
O9_2 C7_3 1_555 1_555
C5_3 C4_3 1_555 1_555
H6_3 C5_3 1_555 1_555
C6_3 N8_2 1_555 1_555
C7_3 C6_3 1_555 1_555
Zn5_2 O5_2 1_555 1_555
C5_3 C6_3 1_555 1_555
O3_3 Zn6_2 1_555 1_555
N7_2 C1_3 1_555 1_555
N2_3 Zn5_2 1_555 1_555
N3_3 Zn6_2 1_555 1_555
N4_2 H3_3 1_555 1_555
H4_2 N4_2 1_555 1_555
N5_3 Zn6_2 1_555 1_555
C1_3 N2_3 1_555 1_555
C2_3 N7_2 1_555 1_555
H5_3 C2_3 1_555 1_555
C3_3 O3_3 1_555 1_555
N2_3 N3_3 1_555 1_555
N3_3 C2_3 1_555 1_555
N4_2 C1_3 1_555 1_555
H4_3 N4_3 1_555 1_555
Zn8_2 N1_2 1_555 1_555
Zn5 O1_3 1_555 1_555
Zn6 O2_4 1_555 1_555
Zn8_2 O1_3 1_555 1_555
O1_3 H1_3 1_555 1_555
O2_4 Zn8_2 1_555 1_555
H2_4 O2_4 1_555 1_555
O3_4 Zn6 1_555 1_555
N2_4 Zn5 1_555 1_555
N3_4 Zn6 1_555 1_555
N5_4 Zn6 1_555 1_555
C1_4 N2_4 1_555 1_555
H5_4 C2_4 1_555 1_555
C3_4 O3_4 1_555 1_555
O8_2 Zn5 1_555 1_555
N2_4 N3_4 1_555 1_555
N3_4 C2_4 1_555 1_555
O8_2 C7_4 1_555 1_555
O9 C7_4 1_555 1_555
C5_4 C4_4 1_555 1_555
H6_4 C5_4 1_555 1_555
C6_4 N8 1_555 1_555
C7_4 C6_4 1_555 1_555
C5_4 C6_4 1_555 1_555
H4_4 N4_4 1_555 1_555
O1_4 H1_4 1_555 1_555

#END
