
###############################################################################
#
# This file contains modified crystal structure data generated from the
# MOF subset of the Cambridge Structural Database (CSD) v543 
# hosted by the Cambridge Crystallographic Data Centre (CCDC).
#
# This work is licensed under the Creative Commons
# Attribution-NonCommercial-ShareAlike 4.0 International License.
# To view a copy of this license, visit
# http://creativecommons.org/licenses/by-nc-sa/4.0/
# or send a letter to
# Creative Commons, PO Box 1866, Mountain View, CA 94042, USA.
#
# CIF created using the CSD Python API on 29 September 2022
# The structure has been converted into the P1 space group
# The structure has a 3D framework
# The original CSD entry UQIVIB is in the cubic crystal system
# The framework has been calculated to contain at least 10.0% void space
# The void calculation uses a probe of radius 1.32A, grid spacing 0.4
#
###############################################################################

data_UQIVIB
_chemical_formula_moiety         '(C360 H144 Hf24 O122)n'
_symmetry_cell_setting           triclinic
_symmetry_space_group_name_H-M   'P 1'
_symmetry_Int_Tables_number      1
_space_group_name_Hall           'P 1'
loop_
_symmetry_equiv_pos_site_id
_symmetry_equiv_pos_as_xyz
1 x,y,z
_cell_length_a                   26.060(3)
_cell_length_b                   26.060(3)
_cell_length_c                   26.060(3)
_cell_angle_alpha                90
_cell_angle_beta                 90
_cell_angle_gamma                90
_cell_volume                     17698
loop_
_atom_site_label
_atom_site_type_symbol
_atom_site_fract_x
_atom_site_fract_y
_atom_site_fract_z
Hf11 Hf 0.40820(2) 0.01490(2) 0.51770(2)
Hf1 Hf 0.01770(2) 0.40820(2) 0.48510(2)
O1 O 0.0474(2) 0.4526(2) 0.5474(2)
O3 O 0.0362(2) 0.3799(2) 0.4069(2)
O4 O 0.03458(18) 0.45429(18) 0.35475(17)
O5 O 0.0071(8) 0.2042(3) 0.2995(3)
O7 O 0.0162(2) 0.14697(16) 0.04801(16)
C1 C 0.0362(3) 0.4047(4) 0.3632(3)
C2 C 0.0383(4) 0.3721(3) 0.3162(3)
C3 C 0.0290(4) 0.3195(3) 0.3192(3)
H1 H 0.0245 0.3036 0.3509
C4 C 0.0267(6) 0.2920(4) 0.2756(3)
C5 C 0.0170(7) 0.2360(4) 0.2677(4)
C6 C 0.0178(6) 0.2283(3) 0.2100(3)
C7 C 0.0094(5) 0.1829(3) 0.1828(3)
H2 H 0.0021 0.1521 0.1992
C8 C 0.0126(5) 0.1867(3) 0.1301(3)
C9 C 0.0067(4) 0.1406(3) 0.0970(3)
C10 C 0.0241(8) 0.2337(3) 0.1052(3)
H3 H 0.0286 0.2346 0.0698
C11 C 0.0286(10) 0.2785(5) 0.1340(4)
H4 H 0.0327 0.3102 0.1180
C12 C 0.0268(7) 0.2746(4) 0.1875(4)
C13 C 0.0346(7) 0.3146(4) 0.2279(4)
C14 C 0.0449(8) 0.3665(4) 0.2248(4)
H5 H 0.0506 0.3819 0.1931
C15 C 0.0464(6) 0.3948(4) 0.2688(3)
H6 H 0.0531 0.4298 0.2670
Hf3 Hf 0.09180(2) 0.51490(2) 0.51770(2)
O14 O 0.0447(2) 0.5625(2) 0.46994(17)
O15 O 0.1201(2) 0.5931(2) 0.5362(2)
O16 O 0.04571(18) 0.64525(17) 0.53458(18)
O17 O 0.2958(3) 0.7005(3) 0.5071(8)
O18 O 0.4023(2) 0.8780(2) 0.4924(2)
O19 O 0.35303(16) 0.95199(16) 0.5162(2)
C31 C 0.0953(4) 0.6368(3) 0.5362(3)
C32 C 0.1279(3) 0.6838(3) 0.5383(4)
C33 C 0.1805(3) 0.6808(3) 0.5290(4)
H13 H 0.1964 0.6491 0.5245
C34 C 0.2080(4) 0.7244(3) 0.5267(6)
C35 C 0.2640(4) 0.7323(4) 0.5170(7)
C36 C 0.2717(3) 0.7900(3) 0.5178(6)
C37 C 0.3171(3) 0.8172(3) 0.5094(5)
H14 H 0.3479 0.8008 0.5021
C38 C 0.3133(3) 0.8699(3) 0.5126(5)
C39 C 0.3594(3) 0.9030(3) 0.5067(4)
C40 C 0.2663(3) 0.8948(3) 0.5241(8)
H15 H 0.2654 0.9302 0.5286
C41 C 0.2215(5) 0.8660(4) 0.5286(10)
H16 H 0.1898 0.8820 0.5327
C42 C 0.2254(4) 0.8125(4) 0.5268(7)
C43 C 0.1854(4) 0.7721(4) 0.5346(7)
C44 C 0.1335(4) 0.7752(4) 0.5449(8)
H17 H 0.1181 0.8069 0.5506
C45 C 0.1052(4) 0.7312(3) 0.5464(6)
H18 H 0.0702 0.7330 0.5531
Hf5 Hf 0.48230(2) 0.90820(2) 0.48510(2)
Hf8 Hf 0.01490(2) 0.51770(2) 0.40820(2)
O20 O 0.03006(17) 0.5447(2) 0.5625(2)
O21 O 0.0625(2) 0.46994(17) 0.4553(2)
O24 O 0.14525(17) 0.53458(18) 0.45429(18)
O27 O 0.1220(2) 0.5076(2) 0.5977(2)
O28 O 0.0977(2) 0.3780(2) 0.4924(2)
O29 O 0.0162(2) 0.35303(16) 0.54801(16)
O30 O 0.04801(16) 0.4838(2) 0.64697(16)
O31 O 0.14697(16) 0.45199(16) 0.5162(2)
Hf6 Hf 0.01770(2) 0.09180(2) 0.98510(2)
O2 O 0.96994(17) 0.4553(2) 0.4375(2)
O6 O 0.9924(2) 0.0977(2) 0.1220(2)
Hf2 Hf 0.98510(2) 0.48230(2) 0.59180(2)
O8 O 0.9375(2) 0.53006(17) 0.5447(2)
O9 O 0.9069(2) 0.4638(2) 0.6201(2)
O10 O 0.85475(17) 0.46542(18) 0.54571(18)
O11 O 0.7995(3) 0.4929(8) 0.7958(3)
O12 O 0.6220(2) 0.5076(2) 0.9023(2)
O13 O 0.54801(16) 0.4838(2) 0.85303(16)
C16 C 0.8632(3) 0.4638(3) 0.5953(4)
C17 C 0.8162(3) 0.4617(4) 0.6279(3)
C18 C 0.8192(3) 0.4710(4) 0.6805(3)
H7 H 0.8509 0.4755 0.6964
C19 C 0.7756(3) 0.4733(6) 0.7080(4)
C20 C 0.7677(4) 0.4830(7) 0.7640(4)
C21 C 0.7100(3) 0.4822(6) 0.7717(3)
C22 C 0.6828(3) 0.4906(5) 0.8171(3)
H8 H 0.6992 0.4979 0.8479
C23 C 0.6301(3) 0.4874(5) 0.8133(3)
C24 C 0.5970(3) 0.4933(4) 0.8594(3)
C25 C 0.6052(3) 0.4759(8) 0.7663(3)
H9 H 0.5698 0.4714 0.7654
C26 C 0.6340(4) 0.4714(10) 0.7215(5)
H10 H 0.6180 0.4673 0.6898
C27 C 0.6875(4) 0.4732(7) 0.7254(4)
C28 C 0.7279(4) 0.4654(7) 0.6854(4)
C29 C 0.7248(4) 0.4551(8) 0.6335(4)
H11 H 0.6931 0.4494 0.6181
C30 C 0.7688(3) 0.4536(6) 0.6052(4)
H12 H 0.7670 0.4469 0.5702
Hf4 Hf 0.98230(2) 0.59180(2) 0.51490(2)
Hf7 Hf 0.98510(2) 0.01770(2) 0.09180(2)
Hf9 Hf 0.48510(2) 0.48230(2) 0.90820(2)
Hf10 Hf 0.59180(2) 0.51490(2) 0.98230(2)
Hf12 Hf 0.90820(2) 0.48510(2) 0.48230(2)
O22 O 0.9553(2) 0.4375(2) 0.53006(17)
O23 O 0.96542(18) 0.54571(18) 0.64525(17)
O25 O 0.95429(18) 0.35475(17) 0.46542(18)
O26 O 0.9924(2) 0.4023(2) 0.6220(2)
O1_2 O 0.4526(2) 0.5474(2) 0.0474(2)
Hf2_2 Hf 0.51490(2) 0.51770(2) 0.09180(2)
O8_2 O 0.5625(2) 0.46994(17) 0.0447(2)
O9_2 O 0.5931(2) 0.5362(2) 0.1201(2)
O10_2 O 0.64525(17) 0.53458(18) 0.04571(18)
O11_2 O 0.7005(3) 0.5071(8) 0.2958(3)
O12_2 O 0.8780(2) 0.4924(2) 0.4023(2)
O13_2 O 0.95199(16) 0.5162(2) 0.35303(16)
C16_2 C 0.6368(3) 0.5362(3) 0.0953(4)
C17_2 C 0.6838(3) 0.5383(4) 0.1279(3)
C18_2 C 0.6808(3) 0.5290(4) 0.1805(3)
H7_2 H 0.6491 0.5245 0.1964
C19_2 C 0.7244(3) 0.5267(6) 0.2080(4)
C20_2 C 0.7323(4) 0.5170(7) 0.2640(4)
C21_2 C 0.7900(3) 0.5178(6) 0.2717(3)
C22_2 C 0.8172(3) 0.5094(5) 0.3171(3)
H8_2 H 0.8008 0.5021 0.3479
C23_2 C 0.8699(3) 0.5126(5) 0.3133(3)
C24_2 C 0.9030(3) 0.5067(4) 0.3594(3)
C25_2 C 0.8948(3) 0.5241(8) 0.2663(3)
H9_2 H 0.9302 0.5286 0.2654
C26_2 C 0.8660(4) 0.5286(10) 0.2215(5)
H10_2 H 0.8820 0.5327 0.1898
C27_2 C 0.8125(4) 0.5268(7) 0.2254(4)
C28_2 C 0.7721(4) 0.5346(7) 0.1854(4)
C29_2 C 0.7752(4) 0.5449(8) 0.1335(4)
H11_2 H 0.8069 0.5506 0.1181
C30_2 C 0.7312(3) 0.5464(6) 0.1052(4)
H12_2 H 0.7330 0.5531 0.0702
Hf3_2 Hf 0.40820(2) 0.48510(2) 0.01770(2)
O15_2 O 0.3799(2) 0.4069(2) 0.0362(2)
O16_2 O 0.45429(18) 0.35475(17) 0.03458(18)
O17_2 O 0.2042(3) 0.2995(3) 0.0071(8)
O19_2 O 0.14697(16) 0.04801(16) 0.0162(2)
C31_2 C 0.4047(4) 0.3632(3) 0.0362(3)
C32_2 C 0.3721(3) 0.3162(3) 0.0383(4)
C33_2 C 0.3195(3) 0.3192(3) 0.0290(4)
H13_2 H 0.3036 0.3509 0.0245
C34_2 C 0.2920(4) 0.2756(3) 0.0267(6)
C35_2 C 0.2360(4) 0.2677(4) 0.0170(7)
C36_2 C 0.2283(3) 0.2100(3) 0.0178(6)
C37_2 C 0.1829(3) 0.1828(3) 0.0094(5)
H14_2 H 0.1521 0.1992 0.0021
C38_2 C 0.1867(3) 0.1301(3) 0.0126(5)
C39_2 C 0.1406(3) 0.0970(3) 0.0067(4)
C40_2 C 0.2337(3) 0.1052(3) 0.0241(8)
H15_2 H 0.2346 0.0698 0.0286
C41_2 C 0.2785(5) 0.1340(4) 0.0286(10)
H16_2 H 0.3102 0.1180 0.0327
C42_2 C 0.2746(4) 0.1875(4) 0.0268(7)
C43_2 C 0.3146(4) 0.2279(4) 0.0346(7)
C44_2 C 0.3665(4) 0.2248(4) 0.0449(8)
H17_2 H 0.3819 0.1931 0.0506
C45_2 C 0.3948(4) 0.2688(3) 0.0464(6)
H18_2 H 0.4298 0.2670 0.0531
Hf4_2 Hf 0.51770(2) 0.40820(2) 0.01490(2)
O20_2 O 0.46994(17) 0.4553(2) 0.0625(2)
O22_2 O 0.5447(2) 0.5625(2) 0.03006(17)
O23_2 O 0.53458(18) 0.45429(18) 0.14525(17)
O26_2 O 0.5076(2) 0.5977(2) 0.1220(2)
O27_2 O 0.3780(2) 0.4924(2) 0.0977(2)
O29_2 O 0.4838(2) 0.64697(16) 0.04801(16)
O30_2 O 0.45199(16) 0.5162(2) 0.14697(16)
O31_2 O 0.35303(16) 0.54801(16) 0.0162(2)
Hf1_2 Hf 0.48230(2) 0.59180(2) 0.98510(2)
O2_2 O 0.53006(17) 0.5447(2) 0.9375(2)
O3_2 O 0.4638(2) 0.6201(2) 0.9069(2)
O4_2 O 0.46542(18) 0.54571(18) 0.85475(17)
O5_2 O 0.4929(8) 0.7958(3) 0.7995(3)
O6_2 O 0.5076(2) 0.9023(2) 0.6220(2)
O7_2 O 0.4838(2) 0.85303(16) 0.54801(16)
C1_2 C 0.4638(3) 0.5953(4) 0.8632(3)
C2_2 C 0.4617(4) 0.6279(3) 0.8162(3)
C3_2 C 0.4710(4) 0.6805(3) 0.8192(3)
H1_2 H 0.4755 0.6964 0.8509
C4_2 C 0.4733(6) 0.7080(4) 0.7756(3)
C5_2 C 0.4830(7) 0.7640(4) 0.7677(4)
C6_2 C 0.4822(6) 0.7717(3) 0.7100(3)
C7_2 C 0.4906(5) 0.8171(3) 0.6828(3)
H2_2 H 0.4979 0.8479 0.6992
C8_2 C 0.4874(5) 0.8133(3) 0.6301(3)
C9_2 C 0.4933(4) 0.8594(3) 0.5970(3)
C10_2 C 0.4759(8) 0.7663(3) 0.6052(3)
H3_2 H 0.4714 0.7654 0.5698
C11_2 C 0.4714(10) 0.7215(5) 0.6340(4)
H4_2 H 0.4673 0.6898 0.6180
C12_2 C 0.4732(7) 0.7254(4) 0.6875(4)
C13_2 C 0.4654(7) 0.6854(4) 0.7279(4)
C14_2 C 0.4551(8) 0.6335(4) 0.7248(4)
H5_2 H 0.4494 0.6181 0.6931
C15_2 C 0.4536(6) 0.6052(4) 0.7688(3)
H6_2 H 0.4469 0.5702 0.7670
O14_2 O 0.4553(2) 0.4375(2) 0.96994(17)
O18_2 O 0.0977(2) 0.1220(2) 0.9924(2)
Hf7_2 Hf 0.51490(2) 0.98230(2) 0.59180(2)
O21_2 O 0.4375(2) 0.53006(17) 0.9553(2)
O24_2 O 0.35475(17) 0.46542(18) 0.95429(18)
O25_2 O 0.54571(18) 0.64525(17) 0.96542(18)
O28_2 O 0.4023(2) 0.6220(2) 0.9924(2)
Hf11_2 Hf 0.09180(2) 0.98510(2) 0.01770(2)
Hf1_3 Hf 0.51770(2) 0.09180(2) 0.51490(2)
O1_3 O 0.5474(2) 0.0474(2) 0.4526(2)
O2_3 O 0.46994(17) 0.0447(2) 0.5625(2)
O3_3 O 0.5362(2) 0.1201(2) 0.5931(2)
O4_3 O 0.53458(18) 0.04571(18) 0.64525(17)
O5_3 O 0.5071(8) 0.2958(3) 0.7005(3)
O6_3 O 0.4924(2) 0.4023(2) 0.8780(2)
O7_3 O 0.5162(2) 0.35303(16) 0.95199(16)
C1_3 C 0.5362(3) 0.0953(4) 0.6368(3)
C2_3 C 0.5383(4) 0.1279(3) 0.6838(3)
C3_3 C 0.5290(4) 0.1805(3) 0.6808(3)
H1_3 H 0.5245 0.1964 0.6491
C4_3 C 0.5267(6) 0.2080(4) 0.7244(3)
C5_3 C 0.5170(7) 0.2640(4) 0.7323(4)
C6_3 C 0.5178(6) 0.2717(3) 0.7900(3)
C7_3 C 0.5094(5) 0.3171(3) 0.8172(3)
H2_3 H 0.5021 0.3479 0.8008
C8_3 C 0.5126(5) 0.3133(3) 0.8699(3)
C9_3 C 0.5067(4) 0.3594(3) 0.9030(3)
C10_3 C 0.5241(8) 0.2663(3) 0.8948(3)
H3_3 H 0.5286 0.2654 0.9302
C11_3 C 0.5286(10) 0.2215(5) 0.8660(4)
H4_3 H 0.5327 0.1898 0.8820
C12_3 C 0.5268(7) 0.2254(4) 0.8125(4)
C13_3 C 0.5346(7) 0.1854(4) 0.7721(4)
C14_3 C 0.5449(8) 0.1335(4) 0.7752(4)
H5_3 H 0.5506 0.1181 0.8069
C15_3 C 0.5464(6) 0.1052(4) 0.7312(3)
H6_3 H 0.5531 0.0702 0.7330
Hf2_3 Hf 0.48510(2) 0.01770(2) 0.40820(2)
O9_3 O 0.4069(2) 0.0362(2) 0.3799(2)
O10_3 O 0.35475(17) 0.03458(18) 0.45429(18)
O11_3 O 0.2995(3) 0.0071(8) 0.2042(3)
O13_3 O 0.04801(16) 0.0162(2) 0.14697(16)
C16_3 C 0.3632(3) 0.0362(3) 0.4047(4)
C17_3 C 0.3162(3) 0.0383(4) 0.3721(3)
C18_3 C 0.3192(3) 0.0290(4) 0.3195(3)
H7_3 H 0.3509 0.0245 0.3036
C19_3 C 0.2756(3) 0.0267(6) 0.2920(4)
C20_3 C 0.2677(4) 0.0170(7) 0.2360(4)
C21_3 C 0.2100(3) 0.0178(6) 0.2283(3)
C22_3 C 0.1828(3) 0.0094(5) 0.1829(3)
H8_3 H 0.1992 0.0021 0.1521
C23_3 C 0.1301(3) 0.0126(5) 0.1867(3)
C24_3 C 0.0970(3) 0.0067(4) 0.1406(3)
C25_3 C 0.1052(3) 0.0241(8) 0.2337(3)
H9_3 H 0.0698 0.0286 0.2346
C26_3 C 0.1340(4) 0.0286(10) 0.2785(5)
H10_3 H 0.1180 0.0327 0.3102
C27_3 C 0.1875(4) 0.0268(7) 0.2746(4)
C28_3 C 0.2279(4) 0.0346(7) 0.3146(4)
C29_3 C 0.2248(4) 0.0449(8) 0.3665(4)
H11_3 H 0.1931 0.0506 0.3819
C30_3 C 0.2688(3) 0.0464(6) 0.3948(4)
H12_3 H 0.2670 0.0531 0.4298
O21_3 O 0.5625(2) 0.03006(17) 0.5447(2)
O22_3 O 0.4553(2) 0.0625(2) 0.46994(17)
O25_3 O 0.45429(18) 0.14525(17) 0.53458(18)
O26_3 O 0.4924(2) 0.0977(2) 0.3780(2)
O28_3 O 0.5977(2) 0.1220(2) 0.5076(2)
O29_3 O 0.5162(2) 0.14697(16) 0.45199(16)
O30_3 O 0.54801(16) 0.0162(2) 0.35303(16)
O31_3 O 0.64697(16) 0.04801(16) 0.4838(2)
O8_3 O 0.4375(2) 0.96994(17) 0.4553(2)
O12_3 O 0.1220(2) 0.9924(2) 0.0977(2)
Hf3_3 Hf 0.59180(2) 0.98510(2) 0.48230(2)
O14_3 O 0.5447(2) 0.9375(2) 0.53006(17)
O15_3 O 0.6201(2) 0.9069(2) 0.4638(2)
O16_3 O 0.54571(18) 0.85475(17) 0.46542(18)
O17_3 O 0.7958(3) 0.7995(3) 0.4929(8)
O18_3 O 0.9023(2) 0.6220(2) 0.5076(2)
O19_3 O 0.85303(16) 0.54801(16) 0.4838(2)
C31_3 C 0.5953(4) 0.8632(3) 0.4638(3)
C32_3 C 0.6279(3) 0.8162(3) 0.4617(4)
C33_3 C 0.6805(3) 0.8192(3) 0.4710(4)
H13_3 H 0.6964 0.8509 0.4755
C34_3 C 0.7080(4) 0.7756(3) 0.4733(6)
C35_3 C 0.7640(4) 0.7677(4) 0.4830(7)
C36_3 C 0.7717(3) 0.7100(3) 0.4822(6)
C37_3 C 0.8171(3) 0.6828(3) 0.4906(5)
H14_3 H 0.8479 0.6992 0.4979
C38_3 C 0.8133(3) 0.6301(3) 0.4874(5)
C39_3 C 0.8594(3) 0.5970(3) 0.4933(4)
C40_3 C 0.7663(3) 0.6052(3) 0.4759(8)
H15_3 H 0.7654 0.5698 0.4714
C41_3 C 0.7215(5) 0.6340(4) 0.4714(10)
H16_3 H 0.6898 0.6180 0.4673
C42_3 C 0.7254(4) 0.6875(4) 0.4732(7)
C43_3 C 0.6854(4) 0.7279(4) 0.4654(7)
C44_3 C 0.6335(4) 0.7248(4) 0.4551(8)
H17_3 H 0.6181 0.6931 0.4494
C45_3 C 0.6052(4) 0.7688(3) 0.4536(6)
H18_3 H 0.5702 0.7670 0.4469
O20_3 O 0.53006(17) 0.9553(2) 0.4375(2)
O23_3 O 0.46542(18) 0.95429(18) 0.35475(17)
O24_3 O 0.64525(17) 0.96542(18) 0.54571(18)
O27_3 O 0.6220(2) 0.9924(2) 0.4023(2)
O8_4 O 0.0625(2) 0.03006(17) 0.9553(2)
O12_4 O 0.3780(2) 0.0076(2) 0.5977(2)
O23_4 O 0.03458(18) 0.04571(18) 0.85475(17)
O2_4 O 0.03006(17) 0.9553(2) 0.0625(2)
O6_4 O 0.0076(2) 0.5977(2) 0.3780(2)
O25_4 O 0.04571(18) 0.85475(17) 0.03458(18)
Hf2_4 Hf 0.01490(2) 0.98230(2) 0.90820(2)
O9_4 O 0.0931(2) 0.9638(2) 0.8799(2)
O10_4 O 0.14525(17) 0.96542(18) 0.95429(18)
O11_4 O 0.2005(3) 0.9929(8) 0.7042(3)
O13_4 O 0.45199(16) 0.9838(2) 0.64697(16)
C16_4 C 0.1368(3) 0.9638(3) 0.9047(4)
C17_4 C 0.1838(3) 0.9617(4) 0.8721(3)
C18_4 C 0.1808(3) 0.9710(4) 0.8195(3)
H7_4 H 0.1491 0.9755 0.8036
C19_4 C 0.2244(3) 0.9733(6) 0.7920(4)
C20_4 C 0.2323(4) 0.9830(7) 0.7360(4)
C21_4 C 0.2900(3) 0.9822(6) 0.7283(3)
C22_4 C 0.3172(3) 0.9906(5) 0.6829(3)
H8_4 H 0.3008 0.9979 0.6521
C23_4 C 0.3699(3) 0.9874(5) 0.6867(3)
C24_4 C 0.4030(3) 0.9933(4) 0.6406(3)
C25_4 C 0.3948(3) 0.9759(8) 0.7337(3)
H9_4 H 0.4302 0.9714 0.7346
C26_4 C 0.3660(4) 0.9714(10) 0.7785(5)
H10_4 H 0.3820 0.9673 0.8102
C27_4 C 0.3125(4) 0.9732(7) 0.7746(4)
C28_4 C 0.2721(4) 0.9654(7) 0.8146(4)
C29_4 C 0.2752(4) 0.9551(8) 0.8665(4)
H11_4 H 0.3069 0.9494 0.8819
C30_4 C 0.2312(3) 0.9536(6) 0.8948(4)
H12_4 H 0.2330 0.9469 0.9298
O22_4 O 0.0447(2) 0.9375(2) 0.96994(17)
O26_4 O 0.0076(2) 0.9023(2) 0.8780(2)
O14_4 O 0.9553(2) 0.0625(2) 0.03006(17)
O18_4 O 0.5977(2) 0.3780(2) 0.0076(2)
O24_4 O 0.85475(17) 0.03458(18) 0.04571(18)
Hf3_4 Hf 0.90820(2) 0.01490(2) 0.98230(2)
O15_4 O 0.8799(2) 0.0931(2) 0.9638(2)
O16_4 O 0.95429(18) 0.14525(17) 0.96542(18)
O17_4 O 0.7042(3) 0.2005(3) 0.9929(8)
O19_4 O 0.64697(16) 0.45199(16) 0.9838(2)
C31_4 C 0.9047(4) 0.1368(3) 0.9638(3)
C32_4 C 0.8721(3) 0.1838(3) 0.9617(4)
C33_4 C 0.8195(3) 0.1808(3) 0.9710(4)
H13_4 H 0.8036 0.1491 0.9755
C34_4 C 0.7920(4) 0.2244(3) 0.9733(6)
C35_4 C 0.7360(4) 0.2323(4) 0.9830(7)
C36_4 C 0.7283(3) 0.2900(3) 0.9822(6)
C37_4 C 0.6829(3) 0.3172(3) 0.9906(5)
H14_4 H 0.6521 0.3008 0.9979
C38_4 C 0.6867(3) 0.3699(3) 0.9874(5)
C39_4 C 0.6406(3) 0.4030(3) 0.9933(4)
C40_4 C 0.7337(3) 0.3948(3) 0.9759(8)
H15_4 H 0.7346 0.4302 0.9714
C41_4 C 0.7785(5) 0.3660(4) 0.9714(10)
H16_4 H 0.8102 0.3820 0.9673
C42_4 C 0.7746(4) 0.3125(4) 0.9732(7)
C43_4 C 0.8146(4) 0.2721(4) 0.9654(7)
C44_4 C 0.8665(4) 0.2752(4) 0.9551(8)
H17_4 H 0.8819 0.3069 0.9494
C45_4 C 0.8948(4) 0.2312(3) 0.9536(6)
H18_4 H 0.9298 0.2330 0.9469
O20_4 O 0.96994(17) 0.0447(2) 0.9375(2)
O27_4 O 0.8780(2) 0.0076(2) 0.9023(2)
Hf1_4 Hf 0.98230(2) 0.90820(2) 0.01490(2)
O3_4 O 0.9638(2) 0.8799(2) 0.0931(2)
O4_4 O 0.96542(18) 0.95429(18) 0.14525(17)
O5_4 O 0.9929(8) 0.7042(3) 0.2005(3)
O7_4 O 0.9838(2) 0.64697(16) 0.45199(16)
C1_4 C 0.9638(3) 0.9047(4) 0.1368(3)
C2_4 C 0.9617(4) 0.8721(3) 0.1838(3)
C3_4 C 0.9710(4) 0.8195(3) 0.1808(3)
H1_4 H 0.9755 0.8036 0.1491
C4_4 C 0.9733(6) 0.7920(4) 0.2244(3)
C5_4 C 0.9830(7) 0.7360(4) 0.2323(4)
C6_4 C 0.9822(6) 0.7283(3) 0.2900(3)
C7_4 C 0.9906(5) 0.6829(3) 0.3172(3)
H2_4 H 0.9979 0.6521 0.3008
C8_4 C 0.9874(5) 0.6867(3) 0.3699(3)
C9_4 C 0.9933(4) 0.6406(3) 0.4030(3)
C10_4 C 0.9759(8) 0.7337(3) 0.3948(3)
H3_4 H 0.9714 0.7346 0.4302
C11_4 C 0.9714(10) 0.7785(5) 0.3660(4)
H4_4 H 0.9673 0.8102 0.3820
C12_4 C 0.9732(7) 0.7746(4) 0.3125(4)
C13_4 C 0.9654(7) 0.8146(4) 0.2721(4)
C14_4 C 0.9551(8) 0.8665(4) 0.2752(4)
H5_4 H 0.9494 0.8819 0.3069
C15_4 C 0.9536(6) 0.8948(4) 0.2312(3)
H6_4 H 0.9469 0.9298 0.2330
O21_4 O 0.9375(2) 0.96994(17) 0.0447(2)
O28_4 O 0.9023(2) 0.8780(2) 0.0076(2)
O1_4 O 0.9526(2) 0.9526(2) 0.9526(2)
O29_4 O 0.9838(2) 0.85303(16) 0.95199(16)
O30_4 O 0.95199(16) 0.9838(2) 0.85303(16)
O31_4 O 0.85303(16) 0.95199(16) 0.9838(2)
O9_5 O 0.0931(2) 0.5362(2) 0.3799(2)
O11_5 O 0.2005(3) 0.5071(8) 0.2042(3)
C16_5 C 0.1368(3) 0.5362(3) 0.4047(4)
C17_5 C 0.1838(3) 0.5383(4) 0.3721(3)
C18_5 C 0.1808(3) 0.5290(4) 0.3195(3)
H7_5 H 0.1491 0.5245 0.3036
C19_5 C 0.2244(3) 0.5267(6) 0.2920(4)
C20_5 C 0.2323(4) 0.5170(7) 0.2360(4)
C21_5 C 0.2900(3) 0.5178(6) 0.2283(3)
C22_5 C 0.3172(3) 0.5094(5) 0.1829(3)
H8_5 H 0.3008 0.5021 0.1521
C23_5 C 0.3699(3) 0.5126(5) 0.1867(3)
C24_5 C 0.4030(3) 0.5067(4) 0.1406(3)
C25_5 C 0.3948(3) 0.5241(8) 0.2337(3)
H9_5 H 0.4302 0.5286 0.2346
C26_5 C 0.3660(4) 0.5286(10) 0.2785(5)
H10_5 H 0.3820 0.5327 0.3102
C27_5 C 0.3125(4) 0.5268(7) 0.2746(4)
C28_5 C 0.2721(4) 0.5346(7) 0.3146(4)
C29_5 C 0.2752(4) 0.5449(8) 0.3665(4)
H11_5 H 0.3069 0.5506 0.3819
C30_5 C 0.2312(3) 0.5464(6) 0.3948(4)
H12_5 H 0.2330 0.5531 0.4298
O1_5 O 0.9526(2) 0.5474(2) 0.4526(2)
O3_5 O 0.9638(2) 0.6201(2) 0.5931(2)
O5_5 O 0.9929(8) 0.7958(3) 0.7005(3)
C1_5 C 0.9638(3) 0.5953(4) 0.6368(3)
C2_5 C 0.9617(4) 0.6279(3) 0.6838(3)
C3_5 C 0.9710(4) 0.6805(3) 0.6808(3)
H1_5 H 0.9755 0.6964 0.6491
C4_5 C 0.9733(6) 0.7080(4) 0.7244(3)
C5_5 C 0.9830(7) 0.7640(4) 0.7323(4)
C6_5 C 0.9822(6) 0.7717(3) 0.7900(3)
C7_5 C 0.9906(5) 0.8171(3) 0.8172(3)
H2_5 H 0.9979 0.8479 0.8008
C8_5 C 0.9874(5) 0.8133(3) 0.8699(3)
C9_5 C 0.9933(4) 0.8594(3) 0.9030(3)
C10_5 C 0.9759(8) 0.7663(3) 0.8948(3)
H3_5 H 0.9714 0.7654 0.9302
C11_5 C 0.9714(10) 0.7215(5) 0.8660(4)
H4_5 H 0.9673 0.6898 0.8820
C12_5 C 0.9732(7) 0.7254(4) 0.8125(4)
C13_5 C 0.9654(7) 0.6854(4) 0.7721(4)
C14_5 C 0.9551(8) 0.6335(4) 0.7752(4)
H5_5 H 0.9494 0.6181 0.8069
C15_5 C 0.9536(6) 0.6052(4) 0.7312(3)
H6_5 H 0.9469 0.5702 0.7330
O15_5 O 0.8799(2) 0.4069(2) 0.4638(2)
O17_5 O 0.7042(3) 0.2995(3) 0.4929(8)
C31_5 C 0.9047(4) 0.3632(3) 0.4638(3)
C32_5 C 0.8721(3) 0.3162(3) 0.4617(4)
C33_5 C 0.8195(3) 0.3192(3) 0.4710(4)
H13_5 H 0.8036 0.3509 0.4755
C34_5 C 0.7920(4) 0.2756(3) 0.4733(6)
C35_5 C 0.7360(4) 0.2677(4) 0.4830(7)
C36_5 C 0.7283(3) 0.2100(3) 0.4822(6)
C37_5 C 0.6829(3) 0.1828(3) 0.4906(5)
H14_5 H 0.6521 0.1992 0.4979
C38_5 C 0.6867(3) 0.1301(3) 0.4874(5)
C39_5 C 0.6406(3) 0.0970(3) 0.4933(4)
C40_5 C 0.7337(3) 0.1052(3) 0.4759(8)
H15_5 H 0.7346 0.0698 0.4714
C41_5 C 0.7785(5) 0.1340(4) 0.4714(10)
H16_5 H 0.8102 0.1180 0.4673
C42_5 C 0.7746(4) 0.1875(4) 0.4732(7)
C43_5 C 0.8146(4) 0.2279(4) 0.4654(7)
C44_5 C 0.8665(4) 0.2248(4) 0.4551(8)
H17_5 H 0.8819 0.1931 0.4494
C45_5 C 0.8948(4) 0.2688(3) 0.4536(6)
H18_5 H 0.9298 0.2670 0.4469
O3_6 O 0.5362(2) 0.3799(2) 0.0931(2)
O5_6 O 0.5071(8) 0.2042(3) 0.2005(3)
C1_6 C 0.5362(3) 0.4047(4) 0.1368(3)
C2_6 C 0.5383(4) 0.3721(3) 0.1838(3)
C3_6 C 0.5290(4) 0.3195(3) 0.1808(3)
H1_6 H 0.5245 0.3036 0.1491
C4_6 C 0.5267(6) 0.2920(4) 0.2244(3)
C5_6 C 0.5170(7) 0.2360(4) 0.2323(4)
C6_6 C 0.5178(6) 0.2283(3) 0.2900(3)
C7_6 C 0.5094(5) 0.1829(3) 0.3172(3)
H2_6 H 0.5021 0.1521 0.3008
C8_6 C 0.5126(5) 0.1867(3) 0.3699(3)
C9_6 C 0.5067(4) 0.1406(3) 0.4030(3)
C10_6 C 0.5241(8) 0.2337(3) 0.3948(3)
H3_6 H 0.5286 0.2346 0.4302
C11_6 C 0.5286(10) 0.2785(5) 0.3660(4)
H4_6 H 0.5327 0.3102 0.3820
C12_6 C 0.5268(7) 0.2746(4) 0.3125(4)
C13_6 C 0.5346(7) 0.3146(4) 0.2721(4)
C14_6 C 0.5449(8) 0.3665(4) 0.2752(4)
H5_6 H 0.5506 0.3819 0.3069
C15_6 C 0.5464(6) 0.3948(4) 0.2312(3)
H6_6 H 0.5531 0.4298 0.2330
O1_6 O 0.5474(2) 0.4526(2) 0.9526(2)
O9_6 O 0.4069(2) 0.4638(2) 0.8799(2)
O11_6 O 0.2995(3) 0.4929(8) 0.7042(3)
C16_6 C 0.3632(3) 0.4638(3) 0.9047(4)
C17_6 C 0.3162(3) 0.4617(4) 0.8721(3)
C18_6 C 0.3192(3) 0.4710(4) 0.8195(3)
H7_6 H 0.3509 0.4755 0.8036
C19_6 C 0.2756(3) 0.4733(6) 0.7920(4)
C20_6 C 0.2677(4) 0.4830(7) 0.7360(4)
C21_6 C 0.2100(3) 0.4822(6) 0.7283(3)
C22_6 C 0.1828(3) 0.4906(5) 0.6829(3)
H8_6 H 0.1992 0.4979 0.6521
C23_6 C 0.1301(3) 0.4874(5) 0.6867(3)
C24_6 C 0.0970(3) 0.4933(4) 0.6406(3)
C25_6 C 0.1052(3) 0.4759(8) 0.7337(3)
H9_6 H 0.0698 0.4714 0.7346
C26_6 C 0.1340(4) 0.4714(10) 0.7785(5)
H10_6 H 0.1180 0.4673 0.8102
C27_6 C 0.1875(4) 0.4732(7) 0.7746(4)
C28_6 C 0.2279(4) 0.4654(7) 0.8146(4)
C29_6 C 0.2248(4) 0.4551(8) 0.8665(4)
H11_6 H 0.1931 0.4494 0.8819
C30_6 C 0.2688(3) 0.4536(6) 0.8948(4)
H12_6 H 0.2670 0.4469 0.9298
O15_6 O 0.6201(2) 0.5931(2) 0.9638(2)
O17_6 O 0.7958(3) 0.7005(3) 0.9929(8)
C31_6 C 0.5953(4) 0.6368(3) 0.9638(3)
C32_6 C 0.6279(3) 0.6838(3) 0.9617(4)
C33_6 C 0.6805(3) 0.6808(3) 0.9710(4)
H13_6 H 0.6964 0.6491 0.9755
C34_6 C 0.7080(4) 0.7244(3) 0.9733(6)
C35_6 C 0.7640(4) 0.7323(4) 0.9830(7)
C36_6 C 0.7717(3) 0.7900(3) 0.9822(6)
C37_6 C 0.8171(3) 0.8172(3) 0.9906(5)
H14_6 H 0.8479 0.8008 0.9979
C38_6 C 0.8133(3) 0.8699(3) 0.9874(5)
C39_6 C 0.8594(3) 0.9030(3) 0.9933(4)
C40_6 C 0.7663(3) 0.8948(3) 0.9759(8)
H15_6 H 0.7654 0.9302 0.9714
C41_6 C 0.7215(5) 0.8660(4) 0.9714(10)
H16_6 H 0.6898 0.8820 0.9673
C42_6 C 0.7254(4) 0.8125(4) 0.9732(7)
C43_6 C 0.6854(4) 0.7721(4) 0.9654(7)
C44_6 C 0.6335(4) 0.7752(4) 0.9551(8)
H17_6 H 0.6181 0.8069 0.9494
C45_6 C 0.6052(4) 0.7312(3) 0.9536(6)
H18_6 H 0.5702 0.7330 0.9469
O15_7 O 0.3799(2) 0.0931(2) 0.5362(2)
O17_7 O 0.2042(3) 0.2005(3) 0.5071(8)
C31_7 C 0.4047(4) 0.1368(3) 0.5362(3)
C32_7 C 0.3721(3) 0.1838(3) 0.5383(4)
C33_7 C 0.3195(3) 0.1808(3) 0.5290(4)
H13_7 H 0.3036 0.1491 0.5245
C34_7 C 0.2920(4) 0.2244(3) 0.5267(6)
C35_7 C 0.2360(4) 0.2323(4) 0.5170(7)
C36_7 C 0.2283(3) 0.2900(3) 0.5178(6)
C37_7 C 0.1829(3) 0.3172(3) 0.5094(5)
H14_7 H 0.1521 0.3008 0.5021
C38_7 C 0.1867(3) 0.3699(3) 0.5126(5)
C39_7 C 0.1406(3) 0.4030(3) 0.5067(4)
C40_7 C 0.2337(3) 0.3948(3) 0.5241(8)
H15_7 H 0.2346 0.4302 0.5286
C41_7 C 0.2785(5) 0.3660(4) 0.5286(10)
H16_7 H 0.3102 0.3820 0.5327
C42_7 C 0.2746(4) 0.3125(4) 0.5268(7)
C43_7 C 0.3146(4) 0.2721(4) 0.5346(7)
C44_7 C 0.3665(4) 0.2752(4) 0.5449(8)
H17_7 H 0.3819 0.3069 0.5506
C45_7 C 0.3948(4) 0.2312(3) 0.5464(6)
H18_7 H 0.4298 0.2330 0.5531
O1_7 O 0.4526(2) 0.9526(2) 0.5474(2)
O3_7 O 0.4638(2) 0.8799(2) 0.4069(2)
O5_7 O 0.4929(8) 0.7042(3) 0.2995(3)
C1_7 C 0.4638(3) 0.9047(4) 0.3632(3)
C2_7 C 0.4617(4) 0.8721(3) 0.3162(3)
C3_7 C 0.4710(4) 0.8195(3) 0.3192(3)
H1_7 H 0.4755 0.8036 0.3509
C4_7 C 0.4733(6) 0.7920(4) 0.2756(3)
C5_7 C 0.4830(7) 0.7360(4) 0.2677(4)
C6_7 C 0.4822(6) 0.7283(3) 0.2100(3)
C7_7 C 0.4906(5) 0.6829(3) 0.1828(3)
H2_7 H 0.4979 0.6521 0.1992
C8_7 C 0.4874(5) 0.6867(3) 0.1301(3)
C9_7 C 0.4933(4) 0.6406(3) 0.0970(3)
C10_7 C 0.4759(8) 0.7337(3) 0.1052(3)
H3_7 H 0.4714 0.7346 0.0698
C11_7 C 0.4714(10) 0.7785(5) 0.1340(4)
H4_7 H 0.4673 0.8102 0.1180
C12_7 C 0.4732(7) 0.7746(4) 0.1875(4)
C13_7 C 0.4654(7) 0.8146(4) 0.2279(4)
C14_7 C 0.4551(8) 0.8665(4) 0.2248(4)
H5_7 H 0.4494 0.8819 0.1931
C15_7 C 0.4536(6) 0.8948(4) 0.2688(3)
H6_7 H 0.4469 0.9298 0.2670
O9_7 O 0.5931(2) 0.9638(2) 0.6201(2)
O11_7 O 0.7005(3) 0.9929(8) 0.7958(3)
C16_7 C 0.6368(3) 0.9638(3) 0.5953(4)
C17_7 C 0.6838(3) 0.9617(4) 0.6279(3)
C18_7 C 0.6808(3) 0.9710(4) 0.6805(3)
H7_7 H 0.6491 0.9755 0.6964
C19_7 C 0.7244(3) 0.9733(6) 0.7080(4)
C20_7 C 0.7323(4) 0.9830(7) 0.7640(4)
C21_7 C 0.7900(3) 0.9822(6) 0.7717(3)
C22_7 C 0.8172(3) 0.9906(5) 0.8171(3)
H8_7 H 0.8008 0.9979 0.8479
C23_7 C 0.8699(3) 0.9874(5) 0.8133(3)
C24_7 C 0.9030(3) 0.9933(4) 0.8594(3)
C25_7 C 0.8948(3) 0.9759(8) 0.7663(3)
H9_7 H 0.9302 0.9714 0.7654
C26_7 C 0.8660(4) 0.9714(10) 0.7215(5)
H10_7 H 0.8820 0.9673 0.6898
C27_7 C 0.8125(4) 0.9732(7) 0.7254(4)
C28_7 C 0.7721(4) 0.9654(7) 0.6854(4)
C29_7 C 0.7752(4) 0.9551(8) 0.6335(4)
H11_7 H 0.8069 0.9494 0.6181
C30_7 C 0.7312(3) 0.9536(6) 0.6052(4)
H12_7 H 0.7330 0.9469 0.5702
O1_8 O 0.0474(2) 0.0474(2) 0.0474(2)
O3_8 O 0.0362(2) 0.1201(2) 0.9069(2)
O5_8 O 0.0071(8) 0.2958(3) 0.7995(3)
C1_8 C 0.0362(3) 0.0953(4) 0.8632(3)
C2_8 C 0.0383(4) 0.1279(3) 0.8162(3)
C3_8 C 0.0290(4) 0.1805(3) 0.8192(3)
H1_8 H 0.0245 0.1964 0.8509
C4_8 C 0.0267(6) 0.2080(4) 0.7756(3)
C5_8 C 0.0170(7) 0.2640(4) 0.7677(4)
C6_8 C 0.0178(6) 0.2717(3) 0.7100(3)
C7_8 C 0.0094(5) 0.3171(3) 0.6828(3)
H2_8 H 0.0021 0.3479 0.6992
C8_8 C 0.0126(5) 0.3133(3) 0.6301(3)
C9_8 C 0.0067(4) 0.3594(3) 0.5970(3)
C10_8 C 0.0241(8) 0.2663(3) 0.6052(3)
H3_8 H 0.0286 0.2654 0.5698
C11_8 C 0.0286(10) 0.2215(5) 0.6340(4)
H4_8 H 0.0327 0.1898 0.6180
C12_8 C 0.0268(7) 0.2254(4) 0.6875(4)
C13_8 C 0.0346(7) 0.1854(4) 0.7279(4)
C14_8 C 0.0449(8) 0.1335(4) 0.7248(4)
H5_8 H 0.0506 0.1181 0.6931
C15_8 C 0.0464(6) 0.1052(4) 0.7688(3)
H6_8 H 0.0531 0.0702 0.7670
O15_8 O 0.1201(2) 0.9069(2) 0.0362(2)
O17_8 O 0.2958(3) 0.7995(3) 0.0071(8)
C31_8 C 0.0953(4) 0.8632(3) 0.0362(3)
C32_8 C 0.1279(3) 0.8162(3) 0.0383(4)
C33_8 C 0.1805(3) 0.8192(3) 0.0290(4)
H13_8 H 0.1964 0.8509 0.0245
C34_8 C 0.2080(4) 0.7756(3) 0.0267(6)
C35_8 C 0.2640(4) 0.7677(4) 0.0170(7)
C36_8 C 0.2717(3) 0.7100(3) 0.0178(6)
C37_8 C 0.3171(3) 0.6828(3) 0.0094(5)
H14_8 H 0.3479 0.6992 0.0021
C38_8 C 0.3133(3) 0.6301(3) 0.0126(5)
C39_8 C 0.3594(3) 0.5970(3) 0.0067(4)
C40_8 C 0.2663(3) 0.6052(3) 0.0241(8)
H15_8 H 0.2654 0.5698 0.0286
C41_8 C 0.2215(5) 0.6340(4) 0.0286(10)
H16_8 H 0.1898 0.6180 0.0327
C42_8 C 0.2254(4) 0.6875(4) 0.0268(7)
C43_8 C 0.1854(4) 0.7279(4) 0.0346(7)
C44_8 C 0.1335(4) 0.7248(4) 0.0449(8)
H17_8 H 0.1181 0.6931 0.0506
C45_8 C 0.1052(4) 0.7688(3) 0.0464(6)
H18_8 H 0.0702 0.7670 0.0531
O9_8 O 0.9069(2) 0.0362(2) 0.1201(2)
O11_8 O 0.7995(3) 0.0071(8) 0.2958(3)
C16_8 C 0.8632(3) 0.0362(3) 0.0953(4)
C17_8 C 0.8162(3) 0.0383(4) 0.1279(3)
C18_8 C 0.8192(3) 0.0290(4) 0.1805(3)
H7_8 H 0.8509 0.0245 0.1964
C19_8 C 0.7756(3) 0.0267(6) 0.2080(4)
C20_8 C 0.7677(4) 0.0170(7) 0.2640(4)
C21_8 C 0.7100(3) 0.0178(6) 0.2717(3)
C22_8 C 0.6828(3) 0.0094(5) 0.3171(3)
H8_8 H 0.6992 0.0021 0.3479
C23_8 C 0.6301(3) 0.0126(5) 0.3133(3)
C24_8 C 0.5970(3) 0.0067(4) 0.3594(3)
C25_8 C 0.6052(3) 0.0241(8) 0.2663(3)
H9_8 H 0.5698 0.0286 0.2654
C26_8 C 0.6340(4) 0.0286(10) 0.2215(5)
H10_8 H 0.6180 0.0327 0.1898
C27_8 C 0.6875(4) 0.0268(7) 0.2254(4)
C28_8 C 0.7279(4) 0.0346(7) 0.1854(4)
C29_8 C 0.7248(4) 0.0449(8) 0.1335(4)
H11_8 H 0.6931 0.0506 0.1181
C30_8 C 0.7688(3) 0.0464(6) 0.1052(4)
H12_8 H 0.7670 0.0531 0.0702
loop_
_geom_bond_atom_site_label_1
_geom_bond_atom_site_label_2
_geom_bond_site_symmetry_1
_geom_bond_site_symmetry_2
Hf1 O1 1_555 1_555
O3 Hf1 1_555 1_555
O4 C1 1_555 1_555
O5 C5 1_555 1_555
O7 C9 1_555 1_555
C1 O3 1_555 1_555
C2 C1 1_555 1_555
C3 C2 1_555 1_555
H1 C3 1_555 1_555
C4 C3 1_555 1_555
C5 C4 1_555 1_555
C6 C5 1_555 1_555
C7 C6 1_555 1_555
H2 C7 1_555 1_555
C8 C7 1_555 1_555
C9 C8 1_555 1_555
C10 C8 1_555 1_555
H3 C10 1_555 1_555
C11 C10 1_555 1_555
H4 C11 1_555 1_555
C12 C6 1_555 1_555
C13 C4 1_555 1_555
C14 C13 1_555 1_555
H5 C14 1_555 1_555
C15 C2 1_555 1_555
H6 C15 1_555 1_555
Hf3 O1 1_555 1_555
O14 Hf3 1_555 1_555
O15 Hf3 1_555 1_555
O16 C31 1_555 1_555
O17 C35 1_555 1_555
O18 C39 1_555 1_555
O19 C39 1_555 1_555
C31 O15 1_555 1_555
C32 C31 1_555 1_555
C33 C32 1_555 1_555
H13 C33 1_555 1_555
C34 C33 1_555 1_555
C35 C34 1_555 1_555
C36 C35 1_555 1_555
C37 C36 1_555 1_555
H14 C37 1_555 1_555
C38 C37 1_555 1_555
C39 C38 1_555 1_555
C40 C38 1_555 1_555
H15 C40 1_555 1_555
C41 C40 1_555 1_555
H16 C41 1_555 1_555
C42 C36 1_555 1_555
C43 C34 1_555 1_555
C44 C43 1_555 1_555
H17 C44 1_555 1_555
C45 C32 1_555 1_555
H18 C45 1_555 1_555
Hf5 O18 1_555 1_555
O21 Hf1 1_555 1_555
O24 Hf3 1_555 1_555
O27 Hf3 1_555 1_555
O28 Hf1 1_555 1_555
O29 Hf1 1_555 1_555
O31 Hf3 1_555 1_555
O4 Hf8 1_555 1_555
C11 C12 1_555 1_555
C12 C13 1_555 1_555
C14 C15 1_555 1_555
Hf3 O20 1_555 1_555
Hf3 O21 1_555 1_555
O14 Hf8 1_555 1_555
C41 C42 1_555 1_555
C42 C43 1_555 1_555
C44 C45 1_555 1_555
Hf8 O21 1_555 1_555
Hf2 O8 1_555 1_555
O8 Hf4 1_555 1_555
O9 Hf2 1_555 1_555
O10 C16 1_555 1_555
O11 C20 1_555 1_555
O12 C24 1_555 1_555
O13 C24 1_555 1_555
C16 O9 1_555 1_555
C17 C16 1_555 1_555
C18 C17 1_555 1_555
H7 C18 1_555 1_555
C19 C18 1_555 1_555
C20 C19 1_555 1_555
C21 C20 1_555 1_555
C22 C21 1_555 1_555
H8 C22 1_555 1_555
C23 C22 1_555 1_555
C24 C23 1_555 1_555
C25 C23 1_555 1_555
H9 C25 1_555 1_555
C26 C25 1_555 1_555
H10 C26 1_555 1_555
C27 C21 1_555 1_555
C28 C19 1_555 1_555
C29 C28 1_555 1_555
H11 C29 1_555 1_555
C30 C17 1_555 1_555
H12 C30 1_555 1_555
Hf7 O6 1_555 1_555
Hf9 O13 1_555 1_555
Hf10 O12 1_555 1_555
Hf12 O2 1_555 1_555
O23 Hf2 1_555 1_555
O26 Hf2 1_555 1_555
Hf2 O22 1_555 1_555
O8 Hf12 1_555 1_555
O10 Hf12 1_555 1_555
C26 C27 1_555 1_555
C27 C28 1_555 1_555
C29 C30 1_555 1_555
Hf12 O22 1_555 1_555
O1_2 Hf2_2 1_555 1_555
Hf2_2 O8_2 1_555 1_555
O8_2 Hf4_2 1_555 1_555
O9_2 Hf2_2 1_555 1_555
O10_2 C16_2 1_555 1_555
O11_2 C20_2 1_555 1_555
O12_2 C24_2 1_555 1_555
O13_2 C24_2 1_555 1_555
C16_2 O9_2 1_555 1_555
C17_2 C16_2 1_555 1_555
C18_2 C17_2 1_555 1_555
H7_2 C18_2 1_555 1_555
C19_2 C18_2 1_555 1_555
C20_2 C19_2 1_555 1_555
C21_2 C20_2 1_555 1_555
C22_2 C21_2 1_555 1_555
H8_2 C22_2 1_555 1_555
C23_2 C22_2 1_555 1_555
C24_2 C23_2 1_555 1_555
C25_2 C23_2 1_555 1_555
H9_2 C25_2 1_555 1_555
C26_2 C25_2 1_555 1_555
H10_2 C26_2 1_555 1_555
C27_2 C21_2 1_555 1_555
C28_2 C19_2 1_555 1_555
C29_2 C28_2 1_555 1_555
H11_2 C29_2 1_555 1_555
C30_2 C17_2 1_555 1_555
H12_2 C30_2 1_555 1_555
Hf3_2 O1_2 1_555 1_555
O15_2 Hf3_2 1_555 1_555
O16_2 C31_2 1_555 1_555
O17_2 C35_2 1_555 1_555
O19_2 C39_2 1_555 1_555
C31_2 O15_2 1_555 1_555
C32_2 C31_2 1_555 1_555
C33_2 C32_2 1_555 1_555
H13_2 C33_2 1_555 1_555
C34_2 C33_2 1_555 1_555
C35_2 C34_2 1_555 1_555
C36_2 C35_2 1_555 1_555
C37_2 C36_2 1_555 1_555
H14_2 C37_2 1_555 1_555
C38_2 C37_2 1_555 1_555
C39_2 C38_2 1_555 1_555
C40_2 C38_2 1_555 1_555
H15_2 C40_2 1_555 1_555
C41_2 C40_2 1_555 1_555
H16_2 C41_2 1_555 1_555
C42_2 C36_2 1_555 1_555
C43_2 C34_2 1_555 1_555
C44_2 C43_2 1_555 1_555
H17_2 C44_2 1_555 1_555
C45_2 C32_2 1_555 1_555
H18_2 C45_2 1_555 1_555
Hf12 O12_2 1_555 1_555
O20_2 Hf2_2 1_555 1_555
O23_2 Hf2_2 1_555 1_555
O26_2 Hf2_2 1_555 1_555
O27_2 Hf3_2 1_555 1_555
O30_2 Hf2_2 1_555 1_555
O31_2 Hf3_2 1_555 1_555
Hf2_2 O22_2 1_555 1_555
C26_2 C27_2 1_555 1_555
C27_2 C28_2 1_555 1_555
C29_2 C30_2 1_555 1_555
Hf3_2 O20_2 1_555 1_555
O16_2 Hf4_2 1_555 1_555
C41_2 C42_2 1_555 1_555
C42_2 C43_2 1_555 1_555
C44_2 C45_2 1_555 1_555
Hf4_2 O20_2 1_555 1_555
O2_2 Hf1_2 1_555 1_555
O3_2 Hf1_2 1_555 1_555
O4_2 C1_2 1_555 1_555
O5_2 C5_2 1_555 1_555
O6_2 C9_2 1_555 1_555
O7_2 C9_2 1_555 1_555
C1_2 O3_2 1_555 1_555
C2_2 C1_2 1_555 1_555
C3_2 C2_2 1_555 1_555
H1_2 C3_2 1_555 1_555
C4_2 C3_2 1_555 1_555
C5_2 C4_2 1_555 1_555
C6_2 C5_2 1_555 1_555
C7_2 C6_2 1_555 1_555
H2_2 C7_2 1_555 1_555
C8_2 C7_2 1_555 1_555
C9_2 C8_2 1_555 1_555
C10_2 C8_2 1_555 1_555
H3_2 C10_2 1_555 1_555
C11_2 C10_2 1_555 1_555
H4_2 C11_2 1_555 1_555
C12_2 C6_2 1_555 1_555
C13_2 C4_2 1_555 1_555
C14_2 C13_2 1_555 1_555
H5_2 C14_2 1_555 1_555
C15_2 C2_2 1_555 1_555
H6_2 C15_2 1_555 1_555
Hf6 O18_2 1_555 1_555
Hf5 O7_2 1_555 1_555
Hf7_2 O6_2 1_555 1_555
Hf9 O2_2 1_555 1_555
Hf10 O2_2 1_555 1_555
O21_2 Hf1_2 1_555 1_555
O25_2 Hf1_2 1_555 1_555
O28_2 Hf1_2 1_555 1_555
O4_2 Hf9 1_555 1_555
C11_2 C12_2 1_555 1_555
C12_2 C13_2 1_555 1_555
C14_2 C15_2 1_555 1_555
O14_2 Hf9 1_555 1_555
Hf9 O21_2 1_555 1_555
Hf1_3 O1_3 1_555 1_555
O1_3 Hf2_3 1_555 1_555
O2_3 Hf1_3 1_555 1_555
O3_3 Hf1_3 1_555 1_555
O4_3 C1_3 1_555 1_555
O5_3 C5_3 1_555 1_555
O6_3 C9_3 1_555 1_555
O7_3 C9_3 1_555 1_555
C1_3 O3_3 1_555 1_555
C2_3 C1_3 1_555 1_555
C3_3 C2_3 1_555 1_555
H1_3 C3_3 1_555 1_555
C4_3 C3_3 1_555 1_555
C5_3 C4_3 1_555 1_555
C6_3 C5_3 1_555 1_555
C7_3 C6_3 1_555 1_555
H2_3 C7_3 1_555 1_555
C8_3 C7_3 1_555 1_555
C9_3 C8_3 1_555 1_555
C10_3 C8_3 1_555 1_555
H3_3 C10_3 1_555 1_555
C11_3 C10_3 1_555 1_555
H4_3 C11_3 1_555 1_555
C12_3 C6_3 1_555 1_555
C13_3 C4_3 1_555 1_555
C14_3 C13_3 1_555 1_555
H5_3 C14_3 1_555 1_555
C15_3 C2_3 1_555 1_555
H6_3 C15_3 1_555 1_555
O9_3 Hf2_3 1_555 1_555
O10_3 C16_3 1_555 1_555
O11_3 C20_3 1_555 1_555
O13_3 C24_3 1_555 1_555
C16_3 O9_3 1_555 1_555
C17_3 C16_3 1_555 1_555
C18_3 C17_3 1_555 1_555
H7_3 C18_3 1_555 1_555
C19_3 C18_3 1_555 1_555
C20_3 C19_3 1_555 1_555
C21_3 C20_3 1_555 1_555
C22_3 C21_3 1_555 1_555
H8_3 C22_3 1_555 1_555
C23_3 C22_3 1_555 1_555
C24_3 C23_3 1_555 1_555
C25_3 C23_3 1_555 1_555
H9_3 C25_3 1_555 1_555
C26_3 C25_3 1_555 1_555
H10_3 C26_3 1_555 1_555
C27_3 C21_3 1_555 1_555
C28_3 C19_3 1_555 1_555
C29_3 C28_3 1_555 1_555
H11_3 C29_3 1_555 1_555
C30_3 C17_3 1_555 1_555
H12_3 C30_3 1_555 1_555
Hf9 O6_3 1_555 1_555
Hf11 O2_3 1_555 1_555
O21_3 Hf1_3 1_555 1_555
O22_3 Hf1_3 1_555 1_555
O25_3 Hf1_3 1_555 1_555
O26_3 Hf2_3 1_555 1_555
O28_3 Hf1_3 1_555 1_555
O29_3 Hf1_3 1_555 1_555
O30_3 Hf2_3 1_555 1_555
C11_3 C12_3 1_555 1_555
C12_3 C13_3 1_555 1_555
C14_3 C15_3 1_555 1_555
Hf2_3 O22_3 1_555 1_555
O10_3 Hf11 1_555 1_555
C26_3 C27_3 1_555 1_555
C27_3 C28_3 1_555 1_555
C29_3 C30_3 1_555 1_555
Hf11 O22_3 1_555 1_555
O8_3 Hf5 1_555 1_555
O14_3 Hf3_3 1_555 1_555
O15_3 Hf3_3 1_555 1_555
O16_3 C31_3 1_555 1_555
O17_3 C35_3 1_555 1_555
O18_3 C39_3 1_555 1_555
O19_3 C39_3 1_555 1_555
C31_3 O15_3 1_555 1_555
C32_3 C31_3 1_555 1_555
C33_3 C32_3 1_555 1_555
H13_3 C33_3 1_555 1_555
C34_3 C33_3 1_555 1_555
C35_3 C34_3 1_555 1_555
C36_3 C35_3 1_555 1_555
C37_3 C36_3 1_555 1_555
H14_3 C37_3 1_555 1_555
C38_3 C37_3 1_555 1_555
C39_3 C38_3 1_555 1_555
C40_3 C38_3 1_555 1_555
H15_3 C40_3 1_555 1_555
C41_3 C40_3 1_555 1_555
H16_3 C41_3 1_555 1_555
C42_3 C36_3 1_555 1_555
C43_3 C34_3 1_555 1_555
C44_3 C43_3 1_555 1_555
H17_3 C44_3 1_555 1_555
C45_3 C32_3 1_555 1_555
H18_3 C45_3 1_555 1_555
Hf5 O14_3 1_555 1_555
Hf4 O18_3 1_555 1_555
Hf11_2 O12_3 1_555 1_555
Hf12 O19_3 1_555 1_555
O24_3 Hf3_3 1_555 1_555
O27_3 Hf3_3 1_555 1_555
Hf3_3 O20_3 1_555 1_555
O14_3 Hf7_2 1_555 1_555
O16_3 Hf5 1_555 1_555
C41_3 C42_3 1_555 1_555
C42_3 C43_3 1_555 1_555
C44_3 C45_3 1_555 1_555
Hf5 O20_3 1_555 1_555
O8_4 Hf6 1_555 1_555
Hf11 O12_4 1_555 1_555
Hf8 O6_4 1_555 1_555
Hf11_2 O2_4 1_555 1_555
O9_4 Hf2_4 1_555 1_555
O10_4 C16_4 1_555 1_555
O11_4 C20_4 1_555 1_555
O13_4 C24_4 1_555 1_555
C16_4 O9_4 1_555 1_555
C17_4 C16_4 1_555 1_555
C18_4 C17_4 1_555 1_555
H7_4 C18_4 1_555 1_555
C19_4 C18_4 1_555 1_555
C20_4 C19_4 1_555 1_555
C21_4 C20_4 1_555 1_555
C22_4 C21_4 1_555 1_555
H8_4 C22_4 1_555 1_555
C23_4 C22_4 1_555 1_555
C24_4 C23_4 1_555 1_555
C25_4 C23_4 1_555 1_555
H9_4 C25_4 1_555 1_555
C26_4 C25_4 1_555 1_555
H10_4 C26_4 1_555 1_555
C27_4 C21_4 1_555 1_555
C28_4 C19_4 1_555 1_555
C29_4 C28_4 1_555 1_555
H11_4 C29_4 1_555 1_555
C30_4 C17_4 1_555 1_555
H12_4 C30_4 1_555 1_555
Hf7_2 O13_4 1_555 1_555
O26_4 Hf2_4 1_555 1_555
Hf2_4 O22_4 1_555 1_555
C26_4 C27_4 1_555 1_555
C27_4 C28_4 1_555 1_555
C29_4 C30_4 1_555 1_555
Hf4_2 O18_4 1_555 1_555
O14_4 Hf7 1_555 1_555
O15_4 Hf3_4 1_555 1_555
O16_4 C31_4 1_555 1_555
O17_4 C35_4 1_555 1_555
O19_4 C39_4 1_555 1_555
C31_4 O15_4 1_555 1_555
C32_4 C31_4 1_555 1_555
C33_4 C32_4 1_555 1_555
H13_4 C33_4 1_555 1_555
C34_4 C33_4 1_555 1_555
C35_4 C34_4 1_555 1_555
C36_4 C35_4 1_555 1_555
C37_4 C36_4 1_555 1_555
H14_4 C37_4 1_555 1_555
C38_4 C37_4 1_555 1_555
C39_4 C38_4 1_555 1_555
C40_4 C38_4 1_555 1_555
H15_4 C40_4 1_555 1_555
C41_4 C40_4 1_555 1_555
H16_4 C41_4 1_555 1_555
C42_4 C36_4 1_555 1_555
C43_4 C34_4 1_555 1_555
C44_4 C43_4 1_555 1_555
H17_4 C44_4 1_555 1_555
C45_4 C32_4 1_555 1_555
H18_4 C45_4 1_555 1_555
Hf10 O19_4 1_555 1_555
O27_4 Hf3_4 1_555 1_555
Hf3_4 O20_4 1_555 1_555
C41_4 C42_4 1_555 1_555
C42_4 C43_4 1_555 1_555
C44_4 C45_4 1_555 1_555
O3_4 Hf1_4 1_555 1_555
O4_4 C1_4 1_555 1_555
O5_4 C5_4 1_555 1_555
O7_4 C9_4 1_555 1_555
C1_4 O3_4 1_555 1_555
C2_4 C1_4 1_555 1_555
C3_4 C2_4 1_555 1_555
H1_4 C3_4 1_555 1_555
C4_4 C3_4 1_555 1_555
C5_4 C4_4 1_555 1_555
C6_4 C5_4 1_555 1_555
C7_4 C6_4 1_555 1_555
H2_4 C7_4 1_555 1_555
C8_4 C7_4 1_555 1_555
C9_4 C8_4 1_555 1_555
C10_4 C8_4 1_555 1_555
H3_4 C10_4 1_555 1_555
C11_4 C10_4 1_555 1_555
H4_4 C11_4 1_555 1_555
C12_4 C6_4 1_555 1_555
C13_4 C4_4 1_555 1_555
C14_4 C13_4 1_555 1_555
H5_4 C14_4 1_555 1_555
C15_4 C2_4 1_555 1_555
H6_4 C15_4 1_555 1_555
Hf4 O7_4 1_555 1_555
O21_4 Hf1_4 1_555 1_555
O28_4 Hf1_4 1_555 1_555
C11_4 C12_4 1_555 1_555
C12_4 C13_4 1_555 1_555
C14_4 C15_4 1_555 1_555
O9_5 Hf8 1_555 1_555
O24 C16_5 1_555 1_555
O11_5 C20_5 1_555 1_555
O27_2 C24_5 1_555 1_555
O30_2 C24_5 1_555 1_555
C16_5 O9_5 1_555 1_555
C17_5 C16_5 1_555 1_555
C18_5 C17_5 1_555 1_555
H7_5 C18_5 1_555 1_555
C19_5 C18_5 1_555 1_555
C20_5 C19_5 1_555 1_555
C21_5 C20_5 1_555 1_555
C22_5 C21_5 1_555 1_555
H8_5 C22_5 1_555 1_555
C23_5 C22_5 1_555 1_555
C24_5 C23_5 1_555 1_555
C25_5 C23_5 1_555 1_555
H9_5 C25_5 1_555 1_555
C26_5 C25_5 1_555 1_555
H10_5 C26_5 1_555 1_555
C27_5 C21_5 1_555 1_555
C28_5 C19_5 1_555 1_555
C29_5 C28_5 1_555 1_555
H11_5 C29_5 1_555 1_555
C30_5 C17_5 1_555 1_555
H12_5 C30_5 1_555 1_555
C26_5 C27_5 1_555 1_555
C27_5 C28_5 1_555 1_555
C29_5 C30_5 1_555 1_555
Hf4 O1_5 1_555 1_555
O3_5 Hf4 1_555 1_555
O23 C1_5 1_555 1_555
O5_5 C5_5 1_555 1_555
O29_4 C9_5 1_555 1_555
C1_5 O3_5 1_555 1_555
C2_5 C1_5 1_555 1_555
C3_5 C2_5 1_555 1_555
H1_5 C3_5 1_555 1_555
C4_5 C3_5 1_555 1_555
C5_5 C4_5 1_555 1_555
C6_5 C5_5 1_555 1_555
C7_5 C6_5 1_555 1_555
H2_5 C7_5 1_555 1_555
C8_5 C7_5 1_555 1_555
C9_5 C8_5 1_555 1_555
C10_5 C8_5 1_555 1_555
H3_5 C10_5 1_555 1_555
C11_5 C10_5 1_555 1_555
H4_5 C11_5 1_555 1_555
C12_5 C6_5 1_555 1_555
C13_5 C4_5 1_555 1_555
C14_5 C13_5 1_555 1_555
H5_5 C14_5 1_555 1_555
C15_5 C2_5 1_555 1_555
H6_5 C15_5 1_555 1_555
Hf12 O1_5 1_555 1_555
O15_5 Hf12 1_555 1_555
O25 C31_5 1_555 1_555
O17_5 C35_5 1_555 1_555
O28_3 C39_5 1_555 1_555
O31_3 C39_5 1_555 1_555
C31_5 O15_5 1_555 1_555
C32_5 C31_5 1_555 1_555
C33_5 C32_5 1_555 1_555
H13_5 C33_5 1_555 1_555
C34_5 C33_5 1_555 1_555
C35_5 C34_5 1_555 1_555
C36_5 C35_5 1_555 1_555
C37_5 C36_5 1_555 1_555
H14_5 C37_5 1_555 1_555
C38_5 C37_5 1_555 1_555
C39_5 C38_5 1_555 1_555
C40_5 C38_5 1_555 1_555
H15_5 C40_5 1_555 1_555
C41_5 C40_5 1_555 1_555
H16_5 C41_5 1_555 1_555
C42_5 C36_5 1_555 1_555
C43_5 C34_5 1_555 1_555
C44_5 C43_5 1_555 1_555
H17_5 C44_5 1_555 1_555
C45_5 C32_5 1_555 1_555
H18_5 C45_5 1_555 1_555
C11_5 C12_5 1_555 1_555
C12_5 C13_5 1_555 1_555
C14_5 C15_5 1_555 1_555
C41_5 C42_5 1_555 1_555
C42_5 C43_5 1_555 1_555
C44_5 C45_5 1_555 1_555
O3_6 Hf4_2 1_555 1_555
O23_2 C1_6 1_555 1_555
O5_6 C5_6 1_555 1_555
O26_3 C9_6 1_555 1_555
O29_3 C9_6 1_555 1_555
C1_6 O3_6 1_555 1_555
C2_6 C1_6 1_555 1_555
C3_6 C2_6 1_555 1_555
H1_6 C3_6 1_555 1_555
C4_6 C3_6 1_555 1_555
C5_6 C4_6 1_555 1_555
C6_6 C5_6 1_555 1_555
C7_6 C6_6 1_555 1_555
H2_6 C7_6 1_555 1_555
C8_6 C7_6 1_555 1_555
C9_6 C8_6 1_555 1_555
C10_6 C8_6 1_555 1_555
H3_6 C10_6 1_555 1_555
C11_6 C10_6 1_555 1_555
H4_6 C11_6 1_555 1_555
C12_6 C6_6 1_555 1_555
C13_6 C4_6 1_555 1_555
C14_6 C13_6 1_555 1_555
H5_6 C14_6 1_555 1_555
C15_6 C2_6 1_555 1_555
H6_6 C15_6 1_555 1_555
C11_6 C12_6 1_555 1_555
C12_6 C13_6 1_555 1_555
C14_6 C15_6 1_555 1_555
O1_6 Hf9 1_555 1_555
O9_6 Hf9 1_555 1_555
O24_2 C16_6 1_555 1_555
O11_6 C20_6 1_555 1_555
O27 C24_6 1_555 1_555
O30 C24_6 1_555 1_555
C16_6 O9_6 1_555 1_555
C17_6 C16_6 1_555 1_555
C18_6 C17_6 1_555 1_555
H7_6 C18_6 1_555 1_555
C19_6 C18_6 1_555 1_555
C20_6 C19_6 1_555 1_555
C21_6 C20_6 1_555 1_555
C22_6 C21_6 1_555 1_555
H8_6 C22_6 1_555 1_555
C23_6 C22_6 1_555 1_555
C24_6 C23_6 1_555 1_555
C25_6 C23_6 1_555 1_555
H9_6 C25_6 1_555 1_555
C26_6 C25_6 1_555 1_555
H10_6 C26_6 1_555 1_555
C27_6 C21_6 1_555 1_555
C28_6 C19_6 1_555 1_555
C29_6 C28_6 1_555 1_555
H11_6 C29_6 1_555 1_555
C30_6 C17_6 1_555 1_555
H12_6 C30_6 1_555 1_555
Hf10 O1_6 1_555 1_555
O15_6 Hf10 1_555 1_555
O25_2 C31_6 1_555 1_555
O17_6 C35_6 1_555 1_555
O31_4 C39_6 1_555 1_555
C31_6 O15_6 1_555 1_555
C32_6 C31_6 1_555 1_555
C33_6 C32_6 1_555 1_555
H13_6 C33_6 1_555 1_555
C34_6 C33_6 1_555 1_555
C35_6 C34_6 1_555 1_555
C36_6 C35_6 1_555 1_555
C37_6 C36_6 1_555 1_555
H14_6 C37_6 1_555 1_555
C38_6 C37_6 1_555 1_555
C39_6 C38_6 1_555 1_555
C40_6 C38_6 1_555 1_555
H15_6 C40_6 1_555 1_555
C41_6 C40_6 1_555 1_555
H16_6 C41_6 1_555 1_555
C42_6 C36_6 1_555 1_555
C43_6 C34_6 1_555 1_555
C44_6 C43_6 1_555 1_555
H17_6 C44_6 1_555 1_555
C45_6 C32_6 1_555 1_555
H18_6 C45_6 1_555 1_555
C26_6 C27_6 1_555 1_555
C27_6 C28_6 1_555 1_555
C29_6 C30_6 1_555 1_555
C41_6 C42_6 1_555 1_555
C42_6 C43_6 1_555 1_555
C44_6 C45_6 1_555 1_555
O15_7 Hf11 1_555 1_555
O25_3 C31_7 1_555 1_555
O17_7 C35_7 1_555 1_555
O28 C39_7 1_555 1_555
O31 C39_7 1_555 1_555
C31_7 O15_7 1_555 1_555
C32_7 C31_7 1_555 1_555
C33_7 C32_7 1_555 1_555
H13_7 C33_7 1_555 1_555
C34_7 C33_7 1_555 1_555
C35_7 C34_7 1_555 1_555
C36_7 C35_7 1_555 1_555
C37_7 C36_7 1_555 1_555
H14_7 C37_7 1_555 1_555
C38_7 C37_7 1_555 1_555
C39_7 C38_7 1_555 1_555
C40_7 C38_7 1_555 1_555
H15_7 C40_7 1_555 1_555
C41_7 C40_7 1_555 1_555
H16_7 C41_7 1_555 1_555
C42_7 C36_7 1_555 1_555
C43_7 C34_7 1_555 1_555
C44_7 C43_7 1_555 1_555
H17_7 C44_7 1_555 1_555
C45_7 C32_7 1_555 1_555
H18_7 C45_7 1_555 1_555
C41_7 C42_7 1_555 1_555
C42_7 C43_7 1_555 1_555
C44_7 C45_7 1_555 1_555
Hf5 O1_7 1_555 1_555
O1_7 Hf7_2 1_555 1_555
O3_7 Hf5 1_555 1_555
O23_3 C1_7 1_555 1_555
O5_7 C5_7 1_555 1_555
O26_2 C9_7 1_555 1_555
O29_2 C9_7 1_555 1_555
C1_7 O3_7 1_555 1_555
C2_7 C1_7 1_555 1_555
C3_7 C2_7 1_555 1_555
H1_7 C3_7 1_555 1_555
C4_7 C3_7 1_555 1_555
C5_7 C4_7 1_555 1_555
C6_7 C5_7 1_555 1_555
C7_7 C6_7 1_555 1_555
H2_7 C7_7 1_555 1_555
C8_7 C7_7 1_555 1_555
C9_7 C8_7 1_555 1_555
C10_7 C8_7 1_555 1_555
H3_7 C10_7 1_555 1_555
C11_7 C10_7 1_555 1_555
H4_7 C11_7 1_555 1_555
C12_7 C6_7 1_555 1_555
C13_7 C4_7 1_555 1_555
C14_7 C13_7 1_555 1_555
H5_7 C14_7 1_555 1_555
C15_7 C2_7 1_555 1_555
H6_7 C15_7 1_555 1_555
O9_7 Hf7_2 1_555 1_555
O24_3 C16_7 1_555 1_555
O11_7 C20_7 1_555 1_555
O30_4 C24_7 1_555 1_555
C16_7 O9_7 1_555 1_555
C17_7 C16_7 1_555 1_555
C18_7 C17_7 1_555 1_555
H7_7 C18_7 1_555 1_555
C19_7 C18_7 1_555 1_555
C20_7 C19_7 1_555 1_555
C21_7 C20_7 1_555 1_555
C22_7 C21_7 1_555 1_555
H8_7 C22_7 1_555 1_555
C23_7 C22_7 1_555 1_555
C24_7 C23_7 1_555 1_555
C25_7 C23_7 1_555 1_555
H9_7 C25_7 1_555 1_555
C26_7 C25_7 1_555 1_555
H10_7 C26_7 1_555 1_555
C27_7 C21_7 1_555 1_555
C28_7 C19_7 1_555 1_555
C29_7 C28_7 1_555 1_555
H11_7 C29_7 1_555 1_555
C30_7 C17_7 1_555 1_555
H12_7 C30_7 1_555 1_555
C11_7 C12_7 1_555 1_555
C12_7 C13_7 1_555 1_555
C14_7 C15_7 1_555 1_555
C26_7 C27_7 1_555 1_555
C27_7 C28_7 1_555 1_555
C29_7 C30_7 1_555 1_555
O3_8 Hf6 1_555 1_555
O23_4 C1_8 1_555 1_555
O5_8 C5_8 1_555 1_555
O29 C9_8 1_555 1_555
C1_8 O3_8 1_555 1_555
C2_8 C1_8 1_555 1_555
C3_8 C2_8 1_555 1_555
H1_8 C3_8 1_555 1_555
C4_8 C3_8 1_555 1_555
C5_8 C4_8 1_555 1_555
C6_8 C5_8 1_555 1_555
C7_8 C6_8 1_555 1_555
H2_8 C7_8 1_555 1_555
C8_8 C7_8 1_555 1_555
C9_8 C8_8 1_555 1_555
C10_8 C8_8 1_555 1_555
H3_8 C10_8 1_555 1_555
C11_8 C10_8 1_555 1_555
H4_8 C11_8 1_555 1_555
C12_8 C6_8 1_555 1_555
C13_8 C4_8 1_555 1_555
C14_8 C13_8 1_555 1_555
H5_8 C14_8 1_555 1_555
C15_8 C2_8 1_555 1_555
H6_8 C15_8 1_555 1_555
C11_8 C12_8 1_555 1_555
C12_8 C13_8 1_555 1_555
C14_8 C15_8 1_555 1_555
O15_8 Hf11_2 1_555 1_555
O25_4 C31_8 1_555 1_555
O17_8 C35_8 1_555 1_555
O31_2 C39_8 1_555 1_555
C31_8 O15_8 1_555 1_555
C32_8 C31_8 1_555 1_555
C33_8 C32_8 1_555 1_555
H13_8 C33_8 1_555 1_555
C34_8 C33_8 1_555 1_555
C35_8 C34_8 1_555 1_555
C36_8 C35_8 1_555 1_555
C37_8 C36_8 1_555 1_555
H14_8 C37_8 1_555 1_555
C38_8 C37_8 1_555 1_555
C39_8 C38_8 1_555 1_555
C40_8 C38_8 1_555 1_555
H15_8 C40_8 1_555 1_555
C41_8 C40_8 1_555 1_555
H16_8 C41_8 1_555 1_555
C42_8 C36_8 1_555 1_555
C43_8 C34_8 1_555 1_555
C44_8 C43_8 1_555 1_555
H17_8 C44_8 1_555 1_555
C45_8 C32_8 1_555 1_555
H18_8 C45_8 1_555 1_555
C41_8 C42_8 1_555 1_555
C42_8 C43_8 1_555 1_555
C44_8 C45_8 1_555 1_555
O9_8 Hf7 1_555 1_555
O24_4 C16_8 1_555 1_555
O11_8 C20_8 1_555 1_555
O30_3 C24_8 1_555 1_555
C16_8 O9_8 1_555 1_555
C17_8 C16_8 1_555 1_555
C18_8 C17_8 1_555 1_555
H7_8 C18_8 1_555 1_555
C19_8 C18_8 1_555 1_555
C20_8 C19_8 1_555 1_555
C21_8 C20_8 1_555 1_555
C22_8 C21_8 1_555 1_555
H8_8 C22_8 1_555 1_555
C23_8 C22_8 1_555 1_555
C24_8 C23_8 1_555 1_555
C25_8 C23_8 1_555 1_555
H9_8 C25_8 1_555 1_555
C26_8 C25_8 1_555 1_555
H10_8 C26_8 1_555 1_555
C27_8 C21_8 1_555 1_555
C28_8 C19_8 1_555 1_555
C29_8 C28_8 1_555 1_555
H11_8 C29_8 1_555 1_555
C30_8 C17_8 1_555 1_555
H12_8 C30_8 1_555 1_555
C26_8 C27_8 1_555 1_555
C27_8 C28_8 1_555 1_555
C29_8 C30_8 1_555 1_555

#END
