
###############################################################################
#
# This file contains modified crystal structure data generated from the
# MOF subset of the Cambridge Structural Database (CSD) v543 
# hosted by the Cambridge Crystallographic Data Centre (CCDC).
#
# This work is licensed under the Creative Commons
# Attribution-NonCommercial-ShareAlike 4.0 International License.
# To view a copy of this license, visit
# http://creativecommons.org/licenses/by-nc-sa/4.0/
# or send a letter to
# Creative Commons, PO Box 1866, Mountain View, CA 94042, USA.
#
# CIF created using the CSD Python API on 29 September 2022
# The structure has been converted into the P1 space group
# The structure has a 3D framework
# The original CSD entry UQIWIC is in the orthorhombic crystal system
# The framework has been calculated to contain at least 10.0% void space
# The void calculation uses a probe of radius 1.32A, grid spacing 0.4
#
###############################################################################

data_UQIWIC
_chemical_formula_moiety         '(C160 H128 Cd8 N32 O36)n'
_symmetry_cell_setting           triclinic
_symmetry_space_group_name_H-M   'P 1'
_symmetry_Int_Tables_number      1
_space_group_name_Hall           'P 1'
loop_
_symmetry_equiv_pos_site_id
_symmetry_equiv_pos_as_xyz
1 x,y,z
_cell_length_a                   15.8817(11)
_cell_length_b                   17.5053(15)
_cell_length_c                   17.8702(14)
_cell_angle_alpha                90
_cell_angle_beta                 90
_cell_angle_gamma                90
_cell_volume                     4968.16
loop_
_atom_site_label
_atom_site_type_symbol
_atom_site_fract_x
_atom_site_fract_y
_atom_site_fract_z
O4 O 0.2831(4) 0.1440(4) 0.0157(4)
Cd2 Cd 0.32001(4) 0.01405(4) 0.04122(4)
Cd1 Cd 0.17999(4) 0.48595(4) 0.54122(4)
O1 O 0.0936(4) 0.5830(4) 0.4967(4)
O2 O 0.1723(4) 0.6285(4) 0.5892(4)
O3 O 0.3552(5) 0.0868(4) 0.9259(4)
O5 O 0.0488(4) 0.4442(4) 0.5920(4)
H1 H 0.0318 0.4767 0.6240
H2 H 0.0128 0.4404 0.5570
N3 N 0.2219(5) 0.4680(5) 0.6617(4)
N4 N 0.2456(5) 0.4045(5) 0.7663(4)
C6 C 0.0220(6) 0.8289(6) 0.5982(6)
H7 H 0.0237 0.8625 0.6385
C7 C 0.0695(6) 0.7612(6) 0.5983(6)
H8 H 0.1054 0.7510 0.6381
C8 C 0.0162(6) 0.7270(6) 0.4802(6)
H9 H 0.0152 0.6935 0.4398
C9 C 0.0637(6) 0.7107(5) 0.5412(5)
C10 C 0.1128(5) 0.6360(5) 0.5436(6)
C11 C 0.1935(8) 0.5089(6) 0.7262(7)
H10 H 0.1682 0.5568 0.7254
C12 C 0.2529(6) 0.4062(6) 0.6892(5)
H11 H 0.2772 0.3676 0.6608
C13 C 0.2086(8) 0.4684(6) 0.7870(6)
H12 H 0.1954 0.4825 0.8358
C14 C 0.2646(6) 0.3386(6) 0.8136(5)
C15 C 0.3336(7) 0.2935(7) 0.7990(6)
H13 H 0.3692 0.3058 0.7595
C16 C 0.2152(7) 0.3212(7) 0.8706(6)
H14 H 0.1687 0.3518 0.8807
C17 C 0.3505(7) 0.2295(6) 0.8431(6)
H15 H 0.3971 0.1991 0.8329
C18 C 0.2312(7) 0.2585(6) 0.9157(6)
H16 H 0.1962 0.2478 0.9562
C19 C 0.2991(6) 0.2121(5) 0.9004(5)
C20 C 0.3144(6) 0.1428(6) 0.9511(6)
O6 O 0.1448(5) 0.4132(4) 0.4259(4)
O7 O 0.2169(4) 0.3560(4) 0.5157(4)
N5 N 0.3098(4) 0.5182(4) 0.4903(5)
N1 N 0.8098(4) 0.9818(4) 0.5097(5)
N2 N 0.9188(5) 0.9101(4) 0.5341(4)
C2 C 0.8444(6) 0.9146(6) 0.4990(6)
H4 H 0.8206 0.8755 0.4708
C3 C 0.9328(7) 0.9804(6) 0.5698(8)
H5 H 0.9786 0.9949 0.5989
C4 C 0.9734(6) 0.8434(5) 0.5369(5)
C5 C 0.9690(7) 0.7942(6) 0.4782(6)
H6 H 0.9349 0.8052 0.4372
O5_2 O 0.4512(4) 0.0558(4) 0.0920(4)
H1_2 H 0.4682 0.0233 0.1240
H2_2 H 0.4872 0.0596 0.0570
N3_2 N 0.2781(5) 0.0320(5) 0.1617(4)
N4_2 N 0.2544(5) 0.0955(5) 0.2663(4)
C12_2 C 0.2471(6) 0.0938(6) 0.1892(5)
H11_2 H 0.2228 0.1324 0.1608
C13_2 C 0.2914(8) 0.0316(6) 0.2870(6)
H12_2 H 0.3046 0.0175 0.3358
C14_2 C 0.2354(6) 0.1614(6) 0.3136(5)
C15_2 C 0.1664(7) 0.2065(7) 0.2990(6)
H13_2 H 0.1308 0.1942 0.2595
C16_2 C 0.2848(7) 0.1788(7) 0.3706(6)
H14_2 H 0.3313 0.1482 0.3807
C17_2 C 0.1495(7) 0.2705(6) 0.3431(6)
H15_2 H 0.1029 0.3009 0.3329
C18_2 C 0.2688(7) 0.2415(6) 0.4157(6)
H16_2 H 0.3038 0.2522 0.4562
C19_2 C 0.2009(6) 0.2879(5) 0.4004(5)
C20_2 C 0.1856(6) 0.3572(6) 0.4511(6)
O1_2 O 0.5936(4) 0.9170(4) 0.5033(4)
O2_2 O 0.6723(4) 0.8715(4) 0.4108(4)
N2_2 N 0.4188(5) 0.5899(4) 0.4659(4)
C1 C 0.3642(7) 0.4777(7) 0.4480(6)
H3 H 0.3555 0.4275 0.4330
C2_2 C 0.3444(6) 0.5854(6) 0.5010(6)
H4_2 H 0.3206 0.6245 0.5292
C3_2 C 0.4328(7) 0.5196(6) 0.4302(8)
H5_2 H 0.4786 0.5051 0.4011
C4_2 C 0.4734(6) 0.6566(5) 0.4631(5)
C5_2 C 0.4690(7) 0.7058(6) 0.5218(6)
H6_2 H 0.4349 0.6948 0.5628
C6_2 C 0.5220(6) 0.6711(6) 0.4018(6)
H7_2 H 0.5237 0.6375 0.3615
C7_2 C 0.5695(6) 0.7388(6) 0.4017(6)
H8_2 H 0.6054 0.7490 0.3619
C8_2 C 0.5162(6) 0.7730(6) 0.5198(6)
H9_2 H 0.5152 0.8065 0.5602
C9_2 C 0.5637(6) 0.7893(5) 0.4588(5)
C10_2 C 0.6128(5) 0.8640(5) 0.4564(6)
C11_2 C 0.6935(8) 0.9911(6) 0.2738(7)
H10_2 H 0.6682 0.9432 0.2746
C1_2 C 0.8642(7) 0.0223(7) 0.5520(6)
H3_2 H 0.8555 0.0725 0.5670
Cd3 Cd 0.67999(4) 0.01405(4) 0.45878(4)
O2_3 O 0.3277(4) 0.8715(4) 0.0892(4)
N1_2 N 0.6902(4) 0.5182(4) 0.0097(5)
N2_3 N 0.5812(5) 0.5899(4) 0.0341(4)
C1_3 C 0.6358(7) 0.4777(7) 0.0520(6)
H3_3 H 0.6445 0.4275 0.0670
C3_3 C 0.5672(7) 0.5196(6) 0.0698(8)
H5_3 H 0.5214 0.5051 0.0989
C4_3 C 0.5266(6) 0.6566(5) 0.0369(5)
C6_3 C 0.4780(6) 0.6711(6) 0.0982(6)
H7_3 H 0.4763 0.6375 0.1385
C7_3 C 0.4305(6) 0.7388(6) 0.0983(6)
H8_3 H 0.3946 0.7490 0.1381
C9_3 C 0.4363(6) 0.7893(5) 0.0412(5)
C10_3 C 0.3872(5) 0.8640(5) 0.0436(6)
C11_3 C 0.3065(8) 0.9911(6) 0.2262(7)
H10_3 H 0.3318 0.9432 0.2254
O1_3 O 0.4064(4) 0.9170(4) 0.9967(4)
C2_3 C 0.6556(6) 0.5854(6) 0.9990(6)
H4_3 H 0.6794 0.6245 0.9708
C5_3 C 0.5310(7) 0.7058(6) 0.9782(6)
H6_3 H 0.5651 0.6948 0.9372
C8_3 C 0.4838(6) 0.7730(6) 0.9802(6)
H9_3 H 0.4848 0.8065 0.9398
Cd3_2 Cd 0.82001(4) 0.48595(4) 0.95878(4)
N5_2 N 0.1902(4) 0.9818(4) 0.9903(5)
O3_2 O 0.8552(5) 0.4132(4) 0.0741(4)
O5_3 O 0.5488(4) 0.0558(4) 0.4080(4)
H1_3 H 0.5318 0.0233 0.3760
H2_3 H 0.5128 0.0596 0.4430
N3_3 N 0.7219(5) 0.0320(5) 0.3383(4)
N4_3 N 0.7456(5) 0.0955(5) 0.2337(4)
C12_3 C 0.7529(6) 0.0938(6) 0.3108(5)
H11_3 H 0.7772 0.1324 0.3392
C13_3 C 0.7086(8) 0.0316(6) 0.2130(6)
H12_3 H 0.6954 0.0175 0.1642
C14_3 C 0.7646(6) 0.1614(6) 0.1864(5)
C15_3 C 0.8336(7) 0.2065(7) 0.2010(6)
H13_3 H 0.8692 0.1942 0.2405
C16_3 C 0.7152(7) 0.1788(7) 0.1294(6)
H14_3 H 0.6687 0.1482 0.1193
C17_3 C 0.8505(7) 0.2705(6) 0.1569(6)
H15_3 H 0.8971 0.3009 0.1671
C18_3 C 0.7312(7) 0.2415(6) 0.0843(6)
H16_3 H 0.6962 0.2522 0.0438
C19_3 C 0.7991(6) 0.2879(5) 0.0996(5)
C20_3 C 0.8144(6) 0.3572(6) 0.0489(6)
O6_2 O 0.6448(5) 0.0868(4) 0.5741(4)
O7_2 O 0.7169(4) 0.1440(4) 0.4843(4)
O4_2 O 0.7831(4) 0.3560(4) 0.9843(4)
N2_4 N 0.0812(5) 0.9101(4) 0.9659(4)
C3_4 C 0.0672(7) 0.9804(6) 0.9302(8)
H5_4 H 0.0214 0.9949 0.9011
C4_4 C 0.0266(6) 0.8434(5) 0.9631(5)
O1_4 O 0.9064(4) 0.5830(4) 0.0033(4)
C8_4 C 0.9838(6) 0.7270(6) 0.0198(6)
H9_4 H 0.9848 0.6935 0.0602
O2_4 O 0.8277(4) 0.6285(4) 0.9108(4)
O5_4 O 0.9512(4) 0.4442(4) 0.9080(4)
H1_4 H 0.9682 0.4767 0.8760
H2_4 H 0.9872 0.4404 0.9430
N3_4 N 0.7781(5) 0.4680(5) 0.8383(4)
N4_4 N 0.7544(5) 0.4045(5) 0.7337(4)
C6_4 C 0.9780(6) 0.8289(6) 0.9018(6)
H7_4 H 0.9763 0.8625 0.8615
C7_4 C 0.9305(6) 0.7612(6) 0.9017(6)
H8_4 H 0.8946 0.7510 0.8619
C9_4 C 0.9363(6) 0.7107(5) 0.9588(5)
C10_4 C 0.8872(5) 0.6360(5) 0.9564(6)
C11_4 C 0.8065(8) 0.5089(6) 0.7738(7)
H10_4 H 0.8318 0.5568 0.7746
C12_4 C 0.7471(6) 0.4062(6) 0.8108(5)
H11_4 H 0.7228 0.3676 0.8392
C13_4 C 0.7914(8) 0.4684(6) 0.7130(6)
H12_4 H 0.8046 0.4825 0.6642
C14_4 C 0.7354(6) 0.3386(6) 0.6864(5)
C15_4 C 0.6664(7) 0.2935(7) 0.7010(6)
H13_4 H 0.6308 0.3058 0.7405
C16_4 C 0.7848(7) 0.3212(7) 0.6294(6)
H14_4 H 0.8313 0.3518 0.6193
C17_4 C 0.6495(7) 0.2295(6) 0.6569(6)
H15_4 H 0.6029 0.1991 0.6671
C18_4 C 0.7688(7) 0.2585(6) 0.5843(6)
H16_4 H 0.8038 0.2478 0.5438
C19_4 C 0.7009(6) 0.2121(5) 0.5996(5)
C20_4 C 0.6856(6) 0.1428(6) 0.5489(6)
C1_4 C 0.1358(7) 0.0223(7) 0.9480(6)
H3_4 H 0.1445 0.0725 0.9330
C2_4 C 0.1556(6) 0.9146(6) 0.0010(6)
H4_4 H 0.1794 0.8755 0.0292
C5_4 C 0.0310(7) 0.7942(6) 0.0218(6)
H6_4 H 0.0651 0.8052 0.0628
N1_3 N 0.1902(4) 0.0182(4) 0.4903(5)
N2_5 N 0.0812(5) 0.0899(4) 0.4659(4)
C2_5 C 0.1556(6) 0.0854(6) 0.5010(6)
H4_5 H 0.1794 0.1245 0.5292
C3_5 C 0.0672(7) 0.0196(6) 0.4302(8)
H5_5 H 0.0214 0.0051 0.4011
C4_5 C 0.0266(6) 0.1566(5) 0.4631(5)
C5_5 C 0.0310(7) 0.2058(6) 0.5218(6)
H6_5 H 0.0651 0.1948 0.5628
Cd1_2 Cd 0.82001(4) 0.51405(4) 0.45878(4)
O1_5 O 0.9064(4) 0.4170(4) 0.5033(4)
O2_5 O 0.8277(4) 0.3715(4) 0.4108(4)
O3_3 O 0.6448(5) 0.9132(4) 0.0741(4)
O5_5 O 0.9512(4) 0.5558(4) 0.4080(4)
H1_5 H 0.9682 0.5233 0.3760
H2_5 H 0.9872 0.5596 0.4430
N3_5 N 0.7781(5) 0.5320(5) 0.3383(4)
N4_5 N 0.7544(5) 0.5955(5) 0.2337(4)
C6_5 C 0.9780(6) 0.1711(6) 0.4018(6)
H7_5 H 0.9763 0.1375 0.3615
C7_5 C 0.9305(6) 0.2388(6) 0.4017(6)
H8_5 H 0.8946 0.2490 0.3619
C8_5 C 0.9838(6) 0.2730(6) 0.5198(6)
H9_5 H 0.9848 0.3065 0.5602
C9_5 C 0.9363(6) 0.2893(5) 0.4588(5)
C10_5 C 0.8872(5) 0.3640(5) 0.4564(6)
C11_5 C 0.8065(8) 0.4911(6) 0.2738(7)
H10_5 H 0.8318 0.4432 0.2746
C12_5 C 0.7471(6) 0.5938(6) 0.3108(5)
H11_5 H 0.7228 0.6324 0.3392
C13_5 C 0.7914(8) 0.5316(6) 0.2130(6)
H12_5 H 0.8046 0.5175 0.1642
C14_5 C 0.7354(6) 0.6614(6) 0.1864(5)
C15_5 C 0.6664(7) 0.7065(7) 0.2010(6)
H13_5 H 0.6308 0.6942 0.2405
C16_5 C 0.7848(7) 0.6788(7) 0.1294(6)
H14_5 H 0.8313 0.6482 0.1193
C17_5 C 0.6495(7) 0.7705(6) 0.1569(6)
H15_5 H 0.6029 0.8009 0.1671
C18_5 C 0.7688(7) 0.7415(6) 0.0843(6)
H16_5 H 0.8038 0.7522 0.0438
C19_5 C 0.7009(6) 0.7879(5) 0.0996(5)
C20_5 C 0.6856(6) 0.8572(6) 0.0489(6)
O6_3 O 0.8552(5) 0.5868(4) 0.5741(4)
O7_3 O 0.7831(4) 0.6440(4) 0.4843(4)
N5_3 N 0.6902(4) 0.4818(4) 0.5097(5)
O4_3 O 0.7169(4) 0.8560(4) 0.9843(4)
Cd2_2 Cd 0.67999(4) 0.98595(4) 0.95878(4)
O5_6 O 0.5488(4) 0.9442(4) 0.9080(4)
H1_6 H 0.5318 0.9767 0.8760
H2_6 H 0.5128 0.9404 0.9430
N3_6 N 0.7219(5) 0.9680(5) 0.8383(4)
N4_6 N 0.7456(5) 0.9045(5) 0.7337(4)
C12_6 C 0.7529(6) 0.9062(6) 0.8108(5)
H11_6 H 0.7772 0.8676 0.8392
C13_6 C 0.7086(8) 0.9684(6) 0.7130(6)
H12_6 H 0.6954 0.9825 0.6642
C14_6 C 0.7646(6) 0.8386(6) 0.6864(5)
C15_6 C 0.8336(7) 0.7935(7) 0.7010(6)
H13_6 H 0.8692 0.8058 0.7405
C16_6 C 0.7152(7) 0.8212(7) 0.6294(6)
H14_6 H 0.6687 0.8518 0.6193
C17_6 C 0.8505(7) 0.7295(6) 0.6569(6)
H15_6 H 0.8971 0.6991 0.6671
C18_6 C 0.7312(7) 0.7585(6) 0.5843(6)
H16_6 H 0.6962 0.7478 0.5438
C19_6 C 0.7991(6) 0.7121(5) 0.5996(5)
C20_6 C 0.8144(6) 0.6428(6) 0.5489(6)
O1_6 O 0.4064(4) 0.0830(4) 0.4967(4)
O2_6 O 0.3277(4) 0.1285(4) 0.5892(4)
N2_6 N 0.5812(5) 0.4101(4) 0.5341(4)
C1_5 C 0.6358(7) 0.5223(7) 0.5520(6)
H3_5 H 0.6445 0.5725 0.5670
C2_6 C 0.6556(6) 0.4146(6) 0.4990(6)
H4_6 H 0.6794 0.3755 0.4708
C3_6 C 0.5672(7) 0.4804(6) 0.5698(8)
H5_6 H 0.5214 0.4949 0.5989
C4_6 C 0.5266(6) 0.3434(5) 0.5369(5)
C5_6 C 0.5310(7) 0.2942(6) 0.4782(6)
H6_6 H 0.5651 0.3052 0.4372
C6_6 C 0.4780(6) 0.3289(6) 0.5982(6)
H7_6 H 0.4763 0.3625 0.6385
C7_6 C 0.4305(6) 0.2612(6) 0.5983(6)
H8_6 H 0.3946 0.2510 0.6381
C8_6 C 0.4838(6) 0.2270(6) 0.4802(6)
H9_6 H 0.4848 0.1935 0.4398
C9_6 C 0.4363(6) 0.2107(5) 0.5412(5)
C10_6 C 0.3872(5) 0.1360(5) 0.5436(6)
C11_6 C 0.3065(8) 0.0089(6) 0.7262(7)
H10_6 H 0.3318 0.0568 0.7254
C1_6 C 0.1358(7) 0.9777(7) 0.4480(6)
H3_6 H 0.1445 0.9275 0.4330
Cd3_3 Cd 0.32001(4) 0.98595(4) 0.54122(4)
O1_7 O 0.5936(4) 0.0830(4) 0.0033(4)
C2_7 C 0.3444(6) 0.4146(6) 0.0010(6)
H4_7 H 0.3206 0.3755 0.0292
C5_7 C 0.4690(7) 0.2942(6) 0.0218(6)
H6_7 H 0.4349 0.3052 0.0628
C8_7 C 0.5162(6) 0.2270(6) 0.0198(6)
H9_7 H 0.5152 0.1935 0.0602
Cd3_4 Cd 0.17999(4) 0.51405(4) 0.04122(4)
N5_4 N 0.8098(4) 0.0182(4) 0.0097(5)
O2_7 O 0.6723(4) 0.1285(4) 0.9108(4)
N1_4 N 0.3098(4) 0.4818(4) 0.9903(5)
N2_7 N 0.4188(5) 0.4101(4) 0.9659(4)
C1_7 C 0.3642(7) 0.5223(7) 0.9480(6)
H3_7 H 0.3555 0.5725 0.9330
C3_7 C 0.4328(7) 0.4804(6) 0.9302(8)
H5_7 H 0.4786 0.4949 0.9011
C4_7 C 0.4734(6) 0.3434(5) 0.9631(5)
C6_7 C 0.5220(6) 0.3289(6) 0.9018(6)
H7_7 H 0.5237 0.3625 0.8615
C7_7 C 0.5695(6) 0.2612(6) 0.9017(6)
H8_7 H 0.6054 0.2510 0.8619
C9_7 C 0.5637(6) 0.2107(5) 0.9588(5)
C10_7 C 0.6128(5) 0.1360(5) 0.9564(6)
C11_7 C 0.6935(8) 0.0089(6) 0.7738(7)
H10_7 H 0.6682 0.0568 0.7746
O4_4 O 0.2169(4) 0.6440(4) 0.0157(4)
O3_4 O 0.1448(5) 0.5868(4) 0.9259(4)
O5_7 O 0.4512(4) 0.9442(4) 0.5920(4)
H1_7 H 0.4682 0.9767 0.6240
H2_7 H 0.4872 0.9404 0.5570
N3_7 N 0.2781(5) 0.9680(5) 0.6617(4)
N4_7 N 0.2544(5) 0.9045(5) 0.7663(4)
C12_7 C 0.2471(6) 0.9062(6) 0.6892(5)
H11_7 H 0.2228 0.8676 0.6608
C13_7 C 0.2914(8) 0.9684(6) 0.7870(6)
H12_7 H 0.3046 0.9825 0.8358
C14_7 C 0.2354(6) 0.8386(6) 0.8136(5)
C15_7 C 0.1664(7) 0.7935(7) 0.7990(6)
H13_7 H 0.1308 0.8058 0.7595
C16_7 C 0.2848(7) 0.8212(7) 0.8706(6)
H14_7 H 0.3313 0.8518 0.8807
C17_7 C 0.1495(7) 0.7295(6) 0.8431(6)
H15_7 H 0.1029 0.6991 0.8329
C18_7 C 0.2688(7) 0.7585(6) 0.9157(6)
H16_7 H 0.3038 0.7478 0.9562
C19_7 C 0.2009(6) 0.7121(5) 0.9004(5)
C20_7 C 0.1856(6) 0.6428(6) 0.9511(6)
O6_4 O 0.3552(5) 0.9132(4) 0.4259(4)
O7_4 O 0.2831(4) 0.8560(4) 0.5157(4)
O2_8 O 0.1723(4) 0.3715(4) 0.0892(4)
O5_8 O 0.0488(4) 0.5558(4) 0.0920(4)
H1_8 H 0.0318 0.5233 0.1240
H2_8 H 0.0128 0.5596 0.0570
N3_8 N 0.2219(5) 0.5320(5) 0.1617(4)
N4_8 N 0.2456(5) 0.5955(5) 0.2663(4)
C6_8 C 0.0220(6) 0.1711(6) 0.0982(6)
H7_8 H 0.0237 0.1375 0.1385
C7_8 C 0.0695(6) 0.2388(6) 0.0983(6)
H8_8 H 0.1054 0.2490 0.1381
C9_8 C 0.0637(6) 0.2893(5) 0.0412(5)
C10_8 C 0.1128(5) 0.3640(5) 0.0436(6)
C11_8 C 0.1935(8) 0.4911(6) 0.2262(7)
H10_8 H 0.1682 0.4432 0.2254
C12_8 C 0.2529(6) 0.5938(6) 0.1892(5)
H11_8 H 0.2772 0.6324 0.1608
C13_8 C 0.2086(8) 0.5316(6) 0.2870(6)
H12_8 H 0.1954 0.5175 0.3358
C14_8 C 0.2646(6) 0.6614(6) 0.3136(5)
C15_8 C 0.3336(7) 0.7065(7) 0.2990(6)
H13_8 H 0.3692 0.6942 0.2595
C16_8 C 0.2152(7) 0.6788(7) 0.3706(6)
H14_8 H 0.1687 0.6482 0.3807
C17_8 C 0.3505(7) 0.7705(6) 0.3431(6)
H15_8 H 0.3971 0.8009 0.3329
C18_8 C 0.2312(7) 0.7415(6) 0.4157(6)
H16_8 H 0.1962 0.7522 0.4562
C19_8 C 0.2991(6) 0.7879(5) 0.4004(5)
C20_8 C 0.3144(6) 0.8572(6) 0.4511(6)
O1_8 O 0.0936(4) 0.4170(4) 0.9967(4)
C8_8 C 0.0162(6) 0.2730(6) 0.9802(6)
H9_8 H 0.0152 0.3065 0.9398
N2_8 N 0.9188(5) 0.0899(4) 0.0341(4)
C3_8 C 0.9328(7) 0.0196(6) 0.0698(8)
H5_8 H 0.9786 0.0051 0.0989
C4_8 C 0.9734(6) 0.1566(5) 0.0369(5)
C2_8 C 0.8444(6) 0.0854(6) 0.9990(6)
H4_8 H 0.8206 0.1245 0.9708
C5_8 C 0.9690(7) 0.2058(6) 0.9782(6)
H6_8 H 0.9349 0.1948 0.9372
C1_8 C 0.8642(7) 0.9777(7) 0.0520(6)
H3_8 H 0.8555 0.9275 0.0670
loop_
_geom_bond_atom_site_label_1
_geom_bond_atom_site_label_2
_geom_bond_site_symmetry_1
_geom_bond_site_symmetry_2
O4 Cd2 1_555 1_555
Cd1 O1 1_555 1_555
O1 C10 1_555 1_555
O2 Cd1 1_555 1_555
O3 C20 1_555 1_555
O5 Cd1 1_555 1_555
H1 O5 1_555 1_555
H2 O5 1_555 1_555
N3 Cd1 1_555 1_555
N4 C12 1_555 1_555
H7 C6 1_555 1_555
C7 C6 1_555 1_555
H8 C7 1_555 1_555
H9 C8 1_555 1_555
C9 C7 1_555 1_555
C10 O2 1_555 1_555
C11 N3 1_555 1_555
H10 C11 1_555 1_555
C12 N3 1_555 1_555
H11 C12 1_555 1_555
C13 N4 1_555 1_555
H12 C13 1_555 1_555
C14 N4 1_555 1_555
C15 C14 1_555 1_555
H13 C15 1_555 1_555
C16 C14 1_555 1_555
H14 C16 1_555 1_555
C17 C15 1_555 1_555
H15 C17 1_555 1_555
C18 C16 1_555 1_555
H16 C18 1_555 1_555
C19 C17 1_555 1_555
C20 C19 1_555 1_555
O6 Cd1 1_555 1_555
O7 Cd1 1_555 1_555
N5 Cd1 1_555 1_555
C8 C9 1_555 1_555
C9 C10 1_555 1_555
C11 C13 1_555 1_555
C18 C19 1_555 1_555
N2 C2 1_555 1_555
C2 N1 1_555 1_555
H4 C2 1_555 1_555
C3 N2 1_555 1_555
H5 C3 1_555 1_555
C4 N2 1_555 1_555
C5 C4 1_555 1_555
H6 C5 1_555 1_555
O6 C20_2 1_555 1_555
O7 C20_2 1_555 1_555
O5_2 Cd2 1_555 1_555
H1_2 O5_2 1_555 1_555
H2_2 O5_2 1_555 1_555
N3_2 Cd2 1_555 1_555
N4_2 C12_2 1_555 1_555
C12_2 N3_2 1_555 1_555
H11_2 C12_2 1_555 1_555
C13_2 N4_2 1_555 1_555
H12_2 C13_2 1_555 1_555
C14_2 N4_2 1_555 1_555
C15_2 C14_2 1_555 1_555
H13_2 C15_2 1_555 1_555
C16_2 C14_2 1_555 1_555
H14_2 C16_2 1_555 1_555
C17_2 C15_2 1_555 1_555
H15_2 C17_2 1_555 1_555
C18_2 C16_2 1_555 1_555
H16_2 C18_2 1_555 1_555
C19_2 C17_2 1_555 1_555
C20_2 C19_2 1_555 1_555
C18_2 C19_2 1_555 1_555
O1_2 C10_2 1_555 1_555
N5 C1 1_555 1_555
N2_2 C2_2 1_555 1_555
C1 H3 1_555 1_555
C2_2 N5 1_555 1_555
H4_2 C2_2 1_555 1_555
C3_2 N2_2 1_555 1_555
H5_2 C3_2 1_555 1_555
C4_2 N2_2 1_555 1_555
C5_2 C4_2 1_555 1_555
H6_2 C5_2 1_555 1_555
C6_2 C4_2 1_555 1_555
H7_2 C6_2 1_555 1_555
C7_2 C6_2 1_555 1_555
H8_2 C7_2 1_555 1_555
C8_2 C5_2 1_555 1_555
H9_2 C8_2 1_555 1_555
C9_2 C7_2 1_555 1_555
C10_2 O2_2 1_555 1_555
H10_2 C11_2 1_555 1_555
C1 C3_2 1_555 1_555
C8_2 C9_2 1_555 1_555
C9_2 C10_2 1_555 1_555
C1_2 H3_2 1_555 1_555
N1_2 C1_3 1_555 1_555
C1_3 H3_3 1_555 1_555
C3_3 N2_3 1_555 1_555
H5_3 C3_3 1_555 1_555
C4_3 N2_3 1_555 1_555
C6_3 C4_3 1_555 1_555
H7_3 C6_3 1_555 1_555
C7_3 C6_3 1_555 1_555
H8_3 C7_3 1_555 1_555
C9_3 C7_3 1_555 1_555
C10_3 O2_3 1_555 1_555
H10_3 C11_3 1_555 1_555
C1_3 C3_3 1_555 1_555
C9_3 C10_3 1_555 1_555
H4_3 C2_3 1_555 1_555
H6_3 C5_3 1_555 1_555
C8_3 C5_3 1_555 1_555
H9_3 C8_3 1_555 1_555
O3_2 C20_3 1_555 1_555
O5_3 Cd3 1_555 1_555
H1_3 O5_3 1_555 1_555
H2_3 O5_3 1_555 1_555
N3_3 Cd3 1_555 1_555
N4_3 C12_3 1_555 1_555
C12_3 N3_3 1_555 1_555
H11_3 C12_3 1_555 1_555
C13_3 N4_3 1_555 1_555
H12_3 C13_3 1_555 1_555
C14_3 N4_3 1_555 1_555
C15_3 C14_3 1_555 1_555
H13_3 C15_3 1_555 1_555
C16_3 C14_3 1_555 1_555
H14_3 C16_3 1_555 1_555
C17_3 C15_3 1_555 1_555
H15_3 C17_3 1_555 1_555
C18_3 C16_3 1_555 1_555
H16_3 C18_3 1_555 1_555
C19_3 C17_3 1_555 1_555
C20_3 C19_3 1_555 1_555
O6_2 Cd3 1_555 1_555
O7_2 Cd3 1_555 1_555
C18_3 C19_3 1_555 1_555
O4_2 Cd3_2 1_555 1_555
C3_4 N2_4 1_555 1_555
H5_4 C3_4 1_555 1_555
C4_4 N2_4 1_555 1_555
H9_4 C8_4 1_555 1_555
O2_4 Cd3_2 1_555 1_555
O6_2 C20_4 1_555 1_555
O7_2 C20_4 1_555 1_555
O5_4 Cd3_2 1_555 1_555
H1_4 O5_4 1_555 1_555
H2_4 O5_4 1_555 1_555
N3_4 Cd3_2 1_555 1_555
N4_4 C12_4 1_555 1_555
H7_4 C6_4 1_555 1_555
C7_4 C6_4 1_555 1_555
H8_4 C7_4 1_555 1_555
C9_4 C7_4 1_555 1_555
C10_4 O2_4 1_555 1_555
C11_4 N3_4 1_555 1_555
H10_4 C11_4 1_555 1_555
C12_4 N3_4 1_555 1_555
H11_4 C12_4 1_555 1_555
C13_4 N4_4 1_555 1_555
H12_4 C13_4 1_555 1_555
C14_4 N4_4 1_555 1_555
C15_4 C14_4 1_555 1_555
H13_4 C15_4 1_555 1_555
C16_4 C14_4 1_555 1_555
H14_4 C16_4 1_555 1_555
C17_4 C15_4 1_555 1_555
H15_4 C17_4 1_555 1_555
C18_4 C16_4 1_555 1_555
H16_4 C18_4 1_555 1_555
C19_4 C17_4 1_555 1_555
C20_4 C19_4 1_555 1_555
C9_4 C10_4 1_555 1_555
C11_4 C13_4 1_555 1_555
C18_4 C19_4 1_555 1_555
C1_4 H3_4 1_555 1_555
H4_4 C2_4 1_555 1_555
H6_4 C5_4 1_555 1_555
N2_5 C2_5 1_555 1_555
C2_5 N1_3 1_555 1_555
H4_5 C2_5 1_555 1_555
C3_5 N2_5 1_555 1_555
H5_5 C3_5 1_555 1_555
C4_5 N2_5 1_555 1_555
C5_5 C4_5 1_555 1_555
H6_5 C5_5 1_555 1_555
Cd1_2 O1_5 1_555 1_555
O1_5 C10_5 1_555 1_555
O2_5 Cd1_2 1_555 1_555
O3_3 C20_5 1_555 1_555
O5_5 Cd1_2 1_555 1_555
H1_5 O5_5 1_555 1_555
H2_5 O5_5 1_555 1_555
N3_5 Cd1_2 1_555 1_555
N4_5 C12_5 1_555 1_555
H7_5 C6_5 1_555 1_555
C7_5 C6_5 1_555 1_555
H8_5 C7_5 1_555 1_555
H9_5 C8_5 1_555 1_555
C9_5 C7_5 1_555 1_555
C10_5 O2_5 1_555 1_555
C11_5 N3_5 1_555 1_555
H10_5 C11_5 1_555 1_555
C12_5 N3_5 1_555 1_555
H11_5 C12_5 1_555 1_555
C13_5 N4_5 1_555 1_555
H12_5 C13_5 1_555 1_555
C14_5 N4_5 1_555 1_555
C15_5 C14_5 1_555 1_555
H13_5 C15_5 1_555 1_555
C16_5 C14_5 1_555 1_555
H14_5 C16_5 1_555 1_555
C17_5 C15_5 1_555 1_555
H15_5 C17_5 1_555 1_555
C18_5 C16_5 1_555 1_555
H16_5 C18_5 1_555 1_555
C19_5 C17_5 1_555 1_555
C20_5 C19_5 1_555 1_555
O6_3 Cd1_2 1_555 1_555
O7_3 Cd1_2 1_555 1_555
N5_3 Cd1_2 1_555 1_555
C8_5 C9_5 1_555 1_555
C9_5 C10_5 1_555 1_555
C11_5 C13_5 1_555 1_555
C18_5 C19_5 1_555 1_555
O4_3 Cd2_2 1_555 1_555
O6_3 C20_6 1_555 1_555
O7_3 C20_6 1_555 1_555
O5_6 Cd2_2 1_555 1_555
H1_6 O5_6 1_555 1_555
H2_6 O5_6 1_555 1_555
N3_6 Cd2_2 1_555 1_555
N4_6 C12_6 1_555 1_555
C12_6 N3_6 1_555 1_555
H11_6 C12_6 1_555 1_555
C13_6 N4_6 1_555 1_555
H12_6 C13_6 1_555 1_555
C14_6 N4_6 1_555 1_555
C15_6 C14_6 1_555 1_555
H13_6 C15_6 1_555 1_555
C16_6 C14_6 1_555 1_555
H14_6 C16_6 1_555 1_555
C17_6 C15_6 1_555 1_555
H15_6 C17_6 1_555 1_555
C18_6 C16_6 1_555 1_555
H16_6 C18_6 1_555 1_555
C19_6 C17_6 1_555 1_555
C20_6 C19_6 1_555 1_555
C18_6 C19_6 1_555 1_555
O1_6 C10_6 1_555 1_555
N5_3 C1_5 1_555 1_555
N2_6 C2_6 1_555 1_555
C1_5 H3_5 1_555 1_555
C2_6 N5_3 1_555 1_555
H4_6 C2_6 1_555 1_555
C3_6 N2_6 1_555 1_555
H5_6 C3_6 1_555 1_555
C4_6 N2_6 1_555 1_555
C5_6 C4_6 1_555 1_555
H6_6 C5_6 1_555 1_555
C6_6 C4_6 1_555 1_555
H7_6 C6_6 1_555 1_555
C7_6 C6_6 1_555 1_555
H8_6 C7_6 1_555 1_555
C8_6 C5_6 1_555 1_555
H9_6 C8_6 1_555 1_555
C9_6 C7_6 1_555 1_555
C10_6 O2_6 1_555 1_555
H10_6 C11_6 1_555 1_555
C1_5 C3_6 1_555 1_555
C8_6 C9_6 1_555 1_555
C9_6 C10_6 1_555 1_555
C1_6 H3_6 1_555 1_555
H4_7 C2_7 1_555 1_555
H6_7 C5_7 1_555 1_555
C8_7 C5_7 1_555 1_555
H9_7 C8_7 1_555 1_555
N1_4 C1_7 1_555 1_555
C1_7 H3_7 1_555 1_555
C3_7 N2_7 1_555 1_555
H5_7 C3_7 1_555 1_555
C4_7 N2_7 1_555 1_555
C6_7 C4_7 1_555 1_555
H7_7 C6_7 1_555 1_555
C7_7 C6_7 1_555 1_555
H8_7 C7_7 1_555 1_555
C9_7 C7_7 1_555 1_555
C10_7 O2_7 1_555 1_555
H10_7 C11_7 1_555 1_555
C1_7 C3_7 1_555 1_555
C9_7 C10_7 1_555 1_555
O4_4 Cd3_4 1_555 1_555
O3_4 C20_7 1_555 1_555
O5_7 Cd3_3 1_555 1_555
H1_7 O5_7 1_555 1_555
H2_7 O5_7 1_555 1_555
N3_7 Cd3_3 1_555 1_555
N4_7 C12_7 1_555 1_555
C12_7 N3_7 1_555 1_555
H11_7 C12_7 1_555 1_555
C13_7 N4_7 1_555 1_555
H12_7 C13_7 1_555 1_555
C14_7 N4_7 1_555 1_555
C15_7 C14_7 1_555 1_555
H13_7 C15_7 1_555 1_555
C16_7 C14_7 1_555 1_555
H14_7 C16_7 1_555 1_555
C17_7 C15_7 1_555 1_555
H15_7 C17_7 1_555 1_555
C18_7 C16_7 1_555 1_555
H16_7 C18_7 1_555 1_555
C19_7 C17_7 1_555 1_555
C20_7 C19_7 1_555 1_555
O6_4 Cd3_3 1_555 1_555
O7_4 Cd3_3 1_555 1_555
C18_7 C19_7 1_555 1_555
O2_8 Cd3_4 1_555 1_555
O6_4 C20_8 1_555 1_555
O7_4 C20_8 1_555 1_555
O5_8 Cd3_4 1_555 1_555
H1_8 O5_8 1_555 1_555
H2_8 O5_8 1_555 1_555
N3_8 Cd3_4 1_555 1_555
N4_8 C12_8 1_555 1_555
H7_8 C6_8 1_555 1_555
C7_8 C6_8 1_555 1_555
H8_8 C7_8 1_555 1_555
C9_8 C7_8 1_555 1_555
C10_8 O2_8 1_555 1_555
C11_8 N3_8 1_555 1_555
H10_8 C11_8 1_555 1_555
C12_8 N3_8 1_555 1_555
H11_8 C12_8 1_555 1_555
C13_8 N4_8 1_555 1_555
H12_8 C13_8 1_555 1_555
C14_8 N4_8 1_555 1_555
C15_8 C14_8 1_555 1_555
H13_8 C15_8 1_555 1_555
C16_8 C14_8 1_555 1_555
H14_8 C16_8 1_555 1_555
C17_8 C15_8 1_555 1_555
H15_8 C17_8 1_555 1_555
C18_8 C16_8 1_555 1_555
H16_8 C18_8 1_555 1_555
C19_8 C17_8 1_555 1_555
C20_8 C19_8 1_555 1_555
C9_8 C10_8 1_555 1_555
C11_8 C13_8 1_555 1_555
C18_8 C19_8 1_555 1_555
H9_8 C8_8 1_555 1_555
C3_8 N2_8 1_555 1_555
H5_8 C3_8 1_555 1_555
C4_8 N2_8 1_555 1_555
H4_8 C2_8 1_555 1_555
H6_8 C5_8 1_555 1_555
C1_8 H3_8 1_555 1_555

#END
