
###############################################################################
#
# This file contains modified crystal structure data generated from the
# MOF subset of the Cambridge Structural Database (CSD) v543 
# hosted by the Cambridge Crystallographic Data Centre (CCDC).
#
# This work is licensed under the Creative Commons
# Attribution-NonCommercial-ShareAlike 4.0 International License.
# To view a copy of this license, visit
# http://creativecommons.org/licenses/by-nc-sa/4.0/
# or send a letter to
# Creative Commons, PO Box 1866, Mountain View, CA 94042, USA.
#
# CIF created using the CSD Python API on 29 September 2022
# The structure has been converted into the P1 space group
# The structure has a 3D framework
# The original CSD entry UQOHEQ is in the monoclinic crystal system
# The framework has been calculated to contain at least 10.0% void space
# The void calculation uses a probe of radius 1.32A, grid spacing 0.4
#
###############################################################################

data_UQOHEQ
_chemical_formula_moiety         '(C164 H112 N32 Ni8 O42 S8)n'
_symmetry_cell_setting           triclinic
_symmetry_space_group_name_H-M   'P 1'
_symmetry_Int_Tables_number      1
_space_group_name_Hall           'P 1'
loop_
_symmetry_equiv_pos_site_id
_symmetry_equiv_pos_as_xyz
1 x,y,z
_cell_length_a                   10.0807(4)
_cell_length_b                   24.8681(11)
_cell_length_c                   20.3417(9)
_cell_angle_alpha                90
_cell_angle_beta                 98.854(1)
_cell_angle_gamma                90
_cell_volume                     5038.65
loop_
_atom_site_label
_atom_site_type_symbol
_atom_site_fract_x
_atom_site_fract_y
_atom_site_fract_z
O8 O 0.0573(2) 0.72640(12) 0.01772(12)
Ni7 Ni 0.26054(4) 0.74212(2) 0.01353(2)
O7 O 0.1108(3) 0.74654(13) 0.92008(13)
C40 C 0.0229(4) 0.73807(17) 0.95723(19)
O9 O 0.6028(2) 0.76190(11) 0.06479(11)
H27 H 0.8200 0.7492 0.0218
C41 C 0.5544(4) 0.76046(15) 0.00452(18)
Ni4 Ni 0.52448(5) 0.74770(2) 0.14932(2)
Ni1 Ni 0.52448(5) 0.75230(2) 0.64932(2)
S1 S 0.02791(14) 0.50917(5) 0.85030(7)
S2 S 0.23990(14) 0.00170(5) 0.80212(6)
O1 O 0.1918(4) 0.51888(16) 0.7476(2)
O3 O 0.0637(5) 0.01503(17) 0.9027(2)
O4 O 0.4480(5) 0.03572(17) 0.6594(2)
O5 O 0.5120(3) 0.76582(12) 0.75119(13)
O6 O 0.7064(3) 0.74297(13) 0.72386(13)
O10 O 0.4318(2) 0.76116(12) 0.98024(12)
O11 O 0.3314(2) 0.76504(11) 0.61032(11)
H1 H 0.2718 0.7748 0.6389
N1 N 0.4737(3) 0.67232(15) 0.66181(16)
N2 N 0.2503(4) 0.60680(16) 0.7609(2)
H2 H 0.2372 0.6355 0.7826
N6 N 0.0052(4) 0.10279(16) 0.8820(2)
H4 H 0.0185 0.1299 0.8577
C1 C 0.5095(5) 0.6316(2) 0.6253(2)
H6 H 0.5677 0.6384 0.5950
C2 C 0.4631(5) 0.5804(2) 0.6311(3)
H7 H 0.4898 0.5531 0.6047
C3 C 0.3773(5) 0.5691(2) 0.6757(3)
H8 H 0.3462 0.5343 0.6804
C4 C 0.3383(4) 0.61136(19) 0.7135(2)
C5 C 0.3898(4) 0.66152(18) 0.7048(2)
H9 H 0.3647 0.6896 0.7304
C6 C 0.1845(5) 0.5622(2) 0.7757(3)
C7 C 0.1000(5) 0.5677(2) 0.8284(2)
C8 C 0.0634(5) 0.6105(2) 0.8634(2)
H10 H 0.0927 0.6455 0.8581
C22 C 0.0715(5) 0.0566(2) 0.8715(2)
C23 C 0.1573(5) 0.0597(2) 0.8187(2)
C24 C 0.1827(5) 0.1005(2) 0.7779(3)
H20 H 0.1466 0.1348 0.7794
C25 C 0.2683(5) 0.0855(2) 0.7336(3)
H21 H 0.2959 0.1089 0.7028
C26 C 0.3080(5) 0.0330(2) 0.7397(2)
C27 C 0.3984(5) 0.0083(2) 0.6976(2)
C33 C 0.6348(4) 0.75398(17) 0.76778(19)
C34 C 0.6912(4) 0.75217(17) 0.84051(18)
C35 C 0.8282(4) 0.74524(16) 0.86267(18)
H26 H 0.8873 0.7416 0.8321
C36 C 0.8766(4) 0.74382(16) 0.93090(18)
C37 C 0.7878(4) 0.74972(17) 0.97648(18)
C38 C 0.6518(4) 0.75643(16) 0.95468(18)
C39 C 0.6039(4) 0.75753(17) 0.88696(18)
H28 H 0.5125 0.7619 0.8724
Ni5 Ni 0.26054(4) 0.75788(2) 0.51353(2)
O14 O 0.6028(2) 0.73810(11) 0.56479(11)
N9 N 0.5602(3) 0.83379(15) 0.64095(16)
N7 N 0.4185(4) 0.95481(18) 0.7028(2)
H5 H 0.3750 0.9380 0.7296
C28 C 0.5031(5) 0.9231(2) 0.6689(2)
C29 C 0.6086(5) 0.9439(2) 0.6401(3)
H22 H 0.6261 0.9806 0.6405
C30 C 0.6856(6) 0.9084(2) 0.6111(3)
H23 H 0.7545 0.9212 0.5897
C31 C 0.6620(5) 0.8540(2) 0.6133(2)
H24 H 0.7183 0.8306 0.5950
C32 C 0.4825(4) 0.86856(19) 0.6675(2)
H25 H 0.4106 0.8551 0.6860
N3 N 0.1695(4) 0.96364(16) 0.5631(2)
H3 H 0.1366 0.9489 0.5953
N4 N 0.2962(3) 0.83979(14) 0.50015(16)
N5 N 0.2147(3) 0.67674(15) 0.52441(17)
C12 C 0.2465(4) 0.93051(19) 0.5275(2)
C13 C 0.3417(5) 0.9494(2) 0.4902(3)
H12 H 0.3592 0.9860 0.4875
C14 C 0.4089(5) 0.9124(2) 0.4575(3)
H13 H 0.4715 0.9241 0.4315
C15 C 0.3845(5) 0.8587(2) 0.4629(2)
H14 H 0.4306 0.8345 0.4399
C16 C 0.2297(4) 0.87536(18) 0.5316(2)
H15 H 0.1687 0.8625 0.5577
C17 C 0.2522(5) 0.6387(2) 0.4845(2)
H16 H 0.3090 0.6480 0.4543
C18 C 0.2094(5) 0.5862(2) 0.4868(3)
H17 H 0.2381 0.5607 0.4587
C19 C 0.1236(5) 0.5713(2) 0.5307(3)
H18 H 0.0944 0.5360 0.5328
C20 C 0.0829(4) 0.61074(18) 0.5715(2)
C21 C 0.1323(4) 0.66252(18) 0.5669(2)
H19 H 0.1066 0.6887 0.5950
O12 O 0.1108(3) 0.75346(13) 0.42008(13)
O13 O 0.0573(2) 0.77360(12) 0.51772(12)
O15 O 0.4318(2) 0.73884(12) 0.48024(12)
O2 O 0.1863(5) 0.45758(16) 0.0091(2)
N3_2 N 0.1695(4) 0.53636(16) 0.0631(2)
H3_2 H 0.1366 0.5511 0.0953
N4_2 N 0.2962(3) 0.66021(14) 0.00015(16)
N5_2 N 0.2147(3) 0.82326(15) 0.02441(17)
C9 C 0.0225(5) 0.4039(2) 0.0920(2)
H11 H 0.0565 0.3794 0.0642
C10 C 0.0517(5) 0.4575(2) 0.0934(2)
C11 C 0.1419(5) 0.4835(2) 0.0517(2)
C12_2 C 0.2465(4) 0.56949(19) 0.0275(2)
C16_2 C 0.2297(4) 0.62464(18) 0.0316(2)
H15_2 H 0.1687 0.6375 0.0577
C19_2 C 0.1236(5) 0.9287(2) 0.0307(3)
H18_2 H 0.0944 0.9640 0.0328
C20_2 C 0.0829(4) 0.88926(18) 0.0715(2)
C21_2 C 0.1323(4) 0.83748(18) 0.0669(2)
H19_2 H 0.1066 0.8113 0.0950
O16 O 0.3314(2) 0.73496(11) 0.11032(11)
C13_2 C 0.3417(5) 0.5506(2) 0.9902(3)
H12_2 H 0.3592 0.5140 0.9875
C14_2 C 0.4089(5) 0.5876(2) 0.9575(3)
H13_2 H 0.4715 0.5759 0.9315
C15_2 C 0.3845(5) 0.6413(2) 0.9629(2)
H14_2 H 0.4306 0.6655 0.9399
C17_2 C 0.2522(5) 0.8613(2) 0.9845(2)
H16_2 H 0.3090 0.8520 0.9543
C18_2 C 0.2094(5) 0.9138(2) 0.9868(3)
H17_2 H 0.2381 0.9393 0.9587
C40_2 C 0.0229(4) 0.76193(17) 0.45723(19)
S2_2 S 0.23990(14) 0.49830(5) 0.30212(6)
O3_2 O 0.0637(5) 0.48497(17) 0.4027(2)
O4_2 O 0.4480(5) 0.46428(17) 0.1594(2)
N6_2 N 0.0052(4) 0.39721(16) 0.3820(2)
H4_2 H 0.0185 0.3701 0.3577
N7_2 N 0.4185(4) 0.54519(18) 0.2028(2)
H5_2 H 0.3750 0.5620 0.2296
N8 N 0.5602(3) 0.66621(15) 0.14095(16)
C22_2 C 0.0715(5) 0.4434(2) 0.3715(2)
C23_2 C 0.1573(5) 0.4403(2) 0.3187(2)
C24_2 C 0.1827(5) 0.3995(2) 0.2779(3)
H20_2 H 0.1466 0.3652 0.2794
C25_2 C 0.2683(5) 0.4145(2) 0.2336(3)
H21_2 H 0.2959 0.3911 0.2028
C26_2 C 0.3080(5) 0.4670(2) 0.2397(2)
C27_2 C 0.3984(5) 0.4917(2) 0.1976(2)
C28_2 C 0.5031(5) 0.5769(2) 0.1689(2)
C29_2 C 0.6086(5) 0.5561(2) 0.1401(3)
H22_2 H 0.6261 0.5194 0.1405
C30_2 C 0.6856(6) 0.5916(2) 0.1111(3)
H23_2 H 0.7545 0.5788 0.0897
C31_2 C 0.6620(5) 0.6460(2) 0.1133(2)
H24_2 H 0.7183 0.6694 0.0950
C32_2 C 0.4825(4) 0.63144(19) 0.1675(2)
H25_2 H 0.4106 0.6449 0.1860
S1_2 S 0.02791(14) 0.99083(5) 0.35030(7)
O1_2 O 0.1918(4) 0.98112(16) 0.2476(2)
O5_2 O 0.5120(3) 0.73418(12) 0.25119(13)
O6_2 O 0.7064(3) 0.75703(13) 0.22386(13)
H1_2 H 0.2718 0.7252 0.1389
N1_2 N 0.4737(3) 0.82768(15) 0.16181(16)
N2_2 N 0.2503(4) 0.89320(16) 0.2609(2)
H2_2 H 0.2372 0.8645 0.2826
C1_2 C 0.5095(5) 0.8684(2) 0.1253(2)
H6_2 H 0.5677 0.8616 0.0950
C2_2 C 0.4631(5) 0.9196(2) 0.1311(3)
H7_2 H 0.4898 0.9469 0.1047
C3_2 C 0.3773(5) 0.9309(2) 0.1757(3)
H8_2 H 0.3462 0.9657 0.1804
C4_2 C 0.3383(4) 0.88864(19) 0.2135(2)
C5_2 C 0.3898(4) 0.83848(18) 0.2048(2)
H9_2 H 0.3647 0.8104 0.2304
C6_2 C 0.1845(5) 0.9378(2) 0.2757(3)
C7_2 C 0.1000(5) 0.9323(2) 0.3284(2)
C8_2 C 0.0634(5) 0.8895(2) 0.3634(2)
H10_2 H 0.0927 0.8545 0.3581
C33_2 C 0.6348(4) 0.74602(17) 0.26778(19)
C34_2 C 0.6912(4) 0.74783(17) 0.34051(18)
C35_2 C 0.8282(4) 0.75476(16) 0.36267(18)
H26_2 H 0.8873 0.7584 0.3321
C36_2 C 0.8766(4) 0.75618(16) 0.43090(18)
C37_2 C 0.7878(4) 0.75028(17) 0.47648(18)
H27_2 H 0.8200 0.7508 0.5218
C38_2 C 0.6518(4) 0.74357(16) 0.45468(18)
C39_2 C 0.6039(4) 0.74247(17) 0.38696(18)
H28_2 H 0.5125 0.7381 0.3724
C41_2 C 0.5544(4) 0.73954(15) 0.50452(18)
C13_3 C 0.6583(5) 0.4494(2) 0.0098(3)
H12_3 H 0.6408 0.4860 0.0125
C14_3 C 0.5911(5) 0.4124(2) 0.0425(3)
H13_3 H 0.5285 0.4241 0.0685
C15_3 C 0.6155(5) 0.3587(2) 0.0371(2)
H14_3 H 0.5694 0.3345 0.0601
C17_3 C 0.7478(5) 0.1387(2) 0.0155(2)
H16_3 H 0.6910 0.1480 0.0457
C18_3 C 0.7906(5) 0.0862(2) 0.0132(3)
H17_3 H 0.7619 0.0607 0.0413
O12_2 O 0.8892(3) 0.25346(13) 0.07992(13)
O15_2 O 0.5682(2) 0.23884(12) 0.01976(12)
Ni2 Ni 0.73946(4) 0.25788(2) 0.98647(2)
O2_2 O 0.8137(5) 0.54242(16) 0.9909(2)
N3_3 N 0.8305(4) 0.46364(16) 0.9369(2)
H3_3 H 0.8634 0.4489 0.9047
N4_3 N 0.7038(3) 0.33979(14) 0.99985(16)
N5_3 N 0.7853(3) 0.17674(15) 0.97559(17)
C9_2 C 0.9775(5) 0.5961(2) 0.9080(2)
H11_2 H 0.9435 0.6206 0.9358
C10_2 C 0.9483(5) 0.5425(2) 0.9066(2)
C11_2 C 0.8581(5) 0.5165(2) 0.9483(2)
C12_3 C 0.7535(4) 0.43051(19) 0.9725(2)
C16_3 C 0.7703(4) 0.37536(18) 0.9684(2)
H15_3 H 0.8313 0.3625 0.9423
C19_3 C 0.8764(5) 0.0713(2) 0.9693(3)
H18_3 H 0.9056 0.0360 0.9672
C20_3 C 0.9171(4) 0.11074(18) 0.9285(2)
C21_3 C 0.8677(4) 0.16252(18) 0.9331(2)
H19_3 H 0.8934 0.1887 0.9050
O13_2 O 0.9427(2) 0.27360(12) 0.98228(12)
O16_2 O 0.6686(2) 0.26504(11) 0.88968(11)
Ni1_2 Ni 0.47552(5) 0.25230(2) 0.85068(2)
S1_3 S 0.97209(14) 0.00917(5) 0.64970(7)
O1_3 O 0.8082(4) 0.01888(16) 0.7524(2)
O5_3 O 0.4880(3) 0.26582(12) 0.74881(13)
O6_3 O 0.2936(3) 0.24297(13) 0.77614(13)
O9_2 O 0.3972(2) 0.26190(11) 0.43521(11)
O10_2 O 0.5682(2) 0.26116(12) 0.51976(12)
H1_3 H 0.7282 0.2748 0.8611
N1_3 N 0.5263(3) 0.17232(15) 0.83819(16)
N2_3 N 0.7497(4) 0.10680(16) 0.7391(2)
H2_3 H 0.7628 0.1355 0.7174
C1_3 C 0.4905(5) 0.1316(2) 0.8747(2)
H6_3 H 0.4323 0.1384 0.9050
C2_3 C 0.5369(5) 0.0804(2) 0.8689(3)
H7_3 H 0.5102 0.0531 0.8953
C3_3 C 0.6227(5) 0.0691(2) 0.8243(3)
H8_3 H 0.6538 0.0343 0.8196
C4_3 C 0.6617(4) 0.11136(19) 0.7865(2)
C5_3 C 0.6102(4) 0.16152(18) 0.7952(2)
H9_3 H 0.6353 0.1896 0.7696
C6_3 C 0.8155(5) 0.0622(2) 0.7243(3)
C7_3 C 0.9000(5) 0.0677(2) 0.6716(2)
C8_3 C 0.9366(5) 0.1105(2) 0.6366(2)
H10_3 H 0.9073 0.1455 0.6419
C33_3 C 0.3652(4) 0.25398(17) 0.73222(19)
C34_3 C 0.3088(4) 0.25217(17) 0.65949(18)
C35_3 C 0.1718(4) 0.24524(16) 0.63733(18)
H26_3 H 0.1127 0.2416 0.6679
C36_3 C 0.1234(4) 0.24382(16) 0.56910(18)
C37_3 C 0.2122(4) 0.24972(17) 0.52352(18)
H27_3 H 0.1800 0.2492 0.4782
C38_3 C 0.3482(4) 0.25643(16) 0.54532(18)
C39_3 C 0.3961(4) 0.25753(17) 0.61304(18)
H28_3 H 0.4875 0.2619 0.6276
C41_3 C 0.4456(4) 0.26046(15) 0.49548(18)
Ni4_2 Ni 0.47552(5) 0.24770(2) 0.35068(2)
Ni6 Ni 0.73946(4) 0.24212(2) 0.48647(2)
O14_2 O 0.3972(2) 0.23810(11) 0.93521(11)
N9_2 N 0.4398(3) 0.33379(15) 0.85905(16)
S2_3 S 0.76010(14) 0.50170(5) 0.69788(6)
O3_3 O 0.9363(5) 0.51503(17) 0.5973(2)
O4_3 O 0.5520(5) 0.53572(17) 0.8406(2)
N6_3 N 0.9948(4) 0.60279(16) 0.6180(2)
H4_3 H 0.9815 0.6299 0.6423
N7_3 N 0.5815(4) 0.45481(18) 0.7972(2)
H5_3 H 0.6250 0.4380 0.7704
C22_3 C 0.9285(5) 0.5566(2) 0.6285(2)
C23_3 C 0.8427(5) 0.5597(2) 0.6813(2)
C24_3 C 0.8173(5) 0.6005(2) 0.7221(3)
H20_3 H 0.8534 0.6348 0.7206
C25_3 C 0.7317(5) 0.5855(2) 0.7664(3)
H21_3 H 0.7041 0.6089 0.7972
C26_3 C 0.6920(5) 0.5330(2) 0.7603(2)
C27_3 C 0.6016(5) 0.5083(2) 0.8024(2)
C28_3 C 0.4969(5) 0.4231(2) 0.8311(2)
C29_3 C 0.3914(5) 0.4439(2) 0.8599(3)
H22_3 H 0.3739 0.4806 0.8595
C30_3 C 0.3144(6) 0.4084(2) 0.8889(3)
H23_3 H 0.2455 0.4212 0.9103
C31_3 C 0.3380(5) 0.3540(2) 0.8867(2)
H24_3 H 0.2817 0.3306 0.9050
C32_3 C 0.5175(4) 0.36856(19) 0.8325(2)
H25_3 H 0.5894 0.3551 0.8140
O7_2 O 0.8892(3) 0.24654(13) 0.57992(13)
O8_2 O 0.9427(2) 0.22640(12) 0.48228(12)
C40_3 C 0.9771(4) 0.23807(17) 0.54277(19)
N7_4 N 0.5815(4) 0.04519(18) 0.2972(2)
H5_4 H 0.6250 0.0620 0.2704
N8_2 N 0.4398(3) 0.16621(15) 0.35905(16)
C28_4 C 0.4969(5) 0.0769(2) 0.3311(2)
C29_4 C 0.3914(5) 0.0561(2) 0.3599(3)
H22_4 H 0.3739 0.0194 0.3595
C30_4 C 0.3144(6) 0.0916(2) 0.3889(3)
H23_4 H 0.2455 0.0788 0.4103
C31_4 C 0.3380(5) 0.1460(2) 0.3867(2)
H24_4 H 0.2817 0.1694 0.4050
C32_4 C 0.5175(4) 0.13144(19) 0.3325(2)
H25_4 H 0.5894 0.1449 0.3140
S1_4 S 0.97209(14) 0.49083(5) 0.14970(7)
S2_4 S 0.76010(14) 0.99830(5) 0.19788(6)
O1_4 O 0.8082(4) 0.48112(16) 0.2524(2)
O3_4 O 0.9363(5) 0.98497(17) 0.0973(2)
O4_4 O 0.5520(5) 0.96428(17) 0.3406(2)
O5_4 O 0.4880(3) 0.23418(12) 0.24881(13)
O6_4 O 0.2936(3) 0.25703(13) 0.27614(13)
O11_2 O 0.6686(2) 0.23496(11) 0.38968(11)
H1_4 H 0.7282 0.2252 0.3611
N1_4 N 0.5263(3) 0.32768(15) 0.33819(16)
N2_4 N 0.7497(4) 0.39320(16) 0.2391(2)
H2_4 H 0.7628 0.3645 0.2174
N6_4 N 0.9948(4) 0.89721(16) 0.1180(2)
H4_4 H 0.9815 0.8701 0.1423
C1_4 C 0.4905(5) 0.3684(2) 0.3747(2)
H6_4 H 0.4323 0.3616 0.4050
C2_4 C 0.5369(5) 0.4196(2) 0.3689(3)
H7_4 H 0.5102 0.4469 0.3953
C3_4 C 0.6227(5) 0.4309(2) 0.3243(3)
H8_4 H 0.6538 0.4657 0.3196
C4_4 C 0.6617(4) 0.38864(19) 0.2865(2)
C5_4 C 0.6102(4) 0.33848(18) 0.2952(2)
H9_4 H 0.6353 0.3104 0.2696
C6_4 C 0.8155(5) 0.4378(2) 0.2243(3)
C7_4 C 0.9000(5) 0.4323(2) 0.1716(2)
C8_4 C 0.9366(5) 0.3895(2) 0.1366(2)
H10_4 H 0.9073 0.3545 0.1419
C22_4 C 0.9285(5) 0.9434(2) 0.1285(2)
C23_4 C 0.8427(5) 0.9403(2) 0.1813(2)
C24_4 C 0.8173(5) 0.8995(2) 0.2221(3)
H20_4 H 0.8534 0.8652 0.2206
C25_4 C 0.7317(5) 0.9145(2) 0.2664(3)
H21_4 H 0.7041 0.8911 0.2972
C26_4 C 0.6920(5) 0.9670(2) 0.2603(2)
C27_4 C 0.6016(5) 0.9917(2) 0.3024(2)
C33_4 C 0.3652(4) 0.24602(17) 0.23222(19)
C34_4 C 0.3088(4) 0.24783(17) 0.15949(18)
C35_4 C 0.1718(4) 0.25476(16) 0.13733(18)
H26_4 H 0.1127 0.2584 0.1679
C36_4 C 0.1234(4) 0.25618(16) 0.06910(18)
C37_4 C 0.2122(4) 0.25028(17) 0.02352(18)
C38_4 C 0.3482(4) 0.24357(16) 0.04532(18)
C39_4 C 0.3961(4) 0.24247(17) 0.11304(18)
H28_4 H 0.4875 0.2381 0.1276
H27_4 H 0.1800 0.2508 0.9782
C41_4 C 0.4456(4) 0.23954(15) 0.99548(18)
C40_4 C 0.9771(4) 0.26193(17) 0.04277(19)
N3_4 N 0.8305(4) 0.03636(16) 0.4369(2)
H3_4 H 0.8634 0.0511 0.4047
N4_4 N 0.7038(3) 0.16021(14) 0.49985(16)
N5_4 N 0.7853(3) 0.32326(15) 0.47559(17)
C12_4 C 0.7535(4) 0.06949(19) 0.4725(2)
C13_4 C 0.6583(5) 0.0506(2) 0.5098(3)
H12_4 H 0.6408 0.0140 0.5125
C14_4 C 0.5911(5) 0.0876(2) 0.5425(3)
H13_4 H 0.5285 0.0759 0.5685
C15_4 C 0.6155(5) 0.1413(2) 0.5371(2)
H14_4 H 0.5694 0.1655 0.5601
C16_4 C 0.7703(4) 0.12464(18) 0.4684(2)
H15_4 H 0.8313 0.1375 0.4423
C17_4 C 0.7478(5) 0.3613(2) 0.5155(2)
H16_4 H 0.6910 0.3520 0.5457
C18_4 C 0.7906(5) 0.4138(2) 0.5132(3)
H17_4 H 0.7619 0.4393 0.5413
C19_4 C 0.8764(5) 0.4287(2) 0.4693(3)
H18_4 H 0.9056 0.4640 0.4672
C20_4 C 0.9171(4) 0.38926(18) 0.4285(2)
C21_4 C 0.8677(4) 0.33748(18) 0.4331(2)
H19_4 H 0.8934 0.3113 0.4050
O2_3 O 0.1863(5) 0.04242(16) 0.5091(2)
C9_3 C 0.0225(5) 0.0961(2) 0.5920(2)
H11_3 H 0.0565 0.1206 0.5642
C10_3 C 0.0517(5) 0.0425(2) 0.5934(2)
C11_3 C 0.1419(5) 0.0165(2) 0.5517(2)
O2_4 O 0.8137(5) 0.95758(16) 0.4909(2)
C9_4 C 0.9775(5) 0.9039(2) 0.4080(2)
H11_4 H 0.9435 0.8794 0.4358
C10_4 C 0.9483(5) 0.9575(2) 0.4066(2)
C11_4 C 0.8581(5) 0.9835(2) 0.4483(2)
loop_
_geom_bond_atom_site_label_1
_geom_bond_atom_site_label_2
_geom_bond_site_symmetry_1
_geom_bond_site_symmetry_2
O8 Ni7 1_555 1_555
O7 C40 1_555 1_555
O9 C41 1_555 1_555
Ni4 O9 1_555 1_555
Ni1 O5 1_555 1_555
S1 C7 1_555 1_555
S2 C23 1_555 1_555
O1 C6 1_555 1_555
O3 C22 1_555 1_555
O4 C27 1_555 1_555
O5 C33 1_555 1_555
O6 Ni1 1_555 1_555
O11 Ni1 1_555 1_555
H1 O11 1_555 1_555
N1 Ni1 1_555 1_555
N2 H2 1_555 1_555
N6 H4 1_555 1_555
C1 N1 1_555 1_555
H6 C1 1_555 1_555
C2 C1 1_555 1_555
H7 C2 1_555 1_555
C3 C2 1_555 1_555
H8 C3 1_555 1_555
C4 N2 1_555 1_555
C5 N1 1_555 1_555
H9 C5 1_555 1_555
C6 N2 1_555 1_555
C7 C6 1_555 1_555
C8 C7 1_555 1_555
H10 C8 1_555 1_555
C22 N6 1_555 1_555
C23 C22 1_555 1_555
C24 C23 1_555 1_555
H20 C24 1_555 1_555
C25 C24 1_555 1_555
H21 C25 1_555 1_555
C26 S2 1_555 1_555
C33 O6 1_555 1_555
C34 C33 1_555 1_555
C35 C34 1_555 1_555
H26 C35 1_555 1_555
C36 C35 1_555 1_555
C37 C36 1_555 1_555
C38 C37 1_555 1_555
C39 C34 1_555 1_555
H28 C39 1_555 1_555
Ni5 O11 1_555 1_555
O14 Ni1 1_555 1_555
N9 Ni1 1_555 1_555
C3 C4 1_555 1_555
C4 C5 1_555 1_555
C25 C26 1_555 1_555
C26 C27 1_555 1_555
C38 C39 1_555 1_555
N7 H5 1_555 1_555
N9 C31 1_555 1_555
C28 N7 1_555 1_555
C29 C28 1_555 1_555
H22 C29 1_555 1_555
C30 C29 1_555 1_555
H23 C30 1_555 1_555
C31 C30 1_555 1_555
H24 C31 1_555 1_555
C32 N9 1_555 1_555
H25 C32 1_555 1_555
C28 C32 1_555 1_555
Ni5 N4 1_555 1_555
N3 H3 1_555 1_555
N4 C15 1_555 1_555
N5 Ni5 1_555 1_555
C12 N3 1_555 1_555
C13 C12 1_555 1_555
H12 C13 1_555 1_555
C14 C13 1_555 1_555
H13 C14 1_555 1_555
C15 C14 1_555 1_555
H14 C15 1_555 1_555
C16 N4 1_555 1_555
H15 C16 1_555 1_555
C17 N5 1_555 1_555
H16 C17 1_555 1_555
C18 C17 1_555 1_555
H17 C18 1_555 1_555
C19 C18 1_555 1_555
H18 C19 1_555 1_555
C21 N5 1_555 1_555
H19 C21 1_555 1_555
O12 Ni5 1_555 1_555
O13 Ni5 1_555 1_555
O15 Ni5 1_555 1_555
C12 C16 1_555 1_555
C19 C20 1_555 1_555
C20 C21 1_555 1_555
Ni7 N4_2 1_555 1_555
O2 C11 1_555 1_555
N3_2 H3_2 1_555 1_555
N5_2 Ni7 1_555 1_555
H11 C9 1_555 1_555
C11 N3_2 1_555 1_555
C12_2 N3_2 1_555 1_555
C16_2 N4_2 1_555 1_555
H15_2 C16_2 1_555 1_555
H18_2 C19_2 1_555 1_555
C21_2 N5_2 1_555 1_555
H19_2 C21_2 1_555 1_555
O16 Ni7 1_555 1_555
C9 C10 1_555 1_555
C10 C11 1_555 1_555
C12_2 C16_2 1_555 1_555
C19_2 C20_2 1_555 1_555
C20_2 C21_2 1_555 1_555
H12_2 C13_2 1_555 1_555
C14_2 C13_2 1_555 1_555
H13_2 C14_2 1_555 1_555
C15_2 C14_2 1_555 1_555
H14_2 C15_2 1_555 1_555
H16_2 C17_2 1_555 1_555
C18_2 C17_2 1_555 1_555
H17_2 C18_2 1_555 1_555
O12 C40_2 1_555 1_555
O13 C40_2 1_555 1_555
S2_2 C23_2 1_555 1_555
O3_2 C22_2 1_555 1_555
O4_2 C27_2 1_555 1_555
N6_2 H4_2 1_555 1_555
N7_2 H5_2 1_555 1_555
N8 C31_2 1_555 1_555
C22_2 N6_2 1_555 1_555
C23_2 C22_2 1_555 1_555
C24_2 C23_2 1_555 1_555
H20_2 C24_2 1_555 1_555
C25_2 C24_2 1_555 1_555
H21_2 C25_2 1_555 1_555
C26_2 S2_2 1_555 1_555
C27_2 N7_2 1_555 1_555
C28_2 N7_2 1_555 1_555
C29_2 C28_2 1_555 1_555
H22_2 C29_2 1_555 1_555
C30_2 C29_2 1_555 1_555
H23_2 C30_2 1_555 1_555
C31_2 C30_2 1_555 1_555
H24_2 C31_2 1_555 1_555
C32_2 N8 1_555 1_555
H25_2 C32_2 1_555 1_555
Ni4 N8 1_555 1_555
C25_2 C26_2 1_555 1_555
C26_2 C27_2 1_555 1_555
C28_2 C32_2 1_555 1_555
Ni4 O5_2 1_555 1_555
S1_2 C7_2 1_555 1_555
O1_2 C6_2 1_555 1_555
O5_2 C33_2 1_555 1_555
O6_2 Ni4 1_555 1_555
O14 C41_2 1_555 1_555
O15 C41_2 1_555 1_555
O16 Ni4 1_555 1_555
H1_2 O16 1_555 1_555
N1_2 Ni4 1_555 1_555
N2_2 H2_2 1_555 1_555
C1_2 N1_2 1_555 1_555
H6_2 C1_2 1_555 1_555
C2_2 C1_2 1_555 1_555
H7_2 C2_2 1_555 1_555
C3_2 C2_2 1_555 1_555
H8_2 C3_2 1_555 1_555
C4_2 N2_2 1_555 1_555
C5_2 N1_2 1_555 1_555
H9_2 C5_2 1_555 1_555
C6_2 N2_2 1_555 1_555
C7_2 C6_2 1_555 1_555
C8_2 C7_2 1_555 1_555
H10_2 C8_2 1_555 1_555
C33_2 O6_2 1_555 1_555
C34_2 C33_2 1_555 1_555
C35_2 C34_2 1_555 1_555
H26_2 C35_2 1_555 1_555
C36_2 C35_2 1_555 1_555
C37_2 C36_2 1_555 1_555
H27_2 C37_2 1_555 1_555
C38_2 C37_2 1_555 1_555
C39_2 C34_2 1_555 1_555
H28_2 C39_2 1_555 1_555
C41_2 C38_2 1_555 1_555
C3_2 C4_2 1_555 1_555
C4_2 C5_2 1_555 1_555
C38_2 C39_2 1_555 1_555
H12_3 C13_3 1_555 1_555
C14_3 C13_3 1_555 1_555
H13_3 C14_3 1_555 1_555
C15_3 C14_3 1_555 1_555
H14_3 C15_3 1_555 1_555
H16_3 C17_3 1_555 1_555
C18_3 C17_3 1_555 1_555
H17_3 C18_3 1_555 1_555
Ni2 N4_3 1_555 1_555
O2_2 C11_2 1_555 1_555
N3_3 H3_3 1_555 1_555
N5_3 Ni2 1_555 1_555
H11_2 C9_2 1_555 1_555
C11_2 N3_3 1_555 1_555
C12_3 N3_3 1_555 1_555
C16_3 N4_3 1_555 1_555
H15_3 C16_3 1_555 1_555
H18_3 C19_3 1_555 1_555
C21_3 N5_3 1_555 1_555
H19_3 C21_3 1_555 1_555
O13_2 Ni2 1_555 1_555
O16_2 Ni2 1_555 1_555
C9_2 C10_2 1_555 1_555
C10_2 C11_2 1_555 1_555
C12_3 C16_3 1_555 1_555
C19_3 C20_3 1_555 1_555
C20_3 C21_3 1_555 1_555
Ni1_2 O5_3 1_555 1_555
S1_3 C7_3 1_555 1_555
O1_3 C6_3 1_555 1_555
O5_3 C33_3 1_555 1_555
O6_3 Ni1_2 1_555 1_555
O9_2 C41_3 1_555 1_555
O10_2 C41_3 1_555 1_555
O16_2 Ni1_2 1_555 1_555
H1_3 O16_2 1_555 1_555
N1_3 Ni1_2 1_555 1_555
N2_3 H2_3 1_555 1_555
C1_3 N1_3 1_555 1_555
H6_3 C1_3 1_555 1_555
C2_3 C1_3 1_555 1_555
H7_3 C2_3 1_555 1_555
C3_3 C2_3 1_555 1_555
H8_3 C3_3 1_555 1_555
C4_3 N2_3 1_555 1_555
C5_3 N1_3 1_555 1_555
H9_3 C5_3 1_555 1_555
C6_3 N2_3 1_555 1_555
C7_3 C6_3 1_555 1_555
C8_3 C7_3 1_555 1_555
H10_3 C8_3 1_555 1_555
C33_3 O6_3 1_555 1_555
C34_3 C33_3 1_555 1_555
C35_3 C34_3 1_555 1_555
H26_3 C35_3 1_555 1_555
C36_3 C35_3 1_555 1_555
C37_3 C36_3 1_555 1_555
H27_3 C37_3 1_555 1_555
C38_3 C37_3 1_555 1_555
C39_3 C34_3 1_555 1_555
H28_3 C39_3 1_555 1_555
C41_3 C38_3 1_555 1_555
Ni4_2 O9_2 1_555 1_555
Ni6 O10_2 1_555 1_555
O14_2 Ni1_2 1_555 1_555
N9_2 Ni1_2 1_555 1_555
C3_3 C4_3 1_555 1_555
C4_3 C5_3 1_555 1_555
C38_3 C39_3 1_555 1_555
S2_3 C23_3 1_555 1_555
O3_3 C22_3 1_555 1_555
O4_3 C27_3 1_555 1_555
N6_3 H4_3 1_555 1_555
N7_3 H5_3 1_555 1_555
N9_2 C31_3 1_555 1_555
C22_3 N6_3 1_555 1_555
C23_3 C22_3 1_555 1_555
C24_3 C23_3 1_555 1_555
H20_3 C24_3 1_555 1_555
C25_3 C24_3 1_555 1_555
H21_3 C25_3 1_555 1_555
C26_3 S2_3 1_555 1_555
C27_3 N7_3 1_555 1_555
C28_3 N7_3 1_555 1_555
C29_3 C28_3 1_555 1_555
H22_3 C29_3 1_555 1_555
C30_3 C29_3 1_555 1_555
H23_3 C30_3 1_555 1_555
C31_3 C30_3 1_555 1_555
H24_3 C31_3 1_555 1_555
C32_3 N9_2 1_555 1_555
H25_3 C32_3 1_555 1_555
C25_3 C26_3 1_555 1_555
C26_3 C27_3 1_555 1_555
C28_3 C32_3 1_555 1_555
O7_2 C40_3 1_555 1_555
O8_2 C40_3 1_555 1_555
Ni6 O7_2 1_555 1_555
O8_2 Ni6 1_555 1_555
N7_4 H5_4 1_555 1_555
N8_2 C31_4 1_555 1_555
C28_4 N7_4 1_555 1_555
C29_4 C28_4 1_555 1_555
H22_4 C29_4 1_555 1_555
C30_4 C29_4 1_555 1_555
H23_4 C30_4 1_555 1_555
C31_4 C30_4 1_555 1_555
H24_4 C31_4 1_555 1_555
C32_4 N8_2 1_555 1_555
H25_4 C32_4 1_555 1_555
Ni4_2 N8_2 1_555 1_555
C28_4 C32_4 1_555 1_555
Ni4_2 O5_4 1_555 1_555
S1_4 C7_4 1_555 1_555
S2_4 C23_4 1_555 1_555
O1_4 C6_4 1_555 1_555
O3_4 C22_4 1_555 1_555
O4_4 C27_4 1_555 1_555
O5_4 C33_4 1_555 1_555
O6_4 Ni4_2 1_555 1_555
O11_2 Ni4_2 1_555 1_555
H1_4 O11_2 1_555 1_555
N1_4 Ni4_2 1_555 1_555
N2_4 H2_4 1_555 1_555
N6_4 H4_4 1_555 1_555
C1_4 N1_4 1_555 1_555
H6_4 C1_4 1_555 1_555
C2_4 C1_4 1_555 1_555
H7_4 C2_4 1_555 1_555
C3_4 C2_4 1_555 1_555
H8_4 C3_4 1_555 1_555
C4_4 N2_4 1_555 1_555
C5_4 N1_4 1_555 1_555
H9_4 C5_4 1_555 1_555
C6_4 N2_4 1_555 1_555
C7_4 C6_4 1_555 1_555
C8_4 C7_4 1_555 1_555
H10_4 C8_4 1_555 1_555
C22_4 N6_4 1_555 1_555
C23_4 C22_4 1_555 1_555
C24_4 C23_4 1_555 1_555
H20_4 C24_4 1_555 1_555
C25_4 C24_4 1_555 1_555
H21_4 C25_4 1_555 1_555
C26_4 S2_4 1_555 1_555
C33_4 O6_4 1_555 1_555
C34_4 C33_4 1_555 1_555
C35_4 C34_4 1_555 1_555
H26_4 C35_4 1_555 1_555
C36_4 C35_4 1_555 1_555
C37_4 C36_4 1_555 1_555
C38_4 C37_4 1_555 1_555
C39_4 C34_4 1_555 1_555
H28_4 C39_4 1_555 1_555
Ni6 O11_2 1_555 1_555
C3_4 C4_4 1_555 1_555
C4_4 C5_4 1_555 1_555
C25_4 C26_4 1_555 1_555
C26_4 C27_4 1_555 1_555
C38_4 C39_4 1_555 1_555
O14_2 C41_4 1_555 1_555
O12_2 C40_4 1_555 1_555
Ni6 N4_4 1_555 1_555
N3_4 H3_4 1_555 1_555
N4_4 C15_4 1_555 1_555
N5_4 Ni6 1_555 1_555
C12_4 N3_4 1_555 1_555
C13_4 C12_4 1_555 1_555
H12_4 C13_4 1_555 1_555
C14_4 C13_4 1_555 1_555
H13_4 C14_4 1_555 1_555
C15_4 C14_4 1_555 1_555
H14_4 C15_4 1_555 1_555
C16_4 N4_4 1_555 1_555
H15_4 C16_4 1_555 1_555
C17_4 N5_4 1_555 1_555
H16_4 C17_4 1_555 1_555
C18_4 C17_4 1_555 1_555
H17_4 C18_4 1_555 1_555
C19_4 C18_4 1_555 1_555
H18_4 C19_4 1_555 1_555
C21_4 N5_4 1_555 1_555
H19_4 C21_4 1_555 1_555
C12_4 C16_4 1_555 1_555
C19_4 C20_4 1_555 1_555
C20_4 C21_4 1_555 1_555
O2_3 C11_3 1_555 1_555
H11_3 C9_3 1_555 1_555
C9_3 C10_3 1_555 1_555
C10_3 C11_3 1_555 1_555
O2_4 C11_4 1_555 1_555
H11_4 C9_4 1_555 1_555
C9_4 C10_4 1_555 1_555
C10_4 C11_4 1_555 1_555

#END
