
###############################################################################
#
# This file contains modified crystal structure data generated from the
# MOF subset of the Cambridge Structural Database (CSD) v543 
# hosted by the Cambridge Crystallographic Data Centre (CCDC).
#
# This work is licensed under the Creative Commons
# Attribution-NonCommercial-ShareAlike 4.0 International License.
# To view a copy of this license, visit
# http://creativecommons.org/licenses/by-nc-sa/4.0/
# or send a letter to
# Creative Commons, PO Box 1866, Mountain View, CA 94042, USA.
#
# CIF created using the CSD Python API on 29 September 2022
# The structure has been converted into the P1 space group
# The structure has a 3D framework
# The original CSD entry UQOLUJ01 is in the orthorhombic crystal system
# The framework has been calculated to contain at least 10.0% void space
# The void calculation uses a probe of radius 1.32A, grid spacing 0.4
# The framework is charged, counterions have been retained in the structure
#
###############################################################################

data_UQOLUJ01
_chemical_formula_moiety         '(C200 H104 In10 N14 O32 1-)n'
_symmetry_cell_setting           triclinic
_symmetry_space_group_name_H-M   'P 1'
_symmetry_Int_Tables_number      1
_space_group_name_Hall           'P 1'
loop_
_symmetry_equiv_pos_site_id
_symmetry_equiv_pos_as_xyz
1 x,y,z
_cell_length_a                   23.5482(16)
_cell_length_b                   23.548
_cell_length_c                   31.983(2)
_cell_angle_alpha                90
_cell_angle_beta                 90
_cell_angle_gamma                90
_cell_volume                     17735
loop_
_atom_site_label
_atom_site_type_symbol
_atom_site_fract_x
_atom_site_fract_y
_atom_site_fract_z
In6 In -0.0000 0.0000 0.24998(2)
In9 In -0.0000 0.0000 0.75002(2)
In6_2 In -0.0000 1.0000 0.24998(2)
In9_2 In -0.0000 1.0000 0.75002(2)
In1 In 0.5000 0.5000 0.25002(2)
In2 In 0.5000 0.0000 0.5000
O1 O 0.09001(18) 0.03198(18) 0.24006(15)
O2 O 0.06035(17) 0.01866(16) 0.30570(15)
O3 O 0.46824(19) 0.40964(16) 0.24004(16)
O4 O 0.48218(18) 0.44032(17) 0.30647(16)
N1 N 0.4418(2) 0.0581(2) 0.5000
N2 N 0.5000 0.0000 0.4378(2)
C1 C 0.4673(3) 0.4031(3) 0.2803(3)
C2 C 0.4486(2) 0.3425(2) 0.2953(2)
C3 C 0.4288(3) 0.3039(3) 0.2686(2)
H1 H 0.4287 0.3113 0.2400
C4 C 0.4079(2) 0.2513(2) 0.2841(2)
H2 H 0.3932 0.2248 0.2654
C5 C 0.4092(2) 0.2387(3) 0.3271(2)
C6 C 0.4326(3) 0.2810(3) 0.35334(19)
H3 H 0.4355 0.2739 0.3819
C7 C 0.4515(3) 0.3326(2) 0.3379(2)
H4 H 0.4658 0.3601 0.3559
C8 C 0.3873(3) 0.1846(2) 0.34303(17)
C9 C 0.3380(2) 0.1628(2) 0.32704(17)
H5 H 0.3194 0.1817 0.3055
C10 C 0.3155(2) 0.1127(3) 0.34277(17)
C11 C 0.3436(2) 0.0829(2) 0.37461(18)
H6 H 0.3284 0.0494 0.3853
C12 C 0.3946(2) 0.1043(2) 0.38998(16)
C13 C 0.4158(2) 0.1563(2) 0.37427(18)
H7 H 0.4492 0.1714 0.3851
C14 C 0.2606(2) 0.0912(2) 0.3266(2)
C15 C 0.2476(3) 0.0926(2) 0.2834(2)
H8 H 0.2741 0.1068 0.2645
C16 C 0.1952(3) 0.0728(3) 0.2690(2)
H9 H 0.1871 0.0739 0.2406
C17 C 0.1562(2) 0.0521(2) 0.2960(3)
C18 C 0.1672(3) 0.0494(2) 0.3388(2)
H10 H 0.1397 0.0352 0.3569
C19 C 0.2185(3) 0.0677(3) 0.3543(2)
H11 H 0.2261 0.0650 0.3828
C20 C 0.0986(3) 0.0333(2) 0.2784(3)
C21 C 0.4254(2) 0.0744(2) 0.4243(2)
C22 C 0.4139(2) 0.0859(2) 0.4661(2)
C23 C 0.3719(2) 0.1278(2) 0.47891(14)
H12 H 0.3495 0.1501 0.4615
C24 C 0.4653(2) 0.0345(2) 0.4104(2)
C25 C 0.4805(3) 0.0203(2) 0.3650(2)
H13 H 0.4648 0.0372 0.3414
N4 N 0.5000 0.0000 0.5622(2)
O13 O 0.09001(18) 0.03198(18) 0.75994(15)
O14 O 0.06035(17) 0.01866(16) 0.69430(15)
O15 O 0.46824(19) 0.40964(16) 0.75996(16)
O16 O 0.48218(18) 0.44032(17) 0.69353(16)
C76 C 0.4673(3) 0.4031(3) 0.7197(3)
C77 C 0.4486(2) 0.3425(2) 0.7047(2)
C78 C 0.4288(3) 0.3039(3) 0.7314(2)
H40 H 0.4287 0.3113 0.7600
C79 C 0.4079(2) 0.2513(2) 0.7159(2)
H41 H 0.3932 0.2248 0.7346
C80 C 0.4092(2) 0.2387(3) 0.6729(2)
C81 C 0.4326(3) 0.2810(3) 0.64666(19)
H42 H 0.4355 0.2739 0.6181
C82 C 0.4515(3) 0.3326(2) 0.6621(2)
H43 H 0.4658 0.3601 0.6441
C83 C 0.3873(3) 0.1846(2) 0.65697(17)
C84 C 0.3380(2) 0.1628(2) 0.67296(17)
H44 H 0.3194 0.1817 0.6945
C85 C 0.3155(2) 0.1127(3) 0.65723(17)
C86 C 0.3436(2) 0.0829(2) 0.62539(18)
H45 H 0.3284 0.0494 0.6147
C87 C 0.3946(2) 0.1043(2) 0.61002(16)
C88 C 0.4158(2) 0.1563(2) 0.62573(18)
H46 H 0.4492 0.1714 0.6149
C89 C 0.2606(2) 0.0912(2) 0.6734(2)
C90 C 0.2476(3) 0.0926(2) 0.7166(2)
H47 H 0.2741 0.1068 0.7355
C91 C 0.1952(3) 0.0728(3) 0.7310(2)
H48 H 0.1871 0.0739 0.7594
C92 C 0.1562(2) 0.0521(2) 0.7040(3)
C93 C 0.1672(3) 0.0494(2) 0.6612(2)
H49 H 0.1397 0.0352 0.6431
C94 C 0.2185(3) 0.0677(3) 0.6457(2)
H50 H 0.2261 0.0650 0.6172
C95 C 0.0986(3) 0.0333(2) 0.7216(3)
C96 C 0.4254(2) 0.0744(2) 0.5757(2)
C97 C 0.4139(2) 0.0859(2) 0.5339(2)
C98 C 0.3719(2) 0.1278(2) 0.52109(14)
H51 H 0.3495 0.1501 0.5385
C99 C 0.4653(2) 0.0345(2) 0.5896(2)
C100 C 0.4805(3) 0.0203(2) 0.6350(2)
H52 H 0.4648 0.0372 0.6586
In3 In 0.5000 0.5000 0.74998(2)
In6_3 In 1.0000 0.0000 0.24998(2)
In9_3 In 1.0000 0.0000 0.75002(2)
O17 O 0.40999(18) 0.53198(18) 0.25994(15)
O18 O 0.59001(18) 0.46802(18) 0.25994(15)
O19 O 0.59001(18) 0.46802(18) 0.74006(15)
O20 O 0.40999(18) 0.53198(18) 0.74006(15)
O21 O 0.43965(17) 0.51866(16) 0.19430(15)
O22 O 0.56035(17) 0.48134(16) 0.19430(15)
O23 O 0.56035(17) 0.48134(16) 0.80570(15)
O24 O 0.43965(17) 0.51866(16) 0.80570(15)
O25 O 0.53176(19) 0.59036(16) 0.24004(16)
O26 O 0.53176(19) 0.59036(16) 0.75996(16)
O27 O 0.51782(18) 0.55968(17) 0.30647(16)
O28 O 0.51782(18) 0.55968(17) 0.69353(16)
In2_2 In 0.5000 1.0000 0.5000
N2_2 N 0.5000 1.0000 0.4378(2)
O5 O 0.90999(18) 0.96802(18) 0.24006(15)
O6 O 0.93965(17) 0.98134(16) 0.30570(15)
N3 N 0.5582(2) 0.9419(2) 0.5000
C26 C 0.5327(3) 0.5969(3) 0.2803(3)
C27 C 0.5514(2) 0.6575(2) 0.2953(2)
C28 C 0.5712(3) 0.6961(3) 0.2686(2)
H14 H 0.5713 0.6887 0.2400
C29 C 0.5921(2) 0.7487(2) 0.2841(2)
H15 H 0.6068 0.7752 0.2654
C30 C 0.5908(2) 0.7613(3) 0.3271(2)
C31 C 0.5674(3) 0.7190(3) 0.35334(19)
H16 H 0.5645 0.7261 0.3819
C32 C 0.5485(3) 0.6674(2) 0.3379(2)
H17 H 0.5342 0.6399 0.3559
C33 C 0.6127(3) 0.8154(2) 0.34303(17)
C34 C 0.6620(2) 0.8372(2) 0.32704(17)
H18 H 0.6806 0.8183 0.3055
C35 C 0.6845(2) 0.8873(3) 0.34277(17)
C36 C 0.6564(2) 0.9171(2) 0.37461(18)
H19 H 0.6716 0.9506 0.3853
C37 C 0.6054(2) 0.8957(2) 0.38998(16)
C38 C 0.5842(2) 0.8437(2) 0.37427(18)
H20 H 0.5508 0.8286 0.3851
C39 C 0.7394(2) 0.9088(2) 0.3266(2)
C40 C 0.7524(3) 0.9074(2) 0.2834(2)
H21 H 0.7259 0.8932 0.2645
C41 C 0.8048(3) 0.9272(3) 0.2690(2)
H22 H 0.8129 0.9261 0.2406
C42 C 0.8438(2) 0.9479(2) 0.2960(3)
C43 C 0.8328(3) 0.9506(2) 0.3388(2)
H23 H 0.8603 0.9648 0.3569
C44 C 0.7815(3) 0.9323(3) 0.3543(2)
H24 H 0.7739 0.9350 0.3828
C45 C 0.9014(3) 0.9667(2) 0.2784(3)
C46 C 0.5746(2) 0.9256(2) 0.4243(2)
C47 C 0.5861(2) 0.9141(2) 0.4661(2)
C48 C 0.6281(2) 0.8722(2) 0.47891(14)
H25 H 0.6505 0.8499 0.4615
C49 C 0.5347(2) 0.9655(2) 0.4104(2)
C50 C 0.5195(3) 0.9797(2) 0.3650(2)
H26 H 0.5352 0.9628 0.3414
O9 O 0.90999(18) 0.96802(18) 0.75994(15)
O10 O 0.93965(17) 0.98134(16) 0.69430(15)
N4_2 N 0.5000 1.0000 0.5622(2)
C51 C 0.5327(3) 0.5969(3) 0.7197(3)
C52 C 0.5514(2) 0.6575(2) 0.7047(2)
C53 C 0.5712(3) 0.6961(3) 0.7314(2)
H27 H 0.5713 0.6887 0.7600
C54 C 0.5921(2) 0.7487(2) 0.7159(2)
H28 H 0.6068 0.7752 0.7346
C55 C 0.5908(2) 0.7613(3) 0.6729(2)
C56 C 0.5674(3) 0.7190(3) 0.64666(19)
H29 H 0.5645 0.7261 0.6181
C57 C 0.5485(3) 0.6674(2) 0.6621(2)
H30 H 0.5342 0.6399 0.6441
C58 C 0.6127(3) 0.8154(2) 0.65697(17)
C59 C 0.6620(2) 0.8372(2) 0.67296(17)
H31 H 0.6806 0.8183 0.6945
C60 C 0.6845(2) 0.8873(3) 0.65723(17)
C61 C 0.6564(2) 0.9171(2) 0.62539(18)
H32 H 0.6716 0.9506 0.6147
C62 C 0.6054(2) 0.8957(2) 0.61002(16)
C63 C 0.5842(2) 0.8437(2) 0.62573(18)
H33 H 0.5508 0.8286 0.6149
C64 C 0.7394(2) 0.9088(2) 0.6734(2)
C65 C 0.7524(3) 0.9074(2) 0.7166(2)
H34 H 0.7259 0.8932 0.7355
C66 C 0.8048(3) 0.9272(3) 0.7310(2)
H35 H 0.8129 0.9261 0.7594
C67 C 0.8438(2) 0.9479(2) 0.7040(3)
C68 C 0.8328(3) 0.9506(2) 0.6612(2)
H36 H 0.8603 0.9648 0.6431
C69 C 0.7815(3) 0.9323(3) 0.6457(2)
H37 H 0.7739 0.9350 0.6172
C70 C 0.9014(3) 0.9667(2) 0.7216(3)
C71 C 0.5746(2) 0.9256(2) 0.5757(2)
C72 C 0.5861(2) 0.9141(2) 0.5339(2)
C73 C 0.6281(2) 0.8722(2) 0.52109(14)
H38 H 0.6505 0.8499 0.5385
C74 C 0.5347(2) 0.9655(2) 0.5896(2)
C75 C 0.5195(3) 0.9797(2) 0.6350(2)
H39 H 0.5352 0.9628 0.6586
In6_4 In 1.0000 1.0000 0.24998(2)
In9_4 In 1.0000 1.0000 0.75002(2)
In2_3 In 0.0000 0.5000 0.0000
O3_2 O 0.03176(19) 0.90964(16) 0.25996(16)
O4_2 O 0.01782(18) 0.94032(17) 0.19353(16)
N1_2 N 0.0582(2) 0.5581(2) 0.0000
N2_3 N 0.0000 0.5000 0.0622(2)
C1_2 C 0.0327(3) 0.9031(3) 0.2197(3)
C2_2 C 0.0514(2) 0.8425(2) 0.2047(2)
C3_2 C 0.0712(3) 0.8039(3) 0.2314(2)
H1_2 H 0.0713 0.8113 0.2600
C4_2 C 0.0921(2) 0.7513(2) 0.2159(2)
H2_2 H 0.1068 0.7248 0.2346
C5_2 C 0.0908(2) 0.7387(3) 0.1729(2)
C6_2 C 0.0674(3) 0.7810(3) 0.14666(19)
H3_2 H 0.0645 0.7739 0.1181
C7_2 C 0.0485(3) 0.8326(2) 0.1621(2)
H4_2 H 0.0342 0.8601 0.1441
C8_2 C 0.1127(3) 0.6846(2) 0.15697(17)
C9_2 C 0.1620(2) 0.6628(2) 0.17296(17)
H5_2 H 0.1806 0.6817 0.1945
C10_2 C 0.1845(2) 0.6127(3) 0.15723(17)
C11_2 C 0.1564(2) 0.5829(2) 0.12539(18)
H6_2 H 0.1716 0.5494 0.1147
C12_2 C 0.1054(2) 0.6043(2) 0.11002(16)
C13_2 C 0.0842(2) 0.6563(2) 0.12573(18)
H7_2 H 0.0508 0.6714 0.1149
C14_2 C 0.2394(2) 0.5912(2) 0.1734(2)
C15_2 C 0.2524(3) 0.5926(2) 0.2166(2)
H8_2 H 0.2259 0.6068 0.2355
C16_2 C 0.3048(3) 0.5728(3) 0.2310(2)
H9_2 H 0.3129 0.5739 0.2594
C17_2 C 0.3438(2) 0.5521(2) 0.2040(3)
C18_2 C 0.3328(3) 0.5494(2) 0.1612(2)
H10_2 H 0.3603 0.5352 0.1431
C19_2 C 0.2815(3) 0.5677(3) 0.1457(2)
H11_2 H 0.2739 0.5650 0.1172
C20_2 C 0.4014(3) 0.5333(2) 0.2216(3)
C21_2 C 0.0746(2) 0.5744(2) 0.0757(2)
C22_2 C 0.0861(2) 0.5859(2) 0.0339(2)
C23_2 C 0.1281(2) 0.6278(2) 0.02109(14)
H12_2 H 0.1505 0.6501 0.0385
C24_2 C 0.0347(2) 0.5345(2) 0.0896(2)
C25_2 C 0.0195(3) 0.5203(2) 0.1350(2)
H13_2 H 0.0352 0.5372 0.1586
In2_4 In 0.0000 0.5000 1.0000
N1_3 N 0.0582(2) 0.5581(2) 1.0000
N4_3 N 0.0000 0.5000 0.9378(2)
O15_2 O 0.03176(19) 0.90964(16) 0.74004(16)
O16_2 O 0.01782(18) 0.94032(17) 0.80647(16)
C76_2 C 0.0327(3) 0.9031(3) 0.7803(3)
C77_2 C 0.0514(2) 0.8425(2) 0.7953(2)
C78_2 C 0.0712(3) 0.8039(3) 0.7686(2)
H40_2 H 0.0713 0.8113 0.7400
C79_2 C 0.0921(2) 0.7513(2) 0.7841(2)
H41_2 H 0.1068 0.7248 0.7654
C80_2 C 0.0908(2) 0.7387(3) 0.8271(2)
C81_2 C 0.0674(3) 0.7810(3) 0.85334(19)
H42_2 H 0.0645 0.7739 0.8819
C82_2 C 0.0485(3) 0.8326(2) 0.8379(2)
H43_2 H 0.0342 0.8601 0.8559
C83_2 C 0.1127(3) 0.6846(2) 0.84303(17)
C84_2 C 0.1620(2) 0.6628(2) 0.82704(17)
H44_2 H 0.1806 0.6817 0.8055
C85_2 C 0.1845(2) 0.6127(3) 0.84277(17)
C86_2 C 0.1564(2) 0.5829(2) 0.87461(18)
H45_2 H 0.1716 0.5494 0.8853
C87_2 C 0.1054(2) 0.6043(2) 0.88998(16)
C88_2 C 0.0842(2) 0.6563(2) 0.87427(18)
H46_2 H 0.0508 0.6714 0.8851
C89_2 C 0.2394(2) 0.5912(2) 0.8266(2)
C90_2 C 0.2524(3) 0.5926(2) 0.7834(2)
H47_2 H 0.2259 0.6068 0.7645
C91_2 C 0.3048(3) 0.5728(3) 0.7690(2)
H48_2 H 0.3129 0.5739 0.7406
C92_2 C 0.3438(2) 0.5521(2) 0.7960(3)
C93_2 C 0.3328(3) 0.5494(2) 0.8388(2)
H49_2 H 0.3603 0.5352 0.8569
C94_2 C 0.2815(3) 0.5677(3) 0.8543(2)
H50_2 H 0.2739 0.5650 0.8828
C95_2 C 0.4014(3) 0.5333(2) 0.7784(3)
C96_2 C 0.0746(2) 0.5744(2) 0.9243(2)
C97_2 C 0.0861(2) 0.5859(2) 0.9661(2)
C98_2 C 0.1281(2) 0.6278(2) 0.97891(14)
H51_2 H 0.1505 0.6501 0.9615
C99_2 C 0.0347(2) 0.5345(2) 0.9104(2)
C100_2 C 0.0195(3) 0.5203(2) 0.8650(2)
H52_2 H 0.0352 0.5372 0.8414
O25_2 O 0.96824(19) 0.09036(16) 0.25996(16)
O27_2 O 0.98218(18) 0.05968(17) 0.19353(16)
O26_2 O 0.96824(19) 0.09036(16) 0.74004(16)
O28_2 O 0.98218(18) 0.05968(17) 0.80647(16)
In2_5 In 1.0000 0.5000 0.0000
N2_4 N 1.0000 0.5000 0.0622(2)
N3_2 N 0.9418(2) 0.4419(2) 0.0000
C26_2 C 0.9673(3) 0.0969(3) 0.2197(3)
C27_2 C 0.9486(2) 0.1575(2) 0.2047(2)
C28_2 C 0.9288(3) 0.1961(3) 0.2314(2)
H14_2 H 0.9287 0.1887 0.2600
C29_2 C 0.9079(2) 0.2487(2) 0.2159(2)
H15_2 H 0.8932 0.2752 0.2346
C30_2 C 0.9092(2) 0.2613(3) 0.1729(2)
C31_2 C 0.9326(3) 0.2190(3) 0.14666(19)
H16_2 H 0.9355 0.2261 0.1181
C32_2 C 0.9515(3) 0.1674(2) 0.1621(2)
H17_2 H 0.9658 0.1399 0.1441
C33_2 C 0.8873(3) 0.3154(2) 0.15697(17)
C34_2 C 0.8380(2) 0.3372(2) 0.17296(17)
H18_2 H 0.8194 0.3183 0.1945
C35_2 C 0.8155(2) 0.3873(3) 0.15723(17)
C36_2 C 0.8436(2) 0.4171(2) 0.12539(18)
H19_2 H 0.8284 0.4506 0.1147
C37_2 C 0.8946(2) 0.3957(2) 0.11002(16)
C38_2 C 0.9158(2) 0.3437(2) 0.12573(18)
H20_2 H 0.9492 0.3286 0.1149
C39_2 C 0.7606(2) 0.4088(2) 0.1734(2)
C40_2 C 0.7476(3) 0.4074(2) 0.2166(2)
H21_2 H 0.7741 0.3932 0.2355
C41_2 C 0.6952(3) 0.4272(3) 0.2310(2)
H22_2 H 0.6871 0.4261 0.2594
C42_2 C 0.6562(2) 0.4479(2) 0.2040(3)
C43_2 C 0.6672(3) 0.4506(2) 0.1612(2)
H23_2 H 0.6397 0.4648 0.1431
C44_2 C 0.7185(3) 0.4323(3) 0.1457(2)
H24_2 H 0.7261 0.4350 0.1172
C45_2 C 0.5986(3) 0.4667(2) 0.2216(3)
C46_2 C 0.9254(2) 0.4256(2) 0.0757(2)
C47_2 C 0.9139(2) 0.4141(2) 0.0339(2)
C48_2 C 0.8719(2) 0.3722(2) 0.02109(14)
H25_2 H 0.8495 0.3499 0.0385
C49_2 C 0.9653(2) 0.4655(2) 0.0896(2)
C50_2 C 0.9805(3) 0.4797(2) 0.1350(2)
H26_2 H 0.9648 0.4628 0.1586
In2_6 In 1.0000 0.5000 1.0000
N3_3 N 0.9418(2) 0.4419(2) 1.0000
N4_4 N 1.0000 0.5000 0.9378(2)
C51_2 C 0.9673(3) 0.0969(3) 0.7803(3)
C52_2 C 0.9486(2) 0.1575(2) 0.7953(2)
C53_2 C 0.9288(3) 0.1961(3) 0.7686(2)
H27_2 H 0.9287 0.1887 0.7400
C54_2 C 0.9079(2) 0.2487(2) 0.7841(2)
H28_2 H 0.8932 0.2752 0.7654
C55_2 C 0.9092(2) 0.2613(3) 0.8271(2)
C56_2 C 0.9326(3) 0.2190(3) 0.85334(19)
H29_2 H 0.9355 0.2261 0.8819
C57_2 C 0.9515(3) 0.1674(2) 0.8379(2)
H30_2 H 0.9658 0.1399 0.8559
C58_2 C 0.8873(3) 0.3154(2) 0.84303(17)
C59_2 C 0.8380(2) 0.3372(2) 0.82704(17)
H31_2 H 0.8194 0.3183 0.8055
C60_2 C 0.8155(2) 0.3873(3) 0.84277(17)
C61_2 C 0.8436(2) 0.4171(2) 0.87461(18)
H32_2 H 0.8284 0.4506 0.8853
C62_2 C 0.8946(2) 0.3957(2) 0.88998(16)
C63_2 C 0.9158(2) 0.3437(2) 0.87427(18)
H33_2 H 0.9492 0.3286 0.8851
C64_2 C 0.7606(2) 0.4088(2) 0.8266(2)
C65_2 C 0.7476(3) 0.4074(2) 0.7834(2)
H34_2 H 0.7741 0.3932 0.7645
C66_2 C 0.6952(3) 0.4272(3) 0.7690(2)
H35_2 H 0.6871 0.4261 0.7406
C67_2 C 0.6562(2) 0.4479(2) 0.7960(3)
C68_2 C 0.6672(3) 0.4506(2) 0.8388(2)
H36_2 H 0.6397 0.4648 0.8569
C69_2 C 0.7185(3) 0.4323(3) 0.8543(2)
H37_2 H 0.7261 0.4350 0.8828
C70_2 C 0.5986(3) 0.4667(2) 0.7784(3)
C71_2 C 0.9254(2) 0.4256(2) 0.9243(2)
C72_2 C 0.9139(2) 0.4141(2) 0.9661(2)
C73_2 C 0.8719(2) 0.3722(2) 0.97891(14)
H38_2 H 0.8495 0.3499 0.9615
C74_2 C 0.9653(2) 0.4655(2) 0.9104(2)
C75_2 C 0.9805(3) 0.4797(2) 0.8650(2)
H39_2 H 0.9648 0.4628 0.8414
loop_
_geom_bond_atom_site_label_1
_geom_bond_atom_site_label_2
_geom_bond_site_symmetry_1
_geom_bond_site_symmetry_2
In1 O3 1_555 1_555
In2 N1 1_555 1_555
O1 C20 1_555 1_555
O2 C20 1_555 1_555
O3 C1 1_555 1_555
O4 In1 1_555 1_555
N1 C22 1_555 1_555
N2 In2 1_555 1_555
C1 O4 1_555 1_555
C2 C1 1_555 1_555
C3 C2 1_555 1_555
H1 C3 1_555 1_555
C4 C3 1_555 1_555
H2 C4 1_555 1_555
C5 C4 1_555 1_555
C6 C5 1_555 1_555
H3 C6 1_555 1_555
C7 C2 1_555 1_555
H4 C7 1_555 1_555
C8 C5 1_555 1_555
C9 C8 1_555 1_555
H5 C9 1_555 1_555
C10 C9 1_555 1_555
C11 C10 1_555 1_555
H6 C11 1_555 1_555
C12 C11 1_555 1_555
C13 C8 1_555 1_555
H7 C13 1_555 1_555
C14 C10 1_555 1_555
C15 C14 1_555 1_555
H8 C15 1_555 1_555
C16 C15 1_555 1_555
H9 C16 1_555 1_555
C17 C16 1_555 1_555
C18 C17 1_555 1_555
H10 C18 1_555 1_555
C19 C14 1_555 1_555
H11 C19 1_555 1_555
C20 C17 1_555 1_555
C21 C12 1_555 1_555
C22 C21 1_555 1_555
C23 C22 1_555 1_555
H12 C23 1_555 1_555
C24 N2 1_555 1_555
C25 C24 1_555 1_555
H13 C25 1_555 1_555
N4 In2 1_555 1_555
O13 C95 1_555 1_555
O14 C95 1_555 1_555
O15 C76 1_555 1_555
O16 C76 1_555 1_555
C76 C77 1_555 1_555
C77 C78 1_555 1_555
C78 H40 1_555 1_555
C79 C78 1_555 1_555
H41 C79 1_555 1_555
C80 C79 1_555 1_555
C81 C80 1_555 1_555
H42 C81 1_555 1_555
C82 C77 1_555 1_555
H43 C82 1_555 1_555
C83 C80 1_555 1_555
C84 C83 1_555 1_555
H44 C84 1_555 1_555
C85 C84 1_555 1_555
C86 C85 1_555 1_555
H45 C86 1_555 1_555
C87 C86 1_555 1_555
C88 C83 1_555 1_555
H46 C88 1_555 1_555
C89 C85 1_555 1_555
C90 C89 1_555 1_555
H47 C90 1_555 1_555
C91 C90 1_555 1_555
H48 C91 1_555 1_555
C92 C91 1_555 1_555
C93 C92 1_555 1_555
H49 C93 1_555 1_555
C94 C89 1_555 1_555
H50 C94 1_555 1_555
C95 C92 1_555 1_555
C96 C87 1_555 1_555
C97 N1 1_555 1_555
C98 C23 1_555 1_555
H51 C98 1_555 1_555
C99 N4 1_555 1_555
H52 C100 1_555 1_555
In3 O15 1_555 1_555
In6 O1 1_555 1_555
In9 O13 1_555 1_555
O17 In1 1_555 1_555
O18 In1 1_555 1_555
O19 In3 1_555 1_555
O20 In3 1_555 1_555
O21 In1 1_555 1_555
O22 In1 1_555 1_555
O23 In3 1_555 1_555
O24 In3 1_555 1_555
O25 In1 1_555 1_555
O26 In3 1_555 1_555
O27 In1 1_555 1_555
O28 In3 1_555 1_555
O2 In6 1_555 1_555
C6 C7 1_555 1_555
C12 C13 1_555 1_555
C18 C19 1_555 1_555
C21 C24 1_555 1_555
O14 In9 1_555 1_555
O16 In3 1_555 1_555
C81 C82 1_555 1_555
C87 C88 1_555 1_555
C93 C94 1_555 1_555
C96 C97 1_555 1_555
C96 C99 1_555 1_555
C97 C98 1_555 1_555
C99 C100 1_555 1_555
N2_2 In2_2 1_555 1_555
O5 C45 1_555 1_555
O6 C45 1_555 1_555
O25 C26 1_555 1_555
O27 C26 1_555 1_555
N3 In2_2 1_555 1_555
C26 C27 1_555 1_555
C27 C28 1_555 1_555
C28 H14 1_555 1_555
C29 C28 1_555 1_555
H15 C29 1_555 1_555
C30 C29 1_555 1_555
C31 C30 1_555 1_555
H16 C31 1_555 1_555
C32 C27 1_555 1_555
H17 C32 1_555 1_555
C33 C30 1_555 1_555
C34 C33 1_555 1_555
H18 C34 1_555 1_555
C35 C34 1_555 1_555
C36 C35 1_555 1_555
H19 C36 1_555 1_555
C37 C36 1_555 1_555
C38 C33 1_555 1_555
H20 C38 1_555 1_555
C39 C35 1_555 1_555
C40 C39 1_555 1_555
H21 C40 1_555 1_555
C41 C40 1_555 1_555
H22 C41 1_555 1_555
C42 C41 1_555 1_555
C43 C42 1_555 1_555
H23 C43 1_555 1_555
C44 C39 1_555 1_555
H24 C44 1_555 1_555
C45 C42 1_555 1_555
C46 C37 1_555 1_555
C47 N3 1_555 1_555
C48 C47 1_555 1_555
H25 C48 1_555 1_555
C49 N2_2 1_555 1_555
H26 C50 1_555 1_555
O9 C70 1_555 1_555
O10 C70 1_555 1_555
O26 C51 1_555 1_555
O28 C51 1_555 1_555
N4_2 In2_2 1_555 1_555
C51 C52 1_555 1_555
C52 C53 1_555 1_555
C53 H27 1_555 1_555
C54 C53 1_555 1_555
H28 C54 1_555 1_555
C55 C54 1_555 1_555
C56 C55 1_555 1_555
H29 C56 1_555 1_555
C57 C52 1_555 1_555
H30 C57 1_555 1_555
C58 C55 1_555 1_555
C59 C58 1_555 1_555
H31 C59 1_555 1_555
C60 C59 1_555 1_555
C61 C60 1_555 1_555
H32 C61 1_555 1_555
C62 C61 1_555 1_555
C63 C58 1_555 1_555
H33 C63 1_555 1_555
C64 C60 1_555 1_555
C65 C64 1_555 1_555
H34 C65 1_555 1_555
C66 C65 1_555 1_555
H35 C66 1_555 1_555
C67 C66 1_555 1_555
C68 C67 1_555 1_555
H36 C68 1_555 1_555
C69 C64 1_555 1_555
H37 C69 1_555 1_555
C70 C67 1_555 1_555
C71 C62 1_555 1_555
C72 N3 1_555 1_555
C73 C48 1_555 1_555
H38 C73 1_555 1_555
C74 N4_2 1_555 1_555
C75 C74 1_555 1_555
H39 C75 1_555 1_555
In6_4 O5 1_555 1_555
In9_4 O9 1_555 1_555
O6 In6_4 1_555 1_555
C31 C32 1_555 1_555
C37 C38 1_555 1_555
C43 C44 1_555 1_555
C46 C47 1_555 1_555
C46 C49 1_555 1_555
C49 C50 1_555 1_555
O10 In9_4 1_555 1_555
C56 C57 1_555 1_555
C62 C63 1_555 1_555
C68 C69 1_555 1_555
C71 C72 1_555 1_555
C71 C74 1_555 1_555
C72 C73 1_555 1_555
In6_2 O3_2 1_555 1_555
In2_3 N1_2 1_555 1_555
O17 C20_2 1_555 1_555
O21 C20_2 1_555 1_555
O3_2 C1_2 1_555 1_555
O4_2 In6_2 1_555 1_555
N1_2 C22_2 1_555 1_555
N2_3 In2_3 1_555 1_555
C1_2 O4_2 1_555 1_555
C2_2 C1_2 1_555 1_555
C3_2 C2_2 1_555 1_555
H1_2 C3_2 1_555 1_555
C4_2 C3_2 1_555 1_555
H2_2 C4_2 1_555 1_555
C5_2 C4_2 1_555 1_555
C6_2 C5_2 1_555 1_555
H3_2 C6_2 1_555 1_555
C7_2 C2_2 1_555 1_555
H4_2 C7_2 1_555 1_555
C8_2 C5_2 1_555 1_555
C9_2 C8_2 1_555 1_555
H5_2 C9_2 1_555 1_555
C10_2 C9_2 1_555 1_555
C11_2 C10_2 1_555 1_555
H6_2 C11_2 1_555 1_555
C12_2 C11_2 1_555 1_555
C13_2 C8_2 1_555 1_555
H7_2 C13_2 1_555 1_555
C14_2 C10_2 1_555 1_555
C15_2 C14_2 1_555 1_555
H8_2 C15_2 1_555 1_555
C16_2 C15_2 1_555 1_555
H9_2 C16_2 1_555 1_555
C17_2 C16_2 1_555 1_555
C18_2 C17_2 1_555 1_555
H10_2 C18_2 1_555 1_555
C19_2 C14_2 1_555 1_555
H11_2 C19_2 1_555 1_555
C20_2 C17_2 1_555 1_555
C21_2 C12_2 1_555 1_555
C22_2 C21_2 1_555 1_555
C23_2 C22_2 1_555 1_555
H12_2 C23_2 1_555 1_555
C24_2 N2_3 1_555 1_555
C25_2 C24_2 1_555 1_555
H13_2 C25_2 1_555 1_555
C6_2 C7_2 1_555 1_555
C12_2 C13_2 1_555 1_555
C18_2 C19_2 1_555 1_555
C21_2 C24_2 1_555 1_555
In2_4 N1_3 1_555 1_555
N4_3 In2_4 1_555 1_555
O20 C95_2 1_555 1_555
O24 C95_2 1_555 1_555
O15_2 C76_2 1_555 1_555
O16_2 C76_2 1_555 1_555
C76_2 C77_2 1_555 1_555
C77_2 C78_2 1_555 1_555
C78_2 H40_2 1_555 1_555
C79_2 C78_2 1_555 1_555
H41_2 C79_2 1_555 1_555
C80_2 C79_2 1_555 1_555
C81_2 C80_2 1_555 1_555
H42_2 C81_2 1_555 1_555
C82_2 C77_2 1_555 1_555
H43_2 C82_2 1_555 1_555
C83_2 C80_2 1_555 1_555
C84_2 C83_2 1_555 1_555
H44_2 C84_2 1_555 1_555
C85_2 C84_2 1_555 1_555
C86_2 C85_2 1_555 1_555
H45_2 C86_2 1_555 1_555
C87_2 C86_2 1_555 1_555
C88_2 C83_2 1_555 1_555
H46_2 C88_2 1_555 1_555
C89_2 C85_2 1_555 1_555
C90_2 C89_2 1_555 1_555
H47_2 C90_2 1_555 1_555
C91_2 C90_2 1_555 1_555
H48_2 C91_2 1_555 1_555
C92_2 C91_2 1_555 1_555
C93_2 C92_2 1_555 1_555
H49_2 C93_2 1_555 1_555
C94_2 C89_2 1_555 1_555
H50_2 C94_2 1_555 1_555
C95_2 C92_2 1_555 1_555
C96_2 C87_2 1_555 1_555
C97_2 N1_3 1_555 1_555
H51_2 C98_2 1_555 1_555
C99_2 N4_3 1_555 1_555
H52_2 C100_2 1_555 1_555
In9_2 O15_2 1_555 1_555
O16_2 In9_2 1_555 1_555
C81_2 C82_2 1_555 1_555
C87_2 C88_2 1_555 1_555
C93_2 C94_2 1_555 1_555
C96_2 C97_2 1_555 1_555
C96_2 C99_2 1_555 1_555
C97_2 C98_2 1_555 1_555
C99_2 C100_2 1_555 1_555
O25_2 In6_3 1_555 1_555
O27_2 In6_3 1_555 1_555
O26_2 In9_3 1_555 1_555
O28_2 In9_3 1_555 1_555
N2_4 In2_5 1_555 1_555
O18 C45_2 1_555 1_555
O22 C45_2 1_555 1_555
O25_2 C26_2 1_555 1_555
O27_2 C26_2 1_555 1_555
N3_2 In2_5 1_555 1_555
C26_2 C27_2 1_555 1_555
C27_2 C28_2 1_555 1_555
C28_2 H14_2 1_555 1_555
C29_2 C28_2 1_555 1_555
H15_2 C29_2 1_555 1_555
C30_2 C29_2 1_555 1_555
C31_2 C30_2 1_555 1_555
H16_2 C31_2 1_555 1_555
C32_2 C27_2 1_555 1_555
H17_2 C32_2 1_555 1_555
C33_2 C30_2 1_555 1_555
C34_2 C33_2 1_555 1_555
H18_2 C34_2 1_555 1_555
C35_2 C34_2 1_555 1_555
C36_2 C35_2 1_555 1_555
H19_2 C36_2 1_555 1_555
C37_2 C36_2 1_555 1_555
C38_2 C33_2 1_555 1_555
H20_2 C38_2 1_555 1_555
C39_2 C35_2 1_555 1_555
C40_2 C39_2 1_555 1_555
H21_2 C40_2 1_555 1_555
C41_2 C40_2 1_555 1_555
H22_2 C41_2 1_555 1_555
C42_2 C41_2 1_555 1_555
C43_2 C42_2 1_555 1_555
H23_2 C43_2 1_555 1_555
C44_2 C39_2 1_555 1_555
H24_2 C44_2 1_555 1_555
C45_2 C42_2 1_555 1_555
C46_2 C37_2 1_555 1_555
C47_2 N3_2 1_555 1_555
C48_2 C47_2 1_555 1_555
H25_2 C48_2 1_555 1_555
C49_2 N2_4 1_555 1_555
H26_2 C50_2 1_555 1_555
C31_2 C32_2 1_555 1_555
C37_2 C38_2 1_555 1_555
C43_2 C44_2 1_555 1_555
C46_2 C47_2 1_555 1_555
C46_2 C49_2 1_555 1_555
C49_2 C50_2 1_555 1_555
N3_3 In2_6 1_555 1_555
O19 C70_2 1_555 1_555
O23 C70_2 1_555 1_555
O26_2 C51_2 1_555 1_555
O28_2 C51_2 1_555 1_555
N4_4 In2_6 1_555 1_555
C51_2 C52_2 1_555 1_555
C52_2 C53_2 1_555 1_555
C53_2 H27_2 1_555 1_555
C54_2 C53_2 1_555 1_555
H28_2 C54_2 1_555 1_555
C55_2 C54_2 1_555 1_555
C56_2 C55_2 1_555 1_555
H29_2 C56_2 1_555 1_555
C57_2 C52_2 1_555 1_555
H30_2 C57_2 1_555 1_555
C58_2 C55_2 1_555 1_555
C59_2 C58_2 1_555 1_555
H31_2 C59_2 1_555 1_555
C60_2 C59_2 1_555 1_555
C61_2 C60_2 1_555 1_555
H32_2 C61_2 1_555 1_555
C62_2 C61_2 1_555 1_555
C63_2 C58_2 1_555 1_555
H33_2 C63_2 1_555 1_555
C64_2 C60_2 1_555 1_555
C65_2 C64_2 1_555 1_555
H34_2 C65_2 1_555 1_555
C66_2 C65_2 1_555 1_555
H35_2 C66_2 1_555 1_555
C67_2 C66_2 1_555 1_555
C68_2 C67_2 1_555 1_555
H36_2 C68_2 1_555 1_555
C69_2 C64_2 1_555 1_555
H37_2 C69_2 1_555 1_555
C70_2 C67_2 1_555 1_555
C71_2 C62_2 1_555 1_555
C72_2 N3_3 1_555 1_555
H38_2 C73_2 1_555 1_555
C74_2 N4_4 1_555 1_555
C75_2 C74_2 1_555 1_555
H39_2 C75_2 1_555 1_555
C56_2 C57_2 1_555 1_555
C62_2 C63_2 1_555 1_555
C68_2 C69_2 1_555 1_555
C71_2 C72_2 1_555 1_555
C71_2 C74_2 1_555 1_555
C72_2 C73_2 1_555 1_555

#END
