
###############################################################################
#
# This file contains modified crystal structure data generated from the
# MOF subset of the Cambridge Structural Database (CSD) v543 
# hosted by the Cambridge Crystallographic Data Centre (CCDC).
#
# This work is licensed under the Creative Commons
# Attribution-NonCommercial-ShareAlike 4.0 International License.
# To view a copy of this license, visit
# http://creativecommons.org/licenses/by-nc-sa/4.0/
# or send a letter to
# Creative Commons, PO Box 1866, Mountain View, CA 94042, USA.
#
# CIF created using the CSD Python API on 29 September 2022
# The structure has been converted into the P1 space group
# The structure has a 3D framework
# The original CSD entry UQOLUJ is in the orthorhombic crystal system
# The framework has been calculated to contain at least 10.0% void space
# The void calculation uses a probe of radius 1.32A, grid spacing 0.4
# The framework is charged, counterions have been retained in the structure
#
###############################################################################

data_UQOLUJ
_chemical_formula_moiety         '(C200 H104 In10 N14 O32 1-)n'
_symmetry_cell_setting           triclinic
_symmetry_space_group_name_H-M   'P 1'
_symmetry_Int_Tables_number      1
_space_group_name_Hall           'P 1'
loop_
_symmetry_equiv_pos_site_id
_symmetry_equiv_pos_as_xyz
1 x,y,z
_cell_length_a                   23.881(2)
_cell_length_b                   23.915(2)
_cell_length_c                   28.808(2)
_cell_angle_alpha                90
_cell_angle_beta                 90
_cell_angle_gamma                90
_cell_volume                     16452.7
loop_
_atom_site_label
_atom_site_type_symbol
_atom_site_fract_x
_atom_site_fract_y
_atom_site_fract_z
In6 In -0.0000 0.0000 0.24983(2)
In9 In -0.0000 -0.0000 0.75017(2)
In6_2 In -0.0000 1.0000 0.24983(2)
In9_2 In 0.0000 1.0000 0.75017(2)
In1 In 0.5000 0.5000 0.25017(2)
In2 In 0.5000 0.0000 0.5000
O1 O 0.08447(14) 0.03429(14) 0.23517(16)
O2 O 0.06192(15) 0.02184(13) 0.31009(15)
O3 O 0.46611(14) 0.41516(14) 0.23554(15)
O4 O 0.47874(13) 0.43815(14) 0.30993(15)
N1 N 0.4403(3) 0.0593(3) 0.5000
N2 N 0.5000 -0.0000 0.4302(3)
C1 C 0.46275(17) 0.4050(2) 0.2774(3)
C2 C 0.44234(17) 0.34685(19) 0.2941(2)
C3 C 0.4207(2) 0.3116(2) 0.2578(2)
H1 H 0.4195 0.3231 0.2270
C4 C 0.4013(2) 0.2585(2) 0.2720(2)
H2 H 0.3852 0.2344 0.2504
C5 C 0.40613(19) 0.2428(2) 0.3164(2)
C6 C 0.4297(2) 0.2769(2) 0.3517(2)
H3 H 0.4330 0.2640 0.3820
C7 C 0.4480(2) 0.3317(2) 0.3391(2)
H4 H 0.4631 0.3560 0.3610
C8 C 0.3862(2) 0.1850(2) 0.3331(2)
C9 C 0.3353(2) 0.1649(2) 0.3180(2)
H5 H 0.3144 0.1857 0.2969
C10 C 0.3148(2) 0.1142(2) 0.3340(2)
C11 C 0.3455(2) 0.0842(2) 0.36534(19)
H6 H 0.3312 0.0510 0.3772
C12 C 0.3973(2) 0.1025(2) 0.3796(2)
C13 C 0.41544(18) 0.1550(2) 0.36550(18)
H7 H 0.4479 0.1700 0.3783
C14 C 0.25780(19) 0.0947(2) 0.3176(2)
C15 C 0.2416(2) 0.0987(2) 0.2719(3)
H8 H 0.2661 0.1139 0.2501
C16 C 0.1884(3) 0.0801(2) 0.2580(2)
H9 H 0.1765 0.0821 0.2273
C17 C 0.15290(19) 0.05738(18) 0.2947(2)
C18 C 0.1698(2) 0.0525(2) 0.3385(2)
H10 H 0.1461 0.0374 0.3609
C19 C 0.2233(2) 0.0705(2) 0.3505(2)
H11 H 0.2360 0.0662 0.3808
C20 C 0.0958(2) 0.0379(2) 0.2769(3)
C21 C 0.42783(18) 0.07250(19) 0.4174(2)
C22 C 0.4165(2) 0.0834(2) 0.4611(2)
C23 C 0.3746(2) 0.1256(2) 0.47774(17)
H12 H 0.3524 0.1481 0.4589
C24 C 0.46706(19) 0.0320(2) 0.3991(3)
C25 C 0.4819(2) 0.0184(2) 0.3518(3)
H13 H 0.4665 0.0347 0.3255
N4 N 0.5000 0.0000 0.5698(3)
O13 O 0.08447(14) 0.03429(14) 0.76483(16)
O14 O 0.06192(15) 0.02184(13) 0.68991(15)
O15 O 0.46611(14) 0.41516(14) 0.76446(15)
O16 O 0.47874(13) 0.43815(14) 0.69007(15)
C76 C 0.46275(17) 0.4050(2) 0.7226(3)
C77 C 0.44234(17) 0.34685(19) 0.7059(2)
C78 C 0.4207(2) 0.3116(2) 0.7422(2)
H40 H 0.4195 0.3231 0.7730
C79 C 0.4013(2) 0.2585(2) 0.7280(2)
H41 H 0.3852 0.2344 0.7496
C80 C 0.40613(19) 0.2428(2) 0.6836(2)
C81 C 0.4297(2) 0.2769(2) 0.6483(2)
H42 H 0.4330 0.2640 0.6180
C82 C 0.4480(2) 0.3317(2) 0.6609(2)
H43 H 0.4631 0.3560 0.6390
C83 C 0.3862(2) 0.1850(2) 0.6669(2)
C84 C 0.3353(2) 0.1649(2) 0.6820(2)
H44 H 0.3144 0.1857 0.7031
C85 C 0.3148(2) 0.1142(2) 0.6660(2)
C86 C 0.3455(2) 0.0842(2) 0.63466(19)
H45 H 0.3312 0.0510 0.6228
C87 C 0.3973(2) 0.1025(2) 0.6204(2)
C88 C 0.41544(18) 0.1550(2) 0.63450(18)
H46 H 0.4479 0.1700 0.6217
C89 C 0.25780(19) 0.0947(2) 0.6824(2)
C90 C 0.2416(2) 0.0987(2) 0.7281(3)
H47 H 0.2661 0.1139 0.7499
C91 C 0.1884(3) 0.0801(2) 0.7420(2)
H48 H 0.1765 0.0821 0.7727
C92 C 0.15290(19) 0.05738(18) 0.7053(2)
C93 C 0.1698(2) 0.0525(2) 0.6615(2)
H49 H 0.1461 0.0374 0.6391
C94 C 0.2233(2) 0.0705(2) 0.6495(2)
H50 H 0.2360 0.0662 0.6192
C95 C 0.0958(2) 0.0379(2) 0.7231(3)
C96 C 0.42783(18) 0.07250(19) 0.5826(2)
C97 C 0.4165(2) 0.0834(2) 0.5389(2)
C98 C 0.3746(2) 0.1256(2) 0.52226(17)
H51 H 0.3524 0.1481 0.5411
C99 C 0.46706(19) 0.0320(2) 0.6009(3)
C100 C 0.4819(2) 0.0184(2) 0.6482(3)
H52 H 0.4665 0.0347 0.6745
In3 In 0.5000 0.5000 0.74983(2)
In6_3 In 1.0000 0.0000 0.24983(2)
In9_3 In 1.0000 -0.0000 0.75017(2)
O17 O 0.41553(14) 0.53429(14) 0.26483(16)
O18 O 0.58447(14) 0.46571(14) 0.26483(16)
O19 O 0.58447(14) 0.46571(14) 0.73517(16)
O20 O 0.41553(14) 0.53429(14) 0.73517(16)
O21 O 0.43808(15) 0.52184(13) 0.18991(15)
O22 O 0.56192(15) 0.47816(13) 0.18991(15)
O23 O 0.56192(15) 0.47816(13) 0.81009(15)
O24 O 0.43808(15) 0.52184(13) 0.81009(15)
O25 O 0.53389(14) 0.58484(14) 0.23554(15)
O26 O 0.53389(14) 0.58484(14) 0.76446(15)
O27 O 0.52126(13) 0.56185(14) 0.30993(15)
O28 O 0.52126(13) 0.56185(14) 0.69007(15)
In2_2 In 0.5000 1.0000 0.5000
N2_2 N 0.5000 1.0000 0.4302(3)
O5 O 0.91553(14) 0.96571(14) 0.23517(16)
O6 O 0.93808(15) 0.97816(13) 0.31009(15)
N3 N 0.5597(3) 0.9407(3) 0.5000
C26 C 0.53725(17) 0.5950(2) 0.2774(3)
C27 C 0.55766(17) 0.65315(19) 0.2941(2)
C28 C 0.5793(2) 0.6884(2) 0.2578(2)
H14 H 0.5805 0.6769 0.2270
C29 C 0.5987(2) 0.7415(2) 0.2720(2)
H15 H 0.6148 0.7656 0.2504
C30 C 0.59387(19) 0.7572(2) 0.3164(2)
C31 C 0.5703(2) 0.7231(2) 0.3517(2)
H16 H 0.5670 0.7360 0.3820
C32 C 0.5520(2) 0.6683(2) 0.3391(2)
H17 H 0.5369 0.6440 0.3610
C33 C 0.6138(2) 0.8150(2) 0.3331(2)
C34 C 0.6647(2) 0.8351(2) 0.3180(2)
H18 H 0.6856 0.8143 0.2969
C35 C 0.6852(2) 0.8858(2) 0.3340(2)
C36 C 0.6545(2) 0.9158(2) 0.36534(19)
H19 H 0.6688 0.9490 0.3772
C37 C 0.6027(2) 0.8975(2) 0.3796(2)
C38 C 0.58456(18) 0.8450(2) 0.36550(18)
H20 H 0.5521 0.8300 0.3783
C39 C 0.74220(19) 0.9053(2) 0.3176(2)
C40 C 0.7584(2) 0.9013(2) 0.2719(3)
H21 H 0.7339 0.8861 0.2501
C41 C 0.8116(3) 0.9199(2) 0.2580(2)
H22 H 0.8235 0.9179 0.2273
C42 C 0.84710(19) 0.94262(18) 0.2947(2)
C43 C 0.8302(2) 0.9475(2) 0.3385(2)
H23 H 0.8539 0.9626 0.3609
C44 C 0.7767(2) 0.9295(2) 0.3505(2)
H24 H 0.7640 0.9338 0.3808
C45 C 0.9042(2) 0.9621(2) 0.2769(3)
C46 C 0.57217(18) 0.92750(19) 0.4174(2)
C47 C 0.5835(2) 0.9166(2) 0.4611(2)
C48 C 0.6254(2) 0.8744(2) 0.47774(17)
H25 H 0.6476 0.8519 0.4589
C49 C 0.53294(19) 0.9680(2) 0.3991(3)
C50 C 0.5181(2) 0.9816(2) 0.3518(3)
H26 H 0.5335 0.9653 0.3255
O9 O 0.91553(14) 0.96571(14) 0.76483(16)
O10 O 0.93808(15) 0.97816(13) 0.68991(15)
N4_2 N 0.5000 1.0000 0.5698(3)
C51 C 0.53725(17) 0.5950(2) 0.7226(3)
C52 C 0.55766(17) 0.65315(19) 0.7059(2)
C53 C 0.5793(2) 0.6884(2) 0.7422(2)
H27 H 0.5805 0.6769 0.7730
C54 C 0.5987(2) 0.7415(2) 0.7280(2)
H28 H 0.6148 0.7656 0.7496
C55 C 0.59387(19) 0.7572(2) 0.6836(2)
C56 C 0.5703(2) 0.7231(2) 0.6483(2)
H29 H 0.5670 0.7360 0.6180
C57 C 0.5520(2) 0.6683(2) 0.6609(2)
H30 H 0.5369 0.6440 0.6390
C58 C 0.6138(2) 0.8150(2) 0.6669(2)
C59 C 0.6647(2) 0.8351(2) 0.6820(2)
H31 H 0.6856 0.8143 0.7031
C60 C 0.6852(2) 0.8858(2) 0.6660(2)
C61 C 0.6545(2) 0.9158(2) 0.63466(19)
H32 H 0.6688 0.9490 0.6228
C62 C 0.6027(2) 0.8975(2) 0.6204(2)
C63 C 0.58456(18) 0.8450(2) 0.63450(18)
H33 H 0.5521 0.8300 0.6217
C64 C 0.74220(19) 0.9053(2) 0.6824(2)
C65 C 0.7584(2) 0.9013(2) 0.7281(3)
H34 H 0.7339 0.8861 0.7499
C66 C 0.8116(3) 0.9199(2) 0.7420(2)
H35 H 0.8235 0.9179 0.7727
C67 C 0.84710(19) 0.94262(18) 0.7053(2)
C68 C 0.8302(2) 0.9475(2) 0.6615(2)
H36 H 0.8539 0.9626 0.6391
C69 C 0.7767(2) 0.9295(2) 0.6495(2)
H37 H 0.7640 0.9338 0.6192
C70 C 0.9042(2) 0.9621(2) 0.7231(3)
C71 C 0.57217(18) 0.92750(19) 0.5826(2)
C72 C 0.5835(2) 0.9166(2) 0.5389(2)
C73 C 0.6254(2) 0.8744(2) 0.52226(17)
H38 H 0.6476 0.8519 0.5411
C74 C 0.53294(19) 0.9680(2) 0.6009(3)
C75 C 0.5181(2) 0.9816(2) 0.6482(3)
H39 H 0.5335 0.9653 0.6745
In6_4 In 1.0000 1.0000 0.24983(2)
In9_4 In 1.0000 1.0000 0.75017(2)
In2_3 In 0.0000 0.5000 0.0000
O3_2 O 0.03389(14) 0.91516(14) 0.26446(15)
O4_2 O 0.02126(13) 0.93815(14) 0.19007(15)
N1_2 N 0.0597(3) 0.5593(3) 0.0000
N2_3 N 0.0000 0.5000 0.0698(3)
C1_2 C 0.03725(17) 0.9050(2) 0.2226(3)
C2_2 C 0.05766(17) 0.84685(19) 0.2059(2)
C3_2 C 0.0793(2) 0.8116(2) 0.2422(2)
H1_2 H 0.0805 0.8231 0.2730
C4_2 C 0.0987(2) 0.7585(2) 0.2280(2)
H2_2 H 0.1148 0.7344 0.2496
C5_2 C 0.09387(19) 0.7428(2) 0.1836(2)
C6_2 C 0.0703(2) 0.7769(2) 0.1483(2)
H3_2 H 0.0670 0.7640 0.1180
C7_2 C 0.0520(2) 0.8317(2) 0.1609(2)
H4_2 H 0.0369 0.8560 0.1390
C8_2 C 0.1138(2) 0.6850(2) 0.1669(2)
C9_2 C 0.1647(2) 0.6649(2) 0.1820(2)
H5_2 H 0.1856 0.6857 0.2031
C10_2 C 0.1852(2) 0.6142(2) 0.1660(2)
C11_2 C 0.1545(2) 0.5842(2) 0.13466(19)
H6_2 H 0.1688 0.5510 0.1228
C12_2 C 0.1027(2) 0.6025(2) 0.1204(2)
C13_2 C 0.08456(18) 0.6550(2) 0.13450(18)
H7_2 H 0.0521 0.6700 0.1217
C14_2 C 0.24220(19) 0.5947(2) 0.1824(2)
C15_2 C 0.2584(2) 0.5987(2) 0.2281(3)
H8_2 H 0.2339 0.6139 0.2499
C16_2 C 0.3116(3) 0.5801(2) 0.2420(2)
H9_2 H 0.3235 0.5821 0.2727
C17_2 C 0.34710(19) 0.55738(18) 0.2053(2)
C18_2 C 0.3302(2) 0.5525(2) 0.1615(2)
H10_2 H 0.3539 0.5374 0.1391
C19_2 C 0.2767(2) 0.5705(2) 0.1495(2)
H11_2 H 0.2640 0.5662 0.1192
C20_2 C 0.4042(2) 0.5379(2) 0.2231(3)
C21_2 C 0.07217(18) 0.57250(19) 0.0826(2)
C22_2 C 0.0835(2) 0.5834(2) 0.0389(2)
C23_2 C 0.1254(2) 0.6256(2) 0.02226(17)
H12_2 H 0.1476 0.6481 0.0411
C24_2 C 0.03294(19) 0.5320(2) 0.1009(3)
C25_2 C 0.0181(2) 0.5184(2) 0.1482(3)
H13_2 H 0.0335 0.5347 0.1745
In2_4 In 0.0000 0.5000 1.0000
N1_3 N 0.0597(3) 0.5593(3) 1.0000
N4_3 N -0.0000 0.5000 0.9302(3)
O15_2 O 0.03389(14) 0.91516(14) 0.73554(15)
O16_2 O 0.02126(13) 0.93815(14) 0.80993(15)
C76_2 C 0.03725(17) 0.9050(2) 0.7774(3)
C77_2 C 0.05766(17) 0.84685(19) 0.7941(2)
C78_2 C 0.0793(2) 0.8116(2) 0.7578(2)
H40_2 H 0.0805 0.8231 0.7270
C79_2 C 0.0987(2) 0.7585(2) 0.7720(2)
H41_2 H 0.1148 0.7344 0.7504
C80_2 C 0.09387(19) 0.7428(2) 0.8164(2)
C81_2 C 0.0703(2) 0.7769(2) 0.8517(2)
H42_2 H 0.0670 0.7640 0.8820
C82_2 C 0.0520(2) 0.8317(2) 0.8391(2)
H43_2 H 0.0369 0.8560 0.8610
C83_2 C 0.1138(2) 0.6850(2) 0.8331(2)
C84_2 C 0.1647(2) 0.6649(2) 0.8180(2)
H44_2 H 0.1856 0.6857 0.7969
C85_2 C 0.1852(2) 0.6142(2) 0.8340(2)
C86_2 C 0.1545(2) 0.5842(2) 0.86534(19)
H45_2 H 0.1688 0.5510 0.8772
C87_2 C 0.1027(2) 0.6025(2) 0.8796(2)
C88_2 C 0.08456(18) 0.6550(2) 0.86550(18)
H46_2 H 0.0521 0.6700 0.8783
C89_2 C 0.24220(19) 0.5947(2) 0.8176(2)
C90_2 C 0.2584(2) 0.5987(2) 0.7719(3)
H47_2 H 0.2339 0.6139 0.7501
C91_2 C 0.3116(3) 0.5801(2) 0.7580(2)
H48_2 H 0.3235 0.5821 0.7273
C92_2 C 0.34710(19) 0.55738(18) 0.7947(2)
C93_2 C 0.3302(2) 0.5525(2) 0.8385(2)
H49_2 H 0.3539 0.5374 0.8609
C94_2 C 0.2767(2) 0.5705(2) 0.8505(2)
H50_2 H 0.2640 0.5662 0.8808
C95_2 C 0.4042(2) 0.5379(2) 0.7769(3)
C96_2 C 0.07217(18) 0.57250(19) 0.9174(2)
C97_2 C 0.0835(2) 0.5834(2) 0.9611(2)
C98_2 C 0.1254(2) 0.6256(2) 0.97774(17)
H51_2 H 0.1476 0.6481 0.9589
C99_2 C 0.03294(19) 0.5320(2) 0.8991(3)
C100_2 C 0.0181(2) 0.5184(2) 0.8518(3)
H52_2 H 0.0335 0.5347 0.8255
O25_2 O 0.96611(14) 0.08484(14) 0.26446(15)
O27_2 O 0.97874(13) 0.06185(14) 0.19007(15)
O26_2 O 0.96611(14) 0.08484(14) 0.73554(15)
O28_2 O 0.97874(13) 0.06185(14) 0.80993(15)
In2_5 In 1.0000 0.5000 0.0000
N2_4 N 1.0000 0.5000 0.0698(3)
N3_2 N 0.9403(3) 0.4407(3) 0.0000
C26_2 C 0.96275(17) 0.0950(2) 0.2226(3)
C27_2 C 0.94234(17) 0.15315(19) 0.2059(2)
C28_2 C 0.9207(2) 0.1884(2) 0.2422(2)
H14_2 H 0.9195 0.1769 0.2730
C29_2 C 0.9013(2) 0.2415(2) 0.2280(2)
H15_2 H 0.8852 0.2656 0.2496
C30_2 C 0.90613(19) 0.2572(2) 0.1836(2)
C31_2 C 0.9297(2) 0.2231(2) 0.1483(2)
H16_2 H 0.9330 0.2360 0.1180
C32_2 C 0.9480(2) 0.1683(2) 0.1609(2)
H17_2 H 0.9631 0.1440 0.1390
C33_2 C 0.8862(2) 0.3150(2) 0.1669(2)
C34_2 C 0.8353(2) 0.3351(2) 0.1820(2)
H18_2 H 0.8144 0.3143 0.2031
C35_2 C 0.8148(2) 0.3858(2) 0.1660(2)
C36_2 C 0.8455(2) 0.4158(2) 0.13466(19)
H19_2 H 0.8312 0.4490 0.1228
C37_2 C 0.8973(2) 0.3975(2) 0.1204(2)
C38_2 C 0.91544(18) 0.3450(2) 0.13450(18)
H20_2 H 0.9479 0.3300 0.1217
C39_2 C 0.75780(19) 0.4053(2) 0.1824(2)
C40_2 C 0.7416(2) 0.4013(2) 0.2281(3)
H21_2 H 0.7661 0.3861 0.2499
C41_2 C 0.6884(3) 0.4199(2) 0.2420(2)
H22_2 H 0.6765 0.4179 0.2727
C42_2 C 0.65290(19) 0.44262(18) 0.2053(2)
C43_2 C 0.6698(2) 0.4475(2) 0.1615(2)
H23_2 H 0.6461 0.4626 0.1391
C44_2 C 0.7233(2) 0.4295(2) 0.1495(2)
H24_2 H 0.7360 0.4338 0.1192
C45_2 C 0.5958(2) 0.4621(2) 0.2231(3)
C46_2 C 0.92783(18) 0.42750(19) 0.0826(2)
C47_2 C 0.9165(2) 0.4166(2) 0.0389(2)
C48_2 C 0.8746(2) 0.3744(2) 0.02226(17)
H25_2 H 0.8524 0.3519 0.0411
C49_2 C 0.96706(19) 0.4680(2) 0.1009(3)
C50_2 C 0.9819(2) 0.4816(2) 0.1482(3)
H26_2 H 0.9665 0.4653 0.1745
In2_6 In 1.0000 0.5000 1.0000
N3_3 N 0.9403(3) 0.4407(3) 1.0000
N4_4 N 1.0000 0.5000 0.9302(3)
C51_2 C 0.96275(17) 0.0950(2) 0.7774(3)
C52_2 C 0.94234(17) 0.15315(19) 0.7941(2)
C53_2 C 0.9207(2) 0.1884(2) 0.7578(2)
H27_2 H 0.9195 0.1769 0.7270
C54_2 C 0.9013(2) 0.2415(2) 0.7720(2)
H28_2 H 0.8852 0.2656 0.7504
C55_2 C 0.90613(19) 0.2572(2) 0.8164(2)
C56_2 C 0.9297(2) 0.2231(2) 0.8517(2)
H29_2 H 0.9330 0.2360 0.8820
C57_2 C 0.9480(2) 0.1683(2) 0.8391(2)
H30_2 H 0.9631 0.1440 0.8610
C58_2 C 0.8862(2) 0.3150(2) 0.8331(2)
C59_2 C 0.8353(2) 0.3351(2) 0.8180(2)
H31_2 H 0.8144 0.3143 0.7969
C60_2 C 0.8148(2) 0.3858(2) 0.8340(2)
C61_2 C 0.8455(2) 0.4158(2) 0.86534(19)
H32_2 H 0.8312 0.4490 0.8772
C62_2 C 0.8973(2) 0.3975(2) 0.8796(2)
C63_2 C 0.91544(18) 0.3450(2) 0.86550(18)
H33_2 H 0.9479 0.3300 0.8783
C64_2 C 0.75780(19) 0.4053(2) 0.8176(2)
C65_2 C 0.7416(2) 0.4013(2) 0.7719(3)
H34_2 H 0.7661 0.3861 0.7501
C66_2 C 0.6884(3) 0.4199(2) 0.7580(2)
H35_2 H 0.6765 0.4179 0.7273
C67_2 C 0.65290(19) 0.44262(18) 0.7947(2)
C68_2 C 0.6698(2) 0.4475(2) 0.8385(2)
H36_2 H 0.6461 0.4626 0.8609
C69_2 C 0.7233(2) 0.4295(2) 0.8505(2)
H37_2 H 0.7360 0.4338 0.8808
C70_2 C 0.5958(2) 0.4621(2) 0.7769(3)
C71_2 C 0.92783(18) 0.42750(19) 0.9174(2)
C72_2 C 0.9165(2) 0.4166(2) 0.9611(2)
C73_2 C 0.8746(2) 0.3744(2) 0.97774(17)
H38_2 H 0.8524 0.3519 0.9589
C74_2 C 0.96706(19) 0.4680(2) 0.8991(3)
C75_2 C 0.9819(2) 0.4816(2) 0.8518(3)
H39_2 H 0.9665 0.4653 0.8255
loop_
_geom_bond_atom_site_label_1
_geom_bond_atom_site_label_2
_geom_bond_site_symmetry_1
_geom_bond_site_symmetry_2
In1 O3 1_555 1_555
In2 N1 1_555 1_555
O1 C20 1_555 1_555
O2 C20 1_555 1_555
O3 C1 1_555 1_555
O4 In1 1_555 1_555
N1 C22 1_555 1_555
N2 In2 1_555 1_555
C1 O4 1_555 1_555
C2 C1 1_555 1_555
C3 C2 1_555 1_555
H1 C3 1_555 1_555
C4 C3 1_555 1_555
H2 C4 1_555 1_555
C5 C4 1_555 1_555
C6 C5 1_555 1_555
H3 C6 1_555 1_555
C7 C2 1_555 1_555
H4 C7 1_555 1_555
C8 C5 1_555 1_555
C9 C8 1_555 1_555
H5 C9 1_555 1_555
C10 C9 1_555 1_555
C11 C10 1_555 1_555
H6 C11 1_555 1_555
C12 C11 1_555 1_555
C13 C8 1_555 1_555
H7 C13 1_555 1_555
C14 C10 1_555 1_555
C15 C14 1_555 1_555
H8 C15 1_555 1_555
C16 C15 1_555 1_555
H9 C16 1_555 1_555
C17 C16 1_555 1_555
C18 C17 1_555 1_555
H10 C18 1_555 1_555
C19 C14 1_555 1_555
H11 C19 1_555 1_555
C20 C17 1_555 1_555
C21 C12 1_555 1_555
C22 C21 1_555 1_555
C23 C22 1_555 1_555
H12 C23 1_555 1_555
C24 N2 1_555 1_555
C25 C24 1_555 1_555
H13 C25 1_555 1_555
N4 In2 1_555 1_555
O13 C95 1_555 1_555
O14 C95 1_555 1_555
O15 C76 1_555 1_555
O16 C76 1_555 1_555
C76 C77 1_555 1_555
C77 C78 1_555 1_555
C78 H40 1_555 1_555
C79 C78 1_555 1_555
H41 C79 1_555 1_555
C80 C79 1_555 1_555
C81 C80 1_555 1_555
H42 C81 1_555 1_555
C82 C77 1_555 1_555
H43 C82 1_555 1_555
C83 C80 1_555 1_555
C84 C83 1_555 1_555
H44 C84 1_555 1_555
C85 C84 1_555 1_555
C86 C85 1_555 1_555
H45 C86 1_555 1_555
C87 C86 1_555 1_555
C88 C83 1_555 1_555
H46 C88 1_555 1_555
C89 C85 1_555 1_555
C90 C89 1_555 1_555
H47 C90 1_555 1_555
C91 C90 1_555 1_555
H48 C91 1_555 1_555
C92 C91 1_555 1_555
C93 C92 1_555 1_555
H49 C93 1_555 1_555
C94 C89 1_555 1_555
H50 C94 1_555 1_555
C95 C92 1_555 1_555
C96 C87 1_555 1_555
C97 N1 1_555 1_555
C98 C23 1_555 1_555
H51 C98 1_555 1_555
C99 N4 1_555 1_555
H52 C100 1_555 1_555
In3 O15 1_555 1_555
In6 O1 1_555 1_555
In9 O13 1_555 1_555
O17 In1 1_555 1_555
O18 In1 1_555 1_555
O19 In3 1_555 1_555
O20 In3 1_555 1_555
O21 In1 1_555 1_555
O22 In1 1_555 1_555
O23 In3 1_555 1_555
O24 In3 1_555 1_555
O25 In1 1_555 1_555
O26 In3 1_555 1_555
O27 In1 1_555 1_555
O28 In3 1_555 1_555
O2 In6 1_555 1_555
C6 C7 1_555 1_555
C12 C13 1_555 1_555
C18 C19 1_555 1_555
C21 C24 1_555 1_555
O14 In9 1_555 1_555
O16 In3 1_555 1_555
C81 C82 1_555 1_555
C87 C88 1_555 1_555
C93 C94 1_555 1_555
C96 C97 1_555 1_555
C96 C99 1_555 1_555
C97 C98 1_555 1_555
C99 C100 1_555 1_555
N2_2 In2_2 1_555 1_555
O5 C45 1_555 1_555
O6 C45 1_555 1_555
O25 C26 1_555 1_555
O27 C26 1_555 1_555
N3 In2_2 1_555 1_555
C26 C27 1_555 1_555
C27 C28 1_555 1_555
C28 H14 1_555 1_555
C29 C28 1_555 1_555
H15 C29 1_555 1_555
C30 C29 1_555 1_555
C31 C30 1_555 1_555
H16 C31 1_555 1_555
C32 C27 1_555 1_555
H17 C32 1_555 1_555
C33 C30 1_555 1_555
C34 C33 1_555 1_555
H18 C34 1_555 1_555
C35 C34 1_555 1_555
C36 C35 1_555 1_555
H19 C36 1_555 1_555
C37 C36 1_555 1_555
C38 C33 1_555 1_555
H20 C38 1_555 1_555
C39 C35 1_555 1_555
C40 C39 1_555 1_555
H21 C40 1_555 1_555
C41 C40 1_555 1_555
H22 C41 1_555 1_555
C42 C41 1_555 1_555
C43 C42 1_555 1_555
H23 C43 1_555 1_555
C44 C39 1_555 1_555
H24 C44 1_555 1_555
C45 C42 1_555 1_555
C46 C37 1_555 1_555
C47 N3 1_555 1_555
C48 C47 1_555 1_555
H25 C48 1_555 1_555
C49 N2_2 1_555 1_555
H26 C50 1_555 1_555
O9 C70 1_555 1_555
O10 C70 1_555 1_555
O26 C51 1_555 1_555
O28 C51 1_555 1_555
N4_2 In2_2 1_555 1_555
C51 C52 1_555 1_555
C52 C53 1_555 1_555
C53 H27 1_555 1_555
C54 C53 1_555 1_555
H28 C54 1_555 1_555
C55 C54 1_555 1_555
C56 C55 1_555 1_555
H29 C56 1_555 1_555
C57 C52 1_555 1_555
H30 C57 1_555 1_555
C58 C55 1_555 1_555
C59 C58 1_555 1_555
H31 C59 1_555 1_555
C60 C59 1_555 1_555
C61 C60 1_555 1_555
H32 C61 1_555 1_555
C62 C61 1_555 1_555
C63 C58 1_555 1_555
H33 C63 1_555 1_555
C64 C60 1_555 1_555
C65 C64 1_555 1_555
H34 C65 1_555 1_555
C66 C65 1_555 1_555
H35 C66 1_555 1_555
C67 C66 1_555 1_555
C68 C67 1_555 1_555
H36 C68 1_555 1_555
C69 C64 1_555 1_555
H37 C69 1_555 1_555
C70 C67 1_555 1_555
C71 C62 1_555 1_555
C72 N3 1_555 1_555
C73 C48 1_555 1_555
H38 C73 1_555 1_555
C74 N4_2 1_555 1_555
C75 C74 1_555 1_555
H39 C75 1_555 1_555
In6_4 O5 1_555 1_555
In9_4 O9 1_555 1_555
O6 In6_4 1_555 1_555
C31 C32 1_555 1_555
C37 C38 1_555 1_555
C43 C44 1_555 1_555
C46 C47 1_555 1_555
C46 C49 1_555 1_555
C49 C50 1_555 1_555
O10 In9_4 1_555 1_555
C56 C57 1_555 1_555
C62 C63 1_555 1_555
C68 C69 1_555 1_555
C71 C72 1_555 1_555
C71 C74 1_555 1_555
C72 C73 1_555 1_555
In6_2 O3_2 1_555 1_555
In2_3 N1_2 1_555 1_555
O17 C20_2 1_555 1_555
O21 C20_2 1_555 1_555
O3_2 C1_2 1_555 1_555
O4_2 In6_2 1_555 1_555
N1_2 C22_2 1_555 1_555
N2_3 In2_3 1_555 1_555
C1_2 O4_2 1_555 1_555
C2_2 C1_2 1_555 1_555
C3_2 C2_2 1_555 1_555
H1_2 C3_2 1_555 1_555
C4_2 C3_2 1_555 1_555
H2_2 C4_2 1_555 1_555
C5_2 C4_2 1_555 1_555
C6_2 C5_2 1_555 1_555
H3_2 C6_2 1_555 1_555
C7_2 C2_2 1_555 1_555
H4_2 C7_2 1_555 1_555
C8_2 C5_2 1_555 1_555
C9_2 C8_2 1_555 1_555
H5_2 C9_2 1_555 1_555
C10_2 C9_2 1_555 1_555
C11_2 C10_2 1_555 1_555
H6_2 C11_2 1_555 1_555
C12_2 C11_2 1_555 1_555
C13_2 C8_2 1_555 1_555
H7_2 C13_2 1_555 1_555
C14_2 C10_2 1_555 1_555
C15_2 C14_2 1_555 1_555
H8_2 C15_2 1_555 1_555
C16_2 C15_2 1_555 1_555
H9_2 C16_2 1_555 1_555
C17_2 C16_2 1_555 1_555
C18_2 C17_2 1_555 1_555
H10_2 C18_2 1_555 1_555
C19_2 C14_2 1_555 1_555
H11_2 C19_2 1_555 1_555
C20_2 C17_2 1_555 1_555
C21_2 C12_2 1_555 1_555
C22_2 C21_2 1_555 1_555
C23_2 C22_2 1_555 1_555
H12_2 C23_2 1_555 1_555
C24_2 N2_3 1_555 1_555
C25_2 C24_2 1_555 1_555
H13_2 C25_2 1_555 1_555
C6_2 C7_2 1_555 1_555
C12_2 C13_2 1_555 1_555
C18_2 C19_2 1_555 1_555
C21_2 C24_2 1_555 1_555
In2_4 N1_3 1_555 1_555
N4_3 In2_4 1_555 1_555
O20 C95_2 1_555 1_555
O24 C95_2 1_555 1_555
O15_2 C76_2 1_555 1_555
O16_2 C76_2 1_555 1_555
C76_2 C77_2 1_555 1_555
C77_2 C78_2 1_555 1_555
C78_2 H40_2 1_555 1_555
C79_2 C78_2 1_555 1_555
H41_2 C79_2 1_555 1_555
C80_2 C79_2 1_555 1_555
C81_2 C80_2 1_555 1_555
H42_2 C81_2 1_555 1_555
C82_2 C77_2 1_555 1_555
H43_2 C82_2 1_555 1_555
C83_2 C80_2 1_555 1_555
C84_2 C83_2 1_555 1_555
H44_2 C84_2 1_555 1_555
C85_2 C84_2 1_555 1_555
C86_2 C85_2 1_555 1_555
H45_2 C86_2 1_555 1_555
C87_2 C86_2 1_555 1_555
C88_2 C83_2 1_555 1_555
H46_2 C88_2 1_555 1_555
C89_2 C85_2 1_555 1_555
C90_2 C89_2 1_555 1_555
H47_2 C90_2 1_555 1_555
C91_2 C90_2 1_555 1_555
H48_2 C91_2 1_555 1_555
C92_2 C91_2 1_555 1_555
C93_2 C92_2 1_555 1_555
H49_2 C93_2 1_555 1_555
C94_2 C89_2 1_555 1_555
H50_2 C94_2 1_555 1_555
C95_2 C92_2 1_555 1_555
C96_2 C87_2 1_555 1_555
C97_2 N1_3 1_555 1_555
H51_2 C98_2 1_555 1_555
C99_2 N4_3 1_555 1_555
H52_2 C100_2 1_555 1_555
In9_2 O15_2 1_555 1_555
O16_2 In9_2 1_555 1_555
C81_2 C82_2 1_555 1_555
C87_2 C88_2 1_555 1_555
C93_2 C94_2 1_555 1_555
C96_2 C97_2 1_555 1_555
C96_2 C99_2 1_555 1_555
C97_2 C98_2 1_555 1_555
C99_2 C100_2 1_555 1_555
O25_2 In6_3 1_555 1_555
O27_2 In6_3 1_555 1_555
O26_2 In9_3 1_555 1_555
O28_2 In9_3 1_555 1_555
N2_4 In2_5 1_555 1_555
O18 C45_2 1_555 1_555
O22 C45_2 1_555 1_555
O25_2 C26_2 1_555 1_555
O27_2 C26_2 1_555 1_555
N3_2 In2_5 1_555 1_555
C26_2 C27_2 1_555 1_555
C27_2 C28_2 1_555 1_555
C28_2 H14_2 1_555 1_555
C29_2 C28_2 1_555 1_555
H15_2 C29_2 1_555 1_555
C30_2 C29_2 1_555 1_555
C31_2 C30_2 1_555 1_555
H16_2 C31_2 1_555 1_555
C32_2 C27_2 1_555 1_555
H17_2 C32_2 1_555 1_555
C33_2 C30_2 1_555 1_555
C34_2 C33_2 1_555 1_555
H18_2 C34_2 1_555 1_555
C35_2 C34_2 1_555 1_555
C36_2 C35_2 1_555 1_555
H19_2 C36_2 1_555 1_555
C37_2 C36_2 1_555 1_555
C38_2 C33_2 1_555 1_555
H20_2 C38_2 1_555 1_555
C39_2 C35_2 1_555 1_555
C40_2 C39_2 1_555 1_555
H21_2 C40_2 1_555 1_555
C41_2 C40_2 1_555 1_555
H22_2 C41_2 1_555 1_555
C42_2 C41_2 1_555 1_555
C43_2 C42_2 1_555 1_555
H23_2 C43_2 1_555 1_555
C44_2 C39_2 1_555 1_555
H24_2 C44_2 1_555 1_555
C45_2 C42_2 1_555 1_555
C46_2 C37_2 1_555 1_555
C47_2 N3_2 1_555 1_555
C48_2 C47_2 1_555 1_555
H25_2 C48_2 1_555 1_555
C49_2 N2_4 1_555 1_555
H26_2 C50_2 1_555 1_555
C31_2 C32_2 1_555 1_555
C37_2 C38_2 1_555 1_555
C43_2 C44_2 1_555 1_555
C46_2 C47_2 1_555 1_555
C46_2 C49_2 1_555 1_555
C49_2 C50_2 1_555 1_555
N3_3 In2_6 1_555 1_555
O19 C70_2 1_555 1_555
O23 C70_2 1_555 1_555
O26_2 C51_2 1_555 1_555
O28_2 C51_2 1_555 1_555
N4_4 In2_6 1_555 1_555
C51_2 C52_2 1_555 1_555
C52_2 C53_2 1_555 1_555
C53_2 H27_2 1_555 1_555
C54_2 C53_2 1_555 1_555
H28_2 C54_2 1_555 1_555
C55_2 C54_2 1_555 1_555
C56_2 C55_2 1_555 1_555
H29_2 C56_2 1_555 1_555
C57_2 C52_2 1_555 1_555
H30_2 C57_2 1_555 1_555
C58_2 C55_2 1_555 1_555
C59_2 C58_2 1_555 1_555
H31_2 C59_2 1_555 1_555
C60_2 C59_2 1_555 1_555
C61_2 C60_2 1_555 1_555
H32_2 C61_2 1_555 1_555
C62_2 C61_2 1_555 1_555
C63_2 C58_2 1_555 1_555
H33_2 C63_2 1_555 1_555
C64_2 C60_2 1_555 1_555
C65_2 C64_2 1_555 1_555
H34_2 C65_2 1_555 1_555
C66_2 C65_2 1_555 1_555
H35_2 C66_2 1_555 1_555
C67_2 C66_2 1_555 1_555
C68_2 C67_2 1_555 1_555
H36_2 C68_2 1_555 1_555
C69_2 C64_2 1_555 1_555
H37_2 C69_2 1_555 1_555
C70_2 C67_2 1_555 1_555
C71_2 C62_2 1_555 1_555
C72_2 N3_3 1_555 1_555
H38_2 C73_2 1_555 1_555
C74_2 N4_4 1_555 1_555
C75_2 C74_2 1_555 1_555
H39_2 C75_2 1_555 1_555
C56_2 C57_2 1_555 1_555
C62_2 C63_2 1_555 1_555
C68_2 C69_2 1_555 1_555
C71_2 C72_2 1_555 1_555
C71_2 C74_2 1_555 1_555
C72_2 C73_2 1_555 1_555

#END
