
###############################################################################
#
# This file contains modified crystal structure data generated from the
# MOF subset of the Cambridge Structural Database (CSD) v543 
# hosted by the Cambridge Crystallographic Data Centre (CCDC).
#
# This work is licensed under the Creative Commons
# Attribution-NonCommercial-ShareAlike 4.0 International License.
# To view a copy of this license, visit
# http://creativecommons.org/licenses/by-nc-sa/4.0/
# or send a letter to
# Creative Commons, PO Box 1866, Mountain View, CA 94042, USA.
#
# CIF created using the CSD Python API on 29 September 2022
# The structure has been converted into the P1 space group
# The structure has a 3D framework
# The original CSD entry UQOPUO is in the monoclinic crystal system
# The framework has been calculated to contain at least 10.0% void space
# The void calculation uses a probe of radius 1.32A, grid spacing 0.4
# H atom positions have been added when not included in the experimental data
#
###############################################################################

data_UQOPUO
_chemical_formula_moiety         '(C108 H144 Co8 O72 P16)n'
_symmetry_cell_setting           triclinic
_symmetry_space_group_name_H-M   'P 1'
_symmetry_Int_Tables_number      1
_space_group_name_Hall           'P 1'
loop_
_symmetry_equiv_pos_site_id
_symmetry_equiv_pos_as_xyz
1 x,y,z
_cell_length_a                   29.364(8)
_cell_length_b                   12.204(4)
_cell_length_c                   9.925(3)
_cell_angle_alpha                90
_cell_angle_beta                 97.405(12)
_cell_angle_gamma                90
_cell_volume                     3527.04
loop_
_atom_site_label
_atom_site_type_symbol
_atom_site_fract_x
_atom_site_fract_y
_atom_site_fract_z
O12 O 0.66321(15) 0.0751(4) 0.1373(4)
H18 H 0.6828 0.1076 0.1922
H24 H 0.6182 0.2741 0.0754
Co5 Co 0.73806(3) 0.30265(7) 0.13889(8)
O22 O 0.28744(14) 0.8202(4) 0.0061(4)
H34 H 0.286373 0.523021 0.000506963
Co1 Co 0.26194(3) 0.69735(7) 0.86111(8)
P1 P 0.32797(6) 0.10169(14) 0.51282(15)
P2 P 0.32029(6) 0.70549(14) 0.59686(15)
O1 O 0.28744(14) 0.1798(4) 0.5061(4)
O2 O 0.30531(15) 0.7493(4) 0.7268(4)
H1 H 0.3237(16) 0.802(4) 0.756(4)
O3 O 0.30414(15) 0.5897(4) 0.9834(4)
H2 H 0.3282 0.5707 0.9426
O4 O 0.33679(15) 0.0751(4) 0.3627(4)
H3 H 0.3172 0.1076 0.3078
O5 O 0.32995(16) 0.8020(4) 0.5020(4)
H4 H 0.3273 0.8617 0.5423
O6 O 0.28757(15) 0.6258(4) 0.5208(4)
H5 H 0.3320 0.0039 0.6681
O8 O 0.21119(16) 0.8051(4) 0.7531(5)
H6 H 0.2244 0.8680 0.7341
O9 O 0.24122(17) 0.5654(4) 0.7328(5)
H7 H 0.2119 0.5512 0.7356
H8 H 0.2552 0.5052 0.7641
C1 C 0.4012(2) 0.1455(6) 0.7129(7)
H9 H 0.3888 0.0906 0.7655
C2 C 0.3746(2) 0.6390(5) 0.6419(6)
C3 C 0.3787(2) 0.1727(5) 0.5863(7)
C4 C 0.3772(2) 0.5514(6) 0.7348(7)
H10 H 0.3505 0.5305 0.7731
C5 C 0.4171(2) 0.4960(6) 0.7709(7)
H11 H 0.4179 0.4376 0.8344
C6 C 0.4584(2) 0.2839(6) 0.6927(7)
C7 C 0.5000 0.3475(9) 0.7500
C8 C 0.4570(2) 0.5245(6) 0.7153(7)
C9 C 0.3967(2) 0.2558(6) 0.5124(7)
H12 H 0.3818 0.2741 0.4246
C10 C 0.5000 0.4601(9) 0.7500
C11 C 0.4140(2) 0.6686(6) 0.5922(7)
H13 H 0.4133 0.7285 0.5309
C12 C 0.4355(2) 0.3117(6) 0.5645(7)
H14 H 0.4469 0.3692 0.5137
C13 C 0.4419(2) 0.1976(6) 0.7639(7)
H15 H 0.4584 0.1743 0.8476
C14 C 0.4552(2) 0.6135(6) 0.6288(8)
H16 H 0.4822 0.6373 0.5941
P3 P 0.67203(6) 0.10169(14) 0.98718(15)
P4 P 0.67971(6) 0.70549(14) 0.90314(15)
O10 O 0.71256(14) 0.1798(4) 0.9939(4)
O11 O 0.69469(15) 0.7493(4) 0.7732(4)
H17 H 0.6763(16) 0.802(4) 0.744(4)
O13 O 0.67005(16) 0.8020(4) 0.9980(4)
H19 H 0.6727 0.8617 0.9577
O14 O 0.71243(15) 0.6258(4) 0.9792(4)
H20 H 0.6680 0.0039 0.8319
C15 C 0.5988(2) 0.1455(6) 0.7871(7)
H21 H 0.6112 0.0906 0.7345
C16 C 0.6254(2) 0.6390(5) 0.8581(6)
C17 C 0.6213(2) 0.1727(5) 0.9137(7)
C18 C 0.6228(2) 0.5514(6) 0.7652(7)
H22 H 0.6495 0.5305 0.7269
C19 C 0.5829(2) 0.4960(6) 0.7291(7)
H23 H 0.5821 0.4376 0.6656
C20 C 0.5416(2) 0.2839(6) 0.8073(7)
C21 C 0.5430(2) 0.5245(6) 0.7847(7)
C22 C 0.6033(2) 0.2558(6) 0.9876(7)
C23 C 0.5860(2) 0.6686(6) 0.9078(7)
H25 H 0.5867 0.7285 0.9691
C24 C 0.5645(2) 0.3117(6) 0.9355(7)
H26 H 0.5531 0.3692 0.9863
C25 C 0.5581(2) 0.1976(6) 0.7361(7)
H27 H 0.5416 0.1743 0.6524
C26 C 0.5448(2) 0.6135(6) 0.8712(8)
H28 H 0.5178 0.6373 0.9059
Co2 Co 0.73806(3) 0.69735(7) 0.63889(8)
O16 O 0.69586(15) 0.5897(4) 0.5166(4)
H29 H 0.6718 0.5707 0.5574
O17 O 0.78881(16) 0.8051(4) 0.7469(5)
H30 H 0.7756 0.8680 0.7659
O18 O 0.75878(17) 0.5654(4) 0.7672(5)
H31 H 0.7881 0.5512 0.7644
H32 H 0.7448 0.5052 0.7359
Co3 Co 0.76194(3) 0.19735(7) 0.86111(8)
Co4 Co 0.23806(3) 0.19735(7) 0.63889(8)
Co6 Co 0.26194(3) 0.30265(7) 0.36111(8)
O19 O 0.78744(14) 0.6798(4) 0.5061(4)
O20 O 0.21256(14) 0.6798(4) 0.9939(4)
O21 O 0.71256(14) 0.8202(4) 0.4939(4)
H33 H 0.186588 0.820011 0.810532
H35 H 0.813412 0.820011 0.689468
H36 H 0.713627 0.523021 0.499493
P4_2 P 0.17971(6) 0.20549(14) 0.90314(15)
O11_2 O 0.19469(15) 0.2493(4) 0.7732(4)
H17_2 H 0.1763(16) 0.302(4) 0.744(4)
O13_2 O 0.17005(16) 0.3020(4) 0.9980(4)
H19_2 H 0.1727 0.3617 0.9577
O14_2 O 0.21243(15) 0.1258(4) 0.9792(4)
C16_2 C 0.1254(2) 0.1390(5) 0.8581(6)
C18_2 C 0.1228(2) 0.0514(6) 0.7652(7)
H22_2 H 0.1495 0.0305 0.7269
C21_2 C 0.0430(2) 0.0245(6) 0.7847(7)
C23_2 C 0.0860(2) 0.1686(6) 0.9078(7)
H25_2 H 0.0867 0.2285 0.9691
C26_2 C 0.0448(2) 0.1135(6) 0.8712(8)
H28_2 H 0.0178 0.1373 0.9059
O16_2 O 0.19586(15) 0.0897(4) 0.5166(4)
H29_2 H 0.1718 0.0707 0.5574
O17_2 O 0.28881(16) 0.3051(4) 0.7469(5)
H30_2 H 0.2756 0.3680 0.7659
O18_2 O 0.25878(17) 0.0654(4) 0.7672(5)
H31_2 H 0.2881 0.0512 0.7644
H32_2 H 0.2448 0.0052 0.7359
O21_2 O 0.21256(14) 0.3202(4) 0.4939(4)
H35_2 H 0.313412 0.320011 0.689468
H36_2 H 0.213627 0.0230207 0.499493
O12_2 O 0.16321(15) 0.5751(4) 0.1373(4)
H18_2 H 0.1828 0.6076 0.1922
H24_2 H 0.1182 0.7741 0.0754
Co5_2 Co 0.23806(3) 0.80265(7) 0.13889(8)
C7_2 C -0.0000 0.8475(9) 0.7500
C10_2 C -0.0000 0.9601(9) 0.7500
P3_2 P 0.17203(6) 0.60169(14) 0.98718(15)
O15 O 0.17781(15) 0.4965(4) 0.9147(4)
H20_2 H 0.1680 0.5039 0.8319
C15_2 C 0.0988(2) 0.6455(6) 0.7871(7)
H21_2 H 0.1112 0.5906 0.7345
C17_2 C 0.1213(2) 0.6727(5) 0.9137(7)
C19_2 C 0.0829(2) 0.9960(6) 0.7291(7)
H23_2 H 0.0821 0.9376 0.6656
C20_2 C 0.0416(2) 0.7839(6) 0.8073(7)
C22_2 C 0.1033(2) 0.7558(6) 0.9876(7)
C24_2 C 0.0645(2) 0.8117(6) 0.9355(7)
H26_2 H 0.0531 0.8692 0.9863
C25_2 C 0.0581(2) 0.6976(6) 0.7361(7)
H27_2 H 0.0416 0.6743 0.6524
O22_2 O 0.78744(14) 0.3202(4) 0.0061(4)
H34_2 H 0.786373 0.0230207 0.000506963
P2_2 P 0.82029(6) 0.20549(14) 0.59686(15)
O2_2 O 0.80531(15) 0.2493(4) 0.7268(4)
H1_2 H 0.8237(16) 0.302(4) 0.756(4)
O3_2 O 0.80414(15) 0.0897(4) 0.9834(4)
H2_2 H 0.8282 0.0707 0.9426
O5_2 O 0.82995(16) 0.3020(4) 0.5020(4)
H4_2 H 0.8273 0.3617 0.5423
O6_2 O 0.78757(15) 0.1258(4) 0.5208(4)
O8_2 O 0.71119(16) 0.3051(4) 0.7531(5)
H6_2 H 0.7244 0.3680 0.7341
O9_2 O 0.74122(17) 0.0654(4) 0.7328(5)
H7_2 H 0.7119 0.0512 0.7356
H8_2 H 0.7552 0.0052 0.7641
C2_2 C 0.8746(2) 0.1390(5) 0.6419(6)
C4_2 C 0.8772(2) 0.0514(6) 0.7348(7)
H10_2 H 0.8505 0.0305 0.7731
C8_2 C 0.9570(2) 0.0245(6) 0.7153(7)
C11_2 C 0.9140(2) 0.1686(6) 0.5922(7)
H13_2 H 0.9133 0.2285 0.5309
C14_2 C 0.9552(2) 0.1135(6) 0.6288(8)
H16_2 H 0.9822 0.1373 0.5941
H33_2 H 0.686588 0.320011 0.810532
P1_2 P 0.82797(6) 0.60169(14) 0.51282(15)
O4_2 O 0.83679(15) 0.5751(4) 0.3627(4)
H3_2 H 0.8172 0.6076 0.3078
O7 O 0.82219(15) 0.4965(4) 0.5853(4)
H5_2 H 0.8320 0.5039 0.6681
C1_2 C 0.9012(2) 0.6455(6) 0.7129(7)
H9_2 H 0.8888 0.5906 0.7655
C3_2 C 0.8787(2) 0.6727(5) 0.5863(7)
C5_2 C 0.9171(2) 0.9960(6) 0.7709(7)
H11_2 H 0.9179 0.9376 0.8344
C6_2 C 0.9584(2) 0.7839(6) 0.6927(7)
C7_3 C 1.0000 0.8475(9) 0.7500
C9_2 C 0.8967(2) 0.7558(6) 0.5124(7)
H12_2 H 0.8818 0.7741 0.4246
C10_3 C 1.0000 0.9601(9) 0.7500
C12_2 C 0.9355(2) 0.8117(6) 0.5645(7)
H14_2 H 0.9469 0.8692 0.5137
C13_2 C 0.9419(2) 0.6976(6) 0.7639(7)
H15_2 H 0.9584 0.6743 0.8476
Co6_2 Co 0.76194(3) 0.80265(7) 0.36111(8)
P1_3 P 0.67203(6) 0.89831(14) 0.48718(15)
P2_3 P 0.67971(6) 0.29451(14) 0.40314(15)
O2_3 O 0.69469(15) 0.2507(4) 0.2732(4)
H1_3 H 0.6763(16) 0.198(4) 0.244(4)
O3_3 O 0.69586(15) 0.4103(4) 0.0166(4)
H2_3 H 0.6718 0.4293 0.0574
O4_3 O 0.66321(15) 0.9249(4) 0.6373(4)
H3_3 H 0.6828 0.8924 0.6922
O5_3 O 0.67005(16) 0.1980(4) 0.4980(4)
H4_3 H 0.6727 0.1383 0.4577
O6_3 O 0.71243(15) 0.3742(4) 0.4792(4)
H5_3 H 0.6680 0.9961 0.3319
O8_3 O 0.78881(16) 0.1949(4) 0.2469(5)
H6_3 H 0.7756 0.1320 0.2659
O9_3 O 0.75878(17) 0.4346(4) 0.2672(5)
H7_3 H 0.7881 0.4488 0.2644
H8_3 H 0.7448 0.4948 0.2359
C1_3 C 0.5988(2) 0.8545(6) 0.2871(7)
H9_3 H 0.6112 0.9094 0.2345
C2_3 C 0.6254(2) 0.3610(5) 0.3581(6)
C3_3 C 0.6213(2) 0.8273(5) 0.4137(7)
C4_3 C 0.6228(2) 0.4486(6) 0.2652(7)
H10_3 H 0.6495 0.4695 0.2269
C5_3 C 0.5829(2) 0.5040(6) 0.2291(7)
H11_3 H 0.5821 0.5624 0.1656
C6_3 C 0.5416(2) 0.7161(6) 0.3073(7)
C7_4 C 0.5000 0.6525(9) 0.2500
C8_3 C 0.5430(2) 0.4755(6) 0.2847(7)
C9_3 C 0.6033(2) 0.7442(6) 0.4876(7)
H12_3 H 0.6182 0.7259 0.5754
C10_4 C 0.5000 0.5399(9) 0.2500
C11_3 C 0.5860(2) 0.3314(6) 0.4078(7)
H13_3 H 0.5867 0.2715 0.4691
C12_3 C 0.5645(2) 0.6883(6) 0.4355(7)
H14_3 H 0.5531 0.6308 0.4863
C13_3 C 0.5581(2) 0.8024(6) 0.2361(7)
H15_3 H 0.5416 0.8257 0.1524
C14_3 C 0.5448(2) 0.3865(6) 0.3712(8)
H16_3 H 0.5178 0.3627 0.4059
P3_3 P 0.32797(6) 0.89831(14) 0.01282(15)
P4_3 P 0.32029(6) 0.29451(14) 0.09686(15)
O11_3 O 0.30531(15) 0.2507(4) 0.2268(4)
H17_3 H 0.3237(16) 0.198(4) 0.256(4)
O13_3 O 0.32995(16) 0.1980(4) 0.0020(4)
H19_3 H 0.3273 0.1383 0.0423
O14_3 O 0.28757(15) 0.3742(4) 0.0208(4)
H20_3 H 0.3320 0.9961 0.1681
C15_3 C 0.4012(2) 0.8545(6) 0.2129(7)
H21_3 H 0.3888 0.9094 0.2655
C16_3 C 0.3746(2) 0.3610(5) 0.1419(6)
C17_3 C 0.3787(2) 0.8273(5) 0.0863(7)
C18_3 C 0.3772(2) 0.4486(6) 0.2348(7)
H22_3 H 0.3505 0.4695 0.2731
C19_3 C 0.4171(2) 0.5040(6) 0.2709(7)
H23_3 H 0.4179 0.5624 0.3344
C20_3 C 0.4584(2) 0.7161(6) 0.1927(7)
C21_3 C 0.4570(2) 0.4755(6) 0.2153(7)
C22_3 C 0.3967(2) 0.7442(6) 0.0124(7)
C23_3 C 0.4140(2) 0.3314(6) 0.0922(7)
H25_3 H 0.4133 0.2715 0.0309
C24_3 C 0.4355(2) 0.6883(6) 0.0645(7)
H26_3 H 0.4469 0.6308 0.0137
C25_3 C 0.4419(2) 0.8024(6) 0.2639(7)
H27_3 H 0.4584 0.8257 0.3476
C26_3 C 0.4552(2) 0.3865(6) 0.1288(8)
H28_3 H 0.4822 0.3627 0.0941
O16_3 O 0.30414(15) 0.4103(4) 0.4834(4)
H29_3 H 0.3282 0.4293 0.4426
O17_3 O 0.21119(16) 0.1949(4) 0.2531(5)
H30_3 H 0.2244 0.1320 0.2341
O18_3 O 0.24122(17) 0.4346(4) 0.2328(5)
H31_3 H 0.2119 0.4488 0.2356
H32_3 H 0.2552 0.4948 0.2641
H33_3 H 0.813412 0.179989 0.189468
H35_3 H 0.186588 0.179989 0.310532
H36_3 H 0.286373 0.476979 0.500507
O12_3 O 0.33679(15) 0.9249(4) 0.8627(4)
H18_3 H 0.3172 0.8924 0.8078
H24_3 H 0.3818 0.7259 0.9246
H34_3 H 0.713627 0.476979 0.999493
P1_4 P 0.17203(6) 0.39831(14) 0.48718(15)
O4_4 O 0.16321(15) 0.4249(4) 0.6373(4)
H3_4 H 0.1828 0.3924 0.6922
O7_2 O 0.17781(15) 0.5035(4) 0.4147(4)
H5_4 H 0.1680 0.4961 0.3319
C1_4 C 0.0988(2) 0.3545(6) 0.2871(7)
H9_4 H 0.1112 0.4094 0.2345
C3_4 C 0.1213(2) 0.3273(5) 0.4137(7)
C5_4 C 0.0829(2) 0.0040(6) 0.2291(7)
H11_4 H 0.0821 0.0624 0.1656
C6_4 C 0.0416(2) 0.2161(6) 0.3073(7)
C7_5 C 0.0000 0.1525(9) 0.2500
C9_4 C 0.1033(2) 0.2442(6) 0.4876(7)
H12_4 H 0.1182 0.2259 0.5754
C10_5 C 0.0000 0.0399(9) 0.2500
C12_4 C 0.0645(2) 0.1883(6) 0.4355(7)
H14_4 H 0.0531 0.1308 0.4863
C13_4 C 0.0581(2) 0.3024(6) 0.2361(7)
H15_4 H 0.0416 0.3257 0.1524
P2_4 P 0.17971(6) 0.79451(14) 0.40314(15)
O2_4 O 0.19469(15) 0.7507(4) 0.2732(4)
H1_4 H 0.1763(16) 0.698(4) 0.244(4)
O3_4 O 0.19586(15) 0.9103(4) 0.0166(4)
H2_4 H 0.1718 0.9293 0.0574
O5_4 O 0.17005(16) 0.6980(4) 0.4980(4)
H4_4 H 0.1727 0.6383 0.4577
O6_4 O 0.21243(15) 0.8742(4) 0.4792(4)
O8_4 O 0.28881(16) 0.6949(4) 0.2469(5)
H6_4 H 0.2756 0.6320 0.2659
O9_4 O 0.25878(17) 0.9346(4) 0.2672(5)
H7_4 H 0.2881 0.9488 0.2644
H8_4 H 0.2448 0.9948 0.2359
C2_4 C 0.1254(2) 0.8610(5) 0.3581(6)
C4_4 C 0.1228(2) 0.9486(6) 0.2652(7)
H10_4 H 0.1495 0.9695 0.2269
C8_4 C 0.0430(2) 0.9755(6) 0.2847(7)
C11_4 C 0.0860(2) 0.8314(6) 0.4078(7)
H13_4 H 0.0867 0.7715 0.4691
C14_4 C 0.0448(2) 0.8865(6) 0.3712(8)
H16_4 H 0.0178 0.8627 0.4059
H33_4 H 0.313412 0.679989 0.189468
H34_4 H 0.213627 0.976979 0.999493
C7_6 C 1.0000 0.1525(9) 0.2500
C10_6 C 1.0000 0.0399(9) 0.2500
P3_4 P 0.82797(6) 0.39831(14) 0.01282(15)
O15_2 O 0.82219(15) 0.5035(4) 0.0853(4)
H20_4 H 0.8320 0.4961 0.1681
C15_4 C 0.9012(2) 0.3545(6) 0.2129(7)
H21_4 H 0.8888 0.4094 0.2655
C17_4 C 0.8787(2) 0.3273(5) 0.0863(7)
C19_4 C 0.9171(2) 0.0040(6) 0.2709(7)
H23_4 H 0.9179 0.0624 0.3344
C20_4 C 0.9584(2) 0.2161(6) 0.1927(7)
C22_4 C 0.8967(2) 0.2442(6) 0.0124(7)
C24_4 C 0.9355(2) 0.1883(6) 0.0645(7)
H26_4 H 0.9469 0.1308 0.0137
C25_4 C 0.9419(2) 0.3024(6) 0.2639(7)
H27_4 H 0.9584 0.3257 0.3476
O12_4 O 0.83679(15) 0.4249(4) 0.8627(4)
H18_4 H 0.8172 0.3924 0.8078
H24_4 H 0.8818 0.2259 0.9246
P4_4 P 0.82029(6) 0.79451(14) 0.09686(15)
O11_4 O 0.80531(15) 0.7507(4) 0.2268(4)
H17_4 H 0.8237(16) 0.698(4) 0.256(4)
O13_4 O 0.82995(16) 0.6980(4) 0.0020(4)
H19_4 H 0.8273 0.6383 0.0423
O14_4 O 0.78757(15) 0.8742(4) 0.0208(4)
C16_4 C 0.8746(2) 0.8610(5) 0.1419(6)
C18_4 C 0.8772(2) 0.9486(6) 0.2348(7)
H22_4 H 0.8505 0.9695 0.2731
C21_4 C 0.9570(2) 0.9755(6) 0.2153(7)
C23_4 C 0.9140(2) 0.8314(6) 0.0922(7)
H25_4 H 0.9133 0.7715 0.0309
C26_4 C 0.9552(2) 0.8865(6) 0.1288(8)
H28_4 H 0.9822 0.8627 0.0941
O16_4 O 0.80414(15) 0.9103(4) 0.4834(4)
H29_4 H 0.8282 0.9293 0.4426
O17_4 O 0.71119(16) 0.6949(4) 0.2531(5)
H30_4 H 0.7244 0.6320 0.2341
O18_4 O 0.74122(17) 0.9346(4) 0.2328(5)
H31_4 H 0.7119 0.9488 0.2356
H32_4 H 0.7552 0.9948 0.2641
H35_4 H 0.686588 0.679989 0.310532
H36_4 H 0.786373 0.976979 0.500507
O7_3 O 0.32219(15) 0.9965(4) 0.5853(4)
O15_3 O 0.67781(15) 0.9965(4) 0.9147(4)
O7_4 O 0.67781(15) 0.0035(4) 0.4147(4)
O15_4 O 0.32219(15) 0.0035(4) 0.0853(4)
loop_
_geom_bond_atom_site_label_1
_geom_bond_atom_site_label_2
_geom_bond_site_symmetry_1
_geom_bond_site_symmetry_2
H18 O12 1_555 1_555
Co1 O2 1_555 1_555
P1 O1 1_555 1_555
P2 O2 1_555 1_555
O1 Co4 1_555 1_555
O2 H1 1_555 1_555
O3 Co1 1_555 1_555
H2 O3 1_555 1_555
O4 P1 1_555 1_555
H3 O4 1_555 1_555
O5 P2 1_555 1_555
H4 O5 1_555 1_555
O6 P2 1_555 1_555
O8 Co1 1_555 1_555
H6 O8 1_555 1_555
O9 Co1 1_555 1_555
H7 O9 1_555 1_555
H8 O9 1_555 1_555
C1 H9 1_555 1_555
C2 P2 1_555 1_555
C3 P1 1_555 1_555
C4 C2 1_555 1_555
H10 C4 1_555 1_555
C5 C4 1_555 1_555
H11 C5 1_555 1_555
C6 C7 1_555 1_555
C7 C10 1_555 1_555
C8 C5 1_555 1_555
C9 C3 1_555 1_555
H12 C9 1_555 1_555
C10 C8 1_555 1_555
C11 C2 1_555 1_555
H13 C11 1_555 1_555
C12 C6 1_555 1_555
H14 C12 1_555 1_555
C13 C1 1_555 1_555
H15 C13 1_555 1_555
C14 C8 1_555 1_555
H16 C14 1_555 1_555
P3 O10 1_555 1_555
P4 O11 1_555 1_555
O10 Co3 1_555 1_555
O11 H17 1_555 1_555
O13 P4 1_555 1_555
H19 O13 1_555 1_555
O14 P4 1_555 1_555
C15 H21 1_555 1_555
C16 P4 1_555 1_555
C17 P3 1_555 1_555
C18 C16 1_555 1_555
H22 C18 1_555 1_555
C19 C18 1_555 1_555
H23 C19 1_555 1_555
C20 C7 1_555 1_555
C21 C10 1_555 1_555
C22 C17 1_555 1_555
C23 C16 1_555 1_555
H25 C23 1_555 1_555
C24 C20 1_555 1_555
H26 C24 1_555 1_555
C25 C15 1_555 1_555
H27 C25 1_555 1_555
C26 C21 1_555 1_555
H28 C26 1_555 1_555
Co2 O11 1_555 1_555
O16 Co2 1_555 1_555
H29 O16 1_555 1_555
O17 Co2 1_555 1_555
H30 O17 1_555 1_555
O18 Co2 1_555 1_555
H31 O18 1_555 1_555
H32 O18 1_555 1_555
Co6 O1 1_555 1_555
O19 Co2 1_555 1_555
O20 Co1 1_555 1_555
O21 Co2 1_555 1_555
C1 C3 1_555 1_555
C6 C13 1_555 1_555
C9 C12 1_555 1_555
C11 C14 1_555 1_555
C15 C17 1_555 1_555
C19 C21 1_555 1_555
C20 C25 1_555 1_555
C22 C24 1_555 1_555
C23 C26 1_555 1_555
O8 H33 1_555 1_555
O17 H35 1_555 1_555
O16 H36 1_555 1_555
P4_2 O11_2 1_555 1_555
O11_2 H17_2 1_555 1_555
O13_2 P4_2 1_555 1_555
H19_2 O13_2 1_555 1_555
O14_2 P4_2 1_555 1_555
C16_2 P4_2 1_555 1_555
C18_2 C16_2 1_555 1_555
H22_2 C18_2 1_555 1_555
C23_2 C16_2 1_555 1_555
H25_2 C23_2 1_555 1_555
C26_2 C21_2 1_555 1_555
H28_2 C26_2 1_555 1_555
Co4 O11_2 1_555 1_555
O16_2 Co4 1_555 1_555
H29_2 O16_2 1_555 1_555
O17_2 Co4 1_555 1_555
H30_2 O17_2 1_555 1_555
O18_2 Co4 1_555 1_555
H31_2 O18_2 1_555 1_555
H32_2 O18_2 1_555 1_555
O21_2 Co4 1_555 1_555
C23_2 C26_2 1_555 1_555
O17_2 H35_2 1_555 1_555
O16_2 H36_2 1_555 1_555
H18_2 O12_2 1_555 1_555
C7_2 C10_2 1_555 1_555
P3_2 O20 1_555 1_555
O15 P3_2 1_555 1_555
H20_2 O15 1_555 1_555
C15_2 H21_2 1_555 1_555
C17_2 P3_2 1_555 1_555
H23_2 C19_2 1_555 1_555
C20_2 C7_2 1_555 1_555
C22_2 C17_2 1_555 1_555
C24_2 C20_2 1_555 1_555
H26_2 C24_2 1_555 1_555
C25_2 C15_2 1_555 1_555
H27_2 C25_2 1_555 1_555
C15_2 C17_2 1_555 1_555
C20_2 C25_2 1_555 1_555
C22_2 C24_2 1_555 1_555
Co3 O2_2 1_555 1_555
P2_2 O2_2 1_555 1_555
O2_2 H1_2 1_555 1_555
O3_2 Co3 1_555 1_555
H2_2 O3_2 1_555 1_555
O5_2 P2_2 1_555 1_555
H4_2 O5_2 1_555 1_555
O6_2 P2_2 1_555 1_555
O8_2 Co3 1_555 1_555
H6_2 O8_2 1_555 1_555
O9_2 Co3 1_555 1_555
H7_2 O9_2 1_555 1_555
H8_2 O9_2 1_555 1_555
C2_2 P2_2 1_555 1_555
C4_2 C2_2 1_555 1_555
H10_2 C4_2 1_555 1_555
C11_2 C2_2 1_555 1_555
H13_2 C11_2 1_555 1_555
C14_2 C8_2 1_555 1_555
H16_2 C14_2 1_555 1_555
C11_2 C14_2 1_555 1_555
O8_2 H33_2 1_555 1_555
P1_2 O19 1_555 1_555
O4_2 P1_2 1_555 1_555
H3_2 O4_2 1_555 1_555
O7 P1_2 1_555 1_555
H5_2 O7 1_555 1_555
C1_2 H9_2 1_555 1_555
C3_2 P1_2 1_555 1_555
H11_2 C5_2 1_555 1_555
C6_2 C7_3 1_555 1_555
C7_3 C10_3 1_555 1_555
C9_2 C3_2 1_555 1_555
H12_2 C9_2 1_555 1_555
C12_2 C6_2 1_555 1_555
H14_2 C12_2 1_555 1_555
C13_2 C1_2 1_555 1_555
H15_2 C13_2 1_555 1_555
Co6_2 O19 1_555 1_555
C1_2 C3_2 1_555 1_555
C6_2 C13_2 1_555 1_555
C9_2 C12_2 1_555 1_555
Co5 O2_3 1_555 1_555
P1_3 O21 1_555 1_555
P2_3 O2_3 1_555 1_555
O21 Co6_2 1_555 1_555
O2_3 H1_3 1_555 1_555
O3_3 Co5 1_555 1_555
H2_3 O3_3 1_555 1_555
O4_3 P1_3 1_555 1_555
H3_3 O4_3 1_555 1_555
O5_3 P2_3 1_555 1_555
H4_3 O5_3 1_555 1_555
O6_3 P2_3 1_555 1_555
O8_3 Co5 1_555 1_555
H6_3 O8_3 1_555 1_555
O9_3 Co5 1_555 1_555
H7_3 O9_3 1_555 1_555
H8_3 O9_3 1_555 1_555
C1_3 H9_3 1_555 1_555
C2_3 P2_3 1_555 1_555
C3_3 P1_3 1_555 1_555
C4_3 C2_3 1_555 1_555
H10_3 C4_3 1_555 1_555
C5_3 C4_3 1_555 1_555
H11_3 C5_3 1_555 1_555
C6_3 C7_4 1_555 1_555
C7_4 C10_4 1_555 1_555
C8_3 C5_3 1_555 1_555
C9_3 C3_3 1_555 1_555
H12_3 C9_3 1_555 1_555
C10_4 C8_3 1_555 1_555
C11_3 C2_3 1_555 1_555
H13_3 C11_3 1_555 1_555
C12_3 C6_3 1_555 1_555
H14_3 C12_3 1_555 1_555
C13_3 C1_3 1_555 1_555
H15_3 C13_3 1_555 1_555
C14_3 C8_3 1_555 1_555
H16_3 C14_3 1_555 1_555
P3_3 O22 1_555 1_555
P4_3 O11_3 1_555 1_555
O22 Co5_2 1_555 1_555
O11_3 H17_3 1_555 1_555
O13_3 P4_3 1_555 1_555
H19_3 O13_3 1_555 1_555
O14_3 P4_3 1_555 1_555
C15_3 H21_3 1_555 1_555
C16_3 P4_3 1_555 1_555
C17_3 P3_3 1_555 1_555
C18_3 C16_3 1_555 1_555
H22_3 C18_3 1_555 1_555
C19_3 C18_3 1_555 1_555
H23_3 C19_3 1_555 1_555
C20_3 C7_4 1_555 1_555
C21_3 C10_4 1_555 1_555
C22_3 C17_3 1_555 1_555
C23_3 C16_3 1_555 1_555
H25_3 C23_3 1_555 1_555
C24_3 C20_3 1_555 1_555
H26_3 C24_3 1_555 1_555
C25_3 C15_3 1_555 1_555
H27_3 C25_3 1_555 1_555
C26_3 C21_3 1_555 1_555
H28_3 C26_3 1_555 1_555
Co6 O11_3 1_555 1_555
O16_3 Co6 1_555 1_555
H29_3 O16_3 1_555 1_555
O17_3 Co6 1_555 1_555
H30_3 O17_3 1_555 1_555
O18_3 Co6 1_555 1_555
H31_3 O18_3 1_555 1_555
H32_3 O18_3 1_555 1_555
O21_2 Co6 1_555 1_555
O22_2 Co5 1_555 1_555
C1_3 C3_3 1_555 1_555
C6_3 C13_3 1_555 1_555
C9_3 C12_3 1_555 1_555
C11_3 C14_3 1_555 1_555
C15_3 C17_3 1_555 1_555
C19_3 C21_3 1_555 1_555
C20_3 C25_3 1_555 1_555
C22_3 C24_3 1_555 1_555
C23_3 C26_3 1_555 1_555
O8_3 H33_3 1_555 1_555
O17_3 H35_3 1_555 1_555
O16_3 H36_3 1_555 1_555
H18_3 O12_3 1_555 1_555
P1_4 O21_2 1_555 1_555
O4_4 P1_4 1_555 1_555
H3_4 O4_4 1_555 1_555
O7_2 P1_4 1_555 1_555
H5_4 O7_2 1_555 1_555
C1_4 H9_4 1_555 1_555
C3_4 P1_4 1_555 1_555
H11_4 C5_4 1_555 1_555
C6_4 C7_5 1_555 1_555
C7_5 C10_5 1_555 1_555
C9_4 C3_4 1_555 1_555
H12_4 C9_4 1_555 1_555
C12_4 C6_4 1_555 1_555
H14_4 C12_4 1_555 1_555
C13_4 C1_4 1_555 1_555
H15_4 C13_4 1_555 1_555
C1_4 C3_4 1_555 1_555
C6_4 C13_4 1_555 1_555
C9_4 C12_4 1_555 1_555
Co5_2 O2_4 1_555 1_555
P2_4 O2_4 1_555 1_555
O2_4 H1_4 1_555 1_555
O3_4 Co5_2 1_555 1_555
H2_4 O3_4 1_555 1_555
O5_4 P2_4 1_555 1_555
H4_4 O5_4 1_555 1_555
O6_4 P2_4 1_555 1_555
O8_4 Co5_2 1_555 1_555
H6_4 O8_4 1_555 1_555
O9_4 Co5_2 1_555 1_555
H7_4 O9_4 1_555 1_555
H8_4 O9_4 1_555 1_555
C2_4 P2_4 1_555 1_555
C4_4 C2_4 1_555 1_555
H10_4 C4_4 1_555 1_555
C11_4 C2_4 1_555 1_555
H13_4 C11_4 1_555 1_555
C14_4 C8_4 1_555 1_555
H16_4 C14_4 1_555 1_555
C11_4 C14_4 1_555 1_555
O8_4 H33_4 1_555 1_555
C7_6 C10_6 1_555 1_555
P3_4 O22_2 1_555 1_555
O15_2 P3_4 1_555 1_555
H20_4 O15_2 1_555 1_555
C15_4 H21_4 1_555 1_555
C17_4 P3_4 1_555 1_555
H23_4 C19_4 1_555 1_555
C20_4 C7_6 1_555 1_555
C22_4 C17_4 1_555 1_555
C24_4 C20_4 1_555 1_555
H26_4 C24_4 1_555 1_555
C25_4 C15_4 1_555 1_555
H27_4 C25_4 1_555 1_555
C15_4 C17_4 1_555 1_555
C20_4 C25_4 1_555 1_555
C22_4 C24_4 1_555 1_555
H18_4 O12_4 1_555 1_555
P4_4 O11_4 1_555 1_555
O11_4 H17_4 1_555 1_555
O13_4 P4_4 1_555 1_555
H19_4 O13_4 1_555 1_555
O14_4 P4_4 1_555 1_555
C16_4 P4_4 1_555 1_555
C18_4 C16_4 1_555 1_555
H22_4 C18_4 1_555 1_555
C23_4 C16_4 1_555 1_555
H25_4 C23_4 1_555 1_555
C26_4 C21_4 1_555 1_555
H28_4 C26_4 1_555 1_555
Co6_2 O11_4 1_555 1_555
O16_4 Co6_2 1_555 1_555
H29_4 O16_4 1_555 1_555
O17_4 Co6_2 1_555 1_555
H30_4 O17_4 1_555 1_555
O18_4 Co6_2 1_555 1_555
H31_4 O18_4 1_555 1_555
H32_4 O18_4 1_555 1_555
C23_4 C26_4 1_555 1_555
O17_4 H35_4 1_555 1_555
O16_4 H36_4 1_555 1_555

#END
