
###############################################################################
#
# This file contains modified crystal structure data generated from the
# MOF subset of the Cambridge Structural Database (CSD) v543 
# hosted by the Cambridge Crystallographic Data Centre (CCDC).
#
# This work is licensed under the Creative Commons
# Attribution-NonCommercial-ShareAlike 4.0 International License.
# To view a copy of this license, visit
# http://creativecommons.org/licenses/by-nc-sa/4.0/
# or send a letter to
# Creative Commons, PO Box 1866, Mountain View, CA 94042, USA.
#
# CIF created using the CSD Python API on 29 September 2022
# The structure has been converted into the P1 space group
# The structure has a 3D framework
# The original CSD entry UQUCUG is in the tetragonal crystal system
# The framework has been calculated to contain at least 10.0% void space
# The void calculation uses a probe of radius 1.32A, grid spacing 0.4
# H atom positions have been added when not included in the experimental data
# Generated hydrogen atom positions removed from atoms on special positions
#
###############################################################################

data_UQUCUG
_chemical_formula_moiety         '(C116 H116 Gd1 N12 O36 S12 7+)n'
_symmetry_cell_setting           triclinic
_symmetry_space_group_name_H-M   'P 1'
_symmetry_Int_Tables_number      1
_space_group_name_Hall           'P 1'
loop_
_symmetry_equiv_pos_site_id
_symmetry_equiv_pos_as_xyz
1 x,y,z
_cell_length_a                   15.3873(18)
_cell_length_b                   15.3873(18)
_cell_length_c                   9.8582(14)
_cell_angle_alpha                90
_cell_angle_beta                 90
_cell_angle_gamma                90
_cell_volume                     2334.12
loop_
_atom_site_label
_atom_site_type_symbol
_atom_site_fract_x
_atom_site_fract_y
_atom_site_fract_z
H8 H 0.3345 0.0072 0.0000
C18 C 0.1994(4) 0.0257(3) 0.0000
S4 S 0.52522(7) 0.32110(7) 0.0000
N4 N 0.0320(3) 0.1298(3) 0.0000
O11 O 0.5852(2) 0.2552(2) 0.0000
C34 C 0.4181(3) 0.2643(3) 0.0000
C37 C 0.2744(3) 0.1709(2) 0.0000
C38 C 0.1881(3) 0.1197(3) 0.0000
C39 C 0.1154(3) 0.1657(3) 0.0000
C40 C 0.1058(3) 0.2611(4) 0.0000
H21 H 0.1508 0.3015 0.0000
C41 C 0.0181(4) 0.2796(4) 0.0000
O12 O 0.53088(17) 0.37425(18) 0.1239(2)
C43 C 0.3844(2) 0.2432(2) 0.1201(4)
H23 H 0.4093 0.2620 0.2010
C44 C 0.3133(2) 0.1937(2) 0.1184(4)
H24 H 0.2899 0.1743 0.1999
Gd8 Gd 0.5000 0.5000 0.2500
H8_2 H 0.3345 0.0072 1.0000
C18_2 C 0.1994(4) 0.0257(3) 1.0000
S4_2 S 0.52522(7) 0.32110(7) 1.0000
N4_2 N 0.0320(3) 0.1298(3) 1.0000
O10 O 0.53088(17) 0.37425(18) 0.8761(2)
O11_2 O 0.5852(2) 0.2552(2) 1.0000
C34_2 C 0.4181(3) 0.2643(3) 1.0000
C35 C 0.3844(2) 0.2432(2) 0.8799(4)
H19 H 0.4093 0.2620 0.7990
C36 C 0.3133(2) 0.1937(2) 0.8816(4)
H20 H 0.2899 0.1743 0.8001
C37_2 C 0.2744(3) 0.1709(2) 1.0000
C38_2 C 0.1881(3) 0.1197(3) 1.0000
C39_2 C 0.1154(3) 0.1657(3) 1.0000
C40_2 C 0.1058(3) 0.2611(4) 1.0000
H21_2 H 0.1508 0.3015 1.0000
C41_2 C 0.0181(4) 0.2796(4) 1.0000
Gd4 Gd 0.5000 0.5000 0.7500
H4 H 0.0072 0.6655 0.0000
C9 C 0.0257(3) 0.8006(4) 0.0000
S2 S 0.32110(7) 0.47478(7) 0.0000
N2 N 0.1298(3) 0.9680(3) 0.0000
O4 O 0.2552(2) 0.4148(2) 0.0000
C10 C 0.2643(3) 0.5819(3) 0.0000
C13 C 0.1709(2) 0.7256(3) 0.0000
C14 C 0.1197(3) 0.8119(3) 0.0000
C15 C 0.1657(3) 0.8846(3) 0.0000
C16 C 0.2611(4) 0.8942(3) 0.0000
H7 H 0.3015 0.8492 0.0000
C17 C 0.2796(4) 0.9819(4) 0.0000
O9 O 0.37425(18) 0.46912(17) 0.1239(2)
C32 C 0.2432(2) 0.6156(2) 0.1201(4)
H17 H 0.2620 0.5907 0.2010
C33 C 0.1937(2) 0.6867(2) 0.1184(4)
H18 H 0.1743 0.7101 0.1999
H29 H 0.0656659 0.983427 0
H4_2 H 0.0072 0.6655 1.0000
C9_2 C 0.0257(3) 0.8006(4) 1.0000
S2_2 S 0.32110(7) 0.47478(7) 1.0000
N2_2 N 0.1298(3) 0.9680(3) 1.0000
O3 O 0.37425(18) 0.46912(17) 0.8761(2)
O4_2 O 0.2552(2) 0.4148(2) 1.0000
C10_2 C 0.2643(3) 0.5819(3) 1.0000
C11 C 0.2432(2) 0.6156(2) 0.8799(4)
H5 H 0.2620 0.5907 0.7990
C12 C 0.1937(2) 0.6867(2) 0.8816(4)
H6 H 0.1743 0.7101 0.8001
C13_2 C 0.1709(2) 0.7256(3) 1.0000
C14_2 C 0.1197(3) 0.8119(3) 1.0000
C15_2 C 0.1657(3) 0.8846(3) 1.0000
C16_2 C 0.2611(4) 0.8942(3) 1.0000
H7_2 H 0.3015 0.8492 1.0000
C17_2 C 0.2796(4) 0.9819(4) 1.0000
H29_2 H 0.0656659 0.983427 1
S3 S 0.67890(7) 0.52522(7) 0.0000
N3 N 0.8702(3) 0.0320(3) 0.0000
O6 O 0.7448(2) 0.5852(2) 0.0000
C19 C 0.7357(3) 0.4181(3) 0.0000
C22 C 0.8291(2) 0.2744(3) 0.0000
C23 C 0.8803(3) 0.1881(3) 0.0000
C24 C 0.8343(3) 0.1154(3) 0.0000
C25 C 0.7389(4) 0.1058(3) 0.0000
H11 H 0.6985 0.1508 0.0000
C26 C 0.7204(4) 0.0181(4) 0.0000
O8 O 0.62575(18) 0.53088(17) 0.1239(2)
C30 C 0.7568(2) 0.3844(2) 0.1201(4)
H15 H 0.7380 0.4093 0.2010
C31 C 0.8063(2) 0.3133(2) 0.1184(4)
H16 H 0.8257 0.2899 0.1999
H22 H 0.9928 0.3345 0.0000
C42 C 0.9743(3) 0.1994(4) 0.0000
H25 H 0.934334 0.0165727 0
S3_2 S 0.67890(7) 0.52522(7) 1.0000
N3_2 N 0.8702(3) 0.0320(3) 1.0000
O5 O 0.62575(18) 0.53088(17) 0.8761(2)
O6_2 O 0.7448(2) 0.5852(2) 1.0000
C19_2 C 0.7357(3) 0.4181(3) 1.0000
C20 C 0.7568(2) 0.3844(2) 0.8799(4)
H9 H 0.7380 0.4093 0.7990
C21 C 0.8063(2) 0.3133(2) 0.8816(4)
H10 H 0.8257 0.2899 0.8001
C22_2 C 0.8291(2) 0.2744(3) 1.0000
C23_2 C 0.8803(3) 0.1881(3) 1.0000
C24_2 C 0.8343(3) 0.1154(3) 1.0000
C25_2 C 0.7389(4) 0.1058(3) 1.0000
H11_2 H 0.6985 0.1508 1.0000
C26_2 C 0.7204(4) 0.0181(4) 1.0000
H22_2 H 0.9928 0.3345 1.0000
C42_2 C 0.9743(3) 0.1994(4) 1.0000
H25_2 H 0.934334 0.0165727 1
S1 S 0.47478(7) 0.67890(7) 0.0000
N1 N 0.9680(3) 0.8702(3) 0.0000
O2 O 0.4148(2) 0.7448(2) 0.0000
C1 C 0.5819(3) 0.7357(3) 0.0000
C4 C 0.7256(3) 0.8291(2) 0.0000
C5 C 0.8119(3) 0.8803(3) 0.0000
C6 C 0.8846(3) 0.8343(3) 0.0000
C7 C 0.8942(3) 0.7389(4) 0.0000
H3 H 0.8492 0.6985 0.0000
C8 C 0.9819(4) 0.7204(4) 0.0000
H12 H 0.6655 0.9928 0.0000
C27 C 0.8006(4) 0.9743(3) 0.0000
O7 O 0.46912(17) 0.62575(18) 0.1239(2)
C28 C 0.6156(2) 0.7568(2) 0.1201(4)
H13 H 0.5907 0.7380 0.2010
C29 C 0.6867(2) 0.8063(2) 0.1184(4)
H14 H 0.7101 0.8257 0.1999
S1_2 S 0.47478(7) 0.67890(7) 1.0000
N1_2 N 0.9680(3) 0.8702(3) 1.0000
O1 O 0.46912(17) 0.62575(18) 0.8761(2)
O2_2 O 0.4148(2) 0.7448(2) 1.0000
C1_2 C 0.5819(3) 0.7357(3) 1.0000
C2 C 0.6156(2) 0.7568(2) 0.8799(4)
H1 H 0.5907 0.7380 0.7990
C3 C 0.6867(2) 0.8063(2) 0.8816(4)
H2 H 0.7101 0.8257 0.8001
C4_2 C 0.7256(3) 0.8291(2) 1.0000
C5_2 C 0.8119(3) 0.8803(3) 1.0000
C6_2 C 0.8846(3) 0.8343(3) 1.0000
C7_2 C 0.8942(3) 0.7389(4) 1.0000
H3_2 H 0.8492 0.6985 1.0000
C8_2 C 0.9819(4) 0.7204(4) 1.0000
H12_2 H 0.6655 0.9928 1.0000
C27_2 C 0.8006(4) 0.9743(3) 1.0000
O16 O 0.53088(17) 0.62575(18) 0.6239(2)
O17 O 0.46912(17) 0.37425(18) 0.6239(2)
O18 O 0.62575(18) 0.46912(17) 0.6239(2)
O19 O 0.37425(18) 0.53088(17) 0.6239(2)
H29_3 H 0.0165727 0.0656659 0
H29_4 H 0.0165727 0.0656659 1
H25_3 H 0.983427 0.934334 0
H25_4 H 0.983427 0.934334 1
S3_3 S 0.32110(7) 0.52522(7) 0.5000
N3_3 N 0.1298(3) 0.0320(3) 0.5000
O6_3 O 0.2552(2) 0.5852(2) 0.5000
C19_3 C 0.2643(3) 0.4181(3) 0.5000
C20_2 C 0.2432(2) 0.3844(2) 0.6201(4)
H9_2 H 0.2620 0.4093 0.7010
C21_2 C 0.1937(2) 0.3133(2) 0.6184(4)
H10_2 H 0.1743 0.2899 0.6999
C22_3 C 0.1709(2) 0.2744(3) 0.5000
C23_3 C 0.1197(3) 0.1881(3) 0.5000
C24_3 C 0.1657(3) 0.1154(3) 0.5000
C25_3 C 0.2611(4) 0.1058(3) 0.5000
H11_3 H 0.3015 0.1508 0.5000
C26_3 C 0.2796(4) 0.0181(4) 0.5000
O8_2 O 0.37425(18) 0.53088(17) 0.3761(2)
C30_2 C 0.2432(2) 0.3844(2) 0.3799(4)
H15_2 H 0.2620 0.4093 0.2990
C31_2 C 0.1937(2) 0.3133(2) 0.3816(4)
H16_2 H 0.1743 0.2899 0.3001
H22_3 H 0.0072 0.3345 0.5000
C42_3 C 0.0257(3) 0.1994(4) 0.5000
H25_5 H 0.0656659 0.0165727 0.5
S1_3 S 0.52522(7) 0.67890(7) 0.5000
N1_3 N 0.0320(3) 0.8702(3) 0.5000
O2_3 O 0.5852(2) 0.7448(2) 0.5000
C1_3 C 0.4181(3) 0.7357(3) 0.5000
C2_2 C 0.3844(2) 0.7568(2) 0.6201(4)
H1_2 H 0.4093 0.7380 0.7010
C3_2 C 0.3133(2) 0.8063(2) 0.6184(4)
H2_2 H 0.2899 0.8257 0.6999
C4_3 C 0.2744(3) 0.8291(2) 0.5000
C5_3 C 0.1881(3) 0.8803(3) 0.5000
C6_3 C 0.1154(3) 0.8343(3) 0.5000
C7_3 C 0.1058(3) 0.7389(4) 0.5000
H3_3 H 0.1508 0.6985 0.5000
C8_3 C 0.0181(4) 0.7204(4) 0.5000
H12_3 H 0.3345 0.9928 0.5000
C27_3 C 0.1994(4) 0.9743(3) 0.5000
O7_2 O 0.53088(17) 0.62575(18) 0.3761(2)
C28_2 C 0.3844(2) 0.7568(2) 0.3799(4)
H13_2 H 0.4093 0.7380 0.2990
C29_2 C 0.3133(2) 0.8063(2) 0.3816(4)
H14_2 H 0.2899 0.8257 0.3001
H8_3 H 0.6655 0.0072 0.5000
C18_3 C 0.8006(4) 0.0257(3) 0.5000
S4_3 S 0.47478(7) 0.32110(7) 0.5000
N4_3 N 0.9680(3) 0.1298(3) 0.5000
O11_3 O 0.4148(2) 0.2552(2) 0.5000
C34_3 C 0.5819(3) 0.2643(3) 0.5000
C35_2 C 0.6156(2) 0.2432(2) 0.6201(4)
H19_2 H 0.5907 0.2620 0.7010
C36_2 C 0.6867(2) 0.1937(2) 0.6184(4)
H20_2 H 0.7101 0.1743 0.6999
C37_3 C 0.7256(3) 0.1709(2) 0.5000
C38_3 C 0.8119(3) 0.1197(3) 0.5000
C39_3 C 0.8846(3) 0.1657(3) 0.5000
C40_3 C 0.8942(3) 0.2611(4) 0.5000
H21_3 H 0.8492 0.3015 0.5000
C41_3 C 0.9819(4) 0.2796(4) 0.5000
O12_2 O 0.46912(17) 0.37425(18) 0.3761(2)
C43_2 C 0.6156(2) 0.2432(2) 0.3799(4)
H23_2 H 0.5907 0.2620 0.2990
C44_2 C 0.6867(2) 0.1937(2) 0.3816(4)
H24_2 H 0.7101 0.1743 0.3001
H4_3 H 0.9928 0.6655 0.5000
C9_3 C 0.9743(3) 0.8006(4) 0.5000
S2_3 S 0.67890(7) 0.47478(7) 0.5000
N2_3 N 0.8702(3) 0.9680(3) 0.5000
O4_3 O 0.7448(2) 0.4148(2) 0.5000
C10_3 C 0.7357(3) 0.5819(3) 0.5000
C11_2 C 0.7568(2) 0.6156(2) 0.6201(4)
H5_2 H 0.7380 0.5907 0.7010
C12_2 C 0.8063(2) 0.6867(2) 0.6184(4)
H6_2 H 0.8257 0.7101 0.6999
C13_3 C 0.8291(2) 0.7256(3) 0.5000
C14_3 C 0.8803(3) 0.8119(3) 0.5000
C15_3 C 0.8343(3) 0.8846(3) 0.5000
C16_3 C 0.7389(4) 0.8942(3) 0.5000
H7_3 H 0.6985 0.8492 0.5000
C17_3 C 0.7204(4) 0.9819(4) 0.5000
O9_2 O 0.62575(18) 0.46912(17) 0.3761(2)
C32_2 C 0.7568(2) 0.6156(2) 0.3799(4)
H17_2 H 0.7380 0.5907 0.2990
C33_2 C 0.8063(2) 0.6867(2) 0.3816(4)
H18_2 H 0.8257 0.7101 0.3001
H29_5 H 0.934334 0.983427 0.5
H25_6 H 0.0165727 0.934334 0.5
H29_6 H 0.983427 0.0656659 0.5
O20 O 0.0000 0.0000 0.2500
O20_2 O 0.0000 1.0000 0.2500
O20_3 O 1.0000 0.0000 0.2500
O20_4 O 1.0000 1.0000 0.2500
O20_5 O 0.0000 0.0000 0.7500
O20_6 O -0.0000 1.0000 0.7500
O20_7 O 1.0000 0.0000 0.7500
O20_8 O 1.0000 1.0000 0.7500
loop_
_geom_bond_atom_site_label_1
_geom_bond_atom_site_label_2
_geom_bond_site_symmetry_1
_geom_bond_site_symmetry_2
N4 C39 1_555 1_555
O11 S4 1_555 1_555
C34 S4 1_555 1_555
C38 C18 1_555 1_555
C39 C38 1_555 1_555
C40 C39 1_555 1_555
H21 C40 1_555 1_555
C41 C40 1_555 1_555
O12 S4 1_555 1_555
C43 C34 1_555 1_555
H23 C43 1_555 1_555
C44 C37 1_555 1_555
H24 C44 1_555 1_555
Gd8 O12 1_555 1_555
C37 C38 1_555 1_555
C43 C44 1_555 1_555
S4_2 O10 1_555 1_555
N4_2 C39_2 1_555 1_555
O10 Gd4 1_555 1_555
O11_2 S4_2 1_555 1_555
C34_2 S4_2 1_555 1_555
C35 C34_2 1_555 1_555
H19 C35 1_555 1_555
C36 C35 1_555 1_555
H20 C36 1_555 1_555
C37_2 C36 1_555 1_555
C38_2 C18_2 1_555 1_555
C39_2 C38_2 1_555 1_555
C40_2 C39_2 1_555 1_555
H21_2 C40_2 1_555 1_555
C41_2 C40_2 1_555 1_555
C37_2 C38_2 1_555 1_555
N2 C15 1_555 1_555
O4 S2 1_555 1_555
C10 S2 1_555 1_555
C14 C9 1_555 1_555
C15 C14 1_555 1_555
C16 C15 1_555 1_555
H7 C16 1_555 1_555
C17 C16 1_555 1_555
O9 S2 1_555 1_555
C32 C10 1_555 1_555
H17 C32 1_555 1_555
C33 C13 1_555 1_555
H18 C33 1_555 1_555
Gd8 O9 1_555 1_555
C13 C14 1_555 1_555
C32 C33 1_555 1_555
N2 H29 1_555 1_555
S2_2 O3 1_555 1_555
N2_2 C15_2 1_555 1_555
O3 Gd4 1_555 1_555
O4_2 S2_2 1_555 1_555
C10_2 S2_2 1_555 1_555
C11 C10_2 1_555 1_555
H5 C11 1_555 1_555
C12 C11 1_555 1_555
H6 C12 1_555 1_555
C13_2 C12 1_555 1_555
C14_2 C9_2 1_555 1_555
C15_2 C14_2 1_555 1_555
C16_2 C15_2 1_555 1_555
H7_2 C16_2 1_555 1_555
C17_2 C16_2 1_555 1_555
C13_2 C14_2 1_555 1_555
N2_2 H29_2 1_555 1_555
N3 C24 1_555 1_555
O6 S3 1_555 1_555
C19 S3 1_555 1_555
C23 C22 1_555 1_555
C24 C23 1_555 1_555
C25 C24 1_555 1_555
H11 C25 1_555 1_555
C26 C25 1_555 1_555
O8 S3 1_555 1_555
C30 C19 1_555 1_555
H15 C30 1_555 1_555
C31 C22 1_555 1_555
H16 C31 1_555 1_555
C42 C23 1_555 1_555
Gd8 O8 1_555 1_555
C30 C31 1_555 1_555
N3 H25 1_555 1_555
S3_2 O5 1_555 1_555
N3_2 C24_2 1_555 1_555
O5 Gd4 1_555 1_555
O6_2 S3_2 1_555 1_555
C19_2 S3_2 1_555 1_555
C20 C19_2 1_555 1_555
H9 C20 1_555 1_555
C21 C20 1_555 1_555
H10 C21 1_555 1_555
C22_2 C21 1_555 1_555
C23_2 C22_2 1_555 1_555
C24_2 C23_2 1_555 1_555
C25_2 C24_2 1_555 1_555
H11_2 C25_2 1_555 1_555
C26_2 C25_2 1_555 1_555
C42_2 C23_2 1_555 1_555
N3_2 H25_2 1_555 1_555
N1 C6 1_555 1_555
O2 S1 1_555 1_555
C1 S1 1_555 1_555
C5 C4 1_555 1_555
C6 C5 1_555 1_555
C7 C6 1_555 1_555
H3 C7 1_555 1_555
C8 C7 1_555 1_555
C27 C5 1_555 1_555
O7 S1 1_555 1_555
C28 C1 1_555 1_555
H13 C28 1_555 1_555
C29 C4 1_555 1_555
H14 C29 1_555 1_555
Gd8 O7 1_555 1_555
C28 C29 1_555 1_555
Gd4 O1 1_555 1_555
S1_2 O1 1_555 1_555
N1_2 C6_2 1_555 1_555
O2_2 S1_2 1_555 1_555
C1_2 S1_2 1_555 1_555
C2 C1_2 1_555 1_555
H1 C2 1_555 1_555
C3 C2 1_555 1_555
H2 C3 1_555 1_555
C4_2 C3 1_555 1_555
C5_2 C4_2 1_555 1_555
C6_2 C5_2 1_555 1_555
C7_2 C6_2 1_555 1_555
H3_2 C7_2 1_555 1_555
C8_2 C7_2 1_555 1_555
C27_2 C5_2 1_555 1_555
O16 Gd4 1_555 1_555
O17 Gd4 1_555 1_555
O18 Gd4 1_555 1_555
O19 Gd4 1_555 1_555
N4 H29_3 1_555 1_555
N4_2 H29_4 1_555 1_555
N1 H25_3 1_555 1_555
N1_2 H25_4 1_555 1_555
S3_3 O19 1_555 1_555
N3_3 C24_3 1_555 1_555
O6_3 S3_3 1_555 1_555
C19_3 S3_3 1_555 1_555
C20_2 C19_3 1_555 1_555
H9_2 C20_2 1_555 1_555
C21_2 C20_2 1_555 1_555
H10_2 C21_2 1_555 1_555
C22_3 C21_2 1_555 1_555
C23_3 C22_3 1_555 1_555
C24_3 C23_3 1_555 1_555
C25_3 C24_3 1_555 1_555
H11_3 C25_3 1_555 1_555
C26_3 C25_3 1_555 1_555
O8_2 S3_3 1_555 1_555
C30_2 C19_3 1_555 1_555
H15_2 C30_2 1_555 1_555
C31_2 C22_3 1_555 1_555
H16_2 C31_2 1_555 1_555
C42_3 C23_3 1_555 1_555
Gd8 O8_2 1_555 1_555
C30_2 C31_2 1_555 1_555
N3_3 H25_5 1_555 1_555
S1_3 O16 1_555 1_555
N1_3 C6_3 1_555 1_555
O2_3 S1_3 1_555 1_555
C1_3 S1_3 1_555 1_555
C2_2 C1_3 1_555 1_555
H1_2 C2_2 1_555 1_555
C3_2 C2_2 1_555 1_555
H2_2 C3_2 1_555 1_555
C4_3 C3_2 1_555 1_555
C5_3 C4_3 1_555 1_555
C6_3 C5_3 1_555 1_555
C7_3 C6_3 1_555 1_555
H3_3 C7_3 1_555 1_555
C8_3 C7_3 1_555 1_555
C27_3 C5_3 1_555 1_555
O7_2 S1_3 1_555 1_555
C28_2 C1_3 1_555 1_555
H13_2 C28_2 1_555 1_555
C29_2 C4_3 1_555 1_555
H14_2 C29_2 1_555 1_555
Gd8 O7_2 1_555 1_555
C28_2 C29_2 1_555 1_555
S4_3 O17 1_555 1_555
N4_3 C39_3 1_555 1_555
O11_3 S4_3 1_555 1_555
C34_3 S4_3 1_555 1_555
C35_2 C34_3 1_555 1_555
H19_2 C35_2 1_555 1_555
C36_2 C35_2 1_555 1_555
H20_2 C36_2 1_555 1_555
C37_3 C36_2 1_555 1_555
C38_3 C18_3 1_555 1_555
C39_3 C38_3 1_555 1_555
C40_3 C39_3 1_555 1_555
H21_3 C40_3 1_555 1_555
C41_3 C40_3 1_555 1_555
O12_2 S4_3 1_555 1_555
C43_2 C34_3 1_555 1_555
H23_2 C43_2 1_555 1_555
C44_2 C37_3 1_555 1_555
H24_2 C44_2 1_555 1_555
Gd8 O12_2 1_555 1_555
C37_3 C38_3 1_555 1_555
C43_2 C44_2 1_555 1_555
S2_3 O18 1_555 1_555
N2_3 C15_3 1_555 1_555
O4_3 S2_3 1_555 1_555
C10_3 S2_3 1_555 1_555
C11_2 C10_3 1_555 1_555
H5_2 C11_2 1_555 1_555
C12_2 C11_2 1_555 1_555
H6_2 C12_2 1_555 1_555
C13_3 C12_2 1_555 1_555
C14_3 C9_3 1_555 1_555
C15_3 C14_3 1_555 1_555
C16_3 C15_3 1_555 1_555
H7_3 C16_3 1_555 1_555
C17_3 C16_3 1_555 1_555
O9_2 S2_3 1_555 1_555
C32_2 C10_3 1_555 1_555
H17_2 C32_2 1_555 1_555
C33_2 C13_3 1_555 1_555
H18_2 C33_2 1_555 1_555
Gd8 O9_2 1_555 1_555
C13_3 C14_3 1_555 1_555
C32_2 C33_2 1_555 1_555
N2_3 H29_5 1_555 1_555
N1_3 H25_6 1_555 1_555
N4_3 H29_6 1_555 1_555

#END
