
###############################################################################
#
# This file contains modified crystal structure data generated from the
# MOF subset of the Cambridge Structural Database (CSD) v543 
# hosted by the Cambridge Crystallographic Data Centre (CCDC).
#
# This work is licensed under the Creative Commons
# Attribution-NonCommercial-ShareAlike 4.0 International License.
# To view a copy of this license, visit
# http://creativecommons.org/licenses/by-nc-sa/4.0/
# or send a letter to
# Creative Commons, PO Box 1866, Mountain View, CA 94042, USA.
#
# CIF created using the CSD Python API on 29 September 2022
# The structure has been converted into the P1 space group
# The structure has a 3D framework
# The original CSD entry UQULAU is in the monoclinic crystal system
# The framework has been calculated to contain at least 10.0% void space
# The void calculation uses a probe of radius 1.32A, grid spacing 0.4
#
###############################################################################

data_UQULAU
_chemical_formula_moiety         '(C128 H156 Co4 N8 O26)n'
_symmetry_cell_setting           triclinic
_symmetry_space_group_name_H-M   'P 1'
_symmetry_Int_Tables_number      1
_space_group_name_Hall           'P 1'
loop_
_symmetry_equiv_pos_site_id
_symmetry_equiv_pos_as_xyz
1 x,y,z
_cell_length_a                   12.0201(3)
_cell_length_b                   20.7463(5)
_cell_length_c                   17.6353(3)
_cell_angle_alpha                90
_cell_angle_beta                 132.806(1)
_cell_angle_gamma                90
_cell_volume                     3226.46
loop_
_atom_site_label
_atom_site_type_symbol
_atom_site_fract_x
_atom_site_fract_y
_atom_site_fract_z
O7 O 0.3178(3) 0.35914(13) 0.6193(2)
H4 H 0.3607 0.3256 0.6511
O8 O 0.0395(2) 0.17732(9) 0.21983(16)
O9 O 0.1188(2) 0.25541(9) 0.17905(16)
O10 O 0.5482(3) 0.09217(12) 0.2854(2)
H5 H 0.5553 0.1194 0.2552
N2 N 0.1235(3) 0.39887(12) 0.19921(18)
C13 C 0.1157(4) 0.31940(15) 0.4456(2)
H21 H 0.1655 0.2780 0.4630
H22 H 0.1511 0.3475 0.4218
C16 C 0.1570(4) 0.34850(17) 0.5415(2)
C17 C 0.0811(5) 0.41326(16) 0.5150(3)
H27 H 0.1153 0.4420 0.4910
H28 H 0.1086 0.4321 0.5762
C21 C 0.1039(5) 0.30320(18) 0.5792(3)
H33 H 0.1530 0.2616 0.5962
H34 H 0.1316 0.3207 0.6412
C23 C 0.3031(3) 0.18115(13) 0.3131(2)
C24 C 0.3128(4) 0.12942(18) 0.3799(3)
H35 H 0.2862 0.1482 0.4162
H36 H 0.2417 0.0949 0.3362
C25 C 0.4151(4) 0.23557(16) 0.3829(3)
H37 H 0.3882 0.2558 0.4182
H38 H 0.4111 0.2680 0.3415
C26 C 0.3478(3) 0.14991(15) 0.2583(2)
H39 H 0.2772 0.1155 0.2138
H40 H 0.3420 0.1817 0.2155
C27 C 0.5082(4) 0.12278(16) 0.3367(3)
C28 C 0.5163(4) 0.07253(17) 0.4023(3)
H41 H 0.4474 0.0374 0.3589
H42 H 0.6183 0.0551 0.4523
C29 C 0.4742(4) 0.1024(2) 0.4580(3)
H43 H 0.4797 0.0694 0.5002
C30 C 0.5839(5) 0.1568(2) 0.5278(3)
H44 H 0.5570 0.1758 0.5637
H45 H 0.6862 0.1399 0.5790
C31 C 0.5765(4) 0.20726(18) 0.4627(3)
H46 H 0.6481 0.2419 0.5078
C32 C 0.6190(4) 0.17747(16) 0.4058(3)
H47 H 0.6142 0.2100 0.3642
H48 H 0.7218 0.1609 0.4554
C33 C 0.1416(3) 0.20723(13) 0.2320(2)
H65 H 0.0045 0.1358 0.3435
H66 H 0.0014 0.0714 0.4463
C50 C 0.3717(3) 0.48250(14) 0.3291(2)
C51 C 0.3417(4) 0.44932(19) 0.2489(3)
H67 H 0.4045 0.4550 0.2362
C52 C 0.2213(4) 0.40842(18) 0.1883(3)
H68 H 0.2068 0.3860 0.1366
C53 C 0.1483(4) 0.43245(15) 0.2740(2)
H69 H 0.0808 0.4273 0.2828
C54 C 0.2680(4) 0.47433(16) 0.3389(3)
H70 H 0.2789 0.4970 0.3891
H71 H 0.0118 0.0023 0.5379
C60 C 0.5066(3) 0.52461(14) 0.4004(2)
C61 C 0.6427(4) 0.51075(15) 0.4272(2)
H75 H 0.6503 0.4745 0.3999
C62 C 0.7661(4) 0.55035(14) 0.4940(2)
H76 H 0.8556 0.5400 0.5103
C63 C 0.6358(4) 0.61572(14) 0.5135(2)
H77 H 0.6332 0.6512 0.5445
N4 N 0.7640(3) 0.60329(12) 0.53679(19)
C64 C 0.5057(4) 0.57922(15) 0.4461(3)
H78 H 0.4180 0.5910 0.4312
Co4 Co 0.94928(3) 0.673840(16) 0.61470(2)
H63 H 0.6541 0.9747 0.1937
C55 C 0.9295(4) 0.97459(15) 0.5048(2)
C56 C 0.7010(4) 0.93054(16) 0.3552(2)
H72 H 0.6228 0.9277 0.2838
N3 N 0.8060(3) 0.89317(11) 0.52111(18)
C57 C 0.9188(4) 0.93489(14) 0.5621(2)
H73 H 0.9948 0.9373 0.6338
C58 C 0.6988(4) 0.89177(15) 0.4178(2)
H74 H 0.6185 0.8631 0.3864
C59 C 0.8175(3) 0.97326(13) 0.3976(2)
Co3 Co 0.81084(3) 0.826639(16) 0.61759(2)
O1 O 0.7939(3) 0.73886(10) 0.38243(16)
O2 O 0.7769(2) 0.74854(9) 0.52265(14)
H1 H 0.7808 0.7514 0.4763
H2 H 0.6690 0.7452 0.4729
O3 O 0.9400(2) 0.66001(9) 0.49413(15)
O4 O 0.4846(3) 0.55673(13) 0.0965(2)
H3 H 0.4334 0.5795 0.1009
O5 O 0.9554(3) 0.68089(9) 0.73185(16)
O6 O 0.8183(2) 0.76186(9) 0.71450(15)
O11 O 0.4820(2) 0.75975(10) 0.39995(17)
O12 O 0.5783(2) 0.83275(9) 0.52313(15)
O13 O 0.1229(3) 0.92293(10) 0.45102(17)
H6 H 0.1080 0.8923 0.4727
N1 N 0.8305(3) 0.90216(11) 0.70915(18)
C1 C 0.8355(4) 0.64664(14) 0.3221(2)
C2 C 0.8531(5) 0.68941(16) 0.2597(3)
H7 H 0.9563 0.7055 0.3045
H8 H 0.7852 0.7261 0.2318
C3 C 0.6722(4) 0.62070(15) 0.2496(2)
H9 H 0.6019 0.6564 0.2218
H10 H 0.6604 0.5933 0.2883
C4 C 0.9435(4) 0.58952(15) 0.3659(2)
H12 H 0.9341 0.5625 0.4062
C5 C 0.6355(4) 0.58258(16) 0.1618(3)
C6 C 0.6541(6) 0.62580(18) 0.1008(3)
H13 H 0.5850 0.6620 0.0722
H14 H 0.6299 0.6017 0.0441
C7 C 0.8161(6) 0.65009(18) 0.1716(3)
H15 H 0.8278 0.6774 0.1320
C8 C 0.9255(5) 0.59261(18) 0.2169(3)
H17 H 0.9045 0.5680 0.1616
C9 C 0.9056(4) 0.55008(16) 0.2772(3)
H18 H 0.9749 0.5133 0.3058
C10 C 0.7435(5) 0.52564(16) 0.2058(3)
H19 H 0.7206 0.5008 0.1500
H20 H 0.7313 0.4978 0.2439
C11 C 0.8602(3) 0.68428(14) 0.4066(2)
C12 C 0.9432(3) 0.68948(13) 0.8591(2)
C14 C 0.8671(4) 0.62352(14) 0.8347(2)
H23 H 0.8985 0.5946 0.8090
H24 H 0.7579 0.6284 0.7812
C15 C 0.8905(4) 0.73446(15) 0.8991(3)
H25 H 0.7814 0.7401 0.8461
H26 H 0.9376 0.7764 0.9154
C18 C 0.9104(4) 0.59461(16) 0.9315(3)
H29 H 0.8616 0.5525 0.9148
C19 C 0.8555(5) 0.64023(18) 0.9689(3)
H31 H 0.7465 0.6459 0.9148
C20 C 0.9346(4) 0.70500(17) 0.9965(3)
C22 C 0.9018(3) 0.71336(13) 0.7607(2)
C34 C 0.3141(3) 0.84038(13) 0.3746(2)
C35 C 0.3158(4) 0.89964(15) 0.3229(2)
H49 H 0.3296 0.8860 0.2771
H50 H 0.3997 0.9276 0.3753
C36 C 0.2892(3) 0.86335(14) 0.4450(2)
H51 H 0.3725 0.8910 0.4986
H52 H 0.2877 0.8264 0.4780
C37 C 0.1814(3) 0.79611(15) 0.2906(2)
H53 H 0.1791 0.7587 0.3226
H54 H 0.1950 0.7812 0.2453
C38 C 0.1407(3) 0.90004(14) 0.3834(2)
C39 C 0.1452(4) 0.95843(15) 0.3332(3)
H55 H 0.2284 0.9865 0.3862
H56 H 0.0515 0.9826 0.2944
C40 C 0.1661(4) 0.93638(16) 0.2613(2)
H57 H 0.1683 0.9742 0.2290
C41 C 0.0351(4) 0.89244(17) 0.1770(2)
H59 H 0.0485 0.8788 0.1311
C42 C 0.0314(4) 0.83328(16) 0.2278(3)
C43 C 0.0093(4) 0.85626(16) 0.2993(2)
H61 H 0.0047 0.8194 0.3309
C44 C 0.4680(3) 0.80707(14) 0.4366(2)
C45 C 0.8247(3) 0.98457(13) 0.8330(2)
C46 C 0.7250(4) 0.99210(14) 0.7260(2)
C47 C 0.7314(4) 0.95060(14) 0.6684(2)
H64 H 0.6630 0.9566 0.5972
C48 C 0.9311(3) 0.89626(14) 0.8128(2)
C49 C 0.9305(4) 0.93522(14) 0.8752(2)
H11 H 0.0472 0.3951 0.9111
H16 H 0.0293 0.3920 0.7622
Co1 Co 0.81084(3) 0.173361(16) 0.11759(2)
Co2 Co 0.94928(3) 0.326160(16) 0.11470(2)
O2_2 O 0.7769(2) 0.25146(9) 0.02265(14)
O5_2 O 0.9554(3) 0.31911(9) 0.23185(16)
O6_2 O 0.8183(2) 0.23814(9) 0.21450(15)
O12_2 O 0.5783(2) 0.16725(9) 0.02313(15)
N1_2 N 0.8305(3) 0.09784(11) 0.20915(18)
C12_2 C 0.9432(3) 0.31052(13) 0.3591(2)
C14_2 C 0.8671(4) 0.37648(14) 0.3347(2)
H23_2 H 0.8985 0.4054 0.3090
H24_2 H 0.7579 0.3716 0.2812
C15_2 C 0.8905(4) 0.26554(15) 0.3991(3)
H25_2 H 0.7814 0.2599 0.3461
H26_2 H 0.9376 0.2236 0.4154
C18_2 C 0.9104(4) 0.40539(16) 0.4315(3)
H29_2 H 0.8616 0.4475 0.4148
C19_2 C 0.8555(5) 0.35977(18) 0.4689(3)
H30 H 0.8787 0.3780 0.5289
H31_2 H 0.7465 0.3541 0.4148
C20_2 C 0.9346(4) 0.29500(17) 0.4965(3)
H32 H 0.9015 0.2661 0.5219
C22_2 C 0.9018(3) 0.28664(13) 0.2607(2)
C45_2 C 0.8247(3) 0.01543(13) 0.3330(2)
C46_2 C 0.7250(4) 0.00790(14) 0.2260(2)
C47_2 C 0.7314(4) 0.04940(14) 0.1684(2)
H64_2 H 0.6630 0.0434 0.0972
C48_2 C 0.9311(3) 0.10374(14) 0.3128(2)
C49_2 C 0.9305(4) 0.06478(14) 0.3752(2)
N5 N 0.8060(3) 0.10683(11) 0.02111(18)
N6 N 0.7640(3) 0.39671(12) 0.03679(19)
O7_2 O 0.3178(3) 0.64086(13) 0.1193(2)
H4_2 H 0.3607 0.6744 0.1511
C16_2 C 0.1570(4) 0.65150(17) 0.0415(2)
C17_2 C 0.0811(5) 0.58674(16) 0.0150(3)
H28_2 H 0.1086 0.5679 0.0762
C21_2 C 0.1039(5) 0.69680(18) 0.0792(3)
H33_2 H 0.1530 0.7384 0.0962
H34_2 H 0.1316 0.6793 0.1412
H43_2 H 0.4797 0.9306 0.0002
C30_2 C 0.5839(5) 0.8432(2) 0.0278(3)
H44_2 H 0.5570 0.8242 0.0637
H45_2 H 0.6862 0.8601 0.0790
H46_2 H 0.6481 0.7581 0.0078
H71_2 H 0.0118 0.9977 0.0379
H76_2 H 0.8556 0.4600 0.0103
C63_2 C 0.6358(4) 0.38428(14) 0.0135(2)
H77_2 H 0.6332 0.3488 0.0445
C55_2 C 0.9295(4) 0.02541(15) 0.0048(2)
C57_2 C 0.9188(4) 0.06511(14) 0.0621(2)
H73_2 H 0.9948 0.0627 0.1338
O1_2 O 0.7939(3) 0.26114(10) 0.88243(16)
H1_2 H 0.7808 0.2486 0.9763
H2_2 H 0.6690 0.2548 0.9729
O3_2 O 0.9400(2) 0.33999(9) 0.99413(15)
O4_2 O 0.4846(3) 0.44327(13) 0.5965(2)
H3_2 H 0.4334 0.4205 0.6009
O11_2 O 0.4820(2) 0.24025(10) 0.89995(17)
O13_2 O 0.1229(3) 0.07707(10) 0.95102(17)
H6_2 H 0.1080 0.1077 0.9727
C1_2 C 0.8355(4) 0.35336(14) 0.8221(2)
C2_2 C 0.8531(5) 0.31059(16) 0.7597(3)
H7_2 H 0.9563 0.2945 0.8045
H8_2 H 0.7852 0.2739 0.7318
C3_2 C 0.6722(4) 0.37930(15) 0.7496(2)
H9_2 H 0.6019 0.3436 0.7218
H10_2 H 0.6604 0.4067 0.7883
C4_2 C 0.9435(4) 0.41048(15) 0.8659(2)
H12_2 H 0.9341 0.4375 0.9062
C5_2 C 0.6355(4) 0.41742(16) 0.6618(3)
C6_2 C 0.6541(6) 0.37420(18) 0.6008(3)
H13_2 H 0.5850 0.3380 0.5722
H14_2 H 0.6299 0.3983 0.5441
C7_2 C 0.8161(6) 0.34991(18) 0.6716(3)
H15_2 H 0.8278 0.3226 0.6320
C8_2 C 0.9255(5) 0.40739(18) 0.7169(3)
H17_2 H 0.9045 0.4320 0.6616
C9_2 C 0.9056(4) 0.44992(16) 0.7772(3)
H18_2 H 0.9749 0.4867 0.8058
C10_2 C 0.7435(5) 0.47436(16) 0.7058(3)
H19_2 H 0.7206 0.4992 0.6500
H20_2 H 0.7313 0.5022 0.7439
C11_2 C 0.8602(3) 0.31572(14) 0.9066(2)
C34_2 C 0.3141(3) 0.15962(13) 0.8746(2)
C35_2 C 0.3158(4) 0.10036(15) 0.8229(2)
H49_2 H 0.3296 0.1140 0.7771
H50_2 H 0.3997 0.0724 0.8753
C36_2 C 0.2892(3) 0.13665(14) 0.9450(2)
H51_2 H 0.3725 0.1090 0.9986
H52_2 H 0.2877 0.1736 0.9780
C37_2 C 0.1814(3) 0.20389(15) 0.7906(2)
H53_2 H 0.1791 0.2413 0.8226
H54_2 H 0.1950 0.2188 0.7453
C38_2 C 0.1407(3) 0.09996(14) 0.8834(2)
C39_2 C 0.1452(4) 0.04157(15) 0.8332(3)
H55_2 H 0.2284 0.0135 0.8862
H56_2 H 0.0515 0.0174 0.7944
C40_2 C 0.1661(4) 0.06362(16) 0.7613(2)
H57_2 H 0.1683 0.0258 0.7290
C41_2 C 0.0351(4) 0.10756(17) 0.6770(2)
H59_2 H 0.0485 0.1212 0.6311
C42_2 C 0.0314(4) 0.16672(16) 0.7278(3)
C43_2 C 0.0093(4) 0.14374(16) 0.7993(2)
H61_2 H 0.0047 0.1806 0.8309
C44_2 C 0.4680(3) 0.19293(14) 0.9366(2)
H58 H 0.9399 0.0843 0.6366
H60 H 0.9470 0.1949 0.6742
H62 H 0.9144 0.1204 0.7596
O8_2 O 0.0395(2) 0.82268(9) 0.71983(16)
O9_2 O 0.1188(2) 0.74459(9) 0.67905(16)
O10_2 O 0.5482(3) 0.90783(12) 0.7854(2)
H5_2 H 0.5553 0.8806 0.7552
N2_2 N 0.1235(3) 0.60113(12) 0.69921(18)
H11_2 H 0.0472 0.6049 0.4111
H16_2 H 0.0293 0.6080 0.2622
C13_2 C 0.1157(4) 0.68060(15) 0.9456(2)
H21_2 H 0.1655 0.7220 0.9630
H22_2 H 0.1511 0.6525 0.9218
H27_2 H 0.1153 0.5580 0.9910
C23_2 C 0.3031(3) 0.81885(13) 0.8131(2)
C24_2 C 0.3128(4) 0.87058(18) 0.8799(3)
H35_2 H 0.2862 0.8518 0.9162
H36_2 H 0.2417 0.9051 0.8362
C25_2 C 0.4151(4) 0.76443(16) 0.8829(3)
H37_2 H 0.3882 0.7442 0.9182
H38_2 H 0.4111 0.7320 0.8415
C26_2 C 0.3478(3) 0.85009(15) 0.7583(2)
H39_2 H 0.2772 0.8845 0.7138
H40_2 H 0.3420 0.8183 0.7155
C27_2 C 0.5082(4) 0.87722(16) 0.8367(3)
C28_2 C 0.5163(4) 0.92747(17) 0.9023(3)
H41_2 H 0.4474 0.9626 0.8589
H42_2 H 0.6183 0.9449 0.9523
C29_2 C 0.4742(4) 0.8976(2) 0.9580(3)
C31_2 C 0.5765(4) 0.79274(18) 0.9627(3)
C32_2 C 0.6190(4) 0.82253(16) 0.9058(3)
H47_2 H 0.6142 0.7900 0.8642
H48_2 H 0.7218 0.8391 0.9554
C33_2 C 0.1416(3) 0.79277(13) 0.7320(2)
H65_2 H 0.0045 0.8642 0.8435
H66_2 H 0.0014 0.9286 0.9463
C50_2 C 0.3717(3) 0.51750(14) 0.8291(2)
C51_2 C 0.3417(4) 0.55068(19) 0.7489(3)
H67_2 H 0.4045 0.5450 0.7362
C52_2 C 0.2213(4) 0.59158(18) 0.6883(3)
H68_2 H 0.2068 0.6140 0.6366
C53_2 C 0.1483(4) 0.56755(15) 0.7740(2)
H69_2 H 0.0808 0.5727 0.7828
C54_2 C 0.2680(4) 0.52567(16) 0.8389(3)
H70_2 H 0.2789 0.5030 0.8891
C60_2 C 0.5066(3) 0.47539(14) 0.9004(2)
C61_2 C 0.6427(4) 0.48925(15) 0.9272(2)
H75_2 H 0.6503 0.5255 0.8999
C62_2 C 0.7661(4) 0.44965(14) 0.9940(2)
C64_2 C 0.5057(4) 0.42078(15) 0.9461(3)
H78_2 H 0.4180 0.4090 0.9312
H63_2 H 0.6541 0.0253 0.6937
C56_2 C 0.7010(4) 0.06946(16) 0.8552(2)
H72_2 H 0.6228 0.0723 0.7838
C58_2 C 0.6988(4) 0.10823(15) 0.9178(2)
H74_2 H 0.6185 0.1369 0.8864
C59_2 C 0.8175(3) 0.02674(13) 0.8976(2)
H30_2 H 0.8787 0.6220 0.0289
H32_2 H 0.9015 0.7339 0.0219
H58_2 H 0.9399 0.9157 0.1366
H60_2 H 0.9470 0.8051 0.1742
H62_2 H 0.9144 0.8796 0.2596
loop_
_geom_bond_atom_site_label_1
_geom_bond_atom_site_label_2
_geom_bond_site_symmetry_1
_geom_bond_site_symmetry_2
O7 H4 1_555 1_555
O10 H5 1_555 1_555
C13 H21 1_555 1_555
H22 C13 1_555 1_555
C16 O7 1_555 1_555
C17 C16 1_555 1_555
H27 C17 1_555 1_555
H28 C17 1_555 1_555
C21 C16 1_555 1_555
H33 C21 1_555 1_555
H34 C21 1_555 1_555
C23 C24 1_555 1_555
C24 H35 1_555 1_555
H36 C24 1_555 1_555
C25 C23 1_555 1_555
H37 C25 1_555 1_555
H38 C25 1_555 1_555
C26 C23 1_555 1_555
H39 C26 1_555 1_555
H40 C26 1_555 1_555
C27 O10 1_555 1_555
C28 C27 1_555 1_555
H41 C28 1_555 1_555
H42 C28 1_555 1_555
C29 C24 1_555 1_555
H43 C29 1_555 1_555
C30 C29 1_555 1_555
H44 C30 1_555 1_555
H45 C30 1_555 1_555
C31 C25 1_555 1_555
H46 C31 1_555 1_555
C32 C27 1_555 1_555
H47 C32 1_555 1_555
H48 C32 1_555 1_555
C33 O8 1_555 1_555
C50 C51 1_555 1_555
C51 H67 1_555 1_555
C52 N2 1_555 1_555
H68 C52 1_555 1_555
C53 N2 1_555 1_555
H69 C53 1_555 1_555
C54 C50 1_555 1_555
H70 C54 1_555 1_555
C60 C50 1_555 1_555
C61 C60 1_555 1_555
H75 C61 1_555 1_555
C62 C61 1_555 1_555
H76 C62 1_555 1_555
C63 H77 1_555 1_555
N4 C62 1_555 1_555
C64 C60 1_555 1_555
H78 C64 1_555 1_555
Co4 N4 1_555 1_555
O9 C33 1_555 1_555
C13 C16 1_555 1_555
C23 C33 1_555 1_555
C26 C27 1_555 1_555
C28 C29 1_555 1_555
C30 C31 1_555 1_555
C31 C32 1_555 1_555
C51 C52 1_555 1_555
C53 C54 1_555 1_555
C63 N4 1_555 1_555
C63 C64 1_555 1_555
C56 H72 1_555 1_555
N3 C57 1_555 1_555
C57 C55 1_555 1_555
H73 C57 1_555 1_555
C58 C56 1_555 1_555
H74 C58 1_555 1_555
Co3 N3 1_555 1_555
C55 C59 1_555 1_555
C56 C59 1_555 1_555
N3 C58 1_555 1_555
Co3 O2 1_555 1_555
Co4 O2 1_555 1_555
O1 C11 1_555 1_555
O2 H1 1_555 1_555
H2 O2 1_555 1_555
O3 Co4 1_555 1_555
O4 H3 1_555 1_555
O5 Co4 1_555 1_555
O6 Co3 1_555 1_555
O11 C44 1_555 1_555
O12 Co3 1_555 1_555
O13 H6 1_555 1_555
N1 Co3 1_555 1_555
C1 C2 1_555 1_555
C2 H7 1_555 1_555
H8 C2 1_555 1_555
C3 C1 1_555 1_555
H9 C3 1_555 1_555
H10 C3 1_555 1_555
C4 C1 1_555 1_555
H12 C4 1_555 1_555
C5 O4 1_555 1_555
C6 C5 1_555 1_555
H13 C6 1_555 1_555
H14 C6 1_555 1_555
C7 C2 1_555 1_555
H15 C7 1_555 1_555
C8 C7 1_555 1_555
H17 C8 1_555 1_555
C9 C4 1_555 1_555
H18 C9 1_555 1_555
C10 C5 1_555 1_555
H19 C10 1_555 1_555
H20 C10 1_555 1_555
C11 O3 1_555 1_555
C14 C12 1_555 1_555
H23 C14 1_555 1_555
H24 C14 1_555 1_555
C15 C12 1_555 1_555
H25 C15 1_555 1_555
H26 C15 1_555 1_555
C18 C14 1_555 1_555
H29 C18 1_555 1_555
C19 C18 1_555 1_555
H31 C19 1_555 1_555
C20 C15 1_555 1_555
C22 O5 1_555 1_555
C34 C35 1_555 1_555
C35 H49 1_555 1_555
H50 C35 1_555 1_555
C36 C34 1_555 1_555
H51 C36 1_555 1_555
H52 C36 1_555 1_555
C37 C34 1_555 1_555
H53 C37 1_555 1_555
H54 C37 1_555 1_555
C38 O13 1_555 1_555
C39 C38 1_555 1_555
H55 C39 1_555 1_555
H56 C39 1_555 1_555
C40 C35 1_555 1_555
H57 C40 1_555 1_555
C41 C40 1_555 1_555
H59 C41 1_555 1_555
C42 C37 1_555 1_555
C43 C38 1_555 1_555
H61 C43 1_555 1_555
C44 O12 1_555 1_555
C45 C46 1_555 1_555
C47 N1 1_555 1_555
H64 C47 1_555 1_555
C48 N1 1_555 1_555
C49 C45 1_555 1_555
O6 C22 1_555 1_555
C1 C11 1_555 1_555
C3 C5 1_555 1_555
C6 C7 1_555 1_555
C8 C9 1_555 1_555
C9 C10 1_555 1_555
C12 C22 1_555 1_555
C19 C20 1_555 1_555
C34 C44 1_555 1_555
C36 C38 1_555 1_555
C39 C40 1_555 1_555
C41 C42 1_555 1_555
C42 C43 1_555 1_555
C46 C47 1_555 1_555
C48 C49 1_555 1_555
Co1 O2_2 1_555 1_555
Co2 O2_2 1_555 1_555
O5_2 Co2 1_555 1_555
O6_2 Co1 1_555 1_555
O12_2 Co1 1_555 1_555
N1_2 Co1 1_555 1_555
C14_2 C12_2 1_555 1_555
H23_2 C14_2 1_555 1_555
H24_2 C14_2 1_555 1_555
C15_2 C12_2 1_555 1_555
H25_2 C15_2 1_555 1_555
H26_2 C15_2 1_555 1_555
C18_2 C14_2 1_555 1_555
H29_2 C18_2 1_555 1_555
C19_2 C18_2 1_555 1_555
H30 C19_2 1_555 1_555
H31_2 C19_2 1_555 1_555
C20_2 C15_2 1_555 1_555
H32 C20_2 1_555 1_555
C22_2 O5_2 1_555 1_555
C45_2 C46_2 1_555 1_555
C47_2 N1_2 1_555 1_555
H64_2 C47_2 1_555 1_555
C48_2 N1_2 1_555 1_555
C49_2 C45_2 1_555 1_555
N5 Co1 1_555 1_555
N6 Co2 1_555 1_555
O6_2 C22_2 1_555 1_555
C12_2 C22_2 1_555 1_555
C19_2 C20_2 1_555 1_555
C46_2 C47_2 1_555 1_555
C48_2 C49_2 1_555 1_555
O7_2 H4_2 1_555 1_555
C16_2 O7_2 1_555 1_555
C17_2 C16_2 1_555 1_555
H28_2 C17_2 1_555 1_555
C21_2 C16_2 1_555 1_555
H33_2 C21_2 1_555 1_555
H34_2 C21_2 1_555 1_555
H44_2 C30_2 1_555 1_555
H45_2 C30_2 1_555 1_555
C63_2 H77_2 1_555 1_555
C63_2 N6 1_555 1_555
N5 C57_2 1_555 1_555
C57_2 C55_2 1_555 1_555
H73_2 C57_2 1_555 1_555
O1_2 C11_2 1_555 1_555
O4_2 H3_2 1_555 1_555
O11_2 C44_2 1_555 1_555
O13_2 H6_2 1_555 1_555
C1_2 C2_2 1_555 1_555
C2_2 H7_2 1_555 1_555
H8_2 C2_2 1_555 1_555
C3_2 C1_2 1_555 1_555
H9_2 C3_2 1_555 1_555
H10_2 C3_2 1_555 1_555
C4_2 C1_2 1_555 1_555
H12_2 C4_2 1_555 1_555
C5_2 O4_2 1_555 1_555
C6_2 C5_2 1_555 1_555
H13_2 C6_2 1_555 1_555
H14_2 C6_2 1_555 1_555
C7_2 C2_2 1_555 1_555
H15_2 C7_2 1_555 1_555
C8_2 C7_2 1_555 1_555
H17_2 C8_2 1_555 1_555
C9_2 C4_2 1_555 1_555
H18_2 C9_2 1_555 1_555
C10_2 C5_2 1_555 1_555
H19_2 C10_2 1_555 1_555
H20_2 C10_2 1_555 1_555
C11_2 O3_2 1_555 1_555
C34_2 C35_2 1_555 1_555
C35_2 H49_2 1_555 1_555
H50_2 C35_2 1_555 1_555
C36_2 C34_2 1_555 1_555
H51_2 C36_2 1_555 1_555
H52_2 C36_2 1_555 1_555
C37_2 C34_2 1_555 1_555
H53_2 C37_2 1_555 1_555
H54_2 C37_2 1_555 1_555
C38_2 O13_2 1_555 1_555
C39_2 C38_2 1_555 1_555
H55_2 C39_2 1_555 1_555
H56_2 C39_2 1_555 1_555
C40_2 C35_2 1_555 1_555
H57_2 C40_2 1_555 1_555
C41_2 C40_2 1_555 1_555
H59_2 C41_2 1_555 1_555
C42_2 C37_2 1_555 1_555
C43_2 C38_2 1_555 1_555
H61_2 C43_2 1_555 1_555
C1_2 C11_2 1_555 1_555
C3_2 C5_2 1_555 1_555
C6_2 C7_2 1_555 1_555
C8_2 C9_2 1_555 1_555
C9_2 C10_2 1_555 1_555
C34_2 C44_2 1_555 1_555
C36_2 C38_2 1_555 1_555
C39_2 C40_2 1_555 1_555
C41_2 C42_2 1_555 1_555
C42_2 C43_2 1_555 1_555
O10_2 H5_2 1_555 1_555
C13_2 H21_2 1_555 1_555
H22_2 C13_2 1_555 1_555
C23_2 C24_2 1_555 1_555
C24_2 H35_2 1_555 1_555
H36_2 C24_2 1_555 1_555
C25_2 C23_2 1_555 1_555
H37_2 C25_2 1_555 1_555
H38_2 C25_2 1_555 1_555
C26_2 C23_2 1_555 1_555
H39_2 C26_2 1_555 1_555
H40_2 C26_2 1_555 1_555
C27_2 O10_2 1_555 1_555
C28_2 C27_2 1_555 1_555
H41_2 C28_2 1_555 1_555
H42_2 C28_2 1_555 1_555
C29_2 C24_2 1_555 1_555
C31_2 C25_2 1_555 1_555
C32_2 C27_2 1_555 1_555
H47_2 C32_2 1_555 1_555
H48_2 C32_2 1_555 1_555
C33_2 O8_2 1_555 1_555
C50_2 C51_2 1_555 1_555
C51_2 H67_2 1_555 1_555
C52_2 N2_2 1_555 1_555
H68_2 C52_2 1_555 1_555
C53_2 N2_2 1_555 1_555
H69_2 C53_2 1_555 1_555
C54_2 C50_2 1_555 1_555
H70_2 C54_2 1_555 1_555
C60_2 C50_2 1_555 1_555
C61_2 C60_2 1_555 1_555
H75_2 C61_2 1_555 1_555
C62_2 C61_2 1_555 1_555
C64_2 C60_2 1_555 1_555
H78_2 C64_2 1_555 1_555
O9_2 C33_2 1_555 1_555
C23_2 C33_2 1_555 1_555
C26_2 C27_2 1_555 1_555
C28_2 C29_2 1_555 1_555
C31_2 C32_2 1_555 1_555
C51_2 C52_2 1_555 1_555
C53_2 C54_2 1_555 1_555
C56_2 H72_2 1_555 1_555
C58_2 C56_2 1_555 1_555
H74_2 C58_2 1_555 1_555
C56_2 C59_2 1_555 1_555

#END
