
###############################################################################
#
# This file contains modified crystal structure data generated from the
# MOF subset of the Cambridge Structural Database (CSD) v543 
# hosted by the Cambridge Crystallographic Data Centre (CCDC).
#
# This work is licensed under the Creative Commons
# Attribution-NonCommercial-ShareAlike 4.0 International License.
# To view a copy of this license, visit
# http://creativecommons.org/licenses/by-nc-sa/4.0/
# or send a letter to
# Creative Commons, PO Box 1866, Mountain View, CA 94042, USA.
#
# CIF created using the CSD Python API on 29 September 2022
# The structure has been converted into the P1 space group
# The structure has a 3D framework
# The original CSD entry UREMUC is in the orthorhombic crystal system
# The framework has been calculated to contain at least 10.0% void space
# The void calculation uses a probe of radius 1.32A, grid spacing 0.4
# H atom positions have been added when not included in the experimental data
#
###############################################################################

data_UREMUC
_chemical_formula_moiety         '(C240 H240 Cu8 N48 Nd8 O332 P8 W88)n'
_symmetry_cell_setting           triclinic
_symmetry_space_group_name_H-M   'P 1'
_symmetry_Int_Tables_number      1
_space_group_name_Hall           'P 1'
loop_
_symmetry_equiv_pos_site_id
_symmetry_equiv_pos_as_xyz
1 x,y,z
_cell_length_a                   36.912(4)
_cell_length_b                   19.180(2)
_cell_length_c                   22.158(3)
_cell_angle_alpha                90
_cell_angle_beta                 90
_cell_angle_gamma                90
_cell_volume                     15687.2
loop_
_atom_site_label
_atom_site_type_symbol
_atom_site_fract_x
_atom_site_fract_y
_atom_site_fract_z
O63 O 0.0076(3) 0.0486(5) 0.9184(4)
Nd4 Nd 0.05894(2) 0.12168(4) 0.96034(4)
C2 C 0.6362(6) 0.0418(10) 0.1412(7)
H1 H 0.638077 0.013156 0.176609
C4 C 0.6548(5) 0.0229(9) 0.0895(8)
H8 H 0.722269 0.005289 0.053099
C13 C 0.6313(5) 0.1244(10) 0.0417(9)
H9 H 0.627966 0.152868 0.006517
C14 C 0.6533(5) 0.0690(9) 0.0407(7)
H10 H 0.669045 0.060984 0.006894
C15 C 0.6133(7) 0.0993(12) 0.1399(10)
H11 H 0.599692 0.111302 0.175382
N3 N 0.6125(5) 0.1399(8) 0.0926(8)
W4 W 0.59278(2) 0.41796(3) 0.03872(2)
W5 W 0.68483(2) 0.44518(3) 0.03791(2)
W8 W 0.66358(2) 0.63468(3) 0.01784(2)
Nd1 Nd 0.55894(2) 0.62168(4) 0.03966(4)
Cu1 Cu 0.750000 0.750000 0.07302(9)
O1 O 0.6403(3) 0.4198(5) 0.0763(4)
O2 O 0.5840(2) 0.5074(4) 0.0525(4)
O3 O 0.6731(3) 0.5408(5) 0.0471(4)
O13 O 0.6836(2) 0.3541(4) 0.0012(4)
O16 O 0.5670(3) 0.3754(5) 0.0918(4)
O17 O 0.6222(3) 0.6419(5) 0.0576(4)
O30 O 0.7148(3) 0.4327(5) 0.0953(4)
O38 O 0.5012(3) 0.6760(6) 0.0049(7)
O39 O 0.5638(4) 0.6291(7) 0.1500(5)
O40 O 0.5611(4) 0.7502(6) 0.0692(6)
O42 O 0.6933(2) 0.6821(5) 0.0622(4)
C8 C 0.6771(5) 0.9588(7) 0.0874(6)
C9 C 0.6852(4) 0.8347(8) 0.0985(7)
H5 H 0.675273 0.790151 0.109297
C10 C 0.6635(5) 0.8942(8) 0.1039(7)
H6 H 0.639287 0.890686 0.119288
C11 C 0.7318(5) 0.9009(8) 0.0625(7)
H7 H 0.756537 0.903456 0.049052
C12 C 0.7121(4) 0.9616(7) 0.0658(7)
N2 N 0.7189(3) 0.8383(6) 0.0778(5)
C26 C 0.750000 0.250000 0.0488(8)
C31 C 0.7226(4) 0.2162(8) 0.0796(6)
H23 H 0.703440 0.193058 0.058250
C32 C 0.7241(4) 0.2172(7) 0.1423(6)
H24 H 0.705676 0.193080 0.164482
N8 N 0.750000 0.250000 0.1729(6)
C39 C 0.7774(4) 0.2838(8) 0.0796(6)
H31 H 0.796560 0.306942 0.058250
C40 C 0.7759(4) 0.2828(7) 0.1423(6)
H32 H 0.794324 0.306920 0.164482
W15 W 0.90722(2) 0.08204(3) 0.03872(2)
W16 W 0.81517(2) 0.05482(3) 0.03791(2)
O43 O 0.8597(3) 0.0802(5) 0.0763(4)
O55 O 0.8164(2) 0.1459(4) 0.0012(4)
O58 O 0.9330(3) 0.1246(5) 0.0918(4)
O72 O 0.7852(3) 0.0673(5) 0.0953(4)
C51 C 0.8638(6) 0.4582(10) 0.1412(7)
H41 H 0.861923 0.486844 0.176609
C52 C 0.8452(5) 0.4771(9) 0.0895(8)
C53 C 0.8229(5) 0.5412(7) 0.0874(6)
C54 C 0.8148(4) 0.6653(8) 0.0985(7)
H42 H 0.824727 0.709849 0.109297
C55 C 0.8365(5) 0.6058(8) 0.1039(7)
H43 H 0.860713 0.609314 0.119288
C56 C 0.7682(5) 0.5991(8) 0.0625(7)
H44 H 0.743463 0.596544 0.049052
C57 C 0.7879(4) 0.5384(7) 0.0658(7)
H45 H 0.777731 0.494711 0.053099
C58 C 0.8687(5) 0.3756(10) 0.0417(9)
H46 H 0.872034 0.347132 0.006517
C59 C 0.8467(5) 0.4310(9) 0.0407(7)
H47 H 0.830955 0.439016 0.006894
C60 C 0.8867(7) 0.4007(12) 0.1399(10)
H48 H 0.900308 0.388698 0.175382
N11 N 0.7811(3) 0.6617(6) 0.0778(5)
N12 N 0.8875(5) 0.3601(8) 0.0926(8)
O85 O 0.5076(3) 0.5486(5) 0.0816(4)
O87 O 0.8067(2) 0.8179(5) 0.0622(4)
N13 N 0.750000 0.750000 0.1638(7)
Cu5 Cu 0.750000 0.250000 0.26452(9)
H49 H 0.585243 0.769712 0.0589296
H50 H 0.542038 0.776094 0.0468921
H51 H 0.589531 0.623495 0.162141
H52 H 0.554794 0.675215 0.163781
H53 H 0.480968 0.659912 0.0309484
H54 H 0.503243 0.727539 0.00745386
W1 W 0.72684(2) 0.54004(3) 0.91151(2)
W2 W 0.69182(2) 0.41998(3) 0.81277(2)
W3 W 0.59329(2) 0.38222(3) 0.81178(2)
W6 W 0.57848(2) 0.55647(3) 0.78982(2)
W7 W 0.67600(2) 0.59447(3) 0.79271(2)
W9 W 0.53739(2) 0.47403(3) 0.91085(3)
W10 W 0.64934(2) 0.32493(3) 0.94199(2)
W11 W 0.61332(2) 0.68792(3) 0.90003(3)
P1 P 0.63199(9) 0.50870(16) 0.91484(14)
O4 O 0.6915(2) 0.5024(4) 0.7642(4)
O5 O 0.6135(3) 0.3352(4) 0.8783(4)
O6 O 0.5604(3) 0.4160(5) 0.9693(4)
O7 O 0.6128(3) 0.3295(5) 0.9988(4)
O8 O 0.7160(3) 0.4731(5) 0.9743(4)
O9 O 0.7302(2) 0.4604(4) 0.8576(4)
O10 O 0.6536(3) 0.6548(4) 0.8462(4)
O11 O 0.7197(3) 0.5931(4) 0.8384(4)
O12 O 0.5834(3) 0.3167(5) 0.7625(4)
O14 O 0.6425(2) 0.4042(4) 0.7918(4)
O15 O 0.7019(3) 0.6045(5) 0.9566(4)
O18 O 0.5798(3) 0.4619(5) 0.7615(4)
O19 O 0.6265(2) 0.5788(4) 0.9455(4)
O20 O 0.5422(3) 0.5498(5) 0.9542(4)
O21 O 0.4924(3) 0.4514(5) 0.9184(4)
O22 O 0.6274(3) 0.5647(5) 0.7687(4)
O23 O 0.5993(2) 0.4894(4) 0.8756(4)
O24 O 0.6659(2) 0.5109(4) 0.8740(4)
O25 O 0.5498(3) 0.3938(4) 0.8527(4)
O26 O 0.6811(2) 0.3636(4) 0.8813(4)
O27 O 0.6370(2) 0.4500(4) 0.9626(4)
O28 O 0.6877(3) 0.6464(5) 0.7340(4)
O29 O 0.5360(3) 0.5266(5) 0.8356(4)
O31 O 0.6507(3) 0.7030(5) 0.9580(4)
O32 O 0.6584(3) 0.2376(5) 0.9377(4)
O33 O 0.7147(2) 0.3621(5) 0.7674(4)
O34 O 0.7714(3) 0.5557(5) 0.9250(4)
O35 O 0.5774(3) 0.6879(5) 0.9534(4)
O36 O 0.5849(3) 0.6310(5) 0.8432(4)
O37 O 0.6098(3) 0.7695(5) 0.8687(5)
O41 O 0.5566(3) 0.5966(5) 0.7300(4)
C1 C 0.750000 0.750000 0.8563(8)
C3 C 0.750000 0.750000 0.7906(8)
C5 C 0.7217(4) 0.7744(6) 0.9509(6)
H2 H 0.701430 0.792774 0.972979
C6 C 0.7203(4) 0.7753(6) 0.8880(6)
H3 H 0.699302 0.792326 0.866956
C7 C 0.7326(4) 0.8009(7) 0.7565(6)
H4 H 0.720381 0.838041 0.777132
N1 N 0.750000 0.750000 0.9825(6)
C16 C 0.7321(4) 0.7994(7) 0.6938(6)
H12 H 0.719033 0.834257 0.671576
N4 N 0.750000 0.750000 0.6638(7)
Cu2 Cu 0.750000 0.250000 0.76452(9)
C17 C 0.7407(4) 0.1900(7) 0.9487(5)
H13 H 0.734417 0.147857 0.969603
C18 C 0.5565(5) 0.0235(10) 0.7003(7)
C19 C 0.6626(4) 0.1149(8) 0.7158(7)
H15 H 0.659139 0.077711 0.687349
C20 C 0.6405(4) 0.1920(7) 0.7913(6)
H16 H 0.621274 0.208388 0.816878
C21 C 0.5663(5) 0.1519(10) 0.7508(9)
H17 H 0.569429 0.196961 0.768963
C22 C 0.7406(4) 0.1921(7) 0.8867(6)
H18 H 0.733624 0.151085 0.864741
C23 C 0.6746(4) 0.2193(7) 0.7950(6)
H19 H 0.678676 0.256474 0.823141
C24 C 0.6337(4) 0.1390(7) 0.7486(7)
C25 C 0.6958(4) 0.1443(7) 0.7243(6)
H20 H 0.715721 0.126304 0.701328
C27 C 0.5910(5) 0.0461(9) 0.7146(7)
H21 H 0.611356 0.016047 0.707653
C28 C 0.5966(4) 0.1103(7) 0.7403(7)
C29 C 0.750000 0.250000 0.9813(8)
C30 C 0.5326(5) 0.1291(9) 0.7366(10)
H22 H 0.511797 0.158028 0.743748
N5 N 0.5279(4) 0.0644(8) 0.7113(6)
N6 N 0.750000 0.250000 0.8559(7)
N7 N 0.7027(3) 0.1982(6) 0.7625(5)
C33 C 0.7783(4) 0.7256(6) 0.9509(6)
H25 H 0.798570 0.707226 0.972979
C34 C 0.7797(4) 0.7247(6) 0.8880(6)
H26 H 0.800698 0.707674 0.866956
C35 C 0.7674(4) 0.6991(7) 0.7565(6)
H27 H 0.779619 0.661959 0.777132
C36 C 0.7679(4) 0.7006(7) 0.6938(6)
H28 H 0.780967 0.665743 0.671576
C37 C 0.7593(4) 0.3100(7) 0.9487(5)
H29 H 0.765583 0.352143 0.969603
C38 C 0.7594(4) 0.3079(7) 0.8867(6)
H30 H 0.766376 0.348915 0.864741
W13 W 0.80818(2) 0.08002(3) 0.81277(2)
W14 W 0.90671(2) 0.11778(3) 0.81178(2)
W20 W 0.96261(2) 0.02597(3) 0.91085(3)
W21 W 0.85066(2) 0.17507(3) 0.94199(2)
O47 O 0.8865(3) 0.1648(4) 0.8783(4)
O48 O 0.9396(3) 0.0840(5) 0.9693(4)
O49 O 0.8872(3) 0.1705(5) 0.9988(4)
O50 O 0.7840(3) 0.0269(5) 0.9743(4)
O51 O 0.7698(2) 0.0396(4) 0.8576(4)
O54 O 0.9166(3) 0.1833(5) 0.7625(4)
O56 O 0.8575(2) 0.0958(4) 0.7918(4)
O60 O 0.9202(3) 0.0381(5) 0.7615(4)
O65 O 0.9007(2) 0.0106(4) 0.8756(4)
O67 O 0.9502(3) 0.1062(4) 0.8527(4)
O68 O 0.8189(2) 0.1364(4) 0.8813(4)
O69 O 0.8630(2) 0.0500(4) 0.9626(4)
O74 O 0.8416(3) 0.2624(5) 0.9377(4)
O75 O 0.7853(2) 0.1379(5) 0.7674(4)
C41 C 0.9435(5) 0.4765(10) 0.7003(7)
H33 H 0.947433 0.521013 0.681598
C42 C 0.8374(4) 0.3851(8) 0.7158(7)
H34 H 0.840861 0.422289 0.687349
C43 C 0.8595(4) 0.3080(7) 0.7913(6)
H35 H 0.878726 0.291612 0.816878
C44 C 0.9337(5) 0.3481(10) 0.7508(9)
H36 H 0.930571 0.303039 0.768963
C45 C 0.8254(4) 0.2807(7) 0.7950(6)
H37 H 0.821324 0.243526 0.823141
C46 C 0.8663(4) 0.3610(7) 0.7486(7)
C47 C 0.8042(4) 0.3557(7) 0.7243(6)
H38 H 0.784279 0.373696 0.701328
C48 C 0.9090(5) 0.4539(9) 0.7146(7)
H39 H 0.888644 0.483953 0.707653
C49 C 0.9034(4) 0.3897(7) 0.7403(7)
C50 C 0.9674(5) 0.3709(9) 0.7366(10)
H40 H 0.988203 0.341972 0.743748
N9 N 0.9721(4) 0.4356(8) 0.7113(6)
N10 N 0.7973(3) 0.3018(6) 0.7625(5)
Nd3 Nd 0.44106(2) 0.37832(4) 0.96034(4)
Cu4 Cu 0.750000 0.750000 0.57302(9)
N14 N 0.750000 0.250000 0.6729(6)
W19 W 0.83642(2) 0.86532(3) 0.01784(2)
Nd2 Nd 0.94106(2) 0.87832(4) 0.03966(4)
O44 O 0.9160(2) 0.9926(4) 0.0525(4)
O45 O 0.8269(3) 0.9592(5) 0.0471(4)
O59 O 0.8778(3) 0.8581(5) 0.0576(4)
O80 O 0.9988(3) 0.8240(6) 0.0049(7)
O81 O 0.9362(4) 0.8709(7) 0.1500(5)
O82 O 0.9389(4) 0.7498(6) 0.0692(6)
O86 O 0.9924(3) 0.9514(5) 0.0816(4)
H55 H 0.914757 0.730288 0.0589296
H56 H 0.957962 0.723906 0.0468921
H57 H 0.910469 0.876505 0.162141
H58 H 0.945206 0.824785 0.163781
H60 H 0.996757 0.772461 0.00745386
H14 H 0.552567 0.978987 0.681598
W12 W 0.77316(2) 0.95996(3) 0.91151(2)
W17 W 0.92152(2) 0.94353(3) 0.78982(2)
W18 W 0.82400(2) 0.90553(3) 0.79271(2)
W22 W 0.88668(2) 0.81208(3) 0.90003(3)
P2 P 0.86801(9) 0.99130(16) 0.91484(14)
O46 O 0.8085(2) 0.9976(4) 0.7642(4)
O52 O 0.8464(3) 0.8452(4) 0.8462(4)
O53 O 0.7803(3) 0.9069(4) 0.8384(4)
O57 O 0.7981(3) 0.8955(5) 0.9566(4)
O61 O 0.8735(2) 0.9212(4) 0.9455(4)
O62 O 0.9578(3) 0.9502(5) 0.9542(4)
O64 O 0.8726(3) 0.9353(5) 0.7687(4)
O66 O 0.8341(2) 0.9891(4) 0.8740(4)
O70 O 0.8123(3) 0.8536(5) 0.7340(4)
O71 O 0.9640(3) 0.9734(5) 0.8356(4)
O73 O 0.8493(3) 0.7970(5) 0.9580(4)
O76 O 0.7286(3) 0.9443(5) 0.9250(4)
O77 O 0.9226(3) 0.8121(5) 0.9534(4)
O78 O 0.9151(3) 0.8690(5) 0.8432(4)
O79 O 0.8902(3) 0.7305(5) 0.8687(5)
O83 O 0.9434(3) 0.9034(5) 0.7300(4)
W1_2 W 0.27316(2) 0.04004(3) 0.58849(2)
W6_2 W 0.42152(2) 0.05647(3) 0.71018(2)
W7_2 W 0.32400(2) 0.09447(3) 0.70729(2)
W8_2 W 0.33642(2) 0.13468(3) 0.48216(2)
W11_2 W 0.38668(2) 0.18792(3) 0.59997(3)
Nd1_2 Nd 0.44106(2) 0.12168(4) 0.46034(4)
Cu1_2 Cu 0.250000 0.250000 0.42698(9)
P1_2 P 0.36801(9) 0.00870(16) 0.58516(14)
O2_2 O 0.4160(2) 0.0074(4) 0.4475(4)
O3_2 O 0.3269(3) 0.0408(5) 0.4529(4)
O4_2 O 0.3085(2) 0.0024(4) 0.7358(4)
O10_2 O 0.3464(3) 0.1548(4) 0.6538(4)
O11_2 O 0.2803(3) 0.0931(4) 0.6616(4)
O15_2 O 0.2981(3) 0.1045(5) 0.5434(4)
O17_2 O 0.3778(3) 0.1419(5) 0.4424(4)
O19_2 O 0.3735(2) 0.0788(4) 0.5545(4)
O20_2 O 0.4578(3) 0.0498(5) 0.5458(4)
O22_2 O 0.3726(3) 0.0647(5) 0.7313(4)
O24_2 O 0.3341(2) 0.0109(4) 0.6260(4)
O28_2 O 0.3123(3) 0.1464(5) 0.7660(4)
O29_2 O 0.4640(3) 0.0266(5) 0.6644(4)
O31_2 O 0.3493(3) 0.2030(5) 0.5420(4)
O34_2 O 0.2286(3) 0.0557(5) 0.5750(4)
O35_2 O 0.4226(3) 0.1879(5) 0.5466(4)
O36_2 O 0.4151(3) 0.1310(5) 0.6568(4)
O37_2 O 0.3902(3) 0.2695(5) 0.6313(5)
O38_2 O 0.4988(3) 0.1760(6) 0.4951(7)
O39_2 O 0.4362(4) 0.1291(7) 0.3500(5)
O40_2 O 0.4389(4) 0.2502(6) 0.4308(6)
O41_2 O 0.4434(3) 0.0966(5) 0.7700(4)
O42_2 O 0.3067(2) 0.1821(5) 0.4378(4)
C1_2 C 0.250000 0.250000 0.6437(8)
C2_2 C 0.3638(6) 0.5418(10) 0.3588(7)
H1_2 H 0.361923 0.513156 0.323391
C3_2 C 0.250000 0.250000 0.7094(8)
C4_2 C 0.3452(5) 0.5229(9) 0.4105(8)
C5_2 C 0.2783(4) 0.2744(6) 0.5491(6)
H2_2 H 0.298570 0.292774 0.527021
C6_2 C 0.2797(4) 0.2753(6) 0.6120(6)
H3_2 H 0.300698 0.292326 0.633044
C7_2 C 0.2674(4) 0.3009(7) 0.7435(6)
H4_2 H 0.279619 0.338041 0.722868
C8_2 C 0.3229(5) 0.4588(7) 0.4126(6)
C9_2 C 0.3148(4) 0.3347(8) 0.4015(7)
H5_2 H 0.324727 0.290151 0.390703
C10_2 C 0.3365(5) 0.3942(8) 0.3961(7)
H6_2 H 0.360713 0.390686 0.380712
C11_2 C 0.2682(5) 0.4009(8) 0.4375(7)
H7_2 H 0.243463 0.403456 0.450948
C12_2 C 0.2879(4) 0.4616(7) 0.4342(7)
H8_2 H 0.277731 0.505289 0.446901
C13_2 C 0.3687(5) 0.6244(10) 0.4583(9)
H9_2 H 0.372034 0.652868 0.493483
C14_2 C 0.3467(5) 0.5690(9) 0.4593(7)
H10_2 H 0.330955 0.560984 0.493106
C15_2 C 0.3867(7) 0.5993(12) 0.3601(10)
H11_2 H 0.400308 0.611302 0.324618
N1_2 N 0.250000 0.250000 0.5175(6)
N2_2 N 0.2811(3) 0.3383(6) 0.4222(5)
N3_2 N 0.3875(5) 0.6399(8) 0.4074(8)
C16_2 C 0.2679(4) 0.2994(7) 0.8062(6)
H12_2 H 0.280967 0.334257 0.828424
N4_2 N 0.250000 0.250000 0.8362(7)
C33_2 C 0.2217(4) 0.2256(6) 0.5491(6)
H25_2 H 0.201430 0.207226 0.527021
C34_2 C 0.2203(4) 0.2247(6) 0.6120(6)
H26_2 H 0.199302 0.207674 0.633044
C35_2 C 0.2326(4) 0.1991(7) 0.7435(6)
H27_2 H 0.220381 0.161959 0.722868
C36_2 C 0.2321(4) 0.2006(7) 0.8062(6)
H28_2 H 0.219033 0.165743 0.828424
H33_2 H 0.052567 0.021013 0.818402
C53_2 C 0.1771(5) 0.0412(7) 0.4126(6)
C54_2 C 0.1852(4) 0.1653(8) 0.4015(7)
H42_2 H 0.175273 0.209849 0.390703
C55_2 C 0.1635(5) 0.1058(8) 0.3961(7)
H43_2 H 0.139287 0.109314 0.380712
C56_2 C 0.2318(5) 0.0991(8) 0.4375(7)
H44_2 H 0.256537 0.096544 0.450948
C57_2 C 0.2121(4) 0.0384(7) 0.4342(7)
N11_2 N 0.2189(3) 0.1617(6) 0.4222(5)
Cu4_2 Cu 0.250000 0.250000 0.92698(9)
O85_2 O 0.4924(3) 0.0486(5) 0.4184(4)
O87_2 O 0.1933(2) 0.3179(5) 0.4378(4)
N13_2 N 0.250000 0.250000 0.3362(7)
H49_2 H 0.414757 0.269712 0.44107
H50_2 H 0.457962 0.276094 0.453108
H51_2 H 0.410469 0.123495 0.337859
H52_2 H 0.445206 0.175215 0.336219
H53_2 H 0.519032 0.159912 0.469052
H54_2 H 0.496757 0.227539 0.492546
W2_2 W 0.30818(2) 0.91998(3) 0.68723(2)
W3_2 W 0.40671(2) 0.88222(3) 0.68822(2)
W4_2 W 0.40722(2) 0.91796(3) 0.46128(2)
W5_2 W 0.31517(2) 0.94518(3) 0.46209(2)
W9_2 W 0.46261(2) 0.97403(3) 0.58915(3)
W10_2 W 0.35066(2) 0.82493(3) 0.55801(2)
O1_2 O 0.3597(3) 0.9198(5) 0.4237(4)
O5_2 O 0.3865(3) 0.8352(4) 0.6217(4)
O6_2 O 0.4396(3) 0.9160(5) 0.5307(4)
O7_2 O 0.3872(3) 0.8295(5) 0.5012(4)
O8_2 O 0.2840(3) 0.9731(5) 0.5257(4)
O9_2 O 0.2698(2) 0.9604(4) 0.6424(4)
O12_2 O 0.4166(3) 0.8167(5) 0.7375(4)
O13_2 O 0.3164(2) 0.8541(4) 0.4988(4)
O14_2 O 0.3575(2) 0.9042(4) 0.7082(4)
O16_2 O 0.4330(3) 0.8754(5) 0.4082(4)
O18_2 O 0.4202(3) 0.9619(5) 0.7385(4)
O21_2 O 0.5076(3) 0.9514(5) 0.5816(4)
O23_2 O 0.4007(2) 0.9894(4) 0.6244(4)
O25_2 O 0.4502(3) 0.8938(4) 0.6473(4)
O26_2 O 0.3189(2) 0.8636(4) 0.6187(4)
O27_2 O 0.3630(2) 0.9500(4) 0.5374(4)
O30_2 O 0.2852(3) 0.9327(5) 0.4047(4)
O32_2 O 0.3416(3) 0.7376(5) 0.5623(4)
O33_2 O 0.2853(2) 0.8621(5) 0.7326(4)
Cu2_2 Cu 0.250000 0.750000 0.73548(9)
C17_2 C 0.2593(4) 0.6900(7) 0.5513(5)
H13_2 H 0.265583 0.647857 0.530397
C18_2 C 0.4435(5) 0.5235(10) 0.7997(7)
H14_2 H 0.447433 0.478987 0.818402
C19_2 C 0.3374(4) 0.6149(8) 0.7842(7)
H15_2 H 0.340861 0.577711 0.812651
C20_2 C 0.3595(4) 0.6920(7) 0.7087(6)
H16_2 H 0.378726 0.708388 0.683122
C21_2 C 0.4337(5) 0.6519(10) 0.7492(9)
H17_2 H 0.430571 0.696961 0.731037
C22_2 C 0.2594(4) 0.6921(7) 0.6133(6)
H18_2 H 0.266376 0.651085 0.635259
C23_2 C 0.3254(4) 0.7193(7) 0.7050(6)
H19_2 H 0.321324 0.756474 0.676859
C24_2 C 0.3663(4) 0.6390(7) 0.7514(7)
C25_2 C 0.3042(4) 0.6443(7) 0.7757(6)
H20_2 H 0.284279 0.626304 0.798672
C26_2 C 0.250000 0.750000 0.4512(8)
C27_2 C 0.4090(5) 0.5461(9) 0.7854(7)
H21_2 H 0.388644 0.516047 0.792347
C28_2 C 0.4034(4) 0.6103(7) 0.7597(7)
C29_2 C 0.250000 0.750000 0.5187(8)
C30_2 C 0.4674(5) 0.6291(9) 0.7634(10)
H22_2 H 0.488203 0.658028 0.756252
N5_2 N 0.4721(4) 0.5644(8) 0.7887(6)
N6_2 N 0.250000 0.750000 0.6441(7)
N7_2 N 0.2973(3) 0.6982(6) 0.7375(5)
C31_2 C 0.2774(4) 0.7162(8) 0.4204(6)
H23_2 H 0.296560 0.693058 0.441750
C32_2 C 0.2759(4) 0.7172(7) 0.3577(6)
H24_2 H 0.294324 0.693080 0.335518
N8_2 N 0.250000 0.750000 0.3271(6)
C37_2 C 0.2407(4) 0.8100(7) 0.5513(5)
H29_2 H 0.234417 0.852143 0.530397
C38_2 C 0.2406(4) 0.8079(7) 0.6133(6)
H30_2 H 0.233624 0.848915 0.635259
C39_2 C 0.2226(4) 0.7838(8) 0.4204(6)
H31_2 H 0.203440 0.806942 0.441750
C40_2 C 0.2241(4) 0.7828(7) 0.3577(6)
H32_2 H 0.205676 0.806920 0.335518
W12_2 W 0.22684(2) 0.45996(3) 0.58849(2)
W13_2 W 0.19182(2) 0.58002(3) 0.68723(2)
W14_2 W 0.09329(2) 0.61778(3) 0.68822(2)
W15_2 W 0.09278(2) 0.58204(3) 0.46128(2)
W16_2 W 0.18483(2) 0.55482(3) 0.46209(2)
W17_2 W 0.07848(2) 0.44353(3) 0.71018(2)
W18_2 W 0.17600(2) 0.40553(3) 0.70729(2)
W19_2 W 0.16358(2) 0.36532(3) 0.48216(2)
W20_2 W 0.03739(2) 0.52597(3) 0.58915(3)
W21_2 W 0.14934(2) 0.67507(3) 0.55801(2)
W22_2 W 0.11332(2) 0.31208(3) 0.59997(3)
Nd2_2 Nd 0.05894(2) 0.37832(4) 0.46034(4)
P2_2 P 0.13199(9) 0.49130(16) 0.58516(14)
O43_2 O 0.1403(3) 0.5802(5) 0.4237(4)
O44_2 O 0.0840(2) 0.4926(4) 0.4475(4)
O45_2 O 0.1731(3) 0.4592(5) 0.4529(4)
O46_2 O 0.1915(2) 0.4976(4) 0.7358(4)
O47_2 O 0.1135(3) 0.6648(4) 0.6217(4)
O48_2 O 0.0604(3) 0.5840(5) 0.5307(4)
O49_2 O 0.1128(3) 0.6705(5) 0.5012(4)
O50_2 O 0.2160(3) 0.5269(5) 0.5257(4)
O51_2 O 0.2302(2) 0.5396(4) 0.6424(4)
O52_2 O 0.1536(3) 0.3452(4) 0.6538(4)
O53_2 O 0.2197(3) 0.4069(4) 0.6616(4)
O54_2 O 0.0834(3) 0.6833(5) 0.7375(4)
O55_2 O 0.1836(2) 0.6459(4) 0.4988(4)
O56_2 O 0.1425(2) 0.5958(4) 0.7082(4)
O57_2 O 0.2019(3) 0.3955(5) 0.5434(4)
O58_2 O 0.0670(3) 0.6246(5) 0.4082(4)
O59_2 O 0.1222(3) 0.3581(5) 0.4424(4)
O60_2 O 0.0798(3) 0.5381(5) 0.7385(4)
O61_2 O 0.1265(2) 0.4212(4) 0.5545(4)
O62_2 O 0.0422(3) 0.4502(5) 0.5458(4)
O64_2 O 0.1274(3) 0.4353(5) 0.7313(4)
O65_2 O 0.0993(2) 0.5106(4) 0.6244(4)
O66_2 O 0.1659(2) 0.4891(4) 0.6260(4)
O67_2 O 0.0498(3) 0.6062(4) 0.6473(4)
O68_2 O 0.1811(2) 0.6364(4) 0.6187(4)
O69_2 O 0.1370(2) 0.5500(4) 0.5374(4)
O70_2 O 0.1877(3) 0.3536(5) 0.7660(4)
O71_2 O 0.0360(3) 0.4734(5) 0.6644(4)
O72_2 O 0.2148(3) 0.5673(5) 0.4047(4)
O73_2 O 0.1507(3) 0.2970(5) 0.5420(4)
O74_2 O 0.1584(3) 0.7624(5) 0.5623(4)
O75_2 O 0.2147(2) 0.6379(5) 0.7326(4)
O76_2 O 0.2714(3) 0.4443(5) 0.5750(4)
O77_2 O 0.0774(3) 0.3121(5) 0.5466(4)
O78_2 O 0.0849(3) 0.3690(5) 0.6568(4)
O79_2 O 0.1098(3) 0.2305(5) 0.6313(5)
O80_2 O 0.0012(3) 0.3240(6) 0.4951(7)
O81_2 O 0.0638(4) 0.3709(7) 0.3500(5)
O82_2 O 0.0611(4) 0.2498(6) 0.4308(6)
O83_2 O 0.0566(3) 0.4034(5) 0.7700(4)
C41_2 C 0.0565(5) 0.9765(10) 0.7997(7)
C42_2 C 0.1626(4) 0.8851(8) 0.7842(7)
H34_2 H 0.159139 0.922289 0.812651
C43_2 C 0.1405(4) 0.8080(7) 0.7087(6)
H35_2 H 0.121274 0.791612 0.683122
C44_2 C 0.0663(5) 0.8481(10) 0.7492(9)
H36_2 H 0.069429 0.803039 0.731037
C45_2 C 0.1746(4) 0.7807(7) 0.7050(6)
H37_2 H 0.178676 0.743526 0.676859
C46_2 C 0.1337(4) 0.8610(7) 0.7514(7)
C47_2 C 0.1958(4) 0.8557(7) 0.7757(6)
H38_2 H 0.215721 0.873696 0.798672
C48_2 C 0.0910(5) 0.9539(9) 0.7854(7)
H39_2 H 0.111356 0.983953 0.792347
C49_2 C 0.0966(4) 0.8897(7) 0.7597(7)
C50_2 C 0.0326(5) 0.8709(9) 0.7634(10)
H40_2 H 0.011797 0.841972 0.756252
N9_2 N 0.0279(4) 0.9356(8) 0.7887(6)
N10_2 N 0.2027(3) 0.8018(6) 0.7375(5)
C51_2 C 0.1362(6) 0.9582(10) 0.3588(7)
H41_2 H 0.138077 0.986844 0.323391
C52_2 C 0.1548(5) 0.9771(9) 0.4105(8)
H45_2 H 0.222269 0.994711 0.446901
C58_2 C 0.1313(5) 0.8756(10) 0.4583(9)
H46_2 H 0.127966 0.847132 0.493483
C59_2 C 0.1533(5) 0.9310(9) 0.4593(7)
H47_2 H 0.169045 0.939016 0.493106
C60_2 C 0.1133(7) 0.9007(12) 0.3601(10)
H48_2 H 0.099692 0.888698 0.324618
N12_2 N 0.1125(5) 0.8601(8) 0.4074(8)
Nd3_2 Nd 0.55894(2) 0.87832(4) 0.53966(4)
O86_2 O 0.0076(3) 0.4514(5) 0.4184(4)
Cu5_2 Cu 0.250000 0.750000 0.23548(9)
N14_2 N 0.250000 0.750000 0.8271(6)
H55_2 H 0.0852434 0.230288 0.44107
H56_2 H 0.0420383 0.223906 0.453108
H57_2 H 0.0895315 0.376505 0.337859
H58_2 H 0.0547942 0.324785 0.336219
H60_2 H 0.00324294 0.272461 0.492546
O63_2 O 0.9924(3) 0.5486(5) 0.5816(4)
Nd4_2 Nd 0.94106(2) 0.62168(4) 0.53966(4)
H59 H 0.980968 0.340088 0.469052
H14_3 H 0.447433 0.021013 0.318402
W12_3 W 0.22684(2) 0.04004(3) 0.08849(2)
W17_3 W 0.07848(2) 0.05647(3) 0.21018(2)
W18_3 W 0.17600(2) 0.09447(3) 0.20729(2)
W22_3 W 0.11332(2) 0.18792(3) 0.09997(3)
P2_3 P 0.13199(9) 0.00870(16) 0.08516(14)
O46_3 O 0.1915(2) 0.0024(4) 0.2358(4)
O52_3 O 0.1536(3) 0.1548(4) 0.1538(4)
O53_3 O 0.2197(3) 0.0931(4) 0.1616(4)
O57_3 O 0.2019(3) 0.1045(5) 0.0434(4)
O61_3 O 0.1265(2) 0.0788(4) 0.0545(4)
O62_3 O 0.0422(3) 0.0498(5) 0.0458(4)
O64_3 O 0.1274(3) 0.0647(5) 0.2313(4)
O66_3 O 0.1659(2) 0.0109(4) 0.1260(4)
O70_3 O 0.1877(3) 0.1464(5) 0.2660(4)
O71_3 O 0.0360(3) 0.0266(5) 0.1644(4)
O73_3 O 0.1507(3) 0.2030(5) 0.0420(4)
O76_3 O 0.2714(3) 0.0557(5) 0.0750(4)
O77_3 O 0.0774(3) 0.1879(5) 0.0466(4)
O78_3 O 0.0849(3) 0.1310(5) 0.1568(4)
O79_3 O 0.1098(3) 0.2695(5) 0.1313(5)
O83_3 O 0.0566(3) 0.0966(5) 0.2700(4)
W19_3 W 0.16358(2) 0.13468(3) 0.98216(2)
O44_3 O 0.0840(2) 0.0074(4) 0.9475(4)
O45_3 O 0.1731(3) 0.0408(5) 0.9529(4)
O59_3 O 0.1222(3) 0.1419(5) 0.9424(4)
O80_3 O 0.0012(3) 0.1760(6) 0.9951(7)
O81_3 O 0.0638(4) 0.1291(7) 0.8500(5)
O82_3 O 0.0611(4) 0.2502(6) 0.9308(6)
O84 O 0.1933(2) 0.1821(5) 0.9378(4)
H55_3 H 0.0852434 0.269712 0.94107
H56_3 H 0.0420383 0.276094 0.953108
H57_3 H 0.0895315 0.123495 0.837859
H58_3 H 0.0547942 0.175215 0.836219
H60_3 H 0.00324294 0.227539 0.992546
W1_3 W 0.27316(2) 0.45996(3) 0.08849(2)
W2_3 W 0.30818(2) 0.58002(3) 0.18723(2)
W3_3 W 0.40671(2) 0.61778(3) 0.18822(2)
W6_3 W 0.42152(2) 0.44353(3) 0.21018(2)
W7_3 W 0.32400(2) 0.40553(3) 0.20729(2)
W9_3 W 0.46261(2) 0.52597(3) 0.08915(3)
W10_3 W 0.35066(2) 0.67507(3) 0.05801(2)
W11_3 W 0.38668(2) 0.31208(3) 0.09997(3)
P1_3 P 0.36801(9) 0.49130(16) 0.08516(14)
O4_3 O 0.3085(2) 0.4976(4) 0.2358(4)
O5_3 O 0.3865(3) 0.6648(4) 0.1217(4)
O6_3 O 0.4396(3) 0.5840(5) 0.0307(4)
O7_3 O 0.3872(3) 0.6705(5) 0.0012(4)
O8_3 O 0.2840(3) 0.5269(5) 0.0257(4)
O9_3 O 0.2698(2) 0.5396(4) 0.1424(4)
O10_3 O 0.3464(3) 0.3452(4) 0.1538(4)
O11_3 O 0.2803(3) 0.4069(4) 0.1616(4)
O12_3 O 0.4166(3) 0.6833(5) 0.2375(4)
O14_3 O 0.3575(2) 0.5958(4) 0.2082(4)
O15_3 O 0.2981(3) 0.3955(5) 0.0434(4)
O18_3 O 0.4202(3) 0.5381(5) 0.2385(4)
O19_3 O 0.3735(2) 0.4212(4) 0.0545(4)
O20_3 O 0.4578(3) 0.4502(5) 0.0458(4)
O22_3 O 0.3726(3) 0.4353(5) 0.2313(4)
O23_3 O 0.4007(2) 0.5106(4) 0.1244(4)
O24_3 O 0.3341(2) 0.4891(4) 0.1260(4)
O25_3 O 0.4502(3) 0.6062(4) 0.1473(4)
O26_3 O 0.3189(2) 0.6364(4) 0.1187(4)
O27_3 O 0.3630(2) 0.5500(4) 0.0374(4)
O28_3 O 0.3123(3) 0.3536(5) 0.2660(4)
O29_3 O 0.4640(3) 0.4734(5) 0.1644(4)
O31_3 O 0.3493(3) 0.2970(5) 0.0420(4)
O32_3 O 0.3416(3) 0.7624(5) 0.0623(4)
O33_3 O 0.2853(2) 0.6379(5) 0.2326(4)
O34_3 O 0.2286(3) 0.4443(5) 0.0750(4)
O35_3 O 0.4226(3) 0.3121(5) 0.0466(4)
O36_3 O 0.4151(3) 0.3690(5) 0.1568(4)
O37_3 O 0.3902(3) 0.2305(5) 0.1313(5)
O41_3 O 0.4434(3) 0.4034(5) 0.2700(4)
C1_3 C 0.250000 0.250000 0.1437(8)
C3_3 C 0.250000 0.250000 0.2094(8)
C5_3 C 0.2783(4) 0.2256(6) 0.0491(6)
H2_3 H 0.298570 0.207226 0.027021
C6_3 C 0.2797(4) 0.2247(6) 0.1120(6)
H3_3 H 0.300698 0.207674 0.133044
C7_3 C 0.2674(4) 0.1991(7) 0.2435(6)
H4_3 H 0.279619 0.161959 0.222868
N1_3 N 0.250000 0.250000 0.0175(6)
C16_3 C 0.2679(4) 0.2006(7) 0.3062(6)
H12_3 H 0.280967 0.165743 0.328424
C17_3 C 0.2593(4) 0.8100(7) 0.0513(5)
H13_3 H 0.265583 0.852143 0.030397
C18_3 C 0.4435(5) 0.9765(10) 0.2997(7)
C19_3 C 0.3374(4) 0.8851(8) 0.2842(7)
H15_3 H 0.340861 0.922289 0.312651
C20_3 C 0.3595(4) 0.8080(7) 0.2087(6)
H16_3 H 0.378726 0.791612 0.183122
C21_3 C 0.4337(5) 0.8481(10) 0.2492(9)
H17_3 H 0.430571 0.803039 0.231037
C22_3 C 0.2594(4) 0.8079(7) 0.1133(6)
H18_3 H 0.266376 0.848915 0.135259
C23_3 C 0.3254(4) 0.7807(7) 0.2050(6)
H19_3 H 0.321324 0.743526 0.176859
C24_3 C 0.3663(4) 0.8610(7) 0.2514(7)
C25_3 C 0.3042(4) 0.8557(7) 0.2757(6)
H20_3 H 0.284279 0.873696 0.298672
C27_3 C 0.4090(5) 0.9539(9) 0.2854(7)
H21_3 H 0.388644 0.983953 0.292347
C28_3 C 0.4034(4) 0.8897(7) 0.2597(7)
C29_3 C 0.250000 0.750000 0.0187(8)
C30_3 C 0.4674(5) 0.8709(9) 0.2634(10)
H22_3 H 0.488203 0.841972 0.256252
N5_3 N 0.4721(4) 0.9356(8) 0.2887(6)
N6_3 N 0.250000 0.750000 0.1441(7)
N7_3 N 0.2973(3) 0.8018(6) 0.2375(5)
C33_3 C 0.2217(4) 0.2744(6) 0.0491(6)
H25_3 H 0.201430 0.292774 0.027021
C34_3 C 0.2203(4) 0.2753(6) 0.1120(6)
H26_3 H 0.199302 0.292326 0.133044
C35_3 C 0.2326(4) 0.3009(7) 0.2435(6)
H27_3 H 0.220381 0.338041 0.222868
C36_3 C 0.2321(4) 0.2994(7) 0.3062(6)
H28_3 H 0.219033 0.334257 0.328424
C37_3 C 0.2407(4) 0.6900(7) 0.0513(5)
H29_3 H 0.234417 0.647857 0.030397
C38_3 C 0.2406(4) 0.6921(7) 0.1133(6)
H30_3 H 0.233624 0.651085 0.135259
W13_3 W 0.19182(2) 0.91998(3) 0.18723(2)
W14_3 W 0.09329(2) 0.88222(3) 0.18822(2)
W20_3 W 0.03739(2) 0.97403(3) 0.08915(3)
W21_3 W 0.14934(2) 0.82493(3) 0.05801(2)
O47_3 O 0.1135(3) 0.8352(4) 0.1217(4)
O48_3 O 0.0604(3) 0.9160(5) 0.0307(4)
O49_3 O 0.1128(3) 0.8295(5) 0.0012(4)
O50_3 O 0.2160(3) 0.9731(5) 0.0257(4)
O51_3 O 0.2302(2) 0.9604(4) 0.1424(4)
O54_3 O 0.0834(3) 0.8167(5) 0.2375(4)
O56_3 O 0.1425(2) 0.9042(4) 0.2082(4)
O60_3 O 0.0798(3) 0.9619(5) 0.2385(4)
O65_3 O 0.0993(2) 0.9894(4) 0.1244(4)
O67_3 O 0.0498(3) 0.8938(4) 0.1473(4)
O68_3 O 0.1811(2) 0.8636(4) 0.1187(4)
O69_3 O 0.1370(2) 0.9500(4) 0.0374(4)
O74_3 O 0.1584(3) 0.7376(5) 0.0623(4)
O75_3 O 0.2147(2) 0.8621(5) 0.2326(4)
C41_3 C 0.0565(5) 0.5235(10) 0.2997(7)
H33_3 H 0.052567 0.478987 0.318402
C42_3 C 0.1626(4) 0.6149(8) 0.2842(7)
H34_3 H 0.159139 0.577711 0.312651
C43_3 C 0.1405(4) 0.6920(7) 0.2087(6)
H35_3 H 0.121274 0.708388 0.183122
C44_3 C 0.0663(5) 0.6519(10) 0.2492(9)
H36_3 H 0.069429 0.696961 0.231037
C45_3 C 0.1746(4) 0.7193(7) 0.2050(6)
H37_3 H 0.178676 0.756474 0.176859
C46_3 C 0.1337(4) 0.6390(7) 0.2514(7)
C47_3 C 0.1958(4) 0.6443(7) 0.2757(6)
H38_3 H 0.215721 0.626304 0.298672
C48_3 C 0.0910(5) 0.5461(9) 0.2854(7)
H39_3 H 0.111356 0.516047 0.292347
C49_3 C 0.0966(4) 0.6103(7) 0.2597(7)
C50_3 C 0.0326(5) 0.6291(9) 0.2634(10)
H40_3 H 0.011797 0.658028 0.256252
N9_3 N 0.0279(4) 0.5644(8) 0.2887(6)
N10_3 N 0.2027(3) 0.6982(6) 0.2375(5)
W4_3 W 0.40722(2) 0.58204(3) 0.96128(2)
W5_3 W 0.31517(2) 0.55482(3) 0.96209(2)
W8_3 W 0.33642(2) 0.36532(3) 0.98216(2)
O1_3 O 0.3597(3) 0.5802(5) 0.9237(4)
O2_3 O 0.4160(2) 0.4926(4) 0.9475(4)
O3_3 O 0.3269(3) 0.4592(5) 0.9529(4)
O13_3 O 0.3164(2) 0.6459(4) 0.9988(4)
O16_3 O 0.4330(3) 0.6246(5) 0.9082(4)
O17_3 O 0.3778(3) 0.3581(5) 0.9424(4)
O30_3 O 0.2852(3) 0.5673(5) 0.9047(4)
O38_3 O 0.4988(3) 0.3240(6) 0.9951(7)
O39_3 O 0.4362(4) 0.3709(7) 0.8500(5)
O40_3 O 0.4389(4) 0.2498(6) 0.9308(6)
O42_3 O 0.3067(2) 0.3179(5) 0.9378(4)
C8_3 C 0.3229(5) 0.0412(7) 0.9126(6)
C9_3 C 0.3148(4) 0.1653(8) 0.9015(7)
H5_3 H 0.324727 0.209849 0.890703
C10_3 C 0.3365(5) 0.1058(8) 0.8961(7)
H6_3 H 0.360713 0.109314 0.880712
C11_3 C 0.2682(5) 0.0991(8) 0.9375(7)
H7_3 H 0.243463 0.096544 0.950948
C12_3 C 0.2879(4) 0.0384(7) 0.9342(7)
N2_3 N 0.2811(3) 0.1617(6) 0.9222(5)
C26_3 C 0.250000 0.750000 0.9512(8)
C31_3 C 0.2774(4) 0.7838(8) 0.9204(6)
H23_3 H 0.296560 0.806942 0.941750
C32_3 C 0.2759(4) 0.7828(7) 0.8577(6)
H24_3 H 0.294324 0.806920 0.835518
C39_3 C 0.2226(4) 0.7162(8) 0.9204(6)
H31_3 H 0.203440 0.693058 0.941750
C40_3 C 0.2241(4) 0.7172(7) 0.8577(6)
H32_3 H 0.205676 0.693080 0.835518
W15_3 W 0.09278(2) 0.91796(3) 0.96128(2)
W16_3 W 0.18483(2) 0.94518(3) 0.96209(2)
O43_3 O 0.1403(3) 0.9198(5) 0.9237(4)
O55_3 O 0.1836(2) 0.8541(4) 0.9988(4)
O58_3 O 0.0670(3) 0.8754(5) 0.9082(4)
O72_3 O 0.2148(3) 0.9327(5) 0.9047(4)
C51_3 C 0.1362(6) 0.5418(10) 0.8588(7)
H41_3 H 0.138077 0.513156 0.823391
C52_3 C 0.1548(5) 0.5229(9) 0.9105(8)
C53_3 C 0.1771(5) 0.4588(7) 0.9126(6)
C54_3 C 0.1852(4) 0.3347(8) 0.9015(7)
H42_3 H 0.175273 0.290151 0.890703
C55_3 C 0.1635(5) 0.3942(8) 0.8961(7)
H43_3 H 0.139287 0.390686 0.880712
C56_3 C 0.2318(5) 0.4009(8) 0.9375(7)
H44_3 H 0.256537 0.403456 0.950948
C57_3 C 0.2121(4) 0.4616(7) 0.9342(7)
H45_3 H 0.222269 0.505289 0.946901
C58_3 C 0.1313(5) 0.6244(10) 0.9583(9)
H46_3 H 0.127966 0.652868 0.993483
C59_3 C 0.1533(5) 0.5690(9) 0.9593(7)
H47_3 H 0.169045 0.560984 0.993106
C60_3 C 0.1133(7) 0.5993(12) 0.8601(10)
H48_3 H 0.099692 0.611302 0.824618
N11_3 N 0.2189(3) 0.3383(6) 0.9222(5)
N12_3 N 0.1125(5) 0.6399(8) 0.9074(8)
H49_3 H 0.414757 0.230288 0.94107
H50_3 H 0.457962 0.223906 0.953108
H51_3 H 0.410469 0.376505 0.837859
H52_3 H 0.445206 0.324785 0.836219
H53_3 H 0.519032 0.340088 0.969052
H54_3 H 0.496757 0.272461 0.992546
C2_3 C 0.3638(6) 0.9582(10) 0.8588(7)
H1_3 H 0.361923 0.986844 0.823391
C4_3 C 0.3452(5) 0.9771(9) 0.9105(8)
H8_3 H 0.277731 0.994711 0.946901
C13_3 C 0.3687(5) 0.8756(10) 0.9583(9)
H9_3 H 0.372034 0.847132 0.993483
C14_3 C 0.3467(5) 0.9310(9) 0.9593(7)
H10_3 H 0.330955 0.939016 0.993106
C15_3 C 0.3867(7) 0.9007(12) 0.8601(10)
H11_3 H 0.400308 0.888698 0.824618
N3_3 N 0.3875(5) 0.8601(8) 0.9074(8)
H59_2 H 0.0190316 0.659912 0.530948
W2_4 W 0.69182(2) 0.08002(3) 0.31277(2)
W3_4 W 0.59329(2) 0.11778(3) 0.31178(2)
W4_4 W 0.59278(2) 0.08204(3) 0.53872(2)
W5_4 W 0.68483(2) 0.05482(3) 0.53791(2)
W9_4 W 0.53739(2) 0.02597(3) 0.41085(3)
W10_4 W 0.64934(2) 0.17507(3) 0.44199(2)
O1_4 O 0.6403(3) 0.0802(5) 0.5763(4)
O5_4 O 0.6135(3) 0.1648(4) 0.3783(4)
O6_4 O 0.5604(3) 0.0840(5) 0.4693(4)
O7_4 O 0.6128(3) 0.1705(5) 0.4988(4)
O8_4 O 0.7160(3) 0.0269(5) 0.4743(4)
O9_4 O 0.7302(2) 0.0396(4) 0.3576(4)
O12_4 O 0.5834(3) 0.1833(5) 0.2625(4)
O13_4 O 0.6836(2) 0.1459(4) 0.5012(4)
O14_4 O 0.6425(2) 0.0958(4) 0.2918(4)
O16_4 O 0.5670(3) 0.1246(5) 0.5918(4)
O18_4 O 0.5798(3) 0.0381(5) 0.2615(4)
O23_4 O 0.5993(2) 0.0106(4) 0.3756(4)
O25_4 O 0.5498(3) 0.1062(4) 0.3527(4)
O26_4 O 0.6811(2) 0.1364(4) 0.3813(4)
O27_4 O 0.6370(2) 0.0500(4) 0.4626(4)
O30_4 O 0.7148(3) 0.0673(5) 0.5953(4)
O32_4 O 0.6584(3) 0.2624(5) 0.4377(4)
O33_4 O 0.7147(2) 0.1379(5) 0.2674(4)
C17_4 C 0.7407(4) 0.3100(7) 0.4487(5)
H13_4 H 0.734417 0.352143 0.469603
C18_4 C 0.5565(5) 0.4765(10) 0.2003(7)
H14_4 H 0.552567 0.521013 0.181598
C19_4 C 0.6626(4) 0.3851(8) 0.2158(7)
H15_4 H 0.659139 0.422289 0.187349
C20_4 C 0.6405(4) 0.3080(7) 0.2913(6)
H16_4 H 0.621274 0.291612 0.316878
C21_4 C 0.5663(5) 0.3481(10) 0.2508(9)
H17_4 H 0.569429 0.303039 0.268963
C22_4 C 0.7406(4) 0.3079(7) 0.3867(6)
H18_4 H 0.733624 0.348915 0.364741
C23_4 C 0.6746(4) 0.2807(7) 0.2950(6)
H19_4 H 0.678676 0.243526 0.323141
C24_4 C 0.6337(4) 0.3610(7) 0.2486(7)
C25_4 C 0.6958(4) 0.3557(7) 0.2243(6)
H20_4 H 0.715721 0.373696 0.201328
C26_4 C 0.750000 0.250000 0.5488(8)
C27_4 C 0.5910(5) 0.4539(9) 0.2146(7)
H21_4 H 0.611356 0.483953 0.207653
C28_4 C 0.5966(4) 0.3897(7) 0.2403(7)
C29_4 C 0.750000 0.250000 0.4813(8)
C30_4 C 0.5326(5) 0.3709(9) 0.2366(10)
H22_4 H 0.511797 0.341972 0.243748
N5_4 N 0.5279(4) 0.4356(8) 0.2113(6)
N6_4 N 0.750000 0.250000 0.3559(7)
N7_4 N 0.7027(3) 0.3018(6) 0.2625(5)
C31_4 C 0.7226(4) 0.2838(8) 0.5796(6)
H23_4 H 0.703440 0.306942 0.558250
C32_4 C 0.7241(4) 0.2828(7) 0.6423(6)
H24_4 H 0.705676 0.306920 0.664482
C37_4 C 0.7593(4) 0.1900(7) 0.4487(5)
H29_4 H 0.765583 0.147857 0.469603
C38_4 C 0.7594(4) 0.1921(7) 0.3867(6)
H30_4 H 0.766376 0.151085 0.364741
C39_4 C 0.7774(4) 0.2162(8) 0.5796(6)
H31_4 H 0.796560 0.193058 0.558250
C40_4 C 0.7759(4) 0.2172(7) 0.6423(6)
H32_4 H 0.794324 0.193080 0.664482
W12_4 W 0.77316(2) 0.54004(3) 0.41151(2)
W13_4 W 0.80818(2) 0.41998(3) 0.31277(2)
W14_4 W 0.90671(2) 0.38222(3) 0.31178(2)
W15_4 W 0.90722(2) 0.41796(3) 0.53872(2)
W16_4 W 0.81517(2) 0.44518(3) 0.53791(2)
W17_4 W 0.92152(2) 0.55647(3) 0.28982(2)
W18_4 W 0.82400(2) 0.59447(3) 0.29271(2)
W19_4 W 0.83642(2) 0.63468(3) 0.51784(2)
W20_4 W 0.96261(2) 0.47403(3) 0.41085(3)
W21_4 W 0.85066(2) 0.32493(3) 0.44199(2)
W22_4 W 0.88668(2) 0.68792(3) 0.40003(3)
P2_4 P 0.86801(9) 0.50870(16) 0.41484(14)
O43_4 O 0.8597(3) 0.4198(5) 0.5763(4)
O44_4 O 0.9160(2) 0.5074(4) 0.5525(4)
O45_4 O 0.8269(3) 0.5408(5) 0.5471(4)
O46_4 O 0.8085(2) 0.5024(4) 0.2642(4)
O47_4 O 0.8865(3) 0.3352(4) 0.3783(4)
O48_4 O 0.9396(3) 0.4160(5) 0.4693(4)
O49_4 O 0.8872(3) 0.3295(5) 0.4988(4)
O50_4 O 0.7840(3) 0.4731(5) 0.4743(4)
O51_4 O 0.7698(2) 0.4604(4) 0.3576(4)
O52_4 O 0.8464(3) 0.6548(4) 0.3462(4)
O53_4 O 0.7803(3) 0.5931(4) 0.3384(4)
O54_4 O 0.9166(3) 0.3167(5) 0.2625(4)
O55_4 O 0.8164(2) 0.3541(4) 0.5012(4)
O56_4 O 0.8575(2) 0.4042(4) 0.2918(4)
O57_4 O 0.7981(3) 0.6045(5) 0.4566(4)
O58_4 O 0.9330(3) 0.3754(5) 0.5918(4)
O59_4 O 0.8778(3) 0.6419(5) 0.5576(4)
O60_4 O 0.9202(3) 0.4619(5) 0.2615(4)
O61_4 O 0.8735(2) 0.5788(4) 0.4455(4)
O62_4 O 0.9578(3) 0.5498(5) 0.4542(4)
O64_4 O 0.8726(3) 0.5647(5) 0.2687(4)
O65_4 O 0.9007(2) 0.4894(4) 0.3756(4)
O66_4 O 0.8341(2) 0.5109(4) 0.3740(4)
O67_4 O 0.9502(3) 0.3938(4) 0.3527(4)
O68_4 O 0.8189(2) 0.3636(4) 0.3813(4)
O69_4 O 0.8630(2) 0.4500(4) 0.4626(4)
O70_4 O 0.8123(3) 0.6464(5) 0.2340(4)
O71_4 O 0.9640(3) 0.5266(5) 0.3356(4)
O72_4 O 0.7852(3) 0.4327(5) 0.5953(4)
O73_4 O 0.8493(3) 0.7030(5) 0.4580(4)
O74_4 O 0.8416(3) 0.2376(5) 0.4377(4)
O75_4 O 0.7853(2) 0.3621(5) 0.2674(4)
O76_4 O 0.7286(3) 0.5557(5) 0.4250(4)
O77_4 O 0.9226(3) 0.6879(5) 0.4534(4)
O78_4 O 0.9151(3) 0.6310(5) 0.3432(4)
O79_4 O 0.8902(3) 0.7695(5) 0.3687(5)
O80_4 O 0.9988(3) 0.6760(6) 0.5049(7)
O81_4 O 0.9362(4) 0.6291(7) 0.6500(5)
O82_4 O 0.9389(4) 0.7502(6) 0.5692(6)
O83_4 O 0.9434(3) 0.5966(5) 0.2300(4)
O84_2 O 0.8067(2) 0.6821(5) 0.5622(4)
C41_4 C 0.9435(5) 0.0235(10) 0.2003(7)
C42_4 C 0.8374(4) 0.1149(8) 0.2158(7)
H34_4 H 0.840861 0.077711 0.187349
C43_4 C 0.8595(4) 0.1920(7) 0.2913(6)
H35_4 H 0.878726 0.208388 0.316878
C44_4 C 0.9337(5) 0.1519(10) 0.2508(9)
H36_4 H 0.930571 0.196961 0.268963
C45_4 C 0.8254(4) 0.2193(7) 0.2950(6)
H37_4 H 0.821324 0.256474 0.323141
C46_4 C 0.8663(4) 0.1390(7) 0.2486(7)
C47_4 C 0.8042(4) 0.1443(7) 0.2243(6)
H38_4 H 0.784279 0.126304 0.201328
C48_4 C 0.9090(5) 0.0461(9) 0.2146(7)
H39_4 H 0.888644 0.016047 0.207653
C49_4 C 0.9034(4) 0.1103(7) 0.2403(7)
C50_4 C 0.9674(5) 0.1291(9) 0.2366(10)
H40_4 H 0.988203 0.158028 0.243748
N9_4 N 0.9721(4) 0.0644(8) 0.2113(6)
N10_4 N 0.7973(3) 0.1982(6) 0.2625(5)
C51_4 C 0.8638(6) 0.0418(10) 0.6412(7)
H41_4 H 0.861923 0.013156 0.676609
C52_4 C 0.8452(5) 0.0229(9) 0.5895(8)
H45_4 H 0.777731 0.005289 0.553099
C58_4 C 0.8687(5) 0.1244(10) 0.5417(9)
H46_4 H 0.872034 0.152868 0.506517
C59_4 C 0.8467(5) 0.0690(9) 0.5407(7)
H47_4 H 0.830955 0.060984 0.506894
C60_4 C 0.8867(7) 0.0993(12) 0.6399(10)
H48_4 H 0.900308 0.111302 0.675382
N12_4 N 0.8875(5) 0.1399(8) 0.5926(8)
H55_4 H 0.914757 0.769712 0.55893
H56_4 H 0.957962 0.776094 0.546892
H57_4 H 0.910469 0.623495 0.662141
H58_4 H 0.945206 0.675215 0.663781
H60_4 H 0.996757 0.727539 0.507454
W1_4 W 0.72684(2) 0.95996(3) 0.41151(2)
W6_4 W 0.57848(2) 0.94353(3) 0.28982(2)
W7_4 W 0.67600(2) 0.90553(3) 0.29271(2)
W8_4 W 0.66358(2) 0.86532(3) 0.51784(2)
W11_4 W 0.61332(2) 0.81208(3) 0.40003(3)
P1_4 P 0.63199(9) 0.99130(16) 0.41484(14)
O2_4 O 0.5840(2) 0.9926(4) 0.5525(4)
O3_4 O 0.6731(3) 0.9592(5) 0.5471(4)
O4_4 O 0.6915(2) 0.9976(4) 0.2642(4)
O10_4 O 0.6536(3) 0.8452(4) 0.3462(4)
O11_4 O 0.7197(3) 0.9069(4) 0.3384(4)
O15_4 O 0.7019(3) 0.8955(5) 0.4566(4)
O17_4 O 0.6222(3) 0.8581(5) 0.5576(4)
O19_4 O 0.6265(2) 0.9212(4) 0.4455(4)
O20_4 O 0.5422(3) 0.9502(5) 0.4542(4)
O22_4 O 0.6274(3) 0.9353(5) 0.2687(4)
O24_4 O 0.6659(2) 0.9891(4) 0.3740(4)
O28_4 O 0.6877(3) 0.8536(5) 0.2340(4)
O29_4 O 0.5360(3) 0.9734(5) 0.3356(4)
O31_4 O 0.6507(3) 0.7970(5) 0.4580(4)
O34_4 O 0.7714(3) 0.9443(5) 0.4250(4)
O35_4 O 0.5774(3) 0.8121(5) 0.4534(4)
O36_4 O 0.5849(3) 0.8690(5) 0.3432(4)
O37_4 O 0.6098(3) 0.7305(5) 0.3687(5)
O38_4 O 0.5012(3) 0.8240(6) 0.5049(7)
O39_4 O 0.5638(4) 0.8709(7) 0.6500(5)
O40_4 O 0.5611(4) 0.7498(6) 0.5692(6)
O41_4 O 0.5566(3) 0.9034(5) 0.2300(4)
O42_4 O 0.6933(2) 0.8179(5) 0.5622(4)
C1_4 C 0.750000 0.750000 0.3563(8)
C2_4 C 0.6362(6) 0.4582(10) 0.6412(7)
H1_4 H 0.638077 0.486844 0.676609
C3_4 C 0.750000 0.750000 0.2906(8)
C4_4 C 0.6548(5) 0.4771(9) 0.5895(8)
C5_4 C 0.7217(4) 0.7256(6) 0.4509(6)
H2_4 H 0.701430 0.707226 0.472979
C6_4 C 0.7203(4) 0.7247(6) 0.3880(6)
H3_4 H 0.699302 0.707674 0.366956
C7_4 C 0.7326(4) 0.6991(7) 0.2565(6)
H4_4 H 0.720381 0.661959 0.277132
C8_4 C 0.6771(5) 0.5412(7) 0.5874(6)
C9_4 C 0.6852(4) 0.6653(8) 0.5985(7)
H5_4 H 0.675273 0.709849 0.609297
C10_4 C 0.6635(5) 0.6058(8) 0.6039(7)
H6_4 H 0.639287 0.609314 0.619288
C11_4 C 0.7318(5) 0.5991(8) 0.5625(7)
H7_4 H 0.756537 0.596544 0.549052
C12_4 C 0.7121(4) 0.5384(7) 0.5658(7)
H8_4 H 0.722269 0.494711 0.553099
C13_4 C 0.6313(5) 0.3756(10) 0.5417(9)
H9_4 H 0.627966 0.347132 0.506517
C14_4 C 0.6533(5) 0.4310(9) 0.5407(7)
H10_4 H 0.669045 0.439016 0.506894
C15_4 C 0.6133(7) 0.4007(12) 0.6399(10)
H11_4 H 0.599692 0.388698 0.675382
N1_4 N 0.750000 0.750000 0.4825(6)
N2_4 N 0.7189(3) 0.6617(6) 0.5778(5)
N3_4 N 0.6125(5) 0.3601(8) 0.5926(8)
C16_4 C 0.7321(4) 0.7006(7) 0.1938(6)
H12_4 H 0.719033 0.665743 0.171576
C33_4 C 0.7783(4) 0.7744(6) 0.4509(6)
H25_4 H 0.798570 0.792774 0.472979
C34_4 C 0.7797(4) 0.7753(6) 0.3880(6)
H26_4 H 0.800698 0.792326 0.366956
C35_4 C 0.7674(4) 0.8009(7) 0.2565(6)
H27_4 H 0.779619 0.838041 0.277132
C36_4 C 0.7679(4) 0.7994(7) 0.1938(6)
H28_4 H 0.780967 0.834257 0.171576
H33_4 H 0.947433 0.978987 0.181598
C53_4 C 0.8229(5) 0.9588(7) 0.5874(6)
C54_4 C 0.8148(4) 0.8347(8) 0.5985(7)
H42_4 H 0.824727 0.790151 0.609297
C55_4 C 0.8365(5) 0.8942(8) 0.6039(7)
H43_4 H 0.860713 0.890686 0.619288
C56_4 C 0.7682(5) 0.9009(8) 0.5625(7)
H44_4 H 0.743463 0.903456 0.549052
C57_4 C 0.7879(4) 0.9616(7) 0.5658(7)
N11_4 N 0.7811(3) 0.8383(6) 0.5778(5)
H49_4 H 0.585243 0.730288 0.55893
H50_4 H 0.542038 0.723906 0.546892
H51_4 H 0.589531 0.876505 0.662141
H52_4 H 0.554794 0.824785 0.663781
H53_4 H 0.480968 0.840088 0.530948
H54_4 H 0.503243 0.772461 0.507454
H59_3 H 0.0190316 0.840088 0.0309484
H59_4 H 0.980968 0.159912 0.969052
loop_
_geom_bond_atom_site_label_1
_geom_bond_atom_site_label_2
_geom_bond_site_symmetry_1
_geom_bond_site_symmetry_2
Nd4 O63 1_555 1_555
C2 H1 1_555 1_555
C4 C2 1_555 1_555
C13 H9 1_555 1_555
C14 C4 1_555 1_555
H10 C14 1_555 1_555
C15 C2 1_555 1_555
H11 C15 1_555 1_555
N3 C13 1_555 1_555
C13 C14 1_555 1_555
C15 N3 1_555 1_555
W4 O1 1_555 1_555
W5 O1 1_555 1_555
W8 O3 1_555 1_555
Nd1 O2 1_555 1_555
Cu1 O42 1_555 1_555
O2 W4 1_555 1_555
O3 W5 1_555 1_555
O13 W5 1_555 1_555
O16 W4 1_555 1_555
O17 W8 1_555 1_555
O30 W5 1_555 1_555
O38 Nd1 1_555 1_555
O39 Nd1 1_555 1_555
O40 Nd1 1_555 1_555
O42 W8 1_555 1_555
C9 H5 1_555 1_555
C10 C8 1_555 1_555
H6 C10 1_555 1_555
C11 H7 1_555 1_555
C12 C8 1_555 1_555
N2 Cu1 1_555 1_555
C31 C26 1_555 1_555
H23 C31 1_555 1_555
C32 C31 1_555 1_555
H24 C32 1_555 1_555
N8 C32 1_555 1_555
C39 C26 1_555 1_555
H31 C39 1_555 1_555
C40 N8 1_555 1_555
H32 C40 1_555 1_555
W15 O43 1_555 1_555
W16 O43 1_555 1_555
O55 W16 1_555 1_555
O58 W15 1_555 1_555
O72 W16 1_555 1_555
C51 H41 1_555 1_555
C52 C51 1_555 1_555
C53 C52 1_555 1_555
C54 H42 1_555 1_555
C55 C53 1_555 1_555
H43 C55 1_555 1_555
C56 H44 1_555 1_555
C57 C53 1_555 1_555
H45 C57 1_555 1_555
C58 H46 1_555 1_555
C59 C52 1_555 1_555
H47 C59 1_555 1_555
C60 C51 1_555 1_555
H48 C60 1_555 1_555
N11 Cu1 1_555 1_555
N12 C58 1_555 1_555
O85 Nd1 1_555 1_555
O87 Cu1 1_555 1_555
N13 Cu1 1_555 1_555
Cu5 N8 1_555 1_555
Nd1 O17 1_555 1_555
C9 C10 1_555 1_555
C9 N2 1_555 1_555
C11 C12 1_555 1_555
C11 N2 1_555 1_555
C39 C40 1_555 1_555
C54 C55 1_555 1_555
C54 N11 1_555 1_555
C56 C57 1_555 1_555
C56 N11 1_555 1_555
C58 C59 1_555 1_555
C60 N12 1_555 1_555
O40 H49 1_555 1_555
O40 H50 1_555 1_555
O39 H51 1_555 1_555
O39 H52 1_555 1_555
O38 H53 1_555 1_555
O38 H54 1_555 1_555
W1 O8 1_555 1_555
W2 O4 1_555 1_555
W3 O5 1_555 1_555
W6 O18 1_555 1_555
W7 O4 1_555 1_555
W9 O6 1_555 1_555
W10 O5 1_555 1_555
W11 O10 1_555 1_555
P1 O19 1_555 1_555
O9 W1 1_555 1_555
O10 W7 1_555 1_555
O11 W1 1_555 1_555
O12 W3 1_555 1_555
O14 W2 1_555 1_555
O15 W1 1_555 1_555
O18 W3 1_555 1_555
O20 W9 1_555 1_555
O21 W9 1_555 1_555
O22 W6 1_555 1_555
O23 W6 1_555 1_555
O24 W1 1_555 1_555
O25 W3 1_555 1_555
O26 W2 1_555 1_555
O28 W7 1_555 1_555
O29 W6 1_555 1_555
O32 W10 1_555 1_555
O33 W2 1_555 1_555
O34 W1 1_555 1_555
O35 W11 1_555 1_555
O36 W6 1_555 1_555
O37 W11 1_555 1_555
O41 W6 1_555 1_555
C1 C3 1_555 1_555
C3 C7 1_555 1_555
C5 H2 1_555 1_555
C6 C1 1_555 1_555
H3 C6 1_555 1_555
C7 H4 1_555 1_555
C16 C7 1_555 1_555
H12 C16 1_555 1_555
N4 C16 1_555 1_555
Cu2 O33 1_555 1_555
C17 H13 1_555 1_555
C19 H15 1_555 1_555
C20 H16 1_555 1_555
C21 H17 1_555 1_555
C22 C17 1_555 1_555
H18 C22 1_555 1_555
C23 C20 1_555 1_555
H19 C23 1_555 1_555
C24 C19 1_555 1_555
C25 C19 1_555 1_555
H20 C25 1_555 1_555
C27 C18 1_555 1_555
H21 C27 1_555 1_555
C28 C21 1_555 1_555
C29 C17 1_555 1_555
C30 C21 1_555 1_555
H22 C30 1_555 1_555
N5 C18 1_555 1_555
N6 Cu2 1_555 1_555
N7 Cu2 1_555 1_555
C33 N1 1_555 1_555
H25 C33 1_555 1_555
C34 C1 1_555 1_555
H26 C34 1_555 1_555
C35 C3 1_555 1_555
H27 C35 1_555 1_555
C36 N4 1_555 1_555
H28 C36 1_555 1_555
C37 C29 1_555 1_555
H29 C37 1_555 1_555
C38 N6 1_555 1_555
H30 C38 1_555 1_555
W14 O47 1_555 1_555
W20 O48 1_555 1_555
W21 O47 1_555 1_555
O54 W14 1_555 1_555
O56 W13 1_555 1_555
O60 W14 1_555 1_555
O67 W14 1_555 1_555
O68 W13 1_555 1_555
O74 W21 1_555 1_555
O75 Cu2 1_555 1_555
C41 H33 1_555 1_555
C42 H34 1_555 1_555
C43 H35 1_555 1_555
C44 H36 1_555 1_555
C45 C43 1_555 1_555
H37 C45 1_555 1_555
C46 C42 1_555 1_555
C47 C42 1_555 1_555
H38 C47 1_555 1_555
C48 C41 1_555 1_555
H39 C48 1_555 1_555
C49 C44 1_555 1_555
C50 C44 1_555 1_555
H40 C50 1_555 1_555
N9 C41 1_555 1_555
N10 Cu2 1_555 1_555
Nd3 O21 1_555 1_555
Cu4 N4 1_555 1_555
N14 Cu2 1_555 1_555
W2 O9 1_555 1_555
W2 O24 1_555 1_555
W3 O14 1_555 1_555
W7 O11 1_555 1_555
W7 O22 1_555 1_555
W7 O24 1_555 1_555
W9 O23 1_555 1_555
W9 O25 1_555 1_555
W9 O29 1_555 1_555
W10 O7 1_555 1_555
W10 O26 1_555 1_555
W10 O27 1_555 1_555
W11 O19 1_555 1_555
W11 O31 1_555 1_555
W11 O36 1_555 1_555
P1 O23 1_555 1_555
P1 O24 1_555 1_555
P1 O27 1_555 1_555
C5 C6 1_555 1_555
C5 N1 1_555 1_555
C20 C24 1_555 1_555
C22 N6 1_555 1_555
C23 N7 1_555 1_555
C24 C28 1_555 1_555
C25 N7 1_555 1_555
C27 C28 1_555 1_555
C30 N5 1_555 1_555
C33 C34 1_555 1_555
C35 C36 1_555 1_555
C37 C38 1_555 1_555
W13 O51 1_555 1_555
W13 O75 1_555 1_555
W14 O56 1_555 1_555
W20 O65 1_555 1_555
W20 O67 1_555 1_555
W21 O49 1_555 1_555
W21 O68 1_555 1_555
W21 O69 1_555 1_555
C43 C46 1_555 1_555
C45 N10 1_555 1_555
C46 C49 1_555 1_555
C47 N10 1_555 1_555
C48 C49 1_555 1_555
C50 N9 1_555 1_555
W19 O45 1_555 1_555
Nd2 O44 1_555 1_555
O59 W19 1_555 1_555
O80 Nd2 1_555 1_555
O81 Nd2 1_555 1_555
O82 Nd2 1_555 1_555
O87 W19 1_555 1_555
O86 Nd2 1_555 1_555
Nd2 O59 1_555 1_555
O82 H55 1_555 1_555
O82 H56 1_555 1_555
O81 H57 1_555 1_555
O81 H58 1_555 1_555
O80 H60 1_555 1_555
W18 O46 1_555 1_555
W22 O52 1_555 1_555
P2 O61 1_555 1_555
O52 W18 1_555 1_555
O53 W12 1_555 1_555
O57 W12 1_555 1_555
O64 W17 1_555 1_555
O66 W12 1_555 1_555
O70 W18 1_555 1_555
O71 W17 1_555 1_555
O76 W12 1_555 1_555
O77 W22 1_555 1_555
O78 W17 1_555 1_555
O79 W22 1_555 1_555
O83 W17 1_555 1_555
W18 O53 1_555 1_555
W18 O64 1_555 1_555
W18 O66 1_555 1_555
W22 O61 1_555 1_555
W22 O73 1_555 1_555
W22 O78 1_555 1_555
P2 O66 1_555 1_555
W7_2 O4_2 1_555 1_555
W8_2 O3_2 1_555 1_555
W11_2 O10_2 1_555 1_555
Nd1_2 O2_2 1_555 1_555
Cu1_2 O42_2 1_555 1_555
P1_2 O19_2 1_555 1_555
O10_2 W7_2 1_555 1_555
O11_2 W1_2 1_555 1_555
O15_2 W1_2 1_555 1_555
O17_2 W8_2 1_555 1_555
O19_2 W8_2 1_555 1_555
O22_2 W6_2 1_555 1_555
O24_2 W1_2 1_555 1_555
O28_2 W7_2 1_555 1_555
O29_2 W6_2 1_555 1_555
O31_2 W8_2 1_555 1_555
O34_2 W1_2 1_555 1_555
O35_2 W11_2 1_555 1_555
O36_2 W6_2 1_555 1_555
O37_2 W11_2 1_555 1_555
O38_2 Nd1_2 1_555 1_555
O39_2 Nd1_2 1_555 1_555
O40_2 Nd1_2 1_555 1_555
O41_2 W6_2 1_555 1_555
O42_2 W8_2 1_555 1_555
C1_2 C3_2 1_555 1_555
C2_2 H1_2 1_555 1_555
C3_2 C7_2 1_555 1_555
C4_2 C2_2 1_555 1_555
C5_2 H2_2 1_555 1_555
C6_2 C1_2 1_555 1_555
H3_2 C6_2 1_555 1_555
C7_2 H4_2 1_555 1_555
C8_2 C4_2 1_555 1_555
C9_2 H5_2 1_555 1_555
C10_2 C8_2 1_555 1_555
H6_2 C10_2 1_555 1_555
C11_2 H7_2 1_555 1_555
C12_2 C8_2 1_555 1_555
H8_2 C12_2 1_555 1_555
C13_2 H9_2 1_555 1_555
C14_2 C4_2 1_555 1_555
H10_2 C14_2 1_555 1_555
C15_2 C2_2 1_555 1_555
H11_2 C15_2 1_555 1_555
N1_2 Cu1_2 1_555 1_555
N2_2 Cu1_2 1_555 1_555
N3_2 C13_2 1_555 1_555
C16_2 C7_2 1_555 1_555
H12_2 C16_2 1_555 1_555
N4_2 C16_2 1_555 1_555
C33_2 N1_2 1_555 1_555
H25_2 C33_2 1_555 1_555
C34_2 C1_2 1_555 1_555
H26_2 C34_2 1_555 1_555
C35_2 C3_2 1_555 1_555
H27_2 C35_2 1_555 1_555
C36_2 N4_2 1_555 1_555
H28_2 C36_2 1_555 1_555
C54_2 H42_2 1_555 1_555
C55_2 C53_2 1_555 1_555
H43_2 C55_2 1_555 1_555
C56_2 H44_2 1_555 1_555
C57_2 C53_2 1_555 1_555
N11_2 Cu1_2 1_555 1_555
Cu4_2 N4_2 1_555 1_555
O85_2 Nd1_2 1_555 1_555
O87_2 Cu1_2 1_555 1_555
N13_2 Cu1_2 1_555 1_555
W7_2 O11_2 1_555 1_555
W7_2 O22_2 1_555 1_555
W7_2 O24_2 1_555 1_555
W8_2 O15_2 1_555 1_555
W11_2 O19_2 1_555 1_555
W11_2 O31_2 1_555 1_555
W11_2 O36_2 1_555 1_555
Nd1_2 O17_2 1_555 1_555
Nd1_2 O20_2 1_555 1_555
Nd1_2 O35_2 1_555 1_555
P1_2 O24_2 1_555 1_555
C5_2 C6_2 1_555 1_555
C5_2 N1_2 1_555 1_555
C9_2 C10_2 1_555 1_555
C9_2 N2_2 1_555 1_555
C11_2 C12_2 1_555 1_555
C11_2 N2_2 1_555 1_555
C13_2 C14_2 1_555 1_555
C15_2 N3_2 1_555 1_555
C33_2 C34_2 1_555 1_555
C35_2 C36_2 1_555 1_555
C54_2 C55_2 1_555 1_555
C54_2 N11_2 1_555 1_555
C56_2 C57_2 1_555 1_555
C56_2 N11_2 1_555 1_555
O40_2 H49_2 1_555 1_555
O40_2 H50_2 1_555 1_555
O39_2 H51_2 1_555 1_555
O39_2 H52_2 1_555 1_555
O38_2 H53_2 1_555 1_555
O38_2 H54_2 1_555 1_555
W3_2 O5_2 1_555 1_555
W4_2 O1_2 1_555 1_555
W5_2 O1_2 1_555 1_555
W9_2 O6_2 1_555 1_555
W10_2 O5_2 1_555 1_555
O6_2 W4_2 1_555 1_555
O7_2 W4_2 1_555 1_555
O8_2 W5_2 1_555 1_555
O12_2 W3_2 1_555 1_555
O13_2 W5_2 1_555 1_555
O14_2 W2_2 1_555 1_555
O16_2 W4_2 1_555 1_555
O18_2 W3_2 1_555 1_555
O21_2 W9_2 1_555 1_555
O25_2 W3_2 1_555 1_555
O26_2 W2_2 1_555 1_555
O27_2 W4_2 1_555 1_555
O30_2 W5_2 1_555 1_555
O32_2 W10_2 1_555 1_555
O33_2 W2_2 1_555 1_555
Cu2_2 O33_2 1_555 1_555
C17_2 H13_2 1_555 1_555
C18_2 H14_2 1_555 1_555
C19_2 H15_2 1_555 1_555
C20_2 H16_2 1_555 1_555
C21_2 H17_2 1_555 1_555
C22_2 C17_2 1_555 1_555
H18_2 C22_2 1_555 1_555
C23_2 C20_2 1_555 1_555
H19_2 C23_2 1_555 1_555
C24_2 C19_2 1_555 1_555
C25_2 C19_2 1_555 1_555
H20_2 C25_2 1_555 1_555
C26_2 C29_2 1_555 1_555
C27_2 C18_2 1_555 1_555
H21_2 C27_2 1_555 1_555
C28_2 C21_2 1_555 1_555
C29_2 C17_2 1_555 1_555
C30_2 C21_2 1_555 1_555
H22_2 C30_2 1_555 1_555
N5_2 C18_2 1_555 1_555
N6_2 Cu2_2 1_555 1_555
N7_2 Cu2_2 1_555 1_555
C31_2 C26_2 1_555 1_555
H23_2 C31_2 1_555 1_555
C32_2 C31_2 1_555 1_555
H24_2 C32_2 1_555 1_555
N8_2 C32_2 1_555 1_555
C37_2 C29_2 1_555 1_555
H29_2 C37_2 1_555 1_555
C38_2 N6_2 1_555 1_555
H30_2 C38_2 1_555 1_555
C39_2 C26_2 1_555 1_555
H31_2 C39_2 1_555 1_555
C40_2 N8_2 1_555 1_555
H32_2 C40_2 1_555 1_555
W12_2 O50_2 1_555 1_555
W13_2 O46_2 1_555 1_555
W14_2 O47_2 1_555 1_555
W15_2 O43_2 1_555 1_555
W16_2 O43_2 1_555 1_555
W17_2 O60_2 1_555 1_555
W18_2 O46_2 1_555 1_555
W19_2 O45_2 1_555 1_555
W20_2 O48_2 1_555 1_555
W21_2 O47_2 1_555 1_555
W22_2 O52_2 1_555 1_555
Nd2_2 O44_2 1_555 1_555
P2_2 O61_2 1_555 1_555
O44_2 W15_2 1_555 1_555
O45_2 W16_2 1_555 1_555
O48_2 W15_2 1_555 1_555
O49_2 W15_2 1_555 1_555
O50_2 W16_2 1_555 1_555
O51_2 W12_2 1_555 1_555
O52_2 W18_2 1_555 1_555
O53_2 W12_2 1_555 1_555
O54_2 W14_2 1_555 1_555
O55_2 W16_2 1_555 1_555
O56_2 W13_2 1_555 1_555
O57_2 W12_2 1_555 1_555
O58_2 W15_2 1_555 1_555
O59_2 W19_2 1_555 1_555
O60_2 W14_2 1_555 1_555
O61_2 W19_2 1_555 1_555
O62_2 W20_2 1_555 1_555
O64_2 W17_2 1_555 1_555
O65_2 W17_2 1_555 1_555
O66_2 W12_2 1_555 1_555
O67_2 W14_2 1_555 1_555
O68_2 W13_2 1_555 1_555
O69_2 W15_2 1_555 1_555
O70_2 W18_2 1_555 1_555
O71_2 W17_2 1_555 1_555
O72_2 W16_2 1_555 1_555
O73_2 W19_2 1_555 1_555
O74_2 W21_2 1_555 1_555
O75_2 Cu2_2 1_555 1_555
O76_2 W12_2 1_555 1_555
O77_2 W22_2 1_555 1_555
O78_2 W17_2 1_555 1_555
O79_2 W22_2 1_555 1_555
O80_2 Nd2_2 1_555 1_555
O81_2 Nd2_2 1_555 1_555
O82_2 Nd2_2 1_555 1_555
O83_2 W17_2 1_555 1_555
O87_2 W19_2 1_555 1_555
C42_2 H34_2 1_555 1_555
C43_2 H35_2 1_555 1_555
C44_2 H36_2 1_555 1_555
C45_2 C43_2 1_555 1_555
H37_2 C45_2 1_555 1_555
C46_2 C42_2 1_555 1_555
C47_2 C42_2 1_555 1_555
H38_2 C47_2 1_555 1_555
C48_2 C41_2 1_555 1_555
H39_2 C48_2 1_555 1_555
C49_2 C44_2 1_555 1_555
C50_2 C44_2 1_555 1_555
H40_2 C50_2 1_555 1_555
N9_2 C41_2 1_555 1_555
N10_2 Cu2_2 1_555 1_555
C51_2 H41_2 1_555 1_555
C52_2 C51_2 1_555 1_555
C58_2 H46_2 1_555 1_555
C59_2 C52_2 1_555 1_555
H47_2 C59_2 1_555 1_555
C60_2 C51_2 1_555 1_555
H48_2 C60_2 1_555 1_555
N12_2 C58_2 1_555 1_555
Nd3_2 O21_2 1_555 1_555
O86_2 Nd2_2 1_555 1_555
Cu5_2 N8_2 1_555 1_555
N14_2 Cu2_2 1_555 1_555
W2_2 O9_2 1_555 1_555
W3_2 O14_2 1_555 1_555
W5_2 O27_2 1_555 1_555
W9_2 O23_2 1_555 1_555
W9_2 O25_2 1_555 1_555
W10_2 O7_2 1_555 1_555
W10_2 O13_2 1_555 1_555
W10_2 O26_2 1_555 1_555
W10_2 O27_2 1_555 1_555
C20_2 C24_2 1_555 1_555
C22_2 N6_2 1_555 1_555
C23_2 N7_2 1_555 1_555
C24_2 C28_2 1_555 1_555
C25_2 N7_2 1_555 1_555
C27_2 C28_2 1_555 1_555
C30_2 N5_2 1_555 1_555
C37_2 C38_2 1_555 1_555
C39_2 C40_2 1_555 1_555
W13_2 O51_2 1_555 1_555
W13_2 O66_2 1_555 1_555
W13_2 O75_2 1_555 1_555
W14_2 O56_2 1_555 1_555
W16_2 O69_2 1_555 1_555
W18_2 O53_2 1_555 1_555
W18_2 O64_2 1_555 1_555
W18_2 O66_2 1_555 1_555
W19_2 O57_2 1_555 1_555
W20_2 O65_2 1_555 1_555
W20_2 O67_2 1_555 1_555
W20_2 O71_2 1_555 1_555
W21_2 O49_2 1_555 1_555
W21_2 O55_2 1_555 1_555
W21_2 O68_2 1_555 1_555
W21_2 O69_2 1_555 1_555
W22_2 O61_2 1_555 1_555
W22_2 O73_2 1_555 1_555
W22_2 O78_2 1_555 1_555
Nd2_2 O59_2 1_555 1_555
Nd2_2 O62_2 1_555 1_555
Nd2_2 O77_2 1_555 1_555
P2_2 O65_2 1_555 1_555
P2_2 O66_2 1_555 1_555
P2_2 O69_2 1_555 1_555
C43_2 C46_2 1_555 1_555
C45_2 N10_2 1_555 1_555
C46_2 C49_2 1_555 1_555
C47_2 N10_2 1_555 1_555
C48_2 C49_2 1_555 1_555
C50_2 N9_2 1_555 1_555
C58_2 C59_2 1_555 1_555
C60_2 N12_2 1_555 1_555
O82_2 H55_2 1_555 1_555
O82_2 H56_2 1_555 1_555
O81_2 H57_2 1_555 1_555
O81_2 H58_2 1_555 1_555
O80_2 H60_2 1_555 1_555
Nd4_2 O63_2 1_555 1_555
W18_3 O46_3 1_555 1_555
W22_3 O52_3 1_555 1_555
P2_3 O61_3 1_555 1_555
O52_3 W18_3 1_555 1_555
O53_3 W12_3 1_555 1_555
O57_3 W12_3 1_555 1_555
O64_3 W17_3 1_555 1_555
O66_3 W12_3 1_555 1_555
O70_3 W18_3 1_555 1_555
O71_3 W17_3 1_555 1_555
O76_3 W12_3 1_555 1_555
O77_3 W22_3 1_555 1_555
O78_3 W17_3 1_555 1_555
O79_3 W22_3 1_555 1_555
O83_3 W17_3 1_555 1_555
W18_3 O53_3 1_555 1_555
W18_3 O64_3 1_555 1_555
W18_3 O66_3 1_555 1_555
W22_3 O61_3 1_555 1_555
W22_3 O73_3 1_555 1_555
W22_3 O78_3 1_555 1_555
P2_3 O66_3 1_555 1_555
W19_3 O45_3 1_555 1_555
Nd4 O44_3 1_555 1_555
O59_3 W19_3 1_555 1_555
O80_3 Nd4 1_555 1_555
O81_3 Nd4 1_555 1_555
O82_3 Nd4 1_555 1_555
O84 W19_3 1_555 1_555
Cu4_2 O84 1_555 1_555
Nd4 O59_3 1_555 1_555
O82_3 H55_3 1_555 1_555
O82_3 H56_3 1_555 1_555
O81_3 H57_3 1_555 1_555
O81_3 H58_3 1_555 1_555
O80_3 H60_3 1_555 1_555
W1_3 O8_3 1_555 1_555
W2_3 O4_3 1_555 1_555
W3_3 O5_3 1_555 1_555
W6_3 O18_3 1_555 1_555
W7_3 O4_3 1_555 1_555
W9_3 O6_3 1_555 1_555
W10_3 O5_3 1_555 1_555
W11_3 O10_3 1_555 1_555
P1_3 O19_3 1_555 1_555
O9_3 W1_3 1_555 1_555
O10_3 W7_3 1_555 1_555
O11_3 W1_3 1_555 1_555
O12_3 W3_3 1_555 1_555
O14_3 W2_3 1_555 1_555
O15_3 W1_3 1_555 1_555
O18_3 W3_3 1_555 1_555
O20_3 W9_3 1_555 1_555
O85 W9_3 1_555 1_555
O22_3 W6_3 1_555 1_555
O23_3 W6_3 1_555 1_555
O24_3 W1_3 1_555 1_555
O25_3 W3_3 1_555 1_555
O26_3 W2_3 1_555 1_555
O28_3 W7_3 1_555 1_555
O29_3 W6_3 1_555 1_555
O32_3 W10_3 1_555 1_555
O33_3 W2_3 1_555 1_555
O34_3 W1_3 1_555 1_555
O35_3 W11_3 1_555 1_555
O36_3 W6_3 1_555 1_555
O37_3 W11_3 1_555 1_555
O41_3 W6_3 1_555 1_555
C1_3 C3_3 1_555 1_555
C3_3 C7_3 1_555 1_555
C5_3 H2_3 1_555 1_555
C6_3 C1_3 1_555 1_555
H3_3 C6_3 1_555 1_555
C7_3 H4_3 1_555 1_555
C16_3 C7_3 1_555 1_555
H12_3 C16_3 1_555 1_555
N13_2 C16_3 1_555 1_555
Cu5_2 O33_3 1_555 1_555
C17_3 H13_3 1_555 1_555
C19_3 H15_3 1_555 1_555
C20_3 H16_3 1_555 1_555
C21_3 H17_3 1_555 1_555
C22_3 C17_3 1_555 1_555
H18_3 C22_3 1_555 1_555
C23_3 C20_3 1_555 1_555
H19_3 C23_3 1_555 1_555
C24_3 C19_3 1_555 1_555
C25_3 C19_3 1_555 1_555
H20_3 C25_3 1_555 1_555
C27_3 C18_3 1_555 1_555
H21_3 C27_3 1_555 1_555
C28_3 C21_3 1_555 1_555
C29_3 C17_3 1_555 1_555
C30_3 C21_3 1_555 1_555
H22_3 C30_3 1_555 1_555
N5_3 C18_3 1_555 1_555
N6_3 Cu5_2 1_555 1_555
N7_3 Cu5_2 1_555 1_555
C33_3 N1_3 1_555 1_555
H25_3 C33_3 1_555 1_555
C34_3 C1_3 1_555 1_555
H26_3 C34_3 1_555 1_555
C35_3 C3_3 1_555 1_555
H27_3 C35_3 1_555 1_555
C36_3 N13_2 1_555 1_555
H28_3 C36_3 1_555 1_555
C37_3 C29_3 1_555 1_555
H29_3 C37_3 1_555 1_555
C38_3 N6_3 1_555 1_555
H30_3 C38_3 1_555 1_555
W14_3 O47_3 1_555 1_555
W20_3 O48_3 1_555 1_555
W21_3 O47_3 1_555 1_555
O54_3 W14_3 1_555 1_555
O56_3 W13_3 1_555 1_555
O60_3 W14_3 1_555 1_555
O67_3 W14_3 1_555 1_555
O68_3 W13_3 1_555 1_555
O74_3 W21_3 1_555 1_555
O75_3 Cu5_2 1_555 1_555
C41_3 H33_3 1_555 1_555
C42_3 H34_3 1_555 1_555
C43_3 H35_3 1_555 1_555
C44_3 H36_3 1_555 1_555
C45_3 C43_3 1_555 1_555
H37_3 C45_3 1_555 1_555
C46_3 C42_3 1_555 1_555
C47_3 C42_3 1_555 1_555
H38_3 C47_3 1_555 1_555
C48_3 C41_3 1_555 1_555
H39_3 C48_3 1_555 1_555
C49_3 C44_3 1_555 1_555
C50_3 C44_3 1_555 1_555
H40_3 C50_3 1_555 1_555
N9_3 C41_3 1_555 1_555
N10_3 Cu5_2 1_555 1_555
W2_3 O9_3 1_555 1_555
W2_3 O24_3 1_555 1_555
W3_3 O14_3 1_555 1_555
W7_3 O11_3 1_555 1_555
W7_3 O22_3 1_555 1_555
W7_3 O24_3 1_555 1_555
W9_3 O23_3 1_555 1_555
W9_3 O25_3 1_555 1_555
W9_3 O29_3 1_555 1_555
W10_3 O7_3 1_555 1_555
W10_3 O26_3 1_555 1_555
W10_3 O27_3 1_555 1_555
W11_3 O19_3 1_555 1_555
W11_3 O31_3 1_555 1_555
W11_3 O36_3 1_555 1_555
P1_3 O23_3 1_555 1_555
P1_3 O24_3 1_555 1_555
P1_3 O27_3 1_555 1_555
C5_3 C6_3 1_555 1_555
C5_3 N1_3 1_555 1_555
C20_3 C24_3 1_555 1_555
C22_3 N6_3 1_555 1_555
C23_3 N7_3 1_555 1_555
C24_3 C28_3 1_555 1_555
C25_3 N7_3 1_555 1_555
C27_3 C28_3 1_555 1_555
C30_3 N5_3 1_555 1_555
C33_3 C34_3 1_555 1_555
C35_3 C36_3 1_555 1_555
C37_3 C38_3 1_555 1_555
W13_3 O51_3 1_555 1_555
W13_3 O75_3 1_555 1_555
W14_3 O56_3 1_555 1_555
W20_3 O65_3 1_555 1_555
W20_3 O67_3 1_555 1_555
W21_3 O49_3 1_555 1_555
W21_3 O68_3 1_555 1_555
W21_3 O69_3 1_555 1_555
C43_3 C46_3 1_555 1_555
C45_3 N10_3 1_555 1_555
C46_3 C49_3 1_555 1_555
C47_3 N10_3 1_555 1_555
C48_3 C49_3 1_555 1_555
C50_3 N9_3 1_555 1_555
W4_3 O1_3 1_555 1_555
W5_3 O1_3 1_555 1_555
W8_3 O3_3 1_555 1_555
Nd3 O2_3 1_555 1_555
Cu4_2 O42_3 1_555 1_555
O2_3 W4_3 1_555 1_555
O3_3 W5_3 1_555 1_555
O13_3 W5_3 1_555 1_555
O16_3 W4_3 1_555 1_555
O17_3 W8_3 1_555 1_555
O30_3 W5_3 1_555 1_555
O38_3 Nd3 1_555 1_555
O39_3 Nd3 1_555 1_555
O40_3 Nd3 1_555 1_555
O42_3 W8_3 1_555 1_555
C9_3 H5_3 1_555 1_555
C10_3 C8_3 1_555 1_555
H6_3 C10_3 1_555 1_555
C11_3 H7_3 1_555 1_555
C12_3 C8_3 1_555 1_555
N2_3 Cu4_2 1_555 1_555
C31_3 C26_3 1_555 1_555
H23_3 C31_3 1_555 1_555
C32_3 C31_3 1_555 1_555
H24_3 C32_3 1_555 1_555
N14_2 C32_3 1_555 1_555
C39_3 C26_3 1_555 1_555
H31_3 C39_3 1_555 1_555
C40_3 N14_2 1_555 1_555
H32_3 C40_3 1_555 1_555
W15_3 O43_3 1_555 1_555
W16_3 O43_3 1_555 1_555
O55_3 W16_3 1_555 1_555
O58_3 W15_3 1_555 1_555
O72_3 W16_3 1_555 1_555
C51_3 H41_3 1_555 1_555
C52_3 C51_3 1_555 1_555
C53_3 C52_3 1_555 1_555
C54_3 H42_3 1_555 1_555
C55_3 C53_3 1_555 1_555
H43_3 C55_3 1_555 1_555
C56_3 H44_3 1_555 1_555
C57_3 C53_3 1_555 1_555
H45_3 C57_3 1_555 1_555
C58_3 H46_3 1_555 1_555
C59_3 C52_3 1_555 1_555
H47_3 C59_3 1_555 1_555
C60_3 C51_3 1_555 1_555
H48_3 C60_3 1_555 1_555
N11_3 Cu4_2 1_555 1_555
N12_3 C58_3 1_555 1_555
Nd3 O17_3 1_555 1_555
C9_3 C10_3 1_555 1_555
C9_3 N2_3 1_555 1_555
C11_3 C12_3 1_555 1_555
C11_3 N2_3 1_555 1_555
C39_3 C40_3 1_555 1_555
C54_3 C55_3 1_555 1_555
C54_3 N11_3 1_555 1_555
C56_3 C57_3 1_555 1_555
C56_3 N11_3 1_555 1_555
C58_3 C59_3 1_555 1_555
C60_3 N12_3 1_555 1_555
O40_3 H49_3 1_555 1_555
O40_3 H50_3 1_555 1_555
O39_3 H51_3 1_555 1_555
O39_3 H52_3 1_555 1_555
O38_3 H53_3 1_555 1_555
O38_3 H54_3 1_555 1_555
C2_3 H1_3 1_555 1_555
C4_3 C2_3 1_555 1_555
C13_3 H9_3 1_555 1_555
C14_3 C4_3 1_555 1_555
H10_3 C14_3 1_555 1_555
C15_3 C2_3 1_555 1_555
H11_3 C15_3 1_555 1_555
N3_3 C13_3 1_555 1_555
C13_3 C14_3 1_555 1_555
C15_3 N3_3 1_555 1_555
W3_4 O5_4 1_555 1_555
W4_4 O1_4 1_555 1_555
W5_4 O1_4 1_555 1_555
W9_4 O6_4 1_555 1_555
W10_4 O5_4 1_555 1_555
O6_4 W4_4 1_555 1_555
O7_4 W4_4 1_555 1_555
O8_4 W5_4 1_555 1_555
O12_4 W3_4 1_555 1_555
O13_4 W5_4 1_555 1_555
O14_4 W2_4 1_555 1_555
O16_4 W4_4 1_555 1_555
O18_4 W3_4 1_555 1_555
O85_2 W9_4 1_555 1_555
O25_4 W3_4 1_555 1_555
O26_4 W2_4 1_555 1_555
O27_4 W4_4 1_555 1_555
O30_4 W5_4 1_555 1_555
O32_4 W10_4 1_555 1_555
O33_4 W2_4 1_555 1_555
Cu5 O33_4 1_555 1_555
C17_4 H13_4 1_555 1_555
C18_4 H14_4 1_555 1_555
C19_4 H15_4 1_555 1_555
C20_4 H16_4 1_555 1_555
C21_4 H17_4 1_555 1_555
C22_4 C17_4 1_555 1_555
H18_4 C22_4 1_555 1_555
C23_4 C20_4 1_555 1_555
H19_4 C23_4 1_555 1_555
C24_4 C19_4 1_555 1_555
C25_4 C19_4 1_555 1_555
H20_4 C25_4 1_555 1_555
C26_4 C29_4 1_555 1_555
C27_4 C18_4 1_555 1_555
H21_4 C27_4 1_555 1_555
C28_4 C21_4 1_555 1_555
C29_4 C17_4 1_555 1_555
C30_4 C21_4 1_555 1_555
H22_4 C30_4 1_555 1_555
N5_4 C18_4 1_555 1_555
N6_4 Cu5 1_555 1_555
N7_4 Cu5 1_555 1_555
C31_4 C26_4 1_555 1_555
H23_4 C31_4 1_555 1_555
C32_4 C31_4 1_555 1_555
H24_4 C32_4 1_555 1_555
N14 C32_4 1_555 1_555
C37_4 C29_4 1_555 1_555
H29_4 C37_4 1_555 1_555
C38_4 N6_4 1_555 1_555
H30_4 C38_4 1_555 1_555
C39_4 C26_4 1_555 1_555
H31_4 C39_4 1_555 1_555
C40_4 N14 1_555 1_555
H32_4 C40_4 1_555 1_555
W12_4 O50_4 1_555 1_555
W13_4 O46_4 1_555 1_555
W14_4 O47_4 1_555 1_555
W15_4 O43_4 1_555 1_555
W16_4 O43_4 1_555 1_555
W17_4 O60_4 1_555 1_555
W18_4 O46_4 1_555 1_555
W19_4 O45_4 1_555 1_555
W20_4 O48_4 1_555 1_555
W21_4 O47_4 1_555 1_555
W22_4 O52_4 1_555 1_555
Nd4_2 O44_4 1_555 1_555
P2_4 O61_4 1_555 1_555
O44_4 W15_4 1_555 1_555
O45_4 W16_4 1_555 1_555
O48_4 W15_4 1_555 1_555
O49_4 W15_4 1_555 1_555
O50_4 W16_4 1_555 1_555
O51_4 W12_4 1_555 1_555
O52_4 W18_4 1_555 1_555
O53_4 W12_4 1_555 1_555
O54_4 W14_4 1_555 1_555
O55_4 W16_4 1_555 1_555
O56_4 W13_4 1_555 1_555
O57_4 W12_4 1_555 1_555
O58_4 W15_4 1_555 1_555
O59_4 W19_4 1_555 1_555
O60_4 W14_4 1_555 1_555
O61_4 W19_4 1_555 1_555
O62_4 W20_4 1_555 1_555
O64_4 W17_4 1_555 1_555
O65_4 W17_4 1_555 1_555
O66_4 W12_4 1_555 1_555
O67_4 W14_4 1_555 1_555
O68_4 W13_4 1_555 1_555
O69_4 W15_4 1_555 1_555
O70_4 W18_4 1_555 1_555
O71_4 W17_4 1_555 1_555
O72_4 W16_4 1_555 1_555
O73_4 W19_4 1_555 1_555
O74_4 W21_4 1_555 1_555
O75_4 Cu5 1_555 1_555
O76_4 W12_4 1_555 1_555
O77_4 W22_4 1_555 1_555
O78_4 W17_4 1_555 1_555
O79_4 W22_4 1_555 1_555
O80_4 Nd4_2 1_555 1_555
O81_4 Nd4_2 1_555 1_555
O82_4 Nd4_2 1_555 1_555
O83_4 W17_4 1_555 1_555
O84_2 W19_4 1_555 1_555
C42_4 H34_4 1_555 1_555
C43_4 H35_4 1_555 1_555
C44_4 H36_4 1_555 1_555
C45_4 C43_4 1_555 1_555
H37_4 C45_4 1_555 1_555
C46_4 C42_4 1_555 1_555
C47_4 C42_4 1_555 1_555
H38_4 C47_4 1_555 1_555
C48_4 C41_4 1_555 1_555
H39_4 C48_4 1_555 1_555
C49_4 C44_4 1_555 1_555
C50_4 C44_4 1_555 1_555
H40_4 C50_4 1_555 1_555
N9_4 C41_4 1_555 1_555
N10_4 Cu5 1_555 1_555
C51_4 H41_4 1_555 1_555
C52_4 C51_4 1_555 1_555
C58_4 H46_4 1_555 1_555
C59_4 C52_4 1_555 1_555
H47_4 C59_4 1_555 1_555
C60_4 C51_4 1_555 1_555
H48_4 C60_4 1_555 1_555
N12_4 C58_4 1_555 1_555
Cu4 O84_2 1_555 1_555
W2_4 O9_4 1_555 1_555
W3_4 O14_4 1_555 1_555
W5_4 O27_4 1_555 1_555
W9_4 O23_4 1_555 1_555
W9_4 O25_4 1_555 1_555
W10_4 O7_4 1_555 1_555
W10_4 O13_4 1_555 1_555
W10_4 O26_4 1_555 1_555
W10_4 O27_4 1_555 1_555
C20_4 C24_4 1_555 1_555
C22_4 N6_4 1_555 1_555
C23_4 N7_4 1_555 1_555
C24_4 C28_4 1_555 1_555
C25_4 N7_4 1_555 1_555
C27_4 C28_4 1_555 1_555
C30_4 N5_4 1_555 1_555
C37_4 C38_4 1_555 1_555
C39_4 C40_4 1_555 1_555
W13_4 O51_4 1_555 1_555
W13_4 O66_4 1_555 1_555
W13_4 O75_4 1_555 1_555
W14_4 O56_4 1_555 1_555
W16_4 O69_4 1_555 1_555
W18_4 O53_4 1_555 1_555
W18_4 O64_4 1_555 1_555
W18_4 O66_4 1_555 1_555
W19_4 O57_4 1_555 1_555
W20_4 O65_4 1_555 1_555
W20_4 O67_4 1_555 1_555
W20_4 O71_4 1_555 1_555
W21_4 O49_4 1_555 1_555
W21_4 O55_4 1_555 1_555
W21_4 O68_4 1_555 1_555
W21_4 O69_4 1_555 1_555
W22_4 O61_4 1_555 1_555
W22_4 O73_4 1_555 1_555
W22_4 O78_4 1_555 1_555
Nd4_2 O59_4 1_555 1_555
Nd4_2 O62_4 1_555 1_555
Nd4_2 O77_4 1_555 1_555
P2_4 O65_4 1_555 1_555
P2_4 O66_4 1_555 1_555
P2_4 O69_4 1_555 1_555
C43_4 C46_4 1_555 1_555
C45_4 N10_4 1_555 1_555
C46_4 C49_4 1_555 1_555
C47_4 N10_4 1_555 1_555
C48_4 C49_4 1_555 1_555
C50_4 N9_4 1_555 1_555
C58_4 C59_4 1_555 1_555
C60_4 N12_4 1_555 1_555
O82_4 H55_4 1_555 1_555
O82_4 H56_4 1_555 1_555
O81_4 H57_4 1_555 1_555
O81_4 H58_4 1_555 1_555
O80_4 H60_4 1_555 1_555
W7_4 O4_4 1_555 1_555
W8_4 O3_4 1_555 1_555
W11_4 O10_4 1_555 1_555
Nd3_2 O2_4 1_555 1_555
Cu4 O42_4 1_555 1_555
P1_4 O19_4 1_555 1_555
O10_4 W7_4 1_555 1_555
O11_4 W1_4 1_555 1_555
O15_4 W1_4 1_555 1_555
O17_4 W8_4 1_555 1_555
O19_4 W8_4 1_555 1_555
O22_4 W6_4 1_555 1_555
O24_4 W1_4 1_555 1_555
O28_4 W7_4 1_555 1_555
O29_4 W6_4 1_555 1_555
O31_4 W8_4 1_555 1_555
O34_4 W1_4 1_555 1_555
O35_4 W11_4 1_555 1_555
O36_4 W6_4 1_555 1_555
O37_4 W11_4 1_555 1_555
O38_4 Nd3_2 1_555 1_555
O39_4 Nd3_2 1_555 1_555
O40_4 Nd3_2 1_555 1_555
O41_4 W6_4 1_555 1_555
O42_4 W8_4 1_555 1_555
C1_4 C3_4 1_555 1_555
C2_4 H1_4 1_555 1_555
C3_4 C7_4 1_555 1_555
C4_4 C2_4 1_555 1_555
C5_4 H2_4 1_555 1_555
C6_4 C1_4 1_555 1_555
H3_4 C6_4 1_555 1_555
C7_4 H4_4 1_555 1_555
C8_4 C4_4 1_555 1_555
C9_4 H5_4 1_555 1_555
C10_4 C8_4 1_555 1_555
H6_4 C10_4 1_555 1_555
C11_4 H7_4 1_555 1_555
C12_4 C8_4 1_555 1_555
H8_4 C12_4 1_555 1_555
C13_4 H9_4 1_555 1_555
C14_4 C4_4 1_555 1_555
H10_4 C14_4 1_555 1_555
C15_4 C2_4 1_555 1_555
H11_4 C15_4 1_555 1_555
N1_4 Cu4 1_555 1_555
N2_4 Cu4 1_555 1_555
N3_4 C13_4 1_555 1_555
C16_4 C7_4 1_555 1_555
H12_4 C16_4 1_555 1_555
N13 C16_4 1_555 1_555
C33_4 N1_4 1_555 1_555
H25_4 C33_4 1_555 1_555
C34_4 C1_4 1_555 1_555
H26_4 C34_4 1_555 1_555
C35_4 C3_4 1_555 1_555
H27_4 C35_4 1_555 1_555
C36_4 N13 1_555 1_555
H28_4 C36_4 1_555 1_555
C54_4 H42_4 1_555 1_555
C55_4 C53_4 1_555 1_555
H43_4 C55_4 1_555 1_555
C56_4 H44_4 1_555 1_555
C57_4 C53_4 1_555 1_555
N11_4 Cu4 1_555 1_555
W7_4 O11_4 1_555 1_555
W7_4 O22_4 1_555 1_555
W7_4 O24_4 1_555 1_555
W8_4 O15_4 1_555 1_555
W11_4 O19_4 1_555 1_555
W11_4 O31_4 1_555 1_555
W11_4 O36_4 1_555 1_555
Nd3_2 O17_4 1_555 1_555
Nd3_2 O20_4 1_555 1_555
Nd3_2 O35_4 1_555 1_555
P1_4 O24_4 1_555 1_555
C5_4 C6_4 1_555 1_555
C5_4 N1_4 1_555 1_555
C9_4 C10_4 1_555 1_555
C9_4 N2_4 1_555 1_555
C11_4 C12_4 1_555 1_555
C11_4 N2_4 1_555 1_555
C13_4 C14_4 1_555 1_555
C15_4 N3_4 1_555 1_555
C33_4 C34_4 1_555 1_555
C35_4 C36_4 1_555 1_555
C54_4 C55_4 1_555 1_555
C54_4 N11_4 1_555 1_555
C56_4 C57_4 1_555 1_555
C56_4 N11_4 1_555 1_555
O40_4 H49_4 1_555 1_555
O40_4 H50_4 1_555 1_555
O39_4 H51_4 1_555 1_555
O39_4 H52_4 1_555 1_555
O38_4 H53_4 1_555 1_555
O38_4 H54_4 1_555 1_555

#END
