
###############################################################################
#
# This file contains modified crystal structure data generated from the
# MOF subset of the Cambridge Structural Database (CSD) v543 
# hosted by the Cambridge Crystallographic Data Centre (CCDC).
#
# This work is licensed under the Creative Commons
# Attribution-NonCommercial-ShareAlike 4.0 International License.
# To view a copy of this license, visit
# http://creativecommons.org/licenses/by-nc-sa/4.0/
# or send a letter to
# Creative Commons, PO Box 1866, Mountain View, CA 94042, USA.
#
# CIF created using the CSD Python API on 29 September 2022
# The structure has been converted into the P1 space group
# The structure has a 3D framework
# The original CSD entry URENAJ is in the monoclinic crystal system
# The framework has been calculated to contain at least 10.0% void space
# The void calculation uses a probe of radius 1.32A, grid spacing 0.4
# H atom positions have been added when not included in the experimental data
#
###############################################################################

data_URENAJ
_chemical_formula_moiety         '(C160 H168 Ce4 Cu8 N32 O180 P4 W44)n'
_symmetry_cell_setting           triclinic
_symmetry_space_group_name_H-M   'P 1'
_symmetry_Int_Tables_number      1
_space_group_name_Hall           'P 1'
loop_
_symmetry_equiv_pos_site_id
_symmetry_equiv_pos_as_xyz
1 x,y,z
_cell_length_a                   22.1444(18)
_cell_length_b                   14.5741(11)
_cell_length_c                   28.230(2)
_cell_angle_alpha                90
_cell_angle_beta                 102.549(2)
_cell_angle_gamma                90
_cell_volume                     8893.15
loop_
_atom_site_label
_atom_site_type_symbol
_atom_site_fract_x
_atom_site_fract_y
_atom_site_fract_z
O30 O 0.5241(5) 0.0115(7) 0.7852(4)
Ce2 Ce 0.28895(4) 0.15805(6) 0.79382(3)
O46 O 0.2536(5) 0.0082(6) 0.5097(4)
W1 W 0.32262(3) 0.88014(4) 0.74701(2)
W2 W 0.31198(3) 0.80953(4) 0.63290(2)
W3 W 0.34900(3) 0.48400(4) 0.68351(2)
W4 W 0.36159(3) 0.55912(4) 0.80764(2)
W5 W 0.43633(3) 0.76282(4) 0.84547(2)
W6 W 0.49645(3) 0.90903(4) 0.76015(2)
W7 W 0.48356(3) 0.83720(4) 0.64341(2)
W8 W 0.40937(3) 0.61662(4) 0.60439(2)
W9 W 0.50898(3) 0.50488(4) 0.69507(2)
W10 W 0.52177(3) 0.58107(4) 0.82239(2)
W11 W 0.58346(3) 0.72769(4) 0.73615(2)
P1 P 0.41979(14) 0.6990(2) 0.72338(11)
Cu1 Cu 0.25177(8) 0.13115(11) 0.48913(6)
Cu2 Cu 0.24344(8) 0.88308(12) 0.48965(7)
Ce1 Ce 0.21105(4) 0.65805(6) 0.70618(3)
C1 C 0.3691(7) 0.8108(10) 0.5044(6)
H1 H 0.351551 0.768033 0.523527
C2 C 0.4301(6) 0.8036(10) 0.5035(5)
H2 H 0.454665 0.755423 0.521214
C3 C 0.5634(6) 0.8150(11) 0.5199(6)
H3 H 0.544845 0.781621 0.542381
C4 C 0.2547(9) 0.6087(12) 0.4387(7)
H4 H 0.262592 0.578279 0.410505
C5 C 0.6182(7) 0.9096(10) 0.4580(5)
H5 H 0.637128 0.943574 0.435966
C6 C 0.2519(7) 0.4542(11) 0.4802(6)
C7 C 0.2221(8) 0.3118(10) 0.4437(6)
H6 H 0.200353 0.276545 0.416554
C8 C 0.6269(7) 0.8156(10) 0.5248(5)
H7 H 0.652182 0.781432 0.550767
C9 C 0.5254(7) 0.8623(10) 0.4817(5)
C10 C 0.5539(6) 0.9096(11) 0.4508(6)
H8 H 0.529365 0.942896 0.424077
C11 C 0.2807(8) 0.4097(11) 0.5216(6)
H9 H 0.300922 0.443761 0.549648
C12 C 0.2798(8) 0.3158(11) 0.5215(6)
H10 H 0.300669 0.283449 0.550020
C13 C 0.2486(7) 0.7019(12) 0.4391(6)
H11 H 0.252447 0.736999 0.411165
C14 C 0.3569(7) 0.9345(10) 0.4533(5)
H12 H 0.330849 0.980034 0.434451
C15 C 0.4200(7) 0.9324(11) 0.4519(6)
H13 H 0.436963 0.976605 0.433158
C16 C 0.0794(7) 0.9144(12) 0.5473(6)
H14 H 0.069557 0.941571 0.575637
C17 C 0.4573(6) 0.8650(10) 0.4781(5)
C18 C 0.2224(7) 0.4042(11) 0.4402(6)
H15 H 0.202290 0.434592 0.410809
C19 C 0.0511(6) 0.8335(11) 0.4726(5)
H16 H 0.021219 0.801990 0.448327
C21 C 0.2496(7) 0.5575(11) 0.4787(6)
C22 C 0.1115(7) 0.8386(11) 0.4688(5)
H18 H 0.122921 0.811908 0.440910
C24 C 0.2324(7) 0.6989(10) 0.5178(6)
H20 H 0.225056 0.730699 0.545819
C26 C 0.1395(6) 0.9157(10) 0.5409(6)
H22 H 0.170977 0.943451 0.565506
C28 C 0.2387(7) 0.6036(10) 0.5190(5)
H24 H 0.234951 0.569396 0.547261
C30 C 0.0330(6) 0.8739(10) 0.5125(5)
C31 C 0.1384(8) 0.4533(11) 0.5638(6)
H25 H 0.143954 0.389392 0.557689
C32 C 0.0734(8) 0.4706(11) 0.4793(5)
C33 C 0.0982(7) 0.6002(10) 0.5394(5)
H26 H 0.075267 0.640124 0.514940
C34 C 0.0618(8) 0.3786(12) 0.4702(7)
H27 H 0.076335 0.334868 0.495567
C35 C 0.1248(7) 0.6358(11) 0.5844(5)
H28 H 0.118648 0.699194 0.591159
C36 C 0.0510(11) 0.5261(12) 0.4403(6)
H29 H 0.058260 0.590979 0.443598
C37 C 0.1038(7) 0.5081(11) 0.5285(6)
C38 C 0.1651(8) 0.4932(11) 0.6085(5)
H30 H 0.188918 0.454507 0.633129
C39 C 0.0294(10) 0.3501(13) 0.4259(6)
H31 H 0.020915 0.285700 0.421498
C40 C 0.0175(9) 0.4916(14) 0.3968(7)
H32 H 0.000446 0.533884 0.371376
N1 N 0.2508(5) 0.2677(8) 0.4834(5)
N2 N 0.6546(5) 0.8640(8) 0.4941(4)
N3 N 0.2366(5) 0.7462(8) 0.4788(4)
N4 N 0.3318(5) 0.8763(8) 0.4794(4)
N6 N 0.1561(5) 0.8793(8) 0.5020(4)
N7 N 0.1602(6) 0.5827(8) 0.6188(4)
N8 N 0.0081(8) 0.4040(10) 0.3884(5)
O1 O 0.5013(5) 0.9298(7) 0.6944(4)
O2 O 0.3082(4) 0.9049(7) 0.6785(4)
O3 O 0.2899(4) 0.5631(7) 0.6807(3)
O4 O 0.4806(4) 0.5406(7) 0.6284(3)
O5 O 0.4125(4) 0.9258(6) 0.7463(3)
O6 O 0.3705(4) 0.4881(7) 0.7525(3)
O7 O 0.4530(4) 0.5231(7) 0.8341(3)
O8 O 0.2479(4) 0.7473(7) 0.6441(3)
O9 O 0.5061(5) 0.6813(7) 0.8618(3)
O10 O 0.3480(4) 0.7023(6) 0.6085(3)
O11 O 0.4002(4) 0.8551(6) 0.6364(3)
O12 O 0.3858(4) 0.6600(7) 0.8539(4)
O13 O 0.3679(4) 0.8230(7) 0.8060(3)
O14 O 0.3605(4) 0.5180(6) 0.6196(3)
O15 O 0.5656(4) 0.7874(7) 0.6750(3)
O16 O 0.2969(5) 0.6193(7) 0.7747(3)
O17 O 0.5645(4) 0.6701(7) 0.7910(3)
O18 O 0.5574(4) 0.6157(7) 0.7031(4)
O19 O 0.2572(4) 0.8107(6) 0.7427(3)
O20 O 0.5756(5) 0.8428(7) 0.7653(4)
O22 O 0.4378(4) 0.4371(7) 0.6909(3)
O23 O 0.4665(4) 0.7175(7) 0.6157(4)
O24 O 0.2436(5) 0.1059(7) 0.4082(4)
O25 O 0.4875(5) 0.8388(7) 0.8151(4)
O26 O 0.5160(4) 0.5142(7) 0.7635(4)
O27 O 0.0947(5) 0.6071(8) 0.6980(4)
O28 O 0.3022(5) 0.9836(7) 0.7683(3)
O29 O 0.4205(4) 0.6168(6) 0.6905(3)
O31 O 0.1355(5) 0.7849(7) 0.6708(4)
O32 O 0.4003(5) 0.6019(7) 0.5437(4)
O33 O 0.1663(5) 0.7037(9) 0.7781(4)
O34 O 0.4427(5) 0.8144(7) 0.9005(3)
O35 O 0.5822(5) 0.5274(8) 0.8610(4)
O36 O 0.3121(5) 0.3803(7) 0.6717(4)
O37 O 0.2808(4) 0.8652(7) 0.5788(3)
O38 O 0.5632(5) 0.4247(8) 0.6908(4)
O39 O 0.5029(5) 0.8987(7) 0.5967(4)
O40 O 0.6626(5) 0.7187(7) 0.7470(4)
O41 O 0.3599(4) 0.7536(6) 0.7095(3)
O42 O 0.4749(4) 0.7642(6) 0.7191(3)
O43 O 0.4302(4) 0.6662(7) 0.7762(3)
O44 O 0.3302(4) 0.4822(7) 0.8414(3)
O45 O 0.2059(5) 0.9228(8) 0.4027(4)
Cu4 Cu 0.74823(8) 0.86885(11) 0.51087(6)
N9 N 0.3454(5) 0.1360(8) 0.5059(4)
N10 N 0.1599(5) 0.1325(8) 0.4835(4)
O47 O 0.1978(5) 0.4836(7) 0.7317(3)
H33 H 0.0909629 0.54011 0.691617
H34 H 0.0814042 0.621253 0.728601
H35 H 0.0926865 0.760197 0.663646
H36 H 0.138701 0.835846 0.694573
H37 H 0.27944 0.134173 0.397841
H38 H 0.243149 0.0388411 0.401907
H39 H 0.148226 0.648888 0.790673
H40 H 0.199581 0.729501 0.804033
H41 H 0.16347 0.898144 0.391019
H42 H 0.205249 0.990545 0.398868
C20 C 0.9471(7) 0.8926(11) 0.5569(6)
H17 H 0.976770 0.906390 0.586241
C23 C 0.9229(7) 0.8555(11) 0.4733(5)
H19 H 0.934895 0.844801 0.443094
C25 C 0.8614(7) 0.8513(12) 0.4760(6)
H21 H 0.831507 0.836000 0.446955
C27 C 0.8843(7) 0.8897(11) 0.5566(6)
H23 H 0.871246 0.903794 0.586035
C29 C 0.9673(7) 0.8752(10) 0.5144(5)
N5 N 0.8401(5) 0.8675(8) 0.5165(4)
Cu2_2 Cu 0.25656(8) 0.38308(12) 0.01035(7)
C4_2 C 0.2453(9) 0.1087(12) 0.0613(7)
H4_2 H 0.237408 0.078279 0.089495
C13_2 C 0.2514(7) 0.2019(12) 0.0609(6)
H11_2 H 0.247553 0.236999 0.088835
C14_2 C 0.1431(7) 0.4345(10) 0.0467(5)
H12_2 H 0.169151 0.480034 0.065549
C15_2 C 0.0800(7) 0.4324(11) 0.0481(6)
H13_2 H 0.063037 0.476605 0.066842
C17_2 C 0.0427(6) 0.3650(10) 0.0219(5)
C19_2 C 0.4489(6) 0.3335(11) 0.0274(5)
H16_2 H 0.478781 0.301990 0.051673
C21_2 C 0.2504(7) 0.0575(11) 0.0213(6)
C22_2 C 0.3885(7) 0.3386(11) 0.0312(5)
H18_2 H 0.377079 0.311908 0.059090
C23_2 C 0.5771(7) 0.3555(11) 0.0267(5)
H19_2 H 0.565105 0.344801 0.056906
C25_2 C 0.6386(7) 0.3513(12) 0.0240(6)
H21_2 H 0.668493 0.336000 0.053045
C36_2 C 0.4490(11) 0.0261(12) 0.0597(6)
H29_2 H 0.441740 0.090979 0.056402
H32_2 H 0.499554 0.033884 0.128624
N3_2 N 0.2634(5) 0.2462(8) 0.0212(4)
N4_2 N 0.1682(5) 0.3763(8) 0.0206(4)
O45_2 O 0.2941(5) 0.4228(8) 0.0973(4)
H41_2 H 0.33653 0.398144 0.108981
H42_2 H 0.294751 0.490545 0.101132
W1_2 W 0.17738(3) 0.38014(4) 0.75299(2)
W2_2 W 0.18802(3) 0.30953(4) 0.86710(2)
W4_2 W 0.13841(3) 0.05912(4) 0.69236(2)
W5_2 W 0.06367(3) 0.26282(4) 0.65453(2)
W6_2 W 0.00355(3) 0.40903(4) 0.73985(2)
W7_2 W 0.01644(3) 0.33720(4) 0.85659(2)
W8_2 W 0.09063(3) 0.11662(4) 0.89561(2)
P1_2 P 0.08021(14) 0.1990(2) 0.77662(11)
C1_2 C 0.1309(7) 0.3108(10) 0.9956(6)
H1_2 H 0.148449 0.268033 0.976473
C2_2 C 0.0699(6) 0.3036(10) 0.9965(5)
H2_2 H 0.045335 0.255423 0.978786
C16_2 C 0.4206(7) 0.4144(12) 0.9527(6)
H14_2 H 0.430443 0.441571 0.924363
C20_2 C 0.5529(7) 0.3926(11) 0.9431(6)
H17_2 H 0.523230 0.406390 0.913759
C24_2 C 0.2676(7) 0.1989(10) 0.9822(6)
H20_2 H 0.274944 0.230699 0.954181
C26_2 C 0.3605(6) 0.4157(10) 0.9591(6)
H22_2 H 0.329023 0.443451 0.934494
C27_2 C 0.6157(7) 0.3897(11) 0.9434(6)
H23_2 H 0.628754 0.403794 0.913965
C28_2 C 0.2613(7) 0.1036(10) 0.9810(5)
H24_2 H 0.265049 0.069396 0.952739
C29_2 C 0.5327(7) 0.3752(10) 0.9856(5)
C30_2 C 0.4670(6) 0.3739(10) 0.9875(5)
C33_2 C 0.4018(7) 0.1002(10) 0.9606(5)
H26_2 H 0.424733 0.140124 0.985060
C35_2 C 0.3752(7) 0.1358(11) 0.9156(5)
H28_2 H 0.381352 0.199194 0.908841
C37_2 C 0.3962(7) 0.0081(11) 0.9715(6)
N5_2 N 0.6599(5) 0.3675(8) 0.9835(4)
N6_2 N 0.3439(5) 0.3793(8) 0.9980(4)
N7_2 N 0.3398(6) 0.0827(8) 0.8812(4)
O2_2 O 0.1918(4) 0.4049(7) 0.8215(4)
O3_2 O 0.2101(4) 0.0631(7) 0.8193(3)
O4_2 O 0.0194(4) 0.0406(7) 0.8716(3)
O5_2 O 0.0875(4) 0.4258(6) 0.7537(3)
O7_2 O 0.0470(4) 0.0231(7) 0.6659(3)
O8_2 O 0.2521(4) 0.2473(7) 0.8559(3)
O10_2 O 0.1520(4) 0.2023(6) 0.8915(3)
O11_2 O 0.0998(4) 0.3551(6) 0.8636(3)
O12_2 O 0.1142(4) 0.1600(7) 0.6461(4)
O13_2 O 0.1321(4) 0.3230(7) 0.6940(3)
O14_2 O 0.1395(4) 0.0180(6) 0.8804(3)
O16_2 O 0.2031(5) 0.1193(7) 0.7253(3)
O19_2 O 0.2428(4) 0.3107(6) 0.7573(3)
O23_2 O 0.0335(4) 0.2175(7) 0.8843(4)
O25_2 O 0.0125(5) 0.3388(7) 0.6849(4)
O27_2 O 0.4053(5) 0.1071(8) 0.8020(4)
O29_2 O 0.0795(4) 0.1168(6) 0.8095(3)
O31_2 O 0.3645(5) 0.2849(7) 0.8292(4)
O32_2 O 0.0997(5) 0.1019(7) 0.9563(4)
O33_2 O 0.3337(5) 0.2037(9) 0.7219(4)
O34_2 O 0.0573(5) 0.3144(7) 0.5995(3)
O37_2 O 0.2192(4) 0.3652(7) 0.9212(3)
O41_2 O 0.1401(4) 0.2536(6) 0.7905(3)
O42_2 O 0.0251(4) 0.2642(6) 0.7809(3)
O43_2 O 0.0698(4) 0.1662(7) 0.7238(3)
Cu3 Cu 0.75177(8) 0.36885(11) 0.98913(6)
O46_2 O 0.2464(5) 0.5082(6) 0.9903(4)
H33_2 H 0.409037 0.0401096 0.808383
H34_2 H 0.418596 0.121253 0.771399
H35_2 H 0.407313 0.260197 0.836354
H36_2 H 0.361299 0.335846 0.805427
H39_2 H 0.351774 0.148888 0.709327
H40_2 H 0.300419 0.229501 0.695967
Cu1_2 Cu 0.24823(8) 0.63115(11) 0.01087(6)
C6_2 C 0.2481(7) 0.9542(11) 0.0198(6)
C7_2 C 0.2779(8) 0.8118(10) 0.0563(6)
H6_2 H 0.299647 0.776545 0.083446
C18_2 C 0.2776(7) 0.9042(11) 0.0598(6)
H15_2 H 0.297710 0.934592 0.089191
C32_2 C 0.4266(8) 0.9706(11) 0.0207(5)
C34_2 C 0.4382(8) 0.8786(12) 0.0298(7)
H27_2 H 0.423665 0.834868 0.004433
C39_2 C 0.4706(10) 0.8501(13) 0.0741(6)
H31_2 H 0.479085 0.785700 0.078502
C40_2 C 0.4825(9) 0.9916(14) 0.1032(7)
N1_2 N 0.2492(5) 0.7677(8) 0.0166(5)
N8_2 N 0.4919(8) 0.9040(10) 0.1116(5)
O24_2 O 0.2564(5) 0.6059(7) 0.0918(4)
N10_2 N 0.3401(5) 0.6325(8) 0.0165(4)
H37_2 H 0.22056 0.634173 0.102159
H38_2 H 0.256851 0.538841 0.098093
W3_2 W 0.15100(3) 0.98400(4) 0.81649(2)
C11_2 C 0.2193(8) 0.9097(11) 0.9784(6)
H9_2 H 0.199078 0.943761 0.950352
C12_2 C 0.2202(8) 0.8158(11) 0.9785(6)
H10_2 H 0.199331 0.783449 0.949980
C31_2 C 0.3616(8) 0.9533(11) 0.9362(6)
H25_2 H 0.356046 0.889392 0.942311
C38_2 C 0.3349(8) 0.9932(11) 0.8915(5)
H30_2 H 0.311082 0.954507 0.866871
O6_2 O 0.1295(4) 0.9881(7) 0.7475(3)
O22_2 O 0.0622(4) 0.9371(7) 0.8091(3)
O36_2 O 0.1879(5) 0.8803(7) 0.8283(4)
O44_2 O 0.1698(4) 0.9822(7) 0.6586(3)
N9_2 N 0.1546(5) 0.6360(8) 0.9941(4)
C5_2 C 0.8818(7) 0.4096(10) 0.0420(5)
H5_2 H 0.862872 0.443574 0.064034
C9_2 C 0.9746(7) 0.3623(10) 0.0183(5)
C10_2 C 0.9461(6) 0.4096(11) 0.0492(6)
H8_2 H 0.970635 0.442896 0.075923
N2_2 N 0.8454(5) 0.3640(8) 0.0059(4)
W9_2 W 0.99102(3) 0.00488(4) 0.80493(2)
W10_2 W 0.97823(3) 0.08107(4) 0.67761(2)
W11_2 W 0.91654(3) 0.22769(4) 0.76385(2)
C3_2 C 0.9366(6) 0.3150(11) 0.9801(6)
H3_2 H 0.955155 0.281621 0.957619
C8_2 C 0.8731(7) 0.3156(10) 0.9752(5)
H7_2 H 0.847818 0.281432 0.949233
O1_2 O 0.9987(5) 0.4298(7) 0.8056(4)
O9_2 O 0.9939(5) 0.1813(7) 0.6382(3)
O15_2 O 0.9344(4) 0.2874(7) 0.8250(3)
O17_2 O 0.9355(4) 0.1701(7) 0.7090(3)
O18_2 O 0.9426(4) 0.1157(7) 0.7969(4)
O20_2 O 0.9244(5) 0.3428(7) 0.7347(4)
O26_2 O 0.9840(4) 0.0142(7) 0.7365(4)
O30_2 O 0.9759(5) 0.5115(7) 0.7148(4)
O35_2 O 0.9178(5) 0.0274(8) 0.6390(4)
O39_2 O 0.9971(5) 0.3987(7) 0.9033(4)
O40_2 O 0.8374(5) 0.2187(7) 0.7530(4)
C20_3 C 0.0529(7) 0.1074(11) 0.4431(6)
H17_3 H 0.023230 0.093610 0.413759
C23_3 C 0.0771(7) 0.1445(11) 0.5267(5)
H19_3 H 0.065105 0.155199 0.556906
C25_3 C 0.1386(7) 0.1487(12) 0.5240(6)
H21_3 H 0.168493 0.164000 0.553045
C27_3 C 0.1157(7) 0.1103(11) 0.4434(6)
H23_3 H 0.128754 0.096206 0.413965
C29_3 C 0.0327(7) 0.1248(10) 0.4856(5)
Cu5 Cu 0.75656(8) 0.11692(12) 0.51035(7)
W1_3 W 0.67738(3) 0.11986(4) 0.25299(2)
W2_3 W 0.68802(3) 0.19047(4) 0.36710(2)
W3_3 W 0.65100(3) 0.51600(4) 0.31649(2)
W4_3 W 0.63841(3) 0.44088(4) 0.19236(2)
W5_3 W 0.56367(3) 0.23718(4) 0.15453(2)
W6_3 W 0.50355(3) 0.09097(4) 0.23985(2)
W7_3 W 0.51644(3) 0.16280(4) 0.35659(2)
W8_3 W 0.59063(3) 0.38338(4) 0.39561(2)
W9_3 W 0.49102(3) 0.49512(4) 0.30493(2)
W10_3 W 0.47823(3) 0.41893(4) 0.17761(2)
W11_3 W 0.41654(3) 0.27231(4) 0.26385(2)
P1_3 P 0.58021(14) 0.3010(2) 0.27662(11)
Ce1_2 Ce 0.78895(4) 0.34195(6) 0.29382(3)
C1_3 C 0.6309(7) 0.1892(10) 0.4956(6)
H1_3 H 0.648449 0.231967 0.476473
C2_3 C 0.5699(6) 0.1964(10) 0.4965(5)
H2_3 H 0.545335 0.244577 0.478786
C3_3 C 0.4366(6) 0.1850(11) 0.4801(6)
H3_3 H 0.455155 0.218379 0.457619
C4_3 C 0.7453(9) 0.3913(12) 0.5613(7)
H4_3 H 0.737408 0.421721 0.589495
C5_3 C 0.3818(7) 0.0904(10) 0.5420(5)
H5_3 H 0.362872 0.056426 0.564034
C6_3 C 0.7481(7) 0.5458(11) 0.5198(6)
C7_3 C 0.7779(8) 0.6882(10) 0.5563(6)
H6_3 H 0.799647 0.723455 0.583446
C8_3 C 0.3731(7) 0.1844(10) 0.4752(5)
H7_3 H 0.347818 0.218568 0.449233
C9_3 C 0.4746(7) 0.1377(10) 0.5183(5)
C10_3 C 0.4461(6) 0.0904(11) 0.5492(6)
H8_3 H 0.470635 0.057104 0.575923
C11_3 C 0.7193(8) 0.5903(11) 0.4784(6)
H9_3 H 0.699078 0.556239 0.450352
C12_3 C 0.7202(8) 0.6842(11) 0.4785(6)
H10_3 H 0.699331 0.716551 0.449980
C13_3 C 0.7514(7) 0.2981(12) 0.5609(6)
H11_3 H 0.747553 0.263001 0.588835
C14_3 C 0.6431(7) 0.0655(10) 0.5467(5)
H12_3 H 0.669151 0.019966 0.565549
C15_3 C 0.5800(7) 0.0676(11) 0.5481(6)
H13_3 H 0.563037 0.023395 0.566842
C16_3 C 0.9206(7) 0.0856(12) 0.4527(6)
H14_3 H 0.930443 0.058429 0.424363
C17_3 C 0.5427(6) 0.1350(10) 0.5219(5)
C18_3 C 0.7776(7) 0.5958(11) 0.5598(6)
H15_3 H 0.797710 0.565408 0.589191
C19_3 C 0.9489(6) 0.1665(11) 0.5274(5)
H16_3 H 0.978781 0.198010 0.551673
C21_3 C 0.7504(7) 0.4425(11) 0.5213(6)
C22_3 C 0.8885(7) 0.1614(11) 0.5312(5)
H18_3 H 0.877079 0.188092 0.559090
C24_3 C 0.7676(7) 0.3011(10) 0.4822(6)
H20_3 H 0.774944 0.269301 0.454181
C26_3 C 0.8605(6) 0.0843(10) 0.4591(6)
H22_3 H 0.829023 0.056549 0.434494
C28_3 C 0.7613(7) 0.3964(10) 0.4810(5)
H24_3 H 0.765049 0.430604 0.452739
C30_3 C 0.9670(6) 0.1261(10) 0.4875(5)
C31_3 C 0.8616(8) 0.5467(11) 0.4362(6)
H25_3 H 0.856046 0.610608 0.442311
C32_3 C 0.9266(8) 0.5294(11) 0.5207(5)
C33_3 C 0.9018(7) 0.3998(10) 0.4606(5)
H26_3 H 0.924733 0.359876 0.485060
C34_3 C 0.9382(8) 0.6214(12) 0.5298(7)
H27_3 H 0.923665 0.665132 0.504433
C35_3 C 0.8752(7) 0.3642(11) 0.4156(5)
H28_3 H 0.881352 0.300806 0.408841
C36_3 C 0.9490(11) 0.4739(12) 0.5597(6)
H29_3 H 0.941740 0.409021 0.556402
C37_3 C 0.8962(7) 0.4919(11) 0.4715(6)
C38_3 C 0.8349(8) 0.5068(11) 0.3915(5)
H30_3 H 0.811082 0.545493 0.366871
C39_3 C 0.9706(10) 0.6499(13) 0.5741(6)
H31_3 H 0.979085 0.714300 0.578502
C40_3 C 0.9825(9) 0.5084(14) 0.6032(7)
H32_3 H 0.999554 0.466116 0.628624
N1_3 N 0.7492(5) 0.7323(8) 0.5166(5)
N3_3 N 0.7634(5) 0.2538(8) 0.5212(4)
N4_3 N 0.6682(5) 0.1237(8) 0.5206(4)
N6_3 N 0.8439(5) 0.1207(8) 0.4980(4)
N7_3 N 0.8398(6) 0.4173(8) 0.3812(4)
N8_3 N 0.9919(8) 0.5960(10) 0.6116(5)
O1_3 O 0.4987(5) 0.0702(7) 0.3056(4)
O2_3 O 0.6918(4) 0.0951(7) 0.3215(4)
O3_3 O 0.7101(4) 0.4369(7) 0.3193(3)
O4_3 O 0.5194(4) 0.4594(7) 0.3716(3)
O5_3 O 0.5875(4) 0.0742(6) 0.2537(3)
O6_3 O 0.6295(4) 0.5119(7) 0.2475(3)
O7_3 O 0.5470(4) 0.4769(7) 0.1659(3)
O8_3 O 0.7521(4) 0.2527(7) 0.3559(3)
O9_3 O 0.4939(5) 0.3187(7) 0.1382(3)
O10_3 O 0.6520(4) 0.2977(6) 0.3915(3)
O11_3 O 0.5998(4) 0.1449(6) 0.3636(3)
O12_3 O 0.6142(4) 0.3400(7) 0.1461(4)
O13_3 O 0.6321(4) 0.1770(7) 0.1940(3)
O14_3 O 0.6395(4) 0.4820(6) 0.3804(3)
O15_3 O 0.4344(4) 0.2126(7) 0.3250(3)
O16_3 O 0.7031(5) 0.3807(7) 0.2253(3)
O17_3 O 0.4355(4) 0.3299(7) 0.2090(3)
O18_3 O 0.4426(4) 0.3843(7) 0.2969(4)
O19_3 O 0.7428(4) 0.1893(6) 0.2573(3)
O20_3 O 0.4244(5) 0.1572(7) 0.2347(4)
O21 O 0.7464(5) 0.9918(6) 0.4903(4)
O22_3 O 0.5622(4) 0.5629(7) 0.3091(3)
O23_3 O 0.5335(4) 0.2825(7) 0.3843(4)
O24_3 O 0.7564(5) 0.8941(7) 0.5918(4)
O25_3 O 0.5125(5) 0.1612(7) 0.1849(4)
O26_3 O 0.4840(4) 0.4858(7) 0.2365(4)
O27_3 O 0.9053(5) 0.3929(8) 0.3020(4)
O28_2 O 0.6978(5) 0.0164(7) 0.2317(3)
O29_3 O 0.5795(4) 0.3832(6) 0.3095(3)
O31_3 O 0.8645(5) 0.2151(7) 0.3292(4)
O32_3 O 0.5997(5) 0.3981(7) 0.4563(4)
O33_3 O 0.8337(5) 0.2963(9) 0.2219(4)
O34_3 O 0.5573(5) 0.1856(7) 0.0995(3)
O35_3 O 0.4178(5) 0.4726(8) 0.1390(4)
O36_3 O 0.6879(5) 0.6197(7) 0.3283(4)
O37_3 O 0.7192(4) 0.1348(7) 0.4212(3)
O38_2 O 0.4368(5) 0.5753(8) 0.3092(4)
O39_3 O 0.4971(5) 0.1013(7) 0.4033(4)
O40_3 O 0.3374(5) 0.2813(7) 0.2530(4)
O41_3 O 0.6401(4) 0.2464(6) 0.2905(3)
O42_3 O 0.5251(4) 0.2358(6) 0.2809(3)
O43_3 O 0.5698(4) 0.3338(7) 0.2238(3)
O44_3 O 0.6698(4) 0.5178(7) 0.1586(3)
O45_3 O 0.7941(5) 0.0772(8) 0.5973(4)
O47_2 O 0.8022(5) 0.5164(7) 0.2683(3)
H33_3 H 0.909037 0.45989 0.308383
H34_3 H 0.918596 0.378747 0.271399
H35_3 H 0.907313 0.239803 0.336354
H36_3 H 0.861299 0.164154 0.305427
H37_3 H 0.72056 0.865827 0.602159
H38_3 H 0.756851 0.961159 0.598093
H39_3 H 0.851774 0.351112 0.209327
H40_3 H 0.800419 0.270499 0.195967
H41_3 H 0.83653 0.101856 0.608981
H42_3 H 0.794751 0.00945456 0.601132
O30_3 O 0.4759(5) 0.9885(7) 0.2148(4)
Ce2_2 Ce 0.71105(4) 0.84195(6) 0.20618(3)
W9_4 W 0.00898(3) 0.99512(4) 0.19507(2)
W10_4 W 0.02177(3) 0.91893(4) 0.32239(2)
W11_4 W 0.08346(3) 0.77231(4) 0.23615(2)
C3_4 C 0.0634(6) 0.6850(11) 0.0199(6)
H3_4 H 0.044845 0.718379 0.042381
C8_4 C 0.1269(7) 0.6844(10) 0.0248(5)
H7_4 H 0.152182 0.718568 0.050767
O1_4 O 0.0013(5) 0.5702(7) 0.1944(4)
O9_4 O 0.0061(5) 0.8187(7) 0.3618(3)
O15_4 O 0.0656(4) 0.7126(7) 0.1750(3)
O17_4 O 0.0645(4) 0.8299(7) 0.2910(3)
O18_4 O 0.0574(4) 0.8843(7) 0.2031(4)
O20_4 O 0.0756(5) 0.6572(7) 0.2653(4)
O26_4 O 0.0160(4) 0.9858(7) 0.2635(4)
O30_4 O 0.0241(5) 0.4885(7) 0.2852(4)
O35_4 O 0.0822(5) 0.9726(8) 0.3610(4)
O39_4 O 0.0029(5) 0.6013(7) 0.0967(4)
O40_4 O 0.1626(5) 0.7813(7) 0.2470(4)
C5_4 C 0.1182(7) 0.5904(10) 0.9580(5)
H5_4 H 0.137128 0.556426 0.935966
C9_4 C 0.0254(7) 0.6377(10) 0.9817(5)
C10_4 C 0.0539(6) 0.5904(11) 0.9508(6)
H8_4 H 0.029365 0.557104 0.924077
W3_4 W 0.84900(3) 0.01600(4) 0.18351(2)
C11_4 C 0.7807(8) 0.0903(11) 0.0216(6)
H9_4 H 0.800922 0.056239 0.049648
C12_4 C 0.7798(8) 0.1842(11) 0.0215(6)
H10_4 H 0.800669 0.216551 0.050020
C31_4 C 0.6384(8) 0.0467(11) 0.0638(6)
H25_4 H 0.643954 0.110608 0.057689
C38_4 C 0.6651(8) 0.0068(11) 0.1085(5)
H30_4 H 0.688918 0.045493 0.133129
O6_4 O 0.8705(4) 0.0119(7) 0.2525(3)
O21_2 O 0.7536(5) 0.4918(6) 0.0097(4)
O22_4 O 0.9378(4) 0.0629(7) 0.1909(3)
O36_4 O 0.8121(5) 0.1197(7) 0.1717(4)
O44_4 O 0.8302(4) 0.0178(7) 0.3414(3)
C6_4 C 0.7519(7) 0.0458(11) 0.9802(6)
C7_4 C 0.7221(8) 0.1882(10) 0.9437(6)
H6_4 H 0.700353 0.223455 0.916554
C18_4 C 0.7224(7) 0.0958(11) 0.9402(6)
H15_4 H 0.702290 0.065408 0.910809
C32_4 C 0.5734(8) 0.0294(11) 0.9793(5)
C34_4 C 0.5618(8) 0.1214(12) 0.9702(7)
H27_4 H 0.576335 0.165132 0.995567
C39_4 C 0.5294(10) 0.1499(13) 0.9259(6)
H31_4 H 0.520915 0.214300 0.921498
C40_4 C 0.5175(9) 0.0084(14) 0.8968(7)
N1_4 N 0.7508(5) 0.2323(8) 0.9834(5)
N8_4 N 0.5081(8) 0.0960(10) 0.8884(5)
O24_4 O 0.7436(5) 0.3941(7) 0.9082(4)
Cu5_2 Cu 0.74344(8) 0.61692(12) 0.98965(7)
H37_4 H 0.77944 0.365827 0.897841
H38_4 H 0.743149 0.461159 0.901907
W1_4 W 0.82262(3) 0.61986(4) 0.24701(2)
W2_4 W 0.81198(3) 0.69047(4) 0.13290(2)
W4_4 W 0.86159(3) 0.94088(4) 0.30764(2)
W5_4 W 0.93633(3) 0.73718(4) 0.34547(2)
W6_4 W 0.99645(3) 0.59097(4) 0.26015(2)
W7_4 W 0.98356(3) 0.66280(4) 0.14341(2)
W8_4 W 0.90937(3) 0.88338(4) 0.10439(2)
P1_4 P 0.91979(14) 0.8010(2) 0.22338(11)
C1_4 C 0.8691(7) 0.6892(10) 0.0044(6)
H1_4 H 0.851551 0.731967 0.023527
C2_4 C 0.9301(6) 0.6964(10) 0.0035(5)
H2_4 H 0.954665 0.744577 0.021214
C16_4 C 0.5794(7) 0.5856(12) 0.0473(6)
H14_4 H 0.569557 0.558429 0.075637
C20_4 C 0.4471(7) 0.6074(11) 0.0569(6)
H17_4 H 0.476770 0.593610 0.086241
C24_4 C 0.7324(7) 0.8011(10) 0.0178(6)
H20_4 H 0.725056 0.769301 0.045819
C26_4 C 0.6395(6) 0.5843(10) 0.0409(6)
H22_4 H 0.670977 0.556549 0.065506
C27_4 C 0.3843(7) 0.6103(11) 0.0566(6)
H23_4 H 0.371246 0.596206 0.086035
C28_4 C 0.7387(7) 0.8964(10) 0.0190(5)
H24_4 H 0.734951 0.930604 0.047261
C29_4 C 0.4673(7) 0.6248(10) 0.0144(5)
C30_4 C 0.5330(6) 0.6261(10) 0.0125(5)
C33_4 C 0.5982(7) 0.8998(10) 0.0394(5)
H26_4 H 0.575267 0.859876 0.014940
C35_4 C 0.6248(7) 0.8642(11) 0.0844(5)
H28_4 H 0.618648 0.800806 0.091159
C37_4 C 0.6038(7) 0.9919(11) 0.0285(6)
N6_4 N 0.6561(5) 0.6207(8) 0.0020(4)
N7_4 N 0.6602(6) 0.9173(8) 0.1188(4)
O2_4 O 0.8082(4) 0.5951(7) 0.1785(4)
O3_4 O 0.7899(4) 0.9369(7) 0.1807(3)
O4_4 O 0.9806(4) 0.9594(7) 0.1284(3)
O5_4 O 0.9125(4) 0.5742(6) 0.2463(3)
O7_4 O 0.9530(4) 0.9769(7) 0.3341(3)
O8_4 O 0.7479(4) 0.7527(7) 0.1441(3)
O10_4 O 0.8480(4) 0.7977(6) 0.1085(3)
O11_4 O 0.9002(4) 0.6449(6) 0.1364(3)
O12_4 O 0.8858(4) 0.8400(7) 0.3539(4)
O13_4 O 0.8679(4) 0.6770(7) 0.3060(3)
O14_4 O 0.8605(4) 0.9820(6) 0.1196(3)
O16_4 O 0.7969(5) 0.8807(7) 0.2747(3)
O19_4 O 0.7572(4) 0.6893(6) 0.2427(3)
O23_4 O 0.9665(4) 0.7825(7) 0.1157(4)
O25_4 O 0.9875(5) 0.6612(7) 0.3151(4)
O27_4 O 0.5947(5) 0.8929(8) 0.1980(4)
O29_4 O 0.9205(4) 0.8832(6) 0.1905(3)
O31_4 O 0.6355(5) 0.7151(7) 0.1708(4)
O32_4 O 0.9003(5) 0.8981(7) 0.0437(4)
O33_4 O 0.6663(5) 0.7963(9) 0.2781(4)
O34_4 O 0.9427(5) 0.6856(7) 0.4005(3)
O37_4 O 0.7808(4) 0.6348(7) 0.0788(3)
O41_4 O 0.8599(4) 0.7464(6) 0.2095(3)
O42_4 O 0.9749(4) 0.7358(6) 0.2191(3)
O43_4 O 0.9302(4) 0.8338(7) 0.2762(3)
H33_4 H 0.590963 0.95989 0.191617
H34_4 H 0.581404 0.878747 0.228601
H35_4 H 0.592687 0.739803 0.163646
H36_4 H 0.638701 0.664154 0.194573
H39_4 H 0.648226 0.851112 0.290673
H40_4 H 0.699581 0.770499 0.304033
C4_4 C 0.7547(9) 0.8913(12) 0.9387(7)
H4_4 H 0.762592 0.921721 0.910505
C13_4 C 0.7486(7) 0.7981(12) 0.9391(6)
H11_4 H 0.752447 0.763001 0.911165
C14_4 C 0.8569(7) 0.5655(10) 0.9533(5)
H12_4 H 0.830849 0.519966 0.934451
C15_4 C 0.9200(7) 0.5676(11) 0.9519(6)
H13_4 H 0.936963 0.523395 0.933158
C17_4 C 0.9573(6) 0.6350(10) 0.9781(5)
C19_4 C 0.5511(6) 0.6665(11) 0.9726(5)
H16_4 H 0.521219 0.698010 0.948327
C21_4 C 0.7496(7) 0.9425(11) 0.9787(6)
C22_4 C 0.6115(7) 0.6614(11) 0.9688(5)
H18_4 H 0.622921 0.688092 0.940910
C23_4 C 0.4229(7) 0.6445(11) 0.9733(5)
H19_4 H 0.434895 0.655199 0.943094
C25_4 C 0.3614(7) 0.6487(12) 0.9760(6)
H21_4 H 0.331507 0.664000 0.946955
C36_4 C 0.5510(11) 0.9739(12) 0.9403(6)
H29_4 H 0.558260 0.909021 0.943598
H32_4 H 0.500446 0.966116 0.871376
N3_4 N 0.7366(5) 0.7538(8) 0.9788(4)
N4_4 N 0.8318(5) 0.6237(8) 0.9794(4)
O45_4 O 0.7059(5) 0.5772(8) 0.9027(4)
H41_4 H 0.66347 0.601856 0.891019
H42_4 H 0.705249 0.509455 0.898868
O38_3 O 0.9368(5) 0.9247(8) 0.8092(4)
O38_4 O 0.0632(5) 0.0753(8) 0.1908(4)
loop_
_geom_bond_atom_site_label_1
_geom_bond_atom_site_label_2
_geom_bond_site_symmetry_1
_geom_bond_site_symmetry_2
W1 O2 1_555 1_555
W2 O2 1_555 1_555
W3 O3 1_555 1_555
W4 O6 1_555 1_555
W5 O9 1_555 1_555
W6 O1 1_555 1_555
W7 O1 1_555 1_555
W8 O4 1_555 1_555
W9 O4 1_555 1_555
W10 O7 1_555 1_555
W11 O15 1_555 1_555
P1 O29 1_555 1_555
Cu1 N1 1_555 1_555
Cu2 N3 1_555 1_555
Ce1 N7 1_555 1_555
C1 H1 1_555 1_555
C2 C1 1_555 1_555
H2 C2 1_555 1_555
C3 H3 1_555 1_555
C4 H4 1_555 1_555
C5 H5 1_555 1_555
C6 C11 1_555 1_555
C7 H6 1_555 1_555
C8 C3 1_555 1_555
H7 C8 1_555 1_555
C9 C3 1_555 1_555
C10 C5 1_555 1_555
H8 C10 1_555 1_555
C11 H9 1_555 1_555
C12 C11 1_555 1_555
H10 C12 1_555 1_555
C13 C4 1_555 1_555
H11 C13 1_555 1_555
C14 H12 1_555 1_555
C15 C14 1_555 1_555
H13 C15 1_555 1_555
C16 H14 1_555 1_555
C17 C2 1_555 1_555
C18 C6 1_555 1_555
H15 C18 1_555 1_555
C19 H16 1_555 1_555
C21 C4 1_555 1_555
C22 C19 1_555 1_555
H18 C22 1_555 1_555
C24 H20 1_555 1_555
C26 C16 1_555 1_555
H22 C26 1_555 1_555
C28 C21 1_555 1_555
H24 C28 1_555 1_555
C30 C16 1_555 1_555
C31 H25 1_555 1_555
C32 C34 1_555 1_555
C33 H26 1_555 1_555
C34 H27 1_555 1_555
C35 C33 1_555 1_555
H28 C35 1_555 1_555
C36 C32 1_555 1_555
H29 C36 1_555 1_555
C37 C31 1_555 1_555
C38 C31 1_555 1_555
H30 C38 1_555 1_555
C39 C34 1_555 1_555
H31 C39 1_555 1_555
C40 C36 1_555 1_555
H32 C40 1_555 1_555
N1 C7 1_555 1_555
N2 C5 1_555 1_555
N3 C13 1_555 1_555
N4 Cu2 1_555 1_555
N6 Cu2 1_555 1_555
N7 C35 1_555 1_555
N8 C39 1_555 1_555
O3 Ce1 1_555 1_555
O5 W1 1_555 1_555
O6 W3 1_555 1_555
O7 W4 1_555 1_555
O8 W2 1_555 1_555
O9 W10 1_555 1_555
O10 W2 1_555 1_555
O11 W2 1_555 1_555
O12 W4 1_555 1_555
O13 W1 1_555 1_555
O14 W3 1_555 1_555
O15 W7 1_555 1_555
O16 W4 1_555 1_555
O17 W10 1_555 1_555
O18 W9 1_555 1_555
O19 W1 1_555 1_555
O20 W6 1_555 1_555
O46 Cu1 1_555 1_555
O22 W3 1_555 1_555
O23 W7 1_555 1_555
O24 Cu1 1_555 1_555
O25 W5 1_555 1_555
O26 W9 1_555 1_555
O27 Ce1 1_555 1_555
O28 W1 1_555 1_555
O29 W3 1_555 1_555
O31 Ce1 1_555 1_555
O32 W8 1_555 1_555
O33 Ce1 1_555 1_555
O34 W5 1_555 1_555
O35 W10 1_555 1_555
O36 W3 1_555 1_555
O37 W2 1_555 1_555
O38 W9 1_555 1_555
O39 W7 1_555 1_555
O40 W11 1_555 1_555
O41 W1 1_555 1_555
O42 W6 1_555 1_555
O43 W4 1_555 1_555
O44 W4 1_555 1_555
O45 Cu2 1_555 1_555
Cu4 N2 1_555 1_555
N9 Cu1 1_555 1_555
N10 Cu1 1_555 1_555
O47 Ce1 1_555 1_555
W2 O41 1_555 1_555
W5 O12 1_555 1_555
W5 O13 1_555 1_555
W5 O43 1_555 1_555
W6 O5 1_555 1_555
W6 O25 1_555 1_555
W7 O11 1_555 1_555
W7 O42 1_555 1_555
W8 O10 1_555 1_555
W8 O14 1_555 1_555
W8 O23 1_555 1_555
W8 O29 1_555 1_555
W9 O22 1_555 1_555
W10 O26 1_555 1_555
W10 O43 1_555 1_555
W11 O17 1_555 1_555
W11 O18 1_555 1_555
W11 O20 1_555 1_555
W11 O42 1_555 1_555
P1 O41 1_555 1_555
P1 O42 1_555 1_555
P1 O43 1_555 1_555
Cu2 O37 1_555 1_555
Ce1 O8 1_555 1_555
Ce1 O16 1_555 1_555
Ce1 O19 1_555 1_555
C1 N4 1_555 1_555
C6 C21 1_555 1_555
C7 C18 1_555 1_555
C8 N2 1_555 1_555
C9 C10 1_555 1_555
C9 C17 1_555 1_555
C12 N1 1_555 1_555
C14 N4 1_555 1_555
C15 C17 1_555 1_555
C19 C30 1_555 1_555
C22 N6 1_555 1_555
C24 C28 1_555 1_555
C24 N3 1_555 1_555
C26 N6 1_555 1_555
C32 C37 1_555 1_555
C33 C37 1_555 1_555
C38 N7 1_555 1_555
C40 N8 1_555 1_555
O27 H33 1_555 1_555
O27 H34 1_555 1_555
O31 H35 1_555 1_555
O31 H36 1_555 1_555
O24 H37 1_555 1_555
O24 H38 1_555 1_555
O33 H39 1_555 1_555
O33 H40 1_555 1_555
O45 H41 1_555 1_555
O45 H42 1_555 1_555
C20 H17 1_555 1_555
C23 H19 1_555 1_555
C25 C23 1_555 1_555
H21 C25 1_555 1_555
C27 C20 1_555 1_555
H23 C27 1_555 1_555
C29 C20 1_555 1_555
N5 C25 1_555 1_555
Cu4 N5 1_555 1_555
C23 C29 1_555 1_555
C27 N5 1_555 1_555
Cu2_2 N3_2 1_555 1_555
C4_2 H4_2 1_555 1_555
C13_2 C4_2 1_555 1_555
H11_2 C13_2 1_555 1_555
C14_2 H12_2 1_555 1_555
C15_2 C14_2 1_555 1_555
H13_2 C15_2 1_555 1_555
C19_2 H16_2 1_555 1_555
C21_2 C4_2 1_555 1_555
C22_2 C19_2 1_555 1_555
H18_2 C22_2 1_555 1_555
C23_2 H19_2 1_555 1_555
C25_2 C23_2 1_555 1_555
H21_2 C25_2 1_555 1_555
H29_2 C36_2 1_555 1_555
N3_2 C13_2 1_555 1_555
N4_2 Cu2_2 1_555 1_555
O45_2 Cu2_2 1_555 1_555
C14_2 N4_2 1_555 1_555
C15_2 C17_2 1_555 1_555
O45_2 H41_2 1_555 1_555
O45_2 H42_2 1_555 1_555
W1_2 O2_2 1_555 1_555
W2_2 O2_2 1_555 1_555
W8_2 O4_2 1_555 1_555
P1_2 O29_2 1_555 1_555
Ce2 N7_2 1_555 1_555
C1_2 H1_2 1_555 1_555
C2_2 C1_2 1_555 1_555
H2_2 C2_2 1_555 1_555
C16_2 H14_2 1_555 1_555
C20_2 H17_2 1_555 1_555
C24_2 H20_2 1_555 1_555
C26_2 C16_2 1_555 1_555
H22_2 C26_2 1_555 1_555
C27_2 C20_2 1_555 1_555
H23_2 C27_2 1_555 1_555
H24_2 C28_2 1_555 1_555
C29_2 C20_2 1_555 1_555
C30_2 C16_2 1_555 1_555
C33_2 H26_2 1_555 1_555
C35_2 C33_2 1_555 1_555
H28_2 C35_2 1_555 1_555
N7_2 C35_2 1_555 1_555
O3_2 Ce2 1_555 1_555
O5_2 W1_2 1_555 1_555
O7_2 W4_2 1_555 1_555
O8_2 W2_2 1_555 1_555
O10_2 W2_2 1_555 1_555
O11_2 W2_2 1_555 1_555
O12_2 W4_2 1_555 1_555
O13_2 W1_2 1_555 1_555
O16_2 W4_2 1_555 1_555
O19_2 W1_2 1_555 1_555
O23_2 W7_2 1_555 1_555
O25_2 W5_2 1_555 1_555
O27_2 Ce2 1_555 1_555
O47 W1_2 1_555 1_555
O31_2 Ce2 1_555 1_555
O32_2 W8_2 1_555 1_555
O33_2 Ce2 1_555 1_555
O34_2 W5_2 1_555 1_555
O37_2 W2_2 1_555 1_555
O41_2 W1_2 1_555 1_555
O42_2 W6_2 1_555 1_555
O43_2 W4_2 1_555 1_555
Cu3 N5_2 1_555 1_555
W2_2 O41_2 1_555 1_555
W5_2 O12_2 1_555 1_555
W5_2 O13_2 1_555 1_555
W5_2 O43_2 1_555 1_555
W6_2 O5_2 1_555 1_555
W6_2 O25_2 1_555 1_555
W7_2 O11_2 1_555 1_555
W7_2 O42_2 1_555 1_555
W8_2 O10_2 1_555 1_555
W8_2 O14_2 1_555 1_555
W8_2 O23_2 1_555 1_555
W8_2 O29_2 1_555 1_555
P1_2 O41_2 1_555 1_555
P1_2 O42_2 1_555 1_555
P1_2 O43_2 1_555 1_555
Ce2 O8_2 1_555 1_555
Ce2 O16_2 1_555 1_555
Ce2 O19_2 1_555 1_555
C24_2 C28_2 1_555 1_555
C26_2 N6_2 1_555 1_555
C27_2 N5_2 1_555 1_555
C29_2 C30_2 1_555 1_555
C33_2 C37_2 1_555 1_555
O27_2 H33_2 1_555 1_555
O27_2 H34_2 1_555 1_555
O31_2 H35_2 1_555 1_555
O31_2 H36_2 1_555 1_555
O33_2 H39_2 1_555 1_555
O33_2 H40_2 1_555 1_555
Cu1_2 N1_2 1_555 1_555
C7_2 H6_2 1_555 1_555
C18_2 C6_2 1_555 1_555
H15_2 C18_2 1_555 1_555
C32_2 C34_2 1_555 1_555
C34_2 H27_2 1_555 1_555
C39_2 C34_2 1_555 1_555
H31_2 C39_2 1_555 1_555
N1_2 C7_2 1_555 1_555
N8_2 C39_2 1_555 1_555
O24_2 Cu1_2 1_555 1_555
N10_2 Cu1_2 1_555 1_555
C7_2 C18_2 1_555 1_555
C40_2 N8_2 1_555 1_555
O24_2 H37_2 1_555 1_555
O24_2 H38_2 1_555 1_555
C11_2 H9_2 1_555 1_555
C12_2 C11_2 1_555 1_555
H10_2 C12_2 1_555 1_555
C31_2 H25_2 1_555 1_555
C38_2 C31_2 1_555 1_555
H30_2 C38_2 1_555 1_555
O6_2 W3_2 1_555 1_555
O22_2 W3_2 1_555 1_555
O36_2 W3_2 1_555 1_555
C5_2 H5_2 1_555 1_555
C10_2 C5_2 1_555 1_555
H8_2 C10_2 1_555 1_555
N2_2 C5_2 1_555 1_555
C9_2 C10_2 1_555 1_555
W11_2 O15_2 1_555 1_555
C3_2 H3_2 1_555 1_555
C8_2 C3_2 1_555 1_555
H7_2 C8_2 1_555 1_555
O9_2 W10_2 1_555 1_555
O17_2 W10_2 1_555 1_555
O18_2 W9_2 1_555 1_555
O26_2 W9_2 1_555 1_555
O35_2 W10_2 1_555 1_555
O40_2 W11_2 1_555 1_555
W10_2 O26_2 1_555 1_555
W11_2 O17_2 1_555 1_555
W11_2 O18_2 1_555 1_555
W11_2 O20_2 1_555 1_555
C20_3 H17_3 1_555 1_555
C23_3 H19_3 1_555 1_555
C25_3 C23_3 1_555 1_555
H21_3 C25_3 1_555 1_555
C27_3 C20_3 1_555 1_555
H23_3 C27_3 1_555 1_555
C29_3 C20_3 1_555 1_555
N10 C25_3 1_555 1_555
C23_3 C29_3 1_555 1_555
C27_3 N10 1_555 1_555
W1_3 O2_3 1_555 1_555
W2_3 O2_3 1_555 1_555
W3_3 O3_3 1_555 1_555
W4_3 O6_3 1_555 1_555
W5_3 O9_3 1_555 1_555
W6_3 O1_3 1_555 1_555
W7_3 O1_3 1_555 1_555
W8_3 O4_3 1_555 1_555
W9_3 O4_3 1_555 1_555
W10_3 O7_3 1_555 1_555
W11_3 O15_3 1_555 1_555
P1_3 O29_3 1_555 1_555
Cu4 N1_3 1_555 1_555
Cu5 N3_3 1_555 1_555
Ce1_2 N7_3 1_555 1_555
C1_3 H1_3 1_555 1_555
C2_3 C1_3 1_555 1_555
H2_3 C2_3 1_555 1_555
C3_3 H3_3 1_555 1_555
C4_3 H4_3 1_555 1_555
C5_3 H5_3 1_555 1_555
C6_3 C11_3 1_555 1_555
C7_3 H6_3 1_555 1_555
C8_3 C3_3 1_555 1_555
H7_3 C8_3 1_555 1_555
C9_3 C3_3 1_555 1_555
C10_3 C5_3 1_555 1_555
H8_3 C10_3 1_555 1_555
C11_3 H9_3 1_555 1_555
C12_3 C11_3 1_555 1_555
H10_3 C12_3 1_555 1_555
C13_3 C4_3 1_555 1_555
H11_3 C13_3 1_555 1_555
C14_3 H12_3 1_555 1_555
C15_3 C14_3 1_555 1_555
H13_3 C15_3 1_555 1_555
C16_3 H14_3 1_555 1_555
C17_3 C2_3 1_555 1_555
C18_3 C6_3 1_555 1_555
H15_3 C18_3 1_555 1_555
C19_3 H16_3 1_555 1_555
C21_3 C4_3 1_555 1_555
C22_3 C19_3 1_555 1_555
H18_3 C22_3 1_555 1_555
C24_3 H20_3 1_555 1_555
C26_3 C16_3 1_555 1_555
H22_3 C26_3 1_555 1_555
C28_3 C21_3 1_555 1_555
H24_3 C28_3 1_555 1_555
C30_3 C16_3 1_555 1_555
C31_3 H25_3 1_555 1_555
C32_3 C34_3 1_555 1_555
C33_3 H26_3 1_555 1_555
C34_3 H27_3 1_555 1_555
C35_3 C33_3 1_555 1_555
H28_3 C35_3 1_555 1_555
C36_3 C32_3 1_555 1_555
H29_3 C36_3 1_555 1_555
C37_3 C31_3 1_555 1_555
C38_3 C31_3 1_555 1_555
H30_3 C38_3 1_555 1_555
C39_3 C34_3 1_555 1_555
H31_3 C39_3 1_555 1_555
C40_3 C36_3 1_555 1_555
H32_3 C40_3 1_555 1_555
N1_3 C7_3 1_555 1_555
N9 C5_3 1_555 1_555
N3_3 C13_3 1_555 1_555
N4_3 Cu5 1_555 1_555
N6_3 Cu5 1_555 1_555
N7_3 C35_3 1_555 1_555
N8_3 C39_3 1_555 1_555
O3_3 Ce1_2 1_555 1_555
O5_3 W1_3 1_555 1_555
O6_3 W3_3 1_555 1_555
O7_3 W4_3 1_555 1_555
O8_3 W2_3 1_555 1_555
O9_3 W10_3 1_555 1_555
O10_3 W2_3 1_555 1_555
O11_3 W2_3 1_555 1_555
O12_3 W4_3 1_555 1_555
O13_3 W1_3 1_555 1_555
O14_3 W3_3 1_555 1_555
O15_3 W7_3 1_555 1_555
O16_3 W4_3 1_555 1_555
O17_3 W10_3 1_555 1_555
O18_3 W9_3 1_555 1_555
O19_3 W1_3 1_555 1_555
O20_3 W6_3 1_555 1_555
O21 Cu4 1_555 1_555
O22_3 W3_3 1_555 1_555
O23_3 W7_3 1_555 1_555
O24_3 Cu4 1_555 1_555
O25_3 W5_3 1_555 1_555
O26_3 W9_3 1_555 1_555
O27_3 Ce1_2 1_555 1_555
O28_2 W1_3 1_555 1_555
O29_3 W3_3 1_555 1_555
O31_3 Ce1_2 1_555 1_555
O32_3 W8_3 1_555 1_555
O33_3 Ce1_2 1_555 1_555
O34_3 W5_3 1_555 1_555
O35_3 W10_3 1_555 1_555
O36_3 W3_3 1_555 1_555
O37_3 W2_3 1_555 1_555
O38_2 W9_3 1_555 1_555
O39_3 W7_3 1_555 1_555
O40_3 W11_3 1_555 1_555
O41_3 W1_3 1_555 1_555
O42_3 W6_3 1_555 1_555
O43_3 W4_3 1_555 1_555
O44_3 W4_3 1_555 1_555
O45_3 Cu5 1_555 1_555
O47_2 Ce1_2 1_555 1_555
W2_3 O41_3 1_555 1_555
W5_3 O12_3 1_555 1_555
W5_3 O13_3 1_555 1_555
W5_3 O43_3 1_555 1_555
W6_3 O5_3 1_555 1_555
W6_3 O25_3 1_555 1_555
W7_3 O11_3 1_555 1_555
W7_3 O42_3 1_555 1_555
W8_3 O10_3 1_555 1_555
W8_3 O14_3 1_555 1_555
W8_3 O23_3 1_555 1_555
W8_3 O29_3 1_555 1_555
W9_3 O22_3 1_555 1_555
W10_3 O26_3 1_555 1_555
W10_3 O43_3 1_555 1_555
W11_3 O17_3 1_555 1_555
W11_3 O18_3 1_555 1_555
W11_3 O20_3 1_555 1_555
W11_3 O42_3 1_555 1_555
P1_3 O41_3 1_555 1_555
P1_3 O42_3 1_555 1_555
P1_3 O43_3 1_555 1_555
Cu5 O37_3 1_555 1_555
Ce1_2 O8_3 1_555 1_555
Ce1_2 O16_3 1_555 1_555
Ce1_2 O19_3 1_555 1_555
C1_3 N4_3 1_555 1_555
C6_3 C21_3 1_555 1_555
C7_3 C18_3 1_555 1_555
C8_3 N9 1_555 1_555
C9_3 C10_3 1_555 1_555
C9_3 C17_3 1_555 1_555
C12_3 N1_3 1_555 1_555
C14_3 N4_3 1_555 1_555
C15_3 C17_3 1_555 1_555
C19_3 C30_3 1_555 1_555
C22_3 N6_3 1_555 1_555
C24_3 C28_3 1_555 1_555
C24_3 N3_3 1_555 1_555
C26_3 N6_3 1_555 1_555
C32_3 C37_3 1_555 1_555
C33_3 C37_3 1_555 1_555
C38_3 N7_3 1_555 1_555
C40_3 N8_3 1_555 1_555
O27_3 H33_3 1_555 1_555
O27_3 H34_3 1_555 1_555
O31_3 H35_3 1_555 1_555
O31_3 H36_3 1_555 1_555
O24_3 H37_3 1_555 1_555
O24_3 H38_3 1_555 1_555
O33_3 H39_3 1_555 1_555
O33_3 H40_3 1_555 1_555
O45_3 H41_3 1_555 1_555
O45_3 H42_3 1_555 1_555
W11_4 O15_4 1_555 1_555
C3_4 H3_4 1_555 1_555
C8_4 C3_4 1_555 1_555
H7_4 C8_4 1_555 1_555
O9_4 W10_4 1_555 1_555
O17_4 W10_4 1_555 1_555
O18_4 W9_4 1_555 1_555
O26_4 W9_4 1_555 1_555
O35_4 W10_4 1_555 1_555
O40_4 W11_4 1_555 1_555
W10_4 O26_4 1_555 1_555
W11_4 O17_4 1_555 1_555
W11_4 O18_4 1_555 1_555
W11_4 O20_4 1_555 1_555
C5_4 H5_4 1_555 1_555
C10_4 C5_4 1_555 1_555
H8_4 C10_4 1_555 1_555
N9_2 C5_4 1_555 1_555
C9_4 C10_4 1_555 1_555
C11_4 H9_4 1_555 1_555
C12_4 C11_4 1_555 1_555
H10_4 C12_4 1_555 1_555
C31_4 H25_4 1_555 1_555
C38_4 C31_4 1_555 1_555
H30_4 C38_4 1_555 1_555
O6_4 W3_4 1_555 1_555
O22_4 W3_4 1_555 1_555
O36_4 W3_4 1_555 1_555
Cu3 N1_4 1_555 1_555
C7_4 H6_4 1_555 1_555
C18_4 C6_4 1_555 1_555
H15_4 C18_4 1_555 1_555
C32_4 C34_4 1_555 1_555
C34_4 H27_4 1_555 1_555
C39_4 C34_4 1_555 1_555
H31_4 C39_4 1_555 1_555
N1_4 C7_4 1_555 1_555
N8_4 C39_4 1_555 1_555
O24_4 Cu3 1_555 1_555
C7_4 C18_4 1_555 1_555
C40_4 N8_4 1_555 1_555
O24_4 H37_4 1_555 1_555
O24_4 H38_4 1_555 1_555
W1_4 O2_4 1_555 1_555
W2_4 O2_4 1_555 1_555
W8_4 O4_4 1_555 1_555
P1_4 O29_4 1_555 1_555
Ce2_2 N7_4 1_555 1_555
C1_4 H1_4 1_555 1_555
C2_4 C1_4 1_555 1_555
H2_4 C2_4 1_555 1_555
C16_4 H14_4 1_555 1_555
C20_4 H17_4 1_555 1_555
C24_4 H20_4 1_555 1_555
C26_4 C16_4 1_555 1_555
H22_4 C26_4 1_555 1_555
C27_4 C20_4 1_555 1_555
H23_4 C27_4 1_555 1_555
H24_4 C28_4 1_555 1_555
C29_4 C20_4 1_555 1_555
C30_4 C16_4 1_555 1_555
C33_4 H26_4 1_555 1_555
C35_4 C33_4 1_555 1_555
H28_4 C35_4 1_555 1_555
N7_4 C35_4 1_555 1_555
O3_4 Ce2_2 1_555 1_555
O5_4 W1_4 1_555 1_555
O7_4 W4_4 1_555 1_555
O8_4 W2_4 1_555 1_555
O10_4 W2_4 1_555 1_555
O11_4 W2_4 1_555 1_555
O12_4 W4_4 1_555 1_555
O13_4 W1_4 1_555 1_555
O16_4 W4_4 1_555 1_555
O19_4 W1_4 1_555 1_555
O23_4 W7_4 1_555 1_555
O25_4 W5_4 1_555 1_555
O27_4 Ce2_2 1_555 1_555
O47_2 W1_4 1_555 1_555
O31_4 Ce2_2 1_555 1_555
O32_4 W8_4 1_555 1_555
O33_4 Ce2_2 1_555 1_555
O34_4 W5_4 1_555 1_555
O37_4 W2_4 1_555 1_555
O41_4 W1_4 1_555 1_555
O42_4 W6_4 1_555 1_555
O43_4 W4_4 1_555 1_555
W2_4 O41_4 1_555 1_555
W5_4 O12_4 1_555 1_555
W5_4 O13_4 1_555 1_555
W5_4 O43_4 1_555 1_555
W6_4 O5_4 1_555 1_555
W6_4 O25_4 1_555 1_555
W7_4 O11_4 1_555 1_555
W7_4 O42_4 1_555 1_555
W8_4 O10_4 1_555 1_555
W8_4 O14_4 1_555 1_555
W8_4 O23_4 1_555 1_555
W8_4 O29_4 1_555 1_555
P1_4 O41_4 1_555 1_555
P1_4 O42_4 1_555 1_555
P1_4 O43_4 1_555 1_555
Ce2_2 O8_4 1_555 1_555
Ce2_2 O16_4 1_555 1_555
Ce2_2 O19_4 1_555 1_555
C24_4 C28_4 1_555 1_555
C26_4 N6_4 1_555 1_555
C27_4 N10_2 1_555 1_555
C29_4 C30_4 1_555 1_555
C33_4 C37_4 1_555 1_555
O27_4 H33_4 1_555 1_555
O27_4 H34_4 1_555 1_555
O31_4 H35_4 1_555 1_555
O31_4 H36_4 1_555 1_555
O33_4 H39_4 1_555 1_555
O33_4 H40_4 1_555 1_555
Cu5_2 N3_4 1_555 1_555
C4_4 H4_4 1_555 1_555
C13_4 C4_4 1_555 1_555
H11_4 C13_4 1_555 1_555
C14_4 H12_4 1_555 1_555
C15_4 C14_4 1_555 1_555
H13_4 C15_4 1_555 1_555
C19_4 H16_4 1_555 1_555
C21_4 C4_4 1_555 1_555
C22_4 C19_4 1_555 1_555
H18_4 C22_4 1_555 1_555
C23_4 H19_4 1_555 1_555
C25_4 C23_4 1_555 1_555
H21_4 C25_4 1_555 1_555
H29_4 C36_4 1_555 1_555
N3_4 C13_4 1_555 1_555
N4_4 Cu5_2 1_555 1_555
O45_4 Cu5_2 1_555 1_555
C14_4 N4_4 1_555 1_555
C15_4 C17_4 1_555 1_555
O45_4 H41_4 1_555 1_555
O45_4 H42_4 1_555 1_555

#END
