
###############################################################################
#
# This file contains modified crystal structure data generated from the
# MOF subset of the Cambridge Structural Database (CSD) v543 
# hosted by the Cambridge Crystallographic Data Centre (CCDC).
#
# This work is licensed under the Creative Commons
# Attribution-NonCommercial-ShareAlike 4.0 International License.
# To view a copy of this license, visit
# http://creativecommons.org/licenses/by-nc-sa/4.0/
# or send a letter to
# Creative Commons, PO Box 1866, Mountain View, CA 94042, USA.
#
# CIF created using the CSD Python API on 29 September 2022
# The structure has been converted into the P1 space group
# The structure has a 3D framework
# The original CSD entry URENEM is in the orthorhombic crystal system
# The original CSD entry URENEM is in a Sohncke space group
# The framework has been calculated to contain at least 10.0% void space
# The void calculation uses a probe of radius 1.32A, grid spacing 0.4
# The framework is charged, counterions have been retained in the structure
# H atom positions have been added when not included in the experimental data
#
###############################################################################

data_URENEM
_chemical_formula_moiety         '(C104 H60 N24 O42 Zn7 4-)n'
_symmetry_cell_setting           triclinic
_symmetry_space_group_name_H-M   'P 1'
_symmetry_Int_Tables_number      1
_space_group_name_Hall           'P 1'
loop_
_symmetry_equiv_pos_site_id
_symmetry_equiv_pos_as_xyz
1 x,y,z
_cell_length_a                   14.261(3)
_cell_length_b                   16.664(3)
_cell_length_c                   26.160(5)
_cell_angle_alpha                90
_cell_angle_beta                 90
_cell_angle_gamma                90
_cell_volume                     6216.8
loop_
_atom_site_label
_atom_site_type_symbol
_atom_site_fract_x
_atom_site_fract_y
_atom_site_fract_z
O3 O 0.17499(15) 0.34307(13) 0.09864(10)
O4 O 0.2463(2) 0.23159(15) 0.12427(11)
O9 O 0.54497(19) 0.03877(15) 0.33536(9)
N6 N 0.19984(19) 0.09593(15) 0.07925(11)
H3 H 0.2326 0.1233 0.1006
C3 C 0.2242(2) 0.01633(17) 0.07527(12)
C4 C 0.1304(2) 0.13881(18) 0.05397(11)
C5 C 0.0696(3) 0.10285(19) 0.01950(13)
H4 H 0.0761 0.0485 0.0123
C8 C 0.0513(2) 0.26458(19) 0.03880(14)
H6 H 0.0462 0.3194 0.0448
C9 C 0.1205(2) 0.22148(18) 0.06368(12)
C11 C 0.1859(2) 0.26851(17) 0.09789(12)
H12 H 0.4314 0.0437 0.2658
H13 H 0.3560 0.0116 0.1903
Zn5 Zn 0.27524(2) 0.423383(18) 0.108705(11)
Zn6 Zn 0.56375(2) 0.063891(19) 0.406482(11)
O7 O 0.3149(2) 0.60655(15) 0.07781(11)
O8 O 0.23092(18) 0.50009(12) 0.05188(8)
O10 O 0.62672(15) 0.92395(14) 0.33501(8)
N1 N 0.27668(19) 0.86094(15) 0.06951(9)
N2 N 0.1826(2) 0.97113(15) 0.04024(10)
N3 N 0.29067(19) 0.99206(15) 0.10858(10)
N4 N 0.38299(19) 0.88211(16) 0.13292(9)
H1 H 0.4020 0.8359 0.1226
N5 N 0.1643(2) 0.84924(16) 0.00435(10)
C1 C 0.31446(19) 0.91483(16) 0.10384(10)
C2 C 0.2111(2) 0.89334(18) 0.04007(11)
C16 C 0.1942(2) 0.62919(17) 0.01858(12)
C17 C 0.2082(2) 0.71189(17) 0.02434(11)
H9 H 0.2537 0.7302 0.0470
C19 C 0.2499(2) 0.57394(19) 0.05118(11)
C20 C 0.4282(2) 0.91014(17) 0.17665(10)
C21 C 0.5013(3) 0.8631(3) 0.19593(14)
H10 H 0.5195 0.8172 0.1783
C22 C 0.5464(3) 0.8831(3) 0.24006(14)
H11 H 0.5939 0.8501 0.2524
C23 C 0.5226(2) 0.95205(18) 0.26692(11)
C24 C 0.4499(3) 0.9981(2) 0.24784(13)
C25 C 0.4034(3) 0.9786(2) 0.20274(13)
C26 C 0.5678(2) 0.97261(19) 0.31588(10)
Zn3 Zn 0.72476(2) 0.923383(18) 0.391295(11)
Zn7 Zn 0.43625(2) 0.563891(19) 0.093518(11)
O5 O 0.46666(17) 0.13109(13) 0.43712(9)
O6 O 0.52607(16) 0.23587(12) 0.39596(8)
O7_2 O 0.1851(2) 0.39345(15) 0.57781(11)
O8_2 O 0.26908(18) 0.49991(12) 0.55188(8)
N1_2 N 0.22332(19) 0.13906(15) 0.56951(9)
N2_2 N 0.3174(2) 0.02887(15) 0.54024(10)
N3_2 N 0.20933(19) 0.00794(15) 0.60858(10)
N4_2 N 0.11701(19) 0.11789(16) 0.63292(9)
H1_2 H 0.0980 0.1641 0.6226
N5_2 N 0.3357(2) 0.15076(16) 0.50435(10)
H2 H 0.3656 0.1224 0.4822
C1_2 C 0.18554(19) 0.08517(16) 0.60384(10)
C2_2 C 0.2889(2) 0.10666(18) 0.54007(11)
C12 C 0.3443(2) 0.23330(17) 0.49697(11)
C13 C 0.4108(2) 0.26197(17) 0.45998(11)
C14 C 0.4197(2) 0.34305(19) 0.45311(12)
H7 H 0.4603 0.3614 0.4279
C15 C 0.3705(2) 0.39982(19) 0.48228(13)
H8 H 0.3802 0.4546 0.4778
C16_2 C 0.3058(2) 0.37081(17) 0.51858(12)
C17_2 C 0.2918(2) 0.28811(17) 0.52434(11)
H9_2 H 0.2463 0.2698 0.5470
C18 C 0.4728(2) 0.20799(16) 0.42785(10)
C19_2 C 0.2501(2) 0.42606(19) 0.55118(11)
C20_2 C 0.0718(2) 0.08986(17) 0.67665(10)
C24_2 C 0.0501(3) 0.0019(2) 0.74784(13)
C25_2 C 0.0966(3) 0.0214(2) 0.70274(13)
Zn4 Zn 0.22476(2) 0.576617(18) 0.608705(11)
Zn7_2 Zn 0.06375(2) 0.436109(19) 0.593518(11)
O13 O 0.6851(2) 0.10655(15) 0.42219(11)
O14 O 0.76908(18) 0.00009(12) 0.44812(8)
H14 H 0.798415 0.0493655 0.349161
O1 O 0.63359(15) 0.86304(13) 0.43974(8)
O2 O 0.5422(2) 0.97092(16) 0.44996(12)
O3_2 O 0.32501(15) 0.65693(13) 0.59864(10)
O4_2 O 0.2537(2) 0.76841(15) 0.62427(11)
O11 O 0.8030(2) 0.99175(19) 0.33980(11)
N6_2 N 0.30016(19) 0.90407(15) 0.57925(11)
H3_2 H 0.2674 0.8767 0.6006
C3_2 C 0.2758(2) 0.98367(17) 0.57527(12)
C4_2 C 0.3696(2) 0.86119(18) 0.55397(11)
C5_2 C 0.4304(3) 0.89715(19) 0.51950(13)
H4_2 H 0.4239 0.9515 0.5123
C6 C 0.5007(2) 0.85351(19) 0.49549(12)
C7 C 0.5116(2) 0.77226(19) 0.50480(14)
H5 H 0.5590 0.7430 0.4890
C8_2 C 0.4487(2) 0.73542(19) 0.53880(14)
H6_2 H 0.4538 0.6806 0.5448
C9_2 C 0.3795(2) 0.77852(18) 0.56368(12)
C10 C 0.5644(2) 0.89862(18) 0.45765(12)
C11_2 C 0.3141(2) 0.73149(17) 0.59789(12)
H12_2 H 0.0686 0.9563 0.7658
H13_2 H 0.1440 0.9884 0.6903
O12 O 0.82501(15) 0.84307(13) 0.40136(10)
H15 H 0.869643 0.974593 0.341042
O1_2 O 0.13359(15) 0.63696(13) 0.56026(8)
O2_2 O 0.0422(2) 0.52908(16) 0.55004(12)
O6_2 O 0.02607(16) 0.26413(12) 0.60404(8)
O11_2 O 0.3030(2) 0.50825(19) 0.66020(11)
C6_2 C 0.0007(2) 0.64649(19) 0.50451(12)
C7_2 C 0.0116(2) 0.72774(19) 0.49520(14)
H5_2 H 0.0590 0.7570 0.5110
C10_2 C 0.0644(2) 0.60138(18) 0.54235(12)
O15 O 0.04497(19) 0.46123(15) 0.66464(9)
O16 O 0.12672(15) 0.57605(14) 0.66499(8)
H14_2 H 0.298415 0.450635 0.650839
H15_2 H 0.369643 0.525407 0.658958
O4_3 O 0.7537(2) 0.73159(15) 0.37573(11)
O5_2 O 0.96666(17) 0.36891(13) 0.56288(9)
O9_2 O 0.45503(19) 0.53877(15) 0.16464(9)
O10_2 O 0.37328(15) 0.42395(14) 0.16499(8)
N1_3 N 0.72332(19) 0.36094(15) 0.43049(9)
N2_3 N 0.8174(2) 0.47113(15) 0.45976(10)
N3_3 N 0.70933(19) 0.49206(15) 0.39142(10)
N4_3 N 0.61701(19) 0.38211(16) 0.36708(9)
H1_3 H 0.5980 0.3359 0.3774
N5_3 N 0.8357(2) 0.34924(16) 0.49565(10)
H2_2 H 0.8656 0.3776 0.5178
N6_3 N 0.80016(19) 0.59593(15) 0.42075(11)
H3_3 H 0.7674 0.6233 0.3994
C1_3 C 0.68554(19) 0.41483(16) 0.39616(10)
C2_3 C 0.7889(2) 0.39334(18) 0.45993(11)
C3_3 C 0.7758(2) 0.51633(17) 0.42473(12)
C4_3 C 0.8696(2) 0.63881(18) 0.44603(11)
C5_3 C 0.9304(3) 0.60285(19) 0.48050(13)
H4_3 H 0.9239 0.5485 0.4877
C8_3 C 0.9487(2) 0.76458(19) 0.46120(14)
H6_3 H 0.9538 0.8194 0.4552
C9_3 C 0.8795(2) 0.72148(18) 0.43632(12)
C11_3 C 0.8141(2) 0.76851(17) 0.40211(12)
C12_2 C 0.8443(2) 0.26670(17) 0.50303(11)
C13_2 C 0.9108(2) 0.23803(17) 0.54002(11)
C14_2 C 0.9197(2) 0.15695(19) 0.54689(12)
H7_2 H 0.9603 0.1386 0.5721
C15_2 C 0.8705(2) 0.10018(19) 0.51772(13)
H8_2 H 0.8802 0.0454 0.5222
C16_3 C 0.8058(2) 0.12919(17) 0.48142(12)
C17_3 C 0.7918(2) 0.21189(17) 0.47566(11)
H9_3 H 0.7463 0.2302 0.4530
C18_2 C 0.9728(2) 0.29201(16) 0.57215(10)
C19_3 C 0.7501(2) 0.07394(19) 0.44882(11)
C20_3 C 0.5718(2) 0.41014(17) 0.32335(10)
C21_2 C 0.4987(3) 0.3631(3) 0.30407(14)
H10_2 H 0.4805 0.3172 0.3217
C22_2 C 0.4536(3) 0.3831(3) 0.25994(14)
H11_2 H 0.4061 0.3501 0.2476
C23_2 C 0.4774(2) 0.45205(18) 0.23308(11)
C24_3 C 0.5501(3) 0.4981(2) 0.25216(13)
H12_3 H 0.5686 0.5437 0.2342
C25_3 C 0.5966(3) 0.4786(2) 0.29726(13)
H13_3 H 0.6440 0.5116 0.3097
C26_2 C 0.4322(2) 0.47261(19) 0.18412(10)
C21_3 C 0.0013(3) 0.6369(3) 0.80407(14)
H10_3 H 0.0195 0.6828 0.8217
C22_3 C 0.0464(3) 0.6169(3) 0.75994(14)
H11_3 H 0.0939 0.6499 0.7476
C23_3 C 0.0226(2) 0.54795(18) 0.73308(11)
C26_3 C 0.0678(2) 0.52739(19) 0.68412(10)
O1_3 O 0.36641(15) 0.36304(13) 0.06026(8)
O2_3 O 0.4578(2) 0.47092(16) 0.05004(12)
O5_3 O 0.53334(17) 0.63109(13) 0.06288(9)
O6_3 O 0.47393(16) 0.73587(12) 0.10404(8)
O11_3 O 0.1970(2) 0.49175(19) 0.16020(11)
H2_3 H 0.6344 0.6224 0.0178
C6_3 C 0.4993(2) 0.35351(19) 0.00451(12)
H5_3 H 0.4410 0.2430 0.0110
C10_3 C 0.4356(2) 0.39862(18) 0.04235(12)
C12_3 C 0.6557(2) 0.73330(17) 0.00303(11)
C13_3 C 0.5892(2) 0.76197(17) 0.04002(11)
C14_3 C 0.5803(2) 0.84305(19) 0.04689(12)
H7_3 H 0.5397 0.8614 0.0721
C15_3 C 0.6295(2) 0.89982(19) 0.01772(13)
H8_3 H 0.6198 0.9546 0.0222
C18_3 C 0.5272(2) 0.70799(16) 0.07215(10)
H14_3 H 0.201585 0.549365 0.150839
H15_3 H 0.130357 0.474593 0.158958
O5_4 O 0.03334(17) 0.86891(13) 0.93712(9)
H2_4 H 0.1344 0.8776 0.9822
C12_4 C 0.1557(2) 0.76670(17) 0.99697(11)
C13_4 C 0.0892(2) 0.73803(17) 0.95998(11)
C14_4 C 0.0803(2) 0.65695(19) 0.95311(12)
H7_4 H 0.0397 0.6386 0.9279
C15_4 C 0.1295(2) 0.60018(19) 0.98228(13)
H8_4 H 0.1198 0.5454 0.9778
C18_4 C 0.0272(2) 0.79201(16) 0.92785(10)
C7_3 C 0.9884(2) 0.22774(19) 0.00480(14)
Zn1 Zn 0.77524(2) 0.076617(18) 0.891295(11)
O1_4 O 0.86641(15) 0.13696(13) 0.93974(8)
O2_4 O 0.9578(2) 0.02908(16) 0.94996(12)
O11_4 O 0.6970(2) 0.00825(19) 0.83980(11)
C6_4 C 0.9993(2) 0.14649(19) 0.99549(12)
H5_4 H 0.9410 0.2570 0.9890
C10_4 C 0.9356(2) 0.10138(18) 0.95765(12)
O12_2 O 0.67499(15) 0.15693(13) 0.90136(10)
O16_2 O 0.87328(15) 0.07605(14) 0.83501(8)
H15_4 H 0.630357 0.0254067 0.841042
Zn2 Zn 0.93625(2) 0.936109(19) 0.906482(11)
O6_4 O 0.97393(16) 0.76413(12) 0.89596(8)
O13_2 O 0.8149(2) 0.89345(15) 0.92219(11)
O14_2 O 0.73092(18) 0.99991(12) 0.94812(8)
O15_2 O 0.95503(19) 0.96123(15) 0.83536(9)
H14_4 H 0.701585 0.950635 0.849161
C21_4 C 0.9987(3) 0.1369(3) 0.69593(14)
H10_4 H 0.9805 0.1828 0.6783
C22_4 C 0.9536(3) 0.1169(3) 0.74006(14)
H11_4 H 0.9061 0.1499 0.7524
C23_4 C 0.9774(2) 0.04795(18) 0.76692(11)
C26_4 C 0.9322(2) 0.02739(19) 0.81588(10)
O4_4 O 0.7463(2) 0.26841(15) 0.87573(11)
N1_4 N 0.77668(19) 0.63906(15) 0.93049(9)
N2_4 N 0.6826(2) 0.52887(15) 0.95976(10)
N3_4 N 0.79067(19) 0.50794(15) 0.89142(10)
N4_4 N 0.88299(19) 0.61789(16) 0.86708(9)
H1_4 H 0.9020 0.6641 0.8774
N5_4 N 0.6643(2) 0.65076(16) 0.99565(10)
N6_4 N 0.69984(19) 0.40407(15) 0.92075(11)
H3_4 H 0.7326 0.3767 0.8994
C1_4 C 0.81446(19) 0.58517(16) 0.89616(10)
C2_4 C 0.7111(2) 0.60666(18) 0.95993(11)
C3_4 C 0.7242(2) 0.48367(17) 0.92473(12)
C4_4 C 0.6304(2) 0.36119(18) 0.94603(11)
C5_4 C 0.5696(3) 0.39715(19) 0.98050(13)
H4_4 H 0.5761 0.4515 0.9877
C7_4 C 0.4884(2) 0.27226(19) 0.99520(14)
C8_4 C 0.5513(2) 0.23542(19) 0.96120(14)
H6_4 H 0.5462 0.1806 0.9552
C9_4 C 0.6205(2) 0.27852(18) 0.93632(12)
C11_4 C 0.6859(2) 0.23149(17) 0.90211(12)
C16_4 C 0.6942(2) 0.87081(17) 0.98142(12)
C17_4 C 0.7082(2) 0.78811(17) 0.97566(11)
H9_4 H 0.7537 0.7698 0.9530
C19_4 C 0.7499(2) 0.92606(19) 0.94882(11)
C20_4 C 0.9282(2) 0.58986(17) 0.82335(10)
C24_4 C 0.9499(3) 0.5019(2) 0.75216(13)
H12_4 H 0.9314 0.4563 0.7342
C25_4 C 0.9034(3) 0.5214(2) 0.79726(13)
H13_4 H 0.8560 0.4884 0.8097
loop_
_geom_bond_atom_site_label_1
_geom_bond_atom_site_label_2
_geom_bond_site_symmetry_1
_geom_bond_site_symmetry_2
O3 C11 1_555 1_555
O4 C11 1_555 1_555
N6 H3 1_555 1_555
C4 N6 1_555 1_555
C5 C4 1_555 1_555
H4 C5 1_555 1_555
H6 C8 1_555 1_555
C9 C4 1_555 1_555
C11 C9 1_555 1_555
Zn5 O3 1_555 1_555
Zn6 O9 1_555 1_555
N6 C3 1_555 1_555
C8 C9 1_555 1_555
O7 C19 1_555 1_555
O8 C19 1_555 1_555
O10 C26 1_555 1_555
N1 C1 1_555 1_555
N2 C2 1_555 1_555
N3 C1 1_555 1_555
N4 H1 1_555 1_555
C1 N4 1_555 1_555
C2 N1 1_555 1_555
H9 C17 1_555 1_555
C19 C16 1_555 1_555
C20 N4 1_555 1_555
C21 C20 1_555 1_555
H10 C21 1_555 1_555
C22 C21 1_555 1_555
H11 C22 1_555 1_555
C23 C22 1_555 1_555
C24 C23 1_555 1_555
C25 C20 1_555 1_555
C26 C23 1_555 1_555
Zn3 O10 1_555 1_555
Zn5 O8 1_555 1_555
Zn7 O7 1_555 1_555
N5 C2 1_555 1_555
C16 C17 1_555 1_555
C24 C25 1_555 1_555
O5 Zn6 1_555 1_555
O6 C18 1_555 1_555
O7_2 C19_2 1_555 1_555
O8_2 C19_2 1_555 1_555
N1_2 C1_2 1_555 1_555
N2_2 C2_2 1_555 1_555
N3_2 C1_2 1_555 1_555
N4_2 H1_2 1_555 1_555
N5_2 H2 1_555 1_555
C1_2 N4_2 1_555 1_555
C2_2 N1_2 1_555 1_555
C12 N5_2 1_555 1_555
C13 C12 1_555 1_555
C14 C13 1_555 1_555
H7 C14 1_555 1_555
C15 C14 1_555 1_555
H8 C15 1_555 1_555
C16_2 C15 1_555 1_555
C17_2 C12 1_555 1_555
H9_2 C17_2 1_555 1_555
C18 O5 1_555 1_555
C19_2 C16_2 1_555 1_555
C20_2 N4_2 1_555 1_555
C25_2 C20_2 1_555 1_555
Zn4 O8_2 1_555 1_555
Zn7_2 O7_2 1_555 1_555
O13 Zn6 1_555 1_555
N5_2 C2_2 1_555 1_555
C13 C18 1_555 1_555
C16_2 C17_2 1_555 1_555
C24_2 C25_2 1_555 1_555
Zn3 O1 1_555 1_555
O1 C10 1_555 1_555
O2 C10 1_555 1_555
O3_2 C11_2 1_555 1_555
O4_2 C11_2 1_555 1_555
O11 Zn3 1_555 1_555
N6_2 H3_2 1_555 1_555
C4_2 N6_2 1_555 1_555
C5_2 C4_2 1_555 1_555
H4_2 C5_2 1_555 1_555
C6 C5_2 1_555 1_555
C7 C6 1_555 1_555
H5 C7 1_555 1_555
C8_2 C7 1_555 1_555
H6_2 C8_2 1_555 1_555
C9_2 C4_2 1_555 1_555
C10 C6 1_555 1_555
C11_2 C9_2 1_555 1_555
Zn4 O3_2 1_555 1_555
O12 Zn3 1_555 1_555
N6_2 C3_2 1_555 1_555
C8_2 C9_2 1_555 1_555
O11 H15 1_555 1_555
Zn4 O1_2 1_555 1_555
Zn7_2 O2_2 1_555 1_555
O1_2 C10_2 1_555 1_555
O2_2 C10_2 1_555 1_555
O11_2 Zn4 1_555 1_555
C7_2 C6_2 1_555 1_555
H5_2 C7_2 1_555 1_555
C10_2 C6_2 1_555 1_555
O15 Zn7_2 1_555 1_555
O16 Zn4 1_555 1_555
O11_2 H14_2 1_555 1_555
O11_2 H15_2 1_555 1_555
O12 C11_3 1_555 1_555
O4_3 C11_3 1_555 1_555
O13 C19_3 1_555 1_555
O14 C19_3 1_555 1_555
O9_2 C26_2 1_555 1_555
O10_2 C26_2 1_555 1_555
N1_3 C1_3 1_555 1_555
N2_3 C2_3 1_555 1_555
N3_3 C1_3 1_555 1_555
N4_3 H1_3 1_555 1_555
N5_3 H2_2 1_555 1_555
N6_3 H3_3 1_555 1_555
C1_3 N4_3 1_555 1_555
C2_3 N1_3 1_555 1_555
C3_3 N2_3 1_555 1_555
C4_3 N6_3 1_555 1_555
C5_3 C4_3 1_555 1_555
H4_3 C5_3 1_555 1_555
H6_3 C8_3 1_555 1_555
C9_3 C4_3 1_555 1_555
C11_3 C9_3 1_555 1_555
C12_2 N5_3 1_555 1_555
C13_2 C12_2 1_555 1_555
C14_2 C13_2 1_555 1_555
H7_2 C14_2 1_555 1_555
C15_2 C14_2 1_555 1_555
H8_2 C15_2 1_555 1_555
C16_3 C15_2 1_555 1_555
C17_3 C12_2 1_555 1_555
H9_3 C17_3 1_555 1_555
C18_2 O5_2 1_555 1_555
C19_3 C16_3 1_555 1_555
C20_3 N4_3 1_555 1_555
C21_2 C20_3 1_555 1_555
H10_2 C21_2 1_555 1_555
C22_2 C21_2 1_555 1_555
H11_2 C22_2 1_555 1_555
C23_2 C22_2 1_555 1_555
C24_3 C23_2 1_555 1_555
H12_3 C24_3 1_555 1_555
C25_3 C20_3 1_555 1_555
H13_3 C25_3 1_555 1_555
C26_2 C23_2 1_555 1_555
Zn5 O10_2 1_555 1_555
Zn7 O9_2 1_555 1_555
N3_3 C3_3 1_555 1_555
N5_3 C2_3 1_555 1_555
N6_3 C3_3 1_555 1_555
C8_3 C9_3 1_555 1_555
C13_2 C18_2 1_555 1_555
C16_3 C17_3 1_555 1_555
C24_3 C25_3 1_555 1_555
O15 C26_3 1_555 1_555
O16 C26_3 1_555 1_555
H10_3 C21_3 1_555 1_555
C22_3 C21_3 1_555 1_555
H11_3 C22_3 1_555 1_555
C23_3 C22_3 1_555 1_555
C26_3 C23_3 1_555 1_555
Zn5 O1_3 1_555 1_555
Zn7 O2_3 1_555 1_555
O1_3 C10_3 1_555 1_555
O2_3 C10_3 1_555 1_555
O5_3 Zn7 1_555 1_555
O6_3 C18_3 1_555 1_555
O11_3 Zn5 1_555 1_555
C10_3 C6_3 1_555 1_555
C13_3 C12_3 1_555 1_555
C14_3 C13_3 1_555 1_555
H7_3 C14_3 1_555 1_555
C15_3 C14_3 1_555 1_555
H8_3 C15_3 1_555 1_555
C18_3 O5_3 1_555 1_555
C13_3 C18_3 1_555 1_555
O11_3 H14_3 1_555 1_555
O11_3 H15_3 1_555 1_555
C13_4 C12_4 1_555 1_555
C14_4 C13_4 1_555 1_555
H7_4 C14_4 1_555 1_555
C15_4 C14_4 1_555 1_555
H8_4 C15_4 1_555 1_555
C18_4 O5_4 1_555 1_555
C13_4 C18_4 1_555 1_555
Zn1 O1_4 1_555 1_555
O1_4 C10_4 1_555 1_555
O2_4 C10_4 1_555 1_555
O11_4 Zn1 1_555 1_555
C10_4 C6_4 1_555 1_555
O12_2 Zn1 1_555 1_555
O16_2 Zn1 1_555 1_555
O11_4 H15_4 1_555 1_555
O13_2 Zn2 1_555 1_555
O15_2 Zn2 1_555 1_555
O16_2 C26_4 1_555 1_555
H10_4 C21_4 1_555 1_555
C22_4 C21_4 1_555 1_555
H11_4 C22_4 1_555 1_555
C23_4 C22_4 1_555 1_555
C26_4 C23_4 1_555 1_555
O12_2 C11_4 1_555 1_555
O4_4 C11_4 1_555 1_555
O13_2 C19_4 1_555 1_555
O14_2 C19_4 1_555 1_555
N1_4 C1_4 1_555 1_555
N2_4 C2_4 1_555 1_555
N3_4 C1_4 1_555 1_555
N4_4 H1_4 1_555 1_555
N6_4 H3_4 1_555 1_555
C1_4 N4_4 1_555 1_555
C2_4 N1_4 1_555 1_555
C3_4 N2_4 1_555 1_555
C4_4 N6_4 1_555 1_555
C5_4 C4_4 1_555 1_555
H4_4 C5_4 1_555 1_555
C8_4 C7_4 1_555 1_555
H6_4 C8_4 1_555 1_555
C9_4 C4_4 1_555 1_555
C11_4 C9_4 1_555 1_555
H9_4 C17_4 1_555 1_555
C19_4 C16_4 1_555 1_555
C20_4 N4_4 1_555 1_555
H12_4 C24_4 1_555 1_555
C25_4 C20_4 1_555 1_555
H13_4 C25_4 1_555 1_555
N3_4 C3_4 1_555 1_555
N5_4 C2_4 1_555 1_555
N6_4 C3_4 1_555 1_555
C8_4 C9_4 1_555 1_555
C16_4 C17_4 1_555 1_555
C24_4 C25_4 1_555 1_555

#END
