
###############################################################################
#
# This file contains modified crystal structure data generated from the
# MOF subset of the Cambridge Structural Database (CSD) v543 
# hosted by the Cambridge Crystallographic Data Centre (CCDC).
#
# This work is licensed under the Creative Commons
# Attribution-NonCommercial-ShareAlike 4.0 International License.
# To view a copy of this license, visit
# http://creativecommons.org/licenses/by-nc-sa/4.0/
# or send a letter to
# Creative Commons, PO Box 1866, Mountain View, CA 94042, USA.
#
# CIF created using the CSD Python API on 29 September 2022
# The structure has been converted into the P1 space group
# The structure has a 3D framework
# The original CSD entry URENAI is in the orthorhombic crystal system
# The original CSD entry URENAI is in a Sohncke space group
# The framework has been calculated to contain at least 10.0% void space
# The void calculation uses a probe of radius 1.32A, grid spacing 0.4
# The framework is charged, counterions have been retained in the structure
#
###############################################################################

data_URENAI
_chemical_formula_moiety         '(C104 H54 N24 O40 Zn8 4-)n'
_symmetry_cell_setting           triclinic
_symmetry_space_group_name_H-M   'P 1'
_symmetry_Int_Tables_number      1
_space_group_name_Hall           'P 1'
loop_
_symmetry_equiv_pos_site_id
_symmetry_equiv_pos_as_xyz
1 x,y,z
_cell_length_a                   16.7533(3)
_cell_length_b                   17.1585(3)
_cell_length_c                   21.5052(5)
_cell_angle_alpha                90
_cell_angle_beta                 90
_cell_angle_gamma                90
_cell_volume                     6181.92
loop_
_atom_site_label
_atom_site_type_symbol
_atom_site_fract_x
_atom_site_fract_y
_atom_site_fract_z
Zn1 Zn 0.33739(2) 0.07217(2) 0.82089(2)
Zn2 Zn 0.17874(2) 0.19311(3) 0.80152(2)
O1 O 0.38670(15) 0.15304(15) 0.76838(14)
O2 O 0.27477(19) 0.2227(2) 0.75986(18)
O3 O 0.59512(13) 0.48150(14) 0.67707(13)
O4 O 0.48843(15) 0.54194(17) 0.64291(15)
O5 O 0.11455(14) 0.28341(16) 0.78799(15)
O6 O 0.00607(15) 0.21966(16) 0.81957(16)
O9 O 0.28742(18) 0.7995(2) 0.38805(15)
O10 O 0.18189(17) 0.87935(16) 0.40135(12)
N1 N 0.11713(17) 0.54237(18) 0.69023(16)
N2 N 0.22178(18) 0.45310(19) 0.7080(2)
N3 N 0.24715(17) 0.56498(19) 0.64812(16)
N4 N 0.14052(18) 0.65102(18) 0.63375(14)
H1 H 0.0992 0.6696 0.6523
N5 N 0.10067(19) 0.4249(2) 0.74579(16)
H2 H 0.1277 0.3926 0.7679
N6 N 0.34777(18) 0.48016(18) 0.66804(16)
H3 H 0.3756 0.5147 0.6489
C1 C 0.1695(2) 0.5834(2) 0.65753(17)
C2 C 0.1459(2) 0.4759(3) 0.7125(2)
C3 C 0.2688(2) 0.4976(2) 0.6754(2)
C4 C 0.3897(2) 0.4135(2) 0.6875(2)
C5 C 0.3519(2) 0.3458(2) 0.70857(18)
H4 H 0.2965 0.3447 0.7109
C6 C 0.3945(2) 0.2808(2) 0.7259(2)
C7 C 0.4770(2) 0.2799(2) 0.7226(2)
H5 H 0.5060 0.2357 0.7332
C8 C 0.5154(2) 0.3482(2) 0.7025(2)
H6 H 0.5708 0.3492 0.7015
C9 C 0.4747(2) 0.4131(2) 0.68444(18)
C10 C 0.3513(2) 0.2127(2) 0.7530(2)
C11 C 0.5217(2) 0.4861(2) 0.66557(19)
C12 C 0.0177(2) 0.4159(3) 0.7505(2)
C18 C 0.0365(2) 0.2774(3) 0.7956(2)
C20 C 0.1688(2) 0.6955(2) 0.58250(16)
C21 C 0.1237(2) 0.7592(2) 0.5641(2)
H10 H 0.0799 0.7734 0.5881
C22 C 0.1410(2) 0.8021(3) 0.51218(19)
H11 H 0.1076 0.8427 0.5000
C23 C 0.2088(2) 0.7845(2) 0.47777(19)
C24 C 0.2570(2) 0.7246(3) 0.4984(2)
H12 H 0.3040 0.7138 0.4771
C25 C 0.2372(3) 0.6803(3) 0.5499(2)
H13 H 0.2707 0.6400 0.5624
C26 C 0.2273(2) 0.8250(3) 0.4190(2)
Zn3 Zn 0.16261(2) 0.92783(2) 0.32089(2)
Zn5 Zn 0.66261(2) 0.57217(2) 0.67911(2)
Zn6 Zn 0.32126(2) 0.80689(3) 0.30152(2)
O12 O 0.14020(16) 0.0910(2) 0.7981(2)
O13 O 0.24496(14) 0.01604(15) 0.78631(14)
O14 O 0.21258(18) 0.2005(2) 0.88805(15)
O15 O 0.31811(17) 0.12065(16) 0.90135(12)
O11 O 0.40488(13) 0.98150(14) 0.82293(13)
O7 O 0.85980(16) 0.5910(2) 0.7019(2)
O8 O 0.75504(14) 0.51604(15) 0.71369(14)
C13 C 0.9862(2) 0.3456(2) 0.77432(19)
C14 C 0.9038(2) 0.3357(2) 0.7770(2)
H7 H 0.8836 0.2893 0.7929
C15 C 0.8514(2) 0.3917(2) 0.75707(19)
H8 H 0.7967 0.3826 0.7567
C16 C 0.8835(2) 0.4645(2) 0.7368(2)
C17 C 0.9649(2) 0.4756(3) 0.7339(2)
H9 H 0.9850 0.5233 0.7206
C19 C 0.8300(2) 0.5277(2) 0.71659(18)
Zn7 Zn 0.82126(2) 0.69311(3) 0.69848(2)
O1_2 O 0.11330(15) 0.84696(15) 0.26838(14)
O2_2 O 0.22523(19) 0.7773(2) 0.25986(18)
O4_2 O 0.01157(15) 0.45806(17) 0.14291(15)
O5_2 O 0.38545(14) 0.71659(16) 0.28799(15)
O6_2 O 0.49393(15) 0.78034(16) 0.31957(16)
O7_2 O 0.64020(16) 0.4090(2) 0.2019(2)
O8_2 O 0.74496(14) 0.48396(15) 0.21369(14)
N1_2 N 0.38287(17) 0.45763(18) 0.19023(16)
N2_2 N 0.27822(18) 0.54690(19) 0.2080(2)
N3_2 N 0.25285(17) 0.43502(19) 0.14812(16)
N4_2 N 0.35948(18) 0.34898(18) 0.13375(14)
H1_2 H 0.4008 0.3304 0.1523
N5_2 N 0.39933(19) 0.5751(2) 0.24579(16)
H2_2 H 0.3723 0.6074 0.2679
N6_2 N 0.15223(18) 0.51984(18) 0.16804(16)
H3_2 H 0.1244 0.4853 0.1489
C1_2 C 0.3305(2) 0.4166(2) 0.15753(17)
C2_2 C 0.3541(2) 0.5241(3) 0.2125(2)
C3_2 C 0.2312(2) 0.5024(2) 0.1754(2)
C4_2 C 0.1103(2) 0.5865(2) 0.1875(2)
C5_2 C 0.1481(2) 0.6542(2) 0.20857(18)
H4_2 H 0.2035 0.6553 0.2109
C6_2 C 0.1055(2) 0.7192(2) 0.2259(2)
C7_2 C 0.0230(2) 0.7201(2) 0.2226(2)
C9_2 C 0.0253(2) 0.5869(2) 0.18444(18)
C10_2 C 0.1487(2) 0.7873(2) 0.2530(2)
C12_2 C 0.4823(2) 0.5841(3) 0.2505(2)
C13_2 C 0.5138(2) 0.6544(2) 0.27432(19)
C14_2 C 0.5962(2) 0.6643(2) 0.2770(2)
H7_2 H 0.6164 0.7107 0.2929
C15_2 C 0.6486(2) 0.6083(2) 0.25707(19)
H8_2 H 0.7033 0.6174 0.2567
C16_2 C 0.6165(2) 0.5355(2) 0.2368(2)
C17_2 C 0.5351(2) 0.5244(3) 0.2339(2)
H9_2 H 0.5150 0.4767 0.2206
C18_2 C 0.4635(2) 0.7226(3) 0.2956(2)
C19_2 C 0.6700(2) 0.4723(2) 0.21659(18)
C20_2 C 0.3312(2) 0.3045(2) 0.08250(16)
C21_2 C 0.3763(2) 0.2408(2) 0.0641(2)
H10_2 H 0.4201 0.2266 0.0881
C22_2 C 0.3590(2) 0.1979(3) 0.01218(19)
H11_2 H 0.3924 0.1573 0.0000
C25_2 C 0.2628(3) 0.3197(3) 0.0499(2)
H13_2 H 0.2293 0.3600 0.0624
Zn4 Zn 0.83739(2) 0.42783(2) 0.17911(2)
Zn7_2 Zn 0.67874(2) 0.30689(3) 0.19848(2)
O12_2 O 0.35980(16) 0.9090(2) 0.2981(2)
O13_2 O 0.25504(14) 0.98396(15) 0.28631(14)
H11_3 H 0.3924 0.1573 1.0000
C23_2 C 0.2912(2) 0.2155(2) 0.97777(19)
C24_2 C 0.2430(2) 0.2754(3) 0.9984(2)
H12_2 H 0.1960 0.2862 0.9771
C26_2 C 0.2727(2) 0.1750(3) 0.9190(2)
O3_2 O 0.90488(13) 0.51850(14) 0.17707(13)
H5_2 H 0.9940 0.7643 0.2332
C8_2 C 0.9846(2) 0.6518(2) 0.2025(2)
H6_2 H 0.9292 0.6508 0.2015
C11_2 C 0.9783(2) 0.5139(2) 0.16557(19)
H9_3 H 0.0150 0.0233 0.7794
C19_3 C 0.1700(2) 0.0277(2) 0.78341(18)
O9_2 O 0.71258(18) 0.2995(2) 0.11195(15)
O10_2 O 0.81811(17) 0.37935(16) 0.09865(12)
H11_4 H 0.8924 0.3427 0.0000
C23_3 C 0.7912(2) 0.2845(2) 0.02223(19)
C24_3 C 0.7430(2) 0.2246(3) 0.0016(2)
H12_3 H 0.6960 0.2138 0.0229
C26_3 C 0.7727(2) 0.3250(3) 0.0810(2)
O4_3 O 0.51157(15) 0.04194(17) 0.85709(15)
N1_3 N 0.88287(17) 0.04237(18) 0.80977(16)
N3_3 N 0.75285(17) 0.06498(19) 0.85188(16)
N4_3 N 0.85948(18) 0.15102(18) 0.86625(14)
H1_3 H 0.9008 0.1696 0.8477
H3_3 H 0.6244 0.0147 0.8511
C1_3 C 0.8305(2) 0.0834(2) 0.84247(17)
C20_3 C 0.8312(2) 0.1955(2) 0.91750(16)
C21_3 C 0.8763(2) 0.2592(2) 0.9359(2)
H10_3 H 0.9201 0.2734 0.9119
C22_3 C 0.8590(2) 0.3021(3) 0.98782(19)
H11_5 H 0.8924 0.3427 1.0000
C25_3 C 0.7628(3) 0.1803(3) 0.9501(2)
H13_3 H 0.7293 0.1400 0.9376
O1_3 O 0.61330(15) 0.65304(15) 0.73162(14)
O2_3 O 0.72523(19) 0.7227(2) 0.74014(18)
O5_3 O 0.88545(14) 0.78341(16) 0.71201(15)
O6_3 O 0.99393(15) 0.71966(16) 0.68043(16)
N2_3 N 0.77822(18) 0.95310(19) 0.7920(2)
N5_3 N 0.89933(19) 0.9249(2) 0.75421(16)
H2_3 H 0.8723 0.8926 0.7321
N6_3 N 0.65223(18) 0.98016(18) 0.83196(16)
C2_3 C 0.8541(2) 0.9759(3) 0.7875(2)
C3_3 C 0.7312(2) 0.9976(2) 0.8246(2)
C4_3 C 0.6103(2) 0.9135(2) 0.8125(2)
C5_3 C 0.6481(2) 0.8458(2) 0.79143(18)
H4_3 H 0.7035 0.8447 0.7891
C6_3 C 0.6055(2) 0.7808(2) 0.7741(2)
C7_3 C 0.5230(2) 0.7799(2) 0.7774(2)
H5_3 H 0.4940 0.7357 0.7668
C8_3 C 0.4846(2) 0.8482(2) 0.7975(2)
H6_3 H 0.4292 0.8492 0.7985
C9_3 C 0.5253(2) 0.9131(2) 0.81556(18)
C10_3 C 0.6487(2) 0.7127(2) 0.7470(2)
C11_3 C 0.4783(2) 0.9861(2) 0.83443(19)
C12_3 C 0.9823(2) 0.9159(3) 0.7495(2)
C18_3 C 0.9635(2) 0.7774(3) 0.7044(2)
O14_2 O 0.78742(18) 0.7005(2) 0.61195(15)
O15_2 O 0.68189(17) 0.62065(16) 0.59865(12)
O1_4 O 0.88670(15) 0.34696(15) 0.23162(14)
O2_4 O 0.77477(19) 0.2773(2) 0.24014(18)
O5_4 O 0.61455(14) 0.21659(16) 0.21201(15)
O6_4 O 0.50607(15) 0.28034(16) 0.18043(16)
N2_4 N 0.72178(18) 0.04690(19) 0.2920(2)
N5_4 N 0.60067(19) 0.0751(2) 0.25421(16)
H2_4 H 0.6277 0.1074 0.2321
N6_4 N 0.84777(18) 0.01984(18) 0.33196(16)
C2_4 C 0.6459(2) 0.0241(3) 0.2875(2)
C3_4 C 0.7688(2) 0.0024(2) 0.3246(2)
C4_4 C 0.8897(2) 0.0865(2) 0.3125(2)
C5_4 C 0.8519(2) 0.1542(2) 0.29143(18)
H4_4 H 0.7965 0.1553 0.2891
C6_4 C 0.8945(2) 0.2192(2) 0.2741(2)
C7_4 C 0.9770(2) 0.2201(2) 0.2774(2)
C9_4 C 0.9747(2) 0.0869(2) 0.31556(18)
C10_4 C 0.8513(2) 0.2873(2) 0.2470(2)
C12_4 C 0.5177(2) 0.0841(3) 0.2495(2)
C13_3 C 0.4862(2) 0.1544(2) 0.22568(19)
C14_3 C 0.4038(2) 0.1643(2) 0.2230(2)
H7_3 H 0.3836 0.2107 0.2071
C15_3 C 0.3514(2) 0.1083(2) 0.24293(19)
H8_3 H 0.2967 0.1174 0.2433
C16_3 C 0.3835(2) 0.0355(2) 0.2632(2)
C17_3 C 0.4649(2) 0.0244(3) 0.2661(2)
C18_4 C 0.5365(2) 0.2226(3) 0.2044(2)
O4_4 O 0.98843(15) 0.95806(17) 0.35709(15)
N1_4 N 0.61713(17) 0.95763(18) 0.30977(16)
N3_4 N 0.74715(17) 0.93502(19) 0.35188(16)
N4_4 N 0.64052(18) 0.84898(18) 0.36625(14)
H1_4 H 0.5992 0.8304 0.3477
H3_4 H 0.8756 0.9853 0.3511
C1_4 C 0.6695(2) 0.9166(2) 0.34247(17)
H9_4 H 0.4850 0.9767 0.2794
C19_4 C 0.3300(2) 0.9723(2) 0.28341(18)
C20_4 C 0.6688(2) 0.8045(2) 0.41750(16)
C21_4 C 0.6237(2) 0.7408(2) 0.4359(2)
H10_4 H 0.5799 0.7266 0.4119
C22_4 C 0.6410(2) 0.6979(3) 0.48782(19)
H11_6 H 0.6076 0.6573 0.5000
C23_4 C 0.7088(2) 0.7155(2) 0.52223(19)
C24_4 C 0.7570(2) 0.7754(3) 0.5016(2)
H12_4 H 0.8040 0.7862 0.5229
C25_4 C 0.7372(3) 0.8197(3) 0.4501(2)
H13_4 H 0.7707 0.8600 0.4376
C26_4 C 0.7273(2) 0.6750(3) 0.5810(2)
O11_2 O 0.09512(13) 0.01850(14) 0.32293(13)
H5_4 H 0.0060 0.2643 0.2668
C8_4 C 0.0154(2) 0.1518(2) 0.2975(2)
H6_4 H 0.0708 0.1508 0.2985
C11_4 C 0.0217(2) 0.0139(2) 0.33443(19)
C13_4 C 0.0138(2) 0.8456(2) 0.72568(19)
C14_4 C 0.0962(2) 0.8357(2) 0.7230(2)
H7_4 H 0.1164 0.7893 0.7071
C15_4 C 0.1486(2) 0.8917(2) 0.74293(19)
H8_4 H 0.2033 0.8826 0.7433
C16_4 C 0.1165(2) 0.9645(2) 0.7632(2)
C17_4 C 0.0351(2) 0.9756(3) 0.7661(2)
loop_
_geom_bond_atom_site_label_1
_geom_bond_atom_site_label_2
_geom_bond_site_symmetry_1
_geom_bond_site_symmetry_2
Zn1 O1 1_555 1_555
Zn2 O2 1_555 1_555
O1 C10 1_555 1_555
O2 C10 1_555 1_555
O3 C11 1_555 1_555
O4 C11 1_555 1_555
O5 Zn2 1_555 1_555
O6 C18 1_555 1_555
O9 C26 1_555 1_555
O10 C26 1_555 1_555
N1 C1 1_555 1_555
N2 C2 1_555 1_555
N3 C1 1_555 1_555
N4 H1 1_555 1_555
N5 H2 1_555 1_555
N6 H3 1_555 1_555
C1 N4 1_555 1_555
C2 N1 1_555 1_555
C3 N2 1_555 1_555
C4 N6 1_555 1_555
C5 C4 1_555 1_555
H4 C5 1_555 1_555
C6 C5 1_555 1_555
C7 C6 1_555 1_555
H5 C7 1_555 1_555
C8 C7 1_555 1_555
H6 C8 1_555 1_555
C9 C4 1_555 1_555
C10 C6 1_555 1_555
C11 C9 1_555 1_555
C12 N5 1_555 1_555
C18 O5 1_555 1_555
C20 N4 1_555 1_555
C21 C20 1_555 1_555
H10 C21 1_555 1_555
C22 C21 1_555 1_555
H11 C22 1_555 1_555
C23 C22 1_555 1_555
C24 C23 1_555 1_555
H12 C24 1_555 1_555
C25 C20 1_555 1_555
H13 C25 1_555 1_555
C26 C23 1_555 1_555
Zn3 O10 1_555 1_555
Zn5 O3 1_555 1_555
Zn6 O9 1_555 1_555
O12 Zn2 1_555 1_555
O13 Zn1 1_555 1_555
O14 Zn2 1_555 1_555
O15 Zn1 1_555 1_555
N3 C3 1_555 1_555
N5 C2 1_555 1_555
N6 C3 1_555 1_555
C8 C9 1_555 1_555
C24 C25 1_555 1_555
O7 C19 1_555 1_555
O8 C19 1_555 1_555
C14 C13 1_555 1_555
H7 C14 1_555 1_555
C15 C14 1_555 1_555
H8 C15 1_555 1_555
C16 C15 1_555 1_555
H9 C17 1_555 1_555
C19 C16 1_555 1_555
Zn5 O8 1_555 1_555
Zn7 O7 1_555 1_555
C16 C17 1_555 1_555
Zn3 O1_2 1_555 1_555
Zn6 O2_2 1_555 1_555
O1_2 C10_2 1_555 1_555
O2_2 C10_2 1_555 1_555
O5_2 Zn6 1_555 1_555
O6_2 C18_2 1_555 1_555
O7_2 C19_2 1_555 1_555
O8_2 C19_2 1_555 1_555
N1_2 C1_2 1_555 1_555
N2_2 C2_2 1_555 1_555
N3_2 C1_2 1_555 1_555
N4_2 H1_2 1_555 1_555
N5_2 H2_2 1_555 1_555
N6_2 H3_2 1_555 1_555
C1_2 N4_2 1_555 1_555
C2_2 N1_2 1_555 1_555
C3_2 N2_2 1_555 1_555
C4_2 N6_2 1_555 1_555
C5_2 C4_2 1_555 1_555
H4_2 C5_2 1_555 1_555
C6_2 C5_2 1_555 1_555
C7_2 C6_2 1_555 1_555
C9_2 C4_2 1_555 1_555
C10_2 C6_2 1_555 1_555
C12_2 N5_2 1_555 1_555
C13_2 C12_2 1_555 1_555
C14_2 C13_2 1_555 1_555
H7_2 C14_2 1_555 1_555
C15_2 C14_2 1_555 1_555
H8_2 C15_2 1_555 1_555
C16_2 C15_2 1_555 1_555
C17_2 C12_2 1_555 1_555
H9_2 C17_2 1_555 1_555
C18_2 O5_2 1_555 1_555
C19_2 C16_2 1_555 1_555
C20_2 N4_2 1_555 1_555
C21_2 C20_2 1_555 1_555
H10_2 C21_2 1_555 1_555
C22_2 C21_2 1_555 1_555
H11_2 C22_2 1_555 1_555
C25_2 C20_2 1_555 1_555
H13_2 C25_2 1_555 1_555
Zn4 O8_2 1_555 1_555
Zn7_2 O7_2 1_555 1_555
O12_2 Zn6 1_555 1_555
O13_2 Zn3 1_555 1_555
N3_2 C3_2 1_555 1_555
N5_2 C2_2 1_555 1_555
N6_2 C3_2 1_555 1_555
C13_2 C18_2 1_555 1_555
C16_2 C17_2 1_555 1_555
O14 C26_2 1_555 1_555
O15 C26_2 1_555 1_555
C24_2 C23_2 1_555 1_555
H12_2 C24_2 1_555 1_555
C26_2 C23_2 1_555 1_555
O3_2 C11_2 1_555 1_555
H6_2 C8_2 1_555 1_555
Zn4 O3_2 1_555 1_555
O12 C19_3 1_555 1_555
O13 C19_3 1_555 1_555
O9_2 C26_3 1_555 1_555
O10_2 C26_3 1_555 1_555
C24_3 C23_3 1_555 1_555
H12_3 C24_3 1_555 1_555
C26_3 C23_3 1_555 1_555
Zn4 O10_2 1_555 1_555
Zn7_2 O9_2 1_555 1_555
N1_3 C1_3 1_555 1_555
N3_3 C1_3 1_555 1_555
N4_3 H1_3 1_555 1_555
C1_3 N4_3 1_555 1_555
C20_3 N4_3 1_555 1_555
C21_3 C20_3 1_555 1_555
H10_3 C21_3 1_555 1_555
C22_3 C21_3 1_555 1_555
H11_5 C22_3 1_555 1_555
C25_3 C20_3 1_555 1_555
H13_3 C25_3 1_555 1_555
Zn5 O1_3 1_555 1_555
Zn7 O2_3 1_555 1_555
O1_3 C10_3 1_555 1_555
O2_3 C10_3 1_555 1_555
O11 C11_3 1_555 1_555
O5_3 Zn7 1_555 1_555
O6_3 C18_3 1_555 1_555
N2_3 C2_3 1_555 1_555
N5_3 H2_3 1_555 1_555
C3_3 N2_3 1_555 1_555
C4_3 N6_3 1_555 1_555
C5_3 C4_3 1_555 1_555
H4_3 C5_3 1_555 1_555
C6_3 C5_3 1_555 1_555
C7_3 C6_3 1_555 1_555
H5_3 C7_3 1_555 1_555
C8_3 C7_3 1_555 1_555
H6_3 C8_3 1_555 1_555
C9_3 C4_3 1_555 1_555
C10_3 C6_3 1_555 1_555
C11_3 C9_3 1_555 1_555
C12_3 N5_3 1_555 1_555
C18_3 O5_3 1_555 1_555
O14_2 Zn7 1_555 1_555
O15_2 Zn5 1_555 1_555
N5_3 C2_3 1_555 1_555
N6_3 C3_3 1_555 1_555
C8_3 C9_3 1_555 1_555
Zn4 O1_4 1_555 1_555
Zn7_2 O2_4 1_555 1_555
O1_4 C10_4 1_555 1_555
O2_4 C10_4 1_555 1_555
O5_4 Zn7_2 1_555 1_555
O6_4 C18_4 1_555 1_555
N2_4 C2_4 1_555 1_555
N5_4 H2_4 1_555 1_555
C3_4 N2_4 1_555 1_555
C4_4 N6_4 1_555 1_555
C5_4 C4_4 1_555 1_555
H4_4 C5_4 1_555 1_555
C6_4 C5_4 1_555 1_555
C7_4 C6_4 1_555 1_555
C9_4 C4_4 1_555 1_555
C10_4 C6_4 1_555 1_555
C12_4 N5_4 1_555 1_555
C13_3 C12_4 1_555 1_555
C14_3 C13_3 1_555 1_555
H7_3 C14_3 1_555 1_555
C15_3 C14_3 1_555 1_555
H8_3 C15_3 1_555 1_555
C16_3 C15_3 1_555 1_555
C17_3 C12_4 1_555 1_555
C18_4 O5_4 1_555 1_555
N5_4 C2_4 1_555 1_555
N6_4 C3_4 1_555 1_555
C13_3 C18_4 1_555 1_555
C16_3 C17_3 1_555 1_555
O12_2 C19_4 1_555 1_555
O13_2 C19_4 1_555 1_555
O14_2 C26_4 1_555 1_555
O15_2 C26_4 1_555 1_555
N1_4 C1_4 1_555 1_555
N3_4 C1_4 1_555 1_555
N4_4 H1_4 1_555 1_555
C1_4 N4_4 1_555 1_555
C20_4 N4_4 1_555 1_555
C21_4 C20_4 1_555 1_555
H10_4 C21_4 1_555 1_555
C22_4 C21_4 1_555 1_555
H11_6 C22_4 1_555 1_555
C23_4 C22_4 1_555 1_555
C24_4 C23_4 1_555 1_555
H12_4 C24_4 1_555 1_555
C25_4 C20_4 1_555 1_555
H13_4 C25_4 1_555 1_555
C26_4 C23_4 1_555 1_555
C24_4 C25_4 1_555 1_555
O11_2 C11_4 1_555 1_555
H6_4 C8_4 1_555 1_555
C14_4 C13_4 1_555 1_555
H7_4 C14_4 1_555 1_555
C15_4 C14_4 1_555 1_555
H8_4 C15_4 1_555 1_555
C16_4 C15_4 1_555 1_555
C16_4 C17_4 1_555 1_555

#END
