
###############################################################################
#
# This file contains modified crystal structure data generated from the
# MOF subset of the Cambridge Structural Database (CSD) v543 
# hosted by the Cambridge Crystallographic Data Centre (CCDC).
#
# This work is licensed under the Creative Commons
# Attribution-NonCommercial-ShareAlike 4.0 International License.
# To view a copy of this license, visit
# http://creativecommons.org/licenses/by-nc-sa/4.0/
# or send a letter to
# Creative Commons, PO Box 1866, Mountain View, CA 94042, USA.
#
# CIF created using the CSD Python API on 29 September 2022
# The structure has been converted into the P1 space group
# The structure has a 3D framework
# The original CSD entry UREVOE is in the triclinic crystal system
# The framework has been calculated to contain at least 10.0% void space
# The void calculation uses a probe of radius 1.32A, grid spacing 0.4
#
###############################################################################

data_UREVOE
_chemical_formula_moiety         '(C48 H40 N8 O30 Sm4)n'
_symmetry_cell_setting           triclinic
_symmetry_space_group_name_H-M   'P 1'
_symmetry_Int_Tables_number      1
_space_group_name_Hall           'P 1'
loop_
_symmetry_equiv_pos_site_id
_symmetry_equiv_pos_as_xyz
1 x,y,z
_cell_length_a                   8.8475(18)
_cell_length_b                   10.716(2)
_cell_length_c                   18.895(4)
_cell_angle_alpha                75.521(2)
_cell_angle_beta                 83.777(2)
_cell_angle_gamma                69.306(2)
_cell_volume                     1622.23
loop_
_atom_site_label
_atom_site_type_symbol
_atom_site_fract_x
_atom_site_fract_y
_atom_site_fract_z
H19 H 0.2439 0.0427 0.0325
Sm1 Sm 0.00220(5) 0.41200(4) 0.28695(2)
Sm2 Sm 0.39655(5) 0.53203(4) 0.22375(2)
C1 C 0.5260(9) 0.3142(8) 0.4395(4)
H1 H 0.5574 0.2924 0.3943
C2 C 0.3614(10) 0.3714(9) 0.4544(4)
C3 C 0.3120(10) 0.4034(8) 0.5214(4)
H2 H 0.2029 0.4414 0.5329
C4 C 0.4316(10) 0.3770(8) 0.5721(4)
C5 C 0.5915(10) 0.3192(9) 0.5528(5)
H3 H 0.6694 0.2999 0.5870
C6 C 0.2443(10) 0.4001(8) 0.3961(4)
C7 C 0.3857(10) 0.4163(8) 0.6439(4)
H9 H 0.0152 0.0095 0.2492
N1 N 0.6418(9) 0.2887(8) 0.4870(4)
O1 O 0.0946(8) 0.4293(8) 0.4113(4)
O3 O 0.2968(7) 0.3937(6) 0.3315(3)
O4 O 0.2018(9) 0.1726(7) 0.3102(4)
H12 H 0.2692 0.1632 0.3416
H13 H 0.2535 0.1577 0.2708
O5 O 0.2341(7) 0.4605(7) 0.6601(4)
O6 O 0.4947(7) 0.4104(7) 0.6826(3)
O15 O 0.2557(9) 0.6949(8) 0.1153(4)
C22 C 0.2783(18) 0.7297(17) 0.0512(9)
H14 H 0.2973 0.6646 0.0237
N4 N 0.279(3) 0.854(2) 0.0152(13)
C24 C 0.314(3) 0.951(2) 0.0514(14)
H18 H 0.2959 0.9258 0.1033
H20 H 0.4245 0.9458 0.0416
Sm9 Sm 0.60345(5) 0.46797(4) 0.77625(2)
O17 O 0.5053(7) 0.5896(7) 0.3174(3)
O18 O 0.5979(7) 0.6020(7) 0.1504(4)
O19 O 0.4324(7) 0.4107(7) 0.1188(4)
O20 O 0.2198(7) 0.3984(6) 0.1895(3)
O21 O 0.6242(7) 0.3269(6) 0.2565(4)
O22 O 0.2043(7) 0.7592(6) 0.2535(4)
O23 O 0.0627(8) 0.6292(6) 0.2556(4)
C21 C 0.0724(10) 0.7423(8) 0.2540(5)
C10 C 0.7105(10) 0.6154(8) 0.0010(4)
H5 H 0.6205 0.5877 0.0112
C11 C 0.7893(10) 0.6301(9) 0.0569(5)
C12 C 0.9221(11) 0.6763(10) 0.0371(5)
H6 H 0.9756 0.6856 0.0741
C13 C 0.7448(10) 0.5922(8) 0.1360(4)
C15 C 0.6321(11) 0.0723(9) 0.2439(5)
H7 H 0.5342 0.1440 0.2420
C19 C 0.7725(10) 0.1011(8) 0.2475(5)
C20 C 0.7629(10) 0.2441(8) 0.2479(5)
O2 O 0.9163(9) 0.2538(7) 0.3951(4)
H10 H 0.9169 0.2795 0.4341
H11 H 0.9827 0.1726 0.3996
O7 O 0.8515(7) 0.5557(6) 0.1805(3)
O12 O 0.8925(7) 0.2678(6) 0.2413(4)
Sm5 Sm 0.99780(5) 0.58800(4) 0.71305(2)
O16 O 0.7659(7) 0.5395(7) 0.3399(4)
C8 C 0.9005(11) 0.6914(9) 0.9162(5)
H4 H 0.9368 0.7135 0.8682
C9 C 0.7695(10) 0.6431(9) 0.9297(5)
C14 C 0.7008(11) 0.6120(9) 0.8702(5)
N2 N 0.9751(11) 0.7071(9) 0.9693(4)
O9 O 0.5676(7) 0.5893(7) 0.8812(4)
O10 O 0.7802(7) 0.6016(6) 0.8105(3)
C8_2 C 0.0995(11) 0.3086(9) 0.0838(5)
H4_2 H 0.0632 0.2865 0.1318
C9_2 C 0.2305(10) 0.3569(9) 0.0703(5)
C14_2 C 0.2992(11) 0.3880(9) 0.1298(5)
N2_2 N 0.0249(11) 0.2929(9) 0.0307(4)
C10_2 C 0.2895(10) 0.3846(8) 0.9990(4)
H5_2 H 0.3795 0.4123 0.9888
C11_2 C 0.2107(10) 0.3699(9) 0.9431(5)
C12_2 C 0.0779(11) 0.3237(10) 0.9629(5)
H6_2 H 0.0244 0.3144 0.9259
C13_2 C 0.2552(10) 0.4078(8) 0.8640(4)
C15_2 C 0.3679(11) 0.9277(9) 0.7561(5)
H7_2 H 0.4658 0.8560 0.7580
C19_2 C 0.2275(10) 0.8989(8) 0.7525(5)
C20_2 C 0.2371(10) 0.7559(8) 0.7521(5)
O2_2 O 0.0837(9) 0.7462(7) 0.6049(4)
H10_2 H 0.0831 0.7205 0.5659
H11_2 H 0.0173 0.8274 0.6004
O7_2 O 0.1485(7) 0.4443(6) 0.8195(3)
O8 O 0.4021(7) 0.3980(7) 0.8496(4)
O11 O 0.3758(7) 0.6731(6) 0.7435(4)
O12_2 O 0.1075(7) 0.7322(6) 0.7587(4)
C21_2 C 0.9276(10) 0.2577(8) 0.7460(5)
O13 O 0.7957(7) 0.2408(6) 0.7465(4)
O14 O 0.9373(8) 0.3708(6) 0.7444(4)
C1_2 C 0.4740(9) 0.6858(8) 0.5605(4)
H1_2 H 0.4426 0.7076 0.6057
C2_2 C 0.6386(10) 0.6286(9) 0.5456(4)
C3_2 C 0.6880(10) 0.5966(8) 0.4786(4)
H2_2 H 0.7971 0.5586 0.4671
C4_2 C 0.5684(10) 0.6230(8) 0.4279(4)
C5_2 C 0.4085(10) 0.6808(9) 0.4472(5)
H3_2 H 0.3306 0.7001 0.4130
C6_2 C 0.7557(10) 0.5999(8) 0.6039(4)
C7_2 C 0.6143(10) 0.5837(8) 0.3561(4)
H9_2 H 0.9848 0.9905 0.7508
N1_2 N 0.3582(9) 0.7113(8) 0.5130(4)
O1_2 O 0.9054(8) 0.5707(8) 0.5887(4)
O3_2 O 0.7032(7) 0.6063(6) 0.6685(3)
O4_2 O 0.7982(9) 0.8274(7) 0.6898(4)
H12_2 H 0.7308 0.8368 0.6584
H13_2 H 0.7465 0.8423 0.7292
O15_2 O 0.7443(9) 0.3051(8) 0.8847(4)
C22_2 C 0.7217(18) 0.2703(17) 0.9488(9)
H14_2 H 0.7027 0.3354 0.9763
N4_2 N 0.721(3) 0.146(2) 0.9848(13)
C24_2 C 0.686(3) 0.049(2) 0.9486(14)
H18_2 H 0.7041 0.0742 0.8967
H20_2 H 0.5755 0.0542 0.9584
C23 C 0.282(3) 0.877(2) 0.9317(13)
H15 H 0.3918 0.8650 0.9147
H16 H 0.2493 0.8065 0.9222
H17 H 0.2114 0.9650 0.9076
C16 C 0.7728(10) 0.8476(9) 0.2457(5)
H8 H 0.7733 0.7610 0.2449
C17 C 0.9182(10) 0.8644(8) 0.2498(5)
C18 C 0.9181(10) 0.9942(8) 0.2489(5)
N3 N 0.6277(9) 0.9511(8) 0.2429(6)
C16_2 C 0.2272(10) 0.1524(9) 0.7543(5)
H8_2 H 0.2267 0.2390 0.7551
C17_2 C 0.0818(10) 0.1356(8) 0.7502(5)
C18_2 C 0.0819(10) 0.0058(8) 0.7511(5)
N3_2 N 0.3723(9) 0.0489(8) 0.7571(6)
C23_2 C 0.718(3) 0.123(2) 0.0683(13)
H15_2 H 0.6082 0.1350 0.0853
H16_2 H 0.7507 0.1935 0.0778
H17_2 H 0.7886 0.0350 0.0924
H19_2 H 0.7561 0.9573 0.9675
loop_
_geom_bond_atom_site_label_1
_geom_bond_atom_site_label_2
_geom_bond_site_symmetry_1
_geom_bond_site_symmetry_2
Sm1 O1 1_555 1_555
Sm2 O3 1_555 1_555
C1 H1 1_555 1_555
C2 C1 1_555 1_555
C3 C2 1_555 1_555
H2 C3 1_555 1_555
C4 C3 1_555 1_555
C5 C4 1_555 1_555
H3 C5 1_555 1_555
C6 C2 1_555 1_555
C7 C4 1_555 1_555
N1 C1 1_555 1_555
O1 C6 1_555 1_555
O3 Sm1 1_555 1_555
O4 Sm1 1_555 1_555
H12 O4 1_555 1_555
H13 O4 1_555 1_555
O5 C7 1_555 1_555
O6 C7 1_555 1_555
O15 Sm2 1_555 1_555
C22 O15 1_555 1_555
H14 C22 1_555 1_555
N4 C22 1_555 1_555
C24 N4 1_555 1_555
H18 C24 1_555 1_555
H20 C24 1_555 1_555
Sm9 O6 1_555 1_555
O17 Sm2 1_555 1_555
O18 Sm2 1_555 1_555
O19 Sm2 1_555 1_555
O20 Sm1 1_555 1_555
O21 Sm2 1_555 1_555
O22 Sm2 1_555 1_555
O23 Sm1 1_555 1_555
Sm2 O20 1_555 1_555
Sm2 O23 1_555 1_555
C5 N1 1_555 1_555
C6 O3 1_555 1_555
O22 C21 1_555 1_555
O23 C21 1_555 1_555
H5 C10 1_555 1_555
C11 C10 1_555 1_555
C12 C11 1_555 1_555
H6 C12 1_555 1_555
C13 C11 1_555 1_555
C15 H7 1_555 1_555
C19 C15 1_555 1_555
C20 C19 1_555 1_555
H10 O2 1_555 1_555
H11 O2 1_555 1_555
O18 C13 1_555 1_555
O21 C20 1_555 1_555
C13 O7 1_555 1_555
C20 O12 1_555 1_555
C8 H4 1_555 1_555
C9 C8 1_555 1_555
C14 C9 1_555 1_555
N2 C8 1_555 1_555
O9 C14 1_555 1_555
O10 C14 1_555 1_555
Sm5 O10 1_555 1_555
Sm9 O9 1_555 1_555
O10 Sm9 1_555 1_555
C8_2 H4_2 1_555 1_555
C9_2 C8_2 1_555 1_555
C14_2 C9_2 1_555 1_555
N2_2 C8_2 1_555 1_555
O19 C14_2 1_555 1_555
O20 C14_2 1_555 1_555
H5_2 C10_2 1_555 1_555
C11_2 C10_2 1_555 1_555
C12_2 C11_2 1_555 1_555
H6_2 C12_2 1_555 1_555
C13_2 C11_2 1_555 1_555
C15_2 H7_2 1_555 1_555
C19_2 C15_2 1_555 1_555
C20_2 C19_2 1_555 1_555
H10_2 O2_2 1_555 1_555
H11_2 O2_2 1_555 1_555
O8 C13_2 1_555 1_555
O11 C20_2 1_555 1_555
Sm9 O8 1_555 1_555
C13_2 O7_2 1_555 1_555
C20_2 O12_2 1_555 1_555
O11 Sm9 1_555 1_555
O13 C21_2 1_555 1_555
O14 C21_2 1_555 1_555
Sm5 O14 1_555 1_555
Sm9 O13 1_555 1_555
O14 Sm9 1_555 1_555
Sm5 O1_2 1_555 1_555
Sm9 O3_2 1_555 1_555
C1_2 H1_2 1_555 1_555
C2_2 C1_2 1_555 1_555
C3_2 C2_2 1_555 1_555
H2_2 C3_2 1_555 1_555
C4_2 C3_2 1_555 1_555
C5_2 C4_2 1_555 1_555
H3_2 C5_2 1_555 1_555
C6_2 C2_2 1_555 1_555
C7_2 C4_2 1_555 1_555
N1_2 C1_2 1_555 1_555
O1_2 C6_2 1_555 1_555
O3_2 Sm5 1_555 1_555
O4_2 Sm5 1_555 1_555
H12_2 O4_2 1_555 1_555
H13_2 O4_2 1_555 1_555
O16 C7_2 1_555 1_555
O17 C7_2 1_555 1_555
O15_2 Sm9 1_555 1_555
C22_2 O15_2 1_555 1_555
H14_2 C22_2 1_555 1_555
N4_2 C22_2 1_555 1_555
C24_2 N4_2 1_555 1_555
H18_2 C24_2 1_555 1_555
H20_2 C24_2 1_555 1_555
C5_2 N1_2 1_555 1_555
C6_2 O3_2 1_555 1_555
H15 C23 1_555 1_555
H16 C23 1_555 1_555
H17 C23 1_555 1_555
C16 H8 1_555 1_555
C17 C16 1_555 1_555
C18 C17 1_555 1_555
C16 N3 1_555 1_555
C16_2 H8_2 1_555 1_555
C17_2 C16_2 1_555 1_555
C18_2 C17_2 1_555 1_555
C16_2 N3_2 1_555 1_555
H15_2 C23_2 1_555 1_555
H16_2 C23_2 1_555 1_555
H17_2 C23_2 1_555 1_555

#END
