
###############################################################################
#
# This file contains modified crystal structure data generated from the
# MOF subset of the Cambridge Structural Database (CSD) v543 
# hosted by the Cambridge Crystallographic Data Centre (CCDC).
#
# This work is licensed under the Creative Commons
# Attribution-NonCommercial-ShareAlike 4.0 International License.
# To view a copy of this license, visit
# http://creativecommons.org/licenses/by-nc-sa/4.0/
# or send a letter to
# Creative Commons, PO Box 1866, Mountain View, CA 94042, USA.
#
# CIF created using the CSD Python API on 29 September 2022
# The structure has been converted into the P1 space group
# The structure has a 3D framework
# The original CSD entry UROPEY01 is in the monoclinic crystal system
# The framework has been calculated to contain at least 10.0% void space
# The void calculation uses a probe of radius 1.32A, grid spacing 0.4
# H atom positions have been added when not included in the experimental data
#
###############################################################################

data_UROPEY01
_chemical_formula_moiety         '(C120 H168 Ge24 N12 Nd20 O141)n'
_symmetry_cell_setting           triclinic
_symmetry_space_group_name_H-M   'P 1'
_symmetry_Int_Tables_number      1
_space_group_name_Hall           'P 1'
loop_
_symmetry_equiv_pos_site_id
_symmetry_equiv_pos_as_xyz
1 x,y,z
_cell_length_a                   16.425(6)
_cell_length_b                   18.842(6)
_cell_length_c                   19.184(7)
_cell_angle_alpha                90
_cell_angle_beta                 106.542(5)
_cell_angle_gamma                90
_cell_volume                     5691.33
loop_
_atom_site_label
_atom_site_type_symbol
_atom_site_fract_x
_atom_site_fract_y
_atom_site_fract_z
Nd3 Nd 0.54857(2) 0.307779(19) 0.078815(18)
O8 O 0.6496(4) 0.1988(4) 0.0687(3)
O13 O 0.3111(3) 0.4948(2) 0.0165(2)
O17 O 0.4081(3) 0.3526(3) 0.0321(3)
O18 O 0.2533(3) 0.3585(3) 0.0567(3)
O19 O 0.1936(4) 0.3002(3) 0.1306(3)
O22 O 0.4707(4) 0.2098(3) 0.0031(3)
O23 O 0.4383(5) 0.0971(4) 0.0112(4)
C8 C 0.1886(5) 0.2481(5) 0.0149(4)
C9 C 0.2141(4) 0.3054(4) 0.0723(4)
Nd8 Nd 0.25522(2) 0.35078(2) 0.25279(2)
Nd10 Nd 0.38121(2) 0.428778(18) 0.118908(18)
Nd11 Nd 0.32384(2) 0.616306(19) 0.049180(18)
O37 O 0.6662(3) 0.3787(3) 0.0720(2)
O39 O 0.6560(4) 0.2912(3) 0.1953(3)
O41 O 0.8273(3) 0.3915(3) 0.0230(3)
O46 O 0.5267(3) 0.4048(3) 0.1501(3)
O47 O 0.4716(3) 0.2533(3) 0.1672(3)
H3 H 0.653688 0.195542 0.0181427
H4 H 0.707077 0.206481 0.102636
H21 H 0.308274 0.198608 0.0213325
H23 H 0.172118 0.199988 0.0392805
H27 H 0.132081 0.476228 0.0330398
Ge1 Ge 0.26150(4) 0.59138(4) 0.84831(4)
Ge2 Ge 0.22264(4) 0.46544(4) 0.94872(4)
Ge3 Ge 0.32156(4) 0.31690(4) 0.96624(4)
Ge4 Ge 0.47025(4) 0.28844(4) 0.88839(4)
Ge5 Ge 0.50968(5) 0.41235(4) 0.78671(4)
Ge6 Ge 0.40753(4) 0.56223(4) 0.76850(4)
Nd1 Nd 0.30384(2) 0.40754(2) 0.80274(2)
Nd2 Nd 0.74478(2) 0.64922(2) 0.74721(2)
Nd4 Nd 0.61879(2) 0.571222(18) 0.881092(18)
Nd5 Nd 0.67616(2) 0.383694(19) 0.950820(18)
O1 O 0.2132(3) 0.5109(3) 0.8660(2)
O2 O 0.4116(3) 0.4602(3) 0.9135(3)
O3 O 0.3338(3) 0.6213(3) 0.9280(2)
O4 O 0.3040(6) 0.3678(5) 0.6677(5)
O5 O 0.3069(3) 0.5492(3) 0.7851(3)
O6 O 0.1741(5) 0.4487(4) 0.7094(4)
O7 O 0.2868(4) 0.8054(3) 0.7428(3)
O9 O 0.3440(4) 0.7088(3) 0.8047(3)
O10 O 0.9021(4) 0.6197(4) 0.7934(3)
O11 O 0.2531(3) 0.3842(3) 0.9137(2)
O12 O 0.7323(4) 0.2570(3) 0.9660(3)
O14 O 0.1727(3) 0.6085(3) 0.9770(3)
O15 O 0.0459(4) 0.6490(3) 0.9149(3)
O16 O 0.3638(3) 0.3003(3) 0.8913(3)
O20 O 0.4456(3) 0.3442(3) 0.8088(2)
O21 O 0.5476(3) 0.3304(3) 0.9574(2)
O24 O 0.5749(3) 0.4536(3) 0.8638(2)
O25 O 0.4158(3) 0.4683(3) 0.7583(3)
O26 O 0.6193(3) 0.3211(3) 0.8312(3)
O27 O 0.6980(4) 0.2564(3) 0.7788(3)
O28 O 0.4733(3) 0.5952(3) 0.8499(3)
O29 O 0.6072(3) 0.5995(3) 0.6661(3)
O30 O 0.5487(3) 0.5544(3) 0.7470(2)
O31 O 0.7710(4) 0.6425(3) 0.6279(3)
O32 O 0.8052(5) 0.5857(4) 0.5384(4)
O33 O 0.7327(3) 0.5445(3) 0.8242(3)
O34 O 0.6295(3) 0.6788(3) 0.8093(3)
O35 O 0.5284(3) 0.7467(3) 0.8328(3)
O36 O 0.7538(3) 0.4300(3) 0.8557(3)
C1 C 0.1752(6) 0.6581(5) 0.8008(5)
C2 C 0.1968(9) 0.7094(8) 0.7468(8)
C3 C 0.2812(6) 0.7453(5) 0.7710(5)
C4 C 0.1179(5) 0.4668(4) 0.9748(4)
C5 C 0.0579(5) 0.5247(5) 0.9344(5)
C6 C 0.0953(5) 0.6001(4) 0.9428(4)
C7 C 0.2629(6) 0.2325(4) 0.9833(4)
C10 C 0.4999(5) 0.1931(4) 0.8664(5)
C11 C 0.4570(7) 0.1343(5) 0.9001(5)
C12 C 0.4564(6) 0.1485(5) 0.9769(4)
C13 C 0.5448(5) 0.3905(4) 0.7004(4)
C14 C 0.5740(6) 0.3129(5) 0.7021(4)
C15 C 0.6352(5) 0.2951(4) 0.7758(4)
C16 C 0.3916(5) 0.6133(4) 0.6784(4)
C17 C 0.4544(6) 0.5940(6) 0.6355(4)
C18 C 0.5438(5) 0.5827(4) 0.6868(4)
C19 C 0.5737(4) 0.7276(4) 0.7938(4)
C20 C 0.5629(5) 0.7635(4) 0.7226(4)
C21 C 0.4916(6) 0.8045(5) 0.6908(5)
C22 C 0.5431(7) 0.8225(7) 0.5934(6)
C23 C 0.6146(6) 0.7826(6) 0.6257(5)
C24 C 0.7876(6) 0.5872(5) 0.5976(4)
C25 C 0.7891(6) 0.5180(4) 0.6379(4)
C26 C 0.8043(6) 0.4522(5) 0.6110(5)
C27 C 0.8021(7) 0.3918(5) 0.6533(5)
C28 C 0.7866(6) 0.3993(5) 0.7207(5)
C29 C 0.7735(5) 0.4670(4) 0.7438(4)
C30 C 0.7522(4) 0.4808(4) 0.8137(4)
N1 N 0.4811(6) 0.8331(6) 0.6242(5)
N2 N 0.6228(4) 0.7501(4) 0.6897(4)
N3 N 0.7747(4) 0.5248(3) 0.7039(3)
Nd6 Nd 0.19616(2) 0.90754(2) 0.69726(2)
Nd7 Nd 0.75522(2) 0.14922(2) 0.75279(2)
Nd9 Nd 0.45143(2) 0.692221(19) 0.921185(18)
O38 O 0.2132(4) 0.3054(3) 0.7572(3)
O40 O 0.6889(3) 0.5052(2) 0.9835(2)
O42 O 0.5919(3) 0.6474(3) 0.9679(3)
O43 O 0.7467(3) 0.6415(3) 0.9433(3)
O44 O 0.8064(4) 0.6998(3) 0.8694(3)
O45 O 0.8020(4) 0.7564(3) 0.7212(3)
H1 H 0.393273 0.450618 0.957658
H2 H 0.468065 0.438261 0.919063
H5 H 0.319232 0.409073 0.641752
H6 H 0.346194 0.329283 0.670991
H7 H 0.925981 0.61512 0.751526
H8 H 0.93216 0.658211 0.826025
H9 H 0.698398 0.227378 0.925199
H10 H 0.792739 0.256787 0.965948
H11 H 0.177298 0.500819 0.702965
H12 H 0.169937 0.424533 0.662514
H13 H 0.60573 0.304846 0.660019
H14 H 0.51886 0.278174 0.691977
H15 H 0.597056 0.425286 0.698456
H16 H 0.491483 0.399029 0.652228
H17 H 0.148243 0.750551 0.734253
H18 H 0.194519 0.679594 0.697645
H19 H 0.0022437 0.524965 0.954533
H20 H 0.0388302 0.511438 0.876763
H22 H 0.238172 0.204732 0.931811
H24 H 0.133926 0.265953 0.97155
H25 H 0.568487 0.186947 0.887249
H26 H 0.480623 0.186369 0.807586
H28 H 0.0867377 0.415525 0.961543
H29 H 0.159928 0.689789 0.842865
H30 H 0.119466 0.627903 0.771393
H31 H 0.490835 0.0847397 0.899305
H32 H 0.391497 0.128833 0.866718
H33 H 0.456132 0.636886 0.597894
H34 H 0.433337 0.545357 0.605047
H35 H 0.81751 0.447715 0.558674
H36 H 0.664652 0.777483 0.599048
H37 H 0.812451 0.339344 0.633556
H38 H 0.444172 0.813577 0.719583
H39 H 0.784822 0.353133 0.754386
H40 H 0.537337 0.846256 0.540463
H41 H 0.398091 0.669763 0.690872
H42 H 0.327635 0.602472 0.644015
Ge1_2 Ge 0.23850(4) 0.09138(4) 0.65169(4)
Ge6_2 Ge 0.09247(4) 0.06223(4) 0.73150(4)
O1_2 O 0.2868(3) 0.0109(3) 0.6340(2)
O3_2 O 0.1662(3) 0.1213(3) 0.5720(2)
O5_2 O 0.1931(3) 0.0492(3) 0.7149(3)
O9_2 O 0.1560(4) 0.2088(3) 0.6953(3)
O14_2 O 0.3273(3) 0.1085(3) 0.5230(3)
O15_2 O 0.4541(4) 0.1490(3) 0.5851(3)
O28_2 O 0.0267(3) 0.0952(3) 0.6501(3)
C1_2 C 0.3248(6) 0.1581(5) 0.6992(5)
C2_2 C 0.3032(9) 0.2094(8) 0.7532(8)
C3_2 C 0.2188(6) 0.2453(5) 0.7290(5)
C5_2 C 0.4421(5) 0.0247(5) 0.5656(5)
C6_2 C 0.4047(5) 0.1001(4) 0.5572(4)
C16_2 C 0.1084(5) 0.1133(4) 0.8216(4)
C17_2 C 0.0456(6) 0.0940(6) 0.8645(4)
C21_2 C 0.0084(6) 0.3045(5) 0.8092(5)
N1_2 N 0.0189(6) 0.3331(6) 0.8758(5)
Nd9_2 Nd 0.04857(2) 0.192221(19) 0.578815(18)
Nd11_2 Nd 0.17616(2) 0.116306(19) 0.450820(18)
H11_2 H 0.322702 0.000818555 0.797035
H17_2 H 0.351757 0.250551 0.765747
H18_2 H 0.305481 0.179594 0.802355
H19_2 H 0.497756 0.0249646 0.545467
H20_2 H 0.46117 0.0114375 0.623237
H29_2 H 0.340072 0.189789 0.657135
H30_2 H 0.380534 0.127903 0.728607
H33_2 H 0.0438682 0.136886 0.902106
H34_2 H 0.0666628 0.0453574 0.894953
H38_2 H 0.0558281 0.313577 0.780417
H41_2 H 0.101909 0.169763 0.809128
H42_2 H 0.172365 0.102472 0.855985
Ge2_2 Ge 0.27736(4) 0.96544(4) 0.55128(4)
Ge3_2 Ge 0.17844(4) 0.81690(4) 0.53376(4)
Ge4_2 Ge 0.02975(4) 0.78844(4) 0.61161(4)
O2_2 O 0.0884(3) 0.9602(3) 0.5865(3)
O4_2 O 0.1960(6) 0.8678(5) 0.8323(5)
O6_2 O 0.3259(5) 0.9487(4) 0.7906(4)
O11_2 O 0.2469(3) 0.8842(3) 0.5863(2)
O13_2 O 0.1889(3) 0.9948(2) 0.4835(2)
O16_2 O 0.1362(3) 0.8003(3) 0.6087(3)
O17_2 O 0.0919(3) 0.8526(3) 0.4679(3)
O18_2 O 0.2467(3) 0.8585(3) 0.4433(3)
O19_2 O 0.3064(4) 0.8002(3) 0.3694(3)
O20_2 O 0.0544(3) 0.8442(3) 0.6912(2)
O22_2 O 0.0293(4) 0.7098(3) 0.4969(3)
O23_2 O 0.0617(5) 0.5971(4) 0.4888(4)
O25_2 O 0.0842(3) 0.9683(3) 0.7417(3)
C4_2 C 0.3821(5) 0.9668(4) 0.5252(4)
C7_2 C 0.2371(6) 0.7325(4) 0.5167(4)
C8_2 C 0.3114(5) 0.7481(5) 0.4851(4)
C9_2 C 0.2859(4) 0.8054(4) 0.4277(4)
C10_2 C 0.0001(5) 0.6931(4) 0.6336(5)
C11_2 C 0.0430(7) 0.6343(5) 0.5999(5)
C12_2 C 0.0436(6) 0.6485(5) 0.5231(4)
Nd8_2 Nd 0.24478(2) 0.85078(2) 0.24721(2)
Nd10_2 Nd 0.11879(2) 0.928778(18) 0.381092(18)
O47_2 O 0.0284(3) 0.7533(3) 0.3328(3)
H1_2 H 0.106727 0.950618 0.542342
H2_2 H 0.0319349 0.938261 0.580937
H5_2 H 0.180768 0.909073 0.858248
H6_2 H 0.153806 0.829283 0.829009
H12_2 H 0.330063 0.924533 0.837486
H16_2 H 0.0085169 0.899029 0.847772
H21_2 H 0.191726 0.698608 0.478668
H22_2 H 0.261828 0.704732 0.568189
H23_2 H 0.327882 0.699988 0.460719
H24_2 H 0.366074 0.765953 0.52845
H26_2 H 0.019377 0.686369 0.692414
H27_2 H 0.367919 0.976228 0.46696
H28_2 H 0.413262 0.915525 0.538457
H31_2 H 0.00916467 0.58474 0.600695
H32_2 H 0.108503 0.628833 0.633282
Nd4_2 Nd 0.88121(2) 0.071222(18) 0.618908(18)
O10_2 O 0.5979(4) 0.1197(4) 0.7066(3)
O29_2 O 0.8928(3) 0.0995(3) 0.8339(3)
O30_2 O 0.9513(3) 0.0544(3) 0.7530(2)
O31_2 O 0.7290(4) 0.1425(3) 0.8721(3)
O32_2 O 0.6948(5) 0.0857(4) 0.9616(4)
O33_2 O 0.7673(3) 0.0445(3) 0.6758(3)
O34_2 O 0.8705(3) 0.1788(3) 0.6907(3)
O35_2 O 0.9716(3) 0.2467(3) 0.6672(3)
C18_2 C 0.9562(5) 0.0827(4) 0.8132(4)
C19_2 C 0.9263(4) 0.2276(4) 0.7062(4)
C20_2 C 0.9371(5) 0.2635(4) 0.7774(4)
C22_2 C 0.9569(7) 0.3225(7) 0.9066(6)
C23_2 C 0.8854(6) 0.2826(6) 0.8743(5)
C24_2 C 0.7124(6) 0.0872(5) 0.9024(4)
C25_2 C 0.7109(6) 0.0180(4) 0.8621(4)
N2_2 N 0.8772(4) 0.2501(4) 0.8103(4)
N3_2 N 0.7253(4) 0.0248(3) 0.7961(3)
O40_2 O 0.8111(3) 0.0052(2) 0.5165(2)
O42_2 O 0.9081(3) 0.1474(3) 0.5321(3)
O43_2 O 0.7533(3) 0.1415(3) 0.5567(3)
O44_2 O 0.6936(4) 0.1998(3) 0.6306(3)
H7_2 H 0.574019 0.11512 0.748474
H8_2 H 0.56784 0.158211 0.673975
H36_2 H 0.835348 0.277483 0.900952
H40_2 H 0.962663 0.346256 0.959537
Ge5_2 Ge 0.99032(5) 0.91235(4) 0.71329(4)
Nd3_2 Nd 0.95143(2) 0.807779(19) 0.421185(18)
Nd5_2 Nd 0.82384(2) 0.883694(19) 0.549180(18)
O8_2 O 0.8504(4) 0.6988(4) 0.4313(3)
O12_2 O 0.7677(4) 0.7570(3) 0.5340(3)
O21_2 O 0.9524(3) 0.8304(3) 0.5426(2)
O24_2 O 0.9251(3) 0.9536(3) 0.6362(2)
O26_2 O 0.8807(3) 0.8211(3) 0.6688(3)
O36_2 O 0.7462(3) 0.9300(3) 0.6443(3)
C13_2 C 0.9552(5) 0.8905(4) 0.7996(4)
C14_2 C 0.9260(6) 0.8129(5) 0.7979(4)
C15_2 C 0.8648(5) 0.7951(4) 0.7242(4)
C26_2 C 0.6957(6) 0.9522(5) 0.8890(5)
C27_2 C 0.6979(7) 0.8918(5) 0.8467(5)
C28_2 C 0.7134(6) 0.8993(5) 0.7793(5)
C29_2 C 0.7265(5) 0.9670(4) 0.7562(4)
C30_2 C 0.7478(4) 0.9808(4) 0.6863(4)
O37_2 O 0.8338(3) 0.8787(3) 0.4280(2)
O39_2 O 0.8440(4) 0.7912(3) 0.3047(3)
O41_2 O 0.6727(3) 0.8915(3) 0.4770(3)
O46_2 O 0.9733(3) 0.9048(3) 0.3499(3)
H3_2 H 0.846312 0.695542 0.481857
H4_2 H 0.792923 0.706481 0.397364
H9_2 H 0.801602 0.727378 0.574801
H10_2 H 0.707261 0.756787 0.534052
H13_2 H 0.89427 0.804846 0.839981
H14_2 H 0.98114 0.778174 0.808023
H15_2 H 0.902944 0.925286 0.801544
H25_2 H 0.931513 0.686947 0.612751
H35_2 H 0.68249 0.947715 0.941326
H37_2 H 0.687549 0.839344 0.866444
H39_2 H 0.715178 0.853133 0.745614
Ge1_3 Ge 0.73850(4) 0.40862(4) 0.15169(4)
Ge2_3 Ge 0.77736(4) 0.53456(4) 0.05128(4)
Ge3_3 Ge 0.67844(4) 0.68310(4) 0.03376(4)
Ge4_3 Ge 0.52975(4) 0.71156(4) 0.11161(4)
Ge5_3 Ge 0.49032(5) 0.58765(4) 0.21329(4)
Ge6_3 Ge 0.59247(4) 0.43777(4) 0.23150(4)
Nd1_2 Nd 0.69616(2) 0.59246(2) 0.19726(2)
O1_3 O 0.7868(3) 0.4891(3) 0.1340(2)
O2_3 O 0.5884(3) 0.5398(3) 0.0865(3)
O4_3 O 0.6960(6) 0.6322(5) 0.3323(5)
O5_3 O 0.6931(3) 0.4508(3) 0.2149(3)
O6_3 O 0.8259(5) 0.5513(4) 0.2906(4)
O7_2 O 0.7132(4) 0.1946(3) 0.2572(3)
O10_3 O 0.0979(4) 0.3803(4) 0.2066(3)
O11_3 O 0.7469(3) 0.6158(3) 0.0863(2)
O12_3 O 0.2677(4) 0.7430(3) 0.0340(3)
O15_3 O 0.9541(4) 0.3510(3) 0.0851(3)
O16_3 O 0.6362(3) 0.6997(3) 0.1087(3)
O20_3 O 0.5544(3) 0.6558(3) 0.1912(2)
O21_3 O 0.4524(3) 0.6696(3) 0.0426(2)
O24_3 O 0.4251(3) 0.5464(3) 0.1362(2)
O25_3 O 0.5842(3) 0.5317(3) 0.2417(3)
O26_3 O 0.3807(3) 0.6789(3) 0.1688(3)
O27_2 O 0.3020(4) 0.7436(3) 0.2212(3)
O29_3 O 0.3928(3) 0.4005(3) 0.3339(3)
O30_3 O 0.4513(3) 0.4456(3) 0.2530(2)
O31_3 O 0.2290(4) 0.3575(3) 0.3721(3)
O32_3 O 0.1948(5) 0.4143(4) 0.4616(4)
O33_3 O 0.2673(3) 0.4555(3) 0.1758(3)
O34_3 O 0.3705(3) 0.3212(3) 0.1907(3)
O36_3 O 0.2462(3) 0.5700(3) 0.1443(3)
C1_3 C 0.8248(6) 0.3419(5) 0.1992(5)
C2_3 C 0.8032(9) 0.2906(8) 0.2532(8)
C3_3 C 0.7188(6) 0.2547(5) 0.2290(5)
C4_3 C 0.8821(5) 0.5332(4) 0.0252(4)
C5_3 C 0.9421(5) 0.4753(5) 0.0656(5)
C6_3 C 0.9047(5) 0.3999(4) 0.0572(4)
C7_3 C 0.7371(6) 0.7675(4) 0.0167(4)
C10_3 C 0.5001(5) 0.8069(4) 0.1336(5)
C11_3 C 0.5430(7) 0.8657(5) 0.0999(5)
C12_3 C 0.5436(6) 0.8515(5) 0.0231(4)
C13_3 C 0.4552(5) 0.6095(4) 0.2996(4)
C14_3 C 0.4260(6) 0.6871(5) 0.2979(4)
C15_3 C 0.3648(5) 0.7049(4) 0.2242(4)
C16_3 C 0.6084(5) 0.3867(4) 0.3216(4)
C17_3 C 0.5456(6) 0.4060(6) 0.3645(4)
C18_3 C 0.4562(5) 0.4173(4) 0.3132(4)
C19_3 C 0.4263(4) 0.2724(4) 0.2062(4)
C20_3 C 0.4371(5) 0.2365(4) 0.2774(4)
C21_3 C 0.5084(6) 0.1955(5) 0.3092(5)
C22_3 C 0.4569(7) 0.1775(7) 0.4066(6)
C23_3 C 0.3854(6) 0.2174(6) 0.3743(5)
C24_3 C 0.2124(6) 0.4128(5) 0.4024(4)
C25_3 C 0.2109(6) 0.4820(4) 0.3621(4)
C26_3 C 0.1957(6) 0.5478(5) 0.3890(5)
C27_3 C 0.1979(7) 0.6082(5) 0.3467(5)
C28_3 C 0.2134(6) 0.6007(5) 0.2793(5)
C29_3 C 0.2265(5) 0.5330(4) 0.2562(4)
C30_3 C 0.2478(4) 0.5192(4) 0.1863(4)
N1_3 N 0.5189(6) 0.1669(6) 0.3758(5)
N2_3 N 0.3772(4) 0.2499(4) 0.3103(4)
N3_3 N 0.2253(4) 0.4752(3) 0.2961(3)
Nd6_2 Nd 0.80384(2) 0.09246(2) 0.30274(2)
O38_2 O 0.7868(4) 0.6946(3) 0.2428(3)
O45_2 O 0.1980(4) 0.2436(3) 0.2788(3)
H1_3 H 0.606727 0.549382 0.0423418
H2_3 H 0.531935 0.561739 0.080937
H5_3 H 0.680768 0.590927 0.358248
H6_3 H 0.653806 0.670717 0.329009
H7_3 H 0.0740186 0.38488 0.248474
H8_3 H 0.0678395 0.341789 0.173975
H9_3 H 0.301602 0.772622 0.0748008
H10_3 H 0.207261 0.743213 0.0340516
H11_3 H 0.822702 0.499181 0.297035
H12_3 H 0.830063 0.575467 0.337486
H13_3 H 0.39427 0.695154 0.339981
H14_3 H 0.48114 0.721826 0.308023
H15_3 H 0.402944 0.574714 0.301544
H16_3 H 0.508517 0.600971 0.347772
H17_3 H 0.851757 0.249449 0.265747
H18_3 H 0.805481 0.320406 0.302355
H19_3 H 0.997756 0.475035 0.0454675
H20_3 H 0.96117 0.488562 0.123237
H22_3 H 0.761828 0.795268 0.0681888
H24_3 H 0.866074 0.734047 0.0284497
H25_3 H 0.431513 0.813053 0.112751
H26_3 H 0.519377 0.813631 0.192414
H28_3 H 0.913262 0.584475 0.0384565
H29_3 H 0.840072 0.310211 0.157135
H30_3 H 0.880534 0.372097 0.228607
H31_3 H 0.509165 0.91526 0.100695
H32_3 H 0.608503 0.871167 0.133282
H33_3 H 0.543868 0.363114 0.402106
H34_3 H 0.566663 0.454643 0.394953
H35_3 H 0.18249 0.552285 0.441326
H36_3 H 0.335348 0.222517 0.400952
H37_3 H 0.187549 0.660656 0.366444
H38_3 H 0.555828 0.186423 0.280417
H39_3 H 0.215178 0.646867 0.245614
H40_3 H 0.462663 0.153744 0.459537
H41_3 H 0.601909 0.330237 0.309128
H42_3 H 0.672365 0.397528 0.355985
O8_3 O 0.3504(4) 0.8012(4) 0.9313(3)
O22_3 O 0.5293(4) 0.7902(3) 0.9969(3)
O23_3 O 0.5617(5) 0.9029(4) 0.9888(4)
C8_3 C 0.8114(5) 0.7519(5) 0.9851(4)
C9_3 C 0.7859(4) 0.6946(4) 0.9277(4)
H3_3 H 0.346312 0.804458 0.981857
H4_3 H 0.292923 0.793519 0.897364
H21_3 H 0.691726 0.801392 0.978668
H23_3 H 0.827882 0.800012 0.960719
H27_3 H 0.867919 0.523772 0.96696
Ge5_4 Ge 0.00968(5) 0.08765(4) 0.28671(4)
O8_4 O 0.1496(4) 0.3012(4) 0.5687(3)
O12_4 O 0.2323(4) 0.2430(3) 0.4660(3)
O21_4 O 0.0476(3) 0.1696(3) 0.4574(2)
O24_4 O 0.0749(3) 0.0464(3) 0.3638(2)
O26_4 O 0.1193(3) 0.1789(3) 0.3312(3)
O36_4 O 0.2538(3) 0.0700(3) 0.3557(3)
C13_4 C 0.0448(5) 0.1095(4) 0.2004(4)
C14_4 C 0.0740(6) 0.1871(5) 0.2021(4)
C15_4 C 0.1352(5) 0.2049(4) 0.2758(4)
C26_4 C 0.3043(6) 0.0478(5) 0.1110(5)
C27_4 C 0.3021(7) 0.1082(5) 0.1533(5)
C28_4 C 0.2866(6) 0.1007(5) 0.2207(5)
C29_4 C 0.2735(5) 0.0330(4) 0.2438(4)
C30_4 C 0.2522(4) 0.0192(4) 0.3137(4)
H3_4 H 0.153688 0.304458 0.518143
H4_4 H 0.207077 0.293519 0.602636
H9_4 H 0.198398 0.272622 0.425199
H10_4 H 0.292739 0.243213 0.465948
H13_4 H 0.10573 0.195154 0.160019
H14_4 H 0.01886 0.221826 0.191977
H15_4 H 0.0970562 0.0747136 0.198456
H25_4 H 0.0684867 0.313053 0.387249
H35_4 H 0.31751 0.0522848 0.0586737
H37_4 H 0.312451 0.160656 0.133556
H39_4 H 0.284822 0.146867 0.254386
O10_4 O 0.4021(4) 0.8803(4) 0.2934(3)
O29_4 O 0.1072(3) 0.9005(3) 0.1661(3)
O30_4 O 0.0487(3) 0.9456(3) 0.2470(2)
O31_4 O 0.2710(4) 0.8575(3) 0.1279(3)
O32_4 O 0.3052(5) 0.9143(4) 0.0384(4)
O33_4 O 0.2327(3) 0.9555(3) 0.3242(3)
O34_4 O 0.1295(3) 0.8212(3) 0.3093(3)
C18_4 C 0.0438(5) 0.9173(4) 0.1868(4)
C19_4 C 0.0737(4) 0.7724(4) 0.2938(4)
C20_4 C 0.0629(5) 0.7365(4) 0.2226(4)
C22_4 C 0.0431(7) 0.6775(7) 0.0934(6)
C23_4 C 0.1146(6) 0.7174(6) 0.1257(5)
C24_4 C 0.2876(6) 0.9128(5) 0.0976(4)
C25_4 C 0.2891(6) 0.9820(4) 0.1379(4)
N2_4 N 0.1228(4) 0.7499(4) 0.1897(4)
N3_4 N 0.2747(4) 0.9752(3) 0.2039(3)
H7_4 H 0.425981 0.88488 0.251526
H8_4 H 0.43216 0.841789 0.326025
H36_4 H 0.164652 0.722517 0.0990482
H40_4 H 0.0373373 0.653744 0.0404627
Ge2_4 Ge 0.72264(4) 0.03456(4) 0.44872(4)
Ge3_4 Ge 0.82156(4) 0.18310(4) 0.46624(4)
Ge4_4 Ge 0.97025(4) 0.21156(4) 0.38839(4)
O2_4 O 0.9116(3) 0.0398(3) 0.4135(3)
O4_4 O 0.8040(6) 0.1322(5) 0.1677(5)
O6_4 O 0.6741(5) 0.0513(4) 0.2094(4)
O11_4 O 0.7531(3) 0.1158(3) 0.4137(2)
O16_4 O 0.8638(3) 0.1997(3) 0.3913(3)
O20_4 O 0.9456(3) 0.1558(3) 0.3088(2)
O22_4 O 0.9707(4) 0.2902(3) 0.5031(3)
O23_4 O 0.9383(5) 0.4029(4) 0.5112(4)
O25_4 O 0.9158(3) 0.0317(3) 0.2583(3)
C4_4 C 0.6179(5) 0.0332(4) 0.4748(4)
C7_4 C 0.7629(6) 0.2675(4) 0.4833(4)
C8_4 C 0.6886(5) 0.2519(5) 0.5149(4)
C9_4 C 0.7141(4) 0.1946(4) 0.5723(4)
C10_4 C 0.9999(5) 0.3069(4) 0.3664(5)
C11_4 C 0.9570(7) 0.3657(5) 0.4001(5)
C12_4 C 0.9564(6) 0.3515(5) 0.4769(4)
H1_4 H 0.893273 0.0493822 0.457658
H2_4 H 0.968065 0.0617389 0.419063
H5_4 H 0.819232 0.0909274 0.141752
H6_4 H 0.846194 0.170717 0.170991
H12_4 H 0.669937 0.0754675 0.162514
H16_4 H 0.991483 0.100971 0.152228
H21_4 H 0.808274 0.301392 0.521332
H22_4 H 0.738172 0.295268 0.431811
H23_4 H 0.672118 0.300012 0.539281
H24_4 H 0.633926 0.234047 0.47155
H26_4 H 0.980623 0.313631 0.307586
H27_4 H 0.632081 0.0237715 0.53304
H28_4 H 0.586738 0.0844748 0.461543
H31_4 H 0.990835 0.41526 0.399305
H32_4 H 0.891497 0.371167 0.366718
Ge1_4 Ge 0.76150(4) 0.90862(4) 0.34831(4)
Ge6_4 Ge 0.90753(4) 0.93777(4) 0.26850(4)
O1_4 O 0.7132(3) 0.9891(3) 0.3660(2)
O5_4 O 0.8069(3) 0.9508(3) 0.2851(3)
O15_4 O 0.5459(4) 0.8510(3) 0.4149(3)
C1_4 C 0.6752(6) 0.8419(5) 0.3008(5)
C2_4 C 0.6968(9) 0.7906(8) 0.2468(8)
C3_4 C 0.7812(6) 0.7547(5) 0.2710(5)
C5_4 C 0.5579(5) 0.9753(5) 0.4344(5)
C6_4 C 0.5953(5) 0.8999(4) 0.4428(4)
C16_4 C 0.8916(5) 0.8867(4) 0.1784(4)
C17_4 C 0.9544(6) 0.9060(6) 0.1355(4)
C21_4 C 0.9916(6) 0.6955(5) 0.1908(5)
N1_4 N 0.9811(6) 0.6669(6) 0.1242(5)
H11_4 H 0.677298 0.999181 0.202965
H17_4 H 0.648243 0.749449 0.234253
H18_4 H 0.694519 0.820406 0.197645
H19_4 H 0.502244 0.975035 0.454533
H20_4 H 0.53883 0.988562 0.376763
H29_4 H 0.659928 0.810211 0.342865
H30_4 H 0.619466 0.872097 0.271393
H33_4 H 0.956132 0.863114 0.0978941
H34_4 H 0.933337 0.954643 0.105047
H38_4 H 0.944172 0.686423 0.219583
H41_4 H 0.898091 0.830237 0.190872
H42_4 H 0.827635 0.897528 0.144015
loop_
_geom_bond_atom_site_label_1
_geom_bond_atom_site_label_2
_geom_bond_site_symmetry_1
_geom_bond_site_symmetry_2
Nd3 O8 1_555 1_555
O18 C9 1_555 1_555
O19 C9 1_555 1_555
O22 Nd3 1_555 1_555
C9 C8 1_555 1_555
Nd8 O19 1_555 1_555
Nd10 O13 1_555 1_555
O37 Nd3 1_555 1_555
O39 Nd3 1_555 1_555
O46 Nd3 1_555 1_555
O47 Nd3 1_555 1_555
Nd3 O17 1_555 1_555
O13 Nd11 1_555 1_555
O17 Nd10 1_555 1_555
O18 Nd10 1_555 1_555
Nd10 O46 1_555 1_555
O8 H3 1_555 1_555
O8 H4 1_555 1_555
C8 H23 1_555 1_555
Ge1 O1 1_555 1_555
Ge2 O1 1_555 1_555
Ge3 O11 1_555 1_555
Ge4 O16 1_555 1_555
Ge5 O20 1_555 1_555
Ge6 O5 1_555 1_555
Nd1 O1 1_555 1_555
Nd2 O10 1_555 1_555
Nd4 O24 1_555 1_555
Nd5 O12 1_555 1_555
O2 Nd1 1_555 1_555
O3 Ge1 1_555 1_555
O4 Nd1 1_555 1_555
O5 Ge1 1_555 1_555
O6 Nd1 1_555 1_555
O7 C3 1_555 1_555
O9 C3 1_555 1_555
O11 Ge2 1_555 1_555
O14 C6 1_555 1_555
O15 C6 1_555 1_555
O16 Ge3 1_555 1_555
O20 Ge4 1_555 1_555
O21 Ge4 1_555 1_555
O24 Ge5 1_555 1_555
O25 Ge5 1_555 1_555
O26 Nd5 1_555 1_555
O27 C15 1_555 1_555
O28 Ge6 1_555 1_555
O29 Nd2 1_555 1_555
O30 Nd4 1_555 1_555
O31 Nd2 1_555 1_555
O32 C24 1_555 1_555
O33 Nd2 1_555 1_555
O34 Nd2 1_555 1_555
O35 C19 1_555 1_555
O36 Nd5 1_555 1_555
C1 Ge1 1_555 1_555
C2 C1 1_555 1_555
C3 C2 1_555 1_555
C4 Ge2 1_555 1_555
C5 C4 1_555 1_555
C6 C5 1_555 1_555
C7 Ge3 1_555 1_555
C10 Ge4 1_555 1_555
C11 C10 1_555 1_555
C13 Ge5 1_555 1_555
C14 C13 1_555 1_555
C15 O26 1_555 1_555
C16 Ge6 1_555 1_555
C17 C16 1_555 1_555
C18 O29 1_555 1_555
C19 O34 1_555 1_555
C20 C19 1_555 1_555
C21 C20 1_555 1_555
C22 C23 1_555 1_555
C23 N2 1_555 1_555
C24 O31 1_555 1_555
C25 C24 1_555 1_555
C26 C25 1_555 1_555
C27 C26 1_555 1_555
C28 C27 1_555 1_555
C29 C28 1_555 1_555
C30 O33 1_555 1_555
N1 C21 1_555 1_555
N2 Nd2 1_555 1_555
N3 Nd2 1_555 1_555
Nd6 O7 1_555 1_555
Nd7 O27 1_555 1_555
Nd9 O3 1_555 1_555
O38 Nd1 1_555 1_555
O40 Nd4 1_555 1_555
O42 Nd4 1_555 1_555
O43 Nd4 1_555 1_555
O44 Nd2 1_555 1_555
O45 Nd2 1_555 1_555
Ge6 O25 1_555 1_555
Nd1 O5 1_555 1_555
Nd1 O11 1_555 1_555
Nd1 O16 1_555 1_555
Nd1 O20 1_555 1_555
Nd1 O25 1_555 1_555
Nd4 O28 1_555 1_555
Nd4 O33 1_555 1_555
Nd4 O34 1_555 1_555
Nd5 O21 1_555 1_555
Nd5 O24 1_555 1_555
Nd5 O40 1_555 1_555
O9 Nd9 1_555 1_555
O28 Nd9 1_555 1_555
O30 C18 1_555 1_555
O35 Nd9 1_555 1_555
O36 C30 1_555 1_555
C11 C12 1_555 1_555
C14 C15 1_555 1_555
C17 C18 1_555 1_555
C20 N2 1_555 1_555
C22 N1 1_555 1_555
C25 N3 1_555 1_555
C29 C30 1_555 1_555
C29 N3 1_555 1_555
Nd9 O42 1_555 1_555
O2 H1 1_555 1_555
O2 H2 1_555 1_555
O4 H5 1_555 1_555
O4 H6 1_555 1_555
O10 H7 1_555 1_555
O10 H8 1_555 1_555
O12 H9 1_555 1_555
O12 H10 1_555 1_555
O6 H11 1_555 1_555
O6 H12 1_555 1_555
C14 H13 1_555 1_555
C14 H14 1_555 1_555
C13 H15 1_555 1_555
C13 H16 1_555 1_555
C2 H17 1_555 1_555
C2 H18 1_555 1_555
C5 H19 1_555 1_555
C5 H20 1_555 1_555
C7 H22 1_555 1_555
C10 H25 1_555 1_555
C10 H26 1_555 1_555
C4 H28 1_555 1_555
C1 H29 1_555 1_555
C1 H30 1_555 1_555
C11 H31 1_555 1_555
C11 H32 1_555 1_555
C17 H33 1_555 1_555
C17 H34 1_555 1_555
C26 H35 1_555 1_555
C23 H36 1_555 1_555
C27 H37 1_555 1_555
C21 H38 1_555 1_555
C28 H39 1_555 1_555
C22 H40 1_555 1_555
C16 H41 1_555 1_555
C16 H42 1_555 1_555
Ge1_2 O1_2 1_555 1_555
Ge6_2 O5_2 1_555 1_555
O3_2 Ge1_2 1_555 1_555
O5_2 Ge1_2 1_555 1_555
O38 C3_2 1_555 1_555
O9_2 C3_2 1_555 1_555
O14_2 C6_2 1_555 1_555
O15_2 C6_2 1_555 1_555
O28_2 Ge6_2 1_555 1_555
C1_2 Ge1_2 1_555 1_555
C2_2 C1_2 1_555 1_555
C3_2 C2_2 1_555 1_555
C6_2 C5_2 1_555 1_555
C16_2 Ge6_2 1_555 1_555
C17_2 C16_2 1_555 1_555
N1_2 C21_2 1_555 1_555
Nd9_2 O3_2 1_555 1_555
Nd11_2 O3_2 1_555 1_555
O9_2 Nd9_2 1_555 1_555
O14_2 Nd11_2 1_555 1_555
O28_2 Nd9_2 1_555 1_555
C2_2 H17_2 1_555 1_555
C2_2 H18_2 1_555 1_555
C5_2 H19_2 1_555 1_555
C5_2 H20_2 1_555 1_555
C1_2 H29_2 1_555 1_555
C1_2 H30_2 1_555 1_555
C17_2 H33_2 1_555 1_555
C17_2 H34_2 1_555 1_555
C21_2 H38_2 1_555 1_555
C16_2 H41_2 1_555 1_555
C16_2 H42_2 1_555 1_555
Ge3_2 O11_2 1_555 1_555
Ge4_2 O16_2 1_555 1_555
O2_2 Nd6 1_555 1_555
O4_2 Nd6 1_555 1_555
O6_2 Nd6 1_555 1_555
O11_2 Ge2_2 1_555 1_555
O13_2 Ge2_2 1_555 1_555
O16_2 Ge3_2 1_555 1_555
O17_2 Ge3_2 1_555 1_555
O18_2 C9_2 1_555 1_555
O19_2 C9_2 1_555 1_555
O20_2 Ge4_2 1_555 1_555
O23_2 C12_2 1_555 1_555
C4_2 Ge2_2 1_555 1_555
C7_2 Ge3_2 1_555 1_555
C8_2 C7_2 1_555 1_555
C9_2 C8_2 1_555 1_555
C10_2 Ge4_2 1_555 1_555
C11_2 C10_2 1_555 1_555
C12_2 O22_2 1_555 1_555
Nd8_2 O19_2 1_555 1_555
Nd10_2 O13_2 1_555 1_555
Nd6 O11_2 1_555 1_555
Nd6 O16_2 1_555 1_555
Nd6 O20_2 1_555 1_555
Nd6 O25_2 1_555 1_555
O17_2 Nd10_2 1_555 1_555
O18_2 Nd10_2 1_555 1_555
C11_2 C12_2 1_555 1_555
O2_2 H1_2 1_555 1_555
O2_2 H2_2 1_555 1_555
O4_2 H5_2 1_555 1_555
O4_2 H6_2 1_555 1_555
O6_2 H12_2 1_555 1_555
C7_2 H21_2 1_555 1_555
C7_2 H22_2 1_555 1_555
C8_2 H23_2 1_555 1_555
C8_2 H24_2 1_555 1_555
C10_2 H26_2 1_555 1_555
C4_2 H27_2 1_555 1_555
C4_2 H28_2 1_555 1_555
C11_2 H31_2 1_555 1_555
C11_2 H32_2 1_555 1_555
Nd7 O10_2 1_555 1_555
O29_2 Nd7 1_555 1_555
O30_2 Nd4_2 1_555 1_555
O31_2 Nd7 1_555 1_555
O32_2 C24_2 1_555 1_555
O33_2 Nd7 1_555 1_555
O34_2 Nd7 1_555 1_555
O35_2 C19_2 1_555 1_555
C18_2 O29_2 1_555 1_555
C19_2 O34_2 1_555 1_555
C20_2 C19_2 1_555 1_555
C22_2 C23_2 1_555 1_555
C23_2 N2_2 1_555 1_555
C24_2 O31_2 1_555 1_555
C25_2 C24_2 1_555 1_555
N2_2 Nd7 1_555 1_555
N3_2 Nd7 1_555 1_555
O40_2 Nd4_2 1_555 1_555
O42_2 Nd4_2 1_555 1_555
O43_2 Nd4_2 1_555 1_555
O44_2 Nd7 1_555 1_555
Nd4_2 O33_2 1_555 1_555
Nd4_2 O34_2 1_555 1_555
O30_2 C18_2 1_555 1_555
C20_2 N2_2 1_555 1_555
C25_2 N3_2 1_555 1_555
O10_2 H7_2 1_555 1_555
O10_2 H8_2 1_555 1_555
C23_2 H36_2 1_555 1_555
C22_2 H40_2 1_555 1_555
Nd3_2 O8_2 1_555 1_555
Nd5_2 O12_2 1_555 1_555
O24_2 Ge5_2 1_555 1_555
O26_2 Nd5_2 1_555 1_555
O45 C15_2 1_555 1_555
O36_2 Nd5_2 1_555 1_555
C13_2 Ge5_2 1_555 1_555
C14_2 C13_2 1_555 1_555
C15_2 O26_2 1_555 1_555
C27_2 C26_2 1_555 1_555
C28_2 C27_2 1_555 1_555
C29_2 C28_2 1_555 1_555
O37_2 Nd3_2 1_555 1_555
O39_2 Nd3_2 1_555 1_555
O41_2 Nd5_2 1_555 1_555
O46_2 Nd3_2 1_555 1_555
Nd3_2 O21_2 1_555 1_555
Nd5_2 O21_2 1_555 1_555
Nd5_2 O24_2 1_555 1_555
Nd5_2 O37_2 1_555 1_555
O36_2 C30_2 1_555 1_555
C14_2 C15_2 1_555 1_555
C29_2 C30_2 1_555 1_555
O8_2 H3_2 1_555 1_555
O8_2 H4_2 1_555 1_555
O12_2 H9_2 1_555 1_555
O12_2 H10_2 1_555 1_555
C14_2 H13_2 1_555 1_555
C14_2 H14_2 1_555 1_555
C13_2 H15_2 1_555 1_555
C26_2 H35_2 1_555 1_555
C27_2 H37_2 1_555 1_555
C28_2 H39_2 1_555 1_555
Ge1_3 O1_3 1_555 1_555
Ge2_3 O1_3 1_555 1_555
Ge3_3 O11_3 1_555 1_555
Ge4_3 O16_3 1_555 1_555
Ge5_3 O20_3 1_555 1_555
Ge6_3 O5_3 1_555 1_555
Nd1_2 O1_3 1_555 1_555
Nd8 O10_3 1_555 1_555
Nd10 O24_3 1_555 1_555
Nd11 O12_3 1_555 1_555
O2_3 Nd1_2 1_555 1_555
O37 Ge1_3 1_555 1_555
O4_3 Nd1_2 1_555 1_555
O5_3 Ge1_3 1_555 1_555
O6_3 Nd1_2 1_555 1_555
O7_2 C3_3 1_555 1_555
O39 C3_3 1_555 1_555
O11_3 Ge2_3 1_555 1_555
O41 C6_3 1_555 1_555
O15_3 C6_3 1_555 1_555
O16_3 Ge3_3 1_555 1_555
O20_3 Ge4_3 1_555 1_555
O21_3 Ge4_3 1_555 1_555
O24_3 Ge5_3 1_555 1_555
O25_3 Ge5_3 1_555 1_555
O26_3 Nd11 1_555 1_555
O27_2 C15_3 1_555 1_555
O46 Ge6_3 1_555 1_555
O29_3 Nd8 1_555 1_555
O30_3 Nd10 1_555 1_555
O31_3 Nd8 1_555 1_555
O32_3 C24_3 1_555 1_555
O33_3 Nd8 1_555 1_555
O34_3 Nd8 1_555 1_555
O47 C19_3 1_555 1_555
O36_3 Nd11 1_555 1_555
C1_3 Ge1_3 1_555 1_555
C2_3 C1_3 1_555 1_555
C3_3 C2_3 1_555 1_555
C4_3 Ge2_3 1_555 1_555
C5_3 C4_3 1_555 1_555
C6_3 C5_3 1_555 1_555
C7_3 Ge3_3 1_555 1_555
C10_3 Ge4_3 1_555 1_555
C11_3 C10_3 1_555 1_555
C13_3 Ge5_3 1_555 1_555
C14_3 C13_3 1_555 1_555
C15_3 O26_3 1_555 1_555
C16_3 Ge6_3 1_555 1_555
C17_3 C16_3 1_555 1_555
C18_3 O29_3 1_555 1_555
C19_3 O34_3 1_555 1_555
C20_3 C19_3 1_555 1_555
C21_3 C20_3 1_555 1_555
C22_3 C23_3 1_555 1_555
C23_3 N2_3 1_555 1_555
C24_3 O31_3 1_555 1_555
C25_3 C24_3 1_555 1_555
C26_3 C25_3 1_555 1_555
C27_3 C26_3 1_555 1_555
C28_3 C27_3 1_555 1_555
C29_3 C28_3 1_555 1_555
C30_3 O33_3 1_555 1_555
N1_3 C21_3 1_555 1_555
N2_3 Nd8 1_555 1_555
N3_3 Nd8 1_555 1_555
Nd6_2 O7_2 1_555 1_555
Nd8_2 O27_2 1_555 1_555
O38_2 Nd1_2 1_555 1_555
O45_2 Nd8 1_555 1_555
Ge6_3 O25_3 1_555 1_555
Nd1_2 O5_3 1_555 1_555
Nd1_2 O11_3 1_555 1_555
Nd1_2 O16_3 1_555 1_555
Nd1_2 O20_3 1_555 1_555
Nd1_2 O25_3 1_555 1_555
Nd10 O33_3 1_555 1_555
Nd10 O34_3 1_555 1_555
Nd11 O21_3 1_555 1_555
Nd11 O24_3 1_555 1_555
O30_3 C18_3 1_555 1_555
O36_3 C30_3 1_555 1_555
C11_3 C12_3 1_555 1_555
C14_3 C15_3 1_555 1_555
C17_3 C18_3 1_555 1_555
C20_3 N2_3 1_555 1_555
C22_3 N1_3 1_555 1_555
C25_3 N3_3 1_555 1_555
C29_3 C30_3 1_555 1_555
C29_3 N3_3 1_555 1_555
O2_3 H1_3 1_555 1_555
O2_3 H2_3 1_555 1_555
O4_3 H5_3 1_555 1_555
O4_3 H6_3 1_555 1_555
O10_3 H7_3 1_555 1_555
O10_3 H8_3 1_555 1_555
O12_3 H9_3 1_555 1_555
O12_3 H10_3 1_555 1_555
O6_3 H11_3 1_555 1_555
O6_3 H12_3 1_555 1_555
C14_3 H13_3 1_555 1_555
C14_3 H14_3 1_555 1_555
C13_3 H15_3 1_555 1_555
C13_3 H16_3 1_555 1_555
C2_3 H17_3 1_555 1_555
C2_3 H18_3 1_555 1_555
C5_3 H19_3 1_555 1_555
C5_3 H20_3 1_555 1_555
C7_3 H22_3 1_555 1_555
C10_3 H25_3 1_555 1_555
C10_3 H26_3 1_555 1_555
C4_3 H28_3 1_555 1_555
C1_3 H29_3 1_555 1_555
C1_3 H30_3 1_555 1_555
C11_3 H31_3 1_555 1_555
C11_3 H32_3 1_555 1_555
C17_3 H33_3 1_555 1_555
C17_3 H34_3 1_555 1_555
C26_3 H35_3 1_555 1_555
C23_3 H36_3 1_555 1_555
C27_3 H37_3 1_555 1_555
C21_3 H38_3 1_555 1_555
C28_3 H39_3 1_555 1_555
C22_3 H40_3 1_555 1_555
C16_3 H41_3 1_555 1_555
C16_3 H42_3 1_555 1_555
Nd9 O8_3 1_555 1_555
O43 C9_3 1_555 1_555
O44 C9_3 1_555 1_555
O22_3 Nd9 1_555 1_555
C9_3 C8_3 1_555 1_555
O8_3 H3_3 1_555 1_555
O8_3 H4_3 1_555 1_555
C8_3 H23_3 1_555 1_555
Nd9_2 O8_4 1_555 1_555
Nd11_2 O12_4 1_555 1_555
O24_4 Ge5_4 1_555 1_555
O26_4 Nd11_2 1_555 1_555
O45_2 C15_4 1_555 1_555
O36_4 Nd11_2 1_555 1_555
C13_4 Ge5_4 1_555 1_555
C14_4 C13_4 1_555 1_555
C15_4 O26_4 1_555 1_555
C27_4 C26_4 1_555 1_555
C28_4 C27_4 1_555 1_555
C29_4 C28_4 1_555 1_555
Nd9_2 O21_4 1_555 1_555
Nd11_2 O21_4 1_555 1_555
Nd11_2 O24_4 1_555 1_555
O36_4 C30_4 1_555 1_555
C14_4 C15_4 1_555 1_555
C29_4 C30_4 1_555 1_555
O8_4 H3_4 1_555 1_555
O8_4 H4_4 1_555 1_555
O12_4 H9_4 1_555 1_555
O12_4 H10_4 1_555 1_555
C14_4 H13_4 1_555 1_555
C14_4 H14_4 1_555 1_555
C13_4 H15_4 1_555 1_555
C26_4 H35_4 1_555 1_555
C27_4 H37_4 1_555 1_555
C28_4 H39_4 1_555 1_555
Nd8_2 O10_4 1_555 1_555
O29_4 Nd8_2 1_555 1_555
O30_4 Nd10_2 1_555 1_555
O31_4 Nd8_2 1_555 1_555
O32_4 C24_4 1_555 1_555
O33_4 Nd8_2 1_555 1_555
O34_4 Nd8_2 1_555 1_555
O47_2 C19_4 1_555 1_555
C18_4 O29_4 1_555 1_555
C19_4 O34_4 1_555 1_555
C20_4 C19_4 1_555 1_555
C22_4 C23_4 1_555 1_555
C23_4 N2_4 1_555 1_555
C24_4 O31_4 1_555 1_555
C25_4 C24_4 1_555 1_555
N2_4 Nd8_2 1_555 1_555
N3_4 Nd8_2 1_555 1_555
Nd10_2 O33_4 1_555 1_555
Nd10_2 O34_4 1_555 1_555
O30_4 C18_4 1_555 1_555
C20_4 N2_4 1_555 1_555
C25_4 N3_4 1_555 1_555
O10_4 H7_4 1_555 1_555
O10_4 H8_4 1_555 1_555
C23_4 H36_4 1_555 1_555
C22_4 H40_4 1_555 1_555
Ge3_4 O11_4 1_555 1_555
Ge4_4 O16_4 1_555 1_555
O2_4 Nd6_2 1_555 1_555
O4_4 Nd6_2 1_555 1_555
O6_4 Nd6_2 1_555 1_555
O11_4 Ge2_4 1_555 1_555
O40_2 Ge2_4 1_555 1_555
O16_4 Ge3_4 1_555 1_555
O42_2 Ge3_4 1_555 1_555
O43_2 C9_4 1_555 1_555
O44_2 C9_4 1_555 1_555
O20_4 Ge4_4 1_555 1_555
O23_4 C12_4 1_555 1_555
C4_4 Ge2_4 1_555 1_555
C7_4 Ge3_4 1_555 1_555
C8_4 C7_4 1_555 1_555
C9_4 C8_4 1_555 1_555
C10_4 Ge4_4 1_555 1_555
C11_4 C10_4 1_555 1_555
C12_4 O22_4 1_555 1_555
Nd6_2 O11_4 1_555 1_555
Nd6_2 O16_4 1_555 1_555
Nd6_2 O20_4 1_555 1_555
Nd6_2 O25_4 1_555 1_555
C11_4 C12_4 1_555 1_555
O2_4 H1_4 1_555 1_555
O2_4 H2_4 1_555 1_555
O4_4 H5_4 1_555 1_555
O4_4 H6_4 1_555 1_555
O6_4 H12_4 1_555 1_555
C7_4 H21_4 1_555 1_555
C7_4 H22_4 1_555 1_555
C8_4 H23_4 1_555 1_555
C8_4 H24_4 1_555 1_555
C10_4 H26_4 1_555 1_555
C4_4 H27_4 1_555 1_555
C4_4 H28_4 1_555 1_555
C11_4 H31_4 1_555 1_555
C11_4 H32_4 1_555 1_555
Ge1_4 O1_4 1_555 1_555
Ge6_4 O5_4 1_555 1_555
O37_2 Ge1_4 1_555 1_555
O5_4 Ge1_4 1_555 1_555
O38_2 C3_4 1_555 1_555
O39_2 C3_4 1_555 1_555
O41_2 C6_4 1_555 1_555
O15_4 C6_4 1_555 1_555
O46_2 Ge6_4 1_555 1_555
C1_4 Ge1_4 1_555 1_555
C2_4 C1_4 1_555 1_555
C3_4 C2_4 1_555 1_555
C6_4 C5_4 1_555 1_555
C16_4 Ge6_4 1_555 1_555
C17_4 C16_4 1_555 1_555
N1_4 C21_4 1_555 1_555
C2_4 H17_4 1_555 1_555
C2_4 H18_4 1_555 1_555
C5_4 H19_4 1_555 1_555
C5_4 H20_4 1_555 1_555
C1_4 H29_4 1_555 1_555
C1_4 H30_4 1_555 1_555
C17_4 H33_4 1_555 1_555
C17_4 H34_4 1_555 1_555
C21_4 H38_4 1_555 1_555
C16_4 H41_4 1_555 1_555
C16_4 H42_4 1_555 1_555

#END
