
###############################################################################
#
# This file contains modified crystal structure data generated from the
# MOF subset of the Cambridge Structural Database (CSD) v543 
# hosted by the Cambridge Crystallographic Data Centre (CCDC).
#
# This work is licensed under the Creative Commons
# Attribution-NonCommercial-ShareAlike 4.0 International License.
# To view a copy of this license, visit
# http://creativecommons.org/licenses/by-nc-sa/4.0/
# or send a letter to
# Creative Commons, PO Box 1866, Mountain View, CA 94042, USA.
#
# CIF created using the CSD Python API on 29 September 2022
# The structure has been converted into the P1 space group
# The structure has a 3D framework
# The original CSD entry URUWIP is in the monoclinic crystal system
# The framework has been calculated to contain at least 10.0% void space
# The void calculation uses a probe of radius 1.32A, grid spacing 0.4
#
###############################################################################

data_URUWIP
_chemical_formula_moiety         '(C176 H128 Cu16 N76)n'
_symmetry_cell_setting           triclinic
_symmetry_space_group_name_H-M   'P 1'
_symmetry_Int_Tables_number      1
_space_group_name_Hall           'P 1'
loop_
_symmetry_equiv_pos_site_id
_symmetry_equiv_pos_as_xyz
1 x,y,z
_cell_length_a                   32.04(6)
_cell_length_b                   16.79(4)
_cell_length_c                   10.77(2)
_cell_angle_alpha                90
_cell_angle_beta                 92.36(4)
_cell_angle_gamma                90
_cell_volume                     5788.82
loop_
_atom_site_label
_atom_site_type_symbol
_atom_site_fract_x
_atom_site_fract_y
_atom_site_fract_z
Cu1 Cu 0.0000 0.53346(10) 0.2500
N21 N 0.0555(2) 0.4855(4) 0.2149(7)
N26 N 0.0153(2) 0.6085(4) 0.3968(7)
Cu4 Cu 0.05544(4) 0.44593(7) 0.46760(11)
N11 N 0.0772(2) 0.4457(5) 0.3024(7)
N13 N 0.0766(2) 0.4950(5) 0.1122(7)
N14 N 0.2196(3) 0.3431(6) 0.2850(8)
N15 N 0.2205(3) 0.4111(5) 0.0444(8)
N17 N 0.3552(3) 0.2371(5) 0.2206(8)
N20 N 0.4847(2) 0.1085(4) 0.1032(7)
C23 C 0.1153(3) 0.4263(6) 0.2555(9)
C24 C 0.1152(3) 0.4590(5) 0.1318(8)
C25 C 0.1493(3) 0.4526(6) 0.0583(9)
C26 C 0.1849(3) 0.4145(6) 0.1111(9)
C27 C 0.1842(3) 0.3804(6) 0.2341(9)
C28 C 0.1503(3) 0.3867(6) 0.3102(9)
H18 H 0.1507 0.3661 0.3923
C29 C 0.2526(3) 0.3403(7) 0.2185(10)
C30 C 0.2546(3) 0.3803(5) 0.1007(10)
C31 C 0.2934(4) 0.3842(7) 0.0234(15)
C32 C 0.3266(3) 0.3242(7) 0.0683(11)
C33 C 0.3265(3) 0.2882(6) 0.1848(10)
C34 C 0.2923(4) 0.3031(7) 0.2775(10)
C35 C 0.3097(4) 0.3506(9) 0.3882(13)
H19 H 0.3202 0.4019 0.3596
H20 H 0.3325 0.3208 0.4300
H21 H 0.2874 0.3597 0.4465
C36 C 0.2810(4) 0.2217(12) 0.3373(12)
H22 H 0.3049 0.2022 0.3880
H23 H 0.2739 0.1831 0.2716
H24 H 0.2570 0.2289 0.3898
C37 C 0.3866(3) 0.2205(6) 0.1397(9)
C38 C 0.3867(3) 0.2597(6) 0.0205(9)
C41 C 0.4497(3) 0.1557(5) 0.0912(9)
C42 C 0.4186(3) 0.1693(5) 0.1787(9)
H26 H 0.4196 0.1451 0.2585
C44 C 0.3130(4) 0.4700(8) 0.0865(15)
H30 H 0.3396 0.4827 0.0492
H31 H 0.3175 0.4632 0.1764
H32 H 0.2931 0.5135 0.0701
Cu7 Cu 0.5000 0.03346(10) 0.2500
N22 N 0.0766(2) 0.5050(5) 0.6122(7)
N24 N 0.0039(2) 0.3842(4) 0.4973(7)
Cu1_2 Cu 1.0000 0.53346(10) 0.2500
Cu2 Cu 0.94456(4) 0.44593(7) 0.03240(11)
Cu3 Cu 0.5000 0.17481(13) 0.7500
N1 N 0.9228(2) 0.4457(5) 0.1976(7)
N2 N 0.9445(2) 0.4855(4) 0.2851(7)
N3 N 0.9234(2) 0.4950(5) 0.3878(7)
N4 N 0.7804(3) 0.3431(6) 0.2150(8)
N5 N 0.7795(3) 0.4111(5) 0.4556(8)
N6 N 0.6444(3) 0.3131(5) 0.5112(9)
N7 N 0.6448(3) 0.2371(5) 0.2794(8)
N8 N 0.5164(2) 0.1648(4) 0.5855(7)
N9 N 0.4961(2) 0.1158(4) 0.5027(7)
N10 N 0.5153(2) 0.1085(4) 0.3968(7)
C1 C 0.8847(3) 0.4263(6) 0.2445(9)
C2 C 0.8848(3) 0.4590(5) 0.3682(8)
C3 C 0.8507(3) 0.4526(6) 0.4417(9)
H1 H 0.8513 0.4730 0.5240
C4 C 0.8151(3) 0.4145(6) 0.3889(9)
C5 C 0.8158(3) 0.3804(6) 0.2659(9)
C6 C 0.8497(3) 0.3867(6) 0.1898(9)
H2 H 0.8493 0.3661 0.1077
C7 C 0.7474(3) 0.3403(7) 0.2815(10)
C8 C 0.7454(3) 0.3803(5) 0.3993(10)
C9 C 0.7066(4) 0.3842(7) 0.4766(15)
C10 C 0.6734(3) 0.3242(7) 0.4317(11)
C11 C 0.6735(3) 0.2882(6) 0.3152(10)
C12 C 0.7077(4) 0.3031(7) 0.2225(10)
C13 C 0.6903(4) 0.3506(9) 0.1118(13)
H3 H 0.6798 0.4019 0.1404
H4 H 0.6675 0.3208 0.0700
H5 H 0.7126 0.3597 0.0535
C14 C 0.7190(4) 0.2217(12) 0.1627(12)
H6 H 0.6951 0.2022 0.1120
H7 H 0.7261 0.1831 0.2284
H8 H 0.7430 0.2289 0.1102
C15 C 0.6134(3) 0.2205(6) 0.3603(9)
C16 C 0.6133(3) 0.2597(6) 0.4795(9)
C17 C 0.5816(3) 0.2443(6) 0.5620(9)
H9 H 0.5817 0.2688 0.6414
C18 C 0.5507(3) 0.1928(6) 0.5246(9)
C19 C 0.5503(3) 0.1557(5) 0.4088(9)
C20 C 0.5814(3) 0.1693(5) 0.3213(9)
H10 H 0.5804 0.1451 0.2415
C21 C 0.7110(5) 0.3960(13) 0.6005(14)
H11 H 0.7215 0.4500 0.6167
H12 H 0.7309 0.3571 0.6365
H13 H 0.6839 0.3894 0.6381
C22 C 0.6870(4) 0.4700(8) 0.4135(15)
H14 H 0.6604 0.4827 0.4508
H15 H 0.6825 0.4632 0.3236
H16 H 0.7069 0.5135 0.4299
N16 N 0.3556(3) 0.3131(5) 0.9888(9)
N18 N 0.4836(2) 0.1648(4) 0.9145(7)
N19 N 0.5039(2) 0.1158(4) 0.9973(7)
H17 H 0.1487 0.4730 0.9760
C39 C 0.4184(3) 0.2443(6) 0.9380(9)
H25 H 0.4183 0.2688 0.8586
C40 C 0.4493(3) 0.1928(6) 0.9754(9)
C43 C 0.2890(5) 0.3960(13) 0.8995(14)
H27 H 0.2785 0.4500 0.8833
H28 H 0.2691 0.3571 0.8635
H29 H 0.3161 0.3894 0.8619
Cu8 Cu 0.05544(4) 0.55407(7) 0.96760(11)
Cu9 Cu 0.94456(4) 0.55407(7) 0.53240(11)
Cu10 Cu 0.55544(4) 0.05407(7) 0.96760(11)
Cu11 Cu 0.44456(4) 0.05407(7) 0.53240(11)
N25 N 0.9961(2) 0.3842(4) 0.0027(7)
N27 N 0.9847(2) 0.6085(4) 0.1032(7)
N23 N 0.9234(2) 0.5050(5) 0.8878(7)
H16_2 H 0.2069 0.0135 0.4299
N23_2 N 0.4234(2) 0.0050(5) 0.8878(7)
Cu2_2 Cu 0.44456(4) 0.94593(7) 0.03240(11)
Cu3_2 Cu -0.0000 0.67481(13) 0.7500
N1_2 N 0.4228(2) 0.9457(5) 0.1976(7)
N2_2 N 0.4445(2) 0.9855(4) 0.2851(7)
N3_2 N 0.4234(2) 0.9950(5) 0.3878(7)
N4_2 N 0.2804(3) 0.8431(6) 0.2150(8)
N5_2 N 0.2795(3) 0.9111(5) 0.4556(8)
N6_2 N 0.1444(3) 0.8131(5) 0.5112(9)
N7_2 N 0.1448(3) 0.7371(5) 0.2794(8)
N8_2 N 0.0164(2) 0.6648(4) 0.5855(7)
C1_2 C 0.3847(3) 0.9263(6) 0.2445(9)
C2_2 C 0.3848(3) 0.9590(5) 0.3682(8)
C3_2 C 0.3507(3) 0.9526(6) 0.4417(9)
H1_2 H 0.3513 0.9730 0.5240
C4_2 C 0.3151(3) 0.9145(6) 0.3889(9)
C5_2 C 0.3158(3) 0.8804(6) 0.2659(9)
C6_2 C 0.3497(3) 0.8867(6) 0.1898(9)
H2_2 H 0.3493 0.8661 0.1077
C7_2 C 0.2474(3) 0.8403(7) 0.2815(10)
C8_2 C 0.2454(3) 0.8803(5) 0.3993(10)
C9_2 C 0.2066(4) 0.8842(7) 0.4766(15)
C10_2 C 0.1734(3) 0.8242(7) 0.4317(11)
C11_2 C 0.1735(3) 0.7882(6) 0.3152(10)
C12_2 C 0.2077(4) 0.8031(7) 0.2225(10)
C13_2 C 0.1903(4) 0.8506(9) 0.1118(13)
H3_2 H 0.1798 0.9019 0.1404
H4_2 H 0.1675 0.8208 0.0700
H5_2 H 0.2126 0.8597 0.0535
C14_2 C 0.2190(4) 0.7217(12) 0.1627(12)
H6_2 H 0.1951 0.7022 0.1120
H7_2 H 0.2261 0.6831 0.2284
H8_2 H 0.2430 0.7289 0.1102
C15_2 C 0.1134(3) 0.7205(6) 0.3603(9)
C16_2 C 0.1133(3) 0.7597(6) 0.4795(9)
C17_2 C 0.0816(3) 0.7443(6) 0.5620(9)
H9_2 H 0.0817 0.7688 0.6414
C18_2 C 0.0507(3) 0.6928(6) 0.5246(9)
C19_2 C 0.0503(3) 0.6557(5) 0.4088(9)
C20_2 C 0.0814(3) 0.6693(5) 0.3213(9)
H10_2 H 0.0804 0.6451 0.2415
C21_2 C 0.2110(5) 0.8960(13) 0.6005(14)
H11_2 H 0.2215 0.9500 0.6167
H12_2 H 0.2309 0.8571 0.6365
H13_2 H 0.1839 0.8894 0.6381
C22_2 C 0.1870(4) 0.9700(8) 0.4135(15)
H14_2 H 0.1604 0.9827 0.4508
H15_2 H 0.1825 0.9632 0.3236
N19_2 N 0.0039(2) 0.6158(4) 0.9973(7)
N21_2 N 0.5555(2) 0.9855(4) 0.2149(7)
N25_2 N 0.4961(2) 0.8842(4) 0.0027(7)
H32_2 H 0.7931 0.0135 0.0701
N22_2 N 0.5766(2) 0.0050(5) 0.6122(7)
Cu4_2 Cu 0.55544(4) 0.94593(7) 0.46760(11)
N11_2 N 0.5772(2) 0.9457(5) 0.3024(7)
N13_2 N 0.5766(2) 0.9950(5) 0.1122(7)
N14_2 N 0.7196(3) 0.8431(6) 0.2850(8)
N15_2 N 0.7205(3) 0.9111(5) 0.0444(8)
N17_2 N 0.8552(3) 0.7371(5) 0.2206(8)
C23_2 C 0.6153(3) 0.9263(6) 0.2555(9)
C24_2 C 0.6152(3) 0.9590(5) 0.1318(8)
C25_2 C 0.6493(3) 0.9526(6) 0.0583(9)
C26_2 C 0.6849(3) 0.9145(6) 0.1111(9)
C27_2 C 0.6842(3) 0.8804(6) 0.2341(9)
C28_2 C 0.6503(3) 0.8867(6) 0.3102(9)
H18_2 H 0.6507 0.8661 0.3923
C29_2 C 0.7526(3) 0.8403(7) 0.2185(10)
C30_2 C 0.7546(3) 0.8803(5) 0.1007(10)
C31_2 C 0.7934(4) 0.8842(7) 0.0234(15)
C32_2 C 0.8266(3) 0.8242(7) 0.0683(11)
C33_2 C 0.8265(3) 0.7882(6) 0.1848(10)
C34_2 C 0.7923(4) 0.8031(7) 0.2775(10)
C35_2 C 0.8097(4) 0.8506(9) 0.3882(13)
H19_2 H 0.8202 0.9019 0.3596
H20_2 H 0.8325 0.8208 0.4300
H21_2 H 0.7874 0.8597 0.4465
C36_2 C 0.7810(4) 0.7217(12) 0.3373(12)
H22_2 H 0.8049 0.7022 0.3880
H23_2 H 0.7739 0.6831 0.2716
H24_2 H 0.7570 0.7289 0.3898
C37_2 C 0.8866(3) 0.7205(6) 0.1397(9)
C38_2 C 0.8867(3) 0.7597(6) 0.0205(9)
C41_2 C 0.9497(3) 0.6557(5) 0.0912(9)
C42_2 C 0.9186(3) 0.6693(5) 0.1787(9)
H26_2 H 0.9196 0.6451 0.2585
C44_2 C 0.8130(4) 0.9700(8) 0.0865(15)
H30_2 H 0.8396 0.9827 0.0492
H31_2 H 0.8175 0.9632 0.1764
N24_2 N 0.5039(2) 0.8842(4) 0.4973(7)
Cu3_3 Cu 1.0000 0.67481(13) 0.7500
N9_2 N 0.9961(2) 0.6158(4) 0.5027(7)
N16_2 N 0.8556(3) 0.8131(5) 0.9888(9)
N18_2 N 0.9836(2) 0.6648(4) 0.9145(7)
H17_2 H 0.6487 0.9730 0.9760
C39_2 C 0.9184(3) 0.7443(6) 0.9380(9)
H25_2 H 0.9183 0.7688 0.8586
C40_2 C 0.9493(3) 0.6928(6) 0.9754(9)
C43_2 C 0.7890(5) 0.8960(13) 0.8995(14)
H27_2 H 0.7785 0.9500 0.8833
H28_2 H 0.7691 0.8571 0.8635
H29_2 H 0.8161 0.8894 0.8619
Cu5 Cu -0.0000 0.46654(10) 0.7500
Cu3_4 Cu 0.5000 0.82519(13) 0.2500
N1_3 N 0.0772(2) 0.5543(5) 0.8024(7)
N2_3 N 0.0555(2) 0.5145(4) 0.7149(7)
N4_3 N 0.2196(3) 0.6569(6) 0.7850(8)
N5_3 N 0.2205(3) 0.5889(5) 0.5444(8)
N6_3 N 0.3556(3) 0.6869(5) 0.4888(9)
N7_3 N 0.3552(3) 0.7629(5) 0.7206(8)
N8_3 N 0.4836(2) 0.8352(4) 0.4145(7)
N10_2 N 0.4847(2) 0.8915(4) 0.6032(7)
C1_3 C 0.1153(3) 0.5737(6) 0.7555(9)
C2_3 C 0.1152(3) 0.5410(5) 0.6318(8)
C3_3 C 0.1493(3) 0.5474(6) 0.5583(9)
H1_3 H 0.1487 0.5270 0.4760
C4_3 C 0.1849(3) 0.5855(6) 0.6111(9)
C5_3 C 0.1842(3) 0.6196(6) 0.7341(9)
C6_3 C 0.1503(3) 0.6133(6) 0.8102(9)
H2_3 H 0.1507 0.6339 0.8923
C7_3 C 0.2526(3) 0.6597(7) 0.7185(10)
C8_3 C 0.2546(3) 0.6197(5) 0.6007(10)
C9_3 C 0.2934(4) 0.6158(7) 0.5234(15)
C10_3 C 0.3266(3) 0.6758(7) 0.5683(11)
C11_3 C 0.3265(3) 0.7118(6) 0.6848(10)
C12_3 C 0.2923(4) 0.6969(7) 0.7775(10)
C13_3 C 0.3097(4) 0.6494(9) 0.8882(13)
H3_3 H 0.3202 0.5981 0.8596
H4_3 H 0.3325 0.6792 0.9300
H5_3 H 0.2874 0.6403 0.9465
C14_3 C 0.2810(4) 0.7783(12) 0.8373(12)
H6_3 H 0.3049 0.7978 0.8880
H7_3 H 0.2739 0.8169 0.7716
H8_3 H 0.2570 0.7711 0.8898
C15_3 C 0.3866(3) 0.7795(6) 0.6397(9)
C16_3 C 0.3867(3) 0.7403(6) 0.5205(9)
C17_3 C 0.4184(3) 0.7557(6) 0.4380(9)
H9_3 H 0.4183 0.7312 0.3586
C18_3 C 0.4493(3) 0.8072(6) 0.4754(9)
C19_3 C 0.4497(3) 0.8443(5) 0.5912(9)
C20_3 C 0.4186(3) 0.8307(5) 0.6787(9)
H10_3 H 0.4196 0.8549 0.7585
C21_3 C 0.2890(5) 0.6040(13) 0.3995(14)
H11_3 H 0.2785 0.5500 0.3833
H12_3 H 0.2691 0.6429 0.3635
H13_3 H 0.3161 0.6106 0.3619
C22_3 C 0.3130(4) 0.5300(8) 0.5865(15)
H14_3 H 0.3396 0.5173 0.5492
H15_3 H 0.3175 0.5368 0.6764
H16_3 H 0.2931 0.4865 0.5701
N16_3 N 0.6444(3) 0.6869(5) 0.0112(9)
N18_3 N 0.5164(2) 0.8352(4) 0.0855(7)
H17_3 H 0.8513 0.5270 0.0240
C39_3 C 0.5816(3) 0.7557(6) 0.0620(9)
H25_3 H 0.5817 0.7312 0.1414
C40_3 C 0.5507(3) 0.8072(6) 0.0246(9)
C43_3 C 0.7110(5) 0.6040(13) 0.1005(14)
H27_3 H 0.7215 0.5500 0.1167
H28_3 H 0.7309 0.6429 0.1365
H29_3 H 0.6839 0.6106 0.1381
Cu6 Cu 0.5000 0.96654(10) 0.7500
N27_2 N 0.0153(2) 0.3915(4) 0.8968(7)
N11_3 N 0.9228(2) 0.5543(5) 0.6976(7)
N12 N 0.9445(2) 0.5145(4) 0.7851(7)
N14_3 N 0.7804(3) 0.6569(6) 0.7150(8)
N15_3 N 0.7795(3) 0.5889(5) 0.9556(8)
N17_3 N 0.6448(3) 0.7629(5) 0.7794(8)
N20_2 N 0.5153(2) 0.8915(4) 0.8968(7)
C23_3 C 0.8847(3) 0.5737(6) 0.7445(9)
C24_3 C 0.8848(3) 0.5410(5) 0.8682(8)
C25_3 C 0.8507(3) 0.5474(6) 0.9417(9)
C26_3 C 0.8151(3) 0.5855(6) 0.8889(9)
C27_3 C 0.8158(3) 0.6196(6) 0.7659(9)
C28_3 C 0.8497(3) 0.6133(6) 0.6898(9)
H18_3 H 0.8493 0.6339 0.6077
C29_3 C 0.7474(3) 0.6597(7) 0.7815(10)
C30_3 C 0.7454(3) 0.6197(5) 0.8993(10)
C31_3 C 0.7066(4) 0.6158(7) 0.9766(15)
C32_3 C 0.6734(3) 0.6758(7) 0.9317(11)
C33_3 C 0.6735(3) 0.7118(6) 0.8152(10)
C34_3 C 0.7077(4) 0.6969(7) 0.7225(10)
C35_3 C 0.6903(4) 0.6494(9) 0.6118(13)
H19_3 H 0.6798 0.5981 0.6404
H20_3 H 0.6675 0.6792 0.5700
H21_3 H 0.7126 0.6403 0.5535
C36_3 C 0.7190(4) 0.7783(12) 0.6627(12)
H22_3 H 0.6951 0.7978 0.6120
H23_3 H 0.7261 0.8169 0.7284
H24_3 H 0.7430 0.7711 0.6102
C37_3 C 0.6134(3) 0.7795(6) 0.8603(9)
C38_3 C 0.6133(3) 0.7403(6) 0.9795(9)
C41_3 C 0.5503(3) 0.8443(5) 0.9088(9)
C42_3 C 0.5814(3) 0.8307(5) 0.8213(9)
H26_3 H 0.5804 0.8549 0.7415
C44_3 C 0.6870(4) 0.5300(8) 0.9135(15)
H30_3 H 0.6604 0.5173 0.9508
H31_3 H 0.6825 0.5368 0.8236
H32_3 H 0.7069 0.4865 0.9299
Cu5_2 Cu 1.0000 0.46654(10) 0.7500
N26_2 N 0.9847(2) 0.3915(4) 0.6032(7)
Cu3_5 Cu -0.0000 0.32519(13) 0.2500
N16_4 N 0.1444(3) 0.1869(5) 0.0112(9)
N18_4 N 0.0164(2) 0.3352(4) 0.0855(7)
H17_4 H 0.3513 0.0270 0.0240
C39_4 C 0.0816(3) 0.2557(6) 0.0620(9)
H25_4 H 0.0817 0.2312 0.1414
C40_4 C 0.0507(3) 0.3072(6) 0.0246(9)
C43_4 C 0.2110(5) 0.1040(13) 0.1005(14)
H27_4 H 0.2215 0.0500 0.1167
H28_4 H 0.2309 0.1429 0.1365
H29_4 H 0.1839 0.1106 0.1381
N11_4 N 0.4228(2) 0.0543(5) 0.6976(7)
N12_2 N 0.4445(2) 0.0145(4) 0.7851(7)
N14_4 N 0.2804(3) 0.1569(6) 0.7150(8)
N15_4 N 0.2795(3) 0.0889(5) 0.9556(8)
N17_4 N 0.1448(3) 0.2629(5) 0.7794(8)
C23_4 C 0.3847(3) 0.0737(6) 0.7445(9)
C24_4 C 0.3848(3) 0.0410(5) 0.8682(8)
C25_4 C 0.3507(3) 0.0474(6) 0.9417(9)
C26_4 C 0.3151(3) 0.0855(6) 0.8889(9)
C27_4 C 0.3158(3) 0.1196(6) 0.7659(9)
C28_4 C 0.3497(3) 0.1133(6) 0.6898(9)
H18_4 H 0.3493 0.1339 0.6077
C29_4 C 0.2474(3) 0.1597(7) 0.7815(10)
C30_4 C 0.2454(3) 0.1197(5) 0.8993(10)
C31_4 C 0.2066(4) 0.1158(7) 0.9766(15)
C32_4 C 0.1734(3) 0.1758(7) 0.9317(11)
C33_4 C 0.1735(3) 0.2118(6) 0.8152(10)
C34_4 C 0.2077(4) 0.1969(7) 0.7225(10)
C35_4 C 0.1903(4) 0.1494(9) 0.6118(13)
H19_4 H 0.1798 0.0981 0.6404
H20_4 H 0.1675 0.1792 0.5700
H21_4 H 0.2126 0.1403 0.5535
C36_4 C 0.2190(4) 0.2783(12) 0.6627(12)
H22_4 H 0.1951 0.2978 0.6120
H23_4 H 0.2261 0.3169 0.7284
H24_4 H 0.2430 0.2711 0.6102
C37_4 C 0.1134(3) 0.2795(6) 0.8603(9)
C38_4 C 0.1133(3) 0.2403(6) 0.9795(9)
C41_4 C 0.0503(3) 0.3443(5) 0.9088(9)
C42_4 C 0.0814(3) 0.3307(5) 0.8213(9)
H26_4 H 0.0804 0.3549 0.7415
C44_4 C 0.1870(4) 0.0300(8) 0.9135(15)
H30_4 H 0.1604 0.0173 0.9508
H31_4 H 0.1825 0.0368 0.8236
H32_4 H 0.2069 0.9865 0.9299
Cu3_6 Cu 1.0000 0.32519(13) 0.2500
N1_4 N 0.5772(2) 0.0543(5) 0.8024(7)
N2_4 N 0.5555(2) 0.0145(4) 0.7149(7)
N4_4 N 0.7196(3) 0.1569(6) 0.7850(8)
N5_4 N 0.7205(3) 0.0889(5) 0.5444(8)
N6_4 N 0.8556(3) 0.1869(5) 0.4888(9)
N7_4 N 0.8552(3) 0.2629(5) 0.7206(8)
N8_4 N 0.9836(2) 0.3352(4) 0.4145(7)
C1_4 C 0.6153(3) 0.0737(6) 0.7555(9)
C2_4 C 0.6152(3) 0.0410(5) 0.6318(8)
C3_4 C 0.6493(3) 0.0474(6) 0.5583(9)
H1_4 H 0.6487 0.0270 0.4760
C4_4 C 0.6849(3) 0.0855(6) 0.6111(9)
C5_4 C 0.6842(3) 0.1196(6) 0.7341(9)
C6_4 C 0.6503(3) 0.1133(6) 0.8102(9)
H2_4 H 0.6507 0.1339 0.8923
C7_4 C 0.7526(3) 0.1597(7) 0.7185(10)
C8_4 C 0.7546(3) 0.1197(5) 0.6007(10)
C9_4 C 0.7934(4) 0.1158(7) 0.5234(15)
C10_4 C 0.8266(3) 0.1758(7) 0.5683(11)
C11_4 C 0.8265(3) 0.2118(6) 0.6848(10)
C12_4 C 0.7923(4) 0.1969(7) 0.7775(10)
C13_4 C 0.8097(4) 0.1494(9) 0.8882(13)
H3_4 H 0.8202 0.0981 0.8596
H4_4 H 0.8325 0.1792 0.9300
H5_4 H 0.7874 0.1403 0.9465
C14_4 C 0.7810(4) 0.2783(12) 0.8373(12)
H6_4 H 0.8049 0.2978 0.8880
H7_4 H 0.7739 0.3169 0.7716
H8_4 H 0.7570 0.2711 0.8898
C15_4 C 0.8866(3) 0.2795(6) 0.6397(9)
C16_4 C 0.8867(3) 0.2403(6) 0.5205(9)
C17_4 C 0.9184(3) 0.2557(6) 0.4380(9)
H9_4 H 0.9183 0.2312 0.3586
C18_4 C 0.9493(3) 0.3072(6) 0.4754(9)
C19_4 C 0.9497(3) 0.3443(5) 0.5912(9)
C20_4 C 0.9186(3) 0.3307(5) 0.6787(9)
H10_4 H 0.9196 0.3549 0.7585
C21_4 C 0.7890(5) 0.1040(13) 0.3995(14)
H11_4 H 0.7785 0.0500 0.3833
H12_4 H 0.7691 0.1429 0.3635
H13_4 H 0.8161 0.1106 0.3619
C22_4 C 0.8130(4) 0.0300(8) 0.5865(15)
H14_4 H 0.8396 0.0173 0.5492
H15_4 H 0.8175 0.0368 0.6764
H16_4 H 0.7931 0.9865 0.5701
loop_
_geom_bond_atom_site_label_1
_geom_bond_atom_site_label_2
_geom_bond_site_symmetry_1
_geom_bond_site_symmetry_2
N21 Cu1 1_555 1_555
N26 Cu1 1_555 1_555
Cu4 N11 1_555 1_555
N11 N21 1_555 1_555
N21 N13 1_555 1_555
N13 C24 1_555 1_555
N14 C27 1_555 1_555
N15 C26 1_555 1_555
N17 C33 1_555 1_555
C23 N11 1_555 1_555
C24 C23 1_555 1_555
C25 C24 1_555 1_555
C26 C25 1_555 1_555
C27 C26 1_555 1_555
C28 C23 1_555 1_555
H18 C28 1_555 1_555
C29 N14 1_555 1_555
C30 N15 1_555 1_555
C31 C30 1_555 1_555
C32 C31 1_555 1_555
C33 C32 1_555 1_555
C34 C29 1_555 1_555
C35 C34 1_555 1_555
H19 C35 1_555 1_555
H20 C35 1_555 1_555
H21 C35 1_555 1_555
C36 C34 1_555 1_555
H22 C36 1_555 1_555
H23 C36 1_555 1_555
H24 C36 1_555 1_555
C37 N17 1_555 1_555
C41 N20 1_555 1_555
C42 C37 1_555 1_555
H26 C42 1_555 1_555
C44 C31 1_555 1_555
H30 C44 1_555 1_555
H31 C44 1_555 1_555
H32 C44 1_555 1_555
Cu7 N20 1_555 1_555
N22 Cu4 1_555 1_555
N24 Cu4 1_555 1_555
C27 C28 1_555 1_555
C29 C30 1_555 1_555
C33 C34 1_555 1_555
C37 C38 1_555 1_555
C41 C42 1_555 1_555
Cu1_2 N2 1_555 1_555
Cu2 N1 1_555 1_555
Cu3 N8 1_555 1_555
N1 N2 1_555 1_555
N2 N3 1_555 1_555
N3 C2 1_555 1_555
N4 C5 1_555 1_555
N5 C4 1_555 1_555
N6 C10 1_555 1_555
N7 C11 1_555 1_555
N8 N9 1_555 1_555
N9 N10 1_555 1_555
N10 C19 1_555 1_555
C1 N1 1_555 1_555
C2 C1 1_555 1_555
C3 C2 1_555 1_555
H1 C3 1_555 1_555
C4 C3 1_555 1_555
C5 C4 1_555 1_555
C6 C1 1_555 1_555
H2 C6 1_555 1_555
C7 N4 1_555 1_555
C8 N5 1_555 1_555
C9 C8 1_555 1_555
C10 C9 1_555 1_555
C11 C10 1_555 1_555
C12 C7 1_555 1_555
C13 C12 1_555 1_555
H3 C13 1_555 1_555
H4 C13 1_555 1_555
H5 C13 1_555 1_555
C14 C12 1_555 1_555
H6 C14 1_555 1_555
H7 C14 1_555 1_555
H8 C14 1_555 1_555
C15 N7 1_555 1_555
C16 N6 1_555 1_555
C17 C16 1_555 1_555
H9 C17 1_555 1_555
C18 N8 1_555 1_555
C19 C18 1_555 1_555
C20 C15 1_555 1_555
H10 C20 1_555 1_555
C21 C9 1_555 1_555
H11 C21 1_555 1_555
H12 C21 1_555 1_555
H13 C21 1_555 1_555
C22 C9 1_555 1_555
H14 C22 1_555 1_555
H15 C22 1_555 1_555
H16 C22 1_555 1_555
N18 Cu3 1_555 1_555
N19 N18 1_555 1_555
H25 C39 1_555 1_555
C40 N18 1_555 1_555
H27 C43 1_555 1_555
H28 C43 1_555 1_555
H29 C43 1_555 1_555
Cu7 N10 1_555 1_555
Cu9 N3 1_555 1_555
Cu10 N19 1_555 1_555
Cu11 N9 1_555 1_555
N25 Cu2 1_555 1_555
N27 Cu1_2 1_555 1_555
C5 C6 1_555 1_555
C7 C8 1_555 1_555
C11 C12 1_555 1_555
C15 C16 1_555 1_555
C17 C18 1_555 1_555
C19 C20 1_555 1_555
C39 C40 1_555 1_555
Cu2_2 N1_2 1_555 1_555
Cu3_2 N8_2 1_555 1_555
N1_2 N2_2 1_555 1_555
N2_2 N3_2 1_555 1_555
N3_2 C2_2 1_555 1_555
N4_2 C5_2 1_555 1_555
N5_2 C4_2 1_555 1_555
N6_2 C10_2 1_555 1_555
N7_2 C11_2 1_555 1_555
N26 C19_2 1_555 1_555
C1_2 N1_2 1_555 1_555
C2_2 C1_2 1_555 1_555
C3_2 C2_2 1_555 1_555
H1_2 C3_2 1_555 1_555
C4_2 C3_2 1_555 1_555
C5_2 C4_2 1_555 1_555
C6_2 C1_2 1_555 1_555
H2_2 C6_2 1_555 1_555
C7_2 N4_2 1_555 1_555
C8_2 N5_2 1_555 1_555
C9_2 C8_2 1_555 1_555
C10_2 C9_2 1_555 1_555
C11_2 C10_2 1_555 1_555
C12_2 C7_2 1_555 1_555
C13_2 C12_2 1_555 1_555
H3_2 C13_2 1_555 1_555
H4_2 C13_2 1_555 1_555
H5_2 C13_2 1_555 1_555
C14_2 C12_2 1_555 1_555
H6_2 C14_2 1_555 1_555
H7_2 C14_2 1_555 1_555
H8_2 C14_2 1_555 1_555
C15_2 N7_2 1_555 1_555
C16_2 N6_2 1_555 1_555
C17_2 C16_2 1_555 1_555
H9_2 C17_2 1_555 1_555
C18_2 N8_2 1_555 1_555
C19_2 C18_2 1_555 1_555
C20_2 C15_2 1_555 1_555
H10_2 C20_2 1_555 1_555
C21_2 C9_2 1_555 1_555
H11_2 C21_2 1_555 1_555
H12_2 C21_2 1_555 1_555
H13_2 C21_2 1_555 1_555
C22_2 C9_2 1_555 1_555
H14_2 C22_2 1_555 1_555
H15_2 C22_2 1_555 1_555
Cu8 N19_2 1_555 1_555
N25_2 Cu2_2 1_555 1_555
C5_2 C6_2 1_555 1_555
C7_2 C8_2 1_555 1_555
C11_2 C12_2 1_555 1_555
C15_2 C16_2 1_555 1_555
C17_2 C18_2 1_555 1_555
C19_2 C20_2 1_555 1_555
Cu4_2 N11_2 1_555 1_555
N11_2 N21_2 1_555 1_555
N21_2 N13_2 1_555 1_555
N13_2 C24_2 1_555 1_555
N14_2 C27_2 1_555 1_555
N15_2 C26_2 1_555 1_555
N17_2 C33_2 1_555 1_555
C23_2 N11_2 1_555 1_555
C24_2 C23_2 1_555 1_555
C25_2 C24_2 1_555 1_555
C26_2 C25_2 1_555 1_555
C27_2 C26_2 1_555 1_555
C28_2 C23_2 1_555 1_555
H18_2 C28_2 1_555 1_555
C29_2 N14_2 1_555 1_555
C30_2 N15_2 1_555 1_555
C31_2 C30_2 1_555 1_555
C32_2 C31_2 1_555 1_555
C33_2 C32_2 1_555 1_555
C34_2 C29_2 1_555 1_555
C35_2 C34_2 1_555 1_555
H19_2 C35_2 1_555 1_555
H20_2 C35_2 1_555 1_555
H21_2 C35_2 1_555 1_555
C36_2 C34_2 1_555 1_555
H22_2 C36_2 1_555 1_555
H23_2 C36_2 1_555 1_555
H24_2 C36_2 1_555 1_555
C37_2 N17_2 1_555 1_555
C41_2 N27 1_555 1_555
C42_2 C37_2 1_555 1_555
H26_2 C42_2 1_555 1_555
C44_2 C31_2 1_555 1_555
H30_2 C44_2 1_555 1_555
H31_2 C44_2 1_555 1_555
N24_2 Cu4_2 1_555 1_555
C27_2 C28_2 1_555 1_555
C29_2 C30_2 1_555 1_555
C33_2 C34_2 1_555 1_555
C37_2 C38_2 1_555 1_555
C41_2 C42_2 1_555 1_555
N18_2 Cu3_3 1_555 1_555
H25_2 C39_2 1_555 1_555
C40_2 N18_2 1_555 1_555
H27_2 C43_2 1_555 1_555
H28_2 C43_2 1_555 1_555
H29_2 C43_2 1_555 1_555
Cu9 N9_2 1_555 1_555
C39_2 C40_2 1_555 1_555
Cu5 N2_3 1_555 1_555
Cu8 N1_3 1_555 1_555
Cu3_4 N8_3 1_555 1_555
N1_3 N2_3 1_555 1_555
N2_3 N22 1_555 1_555
N22 C2_3 1_555 1_555
N4_3 C5_3 1_555 1_555
N5_3 C4_3 1_555 1_555
N6_3 C10_3 1_555 1_555
N7_3 C11_3 1_555 1_555
N8_3 N24_2 1_555 1_555
N24_2 N10_2 1_555 1_555
N10_2 C19_3 1_555 1_555
C1_3 N1_3 1_555 1_555
C2_3 C1_3 1_555 1_555
C3_3 C2_3 1_555 1_555
H1_3 C3_3 1_555 1_555
C4_3 C3_3 1_555 1_555
C5_3 C4_3 1_555 1_555
C6_3 C1_3 1_555 1_555
H2_3 C6_3 1_555 1_555
C7_3 N4_3 1_555 1_555
C8_3 N5_3 1_555 1_555
C9_3 C8_3 1_555 1_555
C10_3 C9_3 1_555 1_555
C11_3 C10_3 1_555 1_555
C12_3 C7_3 1_555 1_555
C13_3 C12_3 1_555 1_555
H3_3 C13_3 1_555 1_555
H4_3 C13_3 1_555 1_555
H5_3 C13_3 1_555 1_555
C14_3 C12_3 1_555 1_555
H6_3 C14_3 1_555 1_555
H7_3 C14_3 1_555 1_555
H8_3 C14_3 1_555 1_555
C15_3 N7_3 1_555 1_555
C16_3 N6_3 1_555 1_555
C17_3 C16_3 1_555 1_555
H9_3 C17_3 1_555 1_555
C18_3 N8_3 1_555 1_555
C19_3 C18_3 1_555 1_555
C20_3 C15_3 1_555 1_555
H10_3 C20_3 1_555 1_555
C21_3 C9_3 1_555 1_555
H11_3 C21_3 1_555 1_555
H12_3 C21_3 1_555 1_555
H13_3 C21_3 1_555 1_555
C22_3 C9_3 1_555 1_555
H14_3 C22_3 1_555 1_555
H15_3 C22_3 1_555 1_555
H16_3 C22_3 1_555 1_555
N18_3 Cu3_4 1_555 1_555
N25_2 N18_3 1_555 1_555
H25_3 C39_3 1_555 1_555
C40_3 N18_3 1_555 1_555
H27_3 C43_3 1_555 1_555
H28_3 C43_3 1_555 1_555
H29_3 C43_3 1_555 1_555
Cu6 N10_2 1_555 1_555
N27_2 Cu5 1_555 1_555
C5_3 C6_3 1_555 1_555
C7_3 C8_3 1_555 1_555
C11_3 C12_3 1_555 1_555
C15_3 C16_3 1_555 1_555
C17_3 C18_3 1_555 1_555
C19_3 C20_3 1_555 1_555
C39_3 C40_3 1_555 1_555
Cu9 N11_3 1_555 1_555
N11_3 N12 1_555 1_555
N12 N23 1_555 1_555
N23 C24_3 1_555 1_555
N14_3 C27_3 1_555 1_555
N15_3 C26_3 1_555 1_555
N17_3 C33_3 1_555 1_555
C23_3 N11_3 1_555 1_555
C24_3 C23_3 1_555 1_555
C25_3 C24_3 1_555 1_555
C26_3 C25_3 1_555 1_555
C27_3 C26_3 1_555 1_555
C28_3 C23_3 1_555 1_555
H18_3 C28_3 1_555 1_555
C29_3 N14_3 1_555 1_555
C30_3 N15_3 1_555 1_555
C31_3 C30_3 1_555 1_555
C32_3 C31_3 1_555 1_555
C33_3 C32_3 1_555 1_555
C34_3 C29_3 1_555 1_555
C35_3 C34_3 1_555 1_555
H19_3 C35_3 1_555 1_555
H20_3 C35_3 1_555 1_555
H21_3 C35_3 1_555 1_555
C36_3 C34_3 1_555 1_555
H22_3 C36_3 1_555 1_555
H23_3 C36_3 1_555 1_555
H24_3 C36_3 1_555 1_555
C37_3 N17_3 1_555 1_555
C41_3 N20_2 1_555 1_555
C42_3 C37_3 1_555 1_555
H26_3 C42_3 1_555 1_555
C44_3 C31_3 1_555 1_555
H30_3 C44_3 1_555 1_555
H31_3 C44_3 1_555 1_555
H32_3 C44_3 1_555 1_555
Cu5_2 N12 1_555 1_555
Cu6 N20_2 1_555 1_555
C27_3 C28_3 1_555 1_555
C29_3 C30_3 1_555 1_555
C33_3 C34_3 1_555 1_555
C37_3 C38_3 1_555 1_555
C41_3 C42_3 1_555 1_555
N26_2 Cu5_2 1_555 1_555
N18_4 Cu3_5 1_555 1_555
H25_4 C39_4 1_555 1_555
C40_4 N18_4 1_555 1_555
H27_4 C43_4 1_555 1_555
H28_4 C43_4 1_555 1_555
H29_4 C43_4 1_555 1_555
C39_4 C40_4 1_555 1_555
Cu11 N11_4 1_555 1_555
N11_4 N12_2 1_555 1_555
N12_2 N23_2 1_555 1_555
N23_2 C24_4 1_555 1_555
N14_4 C27_4 1_555 1_555
N15_4 C26_4 1_555 1_555
N17_4 C33_4 1_555 1_555
C23_4 N11_4 1_555 1_555
C24_4 C23_4 1_555 1_555
C25_4 C24_4 1_555 1_555
C26_4 C25_4 1_555 1_555
C27_4 C26_4 1_555 1_555
C28_4 C23_4 1_555 1_555
H18_4 C28_4 1_555 1_555
C29_4 N14_4 1_555 1_555
C30_4 N15_4 1_555 1_555
C31_4 C30_4 1_555 1_555
C32_4 C31_4 1_555 1_555
C33_4 C32_4 1_555 1_555
C34_4 C29_4 1_555 1_555
C35_4 C34_4 1_555 1_555
H19_4 C35_4 1_555 1_555
H20_4 C35_4 1_555 1_555
H21_4 C35_4 1_555 1_555
C36_4 C34_4 1_555 1_555
H22_4 C36_4 1_555 1_555
H23_4 C36_4 1_555 1_555
H24_4 C36_4 1_555 1_555
C37_4 N17_4 1_555 1_555
C41_4 N27_2 1_555 1_555
C42_4 C37_4 1_555 1_555
H26_4 C42_4 1_555 1_555
C44_4 C31_4 1_555 1_555
H30_4 C44_4 1_555 1_555
H31_4 C44_4 1_555 1_555
C27_4 C28_4 1_555 1_555
C29_4 C30_4 1_555 1_555
C33_4 C34_4 1_555 1_555
C37_4 C38_4 1_555 1_555
C41_4 C42_4 1_555 1_555
Cu10 N1_4 1_555 1_555
Cu3_6 N8_4 1_555 1_555
N1_4 N2_4 1_555 1_555
N2_4 N22_2 1_555 1_555
N22_2 C2_4 1_555 1_555
N4_4 C5_4 1_555 1_555
N5_4 C4_4 1_555 1_555
N6_4 C10_4 1_555 1_555
N7_4 C11_4 1_555 1_555
N26_2 C19_4 1_555 1_555
C1_4 N1_4 1_555 1_555
C2_4 C1_4 1_555 1_555
C3_4 C2_4 1_555 1_555
H1_4 C3_4 1_555 1_555
C4_4 C3_4 1_555 1_555
C5_4 C4_4 1_555 1_555
C6_4 C1_4 1_555 1_555
H2_4 C6_4 1_555 1_555
C7_4 N4_4 1_555 1_555
C8_4 N5_4 1_555 1_555
C9_4 C8_4 1_555 1_555
C10_4 C9_4 1_555 1_555
C11_4 C10_4 1_555 1_555
C12_4 C7_4 1_555 1_555
C13_4 C12_4 1_555 1_555
H3_4 C13_4 1_555 1_555
H4_4 C13_4 1_555 1_555
H5_4 C13_4 1_555 1_555
C14_4 C12_4 1_555 1_555
H6_4 C14_4 1_555 1_555
H7_4 C14_4 1_555 1_555
H8_4 C14_4 1_555 1_555
C15_4 N7_4 1_555 1_555
C16_4 N6_4 1_555 1_555
C17_4 C16_4 1_555 1_555
H9_4 C17_4 1_555 1_555
C18_4 N8_4 1_555 1_555
C19_4 C18_4 1_555 1_555
C20_4 C15_4 1_555 1_555
H10_4 C20_4 1_555 1_555
C21_4 C9_4 1_555 1_555
H11_4 C21_4 1_555 1_555
H12_4 C21_4 1_555 1_555
H13_4 C21_4 1_555 1_555
C22_4 C9_4 1_555 1_555
H14_4 C22_4 1_555 1_555
H15_4 C22_4 1_555 1_555
C5_4 C6_4 1_555 1_555
C7_4 C8_4 1_555 1_555
C11_4 C12_4 1_555 1_555
C15_4 C16_4 1_555 1_555
C17_4 C18_4 1_555 1_555
C19_4 C20_4 1_555 1_555

#END
