
###############################################################################
#
# This file contains modified crystal structure data generated from the
# MOF subset of the Cambridge Structural Database (CSD) v543 
# hosted by the Cambridge Crystallographic Data Centre (CCDC).
#
# This work is licensed under the Creative Commons
# Attribution-NonCommercial-ShareAlike 4.0 International License.
# To view a copy of this license, visit
# http://creativecommons.org/licenses/by-nc-sa/4.0/
# or send a letter to
# Creative Commons, PO Box 1866, Mountain View, CA 94042, USA.
#
# CIF created using the CSD Python API on 29 September 2022
# The structure has been converted into the P1 space group
# The structure has a 3D framework
# The original CSD entry URUWAH is in the monoclinic crystal system
# The framework has been calculated to contain at least 10.0% void space
# The void calculation uses a probe of radius 1.32A, grid spacing 0.4
#
###############################################################################

data_URUWAH
_chemical_formula_moiety         '(C176 H128 Cu10 N76)n'
_symmetry_cell_setting           triclinic
_symmetry_space_group_name_H-M   'P 1'
_symmetry_Int_Tables_number      1
_space_group_name_Hall           'P 1'
loop_
_symmetry_equiv_pos_site_id
_symmetry_equiv_pos_as_xyz
1 x,y,z
_cell_length_a                   27.4916(12)
_cell_length_b                   23.6639(11)
_cell_length_c                   11.0002(5)
_cell_angle_alpha                90
_cell_angle_beta                 93.7500(14)
_cell_angle_gamma                90
_cell_volume                     7140.95
loop_
_atom_site_label
_atom_site_type_symbol
_atom_site_fract_x
_atom_site_fract_y
_atom_site_fract_z
Cu2 Cu -0.0000 0.54057(2) 0.2500
N21 N 0.06041(10) 0.49612(11) 0.2212(3)
N24 N 0.01568(10) 0.59041(11) 0.3973(3)
N11 N 0.08249(10) 0.49383(11) 0.1153(2)
C23 C 0.12050(13) 0.45702(14) 0.1349(3)
C24 C 0.11994(13) 0.43741(15) 0.2567(3)
N13 N 0.08182(10) 0.46423(12) 0.3074(3)
C25 C 0.15417(13) 0.40017(15) 0.3063(3)
H17 H 0.1533 0.3872 0.3879
N14 N 0.22750(12) 0.34782(13) 0.2784(3)
C26 C 0.19052(14) 0.38226(16) 0.2307(3)
N15 N 0.22690(11) 0.38423(13) 0.0350(3)
C27 C 0.19057(14) 0.40143(16) 0.1067(3)
N16 N 0.36030(12) 0.22617(14) 0.2148(3)
C28 C 0.15537(13) 0.43926(15) 0.0588(3)
C29 C 0.26265(15) 0.33381(16) 0.2088(3)
N18 N 0.48432(10) 0.09041(11) 0.1027(3)
C30 C 0.30558(15) 0.30169(17) 0.2680(4)
C31 C 0.33281(14) 0.26860(16) 0.1741(3)
C32 C 0.33167(14) 0.28685(16) 0.0483(4)
C34 C 0.26154(14) 0.35189(16) 0.0831(3)
C35 C 0.28922(16) 0.26183(18) 0.3690(4)
H19 H 0.2742 0.2841 0.4317
H20 H 0.3176 0.2416 0.4057
H21 H 0.2655 0.2346 0.3336
C36 C 0.34113(16) 0.34543(19) 0.3244(4)
H22 H 0.3510 0.3712 0.2608
H23 H 0.3699 0.3262 0.3616
H24 H 0.3252 0.3669 0.3868
H29 H 0.3504 0.3962 0.0632
C39 C 0.38946(13) 0.19918(16) 0.1328(3)
C40 C 0.41911(13) 0.15606(15) 0.1751(3)
H31 H 0.4194 0.1430 0.2568
C41 C 0.44899(12) 0.13253(15) 0.0902(3)
C44 C 0.38786(14) 0.21803(16) 0.0085(3)
Cu7 Cu 0.059179(15) 0.465991(18) 0.47027(4)
Cu11 Cu 0.5000 0.04057(2) 0.2500
Cu1 Cu 0.940821(15) 0.534009(18) 0.52973(4)
N1 N 0.91751(10) 0.49383(11) 0.3847(2)
C1 C 0.87950(13) 0.45702(14) 0.3651(3)
Cu2_2 Cu 1.0000 0.54057(2) 0.2500
N2 N 0.93959(10) 0.49612(11) 0.2788(3)
C2 C 0.88006(13) 0.43741(15) 0.2433(3)
Cu3 Cu 0.5000 0.12132(3) 0.7500
N3 N 0.91818(10) 0.46423(12) 0.1926(3)
C3 C 0.84583(13) 0.40017(15) 0.1937(3)
H1 H 0.8467 0.3872 0.1121
N4 N 0.77250(12) 0.34782(13) 0.2216(3)
C4 C 0.80948(14) 0.38226(16) 0.2693(3)
N5 N 0.77310(11) 0.38423(13) 0.4650(3)
C5 C 0.80943(14) 0.40143(16) 0.3933(3)
N6 N 0.63970(12) 0.22617(14) 0.2852(3)
C6 C 0.84463(13) 0.43926(15) 0.4412(3)
H2 H 0.8446 0.4523 0.5229
N7 N 0.64178(12) 0.26204(14) 0.5307(3)
C7 C 0.73735(15) 0.33381(16) 0.2912(3)
N8 N 0.51568(10) 0.09041(11) 0.3973(3)
C8 C 0.69442(15) 0.30169(17) 0.2320(4)
N9 N 0.49702(10) 0.08487(12) 0.5032(3)
C9 C 0.66719(14) 0.26860(16) 0.3259(3)
N10 N 0.51700(10) 0.12025(12) 0.5878(3)
C10 C 0.66833(14) 0.28685(16) 0.4517(4)
C11 C 0.69890(15) 0.33550(17) 0.5023(4)
C12 C 0.73846(14) 0.35189(16) 0.4169(3)
C13 C 0.71078(16) 0.26183(18) 0.1310(4)
H3 H 0.7258 0.2841 0.0683
H4 H 0.6824 0.2416 0.0943
H5 H 0.7345 0.2346 0.1664
C14 C 0.65887(16) 0.34543(19) 0.1756(4)
H6 H 0.6490 0.3712 0.2392
H7 H 0.6301 0.3262 0.1384
H8 H 0.6748 0.3669 0.1132
C15 C 0.72306(16) 0.31964(19) 0.6255(4)
H9 H 0.6980 0.3090 0.6807
H10 H 0.7416 0.3520 0.6595
H11 H 0.7452 0.2877 0.6160
C16 C 0.66587(17) 0.38670(18) 0.5161(5)
H12 H 0.6413 0.3778 0.5739
H13 H 0.6496 0.3962 0.4368
H14 H 0.6855 0.4189 0.5465
C17 C 0.61054(13) 0.19918(16) 0.3672(3)
C18 C 0.58089(13) 0.15606(15) 0.3249(3)
H15 H 0.5806 0.1430 0.2432
C19 C 0.55101(12) 0.13253(15) 0.4098(3)
C20 C 0.55155(13) 0.15128(15) 0.5313(3)
C21 C 0.58255(13) 0.19388(15) 0.5760(3)
H16 H 0.5836 0.2058 0.6586
C22 C 0.61214(14) 0.21803(16) 0.4915(3)
Cu4 Cu 0.059179(15) 0.534009(18) 0.97027(4)
H18 H 0.1554 0.4523 0.9771
N17 N 0.35822(12) 0.26204(14) 0.9693(3)
N19 N 0.50298(10) 0.08487(12) 0.9968(3)
N20 N 0.48300(10) 0.12025(12) 0.9122(3)
C33 C 0.30110(15) 0.33550(17) 0.9977(4)
C37 C 0.27694(16) 0.31964(19) 0.8745(4)
H25 H 0.3020 0.3090 0.8193
H26 H 0.2584 0.3520 0.8405
H27 H 0.2548 0.2877 0.8840
C38 C 0.33413(17) 0.38670(18) 0.9839(5)
H28 H 0.3587 0.3778 0.9261
H30 H 0.3145 0.4189 0.9535
C42 C 0.44845(13) 0.15128(15) 0.9687(3)
C43 C 0.41745(13) 0.19388(15) 0.9240(3)
H32 H 0.4164 0.2058 0.8414
Cu5 Cu 0.440821(15) 0.034009(18) 0.52973(4)
Cu6 Cu 0.559179(15) 0.034009(18) 0.97027(4)
Cu8 Cu 0.940821(15) 0.465991(18) 0.02973(4)
N22 N 0.08182(10) 0.53577(12) 0.8074(3)
N23 N 0.91818(10) 0.53577(12) 0.6926(3)
N25 N 0.98432(10) 0.59041(11) 0.1027(3)
N26 N 0.99702(10) 0.58487(12) 0.5032(3)
N27 N 0.00298(10) 0.58487(12) 0.9968(3)
N23_2 N 0.41818(10) 0.03577(12) 0.6926(3)
N1_2 N 0.41751(10) 0.99383(11) 0.3847(2)
C1_2 C 0.37950(13) 0.95702(14) 0.3651(3)
N2_2 N 0.43959(10) 0.99612(11) 0.2788(3)
C2_2 C 0.38006(13) 0.93741(15) 0.2433(3)
Cu3_2 Cu -0.0000 0.62132(3) 0.7500
N3_2 N 0.41818(10) 0.96423(12) 0.1926(3)
C3_2 C 0.34583(13) 0.90017(15) 0.1937(3)
H1_2 H 0.3467 0.8872 0.1121
N4_2 N 0.27250(12) 0.84782(13) 0.2216(3)
C4_2 C 0.30948(14) 0.88226(16) 0.2693(3)
N5_2 N 0.27310(11) 0.88423(13) 0.4650(3)
C5_2 C 0.30943(14) 0.90143(16) 0.3933(3)
N6_2 N 0.13970(12) 0.72617(14) 0.2852(3)
C6_2 C 0.34463(13) 0.93926(15) 0.4412(3)
H2_2 H 0.3446 0.9523 0.5229
N7_2 N 0.14178(12) 0.76204(14) 0.5307(3)
C7_2 C 0.23735(15) 0.83381(16) 0.2912(3)
C8_2 C 0.19442(15) 0.80169(17) 0.2320(4)
C9_2 C 0.16719(14) 0.76860(16) 0.3259(3)
N10_2 N 0.01700(10) 0.62025(12) 0.5878(3)
C10_2 C 0.16833(14) 0.78685(16) 0.4517(4)
C11_2 C 0.19890(15) 0.83550(17) 0.5023(4)
C12_2 C 0.23846(14) 0.85189(16) 0.4169(3)
C13_2 C 0.21078(16) 0.76183(18) 0.1310(4)
H3_2 H 0.2258 0.7841 0.0683
H4_2 H 0.1824 0.7416 0.0943
H5_2 H 0.2345 0.7346 0.1664
C14_2 C 0.15887(16) 0.84543(19) 0.1756(4)
H6_2 H 0.1490 0.8712 0.2392
H7_2 H 0.1301 0.8262 0.1384
H8_2 H 0.1748 0.8669 0.1132
C15_2 C 0.22306(16) 0.81964(19) 0.6255(4)
H9_2 H 0.1980 0.8090 0.6807
H10_2 H 0.2416 0.8520 0.6595
H11_2 H 0.2452 0.7877 0.6160
C16_2 C 0.16587(17) 0.88670(18) 0.5161(5)
H12_2 H 0.1413 0.8778 0.5739
H13_2 H 0.1496 0.8962 0.4368
H14_2 H 0.1855 0.9189 0.5465
C17_2 C 0.11054(13) 0.69918(16) 0.3672(3)
C18_2 C 0.08089(13) 0.65606(15) 0.3249(3)
H15_2 H 0.0806 0.6430 0.2432
C19_2 C 0.05101(12) 0.63253(15) 0.4098(3)
C20_2 C 0.05155(13) 0.65128(15) 0.5313(3)
C21_2 C 0.08255(13) 0.69388(15) 0.5760(3)
H16_2 H 0.0836 0.7058 0.6586
C22_2 C 0.11214(14) 0.71803(16) 0.4915(3)
Cu8_2 Cu 0.440821(15) 0.965991(18) 0.02973(4)
N21_2 N 0.56041(10) 0.99612(11) 0.2212(3)
N22_2 N 0.58182(10) 0.03577(12) 0.8074(3)
N11_2 N 0.58249(10) 0.99383(11) 0.1153(2)
C23_2 C 0.62050(13) 0.95702(14) 0.1349(3)
C24_2 C 0.61994(13) 0.93741(15) 0.2567(3)
N13_2 N 0.58182(10) 0.96423(12) 0.3074(3)
C25_2 C 0.65417(13) 0.90017(15) 0.3063(3)
H17_2 H 0.6533 0.8872 0.3879
N14_2 N 0.72750(12) 0.84782(13) 0.2784(3)
C26_2 C 0.69052(14) 0.88226(16) 0.2307(3)
N15_2 N 0.72690(11) 0.88423(13) 0.0350(3)
C27_2 C 0.69057(14) 0.90143(16) 0.1067(3)
N16_2 N 0.86030(12) 0.72617(14) 0.2148(3)
C28_2 C 0.65537(13) 0.93926(15) 0.0588(3)
C29_2 C 0.76265(15) 0.83381(16) 0.2088(3)
C30_2 C 0.80558(15) 0.80169(17) 0.2680(4)
C31_2 C 0.83281(14) 0.76860(16) 0.1741(3)
C32_2 C 0.83167(14) 0.78685(16) 0.0483(4)
C34_2 C 0.76154(14) 0.85189(16) 0.0831(3)
C35_2 C 0.78922(16) 0.76183(18) 0.3690(4)
H19_2 H 0.7742 0.7841 0.4317
H20_2 H 0.8176 0.7416 0.4057
H21_2 H 0.7655 0.7346 0.3336
C36_2 C 0.84113(16) 0.84543(19) 0.3244(4)
H22_2 H 0.8510 0.8712 0.2608
H23_2 H 0.8699 0.8262 0.3616
H24_2 H 0.8252 0.8669 0.3868
H29_2 H 0.8504 0.8962 0.0632
C39_2 C 0.88946(13) 0.69918(16) 0.1328(3)
C40_2 C 0.91911(13) 0.65606(15) 0.1751(3)
H31_2 H 0.9194 0.6430 0.2568
C41_2 C 0.94899(12) 0.63253(15) 0.0902(3)
C44_2 C 0.88786(14) 0.71803(16) 0.0085(3)
Cu7_2 Cu 0.559179(15) 0.965991(18) 0.47027(4)
Cu3_3 Cu 1.0000 0.62132(3) 0.7500
H18_2 H 0.6554 0.9523 0.9771
N17_2 N 0.85822(12) 0.76204(14) 0.9693(3)
N20_2 N 0.98300(10) 0.62025(12) 0.9122(3)
C33_2 C 0.80110(15) 0.83550(17) 0.9977(4)
C37_2 C 0.77694(16) 0.81964(19) 0.8745(4)
H25_2 H 0.8020 0.8090 0.8193
H26_2 H 0.7584 0.8520 0.8405
H27_2 H 0.7548 0.7877 0.8840
C38_2 C 0.83413(17) 0.88670(18) 0.9839(5)
H28_2 H 0.8587 0.8778 0.9261
H30_2 H 0.8145 0.9189 0.9535
C42_2 C 0.94845(13) 0.65128(15) 0.9687(3)
C43_2 C 0.91745(13) 0.69388(15) 0.9240(3)
H32_2 H 0.9164 0.7058 0.8414
Cu9 Cu 0.0000 0.45943(2) 0.7500
N1_3 N 0.08249(10) 0.50617(11) 0.6153(2)
C1_3 C 0.12050(13) 0.54298(14) 0.6349(3)
N2_3 N 0.06041(10) 0.50388(11) 0.7212(3)
C2_3 C 0.11994(13) 0.56259(15) 0.7567(3)
Cu3_4 Cu 0.5000 0.87868(3) 0.2500
C3_3 C 0.15417(13) 0.59983(15) 0.8063(3)
H1_3 H 0.1533 0.6128 0.8879
N4_3 N 0.22750(12) 0.65218(13) 0.7784(3)
C4_3 C 0.19052(14) 0.61774(16) 0.7307(3)
N5_3 N 0.22690(11) 0.61577(13) 0.5350(3)
C5_3 C 0.19057(14) 0.59857(16) 0.6067(3)
N6_3 N 0.36030(12) 0.77383(14) 0.7148(3)
C6_3 C 0.15537(13) 0.56074(15) 0.5588(3)
H2_3 H 0.1554 0.5477 0.4771
N7_3 N 0.35822(12) 0.73796(14) 0.4693(3)
C7_3 C 0.26265(15) 0.66619(16) 0.7088(3)
N8_2 N 0.48432(10) 0.90959(11) 0.6027(3)
C8_3 C 0.30558(15) 0.69831(17) 0.7680(4)
N9_2 N 0.50298(10) 0.91513(12) 0.4968(3)
C9_3 C 0.33281(14) 0.73140(16) 0.6741(3)
N10_3 N 0.48300(10) 0.87975(12) 0.4122(3)
C10_3 C 0.33167(14) 0.71315(16) 0.5483(4)
C11_3 C 0.30110(15) 0.66450(17) 0.4977(4)
C12_3 C 0.26154(14) 0.64811(16) 0.5831(3)
C13_3 C 0.28922(16) 0.73817(18) 0.8690(4)
H3_3 H 0.2742 0.7159 0.9317
H4_3 H 0.3176 0.7584 0.9057
H5_3 H 0.2655 0.7654 0.8336
C14_3 C 0.34113(16) 0.65457(19) 0.8244(4)
H6_3 H 0.3510 0.6288 0.7608
H7_3 H 0.3699 0.6738 0.8616
H8_3 H 0.3252 0.6331 0.8868
C15_3 C 0.27694(16) 0.68036(19) 0.3745(4)
H9_3 H 0.3020 0.6910 0.3193
H10_3 H 0.2584 0.6480 0.3405
H11_3 H 0.2548 0.7123 0.3840
C16_3 C 0.33413(17) 0.61330(18) 0.4839(5)
H12_3 H 0.3587 0.6222 0.4261
H13_3 H 0.3504 0.6038 0.5632
H14_3 H 0.3145 0.5811 0.4535
C17_3 C 0.38946(13) 0.80082(16) 0.6328(3)
C18_3 C 0.41911(13) 0.84394(15) 0.6751(3)
H15_3 H 0.4194 0.8570 0.7568
C19_3 C 0.44899(12) 0.86747(15) 0.5902(3)
C20_3 C 0.44845(13) 0.84872(15) 0.4687(3)
C21_3 C 0.41745(13) 0.80612(15) 0.4240(3)
H16_3 H 0.4164 0.7942 0.3414
C22_3 C 0.38786(14) 0.78197(16) 0.5085(3)
H18_3 H 0.8446 0.5477 0.0229
N17_3 N 0.64178(12) 0.73796(14) 0.0307(3)
N19_2 N 0.49702(10) 0.91513(12) 0.0032(3)
N20_3 N 0.51700(10) 0.87975(12) 0.0878(3)
C33_3 C 0.69890(15) 0.66450(17) 0.0023(4)
C37_3 C 0.72306(16) 0.68036(19) 0.1255(4)
H25_3 H 0.6980 0.6910 0.1807
H26_3 H 0.7416 0.6480 0.1595
H27_3 H 0.7452 0.7123 0.1160
C38_3 C 0.66587(17) 0.61330(18) 0.0161(5)
H28_3 H 0.6413 0.6222 0.0739
H30_3 H 0.6855 0.5811 0.0465
C42_3 C 0.55155(13) 0.84872(15) 0.0313(3)
C43_3 C 0.58255(13) 0.80612(15) 0.0760(3)
H32_3 H 0.5836 0.7942 0.1586
Cu10 Cu 0.5000 0.95943(2) 0.7500
N25_2 N 0.01568(10) 0.40959(11) 0.8973(3)
N26_2 N 0.00298(10) 0.41513(12) 0.4968(3)
N27_2 N 0.99702(10) 0.41513(12) 0.0032(3)
N11_3 N 0.91751(10) 0.50617(11) 0.8847(2)
C23_3 C 0.87950(13) 0.54298(14) 0.8651(3)
N12 N 0.93959(10) 0.50388(11) 0.7788(3)
C24_3 C 0.88006(13) 0.56259(15) 0.7433(3)
C25_3 C 0.84583(13) 0.59983(15) 0.6937(3)
H17_3 H 0.8467 0.6128 0.6121
N14_3 N 0.77250(12) 0.65218(13) 0.7216(3)
C26_3 C 0.80948(14) 0.61774(16) 0.7693(3)
N15_3 N 0.77310(11) 0.61577(13) 0.9650(3)
C27_3 C 0.80943(14) 0.59857(16) 0.8933(3)
N16_3 N 0.63970(12) 0.77383(14) 0.7852(3)
C28_3 C 0.84463(13) 0.56074(15) 0.9412(3)
C29_3 C 0.73735(15) 0.66619(16) 0.7912(3)
N18_2 N 0.51568(10) 0.90959(11) 0.8973(3)
C30_3 C 0.69442(15) 0.69831(17) 0.7320(4)
C31_3 C 0.66719(14) 0.73140(16) 0.8259(3)
C32_3 C 0.66833(14) 0.71315(16) 0.9517(4)
C34_3 C 0.73846(14) 0.64811(16) 0.9169(3)
C35_3 C 0.71078(16) 0.73817(18) 0.6310(4)
H19_3 H 0.7258 0.7159 0.5683
H20_3 H 0.6824 0.7584 0.5943
H21_3 H 0.7345 0.7654 0.6664
C36_3 C 0.65887(16) 0.65457(19) 0.6756(4)
H22_3 H 0.6490 0.6288 0.7392
H23_3 H 0.6301 0.6738 0.6384
H24_3 H 0.6748 0.6331 0.6132
H29_3 H 0.6496 0.6038 0.9368
C39_3 C 0.61054(13) 0.80082(16) 0.8672(3)
C40_3 C 0.58089(13) 0.84394(15) 0.8249(3)
H31_3 H 0.5806 0.8570 0.7432
C41_3 C 0.55101(12) 0.86747(15) 0.9098(3)
C44_3 C 0.61214(14) 0.78197(16) 0.9915(3)
Cu9_2 Cu 1.0000 0.45943(2) 0.7500
N24_2 N 0.98432(10) 0.40959(11) 0.6027(3)
Cu3_5 Cu 0.0000 0.37868(3) 0.2500
H18_4 H 0.3446 0.0477 0.0229
N17_4 N 0.14178(12) 0.23796(14) 0.0307(3)
N20_4 N 0.01700(10) 0.37975(12) 0.0878(3)
C33_4 C 0.19890(15) 0.16450(17) 0.0023(4)
C37_4 C 0.22306(16) 0.18036(19) 0.1255(4)
H25_4 H 0.1980 0.1910 0.1807
H26_4 H 0.2416 0.1480 0.1595
H27_4 H 0.2452 0.2123 0.1160
C38_4 C 0.16587(17) 0.11330(18) 0.0161(5)
H28_4 H 0.1413 0.1222 0.0739
H30_4 H 0.1855 0.0811 0.0465
C42_4 C 0.05155(13) 0.34872(15) 0.0313(3)
C43_4 C 0.08255(13) 0.30612(15) 0.0760(3)
H32_4 H 0.0836 0.2942 0.1586
N11_4 N 0.41751(10) 0.00617(11) 0.8847(2)
C23_4 C 0.37950(13) 0.04298(14) 0.8651(3)
N12_2 N 0.43959(10) 0.00388(11) 0.7788(3)
C24_4 C 0.38006(13) 0.06259(15) 0.7433(3)
C25_4 C 0.34583(13) 0.09983(15) 0.6937(3)
H17_4 H 0.3467 0.1128 0.6121
N14_4 N 0.27250(12) 0.15218(13) 0.7216(3)
C26_4 C 0.30948(14) 0.11774(16) 0.7693(3)
N15_4 N 0.27310(11) 0.11577(13) 0.9650(3)
C27_4 C 0.30943(14) 0.09857(16) 0.8933(3)
N16_4 N 0.13970(12) 0.27383(14) 0.7852(3)
C28_4 C 0.34463(13) 0.06074(15) 0.9412(3)
C29_4 C 0.23735(15) 0.16619(16) 0.7912(3)
C30_4 C 0.19442(15) 0.19831(17) 0.7320(4)
C31_4 C 0.16719(14) 0.23140(16) 0.8259(3)
C32_4 C 0.16833(14) 0.21315(16) 0.9517(4)
C34_4 C 0.23846(14) 0.14811(16) 0.9169(3)
C35_4 C 0.21078(16) 0.23817(18) 0.6310(4)
H19_4 H 0.2258 0.2159 0.5683
H20_4 H 0.1824 0.2584 0.5943
H21_4 H 0.2345 0.2654 0.6664
C36_4 C 0.15887(16) 0.15457(19) 0.6756(4)
H22_4 H 0.1490 0.1288 0.7392
H23_4 H 0.1301 0.1738 0.6384
H24_4 H 0.1748 0.1331 0.6132
H29_4 H 0.1496 0.1038 0.9368
C39_4 C 0.11054(13) 0.30082(16) 0.8672(3)
C40_4 C 0.08089(13) 0.34394(15) 0.8249(3)
H31_4 H 0.0806 0.3570 0.7432
C41_4 C 0.05101(12) 0.36747(15) 0.9098(3)
C44_4 C 0.11214(14) 0.28197(16) 0.9915(3)
N1_4 N 0.58249(10) 0.00617(11) 0.6153(2)
C1_4 C 0.62050(13) 0.04298(14) 0.6349(3)
N2_4 N 0.56041(10) 0.00388(11) 0.7212(3)
C2_4 C 0.61994(13) 0.06259(15) 0.7567(3)
Cu3_6 Cu 1.0000 0.37868(3) 0.2500
C3_4 C 0.65417(13) 0.09983(15) 0.8063(3)
H1_4 H 0.6533 0.1128 0.8879
N4_4 N 0.72750(12) 0.15218(13) 0.7784(3)
C4_4 C 0.69052(14) 0.11774(16) 0.7307(3)
N5_4 N 0.72690(11) 0.11577(13) 0.5350(3)
C5_4 C 0.69057(14) 0.09857(16) 0.6067(3)
N6_4 N 0.86030(12) 0.27383(14) 0.7148(3)
C6_4 C 0.65537(13) 0.06074(15) 0.5588(3)
H2_4 H 0.6554 0.0477 0.4771
N7_4 N 0.85822(12) 0.23796(14) 0.4693(3)
C7_4 C 0.76265(15) 0.16619(16) 0.7088(3)
C8_4 C 0.80558(15) 0.19831(17) 0.7680(4)
C9_4 C 0.83281(14) 0.23140(16) 0.6741(3)
N10_4 N 0.98300(10) 0.37975(12) 0.4122(3)
C10_4 C 0.83167(14) 0.21315(16) 0.5483(4)
C11_4 C 0.80110(15) 0.16450(17) 0.4977(4)
C12_4 C 0.76154(14) 0.14811(16) 0.5831(3)
C13_4 C 0.78922(16) 0.23817(18) 0.8690(4)
H3_4 H 0.7742 0.2159 0.9317
H4_4 H 0.8176 0.2584 0.9057
H5_4 H 0.7655 0.2654 0.8336
C14_4 C 0.84113(16) 0.15457(19) 0.8244(4)
H6_4 H 0.8510 0.1288 0.7608
H7_4 H 0.8699 0.1738 0.8616
H8_4 H 0.8252 0.1331 0.8868
C15_4 C 0.77694(16) 0.18036(19) 0.3745(4)
H9_4 H 0.8020 0.1910 0.3193
H10_4 H 0.7584 0.1480 0.3405
H11_4 H 0.7548 0.2123 0.3840
C16_4 C 0.83413(17) 0.11330(18) 0.4839(5)
H12_4 H 0.8587 0.1222 0.4261
H13_4 H 0.8504 0.1038 0.5632
H14_4 H 0.8145 0.0811 0.4535
C17_4 C 0.88946(13) 0.30082(16) 0.6328(3)
C18_4 C 0.91911(13) 0.34394(15) 0.6751(3)
H15_4 H 0.9194 0.3570 0.7568
C19_4 C 0.94899(12) 0.36747(15) 0.5902(3)
C20_4 C 0.94845(13) 0.34872(15) 0.4687(3)
C21_4 C 0.91745(13) 0.30612(15) 0.4240(3)
H16_4 H 0.9164 0.2942 0.3414
C22_4 C 0.88786(14) 0.28197(16) 0.5085(3)
loop_
_geom_bond_atom_site_label_1
_geom_bond_atom_site_label_2
_geom_bond_site_symmetry_1
_geom_bond_site_symmetry_2
N21 Cu2 1_555 1_555
N24 Cu2 1_555 1_555
N11 C23 1_555 1_555
C23 C24 1_555 1_555
N21 N11 1_555 1_555
C24 N13 1_555 1_555
N13 N21 1_555 1_555
C25 C24 1_555 1_555
H17 C25 1_555 1_555
N14 C26 1_555 1_555
C26 C25 1_555 1_555
N15 C27 1_555 1_555
C27 C26 1_555 1_555
N16 C31 1_555 1_555
C28 C23 1_555 1_555
C29 N14 1_555 1_555
C30 C29 1_555 1_555
C31 C30 1_555 1_555
C32 C31 1_555 1_555
C34 N15 1_555 1_555
C35 C30 1_555 1_555
H19 C35 1_555 1_555
H20 C35 1_555 1_555
H21 C35 1_555 1_555
C36 C30 1_555 1_555
H22 C36 1_555 1_555
H23 C36 1_555 1_555
H24 C36 1_555 1_555
C39 N16 1_555 1_555
C40 C39 1_555 1_555
H31 C40 1_555 1_555
C41 N18 1_555 1_555
Cu7 N13 1_555 1_555
Cu11 N18 1_555 1_555
C27 C28 1_555 1_555
C29 C34 1_555 1_555
C39 C44 1_555 1_555
C40 C41 1_555 1_555
Cu1 N1 1_555 1_555
N1 C1 1_555 1_555
C1 C2 1_555 1_555
Cu2_2 N2 1_555 1_555
N2 N1 1_555 1_555
C2 N3 1_555 1_555
Cu3 N10 1_555 1_555
N3 N2 1_555 1_555
C3 C2 1_555 1_555
H1 C3 1_555 1_555
N4 C4 1_555 1_555
C4 C3 1_555 1_555
N5 C5 1_555 1_555
C5 C4 1_555 1_555
N6 C9 1_555 1_555
C6 C1 1_555 1_555
H2 C6 1_555 1_555
N7 C10 1_555 1_555
C7 N4 1_555 1_555
N8 N9 1_555 1_555
C8 C7 1_555 1_555
N9 N10 1_555 1_555
C9 C8 1_555 1_555
N10 C20 1_555 1_555
C10 C9 1_555 1_555
C11 C10 1_555 1_555
C12 N5 1_555 1_555
C13 C8 1_555 1_555
H3 C13 1_555 1_555
H4 C13 1_555 1_555
H5 C13 1_555 1_555
C14 C8 1_555 1_555
H6 C14 1_555 1_555
H7 C14 1_555 1_555
H8 C14 1_555 1_555
C15 C11 1_555 1_555
H9 C15 1_555 1_555
H10 C15 1_555 1_555
H11 C15 1_555 1_555
C16 C11 1_555 1_555
H12 C16 1_555 1_555
H13 C16 1_555 1_555
H14 C16 1_555 1_555
C17 N6 1_555 1_555
C18 C17 1_555 1_555
H15 C18 1_555 1_555
C19 N8 1_555 1_555
C20 C19 1_555 1_555
C21 C20 1_555 1_555
H16 C21 1_555 1_555
C22 N7 1_555 1_555
N19 N20 1_555 1_555
N20 Cu3 1_555 1_555
C37 C33 1_555 1_555
H25 C37 1_555 1_555
H26 C37 1_555 1_555
H27 C37 1_555 1_555
C38 C33 1_555 1_555
H28 C38 1_555 1_555
H30 C38 1_555 1_555
C42 N20 1_555 1_555
C43 C42 1_555 1_555
H32 C43 1_555 1_555
Cu5 N9 1_555 1_555
Cu6 N19 1_555 1_555
Cu8 N3 1_555 1_555
Cu11 N8 1_555 1_555
N22 Cu4 1_555 1_555
N23 Cu1 1_555 1_555
N25 Cu2_2 1_555 1_555
N26 Cu1 1_555 1_555
N27 Cu4 1_555 1_555
C5 C6 1_555 1_555
C7 C12 1_555 1_555
C11 C12 1_555 1_555
C17 C22 1_555 1_555
C18 C19 1_555 1_555
C21 C22 1_555 1_555
N23_2 Cu5 1_555 1_555
N1_2 C1_2 1_555 1_555
C1_2 C2_2 1_555 1_555
N2_2 N1_2 1_555 1_555
C2_2 N3_2 1_555 1_555
Cu3_2 N10_2 1_555 1_555
N3_2 N2_2 1_555 1_555
C3_2 C2_2 1_555 1_555
H1_2 C3_2 1_555 1_555
N4_2 C4_2 1_555 1_555
C4_2 C3_2 1_555 1_555
N5_2 C5_2 1_555 1_555
C5_2 C4_2 1_555 1_555
N6_2 C9_2 1_555 1_555
C6_2 C1_2 1_555 1_555
H2_2 C6_2 1_555 1_555
N7_2 C10_2 1_555 1_555
C7_2 N4_2 1_555 1_555
C8_2 C7_2 1_555 1_555
C9_2 C8_2 1_555 1_555
N10_2 C20_2 1_555 1_555
C10_2 C9_2 1_555 1_555
C11_2 C10_2 1_555 1_555
C12_2 N5_2 1_555 1_555
C13_2 C8_2 1_555 1_555
H3_2 C13_2 1_555 1_555
H4_2 C13_2 1_555 1_555
H5_2 C13_2 1_555 1_555
C14_2 C8_2 1_555 1_555
H6_2 C14_2 1_555 1_555
H7_2 C14_2 1_555 1_555
H8_2 C14_2 1_555 1_555
C15_2 C11_2 1_555 1_555
H9_2 C15_2 1_555 1_555
H10_2 C15_2 1_555 1_555
H11_2 C15_2 1_555 1_555
C16_2 C11_2 1_555 1_555
H12_2 C16_2 1_555 1_555
H13_2 C16_2 1_555 1_555
H14_2 C16_2 1_555 1_555
C17_2 N6_2 1_555 1_555
C18_2 C17_2 1_555 1_555
H15_2 C18_2 1_555 1_555
C19_2 N24 1_555 1_555
C20_2 C19_2 1_555 1_555
C21_2 C20_2 1_555 1_555
H16_2 C21_2 1_555 1_555
C22_2 N7_2 1_555 1_555
Cu8_2 N3_2 1_555 1_555
C5_2 C6_2 1_555 1_555
C7_2 C12_2 1_555 1_555
C11_2 C12_2 1_555 1_555
C17_2 C22_2 1_555 1_555
C18_2 C19_2 1_555 1_555
C21_2 C22_2 1_555 1_555
N22_2 Cu6 1_555 1_555
N11_2 C23_2 1_555 1_555
C23_2 C24_2 1_555 1_555
N21_2 N11_2 1_555 1_555
C24_2 N13_2 1_555 1_555
N13_2 N21_2 1_555 1_555
C25_2 C24_2 1_555 1_555
H17_2 C25_2 1_555 1_555
N14_2 C26_2 1_555 1_555
C26_2 C25_2 1_555 1_555
N15_2 C27_2 1_555 1_555
C27_2 C26_2 1_555 1_555
N16_2 C31_2 1_555 1_555
C28_2 C23_2 1_555 1_555
C29_2 N14_2 1_555 1_555
C30_2 C29_2 1_555 1_555
C31_2 C30_2 1_555 1_555
C32_2 C31_2 1_555 1_555
C34_2 N15_2 1_555 1_555
C35_2 C30_2 1_555 1_555
H19_2 C35_2 1_555 1_555
H20_2 C35_2 1_555 1_555
H21_2 C35_2 1_555 1_555
C36_2 C30_2 1_555 1_555
H22_2 C36_2 1_555 1_555
H23_2 C36_2 1_555 1_555
H24_2 C36_2 1_555 1_555
C39_2 N16_2 1_555 1_555
C40_2 C39_2 1_555 1_555
H31_2 C40_2 1_555 1_555
C41_2 N25 1_555 1_555
Cu7_2 N13_2 1_555 1_555
C27_2 C28_2 1_555 1_555
C29_2 C34_2 1_555 1_555
C39_2 C44_2 1_555 1_555
C40_2 C41_2 1_555 1_555
N20_2 Cu3_3 1_555 1_555
C37_2 C33_2 1_555 1_555
H25_2 C37_2 1_555 1_555
H26_2 C37_2 1_555 1_555
H27_2 C37_2 1_555 1_555
C38_2 C33_2 1_555 1_555
H28_2 C38_2 1_555 1_555
H30_2 C38_2 1_555 1_555
C42_2 N20_2 1_555 1_555
C43_2 C42_2 1_555 1_555
H32_2 C43_2 1_555 1_555
Cu7 N1_3 1_555 1_555
N1_3 C1_3 1_555 1_555
C1_3 C2_3 1_555 1_555
Cu9 N2_3 1_555 1_555
N2_3 N1_3 1_555 1_555
C2_3 N22 1_555 1_555
Cu3_4 N10_3 1_555 1_555
N22 N2_3 1_555 1_555
C3_3 C2_3 1_555 1_555
H1_3 C3_3 1_555 1_555
N4_3 C4_3 1_555 1_555
C4_3 C3_3 1_555 1_555
N5_3 C5_3 1_555 1_555
C5_3 C4_3 1_555 1_555
N6_3 C9_3 1_555 1_555
C6_3 C1_3 1_555 1_555
H2_3 C6_3 1_555 1_555
N7_3 C10_3 1_555 1_555
C7_3 N4_3 1_555 1_555
N8_2 N9_2 1_555 1_555
C8_3 C7_3 1_555 1_555
N9_2 N10_3 1_555 1_555
C9_3 C8_3 1_555 1_555
N10_3 C20_3 1_555 1_555
C10_3 C9_3 1_555 1_555
C11_3 C10_3 1_555 1_555
C12_3 N5_3 1_555 1_555
C13_3 C8_3 1_555 1_555
H3_3 C13_3 1_555 1_555
H4_3 C13_3 1_555 1_555
H5_3 C13_3 1_555 1_555
C14_3 C8_3 1_555 1_555
H6_3 C14_3 1_555 1_555
H7_3 C14_3 1_555 1_555
H8_3 C14_3 1_555 1_555
C15_3 C11_3 1_555 1_555
H9_3 C15_3 1_555 1_555
H10_3 C15_3 1_555 1_555
H11_3 C15_3 1_555 1_555
C16_3 C11_3 1_555 1_555
H12_3 C16_3 1_555 1_555
H13_3 C16_3 1_555 1_555
H14_3 C16_3 1_555 1_555
C17_3 N6_3 1_555 1_555
C18_3 C17_3 1_555 1_555
H15_3 C18_3 1_555 1_555
C19_3 N8_2 1_555 1_555
C20_3 C19_3 1_555 1_555
C21_3 C20_3 1_555 1_555
H16_3 C21_3 1_555 1_555
C22_3 N7_3 1_555 1_555
N19_2 N20_3 1_555 1_555
N20_3 Cu3_4 1_555 1_555
C37_3 C33_3 1_555 1_555
H25_3 C37_3 1_555 1_555
H26_3 C37_3 1_555 1_555
H27_3 C37_3 1_555 1_555
C38_3 C33_3 1_555 1_555
H28_3 C38_3 1_555 1_555
H30_3 C38_3 1_555 1_555
C42_3 N20_3 1_555 1_555
C43_3 C42_3 1_555 1_555
H32_3 C43_3 1_555 1_555
Cu7_2 N9_2 1_555 1_555
Cu8_2 N19_2 1_555 1_555
Cu10 N8_2 1_555 1_555
N25_2 Cu9 1_555 1_555
N26_2 Cu7 1_555 1_555
N27_2 Cu8 1_555 1_555
C5_3 C6_3 1_555 1_555
C7_3 C12_3 1_555 1_555
C11_3 C12_3 1_555 1_555
C17_3 C22_3 1_555 1_555
C18_3 C19_3 1_555 1_555
C21_3 C22_3 1_555 1_555
N11_3 C23_3 1_555 1_555
C23_3 C24_3 1_555 1_555
N12 N11_3 1_555 1_555
C24_3 N23 1_555 1_555
N23 N12 1_555 1_555
C25_3 C24_3 1_555 1_555
H17_3 C25_3 1_555 1_555
N14_3 C26_3 1_555 1_555
C26_3 C25_3 1_555 1_555
N15_3 C27_3 1_555 1_555
C27_3 C26_3 1_555 1_555
N16_3 C31_3 1_555 1_555
C28_3 C23_3 1_555 1_555
C29_3 N14_3 1_555 1_555
C30_3 C29_3 1_555 1_555
C31_3 C30_3 1_555 1_555
C32_3 C31_3 1_555 1_555
C34_3 N15_3 1_555 1_555
C35_3 C30_3 1_555 1_555
H19_3 C35_3 1_555 1_555
H20_3 C35_3 1_555 1_555
H21_3 C35_3 1_555 1_555
C36_3 C30_3 1_555 1_555
H22_3 C36_3 1_555 1_555
H23_3 C36_3 1_555 1_555
H24_3 C36_3 1_555 1_555
C39_3 N16_3 1_555 1_555
C40_3 C39_3 1_555 1_555
H31_3 C40_3 1_555 1_555
C41_3 N18_2 1_555 1_555
Cu9_2 N12 1_555 1_555
Cu10 N18_2 1_555 1_555
C27_3 C28_3 1_555 1_555
C29_3 C34_3 1_555 1_555
C39_3 C44_3 1_555 1_555
C40_3 C41_3 1_555 1_555
N24_2 Cu9_2 1_555 1_555
N20_4 Cu3_5 1_555 1_555
C37_4 C33_4 1_555 1_555
H25_4 C37_4 1_555 1_555
H26_4 C37_4 1_555 1_555
H27_4 C37_4 1_555 1_555
C38_4 C33_4 1_555 1_555
H28_4 C38_4 1_555 1_555
H30_4 C38_4 1_555 1_555
C42_4 N20_4 1_555 1_555
C43_4 C42_4 1_555 1_555
H32_4 C43_4 1_555 1_555
N11_4 C23_4 1_555 1_555
C23_4 C24_4 1_555 1_555
N12_2 N11_4 1_555 1_555
C24_4 N23_2 1_555 1_555
N23_2 N12_2 1_555 1_555
C25_4 C24_4 1_555 1_555
H17_4 C25_4 1_555 1_555
N14_4 C26_4 1_555 1_555
C26_4 C25_4 1_555 1_555
N15_4 C27_4 1_555 1_555
C27_4 C26_4 1_555 1_555
N16_4 C31_4 1_555 1_555
C28_4 C23_4 1_555 1_555
C29_4 N14_4 1_555 1_555
C30_4 C29_4 1_555 1_555
C31_4 C30_4 1_555 1_555
C32_4 C31_4 1_555 1_555
C34_4 N15_4 1_555 1_555
C35_4 C30_4 1_555 1_555
H19_4 C35_4 1_555 1_555
H20_4 C35_4 1_555 1_555
H21_4 C35_4 1_555 1_555
C36_4 C30_4 1_555 1_555
H22_4 C36_4 1_555 1_555
H23_4 C36_4 1_555 1_555
H24_4 C36_4 1_555 1_555
C39_4 N16_4 1_555 1_555
C40_4 C39_4 1_555 1_555
H31_4 C40_4 1_555 1_555
C41_4 N25_2 1_555 1_555
C27_4 C28_4 1_555 1_555
C29_4 C34_4 1_555 1_555
C39_4 C44_4 1_555 1_555
C40_4 C41_4 1_555 1_555
N1_4 C1_4 1_555 1_555
C1_4 C2_4 1_555 1_555
N2_4 N1_4 1_555 1_555
C2_4 N22_2 1_555 1_555
Cu3_6 N10_4 1_555 1_555
N22_2 N2_4 1_555 1_555
C3_4 C2_4 1_555 1_555
H1_4 C3_4 1_555 1_555
N4_4 C4_4 1_555 1_555
C4_4 C3_4 1_555 1_555
N5_4 C5_4 1_555 1_555
C5_4 C4_4 1_555 1_555
N6_4 C9_4 1_555 1_555
C6_4 C1_4 1_555 1_555
H2_4 C6_4 1_555 1_555
N7_4 C10_4 1_555 1_555
C7_4 N4_4 1_555 1_555
C8_4 C7_4 1_555 1_555
C9_4 C8_4 1_555 1_555
N10_4 C20_4 1_555 1_555
C10_4 C9_4 1_555 1_555
C11_4 C10_4 1_555 1_555
C12_4 N5_4 1_555 1_555
C13_4 C8_4 1_555 1_555
H3_4 C13_4 1_555 1_555
H4_4 C13_4 1_555 1_555
H5_4 C13_4 1_555 1_555
C14_4 C8_4 1_555 1_555
H6_4 C14_4 1_555 1_555
H7_4 C14_4 1_555 1_555
H8_4 C14_4 1_555 1_555
C15_4 C11_4 1_555 1_555
H9_4 C15_4 1_555 1_555
H10_4 C15_4 1_555 1_555
H11_4 C15_4 1_555 1_555
C16_4 C11_4 1_555 1_555
H12_4 C16_4 1_555 1_555
H13_4 C16_4 1_555 1_555
H14_4 C16_4 1_555 1_555
C17_4 N6_4 1_555 1_555
C18_4 C17_4 1_555 1_555
H15_4 C18_4 1_555 1_555
C19_4 N24_2 1_555 1_555
C20_4 C19_4 1_555 1_555
C21_4 C20_4 1_555 1_555
H16_4 C21_4 1_555 1_555
C22_4 N7_4 1_555 1_555
C5_4 C6_4 1_555 1_555
C7_4 C12_4 1_555 1_555
C11_4 C12_4 1_555 1_555
C17_4 C22_4 1_555 1_555
C18_4 C19_4 1_555 1_555
C21_4 C22_4 1_555 1_555

#END
