
###############################################################################
#
# This file contains modified crystal structure data generated from the
# MOF subset of the Cambridge Structural Database (CSD) v543 
# hosted by the Cambridge Crystallographic Data Centre (CCDC).
#
# This work is licensed under the Creative Commons
# Attribution-NonCommercial-ShareAlike 4.0 International License.
# To view a copy of this license, visit
# http://creativecommons.org/licenses/by-nc-sa/4.0/
# or send a letter to
# Creative Commons, PO Box 1866, Mountain View, CA 94042, USA.
#
# CIF created using the CSD Python API on 29 September 2022
# The structure has been converted into the P1 space group
# The structure has a 3D framework
# The original CSD entry URUYUD is in the cubic crystal system
# The framework has been calculated to contain at least 10.0% void space
# The void calculation uses a probe of radius 1.32A, grid spacing 0.4
# The framework is charged, counterions have been retained in the structure
#
###############################################################################

data_URUYUD
_chemical_formula_moiety         '(C1536 H1536 Cu384 N2688 O1152)n'
_symmetry_cell_setting           triclinic
_symmetry_space_group_name_H-M   'P 1'
_symmetry_Int_Tables_number      1
_space_group_name_Hall           'P 1'
loop_
_symmetry_equiv_pos_site_id
_symmetry_equiv_pos_as_xyz
1 x,y,z
_cell_length_a                   47.0072(3)
_cell_length_b                   47.0072(3)
_cell_length_c                   47.0072(3)
_cell_angle_alpha                90
_cell_angle_beta                 90
_cell_angle_gamma                90
_cell_volume                     103871
loop_
_atom_site_label
_atom_site_type_symbol
_atom_site_fract_x
_atom_site_fract_y
_atom_site_fract_z
Cu1 Cu 0.376693(9) 0.412797(9) 0.529505(9)
Cu2 Cu 0.350037(9) 0.475430(9) 0.557950(9)
N1 N 0.35846(5) 0.47281(5) 0.51647(5)
N2 N 0.37086(5) 0.44880(5) 0.50452(5)
N3 N 0.39342(5) 0.42807(5) 0.56541(5)
N4 N 0.38591(5) 0.45514(5) 0.57553(5)
N5 N 0.35839(5) 0.51677(6) 0.40799(5)
N6 N 0.38795(5) 0.51573(5) 0.40967(5)
C1 C 0.34820(7) 0.50436(7) 0.43064(6)
H1 H 0.3290 0.5019 0.4348
N7 N 0.37040(6) 0.49569(6) 0.44704(5)
C2 C 0.37679(7) 0.45450(7) 0.47806(6)
H2 H 0.3852 0.4421 0.4651
N8 N 0.48153(5) 0.43822(5) 0.64324(5)
N9 N 0.44046(5) 0.43652(5) 0.62232(5)
N10 N 0.46175(5) 0.42572(5) 0.66165(5)
N11 N 0.42011(5) 0.43877(5) 0.60141(5)
C3 C 0.40189(6) 0.46092(6) 0.59725(6)
H3 H 0.4011 0.4774 0.6082
C4 C 0.43733(6) 0.42510(7) 0.64864(7)
H4 H 0.4205 0.4180 0.6562
C5 C 0.41405(7) 0.41872(6) 0.58133(6)
H5 H 0.4232 0.4013 0.5793
C6 C 0.35769(7) 0.49248(7) 0.49719(6)
H6 H 0.3508 0.5109 0.4997
C7 C 0.39464(7) 0.50334(7) 0.43355(6)
H7 H 0.4130 0.5003 0.4402
C8 C 0.46810(6) 0.44479(7) 0.61991(7)
H8 H 0.4761 0.4537 0.6042
N12 N 0.36856(6) 0.48185(6) 0.47271(5)
Cu3 Cu 0.412797(9) 0.529505(9) 0.376693(9)
Cu4 Cu 0.337203(9) 0.529505(9) 0.373307(9)
Cu5 Cu 0.475430(9) 0.399963(9) 0.692050(9)
Cu6 Cu 0.524570(9) 0.442050(9) 0.649963(9)
N13 N 0.34201(5) 0.39161(5) 0.51677(6)
N14 N 0.40967(5) 0.38795(5) 0.51573(5)
N15 N 0.35676(5) 0.51847(5) 0.56178(5)
N16 N 0.32428(5) 0.46175(5) 0.58835(5)
Cu1_2 Cu 0.587203(9) 0.626693(9) 0.279505(9)
Cu2_2 Cu 0.524570(9) 0.600037(9) 0.307950(9)
N1_2 N 0.52719(5) 0.60846(5) 0.26647(5)
N2_2 N 0.55120(5) 0.62086(5) 0.25452(5)
N3_2 N 0.57193(5) 0.64342(5) 0.31541(5)
N4_2 N 0.54486(5) 0.63591(5) 0.32553(5)
N5_2 N 0.48323(6) 0.60839(5) 0.15799(5)
N6_2 N 0.48427(5) 0.63795(5) 0.15967(5)
C1_2 C 0.49564(7) 0.59820(7) 0.18064(6)
H1_2 H 0.4981 0.5790 0.1848
N7_2 N 0.50431(6) 0.62040(6) 0.19704(5)
C2_2 C 0.54550(7) 0.62679(7) 0.22806(6)
H2_2 H 0.5579 0.6352 0.2151
N8_2 N 0.56178(5) 0.73153(5) 0.39324(5)
N9_2 N 0.56348(5) 0.69046(5) 0.37232(5)
N10_2 N 0.57428(5) 0.71175(5) 0.41165(5)
N11_2 N 0.56123(5) 0.67011(5) 0.35141(5)
C3_2 C 0.53908(6) 0.65189(6) 0.34725(6)
H3_2 H 0.5226 0.6511 0.3582
C4_2 C 0.57490(7) 0.68733(6) 0.39864(7)
H4_2 H 0.5820 0.6705 0.4062
C5_2 C 0.58128(6) 0.66405(7) 0.33133(6)
H5_2 H 0.5987 0.6732 0.3293
C6_2 C 0.50752(7) 0.60769(7) 0.24719(6)
H6_2 H 0.4891 0.6008 0.2497
C7_2 C 0.49666(7) 0.64464(7) 0.18355(6)
H7_2 H 0.4997 0.6630 0.1902
C8_2 C 0.55521(7) 0.71810(6) 0.36991(7)
H8_2 H 0.5463 0.7261 0.3542
N12_2 N 0.51815(6) 0.61856(6) 0.22271(5)
Cu3_2 Cu 0.470495(9) 0.662797(9) 0.126693(9)
Cu4_2 Cu 0.470495(9) 0.587203(9) 0.123307(9)
Cu5_2 Cu 0.600037(9) 0.725430(9) 0.442050(9)
Cu6_2 Cu 0.557950(9) 0.774570(9) 0.399963(9)
N13_2 N 0.60839(5) 0.59201(5) 0.26677(6)
N14_2 N 0.61205(5) 0.65967(5) 0.26573(5)
N15_2 N 0.48153(5) 0.60676(5) 0.31178(5)
N16_2 N 0.53825(5) 0.57428(5) 0.33835(5)
Cu1_3 Cu 0.373307(9) 0.837203(9) 0.029505(9)
Cu2_3 Cu 0.399963(9) 0.774570(9) 0.057950(9)
N1_3 N 0.39154(5) 0.77719(5) 0.01647(5)
N2_3 N 0.37914(5) 0.80120(5) 0.00452(5)
N3_3 N 0.35658(5) 0.82193(5) 0.06541(5)
N4_3 N 0.36409(5) 0.79486(5) 0.07553(5)
N8_3 N 0.26847(5) 0.81178(5) 0.14324(5)
N9_3 N 0.30954(5) 0.81348(5) 0.12232(5)
N10_3 N 0.28825(5) 0.82428(5) 0.16165(5)
N11_3 N 0.32989(5) 0.81123(5) 0.10141(5)
C3_3 C 0.34811(6) 0.78908(6) 0.09725(6)
H3_3 H 0.3489 0.7726 0.1082
C4_3 C 0.31267(6) 0.82490(7) 0.14864(7)
H4_3 H 0.3295 0.8320 0.1562
C5_3 C 0.33595(7) 0.83128(6) 0.08133(6)
H5_3 H 0.3268 0.8487 0.0793
C8_3 C 0.28190(6) 0.80521(7) 0.11991(7)
H8_3 H 0.2739 0.7963 0.1042
Cu5_3 Cu 0.274570(9) 0.850037(9) 0.192050(9)
Cu6_3 Cu 0.225430(9) 0.807950(9) 0.149963(9)
N13_3 N 0.40799(5) 0.85839(5) 0.01677(6)
N14_3 N 0.34033(5) 0.86205(5) 0.01573(5)
N15_3 N 0.39324(5) 0.73153(5) 0.06178(5)
N16_3 N 0.42572(5) 0.78825(5) 0.08835(5)
N5_3 N 0.39161(5) 0.73323(6) 0.90799(5)
N6_3 N 0.36205(5) 0.73427(5) 0.90967(5)
C1_3 C 0.40180(7) 0.74564(7) 0.93064(6)
H1_3 H 0.4210 0.7481 0.9348
N7_3 N 0.37960(6) 0.75431(6) 0.94704(5)
C2_3 C 0.37321(7) 0.79550(7) 0.97806(6)
H2_3 H 0.3648 0.8079 0.9651
C6_3 C 0.39231(7) 0.75752(7) 0.99719(6)
H6_3 H 0.3992 0.7391 0.9997
C7_3 C 0.35536(7) 0.74666(7) 0.93355(6)
H7_3 H 0.3370 0.7497 0.9402
N12_3 N 0.38144(6) 0.76815(6) 0.97271(5)
Cu3_3 Cu 0.337203(9) 0.720495(9) 0.876693(9)
Cu4_3 Cu 0.412797(9) 0.720495(9) 0.873307(9)
Cu1_4 Cu 0.162797(9) 0.623307(9) 0.779505(9)
Cu2_4 Cu 0.225430(9) 0.649963(9) 0.807950(9)
N1_4 N 0.22281(5) 0.64154(5) 0.76647(5)
N2_4 N 0.19880(5) 0.62914(5) 0.75452(5)
N3_4 N 0.17807(5) 0.60658(5) 0.81541(5)
N4_4 N 0.20514(5) 0.61409(5) 0.82553(5)
N5_4 N 0.26677(6) 0.64161(5) 0.65799(5)
N6_4 N 0.26573(5) 0.61205(5) 0.65967(5)
C1_4 C 0.25436(7) 0.65180(7) 0.68064(6)
H1_4 H 0.2519 0.6710 0.6848
N7_4 N 0.24569(6) 0.62960(6) 0.69704(5)
C2_4 C 0.20450(7) 0.62321(7) 0.72806(6)
H2_4 H 0.1921 0.6148 0.7151
N8_4 N 0.18822(5) 0.51847(5) 0.89324(5)
N9_4 N 0.18652(5) 0.55954(5) 0.87232(5)
N10_4 N 0.17572(5) 0.53825(5) 0.91165(5)
N11_4 N 0.18877(5) 0.57989(5) 0.85141(5)
C3_4 C 0.21092(6) 0.59811(6) 0.84725(6)
H3_4 H 0.2274 0.5989 0.8582
C4_4 C 0.17510(7) 0.56267(6) 0.89864(7)
H4_4 H 0.1680 0.5795 0.9062
C5_4 C 0.16872(6) 0.58595(7) 0.83133(6)
H5_4 H 0.1513 0.5768 0.8293
C6_4 C 0.24248(7) 0.64231(7) 0.74719(6)
H6_4 H 0.2609 0.6492 0.7497
C7_4 C 0.25334(7) 0.60536(7) 0.68355(6)
H7_4 H 0.2503 0.5870 0.6902
C8_4 C 0.19479(7) 0.53190(6) 0.86991(7)
H8_4 H 0.2037 0.5239 0.8542
N12_4 N 0.23185(6) 0.63144(6) 0.72271(5)
Cu3_4 Cu 0.279505(9) 0.587203(9) 0.626693(9)
Cu4_4 Cu 0.279505(9) 0.662797(9) 0.623307(9)
Cu5_4 Cu 0.149963(9) 0.524570(9) 0.942050(9)
Cu6_4 Cu 0.192050(9) 0.475430(9) 0.899963(9)
N13_4 N 0.14161(5) 0.65799(5) 0.76677(6)
N14_4 N 0.13795(5) 0.59033(5) 0.76573(5)
N15_4 N 0.26847(5) 0.64324(5) 0.81178(5)
N16_4 N 0.21175(5) 0.67572(5) 0.83835(5)
Cu1_5 Cu 0.376693(9) 0.837203(9) 0.720495(9)
Cu2_5 Cu 0.350037(9) 0.774570(9) 0.692050(9)
N1_5 N 0.35846(5) 0.77719(5) 0.73353(5)
N2_5 N 0.37086(5) 0.80120(5) 0.74548(5)
N3_5 N 0.39342(5) 0.82193(5) 0.68459(5)
N4_5 N 0.38591(5) 0.79486(5) 0.67447(5)
N5_5 N 0.35839(5) 0.73323(6) 0.84201(5)
N6_5 N 0.38795(5) 0.73427(5) 0.84033(5)
C1_5 C 0.34820(7) 0.74564(7) 0.81936(6)
H1_5 H 0.3290 0.7481 0.8152
N7_5 N 0.37040(6) 0.75431(6) 0.80296(5)
C2_5 C 0.37679(7) 0.79550(7) 0.77194(6)
H2_5 H 0.3852 0.8079 0.7849
N8_5 N 0.48153(5) 0.81178(5) 0.60676(5)
N9_5 N 0.44046(5) 0.81348(5) 0.62768(5)
N10_5 N 0.46175(5) 0.82428(5) 0.58835(5)
N11_5 N 0.42011(5) 0.81123(5) 0.64859(5)
C3_5 C 0.40189(6) 0.78908(6) 0.65275(6)
H3_5 H 0.4011 0.7726 0.6418
C4_5 C 0.43733(6) 0.82490(7) 0.60136(7)
H4_5 H 0.4205 0.8320 0.5938
C5_5 C 0.41405(7) 0.83128(6) 0.66867(6)
H5_5 H 0.4232 0.8487 0.6707
C6_5 C 0.35769(7) 0.75752(7) 0.75281(6)
H6_5 H 0.3508 0.7391 0.7503
C7_5 C 0.39464(7) 0.74666(7) 0.81645(6)
H7_5 H 0.4130 0.7497 0.8098
C8_5 C 0.46810(6) 0.80521(7) 0.63009(7)
H8_5 H 0.4761 0.7963 0.6458
N12_5 N 0.36856(6) 0.76815(6) 0.77729(5)
Cu5_5 Cu 0.475430(9) 0.850037(9) 0.557950(9)
Cu6_5 Cu 0.524570(9) 0.807950(9) 0.600037(9)
N13_5 N 0.34201(5) 0.85839(5) 0.73323(6)
N14_5 N 0.40967(5) 0.86205(5) 0.73427(5)
N15_5 N 0.35676(5) 0.73153(5) 0.68822(5)
N16_5 N 0.32428(5) 0.78825(5) 0.66165(5)
Cu1_6 Cu 0.162797(9) 0.626693(9) 0.470495(9)
Cu2_6 Cu 0.225430(9) 0.600037(9) 0.442050(9)
N1_6 N 0.22281(5) 0.60846(5) 0.48353(5)
N2_6 N 0.19880(5) 0.62086(5) 0.49548(5)
N3_6 N 0.17807(5) 0.64342(5) 0.43459(5)
N4_6 N 0.20514(5) 0.63591(5) 0.42447(5)
N5_6 N 0.26677(6) 0.60839(5) 0.59201(5)
N6_6 N 0.26573(5) 0.63795(5) 0.59033(5)
C1_6 C 0.25436(7) 0.59820(7) 0.56936(6)
H1_6 H 0.2519 0.5790 0.5652
N7_6 N 0.24569(6) 0.62040(6) 0.55296(5)
C2_6 C 0.20450(7) 0.62679(7) 0.52194(6)
H2_6 H 0.1921 0.6352 0.5349
N8_6 N 0.18822(5) 0.73153(5) 0.35676(5)
N9_6 N 0.18652(5) 0.69046(5) 0.37768(5)
N10_6 N 0.17572(5) 0.71175(5) 0.33835(5)
N11_6 N 0.18877(5) 0.67011(5) 0.39859(5)
C3_6 C 0.21092(6) 0.65189(6) 0.40275(6)
H3_6 H 0.2274 0.6511 0.3918
C4_6 C 0.17510(7) 0.68733(6) 0.35136(7)
H4_6 H 0.1680 0.6705 0.3438
C5_6 C 0.16872(6) 0.66405(7) 0.41867(6)
H5_6 H 0.1513 0.6732 0.4207
C6_6 C 0.24248(7) 0.60769(7) 0.50281(6)
H6_6 H 0.2609 0.6008 0.5003
C7_6 C 0.25334(7) 0.64464(7) 0.56645(6)
H7_6 H 0.2503 0.6630 0.5598
C8_6 C 0.19479(7) 0.71810(6) 0.38009(7)
H8_6 H 0.2037 0.7261 0.3958
N12_6 N 0.23185(6) 0.61856(6) 0.52729(5)
Cu5_6 Cu 0.149963(9) 0.725430(9) 0.307950(9)
Cu6_6 Cu 0.192050(9) 0.774570(9) 0.350037(9)
N13_6 N 0.14161(5) 0.59201(5) 0.48323(6)
N14_6 N 0.13795(5) 0.65967(5) 0.48427(5)
N15_6 N 0.26847(5) 0.60676(5) 0.43822(5)
N16_6 N 0.21175(5) 0.57428(5) 0.41165(5)
Cu1_7 Cu 0.373307(9) 0.412797(9) 0.220495(9)
Cu2_7 Cu 0.399963(9) 0.475430(9) 0.192050(9)
N1_7 N 0.39154(5) 0.47281(5) 0.23353(5)
N2_7 N 0.37914(5) 0.44880(5) 0.24548(5)
N3_7 N 0.35658(5) 0.42807(5) 0.18459(5)
N4_7 N 0.36409(5) 0.45514(5) 0.17447(5)
N5_7 N 0.39161(5) 0.51677(6) 0.34201(5)
N6_7 N 0.36205(5) 0.51573(5) 0.34033(5)
C1_7 C 0.40180(7) 0.50436(7) 0.31936(6)
H1_7 H 0.4210 0.5019 0.3152
N7_7 N 0.37960(6) 0.49569(6) 0.30296(5)
C2_7 C 0.37321(7) 0.45450(7) 0.27194(6)
H2_7 H 0.3648 0.4421 0.2849
N8_7 N 0.26847(5) 0.43822(5) 0.10676(5)
N9_7 N 0.30954(5) 0.43652(5) 0.12768(5)
N10_7 N 0.28825(5) 0.42572(5) 0.08835(5)
N11_7 N 0.32989(5) 0.43877(5) 0.14859(5)
C3_7 C 0.34811(6) 0.46092(6) 0.15275(6)
H3_7 H 0.3489 0.4774 0.1418
C4_7 C 0.31267(6) 0.42510(7) 0.10136(7)
H4_7 H 0.3295 0.4180 0.0938
C5_7 C 0.33595(7) 0.41872(6) 0.16867(6)
H5_7 H 0.3268 0.4013 0.1707
C6_7 C 0.39231(7) 0.49248(7) 0.25281(6)
H6_7 H 0.3992 0.5109 0.2503
C7_7 C 0.35536(7) 0.50334(7) 0.31645(6)
H7_7 H 0.3370 0.5003 0.3098
C8_7 C 0.28190(6) 0.44479(7) 0.13009(7)
H8_7 H 0.2739 0.4537 0.1458
N12_7 N 0.38144(6) 0.48185(6) 0.27729(5)
Cu5_7 Cu 0.274570(9) 0.399963(9) 0.057950(9)
Cu6_7 Cu 0.225430(9) 0.442050(9) 0.100037(9)
N13_7 N 0.40799(5) 0.39161(5) 0.23323(6)
N14_7 N 0.34033(5) 0.38795(5) 0.23427(5)
N15_7 N 0.39324(5) 0.51847(5) 0.18822(5)
N16_7 N 0.42572(5) 0.46175(5) 0.16165(5)
N5_8 N 0.48323(6) 0.64161(5) 0.09201(5)
N6_8 N 0.48427(5) 0.61205(5) 0.09033(5)
C1_8 C 0.49564(7) 0.65180(7) 0.06936(6)
H1_8 H 0.4981 0.6710 0.0652
N7_8 N 0.50431(6) 0.62960(6) 0.05296(5)
C2_8 C 0.54550(7) 0.62321(7) 0.02194(6)
H2_8 H 0.5579 0.6148 0.0349
C6_8 C 0.50752(7) 0.64231(7) 0.00281(6)
H6_8 H 0.4891 0.6492 0.0003
C7_8 C 0.49666(7) 0.60536(7) 0.06645(6)
H7_8 H 0.4997 0.5870 0.0598
N12_8 N 0.51815(6) 0.63144(6) 0.02729(5)
Cu1_8 Cu 0.587203(9) 0.623307(9) 0.970495(9)
Cu2_8 Cu 0.524570(9) 0.649963(9) 0.942050(9)
N1_8 N 0.52719(5) 0.64154(5) 0.98353(5)
N2_8 N 0.55120(5) 0.62914(5) 0.99548(5)
N3_8 N 0.57193(5) 0.60658(5) 0.93459(5)
N4_8 N 0.54486(5) 0.61409(5) 0.92447(5)
N8_8 N 0.56178(5) 0.51847(5) 0.85676(5)
N9_8 N 0.56348(5) 0.55954(5) 0.87768(5)
N10_8 N 0.57428(5) 0.53825(5) 0.83835(5)
N11_8 N 0.56123(5) 0.57989(5) 0.89859(5)
C3_8 C 0.53908(6) 0.59811(6) 0.90275(6)
H3_8 H 0.5226 0.5989 0.8918
C4_8 C 0.57490(7) 0.56267(6) 0.85136(7)
H4_8 H 0.5820 0.5795 0.8438
C5_8 C 0.58128(6) 0.58595(7) 0.91867(6)
H5_8 H 0.5987 0.5768 0.9207
C8_8 C 0.55521(7) 0.53190(6) 0.88009(7)
H8_8 H 0.5463 0.5239 0.8958
Cu5_8 Cu 0.600037(9) 0.524570(9) 0.807950(9)
Cu6_8 Cu 0.557950(9) 0.475430(9) 0.850037(9)
N13_8 N 0.60839(5) 0.65799(5) 0.98323(6)
N14_8 N 0.61205(5) 0.59033(5) 0.98427(5)
N15_8 N 0.48153(5) 0.64324(5) 0.93822(5)
N16_8 N 0.53825(5) 0.67572(5) 0.91165(5)
Cu1_9 Cu 0.529505(9) 0.376693(9) 0.412797(9)
Cu2_9 Cu 0.557950(9) 0.350037(9) 0.475430(9)
N1_9 N 0.51647(5) 0.35846(5) 0.47281(5)
N2_9 N 0.50452(5) 0.37086(5) 0.44880(5)
N3_9 N 0.56541(5) 0.39342(5) 0.42807(5)
N4_9 N 0.57553(5) 0.38591(5) 0.45514(5)
N5_9 N 0.40799(5) 0.35839(5) 0.51677(6)
C1_9 C 0.43064(6) 0.34820(7) 0.50436(7)
H1_9 H 0.4348 0.3290 0.5019
N7_9 N 0.44704(5) 0.37040(6) 0.49569(6)
C2_9 C 0.47806(6) 0.37679(7) 0.45450(7)
H2_9 H 0.4651 0.3852 0.4421
N8_9 N 0.64324(5) 0.48153(5) 0.43822(5)
N9_9 N 0.62232(5) 0.44046(5) 0.43652(5)
N10_9 N 0.66165(5) 0.46175(5) 0.42572(5)
N11_9 N 0.60141(5) 0.42011(5) 0.43877(5)
C3_9 C 0.59725(6) 0.40189(6) 0.46092(6)
H3_9 H 0.6082 0.4011 0.4774
C4_9 C 0.64864(7) 0.43733(6) 0.42510(7)
H4_9 H 0.6562 0.4205 0.4180
C5_9 C 0.58133(6) 0.41405(7) 0.41872(6)
H5_9 H 0.5793 0.4232 0.4013
C6_9 C 0.49719(6) 0.35769(7) 0.49248(7)
H6_9 H 0.4997 0.3508 0.5109
C7_9 C 0.43355(6) 0.39464(7) 0.50334(7)
H7_9 H 0.4402 0.4130 0.5003
C8_9 C 0.61991(7) 0.46810(6) 0.44479(7)
H8_9 H 0.6042 0.4761 0.4537
N12_9 N 0.47271(5) 0.36856(6) 0.48185(6)
Cu4_5 Cu 0.373307(9) 0.337203(9) 0.529505(9)
Cu5_9 Cu 0.692050(9) 0.475430(9) 0.399963(9)
Cu6_9 Cu 0.649963(9) 0.524570(9) 0.442050(9)
N13_9 N 0.51677(6) 0.34201(5) 0.39161(5)
N14_9 N 0.51573(5) 0.40967(5) 0.38795(5)
N15_9 N 0.56178(5) 0.35676(5) 0.51847(5)
N16_9 N 0.58835(5) 0.32428(5) 0.46175(5)
Cu1_10 Cu 0.623307(9) 0.779505(9) 0.162797(9)
Cu2_10 Cu 0.649963(9) 0.807950(9) 0.225430(9)
N1_10 N 0.64154(5) 0.76647(5) 0.22281(5)
N2_10 N 0.62914(5) 0.75452(5) 0.19880(5)
N3_10 N 0.60658(5) 0.81541(5) 0.17807(5)
N4_10 N 0.61409(5) 0.82553(5) 0.20514(5)
N5_10 N 0.64161(5) 0.65799(5) 0.26677(6)
C1_10 C 0.65180(7) 0.68064(6) 0.25436(7)
H1_10 H 0.6710 0.6848 0.2519
N7_10 N 0.62960(6) 0.69704(5) 0.24569(6)
C2_10 C 0.62321(7) 0.72806(6) 0.20450(7)
H2_10 H 0.6148 0.7151 0.1921
N8_10 N 0.51847(5) 0.89324(5) 0.18822(5)
N9_10 N 0.55954(5) 0.87232(5) 0.18652(5)
N10_10 N 0.53825(5) 0.91165(5) 0.17572(5)
N11_10 N 0.57989(5) 0.85141(5) 0.18877(5)
C3_10 C 0.59811(6) 0.84725(6) 0.21092(6)
H3_10 H 0.5989 0.8582 0.2274
C4_10 C 0.56267(6) 0.89864(7) 0.17510(7)
H4_10 H 0.5795 0.9062 0.1680
C5_10 C 0.58595(7) 0.83133(6) 0.16872(6)
H5_10 H 0.5768 0.8293 0.1513
C6_10 C 0.64231(7) 0.74719(6) 0.24248(7)
H6_10 H 0.6492 0.7497 0.2609
C7_10 C 0.60536(7) 0.68355(6) 0.25334(7)
H7_10 H 0.5870 0.6902 0.2503
C8_10 C 0.53190(6) 0.86991(7) 0.19479(7)
H8_10 H 0.5239 0.8542 0.2037
N12_10 N 0.63144(6) 0.72271(5) 0.23185(6)
Cu4_6 Cu 0.662797(9) 0.623307(9) 0.279505(9)
Cu5_10 Cu 0.524570(9) 0.942050(9) 0.149963(9)
Cu6_10 Cu 0.475430(9) 0.899963(9) 0.192050(9)
N13_10 N 0.65799(5) 0.76677(6) 0.14161(5)
N14_10 N 0.59033(5) 0.76573(5) 0.13795(5)
N15_10 N 0.64324(5) 0.81178(5) 0.26847(5)
N16_10 N 0.67572(5) 0.83835(5) 0.21175(5)
N5_11 N 0.34201(5) 0.89161(5) 0.01677(6)
C1_11 C 0.31936(6) 0.90180(7) 0.00436(7)
H1_11 H 0.3152 0.9210 0.0019
H6_11 H 0.2503 0.8992 0.0109
C7_11 C 0.31645(6) 0.85536(7) 0.00334(7)
H7_11 H 0.3098 0.8370 0.0003
Cu4_7 Cu 0.376693(9) 0.912797(9) 0.029505(9)
N15_11 N 0.18822(5) 0.89324(5) 0.01847(5)
Cu1_11 Cu 0.220495(9) 0.873307(9) 0.912797(9)
Cu2_11 Cu 0.192050(9) 0.899963(9) 0.975430(9)
N1_11 N 0.23353(5) 0.89154(5) 0.97281(5)
N2_11 N 0.24548(5) 0.87914(5) 0.94880(5)
N3_11 N 0.18459(5) 0.85658(5) 0.92807(5)
N4_11 N 0.17447(5) 0.86409(5) 0.95514(5)
N7_11 N 0.30296(5) 0.87960(6) 0.99569(6)
C2_11 C 0.27194(6) 0.87321(7) 0.95450(7)
H2_11 H 0.2849 0.8648 0.9421
N8_11 N 0.10676(5) 0.76847(5) 0.93822(5)
N9_11 N 0.12768(5) 0.80954(5) 0.93652(5)
N10_11 N 0.08835(5) 0.78825(5) 0.92572(5)
N11_11 N 0.14859(5) 0.82989(5) 0.93877(5)
C3_11 C 0.15275(6) 0.84811(6) 0.96092(6)
H3_11 H 0.1418 0.8489 0.9774
C4_11 C 0.10136(7) 0.81267(6) 0.92510(7)
H4_11 H 0.0938 0.8295 0.9180
C5_11 C 0.16867(6) 0.83595(7) 0.91872(6)
H5_11 H 0.1707 0.8268 0.9013
C6_11 C 0.25281(6) 0.89231(7) 0.99248(7)
C8_11 C 0.13009(7) 0.78190(6) 0.94479(7)
H8_11 H 0.1458 0.7739 0.9537
N12_11 N 0.27729(5) 0.88144(6) 0.98185(6)
Cu5_11 Cu 0.057950(9) 0.774570(9) 0.899963(9)
Cu6_11 Cu 0.100037(9) 0.725430(9) 0.942050(9)
N13_11 N 0.23323(6) 0.90799(5) 0.89161(5)
N14_11 N 0.23427(5) 0.84033(5) 0.88795(5)
N16_11 N 0.16165(5) 0.92572(5) 0.96175(5)
Cu1_12 Cu 0.126693(9) 0.470495(9) 0.662797(9)
Cu2_12 Cu 0.100037(9) 0.442050(9) 0.725430(9)
N1_12 N 0.10846(5) 0.48353(5) 0.72281(5)
N2_12 N 0.12086(5) 0.49548(5) 0.69880(5)
N3_12 N 0.14342(5) 0.43459(5) 0.67807(5)
N4_12 N 0.13591(5) 0.42447(5) 0.70514(5)
N5_12 N 0.10839(5) 0.59201(5) 0.76677(6)
C1_12 C 0.09820(7) 0.56936(6) 0.75436(7)
H1_12 H 0.0790 0.5652 0.7519
N7_12 N 0.12040(6) 0.55296(5) 0.74569(6)
C2_12 C 0.12679(7) 0.52194(6) 0.70450(7)
H2_12 H 0.1352 0.5349 0.6921
N8_12 N 0.23153(5) 0.35676(5) 0.68822(5)
N9_12 N 0.19046(5) 0.37768(5) 0.68652(5)
N10_12 N 0.21175(5) 0.33835(5) 0.67572(5)
N11_12 N 0.17011(5) 0.39859(5) 0.68877(5)
C3_12 C 0.15189(6) 0.40275(6) 0.71092(6)
H3_12 H 0.1511 0.3918 0.7274
C4_12 C 0.18733(6) 0.35136(7) 0.67510(7)
H4_12 H 0.1705 0.3438 0.6680
C5_12 C 0.16405(7) 0.41867(6) 0.66872(6)
H5_12 H 0.1732 0.4207 0.6513
C6_12 C 0.10769(7) 0.50281(6) 0.74248(7)
H6_12 H 0.1008 0.5003 0.7609
C7_12 C 0.14464(7) 0.56645(6) 0.75334(7)
H7_12 H 0.1630 0.5598 0.7503
C8_12 C 0.21810(6) 0.38009(7) 0.69479(7)
H8_12 H 0.2261 0.3958 0.7037
N12_12 N 0.11856(6) 0.52729(5) 0.73185(6)
Cu4_8 Cu 0.087203(9) 0.626693(9) 0.779505(9)
Cu5_12 Cu 0.225430(9) 0.307950(9) 0.649963(9)
Cu6_12 Cu 0.274570(9) 0.350037(9) 0.692050(9)
N13_12 N 0.09201(5) 0.48323(6) 0.64161(5)
N14_12 N 0.15967(5) 0.48427(5) 0.63795(5)
N15_12 N 0.10676(5) 0.43822(5) 0.76847(5)
N16_12 N 0.07428(5) 0.41165(5) 0.71175(5)
Cu1_13 Cu 0.529505(9) 0.873307(9) 0.837203(9)
Cu2_13 Cu 0.557950(9) 0.899963(9) 0.774570(9)
N1_13 N 0.51647(5) 0.89154(5) 0.77719(5)
N2_13 N 0.50452(5) 0.87914(5) 0.80120(5)
N3_13 N 0.56541(5) 0.85658(5) 0.82193(5)
N4_13 N 0.57553(5) 0.86409(5) 0.79486(5)
N5_13 N 0.40799(5) 0.89161(5) 0.73323(6)
C1_13 C 0.43064(6) 0.90180(7) 0.74564(7)
H1_13 H 0.4348 0.9210 0.7481
N7_13 N 0.44704(5) 0.87960(6) 0.75431(6)
C2_13 C 0.47806(6) 0.87321(7) 0.79550(7)
H2_13 H 0.4651 0.8648 0.8079
N8_13 N 0.64324(5) 0.76847(5) 0.81178(5)
N9_13 N 0.62232(5) 0.80954(5) 0.81348(5)
N10_13 N 0.66165(5) 0.78825(5) 0.82428(5)
N11_13 N 0.60141(5) 0.82989(5) 0.81123(5)
C3_13 C 0.59725(6) 0.84811(6) 0.78908(6)
H3_13 H 0.6082 0.8489 0.7726
C4_13 C 0.64864(7) 0.81267(6) 0.82490(7)
H4_13 H 0.6562 0.8295 0.8320
C5_13 C 0.58133(6) 0.83595(7) 0.83128(6)
H5_13 H 0.5793 0.8268 0.8487
C6_13 C 0.49719(6) 0.89231(7) 0.75752(7)
H6_13 H 0.4997 0.8992 0.7391
C7_13 C 0.43355(6) 0.85536(7) 0.74666(7)
H7_13 H 0.4402 0.8370 0.7497
C8_13 C 0.61991(7) 0.78190(6) 0.80521(7)
H8_13 H 0.6042 0.7739 0.7963
N12_13 N 0.47271(5) 0.88144(6) 0.76815(6)
Cu4_9 Cu 0.373307(9) 0.912797(9) 0.720495(9)
Cu5_13 Cu 0.692050(9) 0.774570(9) 0.850037(9)
Cu6_13 Cu 0.649963(9) 0.725430(9) 0.807950(9)
N13_13 N 0.51677(6) 0.90799(5) 0.85839(5)
N14_13 N 0.51573(5) 0.84033(5) 0.86205(5)
N15_13 N 0.56178(5) 0.89324(5) 0.73153(5)
N16_13 N 0.58835(5) 0.92572(5) 0.78825(5)
Cu1_14 Cu 0.126693(9) 0.779505(9) 0.587203(9)
Cu2_14 Cu 0.100037(9) 0.807950(9) 0.524570(9)
N1_14 N 0.10846(5) 0.76647(5) 0.52719(5)
N2_14 N 0.12086(5) 0.75452(5) 0.55120(5)
N3_14 N 0.14342(5) 0.81541(5) 0.57193(5)
N4_14 N 0.13591(5) 0.82553(5) 0.54486(5)
N5_14 N 0.10839(5) 0.65799(5) 0.48323(6)
C1_14 C 0.09820(7) 0.68064(6) 0.49564(7)
H1_14 H 0.0790 0.6848 0.4981
N7_14 N 0.12040(6) 0.69704(5) 0.50431(6)
C2_14 C 0.12679(7) 0.72806(6) 0.54550(7)
H2_14 H 0.1352 0.7151 0.5579
N8_14 N 0.23153(5) 0.89324(5) 0.56178(5)
N9_14 N 0.19046(5) 0.87232(5) 0.56348(5)
N10_14 N 0.21175(5) 0.91165(5) 0.57428(5)
N11_14 N 0.17011(5) 0.85141(5) 0.56123(5)
C3_14 C 0.15189(6) 0.84725(6) 0.53908(6)
H3_14 H 0.1511 0.8582 0.5226
C4_14 C 0.18733(6) 0.89864(7) 0.57490(7)
H4_14 H 0.1705 0.9062 0.5820
C5_14 C 0.16405(7) 0.83133(6) 0.58128(6)
H5_14 H 0.1732 0.8293 0.5987
C6_14 C 0.10769(7) 0.74719(6) 0.50752(7)
H6_14 H 0.1008 0.7497 0.4891
C7_14 C 0.14464(7) 0.68355(6) 0.49666(7)
H7_14 H 0.1630 0.6902 0.4997
C8_14 C 0.21810(6) 0.86991(7) 0.55521(7)
H8_14 H 0.2261 0.8542 0.5463
N12_14 N 0.11856(6) 0.72271(5) 0.51815(6)
Cu4_10 Cu 0.087203(9) 0.623307(9) 0.470495(9)
Cu5_14 Cu 0.225430(9) 0.942050(9) 0.600037(9)
Cu6_14 Cu 0.274570(9) 0.899963(9) 0.557950(9)
N13_14 N 0.09201(5) 0.76677(6) 0.60839(5)
N14_14 N 0.15967(5) 0.76573(5) 0.61205(5)
N15_14 N 0.10676(5) 0.81178(5) 0.48153(5)
N16_14 N 0.07428(5) 0.83835(5) 0.53825(5)
Cu1_15 Cu 0.220495(9) 0.376693(9) 0.337203(9)
Cu2_15 Cu 0.192050(9) 0.350037(9) 0.274570(9)
N1_15 N 0.23353(5) 0.35846(5) 0.27719(5)
N2_15 N 0.24548(5) 0.37086(5) 0.30120(5)
N3_15 N 0.18459(5) 0.39342(5) 0.32193(5)
N4_15 N 0.17447(5) 0.38591(5) 0.29486(5)
N5_15 N 0.34201(5) 0.35839(5) 0.23323(6)
C1_15 C 0.31936(6) 0.34820(7) 0.24564(7)
H1_15 H 0.3152 0.3290 0.2481
N7_15 N 0.30296(5) 0.37040(6) 0.25431(6)
C2_15 C 0.27194(6) 0.37679(7) 0.29550(7)
H2_15 H 0.2849 0.3852 0.3079
N8_15 N 0.10676(5) 0.48153(5) 0.31178(5)
N9_15 N 0.12768(5) 0.44046(5) 0.31348(5)
N10_15 N 0.08835(5) 0.46175(5) 0.32428(5)
N11_15 N 0.14859(5) 0.42011(5) 0.31123(5)
C3_15 C 0.15275(6) 0.40189(6) 0.28908(6)
H3_15 H 0.1418 0.4011 0.2726
C4_15 C 0.10136(7) 0.43733(6) 0.32490(7)
H4_15 H 0.0938 0.4205 0.3320
C5_15 C 0.16867(6) 0.41405(7) 0.33128(6)
H5_15 H 0.1707 0.4232 0.3487
C6_15 C 0.25281(6) 0.35769(7) 0.25752(7)
H6_15 H 0.2503 0.3508 0.2391
C7_15 C 0.31645(6) 0.39464(7) 0.24666(7)
H7_15 H 0.3098 0.4130 0.2497
C8_15 C 0.13009(7) 0.46810(6) 0.30521(7)
H8_15 H 0.1458 0.4761 0.2963
N12_15 N 0.27729(5) 0.36856(6) 0.26815(6)
Cu4_11 Cu 0.376693(9) 0.337203(9) 0.220495(9)
Cu5_15 Cu 0.057950(9) 0.475430(9) 0.350037(9)
Cu6_15 Cu 0.100037(9) 0.524570(9) 0.307950(9)
N13_15 N 0.23323(6) 0.34201(5) 0.35839(5)
N14_15 N 0.23427(5) 0.40967(5) 0.36205(5)
N15_15 N 0.18822(5) 0.35676(5) 0.23153(5)
N16_15 N 0.16165(5) 0.32428(5) 0.28825(5)
Cu1_16 Cu 0.623307(9) 0.470495(9) 0.087203(9)
Cu2_16 Cu 0.649963(9) 0.442050(9) 0.024570(9)
N1_16 N 0.64154(5) 0.48353(5) 0.02719(5)
N2_16 N 0.62914(5) 0.49548(5) 0.05120(5)
N3_16 N 0.60658(5) 0.43459(5) 0.07193(5)
N4_16 N 0.61409(5) 0.42447(5) 0.04486(5)
N7_16 N 0.62960(6) 0.55296(5) 0.00431(6)
C2_16 C 0.62321(7) 0.52194(6) 0.04550(7)
H2_16 H 0.6148 0.5349 0.0579
N8_16 N 0.51847(5) 0.35676(5) 0.06178(5)
N9_16 N 0.55954(5) 0.37768(5) 0.06348(5)
N10_16 N 0.53825(5) 0.33835(5) 0.07428(5)
N11_16 N 0.57989(5) 0.39859(5) 0.06123(5)
C3_16 C 0.59811(6) 0.40275(6) 0.03908(6)
H3_16 H 0.5989 0.3918 0.0226
C4_16 C 0.56267(6) 0.35136(7) 0.07490(7)
H4_16 H 0.5795 0.3438 0.0820
C5_16 C 0.58595(7) 0.41867(6) 0.08128(6)
H5_16 H 0.5768 0.4207 0.0987
C6_16 C 0.64231(7) 0.50281(6) 0.00752(7)
C8_16 C 0.53190(6) 0.38009(7) 0.05521(7)
H8_16 H 0.5239 0.3958 0.0463
N12_16 N 0.63144(6) 0.52729(5) 0.01815(6)
Cu5_16 Cu 0.524570(9) 0.307950(9) 0.100037(9)
Cu6_16 Cu 0.475430(9) 0.350037(9) 0.057950(9)
N13_16 N 0.65799(5) 0.48323(6) 0.10839(5)
N14_16 N 0.59033(5) 0.48427(5) 0.11205(5)
N16_16 N 0.67572(5) 0.41165(5) 0.03825(5)
N5_16 N 0.64161(5) 0.59201(5) 0.98323(6)
C1_16 C 0.65180(7) 0.56936(6) 0.99564(7)
H1_16 H 0.6710 0.5652 0.9981
H6_16 H 0.6492 0.5003 0.9891
C7_16 C 0.60536(7) 0.56645(6) 0.99666(7)
H7_16 H 0.5870 0.5598 0.9997
Cu4_12 Cu 0.662797(9) 0.626693(9) 0.970495(9)
N15_16 N 0.64324(5) 0.43822(5) 0.98153(5)
Cu2_17 Cu 0.475430(9) 0.557950(9) 0.350037(9)
N1_17 N 0.47281(5) 0.51647(5) 0.35846(5)
N2_17 N 0.44880(5) 0.50452(5) 0.37086(5)
N3_17 N 0.42807(5) 0.56541(5) 0.39342(5)
N4_17 N 0.45514(5) 0.57553(5) 0.38591(5)
N5_17 N 0.51677(6) 0.40799(5) 0.35839(5)
C1_17 C 0.50436(7) 0.43064(6) 0.34820(7)
H1_17 H 0.5019 0.4348 0.3290
N7_17 N 0.49569(6) 0.44704(5) 0.37040(6)
C2_17 C 0.45450(7) 0.47806(6) 0.37679(7)
H2_17 H 0.4421 0.4651 0.3852
N8_17 N 0.43822(5) 0.64324(5) 0.48153(5)
N9_17 N 0.43652(5) 0.62232(5) 0.44046(5)
N10_17 N 0.42572(5) 0.66165(5) 0.46175(5)
N11_17 N 0.43877(5) 0.60141(5) 0.42011(5)
C3_17 C 0.46092(6) 0.59725(6) 0.40189(6)
H3_17 H 0.4774 0.6082 0.4011
C4_17 C 0.42510(7) 0.64864(7) 0.43733(6)
H4_17 H 0.4180 0.6562 0.4205
C5_17 C 0.41872(6) 0.58133(6) 0.41405(7)
H5_17 H 0.4013 0.5793 0.4232
C6_17 C 0.49248(7) 0.49719(6) 0.35769(7)
H6_17 H 0.5109 0.4997 0.3508
C7_17 C 0.50334(7) 0.43355(6) 0.39464(7)
H7_17 H 0.5003 0.4402 0.4130
C8_17 C 0.44479(7) 0.61991(7) 0.46810(6)
H8_17 H 0.4537 0.6042 0.4761
N12_17 N 0.48185(6) 0.47271(5) 0.36856(6)
Cu4_13 Cu 0.529505(9) 0.373307(9) 0.337203(9)
Cu5_17 Cu 0.399963(9) 0.692050(9) 0.475430(9)
Cu6_17 Cu 0.442050(9) 0.649963(9) 0.524570(9)
N15_17 N 0.51847(5) 0.56178(5) 0.35676(5)
N16_17 N 0.46175(5) 0.58835(5) 0.32428(5)
N6_9 N 0.09033(5) 0.48427(5) 0.61205(5)
C1_18 C 0.06936(6) 0.49564(7) 0.65180(7)
H1_18 H 0.0652 0.4981 0.6710
N7_18 N 0.05296(5) 0.50431(6) 0.62960(6)
C2_18 C 0.02194(6) 0.54550(7) 0.62321(7)
H2_18 H 0.0349 0.5579 0.6148
C6_18 C 0.00281(6) 0.50752(7) 0.64231(7)
H6_18 H 0.0003 0.4891 0.6492
C7_18 C 0.06645(6) 0.49666(7) 0.60536(7)
H7_18 H 0.0598 0.4997 0.5870
N12_18 N 0.02729(5) 0.51815(6) 0.63144(6)
Cu3_5 Cu 0.123307(9) 0.470495(9) 0.587203(9)
Cu1_17 Cu 0.970495(9) 0.587203(9) 0.623307(9)
Cu2_18 Cu 0.942050(9) 0.524570(9) 0.649963(9)
N1_18 N 0.98353(5) 0.52719(5) 0.64154(5)
N2_18 N 0.99548(5) 0.55120(5) 0.62914(5)
N3_18 N 0.93459(5) 0.57193(5) 0.60658(5)
N4_18 N 0.92447(5) 0.54486(5) 0.61409(5)
N8_18 N 0.85676(5) 0.56178(5) 0.51847(5)
N9_18 N 0.87768(5) 0.56348(5) 0.55954(5)
N10_18 N 0.83835(5) 0.57428(5) 0.53825(5)
N11_18 N 0.89859(5) 0.56123(5) 0.57989(5)
C3_18 C 0.90275(6) 0.53908(6) 0.59811(6)
H3_18 H 0.8918 0.5226 0.5989
C4_18 C 0.85136(7) 0.57490(7) 0.56267(6)
H4_18 H 0.8438 0.5820 0.5795
C5_18 C 0.91867(6) 0.58128(6) 0.58595(7)
H5_18 H 0.9207 0.5987 0.5768
C8_18 C 0.88009(7) 0.55521(7) 0.53190(6)
H8_18 H 0.8958 0.5463 0.5239
Cu5_18 Cu 0.807950(9) 0.600037(9) 0.524570(9)
Cu6_18 Cu 0.850037(9) 0.557950(9) 0.475430(9)
N13_17 N 0.98323(6) 0.60839(5) 0.65799(5)
N14_17 N 0.98427(5) 0.61205(5) 0.59033(5)
N15_18 N 0.93822(5) 0.48153(5) 0.64324(5)
N16_18 N 0.91165(5) 0.53825(5) 0.67572(5)
Cu1_18 Cu 0.470495(9) 0.162797(9) 0.626693(9)
Cu2_19 Cu 0.442050(9) 0.225430(9) 0.600037(9)
N1_19 N 0.48353(5) 0.22281(5) 0.60846(5)
N2_19 N 0.49548(5) 0.19880(5) 0.62086(5)
N3_19 N 0.43459(5) 0.17807(5) 0.64342(5)
N4_19 N 0.42447(5) 0.20514(5) 0.63591(5)
N5_18 N 0.59201(5) 0.26677(6) 0.60839(5)
N6_10 N 0.59033(5) 0.26573(5) 0.63795(5)
C1_19 C 0.56936(6) 0.25436(7) 0.59820(7)
H1_19 H 0.5652 0.2519 0.5790
N7_19 N 0.55296(5) 0.24569(6) 0.62040(6)
C2_19 C 0.52194(6) 0.20450(7) 0.62679(7)
H2_19 H 0.5349 0.1921 0.6352
N8_19 N 0.35676(5) 0.18822(5) 0.73153(5)
N9_19 N 0.37768(5) 0.18652(5) 0.69046(5)
N10_19 N 0.33835(5) 0.17572(5) 0.71175(5)
N11_19 N 0.39859(5) 0.18877(5) 0.67011(5)
C3_19 C 0.40275(6) 0.21092(6) 0.65189(6)
H3_19 H 0.3918 0.2274 0.6511
C4_19 C 0.35136(7) 0.17510(7) 0.68733(6)
H4_19 H 0.3438 0.1680 0.6705
C5_19 C 0.41867(6) 0.16872(6) 0.66405(7)
H5_19 H 0.4207 0.1513 0.6732
C6_19 C 0.50281(6) 0.24248(7) 0.60769(7)
H6_19 H 0.5003 0.2609 0.6008
C7_19 C 0.56645(6) 0.25334(7) 0.64464(7)
H7_19 H 0.5598 0.2503 0.6630
C8_19 C 0.38009(7) 0.19479(7) 0.71810(6)
H8_19 H 0.3958 0.2037 0.7261
N12_19 N 0.52729(5) 0.23185(6) 0.61856(6)
Cu3_6 Cu 0.623307(9) 0.279505(9) 0.662797(9)
Cu4_14 Cu 0.626693(9) 0.279505(9) 0.587203(9)
Cu5_19 Cu 0.307950(9) 0.149963(9) 0.725430(9)
Cu6_19 Cu 0.350037(9) 0.192050(9) 0.774570(9)
N13_18 N 0.48323(6) 0.14161(5) 0.59201(5)
N14_18 N 0.48427(5) 0.13795(5) 0.65967(5)
N15_19 N 0.43822(5) 0.26847(5) 0.60676(5)
N16_19 N 0.41165(5) 0.21175(5) 0.57428(5)
Cu1_19 Cu 0.779505(9) 0.162797(9) 0.623307(9)
Cu2_20 Cu 0.807950(9) 0.225430(9) 0.649963(9)
N1_20 N 0.76647(5) 0.22281(5) 0.64154(5)
N2_20 N 0.75452(5) 0.19880(5) 0.62914(5)
N3_20 N 0.81541(5) 0.17807(5) 0.60658(5)
N4_20 N 0.82553(5) 0.20514(5) 0.61409(5)
N5_19 N 0.65799(5) 0.26677(6) 0.64161(5)
N6_11 N 0.65967(5) 0.26573(5) 0.61205(5)
C1_20 C 0.68064(6) 0.25436(7) 0.65180(7)
H1_20 H 0.6848 0.2519 0.6710
N7_20 N 0.69704(5) 0.24569(6) 0.62960(6)
C2_20 C 0.72806(6) 0.20450(7) 0.62321(7)
H2_20 H 0.7151 0.1921 0.6148
N8_20 N 0.89324(5) 0.18822(5) 0.51847(5)
N9_20 N 0.87232(5) 0.18652(5) 0.55954(5)
N10_20 N 0.91165(5) 0.17572(5) 0.53825(5)
N11_20 N 0.85141(5) 0.18877(5) 0.57989(5)
C3_20 C 0.84725(6) 0.21092(6) 0.59811(6)
H3_20 H 0.8582 0.2274 0.5989
C4_20 C 0.89864(7) 0.17510(7) 0.56267(6)
H4_20 H 0.9062 0.1680 0.5795
C5_20 C 0.83133(6) 0.16872(6) 0.58595(7)
H5_20 H 0.8293 0.1513 0.5768
C6_20 C 0.74719(6) 0.24248(7) 0.64231(7)
H6_20 H 0.7497 0.2609 0.6492
C7_20 C 0.68355(6) 0.25334(7) 0.60536(7)
H7_20 H 0.6902 0.2503 0.5870
C8_20 C 0.86991(7) 0.19479(7) 0.53190(6)
H8_20 H 0.8542 0.2037 0.5239
N12_20 N 0.72271(5) 0.23185(6) 0.63144(6)
Cu5_20 Cu 0.942050(9) 0.149963(9) 0.524570(9)
Cu6_20 Cu 0.899963(9) 0.192050(9) 0.475430(9)
N13_19 N 0.76677(6) 0.14161(5) 0.65799(5)
N14_19 N 0.76573(5) 0.13795(5) 0.59033(5)
N15_20 N 0.81178(5) 0.26847(5) 0.64324(5)
N16_20 N 0.83835(5) 0.21175(5) 0.67572(5)
Cu2_21 Cu 0.307950(9) 0.524570(9) 0.600037(9)
N1_21 N 0.26647(5) 0.52719(5) 0.60846(5)
N2_21 N 0.25452(5) 0.55120(5) 0.62086(5)
N3_21 N 0.31541(5) 0.57193(5) 0.64342(5)
N4_21 N 0.32553(5) 0.54486(5) 0.63591(5)
N5_20 N 0.15799(5) 0.48323(6) 0.60839(5)
C1_21 C 0.18064(6) 0.49564(7) 0.59820(7)
H1_21 H 0.1848 0.4981 0.5790
N7_21 N 0.19704(5) 0.50431(6) 0.62040(6)
C2_21 C 0.22806(6) 0.54550(7) 0.62679(7)
H2_21 H 0.2151 0.5579 0.6352
N8_21 N 0.39324(5) 0.56178(5) 0.73153(5)
N9_21 N 0.37232(5) 0.56348(5) 0.69046(5)
N10_21 N 0.41165(5) 0.57428(5) 0.71175(5)
N11_21 N 0.35141(5) 0.56123(5) 0.67011(5)
C3_21 C 0.34725(6) 0.53908(6) 0.65189(6)
H3_21 H 0.3582 0.5226 0.6511
C4_21 C 0.39864(7) 0.57490(7) 0.68733(6)
H4_21 H 0.4062 0.5820 0.6705
C5_21 C 0.33133(6) 0.58128(6) 0.66405(7)
H5_21 H 0.3293 0.5987 0.6732
C6_21 C 0.24719(6) 0.50752(7) 0.60769(7)
H6_21 H 0.2497 0.4891 0.6008
C7_21 C 0.18355(6) 0.49666(7) 0.64464(7)
H7_21 H 0.1902 0.4997 0.6630
C8_21 C 0.36991(7) 0.55521(7) 0.71810(6)
H8_21 H 0.3542 0.5463 0.7261
N12_21 N 0.22271(5) 0.51815(6) 0.61856(6)
Cu5_21 Cu 0.442050(9) 0.600037(9) 0.725430(9)
Cu6_21 Cu 0.399963(9) 0.557950(9) 0.774570(9)
N15_21 N 0.31178(5) 0.48153(5) 0.60676(5)
N16_21 N 0.33835(5) 0.53825(5) 0.57428(5)
Cu1_20 Cu 0.412797(9) 0.220495(9) 0.373307(9)
Cu2_22 Cu 0.475430(9) 0.192050(9) 0.399963(9)
N1_22 N 0.47281(5) 0.23353(5) 0.39154(5)
N2_22 N 0.44880(5) 0.24548(5) 0.37914(5)
N3_22 N 0.42807(5) 0.18459(5) 0.35658(5)
N4_22 N 0.45514(5) 0.17447(5) 0.36409(5)
N6_12 N 0.51573(5) 0.34033(5) 0.36205(5)
C1_22 C 0.50436(7) 0.31936(6) 0.40180(7)
H1_22 H 0.5019 0.3152 0.4210
N7_22 N 0.49569(6) 0.30296(5) 0.37960(6)
C2_22 C 0.45450(7) 0.27194(6) 0.37321(7)
H2_22 H 0.4421 0.2849 0.3648
N8_22 N 0.43822(5) 0.10676(5) 0.26847(5)
N9_22 N 0.43652(5) 0.12768(5) 0.30954(5)
N10_22 N 0.42572(5) 0.08835(5) 0.28825(5)
N11_22 N 0.43877(5) 0.14859(5) 0.32989(5)
C3_22 C 0.46092(6) 0.15275(6) 0.34811(6)
H3_22 H 0.4774 0.1418 0.3489
C4_22 C 0.42510(7) 0.10136(7) 0.31267(6)
H4_22 H 0.4180 0.0938 0.3295
C5_22 C 0.41872(6) 0.16867(6) 0.33595(7)
H5_22 H 0.4013 0.1707 0.3268
C6_22 C 0.49248(7) 0.25281(6) 0.39231(7)
H6_22 H 0.5109 0.2503 0.3992
C7_22 C 0.50334(7) 0.31645(6) 0.35536(7)
H7_22 H 0.5003 0.3098 0.3370
C8_22 C 0.44479(7) 0.13009(7) 0.28190(6)
H8_22 H 0.4537 0.1458 0.2739
N12_22 N 0.48185(6) 0.27729(5) 0.38144(6)
Cu5_22 Cu 0.399963(9) 0.057950(9) 0.274570(9)
Cu6_22 Cu 0.442050(9) 0.100037(9) 0.225430(9)
N13_20 N 0.39161(5) 0.23323(6) 0.40799(5)
N14_20 N 0.38795(5) 0.23427(5) 0.34033(5)
N15_22 N 0.51847(5) 0.18822(5) 0.39324(5)
N16_22 N 0.46175(5) 0.16165(5) 0.42572(5)
Cu1_21 Cu 0.837203(9) 0.720495(9) 0.376693(9)
Cu2_23 Cu 0.774570(9) 0.692050(9) 0.350037(9)
N1_23 N 0.77719(5) 0.73353(5) 0.35846(5)
N2_23 N 0.80120(5) 0.74548(5) 0.37086(5)
N3_23 N 0.82193(5) 0.68459(5) 0.39342(5)
N4_23 N 0.79486(5) 0.67447(5) 0.38591(5)
N5_21 N 0.73323(6) 0.84201(5) 0.35839(5)
N6_13 N 0.73427(5) 0.84033(5) 0.38795(5)
C1_23 C 0.74564(7) 0.81936(6) 0.34820(7)
H1_23 H 0.7481 0.8152 0.3290
N7_23 N 0.75431(6) 0.80296(5) 0.37040(6)
C2_23 C 0.79550(7) 0.77194(6) 0.37679(7)
H2_23 H 0.8079 0.7849 0.3852
N8_23 N 0.81178(5) 0.60676(5) 0.48153(5)
N9_23 N 0.81348(5) 0.62768(5) 0.44046(5)
N10_23 N 0.82428(5) 0.58835(5) 0.46175(5)
N11_23 N 0.81123(5) 0.64859(5) 0.42011(5)
C3_23 C 0.78908(6) 0.65275(6) 0.40189(6)
H3_23 H 0.7726 0.6418 0.4011
C4_23 C 0.82490(7) 0.60136(7) 0.43733(6)
H4_23 H 0.8320 0.5938 0.4205
C5_23 C 0.83128(6) 0.66867(6) 0.41405(7)
H5_23 H 0.8487 0.6707 0.4232
C6_23 C 0.75752(7) 0.75281(6) 0.35769(7)
H6_23 H 0.7391 0.7503 0.3508
C7_23 C 0.74666(7) 0.81645(6) 0.39464(7)
H7_23 H 0.7497 0.8098 0.4130
C8_23 C 0.80521(7) 0.63009(7) 0.46810(6)
H8_23 H 0.7963 0.6458 0.4761
N12_23 N 0.76815(6) 0.77729(5) 0.36856(6)
Cu3_7 Cu 0.720495(9) 0.873307(9) 0.412797(9)
Cu4_15 Cu 0.720495(9) 0.876693(9) 0.337203(9)
N13_21 N 0.85839(5) 0.73323(6) 0.34201(5)
N14_21 N 0.86205(5) 0.73427(5) 0.40967(5)
N15_23 N 0.73153(5) 0.68822(5) 0.35676(5)
N16_23 N 0.78825(5) 0.66165(5) 0.32428(5)
Cu1_22 Cu 0.837203(9) 0.029505(9) 0.373307(9)
Cu2_24 Cu 0.774570(9) 0.057950(9) 0.399963(9)
N1_24 N 0.77719(5) 0.01647(5) 0.39154(5)
N2_24 N 0.80120(5) 0.00452(5) 0.37914(5)
N3_24 N 0.82193(5) 0.06541(5) 0.35658(5)
N4_24 N 0.79486(5) 0.07553(5) 0.36409(5)
N8_24 N 0.81178(5) 0.14324(5) 0.26847(5)
N9_24 N 0.81348(5) 0.12232(5) 0.30954(5)
N10_24 N 0.82428(5) 0.16165(5) 0.28825(5)
N11_24 N 0.81123(5) 0.10141(5) 0.32989(5)
C3_24 C 0.78908(6) 0.09725(6) 0.34811(6)
H3_24 H 0.7726 0.1082 0.3489
C4_24 C 0.82490(7) 0.14864(7) 0.31267(6)
H4_24 H 0.8320 0.1562 0.3295
C5_24 C 0.83128(6) 0.08133(6) 0.33595(7)
H5_24 H 0.8487 0.0793 0.3268
C8_24 C 0.80521(7) 0.11991(7) 0.28190(6)
H8_24 H 0.7963 0.1042 0.2739
Cu5_23 Cu 0.850037(9) 0.192050(9) 0.274570(9)
Cu6_23 Cu 0.807950(9) 0.149963(9) 0.225430(9)
N13_22 N 0.85839(5) 0.01677(6) 0.40799(5)
N14_22 N 0.86205(5) 0.01573(5) 0.34033(5)
N15_24 N 0.73153(5) 0.06178(5) 0.39324(5)
N16_24 N 0.78825(5) 0.08835(5) 0.42572(5)
N5_22 N 0.73323(6) 0.90799(5) 0.39161(5)
N6_14 N 0.73427(5) 0.90967(5) 0.36205(5)
C1_24 C 0.74564(7) 0.93064(6) 0.40180(7)
H1_24 H 0.7481 0.9348 0.4210
N7_24 N 0.75431(6) 0.94704(5) 0.37960(6)
C2_24 C 0.79550(7) 0.97806(6) 0.37321(7)
H2_24 H 0.8079 0.9651 0.3648
C6_24 C 0.75752(7) 0.99719(6) 0.39231(7)
H6_24 H 0.7391 0.9997 0.3992
C7_24 C 0.74666(7) 0.93355(6) 0.35536(7)
H7_24 H 0.7497 0.9402 0.3370
N12_24 N 0.76815(6) 0.97271(5) 0.38144(6)
N15_25 N 0.35676(5) 0.01847(5) 0.06178(5)
N5_23 N 0.35839(5) 0.01677(6) 0.90799(5)
N6_15 N 0.38795(5) 0.01573(5) 0.90967(5)
C1_25 C 0.34820(7) 0.00436(7) 0.93064(6)
H1_25 H 0.3290 0.0019 0.9348
H6_25 H 0.3508 0.0109 0.9997
C7_25 C 0.39464(7) 0.00334(7) 0.93355(6)
H7_25 H 0.4130 0.0003 0.9402
Cu3_8 Cu 0.412797(9) 0.029505(9) 0.876693(9)
Cu4_16 Cu 0.337203(9) 0.029505(9) 0.873307(9)
Cu2_25 Cu 0.350037(9) 0.975430(9) 0.057950(9)
N1_25 N 0.35846(5) 0.97281(5) 0.01647(5)
N2_25 N 0.37086(5) 0.94880(5) 0.00452(5)
N3_25 N 0.39342(5) 0.92807(5) 0.06541(5)
N4_25 N 0.38591(5) 0.95514(5) 0.07553(5)
N8_25 N 0.48153(5) 0.93822(5) 0.14324(5)
N9_25 N 0.44046(5) 0.93652(5) 0.12232(5)
N10_25 N 0.46175(5) 0.92572(5) 0.16165(5)
N11_25 N 0.42011(5) 0.93877(5) 0.10141(5)
C3_25 C 0.40189(6) 0.96092(6) 0.09725(6)
H3_25 H 0.4011 0.9774 0.1082
C4_25 C 0.43733(6) 0.92510(7) 0.14864(7)
H4_25 H 0.4205 0.9180 0.1562
C5_25 C 0.41405(7) 0.91872(6) 0.08133(6)
H5_25 H 0.4232 0.9013 0.0793
C8_25 C 0.46810(6) 0.94479(7) 0.11991(7)
H8_25 H 0.4761 0.9537 0.1042
N14_23 N 0.40967(5) 0.88795(5) 0.01573(5)
N16_25 N 0.32428(5) 0.96175(5) 0.08835(5)
Cu1_23 Cu 0.587203(9) 0.126693(9) 0.779505(9)
Cu2_26 Cu 0.524570(9) 0.100037(9) 0.807950(9)
N1_26 N 0.52719(5) 0.10846(5) 0.76647(5)
N2_26 N 0.55120(5) 0.12086(5) 0.75452(5)
N3_26 N 0.57193(5) 0.14342(5) 0.81541(5)
N4_26 N 0.54486(5) 0.13591(5) 0.82553(5)
N5_24 N 0.48323(6) 0.10839(5) 0.65799(5)
C1_26 C 0.49564(7) 0.09820(7) 0.68064(6)
H1_26 H 0.4981 0.0790 0.6848
N7_25 N 0.50431(6) 0.12040(6) 0.69704(5)
C2_25 C 0.54550(7) 0.12679(7) 0.72806(6)
H2_25 H 0.5579 0.1352 0.7151
N8_26 N 0.56178(5) 0.23153(5) 0.89324(5)
N9_26 N 0.56348(5) 0.19046(5) 0.87232(5)
N10_26 N 0.57428(5) 0.21175(5) 0.91165(5)
N11_26 N 0.56123(5) 0.17011(5) 0.85141(5)
C3_26 C 0.53908(6) 0.15189(6) 0.84725(6)
H3_26 H 0.5226 0.1511 0.8582
C4_26 C 0.57490(7) 0.18733(6) 0.89864(7)
H4_26 H 0.5820 0.1705 0.9062
C5_26 C 0.58128(6) 0.16405(7) 0.83133(6)
H5_26 H 0.5987 0.1732 0.8293
C6_25 C 0.50752(7) 0.10769(7) 0.74719(6)
H6_26 H 0.4891 0.1008 0.7497
C7_26 C 0.49666(7) 0.14464(7) 0.68355(6)
H7_26 H 0.4997 0.1630 0.6902
C8_26 C 0.55521(7) 0.21810(6) 0.86991(7)
H8_26 H 0.5463 0.2261 0.8542
N12_25 N 0.51815(6) 0.11856(6) 0.72271(5)
Cu4_17 Cu 0.470495(9) 0.087203(9) 0.623307(9)
Cu5_24 Cu 0.600037(9) 0.225430(9) 0.942050(9)
Cu6_24 Cu 0.557950(9) 0.274570(9) 0.899963(9)
N13_23 N 0.60839(5) 0.09201(5) 0.76677(6)
N14_24 N 0.61205(5) 0.15967(5) 0.76573(5)
N15_26 N 0.48153(5) 0.10676(5) 0.81178(5)
N16_26 N 0.53825(5) 0.07428(5) 0.83835(5)
Cu2_27 Cu 0.399963(9) 0.274570(9) 0.557950(9)
N1_27 N 0.39154(5) 0.27719(5) 0.51647(5)
N2_27 N 0.37914(5) 0.30120(5) 0.50452(5)
N3_27 N 0.35658(5) 0.32193(5) 0.56541(5)
N4_27 N 0.36409(5) 0.29486(5) 0.57553(5)
N6_16 N 0.36205(5) 0.23427(5) 0.40967(5)
C1_27 C 0.40180(7) 0.24564(7) 0.43064(6)
H1_27 H 0.4210 0.2481 0.4348
N7_26 N 0.37960(6) 0.25431(6) 0.44704(5)
C2_26 C 0.37321(7) 0.29550(7) 0.47806(6)
H2_26 H 0.3648 0.3079 0.4651
N8_27 N 0.26847(5) 0.31178(5) 0.64324(5)
N9_27 N 0.30954(5) 0.31348(5) 0.62232(5)
N10_27 N 0.28825(5) 0.32428(5) 0.66165(5)
N11_27 N 0.32989(5) 0.31123(5) 0.60141(5)
C3_27 C 0.34811(6) 0.28908(6) 0.59725(6)
H3_27 H 0.3489 0.2726 0.6082
C4_27 C 0.31267(6) 0.32490(7) 0.64864(7)
H4_27 H 0.3295 0.3320 0.6562
C5_27 C 0.33595(7) 0.33128(6) 0.58133(6)
H5_27 H 0.3268 0.3487 0.5793
C6_26 C 0.39231(7) 0.25752(7) 0.49719(6)
H6_27 H 0.3992 0.2391 0.4997
C7_27 C 0.35536(7) 0.24666(7) 0.43355(6)
H7_27 H 0.3370 0.2497 0.4402
C8_27 C 0.28190(6) 0.30521(7) 0.61991(7)
H8_27 H 0.2739 0.2963 0.6042
N12_26 N 0.38144(6) 0.26815(6) 0.47271(5)
Cu3_9 Cu 0.337203(9) 0.220495(9) 0.376693(9)
N14_25 N 0.34033(5) 0.36205(5) 0.51573(5)
N15_27 N 0.39324(5) 0.23153(5) 0.56178(5)
N16_27 N 0.42572(5) 0.28825(5) 0.58835(5)
Cu1_24 Cu 0.162797(9) 0.123307(9) 0.279505(9)
Cu2_28 Cu 0.225430(9) 0.149963(9) 0.307950(9)
N1_28 N 0.22281(5) 0.14154(5) 0.26647(5)
N2_28 N 0.19880(5) 0.12914(5) 0.25452(5)
N3_28 N 0.17807(5) 0.10658(5) 0.31541(5)
N4_28 N 0.20514(5) 0.11409(5) 0.32553(5)
N5_25 N 0.26677(6) 0.14161(5) 0.15799(5)
N6_17 N 0.26573(5) 0.11205(5) 0.15967(5)
C1_28 C 0.25436(7) 0.15180(7) 0.18064(6)
H1_28 H 0.2519 0.1710 0.1848
N7_27 N 0.24569(6) 0.12960(6) 0.19704(5)
C2_27 C 0.20450(7) 0.12321(7) 0.22806(6)
H2_27 H 0.1921 0.1148 0.2151
N8_28 N 0.18822(5) 0.01847(5) 0.39324(5)
N9_28 N 0.18652(5) 0.05954(5) 0.37232(5)
N10_28 N 0.17572(5) 0.03825(5) 0.41165(5)
N11_28 N 0.18877(5) 0.07989(5) 0.35141(5)
C3_28 C 0.21092(6) 0.09811(6) 0.34725(6)
H3_28 H 0.2274 0.0989 0.3582
C4_28 C 0.17510(7) 0.06267(6) 0.39864(7)
H4_28 H 0.1680 0.0795 0.4062
C5_28 C 0.16872(6) 0.08595(7) 0.33133(6)
H5_28 H 0.1513 0.0768 0.3293
C6_27 C 0.24248(7) 0.14231(7) 0.24719(6)
H6_28 H 0.2609 0.1492 0.2497
C7_28 C 0.25334(7) 0.10536(7) 0.18355(6)
H7_28 H 0.2503 0.0870 0.1902
C8_28 C 0.19479(7) 0.03190(6) 0.36991(7)
H8_28 H 0.2037 0.0239 0.3542
N12_27 N 0.23185(6) 0.13144(6) 0.22271(5)
Cu3_10 Cu 0.279505(9) 0.087203(9) 0.126693(9)
Cu4_18 Cu 0.279505(9) 0.162797(9) 0.123307(9)
Cu5_25 Cu 0.149963(9) 0.024570(9) 0.442050(9)
N13_24 N 0.14161(5) 0.15799(5) 0.26677(6)
N14_26 N 0.13795(5) 0.09033(5) 0.26573(5)
N15_28 N 0.26847(5) 0.14324(5) 0.31178(5)
N16_28 N 0.21175(5) 0.17572(5) 0.33835(5)
Cu6_25 Cu 0.192050(9) 0.975430(9) 0.399963(9)
Cu2_29 Cu 0.350037(9) 0.274570(9) 0.192050(9)
N1_29 N 0.35846(5) 0.27719(5) 0.23353(5)
N2_29 N 0.37086(5) 0.30120(5) 0.24548(5)
N3_29 N 0.39342(5) 0.32193(5) 0.18459(5)
N4_29 N 0.38591(5) 0.29486(5) 0.17447(5)
N5_26 N 0.35839(5) 0.23323(6) 0.34201(5)
C1_29 C 0.34820(7) 0.24564(7) 0.31936(6)
H1_29 H 0.3290 0.2481 0.3152
N7_28 N 0.37040(6) 0.25431(6) 0.30296(5)
C2_28 C 0.37679(7) 0.29550(7) 0.27194(6)
H2_28 H 0.3852 0.3079 0.2849
N8_29 N 0.48153(5) 0.31178(5) 0.10676(5)
N9_29 N 0.44046(5) 0.31348(5) 0.12768(5)
N10_29 N 0.46175(5) 0.32428(5) 0.08835(5)
N11_29 N 0.42011(5) 0.31123(5) 0.14859(5)
C3_29 C 0.40189(6) 0.28908(6) 0.15275(6)
H3_29 H 0.4011 0.2726 0.1418
C4_29 C 0.43733(6) 0.32490(7) 0.10136(7)
H4_29 H 0.4205 0.3320 0.0938
C5_29 C 0.41405(7) 0.33128(6) 0.16867(6)
H5_29 H 0.4232 0.3487 0.1707
C6_28 C 0.35769(7) 0.25752(7) 0.25281(6)
H6_29 H 0.3508 0.2391 0.2503
C7_29 C 0.39464(7) 0.24666(7) 0.31645(6)
H7_29 H 0.4130 0.2497 0.3098
C8_29 C 0.46810(6) 0.30521(7) 0.13009(7)
H8_29 H 0.4761 0.2963 0.1458
N12_28 N 0.36856(6) 0.26815(6) 0.27729(5)
N14_27 N 0.40967(5) 0.36205(5) 0.23427(5)
N15_29 N 0.35676(5) 0.23153(5) 0.18822(5)
N16_29 N 0.32428(5) 0.28825(5) 0.16165(5)
N5_27 N 0.26677(6) 0.10839(5) 0.09201(5)
N6_18 N 0.26573(5) 0.13795(5) 0.09033(5)
C1_30 C 0.25436(7) 0.09820(7) 0.06936(6)
H1_30 H 0.2519 0.0790 0.0652
N7_29 N 0.24569(6) 0.12040(6) 0.05296(5)
C2_29 C 0.20450(7) 0.12679(7) 0.02194(6)
H2_29 H 0.1921 0.1352 0.0349
C6_29 C 0.24248(7) 0.10769(7) 0.00281(6)
H6_30 H 0.2609 0.1008 0.0003
C7_30 C 0.25334(7) 0.14464(7) 0.06645(6)
H7_30 H 0.2503 0.1630 0.0598
N12_29 N 0.23185(6) 0.11856(6) 0.02729(5)
Cu1_25 Cu 0.162797(9) 0.126693(9) 0.970495(9)
Cu2_30 Cu 0.225430(9) 0.100037(9) 0.942050(9)
N1_30 N 0.22281(5) 0.10846(5) 0.98353(5)
N2_30 N 0.19880(5) 0.12086(5) 0.99548(5)
N3_30 N 0.17807(5) 0.14342(5) 0.93459(5)
N4_30 N 0.20514(5) 0.13591(5) 0.92447(5)
N8_30 N 0.18822(5) 0.23153(5) 0.85676(5)
N9_30 N 0.18652(5) 0.19046(5) 0.87768(5)
N10_30 N 0.17572(5) 0.21175(5) 0.83835(5)
N11_30 N 0.18877(5) 0.17011(5) 0.89859(5)
C3_30 C 0.21092(6) 0.15189(6) 0.90275(6)
H3_30 H 0.2274 0.1511 0.8918
C4_30 C 0.17510(7) 0.18733(6) 0.85136(7)
H4_30 H 0.1680 0.1705 0.8438
C5_30 C 0.16872(6) 0.16405(7) 0.91867(6)
H5_30 H 0.1513 0.1732 0.9207
C8_30 C 0.19479(7) 0.21810(6) 0.88009(7)
H8_30 H 0.2037 0.2261 0.8958
Cu5_26 Cu 0.149963(9) 0.225430(9) 0.807950(9)
Cu6_26 Cu 0.192050(9) 0.274570(9) 0.850037(9)
N13_25 N 0.14161(5) 0.09201(5) 0.98323(6)
N14_28 N 0.13795(5) 0.15967(5) 0.98427(5)
N15_30 N 0.26847(5) 0.10676(5) 0.93822(5)
N16_30 N 0.21175(5) 0.07428(5) 0.91165(5)
N5_28 N 0.39161(5) 0.01677(6) 0.84201(5)
N6_19 N 0.36205(5) 0.01573(5) 0.84033(5)
C1_31 C 0.40180(7) 0.00436(7) 0.81936(6)
H1_31 H 0.4210 0.0019 0.8152
H6_31 H 0.3992 0.0109 0.7503
C7_31 C 0.35536(7) 0.00334(7) 0.81645(6)
H7_31 H 0.3370 0.0003 0.8098
N15_31 N 0.39324(5) 0.01847(5) 0.68822(5)
Cu2_31 Cu 0.399963(9) 0.975430(9) 0.692050(9)
N1_31 N 0.39154(5) 0.97281(5) 0.73353(5)
N2_31 N 0.37914(5) 0.94880(5) 0.74548(5)
N3_31 N 0.35658(5) 0.92807(5) 0.68459(5)
N4_31 N 0.36409(5) 0.95514(5) 0.67447(5)
N7_30 N 0.37960(6) 0.99569(6) 0.80296(5)
C2_30 C 0.37321(7) 0.95450(7) 0.77194(6)
H2_30 H 0.3648 0.9421 0.7849
N8_31 N 0.26847(5) 0.93822(5) 0.60676(5)
N9_31 N 0.30954(5) 0.93652(5) 0.62768(5)
N10_31 N 0.28825(5) 0.92572(5) 0.58835(5)
N11_31 N 0.32989(5) 0.93877(5) 0.64859(5)
C3_31 C 0.34811(6) 0.96092(6) 0.65275(6)
H3_31 H 0.3489 0.9774 0.6418
C4_31 C 0.31267(6) 0.92510(7) 0.60136(7)
H4_31 H 0.3295 0.9180 0.5938
C5_31 C 0.33595(7) 0.91872(6) 0.66867(6)
H5_31 H 0.3268 0.9013 0.6707
C6_30 C 0.39231(7) 0.99248(7) 0.75281(6)
C8_31 C 0.28190(6) 0.94479(7) 0.63009(7)
H8_31 H 0.2739 0.9537 0.6458
N12_30 N 0.38144(6) 0.98185(6) 0.77729(5)
N14_29 N 0.34033(5) 0.88795(5) 0.73427(5)
N16_31 N 0.42572(5) 0.96175(5) 0.66165(5)
Cu1_26 Cu 0.587203(9) 0.123307(9) 0.470495(9)
Cu2_32 Cu 0.524570(9) 0.149963(9) 0.442050(9)
N1_32 N 0.52719(5) 0.14154(5) 0.48353(5)
N2_32 N 0.55120(5) 0.12914(5) 0.49548(5)
N3_32 N 0.57193(5) 0.10658(5) 0.43459(5)
N4_32 N 0.54486(5) 0.11409(5) 0.42447(5)
N6_20 N 0.48427(5) 0.11205(5) 0.59033(5)
C1_32 C 0.49564(7) 0.15180(7) 0.56936(6)
H1_32 H 0.4981 0.1710 0.5652
N7_31 N 0.50431(6) 0.12960(6) 0.55296(5)
C2_31 C 0.54550(7) 0.12321(7) 0.52194(6)
H2_31 H 0.5579 0.1148 0.5349
N8_32 N 0.56178(5) 0.01847(5) 0.35676(5)
N9_32 N 0.56348(5) 0.05954(5) 0.37768(5)
N10_32 N 0.57428(5) 0.03825(5) 0.33835(5)
N11_32 N 0.56123(5) 0.07989(5) 0.39859(5)
C3_32 C 0.53908(6) 0.09811(6) 0.40275(6)
H3_32 H 0.5226 0.0989 0.3918
C4_32 C 0.57490(7) 0.06267(6) 0.35136(7)
H4_32 H 0.5820 0.0795 0.3438
C5_32 C 0.58128(6) 0.08595(7) 0.41867(6)
H5_32 H 0.5987 0.0768 0.4207
C6_31 C 0.50752(7) 0.14231(7) 0.50281(6)
H6_32 H 0.4891 0.1492 0.5003
C7_32 C 0.49666(7) 0.10536(7) 0.56645(6)
H7_32 H 0.4997 0.0870 0.5598
C8_32 C 0.55521(7) 0.03190(6) 0.38009(7)
H8_32 H 0.5463 0.0239 0.3958
N12_31 N 0.51815(6) 0.13144(6) 0.52729(5)
Cu5_27 Cu 0.600037(9) 0.024570(9) 0.307950(9)
N13_26 N 0.60839(5) 0.15799(5) 0.48323(6)
N14_30 N 0.61205(5) 0.09033(5) 0.48427(5)
N15_32 N 0.48153(5) 0.14324(5) 0.43822(5)
N16_32 N 0.53825(5) 0.17572(5) 0.41165(5)
Cu6_27 Cu 0.557950(9) 0.975430(9) 0.350037(9)
Cu6_28 Cu 0.649963(9) 0.024570(9) 0.942050(9)
C1_33 C 0.43064(6) 0.84820(7) 0.00436(7)
H1_33 H 0.4348 0.8290 0.0019
H6_33 H 0.4997 0.8508 0.0109
C7_33 C 0.43355(6) 0.89464(7) 0.00334(7)
H7_33 H 0.4402 0.9130 0.0003
N15_33 N 0.56178(5) 0.85676(5) 0.01847(5)
Cu1_27 Cu 0.529505(9) 0.876693(9) 0.912797(9)
Cu2_33 Cu 0.557950(9) 0.850037(9) 0.975430(9)
N1_33 N 0.51647(5) 0.85846(5) 0.97281(5)
N2_33 N 0.50452(5) 0.87086(5) 0.94880(5)
N3_33 N 0.56541(5) 0.89342(5) 0.92807(5)
N4_33 N 0.57553(5) 0.88591(5) 0.95514(5)
N7_32 N 0.44704(5) 0.87040(6) 0.99569(6)
C2_32 C 0.47806(6) 0.87679(7) 0.95450(7)
H2_32 H 0.4651 0.8852 0.9421
N8_33 N 0.64324(5) 0.98153(5) 0.93822(5)
N9_33 N 0.62232(5) 0.94046(5) 0.93652(5)
N10_33 N 0.66165(5) 0.96175(5) 0.92572(5)
N11_33 N 0.60141(5) 0.92011(5) 0.93877(5)
C3_33 C 0.59725(6) 0.90189(6) 0.96092(6)
H3_33 H 0.6082 0.9011 0.9774
C4_33 C 0.64864(7) 0.93733(6) 0.92510(7)
H4_33 H 0.6562 0.9205 0.9180
C5_33 C 0.58133(6) 0.91405(7) 0.91872(6)
H5_33 H 0.5793 0.9232 0.9013
C6_32 C 0.49719(6) 0.85769(7) 0.99248(7)
C8_33 C 0.61991(7) 0.96810(6) 0.94479(7)
H8_33 H 0.6042 0.9761 0.9537
N12_32 N 0.47271(5) 0.86856(6) 0.98185(6)
Cu5_28 Cu 0.692050(9) 0.975430(9) 0.899963(9)
N13_27 N 0.51677(6) 0.84201(5) 0.89161(5)
N14_31 N 0.51573(5) 0.90967(5) 0.88795(5)
N16_33 N 0.58835(5) 0.82428(5) 0.96175(5)
Cu2_34 Cu 0.649963(9) 0.307950(9) 0.725430(9)
N1_34 N 0.64154(5) 0.26647(5) 0.72281(5)
N2_34 N 0.62914(5) 0.25452(5) 0.69880(5)
N3_34 N 0.60658(5) 0.31541(5) 0.67807(5)
N4_34 N 0.61409(5) 0.32553(5) 0.70514(5)
N5_29 N 0.64161(5) 0.15799(5) 0.76677(6)
C1_34 C 0.65180(7) 0.18064(6) 0.75436(7)
H1_34 H 0.6710 0.1848 0.7519
N7_33 N 0.62960(6) 0.19704(5) 0.74569(6)
C2_33 C 0.62321(7) 0.22806(6) 0.70450(7)
H2_33 H 0.6148 0.2151 0.6921
N8_34 N 0.51847(5) 0.39324(5) 0.68822(5)
N9_34 N 0.55954(5) 0.37232(5) 0.68652(5)
N10_34 N 0.53825(5) 0.41165(5) 0.67572(5)
N11_34 N 0.57989(5) 0.35141(5) 0.68877(5)
C3_34 C 0.59811(6) 0.34725(6) 0.71092(6)
H3_34 H 0.5989 0.3582 0.7274
C4_34 C 0.56267(6) 0.39864(7) 0.67510(7)
H4_34 H 0.5795 0.4062 0.6680
C5_34 C 0.58595(7) 0.33133(6) 0.66872(6)
H5_34 H 0.5768 0.3293 0.6513
C6_33 C 0.64231(7) 0.24719(6) 0.74248(7)
H6_34 H 0.6492 0.2497 0.7609
C7_34 C 0.60536(7) 0.18355(6) 0.75334(7)
H7_34 H 0.5870 0.1902 0.7503
C8_34 C 0.53190(6) 0.36991(7) 0.69479(7)
H8_34 H 0.5239 0.3542 0.7037
N12_33 N 0.63144(6) 0.22271(5) 0.73185(6)
Cu4_19 Cu 0.662797(9) 0.123307(9) 0.779505(9)
N15_34 N 0.64324(5) 0.31178(5) 0.76847(5)
N16_34 N 0.67572(5) 0.33835(5) 0.71175(5)
Cu1_28 Cu 0.220495(9) 0.373307(9) 0.412797(9)
Cu2_35 Cu 0.192050(9) 0.399963(9) 0.475430(9)
N1_35 N 0.23353(5) 0.39154(5) 0.47281(5)
N2_35 N 0.24548(5) 0.37914(5) 0.44880(5)
N3_35 N 0.18459(5) 0.35658(5) 0.42807(5)
N4_35 N 0.17447(5) 0.36409(5) 0.45514(5)
C1_35 C 0.31936(6) 0.40180(7) 0.50436(7)
H1_35 H 0.3152 0.4210 0.5019
N7_34 N 0.30296(5) 0.37960(6) 0.49569(6)
C2_34 C 0.27194(6) 0.37321(7) 0.45450(7)
H2_34 H 0.2849 0.3648 0.4421
N8_35 N 0.10676(5) 0.26847(5) 0.43822(5)
N9_35 N 0.12768(5) 0.30954(5) 0.43652(5)
N10_35 N 0.08835(5) 0.28825(5) 0.42572(5)
N11_35 N 0.14859(5) 0.32989(5) 0.43877(5)
C3_35 C 0.15275(6) 0.34811(6) 0.46092(6)
H3_35 H 0.1418 0.3489 0.4774
C4_35 C 0.10136(7) 0.31267(6) 0.42510(7)
H4_35 H 0.0938 0.3295 0.4180
C5_35 C 0.16867(6) 0.33595(7) 0.41872(6)
H5_35 H 0.1707 0.3268 0.4013
C6_34 C 0.25281(6) 0.39231(7) 0.49248(7)
H6_35 H 0.2503 0.3992 0.5109
C7_35 C 0.31645(6) 0.35536(7) 0.50334(7)
H7_35 H 0.3098 0.3370 0.5003
C8_35 C 0.13009(7) 0.28190(6) 0.44479(7)
H8_35 H 0.1458 0.2739 0.4537
N12_34 N 0.27729(5) 0.38144(6) 0.48185(6)
Cu5_29 Cu 0.057950(9) 0.274570(9) 0.399963(9)
Cu6_29 Cu 0.100037(9) 0.225430(9) 0.442050(9)
N13_28 N 0.23323(6) 0.40799(5) 0.39161(5)
N14_32 N 0.23427(5) 0.34033(5) 0.38795(5)
N15_35 N 0.18822(5) 0.39324(5) 0.51847(5)
N16_35 N 0.16165(5) 0.42572(5) 0.46175(5)
N5_30 N 0.10839(5) 0.09201(5) 0.26677(6)
C1_36 C 0.09820(7) 0.06936(6) 0.25436(7)
H1_36 H 0.0790 0.0652 0.2519
N7_35 N 0.12040(6) 0.05296(5) 0.24569(6)
C2_35 C 0.12679(7) 0.02194(6) 0.20450(7)
H2_35 H 0.1352 0.0349 0.1921
C6_35 C 0.10769(7) 0.00281(6) 0.24248(7)
H6_36 H 0.1008 0.0003 0.2609
C7_36 C 0.14464(7) 0.06645(6) 0.25334(7)
H7_36 H 0.1630 0.0598 0.2503
N12_35 N 0.11856(6) 0.02729(5) 0.23185(6)
Cu4_20 Cu 0.087203(9) 0.126693(9) 0.279505(9)
Cu1_29 Cu 0.126693(9) 0.970495(9) 0.162797(9)
Cu2_36 Cu 0.100037(9) 0.942050(9) 0.225430(9)
N1_36 N 0.10846(5) 0.98353(5) 0.22281(5)
N2_36 N 0.12086(5) 0.99548(5) 0.19880(5)
N3_36 N 0.14342(5) 0.93459(5) 0.17807(5)
N4_36 N 0.13591(5) 0.92447(5) 0.20514(5)
N8_36 N 0.23153(5) 0.85676(5) 0.18822(5)
N9_36 N 0.19046(5) 0.87768(5) 0.18652(5)
N10_36 N 0.21175(5) 0.83835(5) 0.17572(5)
N11_36 N 0.17011(5) 0.89859(5) 0.18877(5)
C3_36 C 0.15189(6) 0.90275(6) 0.21092(6)
H3_36 H 0.1511 0.8918 0.2274
C4_36 C 0.18733(6) 0.85136(7) 0.17510(7)
H4_36 H 0.1705 0.8438 0.1680
C5_36 C 0.16405(7) 0.91867(6) 0.16872(6)
H5_36 H 0.1732 0.9207 0.1513
C8_36 C 0.21810(6) 0.88009(7) 0.19479(7)
H8_36 H 0.2261 0.8958 0.2037
N13_29 N 0.09201(5) 0.98323(6) 0.14161(5)
N14_33 N 0.15967(5) 0.98427(5) 0.13795(5)
N15_36 N 0.10676(5) 0.93822(5) 0.26847(5)
N16_36 N 0.07428(5) 0.91165(5) 0.21175(5)
Cu2_37 Cu 0.557950(9) 0.399963(9) 0.274570(9)
N1_37 N 0.51647(5) 0.39154(5) 0.27719(5)
N2_37 N 0.50452(5) 0.37914(5) 0.30120(5)
N3_37 N 0.56541(5) 0.35658(5) 0.32193(5)
N4_37 N 0.57553(5) 0.36409(5) 0.29486(5)
C1_37 C 0.43064(6) 0.40180(7) 0.24564(7)
H1_37 H 0.4348 0.4210 0.2481
N7_36 N 0.44704(5) 0.37960(6) 0.25431(6)
C2_36 C 0.47806(6) 0.37321(7) 0.29550(7)
H2_36 H 0.4651 0.3648 0.3079
N8_37 N 0.64324(5) 0.26847(5) 0.31178(5)
N9_37 N 0.62232(5) 0.30954(5) 0.31348(5)
N10_37 N 0.66165(5) 0.28825(5) 0.32428(5)
N11_37 N 0.60141(5) 0.32989(5) 0.31123(5)
C3_37 C 0.59725(6) 0.34811(6) 0.28908(6)
H3_37 H 0.6082 0.3489 0.2726
C4_37 C 0.64864(7) 0.31267(6) 0.32490(7)
H4_37 H 0.6562 0.3295 0.3320
C5_37 C 0.58133(6) 0.33595(7) 0.33128(6)
H5_37 H 0.5793 0.3268 0.3487
C6_36 C 0.49719(6) 0.39231(7) 0.25752(7)
H6_37 H 0.4997 0.3992 0.2391
C7_37 C 0.43355(6) 0.35536(7) 0.24666(7)
H7_37 H 0.4402 0.3370 0.2497
C8_37 C 0.61991(7) 0.28190(6) 0.30521(7)
H8_37 H 0.6042 0.2739 0.2963
N12_36 N 0.47271(5) 0.38144(6) 0.26815(6)
Cu5_30 Cu 0.692050(9) 0.274570(9) 0.350037(9)
Cu6_30 Cu 0.649963(9) 0.225430(9) 0.307950(9)
N15_37 N 0.56178(5) 0.39324(5) 0.23153(5)
N16_37 N 0.58835(5) 0.42572(5) 0.28825(5)
Cu1_30 Cu 0.126693(9) 0.279505(9) 0.087203(9)
Cu2_38 Cu 0.100037(9) 0.307950(9) 0.024570(9)
N1_38 N 0.10846(5) 0.26647(5) 0.02719(5)
N2_38 N 0.12086(5) 0.25452(5) 0.05120(5)
N3_38 N 0.14342(5) 0.31541(5) 0.07193(5)
N4_38 N 0.13591(5) 0.32553(5) 0.04486(5)
N7_37 N 0.12040(6) 0.19704(5) 0.00431(6)
C2_37 C 0.12679(7) 0.22806(6) 0.04550(7)
H2_37 H 0.1352 0.2151 0.0579
N8_38 N 0.23153(5) 0.39324(5) 0.06178(5)
N9_38 N 0.19046(5) 0.37232(5) 0.06348(5)
N10_38 N 0.21175(5) 0.41165(5) 0.07428(5)
N11_38 N 0.17011(5) 0.35141(5) 0.06123(5)
C3_38 C 0.15189(6) 0.34725(6) 0.03908(6)
H3_38 H 0.1511 0.3582 0.0226
C4_38 C 0.18733(6) 0.39864(7) 0.07490(7)
H4_38 H 0.1705 0.4062 0.0820
C5_38 C 0.16405(7) 0.33133(6) 0.08128(6)
H5_38 H 0.1732 0.3293 0.0987
C6_37 C 0.10769(7) 0.24719(6) 0.00752(7)
C8_38 C 0.21810(6) 0.36991(7) 0.05521(7)
H8_38 H 0.2261 0.3542 0.0463
N12_37 N 0.11856(6) 0.22271(5) 0.01815(6)
N13_30 N 0.09201(5) 0.26677(6) 0.10839(5)
N14_34 N 0.15967(5) 0.26573(5) 0.11205(5)
N16_38 N 0.07428(5) 0.33835(5) 0.03825(5)
N5_31 N 0.10839(5) 0.15799(5) 0.98323(6)
C1_38 C 0.09820(7) 0.18064(6) 0.99564(7)
H1_38 H 0.0790 0.1848 0.9981
H6_38 H 0.1008 0.2497 0.9891
C7_38 C 0.14464(7) 0.18355(6) 0.99666(7)
H7_38 H 0.1630 0.1902 0.9997
Cu4_21 Cu 0.087203(9) 0.123307(9) 0.970495(9)
N15_38 N 0.10676(5) 0.31178(5) 0.98153(5)
Cu6_31 Cu 0.100037(9) 0.024570(9) 0.807950(9)
Cu1_31 Cu 0.220495(9) 0.876693(9) 0.837203(9)
Cu2_39 Cu 0.192050(9) 0.850037(9) 0.774570(9)
N1_39 N 0.23353(5) 0.85846(5) 0.77719(5)
N2_39 N 0.24548(5) 0.87086(5) 0.80120(5)
N3_39 N 0.18459(5) 0.89342(5) 0.82193(5)
N4_39 N 0.17447(5) 0.88591(5) 0.79486(5)
C1_39 C 0.31936(6) 0.84820(7) 0.74564(7)
H1_39 H 0.3152 0.8290 0.7481
N7_38 N 0.30296(5) 0.87040(6) 0.75431(6)
C2_38 C 0.27194(6) 0.87679(7) 0.79550(7)
H2_38 H 0.2849 0.8852 0.8079
N8_39 N 0.10676(5) 0.98153(5) 0.81178(5)
N9_39 N 0.12768(5) 0.94046(5) 0.81348(5)
N10_39 N 0.08835(5) 0.96175(5) 0.82428(5)
N11_39 N 0.14859(5) 0.92011(5) 0.81123(5)
C3_39 C 0.15275(6) 0.90189(6) 0.78908(6)
H3_39 H 0.1418 0.9011 0.7726
C4_39 C 0.10136(7) 0.93733(6) 0.82490(7)
H4_39 H 0.0938 0.9205 0.8320
C5_39 C 0.16867(6) 0.91405(7) 0.83128(6)
H5_39 H 0.1707 0.9232 0.8487
C6_38 C 0.25281(6) 0.85769(7) 0.75752(7)
H6_39 H 0.2503 0.8508 0.7391
C7_39 C 0.31645(6) 0.89464(7) 0.74666(7)
H7_39 H 0.3098 0.9130 0.7497
C8_39 C 0.13009(7) 0.96810(6) 0.80521(7)
H8_39 H 0.1458 0.9761 0.7963
N12_38 N 0.27729(5) 0.86856(6) 0.76815(6)
Cu5_31 Cu 0.057950(9) 0.975430(9) 0.850037(9)
N13_31 N 0.23323(6) 0.84201(5) 0.85839(5)
N14_35 N 0.23427(5) 0.90967(5) 0.86205(5)
N15_39 N 0.18822(5) 0.85676(5) 0.73153(5)
N16_39 N 0.16165(5) 0.82428(5) 0.78825(5)
N5_32 N 0.64161(5) 0.09201(5) 0.48323(6)
C1_40 C 0.65180(7) 0.06936(6) 0.49564(7)
H1_40 H 0.6710 0.0652 0.4981
N7_39 N 0.62960(6) 0.05296(5) 0.50431(6)
C2_39 C 0.62321(7) 0.02194(6) 0.54550(7)
H2_39 H 0.6148 0.0349 0.5579
C6_39 C 0.64231(7) 0.00281(6) 0.50752(7)
H6_40 H 0.6492 0.0003 0.4891
C7_40 C 0.60536(7) 0.06645(6) 0.49666(7)
H7_40 H 0.5870 0.0598 0.4997
N12_39 N 0.63144(6) 0.02729(5) 0.51815(6)
Cu4_22 Cu 0.662797(9) 0.126693(9) 0.470495(9)
Cu1_32 Cu 0.623307(9) 0.970495(9) 0.587203(9)
Cu2_40 Cu 0.649963(9) 0.942050(9) 0.524570(9)
N1_40 N 0.64154(5) 0.98353(5) 0.52719(5)
N2_40 N 0.62914(5) 0.99548(5) 0.55120(5)
N3_40 N 0.60658(5) 0.93459(5) 0.57193(5)
N4_40 N 0.61409(5) 0.92447(5) 0.54486(5)
N8_40 N 0.51847(5) 0.85676(5) 0.56178(5)
N9_40 N 0.55954(5) 0.87768(5) 0.56348(5)
N10_40 N 0.53825(5) 0.83835(5) 0.57428(5)
N11_40 N 0.57989(5) 0.89859(5) 0.56123(5)
C3_40 C 0.59811(6) 0.90275(6) 0.53908(6)
H3_40 H 0.5989 0.8918 0.5226
C4_40 C 0.56267(6) 0.85136(7) 0.57490(7)
H4_40 H 0.5795 0.8438 0.5820
C5_40 C 0.58595(7) 0.91867(6) 0.58128(6)
H5_40 H 0.5768 0.9207 0.5987
C8_40 C 0.53190(6) 0.88009(7) 0.55521(7)
H8_40 H 0.5239 0.8958 0.5463
N13_32 N 0.65799(5) 0.98323(6) 0.60839(5)
N14_36 N 0.59033(5) 0.98427(5) 0.61205(5)
N15_40 N 0.64324(5) 0.93822(5) 0.48153(5)
N16_40 N 0.67572(5) 0.91165(5) 0.53825(5)
Cu6_32 Cu 0.442050(9) 0.149963(9) 0.024570(9)
Cu2_41 Cu 0.475430(9) 0.057950(9) 0.850037(9)
N1_41 N 0.47281(5) 0.01647(5) 0.85846(5)
N2_41 N 0.44880(5) 0.00452(5) 0.87086(5)
N3_41 N 0.42807(5) 0.06541(5) 0.89342(5)
N4_41 N 0.45514(5) 0.07553(5) 0.88591(5)
N8_41 N 0.43822(5) 0.14324(5) 0.98153(5)
N9_41 N 0.43652(5) 0.12232(5) 0.94046(5)
N10_41 N 0.42572(5) 0.16165(5) 0.96175(5)
N11_41 N 0.43877(5) 0.10141(5) 0.92011(5)
C3_41 C 0.46092(6) 0.09725(6) 0.90189(6)
H3_41 H 0.4774 0.1082 0.9011
C4_41 C 0.42510(7) 0.14864(7) 0.93733(6)
H4_41 H 0.4180 0.1562 0.9205
C5_41 C 0.41872(6) 0.08133(6) 0.91405(7)
H5_41 H 0.4013 0.0793 0.9232
C8_41 C 0.44479(7) 0.11991(7) 0.96810(6)
H8_41 H 0.4537 0.1042 0.9761
Cu5_32 Cu 0.399963(9) 0.192050(9) 0.975430(9)
N15_41 N 0.51847(5) 0.06178(5) 0.85676(5)
N16_41 N 0.46175(5) 0.08835(5) 0.82428(5)
C1_41 C 0.50436(7) 0.93064(6) 0.84820(7)
H1_41 H 0.5019 0.9348 0.8290
N7_40 N 0.49569(6) 0.94704(5) 0.87040(6)
C2_40 C 0.45450(7) 0.97806(6) 0.87679(7)
H2_40 H 0.4421 0.9651 0.8852
C6_40 C 0.49248(7) 0.99719(6) 0.85769(7)
H6_41 H 0.5109 0.9997 0.8508
C7_41 C 0.50334(7) 0.93355(6) 0.89464(7)
H7_41 H 0.5003 0.9402 0.9130
N12_40 N 0.48185(6) 0.97271(5) 0.86856(6)
N6_21 N 0.09033(5) 0.98427(5) 0.11205(5)
C1_42 C 0.06936(6) 0.99564(7) 0.15180(7)
H1_42 H 0.0652 0.9981 0.1710
H6_42 H 0.0003 0.9891 0.1492
C7_42 C 0.06645(6) 0.99666(7) 0.10536(7)
H7_42 H 0.0598 0.9997 0.0870
Cu3_11 Cu 0.123307(9) 0.970495(9) 0.087203(9)
Cu1_33 Cu 0.970495(9) 0.087203(9) 0.123307(9)
Cu2_42 Cu 0.942050(9) 0.024570(9) 0.149963(9)
N1_42 N 0.98353(5) 0.02719(5) 0.14154(5)
N2_42 N 0.99548(5) 0.05120(5) 0.12914(5)
N3_42 N 0.93459(5) 0.07193(5) 0.10658(5)
N4_42 N 0.92447(5) 0.04486(5) 0.11409(5)
N8_42 N 0.85676(5) 0.06178(5) 0.01847(5)
N9_42 N 0.87768(5) 0.06348(5) 0.05954(5)
N10_42 N 0.83835(5) 0.07428(5) 0.03825(5)
N11_42 N 0.89859(5) 0.06123(5) 0.07989(5)
C3_42 C 0.90275(6) 0.03908(6) 0.09811(6)
H3_42 H 0.8918 0.0226 0.0989
C4_42 C 0.85136(7) 0.07490(7) 0.06267(6)
H4_42 H 0.8438 0.0820 0.0795
C5_42 C 0.91867(6) 0.08128(6) 0.08595(7)
H5_42 H 0.9207 0.0987 0.0768
C8_42 C 0.88009(7) 0.05521(7) 0.03190(6)
H8_42 H 0.8958 0.0463 0.0239
Cu5_33 Cu 0.807950(9) 0.100037(9) 0.024570(9)
N13_33 N 0.98323(6) 0.10839(5) 0.15799(5)
N14_37 N 0.98427(5) 0.11205(5) 0.09033(5)
N16_42 N 0.91165(5) 0.03825(5) 0.17572(5)
Cu6_33 Cu 0.850037(9) 0.057950(9) 0.975430(9)
N15_42 N 0.93822(5) 0.98153(5) 0.14324(5)
Cu2_43 Cu 0.442050(9) 0.725430(9) 0.100037(9)
N1_43 N 0.48353(5) 0.72281(5) 0.10846(5)
N2_43 N 0.49548(5) 0.69880(5) 0.12086(5)
N3_43 N 0.43459(5) 0.67807(5) 0.14342(5)
N4_43 N 0.42447(5) 0.70514(5) 0.13591(5)
N5_33 N 0.59201(5) 0.76677(6) 0.10839(5)
C1_43 C 0.56936(6) 0.75436(7) 0.09820(7)
H1_43 H 0.5652 0.7519 0.0790
N7_41 N 0.55296(5) 0.74569(6) 0.12040(6)
C2_41 C 0.52194(6) 0.70450(7) 0.12679(7)
H2_41 H 0.5349 0.6921 0.1352
N8_43 N 0.35676(5) 0.68822(5) 0.23153(5)
N9_43 N 0.37768(5) 0.68652(5) 0.19046(5)
N10_43 N 0.33835(5) 0.67572(5) 0.21175(5)
N11_43 N 0.39859(5) 0.68877(5) 0.17011(5)
C3_43 C 0.40275(6) 0.71092(6) 0.15189(6)
H3_43 H 0.3918 0.7274 0.1511
C4_43 C 0.35136(7) 0.67510(7) 0.18733(6)
H4_43 H 0.3438 0.6680 0.1705
C5_43 C 0.41867(6) 0.66872(6) 0.16405(7)
H5_43 H 0.4207 0.6513 0.1732
C6_41 C 0.50281(6) 0.74248(7) 0.10769(7)
H6_43 H 0.5003 0.7609 0.1008
C7_43 C 0.56645(6) 0.75334(7) 0.14464(7)
H7_43 H 0.5598 0.7503 0.1630
C8_43 C 0.38009(7) 0.69479(7) 0.21810(6)
H8_43 H 0.3958 0.7037 0.2261
N12_41 N 0.52729(5) 0.73185(6) 0.11856(6)
Cu4_23 Cu 0.626693(9) 0.779505(9) 0.087203(9)
Cu5_34 Cu 0.307950(9) 0.649963(9) 0.225430(9)
Cu6_34 Cu 0.350037(9) 0.692050(9) 0.274570(9)
N15_43 N 0.43822(5) 0.76847(5) 0.10676(5)
N16_43 N 0.41165(5) 0.71175(5) 0.07428(5)
Cu1_34 Cu 0.779505(9) 0.662797(9) 0.123307(9)
Cu2_44 Cu 0.807950(9) 0.725430(9) 0.149963(9)
N1_44 N 0.76647(5) 0.72281(5) 0.14154(5)
N2_44 N 0.75452(5) 0.69880(5) 0.12914(5)
N3_44 N 0.81541(5) 0.67807(5) 0.10658(5)
N4_44 N 0.82553(5) 0.70514(5) 0.11409(5)
N6_22 N 0.65967(5) 0.76573(5) 0.11205(5)
C1_44 C 0.68064(6) 0.75436(7) 0.15180(7)
H1_44 H 0.6848 0.7519 0.1710
N7_42 N 0.69704(5) 0.74569(6) 0.12960(6)
C2_42 C 0.72806(6) 0.70450(7) 0.12321(7)
H2_42 H 0.7151 0.6921 0.1148
N8_44 N 0.89324(5) 0.68822(5) 0.01847(5)
N9_44 N 0.87232(5) 0.68652(5) 0.05954(5)
N10_44 N 0.91165(5) 0.67572(5) 0.03825(5)
N11_44 N 0.85141(5) 0.68877(5) 0.07989(5)
C3_44 C 0.84725(6) 0.71092(6) 0.09811(6)
H3_44 H 0.8582 0.7274 0.0989
C4_44 C 0.89864(7) 0.67510(7) 0.06267(6)
H4_44 H 0.9062 0.6680 0.0795
C5_44 C 0.83133(6) 0.66872(6) 0.08595(7)
H5_44 H 0.8293 0.6513 0.0768
C6_42 C 0.74719(6) 0.74248(7) 0.14231(7)
H6_44 H 0.7497 0.7609 0.1492
C7_44 C 0.68355(6) 0.75334(7) 0.10536(7)
H7_44 H 0.6902 0.7503 0.0870
C8_44 C 0.86991(7) 0.69479(7) 0.03190(6)
H8_44 H 0.8542 0.7037 0.0239
N12_42 N 0.72271(5) 0.73185(6) 0.13144(6)
Cu5_35 Cu 0.942050(9) 0.649963(9) 0.024570(9)
N13_34 N 0.76677(6) 0.64161(5) 0.15799(5)
N14_38 N 0.76573(5) 0.63795(5) 0.09033(5)
N15_44 N 0.81178(5) 0.76847(5) 0.14324(5)
N16_44 N 0.83835(5) 0.71175(5) 0.17572(5)
Cu6_35 Cu 0.899963(9) 0.692050(9) 0.975430(9)
Cu2_45 Cu 0.307950(9) 0.024570(9) 0.100037(9)
N1_45 N 0.26647(5) 0.02719(5) 0.10846(5)
N2_45 N 0.25452(5) 0.05120(5) 0.12086(5)
N3_45 N 0.31541(5) 0.07193(5) 0.14342(5)
N4_45 N 0.32553(5) 0.04486(5) 0.13591(5)
N7_43 N 0.19704(5) 0.00431(6) 0.12040(6)
C2_43 C 0.22806(6) 0.04550(7) 0.12679(7)
H2_43 H 0.2151 0.0579 0.1352
N8_45 N 0.39324(5) 0.06178(5) 0.23153(5)
N9_45 N 0.37232(5) 0.06348(5) 0.19046(5)
N10_45 N 0.41165(5) 0.07428(5) 0.21175(5)
N11_45 N 0.35141(5) 0.06123(5) 0.17011(5)
C3_45 C 0.34725(6) 0.03908(6) 0.15189(6)
H3_45 H 0.3582 0.0226 0.1511
C4_45 C 0.39864(7) 0.07490(7) 0.18733(6)
H4_45 H 0.4062 0.0820 0.1705
C5_45 C 0.33133(6) 0.08128(6) 0.16405(7)
H5_45 H 0.3293 0.0987 0.1732
C6_43 C 0.24719(6) 0.00752(7) 0.10769(7)
C8_45 C 0.36991(7) 0.05521(7) 0.21810(6)
H8_45 H 0.3542 0.0463 0.2261
N12_43 N 0.22271(5) 0.01815(6) 0.11856(6)
N16_45 N 0.33835(5) 0.03825(5) 0.07428(5)
N5_34 N 0.15799(5) 0.98323(6) 0.10839(5)
C1_45 C 0.18064(6) 0.99564(7) 0.09820(7)
H1_45 H 0.1848 0.9981 0.0790
H6_45 H 0.2497 0.9891 0.1008
C7_45 C 0.18355(6) 0.99666(7) 0.14464(7)
H7_45 H 0.1902 0.9997 0.1630
N15_45 N 0.31178(5) 0.98153(5) 0.10676(5)
Cu2_46 Cu 0.475430(9) 0.692050(9) 0.899963(9)
N1_46 N 0.47281(5) 0.73353(5) 0.89154(5)
N2_46 N 0.44880(5) 0.74548(5) 0.87914(5)
N3_46 N 0.42807(5) 0.68459(5) 0.85658(5)
N4_46 N 0.45514(5) 0.67447(5) 0.86409(5)
C1_46 C 0.50436(7) 0.81936(6) 0.90180(7)
H1_46 H 0.5019 0.8152 0.9210
N7_44 N 0.49569(6) 0.80296(5) 0.87960(6)
C2_44 C 0.45450(7) 0.77194(6) 0.87321(7)
H2_44 H 0.4421 0.7849 0.8648
N8_46 N 0.43822(5) 0.60676(5) 0.76847(5)
N9_46 N 0.43652(5) 0.62768(5) 0.80954(5)
N10_46 N 0.42572(5) 0.58835(5) 0.78825(5)
N11_46 N 0.43877(5) 0.64859(5) 0.82989(5)
C3_46 C 0.46092(6) 0.65275(6) 0.84811(6)
H3_46 H 0.4774 0.6418 0.8489
C4_46 C 0.42510(7) 0.60136(7) 0.81267(6)
H4_46 H 0.4180 0.5938 0.8295
C5_46 C 0.41872(6) 0.66867(6) 0.83595(7)
H5_46 H 0.4013 0.6707 0.8268
C6_44 C 0.49248(7) 0.75281(6) 0.89231(7)
H6_46 H 0.5109 0.7503 0.8992
C7_46 C 0.50334(7) 0.81645(6) 0.85536(7)
H7_46 H 0.5003 0.8098 0.8370
C8_46 C 0.44479(7) 0.63009(7) 0.78190(6)
H8_46 H 0.4537 0.6458 0.7739
N12_44 N 0.48185(6) 0.77729(5) 0.88144(6)
N15_46 N 0.51847(5) 0.68822(5) 0.89324(5)
N16_46 N 0.46175(5) 0.66165(5) 0.92572(5)
Cu1_35 Cu 0.837203(9) 0.220495(9) 0.876693(9)
Cu2_47 Cu 0.774570(9) 0.192050(9) 0.850037(9)
N1_47 N 0.77719(5) 0.23353(5) 0.85846(5)
N2_47 N 0.80120(5) 0.24548(5) 0.87086(5)
N3_47 N 0.82193(5) 0.18459(5) 0.89342(5)
N4_47 N 0.79486(5) 0.17447(5) 0.88591(5)
N5_35 N 0.73323(6) 0.34201(5) 0.85839(5)
N6_23 N 0.73427(5) 0.34033(5) 0.88795(5)
C1_47 C 0.74564(7) 0.31936(6) 0.84820(7)
H1_47 H 0.7481 0.3152 0.8290
N7_45 N 0.75431(6) 0.30296(5) 0.87040(6)
C2_45 C 0.79550(7) 0.27194(6) 0.87679(7)
H2_45 H 0.8079 0.2849 0.8852
N8_47 N 0.81178(5) 0.10676(5) 0.98153(5)
N9_47 N 0.81348(5) 0.12768(5) 0.94046(5)
N10_47 N 0.82428(5) 0.08835(5) 0.96175(5)
N11_47 N 0.81123(5) 0.14859(5) 0.92011(5)
C3_47 C 0.78908(6) 0.15275(6) 0.90189(6)
H3_47 H 0.7726 0.1418 0.9011
C4_47 C 0.82490(7) 0.10136(7) 0.93733(6)
H4_47 H 0.8320 0.0938 0.9205
C5_47 C 0.83128(6) 0.16867(6) 0.91405(7)
H5_47 H 0.8487 0.1707 0.9232
C6_45 C 0.75752(7) 0.25281(6) 0.85769(7)
H6_47 H 0.7391 0.2503 0.8508
C7_47 C 0.74666(7) 0.31645(6) 0.89464(7)
H7_47 H 0.7497 0.3098 0.9130
C8_47 C 0.80521(7) 0.13009(7) 0.96810(6)
H8_47 H 0.7963 0.1458 0.9761
N12_45 N 0.76815(6) 0.27729(5) 0.86856(6)
Cu3_12 Cu 0.720495(9) 0.373307(9) 0.912797(9)
Cu4_24 Cu 0.720495(9) 0.376693(9) 0.837203(9)
N13_35 N 0.85839(5) 0.23323(6) 0.84201(5)
N14_39 N 0.86205(5) 0.23427(5) 0.90967(5)
N15_47 N 0.73153(5) 0.18822(5) 0.85676(5)
N16_47 N 0.78825(5) 0.16165(5) 0.82428(5)
Cu1_36 Cu 0.837203(9) 0.529505(9) 0.873307(9)
Cu2_48 Cu 0.774570(9) 0.557950(9) 0.899963(9)
N1_48 N 0.77719(5) 0.51647(5) 0.89154(5)
N2_48 N 0.80120(5) 0.50452(5) 0.87914(5)
N3_48 N 0.82193(5) 0.56541(5) 0.85658(5)
N4_48 N 0.79486(5) 0.57553(5) 0.86409(5)
N5_36 N 0.73323(6) 0.40799(5) 0.89161(5)
N6_24 N 0.73427(5) 0.40967(5) 0.86205(5)
C1_48 C 0.74564(7) 0.43064(6) 0.90180(7)
H1_48 H 0.7481 0.4348 0.9210
N7_46 N 0.75431(6) 0.44704(5) 0.87960(6)
C2_46 C 0.79550(7) 0.47806(6) 0.87321(7)
H2_46 H 0.8079 0.4651 0.8648
N8_48 N 0.81178(5) 0.64324(5) 0.76847(5)
N9_48 N 0.81348(5) 0.62232(5) 0.80954(5)
N10_48 N 0.82428(5) 0.66165(5) 0.78825(5)
N11_48 N 0.81123(5) 0.60141(5) 0.82989(5)
C3_48 C 0.78908(6) 0.59725(6) 0.84811(6)
H3_48 H 0.7726 0.6082 0.8489
C4_48 C 0.82490(7) 0.64864(7) 0.81267(6)
H4_48 H 0.8320 0.6562 0.8295
C5_48 C 0.83128(6) 0.58133(6) 0.83595(7)
H5_48 H 0.8487 0.5793 0.8268
C6_46 C 0.75752(7) 0.49719(6) 0.89231(7)
H6_48 H 0.7391 0.4997 0.8992
C7_48 C 0.74666(7) 0.43355(6) 0.85536(7)
H7_48 H 0.7497 0.4402 0.8370
C8_48 C 0.80521(7) 0.61991(7) 0.78190(6)
H8_48 H 0.7963 0.6042 0.7739
N12_46 N 0.76815(6) 0.47271(5) 0.88144(6)
Cu5_36 Cu 0.850037(9) 0.692050(9) 0.774570(9)
Cu6_36 Cu 0.807950(9) 0.649963(9) 0.725430(9)
N13_36 N 0.85839(5) 0.51677(6) 0.90799(5)
N14_40 N 0.86205(5) 0.51573(5) 0.84033(5)
N15_48 N 0.73153(5) 0.56178(5) 0.89324(5)
N16_48 N 0.78825(5) 0.58835(5) 0.92572(5)
Cu6_37 Cu 0.024570(9) 0.442050(9) 0.149963(9)
Cu1_37 Cu 0.876693(9) 0.412797(9) 0.029505(9)
Cu2_49 Cu 0.850037(9) 0.475430(9) 0.057950(9)
N1_49 N 0.85846(5) 0.47281(5) 0.01647(5)
N2_49 N 0.87086(5) 0.44880(5) 0.00452(5)
N3_49 N 0.89342(5) 0.42807(5) 0.06541(5)
N4_49 N 0.88591(5) 0.45514(5) 0.07553(5)
N8_49 N 0.98153(5) 0.43822(5) 0.14324(5)
N9_49 N 0.94046(5) 0.43652(5) 0.12232(5)
N10_49 N 0.96175(5) 0.42572(5) 0.16165(5)
N11_49 N 0.92011(5) 0.43877(5) 0.10141(5)
C3_49 C 0.90189(6) 0.46092(6) 0.09725(6)
H3_49 H 0.9011 0.4774 0.1082
C4_49 C 0.93733(6) 0.42510(7) 0.14864(7)
H4_49 H 0.9205 0.4180 0.1562
C5_49 C 0.91405(7) 0.41872(6) 0.08133(6)
H5_49 H 0.9232 0.4013 0.0793
C8_49 C 0.96810(6) 0.44479(7) 0.11991(7)
H8_49 H 0.9761 0.4537 0.1042
Cu5_37 Cu 0.975430(9) 0.399963(9) 0.192050(9)
N13_37 N 0.84201(5) 0.39161(5) 0.01677(6)
N14_41 N 0.90967(5) 0.38795(5) 0.01573(5)
N15_49 N 0.85676(5) 0.51847(5) 0.06178(5)
N16_49 N 0.82428(5) 0.46175(5) 0.08835(5)
N6_25 N 0.88795(5) 0.51573(5) 0.90967(5)
C1_49 C 0.84820(7) 0.50436(7) 0.93064(6)
H1_49 H 0.8290 0.5019 0.9348
N7_47 N 0.87040(6) 0.49569(6) 0.94704(5)
C2_47 C 0.87679(7) 0.45450(7) 0.97806(6)
H2_47 H 0.8852 0.4421 0.9651
C6_47 C 0.85769(7) 0.49248(7) 0.99719(6)
H6_49 H 0.8508 0.5109 0.9997
C7_49 C 0.89464(7) 0.50334(7) 0.93355(6)
H7_49 H 0.9130 0.5003 0.9402
N12_47 N 0.86856(6) 0.48185(6) 0.97271(5)
Cu3_13 Cu 0.912797(9) 0.529505(9) 0.876693(9)
Cu2_50 Cu 0.024570(9) 0.600037(9) 0.807950(9)
N1_50 N 0.02719(5) 0.60846(5) 0.76647(5)
N2_50 N 0.05120(5) 0.62086(5) 0.75452(5)
N3_50 N 0.07193(5) 0.64342(5) 0.81541(5)
N4_50 N 0.04486(5) 0.63591(5) 0.82553(5)
N7_48 N 0.00431(6) 0.62040(6) 0.69704(5)
C2_48 C 0.04550(7) 0.62679(7) 0.72806(6)
H2_48 H 0.0579 0.6352 0.7151
N8_50 N 0.06178(5) 0.73153(5) 0.89324(5)
N9_50 N 0.06348(5) 0.69046(5) 0.87232(5)
N10_50 N 0.07428(5) 0.71175(5) 0.91165(5)
N11_50 N 0.06123(5) 0.67011(5) 0.85141(5)
C3_50 C 0.03908(6) 0.65189(6) 0.84725(6)
H3_50 H 0.0226 0.6511 0.8582
C4_50 C 0.07490(7) 0.68733(6) 0.89864(7)
H4_50 H 0.0820 0.6705 0.9062
C5_50 C 0.08128(6) 0.66405(7) 0.83133(6)
H5_50 H 0.0987 0.6732 0.8293
C6_48 C 0.00752(7) 0.60769(7) 0.74719(6)
C8_50 C 0.05521(7) 0.71810(6) 0.86991(7)
H8_50 H 0.0463 0.7261 0.8542
N12_48 N 0.01815(6) 0.61856(6) 0.72271(5)
N14_42 N 0.11205(5) 0.65967(5) 0.76573(5)
N16_50 N 0.03825(5) 0.57428(5) 0.83835(5)
N6_26 N 0.98427(5) 0.63795(5) 0.65967(5)
C1_50 C 0.99564(7) 0.59820(7) 0.68064(6)
H1_50 H 0.9981 0.5790 0.6848
H6_50 H 0.9891 0.6008 0.7497
C7_50 C 0.99666(7) 0.64464(7) 0.68355(6)
H7_50 H 0.9997 0.6630 0.6902
Cu3_14 Cu 0.970495(9) 0.662797(9) 0.626693(9)
N15_50 N 0.98153(5) 0.60676(5) 0.81178(5)
Cu1_38 Cu 0.873307(9) 0.837203(9) 0.529505(9)
Cu2_51 Cu 0.899963(9) 0.774570(9) 0.557950(9)
N1_51 N 0.89154(5) 0.77719(5) 0.51647(5)
N2_51 N 0.87914(5) 0.80120(5) 0.50452(5)
N3_51 N 0.85658(5) 0.82193(5) 0.56541(5)
N4_51 N 0.86409(5) 0.79486(5) 0.57553(5)
N5_37 N 0.89161(5) 0.73323(6) 0.40799(5)
C1_51 C 0.90180(7) 0.74564(7) 0.43064(6)
H1_51 H 0.9210 0.7481 0.4348
N7_49 N 0.87960(6) 0.75431(6) 0.44704(5)
C2_49 C 0.87321(7) 0.79550(7) 0.47806(6)
H2_49 H 0.8648 0.8079 0.4651
N8_51 N 0.76847(5) 0.81178(5) 0.64324(5)
N9_51 N 0.80954(5) 0.81348(5) 0.62232(5)
N10_51 N 0.78825(5) 0.82428(5) 0.66165(5)
N11_51 N 0.82989(5) 0.81123(5) 0.60141(5)
C3_51 C 0.84811(6) 0.78908(6) 0.59725(6)
H3_51 H 0.8489 0.7726 0.6082
C4_51 C 0.81267(6) 0.82490(7) 0.64864(7)
H4_51 H 0.8295 0.8320 0.6562
C5_51 C 0.83595(7) 0.83128(6) 0.58133(6)
H5_51 H 0.8268 0.8487 0.5793
C6_49 C 0.89231(7) 0.75752(7) 0.49719(6)
H6_51 H 0.8992 0.7391 0.4997
C7_51 C 0.85536(7) 0.74666(7) 0.43355(6)
H7_51 H 0.8370 0.7497 0.4402
C8_51 C 0.78190(6) 0.80521(7) 0.61991(7)
H8_51 H 0.7739 0.7963 0.6042
N12_49 N 0.88144(6) 0.76815(6) 0.47271(5)
Cu4_25 Cu 0.912797(9) 0.720495(9) 0.373307(9)
Cu5_38 Cu 0.774570(9) 0.850037(9) 0.692050(9)
Cu6_38 Cu 0.725430(9) 0.807950(9) 0.649963(9)
N13_38 N 0.90799(5) 0.85839(5) 0.51677(6)
N14_43 N 0.84033(5) 0.86205(5) 0.51573(5)
N15_51 N 0.89324(5) 0.73153(5) 0.56178(5)
N16_51 N 0.92572(5) 0.78825(5) 0.58835(5)
Cu2_52 Cu 0.725430(9) 0.649963(9) 0.307950(9)
N1_52 N 0.72281(5) 0.64154(5) 0.26647(5)
N2_52 N 0.69880(5) 0.62914(5) 0.25452(5)
N3_52 N 0.67807(5) 0.60658(5) 0.31541(5)
N4_52 N 0.70514(5) 0.61409(5) 0.32553(5)
N6_27 N 0.76573(5) 0.61205(5) 0.15967(5)
C1_52 C 0.75436(7) 0.65180(7) 0.18064(6)
H1_52 H 0.7519 0.6710 0.1848
N7_50 N 0.74569(6) 0.62960(6) 0.19704(5)
C2_50 C 0.70450(7) 0.62321(7) 0.22806(6)
H2_50 H 0.6921 0.6148 0.2151
N8_52 N 0.68822(5) 0.51847(5) 0.39324(5)
N9_52 N 0.68652(5) 0.55954(5) 0.37232(5)
N10_52 N 0.67572(5) 0.53825(5) 0.41165(5)
N11_52 N 0.68877(5) 0.57989(5) 0.35141(5)
C3_52 C 0.71092(6) 0.59811(6) 0.34725(6)
H3_52 H 0.7274 0.5989 0.3582
C4_52 C 0.67510(7) 0.56267(6) 0.39864(7)
H4_52 H 0.6680 0.5795 0.4062
C5_52 C 0.66872(6) 0.58595(7) 0.33133(6)
H5_52 H 0.6513 0.5768 0.3293
C6_50 C 0.74248(7) 0.64231(7) 0.24719(6)
H6_52 H 0.7609 0.6492 0.2497
C7_52 C 0.75334(7) 0.60536(7) 0.18355(6)
H7_52 H 0.7503 0.5870 0.1902
C8_52 C 0.69479(7) 0.53190(6) 0.36991(7)
H8_52 H 0.7037 0.5239 0.3542
N12_50 N 0.73185(6) 0.63144(6) 0.22271(5)
Cu3_15 Cu 0.779505(9) 0.587203(9) 0.126693(9)
N14_44 N 0.63795(5) 0.59033(5) 0.26573(5)
N15_52 N 0.76847(5) 0.64324(5) 0.31178(5)
N16_52 N 0.71175(5) 0.67572(5) 0.33835(5)
Cu6_39 Cu 0.024570(9) 0.807950(9) 0.100037(9)
Cu1_39 Cu 0.876693(9) 0.837203(9) 0.220495(9)
Cu2_53 Cu 0.850037(9) 0.774570(9) 0.192050(9)
N1_53 N 0.85846(5) 0.77719(5) 0.23353(5)
N2_53 N 0.87086(5) 0.80120(5) 0.24548(5)
N3_53 N 0.89342(5) 0.82193(5) 0.18459(5)
N4_53 N 0.88591(5) 0.79486(5) 0.17447(5)
N6_28 N 0.88795(5) 0.73427(5) 0.34033(5)
C1_53 C 0.84820(7) 0.74564(7) 0.31936(6)
H1_53 H 0.8290 0.7481 0.3152
N7_51 N 0.87040(6) 0.75431(6) 0.30296(5)
C2_51 C 0.87679(7) 0.79550(7) 0.27194(6)
H2_51 H 0.8852 0.8079 0.2849
N8_53 N 0.98153(5) 0.81178(5) 0.10676(5)
N9_53 N 0.94046(5) 0.81348(5) 0.12768(5)
N10_53 N 0.96175(5) 0.82428(5) 0.08835(5)
N11_53 N 0.92011(5) 0.81123(5) 0.14859(5)
C3_53 C 0.90189(6) 0.78908(6) 0.15275(6)
H3_53 H 0.9011 0.7726 0.1418
C4_53 C 0.93733(6) 0.82490(7) 0.10136(7)
H4_53 H 0.9205 0.8320 0.0938
C5_53 C 0.91405(7) 0.83128(6) 0.16867(6)
H5_53 H 0.9232 0.8487 0.1707
C6_51 C 0.85769(7) 0.75752(7) 0.25281(6)
H6_53 H 0.8508 0.7391 0.2503
C7_53 C 0.89464(7) 0.74666(7) 0.31645(6)
H7_53 H 0.9130 0.7497 0.3098
C8_53 C 0.96810(6) 0.80521(7) 0.13009(7)
H8_53 H 0.9761 0.7963 0.1458
N12_51 N 0.86856(6) 0.76815(6) 0.27729(5)
Cu5_39 Cu 0.975430(9) 0.850037(9) 0.057950(9)
N13_39 N 0.84201(5) 0.85839(5) 0.23323(6)
N14_45 N 0.90967(5) 0.86205(5) 0.23427(5)
N15_53 N 0.85676(5) 0.73153(5) 0.18822(5)
N16_53 N 0.82428(5) 0.78825(5) 0.16165(5)
N5_38 N 0.76677(6) 0.60839(5) 0.09201(5)
C1_54 C 0.75436(7) 0.59820(7) 0.06936(6)
H1_54 H 0.7519 0.5790 0.0652
N7_52 N 0.74569(6) 0.62040(6) 0.05296(5)
C2_52 C 0.70450(7) 0.62679(7) 0.02194(6)
H2_52 H 0.6921 0.6352 0.0349
C6_52 C 0.74248(7) 0.60769(7) 0.00281(6)
H6_54 H 0.7609 0.6008 0.0003
C7_54 C 0.75334(7) 0.64464(7) 0.06645(6)
H7_54 H 0.7503 0.6630 0.0598
N12_52 N 0.73185(6) 0.61856(6) 0.02729(5)
Cu2_54 Cu 0.725430(9) 0.600037(9) 0.942050(9)
N1_54 N 0.72281(5) 0.60846(5) 0.98353(5)
N2_54 N 0.69880(5) 0.62086(5) 0.99548(5)
N3_54 N 0.67807(5) 0.64342(5) 0.93459(5)
N4_54 N 0.70514(5) 0.63591(5) 0.92447(5)
N8_54 N 0.68822(5) 0.73153(5) 0.85676(5)
N9_54 N 0.68652(5) 0.69046(5) 0.87768(5)
N10_54 N 0.67572(5) 0.71175(5) 0.83835(5)
N11_54 N 0.68877(5) 0.67011(5) 0.89859(5)
C3_54 C 0.71092(6) 0.65189(6) 0.90275(6)
H3_54 H 0.7274 0.6511 0.8918
C4_54 C 0.67510(7) 0.68733(6) 0.85136(7)
H4_54 H 0.6680 0.6705 0.8438
C5_54 C 0.66872(6) 0.66405(7) 0.91867(6)
H5_54 H 0.6513 0.6732 0.9207
C8_54 C 0.69479(7) 0.71810(6) 0.88009(7)
H8_54 H 0.7037 0.7261 0.8958
N14_46 N 0.63795(5) 0.65967(5) 0.98427(5)
N15_54 N 0.76847(5) 0.60676(5) 0.93822(5)
N16_54 N 0.71175(5) 0.57428(5) 0.91165(5)
Cu1_40 Cu 0.873307(9) 0.412797(9) 0.720495(9)
Cu2_55 Cu 0.899963(9) 0.475430(9) 0.692050(9)
N1_55 N 0.89154(5) 0.47281(5) 0.73353(5)
N2_55 N 0.87914(5) 0.44880(5) 0.74548(5)
N3_55 N 0.85658(5) 0.42807(5) 0.68459(5)
N4_55 N 0.86409(5) 0.45514(5) 0.67447(5)
N5_39 N 0.89161(5) 0.51677(6) 0.84201(5)
C1_55 C 0.90180(7) 0.50436(7) 0.81936(6)
H1_55 H 0.9210 0.5019 0.8152
N7_53 N 0.87960(6) 0.49569(6) 0.80296(5)
C2_53 C 0.87321(7) 0.45450(7) 0.77194(6)
H2_53 H 0.8648 0.4421 0.7849
N8_55 N 0.76847(5) 0.43822(5) 0.60676(5)
N9_55 N 0.80954(5) 0.43652(5) 0.62768(5)
N10_55 N 0.78825(5) 0.42572(5) 0.58835(5)
N11_55 N 0.82989(5) 0.43877(5) 0.64859(5)
C3_55 C 0.84811(6) 0.46092(6) 0.65275(6)
H3_55 H 0.8489 0.4774 0.6418
C4_55 C 0.81267(6) 0.42510(7) 0.60136(7)
H4_55 H 0.8295 0.4180 0.5938
C5_55 C 0.83595(7) 0.41872(6) 0.66867(6)
H5_55 H 0.8268 0.4013 0.6707
C6_53 C 0.89231(7) 0.49248(7) 0.75281(6)
H6_55 H 0.8992 0.5109 0.7503
C7_55 C 0.85536(7) 0.50334(7) 0.81645(6)
H7_55 H 0.8370 0.5003 0.8098
C8_55 C 0.78190(6) 0.44479(7) 0.63009(7)
H8_55 H 0.7739 0.4537 0.6458
N12_53 N 0.88144(6) 0.48185(6) 0.77729(5)
Cu5_40 Cu 0.774570(9) 0.399963(9) 0.557950(9)
Cu6_40 Cu 0.725430(9) 0.442050(9) 0.600037(9)
N13_40 N 0.90799(5) 0.39161(5) 0.73323(6)
N14_47 N 0.84033(5) 0.38795(5) 0.73427(5)
N15_55 N 0.89324(5) 0.51847(5) 0.68822(5)
N16_55 N 0.92572(5) 0.46175(5) 0.66165(5)
Cu2_56 Cu 0.024570(9) 0.649963(9) 0.442050(9)
N1_56 N 0.02719(5) 0.64154(5) 0.48353(5)
N2_56 N 0.05120(5) 0.62914(5) 0.49548(5)
N3_56 N 0.07193(5) 0.60658(5) 0.43459(5)
N4_56 N 0.04486(5) 0.61409(5) 0.42447(5)
N7_54 N 0.00431(6) 0.62960(6) 0.55296(5)
C2_54 C 0.04550(7) 0.62321(7) 0.52194(6)
H2_54 H 0.0579 0.6148 0.5349
N8_56 N 0.06178(5) 0.51847(5) 0.35676(5)
N9_56 N 0.06348(5) 0.55954(5) 0.37768(5)
N10_56 N 0.07428(5) 0.53825(5) 0.33835(5)
N11_56 N 0.06123(5) 0.57989(5) 0.39859(5)
C3_56 C 0.03908(6) 0.59811(6) 0.40275(6)
H3_56 H 0.0226 0.5989 0.3918
C4_56 C 0.07490(7) 0.56267(6) 0.35136(7)
H4_56 H 0.0820 0.5795 0.3438
C5_56 C 0.08128(6) 0.58595(7) 0.41867(6)
H5_56 H 0.0987 0.5768 0.4207
C6_54 C 0.00752(7) 0.64231(7) 0.50281(6)
C8_56 C 0.05521(7) 0.53190(6) 0.38009(7)
H8_56 H 0.0463 0.5239 0.3958
N12_54 N 0.01815(6) 0.63144(6) 0.52729(5)
N14_48 N 0.11205(5) 0.59033(5) 0.48427(5)
N16_56 N 0.03825(5) 0.67572(5) 0.41165(5)
N5_40 N 0.98323(6) 0.64161(5) 0.59201(5)
C1_56 C 0.99564(7) 0.65180(7) 0.56936(6)
H1_56 H 0.9981 0.6710 0.5652
H6_56 H 0.9891 0.6492 0.5003
C7_56 C 0.99666(7) 0.60536(7) 0.56645(6)
H7_56 H 0.9997 0.5870 0.5598
N15_56 N 0.98153(5) 0.64324(5) 0.43822(5)
N15_57 N 0.06178(5) 0.35676(5) 0.01847(5)
Cu1_41 Cu 0.029505(9) 0.376693(9) 0.912797(9)
Cu2_57 Cu 0.057950(9) 0.350037(9) 0.975430(9)
N1_57 N 0.01647(5) 0.35846(5) 0.97281(5)
N2_57 N 0.00452(5) 0.37086(5) 0.94880(5)
N3_57 N 0.06541(5) 0.39342(5) 0.92807(5)
N4_57 N 0.07553(5) 0.38591(5) 0.95514(5)
N8_57 N 0.14324(5) 0.48153(5) 0.93822(5)
N9_57 N 0.12232(5) 0.44046(5) 0.93652(5)
N10_57 N 0.16165(5) 0.46175(5) 0.92572(5)
N11_57 N 0.10141(5) 0.42011(5) 0.93877(5)
C3_57 C 0.09725(6) 0.40189(6) 0.96092(6)
H3_57 H 0.1082 0.4011 0.9774
C4_57 C 0.14864(7) 0.43733(6) 0.92510(7)
H4_57 H 0.1562 0.4205 0.9180
C5_57 C 0.08133(6) 0.41405(7) 0.91872(6)
H5_57 H 0.0793 0.4232 0.9013
C8_57 C 0.11991(7) 0.46810(6) 0.94479(7)
H8_57 H 0.1042 0.4761 0.9537
N13_41 N 0.01677(6) 0.34201(5) 0.89161(5)
N14_49 N 0.01573(5) 0.40967(5) 0.88795(5)
N16_57 N 0.08835(5) 0.32428(5) 0.96175(5)
N5_41 N 0.90799(5) 0.35839(5) 0.01677(6)
C1_57 C 0.93064(6) 0.34820(7) 0.00436(7)
H1_57 H 0.9348 0.3290 0.0019
H6_57 H 0.9997 0.3508 0.0109
C7_57 C 0.93355(6) 0.39464(7) 0.00334(7)
H7_57 H 0.9402 0.4130 0.0003
Cu4_26 Cu 0.873307(9) 0.337203(9) 0.029505(9)
Cu1_42 Cu 0.123307(9) 0.779505(9) 0.662797(9)
Cu2_58 Cu 0.149963(9) 0.807950(9) 0.725430(9)
N1_58 N 0.14154(5) 0.76647(5) 0.72281(5)
N2_58 N 0.12914(5) 0.75452(5) 0.69880(5)
N3_58 N 0.10658(5) 0.81541(5) 0.67807(5)
N4_58 N 0.11409(5) 0.82553(5) 0.70514(5)
C1_58 C 0.15180(7) 0.68064(6) 0.75436(7)
H1_58 H 0.1710 0.6848 0.7519
N7_55 N 0.12960(6) 0.69704(5) 0.74569(6)
C2_55 C 0.12321(7) 0.72806(6) 0.70450(7)
H2_55 H 0.1148 0.7151 0.6921
N8_58 N 0.01847(5) 0.89324(5) 0.68822(5)
N9_58 N 0.05954(5) 0.87232(5) 0.68652(5)
N10_58 N 0.03825(5) 0.91165(5) 0.67572(5)
N11_58 N 0.07989(5) 0.85141(5) 0.68877(5)
C3_58 C 0.09811(6) 0.84725(6) 0.71092(6)
H3_58 H 0.0989 0.8582 0.7274
C4_58 C 0.06267(6) 0.89864(7) 0.67510(7)
H4_58 H 0.0795 0.9062 0.6680
C5_58 C 0.08595(7) 0.83133(6) 0.66872(6)
H5_58 H 0.0768 0.8293 0.6513
C6_55 C 0.14231(7) 0.74719(6) 0.74248(7)
H6_58 H 0.1492 0.7497 0.7609
C7_58 C 0.10536(7) 0.68355(6) 0.75334(7)
H7_58 H 0.0870 0.6902 0.7503
C8_58 C 0.03190(6) 0.86991(7) 0.69479(7)
H8_58 H 0.0239 0.8542 0.7037
N12_55 N 0.13144(6) 0.72271(5) 0.73185(6)
Cu5_41 Cu 0.024570(9) 0.942050(9) 0.649963(9)
N13_42 N 0.15799(5) 0.76677(6) 0.64161(5)
N14_50 N 0.09033(5) 0.76573(5) 0.63795(5)
N15_58 N 0.14324(5) 0.81178(5) 0.76847(5)
N16_58 N 0.17572(5) 0.83835(5) 0.71175(5)
Cu6_41 Cu 0.975430(9) 0.899963(9) 0.692050(9)
Cu2_59 Cu 0.692050(9) 0.899963(9) 0.475430(9)
N1_59 N 0.73353(5) 0.89154(5) 0.47281(5)
N2_59 N 0.74548(5) 0.87914(5) 0.44880(5)
N3_59 N 0.68459(5) 0.85658(5) 0.42807(5)
N4_59 N 0.67447(5) 0.86409(5) 0.45514(5)
N5_42 N 0.84201(5) 0.89161(5) 0.51677(6)
C1_59 C 0.81936(6) 0.90180(7) 0.50436(7)
H1_59 H 0.8152 0.9210 0.5019
N7_56 N 0.80296(5) 0.87960(6) 0.49569(6)
C2_56 C 0.77194(6) 0.87321(7) 0.45450(7)
H2_56 H 0.7849 0.8648 0.4421
N8_59 N 0.60676(5) 0.76847(5) 0.43822(5)
N9_59 N 0.62768(5) 0.80954(5) 0.43652(5)
N10_59 N 0.58835(5) 0.78825(5) 0.42572(5)
N11_59 N 0.64859(5) 0.82989(5) 0.43877(5)
C3_59 C 0.65275(6) 0.84811(6) 0.46092(6)
H3_59 H 0.6418 0.8489 0.4774
C4_59 C 0.60136(7) 0.81267(6) 0.42510(7)
H4_59 H 0.5938 0.8295 0.4180
C5_59 C 0.66867(6) 0.83595(7) 0.41872(6)
H5_59 H 0.6707 0.8268 0.4013
C6_56 C 0.75281(6) 0.89231(7) 0.49248(7)
H6_59 H 0.7503 0.8992 0.5109
C7_59 C 0.81645(6) 0.85536(7) 0.50334(7)
H7_59 H 0.8098 0.8370 0.5003
C8_59 C 0.63009(7) 0.78190(6) 0.44479(7)
H8_59 H 0.6458 0.7739 0.4537
N12_56 N 0.77729(5) 0.88144(6) 0.48185(6)
Cu4_27 Cu 0.876693(9) 0.912797(9) 0.529505(9)
N15_59 N 0.68822(5) 0.89324(5) 0.51847(5)
N16_59 N 0.66165(5) 0.92572(5) 0.46175(5)
Cu1_43 Cu 0.626693(9) 0.470495(9) 0.162797(9)
Cu2_60 Cu 0.600037(9) 0.442050(9) 0.225430(9)
N1_60 N 0.60846(5) 0.48353(5) 0.22281(5)
N2_60 N 0.62086(5) 0.49548(5) 0.19880(5)
N3_60 N 0.64342(5) 0.43459(5) 0.17807(5)
N4_60 N 0.63591(5) 0.42447(5) 0.20514(5)
C1_60 C 0.59820(7) 0.56936(6) 0.25436(7)
H1_60 H 0.5790 0.5652 0.2519
N7_57 N 0.62040(6) 0.55296(5) 0.24569(6)
C2_57 C 0.62679(7) 0.52194(6) 0.20450(7)
H2_57 H 0.6352 0.5349 0.1921
N8_60 N 0.73153(5) 0.35676(5) 0.18822(5)
N9_60 N 0.69046(5) 0.37768(5) 0.18652(5)
N10_60 N 0.71175(5) 0.33835(5) 0.17572(5)
N11_60 N 0.67011(5) 0.39859(5) 0.18877(5)
C3_60 C 0.65189(6) 0.40275(6) 0.21092(6)
H3_60 H 0.6511 0.3918 0.2274
C4_60 C 0.68733(6) 0.35136(7) 0.17510(7)
H4_60 H 0.6705 0.3438 0.1680
C5_60 C 0.66405(7) 0.41867(6) 0.16872(6)
H5_60 H 0.6732 0.4207 0.1513
C6_57 C 0.60769(7) 0.50281(6) 0.24248(7)
H6_60 H 0.6008 0.5003 0.2609
C7_60 C 0.64464(7) 0.56645(6) 0.25334(7)
H7_60 H 0.6630 0.5598 0.2503
C8_60 C 0.71810(6) 0.38009(7) 0.19479(7)
H8_60 H 0.7261 0.3958 0.2037
N12_57 N 0.61856(6) 0.52729(5) 0.23185(6)
Cu5_42 Cu 0.725430(9) 0.307950(9) 0.149963(9)
Cu6_42 Cu 0.774570(9) 0.350037(9) 0.192050(9)
N13_43 N 0.59201(5) 0.48323(6) 0.14161(5)
N14_51 N 0.65967(5) 0.48427(5) 0.13795(5)
N15_60 N 0.60676(5) 0.43822(5) 0.26847(5)
N16_60 N 0.57428(5) 0.41165(5) 0.21175(5)
Cu1_44 Cu 0.029505(9) 0.873307(9) 0.337203(9)
Cu2_61 Cu 0.057950(9) 0.899963(9) 0.274570(9)
N1_61 N 0.01647(5) 0.89154(5) 0.27719(5)
N2_61 N 0.00452(5) 0.87914(5) 0.30120(5)
N3_61 N 0.06541(5) 0.85658(5) 0.32193(5)
N4_61 N 0.07553(5) 0.86409(5) 0.29486(5)
N8_61 N 0.14324(5) 0.76847(5) 0.31178(5)
N9_61 N 0.12232(5) 0.80954(5) 0.31348(5)
N10_61 N 0.16165(5) 0.78825(5) 0.32428(5)
N11_61 N 0.10141(5) 0.82989(5) 0.31123(5)
C3_61 C 0.09725(6) 0.84811(6) 0.28908(6)
H3_61 H 0.1082 0.8489 0.2726
C4_61 C 0.14864(7) 0.81267(6) 0.32490(7)
H4_61 H 0.1562 0.8295 0.3320
C5_61 C 0.08133(6) 0.83595(7) 0.33128(6)
H5_61 H 0.0793 0.8268 0.3487
C8_61 C 0.11991(7) 0.78190(6) 0.30521(7)
H8_61 H 0.1042 0.7739 0.2963
N13_44 N 0.01677(6) 0.90799(5) 0.35839(5)
N14_52 N 0.01573(5) 0.84033(5) 0.36205(5)
N15_61 N 0.06178(5) 0.89324(5) 0.23153(5)
N16_61 N 0.08835(5) 0.92572(5) 0.28825(5)
N5_43 N 0.90799(5) 0.89161(5) 0.23323(6)
C1_61 C 0.93064(6) 0.90180(7) 0.24564(7)
H1_61 H 0.9348 0.9210 0.2481
N7_58 N 0.94704(5) 0.87960(6) 0.25431(6)
C2_58 C 0.97806(6) 0.87321(7) 0.29550(7)
H2_58 H 0.9651 0.8648 0.3079
C6_58 C 0.99719(6) 0.89231(7) 0.25752(7)
H6_61 H 0.9997 0.8992 0.2391
C7_61 C 0.93355(6) 0.85536(7) 0.24666(7)
H7_61 H 0.9402 0.8370 0.2497
N12_58 N 0.97271(5) 0.88144(6) 0.26815(6)
Cu4_28 Cu 0.873307(9) 0.912797(9) 0.220495(9)
Cu2_62 Cu 0.600037(9) 0.807950(9) 0.024570(9)
N1_62 N 0.60846(5) 0.76647(5) 0.02719(5)
N2_62 N 0.62086(5) 0.75452(5) 0.05120(5)
N3_62 N 0.64342(5) 0.81541(5) 0.07193(5)
N4_62 N 0.63591(5) 0.82553(5) 0.04486(5)
N7_59 N 0.62040(6) 0.69704(5) 0.00431(6)
C2_59 C 0.62679(7) 0.72806(6) 0.04550(7)
H2_59 H 0.6352 0.7151 0.0579
N8_62 N 0.73153(5) 0.89324(5) 0.06178(5)
N9_62 N 0.69046(5) 0.87232(5) 0.06348(5)
N10_62 N 0.71175(5) 0.91165(5) 0.07428(5)
N11_62 N 0.67011(5) 0.85141(5) 0.06123(5)
C3_62 C 0.65189(6) 0.84725(6) 0.03908(6)
H3_62 H 0.6511 0.8582 0.0226
C4_62 C 0.68733(6) 0.89864(7) 0.07490(7)
H4_62 H 0.6705 0.9062 0.0820
C5_62 C 0.66405(7) 0.83133(6) 0.08128(6)
H5_62 H 0.6732 0.8293 0.0987
C6_59 C 0.60769(7) 0.74719(6) 0.00752(7)
C8_62 C 0.71810(6) 0.86991(7) 0.05521(7)
H8_62 H 0.7261 0.8542 0.0463
N12_59 N 0.61856(6) 0.72271(5) 0.01815(6)
Cu5_43 Cu 0.725430(9) 0.942050(9) 0.100037(9)
Cu6_43 Cu 0.774570(9) 0.899963(9) 0.057950(9)
N16_62 N 0.57428(5) 0.83835(5) 0.03825(5)
C1_62 C 0.59820(7) 0.68064(6) 0.99564(7)
H1_62 H 0.5790 0.6848 0.9981
H6_62 H 0.6008 0.7497 0.9891
C7_62 C 0.64464(7) 0.68355(6) 0.99666(7)
H7_62 H 0.6630 0.6902 0.9997
N15_62 N 0.60676(5) 0.81178(5) 0.98153(5)
Cu2_63 Cu 0.692050(9) 0.350037(9) 0.774570(9)
N1_63 N 0.73353(5) 0.35846(5) 0.77719(5)
N2_63 N 0.74548(5) 0.37086(5) 0.80120(5)
N3_63 N 0.68459(5) 0.39342(5) 0.82193(5)
N4_63 N 0.67447(5) 0.38591(5) 0.79486(5)
N5_44 N 0.84201(5) 0.35839(5) 0.73323(6)
C1_63 C 0.81936(6) 0.34820(7) 0.74564(7)
H1_63 H 0.8152 0.3290 0.7481
N7_60 N 0.80296(5) 0.37040(6) 0.75431(6)
C2_60 C 0.77194(6) 0.37679(7) 0.79550(7)
H2_60 H 0.7849 0.3852 0.8079
N8_63 N 0.60676(5) 0.48153(5) 0.81178(5)
N9_63 N 0.62768(5) 0.44046(5) 0.81348(5)
N10_63 N 0.58835(5) 0.46175(5) 0.82428(5)
N11_63 N 0.64859(5) 0.42011(5) 0.81123(5)
C3_63 C 0.65275(6) 0.40189(6) 0.78908(6)
H3_63 H 0.6418 0.4011 0.7726
C4_63 C 0.60136(7) 0.43733(6) 0.82490(7)
H4_63 H 0.5938 0.4205 0.8320
C5_63 C 0.66867(6) 0.41405(7) 0.83128(6)
H5_63 H 0.6707 0.4232 0.8487
C6_60 C 0.75281(6) 0.35769(7) 0.75752(7)
H6_63 H 0.7503 0.3508 0.7391
C7_63 C 0.81645(6) 0.39464(7) 0.74666(7)
H7_63 H 0.8098 0.4130 0.7497
C8_63 C 0.63009(7) 0.46810(6) 0.80521(7)
H8_63 H 0.6458 0.4761 0.7963
N12_60 N 0.77729(5) 0.36856(6) 0.76815(6)
Cu4_29 Cu 0.876693(9) 0.337203(9) 0.720495(9)
N15_63 N 0.68822(5) 0.35676(5) 0.73153(5)
N16_63 N 0.66165(5) 0.32428(5) 0.78825(5)
Cu2_64 Cu 0.149963(9) 0.442050(9) 0.524570(9)
N1_64 N 0.14154(5) 0.48353(5) 0.52719(5)
N2_64 N 0.12914(5) 0.49548(5) 0.55120(5)
N3_64 N 0.10658(5) 0.43459(5) 0.57193(5)
N4_64 N 0.11409(5) 0.42447(5) 0.54486(5)
C1_64 C 0.15180(7) 0.56936(6) 0.49564(7)
H1_64 H 0.1710 0.5652 0.4981
N7_61 N 0.12960(6) 0.55296(5) 0.50431(6)
C2_61 C 0.12321(7) 0.52194(6) 0.54550(7)
H2_61 H 0.1148 0.5349 0.5579
N8_64 N 0.01847(5) 0.35676(5) 0.56178(5)
N9_64 N 0.05954(5) 0.37768(5) 0.56348(5)
N10_64 N 0.03825(5) 0.33835(5) 0.57428(5)
N11_64 N 0.07989(5) 0.39859(5) 0.56123(5)
C3_64 C 0.09811(6) 0.40275(6) 0.53908(6)
H3_64 H 0.0989 0.3918 0.5226
C4_64 C 0.06267(6) 0.35136(7) 0.57490(7)
H4_64 H 0.0795 0.3438 0.5820
C5_64 C 0.08595(7) 0.41867(6) 0.58128(6)
H5_64 H 0.0768 0.4207 0.5987
C6_61 C 0.14231(7) 0.50281(6) 0.50752(7)
H6_64 H 0.1492 0.5003 0.4891
C7_64 C 0.10536(7) 0.56645(6) 0.49666(7)
H7_64 H 0.0870 0.5598 0.4997
C8_64 C 0.03190(6) 0.38009(7) 0.55521(7)
H8_64 H 0.0239 0.3958 0.5463
N12_61 N 0.13144(6) 0.52729(5) 0.51815(6)
Cu5_44 Cu 0.024570(9) 0.307950(9) 0.600037(9)
N15_64 N 0.14324(5) 0.43822(5) 0.48153(5)
N16_64 N 0.17572(5) 0.41165(5) 0.53825(5)
Cu6_44 Cu 0.975430(9) 0.350037(9) 0.557950(9)
N5_45 N 0.01677(6) 0.40799(5) 0.85839(5)
C1_65 C 0.00436(7) 0.43064(6) 0.84820(7)
H1_65 H 0.0019 0.4348 0.8290
H6_65 H 0.0109 0.4997 0.8508
C7_65 C 0.00334(7) 0.43355(6) 0.89464(7)
H7_65 H 0.0003 0.4402 0.9130
Cu4_30 Cu 0.029505(9) 0.373307(9) 0.837203(9)
N15_65 N 0.01847(5) 0.56178(5) 0.85676(5)
Cu2_65 Cu 0.975430(9) 0.557950(9) 0.850037(9)
N1_65 N 0.97281(5) 0.51647(5) 0.85846(5)
N2_65 N 0.94880(5) 0.50452(5) 0.87086(5)
N3_65 N 0.92807(5) 0.56541(5) 0.89342(5)
N4_65 N 0.95514(5) 0.57553(5) 0.88591(5)
N7_62 N 0.99569(6) 0.44704(5) 0.87040(6)
C2_62 C 0.95450(7) 0.47806(6) 0.87679(7)
H2_62 H 0.9421 0.4651 0.8852
N8_65 N 0.93822(5) 0.64324(5) 0.98153(5)
N9_65 N 0.93652(5) 0.62232(5) 0.94046(5)
N10_65 N 0.92572(5) 0.66165(5) 0.96175(5)
N11_65 N 0.93877(5) 0.60141(5) 0.92011(5)
C3_65 C 0.96092(6) 0.59725(6) 0.90189(6)
H3_65 H 0.9774 0.6082 0.9011
C4_65 C 0.92510(7) 0.64864(7) 0.93733(6)
H4_65 H 0.9180 0.6562 0.9205
C5_65 C 0.91872(6) 0.58133(6) 0.91405(7)
H5_65 H 0.9013 0.5793 0.9232
C6_62 C 0.99248(7) 0.49719(6) 0.85769(7)
C8_65 C 0.94479(7) 0.61991(7) 0.96810(6)
H8_65 H 0.9537 0.6042 0.9761
N12_62 N 0.98185(6) 0.47271(5) 0.86856(6)
N16_65 N 0.96175(5) 0.58835(5) 0.82428(5)
Cu2_66 Cu 0.442050(9) 0.524570(9) 0.149963(9)
N1_66 N 0.48353(5) 0.52719(5) 0.14154(5)
N2_66 N 0.49548(5) 0.55120(5) 0.12914(5)
N3_66 N 0.43459(5) 0.57193(5) 0.10658(5)
N4_66 N 0.42447(5) 0.54486(5) 0.11409(5)
C1_66 C 0.56936(6) 0.49564(7) 0.15180(7)
H1_66 H 0.5652 0.4981 0.1710
N7_63 N 0.55296(5) 0.50431(6) 0.12960(6)
C2_63 C 0.52194(6) 0.54550(7) 0.12321(7)
H2_63 H 0.5349 0.5579 0.1148
N8_66 N 0.35676(5) 0.56178(5) 0.01847(5)
N9_66 N 0.37768(5) 0.56348(5) 0.05954(5)
N10_66 N 0.33835(5) 0.57428(5) 0.03825(5)
N11_66 N 0.39859(5) 0.56123(5) 0.07989(5)
C3_66 C 0.40275(6) 0.53908(6) 0.09811(6)
H3_66 H 0.3918 0.5226 0.0989
C4_66 C 0.35136(7) 0.57490(7) 0.06267(6)
H4_66 H 0.3438 0.5820 0.0795
C5_66 C 0.41867(6) 0.58128(6) 0.08595(7)
H5_66 H 0.4207 0.5987 0.0768
C6_63 C 0.50281(6) 0.50752(7) 0.14231(7)
H6_66 H 0.5003 0.4891 0.1492
C7_66 C 0.56645(6) 0.49666(7) 0.10536(7)
H7_66 H 0.5598 0.4997 0.0870
C8_66 C 0.38009(7) 0.55521(7) 0.03190(6)
H8_66 H 0.3958 0.5463 0.0239
N12_63 N 0.52729(5) 0.51815(6) 0.13144(6)
Cu5_45 Cu 0.307950(9) 0.600037(9) 0.024570(9)
N15_66 N 0.43822(5) 0.48153(5) 0.14324(5)
N16_66 N 0.41165(5) 0.53825(5) 0.17572(5)
Cu6_45 Cu 0.350037(9) 0.557950(9) 0.975430(9)
N6_29 N 0.09033(5) 0.26573(5) 0.13795(5)
C1_67 C 0.06936(6) 0.25436(7) 0.09820(7)
H1_67 H 0.0652 0.2519 0.0790
N7_64 N 0.05296(5) 0.24569(6) 0.12040(6)
C2_64 C 0.02194(6) 0.20450(7) 0.12679(7)
H2_64 H 0.0349 0.1921 0.1352
C6_64 C 0.00281(6) 0.24248(7) 0.10769(7)
H6_67 H 0.0003 0.2609 0.1008
C7_67 C 0.06645(6) 0.25334(7) 0.14464(7)
H7_67 H 0.0598 0.2503 0.1630
N12_64 N 0.02729(5) 0.23185(6) 0.11856(6)
Cu3_16 Cu 0.123307(9) 0.279505(9) 0.162797(9)
Cu1_45 Cu 0.970495(9) 0.162797(9) 0.126693(9)
Cu2_67 Cu 0.942050(9) 0.225430(9) 0.100037(9)
N1_67 N 0.98353(5) 0.22281(5) 0.10846(5)
N2_67 N 0.99548(5) 0.19880(5) 0.12086(5)
N3_67 N 0.93459(5) 0.17807(5) 0.14342(5)
N4_67 N 0.92447(5) 0.20514(5) 0.13591(5)
N8_67 N 0.85676(5) 0.18822(5) 0.23153(5)
N9_67 N 0.87768(5) 0.18652(5) 0.19046(5)
N10_67 N 0.83835(5) 0.17572(5) 0.21175(5)
N11_67 N 0.89859(5) 0.18877(5) 0.17011(5)
C3_67 C 0.90275(6) 0.21092(6) 0.15189(6)
H3_67 H 0.8918 0.2274 0.1511
C4_67 C 0.85136(7) 0.17510(7) 0.18733(6)
H4_67 H 0.8438 0.1680 0.1705
C5_67 C 0.91867(6) 0.16872(6) 0.16405(7)
H5_67 H 0.9207 0.1513 0.1732
C8_67 C 0.88009(7) 0.19479(7) 0.21810(6)
H8_67 H 0.8958 0.2037 0.2261
N13_45 N 0.98323(6) 0.14161(5) 0.09201(5)
N14_53 N 0.98427(5) 0.13795(5) 0.15967(5)
N15_67 N 0.93822(5) 0.26847(5) 0.10676(5)
N16_67 N 0.91165(5) 0.21175(5) 0.07428(5)
Cu2_68 Cu 0.307950(9) 0.225430(9) 0.149963(9)
N1_68 N 0.26647(5) 0.22281(5) 0.14154(5)
N2_68 N 0.25452(5) 0.19880(5) 0.12914(5)
N3_68 N 0.31541(5) 0.17807(5) 0.10658(5)
N4_68 N 0.32553(5) 0.20514(5) 0.11409(5)
N5_46 N 0.15799(5) 0.26677(6) 0.14161(5)
C1_68 C 0.18064(6) 0.25436(7) 0.15180(7)
H1_68 H 0.1848 0.2519 0.1710
N7_65 N 0.19704(5) 0.24569(6) 0.12960(6)
C2_65 C 0.22806(6) 0.20450(7) 0.12321(7)
H2_65 H 0.2151 0.1921 0.1148
N8_68 N 0.39324(5) 0.18822(5) 0.01847(5)
N9_68 N 0.37232(5) 0.18652(5) 0.05954(5)
N10_68 N 0.41165(5) 0.17572(5) 0.03825(5)
N11_68 N 0.35141(5) 0.18877(5) 0.07989(5)
C3_68 C 0.34725(6) 0.21092(6) 0.09811(6)
H3_68 H 0.3582 0.2274 0.0989
C4_68 C 0.39864(7) 0.17510(7) 0.06267(6)
H4_68 H 0.4062 0.1680 0.0795
C5_68 C 0.33133(6) 0.16872(6) 0.08595(7)
H5_68 H 0.3293 0.1513 0.0768
C6_65 C 0.24719(6) 0.24248(7) 0.14231(7)
H6_68 H 0.2497 0.2609 0.1492
C7_68 C 0.18355(6) 0.25334(7) 0.10536(7)
H7_68 H 0.1902 0.2503 0.0870
C8_68 C 0.36991(7) 0.19479(7) 0.03190(6)
H8_68 H 0.3542 0.2037 0.0239
N12_65 N 0.22271(5) 0.23185(6) 0.13144(6)
N15_68 N 0.31178(5) 0.26847(5) 0.14324(5)
N16_68 N 0.33835(5) 0.21175(5) 0.17572(5)
Cu2_69 Cu 0.807950(9) 0.524570(9) 0.100037(9)
N1_69 N 0.76647(5) 0.52719(5) 0.10846(5)
N2_69 N 0.75452(5) 0.55120(5) 0.12086(5)
N3_69 N 0.81541(5) 0.57193(5) 0.14342(5)
N4_69 N 0.82553(5) 0.54486(5) 0.13591(5)
C1_69 C 0.68064(6) 0.49564(7) 0.09820(7)
H1_69 H 0.6848 0.4981 0.0790
N7_66 N 0.69704(5) 0.50431(6) 0.12040(6)
C2_66 C 0.72806(6) 0.54550(7) 0.12679(7)
H2_66 H 0.7151 0.5579 0.1352
N8_69 N 0.89324(5) 0.56178(5) 0.23153(5)
N9_69 N 0.87232(5) 0.56348(5) 0.19046(5)
N10_69 N 0.91165(5) 0.57428(5) 0.21175(5)
N11_69 N 0.85141(5) 0.56123(5) 0.17011(5)
C3_69 C 0.84725(6) 0.53908(6) 0.15189(6)
H3_69 H 0.8582 0.5226 0.1511
C4_69 C 0.89864(7) 0.57490(7) 0.18733(6)
H4_69 H 0.9062 0.5820 0.1705
C5_69 C 0.83133(6) 0.58128(6) 0.16405(7)
H5_69 H 0.8293 0.5987 0.1732
C6_66 C 0.74719(6) 0.50752(7) 0.10769(7)
H6_69 H 0.7497 0.4891 0.1008
C7_69 C 0.68355(6) 0.49666(7) 0.14464(7)
H7_69 H 0.6902 0.4997 0.1630
C8_69 C 0.86991(7) 0.55521(7) 0.21810(6)
H8_69 H 0.8542 0.5463 0.2261
N12_66 N 0.72271(5) 0.51815(6) 0.11856(6)
Cu5_46 Cu 0.942050(9) 0.600037(9) 0.225430(9)
Cu6_46 Cu 0.899963(9) 0.557950(9) 0.274570(9)
N15_69 N 0.81178(5) 0.48153(5) 0.10676(5)
N16_69 N 0.83835(5) 0.53825(5) 0.07428(5)
N6_30 N 0.01573(5) 0.34033(5) 0.86205(5)
C1_70 C 0.00436(7) 0.31936(6) 0.90180(7)
H1_70 H 0.0019 0.3152 0.9210
H6_70 H 0.0109 0.2503 0.8992
C7_70 C 0.00334(7) 0.31645(6) 0.85536(7)
H7_70 H 0.0003 0.3098 0.8370
N15_70 N 0.01847(5) 0.18822(5) 0.89324(5)
Cu1_46 Cu 0.912797(9) 0.220495(9) 0.873307(9)
Cu2_70 Cu 0.975430(9) 0.192050(9) 0.899963(9)
N1_70 N 0.97281(5) 0.23353(5) 0.89154(5)
N2_70 N 0.94880(5) 0.24548(5) 0.87914(5)
N3_70 N 0.92807(5) 0.18459(5) 0.85658(5)
N4_70 N 0.95514(5) 0.17447(5) 0.86409(5)
N7_67 N 0.99569(6) 0.30296(5) 0.87960(6)
C2_67 C 0.95450(7) 0.27194(6) 0.87321(7)
H2_67 H 0.9421 0.2849 0.8648
N8_70 N 0.93822(5) 0.10676(5) 0.76847(5)
N9_70 N 0.93652(5) 0.12768(5) 0.80954(5)
N10_70 N 0.92572(5) 0.08835(5) 0.78825(5)
N11_70 N 0.93877(5) 0.14859(5) 0.82989(5)
C3_70 C 0.96092(6) 0.15275(6) 0.84811(6)
H3_70 H 0.9774 0.1418 0.8489
C4_70 C 0.92510(7) 0.10136(7) 0.81267(6)
H4_70 H 0.9180 0.0938 0.8295
C5_70 C 0.91872(6) 0.16867(6) 0.83595(7)
H5_70 H 0.9013 0.1707 0.8268
C6_67 C 0.99248(7) 0.25281(6) 0.89231(7)
C8_70 C 0.94479(7) 0.13009(7) 0.78190(6)
H8_70 H 0.9537 0.1458 0.7739
N12_67 N 0.98185(6) 0.27729(5) 0.88144(6)
Cu5_47 Cu 0.899963(9) 0.057950(9) 0.774570(9)
Cu6_47 Cu 0.942050(9) 0.100037(9) 0.725430(9)
N13_46 N 0.89161(5) 0.23323(6) 0.90799(5)
N14_54 N 0.88795(5) 0.23427(5) 0.84033(5)
N16_70 N 0.96175(5) 0.16165(5) 0.92572(5)
Cu2_71 Cu 0.274570(9) 0.692050(9) 0.850037(9)
N1_71 N 0.27719(5) 0.73353(5) 0.85846(5)
N2_71 N 0.30120(5) 0.74548(5) 0.87086(5)
N3_71 N 0.32193(5) 0.68459(5) 0.89342(5)
N4_71 N 0.29486(5) 0.67447(5) 0.88591(5)
C1_71 C 0.24564(7) 0.81936(6) 0.84820(7)
H1_71 H 0.2481 0.8152 0.8290
N7_68 N 0.25431(6) 0.80296(5) 0.87040(6)
C2_68 C 0.29550(7) 0.77194(6) 0.87679(7)
H2_68 H 0.3079 0.7849 0.8852
N8_71 N 0.31178(5) 0.60676(5) 0.98153(5)
N9_71 N 0.31348(5) 0.62768(5) 0.94046(5)
N10_71 N 0.32428(5) 0.58835(5) 0.96175(5)
N11_71 N 0.31123(5) 0.64859(5) 0.92011(5)
C3_71 C 0.28908(6) 0.65275(6) 0.90189(6)
H3_71 H 0.2726 0.6418 0.9011
C4_71 C 0.32490(7) 0.60136(7) 0.93733(6)
H4_71 H 0.3320 0.5938 0.9205
C5_71 C 0.33128(6) 0.66867(6) 0.91405(7)
H5_71 H 0.3487 0.6707 0.9232
C6_68 C 0.25752(7) 0.75281(6) 0.85769(7)
H6_71 H 0.2391 0.7503 0.8508
C7_71 C 0.24666(7) 0.81645(6) 0.89464(7)
H7_71 H 0.2497 0.8098 0.9130
C8_71 C 0.30521(7) 0.63009(7) 0.96810(6)
H8_71 H 0.2963 0.6458 0.9761
N12_68 N 0.26815(6) 0.77729(5) 0.86856(6)
N15_71 N 0.23153(5) 0.68822(5) 0.85676(5)
N16_71 N 0.28825(5) 0.66165(5) 0.82428(5)
Cu2_72 Cu 0.274570(9) 0.057950(9) 0.899963(9)
N1_72 N 0.27719(5) 0.01647(5) 0.89154(5)
N2_72 N 0.30120(5) 0.00452(5) 0.87914(5)
N3_72 N 0.32193(5) 0.06541(5) 0.85658(5)
N4_72 N 0.29486(5) 0.07553(5) 0.86409(5)
N8_72 N 0.31178(5) 0.14324(5) 0.76847(5)
N9_72 N 0.31348(5) 0.12232(5) 0.80954(5)
N10_72 N 0.32428(5) 0.16165(5) 0.78825(5)
N11_72 N 0.31123(5) 0.10141(5) 0.82989(5)
C3_72 C 0.28908(6) 0.09725(6) 0.84811(6)
H3_72 H 0.2726 0.1082 0.8489
C4_72 C 0.32490(7) 0.14864(7) 0.81267(6)
H4_72 H 0.3320 0.1562 0.8295
C5_72 C 0.33128(6) 0.08133(6) 0.83595(7)
H5_72 H 0.3487 0.0793 0.8268
C8_72 C 0.30521(7) 0.11991(7) 0.78190(6)
H8_72 H 0.2963 0.1042 0.7739
N15_72 N 0.23153(5) 0.06178(5) 0.89324(5)
N16_72 N 0.28825(5) 0.08835(5) 0.92572(5)
C1_72 C 0.24564(7) 0.93064(6) 0.90180(7)
H1_72 H 0.2481 0.9348 0.9210
N7_69 N 0.25431(6) 0.94704(5) 0.87960(6)
C2_69 C 0.29550(7) 0.97806(6) 0.87321(7)
H2_69 H 0.3079 0.9651 0.8648
C6_69 C 0.25752(7) 0.99719(6) 0.89231(7)
H6_72 H 0.2391 0.9997 0.8992
C7_72 C 0.24666(7) 0.93355(6) 0.85536(7)
H7_72 H 0.2497 0.9402 0.8370
N12_69 N 0.26815(6) 0.97271(5) 0.88144(6)
N6_31 N 0.88795(5) 0.01573(5) 0.40967(5)
C1_73 C 0.84820(7) 0.00436(7) 0.43064(6)
H1_73 H 0.8290 0.0019 0.4348
H6_73 H 0.8508 0.0109 0.4997
C7_73 C 0.89464(7) 0.00334(7) 0.43355(6)
H7_73 H 0.9130 0.0003 0.4402
Cu3_17 Cu 0.912797(9) 0.029505(9) 0.376693(9)
N15_73 N 0.85676(5) 0.01847(5) 0.56178(5)
Cu2_73 Cu 0.850037(9) 0.975430(9) 0.557950(9)
N1_73 N 0.85846(5) 0.97281(5) 0.51647(5)
N2_73 N 0.87086(5) 0.94880(5) 0.50452(5)
N3_73 N 0.89342(5) 0.92807(5) 0.56541(5)
N4_73 N 0.88591(5) 0.95514(5) 0.57553(5)
N7_70 N 0.87040(6) 0.99569(6) 0.44704(5)
C2_70 C 0.87679(7) 0.95450(7) 0.47806(6)
H2_70 H 0.8852 0.9421 0.4651
N8_73 N 0.98153(5) 0.93822(5) 0.64324(5)
N9_73 N 0.94046(5) 0.93652(5) 0.62232(5)
N10_73 N 0.96175(5) 0.92572(5) 0.66165(5)
N11_73 N 0.92011(5) 0.93877(5) 0.60141(5)
C3_73 C 0.90189(6) 0.96092(6) 0.59725(6)
H3_73 H 0.9011 0.9774 0.6082
C4_73 C 0.93733(6) 0.92510(7) 0.64864(7)
H4_73 H 0.9205 0.9180 0.6562
C5_73 C 0.91405(7) 0.91872(6) 0.58133(6)
H5_73 H 0.9232 0.9013 0.5793
C6_70 C 0.85769(7) 0.99248(7) 0.49719(6)
C8_73 C 0.96810(6) 0.94479(7) 0.61991(7)
H8_73 H 0.9761 0.9537 0.6042
N12_70 N 0.86856(6) 0.98185(6) 0.47271(5)
N14_55 N 0.90967(5) 0.88795(5) 0.51573(5)
N16_73 N 0.82428(5) 0.96175(5) 0.58835(5)
Cu2_74 Cu 0.024570(9) 0.100037(9) 0.307950(9)
N1_74 N 0.02719(5) 0.10846(5) 0.26647(5)
N2_74 N 0.05120(5) 0.12086(5) 0.25452(5)
N3_74 N 0.07193(5) 0.14342(5) 0.31541(5)
N4_74 N 0.04486(5) 0.13591(5) 0.32553(5)
N7_71 N 0.00431(6) 0.12040(6) 0.19704(5)
C2_71 C 0.04550(7) 0.12679(7) 0.22806(6)
H2_71 H 0.0579 0.1352 0.2151
N8_74 N 0.06178(5) 0.23153(5) 0.39324(5)
N9_74 N 0.06348(5) 0.19046(5) 0.37232(5)
N10_74 N 0.07428(5) 0.21175(5) 0.41165(5)
N11_74 N 0.06123(5) 0.17011(5) 0.35141(5)
C3_74 C 0.03908(6) 0.15189(6) 0.34725(6)
H3_74 H 0.0226 0.1511 0.3582
C4_74 C 0.07490(7) 0.18733(6) 0.39864(7)
H4_74 H 0.0820 0.1705 0.4062
C5_74 C 0.08128(6) 0.16405(7) 0.33133(6)
H5_74 H 0.0987 0.1732 0.3293
C6_71 C 0.00752(7) 0.10769(7) 0.24719(6)
C8_74 C 0.05521(7) 0.21810(6) 0.36991(7)
H8_74 H 0.0463 0.2261 0.3542
N12_71 N 0.01815(6) 0.11856(6) 0.22271(5)
N14_56 N 0.11205(5) 0.15967(5) 0.26573(5)
N16_74 N 0.03825(5) 0.07428(5) 0.33835(5)
C1_74 C 0.99564(7) 0.09820(7) 0.18064(6)
H1_74 H 0.9981 0.0790 0.1848
H6_74 H 0.9891 0.1008 0.2497
C7_74 C 0.99666(7) 0.14464(7) 0.18355(6)
H7_74 H 0.9997 0.1630 0.1902
N15_74 N 0.98153(5) 0.10676(5) 0.31178(5)
Cu2_75 Cu 0.899963(9) 0.274570(9) 0.057950(9)
N1_75 N 0.89154(5) 0.27719(5) 0.01647(5)
N2_75 N 0.87914(5) 0.30120(5) 0.00452(5)
N3_75 N 0.85658(5) 0.32193(5) 0.06541(5)
N4_75 N 0.86409(5) 0.29486(5) 0.07553(5)
N8_75 N 0.76847(5) 0.31178(5) 0.14324(5)
N9_75 N 0.80954(5) 0.31348(5) 0.12232(5)
N10_75 N 0.78825(5) 0.32428(5) 0.16165(5)
N11_75 N 0.82989(5) 0.31123(5) 0.10141(5)
C3_75 C 0.84811(6) 0.28908(6) 0.09725(6)
H3_75 H 0.8489 0.2726 0.1082
C4_75 C 0.81267(6) 0.32490(7) 0.14864(7)
H4_75 H 0.8295 0.3320 0.1562
C5_75 C 0.83595(7) 0.33128(6) 0.08133(6)
H5_75 H 0.8268 0.3487 0.0793
C8_75 C 0.78190(6) 0.30521(7) 0.11991(7)
H8_75 H 0.7739 0.2963 0.1042
N14_57 N 0.84033(5) 0.36205(5) 0.01573(5)
N15_75 N 0.89324(5) 0.23153(5) 0.06178(5)
N16_75 N 0.92572(5) 0.28825(5) 0.08835(5)
C1_75 C 0.90180(7) 0.24564(7) 0.93064(6)
H1_75 H 0.9210 0.2481 0.9348
N7_72 N 0.87960(6) 0.25431(6) 0.94704(5)
C2_72 C 0.87321(7) 0.29550(7) 0.97806(6)
H2_72 H 0.8648 0.3079 0.9651
C6_72 C 0.89231(7) 0.25752(7) 0.99719(6)
H6_75 H 0.8992 0.2391 0.9997
C7_75 C 0.85536(7) 0.24666(7) 0.93355(6)
H7_75 H 0.8370 0.2497 0.9402
N12_72 N 0.88144(6) 0.26815(6) 0.97271(5)
Cu2_76 Cu 0.725430(9) 0.149963(9) 0.807950(9)
N1_76 N 0.72281(5) 0.14154(5) 0.76647(5)
N2_76 N 0.69880(5) 0.12914(5) 0.75452(5)
N3_76 N 0.67807(5) 0.10658(5) 0.81541(5)
N4_76 N 0.70514(5) 0.11409(5) 0.82553(5)
N6_32 N 0.76573(5) 0.11205(5) 0.65967(5)
C1_76 C 0.75436(7) 0.15180(7) 0.68064(6)
H1_76 H 0.7519 0.1710 0.6848
N7_73 N 0.74569(6) 0.12960(6) 0.69704(5)
C2_73 C 0.70450(7) 0.12321(7) 0.72806(6)
H2_73 H 0.6921 0.1148 0.7151
N8_76 N 0.68822(5) 0.01847(5) 0.89324(5)
N9_76 N 0.68652(5) 0.05954(5) 0.87232(5)
N10_76 N 0.67572(5) 0.03825(5) 0.91165(5)
N11_76 N 0.68877(5) 0.07989(5) 0.85141(5)
C3_76 C 0.71092(6) 0.09811(6) 0.84725(6)
H3_76 H 0.7274 0.0989 0.8582
C4_76 C 0.67510(7) 0.06267(6) 0.89864(7)
H4_76 H 0.6680 0.0795 0.9062
C5_76 C 0.66872(6) 0.08595(7) 0.83133(6)
H5_76 H 0.6513 0.0768 0.8293
C6_73 C 0.74248(7) 0.14231(7) 0.74719(6)
H6_76 H 0.7609 0.1492 0.7497
C7_76 C 0.75334(7) 0.10536(7) 0.68355(6)
H7_76 H 0.7503 0.0870 0.6902
C8_76 C 0.69479(7) 0.03190(6) 0.86991(7)
H8_76 H 0.7037 0.0239 0.8542
N12_73 N 0.73185(6) 0.13144(6) 0.72271(5)
Cu3_18 Cu 0.779505(9) 0.087203(9) 0.626693(9)
N14_58 N 0.63795(5) 0.09033(5) 0.76573(5)
N15_76 N 0.76847(5) 0.14324(5) 0.81178(5)
N16_76 N 0.71175(5) 0.17572(5) 0.83835(5)
Cu2_77 Cu 0.850037(9) 0.274570(9) 0.692050(9)
N1_77 N 0.85846(5) 0.27719(5) 0.73353(5)
N2_77 N 0.87086(5) 0.30120(5) 0.74548(5)
N3_77 N 0.89342(5) 0.32193(5) 0.68459(5)
N4_77 N 0.88591(5) 0.29486(5) 0.67447(5)
C1_77 C 0.84820(7) 0.24564(7) 0.81936(6)
H1_77 H 0.8290 0.2481 0.8152
N7_74 N 0.87040(6) 0.25431(6) 0.80296(5)
C2_74 C 0.87679(7) 0.29550(7) 0.77194(6)
H2_74 H 0.8852 0.3079 0.7849
N8_77 N 0.98153(5) 0.31178(5) 0.60676(5)
N9_77 N 0.94046(5) 0.31348(5) 0.62768(5)
N10_77 N 0.96175(5) 0.32428(5) 0.58835(5)
N11_77 N 0.92011(5) 0.31123(5) 0.64859(5)
C3_77 C 0.90189(6) 0.28908(6) 0.65275(6)
H3_77 H 0.9011 0.2726 0.6418
C4_77 C 0.93733(6) 0.32490(7) 0.60136(7)
H4_77 H 0.9205 0.3320 0.5938
C5_77 C 0.91405(7) 0.33128(6) 0.66867(6)
H5_77 H 0.9232 0.3487 0.6707
C6_74 C 0.85769(7) 0.25752(7) 0.75281(6)
H6_77 H 0.8508 0.2391 0.7503
C7_77 C 0.89464(7) 0.24666(7) 0.81645(6)
H7_77 H 0.9130 0.2497 0.8098
C8_77 C 0.96810(6) 0.30521(7) 0.63009(7)
H8_77 H 0.9761 0.2963 0.6458
N12_74 N 0.86856(6) 0.26815(6) 0.77729(5)
N14_59 N 0.90967(5) 0.36205(5) 0.73427(5)
N15_77 N 0.85676(5) 0.23153(5) 0.68822(5)
N16_77 N 0.82428(5) 0.28825(5) 0.66165(5)
Cu2_78 Cu 0.725430(9) 0.100037(9) 0.442050(9)
N1_78 N 0.72281(5) 0.10846(5) 0.48353(5)
N2_78 N 0.69880(5) 0.12086(5) 0.49548(5)
N3_78 N 0.67807(5) 0.14342(5) 0.43459(5)
N4_78 N 0.70514(5) 0.13591(5) 0.42447(5)
N5_47 N 0.76677(6) 0.10839(5) 0.59201(5)
C1_78 C 0.75436(7) 0.09820(7) 0.56936(6)
H1_78 H 0.7519 0.0790 0.5652
N7_75 N 0.74569(6) 0.12040(6) 0.55296(5)
C2_75 C 0.70450(7) 0.12679(7) 0.52194(6)
H2_75 H 0.6921 0.1352 0.5349
N8_78 N 0.68822(5) 0.23153(5) 0.35676(5)
N9_78 N 0.68652(5) 0.19046(5) 0.37768(5)
N10_78 N 0.67572(5) 0.21175(5) 0.33835(5)
N11_78 N 0.68877(5) 0.17011(5) 0.39859(5)
C3_78 C 0.71092(6) 0.15189(6) 0.40275(6)
H3_78 H 0.7274 0.1511 0.3918
C4_78 C 0.67510(7) 0.18733(6) 0.35136(7)
H4_78 H 0.6680 0.1705 0.3438
C5_78 C 0.66872(6) 0.16405(7) 0.41867(6)
H5_78 H 0.6513 0.1732 0.4207
C6_75 C 0.74248(7) 0.10769(7) 0.50281(6)
H6_78 H 0.7609 0.1008 0.5003
C7_78 C 0.75334(7) 0.14464(7) 0.56645(6)
H7_78 H 0.7503 0.1630 0.5598
C8_78 C 0.69479(7) 0.21810(6) 0.38009(7)
H8_78 H 0.7037 0.2261 0.3958
N12_75 N 0.73185(6) 0.11856(6) 0.52729(5)
N14_60 N 0.63795(5) 0.15967(5) 0.48427(5)
N15_78 N 0.76847(5) 0.10676(5) 0.43822(5)
N16_78 N 0.71175(5) 0.07428(5) 0.41165(5)
N5_48 N 0.89161(5) 0.01677(6) 0.34201(5)
C1_79 C 0.90180(7) 0.00436(7) 0.31936(6)
H1_79 H 0.9210 0.0019 0.3152
H6_79 H 0.8992 0.0109 0.2503
C7_79 C 0.85536(7) 0.00334(7) 0.31645(6)
H7_79 H 0.8370 0.0003 0.3098
N15_79 N 0.89324(5) 0.01847(5) 0.18822(5)
Cu2_79 Cu 0.899963(9) 0.975430(9) 0.192050(9)
N1_79 N 0.89154(5) 0.97281(5) 0.23353(5)
N2_79 N 0.87914(5) 0.94880(5) 0.24548(5)
N3_79 N 0.85658(5) 0.92807(5) 0.18459(5)
N4_79 N 0.86409(5) 0.95514(5) 0.17447(5)
N7_76 N 0.87960(6) 0.99569(6) 0.30296(5)
C2_76 C 0.87321(7) 0.95450(7) 0.27194(6)
H2_76 H 0.8648 0.9421 0.2849
N8_79 N 0.76847(5) 0.93822(5) 0.10676(5)
N9_79 N 0.80954(5) 0.93652(5) 0.12768(5)
N10_79 N 0.78825(5) 0.92572(5) 0.08835(5)
N11_79 N 0.82989(5) 0.93877(5) 0.14859(5)
C3_79 C 0.84811(6) 0.96092(6) 0.15275(6)
H3_79 H 0.8489 0.9774 0.1418
C4_79 C 0.81267(6) 0.92510(7) 0.10136(7)
H4_79 H 0.8295 0.9180 0.0938
C5_79 C 0.83595(7) 0.91872(6) 0.16867(6)
H5_79 H 0.8268 0.9013 0.1707
C6_76 C 0.89231(7) 0.99248(7) 0.25281(6)
C8_79 C 0.78190(6) 0.94479(7) 0.13009(7)
H8_79 H 0.7739 0.9537 0.1458
N12_76 N 0.88144(6) 0.98185(6) 0.27729(5)
N14_61 N 0.84033(5) 0.88795(5) 0.23427(5)
N16_79 N 0.92572(5) 0.96175(5) 0.16165(5)
Cu2_80 Cu 0.024570(9) 0.149963(9) 0.942050(9)
N1_80 N 0.02719(5) 0.14154(5) 0.98353(5)
N2_80 N 0.05120(5) 0.12914(5) 0.99548(5)
N3_80 N 0.07193(5) 0.10658(5) 0.93459(5)
N4_80 N 0.04486(5) 0.11409(5) 0.92447(5)
N8_80 N 0.06178(5) 0.01847(5) 0.85676(5)
N9_80 N 0.06348(5) 0.05954(5) 0.87768(5)
N10_80 N 0.07428(5) 0.03825(5) 0.83835(5)
N11_80 N 0.06123(5) 0.07989(5) 0.89859(5)
C3_80 C 0.03908(6) 0.09811(6) 0.90275(6)
H3_80 H 0.0226 0.0989 0.8918
C4_80 C 0.07490(7) 0.06267(6) 0.85136(7)
H4_80 H 0.0820 0.0795 0.8438
C5_80 C 0.08128(6) 0.08595(7) 0.91867(6)
H5_80 H 0.0987 0.0768 0.9207
C8_80 C 0.05521(7) 0.03190(6) 0.88009(7)
H8_80 H 0.0463 0.0239 0.8958
N14_62 N 0.11205(5) 0.09033(5) 0.98427(5)
N16_80 N 0.03825(5) 0.17572(5) 0.91165(5)
C1_80 C 0.99564(7) 0.15180(7) 0.06936(6)
H1_80 H 0.9981 0.1710 0.0652
H6_80 H 0.9891 0.1492 0.0003
C7_80 C 0.99666(7) 0.10536(7) 0.06645(6)
H7_80 H 0.9997 0.0870 0.0598
N15_80 N 0.98153(5) 0.14324(5) 0.93822(5)
Cu1_47 Cu 0.029505(9) 0.876693(9) 0.412797(9)
Cu2_81 Cu 0.057950(9) 0.850037(9) 0.475430(9)
N1_81 N 0.01647(5) 0.85846(5) 0.47281(5)
N2_81 N 0.00452(5) 0.87086(5) 0.44880(5)
N3_81 N 0.06541(5) 0.89342(5) 0.42807(5)
N4_81 N 0.07553(5) 0.88591(5) 0.45514(5)
N8_81 N 0.14324(5) 0.98153(5) 0.43822(5)
N9_81 N 0.12232(5) 0.94046(5) 0.43652(5)
N10_81 N 0.16165(5) 0.96175(5) 0.42572(5)
N11_81 N 0.10141(5) 0.92011(5) 0.43877(5)
C3_81 C 0.09725(6) 0.90189(6) 0.46092(6)
H3_81 H 0.1082 0.9011 0.4774
C4_81 C 0.14864(7) 0.93733(6) 0.42510(7)
H4_81 H 0.1562 0.9205 0.4180
C5_81 C 0.08133(6) 0.91405(7) 0.41872(6)
H5_81 H 0.0793 0.9232 0.4013
C8_81 C 0.11991(7) 0.96810(6) 0.44479(7)
H8_81 H 0.1042 0.9761 0.4537
N13_47 N 0.01677(6) 0.84201(5) 0.39161(5)
N14_63 N 0.01573(5) 0.90967(5) 0.38795(5)
N15_81 N 0.06178(5) 0.85676(5) 0.51847(5)
N16_81 N 0.08835(5) 0.82428(5) 0.46175(5)
C1_81 C 0.93064(6) 0.84820(7) 0.50436(7)
H1_81 H 0.9348 0.8290 0.5019
N7_77 N 0.94704(5) 0.87040(6) 0.49569(6)
C2_77 C 0.97806(6) 0.87679(7) 0.45450(7)
H2_77 H 0.9651 0.8852 0.4421
C6_77 C 0.99719(6) 0.85769(7) 0.49248(7)
H6_81 H 0.9997 0.8508 0.5109
C7_81 C 0.93355(6) 0.89464(7) 0.50334(7)
H7_81 H 0.9402 0.9130 0.5003
N12_77 N 0.97271(5) 0.86856(6) 0.48185(6)
Cu2_82 Cu 0.149963(9) 0.307950(9) 0.225430(9)
N1_82 N 0.14154(5) 0.26647(5) 0.22281(5)
N2_82 N 0.12914(5) 0.25452(5) 0.19880(5)
N3_82 N 0.10658(5) 0.31541(5) 0.17807(5)
N4_82 N 0.11409(5) 0.32553(5) 0.20514(5)
C1_82 C 0.15180(7) 0.18064(6) 0.25436(7)
H1_82 H 0.1710 0.1848 0.2519
N7_78 N 0.12960(6) 0.19704(5) 0.24569(6)
C2_78 C 0.12321(7) 0.22806(6) 0.20450(7)
H2_78 H 0.1148 0.2151 0.1921
N8_82 N 0.01847(5) 0.39324(5) 0.18822(5)
N9_82 N 0.05954(5) 0.37232(5) 0.18652(5)
N10_82 N 0.03825(5) 0.41165(5) 0.17572(5)
N11_82 N 0.07989(5) 0.35141(5) 0.18877(5)
C3_82 C 0.09811(6) 0.34725(6) 0.21092(6)
H3_82 H 0.0989 0.3582 0.2274
C4_82 C 0.06267(6) 0.39864(7) 0.17510(7)
H4_82 H 0.0795 0.4062 0.1680
C5_82 C 0.08595(7) 0.33133(6) 0.16872(6)
H5_82 H 0.0768 0.3293 0.1513
C6_78 C 0.14231(7) 0.24719(6) 0.24248(7)
H6_82 H 0.1492 0.2497 0.2609
C7_82 C 0.10536(7) 0.18355(6) 0.25334(7)
H7_82 H 0.0870 0.1902 0.2503
C8_82 C 0.03190(6) 0.36991(7) 0.19479(7)
H8_82 H 0.0239 0.3542 0.2037
N12_78 N 0.13144(6) 0.22271(5) 0.23185(6)
N15_82 N 0.14324(5) 0.31178(5) 0.26847(5)
N16_82 N 0.17572(5) 0.33835(5) 0.21175(5)
C1_83 C 0.81936(6) 0.40180(7) 0.00436(7)
H1_83 H 0.8152 0.4210 0.0019
H6_83 H 0.7503 0.3992 0.0109
C7_83 C 0.81645(6) 0.35536(7) 0.00334(7)
H7_83 H 0.8098 0.3370 0.0003
N15_83 N 0.68822(5) 0.39324(5) 0.01847(5)
Cu2_83 Cu 0.692050(9) 0.399963(9) 0.975430(9)
N1_83 N 0.73353(5) 0.39154(5) 0.97281(5)
N2_83 N 0.74548(5) 0.37914(5) 0.94880(5)
N3_83 N 0.68459(5) 0.35658(5) 0.92807(5)
N4_83 N 0.67447(5) 0.36409(5) 0.95514(5)
N7_79 N 0.80296(5) 0.37960(6) 0.99569(6)
C2_79 C 0.77194(6) 0.37321(7) 0.95450(7)
H2_79 H 0.7849 0.3648 0.9421
N8_83 N 0.60676(5) 0.26847(5) 0.93822(5)
N9_83 N 0.62768(5) 0.30954(5) 0.93652(5)
N10_83 N 0.58835(5) 0.28825(5) 0.92572(5)
N11_83 N 0.64859(5) 0.32989(5) 0.93877(5)
C3_83 C 0.65275(6) 0.34811(6) 0.96092(6)
H3_83 H 0.6418 0.3489 0.9774
C4_83 C 0.60136(7) 0.31267(6) 0.92510(7)
H4_83 H 0.5938 0.3295 0.9180
C5_83 C 0.66867(6) 0.33595(7) 0.91872(6)
H5_83 H 0.6707 0.3268 0.9013
C6_79 C 0.75281(6) 0.39231(7) 0.99248(7)
C8_83 C 0.63009(7) 0.28190(6) 0.94479(7)
H8_83 H 0.6458 0.2739 0.9537
N12_79 N 0.77729(5) 0.38144(6) 0.98185(6)
N16_83 N 0.66165(5) 0.42572(5) 0.96175(5)
C1_84 C 0.59820(7) 0.06936(6) 0.75436(7)
H1_84 H 0.5790 0.0652 0.7519
N7_80 N 0.62040(6) 0.05296(5) 0.74569(6)
C2_80 C 0.62679(7) 0.02194(6) 0.70450(7)
H2_80 H 0.6352 0.0349 0.6921
C6_80 C 0.60769(7) 0.00281(6) 0.74248(7)
H6_84 H 0.6008 0.0003 0.7609
C7_84 C 0.64464(7) 0.06645(6) 0.75334(7)
H7_84 H 0.6630 0.0598 0.7503
N12_80 N 0.61856(6) 0.02729(5) 0.73185(6)
Cu1_48 Cu 0.626693(9) 0.970495(9) 0.662797(9)
Cu2_84 Cu 0.600037(9) 0.942050(9) 0.725430(9)
N1_84 N 0.60846(5) 0.98353(5) 0.72281(5)
N2_84 N 0.62086(5) 0.99548(5) 0.69880(5)
N3_84 N 0.64342(5) 0.93459(5) 0.67807(5)
N4_84 N 0.63591(5) 0.92447(5) 0.70514(5)
N8_84 N 0.73153(5) 0.85676(5) 0.68822(5)
N9_84 N 0.69046(5) 0.87768(5) 0.68652(5)
N10_84 N 0.71175(5) 0.83835(5) 0.67572(5)
N11_84 N 0.67011(5) 0.89859(5) 0.68877(5)
C3_84 C 0.65189(6) 0.90275(6) 0.71092(6)
H3_84 H 0.6511 0.8918 0.7274
C4_84 C 0.68733(6) 0.85136(7) 0.67510(7)
H4_84 H 0.6705 0.8438 0.6680
C5_84 C 0.66405(7) 0.91867(6) 0.66872(6)
H5_84 H 0.6732 0.9207 0.6513
C8_84 C 0.71810(6) 0.88009(7) 0.69479(7)
H8_84 H 0.7261 0.8958 0.7037
N13_48 N 0.59201(5) 0.98323(6) 0.64161(5)
N14_64 N 0.65967(5) 0.98427(5) 0.63795(5)
N15_84 N 0.60676(5) 0.93822(5) 0.76847(5)
N16_84 N 0.57428(5) 0.91165(5) 0.71175(5)
Cu2_85 Cu 0.057950(9) 0.399963(9) 0.774570(9)
N1_85 N 0.01647(5) 0.39154(5) 0.77719(5)
N2_85 N 0.00452(5) 0.37914(5) 0.80120(5)
N3_85 N 0.06541(5) 0.35658(5) 0.82193(5)
N4_85 N 0.07553(5) 0.36409(5) 0.79486(5)
N8_85 N 0.14324(5) 0.26847(5) 0.81178(5)
N9_85 N 0.12232(5) 0.30954(5) 0.81348(5)
N10_85 N 0.16165(5) 0.28825(5) 0.82428(5)
N11_85 N 0.10141(5) 0.32989(5) 0.81123(5)
C3_85 C 0.09725(6) 0.34811(6) 0.78908(6)
H3_85 H 0.1082 0.3489 0.7726
C4_85 C 0.14864(7) 0.31267(6) 0.82490(7)
H4_85 H 0.1562 0.3295 0.8320
C5_85 C 0.08133(6) 0.33595(7) 0.83128(6)
H5_85 H 0.0793 0.3268 0.8487
C8_85 C 0.11991(7) 0.28190(6) 0.80521(7)
H8_85 H 0.1042 0.2739 0.7963
N15_85 N 0.06178(5) 0.39324(5) 0.73153(5)
N16_85 N 0.08835(5) 0.42572(5) 0.78825(5)
C1_85 C 0.93064(6) 0.40180(7) 0.74564(7)
H1_85 H 0.9348 0.4210 0.7481
N7_81 N 0.94704(5) 0.37960(6) 0.75431(6)
C2_81 C 0.97806(6) 0.37321(7) 0.79550(7)
H2_81 H 0.9651 0.3648 0.8079
C6_81 C 0.99719(6) 0.39231(7) 0.75752(7)
H6_85 H 0.9997 0.3992 0.7391
C7_85 C 0.93355(6) 0.35536(7) 0.74666(7)
H7_85 H 0.9402 0.3370 0.7497
N12_81 N 0.97271(5) 0.38144(6) 0.76815(6)
Cu2_86 Cu 0.600037(9) 0.307950(9) 0.524570(9)
N1_86 N 0.60846(5) 0.26647(5) 0.52719(5)
N2_86 N 0.62086(5) 0.25452(5) 0.55120(5)
N3_86 N 0.64342(5) 0.31541(5) 0.57193(5)
N4_86 N 0.63591(5) 0.32553(5) 0.54486(5)
C1_86 C 0.59820(7) 0.18064(6) 0.49564(7)
H1_86 H 0.5790 0.1848 0.4981
N7_82 N 0.62040(6) 0.19704(5) 0.50431(6)
C2_82 C 0.62679(7) 0.22806(6) 0.54550(7)
H2_82 H 0.6352 0.2151 0.5579
N8_86 N 0.73153(5) 0.39324(5) 0.56178(5)
N9_86 N 0.69046(5) 0.37232(5) 0.56348(5)
N10_86 N 0.71175(5) 0.41165(5) 0.57428(5)
N11_86 N 0.67011(5) 0.35141(5) 0.56123(5)
C3_86 C 0.65189(6) 0.34725(6) 0.53908(6)
H3_86 H 0.6511 0.3582 0.5226
C4_86 C 0.68733(6) 0.39864(7) 0.57490(7)
H4_86 H 0.6705 0.4062 0.5820
C5_86 C 0.66405(7) 0.33133(6) 0.58128(6)
H5_86 H 0.6732 0.3293 0.5987
C6_82 C 0.60769(7) 0.24719(6) 0.50752(7)
H6_86 H 0.6008 0.2497 0.4891
C7_86 C 0.64464(7) 0.18355(6) 0.49666(7)
H7_86 H 0.6630 0.1902 0.4997
C8_86 C 0.71810(6) 0.36991(7) 0.55521(7)
H8_86 H 0.7261 0.3542 0.5463
N12_82 N 0.61856(6) 0.22271(5) 0.51815(6)
N15_86 N 0.60676(5) 0.31178(5) 0.48153(5)
N16_86 N 0.57428(5) 0.33835(5) 0.53825(5)
Cu2_87 Cu 0.692050(9) 0.850037(9) 0.274570(9)
N1_87 N 0.73353(5) 0.85846(5) 0.27719(5)
N2_87 N 0.74548(5) 0.87086(5) 0.30120(5)
N3_87 N 0.68459(5) 0.89342(5) 0.32193(5)
N4_87 N 0.67447(5) 0.88591(5) 0.29486(5)
C1_87 C 0.81936(6) 0.84820(7) 0.24564(7)
H1_87 H 0.8152 0.8290 0.2481
N7_83 N 0.80296(5) 0.87040(6) 0.25431(6)
C2_83 C 0.77194(6) 0.87679(7) 0.29550(7)
H2_83 H 0.7849 0.8852 0.3079
N8_87 N 0.60676(5) 0.98153(5) 0.31178(5)
N9_87 N 0.62768(5) 0.94046(5) 0.31348(5)
N10_87 N 0.58835(5) 0.96175(5) 0.32428(5)
N11_87 N 0.64859(5) 0.92011(5) 0.31123(5)
C3_87 C 0.65275(6) 0.90189(6) 0.28908(6)
H3_87 H 0.6418 0.9011 0.2726
C4_87 C 0.60136(7) 0.93733(6) 0.32490(7)
H4_87 H 0.5938 0.9205 0.3320
C5_87 C 0.66867(6) 0.91405(7) 0.33128(6)
H5_87 H 0.6707 0.9232 0.3487
C6_83 C 0.75281(6) 0.85769(7) 0.25752(7)
H6_87 H 0.7503 0.8508 0.2391
C7_87 C 0.81645(6) 0.89464(7) 0.24666(7)
H7_87 H 0.8098 0.9130 0.2497
C8_87 C 0.63009(7) 0.96810(6) 0.30521(7)
H8_87 H 0.6458 0.9761 0.2963
N12_83 N 0.77729(5) 0.86856(6) 0.26815(6)
N15_87 N 0.68822(5) 0.85676(5) 0.23153(5)
N16_87 N 0.66165(5) 0.82428(5) 0.28825(5)
C1_88 C 0.15180(7) 0.06936(6) 0.99564(7)
H1_88 H 0.1710 0.0652 0.9981
H6_88 H 0.1492 0.0003 0.9891
C7_88 C 0.10536(7) 0.06645(6) 0.99666(7)
H7_88 H 0.0870 0.0598 0.9997
Cu2_88 Cu 0.149963(9) 0.942050(9) 0.024570(9)
N1_88 N 0.14154(5) 0.98353(5) 0.02719(5)
N2_88 N 0.12914(5) 0.99548(5) 0.05120(5)
N3_88 N 0.10658(5) 0.93459(5) 0.07193(5)
N4_88 N 0.11409(5) 0.92447(5) 0.04486(5)
N8_88 N 0.01847(5) 0.85676(5) 0.06178(5)
N9_88 N 0.05954(5) 0.87768(5) 0.06348(5)
N10_88 N 0.03825(5) 0.83835(5) 0.07428(5)
N11_88 N 0.07989(5) 0.89859(5) 0.06123(5)
C3_88 C 0.09811(6) 0.90275(6) 0.03908(6)
H3_88 H 0.0989 0.8918 0.0226
C4_88 C 0.06267(6) 0.85136(7) 0.07490(7)
H4_88 H 0.0795 0.8438 0.0820
C5_88 C 0.08595(7) 0.91867(6) 0.08128(6)
H5_88 H 0.0768 0.9207 0.0987
C8_88 C 0.03190(6) 0.88009(7) 0.05521(7)
H8_88 H 0.0239 0.8958 0.0463
N16_88 N 0.17572(5) 0.91165(5) 0.03825(5)
N15_88 N 0.14324(5) 0.93822(5) 0.98153(5)
N15_89 N 0.01847(5) 0.06178(5) 0.35676(5)
C1_89 C 0.00436(7) 0.93064(6) 0.34820(7)
H1_89 H 0.0019 0.9348 0.3290
H6_89 H 0.0109 0.9997 0.3508
C7_89 C 0.00334(7) 0.93355(6) 0.39464(7)
H7_89 H 0.0003 0.9402 0.4130
Cu2_89 Cu 0.975430(9) 0.057950(9) 0.350037(9)
N1_89 N 0.97281(5) 0.01647(5) 0.35846(5)
N2_89 N 0.94880(5) 0.00452(5) 0.37086(5)
N3_89 N 0.92807(5) 0.06541(5) 0.39342(5)
N4_89 N 0.95514(5) 0.07553(5) 0.38591(5)
N8_89 N 0.93822(5) 0.14324(5) 0.48153(5)
N9_89 N 0.93652(5) 0.12232(5) 0.44046(5)
N10_89 N 0.92572(5) 0.16165(5) 0.46175(5)
N11_89 N 0.93877(5) 0.10141(5) 0.42011(5)
C3_89 C 0.96092(6) 0.09725(6) 0.40189(6)
H3_89 H 0.9774 0.1082 0.4011
C4_89 C 0.92510(7) 0.14864(7) 0.43733(6)
H4_89 H 0.9180 0.1562 0.4205
C5_89 C 0.91872(6) 0.08133(6) 0.41405(7)
H5_89 H 0.9013 0.0793 0.4232
C8_89 C 0.94479(7) 0.11991(7) 0.46810(6)
H8_89 H 0.9537 0.1042 0.4761
N16_89 N 0.96175(5) 0.08835(5) 0.32428(5)
Cu2_90 Cu 0.442050(9) 0.024570(9) 0.649963(9)
N1_90 N 0.48353(5) 0.02719(5) 0.64154(5)
N2_90 N 0.49548(5) 0.05120(5) 0.62914(5)
N3_90 N 0.43459(5) 0.07193(5) 0.60658(5)
N4_90 N 0.42447(5) 0.04486(5) 0.61409(5)
N7_84 N 0.55296(5) 0.00431(6) 0.62960(6)
C2_84 C 0.52194(6) 0.04550(7) 0.62321(7)
H2_84 H 0.5349 0.0579 0.6148
N8_90 N 0.35676(5) 0.06178(5) 0.51847(5)
N9_90 N 0.37768(5) 0.06348(5) 0.55954(5)
N10_90 N 0.33835(5) 0.07428(5) 0.53825(5)
N11_90 N 0.39859(5) 0.06123(5) 0.57989(5)
C3_90 C 0.40275(6) 0.03908(6) 0.59811(6)
H3_90 H 0.3918 0.0226 0.5989
C4_90 C 0.35136(7) 0.07490(7) 0.56267(6)
H4_90 H 0.3438 0.0820 0.5795
C5_90 C 0.41867(6) 0.08128(6) 0.58595(7)
H5_90 H 0.4207 0.0987 0.5768
C6_84 C 0.50281(6) 0.00752(7) 0.64231(7)
C8_90 C 0.38009(7) 0.05521(7) 0.53190(6)
H8_90 H 0.3958 0.0463 0.5239
N12_84 N 0.52729(5) 0.01815(6) 0.63144(6)
Cu5_48 Cu 0.307950(9) 0.100037(9) 0.524570(9)
Cu6_48 Cu 0.350037(9) 0.057950(9) 0.475430(9)
N16_90 N 0.41165(5) 0.03825(5) 0.67572(5)
C1_90 C 0.56936(6) 0.99564(7) 0.65180(7)
H1_90 H 0.5652 0.9981 0.6710
H6_90 H 0.5003 0.9891 0.6492
C7_90 C 0.56645(6) 0.99666(7) 0.60536(7)
H7_90 H 0.5598 0.9997 0.5870
N15_90 N 0.43822(5) 0.98153(5) 0.64324(5)
C1_91 C 0.06936(6) 0.75436(7) 0.59820(7)
H1_91 H 0.0652 0.7519 0.5790
N7_85 N 0.05296(5) 0.74569(6) 0.62040(6)
C2_85 C 0.02194(6) 0.70450(7) 0.62679(7)
H2_85 H 0.0349 0.6921 0.6352
C6_85 C 0.00281(6) 0.74248(7) 0.60769(7)
H6_91 H 0.0003 0.7609 0.6008
C7_91 C 0.06645(6) 0.75334(7) 0.64464(7)
H7_91 H 0.0598 0.7503 0.6630
N12_85 N 0.02729(5) 0.73185(6) 0.61856(6)
Cu2_91 Cu 0.942050(9) 0.725430(9) 0.600037(9)
N1_91 N 0.98353(5) 0.72281(5) 0.60846(5)
N2_91 N 0.99548(5) 0.69880(5) 0.62086(5)
N3_91 N 0.93459(5) 0.67807(5) 0.64342(5)
N4_91 N 0.92447(5) 0.70514(5) 0.63591(5)
N8_91 N 0.85676(5) 0.68822(5) 0.73153(5)
N9_91 N 0.87768(5) 0.68652(5) 0.69046(5)
N10_91 N 0.83835(5) 0.67572(5) 0.71175(5)
N11_91 N 0.89859(5) 0.68877(5) 0.67011(5)
C3_91 C 0.90275(6) 0.71092(6) 0.65189(6)
H3_91 H 0.8918 0.7274 0.6511
C4_91 C 0.85136(7) 0.67510(7) 0.68733(6)
H4_91 H 0.8438 0.6680 0.6705
C5_91 C 0.91867(6) 0.66872(6) 0.66405(7)
H5_91 H 0.9207 0.6513 0.6732
C8_91 C 0.88009(7) 0.69479(7) 0.71810(6)
H8_91 H 0.8958 0.7037 0.7261
N15_91 N 0.93822(5) 0.76847(5) 0.60676(5)
N16_91 N 0.91165(5) 0.71175(5) 0.57428(5)
Cu2_92 Cu 0.307950(9) 0.725430(9) 0.649963(9)
N1_92 N 0.26647(5) 0.72281(5) 0.64154(5)
N2_92 N 0.25452(5) 0.69880(5) 0.62914(5)
N3_92 N 0.31541(5) 0.67807(5) 0.60658(5)
N4_92 N 0.32553(5) 0.70514(5) 0.61409(5)
C1_92 C 0.18064(6) 0.75436(7) 0.65180(7)
H1_92 H 0.1848 0.7519 0.6710
N7_86 N 0.19704(5) 0.74569(6) 0.62960(6)
C2_86 C 0.22806(6) 0.70450(7) 0.62321(7)
H2_86 H 0.2151 0.6921 0.6148
N8_92 N 0.39324(5) 0.68822(5) 0.51847(5)
N9_92 N 0.37232(5) 0.68652(5) 0.55954(5)
N10_92 N 0.41165(5) 0.67572(5) 0.53825(5)
N11_92 N 0.35141(5) 0.68877(5) 0.57989(5)
C3_92 C 0.34725(6) 0.71092(6) 0.59811(6)
H3_92 H 0.3582 0.7274 0.5989
C4_92 C 0.39864(7) 0.67510(7) 0.56267(6)
H4_92 H 0.4062 0.6680 0.5795
C5_92 C 0.33133(6) 0.66872(6) 0.58595(7)
H5_92 H 0.3293 0.6513 0.5768
C6_86 C 0.24719(6) 0.74248(7) 0.64231(7)
H6_92 H 0.2497 0.7609 0.6492
C7_92 C 0.18355(6) 0.75334(7) 0.60536(7)
H7_92 H 0.1902 0.7503 0.5870
C8_92 C 0.36991(7) 0.69479(7) 0.53190(6)
H8_92 H 0.3542 0.7037 0.5239
N12_86 N 0.22271(5) 0.73185(6) 0.63144(6)
N15_92 N 0.31178(5) 0.76847(5) 0.64324(5)
N16_92 N 0.33835(5) 0.71175(5) 0.67572(5)
Cu2_93 Cu 0.807950(9) 0.024570(9) 0.600037(9)
N1_93 N 0.76647(5) 0.02719(5) 0.60846(5)
N2_93 N 0.75452(5) 0.05120(5) 0.62086(5)
N3_93 N 0.81541(5) 0.07193(5) 0.64342(5)
N4_93 N 0.82553(5) 0.04486(5) 0.63591(5)
N7_87 N 0.69704(5) 0.00431(6) 0.62040(6)
C2_87 C 0.72806(6) 0.04550(7) 0.62679(7)
H2_87 H 0.7151 0.0579 0.6352
N8_93 N 0.89324(5) 0.06178(5) 0.73153(5)
N9_93 N 0.87232(5) 0.06348(5) 0.69046(5)
N10_93 N 0.91165(5) 0.07428(5) 0.71175(5)
N11_93 N 0.85141(5) 0.06123(5) 0.67011(5)
C3_93 C 0.84725(6) 0.03908(6) 0.65189(6)
H3_93 H 0.8582 0.0226 0.6511
C4_93 C 0.89864(7) 0.07490(7) 0.68733(6)
H4_93 H 0.9062 0.0820 0.6705
C5_93 C 0.83133(6) 0.08128(6) 0.66405(7)
H5_93 H 0.8293 0.0987 0.6732
C6_87 C 0.74719(6) 0.00752(7) 0.60769(7)
C8_93 C 0.86991(7) 0.05521(7) 0.71810(6)
H8_93 H 0.8542 0.0463 0.7261
N12_87 N 0.72271(5) 0.01815(6) 0.61856(6)
N16_93 N 0.83835(5) 0.03825(5) 0.57428(5)
C1_93 C 0.68064(6) 0.99564(7) 0.59820(7)
H1_93 H 0.6848 0.9981 0.5790
H6_93 H 0.7497 0.9891 0.6008
C7_93 C 0.68355(6) 0.99666(7) 0.64464(7)
H7_93 H 0.6902 0.9997 0.6630
N15_93 N 0.81178(5) 0.98153(5) 0.60676(5)
C1_94 C 0.00436(7) 0.81936(6) 0.40180(7)
H1_94 H 0.0019 0.8152 0.4210
H6_94 H 0.0109 0.7503 0.3992
C7_94 C 0.00334(7) 0.81645(6) 0.35536(7)
H7_94 H 0.0003 0.8098 0.3370
N15_94 N 0.01847(5) 0.68822(5) 0.39324(5)
Cu2_94 Cu 0.975430(9) 0.692050(9) 0.399963(9)
N1_94 N 0.97281(5) 0.73353(5) 0.39154(5)
N2_94 N 0.94880(5) 0.74548(5) 0.37914(5)
N3_94 N 0.92807(5) 0.68459(5) 0.35658(5)
N4_94 N 0.95514(5) 0.67447(5) 0.36409(5)
N7_88 N 0.99569(6) 0.80296(5) 0.37960(6)
C2_88 C 0.95450(7) 0.77194(6) 0.37321(7)
H2_88 H 0.9421 0.7849 0.3648
N8_94 N 0.93822(5) 0.60676(5) 0.26847(5)
N9_94 N 0.93652(5) 0.62768(5) 0.30954(5)
N10_94 N 0.92572(5) 0.58835(5) 0.28825(5)
N11_94 N 0.93877(5) 0.64859(5) 0.32989(5)
C3_94 C 0.96092(6) 0.65275(6) 0.34811(6)
H3_94 H 0.9774 0.6418 0.3489
C4_94 C 0.92510(7) 0.60136(7) 0.31267(6)
H4_94 H 0.9180 0.5938 0.3295
C5_94 C 0.91872(6) 0.66867(6) 0.33595(7)
H5_94 H 0.9013 0.6707 0.3268
C6_88 C 0.99248(7) 0.75281(6) 0.39231(7)
C8_94 C 0.94479(7) 0.63009(7) 0.28190(6)
H8_94 H 0.9537 0.6458 0.2739
N12_88 N 0.98185(6) 0.77729(5) 0.38144(6)
N16_94 N 0.96175(5) 0.66165(5) 0.42572(5)
Cu2_95 Cu 0.274570(9) 0.192050(9) 0.350037(9)
N1_95 N 0.27719(5) 0.23353(5) 0.35846(5)
N2_95 N 0.30120(5) 0.24548(5) 0.37086(5)
N3_95 N 0.32193(5) 0.18459(5) 0.39342(5)
N4_95 N 0.29486(5) 0.17447(5) 0.38591(5)
C1_95 C 0.24564(7) 0.31936(6) 0.34820(7)
H1_95 H 0.2481 0.3152 0.3290
N7_89 N 0.25431(6) 0.30296(5) 0.37040(6)
C2_89 C 0.29550(7) 0.27194(6) 0.37679(7)
H2_89 H 0.3079 0.2849 0.3852
N8_95 N 0.31178(5) 0.10676(5) 0.48153(5)
N9_95 N 0.31348(5) 0.12768(5) 0.44046(5)
N10_95 N 0.32428(5) 0.08835(5) 0.46175(5)
N11_95 N 0.31123(5) 0.14859(5) 0.42011(5)
C3_95 C 0.28908(6) 0.15275(6) 0.40189(6)
H3_95 H 0.2726 0.1418 0.4011
C4_95 C 0.32490(7) 0.10136(7) 0.43733(6)
H4_95 H 0.3320 0.0938 0.4205
C5_95 C 0.33128(6) 0.16867(6) 0.41405(7)
H5_95 H 0.3487 0.1707 0.4232
C6_89 C 0.25752(7) 0.25281(6) 0.35769(7)
H6_95 H 0.2391 0.2503 0.3508
C7_95 C 0.24666(7) 0.31645(6) 0.39464(7)
H7_95 H 0.2497 0.3098 0.4130
C8_95 C 0.30521(7) 0.13009(7) 0.46810(6)
H8_95 H 0.2963 0.1458 0.4761
N12_89 N 0.26815(6) 0.27729(5) 0.36856(6)
N15_95 N 0.23153(5) 0.18822(5) 0.35676(5)
N16_95 N 0.28825(5) 0.16165(5) 0.32428(5)
Cu2_96 Cu 0.274570(9) 0.557950(9) 0.399963(9)
N1_96 N 0.27719(5) 0.51647(5) 0.39154(5)
N2_96 N 0.30120(5) 0.50452(5) 0.37914(5)
N3_96 N 0.32193(5) 0.56541(5) 0.35658(5)
N4_96 N 0.29486(5) 0.57553(5) 0.36409(5)
C1_96 C 0.24564(7) 0.43064(6) 0.40180(7)
H1_96 H 0.2481 0.4348 0.4210
N7_90 N 0.25431(6) 0.44704(5) 0.37960(6)
C2_90 C 0.29550(7) 0.47806(6) 0.37321(7)
H2_90 H 0.3079 0.4651 0.3648
N8_96 N 0.31178(5) 0.64324(5) 0.26847(5)
N9_96 N 0.31348(5) 0.62232(5) 0.30954(5)
N10_96 N 0.32428(5) 0.66165(5) 0.28825(5)
N11_96 N 0.31123(5) 0.60141(5) 0.32989(5)
C3_96 C 0.28908(6) 0.59725(6) 0.34811(6)
H3_96 H 0.2726 0.6082 0.3489
C4_96 C 0.32490(7) 0.64864(7) 0.31267(6)
H4_96 H 0.3320 0.6562 0.3295
C5_96 C 0.33128(6) 0.58133(6) 0.33595(7)
H5_96 H 0.3487 0.5793 0.3268
C6_90 C 0.25752(7) 0.49719(6) 0.39231(7)
H6_96 H 0.2391 0.4997 0.3992
C7_96 C 0.24666(7) 0.43355(6) 0.35536(7)
H7_96 H 0.2497 0.4402 0.3370
C8_96 C 0.30521(7) 0.61991(7) 0.28190(6)
H8_96 H 0.2963 0.6042 0.2739
N12_90 N 0.26815(6) 0.47271(5) 0.38144(6)
N15_96 N 0.23153(5) 0.56178(5) 0.39324(5)
N16_96 N 0.28825(5) 0.58835(5) 0.42572(5)
Cu1_49 Cu 0.623307(9) 0.587203(9) 0.470495(9)
N1_97 N 0.64154(5) 0.52719(5) 0.48353(5)
N2_97 N 0.62914(5) 0.55120(5) 0.49548(5)
N3_97 N 0.60658(5) 0.57193(5) 0.43459(5)
N4_97 N 0.61409(5) 0.54486(5) 0.42447(5)
N5_49 N 0.64161(5) 0.48323(6) 0.59201(5)
N6_33 N 0.61205(5) 0.48427(5) 0.59033(5)
C1_97 C 0.65180(7) 0.49564(7) 0.56936(6)
H1_97 H 0.6710 0.4981 0.5652
N7_91 N 0.62960(6) 0.50431(6) 0.55296(5)
C2_91 C 0.62321(7) 0.54550(7) 0.52194(6)
H2_91 H 0.6148 0.5579 0.5349
N9_97 N 0.55954(5) 0.56348(5) 0.37768(5)
N11_97 N 0.57989(5) 0.56123(5) 0.39859(5)
C3_97 C 0.59811(6) 0.53908(6) 0.40275(6)
H3_97 H 0.5989 0.5226 0.3918
C4_97 C 0.56267(6) 0.57490(7) 0.35136(7)
H4_97 H 0.5795 0.5820 0.3438
C5_97 C 0.58595(7) 0.58128(6) 0.41867(6)
H5_97 H 0.5768 0.5987 0.4207
C6_91 C 0.64231(7) 0.50752(7) 0.50281(6)
H6_97 H 0.6492 0.4891 0.5003
C7_97 C 0.60536(7) 0.49666(7) 0.56645(6)
H7_97 H 0.5870 0.4997 0.5598
C8_97 C 0.53190(6) 0.55521(7) 0.38009(7)
H8_97 H 0.5239 0.5463 0.3958
N12_91 N 0.63144(6) 0.51815(6) 0.52729(5)
Cu3_19 Cu 0.587203(9) 0.470495(9) 0.623307(9)
Cu4_31 Cu 0.662797(9) 0.470495(9) 0.626693(9)
N13_49 N 0.65799(5) 0.60839(5) 0.48323(6)
N14_65 N 0.59033(5) 0.61205(5) 0.48427(5)
Cu1_50 Cu 0.412797(9) 0.373307(9) 0.720495(9)
N1_98 N 0.47281(5) 0.39154(5) 0.73353(5)
N2_98 N 0.44880(5) 0.37914(5) 0.74548(5)
N3_98 N 0.42807(5) 0.35658(5) 0.68459(5)
N4_98 N 0.45514(5) 0.36409(5) 0.67447(5)
N5_50 N 0.51677(6) 0.39161(5) 0.84201(5)
N6_34 N 0.51573(5) 0.36205(5) 0.84033(5)
C1_98 C 0.50436(7) 0.40180(7) 0.81936(6)
H1_98 H 0.5019 0.4210 0.8152
N7_92 N 0.49569(6) 0.37960(6) 0.80296(5)
C2_92 C 0.45450(7) 0.37321(7) 0.77194(6)
H2_92 H 0.4421 0.3648 0.7849
N9_98 N 0.43652(5) 0.30954(5) 0.62768(5)
N11_98 N 0.43877(5) 0.32989(5) 0.64859(5)
C3_98 C 0.46092(6) 0.34811(6) 0.65275(6)
H3_98 H 0.4774 0.3489 0.6418
C4_98 C 0.42510(7) 0.31267(6) 0.60136(7)
H4_98 H 0.4180 0.3295 0.5938
C5_98 C 0.41872(6) 0.33595(7) 0.66867(6)
H5_98 H 0.4013 0.3268 0.6707
C6_92 C 0.49248(7) 0.39231(7) 0.75281(6)
H6_98 H 0.5109 0.3992 0.7503
C7_98 C 0.50334(7) 0.35536(7) 0.81645(6)
H7_98 H 0.5003 0.3370 0.8098
C8_98 C 0.44479(7) 0.28190(6) 0.63009(7)
H8_98 H 0.4537 0.2739 0.6458
N12_92 N 0.48185(6) 0.38144(6) 0.77729(5)
Cu3_20 Cu 0.529505(9) 0.337203(9) 0.873307(9)
Cu4_32 Cu 0.529505(9) 0.412797(9) 0.876693(9)
N13_50 N 0.39161(5) 0.40799(5) 0.73323(6)
N14_66 N 0.38795(5) 0.34033(5) 0.73427(5)
N5_51 N 0.60839(5) 0.26677(6) 0.09201(5)
N6_35 N 0.63795(5) 0.26573(5) 0.09033(5)
C1_99 C 0.59820(7) 0.25436(7) 0.06936(6)
H1_99 H 0.5790 0.2519 0.0652
N7_93 N 0.62040(6) 0.24569(6) 0.05296(5)
C2_93 C 0.62679(7) 0.20450(7) 0.02194(6)
H2_93 H 0.6352 0.1921 0.0349
C6_93 C 0.60769(7) 0.24248(7) 0.00281(6)
H6_99 H 0.6008 0.2609 0.0003
C7_99 C 0.64464(7) 0.25334(7) 0.06645(6)
H7_99 H 0.6630 0.2503 0.0598
N12_93 N 0.61856(6) 0.23185(6) 0.02729(5)
Cu3_21 Cu 0.662797(9) 0.279505(9) 0.123307(9)
Cu4_33 Cu 0.587203(9) 0.279505(9) 0.126693(9)
Cu1_51 Cu 0.626693(9) 0.162797(9) 0.970495(9)
N1_99 N 0.60846(5) 0.22281(5) 0.98353(5)
N2_99 N 0.62086(5) 0.19880(5) 0.99548(5)
N3_99 N 0.64342(5) 0.17807(5) 0.93459(5)
N4_99 N 0.63591(5) 0.20514(5) 0.92447(5)
N9_99 N 0.69046(5) 0.18652(5) 0.87768(5)
N11_99 N 0.67011(5) 0.18877(5) 0.89859(5)
C3_99 C 0.65189(6) 0.21092(6) 0.90275(6)
H3_99 H 0.6511 0.2274 0.8918
C4_99 C 0.68733(6) 0.17510(7) 0.85136(7)
H4_99 H 0.6705 0.1680 0.8438
C5_99 C 0.66405(7) 0.16872(6) 0.91867(6)
H5_99 H 0.6732 0.1513 0.9207
C8_99 C 0.71810(6) 0.19479(7) 0.88009(7)
H8_99 H 0.7261 0.2037 0.8958
N13_51 N 0.59201(5) 0.14161(5) 0.98323(6)
N14_67 N 0.65967(5) 0.13795(5) 0.98427(5)
Cu1_52 Cu 0.837203(9) 0.376693(9) 0.220495(9)
N1_100 N 0.77719(5) 0.35846(5) 0.23353(5)
N2_100 N 0.80120(5) 0.37086(5) 0.24548(5)
N3_100 N 0.82193(5) 0.39342(5) 0.18459(5)
N4_100 N 0.79486(5) 0.38591(5) 0.17447(5)
N5_52 N 0.73323(6) 0.35839(5) 0.34201(5)
N6_36 N 0.73427(5) 0.38795(5) 0.34033(5)
C1_100 C 0.74564(7) 0.34820(7) 0.31936(6)
H1_100 H 0.7481 0.3290 0.3152
N7_94 N 0.75431(6) 0.37040(6) 0.30296(5)
C2_94 C 0.79550(7) 0.37679(7) 0.27194(6)
H2_94 H 0.8079 0.3852 0.2849
N9_100 N 0.81348(5) 0.44046(5) 0.12768(5)
N11_100 N 0.81123(5) 0.42011(5) 0.14859(5)
C3_100 C 0.78908(6) 0.40189(6) 0.15275(6)
H3_100 H 0.7726 0.4011 0.1418
C4_100 C 0.82490(7) 0.43733(6) 0.10136(7)
H4_100 H 0.8320 0.4205 0.0938
C5_100 C 0.83128(6) 0.41405(7) 0.16867(6)
H5_100 H 0.8487 0.4232 0.1707
C6_94 C 0.75752(7) 0.35769(7) 0.25281(6)
H6_100 H 0.7391 0.3508 0.2503
C7_100 C 0.74666(7) 0.39464(7) 0.31645(6)
H7_100 H 0.7497 0.4130 0.3098
C8_100 C 0.80521(7) 0.46810(6) 0.13009(7)
H8_100 H 0.7963 0.4761 0.1458
N12_94 N 0.76815(6) 0.36856(6) 0.27729(5)
Cu3_22 Cu 0.720495(9) 0.412797(9) 0.373307(9)
Cu4_34 Cu 0.720495(9) 0.337203(9) 0.376693(9)
N13_52 N 0.85839(5) 0.34201(5) 0.23323(6)
N14_68 N 0.86205(5) 0.40967(5) 0.23427(5)
Cu1_53 Cu 0.623307(9) 0.162797(9) 0.279505(9)
N1_101 N 0.64154(5) 0.22281(5) 0.26647(5)
N2_101 N 0.62914(5) 0.19880(5) 0.25452(5)
N3_101 N 0.60658(5) 0.17807(5) 0.31541(5)
N4_101 N 0.61409(5) 0.20514(5) 0.32553(5)
N5_53 N 0.64161(5) 0.26677(6) 0.15799(5)
N6_37 N 0.61205(5) 0.26573(5) 0.15967(5)
C1_101 C 0.65180(7) 0.25436(7) 0.18064(6)
H1_101 H 0.6710 0.2519 0.1848
N7_95 N 0.62960(6) 0.24569(6) 0.19704(5)
C2_95 C 0.62321(7) 0.20450(7) 0.22806(6)
H2_95 H 0.6148 0.1921 0.2151
N9_101 N 0.55954(5) 0.18652(5) 0.37232(5)
N11_101 N 0.57989(5) 0.18877(5) 0.35141(5)
C3_101 C 0.59811(6) 0.21092(6) 0.34725(6)
H3_101 H 0.5989 0.2274 0.3582
C4_101 C 0.56267(6) 0.17510(7) 0.39864(7)
H4_101 H 0.5795 0.1680 0.4062
C5_101 C 0.58595(7) 0.16872(6) 0.33133(6)
H5_101 H 0.5768 0.1513 0.3293
C6_95 C 0.64231(7) 0.24248(7) 0.24719(6)
H6_101 H 0.6492 0.2609 0.2497
C7_101 C 0.60536(7) 0.25334(7) 0.18355(6)
H7_101 H 0.5870 0.2503 0.1902
C8_101 C 0.53190(6) 0.19479(7) 0.36991(7)
H8_101 H 0.5239 0.2037 0.3542
N12_95 N 0.63144(6) 0.23185(6) 0.22271(5)
N13_53 N 0.65799(5) 0.14161(5) 0.26677(6)
N14_69 N 0.59033(5) 0.13795(5) 0.26573(5)
Cu1_54 Cu 0.837203(9) 0.373307(9) 0.529505(9)
N1_102 N 0.77719(5) 0.39154(5) 0.51647(5)
N2_102 N 0.80120(5) 0.37914(5) 0.50452(5)
N3_102 N 0.82193(5) 0.35658(5) 0.56541(5)
N4_102 N 0.79486(5) 0.36409(5) 0.57553(5)
N5_54 N 0.73323(6) 0.39161(5) 0.40799(5)
N6_38 N 0.73427(5) 0.36205(5) 0.40967(5)
C1_102 C 0.74564(7) 0.40180(7) 0.43064(6)
H1_102 H 0.7481 0.4210 0.4348
N7_96 N 0.75431(6) 0.37960(6) 0.44704(5)
C2_96 C 0.79550(7) 0.37321(7) 0.47806(6)
H2_96 H 0.8079 0.3648 0.4651
N9_102 N 0.81348(5) 0.30954(5) 0.62232(5)
N11_102 N 0.81123(5) 0.32989(5) 0.60141(5)
C3_102 C 0.78908(6) 0.34811(6) 0.59725(6)
H3_102 H 0.7726 0.3489 0.6082
C4_102 C 0.82490(7) 0.31267(6) 0.64864(7)
H4_102 H 0.8320 0.3295 0.6562
C5_102 C 0.83128(6) 0.33595(7) 0.58133(6)
H5_102 H 0.8487 0.3268 0.5793
C6_96 C 0.75752(7) 0.39231(7) 0.49719(6)
H6_102 H 0.7391 0.3992 0.4997
C7_102 C 0.74666(7) 0.35536(7) 0.43355(6)
H7_102 H 0.7497 0.3370 0.4402
C8_102 C 0.80521(7) 0.28190(6) 0.61991(7)
H8_102 H 0.7963 0.2739 0.6042
N12_96 N 0.76815(6) 0.38144(6) 0.47271(5)
N13_54 N 0.85839(5) 0.40799(5) 0.51677(6)
N14_70 N 0.86205(5) 0.34033(5) 0.51573(5)
Cu1_55 Cu 0.626693(9) 0.587203(9) 0.779505(9)
N1_103 N 0.60846(5) 0.52719(5) 0.76647(5)
N2_103 N 0.62086(5) 0.55120(5) 0.75452(5)
N3_103 N 0.64342(5) 0.57193(5) 0.81541(5)
N4_103 N 0.63591(5) 0.54486(5) 0.82553(5)
N5_55 N 0.60839(5) 0.48323(6) 0.65799(5)
N6_39 N 0.63795(5) 0.48427(5) 0.65967(5)
C1_103 C 0.59820(7) 0.49564(7) 0.68064(6)
H1_103 H 0.5790 0.4981 0.6848
N7_97 N 0.62040(6) 0.50431(6) 0.69704(5)
C2_97 C 0.62679(7) 0.54550(7) 0.72806(6)
H2_97 H 0.6352 0.5579 0.7151
N9_103 N 0.69046(5) 0.56348(5) 0.87232(5)
N11_103 N 0.67011(5) 0.56123(5) 0.85141(5)
C3_103 C 0.65189(6) 0.53908(6) 0.84725(6)
H3_103 H 0.6511 0.5226 0.8582
C4_103 C 0.68733(6) 0.57490(7) 0.89864(7)
H4_103 H 0.6705 0.5820 0.9062
C5_103 C 0.66405(7) 0.58128(6) 0.83133(6)
H5_103 H 0.6732 0.5987 0.8293
C6_97 C 0.60769(7) 0.50752(7) 0.74719(6)
H6_103 H 0.6008 0.4891 0.7497
C7_103 C 0.64464(7) 0.49666(7) 0.68355(6)
H7_103 H 0.6630 0.4997 0.6902
C8_103 C 0.71810(6) 0.55521(7) 0.86991(7)
H8_103 H 0.7261 0.5463 0.8542
N12_97 N 0.61856(6) 0.51815(6) 0.72271(5)
N13_55 N 0.59201(5) 0.60839(5) 0.76677(6)
N14_71 N 0.65967(5) 0.61205(5) 0.76573(5)
Cu1_56 Cu 0.412797(9) 0.376693(9) 0.029505(9)
N1_104 N 0.47281(5) 0.35846(5) 0.01647(5)
N2_104 N 0.44880(5) 0.37086(5) 0.00452(5)
N3_104 N 0.42807(5) 0.39342(5) 0.06541(5)
N4_104 N 0.45514(5) 0.38591(5) 0.07553(5)
N9_104 N 0.43652(5) 0.44046(5) 0.12232(5)
N11_104 N 0.43877(5) 0.42011(5) 0.10141(5)
C3_104 C 0.46092(6) 0.40189(6) 0.09725(6)
H3_104 H 0.4774 0.4011 0.1082
C4_104 C 0.42510(7) 0.43733(6) 0.14864(7)
H4_104 H 0.4180 0.4205 0.1562
C5_104 C 0.41872(6) 0.41405(7) 0.08133(6)
H5_104 H 0.4013 0.4232 0.0793
C8_104 C 0.44479(7) 0.46810(6) 0.11991(7)
H8_104 H 0.4537 0.4761 0.1042
N13_56 N 0.39161(5) 0.34201(5) 0.01677(6)
N14_72 N 0.38795(5) 0.40967(5) 0.01573(5)
N5_56 N 0.51677(6) 0.35839(5) 0.90799(5)
N6_40 N 0.51573(5) 0.38795(5) 0.90967(5)
C1_104 C 0.50436(7) 0.34820(7) 0.93064(6)
H1_104 H 0.5019 0.3290 0.9348
N7_98 N 0.49569(6) 0.37040(6) 0.94704(5)
C2_98 C 0.45450(7) 0.37679(7) 0.97806(6)
H2_98 H 0.4421 0.3852 0.9651
C6_98 C 0.49248(7) 0.35769(7) 0.99719(6)
H6_104 H 0.5109 0.3508 0.9997
C7_104 C 0.50334(7) 0.39464(7) 0.93355(6)
H7_104 H 0.5003 0.4130 0.9402
N12_98 N 0.48185(6) 0.36856(6) 0.97271(5)
Cu1_57 Cu 0.470495(9) 0.623307(9) 0.587203(9)
N1_105 N 0.48353(5) 0.64154(5) 0.52719(5)
N2_105 N 0.49548(5) 0.62914(5) 0.55120(5)
N3_105 N 0.43459(5) 0.60658(5) 0.57193(5)
N4_105 N 0.42447(5) 0.61409(5) 0.54486(5)
N5_57 N 0.59201(5) 0.64161(5) 0.48323(6)
C1_105 C 0.56936(6) 0.65180(7) 0.49564(7)
H1_105 H 0.5652 0.6710 0.4981
N7_99 N 0.55296(5) 0.62960(6) 0.50431(6)
C2_99 C 0.52194(6) 0.62321(7) 0.54550(7)
H2_99 H 0.5349 0.6148 0.5579
N9_105 N 0.37768(5) 0.55954(5) 0.56348(5)
N11_105 N 0.39859(5) 0.57989(5) 0.56123(5)
C3_105 C 0.40275(6) 0.59811(6) 0.53908(6)
H3_105 H 0.3918 0.5989 0.5226
C4_105 C 0.35136(7) 0.56267(6) 0.57490(7)
H4_105 H 0.3438 0.5795 0.5820
C5_105 C 0.41867(6) 0.58595(7) 0.58128(6)
H5_105 H 0.4207 0.5768 0.5987
C6_99 C 0.50281(6) 0.64231(7) 0.50752(7)
H6_105 H 0.5003 0.6492 0.4891
C7_105 C 0.56645(6) 0.60536(7) 0.49666(7)
H7_105 H 0.5598 0.5870 0.4997
C8_105 C 0.38009(7) 0.53190(6) 0.55521(7)
H8_105 H 0.3958 0.5239 0.5463
N12_99 N 0.52729(5) 0.63144(6) 0.51815(6)
Cu4_35 Cu 0.626693(9) 0.662797(9) 0.470495(9)
N13_57 N 0.48323(6) 0.65799(5) 0.60839(5)
N14_73 N 0.48427(5) 0.59033(5) 0.61205(5)
Cu1_58 Cu 0.376693(9) 0.220495(9) 0.837203(9)
N1_106 N 0.35846(5) 0.23353(5) 0.77719(5)
N2_106 N 0.37086(5) 0.24548(5) 0.80120(5)
N3_106 N 0.39342(5) 0.18459(5) 0.82193(5)
N4_106 N 0.38591(5) 0.17447(5) 0.79486(5)
N5_58 N 0.35839(5) 0.34201(5) 0.73323(6)
C1_106 C 0.34820(7) 0.31936(6) 0.74564(7)
H1_106 H 0.3290 0.3152 0.7481
N7_100 N 0.37040(6) 0.30296(5) 0.75431(6)
C2_100 C 0.37679(7) 0.27194(6) 0.79550(7)
H2_100 H 0.3852 0.2849 0.8079
N9_106 N 0.44046(5) 0.12768(5) 0.81348(5)
N11_106 N 0.42011(5) 0.14859(5) 0.81123(5)
C3_106 C 0.40189(6) 0.15275(6) 0.78908(6)
H3_106 H 0.4011 0.1418 0.7726
C4_106 C 0.43733(6) 0.10136(7) 0.82490(7)
H4_106 H 0.4205 0.0938 0.8320
C5_106 C 0.41405(7) 0.16867(6) 0.83128(6)
H5_106 H 0.4232 0.1707 0.8487
C6_100 C 0.35769(7) 0.25281(6) 0.75752(7)
H6_106 H 0.3508 0.2503 0.7391
C7_106 C 0.39464(7) 0.31645(6) 0.74666(7)
H7_106 H 0.4130 0.3098 0.7497
C8_106 C 0.46810(6) 0.13009(7) 0.80521(7)
H8_106 H 0.4761 0.1458 0.7963
N12_100 N 0.36856(6) 0.27729(5) 0.76815(6)
Cu4_36 Cu 0.337203(9) 0.376693(9) 0.720495(9)
N13_58 N 0.34201(5) 0.23323(6) 0.85839(5)
N14_74 N 0.40967(5) 0.23427(5) 0.86205(5)
Cu1_59 Cu 0.779505(9) 0.126693(9) 0.087203(9)
N1_107 N 0.76647(5) 0.10846(5) 0.02719(5)
N2_107 N 0.75452(5) 0.12086(5) 0.05120(5)
N3_107 N 0.81541(5) 0.14342(5) 0.07193(5)
N4_107 N 0.82553(5) 0.13591(5) 0.04486(5)
N7_101 N 0.69704(5) 0.12040(6) 0.00431(6)
C2_101 C 0.72806(6) 0.12679(7) 0.04550(7)
H2_101 H 0.7151 0.1352 0.0579
N9_107 N 0.87232(5) 0.19046(5) 0.06348(5)
N11_107 N 0.85141(5) 0.17011(5) 0.06123(5)
C3_107 C 0.84725(6) 0.15189(6) 0.03908(6)
H3_107 H 0.8582 0.1511 0.0226
C4_107 C 0.89864(7) 0.18733(6) 0.07490(7)
H4_107 H 0.9062 0.1705 0.0820
C5_107 C 0.83133(6) 0.16405(7) 0.08128(6)
H5_107 H 0.8293 0.1732 0.0987
C6_101 C 0.74719(6) 0.10769(7) 0.00752(7)
C8_107 C 0.86991(7) 0.21810(6) 0.05521(7)
H8_107 H 0.8542 0.2261 0.0463
N12_101 N 0.72271(5) 0.11856(6) 0.01815(6)
N13_59 N 0.76677(6) 0.09201(5) 0.10839(5)
N14_75 N 0.76573(5) 0.15967(5) 0.11205(5)
N5_59 N 0.65799(5) 0.10839(5) 0.98323(6)
C1_107 C 0.68064(6) 0.09820(7) 0.99564(7)
H1_107 H 0.6848 0.0790 0.9981
H6_107 H 0.7497 0.1008 0.9891
C7_107 C 0.68355(6) 0.14464(7) 0.99666(7)
H7_107 H 0.6902 0.1630 0.9997
Cu4_37 Cu 0.623307(9) 0.087203(9) 0.970495(9)
Cu1_60 Cu 0.873307(9) 0.529505(9) 0.337203(9)
N1_108 N 0.89154(5) 0.51647(5) 0.27719(5)
N2_108 N 0.87914(5) 0.50452(5) 0.30120(5)
N3_108 N 0.85658(5) 0.56541(5) 0.32193(5)
N4_108 N 0.86409(5) 0.57553(5) 0.29486(5)
N5_60 N 0.89161(5) 0.40799(5) 0.23323(6)
C1_108 C 0.90180(7) 0.43064(6) 0.24564(7)
H1_108 H 0.9210 0.4348 0.2481
N7_102 N 0.87960(6) 0.44704(5) 0.25431(6)
C2_102 C 0.87321(7) 0.47806(6) 0.29550(7)
H2_102 H 0.8648 0.4651 0.3079
N9_108 N 0.80954(5) 0.62232(5) 0.31348(5)
N11_108 N 0.82989(5) 0.60141(5) 0.31123(5)
C3_108 C 0.84811(6) 0.59725(6) 0.28908(6)
H3_108 H 0.8489 0.6082 0.2726
C4_108 C 0.81267(6) 0.64864(7) 0.32490(7)
H4_108 H 0.8295 0.6562 0.3320
C5_108 C 0.83595(7) 0.58133(6) 0.33128(6)
H5_108 H 0.8268 0.5793 0.3487
C6_102 C 0.89231(7) 0.49719(6) 0.25752(7)
H6_108 H 0.8992 0.4997 0.2391
C7_108 C 0.85536(7) 0.43355(6) 0.24666(7)
H7_108 H 0.8370 0.4402 0.2497
C8_108 C 0.78190(6) 0.61991(7) 0.30521(7)
H8_108 H 0.7739 0.6042 0.2963
N12_102 N 0.88144(6) 0.47271(5) 0.26815(6)
Cu4_38 Cu 0.912797(9) 0.373307(9) 0.220495(9)
N13_60 N 0.90799(5) 0.51677(6) 0.35839(5)
N14_76 N 0.84033(5) 0.51573(5) 0.36205(5)
Cu1_61 Cu 0.470495(9) 0.126693(9) 0.162797(9)
N1_109 N 0.48353(5) 0.10846(5) 0.22281(5)
N2_109 N 0.49548(5) 0.12086(5) 0.19880(5)
N3_109 N 0.43459(5) 0.14342(5) 0.17807(5)
N4_109 N 0.42447(5) 0.13591(5) 0.20514(5)
N5_61 N 0.59201(5) 0.10839(5) 0.26677(6)
C1_109 C 0.56936(6) 0.09820(7) 0.25436(7)
H1_109 H 0.5652 0.0790 0.2519
N7_103 N 0.55296(5) 0.12040(6) 0.24569(6)
C2_103 C 0.52194(6) 0.12679(7) 0.20450(7)
H2_103 H 0.5349 0.1352 0.1921
N9_109 N 0.37768(5) 0.19046(5) 0.18652(5)
N11_109 N 0.39859(5) 0.17011(5) 0.18877(5)
C3_109 C 0.40275(6) 0.15189(6) 0.21092(6)
H3_109 H 0.3918 0.1511 0.2274
C4_109 C 0.35136(7) 0.18733(6) 0.17510(7)
H4_109 H 0.3438 0.1705 0.1680
C5_109 C 0.41867(6) 0.16405(7) 0.16872(6)
H5_109 H 0.4207 0.1732 0.1513
C6_103 C 0.50281(6) 0.10769(7) 0.24248(7)
H6_109 H 0.5003 0.1008 0.2609
C7_109 C 0.56645(6) 0.14464(7) 0.25334(7)
H7_109 H 0.5598 0.1630 0.2503
C8_109 C 0.38009(7) 0.21810(6) 0.19479(7)
H8_109 H 0.3958 0.2261 0.2037
N12_103 N 0.52729(5) 0.11856(6) 0.23185(6)
Cu4_39 Cu 0.626693(9) 0.087203(9) 0.279505(9)
N13_61 N 0.48323(6) 0.09201(5) 0.14161(5)
N14_77 N 0.48427(5) 0.15967(5) 0.13795(5)
Cu1_62 Cu 0.873307(9) 0.220495(9) 0.412797(9)
N1_110 N 0.89154(5) 0.23353(5) 0.47281(5)
N2_110 N 0.87914(5) 0.24548(5) 0.44880(5)
N3_110 N 0.85658(5) 0.18459(5) 0.42807(5)
N4_110 N 0.86409(5) 0.17447(5) 0.45514(5)
N5_62 N 0.89161(5) 0.34201(5) 0.51677(6)
C1_110 C 0.90180(7) 0.31936(6) 0.50436(7)
H1_110 H 0.9210 0.3152 0.5019
N7_104 N 0.87960(6) 0.30296(5) 0.49569(6)
C2_104 C 0.87321(7) 0.27194(6) 0.45450(7)
H2_104 H 0.8648 0.2849 0.4421
N9_110 N 0.80954(5) 0.12768(5) 0.43652(5)
N11_110 N 0.82989(5) 0.14859(5) 0.43877(5)
C3_110 C 0.84811(6) 0.15275(6) 0.46092(6)
H3_110 H 0.8489 0.1418 0.4774
C4_110 C 0.81267(6) 0.10136(7) 0.42510(7)
H4_110 H 0.8295 0.0938 0.4180
C5_110 C 0.83595(7) 0.16867(6) 0.41872(6)
H5_110 H 0.8268 0.1707 0.4013
C6_104 C 0.89231(7) 0.25281(6) 0.49248(7)
H6_110 H 0.8992 0.2503 0.5109
C7_110 C 0.85536(7) 0.31645(6) 0.50334(7)
H7_110 H 0.8370 0.3098 0.5003
C8_110 C 0.78190(6) 0.13009(7) 0.44479(7)
H8_110 H 0.7739 0.1458 0.4537
N12_104 N 0.88144(6) 0.27729(5) 0.48185(6)
Cu4_40 Cu 0.912797(9) 0.376693(9) 0.529505(9)
N13_62 N 0.90799(5) 0.23323(6) 0.39161(5)
N14_78 N 0.84033(5) 0.23427(5) 0.38795(5)
Cu1_63 Cu 0.779505(9) 0.623307(9) 0.662797(9)
N1_111 N 0.76647(5) 0.64154(5) 0.72281(5)
N2_111 N 0.75452(5) 0.62914(5) 0.69880(5)
N3_111 N 0.81541(5) 0.60658(5) 0.67807(5)
N4_111 N 0.82553(5) 0.61409(5) 0.70514(5)
N5_63 N 0.65799(5) 0.64161(5) 0.76677(6)
C1_111 C 0.68064(6) 0.65180(7) 0.75436(7)
H1_111 H 0.6848 0.6710 0.7519
N7_105 N 0.69704(5) 0.62960(6) 0.74569(6)
C2_105 C 0.72806(6) 0.62321(7) 0.70450(7)
H2_105 H 0.7151 0.6148 0.6921
N9_111 N 0.87232(5) 0.55954(5) 0.68652(5)
N11_111 N 0.85141(5) 0.57989(5) 0.68877(5)
C3_111 C 0.84725(6) 0.59811(6) 0.71092(6)
H3_111 H 0.8582 0.5989 0.7274
C4_111 C 0.89864(7) 0.56267(6) 0.67510(7)
H4_111 H 0.9062 0.5795 0.6680
C5_111 C 0.83133(6) 0.58595(7) 0.66872(6)
H5_111 H 0.8293 0.5768 0.6513
C6_105 C 0.74719(6) 0.64231(7) 0.74248(7)
H6_111 H 0.7497 0.6492 0.7609
C7_111 C 0.68355(6) 0.60536(7) 0.75334(7)
H7_111 H 0.6902 0.5870 0.7503
C8_111 C 0.86991(7) 0.53190(6) 0.69479(7)
H8_111 H 0.8542 0.5239 0.7037
N12_105 N 0.72271(5) 0.63144(6) 0.73185(6)
Cu4_41 Cu 0.623307(9) 0.662797(9) 0.779505(9)
N13_63 N 0.76677(6) 0.65799(5) 0.64161(5)
N14_79 N 0.76573(5) 0.59033(5) 0.63795(5)
N5_64 N 0.35839(5) 0.40799(5) 0.01677(6)
C1_112 C 0.34820(7) 0.43064(6) 0.00436(7)
H1_112 H 0.3290 0.4348 0.0019
H6_112 H 0.3508 0.4997 0.0109
C7_112 C 0.39464(7) 0.43355(6) 0.00334(7)
H7_112 H 0.4130 0.4402 0.0003
Cu4_42 Cu 0.337203(9) 0.373307(9) 0.029505(9)
Cu1_64 Cu 0.376693(9) 0.529505(9) 0.912797(9)
N1_112 N 0.35846(5) 0.51647(5) 0.97281(5)
N2_112 N 0.37086(5) 0.50452(5) 0.94880(5)
N3_112 N 0.39342(5) 0.56541(5) 0.92807(5)
N4_112 N 0.38591(5) 0.57553(5) 0.95514(5)
N7_106 N 0.37040(6) 0.44704(5) 0.99569(6)
C2_106 C 0.37679(7) 0.47806(6) 0.95450(7)
H2_106 H 0.3852 0.4651 0.9421
N9_112 N 0.44046(5) 0.62232(5) 0.93652(5)
N11_112 N 0.42011(5) 0.60141(5) 0.93877(5)
C3_112 C 0.40189(6) 0.59725(6) 0.96092(6)
H3_112 H 0.4011 0.6082 0.9774
C4_112 C 0.43733(6) 0.64864(7) 0.92510(7)
H4_112 H 0.4205 0.6562 0.9180
C5_112 C 0.41405(7) 0.58133(6) 0.91872(6)
H5_112 H 0.4232 0.5793 0.9013
C6_106 C 0.35769(7) 0.49719(6) 0.99248(7)
C8_112 C 0.46810(6) 0.61991(7) 0.94479(7)
H8_112 H 0.4761 0.6042 0.9537
N12_106 N 0.36856(6) 0.47271(5) 0.98185(6)
N13_64 N 0.34201(5) 0.51677(6) 0.89161(5)
N14_80 N 0.40967(5) 0.51573(5) 0.88795(5)
N1_113 N 0.52719(5) 0.48353(5) 0.64154(5)
N2_113 N 0.55120(5) 0.49548(5) 0.62914(5)
N3_113 N 0.57193(5) 0.43459(5) 0.60658(5)
N4_113 N 0.54486(5) 0.42447(5) 0.61409(5)
N5_65 N 0.48323(6) 0.59201(5) 0.64161(5)
C1_113 C 0.49564(7) 0.56936(6) 0.65180(7)
H1_113 H 0.4981 0.5652 0.6710
N7_107 N 0.50431(6) 0.55296(5) 0.62960(6)
C2_107 C 0.54550(7) 0.52194(6) 0.62321(7)
H2_107 H 0.5579 0.5349 0.6148
N9_113 N 0.56348(5) 0.37768(5) 0.55954(5)
N11_113 N 0.56123(5) 0.39859(5) 0.57989(5)
C3_113 C 0.53908(6) 0.40275(6) 0.59811(6)
H3_113 H 0.5226 0.3918 0.5989
C4_113 C 0.57490(7) 0.35136(7) 0.56267(6)
H4_113 H 0.5820 0.3438 0.5795
C5_113 C 0.58128(6) 0.41867(6) 0.58595(7)
H5_113 H 0.5987 0.4207 0.5768
C6_107 C 0.50752(7) 0.50281(6) 0.64231(7)
H6_113 H 0.4891 0.5003 0.6492
C7_113 C 0.49666(7) 0.56645(6) 0.60536(7)
H7_113 H 0.4997 0.5598 0.5870
C8_113 C 0.55521(7) 0.38009(7) 0.53190(6)
H8_113 H 0.5463 0.3958 0.5239
N12_107 N 0.51815(6) 0.52729(5) 0.63144(6)
Cu4_43 Cu 0.470495(9) 0.626693(9) 0.662797(9)
Cu1_65 Cu 0.029505(9) 0.412797(9) 0.376693(9)
N1_114 N 0.01647(5) 0.47281(5) 0.35846(5)
N2_114 N 0.00452(5) 0.44880(5) 0.37086(5)
N3_114 N 0.06541(5) 0.42807(5) 0.39342(5)
N4_114 N 0.07553(5) 0.45514(5) 0.38591(5)
N9_114 N 0.12232(5) 0.43652(5) 0.44046(5)
N11_114 N 0.10141(5) 0.43877(5) 0.42011(5)
C3_114 C 0.09725(6) 0.46092(6) 0.40189(6)
H3_114 H 0.1082 0.4774 0.4011
C4_114 C 0.14864(7) 0.42510(7) 0.43733(6)
H4_114 H 0.1562 0.4180 0.4205
C5_114 C 0.08133(6) 0.41872(6) 0.41405(7)
H5_114 H 0.0793 0.4013 0.4232
C8_114 C 0.11991(7) 0.44479(7) 0.46810(6)
H8_114 H 0.1042 0.4537 0.4761
N13_65 N 0.01677(6) 0.39161(5) 0.34201(5)
N14_81 N 0.01573(5) 0.38795(5) 0.40967(5)
N6_41 N 0.90967(5) 0.51573(5) 0.38795(5)
C1_114 C 0.93064(6) 0.50436(7) 0.34820(7)
H1_114 H 0.9348 0.5019 0.3290
N7_108 N 0.94704(5) 0.49569(6) 0.37040(6)
C2_108 C 0.97806(6) 0.45450(7) 0.37679(7)
H2_108 H 0.9651 0.4421 0.3852
C6_108 C 0.99719(6) 0.49248(7) 0.35769(7)
H6_114 H 0.9997 0.5109 0.3508
C7_114 C 0.93355(6) 0.50334(7) 0.39464(7)
H7_114 H 0.9402 0.5003 0.4130
N12_108 N 0.97271(5) 0.48185(6) 0.36856(6)
Cu3_23 Cu 0.876693(9) 0.529505(9) 0.412797(9)
Cu1_66 Cu 0.529505(9) 0.837203(9) 0.373307(9)
N1_115 N 0.51647(5) 0.77719(5) 0.39154(5)
N2_115 N 0.50452(5) 0.80120(5) 0.37914(5)
N3_115 N 0.56541(5) 0.82193(5) 0.35658(5)
N4_115 N 0.57553(5) 0.79486(5) 0.36409(5)
N5_66 N 0.40799(5) 0.73323(6) 0.39161(5)
N6_42 N 0.40967(5) 0.73427(5) 0.36205(5)
C1_115 C 0.43064(6) 0.74564(7) 0.40180(7)
H1_115 H 0.4348 0.7481 0.4210
N7_109 N 0.44704(5) 0.75431(6) 0.37960(6)
C2_109 C 0.47806(6) 0.79550(7) 0.37321(7)
H2_109 H 0.4651 0.8079 0.3648
N9_115 N 0.62232(5) 0.81348(5) 0.30954(5)
N11_115 N 0.60141(5) 0.81123(5) 0.32989(5)
C3_115 C 0.59725(6) 0.78908(6) 0.34811(6)
H3_115 H 0.6082 0.7726 0.3489
C4_115 C 0.64864(7) 0.82490(7) 0.31267(6)
H4_115 H 0.6562 0.8320 0.3295
C5_115 C 0.58133(6) 0.83128(6) 0.33595(7)
H5_115 H 0.5793 0.8487 0.3268
C6_109 C 0.49719(6) 0.75752(7) 0.39231(7)
H6_115 H 0.4997 0.7391 0.3992
C7_115 C 0.43355(6) 0.74666(7) 0.35536(7)
H7_115 H 0.4402 0.7497 0.3370
C8_115 C 0.61991(7) 0.80521(7) 0.28190(6)
H8_115 H 0.6042 0.7963 0.2739
N12_109 N 0.47271(5) 0.76815(6) 0.38144(6)
Cu3_24 Cu 0.376693(9) 0.720495(9) 0.337203(9)
Cu4_44 Cu 0.373307(9) 0.720495(9) 0.412797(9)
N13_66 N 0.51677(6) 0.85839(5) 0.40799(5)
N14_82 N 0.51573(5) 0.86205(5) 0.34033(5)
Cu1_67 Cu 0.220495(9) 0.837203(9) 0.376693(9)
N1_116 N 0.23353(5) 0.77719(5) 0.35846(5)
N2_116 N 0.24548(5) 0.80120(5) 0.37086(5)
N3_116 N 0.18459(5) 0.82193(5) 0.39342(5)
N4_116 N 0.17447(5) 0.79486(5) 0.38591(5)
N5_67 N 0.34201(5) 0.73323(6) 0.35839(5)
N6_43 N 0.34033(5) 0.73427(5) 0.38795(5)
C1_116 C 0.31936(6) 0.74564(7) 0.34820(7)
H1_116 H 0.3152 0.7481 0.3290
N7_110 N 0.30296(5) 0.75431(6) 0.37040(6)
C2_110 C 0.27194(6) 0.79550(7) 0.37679(7)
H2_110 H 0.2849 0.8079 0.3852
N9_116 N 0.12768(5) 0.81348(5) 0.44046(5)
N11_116 N 0.14859(5) 0.81123(5) 0.42011(5)
C3_116 C 0.15275(6) 0.78908(6) 0.40189(6)
H3_116 H 0.1418 0.7726 0.4011
C4_116 C 0.10136(7) 0.82490(7) 0.43733(6)
H4_116 H 0.0938 0.8320 0.4205
C5_116 C 0.16867(6) 0.83128(6) 0.41405(7)
H5_116 H 0.1707 0.8487 0.4232
C6_110 C 0.25281(6) 0.75752(7) 0.35769(7)
H6_116 H 0.2503 0.7391 0.3508
C7_116 C 0.31645(6) 0.74666(7) 0.39464(7)
H7_116 H 0.3098 0.7497 0.4130
C8_116 C 0.13009(7) 0.80521(7) 0.46810(6)
H8_116 H 0.1458 0.7963 0.4761
N12_110 N 0.27729(5) 0.76815(6) 0.36856(6)
N13_67 N 0.23323(6) 0.85839(5) 0.34201(5)
N14_83 N 0.23427(5) 0.86205(5) 0.40967(5)
N1_117 N 0.73353(5) 0.47281(5) 0.39154(5)
N2_117 N 0.74548(5) 0.44880(5) 0.37914(5)
N3_117 N 0.68459(5) 0.42807(5) 0.35658(5)
N4_117 N 0.67447(5) 0.45514(5) 0.36409(5)
N5_68 N 0.84201(5) 0.51677(6) 0.39161(5)
C1_117 C 0.81936(6) 0.50436(7) 0.40180(7)
H1_117 H 0.8152 0.5019 0.4210
N7_111 N 0.80296(5) 0.49569(6) 0.37960(6)
C2_111 C 0.77194(6) 0.45450(7) 0.37321(7)
H2_111 H 0.7849 0.4421 0.3648
N9_117 N 0.62768(5) 0.43652(5) 0.30954(5)
N11_117 N 0.64859(5) 0.43877(5) 0.32989(5)
C3_117 C 0.65275(6) 0.46092(6) 0.34811(6)
H3_117 H 0.6418 0.4774 0.3489
C4_117 C 0.60136(7) 0.42510(7) 0.31267(6)
H4_117 H 0.5938 0.4180 0.3295
C5_117 C 0.66867(6) 0.41872(6) 0.33595(7)
H5_117 H 0.6707 0.4013 0.3268
C6_111 C 0.75281(6) 0.49248(7) 0.39231(7)
H6_117 H 0.7503 0.5109 0.3992
C7_117 C 0.81645(6) 0.50334(7) 0.35536(7)
H7_117 H 0.8098 0.5003 0.3370
C8_117 C 0.63009(7) 0.44479(7) 0.28190(6)
H8_117 H 0.6458 0.4537 0.2739
N12_111 N 0.77729(5) 0.48185(6) 0.38144(6)
Cu1_68 Cu 0.587203(9) 0.779505(9) 0.626693(9)
N1_118 N 0.52719(5) 0.76647(5) 0.60846(5)
N2_118 N 0.55120(5) 0.75452(5) 0.62086(5)
N3_118 N 0.57193(5) 0.81541(5) 0.64342(5)
N4_118 N 0.54486(5) 0.82553(5) 0.63591(5)
N6_44 N 0.48427(5) 0.65967(5) 0.63795(5)
C1_118 C 0.49564(7) 0.68064(6) 0.59820(7)
H1_118 H 0.4981 0.6848 0.5790
N7_112 N 0.50431(6) 0.69704(5) 0.62040(6)
C2_112 C 0.54550(7) 0.72806(6) 0.62679(7)
H2_112 H 0.5579 0.7151 0.6352
N9_118 N 0.56348(5) 0.87232(5) 0.69046(5)
N11_118 N 0.56123(5) 0.85141(5) 0.67011(5)
C3_118 C 0.53908(6) 0.84725(6) 0.65189(6)
H3_118 H 0.5226 0.8582 0.6511
C4_118 C 0.57490(7) 0.89864(7) 0.68733(6)
H4_118 H 0.5820 0.9062 0.6705
C5_118 C 0.58128(6) 0.83133(6) 0.66405(7)
H5_118 H 0.5987 0.8293 0.6732
C6_112 C 0.50752(7) 0.74719(6) 0.60769(7)
H6_118 H 0.4891 0.7497 0.6008
C7_118 C 0.49666(7) 0.68355(6) 0.64464(7)
H7_118 H 0.4997 0.6902 0.6630
C8_118 C 0.55521(7) 0.86991(7) 0.71810(6)
H8_118 H 0.5463 0.8542 0.7261
N12_112 N 0.51815(6) 0.72271(5) 0.61856(6)
N13_68 N 0.60839(5) 0.76677(6) 0.59201(5)
N14_84 N 0.61205(5) 0.76573(5) 0.65967(5)
Cu1_69 Cu 0.162797(9) 0.279505(9) 0.623307(9)
N1_119 N 0.22281(5) 0.26647(5) 0.64154(5)
N2_119 N 0.19880(5) 0.25452(5) 0.62914(5)
N3_119 N 0.17807(5) 0.31541(5) 0.60658(5)
N4_119 N 0.20514(5) 0.32553(5) 0.61409(5)
N5_69 N 0.26677(6) 0.15799(5) 0.64161(5)
N6_45 N 0.26573(5) 0.15967(5) 0.61205(5)
C1_119 C 0.25436(7) 0.18064(6) 0.65180(7)
H1_119 H 0.2519 0.1848 0.6710
N7_113 N 0.24569(6) 0.19704(5) 0.62960(6)
C2_113 C 0.20450(7) 0.22806(6) 0.62321(7)
H2_113 H 0.1921 0.2151 0.6148
N9_119 N 0.18652(5) 0.37232(5) 0.55954(5)
N11_119 N 0.18877(5) 0.35141(5) 0.57989(5)
C3_119 C 0.21092(6) 0.34725(6) 0.59811(6)
H3_119 H 0.2274 0.3582 0.5989
C4_119 C 0.17510(7) 0.39864(7) 0.56267(6)
H4_119 H 0.1680 0.4062 0.5795
C5_119 C 0.16872(6) 0.33133(6) 0.58595(7)
H5_119 H 0.1513 0.3293 0.5768
C6_113 C 0.24248(7) 0.24719(6) 0.64231(7)
H6_119 H 0.2609 0.2497 0.6492
C7_119 C 0.25334(7) 0.18355(6) 0.60536(7)
H7_119 H 0.2503 0.1902 0.5870
C8_119 C 0.19479(7) 0.36991(7) 0.53190(6)
H8_119 H 0.2037 0.3542 0.5239
N12_113 N 0.23185(6) 0.22271(5) 0.63144(6)
Cu3_25 Cu 0.279505(9) 0.126693(9) 0.587203(9)
Cu4_45 Cu 0.279505(9) 0.123307(9) 0.662797(9)
N13_69 N 0.14161(5) 0.26677(6) 0.65799(5)
N14_85 N 0.13795(5) 0.26573(5) 0.59033(5)
N5_70 N 0.26677(6) 0.09201(5) 0.60839(5)
N6_46 N 0.26573(5) 0.09033(5) 0.63795(5)
C1_120 C 0.25436(7) 0.06936(6) 0.59820(7)
H1_120 H 0.2519 0.0652 0.5790
N7_114 N 0.24569(6) 0.05296(5) 0.62040(6)
C2_114 C 0.20450(7) 0.02194(6) 0.62679(7)
H2_114 H 0.1921 0.0349 0.6352
C6_114 C 0.24248(7) 0.00281(6) 0.60769(7)
H6_120 H 0.2609 0.0003 0.6008
C7_120 C 0.25334(7) 0.06645(6) 0.64464(7)
H7_120 H 0.2503 0.0598 0.6630
N12_114 N 0.23185(6) 0.02729(5) 0.61856(6)
Cu1_70 Cu 0.162797(9) 0.970495(9) 0.626693(9)
N1_120 N 0.22281(5) 0.98353(5) 0.60846(5)
N2_120 N 0.19880(5) 0.99548(5) 0.62086(5)
N3_120 N 0.17807(5) 0.93459(5) 0.64342(5)
N4_120 N 0.20514(5) 0.92447(5) 0.63591(5)
N9_120 N 0.18652(5) 0.87768(5) 0.69046(5)
N11_120 N 0.18877(5) 0.89859(5) 0.67011(5)
C3_120 C 0.21092(6) 0.90275(6) 0.65189(6)
H3_120 H 0.2274 0.8918 0.6511
C4_120 C 0.17510(7) 0.85136(7) 0.68733(6)
H4_120 H 0.1680 0.8438 0.6705
C5_120 C 0.16872(6) 0.91867(6) 0.66405(7)
H5_120 H 0.1513 0.9207 0.6732
C8_120 C 0.19479(7) 0.88009(7) 0.71810(6)
H8_120 H 0.2037 0.8958 0.7261
N13_70 N 0.14161(5) 0.98323(6) 0.59201(5)
N14_86 N 0.13795(5) 0.98427(5) 0.65967(5)
N1_121 N 0.64154(5) 0.02719(5) 0.98353(5)
N2_121 N 0.62914(5) 0.05120(5) 0.99548(5)
N3_121 N 0.60658(5) 0.07193(5) 0.93459(5)
N4_121 N 0.61409(5) 0.04486(5) 0.92447(5)
N9_121 N 0.55954(5) 0.06348(5) 0.87768(5)
N11_121 N 0.57989(5) 0.06123(5) 0.89859(5)
C3_121 C 0.59811(6) 0.03908(6) 0.90275(6)
H3_121 H 0.5989 0.0226 0.8918
C4_121 C 0.56267(6) 0.07490(7) 0.85136(7)
H4_121 H 0.5795 0.0820 0.8438
C5_121 C 0.58595(7) 0.08128(6) 0.91867(6)
H5_121 H 0.5768 0.0987 0.9207
C8_121 C 0.53190(6) 0.05521(7) 0.88009(7)
H8_121 H 0.5239 0.0463 0.8958
N14_87 N 0.59033(5) 0.11205(5) 0.98427(5)
N5_71 N 0.64161(5) 0.98323(6) 0.09201(5)
N6_47 N 0.61205(5) 0.98427(5) 0.09033(5)
C1_121 C 0.65180(7) 0.99564(7) 0.06936(6)
H1_121 H 0.6710 0.9981 0.0652
H6_121 H 0.6492 0.9891 0.0003
C7_121 C 0.60536(7) 0.99666(7) 0.06645(6)
H7_121 H 0.5870 0.9997 0.0598
Cu3_26 Cu 0.587203(9) 0.970495(9) 0.123307(9)
Cu4_46 Cu 0.662797(9) 0.970495(9) 0.126693(9)
Cu1_71 Cu 0.412797(9) 0.873307(9) 0.220495(9)
N1_122 N 0.47281(5) 0.89154(5) 0.23353(5)
N2_122 N 0.44880(5) 0.87914(5) 0.24548(5)
N3_122 N 0.42807(5) 0.85658(5) 0.18459(5)
N4_122 N 0.45514(5) 0.86409(5) 0.17447(5)
N5_72 N 0.51677(6) 0.89161(5) 0.34201(5)
C1_122 C 0.50436(7) 0.90180(7) 0.31936(6)
H1_122 H 0.5019 0.9210 0.3152
N7_115 N 0.49569(6) 0.87960(6) 0.30296(5)
C2_115 C 0.45450(7) 0.87321(7) 0.27194(6)
H2_115 H 0.4421 0.8648 0.2849
N9_122 N 0.43652(5) 0.80954(5) 0.12768(5)
N11_122 N 0.43877(5) 0.82989(5) 0.14859(5)
C3_122 C 0.46092(6) 0.84811(6) 0.15275(6)
H3_122 H 0.4774 0.8489 0.1418
C4_122 C 0.42510(7) 0.81267(6) 0.10136(7)
H4_122 H 0.4180 0.8295 0.0938
C5_122 C 0.41872(6) 0.83595(7) 0.16867(6)
H5_122 H 0.4013 0.8268 0.1707
C6_115 C 0.49248(7) 0.89231(7) 0.25281(6)
H6_122 H 0.5109 0.8992 0.2503
C7_122 C 0.50334(7) 0.85536(7) 0.31645(6)
H7_122 H 0.5003 0.8370 0.3098
C8_122 C 0.44479(7) 0.78190(6) 0.13009(7)
H8_122 H 0.4537 0.7739 0.1458
N12_115 N 0.48185(6) 0.88144(6) 0.27729(5)
Cu4_47 Cu 0.529505(9) 0.912797(9) 0.376693(9)
N13_71 N 0.39161(5) 0.90799(5) 0.23323(6)
N14_88 N 0.38795(5) 0.84033(5) 0.23427(5)
N1_123 N 0.60846(5) 0.72281(5) 0.48353(5)
N2_123 N 0.62086(5) 0.69880(5) 0.49548(5)
N3_123 N 0.64342(5) 0.67807(5) 0.43459(5)
N4_123 N 0.63591(5) 0.70514(5) 0.42447(5)
N6_48 N 0.63795(5) 0.76573(5) 0.59033(5)
C1_123 C 0.59820(7) 0.75436(7) 0.56936(6)
H1_123 H 0.5790 0.7519 0.5652
N7_116 N 0.62040(6) 0.74569(6) 0.55296(5)
C2_116 C 0.62679(7) 0.70450(7) 0.52194(6)
H2_116 H 0.6352 0.6921 0.5349
N9_123 N 0.69046(5) 0.68652(5) 0.37768(5)
N11_123 N 0.67011(5) 0.68877(5) 0.39859(5)
C3_123 C 0.65189(6) 0.71092(6) 0.40275(6)
H3_123 H 0.6511 0.7274 0.3918
C4_123 C 0.68733(6) 0.67510(7) 0.35136(7)
H4_123 H 0.6705 0.6680 0.3438
C5_123 C 0.66405(7) 0.66872(6) 0.41867(6)
H5_123 H 0.6732 0.6513 0.4207
C6_116 C 0.60769(7) 0.74248(7) 0.50281(6)
H6_123 H 0.6008 0.7609 0.5003
C7_123 C 0.64464(7) 0.75334(7) 0.56645(6)
H7_123 H 0.6630 0.7503 0.5598
C8_123 C 0.71810(6) 0.69479(7) 0.38009(7)
H8_123 H 0.7261 0.7037 0.3958
N12_116 N 0.61856(6) 0.73185(6) 0.52729(5)
Cu3_27 Cu 0.662797(9) 0.779505(9) 0.623307(9)
N14_89 N 0.65967(5) 0.63795(5) 0.48427(5)
Cu1_72 Cu 0.837203(9) 0.876693(9) 0.720495(9)
N1_124 N 0.77719(5) 0.85846(5) 0.73353(5)
N2_124 N 0.80120(5) 0.87086(5) 0.74548(5)
N3_124 N 0.82193(5) 0.89342(5) 0.68459(5)
N4_124 N 0.79486(5) 0.88591(5) 0.67447(5)
N5_73 N 0.73323(6) 0.85839(5) 0.84201(5)
N6_49 N 0.73427(5) 0.88795(5) 0.84033(5)
C1_124 C 0.74564(7) 0.84820(7) 0.81936(6)
H1_124 H 0.7481 0.8290 0.8152
N7_117 N 0.75431(6) 0.87040(6) 0.80296(5)
C2_117 C 0.79550(7) 0.87679(7) 0.77194(6)
H2_117 H 0.8079 0.8852 0.7849
N9_124 N 0.81348(5) 0.94046(5) 0.62768(5)
N11_124 N 0.81123(5) 0.92011(5) 0.64859(5)
C3_124 C 0.78908(6) 0.90189(6) 0.65275(6)
H3_124 H 0.7726 0.9011 0.6418
C4_124 C 0.82490(7) 0.93733(6) 0.60136(7)
H4_124 H 0.8320 0.9205 0.5938
C5_124 C 0.83128(6) 0.91405(7) 0.66867(6)
H5_124 H 0.8487 0.9232 0.6707
C6_117 C 0.75752(7) 0.85769(7) 0.75281(6)
H6_124 H 0.7391 0.8508 0.7503
C7_124 C 0.74666(7) 0.89464(7) 0.81645(6)
H7_124 H 0.7497 0.9130 0.8098
C8_124 C 0.80521(7) 0.96810(6) 0.63009(7)
H8_124 H 0.7963 0.9761 0.6458
N12_117 N 0.76815(6) 0.86856(6) 0.77729(5)
Cu3_28 Cu 0.720495(9) 0.912797(9) 0.873307(9)
Cu4_48 Cu 0.720495(9) 0.837203(9) 0.876693(9)
N13_72 N 0.85839(5) 0.84201(5) 0.73323(6)
N14_90 N 0.86205(5) 0.90967(5) 0.73427(5)
N1_125 N 0.64154(5) 0.72281(5) 0.76647(5)
N2_125 N 0.62914(5) 0.69880(5) 0.75452(5)
N3_125 N 0.60658(5) 0.67807(5) 0.81541(5)
N4_125 N 0.61409(5) 0.70514(5) 0.82553(5)
N5_74 N 0.64161(5) 0.76677(6) 0.65799(5)
C1_125 C 0.65180(7) 0.75436(7) 0.68064(6)
H1_125 H 0.6710 0.7519 0.6848
N7_118 N 0.62960(6) 0.74569(6) 0.69704(5)
C2_118 C 0.62321(7) 0.70450(7) 0.72806(6)
H2_118 H 0.6148 0.6921 0.7151
N9_125 N 0.55954(5) 0.68652(5) 0.87232(5)
N11_125 N 0.57989(5) 0.68877(5) 0.85141(5)
C3_125 C 0.59811(6) 0.71092(6) 0.84725(6)
H3_125 H 0.5989 0.7274 0.8582
C4_125 C 0.56267(6) 0.67510(7) 0.89864(7)
H4_125 H 0.5795 0.6680 0.9062
C5_125 C 0.58595(7) 0.66872(6) 0.83133(6)
H5_125 H 0.5768 0.6513 0.8293
C6_118 C 0.64231(7) 0.74248(7) 0.74719(6)
H6_125 H 0.6492 0.7609 0.7497
C7_125 C 0.60536(7) 0.75334(7) 0.68355(6)
H7_125 H 0.5870 0.7503 0.6902
C8_125 C 0.53190(6) 0.69479(7) 0.86991(7)
H8_125 H 0.5239 0.7037 0.8542
N12_118 N 0.63144(6) 0.73185(6) 0.72271(5)
N14_91 N 0.59033(5) 0.63795(5) 0.76573(5)
Cu1_73 Cu 0.837203(9) 0.873307(9) 0.029505(9)
N1_126 N 0.77719(5) 0.89154(5) 0.01647(5)
N2_126 N 0.80120(5) 0.87914(5) 0.00452(5)
N3_126 N 0.82193(5) 0.85658(5) 0.06541(5)
N4_126 N 0.79486(5) 0.86409(5) 0.07553(5)
N9_126 N 0.81348(5) 0.80954(5) 0.12232(5)
N11_126 N 0.81123(5) 0.82989(5) 0.10141(5)
C3_126 C 0.78908(6) 0.84811(6) 0.09725(6)
H3_126 H 0.7726 0.8489 0.1082
C4_126 C 0.82490(7) 0.81267(6) 0.14864(7)
H4_126 H 0.8320 0.8295 0.1562
C5_126 C 0.83128(6) 0.83595(7) 0.08133(6)
H5_126 H 0.8487 0.8268 0.0793
C8_126 C 0.80521(7) 0.78190(6) 0.11991(7)
H8_126 H 0.7963 0.7739 0.1042
N13_73 N 0.85839(5) 0.90799(5) 0.01677(6)
N14_92 N 0.86205(5) 0.84033(5) 0.01573(5)
N5_75 N 0.73323(6) 0.89161(5) 0.90799(5)
N6_50 N 0.73427(5) 0.86205(5) 0.90967(5)
C1_126 C 0.74564(7) 0.90180(7) 0.93064(6)
H1_126 H 0.7481 0.9210 0.9348
N7_119 N 0.75431(6) 0.87960(6) 0.94704(5)
C2_119 C 0.79550(7) 0.87321(7) 0.97806(6)
H2_119 H 0.8079 0.8648 0.9651
C6_119 C 0.75752(7) 0.89231(7) 0.99719(6)
H6_126 H 0.7391 0.8992 0.9997
C7_126 C 0.74666(7) 0.85536(7) 0.93355(6)
H7_126 H 0.7497 0.8370 0.9402
N12_119 N 0.76815(6) 0.88144(6) 0.97271(5)
N1_127 N 0.60846(5) 0.02719(5) 0.26647(5)
N2_127 N 0.62086(5) 0.05120(5) 0.25452(5)
N3_127 N 0.64342(5) 0.07193(5) 0.31541(5)
N4_127 N 0.63591(5) 0.04486(5) 0.32553(5)
N7_120 N 0.62040(6) 0.00431(6) 0.19704(5)
C2_120 C 0.62679(7) 0.04550(7) 0.22806(6)
H2_120 H 0.6352 0.0579 0.2151
N9_127 N 0.69046(5) 0.06348(5) 0.37232(5)
N11_127 N 0.67011(5) 0.06123(5) 0.35141(5)
C3_127 C 0.65189(6) 0.03908(6) 0.34725(6)
H3_127 H 0.6511 0.0226 0.3582
C4_127 C 0.68733(6) 0.07490(7) 0.39864(7)
H4_127 H 0.6705 0.0820 0.4062
C5_127 C 0.66405(7) 0.08128(6) 0.33133(6)
H5_127 H 0.6732 0.0987 0.3293
C6_120 C 0.60769(7) 0.00752(7) 0.24719(6)
C8_127 C 0.71810(6) 0.05521(7) 0.36991(7)
H8_127 H 0.7261 0.0463 0.3542
N12_120 N 0.61856(6) 0.01815(6) 0.22271(5)
N14_93 N 0.65967(5) 0.11205(5) 0.26573(5)
N5_76 N 0.60839(5) 0.98323(6) 0.15799(5)
N6_51 N 0.63795(5) 0.98427(5) 0.15967(5)
C1_127 C 0.59820(7) 0.99564(7) 0.18064(6)
H1_127 H 0.5790 0.9981 0.1848
H6_127 H 0.6008 0.9891 0.2497
C7_127 C 0.64464(7) 0.99666(7) 0.18355(6)
H7_127 H 0.6630 0.9997 0.1902
Cu1_74 Cu 0.412797(9) 0.876693(9) 0.529505(9)
N1_128 N 0.47281(5) 0.85846(5) 0.51647(5)
N2_128 N 0.44880(5) 0.87086(5) 0.50452(5)
N3_128 N 0.42807(5) 0.89342(5) 0.56541(5)
N4_128 N 0.45514(5) 0.88591(5) 0.57553(5)
N6_52 N 0.51573(5) 0.88795(5) 0.40967(5)
C1_128 C 0.50436(7) 0.84820(7) 0.43064(6)
H1_128 H 0.5019 0.8290 0.4348
N7_121 N 0.49569(6) 0.87040(6) 0.44704(5)
C2_121 C 0.45450(7) 0.87679(7) 0.47806(6)
H2_121 H 0.4421 0.8852 0.4651
N9_128 N 0.43652(5) 0.94046(5) 0.62232(5)
N11_128 N 0.43877(5) 0.92011(5) 0.60141(5)
C3_128 C 0.46092(6) 0.90189(6) 0.59725(6)
H3_128 H 0.4774 0.9011 0.6082
C4_128 C 0.42510(7) 0.93733(6) 0.64864(7)
H4_128 H 0.4180 0.9205 0.6562
C5_128 C 0.41872(6) 0.91405(7) 0.58133(6)
H5_128 H 0.4013 0.9232 0.5793
C6_121 C 0.49248(7) 0.85769(7) 0.49719(6)
H6_128 H 0.5109 0.8508 0.4997
C7_128 C 0.50334(7) 0.89464(7) 0.43355(6)
H7_128 H 0.5003 0.9130 0.4402
C8_128 C 0.44479(7) 0.96810(6) 0.61991(7)
H8_128 H 0.4537 0.9761 0.6042
N12_121 N 0.48185(6) 0.86856(6) 0.47271(5)
N13_74 N 0.39161(5) 0.84201(5) 0.51677(6)
N14_94 N 0.38795(5) 0.90967(5) 0.51573(5)
Cu1_75 Cu 0.470495(9) 0.123307(9) 0.087203(9)
N1_129 N 0.48353(5) 0.14154(5) 0.02719(5)
N2_129 N 0.49548(5) 0.12914(5) 0.05120(5)
N3_129 N 0.43459(5) 0.10658(5) 0.07193(5)
N4_129 N 0.42447(5) 0.11409(5) 0.04486(5)
N7_122 N 0.55296(5) 0.12960(6) 0.00431(6)
C2_122 C 0.52194(6) 0.12321(7) 0.04550(7)
H2_122 H 0.5349 0.1148 0.0579
N9_129 N 0.37768(5) 0.05954(5) 0.06348(5)
N11_129 N 0.39859(5) 0.07989(5) 0.06123(5)
C3_129 C 0.40275(6) 0.09811(6) 0.03908(6)
H3_129 H 0.3918 0.0989 0.0226
C4_129 C 0.35136(7) 0.06267(6) 0.07490(7)
H4_129 H 0.3438 0.0795 0.0820
C5_129 C 0.41867(6) 0.08595(7) 0.08128(6)
H5_129 H 0.4207 0.0768 0.0987
C6_122 C 0.50281(6) 0.14231(7) 0.00752(7)
C8_129 C 0.38009(7) 0.03190(6) 0.05521(7)
H8_129 H 0.3958 0.0239 0.0463
N12_122 N 0.52729(5) 0.13144(6) 0.01815(6)
N13_75 N 0.48323(6) 0.15799(5) 0.10839(5)
N14_95 N 0.48427(5) 0.09033(5) 0.11205(5)
C1_129 C 0.56936(6) 0.15180(7) 0.99564(7)
H1_129 H 0.5652 0.1710 0.9981
H6_129 H 0.5003 0.1492 0.9891
C7_129 C 0.56645(6) 0.10536(7) 0.99666(7)
H7_129 H 0.5598 0.0870 0.9997
N1_130 N 0.35846(5) 0.73353(5) 0.27719(5)
N2_130 N 0.37086(5) 0.74548(5) 0.30120(5)
N3_130 N 0.39342(5) 0.68459(5) 0.32193(5)
N4_130 N 0.38591(5) 0.67447(5) 0.29486(5)
N5_77 N 0.35839(5) 0.84201(5) 0.23323(6)
C1_130 C 0.34820(7) 0.81936(6) 0.24564(7)
H1_130 H 0.3290 0.8152 0.2481
N7_123 N 0.37040(6) 0.80296(5) 0.25431(6)
C2_123 C 0.37679(7) 0.77194(6) 0.29550(7)
H2_123 H 0.3852 0.7849 0.3079
N9_130 N 0.44046(5) 0.62768(5) 0.31348(5)
N11_130 N 0.42011(5) 0.64859(5) 0.31123(5)
C3_130 C 0.40189(6) 0.65275(6) 0.28908(6)
H3_130 H 0.4011 0.6418 0.2726
C4_130 C 0.43733(6) 0.60136(7) 0.32490(7)
H4_130 H 0.4205 0.5938 0.3320
C5_130 C 0.41405(7) 0.66867(6) 0.33128(6)
H5_130 H 0.4232 0.6707 0.3487
C6_123 C 0.35769(7) 0.75281(6) 0.25752(7)
H6_130 H 0.3508 0.7503 0.2391
C7_130 C 0.39464(7) 0.81645(6) 0.24666(7)
H7_130 H 0.4130 0.8098 0.2497
C8_130 C 0.46810(6) 0.63009(7) 0.30521(7)
H8_130 H 0.4761 0.6458 0.2963
N12_123 N 0.36856(6) 0.77729(5) 0.26815(6)
Cu4_49 Cu 0.337203(9) 0.876693(9) 0.220495(9)
Cu1_76 Cu 0.779505(9) 0.626693(9) 0.587203(9)
N1_131 N 0.76647(5) 0.60846(5) 0.52719(5)
N2_131 N 0.75452(5) 0.62086(5) 0.55120(5)
N3_131 N 0.81541(5) 0.64342(5) 0.57193(5)
N4_131 N 0.82553(5) 0.63591(5) 0.54486(5)
C1_131 C 0.68064(6) 0.59820(7) 0.49564(7)
H1_131 H 0.6848 0.5790 0.4981
N7_124 N 0.69704(5) 0.62040(6) 0.50431(6)
C2_124 C 0.72806(6) 0.62679(7) 0.54550(7)
H2_124 H 0.7151 0.6352 0.5579
N9_131 N 0.87232(5) 0.69046(5) 0.56348(5)
N11_131 N 0.85141(5) 0.67011(5) 0.56123(5)
C3_131 C 0.84725(6) 0.65189(6) 0.53908(6)
H3_131 H 0.8582 0.6511 0.5226
C4_131 C 0.89864(7) 0.68733(6) 0.57490(7)
H4_131 H 0.9062 0.6705 0.5820
C5_131 C 0.83133(6) 0.66405(7) 0.58128(6)
H5_131 H 0.8293 0.6732 0.5987
C6_124 C 0.74719(6) 0.60769(7) 0.50752(7)
H6_131 H 0.7497 0.6008 0.4891
C7_131 C 0.68355(6) 0.64464(7) 0.49666(7)
H7_131 H 0.6902 0.6630 0.4997
C8_131 C 0.86991(7) 0.71810(6) 0.55521(7)
H8_131 H 0.8542 0.7261 0.5463
N12_124 N 0.72271(5) 0.61856(6) 0.51815(6)
N13_76 N 0.76677(6) 0.59201(5) 0.60839(5)
N14_96 N 0.76573(5) 0.65967(5) 0.61205(5)
Cu1_77 Cu 0.873307(9) 0.029505(9) 0.837203(9)
N1_132 N 0.89154(5) 0.01647(5) 0.77719(5)
N2_132 N 0.87914(5) 0.00452(5) 0.80120(5)
N3_132 N 0.85658(5) 0.06541(5) 0.82193(5)
N4_132 N 0.86409(5) 0.07553(5) 0.79486(5)
N9_132 N 0.80954(5) 0.12232(5) 0.81348(5)
N11_132 N 0.82989(5) 0.10141(5) 0.81123(5)
C3_132 C 0.84811(6) 0.09725(6) 0.78908(6)
H3_132 H 0.8489 0.1082 0.7726
C4_132 C 0.81267(6) 0.14864(7) 0.82490(7)
H4_132 H 0.8295 0.1562 0.8320
C5_132 C 0.83595(7) 0.08133(6) 0.83128(6)
H5_132 H 0.8268 0.0793 0.8487
C8_132 C 0.78190(6) 0.11991(7) 0.80521(7)
H8_132 H 0.7739 0.1042 0.7963
N13_77 N 0.90799(5) 0.01677(6) 0.85839(5)
N14_97 N 0.84033(5) 0.01573(5) 0.86205(5)
N5_78 N 0.89161(5) 0.90799(5) 0.73323(6)
C1_132 C 0.90180(7) 0.93064(6) 0.74564(7)
H1_132 H 0.9210 0.9348 0.7481
N7_125 N 0.87960(6) 0.94704(5) 0.75431(6)
C2_125 C 0.87321(7) 0.97806(6) 0.79550(7)
H2_125 H 0.8648 0.9651 0.8079
C6_125 C 0.89231(7) 0.99719(6) 0.75752(7)
H6_132 H 0.8992 0.9997 0.7391
C7_132 C 0.85536(7) 0.93355(6) 0.74666(7)
H7_132 H 0.8370 0.9402 0.7497
N12_125 N 0.88144(6) 0.97271(5) 0.76815(6)
Cu4_50 Cu 0.912797(9) 0.873307(9) 0.720495(9)
N1_133 N 0.48353(5) 0.60846(5) 0.72281(5)
N2_133 N 0.49548(5) 0.62086(5) 0.69880(5)
N3_133 N 0.43459(5) 0.64342(5) 0.67807(5)
N4_133 N 0.42447(5) 0.63591(5) 0.70514(5)
C1_133 C 0.56936(6) 0.59820(7) 0.75436(7)
H1_133 H 0.5652 0.5790 0.7519
N7_126 N 0.55296(5) 0.62040(6) 0.74569(6)
C2_126 C 0.52194(6) 0.62679(7) 0.70450(7)
H2_126 H 0.5349 0.6352 0.6921
N9_133 N 0.37768(5) 0.69046(5) 0.68652(5)
N11_133 N 0.39859(5) 0.67011(5) 0.68877(5)
C3_133 C 0.40275(6) 0.65189(6) 0.71092(6)
H3_133 H 0.3918 0.6511 0.7274
C4_133 C 0.35136(7) 0.68733(6) 0.67510(7)
H4_133 H 0.3438 0.6705 0.6680
C5_133 C 0.41867(6) 0.66405(7) 0.66872(6)
H5_133 H 0.4207 0.6732 0.6513
C6_126 C 0.50281(6) 0.60769(7) 0.74248(7)
H6_133 H 0.5003 0.6008 0.7609
C7_133 C 0.56645(6) 0.64464(7) 0.75334(7)
H7_133 H 0.5598 0.6630 0.7503
C8_133 C 0.38009(7) 0.71810(6) 0.69479(7)
H8_133 H 0.3958 0.7261 0.7037
N12_126 N 0.52729(5) 0.61856(6) 0.73185(6)
N5_79 N 0.89161(5) 0.84201(5) 0.01677(6)
C1_134 C 0.90180(7) 0.81936(6) 0.00436(7)
H1_134 H 0.9210 0.8152 0.0019
H6_134 H 0.8992 0.7503 0.0109
C7_134 C 0.85536(7) 0.81645(6) 0.00334(7)
H7_134 H 0.8370 0.8098 0.0003
Cu4_51 Cu 0.912797(9) 0.876693(9) 0.029505(9)
Cu1_78 Cu 0.873307(9) 0.720495(9) 0.912797(9)
N1_134 N 0.89154(5) 0.73353(5) 0.97281(5)
N2_134 N 0.87914(5) 0.74548(5) 0.94880(5)
N3_134 N 0.85658(5) 0.68459(5) 0.92807(5)
N4_134 N 0.86409(5) 0.67447(5) 0.95514(5)
N7_127 N 0.87960(6) 0.80296(5) 0.99569(6)
C2_127 C 0.87321(7) 0.77194(6) 0.95450(7)
H2_127 H 0.8648 0.7849 0.9421
N9_134 N 0.80954(5) 0.62768(5) 0.93652(5)
N11_134 N 0.82989(5) 0.64859(5) 0.93877(5)
C3_134 C 0.84811(6) 0.65275(6) 0.96092(6)
H3_134 H 0.8489 0.6418 0.9774
C4_134 C 0.81267(6) 0.60136(7) 0.92510(7)
H4_134 H 0.8295 0.5938 0.9180
C5_134 C 0.83595(7) 0.66867(6) 0.91872(6)
H5_134 H 0.8268 0.6707 0.9013
C6_127 C 0.89231(7) 0.75281(6) 0.99248(7)
C8_134 C 0.78190(6) 0.63009(7) 0.94479(7)
H8_134 H 0.7739 0.6458 0.9537
N12_127 N 0.88144(6) 0.77729(5) 0.98185(6)
N13_78 N 0.90799(5) 0.73323(6) 0.89161(5)
N14_98 N 0.84033(5) 0.73427(5) 0.88795(5)
Cu1_79 Cu 0.779505(9) 0.123307(9) 0.162797(9)
N1_135 N 0.76647(5) 0.14154(5) 0.22281(5)
N2_135 N 0.75452(5) 0.12914(5) 0.19880(5)
N3_135 N 0.81541(5) 0.10658(5) 0.17807(5)
N4_135 N 0.82553(5) 0.11409(5) 0.20514(5)
C1_135 C 0.68064(6) 0.15180(7) 0.25436(7)
H1_135 H 0.6848 0.1710 0.2519
N7_128 N 0.69704(5) 0.12960(6) 0.24569(6)
C2_128 C 0.72806(6) 0.12321(7) 0.20450(7)
H2_128 H 0.7151 0.1148 0.1921
N9_135 N 0.87232(5) 0.05954(5) 0.18652(5)
N11_135 N 0.85141(5) 0.07989(5) 0.18877(5)
C3_135 C 0.84725(6) 0.09811(6) 0.21092(6)
H3_135 H 0.8582 0.0989 0.2274
C4_135 C 0.89864(7) 0.06267(6) 0.17510(7)
H4_135 H 0.9062 0.0795 0.1680
C5_135 C 0.83133(6) 0.08595(7) 0.16872(6)
H5_135 H 0.8293 0.0768 0.1513
C6_128 C 0.74719(6) 0.14231(7) 0.24248(7)
H6_135 H 0.7497 0.1492 0.2609
C7_135 C 0.68355(6) 0.10536(7) 0.25334(7)
H7_135 H 0.6902 0.0870 0.2503
C8_135 C 0.86991(7) 0.03190(6) 0.19479(7)
H8_135 H 0.8542 0.0239 0.2037
N12_128 N 0.72271(5) 0.13144(6) 0.23185(6)
N13_79 N 0.76677(6) 0.15799(5) 0.14161(5)
N14_99 N 0.76573(5) 0.09033(5) 0.13795(5)
Cu1_80 Cu 0.376693(9) 0.029505(9) 0.412797(9)
N1_136 N 0.35846(5) 0.01647(5) 0.47281(5)
N2_136 N 0.37086(5) 0.00452(5) 0.44880(5)
N3_136 N 0.39342(5) 0.06541(5) 0.42807(5)
N4_136 N 0.38591(5) 0.07553(5) 0.45514(5)
N9_136 N 0.44046(5) 0.12232(5) 0.43652(5)
N11_136 N 0.42011(5) 0.10141(5) 0.43877(5)
C3_136 C 0.40189(6) 0.09725(6) 0.46092(6)
H3_136 H 0.4011 0.1082 0.4774
C4_136 C 0.43733(6) 0.14864(7) 0.42510(7)
H4_136 H 0.4205 0.1562 0.4180
C5_136 C 0.41405(7) 0.08133(6) 0.41872(6)
H5_136 H 0.4232 0.0793 0.4013
C8_136 C 0.46810(6) 0.11991(7) 0.44479(7)
H8_136 H 0.4761 0.1042 0.4537
N13_80 N 0.34201(5) 0.01677(6) 0.39161(5)
N14_100 N 0.40967(5) 0.01573(5) 0.38795(5)
N5_80 N 0.35839(5) 0.90799(5) 0.51677(6)
C1_136 C 0.34820(7) 0.93064(6) 0.50436(7)
H1_136 H 0.3290 0.9348 0.5019
N7_129 N 0.37040(6) 0.94704(5) 0.49569(6)
C2_129 C 0.37679(7) 0.97806(6) 0.45450(7)
H2_129 H 0.3852 0.9651 0.4421
C6_129 C 0.35769(7) 0.99719(6) 0.49248(7)
H6_136 H 0.3508 0.9997 0.5109
C7_136 C 0.39464(7) 0.93355(6) 0.50334(7)
H7_136 H 0.4130 0.9402 0.5003
N12_129 N 0.36856(6) 0.97271(5) 0.48185(6)
Cu4_52 Cu 0.337203(9) 0.873307(9) 0.529505(9)
C1_137 C 0.49564(7) 0.06936(6) 0.15180(7)
H1_137 H 0.4981 0.0652 0.1710
N7_130 N 0.50431(6) 0.05296(5) 0.12960(6)
C2_130 C 0.54550(7) 0.02194(6) 0.12321(7)
H2_130 H 0.5579 0.0349 0.1148
C6_130 C 0.50752(7) 0.00281(6) 0.14231(7)
H6_137 H 0.4891 0.0003 0.1492
C7_137 C 0.49666(7) 0.06645(6) 0.10536(7)
H7_137 H 0.4997 0.0598 0.0870
N12_130 N 0.51815(6) 0.02729(5) 0.13144(6)
N1_137 N 0.52719(5) 0.98353(5) 0.14154(5)
N2_137 N 0.55120(5) 0.99548(5) 0.12914(5)
N3_137 N 0.57193(5) 0.93459(5) 0.10658(5)
N4_137 N 0.54486(5) 0.92447(5) 0.11409(5)
N9_137 N 0.56348(5) 0.87768(5) 0.05954(5)
N11_137 N 0.56123(5) 0.89859(5) 0.07989(5)
C3_137 C 0.53908(6) 0.90275(6) 0.09811(6)
H3_137 H 0.5226 0.8918 0.0989
C4_137 C 0.57490(7) 0.85136(7) 0.06267(6)
H4_137 H 0.5820 0.8438 0.0795
C5_137 C 0.58128(6) 0.91867(6) 0.08595(7)
H5_137 H 0.5987 0.9207 0.0768
C8_137 C 0.55521(7) 0.88009(7) 0.03190(6)
H8_137 H 0.5463 0.8958 0.0239
Cu1_81 Cu 0.029505(9) 0.912797(9) 0.876693(9)
N1_138 N 0.01647(5) 0.97281(5) 0.85846(5)
N2_138 N 0.00452(5) 0.94880(5) 0.87086(5)
N3_138 N 0.06541(5) 0.92807(5) 0.89342(5)
N4_138 N 0.07553(5) 0.95514(5) 0.88591(5)
N9_138 N 0.12232(5) 0.93652(5) 0.94046(5)
N11_138 N 0.10141(5) 0.93877(5) 0.92011(5)
C3_138 C 0.09725(6) 0.96092(6) 0.90189(6)
H3_138 H 0.1082 0.9774 0.9011
C4_138 C 0.14864(7) 0.92510(7) 0.93733(6)
H4_138 H 0.1562 0.9180 0.9205
C5_138 C 0.08133(6) 0.91872(6) 0.91405(7)
H5_138 H 0.0793 0.9013 0.9232
C8_138 C 0.11991(7) 0.94479(7) 0.96810(6)
H8_138 H 0.1042 0.9537 0.9761
N13_81 N 0.01677(6) 0.89161(5) 0.84201(5)
N14_101 N 0.01573(5) 0.88795(5) 0.90967(5)
N6_53 N 0.90967(5) 0.01573(5) 0.88795(5)
C1_138 C 0.93064(6) 0.00436(7) 0.84820(7)
H1_138 H 0.9348 0.0019 0.8290
H6_138 H 0.9997 0.0109 0.8508
C7_138 C 0.93355(6) 0.00334(7) 0.89464(7)
H7_138 H 0.9402 0.0003 0.9130
Cu3_29 Cu 0.876693(9) 0.029505(9) 0.912797(9)
N1_139 N 0.51647(5) 0.27719(5) 0.89154(5)
N2_139 N 0.50452(5) 0.30120(5) 0.87914(5)
N3_139 N 0.56541(5) 0.32193(5) 0.85658(5)
N4_139 N 0.57553(5) 0.29486(5) 0.86409(5)
N5_81 N 0.40799(5) 0.23323(6) 0.89161(5)
C1_139 C 0.43064(6) 0.24564(7) 0.90180(7)
H1_139 H 0.4348 0.2481 0.9210
N7_131 N 0.44704(5) 0.25431(6) 0.87960(6)
C2_131 C 0.47806(6) 0.29550(7) 0.87321(7)
H2_131 H 0.4651 0.3079 0.8648
N9_139 N 0.62232(5) 0.31348(5) 0.80954(5)
N11_139 N 0.60141(5) 0.31123(5) 0.82989(5)
C3_139 C 0.59725(6) 0.28908(6) 0.84811(6)
H3_139 H 0.6082 0.2726 0.8489
C4_139 C 0.64864(7) 0.32490(7) 0.81267(6)
H4_139 H 0.6562 0.3320 0.8295
C5_139 C 0.58133(6) 0.33128(6) 0.83595(7)
H5_139 H 0.5793 0.3487 0.8268
C6_131 C 0.49719(6) 0.25752(7) 0.89231(7)
H6_139 H 0.4997 0.2391 0.8992
C7_139 C 0.43355(6) 0.24666(7) 0.85536(7)
H7_139 H 0.4402 0.2497 0.8370
C8_139 C 0.61991(7) 0.30521(7) 0.78190(6)
H8_139 H 0.6042 0.2963 0.7739
N12_131 N 0.47271(5) 0.26815(6) 0.88144(6)
Cu4_53 Cu 0.373307(9) 0.220495(9) 0.912797(9)
Cu1_82 Cu 0.220495(9) 0.337203(9) 0.876693(9)
N1_140 N 0.23353(5) 0.27719(5) 0.85846(5)
N2_140 N 0.24548(5) 0.30120(5) 0.87086(5)
N3_140 N 0.18459(5) 0.32193(5) 0.89342(5)
N4_140 N 0.17447(5) 0.29486(5) 0.88591(5)
N6_54 N 0.34033(5) 0.23427(5) 0.88795(5)
C1_140 C 0.31936(6) 0.24564(7) 0.84820(7)
H1_140 H 0.3152 0.2481 0.8290
N7_132 N 0.30296(5) 0.25431(6) 0.87040(6)
C2_132 C 0.27194(6) 0.29550(7) 0.87679(7)
H2_132 H 0.2849 0.3079 0.8852
N9_140 N 0.12768(5) 0.31348(5) 0.94046(5)
N11_140 N 0.14859(5) 0.31123(5) 0.92011(5)
C3_140 C 0.15275(6) 0.28908(6) 0.90189(6)
H3_140 H 0.1418 0.2726 0.9011
C4_140 C 0.10136(7) 0.32490(7) 0.93733(6)
H4_140 H 0.0938 0.3320 0.9205
C5_140 C 0.16867(6) 0.33128(6) 0.91405(7)
H5_140 H 0.1707 0.3487 0.9232
C6_132 C 0.25281(6) 0.25752(7) 0.85769(7)
H6_140 H 0.2503 0.2391 0.8508
C7_140 C 0.31645(6) 0.24666(7) 0.89464(7)
H7_140 H 0.3098 0.2497 0.9130
C8_140 C 0.13009(7) 0.30521(7) 0.96810(6)
H8_140 H 0.1458 0.2963 0.9761
N12_132 N 0.27729(5) 0.26815(6) 0.86856(6)
N13_82 N 0.23323(6) 0.35839(5) 0.84201(5)
N14_102 N 0.23427(5) 0.36205(5) 0.90967(5)
N5_82 N 0.84201(5) 0.01677(6) 0.89161(5)
C1_141 C 0.81936(6) 0.00436(7) 0.90180(7)
H1_141 H 0.8152 0.0019 0.9210
H6_141 H 0.7503 0.0109 0.8992
C7_141 C 0.81645(6) 0.00334(7) 0.85536(7)
H7_141 H 0.8098 0.0003 0.8370
N1_141 N 0.73353(5) 0.97281(5) 0.89154(5)
N2_141 N 0.74548(5) 0.94880(5) 0.87914(5)
N3_141 N 0.68459(5) 0.92807(5) 0.85658(5)
N4_141 N 0.67447(5) 0.95514(5) 0.86409(5)
N7_133 N 0.80296(5) 0.99569(6) 0.87960(6)
C2_133 C 0.77194(6) 0.95450(7) 0.87321(7)
H2_133 H 0.7849 0.9421 0.8648
N9_141 N 0.62768(5) 0.93652(5) 0.80954(5)
N11_141 N 0.64859(5) 0.93877(5) 0.82989(5)
C3_141 C 0.65275(6) 0.96092(6) 0.84811(6)
H3_141 H 0.6418 0.9774 0.8489
C4_141 C 0.60136(7) 0.92510(7) 0.81267(6)
H4_141 H 0.5938 0.9180 0.8295
C5_141 C 0.66867(6) 0.91872(6) 0.83595(7)
H5_141 H 0.6707 0.9013 0.8268
C6_133 C 0.75281(6) 0.99248(7) 0.89231(7)
C8_141 C 0.63009(7) 0.94479(7) 0.78190(6)
H8_141 H 0.6458 0.9537 0.7739
N12_133 N 0.77729(5) 0.98185(6) 0.88144(6)
N1_142 N 0.52719(5) 0.26647(5) 0.10846(5)
N2_142 N 0.55120(5) 0.25452(5) 0.12086(5)
N3_142 N 0.57193(5) 0.31541(5) 0.14342(5)
N4_142 N 0.54486(5) 0.32553(5) 0.13591(5)
C1_142 C 0.49564(7) 0.18064(6) 0.09820(7)
H1_142 H 0.4981 0.1848 0.0790
N7_134 N 0.50431(6) 0.19704(5) 0.12040(6)
C2_134 C 0.54550(7) 0.22806(6) 0.12679(7)
H2_134 H 0.5579 0.2151 0.1352
N9_142 N 0.56348(5) 0.37232(5) 0.19046(5)
N11_142 N 0.56123(5) 0.35141(5) 0.17011(5)
C3_142 C 0.53908(6) 0.34725(6) 0.15189(6)
H3_142 H 0.5226 0.3582 0.1511
C4_142 C 0.57490(7) 0.39864(7) 0.18733(6)
H4_142 H 0.5820 0.4062 0.1705
C5_142 C 0.58128(6) 0.33133(6) 0.16405(7)
H5_142 H 0.5987 0.3293 0.1732
C6_134 C 0.50752(7) 0.24719(6) 0.10769(7)
H6_142 H 0.4891 0.2497 0.1008
C7_142 C 0.49666(7) 0.18355(6) 0.14464(7)
H7_142 H 0.4997 0.1902 0.1630
C8_142 C 0.55521(7) 0.36991(7) 0.21810(6)
H8_142 H 0.5463 0.3542 0.2261
N12_134 N 0.51815(6) 0.22271(5) 0.11856(6)
Cu1_83 Cu 0.162797(9) 0.779505(9) 0.123307(9)
N1_143 N 0.22281(5) 0.76647(5) 0.14154(5)
N2_143 N 0.19880(5) 0.75452(5) 0.12914(5)
N3_143 N 0.17807(5) 0.81541(5) 0.10658(5)
N4_143 N 0.20514(5) 0.82553(5) 0.11409(5)
N5_83 N 0.26677(6) 0.65799(5) 0.14161(5)
N6_55 N 0.26573(5) 0.65967(5) 0.11205(5)
C1_143 C 0.25436(7) 0.68064(6) 0.15180(7)
H1_143 H 0.2519 0.6848 0.1710
N7_135 N 0.24569(6) 0.69704(5) 0.12960(6)
C2_135 C 0.20450(7) 0.72806(6) 0.12321(7)
H2_135 H 0.1921 0.7151 0.1148
N9_143 N 0.18652(5) 0.87232(5) 0.05954(5)
N11_143 N 0.18877(5) 0.85141(5) 0.07989(5)
C3_143 C 0.21092(6) 0.84725(6) 0.09811(6)
H3_143 H 0.2274 0.8582 0.0989
C4_143 C 0.17510(7) 0.89864(7) 0.06267(6)
H4_143 H 0.1680 0.9062 0.0795
C5_143 C 0.16872(6) 0.83133(6) 0.08595(7)
H5_143 H 0.1513 0.8293 0.0768
C6_135 C 0.24248(7) 0.74719(6) 0.14231(7)
H6_143 H 0.2609 0.7497 0.1492
C7_143 C 0.25334(7) 0.68355(6) 0.10536(7)
H7_143 H 0.2503 0.6902 0.0870
C8_143 C 0.19479(7) 0.86991(7) 0.03190(6)
H8_143 H 0.2037 0.8542 0.0239
N12_135 N 0.23185(6) 0.72271(5) 0.13144(6)
Cu3_30 Cu 0.279505(9) 0.626693(9) 0.087203(9)
Cu4_54 Cu 0.279505(9) 0.623307(9) 0.162797(9)
N13_83 N 0.14161(5) 0.76677(6) 0.15799(5)
N14_103 N 0.13795(5) 0.76573(5) 0.09033(5)
Cu1_84 Cu 0.162797(9) 0.470495(9) 0.126693(9)
N1_144 N 0.22281(5) 0.48353(5) 0.10846(5)
N2_144 N 0.19880(5) 0.49548(5) 0.12086(5)
N3_144 N 0.17807(5) 0.43459(5) 0.14342(5)
N4_144 N 0.20514(5) 0.42447(5) 0.13591(5)
N5_84 N 0.26677(6) 0.59201(5) 0.10839(5)
N6_56 N 0.26573(5) 0.59033(5) 0.13795(5)
C1_144 C 0.25436(7) 0.56936(6) 0.09820(7)
H1_144 H 0.2519 0.5652 0.0790
N7_136 N 0.24569(6) 0.55296(5) 0.12040(6)
C2_136 C 0.20450(7) 0.52194(6) 0.12679(7)
H2_136 H 0.1921 0.5349 0.1352
N9_144 N 0.18652(5) 0.37768(5) 0.19046(5)
N11_144 N 0.18877(5) 0.39859(5) 0.17011(5)
C3_144 C 0.21092(6) 0.40275(6) 0.15189(6)
H3_144 H 0.2274 0.3918 0.1511
C4_144 C 0.17510(7) 0.35136(7) 0.18733(6)
H4_144 H 0.1680 0.3438 0.1705
C5_144 C 0.16872(6) 0.41867(6) 0.16405(7)
H5_144 H 0.1513 0.4207 0.1732
C6_136 C 0.24248(7) 0.50281(6) 0.10769(7)
H6_144 H 0.2609 0.5003 0.1008
C7_144 C 0.25334(7) 0.56645(6) 0.14464(7)
H7_144 H 0.2503 0.5598 0.1630
C8_144 C 0.19479(7) 0.38009(7) 0.21810(6)
H8_144 H 0.2037 0.3958 0.2261
N12_136 N 0.23185(6) 0.52729(5) 0.11856(6)
N13_84 N 0.14161(5) 0.48323(6) 0.09201(5)
N14_104 N 0.13795(5) 0.48427(5) 0.15967(5)
N6_57 N 0.11205(5) 0.48427(5) 0.09033(5)
C1_145 C 0.15180(7) 0.49564(7) 0.06936(6)
H1_145 H 0.1710 0.4981 0.0652
N7_137 N 0.12960(6) 0.50431(6) 0.05296(5)
C2_137 C 0.12321(7) 0.54550(7) 0.02194(6)
H2_137 H 0.1148 0.5579 0.0349
C6_137 C 0.14231(7) 0.50752(7) 0.00281(6)
H6_145 H 0.1492 0.4891 0.0003
C7_145 C 0.10536(7) 0.49666(7) 0.06645(6)
H7_145 H 0.0870 0.4997 0.0598
N12_137 N 0.13144(6) 0.51815(6) 0.02729(5)
Cu3_31 Cu 0.087203(9) 0.470495(9) 0.123307(9)
Cu1_85 Cu 0.123307(9) 0.587203(9) 0.970495(9)
N1_145 N 0.14154(5) 0.52719(5) 0.98353(5)
N2_145 N 0.12914(5) 0.55120(5) 0.99548(5)
N3_145 N 0.10658(5) 0.57193(5) 0.93459(5)
N4_145 N 0.11409(5) 0.54486(5) 0.92447(5)
N9_145 N 0.05954(5) 0.56348(5) 0.87768(5)
N11_145 N 0.07989(5) 0.56123(5) 0.89859(5)
C3_145 C 0.09811(6) 0.53908(6) 0.90275(6)
H3_145 H 0.0989 0.5226 0.8918
C4_145 C 0.06267(6) 0.57490(7) 0.85136(7)
H4_145 H 0.0795 0.5820 0.8438
C5_145 C 0.08595(7) 0.58128(6) 0.91867(6)
H5_145 H 0.0768 0.5987 0.9207
C8_145 C 0.03190(6) 0.55521(7) 0.88009(7)
H8_145 H 0.0239 0.5463 0.8958
N13_85 N 0.15799(5) 0.60839(5) 0.98323(6)
N14_105 N 0.09033(5) 0.61205(5) 0.98427(5)
N6_58 N 0.01573(5) 0.36205(5) 0.34033(5)
C1_146 C 0.00436(7) 0.40180(7) 0.31936(6)
H1_146 H 0.0019 0.4210 0.3152
H6_146 H 0.0109 0.3992 0.2503
C7_146 C 0.00334(7) 0.35536(7) 0.31645(6)
H7_146 H 0.0003 0.3370 0.3098
Cu3_32 Cu 0.029505(9) 0.337203(9) 0.373307(9)
N1_146 N 0.97281(5) 0.39154(5) 0.23353(5)
N2_146 N 0.94880(5) 0.37914(5) 0.24548(5)
N3_146 N 0.92807(5) 0.35658(5) 0.18459(5)
N4_146 N 0.95514(5) 0.36409(5) 0.17447(5)
N7_138 N 0.99569(6) 0.37960(6) 0.30296(5)
C2_138 C 0.95450(7) 0.37321(7) 0.27194(6)
H2_138 H 0.9421 0.3648 0.2849
N9_146 N 0.93652(5) 0.30954(5) 0.12768(5)
N11_146 N 0.93877(5) 0.32989(5) 0.14859(5)
C3_146 C 0.96092(6) 0.34811(6) 0.15275(6)
H3_146 H 0.9774 0.3489 0.1418
C4_146 C 0.92510(7) 0.31267(6) 0.10136(7)
H4_146 H 0.9180 0.3295 0.0938
C5_146 C 0.91872(6) 0.33595(7) 0.16867(6)
H5_146 H 0.9013 0.3268 0.1707
C6_138 C 0.99248(7) 0.39231(7) 0.25281(6)
C8_146 C 0.94479(7) 0.28190(6) 0.13009(7)
H8_146 H 0.9537 0.2739 0.1458
N12_138 N 0.98185(6) 0.38144(6) 0.27729(5)
N14_106 N 0.88795(5) 0.34033(5) 0.23427(5)
Cu1_86 Cu 0.126693(9) 0.162797(9) 0.470495(9)
N1_147 N 0.10846(5) 0.22281(5) 0.48353(5)
N2_147 N 0.12086(5) 0.19880(5) 0.49548(5)
N3_147 N 0.14342(5) 0.17807(5) 0.43459(5)
N4_147 N 0.13591(5) 0.20514(5) 0.42447(5)
N5_85 N 0.10839(5) 0.26677(6) 0.59201(5)
C1_147 C 0.09820(7) 0.25436(7) 0.56936(6)
H1_147 H 0.0790 0.2519 0.5652
N7_139 N 0.12040(6) 0.24569(6) 0.55296(5)
C2_139 C 0.12679(7) 0.20450(7) 0.52194(6)
H2_139 H 0.1352 0.1921 0.5349
N9_147 N 0.19046(5) 0.18652(5) 0.37768(5)
N11_147 N 0.17011(5) 0.18877(5) 0.39859(5)
C3_147 C 0.15189(6) 0.21092(6) 0.40275(6)
H3_147 H 0.1511 0.2274 0.3918
C4_147 C 0.18733(6) 0.17510(7) 0.35136(7)
H4_147 H 0.1705 0.1680 0.3438
C5_147 C 0.16405(7) 0.16872(6) 0.41867(6)
H5_147 H 0.1732 0.1513 0.4207
C6_139 C 0.10769(7) 0.24248(7) 0.50281(6)
H6_147 H 0.1008 0.2609 0.5003
C7_147 C 0.14464(7) 0.25334(7) 0.56645(6)
H7_147 H 0.1630 0.2503 0.5598
C8_147 C 0.21810(6) 0.19479(7) 0.38009(7)
H8_147 H 0.2261 0.2037 0.3958
N12_139 N 0.11856(6) 0.23185(6) 0.52729(5)
Cu4_55 Cu 0.087203(9) 0.279505(9) 0.626693(9)
N13_86 N 0.09201(5) 0.14161(5) 0.48323(6)
N14_107 N 0.15967(5) 0.13795(5) 0.48427(5)
N1_148 N 0.27719(5) 0.35846(5) 0.73353(5)
N2_148 N 0.30120(5) 0.37086(5) 0.74548(5)
N3_148 N 0.32193(5) 0.39342(5) 0.68459(5)
N4_148 N 0.29486(5) 0.38591(5) 0.67447(5)
N6_59 N 0.23427(5) 0.38795(5) 0.84033(5)
C1_148 C 0.24564(7) 0.34820(7) 0.81936(6)
H1_148 H 0.2481 0.3290 0.8152
N7_140 N 0.25431(6) 0.37040(6) 0.80296(5)
C2_140 C 0.29550(7) 0.37679(7) 0.77194(6)
H2_140 H 0.3079 0.3852 0.7849
N9_148 N 0.31348(5) 0.44046(5) 0.62768(5)
N11_148 N 0.31123(5) 0.42011(5) 0.64859(5)
C3_148 C 0.28908(6) 0.40189(6) 0.65275(6)
H3_148 H 0.2726 0.4011 0.6418
C4_148 C 0.32490(7) 0.43733(6) 0.60136(7)
H4_148 H 0.3320 0.4205 0.5938
C5_148 C 0.33128(6) 0.41405(7) 0.66867(6)
H5_148 H 0.3487 0.4232 0.6707
C6_140 C 0.25752(7) 0.35769(7) 0.75281(6)
H6_148 H 0.2391 0.3508 0.7503
C7_148 C 0.24666(7) 0.39464(7) 0.81645(6)
H7_148 H 0.2497 0.4130 0.8098
C8_148 C 0.30521(7) 0.46810(6) 0.63009(7)
H8_148 H 0.2963 0.4761 0.6458
N12_140 N 0.26815(6) 0.36856(6) 0.77729(5)
Cu3_33 Cu 0.220495(9) 0.412797(9) 0.873307(9)
N14_108 N 0.36205(5) 0.40967(5) 0.73427(5)
Cu1_87 Cu 0.123307(9) 0.162797(9) 0.779505(9)
N1_149 N 0.14154(5) 0.22281(5) 0.76647(5)
N2_149 N 0.12914(5) 0.19880(5) 0.75452(5)
N3_149 N 0.10658(5) 0.17807(5) 0.81541(5)
N4_149 N 0.11409(5) 0.20514(5) 0.82553(5)
N6_60 N 0.11205(5) 0.26573(5) 0.65967(5)
C1_149 C 0.15180(7) 0.25436(7) 0.68064(6)
H1_149 H 0.1710 0.2519 0.6848
N7_141 N 0.12960(6) 0.24569(6) 0.69704(5)
C2_141 C 0.12321(7) 0.20450(7) 0.72806(6)
H2_141 H 0.1148 0.1921 0.7151
N9_149 N 0.05954(5) 0.18652(5) 0.87232(5)
N11_149 N 0.07989(5) 0.18877(5) 0.85141(5)
C3_149 C 0.09811(6) 0.21092(6) 0.84725(6)
H3_149 H 0.0989 0.2274 0.8582
C4_149 C 0.06267(6) 0.17510(7) 0.89864(7)
H4_149 H 0.0795 0.1680 0.9062
C5_149 C 0.08595(7) 0.16872(6) 0.83133(6)
H5_149 H 0.0768 0.1513 0.8293
C6_141 C 0.14231(7) 0.24248(7) 0.74719(6)
H6_149 H 0.1492 0.2609 0.7497
C7_149 C 0.10536(7) 0.25334(7) 0.68355(6)
H7_149 H 0.0870 0.2503 0.6902
C8_149 C 0.03190(6) 0.19479(7) 0.86991(7)
H8_149 H 0.0239 0.2037 0.8542
N12_141 N 0.13144(6) 0.23185(6) 0.72271(5)
N13_87 N 0.15799(5) 0.14161(5) 0.76677(6)
N14_109 N 0.09033(5) 0.13795(5) 0.76573(5)
N1_150 N 0.27719(5) 0.39154(5) 0.01647(5)
N2_150 N 0.30120(5) 0.37914(5) 0.00452(5)
N3_150 N 0.32193(5) 0.35658(5) 0.06541(5)
N4_150 N 0.29486(5) 0.36409(5) 0.07553(5)
N9_150 N 0.31348(5) 0.30954(5) 0.12232(5)
N11_150 N 0.31123(5) 0.32989(5) 0.10141(5)
C3_150 C 0.28908(6) 0.34811(6) 0.09725(6)
H3_150 H 0.2726 0.3489 0.1082
C4_150 C 0.32490(7) 0.31267(6) 0.14864(7)
H4_150 H 0.3320 0.3295 0.1562
C5_150 C 0.33128(6) 0.33595(7) 0.08133(6)
H5_150 H 0.3487 0.3268 0.0793
C8_150 C 0.30521(7) 0.28190(6) 0.11991(7)
H8_150 H 0.2963 0.2739 0.1042
N14_110 N 0.36205(5) 0.34033(5) 0.01573(5)
N5_86 N 0.23323(6) 0.39161(5) 0.90799(5)
C1_150 C 0.24564(7) 0.40180(7) 0.93064(6)
H1_150 H 0.2481 0.4210 0.9348
N7_142 N 0.25431(6) 0.37960(6) 0.94704(5)
C2_142 C 0.29550(7) 0.37321(7) 0.97806(6)
H2_142 H 0.3079 0.3648 0.9651
C6_142 C 0.25752(7) 0.39231(7) 0.99719(6)
H6_150 H 0.2391 0.3992 0.9997
C7_150 C 0.24666(7) 0.35536(7) 0.93355(6)
H7_150 H 0.2497 0.3370 0.9402
N12_142 N 0.26815(6) 0.38144(6) 0.97271(5)
Cu1_88 Cu 0.126693(9) 0.587203(9) 0.279505(9)
N1_151 N 0.10846(5) 0.52719(5) 0.26647(5)
N2_151 N 0.12086(5) 0.55120(5) 0.25452(5)
N3_151 N 0.14342(5) 0.57193(5) 0.31541(5)
N4_151 N 0.13591(5) 0.54486(5) 0.32553(5)
N5_87 N 0.10839(5) 0.48323(6) 0.15799(5)
C1_151 C 0.09820(7) 0.49564(7) 0.18064(6)
H1_151 H 0.0790 0.4981 0.1848
N7_143 N 0.12040(6) 0.50431(6) 0.19704(5)
C2_143 C 0.12679(7) 0.54550(7) 0.22806(6)
H2_143 H 0.1352 0.5579 0.2151
N9_151 N 0.19046(5) 0.56348(5) 0.37232(5)
N11_151 N 0.17011(5) 0.56123(5) 0.35141(5)
C3_151 C 0.15189(6) 0.53908(6) 0.34725(6)
H3_151 H 0.1511 0.5226 0.3582
C4_151 C 0.18733(6) 0.57490(7) 0.39864(7)
H4_151 H 0.1705 0.5820 0.4062
C5_151 C 0.16405(7) 0.58128(6) 0.33133(6)
H5_151 H 0.1732 0.5987 0.3293
C6_143 C 0.10769(7) 0.50752(7) 0.24719(6)
H6_151 H 0.1008 0.4891 0.2497
C7_151 C 0.14464(7) 0.49666(7) 0.18355(6)
H7_151 H 0.1630 0.4997 0.1902
C8_151 C 0.21810(6) 0.55521(7) 0.36991(7)
H8_151 H 0.2261 0.5463 0.3542
N12_143 N 0.11856(6) 0.51815(6) 0.22271(5)
N13_88 N 0.09201(5) 0.60839(5) 0.26677(6)
N14_111 N 0.15967(5) 0.61205(5) 0.26573(5)
N5_88 N 0.01677(6) 0.35839(5) 0.40799(5)
C1_152 C 0.00436(7) 0.34820(7) 0.43064(6)
H1_152 H 0.0019 0.3290 0.4348
H6_152 H 0.0109 0.3508 0.4997
C7_152 C 0.00334(7) 0.39464(7) 0.43355(6)
H7_152 H 0.0003 0.4130 0.4402
N1_152 N 0.97281(5) 0.35846(5) 0.51647(5)
N2_152 N 0.94880(5) 0.37086(5) 0.50452(5)
N3_152 N 0.92807(5) 0.39342(5) 0.56541(5)
N4_152 N 0.95514(5) 0.38591(5) 0.57553(5)
N7_144 N 0.99569(6) 0.37040(6) 0.44704(5)
C2_144 C 0.95450(7) 0.37679(7) 0.47806(6)
H2_144 H 0.9421 0.3852 0.4651
N9_152 N 0.93652(5) 0.44046(5) 0.62232(5)
N11_152 N 0.93877(5) 0.42011(5) 0.60141(5)
C3_152 C 0.96092(6) 0.40189(6) 0.59725(6)
H3_152 H 0.9774 0.4011 0.6082
C4_152 C 0.92510(7) 0.43733(6) 0.64864(7)
H4_152 H 0.9180 0.4205 0.6562
C5_152 C 0.91872(6) 0.41405(7) 0.58133(6)
H5_152 H 0.9013 0.4232 0.5793
C6_144 C 0.99248(7) 0.35769(7) 0.49719(6)
C8_152 C 0.94479(7) 0.46810(6) 0.61991(7)
H8_152 H 0.9537 0.4761 0.6042
N12_144 N 0.98185(6) 0.36856(6) 0.47271(5)
N14_112 N 0.88795(5) 0.40967(5) 0.51573(5)
N5_89 N 0.09201(5) 0.64161(5) 0.98323(6)
C1_153 C 0.06936(6) 0.65180(7) 0.99564(7)
H1_153 H 0.0652 0.6710 0.9981
H6_153 H 0.0003 0.6492 0.9891
C7_153 C 0.06645(6) 0.60536(7) 0.99666(7)
H7_153 H 0.0598 0.5870 0.9997
Cu4_56 Cu 0.126693(9) 0.662797(9) 0.970495(9)
Cu1_89 Cu 0.970495(9) 0.623307(9) 0.087203(9)
N1_153 N 0.98353(5) 0.64154(5) 0.02719(5)
N2_153 N 0.99548(5) 0.62914(5) 0.05120(5)
N3_153 N 0.93459(5) 0.60658(5) 0.07193(5)
N4_153 N 0.92447(5) 0.61409(5) 0.04486(5)
N9_153 N 0.87768(5) 0.55954(5) 0.06348(5)
N11_153 N 0.89859(5) 0.57989(5) 0.06123(5)
C3_153 C 0.90275(6) 0.59811(6) 0.03908(6)
H3_153 H 0.8918 0.5989 0.0226
C4_153 C 0.85136(7) 0.56267(6) 0.07490(7)
H4_153 H 0.8438 0.5795 0.0820
C5_153 C 0.91867(6) 0.58595(7) 0.08128(6)
H5_153 H 0.9207 0.5768 0.0987
C8_153 C 0.88009(7) 0.53190(6) 0.05521(7)
H8_153 H 0.8958 0.5239 0.0463
N13_89 N 0.98323(6) 0.65799(5) 0.10839(5)
N14_113 N 0.98427(5) 0.59033(5) 0.11205(5)
Cu1_90 Cu 0.876693(9) 0.220495(9) 0.337203(9)
N1_154 N 0.85846(5) 0.23353(5) 0.27719(5)
N2_154 N 0.87086(5) 0.24548(5) 0.30120(5)
N3_154 N 0.89342(5) 0.18459(5) 0.32193(5)
N4_154 N 0.88591(5) 0.17447(5) 0.29486(5)
C1_154 C 0.84820(7) 0.31936(6) 0.24564(7)
H1_154 H 0.8290 0.3152 0.2481
N7_145 N 0.87040(6) 0.30296(5) 0.25431(6)
C2_145 C 0.87679(7) 0.27194(6) 0.29550(7)
H2_145 H 0.8852 0.2849 0.3079
N9_154 N 0.94046(5) 0.12768(5) 0.31348(5)
N11_154 N 0.92011(5) 0.14859(5) 0.31123(5)
C3_154 C 0.90189(6) 0.15275(6) 0.28908(6)
H3_154 H 0.9011 0.1418 0.2726
C4_154 C 0.93733(6) 0.10136(7) 0.32490(7)
H4_154 H 0.9205 0.0938 0.3320
C5_154 C 0.91405(7) 0.16867(6) 0.33128(6)
H5_154 H 0.9232 0.1707 0.3487
C6_145 C 0.85769(7) 0.25281(6) 0.25752(7)
H6_154 H 0.8508 0.2503 0.2391
C7_154 C 0.89464(7) 0.31645(6) 0.24666(7)
H7_154 H 0.9130 0.3098 0.2497
C8_154 C 0.96810(6) 0.13009(7) 0.30521(7)
H8_154 H 0.9761 0.1458 0.2963
N12_145 N 0.86856(6) 0.27729(5) 0.26815(6)
N13_90 N 0.84201(5) 0.23323(6) 0.35839(5)
N14_114 N 0.90967(5) 0.23427(5) 0.36205(5)
N1_155 N 0.26647(5) 0.10846(5) 0.52719(5)
N2_155 N 0.25452(5) 0.12086(5) 0.55120(5)
N3_155 N 0.31541(5) 0.14342(5) 0.57193(5)
N4_155 N 0.32553(5) 0.13591(5) 0.54486(5)
N5_90 N 0.15799(5) 0.10839(5) 0.48323(6)
C1_155 C 0.18064(6) 0.09820(7) 0.49564(7)
H1_155 H 0.1848 0.0790 0.4981
N7_146 N 0.19704(5) 0.12040(6) 0.50431(6)
C2_146 C 0.22806(6) 0.12679(7) 0.54550(7)
H2_146 H 0.2151 0.1352 0.5579
N9_155 N 0.37232(5) 0.19046(5) 0.56348(5)
N11_155 N 0.35141(5) 0.17011(5) 0.56123(5)
C3_155 C 0.34725(6) 0.15189(6) 0.53908(6)
H3_155 H 0.3582 0.1511 0.5226
C4_155 C 0.39864(7) 0.18733(6) 0.57490(7)
H4_155 H 0.4062 0.1705 0.5820
C5_155 C 0.33133(6) 0.16405(7) 0.58128(6)
H5_155 H 0.3293 0.1732 0.5987
C6_146 C 0.24719(6) 0.10769(7) 0.50752(7)
H6_155 H 0.2497 0.1008 0.4891
C7_155 C 0.18355(6) 0.14464(7) 0.49666(7)
H7_155 H 0.1902 0.1630 0.4997
C8_155 C 0.36991(7) 0.21810(6) 0.55521(7)
H8_155 H 0.3542 0.2261 0.5463
N12_146 N 0.22271(5) 0.11856(6) 0.51815(6)
Cu4_57 Cu 0.123307(9) 0.087203(9) 0.470495(9)
Cu1_91 Cu 0.373307(9) 0.529505(9) 0.837203(9)
N1_156 N 0.39154(5) 0.51647(5) 0.77719(5)
N2_156 N 0.37914(5) 0.50452(5) 0.80120(5)
N3_156 N 0.35658(5) 0.56541(5) 0.82193(5)
N4_156 N 0.36409(5) 0.57553(5) 0.79486(5)
C1_156 C 0.40180(7) 0.43064(6) 0.74564(7)
H1_156 H 0.4210 0.4348 0.7481
N7_147 N 0.37960(6) 0.44704(5) 0.75431(6)
C2_147 C 0.37321(7) 0.47806(6) 0.79550(7)
H2_147 H 0.3648 0.4651 0.8079
N9_156 N 0.30954(5) 0.62232(5) 0.81348(5)
N11_156 N 0.32989(5) 0.60141(5) 0.81123(5)
C3_156 C 0.34811(6) 0.59725(6) 0.78908(6)
H3_156 H 0.3489 0.6082 0.7726
C4_156 C 0.31267(6) 0.64864(7) 0.82490(7)
H4_156 H 0.3295 0.6562 0.8320
C5_156 C 0.33595(7) 0.58133(6) 0.83128(6)
H5_156 H 0.3268 0.5793 0.8487
C6_147 C 0.39231(7) 0.49719(6) 0.75752(7)
H6_156 H 0.3992 0.4997 0.7391
C7_156 C 0.35536(7) 0.43355(6) 0.74666(7)
H7_156 H 0.3370 0.4402 0.7497
C8_156 C 0.28190(6) 0.61991(7) 0.80521(7)
H8_156 H 0.2739 0.6042 0.7963
N12_147 N 0.38144(6) 0.47271(5) 0.76815(6)
N13_91 N 0.40799(5) 0.51677(6) 0.85839(5)
N14_115 N 0.34033(5) 0.51573(5) 0.86205(5)
N5_91 N 0.09201(5) 0.10839(5) 0.76677(6)
C1_157 C 0.06936(6) 0.09820(7) 0.75436(7)
H1_157 H 0.0652 0.0790 0.7519
N7_148 N 0.05296(5) 0.12040(6) 0.74569(6)
C2_148 C 0.02194(6) 0.12679(7) 0.70450(7)
H2_148 H 0.0349 0.1352 0.6921
C6_148 C 0.00281(6) 0.10769(7) 0.74248(7)
H6_157 H 0.0003 0.1008 0.7609
C7_157 C 0.06645(6) 0.14464(7) 0.75334(7)
H7_157 H 0.0598 0.1630 0.7503
N12_148 N 0.02729(5) 0.11856(6) 0.73185(6)
Cu4_58 Cu 0.126693(9) 0.087203(9) 0.779505(9)
Cu1_92 Cu 0.970495(9) 0.126693(9) 0.662797(9)
N1_157 N 0.98353(5) 0.10846(5) 0.72281(5)
N2_157 N 0.99548(5) 0.12086(5) 0.69880(5)
N3_157 N 0.93459(5) 0.14342(5) 0.67807(5)
N4_157 N 0.92447(5) 0.13591(5) 0.70514(5)
N9_157 N 0.87768(5) 0.19046(5) 0.68652(5)
N11_157 N 0.89859(5) 0.17011(5) 0.68877(5)
C3_157 C 0.90275(6) 0.15189(6) 0.71092(6)
H3_157 H 0.8918 0.1511 0.7274
C4_157 C 0.85136(7) 0.18733(6) 0.67510(7)
H4_157 H 0.8438 0.1705 0.6680
C5_157 C 0.91867(6) 0.16405(7) 0.66872(6)
H5_157 H 0.9207 0.1732 0.6513
C8_157 C 0.88009(7) 0.21810(6) 0.69479(7)
H8_157 H 0.8958 0.2261 0.7037
N13_92 N 0.98323(6) 0.09201(5) 0.64161(5)
N14_116 N 0.98427(5) 0.15967(5) 0.63795(5)
C1_158 C 0.40180(7) 0.31936(6) 0.00436(7)
H1_158 H 0.4210 0.3152 0.0019
H6_158 H 0.3992 0.2503 0.0109
C7_158 C 0.35536(7) 0.31645(6) 0.00334(7)
H7_158 H 0.3370 0.3098 0.0003
N1_158 N 0.39154(5) 0.23353(5) 0.97281(5)
N2_158 N 0.37914(5) 0.24548(5) 0.94880(5)
N3_158 N 0.35658(5) 0.18459(5) 0.92807(5)
N4_158 N 0.36409(5) 0.17447(5) 0.95514(5)
N7_149 N 0.37960(6) 0.30296(5) 0.99569(6)
C2_149 C 0.37321(7) 0.27194(6) 0.95450(7)
H2_149 H 0.3648 0.2849 0.9421
N9_158 N 0.30954(5) 0.12768(5) 0.93652(5)
N11_158 N 0.32989(5) 0.14859(5) 0.93877(5)
C3_158 C 0.34811(6) 0.15275(6) 0.96092(6)
H3_158 H 0.3489 0.1418 0.9774
C4_158 C 0.31267(6) 0.10136(7) 0.92510(7)
H4_158 H 0.3295 0.0938 0.9180
C5_158 C 0.33595(7) 0.16867(6) 0.91872(6)
H5_158 H 0.3268 0.1707 0.9013
C6_149 C 0.39231(7) 0.25281(6) 0.99248(7)
C8_158 C 0.28190(6) 0.13009(7) 0.94479(7)
H8_158 H 0.2739 0.1458 0.9537
N12_149 N 0.38144(6) 0.27729(5) 0.98185(6)
N1_159 N 0.26647(5) 0.64154(5) 0.22281(5)
N2_159 N 0.25452(5) 0.62914(5) 0.19880(5)
N3_159 N 0.31541(5) 0.60658(5) 0.17807(5)
N4_159 N 0.32553(5) 0.61409(5) 0.20514(5)
N5_92 N 0.15799(5) 0.64161(5) 0.26677(6)
C1_159 C 0.18064(6) 0.65180(7) 0.25436(7)
H1_159 H 0.1848 0.6710 0.2519
N7_150 N 0.19704(5) 0.62960(6) 0.24569(6)
C2_150 C 0.22806(6) 0.62321(7) 0.20450(7)
H2_150 H 0.2151 0.6148 0.1921
N9_159 N 0.37232(5) 0.55954(5) 0.18652(5)
N11_159 N 0.35141(5) 0.57989(5) 0.18877(5)
C3_159 C 0.34725(6) 0.59811(6) 0.21092(6)
H3_159 H 0.3582 0.5989 0.2274
C4_159 C 0.39864(7) 0.56267(6) 0.17510(7)
H4_159 H 0.4062 0.5795 0.1680
C5_159 C 0.33133(6) 0.58595(7) 0.16872(6)
H5_159 H 0.3293 0.5768 0.1513
C6_150 C 0.24719(6) 0.64231(7) 0.24248(7)
H6_159 H 0.2497 0.6492 0.2609
C7_159 C 0.18355(6) 0.60536(7) 0.25334(7)
H7_159 H 0.1902 0.5870 0.2503
C8_159 C 0.36991(7) 0.53190(6) 0.19479(7)
H8_159 H 0.3542 0.5239 0.2037
N12_150 N 0.22271(5) 0.63144(6) 0.23185(6)
Cu4_59 Cu 0.123307(9) 0.662797(9) 0.279505(9)
N1_160 N 0.85846(5) 0.51647(5) 0.47281(5)
N2_160 N 0.87086(5) 0.50452(5) 0.44880(5)
N3_160 N 0.89342(5) 0.56541(5) 0.42807(5)
N4_160 N 0.88591(5) 0.57553(5) 0.45514(5)
C1_160 C 0.84820(7) 0.43064(6) 0.50436(7)
H1_160 H 0.8290 0.4348 0.5019
N7_151 N 0.87040(6) 0.44704(5) 0.49569(6)
C2_151 C 0.87679(7) 0.47806(6) 0.45450(7)
H2_151 H 0.8852 0.4651 0.4421
N9_160 N 0.94046(5) 0.62232(5) 0.43652(5)
N11_160 N 0.92011(5) 0.60141(5) 0.43877(5)
C3_160 C 0.90189(6) 0.59725(6) 0.46092(6)
H3_160 H 0.9011 0.6082 0.4774
C4_160 C 0.93733(6) 0.64864(7) 0.42510(7)
H4_160 H 0.9205 0.6562 0.4180
C5_160 C 0.91405(7) 0.58133(6) 0.41872(6)
H5_160 H 0.9232 0.5793 0.4013
C6_151 C 0.85769(7) 0.49719(6) 0.49248(7)
H6_160 H 0.8508 0.4997 0.5109
C7_160 C 0.89464(7) 0.43355(6) 0.50334(7)
H7_160 H 0.9130 0.4402 0.5003
C8_160 C 0.96810(6) 0.61991(7) 0.44479(7)
H8_160 H 0.9761 0.6042 0.4537
N12_151 N 0.86856(6) 0.47271(5) 0.48185(6)
N1_161 N 0.02719(5) 0.48353(5) 0.14154(5)
N2_161 N 0.05120(5) 0.49548(5) 0.12914(5)
N3_161 N 0.07193(5) 0.43459(5) 0.10658(5)
N4_161 N 0.04486(5) 0.42447(5) 0.11409(5)
N7_152 N 0.00431(6) 0.55296(5) 0.12960(6)
C2_152 C 0.04550(7) 0.52194(6) 0.12321(7)
H2_152 H 0.0579 0.5349 0.1148
N9_161 N 0.06348(5) 0.37768(5) 0.05954(5)
N11_161 N 0.06123(5) 0.39859(5) 0.07989(5)
C3_161 C 0.03908(6) 0.40275(6) 0.09811(6)
H3_161 H 0.0226 0.3918 0.0989
C4_161 C 0.07490(7) 0.35136(7) 0.06267(6)
H4_161 H 0.0820 0.3438 0.0795
C5_161 C 0.08128(6) 0.41867(6) 0.08595(7)
H5_161 H 0.0987 0.4207 0.0768
C6_152 C 0.00752(7) 0.50281(6) 0.14231(7)
C8_161 C 0.05521(7) 0.38009(7) 0.03190(6)
H8_161 H 0.0463 0.3958 0.0239
N12_152 N 0.01815(6) 0.52729(5) 0.13144(6)
N5_93 N 0.98323(6) 0.59201(5) 0.14161(5)
C1_161 C 0.99564(7) 0.56936(6) 0.15180(7)
H1_161 H 0.9981 0.5652 0.1710
H6_161 H 0.9891 0.5003 0.1492
C7_161 C 0.99666(7) 0.56645(6) 0.10536(7)
H7_161 H 0.9997 0.5598 0.0870
Cu4_60 Cu 0.970495(9) 0.626693(9) 0.162797(9)
N1_162 N 0.51647(5) 0.47281(5) 0.85846(5)
N2_162 N 0.50452(5) 0.44880(5) 0.87086(5)
N3_162 N 0.56541(5) 0.42807(5) 0.89342(5)
N4_162 N 0.57553(5) 0.45514(5) 0.88591(5)
C1_162 C 0.43064(6) 0.50436(7) 0.84820(7)
H1_162 H 0.4348 0.5019 0.8290
N7_153 N 0.44704(5) 0.49569(6) 0.87040(6)
C2_153 C 0.47806(6) 0.45450(7) 0.87679(7)
H2_153 H 0.4651 0.4421 0.8852
N9_162 N 0.62232(5) 0.43652(5) 0.94046(5)
N11_162 N 0.60141(5) 0.43877(5) 0.92011(5)
C3_162 C 0.59725(6) 0.46092(6) 0.90189(6)
H3_162 H 0.6082 0.4774 0.9011
C4_162 C 0.64864(7) 0.42510(7) 0.93733(6)
H4_162 H 0.6562 0.4180 0.9205
C5_162 C 0.58133(6) 0.41872(6) 0.91405(7)
H5_162 H 0.5793 0.4013 0.9232
C6_153 C 0.49719(6) 0.49248(7) 0.85769(7)
H6_162 H 0.4997 0.5109 0.8508
C7_162 C 0.43355(6) 0.50334(7) 0.89464(7)
H7_162 H 0.4402 0.5003 0.9130
C8_162 C 0.61991(7) 0.44479(7) 0.96810(6)
H8_162 H 0.6042 0.4537 0.9761
N12_153 N 0.47271(5) 0.48185(6) 0.86856(6)
Cu1_93 Cu 0.029505(9) 0.837203(9) 0.873307(9)
N1_163 N 0.01647(5) 0.77719(5) 0.89154(5)
N2_163 N 0.00452(5) 0.80120(5) 0.87914(5)
N3_163 N 0.06541(5) 0.82193(5) 0.85658(5)
N4_163 N 0.07553(5) 0.79486(5) 0.86409(5)
N9_163 N 0.12232(5) 0.81348(5) 0.80954(5)
N11_163 N 0.10141(5) 0.81123(5) 0.82989(5)
C3_163 C 0.09725(6) 0.78908(6) 0.84811(6)
H3_163 H 0.1082 0.7726 0.8489
C4_163 C 0.14864(7) 0.82490(7) 0.81267(6)
H4_163 H 0.1562 0.8320 0.8295
C5_163 C 0.08133(6) 0.83128(6) 0.83595(7)
H5_163 H 0.0793 0.8487 0.8268
C8_163 C 0.11991(7) 0.80521(7) 0.78190(6)
H8_163 H 0.1042 0.7963 0.7739
N13_93 N 0.01677(6) 0.85839(5) 0.90799(5)
N14_117 N 0.01573(5) 0.86205(5) 0.84033(5)
N6_61 N 0.90967(5) 0.73427(5) 0.86205(5)
C1_163 C 0.93064(6) 0.74564(7) 0.90180(7)
H1_163 H 0.9348 0.7481 0.9210
N7_154 N 0.94704(5) 0.75431(6) 0.87960(6)
C2_154 C 0.97806(6) 0.79550(7) 0.87321(7)
H2_154 H 0.9651 0.8079 0.8648
C6_154 C 0.99719(6) 0.75752(7) 0.89231(7)
H6_163 H 0.9997 0.7391 0.8992
C7_163 C 0.93355(6) 0.74666(7) 0.85536(7)
H7_163 H 0.9402 0.7497 0.8370
N12_154 N 0.97271(5) 0.76815(6) 0.88144(6)
Cu3_34 Cu 0.876693(9) 0.720495(9) 0.837203(9)
N1_164 N 0.73353(5) 0.77719(5) 0.85846(5)
N2_164 N 0.74548(5) 0.80120(5) 0.87086(5)
N3_164 N 0.68459(5) 0.82193(5) 0.89342(5)
N4_164 N 0.67447(5) 0.79486(5) 0.88591(5)
N5_94 N 0.84201(5) 0.73323(6) 0.85839(5)
C1_164 C 0.81936(6) 0.74564(7) 0.84820(7)
H1_164 H 0.8152 0.7481 0.8290
N7_155 N 0.80296(5) 0.75431(6) 0.87040(6)
C2_155 C 0.77194(6) 0.79550(7) 0.87679(7)
H2_155 H 0.7849 0.8079 0.8852
N9_164 N 0.62768(5) 0.81348(5) 0.94046(5)
N11_164 N 0.64859(5) 0.81123(5) 0.92011(5)
C3_164 C 0.65275(6) 0.78908(6) 0.90189(6)
H3_164 H 0.6418 0.7726 0.9011
C4_164 C 0.60136(7) 0.82490(7) 0.93733(6)
H4_164 H 0.5938 0.8320 0.9205
C5_164 C 0.66867(6) 0.83128(6) 0.91405(7)
H5_164 H 0.6707 0.8487 0.9232
C6_155 C 0.75281(6) 0.75752(7) 0.85769(7)
H6_164 H 0.7503 0.7391 0.8508
C7_164 C 0.81645(6) 0.74666(7) 0.89464(7)
H7_164 H 0.8098 0.7497 0.9130
C8_164 C 0.63009(7) 0.80521(7) 0.96810(6)
H8_164 H 0.6458 0.7963 0.9761
N12_155 N 0.77729(5) 0.76815(6) 0.86856(6)
N1_165 N 0.23353(5) 0.47281(5) 0.89154(5)
N2_165 N 0.24548(5) 0.44880(5) 0.87914(5)
N3_165 N 0.18459(5) 0.42807(5) 0.85658(5)
N4_165 N 0.17447(5) 0.45514(5) 0.86409(5)
C1_165 C 0.31936(6) 0.50436(7) 0.90180(7)
H1_165 H 0.3152 0.5019 0.9210
N7_156 N 0.30296(5) 0.49569(6) 0.87960(6)
C2_156 C 0.27194(6) 0.45450(7) 0.87321(7)
H2_156 H 0.2849 0.4421 0.8648
N9_165 N 0.12768(5) 0.43652(5) 0.80954(5)
N11_165 N 0.14859(5) 0.43877(5) 0.82989(5)
C3_165 C 0.15275(6) 0.46092(6) 0.84811(6)
H3_165 H 0.1418 0.4774 0.8489
C4_165 C 0.10136(7) 0.42510(7) 0.81267(6)
H4_165 H 0.0938 0.4180 0.8295
C5_165 C 0.16867(6) 0.41872(6) 0.83595(7)
H5_165 H 0.1707 0.4013 0.8268
C6_156 C 0.25281(6) 0.49248(7) 0.89231(7)
H6_165 H 0.2503 0.5109 0.8992
C7_165 C 0.31645(6) 0.50334(7) 0.85536(7)
H7_165 H 0.3098 0.5003 0.8370
C8_165 C 0.13009(7) 0.44479(7) 0.78190(6)
H8_165 H 0.1458 0.4537 0.7739
N12_156 N 0.27729(5) 0.48185(6) 0.88144(6)
Cu1_94 Cu 0.087203(9) 0.779505(9) 0.126693(9)
N1_166 N 0.02719(5) 0.76647(5) 0.10846(5)
N2_166 N 0.05120(5) 0.75452(5) 0.12086(5)
N3_166 N 0.07193(5) 0.81541(5) 0.14342(5)
N4_166 N 0.04486(5) 0.82553(5) 0.13591(5)
N7_157 N 0.00431(6) 0.69704(5) 0.12040(6)
C2_157 C 0.04550(7) 0.72806(6) 0.12679(7)
H2_157 H 0.0579 0.7151 0.1352
N9_166 N 0.06348(5) 0.87232(5) 0.19046(5)
N11_166 N 0.06123(5) 0.85141(5) 0.17011(5)
C3_166 C 0.03908(6) 0.84725(6) 0.15189(6)
H3_166 H 0.0226 0.8582 0.1511
C4_166 C 0.07490(7) 0.89864(7) 0.18733(6)
H4_166 H 0.0820 0.9062 0.1705
C5_166 C 0.08128(6) 0.83133(6) 0.16405(7)
H5_166 H 0.0987 0.8293 0.1732
C6_157 C 0.00752(7) 0.74719(6) 0.10769(7)
C8_166 C 0.05521(7) 0.86991(7) 0.21810(6)
H8_166 H 0.0463 0.8542 0.2261
N12_157 N 0.01815(6) 0.72271(5) 0.11856(6)
N13_94 N 0.10839(5) 0.76677(6) 0.09201(5)
N14_118 N 0.11205(5) 0.76573(5) 0.15967(5)
N6_62 N 0.98427(5) 0.65967(5) 0.13795(5)
C1_166 C 0.99564(7) 0.68064(6) 0.09820(7)
H1_166 H 0.9981 0.6848 0.0790
H6_166 H 0.9891 0.7497 0.1008
C7_166 C 0.99666(7) 0.68355(6) 0.14464(7)
H7_166 H 0.9997 0.6902 0.1630
N1_167 N 0.72281(5) 0.26647(5) 0.14154(5)
N2_167 N 0.69880(5) 0.25452(5) 0.12914(5)
N3_167 N 0.67807(5) 0.31541(5) 0.10658(5)
N4_167 N 0.70514(5) 0.32553(5) 0.11409(5)
C1_167 C 0.75436(7) 0.18064(6) 0.15180(7)
H1_167 H 0.7519 0.1848 0.1710
N7_158 N 0.74569(6) 0.19704(5) 0.12960(6)
C2_158 C 0.70450(7) 0.22806(6) 0.12321(7)
H2_158 H 0.6921 0.2151 0.1148
N9_167 N 0.68652(5) 0.37232(5) 0.05954(5)
N11_167 N 0.68877(5) 0.35141(5) 0.07989(5)
C3_167 C 0.71092(6) 0.34725(6) 0.09811(6)
H3_167 H 0.7274 0.3582 0.0989
C4_167 C 0.67510(7) 0.39864(7) 0.06267(6)
H4_167 H 0.6680 0.4062 0.0795
C5_167 C 0.66872(6) 0.33133(6) 0.08595(7)
H5_167 H 0.6513 0.3293 0.0768
C6_158 C 0.74248(7) 0.24719(6) 0.14231(7)
H6_167 H 0.7609 0.2497 0.1492
C7_167 C 0.75334(7) 0.18355(6) 0.10536(7)
H7_167 H 0.7503 0.1902 0.0870
C8_167 C 0.69479(7) 0.36991(7) 0.03190(6)
H8_167 H 0.7037 0.3542 0.0239
N12_158 N 0.73185(6) 0.22271(5) 0.13144(6)
C1_168 C 0.75436(7) 0.06936(6) 0.09820(7)
H1_168 H 0.7519 0.0652 0.0790
N7_159 N 0.74569(6) 0.05296(5) 0.12040(6)
C2_159 C 0.70450(7) 0.02194(6) 0.12679(7)
H2_159 H 0.6921 0.0349 0.1352
C6_159 C 0.74248(7) 0.00281(6) 0.10769(7)
H6_168 H 0.7609 0.0003 0.1008
C7_168 C 0.75334(7) 0.06645(6) 0.14464(7)
H7_168 H 0.7503 0.0598 0.1630
N12_159 N 0.73185(6) 0.02729(5) 0.11856(6)
N1_168 N 0.72281(5) 0.98353(5) 0.10846(5)
N2_168 N 0.69880(5) 0.99548(5) 0.12086(5)
N3_168 N 0.67807(5) 0.93459(5) 0.14342(5)
N4_168 N 0.70514(5) 0.92447(5) 0.13591(5)
N9_168 N 0.68652(5) 0.87768(5) 0.19046(5)
N11_168 N 0.68877(5) 0.89859(5) 0.17011(5)
C3_168 C 0.71092(6) 0.90275(6) 0.15189(6)
H3_168 H 0.7274 0.8918 0.1511
C4_168 C 0.67510(7) 0.85136(7) 0.18733(6)
H4_168 H 0.6680 0.8438 0.1705
C5_168 C 0.66872(6) 0.91867(6) 0.16405(7)
H5_168 H 0.6513 0.9207 0.1732
C8_168 C 0.69479(7) 0.88009(7) 0.21810(6)
H8_168 H 0.7037 0.8958 0.2261
N1_169 N 0.14154(5) 0.02719(5) 0.48353(5)
N2_169 N 0.12914(5) 0.05120(5) 0.49548(5)
N3_169 N 0.10658(5) 0.07193(5) 0.43459(5)
N4_169 N 0.11409(5) 0.04486(5) 0.42447(5)
N7_160 N 0.12960(6) 0.00431(6) 0.55296(5)
C2_160 C 0.12321(7) 0.04550(7) 0.52194(6)
H2_160 H 0.1148 0.0579 0.5349
N9_169 N 0.05954(5) 0.06348(5) 0.37768(5)
N11_169 N 0.07989(5) 0.06123(5) 0.39859(5)
C3_169 C 0.09811(6) 0.03908(6) 0.40275(6)
H3_169 H 0.0989 0.0226 0.3918
C4_169 C 0.06267(6) 0.07490(7) 0.35136(7)
H4_169 H 0.0795 0.0820 0.3438
C5_169 C 0.08595(7) 0.08128(6) 0.41867(6)
H5_169 H 0.0768 0.0987 0.4207
C6_160 C 0.14231(7) 0.00752(7) 0.50281(6)
C8_169 C 0.03190(6) 0.05521(7) 0.38009(7)
H8_169 H 0.0239 0.0463 0.3958
N12_160 N 0.13144(6) 0.01815(6) 0.52729(5)
N14_119 N 0.09033(5) 0.11205(5) 0.48427(5)
N6_63 N 0.11205(5) 0.98427(5) 0.59033(5)
C1_169 C 0.15180(7) 0.99564(7) 0.56936(6)
H1_169 H 0.1710 0.9981 0.5652
H6_169 H 0.1492 0.9891 0.5003
C7_169 C 0.10536(7) 0.99666(7) 0.56645(6)
H7_169 H 0.0870 0.9997 0.5598
Cu3_35 Cu 0.087203(9) 0.970495(9) 0.623307(9)
C1_170 C 0.00436(7) 0.90180(7) 0.81936(6)
H1_170 H 0.0019 0.9210 0.8152
H6_170 H 0.0109 0.8992 0.7503
C7_170 C 0.00334(7) 0.85536(7) 0.81645(6)
H7_170 H 0.0003 0.8370 0.8098
N1_170 N 0.97281(5) 0.89154(5) 0.73353(5)
N2_170 N 0.94880(5) 0.87914(5) 0.74548(5)
N3_170 N 0.92807(5) 0.85658(5) 0.68459(5)
N4_170 N 0.95514(5) 0.86409(5) 0.67447(5)
N7_161 N 0.99569(6) 0.87960(6) 0.80296(5)
C2_161 C 0.95450(7) 0.87321(7) 0.77194(6)
H2_161 H 0.9421 0.8648 0.7849
N9_170 N 0.93652(5) 0.80954(5) 0.62768(5)
N11_170 N 0.93877(5) 0.82989(5) 0.64859(5)
C3_170 C 0.96092(6) 0.84811(6) 0.65275(6)
H3_170 H 0.9774 0.8489 0.6418
C4_170 C 0.92510(7) 0.81267(6) 0.60136(7)
H4_170 H 0.9180 0.8295 0.5938
C5_170 C 0.91872(6) 0.83595(7) 0.66867(6)
H5_170 H 0.9013 0.8268 0.6707
C6_161 C 0.99248(7) 0.89231(7) 0.75281(6)
C8_170 C 0.94479(7) 0.78190(6) 0.63009(7)
H8_170 H 0.9537 0.7739 0.6458
N12_161 N 0.98185(6) 0.88144(6) 0.77729(5)
N14_120 N 0.88795(5) 0.84033(5) 0.73427(5)
C1_171 C 0.09820(7) 0.75436(7) 0.06936(6)
H1_171 H 0.0790 0.7519 0.0652
N7_162 N 0.12040(6) 0.74569(6) 0.05296(5)
C2_162 C 0.12679(7) 0.70450(7) 0.02194(6)
H2_162 H 0.1352 0.6921 0.0349
C6_162 C 0.10769(7) 0.74248(7) 0.00281(6)
H6_171 H 0.1008 0.7609 0.0003
C7_171 C 0.14464(7) 0.75334(7) 0.06645(6)
H7_171 H 0.1630 0.7503 0.0598
N12_162 N 0.11856(6) 0.73185(6) 0.02729(5)
N1_171 N 0.10846(5) 0.72281(5) 0.98353(5)
N2_171 N 0.12086(5) 0.69880(5) 0.99548(5)
N3_171 N 0.14342(5) 0.67807(5) 0.93459(5)
N4_171 N 0.13591(5) 0.70514(5) 0.92447(5)
N9_171 N 0.19046(5) 0.68652(5) 0.87768(5)
N11_171 N 0.17011(5) 0.68877(5) 0.89859(5)
C3_171 C 0.15189(6) 0.71092(6) 0.90275(6)
H3_171 H 0.1511 0.7274 0.8918
C4_171 C 0.18733(6) 0.67510(7) 0.85136(7)
H4_171 H 0.1705 0.6680 0.8438
C5_171 C 0.16405(7) 0.66872(6) 0.91867(6)
H5_171 H 0.1732 0.6513 0.9207
C8_171 C 0.21810(6) 0.69479(7) 0.88009(7)
H8_171 H 0.2261 0.7037 0.8958
N14_121 N 0.15967(5) 0.63795(5) 0.98427(5)
N1_172 N 0.27719(5) 0.85846(5) 0.23353(5)
N2_172 N 0.30120(5) 0.87086(5) 0.24548(5)
N3_172 N 0.32193(5) 0.89342(5) 0.18459(5)
N4_172 N 0.29486(5) 0.88591(5) 0.17447(5)
N6_64 N 0.23427(5) 0.88795(5) 0.34033(5)
C1_172 C 0.24564(7) 0.84820(7) 0.31936(6)
H1_172 H 0.2481 0.8290 0.3152
N7_163 N 0.25431(6) 0.87040(6) 0.30296(5)
C2_163 C 0.29550(7) 0.87679(7) 0.27194(6)
H2_163 H 0.3079 0.8852 0.2849
N9_172 N 0.31348(5) 0.94046(5) 0.12768(5)
N11_172 N 0.31123(5) 0.92011(5) 0.14859(5)
C3_172 C 0.28908(6) 0.90189(6) 0.15275(6)
H3_172 H 0.2726 0.9011 0.1418
C4_172 C 0.32490(7) 0.93733(6) 0.10136(7)
H4_172 H 0.3320 0.9205 0.0938
C5_172 C 0.33128(6) 0.91405(7) 0.16867(6)
H5_172 H 0.3487 0.9232 0.1707
C6_163 C 0.25752(7) 0.85769(7) 0.25281(6)
H6_172 H 0.2391 0.8508 0.2503
C7_172 C 0.24666(7) 0.89464(7) 0.31645(6)
H7_172 H 0.2497 0.9130 0.3098
C8_172 C 0.30521(7) 0.96810(6) 0.13009(7)
H8_172 H 0.2963 0.9761 0.1458
N12_163 N 0.26815(6) 0.86856(6) 0.27729(5)
Cu3_36 Cu 0.220495(9) 0.912797(9) 0.373307(9)
N14_122 N 0.36205(5) 0.90967(5) 0.23427(5)
N1_173 N 0.14154(5) 0.72281(5) 0.26647(5)
N2_173 N 0.12914(5) 0.69880(5) 0.25452(5)
N3_173 N 0.10658(5) 0.67807(5) 0.31541(5)
N4_173 N 0.11409(5) 0.70514(5) 0.32553(5)
C1_173 C 0.15180(7) 0.75436(7) 0.18064(6)
H1_173 H 0.1710 0.7519 0.1848
N7_164 N 0.12960(6) 0.74569(6) 0.19704(5)
C2_164 C 0.12321(7) 0.70450(7) 0.22806(6)
H2_164 H 0.1148 0.6921 0.2151
N9_173 N 0.05954(5) 0.68652(5) 0.37232(5)
N11_173 N 0.07989(5) 0.68877(5) 0.35141(5)
C3_173 C 0.09811(6) 0.71092(6) 0.34725(6)
H3_173 H 0.0989 0.7274 0.3582
C4_173 C 0.06267(6) 0.67510(7) 0.39864(7)
H4_173 H 0.0795 0.6680 0.4062
C5_173 C 0.08595(7) 0.66872(6) 0.33133(6)
H5_173 H 0.0768 0.6513 0.3293
C6_164 C 0.14231(7) 0.74248(7) 0.24719(6)
H6_173 H 0.1492 0.7609 0.2497
C7_173 C 0.10536(7) 0.75334(7) 0.18355(6)
H7_173 H 0.0870 0.7503 0.1902
C8_173 C 0.03190(6) 0.69479(7) 0.36991(7)
H8_173 H 0.0239 0.7037 0.3542
N12_164 N 0.13144(6) 0.73185(6) 0.22271(5)
N14_123 N 0.09033(5) 0.63795(5) 0.26573(5)
N1_174 N 0.27719(5) 0.89154(5) 0.51647(5)
N2_174 N 0.30120(5) 0.87914(5) 0.50452(5)
N3_174 N 0.32193(5) 0.85658(5) 0.56541(5)
N4_174 N 0.29486(5) 0.86409(5) 0.57553(5)
N5_95 N 0.23323(6) 0.89161(5) 0.40799(5)
C1_174 C 0.24564(7) 0.90180(7) 0.43064(6)
H1_174 H 0.2481 0.9210 0.4348
N7_165 N 0.25431(6) 0.87960(6) 0.44704(5)
C2_165 C 0.29550(7) 0.87321(7) 0.47806(6)
H2_165 H 0.3079 0.8648 0.4651
N9_174 N 0.31348(5) 0.80954(5) 0.62232(5)
N11_174 N 0.31123(5) 0.82989(5) 0.60141(5)
C3_174 C 0.28908(6) 0.84811(6) 0.59725(6)
H3_174 H 0.2726 0.8489 0.6082
C4_174 C 0.32490(7) 0.81267(6) 0.64864(7)
H4_174 H 0.3320 0.8295 0.6562
C5_174 C 0.33128(6) 0.83595(7) 0.58133(6)
H5_174 H 0.3487 0.8268 0.5793
C6_165 C 0.25752(7) 0.89231(7) 0.49719(6)
H6_174 H 0.2391 0.8992 0.4997
C7_174 C 0.24666(7) 0.85536(7) 0.43355(6)
H7_174 H 0.2497 0.8370 0.4402
C8_174 C 0.30521(7) 0.78190(6) 0.61991(7)
H8_174 H 0.2963 0.7739 0.6042
N12_165 N 0.26815(6) 0.88144(6) 0.47271(5)
N14_124 N 0.36205(5) 0.84033(5) 0.51573(5)
N1_175 N 0.10846(5) 0.02719(5) 0.76647(5)
N2_175 N 0.12086(5) 0.05120(5) 0.75452(5)
N3_175 N 0.14342(5) 0.07193(5) 0.81541(5)
N4_175 N 0.13591(5) 0.04486(5) 0.82553(5)
N7_166 N 0.12040(6) 0.00431(6) 0.69704(5)
C2_166 C 0.12679(7) 0.04550(7) 0.72806(6)
H2_166 H 0.1352 0.0579 0.7151
N9_175 N 0.19046(5) 0.06348(5) 0.87232(5)
N11_175 N 0.17011(5) 0.06123(5) 0.85141(5)
C3_175 C 0.15189(6) 0.03908(6) 0.84725(6)
H3_175 H 0.1511 0.0226 0.8582
C4_175 C 0.18733(6) 0.07490(7) 0.89864(7)
H4_175 H 0.1705 0.0820 0.9062
C5_175 C 0.16405(7) 0.08128(6) 0.83133(6)
H5_175 H 0.1732 0.0987 0.8293
C6_166 C 0.10769(7) 0.00752(7) 0.74719(6)
C8_175 C 0.21810(6) 0.05521(7) 0.86991(7)
H8_175 H 0.2261 0.0463 0.8542
N12_166 N 0.11856(6) 0.01815(6) 0.72271(5)
N14_125 N 0.15967(5) 0.11205(5) 0.76573(5)
N5_96 N 0.10839(5) 0.98323(6) 0.65799(5)
C1_175 C 0.09820(7) 0.99564(7) 0.68064(6)
H1_175 H 0.0790 0.9981 0.6848
H6_175 H 0.1008 0.9891 0.7497
C7_175 C 0.14464(7) 0.99666(7) 0.68355(6)
H7_175 H 0.1630 0.9997 0.6902
C1_176 C 0.00436(7) 0.84820(7) 0.93064(6)
H1_176 H 0.0019 0.8290 0.9348
H6_176 H 0.0109 0.8508 0.9997
C7_176 C 0.00334(7) 0.89464(7) 0.93355(6)
H7_176 H 0.0003 0.9130 0.9402
N1_176 N 0.97281(5) 0.85846(5) 0.01647(5)
N2_176 N 0.94880(5) 0.87086(5) 0.00452(5)
N3_176 N 0.92807(5) 0.89342(5) 0.06541(5)
N4_176 N 0.95514(5) 0.88591(5) 0.07553(5)
N9_176 N 0.93652(5) 0.94046(5) 0.12232(5)
N11_176 N 0.93877(5) 0.92011(5) 0.10141(5)
C3_176 C 0.96092(6) 0.90189(6) 0.09725(6)
H3_176 H 0.9774 0.9011 0.1082
C4_176 C 0.92510(7) 0.93733(6) 0.14864(7)
H4_176 H 0.9180 0.9205 0.1562
C5_176 C 0.91872(6) 0.91405(7) 0.08133(6)
H5_176 H 0.9013 0.9232 0.0793
C8_176 C 0.94479(7) 0.96810(6) 0.11991(7)
H8_176 H 0.9537 0.9761 0.1042
N14_126 N 0.88795(5) 0.90967(5) 0.01573(5)
C1_177 C 0.06936(6) 0.15180(7) 0.49564(7)
H1_177 H 0.0652 0.1710 0.4981
N7_167 N 0.05296(5) 0.12960(6) 0.50431(6)
C2_167 C 0.02194(6) 0.12321(7) 0.54550(7)
H2_167 H 0.0349 0.1148 0.5579
C6_167 C 0.00281(6) 0.14231(7) 0.50752(7)
H6_177 H 0.0003 0.1492 0.4891
C7_177 C 0.06645(6) 0.10536(7) 0.49666(7)
H7_177 H 0.0598 0.0870 0.4997
N12_167 N 0.02729(5) 0.13144(6) 0.51815(6)
Cu1_95 Cu 0.970495(9) 0.123307(9) 0.587203(9)
N1_177 N 0.98353(5) 0.14154(5) 0.52719(5)
N2_177 N 0.99548(5) 0.12914(5) 0.55120(5)
N3_177 N 0.93459(5) 0.10658(5) 0.57193(5)
N4_177 N 0.92447(5) 0.11409(5) 0.54486(5)
N9_177 N 0.87768(5) 0.05954(5) 0.56348(5)
N11_177 N 0.89859(5) 0.07989(5) 0.56123(5)
C3_177 C 0.90275(6) 0.09811(6) 0.53908(6)
H3_177 H 0.8918 0.0989 0.5226
C4_177 C 0.85136(7) 0.06267(6) 0.57490(7)
H4_177 H 0.8438 0.0795 0.5820
C5_177 C 0.91867(6) 0.08595(7) 0.58128(6)
H5_177 H 0.9207 0.0768 0.5987
C8_177 C 0.88009(7) 0.03190(6) 0.55521(7)
H8_177 H 0.8958 0.0239 0.5463
N13_95 N 0.98323(6) 0.15799(5) 0.60839(5)
N14_127 N 0.98427(5) 0.09033(5) 0.61205(5)
N1_178 N 0.85846(5) 0.73353(5) 0.77719(5)
N2_178 N 0.87086(5) 0.74548(5) 0.80120(5)
N3_178 N 0.89342(5) 0.68459(5) 0.82193(5)
N4_178 N 0.88591(5) 0.67447(5) 0.79486(5)
C1_178 C 0.84820(7) 0.81936(6) 0.74564(7)
H1_178 H 0.8290 0.8152 0.7481
N7_168 N 0.87040(6) 0.80296(5) 0.75431(6)
C2_168 C 0.87679(7) 0.77194(6) 0.79550(7)
H2_168 H 0.8852 0.7849 0.8079
N9_178 N 0.94046(5) 0.62768(5) 0.81348(5)
N11_178 N 0.92011(5) 0.64859(5) 0.81123(5)
C3_178 C 0.90189(6) 0.65275(6) 0.78908(6)
H3_178 H 0.9011 0.6418 0.7726
C4_178 C 0.93733(6) 0.60136(7) 0.82490(7)
H4_178 H 0.9205 0.5938 0.8320
C5_178 C 0.91405(7) 0.66867(6) 0.83128(6)
H5_178 H 0.9232 0.6707 0.8487
C6_168 C 0.85769(7) 0.75281(6) 0.75752(7)
H6_178 H 0.8508 0.7503 0.7391
C7_178 C 0.89464(7) 0.81645(6) 0.74666(7)
H7_178 H 0.9130 0.8098 0.7497
C8_178 C 0.96810(6) 0.63009(7) 0.80521(7)
H8_178 H 0.9761 0.6458 0.7963
N12_168 N 0.86856(6) 0.77729(5) 0.76815(6)
N1_179 N 0.26647(5) 0.60846(5) 0.02719(5)
N2_179 N 0.25452(5) 0.62086(5) 0.05120(5)
N3_179 N 0.31541(5) 0.64342(5) 0.07193(5)
N4_179 N 0.32553(5) 0.63591(5) 0.04486(5)
N7_169 N 0.19704(5) 0.62040(6) 0.00431(6)
C2_169 C 0.22806(6) 0.62679(7) 0.04550(7)
H2_169 H 0.2151 0.6352 0.0579
N9_179 N 0.37232(5) 0.69046(5) 0.06348(5)
N11_179 N 0.35141(5) 0.67011(5) 0.06123(5)
C3_179 C 0.34725(6) 0.65189(6) 0.03908(6)
H3_179 H 0.3582 0.6511 0.0226
C4_179 C 0.39864(7) 0.68733(6) 0.07490(7)
H4_179 H 0.4062 0.6705 0.0820
C5_179 C 0.33133(6) 0.66405(7) 0.08128(6)
H5_179 H 0.3293 0.6732 0.0987
C6_169 C 0.24719(6) 0.60769(7) 0.00752(7)
C8_179 C 0.36991(7) 0.71810(6) 0.05521(7)
H8_179 H 0.3542 0.7261 0.0463
N12_169 N 0.22271(5) 0.61856(6) 0.01815(6)
C1_179 C 0.18064(6) 0.59820(7) 0.99564(7)
H1_179 H 0.1848 0.5790 0.9981
H6_179 H 0.2497 0.6008 0.9891
C7_179 C 0.18355(6) 0.64464(7) 0.99666(7)
H7_179 H 0.1902 0.6630 0.9997
Cu1_96 Cu 0.373307(9) 0.029505(9) 0.337203(9)
N1_180 N 0.39154(5) 0.01647(5) 0.27719(5)
N2_180 N 0.37914(5) 0.00452(5) 0.30120(5)
N3_180 N 0.35658(5) 0.06541(5) 0.32193(5)
N4_180 N 0.36409(5) 0.07553(5) 0.29486(5)
N9_180 N 0.30954(5) 0.12232(5) 0.31348(5)
N11_180 N 0.32989(5) 0.10141(5) 0.31123(5)
C3_180 C 0.34811(6) 0.09725(6) 0.28908(6)
H3_180 H 0.3489 0.1082 0.2726
C4_180 C 0.31267(6) 0.14864(7) 0.32490(7)
H4_180 H 0.3295 0.1562 0.3320
C5_180 C 0.33595(7) 0.08133(6) 0.33128(6)
H5_180 H 0.3268 0.0793 0.3487
C8_180 C 0.28190(6) 0.11991(7) 0.30521(7)
H8_180 H 0.2739 0.1042 0.2963
N13_96 N 0.40799(5) 0.01677(6) 0.35839(5)
N14_128 N 0.34033(5) 0.01573(5) 0.36205(5)
C1_180 C 0.40180(7) 0.93064(6) 0.24564(7)
H1_180 H 0.4210 0.9348 0.2481
N7_170 N 0.37960(6) 0.94704(5) 0.25431(6)
C2_170 C 0.37321(7) 0.97806(6) 0.29550(7)
H2_170 H 0.3648 0.9651 0.3079
C6_170 C 0.39231(7) 0.99719(6) 0.25752(7)
H6_180 H 0.3992 0.9997 0.2391
C7_180 C 0.35536(7) 0.93355(6) 0.24666(7)
H7_180 H 0.3370 0.9402 0.2497
N12_170 N 0.38144(6) 0.97271(5) 0.26815(6)
C1_181 C 0.06936(6) 0.59820(7) 0.25436(7)
H1_181 H 0.0652 0.5790 0.2519
N7_171 N 0.05296(5) 0.62040(6) 0.24569(6)
C2_171 C 0.02194(6) 0.62679(7) 0.20450(7)
H2_171 H 0.0349 0.6352 0.1921
C6_171 C 0.00281(6) 0.60769(7) 0.24248(7)
H6_181 H 0.0003 0.6008 0.2609
C7_181 C 0.06645(6) 0.64464(7) 0.25334(7)
H7_181 H 0.0598 0.6630 0.2503
N12_171 N 0.02729(5) 0.61856(6) 0.23185(6)
N1_181 N 0.98353(5) 0.60846(5) 0.22281(5)
N2_181 N 0.99548(5) 0.62086(5) 0.19880(5)
N3_181 N 0.93459(5) 0.64342(5) 0.17807(5)
N4_181 N 0.92447(5) 0.63591(5) 0.20514(5)
N9_181 N 0.87768(5) 0.69046(5) 0.18652(5)
N11_181 N 0.89859(5) 0.67011(5) 0.18877(5)
C3_181 C 0.90275(6) 0.65189(6) 0.21092(6)
H3_181 H 0.8918 0.6511 0.2274
C4_181 C 0.85136(7) 0.68733(6) 0.17510(7)
H4_181 H 0.8438 0.6705 0.1680
C5_181 C 0.91867(6) 0.66405(7) 0.16872(6)
H5_181 H 0.9207 0.6732 0.1513
C8_181 C 0.88009(7) 0.71810(6) 0.19479(7)
H8_181 H 0.8958 0.7261 0.2037
N1_182 N 0.39154(5) 0.73353(5) 0.47281(5)
N2_182 N 0.37914(5) 0.74548(5) 0.44880(5)
N3_182 N 0.35658(5) 0.68459(5) 0.42807(5)
N4_182 N 0.36409(5) 0.67447(5) 0.45514(5)
C1_182 C 0.40180(7) 0.81936(6) 0.50436(7)
H1_182 H 0.4210 0.8152 0.5019
N7_172 N 0.37960(6) 0.80296(5) 0.49569(6)
C2_172 C 0.37321(7) 0.77194(6) 0.45450(7)
H2_172 H 0.3648 0.7849 0.4421
N9_182 N 0.30954(5) 0.62768(5) 0.43652(5)
N11_182 N 0.32989(5) 0.64859(5) 0.43877(5)
C3_182 C 0.34811(6) 0.65275(6) 0.46092(6)
H3_182 H 0.3489 0.6418 0.4774
C4_182 C 0.31267(6) 0.60136(7) 0.42510(7)
H4_182 H 0.3295 0.5938 0.4180
C5_182 C 0.33595(7) 0.66867(6) 0.41872(6)
H5_182 H 0.3268 0.6707 0.4013
C6_172 C 0.39231(7) 0.75281(6) 0.49248(7)
H6_182 H 0.3992 0.7503 0.5109
C7_182 C 0.35536(7) 0.81645(6) 0.50334(7)
H7_182 H 0.3370 0.8098 0.5003
C8_182 C 0.28190(6) 0.63009(7) 0.44479(7)
H8_182 H 0.2739 0.6458 0.4537
N12_172 N 0.38144(6) 0.77729(5) 0.48185(6)
N1_183 N 0.26647(5) 0.14154(5) 0.72281(5)
N2_183 N 0.25452(5) 0.12914(5) 0.69880(5)
N3_183 N 0.31541(5) 0.10658(5) 0.67807(5)
N4_183 N 0.32553(5) 0.11409(5) 0.70514(5)
C1_183 C 0.18064(6) 0.15180(7) 0.75436(7)
H1_183 H 0.1848 0.1710 0.7519
N7_173 N 0.19704(5) 0.12960(6) 0.74569(6)
C2_173 C 0.22806(6) 0.12321(7) 0.70450(7)
H2_173 H 0.2151 0.1148 0.6921
N9_183 N 0.37232(5) 0.05954(5) 0.68652(5)
N11_183 N 0.35141(5) 0.07989(5) 0.68877(5)
C3_183 C 0.34725(6) 0.09811(6) 0.71092(6)
H3_183 H 0.3582 0.0989 0.7274
C4_183 C 0.39864(7) 0.06267(6) 0.67510(7)
H4_183 H 0.4062 0.0795 0.6680
C5_183 C 0.33133(6) 0.08595(7) 0.66872(6)
H5_183 H 0.3293 0.0768 0.6513
C6_173 C 0.24719(6) 0.14231(7) 0.74248(7)
H6_183 H 0.2497 0.1492 0.7609
C7_183 C 0.18355(6) 0.10536(7) 0.75334(7)
H7_183 H 0.1902 0.0870 0.7503
C8_183 C 0.36991(7) 0.03190(6) 0.69479(7)
H8_183 H 0.3542 0.0239 0.7037
N12_173 N 0.22271(5) 0.13144(6) 0.73185(6)
N1_184 N 0.85846(5) 0.01647(5) 0.97281(5)
N2_184 N 0.87086(5) 0.00452(5) 0.94880(5)
N3_184 N 0.89342(5) 0.06541(5) 0.92807(5)
N4_184 N 0.88591(5) 0.07553(5) 0.95514(5)
N9_184 N 0.94046(5) 0.12232(5) 0.93652(5)
N11_184 N 0.92011(5) 0.10141(5) 0.93877(5)
C3_184 C 0.90189(6) 0.09725(6) 0.96092(6)
H3_184 H 0.9011 0.1082 0.9774
C4_184 C 0.93733(6) 0.14864(7) 0.92510(7)
H4_184 H 0.9205 0.1562 0.9180
C5_184 C 0.91405(7) 0.08133(6) 0.91872(6)
H5_184 H 0.9232 0.0793 0.9013
C8_184 C 0.96810(6) 0.11991(7) 0.94479(7)
H8_184 H 0.9761 0.1042 0.9537
C1_184 C 0.84820(7) 0.93064(6) 0.00436(7)
H1_184 H 0.8290 0.9348 0.0019
H6_184 H 0.8508 0.9997 0.0109
C7_184 C 0.89464(7) 0.93355(6) 0.00334(7)
H7_184 H 0.9130 0.9402 0.0003
N1_185 N 0.02719(5) 0.98353(5) 0.64154(5)
N2_185 N 0.05120(5) 0.99548(5) 0.62914(5)
N3_185 N 0.07193(5) 0.93459(5) 0.60658(5)
N4_185 N 0.04486(5) 0.92447(5) 0.61409(5)
N9_185 N 0.06348(5) 0.87768(5) 0.55954(5)
N11_185 N 0.06123(5) 0.89859(5) 0.57989(5)
C3_185 C 0.03908(6) 0.90275(6) 0.59811(6)
H3_185 H 0.0226 0.8918 0.5989
C4_185 C 0.07490(7) 0.85136(7) 0.56267(6)
H4_185 H 0.0820 0.8438 0.5795
C5_185 C 0.08128(6) 0.91867(6) 0.58595(7)
H5_185 H 0.0987 0.9207 0.5768
C8_185 C 0.05521(7) 0.88009(7) 0.53190(6)
H8_185 H 0.0463 0.8958 0.5239
C1_185 C 0.99564(7) 0.06936(6) 0.65180(7)
H1_185 H 0.9981 0.0652 0.6710
H6_185 H 0.9891 0.0003 0.6492
C7_185 C 0.99666(7) 0.06645(6) 0.60536(7)
H7_185 H 0.9997 0.0598 0.5870
C1_186 C 0.43064(6) 0.00436(7) 0.34820(7)
H1_186 H 0.4348 0.0019 0.3290
H6_186 H 0.4997 0.0109 0.3508
C7_186 C 0.43355(6) 0.00334(7) 0.39464(7)
H7_186 H 0.4402 0.0003 0.4130
N1_186 N 0.51647(5) 0.97281(5) 0.35846(5)
N2_186 N 0.50452(5) 0.94880(5) 0.37086(5)
N3_186 N 0.56541(5) 0.92807(5) 0.39342(5)
N4_186 N 0.57553(5) 0.95514(5) 0.38591(5)
N7_174 N 0.44704(5) 0.99569(6) 0.37040(6)
C2_174 C 0.47806(6) 0.95450(7) 0.37679(7)
H2_174 H 0.4651 0.9421 0.3852
N9_186 N 0.62232(5) 0.93652(5) 0.44046(5)
N11_186 N 0.60141(5) 0.93877(5) 0.42011(5)
C3_186 C 0.59725(6) 0.96092(6) 0.40189(6)
H3_186 H 0.6082 0.9774 0.4011
C4_186 C 0.64864(7) 0.92510(7) 0.43733(6)
H4_186 H 0.6562 0.9180 0.4205
C5_186 C 0.58133(6) 0.91872(6) 0.41405(7)
H5_186 H 0.5793 0.9013 0.4232
C6_174 C 0.49719(6) 0.99248(7) 0.35769(7)
C8_186 C 0.61991(7) 0.94479(7) 0.46810(6)
H8_186 H 0.6042 0.9537 0.4761
N12_174 N 0.47271(5) 0.98185(6) 0.36856(6)
N1_187 N 0.01647(5) 0.27719(5) 0.39154(5)
N2_187 N 0.00452(5) 0.30120(5) 0.37914(5)
N3_187 N 0.06541(5) 0.32193(5) 0.35658(5)
N4_187 N 0.07553(5) 0.29486(5) 0.36409(5)
N9_187 N 0.12232(5) 0.31348(5) 0.30954(5)
N11_187 N 0.10141(5) 0.31123(5) 0.32989(5)
C3_187 C 0.09725(6) 0.28908(6) 0.34811(6)
H3_187 H 0.1082 0.2726 0.3489
C4_187 C 0.14864(7) 0.32490(7) 0.31267(6)
H4_187 H 0.1562 0.3320 0.3295
C5_187 C 0.08133(6) 0.33128(6) 0.33595(7)
H5_187 H 0.0793 0.3487 0.3268
C8_187 C 0.11991(7) 0.30521(7) 0.28190(6)
H8_187 H 0.1042 0.2963 0.2739
C1_187 C 0.93064(6) 0.24564(7) 0.40180(7)
H1_187 H 0.9348 0.2481 0.4210
N7_175 N 0.94704(5) 0.25431(6) 0.37960(6)
C2_175 C 0.97806(6) 0.29550(7) 0.37321(7)
H2_175 H 0.9651 0.3079 0.3648
C6_175 C 0.99719(6) 0.25752(7) 0.39231(7)
H6_187 H 0.9997 0.2391 0.3992
C7_187 C 0.93355(6) 0.24666(7) 0.35536(7)
H7_187 H 0.9402 0.2497 0.3370
N12_175 N 0.97271(5) 0.26815(6) 0.38144(6)
N1_188 N 0.73353(5) 0.27719(5) 0.35846(5)
N2_188 N 0.74548(5) 0.30120(5) 0.37086(5)
N3_188 N 0.68459(5) 0.32193(5) 0.39342(5)
N4_188 N 0.67447(5) 0.29486(5) 0.38591(5)
C1_188 C 0.81936(6) 0.24564(7) 0.34820(7)
H1_188 H 0.8152 0.2481 0.3290
N7_176 N 0.80296(5) 0.25431(6) 0.37040(6)
C2_176 C 0.77194(6) 0.29550(7) 0.37679(7)
H2_176 H 0.7849 0.3079 0.3852
N9_188 N 0.62768(5) 0.31348(5) 0.44046(5)
N11_188 N 0.64859(5) 0.31123(5) 0.42011(5)
C3_188 C 0.65275(6) 0.28908(6) 0.40189(6)
H3_188 H 0.6418 0.2726 0.4011
C4_188 C 0.60136(7) 0.32490(7) 0.43733(6)
H4_188 H 0.5938 0.3320 0.4205
C5_188 C 0.66867(6) 0.33128(6) 0.41405(7)
H5_188 H 0.6707 0.3487 0.4232
C6_176 C 0.75281(6) 0.25752(7) 0.35769(7)
H6_188 H 0.7503 0.2391 0.3508
C7_188 C 0.81645(6) 0.24666(7) 0.39464(7)
H7_188 H 0.8098 0.2497 0.4130
C8_188 C 0.63009(7) 0.30521(7) 0.46810(6)
H8_188 H 0.6458 0.2963 0.4761
N12_176 N 0.77729(5) 0.26815(6) 0.36856(6)
C1_189 C 0.31936(6) 0.00436(7) 0.40180(7)
H1_189 H 0.3152 0.0019 0.4210
H6_189 H 0.2503 0.0109 0.3992
C7_189 C 0.31645(6) 0.00334(7) 0.35536(7)
H7_189 H 0.3098 0.0003 0.3370
N1_189 N 0.23353(5) 0.97281(5) 0.39154(5)
N2_189 N 0.24548(5) 0.94880(5) 0.37914(5)
N3_189 N 0.18459(5) 0.92807(5) 0.35658(5)
N4_189 N 0.17447(5) 0.95514(5) 0.36409(5)
N7_177 N 0.30296(5) 0.99569(6) 0.37960(6)
C2_177 C 0.27194(6) 0.95450(7) 0.37321(7)
H2_177 H 0.2849 0.9421 0.3648
N9_189 N 0.12768(5) 0.93652(5) 0.30954(5)
N11_189 N 0.14859(5) 0.93877(5) 0.32989(5)
C3_189 C 0.15275(6) 0.96092(6) 0.34811(6)
H3_189 H 0.1418 0.9774 0.3489
C4_189 C 0.10136(7) 0.92510(7) 0.31267(6)
H4_189 H 0.0938 0.9180 0.3295
C5_189 C 0.16867(6) 0.91872(6) 0.33595(7)
H5_189 H 0.1707 0.9013 0.3268
C6_177 C 0.25281(6) 0.99248(7) 0.39231(7)
C8_189 C 0.13009(7) 0.94479(7) 0.28190(6)
H8_189 H 0.1458 0.9537 0.2739
N12_177 N 0.27729(5) 0.98185(6) 0.38144(6)
N1_190 N 0.02719(5) 0.26647(5) 0.60846(5)
N2_190 N 0.05120(5) 0.25452(5) 0.62086(5)
N3_190 N 0.07193(5) 0.31541(5) 0.64342(5)
N4_190 N 0.04486(5) 0.32553(5) 0.63591(5)
N7_178 N 0.00431(6) 0.19704(5) 0.62040(6)
C2_178 C 0.04550(7) 0.22806(6) 0.62679(7)
H2_178 H 0.0579 0.2151 0.6352
N9_190 N 0.06348(5) 0.37232(5) 0.69046(5)
N11_190 N 0.06123(5) 0.35141(5) 0.67011(5)
C3_190 C 0.03908(6) 0.34725(6) 0.65189(6)
H3_190 H 0.0226 0.3582 0.6511
C4_190 C 0.07490(7) 0.39864(7) 0.68733(6)
H4_190 H 0.0820 0.4062 0.6705
C5_190 C 0.08128(6) 0.33133(6) 0.66405(7)
H5_190 H 0.0987 0.3293 0.6732
C6_178 C 0.00752(7) 0.24719(6) 0.60769(7)
C8_190 C 0.05521(7) 0.36991(7) 0.71810(6)
H8_190 H 0.0463 0.3542 0.7261
N12_178 N 0.01815(6) 0.22271(5) 0.61856(6)
C1_190 C 0.99564(7) 0.18064(6) 0.59820(7)
H1_190 H 0.9981 0.1848 0.5790
H6_190 H 0.9891 0.2497 0.6008
C7_190 C 0.99666(7) 0.18355(6) 0.64464(7)
H7_190 H 0.9997 0.1902 0.6630
N1_191 N 0.72281(5) 0.76647(5) 0.64154(5)
N2_191 N 0.69880(5) 0.75452(5) 0.62914(5)
N3_191 N 0.67807(5) 0.81541(5) 0.60658(5)
N4_191 N 0.70514(5) 0.82553(5) 0.61409(5)
C1_191 C 0.75436(7) 0.68064(6) 0.65180(7)
H1_191 H 0.7519 0.6848 0.6710
N7_179 N 0.74569(6) 0.69704(5) 0.62960(6)
C2_179 C 0.70450(7) 0.72806(6) 0.62321(7)
H2_179 H 0.6921 0.7151 0.6148
N9_191 N 0.68652(5) 0.87232(5) 0.55954(5)
N11_191 N 0.68877(5) 0.85141(5) 0.57989(5)
C3_191 C 0.71092(6) 0.84725(6) 0.59811(6)
H3_191 H 0.7274 0.8582 0.5989
C4_191 C 0.67510(7) 0.89864(7) 0.56267(6)
H4_191 H 0.6680 0.9062 0.5795
C5_191 C 0.66872(6) 0.83133(6) 0.58595(7)
H5_191 H 0.6513 0.8293 0.5768
C6_179 C 0.74248(7) 0.74719(6) 0.64231(7)
H6_191 H 0.7609 0.7497 0.6492
C7_191 C 0.75334(7) 0.68355(6) 0.60536(7)
H7_191 H 0.7503 0.6902 0.5870
C8_191 C 0.69479(7) 0.86991(7) 0.53190(6)
H8_191 H 0.7037 0.8542 0.5239
N12_179 N 0.73185(6) 0.72271(5) 0.63144(6)
N1_192 N 0.72281(5) 0.48353(5) 0.60846(5)
N2_192 N 0.69880(5) 0.49548(5) 0.62086(5)
N3_192 N 0.67807(5) 0.43459(5) 0.64342(5)
N4_192 N 0.70514(5) 0.42447(5) 0.63591(5)
C1_192 C 0.75436(7) 0.56936(6) 0.59820(7)
H1_192 H 0.7519 0.5652 0.5790
N7_180 N 0.74569(6) 0.55296(5) 0.62040(6)
C2_180 C 0.70450(7) 0.52194(6) 0.62679(7)
H2_180 H 0.6921 0.5349 0.6352
N9_192 N 0.68652(5) 0.37768(5) 0.69046(5)
N11_192 N 0.68877(5) 0.39859(5) 0.67011(5)
C3_192 C 0.71092(6) 0.40275(6) 0.65189(6)
H3_192 H 0.7274 0.3918 0.6511
C4_192 C 0.67510(7) 0.35136(7) 0.68733(6)
H4_192 H 0.6680 0.3438 0.6705
C5_192 C 0.66872(6) 0.41867(6) 0.66405(7)
H5_192 H 0.6513 0.4207 0.6732
C6_180 C 0.74248(7) 0.50281(6) 0.60769(7)
H6_192 H 0.7609 0.5003 0.6008
C7_192 C 0.75334(7) 0.56645(6) 0.64464(7)
H7_192 H 0.7503 0.5598 0.6630
C8_192 C 0.69479(7) 0.38009(7) 0.71810(6)
H8_192 H 0.7037 0.3958 0.7261
N12_180 N 0.73185(6) 0.52729(5) 0.61856(6)
N7_181 N 0.37040(6) 0.99569(6) 0.94704(5)
C2_181 C 0.37679(7) 0.95450(7) 0.97806(6)
H2_181 H 0.3852 0.9421 0.9651
C6_181 C 0.35769(7) 0.99248(7) 0.99719(6)
N12_181 N 0.36856(6) 0.98185(6) 0.97271(5)
N7_182 N 0.05296(5) 0.00431(6) 0.12960(6)
C2_182 C 0.02194(6) 0.04550(7) 0.12321(7)
H2_182 H 0.0349 0.0579 0.1148
C6_182 C 0.00281(6) 0.00752(7) 0.14231(7)
N12_182 N 0.02729(5) 0.01815(6) 0.13144(6)
N7_183 N 0.94704(5) 0.37040(6) 0.99569(6)
C2_183 C 0.97806(6) 0.37679(7) 0.95450(7)
H2_183 H 0.9651 0.3852 0.9421
C6_183 C 0.99719(6) 0.35769(7) 0.99248(7)
N12_183 N 0.97271(5) 0.36856(6) 0.98185(6)
N7_184 N 0.00431(6) 0.12960(6) 0.05296(5)
C2_184 C 0.04550(7) 0.12321(7) 0.02194(6)
H2_184 H 0.0579 0.1148 0.0349
C6_184 C 0.00752(7) 0.14231(7) 0.00281(6)
N12_184 N 0.01815(6) 0.13144(6) 0.02729(5)
N7_185 N 0.12960(6) 0.05296(5) 0.00431(6)
C2_185 C 0.12321(7) 0.02194(6) 0.04550(7)
H2_185 H 0.1148 0.0349 0.0579
C6_185 C 0.14231(7) 0.00281(6) 0.00752(7)
N12_185 N 0.13144(6) 0.02729(5) 0.01815(6)
N7_186 N 0.99569(6) 0.94704(5) 0.37040(6)
C2_186 C 0.95450(7) 0.97806(6) 0.37679(7)
H2_186 H 0.9421 0.9651 0.3852
C6_186 C 0.99248(7) 0.99719(6) 0.35769(7)
N12_186 N 0.98185(6) 0.97271(5) 0.36856(6)
N7_187 N 0.62960(6) 0.00431(6) 0.05296(5)
C2_187 C 0.62321(7) 0.04550(7) 0.02194(6)
H2_187 H 0.6148 0.0579 0.0349
C6_187 C 0.64231(7) 0.00752(7) 0.00281(6)
N12_187 N 0.63144(6) 0.01815(6) 0.02729(5)
N7_188 N 0.94704(5) 0.99569(6) 0.87040(6)
C2_188 C 0.97806(6) 0.95450(7) 0.87679(7)
H2_188 H 0.9651 0.9421 0.8852
C6_188 C 0.99719(6) 0.99248(7) 0.85769(7)
N12_188 N 0.97271(5) 0.98185(6) 0.86856(6)
N7_189 N 0.05296(5) 0.62960(6) 0.00431(6)
C2_189 C 0.02194(6) 0.62321(7) 0.04550(7)
H2_189 H 0.0349 0.6148 0.0579
C6_189 C 0.00281(6) 0.64231(7) 0.00752(7)
N12_189 N 0.02729(5) 0.63144(6) 0.01815(6)
N7_190 N 0.99569(6) 0.87040(6) 0.94704(5)
C2_190 C 0.95450(7) 0.87679(7) 0.97806(6)
H2_190 H 0.9421 0.8852 0.9651
C6_190 C 0.99248(7) 0.85769(7) 0.99719(6)
N12_190 N 0.98185(6) 0.86856(6) 0.97271(5)
N7_191 N 0.87040(6) 0.94704(5) 0.99569(6)
C2_191 C 0.87679(7) 0.97806(6) 0.95450(7)
H2_191 H 0.8852 0.9651 0.9421
C6_191 C 0.85769(7) 0.99719(6) 0.99248(7)
N12_191 N 0.86856(6) 0.97271(5) 0.98185(6)
N7_192 N 0.00431(6) 0.05296(5) 0.62960(6)
C2_192 C 0.04550(7) 0.02194(6) 0.62321(7)
H2_192 H 0.0579 0.0349 0.6148
C6_192 C 0.00752(7) 0.00281(6) 0.64231(7)
N12_192 N 0.01815(6) 0.02729(5) 0.63144(6)
O1 O 0.43876(6) 0.50030(6) 0.63688(6)
O2 O 0.40570(6) 0.52543(6) 0.61582(7)
O3 O 0.43863(8) 0.54680(7) 0.63891(9)
N17 N 0.42756(7) 0.52413(7) 0.63096(7)
O1_2 O 0.49970(6) 0.68876(6) 0.38688(6)
O2_2 O 0.47457(6) 0.65570(6) 0.36582(7)
O3_2 O 0.45320(7) 0.68863(8) 0.38891(9)
N17_2 N 0.47587(7) 0.67756(7) 0.38096(7)
O1_3 O 0.31124(6) 0.74970(6) 0.13688(6)
O2_3 O 0.34430(6) 0.72457(6) 0.11582(7)
O3_3 O 0.31137(8) 0.70320(7) 0.13891(9)
N17_3 N 0.32244(7) 0.72587(7) 0.13096(7)
O1_4 O 0.25030(6) 0.56124(6) 0.88688(6)
O2_4 O 0.27543(6) 0.59430(6) 0.86582(7)
O3_4 O 0.29680(7) 0.56137(8) 0.88891(9)
N17_4 N 0.27413(7) 0.57244(7) 0.88096(7)
O1_5 O 0.43876(6) 0.74970(6) 0.61312(6)
O2_5 O 0.40570(6) 0.72457(6) 0.63418(7)
O3_5 O 0.43863(8) 0.70320(7) 0.61109(9)
N17_5 N 0.42756(7) 0.72587(7) 0.61904(7)
O1_6 O 0.25030(6) 0.68876(6) 0.36312(6)
O2_6 O 0.27543(6) 0.65570(6) 0.38418(7)
O3_6 O 0.29680(7) 0.68863(8) 0.36109(9)
N17_6 N 0.27413(7) 0.67756(7) 0.36904(7)
O1_7 O 0.31124(6) 0.50030(6) 0.11312(6)
O2_7 O 0.34430(6) 0.52543(6) 0.13418(7)
O3_7 O 0.31137(8) 0.54680(7) 0.11109(9)
N17_7 N 0.32244(7) 0.52413(7) 0.11904(7)
O1_8 O 0.49970(6) 0.56124(6) 0.86312(6)
O2_8 O 0.47457(6) 0.59430(6) 0.88418(7)
O3_8 O 0.45320(7) 0.56137(8) 0.86109(9)
N17_8 N 0.47587(7) 0.57244(7) 0.86904(7)
O1_9 O 0.63688(6) 0.43876(6) 0.50030(6)
O2_9 O 0.61582(7) 0.40570(6) 0.52543(6)
O3_9 O 0.63891(9) 0.43863(8) 0.54680(7)
N17_9 N 0.63096(7) 0.42756(7) 0.52413(7)
O1_10 O 0.56124(6) 0.88688(6) 0.25030(6)
O2_10 O 0.59430(6) 0.86582(7) 0.27543(6)
O3_10 O 0.56137(8) 0.88891(9) 0.29680(7)
N17_10 N 0.57244(7) 0.88096(7) 0.27413(7)
O1_11 O 0.11312(6) 0.81124(6) 0.00030(6)
O2_11 O 0.13418(7) 0.84430(6) 0.02543(6)
O3_11 O 0.11109(9) 0.81137(8) 0.04680(7)
N17_11 N 0.11904(7) 0.82244(7) 0.02413(7)
O1_12 O 0.18876(6) 0.36312(6) 0.75030(6)
O2_12 O 0.15570(6) 0.38418(7) 0.77543(6)
O3_12 O 0.18863(8) 0.36109(9) 0.79680(7)
N17_12 N 0.17756(7) 0.36904(7) 0.77413(7)
O1_13 O 0.63688(6) 0.81124(6) 0.74970(6)
O2_13 O 0.61582(7) 0.84430(6) 0.72457(6)
O3_13 O 0.63891(9) 0.81137(8) 0.70320(7)
N17_13 N 0.63096(7) 0.82244(7) 0.72587(7)
O1_14 O 0.18876(6) 0.88688(6) 0.49970(6)
O2_14 O 0.15570(6) 0.86582(7) 0.47457(6)
O3_14 O 0.18863(8) 0.88891(9) 0.45320(7)
N17_14 N 0.17756(7) 0.88096(7) 0.47587(7)
O1_15 O 0.11312(6) 0.43876(6) 0.24970(6)
O2_15 O 0.13418(7) 0.40570(6) 0.22457(6)
O3_15 O 0.11109(9) 0.43863(8) 0.20320(7)
N17_15 N 0.11904(7) 0.42756(7) 0.22587(7)
O1_16 O 0.56124(6) 0.36312(6) 0.99970(6)
O2_16 O 0.59430(6) 0.38418(7) 0.97457(6)
O3_16 O 0.56137(8) 0.36109(9) 0.95320(7)
N17_16 N 0.57244(7) 0.36904(7) 0.97587(7)
O1_17 O 0.50030(6) 0.63688(6) 0.43876(6)
O2_17 O 0.52543(6) 0.61582(7) 0.40570(6)
O3_17 O 0.54680(7) 0.63891(9) 0.43863(8)
N17_17 N 0.52413(7) 0.63096(7) 0.42756(7)
O1_18 O 0.86312(6) 0.49970(6) 0.56124(6)
O2_18 O 0.88418(7) 0.47457(6) 0.59430(6)
O3_18 O 0.86109(9) 0.45320(7) 0.56137(8)
N17_18 N 0.86904(7) 0.47587(7) 0.57244(7)
O1_19 O 0.36312(6) 0.25030(6) 0.68876(6)
O2_19 O 0.38418(7) 0.27543(6) 0.65570(6)
O3_19 O 0.36109(9) 0.29680(7) 0.68863(8)
N17_19 N 0.36904(7) 0.27413(7) 0.67756(7)
O1_20 O 0.88688(6) 0.25030(6) 0.56124(6)
O2_20 O 0.86582(7) 0.27543(6) 0.59430(6)
O3_20 O 0.88891(9) 0.29680(7) 0.56137(8)
N17_20 N 0.88096(7) 0.27413(7) 0.57244(7)
O1_21 O 0.38688(6) 0.49970(6) 0.68876(6)
O2_21 O 0.36582(7) 0.47457(6) 0.65570(6)
O3_21 O 0.38891(9) 0.45320(7) 0.68863(8)
N17_21 N 0.38096(7) 0.47587(7) 0.67756(7)
O1_22 O 0.50030(6) 0.11312(6) 0.31124(6)
O2_22 O 0.52543(6) 0.13418(7) 0.34430(6)
O3_22 O 0.54680(7) 0.11109(9) 0.31137(8)
N17_22 N 0.52413(7) 0.11904(7) 0.32244(7)
O1_23 O 0.74970(6) 0.61312(6) 0.43876(6)
O2_23 O 0.72457(6) 0.63418(7) 0.40570(6)
O3_23 O 0.70320(7) 0.61109(9) 0.43863(8)
N17_23 N 0.72587(7) 0.61904(7) 0.42756(7)
O1_24 O 0.74970(6) 0.13688(6) 0.31124(6)
O2_24 O 0.72457(6) 0.11582(7) 0.34430(6)
O3_24 O 0.70320(7) 0.13891(9) 0.31137(8)
N17_24 N 0.72587(7) 0.13096(7) 0.32244(7)
O1_25 O 0.43876(6) 0.00030(6) 0.13688(6)
O2_25 O 0.40570(6) 0.02543(6) 0.11582(7)
O3_25 O 0.43863(8) 0.04680(7) 0.13891(9)
N17_25 N 0.42756(7) 0.02413(7) 0.13096(7)
O1_26 O 0.49970(6) 0.18876(6) 0.88688(6)
O2_26 O 0.47457(6) 0.15570(6) 0.86582(7)
O3_26 O 0.45320(7) 0.18863(8) 0.88891(9)
N17_26 N 0.47587(7) 0.17756(7) 0.88096(7)
O1_27 O 0.31124(6) 0.24970(6) 0.63688(6)
O2_27 O 0.34430(6) 0.22457(6) 0.61582(7)
O3_27 O 0.31137(8) 0.20320(7) 0.63891(9)
N17_27 N 0.32244(7) 0.22587(7) 0.63096(7)
O1_28 O 0.25030(6) 0.06124(6) 0.38688(6)
O2_28 O 0.27543(6) 0.09430(6) 0.36582(7)
O3_28 O 0.29680(7) 0.06137(8) 0.38891(9)
N17_28 N 0.27413(7) 0.07244(7) 0.38096(7)
O1_29 O 0.43876(6) 0.24970(6) 0.11312(6)
O2_29 O 0.40570(6) 0.22457(6) 0.13418(7)
O3_29 O 0.43863(8) 0.20320(7) 0.11109(9)
N17_29 N 0.42756(7) 0.22587(7) 0.11904(7)
O1_30 O 0.25030(6) 0.18876(6) 0.86312(6)
O2_30 O 0.27543(6) 0.15570(6) 0.88418(7)
O3_30 O 0.29680(7) 0.18863(8) 0.86109(9)
N17_30 N 0.27413(7) 0.17756(7) 0.86904(7)
O1_31 O 0.31124(6) 0.00030(6) 0.61312(6)
O2_31 O 0.34430(6) 0.02543(6) 0.63418(7)
O3_31 O 0.31137(8) 0.04680(7) 0.61109(9)
N17_31 N 0.32244(7) 0.02413(7) 0.61904(7)
O1_32 O 0.49970(6) 0.06124(6) 0.36312(6)
O2_32 O 0.47457(6) 0.09430(6) 0.38418(7)
O3_32 O 0.45320(7) 0.06137(8) 0.36109(9)
N17_32 N 0.47587(7) 0.07244(7) 0.36904(7)
O1_33 O 0.63688(6) 0.93876(6) 0.00030(6)
O2_33 O 0.61582(7) 0.90570(6) 0.02543(6)
O3_33 O 0.63891(9) 0.93863(8) 0.04680(7)
N17_33 N 0.63096(7) 0.92756(7) 0.02413(7)
O1_34 O 0.56124(6) 0.38688(6) 0.75030(6)
O2_34 O 0.59430(6) 0.36582(7) 0.77543(6)
O3_34 O 0.56137(8) 0.38891(9) 0.79680(7)
N17_34 N 0.57244(7) 0.38096(7) 0.77413(7)
O1_35 O 0.11312(6) 0.31124(6) 0.50030(6)
O2_35 O 0.13418(7) 0.34430(6) 0.52543(6)
O3_35 O 0.11109(9) 0.31137(8) 0.54680(7)
N17_35 N 0.11904(7) 0.32244(7) 0.52413(7)
O1_36 O 0.18876(6) 0.86312(6) 0.25030(6)
O2_36 O 0.15570(6) 0.88418(7) 0.27543(6)
O3_36 O 0.18863(8) 0.86109(9) 0.29680(7)
N17_36 N 0.17756(7) 0.86904(7) 0.27413(7)
O1_37 O 0.63688(6) 0.31124(6) 0.24970(6)
O2_37 O 0.61582(7) 0.34430(6) 0.22457(6)
O3_37 O 0.63891(9) 0.31137(8) 0.20320(7)
N17_37 N 0.63096(7) 0.32244(7) 0.22587(7)
O1_38 O 0.18876(6) 0.38688(6) 0.99970(6)
O2_38 O 0.15570(6) 0.36582(7) 0.97457(6)
O3_38 O 0.18863(8) 0.38891(9) 0.95320(7)
N17_38 N 0.17756(7) 0.38096(7) 0.97587(7)
O1_39 O 0.11312(6) 0.93876(6) 0.74970(6)
O2_39 O 0.13418(7) 0.90570(6) 0.72457(6)
O3_39 O 0.11109(9) 0.93863(8) 0.70320(7)
N17_39 N 0.11904(7) 0.92756(7) 0.72587(7)
O1_40 O 0.56124(6) 0.86312(6) 0.49970(6)
O2_40 O 0.59430(6) 0.88418(7) 0.47457(6)
O3_40 O 0.56137(8) 0.86109(9) 0.45320(7)
N17_40 N 0.57244(7) 0.86904(7) 0.47587(7)
O1_41 O 0.50030(6) 0.13688(6) 0.93876(6)
O2_41 O 0.52543(6) 0.11582(7) 0.90570(6)
O3_41 O 0.54680(7) 0.13891(9) 0.93863(8)
N17_41 N 0.52413(7) 0.13096(7) 0.92756(7)
O1_42 O 0.86312(6) 0.99970(6) 0.06124(6)
O2_42 O 0.88418(7) 0.97457(6) 0.09430(6)
O3_42 O 0.86109(9) 0.95320(7) 0.06137(8)
N17_42 N 0.86904(7) 0.97587(7) 0.07244(7)
O1_43 O 0.36312(6) 0.75030(6) 0.18876(6)
O2_43 O 0.38418(7) 0.77543(6) 0.15570(6)
O3_43 O 0.36109(9) 0.79680(7) 0.18863(8)
N17_43 N 0.36904(7) 0.77413(7) 0.17756(7)
O1_44 O 0.88688(6) 0.75030(6) 0.06124(6)
O2_44 O 0.86582(7) 0.77543(6) 0.09430(6)
O3_44 O 0.88891(9) 0.79680(7) 0.06137(8)
N17_44 N 0.88096(7) 0.77413(7) 0.07244(7)
O1_45 O 0.38688(6) 0.99970(6) 0.18876(6)
O2_45 O 0.36582(7) 0.97457(6) 0.15570(6)
O3_45 O 0.38891(9) 0.95320(7) 0.18863(8)
N17_45 N 0.38096(7) 0.97587(7) 0.17756(7)
O1_46 O 0.50030(6) 0.61312(6) 0.81124(6)
O2_46 O 0.52543(6) 0.63418(7) 0.84430(6)
O3_46 O 0.54680(7) 0.61109(9) 0.81137(8)
N17_46 N 0.52413(7) 0.61904(7) 0.82244(7)
O1_47 O 0.74970(6) 0.11312(6) 0.93876(6)
O2_47 O 0.72457(6) 0.13418(7) 0.90570(6)
O3_47 O 0.70320(7) 0.11109(9) 0.93863(8)
N17_47 N 0.72587(7) 0.11904(7) 0.92756(7)
O1_48 O 0.74970(6) 0.63688(6) 0.81124(6)
O2_48 O 0.72457(6) 0.61582(7) 0.84430(6)
O3_48 O 0.70320(7) 0.63891(9) 0.81137(8)
N17_48 N 0.72587(7) 0.63096(7) 0.82244(7)
O1_49 O 0.93876(6) 0.50030(6) 0.13688(6)
O2_49 O 0.90570(6) 0.52543(6) 0.11582(7)
O3_49 O 0.93863(8) 0.54680(7) 0.13891(9)
N17_49 N 0.92756(7) 0.52413(7) 0.13096(7)
O1_50 O 0.99970(6) 0.68876(6) 0.88688(6)
O2_50 O 0.97457(6) 0.65570(6) 0.86582(7)
O3_50 O 0.95320(7) 0.68863(8) 0.88891(9)
N17_50 N 0.97587(7) 0.67756(7) 0.88096(7)
O1_51 O 0.81124(6) 0.74970(6) 0.63688(6)
O2_51 O 0.84430(6) 0.72457(6) 0.61582(7)
O3_51 O 0.81137(8) 0.70320(7) 0.63891(9)
N17_51 N 0.82244(7) 0.72587(7) 0.63096(7)
O1_52 O 0.75030(6) 0.56124(6) 0.38688(6)
O2_52 O 0.77543(6) 0.59430(6) 0.36582(7)
O3_52 O 0.79680(7) 0.56137(8) 0.38891(9)
N17_52 N 0.77413(7) 0.57244(7) 0.38096(7)
O1_53 O 0.93876(6) 0.74970(6) 0.11312(6)
O2_53 O 0.90570(6) 0.72457(6) 0.13418(7)
O3_53 O 0.93863(8) 0.70320(7) 0.11109(9)
N17_53 N 0.92756(7) 0.72587(7) 0.11904(7)
O1_54 O 0.75030(6) 0.68876(6) 0.86312(6)
O2_54 O 0.77543(6) 0.65570(6) 0.88418(7)
O3_54 O 0.79680(7) 0.68863(8) 0.86109(9)
N17_54 N 0.77413(7) 0.67756(7) 0.86904(7)
O1_55 O 0.81124(6) 0.50030(6) 0.61312(6)
O2_55 O 0.84430(6) 0.52543(6) 0.63418(7)
O3_55 O 0.81137(8) 0.54680(7) 0.61109(9)
N17_55 N 0.82244(7) 0.52413(7) 0.61904(7)
O1_56 O 0.99970(6) 0.56124(6) 0.36312(6)
O2_56 O 0.97457(6) 0.59430(6) 0.38418(7)
O3_56 O 0.95320(7) 0.56137(8) 0.36109(9)
N17_56 N 0.97587(7) 0.57244(7) 0.36904(7)
O1_57 O 0.13688(6) 0.43876(6) 0.00030(6)
O2_57 O 0.11582(7) 0.40570(6) 0.02543(6)
O3_57 O 0.13891(9) 0.43863(8) 0.04680(7)
N17_57 N 0.13096(7) 0.42756(7) 0.02413(7)
O1_58 O 0.06124(6) 0.88688(6) 0.75030(6)
O2_58 O 0.09430(6) 0.86582(7) 0.77543(6)
O3_58 O 0.06137(8) 0.88891(9) 0.79680(7)
N17_58 N 0.07244(7) 0.88096(7) 0.77413(7)
O1_59 O 0.61312(6) 0.81124(6) 0.50030(6)
O2_59 O 0.63418(7) 0.84430(6) 0.52543(6)
O3_59 O 0.61109(9) 0.81137(8) 0.54680(7)
N17_59 N 0.61904(7) 0.82244(7) 0.52413(7)
O1_60 O 0.68876(6) 0.36312(6) 0.25030(6)
O2_60 O 0.65570(6) 0.38418(7) 0.27543(6)
O3_60 O 0.68863(8) 0.36109(9) 0.29680(7)
N17_60 N 0.67756(7) 0.36904(7) 0.27413(7)
O1_61 O 0.13688(6) 0.81124(6) 0.24970(6)
O2_61 O 0.11582(7) 0.84430(6) 0.22457(6)
O3_61 O 0.13891(9) 0.81137(8) 0.20320(7)
N17_61 N 0.13096(7) 0.82244(7) 0.22587(7)
O1_62 O 0.68876(6) 0.88688(6) 0.99970(6)
O2_62 O 0.65570(6) 0.86582(7) 0.97457(6)
O3_62 O 0.68863(8) 0.88891(9) 0.95320(7)
N17_62 N 0.67756(7) 0.88096(7) 0.97587(7)
O1_63 O 0.61312(6) 0.43876(6) 0.74970(6)
O2_63 O 0.63418(7) 0.40570(6) 0.72457(6)
O3_63 O 0.61109(9) 0.43863(8) 0.70320(7)
N17_63 N 0.61904(7) 0.42756(7) 0.72587(7)
O1_64 O 0.06124(6) 0.36312(6) 0.49970(6)
O2_64 O 0.09430(6) 0.38418(7) 0.47457(6)
O3_64 O 0.06137(8) 0.36109(9) 0.45320(7)
N17_64 N 0.07244(7) 0.36904(7) 0.47587(7)
O1_65 O 0.00030(6) 0.63688(6) 0.93876(6)
O2_65 O 0.02543(6) 0.61582(7) 0.90570(6)
O3_65 O 0.04680(7) 0.63891(9) 0.93863(8)
N17_65 N 0.02413(7) 0.63096(7) 0.92756(7)
O1_66 O 0.36312(6) 0.49970(6) 0.06124(6)
O2_66 O 0.38418(7) 0.47457(6) 0.09430(6)
O3_66 O 0.36109(9) 0.45320(7) 0.06137(8)
N17_66 N 0.36904(7) 0.47587(7) 0.07244(7)
O1_67 O 0.86312(6) 0.25030(6) 0.18876(6)
O2_67 O 0.88418(7) 0.27543(6) 0.15570(6)
O3_67 O 0.86109(9) 0.29680(7) 0.18863(8)
N17_67 N 0.86904(7) 0.27413(7) 0.17756(7)
O1_68 O 0.38688(6) 0.25030(6) 0.06124(6)
O2_68 O 0.36582(7) 0.27543(6) 0.09430(6)
O3_68 O 0.38891(9) 0.29680(7) 0.06137(8)
N17_68 N 0.38096(7) 0.27413(7) 0.07244(7)
O1_69 O 0.88688(6) 0.49970(6) 0.18876(6)
O2_69 O 0.86582(7) 0.47457(6) 0.15570(6)
O3_69 O 0.88891(9) 0.45320(7) 0.18863(8)
N17_69 N 0.88096(7) 0.47587(7) 0.17756(7)
O1_70 O 0.00030(6) 0.11312(6) 0.81124(6)
O2_70 O 0.02543(6) 0.13418(7) 0.84430(6)
O3_70 O 0.04680(7) 0.11109(9) 0.81137(8)
N17_70 N 0.02413(7) 0.11904(7) 0.82244(7)
O1_71 O 0.24970(6) 0.61312(6) 0.93876(6)
O2_71 O 0.22457(6) 0.63418(7) 0.90570(6)
O3_71 O 0.20320(7) 0.61109(9) 0.93863(8)
N17_71 N 0.22587(7) 0.61904(7) 0.92756(7)
O1_72 O 0.24970(6) 0.13688(6) 0.81124(6)
O2_72 O 0.22457(6) 0.11582(7) 0.84430(6)
O3_72 O 0.20320(7) 0.13891(9) 0.81137(8)
N17_72 N 0.22587(7) 0.13096(7) 0.82244(7)
O1_73 O 0.93876(6) 0.00030(6) 0.63688(6)
O2_73 O 0.90570(6) 0.02543(6) 0.61582(7)
O3_73 O 0.93863(8) 0.04680(7) 0.63891(9)
N17_73 N 0.92756(7) 0.02413(7) 0.63096(7)
O1_74 O 0.99970(6) 0.18876(6) 0.38688(6)
O2_74 O 0.97457(6) 0.15570(6) 0.36582(7)
O3_74 O 0.95320(7) 0.18863(8) 0.38891(9)
N17_74 N 0.97587(7) 0.17756(7) 0.38096(7)
O1_75 O 0.81124(6) 0.24970(6) 0.13688(6)
O2_75 O 0.84430(6) 0.22457(6) 0.11582(7)
O3_75 O 0.81137(8) 0.20320(7) 0.13891(9)
N17_75 N 0.82244(7) 0.22587(7) 0.13096(7)
O1_76 O 0.75030(6) 0.06124(6) 0.88688(6)
O2_76 O 0.77543(6) 0.09430(6) 0.86582(7)
O3_76 O 0.79680(7) 0.06137(8) 0.88891(9)
N17_76 N 0.77413(7) 0.07244(7) 0.88096(7)
O1_77 O 0.93876(6) 0.24970(6) 0.61312(6)
O2_77 O 0.90570(6) 0.22457(6) 0.63418(7)
O3_77 O 0.93863(8) 0.20320(7) 0.61109(9)
N17_77 N 0.92756(7) 0.22587(7) 0.61904(7)
O1_78 O 0.75030(6) 0.18876(6) 0.36312(6)
O2_78 O 0.77543(6) 0.15570(6) 0.38418(7)
O3_78 O 0.79680(7) 0.18863(8) 0.36109(9)
N17_78 N 0.77413(7) 0.17756(7) 0.36904(7)
O1_79 O 0.81124(6) 0.00030(6) 0.11312(6)
O2_79 O 0.84430(6) 0.02543(6) 0.13418(7)
O3_79 O 0.81137(8) 0.04680(7) 0.11109(9)
N17_79 N 0.82244(7) 0.02413(7) 0.11904(7)
O1_80 O 0.99970(6) 0.06124(6) 0.86312(6)
O2_80 O 0.97457(6) 0.09430(6) 0.88418(7)
O3_80 O 0.95320(7) 0.06137(8) 0.86109(9)
N17_80 N 0.97587(7) 0.07244(7) 0.86904(7)
O1_81 O 0.13688(6) 0.93876(6) 0.50030(6)
O2_81 O 0.11582(7) 0.90570(6) 0.52543(6)
O3_81 O 0.13891(9) 0.93863(8) 0.54680(7)
N17_81 N 0.13096(7) 0.92756(7) 0.52413(7)
O1_82 O 0.06124(6) 0.38688(6) 0.25030(6)
O2_82 O 0.09430(6) 0.36582(7) 0.27543(6)
O3_82 O 0.06137(8) 0.38891(9) 0.29680(7)
N17_82 N 0.07244(7) 0.38096(7) 0.27413(7)
O1_83 O 0.61312(6) 0.31124(6) 0.00030(6)
O2_83 O 0.63418(7) 0.34430(6) 0.02543(6)
O3_83 O 0.61109(9) 0.31137(8) 0.04680(7)
N17_83 N 0.61904(7) 0.32244(7) 0.02413(7)
O1_84 O 0.68876(6) 0.86312(6) 0.75030(6)
O2_84 O 0.65570(6) 0.88418(7) 0.77543(6)
O3_84 O 0.68863(8) 0.86109(9) 0.79680(7)
N17_84 N 0.67756(7) 0.86904(7) 0.77413(7)
O1_85 O 0.13688(6) 0.31124(6) 0.74970(6)
O2_85 O 0.11582(7) 0.34430(6) 0.72457(6)
O3_85 O 0.13891(9) 0.31137(8) 0.70320(7)
N17_85 N 0.13096(7) 0.32244(7) 0.72587(7)
O1_86 O 0.68876(6) 0.38688(6) 0.49970(6)
O2_86 O 0.65570(6) 0.36582(7) 0.47457(6)
O3_86 O 0.68863(8) 0.38891(9) 0.45320(7)
N17_86 N 0.67756(7) 0.38096(7) 0.47587(7)
O1_87 O 0.61312(6) 0.93876(6) 0.24970(6)
O2_87 O 0.63418(7) 0.90570(6) 0.22457(6)
O3_87 O 0.61109(9) 0.93863(8) 0.20320(7)
N17_87 N 0.61904(7) 0.92756(7) 0.22587(7)
O1_88 O 0.06124(6) 0.86312(6) 0.99970(6)
O2_88 O 0.09430(6) 0.88418(7) 0.97457(6)
O3_88 O 0.06137(8) 0.86109(9) 0.95320(7)
N17_88 N 0.07244(7) 0.86904(7) 0.97587(7)
O1_89 O 0.00030(6) 0.13688(6) 0.43876(6)
O2_89 O 0.02543(6) 0.11582(7) 0.40570(6)
O3_89 O 0.04680(7) 0.13891(9) 0.43863(8)
N17_89 N 0.02413(7) 0.13096(7) 0.42756(7)
O1_90 O 0.36312(6) 0.99970(6) 0.56124(6)
O2_90 O 0.38418(7) 0.97457(6) 0.59430(6)
O3_90 O 0.36109(9) 0.95320(7) 0.56137(8)
N17_90 N 0.36904(7) 0.97587(7) 0.57244(7)
O1_91 O 0.86312(6) 0.75030(6) 0.68876(6)
O2_91 O 0.88418(7) 0.77543(6) 0.65570(6)
O3_91 O 0.86109(9) 0.79680(7) 0.68863(8)
N17_91 N 0.86904(7) 0.77413(7) 0.67756(7)
O1_92 O 0.38688(6) 0.75030(6) 0.56124(6)
O2_92 O 0.36582(7) 0.77543(6) 0.59430(6)
O3_92 O 0.38891(9) 0.79680(7) 0.56137(8)
N17_92 N 0.38096(7) 0.77413(7) 0.57244(7)
O1_93 O 0.88688(6) 0.99970(6) 0.68876(6)
O2_93 O 0.86582(7) 0.97457(6) 0.65570(6)
O3_93 O 0.88891(9) 0.95320(7) 0.68863(8)
N17_93 N 0.88096(7) 0.97587(7) 0.67756(7)
O1_94 O 0.00030(6) 0.61312(6) 0.31124(6)
O2_94 O 0.02543(6) 0.63418(7) 0.34430(6)
O3_94 O 0.04680(7) 0.61109(9) 0.31137(8)
N17_94 N 0.02413(7) 0.61904(7) 0.32244(7)
O1_95 O 0.24970(6) 0.11312(6) 0.43876(6)
O2_95 O 0.22457(6) 0.13418(7) 0.40570(6)
O3_95 O 0.20320(7) 0.11109(9) 0.43863(8)
N17_95 N 0.22587(7) 0.11904(7) 0.42756(7)
O1_96 O 0.24970(6) 0.63688(6) 0.31124(6)
O2_96 O 0.22457(6) 0.61582(7) 0.34430(6)
O3_96 O 0.20320(7) 0.63891(9) 0.31137(8)
N17_96 N 0.22587(7) 0.63096(7) 0.32244(7)
O1_97 O 0.56124(6) 0.49970(6) 0.36312(6)
O2_97 O 0.59430(6) 0.47457(6) 0.38418(7)
O3_97 O 0.56137(8) 0.45320(7) 0.36109(9)
N17_97 N 0.57244(7) 0.47587(7) 0.36904(7)
O1_98 O 0.50030(6) 0.31124(6) 0.61312(6)
O2_98 O 0.52543(6) 0.34430(6) 0.63418(7)
O3_98 O 0.54680(7) 0.31137(8) 0.61109(9)
N17_98 N 0.52413(7) 0.32244(7) 0.61904(7)
O1_99 O 0.68876(6) 0.25030(6) 0.86312(6)
O2_99 O 0.65570(6) 0.27543(6) 0.88418(7)
O3_99 O 0.68863(8) 0.29680(7) 0.86109(9)
N17_99 N 0.67756(7) 0.27413(7) 0.86904(7)
O1_100 O 0.74970(6) 0.43876(6) 0.11312(6)
O2_100 O 0.72457(6) 0.40570(6) 0.13418(7)
O3_100 O 0.70320(7) 0.43863(8) 0.11109(9)
N17_100 N 0.72587(7) 0.42756(7) 0.11904(7)
O1_101 O 0.56124(6) 0.25030(6) 0.38688(6)
O2_101 O 0.59430(6) 0.27543(6) 0.36582(7)
O3_101 O 0.56137(8) 0.29680(7) 0.38891(9)
N17_101 N 0.57244(7) 0.27413(7) 0.38096(7)
O1_102 O 0.74970(6) 0.31124(6) 0.63688(6)
O2_102 O 0.72457(6) 0.34430(6) 0.61582(7)
O3_102 O 0.70320(7) 0.31137(8) 0.63891(9)
N17_102 N 0.72587(7) 0.32244(7) 0.63096(7)
O1_103 O 0.68876(6) 0.49970(6) 0.88688(6)
O2_103 O 0.65570(6) 0.47457(6) 0.86582(7)
O3_103 O 0.68863(8) 0.45320(7) 0.88891(9)
N17_103 N 0.67756(7) 0.47587(7) 0.88096(7)
O1_104 O 0.50030(6) 0.43876(6) 0.13688(6)
O2_104 O 0.52543(6) 0.40570(6) 0.11582(7)
O3_104 O 0.54680(7) 0.43863(8) 0.13891(9)
N17_104 N 0.52413(7) 0.42756(7) 0.13096(7)
O1_105 O 0.36312(6) 0.56124(6) 0.49970(6)
O2_105 O 0.38418(7) 0.59430(6) 0.47457(6)
O3_105 O 0.36109(9) 0.56137(8) 0.45320(7)
N17_105 N 0.36904(7) 0.57244(7) 0.47587(7)
O1_106 O 0.43876(6) 0.11312(6) 0.74970(6)
O2_106 O 0.40570(6) 0.13418(7) 0.72457(6)
O3_106 O 0.43863(8) 0.11109(9) 0.70320(7)
N17_106 N 0.42756(7) 0.11904(7) 0.72587(7)
O1_107 O 0.88688(6) 0.18876(6) 0.99970(6)
O2_107 O 0.86582(7) 0.15570(6) 0.97457(6)
O3_107 O 0.88891(9) 0.18863(8) 0.95320(7)
N17_107 N 0.88096(7) 0.17756(7) 0.97587(7)
O1_108 O 0.81124(6) 0.63688(6) 0.24970(6)
O2_108 O 0.84430(6) 0.61582(7) 0.22457(6)
O3_108 O 0.81137(8) 0.63891(9) 0.20320(7)
N17_108 N 0.82244(7) 0.63096(7) 0.22587(7)
O1_109 O 0.36312(6) 0.18876(6) 0.25030(6)
O2_109 O 0.38418(7) 0.15570(6) 0.27543(6)
O3_109 O 0.36109(9) 0.18863(8) 0.29680(7)
N17_109 N 0.36904(7) 0.17756(7) 0.27413(7)
O1_110 O 0.81124(6) 0.11312(6) 0.50030(6)
O2_110 O 0.84430(6) 0.13418(7) 0.52543(6)
O3_110 O 0.81137(8) 0.11109(9) 0.54680(7)
N17_110 N 0.82244(7) 0.11904(7) 0.52413(7)
O1_111 O 0.88688(6) 0.56124(6) 0.75030(6)
O2_111 O 0.86582(7) 0.59430(6) 0.77543(6)
O3_111 O 0.88891(9) 0.56137(8) 0.79680(7)
N17_111 N 0.88096(7) 0.57244(7) 0.77413(7)
O1_112 O 0.43876(6) 0.63688(6) 0.00030(6)
O2_112 O 0.40570(6) 0.61582(7) 0.02543(6)
O3_112 O 0.43863(8) 0.63891(9) 0.04680(7)
N17_112 N 0.42756(7) 0.63096(7) 0.02413(7)
O1_113 O 0.49970(6) 0.36312(6) 0.56124(6)
O2_113 O 0.47457(6) 0.38418(7) 0.59430(6)
O3_113 O 0.45320(7) 0.36109(9) 0.56137(8)
N17_113 N 0.47587(7) 0.36904(7) 0.57244(7)
O1_114 O 0.13688(6) 0.50030(6) 0.43876(6)
O2_114 O 0.11582(7) 0.52543(6) 0.40570(6)
O3_114 O 0.13891(9) 0.54680(7) 0.43863(8)
N17_114 N 0.13096(7) 0.52413(7) 0.42756(7)
O1_115 O 0.63688(6) 0.74970(6) 0.31124(6)
O2_115 O 0.61582(7) 0.72457(6) 0.34430(6)
O3_115 O 0.63891(9) 0.70320(7) 0.31137(8)
N17_115 N 0.63096(7) 0.72587(7) 0.32244(7)
O1_116 O 0.11312(6) 0.74970(6) 0.43876(6)
O2_116 O 0.13418(7) 0.72457(6) 0.40570(6)
O3_116 O 0.11109(9) 0.70320(7) 0.43863(8)
N17_116 N 0.11904(7) 0.72587(7) 0.42756(7)
O1_117 O 0.61312(6) 0.50030(6) 0.31124(6)
O2_117 O 0.63418(7) 0.52543(6) 0.34430(6)
O3_117 O 0.61109(9) 0.54680(7) 0.31137(8)
N17_117 N 0.61904(7) 0.52413(7) 0.32244(7)
O1_118 O 0.49970(6) 0.88688(6) 0.68876(6)
O2_118 O 0.47457(6) 0.86582(7) 0.65570(6)
O3_118 O 0.45320(7) 0.88891(9) 0.68863(8)
N17_118 N 0.47587(7) 0.88096(7) 0.67756(7)
O1_119 O 0.25030(6) 0.38688(6) 0.56124(6)
O2_119 O 0.27543(6) 0.36582(7) 0.59430(6)
O3_119 O 0.29680(7) 0.38891(9) 0.56137(8)
N17_119 N 0.27413(7) 0.38096(7) 0.57244(7)
O1_120 O 0.25030(6) 0.86312(6) 0.68876(6)
O2_120 O 0.27543(6) 0.88418(7) 0.65570(6)
O3_120 O 0.29680(7) 0.86109(9) 0.68863(8)
N17_120 N 0.27413(7) 0.86904(7) 0.67756(7)
O1_121 O 0.56124(6) 0.99970(6) 0.86312(6)
O2_121 O 0.59430(6) 0.97457(6) 0.88418(7)
O3_121 O 0.56137(8) 0.95320(7) 0.86109(9)
N17_121 N 0.57244(7) 0.97587(7) 0.86904(7)
O1_122 O 0.50030(6) 0.81124(6) 0.11312(6)
O2_122 O 0.52543(6) 0.84430(6) 0.13418(7)
O3_122 O 0.54680(7) 0.81137(8) 0.11109(9)
N17_122 N 0.52413(7) 0.82244(7) 0.11904(7)
O1_123 O 0.68876(6) 0.75030(6) 0.36312(6)
O2_123 O 0.65570(6) 0.77543(6) 0.38418(7)
O3_123 O 0.68863(8) 0.79680(7) 0.36109(9)
N17_123 N 0.67756(7) 0.77413(7) 0.36904(7)
O1_124 O 0.74970(6) 0.93876(6) 0.61312(6)
O2_124 O 0.72457(6) 0.90570(6) 0.63418(7)
O3_124 O 0.70320(7) 0.93863(8) 0.61109(9)
N17_124 N 0.72587(7) 0.92756(7) 0.61904(7)
O1_125 O 0.56124(6) 0.75030(6) 0.88688(6)
O2_125 O 0.59430(6) 0.77543(6) 0.86582(7)
O3_125 O 0.56137(8) 0.79680(7) 0.88891(9)
N17_125 N 0.57244(7) 0.77413(7) 0.88096(7)
O1_126 O 0.74970(6) 0.81124(6) 0.13688(6)
O2_126 O 0.72457(6) 0.84430(6) 0.11582(7)
O3_126 O 0.70320(7) 0.81137(8) 0.13891(9)
N17_126 N 0.72587(7) 0.82244(7) 0.13096(7)
O1_127 O 0.68876(6) 0.99970(6) 0.38688(6)
O2_127 O 0.65570(6) 0.97457(6) 0.36582(7)
O3_127 O 0.68863(8) 0.95320(7) 0.38891(9)
N17_127 N 0.67756(7) 0.97587(7) 0.38096(7)
O1_128 O 0.50030(6) 0.93876(6) 0.63688(6)
O2_128 O 0.52543(6) 0.90570(6) 0.61582(7)
O3_128 O 0.54680(7) 0.93863(8) 0.63891(9)
N17_128 N 0.52413(7) 0.92756(7) 0.63096(7)
O1_129 O 0.36312(6) 0.06124(6) 0.99970(6)
O2_129 O 0.38418(7) 0.09430(6) 0.97457(6)
O3_129 O 0.36109(9) 0.06137(8) 0.95320(7)
N17_129 N 0.36904(7) 0.07244(7) 0.97587(7)
O1_130 O 0.43876(6) 0.61312(6) 0.24970(6)
O2_130 O 0.40570(6) 0.63418(7) 0.22457(6)
O3_130 O 0.43863(8) 0.61109(9) 0.20320(7)
N17_130 N 0.42756(7) 0.61904(7) 0.22587(7)
O1_131 O 0.88688(6) 0.68876(6) 0.49970(6)
O2_131 O 0.86582(7) 0.65570(6) 0.47457(6)
O3_131 O 0.88891(9) 0.68863(8) 0.45320(7)
N17_131 N 0.88096(7) 0.67756(7) 0.47587(7)
O1_132 O 0.81124(6) 0.13688(6) 0.74970(6)
O2_132 O 0.84430(6) 0.11582(7) 0.72457(6)
O3_132 O 0.81137(8) 0.13891(9) 0.70320(7)
N17_132 N 0.82244(7) 0.13096(7) 0.72587(7)
O1_133 O 0.36312(6) 0.68876(6) 0.75030(6)
O2_133 O 0.38418(7) 0.65570(6) 0.77543(6)
O3_133 O 0.36109(9) 0.68863(8) 0.79680(7)
N17_133 N 0.36904(7) 0.67756(7) 0.77413(7)
O1_134 O 0.81124(6) 0.61312(6) 0.00030(6)
O2_134 O 0.84430(6) 0.63418(7) 0.02543(6)
O3_134 O 0.81137(8) 0.61109(9) 0.04680(7)
N17_134 N 0.82244(7) 0.61904(7) 0.02413(7)
O1_135 O 0.88688(6) 0.06124(6) 0.25030(6)
O2_135 O 0.86582(7) 0.09430(6) 0.27543(6)
O3_135 O 0.88891(9) 0.06137(8) 0.29680(7)
N17_135 N 0.88096(7) 0.07244(7) 0.27413(7)
O1_136 O 0.43876(6) 0.13688(6) 0.50030(6)
O2_136 O 0.40570(6) 0.11582(7) 0.52543(6)
O3_136 O 0.43863(8) 0.13891(9) 0.54680(7)
N17_136 N 0.42756(7) 0.13096(7) 0.52413(7)
O1_137 O 0.49970(6) 0.86312(6) 0.06124(6)
O2_137 O 0.47457(6) 0.88418(7) 0.09430(6)
O3_137 O 0.45320(7) 0.86109(9) 0.06137(8)
N17_137 N 0.47587(7) 0.86904(7) 0.07244(7)
O1_138 O 0.13688(6) 0.00030(6) 0.93876(6)
O2_138 O 0.11582(7) 0.02543(6) 0.90570(6)
O3_138 O 0.13891(9) 0.04680(7) 0.93863(8)
N17_138 N 0.13096(7) 0.02413(7) 0.92756(7)
O1_139 O 0.63688(6) 0.24970(6) 0.81124(6)
O2_139 O 0.61582(7) 0.22457(6) 0.84430(6)
O3_139 O 0.63891(9) 0.20320(7) 0.81137(8)
N17_139 N 0.63096(7) 0.22587(7) 0.82244(7)
O1_140 O 0.11312(6) 0.24970(6) 0.93876(6)
O2_140 O 0.13418(7) 0.22457(6) 0.90570(6)
O3_140 O 0.11109(9) 0.20320(7) 0.93863(8)
N17_140 N 0.11904(7) 0.22587(7) 0.92756(7)
O1_141 O 0.61312(6) 0.00030(6) 0.81124(6)
O2_141 O 0.63418(7) 0.02543(6) 0.84430(6)
O3_141 O 0.61109(9) 0.04680(7) 0.81137(8)
N17_141 N 0.61904(7) 0.02413(7) 0.82244(7)
O1_142 O 0.49970(6) 0.38688(6) 0.18876(6)
O2_142 O 0.47457(6) 0.36582(7) 0.15570(6)
O3_142 O 0.45320(7) 0.38891(9) 0.18863(8)
N17_142 N 0.47587(7) 0.38096(7) 0.17756(7)
O1_143 O 0.25030(6) 0.88688(6) 0.06124(6)
O2_143 O 0.27543(6) 0.86582(7) 0.09430(6)
O3_143 O 0.29680(7) 0.88891(9) 0.06137(8)
N17_143 N 0.27413(7) 0.88096(7) 0.07244(7)
O1_144 O 0.25030(6) 0.36312(6) 0.18876(6)
O2_144 O 0.27543(6) 0.38418(7) 0.15570(6)
O3_144 O 0.29680(7) 0.36109(9) 0.18863(8)
N17_144 N 0.27413(7) 0.36904(7) 0.17756(7)
O1_145 O 0.06124(6) 0.49970(6) 0.86312(6)
O2_145 O 0.09430(6) 0.47457(6) 0.88418(7)
O3_145 O 0.06137(8) 0.45320(7) 0.86109(9)
N17_145 N 0.07244(7) 0.47587(7) 0.86904(7)
O1_146 O 0.00030(6) 0.31124(6) 0.11312(6)
O2_146 O 0.02543(6) 0.34430(6) 0.13418(7)
O3_146 O 0.04680(7) 0.31137(8) 0.11109(9)
N17_146 N 0.02413(7) 0.32244(7) 0.11904(7)
O1_147 O 0.18876(6) 0.25030(6) 0.36312(6)
O2_147 O 0.15570(6) 0.27543(6) 0.38418(7)
O3_147 O 0.18863(8) 0.29680(7) 0.36109(9)
N17_147 N 0.17756(7) 0.27413(7) 0.36904(7)
O1_148 O 0.24970(6) 0.43876(6) 0.61312(6)
O2_148 O 0.22457(6) 0.40570(6) 0.63418(7)
O3_148 O 0.20320(7) 0.43863(8) 0.61109(9)
N17_148 N 0.22587(7) 0.42756(7) 0.61904(7)
O1_149 O 0.06124(6) 0.25030(6) 0.88688(6)
O2_149 O 0.09430(6) 0.27543(6) 0.86582(7)
O3_149 O 0.06137(8) 0.29680(7) 0.88891(9)
N17_149 N 0.07244(7) 0.27413(7) 0.88096(7)
O1_150 O 0.24970(6) 0.31124(6) 0.13688(6)
O2_150 O 0.22457(6) 0.34430(6) 0.11582(7)
O3_150 O 0.20320(7) 0.31137(8) 0.13891(9)
N17_150 N 0.22587(7) 0.32244(7) 0.13096(7)
O1_151 O 0.18876(6) 0.49970(6) 0.38688(6)
O2_151 O 0.15570(6) 0.47457(6) 0.36582(7)
O3_151 O 0.18863(8) 0.45320(7) 0.38891(9)
N17_151 N 0.17756(7) 0.47587(7) 0.38096(7)
O1_152 O 0.00030(6) 0.43876(6) 0.63688(6)
O2_152 O 0.02543(6) 0.40570(6) 0.61582(7)
O3_152 O 0.04680(7) 0.43863(8) 0.63891(9)
N17_152 N 0.02413(7) 0.42756(7) 0.63096(7)
O1_153 O 0.86312(6) 0.56124(6) 0.99970(6)
O2_153 O 0.88418(7) 0.59430(6) 0.97457(6)
O3_153 O 0.86109(9) 0.56137(8) 0.95320(7)
N17_153 N 0.86904(7) 0.57244(7) 0.97587(7)
O1_154 O 0.93876(6) 0.11312(6) 0.24970(6)
O2_154 O 0.90570(6) 0.13418(7) 0.22457(6)
O3_154 O 0.93863(8) 0.11109(9) 0.20320(7)
N17_154 N 0.92756(7) 0.11904(7) 0.22587(7)
O1_155 O 0.38688(6) 0.18876(6) 0.49970(6)
O2_155 O 0.36582(7) 0.15570(6) 0.47457(6)
O3_155 O 0.38891(9) 0.18863(8) 0.45320(7)
N17_155 N 0.38096(7) 0.17756(7) 0.47587(7)
O1_156 O 0.31124(6) 0.63688(6) 0.74970(6)
O2_156 O 0.34430(6) 0.61582(7) 0.72457(6)
O3_156 O 0.31137(8) 0.63891(9) 0.70320(7)
N17_156 N 0.32244(7) 0.63096(7) 0.72587(7)
O1_157 O 0.86312(6) 0.18876(6) 0.75030(6)
O2_157 O 0.88418(7) 0.15570(6) 0.77543(6)
O3_157 O 0.86109(9) 0.18863(8) 0.79680(7)
N17_157 N 0.86904(7) 0.17756(7) 0.77413(7)
O1_158 O 0.31124(6) 0.11312(6) 0.00030(6)
O2_158 O 0.34430(6) 0.13418(7) 0.02543(6)
O3_158 O 0.31137(8) 0.11109(9) 0.04680(7)
N17_158 N 0.32244(7) 0.11904(7) 0.02413(7)
O1_159 O 0.38688(6) 0.56124(6) 0.25030(6)
O2_159 O 0.36582(7) 0.59430(6) 0.27543(6)
O3_159 O 0.38891(9) 0.56137(8) 0.29680(7)
N17_159 N 0.38096(7) 0.57244(7) 0.27413(7)
O1_160 O 0.93876(6) 0.63688(6) 0.50030(6)
O2_160 O 0.90570(6) 0.61582(7) 0.52543(6)
O3_160 O 0.93863(8) 0.63891(9) 0.54680(7)
N17_160 N 0.92756(7) 0.63096(7) 0.52413(7)
O1_161 O 0.99970(6) 0.36312(6) 0.06124(6)
O2_161 O 0.97457(6) 0.38418(7) 0.09430(6)
O3_161 O 0.95320(7) 0.36109(9) 0.06137(8)
N17_161 N 0.97587(7) 0.36904(7) 0.07244(7)
O1_162 O 0.63688(6) 0.50030(6) 0.93876(6)
O2_162 O 0.61582(7) 0.52543(6) 0.90570(6)
O3_162 O 0.63891(9) 0.54680(7) 0.93863(8)
N17_162 N 0.63096(7) 0.52413(7) 0.92756(7)
O1_163 O 0.13688(6) 0.74970(6) 0.81124(6)
O2_163 O 0.11582(7) 0.72457(6) 0.84430(6)
O3_163 O 0.13891(9) 0.70320(7) 0.81137(8)
N17_163 N 0.13096(7) 0.72587(7) 0.82244(7)
O1_164 O 0.61312(6) 0.74970(6) 0.93876(6)
O2_164 O 0.63418(7) 0.72457(6) 0.90570(6)
O3_164 O 0.61109(9) 0.70320(7) 0.93863(8)
N17_164 N 0.61904(7) 0.72587(7) 0.92756(7)
O1_165 O 0.11312(6) 0.50030(6) 0.81124(6)
O2_165 O 0.13418(7) 0.52543(6) 0.84430(6)
O3_165 O 0.11109(9) 0.54680(7) 0.81137(8)
N17_165 N 0.11904(7) 0.52413(7) 0.82244(7)
O1_166 O 0.99970(6) 0.88688(6) 0.18876(6)
O2_166 O 0.97457(6) 0.86582(7) 0.15570(6)
O3_166 O 0.95320(7) 0.88891(9) 0.18863(8)
N17_166 N 0.97587(7) 0.88096(7) 0.17756(7)
O1_167 O 0.75030(6) 0.38688(6) 0.06124(6)
O2_167 O 0.77543(6) 0.36582(7) 0.09430(6)
O3_167 O 0.79680(7) 0.38891(9) 0.06137(8)
N17_167 N 0.77413(7) 0.38096(7) 0.07244(7)
O1_168 O 0.75030(6) 0.86312(6) 0.18876(6)
O2_168 O 0.77543(6) 0.88418(7) 0.15570(6)
O3_168 O 0.79680(7) 0.86109(9) 0.18863(8)
N17_168 N 0.77413(7) 0.86904(7) 0.17756(7)
O1_169 O 0.06124(6) 0.99970(6) 0.36312(6)
O2_169 O 0.09430(6) 0.97457(6) 0.38418(7)
O3_169 O 0.06137(8) 0.95320(7) 0.36109(9)
N17_169 N 0.07244(7) 0.97587(7) 0.36904(7)
O1_170 O 0.00030(6) 0.81124(6) 0.61312(6)
O2_170 O 0.02543(6) 0.84430(6) 0.63418(7)
O3_170 O 0.04680(7) 0.81137(8) 0.61109(9)
N17_170 N 0.02413(7) 0.82244(7) 0.61904(7)
O1_171 O 0.18876(6) 0.75030(6) 0.86312(6)
O2_171 O 0.15570(6) 0.77543(6) 0.88418(7)
O3_171 O 0.18863(8) 0.79680(7) 0.86109(9)
N17_171 N 0.17756(7) 0.77413(7) 0.86904(7)
O1_172 O 0.24970(6) 0.93876(6) 0.11312(6)
O2_172 O 0.22457(6) 0.90570(6) 0.13418(7)
O3_172 O 0.20320(7) 0.93863(8) 0.11109(9)
N17_172 N 0.22587(7) 0.92756(7) 0.11904(7)
O1_173 O 0.06124(6) 0.75030(6) 0.38688(6)
O2_173 O 0.09430(6) 0.77543(6) 0.36582(7)
O3_173 O 0.06137(8) 0.79680(7) 0.38891(9)
N17_173 N 0.07244(7) 0.77413(7) 0.38096(7)
O1_174 O 0.24970(6) 0.81124(6) 0.63688(6)
O2_174 O 0.22457(6) 0.84430(6) 0.61582(7)
O3_174 O 0.20320(7) 0.81137(8) 0.63891(9)
N17_174 N 0.22587(7) 0.82244(7) 0.63096(7)
O1_175 O 0.18876(6) 0.99970(6) 0.88688(6)
O2_175 O 0.15570(6) 0.97457(6) 0.86582(7)
O3_175 O 0.18863(8) 0.95320(7) 0.88891(9)
N17_175 N 0.17756(7) 0.97587(7) 0.88096(7)
O1_176 O 0.00030(6) 0.93876(6) 0.13688(6)
O2_176 O 0.02543(6) 0.90570(6) 0.11582(7)
O3_176 O 0.04680(7) 0.93863(8) 0.13891(9)
N17_176 N 0.02413(7) 0.92756(7) 0.13096(7)
O1_177 O 0.86312(6) 0.06124(6) 0.49970(6)
O2_177 O 0.88418(7) 0.09430(6) 0.47457(6)
O3_177 O 0.86109(9) 0.06137(8) 0.45320(7)
N17_177 N 0.86904(7) 0.07244(7) 0.47587(7)
O1_178 O 0.93876(6) 0.61312(6) 0.74970(6)
O2_178 O 0.90570(6) 0.63418(7) 0.72457(6)
O3_178 O 0.93863(8) 0.61109(9) 0.70320(7)
N17_178 N 0.92756(7) 0.61904(7) 0.72587(7)
O1_179 O 0.38688(6) 0.68876(6) 0.99970(6)
O2_179 O 0.36582(7) 0.65570(6) 0.97457(6)
O3_179 O 0.38891(9) 0.68863(8) 0.95320(7)
N17_179 N 0.38096(7) 0.67756(7) 0.97587(7)
O1_180 O 0.31124(6) 0.13688(6) 0.24970(6)
O2_180 O 0.34430(6) 0.11582(7) 0.22457(6)
O3_180 O 0.31137(8) 0.13891(9) 0.20320(7)
N17_180 N 0.32244(7) 0.13096(7) 0.22587(7)
O1_181 O 0.86312(6) 0.68876(6) 0.25030(6)
O2_181 O 0.88418(7) 0.65570(6) 0.27543(6)
O3_181 O 0.86109(9) 0.68863(8) 0.29680(7)
N17_181 N 0.86904(7) 0.67756(7) 0.27413(7)
O1_182 O 0.31124(6) 0.61312(6) 0.50030(6)
O2_182 O 0.34430(6) 0.63418(7) 0.52543(6)
O3_182 O 0.31137(8) 0.61109(9) 0.54680(7)
N17_182 N 0.32244(7) 0.61904(7) 0.52413(7)
O1_183 O 0.38688(6) 0.06124(6) 0.75030(6)
O2_183 O 0.36582(7) 0.09430(6) 0.77543(6)
O3_183 O 0.38891(9) 0.06137(8) 0.79680(7)
N17_183 N 0.38096(7) 0.07244(7) 0.77413(7)
O1_184 O 0.93876(6) 0.13688(6) 0.00030(6)
O2_184 O 0.90570(6) 0.11582(7) 0.02543(6)
O3_184 O 0.93863(8) 0.13891(9) 0.04680(7)
N17_184 N 0.92756(7) 0.13096(7) 0.02413(7)
O1_185 O 0.99970(6) 0.86312(6) 0.56124(6)
O2_185 O 0.97457(6) 0.88418(7) 0.59430(6)
O3_185 O 0.95320(7) 0.86109(9) 0.56137(8)
N17_185 N 0.97587(7) 0.86904(7) 0.57244(7)
O1_186 O 0.63688(6) 0.00030(6) 0.43876(6)
O2_186 O 0.61582(7) 0.02543(6) 0.40570(6)
O3_186 O 0.63891(9) 0.04680(7) 0.43863(8)
N17_186 N 0.63096(7) 0.02413(7) 0.42756(7)
O1_187 O 0.13688(6) 0.24970(6) 0.31124(6)
O2_187 O 0.11582(7) 0.22457(6) 0.34430(6)
O3_187 O 0.13891(9) 0.20320(7) 0.31137(8)
N17_187 N 0.13096(7) 0.22587(7) 0.32244(7)
O1_188 O 0.61312(6) 0.24970(6) 0.43876(6)
O2_188 O 0.63418(7) 0.22457(6) 0.40570(6)
O3_188 O 0.61109(9) 0.20320(7) 0.43863(8)
N17_188 N 0.61904(7) 0.22587(7) 0.42756(7)
O1_189 O 0.11312(6) 0.00030(6) 0.31124(6)
O2_189 O 0.13418(7) 0.02543(6) 0.34430(6)
O3_189 O 0.11109(9) 0.04680(7) 0.31137(8)
N17_189 N 0.11904(7) 0.02413(7) 0.32244(7)
O1_190 O 0.99970(6) 0.38688(6) 0.68876(6)
O2_190 O 0.97457(6) 0.36582(7) 0.65570(6)
O3_190 O 0.95320(7) 0.38891(9) 0.68863(8)
N17_190 N 0.97587(7) 0.38096(7) 0.67756(7)
O1_191 O 0.75030(6) 0.88688(6) 0.56124(6)
O2_191 O 0.77543(6) 0.86582(7) 0.59430(6)
O3_191 O 0.79680(7) 0.88891(9) 0.56137(8)
N17_191 N 0.77413(7) 0.88096(7) 0.57244(7)
O1_192 O 0.75030(6) 0.36312(6) 0.68876(6)
O2_192 O 0.77543(6) 0.38418(7) 0.65570(6)
O3_192 O 0.79680(7) 0.36109(9) 0.68863(8)
N17_192 N 0.77413(7) 0.36904(7) 0.67756(7)
O4 O 0.46133(6) 0.48600(7) 0.44863(7)
N18 N 0.46526(7) 0.46526(7) 0.46526(7)
O5 O 0.44863(7) 0.46133(6) 0.48600(7)
O6 O 0.48600(7) 0.44863(7) 0.46133(6)
O4_2 O 0.51400(7) 0.71133(6) 0.19863(7)
N18_2 N 0.53474(7) 0.71526(7) 0.21526(7)
O5_2 O 0.53867(6) 0.69863(7) 0.23600(7)
O6_2 O 0.55137(7) 0.73600(7) 0.21133(6)
O4_3 O 0.28867(6) 0.76400(7) 0.94863(7)
N18_3 N 0.28474(7) 0.78474(7) 0.96526(7)
O5_3 O 0.30137(7) 0.78867(6) 0.98600(7)
O6_3 O 0.26400(7) 0.80137(7) 0.96133(6)
O4_4 O 0.23600(7) 0.53867(6) 0.69863(7)
N18_4 N 0.21526(7) 0.53474(7) 0.71526(7)
O5_4 O 0.21133(6) 0.55137(7) 0.73600(7)
O6_4 O 0.19863(7) 0.51400(7) 0.71133(6)
O4_5 O 0.46133(6) 0.76400(7) 0.80137(7)
N18_5 N 0.46526(7) 0.78474(7) 0.78474(7)
O5_5 O 0.44863(7) 0.78867(6) 0.76400(7)
O6_5 O 0.48600(7) 0.80137(7) 0.78867(6)
O4_6 O 0.23600(7) 0.71133(6) 0.55137(7)
N18_6 N 0.21526(7) 0.71526(7) 0.53474(7)
O5_6 O 0.21133(6) 0.69863(7) 0.51400(7)
O6_6 O 0.19863(7) 0.73600(7) 0.53867(6)
O4_7 O 0.28867(6) 0.48600(7) 0.30137(7)
N18_7 N 0.28474(7) 0.46526(7) 0.28474(7)
O5_7 O 0.30137(7) 0.46133(6) 0.26400(7)
O6_7 O 0.26400(7) 0.44863(7) 0.28867(6)
O4_8 O 0.51400(7) 0.53867(6) 0.05137(7)
N18_8 N 0.53474(7) 0.53474(7) 0.03474(7)
O5_8 O 0.53867(6) 0.55137(7) 0.01400(7)
O6_8 O 0.55137(7) 0.51400(7) 0.03867(6)
O4_9 O 0.05137(7) 0.51400(7) 0.53867(6)
N18_9 N 0.03474(7) 0.53474(7) 0.53474(7)
O5_9 O 0.01400(7) 0.53867(6) 0.55137(7)
O6_9 O 0.03867(6) 0.55137(7) 0.51400(7)
O4_10 O 0.55137(7) 0.23600(7) 0.71133(6)
N18_10 N 0.53474(7) 0.21526(7) 0.71526(7)
O5_10 O 0.51400(7) 0.21133(6) 0.69863(7)
O6_10 O 0.53867(6) 0.19863(7) 0.73600(7)
O4_11 O 0.69863(7) 0.23600(7) 0.53867(6)
N18_11 N 0.71526(7) 0.21526(7) 0.53474(7)
O5_11 O 0.73600(7) 0.21133(6) 0.55137(7)
O6_11 O 0.71133(6) 0.19863(7) 0.51400(7)
O4_12 O 0.48600(7) 0.30137(7) 0.28867(6)
N18_12 N 0.46526(7) 0.28474(7) 0.28474(7)
O5_12 O 0.46133(6) 0.26400(7) 0.30137(7)
O6_12 O 0.44863(7) 0.28867(6) 0.26400(7)
O4_13 O 0.76400(7) 0.80137(7) 0.46133(6)
N18_13 N 0.78474(7) 0.78474(7) 0.46526(7)
O5_13 O 0.78867(6) 0.76400(7) 0.44863(7)
O6_13 O 0.80137(7) 0.78867(6) 0.48600(7)
O4_14 O 0.76400(7) 0.94863(7) 0.28867(6)
N18_14 N 0.78474(7) 0.96526(7) 0.28474(7)
O5_14 O 0.78867(6) 0.98600(7) 0.30137(7)
O6_14 O 0.80137(7) 0.96133(6) 0.26400(7)
O4_15 O 0.46133(6) 0.98600(7) 0.94863(7)
N18_15 N 0.46526(7) 0.96526(7) 0.96526(7)
O5_15 O 0.44863(7) 0.96133(6) 0.98600(7)
O6_15 O 0.48600(7) 0.94863(7) 0.96133(6)
O4_16 O 0.28867(6) 0.26400(7) 0.44863(7)
N18_16 N 0.28474(7) 0.28474(7) 0.46526(7)
O5_16 O 0.30137(7) 0.28867(6) 0.48600(7)
O6_16 O 0.26400(7) 0.30137(7) 0.46133(6)
O4_17 O 0.23600(7) 0.03867(6) 0.19863(7)
N18_17 N 0.21526(7) 0.03474(7) 0.21526(7)
O5_17 O 0.21133(6) 0.05137(7) 0.23600(7)
O6_17 O 0.19863(7) 0.01400(7) 0.21133(6)
O4_18 O 0.23600(7) 0.21133(6) 0.05137(7)
N18_18 N 0.21526(7) 0.21526(7) 0.03474(7)
O5_18 O 0.21133(6) 0.19863(7) 0.01400(7)
O6_18 O 0.19863(7) 0.23600(7) 0.03867(6)
O4_19 O 0.28867(6) 0.98600(7) 0.80137(7)
N18_19 N 0.28474(7) 0.96526(7) 0.78474(7)
O5_19 O 0.30137(7) 0.96133(6) 0.76400(7)
O6_19 O 0.26400(7) 0.94863(7) 0.78867(6)
O4_20 O 0.51400(7) 0.03867(6) 0.55137(7)
N18_20 N 0.53474(7) 0.03474(7) 0.53474(7)
O5_20 O 0.53867(6) 0.05137(7) 0.51400(7)
O6_20 O 0.55137(7) 0.01400(7) 0.53867(6)
O4_21 O 0.05137(7) 0.01400(7) 0.03867(6)
N18_21 N 0.03474(7) 0.03474(7) 0.03474(7)
O5_21 O 0.01400(7) 0.03867(6) 0.05137(7)
O6_21 O 0.03867(6) 0.05137(7) 0.01400(7)
O4_22 O 0.69863(7) 0.73600(7) 0.03867(6)
N18_22 N 0.71526(7) 0.71526(7) 0.03474(7)
O5_22 O 0.73600(7) 0.71133(6) 0.05137(7)
O6_22 O 0.71133(6) 0.69863(7) 0.01400(7)
O4_23 O 0.76400(7) 0.30137(7) 0.96133(6)
N18_23 N 0.78474(7) 0.28474(7) 0.96526(7)
O5_23 O 0.78867(6) 0.26400(7) 0.94863(7)
O6_23 O 0.80137(7) 0.28867(6) 0.98600(7)
O4_24 O 0.76400(7) 0.44863(7) 0.78867(6)
N18_24 N 0.78474(7) 0.46526(7) 0.78474(7)
O5_24 O 0.78867(6) 0.48600(7) 0.80137(7)
O6_24 O 0.80137(7) 0.46133(6) 0.76400(7)
O4_25 O 0.96133(6) 0.48600(7) 0.94863(7)
N18_25 N 0.96526(7) 0.46526(7) 0.96526(7)
O5_25 O 0.94863(7) 0.46133(6) 0.98600(7)
O6_25 O 0.98600(7) 0.44863(7) 0.96133(6)
O4_26 O 0.01400(7) 0.71133(6) 0.69863(7)
N18_26 N 0.03474(7) 0.71526(7) 0.71526(7)
O5_26 O 0.03867(6) 0.69863(7) 0.73600(7)
O6_26 O 0.05137(7) 0.73600(7) 0.71133(6)
O4_27 O 0.73600(7) 0.53867(6) 0.19863(7)
N18_27 N 0.71526(7) 0.53474(7) 0.21526(7)
O5_27 O 0.71133(6) 0.55137(7) 0.23600(7)
O6_27 O 0.69863(7) 0.51400(7) 0.21133(6)
O4_28 O 0.96133(6) 0.76400(7) 0.30137(7)
N18_28 N 0.96526(7) 0.78474(7) 0.28474(7)
O5_28 O 0.94863(7) 0.78867(6) 0.26400(7)
O6_28 O 0.98600(7) 0.80137(7) 0.28867(6)
O4_29 O 0.05137(7) 0.23600(7) 0.21133(6)
N18_29 N 0.03474(7) 0.21526(7) 0.21526(7)
O5_29 O 0.01400(7) 0.21133(6) 0.19863(7)
O6_29 O 0.03867(6) 0.19863(7) 0.23600(7)
O4_30 O 0.98600(7) 0.30137(7) 0.78867(6)
N18_30 N 0.96526(7) 0.28474(7) 0.78474(7)
O5_30 O 0.96133(6) 0.26400(7) 0.80137(7)
O6_30 O 0.94863(7) 0.28867(6) 0.76400(7)
O4_31 O 0.96133(6) 0.98600(7) 0.44863(7)
N18_31 N 0.96526(7) 0.96526(7) 0.46526(7)
O5_31 O 0.94863(7) 0.96133(6) 0.48600(7)
O6_31 O 0.98600(7) 0.94863(7) 0.46133(6)
O4_32 O 0.73600(7) 0.03867(6) 0.69863(7)
N18_32 N 0.71526(7) 0.03474(7) 0.71526(7)
O5_32 O 0.71133(6) 0.05137(7) 0.73600(7)
O6_32 O 0.69863(7) 0.01400(7) 0.71133(6)
O4_33 O 0.53867(6) 0.51400(7) 0.55137(7)
N18_33 N 0.53474(7) 0.53474(7) 0.53474(7)
O5_33 O 0.55137(7) 0.53867(6) 0.51400(7)
O6_33 O 0.51400(7) 0.55137(7) 0.53867(6)
O4_34 O 0.48600(7) 0.28867(6) 0.80137(7)
N18_34 N 0.46526(7) 0.28474(7) 0.78474(7)
O5_34 O 0.46133(6) 0.30137(7) 0.76400(7)
O6_34 O 0.44863(7) 0.26400(7) 0.78867(6)
O4_35 O 0.71133(6) 0.23600(7) 0.05137(7)
N18_35 N 0.71526(7) 0.21526(7) 0.03474(7)
O5_35 O 0.69863(7) 0.21133(6) 0.01400(7)
O6_35 O 0.73600(7) 0.19863(7) 0.03867(6)
O4_36 O 0.76400(7) 0.46133(6) 0.30137(7)
N18_36 N 0.78474(7) 0.46526(7) 0.28474(7)
O5_36 O 0.78867(6) 0.44863(7) 0.26400(7)
O6_36 O 0.80137(7) 0.48600(7) 0.28867(6)
O4_37 O 0.53867(6) 0.23600(7) 0.19863(7)
N18_37 N 0.53474(7) 0.21526(7) 0.21526(7)
O5_37 O 0.55137(7) 0.21133(6) 0.23600(7)
O6_37 O 0.51400(7) 0.19863(7) 0.21133(6)
O4_38 O 0.76400(7) 0.28867(6) 0.44863(7)
N18_38 N 0.78474(7) 0.28474(7) 0.46526(7)
O5_38 O 0.78867(6) 0.30137(7) 0.48600(7)
O6_38 O 0.80137(7) 0.26400(7) 0.46133(6)
O4_39 O 0.71133(6) 0.51400(7) 0.69863(7)
N18_39 N 0.71526(7) 0.53474(7) 0.71526(7)
O5_39 O 0.69863(7) 0.53867(6) 0.73600(7)
O6_39 O 0.73600(7) 0.55137(7) 0.71133(6)
O4_40 O 0.48600(7) 0.46133(6) 0.94863(7)
N18_40 N 0.46526(7) 0.46526(7) 0.96526(7)
O5_40 O 0.46133(6) 0.44863(7) 0.98600(7)
O6_40 O 0.44863(7) 0.48600(7) 0.96133(6)
O4_41 O 0.94863(7) 0.48600(7) 0.46133(6)
N18_41 N 0.96526(7) 0.46526(7) 0.46526(7)
O5_41 O 0.98600(7) 0.46133(6) 0.44863(7)
O6_41 O 0.96133(6) 0.44863(7) 0.48600(7)
O4_42 O 0.44863(7) 0.76400(7) 0.28867(6)
N18_42 N 0.46526(7) 0.78474(7) 0.28474(7)
O5_42 O 0.48600(7) 0.78867(6) 0.30137(7)
O6_42 O 0.46133(6) 0.80137(7) 0.26400(7)
O4_43 O 0.30137(7) 0.76400(7) 0.46133(6)
N18_43 N 0.28474(7) 0.78474(7) 0.46526(7)
O5_43 O 0.26400(7) 0.78867(6) 0.44863(7)
O6_43 O 0.28867(6) 0.80137(7) 0.48600(7)
O4_44 O 0.51400(7) 0.69863(7) 0.71133(6)
N18_44 N 0.53474(7) 0.71526(7) 0.71526(7)
O5_44 O 0.53867(6) 0.73600(7) 0.69863(7)
O6_44 O 0.55137(7) 0.71133(6) 0.73600(7)
O4_45 O 0.23600(7) 0.19863(7) 0.53867(6)
N18_45 N 0.21526(7) 0.21526(7) 0.53474(7)
O5_45 O 0.21133(6) 0.23600(7) 0.55137(7)
O6_45 O 0.19863(7) 0.21133(6) 0.51400(7)
O4_46 O 0.23600(7) 0.05137(7) 0.71133(6)
N18_46 N 0.21526(7) 0.03474(7) 0.71526(7)
O5_46 O 0.21133(6) 0.01400(7) 0.69863(7)
O6_46 O 0.19863(7) 0.03867(6) 0.73600(7)
O4_47 O 0.53867(6) 0.01400(7) 0.05137(7)
N18_47 N 0.53474(7) 0.03474(7) 0.03474(7)
O5_47 O 0.55137(7) 0.03867(6) 0.01400(7)
O6_47 O 0.51400(7) 0.05137(7) 0.03867(6)
O4_48 O 0.71133(6) 0.73600(7) 0.55137(7)
N18_48 N 0.71526(7) 0.71526(7) 0.53474(7)
O5_48 O 0.69863(7) 0.71133(6) 0.51400(7)
O6_48 O 0.73600(7) 0.69863(7) 0.53867(6)
O4_49 O 0.76400(7) 0.96133(6) 0.80137(7)
N18_49 N 0.78474(7) 0.96526(7) 0.78474(7)
O5_49 O 0.78867(6) 0.94863(7) 0.76400(7)
O6_49 O 0.80137(7) 0.98600(7) 0.78867(6)
O4_50 O 0.76400(7) 0.78867(6) 0.94863(7)
N18_50 N 0.78474(7) 0.78474(7) 0.96526(7)
O5_50 O 0.78867(6) 0.80137(7) 0.98600(7)
O6_50 O 0.80137(7) 0.76400(7) 0.96133(6)
O4_51 O 0.71133(6) 0.01400(7) 0.19863(7)
N18_51 N 0.71526(7) 0.03474(7) 0.21526(7)
O5_51 O 0.69863(7) 0.03867(6) 0.23600(7)
O6_51 O 0.73600(7) 0.05137(7) 0.21133(6)
O4_52 O 0.48600(7) 0.96133(6) 0.44863(7)
N18_52 N 0.46526(7) 0.96526(7) 0.46526(7)
O5_52 O 0.46133(6) 0.94863(7) 0.48600(7)
O6_52 O 0.44863(7) 0.98600(7) 0.46133(6)
O4_53 O 0.94863(7) 0.98600(7) 0.96133(6)
N18_53 N 0.96526(7) 0.96526(7) 0.96526(7)
O5_53 O 0.98600(7) 0.96133(6) 0.94863(7)
O6_53 O 0.96133(6) 0.94863(7) 0.98600(7)
O4_54 O 0.30137(7) 0.26400(7) 0.96133(6)
N18_54 N 0.28474(7) 0.28474(7) 0.96526(7)
O5_54 O 0.26400(7) 0.28867(6) 0.94863(7)
O6_54 O 0.28867(6) 0.30137(7) 0.98600(7)
O4_55 O 0.23600(7) 0.69863(7) 0.03867(6)
N18_55 N 0.21526(7) 0.71526(7) 0.03474(7)
O5_55 O 0.21133(6) 0.73600(7) 0.05137(7)
O6_55 O 0.19863(7) 0.71133(6) 0.01400(7)
O4_56 O 0.23600(7) 0.55137(7) 0.21133(6)
N18_56 N 0.21526(7) 0.53474(7) 0.21526(7)
O5_56 O 0.21133(6) 0.51400(7) 0.19863(7)
O6_56 O 0.19863(7) 0.53867(6) 0.23600(7)
O4_57 O 0.03867(6) 0.51400(7) 0.05137(7)
N18_57 N 0.03474(7) 0.53474(7) 0.03474(7)
O5_57 O 0.05137(7) 0.53867(6) 0.01400(7)
O6_57 O 0.01400(7) 0.55137(7) 0.03867(6)
O4_58 O 0.98600(7) 0.28867(6) 0.30137(7)
N18_58 N 0.96526(7) 0.28474(7) 0.28474(7)
O5_58 O 0.96133(6) 0.30137(7) 0.26400(7)
O6_58 O 0.94863(7) 0.26400(7) 0.28867(6)
O4_59 O 0.26400(7) 0.46133(6) 0.80137(7)
N18_59 N 0.28474(7) 0.46526(7) 0.78474(7)
O5_59 O 0.28867(6) 0.44863(7) 0.76400(7)
O6_59 O 0.30137(7) 0.48600(7) 0.78867(6)
O4_60 O 0.03867(6) 0.23600(7) 0.69863(7)
N18_60 N 0.03474(7) 0.21526(7) 0.71526(7)
O5_60 O 0.05137(7) 0.21133(6) 0.73600(7)
O6_60 O 0.01400(7) 0.19863(7) 0.71133(6)
O4_61 O 0.94863(7) 0.76400(7) 0.78867(6)
N18_61 N 0.96526(7) 0.78474(7) 0.78474(7)
O5_61 O 0.98600(7) 0.78867(6) 0.80137(7)
O6_61 O 0.96133(6) 0.80137(7) 0.76400(7)
O4_62 O 0.01400(7) 0.69863(7) 0.21133(6)
N18_62 N 0.03474(7) 0.71526(7) 0.21526(7)
O5_62 O 0.03867(6) 0.73600(7) 0.19863(7)
O6_62 O 0.05137(7) 0.71133(6) 0.23600(7)
O4_63 O 0.03867(6) 0.01400(7) 0.55137(7)
N18_63 N 0.03474(7) 0.03474(7) 0.53474(7)
O5_63 O 0.05137(7) 0.03867(6) 0.51400(7)
O6_63 O 0.01400(7) 0.05137(7) 0.53867(6)
O4_64 O 0.26400(7) 0.96133(6) 0.30137(7)
N18_64 N 0.28474(7) 0.96526(7) 0.28474(7)
O5_64 O 0.28867(6) 0.94863(7) 0.26400(7)
O6_64 O 0.30137(7) 0.98600(7) 0.28867(6)
O7 O 0.41488(9) 0.40831(8) 0.44381(7)
N19 N 0.42257(9) 0.42257(9) 0.42257(9)
O8 O 0.44381(7) 0.41488(9) 0.40831(8)
O9 O 0.40831(8) 0.44381(7) 0.41488(9)
O7_2 O 0.59169(8) 0.66488(9) 0.19381(7)
N19_2 N 0.57743(9) 0.67257(9) 0.17257(9)
O8_2 O 0.58512(9) 0.69381(7) 0.15831(8)
O9_2 O 0.55619(7) 0.65831(8) 0.16488(9)
O7_3 O 0.33512(9) 0.84169(8) 0.94381(7)
N19_3 N 0.32743(9) 0.82743(9) 0.92257(9)
O8_3 O 0.30619(7) 0.83512(9) 0.90831(8)
O9_3 O 0.34169(8) 0.80619(7) 0.91488(9)
O7_4 O 0.15831(8) 0.58512(9) 0.69381(7)
N19_4 N 0.17257(9) 0.57743(9) 0.67257(9)
O8_4 O 0.16488(9) 0.55619(7) 0.65831(8)
O9_4 O 0.19381(7) 0.59169(8) 0.66488(9)
O7_5 O 0.41488(9) 0.84169(8) 0.80619(7)
N19_5 N 0.42257(9) 0.82743(9) 0.82743(9)
O8_5 O 0.44381(7) 0.83512(9) 0.84169(8)
O9_5 O 0.40831(8) 0.80619(7) 0.83512(9)
O7_6 O 0.15831(8) 0.66488(9) 0.55619(7)
N19_6 N 0.17257(9) 0.67257(9) 0.57743(9)
O8_6 O 0.16488(9) 0.69381(7) 0.59169(8)
O9_6 O 0.19381(7) 0.65831(8) 0.58512(9)
O7_7 O 0.33512(9) 0.40831(8) 0.30619(7)
N19_7 N 0.32743(9) 0.42257(9) 0.32743(9)
O8_7 O 0.30619(7) 0.41488(9) 0.34169(8)
O9_7 O 0.34169(8) 0.44381(7) 0.33512(9)
O7_8 O 0.59169(8) 0.58512(9) 0.05619(7)
N19_8 N 0.57743(9) 0.57743(9) 0.07743(9)
O8_8 O 0.58512(9) 0.55619(7) 0.09169(8)
O9_8 O 0.55619(7) 0.59169(8) 0.08512(9)
O7_9 O 0.05619(7) 0.59169(8) 0.58512(9)
N19_9 N 0.07743(9) 0.57743(9) 0.57743(9)
O8_9 O 0.09169(8) 0.58512(9) 0.55619(7)
O9_9 O 0.08512(9) 0.55619(7) 0.59169(8)
O7_10 O 0.55619(7) 0.15831(8) 0.66488(9)
N19_10 N 0.57743(9) 0.17257(9) 0.67257(9)
O8_10 O 0.59169(8) 0.16488(9) 0.69381(7)
O9_10 O 0.58512(9) 0.19381(7) 0.65831(8)
O7_11 O 0.69381(7) 0.15831(8) 0.58512(9)
N19_11 N 0.67257(9) 0.17257(9) 0.57743(9)
O8_11 O 0.65831(8) 0.16488(9) 0.55619(7)
O9_11 O 0.66488(9) 0.19381(7) 0.59169(8)
O7_12 O 0.40831(8) 0.30619(7) 0.33512(9)
N19_12 N 0.42257(9) 0.32743(9) 0.32743(9)
O8_12 O 0.41488(9) 0.34169(8) 0.30619(7)
O9_12 O 0.44381(7) 0.33512(9) 0.34169(8)
O7_13 O 0.84169(8) 0.80619(7) 0.41488(9)
N19_13 N 0.82743(9) 0.82743(9) 0.42257(9)
O8_13 O 0.83512(9) 0.84169(8) 0.44381(7)
O9_13 O 0.80619(7) 0.83512(9) 0.40831(8)
O7_14 O 0.84169(8) 0.94381(7) 0.33512(9)
N19_14 N 0.82743(9) 0.92257(9) 0.32743(9)
O8_14 O 0.83512(9) 0.90831(8) 0.30619(7)
O9_14 O 0.80619(7) 0.91488(9) 0.34169(8)
O7_15 O 0.41488(9) 0.90831(8) 0.94381(7)
N19_15 N 0.42257(9) 0.92257(9) 0.92257(9)
O8_15 O 0.44381(7) 0.91488(9) 0.90831(8)
O9_15 O 0.40831(8) 0.94381(7) 0.91488(9)
O7_16 O 0.33512(9) 0.34169(8) 0.44381(7)
N19_16 N 0.32743(9) 0.32743(9) 0.42257(9)
O8_16 O 0.30619(7) 0.33512(9) 0.40831(8)
O9_16 O 0.34169(8) 0.30619(7) 0.41488(9)
O7_17 O 0.15831(8) 0.08512(9) 0.19381(7)
N19_17 N 0.17257(9) 0.07743(9) 0.17257(9)
O8_17 O 0.16488(9) 0.05619(7) 0.15831(8)
O9_17 O 0.19381(7) 0.09169(8) 0.16488(9)
O7_18 O 0.15831(8) 0.16488(9) 0.05619(7)
N19_18 N 0.17257(9) 0.17257(9) 0.07743(9)
O8_18 O 0.16488(9) 0.19381(7) 0.09169(8)
O9_18 O 0.19381(7) 0.15831(8) 0.08512(9)
O7_19 O 0.33512(9) 0.90831(8) 0.80619(7)
N19_19 N 0.32743(9) 0.92257(9) 0.82743(9)
O8_19 O 0.30619(7) 0.91488(9) 0.84169(8)
O9_19 O 0.34169(8) 0.94381(7) 0.83512(9)
O7_20 O 0.59169(8) 0.08512(9) 0.55619(7)
N19_20 N 0.57743(9) 0.07743(9) 0.57743(9)
O8_20 O 0.58512(9) 0.05619(7) 0.59169(8)
O9_20 O 0.55619(7) 0.09169(8) 0.58512(9)
O7_21 O 0.05619(7) 0.09169(8) 0.08512(9)
N19_21 N 0.07743(9) 0.07743(9) 0.07743(9)
O8_21 O 0.09169(8) 0.08512(9) 0.05619(7)
O9_21 O 0.08512(9) 0.05619(7) 0.09169(8)
O7_22 O 0.69381(7) 0.65831(8) 0.08512(9)
N19_22 N 0.67257(9) 0.67257(9) 0.07743(9)
O8_22 O 0.65831(8) 0.66488(9) 0.05619(7)
O9_22 O 0.66488(9) 0.69381(7) 0.09169(8)
O7_23 O 0.84169(8) 0.30619(7) 0.91488(9)
N19_23 N 0.82743(9) 0.32743(9) 0.92257(9)
O8_23 O 0.83512(9) 0.34169(8) 0.94381(7)
O9_23 O 0.80619(7) 0.33512(9) 0.90831(8)
O7_24 O 0.84169(8) 0.44381(7) 0.83512(9)
N19_24 N 0.82743(9) 0.42257(9) 0.82743(9)
O8_24 O 0.83512(9) 0.40831(8) 0.80619(7)
O9_24 O 0.80619(7) 0.41488(9) 0.84169(8)
O7_25 O 0.91488(9) 0.40831(8) 0.94381(7)
N19_25 N 0.92257(9) 0.42257(9) 0.92257(9)
O8_25 O 0.94381(7) 0.41488(9) 0.90831(8)
O9_25 O 0.90831(8) 0.44381(7) 0.91488(9)
O7_26 O 0.09169(8) 0.66488(9) 0.69381(7)
N19_26 N 0.07743(9) 0.67257(9) 0.67257(9)
O8_26 O 0.08512(9) 0.69381(7) 0.65831(8)
O9_26 O 0.05619(7) 0.65831(8) 0.66488(9)
O7_27 O 0.65831(8) 0.58512(9) 0.19381(7)
N19_27 N 0.67257(9) 0.57743(9) 0.17257(9)
O8_27 O 0.66488(9) 0.55619(7) 0.15831(8)
O9_27 O 0.69381(7) 0.59169(8) 0.16488(9)
O7_28 O 0.91488(9) 0.84169(8) 0.30619(7)
N19_28 N 0.92257(9) 0.82743(9) 0.32743(9)
O8_28 O 0.94381(7) 0.83512(9) 0.34169(8)
O9_28 O 0.90831(8) 0.80619(7) 0.33512(9)
O7_29 O 0.05619(7) 0.15831(8) 0.16488(9)
N19_29 N 0.07743(9) 0.17257(9) 0.17257(9)
O8_29 O 0.09169(8) 0.16488(9) 0.19381(7)
O9_29 O 0.08512(9) 0.19381(7) 0.15831(8)
O7_30 O 0.90831(8) 0.30619(7) 0.83512(9)
N19_30 N 0.92257(9) 0.32743(9) 0.82743(9)
O8_30 O 0.91488(9) 0.34169(8) 0.80619(7)
O9_30 O 0.94381(7) 0.33512(9) 0.84169(8)
O7_31 O 0.91488(9) 0.90831(8) 0.44381(7)
N19_31 N 0.92257(9) 0.92257(9) 0.42257(9)
O8_31 O 0.94381(7) 0.91488(9) 0.40831(8)
O9_31 O 0.90831(8) 0.94381(7) 0.41488(9)
O7_32 O 0.65831(8) 0.08512(9) 0.69381(7)
N19_32 N 0.67257(9) 0.07743(9) 0.67257(9)
O8_32 O 0.66488(9) 0.05619(7) 0.65831(8)
O9_32 O 0.69381(7) 0.09169(8) 0.66488(9)
O7_33 O 0.58512(9) 0.59169(8) 0.55619(7)
N19_33 N 0.57743(9) 0.57743(9) 0.57743(9)
O8_33 O 0.55619(7) 0.58512(9) 0.59169(8)
O9_33 O 0.59169(8) 0.55619(7) 0.58512(9)
O7_34 O 0.40831(8) 0.33512(9) 0.80619(7)
N19_34 N 0.42257(9) 0.32743(9) 0.82743(9)
O8_34 O 0.41488(9) 0.30619(7) 0.84169(8)
O9_34 O 0.44381(7) 0.34169(8) 0.83512(9)
O7_35 O 0.66488(9) 0.15831(8) 0.05619(7)
N19_35 N 0.67257(9) 0.17257(9) 0.07743(9)
O8_35 O 0.69381(7) 0.16488(9) 0.09169(8)
O9_35 O 0.65831(8) 0.19381(7) 0.08512(9)
O7_36 O 0.84169(8) 0.41488(9) 0.30619(7)
N19_36 N 0.82743(9) 0.42257(9) 0.32743(9)
O8_36 O 0.83512(9) 0.44381(7) 0.34169(8)
O9_36 O 0.80619(7) 0.40831(8) 0.33512(9)
O7_37 O 0.58512(9) 0.15831(8) 0.19381(7)
N19_37 N 0.57743(9) 0.17257(9) 0.17257(9)
O8_37 O 0.55619(7) 0.16488(9) 0.15831(8)
O9_37 O 0.59169(8) 0.19381(7) 0.16488(9)
O7_38 O 0.84169(8) 0.33512(9) 0.44381(7)
N19_38 N 0.82743(9) 0.32743(9) 0.42257(9)
O8_38 O 0.83512(9) 0.30619(7) 0.40831(8)
O9_38 O 0.80619(7) 0.34169(8) 0.41488(9)
O7_39 O 0.66488(9) 0.59169(8) 0.69381(7)
N19_39 N 0.67257(9) 0.57743(9) 0.67257(9)
O8_39 O 0.69381(7) 0.58512(9) 0.65831(8)
O9_39 O 0.65831(8) 0.55619(7) 0.66488(9)
O7_40 O 0.40831(8) 0.41488(9) 0.94381(7)
N19_40 N 0.42257(9) 0.42257(9) 0.92257(9)
O8_40 O 0.41488(9) 0.44381(7) 0.90831(8)
O9_40 O 0.44381(7) 0.40831(8) 0.91488(9)
O7_41 O 0.94381(7) 0.40831(8) 0.41488(9)
N19_41 N 0.92257(9) 0.42257(9) 0.42257(9)
O8_41 O 0.90831(8) 0.41488(9) 0.44381(7)
O9_41 O 0.91488(9) 0.44381(7) 0.40831(8)
O7_42 O 0.44381(7) 0.84169(8) 0.33512(9)
N19_42 N 0.42257(9) 0.82743(9) 0.32743(9)
O8_42 O 0.40831(8) 0.83512(9) 0.30619(7)
O9_42 O 0.41488(9) 0.80619(7) 0.34169(8)
O7_43 O 0.30619(7) 0.84169(8) 0.41488(9)
N19_43 N 0.32743(9) 0.82743(9) 0.42257(9)
O8_43 O 0.34169(8) 0.83512(9) 0.44381(7)
O9_43 O 0.33512(9) 0.80619(7) 0.40831(8)
O7_44 O 0.59169(8) 0.69381(7) 0.66488(9)
N19_44 N 0.57743(9) 0.67257(9) 0.67257(9)
O8_44 O 0.58512(9) 0.65831(8) 0.69381(7)
O9_44 O 0.55619(7) 0.66488(9) 0.65831(8)
O7_45 O 0.15831(8) 0.19381(7) 0.58512(9)
N19_45 N 0.17257(9) 0.17257(9) 0.57743(9)
O8_45 O 0.16488(9) 0.15831(8) 0.55619(7)
O9_45 O 0.19381(7) 0.16488(9) 0.59169(8)
O7_46 O 0.15831(8) 0.05619(7) 0.66488(9)
N19_46 N 0.17257(9) 0.07743(9) 0.67257(9)
O8_46 O 0.16488(9) 0.09169(8) 0.69381(7)
O9_46 O 0.19381(7) 0.08512(9) 0.65831(8)
O7_47 O 0.58512(9) 0.09169(8) 0.05619(7)
N19_47 N 0.57743(9) 0.07743(9) 0.07743(9)
O8_47 O 0.55619(7) 0.08512(9) 0.09169(8)
O9_47 O 0.59169(8) 0.05619(7) 0.08512(9)
O7_48 O 0.66488(9) 0.65831(8) 0.55619(7)
N19_48 N 0.67257(9) 0.67257(9) 0.57743(9)
O8_48 O 0.69381(7) 0.66488(9) 0.59169(8)
O9_48 O 0.65831(8) 0.69381(7) 0.58512(9)
O7_49 O 0.84169(8) 0.91488(9) 0.80619(7)
N19_49 N 0.82743(9) 0.92257(9) 0.82743(9)
O8_49 O 0.83512(9) 0.94381(7) 0.84169(8)
O9_49 O 0.80619(7) 0.90831(8) 0.83512(9)
O7_50 O 0.84169(8) 0.83512(9) 0.94381(7)
N19_50 N 0.82743(9) 0.82743(9) 0.92257(9)
O8_50 O 0.83512(9) 0.80619(7) 0.90831(8)
O9_50 O 0.80619(7) 0.84169(8) 0.91488(9)
O7_51 O 0.66488(9) 0.09169(8) 0.19381(7)
N19_51 N 0.67257(9) 0.07743(9) 0.17257(9)
O8_51 O 0.69381(7) 0.08512(9) 0.15831(8)
O9_51 O 0.65831(8) 0.05619(7) 0.16488(9)
O7_52 O 0.40831(8) 0.91488(9) 0.44381(7)
N19_52 N 0.42257(9) 0.92257(9) 0.42257(9)
O8_52 O 0.41488(9) 0.94381(7) 0.40831(8)
O9_52 O 0.44381(7) 0.90831(8) 0.41488(9)
O7_53 O 0.94381(7) 0.90831(8) 0.91488(9)
N19_53 N 0.92257(9) 0.92257(9) 0.92257(9)
O8_53 O 0.90831(8) 0.91488(9) 0.94381(7)
O9_53 O 0.91488(9) 0.94381(7) 0.90831(8)
O7_54 O 0.30619(7) 0.34169(8) 0.91488(9)
N19_54 N 0.32743(9) 0.32743(9) 0.92257(9)
O8_54 O 0.34169(8) 0.33512(9) 0.94381(7)
O9_54 O 0.33512(9) 0.30619(7) 0.90831(8)
O7_55 O 0.15831(8) 0.69381(7) 0.08512(9)
N19_55 N 0.17257(9) 0.67257(9) 0.07743(9)
O8_55 O 0.16488(9) 0.65831(8) 0.05619(7)
O9_55 O 0.19381(7) 0.66488(9) 0.09169(8)
O7_56 O 0.15831(8) 0.55619(7) 0.16488(9)
N19_56 N 0.17257(9) 0.57743(9) 0.17257(9)
O8_56 O 0.16488(9) 0.59169(8) 0.19381(7)
O9_56 O 0.19381(7) 0.58512(9) 0.15831(8)
O7_57 O 0.08512(9) 0.59169(8) 0.05619(7)
N19_57 N 0.07743(9) 0.57743(9) 0.07743(9)
O8_57 O 0.05619(7) 0.58512(9) 0.09169(8)
O9_57 O 0.09169(8) 0.55619(7) 0.08512(9)
O7_58 O 0.90831(8) 0.33512(9) 0.30619(7)
N19_58 N 0.92257(9) 0.32743(9) 0.32743(9)
O8_58 O 0.91488(9) 0.30619(7) 0.34169(8)
O9_58 O 0.94381(7) 0.34169(8) 0.33512(9)
O7_59 O 0.34169(8) 0.41488(9) 0.80619(7)
N19_59 N 0.32743(9) 0.42257(9) 0.82743(9)
O8_59 O 0.33512(9) 0.44381(7) 0.84169(8)
O9_59 O 0.30619(7) 0.40831(8) 0.83512(9)
O7_60 O 0.08512(9) 0.15831(8) 0.69381(7)
N19_60 N 0.07743(9) 0.17257(9) 0.67257(9)
O8_60 O 0.05619(7) 0.16488(9) 0.65831(8)
O9_60 O 0.09169(8) 0.19381(7) 0.66488(9)
O7_61 O 0.94381(7) 0.84169(8) 0.83512(9)
N19_61 N 0.92257(9) 0.82743(9) 0.82743(9)
O8_61 O 0.90831(8) 0.83512(9) 0.80619(7)
O9_61 O 0.91488(9) 0.80619(7) 0.84169(8)
O7_62 O 0.09169(8) 0.69381(7) 0.16488(9)
N19_62 N 0.07743(9) 0.67257(9) 0.17257(9)
O8_62 O 0.08512(9) 0.65831(8) 0.19381(7)
O9_62 O 0.05619(7) 0.66488(9) 0.15831(8)
O7_63 O 0.08512(9) 0.09169(8) 0.55619(7)
N19_63 N 0.07743(9) 0.07743(9) 0.57743(9)
O8_63 O 0.05619(7) 0.08512(9) 0.59169(8)
O9_63 O 0.09169(8) 0.05619(7) 0.58512(9)
O7_64 O 0.34169(8) 0.91488(9) 0.30619(7)
N19_64 N 0.32743(9) 0.92257(9) 0.32743(9)
O8_64 O 0.33512(9) 0.94381(7) 0.34169(8)
O9_64 O 0.30619(7) 0.90831(8) 0.33512(9)
N20 N 0.29001(12) 0.45999(12) 0.45999(12)
O10 O 0.28644(10) 0.47647(11) 0.44068(11)
O11 O 0.30932(11) 0.46356(10) 0.47647(11)
O12 O 0.27353(11) 0.44068(11) 0.46356(10)
N20_2 N 0.54001(12) 0.54001(12) 0.20999(12)
O10_2 O 0.52353(11) 0.53644(10) 0.19068(11)
O11_2 O 0.53644(10) 0.55932(11) 0.22647(11)
O12_2 O 0.55932(11) 0.52353(11) 0.21356(10)
N20_3 N 0.45999(12) 0.79001(12) 0.95999(12)
O10_3 O 0.46356(10) 0.77353(11) 0.94068(11)
O11_3 O 0.44068(11) 0.78644(10) 0.97647(11)
O12_3 O 0.47647(11) 0.80932(11) 0.96356(10)
N20_4 N 0.20999(12) 0.70999(12) 0.70999(12)
O10_4 O 0.22647(11) 0.71356(10) 0.69068(11)
O11_4 O 0.21356(10) 0.69068(11) 0.72647(11)
O12_4 O 0.19068(11) 0.72647(11) 0.71356(10)
N20_5 N 0.29001(12) 0.79001(12) 0.79001(12)
O10_5 O 0.28644(10) 0.77353(11) 0.80932(11)
O11_5 O 0.30932(11) 0.78644(10) 0.77353(11)
O12_5 O 0.27353(11) 0.80932(11) 0.78644(10)
N20_6 N 0.20999(12) 0.54001(12) 0.54001(12)
O10_6 O 0.22647(11) 0.53644(10) 0.55932(11)
O11_6 O 0.21356(10) 0.55932(11) 0.52353(11)
O12_6 O 0.19068(11) 0.52353(11) 0.53644(10)
N20_7 N 0.45999(12) 0.45999(12) 0.29001(12)
O10_7 O 0.46356(10) 0.47647(11) 0.30932(11)
O11_7 O 0.44068(11) 0.46356(10) 0.27353(11)
O12_7 O 0.47647(11) 0.44068(11) 0.28644(10)
N20_8 N 0.54001(12) 0.70999(12) 0.04001(12)
O10_8 O 0.52353(11) 0.71356(10) 0.05932(11)
O11_8 O 0.53644(10) 0.69068(11) 0.02353(11)
O12_8 O 0.55932(11) 0.72647(11) 0.03644(10)
N20_9 N 0.45999(12) 0.29001(12) 0.45999(12)
O10_9 O 0.44068(11) 0.28644(10) 0.47647(11)
O11_9 O 0.47647(11) 0.30932(11) 0.46356(10)
O12_9 O 0.46356(10) 0.27353(11) 0.44068(11)
N20_10 N 0.70999(12) 0.70999(12) 0.20999(12)
O10_10 O 0.71356(10) 0.69068(11) 0.22647(11)
O11_10 O 0.69068(11) 0.72647(11) 0.21356(10)
O12_10 O 0.72647(11) 0.71356(10) 0.19068(11)
N20_11 N 0.29001(12) 0.95999(12) 0.95999(12)
O10_11 O 0.30932(11) 0.96356(10) 0.97647(11)
O11_11 O 0.27353(11) 0.94068(11) 0.96356(10)
O12_11 O 0.28644(10) 0.97647(11) 0.94068(11)
N20_12 N 0.04001(12) 0.54001(12) 0.70999(12)
O10_12 O 0.03644(10) 0.55932(11) 0.72647(11)
O11_12 O 0.05932(11) 0.52353(11) 0.71356(10)
O12_12 O 0.02353(11) 0.53644(10) 0.69068(11)
N20_13 N 0.45999(12) 0.95999(12) 0.79001(12)
O10_13 O 0.44068(11) 0.96356(10) 0.77353(11)
O11_13 O 0.47647(11) 0.94068(11) 0.78644(10)
O12_13 O 0.46356(10) 0.97647(11) 0.80932(11)
N20_14 N 0.04001(12) 0.70999(12) 0.54001(12)
O10_14 O 0.03644(10) 0.69068(11) 0.52353(11)
O11_14 O 0.05932(11) 0.72647(11) 0.53644(10)
O12_14 O 0.02353(11) 0.71356(10) 0.55932(11)
N20_15 N 0.29001(12) 0.29001(12) 0.29001(12)
O10_15 O 0.30932(11) 0.28644(10) 0.27353(11)
O11_15 O 0.27353(11) 0.30932(11) 0.28644(10)
O12_15 O 0.28644(10) 0.27353(11) 0.30932(11)
N20_16 N 0.70999(12) 0.54001(12) 0.04001(12)
O10_16 O 0.71356(10) 0.55932(11) 0.02353(11)
O11_16 O 0.69068(11) 0.52353(11) 0.03644(10)
O12_16 O 0.72647(11) 0.53644(10) 0.05932(11)
N20_17 N 0.54001(12) 0.20999(12) 0.54001(12)
O10_17 O 0.55932(11) 0.22647(11) 0.53644(10)
O11_17 O 0.52353(11) 0.21356(10) 0.55932(11)
O12_17 O 0.53644(10) 0.19068(11) 0.52353(11)
N20_18 N 0.70999(12) 0.20999(12) 0.70999(12)
O10_18 O 0.69068(11) 0.22647(11) 0.71356(10)
O11_18 O 0.72647(11) 0.21356(10) 0.69068(11)
O12_18 O 0.71356(10) 0.19068(11) 0.72647(11)
N20_19 N 0.79001(12) 0.79001(12) 0.29001(12)
O10_19 O 0.77353(11) 0.80932(11) 0.28644(10)
O11_19 O 0.78644(10) 0.77353(11) 0.30932(11)
O12_19 O 0.80932(11) 0.78644(10) 0.27353(11)
N20_20 N 0.79001(12) 0.95999(12) 0.45999(12)
O10_20 O 0.77353(11) 0.94068(11) 0.46356(10)
O11_20 O 0.78644(10) 0.97647(11) 0.44068(11)
O12_20 O 0.80932(11) 0.96356(10) 0.47647(11)
N20_21 N 0.54001(12) 0.04001(12) 0.70999(12)
O10_21 O 0.52353(11) 0.03644(10) 0.69068(11)
O11_21 O 0.53644(10) 0.05932(11) 0.72647(11)
O12_21 O 0.55932(11) 0.02353(11) 0.71356(10)
N20_22 N 0.20999(12) 0.20999(12) 0.20999(12)
O10_22 O 0.22647(11) 0.21356(10) 0.19068(11)
O11_22 O 0.21356(10) 0.19068(11) 0.22647(11)
O12_22 O 0.19068(11) 0.22647(11) 0.21356(10)
N20_23 N 0.20999(12) 0.04001(12) 0.04001(12)
O10_23 O 0.22647(11) 0.03644(10) 0.05932(11)
O11_23 O 0.21356(10) 0.05932(11) 0.02353(11)
O12_23 O 0.19068(11) 0.02353(11) 0.03644(10)
N20_24 N 0.04001(12) 0.04001(12) 0.20999(12)
O10_24 O 0.03644(10) 0.05932(11) 0.22647(11)
O11_24 O 0.05932(11) 0.02353(11) 0.21356(10)
O12_24 O 0.02353(11) 0.03644(10) 0.19068(11)
N20_25 N 0.04001(12) 0.20999(12) 0.04001(12)
O10_25 O 0.03644(10) 0.19068(11) 0.02353(11)
O11_25 O 0.05932(11) 0.22647(11) 0.03644(10)
O12_25 O 0.02353(11) 0.21356(10) 0.05932(11)
N20_26 N 0.70999(12) 0.04001(12) 0.54001(12)
O10_26 O 0.71356(10) 0.05932(11) 0.52353(11)
O11_26 O 0.69068(11) 0.02353(11) 0.53644(10)
O12_26 O 0.72647(11) 0.03644(10) 0.55932(11)
N20_27 N 0.79001(12) 0.29001(12) 0.79001(12)
O10_27 O 0.77353(11) 0.30932(11) 0.78644(10)
O11_27 O 0.78644(10) 0.27353(11) 0.80932(11)
O12_27 O 0.80932(11) 0.28644(10) 0.77353(11)
N20_28 N 0.79001(12) 0.45999(12) 0.95999(12)
O10_28 O 0.77353(11) 0.44068(11) 0.96356(10)
O11_28 O 0.78644(10) 0.47647(11) 0.94068(11)
O12_28 O 0.80932(11) 0.46356(10) 0.97647(11)
N20_29 N 0.95999(12) 0.79001(12) 0.45999(12)
O10_29 O 0.96356(10) 0.77353(11) 0.44068(11)
O11_29 O 0.94068(11) 0.78644(10) 0.47647(11)
O12_29 O 0.97647(11) 0.80932(11) 0.46356(10)
N20_30 N 0.95999(12) 0.45999(12) 0.79001(12)
O10_30 O 0.96356(10) 0.47647(11) 0.80932(11)
O11_30 O 0.94068(11) 0.46356(10) 0.77353(11)
O12_30 O 0.97647(11) 0.44068(11) 0.78644(10)
N20_31 N 0.95999(12) 0.29001(12) 0.95999(12)
O10_31 O 0.94068(11) 0.28644(10) 0.97647(11)
O11_31 O 0.97647(11) 0.30932(11) 0.96356(10)
O12_31 O 0.96356(10) 0.27353(11) 0.94068(11)
N20_32 N 0.95999(12) 0.95999(12) 0.29001(12)
O10_32 O 0.94068(11) 0.96356(10) 0.27353(11)
O11_32 O 0.97647(11) 0.94068(11) 0.28644(10)
O12_32 O 0.96356(10) 0.97647(11) 0.30932(11)
N20_33 N 0.70999(12) 0.54001(12) 0.54001(12)
O10_33 O 0.71356(10) 0.52353(11) 0.55932(11)
O11_33 O 0.69068(11) 0.53644(10) 0.52353(11)
O12_33 O 0.72647(11) 0.55932(11) 0.53644(10)
N20_34 N 0.45999(12) 0.45999(12) 0.79001(12)
O10_34 O 0.47647(11) 0.46356(10) 0.80932(11)
O11_34 O 0.46356(10) 0.44068(11) 0.77353(11)
O12_34 O 0.44068(11) 0.47647(11) 0.78644(10)
N20_35 N 0.54001(12) 0.20999(12) 0.04001(12)
O10_35 O 0.53644(10) 0.22647(11) 0.05932(11)
O11_35 O 0.55932(11) 0.21356(10) 0.02353(11)
O12_35 O 0.52353(11) 0.19068(11) 0.03644(10)
N20_36 N 0.79001(12) 0.29001(12) 0.29001(12)
O10_36 O 0.77353(11) 0.28644(10) 0.30932(11)
O11_36 O 0.78644(10) 0.30932(11) 0.27353(11)
O12_36 O 0.80932(11) 0.27353(11) 0.28644(10)
N20_37 N 0.70999(12) 0.20999(12) 0.20999(12)
O10_37 O 0.71356(10) 0.22647(11) 0.19068(11)
O11_37 O 0.69068(11) 0.21356(10) 0.22647(11)
O12_37 O 0.72647(11) 0.19068(11) 0.21356(10)
N20_38 N 0.79001(12) 0.45999(12) 0.45999(12)
O10_38 O 0.77353(11) 0.46356(10) 0.44068(11)
O11_38 O 0.78644(10) 0.44068(11) 0.47647(11)
O12_38 O 0.80932(11) 0.47647(11) 0.46356(10)
N20_39 N 0.54001(12) 0.54001(12) 0.70999(12)
O10_39 O 0.53644(10) 0.52353(11) 0.69068(11)
O11_39 O 0.55932(11) 0.53644(10) 0.72647(11)
O12_39 O 0.52353(11) 0.55932(11) 0.71356(10)
N20_40 N 0.45999(12) 0.29001(12) 0.95999(12)
O10_40 O 0.47647(11) 0.28644(10) 0.94068(11)
O11_40 O 0.46356(10) 0.30932(11) 0.97647(11)
O12_40 O 0.44068(11) 0.27353(11) 0.96356(10)
N20_41 N 0.54001(12) 0.70999(12) 0.54001(12)
O10_41 O 0.55932(11) 0.71356(10) 0.52353(11)
O11_41 O 0.52353(11) 0.69068(11) 0.53644(10)
O12_41 O 0.53644(10) 0.72647(11) 0.55932(11)
N20_42 N 0.29001(12) 0.29001(12) 0.79001(12)
O10_42 O 0.28644(10) 0.30932(11) 0.77353(11)
O11_42 O 0.30932(11) 0.27353(11) 0.78644(10)
O12_42 O 0.27353(11) 0.28644(10) 0.80932(11)
N20_43 N 0.70999(12) 0.04001(12) 0.04001(12)
O10_43 O 0.69068(11) 0.03644(10) 0.02353(11)
O11_43 O 0.72647(11) 0.05932(11) 0.03644(10)
O12_43 O 0.71356(10) 0.02353(11) 0.05932(11)
N20_44 N 0.95999(12) 0.45999(12) 0.29001(12)
O10_44 O 0.96356(10) 0.44068(11) 0.27353(11)
O11_44 O 0.94068(11) 0.47647(11) 0.28644(10)
O12_44 O 0.97647(11) 0.46356(10) 0.30932(11)
N20_45 N 0.54001(12) 0.04001(12) 0.20999(12)
O10_45 O 0.55932(11) 0.03644(10) 0.22647(11)
O11_45 O 0.52353(11) 0.05932(11) 0.21356(10)
O12_45 O 0.53644(10) 0.02353(11) 0.19068(11)
N20_46 N 0.95999(12) 0.29001(12) 0.45999(12)
O10_46 O 0.96356(10) 0.30932(11) 0.47647(11)
O11_46 O 0.94068(11) 0.27353(11) 0.46356(10)
O12_46 O 0.97647(11) 0.28644(10) 0.44068(11)
N20_47 N 0.70999(12) 0.70999(12) 0.70999(12)
O10_47 O 0.69068(11) 0.71356(10) 0.72647(11)
O11_47 O 0.72647(11) 0.69068(11) 0.71356(10)
O12_47 O 0.71356(10) 0.72647(11) 0.69068(11)
N20_48 N 0.29001(12) 0.45999(12) 0.95999(12)
O10_48 O 0.28644(10) 0.44068(11) 0.97647(11)
O11_48 O 0.30932(11) 0.47647(11) 0.96356(10)
O12_48 O 0.27353(11) 0.46356(10) 0.94068(11)
N20_49 N 0.45999(12) 0.79001(12) 0.45999(12)
O10_49 O 0.44068(11) 0.77353(11) 0.46356(10)
O11_49 O 0.47647(11) 0.78644(10) 0.44068(11)
O12_49 O 0.46356(10) 0.80932(11) 0.47647(11)
N20_50 N 0.29001(12) 0.79001(12) 0.29001(12)
O10_50 O 0.30932(11) 0.77353(11) 0.28644(10)
O11_50 O 0.27353(11) 0.78644(10) 0.30932(11)
O12_50 O 0.28644(10) 0.80932(11) 0.27353(11)
N20_51 N 0.20999(12) 0.20999(12) 0.70999(12)
O10_51 O 0.22647(11) 0.19068(11) 0.71356(10)
O11_51 O 0.21356(10) 0.22647(11) 0.69068(11)
O12_51 O 0.19068(11) 0.21356(10) 0.72647(11)
N20_52 N 0.20999(12) 0.04001(12) 0.54001(12)
O10_52 O 0.22647(11) 0.05932(11) 0.53644(10)
O11_52 O 0.21356(10) 0.02353(11) 0.55932(11)
O12_52 O 0.19068(11) 0.03644(10) 0.52353(11)
N20_53 N 0.45999(12) 0.95999(12) 0.29001(12)
O10_53 O 0.47647(11) 0.96356(10) 0.30932(11)
O11_53 O 0.46356(10) 0.94068(11) 0.27353(11)
O12_53 O 0.44068(11) 0.97647(11) 0.28644(10)
N20_54 N 0.79001(12) 0.79001(12) 0.79001(12)
O10_54 O 0.77353(11) 0.78644(10) 0.80932(11)
O11_54 O 0.78644(10) 0.80932(11) 0.77353(11)
O12_54 O 0.80932(11) 0.77353(11) 0.78644(10)
N20_55 N 0.79001(12) 0.95999(12) 0.95999(12)
O10_55 O 0.77353(11) 0.96356(10) 0.94068(11)
O11_55 O 0.78644(10) 0.94068(11) 0.97647(11)
O12_55 O 0.80932(11) 0.97647(11) 0.96356(10)
N20_56 N 0.95999(12) 0.95999(12) 0.79001(12)
O10_56 O 0.96356(10) 0.94068(11) 0.77353(11)
O11_56 O 0.94068(11) 0.97647(11) 0.78644(10)
O12_56 O 0.97647(11) 0.96356(10) 0.80932(11)
N20_57 N 0.95999(12) 0.79001(12) 0.95999(12)
O10_57 O 0.96356(10) 0.80932(11) 0.97647(11)
O11_57 O 0.94068(11) 0.77353(11) 0.96356(10)
O12_57 O 0.97647(11) 0.78644(10) 0.94068(11)
N20_58 N 0.29001(12) 0.95999(12) 0.45999(12)
O10_58 O 0.28644(10) 0.94068(11) 0.47647(11)
O11_58 O 0.30932(11) 0.97647(11) 0.46356(10)
O12_58 O 0.27353(11) 0.96356(10) 0.44068(11)
N20_59 N 0.20999(12) 0.70999(12) 0.20999(12)
O10_59 O 0.22647(11) 0.69068(11) 0.21356(10)
O11_59 O 0.21356(10) 0.72647(11) 0.19068(11)
O12_59 O 0.19068(11) 0.71356(10) 0.22647(11)
N20_60 N 0.20999(12) 0.54001(12) 0.04001(12)
O10_60 O 0.22647(11) 0.55932(11) 0.03644(10)
O11_60 O 0.21356(10) 0.52353(11) 0.05932(11)
O12_60 O 0.19068(11) 0.53644(10) 0.02353(11)
N20_61 N 0.04001(12) 0.20999(12) 0.54001(12)
O10_61 O 0.03644(10) 0.22647(11) 0.55932(11)
O11_61 O 0.05932(11) 0.21356(10) 0.52353(11)
O12_61 O 0.02353(11) 0.19068(11) 0.53644(10)
N20_62 N 0.04001(12) 0.54001(12) 0.20999(12)
O10_62 O 0.03644(10) 0.52353(11) 0.19068(11)
O11_62 O 0.05932(11) 0.53644(10) 0.22647(11)
O12_62 O 0.02353(11) 0.55932(11) 0.21356(10)
N20_63 N 0.04001(12) 0.70999(12) 0.04001(12)
O10_63 O 0.05932(11) 0.71356(10) 0.02353(11)
O11_63 O 0.02353(11) 0.69068(11) 0.03644(10)
O12_63 O 0.03644(10) 0.72647(11) 0.05932(11)
N20_64 N 0.04001(12) 0.04001(12) 0.70999(12)
O10_64 O 0.05932(11) 0.03644(10) 0.72647(11)
O11_64 O 0.02353(11) 0.05932(11) 0.71356(10)
O12_64 O 0.03644(10) 0.02353(11) 0.69068(11)
loop_
_geom_bond_atom_site_label_1
_geom_bond_atom_site_label_2
_geom_bond_site_symmetry_1
_geom_bond_site_symmetry_2
Cu1 N2 1_555 1_555
Cu2 N1 1_555 1_555
N1 N2 1_555 1_555
N2 C2 1_555 1_555
N3 Cu1 1_555 1_555
N4 Cu2 1_555 1_555
N5 N6 1_555 1_555
N6 C7 1_555 1_555
C1 N5 1_555 1_555
H1 C1 1_555 1_555
N7 C1 1_555 1_555
C2 H2 1_555 1_555
N8 N10 1_555 1_555
N9 N11 1_555 1_555
N10 C4 1_555 1_555
N11 C3 1_555 1_555
C3 N4 1_555 1_555
H3 C3 1_555 1_555
C4 N9 1_555 1_555
H4 C4 1_555 1_555
C5 N3 1_555 1_555
H5 C5 1_555 1_555
C6 N1 1_555 1_555
H6 C6 1_555 1_555
C7 N7 1_555 1_555
H7 C7 1_555 1_555
C8 N8 1_555 1_555
H8 C8 1_555 1_555
N12 N7 1_555 1_555
Cu3 N6 1_555 1_555
Cu4 N5 1_555 1_555
Cu5 N10 1_555 1_555
Cu6 N8 1_555 1_555
N13 Cu1 1_555 1_555
N14 Cu1 1_555 1_555
N15 Cu2 1_555 1_555
N16 Cu2 1_555 1_555
N3 N4 1_555 1_555
C2 N12 1_555 1_555
N9 C8 1_555 1_555
N11 C5 1_555 1_555
C6 N12 1_555 1_555
Cu1_2 N2_2 1_555 1_555
Cu2_2 N1_2 1_555 1_555
N1_2 N2_2 1_555 1_555
N2_2 C2_2 1_555 1_555
N3_2 Cu1_2 1_555 1_555
N4_2 Cu2_2 1_555 1_555
N5_2 N6_2 1_555 1_555
N6_2 C7_2 1_555 1_555
C1_2 N5_2 1_555 1_555
H1_2 C1_2 1_555 1_555
N7_2 C1_2 1_555 1_555
C2_2 H2_2 1_555 1_555
N8_2 N10_2 1_555 1_555
N9_2 N11_2 1_555 1_555
N10_2 C4_2 1_555 1_555
N11_2 C3_2 1_555 1_555
C3_2 N4_2 1_555 1_555
H3_2 C3_2 1_555 1_555
C4_2 N9_2 1_555 1_555
H4_2 C4_2 1_555 1_555
C5_2 N3_2 1_555 1_555
H5_2 C5_2 1_555 1_555
C6_2 N1_2 1_555 1_555
H6_2 C6_2 1_555 1_555
C7_2 N7_2 1_555 1_555
H7_2 C7_2 1_555 1_555
C8_2 N8_2 1_555 1_555
H8_2 C8_2 1_555 1_555
N12_2 N7_2 1_555 1_555
Cu3_2 N6_2 1_555 1_555
Cu4_2 N5_2 1_555 1_555
Cu5_2 N10_2 1_555 1_555
Cu6_2 N8_2 1_555 1_555
N13_2 Cu1_2 1_555 1_555
N14_2 Cu1_2 1_555 1_555
N15_2 Cu2_2 1_555 1_555
N16_2 Cu2_2 1_555 1_555
N3_2 N4_2 1_555 1_555
C2_2 N12_2 1_555 1_555
N9_2 C8_2 1_555 1_555
N11_2 C5_2 1_555 1_555
C6_2 N12_2 1_555 1_555
Cu1_3 N2_3 1_555 1_555
Cu2_3 N1_3 1_555 1_555
N1_3 N2_3 1_555 1_555
N3_3 Cu1_3 1_555 1_555
N4_3 Cu2_3 1_555 1_555
N8_3 N10_3 1_555 1_555
N9_3 N11_3 1_555 1_555
N10_3 C4_3 1_555 1_555
N11_3 C3_3 1_555 1_555
C3_3 N4_3 1_555 1_555
H3_3 C3_3 1_555 1_555
C4_3 N9_3 1_555 1_555
H4_3 C4_3 1_555 1_555
C5_3 N3_3 1_555 1_555
H5_3 C5_3 1_555 1_555
C8_3 N8_3 1_555 1_555
H8_3 C8_3 1_555 1_555
Cu5_3 N10_3 1_555 1_555
Cu6_3 N8_3 1_555 1_555
N13_3 Cu1_3 1_555 1_555
N14_3 Cu1_3 1_555 1_555
N15_3 Cu2_3 1_555 1_555
N16_3 Cu2_3 1_555 1_555
N3_3 N4_3 1_555 1_555
N9_3 C8_3 1_555 1_555
N11_3 C5_3 1_555 1_555
N5_3 N6_3 1_555 1_555
N6_3 C7_3 1_555 1_555
C1_3 N5_3 1_555 1_555
H1_3 C1_3 1_555 1_555
N7_3 C1_3 1_555 1_555
C2_3 H2_3 1_555 1_555
H6_3 C6_3 1_555 1_555
C7_3 N7_3 1_555 1_555
H7_3 C7_3 1_555 1_555
N12_3 N7_3 1_555 1_555
Cu3_3 N6_3 1_555 1_555
Cu4_3 N5_3 1_555 1_555
C2_3 N12_3 1_555 1_555
C6_3 N12_3 1_555 1_555
Cu1_4 N2_4 1_555 1_555
Cu2_4 N1_4 1_555 1_555
N1_4 N2_4 1_555 1_555
N2_4 C2_4 1_555 1_555
N3_4 Cu1_4 1_555 1_555
N4_4 Cu2_4 1_555 1_555
N5_4 N6_4 1_555 1_555
N6_4 C7_4 1_555 1_555
C1_4 N5_4 1_555 1_555
H1_4 C1_4 1_555 1_555
N7_4 C1_4 1_555 1_555
C2_4 H2_4 1_555 1_555
N8_4 N10_4 1_555 1_555
N9_4 N11_4 1_555 1_555
N10_4 C4_4 1_555 1_555
N11_4 C3_4 1_555 1_555
C3_4 N4_4 1_555 1_555
H3_4 C3_4 1_555 1_555
C4_4 N9_4 1_555 1_555
H4_4 C4_4 1_555 1_555
C5_4 N3_4 1_555 1_555
H5_4 C5_4 1_555 1_555
C6_4 N1_4 1_555 1_555
H6_4 C6_4 1_555 1_555
C7_4 N7_4 1_555 1_555
H7_4 C7_4 1_555 1_555
C8_4 N8_4 1_555 1_555
H8_4 C8_4 1_555 1_555
N12_4 N7_4 1_555 1_555
Cu3_4 N6_4 1_555 1_555
Cu4_4 N5_4 1_555 1_555
Cu5_4 N10_4 1_555 1_555
Cu6_4 N8_4 1_555 1_555
N13_4 Cu1_4 1_555 1_555
N14_4 Cu1_4 1_555 1_555
N15_4 Cu2_4 1_555 1_555
N16_4 Cu2_4 1_555 1_555
N3_4 N4_4 1_555 1_555
C2_4 N12_4 1_555 1_555
N9_4 C8_4 1_555 1_555
N11_4 C5_4 1_555 1_555
C6_4 N12_4 1_555 1_555
Cu1_5 N2_5 1_555 1_555
Cu2_5 N1_5 1_555 1_555
N1_5 N2_5 1_555 1_555
N2_5 C2_5 1_555 1_555
N3_5 Cu1_5 1_555 1_555
N4_5 Cu2_5 1_555 1_555
N5_5 N6_5 1_555 1_555
N6_5 C7_5 1_555 1_555
C1_5 N5_5 1_555 1_555
H1_5 C1_5 1_555 1_555
N7_5 C1_5 1_555 1_555
C2_5 H2_5 1_555 1_555
N8_5 N10_5 1_555 1_555
N9_5 N11_5 1_555 1_555
N10_5 C4_5 1_555 1_555
N11_5 C3_5 1_555 1_555
C3_5 N4_5 1_555 1_555
H3_5 C3_5 1_555 1_555
C4_5 N9_5 1_555 1_555
H4_5 C4_5 1_555 1_555
C5_5 N3_5 1_555 1_555
H5_5 C5_5 1_555 1_555
C6_5 N1_5 1_555 1_555
H6_5 C6_5 1_555 1_555
C7_5 N7_5 1_555 1_555
H7_5 C7_5 1_555 1_555
C8_5 N8_5 1_555 1_555
H8_5 C8_5 1_555 1_555
N12_5 N7_5 1_555 1_555
Cu4_3 N6_5 1_555 1_555
Cu3_3 N5_5 1_555 1_555
Cu5_5 N10_5 1_555 1_555
Cu6_5 N8_5 1_555 1_555
N13_5 Cu1_5 1_555 1_555
N14_5 Cu1_5 1_555 1_555
N15_5 Cu2_5 1_555 1_555
N16_5 Cu2_5 1_555 1_555
N3_5 N4_5 1_555 1_555
C2_5 N12_5 1_555 1_555
N9_5 C8_5 1_555 1_555
N11_5 C5_5 1_555 1_555
C6_5 N12_5 1_555 1_555
Cu1_6 N2_6 1_555 1_555
Cu2_6 N1_6 1_555 1_555
N1_6 N2_6 1_555 1_555
N2_6 C2_6 1_555 1_555
N3_6 Cu1_6 1_555 1_555
N4_6 Cu2_6 1_555 1_555
N5_6 N6_6 1_555 1_555
N6_6 C7_6 1_555 1_555
C1_6 N5_6 1_555 1_555
H1_6 C1_6 1_555 1_555
N7_6 C1_6 1_555 1_555
C2_6 H2_6 1_555 1_555
N8_6 N10_6 1_555 1_555
N9_6 N11_6 1_555 1_555
N10_6 C4_6 1_555 1_555
N11_6 C3_6 1_555 1_555
C3_6 N4_6 1_555 1_555
H3_6 C3_6 1_555 1_555
C4_6 N9_6 1_555 1_555
H4_6 C4_6 1_555 1_555
C5_6 N3_6 1_555 1_555
H5_6 C5_6 1_555 1_555
C6_6 N1_6 1_555 1_555
H6_6 C6_6 1_555 1_555
C7_6 N7_6 1_555 1_555
H7_6 C7_6 1_555 1_555
C8_6 N8_6 1_555 1_555
H8_6 C8_6 1_555 1_555
N12_6 N7_6 1_555 1_555
Cu4_4 N6_6 1_555 1_555
Cu3_4 N5_6 1_555 1_555
Cu5_6 N10_6 1_555 1_555
Cu6_6 N8_6 1_555 1_555
N13_6 Cu1_6 1_555 1_555
N14_6 Cu1_6 1_555 1_555
N15_6 Cu2_6 1_555 1_555
N16_6 Cu2_6 1_555 1_555
N3_6 N4_6 1_555 1_555
C2_6 N12_6 1_555 1_555
N9_6 C8_6 1_555 1_555
N11_6 C5_6 1_555 1_555
C6_6 N12_6 1_555 1_555
Cu1_7 N2_7 1_555 1_555
Cu2_7 N1_7 1_555 1_555
N1_7 N2_7 1_555 1_555
N2_7 C2_7 1_555 1_555
N3_7 Cu1_7 1_555 1_555
N4_7 Cu2_7 1_555 1_555
N5_7 N6_7 1_555 1_555
N6_7 C7_7 1_555 1_555
C1_7 N5_7 1_555 1_555
H1_7 C1_7 1_555 1_555
N7_7 C1_7 1_555 1_555
C2_7 H2_7 1_555 1_555
N8_7 N10_7 1_555 1_555
N9_7 N11_7 1_555 1_555
N10_7 C4_7 1_555 1_555
N11_7 C3_7 1_555 1_555
C3_7 N4_7 1_555 1_555
H3_7 C3_7 1_555 1_555
C4_7 N9_7 1_555 1_555
H4_7 C4_7 1_555 1_555
C5_7 N3_7 1_555 1_555
H5_7 C5_7 1_555 1_555
C6_7 N1_7 1_555 1_555
H6_7 C6_7 1_555 1_555
C7_7 N7_7 1_555 1_555
H7_7 C7_7 1_555 1_555
C8_7 N8_7 1_555 1_555
H8_7 C8_7 1_555 1_555
N12_7 N7_7 1_555 1_555
Cu4 N6_7 1_555 1_555
Cu3 N5_7 1_555 1_555
Cu5_7 N10_7 1_555 1_555
Cu6_7 N8_7 1_555 1_555
N13_7 Cu1_7 1_555 1_555
N14_7 Cu1_7 1_555 1_555
N15_7 Cu2_7 1_555 1_555
N16_7 Cu2_7 1_555 1_555
N3_7 N4_7 1_555 1_555
C2_7 N12_7 1_555 1_555
N9_7 C8_7 1_555 1_555
N11_7 C5_7 1_555 1_555
C6_7 N12_7 1_555 1_555
N5_8 N6_8 1_555 1_555
N6_8 C7_8 1_555 1_555
C1_8 N5_8 1_555 1_555
H1_8 C1_8 1_555 1_555
N7_8 C1_8 1_555 1_555
C2_8 H2_8 1_555 1_555
H6_8 C6_8 1_555 1_555
C7_8 N7_8 1_555 1_555
H7_8 C7_8 1_555 1_555
N12_8 N7_8 1_555 1_555
Cu4_2 N6_8 1_555 1_555
Cu3_2 N5_8 1_555 1_555
C2_8 N12_8 1_555 1_555
C6_8 N12_8 1_555 1_555
Cu1_8 N2_8 1_555 1_555
Cu2_8 N1_8 1_555 1_555
N1_8 N2_8 1_555 1_555
N3_8 Cu1_8 1_555 1_555
N4_8 Cu2_8 1_555 1_555
N8_8 N10_8 1_555 1_555
N9_8 N11_8 1_555 1_555
N10_8 C4_8 1_555 1_555
N11_8 C3_8 1_555 1_555
C3_8 N4_8 1_555 1_555
H3_8 C3_8 1_555 1_555
C4_8 N9_8 1_555 1_555
H4_8 C4_8 1_555 1_555
C5_8 N3_8 1_555 1_555
H5_8 C5_8 1_555 1_555
C8_8 N8_8 1_555 1_555
H8_8 C8_8 1_555 1_555
Cu5_8 N10_8 1_555 1_555
Cu6_8 N8_8 1_555 1_555
N13_8 Cu1_8 1_555 1_555
N14_8 Cu1_8 1_555 1_555
N15_8 Cu2_8 1_555 1_555
N16_8 Cu2_8 1_555 1_555
N3_8 N4_8 1_555 1_555
N9_8 C8_8 1_555 1_555
N11_8 C5_8 1_555 1_555
Cu1_9 N2_9 1_555 1_555
Cu2_9 N1_9 1_555 1_555
N1_9 N2_9 1_555 1_555
N2_9 C2_9 1_555 1_555
N3_9 Cu1_9 1_555 1_555
N4_9 Cu2_9 1_555 1_555
N5_9 N14 1_555 1_555
N14 C7_9 1_555 1_555
C1_9 N5_9 1_555 1_555
H1_9 C1_9 1_555 1_555
N7_9 C1_9 1_555 1_555
C2_9 H2_9 1_555 1_555
N8_9 N10_9 1_555 1_555
N9_9 N11_9 1_555 1_555
N10_9 C4_9 1_555 1_555
N11_9 C3_9 1_555 1_555
C3_9 N4_9 1_555 1_555
H3_9 C3_9 1_555 1_555
C4_9 N9_9 1_555 1_555
H4_9 C4_9 1_555 1_555
C5_9 N3_9 1_555 1_555
H5_9 C5_9 1_555 1_555
C6_9 N1_9 1_555 1_555
H6_9 C6_9 1_555 1_555
C7_9 N7_9 1_555 1_555
H7_9 C7_9 1_555 1_555
C8_9 N8_9 1_555 1_555
H8_9 C8_9 1_555 1_555
N12_9 N7_9 1_555 1_555
Cu4_5 N5_9 1_555 1_555
Cu5_9 N10_9 1_555 1_555
Cu6_9 N8_9 1_555 1_555
N13_9 Cu1_9 1_555 1_555
N14_9 Cu1_9 1_555 1_555
N15_9 Cu2_9 1_555 1_555
N16_9 Cu2_9 1_555 1_555
N3_9 N4_9 1_555 1_555
C2_9 N12_9 1_555 1_555
N9_9 C8_9 1_555 1_555
N11_9 C5_9 1_555 1_555
C6_9 N12_9 1_555 1_555
Cu1_10 N2_10 1_555 1_555
Cu2_10 N1_10 1_555 1_555
N1_10 N2_10 1_555 1_555
N2_10 C2_10 1_555 1_555
N3_10 Cu1_10 1_555 1_555
N4_10 Cu2_10 1_555 1_555
N5_10 N14_2 1_555 1_555
N14_2 C7_10 1_555 1_555
C1_10 N5_10 1_555 1_555
H1_10 C1_10 1_555 1_555
N7_10 C1_10 1_555 1_555
C2_10 H2_10 1_555 1_555
N8_10 N10_10 1_555 1_555
N9_10 N11_10 1_555 1_555
N10_10 C4_10 1_555 1_555
N11_10 C3_10 1_555 1_555
C3_10 N4_10 1_555 1_555
H3_10 C3_10 1_555 1_555
C4_10 N9_10 1_555 1_555
H4_10 C4_10 1_555 1_555
C5_10 N3_10 1_555 1_555
H5_10 C5_10 1_555 1_555
C6_10 N1_10 1_555 1_555
H6_10 C6_10 1_555 1_555
C7_10 N7_10 1_555 1_555
H7_10 C7_10 1_555 1_555
C8_10 N8_10 1_555 1_555
H8_10 C8_10 1_555 1_555
N12_10 N7_10 1_555 1_555
Cu4_6 N5_10 1_555 1_555
Cu5_10 N10_10 1_555 1_555
Cu6_10 N8_10 1_555 1_555
N13_10 Cu1_10 1_555 1_555
N14_10 Cu1_10 1_555 1_555
N15_10 Cu2_10 1_555 1_555
N16_10 Cu2_10 1_555 1_555
N3_10 N4_10 1_555 1_555
C2_10 N12_10 1_555 1_555
N9_10 C8_10 1_555 1_555
N11_10 C5_10 1_555 1_555
C6_10 N12_10 1_555 1_555
N5_11 N14_3 1_555 1_555
N14_3 C7_11 1_555 1_555
C1_11 N5_11 1_555 1_555
H1_11 C1_11 1_555 1_555
H7_11 C7_11 1_555 1_555
Cu4_7 N5_11 1_555 1_555
Cu1_11 N2_11 1_555 1_555
Cu2_11 N1_11 1_555 1_555
N1_11 N2_11 1_555 1_555
N2_11 C2_11 1_555 1_555
N3_11 Cu1_11 1_555 1_555
N4_11 Cu2_11 1_555 1_555
C2_11 H2_11 1_555 1_555
N8_11 N10_11 1_555 1_555
N9_11 N11_11 1_555 1_555
N10_11 C4_11 1_555 1_555
N11_11 C3_11 1_555 1_555
C3_11 N4_11 1_555 1_555
H3_11 C3_11 1_555 1_555
C4_11 N9_11 1_555 1_555
H4_11 C4_11 1_555 1_555
C5_11 N3_11 1_555 1_555
H5_11 C5_11 1_555 1_555
C6_11 N1_11 1_555 1_555
C8_11 N8_11 1_555 1_555
H8_11 C8_11 1_555 1_555
N12_11 N7_11 1_555 1_555
Cu5_11 N10_11 1_555 1_555
Cu6_11 N8_11 1_555 1_555
N13_11 Cu1_11 1_555 1_555
N14_11 Cu1_11 1_555 1_555
N16_11 Cu2_11 1_555 1_555
N3_11 N4_11 1_555 1_555
C2_11 N12_11 1_555 1_555
N9_11 C8_11 1_555 1_555
N11_11 C5_11 1_555 1_555
C6_11 N12_11 1_555 1_555
Cu1_12 N2_12 1_555 1_555
Cu2_12 N1_12 1_555 1_555
N1_12 N2_12 1_555 1_555
N2_12 C2_12 1_555 1_555
N3_12 Cu1_12 1_555 1_555
N4_12 Cu2_12 1_555 1_555
N5_12 N14_4 1_555 1_555
N14_4 C7_12 1_555 1_555
C1_12 N5_12 1_555 1_555
H1_12 C1_12 1_555 1_555
N7_12 C1_12 1_555 1_555
C2_12 H2_12 1_555 1_555
N8_12 N10_12 1_555 1_555
N9_12 N11_12 1_555 1_555
N10_12 C4_12 1_555 1_555
N11_12 C3_12 1_555 1_555
C3_12 N4_12 1_555 1_555
H3_12 C3_12 1_555 1_555
C4_12 N9_12 1_555 1_555
H4_12 C4_12 1_555 1_555
C5_12 N3_12 1_555 1_555
H5_12 C5_12 1_555 1_555
C6_12 N1_12 1_555 1_555
H6_12 C6_12 1_555 1_555
C7_12 N7_12 1_555 1_555
H7_12 C7_12 1_555 1_555
C8_12 N8_12 1_555 1_555
H8_12 C8_12 1_555 1_555
N12_12 N7_12 1_555 1_555
Cu4_8 N5_12 1_555 1_555
Cu5_12 N10_12 1_555 1_555
Cu6_12 N8_12 1_555 1_555
N13_12 Cu1_12 1_555 1_555
N14_12 Cu1_12 1_555 1_555
N15_12 Cu2_12 1_555 1_555
N16_12 Cu2_12 1_555 1_555
N3_12 N4_12 1_555 1_555
C2_12 N12_12 1_555 1_555
N9_12 C8_12 1_555 1_555
N11_12 C5_12 1_555 1_555
C6_12 N12_12 1_555 1_555
Cu1_13 N2_13 1_555 1_555
Cu2_13 N1_13 1_555 1_555
N1_13 N2_13 1_555 1_555
N2_13 C2_13 1_555 1_555
N3_13 Cu1_13 1_555 1_555
N4_13 Cu2_13 1_555 1_555
N5_13 N14_5 1_555 1_555
N14_5 C7_13 1_555 1_555
C1_13 N5_13 1_555 1_555
H1_13 C1_13 1_555 1_555
N7_13 C1_13 1_555 1_555
C2_13 H2_13 1_555 1_555
N8_13 N10_13 1_555 1_555
N9_13 N11_13 1_555 1_555
N10_13 C4_13 1_555 1_555
N11_13 C3_13 1_555 1_555
C3_13 N4_13 1_555 1_555
H3_13 C3_13 1_555 1_555
C4_13 N9_13 1_555 1_555
H4_13 C4_13 1_555 1_555
C5_13 N3_13 1_555 1_555
H5_13 C5_13 1_555 1_555
C6_13 N1_13 1_555 1_555
H6_13 C6_13 1_555 1_555
C7_13 N7_13 1_555 1_555
H7_13 C7_13 1_555 1_555
C8_13 N8_13 1_555 1_555
H8_13 C8_13 1_555 1_555
N12_13 N7_13 1_555 1_555
Cu4_9 N5_13 1_555 1_555
Cu5_13 N10_13 1_555 1_555
Cu6_13 N8_13 1_555 1_555
N13_13 Cu1_13 1_555 1_555
N14_13 Cu1_13 1_555 1_555
N15_13 Cu2_13 1_555 1_555
N16_13 Cu2_13 1_555 1_555
N3_13 N4_13 1_555 1_555
C2_13 N12_13 1_555 1_555
N9_13 C8_13 1_555 1_555
N11_13 C5_13 1_555 1_555
C6_13 N12_13 1_555 1_555
Cu1_14 N2_14 1_555 1_555
Cu2_14 N1_14 1_555 1_555
N1_14 N2_14 1_555 1_555
N2_14 C2_14 1_555 1_555
N3_14 Cu1_14 1_555 1_555
N4_14 Cu2_14 1_555 1_555
N5_14 N14_6 1_555 1_555
N14_6 C7_14 1_555 1_555
C1_14 N5_14 1_555 1_555
H1_14 C1_14 1_555 1_555
N7_14 C1_14 1_555 1_555
C2_14 H2_14 1_555 1_555
N8_14 N10_14 1_555 1_555
N9_14 N11_14 1_555 1_555
N10_14 C4_14 1_555 1_555
N11_14 C3_14 1_555 1_555
C3_14 N4_14 1_555 1_555
H3_14 C3_14 1_555 1_555
C4_14 N9_14 1_555 1_555
H4_14 C4_14 1_555 1_555
C5_14 N3_14 1_555 1_555
H5_14 C5_14 1_555 1_555
C6_14 N1_14 1_555 1_555
H6_14 C6_14 1_555 1_555
C7_14 N7_14 1_555 1_555
H7_14 C7_14 1_555 1_555
C8_14 N8_14 1_555 1_555
H8_14 C8_14 1_555 1_555
N12_14 N7_14 1_555 1_555
Cu4_10 N5_14 1_555 1_555
Cu5_14 N10_14 1_555 1_555
Cu6_14 N8_14 1_555 1_555
N13_14 Cu1_14 1_555 1_555
N14_14 Cu1_14 1_555 1_555
N15_14 Cu2_14 1_555 1_555
N16_14 Cu2_14 1_555 1_555
N3_14 N4_14 1_555 1_555
C2_14 N12_14 1_555 1_555
N9_14 C8_14 1_555 1_555
N11_14 C5_14 1_555 1_555
C6_14 N12_14 1_555 1_555
Cu1_15 N2_15 1_555 1_555
Cu2_15 N1_15 1_555 1_555
N1_15 N2_15 1_555 1_555
N2_15 C2_15 1_555 1_555
N3_15 Cu1_15 1_555 1_555
N4_15 Cu2_15 1_555 1_555
N5_15 N14_7 1_555 1_555
N14_7 C7_15 1_555 1_555
C1_15 N5_15 1_555 1_555
H1_15 C1_15 1_555 1_555
N7_15 C1_15 1_555 1_555
C2_15 H2_15 1_555 1_555
N8_15 N10_15 1_555 1_555
N9_15 N11_15 1_555 1_555
N10_15 C4_15 1_555 1_555
N11_15 C3_15 1_555 1_555
C3_15 N4_15 1_555 1_555
H3_15 C3_15 1_555 1_555
C4_15 N9_15 1_555 1_555
H4_15 C4_15 1_555 1_555
C5_15 N3_15 1_555 1_555
H5_15 C5_15 1_555 1_555
C6_15 N1_15 1_555 1_555
H6_15 C6_15 1_555 1_555
C7_15 N7_15 1_555 1_555
H7_15 C7_15 1_555 1_555
C8_15 N8_15 1_555 1_555
H8_15 C8_15 1_555 1_555
N12_15 N7_15 1_555 1_555
Cu4_11 N5_15 1_555 1_555
Cu5_15 N10_15 1_555 1_555
Cu6_15 N8_15 1_555 1_555
N13_15 Cu1_15 1_555 1_555
N14_15 Cu1_15 1_555 1_555
N15_15 Cu2_15 1_555 1_555
N16_15 Cu2_15 1_555 1_555
N3_15 N4_15 1_555 1_555
C2_15 N12_15 1_555 1_555
N9_15 C8_15 1_555 1_555
N11_15 C5_15 1_555 1_555
C6_15 N12_15 1_555 1_555
Cu1_16 N2_16 1_555 1_555
Cu2_16 N1_16 1_555 1_555
N1_16 N2_16 1_555 1_555
N2_16 C2_16 1_555 1_555
N3_16 Cu1_16 1_555 1_555
N4_16 Cu2_16 1_555 1_555
C2_16 H2_16 1_555 1_555
N8_16 N10_16 1_555 1_555
N9_16 N11_16 1_555 1_555
N10_16 C4_16 1_555 1_555
N11_16 C3_16 1_555 1_555
C3_16 N4_16 1_555 1_555
H3_16 C3_16 1_555 1_555
C4_16 N9_16 1_555 1_555
H4_16 C4_16 1_555 1_555
C5_16 N3_16 1_555 1_555
H5_16 C5_16 1_555 1_555
C6_16 N1_16 1_555 1_555
C8_16 N8_16 1_555 1_555
H8_16 C8_16 1_555 1_555
N12_16 N7_16 1_555 1_555
Cu5_16 N10_16 1_555 1_555
Cu6_16 N8_16 1_555 1_555
N13_16 Cu1_16 1_555 1_555
N14_16 Cu1_16 1_555 1_555
N16_16 Cu2_16 1_555 1_555
N3_16 N4_16 1_555 1_555
C2_16 N12_16 1_555 1_555
N9_16 C8_16 1_555 1_555
N11_16 C5_16 1_555 1_555
C6_16 N12_16 1_555 1_555
N5_16 N14_8 1_555 1_555
N14_8 C7_16 1_555 1_555
C1_16 N5_16 1_555 1_555
H1_16 C1_16 1_555 1_555
H7_16 C7_16 1_555 1_555
Cu4_12 N5_16 1_555 1_555
Cu3 N2_17 1_555 1_555
Cu2_17 N1_17 1_555 1_555
N1_17 N2_17 1_555 1_555
N2_17 C2_17 1_555 1_555
N3_17 Cu3 1_555 1_555
N4_17 Cu2_17 1_555 1_555
N5_17 N14_9 1_555 1_555
N14_9 C7_17 1_555 1_555
C1_17 N5_17 1_555 1_555
H1_17 C1_17 1_555 1_555
N7_17 C1_17 1_555 1_555
C2_17 H2_17 1_555 1_555
N8_17 N10_17 1_555 1_555
N9_17 N11_17 1_555 1_555
N10_17 C4_17 1_555 1_555
N11_17 C3_17 1_555 1_555
C3_17 N4_17 1_555 1_555
H3_17 C3_17 1_555 1_555
C4_17 N9_17 1_555 1_555
H4_17 C4_17 1_555 1_555
C5_17 N3_17 1_555 1_555
H5_17 C5_17 1_555 1_555
C6_17 N1_17 1_555 1_555
H6_17 C6_17 1_555 1_555
C7_17 N7_17 1_555 1_555
H7_17 C7_17 1_555 1_555
C8_17 N8_17 1_555 1_555
H8_17 C8_17 1_555 1_555
N12_17 N7_17 1_555 1_555
Cu4_13 N5_17 1_555 1_555
Cu5_17 N10_17 1_555 1_555
Cu6_17 N8_17 1_555 1_555
N15_17 Cu2_17 1_555 1_555
N16_17 Cu2_17 1_555 1_555
N3_17 N4_17 1_555 1_555
C2_17 N12_17 1_555 1_555
N9_17 C8_17 1_555 1_555
N11_17 C5_17 1_555 1_555
C6_17 N12_17 1_555 1_555
N13_12 N6_9 1_555 1_555
N6_9 C7_18 1_555 1_555
C1_18 N13_12 1_555 1_555
H1_18 C1_18 1_555 1_555
N7_18 C1_18 1_555 1_555
C2_18 H2_18 1_555 1_555
H6_18 C6_18 1_555 1_555
C7_18 N7_18 1_555 1_555
H7_18 C7_18 1_555 1_555
N12_18 N7_18 1_555 1_555
Cu3_5 N6_9 1_555 1_555
C2_18 N12_18 1_555 1_555
C6_18 N12_18 1_555 1_555
Cu1_17 N2_18 1_555 1_555
Cu2_18 N1_18 1_555 1_555
N1_18 N2_18 1_555 1_555
N3_18 Cu1_17 1_555 1_555
N4_18 Cu2_18 1_555 1_555
N8_18 N10_18 1_555 1_555
N9_18 N11_18 1_555 1_555
N10_18 C4_18 1_555 1_555
N11_18 C3_18 1_555 1_555
C3_18 N4_18 1_555 1_555
H3_18 C3_18 1_555 1_555
C4_18 N9_18 1_555 1_555
H4_18 C4_18 1_555 1_555
C5_18 N3_18 1_555 1_555
H5_18 C5_18 1_555 1_555
C8_18 N8_18 1_555 1_555
H8_18 C8_18 1_555 1_555
Cu5_18 N10_18 1_555 1_555
Cu6_18 N8_18 1_555 1_555
N13_17 Cu1_17 1_555 1_555
N14_17 Cu1_17 1_555 1_555
N15_18 Cu2_18 1_555 1_555
N16_18 Cu2_18 1_555 1_555
N3_18 N4_18 1_555 1_555
N9_18 C8_18 1_555 1_555
N11_18 C5_18 1_555 1_555
Cu1_18 N2_19 1_555 1_555
Cu2_19 N1_19 1_555 1_555
N1_19 N2_19 1_555 1_555
N2_19 C2_19 1_555 1_555
N3_19 Cu1_18 1_555 1_555
N4_19 Cu2_19 1_555 1_555
N5_18 N6_10 1_555 1_555
N6_10 C7_19 1_555 1_555
C1_19 N5_18 1_555 1_555
H1_19 C1_19 1_555 1_555
N7_19 C1_19 1_555 1_555
C2_19 H2_19 1_555 1_555
N8_19 N10_19 1_555 1_555
N9_19 N11_19 1_555 1_555
N10_19 C4_19 1_555 1_555
N11_19 C3_19 1_555 1_555
C3_19 N4_19 1_555 1_555
H3_19 C3_19 1_555 1_555
C4_19 N9_19 1_555 1_555
H4_19 C4_19 1_555 1_555
C5_19 N3_19 1_555 1_555
H5_19 C5_19 1_555 1_555
C6_19 N1_19 1_555 1_555
H6_19 C6_19 1_555 1_555
C7_19 N7_19 1_555 1_555
H7_19 C7_19 1_555 1_555
C8_19 N8_19 1_555 1_555
H8_19 C8_19 1_555 1_555
N12_19 N7_19 1_555 1_555
Cu3_6 N6_10 1_555 1_555
Cu4_14 N5_18 1_555 1_555
Cu5_19 N10_19 1_555 1_555
Cu6_19 N8_19 1_555 1_555
N13_18 Cu1_18 1_555 1_555
N14_18 Cu1_18 1_555 1_555
N15_19 Cu2_19 1_555 1_555
N16_19 Cu2_19 1_555 1_555
N3_19 N4_19 1_555 1_555
C2_19 N12_19 1_555 1_555
N9_19 C8_19 1_555 1_555
N11_19 C5_19 1_555 1_555
C6_19 N12_19 1_555 1_555
Cu1_19 N2_20 1_555 1_555
Cu2_20 N1_20 1_555 1_555
N1_20 N2_20 1_555 1_555
N2_20 C2_20 1_555 1_555
N3_20 Cu1_19 1_555 1_555
N4_20 Cu2_20 1_555 1_555
N5_19 N6_11 1_555 1_555
N6_11 C7_20 1_555 1_555
C1_20 N5_19 1_555 1_555
H1_20 C1_20 1_555 1_555
N7_20 C1_20 1_555 1_555
C2_20 H2_20 1_555 1_555
N8_20 N10_20 1_555 1_555
N9_20 N11_20 1_555 1_555
N10_20 C4_20 1_555 1_555
N11_20 C3_20 1_555 1_555
C3_20 N4_20 1_555 1_555
H3_20 C3_20 1_555 1_555
C4_20 N9_20 1_555 1_555
H4_20 C4_20 1_555 1_555
C5_20 N3_20 1_555 1_555
H5_20 C5_20 1_555 1_555
C6_20 N1_20 1_555 1_555
H6_20 C6_20 1_555 1_555
C7_20 N7_20 1_555 1_555
H7_20 C7_20 1_555 1_555
C8_20 N8_20 1_555 1_555
H8_20 C8_20 1_555 1_555
N12_20 N7_20 1_555 1_555
Cu4_14 N6_11 1_555 1_555
Cu3_6 N5_19 1_555 1_555
Cu5_20 N10_20 1_555 1_555
Cu6_20 N8_20 1_555 1_555
N13_19 Cu1_19 1_555 1_555
N14_19 Cu1_19 1_555 1_555
N15_20 Cu2_20 1_555 1_555
N16_20 Cu2_20 1_555 1_555
N3_20 N4_20 1_555 1_555
C2_20 N12_20 1_555 1_555
N9_20 C8_20 1_555 1_555
N11_20 C5_20 1_555 1_555
C6_20 N12_20 1_555 1_555
Cu3_4 N2_21 1_555 1_555
Cu2_21 N1_21 1_555 1_555
N1_21 N2_21 1_555 1_555
N2_21 C2_21 1_555 1_555
N3_21 Cu3_4 1_555 1_555
N4_21 Cu2_21 1_555 1_555
N5_20 N14_12 1_555 1_555
N14_12 C7_21 1_555 1_555
C1_21 N5_20 1_555 1_555
H1_21 C1_21 1_555 1_555
N7_21 C1_21 1_555 1_555
C2_21 H2_21 1_555 1_555
N8_21 N10_21 1_555 1_555
N9_21 N11_21 1_555 1_555
N10_21 C4_21 1_555 1_555
N11_21 C3_21 1_555 1_555
C3_21 N4_21 1_555 1_555
H3_21 C3_21 1_555 1_555
C4_21 N9_21 1_555 1_555
H4_21 C4_21 1_555 1_555
C5_21 N3_21 1_555 1_555
H5_21 C5_21 1_555 1_555
C6_21 N1_21 1_555 1_555
H6_21 C6_21 1_555 1_555
C7_21 N7_21 1_555 1_555
H7_21 C7_21 1_555 1_555
C8_21 N8_21 1_555 1_555
H8_21 C8_21 1_555 1_555
N12_21 N7_21 1_555 1_555
Cu3_5 N5_20 1_555 1_555
Cu5_21 N10_21 1_555 1_555
Cu6_21 N8_21 1_555 1_555
N15_21 Cu2_21 1_555 1_555
N16_21 Cu2_21 1_555 1_555
N3_21 N4_21 1_555 1_555
C2_21 N12_21 1_555 1_555
N9_21 C8_21 1_555 1_555
N11_21 C5_21 1_555 1_555
C6_21 N12_21 1_555 1_555
Cu1_20 N2_22 1_555 1_555
Cu2_22 N1_22 1_555 1_555
N1_22 N2_22 1_555 1_555
N2_22 C2_22 1_555 1_555
N3_22 Cu1_20 1_555 1_555
N4_22 Cu2_22 1_555 1_555
N13_9 N6_12 1_555 1_555
N6_12 C7_22 1_555 1_555
C1_22 N13_9 1_555 1_555
H1_22 C1_22 1_555 1_555
N7_22 C1_22 1_555 1_555
C2_22 H2_22 1_555 1_555
N8_22 N10_22 1_555 1_555
N9_22 N11_22 1_555 1_555
N10_22 C4_22 1_555 1_555
N11_22 C3_22 1_555 1_555
C3_22 N4_22 1_555 1_555
H3_22 C3_22 1_555 1_555
C4_22 N9_22 1_555 1_555
H4_22 C4_22 1_555 1_555
C5_22 N3_22 1_555 1_555
H5_22 C5_22 1_555 1_555
C6_22 N1_22 1_555 1_555
H6_22 C6_22 1_555 1_555
C7_22 N7_22 1_555 1_555
H7_22 C7_22 1_555 1_555
C8_22 N8_22 1_555 1_555
H8_22 C8_22 1_555 1_555
N12_22 N7_22 1_555 1_555
Cu4_13 N6_12 1_555 1_555
Cu5_22 N10_22 1_555 1_555
Cu6_22 N8_22 1_555 1_555
N13_20 Cu1_20 1_555 1_555
N14_20 Cu1_20 1_555 1_555
N15_22 Cu2_22 1_555 1_555
N16_22 Cu2_22 1_555 1_555
N3_22 N4_22 1_555 1_555
C2_22 N12_22 1_555 1_555
N9_22 C8_22 1_555 1_555
N11_22 C5_22 1_555 1_555
C6_22 N12_22 1_555 1_555
Cu1_21 N2_23 1_555 1_555
Cu2_23 N1_23 1_555 1_555
N1_23 N2_23 1_555 1_555
N2_23 C2_23 1_555 1_555
N3_23 Cu1_21 1_555 1_555
N4_23 Cu2_23 1_555 1_555
N5_21 N6_13 1_555 1_555
N6_13 C7_23 1_555 1_555
C1_23 N5_21 1_555 1_555
H1_23 C1_23 1_555 1_555
N7_23 C1_23 1_555 1_555
C2_23 H2_23 1_555 1_555
N8_23 N10_23 1_555 1_555
N9_23 N11_23 1_555 1_555
N10_23 C4_23 1_555 1_555
N11_23 C3_23 1_555 1_555
C3_23 N4_23 1_555 1_555
H3_23 C3_23 1_555 1_555
C4_23 N9_23 1_555 1_555
H4_23 C4_23 1_555 1_555
C5_23 N3_23 1_555 1_555
H5_23 C5_23 1_555 1_555
C6_23 N1_23 1_555 1_555
H6_23 C6_23 1_555 1_555
C7_23 N7_23 1_555 1_555
H7_23 C7_23 1_555 1_555
C8_23 N8_23 1_555 1_555
H8_23 C8_23 1_555 1_555
N12_23 N7_23 1_555 1_555
Cu3_7 N6_13 1_555 1_555
Cu4_15 N5_21 1_555 1_555
Cu6_18 N10_23 1_555 1_555
Cu5_18 N8_23 1_555 1_555
N13_21 Cu1_21 1_555 1_555
N14_21 Cu1_21 1_555 1_555
N15_23 Cu2_23 1_555 1_555
N16_23 Cu2_23 1_555 1_555
N3_23 N4_23 1_555 1_555
C2_23 N12_23 1_555 1_555
N9_23 C8_23 1_555 1_555
N11_23 C5_23 1_555 1_555
C6_23 N12_23 1_555 1_555
Cu1_22 N2_24 1_555 1_555
Cu2_24 N1_24 1_555 1_555
N1_24 N2_24 1_555 1_555
N3_24 Cu1_22 1_555 1_555
N4_24 Cu2_24 1_555 1_555
N8_24 N10_24 1_555 1_555
N9_24 N11_24 1_555 1_555
N10_24 C4_24 1_555 1_555
N11_24 C3_24 1_555 1_555
C3_24 N4_24 1_555 1_555
H3_24 C3_24 1_555 1_555
C4_24 N9_24 1_555 1_555
H4_24 C4_24 1_555 1_555
C5_24 N3_24 1_555 1_555
H5_24 C5_24 1_555 1_555
C8_24 N8_24 1_555 1_555
H8_24 C8_24 1_555 1_555
Cu5_23 N10_24 1_555 1_555
Cu6_23 N8_24 1_555 1_555
N13_22 Cu1_22 1_555 1_555
N14_22 Cu1_22 1_555 1_555
N15_24 Cu2_24 1_555 1_555
N16_24 Cu2_24 1_555 1_555
N3_24 N4_24 1_555 1_555
N9_24 C8_24 1_555 1_555
N11_24 C5_24 1_555 1_555
N5_22 N6_14 1_555 1_555
N6_14 C7_24 1_555 1_555
C1_24 N5_22 1_555 1_555
H1_24 C1_24 1_555 1_555
N7_24 C1_24 1_555 1_555
C2_24 H2_24 1_555 1_555
H6_24 C6_24 1_555 1_555
C7_24 N7_24 1_555 1_555
H7_24 C7_24 1_555 1_555
N12_24 N7_24 1_555 1_555
Cu4_15 N6_14 1_555 1_555
Cu3_7 N5_22 1_555 1_555
C2_24 N12_24 1_555 1_555
C6_24 N12_24 1_555 1_555
N5_23 N6_15 1_555 1_555
N6_15 C7_25 1_555 1_555
C1_25 N5_23 1_555 1_555
H1_25 C1_25 1_555 1_555
H7_25 C7_25 1_555 1_555
Cu3_8 N6_15 1_555 1_555
Cu4_16 N5_23 1_555 1_555
Cu4_7 N2_25 1_555 1_555
Cu2_25 N1_25 1_555 1_555
N1_25 N2_25 1_555 1_555
N3_25 Cu4_7 1_555 1_555
N4_25 Cu2_25 1_555 1_555
N8_25 N10_25 1_555 1_555
N9_25 N11_25 1_555 1_555
N10_25 C4_25 1_555 1_555
N11_25 C3_25 1_555 1_555
C3_25 N4_25 1_555 1_555
H3_25 C3_25 1_555 1_555
C4_25 N9_25 1_555 1_555
H4_25 C4_25 1_555 1_555
C5_25 N3_25 1_555 1_555
H5_25 C5_25 1_555 1_555
C8_25 N8_25 1_555 1_555
H8_25 C8_25 1_555 1_555
Cu6_10 N10_25 1_555 1_555
Cu5_10 N8_25 1_555 1_555
N14_23 Cu4_7 1_555 1_555
N16_25 Cu2_25 1_555 1_555
N3_25 N4_25 1_555 1_555
N9_25 C8_25 1_555 1_555
N11_25 C5_25 1_555 1_555
Cu1_23 N2_26 1_555 1_555
Cu2_26 N1_26 1_555 1_555
N1_26 N2_26 1_555 1_555
N2_26 C2_25 1_555 1_555
N3_26 Cu1_23 1_555 1_555
N4_26 Cu2_26 1_555 1_555
N5_24 N14_18 1_555 1_555
N14_18 C7_26 1_555 1_555
C1_26 N5_24 1_555 1_555
H1_26 C1_26 1_555 1_555
N7_25 C1_26 1_555 1_555
C2_25 H2_25 1_555 1_555
N8_26 N10_26 1_555 1_555
N9_26 N11_26 1_555 1_555
N10_26 C4_26 1_555 1_555
N11_26 C3_26 1_555 1_555
C3_26 N4_26 1_555 1_555
H3_26 C3_26 1_555 1_555
C4_26 N9_26 1_555 1_555
H4_26 C4_26 1_555 1_555
C5_26 N3_26 1_555 1_555
H5_26 C5_26 1_555 1_555
C6_25 N1_26 1_555 1_555
H6_26 C6_25 1_555 1_555
C7_26 N7_25 1_555 1_555
H7_26 C7_26 1_555 1_555
C8_26 N8_26 1_555 1_555
H8_26 C8_26 1_555 1_555
N12_25 N7_25 1_555 1_555
Cu4_17 N5_24 1_555 1_555
Cu5_24 N10_26 1_555 1_555
Cu6_24 N8_26 1_555 1_555
N13_23 Cu1_23 1_555 1_555
N14_24 Cu1_23 1_555 1_555
N15_26 Cu2_26 1_555 1_555
N16_26 Cu2_26 1_555 1_555
N3_26 N4_26 1_555 1_555
C2_25 N12_25 1_555 1_555
N9_26 C8_26 1_555 1_555
N11_26 C5_26 1_555 1_555
C6_25 N12_25 1_555 1_555
Cu4_5 N2_27 1_555 1_555
Cu2_27 N1_27 1_555 1_555
N1_27 N2_27 1_555 1_555
N2_27 C2_26 1_555 1_555
N3_27 Cu4_5 1_555 1_555
N4_27 Cu2_27 1_555 1_555
N13_20 N6_16 1_555 1_555
N6_16 C7_27 1_555 1_555
C1_27 N13_20 1_555 1_555
H1_27 C1_27 1_555 1_555
N7_26 C1_27 1_555 1_555
C2_26 H2_26 1_555 1_555
N8_27 N10_27 1_555 1_555
N9_27 N11_27 1_555 1_555
N10_27 C4_27 1_555 1_555
N11_27 C3_27 1_555 1_555
C3_27 N4_27 1_555 1_555
H3_27 C3_27 1_555 1_555
C4_27 N9_27 1_555 1_555
H4_27 C4_27 1_555 1_555
C5_27 N3_27 1_555 1_555
H5_27 C5_27 1_555 1_555
C6_26 N1_27 1_555 1_555
H6_27 C6_26 1_555 1_555
C7_27 N7_26 1_555 1_555
H7_27 C7_27 1_555 1_555
C8_27 N8_27 1_555 1_555
H8_27 C8_27 1_555 1_555
N12_26 N7_26 1_555 1_555
Cu3_9 N6_16 1_555 1_555
Cu6_12 N10_27 1_555 1_555
Cu5_12 N8_27 1_555 1_555
N14_25 Cu4_5 1_555 1_555
N15_27 Cu2_27 1_555 1_555
N16_27 Cu2_27 1_555 1_555
N3_27 N4_27 1_555 1_555
C2_26 N12_26 1_555 1_555
N9_27 C8_27 1_555 1_555
N11_27 C5_27 1_555 1_555
C6_26 N12_26 1_555 1_555
Cu1_24 N2_28 1_555 1_555
Cu2_28 N1_28 1_555 1_555
N1_28 N2_28 1_555 1_555
N2_28 C2_27 1_555 1_555
N3_28 Cu1_24 1_555 1_555
N4_28 Cu2_28 1_555 1_555
N5_25 N6_17 1_555 1_555
N6_17 C7_28 1_555 1_555
C1_28 N5_25 1_555 1_555
H1_28 C1_28 1_555 1_555
N7_27 C1_28 1_555 1_555
C2_27 H2_27 1_555 1_555
N8_28 N10_28 1_555 1_555
N9_28 N11_28 1_555 1_555
N10_28 C4_28 1_555 1_555
N11_28 C3_28 1_555 1_555
C3_28 N4_28 1_555 1_555
H3_28 C3_28 1_555 1_555
C4_28 N9_28 1_555 1_555
H4_28 C4_28 1_555 1_555
C5_28 N3_28 1_555 1_555
H5_28 C5_28 1_555 1_555
C6_27 N1_28 1_555 1_555
H6_28 C6_27 1_555 1_555
C7_28 N7_27 1_555 1_555
H7_28 C7_28 1_555 1_555
C8_28 N8_28 1_555 1_555
H8_28 C8_28 1_555 1_555
N12_27 N7_27 1_555 1_555
Cu3_10 N6_17 1_555 1_555
Cu4_18 N5_25 1_555 1_555
Cu5_25 N10_28 1_555 1_555
N13_24 Cu1_24 1_555 1_555
N14_26 Cu1_24 1_555 1_555
N15_28 Cu2_28 1_555 1_555
N16_28 Cu2_28 1_555 1_555
N3_28 N4_28 1_555 1_555
C2_27 N12_27 1_555 1_555
N9_28 C8_28 1_555 1_555
N11_28 C5_28 1_555 1_555
C6_27 N12_27 1_555 1_555
Cu4_11 N2_29 1_555 1_555
Cu2_29 N1_29 1_555 1_555
N1_29 N2_29 1_555 1_555
N2_29 C2_28 1_555 1_555
N3_29 Cu4_11 1_555 1_555
N4_29 Cu2_29 1_555 1_555
N5_26 N14_20 1_555 1_555
N14_20 C7_29 1_555 1_555
C1_29 N5_26 1_555 1_555
H1_29 C1_29 1_555 1_555
N7_28 C1_29 1_555 1_555
C2_28 H2_28 1_555 1_555
N8_29 N10_29 1_555 1_555
N9_29 N11_29 1_555 1_555
N10_29 C4_29 1_555 1_555
N11_29 C3_29 1_555 1_555
C3_29 N4_29 1_555 1_555
H3_29 C3_29 1_555 1_555
C4_29 N9_29 1_555 1_555
H4_29 C4_29 1_555 1_555
C5_29 N3_29 1_555 1_555
H5_29 C5_29 1_555 1_555
C6_28 N1_29 1_555 1_555
H6_29 C6_28 1_555 1_555
C7_29 N7_28 1_555 1_555
H7_29 C7_29 1_555 1_555
C8_29 N8_29 1_555 1_555
H8_29 C8_29 1_555 1_555
N12_28 N7_28 1_555 1_555
Cu3_9 N5_26 1_555 1_555
Cu6_16 N10_29 1_555 1_555
Cu5_16 N8_29 1_555 1_555
N14_27 Cu4_11 1_555 1_555
N15_29 Cu2_29 1_555 1_555
N16_29 Cu2_29 1_555 1_555
N3_29 N4_29 1_555 1_555
C2_28 N12_28 1_555 1_555
N9_29 C8_29 1_555 1_555
N11_29 C5_29 1_555 1_555
C6_28 N12_28 1_555 1_555
N5_27 N6_18 1_555 1_555
N6_18 C7_30 1_555 1_555
C1_30 N5_27 1_555 1_555
H1_30 C1_30 1_555 1_555
N7_29 C1_30 1_555 1_555
C2_29 H2_29 1_555 1_555
H6_30 C6_29 1_555 1_555
C7_30 N7_29 1_555 1_555
H7_30 C7_30 1_555 1_555
N12_29 N7_29 1_555 1_555
Cu4_18 N6_18 1_555 1_555
Cu3_10 N5_27 1_555 1_555
C2_29 N12_29 1_555 1_555
C6_29 N12_29 1_555 1_555
Cu1_25 N2_30 1_555 1_555
Cu2_30 N1_30 1_555 1_555
N1_30 N2_30 1_555 1_555
N3_30 Cu1_25 1_555 1_555
N4_30 Cu2_30 1_555 1_555
N8_30 N10_30 1_555 1_555
N9_30 N11_30 1_555 1_555
N10_30 C4_30 1_555 1_555
N11_30 C3_30 1_555 1_555
C3_30 N4_30 1_555 1_555
H3_30 C3_30 1_555 1_555
C4_30 N9_30 1_555 1_555
H4_30 C4_30 1_555 1_555
C5_30 N3_30 1_555 1_555
H5_30 C5_30 1_555 1_555
C8_30 N8_30 1_555 1_555
H8_30 C8_30 1_555 1_555
Cu5_26 N10_30 1_555 1_555
Cu6_26 N8_30 1_555 1_555
N13_25 Cu1_25 1_555 1_555
N14_28 Cu1_25 1_555 1_555
N15_30 Cu2_30 1_555 1_555
N16_30 Cu2_30 1_555 1_555
N3_30 N4_30 1_555 1_555
N9_30 C8_30 1_555 1_555
N11_30 C5_30 1_555 1_555
N5_28 N6_19 1_555 1_555
N6_19 C7_31 1_555 1_555
C1_31 N5_28 1_555 1_555
H1_31 C1_31 1_555 1_555
H7_31 C7_31 1_555 1_555
Cu4_16 N6_19 1_555 1_555
Cu3_8 N5_28 1_555 1_555
Cu4_9 N2_31 1_555 1_555
Cu2_31 N1_31 1_555 1_555
N1_31 N2_31 1_555 1_555
N2_31 C2_30 1_555 1_555
N3_31 Cu4_9 1_555 1_555
N4_31 Cu2_31 1_555 1_555
C2_30 H2_30 1_555 1_555
N8_31 N10_31 1_555 1_555
N9_31 N11_31 1_555 1_555
N10_31 C4_31 1_555 1_555
N11_31 C3_31 1_555 1_555
C3_31 N4_31 1_555 1_555
H3_31 C3_31 1_555 1_555
C4_31 N9_31 1_555 1_555
H4_31 C4_31 1_555 1_555
C5_31 N3_31 1_555 1_555
H5_31 C5_31 1_555 1_555
C6_30 N1_31 1_555 1_555
C8_31 N8_31 1_555 1_555
H8_31 C8_31 1_555 1_555
N12_30 N7_30 1_555 1_555
Cu6_14 N10_31 1_555 1_555
Cu5_14 N8_31 1_555 1_555
N14_29 Cu4_9 1_555 1_555
N16_31 Cu2_31 1_555 1_555
N3_31 N4_31 1_555 1_555
C2_30 N12_30 1_555 1_555
N9_31 C8_31 1_555 1_555
N11_31 C5_31 1_555 1_555
C6_30 N12_30 1_555 1_555
Cu1_26 N2_32 1_555 1_555
Cu2_32 N1_32 1_555 1_555
N1_32 N2_32 1_555 1_555
N2_32 C2_31 1_555 1_555
N3_32 Cu1_26 1_555 1_555
N4_32 Cu2_32 1_555 1_555
N13_18 N6_20 1_555 1_555
N6_20 C7_32 1_555 1_555
C1_32 N13_18 1_555 1_555
H1_32 C1_32 1_555 1_555
N7_31 C1_32 1_555 1_555
C2_31 H2_31 1_555 1_555
N8_32 N10_32 1_555 1_555
N9_32 N11_32 1_555 1_555
N10_32 C4_32 1_555 1_555
N11_32 C3_32 1_555 1_555
C3_32 N4_32 1_555 1_555
H3_32 C3_32 1_555 1_555
C4_32 N9_32 1_555 1_555
H4_32 C4_32 1_555 1_555
C5_32 N3_32 1_555 1_555
H5_32 C5_32 1_555 1_555
C6_31 N1_32 1_555 1_555
H6_32 C6_31 1_555 1_555
C7_32 N7_31 1_555 1_555
H7_32 C7_32 1_555 1_555
C8_32 N8_32 1_555 1_555
H8_32 C8_32 1_555 1_555
N12_31 N7_31 1_555 1_555
Cu4_17 N6_20 1_555 1_555
Cu5_27 N10_32 1_555 1_555
N13_26 Cu1_26 1_555 1_555
N14_30 Cu1_26 1_555 1_555
N15_32 Cu2_32 1_555 1_555
N16_32 Cu2_32 1_555 1_555
N3_32 N4_32 1_555 1_555
C2_31 N12_31 1_555 1_555
N9_32 C8_32 1_555 1_555
N11_32 C5_32 1_555 1_555
C6_31 N12_31 1_555 1_555
N13_3 N14_23 1_555 1_555
N14_23 C7_33 1_555 1_555
C1_33 N13_3 1_555 1_555
H1_33 C1_33 1_555 1_555
H7_33 C7_33 1_555 1_555
Cu1_27 N2_33 1_555 1_555
Cu2_33 N1_33 1_555 1_555
N1_33 N2_33 1_555 1_555
N2_33 C2_32 1_555 1_555
N3_33 Cu1_27 1_555 1_555
N4_33 Cu2_33 1_555 1_555
C2_32 H2_32 1_555 1_555
N8_33 N10_33 1_555 1_555
N9_33 N11_33 1_555 1_555
N10_33 C4_33 1_555 1_555
N11_33 C3_33 1_555 1_555
C3_33 N4_33 1_555 1_555
H3_33 C3_33 1_555 1_555
C4_33 N9_33 1_555 1_555
H4_33 C4_33 1_555 1_555
C5_33 N3_33 1_555 1_555
H5_33 C5_33 1_555 1_555
C6_32 N1_33 1_555 1_555
C8_33 N8_33 1_555 1_555
H8_33 C8_33 1_555 1_555
N12_32 N7_32 1_555 1_555
Cu5_28 N10_33 1_555 1_555
N13_27 Cu1_27 1_555 1_555
N14_31 Cu1_27 1_555 1_555
N16_33 Cu2_33 1_555 1_555
N3_33 N4_33 1_555 1_555
C2_32 N12_32 1_555 1_555
N9_33 C8_33 1_555 1_555
N11_33 C5_33 1_555 1_555
C6_32 N12_32 1_555 1_555
Cu3_6 N2_34 1_555 1_555
Cu2_34 N1_34 1_555 1_555
N1_34 N2_34 1_555 1_555
N2_34 C2_33 1_555 1_555
N3_34 Cu3_6 1_555 1_555
N4_34 Cu2_34 1_555 1_555
N5_29 N14_24 1_555 1_555
N14_24 C7_34 1_555 1_555
C1_34 N5_29 1_555 1_555
H1_34 C1_34 1_555 1_555
N7_33 C1_34 1_555 1_555
C2_33 H2_33 1_555 1_555
N8_34 N10_34 1_555 1_555
N9_34 N11_34 1_555 1_555
N10_34 C4_34 1_555 1_555
N11_34 C3_34 1_555 1_555
C3_34 N4_34 1_555 1_555
H3_34 C3_34 1_555 1_555
C4_34 N9_34 1_555 1_555
H4_34 C4_34 1_555 1_555
C5_34 N3_34 1_555 1_555
H5_34 C5_34 1_555 1_555
C6_33 N1_34 1_555 1_555
H6_34 C6_33 1_555 1_555
C7_34 N7_33 1_555 1_555
H7_34 C7_34 1_555 1_555
C8_34 N8_34 1_555 1_555
H8_34 C8_34 1_555 1_555
N12_33 N7_33 1_555 1_555
Cu4_19 N5_29 1_555 1_555
Cu6 N10_34 1_555 1_555
Cu5 N8_34 1_555 1_555
N15_34 Cu2_34 1_555 1_555
N16_34 Cu2_34 1_555 1_555
N3_34 N4_34 1_555 1_555
C2_33 N12_33 1_555 1_555
N9_34 C8_34 1_555 1_555
N11_34 C5_34 1_555 1_555
C6_33 N12_33 1_555 1_555
Cu1_28 N2_35 1_555 1_555
Cu2_35 N1_35 1_555 1_555
N1_35 N2_35 1_555 1_555
N2_35 C2_34 1_555 1_555
N3_35 Cu1_28 1_555 1_555
N4_35 Cu2_35 1_555 1_555
N13 N14_25 1_555 1_555
N14_25 C7_35 1_555 1_555
C1_35 N13 1_555 1_555
H1_35 C1_35 1_555 1_555
N7_34 C1_35 1_555 1_555
C2_34 H2_34 1_555 1_555
N8_35 N10_35 1_555 1_555
N9_35 N11_35 1_555 1_555
N10_35 C4_35 1_555 1_555
N11_35 C3_35 1_555 1_555
C3_35 N4_35 1_555 1_555
H3_35 C3_35 1_555 1_555
C4_35 N9_35 1_555 1_555
H4_35 C4_35 1_555 1_555
C5_35 N3_35 1_555 1_555
H5_35 C5_35 1_555 1_555
C6_34 N1_35 1_555 1_555
H6_35 C6_34 1_555 1_555
C7_35 N7_34 1_555 1_555
H7_35 C7_35 1_555 1_555
C8_35 N8_35 1_555 1_555
H8_35 C8_35 1_555 1_555
N12_34 N7_34 1_555 1_555
Cu5_29 N10_35 1_555 1_555
Cu6_29 N8_35 1_555 1_555
N13_28 Cu1_28 1_555 1_555
N14_32 Cu1_28 1_555 1_555
N15_35 Cu2_35 1_555 1_555
N16_35 Cu2_35 1_555 1_555
N3_35 N4_35 1_555 1_555
C2_34 N12_34 1_555 1_555
N9_35 C8_35 1_555 1_555
N11_35 C5_35 1_555 1_555
C6_34 N12_34 1_555 1_555
N5_30 N14_26 1_555 1_555
N14_26 C7_36 1_555 1_555
C1_36 N5_30 1_555 1_555
H1_36 C1_36 1_555 1_555
N7_35 C1_36 1_555 1_555
C2_35 H2_35 1_555 1_555
H6_36 C6_35 1_555 1_555
C7_36 N7_35 1_555 1_555
H7_36 C7_36 1_555 1_555
N12_35 N7_35 1_555 1_555
Cu4_20 N5_30 1_555 1_555
C2_35 N12_35 1_555 1_555
C6_35 N12_35 1_555 1_555
Cu1_29 N2_36 1_555 1_555
Cu2_36 N1_36 1_555 1_555
N1_36 N2_36 1_555 1_555
N3_36 Cu1_29 1_555 1_555
N4_36 Cu2_36 1_555 1_555
N8_36 N10_36 1_555 1_555
N9_36 N11_36 1_555 1_555
N10_36 C4_36 1_555 1_555
N11_36 C3_36 1_555 1_555
C3_36 N4_36 1_555 1_555
H3_36 C3_36 1_555 1_555
C4_36 N9_36 1_555 1_555
H4_36 C4_36 1_555 1_555
C5_36 N3_36 1_555 1_555
H5_36 C5_36 1_555 1_555
C8_36 N8_36 1_555 1_555
H8_36 C8_36 1_555 1_555
Cu6_3 N10_36 1_555 1_555
Cu5_3 N8_36 1_555 1_555
N13_29 Cu1_29 1_555 1_555
N14_33 Cu1_29 1_555 1_555
N15_36 Cu2_36 1_555 1_555
N16_36 Cu2_36 1_555 1_555
N3_36 N4_36 1_555 1_555
N9_36 C8_36 1_555 1_555
N11_36 C5_36 1_555 1_555
Cu4_13 N2_37 1_555 1_555
Cu2_37 N1_37 1_555 1_555
N1_37 N2_37 1_555 1_555
N2_37 C2_36 1_555 1_555
N3_37 Cu4_13 1_555 1_555
N4_37 Cu2_37 1_555 1_555
N13_7 N14_27 1_555 1_555
N14_27 C7_37 1_555 1_555
C1_37 N13_7 1_555 1_555
H1_37 C1_37 1_555 1_555
N7_36 C1_37 1_555 1_555
C2_36 H2_36 1_555 1_555
N8_37 N10_37 1_555 1_555
N9_37 N11_37 1_555 1_555
N10_37 C4_37 1_555 1_555
N11_37 C3_37 1_555 1_555
C3_37 N4_37 1_555 1_555
H3_37 C3_37 1_555 1_555
C4_37 N9_37 1_555 1_555
H4_37 C4_37 1_555 1_555
C5_37 N3_37 1_555 1_555
H5_37 C5_37 1_555 1_555
C6_36 N1_37 1_555 1_555
H6_37 C6_36 1_555 1_555
C7_37 N7_36 1_555 1_555
H7_37 C7_37 1_555 1_555
C8_37 N8_37 1_555 1_555
H8_37 C8_37 1_555 1_555
N12_36 N7_36 1_555 1_555
Cu5_30 N10_37 1_555 1_555
Cu6_30 N8_37 1_555 1_555
N15_37 Cu2_37 1_555 1_555
N16_37 Cu2_37 1_555 1_555
N3_37 N4_37 1_555 1_555
C2_36 N12_36 1_555 1_555
N9_37 C8_37 1_555 1_555
N11_37 C5_37 1_555 1_555
C6_36 N12_36 1_555 1_555
Cu1_30 N2_38 1_555 1_555
Cu2_38 N1_38 1_555 1_555
N1_38 N2_38 1_555 1_555
N2_38 C2_37 1_555 1_555
N3_38 Cu1_30 1_555 1_555
N4_38 Cu2_38 1_555 1_555
C2_37 H2_37 1_555 1_555
N8_38 N10_38 1_555 1_555
N9_38 N11_38 1_555 1_555
N10_38 C4_38 1_555 1_555
N11_38 C3_38 1_555 1_555
C3_38 N4_38 1_555 1_555
H3_38 C3_38 1_555 1_555
C4_38 N9_38 1_555 1_555
H4_38 C4_38 1_555 1_555
C5_38 N3_38 1_555 1_555
H5_38 C5_38 1_555 1_555
C6_37 N1_38 1_555 1_555
C8_38 N8_38 1_555 1_555
H8_38 C8_38 1_555 1_555
N12_37 N7_37 1_555 1_555
Cu6_7 N10_38 1_555 1_555
Cu5_7 N8_38 1_555 1_555
N13_30 Cu1_30 1_555 1_555
N14_34 Cu1_30 1_555 1_555
N16_38 Cu2_38 1_555 1_555
N3_38 N4_38 1_555 1_555
C2_37 N12_37 1_555 1_555
N9_38 C8_38 1_555 1_555
N11_38 C5_38 1_555 1_555
C6_37 N12_37 1_555 1_555
N5_31 N14_28 1_555 1_555
N14_28 C7_38 1_555 1_555
C1_38 N5_31 1_555 1_555
H1_38 C1_38 1_555 1_555
H7_38 C7_38 1_555 1_555
Cu4_21 N5_31 1_555 1_555
Cu1_31 N2_39 1_555 1_555
Cu2_39 N1_39 1_555 1_555
N1_39 N2_39 1_555 1_555
N2_39 C2_38 1_555 1_555
N3_39 Cu1_31 1_555 1_555
N4_39 Cu2_39 1_555 1_555
N13_5 N14_29 1_555 1_555
N14_29 C7_39 1_555 1_555
C1_39 N13_5 1_555 1_555
H1_39 C1_39 1_555 1_555
N7_38 C1_39 1_555 1_555
C2_38 H2_38 1_555 1_555
N8_39 N10_39 1_555 1_555
N9_39 N11_39 1_555 1_555
N10_39 C4_39 1_555 1_555
N11_39 C3_39 1_555 1_555
C3_39 N4_39 1_555 1_555
H3_39 C3_39 1_555 1_555
C4_39 N9_39 1_555 1_555
H4_39 C4_39 1_555 1_555
C5_39 N3_39 1_555 1_555
H5_39 C5_39 1_555 1_555
C6_38 N1_39 1_555 1_555
H6_39 C6_38 1_555 1_555
C7_39 N7_38 1_555 1_555
H7_39 C7_39 1_555 1_555
C8_39 N8_39 1_555 1_555
H8_39 C8_39 1_555 1_555
N12_38 N7_38 1_555 1_555
Cu5_31 N10_39 1_555 1_555
N13_31 Cu1_31 1_555 1_555
N14_35 Cu1_31 1_555 1_555
N15_39 Cu2_39 1_555 1_555
N16_39 Cu2_39 1_555 1_555
N3_39 N4_39 1_555 1_555
C2_38 N12_38 1_555 1_555
N9_39 C8_39 1_555 1_555
N11_39 C5_39 1_555 1_555
C6_38 N12_38 1_555 1_555
N5_32 N14_30 1_555 1_555
N14_30 C7_40 1_555 1_555
C1_40 N5_32 1_555 1_555
H1_40 C1_40 1_555 1_555
N7_39 C1_40 1_555 1_555
C2_39 H2_39 1_555 1_555
H6_40 C6_39 1_555 1_555
C7_40 N7_39 1_555 1_555
H7_40 C7_40 1_555 1_555
N12_39 N7_39 1_555 1_555
Cu4_22 N5_32 1_555 1_555
C2_39 N12_39 1_555 1_555
C6_39 N12_39 1_555 1_555
Cu1_32 N2_40 1_555 1_555
Cu2_40 N1_40 1_555 1_555
N1_40 N2_40 1_555 1_555
N3_40 Cu1_32 1_555 1_555
N4_40 Cu2_40 1_555 1_555
N8_40 N10_40 1_555 1_555
N9_40 N11_40 1_555 1_555
N10_40 C4_40 1_555 1_555
N11_40 C3_40 1_555 1_555
C3_40 N4_40 1_555 1_555
H3_40 C3_40 1_555 1_555
C4_40 N9_40 1_555 1_555
H4_40 C4_40 1_555 1_555
C5_40 N3_40 1_555 1_555
H5_40 C5_40 1_555 1_555
C8_40 N8_40 1_555 1_555
H8_40 C8_40 1_555 1_555
Cu6_5 N10_40 1_555 1_555
Cu5_5 N8_40 1_555 1_555
N13_32 Cu1_32 1_555 1_555
N14_36 Cu1_32 1_555 1_555
N15_40 Cu2_40 1_555 1_555
N16_40 Cu2_40 1_555 1_555
N3_40 N4_40 1_555 1_555
N9_40 C8_40 1_555 1_555
N11_40 C5_40 1_555 1_555
Cu3_8 N2_41 1_555 1_555
Cu2_41 N1_41 1_555 1_555
N1_41 N2_41 1_555 1_555
N3_41 Cu3_8 1_555 1_555
N4_41 Cu2_41 1_555 1_555
N8_41 N10_41 1_555 1_555
N9_41 N11_41 1_555 1_555
N10_41 C4_41 1_555 1_555
N11_41 C3_41 1_555 1_555
C3_41 N4_41 1_555 1_555
H3_41 C3_41 1_555 1_555
C4_41 N9_41 1_555 1_555
H4_41 C4_41 1_555 1_555
C5_41 N3_41 1_555 1_555
H5_41 C5_41 1_555 1_555
C8_41 N8_41 1_555 1_555
H8_41 C8_41 1_555 1_555
Cu5_32 N10_41 1_555 1_555
N15_41 Cu2_41 1_555 1_555
N16_41 Cu2_41 1_555 1_555
N3_41 N4_41 1_555 1_555
N9_41 C8_41 1_555 1_555
N11_41 C5_41 1_555 1_555
N13_13 N14_31 1_555 1_555
N14_31 C7_41 1_555 1_555
C1_41 N13_13 1_555 1_555
H1_41 C1_41 1_555 1_555
N7_40 C1_41 1_555 1_555
C2_40 H2_40 1_555 1_555
H6_41 C6_40 1_555 1_555
C7_41 N7_40 1_555 1_555
H7_41 C7_41 1_555 1_555
N12_40 N7_40 1_555 1_555
C2_40 N12_40 1_555 1_555
C6_40 N12_40 1_555 1_555
N13_29 N6_21 1_555 1_555
N6_21 C7_42 1_555 1_555
C1_42 N13_29 1_555 1_555
H1_42 C1_42 1_555 1_555
H7_42 C7_42 1_555 1_555
Cu3_11 N6_21 1_555 1_555
Cu1_33 N2_42 1_555 1_555
Cu2_42 N1_42 1_555 1_555
N1_42 N2_42 1_555 1_555
N3_42 Cu1_33 1_555 1_555
N4_42 Cu2_42 1_555 1_555
N8_42 N10_42 1_555 1_555
N9_42 N11_42 1_555 1_555
N10_42 C4_42 1_555 1_555
N11_42 C3_42 1_555 1_555
C3_42 N4_42 1_555 1_555
H3_42 C3_42 1_555 1_555
C4_42 N9_42 1_555 1_555
H4_42 C4_42 1_555 1_555
C5_42 N3_42 1_555 1_555
H5_42 C5_42 1_555 1_555
C8_42 N8_42 1_555 1_555
H8_42 C8_42 1_555 1_555
Cu5_33 N10_42 1_555 1_555
N13_33 Cu1_33 1_555 1_555
N14_37 Cu1_33 1_555 1_555
N16_42 Cu2_42 1_555 1_555
N3_42 N4_42 1_555 1_555
N9_42 C8_42 1_555 1_555
N11_42 C5_42 1_555 1_555
Cu3_2 N2_43 1_555 1_555
Cu2_43 N1_43 1_555 1_555
N1_43 N2_43 1_555 1_555
N2_43 C2_41 1_555 1_555
N3_43 Cu3_2 1_555 1_555
N4_43 Cu2_43 1_555 1_555
N5_33 N14_10 1_555 1_555
N14_10 C7_43 1_555 1_555
C1_43 N5_33 1_555 1_555
H1_43 C1_43 1_555 1_555
N7_41 C1_43 1_555 1_555
C2_41 H2_41 1_555 1_555
N8_43 N10_43 1_555 1_555
N9_43 N11_43 1_555 1_555
N10_43 C4_43 1_555 1_555
N11_43 C3_43 1_555 1_555
C3_43 N4_43 1_555 1_555
H3_43 C3_43 1_555 1_555
C4_43 N9_43 1_555 1_555
H4_43 C4_43 1_555 1_555
C5_43 N3_43 1_555 1_555
H5_43 C5_43 1_555 1_555
C6_41 N1_43 1_555 1_555
H6_43 C6_41 1_555 1_555
C7_43 N7_41 1_555 1_555
H7_43 C7_43 1_555 1_555
C8_43 N8_43 1_555 1_555
H8_43 C8_43 1_555 1_555
N12_41 N7_41 1_555 1_555
Cu4_23 N5_33 1_555 1_555
Cu5_34 N10_43 1_555 1_555
Cu6_34 N8_43 1_555 1_555
N15_43 Cu2_43 1_555 1_555
N16_43 Cu2_43 1_555 1_555
N3_43 N4_43 1_555 1_555
C2_41 N12_41 1_555 1_555
N9_43 C8_43 1_555 1_555
N11_43 C5_43 1_555 1_555
C6_41 N12_41 1_555 1_555
Cu1_34 N2_44 1_555 1_555
Cu2_44 N1_44 1_555 1_555
N1_44 N2_44 1_555 1_555
N2_44 C2_42 1_555 1_555
N3_44 Cu1_34 1_555 1_555
N4_44 Cu2_44 1_555 1_555
N13_10 N6_22 1_555 1_555
N6_22 C7_44 1_555 1_555
C1_44 N13_10 1_555 1_555
H1_44 C1_44 1_555 1_555
N7_42 C1_44 1_555 1_555
C2_42 H2_42 1_555 1_555
N8_44 N10_44 1_555 1_555
N9_44 N11_44 1_555 1_555
N10_44 C4_44 1_555 1_555
N11_44 C3_44 1_555 1_555
C3_44 N4_44 1_555 1_555
H3_44 C3_44 1_555 1_555
C4_44 N9_44 1_555 1_555
H4_44 C4_44 1_555 1_555
C5_44 N3_44 1_555 1_555
H5_44 C5_44 1_555 1_555
C6_42 N1_44 1_555 1_555
H6_44 C6_42 1_555 1_555
C7_44 N7_42 1_555 1_555
H7_44 C7_44 1_555 1_555
C8_44 N8_44 1_555 1_555
H8_44 C8_44 1_555 1_555
N12_42 N7_42 1_555 1_555
Cu4_23 N6_22 1_555 1_555
Cu5_35 N10_44 1_555 1_555
N13_34 Cu1_34 1_555 1_555
N14_38 Cu1_34 1_555 1_555
N15_44 Cu2_44 1_555 1_555
N16_44 Cu2_44 1_555 1_555
N3_44 N4_44 1_555 1_555
C2_42 N12_42 1_555 1_555
N9_44 C8_44 1_555 1_555
N11_44 C5_44 1_555 1_555
C6_42 N12_42 1_555 1_555
Cu3_10 N2_45 1_555 1_555
Cu2_45 N1_45 1_555 1_555
N1_45 N2_45 1_555 1_555
N2_45 C2_43 1_555 1_555
N3_45 Cu3_10 1_555 1_555
N4_45 Cu2_45 1_555 1_555
C2_43 H2_43 1_555 1_555
N8_45 N10_45 1_555 1_555
N9_45 N11_45 1_555 1_555
N10_45 C4_45 1_555 1_555
N11_45 C3_45 1_555 1_555
C3_45 N4_45 1_555 1_555
H3_45 C3_45 1_555 1_555
C4_45 N9_45 1_555 1_555
H4_45 C4_45 1_555 1_555
C5_45 N3_45 1_555 1_555
H5_45 C5_45 1_555 1_555
C6_43 N1_45 1_555 1_555
C8_45 N8_45 1_555 1_555
H8_45 C8_45 1_555 1_555
N12_43 N7_43 1_555 1_555
Cu6_22 N10_45 1_555 1_555
Cu5_22 N8_45 1_555 1_555
N16_45 Cu2_45 1_555 1_555
N3_45 N4_45 1_555 1_555
C2_43 N12_43 1_555 1_555
N9_45 C8_45 1_555 1_555
N11_45 C5_45 1_555 1_555
C6_43 N12_43 1_555 1_555
N5_34 N14_33 1_555 1_555
N14_33 C7_45 1_555 1_555
C1_45 N5_34 1_555 1_555
H1_45 C1_45 1_555 1_555
H7_45 C7_45 1_555 1_555
Cu3_11 N5_34 1_555 1_555
Cu4_3 N2_46 1_555 1_555
Cu2_46 N1_46 1_555 1_555
N1_46 N2_46 1_555 1_555
N2_46 C2_44 1_555 1_555
N3_46 Cu4_3 1_555 1_555
N4_46 Cu2_46 1_555 1_555
N13_27 N14_13 1_555 1_555
N14_13 C7_46 1_555 1_555
C1_46 N13_27 1_555 1_555
H1_46 C1_46 1_555 1_555
N7_44 C1_46 1_555 1_555
C2_44 H2_44 1_555 1_555
N8_46 N10_46 1_555 1_555
N9_46 N11_46 1_555 1_555
N10_46 C4_46 1_555 1_555
N11_46 C3_46 1_555 1_555
C3_46 N4_46 1_555 1_555
H3_46 C3_46 1_555 1_555
C4_46 N9_46 1_555 1_555
H4_46 C4_46 1_555 1_555
C5_46 N3_46 1_555 1_555
H5_46 C5_46 1_555 1_555
C6_44 N1_46 1_555 1_555
H6_46 C6_44 1_555 1_555
C7_46 N7_44 1_555 1_555
H7_46 C7_46 1_555 1_555
C8_46 N8_46 1_555 1_555
H8_46 C8_46 1_555 1_555
N12_44 N7_44 1_555 1_555
Cu6_21 N10_46 1_555 1_555
Cu5_21 N8_46 1_555 1_555
N15_46 Cu2_46 1_555 1_555
N16_46 Cu2_46 1_555 1_555
N3_46 N4_46 1_555 1_555
C2_44 N12_44 1_555 1_555
N9_46 C8_46 1_555 1_555
N11_46 C5_46 1_555 1_555
C6_44 N12_44 1_555 1_555
Cu1_35 N2_47 1_555 1_555
Cu2_47 N1_47 1_555 1_555
N1_47 N2_47 1_555 1_555
N2_47 C2_45 1_555 1_555
N3_47 Cu1_35 1_555 1_555
N4_47 Cu2_47 1_555 1_555
N5_35 N6_23 1_555 1_555
N6_23 C7_47 1_555 1_555
C1_47 N5_35 1_555 1_555
H1_47 C1_47 1_555 1_555
N7_45 C1_47 1_555 1_555
C2_45 H2_45 1_555 1_555
N8_47 N10_47 1_555 1_555
N9_47 N11_47 1_555 1_555
N10_47 C4_47 1_555 1_555
N11_47 C3_47 1_555 1_555
C3_47 N4_47 1_555 1_555
H3_47 C3_47 1_555 1_555
C4_47 N9_47 1_555 1_555
H4_47 C4_47 1_555 1_555
C5_47 N3_47 1_555 1_555
H5_47 C5_47 1_555 1_555
C6_45 N1_47 1_555 1_555
H6_47 C6_45 1_555 1_555
C7_47 N7_45 1_555 1_555
H7_47 C7_47 1_555 1_555
C8_47 N8_47 1_555 1_555
H8_47 C8_47 1_555 1_555
N12_45 N7_45 1_555 1_555
Cu3_12 N6_23 1_555 1_555
Cu4_24 N5_35 1_555 1_555
Cu6_33 N10_47 1_555 1_555
N13_35 Cu1_35 1_555 1_555
N14_39 Cu1_35 1_555 1_555
N15_47 Cu2_47 1_555 1_555
N16_47 Cu2_47 1_555 1_555
N3_47 N4_47 1_555 1_555
C2_45 N12_45 1_555 1_555
N9_47 C8_47 1_555 1_555
N11_47 C5_47 1_555 1_555
C6_45 N12_45 1_555 1_555
Cu1_36 N2_48 1_555 1_555
Cu2_48 N1_48 1_555 1_555
N1_48 N2_48 1_555 1_555
N2_48 C2_46 1_555 1_555
N3_48 Cu1_36 1_555 1_555
N4_48 Cu2_48 1_555 1_555
N5_36 N6_24 1_555 1_555
N6_24 C7_48 1_555 1_555
C1_48 N5_36 1_555 1_555
H1_48 C1_48 1_555 1_555
N7_46 C1_48 1_555 1_555
C2_46 H2_46 1_555 1_555
N8_48 N10_48 1_555 1_555
N9_48 N11_48 1_555 1_555
N10_48 C4_48 1_555 1_555
N11_48 C3_48 1_555 1_555
C3_48 N4_48 1_555 1_555
H3_48 C3_48 1_555 1_555
C4_48 N9_48 1_555 1_555
H4_48 C4_48 1_555 1_555
C5_48 N3_48 1_555 1_555
H5_48 C5_48 1_555 1_555
C6_46 N1_48 1_555 1_555
H6_48 C6_46 1_555 1_555
C7_48 N7_46 1_555 1_555
H7_48 C7_48 1_555 1_555
C8_48 N8_48 1_555 1_555
H8_48 C8_48 1_555 1_555
N12_46 N7_46 1_555 1_555
Cu4_24 N6_24 1_555 1_555
Cu3_12 N5_36 1_555 1_555
Cu5_36 N10_48 1_555 1_555
Cu6_36 N8_48 1_555 1_555
N13_36 Cu1_36 1_555 1_555
N14_40 Cu1_36 1_555 1_555
N15_48 Cu2_48 1_555 1_555
N16_48 Cu2_48 1_555 1_555
N3_48 N4_48 1_555 1_555
C2_46 N12_46 1_555 1_555
N9_48 C8_48 1_555 1_555
N11_48 C5_48 1_555 1_555
C6_46 N12_46 1_555 1_555
Cu1_37 N2_49 1_555 1_555
Cu2_49 N1_49 1_555 1_555
N1_49 N2_49 1_555 1_555
N3_49 Cu1_37 1_555 1_555
N4_49 Cu2_49 1_555 1_555
N8_49 N10_49 1_555 1_555
N9_49 N11_49 1_555 1_555
N10_49 C4_49 1_555 1_555
N11_49 C3_49 1_555 1_555
C3_49 N4_49 1_555 1_555
H3_49 C3_49 1_555 1_555
C4_49 N9_49 1_555 1_555
H4_49 C4_49 1_555 1_555
C5_49 N3_49 1_555 1_555
H5_49 C5_49 1_555 1_555
C8_49 N8_49 1_555 1_555
H8_49 C8_49 1_555 1_555
Cu5_37 N10_49 1_555 1_555
N13_37 Cu1_37 1_555 1_555
N14_41 Cu1_37 1_555 1_555
N15_49 Cu2_49 1_555 1_555
N16_49 Cu2_49 1_555 1_555
N3_49 N4_49 1_555 1_555
N9_49 C8_49 1_555 1_555
N11_49 C5_49 1_555 1_555
N13_36 N6_25 1_555 1_555
N6_25 C7_49 1_555 1_555
C1_49 N13_36 1_555 1_555
H1_49 C1_49 1_555 1_555
N7_47 C1_49 1_555 1_555
C2_47 H2_47 1_555 1_555
H6_49 C6_47 1_555 1_555
C7_49 N7_47 1_555 1_555
H7_49 C7_49 1_555 1_555
N12_47 N7_47 1_555 1_555
Cu3_13 N6_25 1_555 1_555
C2_47 N12_47 1_555 1_555
C6_47 N12_47 1_555 1_555
Cu4_8 N2_50 1_555 1_555
Cu2_50 N1_50 1_555 1_555
N1_50 N2_50 1_555 1_555
N2_50 C2_48 1_555 1_555
N3_50 Cu4_8 1_555 1_555
N4_50 Cu2_50 1_555 1_555
C2_48 H2_48 1_555 1_555
N8_50 N10_50 1_555 1_555
N9_50 N11_50 1_555 1_555
N10_50 C4_50 1_555 1_555
N11_50 C3_50 1_555 1_555
C3_50 N4_50 1_555 1_555
H3_50 C3_50 1_555 1_555
C4_50 N9_50 1_555 1_555
H4_50 C4_50 1_555 1_555
C5_50 N3_50 1_555 1_555
H5_50 C5_50 1_555 1_555
C6_48 N1_50 1_555 1_555
C8_50 N8_50 1_555 1_555
H8_50 C8_50 1_555 1_555
N12_48 N7_48 1_555 1_555
Cu6_11 N10_50 1_555 1_555
Cu5_11 N8_50 1_555 1_555
N14_42 Cu4_8 1_555 1_555
N16_50 Cu2_50 1_555 1_555
N3_50 N4_50 1_555 1_555
C2_48 N12_48 1_555 1_555
N9_50 C8_50 1_555 1_555
N11_50 C5_50 1_555 1_555
C6_48 N12_48 1_555 1_555
N13_17 N6_26 1_555 1_555
N6_26 C7_50 1_555 1_555
C1_50 N13_17 1_555 1_555
H1_50 C1_50 1_555 1_555
H7_50 C7_50 1_555 1_555
Cu3_14 N6_26 1_555 1_555
Cu1_38 N2_51 1_555 1_555
Cu2_51 N1_51 1_555 1_555
N1_51 N2_51 1_555 1_555
N2_51 C2_49 1_555 1_555
N3_51 Cu1_38 1_555 1_555
N4_51 Cu2_51 1_555 1_555
N5_37 N14_21 1_555 1_555
N14_21 C7_51 1_555 1_555
C1_51 N5_37 1_555 1_555
H1_51 C1_51 1_555 1_555
N7_49 C1_51 1_555 1_555
C2_49 H2_49 1_555 1_555
N8_51 N10_51 1_555 1_555
N9_51 N11_51 1_555 1_555
N10_51 C4_51 1_555 1_555
N11_51 C3_51 1_555 1_555
C3_51 N4_51 1_555 1_555
H3_51 C3_51 1_555 1_555
C4_51 N9_51 1_555 1_555
H4_51 C4_51 1_555 1_555
C5_51 N3_51 1_555 1_555
H5_51 C5_51 1_555 1_555
C6_49 N1_51 1_555 1_555
H6_51 C6_49 1_555 1_555
C7_51 N7_49 1_555 1_555
H7_51 C7_51 1_555 1_555
C8_51 N8_51 1_555 1_555
H8_51 C8_51 1_555 1_555
N12_49 N7_49 1_555 1_555
Cu4_25 N5_37 1_555 1_555
Cu5_38 N10_51 1_555 1_555
Cu6_38 N8_51 1_555 1_555
N13_38 Cu1_38 1_555 1_555
N14_43 Cu1_38 1_555 1_555
N15_51 Cu2_51 1_555 1_555
N16_51 Cu2_51 1_555 1_555
N3_51 N4_51 1_555 1_555
C2_49 N12_49 1_555 1_555
N9_51 C8_51 1_555 1_555
N11_51 C5_51 1_555 1_555
C6_49 N12_49 1_555 1_555
Cu4_6 N2_52 1_555 1_555
Cu2_52 N1_52 1_555 1_555
N1_52 N2_52 1_555 1_555
N2_52 C2_50 1_555 1_555
N3_52 Cu4_6 1_555 1_555
N4_52 Cu2_52 1_555 1_555
N13_34 N6_27 1_555 1_555
N6_27 C7_52 1_555 1_555
C1_52 N13_34 1_555 1_555
H1_52 C1_52 1_555 1_555
N7_50 C1_52 1_555 1_555
C2_50 H2_50 1_555 1_555
N8_52 N10_52 1_555 1_555
N9_52 N11_52 1_555 1_555
N10_52 C4_52 1_555 1_555
N11_52 C3_52 1_555 1_555
C3_52 N4_52 1_555 1_555
H3_52 C3_52 1_555 1_555
C4_52 N9_52 1_555 1_555
H4_52 C4_52 1_555 1_555
C5_52 N3_52 1_555 1_555
H5_52 C5_52 1_555 1_555
C6_50 N1_52 1_555 1_555
H6_52 C6_50 1_555 1_555
C7_52 N7_50 1_555 1_555
H7_52 C7_52 1_555 1_555
C8_52 N8_52 1_555 1_555
H8_52 C8_52 1_555 1_555
N12_50 N7_50 1_555 1_555
Cu3_15 N6_27 1_555 1_555
Cu6_9 N10_52 1_555 1_555
Cu5_9 N8_52 1_555 1_555
N14_44 Cu4_6 1_555 1_555
N15_52 Cu2_52 1_555 1_555
N16_52 Cu2_52 1_555 1_555
N3_52 N4_52 1_555 1_555
C2_50 N12_50 1_555 1_555
N9_52 C8_52 1_555 1_555
N11_52 C5_52 1_555 1_555
C6_50 N12_50 1_555 1_555
Cu1_39 N2_53 1_555 1_555
Cu2_53 N1_53 1_555 1_555
N1_53 N2_53 1_555 1_555
N2_53 C2_51 1_555 1_555
N3_53 Cu1_39 1_555 1_555
N4_53 Cu2_53 1_555 1_555
N13_21 N6_28 1_555 1_555
N6_28 C7_53 1_555 1_555
C1_53 N13_21 1_555 1_555
H1_53 C1_53 1_555 1_555
N7_51 C1_53 1_555 1_555
C2_51 H2_51 1_555 1_555
N8_53 N10_53 1_555 1_555
N9_53 N11_53 1_555 1_555
N10_53 C4_53 1_555 1_555
N11_53 C3_53 1_555 1_555
C3_53 N4_53 1_555 1_555
H3_53 C3_53 1_555 1_555
C4_53 N9_53 1_555 1_555
H4_53 C4_53 1_555 1_555
C5_53 N3_53 1_555 1_555
H5_53 C5_53 1_555 1_555
C6_51 N1_53 1_555 1_555
H6_53 C6_51 1_555 1_555
C7_53 N7_51 1_555 1_555
H7_53 C7_53 1_555 1_555
C8_53 N8_53 1_555 1_555
H8_53 C8_53 1_555 1_555
N12_51 N7_51 1_555 1_555
Cu4_25 N6_28 1_555 1_555
Cu5_39 N10_53 1_555 1_555
N13_39 Cu1_39 1_555 1_555
N14_45 Cu1_39 1_555 1_555
N15_53 Cu2_53 1_555 1_555
N16_53 Cu2_53 1_555 1_555
N3_53 N4_53 1_555 1_555
C2_51 N12_51 1_555 1_555
N9_53 C8_53 1_555 1_555
N11_53 C5_53 1_555 1_555
C6_51 N12_51 1_555 1_555
N5_38 N14_38 1_555 1_555
N14_38 C7_54 1_555 1_555
C1_54 N5_38 1_555 1_555
H1_54 C1_54 1_555 1_555
N7_52 C1_54 1_555 1_555
C2_52 H2_52 1_555 1_555
H6_54 C6_52 1_555 1_555
C7_54 N7_52 1_555 1_555
H7_54 C7_54 1_555 1_555
N12_52 N7_52 1_555 1_555
Cu3_15 N5_38 1_555 1_555
C2_52 N12_52 1_555 1_555
C6_52 N12_52 1_555 1_555
Cu4_12 N2_54 1_555 1_555
Cu2_54 N1_54 1_555 1_555
N1_54 N2_54 1_555 1_555
N3_54 Cu4_12 1_555 1_555
N4_54 Cu2_54 1_555 1_555
N8_54 N10_54 1_555 1_555
N9_54 N11_54 1_555 1_555
N10_54 C4_54 1_555 1_555
N11_54 C3_54 1_555 1_555
C3_54 N4_54 1_555 1_555
H3_54 C3_54 1_555 1_555
C4_54 N9_54 1_555 1_555
H4_54 C4_54 1_555 1_555
C5_54 N3_54 1_555 1_555
H5_54 C5_54 1_555 1_555
C8_54 N8_54 1_555 1_555
H8_54 C8_54 1_555 1_555
Cu6_13 N10_54 1_555 1_555
Cu5_13 N8_54 1_555 1_555
N14_46 Cu4_12 1_555 1_555
N15_54 Cu2_54 1_555 1_555
N16_54 Cu2_54 1_555 1_555
N3_54 N4_54 1_555 1_555
N9_54 C8_54 1_555 1_555
N11_54 C5_54 1_555 1_555
Cu1_40 N2_55 1_555 1_555
Cu2_55 N1_55 1_555 1_555
N1_55 N2_55 1_555 1_555
N2_55 C2_53 1_555 1_555
N3_55 Cu1_40 1_555 1_555
N4_55 Cu2_55 1_555 1_555
N5_39 N14_40 1_555 1_555
N14_40 C7_55 1_555 1_555
C1_55 N5_39 1_555 1_555
H1_55 C1_55 1_555 1_555
N7_53 C1_55 1_555 1_555
C2_53 H2_53 1_555 1_555
N8_55 N10_55 1_555 1_555
N9_55 N11_55 1_555 1_555
N10_55 C4_55 1_555 1_555
N11_55 C3_55 1_555 1_555
C3_55 N4_55 1_555 1_555
H3_55 C3_55 1_555 1_555
C4_55 N9_55 1_555 1_555
H4_55 C4_55 1_555 1_555
C5_55 N3_55 1_555 1_555
H5_55 C5_55 1_555 1_555
C6_53 N1_55 1_555 1_555
H6_55 C6_53 1_555 1_555
C7_55 N7_53 1_555 1_555
H7_55 C7_55 1_555 1_555
C8_55 N8_55 1_555 1_555
H8_55 C8_55 1_555 1_555
N12_53 N7_53 1_555 1_555
Cu3_13 N5_39 1_555 1_555
Cu5_40 N10_55 1_555 1_555
Cu6_40 N8_55 1_555 1_555
N13_40 Cu1_40 1_555 1_555
N14_47 Cu1_40 1_555 1_555
N15_55 Cu2_55 1_555 1_555
N16_55 Cu2_55 1_555 1_555
N3_55 N4_55 1_555 1_555
C2_53 N12_53 1_555 1_555
N9_55 C8_55 1_555 1_555
N11_55 C5_55 1_555 1_555
C6_53 N12_53 1_555 1_555
Cu4_10 N2_56 1_555 1_555
Cu2_56 N1_56 1_555 1_555
N1_56 N2_56 1_555 1_555
N2_56 C2_54 1_555 1_555
N3_56 Cu4_10 1_555 1_555
N4_56 Cu2_56 1_555 1_555
C2_54 H2_54 1_555 1_555
N8_56 N10_56 1_555 1_555
N9_56 N11_56 1_555 1_555
N10_56 C4_56 1_555 1_555
N11_56 C3_56 1_555 1_555
C3_56 N4_56 1_555 1_555
H3_56 C3_56 1_555 1_555
C4_56 N9_56 1_555 1_555
H4_56 C4_56 1_555 1_555
C5_56 N3_56 1_555 1_555
H5_56 C5_56 1_555 1_555
C6_54 N1_56 1_555 1_555
C8_56 N8_56 1_555 1_555
H8_56 C8_56 1_555 1_555
N12_54 N7_54 1_555 1_555
Cu6_15 N10_56 1_555 1_555
Cu5_15 N8_56 1_555 1_555
N14_48 Cu4_10 1_555 1_555
N16_56 Cu2_56 1_555 1_555
N3_56 N4_56 1_555 1_555
C2_54 N12_54 1_555 1_555
N9_56 C8_56 1_555 1_555
N11_56 C5_56 1_555 1_555
C6_54 N12_54 1_555 1_555
N5_40 N14_17 1_555 1_555
N14_17 C7_56 1_555 1_555
C1_56 N5_40 1_555 1_555
H1_56 C1_56 1_555 1_555
H7_56 C7_56 1_555 1_555
Cu3_14 N5_40 1_555 1_555
Cu1_41 N2_57 1_555 1_555
Cu2_57 N1_57 1_555 1_555
N1_57 N2_57 1_555 1_555
N3_57 Cu1_41 1_555 1_555
N4_57 Cu2_57 1_555 1_555
N8_57 N10_57 1_555 1_555
N9_57 N11_57 1_555 1_555
N10_57 C4_57 1_555 1_555
N11_57 C3_57 1_555 1_555
C3_57 N4_57 1_555 1_555
H3_57 C3_57 1_555 1_555
C4_57 N9_57 1_555 1_555
H4_57 C4_57 1_555 1_555
C5_57 N3_57 1_555 1_555
H5_57 C5_57 1_555 1_555
C8_57 N8_57 1_555 1_555
H8_57 C8_57 1_555 1_555
Cu6_4 N10_57 1_555 1_555
Cu5_4 N8_57 1_555 1_555
N13_41 Cu1_41 1_555 1_555
N14_49 Cu1_41 1_555 1_555
N16_57 Cu2_57 1_555 1_555
N3_57 N4_57 1_555 1_555
N9_57 C8_57 1_555 1_555
N11_57 C5_57 1_555 1_555
N5_41 N14_41 1_555 1_555
N14_41 C7_57 1_555 1_555
C1_57 N5_41 1_555 1_555
H1_57 C1_57 1_555 1_555
H7_57 C7_57 1_555 1_555
Cu4_26 N5_41 1_555 1_555
Cu1_42 N2_58 1_555 1_555
Cu2_58 N1_58 1_555 1_555
N1_58 N2_58 1_555 1_555
N2_58 C2_55 1_555 1_555
N3_58 Cu1_42 1_555 1_555
N4_58 Cu2_58 1_555 1_555
N13_4 N14_42 1_555 1_555
N14_42 C7_58 1_555 1_555
C1_58 N13_4 1_555 1_555
H1_58 C1_58 1_555 1_555
N7_55 C1_58 1_555 1_555
C2_55 H2_55 1_555 1_555
N8_58 N10_58 1_555 1_555
N9_58 N11_58 1_555 1_555
N10_58 C4_58 1_555 1_555
N11_58 C3_58 1_555 1_555
C3_58 N4_58 1_555 1_555
H3_58 C3_58 1_555 1_555
C4_58 N9_58 1_555 1_555
H4_58 C4_58 1_555 1_555
C5_58 N3_58 1_555 1_555
H5_58 C5_58 1_555 1_555
C6_55 N1_58 1_555 1_555
H6_58 C6_55 1_555 1_555
C7_58 N7_55 1_555 1_555
H7_58 C7_58 1_555 1_555
C8_58 N8_58 1_555 1_555
H8_58 C8_58 1_555 1_555
N12_55 N7_55 1_555 1_555
Cu5_41 N10_58 1_555 1_555
N13_42 Cu1_42 1_555 1_555
N14_50 Cu1_42 1_555 1_555
N15_58 Cu2_58 1_555 1_555
N16_58 Cu2_58 1_555 1_555
N3_58 N4_58 1_555 1_555
C2_55 N12_55 1_555 1_555
N9_58 C8_58 1_555 1_555
N11_58 C5_58 1_555 1_555
C6_55 N12_55 1_555 1_555
Cu3_7 N2_59 1_555 1_555
Cu2_59 N1_59 1_555 1_555
N1_59 N2_59 1_555 1_555
N2_59 C2_56 1_555 1_555
N3_59 Cu3_7 1_555 1_555
N4_59 Cu2_59 1_555 1_555
N5_42 N14_43 1_555 1_555
N14_43 C7_59 1_555 1_555
C1_59 N5_42 1_555 1_555
H1_59 C1_59 1_555 1_555
N7_56 C1_59 1_555 1_555
C2_56 H2_56 1_555 1_555
N8_59 N10_59 1_555 1_555
N9_59 N11_59 1_555 1_555
N10_59 C4_59 1_555 1_555
N11_59 C3_59 1_555 1_555
C3_59 N4_59 1_555 1_555
H3_59 C3_59 1_555 1_555
C4_59 N9_59 1_555 1_555
H4_59 C4_59 1_555 1_555
C5_59 N3_59 1_555 1_555
H5_59 C5_59 1_555 1_555
C6_56 N1_59 1_555 1_555
H6_59 C6_56 1_555 1_555
C7_59 N7_56 1_555 1_555
H7_59 C7_59 1_555 1_555
C8_59 N8_59 1_555 1_555
H8_59 C8_59 1_555 1_555
N12_56 N7_56 1_555 1_555
Cu4_27 N5_42 1_555 1_555
Cu6_2 N10_59 1_555 1_555
Cu5_2 N8_59 1_555 1_555
N15_59 Cu2_59 1_555 1_555
N16_59 Cu2_59 1_555 1_555
N3_59 N4_59 1_555 1_555
C2_56 N12_56 1_555 1_555
N9_59 C8_59 1_555 1_555
N11_59 C5_59 1_555 1_555
C6_56 N12_56 1_555 1_555
Cu1_43 N2_60 1_555 1_555
Cu2_60 N1_60 1_555 1_555
N1_60 N2_60 1_555 1_555
N2_60 C2_57 1_555 1_555
N3_60 Cu1_43 1_555 1_555
N4_60 Cu2_60 1_555 1_555
N13_2 N14_44 1_555 1_555
N14_44 C7_60 1_555 1_555
C1_60 N13_2 1_555 1_555
H1_60 C1_60 1_555 1_555
N7_57 C1_60 1_555 1_555
C2_57 H2_57 1_555 1_555
N8_60 N10_60 1_555 1_555
N9_60 N11_60 1_555 1_555
N10_60 C4_60 1_555 1_555
N11_60 C3_60 1_555 1_555
C3_60 N4_60 1_555 1_555
H3_60 C3_60 1_555 1_555
C4_60 N9_60 1_555 1_555
H4_60 C4_60 1_555 1_555
C5_60 N3_60 1_555 1_555
H5_60 C5_60 1_555 1_555
C6_57 N1_60 1_555 1_555
H6_60 C6_57 1_555 1_555
C7_60 N7_57 1_555 1_555
H7_60 C7_60 1_555 1_555
C8_60 N8_60 1_555 1_555
H8_60 C8_60 1_555 1_555
N12_57 N7_57 1_555 1_555
Cu5_42 N10_60 1_555 1_555
Cu6_42 N8_60 1_555 1_555
N13_43 Cu1_43 1_555 1_555
N14_51 Cu1_43 1_555 1_555
N15_60 Cu2_60 1_555 1_555
N16_60 Cu2_60 1_555 1_555
N3_60 N4_60 1_555 1_555
C2_57 N12_57 1_555 1_555
N9_60 C8_60 1_555 1_555
N11_60 C5_60 1_555 1_555
C6_57 N12_57 1_555 1_555
Cu1_44 N2_61 1_555 1_555
Cu2_61 N1_61 1_555 1_555
N1_61 N2_61 1_555 1_555
N3_61 Cu1_44 1_555 1_555
N4_61 Cu2_61 1_555 1_555
N8_61 N10_61 1_555 1_555
N9_61 N11_61 1_555 1_555
N10_61 C4_61 1_555 1_555
N11_61 C3_61 1_555 1_555
C3_61 N4_61 1_555 1_555
H3_61 C3_61 1_555 1_555
C4_61 N9_61 1_555 1_555
H4_61 C4_61 1_555 1_555
C5_61 N3_61 1_555 1_555
H5_61 C5_61 1_555 1_555
C8_61 N8_61 1_555 1_555
H8_61 C8_61 1_555 1_555
Cu6_6 N10_61 1_555 1_555
Cu5_6 N8_61 1_555 1_555
N13_44 Cu1_44 1_555 1_555
N14_52 Cu1_44 1_555 1_555
N15_61 Cu2_61 1_555 1_555
N16_61 Cu2_61 1_555 1_555
N3_61 N4_61 1_555 1_555
N9_61 C8_61 1_555 1_555
N11_61 C5_61 1_555 1_555
N5_43 N14_45 1_555 1_555
N14_45 C7_61 1_555 1_555
C1_61 N5_43 1_555 1_555
H1_61 C1_61 1_555 1_555
N7_58 C1_61 1_555 1_555
C2_58 H2_58 1_555 1_555
H6_61 C6_58 1_555 1_555
C7_61 N7_58 1_555 1_555
H7_61 C7_61 1_555 1_555
N12_58 N7_58 1_555 1_555
Cu4_28 N5_43 1_555 1_555
C2_58 N12_58 1_555 1_555
C6_58 N12_58 1_555 1_555
Cu4_23 N2_62 1_555 1_555
Cu2_62 N1_62 1_555 1_555
N1_62 N2_62 1_555 1_555
N2_62 C2_59 1_555 1_555
N3_62 Cu4_23 1_555 1_555
N4_62 Cu2_62 1_555 1_555
C2_59 H2_59 1_555 1_555
N8_62 N10_62 1_555 1_555
N9_62 N11_62 1_555 1_555
N10_62 C4_62 1_555 1_555
N11_62 C3_62 1_555 1_555
C3_62 N4_62 1_555 1_555
H3_62 C3_62 1_555 1_555
C4_62 N9_62 1_555 1_555
H4_62 C4_62 1_555 1_555
C5_62 N3_62 1_555 1_555
H5_62 C5_62 1_555 1_555
C6_59 N1_62 1_555 1_555
C8_62 N8_62 1_555 1_555
H8_62 C8_62 1_555 1_555
N12_59 N7_59 1_555 1_555
Cu5_43 N10_62 1_555 1_555
Cu6_43 N8_62 1_555 1_555
N16_62 Cu2_62 1_555 1_555
N3_62 N4_62 1_555 1_555
C2_59 N12_59 1_555 1_555
N9_62 C8_62 1_555 1_555
N11_62 C5_62 1_555 1_555
C6_59 N12_59 1_555 1_555
N13_8 N14_46 1_555 1_555
N14_46 C7_62 1_555 1_555
C1_62 N13_8 1_555 1_555
H1_62 C1_62 1_555 1_555
H7_62 C7_62 1_555 1_555
Cu4_24 N2_63 1_555 1_555
Cu2_63 N1_63 1_555 1_555
N1_63 N2_63 1_555 1_555
N2_63 C2_60 1_555 1_555
N3_63 Cu4_24 1_555 1_555
N4_63 Cu2_63 1_555 1_555
N5_44 N14_47 1_555 1_555
N14_47 C7_63 1_555 1_555
C1_63 N5_44 1_555 1_555
H1_63 C1_63 1_555 1_555
N7_60 C1_63 1_555 1_555
C2_60 H2_60 1_555 1_555
N8_63 N10_63 1_555 1_555
N9_63 N11_63 1_555 1_555
N10_63 C4_63 1_555 1_555
N11_63 C3_63 1_555 1_555
C3_63 N4_63 1_555 1_555
H3_63 C3_63 1_555 1_555
C4_63 N9_63 1_555 1_555
H4_63 C4_63 1_555 1_555
C5_63 N3_63 1_555 1_555
H5_63 C5_63 1_555 1_555
C6_60 N1_63 1_555 1_555
H6_63 C6_60 1_555 1_555
C7_63 N7_60 1_555 1_555
H7_63 C7_63 1_555 1_555
C8_63 N8_63 1_555 1_555
H8_63 C8_63 1_555 1_555
N12_60 N7_60 1_555 1_555
Cu4_29 N5_44 1_555 1_555
Cu6_8 N10_63 1_555 1_555
Cu5_8 N8_63 1_555 1_555
N15_63 Cu2_63 1_555 1_555
N16_63 Cu2_63 1_555 1_555
N3_63 N4_63 1_555 1_555
C2_60 N12_60 1_555 1_555
N9_63 C8_63 1_555 1_555
N11_63 C5_63 1_555 1_555
C6_60 N12_60 1_555 1_555
Cu3_5 N2_64 1_555 1_555
Cu2_64 N1_64 1_555 1_555
N1_64 N2_64 1_555 1_555
N2_64 C2_61 1_555 1_555
N3_64 Cu3_5 1_555 1_555
N4_64 Cu2_64 1_555 1_555
N13_6 N14_48 1_555 1_555
N14_48 C7_64 1_555 1_555
C1_64 N13_6 1_555 1_555
H1_64 C1_64 1_555 1_555
N7_61 C1_64 1_555 1_555
C2_61 H2_61 1_555 1_555
N8_64 N10_64 1_555 1_555
N9_64 N11_64 1_555 1_555
N10_64 C4_64 1_555 1_555
N11_64 C3_64 1_555 1_555
C3_64 N4_64 1_555 1_555
H3_64 C3_64 1_555 1_555
C4_64 N9_64 1_555 1_555
H4_64 C4_64 1_555 1_555
C5_64 N3_64 1_555 1_555
H5_64 C5_64 1_555 1_555
C6_61 N1_64 1_555 1_555
H6_64 C6_61 1_555 1_555
C7_64 N7_61 1_555 1_555
H7_64 C7_64 1_555 1_555
C8_64 N8_64 1_555 1_555
H8_64 C8_64 1_555 1_555
N12_61 N7_61 1_555 1_555
Cu5_44 N10_64 1_555 1_555
N15_64 Cu2_64 1_555 1_555
N16_64 Cu2_64 1_555 1_555
N3_64 N4_64 1_555 1_555
C2_61 N12_61 1_555 1_555
N9_64 C8_64 1_555 1_555
N11_64 C5_64 1_555 1_555
C6_61 N12_61 1_555 1_555
N5_45 N14_49 1_555 1_555
N14_49 C7_65 1_555 1_555
C1_65 N5_45 1_555 1_555
H1_65 C1_65 1_555 1_555
H7_65 C7_65 1_555 1_555
Cu4_30 N5_45 1_555 1_555
Cu3_13 N2_65 1_555 1_555
Cu2_65 N1_65 1_555 1_555
N1_65 N2_65 1_555 1_555
N2_65 C2_62 1_555 1_555
N3_65 Cu3_13 1_555 1_555
N4_65 Cu2_65 1_555 1_555
C2_62 H2_62 1_555 1_555
N8_65 N10_65 1_555 1_555
N9_65 N11_65 1_555 1_555
N10_65 C4_65 1_555 1_555
N11_65 C3_65 1_555 1_555
C3_65 N4_65 1_555 1_555
H3_65 C3_65 1_555 1_555
C4_65 N9_65 1_555 1_555
H4_65 C4_65 1_555 1_555
C5_65 N3_65 1_555 1_555
H5_65 C5_65 1_555 1_555
C6_62 N1_65 1_555 1_555
C8_65 N8_65 1_555 1_555
H8_65 C8_65 1_555 1_555
N12_62 N7_62 1_555 1_555
Cu6_35 N10_65 1_555 1_555
N16_65 Cu2_65 1_555 1_555
N3_65 N4_65 1_555 1_555
C2_62 N12_62 1_555 1_555
N9_65 C8_65 1_555 1_555
N11_65 C5_65 1_555 1_555
C6_62 N12_62 1_555 1_555
Cu4_2 N2_66 1_555 1_555
Cu2_66 N1_66 1_555 1_555
N1_66 N2_66 1_555 1_555
N2_66 C2_63 1_555 1_555
N3_66 Cu4_2 1_555 1_555
N4_66 Cu2_66 1_555 1_555
N13_43 N14_16 1_555 1_555
N14_16 C7_66 1_555 1_555
C1_66 N13_43 1_555 1_555
H1_66 C1_66 1_555 1_555
N7_63 C1_66 1_555 1_555
C2_63 H2_63 1_555 1_555
N8_66 N10_66 1_555 1_555
N9_66 N11_66 1_555 1_555
N10_66 C4_66 1_555 1_555
N11_66 C3_66 1_555 1_555
C3_66 N4_66 1_555 1_555
H3_66 C3_66 1_555 1_555
C4_66 N9_66 1_555 1_555
H4_66 C4_66 1_555 1_555
C5_66 N3_66 1_555 1_555
H5_66 C5_66 1_555 1_555
C6_63 N1_66 1_555 1_555
H6_66 C6_63 1_555 1_555
C7_66 N7_63 1_555 1_555
H7_66 C7_66 1_555 1_555
C8_66 N8_66 1_555 1_555
H8_66 C8_66 1_555 1_555
N12_63 N7_63 1_555 1_555
Cu5_45 N10_66 1_555 1_555
N15_66 Cu2_66 1_555 1_555
N16_66 Cu2_66 1_555 1_555
N3_66 N4_66 1_555 1_555
C2_63 N12_63 1_555 1_555
N9_66 C8_66 1_555 1_555
N11_66 C5_66 1_555 1_555
C6_63 N12_63 1_555 1_555
N13_30 N6_29 1_555 1_555
N6_29 C7_67 1_555 1_555
C1_67 N13_30 1_555 1_555
H1_67 C1_67 1_555 1_555
N7_64 C1_67 1_555 1_555
C2_64 H2_64 1_555 1_555
H6_67 C6_64 1_555 1_555
C7_67 N7_64 1_555 1_555
H7_67 C7_67 1_555 1_555
N12_64 N7_64 1_555 1_555
Cu3_16 N6_29 1_555 1_555
C2_64 N12_64 1_555 1_555
C6_64 N12_64 1_555 1_555
Cu1_45 N2_67 1_555 1_555
Cu2_67 N1_67 1_555 1_555
N1_67 N2_67 1_555 1_555
N3_67 Cu1_45 1_555 1_555
N4_67 Cu2_67 1_555 1_555
N8_67 N10_67 1_555 1_555
N9_67 N11_67 1_555 1_555
N10_67 C4_67 1_555 1_555
N11_67 C3_67 1_555 1_555
C3_67 N4_67 1_555 1_555
H3_67 C3_67 1_555 1_555
C4_67 N9_67 1_555 1_555
H4_67 C4_67 1_555 1_555
C5_67 N3_67 1_555 1_555
H5_67 C5_67 1_555 1_555
C8_67 N8_67 1_555 1_555
H8_67 C8_67 1_555 1_555
Cu6_23 N10_67 1_555 1_555
Cu5_23 N8_67 1_555 1_555
N13_45 Cu1_45 1_555 1_555
N14_53 Cu1_45 1_555 1_555
N15_67 Cu2_67 1_555 1_555
N16_67 Cu2_67 1_555 1_555
N3_67 N4_67 1_555 1_555
N9_67 C8_67 1_555 1_555
N11_67 C5_67 1_555 1_555
Cu4_18 N2_68 1_555 1_555
Cu2_68 N1_68 1_555 1_555
N1_68 N2_68 1_555 1_555
N2_68 C2_65 1_555 1_555
N3_68 Cu4_18 1_555 1_555
N4_68 Cu2_68 1_555 1_555
N5_46 N14_34 1_555 1_555
N14_34 C7_68 1_555 1_555
C1_68 N5_46 1_555 1_555
H1_68 C1_68 1_555 1_555
N7_65 C1_68 1_555 1_555
C2_65 H2_65 1_555 1_555
N8_68 N10_68 1_555 1_555
N9_68 N11_68 1_555 1_555
N10_68 C4_68 1_555 1_555
N11_68 C3_68 1_555 1_555
C3_68 N4_68 1_555 1_555
H3_68 C3_68 1_555 1_555
C4_68 N9_68 1_555 1_555
H4_68 C4_68 1_555 1_555
C5_68 N3_68 1_555 1_555
H5_68 C5_68 1_555 1_555
C6_65 N1_68 1_555 1_555
H6_68 C6_65 1_555 1_555
C7_68 N7_65 1_555 1_555
H7_68 C7_68 1_555 1_555
C8_68 N8_68 1_555 1_555
H8_68 C8_68 1_555 1_555
N12_65 N7_65 1_555 1_555
Cu3_16 N5_46 1_555 1_555
Cu6_32 N10_68 1_555 1_555
N15_68 Cu2_68 1_555 1_555
N16_68 Cu2_68 1_555 1_555
N3_68 N4_68 1_555 1_555
C2_65 N12_65 1_555 1_555
N9_68 C8_68 1_555 1_555
N11_68 C5_68 1_555 1_555
C6_65 N12_65 1_555 1_555
Cu3_15 N2_69 1_555 1_555
Cu2_69 N1_69 1_555 1_555
N1_69 N2_69 1_555 1_555
N2_69 C2_66 1_555 1_555
N3_69 Cu3_15 1_555 1_555
N4_69 Cu2_69 1_555 1_555
N13_16 N14_51 1_555 1_555
N14_51 C7_69 1_555 1_555
C1_69 N13_16 1_555 1_555
H1_69 C1_69 1_555 1_555
N7_66 C1_69 1_555 1_555
C2_66 H2_66 1_555 1_555
N8_69 N10_69 1_555 1_555
N9_69 N11_69 1_555 1_555
N10_69 C4_69 1_555 1_555
N11_69 C3_69 1_555 1_555
C3_69 N4_69 1_555 1_555
H3_69 C3_69 1_555 1_555
C4_69 N9_69 1_555 1_555
H4_69 C4_69 1_555 1_555
C5_69 N3_69 1_555 1_555
H5_69 C5_69 1_555 1_555
C6_66 N1_69 1_555 1_555
H6_69 C6_66 1_555 1_555
C7_69 N7_66 1_555 1_555
H7_69 C7_69 1_555 1_555
C8_69 N8_69 1_555 1_555
H8_69 C8_69 1_555 1_555
N12_66 N7_66 1_555 1_555
Cu5_46 N10_69 1_555 1_555
Cu6_46 N8_69 1_555 1_555
N15_69 Cu2_69 1_555 1_555
N16_69 Cu2_69 1_555 1_555
N3_69 N4_69 1_555 1_555
C2_66 N12_66 1_555 1_555
N9_69 C8_69 1_555 1_555
N11_69 C5_69 1_555 1_555
C6_66 N12_66 1_555 1_555
N13_41 N6_30 1_555 1_555
N6_30 C7_70 1_555 1_555
C1_70 N13_41 1_555 1_555
H1_70 C1_70 1_555 1_555
H7_70 C7_70 1_555 1_555
Cu4_30 N6_30 1_555 1_555
Cu1_46 N2_70 1_555 1_555
Cu2_70 N1_70 1_555 1_555
N1_70 N2_70 1_555 1_555
N2_70 C2_67 1_555 1_555
N3_70 Cu1_46 1_555 1_555
N4_70 Cu2_70 1_555 1_555
C2_67 H2_67 1_555 1_555
N8_70 N10_70 1_555 1_555
N9_70 N11_70 1_555 1_555
N10_70 C4_70 1_555 1_555
N11_70 C3_70 1_555 1_555
C3_70 N4_70 1_555 1_555
H3_70 C3_70 1_555 1_555
C4_70 N9_70 1_555 1_555
H4_70 C4_70 1_555 1_555
C5_70 N3_70 1_555 1_555
H5_70 C5_70 1_555 1_555
C6_67 N1_70 1_555 1_555
C8_70 N8_70 1_555 1_555
H8_70 C8_70 1_555 1_555
N12_67 N7_67 1_555 1_555
Cu5_47 N10_70 1_555 1_555
Cu6_47 N8_70 1_555 1_555
N13_46 Cu1_46 1_555 1_555
N14_54 Cu1_46 1_555 1_555
N16_70 Cu2_70 1_555 1_555
N3_70 N4_70 1_555 1_555
C2_67 N12_67 1_555 1_555
N9_70 C8_70 1_555 1_555
N11_70 C5_70 1_555 1_555
C6_67 N12_67 1_555 1_555
Cu3_3 N2_71 1_555 1_555
Cu2_71 N1_71 1_555 1_555
N1_71 N2_71 1_555 1_555
N2_71 C2_68 1_555 1_555
N3_71 Cu3_3 1_555 1_555
N4_71 Cu2_71 1_555 1_555
N13_31 N14_11 1_555 1_555
N14_11 C7_71 1_555 1_555
C1_71 N13_31 1_555 1_555
H1_71 C1_71 1_555 1_555
N7_68 C1_71 1_555 1_555
C2_68 H2_68 1_555 1_555
N8_71 N10_71 1_555 1_555
N9_71 N11_71 1_555 1_555
N10_71 C4_71 1_555 1_555
N11_71 C3_71 1_555 1_555
C3_71 N4_71 1_555 1_555
H3_71 C3_71 1_555 1_555
C4_71 N9_71 1_555 1_555
H4_71 C4_71 1_555 1_555
C5_71 N3_71 1_555 1_555
H5_71 C5_71 1_555 1_555
C6_68 N1_71 1_555 1_555
H6_71 C6_68 1_555 1_555
C7_71 N7_68 1_555 1_555
H7_71 C7_71 1_555 1_555
C8_71 N8_71 1_555 1_555
H8_71 C8_71 1_555 1_555
N12_68 N7_68 1_555 1_555
Cu6_45 N10_71 1_555 1_555
N15_71 Cu2_71 1_555 1_555
N16_71 Cu2_71 1_555 1_555
N3_71 N4_71 1_555 1_555
C2_68 N12_68 1_555 1_555
N9_71 C8_71 1_555 1_555
N11_71 C5_71 1_555 1_555
C6_68 N12_68 1_555 1_555
Cu4_16 N2_72 1_555 1_555
Cu2_72 N1_72 1_555 1_555
N1_72 N2_72 1_555 1_555
N3_72 Cu4_16 1_555 1_555
N4_72 Cu2_72 1_555 1_555
N8_72 N10_72 1_555 1_555
N9_72 N11_72 1_555 1_555
N10_72 C4_72 1_555 1_555
N11_72 C3_72 1_555 1_555
C3_72 N4_72 1_555 1_555
H3_72 C3_72 1_555 1_555
C4_72 N9_72 1_555 1_555
H4_72 C4_72 1_555 1_555
C5_72 N3_72 1_555 1_555
H5_72 C5_72 1_555 1_555
C8_72 N8_72 1_555 1_555
H8_72 C8_72 1_555 1_555
Cu6_19 N10_72 1_555 1_555
Cu5_19 N8_72 1_555 1_555
N15_72 Cu2_72 1_555 1_555
N16_72 Cu2_72 1_555 1_555
N3_72 N4_72 1_555 1_555
N9_72 C8_72 1_555 1_555
N11_72 C5_72 1_555 1_555
N13_11 N14_35 1_555 1_555
N14_35 C7_72 1_555 1_555
C1_72 N13_11 1_555 1_555
H1_72 C1_72 1_555 1_555
N7_69 C1_72 1_555 1_555
C2_69 H2_69 1_555 1_555
H6_72 C6_69 1_555 1_555
C7_72 N7_69 1_555 1_555
H7_72 C7_72 1_555 1_555
N12_69 N7_69 1_555 1_555
C2_69 N12_69 1_555 1_555
C6_69 N12_69 1_555 1_555
N13_22 N6_31 1_555 1_555
N6_31 C7_73 1_555 1_555
C1_73 N13_22 1_555 1_555
H1_73 C1_73 1_555 1_555
H7_73 C7_73 1_555 1_555
Cu3_17 N6_31 1_555 1_555
Cu4_27 N2_73 1_555 1_555
Cu2_73 N1_73 1_555 1_555
N1_73 N2_73 1_555 1_555
N2_73 C2_70 1_555 1_555
N3_73 Cu4_27 1_555 1_555
N4_73 Cu2_73 1_555 1_555
C2_70 H2_70 1_555 1_555
N8_73 N10_73 1_555 1_555
N9_73 N11_73 1_555 1_555
N10_73 C4_73 1_555 1_555
N11_73 C3_73 1_555 1_555
C3_73 N4_73 1_555 1_555
H3_73 C3_73 1_555 1_555
C4_73 N9_73 1_555 1_555
H4_73 C4_73 1_555 1_555
C5_73 N3_73 1_555 1_555
H5_73 C5_73 1_555 1_555
C6_70 N1_73 1_555 1_555
C8_73 N8_73 1_555 1_555
H8_73 C8_73 1_555 1_555
N12_70 N7_70 1_555 1_555
Cu6_41 N10_73 1_555 1_555
N14_55 Cu4_27 1_555 1_555
N16_73 Cu2_73 1_555 1_555
N3_73 N4_73 1_555 1_555
C2_70 N12_70 1_555 1_555
N9_73 C8_73 1_555 1_555
N11_73 C5_73 1_555 1_555
C6_70 N12_70 1_555 1_555
Cu4_20 N2_74 1_555 1_555
Cu2_74 N1_74 1_555 1_555
N1_74 N2_74 1_555 1_555
N2_74 C2_71 1_555 1_555
N3_74 Cu4_20 1_555 1_555
N4_74 Cu2_74 1_555 1_555
C2_71 H2_71 1_555 1_555
N8_74 N10_74 1_555 1_555
N9_74 N11_74 1_555 1_555
N10_74 C4_74 1_555 1_555
N11_74 C3_74 1_555 1_555
C3_74 N4_74 1_555 1_555
H3_74 C3_74 1_555 1_555
C4_74 N9_74 1_555 1_555
H4_74 C4_74 1_555 1_555
C5_74 N3_74 1_555 1_555
H5_74 C5_74 1_555 1_555
C6_71 N1_74 1_555 1_555
C8_74 N8_74 1_555 1_555
H8_74 C8_74 1_555 1_555
N12_71 N7_71 1_555 1_555
Cu6_29 N10_74 1_555 1_555
Cu5_29 N8_74 1_555 1_555
N14_56 Cu4_20 1_555 1_555
N16_74 Cu2_74 1_555 1_555
N3_74 N4_74 1_555 1_555
C2_71 N12_71 1_555 1_555
N9_74 C8_74 1_555 1_555
N11_74 C5_74 1_555 1_555
C6_71 N12_71 1_555 1_555
N13_33 N14_53 1_555 1_555
N14_53 C7_74 1_555 1_555
C1_74 N13_33 1_555 1_555
H1_74 C1_74 1_555 1_555
H7_74 C7_74 1_555 1_555
Cu4_26 N2_75 1_555 1_555
Cu2_75 N1_75 1_555 1_555
N1_75 N2_75 1_555 1_555
N3_75 Cu4_26 1_555 1_555
N4_75 Cu2_75 1_555 1_555
N8_75 N10_75 1_555 1_555
N9_75 N11_75 1_555 1_555
N10_75 C4_75 1_555 1_555
N11_75 C3_75 1_555 1_555
C3_75 N4_75 1_555 1_555
H3_75 C3_75 1_555 1_555
C4_75 N9_75 1_555 1_555
H4_75 C4_75 1_555 1_555
C5_75 N3_75 1_555 1_555
H5_75 C5_75 1_555 1_555
C8_75 N8_75 1_555 1_555
H8_75 C8_75 1_555 1_555
Cu6_42 N10_75 1_555 1_555
Cu5_42 N8_75 1_555 1_555
N14_57 Cu4_26 1_555 1_555
N15_75 Cu2_75 1_555 1_555
N16_75 Cu2_75 1_555 1_555
N3_75 N4_75 1_555 1_555
N9_75 C8_75 1_555 1_555
N11_75 C5_75 1_555 1_555
N13_46 N14_39 1_555 1_555
N14_39 C7_75 1_555 1_555
C1_75 N13_46 1_555 1_555
H1_75 C1_75 1_555 1_555
N7_72 C1_75 1_555 1_555
C2_72 H2_72 1_555 1_555
H6_75 C6_72 1_555 1_555
C7_75 N7_72 1_555 1_555
H7_75 C7_75 1_555 1_555
N12_72 N7_72 1_555 1_555
C2_72 N12_72 1_555 1_555
C6_72 N12_72 1_555 1_555
Cu4_19 N2_76 1_555 1_555
Cu2_76 N1_76 1_555 1_555
N1_76 N2_76 1_555 1_555
N2_76 C2_73 1_555 1_555
N3_76 Cu4_19 1_555 1_555
N4_76 Cu2_76 1_555 1_555
N13_19 N6_32 1_555 1_555
N6_32 C7_76 1_555 1_555
C1_76 N13_19 1_555 1_555
H1_76 C1_76 1_555 1_555
N7_73 C1_76 1_555 1_555
C2_73 H2_73 1_555 1_555
N8_76 N10_76 1_555 1_555
N9_76 N11_76 1_555 1_555
N10_76 C4_76 1_555 1_555
N11_76 C3_76 1_555 1_555
C3_76 N4_76 1_555 1_555
H3_76 C3_76 1_555 1_555
C4_76 N9_76 1_555 1_555
H4_76 C4_76 1_555 1_555
C5_76 N3_76 1_555 1_555
H5_76 C5_76 1_555 1_555
C6_73 N1_76 1_555 1_555
H6_76 C6_73 1_555 1_555
C7_76 N7_73 1_555 1_555
H7_76 C7_76 1_555 1_555
C8_76 N8_76 1_555 1_555
H8_76 C8_76 1_555 1_555
N12_73 N7_73 1_555 1_555
Cu3_18 N6_32 1_555 1_555
Cu6_28 N10_76 1_555 1_555
N14_58 Cu4_19 1_555 1_555
N15_76 Cu2_76 1_555 1_555
N16_76 Cu2_76 1_555 1_555
N3_76 N4_76 1_555 1_555
C2_73 N12_73 1_555 1_555
N9_76 C8_76 1_555 1_555
N11_76 C5_76 1_555 1_555
C6_73 N12_73 1_555 1_555
Cu4_29 N2_77 1_555 1_555
Cu2_77 N1_77 1_555 1_555
N1_77 N2_77 1_555 1_555
N2_77 C2_74 1_555 1_555
N3_77 Cu4_29 1_555 1_555
N4_77 Cu2_77 1_555 1_555
N13_35 N14_54 1_555 1_555
N14_54 C7_77 1_555 1_555
C1_77 N13_35 1_555 1_555
H1_77 C1_77 1_555 1_555
N7_74 C1_77 1_555 1_555
C2_74 H2_74 1_555 1_555
N8_77 N10_77 1_555 1_555
N9_77 N11_77 1_555 1_555
N10_77 C4_77 1_555 1_555
N11_77 C3_77 1_555 1_555
C3_77 N4_77 1_555 1_555
H3_77 C3_77 1_555 1_555
C4_77 N9_77 1_555 1_555
H4_77 C4_77 1_555 1_555
C5_77 N3_77 1_555 1_555
H5_77 C5_77 1_555 1_555
C6_74 N1_77 1_555 1_555
H6_77 C6_74 1_555 1_555
C7_77 N7_74 1_555 1_555
H7_77 C7_77 1_555 1_555
C8_77 N8_77 1_555 1_555
H8_77 C8_77 1_555 1_555
N12_74 N7_74 1_555 1_555
Cu6_44 N10_77 1_555 1_555
N14_59 Cu4_29 1_555 1_555
N15_77 Cu2_77 1_555 1_555
N16_77 Cu2_77 1_555 1_555
N3_77 N4_77 1_555 1_555
C2_74 N12_74 1_555 1_555
N9_77 C8_77 1_555 1_555
N11_77 C5_77 1_555 1_555
C6_74 N12_74 1_555 1_555
Cu4_22 N2_78 1_555 1_555
Cu2_78 N1_78 1_555 1_555
N1_78 N2_78 1_555 1_555
N2_78 C2_75 1_555 1_555
N3_78 Cu4_22 1_555 1_555
N4_78 Cu2_78 1_555 1_555
N5_47 N14_19 1_555 1_555
N14_19 C7_78 1_555 1_555
C1_78 N5_47 1_555 1_555
H1_78 C1_78 1_555 1_555
N7_75 C1_78 1_555 1_555
C2_75 H2_75 1_555 1_555
N8_78 N10_78 1_555 1_555
N9_78 N11_78 1_555 1_555
N10_78 C4_78 1_555 1_555
N11_78 C3_78 1_555 1_555
C3_78 N4_78 1_555 1_555
H3_78 C3_78 1_555 1_555
C4_78 N9_78 1_555 1_555
H4_78 C4_78 1_555 1_555
C5_78 N3_78 1_555 1_555
H5_78 C5_78 1_555 1_555
C6_75 N1_78 1_555 1_555
H6_78 C6_75 1_555 1_555
C7_78 N7_75 1_555 1_555
H7_78 C7_78 1_555 1_555
C8_78 N8_78 1_555 1_555
H8_78 C8_78 1_555 1_555
N12_75 N7_75 1_555 1_555
Cu3_18 N5_47 1_555 1_555
Cu6_30 N10_78 1_555 1_555
Cu5_30 N8_78 1_555 1_555
N14_60 Cu4_22 1_555 1_555
N15_78 Cu2_78 1_555 1_555
N16_78 Cu2_78 1_555 1_555
N3_78 N4_78 1_555 1_555
C2_75 N12_75 1_555 1_555
N9_78 C8_78 1_555 1_555
N11_78 C5_78 1_555 1_555
C6_75 N12_75 1_555 1_555
N5_48 N14_22 1_555 1_555
N14_22 C7_79 1_555 1_555
C1_79 N5_48 1_555 1_555
H1_79 C1_79 1_555 1_555
H7_79 C7_79 1_555 1_555
Cu3_17 N5_48 1_555 1_555
Cu4_28 N2_79 1_555 1_555
Cu2_79 N1_79 1_555 1_555
N1_79 N2_79 1_555 1_555
N2_79 C2_76 1_555 1_555
N3_79 Cu4_28 1_555 1_555
N4_79 Cu2_79 1_555 1_555
C2_76 H2_76 1_555 1_555
N8_79 N10_79 1_555 1_555
N9_79 N11_79 1_555 1_555
N10_79 C4_79 1_555 1_555
N11_79 C3_79 1_555 1_555
C3_79 N4_79 1_555 1_555
H3_79 C3_79 1_555 1_555
C4_79 N9_79 1_555 1_555
H4_79 C4_79 1_555 1_555
C5_79 N3_79 1_555 1_555
H5_79 C5_79 1_555 1_555
C6_76 N1_79 1_555 1_555
C8_79 N8_79 1_555 1_555
H8_79 C8_79 1_555 1_555
N12_76 N7_76 1_555 1_555
Cu6_43 N10_79 1_555 1_555
Cu5_43 N8_79 1_555 1_555
N14_61 Cu4_28 1_555 1_555
N16_79 Cu2_79 1_555 1_555
N3_79 N4_79 1_555 1_555
C2_76 N12_76 1_555 1_555
N9_79 C8_79 1_555 1_555
N11_79 C5_79 1_555 1_555
C6_76 N12_76 1_555 1_555
Cu4_21 N2_80 1_555 1_555
Cu2_80 N1_80 1_555 1_555
N1_80 N2_80 1_555 1_555
N3_80 Cu4_21 1_555 1_555
N4_80 Cu2_80 1_555 1_555
N8_80 N10_80 1_555 1_555
N9_80 N11_80 1_555 1_555
N10_80 C4_80 1_555 1_555
N11_80 C3_80 1_555 1_555
C3_80 N4_80 1_555 1_555
H3_80 C3_80 1_555 1_555
C4_80 N9_80 1_555 1_555
H4_80 C4_80 1_555 1_555
C5_80 N3_80 1_555 1_555
H5_80 C5_80 1_555 1_555
C8_80 N8_80 1_555 1_555
H8_80 C8_80 1_555 1_555
Cu6_31 N10_80 1_555 1_555
N14_62 Cu4_21 1_555 1_555
N16_80 Cu2_80 1_555 1_555
N3_80 N4_80 1_555 1_555
N9_80 C8_80 1_555 1_555
N11_80 C5_80 1_555 1_555
N13_45 N14_37 1_555 1_555
N14_37 C7_80 1_555 1_555
C1_80 N13_45 1_555 1_555
H1_80 C1_80 1_555 1_555
H7_80 C7_80 1_555 1_555
Cu1_47 N2_81 1_555 1_555
Cu2_81 N1_81 1_555 1_555
N1_81 N2_81 1_555 1_555
N3_81 Cu1_47 1_555 1_555
N4_81 Cu2_81 1_555 1_555
N8_81 N10_81 1_555 1_555
N9_81 N11_81 1_555 1_555
N10_81 C4_81 1_555 1_555
N11_81 C3_81 1_555 1_555
C3_81 N4_81 1_555 1_555
H3_81 C3_81 1_555 1_555
C4_81 N9_81 1_555 1_555
H4_81 C4_81 1_555 1_555
C5_81 N3_81 1_555 1_555
H5_81 C5_81 1_555 1_555
C8_81 N8_81 1_555 1_555
H8_81 C8_81 1_555 1_555
Cu6_25 N10_81 1_555 1_555
N13_47 Cu1_47 1_555 1_555
N14_63 Cu1_47 1_555 1_555
N15_81 Cu2_81 1_555 1_555
N16_81 Cu2_81 1_555 1_555
N3_81 N4_81 1_555 1_555
N9_81 C8_81 1_555 1_555
N11_81 C5_81 1_555 1_555
N13_38 N14_55 1_555 1_555
N14_55 C7_81 1_555 1_555
C1_81 N13_38 1_555 1_555
H1_81 C1_81 1_555 1_555
N7_77 C1_81 1_555 1_555
C2_77 H2_77 1_555 1_555
H6_81 C6_77 1_555 1_555
C7_81 N7_77 1_555 1_555
H7_81 C7_81 1_555 1_555
N12_77 N7_77 1_555 1_555
C2_77 N12_77 1_555 1_555
C6_77 N12_77 1_555 1_555
Cu3_16 N2_82 1_555 1_555
Cu2_82 N1_82 1_555 1_555
N1_82 N2_82 1_555 1_555
N2_82 C2_78 1_555 1_555
N3_82 Cu3_16 1_555 1_555
N4_82 Cu2_82 1_555 1_555
N13_24 N14_56 1_555 1_555
N14_56 C7_82 1_555 1_555
C1_82 N13_24 1_555 1_555
H1_82 C1_82 1_555 1_555
N7_78 C1_82 1_555 1_555
C2_78 H2_78 1_555 1_555
N8_82 N10_82 1_555 1_555
N9_82 N11_82 1_555 1_555
N10_82 C4_82 1_555 1_555
N11_82 C3_82 1_555 1_555
C3_82 N4_82 1_555 1_555
H3_82 C3_82 1_555 1_555
C4_82 N9_82 1_555 1_555
H4_82 C4_82 1_555 1_555
C5_82 N3_82 1_555 1_555
H5_82 C5_82 1_555 1_555
C6_78 N1_82 1_555 1_555
H6_82 C6_78 1_555 1_555
C7_82 N7_78 1_555 1_555
H7_82 C7_82 1_555 1_555
C8_82 N8_82 1_555 1_555
H8_82 C8_82 1_555 1_555
N12_78 N7_78 1_555 1_555
Cu6_37 N10_82 1_555 1_555
N15_82 Cu2_82 1_555 1_555
N16_82 Cu2_82 1_555 1_555
N3_82 N4_82 1_555 1_555
C2_78 N12_78 1_555 1_555
N9_82 C8_82 1_555 1_555
N11_82 C5_82 1_555 1_555
C6_78 N12_78 1_555 1_555
N13_37 N14_57 1_555 1_555
N14_57 C7_83 1_555 1_555
C1_83 N13_37 1_555 1_555
H1_83 C1_83 1_555 1_555
H7_83 C7_83 1_555 1_555
Cu3_12 N2_83 1_555 1_555
Cu2_83 N1_83 1_555 1_555
N1_83 N2_83 1_555 1_555
N2_83 C2_79 1_555 1_555
N3_83 Cu3_12 1_555 1_555
N4_83 Cu2_83 1_555 1_555
C2_79 H2_79 1_555 1_555
N8_83 N10_83 1_555 1_555
N9_83 N11_83 1_555 1_555
N10_83 C4_83 1_555 1_555
N11_83 C3_83 1_555 1_555
C3_83 N4_83 1_555 1_555
H3_83 C3_83 1_555 1_555
C4_83 N9_83 1_555 1_555
H4_83 C4_83 1_555 1_555
C5_83 N3_83 1_555 1_555
H5_83 C5_83 1_555 1_555
C6_79 N1_83 1_555 1_555
C8_83 N8_83 1_555 1_555
H8_83 C8_83 1_555 1_555
N12_79 N7_79 1_555 1_555
Cu6_24 N10_83 1_555 1_555
Cu5_24 N8_83 1_555 1_555
N16_83 Cu2_83 1_555 1_555
N3_83 N4_83 1_555 1_555
C2_79 N12_79 1_555 1_555
N9_83 C8_83 1_555 1_555
N11_83 C5_83 1_555 1_555
C6_79 N12_79 1_555 1_555
N13_23 N14_58 1_555 1_555
N14_58 C7_84 1_555 1_555
C1_84 N13_23 1_555 1_555
H1_84 C1_84 1_555 1_555
N7_80 C1_84 1_555 1_555
C2_80 H2_80 1_555 1_555
H6_84 C6_80 1_555 1_555
C7_84 N7_80 1_555 1_555
H7_84 C7_84 1_555 1_555
N12_80 N7_80 1_555 1_555
C2_80 N12_80 1_555 1_555
C6_80 N12_80 1_555 1_555
Cu1_48 N2_84 1_555 1_555
Cu2_84 N1_84 1_555 1_555
N1_84 N2_84 1_555 1_555
N3_84 Cu1_48 1_555 1_555
N4_84 Cu2_84 1_555 1_555
N8_84 N10_84 1_555 1_555
N9_84 N11_84 1_555 1_555
N10_84 C4_84 1_555 1_555
N11_84 C3_84 1_555 1_555
C3_84 N4_84 1_555 1_555
H3_84 C3_84 1_555 1_555
C4_84 N9_84 1_555 1_555
H4_84 C4_84 1_555 1_555
C5_84 N3_84 1_555 1_555
H5_84 C5_84 1_555 1_555
C8_84 N8_84 1_555 1_555
H8_84 C8_84 1_555 1_555
Cu6_38 N10_84 1_555 1_555
Cu5_38 N8_84 1_555 1_555
N13_48 Cu1_48 1_555 1_555
N14_64 Cu1_48 1_555 1_555
N15_84 Cu2_84 1_555 1_555
N16_84 Cu2_84 1_555 1_555
N3_84 N4_84 1_555 1_555
N9_84 C8_84 1_555 1_555
N11_84 C5_84 1_555 1_555
Cu4_30 N2_85 1_555 1_555
Cu2_85 N1_85 1_555 1_555
N1_85 N2_85 1_555 1_555
N3_85 Cu4_30 1_555 1_555
N4_85 Cu2_85 1_555 1_555
N8_85 N10_85 1_555 1_555
N9_85 N11_85 1_555 1_555
N10_85 C4_85 1_555 1_555
N11_85 C3_85 1_555 1_555
C3_85 N4_85 1_555 1_555
H3_85 C3_85 1_555 1_555
C4_85 N9_85 1_555 1_555
H4_85 C4_85 1_555 1_555
C5_85 N3_85 1_555 1_555
H5_85 C5_85 1_555 1_555
C8_85 N8_85 1_555 1_555
H8_85 C8_85 1_555 1_555
Cu6_26 N10_85 1_555 1_555
Cu5_26 N8_85 1_555 1_555
N15_85 Cu2_85 1_555 1_555
N16_85 Cu2_85 1_555 1_555
N3_85 N4_85 1_555 1_555
N9_85 C8_85 1_555 1_555
N11_85 C5_85 1_555 1_555
N13_40 N14_59 1_555 1_555
N14_59 C7_85 1_555 1_555
C1_85 N13_40 1_555 1_555
H1_85 C1_85 1_555 1_555
N7_81 C1_85 1_555 1_555
C2_81 H2_81 1_555 1_555
H6_85 C6_81 1_555 1_555
C7_85 N7_81 1_555 1_555
H7_85 C7_85 1_555 1_555
N12_81 N7_81 1_555 1_555
C2_81 N12_81 1_555 1_555
C6_81 N12_81 1_555 1_555
Cu4_14 N2_86 1_555 1_555
Cu2_86 N1_86 1_555 1_555
N1_86 N2_86 1_555 1_555
N2_86 C2_82 1_555 1_555
N3_86 Cu4_14 1_555 1_555
N4_86 Cu2_86 1_555 1_555
N13_26 N14_60 1_555 1_555
N14_60 C7_86 1_555 1_555
C1_86 N13_26 1_555 1_555
H1_86 C1_86 1_555 1_555
N7_82 C1_86 1_555 1_555
C2_82 H2_82 1_555 1_555
N8_86 N10_86 1_555 1_555
N9_86 N11_86 1_555 1_555
N10_86 C4_86 1_555 1_555
N11_86 C3_86 1_555 1_555
C3_86 N4_86 1_555 1_555
H3_86 C3_86 1_555 1_555
C4_86 N9_86 1_555 1_555
H4_86 C4_86 1_555 1_555
C5_86 N3_86 1_555 1_555
H5_86 C5_86 1_555 1_555
C6_82 N1_86 1_555 1_555
H6_86 C6_82 1_555 1_555
C7_86 N7_82 1_555 1_555
H7_86 C7_86 1_555 1_555
C8_86 N8_86 1_555 1_555
H8_86 C8_86 1_555 1_555
N12_82 N7_82 1_555 1_555
Cu6_40 N10_86 1_555 1_555
Cu5_40 N8_86 1_555 1_555
N15_86 Cu2_86 1_555 1_555
N16_86 Cu2_86 1_555 1_555
N3_86 N4_86 1_555 1_555
C2_82 N12_82 1_555 1_555
N9_86 C8_86 1_555 1_555
N11_86 C5_86 1_555 1_555
C6_82 N12_82 1_555 1_555
Cu4_15 N2_87 1_555 1_555
Cu2_87 N1_87 1_555 1_555
N1_87 N2_87 1_555 1_555
N2_87 C2_83 1_555 1_555
N3_87 Cu4_15 1_555 1_555
N4_87 Cu2_87 1_555 1_555
N13_39 N14_61 1_555 1_555
N14_61 C7_87 1_555 1_555
C1_87 N13_39 1_555 1_555
H1_87 C1_87 1_555 1_555
N7_83 C1_87 1_555 1_555
C2_83 H2_83 1_555 1_555
N8_87 N10_87 1_555 1_555
N9_87 N11_87 1_555 1_555
N10_87 C4_87 1_555 1_555
N11_87 C3_87 1_555 1_555
C3_87 N4_87 1_555 1_555
H3_87 C3_87 1_555 1_555
C4_87 N9_87 1_555 1_555
H4_87 C4_87 1_555 1_555
C5_87 N3_87 1_555 1_555
H5_87 C5_87 1_555 1_555
C6_83 N1_87 1_555 1_555
H6_87 C6_83 1_555 1_555
C7_87 N7_83 1_555 1_555
H7_87 C7_87 1_555 1_555
C8_87 N8_87 1_555 1_555
H8_87 C8_87 1_555 1_555
N12_83 N7_83 1_555 1_555
Cu6_27 N10_87 1_555 1_555
N15_87 Cu2_87 1_555 1_555
N16_87 Cu2_87 1_555 1_555
N3_87 N4_87 1_555 1_555
C2_83 N12_83 1_555 1_555
N9_87 C8_87 1_555 1_555
N11_87 C5_87 1_555 1_555
C6_83 N12_83 1_555 1_555
N13_25 N14_62 1_555 1_555
N14_62 C7_88 1_555 1_555
C1_88 N13_25 1_555 1_555
H1_88 C1_88 1_555 1_555
H7_88 C7_88 1_555 1_555
Cu3_11 N2_88 1_555 1_555
Cu2_88 N1_88 1_555 1_555
N1_88 N2_88 1_555 1_555
N3_88 Cu3_11 1_555 1_555
N4_88 Cu2_88 1_555 1_555
N8_88 N10_88 1_555 1_555
N9_88 N11_88 1_555 1_555
N10_88 C4_88 1_555 1_555
N11_88 C3_88 1_555 1_555
C3_88 N4_88 1_555 1_555
H3_88 C3_88 1_555 1_555
C4_88 N9_88 1_555 1_555
H4_88 C4_88 1_555 1_555
C5_88 N3_88 1_555 1_555
H5_88 C5_88 1_555 1_555
C8_88 N8_88 1_555 1_555
H8_88 C8_88 1_555 1_555
Cu6_39 N10_88 1_555 1_555
N16_88 Cu2_88 1_555 1_555
N3_88 N4_88 1_555 1_555
N9_88 C8_88 1_555 1_555
N11_88 C5_88 1_555 1_555
N13_44 N14_63 1_555 1_555
N14_63 C7_89 1_555 1_555
C1_89 N13_44 1_555 1_555
H1_89 C1_89 1_555 1_555
H7_89 C7_89 1_555 1_555
Cu3_17 N2_89 1_555 1_555
Cu2_89 N1_89 1_555 1_555
N1_89 N2_89 1_555 1_555
N3_89 Cu3_17 1_555 1_555
N4_89 Cu2_89 1_555 1_555
N8_89 N10_89 1_555 1_555
N9_89 N11_89 1_555 1_555
N10_89 C4_89 1_555 1_555
N11_89 C3_89 1_555 1_555
C3_89 N4_89 1_555 1_555
H3_89 C3_89 1_555 1_555
C4_89 N9_89 1_555 1_555
H4_89 C4_89 1_555 1_555
C5_89 N3_89 1_555 1_555
H5_89 C5_89 1_555 1_555
C8_89 N8_89 1_555 1_555
H8_89 C8_89 1_555 1_555
Cu6_20 N10_89 1_555 1_555
Cu5_20 N8_89 1_555 1_555
N16_89 Cu2_89 1_555 1_555
N3_89 N4_89 1_555 1_555
N9_89 C8_89 1_555 1_555
N11_89 C5_89 1_555 1_555
Cu4_17 N2_90 1_555 1_555
Cu2_90 N1_90 1_555 1_555
N1_90 N2_90 1_555 1_555
N2_90 C2_84 1_555 1_555
N3_90 Cu4_17 1_555 1_555
N4_90 Cu2_90 1_555 1_555
C2_84 H2_84 1_555 1_555
N8_90 N10_90 1_555 1_555
N9_90 N11_90 1_555 1_555
N10_90 C4_90 1_555 1_555
N11_90 C3_90 1_555 1_555
C3_90 N4_90 1_555 1_555
H3_90 C3_90 1_555 1_555
C4_90 N9_90 1_555 1_555
H4_90 C4_90 1_555 1_555
C5_90 N3_90 1_555 1_555
H5_90 C5_90 1_555 1_555
C6_84 N1_90 1_555 1_555
C8_90 N8_90 1_555 1_555
H8_90 C8_90 1_555 1_555
N12_84 N7_84 1_555 1_555
Cu5_48 N10_90 1_555 1_555
Cu6_48 N8_90 1_555 1_555
N16_90 Cu2_90 1_555 1_555
N3_90 N4_90 1_555 1_555
C2_84 N12_84 1_555 1_555
N9_90 C8_90 1_555 1_555
N11_90 C5_90 1_555 1_555
C6_84 N12_84 1_555 1_555
N13_48 N14_36 1_555 1_555
N14_36 C7_90 1_555 1_555
C1_90 N13_48 1_555 1_555
H1_90 C1_90 1_555 1_555
H7_90 C7_90 1_555 1_555
N13_14 N14_50 1_555 1_555
N14_50 C7_91 1_555 1_555
C1_91 N13_14 1_555 1_555
H1_91 C1_91 1_555 1_555
N7_85 C1_91 1_555 1_555
C2_85 H2_85 1_555 1_555
H6_91 C6_85 1_555 1_555
C7_91 N7_85 1_555 1_555
H7_91 C7_91 1_555 1_555
N12_85 N7_85 1_555 1_555
C2_85 N12_85 1_555 1_555
C6_85 N12_85 1_555 1_555
Cu3_14 N2_91 1_555 1_555
Cu2_91 N1_91 1_555 1_555
N1_91 N2_91 1_555 1_555
N3_91 Cu3_14 1_555 1_555
N4_91 Cu2_91 1_555 1_555
N8_91 N10_91 1_555 1_555
N9_91 N11_91 1_555 1_555
N10_91 C4_91 1_555 1_555
N11_91 C3_91 1_555 1_555
C3_91 N4_91 1_555 1_555
H3_91 C3_91 1_555 1_555
C4_91 N9_91 1_555 1_555
H4_91 C4_91 1_555 1_555
C5_91 N3_91 1_555 1_555
H5_91 C5_91 1_555 1_555
C8_91 N8_91 1_555 1_555
H8_91 C8_91 1_555 1_555
Cu6_36 N10_91 1_555 1_555
Cu5_36 N8_91 1_555 1_555
N15_91 Cu2_91 1_555 1_555
N16_91 Cu2_91 1_555 1_555
N3_91 N4_91 1_555 1_555
N9_91 C8_91 1_555 1_555
N11_91 C5_91 1_555 1_555
Cu4_4 N2_92 1_555 1_555
Cu2_92 N1_92 1_555 1_555
N1_92 N2_92 1_555 1_555
N2_92 C2_86 1_555 1_555
N3_92 Cu4_4 1_555 1_555
N4_92 Cu2_92 1_555 1_555
N13_42 N14_14 1_555 1_555
N14_14 C7_92 1_555 1_555
C1_92 N13_42 1_555 1_555
H1_92 C1_92 1_555 1_555
N7_86 C1_92 1_555 1_555
C2_86 H2_86 1_555 1_555
N8_92 N10_92 1_555 1_555
N9_92 N11_92 1_555 1_555
N10_92 C4_92 1_555 1_555
N11_92 C3_92 1_555 1_555
C3_92 N4_92 1_555 1_555
H3_92 C3_92 1_555 1_555
C4_92 N9_92 1_555 1_555
H4_92 C4_92 1_555 1_555
C5_92 N3_92 1_555 1_555
H5_92 C5_92 1_555 1_555
C6_86 N1_92 1_555 1_555
H6_92 C6_86 1_555 1_555
C7_92 N7_86 1_555 1_555
H7_92 C7_92 1_555 1_555
C8_92 N8_92 1_555 1_555
H8_92 C8_92 1_555 1_555
N12_86 N7_86 1_555 1_555
Cu6_17 N10_92 1_555 1_555
Cu5_17 N8_92 1_555 1_555
N15_92 Cu2_92 1_555 1_555
N16_92 Cu2_92 1_555 1_555
N3_92 N4_92 1_555 1_555
C2_86 N12_86 1_555 1_555
N9_92 C8_92 1_555 1_555
N11_92 C5_92 1_555 1_555
C6_86 N12_86 1_555 1_555
Cu3_18 N2_93 1_555 1_555
Cu2_93 N1_93 1_555 1_555
N1_93 N2_93 1_555 1_555
N2_93 C2_87 1_555 1_555
N3_93 Cu3_18 1_555 1_555
N4_93 Cu2_93 1_555 1_555
C2_87 H2_87 1_555 1_555
N8_93 N10_93 1_555 1_555
N9_93 N11_93 1_555 1_555
N10_93 C4_93 1_555 1_555
N11_93 C3_93 1_555 1_555
C3_93 N4_93 1_555 1_555
H3_93 C3_93 1_555 1_555
C4_93 N9_93 1_555 1_555
H4_93 C4_93 1_555 1_555
C5_93 N3_93 1_555 1_555
H5_93 C5_93 1_555 1_555
C6_87 N1_93 1_555 1_555
C8_93 N8_93 1_555 1_555
H8_93 C8_93 1_555 1_555
N12_87 N7_87 1_555 1_555
Cu6_47 N10_93 1_555 1_555
Cu5_47 N8_93 1_555 1_555
N16_93 Cu2_93 1_555 1_555
N3_93 N4_93 1_555 1_555
C2_87 N12_87 1_555 1_555
N9_93 C8_93 1_555 1_555
N11_93 C5_93 1_555 1_555
C6_87 N12_87 1_555 1_555
N13_32 N14_64 1_555 1_555
N14_64 C7_93 1_555 1_555
C1_93 N13_32 1_555 1_555
H1_93 C1_93 1_555 1_555
H7_93 C7_93 1_555 1_555
N13_47 N14_52 1_555 1_555
N14_52 C7_94 1_555 1_555
C1_94 N13_47 1_555 1_555
H1_94 C1_94 1_555 1_555
H7_94 C7_94 1_555 1_555
Cu4_25 N2_94 1_555 1_555
Cu2_94 N1_94 1_555 1_555
N1_94 N2_94 1_555 1_555
N2_94 C2_88 1_555 1_555
N3_94 Cu4_25 1_555 1_555
N4_94 Cu2_94 1_555 1_555
C2_88 H2_88 1_555 1_555
N8_94 N10_94 1_555 1_555
N9_94 N11_94 1_555 1_555
N10_94 C4_94 1_555 1_555
N11_94 C3_94 1_555 1_555
C3_94 N4_94 1_555 1_555
H3_94 C3_94 1_555 1_555
C4_94 N9_94 1_555 1_555
H4_94 C4_94 1_555 1_555
C5_94 N3_94 1_555 1_555
H5_94 C5_94 1_555 1_555
C6_88 N1_94 1_555 1_555
C8_94 N8_94 1_555 1_555
H8_94 C8_94 1_555 1_555
N12_88 N7_88 1_555 1_555
Cu6_46 N10_94 1_555 1_555
Cu5_46 N8_94 1_555 1_555
N16_94 Cu2_94 1_555 1_555
N3_94 N4_94 1_555 1_555
C2_88 N12_88 1_555 1_555
N9_94 C8_94 1_555 1_555
N11_94 C5_94 1_555 1_555
C6_88 N12_88 1_555 1_555
Cu3_9 N2_95 1_555 1_555
Cu2_95 N1_95 1_555 1_555
N1_95 N2_95 1_555 1_555
N2_95 C2_89 1_555 1_555
N3_95 Cu3_9 1_555 1_555
N4_95 Cu2_95 1_555 1_555
N13_15 N14_32 1_555 1_555
N14_32 C7_95 1_555 1_555
C1_95 N13_15 1_555 1_555
H1_95 C1_95 1_555 1_555
N7_89 C1_95 1_555 1_555
C2_89 H2_89 1_555 1_555
N8_95 N10_95 1_555 1_555
N9_95 N11_95 1_555 1_555
N10_95 C4_95 1_555 1_555
N11_95 C3_95 1_555 1_555
C3_95 N4_95 1_555 1_555
H3_95 C3_95 1_555 1_555
C4_95 N9_95 1_555 1_555
H4_95 C4_95 1_555 1_555
C5_95 N3_95 1_555 1_555
H5_95 C5_95 1_555 1_555
C6_89 N1_95 1_555 1_555
H6_95 C6_89 1_555 1_555
C7_95 N7_89 1_555 1_555
H7_95 C7_95 1_555 1_555
C8_95 N8_95 1_555 1_555
H8_95 C8_95 1_555 1_555
N12_89 N7_89 1_555 1_555
Cu6_48 N10_95 1_555 1_555
Cu5_48 N8_95 1_555 1_555
N15_95 Cu2_95 1_555 1_555
N16_95 Cu2_95 1_555 1_555
N3_95 N4_95 1_555 1_555
C2_89 N12_89 1_555 1_555
N9_95 C8_95 1_555 1_555
N11_95 C5_95 1_555 1_555
C6_89 N12_89 1_555 1_555
Cu4 N2_96 1_555 1_555
Cu2_96 N1_96 1_555 1_555
N1_96 N2_96 1_555 1_555
N2_96 C2_90 1_555 1_555
N3_96 Cu4 1_555 1_555
N4_96 Cu2_96 1_555 1_555
N13_28 N14_15 1_555 1_555
N14_15 C7_96 1_555 1_555
C1_96 N13_28 1_555 1_555
H1_96 C1_96 1_555 1_555
N7_90 C1_96 1_555 1_555
C2_90 H2_90 1_555 1_555
N8_96 N10_96 1_555 1_555
N9_96 N11_96 1_555 1_555
N10_96 C4_96 1_555 1_555
N11_96 C3_96 1_555 1_555
C3_96 N4_96 1_555 1_555
H3_96 C3_96 1_555 1_555
C4_96 N9_96 1_555 1_555
H4_96 C4_96 1_555 1_555
C5_96 N3_96 1_555 1_555
H5_96 C5_96 1_555 1_555
C6_90 N1_96 1_555 1_555
H6_96 C6_90 1_555 1_555
C7_96 N7_90 1_555 1_555
H7_96 C7_96 1_555 1_555
C8_96 N8_96 1_555 1_555
H8_96 C8_96 1_555 1_555
N12_90 N7_90 1_555 1_555
Cu6_34 N10_96 1_555 1_555
Cu5_34 N8_96 1_555 1_555
N15_96 Cu2_96 1_555 1_555
N16_96 Cu2_96 1_555 1_555
N3_96 N4_96 1_555 1_555
C2_90 N12_90 1_555 1_555
N9_96 C8_96 1_555 1_555
N11_96 C5_96 1_555 1_555
C6_90 N12_90 1_555 1_555
Cu1_49 N2_97 1_555 1_555
Cu6_9 N1_97 1_555 1_555
N1_97 N2_97 1_555 1_555
N2_97 C2_91 1_555 1_555
N3_97 Cu1_49 1_555 1_555
N4_97 Cu6_9 1_555 1_555
N5_49 N6_33 1_555 1_555
N6_33 C7_97 1_555 1_555
C1_97 N5_49 1_555 1_555
H1_97 C1_97 1_555 1_555
N7_91 C1_97 1_555 1_555
C2_91 H2_91 1_555 1_555
N15_17 N16_2 1_555 1_555
N9_97 N11_97 1_555 1_555
N16_2 C4_97 1_555 1_555
N11_97 C3_97 1_555 1_555
C3_97 N4_97 1_555 1_555
H3_97 C3_97 1_555 1_555
C4_97 N9_97 1_555 1_555
H4_97 C4_97 1_555 1_555
C5_97 N3_97 1_555 1_555
H5_97 C5_97 1_555 1_555
C6_91 N1_97 1_555 1_555
H6_97 C6_91 1_555 1_555
C7_97 N7_91 1_555 1_555
H7_97 C7_97 1_555 1_555
C8_97 N15_17 1_555 1_555
H8_97 C8_97 1_555 1_555
N12_91 N7_91 1_555 1_555
Cu3_19 N6_33 1_555 1_555
Cu4_31 N5_49 1_555 1_555
N13_49 Cu1_49 1_555 1_555
N14_65 Cu1_49 1_555 1_555
N3_97 N4_97 1_555 1_555
C2_91 N12_91 1_555 1_555
N9_97 C8_97 1_555 1_555
N11_97 C5_97 1_555 1_555
C6_91 N12_91 1_555 1_555
Cu1_50 N2_98 1_555 1_555
Cu5 N1_98 1_555 1_555
N1_98 N2_98 1_555 1_555
N2_98 C2_92 1_555 1_555
N3_98 Cu1_50 1_555 1_555
N4_98 Cu5 1_555 1_555
N5_50 N6_34 1_555 1_555
N6_34 C7_98 1_555 1_555
C1_98 N5_50 1_555 1_555
H1_98 C1_98 1_555 1_555
N7_92 C1_98 1_555 1_555
C2_92 H2_92 1_555 1_555
N15_19 N16_27 1_555 1_555
N9_98 N11_98 1_555 1_555
N16_27 C4_98 1_555 1_555
N11_98 C3_98 1_555 1_555
C3_98 N4_98 1_555 1_555
H3_98 C3_98 1_555 1_555
C4_98 N9_98 1_555 1_555
H4_98 C4_98 1_555 1_555
C5_98 N3_98 1_555 1_555
H5_98 C5_98 1_555 1_555
C6_92 N1_98 1_555 1_555
H6_98 C6_92 1_555 1_555
C7_98 N7_92 1_555 1_555
H7_98 C7_98 1_555 1_555
C8_98 N15_19 1_555 1_555
H8_98 C8_98 1_555 1_555
N12_92 N7_92 1_555 1_555
Cu3_20 N6_34 1_555 1_555
Cu4_32 N5_50 1_555 1_555
N13_50 Cu1_50 1_555 1_555
N14_66 Cu1_50 1_555 1_555
N3_98 N4_98 1_555 1_555
C2_92 N12_92 1_555 1_555
N9_98 C8_98 1_555 1_555
N11_98 C5_98 1_555 1_555
C6_92 N12_92 1_555 1_555
N5_51 N6_35 1_555 1_555
N6_35 C7_99 1_555 1_555
C1_99 N5_51 1_555 1_555
H1_99 C1_99 1_555 1_555
N7_93 C1_99 1_555 1_555
C2_93 H2_93 1_555 1_555
H6_99 C6_93 1_555 1_555
C7_99 N7_93 1_555 1_555
H7_99 C7_99 1_555 1_555
N12_93 N7_93 1_555 1_555
Cu3_21 N6_35 1_555 1_555
Cu4_33 N5_51 1_555 1_555
C2_93 N12_93 1_555 1_555
C6_93 N12_93 1_555 1_555
Cu1_51 N2_99 1_555 1_555
Cu5_24 N1_99 1_555 1_555
N1_99 N2_99 1_555 1_555
N3_99 Cu1_51 1_555 1_555
N4_99 Cu5_24 1_555 1_555
N15_47 N16_76 1_555 1_555
N9_99 N11_99 1_555 1_555
N16_76 C4_99 1_555 1_555
N11_99 C3_99 1_555 1_555
C3_99 N4_99 1_555 1_555
H3_99 C3_99 1_555 1_555
C4_99 N9_99 1_555 1_555
H4_99 C4_99 1_555 1_555
C5_99 N3_99 1_555 1_555
H5_99 C5_99 1_555 1_555
C8_99 N15_47 1_555 1_555
H8_99 C8_99 1_555 1_555
N13_51 Cu1_51 1_555 1_555
N14_67 Cu1_51 1_555 1_555
N3_99 N4_99 1_555 1_555
N9_99 C8_99 1_555 1_555
N11_99 C5_99 1_555 1_555
Cu1_52 N2_100 1_555 1_555
Cu6_42 N1_100 1_555 1_555
N1_100 N2_100 1_555 1_555
N2_100 C2_94 1_555 1_555
N3_100 Cu1_52 1_555 1_555
N4_100 Cu6_42 1_555 1_555
N5_52 N6_36 1_555 1_555
N6_36 C7_100 1_555 1_555
C1_100 N5_52 1_555 1_555
H1_100 C1_100 1_555 1_555
N7_94 C1_100 1_555 1_555
C2_94 H2_94 1_555 1_555
N15_69 N16_49 1_555 1_555
N9_100 N11_100 1_555 1_555
N16_49 C4_100 1_555 1_555
N11_100 C3_100 1_555 1_555
C3_100 N4_100 1_555 1_555
H3_100 C3_100 1_555 1_555
C4_100 N9_100 1_555 1_555
H4_100 C4_100 1_555 1_555
C5_100 N3_100 1_555 1_555
H5_100 C5_100 1_555 1_555
C6_94 N1_100 1_555 1_555
H6_100 C6_94 1_555 1_555
C7_100 N7_94 1_555 1_555
H7_100 C7_100 1_555 1_555
C8_100 N15_69 1_555 1_555
H8_100 C8_100 1_555 1_555
N12_94 N7_94 1_555 1_555
Cu3_22 N6_36 1_555 1_555
Cu4_34 N5_52 1_555 1_555
N13_52 Cu1_52 1_555 1_555
N14_68 Cu1_52 1_555 1_555
N3_100 N4_100 1_555 1_555
C2_94 N12_94 1_555 1_555
N9_100 C8_100 1_555 1_555
N11_100 C5_100 1_555 1_555
C6_94 N12_94 1_555 1_555
Cu1_53 N2_101 1_555 1_555
Cu6_30 N1_101 1_555 1_555
N1_101 N2_101 1_555 1_555
N2_101 C2_95 1_555 1_555
N3_101 Cu1_53 1_555 1_555
N4_101 Cu6_30 1_555 1_555
N5_53 N6_37 1_555 1_555
N6_37 C7_101 1_555 1_555
C1_101 N5_53 1_555 1_555
H1_101 C1_101 1_555 1_555
N7_95 C1_101 1_555 1_555
C2_95 H2_95 1_555 1_555
N15_22 N16_32 1_555 1_555
N9_101 N11_101 1_555 1_555
N16_32 C4_101 1_555 1_555
N11_101 C3_101 1_555 1_555
C3_101 N4_101 1_555 1_555
H3_101 C3_101 1_555 1_555
C4_101 N9_101 1_555 1_555
H4_101 C4_101 1_555 1_555
C5_101 N3_101 1_555 1_555
H5_101 C5_101 1_555 1_555
C6_95 N1_101 1_555 1_555
H6_101 C6_95 1_555 1_555
C7_101 N7_95 1_555 1_555
H7_101 C7_101 1_555 1_555
C8_101 N15_22 1_555 1_555
H8_101 C8_101 1_555 1_555
N12_95 N7_95 1_555 1_555
Cu4_33 N6_37 1_555 1_555
Cu3_21 N5_53 1_555 1_555
N13_53 Cu1_53 1_555 1_555
N14_69 Cu1_53 1_555 1_555
N3_101 N4_101 1_555 1_555
C2_95 N12_95 1_555 1_555
N9_101 C8_101 1_555 1_555
N11_101 C5_101 1_555 1_555
C6_95 N12_95 1_555 1_555
Cu1_54 N2_102 1_555 1_555
Cu5_40 N1_102 1_555 1_555
N1_102 N2_102 1_555 1_555
N2_102 C2_96 1_555 1_555
N3_102 Cu1_54 1_555 1_555
N4_102 Cu5_40 1_555 1_555
N5_54 N6_38 1_555 1_555
N6_38 C7_102 1_555 1_555
C1_102 N5_54 1_555 1_555
H1_102 C1_102 1_555 1_555
N7_96 C1_102 1_555 1_555
C2_96 H2_96 1_555 1_555
N15_20 N16_77 1_555 1_555
N9_102 N11_102 1_555 1_555
N16_77 C4_102 1_555 1_555
N11_102 C3_102 1_555 1_555
C3_102 N4_102 1_555 1_555
H3_102 C3_102 1_555 1_555
C4_102 N9_102 1_555 1_555
H4_102 C4_102 1_555 1_555
C5_102 N3_102 1_555 1_555
H5_102 C5_102 1_555 1_555
C6_96 N1_102 1_555 1_555
H6_102 C6_96 1_555 1_555
C7_102 N7_96 1_555 1_555
H7_102 C7_102 1_555 1_555
C8_102 N15_20 1_555 1_555
H8_102 C8_102 1_555 1_555
N12_96 N7_96 1_555 1_555
Cu4_34 N6_38 1_555 1_555
Cu3_22 N5_54 1_555 1_555
N13_54 Cu1_54 1_555 1_555
N14_70 Cu1_54 1_555 1_555
N3_102 N4_102 1_555 1_555
C2_96 N12_96 1_555 1_555
N9_102 C8_102 1_555 1_555
N11_102 C5_102 1_555 1_555
C6_96 N12_96 1_555 1_555
Cu1_55 N2_103 1_555 1_555
Cu5_8 N1_103 1_555 1_555
N1_103 N2_103 1_555 1_555
N2_103 C2_97 1_555 1_555
N3_103 Cu1_55 1_555 1_555
N4_103 Cu5_8 1_555 1_555
N5_55 N6_39 1_555 1_555
N6_39 C7_103 1_555 1_555
C1_103 N5_55 1_555 1_555
H1_103 C1_103 1_555 1_555
N7_97 C1_103 1_555 1_555
C2_97 H2_97 1_555 1_555
N15_48 N16_54 1_555 1_555
N9_103 N11_103 1_555 1_555
N16_54 C4_103 1_555 1_555
N11_103 C3_103 1_555 1_555
C3_103 N4_103 1_555 1_555
H3_103 C3_103 1_555 1_555
C4_103 N9_103 1_555 1_555
H4_103 C4_103 1_555 1_555
C5_103 N3_103 1_555 1_555
H5_103 C5_103 1_555 1_555
C6_97 N1_103 1_555 1_555
H6_103 C6_97 1_555 1_555
C7_103 N7_97 1_555 1_555
H7_103 C7_103 1_555 1_555
C8_103 N15_48 1_555 1_555
H8_103 C8_103 1_555 1_555
N12_97 N7_97 1_555 1_555
Cu4_31 N6_39 1_555 1_555
Cu3_19 N5_55 1_555 1_555
N13_55 Cu1_55 1_555 1_555
N14_71 Cu1_55 1_555 1_555
N3_103 N4_103 1_555 1_555
C2_97 N12_97 1_555 1_555
N9_103 C8_103 1_555 1_555
N11_103 C5_103 1_555 1_555
C6_97 N12_97 1_555 1_555
Cu1_56 N2_104 1_555 1_555
Cu6_16 N1_104 1_555 1_555
N1_104 N2_104 1_555 1_555
N3_104 Cu1_56 1_555 1_555
N4_104 Cu6_16 1_555 1_555
N15_66 N16_7 1_555 1_555
N9_104 N11_104 1_555 1_555
N16_7 C4_104 1_555 1_555
N11_104 C3_104 1_555 1_555
C3_104 N4_104 1_555 1_555
H3_104 C3_104 1_555 1_555
C4_104 N9_104 1_555 1_555
H4_104 C4_104 1_555 1_555
C5_104 N3_104 1_555 1_555
H5_104 C5_104 1_555 1_555
C8_104 N15_66 1_555 1_555
H8_104 C8_104 1_555 1_555
N13_56 Cu1_56 1_555 1_555
N14_72 Cu1_56 1_555 1_555
N3_104 N4_104 1_555 1_555
N9_104 C8_104 1_555 1_555
N11_104 C5_104 1_555 1_555
N5_56 N6_40 1_555 1_555
N6_40 C7_104 1_555 1_555
C1_104 N5_56 1_555 1_555
H1_104 C1_104 1_555 1_555
N7_98 C1_104 1_555 1_555
C2_98 H2_98 1_555 1_555
H6_104 C6_98 1_555 1_555
C7_104 N7_98 1_555 1_555
H7_104 C7_104 1_555 1_555
N12_98 N7_98 1_555 1_555
Cu4_32 N6_40 1_555 1_555
Cu3_20 N5_56 1_555 1_555
C2_98 N12_98 1_555 1_555
C6_98 N12_98 1_555 1_555
Cu1_57 N2_105 1_555 1_555
Cu6_17 N1_105 1_555 1_555
N1_105 N2_105 1_555 1_555
N2_105 C2_99 1_555 1_555
N3_105 Cu1_57 1_555 1_555
N4_105 Cu6_17 1_555 1_555
N5_57 N14_65 1_555 1_555
N14_65 C7_105 1_555 1_555
C1_105 N5_57 1_555 1_555
H1_105 C1_105 1_555 1_555
N7_99 C1_105 1_555 1_555
C2_99 H2_99 1_555 1_555
N15 N16_21 1_555 1_555
N9_105 N11_105 1_555 1_555
N16_21 C4_105 1_555 1_555
N11_105 C3_105 1_555 1_555
C3_105 N4_105 1_555 1_555
H3_105 C3_105 1_555 1_555
C4_105 N9_105 1_555 1_555
H4_105 C4_105 1_555 1_555
C5_105 N3_105 1_555 1_555
H5_105 C5_105 1_555 1_555
C6_99 N1_105 1_555 1_555
H6_105 C6_99 1_555 1_555
C7_105 N7_99 1_555 1_555
H7_105 C7_105 1_555 1_555
C8_105 N15 1_555 1_555
H8_105 C8_105 1_555 1_555
N12_99 N7_99 1_555 1_555
Cu4_35 N5_57 1_555 1_555
N13_57 Cu1_57 1_555 1_555
N14_73 Cu1_57 1_555 1_555
N3_105 N4_105 1_555 1_555
C2_99 N12_99 1_555 1_555
N9_105 C8_105 1_555 1_555
N11_105 C5_105 1_555 1_555
C6_99 N12_99 1_555 1_555
Cu1_58 N2_106 1_555 1_555
Cu6_19 N1_106 1_555 1_555
N1_106 N2_106 1_555 1_555
N2_106 C2_100 1_555 1_555
N3_106 Cu1_58 1_555 1_555
N4_106 Cu6_19 1_555 1_555
N5_58 N14_66 1_555 1_555
N14_66 C7_106 1_555 1_555
C1_106 N5_58 1_555 1_555
H1_106 C1_106 1_555 1_555
N7_100 C1_106 1_555 1_555
C2_100 H2_100 1_555 1_555
N15_26 N16_41 1_555 1_555
N9_106 N11_106 1_555 1_555
N16_41 C4_106 1_555 1_555
N11_106 C3_106 1_555 1_555
C3_106 N4_106 1_555 1_555
H3_106 C3_106 1_555 1_555
C4_106 N9_106 1_555 1_555
H4_106 C4_106 1_555 1_555
C5_106 N3_106 1_555 1_555
H5_106 C5_106 1_555 1_555
C6_100 N1_106 1_555 1_555
H6_106 C6_100 1_555 1_555
C7_106 N7_100 1_555 1_555
H7_106 C7_106 1_555 1_555
C8_106 N15_26 1_555 1_555
H8_106 C8_106 1_555 1_555
N12_100 N7_100 1_555 1_555
Cu4_36 N5_58 1_555 1_555
N13_58 Cu1_58 1_555 1_555
N14_74 Cu1_58 1_555 1_555
N3_106 N4_106 1_555 1_555
C2_100 N12_100 1_555 1_555
N9_106 C8_106 1_555 1_555
N11_106 C5_106 1_555 1_555
C6_100 N12_100 1_555 1_555
Cu1_59 N2_107 1_555 1_555
Cu5_33 N1_107 1_555 1_555
N1_107 N2_107 1_555 1_555
N2_107 C2_101 1_555 1_555
N3_107 Cu1_59 1_555 1_555
N4_107 Cu5_33 1_555 1_555
C2_101 H2_101 1_555 1_555
N15_75 N16_67 1_555 1_555
N9_107 N11_107 1_555 1_555
N16_67 C4_107 1_555 1_555
N11_107 C3_107 1_555 1_555
C3_107 N4_107 1_555 1_555
H3_107 C3_107 1_555 1_555
C4_107 N9_107 1_555 1_555
H4_107 C4_107 1_555 1_555
C5_107 N3_107 1_555 1_555
H5_107 C5_107 1_555 1_555
C6_101 N1_107 1_555 1_555
C8_107 N15_75 1_555 1_555
H8_107 C8_107 1_555 1_555
N12_101 N7_101 1_555 1_555
N13_59 Cu1_59 1_555 1_555
N14_75 Cu1_59 1_555 1_555
N3_107 N4_107 1_555 1_555
C2_101 N12_101 1_555 1_555
N9_107 C8_107 1_555 1_555
N11_107 C5_107 1_555 1_555
C6_101 N12_101 1_555 1_555
N5_59 N14_67 1_555 1_555
N14_67 C7_107 1_555 1_555
C1_107 N5_59 1_555 1_555
H1_107 C1_107 1_555 1_555
H7_107 C7_107 1_555 1_555
Cu4_37 N5_59 1_555 1_555
Cu1_60 N2_108 1_555 1_555
Cu6_46 N1_108 1_555 1_555
N1_108 N2_108 1_555 1_555
N2_108 C2_102 1_555 1_555
N3_108 Cu1_60 1_555 1_555
N4_108 Cu6_46 1_555 1_555
N5_60 N14_68 1_555 1_555
N14_68 C7_108 1_555 1_555
C1_108 N5_60 1_555 1_555
H1_108 C1_108 1_555 1_555
N7_102 C1_108 1_555 1_555
C2_102 H2_102 1_555 1_555
N15_52 N16_23 1_555 1_555
N9_108 N11_108 1_555 1_555
N16_23 C4_108 1_555 1_555
N11_108 C3_108 1_555 1_555
C3_108 N4_108 1_555 1_555
H3_108 C3_108 1_555 1_555
C4_108 N9_108 1_555 1_555
H4_108 C4_108 1_555 1_555
C5_108 N3_108 1_555 1_555
H5_108 C5_108 1_555 1_555
C6_102 N1_108 1_555 1_555
H6_108 C6_102 1_555 1_555
C7_108 N7_102 1_555 1_555
H7_108 C7_108 1_555 1_555
C8_108 N15_52 1_555 1_555
H8_108 C8_108 1_555 1_555
N12_102 N7_102 1_555 1_555
Cu4_38 N5_60 1_555 1_555
N13_60 Cu1_60 1_555 1_555
N14_76 Cu1_60 1_555 1_555
N3_108 N4_108 1_555 1_555
C2_102 N12_102 1_555 1_555
N9_108 C8_108 1_555 1_555
N11_108 C5_108 1_555 1_555
C6_102 N12_102 1_555 1_555
Cu1_61 N2_109 1_555 1_555
Cu6_22 N1_109 1_555 1_555
N1_109 N2_109 1_555 1_555
N2_109 C2_103 1_555 1_555
N3_109 Cu1_61 1_555 1_555
N4_109 Cu6_22 1_555 1_555
N5_61 N14_69 1_555 1_555
N14_69 C7_109 1_555 1_555
C1_109 N5_61 1_555 1_555
H1_109 C1_109 1_555 1_555
N7_103 C1_109 1_555 1_555
C2_103 H2_103 1_555 1_555
N15_29 N16_68 1_555 1_555
N9_109 N11_109 1_555 1_555
N16_68 C4_109 1_555 1_555
N11_109 C3_109 1_555 1_555
C3_109 N4_109 1_555 1_555
H3_109 C3_109 1_555 1_555
C4_109 N9_109 1_555 1_555
H4_109 C4_109 1_555 1_555
C5_109 N3_109 1_555 1_555
H5_109 C5_109 1_555 1_555
C6_103 N1_109 1_555 1_555
H6_109 C6_103 1_555 1_555
C7_109 N7_103 1_555 1_555
H7_109 C7_109 1_555 1_555
C8_109 N15_29 1_555 1_555
H8_109 C8_109 1_555 1_555
N12_103 N7_103 1_555 1_555
Cu4_39 N5_61 1_555 1_555
N13_61 Cu1_61 1_555 1_555
N14_77 Cu1_61 1_555 1_555
N3_109 N4_109 1_555 1_555
C2_103 N12_103 1_555 1_555
N9_109 C8_109 1_555 1_555
N11_109 C5_109 1_555 1_555
C6_103 N12_103 1_555 1_555
Cu1_62 N2_110 1_555 1_555
Cu6_20 N1_110 1_555 1_555
N1_110 N2_110 1_555 1_555
N2_110 C2_104 1_555 1_555
N3_110 Cu1_62 1_555 1_555
N4_110 Cu6_20 1_555 1_555
N5_62 N14_70 1_555 1_555
N14_70 C7_110 1_555 1_555
C1_110 N5_62 1_555 1_555
H1_110 C1_110 1_555 1_555
N7_104 C1_110 1_555 1_555
C2_104 H2_104 1_555 1_555
N15_78 N16_24 1_555 1_555
N9_110 N11_110 1_555 1_555
N16_24 C4_110 1_555 1_555
N11_110 C3_110 1_555 1_555
C3_110 N4_110 1_555 1_555
H3_110 C3_110 1_555 1_555
C4_110 N9_110 1_555 1_555
H4_110 C4_110 1_555 1_555
C5_110 N3_110 1_555 1_555
H5_110 C5_110 1_555 1_555
C6_104 N1_110 1_555 1_555
H6_110 C6_104 1_555 1_555
C7_110 N7_104 1_555 1_555
H7_110 C7_110 1_555 1_555
C8_110 N15_78 1_555 1_555
H8_110 C8_110 1_555 1_555
N12_104 N7_104 1_555 1_555
Cu4_40 N5_62 1_555 1_555
N13_62 Cu1_62 1_555 1_555
N14_78 Cu1_62 1_555 1_555
N3_110 N4_110 1_555 1_555
C2_104 N12_104 1_555 1_555
N9_110 C8_110 1_555 1_555
N11_110 C5_110 1_555 1_555
C6_104 N12_104 1_555 1_555
Cu1_63 N2_111 1_555 1_555
Cu6_36 N1_111 1_555 1_555
N1_111 N2_111 1_555 1_555
N2_111 C2_105 1_555 1_555
N3_111 Cu1_63 1_555 1_555
N4_111 Cu6_36 1_555 1_555
N5_63 N14_71 1_555 1_555
N14_71 C7_111 1_555 1_555
C1_111 N5_63 1_555 1_555
H1_111 C1_111 1_555 1_555
N7_105 C1_111 1_555 1_555
C2_105 H2_105 1_555 1_555
N15_55 N16_18 1_555 1_555
N9_111 N11_111 1_555 1_555
N16_18 C4_111 1_555 1_555
N11_111 C3_111 1_555 1_555
C3_111 N4_111 1_555 1_555
H3_111 C3_111 1_555 1_555
C4_111 N9_111 1_555 1_555
H4_111 C4_111 1_555 1_555
C5_111 N3_111 1_555 1_555
H5_111 C5_111 1_555 1_555
C6_105 N1_111 1_555 1_555
H6_111 C6_105 1_555 1_555
C7_111 N7_105 1_555 1_555
H7_111 C7_111 1_555 1_555
C8_111 N15_55 1_555 1_555
H8_111 C8_111 1_555 1_555
N12_105 N7_105 1_555 1_555
Cu4_41 N5_63 1_555 1_555
N13_63 Cu1_63 1_555 1_555
N14_79 Cu1_63 1_555 1_555
N3_111 N4_111 1_555 1_555
C2_105 N12_105 1_555 1_555
N9_111 C8_111 1_555 1_555
N11_111 C5_111 1_555 1_555
C6_105 N12_105 1_555 1_555
N5_64 N14_72 1_555 1_555
N14_72 C7_112 1_555 1_555
C1_112 N5_64 1_555 1_555
H1_112 C1_112 1_555 1_555
H7_112 C7_112 1_555 1_555
Cu4_42 N5_64 1_555 1_555
Cu1_64 N2_112 1_555 1_555
Cu6_45 N1_112 1_555 1_555
N1_112 N2_112 1_555 1_555
N2_112 C2_106 1_555 1_555
N3_112 Cu1_64 1_555 1_555
N4_112 Cu6_45 1_555 1_555
C2_106 H2_106 1_555 1_555
N15_8 N16_46 1_555 1_555
N9_112 N11_112 1_555 1_555
N16_46 C4_112 1_555 1_555
N11_112 C3_112 1_555 1_555
C3_112 N4_112 1_555 1_555
H3_112 C3_112 1_555 1_555
C4_112 N9_112 1_555 1_555
H4_112 C4_112 1_555 1_555
C5_112 N3_112 1_555 1_555
H5_112 C5_112 1_555 1_555
C6_106 N1_112 1_555 1_555
C8_112 N15_8 1_555 1_555
H8_112 C8_112 1_555 1_555
N12_106 N7_106 1_555 1_555
N13_64 Cu1_64 1_555 1_555
N14_80 Cu1_64 1_555 1_555
N3_112 N4_112 1_555 1_555
C2_106 N12_106 1_555 1_555
N9_112 C8_112 1_555 1_555
N11_112 C5_112 1_555 1_555
C6_106 N12_106 1_555 1_555
Cu3_19 N2_113 1_555 1_555
Cu6 N1_113 1_555 1_555
N1_113 N2_113 1_555 1_555
N2_113 C2_107 1_555 1_555
N3_113 Cu3_19 1_555 1_555
N4_113 Cu6 1_555 1_555
N5_65 N14_73 1_555 1_555
N14_73 C7_113 1_555 1_555
C1_113 N5_65 1_555 1_555
H1_113 C1_113 1_555 1_555
N7_107 C1_113 1_555 1_555
C2_107 H2_107 1_555 1_555
N15_9 N16_86 1_555 1_555
N9_113 N11_113 1_555 1_555
N16_86 C4_113 1_555 1_555
N11_113 C3_113 1_555 1_555
C3_113 N4_113 1_555 1_555
H3_113 C3_113 1_555 1_555
C4_113 N9_113 1_555 1_555
H4_113 C4_113 1_555 1_555
C5_113 N3_113 1_555 1_555
H5_113 C5_113 1_555 1_555
C6_107 N1_113 1_555 1_555
H6_113 C6_107 1_555 1_555
C7_113 N7_107 1_555 1_555
H7_113 C7_113 1_555 1_555
C8_113 N15_9 1_555 1_555
H8_113 C8_113 1_555 1_555
N12_107 N7_107 1_555 1_555
Cu4_43 N5_65 1_555 1_555
N3_113 N4_113 1_555 1_555
C2_107 N12_107 1_555 1_555
N9_113 C8_113 1_555 1_555
N11_113 C5_113 1_555 1_555
C6_107 N12_107 1_555 1_555
Cu1_65 N2_114 1_555 1_555
Cu5_15 N1_114 1_555 1_555
N1_114 N2_114 1_555 1_555
N3_114 Cu1_65 1_555 1_555
N4_114 Cu5_15 1_555 1_555
N15_64 N16_35 1_555 1_555
N9_114 N11_114 1_555 1_555
N16_35 C4_114 1_555 1_555
N11_114 C3_114 1_555 1_555
C3_114 N4_114 1_555 1_555
H3_114 C3_114 1_555 1_555
C4_114 N9_114 1_555 1_555
H4_114 C4_114 1_555 1_555
C5_114 N3_114 1_555 1_555
H5_114 C5_114 1_555 1_555
C8_114 N15_64 1_555 1_555
H8_114 C8_114 1_555 1_555
N13_65 Cu1_65 1_555 1_555
N14_81 Cu1_65 1_555 1_555
N3_114 N4_114 1_555 1_555
N9_114 C8_114 1_555 1_555
N11_114 C5_114 1_555 1_555
N13_60 N6_41 1_555 1_555
N6_41 C7_114 1_555 1_555
C1_114 N13_60 1_555 1_555
H1_114 C1_114 1_555 1_555
N7_108 C1_114 1_555 1_555
C2_108 H2_108 1_555 1_555
H6_114 C6_108 1_555 1_555
C7_114 N7_108 1_555 1_555
H7_114 C7_114 1_555 1_555
N12_108 N7_108 1_555 1_555
Cu3_23 N6_41 1_555 1_555
C2_108 N12_108 1_555 1_555
C6_108 N12_108 1_555 1_555
Cu1_66 N2_115 1_555 1_555
Cu6_2 N1_115 1_555 1_555
N1_115 N2_115 1_555 1_555
N2_115 C2_109 1_555 1_555
N3_115 Cu1_66 1_555 1_555
N4_115 Cu6_2 1_555 1_555
N5_66 N6_42 1_555 1_555
N6_42 C7_115 1_555 1_555
C1_115 N5_66 1_555 1_555
H1_115 C1_115 1_555 1_555
N7_109 C1_115 1_555 1_555
C2_109 H2_109 1_555 1_555
N15_10 N16_87 1_555 1_555
N9_115 N11_115 1_555 1_555
N16_87 C4_115 1_555 1_555
N11_115 C3_115 1_555 1_555
C3_115 N4_115 1_555 1_555
H3_115 C3_115 1_555 1_555
C4_115 N9_115 1_555 1_555
H4_115 C4_115 1_555 1_555
C5_115 N3_115 1_555 1_555
H5_115 C5_115 1_555 1_555
C6_109 N1_115 1_555 1_555
H6_115 C6_109 1_555 1_555
C7_115 N7_109 1_555 1_555
H7_115 C7_115 1_555 1_555
C8_115 N15_10 1_555 1_555
H8_115 C8_115 1_555 1_555
N12_109 N7_109 1_555 1_555
Cu3_24 N6_42 1_555 1_555
Cu4_44 N5_66 1_555 1_555
N13_66 Cu1_66 1_555 1_555
N14_82 Cu1_66 1_555 1_555
N3_115 N4_115 1_555 1_555
C2_109 N12_109 1_555 1_555
N9_115 C8_115 1_555 1_555
N11_115 C5_115 1_555 1_555
C6_109 N12_109 1_555 1_555
Cu1_67 N2_116 1_555 1_555
Cu6_6 N1_116 1_555 1_555
N1_116 N2_116 1_555 1_555
N2_116 C2_110 1_555 1_555
N3_116 Cu1_67 1_555 1_555
N4_116 Cu6_6 1_555 1_555
N5_67 N6_43 1_555 1_555
N6_43 C7_116 1_555 1_555
C1_116 N5_67 1_555 1_555
H1_116 C1_116 1_555 1_555
N7_110 C1_116 1_555 1_555
C2_110 H2_110 1_555 1_555
N15_14 N16_81 1_555 1_555
N9_116 N11_116 1_555 1_555
N16_81 C4_116 1_555 1_555
N11_116 C3_116 1_555 1_555
C3_116 N4_116 1_555 1_555
H3_116 C3_116 1_555 1_555
C4_116 N9_116 1_555 1_555
H4_116 C4_116 1_555 1_555
C5_116 N3_116 1_555 1_555
H5_116 C5_116 1_555 1_555
C6_110 N1_116 1_555 1_555
H6_116 C6_110 1_555 1_555
C7_116 N7_110 1_555 1_555
H7_116 C7_116 1_555 1_555
C8_116 N15_14 1_555 1_555
H8_116 C8_116 1_555 1_555
N12_110 N7_110 1_555 1_555
Cu4_44 N6_43 1_555 1_555
Cu3_24 N5_67 1_555 1_555
N13_67 Cu1_67 1_555 1_555
N14_83 Cu1_67 1_555 1_555
N3_116 N4_116 1_555 1_555
C2_110 N12_110 1_555 1_555
N9_116 C8_116 1_555 1_555
N11_116 C5_116 1_555 1_555
C6_110 N12_110 1_555 1_555
Cu3_22 N2_117 1_555 1_555
Cu5_9 N1_117 1_555 1_555
N1_117 N2_117 1_555 1_555
N2_117 C2_111 1_555 1_555
N3_117 Cu3_22 1_555 1_555
N4_117 Cu5_9 1_555 1_555
N5_68 N14_76 1_555 1_555
N14_76 C7_117 1_555 1_555
C1_117 N5_68 1_555 1_555
H1_117 C1_117 1_555 1_555
N7_111 C1_117 1_555 1_555
C2_111 H2_111 1_555 1_555
N15_60 N16_37 1_555 1_555
N9_117 N11_117 1_555 1_555
N16_37 C4_117 1_555 1_555
N11_117 C3_117 1_555 1_555
C3_117 N4_117 1_555 1_555
H3_117 C3_117 1_555 1_555
C4_117 N9_117 1_555 1_555
H4_117 C4_117 1_555 1_555
C5_117 N3_117 1_555 1_555
H5_117 C5_117 1_555 1_555
C6_111 N1_117 1_555 1_555
H6_117 C6_111 1_555 1_555
C7_117 N7_111 1_555 1_555
H7_117 C7_117 1_555 1_555
C8_117 N15_60 1_555 1_555
H8_117 C8_117 1_555 1_555
N12_111 N7_111 1_555 1_555
Cu3_23 N5_68 1_555 1_555
N3_117 N4_117 1_555 1_555
C2_111 N12_111 1_555 1_555
N9_117 C8_117 1_555 1_555
N11_117 C5_117 1_555 1_555
C6_111 N12_111 1_555 1_555
Cu1_68 N2_118 1_555 1_555
Cu6_5 N1_118 1_555 1_555
N1_118 N2_118 1_555 1_555
N2_118 C2_112 1_555 1_555
N3_118 Cu1_68 1_555 1_555
N4_118 Cu6_5 1_555 1_555
N13_57 N6_44 1_555 1_555
N6_44 C7_118 1_555 1_555
C1_118 N13_57 1_555 1_555
H1_118 C1_118 1_555 1_555
N7_112 C1_118 1_555 1_555
C2_112 H2_112 1_555 1_555
N15_13 N16_84 1_555 1_555
N9_118 N11_118 1_555 1_555
N16_84 C4_118 1_555 1_555
N11_118 C3_118 1_555 1_555
C3_118 N4_118 1_555 1_555
H3_118 C3_118 1_555 1_555
C4_118 N9_118 1_555 1_555
H4_118 C4_118 1_555 1_555
C5_118 N3_118 1_555 1_555
H5_118 C5_118 1_555 1_555
C6_112 N1_118 1_555 1_555
H6_118 C6_112 1_555 1_555
C7_118 N7_112 1_555 1_555
H7_118 C7_118 1_555 1_555
C8_118 N15_13 1_555 1_555
H8_118 C8_118 1_555 1_555
N12_112 N7_112 1_555 1_555
Cu4_43 N6_44 1_555 1_555
N13_68 Cu1_68 1_555 1_555
N14_84 Cu1_68 1_555 1_555
N3_118 N4_118 1_555 1_555
C2_112 N12_112 1_555 1_555
N9_118 C8_118 1_555 1_555
N11_118 C5_118 1_555 1_555
C6_112 N12_112 1_555 1_555
Cu1_69 N2_119 1_555 1_555
Cu5_12 N1_119 1_555 1_555
N1_119 N2_119 1_555 1_555
N2_119 C2_113 1_555 1_555
N3_119 Cu1_69 1_555 1_555
N4_119 Cu5_12 1_555 1_555
N5_69 N6_45 1_555 1_555
N6_45 C7_119 1_555 1_555
C1_119 N5_69 1_555 1_555
H1_119 C1_119 1_555 1_555
N7_113 C1_119 1_555 1_555
C2_113 H2_113 1_555 1_555
N15_35 N16_64 1_555 1_555
N9_119 N11_119 1_555 1_555
N16_64 C4_119 1_555 1_555
N11_119 C3_119 1_555 1_555
C3_119 N4_119 1_555 1_555
H3_119 C3_119 1_555 1_555
C4_119 N9_119 1_555 1_555
H4_119 C4_119 1_555 1_555
C5_119 N3_119 1_555 1_555
H5_119 C5_119 1_555 1_555
C6_113 N1_119 1_555 1_555
H6_119 C6_113 1_555 1_555
C7_119 N7_113 1_555 1_555
H7_119 C7_119 1_555 1_555
C8_119 N15_35 1_555 1_555
H8_119 C8_119 1_555 1_555
N12_113 N7_113 1_555 1_555
Cu3_25 N6_45 1_555 1_555
Cu4_45 N5_69 1_555 1_555
N13_69 Cu1_69 1_555 1_555
N14_85 Cu1_69 1_555 1_555
N3_119 N4_119 1_555 1_555
C2_113 N12_113 1_555 1_555
N9_119 C8_119 1_555 1_555
N11_119 C5_119 1_555 1_555
C6_113 N12_113 1_555 1_555
N5_70 N6_46 1_555 1_555
N6_46 C7_120 1_555 1_555
C1_120 N5_70 1_555 1_555
H1_120 C1_120 1_555 1_555
N7_114 C1_120 1_555 1_555
C2_114 H2_114 1_555 1_555
H6_120 C6_114 1_555 1_555
C7_120 N7_114 1_555 1_555
H7_120 C7_120 1_555 1_555
N12_114 N7_114 1_555 1_555
Cu4_45 N6_46 1_555 1_555
Cu3_25 N5_70 1_555 1_555
C2_114 N12_114 1_555 1_555
C6_114 N12_114 1_555 1_555
Cu1_70 N2_120 1_555 1_555
Cu5_14 N1_120 1_555 1_555
N1_120 N2_120 1_555 1_555
N3_120 Cu1_70 1_555 1_555
N4_120 Cu5_14 1_555 1_555
N15_39 N16_58 1_555 1_555
N9_120 N11_120 1_555 1_555
N16_58 C4_120 1_555 1_555
N11_120 C3_120 1_555 1_555
C3_120 N4_120 1_555 1_555
H3_120 C3_120 1_555 1_555
C4_120 N9_120 1_555 1_555
H4_120 C4_120 1_555 1_555
C5_120 N3_120 1_555 1_555
H5_120 C5_120 1_555 1_555
C8_120 N15_39 1_555 1_555
H8_120 C8_120 1_555 1_555
N13_70 Cu1_70 1_555 1_555
N14_86 Cu1_70 1_555 1_555
N3_120 N4_120 1_555 1_555
N9_120 C8_120 1_555 1_555
N11_120 C5_120 1_555 1_555
Cu4_37 N2_121 1_555 1_555
Cu6_28 N1_121 1_555 1_555
N1_121 N2_121 1_555 1_555
N3_121 Cu4_37 1_555 1_555
N4_121 Cu6_28 1_555 1_555
N15_41 N16_26 1_555 1_555
N9_121 N11_121 1_555 1_555
N16_26 C4_121 1_555 1_555
N11_121 C3_121 1_555 1_555
C3_121 N4_121 1_555 1_555
H3_121 C3_121 1_555 1_555
C4_121 N9_121 1_555 1_555
H4_121 C4_121 1_555 1_555
C5_121 N3_121 1_555 1_555
H5_121 C5_121 1_555 1_555
C8_121 N15_41 1_555 1_555
H8_121 C8_121 1_555 1_555
N14_87 Cu4_37 1_555 1_555
N3_121 N4_121 1_555 1_555
N9_121 C8_121 1_555 1_555
N11_121 C5_121 1_555 1_555
N5_71 N6_47 1_555 1_555
N6_47 C7_121 1_555 1_555
C1_121 N5_71 1_555 1_555
H1_121 C1_121 1_555 1_555
H7_121 C7_121 1_555 1_555
Cu3_26 N6_47 1_555 1_555
Cu4_46 N5_71 1_555 1_555
Cu1_71 N2_122 1_555 1_555
Cu6_10 N1_122 1_555 1_555
N1_122 N2_122 1_555 1_555
N2_122 C2_115 1_555 1_555
N3_122 Cu1_71 1_555 1_555
N4_122 Cu6_10 1_555 1_555
N5_72 N14_82 1_555 1_555
N14_82 C7_122 1_555 1_555
C1_122 N5_72 1_555 1_555
H1_122 C1_122 1_555 1_555
N7_115 C1_122 1_555 1_555
C2_115 H2_115 1_555 1_555
N15_43 N16_3 1_555 1_555
N9_122 N11_122 1_555 1_555
N16_3 C4_122 1_555 1_555
N11_122 C3_122 1_555 1_555
C3_122 N4_122 1_555 1_555
H3_122 C3_122 1_555 1_555
C4_122 N9_122 1_555 1_555
H4_122 C4_122 1_555 1_555
C5_122 N3_122 1_555 1_555
H5_122 C5_122 1_555 1_555
C6_115 N1_122 1_555 1_555
H6_122 C6_115 1_555 1_555
C7_122 N7_115 1_555 1_555
H7_122 C7_122 1_555 1_555
C8_122 N15_43 1_555 1_555
H8_122 C8_122 1_555 1_555
N12_115 N7_115 1_555 1_555
Cu4_47 N5_72 1_555 1_555
N13_71 Cu1_71 1_555 1_555
N14_88 Cu1_71 1_555 1_555
N3_122 N4_122 1_555 1_555
C2_115 N12_115 1_555 1_555
N9_122 C8_122 1_555 1_555
N11_122 C5_122 1_555 1_555
C6_115 N12_115 1_555 1_555
Cu4_35 N2_123 1_555 1_555
Cu5_2 N1_123 1_555 1_555
N1_123 N2_123 1_555 1_555
N2_123 C2_116 1_555 1_555
N3_123 Cu4_35 1_555 1_555
N4_123 Cu5_2 1_555 1_555
N13_68 N6_48 1_555 1_555
N6_48 C7_123 1_555 1_555
C1_123 N13_68 1_555 1_555
H1_123 C1_123 1_555 1_555
N7_116 C1_123 1_555 1_555
C2_116 H2_116 1_555 1_555
N15_23 N16_52 1_555 1_555
N9_123 N11_123 1_555 1_555
N16_52 C4_123 1_555 1_555
N11_123 C3_123 1_555 1_555
C3_123 N4_123 1_555 1_555
H3_123 C3_123 1_555 1_555
C4_123 N9_123 1_555 1_555
H4_123 C4_123 1_555 1_555
C5_123 N3_123 1_555 1_555
H5_123 C5_123 1_555 1_555
C6_116 N1_123 1_555 1_555
H6_123 C6_116 1_555 1_555
C7_123 N7_116 1_555 1_555
H7_123 C7_123 1_555 1_555
C8_123 N15_23 1_555 1_555
H8_123 C8_123 1_555 1_555
N12_116 N7_116 1_555 1_555
Cu3_27 N6_48 1_555 1_555
N14_89 Cu4_35 1_555 1_555
N3_123 N4_123 1_555 1_555
C2_116 N12_116 1_555 1_555
N9_123 C8_123 1_555 1_555
N11_123 C5_123 1_555 1_555
C6_116 N12_116 1_555 1_555
Cu1_72 N2_124 1_555 1_555
Cu5_38 N1_124 1_555 1_555
N1_124 N2_124 1_555 1_555
N2_124 C2_117 1_555 1_555
N3_124 Cu1_72 1_555 1_555
N4_124 Cu5_38 1_555 1_555
N5_73 N6_49 1_555 1_555
N6_49 C7_124 1_555 1_555
C1_124 N5_73 1_555 1_555
H1_124 C1_124 1_555 1_555
N7_117 C1_124 1_555 1_555
C2_117 H2_117 1_555 1_555
N15_93 N16_73 1_555 1_555
N9_124 N11_124 1_555 1_555
N16_73 C4_124 1_555 1_555
N11_124 C3_124 1_555 1_555
C3_124 N4_124 1_555 1_555
H3_124 C3_124 1_555 1_555
C4_124 N9_124 1_555 1_555
H4_124 C4_124 1_555 1_555
C5_124 N3_124 1_555 1_555
H5_124 C5_124 1_555 1_555
C6_117 N1_124 1_555 1_555
H6_124 C6_117 1_555 1_555
C7_124 N7_117 1_555 1_555
H7_124 C7_124 1_555 1_555
C8_124 N15_93 1_555 1_555
H8_124 C8_124 1_555 1_555
N12_117 N7_117 1_555 1_555
Cu3_28 N6_49 1_555 1_555
Cu4_48 N5_73 1_555 1_555
N13_72 Cu1_72 1_555 1_555
N14_90 Cu1_72 1_555 1_555
N3_124 N4_124 1_555 1_555
C2_117 N12_117 1_555 1_555
N9_124 C8_124 1_555 1_555
N11_124 C5_124 1_555 1_555
C6_117 N12_117 1_555 1_555
Cu4_41 N2_125 1_555 1_555
Cu6_13 N1_125 1_555 1_555
N1_125 N2_125 1_555 1_555
N2_125 C2_118 1_555 1_555
N3_125 Cu4_41 1_555 1_555
N4_125 Cu6_13 1_555 1_555
N5_74 N14_84 1_555 1_555
N14_84 C7_125 1_555 1_555
C1_125 N5_74 1_555 1_555
H1_125 C1_125 1_555 1_555
N7_118 C1_125 1_555 1_555
C2_118 H2_118 1_555 1_555
N15_46 N16_8 1_555 1_555
N9_125 N11_125 1_555 1_555
N16_8 C4_125 1_555 1_555
N11_125 C3_125 1_555 1_555
C3_125 N4_125 1_555 1_555
H3_125 C3_125 1_555 1_555
C4_125 N9_125 1_555 1_555
H4_125 C4_125 1_555 1_555
C5_125 N3_125 1_555 1_555
H5_125 C5_125 1_555 1_555
C6_118 N1_125 1_555 1_555
H6_125 C6_118 1_555 1_555
C7_125 N7_118 1_555 1_555
H7_125 C7_125 1_555 1_555
C8_125 N15_46 1_555 1_555
H8_125 C8_125 1_555 1_555
N12_118 N7_118 1_555 1_555
Cu3_27 N5_74 1_555 1_555
N14_91 Cu4_41 1_555 1_555
N3_125 N4_125 1_555 1_555
C2_118 N12_118 1_555 1_555
N9_125 C8_125 1_555 1_555
N11_125 C5_125 1_555 1_555
C6_118 N12_118 1_555 1_555
Cu1_73 N2_126 1_555 1_555
Cu6_43 N1_126 1_555 1_555
N1_126 N2_126 1_555 1_555
N3_126 Cu1_73 1_555 1_555
N4_126 Cu6_43 1_555 1_555
N15_44 N16_53 1_555 1_555
N9_126 N11_126 1_555 1_555
N16_53 C4_126 1_555 1_555
N11_126 C3_126 1_555 1_555
C3_126 N4_126 1_555 1_555
H3_126 C3_126 1_555 1_555
C4_126 N9_126 1_555 1_555
H4_126 C4_126 1_555 1_555
C5_126 N3_126 1_555 1_555
H5_126 C5_126 1_555 1_555
C8_126 N15_44 1_555 1_555
H8_126 C8_126 1_555 1_555
N13_73 Cu1_73 1_555 1_555
N14_92 Cu1_73 1_555 1_555
N3_126 N4_126 1_555 1_555
N9_126 C8_126 1_555 1_555
N11_126 C5_126 1_555 1_555
N5_75 N6_50 1_555 1_555
N6_50 C7_126 1_555 1_555
C1_126 N5_75 1_555 1_555
H1_126 C1_126 1_555 1_555
N7_119 C1_126 1_555 1_555
C2_119 H2_119 1_555 1_555
H6_126 C6_119 1_555 1_555
C7_126 N7_119 1_555 1_555
H7_126 C7_126 1_555 1_555
N12_119 N7_119 1_555 1_555
Cu4_48 N6_50 1_555 1_555
Cu3_28 N5_75 1_555 1_555
C2_119 N12_119 1_555 1_555
C6_119 N12_119 1_555 1_555
Cu4_39 N2_127 1_555 1_555
Cu5_27 N1_127 1_555 1_555
N1_127 N2_127 1_555 1_555
N2_127 C2_120 1_555 1_555
N3_127 Cu4_39 1_555 1_555
N4_127 Cu5_27 1_555 1_555
C2_120 H2_120 1_555 1_555
N15_24 N16_78 1_555 1_555
N9_127 N11_127 1_555 1_555
N16_78 C4_127 1_555 1_555
N11_127 C3_127 1_555 1_555
C3_127 N4_127 1_555 1_555
H3_127 C3_127 1_555 1_555
C4_127 N9_127 1_555 1_555
H4_127 C4_127 1_555 1_555
C5_127 N3_127 1_555 1_555
H5_127 C5_127 1_555 1_555
C6_120 N1_127 1_555 1_555
C8_127 N15_24 1_555 1_555
H8_127 C8_127 1_555 1_555
N12_120 N7_120 1_555 1_555
N14_93 Cu4_39 1_555 1_555
N3_127 N4_127 1_555 1_555
C2_120 N12_120 1_555 1_555
N9_127 C8_127 1_555 1_555
N11_127 C5_127 1_555 1_555
C6_120 N12_120 1_555 1_555
N5_76 N6_51 1_555 1_555
N6_51 C7_127 1_555 1_555
C1_127 N5_76 1_555 1_555
H1_127 C1_127 1_555 1_555
H7_127 C7_127 1_555 1_555
Cu4_46 N6_51 1_555 1_555
Cu3_26 N5_76 1_555 1_555
Cu1_74 N2_128 1_555 1_555
Cu5_5 N1_128 1_555 1_555
N1_128 N2_128 1_555 1_555
N2_128 C2_121 1_555 1_555
N3_128 Cu1_74 1_555 1_555
N4_128 Cu5_5 1_555 1_555
N13_66 N6_52 1_555 1_555
N6_52 C7_128 1_555 1_555
C1_128 N13_66 1_555 1_555
H1_128 C1_128 1_555 1_555
N7_121 C1_128 1_555 1_555
C2_121 H2_121 1_555 1_555
N15_90 N16_31 1_555 1_555
N9_128 N11_128 1_555 1_555
N16_31 C4_128 1_555 1_555
N11_128 C3_128 1_555 1_555
C3_128 N4_128 1_555 1_555
H3_128 C3_128 1_555 1_555
C4_128 N9_128 1_555 1_555
H4_128 C4_128 1_555 1_555
C5_128 N3_128 1_555 1_555
H5_128 C5_128 1_555 1_555
C6_121 N1_128 1_555 1_555
H6_128 C6_121 1_555 1_555
C7_128 N7_121 1_555 1_555
H7_128 C7_128 1_555 1_555
C8_128 N15_90 1_555 1_555
H8_128 C8_128 1_555 1_555
N12_121 N7_121 1_555 1_555
Cu4_47 N6_52 1_555 1_555
N13_74 Cu1_74 1_555 1_555
N14_94 Cu1_74 1_555 1_555
N3_128 N4_128 1_555 1_555
C2_121 N12_121 1_555 1_555
N9_128 C8_128 1_555 1_555
N11_128 C5_128 1_555 1_555
C6_121 N12_121 1_555 1_555
Cu1_75 N2_129 1_555 1_555
Cu6_32 N1_129 1_555 1_555
N1_129 N2_129 1_555 1_555
N2_129 C2_122 1_555 1_555
N3_129 Cu1_75 1_555 1_555
N4_129 Cu6_32 1_555 1_555
C2_122 H2_122 1_555 1_555
N15_25 N16_45 1_555 1_555
N9_129 N11_129 1_555 1_555
N16_45 C4_129 1_555 1_555
N11_129 C3_129 1_555 1_555
C3_129 N4_129 1_555 1_555
H3_129 C3_129 1_555 1_555
C4_129 N9_129 1_555 1_555
H4_129 C4_129 1_555 1_555
C5_129 N3_129 1_555 1_555
H5_129 C5_129 1_555 1_555
C6_122 N1_129 1_555 1_555
C8_129 N15_25 1_555 1_555
H8_129 C8_129 1_555 1_555
N12_122 N7_122 1_555 1_555
N13_75 Cu1_75 1_555 1_555
N14_95 Cu1_75 1_555 1_555
N3_129 N4_129 1_555 1_555
C2_122 N12_122 1_555 1_555
N9_129 C8_129 1_555 1_555
N11_129 C5_129 1_555 1_555
C6_122 N12_122 1_555 1_555
N13_51 N14_87 1_555 1_555
N14_87 C7_129 1_555 1_555
C1_129 N13_51 1_555 1_555
H1_129 C1_129 1_555 1_555
H7_129 C7_129 1_555 1_555
Cu3_24 N2_130 1_555 1_555
Cu6_34 N1_130 1_555 1_555
N1_130 N2_130 1_555 1_555
N2_130 C2_123 1_555 1_555
N3_130 Cu3_24 1_555 1_555
N4_130 Cu6_34 1_555 1_555
N5_77 N14_88 1_555 1_555
N14_88 C7_130 1_555 1_555
C1_130 N5_77 1_555 1_555
H1_130 C1_130 1_555 1_555
N7_123 C1_130 1_555 1_555
C2_123 H2_123 1_555 1_555
N15_2 N16_17 1_555 1_555
N9_130 N11_130 1_555 1_555
N16_17 C4_130 1_555 1_555
N11_130 C3_130 1_555 1_555
C3_130 N4_130 1_555 1_555
H3_130 C3_130 1_555 1_555
C4_130 N9_130 1_555 1_555
H4_130 C4_130 1_555 1_555
C5_130 N3_130 1_555 1_555
H5_130 C5_130 1_555 1_555
C6_123 N1_130 1_555 1_555
H6_130 C6_123 1_555 1_555
C7_130 N7_123 1_555 1_555
H7_130 C7_130 1_555 1_555
C8_130 N15_2 1_555 1_555
H8_130 C8_130 1_555 1_555
N12_123 N7_123 1_555 1_555
Cu4_49 N5_77 1_555 1_555
N3_130 N4_130 1_555 1_555
C2_123 N12_123 1_555 1_555
N9_130 C8_130 1_555 1_555
N11_130 C5_130 1_555 1_555
C6_123 N12_123 1_555 1_555
Cu1_76 N2_131 1_555 1_555
Cu5_18 N1_131 1_555 1_555
N1_131 N2_131 1_555 1_555
N2_131 C2_124 1_555 1_555
N3_131 Cu1_76 1_555 1_555
N4_131 Cu5_18 1_555 1_555
N13_49 N14_89 1_555 1_555
N14_89 C7_131 1_555 1_555
C1_131 N13_49 1_555 1_555
H1_131 C1_131 1_555 1_555
N7_124 C1_131 1_555 1_555
C2_124 H2_124 1_555 1_555
N15_51 N16_91 1_555 1_555
N9_131 N11_131 1_555 1_555
N16_91 C4_131 1_555 1_555
N11_131 C3_131 1_555 1_555
C3_131 N4_131 1_555 1_555
H3_131 C3_131 1_555 1_555
C4_131 N9_131 1_555 1_555
H4_131 C4_131 1_555 1_555
C5_131 N3_131 1_555 1_555
H5_131 C5_131 1_555 1_555
C6_124 N1_131 1_555 1_555
H6_131 C6_124 1_555 1_555
C7_131 N7_124 1_555 1_555
H7_131 C7_131 1_555 1_555
C8_131 N15_51 1_555 1_555
H8_131 C8_131 1_555 1_555
N12_124 N7_124 1_555 1_555
N13_76 Cu1_76 1_555 1_555
N14_96 Cu1_76 1_555 1_555
N3_131 N4_131 1_555 1_555
C2_124 N12_124 1_555 1_555
N9_131 C8_131 1_555 1_555
N11_131 C5_131 1_555 1_555
C6_124 N12_124 1_555 1_555
Cu1_77 N2_132 1_555 1_555
Cu5_47 N1_132 1_555 1_555
N1_132 N2_132 1_555 1_555
N3_132 Cu1_77 1_555 1_555
N4_132 Cu5_47 1_555 1_555
N15_76 N16_47 1_555 1_555
N9_132 N11_132 1_555 1_555
N16_47 C4_132 1_555 1_555
N11_132 C3_132 1_555 1_555
C3_132 N4_132 1_555 1_555
H3_132 C3_132 1_555 1_555
C4_132 N9_132 1_555 1_555
H4_132 C4_132 1_555 1_555
C5_132 N3_132 1_555 1_555
H5_132 C5_132 1_555 1_555
C8_132 N15_76 1_555 1_555
H8_132 C8_132 1_555 1_555
N13_77 Cu1_77 1_555 1_555
N14_97 Cu1_77 1_555 1_555
N3_132 N4_132 1_555 1_555
N9_132 C8_132 1_555 1_555
N11_132 C5_132 1_555 1_555
N5_78 N14_90 1_555 1_555
N14_90 C7_132 1_555 1_555
C1_132 N5_78 1_555 1_555
H1_132 C1_132 1_555 1_555
N7_125 C1_132 1_555 1_555
C2_125 H2_125 1_555 1_555
H6_132 C6_125 1_555 1_555
C7_132 N7_125 1_555 1_555
H7_132 C7_132 1_555 1_555
N12_125 N7_125 1_555 1_555
Cu4_50 N5_78 1_555 1_555
C2_125 N12_125 1_555 1_555
C6_125 N12_125 1_555 1_555
Cu4_43 N2_133 1_555 1_555
Cu5_21 N1_133 1_555 1_555
N1_133 N2_133 1_555 1_555
N2_133 C2_126 1_555 1_555
N3_133 Cu4_43 1_555 1_555
N4_133 Cu5_21 1_555 1_555
N13_55 N14_91 1_555 1_555
N14_91 C7_133 1_555 1_555
C1_133 N13_55 1_555 1_555
H1_133 C1_133 1_555 1_555
N7_126 C1_133 1_555 1_555
C2_126 H2_126 1_555 1_555
N15_5 N16_92 1_555 1_555
N9_133 N11_133 1_555 1_555
N16_92 C4_133 1_555 1_555
N11_133 C3_133 1_555 1_555
C3_133 N4_133 1_555 1_555
H3_133 C3_133 1_555 1_555
C4_133 N9_133 1_555 1_555
H4_133 C4_133 1_555 1_555
C5_133 N3_133 1_555 1_555
H5_133 C5_133 1_555 1_555
C6_126 N1_133 1_555 1_555
H6_133 C6_126 1_555 1_555
C7_133 N7_126 1_555 1_555
H7_133 C7_133 1_555 1_555
C8_133 N15_5 1_555 1_555
H8_133 C8_133 1_555 1_555
N12_126 N7_126 1_555 1_555
N3_133 N4_133 1_555 1_555
C2_126 N12_126 1_555 1_555
N9_133 C8_133 1_555 1_555
N11_133 C5_133 1_555 1_555
C6_126 N12_126 1_555 1_555
N5_79 N14_92 1_555 1_555
N14_92 C7_134 1_555 1_555
C1_134 N5_79 1_555 1_555
H1_134 C1_134 1_555 1_555
H7_134 C7_134 1_555 1_555
Cu4_51 N5_79 1_555 1_555
Cu1_78 N2_134 1_555 1_555
Cu6_35 N1_134 1_555 1_555
N1_134 N2_134 1_555 1_555
N2_134 C2_127 1_555 1_555
N3_134 Cu1_78 1_555 1_555
N4_134 Cu6_35 1_555 1_555
C2_127 H2_127 1_555 1_555
N15_54 N16_48 1_555 1_555
N9_134 N11_134 1_555 1_555
N16_48 C4_134 1_555 1_555
N11_134 C3_134 1_555 1_555
C3_134 N4_134 1_555 1_555
H3_134 C3_134 1_555 1_555
C4_134 N9_134 1_555 1_555
H4_134 C4_134 1_555 1_555
C5_134 N3_134 1_555 1_555
H5_134 C5_134 1_555 1_555
C6_127 N1_134 1_555 1_555
C8_134 N15_54 1_555 1_555
H8_134 C8_134 1_555 1_555
N12_127 N7_127 1_555 1_555
N13_78 Cu1_78 1_555 1_555
N14_98 Cu1_78 1_555 1_555
N3_134 N4_134 1_555 1_555
C2_127 N12_127 1_555 1_555
N9_134 C8_134 1_555 1_555
N11_134 C5_134 1_555 1_555
C6_127 N12_127 1_555 1_555
Cu1_79 N2_135 1_555 1_555
Cu6_23 N1_135 1_555 1_555
N1_135 N2_135 1_555 1_555
N2_135 C2_128 1_555 1_555
N3_135 Cu1_79 1_555 1_555
N4_135 Cu6_23 1_555 1_555
N13_53 N14_93 1_555 1_555
N14_93 C7_135 1_555 1_555
C1_135 N13_53 1_555 1_555
H1_135 C1_135 1_555 1_555
N7_128 C1_135 1_555 1_555
C2_128 H2_128 1_555 1_555
N15_79 N16_42 1_555 1_555
N9_135 N11_135 1_555 1_555
N16_42 C4_135 1_555 1_555
N11_135 C3_135 1_555 1_555
C3_135 N4_135 1_555 1_555
H3_135 C3_135 1_555 1_555
C4_135 N9_135 1_555 1_555
H4_135 C4_135 1_555 1_555
C5_135 N3_135 1_555 1_555
H5_135 C5_135 1_555 1_555
C6_128 N1_135 1_555 1_555
H6_135 C6_128 1_555 1_555
C7_135 N7_128 1_555 1_555
H7_135 C7_135 1_555 1_555
C8_135 N15_79 1_555 1_555
H8_135 C8_135 1_555 1_555
N12_128 N7_128 1_555 1_555
N13_79 Cu1_79 1_555 1_555
N14_99 Cu1_79 1_555 1_555
N3_135 N4_135 1_555 1_555
C2_128 N12_128 1_555 1_555
N9_135 C8_135 1_555 1_555
N11_135 C5_135 1_555 1_555
C6_128 N12_128 1_555 1_555
Cu1_80 N2_136 1_555 1_555
Cu6_48 N1_136 1_555 1_555
N1_136 N2_136 1_555 1_555
N3_136 Cu1_80 1_555 1_555
N4_136 Cu6_48 1_555 1_555
N15_32 N16_22 1_555 1_555
N9_136 N11_136 1_555 1_555
N16_22 C4_136 1_555 1_555
N11_136 C3_136 1_555 1_555
C3_136 N4_136 1_555 1_555
H3_136 C3_136 1_555 1_555
C4_136 N9_136 1_555 1_555
H4_136 C4_136 1_555 1_555
C5_136 N3_136 1_555 1_555
H5_136 C5_136 1_555 1_555
C8_136 N15_32 1_555 1_555
H8_136 C8_136 1_555 1_555
N13_80 Cu1_80 1_555 1_555
N14_100 Cu1_80 1_555 1_555
N3_136 N4_136 1_555 1_555
N9_136 C8_136 1_555 1_555
N11_136 C5_136 1_555 1_555
N5_80 N14_94 1_555 1_555
N14_94 C7_136 1_555 1_555
C1_136 N5_80 1_555 1_555
H1_136 C1_136 1_555 1_555
N7_129 C1_136 1_555 1_555
C2_129 H2_129 1_555 1_555
H6_136 C6_129 1_555 1_555
C7_136 N7_129 1_555 1_555
H7_136 C7_136 1_555 1_555
N12_129 N7_129 1_555 1_555
Cu4_52 N5_80 1_555 1_555
C2_129 N12_129 1_555 1_555
C6_129 N12_129 1_555 1_555
N13_61 N14_95 1_555 1_555
N14_95 C7_137 1_555 1_555
C1_137 N13_61 1_555 1_555
H1_137 C1_137 1_555 1_555
N7_130 C1_137 1_555 1_555
C2_130 H2_130 1_555 1_555
H6_137 C6_130 1_555 1_555
C7_137 N7_130 1_555 1_555
H7_137 C7_137 1_555 1_555
N12_130 N7_130 1_555 1_555
C2_130 N12_130 1_555 1_555
C6_130 N12_130 1_555 1_555
Cu3_26 N2_137 1_555 1_555
Cu5_10 N1_137 1_555 1_555
N1_137 N2_137 1_555 1_555
N3_137 Cu3_26 1_555 1_555
N4_137 Cu5_10 1_555 1_555
N15_33 N16_62 1_555 1_555
N9_137 N11_137 1_555 1_555
N16_62 C4_137 1_555 1_555
N11_137 C3_137 1_555 1_555
C3_137 N4_137 1_555 1_555
H3_137 C3_137 1_555 1_555
C4_137 N9_137 1_555 1_555
H4_137 C4_137 1_555 1_555
C5_137 N3_137 1_555 1_555
H5_137 C5_137 1_555 1_555
C8_137 N15_33 1_555 1_555
H8_137 C8_137 1_555 1_555
N3_137 N4_137 1_555 1_555
N9_137 C8_137 1_555 1_555
N11_137 C5_137 1_555 1_555
Cu1_81 N2_138 1_555 1_555
Cu5_31 N1_138 1_555 1_555
N1_138 N2_138 1_555 1_555
N3_138 Cu1_81 1_555 1_555
N4_138 Cu5_31 1_555 1_555
N15_88 N16_11 1_555 1_555
N9_138 N11_138 1_555 1_555
N16_11 C4_138 1_555 1_555
N11_138 C3_138 1_555 1_555
C3_138 N4_138 1_555 1_555
H3_138 C3_138 1_555 1_555
C4_138 N9_138 1_555 1_555
H4_138 C4_138 1_555 1_555
C5_138 N3_138 1_555 1_555
H5_138 C5_138 1_555 1_555
C8_138 N15_88 1_555 1_555
H8_138 C8_138 1_555 1_555
N13_81 Cu1_81 1_555 1_555
N14_101 Cu1_81 1_555 1_555
N3_138 N4_138 1_555 1_555
N9_138 C8_138 1_555 1_555
N11_138 C5_138 1_555 1_555
N13_77 N6_53 1_555 1_555
N6_53 C7_138 1_555 1_555
C1_138 N13_77 1_555 1_555
H1_138 C1_138 1_555 1_555
H7_138 C7_138 1_555 1_555
Cu3_29 N6_53 1_555 1_555
Cu3_20 N2_139 1_555 1_555
Cu6_24 N1_139 1_555 1_555
N1_139 N2_139 1_555 1_555
N2_139 C2_131 1_555 1_555
N3_139 Cu3_20 1_555 1_555
N4_139 Cu6_24 1_555 1_555
N5_81 N14_74 1_555 1_555
N14_74 C7_139 1_555 1_555
C1_139 N5_81 1_555 1_555
H1_139 C1_139 1_555 1_555
N7_131 C1_139 1_555 1_555
C2_131 H2_131 1_555 1_555
N15_34 N16_63 1_555 1_555
N9_139 N11_139 1_555 1_555
N16_63 C4_139 1_555 1_555
N11_139 C3_139 1_555 1_555
C3_139 N4_139 1_555 1_555
H3_139 C3_139 1_555 1_555
C4_139 N9_139 1_555 1_555
H4_139 C4_139 1_555 1_555
C5_139 N3_139 1_555 1_555
H5_139 C5_139 1_555 1_555
C6_131 N1_139 1_555 1_555
H6_139 C6_131 1_555 1_555
C7_139 N7_131 1_555 1_555
H7_139 C7_139 1_555 1_555
C8_139 N15_34 1_555 1_555
H8_139 C8_139 1_555 1_555
N12_131 N7_131 1_555 1_555
Cu4_53 N5_81 1_555 1_555
N3_139 N4_139 1_555 1_555
C2_131 N12_131 1_555 1_555
N9_139 C8_139 1_555 1_555
N11_139 C5_139 1_555 1_555
C6_131 N12_131 1_555 1_555
Cu1_82 N2_140 1_555 1_555
Cu6_26 N1_140 1_555 1_555
N1_140 N2_140 1_555 1_555
N2_140 C2_132 1_555 1_555
N3_140 Cu1_82 1_555 1_555
N4_140 Cu6_26 1_555 1_555
N13_58 N6_54 1_555 1_555
N6_54 C7_140 1_555 1_555
C1_140 N13_58 1_555 1_555
H1_140 C1_140 1_555 1_555
N7_132 C1_140 1_555 1_555
C2_132 H2_132 1_555 1_555
N15_38 N16_57 1_555 1_555
N9_140 N11_140 1_555 1_555
N16_57 C4_140 1_555 1_555
N11_140 C3_140 1_555 1_555
C3_140 N4_140 1_555 1_555
H3_140 C3_140 1_555 1_555
C4_140 N9_140 1_555 1_555
H4_140 C4_140 1_555 1_555
C5_140 N3_140 1_555 1_555
H5_140 C5_140 1_555 1_555
C6_132 N1_140 1_555 1_555
H6_140 C6_132 1_555 1_555
C7_140 N7_132 1_555 1_555
H7_140 C7_140 1_555 1_555
C8_140 N15_38 1_555 1_555
H8_140 C8_140 1_555 1_555
N12_132 N7_132 1_555 1_555
Cu4_53 N6_54 1_555 1_555
N13_82 Cu1_82 1_555 1_555
N14_102 Cu1_82 1_555 1_555
N3_140 N4_140 1_555 1_555
C2_132 N12_132 1_555 1_555
N9_140 C8_140 1_555 1_555
N11_140 C5_140 1_555 1_555
C6_132 N12_132 1_555 1_555
N5_82 N14_97 1_555 1_555
N14_97 C7_141 1_555 1_555
C1_141 N5_82 1_555 1_555
H1_141 C1_141 1_555 1_555
H7_141 C7_141 1_555 1_555
Cu3_29 N5_82 1_555 1_555
Cu3_28 N2_141 1_555 1_555
Cu5_28 N1_141 1_555 1_555
N1_141 N2_141 1_555 1_555
N2_141 C2_133 1_555 1_555
N3_141 Cu3_28 1_555 1_555
N4_141 Cu5_28 1_555 1_555
C2_133 H2_133 1_555 1_555
N15_84 N16_13 1_555 1_555
N9_141 N11_141 1_555 1_555
N16_13 C4_141 1_555 1_555
N11_141 C3_141 1_555 1_555
C3_141 N4_141 1_555 1_555
H3_141 C3_141 1_555 1_555
C4_141 N9_141 1_555 1_555
H4_141 C4_141 1_555 1_555
C5_141 N3_141 1_555 1_555
H5_141 C5_141 1_555 1_555
C6_133 N1_141 1_555 1_555
C8_141 N15_84 1_555 1_555
H8_141 C8_141 1_555 1_555
N12_133 N7_133 1_555 1_555
N3_141 N4_141 1_555 1_555
C2_133 N12_133 1_555 1_555
N9_141 C8_141 1_555 1_555
N11_141 C5_141 1_555 1_555
C6_133 N12_133 1_555 1_555
Cu4_33 N2_142 1_555 1_555
Cu5_16 N1_142 1_555 1_555
N1_142 N2_142 1_555 1_555
N2_142 C2_134 1_555 1_555
N3_142 Cu4_33 1_555 1_555
N4_142 Cu5_16 1_555 1_555
N13_75 N14_77 1_555 1_555
N14_77 C7_142 1_555 1_555
C1_142 N13_75 1_555 1_555
H1_142 C1_142 1_555 1_555
N7_134 C1_142 1_555 1_555
C2_134 H2_134 1_555 1_555
N15_37 N16_60 1_555 1_555
N9_142 N11_142 1_555 1_555
N16_60 C4_142 1_555 1_555
N11_142 C3_142 1_555 1_555
C3_142 N4_142 1_555 1_555
H3_142 C3_142 1_555 1_555
C4_142 N9_142 1_555 1_555
H4_142 C4_142 1_555 1_555
C5_142 N3_142 1_555 1_555
H5_142 C5_142 1_555 1_555
C6_134 N1_142 1_555 1_555
H6_142 C6_134 1_555 1_555
C7_142 N7_134 1_555 1_555
H7_142 C7_142 1_555 1_555
C8_142 N15_37 1_555 1_555
H8_142 C8_142 1_555 1_555
N12_134 N7_134 1_555 1_555
N3_142 N4_142 1_555 1_555
C2_134 N12_134 1_555 1_555
N9_142 C8_142 1_555 1_555
N11_142 C5_142 1_555 1_555
C6_134 N12_134 1_555 1_555
Cu1_83 N2_143 1_555 1_555
Cu6_3 N1_143 1_555 1_555
N1_143 N2_143 1_555 1_555
N2_143 C2_135 1_555 1_555
N3_143 Cu1_83 1_555 1_555
N4_143 Cu6_3 1_555 1_555
N5_83 N6_55 1_555 1_555
N6_55 C7_143 1_555 1_555
C1_143 N5_83 1_555 1_555
H1_143 C1_143 1_555 1_555
N7_135 C1_143 1_555 1_555
C2_135 H2_135 1_555 1_555
N15_11 N16_88 1_555 1_555
N9_143 N11_143 1_555 1_555
N16_88 C4_143 1_555 1_555
N11_143 C3_143 1_555 1_555
C3_143 N4_143 1_555 1_555
H3_143 C3_143 1_555 1_555
C4_143 N9_143 1_555 1_555
H4_143 C4_143 1_555 1_555
C5_143 N3_143 1_555 1_555
H5_143 C5_143 1_555 1_555
C6_135 N1_143 1_555 1_555
H6_143 C6_135 1_555 1_555
C7_143 N7_135 1_555 1_555
H7_143 C7_143 1_555 1_555
C8_143 N15_11 1_555 1_555
H8_143 C8_143 1_555 1_555
N12_135 N7_135 1_555 1_555
Cu3_30 N6_55 1_555 1_555
Cu4_54 N5_83 1_555 1_555
N13_83 Cu1_83 1_555 1_555
N14_103 Cu1_83 1_555 1_555
N3_143 N4_143 1_555 1_555
C2_135 N12_135 1_555 1_555
N9_143 C8_143 1_555 1_555
N11_143 C5_143 1_555 1_555
C6_135 N12_135 1_555 1_555
Cu1_84 N2_144 1_555 1_555
Cu6_7 N1_144 1_555 1_555
N1_144 N2_144 1_555 1_555
N2_144 C2_136 1_555 1_555
N3_144 Cu1_84 1_555 1_555
N4_144 Cu6_7 1_555 1_555
N5_84 N6_56 1_555 1_555
N6_56 C7_144 1_555 1_555
C1_144 N5_84 1_555 1_555
H1_144 C1_144 1_555 1_555
N7_136 C1_144 1_555 1_555
C2_136 H2_136 1_555 1_555
N15_15 N16_82 1_555 1_555
N9_144 N11_144 1_555 1_555
N16_82 C4_144 1_555 1_555
N11_144 C3_144 1_555 1_555
C3_144 N4_144 1_555 1_555
H3_144 C3_144 1_555 1_555
C4_144 N9_144 1_555 1_555
H4_144 C4_144 1_555 1_555
C5_144 N3_144 1_555 1_555
H5_144 C5_144 1_555 1_555
C6_136 N1_144 1_555 1_555
H6_144 C6_136 1_555 1_555
C7_144 N7_136 1_555 1_555
H7_144 C7_144 1_555 1_555
C8_144 N15_15 1_555 1_555
H8_144 C8_144 1_555 1_555
N12_136 N7_136 1_555 1_555
Cu4_54 N6_56 1_555 1_555
Cu3_30 N5_84 1_555 1_555
N13_84 Cu1_84 1_555 1_555
N14_104 Cu1_84 1_555 1_555
N3_144 N4_144 1_555 1_555
C2_136 N12_136 1_555 1_555
N9_144 C8_144 1_555 1_555
N11_144 C5_144 1_555 1_555
C6_136 N12_136 1_555 1_555
N13_84 N6_57 1_555 1_555
N6_57 C7_145 1_555 1_555
C1_145 N13_84 1_555 1_555
H1_145 C1_145 1_555 1_555
N7_137 C1_145 1_555 1_555
C2_137 H2_137 1_555 1_555
H6_145 C6_137 1_555 1_555
C7_145 N7_137 1_555 1_555
H7_145 C7_145 1_555 1_555
N12_137 N7_137 1_555 1_555
Cu3_31 N6_57 1_555 1_555
C2_137 N12_137 1_555 1_555
C6_137 N12_137 1_555 1_555
Cu1_85 N2_145 1_555 1_555
Cu5_4 N1_145 1_555 1_555
N1_145 N2_145 1_555 1_555
N3_145 Cu1_85 1_555 1_555
N4_145 Cu5_4 1_555 1_555
N15_65 N16_50 1_555 1_555
N9_145 N11_145 1_555 1_555
N16_50 C4_145 1_555 1_555
N11_145 C3_145 1_555 1_555
C3_145 N4_145 1_555 1_555
H3_145 C3_145 1_555 1_555
C4_145 N9_145 1_555 1_555
H4_145 C4_145 1_555 1_555
C5_145 N3_145 1_555 1_555
H5_145 C5_145 1_555 1_555
C8_145 N15_65 1_555 1_555
H8_145 C8_145 1_555 1_555
N13_85 Cu1_85 1_555 1_555
N14_105 Cu1_85 1_555 1_555
N3_145 N4_145 1_555 1_555
N9_145 C8_145 1_555 1_555
N11_145 C5_145 1_555 1_555
N13_65 N6_58 1_555 1_555
N6_58 C7_146 1_555 1_555
C1_146 N13_65 1_555 1_555
H1_146 C1_146 1_555 1_555
H7_146 C7_146 1_555 1_555
Cu3_32 N6_58 1_555 1_555
Cu4_38 N2_146 1_555 1_555
Cu5_37 N1_146 1_555 1_555
N1_146 N2_146 1_555 1_555
N2_146 C2_138 1_555 1_555
N3_146 Cu4_38 1_555 1_555
N4_146 Cu5_37 1_555 1_555
C2_138 H2_138 1_555 1_555
N15_67 N16_75 1_555 1_555
N9_146 N11_146 1_555 1_555
N16_75 C4_146 1_555 1_555
N11_146 C3_146 1_555 1_555
C3_146 N4_146 1_555 1_555
H3_146 C3_146 1_555 1_555
C4_146 N9_146 1_555 1_555
H4_146 C4_146 1_555 1_555
C5_146 N3_146 1_555 1_555
H5_146 C5_146 1_555 1_555
C6_138 N1_146 1_555 1_555
C8_146 N15_67 1_555 1_555
H8_146 C8_146 1_555 1_555
N12_138 N7_138 1_555 1_555
N14_106 Cu4_38 1_555 1_555
N3_146 N4_146 1_555 1_555
C2_138 N12_138 1_555 1_555
N9_146 C8_146 1_555 1_555
N11_146 C5_146 1_555 1_555
C6_138 N12_138 1_555 1_555
Cu1_86 N2_147 1_555 1_555
Cu6_29 N1_147 1_555 1_555
N1_147 N2_147 1_555 1_555
N2_147 C2_139 1_555 1_555
N3_147 Cu1_86 1_555 1_555
N4_147 Cu6_29 1_555 1_555
N5_85 N14_85 1_555 1_555
N14_85 C7_147 1_555 1_555
C1_147 N5_85 1_555 1_555
H1_147 C1_147 1_555 1_555
N7_139 C1_147 1_555 1_555
C2_139 H2_139 1_555 1_555
N15_95 N16_28 1_555 1_555
N9_147 N11_147 1_555 1_555
N16_28 C4_147 1_555 1_555
N11_147 C3_147 1_555 1_555
C3_147 N4_147 1_555 1_555
H3_147 C3_147 1_555 1_555
C4_147 N9_147 1_555 1_555
H4_147 C4_147 1_555 1_555
C5_147 N3_147 1_555 1_555
H5_147 C5_147 1_555 1_555
C6_139 N1_147 1_555 1_555
H6_147 C6_139 1_555 1_555
C7_147 N7_139 1_555 1_555
H7_147 C7_147 1_555 1_555
C8_147 N15_95 1_555 1_555
H8_147 C8_147 1_555 1_555
N12_139 N7_139 1_555 1_555
Cu4_55 N5_85 1_555 1_555
N13_86 Cu1_86 1_555 1_555
N14_107 Cu1_86 1_555 1_555
N3_147 N4_147 1_555 1_555
C2_139 N12_139 1_555 1_555
N9_147 C8_147 1_555 1_555
N11_147 C5_147 1_555 1_555
C6_139 N12_139 1_555 1_555
Cu4_36 N2_148 1_555 1_555
Cu6_12 N1_148 1_555 1_555
N1_148 N2_148 1_555 1_555
N2_148 C2_140 1_555 1_555
N3_148 Cu4_36 1_555 1_555
N4_148 Cu6_12 1_555 1_555
N13_82 N6_59 1_555 1_555
N6_59 C7_148 1_555 1_555
C1_148 N13_82 1_555 1_555
H1_148 C1_148 1_555 1_555
N7_140 C1_148 1_555 1_555
C2_140 H2_140 1_555 1_555
N15_21 N16 1_555 1_555
N9_148 N11_148 1_555 1_555
N16 C4_148 1_555 1_555
N11_148 C3_148 1_555 1_555
C3_148 N4_148 1_555 1_555
H3_148 C3_148 1_555 1_555
C4_148 N9_148 1_555 1_555
H4_148 C4_148 1_555 1_555
C5_148 N3_148 1_555 1_555
H5_148 C5_148 1_555 1_555
C6_140 N1_148 1_555 1_555
H6_148 C6_140 1_555 1_555
C7_148 N7_140 1_555 1_555
H7_148 C7_148 1_555 1_555
C8_148 N15_21 1_555 1_555
H8_148 C8_148 1_555 1_555
N12_140 N7_140 1_555 1_555
Cu3_33 N6_59 1_555 1_555
N14_108 Cu4_36 1_555 1_555
N3_148 N4_148 1_555 1_555
C2_140 N12_140 1_555 1_555
N9_148 C8_148 1_555 1_555
N11_148 C5_148 1_555 1_555
C6_140 N12_140 1_555 1_555
Cu1_87 N2_149 1_555 1_555
Cu5_26 N1_149 1_555 1_555
N1_149 N2_149 1_555 1_555
N2_149 C2_141 1_555 1_555
N3_149 Cu1_87 1_555 1_555
N4_149 Cu5_26 1_555 1_555
N13_69 N6_60 1_555 1_555
N6_60 C7_149 1_555 1_555
C1_149 N13_69 1_555 1_555
H1_149 C1_149 1_555 1_555
N7_141 C1_149 1_555 1_555
C2_141 H2_141 1_555 1_555
N15_70 N16_80 1_555 1_555
N9_149 N11_149 1_555 1_555
N16_80 C4_149 1_555 1_555
N11_149 C3_149 1_555 1_555
C3_149 N4_149 1_555 1_555
H3_149 C3_149 1_555 1_555
C4_149 N9_149 1_555 1_555
H4_149 C4_149 1_555 1_555
C5_149 N3_149 1_555 1_555
H5_149 C5_149 1_555 1_555
C6_141 N1_149 1_555 1_555
H6_149 C6_141 1_555 1_555
C7_149 N7_141 1_555 1_555
H7_149 C7_149 1_555 1_555
C8_149 N15_70 1_555 1_555
H8_149 C8_149 1_555 1_555
N12_141 N7_141 1_555 1_555
Cu4_55 N6_60 1_555 1_555
N13_87 Cu1_87 1_555 1_555
N14_109 Cu1_87 1_555 1_555
N3_149 N4_149 1_555 1_555
C2_141 N12_141 1_555 1_555
N9_149 C8_149 1_555 1_555
N11_149 C5_149 1_555 1_555
C6_141 N12_141 1_555 1_555
Cu4_42 N2_150 1_555 1_555
Cu5_7 N1_150 1_555 1_555
N1_150 N2_150 1_555 1_555
N3_150 Cu4_42 1_555 1_555
N4_150 Cu5_7 1_555 1_555
N15_68 N16_29 1_555 1_555
N9_150 N11_150 1_555 1_555
N16_29 C4_150 1_555 1_555
N11_150 C3_150 1_555 1_555
C3_150 N4_150 1_555 1_555
H3_150 C3_150 1_555 1_555
C4_150 N9_150 1_555 1_555
H4_150 C4_150 1_555 1_555
C5_150 N3_150 1_555 1_555
H5_150 C5_150 1_555 1_555
C8_150 N15_68 1_555 1_555
H8_150 C8_150 1_555 1_555
N14_110 Cu4_42 1_555 1_555
N3_150 N4_150 1_555 1_555
N9_150 C8_150 1_555 1_555
N11_150 C5_150 1_555 1_555
N5_86 N14_102 1_555 1_555
N14_102 C7_150 1_555 1_555
C1_150 N5_86 1_555 1_555
H1_150 C1_150 1_555 1_555
N7_142 C1_150 1_555 1_555
C2_142 H2_142 1_555 1_555
H6_150 C6_142 1_555 1_555
C7_150 N7_142 1_555 1_555
H7_150 C7_150 1_555 1_555
N12_142 N7_142 1_555 1_555
Cu3_33 N5_86 1_555 1_555
C2_142 N12_142 1_555 1_555
C6_142 N12_142 1_555 1_555
Cu1_88 N2_151 1_555 1_555
Cu6_15 N1_151 1_555 1_555
N1_151 N2_151 1_555 1_555
N2_151 C2_143 1_555 1_555
N3_151 Cu1_88 1_555 1_555
N4_151 Cu6_15 1_555 1_555
N5_87 N14_104 1_555 1_555
N14_104 C7_151 1_555 1_555
C1_151 N5_87 1_555 1_555
H1_151 C1_151 1_555 1_555
N7_143 C1_151 1_555 1_555
C2_143 H2_143 1_555 1_555
N15_96 N16_6 1_555 1_555
N9_151 N11_151 1_555 1_555
N16_6 C4_151 1_555 1_555
N11_151 C3_151 1_555 1_555
C3_151 N4_151 1_555 1_555
H3_151 C3_151 1_555 1_555
C4_151 N9_151 1_555 1_555
H4_151 C4_151 1_555 1_555
C5_151 N3_151 1_555 1_555
H5_151 C5_151 1_555 1_555
C6_143 N1_151 1_555 1_555
H6_151 C6_143 1_555 1_555
C7_151 N7_143 1_555 1_555
H7_151 C7_151 1_555 1_555
C8_151 N15_96 1_555 1_555
H8_151 C8_151 1_555 1_555
N12_143 N7_143 1_555 1_555
Cu3_31 N5_87 1_555 1_555
N13_88 Cu1_88 1_555 1_555
N14_111 Cu1_88 1_555 1_555
N3_151 N4_151 1_555 1_555
C2_143 N12_143 1_555 1_555
N9_151 C8_151 1_555 1_555
N11_151 C5_151 1_555 1_555
C6_143 N12_143 1_555 1_555
N5_88 N14_81 1_555 1_555
N14_81 C7_152 1_555 1_555
C1_152 N5_88 1_555 1_555
H1_152 C1_152 1_555 1_555
H7_152 C7_152 1_555 1_555
Cu3_32 N5_88 1_555 1_555
Cu4_40 N2_152 1_555 1_555
Cu6_44 N1_152 1_555 1_555
N1_152 N2_152 1_555 1_555
N2_152 C2_144 1_555 1_555
N3_152 Cu4_40 1_555 1_555
N4_152 Cu6_44 1_555 1_555
C2_144 H2_144 1_555 1_555
N15_18 N16_55 1_555 1_555
N9_152 N11_152 1_555 1_555
N16_55 C4_152 1_555 1_555
N11_152 C3_152 1_555 1_555
C3_152 N4_152 1_555 1_555
H3_152 C3_152 1_555 1_555
C4_152 N9_152 1_555 1_555
H4_152 C4_152 1_555 1_555
C5_152 N3_152 1_555 1_555
H5_152 C5_152 1_555 1_555
C6_144 N1_152 1_555 1_555
C8_152 N15_18 1_555 1_555
H8_152 C8_152 1_555 1_555
N12_144 N7_144 1_555 1_555
N14_112 Cu4_40 1_555 1_555
N3_152 N4_152 1_555 1_555
C2_144 N12_144 1_555 1_555
N9_152 C8_152 1_555 1_555
N11_152 C5_152 1_555 1_555
C6_144 N12_144 1_555 1_555
N5_89 N14_105 1_555 1_555
N14_105 C7_153 1_555 1_555
C1_153 N5_89 1_555 1_555
H1_153 C1_153 1_555 1_555
H7_153 C7_153 1_555 1_555
Cu4_56 N5_89 1_555 1_555
Cu1_89 N2_153 1_555 1_555
Cu5_35 N1_153 1_555 1_555
N1_153 N2_153 1_555 1_555
N3_153 Cu1_89 1_555 1_555
N4_153 Cu5_35 1_555 1_555
N15_49 N16_69 1_555 1_555
N9_153 N11_153 1_555 1_555
N16_69 C4_153 1_555 1_555
N11_153 C3_153 1_555 1_555
C3_153 N4_153 1_555 1_555
H3_153 C3_153 1_555 1_555
C4_153 N9_153 1_555 1_555
H4_153 C4_153 1_555 1_555
C5_153 N3_153 1_555 1_555
H5_153 C5_153 1_555 1_555
C8_153 N15_49 1_555 1_555
H8_153 C8_153 1_555 1_555
N13_89 Cu1_89 1_555 1_555
N14_113 Cu1_89 1_555 1_555
N3_153 N4_153 1_555 1_555
N9_153 C8_153 1_555 1_555
N11_153 C5_153 1_555 1_555
Cu1_90 N2_154 1_555 1_555
Cu5_23 N1_154 1_555 1_555
N1_154 N2_154 1_555 1_555
N2_154 C2_145 1_555 1_555
N3_154 Cu1_90 1_555 1_555
N4_154 Cu5_23 1_555 1_555
N13_52 N14_106 1_555 1_555
N14_106 C7_154 1_555 1_555
C1_154 N13_52 1_555 1_555
H1_154 C1_154 1_555 1_555
N7_145 C1_154 1_555 1_555
C2_145 H2_145 1_555 1_555
N15_74 N16_89 1_555 1_555
N9_154 N11_154 1_555 1_555
N16_89 C4_154 1_555 1_555
N11_154 C3_154 1_555 1_555
C3_154 N4_154 1_555 1_555
H3_154 C3_154 1_555 1_555
C4_154 N9_154 1_555 1_555
H4_154 C4_154 1_555 1_555
C5_154 N3_154 1_555 1_555
H5_154 C5_154 1_555 1_555
C6_145 N1_154 1_555 1_555
H6_154 C6_145 1_555 1_555
C7_154 N7_145 1_555 1_555
H7_154 C7_154 1_555 1_555
C8_154 N15_74 1_555 1_555
H8_154 C8_154 1_555 1_555
N12_145 N7_145 1_555 1_555
N13_90 Cu1_90 1_555 1_555
N14_114 Cu1_90 1_555 1_555
N3_154 N4_154 1_555 1_555
C2_145 N12_145 1_555 1_555
N9_154 C8_154 1_555 1_555
N11_154 C5_154 1_555 1_555
C6_145 N12_145 1_555 1_555
Cu3_25 N2_155 1_555 1_555
Cu5_48 N1_155 1_555 1_555
N1_155 N2_155 1_555 1_555
N2_155 C2_146 1_555 1_555
N3_155 Cu3_25 1_555 1_555
N4_155 Cu5_48 1_555 1_555
N5_90 N14_107 1_555 1_555
N14_107 C7_155 1_555 1_555
C1_155 N5_90 1_555 1_555
H1_155 C1_155 1_555 1_555
N7_146 C1_155 1_555 1_555
C2_146 H2_146 1_555 1_555
N15_27 N16_19 1_555 1_555
N9_155 N11_155 1_555 1_555
N16_19 C4_155 1_555 1_555
N11_155 C3_155 1_555 1_555
C3_155 N4_155 1_555 1_555
H3_155 C3_155 1_555 1_555
C4_155 N9_155 1_555 1_555
H4_155 C4_155 1_555 1_555
C5_155 N3_155 1_555 1_555
H5_155 C5_155 1_555 1_555
C6_146 N1_155 1_555 1_555
H6_155 C6_146 1_555 1_555
C7_155 N7_146 1_555 1_555
H7_155 C7_155 1_555 1_555
C8_155 N15_27 1_555 1_555
H8_155 C8_155 1_555 1_555
N12_146 N7_146 1_555 1_555
Cu4_57 N5_90 1_555 1_555
N3_155 N4_155 1_555 1_555
C2_146 N12_146 1_555 1_555
N9_155 C8_155 1_555 1_555
N11_155 C5_155 1_555 1_555
C6_146 N12_146 1_555 1_555
Cu1_91 N2_156 1_555 1_555
Cu6_21 N1_156 1_555 1_555
N1_156 N2_156 1_555 1_555
N2_156 C2_147 1_555 1_555
N3_156 Cu1_91 1_555 1_555
N4_156 Cu6_21 1_555 1_555
N13_50 N14_108 1_555 1_555
N14_108 C7_156 1_555 1_555
C1_156 N13_50 1_555 1_555
H1_156 C1_156 1_555 1_555
N7_147 C1_156 1_555 1_555
C2_147 H2_147 1_555 1_555
N15_4 N16_71 1_555 1_555
N9_156 N11_156 1_555 1_555
N16_71 C4_156 1_555 1_555
N11_156 C3_156 1_555 1_555
C3_156 N4_156 1_555 1_555
H3_156 C3_156 1_555 1_555
C4_156 N9_156 1_555 1_555
H4_156 C4_156 1_555 1_555
C5_156 N3_156 1_555 1_555
H5_156 C5_156 1_555 1_555
C6_147 N1_156 1_555 1_555
H6_156 C6_147 1_555 1_555
C7_156 N7_147 1_555 1_555
H7_156 C7_156 1_555 1_555
C8_156 N15_4 1_555 1_555
H8_156 C8_156 1_555 1_555
N12_147 N7_147 1_555 1_555
N13_91 Cu1_91 1_555 1_555
N14_115 Cu1_91 1_555 1_555
N3_156 N4_156 1_555 1_555
C2_147 N12_147 1_555 1_555
N9_156 C8_156 1_555 1_555
N11_156 C5_156 1_555 1_555
C6_147 N12_147 1_555 1_555
N5_91 N14_109 1_555 1_555
N14_109 C7_157 1_555 1_555
C1_157 N5_91 1_555 1_555
H1_157 C1_157 1_555 1_555
N7_148 C1_157 1_555 1_555
C2_148 H2_148 1_555 1_555
H6_157 C6_148 1_555 1_555
C7_157 N7_148 1_555 1_555
H7_157 C7_157 1_555 1_555
N12_148 N7_148 1_555 1_555
Cu4_58 N5_91 1_555 1_555
C2_148 N12_148 1_555 1_555
C6_148 N12_148 1_555 1_555
Cu1_92 N2_157 1_555 1_555
Cu6_47 N1_157 1_555 1_555
N1_157 N2_157 1_555 1_555
N3_157 Cu1_92 1_555 1_555
N4_157 Cu6_47 1_555 1_555
N15_77 N16_20 1_555 1_555
N9_157 N11_157 1_555 1_555
N16_20 C4_157 1_555 1_555
N11_157 C3_157 1_555 1_555
C3_157 N4_157 1_555 1_555
H3_157 C3_157 1_555 1_555
C4_157 N9_157 1_555 1_555
H4_157 C4_157 1_555 1_555
C5_157 N3_157 1_555 1_555
H5_157 C5_157 1_555 1_555
C8_157 N15_77 1_555 1_555
H8_157 C8_157 1_555 1_555
N13_92 Cu1_92 1_555 1_555
N14_116 Cu1_92 1_555 1_555
N3_157 N4_157 1_555 1_555
N9_157 C8_157 1_555 1_555
N11_157 C5_157 1_555 1_555
N13_56 N14_110 1_555 1_555
N14_110 C7_158 1_555 1_555
C1_158 N13_56 1_555 1_555
H1_158 C1_158 1_555 1_555
H7_158 C7_158 1_555 1_555
Cu4_53 N2_158 1_555 1_555
Cu5_32 N1_158 1_555 1_555
N1_158 N2_158 1_555 1_555
N2_158 C2_149 1_555 1_555
N3_158 Cu4_53 1_555 1_555
N4_158 Cu5_32 1_555 1_555
C2_149 H2_149 1_555 1_555
N15_30 N16_72 1_555 1_555
N9_158 N11_158 1_555 1_555
N16_72 C4_158 1_555 1_555
N11_158 C3_158 1_555 1_555
C3_158 N4_158 1_555 1_555
H3_158 C3_158 1_555 1_555
C4_158 N9_158 1_555 1_555
H4_158 C4_158 1_555 1_555
C5_158 N3_158 1_555 1_555
H5_158 C5_158 1_555 1_555
C6_149 N1_158 1_555 1_555
C8_158 N15_30 1_555 1_555
H8_158 C8_158 1_555 1_555
N12_149 N7_149 1_555 1_555
N3_158 N4_158 1_555 1_555
C2_149 N12_149 1_555 1_555
N9_158 C8_158 1_555 1_555
N11_158 C5_158 1_555 1_555
C6_149 N12_149 1_555 1_555
Cu4_54 N2_159 1_555 1_555
Cu5_34 N1_159 1_555 1_555
N1_159 N2_159 1_555 1_555
N2_159 C2_150 1_555 1_555
N3_159 Cu4_54 1_555 1_555
N4_159 Cu5_34 1_555 1_555
N5_92 N14_111 1_555 1_555
N14_111 C7_159 1_555 1_555
C1_159 N5_92 1_555 1_555
H1_159 C1_159 1_555 1_555
N7_150 C1_159 1_555 1_555
C2_150 H2_150 1_555 1_555
N15_7 N16_66 1_555 1_555
N9_159 N11_159 1_555 1_555
N16_66 C4_159 1_555 1_555
N11_159 C3_159 1_555 1_555
C3_159 N4_159 1_555 1_555
H3_159 C3_159 1_555 1_555
C4_159 N9_159 1_555 1_555
H4_159 C4_159 1_555 1_555
C5_159 N3_159 1_555 1_555
H5_159 C5_159 1_555 1_555
C6_150 N1_159 1_555 1_555
H6_159 C6_150 1_555 1_555
C7_159 N7_150 1_555 1_555
H7_159 C7_159 1_555 1_555
C8_159 N15_7 1_555 1_555
H8_159 C8_159 1_555 1_555
N12_150 N7_150 1_555 1_555
Cu4_59 N5_92 1_555 1_555
N3_159 N4_159 1_555 1_555
C2_150 N12_150 1_555 1_555
N9_159 C8_159 1_555 1_555
N11_159 C5_159 1_555 1_555
C6_150 N12_150 1_555 1_555
Cu3_23 N2_160 1_555 1_555
Cu6_18 N1_160 1_555 1_555
N1_160 N2_160 1_555 1_555
N2_160 C2_151 1_555 1_555
N3_160 Cu3_23 1_555 1_555
N4_160 Cu6_18 1_555 1_555
N13_54 N14_112 1_555 1_555
N14_112 C7_160 1_555 1_555
C1_160 N13_54 1_555 1_555
H1_160 C1_160 1_555 1_555
N7_151 C1_160 1_555 1_555
C2_151 H2_151 1_555 1_555
N15_56 N16_94 1_555 1_555
N9_160 N11_160 1_555 1_555
N16_94 C4_160 1_555 1_555
N11_160 C3_160 1_555 1_555
C3_160 N4_160 1_555 1_555
H3_160 C3_160 1_555 1_555
C4_160 N9_160 1_555 1_555
H4_160 C4_160 1_555 1_555
C5_160 N3_160 1_555 1_555
H5_160 C5_160 1_555 1_555
C6_151 N1_160 1_555 1_555
H6_160 C6_151 1_555 1_555
C7_160 N7_151 1_555 1_555
H7_160 C7_160 1_555 1_555
C8_160 N15_56 1_555 1_555
H8_160 C8_160 1_555 1_555
N12_151 N7_151 1_555 1_555
N3_160 N4_160 1_555 1_555
C2_151 N12_151 1_555 1_555
N9_160 C8_160 1_555 1_555
N11_160 C5_160 1_555 1_555
C6_151 N12_151 1_555 1_555
Cu3_31 N2_161 1_555 1_555
Cu6_37 N1_161 1_555 1_555
N1_161 N2_161 1_555 1_555
N2_161 C2_152 1_555 1_555
N3_161 Cu3_31 1_555 1_555
N4_161 Cu6_37 1_555 1_555
C2_152 H2_152 1_555 1_555
N15_57 N16_38 1_555 1_555
N9_161 N11_161 1_555 1_555
N16_38 C4_161 1_555 1_555
N11_161 C3_161 1_555 1_555
C3_161 N4_161 1_555 1_555
H3_161 C3_161 1_555 1_555
C4_161 N9_161 1_555 1_555
H4_161 C4_161 1_555 1_555
C5_161 N3_161 1_555 1_555
H5_161 C5_161 1_555 1_555
C6_152 N1_161 1_555 1_555
C8_161 N15_57 1_555 1_555
H8_161 C8_161 1_555 1_555
N12_152 N7_152 1_555 1_555
N3_161 N4_161 1_555 1_555
C2_152 N12_152 1_555 1_555
N9_161 C8_161 1_555 1_555
N11_161 C5_161 1_555 1_555
C6_152 N12_152 1_555 1_555
N5_93 N14_113 1_555 1_555
N14_113 C7_161 1_555 1_555
C1_161 N5_93 1_555 1_555
H1_161 C1_161 1_555 1_555
H7_161 C7_161 1_555 1_555
Cu4_60 N5_93 1_555 1_555
Cu4_32 N2_162 1_555 1_555
Cu6_8 N1_162 1_555 1_555
N1_162 N2_162 1_555 1_555
N2_162 C2_153 1_555 1_555
N3_162 Cu4_32 1_555 1_555
N4_162 Cu6_8 1_555 1_555
N13_91 N14_80 1_555 1_555
N14_80 C7_162 1_555 1_555
C1_162 N13_91 1_555 1_555
H1_162 C1_162 1_555 1_555
N7_153 C1_162 1_555 1_555
C2_153 H2_153 1_555 1_555
N15_16 N16_83 1_555 1_555
N9_162 N11_162 1_555 1_555
N16_83 C4_162 1_555 1_555
N11_162 C3_162 1_555 1_555
C3_162 N4_162 1_555 1_555
H3_162 C3_162 1_555 1_555
C4_162 N9_162 1_555 1_555
H4_162 C4_162 1_555 1_555
C5_162 N3_162 1_555 1_555
H5_162 C5_162 1_555 1_555
C6_153 N1_162 1_555 1_555
H6_162 C6_153 1_555 1_555
C7_162 N7_153 1_555 1_555
H7_162 C7_162 1_555 1_555
C8_162 N15_16 1_555 1_555
H8_162 C8_162 1_555 1_555
N12_153 N7_153 1_555 1_555
N3_162 N4_162 1_555 1_555
C2_153 N12_153 1_555 1_555
N9_162 C8_162 1_555 1_555
N11_162 C5_162 1_555 1_555
C6_153 N12_153 1_555 1_555
Cu1_93 N2_163 1_555 1_555
Cu5_11 N1_163 1_555 1_555
N1_163 N2_163 1_555 1_555
N3_163 Cu1_93 1_555 1_555
N4_163 Cu5_11 1_555 1_555
N15_58 N16_39 1_555 1_555
N9_163 N11_163 1_555 1_555
N16_39 C4_163 1_555 1_555
N11_163 C3_163 1_555 1_555
C3_163 N4_163 1_555 1_555
H3_163 C3_163 1_555 1_555
C4_163 N9_163 1_555 1_555
H4_163 C4_163 1_555 1_555
C5_163 N3_163 1_555 1_555
H5_163 C5_163 1_555 1_555
C8_163 N15_58 1_555 1_555
H8_163 C8_163 1_555 1_555
N13_93 Cu1_93 1_555 1_555
N14_117 Cu1_93 1_555 1_555
N3_163 N4_163 1_555 1_555
N9_163 C8_163 1_555 1_555
N11_163 C5_163 1_555 1_555
N13_78 N6_61 1_555 1_555
N6_61 C7_163 1_555 1_555
C1_163 N13_78 1_555 1_555
H1_163 C1_163 1_555 1_555
N7_154 C1_163 1_555 1_555
C2_154 H2_154 1_555 1_555
H6_163 C6_154 1_555 1_555
C7_163 N7_154 1_555 1_555
H7_163 C7_163 1_555 1_555
N12_154 N7_154 1_555 1_555
Cu3_34 N6_61 1_555 1_555
C2_154 N12_154 1_555 1_555
C6_154 N12_154 1_555 1_555
Cu4_48 N2_164 1_555 1_555
Cu5_13 N1_164 1_555 1_555
N1_164 N2_164 1_555 1_555
N2_164 C2_155 1_555 1_555
N3_164 Cu4_48 1_555 1_555
N4_164 Cu5_13 1_555 1_555
N5_94 N14_98 1_555 1_555
N14_98 C7_164 1_555 1_555
C1_164 N5_94 1_555 1_555
H1_164 C1_164 1_555 1_555
N7_155 C1_164 1_555 1_555
C2_155 H2_155 1_555 1_555
N15_62 N16_33 1_555 1_555
N9_164 N11_164 1_555 1_555
N16_33 C4_164 1_555 1_555
N11_164 C3_164 1_555 1_555
C3_164 N4_164 1_555 1_555
H3_164 C3_164 1_555 1_555
C4_164 N9_164 1_555 1_555
H4_164 C4_164 1_555 1_555
C5_164 N3_164 1_555 1_555
H5_164 C5_164 1_555 1_555
C6_155 N1_164 1_555 1_555
H6_164 C6_155 1_555 1_555
C7_164 N7_155 1_555 1_555
H7_164 C7_164 1_555 1_555
C8_164 N15_62 1_555 1_555
H8_164 C8_164 1_555 1_555
N12_155 N7_155 1_555 1_555
Cu3_34 N5_94 1_555 1_555
N3_164 N4_164 1_555 1_555
C2_155 N12_155 1_555 1_555
N9_164 C8_164 1_555 1_555
N11_164 C5_164 1_555 1_555
C6_155 N12_155 1_555 1_555
Cu3_33 N2_165 1_555 1_555
Cu6_4 N1_165 1_555 1_555
N1_165 N2_165 1_555 1_555
N2_165 C2_156 1_555 1_555
N3_165 Cu3_33 1_555 1_555
N4_165 Cu6_4 1_555 1_555
N13_64 N14_115 1_555 1_555
N14_115 C7_165 1_555 1_555
C1_165 N13_64 1_555 1_555
H1_165 C1_165 1_555 1_555
N7_156 C1_165 1_555 1_555
C2_156 H2_156 1_555 1_555
N15_12 N16_85 1_555 1_555
N9_165 N11_165 1_555 1_555
N16_85 C4_165 1_555 1_555
N11_165 C3_165 1_555 1_555
C3_165 N4_165 1_555 1_555
H3_165 C3_165 1_555 1_555
C4_165 N9_165 1_555 1_555
H4_165 C4_165 1_555 1_555
C5_165 N3_165 1_555 1_555
H5_165 C5_165 1_555 1_555
C6_156 N1_165 1_555 1_555
H6_165 C6_156 1_555 1_555
C7_165 N7_156 1_555 1_555
H7_165 C7_165 1_555 1_555
C8_165 N15_12 1_555 1_555
H8_165 C8_165 1_555 1_555
N12_156 N7_156 1_555 1_555
N3_165 N4_165 1_555 1_555
C2_156 N12_156 1_555 1_555
N9_165 C8_165 1_555 1_555
N11_165 C5_165 1_555 1_555
C6_156 N12_156 1_555 1_555
Cu1_94 N2_166 1_555 1_555
Cu6_39 N1_166 1_555 1_555
N1_166 N2_166 1_555 1_555
N2_166 C2_157 1_555 1_555
N3_166 Cu1_94 1_555 1_555
N4_166 Cu6_39 1_555 1_555
C2_157 H2_157 1_555 1_555
N15_61 N16_36 1_555 1_555
N9_166 N11_166 1_555 1_555
N16_36 C4_166 1_555 1_555
N11_166 C3_166 1_555 1_555
C3_166 N4_166 1_555 1_555
H3_166 C3_166 1_555 1_555
C4_166 N9_166 1_555 1_555
H4_166 C4_166 1_555 1_555
C5_166 N3_166 1_555 1_555
H5_166 C5_166 1_555 1_555
C6_157 N1_166 1_555 1_555
C8_166 N15_61 1_555 1_555
H8_166 C8_166 1_555 1_555
N12_157 N7_157 1_555 1_555
N13_94 Cu1_94 1_555 1_555
N14_118 Cu1_94 1_555 1_555
N3_166 N4_166 1_555 1_555
C2_157 N12_157 1_555 1_555
N9_166 C8_166 1_555 1_555
N11_166 C5_166 1_555 1_555
C6_157 N12_157 1_555 1_555
N13_89 N6_62 1_555 1_555
N6_62 C7_166 1_555 1_555
C1_166 N13_89 1_555 1_555
H1_166 C1_166 1_555 1_555
H7_166 C7_166 1_555 1_555
Cu4_60 N6_62 1_555 1_555
Cu3_21 N2_167 1_555 1_555
Cu5_42 N1_167 1_555 1_555
N1_167 N2_167 1_555 1_555
N2_167 C2_158 1_555 1_555
N3_167 Cu3_21 1_555 1_555
N4_167 Cu5_42 1_555 1_555
N13_79 N14_75 1_555 1_555
N14_75 C7_167 1_555 1_555
C1_167 N13_79 1_555 1_555
H1_167 C1_167 1_555 1_555
N7_158 C1_167 1_555 1_555
C2_158 H2_158 1_555 1_555
N15_83 N16_16 1_555 1_555
N9_167 N11_167 1_555 1_555
N16_16 C4_167 1_555 1_555
N11_167 C3_167 1_555 1_555
C3_167 N4_167 1_555 1_555
H3_167 C3_167 1_555 1_555
C4_167 N9_167 1_555 1_555
H4_167 C4_167 1_555 1_555
C5_167 N3_167 1_555 1_555
H5_167 C5_167 1_555 1_555
C6_158 N1_167 1_555 1_555
H6_167 C6_158 1_555 1_555
C7_167 N7_158 1_555 1_555
H7_167 C7_167 1_555 1_555
C8_167 N15_83 1_555 1_555
H8_167 C8_167 1_555 1_555
N12_158 N7_158 1_555 1_555
N3_167 N4_167 1_555 1_555
C2_158 N12_158 1_555 1_555
N9_167 C8_167 1_555 1_555
N11_167 C5_167 1_555 1_555
C6_158 N12_158 1_555 1_555
N13_59 N14_99 1_555 1_555
N14_99 C7_168 1_555 1_555
C1_168 N13_59 1_555 1_555
H1_168 C1_168 1_555 1_555
N7_159 C1_168 1_555 1_555
C2_159 H2_159 1_555 1_555
H6_168 C6_159 1_555 1_555
C7_168 N7_159 1_555 1_555
H7_168 C7_168 1_555 1_555
N12_159 N7_159 1_555 1_555
C2_159 N12_159 1_555 1_555
C6_159 N12_159 1_555 1_555
Cu4_46 N2_168 1_555 1_555
Cu5_43 N1_168 1_555 1_555
N1_168 N2_168 1_555 1_555
N3_168 Cu4_46 1_555 1_555
N4_168 Cu5_43 1_555 1_555
N15_87 N16_10 1_555 1_555
N9_168 N11_168 1_555 1_555
N16_10 C4_168 1_555 1_555
N11_168 C3_168 1_555 1_555
C3_168 N4_168 1_555 1_555
H3_168 C3_168 1_555 1_555
C4_168 N9_168 1_555 1_555
H4_168 C4_168 1_555 1_555
C5_168 N3_168 1_555 1_555
H5_168 C5_168 1_555 1_555
C8_168 N15_87 1_555 1_555
H8_168 C8_168 1_555 1_555
N3_168 N4_168 1_555 1_555
N9_168 C8_168 1_555 1_555
N11_168 C5_168 1_555 1_555
Cu4_57 N2_169 1_555 1_555
Cu5_25 N1_169 1_555 1_555
N1_169 N2_169 1_555 1_555
N2_169 C2_160 1_555 1_555
N3_169 Cu4_57 1_555 1_555
N4_169 Cu5_25 1_555 1_555
C2_160 H2_160 1_555 1_555
N15_89 N16_74 1_555 1_555
N9_169 N11_169 1_555 1_555
N16_74 C4_169 1_555 1_555
N11_169 C3_169 1_555 1_555
C3_169 N4_169 1_555 1_555
H3_169 C3_169 1_555 1_555
C4_169 N9_169 1_555 1_555
H4_169 C4_169 1_555 1_555
C5_169 N3_169 1_555 1_555
H5_169 C5_169 1_555 1_555
C6_160 N1_169 1_555 1_555
C8_169 N15_89 1_555 1_555
H8_169 C8_169 1_555 1_555
N12_160 N7_160 1_555 1_555
N14_119 Cu4_57 1_555 1_555
N3_169 N4_169 1_555 1_555
C2_160 N12_160 1_555 1_555
N9_169 C8_169 1_555 1_555
N11_169 C5_169 1_555 1_555
C6_160 N12_160 1_555 1_555
N13_70 N6_63 1_555 1_555
N6_63 C7_169 1_555 1_555
C1_169 N13_70 1_555 1_555
H1_169 C1_169 1_555 1_555
H7_169 C7_169 1_555 1_555
Cu3_35 N6_63 1_555 1_555
N13_81 N14_117 1_555 1_555
N14_117 C7_170 1_555 1_555
C1_170 N13_81 1_555 1_555
H1_170 C1_170 1_555 1_555
H7_170 C7_170 1_555 1_555
Cu4_50 N2_170 1_555 1_555
Cu6_41 N1_170 1_555 1_555
N1_170 N2_170 1_555 1_555
N2_170 C2_161 1_555 1_555
N3_170 Cu4_50 1_555 1_555
N4_170 Cu6_41 1_555 1_555
C2_161 H2_161 1_555 1_555
N15_91 N16_51 1_555 1_555
N9_170 N11_170 1_555 1_555
N16_51 C4_170 1_555 1_555
N11_170 C3_170 1_555 1_555
C3_170 N4_170 1_555 1_555
H3_170 C3_170 1_555 1_555
C4_170 N9_170 1_555 1_555
H4_170 C4_170 1_555 1_555
C5_170 N3_170 1_555 1_555
H5_170 C5_170 1_555 1_555
C6_161 N1_170 1_555 1_555
C8_170 N15_91 1_555 1_555
H8_170 C8_170 1_555 1_555
N12_161 N7_161 1_555 1_555
N14_120 Cu4_50 1_555 1_555
N3_170 N4_170 1_555 1_555
C2_161 N12_161 1_555 1_555
N9_170 C8_170 1_555 1_555
N11_170 C5_170 1_555 1_555
C6_161 N12_161 1_555 1_555
N13_94 N14_103 1_555 1_555
N14_103 C7_171 1_555 1_555
C1_171 N13_94 1_555 1_555
H1_171 C1_171 1_555 1_555
N7_162 C1_171 1_555 1_555
C2_162 H2_162 1_555 1_555
H6_171 C6_162 1_555 1_555
C7_171 N7_162 1_555 1_555
H7_171 C7_171 1_555 1_555
N12_162 N7_162 1_555 1_555
C2_162 N12_162 1_555 1_555
C6_162 N12_162 1_555 1_555
Cu4_56 N2_171 1_555 1_555
Cu6_11 N1_171 1_555 1_555
N1_171 N2_171 1_555 1_555
N3_171 Cu4_56 1_555 1_555
N4_171 Cu6_11 1_555 1_555
N15_71 N16_4 1_555 1_555
N9_171 N11_171 1_555 1_555
N16_4 C4_171 1_555 1_555
N11_171 C3_171 1_555 1_555
C3_171 N4_171 1_555 1_555
H3_171 C3_171 1_555 1_555
C4_171 N9_171 1_555 1_555
H4_171 C4_171 1_555 1_555
C5_171 N3_171 1_555 1_555
H5_171 C5_171 1_555 1_555
C8_171 N15_71 1_555 1_555
H8_171 C8_171 1_555 1_555
N14_121 Cu4_56 1_555 1_555
N3_171 N4_171 1_555 1_555
N9_171 C8_171 1_555 1_555
N11_171 C5_171 1_555 1_555
Cu4_49 N2_172 1_555 1_555
Cu5_3 N1_172 1_555 1_555
N1_172 N2_172 1_555 1_555
N2_172 C2_163 1_555 1_555
N3_172 Cu4_49 1_555 1_555
N4_172 Cu5_3 1_555 1_555
N13_67 N6_64 1_555 1_555
N6_64 C7_172 1_555 1_555
C1_172 N13_67 1_555 1_555
H1_172 C1_172 1_555 1_555
N7_163 C1_172 1_555 1_555
C2_163 H2_163 1_555 1_555
N15_45 N16_25 1_555 1_555
N9_172 N11_172 1_555 1_555
N16_25 C4_172 1_555 1_555
N11_172 C3_172 1_555 1_555
C3_172 N4_172 1_555 1_555
H3_172 C3_172 1_555 1_555
C4_172 N9_172 1_555 1_555
H4_172 C4_172 1_555 1_555
C5_172 N3_172 1_555 1_555
H5_172 C5_172 1_555 1_555
C6_163 N1_172 1_555 1_555
H6_172 C6_163 1_555 1_555
C7_172 N7_163 1_555 1_555
H7_172 C7_172 1_555 1_555
C8_172 N15_45 1_555 1_555
H8_172 C8_172 1_555 1_555
N12_163 N7_163 1_555 1_555
Cu3_36 N6_64 1_555 1_555
N14_122 Cu4_49 1_555 1_555
N3_172 N4_172 1_555 1_555
C2_163 N12_163 1_555 1_555
N9_172 C8_172 1_555 1_555
N11_172 C5_172 1_555 1_555
C6_163 N12_163 1_555 1_555
Cu4_59 N2_173 1_555 1_555
Cu5_6 N1_173 1_555 1_555
N1_173 N2_173 1_555 1_555
N2_173 C2_164 1_555 1_555
N3_173 Cu4_59 1_555 1_555
N4_173 Cu5_6 1_555 1_555
N13_83 N14_118 1_555 1_555
N14_118 C7_173 1_555 1_555
C1_173 N13_83 1_555 1_555
H1_173 C1_173 1_555 1_555
N7_164 C1_173 1_555 1_555
C2_164 H2_164 1_555 1_555
N15_94 N16_56 1_555 1_555
N9_173 N11_173 1_555 1_555
N16_56 C4_173 1_555 1_555
N11_173 C3_173 1_555 1_555
C3_173 N4_173 1_555 1_555
H3_173 C3_173 1_555 1_555
C4_173 N9_173 1_555 1_555
H4_173 C4_173 1_555 1_555
C5_173 N3_173 1_555 1_555
H5_173 C5_173 1_555 1_555
C6_164 N1_173 1_555 1_555
H6_173 C6_164 1_555 1_555
C7_173 N7_164 1_555 1_555
H7_173 C7_173 1_555 1_555
C8_173 N15_94 1_555 1_555
H8_173 C8_173 1_555 1_555
N12_164 N7_164 1_555 1_555
N14_123 Cu4_59 1_555 1_555
N3_173 N4_173 1_555 1_555
C2_164 N12_164 1_555 1_555
N9_173 C8_173 1_555 1_555
N11_173 C5_173 1_555 1_555
C6_164 N12_164 1_555 1_555
Cu4_52 N2_174 1_555 1_555
Cu6_14 N1_174 1_555 1_555
N1_174 N2_174 1_555 1_555
N2_174 C2_165 1_555 1_555
N3_174 Cu4_52 1_555 1_555
N4_174 Cu6_14 1_555 1_555
N5_95 N14_83 1_555 1_555
N14_83 C7_174 1_555 1_555
C1_174 N5_95 1_555 1_555
H1_174 C1_174 1_555 1_555
N7_165 C1_174 1_555 1_555
C2_165 H2_165 1_555 1_555
N15_92 N16_5 1_555 1_555
N9_174 N11_174 1_555 1_555
N16_5 C4_174 1_555 1_555
N11_174 C3_174 1_555 1_555
C3_174 N4_174 1_555 1_555
H3_174 C3_174 1_555 1_555
C4_174 N9_174 1_555 1_555
H4_174 C4_174 1_555 1_555
C5_174 N3_174 1_555 1_555
H5_174 C5_174 1_555 1_555
C6_165 N1_174 1_555 1_555
H6_174 C6_165 1_555 1_555
C7_174 N7_165 1_555 1_555
H7_174 C7_174 1_555 1_555
C8_174 N15_92 1_555 1_555
H8_174 C8_174 1_555 1_555
N12_165 N7_165 1_555 1_555
Cu3_36 N5_95 1_555 1_555
N14_124 Cu4_52 1_555 1_555
N3_174 N4_174 1_555 1_555
C2_165 N12_165 1_555 1_555
N9_174 C8_174 1_555 1_555
N11_174 C5_174 1_555 1_555
C6_165 N12_165 1_555 1_555
Cu4_58 N2_175 1_555 1_555
Cu6_31 N1_175 1_555 1_555
N1_175 N2_175 1_555 1_555
N2_175 C2_166 1_555 1_555
N3_175 Cu4_58 1_555 1_555
N4_175 Cu6_31 1_555 1_555
C2_166 H2_166 1_555 1_555
N15_72 N16_30 1_555 1_555
N9_175 N11_175 1_555 1_555
N16_30 C4_175 1_555 1_555
N11_175 C3_175 1_555 1_555
C3_175 N4_175 1_555 1_555
H3_175 C3_175 1_555 1_555
C4_175 N9_175 1_555 1_555
H4_175 C4_175 1_555 1_555
C5_175 N3_175 1_555 1_555
H5_175 C5_175 1_555 1_555
C6_166 N1_175 1_555 1_555
C8_175 N15_72 1_555 1_555
H8_175 C8_175 1_555 1_555
N12_166 N7_166 1_555 1_555
N14_125 Cu4_58 1_555 1_555
N3_175 N4_175 1_555 1_555
C2_166 N12_166 1_555 1_555
N9_175 C8_175 1_555 1_555
N11_175 C5_175 1_555 1_555
C6_166 N12_166 1_555 1_555
N5_96 N14_86 1_555 1_555
N14_86 C7_175 1_555 1_555
C1_175 N5_96 1_555 1_555
H1_175 C1_175 1_555 1_555
H7_175 C7_175 1_555 1_555
Cu3_35 N5_96 1_555 1_555
N13_93 N14_101 1_555 1_555
N14_101 C7_176 1_555 1_555
C1_176 N13_93 1_555 1_555
H1_176 C1_176 1_555 1_555
H7_176 C7_176 1_555 1_555
Cu4_51 N2_176 1_555 1_555
Cu5_39 N1_176 1_555 1_555
N1_176 N2_176 1_555 1_555
N3_176 Cu4_51 1_555 1_555
N4_176 Cu5_39 1_555 1_555
N15_42 N16_79 1_555 1_555
N9_176 N11_176 1_555 1_555
N16_79 C4_176 1_555 1_555
N11_176 C3_176 1_555 1_555
C3_176 N4_176 1_555 1_555
H3_176 C3_176 1_555 1_555
C4_176 N9_176 1_555 1_555
H4_176 C4_176 1_555 1_555
C5_176 N3_176 1_555 1_555
H5_176 C5_176 1_555 1_555
C8_176 N15_42 1_555 1_555
H8_176 C8_176 1_555 1_555
N14_126 Cu4_51 1_555 1_555
N3_176 N4_176 1_555 1_555
N9_176 C8_176 1_555 1_555
N11_176 C5_176 1_555 1_555
N13_86 N14_119 1_555 1_555
N14_119 C7_177 1_555 1_555
C1_177 N13_86 1_555 1_555
H1_177 C1_177 1_555 1_555
N7_167 C1_177 1_555 1_555
C2_167 H2_167 1_555 1_555
H6_177 C6_167 1_555 1_555
C7_177 N7_167 1_555 1_555
H7_177 C7_177 1_555 1_555
N12_167 N7_167 1_555 1_555
C2_167 N12_167 1_555 1_555
C6_167 N12_167 1_555 1_555
Cu1_95 N2_177 1_555 1_555
Cu5_20 N1_177 1_555 1_555
N1_177 N2_177 1_555 1_555
N3_177 Cu1_95 1_555 1_555
N4_177 Cu5_20 1_555 1_555
N15_73 N16_93 1_555 1_555
N9_177 N11_177 1_555 1_555
N16_93 C4_177 1_555 1_555
N11_177 C3_177 1_555 1_555
C3_177 N4_177 1_555 1_555
H3_177 C3_177 1_555 1_555
C4_177 N9_177 1_555 1_555
H4_177 C4_177 1_555 1_555
C5_177 N3_177 1_555 1_555
H5_177 C5_177 1_555 1_555
C8_177 N15_73 1_555 1_555
H8_177 C8_177 1_555 1_555
N13_95 Cu1_95 1_555 1_555
N14_127 Cu1_95 1_555 1_555
N3_177 N4_177 1_555 1_555
N9_177 C8_177 1_555 1_555
N11_177 C5_177 1_555 1_555
Cu3_34 N2_178 1_555 1_555
Cu5_36 N1_178 1_555 1_555
N1_178 N2_178 1_555 1_555
N2_178 C2_168 1_555 1_555
N3_178 Cu3_34 1_555 1_555
N4_178 Cu5_36 1_555 1_555
N13_72 N14_120 1_555 1_555
N14_120 C7_178 1_555 1_555
C1_178 N13_72 1_555 1_555
H1_178 C1_178 1_555 1_555
N7_168 C1_178 1_555 1_555
C2_168 H2_168 1_555 1_555
N15_50 N16_65 1_555 1_555
N9_178 N11_178 1_555 1_555
N16_65 C4_178 1_555 1_555
N11_178 C3_178 1_555 1_555
C3_178 N4_178 1_555 1_555
H3_178 C3_178 1_555 1_555
C4_178 N9_178 1_555 1_555
H4_178 C4_178 1_555 1_555
C5_178 N3_178 1_555 1_555
H5_178 C5_178 1_555 1_555
C6_168 N1_178 1_555 1_555
H6_178 C6_168 1_555 1_555
C7_178 N7_168 1_555 1_555
H7_178 C7_178 1_555 1_555
C8_178 N15_50 1_555 1_555
H8_178 C8_178 1_555 1_555
N12_168 N7_168 1_555 1_555
N3_178 N4_178 1_555 1_555
C2_168 N12_168 1_555 1_555
N9_178 C8_178 1_555 1_555
N11_178 C5_178 1_555 1_555
C6_168 N12_168 1_555 1_555
Cu3_30 N2_179 1_555 1_555
Cu5_45 N1_179 1_555 1_555
N1_179 N2_179 1_555 1_555
N2_179 C2_169 1_555 1_555
N3_179 Cu3_30 1_555 1_555
N4_179 Cu5_45 1_555 1_555
C2_169 H2_169 1_555 1_555
N15_3 N16_43 1_555 1_555
N9_179 N11_179 1_555 1_555
N16_43 C4_179 1_555 1_555
N11_179 C3_179 1_555 1_555
C3_179 N4_179 1_555 1_555
H3_179 C3_179 1_555 1_555
C4_179 N9_179 1_555 1_555
H4_179 C4_179 1_555 1_555
C5_179 N3_179 1_555 1_555
H5_179 C5_179 1_555 1_555
C6_169 N1_179 1_555 1_555
C8_179 N15_3 1_555 1_555
H8_179 C8_179 1_555 1_555
N12_169 N7_169 1_555 1_555
N3_179 N4_179 1_555 1_555
C2_169 N12_169 1_555 1_555
N9_179 C8_179 1_555 1_555
N11_179 C5_179 1_555 1_555
C6_169 N12_169 1_555 1_555
N13_85 N14_121 1_555 1_555
N14_121 C7_179 1_555 1_555
C1_179 N13_85 1_555 1_555
H1_179 C1_179 1_555 1_555
H7_179 C7_179 1_555 1_555
Cu1_96 N2_180 1_555 1_555
Cu5_22 N1_180 1_555 1_555
N1_180 N2_180 1_555 1_555
N3_180 Cu1_96 1_555 1_555
N4_180 Cu5_22 1_555 1_555
N15_28 N16_95 1_555 1_555
N9_180 N11_180 1_555 1_555
N16_95 C4_180 1_555 1_555
N11_180 C3_180 1_555 1_555
C3_180 N4_180 1_555 1_555
H3_180 C3_180 1_555 1_555
C4_180 N9_180 1_555 1_555
H4_180 C4_180 1_555 1_555
C5_180 N3_180 1_555 1_555
H5_180 C5_180 1_555 1_555
C8_180 N15_28 1_555 1_555
H8_180 C8_180 1_555 1_555
N13_96 Cu1_96 1_555 1_555
N14_128 Cu1_96 1_555 1_555
N3_180 N4_180 1_555 1_555
N9_180 C8_180 1_555 1_555
N11_180 C5_180 1_555 1_555
N13_71 N14_122 1_555 1_555
N14_122 C7_180 1_555 1_555
C1_180 N13_71 1_555 1_555
H1_180 C1_180 1_555 1_555
N7_170 C1_180 1_555 1_555
C2_170 H2_170 1_555 1_555
H6_180 C6_170 1_555 1_555
C7_180 N7_170 1_555 1_555
H7_180 C7_180 1_555 1_555
N12_170 N7_170 1_555 1_555
C2_170 N12_170 1_555 1_555
C6_170 N12_170 1_555 1_555
N13_88 N14_123 1_555 1_555
N14_123 C7_181 1_555 1_555
C1_181 N13_88 1_555 1_555
H1_181 C1_181 1_555 1_555
N7_171 C1_181 1_555 1_555
C2_171 H2_171 1_555 1_555
H6_181 C6_171 1_555 1_555
C7_181 N7_171 1_555 1_555
H7_181 C7_181 1_555 1_555
N12_171 N7_171 1_555 1_555
C2_171 N12_171 1_555 1_555
C6_171 N12_171 1_555 1_555
Cu4_60 N2_181 1_555 1_555
Cu5_46 N1_181 1_555 1_555
N1_181 N2_181 1_555 1_555
N3_181 Cu4_60 1_555 1_555
N4_181 Cu5_46 1_555 1_555
N15_53 N16_44 1_555 1_555
N9_181 N11_181 1_555 1_555
N16_44 C4_181 1_555 1_555
N11_181 C3_181 1_555 1_555
C3_181 N4_181 1_555 1_555
H3_181 C3_181 1_555 1_555
C4_181 N9_181 1_555 1_555
H4_181 C4_181 1_555 1_555
C5_181 N3_181 1_555 1_555
H5_181 C5_181 1_555 1_555
C8_181 N15_53 1_555 1_555
H8_181 C8_181 1_555 1_555
N3_181 N4_181 1_555 1_555
N9_181 C8_181 1_555 1_555
N11_181 C5_181 1_555 1_555
Cu4_44 N2_182 1_555 1_555
Cu5_17 N1_182 1_555 1_555
N1_182 N2_182 1_555 1_555
N2_182 C2_172 1_555 1_555
N3_182 Cu4_44 1_555 1_555
N4_182 Cu5_17 1_555 1_555
N13_74 N14_124 1_555 1_555
N14_124 C7_182 1_555 1_555
C1_182 N13_74 1_555 1_555
H1_182 C1_182 1_555 1_555
N7_172 C1_182 1_555 1_555
C2_172 H2_172 1_555 1_555
N15_6 N16_96 1_555 1_555
N9_182 N11_182 1_555 1_555
N16_96 C4_182 1_555 1_555
N11_182 C3_182 1_555 1_555
C3_182 N4_182 1_555 1_555
H3_182 C3_182 1_555 1_555
C4_182 N9_182 1_555 1_555
H4_182 C4_182 1_555 1_555
C5_182 N3_182 1_555 1_555
H5_182 C5_182 1_555 1_555
C6_172 N1_182 1_555 1_555
H6_182 C6_172 1_555 1_555
C7_182 N7_172 1_555 1_555
H7_182 C7_182 1_555 1_555
C8_182 N15_6 1_555 1_555
H8_182 C8_182 1_555 1_555
N12_172 N7_172 1_555 1_555
N3_182 N4_182 1_555 1_555
C2_172 N12_172 1_555 1_555
N9_182 C8_182 1_555 1_555
N11_182 C5_182 1_555 1_555
C6_172 N12_172 1_555 1_555
Cu4_45 N2_183 1_555 1_555
Cu5_19 N1_183 1_555 1_555
N1_183 N2_183 1_555 1_555
N2_183 C2_173 1_555 1_555
N3_183 Cu4_45 1_555 1_555
N4_183 Cu5_19 1_555 1_555
N13_87 N14_125 1_555 1_555
N14_125 C7_183 1_555 1_555
C1_183 N13_87 1_555 1_555
H1_183 C1_183 1_555 1_555
N7_173 C1_183 1_555 1_555
C2_173 H2_173 1_555 1_555
N15_31 N16_90 1_555 1_555
N9_183 N11_183 1_555 1_555
N16_90 C4_183 1_555 1_555
N11_183 C3_183 1_555 1_555
C3_183 N4_183 1_555 1_555
H3_183 C3_183 1_555 1_555
C4_183 N9_183 1_555 1_555
H4_183 C4_183 1_555 1_555
C5_183 N3_183 1_555 1_555
H5_183 C5_183 1_555 1_555
C6_173 N1_183 1_555 1_555
H6_183 C6_173 1_555 1_555
C7_183 N7_173 1_555 1_555
H7_183 C7_183 1_555 1_555
C8_183 N15_31 1_555 1_555
H8_183 C8_183 1_555 1_555
N12_173 N7_173 1_555 1_555
N3_183 N4_183 1_555 1_555
C2_173 N12_173 1_555 1_555
N9_183 C8_183 1_555 1_555
N11_183 C5_183 1_555 1_555
C6_173 N12_173 1_555 1_555
Cu3_29 N2_184 1_555 1_555
Cu6_33 N1_184 1_555 1_555
N1_184 N2_184 1_555 1_555
N3_184 Cu3_29 1_555 1_555
N4_184 Cu6_33 1_555 1_555
N15_80 N16_70 1_555 1_555
N9_184 N11_184 1_555 1_555
N16_70 C4_184 1_555 1_555
N11_184 C3_184 1_555 1_555
C3_184 N4_184 1_555 1_555
H3_184 C3_184 1_555 1_555
C4_184 N9_184 1_555 1_555
H4_184 C4_184 1_555 1_555
C5_184 N3_184 1_555 1_555
H5_184 C5_184 1_555 1_555
C8_184 N15_80 1_555 1_555
H8_184 C8_184 1_555 1_555
N3_184 N4_184 1_555 1_555
N9_184 C8_184 1_555 1_555
N11_184 C5_184 1_555 1_555
N13_73 N14_126 1_555 1_555
N14_126 C7_184 1_555 1_555
C1_184 N13_73 1_555 1_555
H1_184 C1_184 1_555 1_555
H7_184 C7_184 1_555 1_555
Cu3_35 N2_185 1_555 1_555
Cu5_41 N1_185 1_555 1_555
N1_185 N2_185 1_555 1_555
N3_185 Cu3_35 1_555 1_555
N4_185 Cu5_41 1_555 1_555
N15_81 N16_14 1_555 1_555
N9_185 N11_185 1_555 1_555
N16_14 C4_185 1_555 1_555
N11_185 C3_185 1_555 1_555
C3_185 N4_185 1_555 1_555
H3_185 C3_185 1_555 1_555
C4_185 N9_185 1_555 1_555
H4_185 C4_185 1_555 1_555
C5_185 N3_185 1_555 1_555
H5_185 C5_185 1_555 1_555
C8_185 N15_81 1_555 1_555
H8_185 C8_185 1_555 1_555
N3_185 N4_185 1_555 1_555
N9_185 C8_185 1_555 1_555
N11_185 C5_185 1_555 1_555
N13_92 N14_127 1_555 1_555
N14_127 C7_185 1_555 1_555
C1_185 N13_92 1_555 1_555
H1_185 C1_185 1_555 1_555
H7_185 C7_185 1_555 1_555
N13_96 N14_100 1_555 1_555
N14_100 C7_186 1_555 1_555
C1_186 N13_96 1_555 1_555
H1_186 C1_186 1_555 1_555
H7_186 C7_186 1_555 1_555
Cu4_47 N2_186 1_555 1_555
Cu6_27 N1_186 1_555 1_555
N1_186 N2_186 1_555 1_555
N2_186 C2_174 1_555 1_555
N3_186 Cu4_47 1_555 1_555
N4_186 Cu6_27 1_555 1_555
C2_174 H2_174 1_555 1_555
N15_40 N16_59 1_555 1_555
N9_186 N11_186 1_555 1_555
N16_59 C4_186 1_555 1_555
N11_186 C3_186 1_555 1_555
C3_186 N4_186 1_555 1_555
H3_186 C3_186 1_555 1_555
C4_186 N9_186 1_555 1_555
H4_186 C4_186 1_555 1_555
C5_186 N3_186 1_555 1_555
H5_186 C5_186 1_555 1_555
C6_174 N1_186 1_555 1_555
C8_186 N15_40 1_555 1_555
H8_186 C8_186 1_555 1_555
N12_174 N7_174 1_555 1_555
N3_186 N4_186 1_555 1_555
C2_174 N12_174 1_555 1_555
N9_186 C8_186 1_555 1_555
N11_186 C5_186 1_555 1_555
C6_174 N12_174 1_555 1_555
Cu3_32 N2_187 1_555 1_555
Cu5_29 N1_187 1_555 1_555
N1_187 N2_187 1_555 1_555
N3_187 Cu3_32 1_555 1_555
N4_187 Cu5_29 1_555 1_555
N15_82 N16_15 1_555 1_555
N9_187 N11_187 1_555 1_555
N16_15 C4_187 1_555 1_555
N11_187 C3_187 1_555 1_555
C3_187 N4_187 1_555 1_555
H3_187 C3_187 1_555 1_555
C4_187 N9_187 1_555 1_555
H4_187 C4_187 1_555 1_555
C5_187 N3_187 1_555 1_555
H5_187 C5_187 1_555 1_555
C8_187 N15_82 1_555 1_555
H8_187 C8_187 1_555 1_555
N3_187 N4_187 1_555 1_555
N9_187 C8_187 1_555 1_555
N11_187 C5_187 1_555 1_555
N13_62 N14_114 1_555 1_555
N14_114 C7_187 1_555 1_555
C1_187 N13_62 1_555 1_555
H1_187 C1_187 1_555 1_555
N7_175 C1_187 1_555 1_555
C2_175 H2_175 1_555 1_555
H6_187 C6_175 1_555 1_555
C7_187 N7_175 1_555 1_555
H7_187 C7_187 1_555 1_555
N12_175 N7_175 1_555 1_555
C2_175 N12_175 1_555 1_555
C6_175 N12_175 1_555 1_555
Cu4_34 N2_188 1_555 1_555
Cu5_30 N1_188 1_555 1_555
N1_188 N2_188 1_555 1_555
N2_188 C2_176 1_555 1_555
N3_188 Cu4_34 1_555 1_555
N4_188 Cu5_30 1_555 1_555
N13_90 N14_78 1_555 1_555
N14_78 C7_188 1_555 1_555
C1_188 N13_90 1_555 1_555
H1_188 C1_188 1_555 1_555
N7_176 C1_188 1_555 1_555
C2_176 H2_176 1_555 1_555
N15_86 N16_9 1_555 1_555
N9_188 N11_188 1_555 1_555
N16_9 C4_188 1_555 1_555
N11_188 C3_188 1_555 1_555
C3_188 N4_188 1_555 1_555
H3_188 C3_188 1_555 1_555
C4_188 N9_188 1_555 1_555
H4_188 C4_188 1_555 1_555
C5_188 N3_188 1_555 1_555
H5_188 C5_188 1_555 1_555
C6_176 N1_188 1_555 1_555
H6_188 C6_176 1_555 1_555
C7_188 N7_176 1_555 1_555
H7_188 C7_188 1_555 1_555
C8_188 N15_86 1_555 1_555
H8_188 C8_188 1_555 1_555
N12_176 N7_176 1_555 1_555
N3_188 N4_188 1_555 1_555
C2_176 N12_176 1_555 1_555
N9_188 C8_188 1_555 1_555
N11_188 C5_188 1_555 1_555
C6_176 N12_176 1_555 1_555
N13_80 N14_128 1_555 1_555
N14_128 C7_189 1_555 1_555
C1_189 N13_80 1_555 1_555
H1_189 C1_189 1_555 1_555
H7_189 C7_189 1_555 1_555
Cu3_36 N2_189 1_555 1_555
Cu6_25 N1_189 1_555 1_555
N1_189 N2_189 1_555 1_555
N2_189 C2_177 1_555 1_555
N3_189 Cu3_36 1_555 1_555
N4_189 Cu6_25 1_555 1_555
C2_177 H2_177 1_555 1_555
N15_36 N16_61 1_555 1_555
N9_189 N11_189 1_555 1_555
N16_61 C4_189 1_555 1_555
N11_189 C3_189 1_555 1_555
C3_189 N4_189 1_555 1_555
H3_189 C3_189 1_555 1_555
C4_189 N9_189 1_555 1_555
H4_189 C4_189 1_555 1_555
C5_189 N3_189 1_555 1_555
H5_189 C5_189 1_555 1_555
C6_177 N1_189 1_555 1_555
C8_189 N15_36 1_555 1_555
H8_189 C8_189 1_555 1_555
N12_177 N7_177 1_555 1_555
N3_189 N4_189 1_555 1_555
C2_177 N12_177 1_555 1_555
N9_189 C8_189 1_555 1_555
N11_189 C5_189 1_555 1_555
C6_177 N12_177 1_555 1_555
Cu4_55 N2_190 1_555 1_555
Cu5_44 N1_190 1_555 1_555
N1_190 N2_190 1_555 1_555
N2_190 C2_178 1_555 1_555
N3_190 Cu4_55 1_555 1_555
N4_190 Cu5_44 1_555 1_555
C2_178 H2_178 1_555 1_555
N15_85 N16_12 1_555 1_555
N9_190 N11_190 1_555 1_555
N16_12 C4_190 1_555 1_555
N11_190 C3_190 1_555 1_555
C3_190 N4_190 1_555 1_555
H3_190 C3_190 1_555 1_555
C4_190 N9_190 1_555 1_555
H4_190 C4_190 1_555 1_555
C5_190 N3_190 1_555 1_555
H5_190 C5_190 1_555 1_555
C6_178 N1_190 1_555 1_555
C8_190 N15_85 1_555 1_555
H8_190 C8_190 1_555 1_555
N12_178 N7_178 1_555 1_555
N3_190 N4_190 1_555 1_555
C2_178 N12_178 1_555 1_555
N9_190 C8_190 1_555 1_555
N11_190 C5_190 1_555 1_555
C6_178 N12_178 1_555 1_555
N13_95 N14_116 1_555 1_555
N14_116 C7_190 1_555 1_555
C1_190 N13_95 1_555 1_555
H1_190 C1_190 1_555 1_555
H7_190 C7_190 1_555 1_555
Cu3_27 N2_191 1_555 1_555
Cu6_38 N1_191 1_555 1_555
N1_191 N2_191 1_555 1_555
N2_191 C2_179 1_555 1_555
N3_191 Cu3_27 1_555 1_555
N4_191 Cu6_38 1_555 1_555
N13_63 N14_96 1_555 1_555
N14_96 C7_191 1_555 1_555
C1_191 N13_63 1_555 1_555
H1_191 C1_191 1_555 1_555
N7_179 C1_191 1_555 1_555
C2_179 H2_179 1_555 1_555
N15_59 N16_40 1_555 1_555
N9_191 N11_191 1_555 1_555
N16_40 C4_191 1_555 1_555
N11_191 C3_191 1_555 1_555
C3_191 N4_191 1_555 1_555
H3_191 C3_191 1_555 1_555
C4_191 N9_191 1_555 1_555
H4_191 C4_191 1_555 1_555
C5_191 N3_191 1_555 1_555
H5_191 C5_191 1_555 1_555
C6_179 N1_191 1_555 1_555
H6_191 C6_179 1_555 1_555
C7_191 N7_179 1_555 1_555
H7_191 C7_191 1_555 1_555
C8_191 N15_59 1_555 1_555
H8_191 C8_191 1_555 1_555
N12_179 N7_179 1_555 1_555
N3_191 N4_191 1_555 1_555
C2_179 N12_179 1_555 1_555
N9_191 C8_191 1_555 1_555
N11_191 C5_191 1_555 1_555
C6_179 N12_179 1_555 1_555
Cu4_31 N2_192 1_555 1_555
Cu6_40 N1_192 1_555 1_555
N1_192 N2_192 1_555 1_555
N2_192 C2_180 1_555 1_555
N3_192 Cu4_31 1_555 1_555
N4_192 Cu6_40 1_555 1_555
N13_76 N14_79 1_555 1_555
N14_79 C7_192 1_555 1_555
C1_192 N13_76 1_555 1_555
H1_192 C1_192 1_555 1_555
N7_180 C1_192 1_555 1_555
C2_180 H2_180 1_555 1_555
N15_63 N16_34 1_555 1_555
N9_192 N11_192 1_555 1_555
N16_34 C4_192 1_555 1_555
N11_192 C3_192 1_555 1_555
C3_192 N4_192 1_555 1_555
H3_192 C3_192 1_555 1_555
C4_192 N9_192 1_555 1_555
H4_192 C4_192 1_555 1_555
C5_192 N3_192 1_555 1_555
H5_192 C5_192 1_555 1_555
C6_180 N1_192 1_555 1_555
H6_192 C6_180 1_555 1_555
C7_192 N7_180 1_555 1_555
H7_192 C7_192 1_555 1_555
C8_192 N15_63 1_555 1_555
H8_192 C8_192 1_555 1_555
N12_180 N7_180 1_555 1_555
N3_192 N4_192 1_555 1_555
C2_180 N12_180 1_555 1_555
N9_192 C8_192 1_555 1_555
N11_192 C5_192 1_555 1_555
C6_180 N12_180 1_555 1_555
C2_181 H2_181 1_555 1_555
N12_181 N7_181 1_555 1_555
C2_181 N12_181 1_555 1_555
C6_181 N12_181 1_555 1_555
C2_182 H2_182 1_555 1_555
N12_182 N7_182 1_555 1_555
C2_182 N12_182 1_555 1_555
C6_182 N12_182 1_555 1_555
C2_183 H2_183 1_555 1_555
N12_183 N7_183 1_555 1_555
C2_183 N12_183 1_555 1_555
C6_183 N12_183 1_555 1_555
C2_184 H2_184 1_555 1_555
N12_184 N7_184 1_555 1_555
C2_184 N12_184 1_555 1_555
C6_184 N12_184 1_555 1_555
C2_185 H2_185 1_555 1_555
N12_185 N7_185 1_555 1_555
C2_185 N12_185 1_555 1_555
C6_185 N12_185 1_555 1_555
C2_186 H2_186 1_555 1_555
N12_186 N7_186 1_555 1_555
C2_186 N12_186 1_555 1_555
C6_186 N12_186 1_555 1_555
C2_187 H2_187 1_555 1_555
N12_187 N7_187 1_555 1_555
C2_187 N12_187 1_555 1_555
C6_187 N12_187 1_555 1_555
C2_188 H2_188 1_555 1_555
N12_188 N7_188 1_555 1_555
C2_188 N12_188 1_555 1_555
C6_188 N12_188 1_555 1_555
C2_189 H2_189 1_555 1_555
N12_189 N7_189 1_555 1_555
C2_189 N12_189 1_555 1_555
C6_189 N12_189 1_555 1_555
C2_190 H2_190 1_555 1_555
N12_190 N7_190 1_555 1_555
C2_190 N12_190 1_555 1_555
C6_190 N12_190 1_555 1_555
C2_191 H2_191 1_555 1_555
N12_191 N7_191 1_555 1_555
C2_191 N12_191 1_555 1_555
C6_191 N12_191 1_555 1_555
C2_192 H2_192 1_555 1_555
N12_192 N7_192 1_555 1_555
C2_192 N12_192 1_555 1_555
C6_192 N12_192 1_555 1_555
O1 N17 1_555 1_555
O2 N17 1_555 1_555
O3 N17 1_555 1_555
O1_2 N17_2 1_555 1_555
O2_2 N17_2 1_555 1_555
O3_2 N17_2 1_555 1_555
O1_3 N17_3 1_555 1_555
O2_3 N17_3 1_555 1_555
O3_3 N17_3 1_555 1_555
O1_4 N17_4 1_555 1_555
O2_4 N17_4 1_555 1_555
O3_4 N17_4 1_555 1_555
O1_5 N17_5 1_555 1_555
O2_5 N17_5 1_555 1_555
O3_5 N17_5 1_555 1_555
O1_6 N17_6 1_555 1_555
O2_6 N17_6 1_555 1_555
O3_6 N17_6 1_555 1_555
O1_7 N17_7 1_555 1_555
O2_7 N17_7 1_555 1_555
O3_7 N17_7 1_555 1_555
O1_8 N17_8 1_555 1_555
O2_8 N17_8 1_555 1_555
O3_8 N17_8 1_555 1_555
O1_9 N17_9 1_555 1_555
O2_9 N17_9 1_555 1_555
O3_9 N17_9 1_555 1_555
O1_10 N17_10 1_555 1_555
O2_10 N17_10 1_555 1_555
O3_10 N17_10 1_555 1_555
O1_11 N17_11 1_555 1_555
O2_11 N17_11 1_555 1_555
O3_11 N17_11 1_555 1_555
O1_12 N17_12 1_555 1_555
O2_12 N17_12 1_555 1_555
O3_12 N17_12 1_555 1_555
O1_13 N17_13 1_555 1_555
O2_13 N17_13 1_555 1_555
O3_13 N17_13 1_555 1_555
O1_14 N17_14 1_555 1_555
O2_14 N17_14 1_555 1_555
O3_14 N17_14 1_555 1_555
O1_15 N17_15 1_555 1_555
O2_15 N17_15 1_555 1_555
O3_15 N17_15 1_555 1_555
O1_16 N17_16 1_555 1_555
O2_16 N17_16 1_555 1_555
O3_16 N17_16 1_555 1_555
O1_17 N17_17 1_555 1_555
O2_17 N17_17 1_555 1_555
O3_17 N17_17 1_555 1_555
O1_18 N17_18 1_555 1_555
O2_18 N17_18 1_555 1_555
O3_18 N17_18 1_555 1_555
O1_19 N17_19 1_555 1_555
O2_19 N17_19 1_555 1_555
O3_19 N17_19 1_555 1_555
O1_20 N17_20 1_555 1_555
O2_20 N17_20 1_555 1_555
O3_20 N17_20 1_555 1_555
O1_21 N17_21 1_555 1_555
O2_21 N17_21 1_555 1_555
O3_21 N17_21 1_555 1_555
O1_22 N17_22 1_555 1_555
O2_22 N17_22 1_555 1_555
O3_22 N17_22 1_555 1_555
O1_23 N17_23 1_555 1_555
O2_23 N17_23 1_555 1_555
O3_23 N17_23 1_555 1_555
O1_24 N17_24 1_555 1_555
O2_24 N17_24 1_555 1_555
O3_24 N17_24 1_555 1_555
O1_25 N17_25 1_555 1_555
O2_25 N17_25 1_555 1_555
O3_25 N17_25 1_555 1_555
O1_26 N17_26 1_555 1_555
O2_26 N17_26 1_555 1_555
O3_26 N17_26 1_555 1_555
O1_27 N17_27 1_555 1_555
O2_27 N17_27 1_555 1_555
O3_27 N17_27 1_555 1_555
O1_28 N17_28 1_555 1_555
O2_28 N17_28 1_555 1_555
O3_28 N17_28 1_555 1_555
O1_29 N17_29 1_555 1_555
O2_29 N17_29 1_555 1_555
O3_29 N17_29 1_555 1_555
O1_30 N17_30 1_555 1_555
O2_30 N17_30 1_555 1_555
O3_30 N17_30 1_555 1_555
O1_31 N17_31 1_555 1_555
O2_31 N17_31 1_555 1_555
O3_31 N17_31 1_555 1_555
O1_32 N17_32 1_555 1_555
O2_32 N17_32 1_555 1_555
O3_32 N17_32 1_555 1_555
O1_33 N17_33 1_555 1_555
O2_33 N17_33 1_555 1_555
O3_33 N17_33 1_555 1_555
O1_34 N17_34 1_555 1_555
O2_34 N17_34 1_555 1_555
O3_34 N17_34 1_555 1_555
O1_35 N17_35 1_555 1_555
O2_35 N17_35 1_555 1_555
O3_35 N17_35 1_555 1_555
O1_36 N17_36 1_555 1_555
O2_36 N17_36 1_555 1_555
O3_36 N17_36 1_555 1_555
O1_37 N17_37 1_555 1_555
O2_37 N17_37 1_555 1_555
O3_37 N17_37 1_555 1_555
O1_38 N17_38 1_555 1_555
O2_38 N17_38 1_555 1_555
O3_38 N17_38 1_555 1_555
O1_39 N17_39 1_555 1_555
O2_39 N17_39 1_555 1_555
O3_39 N17_39 1_555 1_555
O1_40 N17_40 1_555 1_555
O2_40 N17_40 1_555 1_555
O3_40 N17_40 1_555 1_555
O1_41 N17_41 1_555 1_555
O2_41 N17_41 1_555 1_555
O3_41 N17_41 1_555 1_555
O1_42 N17_42 1_555 1_555
O2_42 N17_42 1_555 1_555
O3_42 N17_42 1_555 1_555
O1_43 N17_43 1_555 1_555
O2_43 N17_43 1_555 1_555
O3_43 N17_43 1_555 1_555
O1_44 N17_44 1_555 1_555
O2_44 N17_44 1_555 1_555
O3_44 N17_44 1_555 1_555
O1_45 N17_45 1_555 1_555
O2_45 N17_45 1_555 1_555
O3_45 N17_45 1_555 1_555
O1_46 N17_46 1_555 1_555
O2_46 N17_46 1_555 1_555
O3_46 N17_46 1_555 1_555
O1_47 N17_47 1_555 1_555
O2_47 N17_47 1_555 1_555
O3_47 N17_47 1_555 1_555
O1_48 N17_48 1_555 1_555
O2_48 N17_48 1_555 1_555
O3_48 N17_48 1_555 1_555
O1_49 N17_49 1_555 1_555
O2_49 N17_49 1_555 1_555
O3_49 N17_49 1_555 1_555
O1_50 N17_50 1_555 1_555
O2_50 N17_50 1_555 1_555
O3_50 N17_50 1_555 1_555
O1_51 N17_51 1_555 1_555
O2_51 N17_51 1_555 1_555
O3_51 N17_51 1_555 1_555
O1_52 N17_52 1_555 1_555
O2_52 N17_52 1_555 1_555
O3_52 N17_52 1_555 1_555
O1_53 N17_53 1_555 1_555
O2_53 N17_53 1_555 1_555
O3_53 N17_53 1_555 1_555
O1_54 N17_54 1_555 1_555
O2_54 N17_54 1_555 1_555
O3_54 N17_54 1_555 1_555
O1_55 N17_55 1_555 1_555
O2_55 N17_55 1_555 1_555
O3_55 N17_55 1_555 1_555
O1_56 N17_56 1_555 1_555
O2_56 N17_56 1_555 1_555
O3_56 N17_56 1_555 1_555
O1_57 N17_57 1_555 1_555
O2_57 N17_57 1_555 1_555
O3_57 N17_57 1_555 1_555
O1_58 N17_58 1_555 1_555
O2_58 N17_58 1_555 1_555
O3_58 N17_58 1_555 1_555
O1_59 N17_59 1_555 1_555
O2_59 N17_59 1_555 1_555
O3_59 N17_59 1_555 1_555
O1_60 N17_60 1_555 1_555
O2_60 N17_60 1_555 1_555
O3_60 N17_60 1_555 1_555
O1_61 N17_61 1_555 1_555
O2_61 N17_61 1_555 1_555
O3_61 N17_61 1_555 1_555
O1_62 N17_62 1_555 1_555
O2_62 N17_62 1_555 1_555
O3_62 N17_62 1_555 1_555
O1_63 N17_63 1_555 1_555
O2_63 N17_63 1_555 1_555
O3_63 N17_63 1_555 1_555
O1_64 N17_64 1_555 1_555
O2_64 N17_64 1_555 1_555
O3_64 N17_64 1_555 1_555
O1_65 N17_65 1_555 1_555
O2_65 N17_65 1_555 1_555
O3_65 N17_65 1_555 1_555
O1_66 N17_66 1_555 1_555
O2_66 N17_66 1_555 1_555
O3_66 N17_66 1_555 1_555
O1_67 N17_67 1_555 1_555
O2_67 N17_67 1_555 1_555
O3_67 N17_67 1_555 1_555
O1_68 N17_68 1_555 1_555
O2_68 N17_68 1_555 1_555
O3_68 N17_68 1_555 1_555
O1_69 N17_69 1_555 1_555
O2_69 N17_69 1_555 1_555
O3_69 N17_69 1_555 1_555
O1_70 N17_70 1_555 1_555
O2_70 N17_70 1_555 1_555
O3_70 N17_70 1_555 1_555
O1_71 N17_71 1_555 1_555
O2_71 N17_71 1_555 1_555
O3_71 N17_71 1_555 1_555
O1_72 N17_72 1_555 1_555
O2_72 N17_72 1_555 1_555
O3_72 N17_72 1_555 1_555
O1_73 N17_73 1_555 1_555
O2_73 N17_73 1_555 1_555
O3_73 N17_73 1_555 1_555
O1_74 N17_74 1_555 1_555
O2_74 N17_74 1_555 1_555
O3_74 N17_74 1_555 1_555
O1_75 N17_75 1_555 1_555
O2_75 N17_75 1_555 1_555
O3_75 N17_75 1_555 1_555
O1_76 N17_76 1_555 1_555
O2_76 N17_76 1_555 1_555
O3_76 N17_76 1_555 1_555
O1_77 N17_77 1_555 1_555
O2_77 N17_77 1_555 1_555
O3_77 N17_77 1_555 1_555
O1_78 N17_78 1_555 1_555
O2_78 N17_78 1_555 1_555
O3_78 N17_78 1_555 1_555
O1_79 N17_79 1_555 1_555
O2_79 N17_79 1_555 1_555
O3_79 N17_79 1_555 1_555
O1_80 N17_80 1_555 1_555
O2_80 N17_80 1_555 1_555
O3_80 N17_80 1_555 1_555
O1_81 N17_81 1_555 1_555
O2_81 N17_81 1_555 1_555
O3_81 N17_81 1_555 1_555
O1_82 N17_82 1_555 1_555
O2_82 N17_82 1_555 1_555
O3_82 N17_82 1_555 1_555
O1_83 N17_83 1_555 1_555
O2_83 N17_83 1_555 1_555
O3_83 N17_83 1_555 1_555
O1_84 N17_84 1_555 1_555
O2_84 N17_84 1_555 1_555
O3_84 N17_84 1_555 1_555
O1_85 N17_85 1_555 1_555
O2_85 N17_85 1_555 1_555
O3_85 N17_85 1_555 1_555
O1_86 N17_86 1_555 1_555
O2_86 N17_86 1_555 1_555
O3_86 N17_86 1_555 1_555
O1_87 N17_87 1_555 1_555
O2_87 N17_87 1_555 1_555
O3_87 N17_87 1_555 1_555
O1_88 N17_88 1_555 1_555
O2_88 N17_88 1_555 1_555
O3_88 N17_88 1_555 1_555
O1_89 N17_89 1_555 1_555
O2_89 N17_89 1_555 1_555
O3_89 N17_89 1_555 1_555
O1_90 N17_90 1_555 1_555
O2_90 N17_90 1_555 1_555
O3_90 N17_90 1_555 1_555
O1_91 N17_91 1_555 1_555
O2_91 N17_91 1_555 1_555
O3_91 N17_91 1_555 1_555
O1_92 N17_92 1_555 1_555
O2_92 N17_92 1_555 1_555
O3_92 N17_92 1_555 1_555
O1_93 N17_93 1_555 1_555
O2_93 N17_93 1_555 1_555
O3_93 N17_93 1_555 1_555
O1_94 N17_94 1_555 1_555
O2_94 N17_94 1_555 1_555
O3_94 N17_94 1_555 1_555
O1_95 N17_95 1_555 1_555
O2_95 N17_95 1_555 1_555
O3_95 N17_95 1_555 1_555
O1_96 N17_96 1_555 1_555
O2_96 N17_96 1_555 1_555
O3_96 N17_96 1_555 1_555
O1_97 N17_97 1_555 1_555
O2_97 N17_97 1_555 1_555
O3_97 N17_97 1_555 1_555
O1_98 N17_98 1_555 1_555
O2_98 N17_98 1_555 1_555
O3_98 N17_98 1_555 1_555
O1_99 N17_99 1_555 1_555
O2_99 N17_99 1_555 1_555
O3_99 N17_99 1_555 1_555
O1_100 N17_100 1_555 1_555
O2_100 N17_100 1_555 1_555
O3_100 N17_100 1_555 1_555
O1_101 N17_101 1_555 1_555
O2_101 N17_101 1_555 1_555
O3_101 N17_101 1_555 1_555
O1_102 N17_102 1_555 1_555
O2_102 N17_102 1_555 1_555
O3_102 N17_102 1_555 1_555
O1_103 N17_103 1_555 1_555
O2_103 N17_103 1_555 1_555
O3_103 N17_103 1_555 1_555
O1_104 N17_104 1_555 1_555
O2_104 N17_104 1_555 1_555
O3_104 N17_104 1_555 1_555
O1_105 N17_105 1_555 1_555
O2_105 N17_105 1_555 1_555
O3_105 N17_105 1_555 1_555
O1_106 N17_106 1_555 1_555
O2_106 N17_106 1_555 1_555
O3_106 N17_106 1_555 1_555
O1_107 N17_107 1_555 1_555
O2_107 N17_107 1_555 1_555
O3_107 N17_107 1_555 1_555
O1_108 N17_108 1_555 1_555
O2_108 N17_108 1_555 1_555
O3_108 N17_108 1_555 1_555
O1_109 N17_109 1_555 1_555
O2_109 N17_109 1_555 1_555
O3_109 N17_109 1_555 1_555
O1_110 N17_110 1_555 1_555
O2_110 N17_110 1_555 1_555
O3_110 N17_110 1_555 1_555
O1_111 N17_111 1_555 1_555
O2_111 N17_111 1_555 1_555
O3_111 N17_111 1_555 1_555
O1_112 N17_112 1_555 1_555
O2_112 N17_112 1_555 1_555
O3_112 N17_112 1_555 1_555
O1_113 N17_113 1_555 1_555
O2_113 N17_113 1_555 1_555
O3_113 N17_113 1_555 1_555
O1_114 N17_114 1_555 1_555
O2_114 N17_114 1_555 1_555
O3_114 N17_114 1_555 1_555
O1_115 N17_115 1_555 1_555
O2_115 N17_115 1_555 1_555
O3_115 N17_115 1_555 1_555
O1_116 N17_116 1_555 1_555
O2_116 N17_116 1_555 1_555
O3_116 N17_116 1_555 1_555
O1_117 N17_117 1_555 1_555
O2_117 N17_117 1_555 1_555
O3_117 N17_117 1_555 1_555
O1_118 N17_118 1_555 1_555
O2_118 N17_118 1_555 1_555
O3_118 N17_118 1_555 1_555
O1_119 N17_119 1_555 1_555
O2_119 N17_119 1_555 1_555
O3_119 N17_119 1_555 1_555
O1_120 N17_120 1_555 1_555
O2_120 N17_120 1_555 1_555
O3_120 N17_120 1_555 1_555
O1_121 N17_121 1_555 1_555
O2_121 N17_121 1_555 1_555
O3_121 N17_121 1_555 1_555
O1_122 N17_122 1_555 1_555
O2_122 N17_122 1_555 1_555
O3_122 N17_122 1_555 1_555
O1_123 N17_123 1_555 1_555
O2_123 N17_123 1_555 1_555
O3_123 N17_123 1_555 1_555
O1_124 N17_124 1_555 1_555
O2_124 N17_124 1_555 1_555
O3_124 N17_124 1_555 1_555
O1_125 N17_125 1_555 1_555
O2_125 N17_125 1_555 1_555
O3_125 N17_125 1_555 1_555
O1_126 N17_126 1_555 1_555
O2_126 N17_126 1_555 1_555
O3_126 N17_126 1_555 1_555
O1_127 N17_127 1_555 1_555
O2_127 N17_127 1_555 1_555
O3_127 N17_127 1_555 1_555
O1_128 N17_128 1_555 1_555
O2_128 N17_128 1_555 1_555
O3_128 N17_128 1_555 1_555
O1_129 N17_129 1_555 1_555
O2_129 N17_129 1_555 1_555
O3_129 N17_129 1_555 1_555
O1_130 N17_130 1_555 1_555
O2_130 N17_130 1_555 1_555
O3_130 N17_130 1_555 1_555
O1_131 N17_131 1_555 1_555
O2_131 N17_131 1_555 1_555
O3_131 N17_131 1_555 1_555
O1_132 N17_132 1_555 1_555
O2_132 N17_132 1_555 1_555
O3_132 N17_132 1_555 1_555
O1_133 N17_133 1_555 1_555
O2_133 N17_133 1_555 1_555
O3_133 N17_133 1_555 1_555
O1_134 N17_134 1_555 1_555
O2_134 N17_134 1_555 1_555
O3_134 N17_134 1_555 1_555
O1_135 N17_135 1_555 1_555
O2_135 N17_135 1_555 1_555
O3_135 N17_135 1_555 1_555
O1_136 N17_136 1_555 1_555
O2_136 N17_136 1_555 1_555
O3_136 N17_136 1_555 1_555
O1_137 N17_137 1_555 1_555
O2_137 N17_137 1_555 1_555
O3_137 N17_137 1_555 1_555
O1_138 N17_138 1_555 1_555
O2_138 N17_138 1_555 1_555
O3_138 N17_138 1_555 1_555
O1_139 N17_139 1_555 1_555
O2_139 N17_139 1_555 1_555
O3_139 N17_139 1_555 1_555
O1_140 N17_140 1_555 1_555
O2_140 N17_140 1_555 1_555
O3_140 N17_140 1_555 1_555
O1_141 N17_141 1_555 1_555
O2_141 N17_141 1_555 1_555
O3_141 N17_141 1_555 1_555
O1_142 N17_142 1_555 1_555
O2_142 N17_142 1_555 1_555
O3_142 N17_142 1_555 1_555
O1_143 N17_143 1_555 1_555
O2_143 N17_143 1_555 1_555
O3_143 N17_143 1_555 1_555
O1_144 N17_144 1_555 1_555
O2_144 N17_144 1_555 1_555
O3_144 N17_144 1_555 1_555
O1_145 N17_145 1_555 1_555
O2_145 N17_145 1_555 1_555
O3_145 N17_145 1_555 1_555
O1_146 N17_146 1_555 1_555
O2_146 N17_146 1_555 1_555
O3_146 N17_146 1_555 1_555
O1_147 N17_147 1_555 1_555
O2_147 N17_147 1_555 1_555
O3_147 N17_147 1_555 1_555
O1_148 N17_148 1_555 1_555
O2_148 N17_148 1_555 1_555
O3_148 N17_148 1_555 1_555
O1_149 N17_149 1_555 1_555
O2_149 N17_149 1_555 1_555
O3_149 N17_149 1_555 1_555
O1_150 N17_150 1_555 1_555
O2_150 N17_150 1_555 1_555
O3_150 N17_150 1_555 1_555
O1_151 N17_151 1_555 1_555
O2_151 N17_151 1_555 1_555
O3_151 N17_151 1_555 1_555
O1_152 N17_152 1_555 1_555
O2_152 N17_152 1_555 1_555
O3_152 N17_152 1_555 1_555
O1_153 N17_153 1_555 1_555
O2_153 N17_153 1_555 1_555
O3_153 N17_153 1_555 1_555
O1_154 N17_154 1_555 1_555
O2_154 N17_154 1_555 1_555
O3_154 N17_154 1_555 1_555
O1_155 N17_155 1_555 1_555
O2_155 N17_155 1_555 1_555
O3_155 N17_155 1_555 1_555
O1_156 N17_156 1_555 1_555
O2_156 N17_156 1_555 1_555
O3_156 N17_156 1_555 1_555
O1_157 N17_157 1_555 1_555
O2_157 N17_157 1_555 1_555
O3_157 N17_157 1_555 1_555
O1_158 N17_158 1_555 1_555
O2_158 N17_158 1_555 1_555
O3_158 N17_158 1_555 1_555
O1_159 N17_159 1_555 1_555
O2_159 N17_159 1_555 1_555
O3_159 N17_159 1_555 1_555
O1_160 N17_160 1_555 1_555
O2_160 N17_160 1_555 1_555
O3_160 N17_160 1_555 1_555
O1_161 N17_161 1_555 1_555
O2_161 N17_161 1_555 1_555
O3_161 N17_161 1_555 1_555
O1_162 N17_162 1_555 1_555
O2_162 N17_162 1_555 1_555
O3_162 N17_162 1_555 1_555
O1_163 N17_163 1_555 1_555
O2_163 N17_163 1_555 1_555
O3_163 N17_163 1_555 1_555
O1_164 N17_164 1_555 1_555
O2_164 N17_164 1_555 1_555
O3_164 N17_164 1_555 1_555
O1_165 N17_165 1_555 1_555
O2_165 N17_165 1_555 1_555
O3_165 N17_165 1_555 1_555
O1_166 N17_166 1_555 1_555
O2_166 N17_166 1_555 1_555
O3_166 N17_166 1_555 1_555
O1_167 N17_167 1_555 1_555
O2_167 N17_167 1_555 1_555
O3_167 N17_167 1_555 1_555
O1_168 N17_168 1_555 1_555
O2_168 N17_168 1_555 1_555
O3_168 N17_168 1_555 1_555
O1_169 N17_169 1_555 1_555
O2_169 N17_169 1_555 1_555
O3_169 N17_169 1_555 1_555
O1_170 N17_170 1_555 1_555
O2_170 N17_170 1_555 1_555
O3_170 N17_170 1_555 1_555
O1_171 N17_171 1_555 1_555
O2_171 N17_171 1_555 1_555
O3_171 N17_171 1_555 1_555
O1_172 N17_172 1_555 1_555
O2_172 N17_172 1_555 1_555
O3_172 N17_172 1_555 1_555
O1_173 N17_173 1_555 1_555
O2_173 N17_173 1_555 1_555
O3_173 N17_173 1_555 1_555
O1_174 N17_174 1_555 1_555
O2_174 N17_174 1_555 1_555
O3_174 N17_174 1_555 1_555
O1_175 N17_175 1_555 1_555
O2_175 N17_175 1_555 1_555
O3_175 N17_175 1_555 1_555
O1_176 N17_176 1_555 1_555
O2_176 N17_176 1_555 1_555
O3_176 N17_176 1_555 1_555
O1_177 N17_177 1_555 1_555
O2_177 N17_177 1_555 1_555
O3_177 N17_177 1_555 1_555
O1_178 N17_178 1_555 1_555
O2_178 N17_178 1_555 1_555
O3_178 N17_178 1_555 1_555
O1_179 N17_179 1_555 1_555
O2_179 N17_179 1_555 1_555
O3_179 N17_179 1_555 1_555
O1_180 N17_180 1_555 1_555
O2_180 N17_180 1_555 1_555
O3_180 N17_180 1_555 1_555
O1_181 N17_181 1_555 1_555
O2_181 N17_181 1_555 1_555
O3_181 N17_181 1_555 1_555
O1_182 N17_182 1_555 1_555
O2_182 N17_182 1_555 1_555
O3_182 N17_182 1_555 1_555
O1_183 N17_183 1_555 1_555
O2_183 N17_183 1_555 1_555
O3_183 N17_183 1_555 1_555
O1_184 N17_184 1_555 1_555
O2_184 N17_184 1_555 1_555
O3_184 N17_184 1_555 1_555
O1_185 N17_185 1_555 1_555
O2_185 N17_185 1_555 1_555
O3_185 N17_185 1_555 1_555
O1_186 N17_186 1_555 1_555
O2_186 N17_186 1_555 1_555
O3_186 N17_186 1_555 1_555
O1_187 N17_187 1_555 1_555
O2_187 N17_187 1_555 1_555
O3_187 N17_187 1_555 1_555
O1_188 N17_188 1_555 1_555
O2_188 N17_188 1_555 1_555
O3_188 N17_188 1_555 1_555
O1_189 N17_189 1_555 1_555
O2_189 N17_189 1_555 1_555
O3_189 N17_189 1_555 1_555
O1_190 N17_190 1_555 1_555
O2_190 N17_190 1_555 1_555
O3_190 N17_190 1_555 1_555
O1_191 N17_191 1_555 1_555
O2_191 N17_191 1_555 1_555
O3_191 N17_191 1_555 1_555
O1_192 N17_192 1_555 1_555
O2_192 N17_192 1_555 1_555
O3_192 N17_192 1_555 1_555
O4 N18 1_555 1_555
N18 O5 1_555 1_555
O6 N18 1_555 1_555
O4_2 N18_2 1_555 1_555
N18_2 O5_2 1_555 1_555
O6_2 N18_2 1_555 1_555
O4_3 N18_3 1_555 1_555
N18_3 O5_3 1_555 1_555
O6_3 N18_3 1_555 1_555
O4_4 N18_4 1_555 1_555
N18_4 O5_4 1_555 1_555
O6_4 N18_4 1_555 1_555
O4_5 N18_5 1_555 1_555
N18_5 O5_5 1_555 1_555
O6_5 N18_5 1_555 1_555
O4_6 N18_6 1_555 1_555
N18_6 O5_6 1_555 1_555
O6_6 N18_6 1_555 1_555
O4_7 N18_7 1_555 1_555
N18_7 O5_7 1_555 1_555
O6_7 N18_7 1_555 1_555
O4_8 N18_8 1_555 1_555
N18_8 O5_8 1_555 1_555
O6_8 N18_8 1_555 1_555
O4_9 N18_9 1_555 1_555
N18_9 O5_9 1_555 1_555
O6_9 N18_9 1_555 1_555
O4_10 N18_10 1_555 1_555
N18_10 O5_10 1_555 1_555
O6_10 N18_10 1_555 1_555
O4_11 N18_11 1_555 1_555
N18_11 O5_11 1_555 1_555
O6_11 N18_11 1_555 1_555
O4_12 N18_12 1_555 1_555
N18_12 O5_12 1_555 1_555
O6_12 N18_12 1_555 1_555
O4_13 N18_13 1_555 1_555
N18_13 O5_13 1_555 1_555
O6_13 N18_13 1_555 1_555
O4_14 N18_14 1_555 1_555
N18_14 O5_14 1_555 1_555
O6_14 N18_14 1_555 1_555
O4_15 N18_15 1_555 1_555
N18_15 O5_15 1_555 1_555
O6_15 N18_15 1_555 1_555
O4_16 N18_16 1_555 1_555
N18_16 O5_16 1_555 1_555
O6_16 N18_16 1_555 1_555
O4_17 N18_17 1_555 1_555
N18_17 O5_17 1_555 1_555
O6_17 N18_17 1_555 1_555
O4_18 N18_18 1_555 1_555
N18_18 O5_18 1_555 1_555
O6_18 N18_18 1_555 1_555
O4_19 N18_19 1_555 1_555
N18_19 O5_19 1_555 1_555
O6_19 N18_19 1_555 1_555
O4_20 N18_20 1_555 1_555
N18_20 O5_20 1_555 1_555
O6_20 N18_20 1_555 1_555
O4_21 N18_21 1_555 1_555
N18_21 O5_21 1_555 1_555
O6_21 N18_21 1_555 1_555
O4_22 N18_22 1_555 1_555
N18_22 O5_22 1_555 1_555
O6_22 N18_22 1_555 1_555
O4_23 N18_23 1_555 1_555
N18_23 O5_23 1_555 1_555
O6_23 N18_23 1_555 1_555
O4_24 N18_24 1_555 1_555
N18_24 O5_24 1_555 1_555
O6_24 N18_24 1_555 1_555
O4_25 N18_25 1_555 1_555
N18_25 O5_25 1_555 1_555
O6_25 N18_25 1_555 1_555
O4_26 N18_26 1_555 1_555
N18_26 O5_26 1_555 1_555
O6_26 N18_26 1_555 1_555
O4_27 N18_27 1_555 1_555
N18_27 O5_27 1_555 1_555
O6_27 N18_27 1_555 1_555
O4_28 N18_28 1_555 1_555
N18_28 O5_28 1_555 1_555
O6_28 N18_28 1_555 1_555
O4_29 N18_29 1_555 1_555
N18_29 O5_29 1_555 1_555
O6_29 N18_29 1_555 1_555
O4_30 N18_30 1_555 1_555
N18_30 O5_30 1_555 1_555
O6_30 N18_30 1_555 1_555
O4_31 N18_31 1_555 1_555
N18_31 O5_31 1_555 1_555
O6_31 N18_31 1_555 1_555
O4_32 N18_32 1_555 1_555
N18_32 O5_32 1_555 1_555
O6_32 N18_32 1_555 1_555
O4_33 N18_33 1_555 1_555
N18_33 O5_33 1_555 1_555
O6_33 N18_33 1_555 1_555
O4_34 N18_34 1_555 1_555
N18_34 O5_34 1_555 1_555
O6_34 N18_34 1_555 1_555
O4_35 N18_35 1_555 1_555
N18_35 O5_35 1_555 1_555
O6_35 N18_35 1_555 1_555
O4_36 N18_36 1_555 1_555
N18_36 O5_36 1_555 1_555
O6_36 N18_36 1_555 1_555
O4_37 N18_37 1_555 1_555
N18_37 O5_37 1_555 1_555
O6_37 N18_37 1_555 1_555
O4_38 N18_38 1_555 1_555
N18_38 O5_38 1_555 1_555
O6_38 N18_38 1_555 1_555
O4_39 N18_39 1_555 1_555
N18_39 O5_39 1_555 1_555
O6_39 N18_39 1_555 1_555
O4_40 N18_40 1_555 1_555
N18_40 O5_40 1_555 1_555
O6_40 N18_40 1_555 1_555
O4_41 N18_41 1_555 1_555
N18_41 O5_41 1_555 1_555
O6_41 N18_41 1_555 1_555
O4_42 N18_42 1_555 1_555
N18_42 O5_42 1_555 1_555
O6_42 N18_42 1_555 1_555
O4_43 N18_43 1_555 1_555
N18_43 O5_43 1_555 1_555
O6_43 N18_43 1_555 1_555
O4_44 N18_44 1_555 1_555
N18_44 O5_44 1_555 1_555
O6_44 N18_44 1_555 1_555
O4_45 N18_45 1_555 1_555
N18_45 O5_45 1_555 1_555
O6_45 N18_45 1_555 1_555
O4_46 N18_46 1_555 1_555
N18_46 O5_46 1_555 1_555
O6_46 N18_46 1_555 1_555
O4_47 N18_47 1_555 1_555
N18_47 O5_47 1_555 1_555
O6_47 N18_47 1_555 1_555
O4_48 N18_48 1_555 1_555
N18_48 O5_48 1_555 1_555
O6_48 N18_48 1_555 1_555
O4_49 N18_49 1_555 1_555
N18_49 O5_49 1_555 1_555
O6_49 N18_49 1_555 1_555
O4_50 N18_50 1_555 1_555
N18_50 O5_50 1_555 1_555
O6_50 N18_50 1_555 1_555
O4_51 N18_51 1_555 1_555
N18_51 O5_51 1_555 1_555
O6_51 N18_51 1_555 1_555
O4_52 N18_52 1_555 1_555
N18_52 O5_52 1_555 1_555
O6_52 N18_52 1_555 1_555
O4_53 N18_53 1_555 1_555
N18_53 O5_53 1_555 1_555
O6_53 N18_53 1_555 1_555
O4_54 N18_54 1_555 1_555
N18_54 O5_54 1_555 1_555
O6_54 N18_54 1_555 1_555
O4_55 N18_55 1_555 1_555
N18_55 O5_55 1_555 1_555
O6_55 N18_55 1_555 1_555
O4_56 N18_56 1_555 1_555
N18_56 O5_56 1_555 1_555
O6_56 N18_56 1_555 1_555
O4_57 N18_57 1_555 1_555
N18_57 O5_57 1_555 1_555
O6_57 N18_57 1_555 1_555
O4_58 N18_58 1_555 1_555
N18_58 O5_58 1_555 1_555
O6_58 N18_58 1_555 1_555
O4_59 N18_59 1_555 1_555
N18_59 O5_59 1_555 1_555
O6_59 N18_59 1_555 1_555
O4_60 N18_60 1_555 1_555
N18_60 O5_60 1_555 1_555
O6_60 N18_60 1_555 1_555
O4_61 N18_61 1_555 1_555
N18_61 O5_61 1_555 1_555
O6_61 N18_61 1_555 1_555
O4_62 N18_62 1_555 1_555
N18_62 O5_62 1_555 1_555
O6_62 N18_62 1_555 1_555
O4_63 N18_63 1_555 1_555
N18_63 O5_63 1_555 1_555
O6_63 N18_63 1_555 1_555
O4_64 N18_64 1_555 1_555
N18_64 O5_64 1_555 1_555
O6_64 N18_64 1_555 1_555
O7 N19 1_555 1_555
N19 O8 1_555 1_555
O9 N19 1_555 1_555
O7_2 N19_2 1_555 1_555
N19_2 O8_2 1_555 1_555
O9_2 N19_2 1_555 1_555
O7_3 N19_3 1_555 1_555
N19_3 O8_3 1_555 1_555
O9_3 N19_3 1_555 1_555
O7_4 N19_4 1_555 1_555
N19_4 O8_4 1_555 1_555
O9_4 N19_4 1_555 1_555
O7_5 N19_5 1_555 1_555
N19_5 O8_5 1_555 1_555
O9_5 N19_5 1_555 1_555
O7_6 N19_6 1_555 1_555
N19_6 O8_6 1_555 1_555
O9_6 N19_6 1_555 1_555
O7_7 N19_7 1_555 1_555
N19_7 O8_7 1_555 1_555
O9_7 N19_7 1_555 1_555
O7_8 N19_8 1_555 1_555
N19_8 O8_8 1_555 1_555
O9_8 N19_8 1_555 1_555
O7_9 N19_9 1_555 1_555
N19_9 O8_9 1_555 1_555
O9_9 N19_9 1_555 1_555
O7_10 N19_10 1_555 1_555
N19_10 O8_10 1_555 1_555
O9_10 N19_10 1_555 1_555
O7_11 N19_11 1_555 1_555
N19_11 O8_11 1_555 1_555
O9_11 N19_11 1_555 1_555
O7_12 N19_12 1_555 1_555
N19_12 O8_12 1_555 1_555
O9_12 N19_12 1_555 1_555
O7_13 N19_13 1_555 1_555
N19_13 O8_13 1_555 1_555
O9_13 N19_13 1_555 1_555
O7_14 N19_14 1_555 1_555
N19_14 O8_14 1_555 1_555
O9_14 N19_14 1_555 1_555
O7_15 N19_15 1_555 1_555
N19_15 O8_15 1_555 1_555
O9_15 N19_15 1_555 1_555
O7_16 N19_16 1_555 1_555
N19_16 O8_16 1_555 1_555
O9_16 N19_16 1_555 1_555
O7_17 N19_17 1_555 1_555
N19_17 O8_17 1_555 1_555
O9_17 N19_17 1_555 1_555
O7_18 N19_18 1_555 1_555
N19_18 O8_18 1_555 1_555
O9_18 N19_18 1_555 1_555
O7_19 N19_19 1_555 1_555
N19_19 O8_19 1_555 1_555
O9_19 N19_19 1_555 1_555
O7_20 N19_20 1_555 1_555
N19_20 O8_20 1_555 1_555
O9_20 N19_20 1_555 1_555
O7_21 N19_21 1_555 1_555
N19_21 O8_21 1_555 1_555
O9_21 N19_21 1_555 1_555
O7_22 N19_22 1_555 1_555
N19_22 O8_22 1_555 1_555
O9_22 N19_22 1_555 1_555
O7_23 N19_23 1_555 1_555
N19_23 O8_23 1_555 1_555
O9_23 N19_23 1_555 1_555
O7_24 N19_24 1_555 1_555
N19_24 O8_24 1_555 1_555
O9_24 N19_24 1_555 1_555
O7_25 N19_25 1_555 1_555
N19_25 O8_25 1_555 1_555
O9_25 N19_25 1_555 1_555
O7_26 N19_26 1_555 1_555
N19_26 O8_26 1_555 1_555
O9_26 N19_26 1_555 1_555
O7_27 N19_27 1_555 1_555
N19_27 O8_27 1_555 1_555
O9_27 N19_27 1_555 1_555
O7_28 N19_28 1_555 1_555
N19_28 O8_28 1_555 1_555
O9_28 N19_28 1_555 1_555
O7_29 N19_29 1_555 1_555
N19_29 O8_29 1_555 1_555
O9_29 N19_29 1_555 1_555
O7_30 N19_30 1_555 1_555
N19_30 O8_30 1_555 1_555
O9_30 N19_30 1_555 1_555
O7_31 N19_31 1_555 1_555
N19_31 O8_31 1_555 1_555
O9_31 N19_31 1_555 1_555
O7_32 N19_32 1_555 1_555
N19_32 O8_32 1_555 1_555
O9_32 N19_32 1_555 1_555
O7_33 N19_33 1_555 1_555
N19_33 O8_33 1_555 1_555
O9_33 N19_33 1_555 1_555
O7_34 N19_34 1_555 1_555
N19_34 O8_34 1_555 1_555
O9_34 N19_34 1_555 1_555
O7_35 N19_35 1_555 1_555
N19_35 O8_35 1_555 1_555
O9_35 N19_35 1_555 1_555
O7_36 N19_36 1_555 1_555
N19_36 O8_36 1_555 1_555
O9_36 N19_36 1_555 1_555
O7_37 N19_37 1_555 1_555
N19_37 O8_37 1_555 1_555
O9_37 N19_37 1_555 1_555
O7_38 N19_38 1_555 1_555
N19_38 O8_38 1_555 1_555
O9_38 N19_38 1_555 1_555
O7_39 N19_39 1_555 1_555
N19_39 O8_39 1_555 1_555
O9_39 N19_39 1_555 1_555
O7_40 N19_40 1_555 1_555
N19_40 O8_40 1_555 1_555
O9_40 N19_40 1_555 1_555
O7_41 N19_41 1_555 1_555
N19_41 O8_41 1_555 1_555
O9_41 N19_41 1_555 1_555
O7_42 N19_42 1_555 1_555
N19_42 O8_42 1_555 1_555
O9_42 N19_42 1_555 1_555
O7_43 N19_43 1_555 1_555
N19_43 O8_43 1_555 1_555
O9_43 N19_43 1_555 1_555
O7_44 N19_44 1_555 1_555
N19_44 O8_44 1_555 1_555
O9_44 N19_44 1_555 1_555
O7_45 N19_45 1_555 1_555
N19_45 O8_45 1_555 1_555
O9_45 N19_45 1_555 1_555
O7_46 N19_46 1_555 1_555
N19_46 O8_46 1_555 1_555
O9_46 N19_46 1_555 1_555
O7_47 N19_47 1_555 1_555
N19_47 O8_47 1_555 1_555
O9_47 N19_47 1_555 1_555
O7_48 N19_48 1_555 1_555
N19_48 O8_48 1_555 1_555
O9_48 N19_48 1_555 1_555
O7_49 N19_49 1_555 1_555
N19_49 O8_49 1_555 1_555
O9_49 N19_49 1_555 1_555
O7_50 N19_50 1_555 1_555
N19_50 O8_50 1_555 1_555
O9_50 N19_50 1_555 1_555
O7_51 N19_51 1_555 1_555
N19_51 O8_51 1_555 1_555
O9_51 N19_51 1_555 1_555
O7_52 N19_52 1_555 1_555
N19_52 O8_52 1_555 1_555
O9_52 N19_52 1_555 1_555
O7_53 N19_53 1_555 1_555
N19_53 O8_53 1_555 1_555
O9_53 N19_53 1_555 1_555
O7_54 N19_54 1_555 1_555
N19_54 O8_54 1_555 1_555
O9_54 N19_54 1_555 1_555
O7_55 N19_55 1_555 1_555
N19_55 O8_55 1_555 1_555
O9_55 N19_55 1_555 1_555
O7_56 N19_56 1_555 1_555
N19_56 O8_56 1_555 1_555
O9_56 N19_56 1_555 1_555
O7_57 N19_57 1_555 1_555
N19_57 O8_57 1_555 1_555
O9_57 N19_57 1_555 1_555
O7_58 N19_58 1_555 1_555
N19_58 O8_58 1_555 1_555
O9_58 N19_58 1_555 1_555
O7_59 N19_59 1_555 1_555
N19_59 O8_59 1_555 1_555
O9_59 N19_59 1_555 1_555
O7_60 N19_60 1_555 1_555
N19_60 O8_60 1_555 1_555
O9_60 N19_60 1_555 1_555
O7_61 N19_61 1_555 1_555
N19_61 O8_61 1_555 1_555
O9_61 N19_61 1_555 1_555
O7_62 N19_62 1_555 1_555
N19_62 O8_62 1_555 1_555
O9_62 N19_62 1_555 1_555
O7_63 N19_63 1_555 1_555
N19_63 O8_63 1_555 1_555
O9_63 N19_63 1_555 1_555
O7_64 N19_64 1_555 1_555
N19_64 O8_64 1_555 1_555
O9_64 N19_64 1_555 1_555
N20 O10 1_555 1_555
O11 N20 1_555 1_555
O12 N20 1_555 1_555
N20_2 O10_2 1_555 1_555
O11_2 N20_2 1_555 1_555
O12_2 N20_2 1_555 1_555
N20_3 O10_3 1_555 1_555
O11_3 N20_3 1_555 1_555
O12_3 N20_3 1_555 1_555
N20_4 O10_4 1_555 1_555
O11_4 N20_4 1_555 1_555
O12_4 N20_4 1_555 1_555
N20_5 O10_5 1_555 1_555
O11_5 N20_5 1_555 1_555
O12_5 N20_5 1_555 1_555
N20_6 O10_6 1_555 1_555
O11_6 N20_6 1_555 1_555
O12_6 N20_6 1_555 1_555
N20_7 O10_7 1_555 1_555
O11_7 N20_7 1_555 1_555
O12_7 N20_7 1_555 1_555
N20_8 O10_8 1_555 1_555
O11_8 N20_8 1_555 1_555
O12_8 N20_8 1_555 1_555
N20_9 O10_9 1_555 1_555
O11_9 N20_9 1_555 1_555
O12_9 N20_9 1_555 1_555
N20_10 O10_10 1_555 1_555
O11_10 N20_10 1_555 1_555
O12_10 N20_10 1_555 1_555
N20_11 O10_11 1_555 1_555
O11_11 N20_11 1_555 1_555
O12_11 N20_11 1_555 1_555
N20_12 O10_12 1_555 1_555
O11_12 N20_12 1_555 1_555
O12_12 N20_12 1_555 1_555
N20_13 O10_13 1_555 1_555
O11_13 N20_13 1_555 1_555
O12_13 N20_13 1_555 1_555
N20_14 O10_14 1_555 1_555
O11_14 N20_14 1_555 1_555
O12_14 N20_14 1_555 1_555
N20_15 O10_15 1_555 1_555
O11_15 N20_15 1_555 1_555
O12_15 N20_15 1_555 1_555
N20_16 O10_16 1_555 1_555
O11_16 N20_16 1_555 1_555
O12_16 N20_16 1_555 1_555
N20_17 O10_17 1_555 1_555
O11_17 N20_17 1_555 1_555
O12_17 N20_17 1_555 1_555
N20_18 O10_18 1_555 1_555
O11_18 N20_18 1_555 1_555
O12_18 N20_18 1_555 1_555
N20_19 O10_19 1_555 1_555
O11_19 N20_19 1_555 1_555
O12_19 N20_19 1_555 1_555
N20_20 O10_20 1_555 1_555
O11_20 N20_20 1_555 1_555
O12_20 N20_20 1_555 1_555
N20_21 O10_21 1_555 1_555
O11_21 N20_21 1_555 1_555
O12_21 N20_21 1_555 1_555
N20_22 O10_22 1_555 1_555
O11_22 N20_22 1_555 1_555
O12_22 N20_22 1_555 1_555
N20_23 O10_23 1_555 1_555
O11_23 N20_23 1_555 1_555
O12_23 N20_23 1_555 1_555
N20_24 O10_24 1_555 1_555
O11_24 N20_24 1_555 1_555
O12_24 N20_24 1_555 1_555
N20_25 O10_25 1_555 1_555
O11_25 N20_25 1_555 1_555
O12_25 N20_25 1_555 1_555
N20_26 O10_26 1_555 1_555
O11_26 N20_26 1_555 1_555
O12_26 N20_26 1_555 1_555
N20_27 O10_27 1_555 1_555
O11_27 N20_27 1_555 1_555
O12_27 N20_27 1_555 1_555
N20_28 O10_28 1_555 1_555
O11_28 N20_28 1_555 1_555
O12_28 N20_28 1_555 1_555
N20_29 O10_29 1_555 1_555
O11_29 N20_29 1_555 1_555
O12_29 N20_29 1_555 1_555
N20_30 O10_30 1_555 1_555
O11_30 N20_30 1_555 1_555
O12_30 N20_30 1_555 1_555
N20_31 O10_31 1_555 1_555
O11_31 N20_31 1_555 1_555
O12_31 N20_31 1_555 1_555
N20_32 O10_32 1_555 1_555
O11_32 N20_32 1_555 1_555
O12_32 N20_32 1_555 1_555
N20_33 O10_33 1_555 1_555
O11_33 N20_33 1_555 1_555
O12_33 N20_33 1_555 1_555
N20_34 O10_34 1_555 1_555
O11_34 N20_34 1_555 1_555
O12_34 N20_34 1_555 1_555
N20_35 O10_35 1_555 1_555
O11_35 N20_35 1_555 1_555
O12_35 N20_35 1_555 1_555
N20_36 O10_36 1_555 1_555
O11_36 N20_36 1_555 1_555
O12_36 N20_36 1_555 1_555
N20_37 O10_37 1_555 1_555
O11_37 N20_37 1_555 1_555
O12_37 N20_37 1_555 1_555
N20_38 O10_38 1_555 1_555
O11_38 N20_38 1_555 1_555
O12_38 N20_38 1_555 1_555
N20_39 O10_39 1_555 1_555
O11_39 N20_39 1_555 1_555
O12_39 N20_39 1_555 1_555
N20_40 O10_40 1_555 1_555
O11_40 N20_40 1_555 1_555
O12_40 N20_40 1_555 1_555
N20_41 O10_41 1_555 1_555
O11_41 N20_41 1_555 1_555
O12_41 N20_41 1_555 1_555
N20_42 O10_42 1_555 1_555
O11_42 N20_42 1_555 1_555
O12_42 N20_42 1_555 1_555
N20_43 O10_43 1_555 1_555
O11_43 N20_43 1_555 1_555
O12_43 N20_43 1_555 1_555
N20_44 O10_44 1_555 1_555
O11_44 N20_44 1_555 1_555
O12_44 N20_44 1_555 1_555
N20_45 O10_45 1_555 1_555
O11_45 N20_45 1_555 1_555
O12_45 N20_45 1_555 1_555
N20_46 O10_46 1_555 1_555
O11_46 N20_46 1_555 1_555
O12_46 N20_46 1_555 1_555
N20_47 O10_47 1_555 1_555
O11_47 N20_47 1_555 1_555
O12_47 N20_47 1_555 1_555
N20_48 O10_48 1_555 1_555
O11_48 N20_48 1_555 1_555
O12_48 N20_48 1_555 1_555
N20_49 O10_49 1_555 1_555
O11_49 N20_49 1_555 1_555
O12_49 N20_49 1_555 1_555
N20_50 O10_50 1_555 1_555
O11_50 N20_50 1_555 1_555
O12_50 N20_50 1_555 1_555
N20_51 O10_51 1_555 1_555
O11_51 N20_51 1_555 1_555
O12_51 N20_51 1_555 1_555
N20_52 O10_52 1_555 1_555
O11_52 N20_52 1_555 1_555
O12_52 N20_52 1_555 1_555
N20_53 O10_53 1_555 1_555
O11_53 N20_53 1_555 1_555
O12_53 N20_53 1_555 1_555
N20_54 O10_54 1_555 1_555
O11_54 N20_54 1_555 1_555
O12_54 N20_54 1_555 1_555
N20_55 O10_55 1_555 1_555
O11_55 N20_55 1_555 1_555
O12_55 N20_55 1_555 1_555
N20_56 O10_56 1_555 1_555
O11_56 N20_56 1_555 1_555
O12_56 N20_56 1_555 1_555
N20_57 O10_57 1_555 1_555
O11_57 N20_57 1_555 1_555
O12_57 N20_57 1_555 1_555
N20_58 O10_58 1_555 1_555
O11_58 N20_58 1_555 1_555
O12_58 N20_58 1_555 1_555
N20_59 O10_59 1_555 1_555
O11_59 N20_59 1_555 1_555
O12_59 N20_59 1_555 1_555
N20_60 O10_60 1_555 1_555
O11_60 N20_60 1_555 1_555
O12_60 N20_60 1_555 1_555
N20_61 O10_61 1_555 1_555
O11_61 N20_61 1_555 1_555
O12_61 N20_61 1_555 1_555
N20_62 O10_62 1_555 1_555
O11_62 N20_62 1_555 1_555
O12_62 N20_62 1_555 1_555
N20_63 O10_63 1_555 1_555
O11_63 N20_63 1_555 1_555
O12_63 N20_63 1_555 1_555
N20_64 O10_64 1_555 1_555
O11_64 N20_64 1_555 1_555
O12_64 N20_64 1_555 1_555

#END
