
###############################################################################
#
# This file contains modified crystal structure data generated from the
# MOF subset of the Cambridge Structural Database (CSD) v543 
# hosted by the Cambridge Crystallographic Data Centre (CCDC).
#
# This work is licensed under the Creative Commons
# Attribution-NonCommercial-ShareAlike 4.0 International License.
# To view a copy of this license, visit
# http://creativecommons.org/licenses/by-nc-sa/4.0/
# or send a letter to
# Creative Commons, PO Box 1866, Mountain View, CA 94042, USA.
#
# CIF created using the CSD Python API on 29 September 2022
# The structure has been converted into the P1 space group
# The structure has a 3D framework
# The original CSD entry USAWIW is in the monoclinic crystal system
# The framework has been calculated to contain at least 10.0% void space
# The void calculation uses a probe of radius 1.32A, grid spacing 0.4
#
###############################################################################

data_USAWIW
_chemical_formula_moiety         '(C184 H120 Cd8 N16 O24)n'
_symmetry_cell_setting           triclinic
_symmetry_space_group_name_H-M   'P 1'
_symmetry_Int_Tables_number      1
_space_group_name_Hall           'P 1'
loop_
_symmetry_equiv_pos_site_id
_symmetry_equiv_pos_as_xyz
1 x,y,z
_cell_length_a                   34.30(3)
_cell_length_b                   9.426(8)
_cell_length_c                   21.337(18)
_cell_angle_alpha                90
_cell_angle_beta                 113.766(10)
_cell_angle_gamma                90
_cell_volume                     6313.5
loop_
_atom_site_label
_atom_site_type_symbol
_atom_site_fract_x
_atom_site_fract_y
_atom_site_fract_z
O1 O 0.23576(15) 0.1401(5) 0.0278(3)
C1 C 0.20748(19) 0.0422(7) 0.0254(3)
O2 O 0.34353(15) 0.1243(5) 0.0309(3)
C2 C 0.1835(2) 0.0476(8) 0.0644(4)
H1 H 0.1874 0.1237 0.0955
C19 C 0.4286(3) 0.0626(15) 0.0497(5)
H12 H 0.4240 0.0798 0.0900
C20 C 0.4699(3) 0.0339(17) 0.0536(5)
H13 H 0.4928 0.0295 0.0974
H18 H 0.5523 0.0141 0.1049
N3 N 0.77328(16) 0.0858(5) 0.0551(3)
N4 N 0.72663(17) 0.3126(6) 0.3378(3)
C35 C 0.8283(2) 0.1856(8) 0.0228(4)
C36 C 0.79775(18) 0.0783(7) 0.0184(3)
C37 C 0.8323(2) 0.2998(9) 0.0676(4)
H23 H 0.8527 0.3723 0.0733
C38 C 0.8068(2) 0.3059(8) 0.1028(4)
H24 H 0.8088 0.3845 0.1318
C39 C 0.7773(2) 0.1955(8) 0.0964(3)
C40 C 0.7512(2) 0.1938(7) 0.1357(3)
H25 H 0.7287 0.1264 0.1221
C41 C 0.7553(2) 0.2757(8) 0.1880(3)
H26 H 0.7763 0.3482 0.2002
C42 C 0.7298(2) 0.2630(8) 0.2289(3)
C43 C 0.6919(2) 0.1826(10) 0.2091(4)
H27 H 0.6799 0.1384 0.1654
C44 C 0.6729(3) 0.1700(10) 0.2546(5)
H28 H 0.6474 0.1170 0.2426
C45 C 0.6915(2) 0.2360(9) 0.3188(4)
H29 H 0.6783 0.2250 0.3500
C46 C 0.7445(2) 0.3273(8) 0.2927(4)
H30 H 0.7691 0.3858 0.3054
Cd5 Cd 0.234105(13) 0.37751(5) 0.04649(2)
Cd6 Cd 0.765895(13) 0.37751(5) 0.45351(2)
Cd1 Cd 0.265895(13) 0.12249(5) 0.95351(2)
O3 O 0.32064(15) 0.0697(6) 0.9217(3)
C17 C 0.3503(2) 0.0906(8) 0.9809(4)
C18 C 0.3946(2) 0.0652(8) 0.9853(4)
C21 C 0.4780(2) 0.0123(10) 0.9967(4)
C22 C 0.4434(2) 0.0086(13) 0.9353(5)
C23 C 0.4025(2) 0.0369(12) 0.9295(5)
H15 H 0.3796 0.0364 0.8856
C33 C 0.8464(3) 0.0588(9) 0.9418(5)
H21 H 0.8633 0.0500 0.9161
C34 C 0.8520(2) 0.1718(9) 0.9820(5)
H22 H 0.8720 0.2430 0.9834
O8 O 0.26424(15) 0.3599(5) 0.9722(3)
N5 N 0.22663(17) 0.1874(6) 0.8378(3)
C3 C 0.1536(3) 0.9412(9) 0.0582(5)
H2 H 0.1367 0.9500 0.0839
C4 C 0.1480(2) 0.8282(9) 0.0180(5)
H3 H 0.1280 0.7570 0.0166
O5 O 0.67936(15) 0.9303(6) 0.0783(3)
C24 C 0.6497(2) 0.9094(8) 0.0191(4)
C25 C 0.6054(2) 0.9348(8) 0.0147(4)
C28 C 0.5220(2) 0.9877(10) 0.0033(4)
C29 C 0.5566(2) 0.9914(13) 0.0647(5)
C30 C 0.5975(2) 0.9631(12) 0.0705(5)
H19 H 0.6204 0.9636 0.1144
Cd2 Cd 0.734105(13) 0.87751(5) 0.04649(2)
O7 O 0.73576(15) 0.6401(5) 0.0278(3)
N6 N 0.77337(17) 0.8126(6) 0.1622(3)
N1 N 0.22672(16) 0.9142(5) 0.9449(3)
N2 N 0.27337(17) 0.6874(6) 0.6622(3)
C5 C 0.1717(2) 0.8144(8) 0.9772(4)
C6 C 0.20225(18) 0.9217(7) 0.9816(3)
C7 C 0.1677(2) 0.7002(9) 0.9324(4)
H4 H 0.1473 0.6277 0.9267
C8 C 0.1932(2) 0.6941(8) 0.8972(4)
H5 H 0.1912 0.6155 0.8682
C9 C 0.2227(2) 0.8045(8) 0.9036(3)
C10 C 0.2488(2) 0.8062(7) 0.8643(3)
H6 H 0.2713 0.8736 0.8779
C11 C 0.2447(2) 0.7243(8) 0.8120(3)
H7 H 0.2237 0.6518 0.7998
C12 C 0.2702(2) 0.7370(8) 0.7711(3)
C13 C 0.3081(2) 0.8174(10) 0.7909(4)
H8 H 0.3201 0.8616 0.8346
C14 C 0.3271(3) 0.8300(10) 0.7454(5)
H9 H 0.3526 0.8830 0.7574
C15 C 0.3085(2) 0.7640(9) 0.6812(4)
H10 H 0.3217 0.7750 0.6500
C16 C 0.2555(2) 0.6727(8) 0.7073(4)
H11 H 0.2309 0.6142 0.6946
H14 H 0.4477 0.9859 0.8951
O4 O 0.65647(15) 0.8757(5) 0.9691(3)
C26 C 0.5714(3) 0.9374(15) 0.9503(5)
H16 H 0.5760 0.9202 0.9100
C27 C 0.5301(3) 0.9661(17) 0.9464(5)
H17 H 0.5072 0.9705 0.9026
O6 O 0.76424(15) 0.8599(5) 0.9722(3)
C31 C 0.79252(19) 0.9578(7) 0.9746(3)
C32 C 0.8165(2) 0.9524(8) 0.9356(4)
H20 H 0.8126 0.8763 0.9045
Cd3 Cd 0.765895(13) 0.62249(5) 0.95351(2)
Cd4 Cd 0.234105(13) 0.62249(5) 0.54649(2)
Cd1_2 Cd 0.734105(13) 0.12249(5) 0.54649(2)
O1_2 O 0.76424(15) 0.1401(5) 0.4722(3)
C1_2 C 0.79252(19) 0.0422(7) 0.4746(3)
O2_2 O 0.65647(15) 0.1243(5) 0.4691(3)
C2_2 C 0.8165(2) 0.0476(8) 0.4356(4)
H1_2 H 0.8126 0.1237 0.4045
O3_2 O 0.67936(15) 0.0697(6) 0.5783(3)
C17_2 C 0.6497(2) 0.0906(8) 0.5191(4)
C18_2 C 0.6054(2) 0.0652(8) 0.5147(4)
C19_2 C 0.5714(3) 0.0626(15) 0.4503(5)
H12_2 H 0.5760 0.0798 0.4100
C20_2 C 0.5301(3) 0.0339(17) 0.4464(5)
H13_2 H 0.5072 0.0295 0.4026
C21_2 C 0.5220(2) 0.0123(10) 0.5033(4)
C22_2 C 0.5566(2) 0.0086(13) 0.5647(5)
C23_2 C 0.5975(2) 0.0369(12) 0.5705(5)
H15_2 H 0.6204 0.0364 0.6144
H18_2 H 0.4477 0.0141 0.3951
N3_2 N 0.22672(16) 0.0858(5) 0.4449(3)
N4_2 N 0.27337(17) 0.3126(6) 0.1622(3)
C33_2 C 0.1536(3) 0.0588(9) 0.5582(5)
H21_2 H 0.1367 0.0500 0.5839
C34_2 C 0.1480(2) 0.1718(9) 0.5180(5)
H22_2 H 0.1280 0.2430 0.5166
C35_2 C 0.1717(2) 0.1856(8) 0.4772(4)
C36_2 C 0.20225(18) 0.0783(7) 0.4816(3)
C37_2 C 0.1677(2) 0.2998(9) 0.4324(4)
H23_2 H 0.1473 0.3723 0.4267
C38_2 C 0.1932(2) 0.3059(8) 0.3972(4)
H24_2 H 0.1912 0.3845 0.3682
C39_2 C 0.2227(2) 0.1955(8) 0.4036(3)
C40_2 C 0.2488(2) 0.1938(7) 0.3643(3)
H25_2 H 0.2713 0.1264 0.3779
C41_2 C 0.2447(2) 0.2757(8) 0.3120(3)
H26_2 H 0.2237 0.3482 0.2998
C42_2 C 0.2702(2) 0.2630(8) 0.2711(3)
C43_2 C 0.3081(2) 0.1826(10) 0.2909(4)
H27_2 H 0.3201 0.1384 0.3346
C44_2 C 0.3271(3) 0.1700(10) 0.2454(5)
H28_2 H 0.3526 0.1170 0.2574
C45_2 C 0.3085(2) 0.2360(9) 0.1812(4)
H29_2 H 0.3217 0.2250 0.1500
C46_2 C 0.2555(2) 0.3273(8) 0.2073(4)
H30_2 H 0.2309 0.3858 0.1946
O8_2 O 0.73576(15) 0.3599(5) 0.5278(3)
N5_2 N 0.77337(17) 0.1874(6) 0.6622(3)
N1_2 N 0.77328(16) 0.9142(5) 0.5551(3)
N2_2 N 0.72663(17) 0.6874(6) 0.8378(3)
C3_2 C 0.8464(3) 0.9412(9) 0.4418(5)
H2_2 H 0.8633 0.9500 0.4161
C4_2 C 0.8520(2) 0.8282(9) 0.4820(5)
H3_2 H 0.8720 0.7570 0.4834
C5_2 C 0.8283(2) 0.8144(8) 0.5228(4)
C6_2 C 0.79775(18) 0.9217(7) 0.5184(3)
C7_2 C 0.8323(2) 0.7002(9) 0.5676(4)
H4_2 H 0.8527 0.6277 0.5733
C8_2 C 0.8068(2) 0.6941(8) 0.6028(4)
H5_2 H 0.8088 0.6155 0.6318
C9_2 C 0.7773(2) 0.8045(8) 0.5964(3)
C10_2 C 0.7512(2) 0.8062(7) 0.6357(3)
H6_2 H 0.7287 0.8736 0.6221
C11_2 C 0.7553(2) 0.7243(8) 0.6880(3)
H7_2 H 0.7763 0.6518 0.7002
C12_2 C 0.7298(2) 0.7370(8) 0.7289(3)
C13_2 C 0.6919(2) 0.8174(10) 0.7091(4)
H8_2 H 0.6799 0.8616 0.6654
C14_2 C 0.6729(3) 0.8300(10) 0.7546(5)
H9_2 H 0.6474 0.8830 0.7426
C15_2 C 0.6915(2) 0.7640(9) 0.8188(4)
H10_2 H 0.6783 0.7750 0.8500
C16_2 C 0.7445(2) 0.6727(8) 0.7927(4)
H11_2 H 0.7691 0.6142 0.8054
H14_2 H 0.5523 0.9859 0.6049
O4_2 O 0.34353(15) 0.8757(5) 0.5309(3)
O5_2 O 0.32064(15) 0.9303(6) 0.4217(3)
C24_2 C 0.3503(2) 0.9094(8) 0.4809(4)
C25_2 C 0.3946(2) 0.9348(8) 0.4853(4)
C26_2 C 0.4286(3) 0.9374(15) 0.5497(5)
H16_2 H 0.4240 0.9202 0.5900
C27_2 C 0.4699(3) 0.9661(17) 0.5536(5)
H17_2 H 0.4928 0.9705 0.5974
C28_2 C 0.4780(2) 0.9877(10) 0.4967(4)
C29_2 C 0.4434(2) 0.9914(13) 0.4353(5)
C30_2 C 0.4025(2) 0.9631(12) 0.4295(5)
H19_2 H 0.3796 0.9636 0.3856
Cd2_2 Cd 0.265895(13) 0.87751(5) 0.45351(2)
O6_2 O 0.23576(15) 0.8599(5) 0.5278(3)
C31_2 C 0.20748(19) 0.9578(7) 0.5254(3)
C32_2 C 0.1835(2) 0.9524(8) 0.5644(4)
H20_2 H 0.1874 0.8763 0.5955
O7_2 O 0.26424(15) 0.6401(5) 0.4722(3)
N6_2 N 0.22663(17) 0.8126(6) 0.3378(3)
O5_3 O 0.17936(15) 0.4303(6) 0.0783(3)
C24_3 C 0.1497(2) 0.4094(8) 0.0191(4)
C25_3 C 0.1054(2) 0.4348(8) 0.0147(4)
C28_3 C 0.0220(2) 0.4877(10) 0.0033(4)
C29_3 C 0.0566(2) 0.4914(13) 0.0647(5)
H18_3 H 0.0523 0.5141 0.1049
C30_3 C 0.0975(2) 0.4631(12) 0.0705(5)
H19_3 H 0.1204 0.4636 0.1144
N3_3 N 0.27328(16) 0.5858(5) 0.0551(3)
C35_3 C 0.3283(2) 0.6856(8) 0.0228(4)
C36_3 C 0.29775(18) 0.5783(7) 0.0184(3)
C37_3 C 0.3323(2) 0.7998(9) 0.0676(4)
H23_3 H 0.3527 0.8723 0.0733
C38_3 C 0.3068(2) 0.8059(8) 0.1028(4)
H24_3 H 0.3088 0.8845 0.1318
C39_3 C 0.2773(2) 0.6955(8) 0.0964(3)
C40_3 C 0.2512(2) 0.6938(7) 0.1357(3)
H25_3 H 0.2287 0.6264 0.1221
C41_3 C 0.2553(2) 0.7757(8) 0.1880(3)
H26_3 H 0.2763 0.8482 0.2002
C42_3 C 0.2298(2) 0.7630(8) 0.2289(3)
C43_3 C 0.1919(2) 0.6826(10) 0.2091(4)
H27_3 H 0.1799 0.6384 0.1654
C44_3 C 0.1729(3) 0.6700(10) 0.2546(5)
H28_3 H 0.1474 0.6170 0.2426
C45_3 C 0.1915(2) 0.7360(9) 0.3188(4)
H29_3 H 0.1783 0.7250 0.3500
C46_3 C 0.2445(2) 0.8273(8) 0.2927(4)
H30_3 H 0.2691 0.8858 0.3054
O4_3 O 0.15647(15) 0.3757(5) 0.9691(3)
C26_3 C 0.0714(3) 0.4374(15) 0.9503(5)
H16_3 H 0.0760 0.4202 0.9100
C27_3 C 0.0301(3) 0.4661(17) 0.9464(5)
H17_3 H 0.0072 0.4705 0.9026
C31_3 C 0.29252(19) 0.4578(7) 0.9746(3)
C32_3 C 0.3165(2) 0.4524(8) 0.9356(4)
H20_3 H 0.3126 0.3763 0.9045
C33_3 C 0.3464(3) 0.5588(9) 0.9418(5)
H21_3 H 0.3633 0.5500 0.9161
C34_3 C 0.3520(2) 0.6718(9) 0.9820(5)
H22_3 H 0.3720 0.7430 0.9834
C1_3 C 0.70748(19) 0.5422(7) 0.0254(3)
O2_3 O 0.84353(15) 0.6243(5) 0.0309(3)
C2_3 C 0.6835(2) 0.5476(8) 0.0644(4)
H1_3 H 0.6874 0.6237 0.0955
C3_3 C 0.6536(3) 0.4412(9) 0.0582(5)
H2_3 H 0.6367 0.4500 0.0839
C4_3 C 0.6480(2) 0.3282(9) 0.0180(5)
H3_3 H 0.6280 0.2570 0.0166
C19_3 C 0.9286(3) 0.5626(15) 0.0497(5)
H12_3 H 0.9240 0.5798 0.0900
C20_3 C 0.9699(3) 0.5339(17) 0.0536(5)
H13_3 H 0.9928 0.5295 0.0974
N1_3 N 0.72672(16) 0.4142(5) 0.9449(3)
O3_3 O 0.82064(15) 0.5697(6) 0.9217(3)
C5_3 C 0.6717(2) 0.3144(8) 0.9772(4)
C6_3 C 0.70225(18) 0.4217(7) 0.9816(3)
C7_3 C 0.6677(2) 0.2002(9) 0.9324(4)
H4_3 H 0.6473 0.1277 0.9267
C8_3 C 0.6932(2) 0.1941(8) 0.8972(4)
H5_3 H 0.6912 0.1155 0.8682
C9_3 C 0.7227(2) 0.3045(8) 0.9036(3)
C10_3 C 0.7488(2) 0.3062(7) 0.8643(3)
H6_3 H 0.7713 0.3736 0.8779
C11_3 C 0.7447(2) 0.2243(8) 0.8120(3)
H7_3 H 0.7237 0.1518 0.7998
C12_3 C 0.7702(2) 0.2370(8) 0.7711(3)
C13_3 C 0.8081(2) 0.3174(10) 0.7909(4)
H8_3 H 0.8201 0.3616 0.8346
C14_3 C 0.8271(3) 0.3300(10) 0.7454(5)
H9_3 H 0.8526 0.3830 0.7574
C15_3 C 0.8085(2) 0.2640(9) 0.6812(4)
H10_3 H 0.8217 0.2750 0.6500
C16_3 C 0.7555(2) 0.1727(8) 0.7073(4)
H11_3 H 0.7309 0.1142 0.6946
C17_3 C 0.8503(2) 0.5906(8) 0.9809(4)
C18_3 C 0.8946(2) 0.5652(8) 0.9853(4)
C21_3 C 0.9780(2) 0.5123(10) 0.9967(4)
C22_3 C 0.9434(2) 0.5086(13) 0.9353(5)
H14_3 H 0.9477 0.4859 0.8951
C23_3 C 0.9025(2) 0.5369(12) 0.9295(5)
H15_3 H 0.8796 0.5364 0.8856
N1_4 N 0.27328(16) 0.4142(5) 0.5551(3)
C1_4 C 0.29252(19) 0.5422(7) 0.4746(3)
O2_4 O 0.15647(15) 0.6243(5) 0.4691(3)
C2_4 C 0.3165(2) 0.5476(8) 0.4356(4)
H1_4 H 0.3126 0.6237 0.4045
O3_4 O 0.17936(15) 0.5697(6) 0.5783(3)
C3_4 C 0.3464(3) 0.4412(9) 0.4418(5)
H2_4 H 0.3633 0.4500 0.4161
C4_4 C 0.3520(2) 0.3282(9) 0.4820(5)
H3_4 H 0.3720 0.2570 0.4834
C5_4 C 0.3283(2) 0.3144(8) 0.5228(4)
C6_4 C 0.29775(18) 0.4217(7) 0.5184(3)
C7_4 C 0.3323(2) 0.2002(9) 0.5676(4)
H4_4 H 0.3527 0.1277 0.5733
C8_4 C 0.3068(2) 0.1941(8) 0.6028(4)
H5_4 H 0.3088 0.1155 0.6318
C9_4 C 0.2773(2) 0.3045(8) 0.5964(3)
C10_4 C 0.2512(2) 0.3062(7) 0.6357(3)
H6_4 H 0.2287 0.3736 0.6221
C11_4 C 0.2553(2) 0.2243(8) 0.6880(3)
H7_4 H 0.2763 0.1518 0.7002
C12_4 C 0.2298(2) 0.2370(8) 0.7289(3)
C13_4 C 0.1919(2) 0.3174(10) 0.7091(4)
H8_4 H 0.1799 0.3616 0.6654
C14_4 C 0.1729(3) 0.3300(10) 0.7546(5)
H9_4 H 0.1474 0.3830 0.7426
C15_4 C 0.1915(2) 0.2640(9) 0.8188(4)
H10_4 H 0.1783 0.2750 0.8500
C16_4 C 0.2445(2) 0.1727(8) 0.7927(4)
H11_4 H 0.2691 0.1142 0.8054
C17_4 C 0.1497(2) 0.5906(8) 0.5191(4)
C18_4 C 0.1054(2) 0.5652(8) 0.5147(4)
C19_4 C 0.0714(3) 0.5626(15) 0.4503(5)
H12_4 H 0.0760 0.5798 0.4100
C20_4 C 0.0301(3) 0.5339(17) 0.4464(5)
H13_4 H 0.0072 0.5295 0.4026
C21_4 C 0.0220(2) 0.5123(10) 0.5033(4)
C22_4 C 0.0566(2) 0.5086(13) 0.5647(5)
H14_4 H 0.0523 0.4859 0.6049
C23_4 C 0.0975(2) 0.5369(12) 0.5705(5)
H15_4 H 0.1204 0.5364 0.6144
O4_4 O 0.84353(15) 0.3757(5) 0.5309(3)
O5_4 O 0.82064(15) 0.4303(6) 0.4217(3)
C24_4 C 0.8503(2) 0.4094(8) 0.4809(4)
C25_4 C 0.8946(2) 0.4348(8) 0.4853(4)
C26_4 C 0.9286(3) 0.4374(15) 0.5497(5)
H16_4 H 0.9240 0.4202 0.5900
C27_4 C 0.9699(3) 0.4661(17) 0.5536(5)
H17_4 H 0.9928 0.4705 0.5974
C28_4 C 0.9780(2) 0.4877(10) 0.4967(4)
C29_4 C 0.9434(2) 0.4914(13) 0.4353(5)
H18_4 H 0.9477 0.5141 0.3951
C30_4 C 0.9025(2) 0.4631(12) 0.4295(5)
H19_4 H 0.8796 0.4636 0.3856
N3_4 N 0.72672(16) 0.5858(5) 0.4449(3)
C31_4 C 0.70748(19) 0.4578(7) 0.5254(3)
C32_4 C 0.6835(2) 0.4524(8) 0.5644(4)
H20_4 H 0.6874 0.3763 0.5955
C33_4 C 0.6536(3) 0.5588(9) 0.5582(5)
H21_4 H 0.6367 0.5500 0.5839
C34_4 C 0.6480(2) 0.6718(9) 0.5180(5)
H22_4 H 0.6280 0.7430 0.5166
C35_4 C 0.6717(2) 0.6856(8) 0.4772(4)
C36_4 C 0.70225(18) 0.5783(7) 0.4816(3)
C37_4 C 0.6677(2) 0.7998(9) 0.4324(4)
H23_4 H 0.6473 0.8723 0.4267
C38_4 C 0.6932(2) 0.8059(8) 0.3972(4)
H24_4 H 0.6912 0.8845 0.3682
C39_4 C 0.7227(2) 0.6955(8) 0.4036(3)
C40_4 C 0.7488(2) 0.6938(7) 0.3643(3)
H25_4 H 0.7713 0.6264 0.3779
C41_4 C 0.7447(2) 0.7757(8) 0.3120(3)
H26_4 H 0.7237 0.8482 0.2998
C42_4 C 0.7702(2) 0.7630(8) 0.2711(3)
C43_4 C 0.8081(2) 0.6826(10) 0.2909(4)
H27_4 H 0.8201 0.6384 0.3346
C44_4 C 0.8271(3) 0.6700(10) 0.2454(5)
H28_4 H 0.8526 0.6170 0.2574
C45_4 C 0.8085(2) 0.7360(9) 0.1812(4)
H29_4 H 0.8217 0.7250 0.1500
C46_4 C 0.7555(2) 0.8273(8) 0.2073(4)
H30_4 H 0.7309 0.8858 0.1946
loop_
_geom_bond_atom_site_label_1
_geom_bond_atom_site_label_2
_geom_bond_site_symmetry_1
_geom_bond_site_symmetry_2
O1 C1 1_555 1_555
C1 C2 1_555 1_555
C2 H1 1_555 1_555
H12 C19 1_555 1_555
C20 C19 1_555 1_555
H13 C20 1_555 1_555
N4 C45 1_555 1_555
C36 N3 1_555 1_555
C37 C35 1_555 1_555
H23 C37 1_555 1_555
C38 C37 1_555 1_555
H24 C38 1_555 1_555
C39 N3 1_555 1_555
C40 C39 1_555 1_555
H25 C40 1_555 1_555
C41 C40 1_555 1_555
H26 C41 1_555 1_555
C42 C41 1_555 1_555
C43 C42 1_555 1_555
H27 C43 1_555 1_555
C44 C43 1_555 1_555
H28 C44 1_555 1_555
C45 C44 1_555 1_555
H29 C45 1_555 1_555
C46 N4 1_555 1_555
H30 C46 1_555 1_555
Cd5 O1 1_555 1_555
Cd6 N4 1_555 1_555
C35 C36 1_555 1_555
C38 C39 1_555 1_555
C42 C46 1_555 1_555
O3 Cd1 1_555 1_555
C18 C17 1_555 1_555
C22 C21 1_555 1_555
C23 C18 1_555 1_555
H15 C23 1_555 1_555
H21 C33 1_555 1_555
C34 C33 1_555 1_555
H22 C34 1_555 1_555
O8 Cd1 1_555 1_555
N5 Cd1 1_555 1_555
O3 C17 1_555 1_555
C22 C23 1_555 1_555
H2 C3 1_555 1_555
C4 C3 1_555 1_555
H3 C4 1_555 1_555
O5 C24 1_555 1_555
C24 C25 1_555 1_555
C29 C28 1_555 1_555
C30 C25 1_555 1_555
H19 C30 1_555 1_555
O7 Cd2 1_555 1_555
N6 Cd2 1_555 1_555
O5 Cd2 1_555 1_555
C29 C30 1_555 1_555
N2 C15 1_555 1_555
C6 N1 1_555 1_555
C7 C5 1_555 1_555
H4 C7 1_555 1_555
C8 C7 1_555 1_555
H5 C8 1_555 1_555
C9 N1 1_555 1_555
C10 C9 1_555 1_555
H6 C10 1_555 1_555
C11 C10 1_555 1_555
H7 C11 1_555 1_555
C12 C11 1_555 1_555
C13 C12 1_555 1_555
H8 C13 1_555 1_555
C14 C13 1_555 1_555
H9 C14 1_555 1_555
C15 C14 1_555 1_555
H10 C15 1_555 1_555
C16 N2 1_555 1_555
H11 C16 1_555 1_555
C26 H16 1_555 1_555
C27 C26 1_555 1_555
H17 C27 1_555 1_555
C31 O6 1_555 1_555
C32 C31 1_555 1_555
H20 C32 1_555 1_555
Cd3 O6 1_555 1_555
Cd4 N2 1_555 1_555
C5 C6 1_555 1_555
C8 C9 1_555 1_555
C12 C16 1_555 1_555
Cd1_2 O1_2 1_555 1_555
O1_2 C1_2 1_555 1_555
C1_2 C2_2 1_555 1_555
O2_2 Cd1_2 1_555 1_555
C2_2 H1_2 1_555 1_555
O3_2 Cd1_2 1_555 1_555
C17_2 O2_2 1_555 1_555
C18_2 C17_2 1_555 1_555
C19_2 C18_2 1_555 1_555
H12_2 C19_2 1_555 1_555
C20_2 C19_2 1_555 1_555
H13_2 C20_2 1_555 1_555
C21_2 C20_2 1_555 1_555
C22_2 C21_2 1_555 1_555
C23_2 C18_2 1_555 1_555
H15_2 C23_2 1_555 1_555
N4_2 C45_2 1_555 1_555
H21_2 C33_2 1_555 1_555
C34_2 C33_2 1_555 1_555
H22_2 C34_2 1_555 1_555
C35_2 C34_2 1_555 1_555
C36_2 N3_2 1_555 1_555
C37_2 C35_2 1_555 1_555
H23_2 C37_2 1_555 1_555
C38_2 C37_2 1_555 1_555
H24_2 C38_2 1_555 1_555
C39_2 N3_2 1_555 1_555
C40_2 C39_2 1_555 1_555
H25_2 C40_2 1_555 1_555
C41_2 C40_2 1_555 1_555
H26_2 C41_2 1_555 1_555
C42_2 C41_2 1_555 1_555
C43_2 C42_2 1_555 1_555
H27_2 C43_2 1_555 1_555
C44_2 C43_2 1_555 1_555
H28_2 C44_2 1_555 1_555
C45_2 C44_2 1_555 1_555
H29_2 C45_2 1_555 1_555
C46_2 N4_2 1_555 1_555
H30_2 C46_2 1_555 1_555
Cd6 O1_2 1_555 1_555
Cd5 N4_2 1_555 1_555
O8_2 Cd1_2 1_555 1_555
N5_2 Cd1_2 1_555 1_555
O3_2 C17_2 1_555 1_555
C22_2 C23_2 1_555 1_555
C35_2 C36_2 1_555 1_555
C38_2 C39_2 1_555 1_555
C42_2 C46_2 1_555 1_555
Cd6 O8_2 1_555 1_555
N2_2 C15_2 1_555 1_555
H2_2 C3_2 1_555 1_555
C4_2 C3_2 1_555 1_555
H3_2 C4_2 1_555 1_555
C5_2 C4_2 1_555 1_555
C6_2 N1_2 1_555 1_555
C7_2 C5_2 1_555 1_555
H4_2 C7_2 1_555 1_555
C8_2 C7_2 1_555 1_555
H5_2 C8_2 1_555 1_555
C9_2 N1_2 1_555 1_555
C10_2 C9_2 1_555 1_555
H6_2 C10_2 1_555 1_555
C11_2 C10_2 1_555 1_555
H7_2 C11_2 1_555 1_555
C12_2 C11_2 1_555 1_555
C13_2 C12_2 1_555 1_555
H8_2 C13_2 1_555 1_555
C14_2 C13_2 1_555 1_555
H9_2 C14_2 1_555 1_555
C15_2 C14_2 1_555 1_555
H10_2 C15_2 1_555 1_555
C16_2 N2_2 1_555 1_555
H11_2 C16_2 1_555 1_555
O4_2 C24_2 1_555 1_555
O5_2 C24_2 1_555 1_555
C24_2 C25_2 1_555 1_555
C25_2 C26_2 1_555 1_555
C26_2 H16_2 1_555 1_555
C27_2 C26_2 1_555 1_555
H17_2 C27_2 1_555 1_555
C29_2 C28_2 1_555 1_555
C30_2 C25_2 1_555 1_555
H19_2 C30_2 1_555 1_555
Cd2_2 O4_2 1_555 1_555
O6_2 Cd2_2 1_555 1_555
C31_2 O6_2 1_555 1_555
C32_2 C31_2 1_555 1_555
H20_2 C32_2 1_555 1_555
Cd4 O6_2 1_555 1_555
Cd3 N2_2 1_555 1_555
O7_2 Cd2_2 1_555 1_555
N6_2 Cd2_2 1_555 1_555
C5_2 C6_2 1_555 1_555
C8_2 C9_2 1_555 1_555
C12_2 C16_2 1_555 1_555
O5_2 Cd2_2 1_555 1_555
C27_2 C28_2 1_555 1_555
C29_2 C30_2 1_555 1_555
Cd4 O7_2 1_555 1_555
O5_3 C24_3 1_555 1_555
C24_3 C25_3 1_555 1_555
C29_3 C28_3 1_555 1_555
H18_3 C29_3 1_555 1_555
C30_3 C25_3 1_555 1_555
H19_3 C30_3 1_555 1_555
N3_3 Cd5 1_555 1_555
N6_2 C45_3 1_555 1_555
C36_3 N3_3 1_555 1_555
C37_3 C35_3 1_555 1_555
H23_3 C37_3 1_555 1_555
C38_3 C37_3 1_555 1_555
H24_3 C38_3 1_555 1_555
C39_3 N3_3 1_555 1_555
C40_3 C39_3 1_555 1_555
H25_3 C40_3 1_555 1_555
C41_3 C40_3 1_555 1_555
H26_3 C41_3 1_555 1_555
C42_3 C41_3 1_555 1_555
C43_3 C42_3 1_555 1_555
H27_3 C43_3 1_555 1_555
C44_3 C43_3 1_555 1_555
H28_3 C44_3 1_555 1_555
C45_3 C44_3 1_555 1_555
H29_3 C45_3 1_555 1_555
C46_3 N6_2 1_555 1_555
H30_3 C46_3 1_555 1_555
O5_3 Cd5 1_555 1_555
C29_3 C30_3 1_555 1_555
C35_3 C36_3 1_555 1_555
C38_3 C39_3 1_555 1_555
C42_3 C46_3 1_555 1_555
C26_3 H16_3 1_555 1_555
C27_3 C26_3 1_555 1_555
H17_3 C27_3 1_555 1_555
C31_3 O8 1_555 1_555
C32_3 C31_3 1_555 1_555
H20_3 C32_3 1_555 1_555
C33_3 C32_3 1_555 1_555
H21_3 C33_3 1_555 1_555
C34_3 C33_3 1_555 1_555
H22_3 C34_3 1_555 1_555
O7 C1_3 1_555 1_555
C1_3 C2_3 1_555 1_555
C2_3 H1_3 1_555 1_555
C3_3 C2_3 1_555 1_555
H2_3 C3_3 1_555 1_555
C4_3 C3_3 1_555 1_555
H3_3 C4_3 1_555 1_555
H12_3 C19_3 1_555 1_555
C20_3 C19_3 1_555 1_555
H13_3 C20_3 1_555 1_555
N1_3 Cd3 1_555 1_555
N5_2 C15_3 1_555 1_555
O3_3 Cd3 1_555 1_555
C6_3 N1_3 1_555 1_555
C7_3 C5_3 1_555 1_555
H4_3 C7_3 1_555 1_555
C8_3 C7_3 1_555 1_555
H5_3 C8_3 1_555 1_555
C9_3 N1_3 1_555 1_555
C10_3 C9_3 1_555 1_555
H6_3 C10_3 1_555 1_555
C11_3 C10_3 1_555 1_555
H7_3 C11_3 1_555 1_555
C12_3 C11_3 1_555 1_555
C13_3 C12_3 1_555 1_555
H8_3 C13_3 1_555 1_555
C14_3 C13_3 1_555 1_555
H9_3 C14_3 1_555 1_555
C15_3 C14_3 1_555 1_555
H10_3 C15_3 1_555 1_555
C16_3 N5_2 1_555 1_555
H11_3 C16_3 1_555 1_555
C18_3 C17_3 1_555 1_555
C22_3 C21_3 1_555 1_555
H14_3 C22_3 1_555 1_555
C23_3 C18_3 1_555 1_555
H15_3 C23_3 1_555 1_555
O3_3 C17_3 1_555 1_555
C5_3 C6_3 1_555 1_555
C8_3 C9_3 1_555 1_555
C12_3 C16_3 1_555 1_555
C22_3 C23_3 1_555 1_555
O7_2 C1_4 1_555 1_555
N1_4 Cd4 1_555 1_555
C1_4 C2_4 1_555 1_555
O2_4 Cd4 1_555 1_555
N5 C15_4 1_555 1_555
C2_4 H1_4 1_555 1_555
O3_4 Cd4 1_555 1_555
C3_4 C2_4 1_555 1_555
H2_4 C3_4 1_555 1_555
C4_4 C3_4 1_555 1_555
H3_4 C4_4 1_555 1_555
C5_4 C4_4 1_555 1_555
C6_4 N1_4 1_555 1_555
C7_4 C5_4 1_555 1_555
H4_4 C7_4 1_555 1_555
C8_4 C7_4 1_555 1_555
H5_4 C8_4 1_555 1_555
C9_4 N1_4 1_555 1_555
C10_4 C9_4 1_555 1_555
H6_4 C10_4 1_555 1_555
C11_4 C10_4 1_555 1_555
H7_4 C11_4 1_555 1_555
C12_4 C11_4 1_555 1_555
C13_4 C12_4 1_555 1_555
H8_4 C13_4 1_555 1_555
C14_4 C13_4 1_555 1_555
H9_4 C14_4 1_555 1_555
C15_4 C14_4 1_555 1_555
H10_4 C15_4 1_555 1_555
C16_4 N5 1_555 1_555
H11_4 C16_4 1_555 1_555
C17_4 O2_4 1_555 1_555
C18_4 C17_4 1_555 1_555
C19_4 C18_4 1_555 1_555
H12_4 C19_4 1_555 1_555
C20_4 C19_4 1_555 1_555
H13_4 C20_4 1_555 1_555
C21_4 C20_4 1_555 1_555
C22_4 C21_4 1_555 1_555
H14_4 C22_4 1_555 1_555
C23_4 C18_4 1_555 1_555
H15_4 C23_4 1_555 1_555
C1_4 C6_4 1_555 1_555
O3_4 C17_4 1_555 1_555
C5_4 C6_4 1_555 1_555
C8_4 C9_4 1_555 1_555
C12_4 C16_4 1_555 1_555
C22_4 C23_4 1_555 1_555
O4_4 C24_4 1_555 1_555
O5_4 C24_4 1_555 1_555
C24_4 C25_4 1_555 1_555
C25_4 C26_4 1_555 1_555
C26_4 H16_4 1_555 1_555
C27_4 C26_4 1_555 1_555
H17_4 C27_4 1_555 1_555
C29_4 C28_4 1_555 1_555
H18_4 C29_4 1_555 1_555
C30_4 C25_4 1_555 1_555
H19_4 C30_4 1_555 1_555
Cd6 O4_4 1_555 1_555
N3_4 Cd6 1_555 1_555
C31_4 O8_2 1_555 1_555
N6 C45_4 1_555 1_555
C32_4 C31_4 1_555 1_555
H20_4 C32_4 1_555 1_555
C33_4 C32_4 1_555 1_555
H21_4 C33_4 1_555 1_555
C34_4 C33_4 1_555 1_555
H22_4 C34_4 1_555 1_555
C35_4 C34_4 1_555 1_555
C36_4 N3_4 1_555 1_555
C37_4 C35_4 1_555 1_555
H23_4 C37_4 1_555 1_555
C38_4 C37_4 1_555 1_555
H24_4 C38_4 1_555 1_555
C39_4 N3_4 1_555 1_555
C40_4 C39_4 1_555 1_555
H25_4 C40_4 1_555 1_555
C41_4 C40_4 1_555 1_555
H26_4 C41_4 1_555 1_555
C42_4 C41_4 1_555 1_555
C43_4 C42_4 1_555 1_555
H27_4 C43_4 1_555 1_555
C44_4 C43_4 1_555 1_555
H28_4 C44_4 1_555 1_555
C45_4 C44_4 1_555 1_555
H29_4 C45_4 1_555 1_555
C46_4 N6 1_555 1_555
H30_4 C46_4 1_555 1_555
O5_4 Cd6 1_555 1_555
C27_4 C28_4 1_555 1_555
C29_4 C30_4 1_555 1_555
C31_4 C36_4 1_555 1_555
C35_4 C36_4 1_555 1_555
C38_4 C39_4 1_555 1_555
C42_4 C46_4 1_555 1_555

#END
