
###############################################################################
#
# This file contains modified crystal structure data generated from the
# MOF subset of the Cambridge Structural Database (CSD) v543 
# hosted by the Cambridge Crystallographic Data Centre (CCDC).
#
# This work is licensed under the Creative Commons
# Attribution-NonCommercial-ShareAlike 4.0 International License.
# To view a copy of this license, visit
# http://creativecommons.org/licenses/by-nc-sa/4.0/
# or send a letter to
# Creative Commons, PO Box 1866, Mountain View, CA 94042, USA.
#
# CIF created using the CSD Python API on 29 September 2022
# The structure has been converted into the P1 space group
# The structure has a 3D framework
# The original CSD entry USITOI is in the tetragonal crystal system
# The framework has been calculated to contain at least 10.0% void space
# The void calculation uses a probe of radius 1.32A, grid spacing 0.4
#
###############################################################################

data_USITOI
_chemical_formula_moiety         '(C432 H320 N16 O96 Zn16)n'
_symmetry_cell_setting           triclinic
_symmetry_space_group_name_H-M   'P 1'
_symmetry_Int_Tables_number      1
_space_group_name_Hall           'P 1'
loop_
_symmetry_equiv_pos_site_id
_symmetry_equiv_pos_as_xyz
1 x,y,z
_cell_length_a                   21.7527(3)
_cell_length_b                   21.7527(3)
_cell_length_c                   27.9134(6)
_cell_angle_alpha                90
_cell_angle_beta                 90
_cell_angle_gamma                90
_cell_volume                     13208.1
loop_
_atom_site_label
_atom_site_type_symbol
_atom_site_fract_x
_atom_site_fract_y
_atom_site_fract_z
H75 H 0.005404 0.667925 0.061685
H43 H 0.005404 0.832075 0.938315
Zn1 Zn 0.750000 0.250000 0.69772(2)
Zn2 Zn 0.750000 0.750000 0.69805(2)
O1 O 0.75304(8) 0.65921(7) 0.78570(5)
O2 O 0.74777(8) 0.65759(7) 0.70592(5)
O3 O 0.67719(8) 0.56013(7) 0.80800(6)
O4 O 0.75780(9) 0.34086(7) 0.78484(5)
O5 O 0.75698(9) 0.34120(7) 0.70525(6)
O6 O 0.83183(8) 0.44069(7) 0.68063(5)
N1 N 0.750000 0.250000 0.62569(8)
N2 N 0.750000 0.750000 0.62568(8)
C1 C 0.79312(10) 0.47020(9) 0.71229(7)
C2 C 0.78901(10) 0.53402(9) 0.71351(7)
H1 H 0.812174 0.557736 0.691353
C3 C 0.71674(10) 0.52879(9) 0.77889(7)
C4 C 0.75171(10) 0.56351(9) 0.74648(6)
C5 C 0.750000 0.250000 0.52647(9)
C6 C 0.75986(10) 0.43573(9) 0.74542(7)
C7 C 0.75011(9) 0.63225(8) 0.74624(7)
C8 C 0.72228(10) 0.46532(9) 0.77872(7)
H2 H 0.700208 0.441655 0.801572
C9 C 0.750000 0.750000 0.52652(10)
C10 C 0.75888(9) 0.36716(9) 0.74524(7)
C11 C 0.77002(10) 0.20142(10) 0.60119(7)
H3 H 0.784362 0.166643 0.618484
C12 C 0.72989(10) 0.70107(10) 0.60124(7)
H4 H 0.715299 0.666403 0.618545
C13 C 0.77082(11) 0.19941(10) 0.55171(7)
H5 H 0.785391 0.163989 0.535363
C14 C 0.72956(11) 0.69909(10) 0.55183(7)
H6 H 0.715567 0.663465 0.535437
C15 C 0.86962(10) 0.35232(11) 0.61293(8)
H7 H 0.860818 0.338201 0.644393
C16 C 0.89550(10) 0.31253(11) 0.57957(9)
H8 H 0.904666 0.271305 0.588227
C17 C 0.59799(11) 0.56735(10) 0.86626(8)
C18 C 0.85672(12) 0.41238(12) 0.60035(8)
C19 C 0.90791(11) 0.33338(12) 0.53340(9)
H9 H 0.925188 0.306149 0.510451
C20 C 0.89534(12) 0.39291(12) 0.52092(8)
H10 H 0.903986 0.406888 0.489384
C21 C 0.87008(13) 0.43273(13) 0.55409(8)
H11 H 0.861783 0.474126 0.545379
C22 C 0.63801(12) 0.52434(10) 0.83807(9)
H12 H 0.662997 0.498843 0.860066
H13 H 0.612243 0.496673 0.818328
C23 C 0.58081(12) 0.62352(12) 0.84966(10)
H14 H 0.595053 0.637202 0.819308
C24 C 0.52093(15) 0.64211(15) 0.92008(12)
H15 H 0.494596 0.667925 0.938315
C25 C 0.54268(14) 0.66100(14) 0.87666(13)
H16 H 0.531536 0.700375 0.864769
C26 C 0.57643(16) 0.54840(16) 0.91068(11)
H17 H 0.588546 0.509566 0.923063
C27 C 0.53760(17) 0.58540(18) 0.93700(11)
H18 H 0.522346 0.571502 0.966997
C28 C 0.8242(2) 0.45489(17) 0.63393(10)
H19 H 0.839358 0.497230 0.628445
H20 H 0.779759 0.454336 0.626413
C29 C 0.72998(10) 0.29858(10) 0.60119(7)
H21 H 0.715638 0.333357 0.618484
C30 C 0.72918(11) 0.30059(10) 0.55171(7)
H22 H 0.714609 0.336011 0.535363
N3 N 0.750000 0.250000 0.37431(8)
C31 C 0.750000 0.250000 0.47353(9)
C32 C 0.77002(10) 0.29858(10) 0.39881(7)
H23 H 0.784362 0.333357 0.381516
C33 C 0.77082(11) 0.30059(10) 0.44829(7)
H24 H 0.785391 0.336011 0.464637
C34 C 0.72998(10) 0.20142(10) 0.39881(7)
H25 H 0.715638 0.166643 0.381516
C35 C 0.72918(11) 0.19941(10) 0.44829(7)
H26 H 0.714609 0.163989 0.464637
C36 C 0.77011(10) 0.79893(10) 0.60124(7)
H27 H 0.784701 0.833597 0.618545
C37 C 0.77044(11) 0.80091(10) 0.55183(7)
H28 H 0.784433 0.836535 0.535437
N4 N 0.750000 0.750000 0.37432(8)
C38 C 0.750000 0.750000 0.47348(10)
C39 C 0.72989(10) 0.79893(10) 0.39876(7)
H29 H 0.715299 0.833597 0.381455
C40 C 0.72956(11) 0.80091(10) 0.44817(7)
H30 H 0.715567 0.836535 0.464563
C41 C 0.77011(10) 0.70107(10) 0.39876(7)
H31 H 0.784701 0.666403 0.381455
C42 C 0.77044(11) 0.69909(10) 0.44817(7)
H32 H 0.784433 0.663465 0.464563
O10 O 0.74220(9) 0.15914(7) 0.78484(5)
O11 O 0.74302(9) 0.15880(7) 0.70525(6)
O12 O 0.66817(8) 0.05931(7) 0.68063(5)
C43 C 0.70688(10) 0.02980(9) 0.71229(7)
C47 C 0.74014(10) 0.06427(9) 0.74542(7)
C49 C 0.77772(10) 0.03468(9) 0.77872(7)
H34 H 0.799792 0.058345 0.801572
C50 C 0.74112(9) 0.13284(9) 0.74524(7)
C51 C 0.63038(10) 0.14768(11) 0.61293(8)
H35 H 0.639182 0.161799 0.644393
C52 C 0.60450(10) 0.18747(11) 0.57957(9)
H36 H 0.595334 0.228695 0.588227
C54 C 0.64328(12) 0.08762(12) 0.60035(8)
C55 C 0.59209(11) 0.16662(12) 0.53340(9)
H37 H 0.574812 0.193851 0.510451
C56 C 0.60466(12) 0.10709(12) 0.52092(8)
H38 H 0.596014 0.093112 0.489384
C57 C 0.62992(13) 0.06727(13) 0.55409(8)
H39 H 0.638217 0.025874 0.545379
H40 H 0.837003 0.001157 0.860066
H41 H 0.887757 0.003327 0.818328
C64 C 0.6758(2) 0.04511(17) 0.63393(10)
H47 H 0.660642 0.002770 0.628445
H48 H 0.720241 0.045664 0.626413
Zn3 Zn 0.750000 0.250000 0.30228(2)
O16 O 0.75780(9) 0.15914(7) 0.21516(5)
O17 O 0.75698(9) 0.15880(7) 0.29475(6)
O18 O 0.83183(8) 0.05931(7) 0.31937(5)
C65 C 0.79312(10) 0.02980(9) 0.28771(7)
C69 C 0.75986(10) 0.06427(9) 0.25458(7)
C71 C 0.72228(10) 0.03468(9) 0.22128(7)
H50 H 0.700208 0.058345 0.198428
C72 C 0.75888(9) 0.13284(9) 0.25476(7)
C73 C 0.86962(10) 0.14768(11) 0.38707(8)
H51 H 0.860818 0.161799 0.355607
C74 C 0.89550(10) 0.18747(11) 0.42043(9)
H52 H 0.904666 0.228695 0.411773
C76 C 0.85672(12) 0.08762(12) 0.39965(8)
C77 C 0.90791(11) 0.16662(12) 0.46660(9)
H53 H 0.925188 0.193851 0.489549
C78 C 0.89534(12) 0.10709(12) 0.47908(8)
H54 H 0.903986 0.093112 0.510616
C79 C 0.87008(13) 0.06727(13) 0.44591(8)
H55 H 0.861783 0.025874 0.454621
H56 H 0.662997 0.001157 0.139934
H57 H 0.612243 0.003327 0.181672
C86 C 0.8242(2) 0.04511(17) 0.36607(10)
H63 H 0.839358 0.002770 0.371555
H64 H 0.779759 0.045664 0.373587
Zn4 Zn 0.750000 0.750000 0.30195(2)
O19 O 0.74696(8) 0.65921(7) 0.21430(5)
O20 O 0.75223(8) 0.65759(7) 0.29408(5)
O21 O 0.82281(8) 0.56013(7) 0.19200(6)
O22 O 0.74220(9) 0.34086(7) 0.21516(5)
O23 O 0.74302(9) 0.34120(7) 0.29475(6)
O24 O 0.66817(8) 0.44069(7) 0.31937(5)
C87 C 0.70688(10) 0.47020(9) 0.28771(7)
C88 C 0.71099(10) 0.53402(9) 0.28649(7)
H65 H 0.687826 0.557736 0.308647
C89 C 0.78326(10) 0.52879(9) 0.22111(7)
C90 C 0.74829(10) 0.56351(9) 0.25352(6)
C91 C 0.74014(10) 0.43573(9) 0.25458(7)
C92 C 0.74989(9) 0.63225(8) 0.25376(7)
C93 C 0.77772(10) 0.46532(9) 0.22128(7)
H66 H 0.799792 0.441655 0.198428
C94 C 0.74112(9) 0.36716(9) 0.25476(7)
C95 C 0.63038(10) 0.35232(11) 0.38707(8)
H67 H 0.639182 0.338201 0.355607
C96 C 0.60450(10) 0.31253(11) 0.42043(9)
H68 H 0.595334 0.271305 0.411773
C97 C 0.90201(11) 0.56735(10) 0.13374(8)
C98 C 0.64328(12) 0.41238(12) 0.39965(8)
C99 C 0.59209(11) 0.33338(12) 0.46660(9)
H69 H 0.574812 0.306149 0.489549
C100 C 0.60466(12) 0.39291(12) 0.47908(8)
H70 H 0.596014 0.406888 0.510616
C101 C 0.62992(13) 0.43273(13) 0.44591(8)
H71 H 0.638217 0.474126 0.454621
C102 C 0.86199(12) 0.52434(10) 0.16193(9)
H72 H 0.837003 0.498843 0.139934
H73 H 0.887757 0.496673 0.181672
C103 C 0.91919(12) 0.62352(12) 0.15034(10)
H74 H 0.904947 0.637202 0.180692
C104 C 0.97907(15) 0.64211(15) 0.07992(12)
C105 C 0.95732(14) 0.66100(14) 0.12334(13)
H76 H 0.968464 0.700375 0.135231
C106 C 0.92357(16) 0.54840(16) 0.08932(11)
H77 H 0.911454 0.509566 0.076937
C107 C 0.96240(17) 0.58540(18) 0.06300(11)
H78 H 0.977654 0.571502 0.033003
C108 C 0.6758(2) 0.45489(17) 0.36607(10)
H79 H 0.660642 0.497230 0.371555
H80 H 0.720241 0.454336 0.373587
Zn5 Zn 0.750000 0.250000 0.19772(2)
Zn6 Zn 0.750000 0.250000 0.80228(2)
Zn9 Zn 0.750000 0.750000 0.19805(2)
Zn12 Zn 0.750000 0.750000 0.80195(2)
O25 O 0.84079(7) 0.75304(8) 0.28570(5)
O26 O 0.65921(7) 0.74696(8) 0.28570(5)
O27 O 0.84079(7) 0.74696(8) 0.71430(5)
O28 O 0.65921(7) 0.75304(8) 0.71430(5)
O29 O 0.75223(8) 0.84241(7) 0.70592(5)
O30 O 0.74777(8) 0.84241(7) 0.29408(5)
O31 O 0.84086(7) 0.25780(9) 0.28484(5)
O32 O 0.65914(7) 0.24220(9) 0.28484(5)
O33 O 0.84086(7) 0.24220(9) 0.71516(5)
O34 O 0.65914(7) 0.25780(9) 0.71516(5)
O7 O 0.74696(8) 0.84079(7) 0.78570(5)
O9 O 0.82281(8) 0.93987(7) 0.80800(6)
C44 C 0.71099(10) 0.96598(9) 0.71351(7)
H33 H 0.687826 0.942264 0.691353
C45 C 0.78326(10) 0.97121(9) 0.77889(7)
C46 C 0.74829(10) 0.93649(9) 0.74648(6)
C48 C 0.74989(9) 0.86775(8) 0.74624(7)
C53 C 0.90201(11) 0.93265(10) 0.86626(8)
C58 C 0.86199(12) 0.97566(10) 0.83807(9)
C59 C 0.91919(12) 0.87648(12) 0.84966(10)
H42 H 0.904947 0.862798 0.819308
C60 C 0.97907(15) 0.85789(15) 0.92008(12)
C61 C 0.95732(14) 0.83900(14) 0.87666(13)
H44 H 0.968464 0.799625 0.864769
C62 C 0.92357(16) 0.95160(16) 0.91068(11)
H45 H 0.911454 0.990434 0.923063
C63 C 0.96240(17) 0.91460(18) 0.93700(11)
H46 H 0.977654 0.928498 0.966997
O13 O 0.75304(8) 0.84079(7) 0.21430(5)
O15 O 0.67719(8) 0.93987(7) 0.19200(6)
C66 C 0.78901(10) 0.96598(9) 0.28649(7)
H49 H 0.812174 0.942264 0.308647
C67 C 0.71674(10) 0.97121(9) 0.22111(7)
C68 C 0.75171(10) 0.93649(9) 0.25352(6)
C70 C 0.75011(9) 0.86775(8) 0.25376(7)
C75 C 0.59799(11) 0.93265(10) 0.13374(8)
C80 C 0.63801(12) 0.97566(10) 0.16193(9)
C81 C 0.58081(12) 0.87648(12) 0.15034(10)
H58 H 0.595053 0.862798 0.180692
C82 C 0.52093(15) 0.85789(15) 0.07992(12)
H59 H 0.494596 0.832075 0.061685
C83 C 0.54268(14) 0.83900(14) 0.12334(13)
H60 H 0.531536 0.799625 0.135231
C84 C 0.57643(16) 0.95160(16) 0.08932(11)
H61 H 0.588546 0.990434 0.076937
C85 C 0.53760(17) 0.91460(18) 0.06300(11)
H62 H 0.522346 0.928498 0.033003
Zn1_2 Zn 0.250000 0.750000 0.19772(2)
O4_2 O 0.15914(7) 0.75780(9) 0.28484(5)
O5_2 O 0.15880(7) 0.75698(9) 0.20525(6)
O6_2 O 0.05931(7) 0.83183(8) 0.18063(5)
N1_2 N 0.250000 0.750000 0.12569(8)
C1_2 C 0.02980(9) 0.79312(10) 0.21229(7)
C5_2 C 0.250000 0.750000 0.02647(9)
C6_2 C 0.06427(9) 0.75986(10) 0.24542(7)
C8_2 C 0.03468(9) 0.72228(10) 0.27872(7)
H2_2 H 0.058345 0.700208 0.301572
C10_2 C 0.13284(9) 0.75888(9) 0.24524(7)
C11_2 C 0.29858(10) 0.77002(10) 0.10119(7)
H3_2 H 0.333357 0.784362 0.118484
C13_2 C 0.30059(10) 0.77082(11) 0.05171(7)
H5_2 H 0.336011 0.785391 0.035363
C15_2 C 0.14768(11) 0.86962(10) 0.11293(8)
H7_2 H 0.161799 0.860818 0.144393
C16_2 C 0.18747(11) 0.89550(10) 0.07957(9)
H8_2 H 0.228695 0.904666 0.088227
C18_2 C 0.08762(12) 0.85672(12) 0.10035(8)
C19_2 C 0.16662(12) 0.90791(11) 0.03340(9)
H9_2 H 0.193851 0.925188 0.010451
C20_2 C 0.10709(12) 0.89534(12) 0.02092(8)
C21_2 C 0.06727(13) 0.87008(13) 0.05409(8)
H11_2 H 0.025874 0.861783 0.045379
H12_2 H 0.001157 0.662997 0.360066
H13_2 H 0.003327 0.612243 0.318328
C28_2 C 0.04511(17) 0.8242(2) 0.13393(10)
H19_2 H 0.002770 0.839358 0.128445
H20_2 H 0.045664 0.779759 0.126413
C29_2 C 0.20142(10) 0.72998(10) 0.10119(7)
H21_2 H 0.166643 0.715638 0.118484
C30_2 C 0.19941(10) 0.72918(11) 0.05171(7)
H22_2 H 0.163989 0.714609 0.035363
O8 O 0.65759(7) 0.75223(8) 0.20592(5)
O9_2 O 0.56013(7) 0.82281(8) 0.30800(6)
O10_2 O 0.34086(7) 0.74220(9) 0.28484(5)
O11_2 O 0.34120(7) 0.74302(9) 0.20525(6)
O12_2 O 0.44069(7) 0.66817(8) 0.18063(5)
C43_2 C 0.47020(9) 0.70688(10) 0.21229(7)
C44_2 C 0.53402(9) 0.71099(10) 0.21351(7)
H33_2 H 0.557736 0.687826 0.191353
C45_2 C 0.52879(9) 0.78326(10) 0.27889(7)
C46_2 C 0.56351(9) 0.74829(10) 0.24648(6)
C47_2 C 0.43573(9) 0.74014(10) 0.24542(7)
C48_2 C 0.63225(8) 0.74989(9) 0.24624(7)
C49_2 C 0.46532(9) 0.77772(10) 0.27872(7)
H34_2 H 0.441655 0.799792 0.301572
C50_2 C 0.36716(9) 0.74112(9) 0.24524(7)
C51_2 C 0.35232(11) 0.63038(10) 0.11293(8)
H35_2 H 0.338201 0.639182 0.144393
C52_2 C 0.31253(11) 0.60450(10) 0.07957(9)
H36_2 H 0.271305 0.595334 0.088227
C53_2 C 0.56735(10) 0.90201(11) 0.36626(8)
C54_2 C 0.41238(12) 0.64328(12) 0.10035(8)
C55_2 C 0.33338(12) 0.59209(11) 0.03340(9)
H37_2 H 0.306149 0.574812 0.010451
C56_2 C 0.39291(12) 0.60466(12) 0.02092(8)
C57_2 C 0.43273(13) 0.62992(13) 0.05409(8)
H39_2 H 0.474126 0.638217 0.045379
C58_2 C 0.52434(10) 0.86199(12) 0.33807(9)
H40_2 H 0.498843 0.837003 0.360066
H41_2 H 0.496673 0.887757 0.318328
C59_2 C 0.62352(12) 0.91919(12) 0.34966(10)
H42_2 H 0.637202 0.904947 0.319308
C60_2 C 0.64211(15) 0.97907(15) 0.42008(12)
C61_2 C 0.66100(14) 0.95732(14) 0.37666(13)
H44_2 H 0.700375 0.968464 0.364769
C62_2 C 0.54840(16) 0.92357(16) 0.41068(11)
H45_2 H 0.509566 0.911454 0.423063
C63_2 C 0.58540(18) 0.96240(17) 0.43700(11)
H46_2 H 0.571502 0.977654 0.466997
C64_2 C 0.45489(17) 0.6758(2) 0.13393(10)
H47_2 H 0.497230 0.660642 0.128445
H48_2 H 0.454336 0.720241 0.126413
H54_2 H 0.406888 0.903986 0.010616
H70_2 H 0.093112 0.596014 0.010616
Zn6_2 Zn 0.250000 0.750000 0.30228(2)
O33_2 O 0.25780(9) 0.84086(7) 0.21516(5)
O34_2 O 0.24220(9) 0.65914(7) 0.21516(5)
H10_2 H 0.093112 0.903986 0.989384
N3_2 N 0.250000 0.750000 0.87431(8)
C31_2 C 0.250000 0.750000 0.97353(9)
C32_2 C 0.20142(10) 0.77002(10) 0.89881(7)
H23_2 H 0.166643 0.784362 0.881516
C33_2 C 0.19941(10) 0.77082(11) 0.94829(7)
H24_2 H 0.163989 0.785391 0.964637
C34_2 C 0.29858(10) 0.72998(10) 0.89881(7)
H25_2 H 0.333357 0.715638 0.881516
C35_2 C 0.30059(10) 0.72918(11) 0.94829(7)
H26_2 H 0.336011 0.714609 0.964637
H38_2 H 0.406888 0.596014 0.989384
Zn3_2 Zn 0.250000 0.750000 0.80228(2)
O14 O 0.65759(7) 0.74777(8) 0.79408(5)
O15_2 O 0.56013(7) 0.67719(8) 0.69200(6)
O16_2 O 0.34086(7) 0.75780(9) 0.71516(5)
O17_2 O 0.34120(7) 0.75698(9) 0.79475(6)
O18_2 O 0.44069(7) 0.83183(8) 0.81937(5)
C65_2 C 0.47020(9) 0.79312(10) 0.78771(7)
C66_2 C 0.53402(9) 0.78901(10) 0.78649(7)
H49_2 H 0.557736 0.812174 0.808647
C67_2 C 0.52879(9) 0.71674(10) 0.72111(7)
C68_2 C 0.56351(9) 0.75171(10) 0.75352(6)
C69_2 C 0.43573(9) 0.75986(10) 0.75458(7)
C70_2 C 0.63225(8) 0.75011(9) 0.75376(7)
C71_2 C 0.46532(9) 0.72228(10) 0.72128(7)
H50_2 H 0.441655 0.700208 0.698428
C72_2 C 0.36716(9) 0.75888(9) 0.75476(7)
C73_2 C 0.35232(11) 0.86962(10) 0.88707(8)
H51_2 H 0.338201 0.860818 0.855607
C74_2 C 0.31253(11) 0.89550(10) 0.92043(9)
H52_2 H 0.271305 0.904666 0.911773
C75_2 C 0.56735(10) 0.59799(11) 0.63374(8)
C76_2 C 0.41238(12) 0.85672(12) 0.89965(8)
C77_2 C 0.33338(12) 0.90791(11) 0.96660(9)
H53_2 H 0.306149 0.925188 0.989549
C78_2 C 0.39291(12) 0.89534(12) 0.97908(8)
C79_2 C 0.43273(13) 0.87008(13) 0.94591(8)
H55_2 H 0.474126 0.861783 0.954621
C80_2 C 0.52434(10) 0.63801(12) 0.66193(9)
H56_2 H 0.498843 0.662997 0.639934
H57_2 H 0.496673 0.612243 0.681672
C81_2 C 0.62352(12) 0.58081(12) 0.65034(10)
H58_2 H 0.637202 0.595053 0.680692
C82_2 C 0.64211(15) 0.52093(15) 0.57992(12)
H59_2 H 0.667925 0.494596 0.561685
C83_2 C 0.66100(14) 0.54268(14) 0.62334(13)
H60_2 H 0.700375 0.531536 0.635231
C84_2 C 0.54840(16) 0.57643(16) 0.58932(11)
H61_2 H 0.509566 0.588546 0.576937
C85_2 C 0.58540(18) 0.53760(17) 0.56300(11)
H62_2 H 0.571502 0.522346 0.533003
C86_2 C 0.45489(17) 0.8242(2) 0.86607(10)
H63_2 H 0.497230 0.839358 0.871555
H64_2 H 0.454336 0.779759 0.873587
O22_2 O 0.15914(7) 0.74220(9) 0.71516(5)
O23_2 O 0.15880(7) 0.74302(9) 0.79475(6)
O24_2 O 0.05931(7) 0.66817(8) 0.81937(5)
C87_2 C 0.02980(9) 0.70688(10) 0.78771(7)
C91_2 C 0.06427(9) 0.74014(10) 0.75458(7)
C93_2 C 0.03468(9) 0.77772(10) 0.72128(7)
H66_2 H 0.058345 0.799792 0.698428
C94_2 C 0.13284(9) 0.74112(9) 0.75476(7)
C95_2 C 0.14768(11) 0.63038(10) 0.88707(8)
H67_2 H 0.161799 0.639182 0.855607
C96_2 C 0.18747(11) 0.60450(10) 0.92043(9)
H68_2 H 0.228695 0.595334 0.911773
C98_2 C 0.08762(12) 0.64328(12) 0.89965(8)
C99_2 C 0.16662(12) 0.59209(11) 0.96660(9)
H69_2 H 0.193851 0.574812 0.989549
C100_2 C 0.10709(12) 0.60466(12) 0.97908(8)
C101_2 C 0.06727(13) 0.62992(13) 0.94591(8)
H71_2 H 0.025874 0.638217 0.954621
H72_2 H 0.001157 0.837003 0.639934
H73_2 H 0.003327 0.887757 0.681672
C108_2 C 0.04511(17) 0.6758(2) 0.86607(10)
H79_2 H 0.002770 0.660642 0.871555
H80_2 H 0.045664 0.720241 0.873587
Zn5_2 Zn 0.250000 0.750000 0.69772(2)
O31_2 O 0.24220(9) 0.84086(7) 0.78484(5)
O32_2 O 0.25780(9) 0.65914(7) 0.78484(5)
O2_2 O 0.84241(7) 0.74777(8) 0.20592(5)
O3_2 O 0.93987(7) 0.67719(8) 0.30800(6)
N2_2 N 0.750000 0.750000 0.12568(8)
C2_2 C 0.96598(9) 0.78901(10) 0.21351(7)
H1_2 H 0.942264 0.812174 0.191353
C3_2 C 0.97121(9) 0.71674(10) 0.27889(7)
C4_2 C 0.93649(9) 0.75171(10) 0.24648(6)
C7_2 C 0.86775(8) 0.75011(9) 0.24624(7)
C9_2 C 0.750000 0.750000 0.02652(10)
C12_2 C 0.79893(10) 0.72989(10) 0.10124(7)
H4_2 H 0.833597 0.715299 0.118545
C14_2 C 0.80091(10) 0.72956(11) 0.05183(7)
H6_2 H 0.836535 0.715567 0.035437
C17_2 C 0.93265(10) 0.59799(11) 0.36626(8)
C22_2 C 0.97566(10) 0.63801(12) 0.33807(9)
C23_2 C 0.87648(12) 0.58081(12) 0.34966(10)
H14_2 H 0.862798 0.595053 0.319308
C24_2 C 0.85789(15) 0.52093(15) 0.42008(12)
H15_2 H 0.832075 0.494596 0.438315
C25_2 C 0.83900(14) 0.54268(14) 0.37666(13)
H16_2 H 0.799625 0.531536 0.364769
C26_2 C 0.95160(16) 0.57643(16) 0.41068(11)
H17_2 H 0.990434 0.588546 0.423063
C27_2 C 0.91460(18) 0.53760(17) 0.43700(11)
H18_2 H 0.928498 0.522346 0.466997
C36_2 C 0.70107(10) 0.77011(10) 0.10124(7)
H27_2 H 0.666403 0.784701 0.118545
C37_2 C 0.69909(10) 0.77044(11) 0.05183(7)
H28_2 H 0.663465 0.784433 0.035437
N4_2 N 0.750000 0.750000 0.87432(8)
C38_2 C 0.750000 0.750000 0.97348(10)
C39_2 C 0.70107(10) 0.72989(10) 0.89876(7)
H29_2 H 0.666403 0.715299 0.881455
C40_2 C 0.69909(10) 0.72956(11) 0.94817(7)
H30_2 H 0.663465 0.715567 0.964563
C41_2 C 0.79893(10) 0.77011(10) 0.89876(7)
H31_2 H 0.833597 0.784701 0.881455
C42_2 C 0.80091(10) 0.77044(11) 0.94817(7)
H32_2 H 0.836535 0.784433 0.964563
O20_2 O 0.84241(7) 0.75223(8) 0.79408(5)
O21_2 O 0.93987(7) 0.82281(8) 0.69200(6)
C88_2 C 0.96598(9) 0.71099(10) 0.78649(7)
H65_2 H 0.942264 0.687826 0.808647
C89_2 C 0.97121(9) 0.78326(10) 0.72111(7)
C90_2 C 0.93649(9) 0.74829(10) 0.75352(6)
C92_2 C 0.86775(8) 0.74989(9) 0.75376(7)
C97_2 C 0.93265(10) 0.90201(11) 0.63374(8)
C102_2 C 0.97566(10) 0.86199(12) 0.66193(9)
C103_2 C 0.87648(12) 0.91919(12) 0.65034(10)
H74_2 H 0.862798 0.904947 0.680692
C104_2 C 0.85789(15) 0.97907(15) 0.57992(12)
C105_2 C 0.83900(14) 0.95732(14) 0.62334(13)
H76_2 H 0.799625 0.968464 0.635231
C106_2 C 0.95160(16) 0.92357(16) 0.58932(11)
H77_2 H 0.990434 0.911454 0.576937
C107_2 C 0.91460(18) 0.96240(17) 0.56300(11)
H78_2 H 0.928498 0.977654 0.533003
O7_2 O 0.25304(8) 0.15921(7) 0.21430(5)
O8_2 O 0.24777(8) 0.15759(7) 0.29408(5)
O9_3 O 0.17719(8) 0.06013(7) 0.19200(6)
C44_3 C 0.28901(10) 0.03402(9) 0.28649(7)
H33_3 H 0.312174 0.057736 0.308647
C45_3 C 0.21674(10) 0.02879(9) 0.22111(7)
C46_3 C 0.25171(10) 0.06351(9) 0.25352(6)
C48_3 C 0.25011(9) 0.13225(8) 0.25376(7)
C53_3 C 0.09799(11) 0.06735(10) 0.13374(8)
C58_3 C 0.13801(12) 0.02434(10) 0.16193(9)
C59_3 C 0.08081(12) 0.12352(12) 0.15034(10)
H42_3 H 0.095053 0.137202 0.180692
C60_3 C 0.02093(15) 0.14211(15) 0.07992(12)
C61_3 C 0.04268(14) 0.16100(14) 0.12334(13)
H44_3 H 0.031536 0.200375 0.135231
C62_3 C 0.07643(16) 0.04840(16) 0.08932(11)
H45_3 H 0.088546 0.009566 0.076937
C63_3 C 0.03760(17) 0.08540(18) 0.06300(11)
H46_3 H 0.022346 0.071502 0.033003
O13_2 O 0.24696(8) 0.15921(7) 0.78570(5)
O14_2 O 0.25223(8) 0.15759(7) 0.70592(5)
O15_3 O 0.32281(8) 0.06013(7) 0.80800(6)
C66_3 C 0.21099(10) 0.03402(9) 0.71351(7)
H49_3 H 0.187826 0.057736 0.691353
C67_3 C 0.28326(10) 0.02879(9) 0.77889(7)
C68_3 C 0.24829(10) 0.06351(9) 0.74648(6)
C70_3 C 0.24989(9) 0.13225(8) 0.74624(7)
C75_3 C 0.40201(11) 0.06735(10) 0.86626(8)
C80_3 C 0.36199(12) 0.02434(10) 0.83807(9)
C81_3 C 0.41919(12) 0.12352(12) 0.84966(10)
H58_3 H 0.404947 0.137202 0.819308
C82_3 C 0.47907(15) 0.14211(15) 0.92008(12)
H59_3 H 0.505404 0.167925 0.938315
C83_3 C 0.45732(14) 0.16100(14) 0.87666(13)
H60_3 H 0.468464 0.200375 0.864769
C84_3 C 0.42357(16) 0.04840(16) 0.91068(11)
H61_3 H 0.411454 0.009566 0.923063
C85_3 C 0.46240(17) 0.08540(18) 0.93700(11)
H62_3 H 0.477654 0.071502 0.966997
Zn7 Zn 0.250000 0.250000 0.30195(2)
Zn8 Zn 0.250000 0.250000 0.80195(2)
Zn10 Zn 0.250000 0.250000 0.69805(2)
Zn11 Zn 0.250000 0.250000 0.19805(2)
O1_2 O 0.24696(8) 0.34079(7) 0.21430(5)
O2_3 O 0.25223(8) 0.34241(7) 0.29408(5)
O3_3 O 0.32281(8) 0.43987(7) 0.19200(6)
O5_3 O 0.24302(9) 0.65880(7) 0.29475(6)
O6_3 O 0.16817(8) 0.55931(7) 0.31937(5)
N1_3 N 0.250000 0.750000 0.37431(8)
N2_3 N 0.250000 0.250000 0.37432(8)
C1_3 C 0.20688(10) 0.52980(9) 0.28771(7)
C2_3 C 0.21099(10) 0.46598(9) 0.28649(7)
H1_3 H 0.187826 0.442264 0.308647
C3_3 C 0.28326(10) 0.47121(9) 0.22111(7)
C4_3 C 0.24829(10) 0.43649(9) 0.25352(6)
C5_3 C 0.250000 0.750000 0.47353(9)
C6_3 C 0.24014(10) 0.56427(9) 0.25458(7)
C7_3 C 0.24989(9) 0.36775(8) 0.25376(7)
C8_3 C 0.27772(10) 0.53468(9) 0.22128(7)
H2_3 H 0.299792 0.558345 0.198428
C9_3 C 0.250000 0.250000 0.47348(10)
C10_3 C 0.24112(9) 0.63284(9) 0.25476(7)
C11_3 C 0.22998(10) 0.79858(10) 0.39881(7)
H3_3 H 0.215638 0.833357 0.381516
C12_3 C 0.27011(10) 0.29893(10) 0.39876(7)
H4_3 H 0.284701 0.333597 0.381455
C13_3 C 0.22918(11) 0.80059(10) 0.44829(7)
H5_3 H 0.214609 0.836011 0.464637
C14_3 C 0.27044(11) 0.30091(10) 0.44817(7)
H6_3 H 0.284433 0.336535 0.464563
C15_3 C 0.13038(10) 0.64768(11) 0.38707(8)
H7_3 H 0.139182 0.661799 0.355607
C16_3 C 0.10450(10) 0.68747(11) 0.42043(9)
H8_3 H 0.095334 0.728695 0.411773
C17_3 C 0.40201(11) 0.43265(10) 0.13374(8)
C18_3 C 0.14328(12) 0.58762(12) 0.39965(8)
C19_3 C 0.09209(11) 0.66662(12) 0.46660(9)
H9_3 H 0.074812 0.693851 0.489549
C20_3 C 0.10466(12) 0.60709(12) 0.47908(8)
H10_3 H 0.096014 0.593112 0.510616
C21_3 C 0.12992(13) 0.56727(13) 0.44591(8)
H11_3 H 0.138217 0.525874 0.454621
C22_3 C 0.36199(12) 0.47566(10) 0.16193(9)
H12_3 H 0.337003 0.501157 0.139934
H13_3 H 0.387757 0.503327 0.181672
C23_3 C 0.41919(12) 0.37648(12) 0.15034(10)
H14_3 H 0.404947 0.362798 0.180692
C24_3 C 0.47907(15) 0.35789(15) 0.07992(12)
H15_3 H 0.505404 0.332075 0.061685
C25_3 C 0.45732(14) 0.33900(14) 0.12334(13)
H16_3 H 0.468464 0.299625 0.135231
C26_3 C 0.42357(16) 0.45160(16) 0.08932(11)
H17_3 H 0.411454 0.490434 0.076937
C27_3 C 0.46240(17) 0.41460(18) 0.06300(11)
H18_3 H 0.477654 0.428498 0.033003
C28_3 C 0.1758(2) 0.54511(17) 0.36607(10)
H19_3 H 0.160642 0.502770 0.371555
H20_3 H 0.220241 0.545664 0.373587
C29_3 C 0.27002(10) 0.70142(10) 0.39881(7)
H21_3 H 0.284362 0.666643 0.381516
C30_3 C 0.27082(11) 0.69941(10) 0.44829(7)
H22_3 H 0.285391 0.663989 0.464637
N3_3 N 0.250000 0.750000 0.62569(8)
C31_3 C 0.250000 0.750000 0.52647(9)
C32_3 C 0.22998(10) 0.70142(10) 0.60119(7)
H23_3 H 0.215638 0.666643 0.618484
C33_3 C 0.22918(11) 0.69941(10) 0.55171(7)
H24_3 H 0.214609 0.663989 0.535363
C34_3 C 0.27002(10) 0.79858(10) 0.60119(7)
H25_3 H 0.284362 0.833357 0.618484
C35_3 C 0.27082(11) 0.80059(10) 0.55171(7)
H26_3 H 0.285391 0.836011 0.535363
C36_3 C 0.22989(10) 0.20107(10) 0.39876(7)
H27_3 H 0.215299 0.166403 0.381455
C37_3 C 0.22956(11) 0.19909(10) 0.44817(7)
H28_3 H 0.215567 0.163465 0.464563
N4_3 N 0.250000 0.250000 0.62568(8)
C38_3 C 0.250000 0.250000 0.52652(10)
C39_3 C 0.27011(10) 0.20107(10) 0.60124(7)
H29_3 H 0.284701 0.166403 0.618545
C40_3 C 0.27044(11) 0.19909(10) 0.55183(7)
H30_3 H 0.284433 0.163465 0.535437
C41_3 C 0.22989(10) 0.29893(10) 0.60124(7)
H31_3 H 0.215299 0.333597 0.618545
C42_3 C 0.22956(11) 0.30091(10) 0.55183(7)
H32_3 H 0.215567 0.336535 0.535437
O11_3 O 0.25698(9) 0.84120(7) 0.29475(6)
O12_3 O 0.33183(8) 0.94069(7) 0.31937(5)
C43_3 C 0.29312(10) 0.97020(9) 0.28771(7)
C47_3 C 0.25986(10) 0.93573(9) 0.25458(7)
C49_3 C 0.22228(10) 0.96532(9) 0.22128(7)
H34_3 H 0.200208 0.941655 0.198428
C50_3 C 0.25888(9) 0.86716(9) 0.25476(7)
C51_3 C 0.36962(10) 0.85232(11) 0.38707(8)
H35_3 H 0.360818 0.838201 0.355607
C52_3 C 0.39550(10) 0.81253(11) 0.42043(9)
H36_3 H 0.404666 0.771305 0.411773
C54_3 C 0.35672(12) 0.91238(12) 0.39965(8)
C55_3 C 0.40791(11) 0.83338(12) 0.46660(9)
H37_3 H 0.425188 0.806149 0.489549
C56_3 C 0.39534(12) 0.89291(12) 0.47908(8)
H38_3 H 0.403986 0.906888 0.510616
C57_3 C 0.37008(13) 0.93273(13) 0.44591(8)
H39_3 H 0.361783 0.974126 0.454621
H40_3 H 0.162997 0.998843 0.139934
H41_3 H 0.112243 0.996673 0.181672
C64_3 C 0.3242(2) 0.95489(17) 0.36607(10)
H47_3 H 0.339358 0.997230 0.371555
H48_3 H 0.279759 0.954336 0.373587
O17_3 O 0.24302(9) 0.84120(7) 0.70525(6)
O18_3 O 0.16817(8) 0.94069(7) 0.68063(5)
C65_3 C 0.20688(10) 0.97020(9) 0.71229(7)
C69_3 C 0.24014(10) 0.93573(9) 0.74542(7)
C71_3 C 0.27772(10) 0.96532(9) 0.77872(7)
H50_3 H 0.299792 0.941655 0.801572
C72_3 C 0.24112(9) 0.86716(9) 0.74524(7)
C73_3 C 0.13038(10) 0.85232(11) 0.61293(8)
H51_3 H 0.139182 0.838201 0.644393
C74_3 C 0.10450(10) 0.81253(11) 0.57957(9)
H52_3 H 0.095334 0.771305 0.588227
C76_3 C 0.14328(12) 0.91238(12) 0.60035(8)
C77_3 C 0.09209(11) 0.83338(12) 0.53340(9)
H53_3 H 0.074812 0.806149 0.510451
C78_3 C 0.10466(12) 0.89291(12) 0.52092(8)
H54_3 H 0.096014 0.906888 0.489384
C79_3 C 0.12992(13) 0.93273(13) 0.55409(8)
H55_3 H 0.138217 0.974126 0.545379
H56_3 H 0.337003 0.998843 0.860066
H57_3 H 0.387757 0.996673 0.818328
C86_3 C 0.1758(2) 0.95489(17) 0.63393(10)
H63_3 H 0.160642 0.997230 0.628445
H64_3 H 0.220241 0.954336 0.626413
O19_2 O 0.25304(8) 0.34079(7) 0.78570(5)
O20_3 O 0.24777(8) 0.34241(7) 0.70592(5)
O21_3 O 0.17719(8) 0.43987(7) 0.80800(6)
O23_3 O 0.25698(9) 0.65880(7) 0.70525(6)
O24_3 O 0.33183(8) 0.55931(7) 0.68063(5)
C87_3 C 0.29312(10) 0.52980(9) 0.71229(7)
C88_3 C 0.28901(10) 0.46598(9) 0.71351(7)
H65_3 H 0.312174 0.442264 0.691353
C89_3 C 0.21674(10) 0.47121(9) 0.77889(7)
C90_3 C 0.25171(10) 0.43649(9) 0.74648(6)
C91_3 C 0.25986(10) 0.56427(9) 0.74542(7)
C92_3 C 0.25011(9) 0.36775(8) 0.74624(7)
C93_3 C 0.22228(10) 0.53468(9) 0.77872(7)
H66_3 H 0.200208 0.558345 0.801572
C94_3 C 0.25888(9) 0.63284(9) 0.74524(7)
C95_3 C 0.36962(10) 0.64768(11) 0.61293(8)
H67_3 H 0.360818 0.661799 0.644393
C96_3 C 0.39550(10) 0.68747(11) 0.57957(9)
H68_3 H 0.404666 0.728695 0.588227
C97_3 C 0.09799(11) 0.43265(10) 0.86626(8)
C98_3 C 0.35672(12) 0.58762(12) 0.60035(8)
C99_3 C 0.40791(11) 0.66662(12) 0.53340(9)
H69_3 H 0.425188 0.693851 0.510451
C100_3 C 0.39534(12) 0.60709(12) 0.52092(8)
H70_3 H 0.403986 0.593112 0.489384
C101_3 C 0.37008(13) 0.56727(13) 0.55409(8)
H71_3 H 0.361783 0.525874 0.545379
C102_3 C 0.13801(12) 0.47566(10) 0.83807(9)
H72_3 H 0.162997 0.501157 0.860066
H73_3 H 0.112243 0.503327 0.818328
C103_3 C 0.08081(12) 0.37648(12) 0.84966(10)
H74_3 H 0.095053 0.362798 0.819308
C104_3 C 0.02093(15) 0.35789(15) 0.92008(12)
C105_3 C 0.04268(14) 0.33900(14) 0.87666(13)
H76_3 H 0.031536 0.299625 0.864769
C106_3 C 0.07643(16) 0.45160(16) 0.91068(11)
H77_3 H 0.088546 0.490434 0.923063
C107_3 C 0.03760(17) 0.41460(18) 0.93700(11)
H78_3 H 0.022346 0.428498 0.966997
C108_3 C 0.3242(2) 0.54511(17) 0.63393(10)
H79_3 H 0.339358 0.502770 0.628445
H80_3 H 0.279759 0.545664 0.626413
O25_2 O 0.15921(7) 0.24696(8) 0.71430(5)
O26_2 O 0.34079(7) 0.25304(8) 0.71430(5)
O27_2 O 0.15921(7) 0.25304(8) 0.28570(5)
O28_2 O 0.34079(7) 0.24696(8) 0.28570(5)
N4_4 N 0.250000 0.250000 0.12568(8)
C38_4 C 0.250000 0.250000 0.02652(10)
C39_4 C 0.29893(10) 0.27011(10) 0.10124(7)
H29_4 H 0.333597 0.284701 0.118545
C40_4 C 0.30091(10) 0.27044(11) 0.05183(7)
H30_4 H 0.336535 0.284433 0.035437
C41_4 C 0.20107(10) 0.22989(10) 0.10124(7)
H31_4 H 0.166403 0.215299 0.118545
C42_4 C 0.19909(10) 0.22956(11) 0.05183(7)
H32_4 H 0.163465 0.215567 0.035437
O20_4 O 0.15759(7) 0.24777(8) 0.20592(5)
O21_4 O 0.06013(7) 0.17719(8) 0.30800(6)
C88_4 C 0.03402(9) 0.28901(10) 0.21351(7)
H65_4 H 0.057736 0.312174 0.191353
C89_4 C 0.02879(9) 0.21674(10) 0.27889(7)
C90_4 C 0.06351(9) 0.25171(10) 0.24648(6)
C92_4 C 0.13225(8) 0.25011(9) 0.24624(7)
C97_4 C 0.06735(10) 0.09799(11) 0.36626(8)
C102_4 C 0.02434(10) 0.13801(12) 0.33807(9)
C103_4 C 0.12352(12) 0.08081(12) 0.34966(10)
H74_4 H 0.137202 0.095053 0.319308
C104_4 C 0.14211(15) 0.02093(15) 0.42008(12)
C105_4 C 0.16100(14) 0.04268(14) 0.37666(13)
H76_4 H 0.200375 0.031536 0.364769
C106_4 C 0.04840(16) 0.07643(16) 0.41068(11)
H77_4 H 0.009566 0.088546 0.423063
C107_4 C 0.08540(18) 0.03760(17) 0.43700(11)
H78_4 H 0.071502 0.022346 0.466997
O30_2 O 0.34241(7) 0.25223(8) 0.20592(5)
O2_4 O 0.15759(7) 0.25223(8) 0.79408(5)
O3_4 O 0.06013(7) 0.32281(8) 0.69200(6)
N2_4 N 0.250000 0.250000 0.87432(8)
C2_4 C 0.03402(9) 0.21099(10) 0.78649(7)
H1_4 H 0.057736 0.187826 0.808647
C3_4 C 0.02879(9) 0.28326(10) 0.72111(7)
C4_4 C 0.06351(9) 0.24829(10) 0.75352(6)
C7_4 C 0.13225(8) 0.24989(9) 0.75376(7)
C9_4 C 0.250000 0.250000 0.97348(10)
C12_4 C 0.20107(10) 0.27011(10) 0.89876(7)
H4_4 H 0.166403 0.284701 0.881455
C14_4 C 0.19909(10) 0.27044(11) 0.94817(7)
H6_4 H 0.163465 0.284433 0.964563
C17_4 C 0.06735(10) 0.40201(11) 0.63374(8)
C22_4 C 0.02434(10) 0.36199(12) 0.66193(9)
C23_4 C 0.12352(12) 0.41919(12) 0.65034(10)
H14_4 H 0.137202 0.404947 0.680692
C24_4 C 0.14211(15) 0.47907(15) 0.57992(12)
H15_4 H 0.167925 0.505404 0.561685
C25_4 C 0.16100(14) 0.45732(14) 0.62334(13)
H16_4 H 0.200375 0.468464 0.635231
C26_4 C 0.04840(16) 0.42357(16) 0.58932(11)
H17_4 H 0.009566 0.411454 0.576937
C27_4 C 0.08540(18) 0.46240(17) 0.56300(11)
H18_4 H 0.071502 0.477654 0.533003
C36_4 C 0.29893(10) 0.22989(10) 0.89876(7)
H27_4 H 0.333597 0.215299 0.881455
C37_4 C 0.30091(10) 0.22956(11) 0.94817(7)
H28_4 H 0.336535 0.215567 0.964563
O29_2 O 0.34241(7) 0.24777(8) 0.79408(5)
H10_4 H 0.906888 0.096014 0.010616
N3_4 N 0.750000 0.250000 0.12569(8)
C31_4 C 0.750000 0.250000 0.02647(9)
C32_4 C 0.79858(10) 0.22998(10) 0.10119(7)
H23_4 H 0.833357 0.215638 0.118484
C33_4 C 0.80059(10) 0.22918(11) 0.05171(7)
H24_4 H 0.836011 0.214609 0.035363
C34_4 C 0.70142(10) 0.27002(10) 0.10119(7)
H25_4 H 0.666643 0.284362 0.118484
C35_4 C 0.69941(10) 0.27082(11) 0.05171(7)
H26_4 H 0.663989 0.285391 0.035363
H38_4 H 0.593112 0.403986 0.010616
O15_4 O 0.43987(7) 0.32281(8) 0.30800(6)
O17_4 O 0.65880(7) 0.24302(9) 0.20525(6)
O18_4 O 0.55931(7) 0.16817(8) 0.18063(5)
C65_4 C 0.52980(9) 0.20688(10) 0.21229(7)
C66_4 C 0.46598(9) 0.21099(10) 0.21351(7)
H49_4 H 0.442264 0.187826 0.191353
C67_4 C 0.47121(9) 0.28326(10) 0.27889(7)
C68_4 C 0.43649(9) 0.24829(10) 0.24648(6)
C69_4 C 0.56427(9) 0.24014(10) 0.24542(7)
C70_4 C 0.36775(8) 0.24989(9) 0.24624(7)
C71_4 C 0.53468(9) 0.27772(10) 0.27872(7)
H50_4 H 0.558345 0.299792 0.301572
C72_4 C 0.63284(9) 0.24112(9) 0.24524(7)
C73_4 C 0.64768(11) 0.13038(10) 0.11293(8)
H51_4 H 0.661799 0.139182 0.144393
C74_4 C 0.68747(11) 0.10450(10) 0.07957(9)
H52_4 H 0.728695 0.095334 0.088227
C75_4 C 0.43265(10) 0.40201(11) 0.36626(8)
C76_4 C 0.58762(12) 0.14328(12) 0.10035(8)
C77_4 C 0.66662(12) 0.09209(11) 0.03340(9)
H53_4 H 0.693851 0.074812 0.010451
C78_4 C 0.60709(12) 0.10466(12) 0.02092(8)
C79_4 C 0.56727(13) 0.12992(13) 0.05409(8)
H55_4 H 0.525874 0.138217 0.045379
C80_4 C 0.47566(10) 0.36199(12) 0.33807(9)
H56_4 H 0.501157 0.337003 0.360066
H57_4 H 0.503327 0.387757 0.318328
C81_4 C 0.37648(12) 0.41919(12) 0.34966(10)
H58_4 H 0.362798 0.404947 0.319308
C82_4 C 0.35789(15) 0.47907(15) 0.42008(12)
H59_4 H 0.332075 0.505404 0.438315
C83_4 C 0.33900(14) 0.45732(14) 0.37666(13)
H60_4 H 0.299625 0.468464 0.364769
C84_4 C 0.45160(16) 0.42357(16) 0.41068(11)
H61_4 H 0.490434 0.411454 0.423063
C85_4 C 0.41460(18) 0.46240(17) 0.43700(11)
H62_4 H 0.428498 0.477654 0.466997
C86_4 C 0.54511(17) 0.1758(2) 0.13393(10)
H63_4 H 0.502770 0.160642 0.128445
H64_4 H 0.545664 0.220241 0.126413
O23_4 O 0.84120(7) 0.25698(9) 0.20525(6)
O24_4 O 0.94069(7) 0.33183(8) 0.18063(5)
C87_4 C 0.97020(9) 0.29312(10) 0.21229(7)
C91_4 C 0.93573(9) 0.25986(10) 0.24542(7)
C93_4 C 0.96532(9) 0.22228(10) 0.27872(7)
H66_4 H 0.941655 0.200208 0.301572
C94_4 C 0.86716(9) 0.25888(9) 0.24524(7)
C95_4 C 0.85232(11) 0.36962(10) 0.11293(8)
H67_4 H 0.838201 0.360818 0.144393
C96_4 C 0.81253(11) 0.39550(10) 0.07957(9)
H68_4 H 0.771305 0.404666 0.088227
C98_4 C 0.91238(12) 0.35672(12) 0.10035(8)
C99_4 C 0.83338(12) 0.40791(11) 0.03340(9)
H69_4 H 0.806149 0.425188 0.010451
C100_4 C 0.89291(12) 0.39534(12) 0.02092(8)
C101_4 C 0.93273(13) 0.37008(13) 0.05409(8)
H71_4 H 0.974126 0.361783 0.045379
H72_4 H 0.998843 0.162997 0.360066
H73_4 H 0.996673 0.112243 0.318328
C108_4 C 0.95489(17) 0.3242(2) 0.13393(10)
H79_4 H 0.997230 0.339358 0.128445
H80_4 H 0.954336 0.279759 0.126413
O5_4 O 0.84120(7) 0.24302(9) 0.79475(6)
O6_4 O 0.94069(7) 0.16817(8) 0.81937(5)
N1_4 N 0.750000 0.250000 0.87431(8)
C1_4 C 0.97020(9) 0.20688(10) 0.78771(7)
C5_4 C 0.750000 0.250000 0.97353(9)
C6_4 C 0.93573(9) 0.24014(10) 0.75458(7)
C8_4 C 0.96532(9) 0.27772(10) 0.72128(7)
H2_4 H 0.941655 0.299792 0.698428
C10_4 C 0.86716(9) 0.24112(9) 0.75476(7)
C11_4 C 0.70142(10) 0.22998(10) 0.89881(7)
H3_4 H 0.666643 0.215638 0.881516
C13_4 C 0.69941(10) 0.22918(11) 0.94829(7)
H5_4 H 0.663989 0.214609 0.964637
C15_4 C 0.85232(11) 0.13038(10) 0.88707(8)
H7_4 H 0.838201 0.139182 0.855607
C16_4 C 0.81253(11) 0.10450(10) 0.92043(9)
H8_4 H 0.771305 0.095334 0.911773
C18_4 C 0.91238(12) 0.14328(12) 0.89965(8)
C19_4 C 0.83338(12) 0.09209(11) 0.96660(9)
H9_4 H 0.806149 0.074812 0.989549
C20_4 C 0.89291(12) 0.10466(12) 0.97908(8)
C21_4 C 0.93273(13) 0.12992(13) 0.94591(8)
H11_4 H 0.974126 0.138217 0.954621
H12_4 H 0.998843 0.337003 0.639934
H13_4 H 0.996673 0.387757 0.681672
C28_4 C 0.95489(17) 0.1758(2) 0.86607(10)
H19_4 H 0.997230 0.160642 0.871555
H20_4 H 0.954336 0.220241 0.873587
C29_4 C 0.79858(10) 0.27002(10) 0.89881(7)
H21_4 H 0.833357 0.284362 0.881516
C30_4 C 0.80059(10) 0.27082(11) 0.94829(7)
H22_4 H 0.836011 0.285391 0.964637
O9_4 O 0.43987(7) 0.17719(8) 0.69200(6)
O11_4 O 0.65880(7) 0.25698(9) 0.79475(6)
O12_4 O 0.55931(7) 0.33183(8) 0.81937(5)
C43_4 C 0.52980(9) 0.29312(10) 0.78771(7)
C44_4 C 0.46598(9) 0.28901(10) 0.78649(7)
H33_4 H 0.442264 0.312174 0.808647
C45_4 C 0.47121(9) 0.21674(10) 0.72111(7)
C46_4 C 0.43649(9) 0.25171(10) 0.75352(6)
C47_4 C 0.56427(9) 0.25986(10) 0.75458(7)
C48_4 C 0.36775(8) 0.25011(9) 0.75376(7)
C49_4 C 0.53468(9) 0.22228(10) 0.72128(7)
H34_4 H 0.558345 0.200208 0.698428
C50_4 C 0.63284(9) 0.25888(9) 0.75476(7)
C51_4 C 0.64768(11) 0.36962(10) 0.88707(8)
H35_4 H 0.661799 0.360818 0.855607
C52_4 C 0.68747(11) 0.39550(10) 0.92043(9)
H36_4 H 0.728695 0.404666 0.911773
C53_4 C 0.43265(10) 0.09799(11) 0.63374(8)
C54_4 C 0.58762(12) 0.35672(12) 0.89965(8)
C55_4 C 0.66662(12) 0.40791(11) 0.96660(9)
H37_4 H 0.693851 0.425188 0.989549
C56_4 C 0.60709(12) 0.39534(12) 0.97908(8)
C57_4 C 0.56727(13) 0.37008(13) 0.94591(8)
H39_4 H 0.525874 0.361783 0.954621
C58_4 C 0.47566(10) 0.13801(12) 0.66193(9)
H40_4 H 0.501157 0.162997 0.639934
H41_4 H 0.503327 0.112243 0.681672
C59_4 C 0.37648(12) 0.08081(12) 0.65034(10)
H42_4 H 0.362798 0.095053 0.680692
C60_4 C 0.35789(15) 0.02093(15) 0.57992(12)
C61_4 C 0.33900(14) 0.04268(14) 0.62334(13)
H44_4 H 0.299625 0.031536 0.635231
C62_4 C 0.45160(16) 0.07643(16) 0.58932(11)
H45_4 H 0.490434 0.088546 0.576937
C63_4 C 0.41460(18) 0.03760(17) 0.56300(11)
H46_4 H 0.428498 0.022346 0.533003
C64_4 C 0.54511(17) 0.3242(2) 0.86607(10)
H47_4 H 0.502770 0.339358 0.871555
H48_4 H 0.545664 0.279759 0.873587
H54_4 H 0.593112 0.096014 0.989384
H70_4 H 0.906888 0.403986 0.989384
H43_2 H 0.667925 0.005404 0.438315
H75_2 H 0.832075 0.005404 0.561685
H43_3 H 0.994596 0.167925 0.061685
H75_3 H 0.994596 0.332075 0.938315
H75_4 H 0.167925 0.994596 0.438315
H43_4 H 0.332075 0.994596 0.561685
loop_
_geom_bond_atom_site_label_1
_geom_bond_atom_site_label_2
_geom_bond_site_symmetry_1
_geom_bond_site_symmetry_2
Zn1 O5 1_555 1_555
Zn2 O2 1_555 1_555
O1 C7 1_555 1_555
O2 C7 1_555 1_555
O3 C3 1_555 1_555
O4 C10 1_555 1_555
O5 C10 1_555 1_555
O6 C1 1_555 1_555
N1 Zn1 1_555 1_555
N2 Zn2 1_555 1_555
C1 C2 1_555 1_555
C2 H1 1_555 1_555
C3 C4 1_555 1_555
C4 C2 1_555 1_555
C5 C13 1_555 1_555
C6 C1 1_555 1_555
C7 C4 1_555 1_555
C8 C3 1_555 1_555
H2 C8 1_555 1_555
C9 C14 1_555 1_555
C10 C6 1_555 1_555
C11 N1 1_555 1_555
H3 C11 1_555 1_555
C12 N2 1_555 1_555
H4 C12 1_555 1_555
C13 C11 1_555 1_555
H5 C13 1_555 1_555
C14 C12 1_555 1_555
H6 C14 1_555 1_555
C15 H7 1_555 1_555
C16 C15 1_555 1_555
H8 C16 1_555 1_555
C17 C22 1_555 1_555
C18 C15 1_555 1_555
C19 C16 1_555 1_555
H9 C19 1_555 1_555
C20 C19 1_555 1_555
H10 C20 1_555 1_555
C21 C18 1_555 1_555
H11 C21 1_555 1_555
C22 O3 1_555 1_555
H12 C22 1_555 1_555
H13 C22 1_555 1_555
C23 C17 1_555 1_555
H14 C23 1_555 1_555
C24 H15 1_555 1_555
C25 C23 1_555 1_555
H16 C25 1_555 1_555
C26 C17 1_555 1_555
H17 C26 1_555 1_555
C27 C24 1_555 1_555
H18 C27 1_555 1_555
C28 O6 1_555 1_555
H19 C28 1_555 1_555
H20 C28 1_555 1_555
C29 N1 1_555 1_555
H21 C29 1_555 1_555
C30 C5 1_555 1_555
H22 C30 1_555 1_555
N3 C32 1_555 1_555
C31 C5 1_555 1_555
C32 H23 1_555 1_555
C33 C31 1_555 1_555
H24 C33 1_555 1_555
C34 N3 1_555 1_555
H25 C34 1_555 1_555
C35 C31 1_555 1_555
H26 C35 1_555 1_555
C36 N2 1_555 1_555
H27 C36 1_555 1_555
C37 C9 1_555 1_555
H28 C37 1_555 1_555
N4 C39 1_555 1_555
C38 C9 1_555 1_555
C39 H29 1_555 1_555
C40 C38 1_555 1_555
H30 C40 1_555 1_555
C41 N4 1_555 1_555
H31 C41 1_555 1_555
C42 C38 1_555 1_555
H32 C42 1_555 1_555
O10 C50 1_555 1_555
O11 Zn1 1_555 1_555
O12 C43 1_555 1_555
C47 C43 1_555 1_555
H34 C49 1_555 1_555
C50 O11 1_555 1_555
C51 H35 1_555 1_555
C52 C51 1_555 1_555
H36 C52 1_555 1_555
C54 C51 1_555 1_555
C55 C52 1_555 1_555
H37 C55 1_555 1_555
C56 C55 1_555 1_555
H38 C56 1_555 1_555
C57 C54 1_555 1_555
H39 C57 1_555 1_555
C64 O12 1_555 1_555
H47 C64 1_555 1_555
H48 C64 1_555 1_555
Zn3 N3 1_555 1_555
O16 C72 1_555 1_555
O17 Zn3 1_555 1_555
O18 C65 1_555 1_555
C69 C65 1_555 1_555
H50 C71 1_555 1_555
C72 O17 1_555 1_555
C73 H51 1_555 1_555
C74 C73 1_555 1_555
H52 C74 1_555 1_555
C76 C73 1_555 1_555
C77 C74 1_555 1_555
H53 C77 1_555 1_555
C78 C77 1_555 1_555
H54 C78 1_555 1_555
C79 C76 1_555 1_555
H55 C79 1_555 1_555
C86 O18 1_555 1_555
H63 C86 1_555 1_555
H64 C86 1_555 1_555
Zn4 N4 1_555 1_555
O19 C92 1_555 1_555
O20 Zn4 1_555 1_555
O21 C89 1_555 1_555
O22 C94 1_555 1_555
O23 Zn3 1_555 1_555
O24 C87 1_555 1_555
C87 C88 1_555 1_555
C88 H65 1_555 1_555
C89 C90 1_555 1_555
C90 C88 1_555 1_555
C91 C87 1_555 1_555
C92 O20 1_555 1_555
C93 C89 1_555 1_555
H66 C93 1_555 1_555
C94 O23 1_555 1_555
C95 H67 1_555 1_555
C96 C95 1_555 1_555
H68 C96 1_555 1_555
C97 C102 1_555 1_555
C98 C95 1_555 1_555
C99 C96 1_555 1_555
H69 C99 1_555 1_555
C100 C99 1_555 1_555
H70 C100 1_555 1_555
C101 C98 1_555 1_555
H71 C101 1_555 1_555
C102 O21 1_555 1_555
H72 C102 1_555 1_555
H73 C102 1_555 1_555
C103 C97 1_555 1_555
H74 C103 1_555 1_555
C105 C103 1_555 1_555
H76 C105 1_555 1_555
C106 C97 1_555 1_555
H77 C106 1_555 1_555
C107 C104 1_555 1_555
H78 C107 1_555 1_555
C108 O24 1_555 1_555
H79 C108 1_555 1_555
H80 C108 1_555 1_555
Zn5 O16 1_555 1_555
Zn6 O4 1_555 1_555
Zn9 O19 1_555 1_555
Zn12 O1 1_555 1_555
O25 Zn4 1_555 1_555
O26 Zn4 1_555 1_555
O27 Zn2 1_555 1_555
O28 Zn2 1_555 1_555
O29 Zn2 1_555 1_555
O30 Zn4 1_555 1_555
O31 Zn3 1_555 1_555
O32 Zn3 1_555 1_555
O33 Zn1 1_555 1_555
O34 Zn1 1_555 1_555
C6 C8 1_555 1_555
C18 C28 1_555 1_555
C20 C21 1_555 1_555
C24 C25 1_555 1_555
C26 C27 1_555 1_555
C29 C30 1_555 1_555
C32 C33 1_555 1_555
C34 C35 1_555 1_555
C36 C37 1_555 1_555
C39 C40 1_555 1_555
C41 C42 1_555 1_555
O10 Zn6 1_555 1_555
C47 C49 1_555 1_555
C47 C50 1_555 1_555
C54 C64 1_555 1_555
C56 C57 1_555 1_555
C69 C71 1_555 1_555
C69 C72 1_555 1_555
C76 C86 1_555 1_555
C78 C79 1_555 1_555
O22 Zn5 1_555 1_555
C90 C92 1_555 1_555
C91 C93 1_555 1_555
C91 C94 1_555 1_555
C98 C108 1_555 1_555
C100 C101 1_555 1_555
C104 C105 1_555 1_555
C106 C107 1_555 1_555
O7 C48 1_555 1_555
O29 C48 1_555 1_555
O9 C45 1_555 1_555
C44 H33 1_555 1_555
C45 C46 1_555 1_555
C46 C44 1_555 1_555
C48 C46 1_555 1_555
C53 C58 1_555 1_555
C58 O9 1_555 1_555
C59 C53 1_555 1_555
H42 C59 1_555 1_555
C61 C59 1_555 1_555
H44 C61 1_555 1_555
C62 C53 1_555 1_555
H45 C62 1_555 1_555
C63 C60 1_555 1_555
H46 C63 1_555 1_555
O13 C70 1_555 1_555
O30 C70 1_555 1_555
O15 C67 1_555 1_555
C66 H49 1_555 1_555
C67 C68 1_555 1_555
C68 C66 1_555 1_555
C70 C68 1_555 1_555
C75 C80 1_555 1_555
C80 O15 1_555 1_555
C81 C75 1_555 1_555
H58 C81 1_555 1_555
C82 H59 1_555 1_555
C83 C81 1_555 1_555
H60 C83 1_555 1_555
C84 C75 1_555 1_555
H61 C84 1_555 1_555
C85 C82 1_555 1_555
H62 C85 1_555 1_555
Zn9 O13 1_555 1_555
Zn12 O7 1_555 1_555
C60 C61 1_555 1_555
C62 C63 1_555 1_555
C82 C83 1_555 1_555
C84 C85 1_555 1_555
Zn1_2 O5_2 1_555 1_555
O4_2 C10_2 1_555 1_555
O5_2 C10_2 1_555 1_555
O6_2 C1_2 1_555 1_555
N1_2 Zn1_2 1_555 1_555
C5_2 C13_2 1_555 1_555
C6_2 C1_2 1_555 1_555
H2_2 C8_2 1_555 1_555
C10_2 C6_2 1_555 1_555
C11_2 N1_2 1_555 1_555
H3_2 C11_2 1_555 1_555
C13_2 C11_2 1_555 1_555
H5_2 C13_2 1_555 1_555
C15_2 H7_2 1_555 1_555
C16_2 C15_2 1_555 1_555
H8_2 C16_2 1_555 1_555
C18_2 C15_2 1_555 1_555
C19_2 C16_2 1_555 1_555
H9_2 C19_2 1_555 1_555
C20_2 C19_2 1_555 1_555
C21_2 C18_2 1_555 1_555
H11_2 C21_2 1_555 1_555
C28_2 O6_2 1_555 1_555
H19_2 C28_2 1_555 1_555
H20_2 C28_2 1_555 1_555
C29_2 N1_2 1_555 1_555
H21_2 C29_2 1_555 1_555
C30_2 C5_2 1_555 1_555
H22_2 C30_2 1_555 1_555
O26 C48_2 1_555 1_555
O8 C48_2 1_555 1_555
O9_2 C45_2 1_555 1_555
O10_2 C50_2 1_555 1_555
O11_2 Zn1_2 1_555 1_555
O12_2 C43_2 1_555 1_555
C43_2 C44_2 1_555 1_555
C44_2 H33_2 1_555 1_555
C45_2 C46_2 1_555 1_555
C46_2 C44_2 1_555 1_555
C47_2 C43_2 1_555 1_555
C48_2 C46_2 1_555 1_555
C49_2 C45_2 1_555 1_555
H34_2 C49_2 1_555 1_555
C50_2 O11_2 1_555 1_555
C51_2 H35_2 1_555 1_555
C52_2 C51_2 1_555 1_555
H36_2 C52_2 1_555 1_555
C53_2 C58_2 1_555 1_555
C54_2 C51_2 1_555 1_555
C55_2 C52_2 1_555 1_555
H37_2 C55_2 1_555 1_555
C56_2 C55_2 1_555 1_555
C57_2 C54_2 1_555 1_555
H39_2 C57_2 1_555 1_555
C58_2 O9_2 1_555 1_555
H40_2 C58_2 1_555 1_555
H41_2 C58_2 1_555 1_555
C59_2 C53_2 1_555 1_555
H42_2 C59_2 1_555 1_555
C61_2 C59_2 1_555 1_555
H44_2 C61_2 1_555 1_555
C62_2 C53_2 1_555 1_555
H45_2 C62_2 1_555 1_555
C63_2 C60_2 1_555 1_555
H46_2 C63_2 1_555 1_555
C64_2 O12_2 1_555 1_555
H47_2 C64_2 1_555 1_555
H48_2 C64_2 1_555 1_555
Zn6_2 O4_2 1_555 1_555
Zn9 O8 1_555 1_555
O33_2 Zn1_2 1_555 1_555
O34_2 Zn1_2 1_555 1_555
C6_2 C8_2 1_555 1_555
C18_2 C28_2 1_555 1_555
C20_2 C21_2 1_555 1_555
C29_2 C30_2 1_555 1_555
O10_2 Zn6_2 1_555 1_555
C47_2 C49_2 1_555 1_555
C47_2 C50_2 1_555 1_555
C54_2 C64_2 1_555 1_555
C56_2 C57_2 1_555 1_555
C60_2 C61_2 1_555 1_555
C62_2 C63_2 1_555 1_555
N3_2 C32_2 1_555 1_555
C32_2 H23_2 1_555 1_555
C33_2 C31_2 1_555 1_555
H24_2 C33_2 1_555 1_555
C34_2 N3_2 1_555 1_555
H25_2 C34_2 1_555 1_555
C35_2 C31_2 1_555 1_555
H26_2 C35_2 1_555 1_555
Zn3_2 N3_2 1_555 1_555
O28 C70_2 1_555 1_555
O14 C70_2 1_555 1_555
O15_2 C67_2 1_555 1_555
O16_2 C72_2 1_555 1_555
O17_2 Zn3_2 1_555 1_555
O18_2 C65_2 1_555 1_555
C65_2 C66_2 1_555 1_555
C66_2 H49_2 1_555 1_555
C67_2 C68_2 1_555 1_555
C68_2 C66_2 1_555 1_555
C69_2 C65_2 1_555 1_555
C70_2 C68_2 1_555 1_555
C71_2 C67_2 1_555 1_555
H50_2 C71_2 1_555 1_555
C72_2 O17_2 1_555 1_555
C73_2 H51_2 1_555 1_555
C74_2 C73_2 1_555 1_555
H52_2 C74_2 1_555 1_555
C75_2 C80_2 1_555 1_555
C76_2 C73_2 1_555 1_555
C77_2 C74_2 1_555 1_555
H53_2 C77_2 1_555 1_555
C78_2 C77_2 1_555 1_555
C79_2 C76_2 1_555 1_555
H55_2 C79_2 1_555 1_555
C80_2 O15_2 1_555 1_555
H56_2 C80_2 1_555 1_555
H57_2 C80_2 1_555 1_555
C81_2 C75_2 1_555 1_555
H58_2 C81_2 1_555 1_555
C82_2 H59_2 1_555 1_555
C83_2 C81_2 1_555 1_555
H60_2 C83_2 1_555 1_555
C84_2 C75_2 1_555 1_555
H61_2 C84_2 1_555 1_555
C85_2 C82_2 1_555 1_555
H62_2 C85_2 1_555 1_555
C86_2 O18_2 1_555 1_555
H63_2 C86_2 1_555 1_555
H64_2 C86_2 1_555 1_555
O22_2 C94_2 1_555 1_555
O23_2 Zn3_2 1_555 1_555
O24_2 C87_2 1_555 1_555
C91_2 C87_2 1_555 1_555
H66_2 C93_2 1_555 1_555
C94_2 O23_2 1_555 1_555
C95_2 H67_2 1_555 1_555
C96_2 C95_2 1_555 1_555
H68_2 C96_2 1_555 1_555
C98_2 C95_2 1_555 1_555
C99_2 C96_2 1_555 1_555
H69_2 C99_2 1_555 1_555
C100_2 C99_2 1_555 1_555
C101_2 C98_2 1_555 1_555
H71_2 C101_2 1_555 1_555
C108_2 O24_2 1_555 1_555
H79_2 C108_2 1_555 1_555
H80_2 C108_2 1_555 1_555
Zn5_2 O16_2 1_555 1_555
Zn12 O14 1_555 1_555
O31_2 Zn3_2 1_555 1_555
O32_2 Zn3_2 1_555 1_555
C32_2 C33_2 1_555 1_555
C34_2 C35_2 1_555 1_555
C69_2 C71_2 1_555 1_555
C69_2 C72_2 1_555 1_555
C76_2 C86_2 1_555 1_555
C78_2 C79_2 1_555 1_555
C82_2 C83_2 1_555 1_555
C84_2 C85_2 1_555 1_555
O22_2 Zn5_2 1_555 1_555
C91_2 C93_2 1_555 1_555
C91_2 C94_2 1_555 1_555
C98_2 C108_2 1_555 1_555
C100_2 C101_2 1_555 1_555
Zn9 O2_2 1_555 1_555
O25 C7_2 1_555 1_555
O2_2 C7_2 1_555 1_555
O3_2 C3_2 1_555 1_555
N2_2 Zn9 1_555 1_555
C2_2 H1_2 1_555 1_555
C3_2 C4_2 1_555 1_555
C4_2 C2_2 1_555 1_555
C7_2 C4_2 1_555 1_555
C9_2 C14_2 1_555 1_555
C12_2 N2_2 1_555 1_555
H4_2 C12_2 1_555 1_555
C14_2 C12_2 1_555 1_555
H6_2 C14_2 1_555 1_555
C17_2 C22_2 1_555 1_555
C22_2 O3_2 1_555 1_555
C23_2 C17_2 1_555 1_555
H14_2 C23_2 1_555 1_555
C24_2 H15_2 1_555 1_555
C25_2 C23_2 1_555 1_555
H16_2 C25_2 1_555 1_555
C26_2 C17_2 1_555 1_555
H17_2 C26_2 1_555 1_555
C27_2 C24_2 1_555 1_555
H18_2 C27_2 1_555 1_555
C36_2 N2_2 1_555 1_555
H27_2 C36_2 1_555 1_555
C37_2 C9_2 1_555 1_555
H28_2 C37_2 1_555 1_555
C24_2 C25_2 1_555 1_555
C26_2 C27_2 1_555 1_555
C36_2 C37_2 1_555 1_555
N4_2 C39_2 1_555 1_555
C39_2 H29_2 1_555 1_555
C40_2 C38_2 1_555 1_555
H30_2 C40_2 1_555 1_555
C41_2 N4_2 1_555 1_555
H31_2 C41_2 1_555 1_555
C42_2 C38_2 1_555 1_555
H32_2 C42_2 1_555 1_555
Zn12 N4_2 1_555 1_555
O27 C92_2 1_555 1_555
O20_2 Zn12 1_555 1_555
O21_2 C89_2 1_555 1_555
C88_2 H65_2 1_555 1_555
C89_2 C90_2 1_555 1_555
C90_2 C88_2 1_555 1_555
C92_2 O20_2 1_555 1_555
C97_2 C102_2 1_555 1_555
C102_2 O21_2 1_555 1_555
C103_2 C97_2 1_555 1_555
H74_2 C103_2 1_555 1_555
C105_2 C103_2 1_555 1_555
H76_2 C105_2 1_555 1_555
C106_2 C97_2 1_555 1_555
H77_2 C106_2 1_555 1_555
C107_2 C104_2 1_555 1_555
H78_2 C107_2 1_555 1_555
C39_2 C40_2 1_555 1_555
C41_2 C42_2 1_555 1_555
C90_2 C92_2 1_555 1_555
C104_2 C105_2 1_555 1_555
C106_2 C107_2 1_555 1_555
O7_2 C48_3 1_555 1_555
O8_2 C48_3 1_555 1_555
O9_3 C45_3 1_555 1_555
C44_3 H33_3 1_555 1_555
C45_3 C46_3 1_555 1_555
C46_3 C44_3 1_555 1_555
C48_3 C46_3 1_555 1_555
C53_3 C58_3 1_555 1_555
C58_3 O9_3 1_555 1_555
C59_3 C53_3 1_555 1_555
H42_3 C59_3 1_555 1_555
C61_3 C59_3 1_555 1_555
H44_3 C61_3 1_555 1_555
C62_3 C53_3 1_555 1_555
H45_3 C62_3 1_555 1_555
C63_3 C60_3 1_555 1_555
H46_3 C63_3 1_555 1_555
O13_2 C70_3 1_555 1_555
O14_2 C70_3 1_555 1_555
O15_3 C67_3 1_555 1_555
C66_3 H49_3 1_555 1_555
C67_3 C68_3 1_555 1_555
C68_3 C66_3 1_555 1_555
C70_3 C68_3 1_555 1_555
C75_3 C80_3 1_555 1_555
C80_3 O15_3 1_555 1_555
C81_3 C75_3 1_555 1_555
H58_3 C81_3 1_555 1_555
C82_3 H59_3 1_555 1_555
C83_3 C81_3 1_555 1_555
H60_3 C83_3 1_555 1_555
C84_3 C75_3 1_555 1_555
H61_3 C84_3 1_555 1_555
C85_3 C82_3 1_555 1_555
H62_3 C85_3 1_555 1_555
Zn7 O8_2 1_555 1_555
Zn8 O13_2 1_555 1_555
Zn10 O14_2 1_555 1_555
Zn11 O7_2 1_555 1_555
C60_3 C61_3 1_555 1_555
C62_3 C63_3 1_555 1_555
C82_3 C83_3 1_555 1_555
C84_3 C85_3 1_555 1_555
Zn6_2 O5_3 1_555 1_555
Zn7 O2_3 1_555 1_555
O1_2 C7_3 1_555 1_555
O2_3 C7_3 1_555 1_555
O3_3 C3_3 1_555 1_555
O34_2 C10_3 1_555 1_555
O5_3 C10_3 1_555 1_555
O6_3 C1_3 1_555 1_555
N1_3 Zn6_2 1_555 1_555
N2_3 Zn7 1_555 1_555
C1_3 C2_3 1_555 1_555
C2_3 H1_3 1_555 1_555
C3_3 C4_3 1_555 1_555
C4_3 C2_3 1_555 1_555
C5_3 C13_3 1_555 1_555
C6_3 C1_3 1_555 1_555
C7_3 C4_3 1_555 1_555
C8_3 C3_3 1_555 1_555
H2_3 C8_3 1_555 1_555
C9_3 C14_3 1_555 1_555
C10_3 C6_3 1_555 1_555
C11_3 N1_3 1_555 1_555
H3_3 C11_3 1_555 1_555
C12_3 N2_3 1_555 1_555
H4_3 C12_3 1_555 1_555
C13_3 C11_3 1_555 1_555
H5_3 C13_3 1_555 1_555
C14_3 C12_3 1_555 1_555
H6_3 C14_3 1_555 1_555
C15_3 H7_3 1_555 1_555
C16_3 C15_3 1_555 1_555
H8_3 C16_3 1_555 1_555
C17_3 C22_3 1_555 1_555
C18_3 C15_3 1_555 1_555
C19_3 C16_3 1_555 1_555
H9_3 C19_3 1_555 1_555
C20_3 C19_3 1_555 1_555
H10_3 C20_3 1_555 1_555
C21_3 C18_3 1_555 1_555
H11_3 C21_3 1_555 1_555
C22_3 O3_3 1_555 1_555
H12_3 C22_3 1_555 1_555
H13_3 C22_3 1_555 1_555
C23_3 C17_3 1_555 1_555
H14_3 C23_3 1_555 1_555
C24_3 H15_3 1_555 1_555
C25_3 C23_3 1_555 1_555
H16_3 C25_3 1_555 1_555
C26_3 C17_3 1_555 1_555
H17_3 C26_3 1_555 1_555
C27_3 C24_3 1_555 1_555
H18_3 C27_3 1_555 1_555
C28_3 O6_3 1_555 1_555
H19_3 C28_3 1_555 1_555
H20_3 C28_3 1_555 1_555
C29_3 N1_3 1_555 1_555
H21_3 C29_3 1_555 1_555
C30_3 C5_3 1_555 1_555
H22_3 C30_3 1_555 1_555
N3_3 C32_3 1_555 1_555
C31_3 C5_3 1_555 1_555
C32_3 H23_3 1_555 1_555
C33_3 C31_3 1_555 1_555
H24_3 C33_3 1_555 1_555
C34_3 N3_3 1_555 1_555
H25_3 C34_3 1_555 1_555
C35_3 C31_3 1_555 1_555
H26_3 C35_3 1_555 1_555
C36_3 N2_3 1_555 1_555
H27_3 C36_3 1_555 1_555
C37_3 C9_3 1_555 1_555
H28_3 C37_3 1_555 1_555
N4_3 C39_3 1_555 1_555
C38_3 C9_3 1_555 1_555
C39_3 H29_3 1_555 1_555
C40_3 C38_3 1_555 1_555
H30_3 C40_3 1_555 1_555
C41_3 N4_3 1_555 1_555
H31_3 C41_3 1_555 1_555
C42_3 C38_3 1_555 1_555
H32_3 C42_3 1_555 1_555
O33_2 C50_3 1_555 1_555
O11_3 Zn6_2 1_555 1_555
O12_3 C43_3 1_555 1_555
C47_3 C43_3 1_555 1_555
H34_3 C49_3 1_555 1_555
C50_3 O11_3 1_555 1_555
C51_3 H35_3 1_555 1_555
C52_3 C51_3 1_555 1_555
H36_3 C52_3 1_555 1_555
C54_3 C51_3 1_555 1_555
C55_3 C52_3 1_555 1_555
H37_3 C55_3 1_555 1_555
C56_3 C55_3 1_555 1_555
H38_3 C56_3 1_555 1_555
C57_3 C54_3 1_555 1_555
H39_3 C57_3 1_555 1_555
C64_3 O12_3 1_555 1_555
H47_3 C64_3 1_555 1_555
H48_3 C64_3 1_555 1_555
Zn5_2 N3_3 1_555 1_555
O31_2 C72_3 1_555 1_555
O17_3 Zn5_2 1_555 1_555
O18_3 C65_3 1_555 1_555
C69_3 C65_3 1_555 1_555
H50_3 C71_3 1_555 1_555
C72_3 O17_3 1_555 1_555
C73_3 H51_3 1_555 1_555
C74_3 C73_3 1_555 1_555
H52_3 C74_3 1_555 1_555
C76_3 C73_3 1_555 1_555
C77_3 C74_3 1_555 1_555
H53_3 C77_3 1_555 1_555
C78_3 C77_3 1_555 1_555
H54_3 C78_3 1_555 1_555
C79_3 C76_3 1_555 1_555
H55_3 C79_3 1_555 1_555
C86_3 O18_3 1_555 1_555
H63_3 C86_3 1_555 1_555
H64_3 C86_3 1_555 1_555
Zn10 N4_3 1_555 1_555
O19_2 C92_3 1_555 1_555
O20_3 Zn10 1_555 1_555
O21_3 C89_3 1_555 1_555
O32_2 C94_3 1_555 1_555
O23_3 Zn5_2 1_555 1_555
O24_3 C87_3 1_555 1_555
C87_3 C88_3 1_555 1_555
C88_3 H65_3 1_555 1_555
C89_3 C90_3 1_555 1_555
C90_3 C88_3 1_555 1_555
C91_3 C87_3 1_555 1_555
C92_3 O20_3 1_555 1_555
C93_3 C89_3 1_555 1_555
H66_3 C93_3 1_555 1_555
C94_3 O23_3 1_555 1_555
C95_3 H67_3 1_555 1_555
C96_3 C95_3 1_555 1_555
H68_3 C96_3 1_555 1_555
C97_3 C102_3 1_555 1_555
C98_3 C95_3 1_555 1_555
C99_3 C96_3 1_555 1_555
H69_3 C99_3 1_555 1_555
C100_3 C99_3 1_555 1_555
H70_3 C100_3 1_555 1_555
C101_3 C98_3 1_555 1_555
H71_3 C101_3 1_555 1_555
C102_3 O21_3 1_555 1_555
H72_3 C102_3 1_555 1_555
H73_3 C102_3 1_555 1_555
C103_3 C97_3 1_555 1_555
H74_3 C103_3 1_555 1_555
C105_3 C103_3 1_555 1_555
H76_3 C105_3 1_555 1_555
C106_3 C97_3 1_555 1_555
H77_3 C106_3 1_555 1_555
C107_3 C104_3 1_555 1_555
H78_3 C107_3 1_555 1_555
C108_3 O24_3 1_555 1_555
H79_3 C108_3 1_555 1_555
H80_3 C108_3 1_555 1_555
Zn8 O19_2 1_555 1_555
Zn11 O1_2 1_555 1_555
O25_2 Zn10 1_555 1_555
O26_2 Zn10 1_555 1_555
O27_2 Zn7 1_555 1_555
O28_2 Zn7 1_555 1_555
C6_3 C8_3 1_555 1_555
C18_3 C28_3 1_555 1_555
C20_3 C21_3 1_555 1_555
C24_3 C25_3 1_555 1_555
C26_3 C27_3 1_555 1_555
C29_3 C30_3 1_555 1_555
C32_3 C33_3 1_555 1_555
C34_3 C35_3 1_555 1_555
C36_3 C37_3 1_555 1_555
C39_3 C40_3 1_555 1_555
C41_3 C42_3 1_555 1_555
C47_3 C49_3 1_555 1_555
C47_3 C50_3 1_555 1_555
C54_3 C64_3 1_555 1_555
C56_3 C57_3 1_555 1_555
C69_3 C71_3 1_555 1_555
C69_3 C72_3 1_555 1_555
C76_3 C86_3 1_555 1_555
C78_3 C79_3 1_555 1_555
C90_3 C92_3 1_555 1_555
C91_3 C93_3 1_555 1_555
C91_3 C94_3 1_555 1_555
C98_3 C108_3 1_555 1_555
C100_3 C101_3 1_555 1_555
C104_3 C105_3 1_555 1_555
C106_3 C107_3 1_555 1_555
N4_4 C39_4 1_555 1_555
C39_4 H29_4 1_555 1_555
C40_4 C38_4 1_555 1_555
H30_4 C40_4 1_555 1_555
C41_4 N4_4 1_555 1_555
H31_4 C41_4 1_555 1_555
C42_4 C38_4 1_555 1_555
H32_4 C42_4 1_555 1_555
Zn11 N4_4 1_555 1_555
O27_2 C92_4 1_555 1_555
O20_4 Zn11 1_555 1_555
O21_4 C89_4 1_555 1_555
C88_4 H65_4 1_555 1_555
C89_4 C90_4 1_555 1_555
C90_4 C88_4 1_555 1_555
C92_4 O20_4 1_555 1_555
C97_4 C102_4 1_555 1_555
C102_4 O21_4 1_555 1_555
C103_4 C97_4 1_555 1_555
H74_4 C103_4 1_555 1_555
C105_4 C103_4 1_555 1_555
H76_4 C105_4 1_555 1_555
C106_4 C97_4 1_555 1_555
H77_4 C106_4 1_555 1_555
C107_4 C104_4 1_555 1_555
H78_4 C107_4 1_555 1_555
O30_2 Zn11 1_555 1_555
C39_4 C40_4 1_555 1_555
C41_4 C42_4 1_555 1_555
C90_4 C92_4 1_555 1_555
C104_4 C105_4 1_555 1_555
C106_4 C107_4 1_555 1_555
Zn8 O2_4 1_555 1_555
O25_2 C7_4 1_555 1_555
O2_4 C7_4 1_555 1_555
O3_4 C3_4 1_555 1_555
N2_4 Zn8 1_555 1_555
C2_4 H1_4 1_555 1_555
C3_4 C4_4 1_555 1_555
C4_4 C2_4 1_555 1_555
C7_4 C4_4 1_555 1_555
C9_4 C14_4 1_555 1_555
C12_4 N2_4 1_555 1_555
H4_4 C12_4 1_555 1_555
C14_4 C12_4 1_555 1_555
H6_4 C14_4 1_555 1_555
C17_4 C22_4 1_555 1_555
C22_4 O3_4 1_555 1_555
C23_4 C17_4 1_555 1_555
H14_4 C23_4 1_555 1_555
C24_4 H15_4 1_555 1_555
C25_4 C23_4 1_555 1_555
H16_4 C25_4 1_555 1_555
C26_4 C17_4 1_555 1_555
H17_4 C26_4 1_555 1_555
C27_4 C24_4 1_555 1_555
H18_4 C27_4 1_555 1_555
C36_4 N2_4 1_555 1_555
H27_4 C36_4 1_555 1_555
C37_4 C9_4 1_555 1_555
H28_4 C37_4 1_555 1_555
O29_2 Zn8 1_555 1_555
C24_4 C25_4 1_555 1_555
C26_4 C27_4 1_555 1_555
C36_4 C37_4 1_555 1_555
N3_4 C32_4 1_555 1_555
C32_4 H23_4 1_555 1_555
C33_4 C31_4 1_555 1_555
H24_4 C33_4 1_555 1_555
C34_4 N3_4 1_555 1_555
H25_4 C34_4 1_555 1_555
C35_4 C31_4 1_555 1_555
H26_4 C35_4 1_555 1_555
Zn5 N3_4 1_555 1_555
O28_2 C70_4 1_555 1_555
O30_2 C70_4 1_555 1_555
O15_4 C67_4 1_555 1_555
O32 C72_4 1_555 1_555
O17_4 Zn5 1_555 1_555
O18_4 C65_4 1_555 1_555
C65_4 C66_4 1_555 1_555
C66_4 H49_4 1_555 1_555
C67_4 C68_4 1_555 1_555
C68_4 C66_4 1_555 1_555
C69_4 C65_4 1_555 1_555
C70_4 C68_4 1_555 1_555
C71_4 C67_4 1_555 1_555
H50_4 C71_4 1_555 1_555
C72_4 O17_4 1_555 1_555
C73_4 H51_4 1_555 1_555
C74_4 C73_4 1_555 1_555
H52_4 C74_4 1_555 1_555
C75_4 C80_4 1_555 1_555
C76_4 C73_4 1_555 1_555
C77_4 C74_4 1_555 1_555
H53_4 C77_4 1_555 1_555
C78_4 C77_4 1_555 1_555
C79_4 C76_4 1_555 1_555
H55_4 C79_4 1_555 1_555
C80_4 O15_4 1_555 1_555
H56_4 C80_4 1_555 1_555
H57_4 C80_4 1_555 1_555
C81_4 C75_4 1_555 1_555
H58_4 C81_4 1_555 1_555
C82_4 H59_4 1_555 1_555
C83_4 C81_4 1_555 1_555
H60_4 C83_4 1_555 1_555
C84_4 C75_4 1_555 1_555
H61_4 C84_4 1_555 1_555
C85_4 C82_4 1_555 1_555
H62_4 C85_4 1_555 1_555
C86_4 O18_4 1_555 1_555
H63_4 C86_4 1_555 1_555
H64_4 C86_4 1_555 1_555
O31 C94_4 1_555 1_555
O23_4 Zn5 1_555 1_555
O24_4 C87_4 1_555 1_555
C91_4 C87_4 1_555 1_555
H66_4 C93_4 1_555 1_555
C94_4 O23_4 1_555 1_555
C95_4 H67_4 1_555 1_555
C96_4 C95_4 1_555 1_555
H68_4 C96_4 1_555 1_555
C98_4 C95_4 1_555 1_555
C99_4 C96_4 1_555 1_555
H69_4 C99_4 1_555 1_555
C100_4 C99_4 1_555 1_555
C101_4 C98_4 1_555 1_555
H71_4 C101_4 1_555 1_555
C108_4 O24_4 1_555 1_555
H79_4 C108_4 1_555 1_555
H80_4 C108_4 1_555 1_555
C32_4 C33_4 1_555 1_555
C34_4 C35_4 1_555 1_555
C69_4 C71_4 1_555 1_555
C69_4 C72_4 1_555 1_555
C76_4 C86_4 1_555 1_555
C78_4 C79_4 1_555 1_555
C82_4 C83_4 1_555 1_555
C84_4 C85_4 1_555 1_555
C91_4 C93_4 1_555 1_555
C91_4 C94_4 1_555 1_555
C98_4 C108_4 1_555 1_555
C100_4 C101_4 1_555 1_555
Zn6 O5_4 1_555 1_555
O33 C10_4 1_555 1_555
O5_4 C10_4 1_555 1_555
O6_4 C1_4 1_555 1_555
N1_4 Zn6 1_555 1_555
C5_4 C13_4 1_555 1_555
C6_4 C1_4 1_555 1_555
H2_4 C8_4 1_555 1_555
C10_4 C6_4 1_555 1_555
C11_4 N1_4 1_555 1_555
H3_4 C11_4 1_555 1_555
C13_4 C11_4 1_555 1_555
H5_4 C13_4 1_555 1_555
C15_4 H7_4 1_555 1_555
C16_4 C15_4 1_555 1_555
H8_4 C16_4 1_555 1_555
C18_4 C15_4 1_555 1_555
C19_4 C16_4 1_555 1_555
H9_4 C19_4 1_555 1_555
C20_4 C19_4 1_555 1_555
C21_4 C18_4 1_555 1_555
H11_4 C21_4 1_555 1_555
C28_4 O6_4 1_555 1_555
H19_4 C28_4 1_555 1_555
H20_4 C28_4 1_555 1_555
C29_4 N1_4 1_555 1_555
H21_4 C29_4 1_555 1_555
C30_4 C5_4 1_555 1_555
H22_4 C30_4 1_555 1_555
O26_2 C48_4 1_555 1_555
O29_2 C48_4 1_555 1_555
O9_4 C45_4 1_555 1_555
O34 C50_4 1_555 1_555
O11_4 Zn6 1_555 1_555
O12_4 C43_4 1_555 1_555
C43_4 C44_4 1_555 1_555
C44_4 H33_4 1_555 1_555
C45_4 C46_4 1_555 1_555
C46_4 C44_4 1_555 1_555
C47_4 C43_4 1_555 1_555
C48_4 C46_4 1_555 1_555
C49_4 C45_4 1_555 1_555
H34_4 C49_4 1_555 1_555
C50_4 O11_4 1_555 1_555
C51_4 H35_4 1_555 1_555
C52_4 C51_4 1_555 1_555
H36_4 C52_4 1_555 1_555
C53_4 C58_4 1_555 1_555
C54_4 C51_4 1_555 1_555
C55_4 C52_4 1_555 1_555
H37_4 C55_4 1_555 1_555
C56_4 C55_4 1_555 1_555
C57_4 C54_4 1_555 1_555
H39_4 C57_4 1_555 1_555
C58_4 O9_4 1_555 1_555
H40_4 C58_4 1_555 1_555
H41_4 C58_4 1_555 1_555
C59_4 C53_4 1_555 1_555
H42_4 C59_4 1_555 1_555
C61_4 C59_4 1_555 1_555
H44_4 C61_4 1_555 1_555
C62_4 C53_4 1_555 1_555
H45_4 C62_4 1_555 1_555
C63_4 C60_4 1_555 1_555
H46_4 C63_4 1_555 1_555
C64_4 O12_4 1_555 1_555
H47_4 C64_4 1_555 1_555
H48_4 C64_4 1_555 1_555
C6_4 C8_4 1_555 1_555
C18_4 C28_4 1_555 1_555
C20_4 C21_4 1_555 1_555
C29_4 C30_4 1_555 1_555
C47_4 C49_4 1_555 1_555
C47_4 C50_4 1_555 1_555
C54_4 C64_4 1_555 1_555
C56_4 C57_4 1_555 1_555
C60_4 C61_4 1_555 1_555
C62_4 C63_4 1_555 1_555

#END
