
###############################################################################
#
# This file contains modified crystal structure data generated from the
# MOF subset of the Cambridge Structural Database (CSD) v543 
# hosted by the Cambridge Crystallographic Data Centre (CCDC).
#
# This work is licensed under the Creative Commons
# Attribution-NonCommercial-ShareAlike 4.0 International License.
# To view a copy of this license, visit
# http://creativecommons.org/licenses/by-nc-sa/4.0/
# or send a letter to
# Creative Commons, PO Box 1866, Mountain View, CA 94042, USA.
#
# CIF created using the CSD Python API on 29 September 2022
# The structure has been converted into the P1 space group
# The structure has a 3D framework
# The original CSD entry USONEY is in the cubic crystal system
# The original CSD entry USONEY is in a Sohncke space group
# The framework has been calculated to contain at least 10.0% void space
# The void calculation uses a probe of radius 1.32A, grid spacing 0.4
# The framework is charged, counterions have been retained in the structure
#
###############################################################################

data_USONEY
_chemical_formula_moiety         '(C408 H288 O168 Zn36 6-)n'
_symmetry_cell_setting           triclinic
_symmetry_space_group_name_H-M   'P 1'
_symmetry_Int_Tables_number      1
_space_group_name_Hall           'P 1'
loop_
_symmetry_equiv_pos_site_id
_symmetry_equiv_pos_as_xyz
1 x,y,z
_cell_length_a                   28.8135(3)
_cell_length_b                   28.8135(3)
_cell_length_c                   28.8135(3)
_cell_angle_alpha                90
_cell_angle_beta                 90
_cell_angle_gamma                90
_cell_volume                     23921.5
loop_
_atom_site_label
_atom_site_type_symbol
_atom_site_fract_x
_atom_site_fract_y
_atom_site_fract_z
C64 C 0.0103(2) 0.6476(3) 0.4318(2)
O35 O 0.02804(15) 0.64532(17) 0.38683(16)
C71 C 0.0214(3) 0.6033(3) 0.4584(3)
H39 H 0.023890 0.674242 0.448044
O43 O 0.03980(15) 0.61597(18) 0.28996(17)
Zn20 Zn 0.09131(3) 0.65869(3) 0.375000
H45 H 0.051741 0.592570 0.449967
H46 H 0.020515 0.609516 0.491173
C78 C 0.01957(17) 0.82915(11) 0.53144(15)
C83 C 0.0824(3) 0.6095(2) 0.2906(2)
O51 O 0.10468(17) 0.72196(15) 0.36317(16)
O52 O 0.11014(17) 0.62237(16) 0.32123(18)
O53 O 0.12763(16) 0.63986(17) 0.42877(18)
C84 C 0.04702(15) 0.85715(14) 0.50334(14)
H50 H 0.020206 0.797083 0.527813
C85 C 0.0177(2) 0.92500(11) 0.54228(19)
C88 C 0.10364(15) 0.58668(15) 0.24904(18)
Zn22 Zn 0.12010(3) 0.76483(3) 0.41440(3)
C89 C 0.0778(2) 0.8380(2) 0.4668(2)
C90 C 0.04606(17) 0.90508(14) 0.50876(16)
H57 H 0.017017 0.957067 0.545911
C91 C 0.07580(17) 0.56080(11) 0.21934(18)
C92 C 0.15095(18) 0.59060(14) 0.2404(2)
O56 O 0.07546(17) 0.79351(15) 0.45863(16)
O57 O 0.10493(16) 0.86462(16) 0.44647(14)
H64 H 0.064424 0.923817 0.489963
C94 C 0.09526(15) 0.53885(19) 0.18104(16)
H65 H 0.044149 0.558165 0.225097
C95 C 0.1704(2) 0.56870(12) 0.2021(2)
H66 H 0.169576 0.607942 0.260304
Zn24 Zn 0.12045(3) 0.87955(3) 0.37955(3)
C96 C 0.00334(14) 0.45298(15) 0.14285(14)
C97 C 0.06496(15) 0.50884(17) 0.15093(15)
C98 C 0.14256(17) 0.5428(2) 0.17244(17)
H67 H 0.202058 0.571311 0.196381
C99 C 0.03144(15) 0.48043(17) 0.17085(11)
C100 C 0.00876(16) 0.45394(17) 0.09492(14)
C101 C 0.07038(17) 0.50979(18) 0.10300(16)
H68 H 0.155585 0.528107 0.146815
H69 H 0.027813 0.479794 0.202917
C102 C 0.04228(19) 0.4823(2) 0.07500(11)
H71 H 0.092809 0.528796 0.089676
H72 H 0.045911 0.482983 0.042933
Zn1 Zn 0.62045(3) 0.62045(3) 0.62045(3)
O1 O 0.55353(14) 0.60493(16) 0.63538(16)
O2 O 0.68829(14) 0.64201(15) 0.60649(15)
C1 C 0.5332(2) 0.5778(2) 0.6620(2)
Zn2 Zn 0.73517(3) 0.58560(3) 0.62010(3)
C2 C 0.5967(2) 0.7065(2) 0.6797(2)
O3 O 0.54137(16) 0.57546(17) 0.70649(15)
C3 C 0.49666(14) 0.54702(15) 0.64285(14)
O4 O 0.68693(16) 0.71687(16) 0.58526(18)
O5 O 0.60468(17) 0.77804(15) 0.63683(16)
O6 O 0.63403(18) 0.78980(15) 0.53996(17)
C4 C 0.6024(3) 0.7603(2) 0.6818(2)
C5 C 0.49124(16) 0.54606(17) 0.59492(14)
C6 C 0.46856(15) 0.51957(17) 0.67085(11)
Zn3 Zn 0.84131(3) 0.625000 0.59131(3)
C7 C 0.6405(2) 0.8324(3) 0.5406(2)
H1 H 0.575758 0.773890 0.698044
C8 C 0.6467(3) 0.7714(3) 0.7084(3)
H2 H 0.510037 0.564424 0.576183
C9 C 0.45772(19) 0.5177(2) 0.57500(11)
C10 C 0.43504(15) 0.49116(17) 0.65093(15)
H3 H 0.472187 0.520206 0.702917
O7 O 0.87763(16) 0.67877(18) 0.61014(17)
C11 C 0.66332(15) 0.85364(15) 0.49904(18)
H4 H 0.670050 0.748827 0.700978
H5 H 0.640484 0.770515 0.741173
H6 H 0.657430 0.801741 0.699967
H7 H 0.454089 0.517017 0.542933
C12 C 0.42962(17) 0.49021(18) 0.60300(16)
C13 C 0.40474(15) 0.46115(19) 0.68104(16)
C14 C 0.68920(11) 0.82580(17) 0.46934(18)
C15 C 0.65940(14) 0.90095(18) 0.4904(2)
H8 H 0.407191 0.471204 0.589676
C16 C 0.35744(17) 0.4572(2) 0.67244(17)
H9 H 0.691835 0.794149 0.475097
C17 C 0.68130(12) 0.9204(2) 0.4521(2)
H10 H 0.642058 0.919576 0.510304
H11 H 0.344415 0.471893 0.646815
H12 H 0.678689 0.952058 0.446381
O8 O 0.63538(16) 0.55353(14) 0.60493(16)
O9 O 0.60493(16) 0.63538(16) 0.55353(14)
O10 O 0.60649(15) 0.68829(14) 0.64201(15)
O11 O 0.64201(15) 0.60649(15) 0.68829(14)
C18 C 0.6620(2) 0.5332(2) 0.5778(2)
C19 C 0.5778(2) 0.6620(2) 0.5332(2)
Zn4 Zn 0.62010(3) 0.73517(3) 0.58560(3)
Zn5 Zn 0.58560(3) 0.62010(3) 0.73517(3)
O12 O 0.70649(15) 0.54137(16) 0.57546(17)
C20 C 0.64285(14) 0.49666(14) 0.54702(15)
O13 O 0.57546(17) 0.70649(15) 0.54137(16)
C21 C 0.54702(15) 0.64285(14) 0.49666(14)
O14 O 0.58526(18) 0.68693(16) 0.71687(16)
C22 C 0.59492(14) 0.49124(16) 0.54606(17)
C23 C 0.67085(11) 0.46856(15) 0.51957(17)
C24 C 0.54606(17) 0.59492(14) 0.49124(16)
C25 C 0.51957(17) 0.67085(11) 0.46856(15)
Zn6 Zn 0.59131(3) 0.84131(3) 0.625000
H13 H 0.576183 0.510037 0.564424
C26 C 0.57500(11) 0.45772(19) 0.5177(2)
C27 C 0.65093(15) 0.43504(15) 0.49116(17)
H14 H 0.702917 0.472187 0.520206
H15 H 0.564424 0.576183 0.510037
C28 C 0.5177(2) 0.57500(11) 0.45772(19)
C29 C 0.49116(17) 0.65093(15) 0.43504(15)
H16 H 0.520206 0.702917 0.472187
O15 O 0.85468(17) 0.61317(16) 0.52804(15)
O16 O 0.62763(16) 0.86014(17) 0.57123(18)
H17 H 0.542933 0.454089 0.517017
C30 C 0.60300(16) 0.42962(17) 0.49021(18)
C31 C 0.68104(16) 0.40474(15) 0.46115(19)
H18 H 0.517017 0.542933 0.454089
C32 C 0.49021(18) 0.60300(16) 0.42962(17)
C33 C 0.46115(19) 0.68104(16) 0.40474(15)
Zn7 Zn 0.87010(3) 0.66440(3) 0.48517(3)
C34 C 0.8524(3) 0.5682(2) 0.5103(2)
C35 C 0.8905(2) 0.7094(2) 0.5824(3)
C36 C 0.42420(17) 0.43920(11) 0.71934(18)
H19 H 0.589676 0.407191 0.471204
C37 C 0.67244(17) 0.35744(17) 0.4572(2)
C38 C 0.71934(18) 0.42420(17) 0.43920(11)
H20 H 0.471204 0.589676 0.407191
C39 C 0.4572(2) 0.67244(17) 0.35744(17)
C40 C 0.43920(11) 0.71934(18) 0.42420(17)
O17 O 0.82546(17) 0.70863(16) 0.45649(15)
O18 O 0.85649(15) 0.60799(15) 0.43829(14)
O19 O 0.93693(16) 0.66474(18) 0.46687(16)
O20 O 0.88403(18) 0.71004(17) 0.53980(15)
C41 C 0.8467(2) 0.5703(2) 0.4565(2)
C42 C 0.8967(3) 0.5416(3) 0.5214(3)
H21 H 0.825758 0.551956 0.523890
C43 C 0.91332(15) 0.75096(18) 0.60364(15)
C44 C 0.71115(19) 0.84526(15) 0.43104(16)
C45 C 0.3296(2) 0.43130(12) 0.7021(2)
C46 C 0.39636(15) 0.41332(15) 0.74904(18)
H22 H 0.455851 0.441835 0.725097
H23 H 0.646815 0.344415 0.471893
C47 C 0.7021(2) 0.3296(2) 0.43130(12)
C48 C 0.74904(18) 0.39636(15) 0.41332(15)
H24 H 0.725097 0.455851 0.441835
H25 H 0.471893 0.646815 0.344415
C49 C 0.43130(12) 0.7021(2) 0.3296(2)
C50 C 0.41332(15) 0.74904(18) 0.39636(15)
H26 H 0.441835 0.725097 0.455851
C51 C 0.8278(2) 0.7168(2) 0.4120(2)
Zn8 Zn 0.87045(3) 0.62955(3) 0.37045(3)
C52 C 0.9565(2) 0.6533(2) 0.4297(2)
O21 O 0.83526(18) 0.53313(16) 0.43693(16)
H27 H 0.920050 0.549022 0.498827
H28 H 0.907430 0.550033 0.551741
H29 H 0.890484 0.508827 0.520515
C53 C 0.93920(11) 0.78066(18) 0.57580(17)
C54 C 0.90940(14) 0.7596(2) 0.65095(18)
Zn9 Zn 0.37045(3) 0.87045(3) 0.62955(3)
O22 O 0.43693(16) 0.83526(18) 0.53313(16)
C55 C 0.74116(17) 0.81496(15) 0.40093(15)
C56 C 0.7072(2) 0.89256(17) 0.42244(17)
Zn10 Zn 0.62955(3) 0.37045(3) 0.87045(3)
O23 O 0.53313(16) 0.43693(16) 0.83526(18)
H30 H 0.297942 0.428689 0.696381
C57 C 0.34905(18) 0.40940(14) 0.7404(2)
C58 C 0.4176(3) 0.3905(2) 0.7906(2)
H31 H 0.696381 0.297942 0.428689
C59 C 0.7404(2) 0.34905(18) 0.40940(14)
C60 C 0.7906(2) 0.4176(3) 0.3905(2)
H32 H 0.428689 0.696381 0.297942
C61 C 0.40940(14) 0.7404(2) 0.34905(18)
C62 C 0.3905(2) 0.7906(2) 0.4176(3)
C63 C 0.79702(15) 0.75334(14) 0.39285(14)
O24 O 0.85493(16) 0.69647(14) 0.38538(16)
O25 O 0.89201(15) 0.56171(14) 0.35649(15)
O26 O 0.93829(14) 0.64351(15) 0.39201(15)
Zn11 Zn 0.83560(3) 0.51483(3) 0.37010(3)
C65 C 0.96115(19) 0.81896(16) 0.59526(15)
H33 H 0.941835 0.774903 0.544149
C66 C 0.93130(12) 0.7979(2) 0.6704(2)
H34 H 0.892058 0.739696 0.669576
O27 O 0.35649(15) 0.89201(15) 0.56171(14)
Zn12 Zn 0.37010(3) 0.83560(3) 0.51483(3)
C67 C 0.76957(17) 0.78144(15) 0.42085(11)
C68 C 0.74021(18) 0.82038(17) 0.35300(16)
H35 H 0.721893 0.905585 0.396815
O28 O 0.56171(14) 0.35649(15) 0.89201(15)
Zn13 Zn 0.51483(3) 0.37010(3) 0.83560(3)
H36 H 0.330424 0.392058 0.760304
O29 O 0.38986(17) 0.37763(16) 0.82123(18)
O30 O 0.46020(15) 0.38403(18) 0.78996(17)
H37 H 0.760304 0.330424 0.392058
O31 O 0.82123(18) 0.38986(17) 0.37763(16)
O32 O 0.78996(17) 0.46020(15) 0.38403(18)
H38 H 0.392058 0.760304 0.330424
O33 O 0.37763(16) 0.82123(18) 0.38986(17)
O34 O 0.38403(18) 0.78996(17) 0.46020(15)
C69 C 0.79606(17) 0.75876(16) 0.34492(14)
C70 C 0.9297(2) 0.5435(2) 0.3467(2)
Zn14 Zn 0.98517(3) 0.62990(3) 0.33560(3)
O36 O 0.88683(16) 0.47196(15) 0.35468(17)
O37 O 0.79137(16) 0.54351(15) 0.32546(17)
C72 C 0.99116(17) 0.84907(15) 0.56496(15)
C73 C 0.9572(2) 0.82756(17) 0.64256(17)
H40 H 0.928689 0.803619 0.702058
C74 C 0.3467(2) 0.9297(2) 0.5435(2)
Zn15 Zn 0.33560(3) 0.98517(3) 0.62990(3)
O38 O 0.35468(17) 0.88683(16) 0.47196(15)
O39 O 0.32546(17) 0.79137(16) 0.54351(15)
H41 H 0.770206 0.777813 0.452917
C75 C 0.7677(2) 0.79228(19) 0.32500(11)
H42 H 0.721204 0.842809 0.339676
C76 C 0.5435(2) 0.3467(2) 0.9297(2)
Zn16 Zn 0.62990(3) 0.33560(3) 0.98517(3)
O40 O 0.47196(15) 0.35468(17) 0.88683(16)
O41 O 0.54351(15) 0.32546(17) 0.79137(16)
Zn17 Zn 0.40869(3) 0.34131(3) 0.875000
Zn18 Zn 0.875000 0.40869(3) 0.34131(3)
Zn19 Zn 0.34131(3) 0.875000 0.40869(3)
H43 H 0.814424 0.739963 0.326183
C77 C 0.9318(2) 0.4897(2) 0.3524(3)
O42 O 0.96687(16) 0.56307(16) 0.33526(18)
O44 O 0.95649(15) 0.67454(17) 0.29137(16)
H44 H 0.998827 0.579950 0.450978
C79 C 0.99021(18) 0.89700(16) 0.57038(17)
H47 H 0.971893 0.853185 0.655585
C80 C 0.3524(3) 0.9318(2) 0.4897(2)
O45 O 0.33526(18) 0.96687(16) 0.56307(16)
H48 H 0.767017 0.795911 0.292933
C81 C 0.4897(2) 0.3524(3) 0.9318(2)
O46 O 0.56307(16) 0.33526(18) 0.96687(16)
O47 O 0.39532(17) 0.27804(15) 0.86317(16)
O48 O 0.37237(16) 0.36014(17) 0.92877(18)
O49 O 0.86317(16) 0.39532(17) 0.27804(15)
O50 O 0.92877(18) 0.37237(16) 0.36014(17)
H49 H 0.948044 0.476110 0.325758
C82 C 0.9584(3) 0.4786(3) 0.3967(3)
H51 H 0.971204 0.910324 0.592809
H52 H 0.325758 0.948044 0.476110
C86 C 0.3967(3) 0.9584(3) 0.4786(3)
H53 H 0.476110 0.325758 0.948044
C87 C 0.4786(3) 0.3967(3) 0.9584(3)
Zn21 Zn 0.91440(3) 0.37990(3) 0.23517(3)
H54 H 0.950978 0.501173 0.420050
H55 H 0.991173 0.479485 0.390484
H56 H 0.949967 0.448259 0.407430
H58 H 0.420050 0.950978 0.501173
H59 H 0.390484 0.991173 0.479485
H60 H 0.407430 0.949967 0.448259
H61 H 0.501173 0.420050 0.950978
H62 H 0.479485 0.390484 0.991173
H63 H 0.448259 0.407430 0.949967
O54 O 0.85799(15) 0.39351(15) 0.18829(14)
O55 O 0.95863(16) 0.42454(17) 0.20649(15)
Zn23 Zn 0.87955(3) 0.37955(3) 0.12045(3)
C93 C 0.9668(2) 0.4222(2) 0.1620(2)
O58 O 0.81171(14) 0.35799(15) 0.10649(15)
O59 O 0.86462(16) 0.44647(14) 0.10493(16)
O60 O 0.94647(14) 0.39507(16) 0.13538(16)
O61 O 0.89351(15) 0.31171(14) 0.14201(15)
O62 O 0.89507(16) 0.36462(16) 0.05353(14)
H70 H 0.989963 0.435576 0.076183
Zn9_2 Zn 0.12955(3) 0.12955(3) 0.12955(3)
O22_2 O 0.06307(16) 0.16474(18) 0.03313(16)
O27_2 O 0.14351(15) 0.10799(15) 0.06171(14)
Zn12_2 Zn 0.12990(3) 0.16440(3) 0.01483(3)
C74_2 C 0.1533(2) 0.0703(2) 0.0435(2)
Zn15_2 Zn 0.16440(3) 0.01483(3) 0.12990(3)
O39_2 O 0.17454(17) 0.20863(16) 0.04351(15)
O45_2 O 0.16474(18) 0.03313(16) 0.06307(16)
H58_2 H 0.079950 0.049022 0.001173
C29_2 C 0.00884(17) 0.34907(15) 0.93504(15)
C32_2 C 0.00979(18) 0.39700(16) 0.92962(17)
C33_2 C 0.03885(19) 0.31896(16) 0.90474(15)
H20_2 H 0.028796 0.410324 0.907191
C39_2 C 0.0428(2) 0.32756(17) 0.85744(17)
C40_2 C 0.06080(11) 0.28066(18) 0.92420(17)
H25_2 H 0.028107 0.353185 0.844415
C49_2 C 0.06870(12) 0.2979(2) 0.8296(2)
C50_2 C 0.08668(15) 0.25096(18) 0.89636(15)
H26_2 H 0.058165 0.274903 0.955851
H32_2 H 0.071311 0.303619 0.797942
C61_2 C 0.09060(14) 0.2596(2) 0.84905(18)
C62_2 C 0.1095(2) 0.2094(2) 0.9176(3)
H38_2 H 0.107942 0.239696 0.830424
O33_2 O 0.12237(16) 0.17877(18) 0.88986(17)
O34_2 O 0.11597(18) 0.21004(17) 0.96020(15)
O38_2 O 0.14532(17) 0.11317(16) 0.97196(15)
Zn19_2 Zn 0.15869(3) 0.125000 0.90869(3)
C80_2 C 0.1476(3) 0.0682(2) 0.9897(2)
H52_2 H 0.174242 0.051956 0.976110
C86_2 C 0.1033(3) 0.0416(3) 0.9786(3)
H59_2 H 0.109516 0.008827 0.979485
H60_2 H 0.092570 0.050033 0.948259
Zn2_2 Zn 0.76483(3) 0.41440(3) 0.12010(3)
C2_2 C 0.9033(2) 0.2935(2) 0.1797(2)
O4_2 O 0.81307(16) 0.28313(16) 0.08526(18)
O5_2 O 0.89532(17) 0.22196(15) 0.13683(16)
O6_2 O 0.86597(18) 0.21020(15) 0.03996(17)
C4_2 C 0.8976(3) 0.2397(2) 0.1818(2)
Zn3_2 Zn 0.65869(3) 0.375000 0.09131(3)
C7_2 C 0.8595(2) 0.1676(3) 0.0406(2)
H1_2 H 0.924242 0.226110 0.198044
C8_2 C 0.8533(3) 0.2286(3) 0.2084(3)
O7_2 O 0.62237(16) 0.32123(18) 0.11014(17)
H4_2 H 0.829950 0.251173 0.200978
H5_2 H 0.859516 0.229485 0.241173
H6_2 H 0.842570 0.198259 0.199967
H10_2 H 0.857942 0.080424 0.010304
C18_2 C 0.8380(2) 0.4668(2) 0.0778(2)
C19_2 C 0.9222(2) 0.3380(2) 0.0332(2)
Zn4_2 Zn 0.87990(3) 0.26483(3) 0.08560(3)
O12_2 O 0.79351(15) 0.45863(16) 0.07546(17)
C20_2 C 0.85715(14) 0.50334(14) 0.04702(15)
O13_2 O 0.92454(17) 0.29351(15) 0.04137(16)
O14_2 O 0.91474(18) 0.31307(16) 0.21687(16)
C22_2 C 0.90508(14) 0.50876(16) 0.04606(17)
C23_2 C 0.82915(11) 0.53144(15) 0.01957(17)
Zn6_2 Zn 0.90869(3) 0.15869(3) 0.125000
H13_2 H 0.923817 0.489963 0.064424
C26_2 C 0.92500(11) 0.54228(19) 0.0177(2)
H14_2 H 0.797083 0.527813 0.020206
H15_2 H 0.935576 0.423817 0.010037
O15_2 O 0.64532(17) 0.38683(16) 0.02804(15)
O16_2 O 0.87237(16) 0.13986(17) 0.07123(18)
H17_2 H 0.957067 0.545911 0.017017
C34_2 C 0.6476(3) 0.4318(2) 0.0103(2)
C35_2 C 0.6095(2) 0.2906(2) 0.0824(3)
O20_2 O 0.61597(18) 0.28996(17) 0.03980(15)
C42_2 C 0.6033(3) 0.4584(3) 0.0214(3)
H21_2 H 0.674242 0.448044 0.023890
C43_2 C 0.58668(15) 0.24904(18) 0.10364(15)
H28_2 H 0.592570 0.449967 0.051741
H29_2 H 0.609516 0.491173 0.020515
C53_2 C 0.56080(11) 0.21934(18) 0.07580(17)
C54_2 C 0.59060(14) 0.2404(2) 0.15095(18)
C65_2 C 0.53885(19) 0.18104(16) 0.09526(15)
H33_2 H 0.558165 0.225097 0.044149
C66_2 C 0.56870(12) 0.2021(2) 0.1704(2)
H34_2 H 0.607942 0.260304 0.169576
C72_2 C 0.50884(17) 0.15093(15) 0.06496(15)
C73_2 C 0.5428(2) 0.17244(17) 0.14256(17)
H40_2 H 0.571311 0.196381 0.202058
C78_2 C 0.48043(17) 0.17085(11) 0.03144(15)
C79_2 C 0.50979(18) 0.10300(16) 0.07038(17)
H47_2 H 0.528107 0.146815 0.155585
C84_2 C 0.45298(15) 0.14285(14) 0.00334(14)
H50_2 H 0.479794 0.202917 0.027813
C85_2 C 0.4823(2) 0.07500(11) 0.04228(19)
H51_2 H 0.528796 0.089676 0.092809
C90_2 C 0.45394(17) 0.09492(14) 0.00876(16)
H57_2 H 0.482983 0.042933 0.045911
C11_2 C 0.83668(15) 0.14636(15) 0.99904(18)
C14_2 C 0.81080(11) 0.17420(17) 0.96934(18)
C15_2 C 0.84060(14) 0.09905(18) 0.9904(2)
H9_2 H 0.808165 0.205851 0.975097
C17_2 C 0.81870(12) 0.0796(2) 0.9521(2)
H12_2 H 0.821311 0.047942 0.946381
C21_2 C 0.95298(15) 0.35715(14) 0.99666(14)
C24_2 C 0.95394(17) 0.40508(14) 0.99124(16)
C25_2 C 0.98043(17) 0.32915(11) 0.96856(15)
C27_2 C 0.84907(15) 0.56496(15) 0.99116(17)
C28_2 C 0.9823(2) 0.42500(11) 0.95772(19)
H16_2 H 0.979794 0.297083 0.972187
C30_2 C 0.89700(16) 0.57038(17) 0.99021(18)
C31_2 C 0.81896(16) 0.59526(15) 0.96115(19)
H18_2 H 0.982983 0.457067 0.954089
H19_2 H 0.910324 0.592809 0.971204
C37_2 C 0.82756(17) 0.64256(17) 0.9572(2)
C38_2 C 0.78066(18) 0.57580(17) 0.93920(11)
O17_2 O 0.67454(17) 0.29137(16) 0.95649(15)
O18_2 O 0.64351(15) 0.39201(15) 0.93829(14)
C41_2 C 0.6533(2) 0.4297(2) 0.9565(2)
C44_2 C 0.78885(19) 0.15474(15) 0.93104(16)
H23_2 H 0.853185 0.655585 0.971893
C47_2 C 0.7979(2) 0.6704(2) 0.93130(12)
C48_2 C 0.75096(18) 0.60364(15) 0.91332(15)
H24_2 H 0.774903 0.544149 0.941835
C51_2 C 0.6722(2) 0.2832(2) 0.9120(2)
O21_2 O 0.66474(18) 0.46687(16) 0.93693(16)
H27_2 H 0.579950 0.450978 0.998827
C55_2 C 0.75884(17) 0.18504(15) 0.90093(15)
C56_2 C 0.7928(2) 0.10744(17) 0.92244(17)
H31_2 H 0.803619 0.702058 0.928689
C59_2 C 0.7596(2) 0.65095(18) 0.90940(14)
C60_2 C 0.7094(2) 0.5824(3) 0.8905(2)
C63_2 C 0.70298(15) 0.24666(14) 0.89285(14)
O24_2 O 0.64507(16) 0.30353(14) 0.88538(16)
O25_2 O 0.60799(15) 0.43829(14) 0.85649(15)
Zn11_2 Zn 0.66440(3) 0.48517(3) 0.87010(3)
C67_2 C 0.73043(17) 0.21856(15) 0.92085(11)
C68_2 C 0.75979(18) 0.17962(17) 0.85300(16)
H35_2 H 0.778107 0.094415 0.896815
H37_2 H 0.739696 0.669576 0.892058
O31_2 O 0.67877(18) 0.61014(17) 0.87763(16)
O32_2 O 0.71004(17) 0.53980(15) 0.88403(18)
C69_2 C 0.70394(17) 0.24124(16) 0.84492(14)
C70_2 C 0.5703(2) 0.4565(2) 0.8467(2)
O36_2 O 0.61317(16) 0.52804(15) 0.85468(17)
O37_2 O 0.70863(16) 0.45649(15) 0.82546(17)
H41_2 H 0.729794 0.222187 0.952917
C75_2 C 0.7323(2) 0.20772(19) 0.82500(11)
H42_2 H 0.778796 0.157191 0.839676
Zn18_2 Zn 0.625000 0.59131(3) 0.84131(3)
H43_2 H 0.685576 0.260037 0.826183
C77_2 C 0.5682(2) 0.5103(2) 0.8524(3)
H48_2 H 0.732983 0.204089 0.792933
O49_2 O 0.63683(16) 0.60468(17) 0.77804(15)
O50_2 O 0.57123(18) 0.62763(16) 0.86014(17)
H49_2 H 0.551956 0.523890 0.825758
C82_2 C 0.5416(3) 0.5214(3) 0.8967(3)
H54_2 H 0.549022 0.498827 0.920050
H55_2 H 0.508827 0.520515 0.890484
H56_2 H 0.550033 0.551741 0.907430
Zn22_2 Zn 0.37990(3) 0.23517(3) 0.91440(3)
C89_2 C 0.4222(2) 0.1620(2) 0.9668(2)
O56_2 O 0.42454(17) 0.20649(15) 0.95863(16)
O57_2 O 0.39507(16) 0.13538(16) 0.94647(14)
H64_2 H 0.435576 0.076183 0.989963
Zn24_2 Zn 0.37955(3) 0.12045(3) 0.87955(3)
C11_3 C 0.33668(15) 0.35364(15) 0.00096(18)
C14_3 C 0.31080(11) 0.32580(17) 0.03066(18)
C15_3 C 0.34060(14) 0.40095(18) 0.0096(2)
H9_3 H 0.308165 0.294149 0.024903
C17_3 C 0.31870(12) 0.4204(2) 0.0479(2)
H12_3 H 0.321311 0.452058 0.053619
C44_3 C 0.28885(19) 0.34526(15) 0.06896(16)
C51_3 C 0.1722(2) 0.2168(2) 0.0880(2)
C52_2 C 0.0435(2) 0.1533(2) 0.0703(2)
C55_3 C 0.25884(17) 0.31496(15) 0.09907(15)
C56_3 C 0.2928(2) 0.39256(17) 0.07756(17)
C63_3 C 0.20298(15) 0.25334(14) 0.10715(14)
O24_3 O 0.14507(16) 0.19647(14) 0.11462(16)
O25_3 O 0.10799(15) 0.06171(14) 0.14351(15)
O26_2 O 0.06171(14) 0.14351(15) 0.10799(15)
C67_3 C 0.23043(17) 0.28144(15) 0.07915(11)
C68_3 C 0.25979(18) 0.32038(17) 0.14700(16)
H35_3 H 0.278107 0.405585 0.103185
C69_3 C 0.20394(17) 0.25876(16) 0.15508(14)
C70_3 C 0.0703(2) 0.0435(2) 0.1533(2)
Zn14_2 Zn 0.01483(3) 0.12990(3) 0.16440(3)
O37_3 O 0.20863(16) 0.04351(15) 0.17454(17)
H41_3 H 0.229794 0.277813 0.047083
C75_3 C 0.2323(2) 0.29228(19) 0.17500(11)
H42_3 H 0.278796 0.342809 0.160324
H43_3 H 0.185576 0.239963 0.173817
O42_2 O 0.03313(16) 0.06307(16) 0.16474(18)
O44_2 O 0.04351(15) 0.17454(17) 0.20863(16)
H44_2 H 0.001173 0.079950 0.049022
H48_3 H 0.232983 0.295911 0.207067
H54_3 H 0.049022 0.001173 0.079950
O1_2 O 0.44647(14) 0.10493(16) 0.86462(16)
O2_2 O 0.31171(14) 0.14201(15) 0.89351(15)
C1_2 C 0.4668(2) 0.0778(2) 0.8380(2)
Zn2_3 Zn 0.26483(3) 0.08560(3) 0.87990(3)
C2_3 C 0.4033(2) 0.2065(2) 0.8203(2)
O3_2 O 0.45863(16) 0.07546(17) 0.79351(15)
C3_2 C 0.50334(14) 0.04702(15) 0.85715(14)
O4_3 O 0.31307(16) 0.21687(16) 0.91474(18)
O6_3 O 0.36597(18) 0.28980(15) 0.96004(17)
C4_3 C 0.3976(3) 0.2603(2) 0.8182(2)
C5_2 C 0.50876(16) 0.04606(17) 0.90508(14)
C6_2 C 0.53144(15) 0.01957(17) 0.82915(11)
C7_3 C 0.3595(2) 0.3324(3) 0.9594(2)
H1_3 H 0.424242 0.273890 0.801956
C8_3 C 0.3533(3) 0.2714(3) 0.7916(3)
H2_2 H 0.489963 0.064424 0.923817
C9_2 C 0.54228(19) 0.0177(2) 0.92500(11)
H3_2 H 0.527813 0.020206 0.797083
H4_3 H 0.329950 0.248827 0.799022
H5_3 H 0.359516 0.270515 0.758827
H6_3 H 0.342570 0.301741 0.800033
H7_2 H 0.545911 0.017017 0.957067
H10_3 H 0.357942 0.419576 0.989696
O8_2 O 0.36462(16) 0.05353(14) 0.89507(16)
O10_2 O 0.39351(15) 0.18829(14) 0.85799(15)
O11_2 O 0.35799(15) 0.10649(15) 0.81171(14)
C18_3 C 0.3380(2) 0.0332(2) 0.9222(2)
Zn5_2 Zn 0.41440(3) 0.12010(3) 0.76483(3)
O12_3 O 0.29351(15) 0.04137(16) 0.92454(17)
O14_3 O 0.41474(18) 0.18693(16) 0.78313(16)
H13_3 H 0.423817 0.010037 0.935576
C27_3 C 0.34907(15) 0.93504(15) 0.00884(17)
C30_3 C 0.39700(16) 0.92962(17) 0.00979(18)
C31_3 C 0.31896(16) 0.90474(15) 0.03885(19)
H19_3 H 0.410324 0.907191 0.028796
C37_3 C 0.32756(17) 0.85744(17) 0.0428(2)
C38_3 C 0.28066(18) 0.92420(17) 0.06080(11)
H23_3 H 0.353185 0.844415 0.028107
C47_3 C 0.2979(2) 0.8296(2) 0.06870(12)
C48_3 C 0.25096(18) 0.89636(15) 0.08668(15)
H24_3 H 0.274903 0.955851 0.058165
H31_3 H 0.303619 0.797942 0.071311
C59_3 C 0.2596(2) 0.84905(18) 0.09060(14)
C60_3 C 0.2094(2) 0.9176(3) 0.1095(2)
H37_3 H 0.239696 0.830424 0.107942
O31_3 O 0.17877(18) 0.88986(17) 0.12237(16)
O32_3 O 0.21004(17) 0.96020(15) 0.11597(18)
O36_3 O 0.11317(16) 0.97196(15) 0.14532(17)
Zn18_3 Zn 0.125000 0.90869(3) 0.15869(3)
C77_3 C 0.0682(2) 0.9897(2) 0.1476(3)
O49_3 O 0.13683(16) 0.89532(17) 0.22196(15)
O50_3 O 0.07123(18) 0.87237(16) 0.13986(17)
H49_3 H 0.051956 0.976110 0.174242
C82_3 C 0.0416(3) 0.9786(3) 0.1033(3)
Zn21_2 Zn 0.08560(3) 0.87990(3) 0.26483(3)
H55_3 H 0.008827 0.979485 0.109516
H56_3 H 0.050033 0.948259 0.092570
O54_2 O 0.14201(15) 0.89351(15) 0.31171(14)
O55_2 O 0.04137(16) 0.92454(17) 0.29351(15)
C93_2 C 0.0332(2) 0.9222(2) 0.3380(2)
O58_2 O 0.18829(14) 0.85799(15) 0.39351(15)
O59_2 O 0.13538(16) 0.94647(14) 0.39507(16)
O60_2 O 0.05353(14) 0.89507(16) 0.36462(16)
O61_2 O 0.10649(15) 0.81171(14) 0.35799(15)
H70_2 H 0.010037 0.935576 0.423817
C10_2 C 0.56496(15) 0.99116(17) 0.84907(15)
C12_2 C 0.57038(17) 0.99021(18) 0.89700(16)
C13_2 C 0.59526(15) 0.96115(19) 0.81896(16)
H8_2 H 0.592809 0.971204 0.910324
C16_2 C 0.64256(17) 0.9572(2) 0.82756(17)
H11_2 H 0.655585 0.971893 0.853185
C20_3 C 0.35715(14) 0.99666(14) 0.95298(15)
C22_3 C 0.40508(14) 0.99124(16) 0.95394(17)
C23_3 C 0.32915(11) 0.96856(15) 0.98043(17)
C26_3 C 0.42500(11) 0.95772(19) 0.9823(2)
H14_3 H 0.297083 0.972187 0.979794
H17_3 H 0.457067 0.954089 0.982983
C36_2 C 0.57580(17) 0.93920(11) 0.78066(18)
C45_2 C 0.6704(2) 0.93130(12) 0.7979(2)
C46_2 C 0.60364(15) 0.91332(15) 0.75096(18)
H22_2 H 0.544149 0.941835 0.774903
O23_2 O 0.46687(16) 0.93693(16) 0.66474(18)
H30_2 H 0.702058 0.928689 0.803619
C57_2 C 0.65095(18) 0.90940(14) 0.7596(2)
C58_2 C 0.5824(3) 0.8905(2) 0.7094(2)
O28_2 O 0.43829(14) 0.85649(15) 0.60799(15)
Zn13_2 Zn 0.48517(3) 0.87010(3) 0.66440(3)
H36_2 H 0.669576 0.892058 0.739696
O29_2 O 0.61014(17) 0.87763(16) 0.67877(18)
O30_2 O 0.53980(15) 0.88403(18) 0.71004(17)
C76_2 C 0.4565(2) 0.8467(2) 0.5703(2)
O40_2 O 0.52804(15) 0.85468(17) 0.61317(16)
O41_2 O 0.45649(15) 0.82546(17) 0.70863(16)
C81_2 C 0.5103(2) 0.8524(3) 0.5682(2)
H53_2 H 0.523890 0.825758 0.551956
C87_2 C 0.5214(3) 0.8967(3) 0.5416(3)
H61_2 H 0.498827 0.920050 0.549022
H62_2 H 0.520515 0.890484 0.508827
H63_2 H 0.551741 0.907430 0.550033
C64_2 C 0.9897(2) 0.1476(3) 0.0682(2)
O35_2 O 0.97196(15) 0.14532(17) 0.11317(16)
C71_2 C 0.9786(3) 0.1033(3) 0.0416(3)
H39_2 H 0.976110 0.174242 0.051956
O43_2 O 0.96020(15) 0.11597(18) 0.21004(17)
H45_2 H 0.948259 0.092570 0.050033
H46_2 H 0.979485 0.109516 0.008827
C83_2 C 0.9176(3) 0.1095(2) 0.2094(2)
O52_2 O 0.88986(17) 0.12237(16) 0.17877(18)
C88_2 C 0.89636(15) 0.08668(15) 0.25096(18)
C91_2 C 0.92420(17) 0.06080(11) 0.28066(18)
C92_2 C 0.84905(18) 0.09060(14) 0.2596(2)
C94_2 C 0.90474(15) 0.03885(19) 0.31896(16)
H65_2 H 0.955851 0.058165 0.274903
C95_2 C 0.8296(2) 0.06870(12) 0.2979(2)
H66_2 H 0.830424 0.107942 0.239696
C97_2 C 0.93504(15) 0.00884(17) 0.34907(15)
C98_2 C 0.85744(17) 0.0428(2) 0.32756(17)
H67_2 H 0.797942 0.071311 0.303619
C101_2 C 0.92962(17) 0.00979(18) 0.39700(16)
H68_2 H 0.844415 0.028107 0.353185
H71_2 H 0.907191 0.028796 0.410324
C96_2 C 0.99666(14) 0.95298(15) 0.35715(14)
C99_2 C 0.96856(15) 0.98043(17) 0.32915(11)
C100_2 C 0.99124(16) 0.95394(17) 0.40508(14)
H69_2 H 0.972187 0.979794 0.297083
C102_2 C 0.95772(19) 0.9823(2) 0.42500(11)
H72_2 H 0.954089 0.982983 0.457067
C20_4 C 0.14285(14) 0.00334(14) 0.45298(15)
C22_4 C 0.09492(14) 0.00876(16) 0.45394(17)
C23_4 C 0.17085(11) 0.03144(15) 0.48043(17)
C26_4 C 0.07500(11) 0.04228(19) 0.4823(2)
C27_4 C 0.15093(15) 0.06496(15) 0.50884(17)
H14_4 H 0.202917 0.027813 0.479794
H17_4 H 0.042933 0.045911 0.482983
C30_4 C 0.10300(16) 0.07038(17) 0.50979(18)
C31_4 C 0.18104(16) 0.09526(15) 0.53885(19)
H19_4 H 0.089676 0.092809 0.528796
C37_4 C 0.17244(17) 0.14256(17) 0.5428(2)
C38_4 C 0.21934(18) 0.07580(17) 0.56080(11)
H23_4 H 0.146815 0.155585 0.528107
C47_4 C 0.2021(2) 0.1704(2) 0.56870(12)
C48_4 C 0.24904(18) 0.10364(15) 0.58668(15)
H24_4 H 0.225097 0.044149 0.558165
H31_4 H 0.196381 0.202058 0.571311
C59_4 C 0.2404(2) 0.15095(18) 0.59060(14)
C60_4 C 0.2906(2) 0.0824(3) 0.6095(2)
H37_4 H 0.260304 0.169576 0.607942
O31_4 O 0.32123(18) 0.11014(17) 0.62237(16)
O32_4 O 0.28996(17) 0.03980(15) 0.61597(18)
O36_4 O 0.38683(16) 0.02804(15) 0.64532(17)
Zn18_4 Zn 0.375000 0.09131(3) 0.65869(3)
C77_4 C 0.4318(2) 0.0103(2) 0.6476(3)
O49_4 O 0.36317(16) 0.10468(17) 0.72196(15)
O50_4 O 0.42877(18) 0.12763(16) 0.63986(17)
H49_4 H 0.448044 0.023890 0.674242
C82_4 C 0.4584(3) 0.0214(3) 0.6033(3)
H55_4 H 0.491173 0.020515 0.609516
H56_4 H 0.449967 0.051741 0.592570
Zn2_4 Zn 0.23517(3) 0.91440(3) 0.37990(3)
C2_4 C 0.0967(2) 0.7935(2) 0.3203(2)
O4_4 O 0.18693(16) 0.78313(16) 0.41474(18)
O6_4 O 0.13403(18) 0.71020(15) 0.46004(17)
C4_4 C 0.1024(3) 0.7397(2) 0.3182(2)
C7_4 C 0.1405(2) 0.6676(3) 0.4594(2)
H1_4 H 0.075758 0.726110 0.301956
C8_4 C 0.1467(3) 0.7286(3) 0.2916(3)
C11_4 C 0.16332(15) 0.64636(15) 0.50096(18)
H4_4 H 0.170050 0.751173 0.299022
H5_4 H 0.140484 0.729485 0.258827
H6_4 H 0.157430 0.698259 0.300033
C14_4 C 0.18920(11) 0.67420(17) 0.53066(18)
C15_4 C 0.15940(14) 0.59905(18) 0.5096(2)
H9_4 H 0.191835 0.705851 0.524903
C17_4 C 0.18130(12) 0.5796(2) 0.5479(2)
H10_4 H 0.142058 0.580424 0.489696
H12_4 H 0.178689 0.547942 0.553619
C18_4 C 0.1620(2) 0.9668(2) 0.4222(2)
O12_4 O 0.20649(15) 0.95863(16) 0.42454(17)
O14_4 O 0.08526(18) 0.81307(16) 0.28313(16)
H13_4 H 0.076183 0.989963 0.435576
C44_4 C 0.21115(19) 0.65474(15) 0.56896(16)
C51_4 C 0.3278(2) 0.7832(2) 0.5880(2)
C55_4 C 0.24116(17) 0.68504(15) 0.59907(15)
C56_4 C 0.2072(2) 0.60744(17) 0.57756(17)
C63_4 C 0.29702(15) 0.74666(14) 0.60715(14)
O24_4 O 0.35493(16) 0.80353(14) 0.61462(16)
O25_4 O 0.39201(15) 0.93829(14) 0.64351(15)
C67_4 C 0.26957(17) 0.71856(15) 0.57915(11)
C68_4 C 0.24021(18) 0.67962(17) 0.64700(16)
H35_4 H 0.221893 0.594415 0.603185
C69_4 C 0.29606(17) 0.74124(16) 0.65508(14)
C70_4 C 0.4297(2) 0.9565(2) 0.6533(2)
O37_4 O 0.29137(16) 0.95649(15) 0.67454(17)
H41_4 H 0.270206 0.722187 0.547083
C75_4 C 0.2677(2) 0.70772(19) 0.67500(11)
H42_4 H 0.221204 0.657191 0.660324
H43_4 H 0.314424 0.760037 0.673817
H48_4 H 0.267017 0.704089 0.707067
H54_4 H 0.450978 0.998827 0.579950
C2_5 C 0.6797(2) 0.5967(2) 0.7065(2)
O6_5 O 0.53996(17) 0.63403(18) 0.78980(15)
C4_5 C 0.6818(2) 0.6024(3) 0.7603(2)
C7_5 C 0.5406(2) 0.6405(2) 0.8324(3)
H1_5 H 0.698044 0.575758 0.773890
C8_5 C 0.7084(3) 0.6467(3) 0.7714(3)
C11_5 C 0.49904(18) 0.66332(15) 0.85364(15)
H4_5 H 0.700978 0.670050 0.748827
H5_5 H 0.741173 0.640484 0.770515
H6_5 H 0.699967 0.657430 0.801741
C14_5 C 0.46934(18) 0.68920(11) 0.82580(17)
C15_5 C 0.4904(2) 0.65940(14) 0.90095(18)
H9_5 H 0.475097 0.691835 0.794149
C17_5 C 0.4521(2) 0.68130(12) 0.9204(2)
H10_5 H 0.510304 0.642058 0.919576
H12_5 H 0.446381 0.678689 0.952058
O14_5 O 0.71687(16) 0.58526(18) 0.68693(16)
C44_5 C 0.43104(16) 0.71115(19) 0.84526(15)
C51_5 C 0.4120(2) 0.8278(2) 0.7168(2)
C55_5 C 0.40093(15) 0.74116(17) 0.81496(15)
C56_5 C 0.42244(17) 0.7072(2) 0.89256(17)
C63_5 C 0.39285(14) 0.79702(15) 0.75334(14)
O24_5 O 0.38538(16) 0.85493(16) 0.69647(14)
C67_5 C 0.42085(11) 0.76957(17) 0.78144(15)
C68_5 C 0.35300(16) 0.74021(18) 0.82038(17)
H35_5 H 0.396815 0.721893 0.905585
C69_5 C 0.34492(14) 0.79606(17) 0.75876(16)
H41_5 H 0.452917 0.770206 0.777813
C75_5 C 0.32500(11) 0.7677(2) 0.79228(19)
H42_5 H 0.339676 0.721204 0.842809
H43_5 H 0.326183 0.814424 0.739963
H48_5 H 0.292933 0.767017 0.795911
O49_5 O 0.27804(15) 0.86317(16) 0.39532(17)
O50_5 O 0.36014(17) 0.92877(18) 0.37237(16)
C2_6 C 0.1797(2) 0.9033(2) 0.2935(2)
O6_6 O 0.03996(17) 0.86597(18) 0.21020(15)
C4_6 C 0.1818(2) 0.8976(3) 0.2397(2)
C7_6 C 0.0406(2) 0.8595(2) 0.1676(3)
H1_6 H 0.198044 0.924242 0.226110
C8_6 C 0.2084(3) 0.8533(3) 0.2286(3)
H4_6 H 0.200978 0.829950 0.251173
H5_6 H 0.241173 0.859516 0.229485
H6_6 H 0.199967 0.842570 0.198259
H10_6 H 0.010304 0.857942 0.080424
O14_6 O 0.21687(16) 0.91474(18) 0.31307(16)
C11_6 C 0.99904(18) 0.83668(15) 0.14636(15)
C14_6 C 0.96934(18) 0.81080(11) 0.17420(17)
C15_6 C 0.9904(2) 0.84060(14) 0.09905(18)
H9_6 H 0.975097 0.808165 0.205851
C17_6 C 0.9521(2) 0.81870(12) 0.0796(2)
H12_6 H 0.946381 0.821311 0.047942
C44_6 C 0.93104(16) 0.78885(19) 0.15474(15)
C51_6 C 0.9120(2) 0.6722(2) 0.2832(2)
C55_6 C 0.90093(15) 0.75884(17) 0.18504(15)
C56_6 C 0.92244(17) 0.7928(2) 0.10744(17)
C63_6 C 0.89285(14) 0.70298(15) 0.24666(14)
O24_6 O 0.88538(16) 0.64507(16) 0.30353(14)
C67_6 C 0.92085(11) 0.73043(17) 0.21856(15)
C68_6 C 0.85300(16) 0.75979(18) 0.17962(17)
H35_6 H 0.896815 0.778107 0.094415
C69_6 C 0.84492(14) 0.70394(17) 0.24124(16)
H41_6 H 0.952917 0.729794 0.222187
C75_6 C 0.82500(11) 0.7323(2) 0.20772(19)
H42_6 H 0.839676 0.778796 0.157191
H43_6 H 0.826183 0.685576 0.260037
H48_6 H 0.792933 0.732983 0.204089
O49_6 O 0.77804(15) 0.63683(16) 0.60468(17)
O50_6 O 0.86014(17) 0.57123(18) 0.62763(16)
C11_7 C 0.00096(18) 0.33668(15) 0.35364(15)
C14_7 C 0.03066(18) 0.31080(11) 0.32580(17)
C15_7 C 0.0096(2) 0.34060(14) 0.40095(18)
H9_7 H 0.024903 0.308165 0.294149
C17_7 C 0.0479(2) 0.31870(12) 0.4204(2)
H12_7 H 0.053619 0.321311 0.452058
C44_7 C 0.06896(16) 0.28885(19) 0.34526(15)
C51_7 C 0.0880(2) 0.1722(2) 0.2168(2)
C55_7 C 0.09907(15) 0.25884(17) 0.31496(15)
C56_7 C 0.07756(17) 0.2928(2) 0.39256(17)
C63_7 C 0.10715(14) 0.20298(15) 0.25334(14)
O24_7 O 0.11462(16) 0.14507(16) 0.19647(14)
C67_7 C 0.07915(11) 0.23043(17) 0.28144(15)
C68_7 C 0.14700(16) 0.25979(18) 0.32038(17)
H35_7 H 0.103185 0.278107 0.405585
C69_7 C 0.15508(14) 0.20394(17) 0.25876(16)
H41_7 H 0.047083 0.229794 0.277813
C75_7 C 0.17500(11) 0.2323(2) 0.29228(19)
H42_7 H 0.160324 0.278796 0.342809
H43_7 H 0.173817 0.185576 0.239963
H48_7 H 0.207067 0.232983 0.295911
O49_7 O 0.22196(15) 0.13683(16) 0.89532(17)
O50_7 O 0.13986(17) 0.07123(18) 0.87237(16)
C2_7 C 0.8203(2) 0.4033(2) 0.2065(2)
O6_7 O 0.96004(17) 0.36597(18) 0.28980(15)
C4_7 C 0.8182(2) 0.3976(3) 0.2603(2)
C7_7 C 0.9594(2) 0.3595(2) 0.3324(3)
H1_7 H 0.801956 0.424242 0.273890
C8_7 C 0.7916(3) 0.3533(3) 0.2714(3)
H4_7 H 0.799022 0.329950 0.248827
H5_7 H 0.758827 0.359516 0.270515
H6_7 H 0.800033 0.342570 0.301741
H10_7 H 0.989696 0.357942 0.419576
O14_7 O 0.78313(16) 0.41474(18) 0.18693(16)
O49_8 O 0.72196(15) 0.36317(16) 0.10468(17)
O50_8 O 0.63986(17) 0.42877(18) 0.12763(16)
C2_8 C 0.3203(2) 0.0967(2) 0.7935(2)
O6_8 O 0.46004(17) 0.13403(18) 0.71020(15)
C4_8 C 0.3182(2) 0.1024(3) 0.7397(2)
C7_8 C 0.4594(2) 0.1405(2) 0.6676(3)
H1_8 H 0.301956 0.075758 0.726110
C8_8 C 0.2916(3) 0.1467(3) 0.7286(3)
C11_8 C 0.50096(18) 0.16332(15) 0.64636(15)
H4_8 H 0.299022 0.170050 0.751173
H5_8 H 0.258827 0.140484 0.729485
H6_8 H 0.300033 0.157430 0.698259
C14_8 C 0.53066(18) 0.18920(11) 0.67420(17)
C15_8 C 0.5096(2) 0.15940(14) 0.59905(18)
H9_8 H 0.524903 0.191835 0.705851
C17_8 C 0.5479(2) 0.18130(12) 0.5796(2)
H10_8 H 0.489696 0.142058 0.580424
H12_8 H 0.553619 0.178689 0.547942
O14_8 O 0.28313(16) 0.08526(18) 0.81307(16)
C44_8 C 0.56896(16) 0.21115(19) 0.65474(15)
C51_8 C 0.5880(2) 0.3278(2) 0.7832(2)
C55_8 C 0.59907(15) 0.24116(17) 0.68504(15)
C56_8 C 0.57756(17) 0.2072(2) 0.60744(17)
C63_8 C 0.60715(14) 0.29702(15) 0.74666(14)
O24_8 O 0.61462(16) 0.35493(16) 0.80353(14)
C67_8 C 0.57915(11) 0.26957(17) 0.71856(15)
C68_8 C 0.64700(16) 0.24021(18) 0.67962(17)
H35_8 H 0.603185 0.221893 0.594415
C69_8 C 0.65508(14) 0.29606(17) 0.74124(16)
H41_8 H 0.547083 0.270206 0.722187
C75_8 C 0.67500(11) 0.2677(2) 0.70772(19)
H42_8 H 0.660324 0.221204 0.657191
H43_8 H 0.673817 0.314424 0.760037
H48_8 H 0.707067 0.267017 0.704089
C2_9 C 0.7065(2) 0.6797(2) 0.5967(2)
O6_9 O 0.78980(15) 0.53996(17) 0.63403(18)
C4_9 C 0.7603(2) 0.6818(2) 0.6024(3)
C7_9 C 0.8324(3) 0.5406(2) 0.6405(2)
H1_9 H 0.773890 0.698044 0.575758
C8_9 C 0.7714(3) 0.7084(3) 0.6467(3)
C11_9 C 0.85364(15) 0.49904(18) 0.66332(15)
H4_9 H 0.748827 0.700978 0.670050
H5_9 H 0.770515 0.741173 0.640484
H6_9 H 0.801741 0.699967 0.657430
C14_9 C 0.82580(17) 0.46934(18) 0.68920(11)
C15_9 C 0.90095(18) 0.4904(2) 0.65940(14)
H9_9 H 0.794149 0.475097 0.691835
C17_9 C 0.9204(2) 0.4521(2) 0.68130(12)
H10_9 H 0.919576 0.510304 0.642058
H12_9 H 0.952058 0.446381 0.678689
C44_9 C 0.84526(15) 0.43104(16) 0.71115(19)
C51_9 C 0.7168(2) 0.4120(2) 0.8278(2)
C55_9 C 0.81496(15) 0.40093(15) 0.74116(17)
C56_9 C 0.89256(17) 0.42244(17) 0.7072(2)
C63_9 C 0.75334(14) 0.39285(14) 0.79702(15)
O24_9 O 0.69647(14) 0.38538(16) 0.85493(16)
C67_9 C 0.78144(15) 0.42085(11) 0.76957(17)
C68_9 C 0.82038(17) 0.35300(16) 0.74021(18)
H35_9 H 0.905585 0.396815 0.721893
C69_9 C 0.75876(16) 0.34492(14) 0.79606(17)
H41_9 H 0.777813 0.452917 0.770206
C75_9 C 0.79228(19) 0.32500(11) 0.7677(2)
H42_9 H 0.842809 0.339676 0.721204
H43_9 H 0.739963 0.326183 0.814424
H48_9 H 0.795911 0.292933 0.767017
C2_10 C 0.2935(2) 0.1797(2) 0.9033(2)
O6_10 O 0.21020(15) 0.03996(17) 0.86597(18)
C4_10 C 0.2397(2) 0.1818(2) 0.8976(3)
C7_10 C 0.1676(3) 0.0406(2) 0.8595(2)
H1_10 H 0.226110 0.198044 0.924242
C8_10 C 0.2286(3) 0.2084(3) 0.8533(3)
H4_10 H 0.251173 0.200978 0.829950
H5_10 H 0.229485 0.241173 0.859516
H6_10 H 0.198259 0.199967 0.842570
H10_10 H 0.080424 0.010304 0.857942
C11_10 C 0.14636(15) 0.99904(18) 0.83668(15)
C14_10 C 0.17420(17) 0.96934(18) 0.81080(11)
C15_10 C 0.09905(18) 0.9904(2) 0.84060(14)
H9_10 H 0.205851 0.975097 0.808165
C17_10 C 0.0796(2) 0.9521(2) 0.81870(12)
H12_10 H 0.047942 0.946381 0.821311
C44_10 C 0.15474(15) 0.93104(16) 0.78885(19)
C51_10 C 0.2832(2) 0.9120(2) 0.6722(2)
C55_10 C 0.18504(15) 0.90093(15) 0.75884(17)
C56_10 C 0.10744(17) 0.92244(17) 0.7928(2)
C63_10 C 0.24666(14) 0.89285(14) 0.70298(15)
O24_10 O 0.30353(14) 0.88538(16) 0.64507(16)
C67_10 C 0.21856(15) 0.92085(11) 0.73043(17)
C68_10 C 0.17962(17) 0.85300(16) 0.75979(18)
H35_10 H 0.094415 0.896815 0.778107
C69_10 C 0.24124(16) 0.84492(14) 0.70394(17)
H41_10 H 0.222187 0.952917 0.729794
C75_10 C 0.20772(19) 0.82500(11) 0.7323(2)
H42_10 H 0.157191 0.839676 0.778796
H43_10 H 0.260037 0.826183 0.685576
H48_10 H 0.204089 0.792933 0.732983
C11_11 C 0.35364(15) 0.00096(18) 0.33668(15)
C14_11 C 0.32580(17) 0.03066(18) 0.31080(11)
C15_11 C 0.40095(18) 0.0096(2) 0.34060(14)
H9_11 H 0.294149 0.024903 0.308165
C17_11 C 0.4204(2) 0.0479(2) 0.31870(12)
H12_11 H 0.452058 0.053619 0.321311
C44_11 C 0.34526(15) 0.06896(16) 0.28885(19)
C51_11 C 0.2168(2) 0.0880(2) 0.1722(2)
C55_11 C 0.31496(15) 0.09907(15) 0.25884(17)
C56_11 C 0.39256(17) 0.07756(17) 0.2928(2)
C63_11 C 0.25334(14) 0.10715(14) 0.20298(15)
O24_11 O 0.19647(14) 0.11462(16) 0.14507(16)
C67_11 C 0.28144(15) 0.07915(11) 0.23043(17)
C68_11 C 0.32038(17) 0.14700(16) 0.25979(18)
H35_11 H 0.405585 0.103185 0.278107
C69_11 C 0.25876(16) 0.15508(14) 0.20394(17)
H41_11 H 0.277813 0.047083 0.229794
C75_11 C 0.29228(19) 0.17500(11) 0.2323(2)
H42_11 H 0.342809 0.160324 0.278796
H43_11 H 0.239963 0.173817 0.185576
H48_11 H 0.295911 0.207067 0.232983
C2_11 C 0.2065(2) 0.8203(2) 0.4033(2)
O6_11 O 0.28980(15) 0.96004(17) 0.36597(18)
C4_11 C 0.2603(2) 0.8182(2) 0.3976(3)
C7_11 C 0.3324(3) 0.9594(2) 0.3595(2)
H1_11 H 0.273890 0.801956 0.424242
C8_11 C 0.2714(3) 0.7916(3) 0.3533(3)
H4_11 H 0.248827 0.799022 0.329950
H5_11 H 0.270515 0.758827 0.359516
H6_11 H 0.301741 0.800033 0.342570
H10_11 H 0.419576 0.989696 0.357942
C2_12 C 0.7935(2) 0.3203(2) 0.0967(2)
O6_12 O 0.71020(15) 0.46004(17) 0.13403(18)
C4_12 C 0.7397(2) 0.3182(2) 0.1024(3)
C7_12 C 0.6676(3) 0.4594(2) 0.1405(2)
H1_12 H 0.726110 0.301956 0.075758
C8_12 C 0.7286(3) 0.2916(3) 0.1467(3)
C11_12 C 0.64636(15) 0.50096(18) 0.16332(15)
H4_12 H 0.751173 0.299022 0.170050
H5_12 H 0.729485 0.258827 0.140484
H6_12 H 0.698259 0.300033 0.157430
C14_12 C 0.67420(17) 0.53066(18) 0.18920(11)
C15_12 C 0.59905(18) 0.5096(2) 0.15940(14)
H9_12 H 0.705851 0.524903 0.191835
C17_12 C 0.5796(2) 0.5479(2) 0.18130(12)
H10_12 H 0.580424 0.489696 0.142058
H12_12 H 0.547942 0.553619 0.178689
C44_12 C 0.65474(15) 0.56896(16) 0.21115(19)
C51_12 C 0.7832(2) 0.5880(2) 0.3278(2)
C55_12 C 0.68504(15) 0.59907(15) 0.24116(17)
C56_12 C 0.60744(17) 0.57756(17) 0.2072(2)
C63_12 C 0.74666(14) 0.60715(14) 0.29702(15)
O24_12 O 0.80353(14) 0.61462(16) 0.35493(16)
C67_12 C 0.71856(15) 0.57915(11) 0.26957(17)
C68_12 C 0.67962(17) 0.64700(16) 0.24021(18)
H35_12 H 0.594415 0.603185 0.221893
C69_12 C 0.74124(16) 0.65508(14) 0.29606(17)
H41_12 H 0.722187 0.547083 0.270206
C75_12 C 0.70772(19) 0.67500(11) 0.2677(2)
H42_12 H 0.657191 0.660324 0.221204
H43_12 H 0.760037 0.673817 0.314424
H48_12 H 0.704089 0.707067 0.267017
loop_
_geom_bond_atom_site_label_1
_geom_bond_atom_site_label_2
_geom_bond_site_symmetry_1
_geom_bond_site_symmetry_2
O35 C64 1_555 1_555
C71 C64 1_555 1_555
H39 C64 1_555 1_555
Zn20 O35 1_555 1_555
H45 C71 1_555 1_555
H46 C71 1_555 1_555
C83 O43 1_555 1_555
O51 Zn20 1_555 1_555
O52 Zn20 1_555 1_555
O53 Zn20 1_555 1_555
C84 C78 1_555 1_555
H50 C78 1_555 1_555
C88 C83 1_555 1_555
Zn22 O51 1_555 1_555
C89 C84 1_555 1_555
C90 C84 1_555 1_555
H57 C85 1_555 1_555
C91 C88 1_555 1_555
C92 C88 1_555 1_555
O56 Zn22 1_555 1_555
O57 C89 1_555 1_555
H64 C90 1_555 1_555
C94 C91 1_555 1_555
H65 C91 1_555 1_555
C95 C92 1_555 1_555
H66 C92 1_555 1_555
Zn24 O57 1_555 1_555
C97 C94 1_555 1_555
C98 C94 1_555 1_555
H67 C95 1_555 1_555
C99 C96 1_555 1_555
C100 C96 1_555 1_555
C101 C97 1_555 1_555
H68 C98 1_555 1_555
H69 C99 1_555 1_555
C102 C100 1_555 1_555
H71 C101 1_555 1_555
H72 C102 1_555 1_555
C83 O52 1_555 1_555
C85 C90 1_555 1_555
C89 O56 1_555 1_555
C95 C98 1_555 1_555
C97 C99 1_555 1_555
C101 C102 1_555 1_555
Zn1 O1 1_555 1_555
O1 C1 1_555 1_555
O2 Zn1 1_555 1_555
C1 O3 1_555 1_555
Zn2 O2 1_555 1_555
C2 C4 1_555 1_555
O3 Zn5 1_555 1_555
C3 C1 1_555 1_555
O4 Zn4 1_555 1_555
O5 C4 1_555 1_555
O6 C7 1_555 1_555
C4 H1 1_555 1_555
C5 C3 1_555 1_555
C6 C3 1_555 1_555
Zn3 O7 1_555 1_555
C7 C11 1_555 1_555
C8 C4 1_555 1_555
H2 C5 1_555 1_555
C9 C5 1_555 1_555
C10 C6 1_555 1_555
H3 C6 1_555 1_555
O7 C35 1_555 1_555
C11 C14 1_555 1_555
H4 C8 1_555 1_555
H5 C8 1_555 1_555
H6 C8 1_555 1_555
H7 C9 1_555 1_555
C12 C9 1_555 1_555
C13 C10 1_555 1_555
C14 H9 1_555 1_555
C15 C11 1_555 1_555
H8 C12 1_555 1_555
C16 C13 1_555 1_555
C17 C15 1_555 1_555
H10 C15 1_555 1_555
H11 C16 1_555 1_555
H12 C17 1_555 1_555
O8 Zn1 1_555 1_555
O9 Zn1 1_555 1_555
O10 Zn1 1_555 1_555
O11 Zn1 1_555 1_555
C18 O8 1_555 1_555
C19 O9 1_555 1_555
Zn4 O5 1_555 1_555
Zn5 O11 1_555 1_555
O12 Zn2 1_555 1_555
C20 C18 1_555 1_555
O13 C19 1_555 1_555
C21 C19 1_555 1_555
O14 C2 1_555 1_555
C22 C20 1_555 1_555
C23 C20 1_555 1_555
C24 C21 1_555 1_555
C25 C21 1_555 1_555
Zn6 O5 1_555 1_555
H13 C22 1_555 1_555
C26 C22 1_555 1_555
C27 C23 1_555 1_555
H14 C23 1_555 1_555
H15 C24 1_555 1_555
C28 C24 1_555 1_555
C29 C25 1_555 1_555
H16 C25 1_555 1_555
O15 Zn3 1_555 1_555
O16 C7 1_555 1_555
H17 C26 1_555 1_555
C30 C26 1_555 1_555
C31 C27 1_555 1_555
H18 C28 1_555 1_555
C32 C28 1_555 1_555
C33 C29 1_555 1_555
Zn7 O15 1_555 1_555
C34 O15 1_555 1_555
C35 O20 1_555 1_555
C36 C13 1_555 1_555
H19 C30 1_555 1_555
C37 C31 1_555 1_555
C38 C31 1_555 1_555
H20 C32 1_555 1_555
C39 C33 1_555 1_555
C40 C33 1_555 1_555
O17 Zn7 1_555 1_555
O18 Zn7 1_555 1_555
O19 Zn7 1_555 1_555
O20 Zn7 1_555 1_555
C41 C34 1_555 1_555
C42 C34 1_555 1_555
H21 C34 1_555 1_555
C43 C35 1_555 1_555
C44 C14 1_555 1_555
C45 C16 1_555 1_555
C46 C36 1_555 1_555
H22 C36 1_555 1_555
H23 C37 1_555 1_555
C47 C37 1_555 1_555
C48 C38 1_555 1_555
H24 C38 1_555 1_555
H25 C39 1_555 1_555
C49 C39 1_555 1_555
C50 C40 1_555 1_555
H26 C40 1_555 1_555
C51 O17 1_555 1_555
Zn8 O18 1_555 1_555
C52 O19 1_555 1_555
O21 C41 1_555 1_555
H27 C42 1_555 1_555
H28 C42 1_555 1_555
H29 C42 1_555 1_555
C53 C43 1_555 1_555
C54 C43 1_555 1_555
Zn9 O27 1_555 1_555
O22 Zn12 1_555 1_555
C55 C44 1_555 1_555
C56 C17 1_555 1_555
Zn10 O28 1_555 1_555
O23 Zn13 1_555 1_555
H30 C45 1_555 1_555
C57 C45 1_555 1_555
C58 C46 1_555 1_555
H31 C47 1_555 1_555
C59 C47 1_555 1_555
C60 C48 1_555 1_555
H32 C49 1_555 1_555
C61 C49 1_555 1_555
C62 C50 1_555 1_555
C63 C51 1_555 1_555
O24 C51 1_555 1_555
O25 Zn8 1_555 1_555
O26 Zn8 1_555 1_555
Zn11 O21 1_555 1_555
C65 C53 1_555 1_555
H33 C53 1_555 1_555
C66 C54 1_555 1_555
H34 C54 1_555 1_555
O27 Zn12 1_555 1_555
Zn12 O34 1_555 1_555
C67 C55 1_555 1_555
C68 C55 1_555 1_555
H35 C56 1_555 1_555
O28 Zn13 1_555 1_555
Zn13 O30 1_555 1_555
H36 C57 1_555 1_555
O29 C58 1_555 1_555
O30 C58 1_555 1_555
H37 C59 1_555 1_555
O31 C60 1_555 1_555
O32 C60 1_555 1_555
H38 C61 1_555 1_555
O33 C62 1_555 1_555
O34 C62 1_555 1_555
C69 C63 1_555 1_555
C70 O25 1_555 1_555
Zn14 O26 1_555 1_555
O36 Zn11 1_555 1_555
O37 Zn11 1_555 1_555
C72 C65 1_555 1_555
C73 C65 1_555 1_555
H40 C66 1_555 1_555
C74 O27 1_555 1_555
Zn15 O45 1_555 1_555
O38 Zn12 1_555 1_555
O39 Zn12 1_555 1_555
H41 C67 1_555 1_555
C75 C68 1_555 1_555
H42 C68 1_555 1_555
C76 O28 1_555 1_555
Zn16 O46 1_555 1_555
O40 Zn13 1_555 1_555
O41 Zn13 1_555 1_555
Zn17 O29 1_555 1_555
Zn18 O31 1_555 1_555
Zn19 O33 1_555 1_555
H43 C69 1_555 1_555
C77 C70 1_555 1_555
O42 C70 1_555 1_555
O44 Zn14 1_555 1_555
C79 C72 1_555 1_555
H47 C73 1_555 1_555
C80 C74 1_555 1_555
O45 C74 1_555 1_555
H48 C75 1_555 1_555
C81 C76 1_555 1_555
O46 C76 1_555 1_555
O47 Zn17 1_555 1_555
O48 Zn17 1_555 1_555
O49 Zn18 1_555 1_555
O50 Zn18 1_555 1_555
H49 C77 1_555 1_555
C82 C77 1_555 1_555
H51 C79 1_555 1_555
H52 C80 1_555 1_555
C86 C80 1_555 1_555
H53 C81 1_555 1_555
C87 C81 1_555 1_555
Zn21 O49 1_555 1_555
H54 C82 1_555 1_555
H55 C82 1_555 1_555
H56 C82 1_555 1_555
H58 C86 1_555 1_555
H59 C86 1_555 1_555
H60 C86 1_555 1_555
H61 C87 1_555 1_555
H62 C87 1_555 1_555
H63 C87 1_555 1_555
O54 Zn21 1_555 1_555
O55 Zn21 1_555 1_555
Zn23 O54 1_555 1_555
C93 O55 1_555 1_555
O58 Zn23 1_555 1_555
O59 Zn23 1_555 1_555
O60 Zn23 1_555 1_555
O61 Zn23 1_555 1_555
O62 Zn23 1_555 1_555
C2 O10 1_555 1_555
O6 Zn4 1_555 1_555
C10 C12 1_555 1_555
O10 Zn4 1_555 1_555
C18 O12 1_555 1_555
Zn4 O13 1_555 1_555
Zn5 O14 1_555 1_555
Zn6 O16 1_555 1_555
C27 C30 1_555 1_555
C29 C32 1_555 1_555
O18 C41 1_555 1_555
C44 C56 1_555 1_555
C46 C57 1_555 1_555
C48 C59 1_555 1_555
C50 C61 1_555 1_555
Zn8 O24 1_555 1_555
C52 O26 1_555 1_555
C63 C67 1_555 1_555
O25 Zn11 1_555 1_555
Zn11 O32 1_555 1_555
C66 C73 1_555 1_555
C69 C75 1_555 1_555
Zn14 O42 1_555 1_555
O36 Zn18 1_555 1_555
O36 C77 1_555 1_555
O38 Zn19 1_555 1_555
O38 C80 1_555 1_555
O40 Zn17 1_555 1_555
O40 C81 1_555 1_555
C93 O60 1_555 1_555
Zn9_2 O27_2 1_555 1_555
O22_2 Zn12_2 1_555 1_555
O27_2 Zn12_2 1_555 1_555
C74_2 O27_2 1_555 1_555
Zn15_2 O45_2 1_555 1_555
O39_2 Zn12_2 1_555 1_555
O45_2 C74_2 1_555 1_555
C33_2 C29_2 1_555 1_555
H20_2 C32_2 1_555 1_555
C39_2 C33_2 1_555 1_555
C40_2 C33_2 1_555 1_555
H25_2 C39_2 1_555 1_555
C49_2 C39_2 1_555 1_555
C50_2 C40_2 1_555 1_555
H26_2 C40_2 1_555 1_555
H32_2 C49_2 1_555 1_555
C61_2 C49_2 1_555 1_555
C62_2 C50_2 1_555 1_555
H38_2 C61_2 1_555 1_555
O33_2 C62_2 1_555 1_555
O34_2 C62_2 1_555 1_555
Zn19_2 O33_2 1_555 1_555
H52_2 C80_2 1_555 1_555
C86_2 C80_2 1_555 1_555
H59_2 C86_2 1_555 1_555
H60_2 C86_2 1_555 1_555
C29_2 C32_2 1_555 1_555
C50_2 C61_2 1_555 1_555
O38_2 Zn19_2 1_555 1_555
O38_2 C80_2 1_555 1_555
Zn2_2 O58 1_555 1_555
C2_2 C4_2 1_555 1_555
O4_2 Zn4_2 1_555 1_555
O5_2 C4_2 1_555 1_555
O6_2 C7_2 1_555 1_555
C4_2 H1_2 1_555 1_555
Zn3_2 O7_2 1_555 1_555
C8_2 C4_2 1_555 1_555
O7_2 C35_2 1_555 1_555
H4_2 C8_2 1_555 1_555
H5_2 C8_2 1_555 1_555
H6_2 C8_2 1_555 1_555
C18_2 O59 1_555 1_555
C19_2 O62 1_555 1_555
Zn4_2 O5_2 1_555 1_555
O12_2 Zn2_2 1_555 1_555
C20_2 C18_2 1_555 1_555
O13_2 C19_2 1_555 1_555
O14_2 C2_2 1_555 1_555
C22_2 C20_2 1_555 1_555
C23_2 C20_2 1_555 1_555
Zn6_2 O5_2 1_555 1_555
H13_2 C22_2 1_555 1_555
C26_2 C22_2 1_555 1_555
H14_2 C23_2 1_555 1_555
O15_2 Zn3_2 1_555 1_555
O16_2 C7_2 1_555 1_555
H17_2 C26_2 1_555 1_555
C34_2 O15_2 1_555 1_555
C35_2 O20_2 1_555 1_555
C42_2 C34_2 1_555 1_555
H21_2 C34_2 1_555 1_555
C43_2 C35_2 1_555 1_555
H28_2 C42_2 1_555 1_555
H29_2 C42_2 1_555 1_555
C53_2 C43_2 1_555 1_555
C54_2 C43_2 1_555 1_555
C65_2 C53_2 1_555 1_555
H33_2 C53_2 1_555 1_555
C66_2 C54_2 1_555 1_555
H34_2 C54_2 1_555 1_555
C72_2 C65_2 1_555 1_555
C73_2 C65_2 1_555 1_555
H40_2 C66_2 1_555 1_555
C78_2 C72_2 1_555 1_555
C79_2 C72_2 1_555 1_555
H47_2 C73_2 1_555 1_555
C84_2 C78_2 1_555 1_555
H50_2 C78_2 1_555 1_555
C85_2 C79_2 1_555 1_555
H51_2 C79_2 1_555 1_555
C90_2 C84_2 1_555 1_555
H57_2 C85_2 1_555 1_555
C2_2 O61 1_555 1_555
O6_2 Zn4_2 1_555 1_555
O61 Zn4_2 1_555 1_555
C18_2 O12_2 1_555 1_555
Zn4_2 O13_2 1_555 1_555
Zn21 O14_2 1_555 1_555
Zn6_2 O16_2 1_555 1_555
C66_2 C73_2 1_555 1_555
C85_2 C90_2 1_555 1_555
C11_2 C14_2 1_555 1_555
C14_2 H9_2 1_555 1_555
C15_2 C11_2 1_555 1_555
C17_2 C15_2 1_555 1_555
H12_2 C17_2 1_555 1_555
C24_2 C21_2 1_555 1_555
C25_2 C21_2 1_555 1_555
C28_2 C24_2 1_555 1_555
H16_2 C25_2 1_555 1_555
C31_2 C27_2 1_555 1_555
H18_2 C28_2 1_555 1_555
H19_2 C30_2 1_555 1_555
C37_2 C31_2 1_555 1_555
C38_2 C31_2 1_555 1_555
O17_2 Zn16 1_555 1_555
O18_2 Zn16 1_555 1_555
C44_2 C14_2 1_555 1_555
H23_2 C37_2 1_555 1_555
C47_2 C37_2 1_555 1_555
C48_2 C38_2 1_555 1_555
H24_2 C38_2 1_555 1_555
C51_2 O17_2 1_555 1_555
Zn10 O18_2 1_555 1_555
O21_2 C41_2 1_555 1_555
C55_2 C44_2 1_555 1_555
C56_2 C17_2 1_555 1_555
H31_2 C47_2 1_555 1_555
C59_2 C47_2 1_555 1_555
C60_2 C48_2 1_555 1_555
C63_2 C51_2 1_555 1_555
O24_2 C51_2 1_555 1_555
O25_2 Zn10 1_555 1_555
Zn11_2 O21_2 1_555 1_555
C67_2 C55_2 1_555 1_555
C68_2 C55_2 1_555 1_555
H35_2 C56_2 1_555 1_555
H37_2 C59_2 1_555 1_555
O31_2 C60_2 1_555 1_555
O32_2 C60_2 1_555 1_555
C69_2 C63_2 1_555 1_555
C70_2 O25_2 1_555 1_555
O36_2 Zn11_2 1_555 1_555
O37_2 Zn11_2 1_555 1_555
H41_2 C67_2 1_555 1_555
C75_2 C68_2 1_555 1_555
H42_2 C68_2 1_555 1_555
Zn18_2 O31_2 1_555 1_555
H43_2 C69_2 1_555 1_555
C77_2 C70_2 1_555 1_555
O23 C70_2 1_555 1_555
H48_2 C75_2 1_555 1_555
O49_2 Zn18_2 1_555 1_555
O50_2 Zn18_2 1_555 1_555
H49_2 C77_2 1_555 1_555
C82_2 C77_2 1_555 1_555
Zn5 O49_2 1_555 1_555
H54_2 C82_2 1_555 1_555
H55_2 C82_2 1_555 1_555
H56_2 C82_2 1_555 1_555
Zn22_2 O47 1_555 1_555
O56_2 Zn22_2 1_555 1_555
O57_2 C89_2 1_555 1_555
Zn24_2 O57_2 1_555 1_555
C27_2 C30_2 1_555 1_555
O18_2 C41_2 1_555 1_555
C44_2 C56_2 1_555 1_555
C48_2 C59_2 1_555 1_555
Zn10 O24_2 1_555 1_555
C63_2 C67_2 1_555 1_555
O25_2 Zn11_2 1_555 1_555
Zn11_2 O32_2 1_555 1_555
C69_2 C75_2 1_555 1_555
O36_2 Zn18_2 1_555 1_555
O36_2 C77_2 1_555 1_555
C89_2 O56_2 1_555 1_555
C11_3 C14_3 1_555 1_555
C14_3 H9_3 1_555 1_555
C15_3 C11_3 1_555 1_555
C17_3 C15_3 1_555 1_555
H12_3 C17_3 1_555 1_555
C44_3 C14_3 1_555 1_555
C51_3 O39_2 1_555 1_555
C52_2 O22_2 1_555 1_555
C55_3 C44_3 1_555 1_555
C56_3 C17_3 1_555 1_555
C63_3 C51_3 1_555 1_555
O24_3 C51_3 1_555 1_555
O25_3 Zn9_2 1_555 1_555
O26_2 Zn9_2 1_555 1_555
C67_3 C55_3 1_555 1_555
C68_3 C55_3 1_555 1_555
H35_3 C56_3 1_555 1_555
C69_3 C63_3 1_555 1_555
C70_3 O25_3 1_555 1_555
Zn14_2 O26_2 1_555 1_555
O37_3 Zn15_2 1_555 1_555
H41_3 C67_3 1_555 1_555
C75_3 C68_3 1_555 1_555
H42_3 C68_3 1_555 1_555
H43_3 C69_3 1_555 1_555
O42_2 C70_3 1_555 1_555
O44_2 Zn14_2 1_555 1_555
H48_3 C75_3 1_555 1_555
C44_3 C56_3 1_555 1_555
Zn9_2 O24_3 1_555 1_555
C52_2 O26_2 1_555 1_555
C63_3 C67_3 1_555 1_555
O25_3 Zn15_2 1_555 1_555
C69_3 C75_3 1_555 1_555
Zn14_2 O42_2 1_555 1_555
Zn24_2 O1_2 1_555 1_555
O1_2 C1_2 1_555 1_555
O2_2 Zn24_2 1_555 1_555
C1_2 O3_2 1_555 1_555
Zn2_3 O2_2 1_555 1_555
C2_3 C4_3 1_555 1_555
O3_2 Zn5_2 1_555 1_555
C3_2 C1_2 1_555 1_555
O4_3 Zn22_2 1_555 1_555
O47 C4_3 1_555 1_555
O6_3 C7_3 1_555 1_555
C4_3 H1_3 1_555 1_555
C5_2 C3_2 1_555 1_555
C6_2 C3_2 1_555 1_555
C8_3 C4_3 1_555 1_555
H2_2 C5_2 1_555 1_555
C9_2 C5_2 1_555 1_555
H3_2 C6_2 1_555 1_555
H4_3 C8_3 1_555 1_555
H5_3 C8_3 1_555 1_555
H6_3 C8_3 1_555 1_555
H7_2 C9_2 1_555 1_555
O8_2 Zn24_2 1_555 1_555
O10_2 Zn24_2 1_555 1_555
O11_2 Zn24_2 1_555 1_555
C18_3 O8_2 1_555 1_555
Zn5_2 O11_2 1_555 1_555
O12_3 Zn2_3 1_555 1_555
O14_3 C2_3 1_555 1_555
O48 C7_3 1_555 1_555
C2_3 O10_2 1_555 1_555
O6_3 Zn22_2 1_555 1_555
O10_2 Zn22_2 1_555 1_555
C18_3 O12_3 1_555 1_555
Zn5_2 O14_3 1_555 1_555
C31_3 C27_3 1_555 1_555
H19_3 C30_3 1_555 1_555
C37_3 C31_3 1_555 1_555
C38_3 C31_3 1_555 1_555
H23_3 C37_3 1_555 1_555
C47_3 C37_3 1_555 1_555
C48_3 C38_3 1_555 1_555
H24_3 C38_3 1_555 1_555
H31_3 C47_3 1_555 1_555
C59_3 C47_3 1_555 1_555
C60_3 C48_3 1_555 1_555
H37_3 C59_3 1_555 1_555
O31_3 C60_3 1_555 1_555
O32_3 C60_3 1_555 1_555
Zn18_3 O31_3 1_555 1_555
O49_3 Zn18_3 1_555 1_555
O50_3 Zn18_3 1_555 1_555
H49_3 C77_3 1_555 1_555
C82_3 C77_3 1_555 1_555
Zn21_2 O49_3 1_555 1_555
H55_3 C82_3 1_555 1_555
H56_3 C82_3 1_555 1_555
O54_2 Zn21_2 1_555 1_555
O55_2 Zn21_2 1_555 1_555
Zn24 O54_2 1_555 1_555
C93_2 O55_2 1_555 1_555
O58_2 Zn24 1_555 1_555
O59_2 Zn24 1_555 1_555
O60_2 Zn24 1_555 1_555
O61_2 Zn24 1_555 1_555
C27_3 C30_3 1_555 1_555
C48_3 C59_3 1_555 1_555
O36_3 Zn18_3 1_555 1_555
O36_3 C77_3 1_555 1_555
C93_2 O60_2 1_555 1_555
C13_2 C10_2 1_555 1_555
H8_2 C12_2 1_555 1_555
C16_2 C13_2 1_555 1_555
H11_2 C16_2 1_555 1_555
C22_3 C20_3 1_555 1_555
C23_3 C20_3 1_555 1_555
C26_3 C22_3 1_555 1_555
H14_3 C23_3 1_555 1_555
H17_3 C26_3 1_555 1_555
C36_2 C13_2 1_555 1_555
C45_2 C16_2 1_555 1_555
C46_2 C36_2 1_555 1_555
H22_2 C36_2 1_555 1_555
Zn9 O28_2 1_555 1_555
O23_2 Zn13_2 1_555 1_555
H30_2 C45_2 1_555 1_555
C57_2 C45_2 1_555 1_555
C58_2 C46_2 1_555 1_555
O28_2 Zn13_2 1_555 1_555
Zn13_2 O30_2 1_555 1_555
H36_2 C57_2 1_555 1_555
O29_2 C58_2 1_555 1_555
O30_2 C58_2 1_555 1_555
C76_2 O28_2 1_555 1_555
O40_2 Zn13_2 1_555 1_555
O41_2 Zn13_2 1_555 1_555
Zn6 O29_2 1_555 1_555
C81_2 C76_2 1_555 1_555
O22 C76_2 1_555 1_555
H53_2 C81_2 1_555 1_555
C87_2 C81_2 1_555 1_555
H61_2 C87_2 1_555 1_555
H62_2 C87_2 1_555 1_555
H63_2 C87_2 1_555 1_555
C10_2 C12_2 1_555 1_555
C46_2 C57_2 1_555 1_555
O40_2 Zn6 1_555 1_555
O40_2 C81_2 1_555 1_555
O35_2 C64_2 1_555 1_555
C71_2 C64_2 1_555 1_555
H39_2 C64_2 1_555 1_555
Zn6_2 O35_2 1_555 1_555
H45_2 C71_2 1_555 1_555
H46_2 C71_2 1_555 1_555
C83_2 O43_2 1_555 1_555
O52_2 Zn6_2 1_555 1_555
C88_2 C83_2 1_555 1_555
C91_2 C88_2 1_555 1_555
C92_2 C88_2 1_555 1_555
C94_2 C91_2 1_555 1_555
H65_2 C91_2 1_555 1_555
C95_2 C92_2 1_555 1_555
H66_2 C92_2 1_555 1_555
C97_2 C94_2 1_555 1_555
C98_2 C94_2 1_555 1_555
H67_2 C95_2 1_555 1_555
C101_2 C97_2 1_555 1_555
H68_2 C98_2 1_555 1_555
H71_2 C101_2 1_555 1_555
C83_2 O52_2 1_555 1_555
C95_2 C98_2 1_555 1_555
C99_2 C96_2 1_555 1_555
C100_2 C96_2 1_555 1_555
H69_2 C99_2 1_555 1_555
C102_2 C100_2 1_555 1_555
H72_2 C102_2 1_555 1_555
C22_4 C20_4 1_555 1_555
C23_4 C20_4 1_555 1_555
C26_4 C22_4 1_555 1_555
C27_4 C23_4 1_555 1_555
H14_4 C23_4 1_555 1_555
H17_4 C26_4 1_555 1_555
C30_4 C26_4 1_555 1_555
C31_4 C27_4 1_555 1_555
H19_4 C30_4 1_555 1_555
C37_4 C31_4 1_555 1_555
C38_4 C31_4 1_555 1_555
H23_4 C37_4 1_555 1_555
C47_4 C37_4 1_555 1_555
C48_4 C38_4 1_555 1_555
H24_4 C38_4 1_555 1_555
H31_4 C47_4 1_555 1_555
C59_4 C47_4 1_555 1_555
C60_4 C48_4 1_555 1_555
H37_4 C59_4 1_555 1_555
O31_4 C60_4 1_555 1_555
O32_4 C60_4 1_555 1_555
Zn18_4 O31_4 1_555 1_555
O49_4 Zn18_4 1_555 1_555
O50_4 Zn18_4 1_555 1_555
H49_4 C77_4 1_555 1_555
C82_4 C77_4 1_555 1_555
Zn5_2 O49_4 1_555 1_555
H55_4 C82_4 1_555 1_555
H56_4 C82_4 1_555 1_555
C27_4 C30_4 1_555 1_555
C48_4 C59_4 1_555 1_555
O36_4 Zn18_4 1_555 1_555
O36_4 C77_4 1_555 1_555
Zn2_4 O58_2 1_555 1_555
C2_4 C4_4 1_555 1_555
O4_4 Zn22 1_555 1_555
O51 C4_4 1_555 1_555
O6_4 C7_4 1_555 1_555
C4_4 H1_4 1_555 1_555
C7_4 C11_4 1_555 1_555
C8_4 C4_4 1_555 1_555
C11_4 C14_4 1_555 1_555
H4_4 C8_4 1_555 1_555
H5_4 C8_4 1_555 1_555
H6_4 C8_4 1_555 1_555
C14_4 H9_4 1_555 1_555
C15_4 C11_4 1_555 1_555
C17_4 C15_4 1_555 1_555
H10_4 C15_4 1_555 1_555
H12_4 C17_4 1_555 1_555
C18_4 O59_2 1_555 1_555
O12_4 Zn2_4 1_555 1_555
O14_4 C2_4 1_555 1_555
O53 C7_4 1_555 1_555
C44_4 C14_4 1_555 1_555
C51_4 O39 1_555 1_555
C55_4 C44_4 1_555 1_555
C56_4 C17_4 1_555 1_555
C63_4 C51_4 1_555 1_555
O24_4 C51_4 1_555 1_555
O25_4 Zn9 1_555 1_555
C67_4 C55_4 1_555 1_555
C68_4 C55_4 1_555 1_555
H35_4 C56_4 1_555 1_555
C69_4 C63_4 1_555 1_555
C70_4 O25_4 1_555 1_555
O37_4 Zn15 1_555 1_555
H41_4 C67_4 1_555 1_555
C75_4 C68_4 1_555 1_555
H42_4 C68_4 1_555 1_555
H43_4 C69_4 1_555 1_555
O23_2 C70_4 1_555 1_555
H48_4 C75_4 1_555 1_555
C2_4 O61_2 1_555 1_555
O6_4 Zn22 1_555 1_555
O61_2 Zn22 1_555 1_555
C18_4 O12_4 1_555 1_555
Zn21_2 O14_4 1_555 1_555
C44_4 C56_4 1_555 1_555
Zn9 O24_4 1_555 1_555
C63_4 C67_4 1_555 1_555
O25_4 Zn15 1_555 1_555
C69_4 C75_4 1_555 1_555
C2_5 C4_5 1_555 1_555
O49_2 C4_5 1_555 1_555
O6_5 C7_5 1_555 1_555
C4_5 H1_5 1_555 1_555
C7_5 C11_5 1_555 1_555
C8_5 C4_5 1_555 1_555
C11_5 C14_5 1_555 1_555
H4_5 C8_5 1_555 1_555
H5_5 C8_5 1_555 1_555
H6_5 C8_5 1_555 1_555
C14_5 H9_5 1_555 1_555
C15_5 C11_5 1_555 1_555
C17_5 C15_5 1_555 1_555
H10_5 C15_5 1_555 1_555
H12_5 C17_5 1_555 1_555
O14_5 C2_5 1_555 1_555
O50_2 C7_5 1_555 1_555
C44_5 C14_5 1_555 1_555
C51_5 O41_2 1_555 1_555
C55_5 C44_5 1_555 1_555
C56_5 C17_5 1_555 1_555
C63_5 C51_5 1_555 1_555
O24_5 C51_5 1_555 1_555
C67_5 C55_5 1_555 1_555
C68_5 C55_5 1_555 1_555
H35_5 C56_5 1_555 1_555
C69_5 C63_5 1_555 1_555
H41_5 C67_5 1_555 1_555
C75_5 C68_5 1_555 1_555
H42_5 C68_5 1_555 1_555
H43_5 C69_5 1_555 1_555
H48_5 C75_5 1_555 1_555
O49_5 Zn19 1_555 1_555
O50_5 Zn19 1_555 1_555
Zn2_4 O49_5 1_555 1_555
C2_5 O11 1_555 1_555
O6_5 Zn5 1_555 1_555
Zn2 O14_5 1_555 1_555
C44_5 C56_5 1_555 1_555
Zn9 O24_5 1_555 1_555
C63_5 C67_5 1_555 1_555
C69_5 C75_5 1_555 1_555
C2_6 C4_6 1_555 1_555
O49_3 C4_6 1_555 1_555
O6_6 C7_6 1_555 1_555
C4_6 H1_6 1_555 1_555
C8_6 C4_6 1_555 1_555
H4_6 C8_6 1_555 1_555
H5_6 C8_6 1_555 1_555
H6_6 C8_6 1_555 1_555
O14_6 C2_6 1_555 1_555
O50_3 C7_6 1_555 1_555
C2_6 O54_2 1_555 1_555
O6_6 Zn21_2 1_555 1_555
Zn2_4 O14_6 1_555 1_555
C11_6 C14_6 1_555 1_555
C14_6 H9_6 1_555 1_555
C15_6 C11_6 1_555 1_555
C17_6 C15_6 1_555 1_555
H12_6 C17_6 1_555 1_555
C44_6 C14_6 1_555 1_555
C51_6 O44 1_555 1_555
C55_6 C44_6 1_555 1_555
C56_6 C17_6 1_555 1_555
C63_6 C51_6 1_555 1_555
O24_6 C51_6 1_555 1_555
C67_6 C55_6 1_555 1_555
C68_6 C55_6 1_555 1_555
H35_6 C56_6 1_555 1_555
C69_6 C63_6 1_555 1_555
H41_6 C67_6 1_555 1_555
C75_6 C68_6 1_555 1_555
H42_6 C68_6 1_555 1_555
H43_6 C69_6 1_555 1_555
H48_6 C75_6 1_555 1_555
O49_6 Zn3 1_555 1_555
O50_6 Zn3 1_555 1_555
Zn2 O49_6 1_555 1_555
C44_6 C56_6 1_555 1_555
Zn8 O24_6 1_555 1_555
C63_6 C67_6 1_555 1_555
C69_6 C75_6 1_555 1_555
C11_7 C14_7 1_555 1_555
C14_7 H9_7 1_555 1_555
C15_7 C11_7 1_555 1_555
C17_7 C15_7 1_555 1_555
H12_7 C17_7 1_555 1_555
C44_7 C14_7 1_555 1_555
C51_7 O44_2 1_555 1_555
C55_7 C44_7 1_555 1_555
C56_7 C17_7 1_555 1_555
C63_7 C51_7 1_555 1_555
O24_7 C51_7 1_555 1_555
C67_7 C55_7 1_555 1_555
C68_7 C55_7 1_555 1_555
H35_7 C56_7 1_555 1_555
C69_7 C63_7 1_555 1_555
H41_7 C67_7 1_555 1_555
C75_7 C68_7 1_555 1_555
H42_7 C68_7 1_555 1_555
H43_7 C69_7 1_555 1_555
H48_7 C75_7 1_555 1_555
C44_7 C56_7 1_555 1_555
Zn9_2 O24_7 1_555 1_555
C63_7 C67_7 1_555 1_555
C69_7 C75_7 1_555 1_555
O49_7 Zn19_2 1_555 1_555
O50_7 Zn19_2 1_555 1_555
Zn2_3 O49_7 1_555 1_555
C2_7 C4_7 1_555 1_555
O49 C4_7 1_555 1_555
O6_7 C7_7 1_555 1_555
C4_7 H1_7 1_555 1_555
C8_7 C4_7 1_555 1_555
H4_7 C8_7 1_555 1_555
H5_7 C8_7 1_555 1_555
H6_7 C8_7 1_555 1_555
O14_7 C2_7 1_555 1_555
O50 C7_7 1_555 1_555
C2_7 O54 1_555 1_555
O6_7 Zn21 1_555 1_555
Zn2_2 O14_7 1_555 1_555
O49_8 Zn3_2 1_555 1_555
O50_8 Zn3_2 1_555 1_555
Zn2_2 O49_8 1_555 1_555
C2_8 C4_8 1_555 1_555
O49_4 C4_8 1_555 1_555
O6_8 C7_8 1_555 1_555
C4_8 H1_8 1_555 1_555
C7_8 C11_8 1_555 1_555
C8_8 C4_8 1_555 1_555
C11_8 C14_8 1_555 1_555
H4_8 C8_8 1_555 1_555
H5_8 C8_8 1_555 1_555
H6_8 C8_8 1_555 1_555
C14_8 H9_8 1_555 1_555
C15_8 C11_8 1_555 1_555
C17_8 C15_8 1_555 1_555
H10_8 C15_8 1_555 1_555
H12_8 C17_8 1_555 1_555
O14_8 C2_8 1_555 1_555
O50_4 C7_8 1_555 1_555
C44_8 C14_8 1_555 1_555
C51_8 O41 1_555 1_555
C55_8 C44_8 1_555 1_555
C56_8 C17_8 1_555 1_555
C63_8 C51_8 1_555 1_555
O24_8 C51_8 1_555 1_555
C67_8 C55_8 1_555 1_555
C68_8 C55_8 1_555 1_555
H35_8 C56_8 1_555 1_555
C69_8 C63_8 1_555 1_555
H41_8 C67_8 1_555 1_555
C75_8 C68_8 1_555 1_555
H42_8 C68_8 1_555 1_555
H43_8 C69_8 1_555 1_555
H48_8 C75_8 1_555 1_555
C2_8 O11_2 1_555 1_555
O6_8 Zn5_2 1_555 1_555
Zn2_3 O14_8 1_555 1_555
C44_8 C56_8 1_555 1_555
Zn10 O24_8 1_555 1_555
C63_8 C67_8 1_555 1_555
C69_8 C75_8 1_555 1_555
C2_9 C4_9 1_555 1_555
O49_6 C4_9 1_555 1_555
O6_9 C7_9 1_555 1_555
C4_9 H1_9 1_555 1_555
C7_9 C11_9 1_555 1_555
C8_9 C4_9 1_555 1_555
C11_9 C14_9 1_555 1_555
H4_9 C8_9 1_555 1_555
H5_9 C8_9 1_555 1_555
H6_9 C8_9 1_555 1_555
C14_9 H9_9 1_555 1_555
C15_9 C11_9 1_555 1_555
C17_9 C15_9 1_555 1_555
H10_9 C15_9 1_555 1_555
H12_9 C17_9 1_555 1_555
O4 C2_9 1_555 1_555
O50_6 C7_9 1_555 1_555
C44_9 C14_9 1_555 1_555
C51_9 O37_2 1_555 1_555
C55_9 C44_9 1_555 1_555
C56_9 C17_9 1_555 1_555
C63_9 C51_9 1_555 1_555
O24_9 C51_9 1_555 1_555
C67_9 C55_9 1_555 1_555
C68_9 C55_9 1_555 1_555
H35_9 C56_9 1_555 1_555
C69_9 C63_9 1_555 1_555
H41_9 C67_9 1_555 1_555
C75_9 C68_9 1_555 1_555
H42_9 C68_9 1_555 1_555
H43_9 C69_9 1_555 1_555
H48_9 C75_9 1_555 1_555
C2_9 O2 1_555 1_555
O6_9 Zn2 1_555 1_555
C44_9 C56_9 1_555 1_555
Zn10 O24_9 1_555 1_555
C63_9 C67_9 1_555 1_555
C69_9 C75_9 1_555 1_555
C2_10 C4_10 1_555 1_555
O49_7 C4_10 1_555 1_555
O6_10 C7_10 1_555 1_555
C4_10 H1_10 1_555 1_555
C8_10 C4_10 1_555 1_555
H4_10 C8_10 1_555 1_555
H5_10 C8_10 1_555 1_555
H6_10 C8_10 1_555 1_555
O4_3 C2_10 1_555 1_555
O50_7 C7_10 1_555 1_555
C2_10 O2_2 1_555 1_555
O6_10 Zn2_3 1_555 1_555
C11_10 C14_10 1_555 1_555
C14_10 H9_10 1_555 1_555
C15_10 C11_10 1_555 1_555
C17_10 C15_10 1_555 1_555
H12_10 C17_10 1_555 1_555
C44_10 C14_10 1_555 1_555
C51_10 O37_4 1_555 1_555
C55_10 C44_10 1_555 1_555
C56_10 C17_10 1_555 1_555
C63_10 C51_10 1_555 1_555
O24_10 C51_10 1_555 1_555
C67_10 C55_10 1_555 1_555
C68_10 C55_10 1_555 1_555
H35_10 C56_10 1_555 1_555
C69_10 C63_10 1_555 1_555
H41_10 C67_10 1_555 1_555
C75_10 C68_10 1_555 1_555
H42_10 C68_10 1_555 1_555
H43_10 C69_10 1_555 1_555
H48_10 C75_10 1_555 1_555
C44_10 C56_10 1_555 1_555
Zn9 O24_10 1_555 1_555
C63_10 C67_10 1_555 1_555
C69_10 C75_10 1_555 1_555
C11_11 C14_11 1_555 1_555
C14_11 H9_11 1_555 1_555
C15_11 C11_11 1_555 1_555
C17_11 C15_11 1_555 1_555
H12_11 C17_11 1_555 1_555
C44_11 C14_11 1_555 1_555
C51_11 O37_3 1_555 1_555
C55_11 C44_11 1_555 1_555
C56_11 C17_11 1_555 1_555
C63_11 C51_11 1_555 1_555
O24_11 C51_11 1_555 1_555
C67_11 C55_11 1_555 1_555
C68_11 C55_11 1_555 1_555
H35_11 C56_11 1_555 1_555
C69_11 C63_11 1_555 1_555
H41_11 C67_11 1_555 1_555
C75_11 C68_11 1_555 1_555
H42_11 C68_11 1_555 1_555
H43_11 C69_11 1_555 1_555
H48_11 C75_11 1_555 1_555
C44_11 C56_11 1_555 1_555
Zn9_2 O24_11 1_555 1_555
C63_11 C67_11 1_555 1_555
C69_11 C75_11 1_555 1_555
C2_11 C4_11 1_555 1_555
O49_5 C4_11 1_555 1_555
O6_11 C7_11 1_555 1_555
C4_11 H1_11 1_555 1_555
C8_11 C4_11 1_555 1_555
H4_11 C8_11 1_555 1_555
H5_11 C8_11 1_555 1_555
H6_11 C8_11 1_555 1_555
O4_4 C2_11 1_555 1_555
O50_5 C7_11 1_555 1_555
C2_11 O58_2 1_555 1_555
O6_11 Zn2_4 1_555 1_555
C2_12 C4_12 1_555 1_555
O49_8 C4_12 1_555 1_555
O6_12 C7_12 1_555 1_555
C4_12 H1_12 1_555 1_555
C7_12 C11_12 1_555 1_555
C8_12 C4_12 1_555 1_555
C11_12 C14_12 1_555 1_555
H4_12 C8_12 1_555 1_555
H5_12 C8_12 1_555 1_555
H6_12 C8_12 1_555 1_555
C14_12 H9_12 1_555 1_555
C15_12 C11_12 1_555 1_555
C17_12 C15_12 1_555 1_555
H10_12 C15_12 1_555 1_555
H12_12 C17_12 1_555 1_555
O4_2 C2_12 1_555 1_555
O50_8 C7_12 1_555 1_555
C44_12 C14_12 1_555 1_555
C51_12 O37 1_555 1_555
C55_12 C44_12 1_555 1_555
C56_12 C17_12 1_555 1_555
C63_12 C51_12 1_555 1_555
O24_12 C51_12 1_555 1_555
C67_12 C55_12 1_555 1_555
C68_12 C55_12 1_555 1_555
H35_12 C56_12 1_555 1_555
C69_12 C63_12 1_555 1_555
H41_12 C67_12 1_555 1_555
C75_12 C68_12 1_555 1_555
H42_12 C68_12 1_555 1_555
H43_12 C69_12 1_555 1_555
H48_12 C75_12 1_555 1_555
C2_12 O58 1_555 1_555
O6_12 Zn2_2 1_555 1_555
C44_12 C56_12 1_555 1_555
Zn8 O24_12 1_555 1_555
C63_12 C67_12 1_555 1_555
C69_12 C75_12 1_555 1_555

#END
