
###############################################################################
#
# This file contains modified crystal structure data generated from the
# MOF subset of the Cambridge Structural Database (CSD) v543 
# hosted by the Cambridge Crystallographic Data Centre (CCDC).
#
# This work is licensed under the Creative Commons
# Attribution-NonCommercial-ShareAlike 4.0 International License.
# To view a copy of this license, visit
# http://creativecommons.org/licenses/by-nc-sa/4.0/
# or send a letter to
# Creative Commons, PO Box 1866, Mountain View, CA 94042, USA.
#
# CIF created using the CSD Python API on 29 September 2022
# The structure has been converted into the P1 space group
# The structure has a 3D framework
# The original CSD entry USONAU is in the cubic crystal system
# The original CSD entry USONAU is in a Sohncke space group
# The framework has been calculated to contain at least 10.0% void space
# The void calculation uses a probe of radius 1.32A, grid spacing 0.4
# The framework is charged, counterions have been retained in the structure
#
###############################################################################

data_USONAU
_chemical_formula_moiety         '(C408 H288 O168 Zn32 14-)n'
_symmetry_cell_setting           triclinic
_symmetry_space_group_name_H-M   'P 1'
_symmetry_Int_Tables_number      1
_space_group_name_Hall           'P 1'
loop_
_symmetry_equiv_pos_site_id
_symmetry_equiv_pos_as_xyz
1 x,y,z
_cell_length_a                   28.8085(2)
_cell_length_b                   28.8085(2)
_cell_length_c                   28.8085(2)
_cell_angle_alpha                90
_cell_angle_beta                 90
_cell_angle_gamma                90
_cell_volume                     23909
loop_
_atom_site_label
_atom_site_type_symbol
_atom_site_fract_x
_atom_site_fract_y
_atom_site_fract_z
Zn1 Zn 0.37131(2) 0.37131(2) 0.37131(2)
Zn2 Zn 0.15805(3) 0.625000 0.09195(3)
Zn3 Zn 0.26416(3) 0.58615(3) 0.12124(3)
O1 O 0.31124(13) 0.64288(13) 0.10727(14)
O2 O 0.29203(15) 0.45676(15) 0.32707(15)
O3 O 0.30389(14) 0.38602(15) 0.35576(15)
O4 O 0.22130(14) 0.63699(15) 0.10519(17)
O5 O 0.31170(16) 0.71743(16) 0.08573(18)
O6 O 0.13913(15) 0.57118(17) 0.12895(15)
O7 O 0.20988(15) 0.54093(17) 0.13573(17)
C1 C 0.2840(2) 0.4133(2) 0.3294(2)
C2 C 0.1669(2) 0.5407(2) 0.1416(2)
C3 C 0.2918(2) 0.6800(2) 0.0974(2)
C4 C 0.15533(14) 0.43175(16) 0.21236(19)
C5 C 0.17427(10) 0.47053(16) 0.19077(17)
H1 H 0.205837 0.476703 0.193477
C6 C 0.14601(14) 0.50008(14) 0.16515(17)
C7 C 0.09883(13) 0.49085(18) 0.1611(2)
H2 H 0.079923 0.510616 0.143963
C8 C 0.07989(12) 0.4521(2) 0.1827(2)
H3 H 0.048323 0.445897 0.179994
C9 C 0.10815(15) 0.42252(18) 0.2083(2)
H4 H 0.095479 0.396581 0.222767
C10 C 0.18596(14) 0.40175(15) 0.24246(16)
C11 C 0.18031(16) 0.35384(15) 0.24152(17)
H5 H 0.157929 0.340598 0.222398
C12 C 0.20812(18) 0.32573(11) 0.26917(19)
H6 H 0.204344 0.293676 0.268542
C13 C 0.24157(15) 0.34553(13) 0.29775(17)
H7 H 0.260181 0.326718 0.316248
C14 C 0.24722(14) 0.39344(13) 0.29869(14)
C15 C 0.21941(15) 0.42155(10) 0.27104(16)
H8 H 0.223188 0.453603 0.271665
C16 C 0.2389(2) 0.6821(2) 0.1031(3)
H9 H 0.225457 0.698193 0.076336
C17 C 0.2272(3) 0.7092(3) 0.1474(3)
H10 H 0.194427 0.707663 0.152969
H11 H 0.236448 0.740982 0.143735
H12 H 0.243527 0.695784 0.173200
Zn4 Zn 0.09195(3) 0.15805(3) 0.625000
Zn5 Zn 0.12124(3) 0.26416(3) 0.58615(3)
O8 O 0.10727(14) 0.31124(13) 0.64288(13)
O9 O 0.32707(15) 0.29203(15) 0.45676(15)
O10 O 0.35576(15) 0.30389(14) 0.38602(15)
O11 O 0.10519(17) 0.22130(14) 0.63699(15)
O12 O 0.08573(18) 0.31170(16) 0.71743(16)
O13 O 0.12895(15) 0.13913(15) 0.57118(17)
O14 O 0.13573(17) 0.20988(15) 0.54093(17)
C18 C 0.3294(2) 0.2840(2) 0.4133(2)
C19 C 0.1416(2) 0.1669(2) 0.5407(2)
C20 C 0.0974(2) 0.2918(2) 0.6800(2)
C21 C 0.21236(19) 0.15533(14) 0.43175(16)
C22 C 0.19077(17) 0.17427(10) 0.47053(16)
H13 H 0.193477 0.205837 0.476703
C23 C 0.16515(17) 0.14601(14) 0.50008(14)
C24 C 0.1611(2) 0.09883(13) 0.49085(18)
H14 H 0.143963 0.079923 0.510616
C25 C 0.1827(2) 0.07989(12) 0.4521(2)
H15 H 0.179994 0.048323 0.445897
C26 C 0.2083(2) 0.10815(15) 0.42252(18)
H16 H 0.222767 0.095479 0.396581
C27 C 0.24246(16) 0.18596(14) 0.40175(15)
C28 C 0.24152(17) 0.18031(16) 0.35384(15)
H17 H 0.222398 0.157929 0.340598
C29 C 0.26917(19) 0.20812(18) 0.32573(11)
H18 H 0.268542 0.204344 0.293676
C30 C 0.29775(17) 0.24157(15) 0.34553(13)
H19 H 0.316248 0.260181 0.326718
C31 C 0.29869(14) 0.24722(14) 0.39344(13)
C32 C 0.27104(16) 0.21941(15) 0.42155(10)
H20 H 0.271665 0.223188 0.453603
C33 C 0.1031(3) 0.2389(2) 0.6821(2)
H21 H 0.076336 0.225457 0.698193
C34 C 0.1474(3) 0.2272(3) 0.7092(3)
H22 H 0.152969 0.194427 0.707663
H23 H 0.143735 0.236448 0.740982
H24 H 0.173200 0.243527 0.695784
Zn7 Zn 0.37876(3) 0.73584(3) 0.08615(3)
O15 O 0.39273(14) 0.68876(13) 0.14288(13)
O18 O 0.39481(17) 0.77870(14) 0.13699(15)
O19 O 0.41427(18) 0.68830(16) 0.21743(16)
O20 O 0.37105(15) 0.86087(15) 0.07118(17)
O21 O 0.36427(17) 0.79012(15) 0.04093(17)
C36 C 0.3584(2) 0.8331(2) 0.0407(2)
C37 C 0.4026(2) 0.7082(2) 0.1800(2)
C40 C 0.33485(17) 0.85399(14) 0.00008(14)
H26 H 0.356037 0.920077 0.010616
C50 C 0.3969(3) 0.7611(2) 0.1821(2)
H33 H 0.423664 0.774543 0.198193
C51 C 0.3526(3) 0.7728(3) 0.2092(3)
H34 H 0.347031 0.805573 0.207663
H35 H 0.356265 0.763552 0.240982
H36 H 0.326800 0.756473 0.195784
Zn8 Zn 0.58615(3) 0.12124(3) 0.26416(3)
O22 O 0.64288(13) 0.10727(14) 0.31124(13)
O23 O 0.45676(15) 0.32707(15) 0.29203(15)
O24 O 0.38602(15) 0.35576(15) 0.30389(14)
O25 O 0.63699(15) 0.10519(17) 0.22130(14)
O26 O 0.71743(16) 0.08573(18) 0.31170(16)
O27 O 0.57118(17) 0.12895(15) 0.13913(15)
O28 O 0.54093(17) 0.13573(17) 0.20988(15)
C52 C 0.4133(2) 0.3294(2) 0.2840(2)
C53 C 0.5407(2) 0.1416(2) 0.1669(2)
C54 C 0.6800(2) 0.0974(2) 0.2918(2)
C55 C 0.43175(16) 0.21236(19) 0.15533(14)
C56 C 0.47053(16) 0.19077(17) 0.17427(10)
H37 H 0.476703 0.193477 0.205837
C57 C 0.50008(14) 0.16515(17) 0.14601(14)
C58 C 0.49085(18) 0.1611(2) 0.09883(13)
H38 H 0.510616 0.143963 0.079923
C59 C 0.4521(2) 0.1827(2) 0.07989(12)
H39 H 0.445897 0.179994 0.048323
C60 C 0.42252(18) 0.2083(2) 0.10815(15)
H40 H 0.396581 0.222767 0.095479
C61 C 0.40175(15) 0.24246(16) 0.18596(14)
C62 C 0.35384(15) 0.24152(17) 0.18031(16)
H41 H 0.340598 0.222398 0.157929
C63 C 0.32573(11) 0.26917(19) 0.20812(18)
H42 H 0.293676 0.268542 0.204344
C64 C 0.34553(13) 0.29775(17) 0.24157(15)
H43 H 0.326718 0.316248 0.260181
C65 C 0.39344(13) 0.29869(14) 0.24722(14)
C66 C 0.42155(10) 0.27104(16) 0.21941(15)
H44 H 0.453603 0.271665 0.223188
C67 C 0.6821(2) 0.1031(3) 0.2389(2)
H45 H 0.698193 0.076336 0.225457
C68 C 0.7092(3) 0.1474(3) 0.2272(3)
H46 H 0.707663 0.152969 0.194427
H47 H 0.740982 0.143735 0.236448
H48 H 0.695784 0.173200 0.243527
Zn9 Zn 0.41385(3) 0.62124(3) 0.23584(3)
O29 O 0.35712(13) 0.60727(14) 0.18876(13)
O30 O 0.54324(15) 0.82707(15) 0.20797(15)
O31 O 0.61398(15) 0.85576(15) 0.19611(14)
O32 O 0.36301(15) 0.60519(17) 0.27870(14)
O33 O 0.28257(16) 0.58573(18) 0.18830(16)
O34 O 0.42882(17) 0.62895(15) 0.36087(15)
O35 O 0.45907(17) 0.63573(17) 0.29012(15)
C69 C 0.5867(2) 0.8294(2) 0.2160(2)
C70 C 0.4593(2) 0.6416(2) 0.3331(2)
C71 C 0.3200(2) 0.5974(2) 0.2082(2)
C72 C 0.56825(16) 0.71236(19) 0.34467(14)
C73 C 0.52947(16) 0.69077(17) 0.32573(10)
H49 H 0.523297 0.693477 0.294163
C74 C 0.49992(14) 0.66515(17) 0.35399(14)
C75 C 0.50915(18) 0.6611(2) 0.40117(13)
H50 H 0.489384 0.643963 0.420077
C76 C 0.5479(2) 0.6827(2) 0.42011(12)
H51 H 0.554103 0.679994 0.451677
C77 C 0.57748(18) 0.7083(2) 0.39185(15)
H52 H 0.603419 0.722767 0.404521
C78 C 0.59825(15) 0.74246(16) 0.31404(14)
C79 C 0.64616(15) 0.74152(17) 0.31969(16)
H53 H 0.659402 0.722398 0.342071
C80 C 0.67427(11) 0.76917(19) 0.29188(18)
H54 H 0.706324 0.768542 0.295656
C81 C 0.65447(13) 0.79775(17) 0.25843(15)
H55 H 0.673282 0.816248 0.239819
C82 C 0.60656(13) 0.79869(14) 0.25278(14)
C83 C 0.57845(10) 0.77104(16) 0.28059(15)
H56 H 0.546397 0.771665 0.276812
C84 C 0.3179(2) 0.6031(3) 0.2611(2)
H57 H 0.301807 0.576336 0.274543
C85 C 0.2908(3) 0.6474(3) 0.2728(3)
H58 H 0.292337 0.652969 0.305573
H59 H 0.259018 0.643735 0.263552
H60 H 0.304216 0.673200 0.256473
Zn10 Zn 0.48584(3) 0.37124(3) 0.33615(3)
O36 O 0.43876(13) 0.35727(14) 0.39288(13)
O37 O 0.45797(15) 0.57707(15) 0.20676(15)
O38 O 0.44611(14) 0.60576(15) 0.13602(15)
O39 O 0.52870(14) 0.35519(17) 0.38699(15)
O40 O 0.43830(16) 0.33573(18) 0.46743(16)
O41 O 0.61087(15) 0.37895(15) 0.32118(17)
O42 O 0.54012(15) 0.38573(17) 0.29093(17)
C86 C 0.4660(2) 0.5794(2) 0.1633(2)
C87 C 0.5831(2) 0.3916(2) 0.2907(2)
C88 C 0.4582(2) 0.3474(2) 0.4300(2)
C89 C 0.59467(14) 0.46236(19) 0.18175(16)
C90 C 0.57573(10) 0.44077(17) 0.22053(16)
H61 H 0.544163 0.443477 0.226703
C91 C 0.60399(14) 0.41515(17) 0.25008(14)
C92 C 0.65117(13) 0.4111(2) 0.24085(18)
H62 H 0.670077 0.393963 0.260616
C93 C 0.67011(12) 0.4327(2) 0.2021(2)
H63 H 0.701677 0.429994 0.195897
C94 C 0.64185(15) 0.4583(2) 0.17252(18)
H64 H 0.654521 0.472767 0.146581
C95 C 0.56404(14) 0.49246(16) 0.15175(15)
C96 C 0.56969(16) 0.49152(17) 0.10384(15)
H65 H 0.592071 0.472398 0.090598
C97 C 0.54188(18) 0.51917(19) 0.07573(11)
H66 H 0.545656 0.518542 0.043676
C98 C 0.50843(15) 0.54775(17) 0.09553(13)
H67 H 0.489819 0.566248 0.076718
C99 C 0.50278(14) 0.54869(14) 0.14344(13)
C100 C 0.53059(15) 0.52104(16) 0.17155(10)
H68 H 0.526812 0.521665 0.203603
C101 C 0.5111(2) 0.3531(3) 0.4321(2)
H69 H 0.524543 0.326336 0.448193
C102 C 0.5228(3) 0.3974(3) 0.4592(3)
H70 H 0.555573 0.402969 0.457663
H71 H 0.513552 0.393735 0.490982
H72 H 0.506473 0.423200 0.445784
Zn11 Zn 0.40805(3) 0.84195(3) 0.125000
Zn12 Zn 0.62869(2) 0.87131(2) 0.12869(2)
Zn13 Zn 0.62131(2) 0.12131(2) 0.37869(2)
Zn14 Zn 0.12131(2) 0.37869(2) 0.62131(2)
Zn15 Zn 0.37869(2) 0.62131(2) 0.12131(2)
Zn16 Zn 0.59195(3) 0.34195(3) 0.375000
Zn17 Zn 0.625000 0.09195(3) 0.15805(3)
Zn18 Zn 0.375000 0.59195(3) 0.34195(3)
Zn19 Zn 0.73584(3) 0.08615(3) 0.37876(3)
Zn20 Zn 0.08615(3) 0.37876(3) 0.73584(3)
Zn21 Zn 0.33615(3) 0.48584(3) 0.37124(3)
Zn22 Zn 0.51416(3) 0.87124(3) 0.16385(3)
Zn23 Zn 0.37124(3) 0.33615(3) 0.48584(3)
O43 O 0.39288(13) 0.43876(13) 0.35727(14)
O46 O 0.35727(14) 0.39288(13) 0.43876(13)
O48 O 0.29324(15) 0.54203(15) 0.07707(15)
O49 O 0.54203(15) 0.07707(15) 0.29324(15)
O50 O 0.07707(15) 0.29324(15) 0.54203(15)
O51 O 0.42293(15) 0.70676(15) 0.04203(15)
O54 O 0.47130(14) 0.85519(17) 0.11301(15)
O55 O 0.02870(14) 0.14481(17) 0.61301(15)
O56 O 0.14481(17) 0.61301(15) 0.02870(14)
O57 O 0.18830(16) 0.28257(16) 0.58573(18)
O58 O 0.58573(18) 0.18830(16) 0.28257(16)
O59 O 0.46743(16) 0.43830(16) 0.33573(18)
O60 O 0.38913(15) 0.87895(15) 0.17882(17)
O61 O 0.11087(15) 0.12105(15) 0.67882(17)
O62 O 0.12105(15) 0.67882(17) 0.11087(15)
Zn6 Zn 0.12869(2) 0.62869(2) 0.87131(2)
O16 O 0.17293(15) 0.70797(15) 0.95676(15)
O17 O 0.14424(15) 0.69611(14) 0.88602(15)
C35 C 0.1706(2) 0.7160(2) 0.9133(2)
C38 C 0.28764(19) 0.84467(14) 0.93175(16)
C39 C 0.30923(17) 0.82573(10) 0.97053(16)
H25 H 0.306523 0.794163 0.976703
C41 C 0.3389(2) 0.90117(13) 0.99085(18)
C42 C 0.3173(2) 0.92011(12) 0.9521(2)
H27 H 0.320006 0.951677 0.945897
C43 C 0.2917(2) 0.89185(15) 0.92252(18)
H28 H 0.277233 0.904521 0.896581
C44 C 0.25754(16) 0.81404(14) 0.90175(15)
C45 C 0.25848(17) 0.81969(16) 0.85384(15)
H29 H 0.277602 0.842071 0.840598
C46 C 0.23083(19) 0.79188(18) 0.82573(11)
H30 H 0.231458 0.795656 0.793676
C47 C 0.20225(17) 0.75843(15) 0.84553(13)
H31 H 0.183752 0.739819 0.826718
C48 C 0.20131(14) 0.75278(14) 0.89344(13)
C49 C 0.22896(16) 0.78059(15) 0.92155(10)
H32 H 0.228335 0.776812 0.953603
Zn24 Zn 0.12876(3) 0.66385(3) 0.98584(3)
O44 O 0.10712(13) 0.56124(13) 0.85727(14)
O45 O 0.06124(13) 0.64273(14) 0.89288(13)
O47 O 0.14273(14) 0.60712(13) 0.93876(13)
O52 O 0.19611(14) 0.61398(15) 0.85576(15)
O53 O 0.11398(15) 0.64424(15) 0.80389(14)
Zn2_2 Zn 0.34195(3) 0.375000 0.59195(3)
Zn3_2 Zn 0.23584(3) 0.41385(3) 0.62124(3)
O1_2 O 0.18876(13) 0.35712(13) 0.60727(14)
O2_2 O 0.20797(15) 0.54324(15) 0.82707(15)
O4_2 O 0.27870(14) 0.36301(15) 0.60519(17)
O6_2 O 0.36087(15) 0.42882(17) 0.62895(15)
O7_2 O 0.29012(15) 0.45907(17) 0.63573(17)
C1_2 C 0.2160(2) 0.5867(2) 0.8294(2)
C2_2 C 0.3331(2) 0.4593(2) 0.6416(2)
C3_2 C 0.2082(2) 0.3200(2) 0.5974(2)
C4_2 C 0.34467(14) 0.56825(16) 0.71236(19)
C5_2 C 0.32573(10) 0.52947(16) 0.69077(17)
H1_2 H 0.294163 0.523297 0.693477
C6_2 C 0.35399(14) 0.49992(14) 0.66515(17)
C7_2 C 0.40117(13) 0.50915(18) 0.6611(2)
H2_2 H 0.420077 0.489384 0.643963
C8_2 C 0.42011(12) 0.5479(2) 0.6827(2)
H3_2 H 0.451677 0.554103 0.679994
C9_2 C 0.39185(15) 0.57748(18) 0.7083(2)
H4_2 H 0.404521 0.603419 0.722767
C10_2 C 0.31404(14) 0.59825(15) 0.74246(16)
C11_2 C 0.31969(16) 0.64616(15) 0.74152(17)
H5_2 H 0.342071 0.659402 0.722398
C12_2 C 0.29188(18) 0.67427(11) 0.76917(19)
H6_2 H 0.295656 0.706324 0.768542
C13_2 C 0.25843(15) 0.65447(13) 0.79775(17)
H7_2 H 0.239819 0.673282 0.816248
C14_2 C 0.25278(14) 0.60656(13) 0.79869(14)
C15_2 C 0.28059(15) 0.57845(10) 0.77104(16)
H8_2 H 0.276812 0.546397 0.771665
C16_2 C 0.2611(2) 0.3179(2) 0.6031(3)
H9_2 H 0.274543 0.301807 0.576336
C17_2 C 0.2728(3) 0.2908(3) 0.6474(3)
H10_2 H 0.305573 0.292337 0.652969
H11_2 H 0.263552 0.259018 0.643735
H12_2 H 0.256473 0.304216 0.673200
O23_2 O 0.04324(15) 0.67293(15) 0.79203(15)
C52_2 C 0.0867(2) 0.6706(2) 0.7840(2)
C55_2 C 0.06825(16) 0.78764(19) 0.65533(14)
C56_2 C 0.02947(16) 0.80923(17) 0.67427(10)
H37_2 H 0.023297 0.806523 0.705837
C58_2 C 0.00915(18) 0.8389(2) 0.59883(13)
C59_2 C 0.0479(2) 0.8173(2) 0.57989(12)
H39_2 H 0.054103 0.820006 0.548323
C60_2 C 0.07748(18) 0.7917(2) 0.60815(15)
H40_2 H 0.103419 0.777233 0.595479
C61_2 C 0.09825(15) 0.75754(16) 0.68596(14)
C62_2 C 0.14616(15) 0.75848(17) 0.68031(16)
H41_2 H 0.159402 0.777602 0.657929
C63_2 C 0.17427(11) 0.73083(19) 0.70812(18)
H42_2 H 0.206324 0.731458 0.704344
C64_2 C 0.15447(13) 0.70225(17) 0.74157(15)
H43_2 H 0.173282 0.683752 0.760181
C65_2 C 0.10656(13) 0.70131(14) 0.74722(14)
C66_2 C 0.07845(10) 0.72896(16) 0.71941(15)
H44_2 H 0.046397 0.728335 0.723188
O29_2 O 0.14288(13) 0.39273(14) 0.68876(13)
O32_2 O 0.13699(15) 0.39481(17) 0.77870(14)
O33_2 O 0.21743(16) 0.41427(18) 0.68830(16)
O34_2 O 0.07118(17) 0.37105(15) 0.86087(15)
O35_2 O 0.04093(17) 0.36427(17) 0.79012(15)
C70_2 C 0.0407(2) 0.3584(2) 0.8331(2)
C71_2 C 0.1800(2) 0.4026(2) 0.7082(2)
C74_2 C 0.00008(14) 0.33485(17) 0.85399(14)
H50_2 H 0.010616 0.356037 0.920077
C84_2 C 0.1821(2) 0.3969(3) 0.7611(2)
H57_2 H 0.198193 0.423664 0.774543
C85_2 C 0.2092(3) 0.3526(3) 0.7728(3)
H58_2 H 0.207663 0.347031 0.805573
H59_2 H 0.240982 0.356265 0.763552
H60_2 H 0.195784 0.326800 0.756473
Zn10_2 Zn 0.01416(3) 0.62876(3) 0.83615(3)
O37_2 O 0.04203(15) 0.42293(15) 0.70676(15)
O38_2 O 0.05389(14) 0.39424(15) 0.63602(15)
O40_2 O 0.06170(16) 0.66427(18) 0.96743(16)
C86_2 C 0.0340(2) 0.4206(2) 0.6633(2)
C88_2 C 0.0418(2) 0.6526(2) 0.9300(2)
H67_2 H 0.010181 0.433752 0.576718
Zn18_2 Zn 0.125000 0.40805(3) 0.84195(3)
Zn21_2 Zn 0.16385(3) 0.51416(3) 0.87124(3)
O48_2 O 0.20676(15) 0.45797(15) 0.57707(15)
O56_2 O 0.35519(17) 0.38699(15) 0.52870(14)
O59_2 O 0.03257(16) 0.56170(16) 0.83573(18)
O62_2 O 0.37895(15) 0.32118(17) 0.61087(15)
Zn8_2 Zn 0.91385(3) 0.87876(3) 0.76416(3)
O22_2 O 0.85712(13) 0.89273(14) 0.81124(13)
O25_2 O 0.86301(15) 0.89481(17) 0.72130(14)
O26_2 O 0.78257(16) 0.91427(18) 0.81170(16)
O27_2 O 0.92882(17) 0.87105(15) 0.63913(15)
O28_2 O 0.95907(17) 0.86427(17) 0.70988(15)
C53_2 C 0.9593(2) 0.8584(2) 0.6669(2)
C54_2 C 0.8200(2) 0.9026(2) 0.7918(2)
C57_2 C 0.99992(14) 0.83485(17) 0.64601(14)
H38_2 H 0.989384 0.856037 0.579923
C67_2 C 0.8179(2) 0.8969(3) 0.7389(2)
H45_2 H 0.801807 0.923664 0.725457
C68_2 C 0.7908(3) 0.8526(3) 0.7272(3)
H46_2 H 0.792337 0.847031 0.694427
H47_2 H 0.759018 0.856265 0.736448
H48_2 H 0.804216 0.826800 0.743527
O30_2 O 0.95676(15) 0.17293(15) 0.70797(15)
O31_2 O 0.88602(15) 0.14424(15) 0.69611(14)
C69_2 C 0.9133(2) 0.1706(2) 0.7160(2)
C72_2 C 0.93175(16) 0.28764(19) 0.84467(14)
C73_2 C 0.97053(16) 0.30923(17) 0.82573(10)
H49_2 H 0.976703 0.306523 0.794163
C75_2 C 0.99085(18) 0.3389(2) 0.90117(13)
C76_2 C 0.9521(2) 0.3173(2) 0.92011(12)
H51_2 H 0.945897 0.320006 0.951677
C77_2 C 0.92252(18) 0.2917(2) 0.89185(15)
H52_2 H 0.896581 0.277233 0.904521
C78_2 C 0.90175(15) 0.25754(16) 0.81404(14)
C79_2 C 0.85384(15) 0.25848(17) 0.81969(16)
H53_2 H 0.840598 0.277602 0.842071
C80_2 C 0.82573(11) 0.23083(19) 0.79188(18)
H54_2 H 0.793676 0.231458 0.795656
C81_2 C 0.84553(13) 0.20225(17) 0.75843(15)
H55_2 H 0.826718 0.183752 0.739819
C82_2 C 0.89344(13) 0.20131(14) 0.75278(14)
C83_2 C 0.92155(10) 0.22896(16) 0.78059(15)
H56_2 H 0.953603 0.228335 0.776812
O39_2 O 0.97130(14) 0.64481(17) 0.88699(15)
O41_2 O 0.88913(15) 0.62105(15) 0.82118(17)
O42_2 O 0.95988(15) 0.61427(17) 0.79093(17)
C87_2 C 0.9169(2) 0.6084(2) 0.7907(2)
C89_2 C 0.90533(14) 0.53764(19) 0.68175(16)
C90_2 C 0.92427(10) 0.55923(17) 0.72053(16)
H61_2 H 0.955837 0.556523 0.726703
C91_2 C 0.89601(14) 0.58485(17) 0.75008(14)
C92_2 C 0.84883(13) 0.5889(2) 0.74085(18)
H62_2 H 0.829923 0.606037 0.760616
C93_2 C 0.82989(12) 0.5673(2) 0.7021(2)
H63_2 H 0.798323 0.570006 0.695897
C94_2 C 0.85815(15) 0.5417(2) 0.67252(18)
H64_2 H 0.845479 0.527233 0.646581
C95_2 C 0.93596(14) 0.50754(16) 0.65175(15)
C96_2 C 0.93031(16) 0.50848(17) 0.60384(15)
H65_2 H 0.907929 0.527602 0.590598
C97_2 C 0.95812(18) 0.48083(19) 0.57573(11)
H66_2 H 0.954344 0.481458 0.543676
C98_2 C 0.99157(15) 0.45225(17) 0.59553(13)
C99_2 C 0.99722(14) 0.45131(14) 0.64344(13)
C100_2 C 0.96941(15) 0.47896(16) 0.67155(10)
H68_2 H 0.973188 0.478335 0.703603
C101_2 C 0.9889(2) 0.6469(3) 0.9321(2)
H69_2 H 0.975457 0.673664 0.948193
C102_2 C 0.9772(3) 0.6026(3) 0.9592(3)
H70_2 H 0.944427 0.597031 0.957663
H71_2 H 0.986448 0.606265 0.990982
H72_2 H 0.993527 0.576800 0.945784
Zn12_2 Zn 0.87131(2) 0.12869(2) 0.62869(2)
Zn13_2 Zn 0.87869(2) 0.87869(2) 0.87869(2)
Zn16_2 Zn 0.90805(3) 0.65805(3) 0.875000
Zn17_2 Zn 0.875000 0.90805(3) 0.65805(3)
Zn19_2 Zn 0.76416(3) 0.91385(3) 0.87876(3)
Zn22_2 Zn 0.98584(3) 0.12876(3) 0.66385(3)
O49_2 O 0.95797(15) 0.92293(15) 0.79324(15)
O58_2 O 0.91427(18) 0.81170(16) 0.78257(16)
Zn2_3 Zn 0.84195(3) 0.125000 0.40805(3)
O1_3 O 0.68876(13) 0.14288(13) 0.39273(14)
O4_3 O 0.77870(14) 0.13699(15) 0.39481(17)
O5_2 O 0.68830(16) 0.21743(16) 0.41427(18)
O6_3 O 0.86087(15) 0.07118(17) 0.37105(15)
O7_3 O 0.79012(15) 0.04093(17) 0.36427(17)
C2_3 C 0.8331(2) 0.0407(2) 0.3584(2)
C3_3 C 0.7082(2) 0.1800(2) 0.4026(2)
C6_3 C 0.85399(14) 0.00008(14) 0.33485(17)
H2_3 H 0.920077 0.010616 0.356037
C16_3 C 0.7611(2) 0.1821(2) 0.3969(3)
H9_3 H 0.774543 0.198193 0.423664
C17_3 C 0.7728(3) 0.2092(3) 0.3526(3)
H10_3 H 0.805573 0.207663 0.347031
H11_3 H 0.763552 0.240982 0.356265
H12_3 H 0.756473 0.195784 0.326800
Zn7_2 Zn 0.62124(3) 0.23584(3) 0.41385(3)
O15_2 O 0.60727(14) 0.18876(13) 0.35712(13)
O16_2 O 0.82707(15) 0.20797(15) 0.54324(15)
O17_2 O 0.85576(15) 0.19611(14) 0.61398(15)
O18_2 O 0.60519(17) 0.27870(14) 0.36301(15)
O20_2 O 0.62895(15) 0.36087(15) 0.42882(17)
O21_2 O 0.63573(17) 0.29012(15) 0.45907(17)
C35_2 C 0.8294(2) 0.2160(2) 0.5867(2)
C36_2 C 0.6416(2) 0.3331(2) 0.4593(2)
C37_2 C 0.5974(2) 0.2082(2) 0.3200(2)
C38_2 C 0.71236(19) 0.34467(14) 0.56825(16)
C39_2 C 0.69077(17) 0.32573(10) 0.52947(16)
H25_2 H 0.693477 0.294163 0.523297
C40_2 C 0.66515(17) 0.35399(14) 0.49992(14)
C41_2 C 0.6611(2) 0.40117(13) 0.50915(18)
H26_2 H 0.643963 0.420077 0.489384
C42_2 C 0.6827(2) 0.42011(12) 0.5479(2)
H27_2 H 0.679994 0.451677 0.554103
C43_2 C 0.7083(2) 0.39185(15) 0.57748(18)
H28_2 H 0.722767 0.404521 0.603419
C44_2 C 0.74246(16) 0.31404(14) 0.59825(15)
C45_2 C 0.74152(17) 0.31969(16) 0.64616(15)
H29_2 H 0.722398 0.342071 0.659402
C46_2 C 0.76917(19) 0.29188(18) 0.67427(11)
H30_2 H 0.768542 0.295656 0.706324
C47_2 C 0.79775(17) 0.25843(15) 0.65447(13)
H31_2 H 0.816248 0.239819 0.673282
C48_2 C 0.79869(14) 0.25278(14) 0.60656(13)
C49_2 C 0.77104(16) 0.28059(15) 0.57845(10)
H32_2 H 0.771665 0.276812 0.546397
C50_2 C 0.6031(3) 0.2611(2) 0.3179(2)
H33_2 H 0.576336 0.274543 0.301807
C51_2 C 0.6474(3) 0.2728(3) 0.2908(3)
H34_2 H 0.652969 0.305573 0.292337
H35_2 H 0.643735 0.263552 0.259018
H36_2 H 0.673200 0.256473 0.304216
O38_3 O 0.55389(14) 0.10576(15) 0.36398(15)
C86_3 C 0.5340(2) 0.0794(2) 0.3367(2)
C97_3 C 0.45812(18) 0.01917(19) 0.42427(11)
H66_3 H 0.454344 0.018542 0.456324
C98_3 C 0.49157(15) 0.04775(17) 0.40447(13)
H67_3 H 0.510181 0.066248 0.423282
C99_3 C 0.49722(14) 0.04869(14) 0.35656(13)
C100_3 C 0.46941(15) 0.02104(16) 0.32845(10)
H68_3 H 0.473188 0.021665 0.296397
Zn24_2 Zn 0.87124(3) 0.16385(3) 0.51416(3)
O44_2 O 0.89288(13) 0.06124(13) 0.64273(14)
O45_2 O 0.93876(13) 0.14273(14) 0.60712(13)
O47_2 O 0.85727(14) 0.10712(13) 0.56124(13)
O48_3 O 0.70676(15) 0.04203(15) 0.42293(15)
O51_2 O 0.57707(15) 0.20676(15) 0.45797(15)
O52_2 O 0.80389(14) 0.11398(15) 0.64424(15)
O56_3 O 0.85519(17) 0.11301(15) 0.47130(14)
O62_3 O 0.87895(15) 0.17882(17) 0.38913(15)
O2_3 O 0.70797(15) 0.95676(15) 0.17293(15)
O3_2 O 0.69611(14) 0.88602(15) 0.14424(15)
C1_3 C 0.7160(2) 0.9133(2) 0.1706(2)
C4_3 C 0.84467(14) 0.93175(16) 0.28764(19)
C5_3 C 0.82573(10) 0.97053(16) 0.30923(17)
H1_3 H 0.794163 0.976703 0.306523
C7_3 C 0.90117(13) 0.99085(18) 0.3389(2)
C8_3 C 0.92011(12) 0.9521(2) 0.3173(2)
H3_3 H 0.951677 0.945897 0.320006
C9_3 C 0.89185(15) 0.92252(18) 0.2917(2)
H4_3 H 0.904521 0.896581 0.277233
C10_3 C 0.81404(14) 0.90175(15) 0.25754(16)
C11_3 C 0.81969(16) 0.85384(15) 0.25848(17)
H5_3 H 0.842071 0.840598 0.277602
C12_3 C 0.79188(18) 0.82573(11) 0.23083(19)
H6_3 H 0.795656 0.793676 0.231458
C13_3 C 0.75843(15) 0.84553(13) 0.20225(17)
H7_3 H 0.739819 0.826718 0.183752
C14_3 C 0.75278(14) 0.89344(13) 0.20131(14)
C15_3 C 0.78059(15) 0.92155(10) 0.22896(16)
H8_3 H 0.776812 0.953603 0.228335
O9_2 O 0.67293(15) 0.79203(15) 0.04324(15)
O10_2 O 0.64424(15) 0.80389(14) 0.11398(15)
C18_2 C 0.6706(2) 0.7840(2) 0.0867(2)
C21_2 C 0.78764(19) 0.65533(14) 0.06825(16)
C22_2 C 0.80923(17) 0.67427(10) 0.02947(16)
H13_2 H 0.806523 0.705837 0.023297
C24_2 C 0.8389(2) 0.59883(13) 0.00915(18)
C25_2 C 0.8173(2) 0.57989(12) 0.0479(2)
H15_2 H 0.820006 0.548323 0.054103
C26_2 C 0.7917(2) 0.60815(15) 0.07748(18)
H16_2 H 0.777233 0.595479 0.103419
C27_2 C 0.75754(16) 0.68596(14) 0.09825(15)
C28_2 C 0.75848(17) 0.68031(16) 0.14616(15)
H17_2 H 0.777602 0.657929 0.159402
C29_2 C 0.73083(19) 0.70812(18) 0.17427(11)
H18_2 H 0.731458 0.704344 0.206324
C30_2 C 0.70225(17) 0.74157(15) 0.15447(13)
H19_2 H 0.683752 0.760181 0.173282
C31_2 C 0.70131(14) 0.74722(14) 0.10656(13)
C32_2 C 0.72896(16) 0.71941(15) 0.07845(10)
H20_2 H 0.728335 0.723188 0.046397
O36_2 O 0.56124(13) 0.85727(14) 0.10712(13)
O40_3 O 0.56170(16) 0.83573(18) 0.03257(16)
O42_3 O 0.45988(15) 0.88573(17) 0.20907(17)
C87_3 C 0.4169(2) 0.8916(2) 0.2093(2)
C88_3 C 0.5418(2) 0.8474(2) 0.0700(2)
C89_3 C 0.40533(14) 0.96236(19) 0.31825(16)
C90_3 C 0.42427(10) 0.94077(17) 0.27947(16)
H61_3 H 0.455837 0.943477 0.273297
C91_3 C 0.39601(14) 0.91515(17) 0.24992(14)
C92_3 C 0.34883(13) 0.9111(2) 0.25915(18)
H62_3 H 0.329923 0.893963 0.239384
C93_3 C 0.32989(12) 0.9327(2) 0.2979(2)
H63_3 H 0.298323 0.929994 0.304103
C94_3 C 0.35815(15) 0.9583(2) 0.32748(18)
H64_3 H 0.345479 0.972767 0.353419
C95_3 C 0.43596(14) 0.99246(16) 0.34825(15)
C96_3 C 0.43031(16) 0.99152(17) 0.39616(15)
H65_3 H 0.407929 0.972398 0.409402
C101_3 C 0.4889(2) 0.8531(3) 0.0679(2)
H69_3 H 0.475457 0.826336 0.051807
C102_3 C 0.4772(3) 0.8974(3) 0.0408(3)
H70_3 H 0.444427 0.902969 0.042337
H71_3 H 0.486448 0.893735 0.009018
H72_3 H 0.493527 0.923200 0.054216
Zn21_3 Zn 0.66385(3) 0.98584(3) 0.12876(3)
Zn23_2 Zn 0.62876(3) 0.83615(3) 0.01416(3)
O43_2 O 0.60712(13) 0.93876(13) 0.14273(14)
O46_2 O 0.64273(14) 0.89288(13) 0.06124(13)
O59_3 O 0.53257(16) 0.93830(16) 0.16427(18)
Zn5_2 Zn 0.87876(3) 0.76416(3) 0.91385(3)
O8_2 O 0.89273(14) 0.81124(13) 0.85712(13)
O11_2 O 0.89481(17) 0.72130(14) 0.86301(15)
O13_2 O 0.87105(15) 0.63913(15) 0.92882(17)
O14_2 O 0.86427(17) 0.70988(15) 0.95907(17)
C19_2 C 0.8584(2) 0.6669(2) 0.9593(2)
C20_2 C 0.9026(2) 0.7918(2) 0.8200(2)
C23_2 C 0.83485(17) 0.64601(14) 0.99992(14)
H14_2 H 0.856037 0.579923 0.989384
C33_2 C 0.8969(3) 0.7389(2) 0.8179(2)
H21_2 H 0.923664 0.725457 0.801807
C34_2 C 0.8526(3) 0.7272(3) 0.7908(3)
H22_2 H 0.847031 0.694427 0.792337
H23_2 H 0.856265 0.736448 0.759018
H24_2 H 0.826800 0.743527 0.804216
O50_2 O 0.92293(15) 0.79324(15) 0.95797(15)
O57_2 O 0.81170(16) 0.78257(16) 0.91427(18)
O42_4 O 0.04012(15) 0.11427(17) 0.70907(17)
C87_4 C 0.0831(2) 0.1084(2) 0.7093(2)
C89_4 C 0.09467(14) 0.03764(19) 0.81825(16)
C90_4 C 0.07573(10) 0.05923(17) 0.77947(16)
H61_4 H 0.044163 0.056523 0.773297
C91_4 C 0.10399(14) 0.08485(17) 0.74992(14)
C92_4 C 0.15117(13) 0.0889(2) 0.75915(18)
H62_4 H 0.170077 0.106037 0.739384
C93_4 C 0.17011(12) 0.0673(2) 0.7979(2)
H63_4 H 0.201677 0.070006 0.804103
C94_4 C 0.14185(15) 0.0417(2) 0.82748(18)
H64_4 H 0.154521 0.027233 0.853419
C95_4 C 0.06404(14) 0.00754(16) 0.84825(15)
C96_4 C 0.06969(16) 0.00848(17) 0.89616(15)
H65_4 H 0.092071 0.027602 0.909402
C101_4 C 0.0111(2) 0.1469(3) 0.5679(2)
H69_4 H 0.024543 0.173664 0.551807
C102_4 C 0.0228(3) 0.1026(3) 0.5408(3)
H70_4 H 0.055573 0.097031 0.542337
H71_4 H 0.013552 0.106265 0.509018
H72_4 H 0.006473 0.076800 0.554216
C97_4 C 0.04188(18) 0.98083(19) 0.92427(11)
H66_4 H 0.045656 0.981458 0.956324
C98_4 C 0.00843(15) 0.95225(17) 0.90447(13)
C99_4 C 0.00278(14) 0.95131(14) 0.85656(13)
C100_4 C 0.03059(15) 0.97896(16) 0.82845(10)
H68_4 H 0.026812 0.978335 0.796397
O2_4 O 0.79203(15) 0.04324(15) 0.67293(15)
C1_4 C 0.7840(2) 0.0867(2) 0.6706(2)
C4_4 C 0.65533(14) 0.06825(16) 0.78764(19)
C5_4 C 0.67427(10) 0.02947(16) 0.80923(17)
H1_4 H 0.705837 0.023297 0.806523
C7_4 C 0.59883(13) 0.00915(18) 0.8389(2)
C8_4 C 0.57989(12) 0.0479(2) 0.8173(2)
H3_4 H 0.548323 0.054103 0.820006
C9_4 C 0.60815(15) 0.07748(18) 0.7917(2)
H4_4 H 0.595479 0.103419 0.777233
C10_4 C 0.68596(14) 0.09825(15) 0.75754(16)
C11_4 C 0.68031(16) 0.14616(15) 0.75848(17)
H5_4 H 0.657929 0.159402 0.777602
C12_4 C 0.70812(18) 0.17427(11) 0.73083(19)
H6_4 H 0.704344 0.206324 0.731458
C13_4 C 0.74157(15) 0.15447(13) 0.70225(17)
H7_4 H 0.760181 0.173282 0.683752
C14_4 C 0.74722(14) 0.10656(13) 0.70131(14)
C15_4 C 0.71941(15) 0.07845(10) 0.72896(16)
H8_4 H 0.723188 0.046397 0.728335
O40_4 O 0.93830(16) 0.16427(18) 0.53257(16)
C88_4 C 0.9582(2) 0.1526(2) 0.5700(2)
Zn21_4 Zn 0.83615(3) 0.01416(3) 0.62876(3)
O59_4 O 0.96743(16) 0.06170(16) 0.66427(18)
Zn2_4 Zn 0.65805(3) 0.875000 0.90805(3)
O1_4 O 0.81124(13) 0.85712(13) 0.89273(14)
O4_4 O 0.72130(14) 0.86301(15) 0.89481(17)
O6_4 O 0.63913(15) 0.92882(17) 0.87105(15)
O7_4 O 0.70988(15) 0.95907(17) 0.86427(17)
C2_4 C 0.6669(2) 0.9593(2) 0.8584(2)
C3_4 C 0.7918(2) 0.8200(2) 0.9026(2)
C6_4 C 0.64601(14) 0.99992(14) 0.83485(17)
H2_4 H 0.579923 0.989384 0.856037
C16_4 C 0.7389(2) 0.8179(2) 0.8969(3)
H9_4 H 0.725457 0.801807 0.923664
C17_4 C 0.7272(3) 0.7908(3) 0.8526(3)
H10_4 H 0.694427 0.792337 0.847031
H11_4 H 0.736448 0.759018 0.856265
H12_4 H 0.743527 0.804216 0.826800
O38_4 O 0.94611(14) 0.89424(15) 0.86398(15)
C86_4 C 0.9660(2) 0.9206(2) 0.8367(2)
H67_4 H 0.989819 0.933752 0.923282
O48_4 O 0.79324(15) 0.95797(15) 0.92293(15)
O56_4 O 0.64481(17) 0.88699(15) 0.97130(14)
O62_4 O 0.62105(15) 0.82118(17) 0.88913(15)
O38_5 O 0.13602(15) 0.44611(14) 0.60576(15)
O39_3 O 0.38699(15) 0.52870(14) 0.35519(17)
O41_3 O 0.32118(17) 0.61087(15) 0.37895(15)
O42_5 O 0.29093(17) 0.54012(15) 0.38573(17)
C86_5 C 0.1633(2) 0.4660(2) 0.5794(2)
C87_5 C 0.2907(2) 0.5831(2) 0.3916(2)
C88_5 C 0.4300(2) 0.4582(2) 0.3474(2)
C89_5 C 0.18175(16) 0.59467(14) 0.46236(19)
C90_5 C 0.22053(16) 0.57573(10) 0.44077(17)
H61_5 H 0.226703 0.544163 0.443477
C91_5 C 0.25008(14) 0.60399(14) 0.41515(17)
C92_5 C 0.24085(18) 0.65117(13) 0.4111(2)
H62_5 H 0.260616 0.670077 0.393963
C93_5 C 0.2021(2) 0.67011(12) 0.4327(2)
H63_5 H 0.195897 0.701677 0.429994
C94_5 C 0.17252(18) 0.64185(15) 0.4583(2)
H64_5 H 0.146581 0.654521 0.472767
C95_5 C 0.15175(15) 0.56404(14) 0.49246(16)
C96_5 C 0.10384(15) 0.56969(16) 0.49152(17)
H65_5 H 0.090598 0.592071 0.472398
C97_5 C 0.07573(11) 0.54188(18) 0.51917(19)
H66_5 H 0.043676 0.545656 0.518542
C98_5 C 0.09553(13) 0.50843(15) 0.54775(17)
H67_5 H 0.076718 0.489819 0.566248
C99_5 C 0.14344(13) 0.50278(14) 0.54869(14)
C100_5 C 0.17155(10) 0.53059(15) 0.52104(16)
H68_5 H 0.203603 0.526812 0.521665
C101_5 C 0.4321(2) 0.5111(2) 0.3531(3)
H69_5 H 0.448193 0.524543 0.326336
C102_5 C 0.4592(3) 0.5228(3) 0.3974(3)
H70_5 H 0.457663 0.555573 0.402969
H71_5 H 0.490982 0.513552 0.393735
H72_5 H 0.445784 0.506473 0.423200
O54_2 O 0.11301(15) 0.47130(14) 0.85519(17)
O55_2 O 0.61301(15) 0.02870(14) 0.14481(17)
O59_5 O 0.33573(18) 0.46743(16) 0.43830(16)
O60_2 O 0.17882(17) 0.38913(15) 0.87895(15)
O61_2 O 0.67882(17) 0.11087(15) 0.12105(15)
O38_6 O 0.63602(15) 0.05389(14) 0.39424(15)
C86_6 C 0.6633(2) 0.0340(2) 0.4206(2)
C88_6 C 0.9300(2) 0.0418(2) 0.6526(2)
H67_6 H 0.576718 0.010181 0.433752
O59_6 O 0.83573(18) 0.03257(16) 0.56170(16)
O39_4 O 0.88699(15) 0.97130(14) 0.64481(17)
O41_4 O 0.82118(17) 0.88913(15) 0.62105(15)
O42_6 O 0.79093(17) 0.95988(15) 0.61427(17)
C87_6 C 0.7907(2) 0.9169(2) 0.6084(2)
C89_6 C 0.68175(16) 0.90533(14) 0.53764(19)
C90_6 C 0.72053(16) 0.92427(10) 0.55923(17)
H61_6 H 0.726703 0.955837 0.556523
C91_6 C 0.75008(14) 0.89601(14) 0.58485(17)
C92_6 C 0.74085(18) 0.84883(13) 0.5889(2)
H62_6 H 0.760616 0.829923 0.606037
C93_6 C 0.7021(2) 0.82989(12) 0.5673(2)
H63_6 H 0.695897 0.798323 0.570006
C94_6 C 0.67252(18) 0.85815(15) 0.5417(2)
H64_6 H 0.646581 0.845479 0.527233
C95_6 C 0.65175(15) 0.93596(14) 0.50754(16)
C96_6 C 0.60384(15) 0.93031(16) 0.50848(17)
H65_6 H 0.590598 0.907929 0.527602
C97_6 C 0.57573(11) 0.95812(18) 0.48083(19)
H66_6 H 0.543676 0.954344 0.481458
C98_6 C 0.59553(13) 0.99157(15) 0.45225(17)
C99_6 C 0.64344(13) 0.99722(14) 0.45131(14)
C100_6 C 0.67155(10) 0.96941(15) 0.47896(16)
H68_6 H 0.703603 0.973188 0.478335
C101_6 C 0.9321(2) 0.9889(2) 0.6469(3)
H69_6 H 0.948193 0.975457 0.673664
C102_6 C 0.9592(3) 0.9772(3) 0.6026(3)
H70_6 H 0.957663 0.944427 0.597031
H71_6 H 0.990982 0.986448 0.606265
H72_6 H 0.945784 0.993527 0.576800
O38_7 O 0.36398(15) 0.55389(14) 0.10576(15)
C86_7 C 0.3367(2) 0.5340(2) 0.0794(2)
C97_7 C 0.42427(11) 0.45812(18) 0.01917(19)
H66_7 H 0.456324 0.454344 0.018542
C98_7 C 0.40447(13) 0.49157(15) 0.04775(17)
H67_7 H 0.423282 0.510181 0.066248
C99_7 C 0.35656(13) 0.49722(14) 0.04869(14)
C100_7 C 0.32845(10) 0.46941(15) 0.02104(16)
H68_7 H 0.296397 0.473188 0.021665
O42_7 O 0.20907(17) 0.45988(15) 0.88573(17)
C87_7 C 0.2093(2) 0.4169(2) 0.8916(2)
C88_7 C 0.0700(2) 0.5418(2) 0.8474(2)
C89_7 C 0.31825(16) 0.40533(14) 0.96236(19)
C90_7 C 0.27947(16) 0.42427(10) 0.94077(17)
H61_7 H 0.273297 0.455837 0.943477
C91_7 C 0.24992(14) 0.39601(14) 0.91515(17)
C92_7 C 0.25915(18) 0.34883(13) 0.9111(2)
H62_7 H 0.239384 0.329923 0.893963
C93_7 C 0.2979(2) 0.32989(12) 0.9327(2)
H63_7 H 0.304103 0.298323 0.929994
C94_7 C 0.32748(18) 0.35815(15) 0.9583(2)
H64_7 H 0.353419 0.345479 0.972767
C95_7 C 0.34825(15) 0.43596(14) 0.99246(16)
C96_7 C 0.39616(15) 0.43031(16) 0.99152(17)
H65_7 H 0.409402 0.407929 0.972398
C101_7 C 0.0679(2) 0.4889(2) 0.8531(3)
H69_7 H 0.051807 0.475457 0.826336
C102_7 C 0.0408(3) 0.4772(3) 0.8974(3)
H70_7 H 0.042337 0.444427 0.902969
H71_7 H 0.009018 0.486448 0.893735
H72_7 H 0.054216 0.493527 0.923200
O59_7 O 0.16427(18) 0.53257(16) 0.93830(16)
O42_8 O 0.70907(17) 0.04012(15) 0.11427(17)
C87_8 C 0.7093(2) 0.0831(2) 0.1084(2)
C89_8 C 0.81825(16) 0.09467(14) 0.03764(19)
C90_8 C 0.77947(16) 0.07573(10) 0.05923(17)
H61_8 H 0.773297 0.044163 0.056523
C91_8 C 0.74992(14) 0.10399(14) 0.08485(17)
C92_8 C 0.75915(18) 0.15117(13) 0.0889(2)
H62_8 H 0.739384 0.170077 0.106037
C93_8 C 0.7979(2) 0.17011(12) 0.0673(2)
H63_8 H 0.804103 0.201677 0.070006
C94_8 C 0.82748(18) 0.14185(15) 0.0417(2)
H64_8 H 0.853419 0.154521 0.027233
C95_8 C 0.84825(15) 0.06404(14) 0.00754(16)
C96_8 C 0.89616(15) 0.06969(16) 0.00848(17)
H65_8 H 0.909402 0.092071 0.027602
C101_8 C 0.5679(2) 0.0111(2) 0.1469(3)
H69_8 H 0.551807 0.024543 0.173664
C102_8 C 0.5408(3) 0.0228(3) 0.1026(3)
H70_8 H 0.542337 0.055573 0.097031
H71_8 H 0.509018 0.013552 0.106265
H72_8 H 0.554216 0.006473 0.076800
C97_8 C 0.92427(11) 0.04188(18) 0.98083(19)
H66_8 H 0.956324 0.045656 0.981458
C98_8 C 0.90447(13) 0.00843(15) 0.95225(17)
C99_8 C 0.85656(13) 0.00278(14) 0.95131(14)
C100_8 C 0.82845(10) 0.03059(15) 0.97896(16)
H68_8 H 0.796397 0.026812 0.978335
C88_8 C 0.5700(2) 0.9582(2) 0.1526(2)
O59_8 O 0.66427(18) 0.96743(16) 0.06170(16)
O38_8 O 0.86398(15) 0.94611(14) 0.89424(15)
C86_8 C 0.8367(2) 0.9660(2) 0.9206(2)
H67_8 H 0.923282 0.989819 0.933752
O38_9 O 0.60576(15) 0.13602(15) 0.44611(14)
O42_9 O 0.38573(17) 0.29093(17) 0.54012(15)
C86_9 C 0.5794(2) 0.1633(2) 0.4660(2)
C87_9 C 0.3916(2) 0.2907(2) 0.5831(2)
C88_9 C 0.3474(2) 0.4300(2) 0.4582(2)
C89_9 C 0.46236(19) 0.18175(16) 0.59467(14)
C90_9 C 0.44077(17) 0.22053(16) 0.57573(10)
H61_9 H 0.443477 0.226703 0.544163
C91_9 C 0.41515(17) 0.25008(14) 0.60399(14)
C92_9 C 0.4111(2) 0.24085(18) 0.65117(13)
H62_9 H 0.393963 0.260616 0.670077
C93_9 C 0.4327(2) 0.2021(2) 0.67011(12)
H63_9 H 0.429994 0.195897 0.701677
C94_9 C 0.4583(2) 0.17252(18) 0.64185(15)
H64_9 H 0.472767 0.146581 0.654521
C95_9 C 0.49246(16) 0.15175(15) 0.56404(14)
C96_9 C 0.49152(17) 0.10384(15) 0.56969(16)
H65_9 H 0.472398 0.090598 0.592071
C97_9 C 0.51917(19) 0.07573(11) 0.54188(18)
H66_9 H 0.518542 0.043676 0.545656
C98_9 C 0.54775(17) 0.09553(13) 0.50843(15)
H67_9 H 0.566248 0.076718 0.489819
C99_9 C 0.54869(14) 0.14344(13) 0.50278(14)
C100_9 C 0.52104(16) 0.17155(10) 0.53059(15)
H68_9 H 0.521665 0.203603 0.526812
C101_9 C 0.3531(3) 0.4321(2) 0.5111(2)
H69_9 H 0.326336 0.448193 0.524543
C102_9 C 0.3974(3) 0.4592(3) 0.5228(3)
H70_9 H 0.402969 0.457663 0.555573
H71_9 H 0.393735 0.490982 0.513552
H72_9 H 0.423200 0.445784 0.506473
O38_10 O 0.39424(15) 0.63602(15) 0.05389(14)
C86_10 C 0.4206(2) 0.6633(2) 0.0340(2)
C88_10 C 0.6526(2) 0.9300(2) 0.0418(2)
H67_10 H 0.433752 0.576718 0.010181
O42_10 O 0.61427(17) 0.79093(17) 0.95988(15)
C87_10 C 0.6084(2) 0.7907(2) 0.9169(2)
C89_10 C 0.53764(19) 0.68175(16) 0.90533(14)
C90_10 C 0.55923(17) 0.72053(16) 0.92427(10)
H61_10 H 0.556523 0.726703 0.955837
C91_10 C 0.58485(17) 0.75008(14) 0.89601(14)
C92_10 C 0.5889(2) 0.74085(18) 0.84883(13)
H62_10 H 0.606037 0.760616 0.829923
C93_10 C 0.5673(2) 0.7021(2) 0.82989(12)
H63_10 H 0.570006 0.695897 0.798323
C94_10 C 0.5417(2) 0.67252(18) 0.85815(15)
H64_10 H 0.527233 0.646581 0.845479
C95_10 C 0.50754(16) 0.65175(15) 0.93596(14)
C96_10 C 0.50848(17) 0.60384(15) 0.93031(16)
H65_10 H 0.527602 0.590598 0.907929
C97_10 C 0.48083(19) 0.57573(11) 0.95812(18)
H66_10 H 0.481458 0.543676 0.954344
C98_10 C 0.45225(17) 0.59553(13) 0.99157(15)
C99_10 C 0.45131(14) 0.64344(13) 0.99722(14)
C100_10 C 0.47896(16) 0.67155(10) 0.96941(15)
H68_10 H 0.478335 0.703603 0.973188
C101_10 C 0.6469(3) 0.9321(2) 0.9889(2)
H69_10 H 0.673664 0.948193 0.975457
C102_10 C 0.6026(3) 0.9592(3) 0.9772(3)
H70_10 H 0.597031 0.957663 0.944427
H71_10 H 0.606265 0.990982 0.986448
H72_10 H 0.576800 0.945784 0.993527
O38_11 O 0.10576(15) 0.36398(15) 0.55389(14)
C86_11 C 0.0794(2) 0.3367(2) 0.5340(2)
C97_11 C 0.01917(19) 0.42427(11) 0.45812(18)
H66_11 H 0.018542 0.456324 0.454344
C98_11 C 0.04775(17) 0.40447(13) 0.49157(15)
H67_11 H 0.066248 0.423282 0.510181
C99_11 C 0.04869(14) 0.35656(13) 0.49722(14)
C100_11 C 0.02104(16) 0.32845(10) 0.46941(15)
H68_11 H 0.021665 0.296397 0.473188
O42_11 O 0.88573(17) 0.20907(17) 0.45988(15)
C87_11 C 0.8916(2) 0.2093(2) 0.4169(2)
C88_11 C 0.8474(2) 0.0700(2) 0.5418(2)
C89_11 C 0.96236(19) 0.31825(16) 0.40533(14)
C90_11 C 0.94077(17) 0.27947(16) 0.42427(10)
H61_11 H 0.943477 0.273297 0.455837
C91_11 C 0.91515(17) 0.24992(14) 0.39601(14)
C92_11 C 0.9111(2) 0.25915(18) 0.34883(13)
H62_11 H 0.893963 0.239384 0.329923
C93_11 C 0.9327(2) 0.2979(2) 0.32989(12)
H63_11 H 0.929994 0.304103 0.298323
C94_11 C 0.9583(2) 0.32748(18) 0.35815(15)
H64_11 H 0.972767 0.353419 0.345479
C95_11 C 0.99246(16) 0.34825(15) 0.43596(14)
C96_11 C 0.99152(17) 0.39616(15) 0.43031(16)
H65_11 H 0.972398 0.409402 0.407929
C101_11 C 0.8531(3) 0.0679(2) 0.4889(2)
H69_11 H 0.826336 0.051807 0.475457
C102_11 C 0.8974(3) 0.0408(3) 0.4772(3)
H70_11 H 0.902969 0.042337 0.444427
H71_11 H 0.893735 0.009018 0.486448
H72_11 H 0.923200 0.054216 0.493527
O42_12 O 0.11427(17) 0.70907(17) 0.04012(15)
C87_12 C 0.1084(2) 0.7093(2) 0.0831(2)
C89_12 C 0.03764(19) 0.81825(16) 0.09467(14)
C90_12 C 0.05923(17) 0.77947(16) 0.07573(10)
H61_12 H 0.056523 0.773297 0.044163
C91_12 C 0.08485(17) 0.74992(14) 0.10399(14)
C92_12 C 0.0889(2) 0.75915(18) 0.15117(13)
H62_12 H 0.106037 0.739384 0.170077
C93_12 C 0.0673(2) 0.7979(2) 0.17011(12)
H63_12 H 0.070006 0.804103 0.201677
C94_12 C 0.0417(2) 0.82748(18) 0.14185(15)
H64_12 H 0.027233 0.853419 0.154521
C95_12 C 0.00754(16) 0.84825(15) 0.06404(14)
C96_12 C 0.00848(17) 0.89616(15) 0.06969(16)
H65_12 H 0.027602 0.909402 0.092071
C101_12 C 0.1469(3) 0.5679(2) 0.0111(2)
H69_12 H 0.173664 0.551807 0.024543
C102_12 C 0.1026(3) 0.5408(3) 0.0228(3)
H70_12 H 0.097031 0.542337 0.055573
H71_12 H 0.106265 0.509018 0.013552
H72_12 H 0.076800 0.554216 0.006473
C88_12 C 0.1526(2) 0.5700(2) 0.9582(2)
C97_12 C 0.98083(19) 0.92427(11) 0.04188(18)
H66_12 H 0.981458 0.956324 0.045656
C98_12 C 0.95225(17) 0.90447(13) 0.00843(15)
C99_12 C 0.95131(14) 0.85656(13) 0.00278(14)
C100_12 C 0.97896(16) 0.82845(10) 0.03059(15)
H68_12 H 0.978335 0.796397 0.026812
O38_12 O 0.89424(15) 0.86398(15) 0.94611(14)
C86_12 C 0.9206(2) 0.8367(2) 0.9660(2)
H67_12 H 0.933752 0.923282 0.989819
loop_
_geom_bond_atom_site_label_1
_geom_bond_atom_site_label_2
_geom_bond_site_symmetry_1
_geom_bond_site_symmetry_2
Zn1 O3 1_555 1_555
Zn2 O4 1_555 1_555
Zn3 O1 1_555 1_555
O1 C3 1_555 1_555
O2 C1 1_555 1_555
O3 C1 1_555 1_555
O4 Zn3 1_555 1_555
O5 C3 1_555 1_555
O6 Zn2 1_555 1_555
O7 Zn3 1_555 1_555
C1 C14 1_555 1_555
C2 O6 1_555 1_555
C3 C16 1_555 1_555
C4 C5 1_555 1_555
C5 H1 1_555 1_555
C6 C2 1_555 1_555
C7 C6 1_555 1_555
H2 C7 1_555 1_555
C8 C7 1_555 1_555
H3 C8 1_555 1_555
C9 C4 1_555 1_555
H4 C9 1_555 1_555
C10 C4 1_555 1_555
C11 C10 1_555 1_555
H5 C11 1_555 1_555
C12 C11 1_555 1_555
H6 C12 1_555 1_555
C13 C12 1_555 1_555
H7 C13 1_555 1_555
C14 C13 1_555 1_555
C15 C10 1_555 1_555
H8 C15 1_555 1_555
C16 O4 1_555 1_555
H9 C16 1_555 1_555
C17 C16 1_555 1_555
H10 C17 1_555 1_555
H11 C17 1_555 1_555
H12 C17 1_555 1_555
Zn4 O11 1_555 1_555
Zn5 O8 1_555 1_555
O8 C20 1_555 1_555
O9 C18 1_555 1_555
O10 Zn1 1_555 1_555
O11 Zn5 1_555 1_555
O12 C20 1_555 1_555
O13 Zn4 1_555 1_555
O14 Zn5 1_555 1_555
C18 O10 1_555 1_555
C19 O13 1_555 1_555
C20 C33 1_555 1_555
C21 C22 1_555 1_555
C22 H13 1_555 1_555
C23 C19 1_555 1_555
C24 C23 1_555 1_555
H14 C24 1_555 1_555
C25 C24 1_555 1_555
H15 C25 1_555 1_555
C26 C21 1_555 1_555
H16 C26 1_555 1_555
C27 C21 1_555 1_555
C28 C27 1_555 1_555
H17 C28 1_555 1_555
C29 C28 1_555 1_555
H18 C29 1_555 1_555
C30 C29 1_555 1_555
H19 C30 1_555 1_555
C31 C18 1_555 1_555
C32 C27 1_555 1_555
H20 C32 1_555 1_555
C33 O11 1_555 1_555
H21 C33 1_555 1_555
C34 C33 1_555 1_555
H22 C34 1_555 1_555
H23 C34 1_555 1_555
H24 C34 1_555 1_555
Zn7 O5 1_555 1_555
O15 Zn7 1_555 1_555
O18 Zn7 1_555 1_555
O19 C37 1_555 1_555
O20 C36 1_555 1_555
O21 Zn7 1_555 1_555
C36 O21 1_555 1_555
C37 O15 1_555 1_555
C40 C36 1_555 1_555
C50 O18 1_555 1_555
H33 C50 1_555 1_555
C51 C50 1_555 1_555
H34 C51 1_555 1_555
H35 C51 1_555 1_555
H36 C51 1_555 1_555
Zn8 O22 1_555 1_555
O22 C54 1_555 1_555
O23 C52 1_555 1_555
O24 Zn1 1_555 1_555
O25 Zn8 1_555 1_555
O26 C54 1_555 1_555
O27 C53 1_555 1_555
O28 Zn8 1_555 1_555
C52 O24 1_555 1_555
C53 O28 1_555 1_555
C54 C67 1_555 1_555
C55 C56 1_555 1_555
C56 H37 1_555 1_555
C57 C53 1_555 1_555
C58 C57 1_555 1_555
H38 C58 1_555 1_555
C59 C58 1_555 1_555
H39 C59 1_555 1_555
C60 C55 1_555 1_555
H40 C60 1_555 1_555
C61 C55 1_555 1_555
C62 C61 1_555 1_555
H41 C62 1_555 1_555
C63 C62 1_555 1_555
H42 C63 1_555 1_555
C64 C63 1_555 1_555
H43 C64 1_555 1_555
C65 C52 1_555 1_555
C66 C61 1_555 1_555
H44 C66 1_555 1_555
C67 O25 1_555 1_555
H45 C67 1_555 1_555
C68 C67 1_555 1_555
H46 C68 1_555 1_555
H47 C68 1_555 1_555
H48 C68 1_555 1_555
Zn9 O19 1_555 1_555
O29 Zn9 1_555 1_555
O30 C69 1_555 1_555
O31 C69 1_555 1_555
O32 Zn9 1_555 1_555
O33 Zn3 1_555 1_555
O34 C70 1_555 1_555
O35 Zn9 1_555 1_555
C69 C82 1_555 1_555
C70 O35 1_555 1_555
C71 O29 1_555 1_555
C72 C73 1_555 1_555
C73 H49 1_555 1_555
C74 C70 1_555 1_555
C75 C74 1_555 1_555
H50 C75 1_555 1_555
C76 C75 1_555 1_555
H51 C76 1_555 1_555
C77 C72 1_555 1_555
H52 C77 1_555 1_555
C78 C72 1_555 1_555
C79 C78 1_555 1_555
H53 C79 1_555 1_555
C80 C79 1_555 1_555
H54 C80 1_555 1_555
C81 C80 1_555 1_555
H55 C81 1_555 1_555
C82 C81 1_555 1_555
C83 C78 1_555 1_555
H56 C83 1_555 1_555
C84 O32 1_555 1_555
H57 C84 1_555 1_555
C85 C84 1_555 1_555
H58 C85 1_555 1_555
H59 C85 1_555 1_555
H60 C85 1_555 1_555
Zn10 O23 1_555 1_555
O36 Zn1 1_555 1_555
O37 Zn9 1_555 1_555
O38 C86 1_555 1_555
O39 Zn10 1_555 1_555
O40 C88 1_555 1_555
O41 C87 1_555 1_555
O42 Zn10 1_555 1_555
C86 O37 1_555 1_555
C87 O42 1_555 1_555
C88 O36 1_555 1_555
C89 C90 1_555 1_555
C90 H61 1_555 1_555
C91 C87 1_555 1_555
C92 C91 1_555 1_555
H62 C92 1_555 1_555
C93 C92 1_555 1_555
H63 C93 1_555 1_555
C94 C89 1_555 1_555
H64 C94 1_555 1_555
C95 C89 1_555 1_555
C96 C95 1_555 1_555
H65 C96 1_555 1_555
C97 C96 1_555 1_555
H66 C97 1_555 1_555
C98 C97 1_555 1_555
H67 C98 1_555 1_555
C99 C86 1_555 1_555
C100 C95 1_555 1_555
H68 C100 1_555 1_555
C101 O39 1_555 1_555
H69 C101 1_555 1_555
C102 C101 1_555 1_555
H70 C102 1_555 1_555
H71 C102 1_555 1_555
H72 C102 1_555 1_555
Zn11 O18 1_555 1_555
Zn12 O31 1_555 1_555
Zn13 O22 1_555 1_555
Zn14 O8 1_555 1_555
Zn15 O1 1_555 1_555
Zn16 O39 1_555 1_555
Zn17 O25 1_555 1_555
Zn18 O32 1_555 1_555
Zn19 O26 1_555 1_555
Zn20 O12 1_555 1_555
Zn21 O2 1_555 1_555
Zn22 O30 1_555 1_555
Zn23 O9 1_555 1_555
O43 Zn1 1_555 1_555
O46 Zn1 1_555 1_555
O48 Zn3 1_555 1_555
O49 Zn8 1_555 1_555
O50 Zn5 1_555 1_555
O51 Zn7 1_555 1_555
O54 Zn11 1_555 1_555
O55 Zn4 1_555 1_555
O56 Zn2 1_555 1_555
O57 Zn5 1_555 1_555
O58 Zn8 1_555 1_555
O59 Zn10 1_555 1_555
O60 Zn11 1_555 1_555
O61 Zn4 1_555 1_555
O62 Zn2 1_555 1_555
O7 C2 1_555 1_555
C5 C6 1_555 1_555
C8 C9 1_555 1_555
C14 C15 1_555 1_555
O14 C19 1_555 1_555
C22 C23 1_555 1_555
C25 C26 1_555 1_555
C30 C31 1_555 1_555
C31 C32 1_555 1_555
O15 Zn15 1_555 1_555
O20 Zn11 1_555 1_555
C37 C50 1_555 1_555
O27 Zn17 1_555 1_555
C56 C57 1_555 1_555
C59 C60 1_555 1_555
C64 C65 1_555 1_555
C65 C66 1_555 1_555
O29 Zn15 1_555 1_555
O33 C71 1_555 1_555
O34 Zn18 1_555 1_555
C71 C84 1_555 1_555
C73 C74 1_555 1_555
C76 C77 1_555 1_555
C82 C83 1_555 1_555
Zn10 O36 1_555 1_555
O38 Zn15 1_555 1_555
O40 Zn23 1_555 1_555
O41 Zn16 1_555 1_555
C88 C101 1_555 1_555
C90 C91 1_555 1_555
C93 C94 1_555 1_555
C98 C99 1_555 1_555
C99 C100 1_555 1_555
Zn21 O43 1_555 1_555
Zn22 O54 1_555 1_555
Zn23 O46 1_555 1_555
Zn6 O17 1_555 1_555
O16 C35 1_555 1_555
O17 C35 1_555 1_555
C35 C48 1_555 1_555
C38 C39 1_555 1_555
C39 H25 1_555 1_555
C42 C41 1_555 1_555
H27 C42 1_555 1_555
C43 C38 1_555 1_555
H28 C43 1_555 1_555
C44 C38 1_555 1_555
C45 C44 1_555 1_555
H29 C45 1_555 1_555
C46 C45 1_555 1_555
H30 C46 1_555 1_555
C47 C46 1_555 1_555
H31 C47 1_555 1_555
C48 C47 1_555 1_555
C49 C44 1_555 1_555
H32 C49 1_555 1_555
Zn24 O16 1_555 1_555
O44 Zn6 1_555 1_555
O45 Zn6 1_555 1_555
O47 Zn6 1_555 1_555
O52 Zn6 1_555 1_555
O53 Zn6 1_555 1_555
C42 C43 1_555 1_555
C48 C49 1_555 1_555
Zn24 O47 1_555 1_555
Zn2_2 O4_2 1_555 1_555
Zn3_2 O1_2 1_555 1_555
O1_2 C3_2 1_555 1_555
O2_2 C1_2 1_555 1_555
O52 C1_2 1_555 1_555
O4_2 Zn3_2 1_555 1_555
O57 C3_2 1_555 1_555
O6_2 Zn2_2 1_555 1_555
O7_2 Zn3_2 1_555 1_555
C1_2 C14_2 1_555 1_555
C2_2 O6_2 1_555 1_555
C3_2 C16_2 1_555 1_555
C4_2 C5_2 1_555 1_555
C5_2 H1_2 1_555 1_555
C6_2 C2_2 1_555 1_555
C7_2 C6_2 1_555 1_555
H2_2 C7_2 1_555 1_555
C8_2 C7_2 1_555 1_555
H3_2 C8_2 1_555 1_555
C9_2 C4_2 1_555 1_555
H4_2 C9_2 1_555 1_555
C10_2 C4_2 1_555 1_555
C11_2 C10_2 1_555 1_555
H5_2 C11_2 1_555 1_555
C12_2 C11_2 1_555 1_555
H6_2 C12_2 1_555 1_555
C13_2 C12_2 1_555 1_555
H7_2 C13_2 1_555 1_555
C14_2 C13_2 1_555 1_555
C15_2 C10_2 1_555 1_555
H8_2 C15_2 1_555 1_555
C16_2 O4_2 1_555 1_555
H9_2 C16_2 1_555 1_555
C17_2 C16_2 1_555 1_555
H10_2 C17_2 1_555 1_555
H11_2 C17_2 1_555 1_555
H12_2 C17_2 1_555 1_555
O23_2 C52_2 1_555 1_555
C52_2 O53 1_555 1_555
C55_2 C56_2 1_555 1_555
C56_2 H37_2 1_555 1_555
C59_2 C58_2 1_555 1_555
H39_2 C59_2 1_555 1_555
C60_2 C55_2 1_555 1_555
H40_2 C60_2 1_555 1_555
C61_2 C55_2 1_555 1_555
C62_2 C61_2 1_555 1_555
H41_2 C62_2 1_555 1_555
C63_2 C62_2 1_555 1_555
H42_2 C63_2 1_555 1_555
C64_2 C63_2 1_555 1_555
H43_2 C64_2 1_555 1_555
C65_2 C52_2 1_555 1_555
C66_2 C61_2 1_555 1_555
H44_2 C66_2 1_555 1_555
O29_2 Zn20 1_555 1_555
O32_2 Zn20 1_555 1_555
O33_2 Zn3_2 1_555 1_555
O34_2 C70_2 1_555 1_555
O35_2 Zn20 1_555 1_555
C70_2 O35_2 1_555 1_555
C71_2 O29_2 1_555 1_555
C74_2 C70_2 1_555 1_555
C84_2 O32_2 1_555 1_555
H57_2 C84_2 1_555 1_555
C85_2 C84_2 1_555 1_555
H58_2 C85_2 1_555 1_555
H59_2 C85_2 1_555 1_555
H60_2 C85_2 1_555 1_555
Zn10_2 O23_2 1_555 1_555
O37_2 Zn20 1_555 1_555
O38_2 C86_2 1_555 1_555
O40_2 C88_2 1_555 1_555
C86_2 O37_2 1_555 1_555
C88_2 O45 1_555 1_555
Zn14 O1_2 1_555 1_555
Zn18_2 O32_2 1_555 1_555
Zn21_2 O2_2 1_555 1_555
O48_2 Zn3_2 1_555 1_555
O56_2 Zn2_2 1_555 1_555
O59_2 Zn10_2 1_555 1_555
O62_2 Zn2_2 1_555 1_555
O7_2 C2_2 1_555 1_555
C5_2 C6_2 1_555 1_555
C8_2 C9_2 1_555 1_555
C14_2 C15_2 1_555 1_555
C59_2 C60_2 1_555 1_555
C64_2 C65_2 1_555 1_555
C65_2 C66_2 1_555 1_555
O29_2 Zn14 1_555 1_555
O33_2 C71_2 1_555 1_555
O34_2 Zn18_2 1_555 1_555
C71_2 C84_2 1_555 1_555
Zn10_2 O45 1_555 1_555
O38_2 Zn14 1_555 1_555
O40_2 Zn24 1_555 1_555
Zn21_2 O44 1_555 1_555
Zn23 O56_2 1_555 1_555
Zn8_2 O22_2 1_555 1_555
O22_2 C54_2 1_555 1_555
O25_2 Zn8_2 1_555 1_555
O26_2 C54_2 1_555 1_555
O27_2 C53_2 1_555 1_555
O28_2 Zn8_2 1_555 1_555
C53_2 O28_2 1_555 1_555
C54_2 C67_2 1_555 1_555
C57_2 C53_2 1_555 1_555
C67_2 O25_2 1_555 1_555
H45_2 C67_2 1_555 1_555
C68_2 C67_2 1_555 1_555
H46_2 C68_2 1_555 1_555
H47_2 C68_2 1_555 1_555
H48_2 C68_2 1_555 1_555
O30_2 C69_2 1_555 1_555
O31_2 C69_2 1_555 1_555
C69_2 C82_2 1_555 1_555
C72_2 C73_2 1_555 1_555
C73_2 H49_2 1_555 1_555
C76_2 C75_2 1_555 1_555
H51_2 C76_2 1_555 1_555
C77_2 C72_2 1_555 1_555
H52_2 C77_2 1_555 1_555
C78_2 C72_2 1_555 1_555
C79_2 C78_2 1_555 1_555
H53_2 C79_2 1_555 1_555
C80_2 C79_2 1_555 1_555
H54_2 C80_2 1_555 1_555
C81_2 C80_2 1_555 1_555
H55_2 C81_2 1_555 1_555
C82_2 C81_2 1_555 1_555
C83_2 C78_2 1_555 1_555
H56_2 C83_2 1_555 1_555
O41_2 C87_2 1_555 1_555
C87_2 O42_2 1_555 1_555
C89_2 C90_2 1_555 1_555
C90_2 H61_2 1_555 1_555
C91_2 C87_2 1_555 1_555
C92_2 C91_2 1_555 1_555
H62_2 C92_2 1_555 1_555
C93_2 C92_2 1_555 1_555
H63_2 C93_2 1_555 1_555
C94_2 C89_2 1_555 1_555
H64_2 C94_2 1_555 1_555
C95_2 C89_2 1_555 1_555
C96_2 C95_2 1_555 1_555
H65_2 C96_2 1_555 1_555
C97_2 C96_2 1_555 1_555
H66_2 C97_2 1_555 1_555
C98_2 C97_2 1_555 1_555
C100_2 C95_2 1_555 1_555
H68_2 C100_2 1_555 1_555
C101_2 O39_2 1_555 1_555
H69_2 C101_2 1_555 1_555
C102_2 C101_2 1_555 1_555
H70_2 C102_2 1_555 1_555
H71_2 C102_2 1_555 1_555
H72_2 C102_2 1_555 1_555
Zn12_2 O31_2 1_555 1_555
Zn13_2 O22_2 1_555 1_555
Zn16_2 O39_2 1_555 1_555
Zn17_2 O25_2 1_555 1_555
Zn19_2 O26_2 1_555 1_555
Zn22_2 O30_2 1_555 1_555
O49_2 Zn8_2 1_555 1_555
O58_2 Zn8_2 1_555 1_555
O27_2 Zn17_2 1_555 1_555
C76_2 C77_2 1_555 1_555
C82_2 C83_2 1_555 1_555
O41_2 Zn16_2 1_555 1_555
C90_2 C91_2 1_555 1_555
C93_2 C94_2 1_555 1_555
C98_2 C99_2 1_555 1_555
C99_2 C100_2 1_555 1_555
Zn2_3 O4_3 1_555 1_555
Zn19 O1_3 1_555 1_555
O1_3 C3_3 1_555 1_555
O4_3 Zn19 1_555 1_555
O5_2 C3_3 1_555 1_555
O6_3 Zn2_3 1_555 1_555
O7_3 Zn19 1_555 1_555
C2_3 O6_3 1_555 1_555
C3_3 C16_3 1_555 1_555
C6_3 C2_3 1_555 1_555
C16_3 O4_3 1_555 1_555
H9_3 C16_3 1_555 1_555
C17_3 C16_3 1_555 1_555
H10_3 C17_3 1_555 1_555
H11_3 C17_3 1_555 1_555
H12_3 C17_3 1_555 1_555
Zn12_2 O17_2 1_555 1_555
Zn7_2 O5_2 1_555 1_555
O15_2 Zn7_2 1_555 1_555
O16_2 C35_2 1_555 1_555
O17_2 C35_2 1_555 1_555
O18_2 Zn7_2 1_555 1_555
O58 C37_2 1_555 1_555
O20_2 C36_2 1_555 1_555
O21_2 Zn7_2 1_555 1_555
C35_2 C48_2 1_555 1_555
C36_2 O21_2 1_555 1_555
C37_2 O15_2 1_555 1_555
C38_2 C39_2 1_555 1_555
C39_2 H25_2 1_555 1_555
C40_2 C36_2 1_555 1_555
C41_2 C40_2 1_555 1_555
H26_2 C41_2 1_555 1_555
C42_2 C41_2 1_555 1_555
H27_2 C42_2 1_555 1_555
C43_2 C38_2 1_555 1_555
H28_2 C43_2 1_555 1_555
C44_2 C38_2 1_555 1_555
C45_2 C44_2 1_555 1_555
H29_2 C45_2 1_555 1_555
C46_2 C45_2 1_555 1_555
H30_2 C46_2 1_555 1_555
C47_2 C46_2 1_555 1_555
H31_2 C47_2 1_555 1_555
C48_2 C47_2 1_555 1_555
C49_2 C44_2 1_555 1_555
H32_2 C49_2 1_555 1_555
C50_2 O18_2 1_555 1_555
H33_2 C50_2 1_555 1_555
C51_2 C50_2 1_555 1_555
H34_2 C51_2 1_555 1_555
H35_2 C51_2 1_555 1_555
H36_2 C51_2 1_555 1_555
O38_3 C86_3 1_555 1_555
C86_3 O49 1_555 1_555
H66_3 C97_3 1_555 1_555
C98_3 C97_3 1_555 1_555
H67_3 C98_3 1_555 1_555
C99_3 C86_3 1_555 1_555
H68_3 C100_3 1_555 1_555
Zn16 O18_2 1_555 1_555
Zn13 O1_3 1_555 1_555
Zn24_2 O16_2 1_555 1_555
O44_2 Zn12_2 1_555 1_555
O45_2 Zn12_2 1_555 1_555
O47_2 Zn12_2 1_555 1_555
O48_3 Zn19 1_555 1_555
O51_2 Zn7_2 1_555 1_555
O52_2 Zn12_2 1_555 1_555
O56_3 Zn2_3 1_555 1_555
O62_3 Zn2_3 1_555 1_555
O7_3 C2_3 1_555 1_555
O15_2 Zn13 1_555 1_555
O20_2 Zn16 1_555 1_555
C37_2 C50_2 1_555 1_555
C39_2 C40_2 1_555 1_555
C42_2 C43_2 1_555 1_555
C48_2 C49_2 1_555 1_555
O38_3 Zn13 1_555 1_555
C98_3 C99_3 1_555 1_555
C99_3 C100_3 1_555 1_555
Zn24_2 O47_2 1_555 1_555
Zn24_2 O56_3 1_555 1_555
Zn12 O3_2 1_555 1_555
O2_3 C1_3 1_555 1_555
O3_2 C1_3 1_555 1_555
C1_3 C14_3 1_555 1_555
C4_3 C5_3 1_555 1_555
C5_3 H1_3 1_555 1_555
C8_3 C7_3 1_555 1_555
H3_3 C8_3 1_555 1_555
C9_3 C4_3 1_555 1_555
H4_3 C9_3 1_555 1_555
C10_3 C4_3 1_555 1_555
C11_3 C10_3 1_555 1_555
H5_3 C11_3 1_555 1_555
C12_3 C11_3 1_555 1_555
H6_3 C12_3 1_555 1_555
C13_3 C12_3 1_555 1_555
H7_3 C13_3 1_555 1_555
C14_3 C13_3 1_555 1_555
C15_3 C10_3 1_555 1_555
H8_3 C15_3 1_555 1_555
O9_2 C18_2 1_555 1_555
O10_2 Zn12 1_555 1_555
C18_2 O10_2 1_555 1_555
C21_2 C22_2 1_555 1_555
C22_2 H13_2 1_555 1_555
C25_2 C24_2 1_555 1_555
H15_2 C25_2 1_555 1_555
C26_2 C21_2 1_555 1_555
H16_2 C26_2 1_555 1_555
C27_2 C21_2 1_555 1_555
C28_2 C27_2 1_555 1_555
H17_2 C28_2 1_555 1_555
C29_2 C28_2 1_555 1_555
H18_2 C29_2 1_555 1_555
C30_2 C29_2 1_555 1_555
H19_2 C30_2 1_555 1_555
C31_2 C18_2 1_555 1_555
C32_2 C27_2 1_555 1_555
H20_2 C32_2 1_555 1_555
O36_2 Zn12 1_555 1_555
O40_3 C88_3 1_555 1_555
O60 C87_3 1_555 1_555
O42_3 Zn22 1_555 1_555
C87_3 O42_3 1_555 1_555
C88_3 O36_2 1_555 1_555
C89_3 C90_3 1_555 1_555
C90_3 H61_3 1_555 1_555
C91_3 C87_3 1_555 1_555
C92_3 C91_3 1_555 1_555
H62_3 C92_3 1_555 1_555
C93_3 C92_3 1_555 1_555
H63_3 C93_3 1_555 1_555
C94_3 C89_3 1_555 1_555
H64_3 C94_3 1_555 1_555
C95_3 C89_3 1_555 1_555
C96_3 C95_3 1_555 1_555
H65_3 C96_3 1_555 1_555
C101_3 O54 1_555 1_555
H69_3 C101_3 1_555 1_555
C102_3 C101_3 1_555 1_555
H70_3 C102_3 1_555 1_555
H71_3 C102_3 1_555 1_555
H72_3 C102_3 1_555 1_555
Zn21_3 O2_3 1_555 1_555
Zn23_2 O9_2 1_555 1_555
O43_2 Zn12 1_555 1_555
O46_2 Zn12 1_555 1_555
O59_3 Zn22 1_555 1_555
C8_3 C9_3 1_555 1_555
C14_3 C15_3 1_555 1_555
C25_2 C26_2 1_555 1_555
C30_2 C31_2 1_555 1_555
C31_2 C32_2 1_555 1_555
Zn22 O36_2 1_555 1_555
O40_3 Zn23_2 1_555 1_555
C88_3 C101_3 1_555 1_555
C90_3 C91_3 1_555 1_555
C93_3 C94_3 1_555 1_555
Zn21_3 O43_2 1_555 1_555
Zn23_2 O46_2 1_555 1_555
Zn16_2 O11_2 1_555 1_555
Zn5_2 O8_2 1_555 1_555
O8_2 C20_2 1_555 1_555
O11_2 Zn5_2 1_555 1_555
O58_2 C20_2 1_555 1_555
O13_2 Zn16_2 1_555 1_555
O14_2 Zn5_2 1_555 1_555
C19_2 O13_2 1_555 1_555
C20_2 C33_2 1_555 1_555
C23_2 C19_2 1_555 1_555
C33_2 O11_2 1_555 1_555
H21_2 C33_2 1_555 1_555
C34_2 C33_2 1_555 1_555
H22_2 C34_2 1_555 1_555
H23_2 C34_2 1_555 1_555
H24_2 C34_2 1_555 1_555
Zn13_2 O8_2 1_555 1_555
O50_2 Zn5_2 1_555 1_555
O57_2 Zn5_2 1_555 1_555
O14_2 C19_2 1_555 1_555
O61 C87_4 1_555 1_555
C87_4 O42_4 1_555 1_555
C89_4 C90_4 1_555 1_555
C90_4 H61_4 1_555 1_555
C91_4 C87_4 1_555 1_555
C92_4 C91_4 1_555 1_555
H62_4 C92_4 1_555 1_555
C93_4 C92_4 1_555 1_555
H63_4 C93_4 1_555 1_555
C94_4 C89_4 1_555 1_555
H64_4 C94_4 1_555 1_555
C95_4 C89_4 1_555 1_555
C96_4 C95_4 1_555 1_555
H65_4 C96_4 1_555 1_555
C101_4 O55 1_555 1_555
H69_4 C101_4 1_555 1_555
C102_4 C101_4 1_555 1_555
H70_4 C102_4 1_555 1_555
H71_4 C102_4 1_555 1_555
H72_4 C102_4 1_555 1_555
C90_4 C91_4 1_555 1_555
C93_4 C94_4 1_555 1_555
H66_4 C97_4 1_555 1_555
C98_4 C97_4 1_555 1_555
H68_4 C100_4 1_555 1_555
C98_4 C99_4 1_555 1_555
C99_4 C100_4 1_555 1_555
O2_4 C1_4 1_555 1_555
O52_2 C1_4 1_555 1_555
C1_4 C14_4 1_555 1_555
C4_4 C5_4 1_555 1_555
C5_4 H1_4 1_555 1_555
C8_4 C7_4 1_555 1_555
H3_4 C8_4 1_555 1_555
C9_4 C4_4 1_555 1_555
H4_4 C9_4 1_555 1_555
C10_4 C4_4 1_555 1_555
C11_4 C10_4 1_555 1_555
H5_4 C11_4 1_555 1_555
C12_4 C11_4 1_555 1_555
H6_4 C12_4 1_555 1_555
C13_4 C12_4 1_555 1_555
H7_4 C13_4 1_555 1_555
C14_4 C13_4 1_555 1_555
C15_4 C10_4 1_555 1_555
H8_4 C15_4 1_555 1_555
O40_4 C88_4 1_555 1_555
C88_4 O45_2 1_555 1_555
Zn21_4 O2_4 1_555 1_555
O59_4 Zn22_2 1_555 1_555
C8_4 C9_4 1_555 1_555
C14_4 C15_4 1_555 1_555
Zn22_2 O45_2 1_555 1_555
O40_4 Zn24_2 1_555 1_555
Zn21_4 O44_2 1_555 1_555
Zn2_4 O4_4 1_555 1_555
Zn19_2 O1_4 1_555 1_555
O1_4 C3_4 1_555 1_555
O4_4 Zn19_2 1_555 1_555
O57_2 C3_4 1_555 1_555
O6_4 Zn2_4 1_555 1_555
O7_4 Zn19_2 1_555 1_555
C2_4 O6_4 1_555 1_555
C3_4 C16_4 1_555 1_555
C6_4 C2_4 1_555 1_555
C16_4 O4_4 1_555 1_555
H9_4 C16_4 1_555 1_555
C17_4 C16_4 1_555 1_555
H10_4 C17_4 1_555 1_555
H11_4 C17_4 1_555 1_555
H12_4 C17_4 1_555 1_555
O38_4 C86_4 1_555 1_555
C86_4 O49_2 1_555 1_555
Zn13_2 O1_4 1_555 1_555
O48_4 Zn19_2 1_555 1_555
O56_4 Zn2_4 1_555 1_555
O62_4 Zn2_4 1_555 1_555
O7_4 C2_4 1_555 1_555
O38_4 Zn13_2 1_555 1_555
O38_5 C86_5 1_555 1_555
O39_3 Zn21 1_555 1_555
O59 C88_5 1_555 1_555
O41_3 C87_5 1_555 1_555
O42_5 Zn21 1_555 1_555
C86_5 O48_2 1_555 1_555
C87_5 O42_5 1_555 1_555
C88_5 O43 1_555 1_555
C89_5 C90_5 1_555 1_555
C90_5 H61_5 1_555 1_555
C91_5 C87_5 1_555 1_555
C92_5 C91_5 1_555 1_555
H62_5 C92_5 1_555 1_555
C93_5 C92_5 1_555 1_555
H63_5 C93_5 1_555 1_555
C94_5 C89_5 1_555 1_555
H64_5 C94_5 1_555 1_555
C95_5 C89_5 1_555 1_555
C96_5 C95_5 1_555 1_555
H65_5 C96_5 1_555 1_555
C97_5 C96_5 1_555 1_555
H66_5 C97_5 1_555 1_555
C98_5 C97_5 1_555 1_555
H67_5 C98_5 1_555 1_555
C99_5 C86_5 1_555 1_555
C100_5 C95_5 1_555 1_555
H68_5 C100_5 1_555 1_555
C101_5 O39_3 1_555 1_555
H69_5 C101_5 1_555 1_555
C102_5 C101_5 1_555 1_555
H70_5 C102_5 1_555 1_555
H71_5 C102_5 1_555 1_555
H72_5 C102_5 1_555 1_555
Zn18 O39_3 1_555 1_555
O54_2 Zn18_2 1_555 1_555
O55_2 Zn17 1_555 1_555
O59_5 Zn21 1_555 1_555
O60_2 Zn18_2 1_555 1_555
O61_2 Zn17 1_555 1_555
O38_5 Zn14 1_555 1_555
O41_3 Zn18 1_555 1_555
C88_5 C101_5 1_555 1_555
C90_5 C91_5 1_555 1_555
C93_5 C94_5 1_555 1_555
C98_5 C99_5 1_555 1_555
C99_5 C100_5 1_555 1_555
Zn21_2 O54_2 1_555 1_555
O38_6 C86_6 1_555 1_555
O59_4 C88_6 1_555 1_555
C86_6 O48_3 1_555 1_555
C88_6 O44_2 1_555 1_555
O59_6 Zn21_4 1_555 1_555
O38_6 Zn13 1_555 1_555
O41_4 C87_6 1_555 1_555
C87_6 O42_6 1_555 1_555
C89_6 C90_6 1_555 1_555
C90_6 H61_6 1_555 1_555
C91_6 C87_6 1_555 1_555
C92_6 C91_6 1_555 1_555
H62_6 C92_6 1_555 1_555
C93_6 C92_6 1_555 1_555
H63_6 C93_6 1_555 1_555
C94_6 C89_6 1_555 1_555
H64_6 C94_6 1_555 1_555
C95_6 C89_6 1_555 1_555
C96_6 C95_6 1_555 1_555
H65_6 C96_6 1_555 1_555
C97_6 C96_6 1_555 1_555
H66_6 C97_6 1_555 1_555
C98_6 C97_6 1_555 1_555
C100_6 C95_6 1_555 1_555
H68_6 C100_6 1_555 1_555
C101_6 O39_4 1_555 1_555
H69_6 C101_6 1_555 1_555
C102_6 C101_6 1_555 1_555
H70_6 C102_6 1_555 1_555
H71_6 C102_6 1_555 1_555
H72_6 C102_6 1_555 1_555
Zn17_2 O39_4 1_555 1_555
O41_4 Zn17_2 1_555 1_555
C90_6 C91_6 1_555 1_555
C93_6 C94_6 1_555 1_555
C98_6 C99_6 1_555 1_555
C99_6 C100_6 1_555 1_555
O38_7 C86_7 1_555 1_555
C86_7 O48 1_555 1_555
H66_7 C97_7 1_555 1_555
C98_7 C97_7 1_555 1_555
H67_7 C98_7 1_555 1_555
C99_7 C86_7 1_555 1_555
H68_7 C100_7 1_555 1_555
O38_7 Zn15 1_555 1_555
C98_7 C99_7 1_555 1_555
C99_7 C100_7 1_555 1_555
O59_2 C88_7 1_555 1_555
O60_2 C87_7 1_555 1_555
O42_7 Zn21_2 1_555 1_555
C87_7 O42_7 1_555 1_555
C88_7 O44 1_555 1_555
C89_7 C90_7 1_555 1_555
C90_7 H61_7 1_555 1_555
C91_7 C87_7 1_555 1_555
C92_7 C91_7 1_555 1_555
H62_7 C92_7 1_555 1_555
C93_7 C92_7 1_555 1_555
H63_7 C93_7 1_555 1_555
C94_7 C89_7 1_555 1_555
H64_7 C94_7 1_555 1_555
C95_7 C89_7 1_555 1_555
C96_7 C95_7 1_555 1_555
H65_7 C96_7 1_555 1_555
C101_7 O54_2 1_555 1_555
H69_7 C101_7 1_555 1_555
C102_7 C101_7 1_555 1_555
H70_7 C102_7 1_555 1_555
H71_7 C102_7 1_555 1_555
H72_7 C102_7 1_555 1_555
O59_7 Zn21_2 1_555 1_555
C88_7 C101_7 1_555 1_555
C90_7 C91_7 1_555 1_555
C93_7 C94_7 1_555 1_555
O61_2 C87_8 1_555 1_555
C87_8 O42_8 1_555 1_555
C89_8 C90_8 1_555 1_555
C90_8 H61_8 1_555 1_555
C91_8 C87_8 1_555 1_555
C92_8 C91_8 1_555 1_555
H62_8 C92_8 1_555 1_555
C93_8 C92_8 1_555 1_555
H63_8 C93_8 1_555 1_555
C94_8 C89_8 1_555 1_555
H64_8 C94_8 1_555 1_555
C95_8 C89_8 1_555 1_555
C96_8 C95_8 1_555 1_555
H65_8 C96_8 1_555 1_555
C101_8 O55_2 1_555 1_555
H69_8 C101_8 1_555 1_555
C102_8 C101_8 1_555 1_555
H70_8 C102_8 1_555 1_555
H71_8 C102_8 1_555 1_555
H72_8 C102_8 1_555 1_555
C90_8 C91_8 1_555 1_555
C93_8 C94_8 1_555 1_555
H66_8 C97_8 1_555 1_555
C98_8 C97_8 1_555 1_555
H68_8 C100_8 1_555 1_555
C98_8 C99_8 1_555 1_555
C99_8 C100_8 1_555 1_555
O59_3 C88_8 1_555 1_555
C88_8 O43_2 1_555 1_555
O59_8 Zn21_3 1_555 1_555
O38_8 C86_8 1_555 1_555
C86_8 O48_4 1_555 1_555
O38_8 Zn13_2 1_555 1_555
O38_9 C86_9 1_555 1_555
O59_5 C88_9 1_555 1_555
O62_2 C87_9 1_555 1_555
O42_9 Zn23 1_555 1_555
C86_9 O51_2 1_555 1_555
C87_9 O42_9 1_555 1_555
C88_9 O46 1_555 1_555
C89_9 C90_9 1_555 1_555
C90_9 H61_9 1_555 1_555
C91_9 C87_9 1_555 1_555
C92_9 C91_9 1_555 1_555
H62_9 C92_9 1_555 1_555
C93_9 C92_9 1_555 1_555
H63_9 C93_9 1_555 1_555
C94_9 C89_9 1_555 1_555
H64_9 C94_9 1_555 1_555
C95_9 C89_9 1_555 1_555
C96_9 C95_9 1_555 1_555
H65_9 C96_9 1_555 1_555
C97_9 C96_9 1_555 1_555
H66_9 C97_9 1_555 1_555
C98_9 C97_9 1_555 1_555
H67_9 C98_9 1_555 1_555
C99_9 C86_9 1_555 1_555
C100_9 C95_9 1_555 1_555
H68_9 C100_9 1_555 1_555
C101_9 O56_2 1_555 1_555
H69_9 C101_9 1_555 1_555
C102_9 C101_9 1_555 1_555
H70_9 C102_9 1_555 1_555
H71_9 C102_9 1_555 1_555
H72_9 C102_9 1_555 1_555
O38_9 Zn13 1_555 1_555
C88_9 C101_9 1_555 1_555
C90_9 C91_9 1_555 1_555
C93_9 C94_9 1_555 1_555
C98_9 C99_9 1_555 1_555
C99_9 C100_9 1_555 1_555
O38_10 C86_10 1_555 1_555
O59_8 C88_10 1_555 1_555
C86_10 O51 1_555 1_555
C88_10 O46_2 1_555 1_555
O38_10 Zn15 1_555 1_555
O62_4 C87_10 1_555 1_555
C87_10 O42_10 1_555 1_555
C89_10 C90_10 1_555 1_555
C90_10 H61_10 1_555 1_555
C91_10 C87_10 1_555 1_555
C92_10 C91_10 1_555 1_555
H62_10 C92_10 1_555 1_555
C93_10 C92_10 1_555 1_555
H63_10 C93_10 1_555 1_555
C94_10 C89_10 1_555 1_555
H64_10 C94_10 1_555 1_555
C95_10 C89_10 1_555 1_555
C96_10 C95_10 1_555 1_555
H65_10 C96_10 1_555 1_555
C97_10 C96_10 1_555 1_555
H66_10 C97_10 1_555 1_555
C98_10 C97_10 1_555 1_555
C100_10 C95_10 1_555 1_555
H68_10 C100_10 1_555 1_555
C101_10 O56_4 1_555 1_555
H69_10 C101_10 1_555 1_555
C102_10 C101_10 1_555 1_555
H70_10 C102_10 1_555 1_555
H71_10 C102_10 1_555 1_555
H72_10 C102_10 1_555 1_555
C90_10 C91_10 1_555 1_555
C93_10 C94_10 1_555 1_555
C98_10 C99_10 1_555 1_555
C99_10 C100_10 1_555 1_555
O38_11 C86_11 1_555 1_555
C86_11 O50 1_555 1_555
H66_11 C97_11 1_555 1_555
C98_11 C97_11 1_555 1_555
H67_11 C98_11 1_555 1_555
C99_11 C86_11 1_555 1_555
H68_11 C100_11 1_555 1_555
O38_11 Zn14 1_555 1_555
C98_11 C99_11 1_555 1_555
C99_11 C100_11 1_555 1_555
O59_6 C88_11 1_555 1_555
O62_3 C87_11 1_555 1_555
O42_11 Zn24_2 1_555 1_555
C87_11 O42_11 1_555 1_555
C88_11 O47_2 1_555 1_555
C89_11 C90_11 1_555 1_555
C90_11 H61_11 1_555 1_555
C91_11 C87_11 1_555 1_555
C92_11 C91_11 1_555 1_555
H62_11 C92_11 1_555 1_555
C93_11 C92_11 1_555 1_555
H63_11 C93_11 1_555 1_555
C94_11 C89_11 1_555 1_555
H64_11 C94_11 1_555 1_555
C95_11 C89_11 1_555 1_555
C96_11 C95_11 1_555 1_555
H65_11 C96_11 1_555 1_555
C101_11 O56_3 1_555 1_555
H69_11 C101_11 1_555 1_555
C102_11 C101_11 1_555 1_555
H70_11 C102_11 1_555 1_555
H71_11 C102_11 1_555 1_555
H72_11 C102_11 1_555 1_555
C88_11 C101_11 1_555 1_555
C90_11 C91_11 1_555 1_555
C93_11 C94_11 1_555 1_555
O62 C87_12 1_555 1_555
C87_12 O42_12 1_555 1_555
C89_12 C90_12 1_555 1_555
C90_12 H61_12 1_555 1_555
C91_12 C87_12 1_555 1_555
C92_12 C91_12 1_555 1_555
H62_12 C92_12 1_555 1_555
C93_12 C92_12 1_555 1_555
H63_12 C93_12 1_555 1_555
C94_12 C89_12 1_555 1_555
H64_12 C94_12 1_555 1_555
C95_12 C89_12 1_555 1_555
C96_12 C95_12 1_555 1_555
H65_12 C96_12 1_555 1_555
C101_12 O56 1_555 1_555
H69_12 C101_12 1_555 1_555
C102_12 C101_12 1_555 1_555
H70_12 C102_12 1_555 1_555
H71_12 C102_12 1_555 1_555
H72_12 C102_12 1_555 1_555
C90_12 C91_12 1_555 1_555
C93_12 C94_12 1_555 1_555
O59_7 C88_12 1_555 1_555
C88_12 O47 1_555 1_555
H66_12 C97_12 1_555 1_555
C98_12 C97_12 1_555 1_555
H68_12 C100_12 1_555 1_555
C98_12 C99_12 1_555 1_555
C99_12 C100_12 1_555 1_555
O38_12 C86_12 1_555 1_555
C86_12 O50_2 1_555 1_555
O38_12 Zn13_2 1_555 1_555

#END
