
###############################################################################
#
# This file contains modified crystal structure data generated from the
# MOF subset of the Cambridge Structural Database (CSD) v543 
# hosted by the Cambridge Crystallographic Data Centre (CCDC).
#
# This work is licensed under the Creative Commons
# Attribution-NonCommercial-ShareAlike 4.0 International License.
# To view a copy of this license, visit
# http://creativecommons.org/licenses/by-nc-sa/4.0/
# or send a letter to
# Creative Commons, PO Box 1866, Mountain View, CA 94042, USA.
#
# CIF created using the CSD Python API on 29 September 2022
# The structure has been converted into the P1 space group
# The structure has a 3D framework
# The original CSD entry USOSUS is in the cubic crystal system
# The framework has been calculated to contain at least 10.0% void space
# The void calculation uses a probe of radius 1.32A, grid spacing 0.4
#
###############################################################################

data_USOSUS
_chemical_formula_moiety         '(C552 H312 Cd24 N192 O192)n'
_symmetry_cell_setting           triclinic
_symmetry_space_group_name_H-M   'P 1'
_symmetry_Int_Tables_number      1
_space_group_name_Hall           'P 1'
loop_
_symmetry_equiv_pos_site_id
_symmetry_equiv_pos_as_xyz
1 x,y,z
_cell_length_a                   30.1172(7)
_cell_length_b                   30.1172(7)
_cell_length_c                   30.1172(7)
_cell_angle_alpha                90
_cell_angle_beta                 90
_cell_angle_gamma                90
_cell_volume                     27317.7
loop_
_atom_site_label
_atom_site_type_symbol
_atom_site_fract_x
_atom_site_fract_y
_atom_site_fract_z
Cd1 Cd 0.7500 0.39525(2) 0.10475(2)
O1 O 0.82280(7) 0.36997(8) 0.12534(7)
C1 C 0.83627(10) 0.37625(14) 0.16373(10)
C2 C 0.80244(10) 0.39324(15) 0.19756(10)
N1 N 0.76177(9) 0.39991(10) 0.18301(10)
C3 C 0.73164(13) 0.41391(16) 0.21304(13)
H1 H 0.7018 0.4189 0.2041
C4 C 0.74376(13) 0.4210(3) 0.25624(13)
H2 H 0.7225 0.4308 0.2775
O2 O 0.78791(7) 0.37499(8) 0.03670(7)
C5 C 0.77067(13) 0.38222(14) 0.0000
C6 C 0.72449(13) 0.40235(14) 0.0000
N2 N 0.70593(8) 0.41087(10) 0.03907(9)
C7 C 0.66498(11) 0.42883(12) 0.03880(13)
H3 H 0.6506 0.4348 0.0663
C8 C 0.64349(16) 0.43877(19) 0.0000
H4 H 0.6149 0.4520 0.0000
O3 O 0.87466(7) 0.36997(8) 0.17720(7)
N3 N 0.81699(10) 0.39991(10) 0.23823(9)
C9 C 0.78696(13) 0.41391(16) 0.26836(13)
H5 H 0.7959 0.4189 0.2982
Cd3 Cd 0.89525(2) 0.39525(2) 0.2500
O5 O 0.67720(7) 0.37466(7) 0.13003(8)
N5 N 0.73823(9) 0.31699(10) 0.10009(10)
O6 O 0.71209(7) 0.46330(7) 0.12501(8)
N6 N 0.79407(8) 0.46093(9) 0.08913(10)
C5_2 C 0.77067(13) 0.38222(14) 1.0000
C6_2 C 0.72449(13) 0.40235(14) 1.0000
C8_2 C 0.64349(16) 0.43877(19) 1.0000
H4_2 H 0.6149 0.4520 1.0000
O4 O 0.78791(7) 0.37499(8) 0.96330(7)
N4 N 0.70593(8) 0.41087(10) 0.96093(9)
C10 C 0.66498(11) 0.42883(12) 0.96120(13)
H6 H 0.6506 0.4348 0.9337
Cd2 Cd 0.7500 0.39525(2) 0.89525(2)
Cd1_2 Cd 0.2500 0.60475(2) 0.10475(2)
O1_2 O 0.17720(7) 0.63003(8) 0.12534(7)
C1_2 C 0.16373(10) 0.62375(14) 0.16373(10)
C2_2 C 0.19756(10) 0.60676(15) 0.19756(10)
N1_2 N 0.23823(9) 0.60009(10) 0.18301(10)
C3_2 C 0.26836(13) 0.58609(16) 0.21304(13)
H1_2 H 0.2982 0.5811 0.2041
C4_2 C 0.25624(13) 0.5790(3) 0.25624(13)
H2_2 H 0.2775 0.5692 0.2775
O2_2 O 0.21209(7) 0.62501(8) 0.03670(7)
C5_3 C 0.22933(13) 0.61778(14) 0.0000
C6_3 C 0.27551(13) 0.59765(14) 0.0000
N2_2 N 0.29407(8) 0.58913(10) 0.03907(9)
C7_2 C 0.33502(11) 0.57117(12) 0.03880(13)
H3_2 H 0.3494 0.5652 0.0663
C8_3 C 0.35651(16) 0.56123(19) 0.0000
H4_3 H 0.3851 0.5480 0.0000
O3_2 O 0.12534(7) 0.63003(8) 0.17720(7)
N3_2 N 0.18301(10) 0.60009(10) 0.23823(9)
C9_2 C 0.21304(13) 0.58609(16) 0.26836(13)
H5_2 H 0.2041 0.5811 0.2982
Cd3_2 Cd 0.10475(2) 0.60475(2) 0.2500
O5_2 O 0.32280(7) 0.62534(7) 0.13003(8)
N5_2 N 0.26177(9) 0.68301(10) 0.10009(10)
O6_2 O 0.28791(7) 0.53670(7) 0.12501(8)
N6_2 N 0.20593(8) 0.53907(9) 0.08913(10)
C5_4 C 0.22933(13) 0.61778(14) 1.0000
C6_4 C 0.27551(13) 0.59765(14) 1.0000
C8_4 C 0.35651(16) 0.56123(19) 1.0000
H4_4 H 0.3851 0.5480 1.0000
O4_2 O 0.21209(7) 0.62501(8) 0.96330(7)
N4_2 N 0.29407(8) 0.58913(10) 0.96093(9)
C10_2 C 0.33502(11) 0.57117(12) 0.96120(13)
H6_2 H 0.3494 0.5652 0.9337
Cd2_2 Cd 0.2500 0.60475(2) 0.89525(2)
C5_5 C 0.22933(13) 0.38222(14) 0.0000
C6_5 C 0.27551(13) 0.40235(14) 0.0000
C8_5 C 0.35651(16) 0.43877(19) 0.0000
H4_5 H 0.3851 0.4520 0.0000
O4_3 O 0.21209(7) 0.37499(8) 0.03670(7)
N4_3 N 0.29407(8) 0.41087(10) 0.03907(9)
C10_3 C 0.33502(11) 0.42883(12) 0.03880(13)
H6_3 H 0.3494 0.4348 0.0663
Cd2_3 Cd 0.2500 0.39525(2) 0.10475(2)
Cd1_3 Cd 0.2500 0.39525(2) 0.89525(2)
O1_3 O 0.17720(7) 0.36997(8) 0.87466(7)
C1_3 C 0.16373(10) 0.37625(14) 0.83627(10)
C2_3 C 0.19756(10) 0.39324(15) 0.80244(10)
N1_3 N 0.23823(9) 0.39991(10) 0.81699(10)
C3_3 C 0.26836(13) 0.41391(16) 0.78696(13)
H1_3 H 0.2982 0.4189 0.7959
C4_3 C 0.25624(13) 0.4210(3) 0.74376(13)
H2_3 H 0.2775 0.4308 0.7225
O2_3 O 0.21209(7) 0.37499(8) 0.96330(7)
C5_6 C 0.22933(13) 0.38222(14) 1.0000
C6_6 C 0.27551(13) 0.40235(14) 1.0000
N2_3 N 0.29407(8) 0.41087(10) 0.96093(9)
C7_3 C 0.33502(11) 0.42883(12) 0.96120(13)
H3_3 H 0.3494 0.4348 0.9337
C8_6 C 0.35651(16) 0.43877(19) 1.0000
H4_6 H 0.3851 0.4520 1.0000
O3_3 O 0.12534(7) 0.36997(8) 0.82280(7)
N3_3 N 0.18301(10) 0.39991(10) 0.76177(9)
C9_3 C 0.21304(13) 0.41391(16) 0.73164(13)
H5_3 H 0.2041 0.4189 0.7018
Cd3_3 Cd 0.10475(2) 0.39525(2) 0.7500
O5_3 O 0.32280(7) 0.37466(7) 0.86997(8)
N5_3 N 0.26177(9) 0.31699(10) 0.89991(10)
O6_3 O 0.28791(7) 0.46330(7) 0.87499(8)
N6_3 N 0.20593(8) 0.46093(9) 0.91087(10)
C5_7 C 0.77067(13) 0.61778(14) 0.0000
C6_7 C 0.72449(13) 0.59765(14) 0.0000
C8_7 C 0.64349(16) 0.56123(19) 0.0000
H4_7 H 0.6149 0.5480 0.0000
O4_4 O 0.78791(7) 0.62501(8) 0.03670(7)
N4_4 N 0.70593(8) 0.58913(10) 0.03907(9)
C10_4 C 0.66498(11) 0.57117(12) 0.03880(13)
H6_4 H 0.6506 0.5652 0.0663
Cd2_4 Cd 0.7500 0.60475(2) 0.10475(2)
Cd1_4 Cd 0.7500 0.60475(2) 0.89525(2)
O1_4 O 0.82280(7) 0.63003(8) 0.87466(7)
C1_4 C 0.83627(10) 0.62375(14) 0.83627(10)
C2_4 C 0.80244(10) 0.60676(15) 0.80244(10)
N1_4 N 0.76177(9) 0.60009(10) 0.81699(10)
C3_4 C 0.73164(13) 0.58609(16) 0.78696(13)
H1_4 H 0.7018 0.5811 0.7959
C4_4 C 0.74376(13) 0.5790(3) 0.74376(13)
H2_4 H 0.7225 0.5692 0.7225
O2_4 O 0.78791(7) 0.62501(8) 0.96330(7)
C5_8 C 0.77067(13) 0.61778(14) 1.0000
C6_8 C 0.72449(13) 0.59765(14) 1.0000
N2_4 N 0.70593(8) 0.58913(10) 0.96093(9)
C7_4 C 0.66498(11) 0.57117(12) 0.96120(13)
H3_4 H 0.6506 0.5652 0.9337
C8_8 C 0.64349(16) 0.56123(19) 1.0000
H4_8 H 0.6149 0.5480 1.0000
O3_4 O 0.87466(7) 0.63003(8) 0.82280(7)
N3_4 N 0.81699(10) 0.60009(10) 0.76177(9)
C9_4 C 0.78696(13) 0.58609(16) 0.73164(13)
H5_4 H 0.7959 0.5811 0.7018
Cd3_4 Cd 0.89525(2) 0.60475(2) 0.7500
O5_4 O 0.67720(7) 0.62534(7) 0.86997(8)
N5_4 N 0.73823(9) 0.68301(10) 0.89991(10)
O6_4 O 0.71209(7) 0.53670(7) 0.87499(8)
N6_4 N 0.79407(8) 0.53907(9) 0.91087(10)
Cd1_5 Cd 0.10475(2) 0.7500 0.39525(2)
O1_5 O 0.12534(7) 0.82280(7) 0.36997(8)
C1_5 C 0.16373(10) 0.83627(10) 0.37625(14)
C2_5 C 0.19756(10) 0.80244(10) 0.39324(15)
N1_5 N 0.18301(10) 0.76177(9) 0.39991(10)
C3_5 C 0.21304(13) 0.73164(13) 0.41391(16)
H1_5 H 0.2041 0.7018 0.4189
C4_5 C 0.25624(13) 0.74376(13) 0.4210(3)
H2_5 H 0.2775 0.7225 0.4308
O2_5 O 0.03670(7) 0.78791(7) 0.37499(8)
C5_9 C 0.0000 0.77067(13) 0.38222(14)
C6_9 C 0.0000 0.72449(13) 0.40235(14)
N2_5 N 0.03907(9) 0.70593(8) 0.41087(10)
C7_5 C 0.03880(13) 0.66498(11) 0.42883(12)
H3_5 H 0.0663 0.6506 0.4348
C8_9 C 0.0000 0.64349(16) 0.43877(19)
H4_9 H 0.0000 0.6149 0.4520
O3_5 O 0.17720(7) 0.87466(7) 0.36997(8)
N3_5 N 0.23823(9) 0.81699(10) 0.39991(10)
C9_5 C 0.26836(13) 0.78696(13) 0.41391(16)
H5_5 H 0.2982 0.7959 0.4189
Cd3_5 Cd 0.2500 0.89525(2) 0.39525(2)
O5_5 O 0.13003(8) 0.67720(7) 0.37466(7)
N5_5 N 0.10009(10) 0.73823(9) 0.31699(10)
O6_5 O 0.12501(8) 0.71209(7) 0.46330(7)
N6_5 N 0.08913(10) 0.79407(8) 0.46093(9)
C5_10 C 1.0000 0.77067(13) 0.38222(14)
C6_10 C 1.0000 0.72449(13) 0.40235(14)
C8_10 C 1.0000 0.64349(16) 0.43877(19)
H4_10 H 1.0000 0.6149 0.4520
O4_5 O 0.96330(7) 0.78791(7) 0.37499(8)
N4_5 N 0.96093(9) 0.70593(8) 0.41087(10)
C10_5 C 0.96120(13) 0.66498(11) 0.42883(12)
H6_5 H 0.9337 0.6506 0.4348
Cd2_5 Cd 0.89525(2) 0.7500 0.39525(2)
Cd1_6 Cd 0.10475(2) 0.2500 0.60475(2)
O1_6 O 0.12534(7) 0.17720(7) 0.63003(8)
C1_6 C 0.16373(10) 0.16373(10) 0.62375(14)
C2_6 C 0.19756(10) 0.19756(10) 0.60676(15)
N1_6 N 0.18301(10) 0.23823(9) 0.60009(10)
C3_6 C 0.21304(13) 0.26836(13) 0.58609(16)
H1_6 H 0.2041 0.2982 0.5811
C4_6 C 0.25624(13) 0.25624(13) 0.5790(3)
H2_6 H 0.2775 0.2775 0.5692
O2_6 O 0.03670(7) 0.21209(7) 0.62501(8)
C5_11 C 0.0000 0.22933(13) 0.61778(14)
C6_11 C 0.0000 0.27551(13) 0.59765(14)
N2_6 N 0.03907(9) 0.29407(8) 0.58913(10)
C7_6 C 0.03880(13) 0.33502(11) 0.57117(12)
H3_6 H 0.0663 0.3494 0.5652
C8_11 C 0.0000 0.35651(16) 0.56123(19)
H4_11 H 0.0000 0.3851 0.5480
O3_6 O 0.17720(7) 0.12534(7) 0.63003(8)
N3_6 N 0.23823(9) 0.18301(10) 0.60009(10)
C9_6 C 0.26836(13) 0.21304(13) 0.58609(16)
H5_6 H 0.2982 0.2041 0.5811
Cd3_6 Cd 0.2500 0.10475(2) 0.60475(2)
O5_6 O 0.13003(8) 0.32280(7) 0.62534(7)
N5_6 N 0.10009(10) 0.26177(9) 0.68301(10)
O6_6 O 0.12501(8) 0.28791(7) 0.53670(7)
N6_6 N 0.08913(10) 0.20593(8) 0.53907(9)
C5_12 C 1.0000 0.22933(13) 0.61778(14)
C6_12 C 1.0000 0.27551(13) 0.59765(14)
C8_12 C 1.0000 0.35651(16) 0.56123(19)
H4_12 H 1.0000 0.3851 0.5480
O4_6 O 0.96330(7) 0.21209(7) 0.62501(8)
N4_6 N 0.96093(9) 0.29407(8) 0.58913(10)
C10_6 C 0.96120(13) 0.33502(11) 0.57117(12)
H6_6 H 0.9337 0.3494 0.5652
Cd2_6 Cd 0.89525(2) 0.2500 0.60475(2)
C5_13 C 0.0000 0.22933(13) 0.38222(14)
C6_13 C 0.0000 0.27551(13) 0.40235(14)
C8_13 C 0.0000 0.35651(16) 0.43877(19)
H4_13 H 0.0000 0.3851 0.4520
O4_7 O 0.03670(7) 0.21209(7) 0.37499(8)
N4_7 N 0.03907(9) 0.29407(8) 0.41087(10)
C10_7 C 0.03880(13) 0.33502(11) 0.42883(12)
H6_7 H 0.0663 0.3494 0.4348
Cd2_7 Cd 0.10475(2) 0.2500 0.39525(2)
Cd1_7 Cd 0.89525(2) 0.2500 0.39525(2)
O1_7 O 0.87466(7) 0.17720(7) 0.36997(8)
C1_7 C 0.83627(10) 0.16373(10) 0.37625(14)
C2_7 C 0.80244(10) 0.19756(10) 0.39324(15)
N1_7 N 0.81699(10) 0.23823(9) 0.39991(10)
C3_7 C 0.78696(13) 0.26836(13) 0.41391(16)
H1_7 H 0.7959 0.2982 0.4189
C4_7 C 0.74376(13) 0.25624(13) 0.4210(3)
H2_7 H 0.7225 0.2775 0.4308
O2_7 O 0.96330(7) 0.21209(7) 0.37499(8)
C5_14 C 1.0000 0.22933(13) 0.38222(14)
C6_14 C 1.0000 0.27551(13) 0.40235(14)
N2_7 N 0.96093(9) 0.29407(8) 0.41087(10)
C7_7 C 0.96120(13) 0.33502(11) 0.42883(12)
H3_7 H 0.9337 0.3494 0.4348
C8_14 C 1.0000 0.35651(16) 0.43877(19)
H4_14 H 1.0000 0.3851 0.4520
O3_7 O 0.82280(7) 0.12534(7) 0.36997(8)
N3_7 N 0.76177(9) 0.18301(10) 0.39991(10)
C9_7 C 0.73164(13) 0.21304(13) 0.41391(16)
H5_7 H 0.7018 0.2041 0.4189
Cd3_7 Cd 0.7500 0.10475(2) 0.39525(2)
O5_7 O 0.86997(8) 0.32280(7) 0.37466(7)
N5_7 N 0.89991(10) 0.26177(9) 0.31699(10)
O6_7 O 0.87499(8) 0.28791(7) 0.46330(7)
N6_7 N 0.91087(10) 0.20593(8) 0.46093(9)
C5_15 C 0.0000 0.77067(13) 0.61778(14)
C6_15 C 0.0000 0.72449(13) 0.59765(14)
C8_15 C 0.0000 0.64349(16) 0.56123(19)
H4_15 H 0.0000 0.6149 0.5480
O4_8 O 0.03670(7) 0.78791(7) 0.62501(8)
N4_8 N 0.03907(9) 0.70593(8) 0.58913(10)
C10_8 C 0.03880(13) 0.66498(11) 0.57117(12)
H6_8 H 0.0663 0.6506 0.5652
Cd2_8 Cd 0.10475(2) 0.7500 0.60475(2)
Cd1_8 Cd 0.89525(2) 0.7500 0.60475(2)
O1_8 O 0.87466(7) 0.82280(7) 0.63003(8)
C1_8 C 0.83627(10) 0.83627(10) 0.62375(14)
C2_8 C 0.80244(10) 0.80244(10) 0.60676(15)
N1_8 N 0.81699(10) 0.76177(9) 0.60009(10)
C3_8 C 0.78696(13) 0.73164(13) 0.58609(16)
H1_8 H 0.7959 0.7018 0.5811
C4_8 C 0.74376(13) 0.74376(13) 0.5790(3)
H2_8 H 0.7225 0.7225 0.5692
O2_8 O 0.96330(7) 0.78791(7) 0.62501(8)
C5_16 C 1.0000 0.77067(13) 0.61778(14)
C6_16 C 1.0000 0.72449(13) 0.59765(14)
N2_8 N 0.96093(9) 0.70593(8) 0.58913(10)
C7_8 C 0.96120(13) 0.66498(11) 0.57117(12)
H3_8 H 0.9337 0.6506 0.5652
C8_16 C 1.0000 0.64349(16) 0.56123(19)
H4_16 H 1.0000 0.6149 0.5480
O3_8 O 0.82280(7) 0.87466(7) 0.63003(8)
N3_8 N 0.76177(9) 0.81699(10) 0.60009(10)
C9_8 C 0.73164(13) 0.78696(13) 0.58609(16)
H5_8 H 0.7018 0.7959 0.5811
Cd3_8 Cd 0.7500 0.89525(2) 0.60475(2)
O5_8 O 0.86997(8) 0.67720(7) 0.62534(7)
N5_8 N 0.89991(10) 0.73823(9) 0.68301(10)
O6_8 O 0.87499(8) 0.71209(7) 0.53670(7)
N6_8 N 0.91087(10) 0.79407(8) 0.53907(9)
Cd1_9 Cd 0.39525(2) 0.10475(2) 0.7500
O1_9 O 0.36997(8) 0.12534(7) 0.82280(7)
C1_9 C 0.37625(14) 0.16373(10) 0.83627(10)
C2_9 C 0.39324(15) 0.19756(10) 0.80244(10)
N1_9 N 0.39991(10) 0.18301(10) 0.76177(9)
C3_9 C 0.41391(16) 0.21304(13) 0.73164(13)
H1_9 H 0.4189 0.2041 0.7018
C4_9 C 0.4210(3) 0.25624(13) 0.74376(13)
H2_9 H 0.4308 0.2775 0.7225
O2_9 O 0.37499(8) 0.03670(7) 0.78791(7)
C5_17 C 0.38222(14) 0.0000 0.77067(13)
C6_17 C 0.40235(14) 0.0000 0.72449(13)
N2_9 N 0.41087(10) 0.03907(9) 0.70593(8)
C7_9 C 0.42883(12) 0.03880(13) 0.66498(11)
H3_9 H 0.4348 0.0663 0.6506
C8_17 C 0.43877(19) 0.0000 0.64349(16)
H4_17 H 0.4520 0.0000 0.6149
O3_9 O 0.36997(8) 0.17720(7) 0.87466(7)
N3_9 N 0.39991(10) 0.23823(9) 0.81699(10)
C9_9 C 0.41391(16) 0.26836(13) 0.78696(13)
H5_9 H 0.4189 0.2982 0.7959
Cd3_9 Cd 0.39525(2) 0.2500 0.89525(2)
O5_9 O 0.37466(7) 0.13003(8) 0.67720(7)
N5_9 N 0.31699(10) 0.10009(10) 0.73823(9)
O6_9 O 0.46330(7) 0.12501(8) 0.71209(7)
N6_9 N 0.46093(9) 0.08913(10) 0.79407(8)
C5_18 C 0.38222(14) 1.0000 0.77067(13)
C6_18 C 0.40235(14) 1.0000 0.72449(13)
C8_18 C 0.43877(19) 1.0000 0.64349(16)
H4_18 H 0.4520 1.0000 0.6149
O4_9 O 0.37499(8) 0.96330(7) 0.78791(7)
N4_9 N 0.41087(10) 0.96093(9) 0.70593(8)
C10_9 C 0.42883(12) 0.96120(13) 0.66498(11)
H6_9 H 0.4348 0.9337 0.6506
Cd2_9 Cd 0.39525(2) 0.89525(2) 0.7500
Cd1_10 Cd 0.60475(2) 0.10475(2) 0.2500
O1_10 O 0.63003(8) 0.12534(7) 0.17720(7)
C1_10 C 0.62375(14) 0.16373(10) 0.16373(10)
C2_10 C 0.60676(15) 0.19756(10) 0.19756(10)
N1_10 N 0.60009(10) 0.18301(10) 0.23823(9)
C3_10 C 0.58609(16) 0.21304(13) 0.26836(13)
H1_10 H 0.5811 0.2041 0.2982
C4_10 C 0.5790(3) 0.25624(13) 0.25624(13)
H2_10 H 0.5692 0.2775 0.2775
O2_10 O 0.62501(8) 0.03670(7) 0.21209(7)
C5_19 C 0.61778(14) 0.0000 0.22933(13)
C6_19 C 0.59765(14) 0.0000 0.27551(13)
N2_10 N 0.58913(10) 0.03907(9) 0.29407(8)
C7_10 C 0.57117(12) 0.03880(13) 0.33502(11)
H3_10 H 0.5652 0.0663 0.3494
C8_19 C 0.56123(19) 0.0000 0.35651(16)
H4_19 H 0.5480 0.0000 0.3851
O3_10 O 0.63003(8) 0.17720(7) 0.12534(7)
N3_10 N 0.60009(10) 0.23823(9) 0.18301(10)
C9_10 C 0.58609(16) 0.26836(13) 0.21304(13)
H5_10 H 0.5811 0.2982 0.2041
Cd3_10 Cd 0.60475(2) 0.2500 0.10475(2)
O5_10 O 0.62534(7) 0.13003(8) 0.32280(7)
N5_10 N 0.68301(10) 0.10009(10) 0.26177(9)
O6_10 O 0.53670(7) 0.12501(8) 0.28791(7)
N6_10 N 0.53907(9) 0.08913(10) 0.20593(8)
C5_20 C 0.61778(14) 1.0000 0.22933(13)
C6_20 C 0.59765(14) 1.0000 0.27551(13)
C8_20 C 0.56123(19) 1.0000 0.35651(16)
H4_20 H 0.5480 1.0000 0.3851
O4_10 O 0.62501(8) 0.96330(7) 0.21209(7)
N4_10 N 0.58913(10) 0.96093(9) 0.29407(8)
C10_10 C 0.57117(12) 0.96120(13) 0.33502(11)
H6_10 H 0.5652 0.9337 0.3494
Cd2_10 Cd 0.60475(2) 0.89525(2) 0.2500
C5_21 C 0.38222(14) 0.0000 0.22933(13)
C6_21 C 0.40235(14) 0.0000 0.27551(13)
C8_21 C 0.43877(19) 0.0000 0.35651(16)
H4_21 H 0.4520 0.0000 0.3851
O4_11 O 0.37499(8) 0.03670(7) 0.21209(7)
N4_11 N 0.41087(10) 0.03907(9) 0.29407(8)
C10_11 C 0.42883(12) 0.03880(13) 0.33502(11)
H6_11 H 0.4348 0.0663 0.3494
Cd2_11 Cd 0.39525(2) 0.10475(2) 0.2500
Cd1_11 Cd 0.39525(2) 0.89525(2) 0.2500
O1_11 O 0.36997(8) 0.87466(7) 0.17720(7)
C1_11 C 0.37625(14) 0.83627(10) 0.16373(10)
C2_11 C 0.39324(15) 0.80244(10) 0.19756(10)
N1_11 N 0.39991(10) 0.81699(10) 0.23823(9)
C3_11 C 0.41391(16) 0.78696(13) 0.26836(13)
H1_11 H 0.4189 0.7959 0.2982
C4_11 C 0.4210(3) 0.74376(13) 0.25624(13)
H2_11 H 0.4308 0.7225 0.2775
O2_11 O 0.37499(8) 0.96330(7) 0.21209(7)
C5_22 C 0.38222(14) 1.0000 0.22933(13)
C6_22 C 0.40235(14) 1.0000 0.27551(13)
N2_11 N 0.41087(10) 0.96093(9) 0.29407(8)
C7_11 C 0.42883(12) 0.96120(13) 0.33502(11)
H3_11 H 0.4348 0.9337 0.3494
C8_22 C 0.43877(19) 1.0000 0.35651(16)
H4_22 H 0.4520 1.0000 0.3851
O3_11 O 0.36997(8) 0.82280(7) 0.12534(7)
N3_11 N 0.39991(10) 0.76177(9) 0.18301(10)
C9_11 C 0.41391(16) 0.73164(13) 0.21304(13)
H5_11 H 0.4189 0.7018 0.2041
Cd3_11 Cd 0.39525(2) 0.7500 0.10475(2)
O5_11 O 0.37466(7) 0.86997(8) 0.32280(7)
N5_11 N 0.31699(10) 0.89991(10) 0.26177(9)
O6_11 O 0.46330(7) 0.87499(8) 0.28791(7)
N6_11 N 0.46093(9) 0.91087(10) 0.20593(8)
C5_23 C 0.61778(14) 0.0000 0.77067(13)
C6_23 C 0.59765(14) 0.0000 0.72449(13)
C8_23 C 0.56123(19) 0.0000 0.64349(16)
H4_23 H 0.5480 0.0000 0.6149
O4_12 O 0.62501(8) 0.03670(7) 0.78791(7)
N4_12 N 0.58913(10) 0.03907(9) 0.70593(8)
C10_12 C 0.57117(12) 0.03880(13) 0.66498(11)
H6_12 H 0.5652 0.0663 0.6506
Cd2_12 Cd 0.60475(2) 0.10475(2) 0.7500
Cd1_12 Cd 0.60475(2) 0.89525(2) 0.7500
O1_12 O 0.63003(8) 0.87466(7) 0.82280(7)
C1_12 C 0.62375(14) 0.83627(10) 0.83627(10)
C2_12 C 0.60676(15) 0.80244(10) 0.80244(10)
N1_12 N 0.60009(10) 0.81699(10) 0.76177(9)
C3_12 C 0.58609(16) 0.78696(13) 0.73164(13)
H1_12 H 0.5811 0.7959 0.7018
C4_12 C 0.5790(3) 0.74376(13) 0.74376(13)
H2_12 H 0.5692 0.7225 0.7225
O2_12 O 0.62501(8) 0.96330(7) 0.78791(7)
C5_24 C 0.61778(14) 1.0000 0.77067(13)
C6_24 C 0.59765(14) 1.0000 0.72449(13)
N2_12 N 0.58913(10) 0.96093(9) 0.70593(8)
C7_12 C 0.57117(12) 0.96120(13) 0.66498(11)
H3_12 H 0.5652 0.9337 0.6506
C8_24 C 0.56123(19) 1.0000 0.64349(16)
H4_24 H 0.5480 1.0000 0.6149
O3_12 O 0.63003(8) 0.82280(7) 0.87466(7)
N3_12 N 0.60009(10) 0.76177(9) 0.81699(10)
C9_12 C 0.58609(16) 0.73164(13) 0.78696(13)
H5_12 H 0.5811 0.7018 0.7959
Cd3_12 Cd 0.60475(2) 0.7500 0.89525(2)
O5_12 O 0.62534(7) 0.86997(8) 0.67720(7)
N5_12 N 0.68301(10) 0.89991(10) 0.73823(9)
O6_12 O 0.53670(7) 0.87499(8) 0.71209(7)
N6_12 N 0.53907(9) 0.91087(10) 0.79407(8)
C5_25 C 0.38222(14) 0.77067(13) 0.0000
C6_25 C 0.40235(14) 0.72449(13) 0.0000
C8_25 C 0.43877(19) 0.64349(16) 0.0000
H4_25 H 0.4520 0.6149 0.0000
O4_13 O 0.37499(8) 0.78791(7) 0.03670(7)
N4_13 N 0.41087(10) 0.70593(8) 0.03907(9)
C10_13 C 0.42883(12) 0.66498(11) 0.03880(13)
H6_13 H 0.4348 0.6506 0.0663
Cd1_13 Cd 0.39525(2) 0.7500 0.89525(2)
O1_13 O 0.36997(8) 0.82280(7) 0.87466(7)
C1_13 C 0.37625(14) 0.83627(10) 0.83627(10)
C2_13 C 0.39324(15) 0.80244(10) 0.80244(10)
N1_13 N 0.39991(10) 0.76177(9) 0.81699(10)
C3_13 C 0.41391(16) 0.73164(13) 0.78696(13)
H1_13 H 0.4189 0.7018 0.7959
C4_13 C 0.4210(3) 0.74376(13) 0.74376(13)
H2_13 H 0.4308 0.7225 0.7225
O2_13 O 0.37499(8) 0.78791(7) 0.96330(7)
C5_26 C 0.38222(14) 0.77067(13) 1.0000
C6_26 C 0.40235(14) 0.72449(13) 1.0000
N2_13 N 0.41087(10) 0.70593(8) 0.96093(9)
C7_13 C 0.42883(12) 0.66498(11) 0.96120(13)
H3_13 H 0.4348 0.6506 0.9337
C8_26 C 0.43877(19) 0.64349(16) 1.0000
H4_26 H 0.4520 0.6149 1.0000
O3_13 O 0.36997(8) 0.87466(7) 0.82280(7)
N3_13 N 0.39991(10) 0.81699(10) 0.76177(9)
C9_13 C 0.41391(16) 0.78696(13) 0.73164(13)
H5_13 H 0.4189 0.7959 0.7018
O5_13 O 0.37466(7) 0.67720(7) 0.86997(8)
N5_13 N 0.31699(10) 0.73823(9) 0.89991(10)
O6_13 O 0.46330(7) 0.71209(7) 0.87499(8)
N6_13 N 0.46093(9) 0.79407(8) 0.91087(10)
C5_27 C 0.61778(14) 0.22933(13) 0.0000
C6_27 C 0.59765(14) 0.27551(13) 0.0000
C8_27 C 0.56123(19) 0.35651(16) 0.0000
H4_27 H 0.5480 0.3851 0.0000
O4_14 O 0.62501(8) 0.21209(7) 0.03670(7)
N4_14 N 0.58913(10) 0.29407(8) 0.03907(9)
C10_14 C 0.57117(12) 0.33502(11) 0.03880(13)
H6_14 H 0.5652 0.3494 0.0663
Cd1_14 Cd 0.60475(2) 0.2500 0.89525(2)
O1_14 O 0.63003(8) 0.17720(7) 0.87466(7)
C1_14 C 0.62375(14) 0.16373(10) 0.83627(10)
C2_14 C 0.60676(15) 0.19756(10) 0.80244(10)
N1_14 N 0.60009(10) 0.23823(9) 0.81699(10)
C3_14 C 0.58609(16) 0.26836(13) 0.78696(13)
H1_14 H 0.5811 0.2982 0.7959
C4_14 C 0.5790(3) 0.25624(13) 0.74376(13)
H2_14 H 0.5692 0.2775 0.7225
O2_14 O 0.62501(8) 0.21209(7) 0.96330(7)
C5_28 C 0.61778(14) 0.22933(13) 1.0000
C6_28 C 0.59765(14) 0.27551(13) 1.0000
N2_14 N 0.58913(10) 0.29407(8) 0.96093(9)
C7_14 C 0.57117(12) 0.33502(11) 0.96120(13)
H3_14 H 0.5652 0.3494 0.9337
C8_28 C 0.56123(19) 0.35651(16) 1.0000
H4_28 H 0.5480 0.3851 1.0000
O3_14 O 0.63003(8) 0.12534(7) 0.82280(7)
N3_14 N 0.60009(10) 0.18301(10) 0.76177(9)
C9_14 C 0.58609(16) 0.21304(13) 0.73164(13)
H5_14 H 0.5811 0.2041 0.7018
O5_14 O 0.62534(7) 0.32280(7) 0.86997(8)
N5_14 N 0.68301(10) 0.26177(9) 0.89991(10)
O6_14 O 0.53670(7) 0.28791(7) 0.87499(8)
N6_14 N 0.53907(9) 0.20593(8) 0.91087(10)
Cd1_15 Cd 0.39525(2) 0.2500 0.10475(2)
O1_15 O 0.36997(8) 0.17720(7) 0.12534(7)
C1_15 C 0.37625(14) 0.16373(10) 0.16373(10)
C2_15 C 0.39324(15) 0.19756(10) 0.19756(10)
N1_15 N 0.39991(10) 0.23823(9) 0.18301(10)
C3_15 C 0.41391(16) 0.26836(13) 0.21304(13)
H1_15 H 0.4189 0.2982 0.2041
C4_15 C 0.4210(3) 0.25624(13) 0.25624(13)
H2_15 H 0.4308 0.2775 0.2775
O2_15 O 0.37499(8) 0.21209(7) 0.03670(7)
C5_29 C 0.38222(14) 0.22933(13) 0.0000
C6_29 C 0.40235(14) 0.27551(13) 0.0000
N2_15 N 0.41087(10) 0.29407(8) 0.03907(9)
C7_15 C 0.42883(12) 0.33502(11) 0.03880(13)
H3_15 H 0.4348 0.3494 0.0663
C8_29 C 0.43877(19) 0.35651(16) 0.0000
H4_29 H 0.4520 0.3851 0.0000
O3_15 O 0.36997(8) 0.12534(7) 0.17720(7)
N3_15 N 0.39991(10) 0.18301(10) 0.23823(9)
C9_15 C 0.41391(16) 0.21304(13) 0.26836(13)
H5_15 H 0.4189 0.2041 0.2982
O5_15 O 0.37466(7) 0.32280(7) 0.13003(8)
N5_15 N 0.31699(10) 0.26177(9) 0.10009(10)
O6_15 O 0.46330(7) 0.28791(7) 0.12501(8)
N6_15 N 0.46093(9) 0.20593(8) 0.08913(10)
C5_30 C 0.38222(14) 0.22933(13) 1.0000
C6_30 C 0.40235(14) 0.27551(13) 1.0000
C8_30 C 0.43877(19) 0.35651(16) 1.0000
H4_30 H 0.4520 0.3851 1.0000
O4_15 O 0.37499(8) 0.21209(7) 0.96330(7)
N4_15 N 0.41087(10) 0.29407(8) 0.96093(9)
C10_15 C 0.42883(12) 0.33502(11) 0.96120(13)
H6_15 H 0.4348 0.3494 0.9337
Cd1_16 Cd 0.60475(2) 0.7500 0.10475(2)
O1_16 O 0.63003(8) 0.82280(7) 0.12534(7)
C1_16 C 0.62375(14) 0.83627(10) 0.16373(10)
C2_16 C 0.60676(15) 0.80244(10) 0.19756(10)
N1_16 N 0.60009(10) 0.76177(9) 0.18301(10)
C3_16 C 0.58609(16) 0.73164(13) 0.21304(13)
H1_16 H 0.5811 0.7018 0.2041
C4_16 C 0.5790(3) 0.74376(13) 0.25624(13)
H2_16 H 0.5692 0.7225 0.2775
O2_16 O 0.62501(8) 0.78791(7) 0.03670(7)
C5_31 C 0.61778(14) 0.77067(13) 0.0000
C6_31 C 0.59765(14) 0.72449(13) 0.0000
N2_16 N 0.58913(10) 0.70593(8) 0.03907(9)
C7_16 C 0.57117(12) 0.66498(11) 0.03880(13)
H3_16 H 0.5652 0.6506 0.0663
C8_31 C 0.56123(19) 0.64349(16) 0.0000
H4_31 H 0.5480 0.6149 0.0000
O3_16 O 0.63003(8) 0.87466(7) 0.17720(7)
N3_16 N 0.60009(10) 0.81699(10) 0.23823(9)
C9_16 C 0.58609(16) 0.78696(13) 0.26836(13)
H5_16 H 0.5811 0.7959 0.2982
O5_16 O 0.62534(7) 0.67720(7) 0.13003(8)
N5_16 N 0.68301(10) 0.73823(9) 0.10009(10)
O6_16 O 0.53670(7) 0.71209(7) 0.12501(8)
N6_16 N 0.53907(9) 0.79407(8) 0.08913(10)
C5_32 C 0.61778(14) 0.77067(13) 1.0000
C6_32 C 0.59765(14) 0.72449(13) 1.0000
C8_32 C 0.56123(19) 0.64349(16) 1.0000
H4_32 H 0.5480 0.6149 1.0000
O4_16 O 0.62501(8) 0.78791(7) 0.96330(7)
N4_16 N 0.58913(10) 0.70593(8) 0.96093(9)
C10_16 C 0.57117(12) 0.66498(11) 0.96120(13)
H6_16 H 0.5652 0.6506 0.9337
Cd1_17 Cd 0.7500 0.10475(2) 0.60475(2)
O1_17 O 0.82280(7) 0.12534(7) 0.63003(8)
C1_17 C 0.83627(10) 0.16373(10) 0.62375(14)
C2_17 C 0.80244(10) 0.19756(10) 0.60676(15)
N1_17 N 0.76177(9) 0.18301(10) 0.60009(10)
C3_17 C 0.73164(13) 0.21304(13) 0.58609(16)
H1_17 H 0.7018 0.2041 0.5811
C4_17 C 0.74376(13) 0.25624(13) 0.5790(3)
H2_17 H 0.7225 0.2775 0.5692
O2_17 O 0.78791(7) 0.03670(7) 0.62501(8)
C5_33 C 0.77067(13) 0.0000 0.61778(14)
C6_33 C 0.72449(13) 0.0000 0.59765(14)
N2_17 N 0.70593(8) 0.03907(9) 0.58913(10)
C7_17 C 0.66498(11) 0.03880(13) 0.57117(12)
H3_17 H 0.6506 0.0663 0.5652
C8_33 C 0.64349(16) 0.0000 0.56123(19)
H4_33 H 0.6149 0.0000 0.5480
O3_17 O 0.87466(7) 0.17720(7) 0.63003(8)
N3_17 N 0.81699(10) 0.23823(9) 0.60009(10)
C9_17 C 0.78696(13) 0.26836(13) 0.58609(16)
H5_17 H 0.7959 0.2982 0.5811
O5_17 O 0.67720(7) 0.13003(8) 0.62534(7)
N5_17 N 0.73823(9) 0.10009(10) 0.68301(10)
O6_17 O 0.71209(7) 0.12501(8) 0.53670(7)
N6_17 N 0.79407(8) 0.08913(10) 0.53907(9)
C5_34 C 0.77067(13) 1.0000 0.61778(14)
C6_34 C 0.72449(13) 1.0000 0.59765(14)
C8_34 C 0.64349(16) 1.0000 0.56123(19)
H4_34 H 0.6149 1.0000 0.5480
O4_17 O 0.78791(7) 0.96330(7) 0.62501(8)
N4_17 N 0.70593(8) 0.96093(9) 0.58913(10)
C10_17 C 0.66498(11) 0.96120(13) 0.57117(12)
H6_17 H 0.6506 0.9337 0.5652
Cd1_18 Cd 0.2500 0.10475(2) 0.39525(2)
O1_18 O 0.17720(7) 0.12534(7) 0.36997(8)
C1_18 C 0.16373(10) 0.16373(10) 0.37625(14)
C2_18 C 0.19756(10) 0.19756(10) 0.39324(15)
N1_18 N 0.23823(9) 0.18301(10) 0.39991(10)
C3_18 C 0.26836(13) 0.21304(13) 0.41391(16)
H1_18 H 0.2982 0.2041 0.4189
C4_18 C 0.25624(13) 0.25624(13) 0.4210(3)
H2_18 H 0.2775 0.2775 0.4308
O2_18 O 0.21209(7) 0.03670(7) 0.37499(8)
C5_35 C 0.22933(13) 0.0000 0.38222(14)
C6_35 C 0.27551(13) 0.0000 0.40235(14)
N2_18 N 0.29407(8) 0.03907(9) 0.41087(10)
C7_18 C 0.33502(11) 0.03880(13) 0.42883(12)
H3_18 H 0.3494 0.0663 0.4348
C8_35 C 0.35651(16) 0.0000 0.43877(19)
H4_35 H 0.3851 0.0000 0.4520
O3_18 O 0.12534(7) 0.17720(7) 0.36997(8)
N3_18 N 0.18301(10) 0.23823(9) 0.39991(10)
C9_18 C 0.21304(13) 0.26836(13) 0.41391(16)
H5_18 H 0.2041 0.2982 0.4189
O5_18 O 0.32280(7) 0.13003(8) 0.37466(7)
N5_18 N 0.26177(9) 0.10009(10) 0.31699(10)
O6_18 O 0.28791(7) 0.12501(8) 0.46330(7)
N6_18 N 0.20593(8) 0.08913(10) 0.46093(9)
C5_36 C 0.22933(13) 1.0000 0.38222(14)
C6_36 C 0.27551(13) 1.0000 0.40235(14)
C8_36 C 0.35651(16) 1.0000 0.43877(19)
H4_36 H 0.3851 1.0000 0.4520
O4_18 O 0.21209(7) 0.96330(7) 0.37499(8)
N4_18 N 0.29407(8) 0.96093(9) 0.41087(10)
C10_18 C 0.33502(11) 0.96120(13) 0.42883(12)
H6_18 H 0.3494 0.9337 0.4348
C5_37 C 0.22933(13) 0.0000 0.61778(14)
C6_37 C 0.27551(13) 0.0000 0.59765(14)
C8_37 C 0.35651(16) 0.0000 0.56123(19)
H4_37 H 0.3851 0.0000 0.5480
O4_19 O 0.21209(7) 0.03670(7) 0.62501(8)
N4_19 N 0.29407(8) 0.03907(9) 0.58913(10)
C10_19 C 0.33502(11) 0.03880(13) 0.57117(12)
H6_19 H 0.3494 0.0663 0.5652
Cd1_19 Cd 0.2500 0.89525(2) 0.60475(2)
O1_19 O 0.17720(7) 0.87466(7) 0.63003(8)
C1_19 C 0.16373(10) 0.83627(10) 0.62375(14)
C2_19 C 0.19756(10) 0.80244(10) 0.60676(15)
N1_19 N 0.23823(9) 0.81699(10) 0.60009(10)
C3_19 C 0.26836(13) 0.78696(13) 0.58609(16)
H1_19 H 0.2982 0.7959 0.5811
C4_19 C 0.25624(13) 0.74376(13) 0.5790(3)
H2_19 H 0.2775 0.7225 0.5692
O2_19 O 0.21209(7) 0.96330(7) 0.62501(8)
C5_38 C 0.22933(13) 1.0000 0.61778(14)
C6_38 C 0.27551(13) 1.0000 0.59765(14)
N2_19 N 0.29407(8) 0.96093(9) 0.58913(10)
C7_19 C 0.33502(11) 0.96120(13) 0.57117(12)
H3_19 H 0.3494 0.9337 0.5652
C8_38 C 0.35651(16) 1.0000 0.56123(19)
H4_38 H 0.3851 1.0000 0.5480
O3_19 O 0.12534(7) 0.82280(7) 0.63003(8)
N3_19 N 0.18301(10) 0.76177(9) 0.60009(10)
C9_19 C 0.21304(13) 0.73164(13) 0.58609(16)
H5_19 H 0.2041 0.7018 0.5811
O5_19 O 0.32280(7) 0.86997(8) 0.62534(7)
N5_19 N 0.26177(9) 0.89991(10) 0.68301(10)
O6_19 O 0.28791(7) 0.87499(8) 0.53670(7)
N6_19 N 0.20593(8) 0.91087(10) 0.53907(9)
C5_39 C 0.77067(13) 0.0000 0.38222(14)
C6_39 C 0.72449(13) 0.0000 0.40235(14)
C8_39 C 0.64349(16) 0.0000 0.43877(19)
H4_39 H 0.6149 0.0000 0.4520
O4_20 O 0.78791(7) 0.03670(7) 0.37499(8)
N4_20 N 0.70593(8) 0.03907(9) 0.41087(10)
C10_20 C 0.66498(11) 0.03880(13) 0.42883(12)
H6_20 H 0.6506 0.0663 0.4348
Cd1_20 Cd 0.7500 0.89525(2) 0.39525(2)
O1_20 O 0.82280(7) 0.87466(7) 0.36997(8)
C1_20 C 0.83627(10) 0.83627(10) 0.37625(14)
C2_20 C 0.80244(10) 0.80244(10) 0.39324(15)
N1_20 N 0.76177(9) 0.81699(10) 0.39991(10)
C3_20 C 0.73164(13) 0.78696(13) 0.41391(16)
H1_20 H 0.7018 0.7959 0.4189
C4_20 C 0.74376(13) 0.74376(13) 0.4210(3)
H2_20 H 0.7225 0.7225 0.4308
O2_20 O 0.78791(7) 0.96330(7) 0.37499(8)
C5_40 C 0.77067(13) 1.0000 0.38222(14)
C6_40 C 0.72449(13) 1.0000 0.40235(14)
N2_20 N 0.70593(8) 0.96093(9) 0.41087(10)
C7_20 C 0.66498(11) 0.96120(13) 0.42883(12)
H3_20 H 0.6506 0.9337 0.4348
C8_40 C 0.64349(16) 1.0000 0.43877(19)
H4_40 H 0.6149 1.0000 0.4520
O3_20 O 0.87466(7) 0.82280(7) 0.36997(8)
N3_20 N 0.81699(10) 0.76177(9) 0.39991(10)
C9_20 C 0.78696(13) 0.73164(13) 0.41391(16)
H5_20 H 0.7959 0.7018 0.4189
O5_20 O 0.67720(7) 0.86997(8) 0.37466(7)
N5_20 N 0.73823(9) 0.89991(10) 0.31699(10)
O6_20 O 0.71209(7) 0.87499(8) 0.46330(7)
N6_20 N 0.79407(8) 0.91087(10) 0.46093(9)
Cd1_21 Cd 0.10475(2) 0.39525(2) 0.2500
O1_21 O 0.12534(7) 0.36997(8) 0.17720(7)
C1_21 C 0.16373(10) 0.37625(14) 0.16373(10)
C2_21 C 0.19756(10) 0.39324(15) 0.19756(10)
N1_21 N 0.18301(10) 0.39991(10) 0.23823(9)
C3_21 C 0.21304(13) 0.41391(16) 0.26836(13)
H1_21 H 0.2041 0.4189 0.2982
C4_21 C 0.25624(13) 0.4210(3) 0.25624(13)
H2_21 H 0.2775 0.4308 0.2775
O2_21 O 0.03670(7) 0.37499(8) 0.21209(7)
C5_41 C 0.0000 0.38222(14) 0.22933(13)
C6_41 C 0.0000 0.40235(14) 0.27551(13)
N2_21 N 0.03907(9) 0.41087(10) 0.29407(8)
C7_21 C 0.03880(13) 0.42883(12) 0.33502(11)
H3_21 H 0.0663 0.4348 0.3494
C8_41 C 0.0000 0.43877(19) 0.35651(16)
H4_41 H 0.0000 0.4520 0.3851
O3_21 O 0.17720(7) 0.36997(8) 0.12534(7)
N3_21 N 0.23823(9) 0.39991(10) 0.18301(10)
C9_21 C 0.26836(13) 0.41391(16) 0.21304(13)
H5_21 H 0.2982 0.4189 0.2041
O5_21 O 0.13003(8) 0.37466(7) 0.32280(7)
N5_21 N 0.10009(10) 0.31699(10) 0.26177(9)
O6_21 O 0.12501(8) 0.46330(7) 0.28791(7)
N6_21 N 0.08913(10) 0.46093(9) 0.20593(8)
C5_42 C 1.0000 0.38222(14) 0.22933(13)
C6_42 C 1.0000 0.40235(14) 0.27551(13)
C8_42 C 1.0000 0.43877(19) 0.35651(16)
H4_42 H 1.0000 0.4520 0.3851
O4_21 O 0.96330(7) 0.37499(8) 0.21209(7)
N4_21 N 0.96093(9) 0.41087(10) 0.29407(8)
C10_21 C 0.96120(13) 0.42883(12) 0.33502(11)
H6_21 H 0.9337 0.4348 0.3494
Cd1_22 Cd 0.10475(2) 0.60475(2) 0.7500
O1_22 O 0.12534(7) 0.63003(8) 0.82280(7)
C1_22 C 0.16373(10) 0.62375(14) 0.83627(10)
C2_22 C 0.19756(10) 0.60676(15) 0.80244(10)
N1_22 N 0.18301(10) 0.60009(10) 0.76177(9)
C3_22 C 0.21304(13) 0.58609(16) 0.73164(13)
H1_22 H 0.2041 0.5811 0.7018
C4_22 C 0.25624(13) 0.5790(3) 0.74376(13)
H2_22 H 0.2775 0.5692 0.7225
O2_22 O 0.03670(7) 0.62501(8) 0.78791(7)
C5_43 C 0.0000 0.61778(14) 0.77067(13)
C6_43 C 0.0000 0.59765(14) 0.72449(13)
N2_22 N 0.03907(9) 0.58913(10) 0.70593(8)
C7_22 C 0.03880(13) 0.57117(12) 0.66498(11)
H3_22 H 0.0663 0.5652 0.6506
C8_43 C 0.0000 0.56123(19) 0.64349(16)
H4_43 H 0.0000 0.5480 0.6149
O3_22 O 0.17720(7) 0.63003(8) 0.87466(7)
N3_22 N 0.23823(9) 0.60009(10) 0.81699(10)
C9_22 C 0.26836(13) 0.58609(16) 0.78696(13)
H5_22 H 0.2982 0.5811 0.7959
O5_22 O 0.13003(8) 0.62534(7) 0.67720(7)
N5_22 N 0.10009(10) 0.68301(10) 0.73823(9)
O6_22 O 0.12501(8) 0.53670(7) 0.71209(7)
N6_22 N 0.08913(10) 0.53907(9) 0.79407(8)
C5_44 C 1.0000 0.61778(14) 0.77067(13)
C6_44 C 1.0000 0.59765(14) 0.72449(13)
C8_44 C 1.0000 0.56123(19) 0.64349(16)
H4_44 H 1.0000 0.5480 0.6149
O4_22 O 0.96330(7) 0.62501(8) 0.78791(7)
N4_22 N 0.96093(9) 0.58913(10) 0.70593(8)
C10_22 C 0.96120(13) 0.57117(12) 0.66498(11)
H6_22 H 0.9337 0.5652 0.6506
C5_45 C 0.0000 0.38222(14) 0.77067(13)
C6_45 C 0.0000 0.40235(14) 0.72449(13)
C8_45 C 0.0000 0.43877(19) 0.64349(16)
H4_45 H 0.0000 0.4520 0.6149
O4_23 O 0.03670(7) 0.37499(8) 0.78791(7)
N4_23 N 0.03907(9) 0.41087(10) 0.70593(8)
C10_23 C 0.03880(13) 0.42883(12) 0.66498(11)
H6_23 H 0.0663 0.4348 0.6506
Cd1_23 Cd 0.89525(2) 0.39525(2) 0.7500
O1_23 O 0.87466(7) 0.36997(8) 0.82280(7)
C1_23 C 0.83627(10) 0.37625(14) 0.83627(10)
C2_23 C 0.80244(10) 0.39324(15) 0.80244(10)
N1_23 N 0.81699(10) 0.39991(10) 0.76177(9)
C3_23 C 0.78696(13) 0.41391(16) 0.73164(13)
H1_23 H 0.7959 0.4189 0.7018
C4_23 C 0.74376(13) 0.4210(3) 0.74376(13)
H2_23 H 0.7225 0.4308 0.7225
O2_23 O 0.96330(7) 0.37499(8) 0.78791(7)
C5_46 C 1.0000 0.38222(14) 0.77067(13)
C6_46 C 1.0000 0.40235(14) 0.72449(13)
N2_23 N 0.96093(9) 0.41087(10) 0.70593(8)
C7_23 C 0.96120(13) 0.42883(12) 0.66498(11)
H3_23 H 0.9337 0.4348 0.6506
C8_46 C 1.0000 0.43877(19) 0.64349(16)
H4_46 H 1.0000 0.4520 0.6149
O3_23 O 0.82280(7) 0.36997(8) 0.87466(7)
N3_23 N 0.76177(9) 0.39991(10) 0.81699(10)
C9_23 C 0.73164(13) 0.41391(16) 0.78696(13)
H5_23 H 0.7018 0.4189 0.7959
O5_23 O 0.86997(8) 0.37466(7) 0.67720(7)
N5_23 N 0.89991(10) 0.31699(10) 0.73823(9)
O6_23 O 0.87499(8) 0.46330(7) 0.71209(7)
N6_23 N 0.91087(10) 0.46093(9) 0.79407(8)
C5_47 C 0.0000 0.61778(14) 0.22933(13)
C6_47 C 0.0000 0.59765(14) 0.27551(13)
C8_47 C 0.0000 0.56123(19) 0.35651(16)
H4_47 H 0.0000 0.5480 0.3851
O4_24 O 0.03670(7) 0.62501(8) 0.21209(7)
N4_24 N 0.03907(9) 0.58913(10) 0.29407(8)
C10_24 C 0.03880(13) 0.57117(12) 0.33502(11)
H6_24 H 0.0663 0.5652 0.3494
Cd1_24 Cd 0.89525(2) 0.60475(2) 0.2500
O1_24 O 0.87466(7) 0.63003(8) 0.17720(7)
C1_24 C 0.83627(10) 0.62375(14) 0.16373(10)
C2_24 C 0.80244(10) 0.60676(15) 0.19756(10)
N1_24 N 0.81699(10) 0.60009(10) 0.23823(9)
C3_24 C 0.78696(13) 0.58609(16) 0.26836(13)
H1_24 H 0.7959 0.5811 0.2982
C4_24 C 0.74376(13) 0.5790(3) 0.25624(13)
H2_24 H 0.7225 0.5692 0.2775
O2_24 O 0.96330(7) 0.62501(8) 0.21209(7)
C5_48 C 1.0000 0.61778(14) 0.22933(13)
C6_48 C 1.0000 0.59765(14) 0.27551(13)
N2_24 N 0.96093(9) 0.58913(10) 0.29407(8)
C7_24 C 0.96120(13) 0.57117(12) 0.33502(11)
H3_24 H 0.9337 0.5652 0.3494
C8_48 C 1.0000 0.56123(19) 0.35651(16)
H4_48 H 1.0000 0.5480 0.3851
O3_24 O 0.82280(7) 0.63003(8) 0.12534(7)
N3_24 N 0.76177(9) 0.60009(10) 0.18301(10)
C9_24 C 0.73164(13) 0.58609(16) 0.21304(13)
H5_24 H 0.7018 0.5811 0.2041
O5_24 O 0.86997(8) 0.62534(7) 0.32280(7)
N5_24 N 0.89991(10) 0.68301(10) 0.26177(9)
O6_24 O 0.87499(8) 0.53670(7) 0.28791(7)
N6_24 N 0.91087(10) 0.53907(9) 0.20593(8)
C1_25 C 0.33627(10) 0.87625(14) 0.66373(10)
C2_25 C 0.30244(10) 0.89324(15) 0.69756(10)
C3_25 C 0.23164(13) 0.91391(16) 0.71304(13)
H1_25 H 0.2018 0.9189 0.7041
C4_25 C 0.24376(13) 0.9210(3) 0.75624(13)
H2_25 H 0.2225 0.9308 0.7775
C5_49 C 0.27067(13) 0.88222(14) 0.5000
C6_49 C 0.22449(13) 0.90235(14) 0.5000
C7_25 C 0.16498(11) 0.92883(12) 0.53880(13)
H3_25 H 0.1506 0.9348 0.5663
C8_49 C 0.14349(16) 0.93877(19) 0.5000
H4_49 H 0.1149 0.9520 0.5000
O3_25 O 0.37466(7) 0.86997(8) 0.67720(7)
N3_25 N 0.31699(10) 0.89991(10) 0.73823(9)
C9_25 C 0.28696(13) 0.91391(16) 0.76836(13)
H5_25 H 0.2959 0.9189 0.7982
O4_25 O 0.28791(7) 0.87499(8) 0.46330(7)
N4_25 N 0.20593(8) 0.91087(10) 0.46093(9)
C10_25 C 0.16498(11) 0.92883(12) 0.46120(13)
H6_25 H 0.1506 0.9348 0.4337
C1_26 C 0.66373(10) 0.12375(14) 0.66373(10)
C2_26 C 0.69756(10) 0.10676(15) 0.69756(10)
C3_26 C 0.76836(13) 0.08609(16) 0.71304(13)
H1_26 H 0.7982 0.0811 0.7041
C4_26 C 0.75624(13) 0.0790(3) 0.75624(13)
H2_26 H 0.7775 0.0692 0.7775
C5_50 C 0.72933(13) 0.11778(14) 0.5000
C6_50 C 0.77551(13) 0.09765(14) 0.5000
C7_26 C 0.83502(11) 0.07117(12) 0.53880(13)
H3_26 H 0.8494 0.0652 0.5663
C8_50 C 0.85651(16) 0.06123(19) 0.5000
H4_50 H 0.8851 0.0480 0.5000
O3_26 O 0.62534(7) 0.13003(8) 0.67720(7)
N3_26 N 0.68301(10) 0.10009(10) 0.73823(9)
C9_26 C 0.71304(13) 0.08609(16) 0.76836(13)
H5_26 H 0.7041 0.0811 0.7982
O4_26 O 0.71209(7) 0.12501(8) 0.46330(7)
N4_26 N 0.79407(8) 0.08913(10) 0.46093(9)
C10_26 C 0.83502(11) 0.07117(12) 0.46120(13)
H6_26 H 0.8494 0.0652 0.4337
C1_27 C 0.66373(10) 0.87625(14) 0.33627(10)
C2_27 C 0.69756(10) 0.89324(15) 0.30244(10)
C3_27 C 0.76836(13) 0.91391(16) 0.28696(13)
H1_27 H 0.7982 0.9189 0.2959
C4_27 C 0.75624(13) 0.9210(3) 0.24376(13)
H2_27 H 0.7775 0.9308 0.2225
C5_51 C 0.72933(13) 0.88222(14) 0.5000
C6_51 C 0.77551(13) 0.90235(14) 0.5000
C7_27 C 0.83502(11) 0.92883(12) 0.46120(13)
H3_27 H 0.8494 0.9348 0.4337
C8_51 C 0.85651(16) 0.93877(19) 0.5000
H4_51 H 0.8851 0.9520 0.5000
O3_27 O 0.62534(7) 0.86997(8) 0.32280(7)
N3_27 N 0.68301(10) 0.89991(10) 0.26177(9)
C9_27 C 0.71304(13) 0.91391(16) 0.23164(13)
H5_27 H 0.7041 0.9189 0.2018
O4_27 O 0.71209(7) 0.87499(8) 0.53670(7)
N4_27 N 0.79407(8) 0.91087(10) 0.53907(9)
C10_27 C 0.83502(11) 0.92883(12) 0.53880(13)
H6_27 H 0.8494 0.9348 0.5663
C1_28 C 0.33627(10) 0.12375(14) 0.33627(10)
C2_28 C 0.30244(10) 0.10676(15) 0.30244(10)
C3_28 C 0.23164(13) 0.08609(16) 0.28696(13)
H1_28 H 0.2018 0.0811 0.2959
C4_28 C 0.24376(13) 0.0790(3) 0.24376(13)
H2_28 H 0.2225 0.0692 0.2225
C5_52 C 0.27067(13) 0.11778(14) 0.5000
C6_52 C 0.22449(13) 0.09765(14) 0.5000
C7_28 C 0.16498(11) 0.07117(12) 0.46120(13)
H3_28 H 0.1506 0.0652 0.4337
C8_52 C 0.14349(16) 0.06123(19) 0.5000
H4_52 H 0.1149 0.0480 0.5000
O3_28 O 0.37466(7) 0.13003(8) 0.32280(7)
N3_28 N 0.31699(10) 0.10009(10) 0.26177(9)
C9_28 C 0.28696(13) 0.08609(16) 0.23164(13)
H5_28 H 0.2959 0.0811 0.2018
O4_28 O 0.28791(7) 0.12501(8) 0.53670(7)
N4_28 N 0.20593(8) 0.08913(10) 0.53907(9)
C10_28 C 0.16498(11) 0.07117(12) 0.53880(13)
H6_28 H 0.1506 0.0652 0.5663
C1_29 C 0.66373(10) 0.33627(10) 0.87625(14)
C2_29 C 0.69756(10) 0.30244(10) 0.89324(15)
C3_29 C 0.71304(13) 0.23164(13) 0.91391(16)
H1_29 H 0.7041 0.2018 0.9189
C4_29 C 0.75624(13) 0.24376(13) 0.9210(3)
H2_29 H 0.7775 0.2225 0.9308
C5_53 C 0.5000 0.27067(13) 0.88222(14)
C6_53 C 0.5000 0.22449(13) 0.90235(14)
C7_29 C 0.53880(13) 0.16498(11) 0.92883(12)
H3_29 H 0.5663 0.1506 0.9348
C8_53 C 0.5000 0.14349(16) 0.93877(19)
H4_53 H 0.5000 0.1149 0.9520
O3_29 O 0.67720(7) 0.37466(7) 0.86997(8)
N3_29 N 0.73823(9) 0.31699(10) 0.89991(10)
C9_29 C 0.76836(13) 0.28696(13) 0.91391(16)
H5_29 H 0.7982 0.2959 0.9189
O4_29 O 0.46330(7) 0.28791(7) 0.87499(8)
N4_29 N 0.46093(9) 0.20593(8) 0.91087(10)
C10_29 C 0.46120(13) 0.16498(11) 0.92883(12)
H6_29 H 0.4337 0.1506 0.9348
C1_30 C 0.66373(10) 0.66373(10) 0.12375(14)
C2_30 C 0.69756(10) 0.69756(10) 0.10676(15)
C3_30 C 0.71304(13) 0.76836(13) 0.08609(16)
H1_30 H 0.7041 0.7982 0.0811
C4_30 C 0.75624(13) 0.75624(13) 0.0790(3)
H2_30 H 0.7775 0.7775 0.0692
C5_54 C 0.5000 0.72933(13) 0.11778(14)
C6_54 C 0.5000 0.77551(13) 0.09765(14)
C7_30 C 0.53880(13) 0.83502(11) 0.07117(12)
H3_30 H 0.5663 0.8494 0.0652
C8_54 C 0.5000 0.85651(16) 0.06123(19)
H4_54 H 0.5000 0.8851 0.0480
O3_30 O 0.67720(7) 0.62534(7) 0.13003(8)
N3_30 N 0.73823(9) 0.68301(10) 0.10009(10)
C9_30 C 0.76836(13) 0.71304(13) 0.08609(16)
H5_30 H 0.7982 0.7041 0.0811
O4_30 O 0.46330(7) 0.71209(7) 0.12501(8)
N4_30 N 0.46093(9) 0.79407(8) 0.08913(10)
C10_30 C 0.46120(13) 0.83502(11) 0.07117(12)
H6_30 H 0.4337 0.8494 0.0652
C1_31 C 0.33627(10) 0.66373(10) 0.87625(14)
C2_31 C 0.30244(10) 0.69756(10) 0.89324(15)
C3_31 C 0.28696(13) 0.76836(13) 0.91391(16)
H1_31 H 0.2959 0.7982 0.9189
C4_31 C 0.24376(13) 0.75624(13) 0.9210(3)
H2_31 H 0.2225 0.7775 0.9308
C5_55 C 0.5000 0.72933(13) 0.88222(14)
C6_55 C 0.5000 0.77551(13) 0.90235(14)
C7_31 C 0.46120(13) 0.83502(11) 0.92883(12)
H3_31 H 0.4337 0.8494 0.9348
C8_55 C 0.5000 0.85651(16) 0.93877(19)
H4_55 H 0.5000 0.8851 0.9520
O3_31 O 0.32280(7) 0.62534(7) 0.86997(8)
N3_31 N 0.26177(9) 0.68301(10) 0.89991(10)
C9_31 C 0.23164(13) 0.71304(13) 0.91391(16)
H5_31 H 0.2018 0.7041 0.9189
O4_31 O 0.53670(7) 0.71209(7) 0.87499(8)
N4_31 N 0.53907(9) 0.79407(8) 0.91087(10)
C10_31 C 0.53880(13) 0.83502(11) 0.92883(12)
H6_31 H 0.5663 0.8494 0.9348
C1_32 C 0.33627(10) 0.33627(10) 0.12375(14)
C2_32 C 0.30244(10) 0.30244(10) 0.10676(15)
C3_32 C 0.28696(13) 0.23164(13) 0.08609(16)
H1_32 H 0.2959 0.2018 0.0811
C4_32 C 0.24376(13) 0.24376(13) 0.0790(3)
H2_32 H 0.2225 0.2225 0.0692
C5_56 C 0.5000 0.27067(13) 0.11778(14)
C6_56 C 0.5000 0.22449(13) 0.09765(14)
C7_32 C 0.46120(13) 0.16498(11) 0.07117(12)
H3_32 H 0.4337 0.1506 0.0652
C8_56 C 0.5000 0.14349(16) 0.06123(19)
H4_56 H 0.5000 0.1149 0.0480
O3_32 O 0.32280(7) 0.37466(7) 0.13003(8)
N3_32 N 0.26177(9) 0.31699(10) 0.10009(10)
C9_32 C 0.23164(13) 0.28696(13) 0.08609(16)
H5_32 H 0.2018 0.2959 0.0811
O4_32 O 0.53670(7) 0.28791(7) 0.12501(8)
N4_32 N 0.53907(9) 0.20593(8) 0.08913(10)
C10_32 C 0.53880(13) 0.16498(11) 0.07117(12)
H6_32 H 0.5663 0.1506 0.0652
C1_33 C 0.87625(14) 0.66373(10) 0.33627(10)
C2_33 C 0.89324(15) 0.69756(10) 0.30244(10)
C3_33 C 0.91391(16) 0.71304(13) 0.23164(13)
H1_33 H 0.9189 0.7041 0.2018
C4_33 C 0.9210(3) 0.75624(13) 0.24376(13)
H2_33 H 0.9308 0.7775 0.2225
C5_57 C 0.88222(14) 0.5000 0.27067(13)
C6_57 C 0.90235(14) 0.5000 0.22449(13)
C7_33 C 0.92883(12) 0.53880(13) 0.16498(11)
H3_33 H 0.9348 0.5663 0.1506
C8_57 C 0.93877(19) 0.5000 0.14349(16)
H4_57 H 0.9520 0.5000 0.1149
O3_33 O 0.86997(8) 0.67720(7) 0.37466(7)
N3_33 N 0.89991(10) 0.73823(9) 0.31699(10)
C9_33 C 0.91391(16) 0.76836(13) 0.28696(13)
H5_33 H 0.9189 0.7982 0.2959
O4_33 O 0.87499(8) 0.46330(7) 0.28791(7)
N4_33 N 0.91087(10) 0.46093(9) 0.20593(8)
C10_33 C 0.92883(12) 0.46120(13) 0.16498(11)
H6_33 H 0.9348 0.4337 0.1506
C1_34 C 0.12375(14) 0.66373(10) 0.66373(10)
C2_34 C 0.10676(15) 0.69756(10) 0.69756(10)
C3_34 C 0.08609(16) 0.71304(13) 0.76836(13)
H1_34 H 0.0811 0.7041 0.7982
C4_34 C 0.0790(3) 0.75624(13) 0.75624(13)
H2_34 H 0.0692 0.7775 0.7775
C5_58 C 0.11778(14) 0.5000 0.72933(13)
C6_58 C 0.09765(14) 0.5000 0.77551(13)
C7_34 C 0.07117(12) 0.53880(13) 0.83502(11)
H3_34 H 0.0652 0.5663 0.8494
C8_58 C 0.06123(19) 0.5000 0.85651(16)
H4_58 H 0.0480 0.5000 0.8851
O3_34 O 0.13003(8) 0.67720(7) 0.62534(7)
N3_34 N 0.10009(10) 0.73823(9) 0.68301(10)
C9_34 C 0.08609(16) 0.76836(13) 0.71304(13)
H5_34 H 0.0811 0.7982 0.7041
O4_34 O 0.12501(8) 0.46330(7) 0.71209(7)
N4_34 N 0.08913(10) 0.46093(9) 0.79407(8)
C10_34 C 0.07117(12) 0.46120(13) 0.83502(11)
H6_34 H 0.0652 0.4337 0.8494
C1_35 C 0.87625(14) 0.33627(10) 0.66373(10)
C2_35 C 0.89324(15) 0.30244(10) 0.69756(10)
C3_35 C 0.91391(16) 0.28696(13) 0.76836(13)
H1_35 H 0.9189 0.2959 0.7982
C4_35 C 0.9210(3) 0.24376(13) 0.75624(13)
H2_35 H 0.9308 0.2225 0.7775
C5_59 C 0.88222(14) 0.5000 0.72933(13)
C6_59 C 0.90235(14) 0.5000 0.77551(13)
C7_35 C 0.92883(12) 0.46120(13) 0.83502(11)
H3_35 H 0.9348 0.4337 0.8494
C8_59 C 0.93877(19) 0.5000 0.85651(16)
H4_59 H 0.9520 0.5000 0.8851
O3_35 O 0.86997(8) 0.32280(7) 0.62534(7)
N3_35 N 0.89991(10) 0.26177(9) 0.68301(10)
C9_35 C 0.91391(16) 0.23164(13) 0.71304(13)
H5_35 H 0.9189 0.2018 0.7041
O4_35 O 0.87499(8) 0.53670(7) 0.71209(7)
N4_35 N 0.91087(10) 0.53907(9) 0.79407(8)
C10_35 C 0.92883(12) 0.53880(13) 0.83502(11)
H6_35 H 0.9348 0.5663 0.8494
C1_36 C 0.12375(14) 0.33627(10) 0.33627(10)
C2_36 C 0.10676(15) 0.30244(10) 0.30244(10)
C3_36 C 0.08609(16) 0.28696(13) 0.23164(13)
H1_36 H 0.0811 0.2959 0.2018
C4_36 C 0.0790(3) 0.24376(13) 0.24376(13)
H2_36 H 0.0692 0.2225 0.2225
C5_60 C 0.11778(14) 0.5000 0.27067(13)
C6_60 C 0.09765(14) 0.5000 0.22449(13)
C7_36 C 0.07117(12) 0.46120(13) 0.16498(11)
H3_36 H 0.0652 0.4337 0.1506
C8_60 C 0.06123(19) 0.5000 0.14349(16)
H4_60 H 0.0480 0.5000 0.1149
O3_36 O 0.13003(8) 0.32280(7) 0.37466(7)
N3_36 N 0.10009(10) 0.26177(9) 0.31699(10)
C9_36 C 0.08609(16) 0.23164(13) 0.28696(13)
H5_36 H 0.0811 0.2018 0.2959
O4_36 O 0.12501(8) 0.53670(7) 0.28791(7)
N4_36 N 0.08913(10) 0.53907(9) 0.20593(8)
C10_36 C 0.07117(12) 0.53880(13) 0.16498(11)
H6_36 H 0.0652 0.5663 0.1506
C1_37 C 0.87625(14) 0.33627(10) 0.33627(10)
C2_37 C 0.89324(15) 0.30244(10) 0.30244(10)
C3_37 C 0.91391(16) 0.23164(13) 0.28696(13)
H1_37 H 0.9189 0.2018 0.2959
C4_37 C 0.9210(3) 0.24376(13) 0.24376(13)
H2_37 H 0.9308 0.2225 0.2225
C5_61 C 0.88222(14) 0.27067(13) 0.5000
C6_61 C 0.90235(14) 0.22449(13) 0.5000
C7_37 C 0.92883(12) 0.16498(11) 0.46120(13)
H3_37 H 0.9348 0.1506 0.4337
C8_61 C 0.93877(19) 0.14349(16) 0.5000
H4_61 H 0.9520 0.1149 0.5000
O3_37 O 0.86997(8) 0.37466(7) 0.32280(7)
N3_37 N 0.89991(10) 0.31699(10) 0.26177(9)
C9_37 C 0.91391(16) 0.28696(13) 0.23164(13)
H5_37 H 0.9189 0.2959 0.2018
O4_37 O 0.87499(8) 0.28791(7) 0.53670(7)
N4_37 N 0.91087(10) 0.20593(8) 0.53907(9)
C10_37 C 0.92883(12) 0.16498(11) 0.53880(13)
H6_37 H 0.9348 0.1506 0.5663
C1_38 C 0.12375(14) 0.66373(10) 0.33627(10)
C2_38 C 0.10676(15) 0.69756(10) 0.30244(10)
C3_38 C 0.08609(16) 0.76836(13) 0.28696(13)
H1_38 H 0.0811 0.7982 0.2959
C4_38 C 0.0790(3) 0.75624(13) 0.24376(13)
H2_38 H 0.0692 0.7775 0.2225
C5_62 C 0.11778(14) 0.72933(13) 0.5000
C6_62 C 0.09765(14) 0.77551(13) 0.5000
C7_38 C 0.07117(12) 0.83502(11) 0.46120(13)
H3_38 H 0.0652 0.8494 0.4337
C8_62 C 0.06123(19) 0.85651(16) 0.5000
H4_62 H 0.0480 0.8851 0.5000
O3_38 O 0.13003(8) 0.62534(7) 0.32280(7)
N3_38 N 0.10009(10) 0.68301(10) 0.26177(9)
C9_38 C 0.08609(16) 0.71304(13) 0.23164(13)
H5_38 H 0.0811 0.7041 0.2018
O4_38 O 0.12501(8) 0.71209(7) 0.53670(7)
N4_38 N 0.08913(10) 0.79407(8) 0.53907(9)
C10_38 C 0.07117(12) 0.83502(11) 0.53880(13)
H6_38 H 0.0652 0.8494 0.5663
C1_39 C 0.87625(14) 0.66373(10) 0.66373(10)
C2_39 C 0.89324(15) 0.69756(10) 0.69756(10)
C3_39 C 0.91391(16) 0.76836(13) 0.71304(13)
H1_39 H 0.9189 0.7982 0.7041
C4_39 C 0.9210(3) 0.75624(13) 0.75624(13)
H2_39 H 0.9308 0.7775 0.7775
C5_63 C 0.88222(14) 0.72933(13) 0.5000
C6_63 C 0.90235(14) 0.77551(13) 0.5000
C7_39 C 0.92883(12) 0.83502(11) 0.53880(13)
H3_39 H 0.9348 0.8494 0.5663
C8_63 C 0.93877(19) 0.85651(16) 0.5000
H4_63 H 0.9520 0.8851 0.5000
O3_39 O 0.86997(8) 0.62534(7) 0.67720(7)
N3_39 N 0.89991(10) 0.68301(10) 0.73823(9)
C9_39 C 0.91391(16) 0.71304(13) 0.76836(13)
H5_39 H 0.9189 0.7041 0.7982
O4_39 O 0.87499(8) 0.71209(7) 0.46330(7)
N4_39 N 0.91087(10) 0.79407(8) 0.46093(9)
C10_39 C 0.92883(12) 0.83502(11) 0.46120(13)
H6_39 H 0.9348 0.8494 0.4337
C1_40 C 0.12375(14) 0.33627(10) 0.66373(10)
C2_40 C 0.10676(15) 0.30244(10) 0.69756(10)
C3_40 C 0.08609(16) 0.23164(13) 0.71304(13)
H1_40 H 0.0811 0.2018 0.7041
C4_40 C 0.0790(3) 0.24376(13) 0.75624(13)
H2_40 H 0.0692 0.2225 0.7775
C5_64 C 0.11778(14) 0.27067(13) 0.5000
C6_64 C 0.09765(14) 0.22449(13) 0.5000
C7_40 C 0.07117(12) 0.16498(11) 0.53880(13)
H3_40 H 0.0652 0.1506 0.5663
C8_64 C 0.06123(19) 0.14349(16) 0.5000
H4_64 H 0.0480 0.1149 0.5000
O3_40 O 0.13003(8) 0.37466(7) 0.67720(7)
N3_40 N 0.10009(10) 0.31699(10) 0.73823(9)
C9_40 C 0.08609(16) 0.28696(13) 0.76836(13)
H5_40 H 0.0811 0.2959 0.7982
O4_40 O 0.12501(8) 0.28791(7) 0.46330(7)
N4_40 N 0.08913(10) 0.20593(8) 0.46093(9)
C10_40 C 0.07117(12) 0.16498(11) 0.46120(13)
H6_40 H 0.0652 0.1506 0.4337
C1_41 C 0.33627(10) 0.66373(10) 0.12375(14)
C2_41 C 0.30244(10) 0.69756(10) 0.10676(15)
C3_41 C 0.23164(13) 0.71304(13) 0.08609(16)
H1_41 H 0.2018 0.7041 0.0811
C4_41 C 0.24376(13) 0.75624(13) 0.0790(3)
H2_41 H 0.2225 0.7775 0.0692
C5_65 C 0.27067(13) 0.5000 0.11778(14)
C6_65 C 0.22449(13) 0.5000 0.09765(14)
C7_41 C 0.16498(11) 0.53880(13) 0.07117(12)
H3_41 H 0.1506 0.5663 0.0652
C8_65 C 0.14349(16) 0.5000 0.06123(19)
H4_65 H 0.1149 0.5000 0.0480
O3_41 O 0.37466(7) 0.67720(7) 0.13003(8)
N3_41 N 0.31699(10) 0.73823(9) 0.10009(10)
C9_41 C 0.28696(13) 0.76836(13) 0.08609(16)
H5_41 H 0.2959 0.7982 0.0811
O4_41 O 0.28791(7) 0.46330(7) 0.12501(8)
N4_41 N 0.20593(8) 0.46093(9) 0.08913(10)
C10_41 C 0.16498(11) 0.46120(13) 0.07117(12)
H6_41 H 0.1506 0.4337 0.0652
C1_42 C 0.66373(10) 0.66373(10) 0.87625(14)
C2_42 C 0.69756(10) 0.69756(10) 0.89324(15)
C3_42 C 0.76836(13) 0.71304(13) 0.91391(16)
H1_42 H 0.7982 0.7041 0.9189
C4_42 C 0.75624(13) 0.75624(13) 0.9210(3)
H2_42 H 0.7775 0.7775 0.9308
C5_66 C 0.72933(13) 0.5000 0.88222(14)
C6_66 C 0.77551(13) 0.5000 0.90235(14)
C7_42 C 0.83502(11) 0.53880(13) 0.92883(12)
H3_42 H 0.8494 0.5663 0.9348
C8_66 C 0.85651(16) 0.5000 0.93877(19)
H4_66 H 0.8851 0.5000 0.9520
O3_42 O 0.62534(7) 0.67720(7) 0.86997(8)
N3_42 N 0.68301(10) 0.73823(9) 0.89991(10)
C9_42 C 0.71304(13) 0.76836(13) 0.91391(16)
H5_42 H 0.7041 0.7982 0.9189
O4_42 O 0.71209(7) 0.46330(7) 0.87499(8)
N4_42 N 0.79407(8) 0.46093(9) 0.91087(10)
C10_42 C 0.83502(11) 0.46120(13) 0.92883(12)
H6_42 H 0.8494 0.4337 0.9348
C1_43 C 0.66373(10) 0.33627(10) 0.12375(14)
C2_43 C 0.69756(10) 0.30244(10) 0.10676(15)
C3_43 C 0.76836(13) 0.28696(13) 0.08609(16)
H1_43 H 0.7982 0.2959 0.0811
C4_43 C 0.75624(13) 0.24376(13) 0.0790(3)
H2_43 H 0.7775 0.2225 0.0692
C5_67 C 0.72933(13) 0.5000 0.11778(14)
C6_67 C 0.77551(13) 0.5000 0.09765(14)
C7_43 C 0.83502(11) 0.46120(13) 0.07117(12)
H3_43 H 0.8494 0.4337 0.0652
C8_67 C 0.85651(16) 0.5000 0.06123(19)
H4_67 H 0.8851 0.5000 0.0480
O3_43 O 0.62534(7) 0.32280(7) 0.13003(8)
N3_43 N 0.68301(10) 0.26177(9) 0.10009(10)
C9_43 C 0.71304(13) 0.23164(13) 0.08609(16)
H5_43 H 0.7041 0.2018 0.0811
O4_43 O 0.71209(7) 0.53670(7) 0.12501(8)
N4_43 N 0.79407(8) 0.53907(9) 0.08913(10)
C10_43 C 0.83502(11) 0.53880(13) 0.07117(12)
H6_43 H 0.8494 0.5663 0.0652
C1_44 C 0.33627(10) 0.33627(10) 0.87625(14)
C2_44 C 0.30244(10) 0.30244(10) 0.89324(15)
C3_44 C 0.23164(13) 0.28696(13) 0.91391(16)
H1_44 H 0.2018 0.2959 0.9189
C4_44 C 0.24376(13) 0.24376(13) 0.9210(3)
H2_44 H 0.2225 0.2225 0.9308
C5_68 C 0.27067(13) 0.5000 0.88222(14)
C6_68 C 0.22449(13) 0.5000 0.90235(14)
C7_44 C 0.16498(11) 0.46120(13) 0.92883(12)
H3_44 H 0.1506 0.4337 0.9348
C8_68 C 0.14349(16) 0.5000 0.93877(19)
H4_68 H 0.1149 0.5000 0.9520
O3_44 O 0.37466(7) 0.32280(7) 0.86997(8)
N3_44 N 0.31699(10) 0.26177(9) 0.89991(10)
C9_44 C 0.28696(13) 0.23164(13) 0.91391(16)
H5_44 H 0.2959 0.2018 0.9189
O4_44 O 0.28791(7) 0.53670(7) 0.87499(8)
N4_44 N 0.20593(8) 0.53907(9) 0.91087(10)
C10_44 C 0.16498(11) 0.53880(13) 0.92883(12)
H6_44 H 0.1506 0.5663 0.9348
C1_45 C 0.66373(10) 0.87625(14) 0.66373(10)
C2_45 C 0.69756(10) 0.89324(15) 0.69756(10)
C3_45 C 0.71304(13) 0.91391(16) 0.76836(13)
H1_45 H 0.7041 0.9189 0.7982
C4_45 C 0.75624(13) 0.9210(3) 0.75624(13)
H2_45 H 0.7775 0.9308 0.7775
C5_69 C 0.5000 0.88222(14) 0.72933(13)
C6_69 C 0.5000 0.90235(14) 0.77551(13)
C7_45 C 0.53880(13) 0.92883(12) 0.83502(11)
H3_45 H 0.5663 0.9348 0.8494
C8_69 C 0.5000 0.93877(19) 0.85651(16)
H4_69 H 0.5000 0.9520 0.8851
O3_45 O 0.67720(7) 0.86997(8) 0.62534(7)
N3_45 N 0.73823(9) 0.89991(10) 0.68301(10)
C9_45 C 0.76836(13) 0.91391(16) 0.71304(13)
H5_45 H 0.7982 0.9189 0.7041
O4_45 O 0.46330(7) 0.87499(8) 0.71209(7)
N4_45 N 0.46093(9) 0.91087(10) 0.79407(8)
C10_45 C 0.46120(13) 0.92883(12) 0.83502(11)
H6_45 H 0.4337 0.9348 0.8494
C1_46 C 0.66373(10) 0.12375(14) 0.33627(10)
C2_46 C 0.69756(10) 0.10676(15) 0.30244(10)
C3_46 C 0.71304(13) 0.08609(16) 0.23164(13)
H1_46 H 0.7041 0.0811 0.2018
C4_46 C 0.75624(13) 0.0790(3) 0.24376(13)
H2_46 H 0.7775 0.0692 0.2225
C5_70 C 0.5000 0.11778(14) 0.27067(13)
C6_70 C 0.5000 0.09765(14) 0.22449(13)
C7_46 C 0.53880(13) 0.07117(12) 0.16498(11)
H3_46 H 0.5663 0.0652 0.1506
C8_70 C 0.5000 0.06123(19) 0.14349(16)
H4_70 H 0.5000 0.0480 0.1149
O3_46 O 0.67720(7) 0.13003(8) 0.37466(7)
N3_46 N 0.73823(9) 0.10009(10) 0.31699(10)
C9_46 C 0.76836(13) 0.08609(16) 0.28696(13)
H5_46 H 0.7982 0.0811 0.2959
O4_46 O 0.46330(7) 0.12501(8) 0.28791(7)
N4_46 N 0.46093(9) 0.08913(10) 0.20593(8)
C10_46 C 0.46120(13) 0.07117(12) 0.16498(11)
H6_46 H 0.4337 0.0652 0.1506
C1_47 C 0.33627(10) 0.87625(14) 0.33627(10)
C2_47 C 0.30244(10) 0.89324(15) 0.30244(10)
C3_47 C 0.28696(13) 0.91391(16) 0.23164(13)
H1_47 H 0.2959 0.9189 0.2018
C4_47 C 0.24376(13) 0.9210(3) 0.24376(13)
H2_47 H 0.2225 0.9308 0.2225
C5_71 C 0.5000 0.88222(14) 0.27067(13)
C6_71 C 0.5000 0.90235(14) 0.22449(13)
C7_47 C 0.46120(13) 0.92883(12) 0.16498(11)
H3_47 H 0.4337 0.9348 0.1506
C8_71 C 0.5000 0.93877(19) 0.14349(16)
H4_71 H 0.5000 0.9520 0.1149
O3_47 O 0.32280(7) 0.86997(8) 0.37466(7)
N3_47 N 0.26177(9) 0.89991(10) 0.31699(10)
C9_47 C 0.23164(13) 0.91391(16) 0.28696(13)
H5_47 H 0.2018 0.9189 0.2959
O4_47 O 0.53670(7) 0.87499(8) 0.28791(7)
N4_47 N 0.53907(9) 0.91087(10) 0.20593(8)
C10_47 C 0.53880(13) 0.92883(12) 0.16498(11)
H6_47 H 0.5663 0.9348 0.1506
C1_48 C 0.33627(10) 0.12375(14) 0.66373(10)
C2_48 C 0.30244(10) 0.10676(15) 0.69756(10)
C3_48 C 0.28696(13) 0.08609(16) 0.76836(13)
H1_48 H 0.2959 0.0811 0.7982
C4_48 C 0.24376(13) 0.0790(3) 0.75624(13)
H2_48 H 0.2225 0.0692 0.7775
C5_72 C 0.5000 0.11778(14) 0.72933(13)
C6_72 C 0.5000 0.09765(14) 0.77551(13)
C7_48 C 0.46120(13) 0.07117(12) 0.83502(11)
H3_48 H 0.4337 0.0652 0.8494
C8_72 C 0.5000 0.06123(19) 0.85651(16)
H4_72 H 0.5000 0.0480 0.8851
O3_48 O 0.32280(7) 0.13003(8) 0.62534(7)
N3_48 N 0.26177(9) 0.10009(10) 0.68301(10)
C9_48 C 0.23164(13) 0.08609(16) 0.71304(13)
H5_48 H 0.2018 0.0811 0.7041
O4_48 O 0.53670(7) 0.12501(8) 0.71209(7)
N4_48 N 0.53907(9) 0.08913(10) 0.79407(8)
C10_48 C 0.53880(13) 0.07117(12) 0.83502(11)
H6_48 H 0.5663 0.0652 0.8494
loop_
_geom_bond_atom_site_label_1
_geom_bond_atom_site_label_2
_geom_bond_site_symmetry_1
_geom_bond_site_symmetry_2
Cd1 O1 1_555 1_555
O1 C1 1_555 1_555
C1 C2 1_555 1_555
C2 N1 1_555 1_555
N1 Cd1 1_555 1_555
C3 N1 1_555 1_555
H1 C3 1_555 1_555
C4 C3 1_555 1_555
H2 C4 1_555 1_555
O2 Cd1 1_555 1_555
C5 O2 1_555 1_555
C6 C5 1_555 1_555
N2 Cd1 1_555 1_555
C7 N2 1_555 1_555
H3 C7 1_555 1_555
C8 C7 1_555 1_555
H4 C8 1_555 1_555
O3 C1 1_555 1_555
N3 C2 1_555 1_555
C9 C4 1_555 1_555
H5 C9 1_555 1_555
Cd3 O3 1_555 1_555
O5 Cd1 1_555 1_555
N5 Cd1 1_555 1_555
O6 Cd1 1_555 1_555
N6 Cd1 1_555 1_555
C6 N2 1_555 1_555
N3 C9 1_555 1_555
N3 Cd3 1_555 1_555
C6_2 C5_2 1_555 1_555
H4_2 C8_2 1_555 1_555
O4 C5_2 1_555 1_555
N4 C6_2 1_555 1_555
C10 C8_2 1_555 1_555
H6 C10 1_555 1_555
Cd2 O4 1_555 1_555
N4 C10 1_555 1_555
N4 Cd2 1_555 1_555
Cd1_2 O1_2 1_555 1_555
O1_2 C1_2 1_555 1_555
C1_2 C2_2 1_555 1_555
C2_2 N1_2 1_555 1_555
N1_2 Cd1_2 1_555 1_555
C3_2 N1_2 1_555 1_555
H1_2 C3_2 1_555 1_555
C4_2 C3_2 1_555 1_555
H2_2 C4_2 1_555 1_555
O2_2 Cd1_2 1_555 1_555
C5_3 O2_2 1_555 1_555
C6_3 C5_3 1_555 1_555
N2_2 Cd1_2 1_555 1_555
C7_2 N2_2 1_555 1_555
H3_2 C7_2 1_555 1_555
C8_3 C7_2 1_555 1_555
H4_3 C8_3 1_555 1_555
O3_2 C1_2 1_555 1_555
N3_2 C2_2 1_555 1_555
C9_2 C4_2 1_555 1_555
H5_2 C9_2 1_555 1_555
Cd3_2 O3_2 1_555 1_555
O5_2 Cd1_2 1_555 1_555
N5_2 Cd1_2 1_555 1_555
O6_2 Cd1_2 1_555 1_555
N6_2 Cd1_2 1_555 1_555
C6_3 N2_2 1_555 1_555
N3_2 C9_2 1_555 1_555
N3_2 Cd3_2 1_555 1_555
C6_4 C5_4 1_555 1_555
H4_4 C8_4 1_555 1_555
O4_2 C5_4 1_555 1_555
N4_2 C6_4 1_555 1_555
C10_2 C8_4 1_555 1_555
H6_2 C10_2 1_555 1_555
Cd2_2 O4_2 1_555 1_555
N4_2 C10_2 1_555 1_555
N4_2 Cd2_2 1_555 1_555
C6_5 C5_5 1_555 1_555
H4_5 C8_5 1_555 1_555
O4_3 C5_5 1_555 1_555
N4_3 C6_5 1_555 1_555
C10_3 C8_5 1_555 1_555
H6_3 C10_3 1_555 1_555
Cd2_3 O4_3 1_555 1_555
N4_3 C10_3 1_555 1_555
N4_3 Cd2_3 1_555 1_555
Cd1_3 O1_3 1_555 1_555
O1_3 C1_3 1_555 1_555
C1_3 C2_3 1_555 1_555
C2_3 N1_3 1_555 1_555
N1_3 Cd1_3 1_555 1_555
C3_3 N1_3 1_555 1_555
H1_3 C3_3 1_555 1_555
C4_3 C3_3 1_555 1_555
H2_3 C4_3 1_555 1_555
O2_3 Cd1_3 1_555 1_555
C5_6 O2_3 1_555 1_555
C6_6 C5_6 1_555 1_555
N2_3 Cd1_3 1_555 1_555
C7_3 N2_3 1_555 1_555
H3_3 C7_3 1_555 1_555
C8_6 C7_3 1_555 1_555
H4_6 C8_6 1_555 1_555
O3_3 C1_3 1_555 1_555
N3_3 C2_3 1_555 1_555
C9_3 C4_3 1_555 1_555
H5_3 C9_3 1_555 1_555
Cd3_3 O3_3 1_555 1_555
O5_3 Cd1_3 1_555 1_555
N5_3 Cd1_3 1_555 1_555
O6_3 Cd1_3 1_555 1_555
N6_3 Cd1_3 1_555 1_555
C6_6 N2_3 1_555 1_555
N3_3 C9_3 1_555 1_555
N3_3 Cd3_3 1_555 1_555
C6_7 C5_7 1_555 1_555
H4_7 C8_7 1_555 1_555
O4_4 C5_7 1_555 1_555
N4_4 C6_7 1_555 1_555
C10_4 C8_7 1_555 1_555
H6_4 C10_4 1_555 1_555
Cd2_4 O4_4 1_555 1_555
N4_4 C10_4 1_555 1_555
N4_4 Cd2_4 1_555 1_555
Cd1_4 O1_4 1_555 1_555
O1_4 C1_4 1_555 1_555
C1_4 C2_4 1_555 1_555
C2_4 N1_4 1_555 1_555
N1_4 Cd1_4 1_555 1_555
C3_4 N1_4 1_555 1_555
H1_4 C3_4 1_555 1_555
C4_4 C3_4 1_555 1_555
H2_4 C4_4 1_555 1_555
O2_4 Cd1_4 1_555 1_555
C5_8 O2_4 1_555 1_555
C6_8 C5_8 1_555 1_555
N2_4 Cd1_4 1_555 1_555
C7_4 N2_4 1_555 1_555
H3_4 C7_4 1_555 1_555
C8_8 C7_4 1_555 1_555
H4_8 C8_8 1_555 1_555
O3_4 C1_4 1_555 1_555
N3_4 C2_4 1_555 1_555
C9_4 C4_4 1_555 1_555
H5_4 C9_4 1_555 1_555
Cd3_4 O3_4 1_555 1_555
O5_4 Cd1_4 1_555 1_555
N5_4 Cd1_4 1_555 1_555
O6_4 Cd1_4 1_555 1_555
N6_4 Cd1_4 1_555 1_555
C6_8 N2_4 1_555 1_555
N3_4 C9_4 1_555 1_555
N3_4 Cd3_4 1_555 1_555
Cd1_5 O1_5 1_555 1_555
O1_5 C1_5 1_555 1_555
C1_5 C2_5 1_555 1_555
C2_5 N1_5 1_555 1_555
N1_5 Cd1_5 1_555 1_555
C3_5 N1_5 1_555 1_555
H1_5 C3_5 1_555 1_555
C4_5 C3_5 1_555 1_555
H2_5 C4_5 1_555 1_555
O2_5 Cd1_5 1_555 1_555
C5_9 O2_5 1_555 1_555
C6_9 C5_9 1_555 1_555
N2_5 Cd1_5 1_555 1_555
C7_5 N2_5 1_555 1_555
H3_5 C7_5 1_555 1_555
C8_9 C7_5 1_555 1_555
H4_9 C8_9 1_555 1_555
O3_5 C1_5 1_555 1_555
N3_5 C2_5 1_555 1_555
C9_5 C4_5 1_555 1_555
H5_5 C9_5 1_555 1_555
Cd3_5 O3_5 1_555 1_555
O5_5 Cd1_5 1_555 1_555
N5_5 Cd1_5 1_555 1_555
O6_5 Cd1_5 1_555 1_555
N6_5 Cd1_5 1_555 1_555
C6_9 N2_5 1_555 1_555
N3_5 C9_5 1_555 1_555
N3_5 Cd3_5 1_555 1_555
C6_10 C5_10 1_555 1_555
H4_10 C8_10 1_555 1_555
O4_5 C5_10 1_555 1_555
N4_5 C6_10 1_555 1_555
C10_5 C8_10 1_555 1_555
H6_5 C10_5 1_555 1_555
Cd2_5 O4_5 1_555 1_555
N4_5 C10_5 1_555 1_555
N4_5 Cd2_5 1_555 1_555
Cd1_6 O1_6 1_555 1_555
O1_6 C1_6 1_555 1_555
C1_6 C2_6 1_555 1_555
C2_6 N1_6 1_555 1_555
N1_6 Cd1_6 1_555 1_555
C3_6 N1_6 1_555 1_555
H1_6 C3_6 1_555 1_555
C4_6 C3_6 1_555 1_555
H2_6 C4_6 1_555 1_555
O2_6 Cd1_6 1_555 1_555
C5_11 O2_6 1_555 1_555
C6_11 C5_11 1_555 1_555
N2_6 Cd1_6 1_555 1_555
C7_6 N2_6 1_555 1_555
H3_6 C7_6 1_555 1_555
C8_11 C7_6 1_555 1_555
H4_11 C8_11 1_555 1_555
O3_6 C1_6 1_555 1_555
N3_6 C2_6 1_555 1_555
C9_6 C4_6 1_555 1_555
H5_6 C9_6 1_555 1_555
Cd3_6 O3_6 1_555 1_555
O5_6 Cd1_6 1_555 1_555
N5_6 Cd1_6 1_555 1_555
O6_6 Cd1_6 1_555 1_555
N6_6 Cd1_6 1_555 1_555
C6_11 N2_6 1_555 1_555
N3_6 C9_6 1_555 1_555
N3_6 Cd3_6 1_555 1_555
C6_12 C5_12 1_555 1_555
H4_12 C8_12 1_555 1_555
O4_6 C5_12 1_555 1_555
N4_6 C6_12 1_555 1_555
C10_6 C8_12 1_555 1_555
H6_6 C10_6 1_555 1_555
Cd2_6 O4_6 1_555 1_555
N4_6 C10_6 1_555 1_555
N4_6 Cd2_6 1_555 1_555
C6_13 C5_13 1_555 1_555
H4_13 C8_13 1_555 1_555
O4_7 C5_13 1_555 1_555
N4_7 C6_13 1_555 1_555
C10_7 C8_13 1_555 1_555
H6_7 C10_7 1_555 1_555
Cd2_7 O4_7 1_555 1_555
N4_7 C10_7 1_555 1_555
N4_7 Cd2_7 1_555 1_555
Cd1_7 O1_7 1_555 1_555
O1_7 C1_7 1_555 1_555
C1_7 C2_7 1_555 1_555
C2_7 N1_7 1_555 1_555
N1_7 Cd1_7 1_555 1_555
C3_7 N1_7 1_555 1_555
H1_7 C3_7 1_555 1_555
C4_7 C3_7 1_555 1_555
H2_7 C4_7 1_555 1_555
O2_7 Cd1_7 1_555 1_555
C5_14 O2_7 1_555 1_555
C6_14 C5_14 1_555 1_555
N2_7 Cd1_7 1_555 1_555
C7_7 N2_7 1_555 1_555
H3_7 C7_7 1_555 1_555
C8_14 C7_7 1_555 1_555
H4_14 C8_14 1_555 1_555
O3_7 C1_7 1_555 1_555
N3_7 C2_7 1_555 1_555
C9_7 C4_7 1_555 1_555
H5_7 C9_7 1_555 1_555
Cd3_7 O3_7 1_555 1_555
O5_7 Cd1_7 1_555 1_555
N5_7 Cd1_7 1_555 1_555
O6_7 Cd1_7 1_555 1_555
N6_7 Cd1_7 1_555 1_555
C6_14 N2_7 1_555 1_555
N3_7 C9_7 1_555 1_555
N3_7 Cd3_7 1_555 1_555
C6_15 C5_15 1_555 1_555
H4_15 C8_15 1_555 1_555
O4_8 C5_15 1_555 1_555
N4_8 C6_15 1_555 1_555
C10_8 C8_15 1_555 1_555
H6_8 C10_8 1_555 1_555
Cd2_8 O4_8 1_555 1_555
N4_8 C10_8 1_555 1_555
N4_8 Cd2_8 1_555 1_555
Cd1_8 O1_8 1_555 1_555
O1_8 C1_8 1_555 1_555
C1_8 C2_8 1_555 1_555
C2_8 N1_8 1_555 1_555
N1_8 Cd1_8 1_555 1_555
C3_8 N1_8 1_555 1_555
H1_8 C3_8 1_555 1_555
C4_8 C3_8 1_555 1_555
H2_8 C4_8 1_555 1_555
O2_8 Cd1_8 1_555 1_555
C5_16 O2_8 1_555 1_555
C6_16 C5_16 1_555 1_555
N2_8 Cd1_8 1_555 1_555
C7_8 N2_8 1_555 1_555
H3_8 C7_8 1_555 1_555
C8_16 C7_8 1_555 1_555
H4_16 C8_16 1_555 1_555
O3_8 C1_8 1_555 1_555
N3_8 C2_8 1_555 1_555
C9_8 C4_8 1_555 1_555
H5_8 C9_8 1_555 1_555
Cd3_8 O3_8 1_555 1_555
O5_8 Cd1_8 1_555 1_555
N5_8 Cd1_8 1_555 1_555
O6_8 Cd1_8 1_555 1_555
N6_8 Cd1_8 1_555 1_555
C6_16 N2_8 1_555 1_555
N3_8 C9_8 1_555 1_555
N3_8 Cd3_8 1_555 1_555
Cd1_9 O1_9 1_555 1_555
O1_9 C1_9 1_555 1_555
C1_9 C2_9 1_555 1_555
C2_9 N1_9 1_555 1_555
N1_9 Cd1_9 1_555 1_555
C3_9 N1_9 1_555 1_555
H1_9 C3_9 1_555 1_555
C4_9 C3_9 1_555 1_555
H2_9 C4_9 1_555 1_555
O2_9 Cd1_9 1_555 1_555
C5_17 O2_9 1_555 1_555
C6_17 C5_17 1_555 1_555
N2_9 Cd1_9 1_555 1_555
C7_9 N2_9 1_555 1_555
H3_9 C7_9 1_555 1_555
C8_17 C7_9 1_555 1_555
H4_17 C8_17 1_555 1_555
O3_9 C1_9 1_555 1_555
N3_9 C2_9 1_555 1_555
C9_9 C4_9 1_555 1_555
H5_9 C9_9 1_555 1_555
Cd3_9 O3_9 1_555 1_555
O5_9 Cd1_9 1_555 1_555
N5_9 Cd1_9 1_555 1_555
O6_9 Cd1_9 1_555 1_555
N6_9 Cd1_9 1_555 1_555
C6_17 N2_9 1_555 1_555
N3_9 C9_9 1_555 1_555
N3_9 Cd3_9 1_555 1_555
C6_18 C5_18 1_555 1_555
H4_18 C8_18 1_555 1_555
O4_9 C5_18 1_555 1_555
N4_9 C6_18 1_555 1_555
C10_9 C8_18 1_555 1_555
H6_9 C10_9 1_555 1_555
Cd2_9 O4_9 1_555 1_555
N4_9 C10_9 1_555 1_555
N4_9 Cd2_9 1_555 1_555
Cd1_10 O1_10 1_555 1_555
O1_10 C1_10 1_555 1_555
C1_10 C2_10 1_555 1_555
C2_10 N1_10 1_555 1_555
N1_10 Cd1_10 1_555 1_555
C3_10 N1_10 1_555 1_555
H1_10 C3_10 1_555 1_555
C4_10 C3_10 1_555 1_555
H2_10 C4_10 1_555 1_555
O2_10 Cd1_10 1_555 1_555
C5_19 O2_10 1_555 1_555
C6_19 C5_19 1_555 1_555
N2_10 Cd1_10 1_555 1_555
C7_10 N2_10 1_555 1_555
H3_10 C7_10 1_555 1_555
C8_19 C7_10 1_555 1_555
H4_19 C8_19 1_555 1_555
O3_10 C1_10 1_555 1_555
N3_10 C2_10 1_555 1_555
C9_10 C4_10 1_555 1_555
H5_10 C9_10 1_555 1_555
Cd3_10 O3_10 1_555 1_555
O5_10 Cd1_10 1_555 1_555
N5_10 Cd1_10 1_555 1_555
O6_10 Cd1_10 1_555 1_555
N6_10 Cd1_10 1_555 1_555
C6_19 N2_10 1_555 1_555
N3_10 C9_10 1_555 1_555
N3_10 Cd3_10 1_555 1_555
C6_20 C5_20 1_555 1_555
H4_20 C8_20 1_555 1_555
O4_10 C5_20 1_555 1_555
N4_10 C6_20 1_555 1_555
C10_10 C8_20 1_555 1_555
H6_10 C10_10 1_555 1_555
Cd2_10 O4_10 1_555 1_555
N4_10 C10_10 1_555 1_555
N4_10 Cd2_10 1_555 1_555
C6_21 C5_21 1_555 1_555
H4_21 C8_21 1_555 1_555
O4_11 C5_21 1_555 1_555
N4_11 C6_21 1_555 1_555
C10_11 C8_21 1_555 1_555
H6_11 C10_11 1_555 1_555
Cd2_11 O4_11 1_555 1_555
N4_11 C10_11 1_555 1_555
N4_11 Cd2_11 1_555 1_555
Cd1_11 O1_11 1_555 1_555
O1_11 C1_11 1_555 1_555
C1_11 C2_11 1_555 1_555
C2_11 N1_11 1_555 1_555
N1_11 Cd1_11 1_555 1_555
C3_11 N1_11 1_555 1_555
H1_11 C3_11 1_555 1_555
C4_11 C3_11 1_555 1_555
H2_11 C4_11 1_555 1_555
O2_11 Cd1_11 1_555 1_555
C5_22 O2_11 1_555 1_555
C6_22 C5_22 1_555 1_555
N2_11 Cd1_11 1_555 1_555
C7_11 N2_11 1_555 1_555
H3_11 C7_11 1_555 1_555
C8_22 C7_11 1_555 1_555
H4_22 C8_22 1_555 1_555
O3_11 C1_11 1_555 1_555
N3_11 C2_11 1_555 1_555
C9_11 C4_11 1_555 1_555
H5_11 C9_11 1_555 1_555
Cd3_11 O3_11 1_555 1_555
O5_11 Cd1_11 1_555 1_555
N5_11 Cd1_11 1_555 1_555
O6_11 Cd1_11 1_555 1_555
N6_11 Cd1_11 1_555 1_555
C6_22 N2_11 1_555 1_555
N3_11 C9_11 1_555 1_555
N3_11 Cd3_11 1_555 1_555
C6_23 C5_23 1_555 1_555
H4_23 C8_23 1_555 1_555
O4_12 C5_23 1_555 1_555
N4_12 C6_23 1_555 1_555
C10_12 C8_23 1_555 1_555
H6_12 C10_12 1_555 1_555
Cd2_12 O4_12 1_555 1_555
N4_12 C10_12 1_555 1_555
N4_12 Cd2_12 1_555 1_555
Cd1_12 O1_12 1_555 1_555
O1_12 C1_12 1_555 1_555
C1_12 C2_12 1_555 1_555
C2_12 N1_12 1_555 1_555
N1_12 Cd1_12 1_555 1_555
C3_12 N1_12 1_555 1_555
H1_12 C3_12 1_555 1_555
C4_12 C3_12 1_555 1_555
H2_12 C4_12 1_555 1_555
O2_12 Cd1_12 1_555 1_555
C5_24 O2_12 1_555 1_555
C6_24 C5_24 1_555 1_555
N2_12 Cd1_12 1_555 1_555
C7_12 N2_12 1_555 1_555
H3_12 C7_12 1_555 1_555
C8_24 C7_12 1_555 1_555
H4_24 C8_24 1_555 1_555
O3_12 C1_12 1_555 1_555
N3_12 C2_12 1_555 1_555
C9_12 C4_12 1_555 1_555
H5_12 C9_12 1_555 1_555
Cd3_12 O3_12 1_555 1_555
O5_12 Cd1_12 1_555 1_555
N5_12 Cd1_12 1_555 1_555
O6_12 Cd1_12 1_555 1_555
N6_12 Cd1_12 1_555 1_555
C6_24 N2_12 1_555 1_555
N3_12 C9_12 1_555 1_555
N3_12 Cd3_12 1_555 1_555
C6_25 C5_25 1_555 1_555
H4_25 C8_25 1_555 1_555
O4_13 C5_25 1_555 1_555
N4_13 C6_25 1_555 1_555
C10_13 C8_25 1_555 1_555
H6_13 C10_13 1_555 1_555
Cd3_11 O4_13 1_555 1_555
N4_13 C10_13 1_555 1_555
N4_13 Cd3_11 1_555 1_555
Cd1_13 O1_13 1_555 1_555
O1_13 C1_13 1_555 1_555
C1_13 C2_13 1_555 1_555
C2_13 N1_13 1_555 1_555
N1_13 Cd1_13 1_555 1_555
C3_13 N1_13 1_555 1_555
H1_13 C3_13 1_555 1_555
C4_13 C3_13 1_555 1_555
H2_13 C4_13 1_555 1_555
O2_13 Cd1_13 1_555 1_555
C5_26 O2_13 1_555 1_555
C6_26 C5_26 1_555 1_555
N2_13 Cd1_13 1_555 1_555
C7_13 N2_13 1_555 1_555
H3_13 C7_13 1_555 1_555
C8_26 C7_13 1_555 1_555
H4_26 C8_26 1_555 1_555
O3_13 C1_13 1_555 1_555
N3_13 C2_13 1_555 1_555
C9_13 C4_13 1_555 1_555
H5_13 C9_13 1_555 1_555
Cd2_9 O3_13 1_555 1_555
O5_13 Cd1_13 1_555 1_555
N5_13 Cd1_13 1_555 1_555
O6_13 Cd1_13 1_555 1_555
N6_13 Cd1_13 1_555 1_555
C6_26 N2_13 1_555 1_555
N3_13 C9_13 1_555 1_555
N3_13 Cd2_9 1_555 1_555
C6_27 C5_27 1_555 1_555
H4_27 C8_27 1_555 1_555
O4_14 C5_27 1_555 1_555
N4_14 C6_27 1_555 1_555
C10_14 C8_27 1_555 1_555
H6_14 C10_14 1_555 1_555
Cd3_10 O4_14 1_555 1_555
N4_14 C10_14 1_555 1_555
N4_14 Cd3_10 1_555 1_555
Cd1_14 O1_14 1_555 1_555
O1_14 C1_14 1_555 1_555
C1_14 C2_14 1_555 1_555
C2_14 N1_14 1_555 1_555
N1_14 Cd1_14 1_555 1_555
C3_14 N1_14 1_555 1_555
H1_14 C3_14 1_555 1_555
C4_14 C3_14 1_555 1_555
H2_14 C4_14 1_555 1_555
O2_14 Cd1_14 1_555 1_555
C5_28 O2_14 1_555 1_555
C6_28 C5_28 1_555 1_555
N2_14 Cd1_14 1_555 1_555
C7_14 N2_14 1_555 1_555
H3_14 C7_14 1_555 1_555
C8_28 C7_14 1_555 1_555
H4_28 C8_28 1_555 1_555
O3_14 C1_14 1_555 1_555
N3_14 C2_14 1_555 1_555
C9_14 C4_14 1_555 1_555
H5_14 C9_14 1_555 1_555
Cd2_12 O3_14 1_555 1_555
O5_14 Cd1_14 1_555 1_555
N5_14 Cd1_14 1_555 1_555
O6_14 Cd1_14 1_555 1_555
N6_14 Cd1_14 1_555 1_555
C6_28 N2_14 1_555 1_555
N3_14 C9_14 1_555 1_555
N3_14 Cd2_12 1_555 1_555
Cd1_15 O1_15 1_555 1_555
O1_15 C1_15 1_555 1_555
C1_15 C2_15 1_555 1_555
C2_15 N1_15 1_555 1_555
N1_15 Cd1_15 1_555 1_555
C3_15 N1_15 1_555 1_555
H1_15 C3_15 1_555 1_555
C4_15 C3_15 1_555 1_555
H2_15 C4_15 1_555 1_555
O2_15 Cd1_15 1_555 1_555
C5_29 O2_15 1_555 1_555
C6_29 C5_29 1_555 1_555
N2_15 Cd1_15 1_555 1_555
C7_15 N2_15 1_555 1_555
H3_15 C7_15 1_555 1_555
C8_29 C7_15 1_555 1_555
H4_29 C8_29 1_555 1_555
O3_15 C1_15 1_555 1_555
N3_15 C2_15 1_555 1_555
C9_15 C4_15 1_555 1_555
H5_15 C9_15 1_555 1_555
Cd2_11 O3_15 1_555 1_555
O5_15 Cd1_15 1_555 1_555
N5_15 Cd1_15 1_555 1_555
O6_15 Cd1_15 1_555 1_555
N6_15 Cd1_15 1_555 1_555
C6_29 N2_15 1_555 1_555
N3_15 C9_15 1_555 1_555
N3_15 Cd2_11 1_555 1_555
C6_30 C5_30 1_555 1_555
H4_30 C8_30 1_555 1_555
O4_15 C5_30 1_555 1_555
N4_15 C6_30 1_555 1_555
C10_15 C8_30 1_555 1_555
H6_15 C10_15 1_555 1_555
Cd3_9 O4_15 1_555 1_555
N4_15 C10_15 1_555 1_555
N4_15 Cd3_9 1_555 1_555
Cd1_16 O1_16 1_555 1_555
O1_16 C1_16 1_555 1_555
C1_16 C2_16 1_555 1_555
C2_16 N1_16 1_555 1_555
N1_16 Cd1_16 1_555 1_555
C3_16 N1_16 1_555 1_555
H1_16 C3_16 1_555 1_555
C4_16 C3_16 1_555 1_555
H2_16 C4_16 1_555 1_555
O2_16 Cd1_16 1_555 1_555
C5_31 O2_16 1_555 1_555
C6_31 C5_31 1_555 1_555
N2_16 Cd1_16 1_555 1_555
C7_16 N2_16 1_555 1_555
H3_16 C7_16 1_555 1_555
C8_31 C7_16 1_555 1_555
H4_31 C8_31 1_555 1_555
O3_16 C1_16 1_555 1_555
N3_16 C2_16 1_555 1_555
C9_16 C4_16 1_555 1_555
H5_16 C9_16 1_555 1_555
Cd2_10 O3_16 1_555 1_555
O5_16 Cd1_16 1_555 1_555
N5_16 Cd1_16 1_555 1_555
O6_16 Cd1_16 1_555 1_555
N6_16 Cd1_16 1_555 1_555
C6_31 N2_16 1_555 1_555
N3_16 C9_16 1_555 1_555
N3_16 Cd2_10 1_555 1_555
C6_32 C5_32 1_555 1_555
H4_32 C8_32 1_555 1_555
O4_16 C5_32 1_555 1_555
N4_16 C6_32 1_555 1_555
C10_16 C8_32 1_555 1_555
H6_16 C10_16 1_555 1_555
Cd3_12 O4_16 1_555 1_555
N4_16 C10_16 1_555 1_555
N4_16 Cd3_12 1_555 1_555
Cd1_17 O1_17 1_555 1_555
O1_17 C1_17 1_555 1_555
C1_17 C2_17 1_555 1_555
C2_17 N1_17 1_555 1_555
N1_17 Cd1_17 1_555 1_555
C3_17 N1_17 1_555 1_555
H1_17 C3_17 1_555 1_555
C4_17 C3_17 1_555 1_555
H2_17 C4_17 1_555 1_555
O2_17 Cd1_17 1_555 1_555
C5_33 O2_17 1_555 1_555
C6_33 C5_33 1_555 1_555
N2_17 Cd1_17 1_555 1_555
C7_17 N2_17 1_555 1_555
H3_17 C7_17 1_555 1_555
C8_33 C7_17 1_555 1_555
H4_33 C8_33 1_555 1_555
O3_17 C1_17 1_555 1_555
N3_17 C2_17 1_555 1_555
C9_17 C4_17 1_555 1_555
H5_17 C9_17 1_555 1_555
Cd2_6 O3_17 1_555 1_555
O5_17 Cd1_17 1_555 1_555
N5_17 Cd1_17 1_555 1_555
O6_17 Cd1_17 1_555 1_555
N6_17 Cd1_17 1_555 1_555
C6_33 N2_17 1_555 1_555
N3_17 C9_17 1_555 1_555
N3_17 Cd2_6 1_555 1_555
C6_34 C5_34 1_555 1_555
H4_34 C8_34 1_555 1_555
O4_17 C5_34 1_555 1_555
N4_17 C6_34 1_555 1_555
C10_17 C8_34 1_555 1_555
H6_17 C10_17 1_555 1_555
Cd3_8 O4_17 1_555 1_555
N4_17 C10_17 1_555 1_555
N4_17 Cd3_8 1_555 1_555
Cd1_18 O1_18 1_555 1_555
O1_18 C1_18 1_555 1_555
C1_18 C2_18 1_555 1_555
C2_18 N1_18 1_555 1_555
N1_18 Cd1_18 1_555 1_555
C3_18 N1_18 1_555 1_555
H1_18 C3_18 1_555 1_555
C4_18 C3_18 1_555 1_555
H2_18 C4_18 1_555 1_555
O2_18 Cd1_18 1_555 1_555
C5_35 O2_18 1_555 1_555
C6_35 C5_35 1_555 1_555
N2_18 Cd1_18 1_555 1_555
C7_18 N2_18 1_555 1_555
H3_18 C7_18 1_555 1_555
C8_35 C7_18 1_555 1_555
H4_35 C8_35 1_555 1_555
O3_18 C1_18 1_555 1_555
N3_18 C2_18 1_555 1_555
C9_18 C4_18 1_555 1_555
H5_18 C9_18 1_555 1_555
Cd2_7 O3_18 1_555 1_555
O5_18 Cd1_18 1_555 1_555
N5_18 Cd1_18 1_555 1_555
O6_18 Cd1_18 1_555 1_555
N6_18 Cd1_18 1_555 1_555
C6_35 N2_18 1_555 1_555
N3_18 C9_18 1_555 1_555
N3_18 Cd2_7 1_555 1_555
C6_36 C5_36 1_555 1_555
H4_36 C8_36 1_555 1_555
O4_18 C5_36 1_555 1_555
N4_18 C6_36 1_555 1_555
C10_18 C8_36 1_555 1_555
H6_18 C10_18 1_555 1_555
Cd3_5 O4_18 1_555 1_555
N4_18 C10_18 1_555 1_555
N4_18 Cd3_5 1_555 1_555
C6_37 C5_37 1_555 1_555
H4_37 C8_37 1_555 1_555
O4_19 C5_37 1_555 1_555
N4_19 C6_37 1_555 1_555
C10_19 C8_37 1_555 1_555
H6_19 C10_19 1_555 1_555
Cd3_6 O4_19 1_555 1_555
N4_19 C10_19 1_555 1_555
N4_19 Cd3_6 1_555 1_555
Cd1_19 O1_19 1_555 1_555
O1_19 C1_19 1_555 1_555
C1_19 C2_19 1_555 1_555
C2_19 N1_19 1_555 1_555
N1_19 Cd1_19 1_555 1_555
C3_19 N1_19 1_555 1_555
H1_19 C3_19 1_555 1_555
C4_19 C3_19 1_555 1_555
H2_19 C4_19 1_555 1_555
O2_19 Cd1_19 1_555 1_555
C5_38 O2_19 1_555 1_555
C6_38 C5_38 1_555 1_555
N2_19 Cd1_19 1_555 1_555
C7_19 N2_19 1_555 1_555
H3_19 C7_19 1_555 1_555
C8_38 C7_19 1_555 1_555
H4_38 C8_38 1_555 1_555
O3_19 C1_19 1_555 1_555
N3_19 C2_19 1_555 1_555
C9_19 C4_19 1_555 1_555
H5_19 C9_19 1_555 1_555
Cd2_8 O3_19 1_555 1_555
O5_19 Cd1_19 1_555 1_555
N5_19 Cd1_19 1_555 1_555
O6_19 Cd1_19 1_555 1_555
N6_19 Cd1_19 1_555 1_555
C6_38 N2_19 1_555 1_555
N3_19 C9_19 1_555 1_555
N3_19 Cd2_8 1_555 1_555
C6_39 C5_39 1_555 1_555
H4_39 C8_39 1_555 1_555
O4_20 C5_39 1_555 1_555
N4_20 C6_39 1_555 1_555
C10_20 C8_39 1_555 1_555
H6_20 C10_20 1_555 1_555
Cd3_7 O4_20 1_555 1_555
N4_20 C10_20 1_555 1_555
N4_20 Cd3_7 1_555 1_555
Cd1_20 O1_20 1_555 1_555
O1_20 C1_20 1_555 1_555
C1_20 C2_20 1_555 1_555
C2_20 N1_20 1_555 1_555
N1_20 Cd1_20 1_555 1_555
C3_20 N1_20 1_555 1_555
H1_20 C3_20 1_555 1_555
C4_20 C3_20 1_555 1_555
H2_20 C4_20 1_555 1_555
O2_20 Cd1_20 1_555 1_555
C5_40 O2_20 1_555 1_555
C6_40 C5_40 1_555 1_555
N2_20 Cd1_20 1_555 1_555
C7_20 N2_20 1_555 1_555
H3_20 C7_20 1_555 1_555
C8_40 C7_20 1_555 1_555
H4_40 C8_40 1_555 1_555
O3_20 C1_20 1_555 1_555
N3_20 C2_20 1_555 1_555
C9_20 C4_20 1_555 1_555
H5_20 C9_20 1_555 1_555
Cd2_5 O3_20 1_555 1_555
O5_20 Cd1_20 1_555 1_555
N5_20 Cd1_20 1_555 1_555
O6_20 Cd1_20 1_555 1_555
N6_20 Cd1_20 1_555 1_555
C6_40 N2_20 1_555 1_555
N3_20 C9_20 1_555 1_555
N3_20 Cd2_5 1_555 1_555
Cd1_21 O1_21 1_555 1_555
O1_21 C1_21 1_555 1_555
C1_21 C2_21 1_555 1_555
C2_21 N1_21 1_555 1_555
N1_21 Cd1_21 1_555 1_555
C3_21 N1_21 1_555 1_555
H1_21 C3_21 1_555 1_555
C4_21 C3_21 1_555 1_555
H2_21 C4_21 1_555 1_555
O2_21 Cd1_21 1_555 1_555
C5_41 O2_21 1_555 1_555
C6_41 C5_41 1_555 1_555
N2_21 Cd1_21 1_555 1_555
C7_21 N2_21 1_555 1_555
H3_21 C7_21 1_555 1_555
C8_41 C7_21 1_555 1_555
H4_41 C8_41 1_555 1_555
O3_21 C1_21 1_555 1_555
N3_21 C2_21 1_555 1_555
C9_21 C4_21 1_555 1_555
H5_21 C9_21 1_555 1_555
Cd2_3 O3_21 1_555 1_555
O5_21 Cd1_21 1_555 1_555
N5_21 Cd1_21 1_555 1_555
O6_21 Cd1_21 1_555 1_555
N6_21 Cd1_21 1_555 1_555
C6_41 N2_21 1_555 1_555
N3_21 C9_21 1_555 1_555
N3_21 Cd2_3 1_555 1_555
C6_42 C5_42 1_555 1_555
H4_42 C8_42 1_555 1_555
O4_21 C5_42 1_555 1_555
N4_21 C6_42 1_555 1_555
C10_21 C8_42 1_555 1_555
H6_21 C10_21 1_555 1_555
Cd3 O4_21 1_555 1_555
N4_21 C10_21 1_555 1_555
N4_21 Cd3 1_555 1_555
Cd1_22 O1_22 1_555 1_555
O1_22 C1_22 1_555 1_555
C1_22 C2_22 1_555 1_555
C2_22 N1_22 1_555 1_555
N1_22 Cd1_22 1_555 1_555
C3_22 N1_22 1_555 1_555
H1_22 C3_22 1_555 1_555
C4_22 C3_22 1_555 1_555
H2_22 C4_22 1_555 1_555
O2_22 Cd1_22 1_555 1_555
C5_43 O2_22 1_555 1_555
C6_43 C5_43 1_555 1_555
N2_22 Cd1_22 1_555 1_555
C7_22 N2_22 1_555 1_555
H3_22 C7_22 1_555 1_555
C8_43 C7_22 1_555 1_555
H4_43 C8_43 1_555 1_555
O3_22 C1_22 1_555 1_555
N3_22 C2_22 1_555 1_555
C9_22 C4_22 1_555 1_555
H5_22 C9_22 1_555 1_555
Cd2_2 O3_22 1_555 1_555
O5_22 Cd1_22 1_555 1_555
N5_22 Cd1_22 1_555 1_555
O6_22 Cd1_22 1_555 1_555
N6_22 Cd1_22 1_555 1_555
C6_43 N2_22 1_555 1_555
N3_22 C9_22 1_555 1_555
N3_22 Cd2_2 1_555 1_555
C6_44 C5_44 1_555 1_555
H4_44 C8_44 1_555 1_555
O4_22 C5_44 1_555 1_555
N4_22 C6_44 1_555 1_555
C10_22 C8_44 1_555 1_555
H6_22 C10_22 1_555 1_555
Cd3_4 O4_22 1_555 1_555
N4_22 C10_22 1_555 1_555
N4_22 Cd3_4 1_555 1_555
C6_45 C5_45 1_555 1_555
H4_45 C8_45 1_555 1_555
O4_23 C5_45 1_555 1_555
N4_23 C6_45 1_555 1_555
C10_23 C8_45 1_555 1_555
H6_23 C10_23 1_555 1_555
Cd3_3 O4_23 1_555 1_555
N4_23 C10_23 1_555 1_555
N4_23 Cd3_3 1_555 1_555
Cd1_23 O1_23 1_555 1_555
O1_23 C1_23 1_555 1_555
C1_23 C2_23 1_555 1_555
C2_23 N1_23 1_555 1_555
N1_23 Cd1_23 1_555 1_555
C3_23 N1_23 1_555 1_555
H1_23 C3_23 1_555 1_555
C4_23 C3_23 1_555 1_555
H2_23 C4_23 1_555 1_555
O2_23 Cd1_23 1_555 1_555
C5_46 O2_23 1_555 1_555
C6_46 C5_46 1_555 1_555
N2_23 Cd1_23 1_555 1_555
C7_23 N2_23 1_555 1_555
H3_23 C7_23 1_555 1_555
C8_46 C7_23 1_555 1_555
H4_46 C8_46 1_555 1_555
O3_23 C1_23 1_555 1_555
N3_23 C2_23 1_555 1_555
C9_23 C4_23 1_555 1_555
H5_23 C9_23 1_555 1_555
Cd2 O3_23 1_555 1_555
O5_23 Cd1_23 1_555 1_555
N5_23 Cd1_23 1_555 1_555
O6_23 Cd1_23 1_555 1_555
N6_23 Cd1_23 1_555 1_555
C6_46 N2_23 1_555 1_555
N3_23 C9_23 1_555 1_555
N3_23 Cd2 1_555 1_555
C6_47 C5_47 1_555 1_555
H4_47 C8_47 1_555 1_555
O4_24 C5_47 1_555 1_555
N4_24 C6_47 1_555 1_555
C10_24 C8_47 1_555 1_555
H6_24 C10_24 1_555 1_555
Cd3_2 O4_24 1_555 1_555
N4_24 C10_24 1_555 1_555
N4_24 Cd3_2 1_555 1_555
Cd1_24 O1_24 1_555 1_555
O1_24 C1_24 1_555 1_555
C1_24 C2_24 1_555 1_555
C2_24 N1_24 1_555 1_555
N1_24 Cd1_24 1_555 1_555
C3_24 N1_24 1_555 1_555
H1_24 C3_24 1_555 1_555
C4_24 C3_24 1_555 1_555
H2_24 C4_24 1_555 1_555
O2_24 Cd1_24 1_555 1_555
C5_48 O2_24 1_555 1_555
C6_48 C5_48 1_555 1_555
N2_24 Cd1_24 1_555 1_555
C7_24 N2_24 1_555 1_555
H3_24 C7_24 1_555 1_555
C8_48 C7_24 1_555 1_555
H4_48 C8_48 1_555 1_555
O3_24 C1_24 1_555 1_555
N3_24 C2_24 1_555 1_555
C9_24 C4_24 1_555 1_555
H5_24 C9_24 1_555 1_555
Cd2_4 O3_24 1_555 1_555
O5_24 Cd1_24 1_555 1_555
N5_24 Cd1_24 1_555 1_555
O6_24 Cd1_24 1_555 1_555
N6_24 Cd1_24 1_555 1_555
C6_48 N2_24 1_555 1_555
N3_24 C9_24 1_555 1_555
N3_24 Cd2_4 1_555 1_555
O5_19 C1_25 1_555 1_555
C1_25 C2_25 1_555 1_555
C2_25 N5_19 1_555 1_555
C3_25 N5_19 1_555 1_555
H1_25 C3_25 1_555 1_555
C4_25 C3_25 1_555 1_555
H2_25 C4_25 1_555 1_555
C5_49 O6_19 1_555 1_555
C6_49 C5_49 1_555 1_555
C7_25 N6_19 1_555 1_555
H3_25 C7_25 1_555 1_555
C8_49 C7_25 1_555 1_555
H4_49 C8_49 1_555 1_555
O3_25 C1_25 1_555 1_555
N3_25 C2_25 1_555 1_555
C9_25 C4_25 1_555 1_555
H5_25 C9_25 1_555 1_555
O4_25 C5_49 1_555 1_555
N4_25 C6_49 1_555 1_555
C10_25 C8_49 1_555 1_555
H6_25 C10_25 1_555 1_555
Cd3_5 O4_25 1_555 1_555
Cd2_9 O3_25 1_555 1_555
C6_49 N6_19 1_555 1_555
N3_25 C9_25 1_555 1_555
N3_25 Cd2_9 1_555 1_555
N4_25 C10_25 1_555 1_555
N4_25 Cd3_5 1_555 1_555
O5_17 C1_26 1_555 1_555
C1_26 C2_26 1_555 1_555
C2_26 N5_17 1_555 1_555
C3_26 N5_17 1_555 1_555
H1_26 C3_26 1_555 1_555
C4_26 C3_26 1_555 1_555
H2_26 C4_26 1_555 1_555
C5_50 O6_17 1_555 1_555
C6_50 C5_50 1_555 1_555
C7_26 N6_17 1_555 1_555
H3_26 C7_26 1_555 1_555
C8_50 C7_26 1_555 1_555
H4_50 C8_50 1_555 1_555
O3_26 C1_26 1_555 1_555
N3_26 C2_26 1_555 1_555
C9_26 C4_26 1_555 1_555
H5_26 C9_26 1_555 1_555
O4_26 C5_50 1_555 1_555
N4_26 C6_50 1_555 1_555
C10_26 C8_50 1_555 1_555
H6_26 C10_26 1_555 1_555
Cd3_7 O4_26 1_555 1_555
Cd2_12 O3_26 1_555 1_555
C6_50 N6_17 1_555 1_555
N3_26 C9_26 1_555 1_555
N3_26 Cd2_12 1_555 1_555
N4_26 C10_26 1_555 1_555
N4_26 Cd3_7 1_555 1_555
O5_20 C1_27 1_555 1_555
C1_27 C2_27 1_555 1_555
C2_27 N5_20 1_555 1_555
C3_27 N5_20 1_555 1_555
H1_27 C3_27 1_555 1_555
C4_27 C3_27 1_555 1_555
H2_27 C4_27 1_555 1_555
C5_51 O6_20 1_555 1_555
C6_51 C5_51 1_555 1_555
C7_27 N6_20 1_555 1_555
H3_27 C7_27 1_555 1_555
C8_51 C7_27 1_555 1_555
H4_51 C8_51 1_555 1_555
O3_27 C1_27 1_555 1_555
N3_27 C2_27 1_555 1_555
C9_27 C4_27 1_555 1_555
H5_27 C9_27 1_555 1_555
O4_27 C5_51 1_555 1_555
N4_27 C6_51 1_555 1_555
C10_27 C8_51 1_555 1_555
H6_27 C10_27 1_555 1_555
Cd3_8 O4_27 1_555 1_555
Cd2_10 O3_27 1_555 1_555
C6_51 N6_20 1_555 1_555
N3_27 C9_27 1_555 1_555
N3_27 Cd2_10 1_555 1_555
N4_27 C10_27 1_555 1_555
N4_27 Cd3_8 1_555 1_555
O5_18 C1_28 1_555 1_555
C1_28 C2_28 1_555 1_555
C2_28 N5_18 1_555 1_555
C3_28 N5_18 1_555 1_555
H1_28 C3_28 1_555 1_555
C4_28 C3_28 1_555 1_555
H2_28 C4_28 1_555 1_555
C5_52 O6_18 1_555 1_555
C6_52 C5_52 1_555 1_555
C7_28 N6_18 1_555 1_555
H3_28 C7_28 1_555 1_555
C8_52 C7_28 1_555 1_555
H4_52 C8_52 1_555 1_555
O3_28 C1_28 1_555 1_555
N3_28 C2_28 1_555 1_555
C9_28 C4_28 1_555 1_555
H5_28 C9_28 1_555 1_555
O4_28 C5_52 1_555 1_555
N4_28 C6_52 1_555 1_555
C10_28 C8_52 1_555 1_555
H6_28 C10_28 1_555 1_555
Cd3_6 O4_28 1_555 1_555
Cd2_11 O3_28 1_555 1_555
C6_52 N6_18 1_555 1_555
N3_28 C9_28 1_555 1_555
N3_28 Cd2_11 1_555 1_555
N4_28 C10_28 1_555 1_555
N4_28 Cd3_6 1_555 1_555
O5_14 C1_29 1_555 1_555
C1_29 C2_29 1_555 1_555
C2_29 N5_14 1_555 1_555
C3_29 N5_14 1_555 1_555
H1_29 C3_29 1_555 1_555
C4_29 C3_29 1_555 1_555
H2_29 C4_29 1_555 1_555
C5_53 O6_14 1_555 1_555
C6_53 C5_53 1_555 1_555
C7_29 N6_14 1_555 1_555
H3_29 C7_29 1_555 1_555
C8_53 C7_29 1_555 1_555
H4_53 C8_53 1_555 1_555
O3_29 C1_29 1_555 1_555
N3_29 C2_29 1_555 1_555
C9_29 C4_29 1_555 1_555
H5_29 C9_29 1_555 1_555
O4_29 C5_53 1_555 1_555
N4_29 C6_53 1_555 1_555
C10_29 C8_53 1_555 1_555
H6_29 C10_29 1_555 1_555
Cd3_9 O4_29 1_555 1_555
Cd2 O3_29 1_555 1_555
C6_53 N6_14 1_555 1_555
N3_29 C9_29 1_555 1_555
N3_29 Cd2 1_555 1_555
N4_29 C10_29 1_555 1_555
N4_29 Cd3_9 1_555 1_555
O5_16 C1_30 1_555 1_555
C1_30 C2_30 1_555 1_555
C2_30 N5_16 1_555 1_555
C3_30 N5_16 1_555 1_555
H1_30 C3_30 1_555 1_555
C4_30 C3_30 1_555 1_555
H2_30 C4_30 1_555 1_555
C5_54 O6_16 1_555 1_555
C6_54 C5_54 1_555 1_555
C7_30 N6_16 1_555 1_555
H3_30 C7_30 1_555 1_555
C8_54 C7_30 1_555 1_555
H4_54 C8_54 1_555 1_555
O3_30 C1_30 1_555 1_555
N3_30 C2_30 1_555 1_555
C9_30 C4_30 1_555 1_555
H5_30 C9_30 1_555 1_555
O4_30 C5_54 1_555 1_555
N4_30 C6_54 1_555 1_555
C10_30 C8_54 1_555 1_555
H6_30 C10_30 1_555 1_555
Cd3_11 O4_30 1_555 1_555
Cd2_4 O3_30 1_555 1_555
C6_54 N6_16 1_555 1_555
N3_30 C9_30 1_555 1_555
N3_30 Cd2_4 1_555 1_555
N4_30 C10_30 1_555 1_555
N4_30 Cd3_11 1_555 1_555
O5_13 C1_31 1_555 1_555
C1_31 C2_31 1_555 1_555
C2_31 N5_13 1_555 1_555
C3_31 N5_13 1_555 1_555
H1_31 C3_31 1_555 1_555
C4_31 C3_31 1_555 1_555
H2_31 C4_31 1_555 1_555
C5_55 O6_13 1_555 1_555
C6_55 C5_55 1_555 1_555
C7_31 N6_13 1_555 1_555
H3_31 C7_31 1_555 1_555
C8_55 C7_31 1_555 1_555
H4_55 C8_55 1_555 1_555
O3_31 C1_31 1_555 1_555
N3_31 C2_31 1_555 1_555
C9_31 C4_31 1_555 1_555
H5_31 C9_31 1_555 1_555
O4_31 C5_55 1_555 1_555
N4_31 C6_55 1_555 1_555
C10_31 C8_55 1_555 1_555
H6_31 C10_31 1_555 1_555
Cd3_12 O4_31 1_555 1_555
Cd2_2 O3_31 1_555 1_555
C6_55 N6_13 1_555 1_555
N3_31 C9_31 1_555 1_555
N3_31 Cd2_2 1_555 1_555
N4_31 C10_31 1_555 1_555
N4_31 Cd3_12 1_555 1_555
O5_15 C1_32 1_555 1_555
C1_32 C2_32 1_555 1_555
C2_32 N5_15 1_555 1_555
C3_32 N5_15 1_555 1_555
H1_32 C3_32 1_555 1_555
C4_32 C3_32 1_555 1_555
H2_32 C4_32 1_555 1_555
C5_56 O6_15 1_555 1_555
C6_56 C5_56 1_555 1_555
C7_32 N6_15 1_555 1_555
H3_32 C7_32 1_555 1_555
C8_56 C7_32 1_555 1_555
H4_56 C8_56 1_555 1_555
O3_32 C1_32 1_555 1_555
N3_32 C2_32 1_555 1_555
C9_32 C4_32 1_555 1_555
H5_32 C9_32 1_555 1_555
O4_32 C5_56 1_555 1_555
N4_32 C6_56 1_555 1_555
C10_32 C8_56 1_555 1_555
H6_32 C10_32 1_555 1_555
Cd3_10 O4_32 1_555 1_555
Cd2_3 O3_32 1_555 1_555
C6_56 N6_15 1_555 1_555
N3_32 C9_32 1_555 1_555
N3_32 Cd2_3 1_555 1_555
N4_32 C10_32 1_555 1_555
N4_32 Cd3_10 1_555 1_555
O5_24 C1_33 1_555 1_555
C1_33 C2_33 1_555 1_555
C2_33 N5_24 1_555 1_555
C3_33 N5_24 1_555 1_555
H1_33 C3_33 1_555 1_555
C4_33 C3_33 1_555 1_555
H2_33 C4_33 1_555 1_555
C5_57 O6_24 1_555 1_555
C6_57 C5_57 1_555 1_555
C7_33 N6_24 1_555 1_555
H3_33 C7_33 1_555 1_555
C8_57 C7_33 1_555 1_555
H4_57 C8_57 1_555 1_555
O3_33 C1_33 1_555 1_555
N3_33 C2_33 1_555 1_555
C9_33 C4_33 1_555 1_555
H5_33 C9_33 1_555 1_555
O4_33 C5_57 1_555 1_555
N4_33 C6_57 1_555 1_555
C10_33 C8_57 1_555 1_555
H6_33 C10_33 1_555 1_555
Cd3 O4_33 1_555 1_555
Cd2_5 O3_33 1_555 1_555
C6_57 N6_24 1_555 1_555
N3_33 C9_33 1_555 1_555
N3_33 Cd2_5 1_555 1_555
N4_33 C10_33 1_555 1_555
N4_33 Cd3 1_555 1_555
O5_22 C1_34 1_555 1_555
C1_34 C2_34 1_555 1_555
C2_34 N5_22 1_555 1_555
C3_34 N5_22 1_555 1_555
H1_34 C3_34 1_555 1_555
C4_34 C3_34 1_555 1_555
H2_34 C4_34 1_555 1_555
C5_58 O6_22 1_555 1_555
C6_58 C5_58 1_555 1_555
C7_34 N6_22 1_555 1_555
H3_34 C7_34 1_555 1_555
C8_58 C7_34 1_555 1_555
H4_58 C8_58 1_555 1_555
O3_34 C1_34 1_555 1_555
N3_34 C2_34 1_555 1_555
C9_34 C4_34 1_555 1_555
H5_34 C9_34 1_555 1_555
O4_34 C5_58 1_555 1_555
N4_34 C6_58 1_555 1_555
C10_34 C8_58 1_555 1_555
H6_34 C10_34 1_555 1_555
Cd3_3 O4_34 1_555 1_555
Cd2_8 O3_34 1_555 1_555
C6_58 N6_22 1_555 1_555
N3_34 C9_34 1_555 1_555
N3_34 Cd2_8 1_555 1_555
N4_34 C10_34 1_555 1_555
N4_34 Cd3_3 1_555 1_555
O5_23 C1_35 1_555 1_555
C1_35 C2_35 1_555 1_555
C2_35 N5_23 1_555 1_555
C3_35 N5_23 1_555 1_555
H1_35 C3_35 1_555 1_555
C4_35 C3_35 1_555 1_555
H2_35 C4_35 1_555 1_555
C5_59 O6_23 1_555 1_555
C6_59 C5_59 1_555 1_555
C7_35 N6_23 1_555 1_555
H3_35 C7_35 1_555 1_555
C8_59 C7_35 1_555 1_555
H4_59 C8_59 1_555 1_555
O3_35 C1_35 1_555 1_555
N3_35 C2_35 1_555 1_555
C9_35 C4_35 1_555 1_555
H5_35 C9_35 1_555 1_555
O4_35 C5_59 1_555 1_555
N4_35 C6_59 1_555 1_555
C10_35 C8_59 1_555 1_555
H6_35 C10_35 1_555 1_555
Cd3_4 O4_35 1_555 1_555
Cd2_6 O3_35 1_555 1_555
C6_59 N6_23 1_555 1_555
N3_35 C9_35 1_555 1_555
N3_35 Cd2_6 1_555 1_555
N4_35 C10_35 1_555 1_555
N4_35 Cd3_4 1_555 1_555
O5_21 C1_36 1_555 1_555
C1_36 C2_36 1_555 1_555
C2_36 N5_21 1_555 1_555
C3_36 N5_21 1_555 1_555
H1_36 C3_36 1_555 1_555
C4_36 C3_36 1_555 1_555
H2_36 C4_36 1_555 1_555
C5_60 O6_21 1_555 1_555
C6_60 C5_60 1_555 1_555
C7_36 N6_21 1_555 1_555
H3_36 C7_36 1_555 1_555
C8_60 C7_36 1_555 1_555
H4_60 C8_60 1_555 1_555
O3_36 C1_36 1_555 1_555
N3_36 C2_36 1_555 1_555
C9_36 C4_36 1_555 1_555
H5_36 C9_36 1_555 1_555
O4_36 C5_60 1_555 1_555
N4_36 C6_60 1_555 1_555
C10_36 C8_60 1_555 1_555
H6_36 C10_36 1_555 1_555
Cd3_2 O4_36 1_555 1_555
Cd2_7 O3_36 1_555 1_555
C6_60 N6_21 1_555 1_555
N3_36 C9_36 1_555 1_555
N3_36 Cd2_7 1_555 1_555
N4_36 C10_36 1_555 1_555
N4_36 Cd3_2 1_555 1_555
O5_7 C1_37 1_555 1_555
C1_37 C2_37 1_555 1_555
C2_37 N5_7 1_555 1_555
C3_37 N5_7 1_555 1_555
H1_37 C3_37 1_555 1_555
C4_37 C3_37 1_555 1_555
H2_37 C4_37 1_555 1_555
C5_61 O6_7 1_555 1_555
C6_61 C5_61 1_555 1_555
C7_37 N6_7 1_555 1_555
H3_37 C7_37 1_555 1_555
C8_61 C7_37 1_555 1_555
H4_61 C8_61 1_555 1_555
O3_37 C1_37 1_555 1_555
N3_37 C2_37 1_555 1_555
C9_37 C4_37 1_555 1_555
H5_37 C9_37 1_555 1_555
O4_37 C5_61 1_555 1_555
N4_37 C6_61 1_555 1_555
C10_37 C8_61 1_555 1_555
H6_37 C10_37 1_555 1_555
Cd2_6 O4_37 1_555 1_555
Cd3 O3_37 1_555 1_555
C6_61 N6_7 1_555 1_555
N3_37 C9_37 1_555 1_555
N3_37 Cd3 1_555 1_555
N4_37 C10_37 1_555 1_555
N4_37 Cd2_6 1_555 1_555
O5_5 C1_38 1_555 1_555
C1_38 C2_38 1_555 1_555
C2_38 N5_5 1_555 1_555
C3_38 N5_5 1_555 1_555
H1_38 C3_38 1_555 1_555
C4_38 C3_38 1_555 1_555
H2_38 C4_38 1_555 1_555
C5_62 O6_5 1_555 1_555
C6_62 C5_62 1_555 1_555
C7_38 N6_5 1_555 1_555
H3_38 C7_38 1_555 1_555
C8_62 C7_38 1_555 1_555
H4_62 C8_62 1_555 1_555
O3_38 C1_38 1_555 1_555
N3_38 C2_38 1_555 1_555
C9_38 C4_38 1_555 1_555
H5_38 C9_38 1_555 1_555
O4_38 C5_62 1_555 1_555
N4_38 C6_62 1_555 1_555
C10_38 C8_62 1_555 1_555
H6_38 C10_38 1_555 1_555
Cd2_8 O4_38 1_555 1_555
Cd3_2 O3_38 1_555 1_555
C6_62 N6_5 1_555 1_555
N3_38 C9_38 1_555 1_555
N3_38 Cd3_2 1_555 1_555
N4_38 C10_38 1_555 1_555
N4_38 Cd2_8 1_555 1_555
O5_8 C1_39 1_555 1_555
C1_39 C2_39 1_555 1_555
C2_39 N5_8 1_555 1_555
C3_39 N5_8 1_555 1_555
H1_39 C3_39 1_555 1_555
C4_39 C3_39 1_555 1_555
H2_39 C4_39 1_555 1_555
C5_63 O6_8 1_555 1_555
C6_63 C5_63 1_555 1_555
C7_39 N6_8 1_555 1_555
H3_39 C7_39 1_555 1_555
C8_63 C7_39 1_555 1_555
H4_63 C8_63 1_555 1_555
O3_39 C1_39 1_555 1_555
N3_39 C2_39 1_555 1_555
C9_39 C4_39 1_555 1_555
H5_39 C9_39 1_555 1_555
O4_39 C5_63 1_555 1_555
N4_39 C6_63 1_555 1_555
C10_39 C8_63 1_555 1_555
H6_39 C10_39 1_555 1_555
Cd2_5 O4_39 1_555 1_555
Cd3_4 O3_39 1_555 1_555
C6_63 N6_8 1_555 1_555
N3_39 C9_39 1_555 1_555
N3_39 Cd3_4 1_555 1_555
N4_39 C10_39 1_555 1_555
N4_39 Cd2_5 1_555 1_555
O5_6 C1_40 1_555 1_555
C1_40 C2_40 1_555 1_555
C2_40 N5_6 1_555 1_555
C3_40 N5_6 1_555 1_555
H1_40 C3_40 1_555 1_555
C4_40 C3_40 1_555 1_555
H2_40 C4_40 1_555 1_555
C5_64 O6_6 1_555 1_555
C6_64 C5_64 1_555 1_555
C7_40 N6_6 1_555 1_555
H3_40 C7_40 1_555 1_555
C8_64 C7_40 1_555 1_555
H4_64 C8_64 1_555 1_555
O3_40 C1_40 1_555 1_555
N3_40 C2_40 1_555 1_555
C9_40 C4_40 1_555 1_555
H5_40 C9_40 1_555 1_555
O4_40 C5_64 1_555 1_555
N4_40 C6_64 1_555 1_555
C10_40 C8_64 1_555 1_555
H6_40 C10_40 1_555 1_555
Cd2_7 O4_40 1_555 1_555
Cd3_3 O3_40 1_555 1_555
C6_64 N6_6 1_555 1_555
N3_40 C9_40 1_555 1_555
N3_40 Cd3_3 1_555 1_555
N4_40 C10_40 1_555 1_555
N4_40 Cd2_7 1_555 1_555
O5_2 C1_41 1_555 1_555
C1_41 C2_41 1_555 1_555
C2_41 N5_2 1_555 1_555
C3_41 N5_2 1_555 1_555
H1_41 C3_41 1_555 1_555
C4_41 C3_41 1_555 1_555
H2_41 C4_41 1_555 1_555
C5_65 O6_2 1_555 1_555
C6_65 C5_65 1_555 1_555
C7_41 N6_2 1_555 1_555
H3_41 C7_41 1_555 1_555
C8_65 C7_41 1_555 1_555
H4_65 C8_65 1_555 1_555
O3_41 C1_41 1_555 1_555
N3_41 C2_41 1_555 1_555
C9_41 C4_41 1_555 1_555
H5_41 C9_41 1_555 1_555
O4_41 C5_65 1_555 1_555
N4_41 C6_65 1_555 1_555
C10_41 C8_65 1_555 1_555
H6_41 C10_41 1_555 1_555
Cd2_3 O4_41 1_555 1_555
Cd3_11 O3_41 1_555 1_555
C6_65 N6_2 1_555 1_555
N3_41 C9_41 1_555 1_555
N3_41 Cd3_11 1_555 1_555
N4_41 C10_41 1_555 1_555
N4_41 Cd2_3 1_555 1_555
O5_4 C1_42 1_555 1_555
C1_42 C2_42 1_555 1_555
C2_42 N5_4 1_555 1_555
C3_42 N5_4 1_555 1_555
H1_42 C3_42 1_555 1_555
C4_42 C3_42 1_555 1_555
H2_42 C4_42 1_555 1_555
C5_66 O6_4 1_555 1_555
C6_66 C5_66 1_555 1_555
C7_42 N6_4 1_555 1_555
H3_42 C7_42 1_555 1_555
C8_66 C7_42 1_555 1_555
H4_66 C8_66 1_555 1_555
O3_42 C1_42 1_555 1_555
N3_42 C2_42 1_555 1_555
C9_42 C4_42 1_555 1_555
H5_42 C9_42 1_555 1_555
O4_42 C5_66 1_555 1_555
N4_42 C6_66 1_555 1_555
C10_42 C8_66 1_555 1_555
H6_42 C10_42 1_555 1_555
Cd2 O4_42 1_555 1_555
Cd3_12 O3_42 1_555 1_555
C6_66 N6_4 1_555 1_555
N3_42 C9_42 1_555 1_555
N3_42 Cd3_12 1_555 1_555
N4_42 C10_42 1_555 1_555
N4_42 Cd2 1_555 1_555
O5 C1_43 1_555 1_555
C1_43 C2_43 1_555 1_555
C2_43 N5 1_555 1_555
C3_43 N5 1_555 1_555
H1_43 C3_43 1_555 1_555
C4_43 C3_43 1_555 1_555
H2_43 C4_43 1_555 1_555
C5_67 O6 1_555 1_555
C6_67 C5_67 1_555 1_555
C7_43 N6 1_555 1_555
H3_43 C7_43 1_555 1_555
C8_67 C7_43 1_555 1_555
H4_67 C8_67 1_555 1_555
O3_43 C1_43 1_555 1_555
N3_43 C2_43 1_555 1_555
C9_43 C4_43 1_555 1_555
H5_43 C9_43 1_555 1_555
O4_43 C5_67 1_555 1_555
N4_43 C6_67 1_555 1_555
C10_43 C8_67 1_555 1_555
H6_43 C10_43 1_555 1_555
Cd2_4 O4_43 1_555 1_555
Cd3_10 O3_43 1_555 1_555
C6_67 N6 1_555 1_555
N3_43 C9_43 1_555 1_555
N3_43 Cd3_10 1_555 1_555
N4_43 C10_43 1_555 1_555
N4_43 Cd2_4 1_555 1_555
O5_3 C1_44 1_555 1_555
C1_44 C2_44 1_555 1_555
C2_44 N5_3 1_555 1_555
C3_44 N5_3 1_555 1_555
H1_44 C3_44 1_555 1_555
C4_44 C3_44 1_555 1_555
H2_44 C4_44 1_555 1_555
C5_68 O6_3 1_555 1_555
C6_68 C5_68 1_555 1_555
C7_44 N6_3 1_555 1_555
H3_44 C7_44 1_555 1_555
C8_68 C7_44 1_555 1_555
H4_68 C8_68 1_555 1_555
O3_44 C1_44 1_555 1_555
N3_44 C2_44 1_555 1_555
C9_44 C4_44 1_555 1_555
H5_44 C9_44 1_555 1_555
O4_44 C5_68 1_555 1_555
N4_44 C6_68 1_555 1_555
C10_44 C8_68 1_555 1_555
H6_44 C10_44 1_555 1_555
Cd2_2 O4_44 1_555 1_555
Cd3_9 O3_44 1_555 1_555
C6_68 N6_3 1_555 1_555
N3_44 C9_44 1_555 1_555
N3_44 Cd3_9 1_555 1_555
N4_44 C10_44 1_555 1_555
N4_44 Cd2_2 1_555 1_555
O5_12 C1_45 1_555 1_555
C1_45 C2_45 1_555 1_555
C2_45 N5_12 1_555 1_555
C3_45 N5_12 1_555 1_555
H1_45 C3_45 1_555 1_555
C4_45 C3_45 1_555 1_555
H2_45 C4_45 1_555 1_555
C5_69 O6_12 1_555 1_555
C6_69 C5_69 1_555 1_555
C7_45 N6_12 1_555 1_555
H3_45 C7_45 1_555 1_555
C8_69 C7_45 1_555 1_555
H4_69 C8_69 1_555 1_555
O3_45 C1_45 1_555 1_555
N3_45 C2_45 1_555 1_555
C9_45 C4_45 1_555 1_555
H5_45 C9_45 1_555 1_555
O4_45 C5_69 1_555 1_555
N4_45 C6_69 1_555 1_555
C10_45 C8_69 1_555 1_555
H6_45 C10_45 1_555 1_555
Cd2_9 O4_45 1_555 1_555
Cd3_8 O3_45 1_555 1_555
C6_69 N6_12 1_555 1_555
N3_45 C9_45 1_555 1_555
N3_45 Cd3_8 1_555 1_555
N4_45 C10_45 1_555 1_555
N4_45 Cd2_9 1_555 1_555
O5_10 C1_46 1_555 1_555
C1_46 C2_46 1_555 1_555
C2_46 N5_10 1_555 1_555
C3_46 N5_10 1_555 1_555
H1_46 C3_46 1_555 1_555
C4_46 C3_46 1_555 1_555
H2_46 C4_46 1_555 1_555
C5_70 O6_10 1_555 1_555
C6_70 C5_70 1_555 1_555
C7_46 N6_10 1_555 1_555
H3_46 C7_46 1_555 1_555
C8_70 C7_46 1_555 1_555
H4_70 C8_70 1_555 1_555
O3_46 C1_46 1_555 1_555
N3_46 C2_46 1_555 1_555
C9_46 C4_46 1_555 1_555
H5_46 C9_46 1_555 1_555
O4_46 C5_70 1_555 1_555
N4_46 C6_70 1_555 1_555
C10_46 C8_70 1_555 1_555
H6_46 C10_46 1_555 1_555
Cd2_11 O4_46 1_555 1_555
Cd3_7 O3_46 1_555 1_555
C6_70 N6_10 1_555 1_555
N3_46 C9_46 1_555 1_555
N3_46 Cd3_7 1_555 1_555
N4_46 C10_46 1_555 1_555
N4_46 Cd2_11 1_555 1_555
O5_11 C1_47 1_555 1_555
C1_47 C2_47 1_555 1_555
C2_47 N5_11 1_555 1_555
C3_47 N5_11 1_555 1_555
H1_47 C3_47 1_555 1_555
C4_47 C3_47 1_555 1_555
H2_47 C4_47 1_555 1_555
C5_71 O6_11 1_555 1_555
C6_71 C5_71 1_555 1_555
C7_47 N6_11 1_555 1_555
H3_47 C7_47 1_555 1_555
C8_71 C7_47 1_555 1_555
H4_71 C8_71 1_555 1_555
O3_47 C1_47 1_555 1_555
N3_47 C2_47 1_555 1_555
C9_47 C4_47 1_555 1_555
H5_47 C9_47 1_555 1_555
O4_47 C5_71 1_555 1_555
N4_47 C6_71 1_555 1_555
C10_47 C8_71 1_555 1_555
H6_47 C10_47 1_555 1_555
Cd2_10 O4_47 1_555 1_555
Cd3_5 O3_47 1_555 1_555
C6_71 N6_11 1_555 1_555
N3_47 C9_47 1_555 1_555
N3_47 Cd3_5 1_555 1_555
N4_47 C10_47 1_555 1_555
N4_47 Cd2_10 1_555 1_555
O5_9 C1_48 1_555 1_555
C1_48 C2_48 1_555 1_555
C2_48 N5_9 1_555 1_555
C3_48 N5_9 1_555 1_555
H1_48 C3_48 1_555 1_555
C4_48 C3_48 1_555 1_555
H2_48 C4_48 1_555 1_555
C5_72 O6_9 1_555 1_555
C6_72 C5_72 1_555 1_555
C7_48 N6_9 1_555 1_555
H3_48 C7_48 1_555 1_555
C8_72 C7_48 1_555 1_555
H4_72 C8_72 1_555 1_555
O3_48 C1_48 1_555 1_555
N3_48 C2_48 1_555 1_555
C9_48 C4_48 1_555 1_555
H5_48 C9_48 1_555 1_555
O4_48 C5_72 1_555 1_555
N4_48 C6_72 1_555 1_555
C10_48 C8_72 1_555 1_555
H6_48 C10_48 1_555 1_555
Cd2_12 O4_48 1_555 1_555
Cd3_6 O3_48 1_555 1_555
C6_72 N6_9 1_555 1_555
N3_48 C9_48 1_555 1_555
N3_48 Cd3_6 1_555 1_555
N4_48 C10_48 1_555 1_555
N4_48 Cd2_12 1_555 1_555

#END
