
###############################################################################
#
# This file contains modified crystal structure data generated from the
# MOF subset of the Cambridge Structural Database (CSD) v543 
# hosted by the Cambridge Crystallographic Data Centre (CCDC).
#
# This work is licensed under the Creative Commons
# Attribution-NonCommercial-ShareAlike 4.0 International License.
# To view a copy of this license, visit
# http://creativecommons.org/licenses/by-nc-sa/4.0/
# or send a letter to
# Creative Commons, PO Box 1866, Mountain View, CA 94042, USA.
#
# CIF created using the CSD Python API on 29 September 2022
# The structure has been converted into the P1 space group
# The structure has a 3D framework
# The original CSD entry USOXEH is in the monoclinic crystal system
# The framework has been calculated to contain at least 10.0% void space
# The void calculation uses a probe of radius 1.32A, grid spacing 0.4
#
###############################################################################

data_USOXEH
_chemical_formula_moiety         '(C72 H88 Cu13 N44 O4 Zn4)n'
_symmetry_cell_setting           triclinic
_symmetry_space_group_name_H-M   'P 1'
_symmetry_Int_Tables_number      1
_space_group_name_Hall           'P 1'
loop_
_symmetry_equiv_pos_site_id
_symmetry_equiv_pos_as_xyz
1 x,y,z
_cell_length_a                   11.946(2)
_cell_length_b                   13.302(3)
_cell_length_c                   17.777(4)
_cell_angle_alpha                90
_cell_angle_beta                 98.35(3)
_cell_angle_gamma                90
_cell_volume                     2794.92
loop_
_atom_site_label
_atom_site_type_symbol
_atom_site_fract_x
_atom_site_fract_y
_atom_site_fract_z
H25 H 0.3411 0.7038 0.0113
Cu1 Cu 0.04136(10) 0.67703(10) 0.44284(7)
Cu2 Cu 0.5000 0.5000 0.5000
N7 N 0.1593(6) 0.5712(6) 0.4580(4)
N8 N 0.3330(6) 0.5080(6) 0.4844(4)
N9 N 0.0929(6) 0.7277(6) 0.5474(4)
N10 N 0.1433(7) 0.8339(6) 0.6431(4)
C9 C 0.0103(8) 0.5472(8) 0.2996(6)
H9 H 0.0861 0.5300 0.3013
C10 C 0.2693(8) 0.5893(8) 0.4742(5)
H10 H 0.2991 0.6540 0.4780
C11 C 0.1514(8) 0.4696(8) 0.4584(6)
H11 H 0.0847 0.4327 0.4493
C12 C 0.2573(8) 0.4307(8) 0.4743(6)
H12 H 0.2752 0.3626 0.4778
C13 C 0.1026(8) 0.8226(8) 0.5704(5)
H13 H 0.0825 0.8767 0.5380
C14 C 0.1298(8) 0.6735(8) 0.6113(5)
H14 H 0.1340 0.6037 0.6143
C15 C 0.1589(8) 0.7375(8) 0.6688(5)
H15 H 0.1855 0.7192 0.7187
O1 O 0.1817(17) 0.7854(18) 0.3796(15)
N11 N 0.316(2) 0.8026(16) 0.3034(16)
C16 C 0.2152(18) 0.7652(17) 0.3198(15)
H16 H 0.1718 0.7240 0.2847
C17 C 0.386(3) 0.868(5) 0.358(3)
H17 H 0.4530 0.8869 0.3370
H18 H 0.3440 0.9271 0.3666
H19 H 0.4071 0.8325 0.4046
C18 C 0.355(4) 0.778(3) 0.231(2)
H20 H 0.4265 0.8097 0.2291
H21 H 0.3637 0.7061 0.2277
H22 H 0.3006 0.8007 0.1898
Zn2 Zn 0.32754(10) 0.45915(9) 0.79696(6)
N12 N 0.3461(6) 0.5746(6) 0.8674(4)
N13 N 0.4336(6) 0.7105(6) 0.9246(4)
N14 N 0.4370(6) 0.4738(7) 0.7233(4)
N15 N 0.5026(6) 0.4882(7) 0.6120(4)
N16 N 0.1739(6) 0.4464(6) 0.7368(4)
N17 N 0.0330(6) 0.3918(6) 0.6506(4)
C19 C 0.4236(8) 0.6458(8) 0.8665(5)
H23 H 0.4681 0.6504 0.8279
C20 C 0.3029(8) 0.5939(8) 0.9317(6)
H24 H 0.2461 0.5573 0.9498
C21 C 0.3562(9) 0.6758(8) 0.9659(6)
C22 C 0.4139(9) 0.4847(8) 0.6496(6)
H26 H 0.3400 0.4898 0.6249
C23 C 0.5508(10) 0.4741(13) 0.7359(7)
H27 H 0.5948 0.4682 0.7834
C24 C 0.5916(9) 0.4840(13) 0.6698(7)
H28 H 0.6677 0.4875 0.6641
C25 C 0.1445(8) 0.3909(7) 0.6749(5)
H29 H 0.1961 0.3552 0.6509
C26 C 0.0758(9) 0.4844(8) 0.7531(6)
H30 H 0.0683 0.5259 0.7942
Zn4 Zn 0.17246(10) 0.95915(9) 0.70304(6)
Cu5 Cu 0.54136(10) 0.82297(10) 0.94284(7)
N24 N 0.0664(6) 0.2105(6) 0.5754(4)
N25 N 0.4974(6) 0.5118(7) 0.3880(4)
N26 N 0.6670(6) 0.4920(6) 0.5156(4)
N27 N 0.3567(7) 0.3339(6) 0.8569(4)
Zn1 Zn 0.67246(10) 0.54085(9) 0.20304(6)
N1 N 0.6539(6) 0.4254(6) 0.1326(4)
N2 N 0.5664(6) 0.2895(6) 0.0754(4)
N3 N 0.5630(6) 0.5262(7) 0.2767(4)
N5 N 0.8261(6) 0.5536(6) 0.2632(4)
N6 N 0.9670(6) 0.6082(6) 0.3494(4)
C1 C 0.5764(8) 0.3542(8) 0.1335(5)
H1 H 0.5319 0.3496 0.1721
C2 C 0.6971(8) 0.4061(8) 0.0683(6)
H2 H 0.7539 0.4427 0.0502
C3 C 0.6438(9) 0.3242(8) 0.0341(6)
C4 C 0.5861(9) 0.5153(8) 0.3504(6)
H4 H 0.6600 0.5102 0.3751
C5 C 0.4492(10) 0.5259(13) 0.2641(7)
H5 H 0.4052 0.5318 0.2166
C6 C 0.4084(9) 0.5160(13) 0.3302(7)
H6 H 0.3323 0.5125 0.3359
C7 C 0.8555(8) 0.6091(7) 0.3251(5)
H7 H 0.8039 0.6448 0.3491
C8 C 0.9242(9) 0.5156(8) 0.2469(6)
H8 H 0.9317 0.4741 0.2058
Cu3 Cu 0.95864(10) 0.32297(10) 0.55716(7)
N18 N 0.8407(6) 0.4288(6) 0.5420(4)
N20 N 0.9071(6) 0.2723(6) 0.4526(4)
N21 N 0.8567(7) 0.1661(6) 0.3569(4)
C27 C 0.9897(8) 0.4528(8) 0.7004(6)
H31 H 0.9139 0.4700 0.6987
C28 C 0.7307(8) 0.4107(8) 0.5258(5)
H32 H 0.7009 0.3460 0.5220
C29 C 0.8486(8) 0.5304(8) 0.5416(6)
H33 H 0.9153 0.5673 0.5507
C30 C 0.7427(8) 0.5693(8) 0.5257(6)
H34 H 0.7248 0.6374 0.5222
C31 C 0.8974(8) 0.1774(8) 0.4296(5)
H35 H 0.9175 0.1233 0.4620
C32 C 0.8702(8) 0.3265(8) 0.3887(5)
H36 H 0.8660 0.3963 0.3857
C33 C 0.8411(8) 0.2625(8) 0.3312(5)
H37 H 0.8145 0.2808 0.2813
O2 O 0.8183(17) 0.2146(18) 0.6204(15)
N22 N 0.684(2) 0.1974(16) 0.6966(16)
C34 C 0.7848(18) 0.2348(17) 0.6802(15)
H38 H 0.8282 0.2760 0.7153
C35 C 0.614(3) 0.132(5) 0.642(3)
H39 H 0.5470 0.1131 0.6630
H40 H 0.6560 0.0729 0.6334
H41 H 0.5929 0.1675 0.5954
C36 C 0.645(4) 0.222(3) 0.769(2)
H42 H 0.5735 0.1903 0.7709
H43 H 0.6363 0.2939 0.7723
H44 H 0.6994 0.1993 0.8102
Zn3 Zn 0.82754(10) 0.04085(9) 0.29696(6)
Cu4 Cu 0.45864(10) 0.17703(10) 0.05716(7)
N23 N 0.9336(6) 0.7895(6) 0.4246(4)
N28 N 0.6433(7) 0.6661(6) 0.1431(4)
N4 N 0.0026(6) 0.0118(7) 0.1120(4)
C5_2 C 0.0508(10) 0.0259(13) 0.2359(7)
H5_2 H 0.0948 0.0318 0.2834
C6_2 C 0.0916(9) 0.0160(13) 0.1698(7)
H6_2 H 0.1677 0.0125 0.1641
Cu6 Cu 0.0000 0.0000 0.0000
Cu6_2 Cu 0.0000 0.0000 1.0000
Cu6_3 Cu 0.0000 1.0000 0.0000
Cu6_4 Cu 0.0000 1.0000 1.0000
N3_2 N 0.9370(6) 0.0262(7) 0.2233(4)
N5_2 N 0.6739(6) 0.0536(6) 0.2368(4)
N6_2 N 0.5330(6) 0.1082(6) 0.1506(4)
N7_2 N 0.3407(6) 0.0712(6) 0.0420(4)
N8_2 N 0.1670(6) 0.0080(6) 0.0156(4)
C4_2 C 0.9139(9) 0.0153(8) 0.1496(6)
H4_2 H 0.8400 0.0102 0.1249
C7_2 C 0.6445(8) 0.1091(7) 0.1749(5)
H7_2 H 0.6961 0.1448 0.1509
C8_2 C 0.5758(9) 0.0156(8) 0.2531(6)
C9_2 C 0.4897(8) 0.0472(8) 0.2004(6)
H9_2 H 0.4139 0.0300 0.1987
C10_2 C 0.2307(8) 0.0893(8) 0.0258(5)
H10_2 H 0.2009 0.1540 0.0220
O1_2 O 0.3183(17) 0.2854(18) 0.1204(15)
N11_2 N 0.184(2) 0.3026(16) 0.1966(16)
C16_2 C 0.2848(18) 0.2652(17) 0.1802(15)
H16_2 H 0.3282 0.2240 0.2153
C17_2 C 0.114(3) 0.368(5) 0.142(3)
H17_2 H 0.0470 0.3869 0.1630
H18_2 H 0.1560 0.4271 0.1334
H19_2 H 0.0929 0.3325 0.0954
C18_2 C 0.145(4) 0.278(3) 0.269(2)
H20_2 H 0.0735 0.3097 0.2709
H21_2 H 0.1363 0.2061 0.2723
H22_2 H 0.1994 0.3007 0.3102
Cu6_5 Cu 1.0000 0.0000 0.0000
N9_2 N 0.4071(6) 0.2277(6) 0.9526(4)
C13_2 C 0.3974(8) 0.3226(8) 0.9296(5)
H13_2 H 0.4175 0.3767 0.9620
C14_2 C 0.3702(8) 0.1735(8) 0.8887(5)
H14_2 H 0.3660 0.1037 0.8857
C15_2 C 0.3411(8) 0.2375(8) 0.8312(5)
H15_2 H 0.3145 0.2192 0.7813
N12_2 N 0.1539(6) 0.0746(6) 0.6326(4)
C19_2 C 0.0764(8) 0.1458(8) 0.6335(5)
H23_2 H 0.0319 0.1504 0.6721
C20_2 C 0.1971(8) 0.0939(8) 0.5683(6)
H24_2 H 0.2539 0.0573 0.5502
C21_2 C 0.1438(9) 0.1758(8) 0.5341(6)
H25_2 H 0.1589 0.2038 0.4887
H30_2 H 0.4317 0.0259 0.7058
C29_2 C 0.6514(8) 0.0304(8) 0.9584(6)
H33_2 H 0.5847 0.0673 0.9493
C30_2 C 0.7573(8) 0.0693(8) 0.9743(6)
H34_2 H 0.7752 0.1374 0.9778
Cu6_6 Cu 1.0000 0.0000 1.0000
N1_2 N 0.8461(6) 0.9254(6) 0.3674(4)
C1_2 C 0.9236(8) 0.8542(8) 0.3665(5)
H1_2 H 0.9681 0.8496 0.3279
C2_2 C 0.8029(8) 0.9061(8) 0.4317(6)
H2_2 H 0.7461 0.9427 0.4498
C3_2 C 0.8562(9) 0.8242(8) 0.4659(6)
H3 H 0.8411 0.7962 0.5113
H8_2 H 0.5683 0.9741 0.2942
C11_2 C 0.3486(8) 0.9696(8) 0.0416(6)
H11_2 H 0.4153 0.9327 0.0507
C12_2 C 0.2427(8) 0.9307(8) 0.0257(6)
H12_2 H 0.2248 0.8626 0.0222
N20_2 N 0.5929(6) 0.7723(6) 0.0474(4)
C31_2 C 0.6026(8) 0.6774(8) 0.0704(5)
H35_2 H 0.5825 0.6233 0.0380
C32_2 C 0.6298(8) 0.8265(8) 0.1113(5)
H36_2 H 0.6340 0.8963 0.1143
C33_2 C 0.6589(8) 0.7625(8) 0.1688(5)
H37_2 H 0.6855 0.7808 0.2187
Cu6_7 Cu 1.0000 1.0000 0.0000
N14_2 N 0.0630(6) 0.9738(7) 0.7767(4)
N16_2 N 0.3261(6) 0.9464(6) 0.7632(4)
N17_2 N 0.4670(6) 0.8918(6) 0.8494(4)
N18_2 N 0.6593(6) 0.9288(6) 0.9580(4)
N19 N 0.8330(6) 0.9920(6) 0.9844(4)
C22_2 C 0.0861(9) 0.9847(8) 0.8504(6)
H26_2 H 0.1600 0.9898 0.8751
C25_2 C 0.3555(8) 0.8909(7) 0.8251(5)
H29_2 H 0.3039 0.8552 0.8491
C26_2 C 0.4242(9) 0.9844(8) 0.7469(6)
C27_2 C 0.5103(8) 0.9528(8) 0.7996(6)
H31_2 H 0.5861 0.9700 0.8013
C28_2 C 0.7693(8) 0.9107(8) 0.9742(5)
H32_2 H 0.7991 0.8460 0.9780
O2_2 O 0.6817(17) 0.7146(18) 0.8796(15)
N22_2 N 0.816(2) 0.6974(16) 0.8034(16)
C34_2 C 0.7152(18) 0.7348(17) 0.8198(15)
H38_2 H 0.6718 0.7760 0.7847
C35_2 C 0.886(3) 0.632(5) 0.858(3)
H39_2 H 0.9530 0.6131 0.8370
H40_2 H 0.8440 0.5729 0.8666
H41_2 H 0.9071 0.6675 0.9046
C36_2 C 0.855(4) 0.722(3) 0.731(2)
H42_2 H 0.9265 0.6903 0.7291
H43_2 H 0.8637 0.7939 0.7277
H44_2 H 0.8006 0.6993 0.6898
Cu6_8 Cu 1.0000 1.0000 1.0000
N15_2 N 0.9974(6) 0.9882(7) 0.8880(4)
C23_2 C 0.9492(10) 0.9741(13) 0.7641(7)
H27_2 H 0.9052 0.9682 0.7166
C24_2 C 0.9084(9) 0.9840(13) 0.8302(7)
H28_2 H 0.8323 0.9875 0.8359
H3_2 H 0.6589 0.2962 0.9887
loop_
_geom_bond_atom_site_label_1
_geom_bond_atom_site_label_2
_geom_bond_site_symmetry_1
_geom_bond_site_symmetry_2
Cu2 N8 1_555 1_555
N7 Cu1 1_555 1_555
N8 C10 1_555 1_555
N9 Cu1 1_555 1_555
N10 C13 1_555 1_555
H9 C9 1_555 1_555
C10 N7 1_555 1_555
H10 C10 1_555 1_555
C11 N7 1_555 1_555
H11 C11 1_555 1_555
C12 N8 1_555 1_555
H12 C12 1_555 1_555
C13 N9 1_555 1_555
H13 C13 1_555 1_555
C14 N9 1_555 1_555
H14 C14 1_555 1_555
C15 N10 1_555 1_555
H15 C15 1_555 1_555
O1 Cu1 1_555 1_555
N11 C16 1_555 1_555
C16 O1 1_555 1_555
H16 C16 1_555 1_555
C17 N11 1_555 1_555
H17 C17 1_555 1_555
H18 C17 1_555 1_555
H19 C17 1_555 1_555
C18 N11 1_555 1_555
H20 C18 1_555 1_555
H21 C18 1_555 1_555
H22 C18 1_555 1_555
Zn2 N12 1_555 1_555
N12 C19 1_555 1_555
N13 C19 1_555 1_555
N14 Zn2 1_555 1_555
N15 Cu2 1_555 1_555
N16 Zn2 1_555 1_555
N17 C25 1_555 1_555
C19 H23 1_555 1_555
C20 N12 1_555 1_555
H24 C20 1_555 1_555
C21 N13 1_555 1_555
C22 N14 1_555 1_555
H26 C22 1_555 1_555
C23 N14 1_555 1_555
H27 C23 1_555 1_555
C24 N15 1_555 1_555
H28 C24 1_555 1_555
C25 N16 1_555 1_555
H29 C25 1_555 1_555
C26 N16 1_555 1_555
H30 C26 1_555 1_555
Zn4 N10 1_555 1_555
Cu5 N13 1_555 1_555
N25 Cu2 1_555 1_555
N26 Cu2 1_555 1_555
N27 Zn2 1_555 1_555
C11 C12 1_555 1_555
C14 C15 1_555 1_555
N15 C22 1_555 1_555
C20 C21 1_555 1_555
C23 C24 1_555 1_555
Zn1 N1 1_555 1_555
N1 C1 1_555 1_555
N2 C1 1_555 1_555
N3 Zn1 1_555 1_555
N25 C4 1_555 1_555
N5 Zn1 1_555 1_555
N6 C7 1_555 1_555
C1 H1 1_555 1_555
C2 N1 1_555 1_555
H2 C2 1_555 1_555
C3 N2 1_555 1_555
C4 N3 1_555 1_555
H4 C4 1_555 1_555
C5 N3 1_555 1_555
H5 C5 1_555 1_555
C6 N25 1_555 1_555
H6 C6 1_555 1_555
C7 N5 1_555 1_555
H7 C7 1_555 1_555
C8 N5 1_555 1_555
H8 C8 1_555 1_555
N18 Cu3 1_555 1_555
N26 C28 1_555 1_555
N20 Cu3 1_555 1_555
N21 C31 1_555 1_555
H31 C27 1_555 1_555
C28 N18 1_555 1_555
H32 C28 1_555 1_555
C29 N18 1_555 1_555
H33 C29 1_555 1_555
C30 N26 1_555 1_555
H34 C30 1_555 1_555
C31 N20 1_555 1_555
H35 C31 1_555 1_555
C32 N20 1_555 1_555
H36 C32 1_555 1_555
C33 N21 1_555 1_555
H37 C33 1_555 1_555
O2 Cu3 1_555 1_555
N22 C34 1_555 1_555
C34 O2 1_555 1_555
H38 C34 1_555 1_555
C35 N22 1_555 1_555
H39 C35 1_555 1_555
H40 C35 1_555 1_555
H41 C35 1_555 1_555
C36 N22 1_555 1_555
H42 C36 1_555 1_555
H43 C36 1_555 1_555
H44 C36 1_555 1_555
Zn3 N21 1_555 1_555
Cu4 N2 1_555 1_555
N28 Zn1 1_555 1_555
C2 C3 1_555 1_555
C5 C6 1_555 1_555
C29 C30 1_555 1_555
C32 C33 1_555 1_555
H5_2 C5_2 1_555 1_555
C6_2 N4 1_555 1_555
H6_2 C6_2 1_555 1_555
Cu6 N4 1_555 1_555
C5_2 C6_2 1_555 1_555
Cu4 N6_2 1_555 1_555
Cu6 N8_2 1_555 1_555
N3_2 Zn3 1_555 1_555
N5_2 Zn3 1_555 1_555
N6_2 C7_2 1_555 1_555
N7_2 Cu4 1_555 1_555
N8_2 C10_2 1_555 1_555
C4_2 N3_2 1_555 1_555
H4_2 C4_2 1_555 1_555
C7_2 N5_2 1_555 1_555
H7_2 C7_2 1_555 1_555
C8_2 N5_2 1_555 1_555
C9_2 N6_2 1_555 1_555
H9_2 C9_2 1_555 1_555
C10_2 N7_2 1_555 1_555
H10_2 C10_2 1_555 1_555
O1_2 Cu4 1_555 1_555
N11_2 C16_2 1_555 1_555
C16_2 O1_2 1_555 1_555
H16_2 C16_2 1_555 1_555
C17_2 N11_2 1_555 1_555
H17_2 C17_2 1_555 1_555
H18_2 C17_2 1_555 1_555
H19_2 C17_2 1_555 1_555
C18_2 N11_2 1_555 1_555
H20_2 C18_2 1_555 1_555
H21_2 C18_2 1_555 1_555
H22_2 C18_2 1_555 1_555
C8_2 C9_2 1_555 1_555
N27 C13_2 1_555 1_555
C13_2 N9_2 1_555 1_555
H13_2 C13_2 1_555 1_555
C14_2 N9_2 1_555 1_555
H14_2 C14_2 1_555 1_555
C15_2 N27 1_555 1_555
H15_2 C15_2 1_555 1_555
N12_2 C19_2 1_555 1_555
N24 C19_2 1_555 1_555
C19_2 H23_2 1_555 1_555
C20_2 N12_2 1_555 1_555
H24_2 C20_2 1_555 1_555
C21_2 N24 1_555 1_555
H25_2 C21_2 1_555 1_555
H33_2 C29_2 1_555 1_555
H34_2 C30_2 1_555 1_555
C14_2 C15_2 1_555 1_555
C20_2 C21_2 1_555 1_555
C29_2 C30_2 1_555 1_555
N1_2 C1_2 1_555 1_555
N23 C1_2 1_555 1_555
C1_2 H1_2 1_555 1_555
C2_2 N1_2 1_555 1_555
H2_2 C2_2 1_555 1_555
C3_2 N23 1_555 1_555
H3 C3_2 1_555 1_555
H11_2 C11_2 1_555 1_555
H12_2 C12_2 1_555 1_555
N28 C31_2 1_555 1_555
C31_2 N20_2 1_555 1_555
H35_2 C31_2 1_555 1_555
C32_2 N20_2 1_555 1_555
H36_2 C32_2 1_555 1_555
C33_2 N28 1_555 1_555
H37_2 C33_2 1_555 1_555
C2_2 C3_2 1_555 1_555
C11_2 C12_2 1_555 1_555
C32_2 C33_2 1_555 1_555
Cu5 N17_2 1_555 1_555
N14_2 Zn4 1_555 1_555
N16_2 Zn4 1_555 1_555
N17_2 C25_2 1_555 1_555
N18_2 Cu5 1_555 1_555
N19 C28_2 1_555 1_555
C22_2 N14_2 1_555 1_555
H26_2 C22_2 1_555 1_555
C25_2 N16_2 1_555 1_555
H29_2 C25_2 1_555 1_555
C26_2 N16_2 1_555 1_555
C27_2 N17_2 1_555 1_555
H31_2 C27_2 1_555 1_555
C28_2 N18_2 1_555 1_555
H32_2 C28_2 1_555 1_555
O2_2 Cu5 1_555 1_555
N22_2 C34_2 1_555 1_555
C34_2 O2_2 1_555 1_555
H38_2 C34_2 1_555 1_555
C35_2 N22_2 1_555 1_555
H39_2 C35_2 1_555 1_555
H40_2 C35_2 1_555 1_555
H41_2 C35_2 1_555 1_555
C36_2 N22_2 1_555 1_555
H42_2 C36_2 1_555 1_555
H43_2 C36_2 1_555 1_555
H44_2 C36_2 1_555 1_555
N19 Cu6_8 1_555 1_555
C26_2 C27_2 1_555 1_555
N15_2 Cu6_8 1_555 1_555
H27_2 C23_2 1_555 1_555
C24_2 N15_2 1_555 1_555
H28_2 C24_2 1_555 1_555
C23_2 C24_2 1_555 1_555

#END
