
###############################################################################
#
# This file contains modified crystal structure data generated from the
# MOF subset of the Cambridge Structural Database (CSD) v543 
# hosted by the Cambridge Crystallographic Data Centre (CCDC).
#
# This work is licensed under the Creative Commons
# Attribution-NonCommercial-ShareAlike 4.0 International License.
# To view a copy of this license, visit
# http://creativecommons.org/licenses/by-nc-sa/4.0/
# or send a letter to
# Creative Commons, PO Box 1866, Mountain View, CA 94042, USA.
#
# CIF created using the CSD Python API on 29 September 2022
# The structure has been converted into the P1 space group
# The structure has a 3D framework
# The original CSD entry USUQIL is in the triclinic crystal system
# The framework has been calculated to contain at least 10.0% void space
# The void calculation uses a probe of radius 1.32A, grid spacing 0.4
#
###############################################################################

data_USUQIL
_chemical_formula_moiety         '(C172 H112 Mn8 N24 O32)n'
_symmetry_cell_setting           triclinic
_symmetry_space_group_name_H-M   'P 1'
_symmetry_Int_Tables_number      1
_space_group_name_Hall           'P 1'
loop_
_symmetry_equiv_pos_site_id
_symmetry_equiv_pos_as_xyz
1 x,y,z
_cell_length_a                   14.513(3)
_cell_length_b                   15.768(3)
_cell_length_c                   20.365(4)
_cell_angle_alpha                94.298(8)
_cell_angle_beta                 104.956(10)
_cell_angle_gamma                106.159(8)
_cell_volume                     4270.16
loop_
_atom_site_label
_atom_site_type_symbol
_atom_site_fract_x
_atom_site_fract_y
_atom_site_fract_z
N1 N 0.1109(4) 0.4379(3) 0.1657(2)
N2 N 0.1195(4) 0.3125(3) 0.1144(2)
O1 O 0.3140(4) 0.0778(3) 0.2752(2)
C17 C 0.0850(4) 0.3837(3) 0.1069(3)
H4 H 0.047445 0.393273 0.065296
C26 C 0.1011(4) 0.2390(4) 0.0621(3)
C42 C 0.1723(5) 0.3236(4) 0.1831(3)
H20 H 0.206642 0.286511 0.204105
C54 C 0.3410(4) 0.0099(4) 0.2823(3)
C56 C 0.1641(5) 0.3990(4) 0.2136(3)
H31 H 0.190615 0.421463 0.260377
H37 H 0.267610 0.015980 0.148942
C69 C 0.0154(5) 0.2138(5) 0.0080(4)
C77 C 0.1667(5) 0.1919(4) 0.0663(3)
H48 H 0.224268 0.207582 0.103524
C81 C 0.1495(5) 0.1201(4) 0.0156(3)
H51 H 0.195695 0.088642 0.019526
Mn8 Mn 0.08124(5) 0.56779(4) 0.18300(3)
Mn13 Mn 0.40409(6) 0.04815(5) 0.44142(4)
C25 C 0.0461(4) 0.0197(3) 0.9032(3)
C27 C 0.0642(4) 0.0950(3) 0.9594(3)
Mn10 Mn 0.41354(5) 0.04518(5) 0.92205(4)
O2 O 0.3785(3) 0.9893(3) 0.33931(19)
O4 O 0.4448(3) 0.8895(3) 0.0188(2)
O5 O 0.2057(3) 0.6297(3) 0.14026(19)
O6 O 0.0548(3) 0.5972(3) 0.06844(19)
C10 C 0.2866(4) 0.8226(3) 0.0995(2)
C12 C 0.2568(3) 0.7552(3) 0.0351(2)
C13 C 0.1902(4) 0.6685(3) 0.0271(2)
C14 C 0.1474(4) 0.6301(3) 0.0826(2)
C37 C 0.2632(4) 0.9012(4) 0.0953(3)
H15 H 0.233070 0.913246 0.052369
C58 C 0.3272(4) 0.9467(3) 0.2185(3)
C64 C 0.3374(4) 0.8092(4) 0.1638(3)
H36 H 0.359940 0.759562 0.167689
C65 C 0.2835(4) 0.9631(4) 0.1535(3)
C72 C 0.3549(5) 0.8697(4) 0.2224(3)
H44 H 0.385990 0.858108 0.265196
Mn9 Mn 0.58646(5) 0.95482(5) 0.07795(4)
Mn1 Mn 0.06882(5) 0.56804(4) 0.68073(3)
N3 N 0.0196(4) 0.6886(3) 0.6935(2)
O3 O 0.3279(3) 0.9278(3) 0.9448(2)
O7 O 0.0754(3) 0.5056(2) 0.83394(18)
O8 O 0.1618(3) 0.6095(2) 0.78616(17)
C6 C 0.1834(4) 0.6408(3) 0.9066(2)
C7 C 0.2850(3) 0.7829(3) 0.9766(2)
C8 C 0.1362(3) 0.5799(3) 0.8373(2)
C9 C 0.2485(4) 0.7269(3) 0.9135(2)
H3 H 0.267563 0.746959 0.875733
C18 C 0.3581(3) 0.8741(3) 0.9813(2)
C20 C 0.1552(4) 0.6126(3) 0.9634(2)
H6 H 0.111938 0.555116 0.959005
C29 C 0.0493(4) 0.7469(3) 0.7507(3)
H8 H 0.099469 0.746657 0.789708
C32 C 0.0133(4) 0.8794(3) 0.7984(3)
C39 C 0.0346(5) 0.0101(4) 0.6461(3)
C43 C 0.0384(6) 0.2875(5) 0.8423(3)
H21 H 0.073652 0.318017 0.886525
C45 C 0.1192(5) 0.9794(4) 0.9014(3)
H23 H 0.180301 0.999307 0.935745
C51 C 0.1032(4) 0.9096(4) 0.8493(3)
H27 H 0.153289 0.883604 0.848960
C52 C 0.0522(6) 0.2133(5) 0.8139(3)
H28 H 0.097597 0.184548 0.834176
C57 C 0.0486(5) 0.0816(4) 0.6979(3)
H32 H 0.109927 0.105370 0.731673
N14 N 0.1036(4) 0.4407(3) 0.6627(2)
O23 O 0.1984(3) 0.6302(3) 0.63966(17)
O24 O 0.0472(3) 0.5854(2) 0.56538(18)
Mn2 Mn 0.91876(5) 0.43221(4) 0.81700(3)
N4 N 0.9982(4) 0.8065(3) 0.7455(2)
N5 N 0.9668(4) 0.3114(3) 0.7981(2)
N6 N 0.9853(4) 0.1893(3) 0.7492(2)
O9 O 0.5487(3) 0.0316(3) 0.15558(19)
O11 O 0.8016(3) 0.3698(3) 0.36034(17)
O12 O 0.9528(3) 0.4146(2) 0.43462(18)
O13 O 0.5540(3) 0.1168(3) 0.4732(2)
O14 O 0.6734(3) 0.0816(3) 0.5467(2)
O15 O 0.8210(3) 0.3899(2) 0.71243(17)
O16 O 0.9197(3) 0.4954(2) 0.67424(19)
C2 C 0.8546(3) 0.4207(3) 0.6655(2)
C3 C 0.7462(4) 0.2796(3) 0.5839(2)
H2 H 0.723660 0.258033 0.620044
C4 C 0.7113(3) 0.2264(3) 0.5196(2)
C5 C 0.8152(4) 0.3658(3) 0.5949(2)
C11 C 0.8165(4) 0.3425(3) 0.4760(2)
C15 C 0.8596(4) 0.3784(3) 0.4199(2)
C16 C 0.7125(4) 0.1990(3) 0.3957(2)
C21 C 0.8506(4) 0.3959(3) 0.5408(2)
H7 H 0.897443 0.452148 0.547749
C22 C 0.7445(4) 0.2582(3) 0.4638(2)
C24 C 0.6400(4) 0.1340(3) 0.5126(2)
C31 C 0.9343(4) 0.2493(4) 0.7428(3)
H9 H 0.882383 0.247289 0.704111
C33 C 0.9717(5) 0.1152(4) 0.6979(3)
C34 C 0.7544(4) 0.1142(3) 0.3102(2)
H10 H 0.801286 0.093826 0.295736
C35 C 0.8808(4) 0.0804(4) 0.6477(3)
H11 H 0.828498 0.103543 0.647937
C36 C 0.7828(4) 0.1704(3) 0.3730(2)
H14 H 0.849387 0.188893 0.399819
C40 C 0.8677(4) 0.0114(4) 0.5972(3)
C41 C 0.9313(5) 0.7844(4) 0.6809(3)
H19 H 0.885030 0.813022 0.662083
C44 C 0.9574(5) 0.9885(4) 0.8507(4)
C46 C 0.6559(4) 0.0892(3) 0.2697(2)
C48 C 0.9399(5) 0.9186(4) 0.7992(3)
H25 H 0.878613 0.898062 0.765111
C49 C 0.5877(4) 0.1199(4) 0.2911(3)
H26 H 0.522072 0.104166 0.262839
C50 C 0.6253(4) 0.0294(3) 0.2013(3)
C53 C 0.9461(5) 0.7129(4) 0.6501(3)
H29 H 0.911103 0.684106 0.605377
C55 C 0.6142(4) 0.1739(3) 0.3538(2)
H30 H 0.566407 0.193339 0.367885
Mn6 Mn 0.93118(5) 0.43196(4) 0.31927(3)
N13 N 0.8891(4) 0.5621(3) 0.8343(2)
O18 O 0.6215(3) 0.0107(3) 0.66069(19)
O19 O 0.6721(3) 0.0722(3) 0.0552(2)
O21 O 0.7943(3) 0.3703(3) 0.85974(19)
O22 O 0.9452(3) 0.4028(3) 0.93156(19)
Mn4 Mn 0.59591(6) 0.95185(5) 0.55858(4)
N7 N 0.8964(4) 0.5593(3) 0.3373(2)
N8 N 0.8848(4) 0.6822(3) 0.3881(2)
N10 N 0.6339(4) 0.8381(3) 0.0624(2)
N11 N 0.6341(4) 0.7095(3) 0.0119(3)
O10 O 0.6770(4) 0.9807(3) 0.19054(19)
C19 C 0.9177(4) 0.6120(3) 0.3960(3)
H5 H 0.952023 0.601180 0.438264
C23 C 0.8991(5) 0.7550(4) 0.4408(3)
C28 C 0.9450(4) 0.9743(3) 0.5955(3)
C30 C 0.9287(4) 0.8989(4) 0.5406(3)
O17 O 0.6547(3) 0.8480(3) 0.5984(2)
H12 H 0.617173 0.881308 0.595179
H13 H 0.617313 0.794588 0.582639
C38 C 0.9951(4) 0.8126(4) 0.4714(3)
H18 H 0.806300 0.988718 0.563345
C62 C 0.5983(5) 0.7794(4) 0.0050(3)
C63 C 0.8510(6) 0.6003(5) 0.2886(3)
H35 H 0.827947 0.579007 0.241643
C66 C 0.8342(5) 0.8391(4) 0.5090(3)
H38 H 0.779791 0.846928 0.522036
C67 C 0.8442(7) 0.6768(5) 0.3187(4)
H39 H 0.817345 0.717769 0.296625
C70 C 0.6971(6) 0.8044(4) 0.1068(3)
H42 H 0.734508 0.832348 0.151401
C71 C 0.8183(5) 0.7687(4) 0.4591(3)
H43 H 0.753825 0.730536 0.437741
C79 C 0.6981(6) 0.7255(5) 0.0776(3)
H49 H 0.734483 0.689246 0.097685
N15 N 0.6030(4) 0.9016(3) 0.4538(2)
O25 O 0.4460(3) 0.8832(3) 0.5268(2)
N9 N 0.3970(4) 0.0984(3) 0.5462(2)
C1 C 0.3741(6) 0.1018(4) 0.6502(3)
H1 H 0.353771 0.085342 0.688342
N12 N 0.4299(4) 0.1854(3) 0.6438(2)
C59 C 0.4409(5) 0.1785(4) 0.5810(3)
H33 H 0.476192 0.226032 0.563772
C60 C 0.4634(5) 0.2629(4) 0.6957(3)
C61 C 0.6085(5) 0.6340(4) 0.9591(3)
H34 H 0.554040 0.785636 0.964896
C73 C 0.5594(5) 0.3245(4) 0.7107(3)
H45 H 0.602917 0.315953 0.686188
C74 C 0.6514(6) 0.5190(5) 0.9021(4)
H46 H 0.698121 0.489809 0.899300
C75 C 0.6769(6) 0.5907(4) 0.9537(4)
H47 H 0.740714 0.609785 0.984913
C76 C 0.5561(6) 0.4894(4) 0.8539(4)
C78 C 0.5262(5) 0.4114(4) 0.7989(4)
C80 C 0.5896(5) 0.3974(4) 0.7612(3)
H50 H 0.653376 0.437995 0.770450
C82 C 0.3548(5) 0.0487(4) 0.5902(3)
C83 C 0.4907(7) 0.5348(6) 0.8586(5)
H53 H 0.428388 0.518406 0.825701
C84 C 0.5155(7) 0.6079(6) 0.9135(5)
H54 H 0.468769 0.636587 0.917634
C85 C 0.4015(6) 0.2755(6) 0.7329(5)
H55 H 0.339035 0.233263 0.725208
C86 C 0.4309(7) 0.3503(6) 0.7820(6)
H56 H 0.385549 0.360151 0.804340
C1_2 C 0.6259(6) 0.8982(4) 0.3498(3)
H1_2 H 0.646229 0.914658 0.311658
N12_2 N 0.5701(4) 0.8146(3) 0.3562(2)
C59_2 C 0.5591(5) 0.8215(4) 0.4190(3)
H33_2 H 0.523808 0.773968 0.436228
C60_2 C 0.5366(5) 0.7371(4) 0.3043(3)
C61_2 C 0.3915(5) 0.3660(4) 0.0409(3)
H34_2 H 0.445960 0.214364 0.035104
C73_2 C 0.4406(5) 0.6755(4) 0.2893(3)
H45_2 H 0.397083 0.684047 0.313812
C74_2 C 0.3486(6) 0.4810(5) 0.0979(4)
H46_2 H 0.301879 0.510191 0.100700
C75_2 C 0.3231(6) 0.4093(4) 0.0463(4)
H47_2 H 0.259286 0.390215 0.015087
C76_2 C 0.4439(6) 0.5106(4) 0.1461(4)
C78_2 C 0.4738(5) 0.5886(4) 0.2011(4)
C80_2 C 0.4104(5) 0.6026(4) 0.2388(3)
H50_2 H 0.346624 0.562005 0.229550
C82_2 C 0.6452(5) 0.9513(4) 0.4098(3)
C83_2 C 0.5093(7) 0.4652(6) 0.1414(5)
H53_2 H 0.571612 0.481594 0.174299
C84_2 C 0.4845(7) 0.3921(6) 0.0865(5)
H54_2 H 0.531231 0.363413 0.082366
C85_2 C 0.5985(6) 0.7245(6) 0.2671(5)
H55_2 H 0.660965 0.766737 0.274792
C86_2 C 0.5691(7) 0.6497(6) 0.2180(6)
H56_2 H 0.614451 0.639849 0.195660
N8_2 N 0.1152(4) 0.3178(3) 0.6119(2)
N10_2 N 0.3661(4) 0.1619(3) 0.9376(2)
N11_2 N 0.3659(4) 0.2905(3) 0.9881(3)
O10_2 O 0.3230(4) 0.0193(3) 0.80946(19)
C19_2 C 0.0823(4) 0.3880(3) 0.6040(3)
H5_2 H 0.047977 0.398820 0.561736
C23_2 C 0.1009(5) 0.2450(4) 0.5592(3)
C28_2 C 0.0550(4) 0.0257(3) 0.4045(3)
C30_2 C 0.0713(4) 0.1011(4) 0.4594(3)
O17_2 O 0.3453(3) 0.1520(3) 0.4016(2)
H12_2 H 0.382827 0.118692 0.404821
H13_2 H 0.382687 0.205412 0.417361
C38_2 C 0.0049(4) 0.1874(4) 0.5286(3)
H18_2 H 0.193700 0.011282 0.436655
C62_2 C 0.4017(5) 0.2206(4) 0.9950(3)
C63_2 C 0.1490(6) 0.3997(5) 0.7114(3)
H35_2 H 0.172053 0.420993 0.758357
C66_2 C 0.1658(5) 0.1609(4) 0.4910(3)
H38_2 H 0.220209 0.153072 0.477964
C67_2 C 0.1558(7) 0.3232(5) 0.6813(4)
H39_2 H 0.182655 0.282231 0.703375
C70_2 C 0.3029(6) 0.1956(4) 0.8932(3)
H42_2 H 0.265492 0.167652 0.848599
C71_2 C 0.1817(5) 0.2313(4) 0.5409(3)
H43_2 H 0.246175 0.269464 0.562259
C79_2 C 0.3019(6) 0.2745(5) 0.9224(3)
H49_2 H 0.265517 0.310754 0.902315
O20 O 0.5552(3) 0.1105(3) 0.9812(2)
N4_2 N 0.0018(4) 0.1935(3) 0.2545(2)
N5_2 N 0.0332(4) 0.6886(3) 0.2019(2)
N6_2 N 0.0147(4) 0.8107(3) 0.2508(2)
O9_2 O 0.4513(3) 0.9684(3) 0.84442(19)
O14_2 O 0.3266(3) 0.9184(3) 0.4533(2)
O15_2 O 0.1790(3) 0.6101(2) 0.28757(17)
O16_2 O 0.0803(3) 0.5046(2) 0.32576(19)
C2_2 C 0.1454(3) 0.5793(3) 0.3345(2)
C3_2 C 0.2538(4) 0.7204(3) 0.4161(2)
H2_2 H 0.276340 0.741967 0.379956
C4_2 C 0.2887(3) 0.7736(3) 0.4804(2)
C5_2 C 0.1848(4) 0.6342(3) 0.4051(2)
C11_2 C 0.1835(4) 0.6575(3) 0.5240(2)
C15_2 C 0.1404(4) 0.6216(3) 0.5801(2)
C16_2 C 0.2875(4) 0.8010(3) 0.6043(2)
C21_2 C 0.1494(4) 0.6041(3) 0.4592(2)
H7_2 H 0.102557 0.547852 0.452251
C22_2 C 0.2555(4) 0.7418(3) 0.5362(2)
C24_2 C 0.3600(4) 0.8660(3) 0.4874(2)
C31_2 C 0.0657(4) 0.7507(4) 0.2572(3)
H9_2 H 0.117617 0.752711 0.295889
C33_2 C 0.0283(5) 0.8848(4) 0.3021(3)
C34_2 C 0.2456(4) 0.8858(3) 0.6898(2)
H10_2 H 0.198714 0.906174 0.704264
C35_2 C 0.1192(4) 0.9196(4) 0.3523(3)
H11_2 H 0.171502 0.896457 0.352063
C36_2 C 0.2172(4) 0.8296(3) 0.6270(2)
H14_2 H 0.150613 0.811107 0.600181
C40_2 C 0.1323(4) 0.9886(4) 0.4028(3)
C41_2 C 0.0687(5) 0.2156(4) 0.3191(3)
H19_2 H 0.114970 0.186978 0.337917
C44_2 C 0.0426(5) 0.0115(4) 0.1493(4)
C46_2 C 0.3441(4) 0.9108(3) 0.7303(2)
C48_2 C 0.0601(5) 0.0814(4) 0.2008(3)
H25_2 H 0.121387 0.101938 0.234889
C49_2 C 0.4123(4) 0.8801(4) 0.7089(3)
H26_2 H 0.477928 0.895834 0.737161
C50_2 C 0.3747(4) 0.9706(3) 0.7987(3)
C53_2 C 0.0539(5) 0.2871(4) 0.3499(3)
H29_2 H 0.088897 0.315894 0.394623
C55_2 C 0.3858(4) 0.8261(3) 0.6462(2)
H30_2 H 0.433593 0.806661 0.632115
N3_2 N 0.9804(4) 0.3114(3) 0.3065(2)
O7_2 O 0.9246(3) 0.4944(2) 0.16606(18)
O8_2 O 0.8382(3) 0.3905(2) 0.21384(17)
C6_2 C 0.8166(4) 0.3592(3) 0.0934(2)
C7_2 C 0.7150(3) 0.2171(3) 0.0234(2)
C8_2 C 0.8638(3) 0.4201(3) 0.1627(2)
C9_2 C 0.7515(4) 0.2731(3) 0.0865(2)
H3_2 H 0.732437 0.253041 0.124267
C18_2 C 0.6419(3) 0.1259(3) 0.0187(2)
C20_2 C 0.8448(4) 0.3874(3) 0.0366(2)
H6_2 H 0.888062 0.444884 0.040995
C29_2 C 0.9507(4) 0.2531(3) 0.2493(3)
H8_2 H 0.900531 0.253343 0.210292
C32_2 C 0.9867(4) 0.1206(3) 0.2016(3)
C39_2 C 0.9654(5) 0.9899(4) 0.3539(3)
C43_2 C 0.9616(6) 0.7125(5) 0.1577(3)
H21_2 H 0.926348 0.681983 0.113475
C45_2 C 0.8808(5) 0.0206(4) 0.0986(3)
H23_2 H 0.819699 0.000693 0.064255
C51_2 C 0.8968(4) 0.0904(4) 0.1507(3)
H27_2 H 0.846711 0.116396 0.151040
C52_2 C 0.9478(6) 0.7867(5) 0.1861(3)
H28_2 H 0.902403 0.815452 0.165824
C57_2 C 0.9514(5) 0.9184(4) 0.3021(3)
H32_2 H 0.890073 0.894630 0.268327
C10_2 C 0.7134(4) 0.1774(3) 0.9005(2)
C12_2 C 0.7432(3) 0.2448(3) 0.9649(2)
C13_2 C 0.8098(4) 0.3315(3) 0.9729(2)
C14_2 C 0.8526(4) 0.3699(3) 0.9174(2)
C37_2 C 0.7368(4) 0.0988(4) 0.9047(3)
H15_2 H 0.766930 0.086754 0.947631
C58_2 C 0.6728(4) 0.0533(3) 0.7815(3)
C64_2 C 0.6626(4) 0.1908(4) 0.8362(3)
H36_2 H 0.640060 0.240438 0.832311
C65_2 C 0.7165(4) 0.0369(4) 0.8465(3)
C72_2 C 0.6451(5) 0.1303(4) 0.7776(3)
H44_2 H 0.614010 0.141892 0.734804
C25_2 C 0.9539(4) 0.9803(3) 0.0968(3)
C27_2 C 0.9358(4) 0.9050(3) 0.0406(3)
N2_2 N 0.8805(4) 0.6875(3) 0.8856(2)
O1_2 O 0.6860(4) 0.9222(3) 0.7248(2)
C17_2 C 0.9150(4) 0.6163(3) 0.8931(3)
H4_2 H 0.952555 0.606727 0.934704
C26_2 C 0.8989(4) 0.7610(4) 0.9379(3)
C42_2 C 0.8277(5) 0.6764(4) 0.8169(3)
H20_2 H 0.793358 0.713489 0.795895
C54_2 C 0.6590(4) 0.9901(4) 0.7177(3)
C56_2 C 0.8359(5) 0.6010(4) 0.7864(3)
H31_2 H 0.809385 0.578537 0.739623
H37_2 H 0.732390 0.984020 0.851058
C69_2 C 0.9846(5) 0.7862(5) 0.9920(4)
C77_2 C 0.8333(5) 0.8081(4) 0.9337(3)
H48_2 H 0.775732 0.792418 0.896476
C81_2 C 0.8505(5) 0.8799(4) 0.9844(3)
H51_2 H 0.804305 0.911358 0.980474
H16 H 0.049476 0.803340 0.459162
H17 H 0.086988 0.986886 0.646496
C47 C 0.0089(5) 0.8846(4) 0.5206(3)
H24 H 0.073000 0.924151 0.540615
H41 H 0.968092 0.243854 0.005519
H22 H 0.907757 0.015440 0.849808
C68 C 0.9990(5) 0.1437(5) 0.9573(4)
H40 H 0.941450 0.128968 0.920057
H52 H 0.318740 0.988140 0.579944
H52_2 H 0.681260 0.011860 0.420056
H22_2 H 0.092243 0.984560 0.150192
C68_2 C 0.0010(5) 0.8563(5) 0.0427(4)
H40_2 H 0.058550 0.871032 0.079943
H41_2 H 0.031908 0.756146 0.994481
H16_2 H 0.950524 0.196660 0.540838
H17_2 H 0.913012 0.013114 0.353504
C47_2 C 0.9911(5) 0.1154(4) 0.4794(3)
H24_2 H 0.927000 0.075849 0.459385
loop_
_geom_bond_atom_site_label_1
_geom_bond_atom_site_label_2
_geom_bond_site_symmetry_1
_geom_bond_site_symmetry_2
N1 C17 1_555 1_555
N2 C17 1_555 1_555
O1 C54 1_555 1_555
C17 H4 1_555 1_555
C26 N2 1_555 1_555
C42 N2 1_555 1_555
H20 C42 1_555 1_555
C56 N1 1_555 1_555
H31 C56 1_555 1_555
C69 C26 1_555 1_555
C77 C26 1_555 1_555
H48 C77 1_555 1_555
H51 C81 1_555 1_555
Mn8 N1 1_555 1_555
C42 C56 1_555 1_555
C77 C81 1_555 1_555
C25 C27 1_555 1_555
O5 C14 1_555 1_555
O6 C14 1_555 1_555
C10 C12 1_555 1_555
C13 C12 1_555 1_555
C14 C13 1_555 1_555
C37 C10 1_555 1_555
H15 C37 1_555 1_555
C58 C65 1_555 1_555
C64 C10 1_555 1_555
H36 C64 1_555 1_555
C65 C37 1_555 1_555
C72 C58 1_555 1_555
H44 C72 1_555 1_555
Mn8 O5 1_555 1_555
Mn9 O4 1_555 1_555
O6 Mn8 1_555 1_555
C64 C72 1_555 1_555
Mn1 N3 1_555 1_555
N3 C29 1_555 1_555
O3 C18 1_555 1_555
O8 Mn1 1_555 1_555
C6 C8 1_555 1_555
C7 C9 1_555 1_555
C8 O7 1_555 1_555
C9 C6 1_555 1_555
H3 C9 1_555 1_555
C18 C7 1_555 1_555
C20 C6 1_555 1_555
H6 C20 1_555 1_555
C29 H8 1_555 1_555
H21 C43 1_555 1_555
H23 C45 1_555 1_555
C51 C32 1_555 1_555
H27 C51 1_555 1_555
H28 C52 1_555 1_555
H32 C57 1_555 1_555
N14 Mn1 1_555 1_555
O23 Mn1 1_555 1_555
O24 Mn1 1_555 1_555
O8 C8 1_555 1_555
C39 C57 1_555 1_555
C43 C52 1_555 1_555
C45 C51 1_555 1_555
Mn2 N5 1_555 1_555
N5 C31 1_555 1_555
N6 C31 1_555 1_555
O11 C15 1_555 1_555
O12 C15 1_555 1_555
O13 C24 1_555 1_555
O14 C24 1_555 1_555
O15 Mn2 1_555 1_555
C2 O15 1_555 1_555
C3 H2 1_555 1_555
C4 C3 1_555 1_555
C5 C2 1_555 1_555
C11 C15 1_555 1_555
C16 C22 1_555 1_555
C21 C5 1_555 1_555
H7 C21 1_555 1_555
C22 C4 1_555 1_555
C24 C4 1_555 1_555
C31 H9 1_555 1_555
C33 N6 1_555 1_555
C34 H10 1_555 1_555
C35 C33 1_555 1_555
H11 C35 1_555 1_555
C36 C16 1_555 1_555
H14 C36 1_555 1_555
C41 N4 1_555 1_555
H19 C41 1_555 1_555
C46 C34 1_555 1_555
H25 C48 1_555 1_555
C49 C46 1_555 1_555
H26 C49 1_555 1_555
C50 O9 1_555 1_555
H29 C53 1_555 1_555
C55 C16 1_555 1_555
H30 C55 1_555 1_555
Mn6 O11 1_555 1_555
Mn13 O13 1_555 1_555
N13 Mn2 1_555 1_555
O21 Mn2 1_555 1_555
O22 Mn2 1_555 1_555
O12 Mn6 1_555 1_555
O16 C2 1_555 1_555
C3 C5 1_555 1_555
C11 C21 1_555 1_555
C11 C22 1_555 1_555
C34 C36 1_555 1_555
C35 C40 1_555 1_555
C41 C53 1_555 1_555
C44 C48 1_555 1_555
C46 C50 1_555 1_555
C49 C55 1_555 1_555
Mn9 N10 1_555 1_555
N7 C19 1_555 1_555
N8 C19 1_555 1_555
N10 C62 1_555 1_555
O10 Mn9 1_555 1_555
C19 H5 1_555 1_555
C23 N8 1_555 1_555
C28 C30 1_555 1_555
O17 Mn4 1_555 1_555
H12 O17 1_555 1_555
H13 O17 1_555 1_555
C38 C23 1_555 1_555
C62 N11 1_555 1_555
C63 N7 1_555 1_555
H35 C63 1_555 1_555
C66 C30 1_555 1_555
H38 C66 1_555 1_555
C67 N8 1_555 1_555
H39 C67 1_555 1_555
C70 N10 1_555 1_555
H42 C70 1_555 1_555
C71 C23 1_555 1_555
H43 C71 1_555 1_555
C79 N11 1_555 1_555
H49 C79 1_555 1_555
Mn6 N7 1_555 1_555
N15 Mn4 1_555 1_555
O25 Mn4 1_555 1_555
C63 C67 1_555 1_555
C66 C71 1_555 1_555
C70 C79 1_555 1_555
N9 C59 1_555 1_555
C1 H1 1_555 1_555
N12 C1 1_555 1_555
C59 N12 1_555 1_555
H33 C59 1_555 1_555
C60 N12 1_555 1_555
C61 C75 1_555 1_555
C73 C60 1_555 1_555
H45 C73 1_555 1_555
C74 H46 1_555 1_555
C75 C74 1_555 1_555
H47 C75 1_555 1_555
C76 C74 1_555 1_555
C78 C76 1_555 1_555
C80 C73 1_555 1_555
H50 C80 1_555 1_555
C82 N9 1_555 1_555
C83 C76 1_555 1_555
H53 C83 1_555 1_555
C84 C61 1_555 1_555
H54 C84 1_555 1_555
C85 C60 1_555 1_555
H55 C85 1_555 1_555
C86 C78 1_555 1_555
H56 C86 1_555 1_555
Mn13 N9 1_555 1_555
C1 C82 1_555 1_555
C78 C80 1_555 1_555
C83 C84 1_555 1_555
C85 C86 1_555 1_555
N15 C59_2 1_555 1_555
C1_2 H1_2 1_555 1_555
N12_2 C1_2 1_555 1_555
C59_2 N12_2 1_555 1_555
H33_2 C59_2 1_555 1_555
C60_2 N12_2 1_555 1_555
C61_2 C75_2 1_555 1_555
C73_2 C60_2 1_555 1_555
H45_2 C73_2 1_555 1_555
C74_2 H46_2 1_555 1_555
C75_2 C74_2 1_555 1_555
H47_2 C75_2 1_555 1_555
C76_2 C74_2 1_555 1_555
C78_2 C76_2 1_555 1_555
C80_2 C73_2 1_555 1_555
H50_2 C80_2 1_555 1_555
C82_2 N15 1_555 1_555
C83_2 C76_2 1_555 1_555
H53_2 C83_2 1_555 1_555
C84_2 C61_2 1_555 1_555
H54_2 C84_2 1_555 1_555
C85_2 C60_2 1_555 1_555
H55_2 C85_2 1_555 1_555
C86_2 C78_2 1_555 1_555
H56_2 C86_2 1_555 1_555
C1_2 C82_2 1_555 1_555
C78_2 C80_2 1_555 1_555
C83_2 C84_2 1_555 1_555
C85_2 C86_2 1_555 1_555
Mn10 N10_2 1_555 1_555
N14 C19_2 1_555 1_555
N8_2 C19_2 1_555 1_555
N10_2 C62_2 1_555 1_555
O10_2 Mn10 1_555 1_555
C19_2 H5_2 1_555 1_555
C23_2 N8_2 1_555 1_555
C28_2 C30_2 1_555 1_555
O17_2 Mn13 1_555 1_555
H12_2 O17_2 1_555 1_555
H13_2 O17_2 1_555 1_555
C38_2 C23_2 1_555 1_555
C62_2 N11_2 1_555 1_555
C63_2 N14 1_555 1_555
H35_2 C63_2 1_555 1_555
C66_2 C30_2 1_555 1_555
H38_2 C66_2 1_555 1_555
C67_2 N8_2 1_555 1_555
H39_2 C67_2 1_555 1_555
C70_2 N10_2 1_555 1_555
H42_2 C70_2 1_555 1_555
C71_2 C23_2 1_555 1_555
H43_2 C71_2 1_555 1_555
C79_2 N11_2 1_555 1_555
H49_2 C79_2 1_555 1_555
O20 Mn10 1_555 1_555
C63_2 C67_2 1_555 1_555
C66_2 C71_2 1_555 1_555
C70_2 C79_2 1_555 1_555
Mn8 N5_2 1_555 1_555
N5_2 C31_2 1_555 1_555
N6_2 C31_2 1_555 1_555
O23 C15_2 1_555 1_555
O24 C15_2 1_555 1_555
O25 C24_2 1_555 1_555
O14_2 C24_2 1_555 1_555
O15_2 Mn8 1_555 1_555
C2_2 O15_2 1_555 1_555
C3_2 H2_2 1_555 1_555
C4_2 C3_2 1_555 1_555
C5_2 C2_2 1_555 1_555
C11_2 C15_2 1_555 1_555
C16_2 C22_2 1_555 1_555
C21_2 C5_2 1_555 1_555
H7_2 C21_2 1_555 1_555
C22_2 C4_2 1_555 1_555
C24_2 C4_2 1_555 1_555
C31_2 H9_2 1_555 1_555
C33_2 N6_2 1_555 1_555
C34_2 H10_2 1_555 1_555
C35_2 C33_2 1_555 1_555
H11_2 C35_2 1_555 1_555
C36_2 C16_2 1_555 1_555
H14_2 C36_2 1_555 1_555
C41_2 N4_2 1_555 1_555
H19_2 C41_2 1_555 1_555
C46_2 C34_2 1_555 1_555
H25_2 C48_2 1_555 1_555
C49_2 C46_2 1_555 1_555
H26_2 C49_2 1_555 1_555
C50_2 O9_2 1_555 1_555
H29_2 C53_2 1_555 1_555
C55_2 C16_2 1_555 1_555
H30_2 C55_2 1_555 1_555
O16_2 C2_2 1_555 1_555
C3_2 C5_2 1_555 1_555
C11_2 C21_2 1_555 1_555
C11_2 C22_2 1_555 1_555
C34_2 C36_2 1_555 1_555
C35_2 C40_2 1_555 1_555
C41_2 C53_2 1_555 1_555
C44_2 C48_2 1_555 1_555
C46_2 C50_2 1_555 1_555
C49_2 C55_2 1_555 1_555
Mn6 N3_2 1_555 1_555
N3_2 C29_2 1_555 1_555
O19 C18_2 1_555 1_555
O8_2 Mn6 1_555 1_555
C6_2 C8_2 1_555 1_555
C7_2 C9_2 1_555 1_555
C8_2 O7_2 1_555 1_555
C9_2 C6_2 1_555 1_555
H3_2 C9_2 1_555 1_555
C18_2 C7_2 1_555 1_555
C20_2 C6_2 1_555 1_555
H6_2 C20_2 1_555 1_555
C29_2 H8_2 1_555 1_555
H21_2 C43_2 1_555 1_555
H23_2 C45_2 1_555 1_555
C51_2 C32_2 1_555 1_555
H27_2 C51_2 1_555 1_555
H28_2 C52_2 1_555 1_555
H32_2 C57_2 1_555 1_555
O8_2 C8_2 1_555 1_555
C39_2 C57_2 1_555 1_555
C43_2 C52_2 1_555 1_555
C45_2 C51_2 1_555 1_555
O21 C14_2 1_555 1_555
O22 C14_2 1_555 1_555
C10_2 C12_2 1_555 1_555
C13_2 C12_2 1_555 1_555
C14_2 C13_2 1_555 1_555
C37_2 C10_2 1_555 1_555
H15_2 C37_2 1_555 1_555
C58_2 C65_2 1_555 1_555
C64_2 C10_2 1_555 1_555
H36_2 C64_2 1_555 1_555
C65_2 C37_2 1_555 1_555
C72_2 C58_2 1_555 1_555
H44_2 C72_2 1_555 1_555
C64_2 C72_2 1_555 1_555
C25_2 C27_2 1_555 1_555
N13 C17_2 1_555 1_555
N2_2 C17_2 1_555 1_555
O1_2 C54_2 1_555 1_555
C17_2 H4_2 1_555 1_555
C26_2 N2_2 1_555 1_555
C42_2 N2_2 1_555 1_555
H20_2 C42_2 1_555 1_555
C56_2 N13 1_555 1_555
H31_2 C56_2 1_555 1_555
C69_2 C26_2 1_555 1_555
C77_2 C26_2 1_555 1_555
H48_2 C77_2 1_555 1_555
H51_2 C81_2 1_555 1_555
C42_2 C56_2 1_555 1_555
C77_2 C81_2 1_555 1_555
H24 C47 1_555 1_555
C68 H40 1_555 1_555
C68_2 H40_2 1_555 1_555
H24_2 C47_2 1_555 1_555

#END
