
###############################################################################
#
# This file contains modified crystal structure data generated from the
# MOF subset of the Cambridge Structural Database (CSD) v543 
# hosted by the Cambridge Crystallographic Data Centre (CCDC).
#
# This work is licensed under the Creative Commons
# Attribution-NonCommercial-ShareAlike 4.0 International License.
# To view a copy of this license, visit
# http://creativecommons.org/licenses/by-nc-sa/4.0/
# or send a letter to
# Creative Commons, PO Box 1866, Mountain View, CA 94042, USA.
#
# CIF created using the CSD Python API on 29 September 2022
# The structure has been converted into the P1 space group
# The structure has a 3D framework
# The original CSD entry UTACID is in the cubic crystal system
# The original CSD entry UTACID is in a Sohncke space group
# The framework has been calculated to contain at least 10.0% void space
# The void calculation uses a probe of radius 1.32A, grid spacing 0.4
# H atom positions have been added when not included in the experimental data
# Generated hydrogen atom positions removed from atoms on special positions
#
###############################################################################

data_UTACID
_chemical_formula_moiety         '(C336 H684 Ba12 Cu48 N48 O232)n'
_symmetry_cell_setting           triclinic
_symmetry_space_group_name_H-M   'P 1'
_symmetry_Int_Tables_number      1
_space_group_name_Hall           'P 1'
loop_
_symmetry_equiv_pos_site_id
_symmetry_equiv_pos_as_xyz
1 x,y,z
_cell_length_a                   26.1224(5)
_cell_length_b                   26.1224(5)
_cell_length_c                   26.1224(5)
_cell_angle_alpha                90
_cell_angle_beta                 90
_cell_angle_gamma                90
_cell_volume                     17825.4
loop_
_atom_site_label
_atom_site_type_symbol
_atom_site_fract_x
_atom_site_fract_y
_atom_site_fract_z
C27 C 0.0833 0.2762 0.0314
H35 H 0.1064 0.3040 0.0411
H36 H 0.0993 0.2432 0.0395
H37 H 0.0510 0.2794 0.0503
Cu1 Cu 0.02231(6) 0.38180(7) 0.68716(6)
Cu3 Cu 0.04826(7) 0.32868(8) 0.78628(7)
Ba2 Ba 0.15547(3) 0.34453(3) 0.65547(3)
O2 O 0.0795(4) 0.3660(4) 0.7313(4)
N3 N 0.0053(5) 0.2975(6) 0.8359(5)
O4 O 0.2196(7) 0.2804(7) 0.7196(7)
O6 O 0.1026(5) 0.2562(5) 0.6927(6)
O13 O 0.0703(4) 0.3704(5) 0.8453(5)
O14 O 0.0489(8) 0.3922(7) 0.9234(6)
O15 O 0.0367(4) 0.3306(4) 0.5426(4)
O17 O 0.0099(3) 0.2839(4) 0.7357(4)
O18 O 0.0531(3) 0.3512(3) 0.6241(3)
H24 H 0.0070 0.1790 0.6804
H26 H 0.0254 0.1152 0.6137
C20 C 0.0115(6) 0.2120(6) 0.6087(6)
H29 H 0.0477 0.2032 0.6045
H30 H 0.0085 0.2474 0.6207
C21 C 0.0239(6) 0.3493(5) 0.5854(6)
C23 C 0.0404(8) 0.3673(9) 0.8867(7)
C24 C 0.0086(7) 0.3177(8) 0.8877(7)
C25 C 0.0345 0.2744 0.9216
H32 H 0.0540 0.2532 0.8969
H33 H 0.0057 0.2527 0.9332
C26 C 0.0721 0.2791 0.9717
H34 H 0.0689 0.3172 0.9725
C28 C 0.1260 0.2817 0.9404
H38 H 0.1249 0.3100 0.9159
H39 H 0.1313 0.2494 0.9219
H40 H 0.1542 0.2871 0.9645
O20 O 0.1257(7) 0.2701(7) 0.7990(7)
Cu5 Cu 0.18716(6) 0.47769(6) 0.61820(7)
Cu6 Cu 0.21477(6) 0.67410(6) 0.63571(6)
Cu7 Cu 0.28628(7) 0.45174(7) 0.67132(8)
O21 O 0.1796(3) 0.7317(3) 0.6670(3)
O22 O 0.2313(4) 0.4205(4) 0.6340(4)
N5 N 0.1470(4) 0.5384(4) 0.6210(5)
N6 N 0.2534(4) 0.6148(5) 0.6151(4)
N7 N 0.3359(5) 0.4947(5) 0.7025(6)
N8 N 0.2400(4) 0.5671(4) 0.7608(4)
O23 O 0.2058(5) 0.7129(6) 0.5533(4)
O24 O 0.1927(6) 0.3974(5) 0.7438(5)
O25 O 0.2453(4) 0.5275(4) 0.6063(4)
O26 O 0.1552(4) 0.6266(3) 0.6281(3)
O27 O 0.2853(4) 0.7006(4) 0.6510(4)
O28 O 0.1362(3) 0.6528(3) 0.7405(3)
O29 O 0.3668(4) 0.6772(4) 0.6555(4)
O30 O 0.2220(3) 0.6613(3) 0.7397(3)
O31 O 0.3453(5) 0.4297(4) 0.6296(5)
O32 O 0.4234(6) 0.4511(8) 0.6078(7)
O33 O 0.0426(4) 0.4633(4) 0.6694(4)
O34 O 0.3402(4) 0.5720(4) 0.7458(4)
O35 O 0.2357(4) 0.4901(3) 0.7161(4)
O36 O 0.1241(3) 0.4469(3) 0.6488(3)
C29 C 0.2289(5) 0.5732(5) 0.6134(5)
C30 C 0.1710(5) 0.5807(5) 0.6219(5)
C31 C 0.0911(5) 0.5321(6) 0.6329(6)
H41 H 0.0805 0.5561 0.6608
C32 C 0.0591(10) 0.5408(11) 0.5850(13)
H42 H 0.0230 0.5336 0.5941
H43 H 0.0694 0.5145 0.5597
C33 C 0.0359 0.6318 0.5961
H44 H 0.0625 0.6451 0.6189
H45 H 0.0095 0.6146 0.6164
H46 H 0.0205 0.6602 0.5770
C34 C 0.0312 0.5915 0.5033
H47 H 0.0479 0.5665 0.4808
H48 H 0.0328 0.6255 0.4875
C35 C 0.0602 0.5927 0.5577
H50 H 0.0967 0.6026 0.5518
C36 C 0.3083(5) 0.6198(6) 0.6125(6)
H51 H 0.3256 0.5890 0.6274
C37 C 0.3280(7) 0.6304(7) 0.5565(6)
H52 H 0.3107 0.6615 0.5432
H53 H 0.3652 0.6376 0.5578
C38 C 0.3185(7) 0.5855(8) 0.5187(6)
H54 H 0.2816 0.5756 0.5220
C39 C 0.3265(9) 0.6031(9) 0.4644(7)
H55 H 0.3115 0.5782 0.4408
H56 H 0.3633 0.6062 0.4576
H57 H 0.3101 0.6365 0.4595
C40 C 0.3485(9) 0.5410(7) 0.5306(10)
H58 H 0.3800 0.5414 0.5103
H59 H 0.3287 0.5101 0.5225
H60 H 0.3571 0.5410 0.5671
C41 C 0.3227(6) 0.6691(6) 0.6428(6)
C42 C 0.1808(5) 0.6351(5) 0.7451(4)
C43 C 0.2601(5) 0.5279(5) 0.7368(5)
C44 C 0.1855(4) 0.5781(4) 0.7604(5)
H61 H 0.1687 0.5566 0.7336
C45 C 0.1595(6) 0.5680(5) 0.8116(5)
H62 H 0.1816 0.5818 0.8391
H63 H 0.1269 0.5874 0.8125
C46 C 0.1478(5) 0.5129(5) 0.8239(5)
H64 H 0.1804 0.4930 0.8210
C47 C 0.1288(7) 0.5085(6) 0.8794(5)
H65 H 0.1577 0.5131 0.9029
H66 H 0.1137 0.4746 0.8848
H67 H 0.1030 0.5349 0.8860
C48 C 0.1087(6) 0.4885(6) 0.7880(6)
H68 H 0.0757 0.5061 0.7916
H69 H 0.1045 0.4523 0.7968
H70 H 0.1207 0.4915 0.7526
C49 C 0.0854(6) 0.4761(6) 0.6507(5)
C50 C 0.3175(6) 0.5332(6) 0.7291(6)
C51 C 0.3867(7) 0.4596(8) 0.6327(9)
C52 C 0.3877(7) 0.4914(7) 0.6823(8)
H71 H 0.4009 0.5265 0.6748
C53 C 0.4216 0.4655 0.7256
H72 H 0.3969 0.4460 0.7468
H73 H 0.4332 0.4943 0.7473
C54 C 0.4717 0.4279 0.7209
H74 H 0.4725 0.4311 0.6828
C55 C 0.5314 0.4167 0.7238
H75 H 0.5411 0.3936 0.6960
H76 H 0.5395 0.4007 0.7568
H77 H 0.5503 0.4490 0.7206
C56 C 0.4404 0.3740 0.7183
H78 H 0.4159 0.3751 0.6900
H79 H 0.4219 0.3687 0.7506
H80 H 0.4645 0.3458 0.7129
O37 O 0.2990(7) 0.3743(7) 0.7299(7)
Cu8 Cu 0.12194(6) 0.72515(6) 0.71215(6)
Cu9 Cu 0.11820(7) 0.31284(6) 0.52231(6)
Cu10 Cu 0.13571(6) 0.28523(6) 0.32590(6)
Cu11 Cu 0.17132(8) 0.21372(7) 0.54826(7)
O38 O 0.1670(3) 0.3204(3) 0.2683(3)
O39 O 0.1340(4) 0.2687(4) 0.5795(4)
N9 N 0.1210(5) 0.3530(4) 0.4616(4)
N10 N 0.1151(4) 0.2466(4) 0.3852(5)
N11 N 0.2025(6) 0.1641(5) 0.5053(5)
N12 N 0.2608(4) 0.2600(4) 0.4329(4)
O40 O 0.0533(4) 0.2942(5) 0.2871(6)
O41 O 0.2438(5) 0.3073(6) 0.6026(5)
O42 O 0.1063(4) 0.2547(4) 0.4725(4)
O43 O 0.1281(3) 0.3448(4) 0.3734(3)
O44 O 0.1510(4) 0.2147(4) 0.2994(4)
O45 O 0.2405(3) 0.3638(3) 0.3472(3)
O46 O 0.1555(4) 0.1332(4) 0.3228(4)
O47 O 0.2397(3) 0.2780(3) 0.3387(3)
O48 O 0.1296(5) 0.1547(5) 0.5703(4)
O49 O 0.1078(7) 0.0766(6) 0.5489(8)
O50 O 0.1694(4) 0.4574(4) 0.5367(4)
O51 O 0.2458(4) 0.1598(4) 0.4280(4)
O52 O 0.2161(4) 0.2643(4) 0.5099(3)
O53 O 0.1488(3) 0.3759(3) 0.5531(3)
C57 C 0.1134(5) 0.2711(5) 0.4268(5)
C58 C 0.1219(5) 0.3290(5) 0.4193(5)
C59 C 0.1329(6) 0.4089(5) 0.4679(6)
H81 H 0.1608 0.4195 0.4439
C60 C 0.0850(13) 0.4409(10) 0.4592(11)
H82 H 0.0941 0.4770 0.4664
H83 H 0.0597 0.4306 0.4855
C61 C 0.0961 0.4641 0.3682
H84 H 0.1189 0.4375 0.3549
H85 H 0.1164 0.4905 0.3854
H86 H 0.0770 0.4795 0.3398
C62 C 0.0033 0.4688 0.4085
H89 H 0.0085 0.5047 0.4183
C63 C 0.0577 0.4398 0.4073
H90 H 0.0518 0.4033 0.3974
C64 C 0.1125(6) 0.1917(5) 0.3802(6)
H91 H 0.1274 0.1744 0.4110
C65 C 0.0565(6) 0.1720(7) 0.3696(7)
H92 H 0.0432 0.1893 0.3385
H93 H 0.0578 0.1348 0.3624
C66 C 0.0187(6) 0.1815(7) 0.4145(8)
H94 H 0.0220 0.2184 0.4244
C68 C 0.0306(10) 0.1515(9) 0.4590(7)
H98 H 0.0103 0.1200 0.4586
H99 H 0.0225 0.1713 0.4899
H100 H 0.0671 0.1429 0.4590
C69 C 0.1428(6) 0.1773(6) 0.3309(6)
C70 C 0.2451(4) 0.3192(5) 0.3649(5)
C71 C 0.2368(5) 0.2399(5) 0.4721(5)
C72 C 0.2604(5) 0.3145(4) 0.4219(4)
H101 H 0.2336 0.3313 0.4434
C73 C 0.3116(5) 0.3405(6) 0.4320(5)
H102 H 0.3391 0.3184 0.4182
H103 H 0.3125 0.3731 0.4126
C74 C 0.3239(5) 0.3522(5) 0.4871(5)
H104 H 0.3210 0.3196 0.5070
C75 C 0.3794(5) 0.3712(7) 0.4915(6)
H105 H 0.4029 0.3423 0.4869
H106 H 0.3848 0.3863 0.5254
H107 H 0.3860 0.3970 0.4651
C76 C 0.2880(6) 0.3913(6) 0.5115(6)
H108 H 0.2916 0.4243 0.4939
H109 H 0.2968 0.3955 0.5477
H110 H 0.2526 0.3793 0.5085
C77 C 0.1507(5) 0.4146(6) 0.5239(6)
C78 C 0.2291(6) 0.1825(6) 0.4668(6)
C79 C 0.1327(9) 0.1133(7) 0.5404(8)
C80 C 0.1823(8) 0.1123(7) 0.5086(7)
H111 H 0.1748 0.0991 0.4735
C81 C 0.2256 0.0784 0.5345
H112 H 0.2468 0.1031 0.5540
H113 H 0.2473 0.0668 0.5057
C82 C 0.2209 0.0283 0.5721
H114 H 0.1828 0.0275 0.5689
C84 C 0.2183 0.0596 0.6260
H118 H 0.1900 0.0841 0.6249
H119 H 0.2506 0.0781 0.6313
H120 H 0.2129 0.0355 0.6542
O54 O 0.2299(7) 0.2010(7) 0.6257(7)
Cu12 Cu 0.21215(6) 0.37806(6) 0.27485(6)
Ba4 Ba 0.26081(3) 0.76081(3) 0.73919(3)
Ba5 Ba 0.23919(3) 0.23919(3) 0.23919(3)
N13 N 0.0671(4) 0.7392(4) 0.7600(4)
N14 N 0.2600(4) 0.4329(4) 0.2608(4)
O63 O 0.1613(3) 0.7603(3) 0.7780(3)
O65 O 0.2780(3) 0.3387(3) 0.2397(3)
O67 O 0.0720(4) 0.7542(4) 0.6598(4)
O68 O 0.1598(4) 0.4280(4) 0.2458(4)
Cu13 Cu 0.27485(6) 0.21215(6) 0.37806(6)
Cu15 Cu 0.28785(6) 0.62194(6) 0.77485(6)
H129 H 0.156159 0.291086 0.807768
H130 H 0.118598 0.245659 0.827235
H133 H 0.223252 0.74667 0.553227
H134 H 0.221517 0.690458 0.52695
H135 H 0.307768 0.343841 0.708914
H136 H 0.327235 0.381402 0.754341
H137 H 0.0532271 0.276748 0.25333
H138 H 0.02695 0.278483 0.309542
H143 H 0.208914 0.192232 0.656159
H144 H 0.254341 0.172765 0.618598
Cu2 Cu 0.82590(6) 0.36429(6) 0.71477(6)
Ba1 Ba 0.73919(3) 0.26081(3) 0.76081(3)
Ba3 Ba 0.63706(7) 0.36294(7) 0.86294(7)
O1 O 0.7683(3) 0.3330(3) 0.6796(3)
N1 N 0.9616(4) 0.3790(5) 0.6470(4)
N2 N 0.8852(5) 0.3849(4) 0.7534(4)
N4 N 0.9329(4) 0.2392(4) 0.7400(4)
O3 O 0.6334(6) 0.2740(6) 0.8064(6)
O5 O 0.7871(6) 0.4467(4) 0.7058(5)
O7 O 0.9725(4) 0.3937(4) 0.7453(4)
O8 O 0.8734(3) 0.3719(3) 0.6552(4)
O9 O 0.7994(4) 0.3490(4) 0.7853(4)
O10 O 0.8472(3) 0.2595(3) 0.6362(3)
O11 O 0.8228(4) 0.3445(4) 0.8668(4)
O12 O 0.8387(3) 0.2603(3) 0.7220(3)
O16 O 0.9280(4) 0.2542(4) 0.8402(4)
C1 C 0.9268(5) 0.3866(5) 0.7289(5)
C2 C 0.9193(5) 0.3781(5) 0.6710(5)
C3 C 0.9679(6) 0.3671(6) 0.5911(5)
H1 H 0.9439 0.3392 0.5805
C4 C 0.9592(11) 0.4150(13) 0.5591(10)
H2 H 0.9664 0.4059 0.5230
H3 H 0.9855 0.4403 0.5694
C5 C 0.8682 0.4039 0.5359
H4 H 0.8549 0.3811 0.5625
H5 H 0.8854 0.3836 0.5095
H6 H 0.8398 0.4230 0.5205
C6 C 0.9085 0.4967 0.5312
H7 H 0.9335 0.5192 0.5479
H8 H 0.8745 0.5125 0.5328
H9 H 0.9183 0.4915 0.4953
C7 C 0.9073 0.4423 0.5602
H10 H 0.8974 0.4482 0.5967
C8 C 0.8802(6) 0.3875(6) 0.8083(5)
H11 H 0.9110 0.3726 0.8256
C9 C 0.8696(7) 0.4435(6) 0.8280(7)
H12 H 0.8385 0.4568 0.8107
H13 H 0.8624 0.4422 0.8652
C10 C 0.9145(8) 0.4813(6) 0.8185(7)
H14 H 0.9244 0.4780 0.7816
C11 C 0.8969(9) 0.5356(7) 0.8265(9)
H15 H 0.9218 0.5592 0.8115
H16 H 0.8938 0.5424 0.8633
H17 H 0.8635 0.5405 0.8101
C12 C 0.9590(7) 0.4694(10) 0.8485(9)
H18 H 0.9586 0.4897 0.8800
H19 H 0.9899 0.4775 0.8287
H20 H 0.9590 0.4329 0.8571
C13 C 0.8309(6) 0.3572(6) 0.8227(6)
C14 C 0.8649(5) 0.2549(4) 0.6808(5)
C15 C 0.9721(5) 0.2632(5) 0.7601(5)
C16 C 0.9219(4) 0.2396(5) 0.6855(4)
H21 H 0.9434 0.2664 0.6687
C17 C 0.9320(5) 0.1884(5) 0.6595(6)
H22 H 0.9182 0.1609 0.6816
H23 H 0.9126 0.1875 0.6269
C18 C 0.9871(5) 0.1761(5) 0.6478(5)
C19 C 0.9915(6) 0.1206(5) 0.6288(7)
H25 H 0.9869 0.0971 0.6577
H27 H 0.9651 0.1140 0.6030
H28 H 0.9939 0.2084 0.5757
C22 C 0.9668(6) 0.2709(6) 0.8175(6)
H31 H 0.9735 0.3252 0.9009
O19 O 0.679(2) 0.388(2) 0.957(2)
Cu4 Cu 0.77485(6) 0.28785(6) 0.62194(6)
H49 H 0.9953 0.5817 0.5085
H87 H 0.9808 0.4521 0.4335
H88 H 0.9875 0.4672 0.3745
C67 C 0.9644(7) 0.1735(9) 0.3969(9)
H95 H 0.9408 0.1885 0.4218
H96 H 0.9576 0.1367 0.3938
H97 H 0.9595 0.1899 0.3635
O55 O 0.6936(6) 0.3666(6) 0.7740(6)
O56 O 0.543(2) 0.321(2) 0.888(2)
O57 O 0.7260(6) 0.3064(6) 0.8666(6)
O58 O 0.612(2) 0.457(2) 0.821(2)
O59 O 0.8204(3) 0.2317(3) 0.8330(3)
O60 O 0.6670(3) 0.1796(3) 0.7317(3)
N15 N 0.7608(4) 0.2400(4) 0.5671(4)
O61 O 0.7147(4) 0.2006(4) 0.8490(4)
O62 O 0.6510(4) 0.2853(4) 0.7006(4)
O64 O 0.7780(3) 0.1613(3) 0.7603(3)
O66 O 0.7397(3) 0.2220(3) 0.6613(3)
O69 O 0.7458(4) 0.3402(4) 0.5720(4)
Cu14 Cu 0.87806(6) 0.22515(6) 0.78785(6)
H125 H 0.75333 0.446773 0.723252
H126 H 0.809542 0.47305 0.721517
Cu1_2 Cu 0.47769(6) 0.61820(7) 0.18716(6)
Cu2_2 Cu 0.67410(6) 0.63571(6) 0.21477(6)
Cu3_2 Cu 0.45174(7) 0.67132(8) 0.28628(7)
Ba1_2 Ba 0.76081(3) 0.73919(3) 0.26081(3)
Ba2_2 Ba 0.34453(3) 0.65547(3) 0.15547(3)
Ba3_2 Ba 0.86294(7) 0.63706(7) 0.36294(7)
O1_2 O 0.7317(3) 0.6670(3) 0.1796(3)
O2_2 O 0.4205(4) 0.6340(4) 0.2313(4)
N1_2 N 0.5384(4) 0.6210(5) 0.1470(4)
N2_2 N 0.6148(5) 0.6151(4) 0.2534(4)
N3_2 N 0.4947(5) 0.7025(6) 0.3359(5)
N4_2 N 0.5671(4) 0.7608(4) 0.2400(4)
O3_2 O 0.8666(6) 0.7260(6) 0.3064(6)
O4_2 O 0.2804(7) 0.7196(7) 0.2196(7)
O5_2 O 0.7129(6) 0.5533(4) 0.2058(5)
O6_2 O 0.3974(5) 0.7438(5) 0.1927(6)
O7_2 O 0.5275(4) 0.6063(4) 0.2453(4)
O8_2 O 0.6266(3) 0.6281(3) 0.1552(4)
O9_2 O 0.7006(4) 0.6510(4) 0.2853(4)
O10_2 O 0.6528(3) 0.7405(3) 0.1362(3)
O11_2 O 0.6772(4) 0.6555(4) 0.3668(4)
O12_2 O 0.6613(3) 0.7397(3) 0.2220(3)
O13_2 O 0.4297(4) 0.6296(5) 0.3453(5)
O14_2 O 0.4511(8) 0.6078(7) 0.4234(6)
O15_2 O 0.4633(4) 0.6694(4) 0.0426(4)
O16_2 O 0.5720(4) 0.7458(4) 0.3402(4)
O17_2 O 0.4901(3) 0.7161(4) 0.2357(4)
O18_2 O 0.4469(3) 0.6488(3) 0.1241(3)
C1_2 C 0.5732(5) 0.6134(5) 0.2289(5)
C2_2 C 0.5807(5) 0.6219(5) 0.1710(5)
C3_2 C 0.5321(6) 0.6329(6) 0.0911(5)
H1_2 H 0.5561 0.6608 0.0805
C4_2 C 0.5408(11) 0.5850(13) 0.0591(10)
H2_2 H 0.5336 0.5941 0.0230
H3_2 H 0.5145 0.5597 0.0694
C5_2 C 0.6318 0.5961 0.0359
H4_2 H 0.6451 0.6189 0.0625
H5_2 H 0.6146 0.6164 0.0095
H6_2 H 0.6602 0.5770 0.0205
C6_2 C 0.5915 0.5033 0.0312
H7_2 H 0.5665 0.4808 0.0479
H8_2 H 0.6255 0.4875 0.0328
C7_2 C 0.5927 0.5577 0.0602
H10_2 H 0.6026 0.5518 0.0967
C8_2 C 0.6198(6) 0.6125(6) 0.3083(5)
H11_2 H 0.5890 0.6274 0.3256
C9_2 C 0.6304(7) 0.5565(6) 0.3280(7)
H12_2 H 0.6615 0.5432 0.3107
H13_2 H 0.6376 0.5578 0.3652
C10_2 C 0.5855(8) 0.5187(6) 0.3185(7)
H14_2 H 0.5756 0.5220 0.2816
C11_2 C 0.6031(9) 0.4644(7) 0.3265(9)
H15_2 H 0.5782 0.4408 0.3115
H16_2 H 0.6062 0.4576 0.3633
H17_2 H 0.6365 0.4595 0.3101
C12_2 C 0.5410(7) 0.5306(10) 0.3485(9)
H18_2 H 0.5414 0.5103 0.3800
H19_2 H 0.5101 0.5225 0.3287
H20_2 H 0.5410 0.5671 0.3571
C13_2 C 0.6691(6) 0.6428(6) 0.3227(6)
C14_2 C 0.6351(5) 0.7451(4) 0.1808(5)
C15_2 C 0.5279(5) 0.7368(5) 0.2601(5)
C16_2 C 0.5781(4) 0.7604(5) 0.1855(4)
H21_2 H 0.5566 0.7336 0.1687
C17_2 C 0.5680(5) 0.8116(5) 0.1595(6)
H22_2 H 0.5818 0.8391 0.1816
H23_2 H 0.5874 0.8125 0.1269
C18_2 C 0.5129(5) 0.8239(5) 0.1478(5)
H24_2 H 0.4930 0.8210 0.1804
C19_2 C 0.5085(6) 0.8794(5) 0.1288(7)
H25_2 H 0.5131 0.9029 0.1577
H26_2 H 0.4746 0.8848 0.1137
H27_2 H 0.5349 0.8860 0.1030
C20_2 C 0.4885(6) 0.7880(6) 0.1087(6)
H28_2 H 0.5061 0.7916 0.0757
H29_2 H 0.4523 0.7968 0.1045
H30_2 H 0.4915 0.7526 0.1207
C21_2 C 0.4761(6) 0.6507(5) 0.0854(6)
C22_2 C 0.5332(6) 0.7291(6) 0.3175(6)
C23_2 C 0.4596(8) 0.6327(9) 0.3867(7)
C24_2 C 0.4914(7) 0.6823(8) 0.3877(7)
H31_2 H 0.5265 0.6748 0.4009
C25_2 C 0.4655 0.7256 0.4216
H32_2 H 0.4460 0.7468 0.3969
H33_2 H 0.4943 0.7473 0.4332
C26_2 C 0.4279 0.7209 0.4717
H34_2 H 0.4311 0.6828 0.4725
C27_2 C 0.4167 0.7238 0.5314
H35_2 H 0.3936 0.6960 0.5411
H36_2 H 0.4007 0.7568 0.5395
H37_2 H 0.4490 0.7206 0.5503
C28_2 C 0.3740 0.7183 0.4404
H38_2 H 0.3751 0.6900 0.4159
H39_2 H 0.3687 0.7506 0.4219
H40_2 H 0.3458 0.7129 0.4645
O19_2 O 0.821(2) 0.612(2) 0.457(2)
O20_2 O 0.3743(7) 0.7299(7) 0.2990(7)
Cu4_2 Cu 0.72515(6) 0.71215(6) 0.12194(6)
Cu5_2 Cu 0.31284(6) 0.52231(6) 0.11820(7)
Cu6_2 Cu 0.28523(6) 0.32590(6) 0.13571(6)
Cu7_2 Cu 0.21372(7) 0.54826(7) 0.17132(8)
O21_2 O 0.3204(3) 0.2683(3) 0.1670(3)
O22_2 O 0.2687(4) 0.5795(4) 0.1340(4)
N5_2 N 0.3530(4) 0.4616(4) 0.1210(5)
N6_2 N 0.2466(4) 0.3852(5) 0.1151(4)
N7_2 N 0.1641(5) 0.5053(5) 0.2025(6)
O23_2 O 0.2942(5) 0.2871(6) 0.0533(4)
O24_2 O 0.3073(6) 0.6026(5) 0.2438(5)
O25_2 O 0.2547(4) 0.4725(4) 0.1063(4)
O26_2 O 0.3448(4) 0.3734(3) 0.1281(3)
O27_2 O 0.2147(4) 0.2994(4) 0.1510(4)
O28_2 O 0.3638(3) 0.3472(3) 0.2405(3)
O29_2 O 0.1332(4) 0.3228(4) 0.1555(4)
O31_2 O 0.1547(5) 0.5703(4) 0.1296(5)
O32_2 O 0.0766(6) 0.5489(8) 0.1078(7)
O33_2 O 0.4574(4) 0.5367(4) 0.1694(4)
O35_2 O 0.2643(4) 0.5099(3) 0.2161(4)
O36_2 O 0.3759(3) 0.5531(3) 0.1488(3)
C29_2 C 0.2711(5) 0.4268(5) 0.1134(5)
C30_2 C 0.3290(5) 0.4193(5) 0.1219(5)
C31_2 C 0.4089(5) 0.4679(6) 0.1329(6)
H41_2 H 0.4195 0.4439 0.1608
C32_2 C 0.4409(10) 0.4592(11) 0.0850(13)
H42_2 H 0.4770 0.4664 0.0941
H43_2 H 0.4306 0.4855 0.0597
C33_2 C 0.4641 0.3682 0.0961
H44_2 H 0.4375 0.3549 0.1189
H45_2 H 0.4905 0.3854 0.1164
H46_2 H 0.4795 0.3398 0.0770
C34_2 C 0.4688 0.4085 0.0033
H49_2 H 0.5047 0.4183 0.0085
C35_2 C 0.4398 0.4073 0.0577
H50_2 H 0.4033 0.3974 0.0518
C36_2 C 0.1917(5) 0.3802(6) 0.1125(6)
H51_2 H 0.1744 0.4110 0.1274
C37_2 C 0.1720(7) 0.3696(7) 0.0565(6)
H52_2 H 0.1893 0.3385 0.0432
H53_2 H 0.1348 0.3624 0.0578
C38_2 C 0.1815(7) 0.4145(8) 0.0187(6)
H54_2 H 0.2184 0.4244 0.0220
C40_2 C 0.1515(9) 0.4590(7) 0.0306(10)
H58_2 H 0.1200 0.4586 0.0103
H59_2 H 0.1713 0.4899 0.0225
H60_2 H 0.1429 0.4590 0.0671
C41_2 C 0.1773(6) 0.3309(6) 0.1428(6)
C42_2 C 0.3192(5) 0.3649(5) 0.2451(4)
C43_2 C 0.2399(5) 0.4721(5) 0.2368(5)
C44_2 C 0.3145(4) 0.4219(4) 0.2604(5)
H61_2 H 0.3313 0.4434 0.2336
C45_2 C 0.3405(6) 0.4320(5) 0.3116(5)
H62_2 H 0.3184 0.4182 0.3391
H63_2 H 0.3731 0.4126 0.3125
C46_2 C 0.3522(5) 0.4871(5) 0.3239(5)
H64_2 H 0.3196 0.5070 0.3210
C47_2 C 0.3712(7) 0.4915(6) 0.3794(5)
H65_2 H 0.3423 0.4869 0.4029
H66_2 H 0.3863 0.5254 0.3848
H67_2 H 0.3970 0.4651 0.3860
C48_2 C 0.3913(6) 0.5115(6) 0.2880(6)
H68_2 H 0.4243 0.4939 0.2916
H69_2 H 0.3955 0.5477 0.2968
H70_2 H 0.3793 0.5085 0.2526
C49_2 C 0.4146(6) 0.5239(6) 0.1507(5)
C50_2 C 0.1825(6) 0.4668(6) 0.2291(6)
C51_2 C 0.1133(7) 0.5404(8) 0.1327(9)
C52_2 C 0.1123(7) 0.5086(7) 0.1823(8)
H71_2 H 0.0991 0.4735 0.1748
C53_2 C 0.0784 0.5345 0.2256
H72_2 H 0.1031 0.5540 0.2468
H73_2 H 0.0668 0.5057 0.2473
C54_2 C 0.0283 0.5721 0.2209
H74_2 H 0.0275 0.5689 0.1828
C56_2 C 0.0596 0.6260 0.2183
H78_2 H 0.0841 0.6249 0.1900
H79_2 H 0.0781 0.6313 0.2506
H80_2 H 0.0355 0.6542 0.2129
O37_2 O 0.2010(7) 0.6257(7) 0.2299(7)
Cu8_2 Cu 0.37806(6) 0.27485(6) 0.21215(6)
Cu9_2 Cu 0.38180(7) 0.68716(6) 0.02231(6)
Cu11_2 Cu 0.32868(8) 0.78628(7) 0.04826(7)
O39_2 O 0.3660(4) 0.7313(4) 0.0795(4)
N11_2 N 0.2975(6) 0.8359(5) 0.0053(5)
O41_2 O 0.2562(5) 0.6927(6) 0.1026(5)
O48_2 O 0.3704(5) 0.8453(5) 0.0703(4)
O49_2 O 0.3922(7) 0.9234(6) 0.0489(8)
O50_2 O 0.3306(4) 0.5426(4) 0.0367(4)
O52_2 O 0.2839(4) 0.7357(4) 0.0099(3)
O53_2 O 0.3512(3) 0.6241(3) 0.0531(3)
H104_2 H 0.1790 0.6804 0.0070
H106_2 H 0.1152 0.6137 0.0254
C76_2 C 0.2120(6) 0.6087(6) 0.0115(6)
H109_2 H 0.2032 0.6045 0.0477
H110_2 H 0.2474 0.6207 0.0085
C77_2 C 0.3493(5) 0.5854(6) 0.0239(6)
C79_2 C 0.3673(9) 0.8867(7) 0.0404(8)
C80_2 C 0.3177(8) 0.8877(7) 0.0086(7)
C81_2 C 0.2744 0.9216 0.0345
H112_2 H 0.2532 0.8969 0.0540
H113_2 H 0.2527 0.9332 0.0057
C82_2 C 0.2791 0.9717 0.0721
H114_2 H 0.3172 0.9725 0.0689
C84_2 C 0.2817 0.9404 0.1260
H118_2 H 0.3100 0.9159 0.1249
H119_2 H 0.2494 0.9219 0.1313
H120_2 H 0.2871 0.9645 0.1542
O54_2 O 0.2701(7) 0.7990(7) 0.1257(7)
O55_2 O 0.8064(6) 0.6334(6) 0.2740(6)
O56_2 O 0.957(2) 0.679(2) 0.388(2)
O57_2 O 0.7740(6) 0.6936(6) 0.3666(6)
O58_2 O 0.888(2) 0.543(2) 0.321(2)
O59_2 O 0.6796(3) 0.7683(3) 0.3330(3)
O60_2 O 0.8330(3) 0.8204(3) 0.2317(3)
N13_2 N 0.4329(4) 0.2608(4) 0.2600(4)
N15_2 N 0.7392(4) 0.7600(4) 0.0671(4)
O61_2 O 0.7853(4) 0.7994(4) 0.3490(4)
O62_2 O 0.8490(4) 0.7147(4) 0.2006(4)
O63_2 O 0.3387(3) 0.2397(3) 0.2780(3)
O64_2 O 0.7220(3) 0.8387(3) 0.2603(3)
O66_2 O 0.7603(3) 0.7780(3) 0.1613(3)
O67_2 O 0.4280(4) 0.2458(4) 0.1598(4)
O69_2 O 0.7542(4) 0.6598(4) 0.0720(4)
Cu14_2 Cu 0.62194(6) 0.77485(6) 0.28785(6)
H125_2 H 0.74667 0.553227 0.223252
H126_2 H 0.690458 0.52695 0.221517
H129_2 H 0.343841 0.708914 0.307768
H130_2 H 0.381402 0.754341 0.327235
H133_2 H 0.276748 0.25333 0.0532271
H134_2 H 0.278483 0.309542 0.02695
H135_2 H 0.192232 0.656159 0.208914
H136_2 H 0.172765 0.618598 0.254341
H143_2 H 0.291086 0.807768 0.156159
H144_2 H 0.245659 0.827235 0.118598
H9_2 H 0.5817 0.5085 0.9953
H47_2 H 0.4521 0.4335 0.9808
H48_2 H 0.4672 0.3745 0.9875
C39_2 C 0.1735(9) 0.3969(9) 0.9644(7)
H55_2 H 0.1885 0.4218 0.9408
H56_2 H 0.1367 0.3938 0.9576
H57_2 H 0.1899 0.3635 0.9595
Cu10_2 Cu 0.36429(6) 0.71477(6) 0.82590(6)
O38_2 O 0.3330(3) 0.6796(3) 0.7683(3)
N9_2 N 0.3790(5) 0.6470(4) 0.9616(4)
N10_2 N 0.3849(4) 0.7534(4) 0.8852(5)
N12_2 N 0.2392(4) 0.7400(4) 0.9329(4)
O40_2 O 0.4467(4) 0.7058(5) 0.7871(6)
O42_2 O 0.3937(4) 0.7453(4) 0.9725(4)
O43_2 O 0.3719(3) 0.6552(4) 0.8734(3)
O44_2 O 0.3490(4) 0.7853(4) 0.7994(4)
O45_2 O 0.2595(3) 0.6362(3) 0.8472(3)
O46_2 O 0.3445(4) 0.8668(4) 0.8228(4)
O47_2 O 0.2603(3) 0.7220(3) 0.8387(3)
O51_2 O 0.2542(4) 0.8402(4) 0.9280(4)
C57_2 C 0.3866(5) 0.7289(5) 0.9268(5)
C58_2 C 0.3781(5) 0.6710(5) 0.9193(5)
C59_2 C 0.3671(6) 0.5911(5) 0.9679(6)
H81_2 H 0.3392 0.5805 0.9439
C60_2 C 0.4150(13) 0.5591(10) 0.9592(11)
H82_2 H 0.4059 0.5230 0.9664
H83_2 H 0.4403 0.5694 0.9855
C61_2 C 0.4039 0.5359 0.8682
H84_2 H 0.3811 0.5625 0.8549
H85_2 H 0.3836 0.5095 0.8854
H86_2 H 0.4230 0.5205 0.8398
C62_2 C 0.4967 0.5312 0.9085
H87_2 H 0.5192 0.5479 0.9335
H88_2 H 0.5125 0.5328 0.8745
H89_2 H 0.4915 0.4953 0.9183
C63_2 C 0.4423 0.5602 0.9073
H90_2 H 0.4482 0.5967 0.8974
C64_2 C 0.3875(6) 0.8083(5) 0.8802(6)
H91_2 H 0.3726 0.8256 0.9110
C65_2 C 0.4435(6) 0.8280(7) 0.8696(7)
H92_2 H 0.4568 0.8107 0.8385
H93_2 H 0.4422 0.8652 0.8624
C66_2 C 0.4813(6) 0.8185(7) 0.9145(8)
H94_2 H 0.4780 0.7816 0.9244
C67_2 C 0.5356(7) 0.8265(9) 0.8969(9)
H95_2 H 0.5592 0.8115 0.9218
H96_2 H 0.5424 0.8633 0.8938
H97_2 H 0.5405 0.8101 0.8635
C68_2 C 0.4694(10) 0.8485(9) 0.9590(7)
H98_2 H 0.4897 0.8800 0.9586
H99_2 H 0.4775 0.8287 0.9899
H100_2 H 0.4329 0.8571 0.9590
C69_2 C 0.3572(6) 0.8227(6) 0.8309(6)
C70_2 C 0.2549(4) 0.6808(5) 0.8649(5)
C71_2 C 0.2632(5) 0.7601(5) 0.9721(5)
C72_2 C 0.2396(5) 0.6855(4) 0.9219(4)
H101_2 H 0.2664 0.6687 0.9434
C73_2 C 0.1884(5) 0.6595(6) 0.9320(5)
H102_2 H 0.1609 0.6816 0.9182
H103_2 H 0.1875 0.6269 0.9126
C74_2 C 0.1761(5) 0.6478(5) 0.9871(5)
C75_2 C 0.1206(5) 0.6288(7) 0.9915(6)
H105_2 H 0.0971 0.6577 0.9869
H107_2 H 0.1140 0.6030 0.9651
H108_2 H 0.2084 0.5757 0.9939
C78_2 C 0.2709(6) 0.8175(6) 0.9668(6)
H111_2 H 0.3252 0.9009 0.9735
Cu13_2 Cu 0.22515(6) 0.78785(6) 0.87806(6)
H137_2 H 0.446773 0.723252 0.75333
H138_2 H 0.47305 0.721517 0.809542
Cu2_3 Cu 0.17410(6) 0.86429(6) 0.78523(6)
Ba3_3 Ba 0.36294(7) 0.86294(7) 0.63706(7)
O1_3 O 0.2317(3) 0.8330(3) 0.8204(3)
N1_3 N 0.0384(4) 0.8790(5) 0.8530(4)
N2_3 N 0.1148(5) 0.8849(4) 0.7466(4)
O3_3 O 0.3666(6) 0.7740(6) 0.6936(6)
O5_3 O 0.2129(6) 0.9467(4) 0.7942(5)
O7_3 O 0.0275(4) 0.8937(4) 0.7547(4)
O8_3 O 0.1266(3) 0.8719(3) 0.8448(4)
O9_3 O 0.2006(4) 0.8490(4) 0.7147(4)
O10_3 O 0.1528(3) 0.7595(3) 0.8638(3)
O11_3 O 0.1772(4) 0.8445(4) 0.6332(4)
C1_3 C 0.0732(5) 0.8866(5) 0.7711(5)
C2_3 C 0.0807(5) 0.8781(5) 0.8290(5)
C3_3 C 0.0321(6) 0.8671(6) 0.9089(5)
H1_3 H 0.0561 0.8392 0.9195
C4_3 C 0.0408(11) 0.9150(13) 0.9409(10)
H2_3 H 0.0336 0.9059 0.9770
H3_3 H 0.0145 0.9403 0.9306
C5_3 C 0.1318 0.9039 0.9641
H4_3 H 0.1451 0.8811 0.9375
H5_3 H 0.1146 0.8836 0.9905
H6_3 H 0.1602 0.9230 0.9795
C6_3 C 0.0915 0.9967 0.9688
C7_3 C 0.0927 0.9423 0.9398
H10_3 H 0.1026 0.9482 0.9033
C8_3 C 0.1198(6) 0.8875(6) 0.6917(5)
H11_3 H 0.0890 0.8726 0.6744
C9_3 C 0.1304(7) 0.9435(6) 0.6720(7)
H12_3 H 0.1615 0.9568 0.6893
H13_3 H 0.1376 0.9422 0.6348
C10_3 C 0.0855(8) 0.9813(6) 0.6815(7)
H14_3 H 0.0756 0.9780 0.7184
C12_3 C 0.0410(7) 0.9694(10) 0.6515(9)
H18_3 H 0.0414 0.9897 0.6200
H19_3 H 0.0101 0.9775 0.6713
H20_3 H 0.0410 0.9329 0.6429
C13_3 C 0.1691(6) 0.8572(6) 0.6773(6)
C14_3 C 0.1351(5) 0.7549(4) 0.8192(5)
C15_3 C 0.0279(5) 0.7632(5) 0.7399(5)
C16_3 C 0.0781(4) 0.7396(5) 0.8145(4)
H21_3 H 0.0566 0.7664 0.8313
C17_3 C 0.0680(5) 0.6884(5) 0.8405(6)
H22_3 H 0.0818 0.6609 0.8184
H23_3 H 0.0874 0.6875 0.8731
C18_3 C 0.0129(5) 0.6761(5) 0.8522(5)
C19_3 C 0.0085(6) 0.6206(5) 0.8712(7)
H25_3 H 0.0131 0.5971 0.8423
H27_3 H 0.0349 0.6140 0.8970
H28_3 H 0.0061 0.7084 0.9243
C22_3 C 0.0332(6) 0.7709(6) 0.6825(6)
H31_3 H 0.0265 0.8252 0.5991
O19_3 O 0.321(2) 0.888(2) 0.543(2)
O55_3 O 0.3064(6) 0.8666(6) 0.7260(6)
O56_3 O 0.457(2) 0.821(2) 0.612(2)
O57_3 O 0.2740(6) 0.8064(6) 0.6334(6)
O58_3 O 0.388(2) 0.957(2) 0.679(2)
H125_3 H 0.24667 0.946773 0.776748
H126_3 H 0.190458 0.97305 0.778483
Cu6_3 Cu 0.78523(6) 0.17410(6) 0.86429(6)
N5_3 N 0.8530(4) 0.0384(4) 0.8790(5)
N6_3 N 0.7466(4) 0.1148(5) 0.8849(4)
N8_2 N 0.7600(4) 0.0671(4) 0.7392(4)
O23_3 O 0.7942(5) 0.2129(6) 0.9467(4)
O25_3 O 0.7547(4) 0.0275(4) 0.8937(4)
O26_3 O 0.8448(4) 0.1266(3) 0.8719(3)
O28_3 O 0.8638(3) 0.1528(3) 0.7595(3)
O29_3 O 0.6332(4) 0.1772(4) 0.8445(4)
O34_2 O 0.6598(4) 0.0720(4) 0.7542(4)
C29_3 C 0.7711(5) 0.0732(5) 0.8866(5)
C30_3 C 0.8290(5) 0.0807(5) 0.8781(5)
C31_3 C 0.9089(5) 0.0321(6) 0.8671(6)
H41_3 H 0.9195 0.0561 0.8392
C32_3 C 0.9409(10) 0.0408(11) 0.9150(13)
H42_3 H 0.9770 0.0336 0.9059
H43_3 H 0.9306 0.0145 0.9403
C33_3 C 0.9641 0.1318 0.9039
H44_3 H 0.9375 0.1451 0.8811
H45_3 H 0.9905 0.1146 0.8836
H46_3 H 0.9795 0.1602 0.9230
C34_3 C 0.9688 0.0915 0.9967
C35_3 C 0.9398 0.0927 0.9423
H50_3 H 0.9033 0.1026 0.9482
C36_3 C 0.6917(5) 0.1198(6) 0.8875(6)
H51_3 H 0.6744 0.0890 0.8726
C37_3 C 0.6720(7) 0.1304(7) 0.9435(6)
H52_3 H 0.6893 0.1615 0.9568
H53_3 H 0.6348 0.1376 0.9422
C38_3 C 0.6815(7) 0.0855(8) 0.9813(6)
H54_3 H 0.7184 0.0756 0.9780
C40_3 C 0.6515(9) 0.0410(7) 0.9694(10)
H58_3 H 0.6200 0.0414 0.9897
H59_3 H 0.6713 0.0101 0.9775
H60_3 H 0.6429 0.0410 0.9329
C41_3 C 0.6773(6) 0.1691(6) 0.8572(6)
C42_3 C 0.8192(5) 0.1351(5) 0.7549(4)
C43_3 C 0.7399(5) 0.0279(5) 0.7632(5)
C44_3 C 0.8145(4) 0.0781(4) 0.7396(5)
H61_3 H 0.8313 0.0566 0.7664
C45_3 C 0.8405(6) 0.0680(5) 0.6884(5)
H62_3 H 0.8184 0.0818 0.6609
H63_3 H 0.8731 0.0874 0.6875
C46_3 C 0.8522(5) 0.0129(5) 0.6761(5)
C47_3 C 0.8712(7) 0.0085(6) 0.6206(5)
H65_3 H 0.8423 0.0131 0.5971
H67_3 H 0.8970 0.0349 0.6140
H68_3 H 0.9243 0.0061 0.7084
C50_3 C 0.6825(6) 0.0332(6) 0.7709(6)
H71_3 H 0.5991 0.0265 0.8252
Cu15_2 Cu 0.71215(6) 0.12194(6) 0.72515(6)
H133_3 H 0.776748 0.24667 0.946773
H134_3 H 0.778483 0.190458 0.97305
Cu10_3 Cu 0.86429(6) 0.78523(6) 0.17410(6)
N9_3 N 0.8790(5) 0.8530(4) 0.0384(4)
N10_3 N 0.8849(4) 0.7466(4) 0.1148(5)
O40_3 O 0.9467(4) 0.7942(5) 0.2129(6)
O42_3 O 0.8937(4) 0.7547(4) 0.0275(4)
O43_3 O 0.8719(3) 0.8448(4) 0.1266(3)
O45_3 O 0.7595(3) 0.8638(3) 0.1528(3)
O46_3 O 0.8445(4) 0.6332(4) 0.1772(4)
C57_3 C 0.8866(5) 0.7711(5) 0.0732(5)
C58_3 C 0.8781(5) 0.8290(5) 0.0807(5)
C59_3 C 0.8671(6) 0.9089(5) 0.0321(6)
H81_3 H 0.8392 0.9195 0.0561
C60_3 C 0.9150(13) 0.9409(10) 0.0408(11)
H82_3 H 0.9059 0.9770 0.0336
H83_3 H 0.9403 0.9306 0.0145
C61_3 C 0.9039 0.9641 0.1318
H84_3 H 0.8811 0.9375 0.1451
H85_3 H 0.8836 0.9905 0.1146
H86_3 H 0.9230 0.9795 0.1602
C62_3 C 0.9967 0.9688 0.0915
C63_3 C 0.9423 0.9398 0.0927
H90_3 H 0.9482 0.9033 0.1026
C64_3 C 0.8875(6) 0.6917(5) 0.1198(6)
H91_3 H 0.8726 0.6744 0.0890
C65_3 C 0.9435(6) 0.6720(7) 0.1304(7)
H92_3 H 0.9568 0.6893 0.1615
H93_3 H 0.9422 0.6348 0.1376
C66_3 C 0.9813(6) 0.6815(7) 0.0855(8)
H94_3 H 0.9780 0.7184 0.0756
C68_3 C 0.9694(10) 0.6515(9) 0.0410(7)
H98_3 H 0.9897 0.6200 0.0414
H99_3 H 0.9775 0.6713 0.0101
H100_3 H 0.9329 0.6429 0.0410
C69_3 C 0.8572(6) 0.6773(6) 0.1691(6)
C70_3 C 0.7549(4) 0.8192(5) 0.1351(5)
C71_3 C 0.7632(5) 0.7399(5) 0.0279(5)
C72_3 C 0.7396(5) 0.8145(4) 0.0781(4)
H101_3 H 0.7664 0.8313 0.0566
C73_3 C 0.6884(5) 0.8405(6) 0.0680(5)
H102_3 H 0.6609 0.8184 0.0818
H103_3 H 0.6875 0.8731 0.0874
C74_3 C 0.6761(5) 0.8522(5) 0.0129(5)
C75_3 C 0.6206(5) 0.8712(7) 0.0085(6)
H105_3 H 0.5971 0.8423 0.0131
H107_3 H 0.6140 0.8970 0.0349
H108_3 H 0.7084 0.9243 0.0061
C78_3 C 0.7709(6) 0.6825(6) 0.0332(6)
H111_3 H 0.8252 0.5991 0.0265
Cu12_2 Cu 0.78785(6) 0.87806(6) 0.22515(6)
N14_2 N 0.7400(4) 0.9329(4) 0.2392(4)
O68_2 O 0.8402(4) 0.9280(4) 0.2542(4)
H137_3 H 0.946773 0.776748 0.24667
H138_3 H 0.97305 0.778483 0.190458
Cu1_3 Cu 0.52231(6) 0.11820(7) 0.31284(6)
Cu2_4 Cu 0.32590(6) 0.13571(6) 0.28523(6)
Cu3_3 Cu 0.54826(7) 0.17132(8) 0.21372(7)
Ba2_3 Ba 0.65547(3) 0.15547(3) 0.34453(3)
Ba3_4 Ba 0.13706(7) 0.13706(7) 0.13706(7)
O1_4 O 0.2683(3) 0.1670(3) 0.3204(3)
O2_3 O 0.5795(4) 0.1340(4) 0.2687(4)
N1_4 N 0.4616(4) 0.1210(5) 0.3530(4)
N2_4 N 0.3852(5) 0.1151(4) 0.2466(4)
N3_3 N 0.5053(5) 0.2025(6) 0.1641(5)
O3_4 O 0.1334(6) 0.2260(6) 0.1936(6)
O4_3 O 0.7196(7) 0.2196(7) 0.2804(7)
O5_4 O 0.2871(6) 0.0533(4) 0.2942(5)
O6_3 O 0.6026(5) 0.2438(5) 0.3073(6)
O7_4 O 0.4725(4) 0.1063(4) 0.2547(4)
O8_4 O 0.3734(3) 0.1281(3) 0.3448(4)
O9_4 O 0.2994(4) 0.1510(4) 0.2147(4)
O10_4 O 0.3472(3) 0.2405(3) 0.3638(3)
O11_4 O 0.3228(4) 0.1555(4) 0.1332(4)
O13_3 O 0.5703(4) 0.1296(5) 0.1547(5)
O14_3 O 0.5489(8) 0.1078(7) 0.0766(6)
O15_3 O 0.5367(4) 0.1694(4) 0.4574(4)
O17_3 O 0.5099(3) 0.2161(4) 0.2643(4)
O18_3 O 0.5531(3) 0.1488(3) 0.3759(3)
C1_4 C 0.4268(5) 0.1134(5) 0.2711(5)
C2_4 C 0.4193(5) 0.1219(5) 0.3290(5)
C3_4 C 0.4679(6) 0.1329(6) 0.4089(5)
H1_4 H 0.4439 0.1608 0.4195
C4_4 C 0.4592(11) 0.0850(13) 0.4409(10)
H2_4 H 0.4664 0.0941 0.4770
H3_4 H 0.4855 0.0597 0.4306
C5_4 C 0.3682 0.0961 0.4641
H4_4 H 0.3549 0.1189 0.4375
H5_4 H 0.3854 0.1164 0.4905
H6_4 H 0.3398 0.0770 0.4795
C6_4 C 0.4085 0.0033 0.4688
H9_3 H 0.4183 0.0085 0.5047
C7_4 C 0.4073 0.0577 0.4398
H10_4 H 0.3974 0.0518 0.4033
C8_4 C 0.3802(6) 0.1125(6) 0.1917(5)
H11_4 H 0.4110 0.1274 0.1744
C9_4 C 0.3696(7) 0.0565(6) 0.1720(7)
H12_4 H 0.3385 0.0432 0.1893
H13_4 H 0.3624 0.0578 0.1348
C10_4 C 0.4145(8) 0.0187(6) 0.1815(7)
H14_4 H 0.4244 0.0220 0.2184
C12_4 C 0.4590(7) 0.0306(10) 0.1515(9)
H18_4 H 0.4586 0.0103 0.1200
H19_4 H 0.4899 0.0225 0.1713
H20_4 H 0.4590 0.0671 0.1429
C13_4 C 0.3309(6) 0.1428(6) 0.1773(6)
C14_4 C 0.3649(5) 0.2451(4) 0.3192(5)
C15_4 C 0.4721(5) 0.2368(5) 0.2399(5)
C16_4 C 0.4219(4) 0.2604(5) 0.3145(4)
H21_4 H 0.4434 0.2336 0.3313
C17_4 C 0.4320(5) 0.3116(5) 0.3405(6)
H22_4 H 0.4182 0.3391 0.3184
H23_4 H 0.4126 0.3125 0.3731
C18_4 C 0.4871(5) 0.3239(5) 0.3522(5)
H24_3 H 0.5070 0.3210 0.3196
C19_4 C 0.4915(6) 0.3794(5) 0.3712(7)
H25_4 H 0.4869 0.4029 0.3423
H26_3 H 0.5254 0.3848 0.3863
H27_4 H 0.4651 0.3860 0.3970
C20_3 C 0.5115(6) 0.2880(6) 0.3913(6)
H28_4 H 0.4939 0.2916 0.4243
H29_3 H 0.5477 0.2968 0.3955
H30_3 H 0.5085 0.2526 0.3793
C21_3 C 0.5239(6) 0.1507(5) 0.4146(6)
C22_4 C 0.4668(6) 0.2291(6) 0.1825(6)
C23_3 C 0.5404(8) 0.1327(9) 0.1133(7)
C24_3 C 0.5086(7) 0.1823(8) 0.1123(7)
H31_4 H 0.4735 0.1748 0.0991
C25_3 C 0.5345 0.2256 0.0784
H32_3 H 0.5540 0.2468 0.1031
H33_3 H 0.5057 0.2473 0.0668
C26_3 C 0.5721 0.2209 0.0283
H34_3 H 0.5689 0.1828 0.0275
C28_3 C 0.6260 0.2183 0.0596
H38_3 H 0.6249 0.1900 0.0841
H39_3 H 0.6313 0.2506 0.0781
H40_3 H 0.6542 0.2129 0.0355
O19_4 O 0.179(2) 0.112(2) 0.043(2)
O20_3 O 0.6257(7) 0.2299(7) 0.2010(7)
Cu5_3 Cu 0.68716(6) 0.02231(6) 0.38180(7)
Cu7_3 Cu 0.78628(7) 0.04826(7) 0.32868(8)
O22_3 O 0.7313(4) 0.0795(4) 0.3660(4)
N7_3 N 0.8359(5) 0.0053(5) 0.2975(6)
O24_3 O 0.6927(6) 0.1026(5) 0.2562(5)
O31_3 O 0.8453(5) 0.0703(4) 0.3704(5)
O32_3 O 0.9234(6) 0.0489(8) 0.3922(7)
O33_3 O 0.5426(4) 0.0367(4) 0.3306(4)
O35_3 O 0.7357(4) 0.0099(3) 0.2839(4)
O36_3 O 0.6241(3) 0.0531(3) 0.3512(3)
H64_3 H 0.6804 0.0070 0.1790
H66_3 H 0.6137 0.0254 0.1152
C48_3 C 0.6087(6) 0.0115(6) 0.2120(6)
H69_3 H 0.6045 0.0477 0.2032
H70_3 H 0.6207 0.0085 0.2474
C49_3 C 0.5854(6) 0.0239(6) 0.3493(5)
C51_3 C 0.8867(7) 0.0404(8) 0.3673(9)
C52_3 C 0.8877(7) 0.0086(7) 0.3177(8)
C53_3 C 0.9216 0.0345 0.2744
H72_3 H 0.8969 0.0540 0.2532
H73_3 H 0.9332 0.0057 0.2527
C54_3 C 0.9717 0.0721 0.2791
H74_3 H 0.9725 0.0689 0.3172
C56_3 C 0.9404 0.1260 0.2817
H78_3 H 0.9159 0.1249 0.3100
H79_3 H 0.9219 0.1313 0.2494
H80_3 H 0.9645 0.1542 0.2871
O37_3 O 0.7990(7) 0.1257(7) 0.2701(7)
Cu9_3 Cu 0.61820(7) 0.18716(6) 0.47769(6)
Cu10_4 Cu 0.63571(6) 0.21477(6) 0.67410(6)
Cu11_3 Cu 0.67132(8) 0.28628(7) 0.45174(7)
O39_3 O 0.6340(4) 0.2313(4) 0.4205(4)
N9_4 N 0.6210(5) 0.1470(4) 0.5384(4)
N10_4 N 0.6151(4) 0.2534(4) 0.6148(5)
N11_3 N 0.7025(6) 0.3359(5) 0.4947(5)
O40_4 O 0.5533(4) 0.2058(5) 0.7129(6)
O41_3 O 0.7438(5) 0.1927(6) 0.3974(5)
O42_4 O 0.6063(4) 0.2453(4) 0.5275(4)
O43_4 O 0.6281(3) 0.1552(4) 0.6266(3)
O45_4 O 0.7405(3) 0.1362(3) 0.6528(3)
O46_4 O 0.6555(4) 0.3668(4) 0.6772(4)
O48_3 O 0.6296(5) 0.3453(5) 0.4297(4)
O49_3 O 0.6078(7) 0.4234(6) 0.4511(8)
O50_3 O 0.6694(4) 0.0426(4) 0.4633(4)
O52_3 O 0.7161(4) 0.2357(4) 0.4901(3)
O53_3 O 0.6488(3) 0.1241(3) 0.4469(3)
C57_4 C 0.6134(5) 0.2289(5) 0.5732(5)
C58_4 C 0.6219(5) 0.1710(5) 0.5807(5)
C59_4 C 0.6329(6) 0.0911(5) 0.5321(6)
H81_4 H 0.6608 0.0805 0.5561
C60_4 C 0.5850(13) 0.0591(10) 0.5408(11)
H82_4 H 0.5941 0.0230 0.5336
H83_4 H 0.5597 0.0694 0.5145
C61_4 C 0.5961 0.0359 0.6318
H84_4 H 0.6189 0.0625 0.6451
H85_4 H 0.6164 0.0095 0.6146
H86_4 H 0.5770 0.0205 0.6602
C62_4 C 0.5033 0.0312 0.5915
H87_3 H 0.4808 0.0479 0.5665
H88_3 H 0.4875 0.0328 0.6255
C63_4 C 0.5577 0.0602 0.5927
H90_4 H 0.5518 0.0967 0.6026
C64_4 C 0.6125(6) 0.3083(5) 0.6198(6)
H91_4 H 0.6274 0.3256 0.5890
C65_4 C 0.5565(6) 0.3280(7) 0.6304(7)
H92_4 H 0.5432 0.3107 0.6615
H93_4 H 0.5578 0.3652 0.6376
C66_4 C 0.5187(6) 0.3185(7) 0.5855(8)
H94_4 H 0.5220 0.2816 0.5756
C67_3 C 0.4644(7) 0.3265(9) 0.6031(9)
H95_3 H 0.4408 0.3115 0.5782
H96_3 H 0.4576 0.3633 0.6062
H97_3 H 0.4595 0.3101 0.6365
C68_4 C 0.5306(10) 0.3485(9) 0.5410(7)
H98_4 H 0.5103 0.3800 0.5414
H99_4 H 0.5225 0.3287 0.5101
H100_4 H 0.5671 0.3571 0.5410
C69_4 C 0.6428(6) 0.3227(6) 0.6691(6)
C70_4 C 0.7451(4) 0.1808(5) 0.6351(5)
C71_4 C 0.7368(5) 0.2601(5) 0.5279(5)
C72_4 C 0.7604(5) 0.1855(4) 0.5781(4)
H101_4 H 0.7336 0.1687 0.5566
C73_4 C 0.8116(5) 0.1595(6) 0.5680(5)
H102_4 H 0.8391 0.1816 0.5818
H103_4 H 0.8125 0.1269 0.5874
C74_4 C 0.8239(5) 0.1478(5) 0.5129(5)
H104_3 H 0.8210 0.1804 0.4930
C75_4 C 0.8794(5) 0.1288(7) 0.5085(6)
H105_4 H 0.9029 0.1577 0.5131
H106_3 H 0.8848 0.1137 0.4746
H107_4 H 0.8860 0.1030 0.5349
C76_3 C 0.7880(6) 0.1087(6) 0.4885(6)
H108_4 H 0.7916 0.0757 0.5061
H109_3 H 0.7968 0.1045 0.4523
H110_3 H 0.7526 0.1207 0.4915
C77_3 C 0.6507(5) 0.0854(6) 0.4761(6)
C78_4 C 0.7291(6) 0.3175(6) 0.5332(6)
C79_3 C 0.6327(9) 0.3867(7) 0.4596(8)
C80_3 C 0.6823(8) 0.3877(7) 0.4914(7)
H111_4 H 0.6748 0.4009 0.5265
C81_3 C 0.7256 0.4216 0.4655
H112_3 H 0.7468 0.3969 0.4460
H113_3 H 0.7473 0.4332 0.4943
C82_3 C 0.7209 0.4717 0.4279
H114_3 H 0.6828 0.4725 0.4311
C83 C 0.7238 0.5314 0.4167
H115 H 0.6960 0.5411 0.3936
H116 H 0.7568 0.5395 0.4007
H117 H 0.7206 0.5503 0.4490
C84_3 C 0.7183 0.4404 0.3740
H118_3 H 0.6900 0.4159 0.3751
H119_3 H 0.7506 0.4219 0.3687
H120_3 H 0.7129 0.4645 0.3458
O54_3 O 0.7299(7) 0.2990(7) 0.3743(7)
O55_4 O 0.1936(6) 0.1334(6) 0.2260(6)
O56_4 O 0.043(2) 0.179(2) 0.112(2)
O57_4 O 0.2260(6) 0.1936(6) 0.1334(6)
O58_4 O 0.112(2) 0.043(2) 0.179(2)
H125_4 H 0.25333 0.0532271 0.276748
H126_4 H 0.309542 0.02695 0.278483
H129_3 H 0.656159 0.208914 0.192232
H130_3 H 0.618598 0.254341 0.172765
H135_3 H 0.807768 0.156159 0.291086
H136_3 H 0.827235 0.118598 0.245659
H137_4 H 0.553227 0.223252 0.74667
H138_4 H 0.52695 0.221517 0.690458
H143_3 H 0.708914 0.307768 0.343841
H144_3 H 0.754341 0.327235 0.381402
H7_3 H 0.4335 0.9808 0.4521
H8_3 H 0.3745 0.9875 0.4672
C11_3 C 0.3969(9) 0.9644(7) 0.1735(9)
H15_3 H 0.4218 0.9408 0.1885
H16_3 H 0.3938 0.9576 0.1367
H17_3 H 0.3635 0.9595 0.1899
Cu6_4 Cu 0.71477(6) 0.82590(6) 0.36429(6)
N5_4 N 0.6470(4) 0.9616(4) 0.3790(5)
N6_4 N 0.7534(4) 0.8852(5) 0.3849(4)
O23_4 O 0.7058(5) 0.7871(6) 0.4467(4)
O25_4 O 0.7453(4) 0.9725(4) 0.3937(4)
O26_4 O 0.6552(4) 0.8734(3) 0.3719(3)
O28_4 O 0.6362(3) 0.8472(3) 0.2595(3)
O29_4 O 0.8668(4) 0.8228(4) 0.3445(4)
C29_4 C 0.7289(5) 0.9268(5) 0.3866(5)
C30_4 C 0.6710(5) 0.9193(5) 0.3781(5)
C31_4 C 0.5911(5) 0.9679(6) 0.3671(6)
H41_4 H 0.5805 0.9439 0.3392
C32_4 C 0.5591(10) 0.9592(11) 0.4150(13)
H42_4 H 0.5230 0.9664 0.4059
H43_4 H 0.5694 0.9855 0.4403
C33_4 C 0.5359 0.8682 0.4039
H44_4 H 0.5625 0.8549 0.3811
H45_4 H 0.5095 0.8854 0.3836
H46_4 H 0.5205 0.8398 0.4230
C34_4 C 0.5312 0.9085 0.4967
H47_3 H 0.5479 0.9335 0.5192
H48_3 H 0.5328 0.8745 0.5125
H49_3 H 0.4953 0.9183 0.4915
C35_4 C 0.5602 0.9073 0.4423
H50_4 H 0.5967 0.8974 0.4482
C36_4 C 0.8083(5) 0.8802(6) 0.3875(6)
H51_4 H 0.8256 0.9110 0.3726
C37_4 C 0.8280(7) 0.8696(7) 0.4435(6)
H52_4 H 0.8107 0.8385 0.4568
H53_4 H 0.8652 0.8624 0.4422
C38_4 C 0.8185(7) 0.9145(8) 0.4813(6)
H54_4 H 0.7816 0.9244 0.4780
C39_3 C 0.8265(9) 0.8969(9) 0.5356(7)
H55_3 H 0.8115 0.9218 0.5592
H56_3 H 0.8633 0.8938 0.5424
H57_3 H 0.8101 0.8635 0.5405
C40_4 C 0.8485(9) 0.9590(7) 0.4694(10)
H58_4 H 0.8800 0.9586 0.4897
H59_4 H 0.8287 0.9899 0.4775
H60_4 H 0.8571 0.9590 0.4329
C41_4 C 0.8227(6) 0.8309(6) 0.3572(6)
C42_4 C 0.6808(5) 0.8649(5) 0.2549(4)
C43_4 C 0.7601(5) 0.9721(5) 0.2632(5)
C44_4 C 0.6855(4) 0.9219(4) 0.2396(5)
H61_4 H 0.6687 0.9434 0.2664
C45_4 C 0.6595(6) 0.9320(5) 0.1884(5)
H62_4 H 0.6816 0.9182 0.1609
H63_4 H 0.6269 0.9126 0.1875
C46_4 C 0.6478(5) 0.9871(5) 0.1761(5)
C47_4 C 0.6288(7) 0.9915(6) 0.1206(5)
H65_4 H 0.6577 0.9869 0.0971
H67_4 H 0.6030 0.9651 0.1140
H68_4 H 0.5757 0.9939 0.2084
C50_4 C 0.8175(6) 0.9668(6) 0.2709(6)
H71_4 H 0.9009 0.9735 0.3252
H89_3 H 0.5085 0.9953 0.5817
H133_4 H 0.723252 0.75333 0.446773
H134_4 H 0.721517 0.809542 0.47305
C83_2 C 0.2238 0.9686 0.5833
H115_2 H 0.1960 0.9589 0.6064
H116_2 H 0.2568 0.9605 0.5993
H117_2 H 0.2206 0.9497 0.5510
C83_3 C 0.2762 0.0314 0.0833
H115_3 H 0.3040 0.0411 0.1064
H116_3 H 0.2432 0.0395 0.0993
H117_3 H 0.2794 0.0503 0.0510
C55_2 C 0.9686 0.5833 0.2238
H75_2 H 0.9589 0.6064 0.1960
H76_2 H 0.9605 0.5993 0.2568
H77_2 H 0.9497 0.5510 0.2206
H7_4 H 0.0665 0.0192 0.9521
H8_4 H 0.1255 0.0125 0.9672
C11_4 C 0.1031(9) 0.0356(7) 0.6735(9)
H15_4 H 0.0782 0.0592 0.6885
H16_4 H 0.1062 0.0424 0.6367
H17_4 H 0.1365 0.0405 0.6899
H49_4 H 0.0047 0.0817 0.9915
H9_4 H 0.0817 0.9915 0.0047
H87_4 H 0.0192 0.9521 0.0665
H88_4 H 0.0125 0.9672 0.1255
C67_4 C 0.0356(7) 0.6735(9) 0.1031(9)
H95_4 H 0.0592 0.6885 0.0782
H96_4 H 0.0424 0.6367 0.1062
H97_4 H 0.0405 0.6899 0.1365
H47_4 H 0.9521 0.0665 0.0192
H48_4 H 0.9672 0.1255 0.0125
C39_4 C 0.6735(9) 0.1031(9) 0.0356(7)
H55_4 H 0.6885 0.0782 0.0592
H56_4 H 0.6367 0.1062 0.0424
H57_4 H 0.6899 0.1365 0.0405
H89_4 H 0.9915 0.0047 0.0817
Cu1_4 Cu 0.97769(6) 0.88180(7) 0.81284(6)
Cu3_4 Cu 0.95174(7) 0.82868(8) 0.71372(7)
Ba2_4 Ba 0.84453(3) 0.84453(3) 0.84453(3)
O2_4 O 0.9205(4) 0.8660(4) 0.7687(4)
N3_4 N 0.9947(5) 0.7975(6) 0.6641(5)
O4_4 O 0.7804(7) 0.7804(7) 0.7804(7)
O6_4 O 0.8974(5) 0.7562(5) 0.8073(6)
O13_4 O 0.9297(4) 0.8704(5) 0.6547(5)
O14_4 O 0.9511(8) 0.8922(7) 0.5766(6)
O15_4 O 0.9633(4) 0.8306(4) 0.9574(4)
O17_4 O 0.9901(3) 0.7839(4) 0.7643(4)
O18_4 O 0.9469(3) 0.8512(3) 0.8759(3)
H24_4 H 0.9930 0.6790 0.8196
H26_4 H 0.9746 0.6152 0.8863
C20_4 C 0.9885(6) 0.7120(6) 0.8913(6)
H29_4 H 0.9523 0.7032 0.8955
H30_4 H 0.9915 0.7474 0.8793
C21_4 C 0.9761(6) 0.8493(5) 0.9146(6)
C23_4 C 0.9596(8) 0.8673(9) 0.6133(7)
C24_4 C 0.9914(7) 0.8177(8) 0.6123(7)
C25_4 C 0.9655 0.7744 0.5784
H32_4 H 0.9460 0.7532 0.6031
H33_4 H 0.9943 0.7527 0.5668
C26_4 C 0.9279 0.7791 0.5283
H34_4 H 0.9311 0.8172 0.5275
C27_3 C 0.9167 0.7762 0.4686
H35_3 H 0.8936 0.8040 0.4589
H36_3 H 0.9007 0.7432 0.4605
H37_3 H 0.9490 0.7794 0.4497
C28_4 C 0.8740 0.7817 0.5596
H38_4 H 0.8751 0.8100 0.5841
H39_4 H 0.8687 0.7494 0.5781
H40_4 H 0.8458 0.7871 0.5355
O20_4 O 0.8743(7) 0.7701(7) 0.7010(7)
Cu5_4 Cu 0.81284(6) 0.97769(6) 0.88180(7)
Cu7_4 Cu 0.71372(7) 0.95174(7) 0.82868(8)
O22_4 O 0.7687(4) 0.9205(4) 0.8660(4)
N7_4 N 0.6641(5) 0.9947(5) 0.7975(6)
O24_4 O 0.8073(6) 0.8974(5) 0.7562(5)
O31_4 O 0.6547(5) 0.9297(4) 0.8704(5)
O32_4 O 0.5766(6) 0.9511(8) 0.8922(7)
O33_4 O 0.9574(4) 0.9633(4) 0.8306(4)
O35_4 O 0.7643(4) 0.9901(3) 0.7839(4)
O36_4 O 0.8759(3) 0.9469(3) 0.8512(3)
H64_4 H 0.8196 0.9930 0.6790
H66_4 H 0.8863 0.9746 0.6152
C48_4 C 0.8913(6) 0.9885(6) 0.7120(6)
H69_4 H 0.8955 0.9523 0.7032
H70_4 H 0.8793 0.9915 0.7474
C49_4 C 0.9146(6) 0.9761(6) 0.8493(5)
C51_4 C 0.6133(7) 0.9596(8) 0.8673(9)
C52_4 C 0.6123(7) 0.9914(7) 0.8177(8)
C53_4 C 0.5784 0.9655 0.7744
H72_4 H 0.6031 0.9460 0.7532
H73_4 H 0.5668 0.9943 0.7527
C54_4 C 0.5283 0.9279 0.7791
H74_4 H 0.5275 0.9311 0.8172
C55_3 C 0.4686 0.9167 0.7762
H75_3 H 0.4589 0.8936 0.8040
H76_3 H 0.4605 0.9007 0.7432
H77_3 H 0.4497 0.9490 0.7794
C56_4 C 0.5596 0.8740 0.7817
H78_4 H 0.5841 0.8751 0.8100
H79_4 H 0.5781 0.8687 0.7494
H80_4 H 0.5355 0.8458 0.7871
O37_4 O 0.7010(7) 0.8743(7) 0.7701(7)
Cu9_4 Cu 0.88180(7) 0.81284(6) 0.97769(6)
Cu11_4 Cu 0.82868(8) 0.71372(7) 0.95174(7)
O39_4 O 0.8660(4) 0.7687(4) 0.9205(4)
N11_4 N 0.7975(6) 0.6641(5) 0.9947(5)
O41_4 O 0.7562(5) 0.8073(6) 0.8974(5)
O48_4 O 0.8704(5) 0.6547(5) 0.9297(4)
O49_4 O 0.8922(7) 0.5766(6) 0.9511(8)
O50_4 O 0.8306(4) 0.9574(4) 0.9633(4)
O52_4 O 0.7839(4) 0.7643(4) 0.9901(3)
O53_4 O 0.8512(3) 0.8759(3) 0.9469(3)
H104_4 H 0.6790 0.8196 0.9930
H106_4 H 0.6152 0.8863 0.9746
C76_4 C 0.7120(6) 0.8913(6) 0.9885(6)
H109_4 H 0.7032 0.8955 0.9523
H110_4 H 0.7474 0.8793 0.9915
C77_4 C 0.8493(5) 0.9146(6) 0.9761(6)
C79_4 C 0.8673(9) 0.6133(7) 0.9596(8)
C80_4 C 0.8177(8) 0.6123(7) 0.9914(7)
C81_4 C 0.7744 0.5784 0.9655
H112_4 H 0.7532 0.6031 0.9460
H113_4 H 0.7527 0.5668 0.9943
C82_4 C 0.7791 0.5283 0.9279
H114_4 H 0.8172 0.5275 0.9311
C83_4 C 0.7762 0.4686 0.9167
H115_4 H 0.8040 0.4589 0.8936
H116_4 H 0.7432 0.4605 0.9007
H117_4 H 0.7794 0.4497 0.9490
C84_4 C 0.7817 0.5596 0.8740
H118_4 H 0.8100 0.5841 0.8751
H119_4 H 0.7494 0.5781 0.8687
H120_4 H 0.7871 0.5355 0.8458
O54_4 O 0.7701(7) 0.7010(7) 0.8743(7)
H129_4 H 0.843841 0.791086 0.692232
H130_4 H 0.881402 0.745659 0.672765
H135_4 H 0.692232 0.843841 0.791086
H136_4 H 0.672765 0.881402 0.745659
H143_4 H 0.791086 0.692232 0.843841
H144_4 H 0.745659 0.672765 0.881402
C55_4 C 0.0314 0.0833 0.2762
H75_4 H 0.0411 0.1064 0.3040
H76_4 H 0.0395 0.0993 0.2432
H77_4 H 0.0503 0.0510 0.2794
C27_4 C 0.5833 0.2238 0.9686
H35_4 H 0.6064 0.1960 0.9589
H36_4 H 0.5993 0.2568 0.9605
H37_4 H 0.5510 0.2206 0.9497
loop_
_geom_bond_atom_site_label_1
_geom_bond_atom_site_label_2
_geom_bond_site_symmetry_1
_geom_bond_site_symmetry_2
H35 C27 1_555 1_555
H36 C27 1_555 1_555
H37 C27 1_555 1_555
Cu1 O2 1_555 1_555
Cu3 O2 1_555 1_555
Ba2 O2 1_555 1_555
N3 Cu3 1_555 1_555
O4 Ba2 1_555 1_555
O6 Ba2 1_555 1_555
O13 Cu3 1_555 1_555
O14 C23 1_555 1_555
O15 C21 1_555 1_555
O17 Cu3 1_555 1_555
O18 Cu1 1_555 1_555
H29 C20 1_555 1_555
H30 C20 1_555 1_555
C21 O18 1_555 1_555
C23 O13 1_555 1_555
C24 N3 1_555 1_555
C25 C24 1_555 1_555
H32 C25 1_555 1_555
H33 C25 1_555 1_555
C26 C25 1_555 1_555
H34 C26 1_555 1_555
C28 C26 1_555 1_555
H38 C28 1_555 1_555
H39 C28 1_555 1_555
H40 C28 1_555 1_555
O20 Cu3 1_555 1_555
Cu5 O22 1_555 1_555
Cu6 O21 1_555 1_555
Cu7 O22 1_555 1_555
O21 Cu8 1_555 1_555
O22 Ba2 1_555 1_555
N5 Cu5 1_555 1_555
N6 Cu6 1_555 1_555
N7 Cu7 1_555 1_555
N8 C43 1_555 1_555
O23 Cu6 1_555 1_555
O24 Ba2 1_555 1_555
O25 Cu5 1_555 1_555
O26 Cu6 1_555 1_555
O27 Cu6 1_555 1_555
O28 C42 1_555 1_555
O29 C41 1_555 1_555
O30 Cu6 1_555 1_555
O31 Cu7 1_555 1_555
O32 C51 1_555 1_555
O33 Cu1 1_555 1_555
O34 C50 1_555 1_555
O35 Cu7 1_555 1_555
O36 Ba2 1_555 1_555
C29 N6 1_555 1_555
C30 N5 1_555 1_555
C31 N5 1_555 1_555
H41 C31 1_555 1_555
C32 C31 1_555 1_555
H42 C32 1_555 1_555
H43 C32 1_555 1_555
C33 H44 1_555 1_555
H45 C33 1_555 1_555
H46 C33 1_555 1_555
C34 H47 1_555 1_555
H48 C34 1_555 1_555
C35 C32 1_555 1_555
H50 C35 1_555 1_555
C36 N6 1_555 1_555
H51 C36 1_555 1_555
C37 C36 1_555 1_555
H52 C37 1_555 1_555
H53 C37 1_555 1_555
C38 C37 1_555 1_555
H54 C38 1_555 1_555
C39 C38 1_555 1_555
H55 C39 1_555 1_555
H56 C39 1_555 1_555
H57 C39 1_555 1_555
C40 C38 1_555 1_555
H58 C40 1_555 1_555
H59 C40 1_555 1_555
H60 C40 1_555 1_555
C41 O27 1_555 1_555
C42 O30 1_555 1_555
C43 O35 1_555 1_555
C44 N8 1_555 1_555
H61 C44 1_555 1_555
C45 C44 1_555 1_555
H62 C45 1_555 1_555
H63 C45 1_555 1_555
C46 C45 1_555 1_555
H64 C46 1_555 1_555
C47 C46 1_555 1_555
H65 C47 1_555 1_555
H66 C47 1_555 1_555
H67 C47 1_555 1_555
C48 C46 1_555 1_555
H68 C48 1_555 1_555
H69 C48 1_555 1_555
H70 C48 1_555 1_555
C49 O33 1_555 1_555
C50 N7 1_555 1_555
C51 O31 1_555 1_555
C52 N7 1_555 1_555
H71 C52 1_555 1_555
C53 C52 1_555 1_555
H72 C53 1_555 1_555
H73 C53 1_555 1_555
C54 C53 1_555 1_555
H74 C54 1_555 1_555
C55 C54 1_555 1_555
H75 C55 1_555 1_555
H76 C55 1_555 1_555
H77 C55 1_555 1_555
C56 C54 1_555 1_555
H78 C56 1_555 1_555
H79 C56 1_555 1_555
H80 C56 1_555 1_555
O37 Cu7 1_555 1_555
Cu8 O28 1_555 1_555
Cu9 O15 1_555 1_555
Cu10 O38 1_555 1_555
Cu11 O39 1_555 1_555
O38 Cu12 1_555 1_555
O39 Ba2 1_555 1_555
N9 Cu9 1_555 1_555
N10 Cu10 1_555 1_555
N11 Cu11 1_555 1_555
N12 C71 1_555 1_555
O40 Cu10 1_555 1_555
O41 Ba2 1_555 1_555
O42 Cu9 1_555 1_555
O43 Cu10 1_555 1_555
O44 Cu10 1_555 1_555
O45 C70 1_555 1_555
O46 C69 1_555 1_555
O47 Cu10 1_555 1_555
O48 Cu11 1_555 1_555
O49 C79 1_555 1_555
O50 Cu5 1_555 1_555
O51 C78 1_555 1_555
O52 Cu11 1_555 1_555
O53 Ba2 1_555 1_555
C57 N10 1_555 1_555
C58 N9 1_555 1_555
C59 N9 1_555 1_555
H81 C59 1_555 1_555
C60 C59 1_555 1_555
H82 C60 1_555 1_555
H83 C60 1_555 1_555
C61 H84 1_555 1_555
H85 C61 1_555 1_555
H86 C61 1_555 1_555
H89 C62 1_555 1_555
C63 C60 1_555 1_555
H90 C63 1_555 1_555
C64 N10 1_555 1_555
H91 C64 1_555 1_555
C65 C64 1_555 1_555
H92 C65 1_555 1_555
H93 C65 1_555 1_555
C66 C65 1_555 1_555
H94 C66 1_555 1_555
C68 C66 1_555 1_555
H98 C68 1_555 1_555
H99 C68 1_555 1_555
H100 C68 1_555 1_555
C69 O44 1_555 1_555
C70 O47 1_555 1_555
C71 O52 1_555 1_555
C72 N12 1_555 1_555
H101 C72 1_555 1_555
C73 C72 1_555 1_555
H102 C73 1_555 1_555
H103 C73 1_555 1_555
C74 C73 1_555 1_555
H104 C74 1_555 1_555
C75 C74 1_555 1_555
H105 C75 1_555 1_555
H106 C75 1_555 1_555
H107 C75 1_555 1_555
C76 C74 1_555 1_555
H108 C76 1_555 1_555
H109 C76 1_555 1_555
H110 C76 1_555 1_555
C77 O50 1_555 1_555
C78 N11 1_555 1_555
C79 O48 1_555 1_555
C80 N11 1_555 1_555
H111 C80 1_555 1_555
C81 C80 1_555 1_555
H112 C81 1_555 1_555
H113 C81 1_555 1_555
C82 C81 1_555 1_555
H114 C82 1_555 1_555
C84 C82 1_555 1_555
H118 C84 1_555 1_555
H119 C84 1_555 1_555
H120 C84 1_555 1_555
O54 Cu11 1_555 1_555
Cu12 O45 1_555 1_555
Ba4 O21 1_555 1_555
Ba5 O38 1_555 1_555
N13 Cu8 1_555 1_555
N14 Cu12 1_555 1_555
O63 Cu8 1_555 1_555
O65 Cu12 1_555 1_555
O67 Cu8 1_555 1_555
O68 Cu12 1_555 1_555
Cu13 N12 1_555 1_555
Cu15 N8 1_555 1_555
Ba2 O18 1_555 1_555
C23 C24 1_555 1_555
Cu5 O36 1_555 1_555
O25 C29 1_555 1_555
O26 C30 1_555 1_555
O27 Ba4 1_555 1_555
O30 Ba4 1_555 1_555
O30 Cu15 1_555 1_555
O34 Cu15 1_555 1_555
O36 C49 1_555 1_555
C29 C30 1_555 1_555
C31 C49 1_555 1_555
C33 C35 1_555 1_555
C34 C35 1_555 1_555
C36 C41 1_555 1_555
C42 C44 1_555 1_555
C43 C50 1_555 1_555
C51 C52 1_555 1_555
Cu9 O39 1_555 1_555
Cu9 O53 1_555 1_555
O42 C57 1_555 1_555
O43 C58 1_555 1_555
O44 Ba5 1_555 1_555
O47 Ba5 1_555 1_555
O47 Cu13 1_555 1_555
O51 Cu13 1_555 1_555
O53 C77 1_555 1_555
C57 C58 1_555 1_555
C59 C77 1_555 1_555
C61 C63 1_555 1_555
C62 C63 1_555 1_555
C64 C69 1_555 1_555
C70 C72 1_555 1_555
C71 C78 1_555 1_555
C79 C80 1_555 1_555
Ba4 O63 1_555 1_555
Ba5 O65 1_555 1_555
O20 H129 1_555 1_555
O20 H130 1_555 1_555
O23 H133 1_555 1_555
O23 H134 1_555 1_555
O37 H135 1_555 1_555
O37 H136 1_555 1_555
O40 H137 1_555 1_555
O40 H138 1_555 1_555
O54 H143 1_555 1_555
O54 H144 1_555 1_555
Cu2 O1 1_555 1_555
Ba1 O1 1_555 1_555
Ba3 O3 1_555 1_555
O1 Cu4 1_555 1_555
N2 Cu2 1_555 1_555
N4 C15 1_555 1_555
O3 Ba1 1_555 1_555
O5 Cu2 1_555 1_555
O8 Cu2 1_555 1_555
O9 Cu2 1_555 1_555
O10 C14 1_555 1_555
O11 C13 1_555 1_555
O12 Cu2 1_555 1_555
O16 C22 1_555 1_555
C1 N2 1_555 1_555
C2 N1 1_555 1_555
C3 N1 1_555 1_555
H1 C3 1_555 1_555
C4 C3 1_555 1_555
H2 C4 1_555 1_555
H3 C4 1_555 1_555
C5 H4 1_555 1_555
H5 C5 1_555 1_555
H6 C5 1_555 1_555
C6 H7 1_555 1_555
H8 C6 1_555 1_555
H9 C6 1_555 1_555
C7 C4 1_555 1_555
H10 C7 1_555 1_555
C8 N2 1_555 1_555
H11 C8 1_555 1_555
C9 C8 1_555 1_555
H12 C9 1_555 1_555
H13 C9 1_555 1_555
C10 C9 1_555 1_555
H14 C10 1_555 1_555
C11 C10 1_555 1_555
H15 C11 1_555 1_555
H16 C11 1_555 1_555
H17 C11 1_555 1_555
C12 C10 1_555 1_555
H18 C12 1_555 1_555
H19 C12 1_555 1_555
H20 C12 1_555 1_555
C13 O9 1_555 1_555
C14 O12 1_555 1_555
C16 N4 1_555 1_555
H21 C16 1_555 1_555
C17 C16 1_555 1_555
H22 C17 1_555 1_555
H23 C17 1_555 1_555
C18 C17 1_555 1_555
C19 C18 1_555 1_555
H25 C19 1_555 1_555
H27 C19 1_555 1_555
O19 Ba3 1_555 1_555
Cu4 O10 1_555 1_555
H95 C67 1_555 1_555
H96 C67 1_555 1_555
H97 C67 1_555 1_555
O55 Ba1 1_555 1_555
O56 Ba3 1_555 1_555
O57 Ba1 1_555 1_555
O58 Ba3 1_555 1_555
O59 Ba1 1_555 1_555
O60 Ba1 1_555 1_555
N15 Cu4 1_555 1_555
O61 Ba1 1_555 1_555
O62 Ba1 1_555 1_555
O64 Ba1 1_555 1_555
O66 Ba1 1_555 1_555
O69 Cu4 1_555 1_555
Cu14 N4 1_555 1_555
Ba1 O9 1_555 1_555
Ba1 O12 1_555 1_555
Ba3 O55 1_555 1_555
Ba3 O57 1_555 1_555
O7 C1 1_555 1_555
O8 C2 1_555 1_555
O12 Cu14 1_555 1_555
O16 Cu14 1_555 1_555
C1 C2 1_555 1_555
C5 C7 1_555 1_555
C6 C7 1_555 1_555
C8 C13 1_555 1_555
C14 C16 1_555 1_555
C15 C22 1_555 1_555
Cu4 O66 1_555 1_555
O59 Cu14 1_555 1_555
O5 H125 1_555 1_555
O5 H126 1_555 1_555
Cu1_2 O2_2 1_555 1_555
Cu2_2 O1_2 1_555 1_555
Cu3_2 O2_2 1_555 1_555
Ba1_2 O1_2 1_555 1_555
Ba2_2 O2_2 1_555 1_555
Ba3_2 O3_2 1_555 1_555
O1_2 Cu4_2 1_555 1_555
N1_2 Cu1_2 1_555 1_555
N2_2 Cu2_2 1_555 1_555
N3_2 Cu3_2 1_555 1_555
N4_2 C15_2 1_555 1_555
O3_2 Ba1_2 1_555 1_555
O4_2 Ba2_2 1_555 1_555
O5_2 Cu2_2 1_555 1_555
O6_2 Ba2_2 1_555 1_555
O7_2 Cu1_2 1_555 1_555
O8_2 Cu2_2 1_555 1_555
O9_2 Cu2_2 1_555 1_555
O10_2 C14_2 1_555 1_555
O11_2 C13_2 1_555 1_555
O12_2 Cu2_2 1_555 1_555
O13_2 Cu3_2 1_555 1_555
O14_2 C23_2 1_555 1_555
O15_2 C21_2 1_555 1_555
O16_2 C22_2 1_555 1_555
O17_2 Cu3_2 1_555 1_555
O18_2 Cu1_2 1_555 1_555
C1_2 N2_2 1_555 1_555
C2_2 N1_2 1_555 1_555
C3_2 N1_2 1_555 1_555
H1_2 C3_2 1_555 1_555
C4_2 C3_2 1_555 1_555
H2_2 C4_2 1_555 1_555
H3_2 C4_2 1_555 1_555
C5_2 H4_2 1_555 1_555
H5_2 C5_2 1_555 1_555
H6_2 C5_2 1_555 1_555
C6_2 H7_2 1_555 1_555
H8_2 C6_2 1_555 1_555
C7_2 C4_2 1_555 1_555
H10_2 C7_2 1_555 1_555
C8_2 N2_2 1_555 1_555
H11_2 C8_2 1_555 1_555
C9_2 C8_2 1_555 1_555
H12_2 C9_2 1_555 1_555
H13_2 C9_2 1_555 1_555
C10_2 C9_2 1_555 1_555
H14_2 C10_2 1_555 1_555
C11_2 C10_2 1_555 1_555
H15_2 C11_2 1_555 1_555
H16_2 C11_2 1_555 1_555
H17_2 C11_2 1_555 1_555
C12_2 C10_2 1_555 1_555
H18_2 C12_2 1_555 1_555
H19_2 C12_2 1_555 1_555
H20_2 C12_2 1_555 1_555
C13_2 O9_2 1_555 1_555
C14_2 O12_2 1_555 1_555
C15_2 O17_2 1_555 1_555
C16_2 N4_2 1_555 1_555
H21_2 C16_2 1_555 1_555
C17_2 C16_2 1_555 1_555
H22_2 C17_2 1_555 1_555
H23_2 C17_2 1_555 1_555
C18_2 C17_2 1_555 1_555
H24_2 C18_2 1_555 1_555
C19_2 C18_2 1_555 1_555
H25_2 C19_2 1_555 1_555
H26_2 C19_2 1_555 1_555
H27_2 C19_2 1_555 1_555
C20_2 C18_2 1_555 1_555
H28_2 C20_2 1_555 1_555
H29_2 C20_2 1_555 1_555
H30_2 C20_2 1_555 1_555
C21_2 O18_2 1_555 1_555
C22_2 N3_2 1_555 1_555
C23_2 O13_2 1_555 1_555
C24_2 N3_2 1_555 1_555
H31_2 C24_2 1_555 1_555
C25_2 C24_2 1_555 1_555
H32_2 C25_2 1_555 1_555
H33_2 C25_2 1_555 1_555
C26_2 C25_2 1_555 1_555
H34_2 C26_2 1_555 1_555
C27_2 C26_2 1_555 1_555
H35_2 C27_2 1_555 1_555
H36_2 C27_2 1_555 1_555
H37_2 C27_2 1_555 1_555
C28_2 C26_2 1_555 1_555
H38_2 C28_2 1_555 1_555
H39_2 C28_2 1_555 1_555
H40_2 C28_2 1_555 1_555
O19_2 Ba3_2 1_555 1_555
O20_2 Cu3_2 1_555 1_555
Cu4_2 O10_2 1_555 1_555
Cu5_2 O22_2 1_555 1_555
Cu6_2 O21_2 1_555 1_555
Cu7_2 O22_2 1_555 1_555
O21_2 Cu8_2 1_555 1_555
O22_2 Ba2_2 1_555 1_555
N5_2 Cu5_2 1_555 1_555
N6_2 Cu6_2 1_555 1_555
N7_2 Cu7_2 1_555 1_555
N14 C43_2 1_555 1_555
O23_2 Cu6_2 1_555 1_555
O24_2 Ba2_2 1_555 1_555
O25_2 Cu5_2 1_555 1_555
O26_2 Cu6_2 1_555 1_555
O27_2 Cu6_2 1_555 1_555
O28_2 C42_2 1_555 1_555
O29_2 C41_2 1_555 1_555
O65 Cu6_2 1_555 1_555
O31_2 Cu7_2 1_555 1_555
O32_2 C51_2 1_555 1_555
O33_2 Cu1_2 1_555 1_555
O68 C50_2 1_555 1_555
O35_2 Cu7_2 1_555 1_555
O36_2 Ba2_2 1_555 1_555
C29_2 N6_2 1_555 1_555
C30_2 N5_2 1_555 1_555
C31_2 N5_2 1_555 1_555
H41_2 C31_2 1_555 1_555
C32_2 C31_2 1_555 1_555
H42_2 C32_2 1_555 1_555
H43_2 C32_2 1_555 1_555
C33_2 H44_2 1_555 1_555
H45_2 C33_2 1_555 1_555
H46_2 C33_2 1_555 1_555
H49_2 C34_2 1_555 1_555
C35_2 C32_2 1_555 1_555
H50_2 C35_2 1_555 1_555
C36_2 N6_2 1_555 1_555
H51_2 C36_2 1_555 1_555
C37_2 C36_2 1_555 1_555
H52_2 C37_2 1_555 1_555
H53_2 C37_2 1_555 1_555
C38_2 C37_2 1_555 1_555
H54_2 C38_2 1_555 1_555
C40_2 C38_2 1_555 1_555
H58_2 C40_2 1_555 1_555
H59_2 C40_2 1_555 1_555
H60_2 C40_2 1_555 1_555
C41_2 O27_2 1_555 1_555
C42_2 O65 1_555 1_555
C43_2 O35_2 1_555 1_555
C44_2 N14 1_555 1_555
H61_2 C44_2 1_555 1_555
C45_2 C44_2 1_555 1_555
H62_2 C45_2 1_555 1_555
H63_2 C45_2 1_555 1_555
C46_2 C45_2 1_555 1_555
H64_2 C46_2 1_555 1_555
C47_2 C46_2 1_555 1_555
H65_2 C47_2 1_555 1_555
H66_2 C47_2 1_555 1_555
H67_2 C47_2 1_555 1_555
C48_2 C46_2 1_555 1_555
H68_2 C48_2 1_555 1_555
H69_2 C48_2 1_555 1_555
H70_2 C48_2 1_555 1_555
C49_2 O33_2 1_555 1_555
C50_2 N7_2 1_555 1_555
C51_2 O31_2 1_555 1_555
C52_2 N7_2 1_555 1_555
H71_2 C52_2 1_555 1_555
C53_2 C52_2 1_555 1_555
H72_2 C53_2 1_555 1_555
H73_2 C53_2 1_555 1_555
C54_2 C53_2 1_555 1_555
H74_2 C54_2 1_555 1_555
C56_2 C54_2 1_555 1_555
H78_2 C56_2 1_555 1_555
H79_2 C56_2 1_555 1_555
H80_2 C56_2 1_555 1_555
O37_2 Cu7_2 1_555 1_555
Cu8_2 O28_2 1_555 1_555
Cu9_2 O15_2 1_555 1_555
Cu11_2 O39_2 1_555 1_555
O39_2 Ba2_2 1_555 1_555
N11_2 Cu11_2 1_555 1_555
O41_2 Ba2_2 1_555 1_555
O48_2 Cu11_2 1_555 1_555
O49_2 C79_2 1_555 1_555
O50_2 Cu5_2 1_555 1_555
O52_2 Cu11_2 1_555 1_555
O53_2 Ba2_2 1_555 1_555
H109_2 C76_2 1_555 1_555
H110_2 C76_2 1_555 1_555
C77_2 O50_2 1_555 1_555
C79_2 O48_2 1_555 1_555
C80_2 N11_2 1_555 1_555
C81_2 C80_2 1_555 1_555
H112_2 C81_2 1_555 1_555
H113_2 C81_2 1_555 1_555
C82_2 C81_2 1_555 1_555
H114_2 C82_2 1_555 1_555
C84_2 C82_2 1_555 1_555
H118_2 C84_2 1_555 1_555
H119_2 C84_2 1_555 1_555
H120_2 C84_2 1_555 1_555
O54_2 Cu11_2 1_555 1_555
O55_2 Ba1_2 1_555 1_555
O56_2 Ba3_2 1_555 1_555
O57_2 Ba1_2 1_555 1_555
O58_2 Ba3_2 1_555 1_555
Ba5 O21_2 1_555 1_555
O59_2 Ba1_2 1_555 1_555
O60_2 Ba1_2 1_555 1_555
N13_2 Cu8_2 1_555 1_555
N15_2 Cu4_2 1_555 1_555
O61_2 Ba1_2 1_555 1_555
O62_2 Ba1_2 1_555 1_555
O63_2 Cu8_2 1_555 1_555
O64_2 Ba1_2 1_555 1_555
O66_2 Ba1_2 1_555 1_555
O67_2 Cu8_2 1_555 1_555
O69_2 Cu4_2 1_555 1_555
Cu14_2 N4_2 1_555 1_555
Ba1_2 O9_2 1_555 1_555
Ba1_2 O12_2 1_555 1_555
Ba2_2 O18_2 1_555 1_555
Ba3_2 O55_2 1_555 1_555
Ba3_2 O57_2 1_555 1_555
O7_2 C1_2 1_555 1_555
O8_2 C2_2 1_555 1_555
O12_2 Cu14_2 1_555 1_555
O16_2 Cu14_2 1_555 1_555
C1_2 C2_2 1_555 1_555
C3_2 C21_2 1_555 1_555
C5_2 C7_2 1_555 1_555
C6_2 C7_2 1_555 1_555
C8_2 C13_2 1_555 1_555
C14_2 C16_2 1_555 1_555
C15_2 C22_2 1_555 1_555
C23_2 C24_2 1_555 1_555
Cu4_2 O66_2 1_555 1_555
Cu5_2 O36_2 1_555 1_555
O25_2 C29_2 1_555 1_555
O26_2 C30_2 1_555 1_555
O27_2 Ba5 1_555 1_555
O36_2 C49_2 1_555 1_555
C29_2 C30_2 1_555 1_555
C31_2 C49_2 1_555 1_555
C33_2 C35_2 1_555 1_555
C34_2 C35_2 1_555 1_555
C36_2 C41_2 1_555 1_555
C42_2 C44_2 1_555 1_555
C43_2 C50_2 1_555 1_555
C51_2 C52_2 1_555 1_555
Cu9_2 O39_2 1_555 1_555
Cu9_2 O53_2 1_555 1_555
O53_2 C77_2 1_555 1_555
C79_2 C80_2 1_555 1_555
Ba5 O63_2 1_555 1_555
O59_2 Cu14_2 1_555 1_555
O5_2 H125_2 1_555 1_555
O5_2 H126_2 1_555 1_555
O20_2 H129_2 1_555 1_555
O20_2 H130_2 1_555 1_555
O23_2 H133_2 1_555 1_555
O23_2 H134_2 1_555 1_555
O37_2 H135_2 1_555 1_555
O37_2 H136_2 1_555 1_555
O54_2 H143_2 1_555 1_555
O54_2 H144_2 1_555 1_555
H55_2 C39_2 1_555 1_555
H56_2 C39_2 1_555 1_555
H57_2 C39_2 1_555 1_555
Cu10_2 O38_2 1_555 1_555
O38_2 Cu15 1_555 1_555
N10_2 Cu10_2 1_555 1_555
N12_2 C71_2 1_555 1_555
O40_2 Cu10_2 1_555 1_555
O43_2 Cu10_2 1_555 1_555
O44_2 Cu10_2 1_555 1_555
O45_2 C70_2 1_555 1_555
O46_2 C69_2 1_555 1_555
O47_2 Cu10_2 1_555 1_555
O51_2 C78_2 1_555 1_555
C57_2 N10_2 1_555 1_555
C58_2 N9_2 1_555 1_555
C59_2 N9_2 1_555 1_555
H81_2 C59_2 1_555 1_555
C60_2 C59_2 1_555 1_555
H82_2 C60_2 1_555 1_555
H83_2 C60_2 1_555 1_555
C61_2 H84_2 1_555 1_555
H85_2 C61_2 1_555 1_555
H86_2 C61_2 1_555 1_555
C62_2 H87_2 1_555 1_555
H88_2 C62_2 1_555 1_555
H89_2 C62_2 1_555 1_555
C63_2 C60_2 1_555 1_555
H90_2 C63_2 1_555 1_555
C64_2 N10_2 1_555 1_555
H91_2 C64_2 1_555 1_555
C65_2 C64_2 1_555 1_555
H92_2 C65_2 1_555 1_555
H93_2 C65_2 1_555 1_555
C66_2 C65_2 1_555 1_555
H94_2 C66_2 1_555 1_555
C67_2 C66_2 1_555 1_555
H95_2 C67_2 1_555 1_555
H96_2 C67_2 1_555 1_555
H97_2 C67_2 1_555 1_555
C68_2 C66_2 1_555 1_555
H98_2 C68_2 1_555 1_555
H99_2 C68_2 1_555 1_555
H100_2 C68_2 1_555 1_555
C69_2 O44_2 1_555 1_555
C70_2 O47_2 1_555 1_555
C72_2 N12_2 1_555 1_555
H101_2 C72_2 1_555 1_555
C73_2 C72_2 1_555 1_555
H102_2 C73_2 1_555 1_555
H103_2 C73_2 1_555 1_555
C74_2 C73_2 1_555 1_555
C75_2 C74_2 1_555 1_555
H105_2 C75_2 1_555 1_555
H107_2 C75_2 1_555 1_555
Cu15 O45_2 1_555 1_555
Ba4 O38_2 1_555 1_555
Cu13_2 N12_2 1_555 1_555
O42_2 C57_2 1_555 1_555
O43_2 C58_2 1_555 1_555
O44_2 Ba4 1_555 1_555
O47_2 Ba4 1_555 1_555
O47_2 Cu13_2 1_555 1_555
O51_2 Cu13_2 1_555 1_555
C57_2 C58_2 1_555 1_555
C61_2 C63_2 1_555 1_555
C62_2 C63_2 1_555 1_555
C64_2 C69_2 1_555 1_555
C70_2 C72_2 1_555 1_555
C71_2 C78_2 1_555 1_555
O40_2 H137_2 1_555 1_555
O40_2 H138_2 1_555 1_555
Cu2_3 O1_3 1_555 1_555
Ba4 O1_3 1_555 1_555
Ba3_3 O3_3 1_555 1_555
O1_3 Cu13_2 1_555 1_555
N2_3 Cu2_3 1_555 1_555
N13 C15_3 1_555 1_555
O3_3 Ba4 1_555 1_555
O5_3 Cu2_3 1_555 1_555
O8_3 Cu2_3 1_555 1_555
O9_3 Cu2_3 1_555 1_555
O10_3 C14_3 1_555 1_555
O11_3 C13_3 1_555 1_555
O63 Cu2_3 1_555 1_555
O67 C22_3 1_555 1_555
C1_3 N2_3 1_555 1_555
C2_3 N1_3 1_555 1_555
C3_3 N1_3 1_555 1_555
H1_3 C3_3 1_555 1_555
C4_3 C3_3 1_555 1_555
H2_3 C4_3 1_555 1_555
H3_3 C4_3 1_555 1_555
C5_3 H4_3 1_555 1_555
H5_3 C5_3 1_555 1_555
H6_3 C5_3 1_555 1_555
C7_3 C4_3 1_555 1_555
H10_3 C7_3 1_555 1_555
C8_3 N2_3 1_555 1_555
H11_3 C8_3 1_555 1_555
C9_3 C8_3 1_555 1_555
H12_3 C9_3 1_555 1_555
H13_3 C9_3 1_555 1_555
C10_3 C9_3 1_555 1_555
H14_3 C10_3 1_555 1_555
C12_3 C10_3 1_555 1_555
H18_3 C12_3 1_555 1_555
H19_3 C12_3 1_555 1_555
H20_3 C12_3 1_555 1_555
C13_3 O9_3 1_555 1_555
C14_3 O63 1_555 1_555
C16_3 N13 1_555 1_555
H21_3 C16_3 1_555 1_555
C17_3 C16_3 1_555 1_555
H22_3 C17_3 1_555 1_555
H23_3 C17_3 1_555 1_555
C18_3 C17_3 1_555 1_555
C19_3 C18_3 1_555 1_555
H25_3 C19_3 1_555 1_555
H27_3 C19_3 1_555 1_555
O19_3 Ba3_3 1_555 1_555
Cu13_2 O10_3 1_555 1_555
O55_3 Ba4 1_555 1_555
O56_3 Ba3_3 1_555 1_555
O57_3 Ba4 1_555 1_555
O58_3 Ba3_3 1_555 1_555
Ba4 O9_3 1_555 1_555
Ba3_3 O55_3 1_555 1_555
Ba3_3 O57_3 1_555 1_555
O7_3 C1_3 1_555 1_555
O8_3 C2_3 1_555 1_555
C1_3 C2_3 1_555 1_555
C5_3 C7_3 1_555 1_555
C6_3 C7_3 1_555 1_555
C8_3 C13_3 1_555 1_555
C14_3 C16_3 1_555 1_555
C15_3 C22_3 1_555 1_555
O5_3 H125_3 1_555 1_555
O5_3 H126_3 1_555 1_555
Cu6_3 O59 1_555 1_555
N6_3 Cu6_3 1_555 1_555
N8_2 C43_3 1_555 1_555
O23_3 Cu6_3 1_555 1_555
O26_3 Cu6_3 1_555 1_555
O61 Cu6_3 1_555 1_555
O28_3 C42_3 1_555 1_555
O29_3 C41_3 1_555 1_555
O64 Cu6_3 1_555 1_555
O34_2 C50_3 1_555 1_555
C29_3 N6_3 1_555 1_555
C30_3 N5_3 1_555 1_555
C31_3 N5_3 1_555 1_555
H41_3 C31_3 1_555 1_555
C32_3 C31_3 1_555 1_555
H42_3 C32_3 1_555 1_555
H43_3 C32_3 1_555 1_555
C33_3 H44_3 1_555 1_555
H45_3 C33_3 1_555 1_555
H46_3 C33_3 1_555 1_555
C35_3 C32_3 1_555 1_555
H50_3 C35_3 1_555 1_555
C36_3 N6_3 1_555 1_555
H51_3 C36_3 1_555 1_555
C37_3 C36_3 1_555 1_555
H52_3 C37_3 1_555 1_555
H53_3 C37_3 1_555 1_555
C38_3 C37_3 1_555 1_555
H54_3 C38_3 1_555 1_555
C40_3 C38_3 1_555 1_555
H58_3 C40_3 1_555 1_555
H59_3 C40_3 1_555 1_555
H60_3 C40_3 1_555 1_555
C41_3 O61 1_555 1_555
C42_3 O64 1_555 1_555
C44_3 N8_2 1_555 1_555
H61_3 C44_3 1_555 1_555
C45_3 C44_3 1_555 1_555
H62_3 C45_3 1_555 1_555
H63_3 C45_3 1_555 1_555
C46_3 C45_3 1_555 1_555
C47_3 C46_3 1_555 1_555
H65_3 C47_3 1_555 1_555
H67_3 C47_3 1_555 1_555
Cu14 O28_3 1_555 1_555
Cu15_2 N8_2 1_555 1_555
O25_3 C29_3 1_555 1_555
O26_3 C30_3 1_555 1_555
O64 Cu15_2 1_555 1_555
O34_2 Cu15_2 1_555 1_555
C29_3 C30_3 1_555 1_555
C33_3 C35_3 1_555 1_555
C34_3 C35_3 1_555 1_555
C36_3 C41_3 1_555 1_555
C42_3 C44_3 1_555 1_555
C43_3 C50_3 1_555 1_555
O23_3 H133_3 1_555 1_555
O23_3 H134_3 1_555 1_555
Cu10_3 O60_2 1_555 1_555
O60_2 Cu12_2 1_555 1_555
N10_3 Cu10_3 1_555 1_555
N15_2 C71_3 1_555 1_555
O40_3 Cu10_3 1_555 1_555
O43_3 Cu10_3 1_555 1_555
O62_2 Cu10_3 1_555 1_555
O45_3 C70_3 1_555 1_555
O46_3 C69_3 1_555 1_555
O66_2 Cu10_3 1_555 1_555
O69_2 C78_3 1_555 1_555
C57_3 N10_3 1_555 1_555
C58_3 N9_3 1_555 1_555
C59_3 N9_3 1_555 1_555
H81_3 C59_3 1_555 1_555
C60_3 C59_3 1_555 1_555
H82_3 C60_3 1_555 1_555
H83_3 C60_3 1_555 1_555
C61_3 H84_3 1_555 1_555
H85_3 C61_3 1_555 1_555
H86_3 C61_3 1_555 1_555
C63_3 C60_3 1_555 1_555
H90_3 C63_3 1_555 1_555
C64_3 N10_3 1_555 1_555
H91_3 C64_3 1_555 1_555
C65_3 C64_3 1_555 1_555
H92_3 C65_3 1_555 1_555
H93_3 C65_3 1_555 1_555
C66_3 C65_3 1_555 1_555
H94_3 C66_3 1_555 1_555
C68_3 C66_3 1_555 1_555
H98_3 C68_3 1_555 1_555
H99_3 C68_3 1_555 1_555
H100_3 C68_3 1_555 1_555
C69_3 O62_2 1_555 1_555
C70_3 O66_2 1_555 1_555
C72_3 N15_2 1_555 1_555
H101_3 C72_3 1_555 1_555
C73_3 C72_3 1_555 1_555
H102_3 C73_3 1_555 1_555
H103_3 C73_3 1_555 1_555
C74_3 C73_3 1_555 1_555
C75_3 C74_3 1_555 1_555
H105_3 C75_3 1_555 1_555
H107_3 C75_3 1_555 1_555
Cu12_2 O45_3 1_555 1_555
N14_2 Cu12_2 1_555 1_555
O64_2 Cu12_2 1_555 1_555
O68_2 Cu12_2 1_555 1_555
O42_3 C57_3 1_555 1_555
O43_3 C58_3 1_555 1_555
C57_3 C58_3 1_555 1_555
C61_3 C63_3 1_555 1_555
C62_3 C63_3 1_555 1_555
C64_3 C69_3 1_555 1_555
C70_3 C72_3 1_555 1_555
C71_3 C78_3 1_555 1_555
O40_3 H137_3 1_555 1_555
O40_3 H138_3 1_555 1_555
Cu1_3 O2_3 1_555 1_555
Cu2_4 O1_4 1_555 1_555
Cu3_3 O2_3 1_555 1_555
Ba5 O1_4 1_555 1_555
Ba2_3 O2_3 1_555 1_555
Ba3_4 O3_4 1_555 1_555
O1_4 Cu13 1_555 1_555
N1_4 Cu1_3 1_555 1_555
N2_4 Cu2_4 1_555 1_555
N3_3 Cu3_3 1_555 1_555
N13_2 C15_4 1_555 1_555
O3_4 Ba5 1_555 1_555
O4_3 Ba2_3 1_555 1_555
O5_4 Cu2_4 1_555 1_555
O6_3 Ba2_3 1_555 1_555
O7_4 Cu1_3 1_555 1_555
O8_4 Cu2_4 1_555 1_555
O9_4 Cu2_4 1_555 1_555
O10_4 C14_4 1_555 1_555
O11_4 C13_4 1_555 1_555
O63_2 Cu2_4 1_555 1_555
O13_3 Cu3_3 1_555 1_555
O14_3 C23_3 1_555 1_555
O15_3 C21_3 1_555 1_555
O67_2 C22_4 1_555 1_555
O17_3 Cu3_3 1_555 1_555
O18_3 Cu1_3 1_555 1_555
C1_4 N2_4 1_555 1_555
C2_4 N1_4 1_555 1_555
C3_4 N1_4 1_555 1_555
H1_4 C3_4 1_555 1_555
C4_4 C3_4 1_555 1_555
H2_4 C4_4 1_555 1_555
H3_4 C4_4 1_555 1_555
C5_4 H4_4 1_555 1_555
H5_4 C5_4 1_555 1_555
H6_4 C5_4 1_555 1_555
H9_3 C6_4 1_555 1_555
C7_4 C4_4 1_555 1_555
H10_4 C7_4 1_555 1_555
C8_4 N2_4 1_555 1_555
H11_4 C8_4 1_555 1_555
C9_4 C8_4 1_555 1_555
H12_4 C9_4 1_555 1_555
H13_4 C9_4 1_555 1_555
C10_4 C9_4 1_555 1_555
H14_4 C10_4 1_555 1_555
C12_4 C10_4 1_555 1_555
H18_4 C12_4 1_555 1_555
H19_4 C12_4 1_555 1_555
H20_4 C12_4 1_555 1_555
C13_4 O9_4 1_555 1_555
C14_4 O63_2 1_555 1_555
C15_4 O17_3 1_555 1_555
C16_4 N13_2 1_555 1_555
H21_4 C16_4 1_555 1_555
C17_4 C16_4 1_555 1_555
H22_4 C17_4 1_555 1_555
H23_4 C17_4 1_555 1_555
C18_4 C17_4 1_555 1_555
H24_3 C18_4 1_555 1_555
C19_4 C18_4 1_555 1_555
H25_4 C19_4 1_555 1_555
H26_3 C19_4 1_555 1_555
H27_4 C19_4 1_555 1_555
C20_3 C18_4 1_555 1_555
H28_4 C20_3 1_555 1_555
H29_3 C20_3 1_555 1_555
H30_3 C20_3 1_555 1_555
C21_3 O18_3 1_555 1_555
C22_4 N3_3 1_555 1_555
C23_3 O13_3 1_555 1_555
C24_3 N3_3 1_555 1_555
H31_4 C24_3 1_555 1_555
C25_3 C24_3 1_555 1_555
H32_3 C25_3 1_555 1_555
H33_3 C25_3 1_555 1_555
C26_3 C25_3 1_555 1_555
H34_3 C26_3 1_555 1_555
C28_3 C26_3 1_555 1_555
H38_3 C28_3 1_555 1_555
H39_3 C28_3 1_555 1_555
H40_3 C28_3 1_555 1_555
O19_4 Ba3_4 1_555 1_555
O20_3 Cu3_3 1_555 1_555
Cu13 O10_4 1_555 1_555
Cu5_3 O22_3 1_555 1_555
Cu7_3 O22_3 1_555 1_555
O22_3 Ba2_3 1_555 1_555
N7_3 Cu7_3 1_555 1_555
O24_3 Ba2_3 1_555 1_555
O31_3 Cu7_3 1_555 1_555
O32_3 C51_3 1_555 1_555
O33_3 Cu1_3 1_555 1_555
O35_3 Cu7_3 1_555 1_555
O36_3 Ba2_3 1_555 1_555
H69_3 C48_3 1_555 1_555
H70_3 C48_3 1_555 1_555
C49_3 O33_3 1_555 1_555
C51_3 O31_3 1_555 1_555
C52_3 N7_3 1_555 1_555
C53_3 C52_3 1_555 1_555
H72_3 C53_3 1_555 1_555
H73_3 C53_3 1_555 1_555
C54_3 C53_3 1_555 1_555
H74_3 C54_3 1_555 1_555
C56_3 C54_3 1_555 1_555
H78_3 C56_3 1_555 1_555
H79_3 C56_3 1_555 1_555
H80_3 C56_3 1_555 1_555
O37_3 Cu7_3 1_555 1_555
Cu9_3 O15_3 1_555 1_555
Cu10_4 O60 1_555 1_555
Cu11_3 O39_3 1_555 1_555
O60 Cu15_2 1_555 1_555
O39_3 Ba2_3 1_555 1_555
N9_4 Cu9_3 1_555 1_555
N10_4 Cu10_4 1_555 1_555
N11_3 Cu11_3 1_555 1_555
N15 C71_4 1_555 1_555
O40_4 Cu10_4 1_555 1_555
O41_3 Ba2_3 1_555 1_555
O42_4 Cu9_3 1_555 1_555
O43_4 Cu10_4 1_555 1_555
O62 Cu10_4 1_555 1_555
O45_4 C70_4 1_555 1_555
O46_4 C69_4 1_555 1_555
O66 Cu10_4 1_555 1_555
O48_3 Cu11_3 1_555 1_555
O49_3 C79_3 1_555 1_555
O50_3 Cu5_3 1_555 1_555
O69 C78_4 1_555 1_555
O52_3 Cu11_3 1_555 1_555
O53_3 Ba2_3 1_555 1_555
C57_4 N10_4 1_555 1_555
C58_4 N9_4 1_555 1_555
C59_4 N9_4 1_555 1_555
H81_4 C59_4 1_555 1_555
C60_4 C59_4 1_555 1_555
H82_4 C60_4 1_555 1_555
H83_4 C60_4 1_555 1_555
C61_4 H84_4 1_555 1_555
H85_4 C61_4 1_555 1_555
H86_4 C61_4 1_555 1_555
C62_4 H87_3 1_555 1_555
H88_3 C62_4 1_555 1_555
C63_4 C60_4 1_555 1_555
H90_4 C63_4 1_555 1_555
C64_4 N10_4 1_555 1_555
H91_4 C64_4 1_555 1_555
C65_4 C64_4 1_555 1_555
H92_4 C65_4 1_555 1_555
H93_4 C65_4 1_555 1_555
C66_4 C65_4 1_555 1_555
H94_4 C66_4 1_555 1_555
C67_3 C66_4 1_555 1_555
H95_3 C67_3 1_555 1_555
H96_3 C67_3 1_555 1_555
H97_3 C67_3 1_555 1_555
C68_4 C66_4 1_555 1_555
H98_4 C68_4 1_555 1_555
H99_4 C68_4 1_555 1_555
H100_4 C68_4 1_555 1_555
C69_4 O62 1_555 1_555
C70_4 O66 1_555 1_555
C71_4 O52_3 1_555 1_555
C72_4 N15 1_555 1_555
H101_4 C72_4 1_555 1_555
C73_4 C72_4 1_555 1_555
H102_4 C73_4 1_555 1_555
H103_4 C73_4 1_555 1_555
C74_4 C73_4 1_555 1_555
H104_3 C74_4 1_555 1_555
C75_4 C74_4 1_555 1_555
H105_4 C75_4 1_555 1_555
H106_3 C75_4 1_555 1_555
H107_4 C75_4 1_555 1_555
C76_3 C74_4 1_555 1_555
H108_4 C76_3 1_555 1_555
H109_3 C76_3 1_555 1_555
H110_3 C76_3 1_555 1_555
C77_3 O50_3 1_555 1_555
C78_4 N11_3 1_555 1_555
C79_3 O48_3 1_555 1_555
C80_3 N11_3 1_555 1_555
H111_4 C80_3 1_555 1_555
C81_3 C80_3 1_555 1_555
H112_3 C81_3 1_555 1_555
H113_3 C81_3 1_555 1_555
C82_3 C81_3 1_555 1_555
H114_3 C82_3 1_555 1_555
C83 C82_3 1_555 1_555
H115 C83 1_555 1_555
H116 C83 1_555 1_555
H117 C83 1_555 1_555
C84_3 C82_3 1_555 1_555
H118_3 C84_3 1_555 1_555
H119_3 C84_3 1_555 1_555
H120_3 C84_3 1_555 1_555
O54_3 Cu11_3 1_555 1_555
Cu15_2 O45_4 1_555 1_555
O55_4 Ba5 1_555 1_555
O56_4 Ba3_4 1_555 1_555
O57_4 Ba5 1_555 1_555
O58_4 Ba3_4 1_555 1_555
Ba5 O9_4 1_555 1_555
Ba2_3 O18_3 1_555 1_555
Ba3_4 O55_4 1_555 1_555
Ba3_4 O57_4 1_555 1_555
O7_4 C1_4 1_555 1_555
O8_4 C2_4 1_555 1_555
C1_4 C2_4 1_555 1_555
C3_4 C21_3 1_555 1_555
C5_4 C7_4 1_555 1_555
C6_4 C7_4 1_555 1_555
C8_4 C13_4 1_555 1_555
C14_4 C16_4 1_555 1_555
C15_4 C22_4 1_555 1_555
C23_3 C24_3 1_555 1_555
Cu5_3 O36_3 1_555 1_555
O36_3 C49_3 1_555 1_555
C51_3 C52_3 1_555 1_555
Cu9_3 O39_3 1_555 1_555
Cu9_3 O53_3 1_555 1_555
O42_4 C57_4 1_555 1_555
O43_4 C58_4 1_555 1_555
O53_3 C77_3 1_555 1_555
C57_4 C58_4 1_555 1_555
C59_4 C77_3 1_555 1_555
C61_4 C63_4 1_555 1_555
C62_4 C63_4 1_555 1_555
C64_4 C69_4 1_555 1_555
C70_4 C72_4 1_555 1_555
C71_4 C78_4 1_555 1_555
C79_3 C80_3 1_555 1_555
O5_4 H125_4 1_555 1_555
O5_4 H126_4 1_555 1_555
O20_3 H129_3 1_555 1_555
O20_3 H130_3 1_555 1_555
O37_3 H135_3 1_555 1_555
O37_3 H136_3 1_555 1_555
O40_4 H137_4 1_555 1_555
O40_4 H138_4 1_555 1_555
O54_3 H143_3 1_555 1_555
O54_3 H144_3 1_555 1_555
H15_3 C11_3 1_555 1_555
H16_3 C11_3 1_555 1_555
H17_3 C11_3 1_555 1_555
Cu6_4 O59_2 1_555 1_555
N6_4 Cu6_4 1_555 1_555
N14_2 C43_4 1_555 1_555
O23_4 Cu6_4 1_555 1_555
O26_4 Cu6_4 1_555 1_555
O61_2 Cu6_4 1_555 1_555
O28_4 C42_4 1_555 1_555
O29_4 C41_4 1_555 1_555
O64_2 Cu6_4 1_555 1_555
O68_2 C50_4 1_555 1_555
C29_4 N6_4 1_555 1_555
C30_4 N5_4 1_555 1_555
C31_4 N5_4 1_555 1_555
H41_4 C31_4 1_555 1_555
C32_4 C31_4 1_555 1_555
H42_4 C32_4 1_555 1_555
H43_4 C32_4 1_555 1_555
C33_4 H44_4 1_555 1_555
H45_4 C33_4 1_555 1_555
H46_4 C33_4 1_555 1_555
C34_4 H47_3 1_555 1_555
H48_3 C34_4 1_555 1_555
H49_3 C34_4 1_555 1_555
C35_4 C32_4 1_555 1_555
H50_4 C35_4 1_555 1_555
C36_4 N6_4 1_555 1_555
H51_4 C36_4 1_555 1_555
C37_4 C36_4 1_555 1_555
H52_4 C37_4 1_555 1_555
H53_4 C37_4 1_555 1_555
C38_4 C37_4 1_555 1_555
H54_4 C38_4 1_555 1_555
C39_3 C38_4 1_555 1_555
H55_3 C39_3 1_555 1_555
H56_3 C39_3 1_555 1_555
H57_3 C39_3 1_555 1_555
C40_4 C38_4 1_555 1_555
H58_4 C40_4 1_555 1_555
H59_4 C40_4 1_555 1_555
H60_4 C40_4 1_555 1_555
C41_4 O61_2 1_555 1_555
C42_4 O64_2 1_555 1_555
C44_4 N14_2 1_555 1_555
H61_4 C44_4 1_555 1_555
C45_4 C44_4 1_555 1_555
H62_4 C45_4 1_555 1_555
H63_4 C45_4 1_555 1_555
C46_4 C45_4 1_555 1_555
C47_4 C46_4 1_555 1_555
H65_4 C47_4 1_555 1_555
H67_4 C47_4 1_555 1_555
Cu14_2 O28_4 1_555 1_555
O25_4 C29_4 1_555 1_555
O26_4 C30_4 1_555 1_555
C29_4 C30_4 1_555 1_555
C33_4 C35_4 1_555 1_555
C34_4 C35_4 1_555 1_555
C36_4 C41_4 1_555 1_555
C42_4 C44_4 1_555 1_555
C43_4 C50_4 1_555 1_555
O23_4 H133_4 1_555 1_555
O23_4 H134_4 1_555 1_555
H115_2 C83_2 1_555 1_555
H116_2 C83_2 1_555 1_555
H117_2 C83_2 1_555 1_555
H115_3 C83_3 1_555 1_555
H116_3 C83_3 1_555 1_555
H117_3 C83_3 1_555 1_555
H75_2 C55_2 1_555 1_555
H76_2 C55_2 1_555 1_555
H77_2 C55_2 1_555 1_555
H15_4 C11_4 1_555 1_555
H16_4 C11_4 1_555 1_555
H17_4 C11_4 1_555 1_555
H95_4 C67_4 1_555 1_555
H96_4 C67_4 1_555 1_555
H97_4 C67_4 1_555 1_555
H55_4 C39_4 1_555 1_555
H56_4 C39_4 1_555 1_555
H57_4 C39_4 1_555 1_555
Cu1_4 O2_4 1_555 1_555
Cu3_4 O2_4 1_555 1_555
Ba2_4 O2_4 1_555 1_555
N3_4 Cu3_4 1_555 1_555
O4_4 Ba2_4 1_555 1_555
O6_4 Ba2_4 1_555 1_555
O13_4 Cu3_4 1_555 1_555
O14_4 C23_4 1_555 1_555
O15_4 C21_4 1_555 1_555
O17_4 Cu3_4 1_555 1_555
O18_4 Cu1_4 1_555 1_555
H29_4 C20_4 1_555 1_555
H30_4 C20_4 1_555 1_555
C21_4 O18_4 1_555 1_555
C23_4 O13_4 1_555 1_555
C24_4 N3_4 1_555 1_555
C25_4 C24_4 1_555 1_555
H32_4 C25_4 1_555 1_555
H33_4 C25_4 1_555 1_555
C26_4 C25_4 1_555 1_555
H34_4 C26_4 1_555 1_555
C27_3 C26_4 1_555 1_555
H35_3 C27_3 1_555 1_555
H36_3 C27_3 1_555 1_555
H37_3 C27_3 1_555 1_555
C28_4 C26_4 1_555 1_555
H38_4 C28_4 1_555 1_555
H39_4 C28_4 1_555 1_555
H40_4 C28_4 1_555 1_555
O20_4 Cu3_4 1_555 1_555
Cu5_4 O22_4 1_555 1_555
Cu7_4 O22_4 1_555 1_555
O22_4 Ba2_4 1_555 1_555
N7_4 Cu7_4 1_555 1_555
O24_4 Ba2_4 1_555 1_555
O31_4 Cu7_4 1_555 1_555
O32_4 C51_4 1_555 1_555
O33_4 Cu1_4 1_555 1_555
O35_4 Cu7_4 1_555 1_555
O36_4 Ba2_4 1_555 1_555
H69_4 C48_4 1_555 1_555
H70_4 C48_4 1_555 1_555
C49_4 O33_4 1_555 1_555
C51_4 O31_4 1_555 1_555
C52_4 N7_4 1_555 1_555
C53_4 C52_4 1_555 1_555
H72_4 C53_4 1_555 1_555
H73_4 C53_4 1_555 1_555
C54_4 C53_4 1_555 1_555
H74_4 C54_4 1_555 1_555
C55_3 C54_4 1_555 1_555
H75_3 C55_3 1_555 1_555
H76_3 C55_3 1_555 1_555
H77_3 C55_3 1_555 1_555
C56_4 C54_4 1_555 1_555
H78_4 C56_4 1_555 1_555
H79_4 C56_4 1_555 1_555
H80_4 C56_4 1_555 1_555
O37_4 Cu7_4 1_555 1_555
Cu9_4 O15_4 1_555 1_555
Cu11_4 O39_4 1_555 1_555
O39_4 Ba2_4 1_555 1_555
N11_4 Cu11_4 1_555 1_555
O41_4 Ba2_4 1_555 1_555
O48_4 Cu11_4 1_555 1_555
O49_4 C79_4 1_555 1_555
O50_4 Cu5_4 1_555 1_555
O52_4 Cu11_4 1_555 1_555
O53_4 Ba2_4 1_555 1_555
H109_4 C76_4 1_555 1_555
H110_4 C76_4 1_555 1_555
C77_4 O50_4 1_555 1_555
C79_4 O48_4 1_555 1_555
C80_4 N11_4 1_555 1_555
C81_4 C80_4 1_555 1_555
H112_4 C81_4 1_555 1_555
H113_4 C81_4 1_555 1_555
C82_4 C81_4 1_555 1_555
H114_4 C82_4 1_555 1_555
C83_4 C82_4 1_555 1_555
H115_4 C83_4 1_555 1_555
H116_4 C83_4 1_555 1_555
H117_4 C83_4 1_555 1_555
C84_4 C82_4 1_555 1_555
H118_4 C84_4 1_555 1_555
H119_4 C84_4 1_555 1_555
H120_4 C84_4 1_555 1_555
O54_4 Cu11_4 1_555 1_555
Ba2_4 O18_4 1_555 1_555
C23_4 C24_4 1_555 1_555
Cu5_4 O36_4 1_555 1_555
O36_4 C49_4 1_555 1_555
C51_4 C52_4 1_555 1_555
Cu9_4 O39_4 1_555 1_555
Cu9_4 O53_4 1_555 1_555
O53_4 C77_4 1_555 1_555
C79_4 C80_4 1_555 1_555
O20_4 H129_4 1_555 1_555
O20_4 H130_4 1_555 1_555
O37_4 H135_4 1_555 1_555
O37_4 H136_4 1_555 1_555
O54_4 H143_4 1_555 1_555
O54_4 H144_4 1_555 1_555
H75_4 C55_4 1_555 1_555
H76_4 C55_4 1_555 1_555
H77_4 C55_4 1_555 1_555
H35_4 C27_4 1_555 1_555
H36_4 C27_4 1_555 1_555
H37_4 C27_4 1_555 1_555

#END
