
###############################################################################
#
# This file contains modified crystal structure data generated from the
# MOF subset of the Cambridge Structural Database (CSD) v543 
# hosted by the Cambridge Crystallographic Data Centre (CCDC).
#
# This work is licensed under the Creative Commons
# Attribution-NonCommercial-ShareAlike 4.0 International License.
# To view a copy of this license, visit
# http://creativecommons.org/licenses/by-nc-sa/4.0/
# or send a letter to
# Creative Commons, PO Box 1866, Mountain View, CA 94042, USA.
#
# CIF created using the CSD Python API on 29 September 2022
# The structure has been converted into the P1 space group
# The structure has a 3D framework
# The original CSD entry UTACUP is in the rhombohedral crystal system
# The original CSD entry UTACUP is in a Sohncke space group
# The framework has been calculated to contain at least 10.0% void space
# The void calculation uses a probe of radius 1.32A, grid spacing 0.4
# H atom positions have been added when not included in the experimental data
#
###############################################################################

data_UTACUP
_chemical_formula_moiety         '(C126 H216 Ba5 Cu18 N18 O82)n'
_symmetry_cell_setting           triclinic
_symmetry_space_group_name_H-M   'P 1'
_symmetry_Int_Tables_number      1
_space_group_name_Hall           'P 1'
loop_
_symmetry_equiv_pos_site_id
_symmetry_equiv_pos_as_xyz
1 x,y,z
_cell_length_a                   14.4099(15)
_cell_length_b                   14.4099(15)
_cell_length_c                   33.222(4)
_cell_angle_alpha                90
_cell_angle_beta                 90
_cell_angle_gamma                120
_cell_volume                     5974.18
loop_
_atom_site_label
_atom_site_type_symbol
_atom_site_fract_x
_atom_site_fract_y
_atom_site_fract_z
O31 O 0.1470(5) 0.0663(9) 0.0024(2)
Ba1 Ba 0.0000 0.0000 0.93687(3)
Cu1 Cu 0.06718(9) 0.15424(9) 0.81192(2)
O1 O 0.0000 0.0000 0.7985(3)
O2 O 0.0897(5) 0.1962(5) 0.7537(2)
O3 O 0.0653(5) 0.1473(5) 0.87134(19)
O4 O 0.1220(5) 0.2437(5) 0.92765(19)
O5 O 0.2116(7) 0.4224(5) 0.61293(19)
O6 O 0.2527(7) 0.5197(5) 0.6691(2)
O7 O 0.2275(7) 0.4699(5) 0.7870(2)
N1 N 0.1400(6) 0.3072(5) 0.8221(2)
N2 N 0.1674(8) 0.3592(5) 0.7187(2)
C1 C 0.1136(7) 0.2377(7) 0.8897(3)
C2 C 0.1574(8) 0.3415(7) 0.8638(3)
H1 H 0.2365 0.3848 0.8683
C3 C 0.1067(10) 0.4125(8) 0.8768(3)
C4 C 0.1719(7) 0.3668(7) 0.7896(3)
C6 C 0.1672(19) 0.509(2) 0.8896(14)
H5 H 0.1229 0.5403 0.8967
H6 H 0.2178 0.5517 0.8684
H7 H 0.2069 0.5075 0.9133
C7 C 0.2090(10) 0.4283(7) 0.6506(3)
C8 C 0.1491(11) 0.3233(7) 0.6758(3)
H8 H 0.1843 0.2796 0.6709
C9 C 0.0288(14) 0.2554(9) 0.6631(4)
C10 C 0.1377(10) 0.3004(7) 0.7506(3)
H9 H 0.0125 0.3894 0.6688
H14 H 0.0049 0.1100 0.6497
Cu2 Cu 0.24729(13) 0.51227(9) 0.72848(2)
O9 O 0.3333 0.6667 0.7421(3)
O10 O 0.4376(8) 0.5395(6) 0.7291(2)
H19 H 0.4411 0.5130 0.7070
C14 C 0.4747(15) 0.4991(11) 0.7604(4)
H20 H 0.5531 0.5396 0.7612
H21 H 0.4503 0.4233 0.7554
H22 H 0.4462 0.5064 0.7862
C33 C 0.3663(15) 0.0111(11) 0.8671(5)
H46 H 0.4413 0.0416 0.8752
H47 H 0.3342 0.0473 0.8816
H48 H 0.3627 0.0211 0.8381
C39 C 0.3454(18) 0.0331(15) 0.6736(5)
H54 H 0.3541 0.0543 0.7020
H55 H 0.3815 0.0972 0.6567
C40 C 0.171(4) 0.031(4) 0.6663(9)
H56 H 0.2163 0.1035 0.6569
H57 H 0.1502 0.0309 0.6945
O25 O 0.2315(8) 0.1279(6) 0.8116(2)
H59 H 0.2628 0.1577 0.8332
C41 C 0.3082(15) 0.1665(10) 0.7788(4)
H60 H 0.2702 0.1397 0.7532
H61 H 0.3591 0.1409 0.7824
H62 H 0.3470 0.2450 0.7786
Ba4 Ba 0.3333 0.6667 0.60354(3)
O28 O 0.2443(5) 0.1225(9) 0.94626(19)
Cu8 Cu 0.48773(9) 0.73502(16) 0.72848(2)
Cu10 Cu 0.26498(16) 0.75271(13) 0.72848(2)
O37 O 0.1019(10) 0.5624(8) 0.7291(2)
H67 H 0.0916856 0.380321 0.907266
H70 H 0.0353344 0.265559 0.63055
Ba1_2 Ba 0.0000 1.0000 0.93687(3)
O1_2 O 0.0000 1.0000 0.7985(3)
Cu5 Cu 0.08706(13) 0.93282(9) 0.81192(2)
O19 O 0.1065(7) 0.9103(5) 0.7537(2)
O20 O 0.0820(7) 0.9347(5) 0.87134(19)
O21 O 0.1217(7) 0.8780(5) 0.92765(19)
O22 O 0.2108(9) 0.7884(7) 0.61293(19)
O23 O 0.2670(9) 0.7473(7) 0.6691(2)
O24 O 0.2424(9) 0.7725(7) 0.7870(2)
N5 N 0.1672(8) 0.8600(6) 0.8221(2)
N6 N 0.1918(9) 0.8326(8) 0.7187(2)
C29 C 0.1241(10) 0.8864(7) 0.8897(3)
C30 C 0.1841(11) 0.8426(8) 0.8638(3)
H45 H 0.1483 0.7635 0.8683
C31 C 0.3058(13) 0.8933(10) 0.8768(3)
C32 C 0.1949(10) 0.8281(7) 0.7896(3)
C34 C 0.3418(28) 0.8328(19) 0.8896(14)
H49 H 0.4174 0.8771 0.8967
H50 H 0.3339 0.7822 0.8684
H51 H 0.3006 0.7931 0.9133
C35 C 0.2193(12) 0.7910(10) 0.6506(3)
C36 C 0.1742(13) 0.8509(11) 0.6758(3)
H52 H 0.0953 0.8157 0.6709
C37 C 0.2266(17) 0.9712(14) 0.6631(4)
C38 C 0.1627(12) 0.8623(10) 0.7506(3)
H53 H 0.3769 0.9875 0.6688
H58 H 0.1051 0.9951 0.6497
H63 H 0.0719 0.5589 0.7070
C42 C 0.0244(19) 0.5253(15) 0.7604(4)
H66 H 0.0602 0.5538 0.7862
O36 O 0.4605(6) 0.8981(10) 0.7291(2)
H71 H 0.288635 0.908314 0.907266
H72 H 0.230224 0.964666 0.63055
O32 O 0.9337(9) 0.0806(7) 0.0024(2)
Ba1_3 Ba 1.0000 0.0000 0.93687(3)
O1_3 O 1.0000 0.0000 0.7985(3)
C5 C 0.9889(11) 0.3552(10) 0.8671(5)
H2 H 0.9584 0.3997 0.8752
H3 H 0.9527 0.2869 0.8816
H4 H 0.9789 0.3416 0.8381
C11 C 0.9669(15) 0.3123(10) 0.6736(5)
H10 H 0.9457 0.2998 0.7020
H11 H 0.9028 0.2843 0.6567
C12 C 0.969(4) 0.140(2) 0.6663(9)
H12 H 0.8965 0.1128 0.6569
H13 H 0.9691 0.1193 0.6945
O8 O 0.8721(6) 0.1036(6) 0.8116(2)
H15 H 0.8423 0.1051 0.8332
C13 C 0.8335(10) 0.1417(11) 0.7788(4)
H16 H 0.8603 0.1305 0.7532
H17 H 0.8591 0.2182 0.7824
H18 H 0.7550 0.1020 0.7786
H42 H 0.4604 0.0135 0.7612
H43 H 0.5767 0.0270 0.7554
O29 O 0.8775(9) 0.1217(7) 0.94626(19)
O30 O 0.9194(7) 0.8530(5) 0.0024(2)
Ba1_4 Ba 1.0000 1.0000 0.93687(3)
O1_4 O 1.0000 1.0000 0.7985(3)
Cu3 Cu 0.84576(9) 0.91294(13) 0.81192(2)
O11 O 0.8038(5) 0.8935(7) 0.7537(2)
O12 O 0.8527(5) 0.9180(7) 0.87134(19)
O13 O 0.7563(5) 0.8783(7) 0.92765(19)
O14 O 0.5776(5) 0.7892(9) 0.61293(19)
O15 O 0.4803(5) 0.7330(9) 0.6691(2)
O16 O 0.5301(5) 0.7576(9) 0.7870(2)
N3 N 0.6928(5) 0.8328(8) 0.8221(2)
N4 N 0.6408(5) 0.8082(9) 0.7187(2)
C15 C 0.7623(7) 0.8759(10) 0.8897(3)
C16 C 0.6585(7) 0.8159(11) 0.8638(3)
H23 H 0.6152 0.8517 0.8683
C17 C 0.5875(8) 0.6942(13) 0.8768(3)
C18 C 0.6332(7) 0.8051(10) 0.7896(3)
C19 C 0.6448(10) 0.6337(15) 0.8671(5)
H24 H 0.6003 0.5587 0.8752
H25 H 0.7131 0.6658 0.8816
H26 H 0.6584 0.6373 0.8381
C20 C 0.491(2) 0.6582(28) 0.8896(14)
H27 H 0.4597 0.5826 0.8967
H28 H 0.4483 0.6661 0.8684
H29 H 0.4925 0.6994 0.9133
C21 C 0.5717(7) 0.7807(12) 0.6506(3)
C22 C 0.6767(7) 0.8258(13) 0.6758(3)
H30 H 0.7204 0.9047 0.6709
C23 C 0.7446(9) 0.7734(17) 0.6631(4)
C24 C 0.6996(7) 0.8373(12) 0.7506(3)
C25 C 0.6877(10) 0.6546(18) 0.6736(5)
H31 H 0.6106 0.6231 0.6688
H32 H 0.7002 0.6459 0.7020
H33 H 0.7157 0.6185 0.6567
C26 C 0.860(2) 0.829(4) 0.6663(9)
H34 H 0.8872 0.7837 0.6569
H35 H 0.8807 0.8498 0.6945
H36 H 0.8900 0.8949 0.6497
O17 O 0.8964(6) 0.7685(8) 0.8116(2)
H37 H 0.8949 0.7372 0.8332
C27 C 0.8583(11) 0.6918(15) 0.7788(4)
H38 H 0.8695 0.7298 0.7532
H39 H 0.7818 0.6409 0.7824
H40 H 0.8980 0.6530 0.7786
H41 H 0.4870 0.9281 0.7070
C28 C 0.5009(11) 0.9756(19) 0.7604(4)
H44 H 0.4936 0.9398 0.7862
H64 H 0.9865 0.4469 0.7612
H65 H 0.9730 0.5497 0.7554
O27 O 0.8783(7) 0.7557(5) 0.94626(19)
H68 H 0.619679 0.711365 0.907266
H69 H 0.734441 0.769776 0.63055
O9_2 O -0.0000 0.0000 0.0754(3)
Cu8_2 Cu 0.15440(9) 0.06835(16) 0.06181(2)
O9_3 O -0.0000 1.0000 0.0754(3)
O10_2 O 0.1043(8) 0.8728(6) 0.0624(2)
H19_2 H 0.1078 0.8463 0.0403
C14_2 C 0.1414(15) 0.8324(11) 0.0937(4)
H20_2 H 0.2198 0.8729 0.0945
H21_2 H 0.1170 0.7566 0.0887
H22_2 H 0.1129 0.8397 0.1195
C33_2 C 0.0330(15) 0.3444(11) 0.2004(5)
H46_2 H 0.1080 0.3749 0.2085
H47_2 H 0.0009 0.3806 0.2149
H48_2 H 0.0294 0.3544 0.1714
C34_2 C 0.0085(28) 0.1661(19) 0.2229(14)
H49_2 H 0.0841 0.2104 0.2300
H50_2 H 0.0006 0.1155 0.2017
C39_2 C 0.0121(18) 0.3664(15) 0.0069(5)
H53_2 H 0.0436 0.3208 0.0021
H54_2 H 0.0208 0.3876 0.0353
H61_2 H 0.0258 0.4742 0.1157
H62_2 H 0.0137 0.5783 0.1119
O36_2 O 0.1272(6) 0.2314(10) 0.0624(2)
H55_2 H 0.0482 0.4305 0.9900
O9_4 O 1.0000 0.0000 0.0754(3)
Cu10_2 Cu 0.93165(16) 0.08604(13) 0.06181(2)
Ba1_5 Ba 0.6667 0.3333 0.27020(3)
Cu1_2 Cu 0.73385(9) 0.48757(9) 0.14525(2)
O1_5 O 0.6667 0.3333 0.1318(3)
O2_2 O 0.7564(5) 0.5295(5) 0.0870(2)
O3_2 O 0.7320(5) 0.4806(5) 0.20467(19)
O4_2 O 0.7887(5) 0.5770(5) 0.26098(19)
O7_2 O 0.8942(7) 0.8032(5) 0.1203(2)
N1_2 N 0.8067(6) 0.6405(5) 0.1554(2)
N2_2 N 0.8341(8) 0.6925(5) 0.0520(2)
C1_2 C 0.7803(7) 0.5710(7) 0.2230(3)
C2_2 C 0.8241(8) 0.6748(7) 0.1971(3)
H1_2 H 0.9032 0.7181 0.2016
C3_2 C 0.7734(10) 0.7458(8) 0.2101(3)
C4_2 C 0.8386(7) 0.7001(7) 0.1229(3)
C5_2 C 0.6556(11) 0.6885(10) 0.2004(5)
H2_2 H 0.6251 0.7330 0.2085
H3_2 H 0.6194 0.6202 0.2149
H4_2 H 0.6456 0.6749 0.1714
C6_2 C 0.8339(19) 0.842(2) 0.2229(14)
H5_2 H 0.7896 0.8736 0.2300
H6_2 H 0.8845 0.8850 0.2017
H7_2 H 0.8736 0.8408 0.2466
C8_2 C 0.8158(11) 0.6566(7) 0.0091(3)
H8_2 H 0.8510 0.6129 0.0042
C10_2 C 0.8044(10) 0.6337(7) 0.0839(3)
C11_2 C 0.6336(15) 0.6456(10) 0.0069(5)
H9_2 H 0.6792 0.7227 0.0021
H10_2 H 0.6124 0.6331 0.0353
H13_2 H 0.6358 0.4526 0.0278
O8_2 O 0.5388(6) 0.4369(6) 0.1449(2)
H15_2 H 0.5090 0.4384 0.1665
C13_2 C 0.5002(10) 0.4750(11) 0.1121(4)
H16_2 H 0.5270 0.4638 0.0865
H17_2 H 0.5258 0.5515 0.1157
H18_2 H 0.4217 0.4353 0.1119
Cu2_2 Cu 0.91396(13) 0.84560(9) 0.06181(2)
O9_5 O 1.0000 1.0000 0.0754(3)
Cu3_2 Cu 0.51243(9) 0.24627(13) 0.14525(2)
O11_2 O 0.4705(5) 0.2268(7) 0.0870(2)
O12_2 O 0.5194(5) 0.2513(7) 0.20467(19)
O13_2 O 0.4230(5) 0.2116(7) 0.26098(19)
O16_2 O 0.1968(5) 0.0909(9) 0.1203(2)
N3_2 N 0.3595(5) 0.1661(8) 0.1554(2)
N4_2 N 0.3075(5) 0.1415(9) 0.0520(2)
C15_2 C 0.4290(7) 0.2092(10) 0.2230(3)
C16_2 C 0.3252(7) 0.1492(11) 0.1971(3)
H23_2 H 0.2819 0.1850 0.2016
C17_2 C 0.2542(8) 0.0275(13) 0.2101(3)
C18_2 C 0.2999(7) 0.1384(10) 0.1229(3)
H29_2 H 0.1592 0.0327 0.2466
C22_2 C 0.3434(7) 0.1591(13) 0.0091(3)
H30_2 H 0.3871 0.2380 0.0042
C24_2 C 0.3663(7) 0.1706(12) 0.0839(3)
H35_2 H 0.5474 0.1831 0.0278
O17_2 O 0.5631(6) 0.1018(8) 0.1449(2)
H37_2 H 0.5616 0.0705 0.1665
C27_2 C 0.5250(11) 0.0251(15) 0.1121(4)
H38_2 H 0.5362 0.0631 0.0865
H41_2 H 0.1537 0.2614 0.0403
C28_2 C 0.1676(11) 0.3089(19) 0.0937(4)
H42_2 H 0.1271 0.3468 0.0945
H43_2 H 0.2434 0.3603 0.0887
H44_2 H 0.1603 0.2731 0.1195
Cu5_2 Cu 0.75373(13) 0.26615(9) 0.14525(2)
O19_2 O 0.7732(7) 0.2436(5) 0.0870(2)
O20_2 O 0.7487(7) 0.2680(5) 0.20467(19)
O21_2 O 0.7884(7) 0.2113(5) 0.26098(19)
O24_2 O 0.9091(9) 0.1058(7) 0.1203(2)
N5_2 N 0.8339(8) 0.1933(6) 0.1554(2)
N6_2 N 0.8585(9) 0.1659(8) 0.0520(2)
C29_2 C 0.7908(10) 0.2197(7) 0.2230(3)
C30_2 C 0.8508(11) 0.1759(8) 0.1971(3)
H45_2 H 0.8150 0.0968 0.2016
C31_2 C 0.9725(13) 0.2266(10) 0.2101(3)
C32_2 C 0.8616(10) 0.1614(7) 0.1229(3)
H51_2 H 0.9673 0.1264 0.2466
C36_2 C 0.8409(13) 0.1842(11) 0.0091(3)
H52_2 H 0.7620 0.1490 0.0042
C38_2 C 0.8294(12) 0.1956(10) 0.0839(3)
H57_2 H 0.8169 0.3642 0.0278
O25_2 O 0.8982(8) 0.4612(6) 0.1449(2)
H59_2 H 0.9295 0.4910 0.1665
C41_2 C 0.9749(15) 0.4998(10) 0.1121(4)
H60_2 H 0.9369 0.4730 0.0865
O27_2 O 0.5449(7) 0.0891(5) 0.27960(19)
O28_2 O 0.9109(5) 0.4559(9) 0.27960(19)
O29_2 O 0.5441(9) 0.4551(7) 0.27960(19)
O30_2 O 0.5860(7) 0.1864(5) 0.3358(2)
O31_2 O 0.8136(5) 0.3997(9) 0.3358(2)
O32_2 O 0.6003(9) 0.4140(7) 0.3358(2)
O37_2 O 0.7686(10) 0.8957(8) 0.0624(2)
H67_2 H 0.758352 0.713654 0.240599
H68_2 H 0.286346 0.0446984 0.240599
H71_2 H 0.955302 0.241648 0.240599
C7_2 C 0.8757(10) 0.7616(7) 0.9839(3)
C9_2 C 0.6955(14) 0.5887(9) 0.9964(4)
H11_2 H 0.5695 0.6176 0.9900
C12_2 C 0.636(4) 0.473(2) 0.9996(9)
H12_2 H 0.5632 0.4461 0.9902
H14_2 H 0.6716 0.4433 0.9830
C21_2 C 0.2384(7) 0.1140(12) 0.9839(3)
C23_2 C 0.4113(9) 0.1067(17) 0.9964(4)
C26_2 C 0.527(2) 0.162(4) 0.9996(9)
H34_2 H 0.5539 0.1170 0.9902
H36_2 H 0.5567 0.2282 0.9830
C35_2 C 0.8860(12) 0.1243(10) 0.9839(3)
C37_2 C 0.8933(17) 0.3045(14) 0.9964(4)
C40_2 C 0.838(4) 0.364(4) 0.9996(9)
H56_2 H 0.8830 0.4368 0.9902
H58_2 H 0.7718 0.3284 0.9830
H69_2 H 0.401108 0.103109 0.963883
H70_2 H 0.702001 0.598892 0.963883
H72_2 H 0.896891 0.297999 0.963883
C19_2 C 0.3115(10) 0.9670(15) 0.2004(5)
H24_2 H 0.2670 0.8920 0.2085
H25_2 H 0.3798 0.9991 0.2149
H26_2 H 0.3251 0.9706 0.1714
C20_2 C 0.158(2) 0.9915(28) 0.2229(14)
H27_2 H 0.1264 0.9159 0.2300
H28_2 H 0.1150 0.9994 0.2017
C25_2 C 0.3544(10) 0.9879(18) 0.0069(5)
H31_2 H 0.2773 0.9564 0.0021
H32_2 H 0.3669 0.9792 0.0353
H39_2 H 0.4485 0.9742 0.1157
H40_2 H 0.5647 0.9863 0.1119
H63_2 H 0.7386 0.8922 0.0403
C42_2 C 0.6911(19) 0.8586(15) 0.0937(4)
H64_2 H 0.6532 0.7802 0.0945
H65_2 H 0.6397 0.8830 0.0887
H66_2 H 0.7269 0.8871 0.1195
H33_2 H 0.3824 0.9518 0.9900
O7_3 O 0.5608(7) 0.1366(5) 0.4537(2)
N2_3 N 0.5007(8) 0.0259(5) 0.3854(2)
C2_3 C 0.4907(8) 0.0082(7) 0.5305(3)
H1_3 H 0.5698 0.0515 0.5350
C3_3 C 0.4400(10) 0.0792(8) 0.5435(3)
C4_3 C 0.5052(7) 0.0335(7) 0.4563(3)
C5_3 C 0.3222(11) 0.0219(10) 0.5338(5)
H2_3 H 0.2917 0.0664 0.5419
H4_3 H 0.3122 0.0083 0.5048
C6_3 C 0.5005(19) 0.176(2) 0.5563(14)
H5_3 H 0.4562 0.2070 0.5634
H6_3 H 0.5511 0.2184 0.5351
H7_3 H 0.5402 0.1742 0.5800
C7_3 C 0.5423(10) 0.0950(7) 0.3173(3)
H9_3 H 0.3458 0.0561 0.3355
Cu2_3 Cu 0.58062(13) 0.17894(9) 0.39515(2)
O9_6 O 0.6666 0.3334 0.4088(3)
O10_3 O 0.7709(8) 0.2062(6) 0.3958(2)
H19_3 H 0.7744 0.1797 0.3737
C14_3 C 0.8080(15) 0.1658(11) 0.4271(4)
H20_3 H 0.8864 0.2063 0.4279
H21_3 H 0.7836 0.0900 0.4221
H22_3 H 0.7795 0.1731 0.4529
Cu8_3 Cu 0.82106(9) 0.40169(16) 0.39515(2)
Cu10_3 Cu 0.59831(16) 0.41938(13) 0.39515(2)
O37_3 O 0.4352(10) 0.2291(8) 0.3958(2)
H67_3 H 0.425019 0.0469873 0.573932
Cu1_3 Cu 0.40051(9) 0.82091(9) 0.47859(2)
O1_6 O 0.3333 0.6667 0.4652(3)
O2_3 O 0.4230(5) 0.8629(5) 0.4204(2)
O3_3 O 0.3986(5) 0.8140(5) 0.53801(19)
O4_3 O 0.4553(5) 0.9104(5) 0.59432(19)
N1_3 N 0.4733(6) 0.9739(5) 0.4888(2)
C1_3 C 0.4469(7) 0.9044(7) 0.5564(3)
H3_3 H 0.2860 0.9536 0.5483
C8_3 C 0.4824(11) 0.9900(7) 0.3425(3)
H8_3 H 0.5176 0.9463 0.3376
C9_3 C 0.3621(14) 0.9221(9) 0.3298(4)
C10_3 C 0.4710(10) 0.9671(7) 0.4173(3)
C11_3 C 0.3002(15) 0.9790(10) 0.3403(5)
H10_3 H 0.2790 0.9665 0.3687
H11_3 H 0.2361 0.9510 0.3234
C12_3 C 0.302(4) 0.807(2) 0.3330(9)
H12_3 H 0.2298 0.7795 0.3236
H13_3 H 0.3024 0.7860 0.3612
H14_3 H 0.3382 0.7767 0.3164
O8_3 O 0.2054(6) 0.7703(6) 0.4783(2)
H15_3 H 0.1756 0.7718 0.4999
C13_3 C 0.1668(10) 0.8084(11) 0.4455(4)
H16_3 H 0.1936 0.7972 0.4199
H17_3 H 0.1924 0.8849 0.4491
H18_3 H 0.0883 0.7687 0.4453
Cu3_3 Cu 0.17909(9) 0.57961(13) 0.47859(2)
O11_3 O 0.1371(5) 0.5602(7) 0.4204(2)
O12_3 O 0.1860(5) 0.5847(7) 0.53801(19)
O13_3 O 0.0896(5) 0.5450(7) 0.59432(19)
N3_3 N 0.0261(5) 0.4995(8) 0.4888(2)
C15_3 C 0.0956(7) 0.5426(10) 0.5564(3)
H25_3 H 0.0464 0.3325 0.5483
C22_3 C 0.0100(7) 0.4925(13) 0.3425(3)
H30_3 H 0.0537 0.5714 0.3376
C23_3 C 0.0779(9) 0.4401(17) 0.3298(4)
C24_3 C 0.0329(7) 0.5040(12) 0.4173(3)
C25_3 C 0.0210(10) 0.3213(18) 0.3403(5)
H32_3 H 0.0335 0.3126 0.3687
H33_3 H 0.0490 0.2852 0.3234
C26_3 C 0.193(2) 0.496(4) 0.3330(9)
H34_3 H 0.2205 0.4504 0.3236
H35_3 H 0.2140 0.5165 0.3612
H36_3 H 0.2233 0.5616 0.3164
O17_3 O 0.2297(6) 0.4352(8) 0.4783(2)
H37_3 H 0.2282 0.4039 0.4999
C27_3 C 0.1916(11) 0.3585(15) 0.4455(4)
H38_3 H 0.2028 0.3965 0.4199
H39_3 H 0.1151 0.3076 0.4491
H40_3 H 0.2313 0.3197 0.4453
Cu5_3 Cu 0.42039(13) 0.59949(9) 0.47859(2)
O19_3 O 0.4398(7) 0.5770(5) 0.4204(2)
O20_3 O 0.4153(7) 0.6014(5) 0.53801(19)
O21_3 O 0.4550(7) 0.5447(5) 0.59432(19)
O24_3 O 0.5757(9) 0.4392(7) 0.4537(2)
N5_3 N 0.5005(8) 0.5267(6) 0.4888(2)
N6_3 N 0.5251(9) 0.4993(8) 0.3854(2)
C29_3 C 0.4574(10) 0.5531(7) 0.5564(3)
C30_3 C 0.5174(11) 0.5093(8) 0.5305(3)
H45_3 H 0.4816 0.4302 0.5350
C31_3 C 0.6391(13) 0.5600(10) 0.5435(3)
C32_3 C 0.5282(10) 0.4948(7) 0.4563(3)
C33_3 C 0.6996(15) 0.6778(11) 0.5338(5)
H46_3 H 0.7746 0.7083 0.5419
H47_3 H 0.6675 0.7140 0.5483
H48_3 H 0.6960 0.6878 0.5048
C34_3 C 0.6751(28) 0.4995(19) 0.5563(14)
H49_3 H 0.7507 0.5438 0.5634
H50_3 H 0.6672 0.4489 0.5351
H51_3 H 0.6339 0.4598 0.5800
C35_3 C 0.5526(12) 0.4577(10) 0.3173(3)
C36_3 C 0.5075(13) 0.5176(11) 0.3425(3)
H52_3 H 0.4286 0.4824 0.3376
C37_3 C 0.5599(17) 0.6379(14) 0.3298(4)
C38_3 C 0.4960(12) 0.5290(10) 0.4173(3)
C39_3 C 0.6787(18) 0.6998(15) 0.3403(5)
H53_3 H 0.7102 0.6542 0.3355
H54_3 H 0.6874 0.7210 0.3687
H55_3 H 0.7148 0.7639 0.3234
C40_3 C 0.504(4) 0.698(4) 0.3330(9)
H56_3 H 0.5496 0.7702 0.3236
H57_3 H 0.4835 0.6976 0.3612
H58_3 H 0.4384 0.6618 0.3164
O25_3 O 0.5648(8) 0.7946(6) 0.4783(2)
H59_3 H 0.5961 0.8244 0.4999
C41_3 C 0.6415(15) 0.8332(10) 0.4455(4)
H60_3 H 0.6035 0.8064 0.4199
H61_3 H 0.6924 0.8076 0.4491
H62_3 H 0.6803 0.9117 0.4453
H63_3 H 0.4052 0.2256 0.3737
C42_3 C 0.3577(19) 0.1920(15) 0.4271(4)
H64_3 H 0.3198 0.1136 0.4279
H65_3 H 0.3063 0.2164 0.4221
H66_3 H 0.3935 0.2205 0.4529
O36_3 O 0.7938(6) 0.5648(10) 0.3958(2)
H69_3 H 0.0677745 0.436442 0.297216
H70_3 H 0.368668 0.932226 0.297216
H71_3 H 0.621968 0.574981 0.573932
H72_3 H 0.563558 0.631332 0.297216
O16_3 O 0.8634(5) 0.4243(9) 0.4537(2)
N4_3 N 0.9741(5) 0.4749(9) 0.3854(2)
C16_3 C 0.9918(7) 0.4826(11) 0.5305(3)
H23_3 H 0.9485 0.5184 0.5350
C17_3 C 0.9208(8) 0.3609(13) 0.5435(3)
C18_3 C 0.9665(7) 0.4718(10) 0.4563(3)
C19_3 C 0.9781(10) 0.3004(15) 0.5338(5)
H24_3 H 0.9336 0.2254 0.5419
H26_3 H 0.9917 0.3040 0.5048
C20_3 C 0.824(2) 0.3249(28) 0.5563(14)
H27_3 H 0.7930 0.2493 0.5634
H28_3 H 0.7816 0.3328 0.5351
H29_3 H 0.8258 0.3661 0.5800
C21_3 C 0.9050(7) 0.4474(12) 0.3173(3)
H31_3 H 0.9439 0.2898 0.3355
H41_3 H 0.8203 0.5948 0.3737
C28_3 C 0.8342(11) 0.6423(19) 0.4271(4)
H42_3 H 0.7937 0.6802 0.4279
H43_3 H 0.9100 0.6937 0.4221
H44_3 H 0.8269 0.6065 0.4529
H68_3 H 0.953013 0.378032 0.573932
loop_
_geom_bond_atom_site_label_1
_geom_bond_atom_site_label_2
_geom_bond_site_symmetry_1
_geom_bond_site_symmetry_2
Ba1 O3 1_555 1_555
Cu1 O1 1_555 1_555
O2 Cu1 1_555 1_555
O3 Cu1 1_555 1_555
O4 Ba1 1_555 1_555
O5 C7 1_555 1_555
O6 C7 1_555 1_555
O7 C4 1_555 1_555
N1 Cu1 1_555 1_555
N2 C8 1_555 1_555
C1 O3 1_555 1_555
C2 N1 1_555 1_555
H1 C2 1_555 1_555
C3 C2 1_555 1_555
C4 N1 1_555 1_555
C6 C3 1_555 1_555
H5 C6 1_555 1_555
H6 C6 1_555 1_555
H7 C6 1_555 1_555
C7 C8 1_555 1_555
C8 H8 1_555 1_555
C9 C8 1_555 1_555
C10 O2 1_555 1_555
Cu2 O6 1_555 1_555
O9 Cu2 1_555 1_555
O10 Cu2 1_555 1_555
H19 O10 1_555 1_555
C14 O10 1_555 1_555
H20 C14 1_555 1_555
H21 C14 1_555 1_555
H22 C14 1_555 1_555
H46 C33 1_555 1_555
H47 C33 1_555 1_555
H48 C33 1_555 1_555
H54 C39 1_555 1_555
H55 C39 1_555 1_555
H56 C40 1_555 1_555
H57 C40 1_555 1_555
O25 Cu1 1_555 1_555
H59 O25 1_555 1_555
C41 O25 1_555 1_555
H60 C41 1_555 1_555
H61 C41 1_555 1_555
H62 C41 1_555 1_555
Ba4 O5 1_555 1_555
O28 Ba1 1_555 1_555
Cu8 O9 1_555 1_555
Cu10 O9 1_555 1_555
O37 Cu2 1_555 1_555
O4 C1 1_555 1_555
O6 Ba4 1_555 1_555
O7 Cu2 1_555 1_555
N2 C10 1_555 1_555
N2 Cu2 1_555 1_555
C1 C2 1_555 1_555
C4 C10 1_555 1_555
O10 Cu8 1_555 1_555
Cu10 O37 1_555 1_555
C3 H67 1_555 1_555
C9 H70 1_555 1_555
Cu5 O1_2 1_555 1_555
O19 Cu5 1_555 1_555
O20 Ba1_2 1_555 1_555
O21 Ba1_2 1_555 1_555
O22 C35 1_555 1_555
O23 C35 1_555 1_555
O24 C32 1_555 1_555
N5 Cu5 1_555 1_555
N6 C36 1_555 1_555
C29 O20 1_555 1_555
C30 N5 1_555 1_555
H45 C30 1_555 1_555
C31 C30 1_555 1_555
C32 N5 1_555 1_555
C34 C31 1_555 1_555
H49 C34 1_555 1_555
H50 C34 1_555 1_555
H51 C34 1_555 1_555
C35 C36 1_555 1_555
C36 H52 1_555 1_555
C37 C36 1_555 1_555
C38 O19 1_555 1_555
Cu10 O23 1_555 1_555
H63 O37 1_555 1_555
C42 O37 1_555 1_555
H66 C42 1_555 1_555
Ba4 O22 1_555 1_555
O36 Cu10 1_555 1_555
Cu5 O20 1_555 1_555
O21 C29 1_555 1_555
O23 Ba4 1_555 1_555
O24 Cu10 1_555 1_555
N6 C38 1_555 1_555
N6 Cu10 1_555 1_555
C29 C30 1_555 1_555
C32 C38 1_555 1_555
C31 H71 1_555 1_555
C37 H72 1_555 1_555
H2 C5 1_555 1_555
H3 C5 1_555 1_555
H4 C5 1_555 1_555
H10 C11 1_555 1_555
H11 C11 1_555 1_555
H12 C12 1_555 1_555
H13 C12 1_555 1_555
H15 O8 1_555 1_555
C13 O8 1_555 1_555
H16 C13 1_555 1_555
H17 C13 1_555 1_555
H18 C13 1_555 1_555
O29 Ba1_3 1_555 1_555
O1_4 Cu3 1_555 1_555
O11 Cu3 1_555 1_555
O12 Ba1_4 1_555 1_555
O13 Ba1_4 1_555 1_555
O14 C21 1_555 1_555
O15 C21 1_555 1_555
O16 C18 1_555 1_555
N3 Cu3 1_555 1_555
N4 C22 1_555 1_555
C15 O12 1_555 1_555
C16 N3 1_555 1_555
H23 C16 1_555 1_555
C17 C16 1_555 1_555
C18 N3 1_555 1_555
C19 C17 1_555 1_555
H24 C19 1_555 1_555
H25 C19 1_555 1_555
H26 C19 1_555 1_555
C20 C17 1_555 1_555
H27 C20 1_555 1_555
H28 C20 1_555 1_555
H29 C20 1_555 1_555
C21 C22 1_555 1_555
C22 H30 1_555 1_555
C23 C22 1_555 1_555
C24 O11 1_555 1_555
C25 C23 1_555 1_555
H31 C25 1_555 1_555
H32 C25 1_555 1_555
H33 C25 1_555 1_555
C26 C23 1_555 1_555
H34 C26 1_555 1_555
H35 C26 1_555 1_555
H36 C26 1_555 1_555
O17 Cu3 1_555 1_555
H37 O17 1_555 1_555
C27 O17 1_555 1_555
H38 C27 1_555 1_555
H39 C27 1_555 1_555
H40 C27 1_555 1_555
Cu8 O15 1_555 1_555
O36 Cu8 1_555 1_555
H41 O36 1_555 1_555
C28 O36 1_555 1_555
H44 C28 1_555 1_555
Ba4 O14 1_555 1_555
O27 Ba1_4 1_555 1_555
Cu3 O12 1_555 1_555
O13 C15 1_555 1_555
O15 Ba4 1_555 1_555
O16 Cu8 1_555 1_555
N4 C24 1_555 1_555
N4 Cu8 1_555 1_555
C15 C16 1_555 1_555
C18 C24 1_555 1_555
C17 H68 1_555 1_555
C23 H69 1_555 1_555
Cu8_2 O9_2 1_555 1_555
H19_2 O10_2 1_555 1_555
C14_2 O10_2 1_555 1_555
H20_2 C14_2 1_555 1_555
H21_2 C14_2 1_555 1_555
H22_2 C14_2 1_555 1_555
H46_2 C33_2 1_555 1_555
H47_2 C33_2 1_555 1_555
H48_2 C33_2 1_555 1_555
H49_2 C34_2 1_555 1_555
H50_2 C34_2 1_555 1_555
H53_2 C39_2 1_555 1_555
H54_2 C39_2 1_555 1_555
Cu10_2 O9_4 1_555 1_555
Ba1_5 O3_2 1_555 1_555
Cu1_2 O1_5 1_555 1_555
O1_5 Cu3_2 1_555 1_555
O2_2 Cu1_2 1_555 1_555
O3_2 Cu1_2 1_555 1_555
O4_2 Ba1_5 1_555 1_555
O7_2 C4_2 1_555 1_555
N1_2 Cu1_2 1_555 1_555
N2_2 C8_2 1_555 1_555
C1_2 O3_2 1_555 1_555
C2_2 N1_2 1_555 1_555
H1_2 C2_2 1_555 1_555
C3_2 C2_2 1_555 1_555
C4_2 N1_2 1_555 1_555
C5_2 C3_2 1_555 1_555
H2_2 C5_2 1_555 1_555
H3_2 C5_2 1_555 1_555
H4_2 C5_2 1_555 1_555
C6_2 C3_2 1_555 1_555
H5_2 C6_2 1_555 1_555
H6_2 C6_2 1_555 1_555
H7_2 C6_2 1_555 1_555
C8_2 H8_2 1_555 1_555
C10_2 O2_2 1_555 1_555
H9_2 C11_2 1_555 1_555
H10_2 C11_2 1_555 1_555
O8_2 Cu1_2 1_555 1_555
H15_2 O8_2 1_555 1_555
C13_2 O8_2 1_555 1_555
H16_2 C13_2 1_555 1_555
H17_2 C13_2 1_555 1_555
H18_2 C13_2 1_555 1_555
Cu2_2 O30 1_555 1_555
O9_5 Cu2_2 1_555 1_555
Cu3_2 O8_2 1_555 1_555
O11_2 Cu3_2 1_555 1_555
O12_2 Ba1_5 1_555 1_555
O13_2 Ba1_5 1_555 1_555
O16_2 C18_2 1_555 1_555
N3_2 Cu3_2 1_555 1_555
N4_2 C22_2 1_555 1_555
C15_2 O12_2 1_555 1_555
C16_2 N3_2 1_555 1_555
H23_2 C16_2 1_555 1_555
C17_2 C16_2 1_555 1_555
C18_2 N3_2 1_555 1_555
C22_2 H30_2 1_555 1_555
C24_2 O11_2 1_555 1_555
O17_2 Cu3_2 1_555 1_555
H37_2 O17_2 1_555 1_555
C27_2 O17_2 1_555 1_555
H38_2 C27_2 1_555 1_555
Cu8_2 O31 1_555 1_555
O36_2 Cu8_2 1_555 1_555
H41_2 O36_2 1_555 1_555
C28_2 O36_2 1_555 1_555
H42_2 C28_2 1_555 1_555
H43_2 C28_2 1_555 1_555
H44_2 C28_2 1_555 1_555
Cu5_2 O1_5 1_555 1_555
O19_2 Cu5_2 1_555 1_555
O20_2 Ba1_5 1_555 1_555
O21_2 Ba1_5 1_555 1_555
O24_2 C32_2 1_555 1_555
N5_2 Cu5_2 1_555 1_555
N6_2 C36_2 1_555 1_555
C29_2 O20_2 1_555 1_555
C30_2 N5_2 1_555 1_555
H45_2 C30_2 1_555 1_555
C31_2 C30_2 1_555 1_555
C32_2 N5_2 1_555 1_555
C36_2 H52_2 1_555 1_555
C38_2 O19_2 1_555 1_555
O25_2 Cu1_2 1_555 1_555
H59_2 O25_2 1_555 1_555
C41_2 O25_2 1_555 1_555
H60_2 C41_2 1_555 1_555
Cu10_2 O32 1_555 1_555
O27_2 Ba1_5 1_555 1_555
O28_2 Ba1_5 1_555 1_555
O29_2 Ba1_5 1_555 1_555
O30_2 Ba1_5 1_555 1_555
O31_2 Ba1_5 1_555 1_555
O32_2 Ba1_5 1_555 1_555
O37_2 Cu2_2 1_555 1_555
O4_2 C1_2 1_555 1_555
O7_2 Cu2_2 1_555 1_555
N2_2 C10_2 1_555 1_555
N2_2 Cu2_2 1_555 1_555
C1_2 C2_2 1_555 1_555
C4_2 C10_2 1_555 1_555
Cu3_2 O12_2 1_555 1_555
O13_2 C15_2 1_555 1_555
O16_2 Cu8_2 1_555 1_555
N4_2 C24_2 1_555 1_555
N4_2 Cu8_2 1_555 1_555
C15_2 C16_2 1_555 1_555
C18_2 C24_2 1_555 1_555
O17_2 Cu5_2 1_555 1_555
Cu5_2 O20_2 1_555 1_555
Cu5_2 O25_2 1_555 1_555
O21_2 C29_2 1_555 1_555
O24_2 Cu10_2 1_555 1_555
N6_2 C38_2 1_555 1_555
N6_2 Cu10_2 1_555 1_555
C29_2 C30_2 1_555 1_555
C32_2 C38_2 1_555 1_555
C3_2 H67_2 1_555 1_555
C17_2 H68_2 1_555 1_555
C31_2 H71_2 1_555 1_555
O27 C7_2 1_555 1_555
C12_2 C9_2 1_555 1_555
H12_2 C12_2 1_555 1_555
H14_2 C12_2 1_555 1_555
O28 C21_2 1_555 1_555
C26_2 C23_2 1_555 1_555
H34_2 C26_2 1_555 1_555
H36_2 C26_2 1_555 1_555
O29 C35_2 1_555 1_555
C40_2 C37_2 1_555 1_555
H56_2 C40_2 1_555 1_555
H58_2 C40_2 1_555 1_555
C23_2 H69_2 1_555 1_555
C9_2 H70_2 1_555 1_555
C37_2 H72_2 1_555 1_555
H24_2 C19_2 1_555 1_555
H25_2 C19_2 1_555 1_555
H26_2 C19_2 1_555 1_555
H27_2 C20_2 1_555 1_555
H28_2 C20_2 1_555 1_555
H31_2 C25_2 1_555 1_555
H32_2 C25_2 1_555 1_555
H63_2 O37_2 1_555 1_555
C42_2 O37_2 1_555 1_555
H64_2 C42_2 1_555 1_555
H65_2 C42_2 1_555 1_555
H66_2 C42_2 1_555 1_555
O27_2 C7_3 1_555 1_555
O30_2 C7_3 1_555 1_555
O7_3 C4_3 1_555 1_555
H1_3 C2_3 1_555 1_555
C3_3 C2_3 1_555 1_555
C5_3 C3_3 1_555 1_555
H2_3 C5_3 1_555 1_555
H4_3 C5_3 1_555 1_555
C6_3 C3_3 1_555 1_555
H5_3 C6_3 1_555 1_555
H6_3 C6_3 1_555 1_555
H7_3 C6_3 1_555 1_555
Cu2_3 O30_2 1_555 1_555
O9_6 Cu2_3 1_555 1_555
O10_3 Cu2_3 1_555 1_555
H19_3 O10_3 1_555 1_555
C14_3 O10_3 1_555 1_555
H20_3 C14_3 1_555 1_555
H21_3 C14_3 1_555 1_555
H22_3 C14_3 1_555 1_555
Cu8_3 O9_6 1_555 1_555
Cu10_3 O9_6 1_555 1_555
O37_3 Cu2_3 1_555 1_555
O7_3 Cu2_3 1_555 1_555
N2_3 Cu2_3 1_555 1_555
O10_3 Cu8_3 1_555 1_555
Cu10_3 O37_3 1_555 1_555
C3_3 H67_3 1_555 1_555
Ba4 O3_3 1_555 1_555
Cu1_3 O1_6 1_555 1_555
O1_6 Cu3_3 1_555 1_555
O2_3 Cu1_3 1_555 1_555
O3_3 Cu1_3 1_555 1_555
O4_3 Ba4 1_555 1_555
N1_3 Cu1_3 1_555 1_555
C1_3 O3_3 1_555 1_555
C8_3 H8_3 1_555 1_555
C9_3 C8_3 1_555 1_555
C10_3 O2_3 1_555 1_555
C11_3 C9_3 1_555 1_555
H10_3 C11_3 1_555 1_555
H11_3 C11_3 1_555 1_555
C12_3 C9_3 1_555 1_555
H12_3 C12_3 1_555 1_555
H13_3 C12_3 1_555 1_555
H14_3 C12_3 1_555 1_555
O8_3 Cu1_3 1_555 1_555
H15_3 O8_3 1_555 1_555
C13_3 O8_3 1_555 1_555
H16_3 C13_3 1_555 1_555
H17_3 C13_3 1_555 1_555
H18_3 C13_3 1_555 1_555
Cu3_3 O8_3 1_555 1_555
O11_3 Cu3_3 1_555 1_555
O12_3 Ba4 1_555 1_555
O13_3 Ba4 1_555 1_555
N3_3 Cu3_3 1_555 1_555
C15_3 O12_3 1_555 1_555
C22_3 H30_3 1_555 1_555
C23_3 C22_3 1_555 1_555
C24_3 O11_3 1_555 1_555
C25_3 C23_3 1_555 1_555
H32_3 C25_3 1_555 1_555
H33_3 C25_3 1_555 1_555
C26_3 C23_3 1_555 1_555
H34_3 C26_3 1_555 1_555
H35_3 C26_3 1_555 1_555
H36_3 C26_3 1_555 1_555
O17_3 Cu3_3 1_555 1_555
H37_3 O17_3 1_555 1_555
C27_3 O17_3 1_555 1_555
H38_3 C27_3 1_555 1_555
H39_3 C27_3 1_555 1_555
H40_3 C27_3 1_555 1_555
Cu5_3 O1_6 1_555 1_555
O19_3 Cu5_3 1_555 1_555
O20_3 Ba4 1_555 1_555
O21_3 Ba4 1_555 1_555
O29_2 C35_3 1_555 1_555
O32_2 C35_3 1_555 1_555
O24_3 C32_3 1_555 1_555
N5_3 Cu5_3 1_555 1_555
N6_3 C36_3 1_555 1_555
C29_3 O20_3 1_555 1_555
C30_3 N5_3 1_555 1_555
H45_3 C30_3 1_555 1_555
C31_3 C30_3 1_555 1_555
C32_3 N5_3 1_555 1_555
C33_3 C31_3 1_555 1_555
H46_3 C33_3 1_555 1_555
H47_3 C33_3 1_555 1_555
H48_3 C33_3 1_555 1_555
C34_3 C31_3 1_555 1_555
H49_3 C34_3 1_555 1_555
H50_3 C34_3 1_555 1_555
H51_3 C34_3 1_555 1_555
C35_3 C36_3 1_555 1_555
C36_3 H52_3 1_555 1_555
C37_3 C36_3 1_555 1_555
C38_3 O19_3 1_555 1_555
C39_3 C37_3 1_555 1_555
H53_3 C39_3 1_555 1_555
H54_3 C39_3 1_555 1_555
H55_3 C39_3 1_555 1_555
C40_3 C37_3 1_555 1_555
H56_3 C40_3 1_555 1_555
H57_3 C40_3 1_555 1_555
H58_3 C40_3 1_555 1_555
O25_3 Cu1_3 1_555 1_555
H59_3 O25_3 1_555 1_555
C41_3 O25_3 1_555 1_555
H60_3 C41_3 1_555 1_555
H61_3 C41_3 1_555 1_555
H62_3 C41_3 1_555 1_555
Cu10_3 O32_2 1_555 1_555
H63_3 O37_3 1_555 1_555
C42_3 O37_3 1_555 1_555
H64_3 C42_3 1_555 1_555
H65_3 C42_3 1_555 1_555
H66_3 C42_3 1_555 1_555
O36_3 Cu10_3 1_555 1_555
O4_3 C1_3 1_555 1_555
Cu3_3 O12_3 1_555 1_555
O13_3 C15_3 1_555 1_555
O17_3 Cu5_3 1_555 1_555
Cu5_3 O20_3 1_555 1_555
Cu5_3 O25_3 1_555 1_555
O21_3 C29_3 1_555 1_555
O24_3 Cu10_3 1_555 1_555
N6_3 C38_3 1_555 1_555
N6_3 Cu10_3 1_555 1_555
C29_3 C30_3 1_555 1_555
C32_3 C38_3 1_555 1_555
C23_3 H69_3 1_555 1_555
C9_3 H70_3 1_555 1_555
C31_3 H71_3 1_555 1_555
C37_3 H72_3 1_555 1_555
O28_2 C21_3 1_555 1_555
O31_2 C21_3 1_555 1_555
O16_3 C18_3 1_555 1_555
H23_3 C16_3 1_555 1_555
C17_3 C16_3 1_555 1_555
C19_3 C17_3 1_555 1_555
H24_3 C19_3 1_555 1_555
H26_3 C19_3 1_555 1_555
C20_3 C17_3 1_555 1_555
H27_3 C20_3 1_555 1_555
H28_3 C20_3 1_555 1_555
H29_3 C20_3 1_555 1_555
Cu8_3 O31_2 1_555 1_555
O36_3 Cu8_3 1_555 1_555
H41_3 O36_3 1_555 1_555
C28_3 O36_3 1_555 1_555
H42_3 C28_3 1_555 1_555
H43_3 C28_3 1_555 1_555
H44_3 C28_3 1_555 1_555
O16_3 Cu8_3 1_555 1_555
N4_3 Cu8_3 1_555 1_555
C17_3 H68_3 1_555 1_555

#END
