
###############################################################################
#
# This file contains modified crystal structure data generated from the
# MOF subset of the Cambridge Structural Database (CSD) v543 
# hosted by the Cambridge Crystallographic Data Centre (CCDC).
#
# This work is licensed under the Creative Commons
# Attribution-NonCommercial-ShareAlike 4.0 International License.
# To view a copy of this license, visit
# http://creativecommons.org/licenses/by-nc-sa/4.0/
# or send a letter to
# Creative Commons, PO Box 1866, Mountain View, CA 94042, USA.
#
# CIF created using the CSD Python API on 29 September 2022
# The structure has been converted into the P1 space group
# The structure has a 3D framework
# The original CSD entry UTACOJ is in the hexagonal crystal system
# The original CSD entry UTACOJ is in a Sohncke space group
# The framework has been calculated to contain at least 10.0% void space
# The void calculation uses a probe of radius 1.32A, grid spacing 0.4
#
###############################################################################

data_UTACOJ
_chemical_formula_moiety         '(C48 H54 Ba2 Cu12 N12 O38)n'
_symmetry_cell_setting           triclinic
_symmetry_space_group_name_H-M   'P 1'
_symmetry_Int_Tables_number      1
_space_group_name_Hall           'P 1'
loop_
_symmetry_equiv_pos_site_id
_symmetry_equiv_pos_as_xyz
1 x,y,z
_cell_length_a                   17.7003(7)
_cell_length_b                   17.7003(7)
_cell_length_c                   13.9208(5)
_cell_angle_alpha                90
_cell_angle_beta                 90
_cell_angle_gamma                120
_cell_volume                     3777.08
loop_
_atom_site_label
_atom_site_type_symbol
_atom_site_fract_x
_atom_site_fract_y
_atom_site_fract_z
O2 O 0.2284(5) 0.5480(5) 0.1405(6)
O3 O 0.2961(6) 0.4956(7) 0.2285(6)
O4 O 0.0115(5) 0.5605(6) 0.1594(6)
N2 N 0.0979(6) 0.5003(7) 0.2518(7)
C1 C 0.2337(8) 0.5093(9) 0.2128(9)
C2 C 0.1556(10) 0.4695(11) 0.2842(11)
H2 H 0.1755 0.4882 0.3517
C3 C 0.1091(7) 0.3634(6) 0.2725(8)
H3 H 0.0598 0.3350 0.3170
H4 H 0.1516 0.3449 0.2872
H5 H 0.0883 0.3469 0.2065
C5 C 0.0237(8) 0.4814(8) 0.2903(8)
Cu8 Cu 0.12542(10) 0.56647(9) 0.13546(6)
Cu10 Cu 0.43353(9) 0.55895(13) 0.13546(6)
Ba4 Ba 0.3333 0.6667 0.01377(14)
Cu1 Cu 0.87458(10) 0.43353(9) 0.63546(6)
Cu2 Cu 0.87357(10) 0.42928(9) 0.39020(6)
Ba1 Ba 0.6667 0.3333 0.51377(14)
O1 O 0.8435(2) 0.3749(2) 0.5115(8)
H1 H 0.839(8) 0.326(4) 0.511(19)
O5 O 0.7738(6) 0.4505(6) 0.3865(7)
O6 O 0.9902(5) 0.4364(5) 0.3680(6)
O7 O 0.7056(6) 0.5027(6) 0.2971(6)
N1 N 0.9035(7) 0.4995(7) 0.2765(8)
C4 C 0.9756(7) 0.5183(7) 0.2350(8)
C6 C 0.7677(9) 0.4916(9) 0.3111(10)
C7 C 0.8385(8) 0.5188(10) 0.2361(10)
H6 H 0.8654 0.5824 0.2212
C8 C 0.7956(6) 0.4606(6) 0.1407(6)
H7 H 0.8397 0.4799 0.0898
H8 H 0.7468 0.4677 0.1192
H9 H 0.7744 0.3991 0.1554
Cu3 Cu 0.56647(9) 0.44105(13) 0.63546(6)
Cu4 Cu 0.57072(9) 0.44429(13) 0.39020(6)
O8 O 0.6251(2) 0.4686(3) 0.5115(8)
H10 H 0.674(4) 0.513(9) 0.511(19)
O9 O 0.4520(5) 0.6804(7) 0.1405(6)
O10 O 0.5044(7) 0.8005(9) 0.2285(6)
O11 O 0.4395(6) 0.4510(8) 0.1594(6)
O12 O 0.5495(6) 0.3233(8) 0.3865(7)
O13 O 0.5636(5) 0.5538(7) 0.3680(6)
O14 O 0.4973(6) 0.2029(8) 0.2971(6)
N3 N 0.5005(7) 0.4040(10) 0.2765(8)
N4 N 0.4997(7) 0.5976(9) 0.2518(7)
C9 C 0.4907(9) 0.7244(12) 0.2128(9)
C10 C 0.5305(11) 0.6861(15) 0.2842(11)
H11 H 0.5118 0.6873 0.3517
C11 C 0.6366(6) 0.7457(9) 0.2725(8)
H12 H 0.6650 0.7248 0.3170
H13 H 0.6551 0.8067 0.2872
H14 H 0.6531 0.7414 0.2065
C12 C 0.4817(7) 0.4573(10) 0.2350(8)
C13 C 0.5186(8) 0.5423(11) 0.2903(8)
C14 C 0.5084(9) 0.2761(13) 0.3111(10)
C15 C 0.4812(10) 0.3197(13) 0.2361(10)
H15 H 0.4176 0.2830 0.2212
C16 C 0.5394(6) 0.3350(8) 0.1407(6)
H16 H 0.5201 0.3598 0.0898
H17 H 0.5323 0.2791 0.1192
H18 H 0.6009 0.3753 0.1554
Cu5 Cu 0.55895(13) 0.12542(10) 0.63546(6)
Cu6 Cu 0.55571(13) 0.12643(10) 0.39020(6)
O15 O 0.5314(3) 0.1565(2) 0.5115(8)
H19 H 0.487(9) 0.161(8) 0.511(19)
O19 O 0.6767(8) 0.2262(6) 0.3865(7)
O20 O 0.4462(7) 0.0098(5) 0.3680(6)
O21 O 0.7971(8) 0.2944(6) 0.2971(6)
N5 N 0.5960(10) 0.0965(7) 0.2765(8)
C20 C 0.5427(10) 0.0244(7) 0.2350(8)
C22 C 0.7239(13) 0.2323(9) 0.3111(10)
C23 C 0.6803(13) 0.1615(8) 0.2361(10)
H24 H 0.7170 0.1346 0.2212
C24 C 0.6650(8) 0.2044(6) 0.1407(6)
H25 H 0.6402 0.1603 0.0898
H26 H 0.7209 0.2532 0.1192
H27 H 0.6247 0.2256 0.1554
Cu12 Cu 0.44105(13) 0.87458(10) 0.13546(6)
O22 O 0.7716(5) 0.4520(5) 0.6405(6)
O23 O 0.5480(5) 0.3196(7) 0.6405(6)
O24 O 0.6804(7) 0.2284(5) 0.6405(6)
O25 O 0.7039(6) 0.5044(7) 0.7285(6)
O26 O 0.4956(7) 0.1995(9) 0.7285(6)
O27 O 0.8005(9) 0.2961(6) 0.7285(6)
O28 O 0.9885(5) 0.4395(6) 0.6594(6)
O29 O 0.5605(6) 0.5490(8) 0.6594(6)
O30 O 0.4510(8) 0.0115(5) 0.6594(6)
N7 N 0.9021(6) 0.4997(7) 0.7518(7)
N8 N 0.5003(7) 0.4024(9) 0.7518(7)
N9 N 0.5976(9) 0.0979(6) 0.7518(7)
O16 O 0.3196(7) 0.7716(5) 0.1405(6)
O17 O 0.1995(9) 0.7039(6) 0.2285(6)
O18 O 0.5490(8) 0.9885(5) 0.1594(6)
N6 N 0.4024(9) 0.9021(6) 0.2518(7)
C17 C 0.2756(12) 0.7663(8) 0.2128(9)
C18 C 0.3139(15) 0.8444(10) 0.2842(11)
H20 H 0.3127 0.8245 0.3517
C19 C 0.2543(9) 0.8909(7) 0.2725(8)
H21 H 0.2752 0.9402 0.3170
H22 H 0.1933 0.8484 0.2872
H23 H 0.2586 0.9117 0.2065
C21 C 0.4577(11) 0.9763(8) 0.2903(8)
C17_2 C 0.7244(12) 0.2337(8) 0.7128(9)
C18_2 C 0.6861(15) 0.1556(10) 0.7842(11)
H20_2 H 0.6873 0.1755 0.8517
C19_2 C 0.7457(9) 0.1091(7) 0.7725(8)
H21_2 H 0.7248 0.0598 0.8170
H22_2 H 0.8067 0.1516 0.7872
H23_2 H 0.7414 0.0883 0.7065
C21_2 C 0.5423(11) 0.0237(8) 0.7903(8)
O1_2 O 0.1565(2) 0.6251(2) 0.0115(8)
H1_2 H 0.161(8) 0.674(4) 0.011(19)
O8_2 O 0.3749(2) 0.5314(3) 0.0115(8)
H10_2 H 0.326(4) 0.487(9) 0.011(19)
O15_2 O 0.4686(3) 0.8435(2) 0.0115(8)
H19_2 H 0.513(9) 0.839(8) 0.011(19)
Cu2_2 Cu 0.12643(10) 0.57072(9) 0.89020(6)
O5_2 O 0.2262(6) 0.5495(6) 0.8865(7)
O6_2 O 0.0098(5) 0.5636(5) 0.8680(6)
O7_2 O 0.2944(6) 0.4973(6) 0.7971(6)
N1_2 N 0.0965(7) 0.5005(7) 0.7765(8)
C4_2 C 0.0244(7) 0.4817(7) 0.7350(8)
C6_2 C 0.2323(9) 0.5084(9) 0.8111(10)
C7_2 C 0.1615(8) 0.4812(10) 0.7361(10)
H6_2 H 0.1346 0.4176 0.7212
C8_2 C 0.2044(6) 0.5394(6) 0.6407(6)
H7_2 H 0.1603 0.5201 0.5898
H8_2 H 0.2532 0.5323 0.6192
H9_2 H 0.2256 0.6009 0.6554
Cu4_2 Cu 0.42928(9) 0.55571(13) 0.89020(6)
O12_2 O 0.4505(6) 0.6767(8) 0.8865(7)
O13_2 O 0.4364(5) 0.4462(7) 0.8680(6)
O14_2 O 0.5027(6) 0.7971(8) 0.7971(6)
N3_2 N 0.4995(7) 0.5960(10) 0.7765(8)
C9_2 C 0.5093(9) 0.2756(12) 0.7128(9)
C10_2 C 0.4695(11) 0.3139(15) 0.7842(11)
H11_2 H 0.4882 0.3127 0.8517
C11_2 C 0.3634(6) 0.2543(9) 0.7725(8)
H12_2 H 0.3350 0.2752 0.8170
H13_2 H 0.3449 0.1933 0.7872
H14_2 H 0.3469 0.2586 0.7065
C12_2 C 0.5183(7) 0.5427(10) 0.7350(8)
C13_2 C 0.4814(8) 0.4577(11) 0.7903(8)
C14_2 C 0.4916(9) 0.7239(13) 0.8111(10)
C15_2 C 0.5188(10) 0.6803(13) 0.7361(10)
H15_2 H 0.5824 0.7170 0.7212
C16_2 C 0.4606(6) 0.6650(8) 0.6407(6)
H16_2 H 0.4799 0.6402 0.5898
H17_2 H 0.4677 0.7209 0.6192
H18_2 H 0.3991 0.6247 0.6554
Cu6_2 Cu 0.44429(13) 0.87357(10) 0.89020(6)
O19_2 O 0.3233(8) 0.7738(6) 0.8865(7)
O20_2 O 0.5538(7) 0.9902(5) 0.8680(6)
O21_2 O 0.2029(8) 0.7056(6) 0.7971(6)
N5_2 N 0.4040(10) 0.9035(7) 0.7765(8)
C20_2 C 0.4573(10) 0.9756(7) 0.7350(8)
C22_2 C 0.2761(13) 0.7677(9) 0.8111(10)
C23_2 C 0.3197(13) 0.8385(8) 0.7361(10)
H24_2 H 0.2830 0.8654 0.7212
C24_2 C 0.3350(8) 0.7956(6) 0.6407(6)
H25_2 H 0.3598 0.8397 0.5898
H26_2 H 0.2791 0.7468 0.6192
H27_2 H 0.3753 0.7744 0.6554
C1_2 C 0.7663(8) 0.4907(9) 0.7128(9)
C2_2 C 0.8444(10) 0.5305(11) 0.7842(11)
H2_2 H 0.8245 0.5118 0.8517
C3_2 C 0.8909(7) 0.6366(6) 0.7725(8)
H3_2 H 0.9402 0.6650 0.8170
H4_2 H 0.8484 0.6551 0.7872
H5_2 H 0.9117 0.6531 0.7065
C5_2 C 0.9763(8) 0.5186(8) 0.7903(8)
loop_
_geom_bond_atom_site_label_1
_geom_bond_atom_site_label_2
_geom_bond_site_symmetry_1
_geom_bond_site_symmetry_2
O2 C1 1_555 1_555
O3 C1 1_555 1_555
N2 C2 1_555 1_555
C1 C2 1_555 1_555
C2 H2 1_555 1_555
C3 C2 1_555 1_555
H3 C3 1_555 1_555
H4 C3 1_555 1_555
H5 C3 1_555 1_555
Cu8 O2 1_555 1_555
Cu10 O3 1_555 1_555
Ba4 O2 1_555 1_555
O4 Cu8 1_555 1_555
N2 C5 1_555 1_555
N2 Cu8 1_555 1_555
Cu1 O1 1_555 1_555
Cu2 O1 1_555 1_555
Ba1 O1 1_555 1_555
O1 H1 1_555 1_555
O5 Cu2 1_555 1_555
O6 Cu2 1_555 1_555
O7 C6 1_555 1_555
N1 Cu2 1_555 1_555
C4 N1 1_555 1_555
C6 O5 1_555 1_555
C7 N1 1_555 1_555
H6 C7 1_555 1_555
C8 C7 1_555 1_555
H7 C8 1_555 1_555
H8 C8 1_555 1_555
H9 C8 1_555 1_555
Cu3 O8 1_555 1_555
Cu4 O7 1_555 1_555
O8 Ba1 1_555 1_555
H10 O8 1_555 1_555
O9 C9 1_555 1_555
O10 C9 1_555 1_555
O11 C12 1_555 1_555
O12 Ba1 1_555 1_555
O13 Cu4 1_555 1_555
O14 C14 1_555 1_555
N3 Cu4 1_555 1_555
N4 C10 1_555 1_555
C9 C10 1_555 1_555
C10 H11 1_555 1_555
C11 C10 1_555 1_555
H12 C11 1_555 1_555
H13 C11 1_555 1_555
H14 C11 1_555 1_555
C12 N3 1_555 1_555
C13 O13 1_555 1_555
C14 O12 1_555 1_555
C15 N3 1_555 1_555
H15 C15 1_555 1_555
C16 C15 1_555 1_555
H16 C16 1_555 1_555
H17 C16 1_555 1_555
H18 C16 1_555 1_555
Cu5 O15 1_555 1_555
Cu6 O14 1_555 1_555
O15 Ba1 1_555 1_555
H19 O15 1_555 1_555
O19 Ba1 1_555 1_555
O20 Cu6 1_555 1_555
O21 Cu2 1_555 1_555
N5 Cu6 1_555 1_555
C20 N5 1_555 1_555
C22 O19 1_555 1_555
C23 N5 1_555 1_555
H24 C23 1_555 1_555
C24 C23 1_555 1_555
H25 C24 1_555 1_555
H26 C24 1_555 1_555
H27 C24 1_555 1_555
Cu10 O9 1_555 1_555
Cu12 O10 1_555 1_555
Ba4 O9 1_555 1_555
O22 Cu1 1_555 1_555
O23 Ba1 1_555 1_555
O24 Ba1 1_555 1_555
O25 Cu3 1_555 1_555
O26 Cu5 1_555 1_555
O27 Cu1 1_555 1_555
O28 Cu1 1_555 1_555
O29 Cu3 1_555 1_555
O30 Cu5 1_555 1_555
N7 Cu1 1_555 1_555
N8 Cu3 1_555 1_555
N9 Cu5 1_555 1_555
Ba1 O5 1_555 1_555
Ba1 O22 1_555 1_555
C6 C7 1_555 1_555
Cu3 O23 1_555 1_555
Cu4 O8 1_555 1_555
Cu4 O12 1_555 1_555
O11 Cu10 1_555 1_555
N4 C13 1_555 1_555
N4 Cu10 1_555 1_555
C12 C13 1_555 1_555
C14 C15 1_555 1_555
Cu5 O24 1_555 1_555
Cu6 O15 1_555 1_555
Cu6 O19 1_555 1_555
O21 C22 1_555 1_555
C22 C23 1_555 1_555
O16 C17 1_555 1_555
O17 C17 1_555 1_555
N6 C18 1_555 1_555
C17 C18 1_555 1_555
C18 H20 1_555 1_555
C19 C18 1_555 1_555
H21 C19 1_555 1_555
H22 C19 1_555 1_555
H23 C19 1_555 1_555
Cu8 O17 1_555 1_555
Cu12 O16 1_555 1_555
Ba4 O16 1_555 1_555
O18 Cu12 1_555 1_555
N6 C21 1_555 1_555
N6 Cu12 1_555 1_555
O24 C17_2 1_555 1_555
O27 C17_2 1_555 1_555
N9 C18_2 1_555 1_555
C17_2 C18_2 1_555 1_555
C18_2 H20_2 1_555 1_555
C19_2 C18_2 1_555 1_555
H21_2 C19_2 1_555 1_555
H22_2 C19_2 1_555 1_555
H23_2 C19_2 1_555 1_555
N9 C21_2 1_555 1_555
Cu8 O1_2 1_555 1_555
Ba4 O1_2 1_555 1_555
O1_2 H1_2 1_555 1_555
Cu10 O8_2 1_555 1_555
O8_2 Ba4 1_555 1_555
H10_2 O8_2 1_555 1_555
Cu12 O15_2 1_555 1_555
O15_2 Ba4 1_555 1_555
H19_2 O15_2 1_555 1_555
O5_2 Cu2_2 1_555 1_555
O6_2 Cu2_2 1_555 1_555
O7_2 C6_2 1_555 1_555
N1_2 Cu2_2 1_555 1_555
C4_2 N1_2 1_555 1_555
C6_2 O5_2 1_555 1_555
C7_2 N1_2 1_555 1_555
H6_2 C7_2 1_555 1_555
C8_2 C7_2 1_555 1_555
H7_2 C8_2 1_555 1_555
H8_2 C8_2 1_555 1_555
H9_2 C8_2 1_555 1_555
Cu4_2 O7_2 1_555 1_555
O23 C9_2 1_555 1_555
O26 C9_2 1_555 1_555
O29 C12_2 1_555 1_555
O13_2 Cu4_2 1_555 1_555
O14_2 C14_2 1_555 1_555
N3_2 Cu4_2 1_555 1_555
N8 C10_2 1_555 1_555
C9_2 C10_2 1_555 1_555
C10_2 H11_2 1_555 1_555
C11_2 C10_2 1_555 1_555
H12_2 C11_2 1_555 1_555
H13_2 C11_2 1_555 1_555
H14_2 C11_2 1_555 1_555
C12_2 N3_2 1_555 1_555
C13_2 O13_2 1_555 1_555
C14_2 O12_2 1_555 1_555
C15_2 N3_2 1_555 1_555
H15_2 C15_2 1_555 1_555
C16_2 C15_2 1_555 1_555
H16_2 C16_2 1_555 1_555
H17_2 C16_2 1_555 1_555
H18_2 C16_2 1_555 1_555
Cu6_2 O14_2 1_555 1_555
O20_2 Cu6_2 1_555 1_555
O21_2 Cu2_2 1_555 1_555
N5_2 Cu6_2 1_555 1_555
C20_2 N5_2 1_555 1_555
C22_2 O19_2 1_555 1_555
C23_2 N5_2 1_555 1_555
H24_2 C23_2 1_555 1_555
C24_2 C23_2 1_555 1_555
H25_2 C24_2 1_555 1_555
H26_2 C24_2 1_555 1_555
H27_2 C24_2 1_555 1_555
C6_2 C7_2 1_555 1_555
Cu4_2 O12_2 1_555 1_555
N8 C13_2 1_555 1_555
C12_2 C13_2 1_555 1_555
C14_2 C15_2 1_555 1_555
Cu6_2 O19_2 1_555 1_555
O21_2 C22_2 1_555 1_555
C22_2 C23_2 1_555 1_555
O22 C1_2 1_555 1_555
O25 C1_2 1_555 1_555
N7 C2_2 1_555 1_555
C1_2 C2_2 1_555 1_555
C2_2 H2_2 1_555 1_555
C3_2 C2_2 1_555 1_555
H3_2 C3_2 1_555 1_555
H4_2 C3_2 1_555 1_555
H5_2 C3_2 1_555 1_555
N7 C5_2 1_555 1_555

#END
