
###############################################################################
#
# This file contains modified crystal structure data generated from the
# MOF subset of the Cambridge Structural Database (CSD) v543 
# hosted by the Cambridge Crystallographic Data Centre (CCDC).
#
# This work is licensed under the Creative Commons
# Attribution-NonCommercial-ShareAlike 4.0 International License.
# To view a copy of this license, visit
# http://creativecommons.org/licenses/by-nc-sa/4.0/
# or send a letter to
# Creative Commons, PO Box 1866, Mountain View, CA 94042, USA.
#
# CIF created using the CSD Python API on 29 September 2022
# The structure has been converted into the P1 space group
# The structure has a 3D framework
# The original CSD entry UTEFOP is in the triclinic crystal system
# The framework has been calculated to contain at least 10.0% void space
# The void calculation uses a probe of radius 1.32A, grid spacing 0.4
#
###############################################################################

data_UTEFOP
_chemical_formula_moiety         '(C32 H14 Cu6 N4 O26)n'
_symmetry_cell_setting           triclinic
_symmetry_space_group_name_H-M   'P 1'
_symmetry_Int_Tables_number      1
_space_group_name_Hall           'P 1'
loop_
_symmetry_equiv_pos_site_id
_symmetry_equiv_pos_as_xyz
1 x,y,z
_cell_length_a                   10.851(3)
_cell_length_b                   11.497(4)
_cell_length_c                   11.603(4)
_cell_angle_alpha                75.086(5)
_cell_angle_beta                 62.443(5)
_cell_angle_gamma                62.128(5)
_cell_volume                     1132.87
loop_
_atom_site_label
_atom_site_type_symbol
_atom_site_fract_x
_atom_site_fract_y
_atom_site_fract_z
Cu9 Cu 0.08113(4) 0.48878(3) 0.17295(3)
O9 O 0.0154(3) 0.1495(2) 0.7706(2)
O10 O 0.2146(3) 0.1999(2) 0.7028(2)
H6 H 0.4297 0.0001 0.7513
C16 C 0.1495(3) 0.1254(3) 0.7558(3)
Cu1 Cu -0.0000 0.5000 0.5000
Cu2 Cu 0.12725(4) 0.69939(3) 0.28340(4)
O1 O 0.2159(2) 0.4231(2) 0.4621(2)
O2 O 0.3011(2) 0.5679(2) 0.3167(2)
O3 O 0.7872(3) 0.5568(2) 0.2213(2)
O4 O 0.9580(2) 0.3855(2) 0.2819(2)
N1 N 0.7002(3) 0.0659(3) 0.5118(3)
O5 O 0.8101(3) 0.0225(3) 0.5383(4)
O6 O 0.6291(3) 0.0036(2) 0.5267(3)
O7 O 0.1877(2) 0.6003(2) 0.0590(2)
C1 C 0.4693(3) 0.3919(3) 0.3973(3)
C2 C 0.5077(3) 0.2655(3) 0.4574(3)
H1 H 0.4392 0.2258 0.4958
C3 C 0.6515(3) 0.2021(3) 0.4575(3)
C4 C 0.7566(3) 0.2572(3) 0.4039(3)
H2 H 0.8518 0.2114 0.4075
C5 C 0.7163(3) 0.3831(3) 0.3444(3)
C6 C 0.5733(3) 0.4486(3) 0.3414(3)
H3 H 0.5467 0.5325 0.3010
C7 C 0.3159(3) 0.4668(3) 0.3921(3)
C8 C 0.8257(3) 0.4476(3) 0.2784(3)
O13 O 0.0243(2) 0.58089(18) 0.32223(18)
O18 O 0.2128(3) 0.4432(2) 0.7787(2)
O21 O 0.0420(2) 0.6145(2) 0.7181(2)
O32 O 0.3244(3) 0.3495(2) 0.1787(3)
H14 H 0.0633 0.3730 0.6704
O8 O 0.0205(3) 0.7239(2) 0.9687(3)
N2 N 0.6054(3) 0.7709(3) 0.8155(3)
O11 O 0.6756(3) 0.6505(2) 0.8213(3)
O12 O 0.6614(4) 0.8482(3) 0.7866(4)
C9 C 0.4442(3) 0.8209(3) 0.8398(3)
C10 C 0.3718(3) 0.7373(3) 0.9039(3)
H4 H 0.4216 0.6536 0.9350
C11 C 0.2211(3) 0.7822(3) 0.9206(3)
C12 C 0.1518(3) 0.9085(3) 0.8715(3)
H5 H 0.0519 0.9383 0.8812
C13 C 0.2274(3) 0.9900(3) 0.8090(3)
C14 C 0.3768(3) 0.9464(3) 0.7927(3)
C15 C 0.1353(3) 0.6966(3) 0.9875(3)
Cu11 Cu 0.91887(4) 0.51122(3) 0.82705(3)
Cu6 Cu 0.87275(4) 0.30061(3) 0.71660(4)
O25 O 0.9795(3) 0.2761(2) 0.0313(3)
N4 N 0.3946(3) 0.2291(3) 0.1845(3)
O33 O 0.3386(4) 0.1518(3) 0.2134(4)
C25 C 0.5558(3) 0.1791(3) 0.1602(3)
C26 C 0.6282(3) 0.2627(3) 0.0961(3)
H11 H 0.5784 0.3464 0.0650
C27 C 0.7789(3) 0.2178(3) 0.0794(3)
C28 C 0.8482(3) 0.0915(3) 0.1285(3)
H12 H 0.9481 0.0617 0.1188
C29 C 0.7726(3) 0.0100(3) 0.1910(3)
C30 C 0.6232(3) 0.0536(3) 0.2073(3)
C31 C 0.8647(3) 0.3034(3) 0.0125(3)
Cu1_2 Cu 1.0000 0.5000 0.5000
H7 H 0.9367 0.6270 0.3296
O14 O 0.7841(2) 0.5769(2) 0.5379(2)
O15 O 0.6989(2) 0.4321(2) 0.6833(2)
N3 N 0.2998(3) 0.9341(3) 0.4882(3)
O22 O 0.1899(3) 0.9775(3) 0.4617(4)
O23 O 0.3709(3) 0.9964(2) 0.4733(3)
O24 O 0.8123(2) 0.3997(2) 0.9410(2)
O28 O 0.9846(3) 0.8505(2) 0.2294(2)
C17 C 0.5307(3) 0.6081(3) 0.6027(3)
C18 C 0.4923(3) 0.7345(3) 0.5426(3)
H8 H 0.5608 0.7742 0.5042
C19 C 0.3485(3) 0.7979(3) 0.5425(3)
C20 C 0.2434(3) 0.7428(3) 0.5961(3)
H9 H 0.1482 0.7886 0.5925
C21 C 0.2837(3) 0.6169(3) 0.6556(3)
C22 C 0.4267(3) 0.5514(3) 0.6586(3)
H10 H 0.4533 0.4675 0.6990
C23 C 0.6841(3) 0.5332(3) 0.6079(3)
C24 C 0.1743(3) 0.5524(3) 0.7216(3)
O34 O 0.9757(2) 0.41911(18) 0.67777(18)
O29 O 0.7854(3) 0.8001(2) 0.2972(2)
H13 H 0.5703 0.9999 0.2487
C32 C 0.8505(3) 0.8746(3) 0.2442(3)
loop_
_geom_bond_atom_site_label_1
_geom_bond_atom_site_label_2
_geom_bond_site_symmetry_1
_geom_bond_site_symmetry_2
O9 C16 1_555 1_555
O10 C16 1_555 1_555
Cu1 O1 1_555 1_555
Cu2 O2 1_555 1_555
Cu9 O7 1_555 1_555
O1 C7 1_555 1_555
O2 C7 1_555 1_555
O3 C8 1_555 1_555
O4 C8 1_555 1_555
N1 O5 1_555 1_555
O6 N1 1_555 1_555
O7 Cu2 1_555 1_555
C1 C2 1_555 1_555
C2 H1 1_555 1_555
C3 N1 1_555 1_555
C4 C3 1_555 1_555
H2 C4 1_555 1_555
C5 C4 1_555 1_555
C6 C1 1_555 1_555
H3 C6 1_555 1_555
C7 C1 1_555 1_555
C8 C5 1_555 1_555
O13 Cu1 1_555 1_555
O32 Cu9 1_555 1_555
Cu2 O13 1_555 1_555
Cu9 O13 1_555 1_555
C2 C3 1_555 1_555
C5 C6 1_555 1_555
O8 C15 1_555 1_555
N2 O11 1_555 1_555
O11 Cu11 1_555 1_555
O12 N2 1_555 1_555
C9 N2 1_555 1_555
C10 C9 1_555 1_555
H4 C10 1_555 1_555
C11 C10 1_555 1_555
C12 C11 1_555 1_555
H5 C12 1_555 1_555
C13 C12 1_555 1_555
C14 C9 1_555 1_555
C11 C15 1_555 1_555
C13 C14 1_555 1_555
O25 C31 1_555 1_555
N4 O32 1_555 1_555
O33 N4 1_555 1_555
C25 N4 1_555 1_555
C26 C25 1_555 1_555
H11 C26 1_555 1_555
C27 C26 1_555 1_555
C28 C27 1_555 1_555
H12 C28 1_555 1_555
C29 C28 1_555 1_555
C30 C25 1_555 1_555
C27 C31 1_555 1_555
C29 C30 1_555 1_555
Cu6 O15 1_555 1_555
O14 Cu1_2 1_555 1_555
O15 C23 1_555 1_555
O18 C24 1_555 1_555
N3 O22 1_555 1_555
O23 N3 1_555 1_555
O24 Cu6 1_555 1_555
C17 C18 1_555 1_555
C18 H8 1_555 1_555
C19 N3 1_555 1_555
C20 C19 1_555 1_555
H9 C20 1_555 1_555
C21 C20 1_555 1_555
C22 C17 1_555 1_555
H10 C22 1_555 1_555
C23 O14 1_555 1_555
C24 O21 1_555 1_555
O34 Cu1_2 1_555 1_555
Cu6 O34 1_555 1_555
Cu11 O24 1_555 1_555
Cu11 O34 1_555 1_555
C17 C23 1_555 1_555
C18 C19 1_555 1_555
C21 C22 1_555 1_555
C21 C24 1_555 1_555
O28 C32 1_555 1_555
O29 C32 1_555 1_555

#END
