
###############################################################################
#
# This file contains modified crystal structure data generated from the
# MOF subset of the Cambridge Structural Database (CSD) v543 
# hosted by the Cambridge Crystallographic Data Centre (CCDC).
#
# This work is licensed under the Creative Commons
# Attribution-NonCommercial-ShareAlike 4.0 International License.
# To view a copy of this license, visit
# http://creativecommons.org/licenses/by-nc-sa/4.0/
# or send a letter to
# Creative Commons, PO Box 1866, Mountain View, CA 94042, USA.
#
# CIF created using the CSD Python API on 29 September 2022
# The structure has been converted into the P1 space group
# The structure has a 3D framework
# The original CSD entry UTELIQ is in the monoclinic crystal system
# The framework has been calculated to contain at least 10.0% void space
# The void calculation uses a probe of radius 1.32A, grid spacing 0.4
#
###############################################################################

data_UTELIQ
_chemical_formula_moiety         '(C216 H208 Mg12 N40 O64)n'
_symmetry_cell_setting           triclinic
_symmetry_space_group_name_H-M   'P 1'
_symmetry_Int_Tables_number      1
_space_group_name_Hall           'P 1'
loop_
_symmetry_equiv_pos_site_id
_symmetry_equiv_pos_as_xyz
1 x,y,z
_cell_length_a                   24.8326(7)
_cell_length_b                   17.4185(5)
_cell_length_c                   17.0634(5)
_cell_angle_alpha                90
_cell_angle_beta                 113.4280(10)
_cell_angle_gamma                90
_cell_volume                     6772.25
loop_
_atom_site_label
_atom_site_type_symbol
_atom_site_fract_x
_atom_site_fract_y
_atom_site_fract_z
H6 H 0.1032 0.4691 0.0187
H11 H 0.2799 0.0196 0.0672
Mg1 Mg 0.2500 0.2500 0.0000
C33 C 0.00602(15) 0.6354(2) 0.1044(2)
H29 H 0.0464 0.6411 0.1222
N6 N 0.01378(13) 0.52694(19) 0.0245(2)
H47 H 0.9562 0.0667 0.0191
H48 H 0.9003 0.0668 0.0403
O17 O 0.19704(10) 0.24329(14) 0.06744(15)
O18 O 0.26170(9) 0.36626(12) 0.02068(14)
O22 O 0.32590(9) 0.22725(12) 0.11162(14)
C17 C 0.2698(3) 0.9050(3) 0.0494(5)
H9 H 0.2971 0.8912 0.1032
C19 C 0.2595(2) 0.9822(3) 0.0276(3)
N5 N 0.2621(3) 0.7687(3) 0.0272(3)
C35 C 0.28977(14) 0.41341(18) 0.0761(2)
C36 C 0.28044(17) 0.4961(2) 0.0519(3)
C39 C 0.3101(3) 0.5528(2) 0.1084(4)
H33 H 0.3377 0.5398 0.1622
C40 C 0.2992(4) 0.6298(3) 0.0854(4)
H34 H 0.3194 0.6677 0.1244
C41 C 0.2599(3) 0.6502(3) 0.0077(4)
O12 O 0.32466(10) 0.39839(13) 0.15183(16)
Mg8 Mg 0.32984(5) 0.29956(7) 0.21705(7)
C28 C 0.38196(14) 0.22788(18) 0.1433(2)
C29 C 0.41456(14) 0.17664(19) 0.1070(2)
C30 C 0.47513(14) 0.1847(2) 0.1341(2)
H27 H 0.4947 0.2234 0.1723
C31 C 0.47680(15) 0.0773(2) 0.0480(3)
C32 C 0.38573(14) 0.1197(2) 0.0493(3)
H28 H 0.3452 0.1151 0.0301
C33_2 C 0.50602(15) 0.1354(2) 0.1044(2)
H29_2 H 0.5464 0.1411 0.1222
C34 C 0.41639(16) 0.0695(2) 0.0197(3)
N6_2 N 0.51378(13) 0.02694(19) 0.0245(2)
O9 O 0.40948(10) 0.26835(13) 0.20693(15)
C4 C 0.14663(15) 0.2651(2) 0.1576(2)
C5 C 0.20026(15) 0.2702(2) 0.1366(2)
C7 C 0.15165(16) 0.2797(2) 0.2397(2)
H2 H 0.1880 0.2929 0.2816
C8 C 0.10338(16) 0.2751(2) 0.2606(2)
H3 H 0.1075 0.2838 0.3165
C12 C 0.04879(18) 0.2573(3) 0.1979(3)
C15 C 0.09233(18) 0.2461(3) 0.0955(3)
H7 H 0.0888 0.2355 0.0402
C16 C 0.04310(19) 0.2428(3) 0.1145(3)
H8 H 0.0066 0.2310 0.0721
C18 C 0.3080(3) 0.1363(4) 0.2604(5)
H10 H 0.2777 0.1384 0.2064
C21 C 0.2902(6) 0.0027(5) 0.2761(8)
H13 H 0.2658 0.0008 0.2161
C22 C 0.3605(5) 0.4265(6) 0.3412(6)
H16 H 0.3424 0.4556 0.2920
C24 C 0.3371(5) 0.0837(12) 0.3866(13)
H18 H 0.3240 0.0417 0.4111
H19 H 0.3792 0.0848 0.4102
H20 H 0.3225 0.1310 0.3995
C25 C 0.4153(7) 0.4202(12) 0.4981(8)
H21 H 0.4562 0.4333 0.5191
H22 H 0.4003 0.4332 0.5403
H23 H 0.4107 0.3661 0.4867
C27 C 0.3751(6) 0.5492(5) 0.4229(10)
H24 H 0.3345 0.5639 0.3978
H25 H 0.3911 0.5615 0.4827
H26 H 0.3963 0.5764 0.3953
N1 N 0.3799(5) 0.4667(6) 0.4120(8)
N3 N 0.3157(4) 0.0741(4) 0.2969(7)
O1 O 0.24453(10) 0.30145(15) 0.19282(16)
O5 O 0.36177(14) 0.3583(2) 0.3282(2)
O6 O 0.33737(14) 0.2004(2) 0.2885(2)
N8 N 0.00421(15) 0.2544(2) 0.2880(2)
C1 C 0.11804(14) 0.27212(18) 0.8567(2)
C2 C 0.21023(14) 0.08659(18) 0.9239(2)
C3 C 0.08544(14) 0.32336(19) 0.8930(2)
C4_2 C 0.35337(15) 0.2349(2) 0.8424(2)
C5_2 C 0.29974(15) 0.2298(2) 0.8634(2)
C6 C 0.02487(14) 0.3153(2) 0.8659(2)
H1 H 0.0053 0.2766 0.8277
C7_2 C 0.34835(16) 0.2203(2) 0.7603(2)
H2_2 H 0.3120 0.2071 0.7184
C8_2 C 0.39662(16) 0.2249(2) 0.7394(2)
H3_2 H 0.3925 0.2162 0.6835
C9 C 0.02320(15) 0.4227(2) 0.9520(3)
C10 C 0.11427(14) 0.3803(2) 0.9507(3)
H4 H 0.1548 0.3849 0.9699
C12_2 C 0.45121(18) 0.2427(3) 0.8021(3)
C13 C 0.08361(16) 0.4305(2) 0.9803(3)
C14 C 0.21956(17) 0.0039(2) 0.9481(3)
C15_2 C 0.40767(18) 0.2539(3) 0.9045(3)
H7_2 H 0.4112 0.2645 0.9598
C16_2 C 0.45690(19) 0.2572(3) 0.8855(3)
H8_2 H 0.4934 0.2690 0.9279
C18_2 C 0.1920(3) 0.3637(4) 0.7396(5)
H10_2 H 0.2223 0.3616 0.7936
C21_2 C 0.2098(6) 0.4973(5) 0.7239(8)
H13_2 H 0.2342 0.4992 0.7839
H14 H 0.1796 0.5355 0.7105
H15 H 0.2332 0.5071 0.6918
C22_2 C 0.1395(5) 0.0735(6) 0.6588(6)
H16_2 H 0.1576 0.0444 0.7080
C24_2 C 0.1629(5) 0.4163(12) 0.6134(13)
H18_2 H 0.1760 0.4583 0.5889
H19_2 H 0.1208 0.4152 0.5898
H20_2 H 0.1775 0.3690 0.6005
C25_2 C 0.0847(7) 0.0798(12) 0.5019(8)
H21_2 H 0.0438 0.0667 0.4809
H22_2 H 0.0997 0.0668 0.4597
H23_2 H 0.0893 0.1339 0.5133
Mg1_2 Mg 0.2500 0.2500 1.0000
Mg2 Mg 0.17016(5) 0.20044(7) 0.78295(7)
N1_2 N 0.1201(5) 0.0333(6) 0.5880(8)
N3_2 N 0.1843(4) 0.4259(4) 0.7031(7)
N4 N 0.50421(15) 0.2456(2) 0.7880(2)
O1_2 O 0.25547(10) 0.19855(15) 0.80718(16)
O2 O 0.30296(10) 0.25671(14) 0.93256(15)
O3 O 0.23830(9) 0.13374(12) 0.97932(14)
O4 O 0.17534(10) 0.10161(13) 0.84817(16)
O5_2 O 0.13823(14) 0.1417(2) 0.6718(2)
O6_2 O 0.16263(14) 0.2996(2) 0.7115(2)
O7 O 0.09052(10) 0.23165(13) 0.79307(15)
O8 O 0.17410(9) 0.27275(12) 0.88838(14)
C42 C 0.64663(15) 0.2349(2) 0.6576(2)
C43 C 0.70026(15) 0.2298(2) 0.6366(2)
C44 C 0.65165(16) 0.2203(2) 0.7397(2)
H35 H 0.6880 0.2071 0.7816
C45 C 0.60338(16) 0.2249(2) 0.7606(2)
H36 H 0.6075 0.2162 0.8165
C46 C 0.54879(18) 0.2427(3) 0.6979(3)
C47 C 0.59233(18) 0.2539(3) 0.5955(3)
H37 H 0.5888 0.2645 0.5402
C48 C 0.54310(19) 0.2572(3) 0.6145(3)
H38 H 0.5066 0.2690 0.5721
N8_2 N 0.49579(15) 0.2456(2) 0.7120(2)
O13 O 0.74453(10) 0.19855(15) 0.69282(16)
O14 O 0.69704(10) 0.25671(14) 0.56744(15)
C49 C 0.8080(3) 0.3637(4) 0.7604(5)
H39 H 0.7777 0.3616 0.7064
C50 C 0.7902(6) 0.4973(5) 0.7761(8)
H40 H 0.7658 0.4992 0.7161
H41 H 0.8204 0.5355 0.7895
H42 H 0.7668 0.5071 0.8082
C51 C 0.8605(5) 0.0735(6) 0.8412(6)
H43 H 0.8424 0.0444 0.7920
C52 C 0.8371(5) 0.4163(12) 0.8866(13)
H44 H 0.8240 0.4583 0.9111
H45 H 0.8792 0.4152 0.9102
H46 H 0.8225 0.3690 0.8995
C53 C 0.9153(7) 0.0798(12) 0.9981(8)
H49 H 0.9107 0.1339 0.9867
Mg3 Mg 0.82984(5) 0.20044(7) 0.71705(7)
N9 N 0.8799(5) 0.0333(6) 0.9120(8)
N10 N 0.8157(4) 0.4259(4) 0.7969(7)
O15 O 0.86177(14) 0.1417(2) 0.8282(2)
O16 O 0.83737(14) 0.2996(2) 0.7885(2)
Mg5 Mg 0.7500 0.2500 0.5000
O19 O 0.82466(10) 0.10161(13) 0.65183(16)
O20 O 0.90948(10) 0.23165(13) 0.70693(15)
O21 O 0.82590(9) 0.27275(12) 0.61162(14)
C20 C 0.1899(3) 0.9472(2) 0.8916(4)
H12 H 0.1623 0.9602 0.8378
C23 C 0.2008(4) 0.8702(3) 0.9146(4)
H17 H 0.1806 0.8323 0.8756
C26 C 0.2401(3) 0.8498(3) 0.9923(4)
C27_2 C 0.1249(6) 0.9508(5) 0.5771(10)
H24_2 H 0.1655 0.9361 0.6022
H25_2 H 0.1089 0.9385 0.5173
H26_2 H 0.1037 0.9236 0.6047
C37 C 0.2302(3) 0.5950(3) 0.9506(5)
H31 H 0.2029 0.6088 0.8968
C38 C 0.2405(2) 0.5178(3) 0.9724(3)
H32 H 0.2201 0.4804 0.9328
N7 N 0.2379(3) 0.7313(3) 0.9728(3)
C54 C 0.8751(6) 0.9508(5) 0.9229(10)
H50 H 0.8345 0.9361 0.8978
H51 H 0.8911 0.9385 0.9827
H52 H 0.8963 0.9236 0.8953
C1_2 C 0.88196(14) 0.27212(18) 0.6433(2)
C2_2 C 0.78977(14) 0.08659(18) 0.5761(2)
C3_2 C 0.91456(14) 0.32336(19) 0.6070(2)
C6_2 C 0.97513(14) 0.3153(2) 0.6341(2)
H1_2 H 0.9947 0.2766 0.6723
C9_2 C 0.97680(15) 0.4227(2) 0.5480(3)
C10_2 C 0.88573(14) 0.3803(2) 0.5493(3)
H4_2 H 0.8452 0.3849 0.5301
C13_2 C 0.91639(16) 0.4305(2) 0.5197(3)
H6_2 H 0.8968 0.4691 0.4813
C14_2 C 0.78044(17) 0.0039(2) 0.5519(3)
H11_2 H 0.7201 0.0196 0.4328
O3_2 O 0.76170(9) 0.13374(12) 0.52068(14)
C33_3 C 0.99398(15) 0.6354(2) 0.3956(2)
H29_3 H 0.9536 0.6411 0.3778
N6_3 N 0.98622(13) 0.52694(19) 0.4755(2)
O17_2 O 0.80296(10) 0.24329(14) 0.43256(15)
O18_2 O 0.73830(9) 0.36626(12) 0.47932(14)
O22_2 O 0.67410(9) 0.22725(12) 0.38838(14)
C17_2 C 0.7302(3) 0.9050(3) 0.4506(5)
H9_2 H 0.7029 0.8912 0.3968
C19_2 C 0.7405(2) 0.9822(3) 0.4724(3)
C20_2 C 0.8101(3) 0.9472(2) 0.6084(4)
H12_2 H 0.8377 0.9602 0.6622
C23_2 C 0.7992(4) 0.8702(3) 0.5854(4)
H17_2 H 0.8194 0.8323 0.6244
C26_2 C 0.7599(3) 0.8498(3) 0.5077(4)
N5_2 N 0.7379(3) 0.7687(3) 0.4728(3)
C35_2 C 0.71023(14) 0.41341(18) 0.4239(2)
C36_2 C 0.71956(17) 0.4961(2) 0.4481(3)
C37_2 C 0.7698(3) 0.5950(3) 0.5494(5)
H31_2 H 0.7971 0.6088 0.6032
C38_2 C 0.7595(2) 0.5178(3) 0.5276(3)
H32_2 H 0.7799 0.4804 0.5672
C39_2 C 0.6899(3) 0.5528(2) 0.3916(4)
H33_2 H 0.6623 0.5398 0.3378
C40_2 C 0.7008(4) 0.6298(3) 0.4146(4)
H34_2 H 0.6806 0.6677 0.3756
C41_2 C 0.7401(3) 0.6502(3) 0.4923(4)
N7_2 N 0.7621(3) 0.7313(3) 0.5272(3)
O12_2 O 0.67534(10) 0.39839(13) 0.34817(16)
Mg8_2 Mg 0.67016(5) 0.29956(7) 0.28295(7)
H41_2 H 0.3204 0.0355 0.7895
H42_2 H 0.2668 0.0071 0.8082
H14_2 H 0.6796 0.0355 0.7105
H15_2 H 0.7332 0.0071 0.6918
H30 H 0.3968 0.0309 0.9813
C28_2 C 0.61804(14) 0.22788(18) 0.3567(2)
C29_2 C 0.58544(14) 0.17664(19) 0.3930(2)
C30_2 C 0.52487(14) 0.1847(2) 0.3659(2)
H27_2 H 0.5053 0.2234 0.3277
C31_2 C 0.52320(15) 0.0773(2) 0.4520(3)
C32_2 C 0.61427(14) 0.1197(2) 0.4507(3)
H28_2 H 0.6548 0.1151 0.4699
C33_4 C 0.49398(15) 0.1354(2) 0.3956(2)
H29_4 H 0.4536 0.1411 0.3778
C34_2 C 0.58361(16) 0.0695(2) 0.4803(3)
H30_2 H 0.6032 0.0309 0.5187
N6_4 N 0.48622(13) 0.02694(19) 0.4755(2)
O9_2 O 0.59052(10) 0.26835(13) 0.29307(15)
N4_2 N 0.99579(15) 0.2544(2) 0.2120(2)
C42_2 C 0.85337(15) 0.2651(2) 0.3424(2)
C43_2 C 0.79974(15) 0.2702(2) 0.3634(2)
C44_2 C 0.84835(16) 0.2797(2) 0.2603(2)
H35_2 H 0.8120 0.2929 0.2184
C45_2 C 0.89662(16) 0.2751(2) 0.2394(2)
H36_2 H 0.8925 0.2838 0.1835
C46_2 C 0.95121(18) 0.2573(3) 0.3021(3)
C47_2 C 0.90767(18) 0.2461(3) 0.4045(3)
H37_2 H 0.9112 0.2355 0.4598
C48_2 C 0.95690(19) 0.2428(3) 0.3855(3)
H38_2 H 0.9934 0.2310 0.4279
O13_2 O 0.75547(10) 0.30145(15) 0.30718(16)
C49_2 C 0.6920(3) 0.1363(4) 0.2396(5)
H39_2 H 0.7223 0.1384 0.2936
C50_2 C 0.7098(6) 0.0027(5) 0.2239(8)
H40_2 H 0.7342 0.0008 0.2839
C51_2 C 0.6395(5) 0.4265(6) 0.1588(6)
H43_2 H 0.6576 0.4556 0.2080
C52_2 C 0.6629(5) 0.0837(12) 0.1134(13)
H44_2 H 0.6760 0.0417 0.0889
H45_2 H 0.6208 0.0848 0.0898
H46_2 H 0.6775 0.1310 0.1005
C53_2 C 0.5847(7) 0.4202(12) 0.0019(8)
H49_2 H 0.5893 0.3661 0.0133
C54_2 C 0.6249(6) 0.5492(5) 0.0771(10)
H50_2 H 0.6655 0.5639 0.1022
H51_2 H 0.6089 0.5615 0.0173
H52_2 H 0.6037 0.5764 0.1047
N9_2 N 0.6201(5) 0.4667(6) 0.0880(8)
N10_2 N 0.6843(4) 0.0741(4) 0.2031(7)
O15_2 O 0.63823(14) 0.3583(2) 0.1718(2)
O16_2 O 0.66263(14) 0.2004(2) 0.2115(2)
C28_3 C 0.88196(14) 0.72788(18) 0.1433(2)
C29_3 C 0.91456(14) 0.67664(19) 0.1070(2)
C30_3 C 0.97513(14) 0.6847(2) 0.1341(2)
H27_3 H 0.9947 0.7234 0.1723
C31_3 C 0.97680(15) 0.5773(2) 0.0480(3)
C32_3 C 0.88573(14) 0.6197(2) 0.0493(3)
H28_3 H 0.8452 0.6151 0.0301
C34_3 C 0.91639(16) 0.5695(2) 0.0197(3)
O9_3 O 0.90948(10) 0.76835(13) 0.20693(15)
O10 O 0.82590(9) 0.72725(12) 0.11162(14)
Mg6 Mg 0.7500 0.7500 0.0000
Mg7 Mg 0.82984(5) 0.79956(7) 0.21705(7)
C11 C 0.00602(15) 0.3646(2) 0.6044(2)
H5 H 0.0464 0.3589 0.6222
N2 N 0.01378(13) 0.47306(19) 0.5245(2)
C28_4 C 0.11804(14) 0.72788(18) 0.3567(2)
C29_4 C 0.08544(14) 0.67664(19) 0.3930(2)
C30_4 C 0.02487(14) 0.6847(2) 0.3659(2)
H27_4 H 0.0053 0.7234 0.3277
C31_4 C 0.02320(15) 0.5773(2) 0.4520(3)
C32_4 C 0.11427(14) 0.6197(2) 0.4507(3)
H28_4 H 0.1548 0.6151 0.4699
C34_4 C 0.08361(16) 0.5695(2) 0.4803(3)
H30_3 H 0.1032 0.5309 0.5187
O9_4 O 0.09052(10) 0.76835(13) 0.29307(15)
O10_2 O 0.17410(9) 0.72725(12) 0.38838(14)
Mg6_2 Mg 0.2500 0.7500 0.5000
Mg7_2 Mg 0.17016(5) 0.79956(7) 0.28295(7)
N4_3 N 0.00421(15) 0.7456(2) 0.7880(2)
C42_3 C 0.14663(15) 0.7349(2) 0.6576(2)
C43_3 C 0.20026(15) 0.7298(2) 0.6366(2)
C44_3 C 0.15165(16) 0.7203(2) 0.7397(2)
H35_3 H 0.1880 0.7071 0.7816
C45_3 C 0.10338(16) 0.7249(2) 0.7606(2)
H36_3 H 0.1075 0.7162 0.8165
C46_3 C 0.04879(18) 0.7427(3) 0.6979(3)
C47_3 C 0.09233(18) 0.7539(3) 0.5955(3)
H37_3 H 0.0888 0.7645 0.5402
C48_3 C 0.04310(19) 0.7572(3) 0.6145(3)
H38_3 H 0.0066 0.7690 0.5721
O13_3 O 0.24453(10) 0.69855(15) 0.69282(16)
O14_2 O 0.19704(10) 0.75671(14) 0.56744(15)
C49_3 C 0.3080(3) 0.8637(4) 0.7604(5)
H39_3 H 0.2777 0.8616 0.7064
C50_3 C 0.2902(6) 0.9973(5) 0.7761(8)
H40_3 H 0.2658 0.9992 0.7161
C51_3 C 0.3605(5) 0.5735(6) 0.8412(6)
H43_3 H 0.3424 0.5444 0.7920
C52_3 C 0.3371(5) 0.9163(12) 0.8866(13)
H44_3 H 0.3240 0.9583 0.9111
H45_3 H 0.3792 0.9152 0.9102
H46_3 H 0.3225 0.8690 0.8995
C53_3 C 0.4153(7) 0.5798(12) 0.9981(8)
H49_3 H 0.4107 0.6339 0.9867
C54_3 C 0.3751(6) 0.4508(5) 0.9229(10)
H50_3 H 0.3345 0.4361 0.8978
H51_3 H 0.3911 0.4385 0.9827
H52_3 H 0.3963 0.4236 0.8953
Mg3_2 Mg 0.32984(5) 0.70044(7) 0.71705(7)
N9_3 N 0.3799(5) 0.5333(6) 0.9120(8)
N10_3 N 0.3157(4) 0.9259(4) 0.7969(7)
O15_3 O 0.36177(14) 0.6417(2) 0.8282(2)
O16_3 O 0.33737(14) 0.7996(2) 0.7885(2)
O19_2 O 0.32466(10) 0.60161(13) 0.65183(16)
O20_2 O 0.40948(10) 0.73165(13) 0.70693(15)
O21_2 O 0.32590(9) 0.77275(12) 0.61162(14)
H6_3 H 0.6032 0.9691 0.0187
C17_3 C 0.7698(3) 0.4050(3) 0.0494(5)
H9_3 H 0.7971 0.3912 0.1032
C19_3 C 0.7595(2) 0.4822(3) 0.0276(3)
H11_3 H 0.7799 0.5196 0.0672
N5_3 N 0.7621(3) 0.2687(3) 0.0272(3)
C39_3 C 0.8101(3) 0.0528(2) 0.1084(4)
H33_3 H 0.8377 0.0398 0.1622
C40_3 C 0.7992(4) 0.1298(3) 0.0854(4)
H34_3 H 0.8194 0.1677 0.1244
C41_3 C 0.7599(3) 0.1502(3) 0.0077(4)
O17_3 O 0.69704(10) 0.74329(14) 0.06744(15)
O18_3 O 0.76170(9) 0.86626(12) 0.02068(14)
C35_3 C 0.78977(14) 0.91341(18) 0.0761(2)
C36_3 C 0.78044(17) 0.9961(2) 0.0519(3)
O12_3 O 0.82466(10) 0.89839(13) 0.15183(16)
C1_3 C 0.38196(14) 0.77212(18) 0.6433(2)
C2_3 C 0.28977(14) 0.58659(18) 0.5761(2)
C3_3 C 0.41456(14) 0.82336(19) 0.6070(2)
C6_3 C 0.47513(14) 0.8153(2) 0.6341(2)
H1_3 H 0.4947 0.7766 0.6723
C9_3 C 0.47680(15) 0.9227(2) 0.5480(3)
C10_3 C 0.38573(14) 0.8803(2) 0.5493(3)
H4_3 H 0.3452 0.8849 0.5301
C11_2 C 0.50602(15) 0.8646(2) 0.6044(2)
H5_2 H 0.5464 0.8589 0.6222
C13_3 C 0.41639(16) 0.9305(2) 0.5197(3)
H6_4 H 0.3968 0.9691 0.4813
C14_3 C 0.28044(17) 0.5039(2) 0.5519(3)
C17_4 C 0.2302(3) 0.4050(3) 0.4506(5)
H9_4 H 0.2029 0.3912 0.3968
C19_4 C 0.2405(2) 0.4822(3) 0.4724(3)
H11_4 H 0.2201 0.5196 0.4328
C20_3 C 0.3101(3) 0.4472(2) 0.6084(4)
H12_3 H 0.3377 0.4602 0.6622
C23_3 C 0.2992(4) 0.3702(3) 0.5854(4)
H17_3 H 0.3194 0.3323 0.6244
C26_3 C 0.2599(3) 0.3498(3) 0.5077(4)
N2_2 N 0.51378(13) 0.97306(19) 0.5245(2)
N5_4 N 0.2379(3) 0.2687(3) 0.4728(3)
O3_3 O 0.26170(9) 0.63374(12) 0.52068(14)
C37_3 C 0.2698(3) 0.0950(3) 0.5494(5)
H31_3 H 0.2971 0.1088 0.6032
C38_3 C 0.2595(2) 0.0178(3) 0.5276(3)
C39_4 C 0.1899(3) 0.0528(2) 0.3916(4)
H33_4 H 0.1623 0.0398 0.3378
C40_4 C 0.2008(4) 0.1298(3) 0.4146(4)
H34_4 H 0.1806 0.1677 0.3756
C41_4 C 0.2401(3) 0.1502(3) 0.4923(4)
N7_3 N 0.2621(3) 0.2313(3) 0.5272(3)
O17_4 O 0.30296(10) 0.74329(14) 0.43256(15)
O18_4 O 0.23830(9) 0.86626(12) 0.47932(14)
C35_4 C 0.21023(14) 0.91341(18) 0.4239(2)
C36_4 C 0.21956(17) 0.9961(2) 0.4481(3)
H32_3 H 0.2799 0.9804 0.5672
O12_4 O 0.17534(10) 0.89839(13) 0.34817(16)
C27_3 C 0.8751(6) 0.0492(5) 0.4229(10)
H24_3 H 0.8345 0.0639 0.3978
H25_3 H 0.8911 0.0615 0.4827
H26_3 H 0.8963 0.0764 0.3953
C54_4 C 0.1249(6) 0.0492(5) 0.0771(10)
H50_4 H 0.1655 0.0639 0.1022
H51_4 H 0.1089 0.0615 0.0173
H52_4 H 0.1037 0.0764 0.1047
C4_3 C 0.64663(15) 0.7651(2) 0.1576(2)
C5_3 C 0.70026(15) 0.7702(2) 0.1366(2)
C7_3 C 0.65165(16) 0.7797(2) 0.2397(2)
H2_3 H 0.6880 0.7929 0.2816
C8_3 C 0.60338(16) 0.7751(2) 0.2606(2)
H3_3 H 0.6075 0.7838 0.3165
C12_3 C 0.54879(18) 0.7573(3) 0.1979(3)
C15_3 C 0.59233(18) 0.7461(3) 0.0955(3)
H7_3 H 0.5888 0.7355 0.0402
C16_3 C 0.54310(19) 0.7428(3) 0.1145(3)
H8_3 H 0.5066 0.7310 0.0721
C18_3 C 0.8080(3) 0.6363(4) 0.2604(5)
H10_3 H 0.7777 0.6384 0.2064
C21_3 C 0.7902(6) 0.5027(5) 0.2761(8)
H13_3 H 0.7658 0.5008 0.2161
H14_3 H 0.8204 0.4645 0.2895
H15_3 H 0.7668 0.4929 0.3082
C22_3 C 0.8605(5) 0.9265(6) 0.3412(6)
H16_3 H 0.8424 0.9556 0.2920
C24_3 C 0.8371(5) 0.5837(12) 0.3866(13)
H18_3 H 0.8240 0.5417 0.4111
H19_3 H 0.8792 0.5848 0.4102
H20_3 H 0.8225 0.6310 0.3995
C25_3 C 0.9153(7) 0.9202(12) 0.4981(8)
H21_3 H 0.9562 0.9333 0.5191
H22_3 H 0.9003 0.9332 0.5403
H23_3 H 0.9107 0.8661 0.4867
N1_3 N 0.8799(5) 0.9667(6) 0.4120(8)
N3_3 N 0.8157(4) 0.5741(4) 0.2969(7)
N4_4 N 0.49579(15) 0.7544(2) 0.2120(2)
O1_3 O 0.74453(10) 0.80145(15) 0.19282(16)
O5_3 O 0.86177(14) 0.8583(2) 0.3282(2)
O6_3 O 0.83737(14) 0.7004(2) 0.2885(2)
C42_4 C 0.35337(15) 0.7651(2) 0.3424(2)
C43_4 C 0.29974(15) 0.7702(2) 0.3634(2)
C44_4 C 0.34835(16) 0.7797(2) 0.2603(2)
H35_4 H 0.3120 0.7929 0.2184
C45_4 C 0.39662(16) 0.7751(2) 0.2394(2)
H36_4 H 0.3925 0.7838 0.1835
C46_4 C 0.45121(18) 0.7573(3) 0.3021(3)
C47_4 C 0.40767(18) 0.7461(3) 0.4045(3)
H37_4 H 0.4112 0.7355 0.4598
C48_4 C 0.45690(19) 0.7428(3) 0.3855(3)
H38_4 H 0.4934 0.7310 0.4279
N8_3 N 0.50421(15) 0.7544(2) 0.2880(2)
O13_4 O 0.25547(10) 0.80145(15) 0.30718(16)
C49_4 C 0.1920(3) 0.6363(4) 0.2396(5)
H39_4 H 0.2223 0.6384 0.2936
C50_4 C 0.2098(6) 0.5027(5) 0.2239(8)
H40_4 H 0.2342 0.5008 0.2839
H41_3 H 0.1796 0.4645 0.2105
H42_3 H 0.2332 0.4929 0.1918
C51_4 C 0.1395(5) 0.9265(6) 0.1588(6)
H43_4 H 0.1576 0.9556 0.2080
C52_4 C 0.1629(5) 0.5837(12) 0.1134(13)
H44_4 H 0.1760 0.5417 0.0889
H45_4 H 0.1208 0.5848 0.0898
H46_4 H 0.1775 0.6310 0.1005
C53_4 C 0.0847(7) 0.9202(12) 0.0019(8)
H49_4 H 0.0893 0.8661 0.0133
N9_4 N 0.1201(5) 0.9667(6) 0.0880(8)
N10_4 N 0.1843(4) 0.5741(4) 0.2031(7)
O15_4 O 0.13823(14) 0.8583(2) 0.1718(2)
O16_4 O 0.16263(14) 0.7004(2) 0.2115(2)
H14_4 H 0.3204 0.9645 0.2895
H15_4 H 0.2668 0.9929 0.3082
H41_4 H 0.6796 0.9645 0.2105
H42_4 H 0.7332 0.9929 0.1918
C11_3 C 0.99398(15) 0.3646(2) 0.8956(2)
H5_3 H 0.9536 0.3589 0.8778
N2_3 N 0.98622(13) 0.47306(19) 0.9755(2)
H30_4 H 0.8968 0.5309 0.9813
Mg6_3 Mg 0.7500 0.7500 1.0000
C1_4 C 0.61804(14) 0.77212(18) 0.8567(2)
C2_4 C 0.71023(14) 0.58659(18) 0.9239(2)
C3_4 C 0.58544(14) 0.82336(19) 0.8930(2)
C4_4 C 0.85337(15) 0.7349(2) 0.8424(2)
C5_4 C 0.79974(15) 0.7298(2) 0.8634(2)
C6_4 C 0.52487(14) 0.8153(2) 0.8659(2)
H1_4 H 0.5053 0.7766 0.8277
C7_4 C 0.84835(16) 0.7203(2) 0.7603(2)
H2_4 H 0.8120 0.7071 0.7184
C8_4 C 0.89662(16) 0.7249(2) 0.7394(2)
H3_4 H 0.8925 0.7162 0.6835
C9_4 C 0.52320(15) 0.9227(2) 0.9520(3)
C10_4 C 0.61427(14) 0.8803(2) 0.9507(3)
H4_4 H 0.6548 0.8849 0.9699
C11_4 C 0.49398(15) 0.8646(2) 0.8956(2)
H5_4 H 0.4536 0.8589 0.8778
C12_4 C 0.95121(18) 0.7427(3) 0.8021(3)
C13_4 C 0.58361(16) 0.9305(2) 0.9803(3)
C14_4 C 0.71956(17) 0.5039(2) 0.9481(3)
C15_4 C 0.90767(18) 0.7539(3) 0.9045(3)
H7_4 H 0.9112 0.7645 0.9598
C16_4 C 0.95690(19) 0.7572(3) 0.8855(3)
H8_4 H 0.9934 0.7690 0.9279
C18_4 C 0.6920(3) 0.8637(4) 0.7396(5)
H10_4 H 0.7223 0.8616 0.7936
C20_4 C 0.6899(3) 0.4472(2) 0.8916(4)
H12_4 H 0.6623 0.4602 0.8378
C21_4 C 0.7098(6) 0.9973(5) 0.7239(8)
H13_4 H 0.7342 0.9992 0.7839
C22_4 C 0.6395(5) 0.5735(6) 0.6588(6)
H16_4 H 0.6576 0.5444 0.7080
C23_4 C 0.7008(4) 0.3702(3) 0.9146(4)
H17_4 H 0.6806 0.3323 0.8756
C24_4 C 0.6629(5) 0.9163(12) 0.6134(13)
H18_4 H 0.6760 0.9583 0.5889
H19_4 H 0.6208 0.9152 0.5898
H20_4 H 0.6775 0.8690 0.6005
C25_4 C 0.5847(7) 0.5798(12) 0.5019(8)
H21_4 H 0.5438 0.5667 0.4809
H22_4 H 0.5997 0.5668 0.4597
H23_4 H 0.5893 0.6339 0.5133
C26_4 C 0.7401(3) 0.3498(3) 0.9923(4)
C27_4 C 0.6249(6) 0.4508(5) 0.5771(10)
H24_4 H 0.6655 0.4361 0.6022
H25_4 H 0.6089 0.4385 0.5173
H26_4 H 0.6037 0.4236 0.6047
Mg2_2 Mg 0.67016(5) 0.70044(7) 0.78295(7)
N1_4 N 0.6201(5) 0.5333(6) 0.5880(8)
N2_4 N 0.48622(13) 0.97306(19) 0.9755(2)
N3_4 N 0.6843(4) 0.9259(4) 0.7031(7)
O1_4 O 0.75547(10) 0.69855(15) 0.80718(16)
O2_2 O 0.80296(10) 0.75671(14) 0.93256(15)
O3_4 O 0.73830(9) 0.63374(12) 0.97932(14)
O4_2 O 0.67534(10) 0.60161(13) 0.84817(16)
O5_4 O 0.63823(14) 0.6417(2) 0.6718(2)
O6_4 O 0.66263(14) 0.7996(2) 0.7115(2)
O7_2 O 0.59052(10) 0.73165(13) 0.79307(15)
O8_2 O 0.67410(9) 0.77275(12) 0.88838(14)
C37_4 C 0.7302(3) 0.0950(3) 0.9506(5)
H31_4 H 0.7029 0.1088 0.8968
C38_4 C 0.7405(2) 0.0178(3) 0.9724(3)
N7_4 N 0.7379(3) 0.2313(3) 0.9728(3)
N8_4 N 0.99579(15) 0.7456(2) 0.7120(2)
H32_4 H 0.7201 0.9804 0.9328
H47_2 H 0.0438 0.9333 0.9809
H48_2 H 0.0997 0.9332 0.9597
H47_3 H 0.4562 0.5667 0.0191
H48_3 H 0.4003 0.5668 0.0403
H47_4 H 0.5438 0.4333 0.9809
H48_4 H 0.5997 0.4332 0.9597
loop_
_geom_bond_atom_site_label_1
_geom_bond_atom_site_label_2
_geom_bond_site_symmetry_1
_geom_bond_site_symmetry_2
H29 C33 1_555 1_555
O17 Mg1 1_555 1_555
O18 Mg1 1_555 1_555
O22 Mg1 1_555 1_555
C17 H9 1_555 1_555
C19 C17 1_555 1_555
C35 C36 1_555 1_555
C39 C36 1_555 1_555
H33 C39 1_555 1_555
C40 C39 1_555 1_555
H34 C40 1_555 1_555
O18 C35 1_555 1_555
O12 C35 1_555 1_555
Mg8 O12 1_555 1_555
C40 C41 1_555 1_555
C28 C29 1_555 1_555
C29 C30 1_555 1_555
C30 H27 1_555 1_555
C31 C33_2 1_555 1_555
C32 C29 1_555 1_555
H28 C32 1_555 1_555
C33_2 C30 1_555 1_555
H29_2 C33_2 1_555 1_555
C34 C31 1_555 1_555
O9 C28 1_555 1_555
O22 C28 1_555 1_555
Mg8 O9 1_555 1_555
C31 N6_2 1_555 1_555
C32 C34 1_555 1_555
O22 Mg8 1_555 1_555
C4 C5 1_555 1_555
C5 O1 1_555 1_555
C7 C4 1_555 1_555
H2 C7 1_555 1_555
C8 C7 1_555 1_555
H3 C8 1_555 1_555
C12 C8 1_555 1_555
C15 C4 1_555 1_555
H7 C15 1_555 1_555
C16 C12 1_555 1_555
H8 C16 1_555 1_555
C18 H10 1_555 1_555
C21 H13 1_555 1_555
C22 H16 1_555 1_555
C24 H18 1_555 1_555
H19 C24 1_555 1_555
H20 C24 1_555 1_555
C25 H21 1_555 1_555
H22 C25 1_555 1_555
H23 C25 1_555 1_555
C27 H24 1_555 1_555
H25 C27 1_555 1_555
H26 C27 1_555 1_555
Mg8 O1 1_555 1_555
N1 C22 1_555 1_555
N3 C18 1_555 1_555
O17 C5 1_555 1_555
O5 C22 1_555 1_555
O6 C18 1_555 1_555
C15 C16 1_555 1_555
C21 N3 1_555 1_555
C24 N3 1_555 1_555
C25 N1 1_555 1_555
C27 N1 1_555 1_555
Mg8 O5 1_555 1_555
Mg8 O6 1_555 1_555
C1 C3 1_555 1_555
C2 C14 1_555 1_555
C3 C6 1_555 1_555
C4_2 C5_2 1_555 1_555
C5_2 O1_2 1_555 1_555
C6 H1 1_555 1_555
C7_2 C4_2 1_555 1_555
H2_2 C7_2 1_555 1_555
C8_2 C7_2 1_555 1_555
H3_2 C8_2 1_555 1_555
C10 C3 1_555 1_555
H4 C10 1_555 1_555
C12_2 C8_2 1_555 1_555
C13 C9 1_555 1_555
C15_2 C4_2 1_555 1_555
H7_2 C15_2 1_555 1_555
C16_2 C12_2 1_555 1_555
H8_2 C16_2 1_555 1_555
C18_2 H10_2 1_555 1_555
C21_2 H13_2 1_555 1_555
H14 C21_2 1_555 1_555
H15 C21_2 1_555 1_555
C22_2 H16_2 1_555 1_555
C24_2 H18_2 1_555 1_555
H19_2 C24_2 1_555 1_555
H20_2 C24_2 1_555 1_555
C25_2 H21_2 1_555 1_555
H22_2 C25_2 1_555 1_555
H23_2 C25_2 1_555 1_555
Mg1_2 O2 1_555 1_555
Mg2 O1_2 1_555 1_555
N1_2 C22_2 1_555 1_555
N3_2 C18_2 1_555 1_555
N4 C12_2 1_555 1_555
O2 C5_2 1_555 1_555
O3 C2 1_555 1_555
O4 C2 1_555 1_555
O5_2 C22_2 1_555 1_555
O6_2 C18_2 1_555 1_555
O7 C1 1_555 1_555
O8 C1 1_555 1_555
C42 C43 1_555 1_555
C43 O13 1_555 1_555
C44 C42 1_555 1_555
H35 C44 1_555 1_555
C45 C44 1_555 1_555
H36 C45 1_555 1_555
C46 C45 1_555 1_555
C47 C42 1_555 1_555
H37 C47 1_555 1_555
C48 C46 1_555 1_555
H38 C48 1_555 1_555
N8_2 N4 1_555 1_555
O13 Mg3 1_555 1_555
O14 C43 1_555 1_555
C49 H39 1_555 1_555
C50 H40 1_555 1_555
H41 C50 1_555 1_555
H42 C50 1_555 1_555
C51 H43 1_555 1_555
C52 H44 1_555 1_555
H45 C52 1_555 1_555
H46 C52 1_555 1_555
H49 C53 1_555 1_555
Mg3 O15 1_555 1_555
N9 C51 1_555 1_555
N10 C49 1_555 1_555
O15 C51 1_555 1_555
O16 C49 1_555 1_555
Mg5 O14 1_555 1_555
O19 Mg3 1_555 1_555
O20 Mg3 1_555 1_555
O21 Mg3 1_555 1_555
C10 C13 1_555 1_555
C15_2 C16_2 1_555 1_555
C21_2 N3_2 1_555 1_555
C24_2 N3_2 1_555 1_555
C25_2 N1_2 1_555 1_555
Mg1_2 O3 1_555 1_555
Mg1_2 O8 1_555 1_555
Mg2 O4 1_555 1_555
Mg2 O5_2 1_555 1_555
Mg2 O6_2 1_555 1_555
Mg2 O7 1_555 1_555
Mg2 O8 1_555 1_555
C46 N8_2 1_555 1_555
C47 C48 1_555 1_555
C50 N10 1_555 1_555
C52 N10 1_555 1_555
C53 N9 1_555 1_555
Mg3 O16 1_555 1_555
Mg5 O21 1_555 1_555
H12 C20 1_555 1_555
C23 C20 1_555 1_555
H17 C23 1_555 1_555
C27_2 H24_2 1_555 1_555
H25_2 C27_2 1_555 1_555
H26_2 C27_2 1_555 1_555
C37 H31 1_555 1_555
C38 C37 1_555 1_555
H32 C38 1_555 1_555
C54 H50 1_555 1_555
H51 C54 1_555 1_555
H52 C54 1_555 1_555
C23 C26 1_555 1_555
C1_2 C3_2 1_555 1_555
C2_2 C14_2 1_555 1_555
C3_2 C6_2 1_555 1_555
C6_2 H1_2 1_555 1_555
C10_2 C3_2 1_555 1_555
H4_2 C10_2 1_555 1_555
C13_2 C9_2 1_555 1_555
H6_2 C13_2 1_555 1_555
O3_2 C2_2 1_555 1_555
O19 C2_2 1_555 1_555
O20 C1_2 1_555 1_555
O21 C1_2 1_555 1_555
H29_3 C33_3 1_555 1_555
O17_2 Mg5 1_555 1_555
O18_2 Mg5 1_555 1_555
O22_2 Mg5 1_555 1_555
C10_2 C13_2 1_555 1_555
Mg5 O3_2 1_555 1_555
C17_2 H9_2 1_555 1_555
C19_2 C17_2 1_555 1_555
H12_2 C20_2 1_555 1_555
C23_2 C20_2 1_555 1_555
H17_2 C23_2 1_555 1_555
C26_2 C17_2 1_555 1_555
N5_2 C26_2 1_555 1_555
C35_2 C36_2 1_555 1_555
C36_2 C38_2 1_555 1_555
C37_2 H31_2 1_555 1_555
C38_2 C37_2 1_555 1_555
H32_2 C38_2 1_555 1_555
C39_2 C36_2 1_555 1_555
H33_2 C39_2 1_555 1_555
C40_2 C39_2 1_555 1_555
H34_2 C40_2 1_555 1_555
C41_2 C37_2 1_555 1_555
N7_2 N5_2 1_555 1_555
O18_2 C35_2 1_555 1_555
O12_2 C35_2 1_555 1_555
Mg8_2 O12_2 1_555 1_555
C23_2 C26_2 1_555 1_555
C40_2 C41_2 1_555 1_555
C41_2 N7_2 1_555 1_555
C28_2 C29_2 1_555 1_555
C29_2 C30_2 1_555 1_555
C30_2 H27_2 1_555 1_555
C31_2 C33_4 1_555 1_555
C32_2 C29_2 1_555 1_555
H28_2 C32_2 1_555 1_555
C33_4 C30_2 1_555 1_555
H29_4 C33_4 1_555 1_555
C34_2 C31_2 1_555 1_555
H30_2 C34_2 1_555 1_555
O9_2 C28_2 1_555 1_555
O22_2 C28_2 1_555 1_555
Mg8_2 O9_2 1_555 1_555
C31_2 N6_4 1_555 1_555
C32_2 C34_2 1_555 1_555
O22_2 Mg8_2 1_555 1_555
C42_2 C43_2 1_555 1_555
C43_2 O13_2 1_555 1_555
C44_2 C42_2 1_555 1_555
H35_2 C44_2 1_555 1_555
C45_2 C44_2 1_555 1_555
H36_2 C45_2 1_555 1_555
C46_2 C45_2 1_555 1_555
C47_2 C42_2 1_555 1_555
H37_2 C47_2 1_555 1_555
C48_2 C46_2 1_555 1_555
H38_2 C48_2 1_555 1_555
O13_2 Mg8_2 1_555 1_555
O17_2 C43_2 1_555 1_555
C49_2 H39_2 1_555 1_555
C50_2 H40_2 1_555 1_555
C51_2 H43_2 1_555 1_555
C52_2 H44_2 1_555 1_555
H45_2 C52_2 1_555 1_555
H46_2 C52_2 1_555 1_555
H49_2 C53_2 1_555 1_555
C54_2 H50_2 1_555 1_555
H51_2 C54_2 1_555 1_555
H52_2 C54_2 1_555 1_555
Mg8_2 O15_2 1_555 1_555
N9_2 C51_2 1_555 1_555
N10_2 C49_2 1_555 1_555
O15_2 C51_2 1_555 1_555
O16_2 C49_2 1_555 1_555
C47_2 C48_2 1_555 1_555
C50_2 N10_2 1_555 1_555
C52_2 N10_2 1_555 1_555
C53_2 N9_2 1_555 1_555
C54_2 N9_2 1_555 1_555
Mg8_2 O16_2 1_555 1_555
C28_3 C29_3 1_555 1_555
C29_3 C30_3 1_555 1_555
C30_3 H27_3 1_555 1_555
C32_3 C29_3 1_555 1_555
H28_3 C32_3 1_555 1_555
C34_3 C31_3 1_555 1_555
O9_3 C28_3 1_555 1_555
O10 C28_3 1_555 1_555
Mg6 O10 1_555 1_555
Mg7 O9_3 1_555 1_555
C32_3 C34_3 1_555 1_555
O10 Mg7 1_555 1_555
H5 C11 1_555 1_555
C28_4 C29_4 1_555 1_555
C29_4 C30_4 1_555 1_555
C30_4 H27_4 1_555 1_555
C32_4 C29_4 1_555 1_555
H28_4 C32_4 1_555 1_555
C34_4 C31_4 1_555 1_555
H30_3 C34_4 1_555 1_555
O9_4 C28_4 1_555 1_555
O10_2 C28_4 1_555 1_555
Mg6_2 O10_2 1_555 1_555
Mg7_2 O9_4 1_555 1_555
C32_4 C34_4 1_555 1_555
O10_2 Mg7_2 1_555 1_555
C42_3 C43_3 1_555 1_555
C43_3 O13_3 1_555 1_555
C44_3 C42_3 1_555 1_555
H35_3 C44_3 1_555 1_555
C45_3 C44_3 1_555 1_555
H36_3 C45_3 1_555 1_555
C46_3 C45_3 1_555 1_555
C47_3 C42_3 1_555 1_555
H37_3 C47_3 1_555 1_555
C48_3 C46_3 1_555 1_555
H38_3 C48_3 1_555 1_555
O13_3 Mg3_2 1_555 1_555
O14_2 C43_3 1_555 1_555
C49_3 H39_3 1_555 1_555
C50_3 H40_3 1_555 1_555
C51_3 H43_3 1_555 1_555
C52_3 H44_3 1_555 1_555
H45_3 C52_3 1_555 1_555
H46_3 C52_3 1_555 1_555
H49_3 C53_3 1_555 1_555
C54_3 H50_3 1_555 1_555
H51_3 C54_3 1_555 1_555
H52_3 C54_3 1_555 1_555
Mg3_2 O15_3 1_555 1_555
N9_3 C51_3 1_555 1_555
N10_3 C49_3 1_555 1_555
O15_3 C51_3 1_555 1_555
O16_3 C49_3 1_555 1_555
Mg6_2 O14_2 1_555 1_555
O19_2 Mg3_2 1_555 1_555
O20_2 Mg3_2 1_555 1_555
O21_2 Mg3_2 1_555 1_555
C47_3 C48_3 1_555 1_555
C50_3 N10_3 1_555 1_555
C52_3 N10_3 1_555 1_555
C53_3 N9_3 1_555 1_555
C54_3 N9_3 1_555 1_555
Mg3_2 O16_3 1_555 1_555
Mg6_2 O21_2 1_555 1_555
C17_3 H9_3 1_555 1_555
C19_3 C17_3 1_555 1_555
H11_3 C19_3 1_555 1_555
H33_3 C39_3 1_555 1_555
C40_3 C39_3 1_555 1_555
H34_3 C40_3 1_555 1_555
O17_3 Mg6 1_555 1_555
O18_3 Mg6 1_555 1_555
C40_3 C41_3 1_555 1_555
C35_3 C36_3 1_555 1_555
O18_3 C35_3 1_555 1_555
O12_3 C35_3 1_555 1_555
Mg7 O12_3 1_555 1_555
C1_3 C3_3 1_555 1_555
C2_3 C14_3 1_555 1_555
C3_3 C6_3 1_555 1_555
C6_3 H1_3 1_555 1_555
C9_3 C11_2 1_555 1_555
C10_3 C3_3 1_555 1_555
H4_3 C10_3 1_555 1_555
C11_2 C6_3 1_555 1_555
H5_2 C11_2 1_555 1_555
C13_3 C9_3 1_555 1_555
H6_4 C13_3 1_555 1_555
C14_3 C19_4 1_555 1_555
C17_4 H9_4 1_555 1_555
C19_4 C17_4 1_555 1_555
H11_4 C19_4 1_555 1_555
C20_3 C14_3 1_555 1_555
H12_3 C20_3 1_555 1_555
C23_3 C20_3 1_555 1_555
H17_3 C23_3 1_555 1_555
C26_3 C17_4 1_555 1_555
N2_2 C9_3 1_555 1_555
N5_4 C26_3 1_555 1_555
O3_3 C2_3 1_555 1_555
O19_2 C2_3 1_555 1_555
O20_2 C1_3 1_555 1_555
O21_2 C1_3 1_555 1_555
C37_3 H31_3 1_555 1_555
C38_3 C37_3 1_555 1_555
H33_4 C39_4 1_555 1_555
C40_4 C39_4 1_555 1_555
H34_4 C40_4 1_555 1_555
C41_4 C37_3 1_555 1_555
N7_3 N5_4 1_555 1_555
O17_4 Mg6_2 1_555 1_555
O18_4 Mg6_2 1_555 1_555
C10_3 C13_3 1_555 1_555
C23_3 C26_3 1_555 1_555
Mg6_2 O3_3 1_555 1_555
C40_4 C41_4 1_555 1_555
C41_4 N7_3 1_555 1_555
C35_4 C36_4 1_555 1_555
O18_4 C35_4 1_555 1_555
O12_4 C35_4 1_555 1_555
Mg7_2 O12_4 1_555 1_555
C27_3 H24_3 1_555 1_555
H25_3 C27_3 1_555 1_555
H26_3 C27_3 1_555 1_555
C54_4 H50_4 1_555 1_555
H51_4 C54_4 1_555 1_555
H52_4 C54_4 1_555 1_555
C4_3 C5_3 1_555 1_555
C5_3 O1_3 1_555 1_555
C7_3 C4_3 1_555 1_555
H2_3 C7_3 1_555 1_555
C8_3 C7_3 1_555 1_555
H3_3 C8_3 1_555 1_555
C12_3 C8_3 1_555 1_555
C15_3 C4_3 1_555 1_555
H7_3 C15_3 1_555 1_555
C16_3 C12_3 1_555 1_555
H8_3 C16_3 1_555 1_555
C18_3 H10_3 1_555 1_555
C21_3 H13_3 1_555 1_555
H14_3 C21_3 1_555 1_555
H15_3 C21_3 1_555 1_555
C22_3 H16_3 1_555 1_555
C24_3 H18_3 1_555 1_555
H19_3 C24_3 1_555 1_555
H20_3 C24_3 1_555 1_555
C25_3 H21_3 1_555 1_555
H22_3 C25_3 1_555 1_555
H23_3 C25_3 1_555 1_555
Mg7 O1_3 1_555 1_555
N1_3 C22_3 1_555 1_555
N3_3 C18_3 1_555 1_555
N4_4 C12_3 1_555 1_555
O17_3 C5_3 1_555 1_555
O5_3 C22_3 1_555 1_555
O6_3 C18_3 1_555 1_555
C42_4 C43_4 1_555 1_555
C43_4 O13_4 1_555 1_555
C44_4 C42_4 1_555 1_555
H35_4 C44_4 1_555 1_555
C45_4 C44_4 1_555 1_555
H36_4 C45_4 1_555 1_555
C46_4 C45_4 1_555 1_555
C47_4 C42_4 1_555 1_555
H37_4 C47_4 1_555 1_555
C48_4 C46_4 1_555 1_555
H38_4 C48_4 1_555 1_555
N8_3 N4_4 1_555 1_555
O13_4 Mg7_2 1_555 1_555
O17_4 C43_4 1_555 1_555
C49_4 H39_4 1_555 1_555
C50_4 H40_4 1_555 1_555
H41_3 C50_4 1_555 1_555
H42_3 C50_4 1_555 1_555
C51_4 H43_4 1_555 1_555
C52_4 H44_4 1_555 1_555
H45_4 C52_4 1_555 1_555
H46_4 C52_4 1_555 1_555
H49_4 C53_4 1_555 1_555
Mg7_2 O15_4 1_555 1_555
N9_4 C51_4 1_555 1_555
N10_4 C49_4 1_555 1_555
O15_4 C51_4 1_555 1_555
O16_4 C49_4 1_555 1_555
C15_3 C16_3 1_555 1_555
C21_3 N3_3 1_555 1_555
C24_3 N3_3 1_555 1_555
C25_3 N1_3 1_555 1_555
Mg7 O5_3 1_555 1_555
Mg7 O6_3 1_555 1_555
C46_4 N8_3 1_555 1_555
C47_4 C48_4 1_555 1_555
C50_4 N10_4 1_555 1_555
C52_4 N10_4 1_555 1_555
C53_4 N9_4 1_555 1_555
Mg7_2 O16_4 1_555 1_555
H5_3 C11_3 1_555 1_555
C1_4 C3_4 1_555 1_555
C2_4 C14_4 1_555 1_555
C3_4 C6_4 1_555 1_555
C4_4 C5_4 1_555 1_555
C5_4 O1_4 1_555 1_555
C6_4 H1_4 1_555 1_555
C7_4 C4_4 1_555 1_555
H2_4 C7_4 1_555 1_555
C8_4 C7_4 1_555 1_555
H3_4 C8_4 1_555 1_555
C9_4 C11_4 1_555 1_555
C10_4 C3_4 1_555 1_555
H4_4 C10_4 1_555 1_555
C11_4 C6_4 1_555 1_555
H5_4 C11_4 1_555 1_555
C12_4 C8_4 1_555 1_555
C13_4 C9_4 1_555 1_555
C15_4 C4_4 1_555 1_555
H7_4 C15_4 1_555 1_555
C16_4 C12_4 1_555 1_555
H8_4 C16_4 1_555 1_555
C18_4 H10_4 1_555 1_555
C20_4 C14_4 1_555 1_555
H12_4 C20_4 1_555 1_555
C21_4 H13_4 1_555 1_555
C22_4 H16_4 1_555 1_555
C23_4 C20_4 1_555 1_555
H17_4 C23_4 1_555 1_555
C24_4 H18_4 1_555 1_555
H19_4 C24_4 1_555 1_555
H20_4 C24_4 1_555 1_555
C25_4 H21_4 1_555 1_555
H22_4 C25_4 1_555 1_555
H23_4 C25_4 1_555 1_555
C27_4 H24_4 1_555 1_555
H25_4 C27_4 1_555 1_555
H26_4 C27_4 1_555 1_555
Mg6_3 O2_2 1_555 1_555
Mg2_2 O1_4 1_555 1_555
N1_4 C22_4 1_555 1_555
N2_4 C9_4 1_555 1_555
N3_4 C18_4 1_555 1_555
O2_2 C5_4 1_555 1_555
O3_4 C2_4 1_555 1_555
O4_2 C2_4 1_555 1_555
O5_4 C22_4 1_555 1_555
O6_4 C18_4 1_555 1_555
O7_2 C1_4 1_555 1_555
O8_2 C1_4 1_555 1_555
C37_4 H31_4 1_555 1_555
C38_4 C37_4 1_555 1_555
C10_4 C13_4 1_555 1_555
C15_4 C16_4 1_555 1_555
C21_4 N3_4 1_555 1_555
C23_4 C26_4 1_555 1_555
C24_4 N3_4 1_555 1_555
C25_4 N1_4 1_555 1_555
C27_4 N1_4 1_555 1_555
Mg6_3 O3_4 1_555 1_555
Mg6_3 O8_2 1_555 1_555
Mg2_2 O4_2 1_555 1_555
Mg2_2 O5_4 1_555 1_555
Mg2_2 O6_4 1_555 1_555
Mg2_2 O7_2 1_555 1_555
Mg2_2 O8_2 1_555 1_555

#END
