
###############################################################################
#
# This file contains modified crystal structure data generated from the
# MOF subset of the Cambridge Structural Database (CSD) v543 
# hosted by the Cambridge Crystallographic Data Centre (CCDC).
#
# This work is licensed under the Creative Commons
# Attribution-NonCommercial-ShareAlike 4.0 International License.
# To view a copy of this license, visit
# http://creativecommons.org/licenses/by-nc-sa/4.0/
# or send a letter to
# Creative Commons, PO Box 1866, Mountain View, CA 94042, USA.
#
# CIF created using the CSD Python API on 29 September 2022
# The structure has been converted into the P1 space group
# The structure has a 3D framework
# The original CSD entry UTELUC is in the monoclinic crystal system
# The framework has been calculated to contain at least 10.0% void space
# The void calculation uses a probe of radius 1.32A, grid spacing 0.4
#
###############################################################################

data_UTELUC
_chemical_formula_moiety         '(C208 H200 Mg12 N32 O64)n'
_symmetry_cell_setting           triclinic
_symmetry_space_group_name_H-M   'P 1'
_symmetry_Int_Tables_number      1
_space_group_name_Hall           'P 1'
loop_
_symmetry_equiv_pos_site_id
_symmetry_equiv_pos_as_xyz
1 x,y,z
_cell_length_a                   24.833(3)
_cell_length_b                   17.5268(19)
_cell_length_c                   17.1621(18)
_cell_angle_alpha                90
_cell_angle_beta                 113.340(5)
_cell_angle_gamma                90
_cell_volume                     6858.44
loop_
_atom_site_label
_atom_site_type_symbol
_atom_site_fract_x
_atom_site_fract_y
_atom_site_fract_z
H28 H 0.1035 0.0328 0.0214
Mg6 Mg 0.2500 0.2500 0.0000
C27 C 0.11722(15) 0.2291(2) 0.8585(2)
C28 C 0.08445(15) 0.17790(19) 0.8936(2)
C30 C 0.02233(15) 0.0768(2) 0.9514(2)
C31 C 0.02404(15) 0.1842(2) 0.8655(2)
H27 H 0.0038 0.2230 0.8260
C32 C 0.08324(16) 0.0710(2) 0.9812(3)
C33 C 0.11377(15) 0.1212(2) 0.9519(3)
H29 H 0.1552 0.1170 0.9717
O9 O 0.17343(9) 0.22872(13) 0.89033(15)
O10 O 0.09005(10) 0.26973(15) 0.79578(15)
Mg6_2 Mg 0.2500 0.2500 1.0000
Mg7 Mg 0.16996(5) 0.30068(8) 0.78619(7)
C1 C 0.88278(15) 0.7709(2) 0.1415(2)
C2 C 0.91555(15) 0.82210(19) 0.1064(2)
C3 C 0.64743(15) 0.7324(2) 0.1588(2)
C4 C 0.70126(15) 0.7277(2) 0.1385(2)
C5 C 0.78865(15) 0.58646(19) 0.0742(2)
C6 C 0.77750(17) 0.5034(2) 0.0495(3)
C7 C 0.65264(16) 0.7202(2) 0.2415(2)
H1 H 0.6900 0.7089 0.2845
C9 C 0.60394(16) 0.7244(2) 0.2623(2)
H3 H 0.6080 0.7167 0.3191
C10 C 0.97767(15) 0.9232(2) 0.0486(2)
C11 C 0.97596(15) 0.8158(2) 0.1345(2)
H4 H 0.9962 0.7770 0.1740
C12 C 0.91676(16) 0.9290(2) 0.0188(3)
C13 C 0.88623(15) 0.8788(2) 0.0481(3)
H6 H 0.8448 0.8830 0.0283
C14 C 0.54965(17) 0.7397(2) 0.1993(3)
C16 C 0.59326(19) 0.7482(3) 0.0972(3)
H8 H 0.5895 0.7576 0.0408
C17 C 0.8096(2) 0.4465(2) 0.1078(3)
H9 H 0.8387 0.4597 0.1617
C18 C 0.7535(2) 0.3504(2) 0.0053(3)
C19 C 0.54430(19) 0.7507(3) 0.1156(3)
H10 H 0.5069 0.7598 0.0717
C21 C 0.7970(2) 0.3702(3) 0.0837(4)
H12 H 0.8186 0.3310 0.1214
C22 C 0.8051(4) 0.8685(5) 0.2451(6)
H13 H 0.7842 0.8725 0.1854
C23 C 0.8435(3) 0.6660(6) 0.3975(4)
H14 H 0.8097 0.7014 0.3757
H15 H 0.8315 0.6210 0.4218
C24 C 0.8923(4) 0.7036(7) 0.4635(6)
H16 H 0.8852 0.7588 0.4609
H17 H 0.9285 0.6934 0.4552
H18 H 0.8963 0.6843 0.5191
C25 C 0.8326(4) 0.9165(7) 0.3862(7)
H19 H 0.8279 0.8643 0.4032
H20 H 0.8134 0.9523 0.4109
H21 H 0.8744 0.9288 0.4066
C26 C 0.7636(6) 0.9924(8) 0.2372(9)
H23 H 0.7348 0.9728 0.1833
Mg1 Mg 0.7500 0.7500 0.0000
Mg2 Mg 0.83004(5) 0.69932(8) 0.21381(7)
N1 N 0.49663(14) 0.7424(2) 0.2121(2)
N4 N 0.8051(4) 0.9226(4) 0.2912(6)
O1 O 0.69803(11) 0.75608(14) 0.06944(16)
O2 O 0.82657(9) 0.77128(13) 0.10967(15)
O3 O 0.90995(10) 0.73027(15) 0.20422(15)
O4 O 0.82411(11) 0.60126(14) 0.14818(17)
O5 O 0.76078(10) 0.63441(13) 0.01853(15)
O6 O 0.74532(11) 0.69703(16) 0.19300(16)
O7 O 0.85946(15) 0.6402(3) 0.3241(2)
O8 O 0.83450(18) 0.8033(3) 0.2790(2)
H25 H 0.8669 0.5848 0.3216
C34 C 0.35257(15) 0.7324(2) 0.3412(2)
C35 C 0.29874(15) 0.7277(2) 0.3615(2)
C36 C 0.34736(16) 0.7202(2) 0.2585(2)
H30 H 0.3100 0.7089 0.2155
C37 C 0.39606(16) 0.7244(2) 0.2377(2)
H31 H 0.3920 0.7167 0.1809
C38 C 0.45035(17) 0.7397(2) 0.3007(3)
C39 C 0.40674(19) 0.7482(3) 0.4028(3)
H32 H 0.4105 0.7576 0.4592
C40 C 0.45570(19) 0.7507(3) 0.3844(3)
H33 H 0.4931 0.7598 0.4283
N6 N 0.50337(14) 0.7424(2) 0.2879(2)
O11 O 0.30197(11) 0.75608(14) 0.43056(16)
O12 O 0.25468(11) 0.69703(16) 0.30700(16)
C43 C 0.7776(2) 0.0935(3) 0.0496(3)
H34 H 0.8077 0.1066 0.1027
C46 C 0.7652(2) 0.0180(2) 0.0274(3)
N7 N 0.76403(18) 0.2277(2) 0.0260(3)
C48 C 0.1949(4) 0.8685(5) 0.2549(6)
H38 H 0.2158 0.8725 0.3146
C49 C 0.1565(3) 0.6660(6) 0.1025(4)
H39 H 0.1903 0.7014 0.1243
H40 H 0.1685 0.6210 0.0782
C50 C 0.1077(4) 0.7036(7) 0.0365(6)
H41 H 0.1148 0.7588 0.0391
H42 H 0.0715 0.6934 0.0448
C51 C 0.1674(4) 0.9165(7) 0.1138(7)
H44 H 0.1721 0.8643 0.0968
H45 H 0.1866 0.9523 0.0891
H46 H 0.1256 0.9288 0.0934
C52 C 0.2364(6) 0.9924(8) 0.2628(9)
H48 H 0.2652 0.9728 0.3167
Mg3 Mg 0.16996(5) 0.69932(8) 0.28619(7)
N8 N 0.1949(4) 0.9226(4) 0.2088(6)
O15 O 0.14054(15) 0.6402(3) 0.1759(2)
O16 O 0.16550(18) 0.8033(3) 0.2210(2)
H50 H 0.1331 0.5848 0.1784
Mg5 Mg 0.2500 0.7500 0.5000
O18 O 0.17343(9) 0.77128(13) 0.39033(15)
O20 O 0.09005(10) 0.73027(15) 0.29578(15)
O21 O 0.17589(11) 0.60126(14) 0.35182(17)
H5 H 0.8965 0.9672 0.9786
C15 C 0.7224(2) 0.4065(3) 0.9504(3)
H7 H 0.6923 0.3934 0.8973
C20 C 0.7348(2) 0.4820(2) 0.9726(3)
H11 H 0.7133 0.5204 0.9337
Mg1_2 Mg 0.7500 0.7500 1.0000
N3 N 0.73597(18) 0.2723(2) 0.9740(3)
C44 C 0.6904(2) 0.0535(2) 0.8922(3)
H35 H 0.6613 0.0403 0.8383
C45 C 0.7465(2) 0.1496(2) 0.9947(3)
C47 C 0.7030(2) 0.1298(3) 0.9163(4)
H37 H 0.6814 0.1690 0.8786
H43 H 0.1037 0.6843 0.9809
O17 O 0.80197(11) 0.74392(14) 0.93056(16)
O19 O 0.67343(9) 0.72872(13) 0.89033(15)
O22 O 0.73922(10) 0.86559(13) 0.98147(15)
H36 H 0.7867 0.9796 0.0663
C41 C 0.71135(15) 0.91354(19) 0.9258(2)
C42 C 0.72250(17) 0.9966(2) 0.9505(3)
O13 O 0.67589(11) 0.89874(14) 0.85182(17)
Mg8 Mg 0.66996(5) 0.80068(8) 0.78619(7)
C1_2 C 0.11722(15) 0.7709(2) 0.3585(2)
C2_2 C 0.08445(15) 0.82210(19) 0.3936(2)
C5_2 C 0.21135(15) 0.58646(19) 0.4258(2)
C6_2 C 0.22250(17) 0.5034(2) 0.4505(3)
C10_2 C 0.02233(15) 0.9232(2) 0.4514(2)
C11_2 C 0.02404(15) 0.8158(2) 0.3655(2)
H4_2 H 0.0038 0.7770 0.3260
C12_2 C 0.08324(16) 0.9290(2) 0.4812(3)
H5_2 H 0.1035 0.9672 0.5214
C13_2 C 0.11377(15) 0.8788(2) 0.4519(3)
H6_2 H 0.1552 0.8830 0.4717
C15_2 C 0.2776(2) 0.4065(3) 0.5496(3)
H7_2 H 0.3077 0.3934 0.6027
C17_2 C 0.1904(2) 0.4465(2) 0.3922(3)
H9_2 H 0.1613 0.4597 0.3383
C18_2 C 0.2465(2) 0.3504(2) 0.4947(3)
C20_2 C 0.2652(2) 0.4820(2) 0.5274(3)
H11_2 H 0.2867 0.5204 0.5663
C21_2 C 0.2030(2) 0.3702(3) 0.4163(4)
H12_2 H 0.1814 0.3310 0.3786
N3_2 N 0.26403(18) 0.2723(2) 0.5260(3)
O5_2 O 0.23922(10) 0.63441(13) 0.48147(15)
C43_2 C 0.2224(2) 0.0935(3) 0.4504(3)
H34_2 H 0.1923 0.1066 0.3973
C44_2 C 0.3096(2) 0.0535(2) 0.6078(3)
H35_2 H 0.3387 0.0403 0.6617
C45_2 C 0.2535(2) 0.1496(2) 0.5053(3)
C46_2 C 0.2348(2) 0.0180(2) 0.4726(3)
C47_2 C 0.2970(2) 0.1298(3) 0.5837(4)
H37_2 H 0.3186 0.1690 0.6214
N7_2 N 0.23597(18) 0.2277(2) 0.4740(3)
O17_2 O 0.19803(11) 0.74392(14) 0.56944(16)
O19_2 O 0.32657(9) 0.72872(13) 0.60967(15)
O22_2 O 0.26078(10) 0.86559(13) 0.51853(15)
C41_2 C 0.28865(15) 0.91354(19) 0.5742(2)
C42_2 C 0.27750(17) 0.9966(2) 0.5495(3)
H36_2 H 0.2133 0.9796 0.4337
O13_2 O 0.32411(11) 0.89874(14) 0.64818(17)
Mg8_2 Mg 0.33004(5) 0.80068(8) 0.71381(7)
C27_2 C 0.88278(15) 0.2291(2) 0.6415(2)
C28_2 C 0.91555(15) 0.17790(19) 0.6064(2)
C30_2 C 0.97767(15) 0.0768(2) 0.5486(2)
C31_2 C 0.97596(15) 0.1842(2) 0.6345(2)
H27_2 H 0.9962 0.2230 0.6740
C32_2 C 0.91676(16) 0.0710(2) 0.5188(3)
H28_2 H 0.8965 0.0328 0.4786
C33_2 C 0.88623(15) 0.1212(2) 0.5481(3)
H29_2 H 0.8448 0.1170 0.5283
O9_2 O 0.82657(9) 0.22872(13) 0.60967(15)
O10_2 O 0.90995(10) 0.26973(15) 0.70422(15)
Mg6_3 Mg 0.7500 0.2500 0.5000
Mg7_2 Mg 0.83004(5) 0.30068(8) 0.71381(7)
C1_3 C 0.38278(15) 0.2709(2) 0.1415(2)
C2_3 C 0.41555(15) 0.32210(19) 0.1064(2)
C3_2 C 0.14743(15) 0.2324(2) 0.1588(2)
C4_2 C 0.20126(15) 0.2277(2) 0.1385(2)
C5_3 C 0.28865(15) 0.08646(19) 0.0742(2)
C6_3 C 0.27750(17) 0.0034(2) 0.0495(3)
C7_2 C 0.15264(16) 0.2202(2) 0.2415(2)
H1_2 H 0.1900 0.2089 0.2845
C8 C 0.50686(15) 0.3660(2) 0.1050(2)
H2 H 0.5482 0.3610 0.1235
C9_2 C 0.10394(16) 0.2244(2) 0.2623(2)
H3_2 H 0.1080 0.2167 0.3191
C10_3 C 0.47767(15) 0.4232(2) 0.0486(2)
C11_3 C 0.47596(15) 0.3158(2) 0.1345(2)
H4_3 H 0.4962 0.2770 0.1740
C12_3 C 0.41676(16) 0.4290(2) 0.0188(3)
C13_3 C 0.38623(15) 0.3788(2) 0.0481(3)
H6_3 H 0.3448 0.3830 0.0283
C14_2 C 0.04965(17) 0.2397(2) 0.1993(3)
C16_2 C 0.09326(19) 0.2482(3) 0.0972(3)
H8_2 H 0.0895 0.2576 0.0408
C19_2 C 0.04430(19) 0.2507(3) 0.1156(3)
H10_2 H 0.0069 0.2598 0.0717
C22_2 C 0.3051(4) 0.3685(5) 0.2451(6)
H13_2 H 0.2842 0.3725 0.1854
C23_2 C 0.3435(3) 0.1660(6) 0.3975(4)
H14_2 H 0.3097 0.2014 0.3757
H15_2 H 0.3315 0.1210 0.4218
C24_2 C 0.3923(4) 0.2036(7) 0.4635(6)
H16_2 H 0.3852 0.2588 0.4609
H17_2 H 0.4285 0.1934 0.4552
H18_2 H 0.3963 0.1843 0.5191
C25_2 C 0.3326(4) 0.4165(7) 0.3862(7)
H19_2 H 0.3279 0.3643 0.4032
H20_2 H 0.3134 0.4523 0.4109
H21_2 H 0.3744 0.4288 0.4066
C26_2 C 0.2636(6) 0.4924(8) 0.2372(9)
H22 H 0.2431 0.5151 0.2699
H23_2 H 0.2348 0.4728 0.1833
H24 H 0.2879 0.5312 0.2258
Mg2_2 Mg 0.33004(5) 0.19932(8) 0.21381(7)
N2 N 0.51395(13) 0.47383(19) 0.0252(2)
N4_2 N 0.3051(4) 0.4226(4) 0.2912(6)
O1_2 O 0.19803(11) 0.25608(14) 0.06944(16)
O2_2 O 0.32657(9) 0.27128(13) 0.10967(15)
O3_2 O 0.40995(10) 0.23027(15) 0.20422(15)
O4_2 O 0.32411(11) 0.10126(14) 0.14818(17)
O5_3 O 0.26078(10) 0.13441(13) 0.01853(15)
O6_2 O 0.24532(11) 0.19703(16) 0.19300(16)
O7_2 O 0.35946(15) 0.1402(3) 0.3241(2)
O8_2 O 0.33450(18) 0.3033(3) 0.2790(2)
H25_2 H 0.3669 0.0848 0.3216
H28_3 H 0.6035 0.5328 0.0214
N6_2 N 0.00337(14) 0.2424(2) 0.2879(2)
H5_3 H 0.3965 0.4672 0.9786
H11_3 H 0.2133 0.0204 0.9337
C27_3 C 0.61722(15) 0.7291(2) 0.8585(2)
C28_3 C 0.58445(15) 0.67790(19) 0.8936(2)
C29 C 0.49314(15) 0.6340(2) 0.8950(2)
H26 H 0.4518 0.6390 0.8765
C30_3 C 0.52233(15) 0.5768(2) 0.9514(2)
C31_3 C 0.52404(15) 0.6842(2) 0.8655(2)
H27_3 H 0.5038 0.7230 0.8260
C32_3 C 0.58324(16) 0.5710(2) 0.9812(3)
C33_3 C 0.61377(15) 0.6212(2) 0.9519(3)
H29_3 H 0.6552 0.6170 0.9717
N5 N 0.48605(13) 0.52617(19) 0.9748(2)
O10_3 O 0.59005(10) 0.76973(15) 0.79578(15)
O17_3 O 0.30197(11) 0.24392(14) 0.93056(16)
O22_3 O 0.23922(10) 0.36559(13) 0.98147(15)
C17_3 C 0.3096(2) 0.9465(2) 0.1078(3)
H9_3 H 0.3387 0.9597 0.1617
C18_3 C 0.2535(2) 0.8504(2) 0.0053(3)
C21_3 C 0.2970(2) 0.8702(3) 0.0837(4)
H12_3 H 0.3186 0.8310 0.1214
C43_3 C 0.2776(2) 0.5935(3) 0.0496(3)
H34_3 H 0.3077 0.6066 0.1027
C46_3 C 0.2652(2) 0.5180(2) 0.0274(3)
H36_3 H 0.2867 0.4796 0.0663
N7_3 N 0.26403(18) 0.7277(2) 0.0260(3)
C15_3 C 0.2224(2) 0.9065(3) 0.9504(3)
H7_3 H 0.1923 0.8934 0.8973
C20_3 C 0.2348(2) 0.9820(2) 0.9726(3)
N3_3 N 0.23597(18) 0.7723(2) 0.9740(3)
C41_3 C 0.21135(15) 0.41354(19) 0.9258(2)
C42_3 C 0.22250(17) 0.4966(2) 0.9505(3)
C44_3 C 0.1904(2) 0.5535(2) 0.8922(3)
H35_3 H 0.1613 0.5403 0.8383
C45_3 C 0.2465(2) 0.6496(2) 0.9947(3)
C47_3 C 0.2030(2) 0.6298(3) 0.9163(4)
H37_3 H 0.1814 0.6690 0.8786
O13_3 O 0.17589(11) 0.39874(14) 0.85182(17)
N1_2 N 0.99663(14) 0.2424(2) 0.2121(2)
C34_2 C 0.85257(15) 0.2324(2) 0.3412(2)
C35_2 C 0.79874(15) 0.2277(2) 0.3615(2)
C36_2 C 0.84736(16) 0.2202(2) 0.2585(2)
H30_2 H 0.8100 0.2089 0.2155
C37_2 C 0.89606(16) 0.2244(2) 0.2377(2)
H31_2 H 0.8920 0.2167 0.1809
C38_2 C 0.95035(17) 0.2397(2) 0.3007(3)
C39_2 C 0.90674(19) 0.2482(3) 0.4028(3)
H32_2 H 0.9105 0.2576 0.4592
C40_2 C 0.95570(19) 0.2507(3) 0.3844(3)
H33_2 H 0.9931 0.2598 0.4283
O11_2 O 0.80197(11) 0.25608(14) 0.43056(16)
O12_2 O 0.75468(11) 0.19703(16) 0.30700(16)
C48_2 C 0.6949(4) 0.3685(5) 0.2549(6)
H38_2 H 0.7158 0.3725 0.3146
C49_2 C 0.6565(3) 0.1660(6) 0.1025(4)
H39_2 H 0.6903 0.2014 0.1243
H40_2 H 0.6685 0.1210 0.0782
C50_2 C 0.6077(4) 0.2036(7) 0.0365(6)
H41_2 H 0.6148 0.2588 0.0391
H42_2 H 0.5715 0.1934 0.0448
C51_2 C 0.6674(4) 0.4165(7) 0.1138(7)
H44_2 H 0.6721 0.3643 0.0968
H45_2 H 0.6866 0.4523 0.0891
H46_2 H 0.6256 0.4288 0.0934
C52_2 C 0.7364(6) 0.4924(8) 0.2628(9)
H47 H 0.7569 0.5151 0.2301
H48_2 H 0.7652 0.4728 0.3167
H49 H 0.7121 0.5312 0.2742
Mg3_2 Mg 0.66996(5) 0.19932(8) 0.28619(7)
N8_2 N 0.6949(4) 0.4226(4) 0.2088(6)
O15_2 O 0.64054(15) 0.1402(3) 0.1759(2)
O16_2 O 0.66550(18) 0.3033(3) 0.2210(2)
H50_2 H 0.6331 0.0848 0.1784
O18_2 O 0.67343(9) 0.27128(13) 0.39033(15)
O20_2 O 0.59005(10) 0.23027(15) 0.29578(15)
O21_2 O 0.67589(11) 0.10126(14) 0.35182(17)
C1_4 C 0.61722(15) 0.2709(2) 0.3585(2)
C2_4 C 0.58445(15) 0.32210(19) 0.3936(2)
C5_4 C 0.71135(15) 0.08646(19) 0.4258(2)
C6_4 C 0.72250(17) 0.0034(2) 0.4505(3)
C8_2 C 0.49314(15) 0.3660(2) 0.3950(2)
H2_2 H 0.4518 0.3610 0.3765
C10_4 C 0.52233(15) 0.4232(2) 0.4514(2)
C11_4 C 0.52404(15) 0.3158(2) 0.3655(2)
H4_4 H 0.5038 0.2770 0.3260
C12_4 C 0.58324(16) 0.4290(2) 0.4812(3)
H5_4 H 0.6035 0.4672 0.5214
C13_4 C 0.61377(15) 0.3788(2) 0.4519(3)
H6_4 H 0.6552 0.3830 0.4717
H11_4 H 0.7867 0.0204 0.5663
N2_2 N 0.48605(13) 0.47383(19) 0.4748(2)
O5_4 O 0.73922(10) 0.13441(13) 0.48147(15)
C27_4 C 0.38278(15) 0.7291(2) 0.6415(2)
C28_4 C 0.41555(15) 0.67790(19) 0.6064(2)
C29_2 C 0.50686(15) 0.6340(2) 0.6050(2)
H26_2 H 0.5482 0.6390 0.6235
C30_4 C 0.47767(15) 0.5768(2) 0.5486(2)
C31_4 C 0.47596(15) 0.6842(2) 0.6345(2)
H27_4 H 0.4962 0.7230 0.6740
C32_4 C 0.41676(16) 0.5710(2) 0.5188(3)
H28_4 H 0.3965 0.5328 0.4786
C33_4 C 0.38623(15) 0.6212(2) 0.5481(3)
H29_4 H 0.3448 0.6170 0.5283
N5_2 N 0.51395(13) 0.52617(19) 0.5252(2)
O10_4 O 0.40995(10) 0.76973(15) 0.70422(15)
O17_4 O 0.69803(11) 0.24392(14) 0.56944(16)
O22_4 O 0.76078(10) 0.36559(13) 0.51853(15)
C15_4 C 0.7776(2) 0.9065(3) 0.5496(3)
H7_4 H 0.8077 0.8934 0.6027
C17_4 C 0.6904(2) 0.9465(2) 0.3922(3)
H9_4 H 0.6613 0.9597 0.3383
C18_4 C 0.7465(2) 0.8504(2) 0.4947(3)
C20_4 C 0.7652(2) 0.9820(2) 0.5274(3)
C21_4 C 0.7030(2) 0.8702(3) 0.4163(4)
H12_4 H 0.6814 0.8310 0.3786
N3_4 N 0.76403(18) 0.7723(2) 0.5260(3)
C41_4 C 0.78865(15) 0.41354(19) 0.5742(2)
C42_4 C 0.77750(17) 0.4966(2) 0.5495(3)
C43_4 C 0.7224(2) 0.5935(3) 0.4504(3)
H34_4 H 0.6923 0.6066 0.3973
C44_4 C 0.8096(2) 0.5535(2) 0.6078(3)
H35_4 H 0.8387 0.5403 0.6617
C45_4 C 0.7535(2) 0.6496(2) 0.5053(3)
C46_4 C 0.7348(2) 0.5180(2) 0.4726(3)
H36_4 H 0.7133 0.4796 0.4337
C47_4 C 0.7970(2) 0.6298(3) 0.5837(4)
H37_4 H 0.8186 0.6690 0.6214
N7_4 N 0.73597(18) 0.7277(2) 0.4740(3)
O13_4 O 0.82411(11) 0.39874(14) 0.64818(17)
H43_2 H 0.8963 0.3157 0.0191
C3_3 C 0.35257(15) 0.2676(2) 0.8412(2)
C4_3 C 0.29874(15) 0.2723(2) 0.8615(2)
C7_3 C 0.34736(16) 0.2798(2) 0.7585(2)
H1_3 H 0.3100 0.2911 0.7155
C9_3 C 0.39606(16) 0.2756(2) 0.7377(2)
H3_3 H 0.3920 0.2833 0.6809
C14_3 C 0.45035(17) 0.2603(2) 0.8007(3)
C16_3 C 0.40674(19) 0.2518(3) 0.9028(3)
H8_3 H 0.4105 0.2424 0.9592
C19_3 C 0.45570(19) 0.2493(3) 0.8844(3)
H10_3 H 0.4931 0.2402 0.9283
C22_3 C 0.1949(4) 0.1315(5) 0.7549(6)
H13_3 H 0.2158 0.1275 0.8146
C23_3 C 0.1565(3) 0.3340(6) 0.6025(4)
H14_3 H 0.1903 0.2986 0.6243
H15_3 H 0.1685 0.3790 0.5782
C24_3 C 0.1077(4) 0.2964(7) 0.5365(6)
H16_3 H 0.1148 0.2412 0.5391
H17_3 H 0.0715 0.3066 0.5448
H18_3 H 0.1037 0.3157 0.4809
C25_3 C 0.1674(4) 0.0835(7) 0.6138(7)
H19_3 H 0.1721 0.1357 0.5968
H20_3 H 0.1866 0.0477 0.5891
H21_3 H 0.1256 0.0712 0.5934
C26_3 C 0.2364(6) 0.0076(8) 0.7628(9)
H23_3 H 0.2652 0.0272 0.8167
N1_3 N 0.50337(14) 0.2576(2) 0.7879(2)
N4_3 N 0.1949(4) 0.0774(4) 0.7088(6)
O6_3 O 0.25468(11) 0.30297(16) 0.80700(16)
O7_3 O 0.14054(15) 0.3598(3) 0.6759(2)
O8_3 O 0.16550(18) 0.1967(3) 0.7210(2)
H25_3 H 0.1331 0.4152 0.6784
C34_3 C 0.64743(15) 0.2676(2) 0.6588(2)
C35_3 C 0.70126(15) 0.2723(2) 0.6385(2)
C36_3 C 0.65264(16) 0.2798(2) 0.7415(2)
H30_3 H 0.6900 0.2911 0.7845
C37_3 C 0.60394(16) 0.2756(2) 0.7623(2)
H31_3 H 0.6080 0.2833 0.8191
C38_3 C 0.54965(17) 0.2603(2) 0.6993(3)
C39_3 C 0.59326(19) 0.2518(3) 0.5972(3)
H32_3 H 0.5895 0.2424 0.5408
C40_3 C 0.54430(19) 0.2493(3) 0.6156(3)
H33_3 H 0.5069 0.2402 0.5717
N6_3 N 0.49663(14) 0.2576(2) 0.7121(2)
O12_3 O 0.74532(11) 0.30297(16) 0.69300(16)
C48_3 C 0.8051(4) 0.1315(5) 0.7451(6)
H38_3 H 0.7842 0.1275 0.6854
C49_3 C 0.8435(3) 0.3340(6) 0.8975(4)
H39_3 H 0.8097 0.2986 0.8757
H40_3 H 0.8315 0.3790 0.9218
C50_3 C 0.8923(4) 0.2964(7) 0.9635(6)
H41_3 H 0.8852 0.2412 0.9609
H42_3 H 0.9285 0.3066 0.9552
C51_3 C 0.8326(4) 0.0835(7) 0.8862(7)
H44_3 H 0.8279 0.1357 0.9032
H45_3 H 0.8134 0.0477 0.9109
H46_3 H 0.8744 0.0712 0.9066
C52_3 C 0.7636(6) 0.0076(8) 0.7372(9)
H48_3 H 0.7348 0.0272 0.6833
N8_3 N 0.8051(4) 0.0774(4) 0.7912(6)
O15_3 O 0.85946(15) 0.3598(3) 0.8241(2)
O16_3 O 0.83450(18) 0.1967(3) 0.7790(2)
H50_3 H 0.8669 0.4152 0.8216
N1_4 N 0.00337(14) 0.7576(2) 0.7879(2)
C34_4 C 0.14743(15) 0.7676(2) 0.6588(2)
C35_4 C 0.20126(15) 0.7723(2) 0.6385(2)
C36_4 C 0.15264(16) 0.7798(2) 0.7415(2)
H30_4 H 0.1900 0.7911 0.7845
C37_4 C 0.10394(16) 0.7756(2) 0.7623(2)
H31_4 H 0.1080 0.7833 0.8191
C38_4 C 0.04965(17) 0.7603(2) 0.6993(3)
C39_4 C 0.09326(19) 0.7518(3) 0.5972(3)
H32_4 H 0.0895 0.7424 0.5408
C40_4 C 0.04430(19) 0.7493(3) 0.6156(3)
H33_4 H 0.0069 0.7402 0.5717
O12_4 O 0.24532(11) 0.80297(16) 0.69300(16)
C48_4 C 0.3051(4) 0.6315(5) 0.7451(6)
H38_4 H 0.2842 0.6275 0.6854
C49_4 C 0.3435(3) 0.8340(6) 0.8975(4)
H39_4 H 0.3097 0.7986 0.8757
H40_4 H 0.3315 0.8790 0.9218
C50_4 C 0.3923(4) 0.7964(7) 0.9635(6)
H41_4 H 0.3852 0.7412 0.9609
H42_4 H 0.4285 0.8066 0.9552
C51_4 C 0.3326(4) 0.5835(7) 0.8862(7)
H44_4 H 0.3279 0.6357 0.9032
H45_4 H 0.3134 0.5477 0.9109
H46_4 H 0.3744 0.5712 0.9066
C52_4 C 0.2636(6) 0.5076(8) 0.7372(9)
H47_2 H 0.2431 0.4849 0.7699
H48_4 H 0.2348 0.5272 0.6833
H49_2 H 0.2879 0.4688 0.7258
N8_4 N 0.3051(4) 0.5774(4) 0.7912(6)
O15_4 O 0.35946(15) 0.8598(3) 0.8241(2)
O16_4 O 0.33450(18) 0.6967(3) 0.7790(2)
H50_4 H 0.3669 0.9152 0.8216
C3_4 C 0.85257(15) 0.7676(2) 0.8412(2)
C4_4 C 0.79874(15) 0.7723(2) 0.8615(2)
C7_4 C 0.84736(16) 0.7798(2) 0.7585(2)
H1_4 H 0.8100 0.7911 0.7155
C9_4 C 0.89606(16) 0.7756(2) 0.7377(2)
H3_4 H 0.8920 0.7833 0.6809
C14_4 C 0.95035(17) 0.7603(2) 0.8007(3)
C16_4 C 0.90674(19) 0.7518(3) 0.9028(3)
H8_4 H 0.9105 0.7424 0.9592
C19_4 C 0.95570(19) 0.7493(3) 0.8844(3)
H10_4 H 0.9931 0.7402 0.9283
C22_4 C 0.6949(4) 0.6315(5) 0.7549(6)
H13_4 H 0.7158 0.6275 0.8146
C23_4 C 0.6565(3) 0.8340(6) 0.6025(4)
H14_4 H 0.6903 0.7986 0.6243
H15_4 H 0.6685 0.8790 0.5782
C24_4 C 0.6077(4) 0.7964(7) 0.5365(6)
H16_4 H 0.6148 0.7412 0.5391
H17_4 H 0.5715 0.8066 0.5448
H18_4 H 0.6037 0.8157 0.4809
C25_4 C 0.6674(4) 0.5835(7) 0.6138(7)
H19_4 H 0.6721 0.6357 0.5968
H20_4 H 0.6866 0.5477 0.5891
H21_4 H 0.6256 0.5712 0.5934
C26_4 C 0.7364(6) 0.5076(8) 0.7628(9)
H22_2 H 0.7569 0.4849 0.7301
H23_4 H 0.7652 0.5272 0.8167
H24_2 H 0.7121 0.4688 0.7742
N4_4 N 0.6949(4) 0.5774(4) 0.7088(6)
O6_4 O 0.75468(11) 0.80297(16) 0.80700(16)
O7_4 O 0.64054(15) 0.8598(3) 0.6759(2)
O8_4 O 0.66550(18) 0.6967(3) 0.7210(2)
H25_4 H 0.6331 0.9152 0.6784
N6_4 N 0.99663(14) 0.7576(2) 0.7121(2)
C8_3 C 0.00686(15) 0.8660(2) 0.1050(2)
H2_3 H 0.0482 0.8610 0.1235
N2_3 N 0.01395(13) 0.97383(19) 0.0252(2)
H22_3 H 0.7431 0.0151 0.2699
H24_3 H 0.7879 0.0312 0.2258
H47_3 H 0.2569 0.0151 0.2301
H49_3 H 0.2121 0.0312 0.2742
C29_3 C 0.00686(15) 0.1340(2) 0.6050(2)
H26_3 H 0.0482 0.1390 0.6235
N5_3 N 0.01395(13) 0.02617(19) 0.5252(2)
C29_4 C 0.99314(15) 0.1340(2) 0.8950(2)
H26_4 H 0.9518 0.1390 0.8765
N5_4 N 0.98605(13) 0.02617(19) 0.9748(2)
C8_4 C 0.99314(15) 0.8660(2) 0.3950(2)
H2_4 H 0.9518 0.8610 0.3765
N2_4 N 0.98605(13) 0.97383(19) 0.4748(2)
H22_4 H 0.2569 0.9849 0.7301
H24_4 H 0.2121 0.9688 0.7742
H47_4 H 0.7431 0.9849 0.7699
H49_4 H 0.7879 0.9688 0.7258
H43_3 H 0.6037 0.1843 0.9809
H43_4 H 0.3963 0.8157 0.0191
loop_
_geom_bond_atom_site_label_1
_geom_bond_atom_site_label_2
_geom_bond_site_symmetry_1
_geom_bond_site_symmetry_2
C27 C28 1_555 1_555
C28 C31 1_555 1_555
H27 C31 1_555 1_555
C32 C30 1_555 1_555
C33 C28 1_555 1_555
H29 C33 1_555 1_555
O9 C27 1_555 1_555
O10 C27 1_555 1_555
Mg6_2 O9 1_555 1_555
Mg7 O9 1_555 1_555
C32 C33 1_555 1_555
O10 Mg7 1_555 1_555
C1 C2 1_555 1_555
C2 C11 1_555 1_555
C3 C4 1_555 1_555
C4 O1 1_555 1_555
C5 C6 1_555 1_555
C6 C17 1_555 1_555
C7 C3 1_555 1_555
H1 C7 1_555 1_555
C9 C7 1_555 1_555
H3 C9 1_555 1_555
H4 C11 1_555 1_555
C12 C10 1_555 1_555
C13 C2 1_555 1_555
H6 C13 1_555 1_555
C14 C9 1_555 1_555
C16 C3 1_555 1_555
H8 C16 1_555 1_555
C17 H9 1_555 1_555
C19 C14 1_555 1_555
H10 C19 1_555 1_555
C21 C17 1_555 1_555
H12 C21 1_555 1_555
C22 H13 1_555 1_555
C23 H14 1_555 1_555
H15 C23 1_555 1_555
C24 C23 1_555 1_555
H16 C24 1_555 1_555
H17 C24 1_555 1_555
H18 C24 1_555 1_555
C25 H19 1_555 1_555
H20 C25 1_555 1_555
H21 C25 1_555 1_555
H23 C26 1_555 1_555
Mg1 O1 1_555 1_555
Mg2 O2 1_555 1_555
N1 C14 1_555 1_555
N4 C22 1_555 1_555
O2 C1 1_555 1_555
O3 C1 1_555 1_555
O4 C5 1_555 1_555
O5 C5 1_555 1_555
O6 C4 1_555 1_555
O7 C23 1_555 1_555
O8 C22 1_555 1_555
H25 O7 1_555 1_555
C34 C35 1_555 1_555
C35 O11 1_555 1_555
C36 C34 1_555 1_555
H30 C36 1_555 1_555
C37 C36 1_555 1_555
H31 C37 1_555 1_555
C38 C37 1_555 1_555
C39 C34 1_555 1_555
H32 C39 1_555 1_555
C40 C38 1_555 1_555
H33 C40 1_555 1_555
N6 N1 1_555 1_555
O11 Mg5 1_555 1_555
O12 C35 1_555 1_555
C43 H34 1_555 1_555
C48 H38 1_555 1_555
C49 H39 1_555 1_555
H40 C49 1_555 1_555
C50 C49 1_555 1_555
H41 C50 1_555 1_555
H42 C50 1_555 1_555
C51 H44 1_555 1_555
H45 C51 1_555 1_555
H46 C51 1_555 1_555
H48 C52 1_555 1_555
Mg3 O12 1_555 1_555
N8 C48 1_555 1_555
O15 C49 1_555 1_555
O16 C48 1_555 1_555
H50 O15 1_555 1_555
Mg5 O18 1_555 1_555
O18 Mg3 1_555 1_555
O20 Mg3 1_555 1_555
O21 Mg3 1_555 1_555
C12 C13 1_555 1_555
C16 C19 1_555 1_555
C18 C21 1_555 1_555
C25 N4 1_555 1_555
C26 N4 1_555 1_555
Mg1 O2 1_555 1_555
Mg1 O5 1_555 1_555
Mg2 O3 1_555 1_555
Mg2 O4 1_555 1_555
Mg2 O6 1_555 1_555
Mg2 O7 1_555 1_555
Mg2 O8 1_555 1_555
C38 N6 1_555 1_555
C39 C40 1_555 1_555
C43 C46 1_555 1_555
C51 N8 1_555 1_555
C52 N8 1_555 1_555
Mg3 O15 1_555 1_555
Mg3 O16 1_555 1_555
C15 H7 1_555 1_555
H11 C20 1_555 1_555
C44 H35 1_555 1_555
C47 C44 1_555 1_555
H37 C47 1_555 1_555
O17 Mg1_2 1_555 1_555
O19 Mg1_2 1_555 1_555
O22 Mg1_2 1_555 1_555
C15 C20 1_555 1_555
C45 C47 1_555 1_555
C41 C42 1_555 1_555
O13 C41 1_555 1_555
O22 C41 1_555 1_555
Mg8 O13 1_555 1_555
C1_2 C2_2 1_555 1_555
C2_2 C11_2 1_555 1_555
C5_2 C6_2 1_555 1_555
C6_2 C17_2 1_555 1_555
H4_2 C11_2 1_555 1_555
C12_2 C10_2 1_555 1_555
H5_2 C12_2 1_555 1_555
C13_2 C2_2 1_555 1_555
H6_2 C13_2 1_555 1_555
C15_2 H7_2 1_555 1_555
C17_2 H9_2 1_555 1_555
C18_2 C15_2 1_555 1_555
C20_2 C6_2 1_555 1_555
H11_2 C20_2 1_555 1_555
C21_2 C17_2 1_555 1_555
H12_2 C21_2 1_555 1_555
N3_2 C18_2 1_555 1_555
O18 C1_2 1_555 1_555
O20 C1_2 1_555 1_555
O21 C5_2 1_555 1_555
O5_2 C5_2 1_555 1_555
C43_2 H34_2 1_555 1_555
C44_2 H35_2 1_555 1_555
C45_2 C43_2 1_555 1_555
C47_2 C44_2 1_555 1_555
H37_2 C47_2 1_555 1_555
N7_2 N3_2 1_555 1_555
O17_2 Mg5 1_555 1_555
O19_2 Mg5 1_555 1_555
O22_2 Mg5 1_555 1_555
C12_2 C13_2 1_555 1_555
C15_2 C20_2 1_555 1_555
C18_2 C21_2 1_555 1_555
Mg5 O5_2 1_555 1_555
C43_2 C46_2 1_555 1_555
C45_2 C47_2 1_555 1_555
C45_2 N7_2 1_555 1_555
C41_2 C42_2 1_555 1_555
O13_2 C41_2 1_555 1_555
O22_2 C41_2 1_555 1_555
Mg8_2 O13_2 1_555 1_555
C27_2 C28_2 1_555 1_555
C28_2 C31_2 1_555 1_555
H27_2 C31_2 1_555 1_555
C32_2 C30_2 1_555 1_555
H28_2 C32_2 1_555 1_555
C33_2 C28_2 1_555 1_555
H29_2 C33_2 1_555 1_555
O9_2 C27_2 1_555 1_555
O10_2 C27_2 1_555 1_555
Mg6_3 O9_2 1_555 1_555
Mg7_2 O9_2 1_555 1_555
C32_2 C33_2 1_555 1_555
O10_2 Mg7_2 1_555 1_555
C1_3 C2_3 1_555 1_555
C2_3 C11_3 1_555 1_555
C3_2 C4_2 1_555 1_555
C4_2 O1_2 1_555 1_555
C5_3 C6_3 1_555 1_555
C7_2 C3_2 1_555 1_555
H1_2 C7_2 1_555 1_555
C8 H2 1_555 1_555
C9_2 C7_2 1_555 1_555
H3_2 C9_2 1_555 1_555
C10_3 C8 1_555 1_555
C11_3 C8 1_555 1_555
H4_3 C11_3 1_555 1_555
C12_3 C10_3 1_555 1_555
C13_3 C2_3 1_555 1_555
H6_3 C13_3 1_555 1_555
C14_2 C9_2 1_555 1_555
C16_2 C3_2 1_555 1_555
H8_2 C16_2 1_555 1_555
C19_2 C14_2 1_555 1_555
H10_2 C19_2 1_555 1_555
C22_2 H13_2 1_555 1_555
C23_2 H14_2 1_555 1_555
H15_2 C23_2 1_555 1_555
C24_2 C23_2 1_555 1_555
H16_2 C24_2 1_555 1_555
H17_2 C24_2 1_555 1_555
H18_2 C24_2 1_555 1_555
C25_2 H19_2 1_555 1_555
H20_2 C25_2 1_555 1_555
H21_2 C25_2 1_555 1_555
C26_2 H22 1_555 1_555
H23_2 C26_2 1_555 1_555
H24 C26_2 1_555 1_555
Mg6 O1_2 1_555 1_555
Mg2_2 O2_2 1_555 1_555
N2 C10_3 1_555 1_555
N4_2 C22_2 1_555 1_555
O2_2 C1_3 1_555 1_555
O3_2 C1_3 1_555 1_555
O4_2 C5_3 1_555 1_555
O5_3 C5_3 1_555 1_555
O6_2 C4_2 1_555 1_555
O7_2 C23_2 1_555 1_555
O8_2 C22_2 1_555 1_555
H25_2 O7_2 1_555 1_555
C12_3 C13_3 1_555 1_555
C16_2 C19_2 1_555 1_555
C25_2 N4_2 1_555 1_555
C26_2 N4_2 1_555 1_555
Mg6 O2_2 1_555 1_555
Mg6 O5_3 1_555 1_555
Mg2_2 O3_2 1_555 1_555
Mg2_2 O4_2 1_555 1_555
Mg2_2 O6_2 1_555 1_555
Mg2_2 O7_2 1_555 1_555
Mg2_2 O8_2 1_555 1_555
C27_3 C28_3 1_555 1_555
C28_3 C31_3 1_555 1_555
C29 H26 1_555 1_555
C30_3 C29 1_555 1_555
C31_3 C29 1_555 1_555
H27_3 C31_3 1_555 1_555
C32_3 C30_3 1_555 1_555
C33_3 C28_3 1_555 1_555
H29_3 C33_3 1_555 1_555
O19 C27_3 1_555 1_555
O10_3 C27_3 1_555 1_555
Mg8 O19 1_555 1_555
O17_3 Mg6_2 1_555 1_555
O22_3 Mg6_2 1_555 1_555
C30_3 N5 1_555 1_555
C32_3 C33_3 1_555 1_555
O10_3 Mg8 1_555 1_555
C17_3 H9_3 1_555 1_555
C21_3 C17_3 1_555 1_555
H12_3 C21_3 1_555 1_555
C43_3 H34_3 1_555 1_555
H36_3 C46_3 1_555 1_555
C18_3 C21_3 1_555 1_555
C43_3 C46_3 1_555 1_555
C15_3 H7_3 1_555 1_555
C41_3 C42_3 1_555 1_555
C42_3 C44_3 1_555 1_555
C44_3 H35_3 1_555 1_555
C47_3 C44_3 1_555 1_555
H37_3 C47_3 1_555 1_555
O13_3 C41_3 1_555 1_555
O22_3 C41_3 1_555 1_555
Mg7 O13_3 1_555 1_555
C15_3 C20_3 1_555 1_555
C45_3 C47_3 1_555 1_555
C34_2 C35_2 1_555 1_555
C35_2 O11_2 1_555 1_555
C36_2 C34_2 1_555 1_555
H30_2 C36_2 1_555 1_555
C37_2 C36_2 1_555 1_555
H31_2 C37_2 1_555 1_555
C38_2 C37_2 1_555 1_555
C39_2 C34_2 1_555 1_555
H32_2 C39_2 1_555 1_555
C40_2 C38_2 1_555 1_555
H33_2 C40_2 1_555 1_555
O11_2 Mg6_3 1_555 1_555
O12_2 C35_2 1_555 1_555
C48_2 H38_2 1_555 1_555
C49_2 H39_2 1_555 1_555
H40_2 C49_2 1_555 1_555
C50_2 C49_2 1_555 1_555
H41_2 C50_2 1_555 1_555
H42_2 C50_2 1_555 1_555
C51_2 H44_2 1_555 1_555
H45_2 C51_2 1_555 1_555
H46_2 C51_2 1_555 1_555
C52_2 H47 1_555 1_555
H48_2 C52_2 1_555 1_555
H49 C52_2 1_555 1_555
Mg3_2 O12_2 1_555 1_555
N8_2 C48_2 1_555 1_555
O15_2 C49_2 1_555 1_555
O16_2 C48_2 1_555 1_555
H50_2 O15_2 1_555 1_555
Mg6_3 O18_2 1_555 1_555
O18_2 Mg3_2 1_555 1_555
O20_2 Mg3_2 1_555 1_555
O21_2 Mg3_2 1_555 1_555
C39_2 C40_2 1_555 1_555
C51_2 N8_2 1_555 1_555
C52_2 N8_2 1_555 1_555
Mg3_2 O15_2 1_555 1_555
Mg3_2 O16_2 1_555 1_555
C1_4 C2_4 1_555 1_555
C2_4 C11_4 1_555 1_555
C5_4 C6_4 1_555 1_555
C8_2 H2_2 1_555 1_555
C10_4 C8_2 1_555 1_555
C11_4 C8_2 1_555 1_555
H4_4 C11_4 1_555 1_555
C12_4 C10_4 1_555 1_555
H5_4 C12_4 1_555 1_555
C13_4 C2_4 1_555 1_555
H6_4 C13_4 1_555 1_555
N2_2 C10_4 1_555 1_555
O18_2 C1_4 1_555 1_555
O20_2 C1_4 1_555 1_555
O21_2 C5_4 1_555 1_555
O5_4 C5_4 1_555 1_555
C27_4 C28_4 1_555 1_555
C28_4 C31_4 1_555 1_555
C29_2 H26_2 1_555 1_555
C30_4 C29_2 1_555 1_555
C31_4 C29_2 1_555 1_555
H27_4 C31_4 1_555 1_555
C32_4 C30_4 1_555 1_555
H28_4 C32_4 1_555 1_555
C33_4 C28_4 1_555 1_555
H29_4 C33_4 1_555 1_555
N5_2 N2_2 1_555 1_555
O19_2 C27_4 1_555 1_555
O10_4 C27_4 1_555 1_555
Mg8_2 O19_2 1_555 1_555
O17_4 Mg6_3 1_555 1_555
O22_4 Mg6_3 1_555 1_555
C12_4 C13_4 1_555 1_555
Mg6_3 O5_4 1_555 1_555
C30_4 N5_2 1_555 1_555
C32_4 C33_4 1_555 1_555
O10_4 Mg8_2 1_555 1_555
C15_4 H7_4 1_555 1_555
C17_4 H9_4 1_555 1_555
C18_4 C15_4 1_555 1_555
C21_4 C17_4 1_555 1_555
H12_4 C21_4 1_555 1_555
N3_4 C18_4 1_555 1_555
C41_4 C42_4 1_555 1_555
C42_4 C44_4 1_555 1_555
C43_4 H34_4 1_555 1_555
C44_4 H35_4 1_555 1_555
C45_4 C43_4 1_555 1_555
C46_4 C42_4 1_555 1_555
H36_4 C46_4 1_555 1_555
C47_4 C44_4 1_555 1_555
H37_4 C47_4 1_555 1_555
N7_4 N3_4 1_555 1_555
O13_4 C41_4 1_555 1_555
O22_4 C41_4 1_555 1_555
Mg7_2 O13_4 1_555 1_555
C15_4 C20_4 1_555 1_555
C18_4 C21_4 1_555 1_555
C43_4 C46_4 1_555 1_555
C45_4 C47_4 1_555 1_555
C45_4 N7_4 1_555 1_555
C3_3 C4_3 1_555 1_555
C4_3 O17_3 1_555 1_555
C7_3 C3_3 1_555 1_555
H1_3 C7_3 1_555 1_555
C9_3 C7_3 1_555 1_555
H3_3 C9_3 1_555 1_555
C14_3 C9_3 1_555 1_555
C16_3 C3_3 1_555 1_555
H8_3 C16_3 1_555 1_555
C19_3 C14_3 1_555 1_555
H10_3 C19_3 1_555 1_555
C22_3 H13_3 1_555 1_555
C23_3 H14_3 1_555 1_555
H15_3 C23_3 1_555 1_555
C24_3 C23_3 1_555 1_555
H16_3 C24_3 1_555 1_555
H17_3 C24_3 1_555 1_555
H18_3 C24_3 1_555 1_555
C25_3 H19_3 1_555 1_555
H20_3 C25_3 1_555 1_555
H21_3 C25_3 1_555 1_555
H23_3 C26_3 1_555 1_555
N1_3 C14_3 1_555 1_555
N4_3 C22_3 1_555 1_555
O6_3 C4_3 1_555 1_555
O7_3 C23_3 1_555 1_555
O8_3 C22_3 1_555 1_555
H25_3 O7_3 1_555 1_555
C34_3 C35_3 1_555 1_555
C35_3 O17_4 1_555 1_555
C36_3 C34_3 1_555 1_555
H30_3 C36_3 1_555 1_555
C37_3 C36_3 1_555 1_555
H31_3 C37_3 1_555 1_555
C38_3 C37_3 1_555 1_555
C39_3 C34_3 1_555 1_555
H32_3 C39_3 1_555 1_555
C40_3 C38_3 1_555 1_555
H33_3 C40_3 1_555 1_555
N6_3 N1_3 1_555 1_555
O12_3 C35_3 1_555 1_555
C48_3 H38_3 1_555 1_555
C49_3 H39_3 1_555 1_555
H40_3 C49_3 1_555 1_555
C50_3 C49_3 1_555 1_555
H41_3 C50_3 1_555 1_555
H42_3 C50_3 1_555 1_555
C51_3 H44_3 1_555 1_555
H45_3 C51_3 1_555 1_555
H46_3 C51_3 1_555 1_555
H48_3 C52_3 1_555 1_555
Mg7_2 O12_3 1_555 1_555
N8_3 C48_3 1_555 1_555
O15_3 C49_3 1_555 1_555
O16_3 C48_3 1_555 1_555
H50_3 O15_3 1_555 1_555
C16_3 C19_3 1_555 1_555
C25_3 N4_3 1_555 1_555
C26_3 N4_3 1_555 1_555
Mg7 O6_3 1_555 1_555
Mg7 O7_3 1_555 1_555
Mg7 O8_3 1_555 1_555
C38_3 N6_3 1_555 1_555
C39_3 C40_3 1_555 1_555
C51_3 N8_3 1_555 1_555
C52_3 N8_3 1_555 1_555
Mg7_2 O15_3 1_555 1_555
Mg7_2 O16_3 1_555 1_555
C34_4 C35_4 1_555 1_555
C35_4 O17_2 1_555 1_555
C36_4 C34_4 1_555 1_555
H30_4 C36_4 1_555 1_555
C37_4 C36_4 1_555 1_555
H31_4 C37_4 1_555 1_555
C38_4 C37_4 1_555 1_555
C39_4 C34_4 1_555 1_555
H32_4 C39_4 1_555 1_555
C40_4 C38_4 1_555 1_555
H33_4 C40_4 1_555 1_555
O12_4 C35_4 1_555 1_555
C48_4 H38_4 1_555 1_555
C49_4 H39_4 1_555 1_555
H40_4 C49_4 1_555 1_555
C50_4 C49_4 1_555 1_555
H41_4 C50_4 1_555 1_555
H42_4 C50_4 1_555 1_555
C51_4 H44_4 1_555 1_555
H45_4 C51_4 1_555 1_555
H46_4 C51_4 1_555 1_555
C52_4 H47_2 1_555 1_555
H48_4 C52_4 1_555 1_555
H49_2 C52_4 1_555 1_555
Mg8_2 O12_4 1_555 1_555
N8_4 C48_4 1_555 1_555
O15_4 C49_4 1_555 1_555
O16_4 C48_4 1_555 1_555
H50_4 O15_4 1_555 1_555
C39_4 C40_4 1_555 1_555
C51_4 N8_4 1_555 1_555
C52_4 N8_4 1_555 1_555
Mg8_2 O15_4 1_555 1_555
Mg8_2 O16_4 1_555 1_555
C3_4 C4_4 1_555 1_555
C4_4 O17 1_555 1_555
C7_4 C3_4 1_555 1_555
H1_4 C7_4 1_555 1_555
C9_4 C7_4 1_555 1_555
H3_4 C9_4 1_555 1_555
C14_4 C9_4 1_555 1_555
C16_4 C3_4 1_555 1_555
H8_4 C16_4 1_555 1_555
C19_4 C14_4 1_555 1_555
H10_4 C19_4 1_555 1_555
C22_4 H13_4 1_555 1_555
C23_4 H14_4 1_555 1_555
H15_4 C23_4 1_555 1_555
C24_4 C23_4 1_555 1_555
H16_4 C24_4 1_555 1_555
H17_4 C24_4 1_555 1_555
H18_4 C24_4 1_555 1_555
C25_4 H19_4 1_555 1_555
H20_4 C25_4 1_555 1_555
H21_4 C25_4 1_555 1_555
C26_4 H22_2 1_555 1_555
H23_4 C26_4 1_555 1_555
H24_2 C26_4 1_555 1_555
N4_4 C22_4 1_555 1_555
O6_4 C4_4 1_555 1_555
O7_4 C23_4 1_555 1_555
O8_4 C22_4 1_555 1_555
H25_4 O7_4 1_555 1_555
C16_4 C19_4 1_555 1_555
C25_4 N4_4 1_555 1_555
C26_4 N4_4 1_555 1_555
Mg8 O6_4 1_555 1_555
Mg8 O7_4 1_555 1_555
Mg8 O8_4 1_555 1_555
C8_3 H2_3 1_555 1_555
C29_3 H26_3 1_555 1_555
C29_4 H26_4 1_555 1_555
C8_4 H2_4 1_555 1_555

#END
