
###############################################################################
#
# This file contains modified crystal structure data generated from the
# MOF subset of the Cambridge Structural Database (CSD) v543 
# hosted by the Cambridge Crystallographic Data Centre (CCDC).
#
# This work is licensed under the Creative Commons
# Attribution-NonCommercial-ShareAlike 4.0 International License.
# To view a copy of this license, visit
# http://creativecommons.org/licenses/by-nc-sa/4.0/
# or send a letter to
# Creative Commons, PO Box 1866, Mountain View, CA 94042, USA.
#
# CIF created using the CSD Python API on 29 September 2022
# The structure has been converted into the P1 space group
# The structure has a 3D framework
# The original CSD entry UTEWOG is in the cubic crystal system
# The framework has been calculated to contain at least 10.0% void space
# The void calculation uses a probe of radius 1.32A, grid spacing 0.4
# H atom positions have been added when not included in the experimental data
# Generated hydrogen atom positions removed from atoms on special positions
#
###############################################################################

data_UTEWOG
_chemical_formula_moiety         '(C144 H240 N48 Ni24 O24)n'
_symmetry_cell_setting           triclinic
_symmetry_space_group_name_H-M   'P 1'
_symmetry_Int_Tables_number      1
_space_group_name_Hall           'P 1'
loop_
_symmetry_equiv_pos_site_id
_symmetry_equiv_pos_as_xyz
1 x,y,z
_cell_length_a                   18.54898(83)
_cell_length_b                   18.54898(83)
_cell_length_c                   18.54898(83)
_cell_angle_alpha                90
_cell_angle_beta                 90
_cell_angle_gamma                90
_cell_volume                     6382.05
loop_
_atom_site_label
_atom_site_type_symbol
_atom_site_fract_x
_atom_site_fract_y
_atom_site_fract_z
Ni16 Ni 0.38115(24) 0.50000 0.00000
Ni17 Ni 0.50000 0.38115(24) 0.00000
Ni1 Ni -0.00000 0.38115(24) 0.50000
O1 O -0.00000 0.26500 0.50000
C1 C 0.220060 0.310510 0.310510
C2 C 0.246550 0.245890 0.337670
H1 H 0.228440 0.227330 0.381830
C3 C 0.164780 0.349600 0.349600
C4 C 0.134310 0.329200 0.413090
H2 H 0.145500 0.286850 0.439620
N1 N 0.085000 0.380090 0.431930
Ni2 Ni -0.00000 0.50000 0.38115(24)
Ni3 Ni 0.50000 -0.00000 0.38115(24)
Ni4 Ni 0.38115(24) -0.00000 0.50000
Ni7 Ni -0.00000 0.50000 0.61885(24)
Ni15 Ni 0.50000 -0.00000 0.61885(24)
Ni16_2 Ni 0.38115(24) 0.50000 1.00000
Ni17_2 Ni 0.50000 0.38115(24) 1.00000
O2 O -0.00000 0.50000 0.26500
O3 O 0.50000 -0.00000 0.26500
O4 O 0.26500 -0.00000 0.50000
O5 O 0.26500 0.50000 0.00000
O6 O 0.50000 0.26500 0.00000
C5 C 0.310510 0.220060 0.310510
C6 C 0.310510 0.310510 0.220060
C13 C 0.220060 0.310510 0.689490
C14 C 0.310510 0.220060 0.689490
C15 C 0.310510 0.310510 0.779940
C16 C 0.337670 0.246550 0.245890
C17 C 0.245890 0.337670 0.246550
C24 C 0.246550 0.245890 0.662330
C25 C 0.337670 0.246550 0.754110
C26 C 0.245890 0.337670 0.753450
H3 H 0.227330 0.381830 0.228440
H4 H 0.381830 0.228440 0.227330
H11 H 0.228440 0.227330 0.618170
H12 H 0.227330 0.381830 0.771560
H13 H 0.381830 0.228440 0.772670
C27 C 0.349600 0.164780 0.349600
C28 C 0.349600 0.349600 0.164780
C35 C 0.164780 0.349600 0.650400
C36 C 0.349600 0.164780 0.650400
C37 C 0.349600 0.349600 0.835220
C38 C 0.134310 0.413090 0.329200
C39 C 0.413090 0.134310 0.329200
C40 C 0.329200 0.134310 0.413090
C41 C 0.329200 0.413090 0.134310
C42 C 0.413090 0.329200 0.134310
C55 C 0.134310 0.329200 0.586910
C56 C 0.134310 0.413090 0.670800
C57 C 0.413090 0.134310 0.670800
C58 C 0.329200 0.134310 0.586910
C59 C 0.329200 0.413090 0.865690
C60 C 0.413090 0.329200 0.865690
H14 H 0.145500 0.439620 0.286850
H15 H 0.286850 0.145500 0.439620
H16 H 0.439620 0.145500 0.286850
H17 H 0.439620 0.286850 0.145500
H18 H 0.286850 0.439620 0.145500
H31 H 0.145500 0.286850 0.560380
H32 H 0.145500 0.439620 0.713150
H33 H 0.286850 0.145500 0.560380
H34 H 0.439620 0.145500 0.713150
H35 H 0.439620 0.286850 0.854500
H36 H 0.286850 0.439620 0.854500
N2 N 0.085000 0.431930 0.380090
N3 N 0.431930 0.085000 0.380090
N4 N 0.380090 0.085000 0.431930
N5 N 0.380090 0.431930 0.085000
N6 N 0.431930 0.380090 0.085000
N19 N 0.085000 0.380090 0.568070
N20 N 0.085000 0.431930 0.619910
N21 N 0.431930 0.085000 0.619910
N22 N 0.380090 0.085000 0.568070
N23 N 0.380090 0.431930 0.915000
N24 N 0.431930 0.380090 0.915000
N26 N 0.085000 0.568070 0.380090
N29 N 0.568070 0.085000 0.380090
N34 N 0.380090 0.568070 0.085000
N37 N 0.568070 0.380090 0.085000
O5_2 O 0.26500 0.50000 1.00000
O6_2 O 0.50000 0.26500 1.00000
N32 N 0.380090 0.568070 0.915000
N35 N 0.568070 0.380090 0.915000
Ni3_2 Ni 0.50000 1.00000 0.38115(24)
Ni4_2 Ni 0.38115(24) 1.00000 0.50000
Ni15_2 Ni 0.50000 1.00000 0.61885(24)
O3_2 O 0.50000 1.00000 0.26500
O4_2 O 0.26500 1.00000 0.50000
N27 N 0.568070 0.915000 0.380090
N28 N 0.431930 0.915000 0.380090
N30 N 0.380090 0.915000 0.568070
N31 N 0.380090 0.915000 0.431930
Ni10 Ni 0.61885(24) 0.50000 0.00000
Ni1_2 Ni 1.00000 0.38115(24) 0.50000
O1_2 O 1.00000 0.26500 0.50000
Ni2_2 Ni 1.00000 0.50000 0.38115(24)
Ni7_2 Ni 1.00000 0.50000 0.61885(24)
Ni9 Ni 0.61885(24) -0.00000 0.50000
Ni10_2 Ni 0.61885(24) 0.50000 1.00000
O2_2 O 1.00000 0.50000 0.26500
C7 C 0.779940 0.310510 0.689490
C8 C 0.689490 0.220060 0.689490
C9 C 0.689490 0.310510 0.779940
C10 C 0.779940 0.310510 0.310510
C11 C 0.689490 0.220060 0.310510
C12 C 0.689490 0.310510 0.220060
C18 C 0.753450 0.245890 0.662330
C19 C 0.662330 0.246550 0.754110
C20 C 0.754110 0.337670 0.753450
C21 C 0.753450 0.245890 0.337670
C22 C 0.662330 0.246550 0.245890
C23 C 0.754110 0.337670 0.246550
H5 H 0.771560 0.227330 0.618170
H6 H 0.772670 0.381830 0.771560
H7 H 0.618170 0.228440 0.772670
H8 H 0.771560 0.227330 0.381830
H9 H 0.772670 0.381830 0.228440
H10 H 0.618170 0.228440 0.227330
C29 C 0.835220 0.349600 0.650400
C30 C 0.650400 0.164780 0.650400
C31 C 0.650400 0.349600 0.835220
C32 C 0.835220 0.349600 0.349600
C33 C 0.650400 0.164780 0.349600
C34 C 0.650400 0.349600 0.164780
C43 C 0.865690 0.329200 0.586910
C44 C 0.865690 0.413090 0.670800
C45 C 0.586910 0.134310 0.670800
C46 C 0.670800 0.134310 0.586910
C47 C 0.670800 0.413090 0.865690
C48 C 0.586910 0.329200 0.865690
C49 C 0.865690 0.329200 0.413090
C50 C 0.865690 0.413090 0.329200
C51 C 0.586910 0.134310 0.329200
C52 C 0.670800 0.134310 0.413090
C53 C 0.670800 0.413090 0.134310
C54 C 0.586910 0.329200 0.134310
H19 H 0.854500 0.286850 0.560380
H20 H 0.854500 0.439620 0.713150
H21 H 0.713150 0.145500 0.560380
H22 H 0.560380 0.145500 0.713150
H23 H 0.560380 0.286850 0.854500
H24 H 0.713150 0.439620 0.854500
H25 H 0.854500 0.286850 0.439620
H26 H 0.854500 0.439620 0.286850
H27 H 0.713150 0.145500 0.439620
H28 H 0.560380 0.145500 0.286850
H29 H 0.560380 0.286850 0.145500
H30 H 0.713150 0.439620 0.145500
N7 N 0.915000 0.380090 0.568070
N8 N 0.915000 0.431930 0.619910
N9 N 0.568070 0.085000 0.619910
N10 N 0.619910 0.085000 0.568070
N11 N 0.619910 0.431930 0.915000
N13 N 0.915000 0.380090 0.431930
N14 N 0.915000 0.431930 0.380090
N16 N 0.619910 0.085000 0.431930
N17 N 0.619910 0.431930 0.085000
N25 N 0.915000 0.568070 0.380090
Ni9_2 Ni 0.61885(24) 1.00000 0.50000
Ni9_3 Ni -0.00000 0.61885(24) 0.50000
O1_3 O 0.73500 -0.00000 0.50000
C2_2 C 0.754110 0.246550 0.337670
H1_2 H 0.772670 0.228440 0.381830
O6_3 O 0.73500 0.50000 0.00000
C16_2 C 0.753450 0.337670 0.245890
C17_2 C 0.662330 0.245890 0.246550
C24_2 C 0.754110 0.246550 0.662330
C25_2 C 0.753450 0.337670 0.754110
C26_2 C 0.662330 0.245890 0.753450
H3_2 H 0.618170 0.227330 0.228440
H4_2 H 0.771560 0.381830 0.227330
H11_2 H 0.772670 0.228440 0.618170
H12_2 H 0.618170 0.227330 0.771560
H13_2 H 0.771560 0.381830 0.772670
N37_2 N 0.619910 0.568070 0.085000
O6_4 O 0.73500 0.50000 1.00000
N35_2 N 0.619910 0.568070 0.915000
Ni10_3 Ni 0.50000 0.61885(24) 0.00000
O1_4 O 0.73500 1.00000 0.50000
Ni9_4 Ni 1.00000 0.61885(24) 0.50000
Ni10_4 Ni 0.50000 0.61885(24) 1.00000
C7_2 C 0.689490 0.779940 0.689490
C8_2 C 0.779940 0.689490 0.689490
C9_2 C 0.689490 0.689490 0.779940
C10_2 C 0.689490 0.779940 0.310510
C11_2 C 0.779940 0.689490 0.310510
C12_2 C 0.689490 0.689490 0.220060
C18_2 C 0.754110 0.753450 0.662330
C19_2 C 0.753450 0.662330 0.754110
C20_2 C 0.662330 0.754110 0.753450
C21_2 C 0.754110 0.753450 0.337670
C22_2 C 0.753450 0.662330 0.245890
C23_2 C 0.662330 0.754110 0.246550
H5_2 H 0.772670 0.771560 0.618170
H6_2 H 0.618170 0.772670 0.771560
H7_2 H 0.771560 0.618170 0.772670
H8_2 H 0.772670 0.771560 0.381830
H9_2 H 0.618170 0.772670 0.228440
H10_2 H 0.771560 0.618170 0.227330
C29_2 C 0.650400 0.835220 0.650400
C30_2 C 0.835220 0.650400 0.650400
C31_2 C 0.650400 0.650400 0.835220
C32_2 C 0.650400 0.835220 0.349600
C33_2 C 0.835220 0.650400 0.349600
C34_2 C 0.650400 0.650400 0.164780
C43_2 C 0.670800 0.865690 0.586910
C44_2 C 0.586910 0.865690 0.670800
C45_2 C 0.865690 0.586910 0.670800
C46_2 C 0.865690 0.670800 0.586910
C47_2 C 0.586910 0.670800 0.865690
C48_2 C 0.670800 0.586910 0.865690
C49_2 C 0.670800 0.865690 0.413090
C50_2 C 0.586910 0.865690 0.329200
C51_2 C 0.865690 0.586910 0.329200
C52_2 C 0.865690 0.670800 0.413090
C53_2 C 0.586910 0.670800 0.134310
C54_2 C 0.670800 0.586910 0.134310
H19_2 H 0.713150 0.854500 0.560380
H20_2 H 0.560380 0.854500 0.713150
H21_2 H 0.854500 0.713150 0.560380
H22_2 H 0.854500 0.560380 0.713150
H23_2 H 0.713150 0.560380 0.854500
H24_2 H 0.560380 0.713150 0.854500
H25_2 H 0.713150 0.854500 0.439620
H26_2 H 0.560380 0.854500 0.286850
H27_2 H 0.854500 0.713150 0.439620
H28_2 H 0.854500 0.560380 0.286850
H29_2 H 0.713150 0.560380 0.145500
H30_2 H 0.560380 0.713150 0.145500
N7_2 N 0.619910 0.915000 0.568070
N8_2 N 0.568070 0.915000 0.619910
N9_2 N 0.915000 0.568070 0.619910
N10_2 N 0.915000 0.619910 0.568070
N11_2 N 0.568070 0.619910 0.915000
N13_2 N 0.619910 0.915000 0.431930
N16_2 N 0.915000 0.619910 0.431930
N17_2 N 0.568070 0.619910 0.085000
O3_3 O 0.50000 0.00000 0.73500
O6_5 O 0.50000 0.73500 0.00000
N36 N 0.431930 0.619910 0.085000
O1_5 O -0.00000 0.73500 0.50000
C1_2 C 0.220060 0.689490 0.689490
C2_3 C 0.246550 0.754110 0.662330
H1_3 H 0.228440 0.772670 0.618170
C3_2 C 0.164780 0.650400 0.650400
C4_2 C 0.134310 0.670800 0.586910
H2_2 H 0.145500 0.713150 0.560380
N1_2 N 0.085000 0.619910 0.568070
O2_3 O -0.00000 0.50000 0.73500
O3_4 O 0.50000 1.00000 0.73500
O6_6 O 0.50000 0.73500 1.00000
C5_2 C 0.310510 0.779940 0.689490
C6_2 C 0.310510 0.689490 0.779940
C13_2 C 0.220060 0.689490 0.310510
C14_2 C 0.310510 0.779940 0.310510
C15_2 C 0.310510 0.689490 0.220060
C16_3 C 0.337670 0.753450 0.754110
C17_3 C 0.245890 0.662330 0.753450
C24_3 C 0.246550 0.754110 0.337670
C25_3 C 0.337670 0.753450 0.245890
C26_3 C 0.245890 0.662330 0.246550
H3_3 H 0.227330 0.618170 0.771560
H4_3 H 0.381830 0.771560 0.772670
H11_3 H 0.228440 0.772670 0.381830
H12_3 H 0.227330 0.618170 0.228440
H13_3 H 0.381830 0.771560 0.227330
C27_2 C 0.349600 0.835220 0.650400
C28_2 C 0.349600 0.650400 0.835220
C35_2 C 0.164780 0.650400 0.349600
C36_2 C 0.349600 0.835220 0.349600
C37_2 C 0.349600 0.650400 0.164780
C38_2 C 0.134310 0.586910 0.670800
C39_2 C 0.413090 0.865690 0.670800
C40_2 C 0.329200 0.865690 0.586910
C41_2 C 0.329200 0.586910 0.865690
C42_2 C 0.413090 0.670800 0.865690
C55_2 C 0.134310 0.670800 0.413090
C56_2 C 0.134310 0.586910 0.329200
C57_2 C 0.413090 0.865690 0.329200
C58_2 C 0.329200 0.865690 0.413090
C59_2 C 0.329200 0.586910 0.134310
C60_2 C 0.413090 0.670800 0.134310
H14_2 H 0.145500 0.560380 0.713150
H15_2 H 0.286850 0.854500 0.560380
H16_2 H 0.439620 0.854500 0.713150
H17_2 H 0.439620 0.713150 0.854500
H18_2 H 0.286850 0.560380 0.854500
H31_2 H 0.145500 0.713150 0.439620
H32_2 H 0.145500 0.560380 0.286850
H33_2 H 0.286850 0.854500 0.439620
H34_2 H 0.439620 0.854500 0.286850
H35_2 H 0.439620 0.713150 0.145500
H36_2 H 0.286850 0.560380 0.145500
N2_2 N 0.085000 0.568070 0.619910
N3_2 N 0.431930 0.915000 0.619910
N6_2 N 0.431930 0.619910 0.915000
N19_2 N 0.085000 0.619910 0.431930
O1_6 O 1.00000 0.73500 0.50000
O2_4 O 1.00000 0.50000 0.73500
C18_3 C 0.753450 0.754110 0.337670
C19_3 C 0.662330 0.753450 0.245890
C20_3 C 0.754110 0.662330 0.246550
C21_3 C 0.753450 0.754110 0.662330
C22_3 C 0.662330 0.753450 0.754110
C23_3 C 0.754110 0.662330 0.753450
H5_3 H 0.771560 0.772670 0.381830
H6_3 H 0.772670 0.618170 0.228440
H7_3 H 0.618170 0.771560 0.227330
H8_3 H 0.771560 0.772670 0.618170
H9_3 H 0.772670 0.618170 0.771560
H10_3 H 0.618170 0.771560 0.772670
C2_4 C 0.245890 0.246550 0.662330
H1_4 H 0.227330 0.228440 0.618170
C16_4 C 0.246550 0.337670 0.754110
C17_4 C 0.337670 0.245890 0.753450
C24_4 C 0.245890 0.246550 0.337670
C25_4 C 0.246550 0.337670 0.245890
C26_4 C 0.337670 0.245890 0.246550
H3_4 H 0.381830 0.227330 0.771560
H4_4 H 0.228440 0.381830 0.772670
H11_4 H 0.227330 0.228440 0.381830
H12_4 H 0.381830 0.227330 0.228440
H13_4 H 0.228440 0.381830 0.227330
C18_4 C 0.245890 0.753450 0.337670
C19_4 C 0.246550 0.662330 0.245890
C20_4 C 0.337670 0.754110 0.246550
C21_4 C 0.245890 0.753450 0.662330
C22_4 C 0.246550 0.662330 0.754110
C23_4 C 0.337670 0.754110 0.753450
H5_4 H 0.227330 0.771560 0.381830
H6_4 H 0.381830 0.772670 0.228440
H7_4 H 0.228440 0.618170 0.227330
H8_4 H 0.227330 0.771560 0.618170
H9_4 H 0.381830 0.772670 0.771560
H10_4 H 0.228440 0.618170 0.772670
loop_
_geom_bond_atom_site_label_1
_geom_bond_atom_site_label_2
_geom_bond_site_symmetry_1
_geom_bond_site_symmetry_2
Ni1 O1 1_555 1_555
C1 C2 1_555 1_555
C2 H1 1_555 1_555
C3 C1 1_555 1_555
C4 C3 1_555 1_555
H2 C4 1_555 1_555
N1 Ni1 1_555 1_555
Ni2 O2 1_555 1_555
Ni3 O3 1_555 1_555
Ni4 O4 1_555 1_555
Ni16 O5 1_555 1_555
Ni17 O6 1_555 1_555
Ni15 N21 1_555 1_555
Ni16_2 N23 1_555 1_555
Ni17_2 N24 1_555 1_555
C5 C2 1_555 1_555
C6 C16 1_555 1_555
C13 C24 1_555 1_555
C14 C24 1_555 1_555
C15 C25 1_555 1_555
C16 C5 1_555 1_555
C17 C1 1_555 1_555
C24 H11 1_555 1_555
C25 C14 1_555 1_555
C26 C13 1_555 1_555
H3 C17 1_555 1_555
H4 C16 1_555 1_555
H12 C26 1_555 1_555
H13 C25 1_555 1_555
C27 C5 1_555 1_555
C28 C6 1_555 1_555
C35 C13 1_555 1_555
C36 C14 1_555 1_555
C37 C15 1_555 1_555
C38 C3 1_555 1_555
C39 C27 1_555 1_555
C40 C27 1_555 1_555
C41 C28 1_555 1_555
C42 C28 1_555 1_555
C55 C35 1_555 1_555
C56 C35 1_555 1_555
C57 C36 1_555 1_555
C58 C36 1_555 1_555
C59 C37 1_555 1_555
C60 C37 1_555 1_555
H14 C38 1_555 1_555
H15 C40 1_555 1_555
H16 C39 1_555 1_555
H17 C42 1_555 1_555
H18 C41 1_555 1_555
H31 C55 1_555 1_555
H32 C56 1_555 1_555
H33 C58 1_555 1_555
H34 C57 1_555 1_555
H35 C60 1_555 1_555
H36 C59 1_555 1_555
N2 N1 1_555 1_555
N3 Ni3 1_555 1_555
N4 Ni4 1_555 1_555
N5 Ni16 1_555 1_555
N6 Ni17 1_555 1_555
N19 Ni1 1_555 1_555
N20 Ni7 1_555 1_555
N21 C57 1_555 1_555
N22 Ni4 1_555 1_555
N23 C59 1_555 1_555
N24 C60 1_555 1_555
N26 Ni2 1_555 1_555
N29 Ni3 1_555 1_555
N34 Ni16 1_555 1_555
N37 Ni17 1_555 1_555
C4 N1 1_555 1_555
Ni2 N2 1_555 1_555
C6 C17 1_555 1_555
C15 C26 1_555 1_555
C38 N2 1_555 1_555
C39 N3 1_555 1_555
C40 N4 1_555 1_555
C41 N5 1_555 1_555
C42 N6 1_555 1_555
C55 N19 1_555 1_555
C56 N20 1_555 1_555
C58 N22 1_555 1_555
N3 N4 1_555 1_555
N5 N6 1_555 1_555
N19 N20 1_555 1_555
N21 N22 1_555 1_555
N23 N24 1_555 1_555
Ni16_2 O5_2 1_555 1_555
Ni17_2 O6_2 1_555 1_555
N32 Ni16_2 1_555 1_555
N35 Ni17_2 1_555 1_555
Ni3_2 O3_2 1_555 1_555
Ni4_2 O4_2 1_555 1_555
N27 Ni3_2 1_555 1_555
N28 Ni3_2 1_555 1_555
N30 Ni4_2 1_555 1_555
N31 Ni4_2 1_555 1_555
N28 N31 1_555 1_555
Ni1_2 O1_2 1_555 1_555
Ni2_2 O2_2 1_555 1_555
Ni7_2 N8 1_555 1_555
Ni15 N9 1_555 1_555
Ni9 N10 1_555 1_555
Ni10_2 N11 1_555 1_555
Ni10 N17 1_555 1_555
C7 C18 1_555 1_555
C8 C18 1_555 1_555
C9 C19 1_555 1_555
C10 C21 1_555 1_555
C11 C21 1_555 1_555
C12 C22 1_555 1_555
C18 H5 1_555 1_555
C19 C8 1_555 1_555
C20 C7 1_555 1_555
C21 H8 1_555 1_555
C22 C11 1_555 1_555
C23 C10 1_555 1_555
H6 C20 1_555 1_555
H7 C19 1_555 1_555
H9 C23 1_555 1_555
H10 C22 1_555 1_555
C29 C7 1_555 1_555
C30 C8 1_555 1_555
C31 C9 1_555 1_555
C32 C10 1_555 1_555
C33 C11 1_555 1_555
C34 C12 1_555 1_555
C43 C29 1_555 1_555
C44 C29 1_555 1_555
C45 C30 1_555 1_555
C46 C30 1_555 1_555
C47 C31 1_555 1_555
C48 C31 1_555 1_555
C49 C32 1_555 1_555
C50 C32 1_555 1_555
C51 C33 1_555 1_555
C52 C33 1_555 1_555
C53 C34 1_555 1_555
C54 C34 1_555 1_555
H19 C43 1_555 1_555
H20 C44 1_555 1_555
H21 C46 1_555 1_555
H22 C45 1_555 1_555
H23 C48 1_555 1_555
H24 C47 1_555 1_555
H25 C49 1_555 1_555
H26 C50 1_555 1_555
H27 C52 1_555 1_555
H28 C51 1_555 1_555
H29 C54 1_555 1_555
H30 C53 1_555 1_555
N7 Ni1_2 1_555 1_555
N8 C44 1_555 1_555
N9 C45 1_555 1_555
N10 C46 1_555 1_555
N11 C47 1_555 1_555
N35 C48 1_555 1_555
N13 Ni1_2 1_555 1_555
N14 Ni2_2 1_555 1_555
N29 C51 1_555 1_555
N16 Ni9 1_555 1_555
N17 C53 1_555 1_555
N37 C54 1_555 1_555
N25 Ni2_2 1_555 1_555
C9 C20 1_555 1_555
C12 C23 1_555 1_555
C43 N7 1_555 1_555
C49 N13 1_555 1_555
C50 N14 1_555 1_555
C52 N16 1_555 1_555
N7 N8 1_555 1_555
N9 N10 1_555 1_555
N11 N35 1_555 1_555
N13 N14 1_555 1_555
N29 N16 1_555 1_555
N17 N37 1_555 1_555
Ni9 O1_3 1_555 1_555
C11 C2_2 1_555 1_555
C2_2 H1_2 1_555 1_555
Ni10 O6_3 1_555 1_555
C10 C2_2 1_555 1_555
C12 C16_2 1_555 1_555
C8 C24_2 1_555 1_555
C7 C24_2 1_555 1_555
C9 C25_2 1_555 1_555
C16_2 C10 1_555 1_555
C17_2 C11 1_555 1_555
C24_2 H11_2 1_555 1_555
C25_2 C7 1_555 1_555
C26_2 C8 1_555 1_555
H3_2 C17_2 1_555 1_555
H4_2 C16_2 1_555 1_555
H12_2 C26_2 1_555 1_555
H13_2 C25_2 1_555 1_555
N37_2 Ni10 1_555 1_555
C12 C17_2 1_555 1_555
C9 C26_2 1_555 1_555
Ni10_2 O6_4 1_555 1_555
N35_2 Ni10_2 1_555 1_555
Ni9_2 O1_4 1_555 1_555
Ni15_2 N8_2 1_555 1_555
Ni7_2 N9_2 1_555 1_555
Ni9_4 N10_2 1_555 1_555
Ni10_4 N11_2 1_555 1_555
Ni10_3 N17_2 1_555 1_555
C7_2 C18_2 1_555 1_555
C8_2 C18_2 1_555 1_555
C9_2 C19_2 1_555 1_555
C10_2 C21_2 1_555 1_555
C11_2 C21_2 1_555 1_555
C12_2 C22_2 1_555 1_555
C18_2 H5_2 1_555 1_555
C19_2 C8_2 1_555 1_555
C20_2 C7_2 1_555 1_555
C21_2 H8_2 1_555 1_555
C22_2 C11_2 1_555 1_555
C23_2 C10_2 1_555 1_555
H6_2 C20_2 1_555 1_555
H7_2 C19_2 1_555 1_555
H9_2 C23_2 1_555 1_555
H10_2 C22_2 1_555 1_555
C29_2 C7_2 1_555 1_555
C30_2 C8_2 1_555 1_555
C31_2 C9_2 1_555 1_555
C32_2 C10_2 1_555 1_555
C33_2 C11_2 1_555 1_555
C34_2 C12_2 1_555 1_555
C43_2 C29_2 1_555 1_555
C44_2 C29_2 1_555 1_555
C45_2 C30_2 1_555 1_555
C46_2 C30_2 1_555 1_555
C47_2 C31_2 1_555 1_555
C48_2 C31_2 1_555 1_555
C49_2 C32_2 1_555 1_555
C50_2 C32_2 1_555 1_555
C51_2 C33_2 1_555 1_555
C52_2 C33_2 1_555 1_555
C53_2 C34_2 1_555 1_555
C54_2 C34_2 1_555 1_555
H19_2 C43_2 1_555 1_555
H20_2 C44_2 1_555 1_555
H21_2 C46_2 1_555 1_555
H22_2 C45_2 1_555 1_555
H23_2 C48_2 1_555 1_555
H24_2 C47_2 1_555 1_555
H25_2 C49_2 1_555 1_555
H26_2 C50_2 1_555 1_555
H27_2 C52_2 1_555 1_555
H28_2 C51_2 1_555 1_555
H29_2 C54_2 1_555 1_555
H30_2 C53_2 1_555 1_555
N7_2 Ni9_2 1_555 1_555
N8_2 C44_2 1_555 1_555
N9_2 C45_2 1_555 1_555
N10_2 C46_2 1_555 1_555
N11_2 C47_2 1_555 1_555
N35_2 C48_2 1_555 1_555
N13_2 Ni9_2 1_555 1_555
N25 C51_2 1_555 1_555
N16_2 Ni9_4 1_555 1_555
N17_2 C53_2 1_555 1_555
N37_2 C54_2 1_555 1_555
C9_2 C20_2 1_555 1_555
C12_2 C23_2 1_555 1_555
C43_2 N7_2 1_555 1_555
C49_2 N13_2 1_555 1_555
C50_2 N27 1_555 1_555
C52_2 N16_2 1_555 1_555
N7_2 N8_2 1_555 1_555
N9_2 N10_2 1_555 1_555
N11_2 N35_2 1_555 1_555
N13_2 N27 1_555 1_555
N25 N16_2 1_555 1_555
N17_2 N37_2 1_555 1_555
Ni15 O3_3 1_555 1_555
Ni10_3 O6_5 1_555 1_555
N36 Ni10_3 1_555 1_555
N34 N36 1_555 1_555
Ni9_3 O1_5 1_555 1_555
C1_2 C2_3 1_555 1_555
C2_3 H1_3 1_555 1_555
C3_2 C1_2 1_555 1_555
C4_2 C3_2 1_555 1_555
H2_2 C4_2 1_555 1_555
N1_2 Ni9_3 1_555 1_555
Ni7 O2_3 1_555 1_555
Ni15_2 O3_4 1_555 1_555
Ni10_4 O6_6 1_555 1_555
C5_2 C2_3 1_555 1_555
C6_2 C16_3 1_555 1_555
C13_2 C24_3 1_555 1_555
C14_2 C24_3 1_555 1_555
C15_2 C25_3 1_555 1_555
C16_3 C5_2 1_555 1_555
C17_3 C1_2 1_555 1_555
C24_3 H11_3 1_555 1_555
C25_3 C14_2 1_555 1_555
C26_3 C13_2 1_555 1_555
H3_3 C17_3 1_555 1_555
H4_3 C16_3 1_555 1_555
H12_3 C26_3 1_555 1_555
H13_3 C25_3 1_555 1_555
C27_2 C5_2 1_555 1_555
C28_2 C6_2 1_555 1_555
C35_2 C13_2 1_555 1_555
C36_2 C14_2 1_555 1_555
C37_2 C15_2 1_555 1_555
C38_2 C3_2 1_555 1_555
C39_2 C27_2 1_555 1_555
C40_2 C27_2 1_555 1_555
C41_2 C28_2 1_555 1_555
C42_2 C28_2 1_555 1_555
C55_2 C35_2 1_555 1_555
C56_2 C35_2 1_555 1_555
C57_2 C36_2 1_555 1_555
C58_2 C36_2 1_555 1_555
C59_2 C37_2 1_555 1_555
C60_2 C37_2 1_555 1_555
H14_2 C38_2 1_555 1_555
H15_2 C40_2 1_555 1_555
H16_2 C39_2 1_555 1_555
H17_2 C42_2 1_555 1_555
H18_2 C41_2 1_555 1_555
H31_2 C55_2 1_555 1_555
H32_2 C56_2 1_555 1_555
H33_2 C58_2 1_555 1_555
H34_2 C57_2 1_555 1_555
H35_2 C60_2 1_555 1_555
H36_2 C59_2 1_555 1_555
N2_2 N1_2 1_555 1_555
N3_2 Ni15_2 1_555 1_555
N6_2 Ni10_4 1_555 1_555
N19_2 Ni9_3 1_555 1_555
N28 C57_2 1_555 1_555
N34 C59_2 1_555 1_555
N36 C60_2 1_555 1_555
C4_2 N1_2 1_555 1_555
Ni7 N2_2 1_555 1_555
C6_2 C17_3 1_555 1_555
C15_2 C26_3 1_555 1_555
C38_2 N2_2 1_555 1_555
C39_2 N3_2 1_555 1_555
C40_2 N30 1_555 1_555
C41_2 N32 1_555 1_555
C42_2 N6_2 1_555 1_555
C55_2 N19_2 1_555 1_555
C56_2 N26 1_555 1_555
C58_2 N31 1_555 1_555
N3_2 N30 1_555 1_555
N32 N6_2 1_555 1_555
N19_2 N26 1_555 1_555
Ni9_4 O1_6 1_555 1_555
Ni7_2 O2_4 1_555 1_555
C11_2 C18_3 1_555 1_555
C10_2 C18_3 1_555 1_555
C12_2 C19_3 1_555 1_555
C8_2 C21_3 1_555 1_555
C7_2 C21_3 1_555 1_555
C9_2 C22_3 1_555 1_555
C18_3 H5_3 1_555 1_555
C19_3 C10_2 1_555 1_555
C20_3 C11_2 1_555 1_555
C21_3 H8_3 1_555 1_555
C22_3 C7_2 1_555 1_555
C23_3 C8_2 1_555 1_555
H6_3 C20_3 1_555 1_555
H7_3 C19_3 1_555 1_555
H9_3 C23_3 1_555 1_555
H10_3 C22_3 1_555 1_555
C12_2 C20_3 1_555 1_555
C9_2 C23_3 1_555 1_555
C14 C2_4 1_555 1_555
C2_4 H1_4 1_555 1_555
C13 C2_4 1_555 1_555
C15 C16_4 1_555 1_555
C5 C24_4 1_555 1_555
C1 C24_4 1_555 1_555
C6 C25_4 1_555 1_555
C16_4 C13 1_555 1_555
C17_4 C14 1_555 1_555
C24_4 H11_4 1_555 1_555
C25_4 C1 1_555 1_555
C26_4 C5 1_555 1_555
H3_4 C17_4 1_555 1_555
H4_4 C16_4 1_555 1_555
H12_4 C26_4 1_555 1_555
H13_4 C25_4 1_555 1_555
C15 C17_4 1_555 1_555
C6 C26_4 1_555 1_555
C14_2 C18_4 1_555 1_555
C13_2 C18_4 1_555 1_555
C15_2 C19_4 1_555 1_555
C5_2 C21_4 1_555 1_555
C1_2 C21_4 1_555 1_555
C6_2 C22_4 1_555 1_555
C18_4 H5_4 1_555 1_555
C19_4 C13_2 1_555 1_555
C20_4 C14_2 1_555 1_555
C21_4 H8_4 1_555 1_555
C22_4 C1_2 1_555 1_555
C23_4 C5_2 1_555 1_555
H6_4 C20_4 1_555 1_555
H7_4 C19_4 1_555 1_555
H9_4 C23_4 1_555 1_555
H10_4 C22_4 1_555 1_555
C15_2 C20_4 1_555 1_555
C6_2 C23_4 1_555 1_555

#END
