
###############################################################################
#
# This file contains modified crystal structure data generated from the
# MOF subset of the Cambridge Structural Database (CSD) v543 
# hosted by the Cambridge Crystallographic Data Centre (CCDC).
#
# This work is licensed under the Creative Commons
# Attribution-NonCommercial-ShareAlike 4.0 International License.
# To view a copy of this license, visit
# http://creativecommons.org/licenses/by-nc-sa/4.0/
# or send a letter to
# Creative Commons, PO Box 1866, Mountain View, CA 94042, USA.
#
# CIF created using the CSD Python API on 29 September 2022
# The structure has been converted into the P1 space group
# The structure has a 3D framework
# The original CSD entry UTEWUM is in the cubic crystal system
# The framework has been calculated to contain at least 10.0% void space
# The void calculation uses a probe of radius 1.32A, grid spacing 0.4
#
###############################################################################

data_UTEWUM
_chemical_formula_moiety         '(C144 H96 Cu13 N48)n'
_symmetry_cell_setting           triclinic
_symmetry_space_group_name_H-M   'P 1'
_symmetry_Int_Tables_number      1
_space_group_name_Hall           'P 1'
loop_
_symmetry_equiv_pos_site_id
_symmetry_equiv_pos_as_xyz
1 x,y,z
_cell_length_a                   18.80701(76)
_cell_length_b                   18.80701(76)
_cell_length_c                   18.80701(76)
_cell_angle_alpha                90
_cell_angle_beta                 90
_cell_angle_gamma                90
_cell_volume                     6652.11
loop_
_atom_site_label
_atom_site_type_symbol
_atom_site_fract_x
_atom_site_fract_y
_atom_site_fract_z
Cu16 Cu 0.38671(25) 0.50000 0.00000
Cu17 Cu 0.50000 0.38671(25) 0.00000
Cu1 Cu -0.00000 0.38671(25) 0.50000
C1 C 0.223330 0.312540 0.312540
C2 C 0.249460 0.248810 0.339330
H1 H 0.231600 0.230500 0.382890
C3 C 0.168810 0.351090 0.351090
C4 C 0.138760 0.330980 0.413710
H2 H 0.149790 0.289200 0.439880
N1 N 0.090130 0.381170 0.432300
Cu2 Cu -0.00000 0.50000 0.38671(25)
Cu3 Cu 0.50000 0.00000 0.38671(25)
Cu4 Cu 0.38671(25) 0.00000 0.50000
Cu7 Cu 0.00000 0.50000 0.61329(25)
Cu15 Cu 0.50000 0.00000 0.61329(25)
Cu16_2 Cu 0.38671(25) 0.50000 1.00000
Cu17_2 Cu 0.50000 0.38671(25) 1.00000
C5 C 0.312540 0.223330 0.312540
C6 C 0.312540 0.312540 0.223330
C13 C 0.223330 0.312540 0.687460
C14 C 0.312540 0.223330 0.687460
C15 C 0.312540 0.312540 0.776670
C16 C 0.339330 0.249460 0.248810
C17 C 0.248810 0.339330 0.249460
C24 C 0.249460 0.248810 0.660670
C25 C 0.339330 0.249460 0.751190
C26 C 0.248810 0.339330 0.750540
H3 H 0.230500 0.382890 0.231600
H4 H 0.382890 0.231600 0.230500
H11 H 0.231600 0.230500 0.617110
H12 H 0.230500 0.382890 0.768400
H13 H 0.382890 0.231600 0.769500
C27 C 0.351090 0.168810 0.351090
C28 C 0.351090 0.351090 0.168810
C35 C 0.168810 0.351090 0.648910
C36 C 0.351090 0.168810 0.648910
C37 C 0.351090 0.351090 0.831190
C38 C 0.138760 0.413710 0.330980
C39 C 0.413710 0.138760 0.330980
C40 C 0.330980 0.138760 0.413710
C41 C 0.330980 0.413710 0.138760
C42 C 0.413710 0.330980 0.138760
C55 C 0.138760 0.330980 0.586290
C56 C 0.138760 0.413710 0.669020
C57 C 0.413710 0.138760 0.669020
C58 C 0.330980 0.138760 0.586290
C59 C 0.330980 0.413710 0.861240
C60 C 0.413710 0.330980 0.861240
H14 H 0.149790 0.439880 0.289200
H15 H 0.289200 0.149790 0.439880
H16 H 0.439880 0.149790 0.289200
H17 H 0.439880 0.289200 0.149790
H18 H 0.289200 0.439880 0.149790
H31 H 0.149790 0.289200 0.560120
H32 H 0.149790 0.439880 0.710800
H33 H 0.289200 0.149790 0.560120
H34 H 0.439880 0.149790 0.710800
H35 H 0.439880 0.289200 0.850210
H36 H 0.289200 0.439880 0.850210
N2 N 0.090130 0.432300 0.381170
N3 N 0.432300 0.090130 0.381170
N4 N 0.381170 0.090130 0.432300
N5 N 0.381170 0.432300 0.090130
N6 N 0.432300 0.381170 0.090130
N19 N 0.090130 0.381170 0.567700
N20 N 0.090130 0.432300 0.618830
N21 N 0.432300 0.090130 0.618830
N22 N 0.381170 0.090130 0.567700
N23 N 0.381170 0.432300 0.909870
N24 N 0.432300 0.381170 0.909870
N26 N 0.090130 0.567700 0.381170
N29 N 0.567700 0.090130 0.381170
N34 N 0.381170 0.567700 0.090130
N37 N 0.567700 0.381170 0.090130
N32 N 0.381170 0.567700 0.909870
N35 N 0.567700 0.381170 0.909870
Cu3_2 Cu 0.50000 1.00000 0.38671(25)
Cu4_2 Cu 0.38671(25) 1.00000 0.50000
Cu15_2 Cu 0.50000 1.00000 0.61329(25)
N27 N 0.567700 0.909870 0.381170
N28 N 0.432300 0.909870 0.381170
N30 N 0.381170 0.909870 0.567700
N31 N 0.381170 0.909870 0.432300
Cu10 Cu 0.61329(25) 0.50000 0.00000
Cu1_2 Cu 1.00000 0.38671(25) 0.50000
Cu2_2 Cu 1.00000 0.50000 0.38671(25)
Cu7_2 Cu 1.00000 0.50000 0.61329(25)
Cu9 Cu 0.61329(25) 0.00000 0.50000
Cu10_2 Cu 0.61329(25) 0.50000 1.00000
C7 C 0.776670 0.312540 0.687460
C8 C 0.687460 0.223330 0.687460
C9 C 0.687460 0.312540 0.776670
C10 C 0.776670 0.312540 0.312540
C11 C 0.687460 0.223330 0.312540
C12 C 0.687460 0.312540 0.223330
C18 C 0.750540 0.248810 0.660670
C19 C 0.660670 0.249460 0.751190
C20 C 0.751190 0.339330 0.750540
C21 C 0.750540 0.248810 0.339330
C22 C 0.660670 0.249460 0.248810
C23 C 0.751190 0.339330 0.249460
H5 H 0.768400 0.230500 0.617110
H6 H 0.769500 0.382890 0.768400
H7 H 0.617110 0.231600 0.769500
H8 H 0.768400 0.230500 0.382890
H9 H 0.769500 0.382890 0.231600
H10 H 0.617110 0.231600 0.230500
C29 C 0.831190 0.351090 0.648910
C30 C 0.648910 0.168810 0.648910
C31 C 0.648910 0.351090 0.831190
C32 C 0.831190 0.351090 0.351090
C33 C 0.648910 0.168810 0.351090
C34 C 0.648910 0.351090 0.168810
C43 C 0.861240 0.330980 0.586290
C44 C 0.861240 0.413710 0.669020
C45 C 0.586290 0.138760 0.669020
C46 C 0.669020 0.138760 0.586290
C47 C 0.669020 0.413710 0.861240
C48 C 0.586290 0.330980 0.861240
C49 C 0.861240 0.330980 0.413710
C50 C 0.861240 0.413710 0.330980
C51 C 0.586290 0.138760 0.330980
C52 C 0.669020 0.138760 0.413710
C53 C 0.669020 0.413710 0.138760
C54 C 0.586290 0.330980 0.138760
H19 H 0.850210 0.289200 0.560120
H20 H 0.850210 0.439880 0.710800
H21 H 0.710800 0.149790 0.560120
H22 H 0.560120 0.149790 0.710800
H23 H 0.560120 0.289200 0.850210
H24 H 0.710800 0.439880 0.850210
H25 H 0.850210 0.289200 0.439880
H26 H 0.850210 0.439880 0.289200
H27 H 0.710800 0.149790 0.439880
H28 H 0.560120 0.149790 0.289200
H29 H 0.560120 0.289200 0.149790
H30 H 0.710800 0.439880 0.149790
N7 N 0.909870 0.381170 0.567700
N8 N 0.909870 0.432300 0.618830
N9 N 0.567700 0.090130 0.618830
N10 N 0.618830 0.090130 0.567700
N11 N 0.618830 0.432300 0.909870
N13 N 0.909870 0.381170 0.432300
N14 N 0.909870 0.432300 0.381170
N16 N 0.618830 0.090130 0.432300
N17 N 0.618830 0.432300 0.090130
N25 N 0.909870 0.567700 0.381170
Cu9_2 Cu 0.61329(25) 1.00000 0.50000
Cu9_3 Cu 0.00000 0.61329(25) 0.50000
C2_2 C 0.751190 0.249460 0.339330
H1_2 H 0.769500 0.231600 0.382890
C16_2 C 0.750540 0.339330 0.248810
C17_2 C 0.660670 0.248810 0.249460
C24_2 C 0.751190 0.249460 0.660670
C25_2 C 0.750540 0.339330 0.751190
C26_2 C 0.660670 0.248810 0.750540
H3_2 H 0.617110 0.230500 0.231600
H4_2 H 0.768400 0.382890 0.230500
H11_2 H 0.769500 0.231600 0.617110
H12_2 H 0.617110 0.230500 0.768400
H13_2 H 0.768400 0.382890 0.769500
N37_2 N 0.618830 0.567700 0.090130
N35_2 N 0.618830 0.567700 0.909870
Cu10_3 Cu 0.50000 0.61329(25) 0.00000
Cu9_4 Cu 1.00000 0.61329(25) 0.50000
Cu10_4 Cu 0.50000 0.61329(25) 1.00000
C7_2 C 0.687460 0.776670 0.687460
C8_2 C 0.776670 0.687460 0.687460
C9_2 C 0.687460 0.687460 0.776670
C10_2 C 0.687460 0.776670 0.312540
C11_2 C 0.776670 0.687460 0.312540
C12_2 C 0.687460 0.687460 0.223330
C18_2 C 0.751190 0.750540 0.660670
C19_2 C 0.750540 0.660670 0.751190
C20_2 C 0.660670 0.751190 0.750540
C21_2 C 0.751190 0.750540 0.339330
C22_2 C 0.750540 0.660670 0.248810
C23_2 C 0.660670 0.751190 0.249460
H5_2 H 0.769500 0.768400 0.617110
H6_2 H 0.617110 0.769500 0.768400
H7_2 H 0.768400 0.617110 0.769500
H8_2 H 0.769500 0.768400 0.382890
H9_2 H 0.617110 0.769500 0.231600
H10_2 H 0.768400 0.617110 0.230500
C29_2 C 0.648910 0.831190 0.648910
C30_2 C 0.831190 0.648910 0.648910
C31_2 C 0.648910 0.648910 0.831190
C32_2 C 0.648910 0.831190 0.351090
C33_2 C 0.831190 0.648910 0.351090
C34_2 C 0.648910 0.648910 0.168810
C43_2 C 0.669020 0.861240 0.586290
C44_2 C 0.586290 0.861240 0.669020
C45_2 C 0.861240 0.586290 0.669020
C46_2 C 0.861240 0.669020 0.586290
C47_2 C 0.586290 0.669020 0.861240
C48_2 C 0.669020 0.586290 0.861240
C49_2 C 0.669020 0.861240 0.413710
C50_2 C 0.586290 0.861240 0.330980
C51_2 C 0.861240 0.586290 0.330980
C52_2 C 0.861240 0.669020 0.413710
C53_2 C 0.586290 0.669020 0.138760
C54_2 C 0.669020 0.586290 0.138760
H19_2 H 0.710800 0.850210 0.560120
H20_2 H 0.560120 0.850210 0.710800
H21_2 H 0.850210 0.710800 0.560120
H22_2 H 0.850210 0.560120 0.710800
H23_2 H 0.710800 0.560120 0.850210
H24_2 H 0.560120 0.710800 0.850210
H25_2 H 0.710800 0.850210 0.439880
H26_2 H 0.560120 0.850210 0.289200
H27_2 H 0.850210 0.710800 0.439880
H28_2 H 0.850210 0.560120 0.289200
H29_2 H 0.710800 0.560120 0.149790
H30_2 H 0.560120 0.710800 0.149790
N7_2 N 0.618830 0.909870 0.567700
N8_2 N 0.567700 0.909870 0.618830
N9_2 N 0.909870 0.567700 0.618830
N10_2 N 0.909870 0.618830 0.567700
N11_2 N 0.567700 0.618830 0.909870
N13_2 N 0.618830 0.909870 0.432300
N16_2 N 0.909870 0.618830 0.432300
N17_2 N 0.567700 0.618830 0.090130
N36 N 0.432300 0.618830 0.090130
C1_2 C 0.223330 0.687460 0.687460
C2_3 C 0.249460 0.751190 0.660670
H1_3 H 0.231600 0.769500 0.617110
C3_2 C 0.168810 0.648910 0.648910
C4_2 C 0.138760 0.669020 0.586290
H2_2 H 0.149790 0.710800 0.560120
N1_2 N 0.090130 0.618830 0.567700
C5_2 C 0.312540 0.776670 0.687460
C6_2 C 0.312540 0.687460 0.776670
C13_2 C 0.223330 0.687460 0.312540
C14_2 C 0.312540 0.776670 0.312540
C15_2 C 0.312540 0.687460 0.223330
C16_3 C 0.339330 0.750540 0.751190
C17_3 C 0.248810 0.660670 0.750540
C24_3 C 0.249460 0.751190 0.339330
C25_3 C 0.339330 0.750540 0.248810
C26_3 C 0.248810 0.660670 0.249460
H3_3 H 0.230500 0.617110 0.768400
H4_3 H 0.382890 0.768400 0.769500
H11_3 H 0.231600 0.769500 0.382890
H12_3 H 0.230500 0.617110 0.231600
H13_3 H 0.382890 0.768400 0.230500
C27_2 C 0.351090 0.831190 0.648910
C28_2 C 0.351090 0.648910 0.831190
C35_2 C 0.168810 0.648910 0.351090
C36_2 C 0.351090 0.831190 0.351090
C37_2 C 0.351090 0.648910 0.168810
C38_2 C 0.138760 0.586290 0.669020
C39_2 C 0.413710 0.861240 0.669020
C40_2 C 0.330980 0.861240 0.586290
C41_2 C 0.330980 0.586290 0.861240
C42_2 C 0.413710 0.669020 0.861240
C55_2 C 0.138760 0.669020 0.413710
C56_2 C 0.138760 0.586290 0.330980
C57_2 C 0.413710 0.861240 0.330980
C58_2 C 0.330980 0.861240 0.413710
C59_2 C 0.330980 0.586290 0.138760
C60_2 C 0.413710 0.669020 0.138760
H14_2 H 0.149790 0.560120 0.710800
H15_2 H 0.289200 0.850210 0.560120
H16_2 H 0.439880 0.850210 0.710800
H17_2 H 0.439880 0.710800 0.850210
H18_2 H 0.289200 0.560120 0.850210
H31_2 H 0.149790 0.710800 0.439880
H32_2 H 0.149790 0.560120 0.289200
H33_2 H 0.289200 0.850210 0.439880
H34_2 H 0.439880 0.850210 0.289200
H35_2 H 0.439880 0.710800 0.149790
H36_2 H 0.289200 0.560120 0.149790
N2_2 N 0.090130 0.567700 0.618830
N3_2 N 0.432300 0.909870 0.618830
N6_2 N 0.432300 0.618830 0.909870
N19_2 N 0.090130 0.618830 0.432300
C18_3 C 0.750540 0.751190 0.339330
C19_3 C 0.660670 0.750540 0.248810
C20_3 C 0.751190 0.660670 0.249460
C21_3 C 0.750540 0.751190 0.660670
C22_3 C 0.660670 0.750540 0.751190
C23_3 C 0.751190 0.660670 0.750540
H5_3 H 0.768400 0.769500 0.382890
H6_3 H 0.769500 0.617110 0.231600
H7_3 H 0.617110 0.768400 0.230500
H8_3 H 0.768400 0.769500 0.617110
H9_3 H 0.769500 0.617110 0.768400
H10_3 H 0.617110 0.768400 0.769500
C2_4 C 0.248810 0.249460 0.660670
H1_4 H 0.230500 0.231600 0.617110
C16_4 C 0.249460 0.339330 0.751190
C17_4 C 0.339330 0.248810 0.750540
C24_4 C 0.248810 0.249460 0.339330
C25_4 C 0.249460 0.339330 0.248810
C26_4 C 0.339330 0.248810 0.249460
H3_4 H 0.382890 0.230500 0.768400
H4_4 H 0.231600 0.382890 0.769500
H11_4 H 0.230500 0.231600 0.382890
H12_4 H 0.382890 0.230500 0.231600
H13_4 H 0.231600 0.382890 0.230500
C18_4 C 0.248810 0.750540 0.339330
C19_4 C 0.249460 0.660670 0.248810
C20_4 C 0.339330 0.751190 0.249460
C21_4 C 0.248810 0.750540 0.660670
C22_4 C 0.249460 0.660670 0.751190
C23_4 C 0.339330 0.751190 0.750540
H5_4 H 0.230500 0.768400 0.382890
H6_4 H 0.382890 0.769500 0.231600
H7_4 H 0.231600 0.617110 0.230500
H8_4 H 0.230500 0.768400 0.617110
H9_4 H 0.382890 0.769500 0.768400
H10_4 H 0.231600 0.617110 0.769500
loop_
_geom_bond_atom_site_label_1
_geom_bond_atom_site_label_2
_geom_bond_site_symmetry_1
_geom_bond_site_symmetry_2
Cu1 N1 1_555 1_555
C1 C2 1_555 1_555
C2 H1 1_555 1_555
C3 C1 1_555 1_555
C4 C3 1_555 1_555
H2 C4 1_555 1_555
N1 C4 1_555 1_555
Cu2 N2 1_555 1_555
Cu3 N3 1_555 1_555
Cu4 N4 1_555 1_555
Cu16 N5 1_555 1_555
Cu17 N6 1_555 1_555
Cu15 N21 1_555 1_555
Cu16_2 N23 1_555 1_555
Cu17_2 N24 1_555 1_555
C5 C2 1_555 1_555
C6 C16 1_555 1_555
C13 C24 1_555 1_555
C14 C24 1_555 1_555
C15 C25 1_555 1_555
C16 C5 1_555 1_555
C17 C1 1_555 1_555
C24 H11 1_555 1_555
C25 C14 1_555 1_555
C26 C13 1_555 1_555
H3 C17 1_555 1_555
H4 C16 1_555 1_555
H12 C26 1_555 1_555
H13 C25 1_555 1_555
C27 C5 1_555 1_555
C28 C6 1_555 1_555
C35 C13 1_555 1_555
C36 C14 1_555 1_555
C37 C15 1_555 1_555
C38 C3 1_555 1_555
C39 C27 1_555 1_555
C40 C27 1_555 1_555
C41 C28 1_555 1_555
C42 C28 1_555 1_555
C55 C35 1_555 1_555
C56 C35 1_555 1_555
C57 C36 1_555 1_555
C58 C36 1_555 1_555
C59 C37 1_555 1_555
C60 C37 1_555 1_555
H14 C38 1_555 1_555
H15 C40 1_555 1_555
H16 C39 1_555 1_555
H17 C42 1_555 1_555
H18 C41 1_555 1_555
H31 C55 1_555 1_555
H32 C56 1_555 1_555
H33 C58 1_555 1_555
H34 C57 1_555 1_555
H35 C60 1_555 1_555
H36 C59 1_555 1_555
N2 N1 1_555 1_555
N3 C39 1_555 1_555
N4 C40 1_555 1_555
N5 C41 1_555 1_555
N6 C42 1_555 1_555
N19 Cu1 1_555 1_555
N20 Cu7 1_555 1_555
N21 C57 1_555 1_555
N22 Cu4 1_555 1_555
N23 C59 1_555 1_555
N24 C60 1_555 1_555
N26 Cu2 1_555 1_555
N29 Cu3 1_555 1_555
N34 Cu16 1_555 1_555
N37 Cu17 1_555 1_555
C6 C17 1_555 1_555
C15 C26 1_555 1_555
C38 N2 1_555 1_555
C55 N19 1_555 1_555
C56 N20 1_555 1_555
C58 N22 1_555 1_555
N3 N4 1_555 1_555
N5 N6 1_555 1_555
N19 N20 1_555 1_555
N21 N22 1_555 1_555
N23 N24 1_555 1_555
N32 Cu16_2 1_555 1_555
N35 Cu17_2 1_555 1_555
N27 Cu3_2 1_555 1_555
N28 Cu3_2 1_555 1_555
N30 Cu4_2 1_555 1_555
N31 Cu4_2 1_555 1_555
N28 N31 1_555 1_555
Cu7_2 N8 1_555 1_555
Cu15 N9 1_555 1_555
Cu9 N10 1_555 1_555
Cu10_2 N11 1_555 1_555
Cu10 N17 1_555 1_555
C7 C18 1_555 1_555
C8 C18 1_555 1_555
C9 C19 1_555 1_555
C10 C21 1_555 1_555
C11 C21 1_555 1_555
C12 C22 1_555 1_555
C18 H5 1_555 1_555
C19 C8 1_555 1_555
C20 C7 1_555 1_555
C21 H8 1_555 1_555
C22 C11 1_555 1_555
C23 C10 1_555 1_555
H6 C20 1_555 1_555
H7 C19 1_555 1_555
H9 C23 1_555 1_555
H10 C22 1_555 1_555
C29 C7 1_555 1_555
C30 C8 1_555 1_555
C31 C9 1_555 1_555
C32 C10 1_555 1_555
C33 C11 1_555 1_555
C34 C12 1_555 1_555
C43 C29 1_555 1_555
C44 C29 1_555 1_555
C45 C30 1_555 1_555
C46 C30 1_555 1_555
C47 C31 1_555 1_555
C48 C31 1_555 1_555
C49 C32 1_555 1_555
C50 C32 1_555 1_555
C51 C33 1_555 1_555
C52 C33 1_555 1_555
C53 C34 1_555 1_555
C54 C34 1_555 1_555
H19 C43 1_555 1_555
H20 C44 1_555 1_555
H21 C46 1_555 1_555
H22 C45 1_555 1_555
H23 C48 1_555 1_555
H24 C47 1_555 1_555
H25 C49 1_555 1_555
H26 C50 1_555 1_555
H27 C52 1_555 1_555
H28 C51 1_555 1_555
H29 C54 1_555 1_555
H30 C53 1_555 1_555
N7 Cu1_2 1_555 1_555
N8 C44 1_555 1_555
N9 C45 1_555 1_555
N10 C46 1_555 1_555
N11 C47 1_555 1_555
N35 C48 1_555 1_555
N13 Cu1_2 1_555 1_555
N14 Cu2_2 1_555 1_555
N29 C51 1_555 1_555
N16 Cu9 1_555 1_555
N17 C53 1_555 1_555
N37 C54 1_555 1_555
N25 Cu2_2 1_555 1_555
C9 C20 1_555 1_555
C12 C23 1_555 1_555
C43 N7 1_555 1_555
C49 N13 1_555 1_555
C50 N14 1_555 1_555
C52 N16 1_555 1_555
N7 N8 1_555 1_555
N9 N10 1_555 1_555
N11 N35 1_555 1_555
N13 N14 1_555 1_555
N29 N16 1_555 1_555
N17 N37 1_555 1_555
C11 C2_2 1_555 1_555
C2_2 H1_2 1_555 1_555
C10 C2_2 1_555 1_555
C12 C16_2 1_555 1_555
C8 C24_2 1_555 1_555
C7 C24_2 1_555 1_555
C9 C25_2 1_555 1_555
C16_2 C10 1_555 1_555
C17_2 C11 1_555 1_555
C24_2 H11_2 1_555 1_555
C25_2 C7 1_555 1_555
C26_2 C8 1_555 1_555
H3_2 C17_2 1_555 1_555
H4_2 C16_2 1_555 1_555
H12_2 C26_2 1_555 1_555
H13_2 C25_2 1_555 1_555
N37_2 Cu10 1_555 1_555
C12 C17_2 1_555 1_555
C9 C26_2 1_555 1_555
N35_2 Cu10_2 1_555 1_555
Cu15_2 N8_2 1_555 1_555
Cu7_2 N9_2 1_555 1_555
Cu9_4 N10_2 1_555 1_555
Cu10_4 N11_2 1_555 1_555
Cu10_3 N17_2 1_555 1_555
C7_2 C18_2 1_555 1_555
C8_2 C18_2 1_555 1_555
C9_2 C19_2 1_555 1_555
C10_2 C21_2 1_555 1_555
C11_2 C21_2 1_555 1_555
C12_2 C22_2 1_555 1_555
C18_2 H5_2 1_555 1_555
C19_2 C8_2 1_555 1_555
C20_2 C7_2 1_555 1_555
C21_2 H8_2 1_555 1_555
C22_2 C11_2 1_555 1_555
C23_2 C10_2 1_555 1_555
H6_2 C20_2 1_555 1_555
H7_2 C19_2 1_555 1_555
H9_2 C23_2 1_555 1_555
H10_2 C22_2 1_555 1_555
C29_2 C7_2 1_555 1_555
C30_2 C8_2 1_555 1_555
C31_2 C9_2 1_555 1_555
C32_2 C10_2 1_555 1_555
C33_2 C11_2 1_555 1_555
C34_2 C12_2 1_555 1_555
C43_2 C29_2 1_555 1_555
C44_2 C29_2 1_555 1_555
C45_2 C30_2 1_555 1_555
C46_2 C30_2 1_555 1_555
C47_2 C31_2 1_555 1_555
C48_2 C31_2 1_555 1_555
C49_2 C32_2 1_555 1_555
C50_2 C32_2 1_555 1_555
C51_2 C33_2 1_555 1_555
C52_2 C33_2 1_555 1_555
C53_2 C34_2 1_555 1_555
C54_2 C34_2 1_555 1_555
H19_2 C43_2 1_555 1_555
H20_2 C44_2 1_555 1_555
H21_2 C46_2 1_555 1_555
H22_2 C45_2 1_555 1_555
H23_2 C48_2 1_555 1_555
H24_2 C47_2 1_555 1_555
H25_2 C49_2 1_555 1_555
H26_2 C50_2 1_555 1_555
H27_2 C52_2 1_555 1_555
H28_2 C51_2 1_555 1_555
H29_2 C54_2 1_555 1_555
H30_2 C53_2 1_555 1_555
N7_2 Cu9_2 1_555 1_555
N8_2 C44_2 1_555 1_555
N9_2 C45_2 1_555 1_555
N10_2 C46_2 1_555 1_555
N11_2 C47_2 1_555 1_555
N35_2 C48_2 1_555 1_555
N13_2 Cu9_2 1_555 1_555
N25 C51_2 1_555 1_555
N16_2 Cu9_4 1_555 1_555
N17_2 C53_2 1_555 1_555
N37_2 C54_2 1_555 1_555
C9_2 C20_2 1_555 1_555
C12_2 C23_2 1_555 1_555
C43_2 N7_2 1_555 1_555
C49_2 N13_2 1_555 1_555
C50_2 N27 1_555 1_555
C52_2 N16_2 1_555 1_555
N7_2 N8_2 1_555 1_555
N9_2 N10_2 1_555 1_555
N11_2 N35_2 1_555 1_555
N13_2 N27 1_555 1_555
N25 N16_2 1_555 1_555
N17_2 N37_2 1_555 1_555
N36 Cu10_3 1_555 1_555
N34 N36 1_555 1_555
Cu9_3 N1_2 1_555 1_555
C1_2 C2_3 1_555 1_555
C2_3 H1_3 1_555 1_555
C3_2 C1_2 1_555 1_555
C4_2 C3_2 1_555 1_555
H2_2 C4_2 1_555 1_555
N1_2 C4_2 1_555 1_555
Cu7 N2_2 1_555 1_555
Cu15_2 N3_2 1_555 1_555
Cu10_4 N6_2 1_555 1_555
C5_2 C2_3 1_555 1_555
C6_2 C16_3 1_555 1_555
C13_2 C24_3 1_555 1_555
C14_2 C24_3 1_555 1_555
C15_2 C25_3 1_555 1_555
C16_3 C5_2 1_555 1_555
C17_3 C1_2 1_555 1_555
C24_3 H11_3 1_555 1_555
C25_3 C14_2 1_555 1_555
C26_3 C13_2 1_555 1_555
H3_3 C17_3 1_555 1_555
H4_3 C16_3 1_555 1_555
H12_3 C26_3 1_555 1_555
H13_3 C25_3 1_555 1_555
C27_2 C5_2 1_555 1_555
C28_2 C6_2 1_555 1_555
C35_2 C13_2 1_555 1_555
C36_2 C14_2 1_555 1_555
C37_2 C15_2 1_555 1_555
C38_2 C3_2 1_555 1_555
C39_2 C27_2 1_555 1_555
C40_2 C27_2 1_555 1_555
C41_2 C28_2 1_555 1_555
C42_2 C28_2 1_555 1_555
C55_2 C35_2 1_555 1_555
C56_2 C35_2 1_555 1_555
C57_2 C36_2 1_555 1_555
C58_2 C36_2 1_555 1_555
C59_2 C37_2 1_555 1_555
C60_2 C37_2 1_555 1_555
H14_2 C38_2 1_555 1_555
H15_2 C40_2 1_555 1_555
H16_2 C39_2 1_555 1_555
H17_2 C42_2 1_555 1_555
H18_2 C41_2 1_555 1_555
H31_2 C55_2 1_555 1_555
H32_2 C56_2 1_555 1_555
H33_2 C58_2 1_555 1_555
H34_2 C57_2 1_555 1_555
H35_2 C60_2 1_555 1_555
H36_2 C59_2 1_555 1_555
N2_2 N1_2 1_555 1_555
N3_2 C39_2 1_555 1_555
N30 C40_2 1_555 1_555
N32 C41_2 1_555 1_555
N6_2 C42_2 1_555 1_555
N19_2 Cu9_3 1_555 1_555
N28 C57_2 1_555 1_555
N34 C59_2 1_555 1_555
N36 C60_2 1_555 1_555
C6_2 C17_3 1_555 1_555
C15_2 C26_3 1_555 1_555
C38_2 N2_2 1_555 1_555
C55_2 N19_2 1_555 1_555
C56_2 N26 1_555 1_555
C58_2 N31 1_555 1_555
N3_2 N30 1_555 1_555
N32 N6_2 1_555 1_555
N19_2 N26 1_555 1_555
C11_2 C18_3 1_555 1_555
C10_2 C18_3 1_555 1_555
C12_2 C19_3 1_555 1_555
C8_2 C21_3 1_555 1_555
C7_2 C21_3 1_555 1_555
C9_2 C22_3 1_555 1_555
C18_3 H5_3 1_555 1_555
C19_3 C10_2 1_555 1_555
C20_3 C11_2 1_555 1_555
C21_3 H8_3 1_555 1_555
C22_3 C7_2 1_555 1_555
C23_3 C8_2 1_555 1_555
H6_3 C20_3 1_555 1_555
H7_3 C19_3 1_555 1_555
H9_3 C23_3 1_555 1_555
H10_3 C22_3 1_555 1_555
C12_2 C20_3 1_555 1_555
C9_2 C23_3 1_555 1_555
C14 C2_4 1_555 1_555
C2_4 H1_4 1_555 1_555
C13 C2_4 1_555 1_555
C15 C16_4 1_555 1_555
C5 C24_4 1_555 1_555
C1 C24_4 1_555 1_555
C6 C25_4 1_555 1_555
C16_4 C13 1_555 1_555
C17_4 C14 1_555 1_555
C24_4 H11_4 1_555 1_555
C25_4 C1 1_555 1_555
C26_4 C5 1_555 1_555
H3_4 C17_4 1_555 1_555
H4_4 C16_4 1_555 1_555
H12_4 C26_4 1_555 1_555
H13_4 C25_4 1_555 1_555
C15 C17_4 1_555 1_555
C6 C26_4 1_555 1_555
C14_2 C18_4 1_555 1_555
C13_2 C18_4 1_555 1_555
C15_2 C19_4 1_555 1_555
C5_2 C21_4 1_555 1_555
C1_2 C21_4 1_555 1_555
C6_2 C22_4 1_555 1_555
C18_4 H5_4 1_555 1_555
C19_4 C13_2 1_555 1_555
C20_4 C14_2 1_555 1_555
C21_4 H8_4 1_555 1_555
C22_4 C1_2 1_555 1_555
C23_4 C5_2 1_555 1_555
H6_4 C20_4 1_555 1_555
H7_4 C19_4 1_555 1_555
H9_4 C23_4 1_555 1_555
H10_4 C22_4 1_555 1_555
C15_2 C20_4 1_555 1_555
C6_2 C23_4 1_555 1_555

#END
