
###############################################################################
#
# This file contains modified crystal structure data generated from the
# MOF subset of the Cambridge Structural Database (CSD) v543 
# hosted by the Cambridge Crystallographic Data Centre (CCDC).
#
# This work is licensed under the Creative Commons
# Attribution-NonCommercial-ShareAlike 4.0 International License.
# To view a copy of this license, visit
# http://creativecommons.org/licenses/by-nc-sa/4.0/
# or send a letter to
# Creative Commons, PO Box 1866, Mountain View, CA 94042, USA.
#
# CIF created using the CSD Python API on 29 September 2022
# The structure has been converted into the P1 space group
# The structure has a 3D framework
# The original CSD entry UTEXIB is in the tetragonal crystal system
# The framework has been calculated to contain at least 10.0% void space
# The void calculation uses a probe of radius 1.32A, grid spacing 0.4
#
###############################################################################

data_UTEXIB
_chemical_formula_moiety         '(C120 H72 Co4 N48)n'
_symmetry_cell_setting           triclinic
_symmetry_space_group_name_H-M   'P 1'
_symmetry_Int_Tables_number      1
_space_group_name_Hall           'P 1'
loop_
_symmetry_equiv_pos_site_id
_symmetry_equiv_pos_as_xyz
1 x,y,z
_cell_length_a                   15.4625(13)
_cell_length_b                   15.4625(13)
_cell_length_c                   20.0474(22)
_cell_angle_alpha                90
_cell_angle_beta                 90
_cell_angle_gamma                90
_cell_volume                     4793.11
loop_
_atom_site_label
_atom_site_type_symbol
_atom_site_fract_x
_atom_site_fract_y
_atom_site_fract_z
N13 N 0.004050 0.066050 0.926630
C1 C 0.059460 0.059410 0.75191
C2 C 0.008840 0.118910 0.717610
C3 C 0.018310 0.128430 0.649050
C4 C 0.078400 0.078460 0.614800
H2 H 0.084880 0.084970 0.567940
C5 C 0.049580 0.049470 0.823430
H4 H 0.053420 0.279400 0.576820
C10 C 0.118910 0.008840 0.717610
C11 C 0.128430 0.018310 0.649050
N4 N 0.066050 0.004050 0.926630
H8 H 0.279400 0.053420 0.576820
H6 H 0.032230 0.846930 0.258980
C12 C 0.006460 0.905980 0.137170
H7 H 0.046010 0.862880 0.151670
C13 C 0.034500 0.809500 0.386740
C14 C 0.005220 0.738350 0.419620
N5 N 0.074630 0.697090 0.446520
C15 C 0.121990 0.812200 0.393310
H9 H 0.159250 0.855090 0.375260
N6 N 0.146800 0.742730 0.430250
Co4 Co 0.08575(47) 0.58575(47) 0.50000
Co6 Co 0.08575(47) 0.91425(47) 0.00000
Co11 Co 0.25000 0.75000 0.50000
Co6_2 Co 0.08575(47) 0.91425(47) 1.00000
Co1 Co 0.91425(47) 0.08575(47) 0.00000
H1 H 0.846930 0.032230 0.258980
C6 C 0.905980 0.006460 0.137170
H3 H 0.862880 0.046010 0.151670
C7 C 0.809500 0.034500 0.386740
C8 C 0.738350 0.005220 0.419620
N2 N 0.697090 0.074630 0.446520
C9 C 0.812200 0.121990 0.393310
H5 H 0.855090 0.159250 0.375260
N3 N 0.742730 0.146800 0.430250
Co2 Co 0.75000 0.25000 0.50000
Co3 Co 0.58575(47) 0.41425(47) 0.00000
C16 C 0.559410 0.559460 0.24809
C17 C 0.618910 0.508840 0.282390
C18 C 0.628430 0.518310 0.350950
C19 C 0.578460 0.578400 0.385200
H10 H 0.653070 0.467770 0.258980
H11 H 0.584970 0.584880 0.432060
C20 C 0.549470 0.549580 0.176570
C21 C 0.594020 0.493540 0.137170
H12 H 0.637120 0.453990 0.151670
N7 N 0.566050 0.504050 0.073370
C22 C 0.690500 0.465500 0.386740
C23 C 0.761650 0.494780 0.419620
H13 H 0.779400 0.553420 0.423180
N8 N 0.802910 0.425370 0.446520
C24 C 0.687800 0.378010 0.393310
H14 H 0.644910 0.340750 0.375260
N9 N 0.757270 0.353200 0.430250
C25 C 0.508840 0.618910 0.282390
C26 C 0.518310 0.628430 0.350950
H15 H 0.467770 0.653070 0.258980
C27 C 0.493540 0.594020 0.137170
H16 H 0.453990 0.637120 0.151670
N10 N 0.504050 0.566050 0.073370
C28 C 0.465500 0.690500 0.386740
C29 C 0.494780 0.761650 0.419620
H17 H 0.553420 0.779400 0.423180
N11 N 0.425370 0.802910 0.446520
C30 C 0.378010 0.687800 0.393310
H18 H 0.340750 0.644910 0.375260
N12 N 0.353200 0.757270 0.430250
Co5 Co 0.41425(47) 0.91425(47) 0.50000
Co7 Co 0.91425(47) 0.41425(47) 0.50000
Co8 Co 0.58575(47) 0.08575(47) 0.50000
Co9 Co 0.41425(47) 0.58575(47) 0.00000
N17 N 0.925370 0.197090 0.053480
N18 N 0.574630 0.302910 0.053480
N19 N 0.853200 0.257270 0.569750
N20 N 0.646800 0.242730 0.569750
Co1_2 Co 0.91425(47) 0.08575(47) 1.00000
Co3_2 Co 0.58575(47) 0.41425(47) 1.00000
Co9_2 Co 0.41425(47) 0.58575(47) 1.00000
N14 N 0.495950 0.433950 0.926630
N15 N 0.697090 0.425370 0.946520
N16 N 0.802910 0.074630 0.946520
C16_2 C 0.440590 0.059460 0.25191
C17_2 C 0.381090 0.008840 0.217610
C18_2 C 0.371570 0.018310 0.149050
C19_2 C 0.421540 0.078400 0.114800
H11_2 H 0.415030 0.084880 0.067940
C20_2 C 0.450530 0.049580 0.323430
N7_2 N 0.433950 0.004050 0.426630
H13_2 H 0.220600 0.053420 0.076820
C25_2 C 0.491160 0.118910 0.217610
C26_2 C 0.481690 0.128430 0.149050
H15_2 H 0.532230 0.153070 0.241020
C27_2 C 0.506460 0.094020 0.362830
H16_2 H 0.546010 0.137120 0.348330
N10_2 N 0.495950 0.066050 0.426630
C28_2 C 0.534500 0.190500 0.113260
C29_2 C 0.505220 0.261650 0.080380
H17_2 H 0.446580 0.279400 0.076820
C30_2 C 0.621990 0.187800 0.106690
H18_2 H 0.659250 0.144910 0.124740
N12_2 N 0.646800 0.257270 0.069750
Co10 Co 0.75000 0.25000 0.00000
Co10_2 Co 0.75000 0.25000 1.00000
C1_2 C 0.059410 0.440540 0.25191
C2_2 C 0.118910 0.491160 0.217610
C3_2 C 0.128430 0.481690 0.149050
C4_2 C 0.078460 0.421600 0.114800
H1_2 H 0.153070 0.532230 0.241020
H2_2 H 0.084970 0.415120 0.067940
C5_2 C 0.049470 0.450420 0.323430
C6_2 C 0.094020 0.506460 0.362830
H3_2 H 0.137120 0.546010 0.348330
N1 N 0.066050 0.495950 0.426630
C7_2 C 0.190500 0.534500 0.113260
C8_2 C 0.261650 0.505220 0.080380
H4_2 H 0.279400 0.446580 0.076820
N2_2 N 0.302910 0.574630 0.053480
C9_2 C 0.187800 0.621990 0.106690
H5_2 H 0.144910 0.659250 0.124740
N3_2 N 0.257270 0.646800 0.069750
Co2_2 Co 0.25000 0.75000 0.00000
C10_2 C 0.008840 0.381090 0.217610
C11_2 C 0.018310 0.371570 0.149050
N4_2 N 0.004050 0.433950 0.426630
H8_2 H 0.053420 0.220600 0.076820
H10_2 H 0.346930 0.967770 0.241020
C21_2 C 0.405980 0.993540 0.362830
H12_2 H 0.362880 0.953990 0.348330
C22_2 C 0.309500 0.965500 0.113260
C23_2 C 0.238350 0.994780 0.080380
N8_2 N 0.197090 0.925370 0.053480
C24_2 C 0.312200 0.878010 0.106690
H14_2 H 0.355090 0.840750 0.124740
N9_2 N 0.242730 0.853200 0.069750
N14_2 N 0.504050 0.933950 0.573370
N15_2 N 0.302910 0.925370 0.553480
N16_2 N 0.197090 0.574630 0.553480
Co2_3 Co 0.25000 0.75000 1.00000
N19_2 N 0.146800 0.757270 0.930250
N20_2 N 0.353200 0.742730 0.930250
H6_2 H 0.967770 0.346930 0.241020
C12_2 C 0.993540 0.405980 0.362830
H7_2 H 0.953990 0.362880 0.348330
C13_2 C 0.965500 0.309500 0.113260
C14_2 C 0.994780 0.238350 0.080380
C15_2 C 0.878010 0.312200 0.106690
H9_2 H 0.840750 0.355090 0.124740
N6_2 N 0.853200 0.242730 0.069750
N13_2 N 0.995950 0.566050 0.573370
H15_3 H 0.653070 0.032230 0.758980
C27_3 C 0.594020 0.006460 0.637170
H16_3 H 0.637120 0.046010 0.651670
C28_3 C 0.690500 0.034500 0.886740
C29_3 C 0.761650 0.005220 0.919620
C30_3 C 0.687800 0.121990 0.893310
H18_3 H 0.644910 0.159250 0.875260
N12_3 N 0.757270 0.146800 0.930250
H1_3 H 0.032230 0.653070 0.758980
C6_3 C 0.006460 0.594020 0.637170
H3_3 H 0.046010 0.637120 0.651670
C7_3 C 0.034500 0.690500 0.886740
C8_3 C 0.005220 0.761650 0.919620
N2_3 N 0.074630 0.802910 0.946520
C9_3 C 0.121990 0.687800 0.893310
H5_3 H 0.159250 0.644910 0.875260
C16_3 C 0.559460 0.940590 0.74809
C17_3 C 0.508840 0.881090 0.782390
C18_3 C 0.518310 0.871570 0.850950
C19_3 C 0.578400 0.921540 0.885200
H10_3 H 0.467770 0.846930 0.758980
H11_3 H 0.584880 0.915030 0.932060
C20_3 C 0.549580 0.950530 0.676570
C21_3 C 0.493540 0.905980 0.637170
H12_3 H 0.453990 0.862880 0.651670
C22_3 C 0.465500 0.809500 0.886740
C23_3 C 0.494780 0.738350 0.919620
H13_3 H 0.553420 0.720600 0.923180
N8_3 N 0.425370 0.697090 0.946520
C24_3 C 0.378010 0.812200 0.893310
H14_3 H 0.340750 0.855090 0.875260
C25_3 C 0.618910 0.991160 0.782390
C26_3 C 0.628430 0.981690 0.850950
N10_3 N 0.566050 0.995950 0.573370
H17_3 H 0.779400 0.946580 0.923180
C1_3 C 0.940540 0.559410 0.74809
C2_3 C 0.991160 0.618910 0.782390
C3_3 C 0.981690 0.628430 0.850950
C4_3 C 0.921600 0.578460 0.885200
H2_3 H 0.915120 0.584970 0.932060
C5_3 C 0.950420 0.549470 0.676570
H4_3 H 0.946580 0.779400 0.923180
C10_3 C 0.881090 0.508840 0.782390
C11_3 C 0.871570 0.518310 0.850950
H6_3 H 0.846930 0.467770 0.758980
C12_3 C 0.905980 0.493540 0.637170
H7_3 H 0.862880 0.453990 0.651670
N4_3 N 0.933950 0.504050 0.573370
C13_3 C 0.809500 0.465500 0.886740
C14_3 C 0.738350 0.494780 0.919620
H8_3 H 0.720600 0.553420 0.923180
C15_3 C 0.812200 0.378010 0.893310
H9_3 H 0.855090 0.340750 0.875260
N6_3 N 0.742730 0.353200 0.930250
H6_4 H 0.153070 0.967770 0.741020
C12_4 C 0.094020 0.993540 0.862830
H7_4 H 0.137120 0.953990 0.848330
C13_4 C 0.190500 0.965500 0.613260
C14_4 C 0.261650 0.994780 0.580380
C15_4 C 0.187800 0.878010 0.606690
H9_4 H 0.144910 0.840750 0.624740
N6_4 N 0.257270 0.853200 0.569750
H1_4 H 0.967770 0.153070 0.741020
C6_4 C 0.993540 0.094020 0.862830
H3_4 H 0.953990 0.137120 0.848330
C7_4 C 0.965500 0.190500 0.613260
C8_4 C 0.994780 0.261650 0.580380
N2_4 N 0.925370 0.302910 0.553480
C9_4 C 0.878010 0.187800 0.606690
H5_4 H 0.840750 0.144910 0.624740
C16_4 C 0.440540 0.440590 0.75191
C17_4 C 0.491160 0.381090 0.717610
C18_4 C 0.481690 0.371570 0.649050
C19_4 C 0.421600 0.421540 0.614800
H10_4 H 0.532230 0.346930 0.741020
H11_4 H 0.415120 0.415030 0.567940
C20_4 C 0.450420 0.450530 0.823430
C21_4 C 0.506460 0.405980 0.862830
H12_4 H 0.546010 0.362880 0.848330
C22_4 C 0.534500 0.309500 0.613260
C23_4 C 0.505220 0.238350 0.580380
H13_4 H 0.446580 0.220600 0.576820
N8_4 N 0.574630 0.197090 0.553480
C24_4 C 0.621990 0.312200 0.606690
H14_4 H 0.659250 0.355090 0.624740
C25_4 C 0.381090 0.491160 0.717610
C26_4 C 0.371570 0.481690 0.649050
H15_4 H 0.346930 0.532230 0.741020
C27_4 C 0.405980 0.506460 0.862830
H16_4 H 0.362880 0.546010 0.848330
N10_4 N 0.433950 0.495950 0.926630
C28_4 C 0.309500 0.534500 0.613260
C29_4 C 0.238350 0.505220 0.580380
H17_4 H 0.220600 0.446580 0.576820
C30_4 C 0.312200 0.621990 0.606690
H18_4 H 0.355090 0.659250 0.624740
N12_4 N 0.242730 0.646800 0.569750
C1_4 C 0.940590 0.940540 0.24809
C2_4 C 0.881090 0.991160 0.282390
C3_4 C 0.871570 0.981690 0.350950
C4_4 C 0.921540 0.921600 0.385200
H2_4 H 0.915030 0.915120 0.432060
C5_4 C 0.950530 0.950420 0.176570
N1_2 N 0.933950 0.995950 0.073370
H4_4 H 0.720600 0.946580 0.423180
C10_4 C 0.991160 0.881090 0.282390
C11_4 C 0.981690 0.871570 0.350950
N4_4 N 0.995950 0.933950 0.073370
H8_4 H 0.946580 0.720600 0.423180
loop_
_geom_bond_atom_site_label_1
_geom_bond_atom_site_label_2
_geom_bond_site_symmetry_1
_geom_bond_site_symmetry_2
C1 C2 1_555 1_555
C2 C3 1_555 1_555
C3 C4 1_555 1_555
C4 H2 1_555 1_555
C5 C1 1_555 1_555
C10 C1 1_555 1_555
C11 C4 1_555 1_555
N4 N13 1_555 1_555
C10 C11 1_555 1_555
H7 C12 1_555 1_555
C14 C13 1_555 1_555
N5 C14 1_555 1_555
C15 C13 1_555 1_555
H9 C15 1_555 1_555
N6 N5 1_555 1_555
Co4 N5 1_555 1_555
Co11 N6 1_555 1_555
C15 N6 1_555 1_555
H3 C6 1_555 1_555
C8 C7 1_555 1_555
N2 C8 1_555 1_555
C9 C7 1_555 1_555
H5 C9 1_555 1_555
N3 N2 1_555 1_555
Co2 N3 1_555 1_555
Co3 N7 1_555 1_555
C16 C17 1_555 1_555
C17 C18 1_555 1_555
C18 C19 1_555 1_555
C19 H11 1_555 1_555
H10 C17 1_555 1_555
C20 C16 1_555 1_555
C21 C20 1_555 1_555
H12 C21 1_555 1_555
N7 C21 1_555 1_555
C22 C18 1_555 1_555
C23 C22 1_555 1_555
H13 C23 1_555 1_555
N8 C23 1_555 1_555
C24 C22 1_555 1_555
H14 C24 1_555 1_555
N9 Co2 1_555 1_555
C25 C16 1_555 1_555
C26 C19 1_555 1_555
H15 C25 1_555 1_555
C27 C20 1_555 1_555
H16 C27 1_555 1_555
N10 N7 1_555 1_555
C28 C26 1_555 1_555
C29 C28 1_555 1_555
H17 C29 1_555 1_555
N11 C29 1_555 1_555
C30 C28 1_555 1_555
H18 C30 1_555 1_555
N12 N11 1_555 1_555
Co5 N11 1_555 1_555
Co7 N8 1_555 1_555
Co8 N2 1_555 1_555
Co9 N10 1_555 1_555
N17 Co1 1_555 1_555
N18 Co3 1_555 1_555
N19 Co2 1_555 1_555
N20 Co2 1_555 1_555
Co11 N12 1_555 1_555
C9 N3 1_555 1_555
N8 N9 1_555 1_555
C24 N9 1_555 1_555
C25 C26 1_555 1_555
C27 N10 1_555 1_555
C30 N12 1_555 1_555
N14 Co3_2 1_555 1_555
N15 Co3_2 1_555 1_555
N16 Co1_2 1_555 1_555
C16_2 C17_2 1_555 1_555
C17_2 C18_2 1_555 1_555
C18_2 C19_2 1_555 1_555
C19_2 H11_2 1_555 1_555
C20_2 C16_2 1_555 1_555
C25_2 C16_2 1_555 1_555
C26_2 C19_2 1_555 1_555
H15_2 C25_2 1_555 1_555
C27_2 C20_2 1_555 1_555
H16_2 C27_2 1_555 1_555
N10_2 N7_2 1_555 1_555
C28_2 C26_2 1_555 1_555
C29_2 C28_2 1_555 1_555
H17_2 C29_2 1_555 1_555
N18 C29_2 1_555 1_555
C30_2 C28_2 1_555 1_555
H18_2 C30_2 1_555 1_555
N12_2 N18 1_555 1_555
Co8 N10_2 1_555 1_555
Co10 N12_2 1_555 1_555
C25_2 C26_2 1_555 1_555
C27_2 N10_2 1_555 1_555
C30_2 N12_2 1_555 1_555
Co4 N1 1_555 1_555
C1_2 C2_2 1_555 1_555
C2_2 C3_2 1_555 1_555
C3_2 C4_2 1_555 1_555
C4_2 H2_2 1_555 1_555
H1_2 C2_2 1_555 1_555
C5_2 C1_2 1_555 1_555
C6_2 C5_2 1_555 1_555
H3_2 C6_2 1_555 1_555
N1 C6_2 1_555 1_555
C7_2 C3_2 1_555 1_555
C8_2 C7_2 1_555 1_555
H4_2 C8_2 1_555 1_555
N2_2 C8_2 1_555 1_555
C9_2 C7_2 1_555 1_555
H5_2 C9_2 1_555 1_555
N3_2 N2_2 1_555 1_555
Co2_2 N3_2 1_555 1_555
C10_2 C1_2 1_555 1_555
C11_2 C4_2 1_555 1_555
N4_2 N1 1_555 1_555
H12_2 C21_2 1_555 1_555
C23_2 C22_2 1_555 1_555
N8_2 C23_2 1_555 1_555
C24_2 C22_2 1_555 1_555
H14_2 C24_2 1_555 1_555
N9_2 Co2_2 1_555 1_555
Co6 N8_2 1_555 1_555
Co9 N2_2 1_555 1_555
N14_2 Co5 1_555 1_555
N15_2 Co5 1_555 1_555
N16_2 Co4 1_555 1_555
C9_2 N3_2 1_555 1_555
C10_2 C11_2 1_555 1_555
N8_2 N9_2 1_555 1_555
C24_2 N9_2 1_555 1_555
N19_2 Co2_3 1_555 1_555
N20_2 Co2_3 1_555 1_555
H7_2 C12_2 1_555 1_555
C14_2 C13_2 1_555 1_555
N17 C14_2 1_555 1_555
C15_2 C13_2 1_555 1_555
H9_2 C15_2 1_555 1_555
N6_2 N17 1_555 1_555
Co10 N6_2 1_555 1_555
C15_2 N6_2 1_555 1_555
H16_3 C27_3 1_555 1_555
C29_3 C28_3 1_555 1_555
N16 C29_3 1_555 1_555
C30_3 C28_3 1_555 1_555
H18_3 C30_3 1_555 1_555
N12_3 N16 1_555 1_555
Co10_2 N12_3 1_555 1_555
C30_3 N12_3 1_555 1_555
H3_3 C6_3 1_555 1_555
C8_3 C7_3 1_555 1_555
N2_3 C8_3 1_555 1_555
C9_3 C7_3 1_555 1_555
H5_3 C9_3 1_555 1_555
N19_2 N2_3 1_555 1_555
C16_3 C17_3 1_555 1_555
C17_3 C18_3 1_555 1_555
C18_3 C19_3 1_555 1_555
C19_3 H11_3 1_555 1_555
H10_3 C17_3 1_555 1_555
C20_3 C16_3 1_555 1_555
C21_3 C20_3 1_555 1_555
H12_3 C21_3 1_555 1_555
N14_2 C21_3 1_555 1_555
C22_3 C18_3 1_555 1_555
C23_3 C22_3 1_555 1_555
H13_3 C23_3 1_555 1_555
N8_3 C23_3 1_555 1_555
C24_3 C22_3 1_555 1_555
H14_3 C24_3 1_555 1_555
C25_3 C16_3 1_555 1_555
C26_3 C19_3 1_555 1_555
N10_3 N14_2 1_555 1_555
Co9_2 N8_3 1_555 1_555
Co6_2 N2_3 1_555 1_555
C9_3 N19_2 1_555 1_555
N8_3 N20_2 1_555 1_555
C24_3 N20_2 1_555 1_555
C25_3 C26_3 1_555 1_555
C1_3 C2_3 1_555 1_555
C2_3 C3_3 1_555 1_555
C3_3 C4_3 1_555 1_555
C4_3 H2_3 1_555 1_555
C5_3 C1_3 1_555 1_555
C10_3 C1_3 1_555 1_555
C11_3 C4_3 1_555 1_555
H6_3 C10_3 1_555 1_555
C12_3 C5_3 1_555 1_555
H7_3 C12_3 1_555 1_555
N4_3 N13_2 1_555 1_555
C13_3 C11_3 1_555 1_555
C14_3 C13_3 1_555 1_555
H8_3 C14_3 1_555 1_555
N15 C14_3 1_555 1_555
C15_3 C13_3 1_555 1_555
H9_3 C15_3 1_555 1_555
N6_3 N15 1_555 1_555
Co7 N4_3 1_555 1_555
Co10_2 N6_3 1_555 1_555
C10_3 C11_3 1_555 1_555
C12_3 N4_3 1_555 1_555
C15_3 N6_3 1_555 1_555
H7_4 C12_4 1_555 1_555
C14_4 C13_4 1_555 1_555
N15_2 C14_4 1_555 1_555
C15_4 C13_4 1_555 1_555
H9_4 C15_4 1_555 1_555
N6_4 N15_2 1_555 1_555
Co11 N6_4 1_555 1_555
C15_4 N6_4 1_555 1_555
H3_4 C6_4 1_555 1_555
C8_4 C7_4 1_555 1_555
N2_4 C8_4 1_555 1_555
C9_4 C7_4 1_555 1_555
H5_4 C9_4 1_555 1_555
N19 N2_4 1_555 1_555
C16_4 C17_4 1_555 1_555
C17_4 C18_4 1_555 1_555
C18_4 C19_4 1_555 1_555
C19_4 H11_4 1_555 1_555
H10_4 C17_4 1_555 1_555
C20_4 C16_4 1_555 1_555
C21_4 C20_4 1_555 1_555
H12_4 C21_4 1_555 1_555
N14 C21_4 1_555 1_555
C22_4 C18_4 1_555 1_555
C23_4 C22_4 1_555 1_555
H13_4 C23_4 1_555 1_555
N8_4 C23_4 1_555 1_555
C24_4 C22_4 1_555 1_555
H14_4 C24_4 1_555 1_555
C25_4 C16_4 1_555 1_555
C26_4 C19_4 1_555 1_555
H15_4 C25_4 1_555 1_555
C27_4 C20_4 1_555 1_555
H16_4 C27_4 1_555 1_555
N10_4 N14 1_555 1_555
C28_4 C26_4 1_555 1_555
C29_4 C28_4 1_555 1_555
H17_4 C29_4 1_555 1_555
N16_2 C29_4 1_555 1_555
C30_4 C28_4 1_555 1_555
H18_4 C30_4 1_555 1_555
N12_4 N16_2 1_555 1_555
Co8 N8_4 1_555 1_555
Co7 N2_4 1_555 1_555
Co9_2 N10_4 1_555 1_555
Co11 N12_4 1_555 1_555
C9_4 N19 1_555 1_555
N8_4 N20 1_555 1_555
C24_4 N20 1_555 1_555
C25_4 C26_4 1_555 1_555
C27_4 N10_4 1_555 1_555
C30_4 N12_4 1_555 1_555
C1_4 C2_4 1_555 1_555
C2_4 C3_4 1_555 1_555
C3_4 C4_4 1_555 1_555
C4_4 H2_4 1_555 1_555
C5_4 C1_4 1_555 1_555
C10_4 C1_4 1_555 1_555
C11_4 C4_4 1_555 1_555
N4_4 N1_2 1_555 1_555
C10_4 C11_4 1_555 1_555

#END
