
###############################################################################
#
# This file contains modified crystal structure data generated from the
# MOF subset of the Cambridge Structural Database (CSD) v543 
# hosted by the Cambridge Crystallographic Data Centre (CCDC).
#
# This work is licensed under the Creative Commons
# Attribution-NonCommercial-ShareAlike 4.0 International License.
# To view a copy of this license, visit
# http://creativecommons.org/licenses/by-nc-sa/4.0/
# or send a letter to
# Creative Commons, PO Box 1866, Mountain View, CA 94042, USA.
#
# CIF created using the CSD Python API on 29 September 2022
# The structure has been converted into the P1 space group
# The structure has a 3D framework
# The original CSD entry UTIYIH is in the orthorhombic crystal system
# The framework has been calculated to contain at least 10.0% void space
# The void calculation uses a probe of radius 1.32A, grid spacing 0.4
# The framework is charged, counterions have been retained in the structure
# H atom positions have been added when not included in the experimental data
# Generated hydrogen atom positions removed from atoms on special positions
#
###############################################################################

data_UTIYIH
_chemical_formula_moiety         '(C256 H384 Mo144 N192 O528 Zn24 16+)n'
_symmetry_cell_setting           triclinic
_symmetry_space_group_name_H-M   'P 1'
_symmetry_Int_Tables_number      1
_space_group_name_Hall           'P 1'
loop_
_symmetry_equiv_pos_site_id
_symmetry_equiv_pos_as_xyz
1 x,y,z
_cell_length_a                   27.090(5)
_cell_length_b                   38.406(5)
_cell_length_c                   19.081(5)
_cell_angle_alpha                90
_cell_angle_beta                 90
_cell_angle_gamma                90
_cell_volume                     19852.2
loop_
_atom_site_label
_atom_site_type_symbol
_atom_site_fract_x
_atom_site_fract_y
_atom_site_fract_z
Mo1 Mo 0.5000 0.28187(3) 0.78873(5)
O1 O 0.5698(2) 0.27398(16) 0.7682(3)
Mo2 Mo 0.5000 0.22266(3) 0.64485(5)
Mo3 Mo 0.5000 0.34182(3) 0.65330(6)
Mo4 Mo 0.58465(3) 0.28128(2) 0.64931(4)
O2 O 0.6476(2) 0.22258(18) 0.7634(4)
Mo5 Mo 0.58600(3) 0.22323(2) 0.78366(4)
O3 O 0.6469(2) 0.28271(17) 0.6661(4)
O4 O 0.5803(3) 0.28177(17) 0.5603(3)
O5 O 0.5000 0.3417(3) 0.5635(5)
O6 O 0.5000 0.3843(2) 0.6768(5)
Mo6 Mo 0.5000 0.16278(3) 0.78030(6)
O7 O 0.4326(2) 0.32881(15) 0.6687(3)
O8 O 0.5000 0.3260(2) 0.7679(4)
O9 O 0.5000 0.2810(2) 0.8786(4)
O10 O 0.5000 0.2277(2) 0.7688(5)
O11 O 0.5000 0.1619(3) 0.8699(5)
O12 O 0.5000 0.1207(2) 0.7550(5)
O13 O 0.5675(2) 0.17685(16) 0.7656(3)
O14 O 0.5000 0.1783(2) 0.6648(5)
O15 O 0.5839(3) 0.22512(17) 0.8729(3)
O16 O 0.5000 0.2236(2) 0.5567(5)
O17 O 0.5696(2) 0.23165(15) 0.6654(3)
O18 O 0.5000 0.2784(2) 0.6637(5)
O19 O 0.4302(2) 0.27398(16) 0.7682(3)
Mo7 Mo 0.41535(3) 0.28128(2) 0.64931(4)
O20 O 0.3524(2) 0.22258(18) 0.7634(4)
Mo8 Mo 0.41400(3) 0.22323(2) 0.78366(4)
O21 O 0.3531(2) 0.28271(17) 0.6661(4)
O22 O 0.4197(3) 0.28177(17) 0.5603(3)
O23 O 0.5674(2) 0.32881(15) 0.6687(3)
O24 O 0.4325(2) 0.17685(16) 0.7656(3)
O25 O 0.4161(3) 0.22512(17) 0.8729(3)
O26 O 0.4304(2) 0.23165(15) 0.6654(3)
Mo1_2 Mo 0.5000 0.21813(3) 0.28873(5)
O1_2 O 0.4302(2) 0.22602(16) 0.2682(3)
Mo2_2 Mo 0.5000 0.27734(3) 0.14485(5)
Mo3_2 Mo 0.5000 0.15818(3) 0.15330(6)
Mo4_2 Mo 0.41535(3) 0.21872(2) 0.14931(4)
O2_2 O 0.3524(2) 0.27742(18) 0.2634(4)
Mo5_2 Mo 0.41400(3) 0.27677(2) 0.28366(4)
O3_2 O 0.3531(2) 0.21729(17) 0.1661(4)
O4_2 O 0.4197(3) 0.21823(17) 0.0603(3)
O5_2 O 0.5000 0.1583(3) 0.0635(5)
O6_2 O 0.5000 0.1157(2) 0.1768(5)
Mo6_2 Mo 0.5000 0.33722(3) 0.28030(6)
O7_2 O 0.5674(2) 0.17119(15) 0.1687(3)
O8_2 O 0.5000 0.1740(2) 0.2679(4)
O9_2 O 0.5000 0.2190(2) 0.3786(4)
O10_2 O 0.5000 0.2723(2) 0.2688(5)
O11_2 O 0.5000 0.3381(3) 0.3699(5)
O12_2 O 0.5000 0.3793(2) 0.2550(5)
O13_2 O 0.4325(2) 0.32315(16) 0.2656(3)
O14_2 O 0.5000 0.3217(2) 0.1648(5)
O15_2 O 0.4161(3) 0.27488(17) 0.3729(3)
O16_2 O 0.5000 0.2764(2) 0.0567(5)
O17_2 O 0.4304(2) 0.26835(15) 0.1654(3)
O18_2 O 0.5000 0.2216(2) 0.1637(5)
O19_2 O 0.5698(2) 0.22602(16) 0.2682(3)
Mo7_2 Mo 0.58465(3) 0.21872(2) 0.14931(4)
O20_2 O 0.6476(2) 0.27742(18) 0.2634(4)
Mo8_2 Mo 0.58600(3) 0.27677(2) 0.28366(4)
O21_2 O 0.6469(2) 0.21729(17) 0.1661(4)
O22_2 O 0.5803(3) 0.21823(17) 0.0603(3)
O23_2 O 0.4326(2) 0.17119(15) 0.1687(3)
O24_2 O 0.5675(2) 0.32315(16) 0.2656(3)
O25_2 O 0.5839(3) 0.27488(17) 0.3729(3)
O26_2 O 0.5696(2) 0.26835(15) 0.1654(3)
Mo1_3 Mo 0.5000 0.71813(3) 0.21127(5)
O1_3 O 0.5698(2) 0.72602(16) 0.2318(3)
Mo2_3 Mo 0.5000 0.77734(3) 0.35515(5)
Mo3_3 Mo 0.5000 0.65818(3) 0.34670(6)
Mo4_3 Mo 0.58465(3) 0.71872(2) 0.35069(4)
O2_3 O 0.6476(2) 0.77742(18) 0.2366(4)
Mo5_3 Mo 0.58600(3) 0.77677(2) 0.21634(4)
O3_3 O 0.6469(2) 0.71729(17) 0.3339(4)
O4_3 O 0.5803(3) 0.71823(17) 0.4397(3)
O5_3 O 0.5000 0.6583(3) 0.4365(5)
O6_3 O 0.5000 0.6157(2) 0.3232(5)
Mo6_3 Mo 0.5000 0.83722(3) 0.21970(6)
O7_3 O 0.4326(2) 0.67119(15) 0.3313(3)
O8_3 O 0.5000 0.6740(2) 0.2321(4)
O9_3 O 0.5000 0.7190(2) 0.1214(4)
O10_3 O 0.5000 0.7723(2) 0.2312(5)
O11_3 O 0.5000 0.8381(3) 0.1301(5)
O12_3 O 0.5000 0.8793(2) 0.2450(5)
O13_3 O 0.5675(2) 0.82315(16) 0.2344(3)
O14_3 O 0.5000 0.8217(2) 0.3352(5)
O15_3 O 0.5839(3) 0.77488(17) 0.1271(3)
O16_3 O 0.5000 0.7764(2) 0.4433(5)
O17_3 O 0.5696(2) 0.76835(15) 0.3346(3)
O18_3 O 0.5000 0.7216(2) 0.3363(5)
O19_3 O 0.4302(2) 0.72602(16) 0.2318(3)
Mo7_3 Mo 0.41535(3) 0.71872(2) 0.35069(4)
O20_3 O 0.3524(2) 0.77742(18) 0.2366(4)
Mo8_3 Mo 0.41400(3) 0.77677(2) 0.21634(4)
O21_3 O 0.3531(2) 0.71729(17) 0.3339(4)
O22_3 O 0.4197(3) 0.71823(17) 0.4397(3)
O23_3 O 0.5674(2) 0.67119(15) 0.3313(3)
O24_3 O 0.4325(2) 0.82315(16) 0.2344(3)
O25_3 O 0.4161(3) 0.77488(17) 0.1271(3)
O26_3 O 0.4304(2) 0.76835(15) 0.3346(3)
Mo1_4 Mo -0.0000 0.28187(3) 0.71127(5)
Mo2_4 Mo 0.0000 0.22266(3) 0.85515(5)
Mo3_4 Mo 0.0000 0.34182(3) 0.84670(6)
O5_4 O 0.0000 0.3417(3) 0.9365(5)
O6_4 O -0.0000 0.3843(2) 0.8232(5)
Mo6_4 Mo -0.0000 0.16278(3) 0.71970(6)
O7_4 O 0.0674(2) 0.32881(15) 0.8313(3)
O8_4 O -0.0000 0.3260(2) 0.7321(4)
O9_4 O -0.0000 0.2810(2) 0.6214(4)
O10_4 O -0.0000 0.2277(2) 0.7312(5)
O11_4 O -0.0000 0.1619(3) 0.6301(5)
O12_4 O 0.0000 0.1207(2) 0.7450(5)
O14_4 O 0.0000 0.1783(2) 0.8352(5)
O16_4 O -0.0000 0.2236(2) 0.9433(5)
O18_4 O 0.0000 0.2784(2) 0.8363(5)
O19_4 O 0.0698(2) 0.27398(16) 0.7318(3)
Mo7_4 Mo 0.08465(3) 0.28128(2) 0.85069(4)
O20_4 O 0.1476(2) 0.22258(18) 0.7366(4)
Mo8_4 Mo 0.08600(3) 0.22323(2) 0.71634(4)
O21_4 O 0.1469(2) 0.28271(17) 0.8339(4)
O22_4 O 0.0803(3) 0.28177(17) 0.9397(3)
O24_4 O 0.0675(2) 0.17685(16) 0.7344(3)
O25_4 O 0.0839(3) 0.22512(17) 0.6271(3)
O26_4 O 0.0696(2) 0.23165(15) 0.8346(3)
Mo1_5 Mo 1.0000 0.28187(3) 0.71127(5)
O1_4 O 0.9302(2) 0.27398(16) 0.7318(3)
Mo2_5 Mo 1.0000 0.22266(3) 0.85515(5)
Mo3_5 Mo 1.0000 0.34182(3) 0.84670(6)
Mo4_4 Mo 0.91535(3) 0.28128(2) 0.85069(4)
O2_4 O 0.8524(2) 0.22258(18) 0.7366(4)
Mo5_4 Mo 0.91400(3) 0.22323(2) 0.71634(4)
O3_4 O 0.8531(2) 0.28271(17) 0.8339(4)
O4_4 O 0.9197(3) 0.28177(17) 0.9397(3)
O5_5 O 1.0000 0.3417(3) 0.9365(5)
O6_5 O 1.0000 0.3843(2) 0.8232(5)
Mo6_5 Mo 1.0000 0.16278(3) 0.71970(6)
O8_5 O 1.0000 0.3260(2) 0.7321(4)
O9_5 O 1.0000 0.2810(2) 0.6214(4)
O10_5 O 1.0000 0.2277(2) 0.7312(5)
O11_5 O 1.0000 0.1619(3) 0.6301(5)
O12_5 O 1.0000 0.1207(2) 0.7450(5)
O13_4 O 0.9325(2) 0.17685(16) 0.7344(3)
O14_5 O 1.0000 0.1783(2) 0.8352(5)
O15_4 O 0.9161(3) 0.22512(17) 0.6271(3)
O16_5 O 1.0000 0.2236(2) 0.9433(5)
O17_4 O 0.9304(2) 0.23165(15) 0.8346(3)
O18_5 O 1.0000 0.2784(2) 0.8363(5)
O23_4 O 0.9326(2) 0.32881(15) 0.8313(3)
Mo1_6 Mo 0.0000 0.78187(3) 0.78873(5)
O1_5 O 0.0698(2) 0.77398(16) 0.7682(3)
Mo2_6 Mo -0.0000 0.72266(3) 0.64485(5)
Mo3_6 Mo -0.0000 0.84182(3) 0.65330(6)
Mo4_5 Mo 0.08465(3) 0.78128(2) 0.64931(4)
O2_5 O 0.1476(2) 0.72258(18) 0.7634(4)
Mo5_5 Mo 0.08600(3) 0.72323(2) 0.78366(4)
O3_5 O 0.1469(2) 0.78271(17) 0.6661(4)
O4_5 O 0.0803(3) 0.78177(17) 0.5603(3)
O5_6 O -0.0000 0.8417(3) 0.5635(5)
O6_6 O 0.0000 0.8843(2) 0.6768(5)
Mo6_6 Mo 0.0000 0.66278(3) 0.78030(6)
O8_6 O 0.0000 0.8260(2) 0.7679(4)
O9_6 O 0.0000 0.7810(2) 0.8786(4)
O10_6 O 0.0000 0.7277(2) 0.7688(5)
O11_6 O 0.0000 0.6619(3) 0.8699(5)
O12_6 O -0.0000 0.6207(2) 0.7550(5)
O13_5 O 0.0675(2) 0.67685(16) 0.7656(3)
O14_6 O -0.0000 0.6783(2) 0.6648(5)
O15_5 O 0.0839(3) 0.72512(17) 0.8729(3)
O16_6 O 0.0000 0.7236(2) 0.5567(5)
O17_5 O 0.0696(2) 0.73165(15) 0.6654(3)
O18_6 O -0.0000 0.7784(2) 0.6637(5)
O23_5 O 0.0674(2) 0.82881(15) 0.6687(3)
Mo1_7 Mo 1.0000 0.78187(3) 0.78873(5)
Mo2_7 Mo 1.0000 0.72266(3) 0.64485(5)
Mo3_7 Mo 1.0000 0.84182(3) 0.65330(6)
O5_7 O 1.0000 0.8417(3) 0.5635(5)
O6_7 O 1.0000 0.8843(2) 0.6768(5)
Mo6_7 Mo 1.0000 0.66278(3) 0.78030(6)
O7_5 O 0.9326(2) 0.82881(15) 0.6687(3)
O8_7 O 1.0000 0.8260(2) 0.7679(4)
O9_7 O 1.0000 0.7810(2) 0.8786(4)
O10_7 O 1.0000 0.7277(2) 0.7688(5)
O11_7 O 1.0000 0.6619(3) 0.8699(5)
O12_7 O 1.0000 0.6207(2) 0.7550(5)
O14_7 O 1.0000 0.6783(2) 0.6648(5)
O16_7 O 1.0000 0.7236(2) 0.5567(5)
O18_7 O 1.0000 0.7784(2) 0.6637(5)
O19_5 O 0.9302(2) 0.77398(16) 0.7682(3)
Mo7_5 Mo 0.91535(3) 0.78128(2) 0.64931(4)
O20_5 O 0.8524(2) 0.72258(18) 0.7634(4)
Mo8_5 Mo 0.91400(3) 0.72323(2) 0.78366(4)
O21_5 O 0.8531(2) 0.78271(17) 0.6661(4)
O22_5 O 0.9197(3) 0.78177(17) 0.5603(3)
O24_5 O 0.9325(2) 0.67685(16) 0.7656(3)
O25_5 O 0.9161(3) 0.72512(17) 0.8729(3)
O26_5 O 0.9304(2) 0.73165(15) 0.6654(3)
Mo1_8 Mo -0.0000 0.71813(3) 0.28873(5)
Mo2_8 Mo 0.0000 0.77734(3) 0.14485(5)
Mo3_8 Mo 0.0000 0.65818(3) 0.15330(6)
O5_8 O 0.0000 0.6583(3) 0.0635(5)
O6_8 O -0.0000 0.6157(2) 0.1768(5)
Mo6_8 Mo -0.0000 0.83722(3) 0.28030(6)
O7_6 O 0.0674(2) 0.67119(15) 0.1687(3)
O8_8 O -0.0000 0.6740(2) 0.2679(4)
O9_8 O -0.0000 0.7190(2) 0.3786(4)
O10_8 O -0.0000 0.7723(2) 0.2688(5)
O11_8 O -0.0000 0.8381(3) 0.3699(5)
O12_8 O 0.0000 0.8793(2) 0.2550(5)
O14_8 O 0.0000 0.8217(2) 0.1648(5)
O16_8 O -0.0000 0.7764(2) 0.0567(5)
O18_8 O 0.0000 0.7216(2) 0.1637(5)
O19_6 O 0.0698(2) 0.72602(16) 0.2682(3)
Mo7_6 Mo 0.08465(3) 0.71872(2) 0.14931(4)
O20_6 O 0.1476(2) 0.77742(18) 0.2634(4)
Mo8_6 Mo 0.08600(3) 0.77677(2) 0.28366(4)
O21_6 O 0.1469(2) 0.71729(17) 0.1661(4)
O22_6 O 0.0803(3) 0.71823(17) 0.0603(3)
O24_6 O 0.0675(2) 0.82315(16) 0.2656(3)
O25_6 O 0.0839(3) 0.77488(17) 0.3729(3)
O26_6 O 0.0696(2) 0.76835(15) 0.1654(3)
Mo1_9 Mo 1.0000 0.71813(3) 0.28873(5)
O1_6 O 0.9302(2) 0.72602(16) 0.2682(3)
Mo2_9 Mo 1.0000 0.77734(3) 0.14485(5)
Mo3_9 Mo 1.0000 0.65818(3) 0.15330(6)
Mo4_6 Mo 0.91535(3) 0.71872(2) 0.14931(4)
O2_6 O 0.8524(2) 0.77742(18) 0.2634(4)
Mo5_6 Mo 0.91400(3) 0.77677(2) 0.28366(4)
O3_6 O 0.8531(2) 0.71729(17) 0.1661(4)
O4_6 O 0.9197(3) 0.71823(17) 0.0603(3)
O5_9 O 1.0000 0.6583(3) 0.0635(5)
O6_9 O 1.0000 0.6157(2) 0.1768(5)
Mo6_9 Mo 1.0000 0.83722(3) 0.28030(6)
O8_9 O 1.0000 0.6740(2) 0.2679(4)
O9_9 O 1.0000 0.7190(2) 0.3786(4)
O10_9 O 1.0000 0.7723(2) 0.2688(5)
O11_9 O 1.0000 0.8381(3) 0.3699(5)
O12_9 O 1.0000 0.8793(2) 0.2550(5)
O13_6 O 0.9325(2) 0.82315(16) 0.2656(3)
O14_9 O 1.0000 0.8217(2) 0.1648(5)
O15_6 O 0.9161(3) 0.77488(17) 0.3729(3)
O16_9 O 1.0000 0.7764(2) 0.0567(5)
O17_6 O 0.9304(2) 0.76835(15) 0.1654(3)
O18_9 O 1.0000 0.7216(2) 0.1637(5)
O23_6 O 0.9326(2) 0.67119(15) 0.1687(3)
Mo1_10 Mo 0.0000 0.21813(3) 0.21127(5)
O1_7 O 0.0698(2) 0.22602(16) 0.2318(3)
Mo2_10 Mo -0.0000 0.27734(3) 0.35515(5)
Mo3_10 Mo -0.0000 0.15818(3) 0.34670(6)
Mo4_7 Mo 0.08465(3) 0.21872(2) 0.35069(4)
O2_7 O 0.1476(2) 0.27742(18) 0.2366(4)
Mo5_7 Mo 0.08600(3) 0.27677(2) 0.21634(4)
O3_7 O 0.1469(2) 0.21729(17) 0.3339(4)
O4_7 O 0.0803(3) 0.21823(17) 0.4397(3)
O5_10 O -0.0000 0.1583(3) 0.4365(5)
O6_10 O 0.0000 0.1157(2) 0.3232(5)
Mo6_10 Mo 0.0000 0.33722(3) 0.21970(6)
O8_10 O 0.0000 0.1740(2) 0.2321(4)
O9_10 O 0.0000 0.2190(2) 0.1214(4)
O10_10 O 0.0000 0.2723(2) 0.2312(5)
O11_10 O 0.0000 0.3381(3) 0.1301(5)
O12_10 O -0.0000 0.3793(2) 0.2450(5)
O13_7 O 0.0675(2) 0.32315(16) 0.2344(3)
O14_10 O -0.0000 0.3217(2) 0.3352(5)
O15_7 O 0.0839(3) 0.27488(17) 0.1271(3)
O16_10 O -0.0000 0.2764(2) 0.4433(5)
O17_7 O 0.0696(2) 0.26835(15) 0.3346(3)
O18_10 O -0.0000 0.2216(2) 0.3363(5)
O23_7 O 0.0674(2) 0.17119(15) 0.3313(3)
Mo1_11 Mo 1.0000 0.21813(3) 0.21127(5)
Mo2_11 Mo 1.0000 0.27734(3) 0.35515(5)
Mo3_11 Mo 1.0000 0.15818(3) 0.34670(6)
O5_11 O 1.0000 0.1583(3) 0.4365(5)
O6_11 O 1.0000 0.1157(2) 0.3232(5)
Mo6_11 Mo 1.0000 0.33722(3) 0.21970(6)
O7_7 O 0.9326(2) 0.17119(15) 0.3313(3)
O8_11 O 1.0000 0.1740(2) 0.2321(4)
O9_11 O 1.0000 0.2190(2) 0.1214(4)
O10_11 O 1.0000 0.2723(2) 0.2312(5)
O11_11 O 1.0000 0.3381(3) 0.1301(5)
O12_11 O 1.0000 0.3793(2) 0.2450(5)
O14_11 O 1.0000 0.3217(2) 0.3352(5)
O16_11 O 1.0000 0.2764(2) 0.4433(5)
O18_11 O 1.0000 0.2216(2) 0.3363(5)
O19_7 O 0.9302(2) 0.22602(16) 0.2318(3)
Mo7_7 Mo 0.91535(3) 0.21872(2) 0.35069(4)
O20_7 O 0.8524(2) 0.27742(18) 0.2366(4)
Mo8_7 Mo 0.91400(3) 0.27677(2) 0.21634(4)
O21_7 O 0.8531(2) 0.21729(17) 0.3339(4)
O22_7 O 0.9197(3) 0.21823(17) 0.4397(3)
O24_7 O 0.9325(2) 0.32315(16) 0.2344(3)
O25_7 O 0.9161(3) 0.27488(17) 0.1271(3)
O26_7 O 0.9304(2) 0.26835(15) 0.3346(3)
Mo1_12 Mo 0.5000 0.78187(3) 0.71127(5)
O1_8 O 0.4302(2) 0.77398(16) 0.7318(3)
Mo2_12 Mo 0.5000 0.72266(3) 0.85515(5)
Mo3_12 Mo 0.5000 0.84182(3) 0.84670(6)
Mo4_8 Mo 0.41535(3) 0.78128(2) 0.85069(4)
O2_8 O 0.3524(2) 0.72258(18) 0.7366(4)
Mo5_8 Mo 0.41400(3) 0.72323(2) 0.71634(4)
O3_8 O 0.3531(2) 0.78271(17) 0.8339(4)
O4_8 O 0.4197(3) 0.78177(17) 0.9397(3)
O5_12 O 0.5000 0.8417(3) 0.9365(5)
O6_12 O 0.5000 0.8843(2) 0.8232(5)
Mo6_12 Mo 0.5000 0.66278(3) 0.71970(6)
O7_8 O 0.5674(2) 0.82881(15) 0.8313(3)
O8_12 O 0.5000 0.8260(2) 0.7321(4)
O9_12 O 0.5000 0.7810(2) 0.6214(4)
O10_12 O 0.5000 0.7277(2) 0.7312(5)
O11_12 O 0.5000 0.6619(3) 0.6301(5)
O12_12 O 0.5000 0.6207(2) 0.7450(5)
O13_8 O 0.4325(2) 0.67685(16) 0.7344(3)
O14_12 O 0.5000 0.6783(2) 0.8352(5)
O15_8 O 0.4161(3) 0.72512(17) 0.6271(3)
O16_12 O 0.5000 0.7236(2) 0.9433(5)
O17_8 O 0.4304(2) 0.73165(15) 0.8346(3)
O18_12 O 0.5000 0.7784(2) 0.8363(5)
O19_8 O 0.5698(2) 0.77398(16) 0.7318(3)
Mo7_8 Mo 0.58465(3) 0.78128(2) 0.85069(4)
O20_8 O 0.6476(2) 0.72258(18) 0.7366(4)
Mo8_8 Mo 0.58600(3) 0.72323(2) 0.71634(4)
O21_8 O 0.6469(2) 0.78271(17) 0.8339(4)
O22_8 O 0.5803(3) 0.78177(17) 0.9397(3)
O23_8 O 0.4326(2) 0.82881(15) 0.8313(3)
O24_8 O 0.5675(2) 0.67685(16) 0.7344(3)
O25_8 O 0.5839(3) 0.72512(17) 0.6271(3)
O26_8 O 0.5696(2) 0.73165(15) 0.8346(3)
Mo10 Mo 0.75064(3) 0.029581(19) 0.07202(4)
O37 O 0.7513(3) 0.02918(17) 0.1618(3)
O39 O 0.7515(2) 0.07340(16) 0.0502(3)
O40 O 0.8204(2) 0.02126(16) 0.0515(3)
O49 O 0.6816(2) 0.02093(15) 0.0509(3)
Mo9 Mo 0.66463(3) 0.029040(19) 0.93341(4)
Mo11 Mo 0.75050(3) 0.08903(2) 0.93542(4)
Mo12 Mo 0.83629(3) 0.02858(2) 0.93169(5)
O28 O 0.8978(3) 0.02957(19) 0.9495(5)
O29 O 0.8338(3) 0.02785(19) 0.8418(4)
O30 O 0.8182(2) 0.07565(16) 0.9505(3)
O31 O 0.7531(3) 0.13096(16) 0.9595(4)
O32 O 0.7511(3) 0.08900(18) 0.8455(3)
O33 O 0.6828(2) 0.07585(15) 0.9512(3)
O34 O 0.6678(3) 0.02820(18) 0.8436(3)
O35 O 0.6032(2) 0.02978(17) 0.9533(3)
O38 O 0.7516(2) 0.02544(15) 0.9463(3)
Mo13 Mo 0.66463(3) 0.970960(19) 0.06659(4)
Mo15 Mo 0.75050(3) 0.91097(2) 0.06458(4)
Mo16 Mo 0.83629(3) 0.97142(2) 0.06831(5)
O41 O 0.8978(3) 0.97043(19) 0.0505(5)
O42 O 0.8338(3) 0.97215(19) 0.1582(4)
O43 O 0.8182(2) 0.92435(16) 0.0495(3)
O44 O 0.7531(3) 0.86904(16) 0.0405(4)
O45 O 0.7511(3) 0.91100(18) 0.1545(3)
O46 O 0.6828(2) 0.92415(15) 0.0488(3)
O47 O 0.6678(3) 0.97180(18) 0.1564(3)
O48 O 0.6032(2) 0.97022(17) 0.0467(3)
O51 O 0.7516(2) 0.97456(15) 0.0537(3)
O27 O 0.8204(2) 0.97874(16) 0.9485(3)
O36 O 0.6816(2) 0.97907(15) 0.9491(3)
Mo14 Mo 0.75064(3) 0.970419(19) 0.92798(4)
O50 O 0.7513(3) 0.97082(17) 0.8382(3)
O52 O 0.7515(2) 0.92660(16) 0.9498(3)
Mo9_2 Mo 0.33537(3) 0.470960(19) 0.43341(4)
Mo10_2 Mo 0.24936(3) 0.470419(19) 0.57202(4)
Mo11_2 Mo 0.24950(3) 0.41097(2) 0.43542(4)
Mo12_2 Mo 0.16371(3) 0.47142(2) 0.43169(5)
O27_2 O 0.1796(2) 0.52126(16) 0.4485(3)
O28_2 O 0.1022(3) 0.47043(19) 0.4495(5)
O29_2 O 0.1662(3) 0.47215(19) 0.3418(4)
O30_2 O 0.1818(2) 0.42435(16) 0.4505(3)
O31_2 O 0.2469(3) 0.36904(16) 0.4595(4)
O32_2 O 0.2489(3) 0.41100(18) 0.3455(3)
O33_2 O 0.3172(2) 0.42415(15) 0.4512(3)
O34_2 O 0.3322(3) 0.47180(18) 0.3436(3)
O35_2 O 0.3968(2) 0.47022(17) 0.4533(3)
O36_2 O 0.3184(2) 0.52093(15) 0.4491(3)
O37_2 O 0.2487(3) 0.47082(17) 0.6618(3)
O38_2 O 0.2484(2) 0.47456(15) 0.4463(3)
O39_2 O 0.2485(2) 0.42660(16) 0.5502(3)
Mo13_2 Mo 0.33537(3) 0.529040(19) 0.56659(4)
Mo14_2 Mo 0.24936(3) 0.529581(19) 0.42798(4)
Mo15_2 Mo 0.24950(3) 0.58903(2) 0.56458(4)
Mo16_2 Mo 0.16371(3) 0.52858(2) 0.56831(5)
O40_2 O 0.1796(2) 0.47874(16) 0.5515(3)
O41_2 O 0.1022(3) 0.52957(19) 0.5505(5)
O42_2 O 0.1662(3) 0.52785(19) 0.6582(4)
O43_2 O 0.1818(2) 0.57565(16) 0.5495(3)
O44_2 O 0.2469(3) 0.63096(16) 0.5405(4)
O45_2 O 0.2489(3) 0.58900(18) 0.6545(3)
O46_2 O 0.3172(2) 0.57585(15) 0.5488(3)
O47_2 O 0.3322(3) 0.52820(18) 0.6564(3)
O48_2 O 0.3968(2) 0.52978(17) 0.5467(3)
O49_2 O 0.3184(2) 0.47907(15) 0.5509(3)
O50_2 O 0.2487(3) 0.52918(17) 0.3382(3)
O51_2 O 0.2484(2) 0.52544(15) 0.5537(3)
O52_2 O 0.2485(2) 0.57340(16) 0.4498(3)
Mo9_3 Mo 0.83537(3) 0.029040(19) 0.56659(4)
Mo10_3 Mo 0.74936(3) 0.029581(19) 0.42798(4)
Mo11_3 Mo 0.74950(3) 0.08903(2) 0.56458(4)
Mo12_3 Mo 0.66371(3) 0.02858(2) 0.56831(5)
O28_3 O 0.6022(3) 0.02957(19) 0.5505(5)
O29_3 O 0.6662(3) 0.02785(19) 0.6582(4)
O30_3 O 0.6818(2) 0.07565(16) 0.5495(3)
O31_3 O 0.7469(3) 0.13096(16) 0.5405(4)
O32_3 O 0.7489(3) 0.08900(18) 0.6545(3)
O33_3 O 0.8172(2) 0.07585(15) 0.5488(3)
O34_3 O 0.8322(3) 0.02820(18) 0.6564(3)
O35_3 O 0.8968(2) 0.02978(17) 0.5467(3)
O37_3 O 0.7487(3) 0.02918(17) 0.3382(3)
O38_3 O 0.7484(2) 0.02544(15) 0.5537(3)
O39_3 O 0.7485(2) 0.07340(16) 0.4498(3)
O40_3 O 0.6796(2) 0.02126(16) 0.4485(3)
O49_3 O 0.8184(2) 0.02093(15) 0.4491(3)
O27_3 O 0.6796(2) 0.97874(16) 0.5515(3)
O36_3 O 0.8184(2) 0.97907(15) 0.5509(3)
Mo13_3 Mo 0.83537(3) 0.970960(19) 0.43341(4)
Mo14_3 Mo 0.74936(3) 0.970419(19) 0.57202(4)
Mo15_3 Mo 0.74950(3) 0.91097(2) 0.43542(4)
Mo16_3 Mo 0.66371(3) 0.97142(2) 0.43169(5)
O41_3 O 0.6022(3) 0.97043(19) 0.4495(5)
O42_3 O 0.6662(3) 0.97215(19) 0.3418(4)
O43_3 O 0.6818(2) 0.92435(16) 0.4505(3)
O44_3 O 0.7469(3) 0.86904(16) 0.4595(4)
O45_3 O 0.7489(3) 0.91100(18) 0.3455(3)
O46_3 O 0.8172(2) 0.92415(15) 0.4512(3)
O47_3 O 0.8322(3) 0.97180(18) 0.3436(3)
O48_3 O 0.8968(2) 0.97022(17) 0.4533(3)
O50_3 O 0.7487(3) 0.97082(17) 0.6618(3)
O51_3 O 0.7484(2) 0.97456(15) 0.4463(3)
O52_3 O 0.7485(2) 0.92660(16) 0.5502(3)
Mo10_4 Mo 0.25064(3) 0.529581(19) 0.07202(4)
O37_4 O 0.2513(3) 0.52918(17) 0.1618(3)
O39_4 O 0.2515(2) 0.57340(16) 0.0502(3)
Mo13_4 Mo 0.16463(3) 0.470960(19) 0.06659(4)
Mo15_4 Mo 0.25050(3) 0.41097(2) 0.06458(4)
Mo16_4 Mo 0.33629(3) 0.47142(2) 0.06831(5)
O40_4 O 0.3204(2) 0.52126(16) 0.0515(3)
O41_4 O 0.3978(3) 0.47043(19) 0.0505(5)
O42_4 O 0.3338(3) 0.47215(19) 0.1582(4)
O43_4 O 0.3182(2) 0.42435(16) 0.0495(3)
O44_4 O 0.2531(3) 0.36904(16) 0.0405(4)
O45_4 O 0.2511(3) 0.41100(18) 0.1545(3)
O46_4 O 0.1828(2) 0.42415(15) 0.0488(3)
O47_4 O 0.1678(3) 0.47180(18) 0.1564(3)
O48_4 O 0.1032(2) 0.47022(17) 0.0467(3)
O49_4 O 0.1816(2) 0.52093(15) 0.0509(3)
O51_4 O 0.2516(2) 0.47456(15) 0.0537(3)
Mo9_4 Mo 0.16463(3) 0.529040(19) 0.93341(4)
Mo11_4 Mo 0.25050(3) 0.58903(2) 0.93542(4)
Mo12_4 Mo 0.33629(3) 0.52858(2) 0.93169(5)
O27_4 O 0.3204(2) 0.47874(16) 0.9485(3)
O28_4 O 0.3978(3) 0.52957(19) 0.9495(5)
O29_4 O 0.3338(3) 0.52785(19) 0.8418(4)
O30_4 O 0.3182(2) 0.57565(16) 0.9505(3)
O31_4 O 0.2531(3) 0.63096(16) 0.9595(4)
O32_4 O 0.2511(3) 0.58900(18) 0.8455(3)
O33_4 O 0.1828(2) 0.57585(15) 0.9512(3)
O34_4 O 0.1678(3) 0.52820(18) 0.8436(3)
O35_4 O 0.1032(2) 0.52978(17) 0.9533(3)
O36_4 O 0.1816(2) 0.47907(15) 0.9491(3)
O38_4 O 0.2516(2) 0.52544(15) 0.9463(3)
Mo14_4 Mo 0.25064(3) 0.470419(19) 0.92798(4)
O50_4 O 0.2513(3) 0.47082(17) 0.8382(3)
O52_4 O 0.2515(2) 0.42660(16) 0.9498(3)
O27_5 O 0.1796(2) 0.02126(16) 0.0515(3)
O36_5 O 0.3184(2) 0.02093(15) 0.0509(3)
Mo14_5 Mo 0.24936(3) 0.029581(19) 0.07202(4)
O50_5 O 0.2487(3) 0.02918(17) 0.1618(3)
O52_5 O 0.2485(2) 0.07340(16) 0.0502(3)
Mo13_5 Mo 0.33537(3) 0.029040(19) 0.93341(4)
Mo15_5 Mo 0.24950(3) 0.08903(2) 0.93542(4)
Mo16_5 Mo 0.16371(3) 0.02858(2) 0.93169(5)
O41_5 O 0.1022(3) 0.02957(19) 0.9495(5)
O42_5 O 0.1662(3) 0.02785(19) 0.8418(4)
O43_5 O 0.1818(2) 0.07565(16) 0.9505(3)
O44_5 O 0.2469(3) 0.13096(16) 0.9595(4)
O45_5 O 0.2489(3) 0.08900(18) 0.8455(3)
O46_5 O 0.3172(2) 0.07585(15) 0.9512(3)
O47_5 O 0.3322(3) 0.02820(18) 0.8436(3)
O48_5 O 0.3968(2) 0.02978(17) 0.9533(3)
O51_5 O 0.2484(2) 0.02544(15) 0.9463(3)
Mo9_5 Mo 0.33537(3) 0.970960(19) 0.06659(4)
Mo11_5 Mo 0.24950(3) 0.91097(2) 0.06458(4)
Mo12_5 Mo 0.16371(3) 0.97142(2) 0.06831(5)
O28_5 O 0.1022(3) 0.97043(19) 0.0505(5)
O29_5 O 0.1662(3) 0.97215(19) 0.1582(4)
O30_5 O 0.1818(2) 0.92435(16) 0.0495(3)
O31_5 O 0.2469(3) 0.86904(16) 0.0405(4)
O32_5 O 0.2489(3) 0.91100(18) 0.1545(3)
O33_5 O 0.3172(2) 0.92415(15) 0.0488(3)
O34_5 O 0.3322(3) 0.97180(18) 0.1564(3)
O35_5 O 0.3968(2) 0.97022(17) 0.0467(3)
O38_5 O 0.2484(2) 0.97456(15) 0.0537(3)
Mo10_5 Mo 0.24936(3) 0.970419(19) 0.92798(4)
O37_5 O 0.2487(3) 0.97082(17) 0.8382(3)
O39_5 O 0.2485(2) 0.92660(16) 0.9498(3)
O40_5 O 0.1796(2) 0.97874(16) 0.9485(3)
O49_5 O 0.3184(2) 0.97907(15) 0.9491(3)
Mo9_6 Mo 0.66463(3) 0.529040(19) 0.56659(4)
Mo10_6 Mo 0.75064(3) 0.529581(19) 0.42798(4)
Mo11_6 Mo 0.75050(3) 0.58903(2) 0.56458(4)
Mo12_6 Mo 0.83629(3) 0.52858(2) 0.56831(5)
O27_6 O 0.8204(2) 0.47874(16) 0.5515(3)
O28_6 O 0.8978(3) 0.52957(19) 0.5505(5)
O29_6 O 0.8338(3) 0.52785(19) 0.6582(4)
O30_6 O 0.8182(2) 0.57565(16) 0.5495(3)
O31_6 O 0.7531(3) 0.63096(16) 0.5405(4)
O32_6 O 0.7511(3) 0.58900(18) 0.6545(3)
O33_6 O 0.6828(2) 0.57585(15) 0.5488(3)
O34_6 O 0.6678(3) 0.52820(18) 0.6564(3)
O35_6 O 0.6032(2) 0.52978(17) 0.5467(3)
O36_6 O 0.6816(2) 0.47907(15) 0.5509(3)
O37_6 O 0.7513(3) 0.52918(17) 0.3382(3)
O38_6 O 0.7516(2) 0.52544(15) 0.5537(3)
O39_6 O 0.7515(2) 0.57340(16) 0.4498(3)
Mo13_6 Mo 0.66463(3) 0.470960(19) 0.43341(4)
Mo14_6 Mo 0.75064(3) 0.470419(19) 0.57202(4)
Mo15_6 Mo 0.75050(3) 0.41097(2) 0.43542(4)
Mo16_6 Mo 0.83629(3) 0.47142(2) 0.43169(5)
O40_6 O 0.8204(2) 0.52126(16) 0.4485(3)
O41_6 O 0.8978(3) 0.47043(19) 0.4495(5)
O42_6 O 0.8338(3) 0.47215(19) 0.3418(4)
O43_6 O 0.8182(2) 0.42435(16) 0.4505(3)
O44_6 O 0.7531(3) 0.36904(16) 0.4595(4)
O45_6 O 0.7511(3) 0.41100(18) 0.3455(3)
O46_6 O 0.6828(2) 0.42415(15) 0.4512(3)
O47_6 O 0.6678(3) 0.47180(18) 0.3436(3)
O48_6 O 0.6032(2) 0.47022(17) 0.4533(3)
O49_6 O 0.6816(2) 0.52093(15) 0.4491(3)
O50_6 O 0.7513(3) 0.47082(17) 0.6618(3)
O51_6 O 0.7516(2) 0.47456(15) 0.4463(3)
O52_6 O 0.7515(2) 0.42660(16) 0.5502(3)
O27_7 O 0.3204(2) 0.02126(16) 0.4485(3)
O36_7 O 0.1816(2) 0.02093(15) 0.4491(3)
Mo13_7 Mo 0.16463(3) 0.029040(19) 0.56659(4)
Mo14_7 Mo 0.25064(3) 0.029581(19) 0.42798(4)
Mo15_7 Mo 0.25050(3) 0.08903(2) 0.56458(4)
Mo16_7 Mo 0.33629(3) 0.02858(2) 0.56831(5)
O41_7 O 0.3978(3) 0.02957(19) 0.5505(5)
O42_7 O 0.3338(3) 0.02785(19) 0.6582(4)
O43_7 O 0.3182(2) 0.07565(16) 0.5495(3)
O44_7 O 0.2531(3) 0.13096(16) 0.5405(4)
O45_7 O 0.2511(3) 0.08900(18) 0.6545(3)
O46_7 O 0.1828(2) 0.07585(15) 0.5488(3)
O47_7 O 0.1678(3) 0.02820(18) 0.6564(3)
O48_7 O 0.1032(2) 0.02978(17) 0.5467(3)
O50_7 O 0.2513(3) 0.02918(17) 0.3382(3)
O51_7 O 0.2516(2) 0.02544(15) 0.5537(3)
O52_7 O 0.2515(2) 0.07340(16) 0.4498(3)
Mo9_7 Mo 0.16463(3) 0.970960(19) 0.43341(4)
Mo10_7 Mo 0.25064(3) 0.970419(19) 0.57202(4)
Mo11_7 Mo 0.25050(3) 0.91097(2) 0.43542(4)
Mo12_7 Mo 0.33629(3) 0.97142(2) 0.43169(5)
O28_7 O 0.3978(3) 0.97043(19) 0.4495(5)
O29_7 O 0.3338(3) 0.97215(19) 0.3418(4)
O30_7 O 0.3182(2) 0.92435(16) 0.4505(3)
O31_7 O 0.2531(3) 0.86904(16) 0.4595(4)
O32_7 O 0.2511(3) 0.91100(18) 0.3455(3)
O33_7 O 0.1828(2) 0.92415(15) 0.4512(3)
O34_7 O 0.1678(3) 0.97180(18) 0.3436(3)
O35_7 O 0.1032(2) 0.97022(17) 0.4533(3)
O37_7 O 0.2513(3) 0.97082(17) 0.6618(3)
O38_7 O 0.2516(2) 0.97456(15) 0.4463(3)
O39_7 O 0.2515(2) 0.92660(16) 0.5502(3)
O40_7 O 0.3204(2) 0.97874(16) 0.5515(3)
O49_7 O 0.1816(2) 0.97907(15) 0.5509(3)
Mo9_8 Mo 0.83537(3) 0.470960(19) 0.06659(4)
Mo11_8 Mo 0.74950(3) 0.41097(2) 0.06458(4)
Mo12_8 Mo 0.66371(3) 0.47142(2) 0.06831(5)
O27_8 O 0.6796(2) 0.52126(16) 0.0515(3)
O28_8 O 0.6022(3) 0.47043(19) 0.0505(5)
O29_8 O 0.6662(3) 0.47215(19) 0.1582(4)
O30_8 O 0.6818(2) 0.42435(16) 0.0495(3)
O31_8 O 0.7469(3) 0.36904(16) 0.0405(4)
O32_8 O 0.7489(3) 0.41100(18) 0.1545(3)
O33_8 O 0.8172(2) 0.42415(15) 0.0488(3)
O34_8 O 0.8322(3) 0.47180(18) 0.1564(3)
O35_8 O 0.8968(2) 0.47022(17) 0.0467(3)
O36_8 O 0.8184(2) 0.52093(15) 0.0509(3)
O38_8 O 0.7484(2) 0.47456(15) 0.0537(3)
Mo14_8 Mo 0.74936(3) 0.529581(19) 0.07202(4)
O50_8 O 0.7487(3) 0.52918(17) 0.1618(3)
O52_8 O 0.7485(2) 0.57340(16) 0.0502(3)
Mo10_8 Mo 0.74936(3) 0.470419(19) 0.92798(4)
O37_8 O 0.7487(3) 0.47082(17) 0.8382(3)
O39_8 O 0.7485(2) 0.42660(16) 0.9498(3)
Mo13_8 Mo 0.83537(3) 0.529040(19) 0.93341(4)
Mo15_8 Mo 0.74950(3) 0.58903(2) 0.93542(4)
Mo16_8 Mo 0.66371(3) 0.52858(2) 0.93169(5)
O40_8 O 0.6796(2) 0.47874(16) 0.9485(3)
O41_8 O 0.6022(3) 0.52957(19) 0.9495(5)
O42_8 O 0.6662(3) 0.52785(19) 0.8418(4)
O43_8 O 0.6818(2) 0.57565(16) 0.9505(3)
O44_8 O 0.7469(3) 0.63096(16) 0.9595(4)
O45_8 O 0.7489(3) 0.58900(18) 0.8455(3)
O46_8 O 0.8172(2) 0.57585(15) 0.9512(3)
O47_8 O 0.8322(3) 0.52820(18) 0.8436(3)
O48_8 O 0.8968(2) 0.52978(17) 0.9533(3)
O49_8 O 0.8184(2) 0.47907(15) 0.9491(3)
O51_8 O 0.7484(2) 0.52544(15) 0.9463(3)
Zn1 Zn 0.5000 0.01060(4) 0.80173(9)
O53 O 0.5000 0.0135(2) 0.9169(5)
Zn2 Zn 0.7500 0.2500 0.5000
O55 O 0.5000 0.0132(3) 0.6889(6)
O56 O 0.5919(3) 0.11651(19) 0.6453(4)
O57 O 0.7508(3) 0.2297(2) 0.3927(4)
N7 N 0.6864(3) 0.21944(18) 0.5221(4)
N8 N 0.6532(3) 0.1562(2) 0.6571(5)
H8 H 0.6762 0.1625 0.6855
N9 N 0.6085(3) 0.0916(2) 0.7783(4)
C9 C 0.6459(4) 0.2191(3) 0.4806(6)
H10 H 0.6448 0.2337 0.4418
N10 N 0.5885(3) 0.0996(2) 0.8418(4)
C10 C 0.6064(4) 0.1978(3) 0.4939(6)
H11 H 0.5790 0.1984 0.4644
N11 N 0.5537(3) 0.05216(18) 0.8015(4)
C11 C 0.6066(4) 0.1754(3) 0.5507(6)
H12 H 0.5805 0.1602 0.5592
N12 N 0.5565(3) 0.0759(2) 0.8551(4)
C12 C 0.6478(3) 0.1767(2) 0.5944(5)
C13 C 0.6860(4) 0.1991(2) 0.5776(5)
H13 H 0.7131 0.1998 0.6074
C14 C 0.6269(4) 0.1291(2) 0.6755(5)
C15 C 0.6459(4) 0.1139(3) 0.7470(6)
H14 H 0.6758 0.1007 0.7392
H15 H 0.6535 0.1329 0.7787
C16 C 0.5863(4) 0.0629(2) 0.7551(6)
H16 H 0.5929 0.0520 0.7125
O59 O 0.4081(3) 0.11651(19) 0.6453(4)
N19 N 0.3136(3) 0.21944(18) 0.5221(4)
N20 N 0.3468(3) 0.1562(2) 0.6571(5)
H24 H 0.3238 0.1625 0.6855
N21 N 0.3915(3) 0.0916(2) 0.7783(4)
C25 C 0.3541(4) 0.2191(3) 0.4806(6)
H26 H 0.3552 0.2337 0.4418
N22 N 0.4115(3) 0.0996(2) 0.8418(4)
C26 C 0.3936(4) 0.1978(3) 0.4939(6)
H27 H 0.4210 0.1984 0.4644
N23 N 0.4463(3) 0.05216(18) 0.8015(4)
C27 C 0.3934(4) 0.1754(3) 0.5507(6)
H28 H 0.4195 0.1602 0.5592
N24 N 0.4435(3) 0.0759(2) 0.8551(4)
C28 C 0.3522(3) 0.1767(2) 0.5944(5)
C29 C 0.3140(4) 0.1991(2) 0.5776(5)
H29 H 0.2869 0.1998 0.6074
C30 C 0.3731(4) 0.1291(2) 0.6755(5)
C31 C 0.3541(4) 0.1139(3) 0.7470(6)
H30 H 0.3242 0.1007 0.7392
H31 H 0.3465 0.1329 0.7787
C32 C 0.4137(4) 0.0629(2) 0.7551(6)
H32 H 0.4071 0.0520 0.7125
O60 O 0.7492(3) 0.2703(2) 0.6073(4)
Zn4 Zn 0.2500 0.2500 0.5000
N25 N 0.7029(3) 0.2921(2) 0.4662(4)
N26 N 0.7971(3) 0.2079(2) 0.5338(4)
N27 N 0.8136(3) 0.28056(18) 0.4779(4)
H36 H 0.52579 0.0301421 0.932572
N3 N 0.3499(3) 0.83392(19) 0.0280(4)
N4 N 0.3355(3) 0.8311(2) 0.0974(4)
N5 N 0.3033(3) 0.8060(2) 0.0986(4)
N6 N 0.2971(3) 0.7921(2) 0.0338(4)
C7 C 0.3871(4) 0.8595(2) 0.0067(6)
H7 H 0.3932 0.8756 0.0449
N15 N 0.6501(3) 0.83392(19) 0.0280(4)
N16 N 0.6645(3) 0.8311(2) 0.0974(4)
N17 N 0.6967(3) 0.8060(2) 0.0986(4)
N18 N 0.7029(3) 0.7921(2) 0.0338(4)
C23 C 0.6129(4) 0.8595(2) 0.0067(6)
H23 H 0.6068 0.8756 0.0449
Zn3 Zn 0.7500 0.7500 -0.0000
Zn5 Zn 0.2500 0.7500 -0.0000
N1 N 0.4409(3) 0.97349(19) 0.8066(4)
C1 C 0.4054(5) 0.9725(3) 0.7580(6)
H1 H 0.4081 0.9871 0.7194
N2 N 0.3997(3) 0.9066(2) 0.9281(4)
H2 H 0.4229 0.9108 0.9577
O54 O 0.3348(3) 0.87004(19) 0.9063(4)
C2 C 0.3650(5) 0.9508(3) 0.7624(7)
H3 H 0.3408 0.9515 0.7278
C3 C 0.3604(4) 0.9280(3) 0.8179(6)
H4 H 0.3338 0.9128 0.8211
C4 C 0.3967(4) 0.9286(2) 0.8686(5)
C5 C 0.4348(4) 0.9523(2) 0.8616(5)
H5 H 0.4578 0.9536 0.8977
C6 C 0.3695(4) 0.8797(3) 0.9421(5)
H6 H 0.4178 0.8477 0.9960
C8 C 0.3268(4) 0.8097(2) 0.9922(5)
H9 H 0.3308 0.8055 0.9446
N13 N 0.5591(3) 0.97349(19) 0.8066(4)
C17 C 0.5946(5) 0.9725(3) 0.7580(6)
H17 H 0.5919 0.9871 0.7194
N14 N 0.6003(3) 0.9066(2) 0.9281(4)
H18 H 0.5771 0.9108 0.9577
O58 O 0.6652(3) 0.87004(19) 0.9063(4)
C18 C 0.6350(5) 0.9508(3) 0.7624(7)
H19 H 0.6592 0.9515 0.7278
C19 C 0.6396(4) 0.9280(3) 0.8179(6)
H20 H 0.6662 0.9128 0.8211
C20 C 0.6033(4) 0.9286(2) 0.8686(5)
C21 C 0.5652(4) 0.9523(2) 0.8616(5)
H21 H 0.5422 0.9536 0.8977
C22 C 0.6305(4) 0.8797(3) 0.9421(5)
H22 H 0.5822 0.8477 0.9960
C24 C 0.6732(4) 0.8097(2) 0.9922(5)
H25 H 0.6692 0.8055 0.9446
Zn3_2 Zn 0.7500 0.7500 1.0000
Zn5_2 Zn 0.2500 0.7500 1.0000
H35 H 0.507028 0.9901 0.936657
N1_2 N 0.0591(3) 0.02651(19) 0.3066(4)
C1_2 C 0.0946(5) 0.0275(3) 0.2580(6)
H1_2 H 0.0919 0.0129 0.2194
N2_2 N 0.1003(3) 0.0934(2) 0.4281(4)
H2_2 H 0.0771 0.0892 0.4577
O54_2 O 0.1652(3) 0.12996(19) 0.4063(4)
C2_2 C 0.1350(5) 0.0492(3) 0.2624(7)
H3_2 H 0.1592 0.0485 0.2278
N3_2 N 0.1501(3) 0.16608(19) 0.5280(4)
C3_2 C 0.1396(4) 0.0720(3) 0.3179(6)
H4_2 H 0.1662 0.0872 0.3211
N4_2 N 0.1645(3) 0.1689(2) 0.5974(4)
C4_2 C 0.1033(4) 0.0714(2) 0.3686(5)
N5_2 N 0.1967(3) 0.1940(2) 0.5986(4)
C5_2 C 0.0652(4) 0.0477(2) 0.3616(5)
H5_2 H 0.0422 0.0464 0.3977
N6_2 N 0.2029(3) 0.2079(2) 0.5338(4)
C6_2 C 0.1305(4) 0.1203(3) 0.4421(5)
C7_2 C 0.1129(4) 0.1405(2) 0.5067(6)
H6_2 H 0.0822 0.1523 0.4960
H7_2 H 0.1068 0.1244 0.5449
C8_2 C 0.1732(4) 0.1903(2) 0.4922(5)
H9_2 H 0.1692 0.1945 0.4446
Zn1_2 Zn -0.0000 0.98940(4) 0.30173(9)
O53_2 O -0.0000 0.9865(2) 0.4169(5)
O55_2 O 0.0000 0.9868(3) 0.1889(6)
O59_2 O 0.0919(3) 0.88349(19) 0.1453(4)
N19_2 N 0.1864(3) 0.78056(18) 0.0221(4)
N20_2 N 0.1532(3) 0.8438(2) 0.1571(5)
H24_2 H 0.1762 0.8375 0.1855
N21_2 N 0.1085(3) 0.9084(2) 0.2783(4)
N22_2 N 0.0885(3) 0.9004(2) 0.3418(4)
N23_2 N 0.0537(3) 0.94784(18) 0.3015(4)
C27_2 C 0.1066(4) 0.8246(3) 0.0507(6)
H28_2 H 0.0805 0.8398 0.0592
N24_2 N 0.0565(3) 0.9241(2) 0.3551(4)
C28_2 C 0.1478(3) 0.8233(2) 0.0944(5)
C29_2 C 0.1860(4) 0.8009(2) 0.0776(5)
H29_2 H 0.2131 0.8002 0.1074
C30_2 C 0.1269(4) 0.8709(2) 0.1755(5)
C31_2 C 0.1459(4) 0.8861(3) 0.2470(6)
H30_2 H 0.1758 0.8993 0.2392
H31_2 H 0.1535 0.8671 0.2787
C32_2 C 0.0863(4) 0.9371(2) 0.2551(6)
H32_2 H 0.0929 0.9480 0.2125
H37 H 0.0327846 0.978698 0.172291
C25_2 C 0.1459(4) 0.7809(3) 0.9806(6)
H26_2 H 0.1448 0.7663 0.9418
C26_2 C 0.1064(4) 0.8022(3) 0.9939(6)
H27_2 H 0.0790 0.8016 0.9644
N13_2 N 0.9409(3) 0.02651(19) 0.3066(4)
C17_2 C 0.9054(5) 0.0275(3) 0.2580(6)
H17_2 H 0.9081 0.0129 0.2194
N14_2 N 0.8997(3) 0.0934(2) 0.4281(4)
H18_2 H 0.9229 0.0892 0.4577
O58_2 O 0.8348(3) 0.12996(19) 0.4063(4)
C18_2 C 0.8650(5) 0.0492(3) 0.2624(7)
H19_2 H 0.8408 0.0485 0.2278
N15_2 N 0.8499(3) 0.16608(19) 0.5280(4)
C19_2 C 0.8604(4) 0.0720(3) 0.3179(6)
H20_2 H 0.8338 0.0872 0.3211
N16_2 N 0.8355(3) 0.1689(2) 0.5974(4)
C20_2 C 0.8967(4) 0.0714(2) 0.3686(5)
N17_2 N 0.8033(3) 0.1940(2) 0.5986(4)
C21_2 C 0.9348(4) 0.0477(2) 0.3616(5)
H21_2 H 0.9578 0.0464 0.3977
C22_2 C 0.8695(4) 0.1203(3) 0.4421(5)
C23_2 C 0.8871(4) 0.1405(2) 0.5067(6)
H22_2 H 0.9178 0.1523 0.4960
H23_2 H 0.8932 0.1244 0.5449
C24_2 C 0.8268(4) 0.1903(2) 0.4922(5)
H25_2 H 0.8308 0.1945 0.4446
H35_2 H 0.992972 0.00990046 0.436657
Zn1_3 Zn 1.0000 0.98940(4) 0.30173(9)
O53_3 O 1.0000 0.9865(2) 0.4169(5)
O55_3 O 1.0000 0.9868(3) 0.1889(6)
O56_2 O 0.9081(3) 0.88349(19) 0.1453(4)
N7_2 N 0.8136(3) 0.78056(18) 0.0221(4)
N8_2 N 0.8468(3) 0.8438(2) 0.1571(5)
H8_2 H 0.8238 0.8375 0.1855
N9_2 N 0.8915(3) 0.9084(2) 0.2783(4)
N10_2 N 0.9115(3) 0.9004(2) 0.3418(4)
N11_2 N 0.9463(3) 0.94784(18) 0.3015(4)
C11_2 C 0.8934(4) 0.8246(3) 0.0507(6)
H12_2 H 0.9195 0.8398 0.0592
N12_2 N 0.9435(3) 0.9241(2) 0.3551(4)
C12_2 C 0.8522(3) 0.8233(2) 0.0944(5)
C13_2 C 0.8140(4) 0.8009(2) 0.0776(5)
H13_2 H 0.7869 0.8002 0.1074
C14_2 C 0.8731(4) 0.8709(2) 0.1755(5)
C15_2 C 0.8541(4) 0.8861(3) 0.2470(6)
H14_2 H 0.8242 0.8993 0.2392
H15_2 H 0.8465 0.8671 0.2787
C16_2 C 0.9137(4) 0.9371(2) 0.2551(6)
H16_2 H 0.9071 0.9480 0.2125
O60_2 O 0.7508(3) 0.7297(2) 0.1073(4)
H36_2 H 0.97421 0.969858 0.432572
H38 H 0.97414 0.970247 0.17308
O57_2 O 0.7492(3) 0.7703(2) 0.8927(4)
C9_2 C 0.8541(4) 0.7809(3) 0.9806(6)
H10_2 H 0.8552 0.7663 0.9418
C10_2 C 0.8936(4) 0.8022(3) 0.9939(6)
H11_2 H 0.9210 0.8016 0.9644
N25_2 N 0.7971(3) 0.7079(2) 0.9662(4)
N27_2 N 0.6864(3) 0.71944(18) 0.9779(4)
Zn1_4 Zn 0.0000 0.48940(4) 0.19827(9)
O53_4 O 0.0000 0.4865(2) 0.0831(5)
O55_4 O -0.0000 0.4868(3) 0.3111(6)
O56_3 O 0.0919(3) 0.38349(19) 0.3547(4)
O57_3 O 0.2508(3) 0.2703(2) 0.6073(4)
N7_3 N 0.1864(3) 0.28056(18) 0.4779(4)
N8_3 N 0.1532(3) 0.3438(2) 0.3429(5)
H8_3 H 0.1762 0.3375 0.3145
N9_3 N 0.1085(3) 0.4084(2) 0.2217(4)
C9_3 C 0.1459(4) 0.2809(3) 0.5194(6)
H10_3 H 0.1448 0.2663 0.5582
N10_3 N 0.0885(3) 0.4004(2) 0.1582(4)
C10_3 C 0.1064(4) 0.3022(3) 0.5061(6)
H11_3 H 0.0790 0.3016 0.5356
N11_3 N 0.0537(3) 0.44784(18) 0.1985(4)
C11_3 C 0.1066(4) 0.3246(3) 0.4493(6)
H12_3 H 0.0805 0.3398 0.4408
N12_3 N 0.0565(3) 0.4241(2) 0.1449(4)
C12_3 C 0.1478(3) 0.3233(2) 0.4056(5)
C13_3 C 0.1860(4) 0.3009(2) 0.4224(5)
H13_3 H 0.2131 0.3002 0.3926
C14_3 C 0.1269(4) 0.3709(2) 0.3245(5)
C15_3 C 0.1459(4) 0.3861(3) 0.2530(6)
H14_3 H 0.1758 0.3993 0.2608
H15_3 H 0.1535 0.3671 0.2213
C16_3 C 0.0863(4) 0.4371(2) 0.2449(6)
H16_3 H 0.0929 0.4480 0.2875
N13_3 N 0.0591(3) 0.52651(19) 0.1934(4)
C17_3 C 0.0946(5) 0.5275(3) 0.2420(6)
H17_3 H 0.0919 0.5129 0.2806
N14_3 N 0.1003(3) 0.5934(2) 0.0719(4)
H18_3 H 0.0771 0.5892 0.0423
O58_3 O 0.1652(3) 0.62996(19) 0.0937(4)
C18_3 C 0.1350(5) 0.5492(3) 0.2376(7)
H19_3 H 0.1592 0.5485 0.2722
C19_3 C 0.1396(4) 0.5720(3) 0.1821(6)
H20_3 H 0.1662 0.5872 0.1789
C20_3 C 0.1033(4) 0.5714(2) 0.1314(5)
C21_3 C 0.0652(4) 0.5477(2) 0.1384(5)
H21_3 H 0.0422 0.5464 0.1023
C22_3 C 0.1305(4) 0.6203(3) 0.0579(5)
H22_3 H 0.0822 0.6523 0.0040
C24_3 C 0.1732(4) 0.6903(2) 0.0078(5)
H25_3 H 0.1692 0.6945 0.0554
O60_3 O 0.2492(3) 0.2297(2) 0.3927(4)
N26_2 N 0.2971(3) 0.2921(2) 0.4662(4)
H35_3 H 0.00702781 0.5099 0.0633435
H36_3 H 0.0257899 0.469858 0.0674283
H38_2 H 0.0258597 0.470247 0.32692
N15_3 N 0.1501(3) 0.66608(19) 0.9720(4)
N16_3 N 0.1645(3) 0.6689(2) 0.9026(4)
N17_3 N 0.1967(3) 0.6940(2) 0.9014(4)
N18_2 N 0.2029(3) 0.7079(2) 0.9662(4)
C23_3 C 0.1129(4) 0.6405(2) 0.9933(6)
H23_3 H 0.1068 0.6244 0.9551
Zn1_5 Zn 1.0000 0.48940(4) 0.19827(9)
N1_3 N 0.9409(3) 0.52651(19) 0.1934(4)
O53_5 O 1.0000 0.4865(2) 0.0831(5)
C1_3 C 0.9054(5) 0.5275(3) 0.2420(6)
H1_3 H 0.9081 0.5129 0.2806
N2_3 N 0.8997(3) 0.5934(2) 0.0719(4)
H2_3 H 0.9229 0.5892 0.0423
O54_3 O 0.8348(3) 0.62996(19) 0.0937(4)
O55_5 O 1.0000 0.4868(3) 0.3111(6)
C2_3 C 0.8650(5) 0.5492(3) 0.2376(7)
H3_3 H 0.8408 0.5485 0.2722
C3_3 C 0.8604(4) 0.5720(3) 0.1821(6)
H4_3 H 0.8338 0.5872 0.1789
C4_3 C 0.8967(4) 0.5714(2) 0.1314(5)
C5_3 C 0.9348(4) 0.5477(2) 0.1384(5)
H5_3 H 0.9578 0.5464 0.1023
C6_3 C 0.8695(4) 0.6203(3) 0.0579(5)
H6_3 H 0.9178 0.6523 0.0040
C8_3 C 0.8268(4) 0.6903(2) 0.0078(5)
H9_3 H 0.8308 0.6945 0.0554
O59_3 O 0.9081(3) 0.38349(19) 0.3547(4)
N20_3 N 0.8468(3) 0.3438(2) 0.3429(5)
H24_3 H 0.8238 0.3375 0.3145
N21_3 N 0.8915(3) 0.4084(2) 0.2217(4)
C25_3 C 0.8541(4) 0.2809(3) 0.5194(6)
H26_3 H 0.8552 0.2663 0.5582
N22_3 N 0.9115(3) 0.4004(2) 0.1582(4)
C26_3 C 0.8936(4) 0.3022(3) 0.5061(6)
H27_3 H 0.9210 0.3016 0.5356
N23_3 N 0.9463(3) 0.44784(18) 0.1985(4)
C27_3 C 0.8934(4) 0.3246(3) 0.4493(6)
H28_3 H 0.9195 0.3398 0.4408
N24_3 N 0.9435(3) 0.4241(2) 0.1449(4)
C28_3 C 0.8522(3) 0.3233(2) 0.4056(5)
C29_3 C 0.8140(4) 0.3009(2) 0.4224(5)
H29_3 H 0.7869 0.3002 0.3926
C30_3 C 0.8731(4) 0.3709(2) 0.3245(5)
C31_3 C 0.8541(4) 0.3861(3) 0.2530(6)
H30_3 H 0.8242 0.3993 0.2608
H31_3 H 0.8465 0.3671 0.2213
C32_3 C 0.9137(4) 0.4371(2) 0.2449(6)
H32_3 H 0.9071 0.4480 0.2875
H37_2 H 0.967215 0.478698 0.327709
N3_3 N 0.8499(3) 0.66608(19) 0.9720(4)
N4_3 N 0.8355(3) 0.6689(2) 0.9026(4)
N5_3 N 0.8033(3) 0.6940(2) 0.9014(4)
C7_3 C 0.8871(4) 0.6405(2) 0.9933(6)
H7_3 H 0.8932 0.6244 0.9551
O57_4 O 0.2492(3) 0.7297(2) 0.1073(4)
C9_4 C 0.3541(4) 0.7191(3) 0.0194(6)
H10_4 H 0.3552 0.7337 0.0582
C10_4 C 0.3936(4) 0.6978(3) 0.0061(6)
H11_4 H 0.4210 0.6984 0.0356
C25_4 C 0.6459(4) 0.7191(3) 0.0194(6)
H26_4 H 0.6448 0.7337 0.0582
C26_4 C 0.6064(4) 0.6978(3) 0.0061(6)
H27_4 H 0.5790 0.6984 0.0356
Zn1_6 Zn 0.5000 0.51060(4) 0.69827(9)
N1_4 N 0.5591(3) 0.47349(19) 0.6934(4)
O53_6 O 0.5000 0.5135(2) 0.5831(5)
C1_4 C 0.5946(5) 0.4725(3) 0.7420(6)
H1_4 H 0.5919 0.4871 0.7806
N2_4 N 0.6003(3) 0.4066(2) 0.5719(4)
H2_4 H 0.5771 0.4108 0.5423
O54_4 O 0.6652(3) 0.37004(19) 0.5937(4)
O55_6 O 0.5000 0.5132(3) 0.8111(6)
C2_4 C 0.6350(5) 0.4508(3) 0.7376(7)
H3_4 H 0.6592 0.4515 0.7722
N3_4 N 0.6501(3) 0.33392(19) 0.4720(4)
O56_4 O 0.4081(3) 0.61651(19) 0.8547(4)
C3_4 C 0.6396(4) 0.4280(3) 0.6821(6)
H4_4 H 0.6662 0.4128 0.6789
N4_4 N 0.6645(3) 0.3311(2) 0.4026(4)
C4_4 C 0.6033(4) 0.4286(2) 0.6314(5)
N5_4 N 0.6967(3) 0.3060(2) 0.4014(4)
C5_4 C 0.5652(4) 0.4523(2) 0.6384(5)
H5_4 H 0.5422 0.4536 0.6023
C6_4 C 0.6305(4) 0.3797(3) 0.5579(5)
N7_4 N 0.3136(3) 0.71944(18) 0.9779(4)
C7_4 C 0.6129(4) 0.3595(2) 0.4933(6)
H6_4 H 0.5822 0.3477 0.5040
H7_4 H 0.6068 0.3756 0.4551
N8_4 N 0.3468(3) 0.6562(2) 0.8429(5)
H8_4 H 0.3238 0.6625 0.8145
C8_4 C 0.6732(4) 0.3097(2) 0.5078(5)
H9_4 H 0.6692 0.3055 0.5554
N9_4 N 0.3915(3) 0.5916(2) 0.7217(4)
N10_4 N 0.4115(3) 0.5996(2) 0.6582(4)
N11_4 N 0.4463(3) 0.55216(18) 0.6985(4)
C11_4 C 0.3934(4) 0.6754(3) 0.9493(6)
H12_4 H 0.4195 0.6602 0.9408
N12_4 N 0.4435(3) 0.5759(2) 0.6449(4)
C12_4 C 0.3522(3) 0.6767(2) 0.9056(5)
C13_4 C 0.3140(4) 0.6991(2) 0.9224(5)
H13_4 H 0.2869 0.6998 0.8926
C14_4 C 0.3731(4) 0.6291(2) 0.8245(5)
C15_4 C 0.3541(4) 0.6139(3) 0.7530(6)
H14_4 H 0.3242 0.6007 0.7608
H15_4 H 0.3465 0.6329 0.7213
C16_4 C 0.4137(4) 0.5629(2) 0.7449(6)
H16_4 H 0.4071 0.5520 0.7875
N13_4 N 0.4409(3) 0.47349(19) 0.6934(4)
C17_4 C 0.4054(5) 0.4725(3) 0.7420(6)
H17_4 H 0.4081 0.4871 0.7806
N14_4 N 0.3997(3) 0.4066(2) 0.5719(4)
H18_4 H 0.4229 0.4108 0.5423
O58_4 O 0.3348(3) 0.37004(19) 0.5937(4)
C18_4 C 0.3650(5) 0.4508(3) 0.7376(7)
H19_4 H 0.3408 0.4515 0.7722
N15_4 N 0.3499(3) 0.33392(19) 0.4720(4)
O59_4 O 0.5919(3) 0.61651(19) 0.8547(4)
C19_4 C 0.3604(4) 0.4280(3) 0.6821(6)
H20_4 H 0.3338 0.4128 0.6789
N16_4 N 0.3355(3) 0.3311(2) 0.4026(4)
C20_4 C 0.3967(4) 0.4286(2) 0.6314(5)
N17_4 N 0.3033(3) 0.3060(2) 0.4014(4)
C21_4 C 0.4348(4) 0.4523(2) 0.6384(5)
H21_4 H 0.4578 0.4536 0.6023
C22_4 C 0.3695(4) 0.3797(3) 0.5579(5)
C23_4 C 0.3871(4) 0.3595(2) 0.4933(6)
H22_4 H 0.4178 0.3477 0.5040
H23_4 H 0.3932 0.3756 0.4551
N20_4 N 0.6532(3) 0.6562(2) 0.8429(5)
H24_4 H 0.6762 0.6625 0.8145
C24_4 C 0.3268(4) 0.3097(2) 0.5078(5)
H25_4 H 0.3308 0.3055 0.5554
N21_4 N 0.6085(3) 0.5916(2) 0.7217(4)
N22_4 N 0.5885(3) 0.5996(2) 0.6582(4)
N23_4 N 0.5537(3) 0.55216(18) 0.6985(4)
C27_4 C 0.6066(4) 0.6754(3) 0.9493(6)
H28_4 H 0.5805 0.6602 0.9408
N24_4 N 0.5565(3) 0.5759(2) 0.6449(4)
C28_4 C 0.6478(3) 0.6767(2) 0.9056(5)
C29_4 C 0.6860(4) 0.6991(2) 0.9224(5)
H29_4 H 0.7131 0.6998 0.8926
C30_4 C 0.6269(4) 0.6291(2) 0.8245(5)
C31_4 C 0.6459(4) 0.6139(3) 0.7530(6)
H30_4 H 0.6758 0.6007 0.7608
H31_4 H 0.6535 0.6329 0.7213
C32_4 C 0.5863(4) 0.5629(2) 0.7449(6)
H32_4 H 0.5929 0.5520 0.7875
O60_4 O 0.2508(3) 0.7703(2) 0.8927(4)
H36_4 H 0.47421 0.0301421 0.932572
H35_4 H 0.492972 0.9901 0.936657
H35_5 H 0.00702781 0.00990046 0.436657
H36_5 H 0.0257899 0.969858 0.432572
H38_3 H 0.0258597 0.970247 0.17308
H37_3 H 0.967215 0.978698 0.172291
H37_4 H 0.0327846 0.478698 0.327709
H35_6 H 0.992972 0.5099 0.0633435
H36_6 H 0.97421 0.469858 0.0674283
H38_4 H 0.97414 0.470247 0.32692
Zn1_7 Zn 0.5000 0.48940(4) 0.30173(9)
N1_5 N 0.5591(3) 0.52651(19) 0.3066(4)
O53_7 O 0.5000 0.4865(2) 0.4169(5)
C1_5 C 0.5946(5) 0.5275(3) 0.2580(6)
H1_5 H 0.5919 0.5129 0.2194
Zn2_2 Zn 0.2500 0.2500 -0.0000
N2_5 N 0.6003(3) 0.5934(2) 0.4281(4)
H2_5 H 0.5771 0.5892 0.4577
O54_5 O 0.6652(3) 0.62996(19) 0.4063(4)
O55_7 O 0.5000 0.4868(3) 0.1889(6)
C2_5 C 0.6350(5) 0.5492(3) 0.2624(7)
H3_5 H 0.6592 0.5485 0.2278
N3_5 N 0.6501(3) 0.66608(19) 0.5280(4)
O56_5 O 0.4081(3) 0.38349(19) 0.1453(4)
C3_5 C 0.6396(4) 0.5720(3) 0.3179(6)
H4_5 H 0.6662 0.5872 0.3211
N4_5 N 0.6645(3) 0.6689(2) 0.5974(4)
C4_5 C 0.6033(4) 0.5714(2) 0.3686(5)
N5_5 N 0.6967(3) 0.6940(2) 0.5986(4)
C5_5 C 0.5652(4) 0.5477(2) 0.3616(5)
H5_5 H 0.5422 0.5464 0.3977
N6_3 N 0.7029(3) 0.7079(2) 0.5338(4)
C6_5 C 0.6305(4) 0.6203(3) 0.4421(5)
N7_5 N 0.3136(3) 0.28056(18) 0.0221(4)
C7_5 C 0.6129(4) 0.6405(2) 0.5067(6)
H6_5 H 0.5822 0.6523 0.4960
H7_5 H 0.6068 0.6244 0.5449
N8_5 N 0.3468(3) 0.3438(2) 0.1571(5)
H8_5 H 0.3238 0.3375 0.1855
C8_5 C 0.6732(4) 0.6903(2) 0.4922(5)
H9_5 H 0.6692 0.6945 0.4446
N9_5 N 0.3915(3) 0.4084(2) 0.2783(4)
N10_5 N 0.4115(3) 0.4004(2) 0.3418(4)
N11_5 N 0.4463(3) 0.44784(18) 0.3015(4)
C11_5 C 0.3934(4) 0.3246(3) 0.0507(6)
H12_5 H 0.4195 0.3398 0.0592
N12_5 N 0.4435(3) 0.4241(2) 0.3551(4)
C12_5 C 0.3522(3) 0.3233(2) 0.0944(5)
C13_5 C 0.3140(4) 0.3009(2) 0.0776(5)
H13_5 H 0.2869 0.3002 0.1074
C14_5 C 0.3731(4) 0.3709(2) 0.1755(5)
C15_5 C 0.3541(4) 0.3861(3) 0.2470(6)
H14_5 H 0.3242 0.3993 0.2392
H15_5 H 0.3465 0.3671 0.2787
C16_5 C 0.4137(4) 0.4371(2) 0.2551(6)
H16_5 H 0.4071 0.4480 0.2125
N13_5 N 0.4409(3) 0.52651(19) 0.3066(4)
C17_5 C 0.4054(5) 0.5275(3) 0.2580(6)
H17_5 H 0.4081 0.5129 0.2194
N14_5 N 0.3997(3) 0.5934(2) 0.4281(4)
H18_5 H 0.4229 0.5892 0.4577
O58_5 O 0.3348(3) 0.62996(19) 0.4063(4)
C18_5 C 0.3650(5) 0.5492(3) 0.2624(7)
H19_5 H 0.3408 0.5485 0.2278
N15_5 N 0.3499(3) 0.66608(19) 0.5280(4)
O59_5 O 0.5919(3) 0.38349(19) 0.1453(4)
C19_5 C 0.3604(4) 0.5720(3) 0.3179(6)
H20_5 H 0.3338 0.5872 0.3211
N16_5 N 0.3355(3) 0.6689(2) 0.5974(4)
C20_5 C 0.3967(4) 0.5714(2) 0.3686(5)
N17_5 N 0.3033(3) 0.6940(2) 0.5986(4)
C21_5 C 0.4348(4) 0.5477(2) 0.3616(5)
H21_5 H 0.4578 0.5464 0.3977
N18_3 N 0.2971(3) 0.7079(2) 0.5338(4)
C22_5 C 0.3695(4) 0.6203(3) 0.4421(5)
N19_3 N 0.6864(3) 0.28056(18) 0.0221(4)
C23_5 C 0.3871(4) 0.6405(2) 0.5067(6)
H22_5 H 0.4178 0.6523 0.4960
H23_5 H 0.3932 0.6244 0.5449
N20_5 N 0.6532(3) 0.3438(2) 0.1571(5)
H24_5 H 0.6762 0.3375 0.1855
C24_5 C 0.3268(4) 0.6903(2) 0.4922(5)
H25_5 H 0.3308 0.6945 0.4446
N21_5 N 0.6085(3) 0.4084(2) 0.2783(4)
N22_5 N 0.5885(3) 0.4004(2) 0.3418(4)
N23_5 N 0.5537(3) 0.44784(18) 0.3015(4)
C27_5 C 0.6066(4) 0.3246(3) 0.0507(6)
H28_5 H 0.5805 0.3398 0.0592
N24_5 N 0.5565(3) 0.4241(2) 0.3551(4)
C28_5 C 0.6478(3) 0.3233(2) 0.0944(5)
C29_5 C 0.6860(4) 0.3009(2) 0.0776(5)
H29_5 H 0.7131 0.3002 0.1074
C30_5 C 0.6269(4) 0.3709(2) 0.1755(5)
C31_5 C 0.6459(4) 0.3861(3) 0.2470(6)
H30_5 H 0.6758 0.3993 0.2392
H31_5 H 0.6535 0.3671 0.2787
C32_5 C 0.5863(4) 0.4371(2) 0.2551(6)
H32_5 H 0.5929 0.4480 0.2125
O60_5 O 0.2508(3) 0.2297(2) 0.1073(4)
Zn3_3 Zn 0.2500 0.7500 0.5000
Zn4_2 Zn 0.7500 0.2500 -0.0000
Zn5_3 Zn 0.7500 0.7500 0.5000
N26_3 N 0.2029(3) 0.2921(2) 0.0338(4)
Zn2_3 Zn 0.2500 0.2500 1.0000
O57_5 O 0.2492(3) 0.2703(2) 0.8927(4)
C9_5 C 0.3541(4) 0.2809(3) 0.9806(6)
H10_5 H 0.3552 0.2663 0.9418
C10_5 C 0.3936(4) 0.3022(3) 0.9939(6)
H11_5 H 0.4210 0.3016 0.9644
C25_5 C 0.6459(4) 0.2809(3) 0.9806(6)
H26_5 H 0.6448 0.2663 0.9418
C26_5 C 0.6064(4) 0.3022(3) 0.9939(6)
H27_5 H 0.5790 0.3016 0.9644
Zn4_3 Zn 0.7500 0.2500 1.0000
N25_3 N 0.2971(3) 0.2079(2) 0.9662(4)
N27_3 N 0.1864(3) 0.21944(18) 0.9779(4)
N1_6 N 0.4409(3) 0.02651(19) 0.1934(4)
C1_6 C 0.4054(5) 0.0275(3) 0.2420(6)
H1_6 H 0.4081 0.0129 0.2806
N2_6 N 0.3997(3) 0.0934(2) 0.0719(4)
H2_6 H 0.4229 0.0892 0.0423
O54_6 O 0.3348(3) 0.12996(19) 0.0937(4)
C2_6 C 0.3650(5) 0.0492(3) 0.2376(7)
H3_6 H 0.3408 0.0485 0.2722
C3_6 C 0.3604(4) 0.0720(3) 0.1821(6)
H4_6 H 0.3338 0.0872 0.1789
C4_6 C 0.3967(4) 0.0714(2) 0.1314(5)
C5_6 C 0.4348(4) 0.0477(2) 0.1384(5)
H5_6 H 0.4578 0.0464 0.1023
C6_6 C 0.3695(4) 0.1203(3) 0.0579(5)
H6_6 H 0.4178 0.1523 0.0040
C8_6 C 0.3268(4) 0.1903(2) 0.0078(5)
H9_6 H 0.3308 0.1945 0.0554
N13_6 N 0.5591(3) 0.02651(19) 0.1934(4)
C17_6 C 0.5946(5) 0.0275(3) 0.2420(6)
H17_6 H 0.5919 0.0129 0.2806
N14_6 N 0.6003(3) 0.0934(2) 0.0719(4)
H18_6 H 0.5771 0.0892 0.0423
O58_6 O 0.6652(3) 0.12996(19) 0.0937(4)
C18_6 C 0.6350(5) 0.0492(3) 0.2376(7)
H19_6 H 0.6592 0.0485 0.2722
C19_6 C 0.6396(4) 0.0720(3) 0.1821(6)
H20_6 H 0.6662 0.0872 0.1789
C20_6 C 0.6033(4) 0.0714(2) 0.1314(5)
C21_6 C 0.5652(4) 0.0477(2) 0.1384(5)
H21_6 H 0.5422 0.0464 0.1023
C22_6 C 0.6305(4) 0.1203(3) 0.0579(5)
H22_6 H 0.5822 0.1523 0.0040
C24_6 C 0.6732(4) 0.1903(2) 0.0078(5)
H25_6 H 0.6692 0.1945 0.0554
H35_7 H 0.507028 0.00990046 0.0633435
N3_6 N 0.3499(3) 0.16608(19) 0.9720(4)
N4_6 N 0.3355(3) 0.1689(2) 0.9026(4)
N5_6 N 0.3033(3) 0.1940(2) 0.9014(4)
C7_6 C 0.3871(4) 0.1405(2) 0.9933(6)
H7_6 H 0.3932 0.1244 0.9551
N15_6 N 0.6501(3) 0.16608(19) 0.9720(4)
N16_6 N 0.6645(3) 0.1689(2) 0.9026(4)
N17_6 N 0.6967(3) 0.1940(2) 0.9014(4)
N18_4 N 0.7029(3) 0.2079(2) 0.9662(4)
C23_6 C 0.6129(4) 0.1405(2) 0.9933(6)
H23_6 H 0.6068 0.1244 0.9551
Zn1_8 Zn 0.5000 0.98940(4) 0.19827(9)
O53_8 O 0.5000 0.9865(2) 0.0831(5)
O55_8 O 0.5000 0.9868(3) 0.3111(6)
O56_6 O 0.5919(3) 0.88349(19) 0.3547(4)
O57_6 O 0.7508(3) 0.7703(2) 0.6073(4)
N7_6 N 0.6864(3) 0.78056(18) 0.4779(4)
N8_6 N 0.6532(3) 0.8438(2) 0.3429(5)
H8_6 H 0.6762 0.8375 0.3145
N9_6 N 0.6085(3) 0.9084(2) 0.2217(4)
C9_6 C 0.6459(4) 0.7809(3) 0.5194(6)
H10_6 H 0.6448 0.7663 0.5582
N10_6 N 0.5885(3) 0.9004(2) 0.1582(4)
C10_6 C 0.6064(4) 0.8022(3) 0.5061(6)
H11_6 H 0.5790 0.8016 0.5356
N11_6 N 0.5537(3) 0.94784(18) 0.1985(4)
C11_6 C 0.6066(4) 0.8246(3) 0.4493(6)
H12_6 H 0.5805 0.8398 0.4408
N12_6 N 0.5565(3) 0.9241(2) 0.1449(4)
C12_6 C 0.6478(3) 0.8233(2) 0.4056(5)
C13_6 C 0.6860(4) 0.8009(2) 0.4224(5)
H13_6 H 0.7131 0.8002 0.3926
C14_6 C 0.6269(4) 0.8709(2) 0.3245(5)
C15_6 C 0.6459(4) 0.8861(3) 0.2530(6)
H14_6 H 0.6758 0.8993 0.2608
H15_6 H 0.6535 0.8671 0.2213
C16_6 C 0.5863(4) 0.9371(2) 0.2449(6)
H16_6 H 0.5929 0.9480 0.2875
O59_6 O 0.4081(3) 0.88349(19) 0.3547(4)
N19_4 N 0.3136(3) 0.78056(18) 0.4779(4)
N20_6 N 0.3468(3) 0.8438(2) 0.3429(5)
H24_6 H 0.3238 0.8375 0.3145
N21_6 N 0.3915(3) 0.9084(2) 0.2217(4)
C25_6 C 0.3541(4) 0.7809(3) 0.5194(6)
H26_6 H 0.3552 0.7663 0.5582
N22_6 N 0.4115(3) 0.9004(2) 0.1582(4)
C26_6 C 0.3936(4) 0.8022(3) 0.5061(6)
H27_6 H 0.4210 0.8016 0.5356
N23_6 N 0.4463(3) 0.94784(18) 0.1985(4)
C27_6 C 0.3934(4) 0.8246(3) 0.4493(6)
H28_6 H 0.4195 0.8398 0.4408
N24_6 N 0.4435(3) 0.9241(2) 0.1449(4)
C28_6 C 0.3522(3) 0.8233(2) 0.4056(5)
C29_6 C 0.3140(4) 0.8009(2) 0.4224(5)
H29_6 H 0.2869 0.8002 0.3926
C30_6 C 0.3731(4) 0.8709(2) 0.3245(5)
C31_6 C 0.3541(4) 0.8861(3) 0.2530(6)
H30_6 H 0.3242 0.8993 0.2608
H31_6 H 0.3465 0.8671 0.2213
C32_6 C 0.4137(4) 0.9371(2) 0.2449(6)
H32_6 H 0.4071 0.9480 0.2875
O60_6 O 0.7492(3) 0.7297(2) 0.3927(4)
N26_4 N 0.7971(3) 0.7921(2) 0.4662(4)
N27_4 N 0.8136(3) 0.71944(18) 0.5221(4)
H36_7 H 0.52579 0.969858 0.0674283
C25_7 C 0.1459(4) 0.2191(3) 0.0194(6)
H26_7 H 0.1448 0.2337 0.0582
C26_7 C 0.1064(4) 0.1978(3) 0.0061(6)
H27_7 H 0.0790 0.1984 0.0356
Zn1_9 Zn -0.0000 0.01060(4) 0.69827(9)
O53_9 O -0.0000 0.0135(2) 0.5831(5)
O55_9 O 0.0000 0.0132(3) 0.8111(6)
O59_7 O 0.0919(3) 0.11651(19) 0.8547(4)
N20_7 N 0.1532(3) 0.1562(2) 0.8429(5)
H24_7 H 0.1762 0.1625 0.8145
N21_7 N 0.1085(3) 0.0916(2) 0.7217(4)
N22_7 N 0.0885(3) 0.0996(2) 0.6582(4)
N23_7 N 0.0537(3) 0.05216(18) 0.6985(4)
C27_7 C 0.1066(4) 0.1754(3) 0.9493(6)
H28_7 H 0.0805 0.1602 0.9408
N24_7 N 0.0565(3) 0.0759(2) 0.6449(4)
C28_7 C 0.1478(3) 0.1767(2) 0.9056(5)
C29_7 C 0.1860(4) 0.1991(2) 0.9224(5)
H29_7 H 0.2131 0.1998 0.8926
C30_7 C 0.1269(4) 0.1291(2) 0.8245(5)
C31_7 C 0.1459(4) 0.1139(3) 0.7530(6)
H30_7 H 0.1758 0.1007 0.7608
H31_7 H 0.1535 0.1329 0.7213
C32_7 C 0.0863(4) 0.0629(2) 0.7449(6)
H32_7 H 0.0929 0.0520 0.7875
H37_5 H 0.0327846 0.021302 0.827709
N1_7 N 0.0591(3) 0.97349(19) 0.6934(4)
C1_7 C 0.0946(5) 0.9725(3) 0.7420(6)
H1_7 H 0.0919 0.9871 0.7806
N2_7 N 0.1003(3) 0.9066(2) 0.5719(4)
H2_7 H 0.0771 0.9108 0.5423
O54_7 O 0.1652(3) 0.87004(19) 0.5937(4)
C2_7 C 0.1350(5) 0.9508(3) 0.7376(7)
H3_7 H 0.1592 0.9515 0.7722
N3_7 N 0.1501(3) 0.83392(19) 0.4720(4)
C3_7 C 0.1396(4) 0.9280(3) 0.6821(6)
H4_7 H 0.1662 0.9128 0.6789
N4_7 N 0.1645(3) 0.8311(2) 0.4026(4)
C4_7 C 0.1033(4) 0.9286(2) 0.6314(5)
N5_7 N 0.1967(3) 0.8060(2) 0.4014(4)
C5_7 C 0.0652(4) 0.9523(2) 0.6384(5)
H5_7 H 0.0422 0.9536 0.6023
N6_4 N 0.2029(3) 0.7921(2) 0.4662(4)
C6_7 C 0.1305(4) 0.8797(3) 0.5579(5)
C7_7 C 0.1129(4) 0.8595(2) 0.4933(6)
H6_7 H 0.0822 0.8477 0.5040
H7_7 H 0.1068 0.8756 0.4551
C8_7 C 0.1732(4) 0.8097(2) 0.5078(5)
H9_7 H 0.1692 0.8055 0.5554
O57_7 O 0.7492(3) 0.2297(2) 0.1073(4)
C9_7 C 0.8541(4) 0.2191(3) 0.0194(6)
H10_7 H 0.8552 0.2337 0.0582
C10_7 C 0.8936(4) 0.1978(3) 0.0061(6)
H11_7 H 0.9210 0.1984 0.0356
N25_4 N 0.7971(3) 0.2921(2) 0.0338(4)
Zn1_10 Zn 1.0000 0.01060(4) 0.69827(9)
O53_10 O 1.0000 0.0135(2) 0.5831(5)
O55_10 O 1.0000 0.0132(3) 0.8111(6)
O56_7 O 0.9081(3) 0.11651(19) 0.8547(4)
N7_7 N 0.8136(3) 0.21944(18) 0.9779(4)
N8_7 N 0.8468(3) 0.1562(2) 0.8429(5)
H8_7 H 0.8238 0.1625 0.8145
N9_7 N 0.8915(3) 0.0916(2) 0.7217(4)
N10_7 N 0.9115(3) 0.0996(2) 0.6582(4)
N11_7 N 0.9463(3) 0.05216(18) 0.6985(4)
C11_7 C 0.8934(4) 0.1754(3) 0.9493(6)
H12_7 H 0.9195 0.1602 0.9408
N12_7 N 0.9435(3) 0.0759(2) 0.6449(4)
C12_7 C 0.8522(3) 0.1767(2) 0.9056(5)
C13_7 C 0.8140(4) 0.1991(2) 0.9224(5)
H13_7 H 0.7869 0.1998 0.8926
C14_7 C 0.8731(4) 0.1291(2) 0.8245(5)
C15_7 C 0.8541(4) 0.1139(3) 0.7530(6)
H14_7 H 0.8242 0.1007 0.7608
H15_7 H 0.8465 0.1329 0.7213
C16_7 C 0.9137(4) 0.0629(2) 0.7449(6)
H16_7 H 0.9071 0.0520 0.7875
O60_7 O 0.7508(3) 0.2703(2) 0.8927(4)
H36_8 H 0.97421 0.0301421 0.567428
H38_5 H 0.97414 0.0297532 0.82692
N13_7 N 0.9409(3) 0.97349(19) 0.6934(4)
C17_7 C 0.9054(5) 0.9725(3) 0.7420(6)
H17_7 H 0.9081 0.9871 0.7806
N14_7 N 0.8997(3) 0.9066(2) 0.5719(4)
H18_7 H 0.9229 0.9108 0.5423
O58_7 O 0.8348(3) 0.87004(19) 0.5937(4)
C18_7 C 0.8650(5) 0.9508(3) 0.7376(7)
H19_7 H 0.8408 0.9515 0.7722
N15_7 N 0.8499(3) 0.83392(19) 0.4720(4)
C19_7 C 0.8604(4) 0.9280(3) 0.6821(6)
H20_7 H 0.8338 0.9128 0.6789
N16_7 N 0.8355(3) 0.8311(2) 0.4026(4)
C20_7 C 0.8967(4) 0.9286(2) 0.6314(5)
N17_7 N 0.8033(3) 0.8060(2) 0.4014(4)
C21_7 C 0.9348(4) 0.9523(2) 0.6384(5)
H21_7 H 0.9578 0.9536 0.6023
C22_7 C 0.8695(4) 0.8797(3) 0.5579(5)
C23_7 C 0.8871(4) 0.8595(2) 0.4933(6)
H22_7 H 0.9178 0.8477 0.5040
H23_7 H 0.8932 0.8756 0.4551
C24_7 C 0.8268(4) 0.8097(2) 0.5078(5)
H25_7 H 0.8308 0.8055 0.5554
H35_8 H 0.992972 0.9901 0.563343
N15_8 N 0.1501(3) 0.33392(19) 0.0280(4)
N16_8 N 0.1645(3) 0.3311(2) 0.0974(4)
N17_8 N 0.1967(3) 0.3060(2) 0.0986(4)
C23_8 C 0.1129(4) 0.3595(2) 0.0067(6)
H23_8 H 0.1068 0.3756 0.0449
Zn1_11 Zn 0.0000 0.51060(4) 0.80173(9)
O53_11 O 0.0000 0.5135(2) 0.9169(5)
O55_11 O -0.0000 0.5132(3) 0.6889(6)
O56_8 O 0.0919(3) 0.61651(19) 0.6453(4)
O57_8 O 0.2508(3) 0.7297(2) 0.3927(4)
N7_8 N 0.1864(3) 0.71944(18) 0.5221(4)
N8_8 N 0.1532(3) 0.6562(2) 0.6571(5)
H8_8 H 0.1762 0.6625 0.6855
N9_8 N 0.1085(3) 0.5916(2) 0.7783(4)
C9_8 C 0.1459(4) 0.7191(3) 0.4806(6)
H10_8 H 0.1448 0.7337 0.4418
N10_8 N 0.0885(3) 0.5996(2) 0.8418(4)
C10_8 C 0.1064(4) 0.6978(3) 0.4939(6)
H11_8 H 0.0790 0.6984 0.4644
N11_8 N 0.0537(3) 0.55216(18) 0.8015(4)
C11_8 C 0.1066(4) 0.6754(3) 0.5507(6)
H12_8 H 0.0805 0.6602 0.5592
N12_8 N 0.0565(3) 0.5759(2) 0.8551(4)
C12_8 C 0.1478(3) 0.6767(2) 0.5944(5)
C13_8 C 0.1860(4) 0.6991(2) 0.5776(5)
H13_8 H 0.2131 0.6998 0.6074
C14_8 C 0.1269(4) 0.6291(2) 0.6755(5)
C15_8 C 0.1459(4) 0.6139(3) 0.7470(6)
H14_8 H 0.1758 0.6007 0.7392
H15_8 H 0.1535 0.6329 0.7787
C16_8 C 0.0863(4) 0.5629(2) 0.7551(6)
H16_8 H 0.0929 0.5520 0.7125
N13_8 N 0.0591(3) 0.47349(19) 0.8066(4)
C17_8 C 0.0946(5) 0.4725(3) 0.7580(6)
H17_8 H 0.0919 0.4871 0.7194
N14_8 N 0.1003(3) 0.4066(2) 0.9281(4)
H18_8 H 0.0771 0.4108 0.9577
O58_8 O 0.1652(3) 0.37004(19) 0.9063(4)
C18_8 C 0.1350(5) 0.4508(3) 0.7624(7)
H19_8 H 0.1592 0.4515 0.7278
C19_8 C 0.1396(4) 0.4280(3) 0.8179(6)
H20_8 H 0.1662 0.4128 0.8211
C20_8 C 0.1033(4) 0.4286(2) 0.8686(5)
C21_8 C 0.0652(4) 0.4523(2) 0.8616(5)
H21_8 H 0.0422 0.4536 0.8977
C22_8 C 0.1305(4) 0.3797(3) 0.9421(5)
H22_8 H 0.0822 0.3477 0.9960
C24_8 C 0.1732(4) 0.3097(2) 0.9922(5)
H25_8 H 0.1692 0.3055 0.9446
O60_8 O 0.2492(3) 0.7703(2) 0.6073(4)
H35_9 H 0.00702781 0.4901 0.936657
H36_9 H 0.0257899 0.530142 0.932572
H38_6 H 0.0258597 0.529753 0.67308
N3_8 N 0.8499(3) 0.33392(19) 0.0280(4)
N4_8 N 0.8355(3) 0.3311(2) 0.0974(4)
N5_8 N 0.8033(3) 0.3060(2) 0.0986(4)
C7_8 C 0.8871(4) 0.3595(2) 0.0067(6)
H7_8 H 0.8932 0.3756 0.0449
Zn1_12 Zn 1.0000 0.51060(4) 0.80173(9)
N1_8 N 0.9409(3) 0.47349(19) 0.8066(4)
O53_12 O 1.0000 0.5135(2) 0.9169(5)
C1_8 C 0.9054(5) 0.4725(3) 0.7580(6)
H1_8 H 0.9081 0.4871 0.7194
N2_8 N 0.8997(3) 0.4066(2) 0.9281(4)
H2_8 H 0.9229 0.4108 0.9577
O54_8 O 0.8348(3) 0.37004(19) 0.9063(4)
O55_12 O 1.0000 0.5132(3) 0.6889(6)
C2_8 C 0.8650(5) 0.4508(3) 0.7624(7)
H3_8 H 0.8408 0.4515 0.7278
C3_8 C 0.8604(4) 0.4280(3) 0.8179(6)
H4_8 H 0.8338 0.4128 0.8211
C4_8 C 0.8967(4) 0.4286(2) 0.8686(5)
C5_8 C 0.9348(4) 0.4523(2) 0.8616(5)
H5_8 H 0.9578 0.4536 0.8977
C6_8 C 0.8695(4) 0.3797(3) 0.9421(5)
H6_8 H 0.9178 0.3477 0.9960
C8_8 C 0.8268(4) 0.3097(2) 0.9922(5)
H9_8 H 0.8308 0.3055 0.9446
O59_8 O 0.9081(3) 0.61651(19) 0.6453(4)
N20_8 N 0.8468(3) 0.6562(2) 0.6571(5)
H24_8 H 0.8238 0.6625 0.6855
N21_8 N 0.8915(3) 0.5916(2) 0.7783(4)
C25_8 C 0.8541(4) 0.7191(3) 0.4806(6)
H26_8 H 0.8552 0.7337 0.4418
N22_8 N 0.9115(3) 0.5996(2) 0.8418(4)
C26_8 C 0.8936(4) 0.6978(3) 0.4939(6)
H27_8 H 0.9210 0.6984 0.4644
N23_8 N 0.9463(3) 0.55216(18) 0.8015(4)
C27_8 C 0.8934(4) 0.6754(3) 0.5507(6)
H28_8 H 0.9195 0.6602 0.5592
N24_8 N 0.9435(3) 0.5759(2) 0.8551(4)
C28_8 C 0.8522(3) 0.6767(2) 0.5944(5)
C29_8 C 0.8140(4) 0.6991(2) 0.5776(5)
H29_8 H 0.7869 0.6998 0.6074
C30_8 C 0.8731(4) 0.6291(2) 0.6755(5)
C31_8 C 0.8541(4) 0.6139(3) 0.7470(6)
H30_8 H 0.8242 0.6007 0.7392
H31_8 H 0.8465 0.6329 0.7787
C32_8 C 0.9137(4) 0.5629(2) 0.7551(6)
H32_8 H 0.9071 0.5520 0.7125
H37_6 H 0.967215 0.521302 0.672291
H35_10 H 0.492972 0.00990046 0.0633435
H36_10 H 0.47421 0.969858 0.0674283
H36_11 H 0.0257899 0.0301421 0.567428
H38_7 H 0.0258597 0.0297532 0.82692
H35_11 H 0.00702781 0.9901 0.563343
H37_7 H 0.967215 0.021302 0.827709
H37_8 H 0.0327846 0.521302 0.672291
H35_12 H 0.992972 0.4901 0.936657
H36_12 H 0.97421 0.530142 0.932572
H38_8 H 0.97414 0.529753 0.67308
loop_
_geom_bond_atom_site_label_1
_geom_bond_atom_site_label_2
_geom_bond_site_symmetry_1
_geom_bond_site_symmetry_2
Mo1 O1 1_555 1_555
O1 Mo4 1_555 1_555
Mo2 O10 1_555 1_555
Mo3 O5 1_555 1_555
Mo4 O3 1_555 1_555
O2 Mo5 1_555 1_555
Mo5 O1 1_555 1_555
O4 Mo4 1_555 1_555
O6 Mo3 1_555 1_555
Mo6 O10 1_555 1_555
O7 Mo3 1_555 1_555
O8 Mo1 1_555 1_555
O9 Mo1 1_555 1_555
O10 Mo1 1_555 1_555
O11 Mo6 1_555 1_555
O12 Mo6 1_555 1_555
O13 Mo5 1_555 1_555
O14 Mo2 1_555 1_555
O15 Mo5 1_555 1_555
O16 Mo2 1_555 1_555
O17 Mo2 1_555 1_555
O18 Mo1 1_555 1_555
O19 Mo1 1_555 1_555
Mo7 O7 1_555 1_555
O20 Mo8 1_555 1_555
Mo8 O10 1_555 1_555
O21 Mo7 1_555 1_555
O22 Mo7 1_555 1_555
O23 Mo3 1_555 1_555
O24 Mo6 1_555 1_555
O25 Mo8 1_555 1_555
O26 Mo2 1_555 1_555
Mo2 O18 1_555 1_555
Mo3 O8 1_555 1_555
Mo3 O18 1_555 1_555
Mo4 O17 1_555 1_555
Mo4 O18 1_555 1_555
Mo4 O23 1_555 1_555
Mo5 O10 1_555 1_555
Mo5 O17 1_555 1_555
Mo6 O13 1_555 1_555
Mo6 O14 1_555 1_555
O18 Mo7 1_555 1_555
O19 Mo7 1_555 1_555
O19 Mo8 1_555 1_555
Mo7 O26 1_555 1_555
Mo8 O24 1_555 1_555
Mo8 O26 1_555 1_555
Mo1_2 O1_2 1_555 1_555
O1_2 Mo4_2 1_555 1_555
Mo2_2 O10_2 1_555 1_555
Mo3_2 O5_2 1_555 1_555
Mo4_2 O3_2 1_555 1_555
O2_2 Mo5_2 1_555 1_555
Mo5_2 O1_2 1_555 1_555
O4_2 Mo4_2 1_555 1_555
O6_2 Mo3_2 1_555 1_555
Mo6_2 O10_2 1_555 1_555
O7_2 Mo3_2 1_555 1_555
O8_2 Mo1_2 1_555 1_555
O9_2 Mo1_2 1_555 1_555
O10_2 Mo1_2 1_555 1_555
O11_2 Mo6_2 1_555 1_555
O12_2 Mo6_2 1_555 1_555
O13_2 Mo5_2 1_555 1_555
O14_2 Mo2_2 1_555 1_555
O15_2 Mo5_2 1_555 1_555
O16_2 Mo2_2 1_555 1_555
O17_2 Mo2_2 1_555 1_555
O18_2 Mo1_2 1_555 1_555
O19_2 Mo1_2 1_555 1_555
Mo7_2 O7_2 1_555 1_555
O20_2 Mo8_2 1_555 1_555
Mo8_2 O10_2 1_555 1_555
O21_2 Mo7_2 1_555 1_555
O22_2 Mo7_2 1_555 1_555
O23_2 Mo3_2 1_555 1_555
O24_2 Mo6_2 1_555 1_555
O25_2 Mo8_2 1_555 1_555
O26_2 Mo2_2 1_555 1_555
Mo2_2 O18_2 1_555 1_555
Mo3_2 O8_2 1_555 1_555
Mo3_2 O18_2 1_555 1_555
Mo4_2 O17_2 1_555 1_555
Mo4_2 O18_2 1_555 1_555
Mo4_2 O23_2 1_555 1_555
Mo5_2 O10_2 1_555 1_555
Mo5_2 O17_2 1_555 1_555
Mo6_2 O13_2 1_555 1_555
Mo6_2 O14_2 1_555 1_555
O18_2 Mo7_2 1_555 1_555
O19_2 Mo7_2 1_555 1_555
O19_2 Mo8_2 1_555 1_555
Mo7_2 O26_2 1_555 1_555
Mo8_2 O24_2 1_555 1_555
Mo8_2 O26_2 1_555 1_555
Mo1_3 O1_3 1_555 1_555
O1_3 Mo4_3 1_555 1_555
Mo2_3 O10_3 1_555 1_555
Mo3_3 O5_3 1_555 1_555
Mo4_3 O3_3 1_555 1_555
O2_3 Mo5_3 1_555 1_555
Mo5_3 O1_3 1_555 1_555
O4_3 Mo4_3 1_555 1_555
O6_3 Mo3_3 1_555 1_555
Mo6_3 O10_3 1_555 1_555
O7_3 Mo3_3 1_555 1_555
O8_3 Mo1_3 1_555 1_555
O9_3 Mo1_3 1_555 1_555
O10_3 Mo1_3 1_555 1_555
O11_3 Mo6_3 1_555 1_555
O12_3 Mo6_3 1_555 1_555
O13_3 Mo5_3 1_555 1_555
O14_3 Mo2_3 1_555 1_555
O15_3 Mo5_3 1_555 1_555
O16_3 Mo2_3 1_555 1_555
O17_3 Mo2_3 1_555 1_555
O18_3 Mo1_3 1_555 1_555
O19_3 Mo1_3 1_555 1_555
Mo7_3 O7_3 1_555 1_555
O20_3 Mo8_3 1_555 1_555
Mo8_3 O10_3 1_555 1_555
O21_3 Mo7_3 1_555 1_555
O22_3 Mo7_3 1_555 1_555
O23_3 Mo3_3 1_555 1_555
O24_3 Mo6_3 1_555 1_555
O25_3 Mo8_3 1_555 1_555
O26_3 Mo2_3 1_555 1_555
Mo2_3 O18_3 1_555 1_555
Mo3_3 O8_3 1_555 1_555
Mo3_3 O18_3 1_555 1_555
Mo4_3 O17_3 1_555 1_555
Mo4_3 O18_3 1_555 1_555
Mo4_3 O23_3 1_555 1_555
Mo5_3 O10_3 1_555 1_555
Mo5_3 O17_3 1_555 1_555
Mo6_3 O13_3 1_555 1_555
Mo6_3 O14_3 1_555 1_555
O18_3 Mo7_3 1_555 1_555
O19_3 Mo7_3 1_555 1_555
O19_3 Mo8_3 1_555 1_555
Mo7_3 O26_3 1_555 1_555
Mo8_3 O24_3 1_555 1_555
Mo8_3 O26_3 1_555 1_555
Mo2_4 O10_4 1_555 1_555
Mo3_4 O5_4 1_555 1_555
O6_4 Mo3_4 1_555 1_555
Mo6_4 O10_4 1_555 1_555
O7_4 Mo3_4 1_555 1_555
O8_4 Mo1_4 1_555 1_555
O9_4 Mo1_4 1_555 1_555
O10_4 Mo1_4 1_555 1_555
O11_4 Mo6_4 1_555 1_555
O12_4 Mo6_4 1_555 1_555
O14_4 Mo2_4 1_555 1_555
O16_4 Mo2_4 1_555 1_555
O18_4 Mo1_4 1_555 1_555
O19_4 Mo1_4 1_555 1_555
Mo7_4 O7_4 1_555 1_555
O20_4 Mo8_4 1_555 1_555
Mo8_4 O10_4 1_555 1_555
O21_4 Mo7_4 1_555 1_555
O22_4 Mo7_4 1_555 1_555
O24_4 Mo6_4 1_555 1_555
O25_4 Mo8_4 1_555 1_555
O26_4 Mo2_4 1_555 1_555
Mo2_4 O18_4 1_555 1_555
Mo3_4 O8_4 1_555 1_555
Mo3_4 O18_4 1_555 1_555
Mo6_4 O14_4 1_555 1_555
O18_4 Mo7_4 1_555 1_555
O19_4 Mo7_4 1_555 1_555
O19_4 Mo8_4 1_555 1_555
Mo7_4 O26_4 1_555 1_555
Mo8_4 O24_4 1_555 1_555
Mo8_4 O26_4 1_555 1_555
Mo1_5 O1_4 1_555 1_555
O1_4 Mo4_4 1_555 1_555
Mo2_5 O10_5 1_555 1_555
Mo3_5 O5_5 1_555 1_555
Mo4_4 O3_4 1_555 1_555
O2_4 Mo5_4 1_555 1_555
Mo5_4 O1_4 1_555 1_555
O4_4 Mo4_4 1_555 1_555
O6_5 Mo3_5 1_555 1_555
Mo6_5 O10_5 1_555 1_555
O8_5 Mo1_5 1_555 1_555
O9_5 Mo1_5 1_555 1_555
O10_5 Mo1_5 1_555 1_555
O11_5 Mo6_5 1_555 1_555
O12_5 Mo6_5 1_555 1_555
O13_4 Mo5_4 1_555 1_555
O14_5 Mo2_5 1_555 1_555
O15_4 Mo5_4 1_555 1_555
O16_5 Mo2_5 1_555 1_555
O17_4 Mo2_5 1_555 1_555
O18_5 Mo1_5 1_555 1_555
O23_4 Mo3_5 1_555 1_555
Mo2_5 O18_5 1_555 1_555
Mo3_5 O8_5 1_555 1_555
Mo3_5 O18_5 1_555 1_555
Mo4_4 O17_4 1_555 1_555
Mo4_4 O18_5 1_555 1_555
Mo4_4 O23_4 1_555 1_555
Mo5_4 O10_5 1_555 1_555
Mo5_4 O17_4 1_555 1_555
Mo6_5 O13_4 1_555 1_555
Mo6_5 O14_5 1_555 1_555
Mo1_6 O1_5 1_555 1_555
O1_5 Mo4_5 1_555 1_555
Mo2_6 O10_6 1_555 1_555
Mo3_6 O5_6 1_555 1_555
Mo4_5 O3_5 1_555 1_555
O2_5 Mo5_5 1_555 1_555
Mo5_5 O1_5 1_555 1_555
O4_5 Mo4_5 1_555 1_555
O6_6 Mo3_6 1_555 1_555
Mo6_6 O10_6 1_555 1_555
O8_6 Mo1_6 1_555 1_555
O9_6 Mo1_6 1_555 1_555
O10_6 Mo1_6 1_555 1_555
O11_6 Mo6_6 1_555 1_555
O12_6 Mo6_6 1_555 1_555
O13_5 Mo5_5 1_555 1_555
O14_6 Mo2_6 1_555 1_555
O15_5 Mo5_5 1_555 1_555
O16_6 Mo2_6 1_555 1_555
O17_5 Mo2_6 1_555 1_555
O18_6 Mo1_6 1_555 1_555
O23_5 Mo3_6 1_555 1_555
Mo2_6 O18_6 1_555 1_555
Mo3_6 O8_6 1_555 1_555
Mo3_6 O18_6 1_555 1_555
Mo4_5 O17_5 1_555 1_555
Mo4_5 O18_6 1_555 1_555
Mo4_5 O23_5 1_555 1_555
Mo5_5 O10_6 1_555 1_555
Mo5_5 O17_5 1_555 1_555
Mo6_6 O13_5 1_555 1_555
Mo6_6 O14_6 1_555 1_555
Mo2_7 O10_7 1_555 1_555
Mo3_7 O5_7 1_555 1_555
O6_7 Mo3_7 1_555 1_555
Mo6_7 O10_7 1_555 1_555
O7_5 Mo3_7 1_555 1_555
O8_7 Mo1_7 1_555 1_555
O9_7 Mo1_7 1_555 1_555
O10_7 Mo1_7 1_555 1_555
O11_7 Mo6_7 1_555 1_555
O12_7 Mo6_7 1_555 1_555
O14_7 Mo2_7 1_555 1_555
O16_7 Mo2_7 1_555 1_555
O18_7 Mo1_7 1_555 1_555
O19_5 Mo1_7 1_555 1_555
Mo7_5 O7_5 1_555 1_555
O20_5 Mo8_5 1_555 1_555
Mo8_5 O10_7 1_555 1_555
O21_5 Mo7_5 1_555 1_555
O22_5 Mo7_5 1_555 1_555
O24_5 Mo6_7 1_555 1_555
O25_5 Mo8_5 1_555 1_555
O26_5 Mo2_7 1_555 1_555
Mo2_7 O18_7 1_555 1_555
Mo3_7 O8_7 1_555 1_555
Mo3_7 O18_7 1_555 1_555
Mo6_7 O14_7 1_555 1_555
O18_7 Mo7_5 1_555 1_555
O19_5 Mo7_5 1_555 1_555
O19_5 Mo8_5 1_555 1_555
Mo7_5 O26_5 1_555 1_555
Mo8_5 O24_5 1_555 1_555
Mo8_5 O26_5 1_555 1_555
Mo2_8 O10_8 1_555 1_555
Mo3_8 O5_8 1_555 1_555
O6_8 Mo3_8 1_555 1_555
Mo6_8 O10_8 1_555 1_555
O7_6 Mo3_8 1_555 1_555
O8_8 Mo1_8 1_555 1_555
O9_8 Mo1_8 1_555 1_555
O10_8 Mo1_8 1_555 1_555
O11_8 Mo6_8 1_555 1_555
O12_8 Mo6_8 1_555 1_555
O14_8 Mo2_8 1_555 1_555
O16_8 Mo2_8 1_555 1_555
O18_8 Mo1_8 1_555 1_555
O19_6 Mo1_8 1_555 1_555
Mo7_6 O7_6 1_555 1_555
O20_6 Mo8_6 1_555 1_555
Mo8_6 O10_8 1_555 1_555
O21_6 Mo7_6 1_555 1_555
O22_6 Mo7_6 1_555 1_555
O24_6 Mo6_8 1_555 1_555
O25_6 Mo8_6 1_555 1_555
O26_6 Mo2_8 1_555 1_555
Mo2_8 O18_8 1_555 1_555
Mo3_8 O8_8 1_555 1_555
Mo3_8 O18_8 1_555 1_555
Mo6_8 O14_8 1_555 1_555
O18_8 Mo7_6 1_555 1_555
O19_6 Mo7_6 1_555 1_555
O19_6 Mo8_6 1_555 1_555
Mo7_6 O26_6 1_555 1_555
Mo8_6 O24_6 1_555 1_555
Mo8_6 O26_6 1_555 1_555
Mo1_9 O1_6 1_555 1_555
O1_6 Mo4_6 1_555 1_555
Mo2_9 O10_9 1_555 1_555
Mo3_9 O5_9 1_555 1_555
Mo4_6 O3_6 1_555 1_555
O2_6 Mo5_6 1_555 1_555
Mo5_6 O1_6 1_555 1_555
O4_6 Mo4_6 1_555 1_555
O6_9 Mo3_9 1_555 1_555
Mo6_9 O10_9 1_555 1_555
O8_9 Mo1_9 1_555 1_555
O9_9 Mo1_9 1_555 1_555
O10_9 Mo1_9 1_555 1_555
O11_9 Mo6_9 1_555 1_555
O12_9 Mo6_9 1_555 1_555
O13_6 Mo5_6 1_555 1_555
O14_9 Mo2_9 1_555 1_555
O15_6 Mo5_6 1_555 1_555
O16_9 Mo2_9 1_555 1_555
O17_6 Mo2_9 1_555 1_555
O18_9 Mo1_9 1_555 1_555
O23_6 Mo3_9 1_555 1_555
Mo2_9 O18_9 1_555 1_555
Mo3_9 O8_9 1_555 1_555
Mo3_9 O18_9 1_555 1_555
Mo4_6 O17_6 1_555 1_555
Mo4_6 O18_9 1_555 1_555
Mo4_6 O23_6 1_555 1_555
Mo5_6 O10_9 1_555 1_555
Mo5_6 O17_6 1_555 1_555
Mo6_9 O13_6 1_555 1_555
Mo6_9 O14_9 1_555 1_555
Mo1_10 O1_7 1_555 1_555
O1_7 Mo4_7 1_555 1_555
Mo2_10 O10_10 1_555 1_555
Mo3_10 O5_10 1_555 1_555
Mo4_7 O3_7 1_555 1_555
O2_7 Mo5_7 1_555 1_555
Mo5_7 O1_7 1_555 1_555
O4_7 Mo4_7 1_555 1_555
O6_10 Mo3_10 1_555 1_555
Mo6_10 O10_10 1_555 1_555
O8_10 Mo1_10 1_555 1_555
O9_10 Mo1_10 1_555 1_555
O10_10 Mo1_10 1_555 1_555
O11_10 Mo6_10 1_555 1_555
O12_10 Mo6_10 1_555 1_555
O13_7 Mo5_7 1_555 1_555
O14_10 Mo2_10 1_555 1_555
O15_7 Mo5_7 1_555 1_555
O16_10 Mo2_10 1_555 1_555
O17_7 Mo2_10 1_555 1_555
O18_10 Mo1_10 1_555 1_555
O23_7 Mo3_10 1_555 1_555
Mo2_10 O18_10 1_555 1_555
Mo3_10 O8_10 1_555 1_555
Mo3_10 O18_10 1_555 1_555
Mo4_7 O17_7 1_555 1_555
Mo4_7 O18_10 1_555 1_555
Mo4_7 O23_7 1_555 1_555
Mo5_7 O10_10 1_555 1_555
Mo5_7 O17_7 1_555 1_555
Mo6_10 O13_7 1_555 1_555
Mo6_10 O14_10 1_555 1_555
Mo2_11 O10_11 1_555 1_555
Mo3_11 O5_11 1_555 1_555
O6_11 Mo3_11 1_555 1_555
Mo6_11 O10_11 1_555 1_555
O7_7 Mo3_11 1_555 1_555
O8_11 Mo1_11 1_555 1_555
O9_11 Mo1_11 1_555 1_555
O10_11 Mo1_11 1_555 1_555
O11_11 Mo6_11 1_555 1_555
O12_11 Mo6_11 1_555 1_555
O14_11 Mo2_11 1_555 1_555
O16_11 Mo2_11 1_555 1_555
O18_11 Mo1_11 1_555 1_555
O19_7 Mo1_11 1_555 1_555
Mo7_7 O7_7 1_555 1_555
O20_7 Mo8_7 1_555 1_555
Mo8_7 O10_11 1_555 1_555
O21_7 Mo7_7 1_555 1_555
O22_7 Mo7_7 1_555 1_555
O24_7 Mo6_11 1_555 1_555
O25_7 Mo8_7 1_555 1_555
O26_7 Mo2_11 1_555 1_555
Mo2_11 O18_11 1_555 1_555
Mo3_11 O8_11 1_555 1_555
Mo3_11 O18_11 1_555 1_555
Mo6_11 O14_11 1_555 1_555
O18_11 Mo7_7 1_555 1_555
O19_7 Mo7_7 1_555 1_555
O19_7 Mo8_7 1_555 1_555
Mo7_7 O26_7 1_555 1_555
Mo8_7 O24_7 1_555 1_555
Mo8_7 O26_7 1_555 1_555
Mo1_12 O1_8 1_555 1_555
O1_8 Mo4_8 1_555 1_555
Mo2_12 O10_12 1_555 1_555
Mo3_12 O5_12 1_555 1_555
Mo4_8 O3_8 1_555 1_555
O2_8 Mo5_8 1_555 1_555
Mo5_8 O1_8 1_555 1_555
O4_8 Mo4_8 1_555 1_555
O6_12 Mo3_12 1_555 1_555
Mo6_12 O10_12 1_555 1_555
O7_8 Mo3_12 1_555 1_555
O8_12 Mo1_12 1_555 1_555
O9_12 Mo1_12 1_555 1_555
O10_12 Mo1_12 1_555 1_555
O11_12 Mo6_12 1_555 1_555
O12_12 Mo6_12 1_555 1_555
O13_8 Mo5_8 1_555 1_555
O14_12 Mo2_12 1_555 1_555
O15_8 Mo5_8 1_555 1_555
O16_12 Mo2_12 1_555 1_555
O17_8 Mo2_12 1_555 1_555
O18_12 Mo1_12 1_555 1_555
O19_8 Mo1_12 1_555 1_555
Mo7_8 O7_8 1_555 1_555
O20_8 Mo8_8 1_555 1_555
Mo8_8 O10_12 1_555 1_555
O21_8 Mo7_8 1_555 1_555
O22_8 Mo7_8 1_555 1_555
O23_8 Mo3_12 1_555 1_555
O24_8 Mo6_12 1_555 1_555
O25_8 Mo8_8 1_555 1_555
O26_8 Mo2_12 1_555 1_555
Mo2_12 O18_12 1_555 1_555
Mo3_12 O8_12 1_555 1_555
Mo3_12 O18_12 1_555 1_555
Mo4_8 O17_8 1_555 1_555
Mo4_8 O18_12 1_555 1_555
Mo4_8 O23_8 1_555 1_555
Mo5_8 O10_12 1_555 1_555
Mo5_8 O17_8 1_555 1_555
Mo6_12 O13_8 1_555 1_555
Mo6_12 O14_12 1_555 1_555
O18_12 Mo7_8 1_555 1_555
O19_8 Mo7_8 1_555 1_555
O19_8 Mo8_8 1_555 1_555
Mo7_8 O26_8 1_555 1_555
Mo8_8 O24_8 1_555 1_555
Mo8_8 O26_8 1_555 1_555
Mo10 O37 1_555 1_555
O39 Mo10 1_555 1_555
O40 Mo10 1_555 1_555
Mo10 O49 1_555 1_555
Mo9 O33 1_555 1_555
Mo11 O30 1_555 1_555
O28 Mo12 1_555 1_555
O29 Mo12 1_555 1_555
O30 Mo12 1_555 1_555
O31 Mo11 1_555 1_555
O32 Mo11 1_555 1_555
O33 Mo11 1_555 1_555
O34 Mo9 1_555 1_555
O35 Mo9 1_555 1_555
O38 Mo9 1_555 1_555
Mo11 O38 1_555 1_555
Mo12 O38 1_555 1_555
Mo15 O43 1_555 1_555
O41 Mo16 1_555 1_555
O42 Mo16 1_555 1_555
O43 Mo16 1_555 1_555
O44 Mo15 1_555 1_555
O45 Mo15 1_555 1_555
O46 Mo13 1_555 1_555
O47 Mo13 1_555 1_555
O48 Mo13 1_555 1_555
Mo13 O51 1_555 1_555
Mo15 O46 1_555 1_555
Mo15 O51 1_555 1_555
Mo16 O51 1_555 1_555
O27 Mo14 1_555 1_555
Mo14 O36 1_555 1_555
O50 Mo14 1_555 1_555
O52 Mo14 1_555 1_555
Mo9_2 O33_2 1_555 1_555
Mo10_2 O37_2 1_555 1_555
Mo11_2 O30_2 1_555 1_555
Mo12_2 O27_2 1_555 1_555
O27_2 Mo14_2 1_555 1_555
O28_2 Mo12_2 1_555 1_555
O29_2 Mo12_2 1_555 1_555
O30_2 Mo12_2 1_555 1_555
O31_2 Mo11_2 1_555 1_555
O32_2 Mo11_2 1_555 1_555
O33_2 Mo11_2 1_555 1_555
O34_2 Mo9_2 1_555 1_555
O35_2 Mo9_2 1_555 1_555
O36_2 Mo9_2 1_555 1_555
O38_2 Mo9_2 1_555 1_555
O39_2 Mo10_2 1_555 1_555
Mo13_2 O36_2 1_555 1_555
Mo14_2 O36_2 1_555 1_555
Mo15_2 O43_2 1_555 1_555
Mo16_2 O27_2 1_555 1_555
O40_2 Mo10_2 1_555 1_555
O41_2 Mo16_2 1_555 1_555
O42_2 Mo16_2 1_555 1_555
O43_2 Mo16_2 1_555 1_555
O44_2 Mo15_2 1_555 1_555
O45_2 Mo15_2 1_555 1_555
O46_2 Mo13_2 1_555 1_555
O47_2 Mo13_2 1_555 1_555
O48_2 Mo13_2 1_555 1_555
O49_2 Mo9_2 1_555 1_555
O50_2 Mo14_2 1_555 1_555
O51_2 Mo10_2 1_555 1_555
O52_2 Mo14_2 1_555 1_555
Mo10_2 O38_2 1_555 1_555
Mo10_2 O49_2 1_555 1_555
Mo11_2 O38_2 1_555 1_555
Mo11_2 O39_2 1_555 1_555
Mo12_2 O38_2 1_555 1_555
Mo12_2 O40_2 1_555 1_555
O38_2 Mo14_2 1_555 1_555
Mo13_2 O49_2 1_555 1_555
Mo13_2 O51_2 1_555 1_555
Mo14_2 O51_2 1_555 1_555
Mo15_2 O46_2 1_555 1_555
Mo15_2 O51_2 1_555 1_555
Mo15_2 O52_2 1_555 1_555
Mo16_2 O40_2 1_555 1_555
Mo16_2 O51_2 1_555 1_555
Mo9_3 O33_3 1_555 1_555
Mo10_3 O37_3 1_555 1_555
Mo11_3 O30_3 1_555 1_555
O28_3 Mo12_3 1_555 1_555
O29_3 Mo12_3 1_555 1_555
O30_3 Mo12_3 1_555 1_555
O31_3 Mo11_3 1_555 1_555
O32_3 Mo11_3 1_555 1_555
O33_3 Mo11_3 1_555 1_555
O34_3 Mo9_3 1_555 1_555
O35_3 Mo9_3 1_555 1_555
O38_3 Mo9_3 1_555 1_555
O39_3 Mo10_3 1_555 1_555
O40_3 Mo10_3 1_555 1_555
O49_3 Mo9_3 1_555 1_555
Mo10_3 O38_3 1_555 1_555
Mo10_3 O49_3 1_555 1_555
Mo11_3 O38_3 1_555 1_555
Mo11_3 O39_3 1_555 1_555
Mo12_3 O38_3 1_555 1_555
Mo12_3 O40_3 1_555 1_555
O27_3 Mo14_3 1_555 1_555
Mo13_3 O36_3 1_555 1_555
Mo14_3 O36_3 1_555 1_555
Mo15_3 O43_3 1_555 1_555
Mo16_3 O27_3 1_555 1_555
O41_3 Mo16_3 1_555 1_555
O42_3 Mo16_3 1_555 1_555
O43_3 Mo16_3 1_555 1_555
O44_3 Mo15_3 1_555 1_555
O45_3 Mo15_3 1_555 1_555
O46_3 Mo13_3 1_555 1_555
O47_3 Mo13_3 1_555 1_555
O48_3 Mo13_3 1_555 1_555
O50_3 Mo14_3 1_555 1_555
O52_3 Mo14_3 1_555 1_555
Mo13_3 O51_3 1_555 1_555
Mo14_3 O51_3 1_555 1_555
Mo15_3 O46_3 1_555 1_555
Mo15_3 O51_3 1_555 1_555
Mo15_3 O52_3 1_555 1_555
Mo16_3 O51_3 1_555 1_555
Mo10_4 O37_4 1_555 1_555
O39_4 Mo10_4 1_555 1_555
Mo15_4 O43_4 1_555 1_555
O40_4 Mo10_4 1_555 1_555
O41_4 Mo16_4 1_555 1_555
O42_4 Mo16_4 1_555 1_555
O43_4 Mo16_4 1_555 1_555
O44_4 Mo15_4 1_555 1_555
O45_4 Mo15_4 1_555 1_555
O46_4 Mo13_4 1_555 1_555
O47_4 Mo13_4 1_555 1_555
O48_4 Mo13_4 1_555 1_555
O51_4 Mo10_4 1_555 1_555
Mo10_4 O49_4 1_555 1_555
Mo13_4 O49_4 1_555 1_555
Mo13_4 O51_4 1_555 1_555
Mo15_4 O46_4 1_555 1_555
Mo15_4 O51_4 1_555 1_555
Mo16_4 O40_4 1_555 1_555
Mo16_4 O51_4 1_555 1_555
Mo9_4 O33_4 1_555 1_555
Mo11_4 O30_4 1_555 1_555
Mo12_4 O27_4 1_555 1_555
O27_4 Mo14_4 1_555 1_555
O28_4 Mo12_4 1_555 1_555
O29_4 Mo12_4 1_555 1_555
O30_4 Mo12_4 1_555 1_555
O31_4 Mo11_4 1_555 1_555
O32_4 Mo11_4 1_555 1_555
O33_4 Mo11_4 1_555 1_555
O34_4 Mo9_4 1_555 1_555
O35_4 Mo9_4 1_555 1_555
O36_4 Mo9_4 1_555 1_555
O38_4 Mo9_4 1_555 1_555
Mo14_4 O36_4 1_555 1_555
O50_4 Mo14_4 1_555 1_555
O52_4 Mo14_4 1_555 1_555
Mo11_4 O38_4 1_555 1_555
Mo12_4 O38_4 1_555 1_555
O38_4 Mo14_4 1_555 1_555
O27_5 Mo14_5 1_555 1_555
Mo14_5 O36_5 1_555 1_555
O50_5 Mo14_5 1_555 1_555
O52_5 Mo14_5 1_555 1_555
Mo15_5 O43_5 1_555 1_555
O41_5 Mo16_5 1_555 1_555
O42_5 Mo16_5 1_555 1_555
O43_5 Mo16_5 1_555 1_555
O44_5 Mo15_5 1_555 1_555
O45_5 Mo15_5 1_555 1_555
O46_5 Mo13_5 1_555 1_555
O47_5 Mo13_5 1_555 1_555
O48_5 Mo13_5 1_555 1_555
Mo13_5 O51_5 1_555 1_555
Mo15_5 O46_5 1_555 1_555
Mo15_5 O51_5 1_555 1_555
Mo16_5 O51_5 1_555 1_555
Mo9_5 O33_5 1_555 1_555
Mo11_5 O30_5 1_555 1_555
O28_5 Mo12_5 1_555 1_555
O29_5 Mo12_5 1_555 1_555
O30_5 Mo12_5 1_555 1_555
O31_5 Mo11_5 1_555 1_555
O32_5 Mo11_5 1_555 1_555
O33_5 Mo11_5 1_555 1_555
O34_5 Mo9_5 1_555 1_555
O35_5 Mo9_5 1_555 1_555
O38_5 Mo9_5 1_555 1_555
Mo11_5 O38_5 1_555 1_555
Mo12_5 O38_5 1_555 1_555
Mo10_5 O37_5 1_555 1_555
O39_5 Mo10_5 1_555 1_555
O40_5 Mo10_5 1_555 1_555
Mo10_5 O49_5 1_555 1_555
Mo9_6 O33_6 1_555 1_555
Mo10_6 O37_6 1_555 1_555
Mo11_6 O30_6 1_555 1_555
Mo12_6 O27_6 1_555 1_555
O27_6 Mo14_6 1_555 1_555
O28_6 Mo12_6 1_555 1_555
O29_6 Mo12_6 1_555 1_555
O30_6 Mo12_6 1_555 1_555
O31_6 Mo11_6 1_555 1_555
O32_6 Mo11_6 1_555 1_555
O33_6 Mo11_6 1_555 1_555
O34_6 Mo9_6 1_555 1_555
O35_6 Mo9_6 1_555 1_555
O36_6 Mo9_6 1_555 1_555
O38_6 Mo9_6 1_555 1_555
O39_6 Mo10_6 1_555 1_555
Mo13_6 O36_6 1_555 1_555
Mo14_6 O36_6 1_555 1_555
Mo15_6 O43_6 1_555 1_555
Mo16_6 O27_6 1_555 1_555
O40_6 Mo10_6 1_555 1_555
O41_6 Mo16_6 1_555 1_555
O42_6 Mo16_6 1_555 1_555
O43_6 Mo16_6 1_555 1_555
O44_6 Mo15_6 1_555 1_555
O45_6 Mo15_6 1_555 1_555
O46_6 Mo13_6 1_555 1_555
O47_6 Mo13_6 1_555 1_555
O48_6 Mo13_6 1_555 1_555
O49_6 Mo9_6 1_555 1_555
O50_6 Mo14_6 1_555 1_555
O51_6 Mo10_6 1_555 1_555
O52_6 Mo14_6 1_555 1_555
Mo10_6 O38_6 1_555 1_555
Mo10_6 O49_6 1_555 1_555
Mo11_6 O38_6 1_555 1_555
Mo11_6 O39_6 1_555 1_555
Mo12_6 O38_6 1_555 1_555
Mo12_6 O40_6 1_555 1_555
O38_6 Mo14_6 1_555 1_555
Mo13_6 O49_6 1_555 1_555
Mo13_6 O51_6 1_555 1_555
Mo14_6 O51_6 1_555 1_555
Mo15_6 O46_6 1_555 1_555
Mo15_6 O51_6 1_555 1_555
Mo15_6 O52_6 1_555 1_555
Mo16_6 O40_6 1_555 1_555
Mo16_6 O51_6 1_555 1_555
O27_7 Mo14_7 1_555 1_555
Mo13_7 O36_7 1_555 1_555
Mo14_7 O36_7 1_555 1_555
Mo15_7 O43_7 1_555 1_555
Mo16_7 O27_7 1_555 1_555
O41_7 Mo16_7 1_555 1_555
O42_7 Mo16_7 1_555 1_555
O43_7 Mo16_7 1_555 1_555
O44_7 Mo15_7 1_555 1_555
O45_7 Mo15_7 1_555 1_555
O46_7 Mo13_7 1_555 1_555
O47_7 Mo13_7 1_555 1_555
O48_7 Mo13_7 1_555 1_555
O50_7 Mo14_7 1_555 1_555
O52_7 Mo14_7 1_555 1_555
Mo13_7 O51_7 1_555 1_555
Mo14_7 O51_7 1_555 1_555
Mo15_7 O46_7 1_555 1_555
Mo15_7 O51_7 1_555 1_555
Mo15_7 O52_7 1_555 1_555
Mo16_7 O51_7 1_555 1_555
Mo9_7 O33_7 1_555 1_555
Mo10_7 O37_7 1_555 1_555
Mo11_7 O30_7 1_555 1_555
O28_7 Mo12_7 1_555 1_555
O29_7 Mo12_7 1_555 1_555
O30_7 Mo12_7 1_555 1_555
O31_7 Mo11_7 1_555 1_555
O32_7 Mo11_7 1_555 1_555
O33_7 Mo11_7 1_555 1_555
O34_7 Mo9_7 1_555 1_555
O35_7 Mo9_7 1_555 1_555
O38_7 Mo9_7 1_555 1_555
O39_7 Mo10_7 1_555 1_555
O40_7 Mo10_7 1_555 1_555
O49_7 Mo9_7 1_555 1_555
Mo10_7 O38_7 1_555 1_555
Mo10_7 O49_7 1_555 1_555
Mo11_7 O38_7 1_555 1_555
Mo11_7 O39_7 1_555 1_555
Mo12_7 O38_7 1_555 1_555
Mo12_7 O40_7 1_555 1_555
Mo9_8 O33_8 1_555 1_555
Mo11_8 O30_8 1_555 1_555
Mo12_8 O27_8 1_555 1_555
O27_8 Mo14_8 1_555 1_555
O28_8 Mo12_8 1_555 1_555
O29_8 Mo12_8 1_555 1_555
O30_8 Mo12_8 1_555 1_555
O31_8 Mo11_8 1_555 1_555
O32_8 Mo11_8 1_555 1_555
O33_8 Mo11_8 1_555 1_555
O34_8 Mo9_8 1_555 1_555
O35_8 Mo9_8 1_555 1_555
O36_8 Mo9_8 1_555 1_555
O38_8 Mo9_8 1_555 1_555
Mo14_8 O36_8 1_555 1_555
O50_8 Mo14_8 1_555 1_555
O52_8 Mo14_8 1_555 1_555
Mo11_8 O38_8 1_555 1_555
Mo12_8 O38_8 1_555 1_555
O38_8 Mo14_8 1_555 1_555
Mo10_8 O37_8 1_555 1_555
O39_8 Mo10_8 1_555 1_555
Mo15_8 O43_8 1_555 1_555
O40_8 Mo10_8 1_555 1_555
O41_8 Mo16_8 1_555 1_555
O42_8 Mo16_8 1_555 1_555
O43_8 Mo16_8 1_555 1_555
O44_8 Mo15_8 1_555 1_555
O45_8 Mo15_8 1_555 1_555
O46_8 Mo13_8 1_555 1_555
O47_8 Mo13_8 1_555 1_555
O48_8 Mo13_8 1_555 1_555
O51_8 Mo10_8 1_555 1_555
Mo10_8 O49_8 1_555 1_555
Mo13_8 O49_8 1_555 1_555
Mo13_8 O51_8 1_555 1_555
Mo15_8 O46_8 1_555 1_555
Mo15_8 O51_8 1_555 1_555
Mo16_8 O40_8 1_555 1_555
Mo16_8 O51_8 1_555 1_555
O53 Zn1 1_555 1_555
Zn2 O57 1_555 1_555
O55 Zn1 1_555 1_555
O56 C14 1_555 1_555
N7 Zn2 1_555 1_555
N8 H8 1_555 1_555
N9 N10 1_555 1_555
C9 N7 1_555 1_555
H10 C9 1_555 1_555
N10 N12 1_555 1_555
C10 C9 1_555 1_555
H11 C10 1_555 1_555
N11 Zn1 1_555 1_555
C11 C10 1_555 1_555
H12 C11 1_555 1_555
N12 N11 1_555 1_555
C12 N8 1_555 1_555
C13 N7 1_555 1_555
H13 C13 1_555 1_555
C14 N8 1_555 1_555
C15 N9 1_555 1_555
H14 C15 1_555 1_555
H15 C15 1_555 1_555
C16 N9 1_555 1_555
H16 C16 1_555 1_555
O59 C30 1_555 1_555
N19 C25 1_555 1_555
N20 H24 1_555 1_555
N21 N22 1_555 1_555
C25 H26 1_555 1_555
N22 N24 1_555 1_555
C26 C25 1_555 1_555
H27 C26 1_555 1_555
N23 Zn1 1_555 1_555
C27 C26 1_555 1_555
H28 C27 1_555 1_555
N24 N23 1_555 1_555
C28 N20 1_555 1_555
C29 N19 1_555 1_555
H29 C29 1_555 1_555
C30 N20 1_555 1_555
C31 N21 1_555 1_555
H30 C31 1_555 1_555
H31 C31 1_555 1_555
C32 N21 1_555 1_555
H32 C32 1_555 1_555
O60 Zn2 1_555 1_555
Zn4 N19 1_555 1_555
N25 Zn2 1_555 1_555
N26 Zn2 1_555 1_555
N27 Zn2 1_555 1_555
N11 C16 1_555 1_555
C11 C12 1_555 1_555
C12 C13 1_555 1_555
C14 C15 1_555 1_555
N23 C32 1_555 1_555
C27 C28 1_555 1_555
C28 C29 1_555 1_555
C30 C31 1_555 1_555
O53 H36 1_555 1_555
N3 N4 1_555 1_555
N4 N5 1_555 1_555
N5 N6 1_555 1_555
C7 N3 1_555 1_555
H7 C7 1_555 1_555
N15 N16 1_555 1_555
N16 N17 1_555 1_555
N17 N18 1_555 1_555
C23 N15 1_555 1_555
H23 C23 1_555 1_555
Zn3 N18 1_555 1_555
Zn5 N6 1_555 1_555
N1 C1 1_555 1_555
C1 H1 1_555 1_555
N2 H2 1_555 1_555
O54 C6 1_555 1_555
C2 C1 1_555 1_555
H3 C2 1_555 1_555
C3 C2 1_555 1_555
H4 C3 1_555 1_555
C4 N2 1_555 1_555
C5 N1 1_555 1_555
H5 C5 1_555 1_555
C6 N2 1_555 1_555
H9 C8 1_555 1_555
C17 N13 1_555 1_555
H17 C17 1_555 1_555
N14 H18 1_555 1_555
O58 C22 1_555 1_555
C18 C17 1_555 1_555
H19 C18 1_555 1_555
C19 C18 1_555 1_555
H20 C19 1_555 1_555
C20 N14 1_555 1_555
C21 N13 1_555 1_555
H21 C21 1_555 1_555
C22 N14 1_555 1_555
H25 C24 1_555 1_555
C3 C4 1_555 1_555
C4 C5 1_555 1_555
C19 C20 1_555 1_555
C20 C21 1_555 1_555
N1_2 C1_2 1_555 1_555
C1_2 H1_2 1_555 1_555
N2_2 H2_2 1_555 1_555
O54_2 C6_2 1_555 1_555
C2_2 C1_2 1_555 1_555
H3_2 C2_2 1_555 1_555
N3_2 N4_2 1_555 1_555
C3_2 C2_2 1_555 1_555
H4_2 C3_2 1_555 1_555
N4_2 N5_2 1_555 1_555
C4_2 N2_2 1_555 1_555
N5_2 N6_2 1_555 1_555
C5_2 N1_2 1_555 1_555
H5_2 C5_2 1_555 1_555
N6_2 C8_2 1_555 1_555
C6_2 N2_2 1_555 1_555
C7_2 N3_2 1_555 1_555
H6_2 C7_2 1_555 1_555
H7_2 C7_2 1_555 1_555
C8_2 N3_2 1_555 1_555
H9_2 C8_2 1_555 1_555
Zn4 N6_2 1_555 1_555
C3_2 C4_2 1_555 1_555
C4_2 C5_2 1_555 1_555
C6_2 C7_2 1_555 1_555
O53_2 Zn1_2 1_555 1_555
O55_2 Zn1_2 1_555 1_555
O59_2 C30_2 1_555 1_555
N20_2 H24_2 1_555 1_555
N21_2 N22_2 1_555 1_555
N22_2 N24_2 1_555 1_555
N23_2 Zn1_2 1_555 1_555
H28_2 C27_2 1_555 1_555
N24_2 N23_2 1_555 1_555
C28_2 N20_2 1_555 1_555
C29_2 N19_2 1_555 1_555
H29_2 C29_2 1_555 1_555
C30_2 N20_2 1_555 1_555
C31_2 N21_2 1_555 1_555
H30_2 C31_2 1_555 1_555
H31_2 C31_2 1_555 1_555
C32_2 N21_2 1_555 1_555
H32_2 C32_2 1_555 1_555
Zn5 N19_2 1_555 1_555
N23_2 C32_2 1_555 1_555
C27_2 C28_2 1_555 1_555
C28_2 C29_2 1_555 1_555
C30_2 C31_2 1_555 1_555
O55_2 H37 1_555 1_555
C25_2 H26_2 1_555 1_555
C26_2 C25_2 1_555 1_555
H27_2 C26_2 1_555 1_555
C17_2 N13_2 1_555 1_555
H17_2 C17_2 1_555 1_555
N14_2 H18_2 1_555 1_555
O58_2 C22_2 1_555 1_555
C18_2 C17_2 1_555 1_555
H19_2 C18_2 1_555 1_555
N15_2 N16_2 1_555 1_555
C19_2 C18_2 1_555 1_555
H20_2 C19_2 1_555 1_555
N16_2 N17_2 1_555 1_555
C20_2 N14_2 1_555 1_555
N17_2 N26 1_555 1_555
C21_2 N13_2 1_555 1_555
H21_2 C21_2 1_555 1_555
N26 C24_2 1_555 1_555
C22_2 N14_2 1_555 1_555
C23_2 N15_2 1_555 1_555
H22_2 C23_2 1_555 1_555
H23_2 C23_2 1_555 1_555
C24_2 N15_2 1_555 1_555
H25_2 C24_2 1_555 1_555
C19_2 C20_2 1_555 1_555
C20_2 C21_2 1_555 1_555
C22_2 C23_2 1_555 1_555
O53_3 Zn1_3 1_555 1_555
O55_3 Zn1_3 1_555 1_555
O56_2 C14_2 1_555 1_555
N7_2 Zn3 1_555 1_555
N8_2 H8_2 1_555 1_555
N9_2 N10_2 1_555 1_555
N10_2 N12_2 1_555 1_555
N11_2 Zn1_3 1_555 1_555
H12_2 C11_2 1_555 1_555
N12_2 N11_2 1_555 1_555
C12_2 N8_2 1_555 1_555
C13_2 N7_2 1_555 1_555
H13_2 C13_2 1_555 1_555
C14_2 N8_2 1_555 1_555
C15_2 N9_2 1_555 1_555
H14_2 C15_2 1_555 1_555
H15_2 C15_2 1_555 1_555
C16_2 N9_2 1_555 1_555
H16_2 C16_2 1_555 1_555
O60_2 Zn3 1_555 1_555
N11_2 C16_2 1_555 1_555
C11_2 C12_2 1_555 1_555
C12_2 C13_2 1_555 1_555
C14_2 C15_2 1_555 1_555
O53_3 H36_2 1_555 1_555
O55_3 H38 1_555 1_555
Zn3_2 O57_2 1_555 1_555
H10_2 C9_2 1_555 1_555
C10_2 C9_2 1_555 1_555
H11_2 C10_2 1_555 1_555
N25_2 Zn3_2 1_555 1_555
N27_2 Zn3_2 1_555 1_555
O53_4 Zn1_4 1_555 1_555
Zn4 O57_3 1_555 1_555
O55_4 Zn1_4 1_555 1_555
O56_3 C14_3 1_555 1_555
N7_3 Zn4 1_555 1_555
N8_3 H8_3 1_555 1_555
N9_3 N10_3 1_555 1_555
C9_3 N7_3 1_555 1_555
H10_3 C9_3 1_555 1_555
N10_3 N12_3 1_555 1_555
C10_3 C9_3 1_555 1_555
H11_3 C10_3 1_555 1_555
N11_3 Zn1_4 1_555 1_555
C11_3 C10_3 1_555 1_555
H12_3 C11_3 1_555 1_555
N12_3 N11_3 1_555 1_555
C12_3 N8_3 1_555 1_555
C13_3 N7_3 1_555 1_555
H13_3 C13_3 1_555 1_555
C14_3 N8_3 1_555 1_555
C15_3 N9_3 1_555 1_555
H14_3 C15_3 1_555 1_555
H15_3 C15_3 1_555 1_555
C16_3 N9_3 1_555 1_555
H16_3 C16_3 1_555 1_555
N13_3 Zn1_4 1_555 1_555
C17_3 N13_3 1_555 1_555
H17_3 C17_3 1_555 1_555
N14_3 H18_3 1_555 1_555
O58_3 C22_3 1_555 1_555
C18_3 C17_3 1_555 1_555
H19_3 C18_3 1_555 1_555
C19_3 C18_3 1_555 1_555
H20_3 C19_3 1_555 1_555
C20_3 N14_3 1_555 1_555
C21_3 N13_3 1_555 1_555
H21_3 C21_3 1_555 1_555
C22_3 N14_3 1_555 1_555
H25_3 C24_3 1_555 1_555
O60_3 Zn4 1_555 1_555
N26_2 Zn4 1_555 1_555
N11_3 C16_3 1_555 1_555
C11_3 C12_3 1_555 1_555
C12_3 C13_3 1_555 1_555
C14_3 C15_3 1_555 1_555
C19_3 C20_3 1_555 1_555
C20_3 C21_3 1_555 1_555
O53_4 H35_3 1_555 1_555
O53_4 H36_3 1_555 1_555
O55_4 H38_2 1_555 1_555
N15_3 N16_3 1_555 1_555
N16_3 N17_3 1_555 1_555
N17_3 N18_2 1_555 1_555
C23_3 N15_3 1_555 1_555
H23_3 C23_3 1_555 1_555
Zn5_2 N18_2 1_555 1_555
Zn1_5 N1_3 1_555 1_555
N1_3 C1_3 1_555 1_555
O53_5 Zn1_5 1_555 1_555
C1_3 H1_3 1_555 1_555
N2_3 H2_3 1_555 1_555
O54_3 C6_3 1_555 1_555
O55_5 Zn1_5 1_555 1_555
C2_3 C1_3 1_555 1_555
H3_3 C2_3 1_555 1_555
C3_3 C2_3 1_555 1_555
H4_3 C3_3 1_555 1_555
C4_3 N2_3 1_555 1_555
C5_3 N1_3 1_555 1_555
H5_3 C5_3 1_555 1_555
C6_3 N2_3 1_555 1_555
H9_3 C8_3 1_555 1_555
O59_3 C30_3 1_555 1_555
N27 C25_3 1_555 1_555
N20_3 H24_3 1_555 1_555
N21_3 N22_3 1_555 1_555
C25_3 H26_3 1_555 1_555
N22_3 N24_3 1_555 1_555
C26_3 C25_3 1_555 1_555
H27_3 C26_3 1_555 1_555
N23_3 Zn1_5 1_555 1_555
C27_3 C26_3 1_555 1_555
H28_3 C27_3 1_555 1_555
N24_3 N23_3 1_555 1_555
C28_3 N20_3 1_555 1_555
C29_3 N27 1_555 1_555
H29_3 C29_3 1_555 1_555
C30_3 N20_3 1_555 1_555
C31_3 N21_3 1_555 1_555
H30_3 C31_3 1_555 1_555
H31_3 C31_3 1_555 1_555
C32_3 N21_3 1_555 1_555
H32_3 C32_3 1_555 1_555
C3_3 C4_3 1_555 1_555
C4_3 C5_3 1_555 1_555
N23_3 C32_3 1_555 1_555
C27_3 C28_3 1_555 1_555
C28_3 C29_3 1_555 1_555
C30_3 C31_3 1_555 1_555
O55_5 H37_2 1_555 1_555
N3_3 N4_3 1_555 1_555
N4_3 N5_3 1_555 1_555
N5_3 N25_2 1_555 1_555
C7_3 N3_3 1_555 1_555
H7_3 C7_3 1_555 1_555
Zn5 O57_4 1_555 1_555
H10_4 C9_4 1_555 1_555
C10_4 C9_4 1_555 1_555
H11_4 C10_4 1_555 1_555
C25_4 H26_4 1_555 1_555
C26_4 C25_4 1_555 1_555
H27_4 C26_4 1_555 1_555
Zn1_6 N1_4 1_555 1_555
N1_4 C1_4 1_555 1_555
O53_6 Zn1_6 1_555 1_555
C1_4 H1_4 1_555 1_555
N2_4 H2_4 1_555 1_555
O54_4 C6_4 1_555 1_555
O55_6 Zn1_6 1_555 1_555
C2_4 C1_4 1_555 1_555
H3_4 C2_4 1_555 1_555
N3_4 N4_4 1_555 1_555
O56_4 C14_4 1_555 1_555
C3_4 C2_4 1_555 1_555
H4_4 C3_4 1_555 1_555
N4_4 N5_4 1_555 1_555
C4_4 N2_4 1_555 1_555
N5_4 N25 1_555 1_555
C5_4 N1_4 1_555 1_555
H5_4 C5_4 1_555 1_555
N25 C8_4 1_555 1_555
C6_4 N2_4 1_555 1_555
N7_4 Zn5_2 1_555 1_555
C7_4 N3_4 1_555 1_555
H6_4 C7_4 1_555 1_555
H7_4 C7_4 1_555 1_555
N8_4 H8_4 1_555 1_555
C8_4 N3_4 1_555 1_555
H9_4 C8_4 1_555 1_555
N9_4 N10_4 1_555 1_555
N10_4 N12_4 1_555 1_555
N11_4 Zn1_6 1_555 1_555
H12_4 C11_4 1_555 1_555
N12_4 N11_4 1_555 1_555
C12_4 N8_4 1_555 1_555
C13_4 N7_4 1_555 1_555
H13_4 C13_4 1_555 1_555
C14_4 N8_4 1_555 1_555
C15_4 N9_4 1_555 1_555
H14_4 C15_4 1_555 1_555
H15_4 C15_4 1_555 1_555
C16_4 N9_4 1_555 1_555
H16_4 C16_4 1_555 1_555
N13_4 Zn1_6 1_555 1_555
C17_4 N13_4 1_555 1_555
H17_4 C17_4 1_555 1_555
N14_4 H18_4 1_555 1_555
O58_4 C22_4 1_555 1_555
C18_4 C17_4 1_555 1_555
H19_4 C18_4 1_555 1_555
N15_4 N16_4 1_555 1_555
O59_4 C30_4 1_555 1_555
C19_4 C18_4 1_555 1_555
H20_4 C19_4 1_555 1_555
N16_4 N17_4 1_555 1_555
C20_4 N14_4 1_555 1_555
N17_4 N26_2 1_555 1_555
C21_4 N13_4 1_555 1_555
H21_4 C21_4 1_555 1_555
N26_2 C24_4 1_555 1_555
C22_4 N14_4 1_555 1_555
C23_4 N15_4 1_555 1_555
H22_4 C23_4 1_555 1_555
H23_4 C23_4 1_555 1_555
N20_4 H24_4 1_555 1_555
C24_4 N15_4 1_555 1_555
H25_4 C24_4 1_555 1_555
N21_4 N22_4 1_555 1_555
N22_4 N24_4 1_555 1_555
N23_4 Zn1_6 1_555 1_555
H28_4 C27_4 1_555 1_555
N24_4 N23_4 1_555 1_555
C28_4 N20_4 1_555 1_555
C29_4 N27_2 1_555 1_555
H29_4 C29_4 1_555 1_555
C30_4 N20_4 1_555 1_555
C31_4 N21_4 1_555 1_555
H30_4 C31_4 1_555 1_555
H31_4 C31_4 1_555 1_555
C32_4 N21_4 1_555 1_555
H32_4 C32_4 1_555 1_555
O60_4 Zn5_2 1_555 1_555
C3_4 C4_4 1_555 1_555
C4_4 C5_4 1_555 1_555
C6_4 C7_4 1_555 1_555
N11_4 C16_4 1_555 1_555
C11_4 C12_4 1_555 1_555
C12_4 C13_4 1_555 1_555
C14_4 C15_4 1_555 1_555
C19_4 C20_4 1_555 1_555
C20_4 C21_4 1_555 1_555
C22_4 C23_4 1_555 1_555
N23_4 C32_4 1_555 1_555
C27_4 C28_4 1_555 1_555
C28_4 C29_4 1_555 1_555
C30_4 C31_4 1_555 1_555
O53 H36_4 1_555 1_555
O53_2 H36_5 1_555 1_555
O55_2 H38_3 1_555 1_555
O55_3 H37_3 1_555 1_555
O55_4 H37_4 1_555 1_555
O53_5 H35_6 1_555 1_555
O53_5 H36_6 1_555 1_555
O55_5 H38_4 1_555 1_555
Zn1_7 N1_5 1_555 1_555
N1_5 C1_5 1_555 1_555
O53_7 Zn1_7 1_555 1_555
C1_5 H1_5 1_555 1_555
N2_5 H2_5 1_555 1_555
O54_5 C6_5 1_555 1_555
O55_7 Zn1_7 1_555 1_555
C2_5 C1_5 1_555 1_555
H3_5 C2_5 1_555 1_555
N3_5 N4_5 1_555 1_555
O56_5 C14_5 1_555 1_555
C3_5 C2_5 1_555 1_555
H4_5 C3_5 1_555 1_555
N4_5 N5_5 1_555 1_555
C4_5 N2_5 1_555 1_555
N5_5 N6_3 1_555 1_555
C5_5 N1_5 1_555 1_555
H5_5 C5_5 1_555 1_555
N6_3 C8_5 1_555 1_555
C6_5 N2_5 1_555 1_555
N7_5 Zn2_2 1_555 1_555
C7_5 N3_5 1_555 1_555
H6_5 C7_5 1_555 1_555
H7_5 C7_5 1_555 1_555
N8_5 H8_5 1_555 1_555
C8_5 N3_5 1_555 1_555
H9_5 C8_5 1_555 1_555
N9_5 N10_5 1_555 1_555
N10_5 N12_5 1_555 1_555
N11_5 Zn1_7 1_555 1_555
H12_5 C11_5 1_555 1_555
N12_5 N11_5 1_555 1_555
C12_5 N8_5 1_555 1_555
C13_5 N7_5 1_555 1_555
H13_5 C13_5 1_555 1_555
C14_5 N8_5 1_555 1_555
C15_5 N9_5 1_555 1_555
H14_5 C15_5 1_555 1_555
H15_5 C15_5 1_555 1_555
C16_5 N9_5 1_555 1_555
H16_5 C16_5 1_555 1_555
N13_5 Zn1_7 1_555 1_555
C17_5 N13_5 1_555 1_555
H17_5 C17_5 1_555 1_555
N14_5 H18_5 1_555 1_555
O58_5 C22_5 1_555 1_555
C18_5 C17_5 1_555 1_555
H19_5 C18_5 1_555 1_555
N15_5 N16_5 1_555 1_555
O59_5 C30_5 1_555 1_555
C19_5 C18_5 1_555 1_555
H20_5 C19_5 1_555 1_555
N16_5 N17_5 1_555 1_555
C20_5 N14_5 1_555 1_555
N17_5 N18_3 1_555 1_555
C21_5 N13_5 1_555 1_555
H21_5 C21_5 1_555 1_555
N18_3 C24_5 1_555 1_555
C22_5 N14_5 1_555 1_555
C23_5 N15_5 1_555 1_555
H22_5 C23_5 1_555 1_555
H23_5 C23_5 1_555 1_555
N20_5 H24_5 1_555 1_555
C24_5 N15_5 1_555 1_555
H25_5 C24_5 1_555 1_555
N21_5 N22_5 1_555 1_555
N22_5 N24_5 1_555 1_555
N23_5 Zn1_7 1_555 1_555
H28_5 C27_5 1_555 1_555
N24_5 N23_5 1_555 1_555
C28_5 N20_5 1_555 1_555
C29_5 N19_3 1_555 1_555
H29_5 C29_5 1_555 1_555
C30_5 N20_5 1_555 1_555
C31_5 N21_5 1_555 1_555
H30_5 C31_5 1_555 1_555
H31_5 C31_5 1_555 1_555
C32_5 N21_5 1_555 1_555
H32_5 C32_5 1_555 1_555
O60_5 Zn2_2 1_555 1_555
Zn3_3 N18_3 1_555 1_555
Zn4_2 N19_3 1_555 1_555
Zn5_3 N6_3 1_555 1_555
N26_3 Zn2_2 1_555 1_555
C3_5 C4_5 1_555 1_555
C4_5 C5_5 1_555 1_555
C6_5 C7_5 1_555 1_555
N11_5 C16_5 1_555 1_555
C11_5 C12_5 1_555 1_555
C12_5 C13_5 1_555 1_555
C14_5 C15_5 1_555 1_555
C19_5 C20_5 1_555 1_555
C20_5 C21_5 1_555 1_555
C22_5 C23_5 1_555 1_555
N23_5 C32_5 1_555 1_555
C27_5 C28_5 1_555 1_555
C28_5 C29_5 1_555 1_555
C30_5 C31_5 1_555 1_555
Zn2_3 O57_5 1_555 1_555
H10_5 C9_5 1_555 1_555
C10_5 C9_5 1_555 1_555
H11_5 C10_5 1_555 1_555
C25_5 H26_5 1_555 1_555
C26_5 C25_5 1_555 1_555
H27_5 C26_5 1_555 1_555
N25_3 Zn2_3 1_555 1_555
N27_3 Zn2_3 1_555 1_555
N1_6 C1_6 1_555 1_555
C1_6 H1_6 1_555 1_555
N2_6 H2_6 1_555 1_555
O54_6 C6_6 1_555 1_555
C2_6 C1_6 1_555 1_555
H3_6 C2_6 1_555 1_555
C3_6 C2_6 1_555 1_555
H4_6 C3_6 1_555 1_555
C4_6 N2_6 1_555 1_555
C5_6 N1_6 1_555 1_555
H5_6 C5_6 1_555 1_555
C6_6 N2_6 1_555 1_555
H9_6 C8_6 1_555 1_555
C17_6 N13_6 1_555 1_555
H17_6 C17_6 1_555 1_555
N14_6 H18_6 1_555 1_555
O58_6 C22_6 1_555 1_555
C18_6 C17_6 1_555 1_555
H19_6 C18_6 1_555 1_555
C19_6 C18_6 1_555 1_555
H20_6 C19_6 1_555 1_555
C20_6 N14_6 1_555 1_555
C21_6 N13_6 1_555 1_555
H21_6 C21_6 1_555 1_555
C22_6 N14_6 1_555 1_555
H25_6 C24_6 1_555 1_555
C3_6 C4_6 1_555 1_555
C4_6 C5_6 1_555 1_555
C19_6 C20_6 1_555 1_555
C20_6 C21_6 1_555 1_555
N3_6 N4_6 1_555 1_555
N4_6 N5_6 1_555 1_555
N5_6 N25_3 1_555 1_555
C7_6 N3_6 1_555 1_555
H7_6 C7_6 1_555 1_555
N15_6 N16_6 1_555 1_555
N16_6 N17_6 1_555 1_555
N17_6 N18_4 1_555 1_555
C23_6 N15_6 1_555 1_555
H23_6 C23_6 1_555 1_555
Zn4_3 N18_4 1_555 1_555
O53_8 Zn1_8 1_555 1_555
Zn5_3 O57_6 1_555 1_555
O55_8 Zn1_8 1_555 1_555
O56_6 C14_6 1_555 1_555
N7_6 Zn5_3 1_555 1_555
N8_6 H8_6 1_555 1_555
N9_6 N10_6 1_555 1_555
C9_6 N7_6 1_555 1_555
H10_6 C9_6 1_555 1_555
N10_6 N12_6 1_555 1_555
C10_6 C9_6 1_555 1_555
H11_6 C10_6 1_555 1_555
N11_6 Zn1_8 1_555 1_555
C11_6 C10_6 1_555 1_555
H12_6 C11_6 1_555 1_555
N12_6 N11_6 1_555 1_555
C12_6 N8_6 1_555 1_555
C13_6 N7_6 1_555 1_555
H13_6 C13_6 1_555 1_555
C14_6 N8_6 1_555 1_555
C15_6 N9_6 1_555 1_555
H14_6 C15_6 1_555 1_555
H15_6 C15_6 1_555 1_555
C16_6 N9_6 1_555 1_555
H16_6 C16_6 1_555 1_555
O59_6 C30_6 1_555 1_555
N19_4 C25_6 1_555 1_555
N20_6 H24_6 1_555 1_555
N21_6 N22_6 1_555 1_555
C25_6 H26_6 1_555 1_555
N22_6 N24_6 1_555 1_555
C26_6 C25_6 1_555 1_555
H27_6 C26_6 1_555 1_555
N23_6 Zn1_8 1_555 1_555
C27_6 C26_6 1_555 1_555
H28_6 C27_6 1_555 1_555
N24_6 N23_6 1_555 1_555
C28_6 N20_6 1_555 1_555
C29_6 N19_4 1_555 1_555
H29_6 C29_6 1_555 1_555
C30_6 N20_6 1_555 1_555
C31_6 N21_6 1_555 1_555
H30_6 C31_6 1_555 1_555
H31_6 C31_6 1_555 1_555
C32_6 N21_6 1_555 1_555
H32_6 C32_6 1_555 1_555
O60_6 Zn5_3 1_555 1_555
Zn3_3 N19_4 1_555 1_555
N26_4 Zn5_3 1_555 1_555
N27_4 Zn5_3 1_555 1_555
N11_6 C16_6 1_555 1_555
C11_6 C12_6 1_555 1_555
C12_6 C13_6 1_555 1_555
C14_6 C15_6 1_555 1_555
N23_6 C32_6 1_555 1_555
C27_6 C28_6 1_555 1_555
C28_6 C29_6 1_555 1_555
C30_6 C31_6 1_555 1_555
O53_8 H36_7 1_555 1_555
C25_7 H26_7 1_555 1_555
C26_7 C25_7 1_555 1_555
H27_7 C26_7 1_555 1_555
O53_9 Zn1_9 1_555 1_555
O55_9 Zn1_9 1_555 1_555
O59_7 C30_7 1_555 1_555
N20_7 H24_7 1_555 1_555
N21_7 N22_7 1_555 1_555
N22_7 N24_7 1_555 1_555
N23_7 Zn1_9 1_555 1_555
H28_7 C27_7 1_555 1_555
N24_7 N23_7 1_555 1_555
C28_7 N20_7 1_555 1_555
C29_7 N27_3 1_555 1_555
H29_7 C29_7 1_555 1_555
C30_7 N20_7 1_555 1_555
C31_7 N21_7 1_555 1_555
H30_7 C31_7 1_555 1_555
H31_7 C31_7 1_555 1_555
C32_7 N21_7 1_555 1_555
H32_7 C32_7 1_555 1_555
N23_7 C32_7 1_555 1_555
C27_7 C28_7 1_555 1_555
C28_7 C29_7 1_555 1_555
C30_7 C31_7 1_555 1_555
O55_9 H37_5 1_555 1_555
N1_7 C1_7 1_555 1_555
C1_7 H1_7 1_555 1_555
N2_7 H2_7 1_555 1_555
O54_7 C6_7 1_555 1_555
C2_7 C1_7 1_555 1_555
H3_7 C2_7 1_555 1_555
N3_7 N4_7 1_555 1_555
C3_7 C2_7 1_555 1_555
H4_7 C3_7 1_555 1_555
N4_7 N5_7 1_555 1_555
C4_7 N2_7 1_555 1_555
N5_7 N6_4 1_555 1_555
C5_7 N1_7 1_555 1_555
H5_7 C5_7 1_555 1_555
N6_4 C8_7 1_555 1_555
C6_7 N2_7 1_555 1_555
C7_7 N3_7 1_555 1_555
H6_7 C7_7 1_555 1_555
H7_7 C7_7 1_555 1_555
C8_7 N3_7 1_555 1_555
H9_7 C8_7 1_555 1_555
Zn3_3 N6_4 1_555 1_555
C3_7 C4_7 1_555 1_555
C4_7 C5_7 1_555 1_555
C6_7 C7_7 1_555 1_555
Zn4_2 O57_7 1_555 1_555
H10_7 C9_7 1_555 1_555
C10_7 C9_7 1_555 1_555
H11_7 C10_7 1_555 1_555
N25_4 Zn4_2 1_555 1_555
O53_10 Zn1_10 1_555 1_555
O55_10 Zn1_10 1_555 1_555
O56_7 C14_7 1_555 1_555
N7_7 Zn4_3 1_555 1_555
N8_7 H8_7 1_555 1_555
N9_7 N10_7 1_555 1_555
N10_7 N12_7 1_555 1_555
N11_7 Zn1_10 1_555 1_555
H12_7 C11_7 1_555 1_555
N12_7 N11_7 1_555 1_555
C12_7 N8_7 1_555 1_555
C13_7 N7_7 1_555 1_555
H13_7 C13_7 1_555 1_555
C14_7 N8_7 1_555 1_555
C15_7 N9_7 1_555 1_555
H14_7 C15_7 1_555 1_555
H15_7 C15_7 1_555 1_555
C16_7 N9_7 1_555 1_555
H16_7 C16_7 1_555 1_555
O60_7 Zn4_3 1_555 1_555
N11_7 C16_7 1_555 1_555
C11_7 C12_7 1_555 1_555
C12_7 C13_7 1_555 1_555
C14_7 C15_7 1_555 1_555
O53_10 H36_8 1_555 1_555
O55_10 H38_5 1_555 1_555
C17_7 N13_7 1_555 1_555
H17_7 C17_7 1_555 1_555
N14_7 H18_7 1_555 1_555
O58_7 C22_7 1_555 1_555
C18_7 C17_7 1_555 1_555
H19_7 C18_7 1_555 1_555
N15_7 N16_7 1_555 1_555
C19_7 C18_7 1_555 1_555
H20_7 C19_7 1_555 1_555
N16_7 N17_7 1_555 1_555
C20_7 N14_7 1_555 1_555
N17_7 N26_4 1_555 1_555
C21_7 N13_7 1_555 1_555
H21_7 C21_7 1_555 1_555
N26_4 C24_7 1_555 1_555
C22_7 N14_7 1_555 1_555
C23_7 N15_7 1_555 1_555
H22_7 C23_7 1_555 1_555
H23_7 C23_7 1_555 1_555
C24_7 N15_7 1_555 1_555
H25_7 C24_7 1_555 1_555
C19_7 C20_7 1_555 1_555
C20_7 C21_7 1_555 1_555
C22_7 C23_7 1_555 1_555
N15_8 N16_8 1_555 1_555
N16_8 N17_8 1_555 1_555
N17_8 N26_3 1_555 1_555
C23_8 N15_8 1_555 1_555
H23_8 C23_8 1_555 1_555
O53_11 Zn1_11 1_555 1_555
Zn3_3 O57_8 1_555 1_555
O55_11 Zn1_11 1_555 1_555
O56_8 C14_8 1_555 1_555
N7_8 Zn3_3 1_555 1_555
N8_8 H8_8 1_555 1_555
N9_8 N10_8 1_555 1_555
C9_8 N7_8 1_555 1_555
H10_8 C9_8 1_555 1_555
N10_8 N12_8 1_555 1_555
C10_8 C9_8 1_555 1_555
H11_8 C10_8 1_555 1_555
N11_8 Zn1_11 1_555 1_555
C11_8 C10_8 1_555 1_555
H12_8 C11_8 1_555 1_555
N12_8 N11_8 1_555 1_555
C12_8 N8_8 1_555 1_555
C13_8 N7_8 1_555 1_555
H13_8 C13_8 1_555 1_555
C14_8 N8_8 1_555 1_555
C15_8 N9_8 1_555 1_555
H14_8 C15_8 1_555 1_555
H15_8 C15_8 1_555 1_555
C16_8 N9_8 1_555 1_555
H16_8 C16_8 1_555 1_555
N13_8 Zn1_11 1_555 1_555
C17_8 N13_8 1_555 1_555
H17_8 C17_8 1_555 1_555
N14_8 H18_8 1_555 1_555
O58_8 C22_8 1_555 1_555
C18_8 C17_8 1_555 1_555
H19_8 C18_8 1_555 1_555
C19_8 C18_8 1_555 1_555
H20_8 C19_8 1_555 1_555
C20_8 N14_8 1_555 1_555
C21_8 N13_8 1_555 1_555
H21_8 C21_8 1_555 1_555
C22_8 N14_8 1_555 1_555
H25_8 C24_8 1_555 1_555
O60_8 Zn3_3 1_555 1_555
N11_8 C16_8 1_555 1_555
C11_8 C12_8 1_555 1_555
C12_8 C13_8 1_555 1_555
C14_8 C15_8 1_555 1_555
C19_8 C20_8 1_555 1_555
C20_8 C21_8 1_555 1_555
O53_11 H35_9 1_555 1_555
O53_11 H36_9 1_555 1_555
O55_11 H38_6 1_555 1_555
N3_8 N4_8 1_555 1_555
N4_8 N5_8 1_555 1_555
N5_8 N25_4 1_555 1_555
C7_8 N3_8 1_555 1_555
H7_8 C7_8 1_555 1_555
Zn1_12 N1_8 1_555 1_555
N1_8 C1_8 1_555 1_555
O53_12 Zn1_12 1_555 1_555
C1_8 H1_8 1_555 1_555
N2_8 H2_8 1_555 1_555
O54_8 C6_8 1_555 1_555
O55_12 Zn1_12 1_555 1_555
C2_8 C1_8 1_555 1_555
H3_8 C2_8 1_555 1_555
C3_8 C2_8 1_555 1_555
H4_8 C3_8 1_555 1_555
C4_8 N2_8 1_555 1_555
C5_8 N1_8 1_555 1_555
H5_8 C5_8 1_555 1_555
C6_8 N2_8 1_555 1_555
H9_8 C8_8 1_555 1_555
O59_8 C30_8 1_555 1_555
N27_4 C25_8 1_555 1_555
N20_8 H24_8 1_555 1_555
N21_8 N22_8 1_555 1_555
C25_8 H26_8 1_555 1_555
N22_8 N24_8 1_555 1_555
C26_8 C25_8 1_555 1_555
H27_8 C26_8 1_555 1_555
N23_8 Zn1_12 1_555 1_555
C27_8 C26_8 1_555 1_555
H28_8 C27_8 1_555 1_555
N24_8 N23_8 1_555 1_555
C28_8 N20_8 1_555 1_555
C29_8 N27_4 1_555 1_555
H29_8 C29_8 1_555 1_555
C30_8 N20_8 1_555 1_555
C31_8 N21_8 1_555 1_555
H30_8 C31_8 1_555 1_555
H31_8 C31_8 1_555 1_555
C32_8 N21_8 1_555 1_555
H32_8 C32_8 1_555 1_555
C3_8 C4_8 1_555 1_555
C4_8 C5_8 1_555 1_555
N23_8 C32_8 1_555 1_555
C27_8 C28_8 1_555 1_555
C28_8 C29_8 1_555 1_555
C30_8 C31_8 1_555 1_555
O55_12 H37_6 1_555 1_555
O53_8 H36_10 1_555 1_555
O53_9 H36_11 1_555 1_555
O55_9 H38_7 1_555 1_555
O55_10 H37_7 1_555 1_555
O55_11 H37_8 1_555 1_555
O53_12 H35_12 1_555 1_555
O53_12 H36_12 1_555 1_555
O55_12 H38_8 1_555 1_555

#END
