
###############################################################################
#
# This file contains modified crystal structure data generated from the
# MOF subset of the Cambridge Structural Database (CSD) v543 
# hosted by the Cambridge Crystallographic Data Centre (CCDC).
#
# This work is licensed under the Creative Commons
# Attribution-NonCommercial-ShareAlike 4.0 International License.
# To view a copy of this license, visit
# http://creativecommons.org/licenses/by-nc-sa/4.0/
# or send a letter to
# Creative Commons, PO Box 1866, Mountain View, CA 94042, USA.
#
# CIF created using the CSD Python API on 29 September 2022
# The structure has been converted into the P1 space group
# The structure has a 3D framework
# The original CSD entry UTODIR is in the tetragonal crystal system
# The original CSD entry UTODIR is in a Sohncke space group
# The framework has been calculated to contain at least 10.0% void space
# The void calculation uses a probe of radius 1.32A, grid spacing 0.4
#
###############################################################################

data_UTODIR
_chemical_formula_moiety         '(C192 H328 La8 N48 O104)n'
_symmetry_cell_setting           triclinic
_symmetry_space_group_name_H-M   'P 1'
_symmetry_Int_Tables_number      1
_space_group_name_Hall           'P 1'
loop_
_symmetry_equiv_pos_site_id
_symmetry_equiv_pos_as_xyz
1 x,y,z
_cell_length_a                   14.5779(3)
_cell_length_b                   14.5779(3)
_cell_length_c                   36.7061(12)
_cell_angle_alpha                90
_cell_angle_beta                 90
_cell_angle_gamma                90
_cell_volume                     7800.6
loop_
_atom_site_label
_atom_site_type_symbol
_atom_site_fract_x
_atom_site_fract_y
_atom_site_fract_z
H20 H 0.0239 0.0428 0.0633
C16 C 0.0877(2) 0.14440(19) 0.01359(8)
H23 H 0.1019 0.1234 0.0383
C17 C 0.1094(2) 0.2458(2) 0.01095(9)
H24 H 0.0772 0.2782 0.0302
C18 C 0.2115(2) 0.2647(3) 0.01422(10)
H26 H 0.2228 0.3298 0.0111
H27 H 0.2325 0.2473 0.0383
H66 H 0.2691 0.0874 0.0122
H72 H 0.0416 0.4933 0.0067
H75 H 0.0024 0.4544 0.0748
C6 C 0.06633(19) 0.1977(2) 0.78235(8)
H8 H 0.0752 0.1865 0.7563
C7 C 0.0865(2) 0.1086(2) 0.80317(10)
H9 H 0.0475 0.0598 0.7941
H10 H 0.0732 0.1171 0.8288
C8 C 0.1876(3) 0.0818(3) 0.79834(12)
H11 H 0.2002 0.0261 0.8119
H12 H 0.1999 0.0698 0.7728
C9 C 0.2491(2) 0.1573(3) 0.81154(10)
H13 H 0.3126 0.1392 0.8083
H14 H 0.2388 0.1670 0.8374
C10 C 0.13030(18) 0.2751(2) 0.79424(7)
H15 H 0.1170 0.2909 0.8196
H25 H 0.0874 0.2691 0.9878
C19 C 0.0523(2) 0.5652(2) 0.68916(9)
H28 H 0.0816 0.5552 0.6661
H29 H 0.0702 0.6239 0.6986
C20 C 0.08064(17) 0.49156(18) 0.71519(7)
C21 C 0.04572(18) 0.49342(19) 0.75074(8)
H31 H 0.0067 0.5416 0.7567
C22 C 0.06427(18) 0.42935(19) 0.77799(7)
C23 C 0.0242(2) 0.4448(2) 0.81537(8)
H32 H 0.0431 0.3961 0.8313
H34 H 0.0456 0.5024 0.8248
C24 C 0.2317(2) 0.2466(2) 0.79115(8)
H35 H 0.2477 0.2388 0.7657
H36 H 0.2703 0.2946 0.8012
N4 N 0.06965(19) 0.23840(15) 0.89925(6)
N6 N 0.11624(14) 0.35659(16) 0.77149(6)
H39 H 0.1457 0.3573 0.7512
O5 O 0.02647(14) 0.20393(13) 0.92534(5)
O6 O 0.02276(14) 0.28615(14) 0.87650(5)
O9 O 0.13635(13) 0.43018(12) 0.70423(5)
O11 O 0.1512(2) 0.22650(14) 0.89515(7)
H61 H 0.0428 0.0239 0.9367
C40 C 0.14440(19) 0.0877(2) 0.98641(8)
H64 H 0.1234 0.1019 0.9617
C41 C 0.2458(2) 0.1094(2) 0.98905(9)
H65 H 0.2782 0.0772 0.9698
C42 C 0.2647(3) 0.2115(2) 0.98578(10)
H67 H 0.3298 0.2228 0.9889
H68 H 0.2473 0.2325 0.9617
C43 C 0.0652(2) 0.4477(2) 0.93916(9)
H69 H 0.0552 0.4184 0.9161
H70 H 0.1239 0.4298 0.9486
H71 H 0.0637 0.5131 0.9361
La3 La 0.238940(9) 0.361870(9) 0.655760(4)
C35 C 0.0781(2) 0.7085(2) 0.03137(9)
H57 H 0.1108 0.6930 0.0532
H58 H 0.0966 0.6682 0.0120
H59 H 0.0134 0.7021 0.0355
C36 C 0.09929(18) 0.80579(18) 0.02098(7)
H79 H 0.1605 0.9668 0.0110
O15 O 0.15558(12) 0.85053(12) 0.04092(5)
La4 La 0.261060(9) 0.861870(9) 0.094240(4)
C37 C 0.0582(2) 0.84360(18) 0.98995(8)
H60 H 0.0174 0.8068 0.9771
C38 C 0.07355(19) 0.93223(18) 0.97677(7)
C39 C 0.0260(2) 0.9618(2) 0.94236(9)
H63 H 0.0441 0.9224 0.9227
N8 N 0.12889(15) 0.98979(15) 0.99344(6)
C13 C 0.84360(18) 0.0582(2) 0.01005(8)
H19 H 0.8068 0.0174 0.0229
C14 C 0.93223(18) 0.07355(19) 0.02323(7)
C15 C 0.9618(2) 0.0260(2) 0.05764(9)
H22 H 0.9224 0.0441 0.0773
N2 N 0.98979(15) 0.12889(15) 0.00656(6)
C25 C 0.8412(3) 0.7974(2) 0.06779(8)
H42 H 0.8368 0.8124 0.0932
H43 H 0.8071 0.8413 0.0538
H44 H 0.9044 0.7986 0.0604
C26 C 0.80239(18) 0.70268(18) 0.06148(7)
C27 C 0.8028(2) 0.66928(18) 0.02595(7)
H45 H 0.8310 0.7051 0.0082
C28 C 0.7641(2) 0.58562(18) 0.01479(7)
C30 C 0.6977(2) 0.43367(19) 0.03235(8)
H49 H 0.6865 0.4248 0.0063
C31 C 0.6086(2) 0.4135(2) 0.05317(10)
H50 H 0.5598 0.4525 0.0441
H51 H 0.6171 0.4268 0.0788
C32 C 0.5818(3) 0.3124(3) 0.04834(12)
H52 H 0.5261 0.2998 0.0619
H53 H 0.5698 0.3001 0.0228
C33 C 0.6573(3) 0.2509(2) 0.06154(10)
H54 H 0.6392 0.1874 0.0583
H55 H 0.6670 0.2612 0.0874
C34 C 0.7751(2) 0.36970(18) 0.04424(7)
H56 H 0.7909 0.3830 0.0696
C45 C 0.99342(19) 0.45428(18) 0.00074(8)
C46 C 0.92935(19) 0.43573(18) 0.02799(7)
C47 C 0.9448(2) 0.4758(2) 0.06537(8)
H73 H 0.8961 0.4569 0.0813
H74 H 0.9457 0.5415 0.0638
C48 C 0.7466(2) 0.2683(2) 0.04115(8)
H76 H 0.7388 0.2523 0.0157
H77 H 0.7946 0.2297 0.0512
N7 N 0.72635(16) 0.52885(15) 0.03846(6)
H78 H 0.7175 0.5502 0.0600
N9 N 0.56725(18) 0.64978(16) 0.12059(6)
N10 N 0.73840(15) 0.43035(19) 0.14925(6)
N11 N 0.80415(16) 0.83290(17) 0.18346(7)
N12 N 0.85659(16) 0.38376(14) 0.02149(6)
H80 H 0.8573 0.3543 0.0012
O14 O 0.76893(12) 0.65979(12) 0.08825(5)
O16 O 0.65558(12) 0.64947(12) 0.20908(5)
O17 O 0.60782(14) 0.72038(14) 0.13203(6)
O18 O 0.60740(14) 0.57421(14) 0.12469(5)
O19 O 0.70393(13) 0.47353(14) 0.17534(5)
O20 O 0.78615(14) 0.47724(14) 0.12650(5)
O21 O 0.76484(13) 0.81953(16) 0.15285(5)
O22 O 0.83118(14) 0.76317(15) 0.19971(5)
O24 O 0.86365(13) 0.56982(12) 0.20423(5)
O25 O 0.49148(17) 0.65485(15) 0.10604(7)
O26 O 0.72650(14) 0.3488(2) 0.14515(7)
O27 O 0.81300(16) 0.9102(2) 0.19576(7)
La2 La 0.761060(9) 0.638130(9) 0.155760(4)
O28 O 0.92856(16) 0.66074(14) 0.13718(6)
H81 H 0.9528 0.7208 0.1376
H82 H 0.9769 0.6232 0.1381
C1 C 0.7026(2) 0.3412(3) 0.81779(8)
H1 H 0.6876 0.3368 0.8432
H2 H 0.6587 0.3071 0.8038
H3 H 0.7014 0.4044 0.8104
C2 C 0.79732(18) 0.30239(18) 0.81148(7)
C3 C 0.83072(18) 0.3028(2) 0.77595(7)
H4 H 0.7949 0.3310 0.7582
C4 C 0.91438(18) 0.2641(2) 0.76479(7)
C5 C 0.9376(2) 0.2642(3) 0.72482(8)
H5 H 0.9965 0.2360 0.7213
H6 H 0.9394 0.3262 0.7161
H7 H 0.8918 0.2304 0.7117
C11 C 0.7085(2) 0.0781(2) 0.96863(9)
H16 H 0.6930 0.1108 0.9468
H17 H 0.6682 0.0966 0.9880
H18 H 0.7021 0.0134 0.9645
C12 C 0.80579(18) 0.09929(18) 0.97902(7)
H30 H 0.9869 0.5637 0.6861
H33 H 0.9585 0.4457 0.8138
N1 N 0.97115(15) 0.22635(16) 0.78846(6)
H37 H 0.9498 0.2175 0.8100
H38 H 0.9668 0.1605 0.9890
N3 N 0.85022(16) 0.06725(18) 0.87059(6)
N5 N 0.66710(17) 0.30415(16) 0.93346(7)
O1 O 0.84021(12) 0.26893(12) 0.83825(5)
O2 O 0.85053(12) 0.15558(12) 0.95908(5)
O3 O 0.77962(14) 0.10782(14) 0.88203(6)
O4 O 0.92579(14) 0.10740(14) 0.87469(5)
O7 O 0.68047(16) 0.26484(13) 0.90285(5)
O8 O 0.73683(15) 0.33118(14) 0.94971(5)
O12 O 0.5898(2) 0.31300(16) 0.94576(7)
La1 La 0.861870(9) 0.261060(9) 0.905760(4)
O13 O 0.83926(14) 0.42856(16) 0.88718(6)
H40 H 0.7792 0.4528 0.8876
H41 H 0.8768 0.4769 0.8881
C29 C 0.7642(3) 0.5624(2) 0.97482(8)
H46 H 0.7360 0.5035 0.9713
H47 H 0.8262 0.5606 0.9661
H48 H 0.7304 0.6082 0.9617
C44 C 0.99156(18) 0.41936(17) 0.96519(7)
O23 O 0.93018(12) 0.36365(13) 0.95423(5)
C1_2 C 0.2974(2) 0.6588(3) 0.31779(8)
H1_2 H 0.3124 0.6632 0.3432
H2_2 H 0.3413 0.6929 0.3038
H3_2 H 0.2986 0.5956 0.3104
C2_2 C 0.20268(18) 0.69761(18) 0.31148(7)
C3_2 C 0.16928(18) 0.6972(2) 0.27595(7)
H4_2 H 0.2051 0.6690 0.2582
C4_2 C 0.08562(18) 0.7359(2) 0.26479(7)
C5_2 C 0.0624(2) 0.7358(3) 0.22482(8)
H5_2 H 0.0035 0.7640 0.2213
H6_2 H 0.0606 0.6738 0.2161
H7_2 H 0.1082 0.7696 0.2117
C11_2 C 0.2915(2) 0.9219(2) 0.46863(9)
H16_2 H 0.3070 0.8892 0.4468
H17_2 H 0.3318 0.9034 0.4880
H18_2 H 0.2979 0.9866 0.4645
C12_2 C 0.19421(18) 0.90071(18) 0.47902(7)
C13_2 C 0.15640(18) 0.9418(2) 0.51005(8)
H19_2 H 0.1932 0.9826 0.5229
C14_2 C 0.06777(18) 0.92645(19) 0.52323(7)
C15_2 C 0.0382(2) 0.9740(2) 0.55764(9)
H22_2 H 0.0776 0.9559 0.5773
H30_2 H 0.0131 0.4363 0.1861
H33_2 H 0.0415 0.5543 0.3138
N1_2 N 0.02885(15) 0.77365(16) 0.28846(6)
H37_2 H 0.0502 0.7825 0.3100
N2_2 N 0.01021(15) 0.87111(15) 0.50656(6)
H38_2 H 0.0332 0.8395 0.4890
N3_2 N 0.14978(16) 0.93275(18) 0.37059(6)
N5_2 N 0.33290(17) 0.69585(16) 0.43346(7)
O1_2 O 0.15979(12) 0.73107(12) 0.33825(5)
O2_2 O 0.14947(12) 0.84442(12) 0.45908(5)
O3_2 O 0.22038(14) 0.89218(14) 0.38203(6)
O4_2 O 0.07421(14) 0.89260(14) 0.37469(5)
O7_2 O 0.31953(16) 0.73516(13) 0.40285(5)
O8_2 O 0.26317(15) 0.66882(14) 0.44971(5)
O12_2 O 0.4102(2) 0.68700(16) 0.44576(7)
La1_2 La 0.138130(9) 0.738940(9) 0.405760(4)
O13_2 O 0.16074(14) 0.57144(16) 0.38718(6)
H40_2 H 0.2208 0.5472 0.3876
H41_2 H 0.1232 0.5231 0.3881
C25_2 C 0.1588(3) 0.2026(2) 0.56779(8)
H42_2 H 0.1632 0.1876 0.5932
H43_2 H 0.1929 0.1587 0.5538
H44_2 H 0.0956 0.2014 0.5604
C26_2 C 0.19761(18) 0.29732(18) 0.56148(7)
C27_2 C 0.1972(2) 0.33072(18) 0.52595(7)
H45_2 H 0.1690 0.2949 0.5082
C28_2 C 0.2359(2) 0.41438(18) 0.51479(7)
C29_2 C 0.2358(3) 0.4376(2) 0.47482(8)
H46_2 H 0.2640 0.4965 0.4713
H47_2 H 0.1738 0.4394 0.4661
H48_2 H 0.2696 0.3918 0.4617
C30_2 C 0.3023(2) 0.56633(19) 0.53235(8)
H49_2 H 0.3135 0.5752 0.5063
C31_2 C 0.3914(2) 0.5865(2) 0.55317(10)
H50_2 H 0.4402 0.5475 0.5441
H51_2 H 0.3829 0.5732 0.5788
C32_2 C 0.4182(3) 0.6876(3) 0.54834(12)
H52_2 H 0.4739 0.7002 0.5619
H53_2 H 0.4302 0.6999 0.5228
C33_2 C 0.3427(3) 0.7491(2) 0.56154(10)
H54_2 H 0.3608 0.8126 0.5583
H55_2 H 0.3330 0.7388 0.5874
C34_2 C 0.2249(2) 0.63030(18) 0.54424(7)
H56_2 H 0.2091 0.6170 0.5696
C44_2 C 0.00844(18) 0.58064(17) 0.46519(7)
C45_2 C 0.00658(19) 0.54572(18) 0.50074(8)
C46_2 C 0.07065(19) 0.56427(18) 0.52799(7)
C47_2 C 0.0552(2) 0.5242(2) 0.56537(8)
H73_2 H 0.1039 0.5431 0.5813
H74_2 H 0.0543 0.4585 0.5638
C48_2 C 0.2534(2) 0.7317(2) 0.54115(8)
H76_2 H 0.2612 0.7477 0.5157
H77_2 H 0.2054 0.7703 0.5512
N7_2 N 0.27365(16) 0.47115(15) 0.53846(6)
H78_2 H 0.2825 0.4498 0.5600
N9_2 N 0.43275(18) 0.35022(16) 0.62059(6)
N10_2 N 0.26160(15) 0.56965(19) 0.64925(6)
N11_2 N 0.19585(16) 0.16710(17) 0.68346(7)
N12_2 N 0.14341(16) 0.61624(14) 0.52149(6)
H80_2 H 0.1427 0.6457 0.5012
O14_2 O 0.23107(12) 0.34021(12) 0.58825(5)
O16_2 O 0.34442(12) 0.35053(12) 0.70908(5)
O17_2 O 0.39218(14) 0.27962(14) 0.63203(6)
O18_2 O 0.39260(14) 0.42579(14) 0.62469(5)
O19_2 O 0.29607(13) 0.52647(14) 0.67534(5)
O20_2 O 0.21385(14) 0.52276(14) 0.62650(5)
O21_2 O 0.23516(13) 0.18047(16) 0.65285(5)
O22_2 O 0.16882(14) 0.23683(15) 0.69971(5)
O23_2 O 0.06982(12) 0.63635(13) 0.45423(5)
O25_2 O 0.50852(17) 0.34515(15) 0.60604(7)
O26_2 O 0.27350(14) 0.6512(2) 0.64515(7)
O27_2 O 0.18700(16) 0.0898(2) 0.69576(7)
O28_2 O 0.07144(16) 0.33926(14) 0.63718(6)
H81_2 H 0.0472 0.2792 0.6376
H82_2 H 0.0231 0.3768 0.6381
C35_2 C 0.9219(2) 0.2915(2) 0.53137(9)
H57_2 H 0.8892 0.3070 0.5532
H58_2 H 0.9034 0.3318 0.5120
H59_2 H 0.9866 0.2979 0.5355
C36_2 C 0.90071(18) 0.19421(18) 0.52098(7)
C37_2 C 0.9418(2) 0.15640(18) 0.48995(8)
H60_2 H 0.9826 0.1932 0.4771
C38_2 C 0.92645(19) 0.06777(18) 0.47677(7)
C39_2 C 0.9740(2) 0.0382(2) 0.44236(9)
H63_2 H 0.9559 0.0776 0.4227
N8_2 N 0.87111(15) 0.01021(15) 0.49344(6)
H79_2 H 0.8395 0.0332 0.5110
O15_2 O 0.84442(12) 0.14947(12) 0.54092(5)
La4_2 La 0.738940(9) 0.138130(9) 0.594240(4)
C6_2 C 0.93367(19) 0.8023(2) 0.28235(8)
H8_2 H 0.9248 0.8135 0.2563
C7_2 C 0.9135(2) 0.8914(2) 0.30317(10)
H9_2 H 0.9525 0.9402 0.2941
H10_2 H 0.9268 0.8829 0.3288
C8_2 C 0.8124(3) 0.9182(3) 0.29834(12)
H11_2 H 0.7998 0.9739 0.3119
H12_2 H 0.8001 0.9302 0.2728
C9_2 C 0.7509(2) 0.8427(3) 0.31154(10)
H13_2 H 0.6874 0.8608 0.3083
H14_2 H 0.7612 0.8330 0.3374
C10_2 C 0.86970(18) 0.7249(2) 0.29424(7)
H15_2 H 0.8830 0.7091 0.3196
H20_2 H 0.9761 0.9572 0.5633
C16_2 C 0.9123(2) 0.85560(19) 0.51359(8)
H23_2 H 0.8981 0.8766 0.5383
C17_2 C 0.8906(2) 0.7542(2) 0.51095(9)
H24_2 H 0.9228 0.7218 0.5302
H25_2 H 0.9126 0.7309 0.4878
C18_2 C 0.7885(2) 0.7353(3) 0.51422(10)
H26_2 H 0.7772 0.6702 0.5111
H27_2 H 0.7675 0.7527 0.5383
C19_2 C 0.9477(2) 0.4348(2) 0.18916(9)
H28_2 H 0.9184 0.4448 0.1661
H29_2 H 0.9298 0.3761 0.1986
C20_2 C 0.91936(17) 0.50844(18) 0.21519(7)
C21_2 C 0.95428(18) 0.50658(19) 0.25074(8)
H31_2 H 0.9933 0.4584 0.2567
C22_2 C 0.93573(18) 0.57065(19) 0.27799(7)
C23_2 C 0.9758(2) 0.5552(2) 0.31537(8)
H32_2 H 0.9569 0.6039 0.3313
H34_2 H 0.9544 0.4976 0.3248
C24_2 C 0.7683(2) 0.7534(2) 0.29115(8)
H35_2 H 0.7523 0.7612 0.2657
H36_2 H 0.7297 0.7054 0.3012
N4_2 N 0.93035(19) 0.76160(15) 0.39925(6)
N6_2 N 0.88376(14) 0.64341(16) 0.27149(6)
H39_2 H 0.8543 0.6427 0.2512
O5_2 O 0.97353(14) 0.79607(13) 0.42534(5)
O6_2 O 0.97724(14) 0.71385(14) 0.37650(5)
O11_2 O 0.8488(2) 0.77350(14) 0.39515(7)
H61_2 H 0.9572 0.9761 0.4367
C40_2 C 0.85560(19) 0.9123(2) 0.48641(8)
H64_2 H 0.8766 0.8981 0.4617
C41_2 C 0.7542(2) 0.8906(2) 0.48905(9)
H65_2 H 0.7218 0.9228 0.4698
H66_2 H 0.7309 0.9126 0.5122
C42_2 C 0.7353(3) 0.7885(2) 0.48578(10)
H67_2 H 0.6702 0.7772 0.4889
H68_2 H 0.7527 0.7675 0.4617
C43_2 C 0.9348(2) 0.5523(2) 0.43916(9)
H69_2 H 0.9448 0.5816 0.4161
H70_2 H 0.8761 0.5702 0.4486
H71_2 H 0.9363 0.4869 0.4361
H72_2 H 0.9584 0.5067 0.5067
H75_2 H 0.9976 0.5456 0.5748
C11_3 C 0.4219(2) 0.2085(2) 0.71863(9)
H16_3 H 0.3892 0.1930 0.6968
H17_3 H 0.4034 0.1682 0.7380
H18_3 H 0.4866 0.2021 0.7145
C12_3 C 0.40071(18) 0.30579(18) 0.72902(7)
C13_3 C 0.4418(2) 0.34360(18) 0.76005(8)
H19_3 H 0.4826 0.3068 0.7729
C14_3 C 0.42645(19) 0.43223(18) 0.77323(7)
C15_3 C 0.4740(2) 0.4618(2) 0.80764(9)
H20_3 H 0.4572 0.5239 0.8133
H21 H 0.5392 0.4580 0.8043
H22_3 H 0.4559 0.4224 0.8273
C16_3 C 0.35560(19) 0.5877(2) 0.76359(8)
H23_3 H 0.3766 0.6019 0.7883
C17_3 C 0.2542(2) 0.6094(2) 0.76095(9)
H24_3 H 0.2218 0.5772 0.7802
H25_3 H 0.2309 0.5874 0.7378
C18_3 C 0.2353(3) 0.7115(2) 0.76422(10)
H26_3 H 0.1702 0.7228 0.7611
H27_3 H 0.2527 0.7325 0.7883
N2_3 N 0.37111(15) 0.48979(15) 0.75656(6)
H38_3 H 0.3395 0.4668 0.7390
C35_3 C 0.7915(2) 0.5781(2) 0.78137(9)
H57_3 H 0.8070 0.6108 0.8032
H58_3 H 0.8318 0.5966 0.7620
H59_3 H 0.7979 0.5134 0.7855
C36_3 C 0.69421(18) 0.59929(18) 0.77098(7)
C37_3 C 0.65640(18) 0.5582(2) 0.73995(8)
H60_3 H 0.6932 0.5174 0.7271
C38_3 C 0.56777(18) 0.57355(19) 0.72677(7)
C39_3 C 0.5382(2) 0.5260(2) 0.69236(9)
H61_3 H 0.4761 0.5428 0.6867
H62 H 0.5420 0.4608 0.6957
H63_3 H 0.5776 0.5441 0.6727
C40_3 C 0.4123(2) 0.64440(19) 0.73641(8)
H64_3 H 0.3981 0.6234 0.7117
C41_3 C 0.3906(2) 0.7458(2) 0.73905(9)
H65_3 H 0.4228 0.7782 0.7198
H66_3 H 0.4126 0.7691 0.7622
C42_3 C 0.2885(2) 0.7647(3) 0.73578(10)
H67_3 H 0.2772 0.8298 0.7389
H68_3 H 0.2675 0.7473 0.7117
N8_3 N 0.51021(15) 0.62889(15) 0.74344(6)
H79_3 H 0.5332 0.6605 0.7610
O15_3 O 0.64947(12) 0.65558(12) 0.79092(5)
La4_3 La 0.638130(9) 0.761060(9) 0.844240(4)
C11_4 C 0.5781(2) 0.7915(2) 0.21863(9)
H16_4 H 0.6108 0.8070 0.1968
H17_4 H 0.5966 0.8318 0.2380
H18_4 H 0.5134 0.7979 0.2145
C12_4 C 0.59929(18) 0.69421(18) 0.22902(7)
C13_4 C 0.5582(2) 0.65640(18) 0.26005(8)
H19_4 H 0.5174 0.6932 0.2729
C14_4 C 0.57355(19) 0.56777(18) 0.27323(7)
C15_4 C 0.5260(2) 0.5382(2) 0.30764(9)
H20_4 H 0.5428 0.4761 0.3133
H21_2 H 0.4608 0.5420 0.3043
H22_4 H 0.5441 0.5776 0.3273
C16_4 C 0.64440(19) 0.4123(2) 0.26359(8)
H23_4 H 0.6234 0.3981 0.2883
C17_4 C 0.7458(2) 0.3906(2) 0.26095(9)
H24_4 H 0.7782 0.4228 0.2802
H25_4 H 0.7691 0.4126 0.2378
C18_4 C 0.7647(3) 0.2885(2) 0.26422(10)
H26_4 H 0.8298 0.2772 0.2611
H27_4 H 0.7473 0.2675 0.2883
N2_4 N 0.62889(15) 0.51021(15) 0.25656(6)
H38_4 H 0.6605 0.5332 0.2390
C35_4 C 0.2085(2) 0.4219(2) 0.28137(9)
H57_4 H 0.1930 0.3892 0.3032
H58_4 H 0.1682 0.4034 0.2620
H59_4 H 0.2021 0.4866 0.2855
C36_4 C 0.30579(18) 0.40071(18) 0.27098(7)
C37_4 C 0.34360(18) 0.4418(2) 0.23995(8)
H60_4 H 0.3068 0.4826 0.2271
C38_4 C 0.43223(18) 0.42645(19) 0.22677(7)
C39_4 C 0.4618(2) 0.4740(2) 0.19236(9)
H61_4 H 0.5239 0.4572 0.1867
H62_2 H 0.4580 0.5392 0.1957
H63_4 H 0.4224 0.4559 0.1727
C40_4 C 0.5877(2) 0.35560(19) 0.23641(8)
H64_4 H 0.6019 0.3766 0.2117
C41_4 C 0.6094(2) 0.2542(2) 0.23905(9)
H65_4 H 0.5772 0.2218 0.2198
H66_4 H 0.5874 0.2309 0.2622
C42_4 C 0.7115(2) 0.2353(3) 0.23578(10)
H67_4 H 0.7228 0.1702 0.2389
H68_4 H 0.7325 0.2527 0.2117
N8_4 N 0.48979(15) 0.37111(15) 0.24344(6)
H79_4 H 0.4668 0.3395 0.2610
O15_4 O 0.35053(12) 0.34442(12) 0.29092(5)
La4_4 La 0.361870(9) 0.238940(9) 0.344240(4)
C19_3 C 0.4477(2) 0.0652(2) 0.06084(9)
H28_3 H 0.4184 0.0552 0.0839
H29_3 H 0.4298 0.1239 0.0514
H30_3 H 0.5131 0.0637 0.0639
H31_3 H 0.4933 0.0416 0.9933
H34_3 H 0.4544 0.0024 0.9252
C25_3 C 0.6588(3) 0.2974(2) 0.68221(8)
H42_3 H 0.6632 0.3124 0.6568
H43_3 H 0.6929 0.3413 0.6962
H44_3 H 0.5956 0.2986 0.6896
C26_3 C 0.69761(18) 0.20268(18) 0.68852(7)
C27_3 C 0.6972(2) 0.16928(18) 0.72405(7)
H45_3 H 0.6690 0.2051 0.7418
C28_3 C 0.7359(2) 0.08562(18) 0.73521(7)
C29_3 C 0.7358(3) 0.0624(2) 0.77518(8)
H46_3 H 0.7640 0.0035 0.7787
H47_3 H 0.6738 0.0606 0.7839
H48_3 H 0.7696 0.1082 0.7883
H71_3 H 0.4363 0.0131 0.8139
H74_3 H 0.5543 0.0415 0.6862
N7_3 N 0.77365(16) 0.02885(15) 0.71154(6)
H78_3 H 0.7825 0.0502 0.6900
N9_3 N 0.93275(18) 0.14978(16) 0.62941(6)
N11_3 N 0.69585(16) 0.33290(17) 0.56654(7)
O14_3 O 0.73107(12) 0.15979(12) 0.66175(5)
O17_3 O 0.89218(14) 0.22038(14) 0.61797(6)
O18_3 O 0.89260(14) 0.07421(14) 0.62531(5)
O21_3 O 0.73516(13) 0.31953(16) 0.59715(5)
O22_3 O 0.66882(14) 0.26317(15) 0.55029(5)
O24_2 O 0.63635(13) 0.06982(12) 0.54577(5)
O27_3 O 0.68700(16) 0.4102(2) 0.55424(7)
O28_3 O 0.57144(16) 0.16074(14) 0.61282(6)
H81_3 H 0.5472 0.2208 0.6124
H82_3 H 0.5231 0.1232 0.6119
C5_3 C 0.5624(2) 0.7642(3) 0.02518(8)
H5_3 H 0.5035 0.7360 0.0287
H6_3 H 0.5606 0.8262 0.0339
H7_3 H 0.6082 0.7304 0.0383
C20_3 C 0.41936(17) 0.99156(18) 0.03481(7)
O9_2 O 0.36365(13) 0.93018(12) 0.04577(5)
C1_3 C 0.7974(2) 0.8412(3) 0.93221(8)
H1_3 H 0.8124 0.8368 0.9068
H2_3 H 0.8413 0.8071 0.9462
H3_3 H 0.7986 0.9044 0.9396
C2_3 C 0.70268(18) 0.80239(18) 0.93852(7)
C3_3 C 0.66928(18) 0.8028(2) 0.97405(7)
H4_3 H 0.7051 0.8310 0.9918
C4_3 C 0.58562(18) 0.7641(2) 0.98521(7)
C6_3 C 0.43367(19) 0.6977(2) 0.96765(8)
H8_3 H 0.4248 0.6865 0.9937
C7_3 C 0.4135(2) 0.6086(2) 0.94683(10)
H9_3 H 0.4525 0.5598 0.9559
H10_3 H 0.4268 0.6171 0.9212
C8_3 C 0.3124(3) 0.5818(3) 0.95166(12)
H11_3 H 0.2998 0.5261 0.9381
H12_3 H 0.3001 0.5698 0.9772
C9_3 C 0.2509(2) 0.6573(3) 0.93846(10)
H13_3 H 0.1874 0.6392 0.9417
H14_3 H 0.2612 0.6670 0.9126
C10_3 C 0.36970(18) 0.7751(2) 0.95576(7)
H15_3 H 0.3830 0.7909 0.9304
C21_3 C 0.45428(18) 0.99342(19) 0.99926(8)
C22_3 C 0.43573(18) 0.92935(19) 0.97201(7)
C23_3 C 0.4758(2) 0.9448(2) 0.93463(8)
H32_3 H 0.4569 0.8961 0.9187
H33_3 H 0.5415 0.9457 0.9362
C24_3 C 0.2683(2) 0.7466(2) 0.95885(8)
H35_3 H 0.2523 0.7388 0.9843
H36_3 H 0.2297 0.7946 0.9488
N1_3 N 0.52885(15) 0.72635(16) 0.96154(6)
H37_3 H 0.5502 0.7175 0.9400
N3_3 N 0.64978(16) 0.56725(18) 0.87941(6)
N4_3 N 0.43035(19) 0.73840(15) 0.85075(6)
N5_3 N 0.83290(17) 0.80415(16) 0.81654(7)
N6_3 N 0.38376(14) 0.85659(16) 0.97851(6)
H39_3 H 0.3543 0.8573 0.9988
O1_3 O 0.65979(12) 0.76893(12) 0.91175(5)
O3_3 O 0.72038(14) 0.60782(14) 0.86797(6)
O4_3 O 0.57421(14) 0.60740(14) 0.87531(5)
O5_3 O 0.47353(14) 0.70393(13) 0.82466(5)
O6_3 O 0.47724(14) 0.78615(14) 0.87350(5)
O7_3 O 0.81953(16) 0.76484(13) 0.84715(5)
O8_3 O 0.76317(15) 0.83118(14) 0.80029(5)
O10 O 0.65485(15) 0.49148(17) 0.89396(7)
O11_3 O 0.3488(2) 0.72650(14) 0.85485(7)
O12_3 O 0.9102(2) 0.81300(16) 0.80424(7)
O13_3 O 0.66074(14) 0.92856(16) 0.86282(6)
H40_3 H 0.7208 0.9528 0.8624
H41_3 H 0.6232 0.9769 0.8619
C30_3 C 0.8023(2) 0.93367(19) 0.71765(8)
H49_3 H 0.8135 0.9248 0.7437
C31_3 C 0.8914(2) 0.9135(2) 0.69683(10)
H50_3 H 0.9402 0.9525 0.7059
H51_3 H 0.8829 0.9268 0.6712
C32_3 C 0.9182(3) 0.8124(3) 0.70166(12)
H52_3 H 0.9739 0.7998 0.6881
H53_3 H 0.9302 0.8001 0.7272
C33_3 C 0.8427(3) 0.7509(2) 0.68846(10)
H54_3 H 0.8608 0.6874 0.6917
H55_3 H 0.8330 0.7612 0.6626
C34_3 C 0.7249(2) 0.86970(18) 0.70576(7)
H56_3 H 0.7091 0.8830 0.6804
C43_3 C 0.4348(2) 0.9477(2) 0.81084(9)
H69_3 H 0.4448 0.9184 0.8339
H70_3 H 0.3761 0.9298 0.8014
C44_3 C 0.50844(18) 0.91936(17) 0.78481(7)
C45_3 C 0.50658(19) 0.95428(18) 0.74926(8)
H72_3 H 0.4584 0.9933 0.7433
C46_3 C 0.57065(19) 0.93573(18) 0.72201(7)
C47_3 C 0.5552(2) 0.9758(2) 0.68463(8)
H73_3 H 0.6039 0.9569 0.6687
H75_3 H 0.4976 0.9544 0.6752
C48_3 C 0.7534(2) 0.7683(2) 0.70885(8)
H76_3 H 0.7612 0.7523 0.7343
H77_3 H 0.7054 0.7297 0.6988
N10_3 N 0.76160(15) 0.93035(19) 0.60075(6)
N12_3 N 0.64341(16) 0.88376(14) 0.72851(6)
H80_3 H 0.6427 0.8543 0.7488
O19_3 O 0.79607(13) 0.97353(14) 0.57466(5)
O20_3 O 0.71385(14) 0.97724(14) 0.62350(5)
O23_3 O 0.56982(12) 0.86365(13) 0.79577(5)
O26_3 O 0.77350(14) 0.8488(2) 0.60485(7)
C1_4 C 0.2026(2) 0.1588(3) 0.43221(8)
H1_4 H 0.1876 0.1632 0.4068
H2_4 H 0.1587 0.1929 0.4462
H3_4 H 0.2014 0.0956 0.4396
C2_4 C 0.29732(18) 0.19761(18) 0.43852(7)
C3_4 C 0.33072(18) 0.1972(2) 0.47405(7)
H4_4 H 0.2949 0.1690 0.4918
C4_4 C 0.41438(18) 0.2359(2) 0.48521(7)
C5_4 C 0.4376(2) 0.2358(3) 0.52518(8)
H5_4 H 0.4965 0.2640 0.5287
H6_4 H 0.4394 0.1738 0.5339
H7_4 H 0.3918 0.2696 0.5383
C6_4 C 0.56633(19) 0.3023(2) 0.46765(8)
H8_4 H 0.5752 0.3135 0.4937
C7_4 C 0.5865(2) 0.3914(2) 0.44683(10)
H9_4 H 0.5475 0.4402 0.4559
H10_4 H 0.5732 0.3829 0.4212
C8_4 C 0.6876(3) 0.4182(3) 0.45166(12)
H11_4 H 0.7002 0.4739 0.4381
H12_4 H 0.6999 0.4302 0.4772
C9_4 C 0.7491(2) 0.3427(3) 0.43846(10)
H13_4 H 0.8126 0.3608 0.4417
H14_4 H 0.7388 0.3330 0.4126
C10_4 C 0.63030(18) 0.2249(2) 0.45576(7)
H15_4 H 0.6170 0.2091 0.4304
C20_4 C 0.58064(17) 0.00844(18) 0.53481(7)
C21_4 C 0.54572(18) 0.00658(19) 0.49926(8)
C22_4 C 0.56427(18) 0.07065(19) 0.47201(7)
C23_4 C 0.5242(2) 0.0552(2) 0.43463(8)
H32_4 H 0.5431 0.1039 0.4187
H33_4 H 0.4585 0.0543 0.4362
C24_4 C 0.7317(2) 0.2534(2) 0.45885(8)
H35_4 H 0.7477 0.2612 0.4843
H36_4 H 0.7703 0.2054 0.4488
N1_4 N 0.47115(15) 0.27365(16) 0.46154(6)
H37_4 H 0.4498 0.2825 0.4400
N3_4 N 0.35022(16) 0.43275(18) 0.37941(6)
N4_4 N 0.56965(19) 0.26160(15) 0.35075(6)
N5_4 N 0.16710(17) 0.19585(16) 0.31654(7)
N6_4 N 0.61624(14) 0.14341(16) 0.47851(6)
H39_4 H 0.6457 0.1427 0.4988
O1_4 O 0.34021(12) 0.23107(12) 0.41175(5)
O3_4 O 0.27962(14) 0.39218(14) 0.36797(6)
O4_4 O 0.42579(14) 0.39260(14) 0.37531(5)
O5_4 O 0.52647(14) 0.29607(13) 0.32466(5)
O6_4 O 0.52276(14) 0.21385(14) 0.37350(5)
O7_4 O 0.18047(16) 0.23516(13) 0.34715(5)
O8_4 O 0.23683(15) 0.16882(14) 0.30029(5)
O10_2 O 0.34515(15) 0.50852(17) 0.39396(7)
O11_4 O 0.6512(2) 0.27350(14) 0.35485(7)
O12_4 O 0.0898(2) 0.18700(16) 0.30424(7)
O13_4 O 0.33926(14) 0.07144(16) 0.36282(6)
H40_4 H 0.2792 0.0472 0.3624
H41_4 H 0.3768 0.0231 0.3619
C30_4 C 0.1977(2) 0.06633(19) 0.21765(8)
H49_4 H 0.1865 0.0752 0.2437
C31_4 C 0.1086(2) 0.0865(2) 0.19683(10)
H50_4 H 0.0598 0.0475 0.2059
H51_4 H 0.1171 0.0732 0.1712
C32_4 C 0.0818(3) 0.1876(3) 0.20166(12)
H52_4 H 0.0261 0.2002 0.1881
H53_4 H 0.0698 0.1999 0.2272
C33_4 C 0.1573(3) 0.2491(2) 0.18846(10)
H54_4 H 0.1392 0.3126 0.1917
H55_4 H 0.1670 0.2388 0.1626
C34_4 C 0.2751(2) 0.13030(18) 0.20576(7)
H56_4 H 0.2909 0.1170 0.1804
C43_4 C 0.5652(2) 0.0523(2) 0.31084(9)
H69_4 H 0.5552 0.0816 0.3339
H70_4 H 0.6239 0.0702 0.3014
C44_4 C 0.49156(18) 0.08064(17) 0.28481(7)
C45_4 C 0.49342(19) 0.04572(18) 0.24926(8)
H72_4 H 0.5416 0.0067 0.2433
C46_4 C 0.42935(19) 0.06427(18) 0.22201(7)
C47_4 C 0.4448(2) 0.0242(2) 0.18463(8)
H73_4 H 0.3961 0.0431 0.1687
H75_4 H 0.5024 0.0456 0.1752
C48_4 C 0.2466(2) 0.2317(2) 0.20885(8)
H76_4 H 0.2388 0.2477 0.2343
H77_4 H 0.2946 0.2703 0.1988
N10_4 N 0.23840(15) 0.06965(19) 0.10075(6)
N12_4 N 0.35659(16) 0.11624(14) 0.22851(6)
H80_4 H 0.3573 0.1457 0.2488
O19_4 O 0.20393(13) 0.02647(14) 0.07466(5)
O20_4 O 0.28615(14) 0.02276(14) 0.12350(5)
O23_4 O 0.43018(12) 0.13635(13) 0.29577(5)
O26_4 O 0.22650(14) 0.1512(2) 0.10485(7)
C19_4 C 0.5523(2) 0.9348(2) 0.56084(9)
H28_4 H 0.5816 0.9448 0.5839
H29_4 H 0.5702 0.8761 0.5514
H30_4 H 0.4869 0.9363 0.5639
H31_4 H 0.5067 0.9584 0.4933
H34_4 H 0.5456 0.9976 0.4252
C25_4 C 0.3412(3) 0.7026(2) 0.18221(8)
H42_4 H 0.3368 0.6876 0.1568
H43_4 H 0.3071 0.6587 0.1962
H44_4 H 0.4044 0.7014 0.1896
C26_4 C 0.30239(18) 0.79732(18) 0.18852(7)
C27_4 C 0.3028(2) 0.83072(18) 0.22405(7)
H45_4 H 0.3310 0.7949 0.2418
C28_4 C 0.2641(2) 0.91438(18) 0.23521(7)
C29_4 C 0.2642(3) 0.9376(2) 0.27518(8)
H46_4 H 0.2360 0.9965 0.2787
H47_4 H 0.3262 0.9394 0.2839
H48_4 H 0.2304 0.8918 0.2883
H71_4 H 0.5637 0.9869 0.3139
H74_4 H 0.4457 0.9585 0.1862
N7_4 N 0.22635(16) 0.97115(15) 0.21154(6)
H78_4 H 0.2175 0.9498 0.1900
N9_4 N 0.06725(18) 0.85022(16) 0.12941(6)
N11_4 N 0.30415(16) 0.66710(17) 0.06654(7)
O14_4 O 0.26893(12) 0.84021(12) 0.16175(5)
O17_4 O 0.10782(14) 0.77962(14) 0.11797(6)
O18_4 O 0.10740(14) 0.92579(14) 0.12531(5)
O21_4 O 0.26484(13) 0.68047(16) 0.09715(5)
O22_4 O 0.33118(14) 0.73683(15) 0.05029(5)
O27_4 O 0.31300(16) 0.5898(2) 0.05424(7)
O28_4 O 0.42856(16) 0.83926(14) 0.11282(6)
H81_4 H 0.4528 0.7792 0.1124
H82_4 H 0.4769 0.8768 0.1119
H21_3 H 0.9580 0.9608 0.0543
O25_3 O 0.99148(17) 0.84515(15) 0.14396(7)
O10_3 O 0.84515(15) 0.99148(17) 0.85604(7)
H62_3 H 0.9608 0.9580 0.9457
H21_4 H 0.0420 0.0392 0.5543
O10_4 O 0.15485(15) 0.00852(17) 0.35604(7)
H62_4 H 0.0392 0.0420 0.4457
O25_4 O 0.00852(17) 0.15485(15) 0.64396(7)
loop_
_geom_bond_atom_site_label_1
_geom_bond_atom_site_label_2
_geom_bond_site_symmetry_1
_geom_bond_site_symmetry_2
C16 H23 1_555 1_555
C17 C16 1_555 1_555
H24 C17 1_555 1_555
C18 C17 1_555 1_555
H26 C18 1_555 1_555
H27 C18 1_555 1_555
C6 H8 1_555 1_555
C7 C6 1_555 1_555
H9 C7 1_555 1_555
H10 C7 1_555 1_555
C8 C7 1_555 1_555
H11 C8 1_555 1_555
H12 C8 1_555 1_555
C9 C8 1_555 1_555
H13 C9 1_555 1_555
H14 C9 1_555 1_555
C10 C6 1_555 1_555
H15 C10 1_555 1_555
C19 H28 1_555 1_555
H29 C19 1_555 1_555
C20 C19 1_555 1_555
C21 C20 1_555 1_555
H31 C21 1_555 1_555
C22 C21 1_555 1_555
C23 C22 1_555 1_555
H32 C23 1_555 1_555
H34 C23 1_555 1_555
C24 C9 1_555 1_555
H35 C24 1_555 1_555
H36 C24 1_555 1_555
N4 O5 1_555 1_555
N6 C10 1_555 1_555
H39 N6 1_555 1_555
O6 N4 1_555 1_555
O9 C20 1_555 1_555
O11 N4 1_555 1_555
H64 C40 1_555 1_555
C41 C40 1_555 1_555
H65 C41 1_555 1_555
H67 C42 1_555 1_555
H68 C42 1_555 1_555
C43 H69 1_555 1_555
H70 C43 1_555 1_555
H71 C43 1_555 1_555
La3 O9 1_555 1_555
C10 C24 1_555 1_555
C22 N6 1_555 1_555
C41 C42 1_555 1_555
C35 H57 1_555 1_555
H58 C35 1_555 1_555
H59 C35 1_555 1_555
C36 C35 1_555 1_555
O15 C36 1_555 1_555
La4 O15 1_555 1_555
H60 C37 1_555 1_555
C38 C37 1_555 1_555
C39 C38 1_555 1_555
H63 C39 1_555 1_555
N8 C38 1_555 1_555
H19 C13 1_555 1_555
C14 C13 1_555 1_555
C15 C14 1_555 1_555
H22 C15 1_555 1_555
N2 C14 1_555 1_555
C25 H42 1_555 1_555
H43 C25 1_555 1_555
H44 C25 1_555 1_555
C26 C25 1_555 1_555
C27 C26 1_555 1_555
H45 C27 1_555 1_555
C28 C27 1_555 1_555
C30 H49 1_555 1_555
C31 C30 1_555 1_555
H50 C31 1_555 1_555
H51 C31 1_555 1_555
C32 C31 1_555 1_555
H52 C32 1_555 1_555
H53 C32 1_555 1_555
C33 C32 1_555 1_555
H54 C33 1_555 1_555
H55 C33 1_555 1_555
C34 C30 1_555 1_555
H56 C34 1_555 1_555
C46 C45 1_555 1_555
C47 C46 1_555 1_555
H73 C47 1_555 1_555
H74 C47 1_555 1_555
C48 C33 1_555 1_555
H76 C48 1_555 1_555
H77 C48 1_555 1_555
N7 C28 1_555 1_555
H78 N7 1_555 1_555
N9 O17 1_555 1_555
N10 O19 1_555 1_555
N11 O21 1_555 1_555
N12 C34 1_555 1_555
H80 N12 1_555 1_555
O14 C26 1_555 1_555
O16 La2 1_555 1_555
O17 La2 1_555 1_555
O18 N9 1_555 1_555
O19 La2 1_555 1_555
O20 N10 1_555 1_555
O21 La2 1_555 1_555
O22 N11 1_555 1_555
O24 La2 1_555 1_555
O25 N9 1_555 1_555
O26 N10 1_555 1_555
O27 N11 1_555 1_555
La2 O14 1_555 1_555
O28 La2 1_555 1_555
H81 O28 1_555 1_555
H82 O28 1_555 1_555
C30 N7 1_555 1_555
C34 C48 1_555 1_555
C46 N12 1_555 1_555
O18 La2 1_555 1_555
O20 La2 1_555 1_555
O22 La2 1_555 1_555
C1 H1 1_555 1_555
H2 C1 1_555 1_555
H3 C1 1_555 1_555
C2 C1 1_555 1_555
C3 C2 1_555 1_555
H4 C3 1_555 1_555
C4 C3 1_555 1_555
C5 C4 1_555 1_555
H5 C5 1_555 1_555
H6 C5 1_555 1_555
H7 C5 1_555 1_555
C11 H16 1_555 1_555
H17 C11 1_555 1_555
H18 C11 1_555 1_555
C12 C11 1_555 1_555
N1 C4 1_555 1_555
H37 N1 1_555 1_555
N3 O3 1_555 1_555
N5 O7 1_555 1_555
O1 C2 1_555 1_555
O2 C12 1_555 1_555
O3 La1 1_555 1_555
O4 N3 1_555 1_555
O7 La1 1_555 1_555
O8 N5 1_555 1_555
O12 N5 1_555 1_555
La1 O1 1_555 1_555
O13 La1 1_555 1_555
H40 O13 1_555 1_555
H41 O13 1_555 1_555
H46 C29 1_555 1_555
H47 C29 1_555 1_555
H48 C29 1_555 1_555
O23 La1 1_555 1_555
O2 La1 1_555 1_555
O4 La1 1_555 1_555
O8 La1 1_555 1_555
C44 O23 1_555 1_555
C1_2 H1_2 1_555 1_555
H2_2 C1_2 1_555 1_555
H3_2 C1_2 1_555 1_555
C2_2 C1_2 1_555 1_555
C3_2 C2_2 1_555 1_555
H4_2 C3_2 1_555 1_555
C4_2 C3_2 1_555 1_555
C5_2 C4_2 1_555 1_555
H5_2 C5_2 1_555 1_555
H6_2 C5_2 1_555 1_555
H7_2 C5_2 1_555 1_555
C11_2 H16_2 1_555 1_555
H17_2 C11_2 1_555 1_555
H18_2 C11_2 1_555 1_555
C12_2 C11_2 1_555 1_555
C13_2 C12_2 1_555 1_555
H19_2 C13_2 1_555 1_555
C14_2 C13_2 1_555 1_555
C15_2 C14_2 1_555 1_555
H22_2 C15_2 1_555 1_555
N1_2 C4_2 1_555 1_555
H37_2 N1_2 1_555 1_555
N2_2 C14_2 1_555 1_555
H38_2 N2_2 1_555 1_555
N3_2 O3_2 1_555 1_555
N5_2 O7_2 1_555 1_555
O1_2 C2_2 1_555 1_555
O2_2 C12_2 1_555 1_555
O3_2 La1_2 1_555 1_555
O4_2 N3_2 1_555 1_555
O7_2 La1_2 1_555 1_555
O8_2 N5_2 1_555 1_555
O12_2 N5_2 1_555 1_555
La1_2 O1_2 1_555 1_555
O13_2 La1_2 1_555 1_555
H40_2 O13_2 1_555 1_555
H41_2 O13_2 1_555 1_555
C25_2 H42_2 1_555 1_555
H43_2 C25_2 1_555 1_555
H44_2 C25_2 1_555 1_555
C26_2 C25_2 1_555 1_555
C27_2 C26_2 1_555 1_555
H45_2 C27_2 1_555 1_555
C28_2 C27_2 1_555 1_555
C29_2 C28_2 1_555 1_555
H46_2 C29_2 1_555 1_555
H47_2 C29_2 1_555 1_555
H48_2 C29_2 1_555 1_555
C30_2 H49_2 1_555 1_555
C31_2 C30_2 1_555 1_555
H50_2 C31_2 1_555 1_555
H51_2 C31_2 1_555 1_555
C32_2 C31_2 1_555 1_555
H52_2 C32_2 1_555 1_555
H53_2 C32_2 1_555 1_555
C33_2 C32_2 1_555 1_555
H54_2 C33_2 1_555 1_555
H55_2 C33_2 1_555 1_555
C34_2 C30_2 1_555 1_555
H56_2 C34_2 1_555 1_555
C45_2 C44_2 1_555 1_555
C46_2 C45_2 1_555 1_555
C47_2 C46_2 1_555 1_555
H73_2 C47_2 1_555 1_555
H74_2 C47_2 1_555 1_555
C48_2 C33_2 1_555 1_555
H76_2 C48_2 1_555 1_555
H77_2 C48_2 1_555 1_555
N7_2 C28_2 1_555 1_555
H78_2 N7_2 1_555 1_555
N9_2 O17_2 1_555 1_555
N10_2 O19_2 1_555 1_555
N11_2 O21_2 1_555 1_555
N12_2 C34_2 1_555 1_555
H80_2 N12_2 1_555 1_555
O14_2 C26_2 1_555 1_555
O16_2 La3 1_555 1_555
O17_2 La3 1_555 1_555
O18_2 N9_2 1_555 1_555
O19_2 La3 1_555 1_555
O20_2 N10_2 1_555 1_555
O21_2 La3 1_555 1_555
O22_2 N11_2 1_555 1_555
O23_2 La1_2 1_555 1_555
O25_2 N9_2 1_555 1_555
O26_2 N10_2 1_555 1_555
O27_2 N11_2 1_555 1_555
La3 O14_2 1_555 1_555
O28_2 La3 1_555 1_555
H81_2 O28_2 1_555 1_555
H82_2 O28_2 1_555 1_555
O2_2 La1_2 1_555 1_555
O4_2 La1_2 1_555 1_555
O8_2 La1_2 1_555 1_555
C30_2 N7_2 1_555 1_555
C34_2 C48_2 1_555 1_555
C44_2 O23_2 1_555 1_555
C46_2 N12_2 1_555 1_555
O18_2 La3 1_555 1_555
O20_2 La3 1_555 1_555
O22_2 La3 1_555 1_555
C35_2 H57_2 1_555 1_555
H58_2 C35_2 1_555 1_555
H59_2 C35_2 1_555 1_555
C36_2 C35_2 1_555 1_555
C37_2 C36_2 1_555 1_555
H60_2 C37_2 1_555 1_555
C38_2 C37_2 1_555 1_555
C39_2 C38_2 1_555 1_555
H63_2 C39_2 1_555 1_555
N8_2 C38_2 1_555 1_555
H79_2 N8_2 1_555 1_555
O15_2 C36_2 1_555 1_555
La4_2 O15_2 1_555 1_555
C6_2 H8_2 1_555 1_555
C7_2 C6_2 1_555 1_555
H9_2 C7_2 1_555 1_555
H10_2 C7_2 1_555 1_555
C8_2 C7_2 1_555 1_555
H11_2 C8_2 1_555 1_555
H12_2 C8_2 1_555 1_555
C9_2 C8_2 1_555 1_555
H13_2 C9_2 1_555 1_555
H14_2 C9_2 1_555 1_555
C10_2 C6_2 1_555 1_555
H15_2 C10_2 1_555 1_555
C16_2 H23_2 1_555 1_555
C17_2 C16_2 1_555 1_555
H24_2 C17_2 1_555 1_555
H25_2 C17_2 1_555 1_555
C18_2 C17_2 1_555 1_555
H26_2 C18_2 1_555 1_555
H27_2 C18_2 1_555 1_555
C19_2 H28_2 1_555 1_555
H29_2 C19_2 1_555 1_555
C20_2 C19_2 1_555 1_555
C21_2 C20_2 1_555 1_555
H31_2 C21_2 1_555 1_555
C22_2 C21_2 1_555 1_555
C23_2 C22_2 1_555 1_555
H32_2 C23_2 1_555 1_555
H34_2 C23_2 1_555 1_555
C24_2 C9_2 1_555 1_555
H35_2 C24_2 1_555 1_555
H36_2 C24_2 1_555 1_555
N4_2 O5_2 1_555 1_555
N6_2 C10_2 1_555 1_555
H39_2 N6_2 1_555 1_555
O6_2 N4_2 1_555 1_555
O24 C20_2 1_555 1_555
O11_2 N4_2 1_555 1_555
C40_2 C16_2 1_555 1_555
H64_2 C40_2 1_555 1_555
C41_2 C40_2 1_555 1_555
H65_2 C41_2 1_555 1_555
H66_2 C41_2 1_555 1_555
C42_2 C18_2 1_555 1_555
H67_2 C42_2 1_555 1_555
H68_2 C42_2 1_555 1_555
C43_2 H69_2 1_555 1_555
H70_2 C43_2 1_555 1_555
H71_2 C43_2 1_555 1_555
C10_2 C24_2 1_555 1_555
C22_2 N6_2 1_555 1_555
C41_2 C42_2 1_555 1_555
C11_3 H16_3 1_555 1_555
H17_3 C11_3 1_555 1_555
H18_3 C11_3 1_555 1_555
C12_3 C11_3 1_555 1_555
C13_3 C12_3 1_555 1_555
H19_3 C13_3 1_555 1_555
C14_3 C13_3 1_555 1_555
C15_3 C14_3 1_555 1_555
H20_3 C15_3 1_555 1_555
H21 C15_3 1_555 1_555
H22_3 C15_3 1_555 1_555
C16_3 H23_3 1_555 1_555
C17_3 C16_3 1_555 1_555
H24_3 C17_3 1_555 1_555
H25_3 C17_3 1_555 1_555
C18_3 C17_3 1_555 1_555
H26_3 C18_3 1_555 1_555
H27_3 C18_3 1_555 1_555
N2_3 C14_3 1_555 1_555
H38_3 N2_3 1_555 1_555
O16_2 C12_3 1_555 1_555
C35_3 H57_3 1_555 1_555
H58_3 C35_3 1_555 1_555
H59_3 C35_3 1_555 1_555
C36_3 C35_3 1_555 1_555
C37_3 C36_3 1_555 1_555
H60_3 C37_3 1_555 1_555
C38_3 C37_3 1_555 1_555
C39_3 C38_3 1_555 1_555
H61_3 C39_3 1_555 1_555
H62 C39_3 1_555 1_555
H63_3 C39_3 1_555 1_555
C40_3 C16_3 1_555 1_555
H64_3 C40_3 1_555 1_555
C41_3 C40_3 1_555 1_555
H65_3 C41_3 1_555 1_555
H66_3 C41_3 1_555 1_555
C42_3 C18_3 1_555 1_555
H67_3 C42_3 1_555 1_555
H68_3 C42_3 1_555 1_555
N8_3 C38_3 1_555 1_555
H79_3 N8_3 1_555 1_555
O15_3 C36_3 1_555 1_555
La4_3 O15_3 1_555 1_555
C16_3 N2_3 1_555 1_555
C40_3 N8_3 1_555 1_555
C41_3 C42_3 1_555 1_555
C11_4 H16_4 1_555 1_555
H17_4 C11_4 1_555 1_555
H18_4 C11_4 1_555 1_555
C12_4 C11_4 1_555 1_555
C13_4 C12_4 1_555 1_555
H19_4 C13_4 1_555 1_555
C14_4 C13_4 1_555 1_555
C15_4 C14_4 1_555 1_555
H20_4 C15_4 1_555 1_555
H21_2 C15_4 1_555 1_555
H22_4 C15_4 1_555 1_555
C16_4 H23_4 1_555 1_555
C17_4 C16_4 1_555 1_555
H24_4 C17_4 1_555 1_555
H25_4 C17_4 1_555 1_555
C18_4 C17_4 1_555 1_555
H26_4 C18_4 1_555 1_555
H27_4 C18_4 1_555 1_555
N2_4 C14_4 1_555 1_555
H38_4 N2_4 1_555 1_555
O16 C12_4 1_555 1_555
C35_4 H57_4 1_555 1_555
H58_4 C35_4 1_555 1_555
H59_4 C35_4 1_555 1_555
C36_4 C35_4 1_555 1_555
C37_4 C36_4 1_555 1_555
H60_4 C37_4 1_555 1_555
C38_4 C37_4 1_555 1_555
C39_4 C38_4 1_555 1_555
H61_4 C39_4 1_555 1_555
H62_2 C39_4 1_555 1_555
H63_4 C39_4 1_555 1_555
C40_4 C16_4 1_555 1_555
H64_4 C40_4 1_555 1_555
C41_4 C40_4 1_555 1_555
H65_4 C41_4 1_555 1_555
H66_4 C41_4 1_555 1_555
C42_4 C18_4 1_555 1_555
H67_4 C42_4 1_555 1_555
H68_4 C42_4 1_555 1_555
N8_4 C38_4 1_555 1_555
H79_4 N8_4 1_555 1_555
O15_4 C36_4 1_555 1_555
La4_4 O15_4 1_555 1_555
C16_4 N2_4 1_555 1_555
C40_4 N8_4 1_555 1_555
C41_4 C42_4 1_555 1_555
C19_3 H28_3 1_555 1_555
H29_3 C19_3 1_555 1_555
H30_3 C19_3 1_555 1_555
C25_3 H42_3 1_555 1_555
H43_3 C25_3 1_555 1_555
H44_3 C25_3 1_555 1_555
C26_3 C25_3 1_555 1_555
C27_3 C26_3 1_555 1_555
H45_3 C27_3 1_555 1_555
C28_3 C27_3 1_555 1_555
C29_3 C28_3 1_555 1_555
H46_3 C29_3 1_555 1_555
H47_3 C29_3 1_555 1_555
H48_3 C29_3 1_555 1_555
N7_3 C28_3 1_555 1_555
H78_3 N7_3 1_555 1_555
N9_3 O17_3 1_555 1_555
N11_3 O21_3 1_555 1_555
O14_3 C26_3 1_555 1_555
O17_3 La4_2 1_555 1_555
O18_3 N9_3 1_555 1_555
O21_3 La4_2 1_555 1_555
O22_3 N11_3 1_555 1_555
O24_2 La4_2 1_555 1_555
O27_3 N11_3 1_555 1_555
La4_2 O14_3 1_555 1_555
O28_3 La4_2 1_555 1_555
H81_3 O28_3 1_555 1_555
H82_3 O28_3 1_555 1_555
O18_3 La4_2 1_555 1_555
O22_3 La4_2 1_555 1_555
H5_3 C5_3 1_555 1_555
H6_3 C5_3 1_555 1_555
H7_3 C5_3 1_555 1_555
O9_2 C20_3 1_555 1_555
La4 O9_2 1_555 1_555
C1_3 H1_3 1_555 1_555
H2_3 C1_3 1_555 1_555
H3_3 C1_3 1_555 1_555
C2_3 C1_3 1_555 1_555
C3_3 C2_3 1_555 1_555
H4_3 C3_3 1_555 1_555
C4_3 C3_3 1_555 1_555
C6_3 H8_3 1_555 1_555
C7_3 C6_3 1_555 1_555
H9_3 C7_3 1_555 1_555
H10_3 C7_3 1_555 1_555
C8_3 C7_3 1_555 1_555
H11_3 C8_3 1_555 1_555
H12_3 C8_3 1_555 1_555
C9_3 C8_3 1_555 1_555
H13_3 C9_3 1_555 1_555
H14_3 C9_3 1_555 1_555
C10_3 C6_3 1_555 1_555
H15_3 C10_3 1_555 1_555
C22_3 C21_3 1_555 1_555
C23_3 C22_3 1_555 1_555
H32_3 C23_3 1_555 1_555
H33_3 C23_3 1_555 1_555
C24_3 C9_3 1_555 1_555
H35_3 C24_3 1_555 1_555
H36_3 C24_3 1_555 1_555
N1_3 C4_3 1_555 1_555
H37_3 N1_3 1_555 1_555
N3_3 O3_3 1_555 1_555
N4_3 O5_3 1_555 1_555
N5_3 O7_3 1_555 1_555
N6_3 C10_3 1_555 1_555
H39_3 N6_3 1_555 1_555
O1_3 C2_3 1_555 1_555
O3_3 La4_3 1_555 1_555
O4_3 N3_3 1_555 1_555
O5_3 La4_3 1_555 1_555
O6_3 N4_3 1_555 1_555
O7_3 La4_3 1_555 1_555
O8_3 N5_3 1_555 1_555
O10 N3_3 1_555 1_555
O11_3 N4_3 1_555 1_555
O12_3 N5_3 1_555 1_555
La4_3 O1_3 1_555 1_555
O13_3 La4_3 1_555 1_555
H40_3 O13_3 1_555 1_555
H41_3 O13_3 1_555 1_555
C30_3 H49_3 1_555 1_555
C31_3 C30_3 1_555 1_555
H50_3 C31_3 1_555 1_555
H51_3 C31_3 1_555 1_555
C32_3 C31_3 1_555 1_555
H52_3 C32_3 1_555 1_555
H53_3 C32_3 1_555 1_555
C33_3 C32_3 1_555 1_555
H54_3 C33_3 1_555 1_555
H55_3 C33_3 1_555 1_555
C34_3 C30_3 1_555 1_555
H56_3 C34_3 1_555 1_555
C43_3 H69_3 1_555 1_555
H70_3 C43_3 1_555 1_555
C44_3 C43_3 1_555 1_555
C45_3 C44_3 1_555 1_555
H72_3 C45_3 1_555 1_555
C46_3 C45_3 1_555 1_555
C47_3 C46_3 1_555 1_555
H73_3 C47_3 1_555 1_555
H75_3 C47_3 1_555 1_555
C48_3 C33_3 1_555 1_555
H76_3 C48_3 1_555 1_555
H77_3 C48_3 1_555 1_555
N10_3 O19_3 1_555 1_555
N12_3 C34_3 1_555 1_555
H80_3 N12_3 1_555 1_555
O20_3 N10_3 1_555 1_555
O23_3 La4_3 1_555 1_555
O26_3 N10_3 1_555 1_555
C6_3 N1_3 1_555 1_555
C10_3 C24_3 1_555 1_555
C22_3 N6_3 1_555 1_555
O4_3 La4_3 1_555 1_555
O6_3 La4_3 1_555 1_555
O8_3 La4_3 1_555 1_555
C34_3 C48_3 1_555 1_555
C44_3 O23_3 1_555 1_555
C46_3 N12_3 1_555 1_555
C1_4 H1_4 1_555 1_555
H2_4 C1_4 1_555 1_555
H3_4 C1_4 1_555 1_555
C2_4 C1_4 1_555 1_555
C3_4 C2_4 1_555 1_555
H4_4 C3_4 1_555 1_555
C4_4 C3_4 1_555 1_555
C5_4 C4_4 1_555 1_555
H5_4 C5_4 1_555 1_555
H6_4 C5_4 1_555 1_555
H7_4 C5_4 1_555 1_555
C6_4 H8_4 1_555 1_555
C7_4 C6_4 1_555 1_555
H9_4 C7_4 1_555 1_555
H10_4 C7_4 1_555 1_555
C8_4 C7_4 1_555 1_555
H11_4 C8_4 1_555 1_555
H12_4 C8_4 1_555 1_555
C9_4 C8_4 1_555 1_555
H13_4 C9_4 1_555 1_555
H14_4 C9_4 1_555 1_555
C10_4 C6_4 1_555 1_555
H15_4 C10_4 1_555 1_555
C21_4 C20_4 1_555 1_555
C22_4 C21_4 1_555 1_555
C23_4 C22_4 1_555 1_555
H32_4 C23_4 1_555 1_555
H33_4 C23_4 1_555 1_555
C24_4 C9_4 1_555 1_555
H35_4 C24_4 1_555 1_555
H36_4 C24_4 1_555 1_555
N1_4 C4_4 1_555 1_555
H37_4 N1_4 1_555 1_555
N3_4 O3_4 1_555 1_555
N4_4 O5_4 1_555 1_555
N5_4 O7_4 1_555 1_555
N6_4 C10_4 1_555 1_555
H39_4 N6_4 1_555 1_555
O1_4 C2_4 1_555 1_555
O3_4 La4_4 1_555 1_555
O4_4 N3_4 1_555 1_555
O5_4 La4_4 1_555 1_555
O6_4 N4_4 1_555 1_555
O7_4 La4_4 1_555 1_555
O8_4 N5_4 1_555 1_555
O24_2 C20_4 1_555 1_555
O10_2 N3_4 1_555 1_555
O11_4 N4_4 1_555 1_555
O12_4 N5_4 1_555 1_555
La4_4 O1_4 1_555 1_555
O13_4 La4_4 1_555 1_555
H40_4 O13_4 1_555 1_555
H41_4 O13_4 1_555 1_555
C30_4 H49_4 1_555 1_555
C31_4 C30_4 1_555 1_555
H50_4 C31_4 1_555 1_555
H51_4 C31_4 1_555 1_555
C32_4 C31_4 1_555 1_555
H52_4 C32_4 1_555 1_555
H53_4 C32_4 1_555 1_555
C33_4 C32_4 1_555 1_555
H54_4 C33_4 1_555 1_555
H55_4 C33_4 1_555 1_555
C34_4 C30_4 1_555 1_555
H56_4 C34_4 1_555 1_555
C43_4 H69_4 1_555 1_555
H70_4 C43_4 1_555 1_555
C44_4 C43_4 1_555 1_555
C45_4 C44_4 1_555 1_555
H72_4 C45_4 1_555 1_555
C46_4 C45_4 1_555 1_555
C47_4 C46_4 1_555 1_555
H73_4 C47_4 1_555 1_555
H75_4 C47_4 1_555 1_555
C48_4 C33_4 1_555 1_555
H76_4 C48_4 1_555 1_555
H77_4 C48_4 1_555 1_555
N10_4 O19_4 1_555 1_555
N12_4 C34_4 1_555 1_555
H80_4 N12_4 1_555 1_555
O20_4 N10_4 1_555 1_555
O23_4 La4_4 1_555 1_555
O26_4 N10_4 1_555 1_555
C6_4 N1_4 1_555 1_555
C10_4 C24_4 1_555 1_555
C22_4 N6_4 1_555 1_555
O4_4 La4_4 1_555 1_555
O6_4 La4_4 1_555 1_555
O8_4 La4_4 1_555 1_555
C34_4 C48_4 1_555 1_555
C44_4 O23_4 1_555 1_555
C46_4 N12_4 1_555 1_555
C19_4 H28_4 1_555 1_555
H29_4 C19_4 1_555 1_555
H30_4 C19_4 1_555 1_555
C25_4 H42_4 1_555 1_555
H43_4 C25_4 1_555 1_555
H44_4 C25_4 1_555 1_555
C26_4 C25_4 1_555 1_555
C27_4 C26_4 1_555 1_555
H45_4 C27_4 1_555 1_555
C28_4 C27_4 1_555 1_555
C29_4 C28_4 1_555 1_555
H46_4 C29_4 1_555 1_555
H47_4 C29_4 1_555 1_555
H48_4 C29_4 1_555 1_555
N7_4 C28_4 1_555 1_555
H78_4 N7_4 1_555 1_555
N9_4 O17_4 1_555 1_555
N11_4 O21_4 1_555 1_555
O14_4 C26_4 1_555 1_555
O17_4 La4 1_555 1_555
O18_4 N9_4 1_555 1_555
O21_4 La4 1_555 1_555
O22_4 N11_4 1_555 1_555
O27_4 N11_4 1_555 1_555
La4 O14_4 1_555 1_555
O28_4 La4 1_555 1_555
H81_4 O28_4 1_555 1_555
H82_4 O28_4 1_555 1_555
O18_4 La4 1_555 1_555
O22_4 La4 1_555 1_555

#END
