
###############################################################################
#
# This file contains modified crystal structure data generated from the
# MOF subset of the Cambridge Structural Database (CSD) v543 
# hosted by the Cambridge Crystallographic Data Centre (CCDC).
#
# This work is licensed under the Creative Commons
# Attribution-NonCommercial-ShareAlike 4.0 International License.
# To view a copy of this license, visit
# http://creativecommons.org/licenses/by-nc-sa/4.0/
# or send a letter to
# Creative Commons, PO Box 1866, Mountain View, CA 94042, USA.
#
# CIF created using the CSD Python API on 29 September 2022
# The structure has been converted into the P1 space group
# The structure has a 3D framework
# The original CSD entry UTULUR is in the orthorhombic crystal system
# The framework has been calculated to contain at least 10.0% void space
# The void calculation uses a probe of radius 1.32A, grid spacing 0.4
# H atom positions have been added when not included in the experimental data
#
###############################################################################

data_UTULUR
_chemical_formula_moiety         '(C160 H64 In24 O141)n'
_symmetry_cell_setting           triclinic
_symmetry_space_group_name_H-M   'P 1'
_symmetry_Int_Tables_number      1
_space_group_name_Hall           'P 1'
loop_
_symmetry_equiv_pos_site_id
_symmetry_equiv_pos_as_xyz
1 x,y,z
_cell_length_a                   8.2390(8)
_cell_length_b                   22.251(2)
_cell_length_c                   37.791(4)
_cell_angle_alpha                90
_cell_angle_beta                 90
_cell_angle_gamma                90
_cell_volume                     6928.07
loop_
_atom_site_label
_atom_site_type_symbol
_atom_site_fract_x
_atom_site_fract_y
_atom_site_fract_z
In14 In 0.16901(9) 0.07217(4) 0.10517(2)
In19 In 0.53459(10) 0.00027(4) 0.142240(19)
In2 In 0.16901(9) 0.42783(4) 0.10517(2)
In3 In 0.53459(10) 0.49973(4) 0.142240(19)
O1 O 0.3571(10) 0.4971(4) 0.1836(2)
O2 O 0.3637(9) 0.4887(4) 0.1009(2)
O5 O 0.0321(10) 0.5013(4) 0.0849(2)
O8 O 0.0894(11) 0.6332(4) 0.1263(2)
O10 O 0.1410(11) 0.4492(4) 0.1610(2)
O12 O 0.7203(11) 0.6393(4) 0.1271(3)
O13 O 0.4930(10) 0.5946(4) 0.1446(2)
C2 C 0.1209(14) 0.4896(5) 0.2179(3)
C3 C 0.1980(19) 0.4844(7) 0.2500
H1 H 0.3091 0.4770 0.2500
C6 C 0.2107(15) 0.4772(6) 0.1844(3)
C19 C 0.3153(16) 0.6951(5) 0.1189(4)
C20 C 0.2223(15) 0.6392(5) 0.1094(3)
C21 C 0.235(2) 0.7500 0.1148(5)
H7 H 0.1256 0.7500 0.1091
C22 C 0.5738(16) 0.6374(6) 0.1329(3)
C23 C 0.5637(19) 0.7500 0.1304(5)
H8 H 0.6750 0.7500 0.1345
C24 C 0.4815(14) 0.6949(5) 0.1274(3)
O19 O 0.2704(11) 0.6061(4) 0.0856(3)
In5 In 0.90306(9) 0.57485(3) 0.10769(2)
In7 In 0.90306(9) 0.92515(3) 0.10769(2)
In8 In 0.16901(9) 0.42783(4) 0.39483(2)
In15 In 0.53459(10) 0.49973(4) 0.357760(19)
O20 O 0.3571(10) 0.4971(4) 0.3164(2)
O21 O 0.3637(9) 0.4887(4) 0.3991(2)
O22 O 0.7056(10) 0.5147(4) 0.1024(2)
O24 O 0.7056(10) 0.5147(4) 0.3976(2)
O26 O 0.7134(10) 0.4951(4) 0.1836(2)
O27 O 0.7134(10) 0.4951(4) 0.3164(2)
O28 O 0.0321(10) 0.9987(4) 0.0849(2)
O29 O 0.0321(10) 0.5013(4) 0.4151(2)
O31 O 0.3461(11) 0.3609(4) 0.1210(3)
O32 O 0.3461(11) 0.3609(4) 0.3790(3)
O34 O 0.5731(11) 0.4042(3) 0.1398(2)
O35 O 0.5731(11) 0.4042(3) 0.3602(2)
O36 O 0.0894(11) 0.8668(4) 0.1263(2)
O39 O 0.1410(11) 0.4492(4) 0.3390(2)
O42 O 0.7203(11) 0.8607(4) 0.1271(3)
O45 O 0.4930(10) 0.9054(4) 0.1446(2)
O46 O 0.4930(10) 0.5946(4) 0.3554(2)
O48 O 0.1655(13) 0.3818(5) 0.0553(3)
O49 O 0.1655(13) 0.3818(5) 0.4447(3)
C26 C 0.1209(14) 0.4896(5) 0.2821(3)
C28 C 0.2107(15) 0.4772(6) 0.3156(3)
C37 C 0.3153(16) 0.8049(5) 0.1189(4)
C38 C 0.2223(15) 0.8608(5) 0.1094(3)
C39 C 0.5738(16) 0.8626(6) 0.1329(3)
C40 C 0.4815(14) 0.8051(5) 0.1274(3)
O54 O 0.2704(11) 0.8939(4) 0.0856(3)
O9 O 0.9772(11) 0.3674(4) 0.1197(3)
O11 O 0.9281(11) 0.5460(4) 0.1624(2)
O15 O 0.9071(16) 0.6356(5) 0.0632(3)
C1 C 0.9507(15) 0.5011(6) 0.2183(3)
C4 C 0.8694(18) 0.5072(8) 0.2500
H2 H 0.7587 0.5154 0.2500
C5 C 0.8580(14) 0.5146(5) 0.1847(3)
C7 C 0.5867(15) 0.3052(5) 0.1213(3)
C8 C 0.7522(13) 0.3053(5) 0.1121(3)
C9 C 0.830(2) 0.2500 0.1080(5)
H3 H 0.9400 0.2500 0.1022
C10 C 0.511(2) 0.2500 0.1255(5)
H4 H 0.4018 0.2500 0.1315
C11 C 0.8420(15) 0.3612(5) 0.1025(4)
C12 C 0.4934(14) 0.3619(5) 0.1275(3)
C13 C 0.8039(17) 0.6957(6) 0.0183(3)
C15 C 0.825(2) 0.6373(7) 0.0379(4)
C16 C 0.837(3) 0.7500 0.0357(5)
H5 H 0.8800 0.7500 0.0585
O16 O 0.7920(11) 0.3941(4) 0.0793(3)
O17 O 0.746(2) 0.5917(5) 0.0271(4)
In6 In 0.90306(9) 0.57485(3) 0.39231(2)
O23 O 0.7056(10) 0.9853(4) 0.1024(2)
O30 O 0.3461(11) 0.1391(4) 0.1210(3)
O33 O 0.5731(11) 0.0958(3) 0.1398(2)
O37 O 0.9772(11) 0.1326(4) 0.1197(3)
O38 O 0.9772(11) 0.3674(4) 0.3803(3)
O40 O 0.9281(11) 0.5460(4) 0.3376(2)
O41 O 0.9281(11) 0.9540(4) 0.1624(2)
O50 O 0.9071(16) 0.8644(5) 0.0632(3)
C25 C 0.9507(15) 0.5011(6) 0.2817(3)
C27 C 0.8580(14) 0.5146(5) 0.3153(3)
C29 C 0.5867(15) 0.1948(5) 0.1213(3)
C30 C 0.7522(13) 0.1947(5) 0.1121(3)
C31 C 0.8420(15) 0.1388(5) 0.1025(4)
C32 C 0.4934(14) 0.1381(5) 0.1275(3)
C33 C 0.8039(17) 0.8043(6) 0.0183(3)
C35 C 0.825(2) 0.8627(7) 0.0379(4)
O51 O 0.7920(11) 0.1059(4) 0.0793(3)
O52 O 0.746(2) 0.9083(5) 0.0271(4)
H10 H 0.822701 0.94146 0.0216581
H11 H 0.669192 0.578509 0.0458005
O14 O 0.8345(13) 0.6182(5) 0.9447(3)
C14 C 0.7511(19) 0.6957(6) 0.9824(3)
C17 C 0.728(3) 0.7500 0.9662(5)
H6 H 0.6939 0.7500 0.9427
C18 C 0.729(2) 0.6378(7) 0.9614(4)
O18 O 0.572(2) 0.6235(7) 0.9570(4)
In10 In 0.83099(9) 0.57217(4) 0.89483(2)
In13 In 0.83099(9) 0.92783(4) 0.89483(2)
O47 O 0.8345(13) 0.8818(5) 0.9447(3)
C34 C 0.7511(19) 0.8043(6) 0.9824(3)
C36 C 0.729(2) 0.8622(7) 0.9614(4)
O53 O 0.572(2) 0.8765(7) 0.9570(4)
H9 H 0.537543 0.865761 0.932628
H12 H 0.557221 0.579667 0.96074
In2_2 In 0.16901(9) 0.07217(4) 0.39483(2)
In3_2 In 0.53459(10) 0.00027(4) 0.357760(19)
O1_2 O 0.3571(10) 0.0029(4) 0.3164(2)
O2_2 O 0.3637(9) 0.0113(4) 0.3991(2)
O10_2 O 0.1410(11) 0.0508(4) 0.3390(2)
C2_2 C 0.1209(14) 0.0104(5) 0.2821(3)
C3_2 C 0.1980(19) 0.0156(7) 0.2500
H1_2 H 0.3091 0.0230 0.2500
C6_2 C 0.2107(15) 0.0228(6) 0.3156(3)
O20_2 O 0.3571(10) 0.0029(4) 0.1836(2)
O21_2 O 0.3637(9) 0.0113(4) 0.1009(2)
O26_2 O 0.7134(10) 0.0049(4) 0.3164(2)
O27_2 O 0.7134(10) 0.0049(4) 0.1836(2)
O31_2 O 0.3461(11) 0.1391(4) 0.3790(3)
O34_2 O 0.5731(11) 0.0958(3) 0.3602(2)
O39_2 O 0.1410(11) 0.0508(4) 0.1610(2)
O48_2 O 0.1655(13) 0.1182(5) 0.4447(3)
O49_2 O 0.1655(13) 0.1182(5) 0.0553(3)
C26_2 C 0.1209(14) 0.0104(5) 0.2179(3)
C28_2 C 0.2107(15) 0.0228(6) 0.1844(3)
O5_2 O 0.0321(10) 0.9987(4) 0.4151(2)
O8_2 O 0.0894(11) 0.8668(4) 0.3737(2)
O12_2 O 0.7203(11) 0.8607(4) 0.3729(3)
O13_2 O 0.4930(10) 0.9054(4) 0.3554(2)
C19_2 C 0.3153(16) 0.8049(5) 0.3811(4)
C20_2 C 0.2223(15) 0.8608(5) 0.3906(3)
C21_2 C 0.235(2) 0.7500 0.3852(5)
H7_2 H 0.1256 0.7500 0.3909
C22_2 C 0.5738(16) 0.8626(6) 0.3671(3)
C23_2 C 0.5637(19) 0.7500 0.3696(5)
H8_2 H 0.6750 0.7500 0.3655
C24_2 C 0.4815(14) 0.8051(5) 0.3726(3)
O19_2 O 0.2704(11) 0.8939(4) 0.4144(3)
In5_2 In 0.90306(9) 0.92515(3) 0.39231(2)
O22_2 O 0.7056(10) 0.9853(4) 0.3976(2)
O36_2 O 0.0894(11) 0.6332(4) 0.3737(2)
O42_2 O 0.7203(11) 0.6393(4) 0.3729(3)
C37_2 C 0.3153(16) 0.6951(5) 0.3811(4)
C38_2 C 0.2223(15) 0.6392(5) 0.3906(3)
C39_2 C 0.5738(16) 0.6374(6) 0.3671(3)
C40_2 C 0.4815(14) 0.6949(5) 0.3726(3)
O54_2 O 0.2704(11) 0.6061(4) 0.4144(3)
O9_2 O 0.9772(11) 0.1326(4) 0.3803(3)
C7_2 C 0.5867(15) 0.1948(5) 0.3787(3)
C8_2 C 0.7522(13) 0.1947(5) 0.3879(3)
C9_2 C 0.830(2) 0.2500 0.3920(5)
H3_2 H 0.9400 0.2500 0.3978
C10_2 C 0.511(2) 0.2500 0.3745(5)
H4_2 H 0.4018 0.2500 0.3685
C11_2 C 0.8420(15) 0.1388(5) 0.3975(4)
C12_2 C 0.4934(14) 0.1381(5) 0.3725(3)
O16_2 O 0.7920(11) 0.1059(4) 0.4207(3)
C29_2 C 0.5867(15) 0.3052(5) 0.3787(3)
C30_2 C 0.7522(13) 0.3053(5) 0.3879(3)
C31_2 C 0.8420(15) 0.3612(5) 0.3975(4)
C32_2 C 0.4934(14) 0.3619(5) 0.3725(3)
O51_2 O 0.7920(11) 0.3941(4) 0.4207(3)
O11_2 O 0.9281(11) 0.9540(4) 0.3376(2)
O14_2 O 0.8345(13) 0.8818(5) 0.5553(3)
O15_2 O 0.9071(16) 0.8644(5) 0.4368(3)
C1_2 C 0.9507(15) 0.9989(6) 0.2817(3)
C4_2 C 0.8694(18) 0.9928(8) 0.2500
H2_2 H 0.7587 0.9846 0.2500
C5_2 C 0.8580(14) 0.9854(5) 0.3153(3)
C13_2 C 0.8039(17) 0.8043(6) 0.4817(3)
C14_2 C 0.7511(19) 0.8043(6) 0.5176(3)
C15_2 C 0.825(2) 0.8627(7) 0.4621(4)
C16_2 C 0.837(3) 0.7500 0.4643(5)
H5_2 H 0.8800 0.7500 0.4415
C17_2 C 0.728(3) 0.7500 0.5338(5)
H6_2 H 0.6939 0.7500 0.5573
C18_2 C 0.729(2) 0.8622(7) 0.5386(4)
O17_2 O 0.746(2) 0.9083(5) 0.4729(4)
O18_2 O 0.572(2) 0.8765(7) 0.5430(4)
In10_2 In 0.83099(9) 0.92783(4) 0.60517(2)
In13_2 In 0.83099(9) 0.57217(4) 0.60517(2)
O47_2 O 0.8345(13) 0.6182(5) 0.5553(3)
O50_2 O 0.9071(16) 0.6356(5) 0.4368(3)
C25_2 C 0.9507(15) 0.9989(6) 0.2183(3)
C27_2 C 0.8580(14) 0.9854(5) 0.1847(3)
C33_2 C 0.8039(17) 0.6957(6) 0.4817(3)
C34_2 C 0.7511(19) 0.6957(6) 0.5176(3)
C35_2 C 0.825(2) 0.6373(7) 0.4621(4)
C36_2 C 0.729(2) 0.6378(7) 0.5386(4)
O52_2 O 0.746(2) 0.5917(5) 0.4729(4)
O53_2 O 0.572(2) 0.6235(7) 0.5430(4)
H9_2 H 0.537543 0.634239 0.567372
H10_2 H 0.822701 0.55854 0.478342
H11_2 H 0.669192 0.921491 0.4542
H12_2 H 0.557221 0.920333 0.53926
In1 In 0.09694(9) 0.42515(3) 0.60769(2)
O3 O 0.2944(10) 0.4853(4) 0.6024(2)
O4 O 0.2866(10) 0.5049(4) 0.6836(2)
O6 O 0.6539(11) 0.6391(4) 0.6210(3)
O7 O 0.4269(11) 0.5958(3) 0.6398(2)
O9_3 O 0.0228(11) 0.6326(4) 0.6197(3)
O11_3 O 0.0719(11) 0.4540(4) 0.6624(2)
O15_3 O 0.0929(16) 0.3644(5) 0.5632(3)
C1_3 C 0.0493(15) 0.4989(6) 0.7183(3)
C4_3 C 0.1306(18) 0.4928(8) 0.7500
H2_3 H 0.2413 0.4846 0.7500
C5_3 C 0.1420(14) 0.4854(5) 0.6847(3)
C7_3 C 0.4133(15) 0.6948(5) 0.6213(3)
C8_3 C 0.2478(13) 0.6947(5) 0.6121(3)
C9_3 C 0.170(2) 0.7500 0.6080(5)
H3_3 H 0.0600 0.7500 0.6022
C10_3 C 0.489(2) 0.7500 0.6255(5)
H4_3 H 0.5982 0.7500 0.6315
C11_3 C 0.1580(15) 0.6388(5) 0.6025(4)
C12_3 C 0.5066(14) 0.6381(5) 0.6275(3)
C13_3 C 0.1961(17) 0.3043(6) 0.5183(3)
C14_3 C 0.2489(19) 0.3043(6) 0.4824(3)
C15_3 C 0.175(2) 0.3627(7) 0.5379(4)
C16_3 C 0.163(3) 0.2500 0.5357(5)
H5_3 H 0.1200 0.2500 0.5585
C17_3 C 0.272(3) 0.2500 0.4662(5)
H6_3 H 0.3061 0.2500 0.4427
C18_3 C 0.271(2) 0.3622(7) 0.4614(4)
O16_3 O 0.2080(11) 0.6059(4) 0.5793(3)
O17_3 O 0.254(2) 0.4083(5) 0.5271(4)
O18_3 O 0.428(2) 0.3765(7) 0.4570(4)
In4 In 0.09694(9) 0.07485(3) 0.60769(2)
In6_2 In 0.09694(9) 0.42515(3) 0.89231(2)
In16 In 0.46541(10) 0.50027(4) 0.642240(19)
In17 In 0.46541(10) 0.50027(4) 0.857760(19)
In18 In 0.46541(10) 0.99973(4) 0.642240(19)
O23_2 O 0.2944(10) 0.0147(4) 0.6024(2)
O25 O 0.2866(10) 0.5049(4) 0.8164(2)
O30_2 O 0.6539(11) 0.8609(4) 0.6210(3)
O33_2 O 0.4269(11) 0.9042(3) 0.6398(2)
O37_2 O 0.0228(11) 0.8674(4) 0.6197(3)
O38_2 O 0.0228(11) 0.6326(4) 0.8803(3)
O40_2 O 0.0719(11) 0.4540(4) 0.8376(2)
O41_2 O 0.0719(11) 0.0460(4) 0.6624(2)
O43 O 0.2797(11) 0.3607(4) 0.6271(3)
O44 O 0.2797(11) 0.1393(4) 0.6271(3)
O50_3 O 0.0929(16) 0.1356(5) 0.5632(3)
C25_3 C 0.0493(15) 0.4989(6) 0.7817(3)
C27_3 C 0.1420(14) 0.4854(5) 0.8153(3)
C29_3 C 0.4133(15) 0.8052(5) 0.6213(3)
C30_3 C 0.2478(13) 0.8053(5) 0.6121(3)
C31_3 C 0.1580(15) 0.8612(5) 0.6025(4)
C32_3 C 0.5066(14) 0.8619(5) 0.6275(3)
C33_3 C 0.1961(17) 0.1957(6) 0.5183(3)
C34_3 C 0.2489(19) 0.1957(6) 0.4824(3)
C35_3 C 0.175(2) 0.1373(7) 0.5379(4)
C36_3 C 0.271(2) 0.1378(7) 0.4614(4)
O51_3 O 0.2080(11) 0.8941(4) 0.5793(3)
O52_3 O 0.254(2) 0.0917(5) 0.5271(4)
O53_3 O 0.428(2) 0.1235(7) 0.4570(4)
H9_3 H 0.462457 0.134239 0.432628
H10_3 H 0.177299 0.0585403 0.521658
H11_3 H 0.330808 0.421491 0.5458
H12_3 H 0.442779 0.420333 0.46074
O1_3 O 0.6429(10) 0.5029(4) 0.6836(2)
O2_3 O 0.6363(9) 0.5113(4) 0.6009(2)
O5_3 O 0.9679(10) 0.4987(4) 0.5849(2)
O8_3 O 0.9106(11) 0.3668(4) 0.6263(2)
O10_3 O 0.8590(11) 0.5508(4) 0.6610(2)
O13_3 O 0.5070(10) 0.4054(4) 0.6446(2)
C2_3 C 0.8791(14) 0.5104(5) 0.7179(3)
C3_3 C 0.8020(19) 0.5156(7) 0.7500
H1_3 H 0.6909 0.5230 0.7500
C6_3 C 0.7893(15) 0.5228(6) 0.6844(3)
C19_3 C 0.6847(16) 0.3049(5) 0.6189(4)
C20_3 C 0.7777(15) 0.3608(5) 0.6094(3)
C21_3 C 0.765(2) 0.2500 0.6148(5)
H7_3 H 0.8744 0.2500 0.6091
C22_3 C 0.4262(16) 0.3626(6) 0.6329(3)
C23_3 C 0.4363(19) 0.2500 0.6304(5)
H8_3 H 0.3250 0.2500 0.6345
C24_3 C 0.5185(14) 0.3051(5) 0.6274(3)
O19_3 O 0.7296(11) 0.3939(4) 0.5856(3)
O20_3 O 0.6429(10) 0.5029(4) 0.8164(2)
O21_3 O 0.6363(9) 0.5113(4) 0.8991(2)
O24_2 O 0.2944(10) 0.4853(4) 0.8976(2)
O28_2 O 0.9679(10) 0.0013(4) 0.5849(2)
O29_2 O 0.9679(10) 0.4987(4) 0.9151(2)
O32_2 O 0.6539(11) 0.6391(4) 0.8790(3)
O35_2 O 0.4269(11) 0.5958(3) 0.8602(2)
O36_3 O 0.9106(11) 0.1332(4) 0.6263(2)
O39_3 O 0.8590(11) 0.5508(4) 0.8390(2)
O45_2 O 0.5070(10) 0.0946(4) 0.6446(2)
O46_2 O 0.5070(10) 0.4054(4) 0.8554(2)
C26_3 C 0.8791(14) 0.5104(5) 0.7821(3)
C28_3 C 0.7893(15) 0.5228(6) 0.8156(3)
C37_3 C 0.6847(16) 0.1951(5) 0.6189(4)
C38_3 C 0.7777(15) 0.1392(5) 0.6094(3)
C39_3 C 0.4262(16) 0.1374(6) 0.6329(3)
C40_3 C 0.5185(14) 0.1949(5) 0.6274(3)
O54_3 O 0.7296(11) 0.1061(4) 0.5856(3)
C14_4 C 0.2489(19) 0.1957(6) 0.0176(3)
C17_4 C 0.272(3) 0.2500 0.0338(5)
H6_4 H 0.3061 0.2500 0.0573
C18_4 C 0.271(2) 0.1378(7) 0.0386(4)
O18_4 O 0.428(2) 0.1235(7) 0.0430(4)
C34_4 C 0.2489(19) 0.3043(6) 0.0176(3)
C36_4 C 0.271(2) 0.3622(7) 0.0386(4)
O53_4 O 0.428(2) 0.3765(7) 0.0430(4)
H9_4 H 0.462457 0.365761 0.0673724
H12_4 H 0.442779 0.0796675 0.0392598
In1_2 In 0.09694(9) 0.07485(3) 0.89231(2)
O3_2 O 0.2944(10) 0.0147(4) 0.8976(2)
O11_4 O 0.0719(11) 0.0460(4) 0.8376(2)
O15_4 O 0.0929(16) 0.1356(5) 0.9368(3)
C1_4 C 0.0493(15) 0.0011(6) 0.7817(3)
C4_4 C 0.1306(18) 0.0072(8) 0.7500
H2_4 H 0.2413 0.0154 0.7500
C5_4 C 0.1420(14) 0.0146(5) 0.8153(3)
C13_4 C 0.1961(17) 0.1957(6) 0.9817(3)
C15_4 C 0.175(2) 0.1373(7) 0.9621(4)
C16_4 C 0.163(3) 0.2500 0.9643(5)
H5_4 H 0.1200 0.2500 0.9415
O17_4 O 0.254(2) 0.0917(5) 0.9729(4)
O43_2 O 0.2797(11) 0.1393(4) 0.8729(3)
O44_2 O 0.2797(11) 0.3607(4) 0.8729(3)
O50_4 O 0.0929(16) 0.3644(5) 0.9368(3)
C25_4 C 0.0493(15) 0.0011(6) 0.7183(3)
C27_4 C 0.1420(14) 0.0146(5) 0.6847(3)
C33_4 C 0.1961(17) 0.3043(6) 0.9817(3)
C35_4 C 0.175(2) 0.3627(7) 0.9621(4)
O52_4 O 0.254(2) 0.4083(5) 0.9729(4)
H10_4 H 0.177299 0.44146 0.978342
H11_4 H 0.330808 0.0785092 0.9542
O4_2 O 0.2866(10) 0.9951(4) 0.8164(2)
O6_2 O 0.6539(11) 0.8609(4) 0.8790(3)
O7_2 O 0.4269(11) 0.9042(3) 0.8602(2)
O9_4 O 0.0228(11) 0.8674(4) 0.8803(3)
C7_4 C 0.4133(15) 0.8052(5) 0.8787(3)
C8_4 C 0.2478(13) 0.8053(5) 0.8879(3)
C9_4 C 0.170(2) 0.7500 0.8920(5)
H3_4 H 0.0600 0.7500 0.8978
C10_4 C 0.489(2) 0.7500 0.8745(5)
H4_4 H 0.5982 0.7500 0.8685
C11_4 C 0.1580(15) 0.8612(5) 0.8975(4)
C12_4 C 0.5066(14) 0.8619(5) 0.8725(3)
O16_4 O 0.2080(11) 0.8941(4) 0.9207(3)
In16_2 In 0.46541(10) 0.99973(4) 0.857760(19)
O25_2 O 0.2866(10) 0.9951(4) 0.6836(2)
C29_4 C 0.4133(15) 0.6948(5) 0.8787(3)
C30_4 C 0.2478(13) 0.6947(5) 0.8879(3)
C31_4 C 0.1580(15) 0.6388(5) 0.8975(4)
C32_4 C 0.5066(14) 0.6381(5) 0.8725(3)
O51_4 O 0.2080(11) 0.6059(4) 0.9207(3)
O5_4 O 0.9679(10) 0.0013(4) 0.9151(2)
O8_4 O 0.9106(11) 0.1332(4) 0.8737(2)
O13_4 O 0.5070(10) 0.0946(4) 0.8554(2)
C19_4 C 0.6847(16) 0.1951(5) 0.8811(4)
C20_4 C 0.7777(15) 0.1392(5) 0.8906(3)
C21_4 C 0.765(2) 0.2500 0.8852(5)
H7_4 H 0.8744 0.2500 0.8909
C22_4 C 0.4262(16) 0.1374(6) 0.8671(3)
C23_4 C 0.4363(19) 0.2500 0.8696(5)
H8_4 H 0.3250 0.2500 0.8655
C24_4 C 0.5185(14) 0.1949(5) 0.8726(3)
O19_4 O 0.7296(11) 0.1061(4) 0.9144(3)
O36_4 O 0.9106(11) 0.3668(4) 0.8737(2)
C37_4 C 0.6847(16) 0.3049(5) 0.8811(4)
C38_4 C 0.7777(15) 0.3608(5) 0.8906(3)
C39_4 C 0.4262(16) 0.3626(6) 0.8671(3)
C40_4 C 0.5185(14) 0.3051(5) 0.8726(3)
O54_4 O 0.7296(11) 0.3939(4) 0.9144(3)
O1_4 O 0.6429(10) 0.9971(4) 0.8164(2)
O2_4 O 0.6363(9) 0.9887(4) 0.8991(2)
O10_4 O 0.8590(11) 0.9492(4) 0.8390(2)
C2_4 C 0.8791(14) 0.9896(5) 0.7821(3)
C3_4 C 0.8020(19) 0.9844(7) 0.7500
H1_4 H 0.6909 0.9770 0.7500
C6_4 C 0.7893(15) 0.9772(6) 0.8156(3)
O20_4 O 0.6429(10) 0.9971(4) 0.6836(2)
O21_4 O 0.6363(9) 0.9887(4) 0.6009(2)
O39_4 O 0.8590(11) 0.9492(4) 0.6610(2)
C26_4 C 0.8791(14) 0.9896(5) 0.7179(3)
C28_4 C 0.7893(15) 0.9772(6) 0.6844(3)
H9_5 H 0.462457 0.134239 0.0673724
H12_5 H 0.442779 0.420333 0.0392598
H10_5 H 0.177299 0.0585403 0.978342
H11_5 H 0.330808 0.421491 0.9542
H9_6 H 0.462457 0.365761 0.432628
H10_6 H 0.177299 0.44146 0.521658
H11_6 H 0.330808 0.0785092 0.5458
H12_6 H 0.442779 0.0796675 0.46074
H9_7 H 0.537543 0.865761 0.567372
H10_7 H 0.822701 0.94146 0.478342
H11_7 H 0.669192 0.578509 0.4542
H12_7 H 0.557221 0.579667 0.53926
H10_8 H 0.822701 0.55854 0.0216581
H11_8 H 0.669192 0.921491 0.0458005
H9_8 H 0.537543 0.634239 0.932628
H12_8 H 0.557221 0.920333 0.96074
loop_
_geom_bond_atom_site_label_1
_geom_bond_atom_site_label_2
_geom_bond_site_symmetry_1
_geom_bond_site_symmetry_2
In2 O2 1_555 1_555
In3 O1 1_555 1_555
O1 C6 1_555 1_555
O2 In3 1_555 1_555
O10 In2 1_555 1_555
O12 C22 1_555 1_555
O13 In3 1_555 1_555
C2 C3 1_555 1_555
C3 H1 1_555 1_555
C6 O10 1_555 1_555
C19 C20 1_555 1_555
C20 O8 1_555 1_555
C21 C19 1_555 1_555
H7 C21 1_555 1_555
C22 O13 1_555 1_555
C23 H8 1_555 1_555
C24 C19 1_555 1_555
O19 C20 1_555 1_555
In5 O12 1_555 1_555
In7 O42 1_555 1_555
In8 O21 1_555 1_555
In15 O20 1_555 1_555
O20 C28 1_555 1_555
O21 In15 1_555 1_555
O22 In3 1_555 1_555
O24 In15 1_555 1_555
O26 In3 1_555 1_555
O27 In15 1_555 1_555
O29 In8 1_555 1_555
O31 In2 1_555 1_555
O32 In8 1_555 1_555
O34 In3 1_555 1_555
O35 In15 1_555 1_555
O39 In8 1_555 1_555
O42 C39 1_555 1_555
O45 C39 1_555 1_555
O46 In15 1_555 1_555
O48 In2 1_555 1_555
O49 In8 1_555 1_555
C26 C3 1_555 1_555
C28 O39 1_555 1_555
C37 C21 1_555 1_555
C38 O36 1_555 1_555
C39 C40 1_555 1_555
C40 C23 1_555 1_555
O54 C38 1_555 1_555
In2 O5 1_555 1_555
C2 C6 1_555 1_555
C22 C24 1_555 1_555
C23 C24 1_555 1_555
In5 O22 1_555 1_555
C26 C28 1_555 1_555
C37 C38 1_555 1_555
C37 C40 1_555 1_555
O26 C5 1_555 1_555
O31 C12 1_555 1_555
O34 C12 1_555 1_555
O11 In5 1_555 1_555
O15 In5 1_555 1_555
C4 C1 1_555 1_555
H2 C4 1_555 1_555
C5 O11 1_555 1_555
C7 C8 1_555 1_555
C8 C9 1_555 1_555
C9 H3 1_555 1_555
C10 C7 1_555 1_555
H4 C10 1_555 1_555
C11 O9 1_555 1_555
C12 C7 1_555 1_555
C15 O15 1_555 1_555
C16 C13 1_555 1_555
H5 C16 1_555 1_555
O16 C11 1_555 1_555
O17 C15 1_555 1_555
In7 O23 1_555 1_555
In14 O30 1_555 1_555
In19 O33 1_555 1_555
O27 C27 1_555 1_555
O30 C32 1_555 1_555
O33 C32 1_555 1_555
O37 C31 1_555 1_555
O40 In6 1_555 1_555
O41 In7 1_555 1_555
O50 In7 1_555 1_555
C25 C4 1_555 1_555
C27 O40 1_555 1_555
C29 C10 1_555 1_555
C30 C9 1_555 1_555
C31 C30 1_555 1_555
C32 C29 1_555 1_555
C33 C16 1_555 1_555
C35 O50 1_555 1_555
O51 C31 1_555 1_555
O52 C35 1_555 1_555
C1 C5 1_555 1_555
C8 C11 1_555 1_555
C13 C15 1_555 1_555
C25 C27 1_555 1_555
C29 C30 1_555 1_555
C33 C35 1_555 1_555
O52 H10 1_555 1_555
O17 H11 1_555 1_555
O14 C18 1_555 1_555
C14 C17 1_555 1_555
C17 H6 1_555 1_555
C18 C14 1_555 1_555
O18 C18 1_555 1_555
In10 O14 1_555 1_555
In13 O47 1_555 1_555
O47 C36 1_555 1_555
C34 C17 1_555 1_555
C36 C34 1_555 1_555
O53 C36 1_555 1_555
O53 H9 1_555 1_555
O18 H12 1_555 1_555
In2_2 O2_2 1_555 1_555
In3_2 O1_2 1_555 1_555
O1_2 C6_2 1_555 1_555
O2_2 In3_2 1_555 1_555
O10_2 In2_2 1_555 1_555
C2_2 C3_2 1_555 1_555
C3_2 H1_2 1_555 1_555
C6_2 O10_2 1_555 1_555
In14 O21_2 1_555 1_555
In19 O20_2 1_555 1_555
O20_2 C28_2 1_555 1_555
O21_2 In19 1_555 1_555
O26_2 In3_2 1_555 1_555
O27_2 In19 1_555 1_555
O31_2 In2_2 1_555 1_555
O34_2 In3_2 1_555 1_555
O39_2 In14 1_555 1_555
O48_2 In2_2 1_555 1_555
O49_2 In14 1_555 1_555
C26_2 C3_2 1_555 1_555
C28_2 O39_2 1_555 1_555
C2_2 C6_2 1_555 1_555
C26_2 C28_2 1_555 1_555
O12_2 C22_2 1_555 1_555
C19_2 C20_2 1_555 1_555
C20_2 O8_2 1_555 1_555
C21_2 C19_2 1_555 1_555
H7_2 C21_2 1_555 1_555
C22_2 O13_2 1_555 1_555
C23_2 H8_2 1_555 1_555
C24_2 C19_2 1_555 1_555
O19_2 C20_2 1_555 1_555
In5_2 O12_2 1_555 1_555
In6 O42_2 1_555 1_555
O42_2 C39_2 1_555 1_555
O46 C39_2 1_555 1_555
C37_2 C21_2 1_555 1_555
C38_2 O36_2 1_555 1_555
C39_2 C40_2 1_555 1_555
C40_2 C23_2 1_555 1_555
O54_2 C38_2 1_555 1_555
C22_2 C24_2 1_555 1_555
C23_2 C24_2 1_555 1_555
In5_2 O22_2 1_555 1_555
C37_2 C38_2 1_555 1_555
C37_2 C40_2 1_555 1_555
O31_2 C12_2 1_555 1_555
O34_2 C12_2 1_555 1_555
C7_2 C8_2 1_555 1_555
C8_2 C9_2 1_555 1_555
C9_2 H3_2 1_555 1_555
C10_2 C7_2 1_555 1_555
H4_2 C10_2 1_555 1_555
C11_2 O9_2 1_555 1_555
C12_2 C7_2 1_555 1_555
O16_2 C11_2 1_555 1_555
O32 C32_2 1_555 1_555
O35 C32_2 1_555 1_555
O38 C31_2 1_555 1_555
C29_2 C10_2 1_555 1_555
C30_2 C9_2 1_555 1_555
C31_2 C30_2 1_555 1_555
C32_2 C29_2 1_555 1_555
O51_2 C31_2 1_555 1_555
C8_2 C11_2 1_555 1_555
C29_2 C30_2 1_555 1_555
O11_2 In5_2 1_555 1_555
O14_2 C18_2 1_555 1_555
O15_2 In5_2 1_555 1_555
C4_2 C1_2 1_555 1_555
H2_2 C4_2 1_555 1_555
C5_2 O11_2 1_555 1_555
C13_2 C14_2 1_555 1_555
C14_2 C17_2 1_555 1_555
C15_2 O15_2 1_555 1_555
C16_2 C13_2 1_555 1_555
H5_2 C16_2 1_555 1_555
C17_2 H6_2 1_555 1_555
C18_2 C14_2 1_555 1_555
O17_2 C15_2 1_555 1_555
O18_2 C18_2 1_555 1_555
In6 O24 1_555 1_555
In10_2 O14_2 1_555 1_555
In13_2 O47_2 1_555 1_555
O47_2 C36_2 1_555 1_555
O50_2 In6 1_555 1_555
C25_2 C4_2 1_555 1_555
C27_2 O41 1_555 1_555
C33_2 C16_2 1_555 1_555
C34_2 C17_2 1_555 1_555
C35_2 O50_2 1_555 1_555
C36_2 C34_2 1_555 1_555
O52_2 C35_2 1_555 1_555
O53_2 C36_2 1_555 1_555
C1_2 C5_2 1_555 1_555
C13_2 C15_2 1_555 1_555
C25_2 C27_2 1_555 1_555
C33_2 C34_2 1_555 1_555
C33_2 C35_2 1_555 1_555
O53_2 H9_2 1_555 1_555
O52_2 H10_2 1_555 1_555
O17_2 H11_2 1_555 1_555
O18_2 H12_2 1_555 1_555
In1 O3 1_555 1_555
O3 In16 1_555 1_555
O4 C5_3 1_555 1_555
O6 C12_3 1_555 1_555
O7 C12_3 1_555 1_555
O11_3 In1 1_555 1_555
O49 C18_3 1_555 1_555
O15_3 In1 1_555 1_555
C4_3 C1_3 1_555 1_555
H2_3 C4_3 1_555 1_555
C5_3 O11_3 1_555 1_555
C7_3 C8_3 1_555 1_555
C8_3 C9_3 1_555 1_555
C9_3 H3_3 1_555 1_555
C10_3 C7_3 1_555 1_555
H4_3 C10_3 1_555 1_555
C11_3 O9_3 1_555 1_555
C12_3 C7_3 1_555 1_555
C13_3 C14_3 1_555 1_555
C14_3 C17_3 1_555 1_555
C15_3 O15_3 1_555 1_555
C16_3 C13_3 1_555 1_555
H5_3 C16_3 1_555 1_555
C17_3 H6_3 1_555 1_555
C18_3 C14_3 1_555 1_555
O16_3 C11_3 1_555 1_555
O17_3 C15_3 1_555 1_555
O18_3 C18_3 1_555 1_555
In4 O23_2 1_555 1_555
In13_2 O6 1_555 1_555
In10_2 O30_2 1_555 1_555
In16 O4 1_555 1_555
In17 O25 1_555 1_555
In18 O33_2 1_555 1_555
O25 C27_3 1_555 1_555
O30_2 C32_3 1_555 1_555
O33_2 C32_3 1_555 1_555
O37_2 C31_3 1_555 1_555
O40_2 In6_2 1_555 1_555
O41_2 In4 1_555 1_555
O43 In1 1_555 1_555
O44 In4 1_555 1_555
O48_2 C36_3 1_555 1_555
O50_3 In4 1_555 1_555
C25_3 C4_3 1_555 1_555
C27_3 O40_2 1_555 1_555
C29_3 C10_3 1_555 1_555
C30_3 C9_3 1_555 1_555
C31_3 C30_3 1_555 1_555
C32_3 C29_3 1_555 1_555
C33_3 C16_3 1_555 1_555
C34_3 C17_3 1_555 1_555
C35_3 O50_3 1_555 1_555
C36_3 C34_3 1_555 1_555
O51_3 C31_3 1_555 1_555
O52_3 C35_3 1_555 1_555
O53_3 C36_3 1_555 1_555
O7 In16 1_555 1_555
C1_3 C5_3 1_555 1_555
C8_3 C11_3 1_555 1_555
C13_3 C15_3 1_555 1_555
C25_3 C27_3 1_555 1_555
C29_3 C30_3 1_555 1_555
C33_3 C34_3 1_555 1_555
C33_3 C35_3 1_555 1_555
O53_3 H9_3 1_555 1_555
O52_3 H10_3 1_555 1_555
O17_3 H11_3 1_555 1_555
O18_3 H12_3 1_555 1_555
In13_2 O2_3 1_555 1_555
In16 O1_3 1_555 1_555
O1_3 C6_3 1_555 1_555
O2_3 In16 1_555 1_555
O10_3 In13_2 1_555 1_555
O43 C22_3 1_555 1_555
O13_3 In16 1_555 1_555
C2_3 C3_3 1_555 1_555
C3_3 H1_3 1_555 1_555
C6_3 O10_3 1_555 1_555
C19_3 C20_3 1_555 1_555
C20_3 O8_3 1_555 1_555
C21_3 C19_3 1_555 1_555
H7_3 C21_3 1_555 1_555
C22_3 O13_3 1_555 1_555
C23_3 H8_3 1_555 1_555
C24_3 C19_3 1_555 1_555
O19_3 C20_3 1_555 1_555
In10 O21_3 1_555 1_555
In17 O20_3 1_555 1_555
O20_3 C28_3 1_555 1_555
O21_3 In17 1_555 1_555
O24_2 In17 1_555 1_555
O29_2 In10 1_555 1_555
O32_2 In10 1_555 1_555
O35_2 In17 1_555 1_555
O39_3 In10 1_555 1_555
O44 C39_3 1_555 1_555
O45_2 C39_3 1_555 1_555
O46_2 In17 1_555 1_555
C26_3 C3_3 1_555 1_555
C28_3 O39_3 1_555 1_555
C37_3 C21_3 1_555 1_555
C38_3 O36_3 1_555 1_555
C39_3 C40_3 1_555 1_555
C40_3 C23_3 1_555 1_555
O54_3 C38_3 1_555 1_555
In13_2 O5_3 1_555 1_555
C2_3 C6_3 1_555 1_555
C22_3 C24_3 1_555 1_555
C23_3 C24_3 1_555 1_555
C26_3 C28_3 1_555 1_555
C37_3 C38_3 1_555 1_555
C37_3 C40_3 1_555 1_555
O49_2 C18_4 1_555 1_555
C14_4 C17_4 1_555 1_555
C17_4 H6_4 1_555 1_555
C18_4 C14_4 1_555 1_555
O18_4 C18_4 1_555 1_555
O48 C36_4 1_555 1_555
C34_4 C17_4 1_555 1_555
C36_4 C34_4 1_555 1_555
O53_4 C36_4 1_555 1_555
O53_4 H9_4 1_555 1_555
O18_4 H12_4 1_555 1_555
In1_2 O3_2 1_555 1_555
O11_4 In1_2 1_555 1_555
O15_4 In1_2 1_555 1_555
C4_4 C1_4 1_555 1_555
H2_4 C4_4 1_555 1_555
C5_4 O11_4 1_555 1_555
C15_4 O15_4 1_555 1_555
C16_4 C13_4 1_555 1_555
H5_4 C16_4 1_555 1_555
O17_4 C15_4 1_555 1_555
In6_2 O24_2 1_555 1_555
O43_2 In1_2 1_555 1_555
O44_2 In6_2 1_555 1_555
O50_4 In6_2 1_555 1_555
C25_4 C4_4 1_555 1_555
C27_4 O41_2 1_555 1_555
C33_4 C16_4 1_555 1_555
C35_4 O50_4 1_555 1_555
O52_4 C35_4 1_555 1_555
C1_4 C5_4 1_555 1_555
C13_4 C15_4 1_555 1_555
C25_4 C27_4 1_555 1_555
C33_4 C35_4 1_555 1_555
O52_4 H10_4 1_555 1_555
O17_4 H11_4 1_555 1_555
O6_2 C12_4 1_555 1_555
O7_2 C12_4 1_555 1_555
C7_4 C8_4 1_555 1_555
C8_4 C9_4 1_555 1_555
C9_4 H3_4 1_555 1_555
C10_4 C7_4 1_555 1_555
H4_4 C10_4 1_555 1_555
C11_4 O9_4 1_555 1_555
C12_4 C7_4 1_555 1_555
O16_4 C11_4 1_555 1_555
In13 O6_2 1_555 1_555
In16_2 O4_2 1_555 1_555
In18 O25_2 1_555 1_555
O32_2 C32_4 1_555 1_555
O35_2 C32_4 1_555 1_555
O38_2 C31_4 1_555 1_555
C29_4 C10_4 1_555 1_555
C30_4 C9_4 1_555 1_555
C31_4 C30_4 1_555 1_555
C32_4 C29_4 1_555 1_555
O51_4 C31_4 1_555 1_555
O7_2 In16_2 1_555 1_555
C8_4 C11_4 1_555 1_555
C29_4 C30_4 1_555 1_555
O43_2 C22_4 1_555 1_555
C19_4 C20_4 1_555 1_555
C20_4 O8_4 1_555 1_555
C21_4 C19_4 1_555 1_555
H7_4 C21_4 1_555 1_555
C22_4 O13_4 1_555 1_555
C23_4 H8_4 1_555 1_555
C24_4 C19_4 1_555 1_555
O19_4 C20_4 1_555 1_555
O44_2 C39_4 1_555 1_555
O46_2 C39_4 1_555 1_555
C37_4 C21_4 1_555 1_555
C38_4 O36_4 1_555 1_555
C39_4 C40_4 1_555 1_555
C40_4 C23_4 1_555 1_555
O54_4 C38_4 1_555 1_555
C22_4 C24_4 1_555 1_555
C23_4 C24_4 1_555 1_555
C37_4 C38_4 1_555 1_555
C37_4 C40_4 1_555 1_555
In13 O2_4 1_555 1_555
In16_2 O1_4 1_555 1_555
O1_4 C6_4 1_555 1_555
O2_4 In16_2 1_555 1_555
O10_4 In13 1_555 1_555
C2_4 C3_4 1_555 1_555
C3_4 H1_4 1_555 1_555
C6_4 O10_4 1_555 1_555
In10_2 O21_4 1_555 1_555
In18 O20_4 1_555 1_555
O20_4 C28_4 1_555 1_555
O21_4 In18 1_555 1_555
O39_4 In10_2 1_555 1_555
C26_4 C3_4 1_555 1_555
C28_4 O39_4 1_555 1_555
C2_4 C6_4 1_555 1_555
C26_4 C28_4 1_555 1_555
O18_4 H9_5 1_555 1_555
O53_4 H12_5 1_555 1_555
O17_4 H10_5 1_555 1_555
O52_4 H11_5 1_555 1_555
O18_3 H9_6 1_555 1_555
O17_3 H10_6 1_555 1_555
O52_3 H11_6 1_555 1_555
O53_3 H12_6 1_555 1_555
O18_2 H9_7 1_555 1_555
O17_2 H10_7 1_555 1_555
O52_2 H11_7 1_555 1_555
O53_2 H12_7 1_555 1_555
O17 H10_8 1_555 1_555
O52 H11_8 1_555 1_555
O18 H9_8 1_555 1_555
O53 H12_8 1_555 1_555

#END
