
###############################################################################
#
# This file contains modified crystal structure data generated from the
# MOF subset of the Cambridge Structural Database (CSD) v543 
# hosted by the Cambridge Crystallographic Data Centre (CCDC).
#
# This work is licensed under the Creative Commons
# Attribution-NonCommercial-ShareAlike 4.0 International License.
# To view a copy of this license, visit
# http://creativecommons.org/licenses/by-nc-sa/4.0/
# or send a letter to
# Creative Commons, PO Box 1866, Mountain View, CA 94042, USA.
#
# CIF created using the CSD Python API on 29 September 2022
# The structure has been converted into the P1 space group
# The structure has a 3D framework
# The original CSD entry UTUMAY is in the orthorhombic crystal system
# The framework has been calculated to contain at least 10.0% void space
# The void calculation uses a probe of radius 1.32A, grid spacing 0.4
#
###############################################################################

data_UTUMAY
_chemical_formula_moiety         '(C128 H104 N16 O32 Zn6)n'
_symmetry_cell_setting           triclinic
_symmetry_space_group_name_H-M   'P 1'
_symmetry_Int_Tables_number      1
_space_group_name_Hall           'P 1'
loop_
_symmetry_equiv_pos_site_id
_symmetry_equiv_pos_as_xyz
1 x,y,z
_cell_length_a                   19.803(4)
_cell_length_b                   12.034(3)
_cell_length_c                   16.389(4)
_cell_angle_alpha                90
_cell_angle_beta                 90
_cell_angle_gamma                90
_cell_volume                     3905.65
loop_
_atom_site_label
_atom_site_type_symbol
_atom_site_fract_x
_atom_site_fract_y
_atom_site_fract_z
H7 H 0.5124 0.0222 0.0777
C9 C 0.6246(2) 0.0652(4) 0.0904(3)
H8 H 0.5975 0.0950 0.1313
C10 C 0.6932(2) 0.0886(3) 0.0885(3)
H9 H 0.7122 0.1357 0.1272
N2 N 0.73350(17) 0.0406(3) 0.0278(2)
C20 C 0.4760(2) 0.3166(3) 0.0008(2)
H16 H 0.5141 0.3033 0.0325
C21 C 0.4397(2) 0.4148(3) 0.0109(2)
H17 H 0.4528 0.4656 0.0506
C27 C 0.3632(2) 0.0525(3) 0.0297(3)
H23 H 0.3820 0.1000 0.0682
C28 C 0.2943(2) 0.0282(3) 0.0302(2)
H24 H 0.2669 0.0589 0.0703
O10 O 0.34417(14) 0.6554(2) 0.08602(18)
Zn3 Zn 0.83164(2) 0.08278(3) 0.03059(3)
C17 C 0.36388(19) 0.3596(3) 0.9048(2)
H14 H 0.3261 0.3737 0.8728
C18 C 0.3999(2) 0.2607(3) 0.8952(2)
H15 H 0.3864 0.2093 0.8560
C19 C 0.45559(19) 0.2387(3) 0.9437(2)
C22 C 0.4912(2) 0.1358(3) 0.9348(2)
H18 H 0.4945 0.1241 0.8764
H19 H 0.5368 0.1515 0.9533
C23 C 0.4749(2) 0.0232(4) 0.9695(3)
C24 C 0.4033(2) 0.0025(3) 0.9688(3)
N3 N 0.38484(16) 0.4372(2) 0.96255(19)
N6 N 0.23350(17) 0.5406(3) 0.9722(2)
O6 O 0.33956(14) 0.6755(2) 0.86116(18)
Zn2 Zn 0.33164(2) 0.58278(3) 0.96941(3)
C1 C 0.63612(19) 0.6404(3) 0.0952(2)
H1 H 0.6739 0.6263 0.1272
C2 C 0.6001(2) 0.7393(3) 0.1048(2)
H2 H 0.6136 0.7907 0.1440
C3 C 0.54441(19) 0.7613(3) 0.0563(2)
C6 C 0.5088(2) 0.8642(3) 0.0652(2)
H5 H 0.5055 0.8759 0.1236
H6 H 0.4632 0.8485 0.0467
C7 C 0.5251(2) 0.9768(4) 0.0305(3)
C8 C 0.5967(2) 0.9975(3) 0.0312(3)
C13 C 0.6317(2) 0.3449(4) 0.2006(2)
C14 C 0.6396(2) 0.2755(3) 0.2690(3)
H12 H 0.6419 0.1989 0.2619
C15 C 0.6441(2) 0.3202(4) 0.3483(2)
H13 H 0.6491 0.3965 0.3552
C16 C 0.6411(2) 0.2524(4) 0.4152(3)
N1 N 0.61516(16) 0.5628(2) 0.03745(19)
O1 O 0.66044(14) 0.3245(2) 0.13884(18)
O2 O 0.59120(15) 0.4283(2) 0.20531(18)
O3 O 0.61579(15) 0.2870(2) 0.47943(17)
O4 O 0.65583(14) 0.1554(2) 0.41398(18)
Zn1 Zn 0.66836(2) 0.41722(3) 0.03059(3)
N5 N 0.76650(17) 0.4594(3) 0.0278(2)
Zn4 Zn 0.66836(2) 0.08278(3) 0.53059(3)
C4 C 0.5240(2) 0.6834(3) 0.9992(2)
H3 H 0.4859 0.6967 0.9675
C5 C 0.5603(2) 0.5852(3) 0.9891(2)
H4 H 0.5472 0.5344 0.9494
C11 C 0.6368(2) 0.9475(3) 0.9703(3)
H10 H 0.6180 0.9000 0.9318
C12 C 0.7057(2) 0.9718(3) 0.9698(2)
H11 H 0.7331 0.9411 0.9297
H20 H 0.4876 0.9778 0.9223
C25 C 0.3754(2) 0.9348(4) 0.9096(3)
H21 H 0.4025 0.9050 0.8687
C26 C 0.3068(2) 0.9114(3) 0.9115(3)
H22 H 0.2878 0.8643 0.8728
C29 C 0.6317(2) 0.1551(4) 0.7006(2)
C30 C 0.6396(2) 0.2245(3) 0.7690(3)
H25 H 0.6419 0.3011 0.7619
C31 C 0.6441(2) 0.1798(4) 0.8483(2)
H26 H 0.6491 0.1035 0.8552
C32 C 0.6411(2) 0.2476(4) 0.9152(3)
N4 N 0.26650(17) 0.9594(3) 0.9722(2)
O5 O 0.66044(14) 0.1755(2) 0.63884(18)
O7 O 0.59120(15) 0.0717(2) 0.70531(18)
O8 O 0.61579(15) 0.2130(2) 0.97943(17)
O9 O 0.65583(14) 0.3446(2) 0.91398(18)
Zn5 Zn 0.16836(2) 0.91722(3) 0.96941(3)
H3_2 H 0.0141 0.8033 0.9675
C17_2 C 0.13612(19) 0.1404(3) 0.9048(2)
H14_2 H 0.1739 0.1263 0.8728
C18_2 C 0.1001(2) 0.2393(3) 0.8952(2)
H15_2 H 0.1136 0.2907 0.8560
C19_2 C 0.04441(19) 0.2613(3) 0.9437(2)
C22_2 C 0.0088(2) 0.3642(3) 0.9348(2)
H18_2 H 0.0055 0.3759 0.8764
C23_2 C 0.0251(2) 0.4768(4) 0.9695(3)
H20_2 H 0.0124 0.5222 0.9223
C24_2 C 0.0967(2) 0.4975(3) 0.9688(3)
C25_2 C 0.1246(2) 0.5652(4) 0.9096(3)
H21_2 H 0.0975 0.5950 0.8687
C26_2 C 0.1932(2) 0.5886(3) 0.9115(3)
H22_2 H 0.2122 0.6357 0.8728
N3_2 N 0.11516(16) 0.0628(2) 0.96255(19)
O10_2 O 0.15583(14) 0.8446(2) 0.08602(18)
O6_2 O 0.16044(14) 0.8245(2) 0.86116(18)
C13_2 C 0.8683(2) 0.1551(4) 0.2006(2)
C14_2 C 0.8604(2) 0.2245(3) 0.2690(3)
H12_2 H 0.8581 0.3011 0.2619
C15_2 C 0.8559(2) 0.1798(4) 0.3483(2)
H13_2 H 0.8509 0.1035 0.3552
C16_2 C 0.8589(2) 0.2476(4) 0.4152(3)
O1_2 O 0.83956(14) 0.1755(2) 0.13884(18)
O2_2 O 0.90880(15) 0.0717(2) 0.20531(18)
O3_2 O 0.88421(15) 0.2130(2) 0.47943(17)
O4_2 O 0.84417(14) 0.3446(2) 0.41398(18)
Zn4_2 Zn 0.83164(2) 0.41722(3) 0.53059(3)
C29_2 C 0.8683(2) 0.3449(4) 0.7006(2)
C30_2 C 0.8604(2) 0.2755(3) 0.7690(3)
H25_2 H 0.8581 0.1989 0.7619
C31_2 C 0.8559(2) 0.3202(4) 0.8483(2)
H26_2 H 0.8509 0.3965 0.8552
C32_2 C 0.8589(2) 0.2524(4) 0.9152(3)
O5_2 O 0.83956(14) 0.3245(2) 0.63884(18)
O7_2 O 0.90880(15) 0.4283(2) 0.70531(18)
O8_2 O 0.88421(15) 0.2870(2) 0.97943(17)
O9_2 O 0.84417(14) 0.1554(2) 0.91398(18)
C1_2 C 0.86388(19) 0.8596(3) 0.0952(2)
H1_2 H 0.8261 0.8737 0.1272
C2_2 C 0.8999(2) 0.7607(3) 0.1048(2)
H2_2 H 0.8864 0.7093 0.1440
C3_2 C 0.95559(19) 0.7387(3) 0.0563(2)
C6_2 C 0.9912(2) 0.6358(3) 0.0652(2)
H5_2 H 0.9945 0.6241 0.1236
C7_2 C 0.9749(2) 0.5232(4) 0.0305(3)
H7_2 H 0.9876 0.4778 0.0777
C8_2 C 0.9033(2) 0.5025(3) 0.0312(3)
C9_2 C 0.8754(2) 0.4348(4) 0.0904(3)
H8_2 H 0.9025 0.4050 0.1313
C10_2 C 0.8068(2) 0.4114(3) 0.0885(3)
H9_2 H 0.7878 0.3643 0.1272
N1_2 N 0.88484(16) 0.9372(2) 0.03745(19)
H16_2 H 0.9859 0.1967 0.0325
N6_2 N 0.76650(17) 0.0406(3) 0.5278(2)
C1_3 C 0.36388(19) 0.1404(3) 0.4048(2)
H1_3 H 0.3261 0.1263 0.3728
C2_3 C 0.3999(2) 0.2393(3) 0.3952(2)
H2_3 H 0.3864 0.2907 0.3560
C3_3 C 0.45559(19) 0.2613(3) 0.4437(2)
C4_2 C 0.4760(2) 0.1834(3) 0.5008(2)
H3_3 H 0.5141 0.1967 0.5325
C5_2 C 0.4397(2) 0.0852(3) 0.5109(2)
H4_2 H 0.4528 0.0344 0.5506
C6_3 C 0.4912(2) 0.3642(3) 0.4348(2)
H5_3 H 0.4945 0.3759 0.3764
H6_2 H 0.5368 0.3485 0.4533
C7_3 C 0.4749(2) 0.4768(4) 0.4695(3)
H7_3 H 0.4876 0.5222 0.4223
C8_3 C 0.4033(2) 0.4975(3) 0.4688(3)
C9_3 C 0.3754(2) 0.5652(4) 0.4096(3)
H8_3 H 0.4025 0.5950 0.3687
C10_3 C 0.3068(2) 0.5886(3) 0.4115(3)
H9_3 H 0.2878 0.6357 0.3728
C11_2 C 0.3632(2) 0.4475(3) 0.5297(3)
H10_2 H 0.3820 0.4000 0.5682
C12_2 C 0.2943(2) 0.4718(3) 0.5302(2)
H11_2 H 0.2669 0.4411 0.5703
N1_3 N 0.38484(16) 0.0628(2) 0.46255(19)
N2_2 N 0.26650(17) 0.5406(3) 0.4722(2)
C17_3 C 0.63612(19) 0.8596(3) 0.5952(2)
H14_3 H 0.6739 0.8737 0.6272
C18_3 C 0.6001(2) 0.7607(3) 0.6048(2)
H15_3 H 0.6136 0.7093 0.6440
C19_3 C 0.54441(19) 0.7387(3) 0.5563(2)
C20_2 C 0.5240(2) 0.8166(3) 0.4992(2)
H16_3 H 0.4859 0.8033 0.4675
C21_2 C 0.5603(2) 0.9148(3) 0.4891(2)
H17_2 H 0.5472 0.9656 0.4494
C22_3 C 0.5088(2) 0.6358(3) 0.5652(2)
H18_3 H 0.5055 0.6241 0.6236
H19_2 H 0.4632 0.6515 0.5467
C23_3 C 0.5251(2) 0.5232(4) 0.5305(3)
H20_3 H 0.5124 0.4778 0.5777
C24_3 C 0.5967(2) 0.5025(3) 0.5312(3)
C25_3 C 0.6246(2) 0.4348(4) 0.5904(3)
H21_3 H 0.5975 0.4050 0.6313
C26_3 C 0.6932(2) 0.4114(3) 0.5885(3)
H22_3 H 0.7122 0.3643 0.6272
C27_2 C 0.6368(2) 0.5525(3) 0.4703(3)
H23_2 H 0.6180 0.6000 0.4318
C28_2 C 0.7057(2) 0.5282(3) 0.4698(2)
H24_2 H 0.7331 0.5589 0.4297
N3_3 N 0.61516(16) 0.9372(2) 0.53745(19)
N4_2 N 0.73350(17) 0.4594(3) 0.5278(2)
Zn3_2 Zn 0.16836(2) 0.58278(3) 0.46941(3)
C13_3 C 0.3683(2) 0.8449(4) 0.2994(2)
C14_3 C 0.3604(2) 0.7755(3) 0.2310(3)
H12_3 H 0.3581 0.6989 0.2381
C15_3 C 0.3559(2) 0.8202(4) 0.1517(2)
H13_3 H 0.3509 0.8965 0.1448
C16_3 C 0.3589(2) 0.7524(4) 0.0848(3)
O1_3 O 0.33956(14) 0.8245(2) 0.36116(18)
O2_3 O 0.40880(15) 0.9283(2) 0.29469(18)
O3_3 O 0.38421(15) 0.7870(2) 0.02057(17)
Zn1_2 Zn 0.33164(2) 0.91722(3) 0.46941(3)
C29_3 C 0.3683(2) 0.6551(4) 0.7994(2)
C30_3 C 0.3604(2) 0.7245(3) 0.7310(3)
H25_3 H 0.3581 0.8011 0.7381
C31_3 C 0.3559(2) 0.6798(4) 0.6517(2)
H26_3 H 0.3509 0.6035 0.6448
C32_3 C 0.3589(2) 0.7476(4) 0.5848(3)
N5_2 N 0.23350(17) 0.9594(3) 0.4722(2)
O7_3 O 0.40880(15) 0.5717(2) 0.79469(18)
O8_3 O 0.38421(15) 0.7130(2) 0.52057(17)
O9_3 O 0.34417(14) 0.8446(2) 0.58602(18)
C1_4 C 0.13612(19) 0.3596(3) 0.4048(2)
H1_4 H 0.1739 0.3737 0.3728
C2_4 C 0.1001(2) 0.2607(3) 0.3952(2)
H2_4 H 0.1136 0.2093 0.3560
C3_4 C 0.04441(19) 0.2387(3) 0.4437(2)
C4_3 C 0.0240(2) 0.3166(3) 0.5008(2)
C5_3 C 0.0603(2) 0.4148(3) 0.5109(2)
H4_3 H 0.0472 0.4656 0.5506
C6_4 C 0.0088(2) 0.1358(3) 0.4348(2)
H5_4 H 0.0055 0.1241 0.3764
C7_4 C 0.0251(2) 0.0232(4) 0.4695(3)
C8_4 C 0.0967(2) 0.0025(3) 0.4688(3)
C11_3 C 0.1368(2) 0.0525(3) 0.5297(3)
H10_3 H 0.1180 0.1000 0.5682
C12_3 C 0.2057(2) 0.0282(3) 0.5302(2)
H11_3 H 0.2331 0.0589 0.5703
C13_4 C 0.1317(2) 0.6551(4) 0.2994(2)
C14_4 C 0.1396(2) 0.7245(3) 0.2310(3)
H12_4 H 0.1419 0.8011 0.2381
C15_4 C 0.1441(2) 0.6798(4) 0.1517(2)
H13_4 H 0.1491 0.6035 0.1448
C16_4 C 0.1411(2) 0.7476(4) 0.0848(3)
N1_4 N 0.11516(16) 0.4372(2) 0.46255(19)
O1_4 O 0.16044(14) 0.6755(2) 0.36116(18)
O2_4 O 0.09120(15) 0.5717(2) 0.29469(18)
O3_4 O 0.11579(15) 0.7130(2) 0.02057(17)
C29_4 C 0.1317(2) 0.8449(4) 0.7994(2)
C30_4 C 0.1396(2) 0.7755(3) 0.7310(3)
H25_4 H 0.1419 0.6989 0.7381
C31_4 C 0.1441(2) 0.8202(4) 0.6517(2)
H26_4 H 0.1491 0.8965 0.6448
C32_4 C 0.1411(2) 0.7524(4) 0.5848(3)
O7_4 O 0.09120(15) 0.9283(2) 0.79469(18)
O8_4 O 0.11579(15) 0.7870(2) 0.52057(17)
O9_4 O 0.15583(14) 0.6554(2) 0.58602(18)
H7_4 H 0.0124 0.9778 0.4223
C9_4 C 0.1246(2) 0.9348(4) 0.4096(3)
H8_4 H 0.0975 0.9050 0.3687
C10_4 C 0.1932(2) 0.9114(3) 0.4115(3)
H9_4 H 0.2122 0.8643 0.3728
H16_4 H 0.0141 0.6967 0.4675
H19_3 H 0.0368 0.8485 0.5467
H3_4 H 0.9859 0.3033 0.5325
H6_3 H 0.9632 0.1515 0.4533
H20_4 H 0.9876 0.0222 0.5777
C25_4 C 0.8754(2) 0.0652(4) 0.5904(3)
H21_4 H 0.9025 0.0950 0.6313
C26_4 C 0.8068(2) 0.0886(3) 0.5885(3)
H22_4 H 0.7878 0.1357 0.6272
C17_4 C 0.86388(19) 0.6404(3) 0.5952(2)
H14_4 H 0.8261 0.6263 0.6272
C18_4 C 0.8999(2) 0.7393(3) 0.6048(2)
H15_4 H 0.8864 0.7907 0.6440
C19_4 C 0.95559(19) 0.7613(3) 0.5563(2)
C20_3 C 0.9760(2) 0.6834(3) 0.4992(2)
C21_3 C 0.9397(2) 0.5852(3) 0.4891(2)
H17_3 H 0.9528 0.5344 0.4494
C22_4 C 0.9912(2) 0.8642(3) 0.5652(2)
H18_4 H 0.9945 0.8759 0.6236
C23_4 C 0.9749(2) 0.9768(4) 0.5305(3)
C24_4 C 0.9033(2) 0.9975(3) 0.5312(3)
C27_3 C 0.8632(2) 0.9475(3) 0.4703(3)
H23_3 H 0.8820 0.9000 0.4318
C28_3 C 0.7943(2) 0.9718(3) 0.4698(2)
H24_3 H 0.7669 0.9411 0.4297
N3_4 N 0.88484(16) 0.5628(2) 0.53745(19)
H6_4 H 0.0368 0.6515 0.0467
C20_4 C 0.0240(2) 0.1834(3) 0.0008(2)
C21_4 C 0.0603(2) 0.0852(3) 0.0109(2)
H17_4 H 0.0472 0.0344 0.0506
C27_4 C 0.1368(2) 0.4475(3) 0.0297(3)
H23_4 H 0.1180 0.4000 0.0682
C28_4 C 0.2057(2) 0.4718(3) 0.0302(2)
H24_4 H 0.2331 0.4411 0.0703
C4_4 C 0.9760(2) 0.8166(3) 0.9992(2)
C5_4 C 0.9397(2) 0.9148(3) 0.9891(2)
H4_4 H 0.9528 0.9656 0.9494
C11_4 C 0.8632(2) 0.5525(3) 0.9703(3)
H10_4 H 0.8820 0.6000 0.9318
C12_4 C 0.7943(2) 0.5282(3) 0.9698(2)
H11_4 H 0.7669 0.5589 0.9297
H19_4 H 0.9632 0.3485 0.9533
loop_
_geom_bond_atom_site_label_1
_geom_bond_atom_site_label_2
_geom_bond_site_symmetry_1
_geom_bond_site_symmetry_2
H8 C9 1_555 1_555
C10 C9 1_555 1_555
H9 C10 1_555 1_555
N2 C10 1_555 1_555
H16 C20 1_555 1_555
C21 C20 1_555 1_555
H17 C21 1_555 1_555
H23 C27 1_555 1_555
C28 C27 1_555 1_555
H24 C28 1_555 1_555
Zn3 N2 1_555 1_555
C17 H14 1_555 1_555
C18 C17 1_555 1_555
H15 C18 1_555 1_555
C19 C18 1_555 1_555
C22 C19 1_555 1_555
H18 C22 1_555 1_555
H19 C22 1_555 1_555
C24 C23 1_555 1_555
N3 C17 1_555 1_555
N6 Zn2 1_555 1_555
O6 Zn2 1_555 1_555
Zn2 N3 1_555 1_555
C22 C23 1_555 1_555
C1 H1 1_555 1_555
C2 C1 1_555 1_555
H2 C2 1_555 1_555
C3 C2 1_555 1_555
C6 C3 1_555 1_555
H5 C6 1_555 1_555
H6 C6 1_555 1_555
C7 C6 1_555 1_555
C8 C7 1_555 1_555
C13 C14 1_555 1_555
C14 H12 1_555 1_555
C15 C14 1_555 1_555
H13 C15 1_555 1_555
C16 C15 1_555 1_555
N1 C1 1_555 1_555
O1 C13 1_555 1_555
O2 C13 1_555 1_555
O3 C16 1_555 1_555
O4 C16 1_555 1_555
Zn1 N1 1_555 1_555
N5 Zn1 1_555 1_555
Zn4 O4 1_555 1_555
O1 Zn1 1_555 1_555
H3 C4 1_555 1_555
C5 C4 1_555 1_555
H4 C5 1_555 1_555
H10 C11 1_555 1_555
C12 C11 1_555 1_555
H11 C12 1_555 1_555
H21 C25 1_555 1_555
C26 C25 1_555 1_555
H22 C26 1_555 1_555
C29 C30 1_555 1_555
C30 H25 1_555 1_555
C31 C30 1_555 1_555
H26 C31 1_555 1_555
C32 C31 1_555 1_555
N4 C26 1_555 1_555
O5 C29 1_555 1_555
O7 C29 1_555 1_555
O8 C32 1_555 1_555
Zn5 N4 1_555 1_555
Zn4 O5 1_555 1_555
C32 O9 1_555 1_555
C17_2 H14_2 1_555 1_555
C18_2 C17_2 1_555 1_555
H15_2 C18_2 1_555 1_555
C19_2 C18_2 1_555 1_555
C22_2 C19_2 1_555 1_555
H18_2 C22_2 1_555 1_555
H20_2 C23_2 1_555 1_555
C24_2 C23_2 1_555 1_555
C25_2 C24_2 1_555 1_555
H21_2 C25_2 1_555 1_555
C26_2 C25_2 1_555 1_555
H22_2 C26_2 1_555 1_555
N3_2 C17_2 1_555 1_555
N6 C26_2 1_555 1_555
C22_2 C23_2 1_555 1_555
O6_2 Zn5 1_555 1_555
C13_2 C14_2 1_555 1_555
C14_2 H12_2 1_555 1_555
C15_2 C14_2 1_555 1_555
H13_2 C15_2 1_555 1_555
C16_2 C15_2 1_555 1_555
O1_2 C13_2 1_555 1_555
O2_2 C13_2 1_555 1_555
O3_2 C16_2 1_555 1_555
O4_2 C16_2 1_555 1_555
Zn4_2 O4_2 1_555 1_555
O1_2 Zn3 1_555 1_555
C29_2 C30_2 1_555 1_555
C30_2 H25_2 1_555 1_555
C31_2 C30_2 1_555 1_555
H26_2 C31_2 1_555 1_555
C32_2 C31_2 1_555 1_555
O5_2 C29_2 1_555 1_555
O7_2 C29_2 1_555 1_555
O8_2 C32_2 1_555 1_555
Zn4_2 O5_2 1_555 1_555
C32_2 O9_2 1_555 1_555
C1_2 H1_2 1_555 1_555
C2_2 C1_2 1_555 1_555
H2_2 C2_2 1_555 1_555
C3_2 C2_2 1_555 1_555
C6_2 C3_2 1_555 1_555
H5_2 C6_2 1_555 1_555
C7_2 C6_2 1_555 1_555
H7_2 C7_2 1_555 1_555
C8_2 C7_2 1_555 1_555
C9_2 C8_2 1_555 1_555
H8_2 C9_2 1_555 1_555
C10_2 C9_2 1_555 1_555
H9_2 C10_2 1_555 1_555
N1_2 C1_2 1_555 1_555
N5 C10_2 1_555 1_555
N6_2 Zn4 1_555 1_555
C1_3 H1_3 1_555 1_555
C2_3 C1_3 1_555 1_555
H2_3 C2_3 1_555 1_555
C3_3 C2_3 1_555 1_555
C4_2 C3_3 1_555 1_555
H3_3 C4_2 1_555 1_555
C5_2 C4_2 1_555 1_555
H4_2 C5_2 1_555 1_555
C6_3 C3_3 1_555 1_555
H5_3 C6_3 1_555 1_555
H6_2 C6_3 1_555 1_555
C7_3 C6_3 1_555 1_555
H7_3 C7_3 1_555 1_555
C8_3 C7_3 1_555 1_555
C9_3 C8_3 1_555 1_555
H8_3 C9_3 1_555 1_555
C10_3 C9_3 1_555 1_555
H9_3 C10_3 1_555 1_555
C11_2 C8_3 1_555 1_555
H10_2 C11_2 1_555 1_555
C12_2 C11_2 1_555 1_555
H11_2 C12_2 1_555 1_555
N1_3 C1_3 1_555 1_555
N2_2 C10_3 1_555 1_555
C17_3 H14_3 1_555 1_555
C18_3 C17_3 1_555 1_555
H15_3 C18_3 1_555 1_555
C19_3 C18_3 1_555 1_555
C20_2 C19_3 1_555 1_555
H16_3 C20_2 1_555 1_555
C21_2 C20_2 1_555 1_555
H17_2 C21_2 1_555 1_555
C22_3 C19_3 1_555 1_555
H18_3 C22_3 1_555 1_555
H19_2 C22_3 1_555 1_555
C23_3 C7_3 1_555 1_555
H20_3 C23_3 1_555 1_555
C24_3 C23_3 1_555 1_555
C25_3 C24_3 1_555 1_555
H21_3 C25_3 1_555 1_555
C26_3 C25_3 1_555 1_555
H22_3 C26_3 1_555 1_555
C27_2 C24_3 1_555 1_555
H23_2 C27_2 1_555 1_555
C28_2 C27_2 1_555 1_555
H24_2 C28_2 1_555 1_555
N3_3 C17_3 1_555 1_555
N4_2 C26_3 1_555 1_555
Zn3_2 N2_2 1_555 1_555
Zn4_2 N4_2 1_555 1_555
C5_2 N1_3 1_555 1_555
C12_2 N2_2 1_555 1_555
C21_2 N3_3 1_555 1_555
C22_3 C23_3 1_555 1_555
C28_2 N4_2 1_555 1_555
C13_3 C14_3 1_555 1_555
C14_3 H12_3 1_555 1_555
C15_3 C14_3 1_555 1_555
H13_3 C15_3 1_555 1_555
C16_3 C15_3 1_555 1_555
O1_3 C13_3 1_555 1_555
O2_3 C13_3 1_555 1_555
O3_3 C16_3 1_555 1_555
O10 C16_3 1_555 1_555
C29_3 C30_3 1_555 1_555
C30_3 H25_3 1_555 1_555
C31_3 C30_3 1_555 1_555
H26_3 C31_3 1_555 1_555
C32_3 C31_3 1_555 1_555
N5_2 Zn1_2 1_555 1_555
O6 C29_3 1_555 1_555
O7_3 C29_3 1_555 1_555
O8_3 C32_3 1_555 1_555
O9_3 Zn1_2 1_555 1_555
O1_3 Zn1_2 1_555 1_555
C32_3 O9_3 1_555 1_555
C1_4 H1_4 1_555 1_555
C2_4 C1_4 1_555 1_555
H2_4 C2_4 1_555 1_555
C3_4 C2_4 1_555 1_555
C4_3 C3_4 1_555 1_555
C5_3 C4_3 1_555 1_555
H4_3 C5_3 1_555 1_555
C6_4 C3_4 1_555 1_555
H5_4 C6_4 1_555 1_555
C7_4 C6_4 1_555 1_555
C8_4 C7_4 1_555 1_555
C11_3 C8_4 1_555 1_555
H10_3 C11_3 1_555 1_555
C12_3 C11_3 1_555 1_555
H11_3 C12_3 1_555 1_555
C13_4 C14_4 1_555 1_555
C14_4 H12_4 1_555 1_555
C15_4 C14_4 1_555 1_555
H13_4 C15_4 1_555 1_555
C16_4 C15_4 1_555 1_555
N1_4 C1_4 1_555 1_555
O1_4 C13_4 1_555 1_555
O2_4 C13_4 1_555 1_555
O3_4 C16_4 1_555 1_555
O10_2 C16_4 1_555 1_555
Zn3_2 N1_4 1_555 1_555
C29_4 C30_4 1_555 1_555
C30_4 H25_4 1_555 1_555
C31_4 C30_4 1_555 1_555
H26_4 C31_4 1_555 1_555
C32_4 C31_4 1_555 1_555
O6_2 C29_4 1_555 1_555
O7_4 C29_4 1_555 1_555
O8_4 C32_4 1_555 1_555
O9_4 Zn3_2 1_555 1_555
C5_3 N1_4 1_555 1_555
O1_4 Zn3_2 1_555 1_555
C32_4 O9_4 1_555 1_555
H8_4 C9_4 1_555 1_555
C10_4 C9_4 1_555 1_555
H9_4 C10_4 1_555 1_555
N5_2 C10_4 1_555 1_555
H21_4 C25_4 1_555 1_555
C26_4 C25_4 1_555 1_555
H22_4 C26_4 1_555 1_555
N6_2 C26_4 1_555 1_555
C17_4 H14_4 1_555 1_555
C18_4 C17_4 1_555 1_555
H15_4 C18_4 1_555 1_555
C19_4 C18_4 1_555 1_555
C20_3 C19_4 1_555 1_555
C21_3 C20_3 1_555 1_555
H17_3 C21_3 1_555 1_555
C22_4 C19_4 1_555 1_555
H18_4 C22_4 1_555 1_555
C24_4 C23_4 1_555 1_555
C27_3 C24_4 1_555 1_555
H23_3 C27_3 1_555 1_555
C28_3 C27_3 1_555 1_555
H24_3 C28_3 1_555 1_555
N3_4 C17_4 1_555 1_555
Zn4_2 N3_4 1_555 1_555
C21_3 N3_4 1_555 1_555
C22_4 C23_4 1_555 1_555
C21_4 C20_4 1_555 1_555
H17_4 C21_4 1_555 1_555
H23_4 C27_4 1_555 1_555
C28_4 C27_4 1_555 1_555
H24_4 C28_4 1_555 1_555
C5_4 C4_4 1_555 1_555
H4_4 C5_4 1_555 1_555
H10_4 C11_4 1_555 1_555
C12_4 C11_4 1_555 1_555
H11_4 C12_4 1_555 1_555

#END
