
###############################################################################
#
# This file contains modified crystal structure data generated from the
# MOF subset of the Cambridge Structural Database (CSD) v543 
# hosted by the Cambridge Crystallographic Data Centre (CCDC).
#
# This work is licensed under the Creative Commons
# Attribution-NonCommercial-ShareAlike 4.0 International License.
# To view a copy of this license, visit
# http://creativecommons.org/licenses/by-nc-sa/4.0/
# or send a letter to
# Creative Commons, PO Box 1866, Mountain View, CA 94042, USA.
#
# CIF created using the CSD Python API on 29 September 2022
# The structure has been converted into the P1 space group
# The structure has a 3D framework
# The original CSD entry UVAHIK01 is in the cubic crystal system
# The framework has been calculated to contain at least 10.0% void space
# The void calculation uses a probe of radius 1.32A, grid spacing 0.4
#
###############################################################################

data_UVAHIK01
_chemical_formula_moiety         '(C720 H432 O160 Zr30)n'
_symmetry_cell_setting           triclinic
_symmetry_space_group_name_H-M   'P 1'
_symmetry_Int_Tables_number      1
_space_group_name_Hall           'P 1'
loop_
_symmetry_equiv_pos_site_id
_symmetry_equiv_pos_as_xyz
1 x,y,z
_cell_length_a                   32.70790(10)
_cell_length_b                   32.70790(10)
_cell_length_c                   32.70790(10)
_cell_angle_alpha                90
_cell_angle_beta                 90
_cell_angle_gamma                90
_cell_volume                     34991.1
loop_
_atom_site_label
_atom_site_type_symbol
_atom_site_fract_x
_atom_site_fract_y
_atom_site_fract_z
Zr8 Zr -0.000000 0.500000 0.92443(2)
Zr12 Zr -0.000000 0.92443(2) 0.500000
Zr11 Zr 0.92443(2) 0.000000 0.500000
Zr9 Zr 0.07557(2) 0.500000 0.000000
Zr10 Zr 0.92443(2) 0.500000 0.000000
Zr1 Zr 0.500000 0.500000 0.57557(2)
O1 O 0.55880(13) 0.500000 0.60819(12)
O2 O 0.46251(18) 0.46251(18) 0.53749(18)
C1 C 0.59555(17) 0.500000 0.59555(17)
C2 C 0.62767(19) 0.500000 0.62767(19)
C3 C 0.6688(3) 0.500000 0.6168(4)
H1 H 0.676585 0.500000 0.588810
C4 C 0.6980(3) 0.500000 0.6468(3)
H2 H 0.726017 0.500000 0.639162
C5 C 0.7189(3) 0.500000 0.7189(3)
C6 C 0.6881(3) 0.500000 0.6881(3)
C7 C 0.7605(4) 0.500000 0.7088(5)
H3 H 0.768362 0.500000 0.680894
O3 O 0.60819(12) 0.500000 0.55880(13)
C8 C 0.6168(4) 0.500000 0.6688(3)
H4 H 0.588810 0.500000 0.676585
C9 C 0.6468(3) 0.500000 0.6980(3)
H5 H 0.639162 0.500000 0.726017
C10 C 0.7088(5) 0.500000 0.7605(4)
H6 H 0.680894 0.500000 0.768362
O4 O 0.89181(12) 0.500000 0.94120(13)
C11 C 0.90445(17) 0.500000 0.90445(17)
C12 C 0.87233(19) 0.500000 0.87233(19)
C13 C 0.8832(4) 0.500000 0.8312(3)
H7 H 0.911190 0.500000 0.823415
C14 C 0.8532(3) 0.500000 0.8020(3)
H8 H 0.860838 0.500000 0.773983
C15 C 0.7811(3) 0.500000 0.7811(3)
C16 C 0.8119(3) 0.500000 0.8119(3)
C17 C 0.7912(5) 0.500000 0.7395(4)
H9 H 0.819106 0.500000 0.731638
O5 O 0.94120(13) 0.500000 0.89181(12)
C18 C 0.8312(3) 0.500000 0.8832(4)
H10 H 0.823415 0.500000 0.911190
C19 C 0.8020(3) 0.500000 0.8532(3)
H11 H 0.773983 0.500000 0.860838
C20 C 0.7395(4) 0.500000 0.7912(5)
H12 H 0.731638 0.500000 0.819106
O6 O 0.44120(13) 0.500000 0.60819(12)
O7 O 0.53749(18) 0.53749(18) 0.53749(18)
C21 C 0.40445(17) 0.500000 0.59555(17)
C22 C 0.37233(19) 0.500000 0.62767(19)
C23 C 0.3312(3) 0.500000 0.6168(4)
H13 H 0.323415 0.500000 0.588810
C24 C 0.3020(3) 0.500000 0.6468(3)
H14 H 0.273983 0.500000 0.639162
C25 C 0.2811(3) 0.500000 0.7189(3)
C26 C 0.3119(3) 0.500000 0.6881(3)
C27 C 0.2395(4) 0.500000 0.7088(5)
H15 H 0.231638 0.500000 0.680894
O8 O 0.39181(12) 0.500000 0.55880(13)
C28 C 0.3832(4) 0.500000 0.6688(3)
H16 H 0.411190 0.500000 0.676585
C29 C 0.3532(3) 0.500000 0.6980(3)
H17 H 0.360838 0.500000 0.726017
C30 C 0.2912(5) 0.500000 0.7605(4)
H18 H 0.319106 0.500000 0.768362
O9 O 0.10819(12) 0.500000 0.94120(13)
C31 C 0.09555(17) 0.500000 0.90445(17)
C32 C 0.12767(19) 0.500000 0.87233(19)
C33 C 0.1168(4) 0.500000 0.8312(3)
H19 H 0.088810 0.500000 0.823415
C34 C 0.1468(3) 0.500000 0.8020(3)
H20 H 0.139162 0.500000 0.773983
C35 C 0.2189(3) 0.500000 0.7811(3)
C36 C 0.1881(3) 0.500000 0.8119(3)
C37 C 0.2088(5) 0.500000 0.7395(4)
H21 H 0.180894 0.500000 0.731638
O10 O 0.05880(13) 0.500000 0.89181(12)
C38 C 0.1688(3) 0.500000 0.8832(4)
H22 H 0.176585 0.500000 0.911190
C39 C 0.1980(3) 0.500000 0.8532(3)
H23 H 0.226017 0.500000 0.860838
C40 C 0.2605(4) 0.500000 0.7912(5)
H24 H 0.268362 0.500000 0.819106
Zr2 Zr 0.57557(2) 0.500000 0.500000
O11 O 0.60819(12) 0.55880(13) 0.500000
O12 O 0.53749(18) 0.46251(18) 0.46251(18)
C41 C 0.59555(17) 0.59555(17) 0.500000
C42 C 0.62767(19) 0.62767(19) 0.500000
C43 C 0.6168(4) 0.6688(3) 0.500000
H25 H 0.588810 0.676585 0.500000
C44 C 0.6468(3) 0.6980(3) 0.500000
H26 H 0.639162 0.726017 0.500000
C45 C 0.7189(3) 0.7189(3) 0.500000
C46 C 0.6881(3) 0.6881(3) 0.500000
C47 C 0.7088(5) 0.7605(4) 0.500000
H27 H 0.680894 0.768362 0.500000
O13 O 0.55880(13) 0.60819(12) 0.500000
C48 C 0.6688(3) 0.6168(4) 0.500000
H28 H 0.676585 0.588810 0.500000
C49 C 0.6980(3) 0.6468(3) 0.500000
H29 H 0.726017 0.639162 0.500000
C50 C 0.7605(4) 0.7088(5) 0.500000
H30 H 0.768362 0.680894 0.500000
O14 O 0.94120(13) 0.89181(12) 0.500000
C51 C 0.90445(17) 0.90445(17) 0.500000
C52 C 0.87233(19) 0.87233(19) 0.500000
C53 C 0.8312(3) 0.8832(4) 0.500000
H31 H 0.823415 0.911190 0.500000
C54 C 0.8020(3) 0.8532(3) 0.500000
H32 H 0.773983 0.860838 0.500000
C55 C 0.7811(3) 0.7811(3) 0.500000
C56 C 0.8119(3) 0.8119(3) 0.500000
C57 C 0.7395(4) 0.7912(5) 0.500000
H33 H 0.731638 0.819106 0.500000
O15 O 0.89181(12) 0.94120(13) 0.500000
C58 C 0.8832(4) 0.8312(3) 0.500000
H34 H 0.911190 0.823415 0.500000
C59 C 0.8532(3) 0.8020(3) 0.500000
H35 H 0.860838 0.773983 0.500000
C60 C 0.7912(5) 0.7395(4) 0.500000
H36 H 0.819106 0.731638 0.500000
Zr3 Zr 0.42443(2) 0.500000 0.500000
O16 O 0.46251(18) 0.53749(18) 0.46251(18)
Zr4 Zr 0.500000 0.500000 0.42443(2)
Zr5 Zr 0.500000 0.57557(2) 0.500000
Zr6 Zr 0.500000 0.42443(2) 0.500000
Zr8_2 Zr 1.000000 0.500000 0.92443(2)
Zr9_2 Zr 0.07557(2) 0.500000 1.000000
Zr10_2 Zr 0.92443(2) 0.500000 1.000000
Zr11_2 Zr 0.92443(2) 1.000000 0.500000
Zr12_2 Zr 1.000000 0.92443(2) 0.500000
O17 O 0.60819(12) 0.44120(13) 0.500000
O18 O 0.39181(12) 0.44120(13) 0.500000
O19 O 0.39181(12) 0.55880(13) 0.500000
O20 O 0.500000 0.44120(13) 0.60819(12)
O21 O 0.500000 0.55880(13) 0.60819(12)
O22 O 0.60819(12) 0.500000 0.44120(13)
O23 O 0.39181(12) 0.500000 0.44120(13)
O24 O 0.46251(18) 0.46251(18) 0.46251(18)
O25 O 0.53749(18) 0.53749(18) 0.46251(18)
O26 O 0.46251(18) 0.53749(18) 0.53749(18)
O27 O 0.53749(18) 0.46251(18) 0.53749(18)
C41_2 C 0.40445(17) 0.40445(17) 0.500000
C42_2 C 0.37233(19) 0.37233(19) 0.500000
C43_2 C 0.3832(4) 0.3312(3) 0.500000
H25_2 H 0.411190 0.323415 0.500000
C44_2 C 0.3532(3) 0.3020(3) 0.500000
H26_2 H 0.360838 0.273983 0.500000
C45_2 C 0.2811(3) 0.2811(3) 0.500000
C46_2 C 0.3119(3) 0.3119(3) 0.500000
C47_2 C 0.2912(5) 0.2395(4) 0.500000
H27_2 H 0.319106 0.231638 0.500000
O13_2 O 0.44120(13) 0.39181(12) 0.500000
C48_2 C 0.3312(3) 0.3832(4) 0.500000
H28_2 H 0.323415 0.411190 0.500000
C49_2 C 0.3020(3) 0.3532(3) 0.500000
H29_2 H 0.273983 0.360838 0.500000
C50_2 C 0.2395(4) 0.2912(5) 0.500000
H30_2 H 0.231638 0.319106 0.500000
O14_2 O 0.05880(13) 0.10819(12) 0.500000
C51_2 C 0.09555(17) 0.09555(17) 0.500000
C52_2 C 0.12767(19) 0.12767(19) 0.500000
C53_2 C 0.1688(3) 0.1168(4) 0.500000
H31_2 H 0.176585 0.088810 0.500000
C54_2 C 0.1980(3) 0.1468(3) 0.500000
H32_2 H 0.226017 0.139162 0.500000
C55_2 C 0.2189(3) 0.2189(3) 0.500000
C56_2 C 0.1881(3) 0.1881(3) 0.500000
C57_2 C 0.2605(4) 0.2088(5) 0.500000
H33_2 H 0.268362 0.180894 0.500000
O15_2 O 0.10819(12) 0.05880(13) 0.500000
C58_2 C 0.1168(4) 0.1688(3) 0.500000
H34_2 H 0.088810 0.176585 0.500000
C59_2 C 0.1468(3) 0.1980(3) 0.500000
H35_2 H 0.139162 0.226017 0.500000
C60_2 C 0.2088(5) 0.2605(4) 0.500000
H36_2 H 0.180894 0.268362 0.500000
Zr11_3 Zr 0.07557(2) 0.000000 0.500000
Zr12_3 Zr 0.000000 0.07557(2) 0.500000
Zr11_4 Zr 0.07557(2) 1.000000 0.500000
Zr12_4 Zr 1.000000 0.07557(2) 0.500000
Zr7 Zr 0.000000 0.500000 0.07557(2)
O1_2 O 0.44120(13) 0.500000 0.39181(12)
C1_2 C 0.40445(17) 0.500000 0.40445(17)
C2_2 C 0.37233(19) 0.500000 0.37233(19)
C3_2 C 0.3312(3) 0.500000 0.3832(4)
H1_2 H 0.323415 0.500000 0.411190
C4_2 C 0.3020(3) 0.500000 0.3532(3)
H2_2 H 0.273983 0.500000 0.360838
C5_2 C 0.2811(3) 0.500000 0.2811(3)
C6_2 C 0.3119(3) 0.500000 0.3119(3)
C7_2 C 0.2395(4) 0.500000 0.2912(5)
H3_2 H 0.231638 0.500000 0.319106
C8_2 C 0.3832(4) 0.500000 0.3312(3)
H4_2 H 0.411190 0.500000 0.323415
C9_2 C 0.3532(3) 0.500000 0.3020(3)
H5_2 H 0.360838 0.500000 0.273983
C10_2 C 0.2912(5) 0.500000 0.2395(4)
H6_2 H 0.319106 0.500000 0.231638
O4_2 O 0.10819(12) 0.500000 0.05880(13)
C11_2 C 0.09555(17) 0.500000 0.09555(17)
C12_2 C 0.12767(19) 0.500000 0.12767(19)
C13_2 C 0.1168(4) 0.500000 0.1688(3)
H7_2 H 0.088810 0.500000 0.176585
C14_2 C 0.1468(3) 0.500000 0.1980(3)
H8_2 H 0.139162 0.500000 0.226017
C15_2 C 0.2189(3) 0.500000 0.2189(3)
C16_2 C 0.1881(3) 0.500000 0.1881(3)
C17_2 C 0.2088(5) 0.500000 0.2605(4)
H9_2 H 0.180894 0.500000 0.268362
O5_2 O 0.05880(13) 0.500000 0.10819(12)
C18_2 C 0.1688(3) 0.500000 0.1168(4)
H10_2 H 0.176585 0.500000 0.088810
C19_2 C 0.1980(3) 0.500000 0.1468(3)
H11_2 H 0.226017 0.500000 0.139162
C20_2 C 0.2605(4) 0.500000 0.2088(5)
H12_2 H 0.268362 0.500000 0.180894
O6_2 O 0.55880(13) 0.500000 0.39181(12)
C21_2 C 0.59555(17) 0.500000 0.40445(17)
C22_2 C 0.62767(19) 0.500000 0.37233(19)
C23_2 C 0.6688(3) 0.500000 0.3832(4)
H13_2 H 0.676585 0.500000 0.411190
C24_2 C 0.6980(3) 0.500000 0.3532(3)
H14_2 H 0.726017 0.500000 0.360838
C25_2 C 0.7189(3) 0.500000 0.2811(3)
C26_2 C 0.6881(3) 0.500000 0.3119(3)
C27_2 C 0.7605(4) 0.500000 0.2912(5)
H15_2 H 0.768362 0.500000 0.319106
C28_2 C 0.6168(4) 0.500000 0.3312(3)
H16_2 H 0.588810 0.500000 0.323415
C29_2 C 0.6468(3) 0.500000 0.3020(3)
H17_2 H 0.639162 0.500000 0.273983
C30_2 C 0.7088(5) 0.500000 0.2395(4)
H18_2 H 0.680894 0.500000 0.231638
O9_2 O 0.89181(12) 0.500000 0.05880(13)
C31_2 C 0.90445(17) 0.500000 0.09555(17)
C32_2 C 0.87233(19) 0.500000 0.12767(19)
C33_2 C 0.8832(4) 0.500000 0.1688(3)
H19_2 H 0.911190 0.500000 0.176585
C34_2 C 0.8532(3) 0.500000 0.1980(3)
H20_2 H 0.860838 0.500000 0.226017
C35_2 C 0.7811(3) 0.500000 0.2189(3)
C36_2 C 0.8119(3) 0.500000 0.1881(3)
C37_2 C 0.7912(5) 0.500000 0.2605(4)
H21_2 H 0.819106 0.500000 0.268362
O10_2 O 0.94120(13) 0.500000 0.10819(12)
C38_2 C 0.8312(3) 0.500000 0.1168(4)
H22_2 H 0.823415 0.500000 0.088810
C39_2 C 0.8020(3) 0.500000 0.1468(3)
H23_2 H 0.773983 0.500000 0.139162
C40_2 C 0.7395(4) 0.500000 0.2088(5)
H24_2 H 0.731638 0.500000 0.180894
C41_3 C 0.40445(17) 0.59555(17) 0.500000
C42_3 C 0.37233(19) 0.62767(19) 0.500000
C43_3 C 0.3832(4) 0.6688(3) 0.500000
H25_3 H 0.411190 0.676585 0.500000
C44_3 C 0.3532(3) 0.6980(3) 0.500000
H26_3 H 0.360838 0.726017 0.500000
C45_3 C 0.2811(3) 0.7189(3) 0.500000
C46_3 C 0.3119(3) 0.6881(3) 0.500000
C47_3 C 0.2912(5) 0.7605(4) 0.500000
H27_3 H 0.319106 0.768362 0.500000
O13_3 O 0.44120(13) 0.60819(12) 0.500000
C48_3 C 0.3312(3) 0.6168(4) 0.500000
H28_3 H 0.323415 0.588810 0.500000
C49_3 C 0.3020(3) 0.6468(3) 0.500000
H29_3 H 0.273983 0.639162 0.500000
C50_3 C 0.2395(4) 0.7088(5) 0.500000
H30_3 H 0.231638 0.680894 0.500000
O14_3 O 0.05880(13) 0.89181(12) 0.500000
C51_3 C 0.09555(17) 0.90445(17) 0.500000
C52_3 C 0.12767(19) 0.87233(19) 0.500000
C53_3 C 0.1688(3) 0.8832(4) 0.500000
H31_3 H 0.176585 0.911190 0.500000
C54_3 C 0.1980(3) 0.8532(3) 0.500000
H32_3 H 0.226017 0.860838 0.500000
C55_3 C 0.2189(3) 0.7811(3) 0.500000
C56_3 C 0.1881(3) 0.8119(3) 0.500000
C57_3 C 0.2605(4) 0.7912(5) 0.500000
H33_3 H 0.268362 0.819106 0.500000
O15_3 O 0.10819(12) 0.94120(13) 0.500000
C58_3 C 0.1168(4) 0.8312(3) 0.500000
H34_3 H 0.088810 0.823415 0.500000
C59_3 C 0.1468(3) 0.8020(3) 0.500000
H35_3 H 0.139162 0.773983 0.500000
C60_3 C 0.2088(5) 0.7395(4) 0.500000
H36_3 H 0.180894 0.731638 0.500000
Zr7_2 Zr 1.000000 0.500000 0.07557(2)
O20_2 O 0.500000 0.44120(13) 0.39181(12)
O21_2 O 0.500000 0.55880(13) 0.39181(12)
C41_4 C 0.59555(17) 0.40445(17) 0.500000
C42_4 C 0.62767(19) 0.37233(19) 0.500000
C43_4 C 0.6168(4) 0.3312(3) 0.500000
H25_4 H 0.588810 0.323415 0.500000
C44_4 C 0.6468(3) 0.3020(3) 0.500000
H26_4 H 0.639162 0.273983 0.500000
C45_4 C 0.7189(3) 0.2811(3) 0.500000
C46_4 C 0.6881(3) 0.3119(3) 0.500000
C47_4 C 0.7088(5) 0.2395(4) 0.500000
H27_4 H 0.680894 0.231638 0.500000
O13_4 O 0.55880(13) 0.39181(12) 0.500000
C48_4 C 0.6688(3) 0.3832(4) 0.500000
H28_4 H 0.676585 0.411190 0.500000
C49_4 C 0.6980(3) 0.3532(3) 0.500000
H29_4 H 0.726017 0.360838 0.500000
C50_4 C 0.7605(4) 0.2912(5) 0.500000
H30_4 H 0.768362 0.319106 0.500000
O14_4 O 0.94120(13) 0.10819(12) 0.500000
C51_4 C 0.90445(17) 0.09555(17) 0.500000
C52_4 C 0.87233(19) 0.12767(19) 0.500000
C53_4 C 0.8312(3) 0.1168(4) 0.500000
H31_4 H 0.823415 0.088810 0.500000
C54_4 C 0.8020(3) 0.1468(3) 0.500000
H32_4 H 0.773983 0.139162 0.500000
C55_4 C 0.7811(3) 0.2189(3) 0.500000
C56_4 C 0.8119(3) 0.1881(3) 0.500000
C57_4 C 0.7395(4) 0.2088(5) 0.500000
H33_4 H 0.731638 0.180894 0.500000
O15_4 O 0.89181(12) 0.05880(13) 0.500000
C58_4 C 0.8832(4) 0.1688(3) 0.500000
H34_4 H 0.911190 0.176585 0.500000
C59_4 C 0.8532(3) 0.1980(3) 0.500000
H35_4 H 0.860838 0.226017 0.500000
C60_4 C 0.7912(5) 0.2605(4) 0.500000
H36_4 H 0.819106 0.268362 0.500000
Zr12_5 Zr 0.500000 -0.000000 0.92443(2)
Zr11_5 Zr 0.500000 0.92443(2) 0.000000
O11_2 O 0.500000 0.60819(12) 0.55880(13)
C41_5 C 0.500000 0.59555(17) 0.59555(17)
C42_5 C 0.500000 0.62767(19) 0.62767(19)
C43_5 C 0.500000 0.6168(4) 0.6688(3)
H25_5 H 0.500000 0.588810 0.676585
C44_5 C 0.500000 0.6468(3) 0.6980(3)
H26_5 H 0.500000 0.639162 0.726017
C45_5 C 0.500000 0.7189(3) 0.7189(3)
C46_5 C 0.500000 0.6881(3) 0.6881(3)
C47_5 C 0.500000 0.7088(5) 0.7605(4)
H27_5 H 0.500000 0.680894 0.768362
C48_5 C 0.500000 0.6688(3) 0.6168(4)
H28_5 H 0.500000 0.676585 0.588810
C49_5 C 0.500000 0.6980(3) 0.6468(3)
H29_5 H 0.500000 0.726017 0.639162
C50_5 C 0.500000 0.7605(4) 0.7088(5)
H30_5 H 0.500000 0.768362 0.680894
O14_5 O 0.500000 0.94120(13) 0.89181(12)
C51_5 C 0.500000 0.90445(17) 0.90445(17)
C52_5 C 0.500000 0.87233(19) 0.87233(19)
C53_5 C 0.500000 0.8312(3) 0.8832(4)
H31_5 H 0.500000 0.823415 0.911190
C54_5 C 0.500000 0.8020(3) 0.8532(3)
H32_5 H 0.500000 0.773983 0.860838
C55_5 C 0.500000 0.7811(3) 0.7811(3)
C56_5 C 0.500000 0.8119(3) 0.8119(3)
C57_5 C 0.500000 0.7395(4) 0.7912(5)
H33_5 H 0.500000 0.731638 0.819106
O15_5 O 0.500000 0.89181(12) 0.94120(13)
C58_5 C 0.500000 0.8832(4) 0.8312(3)
H34_5 H 0.500000 0.911190 0.823415
C59_5 C 0.500000 0.8532(3) 0.8020(3)
H35_5 H 0.500000 0.860838 0.773983
C60_5 C 0.500000 0.7912(5) 0.7395(4)
H36_5 H 0.500000 0.819106 0.731638
Zr11_6 Zr 0.500000 0.92443(2) 1.000000
Zr12_6 Zr 0.500000 1.000000 0.92443(2)
O17_2 O 0.500000 0.60819(12) 0.44120(13)
O18_2 O 0.500000 0.39181(12) 0.44120(13)
O19_2 O 0.500000 0.39181(12) 0.55880(13)
C41_6 C 0.500000 0.40445(17) 0.40445(17)
C42_6 C 0.500000 0.37233(19) 0.37233(19)
C43_6 C 0.500000 0.3832(4) 0.3312(3)
H25_6 H 0.500000 0.411190 0.323415
C44_6 C 0.500000 0.3532(3) 0.3020(3)
H26_6 H 0.500000 0.360838 0.273983
C45_6 C 0.500000 0.2811(3) 0.2811(3)
C46_6 C 0.500000 0.3119(3) 0.3119(3)
C47_6 C 0.500000 0.2912(5) 0.2395(4)
H27_6 H 0.500000 0.319106 0.231638
C48_6 C 0.500000 0.3312(3) 0.3832(4)
H28_6 H 0.500000 0.323415 0.411190
C49_6 C 0.500000 0.3020(3) 0.3532(3)
H29_6 H 0.500000 0.273983 0.360838
C50_6 C 0.500000 0.2395(4) 0.2912(5)
H30_6 H 0.500000 0.231638 0.319106
O14_6 O 0.500000 0.05880(13) 0.10819(12)
C51_6 C 0.500000 0.09555(17) 0.09555(17)
C52_6 C 0.500000 0.12767(19) 0.12767(19)
C53_6 C 0.500000 0.1688(3) 0.1168(4)
H31_6 H 0.500000 0.176585 0.088810
C54_6 C 0.500000 0.1980(3) 0.1468(3)
H32_6 H 0.500000 0.226017 0.139162
C55_6 C 0.500000 0.2189(3) 0.2189(3)
C56_6 C 0.500000 0.1881(3) 0.1881(3)
C57_6 C 0.500000 0.2605(4) 0.2088(5)
H33_6 H 0.500000 0.268362 0.180894
O15_6 O 0.500000 0.10819(12) 0.05880(13)
C58_6 C 0.500000 0.1168(4) 0.1688(3)
H34_6 H 0.500000 0.088810 0.176585
C59_6 C 0.500000 0.1468(3) 0.1980(3)
H35_6 H 0.500000 0.139162 0.226017
C60_6 C 0.500000 0.2088(5) 0.2605(4)
H36_6 H 0.500000 0.180894 0.268362
Zr11_7 Zr 0.500000 0.07557(2) 0.000000
Zr12_7 Zr 0.500000 0.000000 0.07557(2)
Zr11_8 Zr 0.500000 0.07557(2) 1.000000
Zr12_8 Zr 0.500000 1.000000 0.07557(2)
C41_7 C 0.500000 0.40445(17) 0.59555(17)
C42_7 C 0.500000 0.37233(19) 0.62767(19)
C43_7 C 0.500000 0.3832(4) 0.6688(3)
H25_7 H 0.500000 0.411190 0.676585
C44_7 C 0.500000 0.3532(3) 0.6980(3)
H26_7 H 0.500000 0.360838 0.726017
C45_7 C 0.500000 0.2811(3) 0.7189(3)
C46_7 C 0.500000 0.3119(3) 0.6881(3)
C47_7 C 0.500000 0.2912(5) 0.7605(4)
H27_7 H 0.500000 0.319106 0.768362
C48_7 C 0.500000 0.3312(3) 0.6168(4)
H28_7 H 0.500000 0.323415 0.588810
C49_7 C 0.500000 0.3020(3) 0.6468(3)
H29_7 H 0.500000 0.273983 0.639162
C50_7 C 0.500000 0.2395(4) 0.7088(5)
H30_7 H 0.500000 0.231638 0.680894
O14_7 O 0.500000 0.05880(13) 0.89181(12)
C51_7 C 0.500000 0.09555(17) 0.90445(17)
C52_7 C 0.500000 0.12767(19) 0.87233(19)
C53_7 C 0.500000 0.1688(3) 0.8832(4)
H31_7 H 0.500000 0.176585 0.911190
C54_7 C 0.500000 0.1980(3) 0.8532(3)
H32_7 H 0.500000 0.226017 0.860838
C55_7 C 0.500000 0.2189(3) 0.7811(3)
C56_7 C 0.500000 0.1881(3) 0.8119(3)
C57_7 C 0.500000 0.2605(4) 0.7912(5)
H33_7 H 0.500000 0.268362 0.819106
O15_7 O 0.500000 0.10819(12) 0.94120(13)
C58_7 C 0.500000 0.1168(4) 0.8312(3)
H34_7 H 0.500000 0.088810 0.823415
C59_7 C 0.500000 0.1468(3) 0.8020(3)
H35_7 H 0.500000 0.139162 0.773983
C60_7 C 0.500000 0.2088(5) 0.7395(4)
H36_7 H 0.500000 0.180894 0.731638
C41_8 C 0.500000 0.59555(17) 0.40445(17)
C42_8 C 0.500000 0.62767(19) 0.37233(19)
C43_8 C 0.500000 0.6168(4) 0.3312(3)
H25_8 H 0.500000 0.588810 0.323415
C44_8 C 0.500000 0.6468(3) 0.3020(3)
H26_8 H 0.500000 0.639162 0.273983
C45_8 C 0.500000 0.7189(3) 0.2811(3)
C46_8 C 0.500000 0.6881(3) 0.3119(3)
C47_8 C 0.500000 0.7088(5) 0.2395(4)
H27_8 H 0.500000 0.680894 0.231638
C48_8 C 0.500000 0.6688(3) 0.3832(4)
H28_8 H 0.500000 0.676585 0.411190
C49_8 C 0.500000 0.6980(3) 0.3532(3)
H29_8 H 0.500000 0.726017 0.360838
C50_8 C 0.500000 0.7605(4) 0.2912(5)
H30_8 H 0.500000 0.768362 0.319106
O14_8 O 0.500000 0.94120(13) 0.10819(12)
C51_8 C 0.500000 0.90445(17) 0.09555(17)
C52_8 C 0.500000 0.87233(19) 0.12767(19)
C53_8 C 0.500000 0.8312(3) 0.1168(4)
H31_8 H 0.500000 0.823415 0.088810
C54_8 C 0.500000 0.8020(3) 0.1468(3)
H32_8 H 0.500000 0.773983 0.139162
C55_8 C 0.500000 0.7811(3) 0.2189(3)
C56_8 C 0.500000 0.8119(3) 0.1881(3)
C57_8 C 0.500000 0.7395(4) 0.2088(5)
H33_8 H 0.500000 0.731638 0.180894
O15_8 O 0.500000 0.89181(12) 0.05880(13)
C58_8 C 0.500000 0.8832(4) 0.1688(3)
H34_8 H 0.500000 0.911190 0.176585
C59_8 C 0.500000 0.8532(3) 0.1980(3)
H35_8 H 0.500000 0.860838 0.226017
C60_8 C 0.500000 0.7912(5) 0.2605(4)
H36_8 H 0.500000 0.819106 0.268362
Zr8_3 Zr -0.000000 0.000000 0.42443(2)
Zr12_9 Zr -0.000000 0.42443(2) 0.000000
Zr12_10 Zr -0.000000 0.42443(2) 1.000000
Zr8_4 Zr -0.000000 1.000000 0.42443(2)
O1_3 O 0.55880(13) -0.000000 0.10819(12)
C1_3 C 0.59555(17) -0.000000 0.09555(17)
C2_3 C 0.62767(19) -0.000000 0.12767(19)
C3_3 C 0.6688(3) -0.000000 0.1168(4)
H1_3 H 0.676585 -0.000000 0.088810
C4_3 C 0.6980(3) -0.000000 0.1468(3)
H2_3 H 0.726017 -0.000000 0.139162
C5_3 C 0.7189(3) -0.000000 0.2189(3)
C6_3 C 0.6881(3) -0.000000 0.1881(3)
C7_3 C 0.7605(4) -0.000000 0.2088(5)
H3_3 H 0.768362 -0.000000 0.180894
O3_2 O 0.60819(12) -0.000000 0.05880(13)
C8_3 C 0.6168(4) -0.000000 0.1688(3)
H4_3 H 0.588810 -0.000000 0.176585
C9_3 C 0.6468(3) -0.000000 0.1980(3)
H5_3 H 0.639162 -0.000000 0.226017
C10_3 C 0.7088(5) -0.000000 0.2605(4)
H6_3 H 0.680894 -0.000000 0.268362
O4_3 O 0.89181(12) 0.000000 0.44120(13)
C11_3 C 0.90445(17) 0.000000 0.40445(17)
C12_3 C 0.87233(19) -0.000000 0.37233(19)
C13_3 C 0.8832(4) -0.000000 0.3312(3)
H7_3 H 0.911190 -0.000000 0.323415
C14_3 C 0.8532(3) -0.000000 0.3020(3)
H8_3 H 0.860838 -0.000000 0.273983
C15_3 C 0.7811(3) -0.000000 0.2811(3)
C16_3 C 0.8119(3) -0.000000 0.3119(3)
C17_3 C 0.7912(5) -0.000000 0.2395(4)
H9_3 H 0.819106 -0.000000 0.231638
O5_3 O 0.94120(13) 0.000000 0.39181(12)
C18_3 C 0.8312(3) -0.000000 0.3832(4)
H10_3 H 0.823415 0.000000 0.411190
C19_3 C 0.8020(3) -0.000000 0.3532(3)
H11_3 H 0.773983 -0.000000 0.360838
C20_3 C 0.7395(4) -0.000000 0.2912(5)
H12_3 H 0.731638 -0.000000 0.319106
O6_3 O 0.44120(13) -0.000000 0.10819(12)
O7_2 O 0.53749(18) 0.03749(18) 0.03749(18)
C21_3 C 0.40445(17) -0.000000 0.09555(17)
C22_3 C 0.37233(19) -0.000000 0.12767(19)
C23_3 C 0.3312(3) -0.000000 0.1168(4)
H13_3 H 0.323415 -0.000000 0.088810
C24_3 C 0.3020(3) -0.000000 0.1468(3)
H14_3 H 0.273983 -0.000000 0.139162
C25_3 C 0.2811(3) -0.000000 0.2189(3)
C26_3 C 0.3119(3) -0.000000 0.1881(3)
C27_3 C 0.2395(4) -0.000000 0.2088(5)
H15_3 H 0.231638 -0.000000 0.180894
O8_2 O 0.39181(12) -0.000000 0.05880(13)
C28_3 C 0.3832(4) -0.000000 0.1688(3)
H16_3 H 0.411190 -0.000000 0.176585
C29_3 C 0.3532(3) -0.000000 0.1980(3)
H17_3 H 0.360838 -0.000000 0.226017
C30_3 C 0.2912(5) -0.000000 0.2605(4)
H18_3 H 0.319106 -0.000000 0.268362
O9_3 O 0.10819(12) 0.000000 0.44120(13)
C31_3 C 0.09555(17) 0.000000 0.40445(17)
C32_3 C 0.12767(19) -0.000000 0.37233(19)
C33_3 C 0.1168(4) -0.000000 0.3312(3)
H19_3 H 0.088810 -0.000000 0.323415
C34_3 C 0.1468(3) -0.000000 0.3020(3)
H20_3 H 0.139162 -0.000000 0.273983
C35_3 C 0.2189(3) -0.000000 0.2811(3)
C36_3 C 0.1881(3) -0.000000 0.3119(3)
C37_3 C 0.2088(5) -0.000000 0.2395(4)
H21_3 H 0.180894 -0.000000 0.231638
O10_3 O 0.05880(13) 0.000000 0.39181(12)
C38_3 C 0.1688(3) -0.000000 0.3832(4)
H22_3 H 0.176585 0.000000 0.411190
C39_3 C 0.1980(3) -0.000000 0.3532(3)
H23_3 H 0.226017 -0.000000 0.360838
C40_3 C 0.2605(4) -0.000000 0.2912(5)
H24_3 H 0.268362 -0.000000 0.319106
Zr2_2 Zr 0.57557(2) -0.000000 0.000000
O11_3 O 0.60819(12) 0.05880(13) 0.000000
C41_9 C 0.59555(17) 0.09555(17) 0.000000
C42_9 C 0.62767(19) 0.12767(19) 0.000000
C43_9 C 0.6168(4) 0.1688(3) 0.000000
H25_9 H 0.588810 0.176585 0.000000
C44_9 C 0.6468(3) 0.1980(3) 0.000000
H26_9 H 0.639162 0.226017 0.000000
C45_9 C 0.7189(3) 0.2189(3) 0.000000
C46_9 C 0.6881(3) 0.1881(3) 0.000000
C47_9 C 0.7088(5) 0.2605(4) 0.000000
H27_9 H 0.680894 0.268362 0.000000
O13_5 O 0.55880(13) 0.10819(12) 0.000000
C48_9 C 0.6688(3) 0.1168(4) 0.000000
H28_9 H 0.676585 0.088810 0.000000
C49_9 C 0.6980(3) 0.1468(3) 0.000000
H29_9 H 0.726017 0.139162 0.000000
C50_9 C 0.7605(4) 0.2088(5) 0.000000
H30_9 H 0.768362 0.180894 0.000000
O14_9 O 0.94120(13) 0.39181(12) 0.000000
C51_9 C 0.90445(17) 0.40445(17) 0.000000
C52_9 C 0.87233(19) 0.37233(19) 0.000000
C53_9 C 0.8312(3) 0.3832(4) 0.000000
H31_9 H 0.823415 0.411190 0.000000
C54_9 C 0.8020(3) 0.3532(3) 0.000000
H32_9 H 0.773983 0.360838 0.000000
C55_9 C 0.7811(3) 0.2811(3) 0.000000
C56_9 C 0.8119(3) 0.3119(3) 0.000000
C57_9 C 0.7395(4) 0.2912(5) 0.000000
H33_9 H 0.731638 0.319106 0.000000
O15_9 O 0.89181(12) 0.44120(13) 0.000000
C58_9 C 0.8832(4) 0.3312(3) 0.000000
H34_9 H 0.911190 0.323415 0.000000
C59_9 C 0.8532(3) 0.3020(3) 0.000000
H35_9 H 0.860838 0.273983 0.000000
C60_9 C 0.7912(5) 0.2395(4) 0.000000
H36_9 H 0.819106 0.231638 0.000000
Zr3_2 Zr 0.42443(2) -0.000000 0.000000
Zr8_5 Zr 1.000000 0.000000 0.42443(2)
Zr12_11 Zr 1.000000 0.42443(2) 0.000000
O19_3 O 0.39181(12) 0.05880(13) 0.000000
O26_2 O 0.46251(18) 0.03749(18) 0.03749(18)
Zr2_3 Zr 0.57557(2) -0.000000 1.000000
O11_4 O 0.60819(12) 0.05880(13) 1.000000
C41_10 C 0.59555(17) 0.09555(17) 1.000000
C42_10 C 0.62767(19) 0.12767(19) 1.000000
C43_10 C 0.6168(4) 0.1688(3) 1.000000
H25_10 H 0.588810 0.176585 1.000000
C44_10 C 0.6468(3) 0.1980(3) 1.000000
H26_10 H 0.639162 0.226017 1.000000
C45_10 C 0.7189(3) 0.2189(3) 1.000000
C46_10 C 0.6881(3) 0.1881(3) 1.000000
C47_10 C 0.7088(5) 0.2605(4) 1.000000
H27_10 H 0.680894 0.268362 1.000000
O13_6 O 0.55880(13) 0.10819(12) 1.000000
C48_10 C 0.6688(3) 0.1168(4) 1.000000
H28_10 H 0.676585 0.088810 1.000000
C49_10 C 0.6980(3) 0.1468(3) 1.000000
H29_10 H 0.726017 0.139162 1.000000
C50_10 C 0.7605(4) 0.2088(5) 1.000000
H30_10 H 0.768362 0.180894 1.000000
O14_10 O 0.94120(13) 0.39181(12) 1.000000
C51_10 C 0.90445(17) 0.40445(17) 1.000000
C52_10 C 0.87233(19) 0.37233(19) 1.000000
C53_10 C 0.8312(3) 0.3832(4) 1.000000
H31_10 H 0.823415 0.411190 1.000000
C54_10 C 0.8020(3) 0.3532(3) 1.000000
H32_10 H 0.773983 0.360838 1.000000
C55_10 C 0.7811(3) 0.2811(3) 1.000000
C56_10 C 0.8119(3) 0.3119(3) 1.000000
C57_10 C 0.7395(4) 0.2912(5) 1.000000
H33_10 H 0.731638 0.319106 1.000000
O15_10 O 0.89181(12) 0.44120(13) 1.000000
C58_10 C 0.8832(4) 0.3312(3) 1.000000
H34_10 H 0.911190 0.323415 1.000000
C59_10 C 0.8532(3) 0.3020(3) 1.000000
H35_10 H 0.860838 0.273983 1.000000
C60_10 C 0.7912(5) 0.2395(4) 1.000000
H36_10 H 0.819106 0.231638 1.000000
Zr3_3 Zr 0.42443(2) -0.000000 1.000000
O16_2 O 0.46251(18) 0.03749(18) 0.96251(18)
Zr12_12 Zr 1.000000 0.42443(2) 1.000000
O19_4 O 0.39181(12) 0.05880(13) 1.000000
O22_2 O 0.60819(12) 0.000000 0.94120(13)
O23_2 O 0.39181(12) 0.000000 0.94120(13)
O25_2 O 0.53749(18) 0.03749(18) 0.96251(18)
O1_4 O 0.55880(13) 1.000000 0.10819(12)
O2_2 O 0.46251(18) 0.96251(18) 0.03749(18)
C1_4 C 0.59555(17) 1.000000 0.09555(17)
C2_4 C 0.62767(19) 1.000000 0.12767(19)
C3_4 C 0.6688(3) 1.000000 0.1168(4)
H1_4 H 0.676585 1.000000 0.088810
C4_4 C 0.6980(3) 1.000000 0.1468(3)
H2_4 H 0.726017 1.000000 0.139162
C5_4 C 0.7189(3) 1.000000 0.2189(3)
C6_4 C 0.6881(3) 1.000000 0.1881(3)
C7_4 C 0.7605(4) 1.000000 0.2088(5)
H3_4 H 0.768362 1.000000 0.180894
O3_3 O 0.60819(12) 1.000000 0.05880(13)
C8_4 C 0.6168(4) 1.000000 0.1688(3)
H4_4 H 0.588810 1.000000 0.176585
C9_4 C 0.6468(3) 1.000000 0.1980(3)
H5_4 H 0.639162 1.000000 0.226017
C10_4 C 0.7088(5) 1.000000 0.2605(4)
H6_4 H 0.680894 1.000000 0.268362
O4_4 O 0.89181(12) 1.000000 0.44120(13)
C11_4 C 0.90445(17) 1.000000 0.40445(17)
C12_4 C 0.87233(19) 1.000000 0.37233(19)
C13_4 C 0.8832(4) 1.000000 0.3312(3)
H7_4 H 0.911190 1.000000 0.323415
C14_4 C 0.8532(3) 1.000000 0.3020(3)
H8_4 H 0.860838 1.000000 0.273983
C15_4 C 0.7811(3) 1.000000 0.2811(3)
C16_4 C 0.8119(3) 1.000000 0.3119(3)
C17_4 C 0.7912(5) 1.000000 0.2395(4)
H9_4 H 0.819106 1.000000 0.231638
O5_4 O 0.94120(13) 1.000000 0.39181(12)
C18_4 C 0.8312(3) 1.000000 0.3832(4)
H10_4 H 0.823415 1.000000 0.411190
C19_4 C 0.8020(3) 1.000000 0.3532(3)
H11_4 H 0.773983 1.000000 0.360838
C20_4 C 0.7395(4) 1.000000 0.2912(5)
H12_4 H 0.731638 1.000000 0.319106
O6_4 O 0.44120(13) 1.000000 0.10819(12)
C21_4 C 0.40445(17) 1.000000 0.09555(17)
C22_4 C 0.37233(19) 1.000000 0.12767(19)
C23_4 C 0.3312(3) 1.000000 0.1168(4)
H13_4 H 0.323415 1.000000 0.088810
C24_4 C 0.3020(3) 1.000000 0.1468(3)
H14_4 H 0.273983 1.000000 0.139162
C25_4 C 0.2811(3) 1.000000 0.2189(3)
C26_4 C 0.3119(3) 1.000000 0.1881(3)
C27_4 C 0.2395(4) 1.000000 0.2088(5)
H15_4 H 0.231638 1.000000 0.180894
O8_3 O 0.39181(12) 1.000000 0.05880(13)
C28_4 C 0.3832(4) 1.000000 0.1688(3)
H16_4 H 0.411190 1.000000 0.176585
C29_4 C 0.3532(3) 1.000000 0.1980(3)
H17_4 H 0.360838 1.000000 0.226017
C30_4 C 0.2912(5) 1.000000 0.2605(4)
H18_4 H 0.319106 1.000000 0.268362
O9_4 O 0.10819(12) 1.000000 0.44120(13)
C31_4 C 0.09555(17) 1.000000 0.40445(17)
C32_4 C 0.12767(19) 1.000000 0.37233(19)
C33_4 C 0.1168(4) 1.000000 0.3312(3)
H19_4 H 0.088810 1.000000 0.323415
C34_4 C 0.1468(3) 1.000000 0.3020(3)
H20_4 H 0.139162 1.000000 0.273983
C35_4 C 0.2189(3) 1.000000 0.2811(3)
C36_4 C 0.1881(3) 1.000000 0.3119(3)
C37_4 C 0.2088(5) 1.000000 0.2395(4)
H21_4 H 0.180894 1.000000 0.231638
O10_4 O 0.05880(13) 1.000000 0.39181(12)
C38_4 C 0.1688(3) 1.000000 0.3832(4)
H22_4 H 0.176585 1.000000 0.411190
C39_4 C 0.1980(3) 1.000000 0.3532(3)
H23_4 H 0.226017 1.000000 0.360838
C40_4 C 0.2605(4) 1.000000 0.2912(5)
H24_4 H 0.268362 1.000000 0.319106
Zr2_4 Zr 0.57557(2) 1.000000 0.000000
Zr3_4 Zr 0.42443(2) 1.000000 0.000000
Zr8_6 Zr 1.000000 1.000000 0.42443(2)
O17_3 O 0.60819(12) 0.94120(13) 0.000000
O18_3 O 0.39181(12) 0.94120(13) 0.000000
O27_2 O 0.53749(18) 0.96251(18) 0.03749(18)
Zr2_5 Zr 0.57557(2) 1.000000 1.000000
O12_2 O 0.53749(18) 0.96251(18) 0.96251(18)
Zr3_5 Zr 0.42443(2) 1.000000 1.000000
O17_4 O 0.60819(12) 0.94120(13) 1.000000
O18_4 O 0.39181(12) 0.94120(13) 1.000000
O22_3 O 0.60819(12) 1.000000 0.94120(13)
O23_3 O 0.39181(12) 1.000000 0.94120(13)
O24_2 O 0.46251(18) 0.96251(18) 0.96251(18)
C41_11 C 0.40445(17) 0.90445(17) 0.000000
C42_11 C 0.37233(19) 0.87233(19) 0.000000
C43_11 C 0.3832(4) 0.8312(3) 0.000000
H25_11 H 0.411190 0.823415 0.000000
C44_11 C 0.3532(3) 0.8020(3) 0.000000
H26_11 H 0.360838 0.773983 0.000000
C45_11 C 0.2811(3) 0.7811(3) 0.000000
C46_11 C 0.3119(3) 0.8119(3) 0.000000
C47_11 C 0.2912(5) 0.7395(4) 0.000000
H27_11 H 0.319106 0.731638 0.000000
O13_7 O 0.44120(13) 0.89181(12) 0.000000
C48_11 C 0.3312(3) 0.8832(4) 0.000000
H28_11 H 0.323415 0.911190 0.000000
C49_11 C 0.3020(3) 0.8532(3) 0.000000
H29_11 H 0.273983 0.860838 0.000000
C50_11 C 0.2395(4) 0.7912(5) 0.000000
H30_11 H 0.231638 0.819106 0.000000
O14_11 O 0.05880(13) 0.60819(12) 0.000000
C51_11 C 0.09555(17) 0.59555(17) 0.000000
C52_11 C 0.12767(19) 0.62767(19) 0.000000
C53_11 C 0.1688(3) 0.6168(4) 0.000000
H31_11 H 0.176585 0.588810 0.000000
C54_11 C 0.1980(3) 0.6468(3) 0.000000
H32_11 H 0.226017 0.639162 0.000000
C55_11 C 0.2189(3) 0.7189(3) 0.000000
C56_11 C 0.1881(3) 0.6881(3) 0.000000
C57_11 C 0.2605(4) 0.7088(5) 0.000000
H33_11 H 0.268362 0.680894 0.000000
O15_11 O 0.10819(12) 0.55880(13) 0.000000
C58_11 C 0.1168(4) 0.6688(3) 0.000000
H34_11 H 0.088810 0.676585 0.000000
C59_11 C 0.1468(3) 0.6980(3) 0.000000
H35_11 H 0.139162 0.726017 0.000000
C60_11 C 0.2088(5) 0.7605(4) 0.000000
H36_11 H 0.180894 0.768362 0.000000
Zr12_13 Zr 0.000000 0.57557(2) 0.000000
C41_12 C 0.40445(17) 0.90445(17) 1.000000
C42_12 C 0.37233(19) 0.87233(19) 1.000000
C43_12 C 0.3832(4) 0.8312(3) 1.000000
H25_12 H 0.411190 0.823415 1.000000
C44_12 C 0.3532(3) 0.8020(3) 1.000000
H26_12 H 0.360838 0.773983 1.000000
C45_12 C 0.2811(3) 0.7811(3) 1.000000
C46_12 C 0.3119(3) 0.8119(3) 1.000000
C47_12 C 0.2912(5) 0.7395(4) 1.000000
H27_12 H 0.319106 0.731638 1.000000
O13_8 O 0.44120(13) 0.89181(12) 1.000000
C48_12 C 0.3312(3) 0.8832(4) 1.000000
H28_12 H 0.323415 0.911190 1.000000
C49_12 C 0.3020(3) 0.8532(3) 1.000000
H29_12 H 0.273983 0.860838 1.000000
C50_12 C 0.2395(4) 0.7912(5) 1.000000
H30_12 H 0.231638 0.819106 1.000000
O14_12 O 0.05880(13) 0.60819(12) 1.000000
C51_12 C 0.09555(17) 0.59555(17) 1.000000
C52_12 C 0.12767(19) 0.62767(19) 1.000000
C53_12 C 0.1688(3) 0.6168(4) 1.000000
H31_12 H 0.176585 0.588810 1.000000
C54_12 C 0.1980(3) 0.6468(3) 1.000000
H32_12 H 0.226017 0.639162 1.000000
C55_12 C 0.2189(3) 0.7189(3) 1.000000
C56_12 C 0.1881(3) 0.6881(3) 1.000000
C57_12 C 0.2605(4) 0.7088(5) 1.000000
H33_12 H 0.268362 0.680894 1.000000
O15_12 O 0.10819(12) 0.55880(13) 1.000000
C58_12 C 0.1168(4) 0.6688(3) 1.000000
H34_12 H 0.088810 0.676585 1.000000
C59_12 C 0.1468(3) 0.6980(3) 1.000000
H35_12 H 0.139162 0.726017 1.000000
C60_12 C 0.2088(5) 0.7605(4) 1.000000
H36_12 H 0.180894 0.768362 1.000000
Zr12_14 Zr 0.000000 0.57557(2) 1.000000
Zr12_15 Zr 1.000000 0.57557(2) 0.000000
Zr12_16 Zr 1.000000 0.57557(2) 1.000000
Zr7_3 Zr 0.000000 0.000000 0.57557(2)
Zr7_4 Zr 0.000000 1.000000 0.57557(2)
C41_13 C 0.40445(17) 0.09555(17) 0.000000
C42_13 C 0.37233(19) 0.12767(19) 0.000000
C43_13 C 0.3832(4) 0.1688(3) 0.000000
H25_13 H 0.411190 0.176585 0.000000
C44_13 C 0.3532(3) 0.1980(3) 0.000000
H26_13 H 0.360838 0.226017 0.000000
C45_13 C 0.2811(3) 0.2189(3) 0.000000
C46_13 C 0.3119(3) 0.1881(3) 0.000000
C47_13 C 0.2912(5) 0.2605(4) 0.000000
H27_13 H 0.319106 0.268362 0.000000
O13_9 O 0.44120(13) 0.10819(12) 0.000000
C48_13 C 0.3312(3) 0.1168(4) 0.000000
H28_13 H 0.323415 0.088810 0.000000
C49_13 C 0.3020(3) 0.1468(3) 0.000000
H29_13 H 0.273983 0.139162 0.000000
C50_13 C 0.2395(4) 0.2088(5) 0.000000
H30_13 H 0.231638 0.180894 0.000000
O14_13 O 0.05880(13) 0.39181(12) 0.000000
C51_13 C 0.09555(17) 0.40445(17) 0.000000
C52_13 C 0.12767(19) 0.37233(19) 0.000000
C53_13 C 0.1688(3) 0.3832(4) 0.000000
H31_13 H 0.176585 0.411190 0.000000
C54_13 C 0.1980(3) 0.3532(3) 0.000000
H32_13 H 0.226017 0.360838 0.000000
C55_13 C 0.2189(3) 0.2811(3) 0.000000
C56_13 C 0.1881(3) 0.3119(3) 0.000000
C57_13 C 0.2605(4) 0.2912(5) 0.000000
H33_13 H 0.268362 0.319106 0.000000
O15_13 O 0.10819(12) 0.44120(13) 0.000000
C58_13 C 0.1168(4) 0.3312(3) 0.000000
H34_13 H 0.088810 0.323415 0.000000
C59_13 C 0.1468(3) 0.3020(3) 0.000000
H35_13 H 0.139162 0.273983 0.000000
C60_13 C 0.2088(5) 0.2395(4) 0.000000
H36_13 H 0.180894 0.231638 0.000000
O1_5 O 0.44120(13) -0.000000 0.89181(12)
C1_5 C 0.40445(17) -0.000000 0.90445(17)
C2_5 C 0.37233(19) -0.000000 0.87233(19)
C3_5 C 0.3312(3) -0.000000 0.8832(4)
H1_5 H 0.323415 -0.000000 0.911190
C4_5 C 0.3020(3) -0.000000 0.8532(3)
H2_5 H 0.273983 -0.000000 0.860838
C5_5 C 0.2811(3) -0.000000 0.7811(3)
C6_5 C 0.3119(3) -0.000000 0.8119(3)
C7_5 C 0.2395(4) -0.000000 0.7912(5)
H3_5 H 0.231638 -0.000000 0.819106
C8_5 C 0.3832(4) -0.000000 0.8312(3)
H4_5 H 0.411190 -0.000000 0.823415
C9_5 C 0.3532(3) -0.000000 0.8020(3)
H5_5 H 0.360838 -0.000000 0.773983
C10_5 C 0.2912(5) -0.000000 0.7395(4)
H6_5 H 0.319106 -0.000000 0.731638
O4_5 O 0.10819(12) 0.000000 0.55880(13)
C11_5 C 0.09555(17) 0.000000 0.59555(17)
C12_5 C 0.12767(19) -0.000000 0.62767(19)
C13_5 C 0.1168(4) -0.000000 0.6688(3)
H7_5 H 0.088810 -0.000000 0.676585
C14_5 C 0.1468(3) -0.000000 0.6980(3)
H8_5 H 0.139162 -0.000000 0.726017
C15_5 C 0.2189(3) -0.000000 0.7189(3)
C16_5 C 0.1881(3) -0.000000 0.6881(3)
C17_5 C 0.2088(5) -0.000000 0.7605(4)
H9_5 H 0.180894 -0.000000 0.768362
O5_5 O 0.05880(13) 0.000000 0.60819(12)
C18_5 C 0.1688(3) -0.000000 0.6168(4)
H10_5 H 0.176585 0.000000 0.588810
C19_5 C 0.1980(3) -0.000000 0.6468(3)
H11_5 H 0.226017 -0.000000 0.639162
C20_5 C 0.2605(4) -0.000000 0.7088(5)
H12_5 H 0.268362 -0.000000 0.680894
O6_5 O 0.55880(13) -0.000000 0.89181(12)
C21_5 C 0.59555(17) -0.000000 0.90445(17)
C22_5 C 0.62767(19) -0.000000 0.87233(19)
C23_5 C 0.6688(3) -0.000000 0.8832(4)
H13_5 H 0.676585 -0.000000 0.911190
C24_5 C 0.6980(3) -0.000000 0.8532(3)
H14_5 H 0.726017 -0.000000 0.860838
C25_5 C 0.7189(3) -0.000000 0.7811(3)
C26_5 C 0.6881(3) -0.000000 0.8119(3)
C27_5 C 0.7605(4) -0.000000 0.7912(5)
H15_5 H 0.768362 -0.000000 0.819106
C28_5 C 0.6168(4) -0.000000 0.8312(3)
H16_5 H 0.588810 -0.000000 0.823415
C29_5 C 0.6468(3) -0.000000 0.8020(3)
H17_5 H 0.639162 -0.000000 0.773983
C30_5 C 0.7088(5) -0.000000 0.7395(4)
H18_5 H 0.680894 -0.000000 0.731638
O9_5 O 0.89181(12) 0.000000 0.55880(13)
C31_5 C 0.90445(17) 0.000000 0.59555(17)
C32_5 C 0.87233(19) -0.000000 0.62767(19)
C33_5 C 0.8832(4) -0.000000 0.6688(3)
H19_5 H 0.911190 -0.000000 0.676585
C34_5 C 0.8532(3) -0.000000 0.6980(3)
H20_5 H 0.860838 -0.000000 0.726017
C35_5 C 0.7811(3) -0.000000 0.7189(3)
C36_5 C 0.8119(3) -0.000000 0.6881(3)
C37_5 C 0.7912(5) -0.000000 0.7605(4)
H21_5 H 0.819106 -0.000000 0.768362
O10_5 O 0.94120(13) 0.000000 0.60819(12)
C38_5 C 0.8312(3) -0.000000 0.6168(4)
H22_5 H 0.823415 0.000000 0.588810
C39_5 C 0.8020(3) -0.000000 0.6468(3)
H23_5 H 0.773983 -0.000000 0.639162
C40_5 C 0.7395(4) -0.000000 0.7088(5)
H24_5 H 0.731638 -0.000000 0.680894
C41_14 C 0.40445(17) 0.09555(17) 1.000000
C42_14 C 0.37233(19) 0.12767(19) 1.000000
C43_14 C 0.3832(4) 0.1688(3) 1.000000
H25_14 H 0.411190 0.176585 1.000000
C44_14 C 0.3532(3) 0.1980(3) 1.000000
H26_14 H 0.360838 0.226017 1.000000
C45_14 C 0.2811(3) 0.2189(3) 1.000000
C46_14 C 0.3119(3) 0.1881(3) 1.000000
C47_14 C 0.2912(5) 0.2605(4) 1.000000
H27_14 H 0.319106 0.268362 1.000000
O13_10 O 0.44120(13) 0.10819(12) 1.000000
C48_14 C 0.3312(3) 0.1168(4) 1.000000
H28_14 H 0.323415 0.088810 1.000000
C49_14 C 0.3020(3) 0.1468(3) 1.000000
H29_14 H 0.273983 0.139162 1.000000
C50_14 C 0.2395(4) 0.2088(5) 1.000000
H30_14 H 0.231638 0.180894 1.000000
O14_14 O 0.05880(13) 0.39181(12) 1.000000
C51_14 C 0.09555(17) 0.40445(17) 1.000000
C52_14 C 0.12767(19) 0.37233(19) 1.000000
C53_14 C 0.1688(3) 0.3832(4) 1.000000
H31_14 H 0.176585 0.411190 1.000000
C54_14 C 0.1980(3) 0.3532(3) 1.000000
H32_14 H 0.226017 0.360838 1.000000
C55_14 C 0.2189(3) 0.2811(3) 1.000000
C56_14 C 0.1881(3) 0.3119(3) 1.000000
C57_14 C 0.2605(4) 0.2912(5) 1.000000
H33_14 H 0.268362 0.319106 1.000000
O15_14 O 0.10819(12) 0.44120(13) 1.000000
C58_14 C 0.1168(4) 0.3312(3) 1.000000
H34_14 H 0.088810 0.323415 1.000000
C59_14 C 0.1468(3) 0.3020(3) 1.000000
H35_14 H 0.139162 0.273983 1.000000
C60_14 C 0.2088(5) 0.2395(4) 1.000000
H36_14 H 0.180894 0.231638 1.000000
Zr7_5 Zr 1.000000 0.000000 0.57557(2)
O1_6 O 0.44120(13) 1.000000 0.89181(12)
C1_6 C 0.40445(17) 1.000000 0.90445(17)
C2_6 C 0.37233(19) 1.000000 0.87233(19)
C3_6 C 0.3312(3) 1.000000 0.8832(4)
H1_6 H 0.323415 1.000000 0.911190
C4_6 C 0.3020(3) 1.000000 0.8532(3)
H2_6 H 0.273983 1.000000 0.860838
C5_6 C 0.2811(3) 1.000000 0.7811(3)
C6_6 C 0.3119(3) 1.000000 0.8119(3)
C7_6 C 0.2395(4) 1.000000 0.7912(5)
H3_6 H 0.231638 1.000000 0.819106
C8_6 C 0.3832(4) 1.000000 0.8312(3)
H4_6 H 0.411190 1.000000 0.823415
C9_6 C 0.3532(3) 1.000000 0.8020(3)
H5_6 H 0.360838 1.000000 0.773983
C10_6 C 0.2912(5) 1.000000 0.7395(4)
H6_6 H 0.319106 1.000000 0.731638
O4_6 O 0.10819(12) 1.000000 0.55880(13)
C11_6 C 0.09555(17) 1.000000 0.59555(17)
C12_6 C 0.12767(19) 1.000000 0.62767(19)
C13_6 C 0.1168(4) 1.000000 0.6688(3)
H7_6 H 0.088810 1.000000 0.676585
C14_6 C 0.1468(3) 1.000000 0.6980(3)
H8_6 H 0.139162 1.000000 0.726017
C15_6 C 0.2189(3) 1.000000 0.7189(3)
C16_6 C 0.1881(3) 1.000000 0.6881(3)
C17_6 C 0.2088(5) 1.000000 0.7605(4)
H9_6 H 0.180894 1.000000 0.768362
O5_6 O 0.05880(13) 1.000000 0.60819(12)
C18_6 C 0.1688(3) 1.000000 0.6168(4)
H10_6 H 0.176585 1.000000 0.588810
C19_6 C 0.1980(3) 1.000000 0.6468(3)
H11_6 H 0.226017 1.000000 0.639162
C20_6 C 0.2605(4) 1.000000 0.7088(5)
H12_6 H 0.268362 1.000000 0.680894
O6_6 O 0.55880(13) 1.000000 0.89181(12)
C21_6 C 0.59555(17) 1.000000 0.90445(17)
C22_6 C 0.62767(19) 1.000000 0.87233(19)
C23_6 C 0.6688(3) 1.000000 0.8832(4)
H13_6 H 0.676585 1.000000 0.911190
C24_6 C 0.6980(3) 1.000000 0.8532(3)
H14_6 H 0.726017 1.000000 0.860838
C25_6 C 0.7189(3) 1.000000 0.7811(3)
C26_6 C 0.6881(3) 1.000000 0.8119(3)
C27_6 C 0.7605(4) 1.000000 0.7912(5)
H15_6 H 0.768362 1.000000 0.819106
C28_6 C 0.6168(4) 1.000000 0.8312(3)
H16_6 H 0.588810 1.000000 0.823415
C29_6 C 0.6468(3) 1.000000 0.8020(3)
H17_6 H 0.639162 1.000000 0.773983
C30_6 C 0.7088(5) 1.000000 0.7395(4)
H18_6 H 0.680894 1.000000 0.731638
O9_6 O 0.89181(12) 1.000000 0.55880(13)
C31_6 C 0.90445(17) 1.000000 0.59555(17)
C32_6 C 0.87233(19) 1.000000 0.62767(19)
C33_6 C 0.8832(4) 1.000000 0.6688(3)
H19_6 H 0.911190 1.000000 0.676585
C34_6 C 0.8532(3) 1.000000 0.6980(3)
H20_6 H 0.860838 1.000000 0.726017
C35_6 C 0.7811(3) 1.000000 0.7189(3)
C36_6 C 0.8119(3) 1.000000 0.6881(3)
C37_6 C 0.7912(5) 1.000000 0.7605(4)
H21_6 H 0.819106 1.000000 0.768362
O10_6 O 0.94120(13) 1.000000 0.60819(12)
C38_6 C 0.8312(3) 1.000000 0.6168(4)
H22_6 H 0.823415 1.000000 0.588810
C39_6 C 0.8020(3) 1.000000 0.6468(3)
H23_6 H 0.773983 1.000000 0.639162
C40_6 C 0.7395(4) 1.000000 0.7088(5)
H24_6 H 0.731638 1.000000 0.680894
Zr7_6 Zr 1.000000 1.000000 0.57557(2)
C41_15 C 0.59555(17) 0.90445(17) 0.000000
C42_15 C 0.62767(19) 0.87233(19) 0.000000
C43_15 C 0.6168(4) 0.8312(3) 0.000000
H25_15 H 0.588810 0.823415 0.000000
C44_15 C 0.6468(3) 0.8020(3) 0.000000
H26_15 H 0.639162 0.773983 0.000000
C45_15 C 0.7189(3) 0.7811(3) 0.000000
C46_15 C 0.6881(3) 0.8119(3) 0.000000
C47_15 C 0.7088(5) 0.7395(4) 0.000000
H27_15 H 0.680894 0.731638 0.000000
O13_11 O 0.55880(13) 0.89181(12) 0.000000
C48_15 C 0.6688(3) 0.8832(4) 0.000000
H28_15 H 0.676585 0.911190 0.000000
C49_15 C 0.6980(3) 0.8532(3) 0.000000
H29_15 H 0.726017 0.860838 0.000000
C50_15 C 0.7605(4) 0.7912(5) 0.000000
H30_15 H 0.768362 0.819106 0.000000
O14_15 O 0.94120(13) 0.60819(12) 0.000000
C51_15 C 0.90445(17) 0.59555(17) 0.000000
C52_15 C 0.87233(19) 0.62767(19) 0.000000
C53_15 C 0.8312(3) 0.6168(4) 0.000000
H31_15 H 0.823415 0.588810 0.000000
C54_15 C 0.8020(3) 0.6468(3) 0.000000
H32_15 H 0.773983 0.639162 0.000000
C55_15 C 0.7811(3) 0.7189(3) 0.000000
C56_15 C 0.8119(3) 0.6881(3) 0.000000
C57_15 C 0.7395(4) 0.7088(5) 0.000000
H33_15 H 0.731638 0.680894 0.000000
O15_15 O 0.89181(12) 0.55880(13) 0.000000
C58_15 C 0.8832(4) 0.6688(3) 0.000000
H34_15 H 0.911190 0.676585 0.000000
C59_15 C 0.8532(3) 0.6980(3) 0.000000
H35_15 H 0.860838 0.726017 0.000000
C60_15 C 0.7912(5) 0.7605(4) 0.000000
H36_15 H 0.819106 0.768362 0.000000
C41_16 C 0.59555(17) 0.90445(17) 1.000000
C42_16 C 0.62767(19) 0.87233(19) 1.000000
C43_16 C 0.6168(4) 0.8312(3) 1.000000
H25_16 H 0.588810 0.823415 1.000000
C44_16 C 0.6468(3) 0.8020(3) 1.000000
H26_16 H 0.639162 0.773983 1.000000
C45_16 C 0.7189(3) 0.7811(3) 1.000000
C46_16 C 0.6881(3) 0.8119(3) 1.000000
C47_16 C 0.7088(5) 0.7395(4) 1.000000
H27_16 H 0.680894 0.731638 1.000000
O13_12 O 0.55880(13) 0.89181(12) 1.000000
C48_16 C 0.6688(3) 0.8832(4) 1.000000
H28_16 H 0.676585 0.911190 1.000000
C49_16 C 0.6980(3) 0.8532(3) 1.000000
H29_16 H 0.726017 0.860838 1.000000
C50_16 C 0.7605(4) 0.7912(5) 1.000000
H30_16 H 0.768362 0.819106 1.000000
O14_16 O 0.94120(13) 0.60819(12) 1.000000
C51_16 C 0.90445(17) 0.59555(17) 1.000000
C52_16 C 0.87233(19) 0.62767(19) 1.000000
C53_16 C 0.8312(3) 0.6168(4) 1.000000
H31_16 H 0.823415 0.588810 1.000000
C54_16 C 0.8020(3) 0.6468(3) 1.000000
H32_16 H 0.773983 0.639162 1.000000
C55_16 C 0.7811(3) 0.7189(3) 1.000000
C56_16 C 0.8119(3) 0.6881(3) 1.000000
C57_16 C 0.7395(4) 0.7088(5) 1.000000
H33_16 H 0.731638 0.680894 1.000000
O15_16 O 0.89181(12) 0.55880(13) 1.000000
C58_16 C 0.8832(4) 0.6688(3) 1.000000
H34_16 H 0.911190 0.676585 1.000000
C59_16 C 0.8532(3) 0.6980(3) 1.000000
H35_16 H 0.860838 0.726017 1.000000
C60_16 C 0.7912(5) 0.7605(4) 1.000000
H36_16 H 0.819106 0.768362 1.000000
O7_3 O 0.03749(18) 0.53749(18) 0.03749(18)
O20_3 O -0.000000 0.44120(13) 0.10819(12)
O21_3 O -0.000000 0.55880(13) 0.10819(12)
O27_3 O 0.03749(18) 0.46251(18) 0.03749(18)
O12_3 O 0.03749(18) 0.46251(18) 0.96251(18)
O25_3 O 0.03749(18) 0.53749(18) 0.96251(18)
O2_3 O 0.96251(18) 0.46251(18) 0.03749(18)
O20_4 O 1.000000 0.44120(13) 0.10819(12)
O21_4 O 1.000000 0.55880(13) 0.10819(12)
O26_3 O 0.96251(18) 0.53749(18) 0.03749(18)
O16_3 O 0.96251(18) 0.53749(18) 0.96251(18)
O24_3 O 0.96251(18) 0.46251(18) 0.96251(18)
O20_5 O 0.000000 0.44120(13) 0.89181(12)
O21_5 O 0.000000 0.55880(13) 0.89181(12)
O20_6 O 1.000000 0.44120(13) 0.89181(12)
O21_6 O 1.000000 0.55880(13) 0.89181(12)
O11_5 O -0.000000 0.60819(12) 0.05880(13)
C41_17 C 0.000000 0.59555(17) 0.09555(17)
C42_17 C 0.000000 0.62767(19) 0.12767(19)
C43_17 C 0.000000 0.6168(4) 0.1688(3)
H25_17 H 0.000000 0.588810 0.176585
C44_17 C 0.000000 0.6468(3) 0.1980(3)
H26_17 H 0.000000 0.639162 0.226017
C45_17 C 0.000000 0.7189(3) 0.2189(3)
C46_17 C 0.000000 0.6881(3) 0.1881(3)
C47_17 C 0.000000 0.7088(5) 0.2605(4)
H27_17 H 0.000000 0.680894 0.268362
C48_17 C 0.000000 0.6688(3) 0.1168(4)
H28_17 H 0.000000 0.676585 0.088810
C49_17 C 0.000000 0.6980(3) 0.1468(3)
H29_17 H 0.000000 0.726017 0.139162
C50_17 C 0.000000 0.7605(4) 0.2088(5)
H30_17 H 0.000000 0.768362 0.180894
O14_17 O 0.000000 0.94120(13) 0.39181(12)
C51_17 C 0.000000 0.90445(17) 0.40445(17)
C52_17 C 0.000000 0.87233(19) 0.37233(19)
C53_17 C 0.000000 0.8312(3) 0.3832(4)
H31_17 H 0.000000 0.823415 0.411190
C54_17 C 0.000000 0.8020(3) 0.3532(3)
H32_17 H 0.000000 0.773983 0.360838
C55_17 C -0.000000 0.7811(3) 0.2811(3)
C56_17 C 0.000000 0.8119(3) 0.3119(3)
C57_17 C 0.000000 0.7395(4) 0.2912(5)
H33_17 H 0.000000 0.731638 0.319106
O15_17 O 0.000000 0.89181(12) 0.44120(13)
C58_17 C 0.000000 0.8832(4) 0.3312(3)
H34_17 H 0.000000 0.911190 0.323415
C59_17 C -0.000000 0.8532(3) 0.3020(3)
H35_17 H 0.000000 0.860838 0.273983
C60_17 C 0.000000 0.7912(5) 0.2395(4)
H36_17 H 0.000000 0.819106 0.231638
O19_5 O 0.000000 0.39181(12) 0.05880(13)
O17_5 O 0.000000 0.60819(12) 0.94120(13)
O18_5 O 0.000000 0.39181(12) 0.94120(13)
O11_6 O 1.000000 0.60819(12) 0.05880(13)
C41_18 C 1.000000 0.59555(17) 0.09555(17)
C42_18 C 1.000000 0.62767(19) 0.12767(19)
C43_18 C 1.000000 0.6168(4) 0.1688(3)
H25_18 H 1.000000 0.588810 0.176585
C44_18 C 1.000000 0.6468(3) 0.1980(3)
H26_18 H 1.000000 0.639162 0.226017
C45_18 C 1.000000 0.7189(3) 0.2189(3)
C46_18 C 1.000000 0.6881(3) 0.1881(3)
C47_18 C 1.000000 0.7088(5) 0.2605(4)
H27_18 H 1.000000 0.680894 0.268362
C48_18 C 1.000000 0.6688(3) 0.1168(4)
H28_18 H 1.000000 0.676585 0.088810
C49_18 C 1.000000 0.6980(3) 0.1468(3)
H29_18 H 1.000000 0.726017 0.139162
C50_18 C 1.000000 0.7605(4) 0.2088(5)
H30_18 H 1.000000 0.768362 0.180894
O14_18 O 1.000000 0.94120(13) 0.39181(12)
C51_18 C 1.000000 0.90445(17) 0.40445(17)
C52_18 C 1.000000 0.87233(19) 0.37233(19)
C53_18 C 1.000000 0.8312(3) 0.3832(4)
H31_18 H 1.000000 0.823415 0.411190
C54_18 C 1.000000 0.8020(3) 0.3532(3)
H32_18 H 1.000000 0.773983 0.360838
C55_18 C 1.000000 0.7811(3) 0.2811(3)
C56_18 C 1.000000 0.8119(3) 0.3119(3)
C57_18 C 1.000000 0.7395(4) 0.2912(5)
H33_18 H 1.000000 0.731638 0.319106
O15_18 O 1.000000 0.89181(12) 0.44120(13)
C58_18 C 1.000000 0.8832(4) 0.3312(3)
H34_18 H 1.000000 0.911190 0.323415
C59_18 C 1.000000 0.8532(3) 0.3020(3)
H35_18 H 1.000000 0.860838 0.273983
C60_18 C 1.000000 0.7912(5) 0.2395(4)
H36_18 H 1.000000 0.819106 0.231638
O19_6 O 1.000000 0.39181(12) 0.05880(13)
O17_6 O 1.000000 0.60819(12) 0.94120(13)
O18_6 O 1.000000 0.39181(12) 0.94120(13)
C41_19 C -0.000000 0.40445(17) 0.90445(17)
C42_19 C 0.000000 0.37233(19) 0.87233(19)
C43_19 C 0.000000 0.3832(4) 0.8312(3)
H25_19 H 0.000000 0.411190 0.823415
C44_19 C -0.000000 0.3532(3) 0.8020(3)
H26_19 H 0.000000 0.360838 0.773983
C45_19 C 0.000000 0.2811(3) 0.7811(3)
C46_19 C 0.000000 0.3119(3) 0.8119(3)
C47_19 C -0.000000 0.2912(5) 0.7395(4)
H27_19 H 0.000000 0.319106 0.731638
C48_19 C 0.000000 0.3312(3) 0.8832(4)
H28_19 H 0.000000 0.323415 0.911190
C49_19 C 0.000000 0.3020(3) 0.8532(3)
H29_19 H 0.000000 0.273983 0.860838
C50_19 C -0.000000 0.2395(4) 0.7912(5)
H30_19 H 0.000000 0.231638 0.819106
O14_19 O -0.000000 0.05880(13) 0.60819(12)
C51_19 C 0.000000 0.09555(17) 0.59555(17)
C52_19 C 0.000000 0.12767(19) 0.62767(19)
C53_19 C -0.000000 0.1688(3) 0.6168(4)
H31_19 H 0.000000 0.176585 0.588810
C54_19 C 0.000000 0.1980(3) 0.6468(3)
H32_19 H -0.000000 0.226017 0.639162
C55_19 C 0.000000 0.2189(3) 0.7189(3)
C56_19 C 0.000000 0.1881(3) 0.6881(3)
C57_19 C 0.000000 0.2605(4) 0.7088(5)
H33_19 H 0.000000 0.268362 0.680894
O15_19 O 0.000000 0.10819(12) 0.55880(13)
C58_19 C 0.000000 0.1168(4) 0.6688(3)
H34_19 H 0.000000 0.088810 0.676585
C59_19 C 0.000000 0.1468(3) 0.6980(3)
H35_19 H 0.000000 0.139162 0.726017
C60_19 C 0.000000 0.2088(5) 0.7605(4)
H36_19 H 0.000000 0.180894 0.768362
C41_20 C 1.000000 0.40445(17) 0.90445(17)
C42_20 C 1.000000 0.37233(19) 0.87233(19)
C43_20 C 1.000000 0.3832(4) 0.8312(3)
H25_20 H 1.000000 0.411190 0.823415
C44_20 C 1.000000 0.3532(3) 0.8020(3)
H26_20 H 1.000000 0.360838 0.773983
C45_20 C 1.000000 0.2811(3) 0.7811(3)
C46_20 C 1.000000 0.3119(3) 0.8119(3)
C47_20 C 1.000000 0.2912(5) 0.7395(4)
H27_20 H 1.000000 0.319106 0.731638
C48_20 C 1.000000 0.3312(3) 0.8832(4)
H28_20 H 1.000000 0.323415 0.911190
C49_20 C 1.000000 0.3020(3) 0.8532(3)
H29_20 H 1.000000 0.273983 0.860838
C50_20 C 1.000000 0.2395(4) 0.7912(5)
H30_20 H 1.000000 0.231638 0.819106
O14_20 O 1.000000 0.05880(13) 0.60819(12)
C51_20 C 1.000000 0.09555(17) 0.59555(17)
C52_20 C 1.000000 0.12767(19) 0.62767(19)
C53_20 C 1.000000 0.1688(3) 0.6168(4)
H31_20 H 1.000000 0.176585 0.588810
C54_20 C 1.000000 0.1980(3) 0.6468(3)
H32_20 H 1.000000 0.226017 0.639162
C55_20 C 1.000000 0.2189(3) 0.7189(3)
C56_20 C 1.000000 0.1881(3) 0.6881(3)
C57_20 C 1.000000 0.2605(4) 0.7088(5)
H33_20 H 1.000000 0.268362 0.680894
O15_20 O 1.000000 0.10819(12) 0.55880(13)
C58_20 C 1.000000 0.1168(4) 0.6688(3)
H34_20 H 1.000000 0.088810 0.676585
C59_20 C 1.000000 0.1468(3) 0.6980(3)
H35_20 H 1.000000 0.139162 0.726017
C60_20 C 1.000000 0.2088(5) 0.7605(4)
H36_20 H 1.000000 0.180894 0.768362
C41_21 C 0.000000 0.40445(17) 0.09555(17)
C42_21 C -0.000000 0.37233(19) 0.12767(19)
C43_21 C 0.000000 0.3832(4) 0.1688(3)
H25_21 H 0.000000 0.411190 0.176585
C44_21 C 0.000000 0.3532(3) 0.1980(3)
H26_21 H 0.000000 0.360838 0.226017
C45_21 C 0.000000 0.2811(3) 0.2189(3)
C46_21 C 0.000000 0.3119(3) 0.1881(3)
C47_21 C 0.000000 0.2912(5) 0.2605(4)
H27_21 H 0.000000 0.319106 0.268362
C48_21 C 0.000000 0.3312(3) 0.1168(4)
H28_21 H 0.000000 0.323415 0.088810
C49_21 C 0.000000 0.3020(3) 0.1468(3)
H29_21 H 0.000000 0.273983 0.139162
C50_21 C 0.000000 0.2395(4) 0.2088(5)
H30_21 H 0.000000 0.231638 0.180894
O14_21 O 0.000000 0.05880(13) 0.39181(12)
C51_21 C 0.000000 0.09555(17) 0.40445(17)
C52_21 C 0.000000 0.12767(19) 0.37233(19)
C53_21 C 0.000000 0.1688(3) 0.3832(4)
H31_21 H 0.000000 0.176585 0.411190
C54_21 C 0.000000 0.1980(3) 0.3532(3)
H32_21 H 0.000000 0.226017 0.360838
C55_21 C 0.000000 0.2189(3) 0.2811(3)
C56_21 C 0.000000 0.1881(3) 0.3119(3)
C57_21 C 0.000000 0.2605(4) 0.2912(5)
H33_21 H 0.000000 0.268362 0.319106
O15_21 O 0.000000 0.10819(12) 0.44120(13)
C58_21 C 0.000000 0.1168(4) 0.3312(3)
H34_21 H 0.000000 0.088810 0.323415
C59_21 C 0.000000 0.1468(3) 0.3020(3)
H35_21 H 0.000000 0.139162 0.273983
C60_21 C 0.000000 0.2088(5) 0.2395(4)
H36_21 H 0.000000 0.180894 0.231638
C41_22 C 1.000000 0.40445(17) 0.09555(17)
C42_22 C 1.000000 0.37233(19) 0.12767(19)
C43_22 C 1.000000 0.3832(4) 0.1688(3)
H25_22 H 1.000000 0.411190 0.176585
C44_22 C 1.000000 0.3532(3) 0.1980(3)
H26_22 H 1.000000 0.360838 0.226017
C45_22 C 1.000000 0.2811(3) 0.2189(3)
C46_22 C 1.000000 0.3119(3) 0.1881(3)
C47_22 C 1.000000 0.2912(5) 0.2605(4)
H27_22 H 1.000000 0.319106 0.268362
C48_22 C 1.000000 0.3312(3) 0.1168(4)
H28_22 H 1.000000 0.323415 0.088810
C49_22 C 1.000000 0.3020(3) 0.1468(3)
H29_22 H 1.000000 0.273983 0.139162
C50_22 C 1.000000 0.2395(4) 0.2088(5)
H30_22 H 1.000000 0.231638 0.180894
O14_22 O 1.000000 0.05880(13) 0.39181(12)
C51_22 C 1.000000 0.09555(17) 0.40445(17)
C52_22 C 1.000000 0.12767(19) 0.37233(19)
C53_22 C 1.000000 0.1688(3) 0.3832(4)
H31_22 H 1.000000 0.176585 0.411190
C54_22 C 1.000000 0.1980(3) 0.3532(3)
H32_22 H 1.000000 0.226017 0.360838
C55_22 C 1.000000 0.2189(3) 0.2811(3)
C56_22 C 1.000000 0.1881(3) 0.3119(3)
C57_22 C 1.000000 0.2605(4) 0.2912(5)
H33_22 H 1.000000 0.268362 0.319106
O15_22 O 1.000000 0.10819(12) 0.44120(13)
C58_22 C 1.000000 0.1168(4) 0.3312(3)
H34_22 H 1.000000 0.088810 0.323415
C59_22 C 1.000000 0.1468(3) 0.3020(3)
H35_22 H 1.000000 0.139162 0.273983
C60_22 C 1.000000 0.2088(5) 0.2395(4)
H36_22 H 1.000000 0.180894 0.231638
C41_23 C -0.000000 0.59555(17) 0.90445(17)
C42_23 C 0.000000 0.62767(19) 0.87233(19)
C43_23 C 0.000000 0.6168(4) 0.8312(3)
H25_23 H 0.000000 0.588810 0.823415
C44_23 C 0.000000 0.6468(3) 0.8020(3)
H26_23 H 0.000000 0.639162 0.773983
C45_23 C 0.000000 0.7189(3) 0.7811(3)
C46_23 C 0.000000 0.6881(3) 0.8119(3)
C47_23 C 0.000000 0.7088(5) 0.7395(4)
H27_23 H 0.000000 0.680894 0.731638
C48_23 C 0.000000 0.6688(3) 0.8832(4)
H28_23 H 0.000000 0.676585 0.911190
C49_23 C 0.000000 0.6980(3) 0.8532(3)
H29_23 H 0.000000 0.726017 0.860838
C50_23 C 0.000000 0.7605(4) 0.7912(5)
H30_23 H 0.000000 0.768362 0.819106
O14_23 O 0.000000 0.94120(13) 0.60819(12)
C51_23 C 0.000000 0.90445(17) 0.59555(17)
C52_23 C -0.000000 0.87233(19) 0.62767(19)
C53_23 C 0.000000 0.8312(3) 0.6168(4)
H31_23 H 0.000000 0.823415 0.588810
C54_23 C 0.000000 0.8020(3) 0.6468(3)
H32_23 H 0.000000 0.773983 0.639162
C55_23 C 0.000000 0.7811(3) 0.7189(3)
C56_23 C 0.000000 0.8119(3) 0.6881(3)
C57_23 C 0.000000 0.7395(4) 0.7088(5)
H33_23 H 0.000000 0.731638 0.680894
O15_23 O 0.000000 0.89181(12) 0.55880(13)
C58_23 C 0.000000 0.8832(4) 0.6688(3)
H34_23 H 0.000000 0.911190 0.676585
C59_23 C 0.000000 0.8532(3) 0.6980(3)
H35_23 H 0.000000 0.860838 0.726017
C60_23 C 0.000000 0.7912(5) 0.7605(4)
H36_23 H -0.000000 0.819106 0.768362
C41_24 C 1.000000 0.59555(17) 0.90445(17)
C42_24 C 1.000000 0.62767(19) 0.87233(19)
C43_24 C 1.000000 0.6168(4) 0.8312(3)
H25_24 H 1.000000 0.588810 0.823415
C44_24 C 1.000000 0.6468(3) 0.8020(3)
H26_24 H 1.000000 0.639162 0.773983
C45_24 C 1.000000 0.7189(3) 0.7811(3)
C46_24 C 1.000000 0.6881(3) 0.8119(3)
C47_24 C 1.000000 0.7088(5) 0.7395(4)
H27_24 H 1.000000 0.680894 0.731638
C48_24 C 1.000000 0.6688(3) 0.8832(4)
H28_24 H 1.000000 0.676585 0.911190
C49_24 C 1.000000 0.6980(3) 0.8532(3)
H29_24 H 1.000000 0.726017 0.860838
C50_24 C 1.000000 0.7605(4) 0.7912(5)
H30_24 H 1.000000 0.768362 0.819106
O14_24 O 1.000000 0.94120(13) 0.60819(12)
C51_24 C 1.000000 0.90445(17) 0.59555(17)
C52_24 C 1.000000 0.87233(19) 0.62767(19)
C53_24 C 1.000000 0.8312(3) 0.6168(4)
H31_24 H 1.000000 0.823415 0.588810
C54_24 C 1.000000 0.8020(3) 0.6468(3)
H32_24 H 1.000000 0.773983 0.639162
C55_24 C 1.000000 0.7811(3) 0.7189(3)
C56_24 C 1.000000 0.8119(3) 0.6881(3)
C57_24 C 1.000000 0.7395(4) 0.7088(5)
H33_24 H 1.000000 0.731638 0.680894
O15_24 O 1.000000 0.89181(12) 0.55880(13)
C58_24 C 1.000000 0.8832(4) 0.6688(3)
H34_24 H 1.000000 0.911190 0.676585
C59_24 C 1.000000 0.8532(3) 0.6980(3)
H35_24 H 1.000000 0.860838 0.726017
C60_24 C 1.000000 0.7912(5) 0.7605(4)
H36_24 H 1.000000 0.819106 0.768362
O7_4 O 0.03749(18) 0.03749(18) 0.53749(18)
O25_4 O 0.03749(18) 0.03749(18) 0.46251(18)
O12_4 O 0.03749(18) 0.96251(18) 0.46251(18)
O27_4 O 0.03749(18) 0.96251(18) 0.53749(18)
O16_4 O 0.96251(18) 0.03749(18) 0.46251(18)
O26_4 O 0.96251(18) 0.03749(18) 0.53749(18)
O2_4 O 0.96251(18) 0.96251(18) 0.53749(18)
O24_4 O 0.96251(18) 0.96251(18) 0.46251(18)
loop_
_geom_bond_atom_site_label_1
_geom_bond_atom_site_label_2
_geom_bond_site_symmetry_1
_geom_bond_site_symmetry_2
Zr1 O1 1_555 1_555
O1 C1 1_555 1_555
O2 Zr1 1_555 1_555
C1 C2 1_555 1_555
C2 C3 1_555 1_555
C3 H1 1_555 1_555
C4 C3 1_555 1_555
H2 C4 1_555 1_555
C5 C6 1_555 1_555
C6 C4 1_555 1_555
C7 C5 1_555 1_555
H3 C7 1_555 1_555
O3 C1 1_555 1_555
C8 C2 1_555 1_555
H4 C8 1_555 1_555
C9 C6 1_555 1_555
H5 C9 1_555 1_555
C10 C5 1_555 1_555
H6 C10 1_555 1_555
O4 C11 1_555 1_555
C11 C12 1_555 1_555
C12 C13 1_555 1_555
C13 H7 1_555 1_555
C14 C13 1_555 1_555
H8 C14 1_555 1_555
C15 C16 1_555 1_555
C16 C14 1_555 1_555
C17 C7 1_555 1_555
H9 C17 1_555 1_555
O5 C11 1_555 1_555
C18 C12 1_555 1_555
H10 C18 1_555 1_555
C19 C16 1_555 1_555
H11 C19 1_555 1_555
C20 C10 1_555 1_555
H12 C20 1_555 1_555
O6 Zr1 1_555 1_555
O7 Zr1 1_555 1_555
C21 O6 1_555 1_555
C22 C21 1_555 1_555
C23 C22 1_555 1_555
H13 C23 1_555 1_555
C24 C23 1_555 1_555
H14 C24 1_555 1_555
C25 C26 1_555 1_555
C26 C24 1_555 1_555
C27 C25 1_555 1_555
H15 C27 1_555 1_555
O8 C21 1_555 1_555
C28 C22 1_555 1_555
H16 C28 1_555 1_555
C29 C26 1_555 1_555
H17 C29 1_555 1_555
C30 C25 1_555 1_555
H18 C30 1_555 1_555
O9 C31 1_555 1_555
C31 C32 1_555 1_555
C32 C33 1_555 1_555
C33 H19 1_555 1_555
C34 C33 1_555 1_555
H20 C34 1_555 1_555
C35 C36 1_555 1_555
C36 C34 1_555 1_555
C37 C27 1_555 1_555
H21 C37 1_555 1_555
O10 C31 1_555 1_555
C38 C32 1_555 1_555
H22 C38 1_555 1_555
C39 C36 1_555 1_555
H23 C39 1_555 1_555
C40 C30 1_555 1_555
H24 C40 1_555 1_555
Zr2 O3 1_555 1_555
O11 Zr2 1_555 1_555
O12 Zr2 1_555 1_555
C41 O11 1_555 1_555
C42 C41 1_555 1_555
C43 C42 1_555 1_555
H25 C43 1_555 1_555
C44 C43 1_555 1_555
H26 C44 1_555 1_555
C45 C46 1_555 1_555
C46 C44 1_555 1_555
C47 C45 1_555 1_555
H27 C47 1_555 1_555
O13 C41 1_555 1_555
C48 C42 1_555 1_555
H28 C48 1_555 1_555
C49 C46 1_555 1_555
H29 C49 1_555 1_555
C50 C45 1_555 1_555
H30 C50 1_555 1_555
O14 C51 1_555 1_555
C51 C52 1_555 1_555
C52 C53 1_555 1_555
C53 H31 1_555 1_555
C54 C53 1_555 1_555
H32 C54 1_555 1_555
C55 C56 1_555 1_555
C56 C54 1_555 1_555
C57 C47 1_555 1_555
H33 C57 1_555 1_555
O15 C51 1_555 1_555
C58 C52 1_555 1_555
H34 C58 1_555 1_555
C59 C56 1_555 1_555
H35 C59 1_555 1_555
C60 C50 1_555 1_555
H36 C60 1_555 1_555
Zr3 O2 1_555 1_555
O16 Zr3 1_555 1_555
Zr4 O12 1_555 1_555
Zr5 O7 1_555 1_555
Zr6 O2 1_555 1_555
Zr8 O10 1_555 1_555
Zr8_2 O5 1_555 1_555
Zr9_2 O9 1_555 1_555
Zr10_2 O4 1_555 1_555
Zr11_2 O15 1_555 1_555
Zr12_2 O14 1_555 1_555
O17 Zr2 1_555 1_555
O18 Zr3 1_555 1_555
O19 Zr3 1_555 1_555
O20 Zr1 1_555 1_555
O21 Zr1 1_555 1_555
O22 Zr2 1_555 1_555
O23 Zr3 1_555 1_555
O24 Zr3 1_555 1_555
O25 Zr2 1_555 1_555
O26 Zr1 1_555 1_555
O27 Zr1 1_555 1_555
C8 C9 1_555 1_555
C15 C17 1_555 1_555
C15 C20 1_555 1_555
C18 C19 1_555 1_555
O7 Zr2 1_555 1_555
O8 Zr3 1_555 1_555
C28 C29 1_555 1_555
C35 C37 1_555 1_555
C35 C40 1_555 1_555
C38 C39 1_555 1_555
Zr2 O27 1_555 1_555
O12 Zr6 1_555 1_555
O13 Zr5 1_555 1_555
C48 C49 1_555 1_555
C55 C57 1_555 1_555
C55 C60 1_555 1_555
C58 C59 1_555 1_555
Zr3 O26 1_555 1_555
O16 Zr4 1_555 1_555
O16 Zr5 1_555 1_555
Zr4 O24 1_555 1_555
Zr4 O25 1_555 1_555
Zr5 O25 1_555 1_555
Zr5 O26 1_555 1_555
Zr6 O24 1_555 1_555
Zr6 O27 1_555 1_555
C41_2 O18 1_555 1_555
C42_2 C41_2 1_555 1_555
C43_2 C42_2 1_555 1_555
H25_2 C43_2 1_555 1_555
C44_2 C43_2 1_555 1_555
H26_2 C44_2 1_555 1_555
C45_2 C46_2 1_555 1_555
C46_2 C44_2 1_555 1_555
C47_2 C45_2 1_555 1_555
H27_2 C47_2 1_555 1_555
O13_2 C41_2 1_555 1_555
C48_2 C42_2 1_555 1_555
H28_2 C48_2 1_555 1_555
C49_2 C46_2 1_555 1_555
H29_2 C49_2 1_555 1_555
C50_2 C45_2 1_555 1_555
H30_2 C50_2 1_555 1_555
O14_2 C51_2 1_555 1_555
C51_2 C52_2 1_555 1_555
C52_2 C53_2 1_555 1_555
C53_2 H31_2 1_555 1_555
C54_2 C53_2 1_555 1_555
H32_2 C54_2 1_555 1_555
C55_2 C56_2 1_555 1_555
C56_2 C54_2 1_555 1_555
C57_2 C47_2 1_555 1_555
H33_2 C57_2 1_555 1_555
O15_2 C51_2 1_555 1_555
C58_2 C52_2 1_555 1_555
H34_2 C58_2 1_555 1_555
C59_2 C56_2 1_555 1_555
H35_2 C59_2 1_555 1_555
C60_2 C50_2 1_555 1_555
H36_2 C60_2 1_555 1_555
Zr11_3 O15_2 1_555 1_555
Zr12_3 O14_2 1_555 1_555
O13_2 Zr6 1_555 1_555
C48_2 C49_2 1_555 1_555
C55_2 C57_2 1_555 1_555
C55_2 C60_2 1_555 1_555
C58_2 C59_2 1_555 1_555
Zr4 O1_2 1_555 1_555
O1_2 C1_2 1_555 1_555
C1_2 C2_2 1_555 1_555
C2_2 C3_2 1_555 1_555
C3_2 H1_2 1_555 1_555
C4_2 C3_2 1_555 1_555
H2_2 C4_2 1_555 1_555
C5_2 C6_2 1_555 1_555
C6_2 C4_2 1_555 1_555
C7_2 C5_2 1_555 1_555
H3_2 C7_2 1_555 1_555
O23 C1_2 1_555 1_555
C8_2 C2_2 1_555 1_555
H4_2 C8_2 1_555 1_555
C9_2 C6_2 1_555 1_555
H5_2 C9_2 1_555 1_555
C10_2 C5_2 1_555 1_555
H6_2 C10_2 1_555 1_555
O4_2 C11_2 1_555 1_555
C11_2 C12_2 1_555 1_555
C12_2 C13_2 1_555 1_555
C13_2 H7_2 1_555 1_555
C14_2 C13_2 1_555 1_555
H8_2 C14_2 1_555 1_555
C15_2 C16_2 1_555 1_555
C16_2 C14_2 1_555 1_555
C17_2 C7_2 1_555 1_555
H9_2 C17_2 1_555 1_555
O5_2 C11_2 1_555 1_555
C18_2 C12_2 1_555 1_555
H10_2 C18_2 1_555 1_555
C19_2 C16_2 1_555 1_555
H11_2 C19_2 1_555 1_555
C20_2 C10_2 1_555 1_555
H12_2 C20_2 1_555 1_555
O6_2 Zr4 1_555 1_555
C21_2 O6_2 1_555 1_555
C22_2 C21_2 1_555 1_555
C23_2 C22_2 1_555 1_555
H13_2 C23_2 1_555 1_555
C24_2 C23_2 1_555 1_555
H14_2 C24_2 1_555 1_555
C25_2 C26_2 1_555 1_555
C26_2 C24_2 1_555 1_555
C27_2 C25_2 1_555 1_555
H15_2 C27_2 1_555 1_555
O22 C21_2 1_555 1_555
C28_2 C22_2 1_555 1_555
H16_2 C28_2 1_555 1_555
C29_2 C26_2 1_555 1_555
H17_2 C29_2 1_555 1_555
C30_2 C25_2 1_555 1_555
H18_2 C30_2 1_555 1_555
O9_2 C31_2 1_555 1_555
C31_2 C32_2 1_555 1_555
C32_2 C33_2 1_555 1_555
C33_2 H19_2 1_555 1_555
C34_2 C33_2 1_555 1_555
H20_2 C34_2 1_555 1_555
C35_2 C36_2 1_555 1_555
C36_2 C34_2 1_555 1_555
C37_2 C27_2 1_555 1_555
H21_2 C37_2 1_555 1_555
O10_2 C31_2 1_555 1_555
C38_2 C32_2 1_555 1_555
H22_2 C38_2 1_555 1_555
C39_2 C36_2 1_555 1_555
H23_2 C39_2 1_555 1_555
C40_2 C30_2 1_555 1_555
H24_2 C40_2 1_555 1_555
C41_3 O19 1_555 1_555
C42_3 C41_3 1_555 1_555
C43_3 C42_3 1_555 1_555
H25_3 C43_3 1_555 1_555
C44_3 C43_3 1_555 1_555
H26_3 C44_3 1_555 1_555
C45_3 C46_3 1_555 1_555
C46_3 C44_3 1_555 1_555
C47_3 C45_3 1_555 1_555
H27_3 C47_3 1_555 1_555
O13_3 C41_3 1_555 1_555
C48_3 C42_3 1_555 1_555
H28_3 C48_3 1_555 1_555
C49_3 C46_3 1_555 1_555
H29_3 C49_3 1_555 1_555
C50_3 C45_3 1_555 1_555
H30_3 C50_3 1_555 1_555
O14_3 C51_3 1_555 1_555
C51_3 C52_3 1_555 1_555
C52_3 C53_3 1_555 1_555
C53_3 H31_3 1_555 1_555
C54_3 C53_3 1_555 1_555
H32_3 C54_3 1_555 1_555
C55_3 C56_3 1_555 1_555
C56_3 C54_3 1_555 1_555
C57_3 C47_3 1_555 1_555
H33_3 C57_3 1_555 1_555
O15_3 C51_3 1_555 1_555
C58_3 C52_3 1_555 1_555
H34_3 C58_3 1_555 1_555
C59_3 C56_3 1_555 1_555
H35_3 C59_3 1_555 1_555
C60_3 C50_3 1_555 1_555
H36_3 C60_3 1_555 1_555
Zr7_2 O10_2 1_555 1_555
Zr7 O5_2 1_555 1_555
Zr10 O9_2 1_555 1_555
Zr9 O4_2 1_555 1_555
Zr11_4 O15_3 1_555 1_555
Zr12 O14_3 1_555 1_555
O20_2 Zr4 1_555 1_555
O21_2 Zr4 1_555 1_555
C8_2 C9_2 1_555 1_555
C15_2 C17_2 1_555 1_555
C15_2 C20_2 1_555 1_555
C18_2 C19_2 1_555 1_555
C28_2 C29_2 1_555 1_555
C35_2 C37_2 1_555 1_555
C35_2 C40_2 1_555 1_555
C38_2 C39_2 1_555 1_555
O13_3 Zr5 1_555 1_555
C48_3 C49_3 1_555 1_555
C55_3 C57_3 1_555 1_555
C55_3 C60_3 1_555 1_555
C58_3 C59_3 1_555 1_555
C41_4 O17 1_555 1_555
C42_4 C41_4 1_555 1_555
C43_4 C42_4 1_555 1_555
H25_4 C43_4 1_555 1_555
C44_4 C43_4 1_555 1_555
H26_4 C44_4 1_555 1_555
C45_4 C46_4 1_555 1_555
C46_4 C44_4 1_555 1_555
C47_4 C45_4 1_555 1_555
H27_4 C47_4 1_555 1_555
O13_4 C41_4 1_555 1_555
C48_4 C42_4 1_555 1_555
H28_4 C48_4 1_555 1_555
C49_4 C46_4 1_555 1_555
H29_4 C49_4 1_555 1_555
C50_4 C45_4 1_555 1_555
H30_4 C50_4 1_555 1_555
O14_4 C51_4 1_555 1_555
C51_4 C52_4 1_555 1_555
C52_4 C53_4 1_555 1_555
C53_4 H31_4 1_555 1_555
C54_4 C53_4 1_555 1_555
H32_4 C54_4 1_555 1_555
C55_4 C56_4 1_555 1_555
C56_4 C54_4 1_555 1_555
C57_4 C47_4 1_555 1_555
H33_4 C57_4 1_555 1_555
O15_4 C51_4 1_555 1_555
C58_4 C52_4 1_555 1_555
H34_4 C58_4 1_555 1_555
C59_4 C56_4 1_555 1_555
H35_4 C59_4 1_555 1_555
C60_4 C50_4 1_555 1_555
H36_4 C60_4 1_555 1_555
Zr11 O15_4 1_555 1_555
Zr12_4 O14_4 1_555 1_555
O13_4 Zr6 1_555 1_555
C48_4 C49_4 1_555 1_555
C55_4 C57_4 1_555 1_555
C55_4 C60_4 1_555 1_555
C58_4 C59_4 1_555 1_555
O11_2 Zr5 1_555 1_555
C41_5 O11_2 1_555 1_555
C42_5 C41_5 1_555 1_555
C43_5 C42_5 1_555 1_555
H25_5 C43_5 1_555 1_555
C44_5 C43_5 1_555 1_555
H26_5 C44_5 1_555 1_555
C45_5 C46_5 1_555 1_555
C46_5 C44_5 1_555 1_555
C47_5 C45_5 1_555 1_555
H27_5 C47_5 1_555 1_555
O21 C41_5 1_555 1_555
C48_5 C42_5 1_555 1_555
H28_5 C48_5 1_555 1_555
C49_5 C46_5 1_555 1_555
H29_5 C49_5 1_555 1_555
C50_5 C45_5 1_555 1_555
H30_5 C50_5 1_555 1_555
O14_5 C51_5 1_555 1_555
C51_5 C52_5 1_555 1_555
C52_5 C53_5 1_555 1_555
C53_5 H31_5 1_555 1_555
C54_5 C53_5 1_555 1_555
H32_5 C54_5 1_555 1_555
C55_5 C56_5 1_555 1_555
C56_5 C54_5 1_555 1_555
C57_5 C47_5 1_555 1_555
H33_5 C57_5 1_555 1_555
O15_5 C51_5 1_555 1_555
C58_5 C52_5 1_555 1_555
H34_5 C58_5 1_555 1_555
C59_5 C56_5 1_555 1_555
H35_5 C59_5 1_555 1_555
C60_5 C50_5 1_555 1_555
H36_5 C60_5 1_555 1_555
Zr11_6 O15_5 1_555 1_555
Zr12_6 O14_5 1_555 1_555
O17_2 Zr5 1_555 1_555
O18_2 Zr6 1_555 1_555
O19_2 Zr6 1_555 1_555
C48_5 C49_5 1_555 1_555
C55_5 C57_5 1_555 1_555
C55_5 C60_5 1_555 1_555
C58_5 C59_5 1_555 1_555
C41_6 O18_2 1_555 1_555
C42_6 C41_6 1_555 1_555
C43_6 C42_6 1_555 1_555
H25_6 C43_6 1_555 1_555
C44_6 C43_6 1_555 1_555
H26_6 C44_6 1_555 1_555
C45_6 C46_6 1_555 1_555
C46_6 C44_6 1_555 1_555
C47_6 C45_6 1_555 1_555
H27_6 C47_6 1_555 1_555
O20_2 C41_6 1_555 1_555
C48_6 C42_6 1_555 1_555
H28_6 C48_6 1_555 1_555
C49_6 C46_6 1_555 1_555
H29_6 C49_6 1_555 1_555
C50_6 C45_6 1_555 1_555
H30_6 C50_6 1_555 1_555
O14_6 C51_6 1_555 1_555
C51_6 C52_6 1_555 1_555
C52_6 C53_6 1_555 1_555
C53_6 H31_6 1_555 1_555
C54_6 C53_6 1_555 1_555
H32_6 C54_6 1_555 1_555
C55_6 C56_6 1_555 1_555
C56_6 C54_6 1_555 1_555
C57_6 C47_6 1_555 1_555
H33_6 C57_6 1_555 1_555
O15_6 C51_6 1_555 1_555
C58_6 C52_6 1_555 1_555
H34_6 C58_6 1_555 1_555
C59_6 C56_6 1_555 1_555
H35_6 C59_6 1_555 1_555
C60_6 C50_6 1_555 1_555
H36_6 C60_6 1_555 1_555
Zr11_7 O15_6 1_555 1_555
Zr12_7 O14_6 1_555 1_555
C48_6 C49_6 1_555 1_555
C55_6 C57_6 1_555 1_555
C55_6 C60_6 1_555 1_555
C58_6 C59_6 1_555 1_555
C41_7 O19_2 1_555 1_555
C42_7 C41_7 1_555 1_555
C43_7 C42_7 1_555 1_555
H25_7 C43_7 1_555 1_555
C44_7 C43_7 1_555 1_555
H26_7 C44_7 1_555 1_555
C45_7 C46_7 1_555 1_555
C46_7 C44_7 1_555 1_555
C47_7 C45_7 1_555 1_555
H27_7 C47_7 1_555 1_555
O20 C41_7 1_555 1_555
C48_7 C42_7 1_555 1_555
H28_7 C48_7 1_555 1_555
C49_7 C46_7 1_555 1_555
H29_7 C49_7 1_555 1_555
C50_7 C45_7 1_555 1_555
H30_7 C50_7 1_555 1_555
O14_7 C51_7 1_555 1_555
C51_7 C52_7 1_555 1_555
C52_7 C53_7 1_555 1_555
C53_7 H31_7 1_555 1_555
C54_7 C53_7 1_555 1_555
H32_7 C54_7 1_555 1_555
C55_7 C56_7 1_555 1_555
C56_7 C54_7 1_555 1_555
C57_7 C47_7 1_555 1_555
H33_7 C57_7 1_555 1_555
O15_7 C51_7 1_555 1_555
C58_7 C52_7 1_555 1_555
H34_7 C58_7 1_555 1_555
C59_7 C56_7 1_555 1_555
H35_7 C59_7 1_555 1_555
C60_7 C50_7 1_555 1_555
H36_7 C60_7 1_555 1_555
Zr11_8 O15_7 1_555 1_555
Zr12_5 O14_7 1_555 1_555
C48_7 C49_7 1_555 1_555
C55_7 C57_7 1_555 1_555
C55_7 C60_7 1_555 1_555
C58_7 C59_7 1_555 1_555
C41_8 O17_2 1_555 1_555
C42_8 C41_8 1_555 1_555
C43_8 C42_8 1_555 1_555
H25_8 C43_8 1_555 1_555
C44_8 C43_8 1_555 1_555
H26_8 C44_8 1_555 1_555
C45_8 C46_8 1_555 1_555
C46_8 C44_8 1_555 1_555
C47_8 C45_8 1_555 1_555
H27_8 C47_8 1_555 1_555
O21_2 C41_8 1_555 1_555
C48_8 C42_8 1_555 1_555
H28_8 C48_8 1_555 1_555
C49_8 C46_8 1_555 1_555
H29_8 C49_8 1_555 1_555
C50_8 C45_8 1_555 1_555
H30_8 C50_8 1_555 1_555
O14_8 C51_8 1_555 1_555
C51_8 C52_8 1_555 1_555
C52_8 C53_8 1_555 1_555
C53_8 H31_8 1_555 1_555
C54_8 C53_8 1_555 1_555
H32_8 C54_8 1_555 1_555
C55_8 C56_8 1_555 1_555
C56_8 C54_8 1_555 1_555
C57_8 C47_8 1_555 1_555
H33_8 C57_8 1_555 1_555
O15_8 C51_8 1_555 1_555
C58_8 C52_8 1_555 1_555
H34_8 C58_8 1_555 1_555
C59_8 C56_8 1_555 1_555
H35_8 C59_8 1_555 1_555
C60_8 C50_8 1_555 1_555
H36_8 C60_8 1_555 1_555
Zr11_5 O15_8 1_555 1_555
Zr12_8 O14_8 1_555 1_555
C48_8 C49_8 1_555 1_555
C55_8 C57_8 1_555 1_555
C55_8 C60_8 1_555 1_555
C58_8 C59_8 1_555 1_555
Zr12_7 O1_3 1_555 1_555
O1_3 C1_3 1_555 1_555
C1_3 C2_3 1_555 1_555
C2_3 C3_3 1_555 1_555
C3_3 H1_3 1_555 1_555
C4_3 C3_3 1_555 1_555
H2_3 C4_3 1_555 1_555
C5_3 C6_3 1_555 1_555
C6_3 C4_3 1_555 1_555
C7_3 C5_3 1_555 1_555
H3_3 C7_3 1_555 1_555
O3_2 C1_3 1_555 1_555
C8_3 C2_3 1_555 1_555
H4_3 C8_3 1_555 1_555
C9_3 C6_3 1_555 1_555
H5_3 C9_3 1_555 1_555
C10_3 C5_3 1_555 1_555
H6_3 C10_3 1_555 1_555
O4_3 C11_3 1_555 1_555
C11_3 C12_3 1_555 1_555
C12_3 C13_3 1_555 1_555
C13_3 H7_3 1_555 1_555
C14_3 C13_3 1_555 1_555
H8_3 C14_3 1_555 1_555
C15_3 C16_3 1_555 1_555
C16_3 C14_3 1_555 1_555
C17_3 C7_3 1_555 1_555
H9_3 C17_3 1_555 1_555
O5_3 C11_3 1_555 1_555
C18_3 C12_3 1_555 1_555
H10_3 C18_3 1_555 1_555
C19_3 C16_3 1_555 1_555
H11_3 C19_3 1_555 1_555
C20_3 C10_3 1_555 1_555
H12_3 C20_3 1_555 1_555
O6_3 Zr12_7 1_555 1_555
O7_2 Zr12_7 1_555 1_555
C21_3 O6_3 1_555 1_555
C22_3 C21_3 1_555 1_555
C23_3 C22_3 1_555 1_555
H13_3 C23_3 1_555 1_555
C24_3 C23_3 1_555 1_555
H14_3 C24_3 1_555 1_555
C25_3 C26_3 1_555 1_555
C26_3 C24_3 1_555 1_555
C27_3 C25_3 1_555 1_555
H15_3 C27_3 1_555 1_555
O8_2 C21_3 1_555 1_555
C28_3 C22_3 1_555 1_555
H16_3 C28_3 1_555 1_555
C29_3 C26_3 1_555 1_555
H17_3 C29_3 1_555 1_555
C30_3 C25_3 1_555 1_555
H18_3 C30_3 1_555 1_555
O9_3 C31_3 1_555 1_555
C31_3 C32_3 1_555 1_555
C32_3 C33_3 1_555 1_555
C33_3 H19_3 1_555 1_555
C34_3 C33_3 1_555 1_555
H20_3 C34_3 1_555 1_555
C35_3 C36_3 1_555 1_555
C36_3 C34_3 1_555 1_555
C37_3 C27_3 1_555 1_555
H21_3 C37_3 1_555 1_555
O10_3 C31_3 1_555 1_555
C38_3 C32_3 1_555 1_555
H22_3 C38_3 1_555 1_555
C39_3 C36_3 1_555 1_555
H23_3 C39_3 1_555 1_555
C40_3 C30_3 1_555 1_555
H24_3 C40_3 1_555 1_555
Zr2_2 O3_2 1_555 1_555
O11_3 Zr2_2 1_555 1_555
C41_9 O11_3 1_555 1_555
C42_9 C41_9 1_555 1_555
C43_9 C42_9 1_555 1_555
H25_9 C43_9 1_555 1_555
C44_9 C43_9 1_555 1_555
H26_9 C44_9 1_555 1_555
C45_9 C46_9 1_555 1_555
C46_9 C44_9 1_555 1_555
C47_9 C45_9 1_555 1_555
H27_9 C47_9 1_555 1_555
O13_5 C41_9 1_555 1_555
C48_9 C42_9 1_555 1_555
H28_9 C48_9 1_555 1_555
C49_9 C46_9 1_555 1_555
H29_9 C49_9 1_555 1_555
C50_9 C45_9 1_555 1_555
H30_9 C50_9 1_555 1_555
O14_9 C51_9 1_555 1_555
C51_9 C52_9 1_555 1_555
C52_9 C53_9 1_555 1_555
C53_9 H31_9 1_555 1_555
C54_9 C53_9 1_555 1_555
H32_9 C54_9 1_555 1_555
C55_9 C56_9 1_555 1_555
C56_9 C54_9 1_555 1_555
C57_9 C47_9 1_555 1_555
H33_9 C57_9 1_555 1_555
O15_9 C51_9 1_555 1_555
C58_9 C52_9 1_555 1_555
H34_9 C58_9 1_555 1_555
C59_9 C56_9 1_555 1_555
H35_9 C59_9 1_555 1_555
C60_9 C50_9 1_555 1_555
H36_9 C60_9 1_555 1_555
Zr11_7 O7_2 1_555 1_555
Zr8_3 O10_3 1_555 1_555
Zr8_5 O5_3 1_555 1_555
Zr11_3 O9_3 1_555 1_555
Zr11 O4_3 1_555 1_555
Zr10 O15_9 1_555 1_555
Zr12_11 O14_9 1_555 1_555
O19_3 Zr3_2 1_555 1_555
O26_2 Zr12_7 1_555 1_555
C8_3 C9_3 1_555 1_555
C15_3 C17_3 1_555 1_555
C15_3 C20_3 1_555 1_555
C18_3 C19_3 1_555 1_555
O7_2 Zr2_2 1_555 1_555
O8_2 Zr3_2 1_555 1_555
C28_3 C29_3 1_555 1_555
C35_3 C37_3 1_555 1_555
C35_3 C40_3 1_555 1_555
C38_3 C39_3 1_555 1_555
O13_5 Zr11_7 1_555 1_555
C48_9 C49_9 1_555 1_555
C55_9 C57_9 1_555 1_555
C55_9 C60_9 1_555 1_555
C58_9 C59_9 1_555 1_555
Zr3_2 O26_2 1_555 1_555
Zr11_7 O26_2 1_555 1_555
O11_4 Zr2_3 1_555 1_555
C41_10 O11_4 1_555 1_555
C42_10 C41_10 1_555 1_555
C43_10 C42_10 1_555 1_555
H25_10 C43_10 1_555 1_555
C44_10 C43_10 1_555 1_555
H26_10 C44_10 1_555 1_555
C45_10 C46_10 1_555 1_555
C46_10 C44_10 1_555 1_555
C47_10 C45_10 1_555 1_555
H27_10 C47_10 1_555 1_555
O13_6 C41_10 1_555 1_555
C48_10 C42_10 1_555 1_555
H28_10 C48_10 1_555 1_555
C49_10 C46_10 1_555 1_555
H29_10 C49_10 1_555 1_555
C50_10 C45_10 1_555 1_555
H30_10 C50_10 1_555 1_555
O14_10 C51_10 1_555 1_555
C51_10 C52_10 1_555 1_555
C52_10 C53_10 1_555 1_555
C53_10 H31_10 1_555 1_555
C54_10 C53_10 1_555 1_555
H32_10 C54_10 1_555 1_555
C55_10 C56_10 1_555 1_555
C56_10 C54_10 1_555 1_555
C57_10 C47_10 1_555 1_555
H33_10 C57_10 1_555 1_555
O15_10 C51_10 1_555 1_555
C58_10 C52_10 1_555 1_555
H34_10 C58_10 1_555 1_555
C59_10 C56_10 1_555 1_555
H35_10 C59_10 1_555 1_555
C60_10 C50_10 1_555 1_555
H36_10 C60_10 1_555 1_555
O16_2 Zr3_3 1_555 1_555
Zr10_2 O15_10 1_555 1_555
Zr12_12 O14_10 1_555 1_555
O19_4 Zr3_3 1_555 1_555
O22_2 Zr2_3 1_555 1_555
O23_2 Zr3_3 1_555 1_555
O25_2 Zr2_3 1_555 1_555
O13_6 Zr11_8 1_555 1_555
C48_10 C49_10 1_555 1_555
C55_10 C57_10 1_555 1_555
C55_10 C60_10 1_555 1_555
C58_10 C59_10 1_555 1_555
O16_2 Zr12_5 1_555 1_555
O16_2 Zr11_8 1_555 1_555
Zr12_5 O25_2 1_555 1_555
Zr11_8 O25_2 1_555 1_555
Zr12_8 O1_4 1_555 1_555
O1_4 C1_4 1_555 1_555
O2_2 Zr12_8 1_555 1_555
C1_4 C2_4 1_555 1_555
C2_4 C3_4 1_555 1_555
C3_4 H1_4 1_555 1_555
C4_4 C3_4 1_555 1_555
H2_4 C4_4 1_555 1_555
C5_4 C6_4 1_555 1_555
C6_4 C4_4 1_555 1_555
C7_4 C5_4 1_555 1_555
H3_4 C7_4 1_555 1_555
O3_3 C1_4 1_555 1_555
C8_4 C2_4 1_555 1_555
H4_4 C8_4 1_555 1_555
C9_4 C6_4 1_555 1_555
H5_4 C9_4 1_555 1_555
C10_4 C5_4 1_555 1_555
H6_4 C10_4 1_555 1_555
O4_4 C11_4 1_555 1_555
C11_4 C12_4 1_555 1_555
C12_4 C13_4 1_555 1_555
C13_4 H7_4 1_555 1_555
C14_4 C13_4 1_555 1_555
H8_4 C14_4 1_555 1_555
C15_4 C16_4 1_555 1_555
C16_4 C14_4 1_555 1_555
C17_4 C7_4 1_555 1_555
H9_4 C17_4 1_555 1_555
O5_4 C11_4 1_555 1_555
C18_4 C12_4 1_555 1_555
H10_4 C18_4 1_555 1_555
C19_4 C16_4 1_555 1_555
H11_4 C19_4 1_555 1_555
C20_4 C10_4 1_555 1_555
H12_4 C20_4 1_555 1_555
O6_4 Zr12_8 1_555 1_555
C21_4 O6_4 1_555 1_555
C22_4 C21_4 1_555 1_555
C23_4 C22_4 1_555 1_555
H13_4 C23_4 1_555 1_555
C24_4 C23_4 1_555 1_555
H14_4 C24_4 1_555 1_555
C25_4 C26_4 1_555 1_555
C26_4 C24_4 1_555 1_555
C27_4 C25_4 1_555 1_555
H15_4 C27_4 1_555 1_555
O8_3 C21_4 1_555 1_555
C28_4 C22_4 1_555 1_555
H16_4 C28_4 1_555 1_555
C29_4 C26_4 1_555 1_555
H17_4 C29_4 1_555 1_555
C30_4 C25_4 1_555 1_555
H18_4 C30_4 1_555 1_555
O9_4 C31_4 1_555 1_555
C31_4 C32_4 1_555 1_555
C32_4 C33_4 1_555 1_555
C33_4 H19_4 1_555 1_555
C34_4 C33_4 1_555 1_555
H20_4 C34_4 1_555 1_555
C35_4 C36_4 1_555 1_555
C36_4 C34_4 1_555 1_555
C37_4 C27_4 1_555 1_555
H21_4 C37_4 1_555 1_555
O10_4 C31_4 1_555 1_555
C38_4 C32_4 1_555 1_555
H22_4 C38_4 1_555 1_555
C39_4 C36_4 1_555 1_555
H23_4 C39_4 1_555 1_555
C40_4 C30_4 1_555 1_555
H24_4 C40_4 1_555 1_555
Zr2_4 O3_3 1_555 1_555
Zr3_4 O2_2 1_555 1_555
Zr11_5 O2_2 1_555 1_555
Zr8_4 O10_4 1_555 1_555
Zr8_6 O5_4 1_555 1_555
Zr11_4 O9_4 1_555 1_555
Zr11_2 O4_4 1_555 1_555
O17_3 Zr2_4 1_555 1_555
O18_3 Zr3_4 1_555 1_555
O27_2 Zr12_8 1_555 1_555
C8_4 C9_4 1_555 1_555
C15_4 C17_4 1_555 1_555
C15_4 C20_4 1_555 1_555
C18_4 C19_4 1_555 1_555
O8_3 Zr3_4 1_555 1_555
C28_4 C29_4 1_555 1_555
C35_4 C37_4 1_555 1_555
C35_4 C40_4 1_555 1_555
C38_4 C39_4 1_555 1_555
Zr2_4 O27_2 1_555 1_555
Zr11_5 O27_2 1_555 1_555
O12_2 Zr2_5 1_555 1_555
Zr12_6 O12_2 1_555 1_555
O17_4 Zr2_5 1_555 1_555
O18_4 Zr3_5 1_555 1_555
O22_3 Zr2_5 1_555 1_555
O23_3 Zr3_5 1_555 1_555
O24_2 Zr3_5 1_555 1_555
O12_2 Zr11_6 1_555 1_555
Zr12_6 O24_2 1_555 1_555
Zr11_6 O24_2 1_555 1_555
C41_11 O18_3 1_555 1_555
C42_11 C41_11 1_555 1_555
C43_11 C42_11 1_555 1_555
H25_11 C43_11 1_555 1_555
C44_11 C43_11 1_555 1_555
H26_11 C44_11 1_555 1_555
C45_11 C46_11 1_555 1_555
C46_11 C44_11 1_555 1_555
C47_11 C45_11 1_555 1_555
H27_11 C47_11 1_555 1_555
O13_7 C41_11 1_555 1_555
C48_11 C42_11 1_555 1_555
H28_11 C48_11 1_555 1_555
C49_11 C46_11 1_555 1_555
H29_11 C49_11 1_555 1_555
C50_11 C45_11 1_555 1_555
H30_11 C50_11 1_555 1_555
O14_11 C51_11 1_555 1_555
C51_11 C52_11 1_555 1_555
C52_11 C53_11 1_555 1_555
C53_11 H31_11 1_555 1_555
C54_11 C53_11 1_555 1_555
H32_11 C54_11 1_555 1_555
C55_11 C56_11 1_555 1_555
C56_11 C54_11 1_555 1_555
C57_11 C47_11 1_555 1_555
H33_11 C57_11 1_555 1_555
O15_11 C51_11 1_555 1_555
C58_11 C52_11 1_555 1_555
H34_11 C58_11 1_555 1_555
C59_11 C56_11 1_555 1_555
H35_11 C59_11 1_555 1_555
C60_11 C50_11 1_555 1_555
H36_11 C60_11 1_555 1_555
Zr9 O15_11 1_555 1_555
Zr12_13 O14_11 1_555 1_555
O13_7 Zr11_5 1_555 1_555
C48_11 C49_11 1_555 1_555
C55_11 C57_11 1_555 1_555
C55_11 C60_11 1_555 1_555
C58_11 C59_11 1_555 1_555
C41_12 O18_4 1_555 1_555
C42_12 C41_12 1_555 1_555
C43_12 C42_12 1_555 1_555
H25_12 C43_12 1_555 1_555
C44_12 C43_12 1_555 1_555
H26_12 C44_12 1_555 1_555
C45_12 C46_12 1_555 1_555
C46_12 C44_12 1_555 1_555
C47_12 C45_12 1_555 1_555
H27_12 C47_12 1_555 1_555
O13_8 C41_12 1_555 1_555
C48_12 C42_12 1_555 1_555
H28_12 C48_12 1_555 1_555
C49_12 C46_12 1_555 1_555
H29_12 C49_12 1_555 1_555
C50_12 C45_12 1_555 1_555
H30_12 C50_12 1_555 1_555
O14_12 C51_12 1_555 1_555
C51_12 C52_12 1_555 1_555
C52_12 C53_12 1_555 1_555
C53_12 H31_12 1_555 1_555
C54_12 C53_12 1_555 1_555
H32_12 C54_12 1_555 1_555
C55_12 C56_12 1_555 1_555
C56_12 C54_12 1_555 1_555
C57_12 C47_12 1_555 1_555
H33_12 C57_12 1_555 1_555
O15_12 C51_12 1_555 1_555
C58_12 C52_12 1_555 1_555
H34_12 C58_12 1_555 1_555
C59_12 C56_12 1_555 1_555
H35_12 C59_12 1_555 1_555
C60_12 C50_12 1_555 1_555
H36_12 C60_12 1_555 1_555
Zr9_2 O15_12 1_555 1_555
Zr12_14 O14_12 1_555 1_555
O13_8 Zr11_6 1_555 1_555
C48_12 C49_12 1_555 1_555
C55_12 C57_12 1_555 1_555
C55_12 C60_12 1_555 1_555
C58_12 C59_12 1_555 1_555
C41_13 O19_3 1_555 1_555
C42_13 C41_13 1_555 1_555
C43_13 C42_13 1_555 1_555
H25_13 C43_13 1_555 1_555
C44_13 C43_13 1_555 1_555
H26_13 C44_13 1_555 1_555
C45_13 C46_13 1_555 1_555
C46_13 C44_13 1_555 1_555
C47_13 C45_13 1_555 1_555
H27_13 C47_13 1_555 1_555
O13_9 C41_13 1_555 1_555
C48_13 C42_13 1_555 1_555
H28_13 C48_13 1_555 1_555
C49_13 C46_13 1_555 1_555
H29_13 C49_13 1_555 1_555
C50_13 C45_13 1_555 1_555
H30_13 C50_13 1_555 1_555
O14_13 C51_13 1_555 1_555
C51_13 C52_13 1_555 1_555
C52_13 C53_13 1_555 1_555
C53_13 H31_13 1_555 1_555
C54_13 C53_13 1_555 1_555
H32_13 C54_13 1_555 1_555
C55_13 C56_13 1_555 1_555
C56_13 C54_13 1_555 1_555
C57_13 C47_13 1_555 1_555
H33_13 C57_13 1_555 1_555
O15_13 C51_13 1_555 1_555
C58_13 C52_13 1_555 1_555
H34_13 C58_13 1_555 1_555
C59_13 C56_13 1_555 1_555
H35_13 C59_13 1_555 1_555
C60_13 C50_13 1_555 1_555
H36_13 C60_13 1_555 1_555
Zr9 O15_13 1_555 1_555
Zr12_9 O14_13 1_555 1_555
O13_9 Zr11_7 1_555 1_555
C48_13 C49_13 1_555 1_555
C55_13 C57_13 1_555 1_555
C55_13 C60_13 1_555 1_555
C58_13 C59_13 1_555 1_555
Zr12_5 O1_5 1_555 1_555
O1_5 C1_5 1_555 1_555
C1_5 C2_5 1_555 1_555
C2_5 C3_5 1_555 1_555
C3_5 H1_5 1_555 1_555
C4_5 C3_5 1_555 1_555
H2_5 C4_5 1_555 1_555
C5_5 C6_5 1_555 1_555
C6_5 C4_5 1_555 1_555
C7_5 C5_5 1_555 1_555
H3_5 C7_5 1_555 1_555
O23_2 C1_5 1_555 1_555
C8_5 C2_5 1_555 1_555
H4_5 C8_5 1_555 1_555
C9_5 C6_5 1_555 1_555
H5_5 C9_5 1_555 1_555
C10_5 C5_5 1_555 1_555
H6_5 C10_5 1_555 1_555
O4_5 C11_5 1_555 1_555
C11_5 C12_5 1_555 1_555
C12_5 C13_5 1_555 1_555
C13_5 H7_5 1_555 1_555
C14_5 C13_5 1_555 1_555
H8_5 C14_5 1_555 1_555
C15_5 C16_5 1_555 1_555
C16_5 C14_5 1_555 1_555
C17_5 C7_5 1_555 1_555
H9_5 C17_5 1_555 1_555
O5_5 C11_5 1_555 1_555
C18_5 C12_5 1_555 1_555
H10_5 C18_5 1_555 1_555
C19_5 C16_5 1_555 1_555
H11_5 C19_5 1_555 1_555
C20_5 C10_5 1_555 1_555
H12_5 C20_5 1_555 1_555
O6_5 Zr12_5 1_555 1_555
C21_5 O6_5 1_555 1_555
C22_5 C21_5 1_555 1_555
C23_5 C22_5 1_555 1_555
H13_5 C23_5 1_555 1_555
C24_5 C23_5 1_555 1_555
H14_5 C24_5 1_555 1_555
C25_5 C26_5 1_555 1_555
C26_5 C24_5 1_555 1_555
C27_5 C25_5 1_555 1_555
H15_5 C27_5 1_555 1_555
O22_2 C21_5 1_555 1_555
C28_5 C22_5 1_555 1_555
H16_5 C28_5 1_555 1_555
C29_5 C26_5 1_555 1_555
H17_5 C29_5 1_555 1_555
C30_5 C25_5 1_555 1_555
H18_5 C30_5 1_555 1_555
O9_5 C31_5 1_555 1_555
C31_5 C32_5 1_555 1_555
C32_5 C33_5 1_555 1_555
C33_5 H19_5 1_555 1_555
C34_5 C33_5 1_555 1_555
H20_5 C34_5 1_555 1_555
C35_5 C36_5 1_555 1_555
C36_5 C34_5 1_555 1_555
C37_5 C27_5 1_555 1_555
H21_5 C37_5 1_555 1_555
O10_5 C31_5 1_555 1_555
C38_5 C32_5 1_555 1_555
H22_5 C38_5 1_555 1_555
C39_5 C36_5 1_555 1_555
H23_5 C39_5 1_555 1_555
C40_5 C30_5 1_555 1_555
H24_5 C40_5 1_555 1_555
C41_14 O19_4 1_555 1_555
C42_14 C41_14 1_555 1_555
C43_14 C42_14 1_555 1_555
H25_14 C43_14 1_555 1_555
C44_14 C43_14 1_555 1_555
H26_14 C44_14 1_555 1_555
C45_14 C46_14 1_555 1_555
C46_14 C44_14 1_555 1_555
C47_14 C45_14 1_555 1_555
H27_14 C47_14 1_555 1_555
O13_10 C41_14 1_555 1_555
C48_14 C42_14 1_555 1_555
H28_14 C48_14 1_555 1_555
C49_14 C46_14 1_555 1_555
H29_14 C49_14 1_555 1_555
C50_14 C45_14 1_555 1_555
H30_14 C50_14 1_555 1_555
O14_14 C51_14 1_555 1_555
C51_14 C52_14 1_555 1_555
C52_14 C53_14 1_555 1_555
C53_14 H31_14 1_555 1_555
C54_14 C53_14 1_555 1_555
H32_14 C54_14 1_555 1_555
C55_14 C56_14 1_555 1_555
C56_14 C54_14 1_555 1_555
C57_14 C47_14 1_555 1_555
H33_14 C57_14 1_555 1_555
O15_14 C51_14 1_555 1_555
C58_14 C52_14 1_555 1_555
H34_14 C58_14 1_555 1_555
C59_14 C56_14 1_555 1_555
H35_14 C59_14 1_555 1_555
C60_14 C50_14 1_555 1_555
H36_14 C60_14 1_555 1_555
Zr7_5 O10_5 1_555 1_555
Zr7_3 O5_5 1_555 1_555
Zr11 O9_5 1_555 1_555
Zr11_3 O4_5 1_555 1_555
Zr9_2 O15_14 1_555 1_555
Zr12_10 O14_14 1_555 1_555
C8_5 C9_5 1_555 1_555
C15_5 C17_5 1_555 1_555
C15_5 C20_5 1_555 1_555
C18_5 C19_5 1_555 1_555
C28_5 C29_5 1_555 1_555
C35_5 C37_5 1_555 1_555
C35_5 C40_5 1_555 1_555
C38_5 C39_5 1_555 1_555
O13_10 Zr11_8 1_555 1_555
C48_14 C49_14 1_555 1_555
C55_14 C57_14 1_555 1_555
C55_14 C60_14 1_555 1_555
C58_14 C59_14 1_555 1_555
Zr12_6 O1_6 1_555 1_555
O1_6 C1_6 1_555 1_555
C1_6 C2_6 1_555 1_555
C2_6 C3_6 1_555 1_555
C3_6 H1_6 1_555 1_555
C4_6 C3_6 1_555 1_555
H2_6 C4_6 1_555 1_555
C5_6 C6_6 1_555 1_555
C6_6 C4_6 1_555 1_555
C7_6 C5_6 1_555 1_555
H3_6 C7_6 1_555 1_555
O23_3 C1_6 1_555 1_555
C8_6 C2_6 1_555 1_555
H4_6 C8_6 1_555 1_555
C9_6 C6_6 1_555 1_555
H5_6 C9_6 1_555 1_555
C10_6 C5_6 1_555 1_555
H6_6 C10_6 1_555 1_555
O4_6 C11_6 1_555 1_555
C11_6 C12_6 1_555 1_555
C12_6 C13_6 1_555 1_555
C13_6 H7_6 1_555 1_555
C14_6 C13_6 1_555 1_555
H8_6 C14_6 1_555 1_555
C15_6 C16_6 1_555 1_555
C16_6 C14_6 1_555 1_555
C17_6 C7_6 1_555 1_555
H9_6 C17_6 1_555 1_555
O5_6 C11_6 1_555 1_555
C18_6 C12_6 1_555 1_555
H10_6 C18_6 1_555 1_555
C19_6 C16_6 1_555 1_555
H11_6 C19_6 1_555 1_555
C20_6 C10_6 1_555 1_555
H12_6 C20_6 1_555 1_555
O6_6 Zr12_6 1_555 1_555
C21_6 O6_6 1_555 1_555
C22_6 C21_6 1_555 1_555
C23_6 C22_6 1_555 1_555
H13_6 C23_6 1_555 1_555
C24_6 C23_6 1_555 1_555
H14_6 C24_6 1_555 1_555
C25_6 C26_6 1_555 1_555
C26_6 C24_6 1_555 1_555
C27_6 C25_6 1_555 1_555
H15_6 C27_6 1_555 1_555
O22_3 C21_6 1_555 1_555
C28_6 C22_6 1_555 1_555
H16_6 C28_6 1_555 1_555
C29_6 C26_6 1_555 1_555
H17_6 C29_6 1_555 1_555
C30_6 C25_6 1_555 1_555
H18_6 C30_6 1_555 1_555
O9_6 C31_6 1_555 1_555
C31_6 C32_6 1_555 1_555
C32_6 C33_6 1_555 1_555
C33_6 H19_6 1_555 1_555
C34_6 C33_6 1_555 1_555
H20_6 C34_6 1_555 1_555
C35_6 C36_6 1_555 1_555
C36_6 C34_6 1_555 1_555
C37_6 C27_6 1_555 1_555
H21_6 C37_6 1_555 1_555
O10_6 C31_6 1_555 1_555
C38_6 C32_6 1_555 1_555
H22_6 C38_6 1_555 1_555
C39_6 C36_6 1_555 1_555
H23_6 C39_6 1_555 1_555
C40_6 C30_6 1_555 1_555
H24_6 C40_6 1_555 1_555
Zr7_6 O10_6 1_555 1_555
Zr7_4 O5_6 1_555 1_555
Zr11_2 O9_6 1_555 1_555
Zr11_4 O4_6 1_555 1_555
C8_6 C9_6 1_555 1_555
C15_6 C17_6 1_555 1_555
C15_6 C20_6 1_555 1_555
C18_6 C19_6 1_555 1_555
C28_6 C29_6 1_555 1_555
C35_6 C37_6 1_555 1_555
C35_6 C40_6 1_555 1_555
C38_6 C39_6 1_555 1_555
C41_15 O17_3 1_555 1_555
C42_15 C41_15 1_555 1_555
C43_15 C42_15 1_555 1_555
H25_15 C43_15 1_555 1_555
C44_15 C43_15 1_555 1_555
H26_15 C44_15 1_555 1_555
C45_15 C46_15 1_555 1_555
C46_15 C44_15 1_555 1_555
C47_15 C45_15 1_555 1_555
H27_15 C47_15 1_555 1_555
O13_11 C41_15 1_555 1_555
C48_15 C42_15 1_555 1_555
H28_15 C48_15 1_555 1_555
C49_15 C46_15 1_555 1_555
H29_15 C49_15 1_555 1_555
C50_15 C45_15 1_555 1_555
H30_15 C50_15 1_555 1_555
O14_15 C51_15 1_555 1_555
C51_15 C52_15 1_555 1_555
C52_15 C53_15 1_555 1_555
C53_15 H31_15 1_555 1_555
C54_15 C53_15 1_555 1_555
H32_15 C54_15 1_555 1_555
C55_15 C56_15 1_555 1_555
C56_15 C54_15 1_555 1_555
C57_15 C47_15 1_555 1_555
H33_15 C57_15 1_555 1_555
O15_15 C51_15 1_555 1_555
C58_15 C52_15 1_555 1_555
H34_15 C58_15 1_555 1_555
C59_15 C56_15 1_555 1_555
H35_15 C59_15 1_555 1_555
C60_15 C50_15 1_555 1_555
H36_15 C60_15 1_555 1_555
Zr10 O15_15 1_555 1_555
Zr12_15 O14_15 1_555 1_555
O13_11 Zr11_5 1_555 1_555
C48_15 C49_15 1_555 1_555
C55_15 C57_15 1_555 1_555
C55_15 C60_15 1_555 1_555
C58_15 C59_15 1_555 1_555
C41_16 O17_4 1_555 1_555
C42_16 C41_16 1_555 1_555
C43_16 C42_16 1_555 1_555
H25_16 C43_16 1_555 1_555
C44_16 C43_16 1_555 1_555
H26_16 C44_16 1_555 1_555
C45_16 C46_16 1_555 1_555
C46_16 C44_16 1_555 1_555
C47_16 C45_16 1_555 1_555
H27_16 C47_16 1_555 1_555
O13_12 C41_16 1_555 1_555
C48_16 C42_16 1_555 1_555
H28_16 C48_16 1_555 1_555
C49_16 C46_16 1_555 1_555
H29_16 C49_16 1_555 1_555
C50_16 C45_16 1_555 1_555
H30_16 C50_16 1_555 1_555
O14_16 C51_16 1_555 1_555
C51_16 C52_16 1_555 1_555
C52_16 C53_16 1_555 1_555
C53_16 H31_16 1_555 1_555
C54_16 C53_16 1_555 1_555
H32_16 C54_16 1_555 1_555
C55_16 C56_16 1_555 1_555
C56_16 C54_16 1_555 1_555
C57_16 C47_16 1_555 1_555
H33_16 C57_16 1_555 1_555
O15_16 C51_16 1_555 1_555
C58_16 C52_16 1_555 1_555
H34_16 C58_16 1_555 1_555
C59_16 C56_16 1_555 1_555
H35_16 C59_16 1_555 1_555
C60_16 C50_16 1_555 1_555
H36_16 C60_16 1_555 1_555
Zr10_2 O15_16 1_555 1_555
Zr12_16 O14_16 1_555 1_555
O13_12 Zr11_6 1_555 1_555
C48_16 C49_16 1_555 1_555
C55_16 C57_16 1_555 1_555
C55_16 C60_16 1_555 1_555
C58_16 C59_16 1_555 1_555
O7_3 Zr7 1_555 1_555
Zr12_13 O7_3 1_555 1_555
O20_3 Zr7 1_555 1_555
O21_3 Zr7 1_555 1_555
O27_3 Zr7 1_555 1_555
O7_3 Zr9 1_555 1_555
Zr9 O27_3 1_555 1_555
Zr12_9 O27_3 1_555 1_555
O12_3 Zr9_2 1_555 1_555
Zr8 O12_3 1_555 1_555
O25_3 Zr9_2 1_555 1_555
O12_3 Zr12_10 1_555 1_555
Zr8 O25_3 1_555 1_555
Zr12_14 O25_3 1_555 1_555
O2_3 Zr7_2 1_555 1_555
Zr10 O2_3 1_555 1_555
Zr12_11 O2_3 1_555 1_555
O20_4 Zr7_2 1_555 1_555
O21_4 Zr7_2 1_555 1_555
O26_3 Zr7_2 1_555 1_555
Zr10 O26_3 1_555 1_555
Zr12_15 O26_3 1_555 1_555
O16_3 Zr10_2 1_555 1_555
O24_3 Zr10_2 1_555 1_555
O16_3 Zr8_2 1_555 1_555
O16_3 Zr12_16 1_555 1_555
Zr8_2 O24_3 1_555 1_555
Zr12_12 O24_3 1_555 1_555
O20_5 Zr8 1_555 1_555
O21_5 Zr8 1_555 1_555
O20_6 Zr8_2 1_555 1_555
O21_6 Zr8_2 1_555 1_555
O11_5 Zr12_13 1_555 1_555
C41_17 O11_5 1_555 1_555
C42_17 C41_17 1_555 1_555
C43_17 C42_17 1_555 1_555
H25_17 C43_17 1_555 1_555
C44_17 C43_17 1_555 1_555
H26_17 C44_17 1_555 1_555
C45_17 C46_17 1_555 1_555
C46_17 C44_17 1_555 1_555
C47_17 C45_17 1_555 1_555
H27_17 C47_17 1_555 1_555
O21_3 C41_17 1_555 1_555
C48_17 C42_17 1_555 1_555
H28_17 C48_17 1_555 1_555
C49_17 C46_17 1_555 1_555
H29_17 C49_17 1_555 1_555
C50_17 C45_17 1_555 1_555
H30_17 C50_17 1_555 1_555
O14_17 C51_17 1_555 1_555
C51_17 C52_17 1_555 1_555
C52_17 C53_17 1_555 1_555
C53_17 H31_17 1_555 1_555
C54_17 C53_17 1_555 1_555
H32_17 C54_17 1_555 1_555
C55_17 C56_17 1_555 1_555
C56_17 C54_17 1_555 1_555
C57_17 C47_17 1_555 1_555
H33_17 C57_17 1_555 1_555
O15_17 C51_17 1_555 1_555
C58_17 C52_17 1_555 1_555
H34_17 C58_17 1_555 1_555
C59_17 C56_17 1_555 1_555
H35_17 C59_17 1_555 1_555
C60_17 C50_17 1_555 1_555
H36_17 C60_17 1_555 1_555
Zr12 O15_17 1_555 1_555
Zr8_4 O14_17 1_555 1_555
O19_5 Zr12_9 1_555 1_555
C48_17 C49_17 1_555 1_555
C55_17 C57_17 1_555 1_555
C55_17 C60_17 1_555 1_555
C58_17 C59_17 1_555 1_555
O17_5 Zr12_14 1_555 1_555
O18_5 Zr12_10 1_555 1_555
O11_6 Zr12_15 1_555 1_555
C41_18 O11_6 1_555 1_555
C42_18 C41_18 1_555 1_555
C43_18 C42_18 1_555 1_555
H25_18 C43_18 1_555 1_555
C44_18 C43_18 1_555 1_555
H26_18 C44_18 1_555 1_555
C45_18 C46_18 1_555 1_555
C46_18 C44_18 1_555 1_555
C47_18 C45_18 1_555 1_555
H27_18 C47_18 1_555 1_555
O21_4 C41_18 1_555 1_555
C48_18 C42_18 1_555 1_555
H28_18 C48_18 1_555 1_555
C49_18 C46_18 1_555 1_555
H29_18 C49_18 1_555 1_555
C50_18 C45_18 1_555 1_555
H30_18 C50_18 1_555 1_555
O14_18 C51_18 1_555 1_555
C51_18 C52_18 1_555 1_555
C52_18 C53_18 1_555 1_555
C53_18 H31_18 1_555 1_555
C54_18 C53_18 1_555 1_555
H32_18 C54_18 1_555 1_555
C55_18 C56_18 1_555 1_555
C56_18 C54_18 1_555 1_555
C57_18 C47_18 1_555 1_555
H33_18 C57_18 1_555 1_555
O15_18 C51_18 1_555 1_555
C58_18 C52_18 1_555 1_555
H34_18 C58_18 1_555 1_555
C59_18 C56_18 1_555 1_555
H35_18 C59_18 1_555 1_555
C60_18 C50_18 1_555 1_555
H36_18 C60_18 1_555 1_555
Zr12_2 O15_18 1_555 1_555
Zr8_6 O14_18 1_555 1_555
O19_6 Zr12_11 1_555 1_555
C48_18 C49_18 1_555 1_555
C55_18 C57_18 1_555 1_555
C55_18 C60_18 1_555 1_555
C58_18 C59_18 1_555 1_555
O17_6 Zr12_16 1_555 1_555
O18_6 Zr12_12 1_555 1_555
C41_19 O18_5 1_555 1_555
C42_19 C41_19 1_555 1_555
C43_19 C42_19 1_555 1_555
H25_19 C43_19 1_555 1_555
C44_19 C43_19 1_555 1_555
H26_19 C44_19 1_555 1_555
C45_19 C46_19 1_555 1_555
C46_19 C44_19 1_555 1_555
C47_19 C45_19 1_555 1_555
H27_19 C47_19 1_555 1_555
O20_5 C41_19 1_555 1_555
C48_19 C42_19 1_555 1_555
H28_19 C48_19 1_555 1_555
C49_19 C46_19 1_555 1_555
H29_19 C49_19 1_555 1_555
C50_19 C45_19 1_555 1_555
H30_19 C50_19 1_555 1_555
O14_19 C51_19 1_555 1_555
C51_19 C52_19 1_555 1_555
C52_19 C53_19 1_555 1_555
C53_19 H31_19 1_555 1_555
C54_19 C53_19 1_555 1_555
H32_19 C54_19 1_555 1_555
C55_19 C56_19 1_555 1_555
C56_19 C54_19 1_555 1_555
C57_19 C47_19 1_555 1_555
H33_19 C57_19 1_555 1_555
O15_19 C51_19 1_555 1_555
C58_19 C52_19 1_555 1_555
H34_19 C58_19 1_555 1_555
C59_19 C56_19 1_555 1_555
H35_19 C59_19 1_555 1_555
C60_19 C50_19 1_555 1_555
H36_19 C60_19 1_555 1_555
Zr12_3 O15_19 1_555 1_555
Zr7_3 O14_19 1_555 1_555
C48_19 C49_19 1_555 1_555
C55_19 C57_19 1_555 1_555
C55_19 C60_19 1_555 1_555
C58_19 C59_19 1_555 1_555
C41_20 O18_6 1_555 1_555
C42_20 C41_20 1_555 1_555
C43_20 C42_20 1_555 1_555
H25_20 C43_20 1_555 1_555
C44_20 C43_20 1_555 1_555
H26_20 C44_20 1_555 1_555
C45_20 C46_20 1_555 1_555
C46_20 C44_20 1_555 1_555
C47_20 C45_20 1_555 1_555
H27_20 C47_20 1_555 1_555
O20_6 C41_20 1_555 1_555
C48_20 C42_20 1_555 1_555
H28_20 C48_20 1_555 1_555
C49_20 C46_20 1_555 1_555
H29_20 C49_20 1_555 1_555
C50_20 C45_20 1_555 1_555
H30_20 C50_20 1_555 1_555
O14_20 C51_20 1_555 1_555
C51_20 C52_20 1_555 1_555
C52_20 C53_20 1_555 1_555
C53_20 H31_20 1_555 1_555
C54_20 C53_20 1_555 1_555
H32_20 C54_20 1_555 1_555
C55_20 C56_20 1_555 1_555
C56_20 C54_20 1_555 1_555
C57_20 C47_20 1_555 1_555
H33_20 C57_20 1_555 1_555
O15_20 C51_20 1_555 1_555
C58_20 C52_20 1_555 1_555
H34_20 C58_20 1_555 1_555
C59_20 C56_20 1_555 1_555
H35_20 C59_20 1_555 1_555
C60_20 C50_20 1_555 1_555
H36_20 C60_20 1_555 1_555
Zr12_4 O15_20 1_555 1_555
Zr7_5 O14_20 1_555 1_555
C48_20 C49_20 1_555 1_555
C55_20 C57_20 1_555 1_555
C55_20 C60_20 1_555 1_555
C58_20 C59_20 1_555 1_555
C41_21 O19_5 1_555 1_555
C42_21 C41_21 1_555 1_555
C43_21 C42_21 1_555 1_555
H25_21 C43_21 1_555 1_555
C44_21 C43_21 1_555 1_555
H26_21 C44_21 1_555 1_555
C45_21 C46_21 1_555 1_555
C46_21 C44_21 1_555 1_555
C47_21 C45_21 1_555 1_555
H27_21 C47_21 1_555 1_555
O20_3 C41_21 1_555 1_555
C48_21 C42_21 1_555 1_555
H28_21 C48_21 1_555 1_555
C49_21 C46_21 1_555 1_555
H29_21 C49_21 1_555 1_555
C50_21 C45_21 1_555 1_555
H30_21 C50_21 1_555 1_555
O14_21 C51_21 1_555 1_555
C51_21 C52_21 1_555 1_555
C52_21 C53_21 1_555 1_555
C53_21 H31_21 1_555 1_555
C54_21 C53_21 1_555 1_555
H32_21 C54_21 1_555 1_555
C55_21 C56_21 1_555 1_555
C56_21 C54_21 1_555 1_555
C57_21 C47_21 1_555 1_555
H33_21 C57_21 1_555 1_555
O15_21 C51_21 1_555 1_555
C58_21 C52_21 1_555 1_555
H34_21 C58_21 1_555 1_555
C59_21 C56_21 1_555 1_555
H35_21 C59_21 1_555 1_555
C60_21 C50_21 1_555 1_555
H36_21 C60_21 1_555 1_555
Zr12_3 O15_21 1_555 1_555
Zr8_3 O14_21 1_555 1_555
C48_21 C49_21 1_555 1_555
C55_21 C57_21 1_555 1_555
C55_21 C60_21 1_555 1_555
C58_21 C59_21 1_555 1_555
C41_22 O19_6 1_555 1_555
C42_22 C41_22 1_555 1_555
C43_22 C42_22 1_555 1_555
H25_22 C43_22 1_555 1_555
C44_22 C43_22 1_555 1_555
H26_22 C44_22 1_555 1_555
C45_22 C46_22 1_555 1_555
C46_22 C44_22 1_555 1_555
C47_22 C45_22 1_555 1_555
H27_22 C47_22 1_555 1_555
O20_4 C41_22 1_555 1_555
C48_22 C42_22 1_555 1_555
H28_22 C48_22 1_555 1_555
C49_22 C46_22 1_555 1_555
H29_22 C49_22 1_555 1_555
C50_22 C45_22 1_555 1_555
H30_22 C50_22 1_555 1_555
O14_22 C51_22 1_555 1_555
C51_22 C52_22 1_555 1_555
C52_22 C53_22 1_555 1_555
C53_22 H31_22 1_555 1_555
C54_22 C53_22 1_555 1_555
H32_22 C54_22 1_555 1_555
C55_22 C56_22 1_555 1_555
C56_22 C54_22 1_555 1_555
C57_22 C47_22 1_555 1_555
H33_22 C57_22 1_555 1_555
O15_22 C51_22 1_555 1_555
C58_22 C52_22 1_555 1_555
H34_22 C58_22 1_555 1_555
C59_22 C56_22 1_555 1_555
H35_22 C59_22 1_555 1_555
C60_22 C50_22 1_555 1_555
H36_22 C60_22 1_555 1_555
Zr12_4 O15_22 1_555 1_555
Zr8_5 O14_22 1_555 1_555
C48_22 C49_22 1_555 1_555
C55_22 C57_22 1_555 1_555
C55_22 C60_22 1_555 1_555
C58_22 C59_22 1_555 1_555
C41_23 O17_5 1_555 1_555
C42_23 C41_23 1_555 1_555
C43_23 C42_23 1_555 1_555
H25_23 C43_23 1_555 1_555
C44_23 C43_23 1_555 1_555
H26_23 C44_23 1_555 1_555
C45_23 C46_23 1_555 1_555
C46_23 C44_23 1_555 1_555
C47_23 C45_23 1_555 1_555
H27_23 C47_23 1_555 1_555
O21_5 C41_23 1_555 1_555
C48_23 C42_23 1_555 1_555
H28_23 C48_23 1_555 1_555
C49_23 C46_23 1_555 1_555
H29_23 C49_23 1_555 1_555
C50_23 C45_23 1_555 1_555
H30_23 C50_23 1_555 1_555
O14_23 C51_23 1_555 1_555
C51_23 C52_23 1_555 1_555
C52_23 C53_23 1_555 1_555
C53_23 H31_23 1_555 1_555
C54_23 C53_23 1_555 1_555
H32_23 C54_23 1_555 1_555
C55_23 C56_23 1_555 1_555
C56_23 C54_23 1_555 1_555
C57_23 C47_23 1_555 1_555
H33_23 C57_23 1_555 1_555
O15_23 C51_23 1_555 1_555
C58_23 C52_23 1_555 1_555
H34_23 C58_23 1_555 1_555
C59_23 C56_23 1_555 1_555
H35_23 C59_23 1_555 1_555
C60_23 C50_23 1_555 1_555
H36_23 C60_23 1_555 1_555
Zr12 O15_23 1_555 1_555
Zr7_4 O14_23 1_555 1_555
C48_23 C49_23 1_555 1_555
C55_23 C57_23 1_555 1_555
C55_23 C60_23 1_555 1_555
C58_23 C59_23 1_555 1_555
C41_24 O17_6 1_555 1_555
C42_24 C41_24 1_555 1_555
C43_24 C42_24 1_555 1_555
H25_24 C43_24 1_555 1_555
C44_24 C43_24 1_555 1_555
H26_24 C44_24 1_555 1_555
C45_24 C46_24 1_555 1_555
C46_24 C44_24 1_555 1_555
C47_24 C45_24 1_555 1_555
H27_24 C47_24 1_555 1_555
O21_6 C41_24 1_555 1_555
C48_24 C42_24 1_555 1_555
H28_24 C48_24 1_555 1_555
C49_24 C46_24 1_555 1_555
H29_24 C49_24 1_555 1_555
C50_24 C45_24 1_555 1_555
H30_24 C50_24 1_555 1_555
O14_24 C51_24 1_555 1_555
C51_24 C52_24 1_555 1_555
C52_24 C53_24 1_555 1_555
C53_24 H31_24 1_555 1_555
C54_24 C53_24 1_555 1_555
H32_24 C54_24 1_555 1_555
C55_24 C56_24 1_555 1_555
C56_24 C54_24 1_555 1_555
C57_24 C47_24 1_555 1_555
H33_24 C57_24 1_555 1_555
O15_24 C51_24 1_555 1_555
C58_24 C52_24 1_555 1_555
H34_24 C58_24 1_555 1_555
C59_24 C56_24 1_555 1_555
H35_24 C59_24 1_555 1_555
C60_24 C50_24 1_555 1_555
H36_24 C60_24 1_555 1_555
Zr12_2 O15_24 1_555 1_555
Zr7_6 O14_24 1_555 1_555
C48_24 C49_24 1_555 1_555
C55_24 C57_24 1_555 1_555
C55_24 C60_24 1_555 1_555
C58_24 C59_24 1_555 1_555
O7_4 Zr7_3 1_555 1_555
Zr12_3 O7_4 1_555 1_555
O25_4 Zr11_3 1_555 1_555
O7_4 Zr11_3 1_555 1_555
Zr8_3 O25_4 1_555 1_555
Zr12_3 O25_4 1_555 1_555
O12_4 Zr11_4 1_555 1_555
Zr8_4 O12_4 1_555 1_555
O27_4 Zr7_4 1_555 1_555
Zr11_4 O27_4 1_555 1_555
O12_4 Zr12 1_555 1_555
Zr12 O27_4 1_555 1_555
O16_4 Zr11 1_555 1_555
O26_4 Zr7_5 1_555 1_555
Zr11 O26_4 1_555 1_555
O16_4 Zr8_5 1_555 1_555
O16_4 Zr12_4 1_555 1_555
Zr12_4 O26_4 1_555 1_555
O2_4 Zr7_6 1_555 1_555
Zr11_2 O2_4 1_555 1_555
Zr12_2 O2_4 1_555 1_555
O24_4 Zr11_2 1_555 1_555
Zr8_6 O24_4 1_555 1_555
Zr12_2 O24_4 1_555 1_555

#END
