
###############################################################################
#
# This file contains modified crystal structure data generated from the
# MOF subset of the Cambridge Structural Database (CSD) v543 
# hosted by the Cambridge Crystallographic Data Centre (CCDC).
#
# This work is licensed under the Creative Commons
# Attribution-NonCommercial-ShareAlike 4.0 International License.
# To view a copy of this license, visit
# http://creativecommons.org/licenses/by-nc-sa/4.0/
# or send a letter to
# Creative Commons, PO Box 1866, Mountain View, CA 94042, USA.
#
# CIF created using the CSD Python API on 29 September 2022
# The structure has been converted into the P1 space group
# The structure has a 3D framework
# The original CSD entry UVANOW is in the monoclinic crystal system
# The framework has been calculated to contain at least 10.0% void space
# The void calculation uses a probe of radius 1.32A, grid spacing 0.4
#
###############################################################################

data_UVANOW
_chemical_formula_moiety         '(C312 H168 Ag16 N72 O36)n'
_symmetry_cell_setting           triclinic
_symmetry_space_group_name_H-M   'P 1'
_symmetry_Int_Tables_number      1
_space_group_name_Hall           'P 1'
loop_
_symmetry_equiv_pos_site_id
_symmetry_equiv_pos_as_xyz
1 x,y,z
_cell_length_a                   33.463(4)
_cell_length_b                   18.874(2)
_cell_length_c                   20.335(3)
_cell_angle_alpha                90
_cell_angle_beta                 92.333(2)
_cell_angle_gamma                90
_cell_volume                     12832.5
loop_
_atom_site_label
_atom_site_type_symbol
_atom_site_fract_x
_atom_site_fract_y
_atom_site_fract_z
C18 C 0.0219(3) 0.2670(6) 0.4619(5)
H6 H 0.0356 0.2848 0.4253
C19 C 0.0417(3) 0.2240(6) 0.5075(6)
C20 C 0.0215(3) 0.1974(6) 0.5618(6)
H7 H 0.0354 0.1689 0.5937
C23 C 0.0832(4) 0.2079(7) 0.4993(6)
N5 N 0.1158(3) 0.1975(6) 0.4929(7)
Ag9 Ag 0.18042(3) 0.13491(5) 0.51773(5)
Ag1 Ag 0.07408(3) 0.87922(5) 0.22528(4)
N2 N 0.0254(3) 0.9615(6) 0.2393(6)
N19 N 0.0851(4) 0.7542(5) 0.2062(6)
N20 N 0.0535(3) 0.8746(6) 0.1063(6)
N22 N 0.0566(3) 0.8364(5) 0.3332(5)
N23 N 0.1407(3) 0.8948(6) 0.2007(5)
Ag4 Ag 0.66292(3) 0.17132(5) 0.53828(4)
C1 C 0.8654(3) 0.1672(6) 0.4120(5)
C2 C 0.8968(3) 0.1854(5) 0.4535(4)
H1 H 0.9196 0.1559 0.4606
C3 C 0.8928(3) 0.2498(5) 0.4843(5)
C4 C 0.8616(3) 0.2959(6) 0.4735(5)
H2 H 0.8607 0.3410 0.4941
C5 C 0.8321(3) 0.2726(6) 0.4312(5)
C6 C 0.8333(3) 0.2094(6) 0.3970(5)
H3 H 0.8131 0.1963 0.3651
C7 C 0.8975(3) 0.0781(5) 0.3474(5)
C8 C 0.9236(3) 0.1196(5) 0.3128(5)
C9 C 0.9565(3) 0.0899(6) 0.2826(6)
H4 H 0.9746 0.1187 0.2595
C10 C 0.9622(3) 0.0157(6) 0.2875(5)
C12 C 0.9025(3) 0.0047(5) 0.3476(5)
C13 C 0.9192(4) 0.1947(6) 0.2992(6)
C16 C 0.9613(3) 0.2551(5) 0.5221(5)
C17 C 0.9822(3) 0.2842(6) 0.4692(6)
C21 C 0.9819(3) 0.2126(6) 0.5689(6)
C22 C 0.9626(3) 0.3367(8) 0.4264(6)
C24 C 0.9599(3) 0.1849(6) 0.6235(6)
C25 C 0.7763(3) 0.3129(6) 0.3658(5)
C26 C 0.7894(3) 0.3391(6) 0.3055(6)
C27 C 0.7656(3) 0.3354(6) 0.2497(6)
H8 H 0.7747 0.3541 0.2096
C28 C 0.7282(3) 0.3043(6) 0.2518(6)
C29 C 0.7138(3) 0.2786(6) 0.3092(6)
H9 H 0.6878 0.2584 0.3098
C30 C 0.7378(3) 0.2825(6) 0.3668(6)
C31 C 0.8285(3) 0.3723(6) 0.3034(5)
C32 C 0.7037(4) 0.2997(7) 0.1913(7)
C33 C 0.7236(3) 0.2543(6) 0.4278(6)
C51 C 0.5438(3) 0.0270(6) 0.6815(5)
H15 H 0.5374 0.0751 0.6720
C55 C 0.6094(4) 0.0429(6) 0.6315(6)
C56 C 0.4789(4) 0.0132(7) 0.7274(6)
H19 H 0.8558 0.0357 0.5654
H21 H 0.9028 0.0338 0.6473
C72 C 0.7590(4) 0.0411(9) 0.4823(7)
H29 H 0.7464 0.0857 0.4664
H30 H 0.7883 0.0481 0.4874
C73 C 0.7417(5) 0.0174(9) 0.5469(9)
H31 H 0.7165 0.0429 0.5553
H32 H 0.7610 0.0252 0.5844
N1 N 0.9149(4) 0.2542(5) 0.2938(6)
N4 N 0.9465(3) 0.3746(6) 0.3937(6)
N6 N 0.9434(3) 0.1636(5) 0.6668(5)
N7 N 0.8593(3) 0.3948(6) 0.2993(5)
N8 N 0.6874(3) 0.2987(7) 0.1420(6)
N9 N 0.7102(3) 0.2304(6) 0.4725(6)
N13 N 0.6316(3) 0.0725(6) 0.6031(6)
N14 N 0.4490(3) 0.0385(6) 0.7394(5)
O1 O 0.8656(2) 0.1017(4) 0.3781(4)
O2 O 0.9225(2) 0.2720(4) 0.5319(4)
O3 O 0.7990(2) 0.3188(4) 0.4217(4)
C75 C 0.6334(5) 0.0269(9) 0.4472(9)
H35 H 0.6080 0.0353 0.4692
C76 C 0.6255(7) 0.0057(11) 0.3756(10)
C77 C 0.6253(9) 0.0717(12) 0.3416(10)
H39 H 0.5977 0.0908 0.3375
H40 H 0.6354 0.0655 0.2969
C78 C 0.6516(6) 0.1207(10) 0.3809(8)
H41 H 0.6779 0.1255 0.3606
H42 H 0.6392 0.1682 0.3834
O9 O 0.6562(3) 0.0906(5) 0.4438(4)
Ag5 Ag 0.92592(3) 0.37922(5) 0.27472(4)
Ag6 Ag 0.92592(3) 0.12078(5) 0.77472(4)
Ag7 Ag 0.40420(3) 0.13310(5) 0.74460(5)
Ag11 Ag 0.66292(3) 0.32868(5) 0.03828(4)
N24 N 0.6874(3) 0.2013(7) 0.6420(6)
N26 N 0.6021(3) 0.2212(7) 0.5063(7)
Ag2 Ag 0.59580(3) 0.63310(5) 0.75540(5)
Ag3 Ag 0.81958(3) 0.86509(5) 0.48227(5)
C11 C 0.9353(3) 0.9734(6) 0.3177(5)
H5 H 0.9387 0.9234 0.3185
C14 C 0.9974(4) 0.9858(6) 0.2604(6)
C15 C 0.8742(3) 0.9624(6) 0.3788(6)
C34 C 0.6815(3) 0.7607(6) 0.6132(6)
C35 C 0.6725(3) 0.8173(6) 0.6495(6)
H10 H 0.6897 0.8333 0.6848
C36 C 0.6372(3) 0.8511(6) 0.6329(6)
C37 C 0.6099(3) 0.8265(6) 0.5874(6)
H11 H 0.5846 0.8485 0.5799
C38 C 0.6211(3) 0.7687(7) 0.5532(6)
C39 C 0.6565(3) 0.7327(6) 0.5649(5)
H12 H 0.6631 0.6913 0.5411
C40 C 0.7264(3) 0.6628(6) 0.6054(6)
C41 C 0.7545(4) 0.6563(6) 0.5558(6)
C42 C 0.7641(4) 0.5878(7) 0.5329(7)
H13 H 0.7832 0.5823 0.4999
C43 C 0.7458(5) 0.5290(7) 0.5587(6)
C44 C 0.7189(4) 0.5376(7) 0.6098(6)
H14 H 0.7073 0.4969 0.6290
C45 C 0.7092(3) 0.6024(6) 0.6317(6)
C46 C 0.7718(4) 0.7177(7) 0.5296(7)
C47 C 0.7525(6) 0.4598(9) 0.5335(7)
C48 C 0.6816(3) 0.6085(6) 0.6834(6)
C49 C 0.5914(3) 0.9310(7) 0.6816(6)
C50 C 0.5813(3) 0.9995(6) 0.6651(5)
C52 C 0.5165(3) 0.9839(6) 0.7114(6)
C53 C 0.5261(3) 0.9142(7) 0.7265(6)
H16 H 0.5070 0.8843 0.7458
C54 C 0.5625(4) 0.8890(7) 0.7139(7)
C57 C 0.5730(5) 0.8159(9) 0.7344(8)
C58 C 0.5558(3) 0.7493(7) 0.5027(6)
C59 C 0.5334(4) 0.7166(8) 0.5507(6)
C60 C 0.4925(4) 0.7228(8) 0.5482(7)
H17 H 0.4769 0.6995 0.5797
C61 C 0.4740(3) 0.7645(7) 0.4979(7)
C62 C 0.4962(3) 0.7918(6) 0.4478(6)
H18 H 0.4834 0.8145 0.4110
C63 C 0.5366(3) 0.7854(6) 0.4525(6)
C64 C 0.5519(4) 0.6673(10) 0.5985(8)
C65 C 0.4316(4) 0.7721(7) 0.4947(8)
C66 C 0.5610(5) 0.8156(7) 0.4023(7)
C67 C 0.8682(4) 0.9884(7) 0.5716(7)
H20 H 0.8846 0.9779 0.5333
C68 C 0.8934(5) 0.9859(9) 0.6344(8)
H22 H 0.9168 0.9546 0.6297
C69 C 0.8657(4) 0.9565(8) 0.6839(8)
H23 H 0.8473 0.9930 0.7001
H24 H 0.8805 0.9344 0.7217
C70 C 0.8440(5) 0.9020(8) 0.6412(8)
H25 H 0.8604 0.8586 0.6375
H26 H 0.8182 0.8890 0.6602
C71 C 0.7489(5) 0.9801(8) 0.4356(7)
H27 H 0.7217 0.9856 0.4156
H28 H 0.7683 0.9777 0.4001
C74 C 0.7339(5) 0.9381(9) 0.5356(8)
H33 H 0.7462 0.9100 0.5722
H34 H 0.7048 0.9284 0.5331
N3 N 0.8512(3) 0.9278(5) 0.4067(5)
N10 N 0.7860(3) 0.7656(6) 0.5067(6)
N11 N 0.7543(6) 0.4055(7) 0.5089(7)
N12 N 0.6583(3) 0.6175(5) 0.7215(5)
N15 N 0.5829(5) 0.7596(8) 0.7411(10)
N16 N 0.5691(4) 0.6373(10) 0.6378(8)
N17 N 0.3979(3) 0.7788(7) 0.4937(7)
N18 N 0.5813(4) 0.8382(6) 0.3638(6)
O4 O 0.7191(2) 0.7300(4) 0.6291(4)
O5 O 0.6294(2) 0.9105(4) 0.6715(5)
O6 O 0.5965(2) 0.7388(5) 0.5012(4)
O7 O 0.8375(3) 0.9343(5) 0.5788(5)
O8 O 0.7515(3) 0.9201(5) 0.4749(5)
H36 H 0.6487 0.9896 0.4715
H37 H 0.6469 0.9743 0.3602
H38 H 0.5995 0.9812 0.3696
Ag8 Ag 0.59580(3) 0.86690(5) 0.25540(5)
Ag10 Ag 0.33708(3) 0.82868(5) 0.46172(4)
N21 N 0.8842(3) 0.8025(6) 0.5071(7)
N25 N 0.5510(3) 0.5385(6) 0.7606(5)
N27 N 0.5813(4) 0.6618(6) 0.8638(6)
Ag3_2 Ag 0.18042(3) 0.36509(5) 0.01773(5)
C1_2 C 0.1346(3) 0.6672(6) 0.0880(5)
C2_2 C 0.1032(3) 0.6854(5) 0.0465(4)
H1_2 H 0.0804 0.6559 0.0394
C3_2 C 0.1072(3) 0.7498(5) 0.0157(5)
C4_2 C 0.1384(3) 0.7959(6) 0.0265(5)
H2_2 H 0.1393 0.8410 0.0059
C5_2 C 0.1679(3) 0.7726(6) 0.0688(5)
C6_2 C 0.1667(3) 0.7094(6) 0.1030(5)
H3_2 H 0.1869 0.6963 0.1349
C7_2 C 0.1025(3) 0.5781(5) 0.1526(5)
C8_2 C 0.0764(3) 0.6196(5) 0.1872(5)
C9_2 C 0.0435(3) 0.5899(6) 0.2174(6)
H4_2 H 0.0254 0.6187 0.2405
C10_2 C 0.0378(3) 0.5157(6) 0.2125(5)
C11_2 C 0.0647(3) 0.4734(6) 0.1823(5)
H5_2 H 0.0613 0.4234 0.1815
C12_2 C 0.0975(3) 0.5047(5) 0.1524(5)
C13_2 C 0.0808(4) 0.6947(6) 0.2008(6)
C14_2 C 0.0026(4) 0.4858(6) 0.2396(6)
C15_2 C 0.1258(3) 0.4624(6) 0.1212(6)
C17_2 C 0.0178(3) 0.7842(6) 0.0308(6)
C22_2 C 0.0374(3) 0.8367(8) 0.0736(6)
C25_2 C 0.2237(3) 0.8129(6) 0.1342(5)
C26_2 C 0.2106(3) 0.8391(6) 0.1945(6)
C27_2 C 0.2344(3) 0.8354(6) 0.2503(6)
H8_2 H 0.2253 0.8541 0.2904
C28_2 C 0.2718(3) 0.8043(6) 0.2482(6)
C29_2 C 0.2862(3) 0.7786(6) 0.1908(6)
H9_2 H 0.3122 0.7584 0.1902
C30_2 C 0.2622(3) 0.7825(6) 0.1332(6)
C31_2 C 0.1715(3) 0.8723(6) 0.1966(5)
C32_2 C 0.2963(4) 0.7997(7) 0.3087(7)
C33_2 C 0.2764(3) 0.7543(6) 0.0722(6)
H13_2 H 0.2168 0.0823 0.0001
C61_2 C 0.5260(3) 0.2645(7) 0.0021(7)
C62_2 C 0.5038(3) 0.2918(6) 0.0522(6)
H18_2 H 0.5166 0.3145 0.0890
C63_2 C 0.4634(3) 0.2854(6) 0.0475(6)
C65_2 C 0.5684(4) 0.2721(7) 0.0053(8)
C66_2 C 0.4390(5) 0.3156(7) 0.0977(7)
C71_2 C 0.2511(5) 0.4801(8) 0.0644(7)
H27_2 H 0.2783 0.4856 0.0844
H28_2 H 0.2317 0.4777 0.0999
C72_2 C 0.2410(4) 0.5411(9) 0.0177(7)
H29_2 H 0.2536 0.5857 0.0336
H30_2 H 0.2117 0.5481 0.0126
N3_2 N 0.1488(3) 0.4278(5) 0.0933(5)
N8_2 N 0.3126(3) 0.7987(7) 0.3580(6)
N9_2 N 0.2898(3) 0.7304(6) 0.0275(6)
N17_2 N 0.6021(3) 0.2788(7) 0.0063(7)
N18_2 N 0.4187(4) 0.3382(6) 0.1362(6)
O1_2 O 0.1344(2) 0.6017(4) 0.1219(4)
O3_2 O 0.2010(2) 0.8188(4) 0.0783(4)
O8_2 O 0.2485(3) 0.4201(5) 0.0251(5)
C75_2 C 0.3666(5) 0.5269(9) 0.0528(9)
H35_2 H 0.3920 0.5353 0.0308
H36_2 H 0.3513 0.4896 0.0285
C76_2 C 0.3745(7) 0.5057(11) 0.1244(10)
H37_2 H 0.3531 0.4743 0.1398
H38_2 H 0.4005 0.4812 0.1304
C77_2 C 0.3747(9) 0.5717(12) 0.1584(10)
H39_2 H 0.4023 0.5908 0.1625
H40_2 H 0.3646 0.5655 0.2031
C78_2 C 0.3484(6) 0.6207(10) 0.1191(8)
H41_2 H 0.3221 0.6255 0.1394
H42_2 H 0.3608 0.6682 0.1166
O9_2 O 0.3438(3) 0.5906(5) 0.0562(4)
Ag8_2 Ag 0.40420(3) 0.36690(5) 0.24460(5)
Ag4_2 Ag 0.33708(3) 0.67132(5) 0.96172(4)
C16_2 C 0.0387(3) 0.7551(5) 0.9779(5)
C21_2 C 0.0181(3) 0.7126(6) 0.9311(6)
C24_2 C 0.0401(3) 0.6849(6) 0.8765(6)
C34_2 C 0.3185(3) 0.2607(6) 0.8868(6)
C35_2 C 0.3275(3) 0.3173(6) 0.8505(6)
H10_2 H 0.3103 0.3333 0.8152
C36_2 C 0.3628(3) 0.3511(6) 0.8671(6)
C37_2 C 0.3901(3) 0.3265(6) 0.9126(6)
H11_2 H 0.4154 0.3485 0.9201
C38_2 C 0.3789(3) 0.2687(7) 0.9468(6)
C39_2 C 0.3435(3) 0.2327(6) 0.9351(5)
H12_2 H 0.3369 0.1913 0.9589
C40_2 C 0.2736(3) 0.1628(6) 0.8946(6)
C41_2 C 0.2455(4) 0.1563(6) 0.9442(6)
C42_2 C 0.2359(4) 0.0878(7) 0.9671(7)
C43_2 C 0.2542(5) 0.0290(7) 0.9413(6)
C44_2 C 0.2811(4) 0.0376(7) 0.8902(6)
C45_2 C 0.2908(3) 0.1024(6) 0.8683(6)
C46_2 C 0.2282(4) 0.2177(7) 0.9704(7)
C48_2 C 0.3184(3) 0.1085(6) 0.8166(6)
C49_2 C 0.4086(3) 0.4310(7) 0.8184(6)
C50_2 C 0.4187(3) 0.4995(6) 0.8349(5)
C51_2 C 0.4562(3) 0.5270(6) 0.8185(5)
H15_2 H 0.4626 0.5751 0.8280
C52_2 C 0.4835(3) 0.4839(6) 0.7886(6)
C53_2 C 0.4739(3) 0.4142(7) 0.7735(6)
H16_2 H 0.4930 0.3843 0.7542
C54_2 C 0.4375(4) 0.3890(7) 0.7861(7)
C55_2 C 0.3906(4) 0.5429(6) 0.8685(6)
C56_2 C 0.5211(4) 0.5132(7) 0.7726(6)
C57_2 C 0.4270(5) 0.3159(9) 0.7656(8)
C58_2 C 0.4442(3) 0.2493(7) 0.9973(6)
C59_2 C 0.4666(4) 0.2166(8) 0.9493(6)
C60_2 C 0.5075(4) 0.2228(8) 0.9518(7)
H17_2 H 0.5231 0.1995 0.9203
C64_2 C 0.4481(4) 0.1673(10) 0.9015(8)
C67_2 C 0.1318(4) 0.4884(7) 0.9284(7)
H19_2 H 0.1442 0.5357 0.9346
H20_2 H 0.1154 0.4779 0.9667
C68_2 C 0.1066(5) 0.4859(9) 0.8656(8)
H21_2 H 0.0972 0.5338 0.8527
H22_2 H 0.0832 0.4546 0.8703
C69_2 C 0.1343(4) 0.4565(8) 0.8161(8)
H23_2 H 0.1527 0.4930 0.7999
H24_2 H 0.1195 0.4344 0.7783
C70_2 C 0.1560(5) 0.4020(8) 0.8588(8)
H25_2 H 0.1396 0.3586 0.8625
H26_2 H 0.1818 0.3890 0.8398
C73_2 C 0.2583(5) 0.5174(9) 0.9531(9)
H31_2 H 0.2835 0.5429 0.9447
H32_2 H 0.2390 0.5252 0.9156
C74_2 C 0.2661(5) 0.4381(9) 0.9644(8)
H33_2 H 0.2538 0.4100 0.9278
H34_2 H 0.2952 0.4284 0.9669
N6_2 N 0.0566(3) 0.6636(5) 0.8332(5)
N10_2 N 0.2140(3) 0.2656(6) 0.9933(6)
N12_2 N 0.3417(3) 0.1175(5) 0.7785(5)
N13_2 N 0.3684(3) 0.5725(6) 0.8969(6)
N15_2 N 0.4171(5) 0.2596(8) 0.7589(10)
N16_2 N 0.4309(4) 0.1373(10) 0.8622(8)
O2_2 O 0.0775(2) 0.7720(4) 0.9681(4)
O4_2 O 0.2809(2) 0.2300(4) 0.8709(4)
O5_2 O 0.3706(2) 0.4105(4) 0.8285(5)
O6_2 O 0.4035(2) 0.2388(5) 0.9988(4)
O7_2 O 0.1625(3) 0.4343(5) 0.9212(5)
Ag6_2 Ag 0.07408(3) 0.62078(5) 0.72528(4)
N21_2 N 0.1158(3) 0.3025(6) 0.9929(7)
N24_2 N 0.3126(3) 0.7013(7) 0.8580(6)
N26_2 N 0.3979(3) 0.7212(7) 0.9937(7)
N27_2 N 0.4187(4) 0.1618(6) 0.6362(6)
C18_2 C 0.9781(3) 0.7670(6) 0.0381(5)
H6_2 H 0.9644 0.7848 0.0747
C23_2 C 0.9168(4) 0.7079(7) 0.0007(6)
N2_2 N 0.9746(3) 0.4615(6) 0.2607(6)
N5_2 N 0.8842(3) 0.6975(6) 0.0071(7)
N22_2 N 0.9434(3) 0.3364(5) 0.1668(5)
C19_2 C 0.9583(3) 0.7240(6) 0.9925(6)
C20_2 C 0.9785(3) 0.6974(6) 0.9382(6)
H7_2 H 0.9646 0.6689 0.9063
Ag9_2 Ag 0.81958(3) 0.63491(5) 0.98227(5)
C11_3 C 0.0647(3) 0.0266(6) 0.6823(5)
H5_3 H 0.0613 0.0766 0.6815
C14_3 C 0.0026(4) 0.0142(6) 0.7396(6)
C15_3 C 0.1258(3) 0.0376(6) 0.6212(6)
C34_3 C 0.3185(3) 0.2393(6) 0.3868(6)
C35_3 C 0.3275(3) 0.1827(6) 0.3505(6)
H10_3 H 0.3103 0.1667 0.3152
C36_3 C 0.3628(3) 0.1489(6) 0.3671(6)
C37_3 C 0.3901(3) 0.1735(6) 0.4126(6)
H11_3 H 0.4154 0.1515 0.4201
C38_3 C 0.3789(3) 0.2313(7) 0.4468(6)
C39_3 C 0.3435(3) 0.2673(6) 0.4351(5)
H12_3 H 0.3369 0.3087 0.4589
C40_3 C 0.2736(3) 0.3372(6) 0.3946(6)
C41_3 C 0.2455(4) 0.3437(6) 0.4442(6)
C42_3 C 0.2359(4) 0.4122(7) 0.4671(7)
H13_3 H 0.2168 0.4177 0.5001
C43_3 C 0.2542(5) 0.4710(7) 0.4413(6)
C44_3 C 0.2811(4) 0.4624(7) 0.3902(6)
H14_2 H 0.2927 0.5031 0.3710
C45_3 C 0.2908(3) 0.3976(6) 0.3683(6)
C46_3 C 0.2282(4) 0.2823(7) 0.4704(7)
C47_2 C 0.2475(6) 0.5402(9) 0.4665(7)
C48_3 C 0.3184(3) 0.3915(6) 0.3166(6)
C49_3 C 0.4086(3) 0.0690(7) 0.3184(6)
C50_3 C 0.4187(3) 0.0005(6) 0.3349(5)
C52_3 C 0.4835(3) 0.0161(6) 0.2886(6)
C53_3 C 0.4739(3) 0.0858(7) 0.2735(6)
H16_3 H 0.4930 0.1157 0.2542
C54_3 C 0.4375(4) 0.1110(7) 0.2861(7)
C57_3 C 0.4270(5) 0.1841(9) 0.2656(8)
C58_3 C 0.4442(3) 0.2507(7) 0.4973(6)
C59_3 C 0.4666(4) 0.2834(8) 0.4493(6)
C60_3 C 0.5075(4) 0.2772(8) 0.4518(7)
H17_3 H 0.5231 0.3005 0.4203
C61_3 C 0.5260(3) 0.2355(7) 0.5021(7)
C62_3 C 0.5038(3) 0.2082(6) 0.5522(6)
H18_3 H 0.5166 0.1855 0.5890
C63_3 C 0.4634(3) 0.2146(6) 0.5475(6)
C64_3 C 0.4481(4) 0.3327(10) 0.4015(8)
C65_3 C 0.5684(4) 0.2279(7) 0.5053(8)
C66_3 C 0.4390(5) 0.1844(7) 0.5977(7)
C67_3 C 0.1318(4) 0.0116(7) 0.4284(7)
H20_3 H 0.1154 0.0221 0.4667
C68_3 C 0.1066(5) 0.0141(9) 0.3656(8)
H22_3 H 0.0832 0.0454 0.3703
C69_3 C 0.1343(4) 0.0435(8) 0.3161(8)
H23_3 H 0.1527 0.0070 0.2999
H24_3 H 0.1195 0.0656 0.2783
C70_3 C 0.1560(5) 0.0980(8) 0.3588(8)
H25_3 H 0.1396 0.1414 0.3625
H26_3 H 0.1818 0.1110 0.3398
C71_3 C 0.2511(5) 0.0199(8) 0.5644(7)
H27_3 H 0.2783 0.0144 0.5844
H28_3 H 0.2317 0.0223 0.5999
C74_3 C 0.2661(5) 0.0619(9) 0.4644(8)
H33_3 H 0.2538 0.0900 0.4278
H34_3 H 0.2952 0.0716 0.4669
N3_3 N 0.1488(3) 0.0722(5) 0.5933(5)
N10_3 N 0.2140(3) 0.2344(6) 0.4933(6)
N11_2 N 0.2457(6) 0.5945(7) 0.4911(7)
N12_3 N 0.3417(3) 0.3825(5) 0.2785(5)
N15_3 N 0.4171(5) 0.2404(8) 0.2589(10)
N16_3 N 0.4309(4) 0.3627(10) 0.3622(8)
O4_3 O 0.2809(2) 0.2700(4) 0.3709(4)
O5_3 O 0.3706(2) 0.0895(4) 0.3285(5)
O6_3 O 0.4035(2) 0.2612(5) 0.4988(4)
O7_3 O 0.1625(3) 0.0657(5) 0.4212(5)
O8_3 O 0.2485(3) 0.0799(5) 0.5251(5)
H36_3 H 0.3513 0.0104 0.5285
H37_3 H 0.3531 0.0257 0.6398
H38_3 H 0.4005 0.0188 0.6304
N25_2 N 0.4490(3) 0.4615(6) 0.2394(5)
C1_3 C 0.1346(3) 0.8328(6) 0.5880(5)
C2_3 C 0.1032(3) 0.8146(5) 0.5465(4)
H1_3 H 0.0804 0.8441 0.5394
C3_3 C 0.1072(3) 0.7502(5) 0.5157(5)
C4_3 C 0.1384(3) 0.7041(6) 0.5265(5)
H2_3 H 0.1393 0.6590 0.5059
C5_3 C 0.1679(3) 0.7274(6) 0.5688(5)
C6_3 C 0.1667(3) 0.7906(6) 0.6030(5)
H3_3 H 0.1869 0.8037 0.6349
C7_3 C 0.1025(3) 0.9219(5) 0.6526(5)
C8_3 C 0.0764(3) 0.8804(5) 0.6872(5)
C9_3 C 0.0435(3) 0.9101(6) 0.7174(6)
H4_3 H 0.0254 0.8813 0.7405
C10_3 C 0.0378(3) 0.9843(6) 0.7125(5)
C12_3 C 0.0975(3) 0.9953(5) 0.6524(5)
C13_3 C 0.0808(4) 0.8053(6) 0.7008(6)
C16_3 C 0.0387(3) 0.7449(5) 0.4779(5)
C17_3 C 0.0178(3) 0.7158(6) 0.5308(6)
C21_3 C 0.0181(3) 0.7874(6) 0.4311(6)
C22_3 C 0.0374(3) 0.6633(8) 0.5736(6)
C24_3 C 0.0401(3) 0.8151(6) 0.3765(6)
C25_3 C 0.2237(3) 0.6871(6) 0.6342(5)
C26_3 C 0.2106(3) 0.6609(6) 0.6945(6)
C27_3 C 0.2344(3) 0.6646(6) 0.7503(6)
H8_3 H 0.2253 0.6459 0.7904
C28_3 C 0.2718(3) 0.6957(6) 0.7482(6)
C29_3 C 0.2862(3) 0.7214(6) 0.6908(6)
H9_3 H 0.3122 0.7416 0.6902
C30_3 C 0.2622(3) 0.7175(6) 0.6332(6)
C31_3 C 0.1715(3) 0.6277(6) 0.6966(5)
C32_3 C 0.2963(4) 0.7003(7) 0.8087(7)
C33_3 C 0.2764(3) 0.7457(6) 0.5722(6)
C51_3 C 0.4562(3) 0.9730(6) 0.3185(5)
H15_3 H 0.4626 0.9249 0.3280
C55_3 C 0.3906(4) 0.9571(6) 0.3685(6)
C56_3 C 0.5211(4) 0.9868(7) 0.2726(6)
H19_3 H 0.1442 0.9643 0.4346
H21_3 H 0.0972 0.9662 0.3527
C72_3 C 0.2410(4) 0.9589(9) 0.5177(7)
H29_3 H 0.2536 0.9143 0.5336
H30_3 H 0.2117 0.9519 0.5126
C73_3 C 0.2583(5) 0.9826(9) 0.4531(9)
H31_3 H 0.2835 0.9571 0.4447
H32_3 H 0.2390 0.9748 0.4156
N1_2 N 0.0851(4) 0.7458(5) 0.7062(6)
N4_2 N 0.0535(3) 0.6254(6) 0.6063(6)
N7_2 N 0.1407(3) 0.6052(6) 0.7007(5)
N9_3 N 0.2898(3) 0.7696(6) 0.5275(6)
N13_3 N 0.3684(3) 0.9275(6) 0.3969(6)
N14_2 N 0.5510(3) 0.9615(6) 0.2606(5)
O1_3 O 0.1344(2) 0.8983(4) 0.6219(4)
O2_3 O 0.0775(2) 0.7280(4) 0.4681(4)
O3_3 O 0.2010(2) 0.6812(4) 0.5783(4)
C75_3 C 0.3666(5) 0.9731(9) 0.5528(9)
H35_3 H 0.3920 0.9647 0.5308
C76_3 C 0.3745(7) 0.9943(11) 0.6244(10)
C77_3 C 0.3747(9) 0.9283(12) 0.6584(10)
H39_3 H 0.4023 0.9092 0.6625
H40_3 H 0.3646 0.9345 0.7031
C78_3 C 0.3484(6) 0.8793(10) 0.6191(8)
H41_3 H 0.3221 0.8745 0.6394
H42_3 H 0.3608 0.8318 0.6166
O9_3 O 0.3438(3) 0.9094(5) 0.5562(4)
N2_3 N 0.9746(3) 0.0385(6) 0.7607(6)
N19_2 N 0.9149(4) 0.2458(5) 0.7938(6)
N20_2 N 0.9465(3) 0.1254(6) 0.8937(6)
N23_2 N 0.8593(3) 0.1052(6) 0.7993(5)
C18_3 C 0.9781(3) 0.7330(6) 0.5381(5)
H6_3 H 0.9644 0.7152 0.5747
C19_3 C 0.9583(3) 0.7760(6) 0.4925(6)
C20_3 C 0.9785(3) 0.8026(6) 0.4382(6)
H7_3 H 0.9646 0.8311 0.4063
C23_3 C 0.9168(4) 0.7921(7) 0.5007(6)
C19_4 C 0.0417(3) 0.2760(6) 0.0075(6)
C20_4 C 0.0215(3) 0.3026(6) 0.0618(6)
H7_4 H 0.0354 0.3311 0.0937
C18_4 C 0.0219(3) 0.2330(6) 0.9619(5)
H6_4 H 0.0356 0.2152 0.9253
C23_4 C 0.0832(4) 0.2921(7) 0.9993(6)
N2_4 N 0.0254(3) 0.5385(6) 0.7393(6)
C16_4 C 0.9613(3) 0.2449(5) 0.0221(5)
C21_4 C 0.9819(3) 0.2874(6) 0.0689(6)
C24_4 C 0.9599(3) 0.3151(6) 0.1235(6)
C34_4 C 0.6815(3) 0.7393(6) 0.1132(6)
C35_4 C 0.6725(3) 0.6827(6) 0.1495(6)
H10_4 H 0.6897 0.6667 0.1848
C36_4 C 0.6372(3) 0.6489(6) 0.1329(6)
C37_4 C 0.6099(3) 0.6735(6) 0.0874(6)
H11_4 H 0.5846 0.6515 0.0799
C38_4 C 0.6211(3) 0.7313(7) 0.0532(6)
C39_4 C 0.6565(3) 0.7673(6) 0.0649(5)
H12_4 H 0.6631 0.8087 0.0411
C40_4 C 0.7264(3) 0.8372(6) 0.1054(6)
C41_4 C 0.7545(4) 0.8437(6) 0.0558(6)
C42_4 C 0.7641(4) 0.9122(7) 0.0329(7)
C43_4 C 0.7458(5) 0.9710(7) 0.0587(6)
C44_4 C 0.7189(4) 0.9624(7) 0.1098(6)
C45_4 C 0.7092(3) 0.8976(6) 0.1317(6)
C46_4 C 0.7718(4) 0.7823(7) 0.0296(7)
C48_4 C 0.6816(3) 0.8915(6) 0.1834(6)
C49_4 C 0.5914(3) 0.5690(7) 0.1816(6)
C50_4 C 0.5813(3) 0.5005(6) 0.1651(5)
C51_4 C 0.5438(3) 0.4730(6) 0.1815(5)
H15_4 H 0.5374 0.4249 0.1720
C52_4 C 0.5165(3) 0.5161(6) 0.2114(6)
C53_4 C 0.5261(3) 0.5858(7) 0.2265(6)
H16_4 H 0.5070 0.6157 0.2458
C54_4 C 0.5625(4) 0.6110(7) 0.2139(7)
C55_4 C 0.6094(4) 0.4571(6) 0.1315(6)
C56_4 C 0.4789(4) 0.4868(7) 0.2274(6)
C57_4 C 0.5730(5) 0.6841(9) 0.2344(8)
C58_4 C 0.5558(3) 0.7507(7) 0.0027(6)
C59_4 C 0.5334(4) 0.7834(8) 0.0507(6)
C60_4 C 0.4925(4) 0.7772(8) 0.0482(7)
H17_4 H 0.4769 0.8005 0.0797
C64_4 C 0.5519(4) 0.8327(10) 0.0985(8)
C67_4 C 0.8682(4) 0.5116(7) 0.0716(7)
H19_4 H 0.8558 0.4643 0.0654
H20_4 H 0.8846 0.5221 0.0333
C68_4 C 0.8934(5) 0.5141(9) 0.1344(8)
H21_4 H 0.9028 0.4662 0.1473
H22_4 H 0.9168 0.5454 0.1297
C69_4 C 0.8657(4) 0.5435(8) 0.1839(8)
H23_4 H 0.8473 0.5070 0.2001
H24_4 H 0.8805 0.5656 0.2217
C70_4 C 0.8440(5) 0.5980(8) 0.1412(8)
H25_4 H 0.8604 0.6414 0.1375
H26_4 H 0.8182 0.6110 0.1602
C73_4 C 0.7417(5) 0.4826(9) 0.0469(9)
H31_4 H 0.7165 0.4571 0.0553
H32_4 H 0.7610 0.4748 0.0844
C74_4 C 0.7339(5) 0.5619(9) 0.0356(8)
H33_4 H 0.7462 0.5900 0.0722
H34_4 H 0.7048 0.5716 0.0331
N10_4 N 0.7860(3) 0.7344(6) 0.0067(6)
N12_4 N 0.6583(3) 0.8825(5) 0.2215(5)
N13_4 N 0.6316(3) 0.4275(6) 0.1031(6)
N15_4 N 0.5829(5) 0.7404(8) 0.2411(10)
N16_4 N 0.5691(4) 0.8627(10) 0.1378(8)
O2_4 O 0.9225(2) 0.2280(4) 0.0319(4)
O4_4 O 0.7191(2) 0.7700(4) 0.1291(4)
O5_4 O 0.6294(2) 0.5895(4) 0.1715(5)
O6_4 O 0.5965(2) 0.7612(5) 0.0012(4)
O7_4 O 0.8375(3) 0.5657(5) 0.0788(5)
C1_4 C 0.8654(3) 0.3328(6) 0.9120(5)
C2_4 C 0.8968(3) 0.3146(5) 0.9535(4)
H1_4 H 0.9196 0.3441 0.9606
C3_4 C 0.8928(3) 0.2502(5) 0.9843(5)
C4_4 C 0.8616(3) 0.2041(6) 0.9735(5)
H2_4 H 0.8607 0.1590 0.9941
C5_4 C 0.8321(3) 0.2274(6) 0.9312(5)
C6_4 C 0.8333(3) 0.2906(6) 0.8970(5)
H3_4 H 0.8131 0.3037 0.8651
C7_4 C 0.8975(3) 0.4219(5) 0.8474(5)
C8_4 C 0.9236(3) 0.3804(5) 0.8128(5)
C9_4 C 0.9565(3) 0.4101(6) 0.7826(6)
H4_4 H 0.9746 0.3813 0.7595
C10_4 C 0.9622(3) 0.4843(6) 0.7875(5)
C11_4 C 0.9353(3) 0.5266(6) 0.8177(5)
H5_4 H 0.9387 0.5766 0.8185
C12_4 C 0.9025(3) 0.4953(5) 0.8476(5)
C13_4 C 0.9192(4) 0.3053(6) 0.7992(6)
C14_4 C 0.9974(4) 0.5142(6) 0.7604(6)
C15_4 C 0.8742(3) 0.5376(6) 0.8788(6)
C17_4 C 0.9822(3) 0.2158(6) 0.9692(6)
C22_4 C 0.9626(3) 0.1633(8) 0.9264(6)
C25_4 C 0.7763(3) 0.1871(6) 0.8658(5)
C26_4 C 0.7894(3) 0.1609(6) 0.8055(6)
C27_4 C 0.7656(3) 0.1646(6) 0.7497(6)
H8_4 H 0.7747 0.1459 0.7096
C28_4 C 0.7282(3) 0.1957(6) 0.7518(6)
C29_4 C 0.7138(3) 0.2214(6) 0.8092(6)
H9_4 H 0.6878 0.2416 0.8098
C30_4 C 0.7378(3) 0.2175(6) 0.8668(6)
C31_4 C 0.8285(3) 0.1277(6) 0.8034(5)
C32_4 C 0.7037(4) 0.2003(7) 0.6913(7)
C33_4 C 0.7236(3) 0.2457(6) 0.9278(6)
H13_4 H 0.7832 0.9177 0.9999
C61_4 C 0.4740(3) 0.7355(7) 0.9979(7)
C62_4 C 0.4962(3) 0.7082(6) 0.9478(6)
H18_4 H 0.4834 0.6855 0.9110
C63_4 C 0.5366(3) 0.7146(6) 0.9525(6)
C65_4 C 0.4316(4) 0.7279(7) 0.9947(8)
C66_4 C 0.5610(5) 0.6844(7) 0.9023(7)
C71_4 C 0.7489(5) 0.5199(8) 0.9356(7)
H27_4 H 0.7217 0.5144 0.9156
H28_4 H 0.7683 0.5223 0.9001
C72_4 C 0.7590(4) 0.4589(9) 0.9823(7)
H29_4 H 0.7464 0.4143 0.9664
H30_4 H 0.7883 0.4519 0.9874
N3_4 N 0.8512(3) 0.5722(5) 0.9067(5)
N9_4 N 0.7102(3) 0.2696(6) 0.9725(6)
O1_4 O 0.8656(2) 0.3983(4) 0.8781(4)
O3_4 O 0.7990(2) 0.1812(4) 0.9217(4)
O8_4 O 0.7515(3) 0.5799(5) 0.9749(5)
C75_4 C 0.6334(5) 0.4731(9) 0.9472(9)
H35_4 H 0.6080 0.4647 0.9692
H36_4 H 0.6487 0.5104 0.9715
C76_4 C 0.6255(7) 0.4943(11) 0.8756(10)
H37_4 H 0.6469 0.5257 0.8602
H38_4 H 0.5995 0.5188 0.8696
C77_4 C 0.6253(9) 0.4283(12) 0.8416(10)
H39_4 H 0.5977 0.4092 0.8375
H40_4 H 0.6354 0.4345 0.7969
C78_4 C 0.6516(6) 0.3793(10) 0.8809(8)
H41_4 H 0.6779 0.3745 0.8606
H42_4 H 0.6392 0.3318 0.8834
O9_4 O 0.6562(3) 0.4094(5) 0.9438(4)
H14_3 H 0.2927 0.9969 0.8710
C47_3 C 0.2475(6) 0.9598(9) 0.9665(7)
N11_3 N 0.2457(6) 0.9055(7) 0.9911(7)
H14_4 H 0.7073 0.0031 0.1290
C47_4 C 0.7525(6) 0.0402(9) 0.0335(7)
N11_4 N 0.7543(6) 0.0945(7) 0.0089(7)
loop_
_geom_bond_atom_site_label_1
_geom_bond_atom_site_label_2
_geom_bond_site_symmetry_1
_geom_bond_site_symmetry_2
C18 H6 1_555 1_555
C19 C18 1_555 1_555
C20 C19 1_555 1_555
H7 C20 1_555 1_555
C23 C19 1_555 1_555
N5 C23 1_555 1_555
Ag9 N5 1_555 1_555
Ag1 N2 1_555 1_555
N19 Ag1 1_555 1_555
N20 Ag1 1_555 1_555
N22 Ag1 1_555 1_555
N23 Ag1 1_555 1_555
Ag4 N9 1_555 1_555
C1 C2 1_555 1_555
C2 H1 1_555 1_555
C3 C2 1_555 1_555
C4 C3 1_555 1_555
H2 C4 1_555 1_555
C5 C4 1_555 1_555
C6 C1 1_555 1_555
H3 C6 1_555 1_555
C7 C8 1_555 1_555
C8 C9 1_555 1_555
C9 H4 1_555 1_555
C10 C9 1_555 1_555
C12 C7 1_555 1_555
C13 C8 1_555 1_555
C16 C17 1_555 1_555
C21 C16 1_555 1_555
C22 C17 1_555 1_555
C24 C21 1_555 1_555
C25 C26 1_555 1_555
C26 C27 1_555 1_555
C27 H8 1_555 1_555
C28 C27 1_555 1_555
C29 C28 1_555 1_555
H9 C29 1_555 1_555
C30 C25 1_555 1_555
C31 C26 1_555 1_555
C32 C28 1_555 1_555
C33 C30 1_555 1_555
C51 H15 1_555 1_555
H29 C72 1_555 1_555
H30 C72 1_555 1_555
C73 C72 1_555 1_555
H31 C73 1_555 1_555
H32 C73 1_555 1_555
N1 C13 1_555 1_555
N4 C22 1_555 1_555
N6 C24 1_555 1_555
N7 C31 1_555 1_555
N8 C32 1_555 1_555
N9 C33 1_555 1_555
N13 Ag4 1_555 1_555
N14 C56 1_555 1_555
O1 C1 1_555 1_555
O2 C3 1_555 1_555
O3 C5 1_555 1_555
C75 H35 1_555 1_555
C76 C75 1_555 1_555
C77 C76 1_555 1_555
H39 C77 1_555 1_555
H40 C77 1_555 1_555
C78 C77 1_555 1_555
H41 C78 1_555 1_555
H42 C78 1_555 1_555
O9 Ag4 1_555 1_555
Ag5 N1 1_555 1_555
Ag6 N6 1_555 1_555
Ag7 N14 1_555 1_555
Ag11 N8 1_555 1_555
N24 Ag4 1_555 1_555
N26 Ag4 1_555 1_555
C5 C6 1_555 1_555
C7 O1 1_555 1_555
C16 O2 1_555 1_555
C25 O3 1_555 1_555
C29 C30 1_555 1_555
C55 N13 1_555 1_555
N4 Ag5 1_555 1_555
N7 Ag5 1_555 1_555
C75 O9 1_555 1_555
C78 O9 1_555 1_555
Ag2 N12 1_555 1_555
Ag3 N3 1_555 1_555
H5 C11 1_555 1_555
C34 C35 1_555 1_555
C35 H10 1_555 1_555
C36 C35 1_555 1_555
C37 C36 1_555 1_555
H11 C37 1_555 1_555
C38 C37 1_555 1_555
C39 C34 1_555 1_555
H12 C39 1_555 1_555
C40 C41 1_555 1_555
C41 C42 1_555 1_555
C42 H13 1_555 1_555
C43 C42 1_555 1_555
C44 C43 1_555 1_555
H14 C44 1_555 1_555
C45 C40 1_555 1_555
C46 C41 1_555 1_555
C47 C43 1_555 1_555
C48 C45 1_555 1_555
C49 C50 1_555 1_555
C53 C52 1_555 1_555
H16 C53 1_555 1_555
C54 C49 1_555 1_555
C57 C54 1_555 1_555
C58 C59 1_555 1_555
C59 C60 1_555 1_555
C60 H17 1_555 1_555
C61 C60 1_555 1_555
C62 C61 1_555 1_555
H18 C62 1_555 1_555
C63 C58 1_555 1_555
C64 C59 1_555 1_555
C65 C61 1_555 1_555
C66 C63 1_555 1_555
H20 C67 1_555 1_555
C68 C67 1_555 1_555
H22 C68 1_555 1_555
C69 C68 1_555 1_555
H23 C69 1_555 1_555
H24 C69 1_555 1_555
C70 C69 1_555 1_555
H25 C70 1_555 1_555
H26 C70 1_555 1_555
C71 H27 1_555 1_555
H28 C71 1_555 1_555
H33 C74 1_555 1_555
H34 C74 1_555 1_555
N3 C15 1_555 1_555
N10 Ag3 1_555 1_555
N11 C47 1_555 1_555
N12 C48 1_555 1_555
N15 Ag2 1_555 1_555
N16 Ag2 1_555 1_555
N17 C65 1_555 1_555
N18 C66 1_555 1_555
O4 C34 1_555 1_555
O5 C36 1_555 1_555
O6 C38 1_555 1_555
O7 Ag3 1_555 1_555
O8 Ag3 1_555 1_555
Ag8 N18 1_555 1_555
Ag10 N17 1_555 1_555
N21 Ag3 1_555 1_555
N25 Ag2 1_555 1_555
N27 Ag2 1_555 1_555
C38 C39 1_555 1_555
C40 O4 1_555 1_555
C44 C45 1_555 1_555
C46 N10 1_555 1_555
C49 O5 1_555 1_555
C53 C54 1_555 1_555
C57 N15 1_555 1_555
C58 O6 1_555 1_555
C62 C63 1_555 1_555
C64 N16 1_555 1_555
C67 O7 1_555 1_555
C70 O7 1_555 1_555
C71 O8 1_555 1_555
C74 O8 1_555 1_555
Ag3_2 N3_2 1_555 1_555
C1_2 C2_2 1_555 1_555
C2_2 H1_2 1_555 1_555
C3_2 C2_2 1_555 1_555
C4_2 C3_2 1_555 1_555
H2_2 C4_2 1_555 1_555
C5_2 C4_2 1_555 1_555
C6_2 C1_2 1_555 1_555
H3_2 C6_2 1_555 1_555
C7_2 C8_2 1_555 1_555
C8_2 C9_2 1_555 1_555
C9_2 H4_2 1_555 1_555
C10_2 C9_2 1_555 1_555
C11_2 C10_2 1_555 1_555
H5_2 C11_2 1_555 1_555
C12_2 C7_2 1_555 1_555
C13_2 C8_2 1_555 1_555
C14_2 C10_2 1_555 1_555
C15_2 C12_2 1_555 1_555
C22_2 C17_2 1_555 1_555
C25_2 C26_2 1_555 1_555
C26_2 C27_2 1_555 1_555
C27_2 H8_2 1_555 1_555
C28_2 C27_2 1_555 1_555
C29_2 C28_2 1_555 1_555
H9_2 C29_2 1_555 1_555
C30_2 C25_2 1_555 1_555
C31_2 C26_2 1_555 1_555
C32_2 C28_2 1_555 1_555
C33_2 C30_2 1_555 1_555
C62_2 C61_2 1_555 1_555
H18_2 C62_2 1_555 1_555
C65_2 C61_2 1_555 1_555
C66_2 C63_2 1_555 1_555
C71_2 H27_2 1_555 1_555
H28_2 C71_2 1_555 1_555
C72_2 C71_2 1_555 1_555
H29_2 C72_2 1_555 1_555
H30_2 C72_2 1_555 1_555
N19 C13_2 1_555 1_555
N3_2 C15_2 1_555 1_555
N20 C22_2 1_555 1_555
N23 C31_2 1_555 1_555
N8_2 C32_2 1_555 1_555
N9_2 C33_2 1_555 1_555
N17_2 C65_2 1_555 1_555
N18_2 C66_2 1_555 1_555
O1_2 C1_2 1_555 1_555
O3_2 C5_2 1_555 1_555
O8_2 Ag3_2 1_555 1_555
C75_2 H35_2 1_555 1_555
H36_2 C75_2 1_555 1_555
C76_2 C75_2 1_555 1_555
H37_2 C76_2 1_555 1_555
H38_2 C76_2 1_555 1_555
C77_2 C76_2 1_555 1_555
H39_2 C77_2 1_555 1_555
H40_2 C77_2 1_555 1_555
C78_2 C77_2 1_555 1_555
H41_2 C78_2 1_555 1_555
H42_2 C78_2 1_555 1_555
Ag8_2 N18_2 1_555 1_555
Ag11 N17_2 1_555 1_555
Ag10 N8_2 1_555 1_555
C5_2 C6_2 1_555 1_555
C7_2 O1_2 1_555 1_555
C11_2 C12_2 1_555 1_555
C25_2 O3_2 1_555 1_555
C29_2 C30_2 1_555 1_555
C62_2 C63_2 1_555 1_555
C71_2 O8_2 1_555 1_555
C75_2 O9_2 1_555 1_555
C78_2 O9_2 1_555 1_555
Ag7 N12_2 1_555 1_555
C21_2 C16_2 1_555 1_555
C24_2 C21_2 1_555 1_555
C34_2 C35_2 1_555 1_555
C35_2 H10_2 1_555 1_555
C36_2 C35_2 1_555 1_555
C37_2 C36_2 1_555 1_555
H11_2 C37_2 1_555 1_555
C38_2 C37_2 1_555 1_555
C39_2 C34_2 1_555 1_555
H12_2 C39_2 1_555 1_555
C40_2 C41_2 1_555 1_555
C41_2 C42_2 1_555 1_555
C43_2 C42_2 1_555 1_555
C44_2 C43_2 1_555 1_555
C45_2 C40_2 1_555 1_555
C46_2 C41_2 1_555 1_555
C48_2 C45_2 1_555 1_555
C49_2 C50_2 1_555 1_555
C50_2 C51_2 1_555 1_555
C51_2 H15_2 1_555 1_555
C52_2 C51_2 1_555 1_555
C53_2 C52_2 1_555 1_555
H16_2 C53_2 1_555 1_555
C54_2 C49_2 1_555 1_555
C55_2 C50_2 1_555 1_555
C56_2 C52_2 1_555 1_555
C57_2 C54_2 1_555 1_555
C58_2 C59_2 1_555 1_555
C59_2 C60_2 1_555 1_555
C60_2 H17_2 1_555 1_555
C64_2 C59_2 1_555 1_555
C67_2 H19_2 1_555 1_555
H20_2 C67_2 1_555 1_555
C68_2 C67_2 1_555 1_555
H21_2 C68_2 1_555 1_555
H22_2 C68_2 1_555 1_555
C69_2 C68_2 1_555 1_555
H23_2 C69_2 1_555 1_555
H24_2 C69_2 1_555 1_555
C70_2 C69_2 1_555 1_555
H25_2 C70_2 1_555 1_555
H26_2 C70_2 1_555 1_555
H31_2 C73_2 1_555 1_555
H32_2 C73_2 1_555 1_555
C74_2 C73_2 1_555 1_555
H33_2 C74_2 1_555 1_555
H34_2 C74_2 1_555 1_555
N6_2 C24_2 1_555 1_555
N12_2 C48_2 1_555 1_555
N13_2 Ag4_2 1_555 1_555
N25 C56_2 1_555 1_555
N15_2 Ag7 1_555 1_555
N16_2 Ag7 1_555 1_555
O4_2 C34_2 1_555 1_555
O5_2 C36_2 1_555 1_555
O6_2 C38_2 1_555 1_555
Ag6_2 N6_2 1_555 1_555
N24_2 Ag4_2 1_555 1_555
N26_2 Ag4_2 1_555 1_555
N27_2 Ag7 1_555 1_555
C16_2 O2_2 1_555 1_555
C38_2 C39_2 1_555 1_555
C40_2 O4_2 1_555 1_555
C44_2 C45_2 1_555 1_555
C46_2 N10_2 1_555 1_555
C49_2 O5_2 1_555 1_555
C53_2 C54_2 1_555 1_555
C55_2 N13_2 1_555 1_555
C57_2 N15_2 1_555 1_555
C58_2 O6_2 1_555 1_555
C64_2 N16_2 1_555 1_555
C67_2 O7_2 1_555 1_555
C70_2 O7_2 1_555 1_555
Ag5 N2_2 1_555 1_555
C18_2 H6_2 1_555 1_555
N5_2 C23_2 1_555 1_555
N22_2 Ag5 1_555 1_555
C20_2 C19_2 1_555 1_555
H7_2 C20_2 1_555 1_555
Ag8_2 N12_3 1_555 1_555
Ag9 N3_3 1_555 1_555
H5_3 C11_3 1_555 1_555
C34_3 C35_3 1_555 1_555
C35_3 H10_3 1_555 1_555
C36_3 C35_3 1_555 1_555
C37_3 C36_3 1_555 1_555
H11_3 C37_3 1_555 1_555
C38_3 C37_3 1_555 1_555
C39_3 C34_3 1_555 1_555
H12_3 C39_3 1_555 1_555
C40_3 C41_3 1_555 1_555
C41_3 C42_3 1_555 1_555
C42_3 H13_3 1_555 1_555
C43_3 C42_3 1_555 1_555
C44_3 C43_3 1_555 1_555
H14_2 C44_3 1_555 1_555
C45_3 C40_3 1_555 1_555
C46_3 C41_3 1_555 1_555
C47_2 C43_3 1_555 1_555
C48_3 C45_3 1_555 1_555
C49_3 C50_3 1_555 1_555
C53_3 C52_3 1_555 1_555
H16_3 C53_3 1_555 1_555
C54_3 C49_3 1_555 1_555
C57_3 C54_3 1_555 1_555
C58_3 C59_3 1_555 1_555
C59_3 C60_3 1_555 1_555
C60_3 H17_3 1_555 1_555
C61_3 C60_3 1_555 1_555
C62_3 C61_3 1_555 1_555
H18_3 C62_3 1_555 1_555
C63_3 C58_3 1_555 1_555
C64_3 C59_3 1_555 1_555
C65_3 C61_3 1_555 1_555
C66_3 C63_3 1_555 1_555
H20_3 C67_3 1_555 1_555
C68_3 C67_3 1_555 1_555
H22_3 C68_3 1_555 1_555
C69_3 C68_3 1_555 1_555
H23_3 C69_3 1_555 1_555
H24_3 C69_3 1_555 1_555
C70_3 C69_3 1_555 1_555
H25_3 C70_3 1_555 1_555
H26_3 C70_3 1_555 1_555
C71_3 H27_3 1_555 1_555
H28_3 C71_3 1_555 1_555
H33_3 C74_3 1_555 1_555
H34_3 C74_3 1_555 1_555
N3_3 C15_3 1_555 1_555
N10_3 Ag9 1_555 1_555
N11_2 C47_2 1_555 1_555
N12_3 C48_3 1_555 1_555
N15_3 Ag8_2 1_555 1_555
N16_3 Ag8_2 1_555 1_555
N26 C65_3 1_555 1_555
N27_2 C66_3 1_555 1_555
O4_3 C34_3 1_555 1_555
O5_3 C36_3 1_555 1_555
O6_3 C38_3 1_555 1_555
O7_3 Ag9 1_555 1_555
O8_3 Ag9 1_555 1_555
N25_2 Ag8_2 1_555 1_555
C38_3 C39_3 1_555 1_555
C40_3 O4_3 1_555 1_555
C44_3 C45_3 1_555 1_555
C46_3 N10_3 1_555 1_555
C49_3 O5_3 1_555 1_555
C53_3 C54_3 1_555 1_555
C57_3 N15_3 1_555 1_555
C58_3 O6_3 1_555 1_555
C62_3 C63_3 1_555 1_555
C64_3 N16_3 1_555 1_555
C67_3 O7_3 1_555 1_555
C70_3 O7_3 1_555 1_555
C71_3 O8_3 1_555 1_555
C74_3 O8_3 1_555 1_555
Ag10 N9_3 1_555 1_555
C1_3 C2_3 1_555 1_555
C2_3 H1_3 1_555 1_555
C3_3 C2_3 1_555 1_555
C4_3 C3_3 1_555 1_555
H2_3 C4_3 1_555 1_555
C5_3 C4_3 1_555 1_555
C6_3 C1_3 1_555 1_555
H3_3 C6_3 1_555 1_555
C7_3 C8_3 1_555 1_555
C8_3 C9_3 1_555 1_555
C9_3 H4_3 1_555 1_555
C10_3 C9_3 1_555 1_555
C12_3 C7_3 1_555 1_555
C13_3 C8_3 1_555 1_555
C16_3 C17_3 1_555 1_555
C21_3 C16_3 1_555 1_555
C22_3 C17_3 1_555 1_555
C24_3 C21_3 1_555 1_555
C25_3 C26_3 1_555 1_555
C26_3 C27_3 1_555 1_555
C27_3 H8_3 1_555 1_555
C28_3 C27_3 1_555 1_555
C29_3 C28_3 1_555 1_555
H9_3 C29_3 1_555 1_555
C30_3 C25_3 1_555 1_555
C31_3 C26_3 1_555 1_555
C32_3 C28_3 1_555 1_555
C33_3 C30_3 1_555 1_555
C51_3 H15_3 1_555 1_555
H29_3 C72_3 1_555 1_555
H30_3 C72_3 1_555 1_555
C73_3 C72_3 1_555 1_555
H31_3 C73_3 1_555 1_555
H32_3 C73_3 1_555 1_555
N1_2 C13_3 1_555 1_555
N4_2 C22_3 1_555 1_555
N22 C24_3 1_555 1_555
N7_2 C31_3 1_555 1_555
N24_2 C32_3 1_555 1_555
N9_3 C33_3 1_555 1_555
N13_3 Ag10 1_555 1_555
N14_2 C56_3 1_555 1_555
O1_3 C1_3 1_555 1_555
O2_3 C3_3 1_555 1_555
O3_3 C5_3 1_555 1_555
C75_3 H35_3 1_555 1_555
C76_3 C75_3 1_555 1_555
C77_3 C76_3 1_555 1_555
H39_3 C77_3 1_555 1_555
H40_3 C77_3 1_555 1_555
C78_3 C77_3 1_555 1_555
H41_3 C78_3 1_555 1_555
H42_3 C78_3 1_555 1_555
O9_3 Ag10 1_555 1_555
Ag6_2 N1_2 1_555 1_555
Ag8 N14_2 1_555 1_555
C5_3 C6_3 1_555 1_555
C7_3 O1_3 1_555 1_555
C16_3 O2_3 1_555 1_555
C25_3 O3_3 1_555 1_555
C29_3 C30_3 1_555 1_555
C55_3 N13_3 1_555 1_555
N4_2 Ag6_2 1_555 1_555
N7_2 Ag6_2 1_555 1_555
C75_3 O9_3 1_555 1_555
C78_3 O9_3 1_555 1_555
Ag6 N2_3 1_555 1_555
N19_2 Ag6 1_555 1_555
N20_2 Ag6 1_555 1_555
N23_2 Ag6 1_555 1_555
C18_3 H6_3 1_555 1_555
C19_3 C18_3 1_555 1_555
C20_3 C19_3 1_555 1_555
H7_3 C20_3 1_555 1_555
C23_3 C19_3 1_555 1_555
N21 C23_3 1_555 1_555
C20_4 C19_4 1_555 1_555
H7_4 C20_4 1_555 1_555
Ag6_2 N2_4 1_555 1_555
C18_4 H6_4 1_555 1_555
N21_2 C23_4 1_555 1_555
Ag8 N12_4 1_555 1_555
C21_4 C16_4 1_555 1_555
C24_4 C21_4 1_555 1_555
C34_4 C35_4 1_555 1_555
C35_4 H10_4 1_555 1_555
C36_4 C35_4 1_555 1_555
C37_4 C36_4 1_555 1_555
H11_4 C37_4 1_555 1_555
C38_4 C37_4 1_555 1_555
C39_4 C34_4 1_555 1_555
H12_4 C39_4 1_555 1_555
C40_4 C41_4 1_555 1_555
C41_4 C42_4 1_555 1_555
C43_4 C42_4 1_555 1_555
C44_4 C43_4 1_555 1_555
C45_4 C40_4 1_555 1_555
C46_4 C41_4 1_555 1_555
C48_4 C45_4 1_555 1_555
C49_4 C50_4 1_555 1_555
C50_4 C51_4 1_555 1_555
C51_4 H15_4 1_555 1_555
C52_4 C51_4 1_555 1_555
C53_4 C52_4 1_555 1_555
H16_4 C53_4 1_555 1_555
C54_4 C49_4 1_555 1_555
C55_4 C50_4 1_555 1_555
C56_4 C52_4 1_555 1_555
C57_4 C54_4 1_555 1_555
C58_4 C59_4 1_555 1_555
C59_4 C60_4 1_555 1_555
C60_4 H17_4 1_555 1_555
C64_4 C59_4 1_555 1_555
C67_4 H19_4 1_555 1_555
H20_4 C67_4 1_555 1_555
C68_4 C67_4 1_555 1_555
H21_4 C68_4 1_555 1_555
H22_4 C68_4 1_555 1_555
C69_4 C68_4 1_555 1_555
H23_4 C69_4 1_555 1_555
H24_4 C69_4 1_555 1_555
C70_4 C69_4 1_555 1_555
H25_4 C70_4 1_555 1_555
H26_4 C70_4 1_555 1_555
H31_4 C73_4 1_555 1_555
H32_4 C73_4 1_555 1_555
C74_4 C73_4 1_555 1_555
H33_4 C74_4 1_555 1_555
H34_4 C74_4 1_555 1_555
N22_2 C24_4 1_555 1_555
N12_4 C48_4 1_555 1_555
N13_4 Ag11 1_555 1_555
N25_2 C56_4 1_555 1_555
N15_4 Ag8 1_555 1_555
N16_4 Ag8 1_555 1_555
O4_4 C34_4 1_555 1_555
O5_4 C36_4 1_555 1_555
O6_4 C38_4 1_555 1_555
C16_4 O2_4 1_555 1_555
C38_4 C39_4 1_555 1_555
C40_4 O4_4 1_555 1_555
C44_4 C45_4 1_555 1_555
C46_4 N10_4 1_555 1_555
C49_4 O5_4 1_555 1_555
C53_4 C54_4 1_555 1_555
C55_4 N13_4 1_555 1_555
C57_4 N15_4 1_555 1_555
C58_4 O6_4 1_555 1_555
C64_4 N16_4 1_555 1_555
C67_4 O7_4 1_555 1_555
C70_4 O7_4 1_555 1_555
Ag9_2 N3_4 1_555 1_555
C1_4 C2_4 1_555 1_555
C2_4 H1_4 1_555 1_555
C3_4 C2_4 1_555 1_555
C4_4 C3_4 1_555 1_555
H2_4 C4_4 1_555 1_555
C5_4 C4_4 1_555 1_555
C6_4 C1_4 1_555 1_555
H3_4 C6_4 1_555 1_555
C7_4 C8_4 1_555 1_555
C8_4 C9_4 1_555 1_555
C9_4 H4_4 1_555 1_555
C10_4 C9_4 1_555 1_555
C11_4 C10_4 1_555 1_555
H5_4 C11_4 1_555 1_555
C12_4 C7_4 1_555 1_555
C13_4 C8_4 1_555 1_555
C14_4 C10_4 1_555 1_555
C15_4 C12_4 1_555 1_555
C22_4 C17_4 1_555 1_555
C25_4 C26_4 1_555 1_555
C26_4 C27_4 1_555 1_555
C27_4 H8_4 1_555 1_555
C28_4 C27_4 1_555 1_555
C29_4 C28_4 1_555 1_555
H9_4 C29_4 1_555 1_555
C30_4 C25_4 1_555 1_555
C31_4 C26_4 1_555 1_555
C32_4 C28_4 1_555 1_555
C33_4 C30_4 1_555 1_555
C62_4 C61_4 1_555 1_555
H18_4 C62_4 1_555 1_555
C65_4 C61_4 1_555 1_555
C66_4 C63_4 1_555 1_555
C71_4 H27_4 1_555 1_555
H28_4 C71_4 1_555 1_555
C72_4 C71_4 1_555 1_555
H29_4 C72_4 1_555 1_555
H30_4 C72_4 1_555 1_555
N19_2 C13_4 1_555 1_555
N3_4 C15_4 1_555 1_555
N20_2 C22_4 1_555 1_555
N23_2 C31_4 1_555 1_555
N24 C32_4 1_555 1_555
N9_4 C33_4 1_555 1_555
N26_2 C65_4 1_555 1_555
N27 C66_4 1_555 1_555
O1_4 C1_4 1_555 1_555
O3_4 C5_4 1_555 1_555
O8_4 Ag9_2 1_555 1_555
C75_4 H35_4 1_555 1_555
H36_4 C75_4 1_555 1_555
C76_4 C75_4 1_555 1_555
H37_4 C76_4 1_555 1_555
H38_4 C76_4 1_555 1_555
C77_4 C76_4 1_555 1_555
H39_4 C77_4 1_555 1_555
H40_4 C77_4 1_555 1_555
C78_4 C77_4 1_555 1_555
H41_4 C78_4 1_555 1_555
H42_4 C78_4 1_555 1_555
C5_4 C6_4 1_555 1_555
C7_4 O1_4 1_555 1_555
C11_4 C12_4 1_555 1_555
C25_4 O3_4 1_555 1_555
C29_4 C30_4 1_555 1_555
C62_4 C63_4 1_555 1_555
C71_4 O8_4 1_555 1_555
C75_4 O9_4 1_555 1_555
C78_4 O9_4 1_555 1_555
N11_3 C47_3 1_555 1_555
N11_4 C47_4 1_555 1_555

#END
