
###############################################################################
#
# This file contains modified crystal structure data generated from the
# MOF subset of the Cambridge Structural Database (CSD) v543 
# hosted by the Cambridge Crystallographic Data Centre (CCDC).
#
# This work is licensed under the Creative Commons
# Attribution-NonCommercial-ShareAlike 4.0 International License.
# To view a copy of this license, visit
# http://creativecommons.org/licenses/by-nc-sa/4.0/
# or send a letter to
# Creative Commons, PO Box 1866, Mountain View, CA 94042, USA.
#
# CIF created using the CSD Python API on 29 September 2022
# The structure has been converted into the P1 space group
# The structure has a 3D framework
# The original CSD entry UVARUF is in the monoclinic crystal system
# The framework has been calculated to contain at least 10.0% void space
# The void calculation uses a probe of radius 1.32A, grid spacing 0.4
#
###############################################################################

data_UVARUF
_chemical_formula_moiety         '(C112 H80 N8 O16 Zn4)n'
_symmetry_cell_setting           triclinic
_symmetry_space_group_name_H-M   'P 1'
_symmetry_Int_Tables_number      1
_space_group_name_Hall           'P 1'
loop_
_symmetry_equiv_pos_site_id
_symmetry_equiv_pos_as_xyz
1 x,y,z
_cell_length_a                   12.934(5)
_cell_length_b                   24.970(3)
_cell_length_c                   8.715(4)
_cell_angle_alpha                90
_cell_angle_beta                 103.834(5)
_cell_angle_gamma                90
_cell_volume                     2732.97
loop_
_atom_site_label
_atom_site_type_symbol
_atom_site_fract_x
_atom_site_fract_y
_atom_site_fract_z
Zn3 Zn 0.65238(15) 0.08877(5) 0.13243(17)
N2 N 0.7799(9) 0.0511(5) 0.0846(12)
C27 C 0.8709(14) 0.0803(6) 0.0992(17)
H19 H 0.8737 0.1146 0.1417
C28 C 0.9558(14) 0.0618(6) 0.0551(15)
O1 O 0.7231(9) 0.1199(4) 0.3369(11)
O2 O 0.7482(9) 0.1940(4) 0.2114(10)
O3 O 0.5614(8) 0.0286(3) 0.1835(10)
O4 O 0.4907(8) 0.1085(3) 0.1693(10)
C1 C 0.7521(16) 0.1684(8) 0.335(2)
C2 C 0.8005(14) 0.1926(6) 0.4832(17)
C3 C 0.8348(12) 0.2454(5) 0.4976(14)
H1 H 0.8305 0.2658 0.4070
C4 C 0.8751(13) 0.2682(6) 0.6436(15)
H2 H 0.8965 0.3039 0.6499
C5 C 0.8842(17) 0.2391(6) 0.7802(19)
C6 C 0.8496(17) 0.1876(7) 0.7651(18)
H3 H 0.8528 0.1676 0.8562
C7 C 0.8114(13) 0.1642(6) 0.6250(17)
H4 H 0.7915 0.1284 0.6215
C8 C 0.9286(15) 0.2616(7) 0.9373(18)
C9 C 0.9805(14) 0.3081(6) 0.9641(17)
H6 H 0.9884 0.3280 0.8772
C15 C 0.4815(13) 0.0606(6) 0.1983(18)
C16 C 0.3945(12) 0.0377(6) 0.2563(15)
C17 C 0.3181(12) 0.0745(6) 0.2802(16)
H11 H 0.3247 0.1107 0.2602
C18 C 0.2327(13) 0.0557(6) 0.3343(15)
H12 H 0.1815 0.0798 0.3503
C19 C 0.2215(14) 0.0023(6) 0.3648(19)
C23 C 0.0485(14) 0.0112(7) 0.4412(18)
H16 H 0.0469 0.0475 0.4174
N1 N 0.6090(10) 0.1226(5) 0.9186(14)
C4_2 C 0.3751(13) 0.2318(6) 0.1436(15)
H2_2 H 0.3965 0.1961 0.1499
C5_2 C 0.3842(17) 0.2609(6) 0.2802(19)
C6_2 C 0.3496(17) 0.3124(7) 0.2651(18)
H3_2 H 0.3528 0.3324 0.3562
C7_2 C 0.3114(13) 0.3358(6) 0.1250(17)
H4_2 H 0.2915 0.3716 0.1215
C8_2 C 0.4286(15) 0.2384(7) 0.4373(18)
H5 H 0.4202 0.2579 0.5243
C9_2 C 0.4805(14) 0.1919(6) 0.4641(17)
H6_2 H 0.4884 0.1720 0.3772
C10 C 0.5262(14) 0.1699(6) 0.6232(19)
C11 C 0.5224(17) 0.1958(6) 0.7574(17)
H7 H 0.4909 0.2295 0.7517
C12 C 0.5658(17) 0.1724(7) 0.907(2)
H8 H 0.5647 0.1914 0.9985
C13 C 0.6045(11) 0.0981(5) 0.7843(13)
H9 H 0.6289 0.0629 0.7913
C14 C 0.5685(12) 0.1179(5) 0.6364(15)
H10 H 0.5716 0.0979 0.5476
Zn1 Zn 0.15238(15) 0.41123(5) 0.63243(17)
O1_2 O 0.2231(9) 0.3801(4) 0.8369(11)
O2_2 O 0.2482(9) 0.3060(4) 0.7114(10)
O3_2 O 0.0614(8) 0.4714(3) 0.6835(10)
C1_2 C 0.2521(16) 0.3316(8) 0.835(2)
C2_2 C 0.3005(14) 0.3074(6) 0.9832(17)
C3_2 C 0.3348(12) 0.2546(5) 0.9976(14)
H1_2 H 0.3305 0.2342 0.9070
N3 N 0.1090(10) 0.3774(5) 0.4186(14)
N4 N 0.2799(9) 0.4489(5) 0.5846(12)
O4_2 O 0.9907(8) 0.6085(3) 0.1693(10)
C15_2 C 0.9815(13) 0.5606(6) 0.1983(18)
C16_2 C 0.8945(12) 0.5377(6) 0.2563(15)
C17_2 C 0.8181(12) 0.5745(6) 0.2802(16)
H11_2 H 0.8247 0.6107 0.2602
C18_2 C 0.7327(13) 0.5557(6) 0.3343(15)
H12_2 H 0.6815 0.5798 0.3503
C19_2 C 0.7215(14) 0.5023(6) 0.3648(19)
C20 C 0.7962(15) 0.4669(6) 0.3360(18)
H13 H 0.7898 0.4306 0.3550
C21 C 0.8822(14) 0.4856(6) 0.2778(19)
H14 H 0.9307 0.4613 0.2543
C22 C 0.6335(13) 0.4829(5) 0.4220(17)
H15 H 0.6351 0.4469 0.4490
C23_2 C 0.5485(14) 0.5112(7) 0.4412(18)
H16_2 H 0.5469 0.5475 0.4174
C24 C 0.4604(12) 0.4897(5) 0.4953(14)
C25 C 0.3721(12) 0.5210(6) 0.4836(17)
H17 H 0.3700 0.5555 0.4429
C26 C 0.2838(13) 0.5003(5) 0.5340(14)
H18 H 0.2261 0.5228 0.5325
C27_2 C 0.3709(14) 0.4197(6) 0.5992(17)
H19_2 H 0.3737 0.3854 0.6417
C28_2 C 0.4558(14) 0.4382(6) 0.5551(15)
H20 H 0.5146 0.4159 0.5645
C10_2 C 0.0262(14) 0.3301(6) 0.1232(19)
C11_2 C 0.0224(17) 0.3042(6) 0.2574(17)
C12_2 C 0.0658(17) 0.3276(7) 0.407(2)
H8_2 H 0.0647 0.3086 0.4985
C13_2 C 0.1045(11) 0.4019(5) 0.2843(13)
H9_2 H 0.1289 0.4371 0.2913
C14_2 C 0.0685(12) 0.3821(5) 0.1364(15)
H10_2 H 0.0716 0.4021 0.0476
N2_2 N 0.2799(9) 0.5511(5) 0.0846(12)
C26_2 C 0.2838(13) 0.4997(5) 0.0340(14)
H18_2 H 0.2261 0.4772 0.0325
C27_3 C 0.3709(14) 0.5803(6) 0.0992(17)
H19_3 H 0.3737 0.6146 0.1417
C28_3 C 0.4558(14) 0.5618(6) 0.0551(15)
H20_2 H 0.5146 0.5841 0.0645
Zn2 Zn 0.15238(15) 0.58877(5) 0.13243(17)
O1_3 O 0.2231(9) 0.6199(4) 0.3369(11)
O2_3 O 0.2482(9) 0.6940(4) 0.2114(10)
O3_3 O 0.0614(8) 0.5286(3) 0.1835(10)
C1_3 C 0.2521(16) 0.6684(8) 0.335(2)
C2_3 C 0.3005(14) 0.6926(6) 0.4832(17)
C3_3 C 0.3348(12) 0.7454(5) 0.4976(14)
H1_3 H 0.3305 0.7658 0.4070
C4_3 C 0.3751(13) 0.7682(6) 0.6436(15)
H2_3 H 0.3965 0.8039 0.6499
C5_3 C 0.3842(17) 0.7391(6) 0.7802(19)
C6_3 C 0.3496(17) 0.6876(7) 0.7651(18)
H3_3 H 0.3528 0.6676 0.8562
C7_3 C 0.3114(13) 0.6642(6) 0.6250(17)
H4_3 H 0.2915 0.6284 0.6215
C8_3 C 0.4286(15) 0.7616(7) 0.9373(18)
C9_3 C 0.4805(14) 0.8081(6) 0.9641(17)
H6_3 H 0.4884 0.8280 0.8772
O4_3 O 0.9907(8) 0.3915(3) 0.6693(10)
C15_3 C 0.9815(13) 0.4394(6) 0.6983(18)
C16_3 C 0.8945(12) 0.4623(6) 0.7563(15)
C17_3 C 0.8181(12) 0.4255(6) 0.7802(16)
H11_3 H 0.8247 0.3893 0.7602
C18_3 C 0.7327(13) 0.4443(6) 0.8343(15)
H12_3 H 0.6815 0.4202 0.8503
C19_3 C 0.7215(14) 0.4977(6) 0.8648(19)
C20_2 C 0.7962(15) 0.5331(6) 0.8360(18)
H13_2 H 0.7898 0.5694 0.8550
C21_2 C 0.8822(14) 0.5144(6) 0.7778(19)
H14_2 H 0.9307 0.5387 0.7543
C22_2 C 0.6335(13) 0.5171(5) 0.9220(17)
H15_2 H 0.6351 0.5531 0.9490
C23_3 C 0.5485(14) 0.4888(7) 0.9412(18)
H16_3 H 0.5469 0.4525 0.9174
C24_2 C 0.4604(12) 0.5103(5) 0.9953(14)
C25_2 C 0.3721(12) 0.4790(6) 0.9836(17)
H17_2 H 0.3700 0.4445 0.9429
N1_2 N 0.6090(10) 0.8774(5) 0.4186(14)
H5_2 H 0.4202 0.7421 0.0243
C10_3 C 0.5262(14) 0.8301(6) 0.1232(19)
C11_3 C 0.5224(17) 0.8042(6) 0.2574(17)
H7_2 H 0.4909 0.7705 0.2517
C12_3 C 0.5658(17) 0.8276(7) 0.407(2)
H8_3 H 0.5647 0.8086 0.4985
C13_3 C 0.6045(11) 0.9019(5) 0.2843(13)
H9_3 H 0.6289 0.9371 0.2913
C14_3 C 0.5685(12) 0.8821(5) 0.1364(15)
H10_3 H 0.5716 0.9021 0.0476
Zn3_2 Zn 0.65238(15) 0.91123(5) 0.63243(17)
O1_4 O 0.7231(9) 0.8801(4) 0.8369(11)
O2_4 O 0.7482(9) 0.8060(4) 0.7114(10)
O3_4 O 0.5614(8) 0.9714(3) 0.6835(10)
O4_4 O 0.4907(8) 0.8915(3) 0.6693(10)
C1_4 C 0.7521(16) 0.8316(8) 0.835(2)
C2_4 C 0.8005(14) 0.8074(6) 0.9832(17)
C3_4 C 0.8348(12) 0.7546(5) 0.9976(14)
H1_4 H 0.8305 0.7342 0.9070
C15_4 C 0.4815(13) 0.9394(6) 0.6983(18)
C16_4 C 0.3945(12) 0.9623(6) 0.7563(15)
C17_4 C 0.3181(12) 0.9255(6) 0.7802(16)
H11_4 H 0.3247 0.8893 0.7602
C18_4 C 0.2327(13) 0.9443(6) 0.8343(15)
H12_4 H 0.1815 0.9202 0.8503
C19_4 C 0.2215(14) 0.9977(6) 0.8648(19)
C23_4 C 0.0485(14) 0.9888(7) 0.9412(18)
H16_4 H 0.0469 0.9525 0.9174
N4_2 N 0.7799(9) 0.9489(5) 0.5846(12)
C24_3 C 0.9604(12) 0.9897(5) 0.4953(14)
C27_4 C 0.8709(14) 0.9197(6) 0.5992(17)
H19_4 H 0.8737 0.8854 0.6417
C28_4 C 0.9558(14) 0.9382(6) 0.5551(15)
N3_2 N 0.1090(10) 0.6226(5) 0.9186(14)
C10_4 C 0.0262(14) 0.6699(6) 0.6232(19)
C11_4 C 0.0224(17) 0.6958(6) 0.7574(17)
C12_4 C 0.0658(17) 0.6724(7) 0.907(2)
H8_4 H 0.0647 0.6914 0.9985
C13_4 C 0.1045(11) 0.5981(5) 0.7843(13)
H9_4 H 0.1289 0.5629 0.7913
C14_4 C 0.0685(12) 0.6179(5) 0.6364(15)
H10_4 H 0.0716 0.5979 0.5476
H20_3 H 0.0146 0.0841 0.0645
C20_3 C 0.2962(15) 0.0331(6) 0.8360(18)
H13_3 H 0.2898 0.0694 0.8550
C21_3 C 0.3822(14) 0.0144(6) 0.7778(19)
H14_3 H 0.4307 0.0387 0.7543
C22_3 C 0.1335(13) 0.0171(5) 0.9220(17)
H15_3 H 0.1351 0.0531 0.9490
C4_4 C 0.8751(13) 0.7318(6) 0.1436(15)
H2_4 H 0.8965 0.6961 0.1499
C5_4 C 0.8842(17) 0.7609(6) 0.2802(19)
C6_4 C 0.8496(17) 0.8124(7) 0.2651(18)
H3_4 H 0.8528 0.8324 0.3562
C7_4 C 0.8114(13) 0.8358(6) 0.1250(17)
H4_4 H 0.7915 0.8716 0.1215
C8_4 C 0.9286(15) 0.7384(7) 0.4373(18)
H5_3 H 0.9202 0.7579 0.5243
C9_4 C 0.9805(14) 0.6919(6) 0.4641(17)
H6_4 H 0.9884 0.6720 0.3772
H7_3 H 0.9909 0.7295 0.7517
C24_4 C 0.9604(12) 0.0103(5) 0.9953(14)
C26_3 C 0.7838(13) 0.9997(5) 0.0340(14)
H18_3 H 0.7261 0.9772 0.0325
C25_3 C 0.8721(12) 0.9790(6) 0.9836(17)
H17_3 H 0.8700 0.9445 0.9429
H5_4 H 0.9202 0.2421 0.0243
H7_4 H 0.9909 0.2705 0.2517
C20_4 C 0.2962(15) 0.9669(6) 0.3360(18)
H13_4 H 0.2898 0.9306 0.3550
C21_4 C 0.3822(14) 0.9856(6) 0.2778(19)
H14_4 H 0.4307 0.9613 0.2543
C22_4 C 0.1335(13) 0.9829(5) 0.4220(17)
H15_4 H 0.1351 0.9469 0.4490
H20_4 H 0.0146 0.9159 0.5645
C25_4 C 0.8721(12) 0.0210(6) 0.4836(17)
H17_4 H 0.8700 0.0555 0.4429
C26_4 C 0.7838(13) 0.0003(5) 0.5340(14)
H18_4 H 0.7261 0.0228 0.5325
loop_
_geom_bond_atom_site_label_1
_geom_bond_atom_site_label_2
_geom_bond_site_symmetry_1
_geom_bond_site_symmetry_2
C27 N2 1_555 1_555
H19 C27 1_555 1_555
Zn3 N2 1_555 1_555
C27 C28 1_555 1_555
Zn3 O1 1_555 1_555
O1 C1 1_555 1_555
O2 C1 1_555 1_555
O3 Zn3 1_555 1_555
O4 Zn3 1_555 1_555
C1 C2 1_555 1_555
C2 C3 1_555 1_555
C3 H1 1_555 1_555
C4 C3 1_555 1_555
H2 C4 1_555 1_555
C5 C4 1_555 1_555
C6 C5 1_555 1_555
H3 C6 1_555 1_555
C7 C2 1_555 1_555
H4 C7 1_555 1_555
C8 C5 1_555 1_555
C9 C8 1_555 1_555
H6 C9 1_555 1_555
C15 O3 1_555 1_555
C16 C15 1_555 1_555
C17 C16 1_555 1_555
H11 C17 1_555 1_555
C18 C17 1_555 1_555
H12 C18 1_555 1_555
C19 C18 1_555 1_555
H16 C23 1_555 1_555
O4 C15 1_555 1_555
C6 C7 1_555 1_555
N1 C12 1_555 1_555
H2_2 C4_2 1_555 1_555
C5_2 C4_2 1_555 1_555
C6_2 C5_2 1_555 1_555
H3_2 C6_2 1_555 1_555
H4_2 C7_2 1_555 1_555
C8_2 C5_2 1_555 1_555
H5 C8_2 1_555 1_555
C9_2 C8_2 1_555 1_555
H6_2 C9_2 1_555 1_555
C10 C9_2 1_555 1_555
C11 C10 1_555 1_555
H7 C11 1_555 1_555
C12 C11 1_555 1_555
H8 C12 1_555 1_555
C13 N1 1_555 1_555
H9 C13 1_555 1_555
C14 C10 1_555 1_555
H10 C14 1_555 1_555
C6_2 C7_2 1_555 1_555
C13 C14 1_555 1_555
Zn1 O1_2 1_555 1_555
O1_2 C1_2 1_555 1_555
O2_2 C1_2 1_555 1_555
O3_2 Zn1 1_555 1_555
C1_2 C2_2 1_555 1_555
C2_2 C3_2 1_555 1_555
C3_2 H1_2 1_555 1_555
N3 Zn1 1_555 1_555
N4 Zn1 1_555 1_555
N4 C26 1_555 1_555
C16_2 C15_2 1_555 1_555
C17_2 C16_2 1_555 1_555
H11_2 C17_2 1_555 1_555
C18_2 C17_2 1_555 1_555
H12_2 C18_2 1_555 1_555
C19_2 C18_2 1_555 1_555
C20 C19_2 1_555 1_555
H13 C20 1_555 1_555
C21 C16_2 1_555 1_555
H14 C21 1_555 1_555
C22 C19_2 1_555 1_555
H15 C22 1_555 1_555
C23_2 C22 1_555 1_555
H16_2 C23_2 1_555 1_555
C24 C23_2 1_555 1_555
C25 C24 1_555 1_555
H17 C25 1_555 1_555
C26 C25 1_555 1_555
H18 C26 1_555 1_555
C27_2 N4 1_555 1_555
H19_2 C27_2 1_555 1_555
C28_2 C24 1_555 1_555
H20 C28_2 1_555 1_555
O4_2 C15_2 1_555 1_555
C20 C21 1_555 1_555
C27_2 C28_2 1_555 1_555
N3 C12_2 1_555 1_555
C11_2 C10_2 1_555 1_555
C12_2 C11_2 1_555 1_555
H8_2 C12_2 1_555 1_555
C13_2 N3 1_555 1_555
H9_2 C13_2 1_555 1_555
C14_2 C10_2 1_555 1_555
H10_2 C14_2 1_555 1_555
C13_2 C14_2 1_555 1_555
N2_2 C26_2 1_555 1_555
H18_2 C26_2 1_555 1_555
C27_3 N2_2 1_555 1_555
H19_3 C27_3 1_555 1_555
H20_2 C28_3 1_555 1_555
Zn2 N2_2 1_555 1_555
C27_3 C28_3 1_555 1_555
Zn2 O1_3 1_555 1_555
O1_3 C1_3 1_555 1_555
O2_3 C1_3 1_555 1_555
O3_3 Zn2 1_555 1_555
C1_3 C2_3 1_555 1_555
C2_3 C3_3 1_555 1_555
C3_3 H1_3 1_555 1_555
C4_3 C3_3 1_555 1_555
H2_3 C4_3 1_555 1_555
C5_3 C4_3 1_555 1_555
C6_3 C5_3 1_555 1_555
H3_3 C6_3 1_555 1_555
C7_3 C2_3 1_555 1_555
H4_3 C7_3 1_555 1_555
C8_3 C5_3 1_555 1_555
C9_3 C8_3 1_555 1_555
H6_3 C9_3 1_555 1_555
C6_3 C7_3 1_555 1_555
C16_3 C15_3 1_555 1_555
C17_3 C16_3 1_555 1_555
H11_3 C17_3 1_555 1_555
C18_3 C17_3 1_555 1_555
H12_3 C18_3 1_555 1_555
C19_3 C18_3 1_555 1_555
C20_2 C19_3 1_555 1_555
H13_2 C20_2 1_555 1_555
C21_2 C16_3 1_555 1_555
H14_2 C21_2 1_555 1_555
C22_2 C19_3 1_555 1_555
H15_2 C22_2 1_555 1_555
C23_3 C22_2 1_555 1_555
H16_3 C23_3 1_555 1_555
C24_2 C23_3 1_555 1_555
C25_2 C24_2 1_555 1_555
H17_2 C25_2 1_555 1_555
O4_3 C15_3 1_555 1_555
C20_2 C21_2 1_555 1_555
N1_2 C12_3 1_555 1_555
C11_3 C10_3 1_555 1_555
H7_2 C11_3 1_555 1_555
C12_3 C11_3 1_555 1_555
H8_3 C12_3 1_555 1_555
C13_3 N1_2 1_555 1_555
H9_3 C13_3 1_555 1_555
C14_3 C10_3 1_555 1_555
H10_3 C14_3 1_555 1_555
Zn3_2 N1_2 1_555 1_555
C13_3 C14_3 1_555 1_555
Zn3_2 O1_4 1_555 1_555
O1_4 C1_4 1_555 1_555
O2_4 C1_4 1_555 1_555
O3_4 Zn3_2 1_555 1_555
O4_4 Zn3_2 1_555 1_555
C1_4 C2_4 1_555 1_555
C2_4 C3_4 1_555 1_555
C3_4 H1_4 1_555 1_555
C15_4 O3_4 1_555 1_555
C16_4 C15_4 1_555 1_555
C17_4 C16_4 1_555 1_555
H11_4 C17_4 1_555 1_555
C18_4 C17_4 1_555 1_555
H12_4 C18_4 1_555 1_555
C19_4 C18_4 1_555 1_555
H16_4 C23_4 1_555 1_555
N4_2 Zn3_2 1_555 1_555
O4_4 C15_4 1_555 1_555
C27_4 N4_2 1_555 1_555
H19_4 C27_4 1_555 1_555
C28_4 C24_3 1_555 1_555
C27_4 C28_4 1_555 1_555
N3_2 C12_4 1_555 1_555
C11_4 C10_4 1_555 1_555
C12_4 C11_4 1_555 1_555
H8_4 C12_4 1_555 1_555
C13_4 N3_2 1_555 1_555
H9_4 C13_4 1_555 1_555
C14_4 C10_4 1_555 1_555
H10_4 C14_4 1_555 1_555
C13_4 C14_4 1_555 1_555
H13_3 C20_3 1_555 1_555
H14_3 C21_3 1_555 1_555
H15_3 C22_3 1_555 1_555
C20_3 C21_3 1_555 1_555
H2_4 C4_4 1_555 1_555
C5_4 C4_4 1_555 1_555
C6_4 C5_4 1_555 1_555
H3_4 C6_4 1_555 1_555
H4_4 C7_4 1_555 1_555
C8_4 C5_4 1_555 1_555
H5_3 C8_4 1_555 1_555
C9_4 C8_4 1_555 1_555
H6_4 C9_4 1_555 1_555
C6_4 C7_4 1_555 1_555
H18_3 C26_3 1_555 1_555
H17_3 C25_3 1_555 1_555
H13_4 C20_4 1_555 1_555
H14_4 C21_4 1_555 1_555
H15_4 C22_4 1_555 1_555
C20_4 C21_4 1_555 1_555
H17_4 C25_4 1_555 1_555
C26_4 C25_4 1_555 1_555
H18_4 C26_4 1_555 1_555

#END
