
###############################################################################
#
# This file contains modified crystal structure data generated from the
# MOF subset of the Cambridge Structural Database (CSD) v543 
# hosted by the Cambridge Crystallographic Data Centre (CCDC).
#
# This work is licensed under the Creative Commons
# Attribution-NonCommercial-ShareAlike 4.0 International License.
# To view a copy of this license, visit
# http://creativecommons.org/licenses/by-nc-sa/4.0/
# or send a letter to
# Creative Commons, PO Box 1866, Mountain View, CA 94042, USA.
#
# CIF created using the CSD Python API on 29 September 2022
# The structure has been converted into the P1 space group
# The structure has a 3D framework
# The original CSD entry UVAROZ is in the monoclinic crystal system
# The framework has been calculated to contain at least 10.0% void space
# The void calculation uses a probe of radius 1.32A, grid spacing 0.4
#
###############################################################################

data_UVAROZ
_chemical_formula_moiety         '(C112 H80 N8 O16 Zn2)n'
_symmetry_cell_setting           triclinic
_symmetry_space_group_name_H-M   'P 1'
_symmetry_Int_Tables_number      1
_space_group_name_Hall           'P 1'
loop_
_symmetry_equiv_pos_site_id
_symmetry_equiv_pos_as_xyz
1 x,y,z
_cell_length_a                   13.187(8)
_cell_length_b                   24.889(18)
_cell_length_c                   8.666(5)
_cell_angle_alpha                90
_cell_angle_beta                 102.644(11)
_cell_angle_gamma                90
_cell_volume                     2775.3
loop_
_atom_site_label
_atom_site_type_symbol
_atom_site_fract_x
_atom_site_fract_y
_atom_site_fract_z
Zn1 Zn 0.51229(11) 0.41180(4) 0.20155(14)
O2 O 0.4149(8) 0.3064(3) 0.1256(10)
N2 N 0.3823(8) 0.4506(4) 0.2557(10)
C22 C 0.0324(10) 0.4806(5) 0.4146(13)
H15 H 0.0327 0.4433 0.3916
C23 C 0.1131(11) 0.5093(5) 0.3927(15)
H16 H 0.1114 0.5468 0.4125
C24 C 0.2054(10) 0.4885(5) 0.3406(13)
C25 C 0.2088(10) 0.4359(4) 0.2872(14)
H17 H 0.1519 0.4119 0.2806
C26 C 0.2994(11) 0.4205(5) 0.2443(14)
H18 H 0.3019 0.3853 0.2031
C27 C 0.3818(10) 0.5011(4) 0.3099(13)
H19 H 0.4415 0.5233 0.3216
C28 C 0.2908(10) 0.5197(5) 0.3487(12)
H20 H 0.2884 0.5559 0.3822
O5 O 0.6032(6) 0.4724(3) 0.1450(11)
O6 O 0.6760(7) 0.3917(3) 0.1657(10)
N3 N 0.5568(8) 0.3770(4) 0.4164(11)
C15 C 0.6754(11) 0.4407(5) 0.1268(18)
C16 C 0.7684(10) 0.4614(5) 0.0752(14)
C17 C 0.7778(11) 0.5157(5) 0.0397(15)
H11 H 0.7249 0.5404 0.0509
C20 C 0.9305(10) 0.4446(4) 0.0053(14)
C21 C 0.8471(10) 0.4259(5) 0.0553(15)
H14 H 0.8418 0.3887 0.0770
H3 H 0.8124 0.1671 0.9669
C8 C 0.7328(11) 0.2604(5) 0.8991(16)
H5 H 0.7421 0.2400 0.8106
C9 C 0.6786(10) 0.3066(5) 0.8682(14)
H6 H 0.6665 0.3261 0.9567
C10 C 0.6365(10) 0.3296(5) 0.7119(16)
C11 C 0.5971(10) 0.3813(5) 0.7012(13)
H7 H 0.5962 0.4017 0.7934
C12 C 0.5578(9) 0.4028(4) 0.5473(14)
H8 H 0.5306 0.4382 0.5399
C13 C 0.5944(11) 0.3256(5) 0.4271(17)
H9 H 0.5915 0.3056 0.3329
C14 C 0.6360(11) 0.3023(5) 0.5693(16)
H10 H 0.6649 0.2673 0.5722
O1 O 0.4471(7) 0.3801(3) 0.9957(10)
C1 C 0.4141(10) 0.3325(5) 0.9985(15)
C2 C 0.3646(11) 0.3071(5) 0.8434(15)
C3 C 0.3283(10) 0.2553(5) 0.8372(14)
H1 H 0.3354 0.2350 0.9317
C4 C 0.2811(10) 0.2327(5) 0.6925(15)
H2 H 0.2511 0.1979 0.6890
C5 C 0.2777(11) 0.2609(5) 0.5525(15)
C6 C 0.3160(11) 0.3127(5) 0.5610(16)
H3_2 H 0.3124 0.3329 0.4669
C7 C 0.3606(10) 0.3359(5) 0.7102(15)
H4 H 0.3875 0.3714 0.7162
C8_2 C 0.2328(11) 0.2396(5) 0.3991(16)
H5_2 H 0.2421 0.2600 0.3106
C9_2 C 0.1786(10) 0.1934(5) 0.3682(14)
H6_2 H 0.1665 0.1739 0.4567
C10_2 C 0.1365(10) 0.1704(5) 0.2119(16)
C11_2 C 0.0971(10) 0.1187(5) 0.2012(13)
H7_2 H 0.0962 0.0983 0.2934
C12_2 C 0.0578(9) 0.0972(4) 0.0473(14)
H8_2 H 0.0306 0.0618 0.0399
C14_2 C 0.1360(11) 0.1977(5) 0.0693(16)
H10_2 H 0.1649 0.2327 0.0722
N1 N 0.0568(8) 0.1230(4) 0.9164(11)
C13_2 C 0.0944(11) 0.1744(5) 0.9271(17)
H9_2 H 0.0915 0.1944 0.8329
Zn3 Zn 0.01229(11) 0.08820(4) 0.70155(14)
O3 O 0.1032(6) 0.0276(3) 0.6450(11)
O4 O 0.1760(7) 0.1083(3) 0.6657(10)
C15_2 C 0.1754(11) 0.0593(5) 0.6268(18)
C16_2 C 0.2684(10) 0.0386(5) 0.5752(14)
C19 C 0.4429(11) 0.0014(5) 0.4710(13)
C20_2 C 0.4305(10) 0.0554(4) 0.5053(14)
H13 H 0.4830 0.0801 0.4929
C21_2 C 0.3471(10) 0.0741(5) 0.5553(15)
H14_2 H 0.3418 0.1113 0.5770
C23_2 C 0.6131(11) 0.0093(5) 0.3927(15)
H16_2 H 0.6114 0.0468 0.4125
C27_2 C 0.8818(10) 0.0011(4) 0.3099(13)
H19_2 H 0.9415 0.0233 0.3216
C28_2 C 0.7908(10) 0.0197(5) 0.3487(12)
H20_2 H 0.7884 0.0559 0.3822
O3_2 O 0.6032(6) 0.5276(3) 0.6450(11)
O4_2 O 0.6760(7) 0.6083(3) 0.6657(10)
C15_3 C 0.6754(11) 0.5593(5) 0.6268(18)
C16_3 C 0.7684(10) 0.5386(5) 0.5752(14)
C17_2 C 0.7778(11) 0.4843(5) 0.5397(15)
H11_2 H 0.7249 0.4596 0.5509
C18 C 0.8652(10) 0.4662(5) 0.4878(14)
H12 H 0.8711 0.4292 0.4638
C19_2 C 0.9429(11) 0.5014(5) 0.4710(13)
C20_3 C 0.9305(10) 0.5554(4) 0.5053(14)
H13_2 H 0.9830 0.5801 0.4929
C21_3 C 0.8471(10) 0.5741(5) 0.5553(15)
H14_3 H 0.8418 0.6113 0.5770
Zn2 Zn 0.51229(11) 0.58820(4) 0.70155(14)
O1_2 O 0.4471(7) 0.6199(3) 0.4957(10)
O2_2 O 0.4149(8) 0.6936(3) 0.6256(10)
N2_2 N 0.3823(8) 0.5494(4) 0.7557(10)
C1_2 C 0.4141(10) 0.6675(5) 0.4985(15)
C2_2 C 0.3646(11) 0.6929(5) 0.3434(15)
C3_2 C 0.3283(10) 0.7447(5) 0.3372(14)
H1_2 H 0.3354 0.7650 0.4317
C4_2 C 0.2811(10) 0.7673(5) 0.1925(15)
H2_2 H 0.2511 0.8021 0.1890
C5_2 C 0.2777(11) 0.7391(5) 0.0525(15)
C6_2 C 0.3160(11) 0.6873(5) 0.0610(16)
C7_2 C 0.3606(10) 0.6641(5) 0.2102(15)
H4_2 H 0.3875 0.6286 0.2162
C22_2 C 0.0324(10) 0.5194(5) 0.9146(13)
H15_2 H 0.0327 0.5567 0.8916
C23_3 C 0.1131(11) 0.4907(5) 0.8927(15)
H16_3 H 0.1114 0.4532 0.9125
C24_2 C 0.2054(10) 0.5115(5) 0.8406(13)
C25_2 C 0.2088(10) 0.5641(4) 0.7872(14)
H17_2 H 0.1519 0.5881 0.7806
C26_2 C 0.2994(11) 0.5795(5) 0.7443(14)
H18_2 H 0.3019 0.6147 0.7031
C27_3 C 0.3818(10) 0.4989(4) 0.8099(13)
H19_3 H 0.4415 0.4767 0.8216
C28_3 C 0.2908(10) 0.4803(5) 0.8487(12)
H20_3 H 0.2884 0.4441 0.8822
N3_2 N 0.5568(8) 0.6230(4) 0.9164(11)
C13_3 C 0.5944(11) 0.6744(5) 0.9271(17)
H9_3 H 0.5915 0.6944 0.8329
N1_2 N 0.0568(8) 0.8770(4) 0.4164(11)
H3_3 H 0.3124 0.6671 0.9669
C8_3 C 0.2328(11) 0.7604(5) 0.8991(16)
H5_3 H 0.2421 0.7400 0.8106
C9_3 C 0.1786(10) 0.8066(5) 0.8682(14)
H6_3 H 0.1665 0.8261 0.9567
C10_3 C 0.1365(10) 0.8296(5) 0.7119(16)
C11_3 C 0.0971(10) 0.8813(5) 0.7012(13)
H7_3 H 0.0962 0.9017 0.7934
C12_3 C 0.0578(9) 0.9028(4) 0.5473(14)
H8_3 H 0.0306 0.9382 0.5399
C13_4 C 0.0944(11) 0.8256(5) 0.4271(17)
H9_4 H 0.0915 0.8056 0.3329
C14_3 C 0.1360(11) 0.8023(5) 0.5693(16)
H10_3 H 0.1649 0.7673 0.5722
Zn3_2 Zn 0.01229(11) 0.91180(4) 0.20155(14)
O5_2 O 0.1032(6) 0.9724(3) 0.1450(11)
O6_2 O 0.1760(7) 0.8917(3) 0.1657(10)
C15_4 C 0.1754(11) 0.9407(5) 0.1268(18)
C16_4 C 0.2684(10) 0.9614(5) 0.0752(14)
C20_4 C 0.4305(10) 0.9446(4) 0.0053(14)
C21_4 C 0.3471(10) 0.9259(5) 0.0553(15)
H14_4 H 0.3418 0.8887 0.0770
C18_2 C 0.8652(10) 0.5338(5) 0.9878(14)
H12_2 H 0.8711 0.5708 0.9638
C19_3 C 0.9429(11) 0.4986(5) 0.9710(13)
H13_3 H 0.9830 0.4199 0.9929
O2_3 O 0.9149(8) 0.8064(3) 0.1256(10)
N2_3 N 0.8823(8) 0.9506(4) 0.2557(10)
C17_3 C 0.2778(11) 0.9843(5) 0.5397(15)
H11_3 H 0.2249 0.9596 0.5509
C18_3 C 0.3652(10) 0.9662(5) 0.4878(14)
H12_3 H 0.3711 0.9292 0.4638
C22_3 C 0.5324(10) 0.9806(5) 0.4146(13)
H15_3 H 0.5327 0.9433 0.3916
C24_3 C 0.7054(10) 0.9885(5) 0.3406(13)
C25_3 C 0.7088(10) 0.9359(4) 0.2872(14)
H17_3 H 0.6519 0.9119 0.2806
C26_3 C 0.7994(11) 0.9205(5) 0.2443(14)
H18_3 H 0.8019 0.8853 0.2031
O1_3 O 0.9471(7) 0.8801(3) 0.9957(10)
C1_3 C 0.9141(10) 0.8325(5) 0.9985(15)
C2_3 C 0.8646(11) 0.8071(5) 0.8434(15)
C3_3 C 0.8283(10) 0.7553(5) 0.8372(14)
H1_3 H 0.8354 0.7350 0.9317
C4_3 C 0.7811(10) 0.7327(5) 0.6925(15)
H2_3 H 0.7511 0.6979 0.6890
C5_3 C 0.7777(11) 0.7609(5) 0.5525(15)
C6_3 C 0.8160(11) 0.8127(5) 0.5610(16)
H3_4 H 0.8124 0.8329 0.4669
C7_3 C 0.8606(10) 0.8359(5) 0.7102(15)
H4_3 H 0.8875 0.8714 0.7162
C8_4 C 0.7328(11) 0.7396(5) 0.3991(16)
H5_4 H 0.7421 0.7600 0.3106
C9_4 C 0.6786(10) 0.6934(5) 0.3682(14)
H6_4 H 0.6665 0.6739 0.4567
C10_4 C 0.6365(10) 0.6704(5) 0.2119(16)
C11_4 C 0.5971(10) 0.6187(5) 0.2012(13)
H7_4 H 0.5962 0.5983 0.2934
C12_4 C 0.5578(9) 0.5972(4) 0.0473(14)
H8_4 H 0.5306 0.5618 0.0399
C14_4 C 0.6360(11) 0.6977(5) 0.0693(16)
H10_4 H 0.6649 0.7327 0.0722
C17_4 C 0.2778(11) 0.0157(5) 0.0397(15)
H11_4 H 0.2249 0.0404 0.0509
O1_4 O 0.9471(7) 0.1199(3) 0.4957(10)
O2_4 O 0.9149(8) 0.1936(3) 0.6256(10)
N2_4 N 0.8823(8) 0.0494(4) 0.7557(10)
C1_4 C 0.9141(10) 0.1675(5) 0.4985(15)
C2_4 C 0.8646(11) 0.1929(5) 0.3434(15)
C3_4 C 0.8283(10) 0.2447(5) 0.3372(14)
H1_4 H 0.8354 0.2650 0.4317
C4_4 C 0.7811(10) 0.2673(5) 0.1925(15)
H2_4 H 0.7511 0.3021 0.1890
C5_4 C 0.7777(11) 0.2391(5) 0.0525(15)
C6_4 C 0.8160(11) 0.1873(5) 0.0610(16)
C7_4 C 0.8606(10) 0.1641(5) 0.2102(15)
H4_4 H 0.8875 0.1286 0.2162
C18_4 C 0.3652(10) 0.0338(5) 0.9878(14)
H12_4 H 0.3711 0.0708 0.9638
C22_4 C 0.5324(10) 0.0194(5) 0.9146(13)
H15_4 H 0.5327 0.0567 0.8916
C24_4 C 0.7054(10) 0.0115(5) 0.8406(13)
C25_4 C 0.7088(10) 0.0641(4) 0.7872(14)
H17_4 H 0.6519 0.0881 0.7806
C26_4 C 0.7994(11) 0.0795(5) 0.7443(14)
H18_4 H 0.8019 0.1147 0.7031
C19_4 C 0.4429(11) 0.9986(5) 0.9710(13)
H13_4 H 0.4830 0.9199 0.9929
C23_4 C 0.6131(11) 0.9907(5) 0.8927(15)
H16_4 H 0.6114 0.9532 0.9125
C27_4 C 0.8818(10) 0.9989(4) 0.8099(13)
H19_4 H 0.9415 0.9767 0.8216
C28_4 C 0.7908(10) 0.9803(5) 0.8487(12)
H20_4 H 0.7884 0.9441 0.8822
loop_
_geom_bond_atom_site_label_1
_geom_bond_atom_site_label_2
_geom_bond_site_symmetry_1
_geom_bond_site_symmetry_2
N2 Zn1 1_555 1_555
H15 C22 1_555 1_555
C23 C22 1_555 1_555
H16 C23 1_555 1_555
C24 C23 1_555 1_555
C25 C24 1_555 1_555
H17 C25 1_555 1_555
C26 N2 1_555 1_555
H18 C26 1_555 1_555
C27 N2 1_555 1_555
H19 C27 1_555 1_555
C28 C24 1_555 1_555
H20 C28 1_555 1_555
O5 Zn1 1_555 1_555
O6 Zn1 1_555 1_555
N3 Zn1 1_555 1_555
C25 C26 1_555 1_555
C27 C28 1_555 1_555
O5 C15 1_555 1_555
O6 C15 1_555 1_555
C15 C16 1_555 1_555
C16 C17 1_555 1_555
C17 H11 1_555 1_555
C21 C16 1_555 1_555
H14 C21 1_555 1_555
C20 C21 1_555 1_555
N3 C12 1_555 1_555
H5 C8 1_555 1_555
C9 C8 1_555 1_555
H6 C9 1_555 1_555
C10 C9 1_555 1_555
C11 C10 1_555 1_555
H7 C11 1_555 1_555
C12 C11 1_555 1_555
H8 C12 1_555 1_555
C13 N3 1_555 1_555
H9 C13 1_555 1_555
C14 C10 1_555 1_555
H10 C14 1_555 1_555
C13 C14 1_555 1_555
O1 C1 1_555 1_555
C1 C2 1_555 1_555
C2 C3 1_555 1_555
C3 H1 1_555 1_555
C4 C3 1_555 1_555
H2 C4 1_555 1_555
C5 C4 1_555 1_555
C6 C5 1_555 1_555
H3_2 C6 1_555 1_555
C7 C2 1_555 1_555
H4 C7 1_555 1_555
C8_2 C5 1_555 1_555
H5_2 C8_2 1_555 1_555
C9_2 C8_2 1_555 1_555
H6_2 C9_2 1_555 1_555
C10_2 C9_2 1_555 1_555
C11_2 C10_2 1_555 1_555
H7_2 C11_2 1_555 1_555
C12_2 C11_2 1_555 1_555
H8_2 C12_2 1_555 1_555
C14_2 C10_2 1_555 1_555
H10_2 C14_2 1_555 1_555
C6 C7 1_555 1_555
C13_2 N1 1_555 1_555
H9_2 C13_2 1_555 1_555
Zn3 N1 1_555 1_555
O3 C15_2 1_555 1_555
O4 C15_2 1_555 1_555
C15_2 C16_2 1_555 1_555
C20_2 C19 1_555 1_555
H13 C20_2 1_555 1_555
C21_2 C16_2 1_555 1_555
H14_2 C21_2 1_555 1_555
H16_2 C23_2 1_555 1_555
H19_2 C27_2 1_555 1_555
H20_2 C28_2 1_555 1_555
Zn3 O3 1_555 1_555
O4 Zn3 1_555 1_555
C20_2 C21_2 1_555 1_555
C27_2 C28_2 1_555 1_555
O3_2 C15_3 1_555 1_555
O4_2 C15_3 1_555 1_555
C15_3 C16_3 1_555 1_555
C16_3 C17_2 1_555 1_555
C17_2 H11_2 1_555 1_555
C18 C17_2 1_555 1_555
H12 C18 1_555 1_555
C19_2 C18 1_555 1_555
C20_3 C19_2 1_555 1_555
H13_2 C20_3 1_555 1_555
C21_3 C16_3 1_555 1_555
H14_3 C21_3 1_555 1_555
Zn2 O3_2 1_555 1_555
O4_2 Zn2 1_555 1_555
C20_3 C21_3 1_555 1_555
Zn2 O1_2 1_555 1_555
O1_2 C1_2 1_555 1_555
O2_2 C1_2 1_555 1_555
N2_2 Zn2 1_555 1_555
C1_2 C2_2 1_555 1_555
C2_2 C3_2 1_555 1_555
C3_2 H1_2 1_555 1_555
C4_2 C3_2 1_555 1_555
H2_2 C4_2 1_555 1_555
C5_2 C4_2 1_555 1_555
C6_2 C5_2 1_555 1_555
C7_2 C2_2 1_555 1_555
H4_2 C7_2 1_555 1_555
H15_2 C22_2 1_555 1_555
C23_3 C22_2 1_555 1_555
H16_3 C23_3 1_555 1_555
C24_2 C23_3 1_555 1_555
C25_2 C24_2 1_555 1_555
H17_2 C25_2 1_555 1_555
C26_2 N2_2 1_555 1_555
H18_2 C26_2 1_555 1_555
C27_3 N2_2 1_555 1_555
H19_3 C27_3 1_555 1_555
C28_3 C24_2 1_555 1_555
H20_3 C28_3 1_555 1_555
N3_2 Zn2 1_555 1_555
C6_2 C7_2 1_555 1_555
C25_2 C26_2 1_555 1_555
C27_3 C28_3 1_555 1_555
C13_3 N3_2 1_555 1_555
H9_3 C13_3 1_555 1_555
N1_2 C12_3 1_555 1_555
H5_3 C8_3 1_555 1_555
C9_3 C8_3 1_555 1_555
H6_3 C9_3 1_555 1_555
C10_3 C9_3 1_555 1_555
C11_3 C10_3 1_555 1_555
H7_3 C11_3 1_555 1_555
C12_3 C11_3 1_555 1_555
H8_3 C12_3 1_555 1_555
C13_4 N1_2 1_555 1_555
H9_4 C13_4 1_555 1_555
C14_3 C10_3 1_555 1_555
H10_3 C14_3 1_555 1_555
Zn3_2 N1_2 1_555 1_555
C13_4 C14_3 1_555 1_555
O5_2 Zn3_2 1_555 1_555
O6_2 Zn3_2 1_555 1_555
O5_2 C15_4 1_555 1_555
O6_2 C15_4 1_555 1_555
C15_4 C16_4 1_555 1_555
C21_4 C16_4 1_555 1_555
H14_4 C21_4 1_555 1_555
C20_4 C21_4 1_555 1_555
H12_2 C18_2 1_555 1_555
C19_3 C18_2 1_555 1_555
C17_3 H11_3 1_555 1_555
C18_3 C17_3 1_555 1_555
H12_3 C18_3 1_555 1_555
H15_3 C22_3 1_555 1_555
C25_3 C24_3 1_555 1_555
H17_3 C25_3 1_555 1_555
C26_3 N2_3 1_555 1_555
H18_3 C26_3 1_555 1_555
C25_3 C26_3 1_555 1_555
O1_3 C1_3 1_555 1_555
C1_3 C2_3 1_555 1_555
C2_3 C3_3 1_555 1_555
C3_3 H1_3 1_555 1_555
C4_3 C3_3 1_555 1_555
H2_3 C4_3 1_555 1_555
C5_3 C4_3 1_555 1_555
C6_3 C5_3 1_555 1_555
H3_4 C6_3 1_555 1_555
C7_3 C2_3 1_555 1_555
H4_3 C7_3 1_555 1_555
C8_4 C5_3 1_555 1_555
H5_4 C8_4 1_555 1_555
C9_4 C8_4 1_555 1_555
H6_4 C9_4 1_555 1_555
C10_4 C9_4 1_555 1_555
C11_4 C10_4 1_555 1_555
H7_4 C11_4 1_555 1_555
C12_4 C11_4 1_555 1_555
H8_4 C12_4 1_555 1_555
C14_4 C10_4 1_555 1_555
H10_4 C14_4 1_555 1_555
C6_3 C7_3 1_555 1_555
C17_4 H11_4 1_555 1_555
O1_4 C1_4 1_555 1_555
O2_4 C1_4 1_555 1_555
C1_4 C2_4 1_555 1_555
C2_4 C3_4 1_555 1_555
C3_4 H1_4 1_555 1_555
C4_4 C3_4 1_555 1_555
H2_4 C4_4 1_555 1_555
C5_4 C4_4 1_555 1_555
C6_4 C5_4 1_555 1_555
C7_4 C2_4 1_555 1_555
H4_4 C7_4 1_555 1_555
H12_4 C18_4 1_555 1_555
H15_4 C22_4 1_555 1_555
C25_4 C24_4 1_555 1_555
H17_4 C25_4 1_555 1_555
C26_4 N2_4 1_555 1_555
H18_4 C26_4 1_555 1_555
C6_4 C7_4 1_555 1_555
C25_4 C26_4 1_555 1_555
H16_4 C23_4 1_555 1_555
H19_4 C27_4 1_555 1_555
H20_4 C28_4 1_555 1_555
C27_4 C28_4 1_555 1_555

#END
