
###############################################################################
#
# This file contains modified crystal structure data generated from the
# MOF subset of the Cambridge Structural Database (CSD) v543 
# hosted by the Cambridge Crystallographic Data Centre (CCDC).
#
# This work is licensed under the Creative Commons
# Attribution-NonCommercial-ShareAlike 4.0 International License.
# To view a copy of this license, visit
# http://creativecommons.org/licenses/by-nc-sa/4.0/
# or send a letter to
# Creative Commons, PO Box 1866, Mountain View, CA 94042, USA.
#
# CIF created using the CSD Python API on 29 September 2022
# The structure has been converted into the P1 space group
# The structure has a 3D framework
# The original CSD entry UVARIT is in the monoclinic crystal system
# The framework has been calculated to contain at least 10.0% void space
# The void calculation uses a probe of radius 1.32A, grid spacing 0.4
#
###############################################################################

data_UVARIT
_chemical_formula_moiety         '(C112 H80 N8 O16 Zn2)n'
_symmetry_cell_setting           triclinic
_symmetry_space_group_name_H-M   'P 1'
_symmetry_Int_Tables_number      1
_space_group_name_Hall           'P 1'
loop_
_symmetry_equiv_pos_site_id
_symmetry_equiv_pos_as_xyz
1 x,y,z
_cell_length_a                   13.488(6)
_cell_length_b                   24.834(13)
_cell_length_c                   8.409(4)
_cell_angle_alpha                90
_cell_angle_beta                 98.917(8)
_cell_angle_gamma                90
_cell_volume                     2782.64
loop_
_atom_site_label
_atom_site_type_symbol
_atom_site_fract_x
_atom_site_fract_y
_atom_site_fract_z
N2 N 0.0829(4) 0.4484(2) 0.0772(6)
C27 C 0.0785(4) 0.4986(2) 0.1365(6)
H19 H 0.1371 0.5204 0.1489
Zn2 Zn 0.20896(5) 0.40880(2) 0.02189(7)
N3 N 0.2490(3) 0.3723(2) 0.2407(6)
C4 C 0.5179(4) 0.1862(3) 0.8752(8)
H2 H 0.5172 0.1668 0.7777
C5 C 0.4725(4) 0.2362(3) 0.8702(7)
C8 C 0.4239(4) 0.2578(3) 0.7150(7)
H5 H 0.4261 0.2360 0.6227
C9 C 0.3774(4) 0.3047(3) 0.6917(8)
H6 H 0.3728 0.3258 0.7844
C10 C 0.3321(4) 0.3269(3) 0.5355(8)
C11 C 0.3041(4) 0.3801(2) 0.5228(6)
H7 H 0.3128 0.4022 0.6160
C12 C 0.2633(4) 0.4017(2) 0.3750(6)
H8 H 0.2450 0.4387 0.3693
C13 C 0.2764(4) 0.3201(2) 0.2529(8)
H9 H 0.2668 0.2988 0.1580
C14 C 0.3171(4) 0.2963(2) 0.3943(8)
H10 H 0.3351 0.2592 0.3967
Zn1 Zn 0.20896(5) 0.59120(2) 0.52189(7)
O1 O 0.1490(3) 0.61908(17) 0.3108(5)
O2 O 0.1153(3) 0.69194(16) 0.4460(5)
O3 O 0.3027(3) 0.52909(16) 0.4750(5)
O4 O 0.3692(3) 0.61070(16) 0.4846(4)
C1 C 0.1140(4) 0.6672(3) 0.3183(7)
C2 C 0.0656(4) 0.6911(2) 0.1619(7)
C3 C 0.0641(4) 0.6637(3) 0.0171(7)
H1 H 0.0951 0.6293 0.0164
C7 C 0.0197(4) 0.7415(2) 0.1600(7)
H4 H 0.0198 0.7605 0.2580
C15 C 0.3746(4) 0.5613(2) 0.4614(7)
C16 C 0.4691(4) 0.5395(3) 0.4076(6)
C17 C 0.4790(5) 0.4858(3) 0.3718(8)
H11 H 0.4262 0.4613 0.3819
C18 C 0.5675(4) 0.4673(3) 0.3203(8)
H12 H 0.5749 0.4301 0.2993
C19 C 0.6434(5) 0.5026(2) 0.2999(7)
C20 C 0.6322(4) 0.5568(2) 0.3379(7)
H13 H 0.6848 0.5814 0.3279
C21 C 0.5471(4) 0.5750(3) 0.3890(7)
H14 H 0.5407 0.6121 0.4123
C22 C 0.7341(4) 0.4821(2) 0.2426(7)
H15 H 0.7343 0.4450 0.2148
C23 C 0.8147(4) 0.5099(2) 0.2262(7)
H16 H 0.8143 0.5471 0.2522
C24 C 0.9056(4) 0.4887(3) 0.1712(7)
C25 C 0.9085(5) 0.4371(3) 0.1076(7)
H17 H 0.8505 0.4149 0.0957
C26 C 0.9984(4) 0.4183(2) 0.0611(6)
H18 H 0.9996 0.3832 0.0167
C28 C 0.9916(4) 0.5194(2) 0.1801(7)
H20 H 0.9910 0.5556 0.2168
N3_2 N 0.2490(3) 0.6277(2) 0.7407(6)
N4 N 0.0829(4) 0.5516(2) 0.5772(6)
C27_2 C 0.0785(4) 0.5014(2) 0.6365(6)
H19_2 H 0.1371 0.4796 0.6489
C12_2 C 0.2633(4) 0.5983(2) 0.8750(6)
H8_2 H 0.2450 0.5613 0.8693
C13_2 C 0.2764(4) 0.6799(2) 0.7529(8)
H9_2 H 0.2668 0.7012 0.6580
C14_2 C 0.3171(4) 0.7037(2) 0.8943(8)
H10_2 H 0.3351 0.7408 0.8967
C4_2 C 0.0179(4) 0.6862(3) 0.8752(8)
H2_2 H 0.0172 0.6668 0.7777
C6 C 0.9742(4) 0.7640(2) 0.0168(6)
H3 H 0.9438 0.7985 0.0171
N1 N 0.7490(3) 0.8723(2) 0.2407(6)
C5_2 C 0.9725(4) 0.7362(3) 0.8702(7)
C8_2 C 0.9239(4) 0.7578(3) 0.7150(7)
H5_2 H 0.9261 0.7360 0.6227
C9_2 C 0.8774(4) 0.8047(3) 0.6917(8)
H6_2 H 0.8728 0.8258 0.7844
C10_2 C 0.8321(4) 0.8269(3) 0.5355(8)
C11_2 C 0.8041(4) 0.8801(2) 0.5228(6)
H7_2 H 0.8128 0.9022 0.6160
C12_3 C 0.7633(4) 0.9017(2) 0.3750(6)
H8_3 H 0.7450 0.9387 0.3693
C13_3 C 0.7764(4) 0.8201(2) 0.2529(8)
H9_3 H 0.7668 0.7988 0.1580
C14_3 C 0.8171(4) 0.7963(2) 0.3943(8)
H10_3 H 0.8351 0.7592 0.3967
Zn3 Zn 0.70896(5) 0.90880(2) 0.02189(7)
N2_2 N 0.5829(4) 0.9484(2) 0.0772(6)
C18_2 C 0.0675(4) 0.9673(3) 0.3203(8)
H12_2 H 0.0749 0.9301 0.2993
C22_2 C 0.2341(4) 0.9821(2) 0.2426(7)
H15_2 H 0.2343 0.9450 0.2148
C24_2 C 0.4056(4) 0.9887(3) 0.1712(7)
C25_2 C 0.4085(5) 0.9371(3) 0.1076(7)
H17_2 H 0.3505 0.9149 0.0957
C26_2 C 0.4984(4) 0.9183(2) 0.0611(6)
H18_2 H 0.4996 0.8832 0.0167
C27_3 C 0.5785(4) 0.9986(2) 0.1365(6)
O1_2 O 0.1490(3) 0.38092(17) 0.8108(5)
O2_2 O 0.1153(3) 0.30806(16) 0.9460(5)
O3_2 O 0.3027(3) 0.47091(16) 0.9750(5)
O4_2 O 0.3692(3) 0.38930(16) 0.9846(4)
C1_2 C 0.1140(4) 0.3328(3) 0.8183(7)
C2_2 C 0.0656(4) 0.3089(2) 0.6619(7)
C3_2 C 0.0641(4) 0.3363(3) 0.5171(7)
H1_2 H 0.0951 0.3707 0.5164
C4_3 C 0.0179(4) 0.3138(3) 0.3752(8)
H2_3 H 0.0172 0.3332 0.2777
C7_2 C 0.0197(4) 0.2585(2) 0.6600(7)
H4_2 H 0.0198 0.2395 0.7580
C15_2 C 0.3746(4) 0.4387(2) 0.9614(7)
C16_2 C 0.4691(4) 0.4605(3) 0.9076(6)
C17_2 C 0.4790(5) 0.5142(3) 0.8718(8)
H11_2 H 0.4262 0.5387 0.8819
C18_3 C 0.5675(4) 0.5327(3) 0.8203(8)
H12_3 H 0.5749 0.5699 0.7993
C19_2 C 0.6434(5) 0.4974(2) 0.7999(7)
C20_2 C 0.6322(4) 0.4432(2) 0.8379(7)
H13_2 H 0.6848 0.4186 0.8279
C21_2 C 0.5471(4) 0.4250(3) 0.8890(7)
H14_2 H 0.5407 0.3879 0.9123
C22_3 C 0.7341(4) 0.5179(2) 0.7426(7)
H15_3 H 0.7343 0.5550 0.7148
C23_2 C 0.8147(4) 0.4901(2) 0.7262(7)
H16_2 H 0.8143 0.4529 0.7522
C24_3 C 0.9056(4) 0.5113(3) 0.6712(7)
C25_3 C 0.9085(5) 0.5629(3) 0.6076(7)
H17_3 H 0.8505 0.5851 0.5957
C26_3 C 0.9984(4) 0.5817(2) 0.5611(6)
H18_3 H 0.9996 0.6168 0.5167
C28_2 C 0.9916(4) 0.4806(2) 0.6801(7)
H20_2 H 0.9910 0.4444 0.7168
C5_3 C 0.9725(4) 0.2638(3) 0.3702(7)
C6_2 C 0.9742(4) 0.2360(2) 0.5168(6)
H3_2 H 0.9438 0.2015 0.5171
C8_3 C 0.9239(4) 0.2422(3) 0.2150(7)
H5_3 H 0.9261 0.2640 0.1227
C9_3 C 0.8774(4) 0.1953(3) 0.1917(8)
H6_3 H 0.8728 0.1742 0.2844
C10_3 C 0.8321(4) 0.1731(3) 0.0355(8)
C11_3 C 0.8041(4) 0.1199(2) 0.0228(6)
H7_3 H 0.8128 0.0978 0.1160
N1_2 N 0.7490(3) 0.1277(2) 0.7407(6)
C12_4 C 0.7633(4) 0.0983(2) 0.8750(6)
H8_4 H 0.7450 0.0613 0.8693
C13_4 C 0.7764(4) 0.1799(2) 0.7529(8)
H9_4 H 0.7668 0.2012 0.6580
C14_4 C 0.8171(4) 0.2037(2) 0.8943(8)
H10_4 H 0.8351 0.2408 0.8967
Zn3_2 Zn 0.70896(5) 0.09120(2) 0.52189(7)
O1_3 O 0.6490(3) 0.11908(17) 0.3108(5)
O2_3 O 0.6153(3) 0.19194(16) 0.4460(5)
O3_3 O 0.8027(3) 0.02909(16) 0.4750(5)
O4_3 O 0.8692(3) 0.11070(16) 0.4846(4)
C1_3 C 0.6140(4) 0.1672(3) 0.3183(7)
C2_3 C 0.5656(4) 0.1911(2) 0.1619(7)
C3_3 C 0.5641(4) 0.1637(3) 0.0171(7)
H1_3 H 0.5951 0.1293 0.0164
C6_3 C 0.4742(4) 0.2640(2) 0.0168(6)
H3_3 H 0.4438 0.2985 0.0171
C7_3 C 0.5197(4) 0.2415(2) 0.1600(7)
H4_3 H 0.5198 0.2605 0.2580
C15_3 C 0.8746(4) 0.0613(2) 0.4614(7)
C16_3 C 0.9691(4) 0.0395(3) 0.4076(6)
N4_2 N 0.5829(4) 0.0516(2) 0.5772(6)
C18_4 C 0.0675(4) 0.0327(3) 0.8203(8)
H12_4 H 0.0749 0.0699 0.7993
C22_4 C 0.2341(4) 0.0179(2) 0.7426(7)
H15_4 H 0.2343 0.0550 0.7148
C24_4 C 0.4056(4) 0.0113(3) 0.6712(7)
C25_4 C 0.4085(5) 0.0629(3) 0.6076(7)
H17_4 H 0.3505 0.0851 0.5957
C26_4 C 0.4984(4) 0.0817(2) 0.5611(6)
H18_4 H 0.4996 0.1168 0.5167
C27_4 C 0.5785(4) 0.0014(2) 0.6365(6)
C19_3 C 0.1434(5) 0.0026(2) 0.2999(7)
C20_3 C 0.1322(4) 0.0568(2) 0.3379(7)
H13_3 H 0.1848 0.0814 0.3279
C21_3 C 0.0471(4) 0.0750(3) 0.3890(7)
H14_3 H 0.0407 0.1121 0.4123
C23_3 C 0.3147(4) 0.0099(2) 0.2262(7)
H16_3 H 0.3143 0.0471 0.2522
H19_3 H 0.6371 0.0204 0.1489
C28_3 C 0.4916(4) 0.0194(2) 0.1801(7)
H20_3 H 0.4910 0.0556 0.2168
C17_3 C 0.9790(5) 0.9858(3) 0.3718(8)
H11_3 H 0.9262 0.9613 0.3819
C19_4 C 0.1434(5) 0.9974(2) 0.7999(7)
C20_4 C 0.1322(4) 0.9432(2) 0.8379(7)
H13_4 H 0.1848 0.9186 0.8279
C21_4 C 0.0471(4) 0.9250(3) 0.8890(7)
H14_4 H 0.0407 0.8879 0.9123
C23_4 C 0.3147(4) 0.9901(2) 0.7262(7)
H16_4 H 0.3143 0.9529 0.7522
H19_4 H 0.6371 0.9796 0.6489
C28_4 C 0.4916(4) 0.9806(2) 0.6801(7)
H20_4 H 0.4910 0.9444 0.7168
C17_4 C 0.9790(5) 0.0142(3) 0.8718(8)
H11_4 H 0.9262 0.0387 0.8819
O1_4 O 0.6490(3) 0.88092(17) 0.8108(5)
O2_4 O 0.6153(3) 0.80806(16) 0.9460(5)
O3_4 O 0.8027(3) 0.97091(16) 0.9750(5)
O4_4 O 0.8692(3) 0.88930(16) 0.9846(4)
C1_4 C 0.6140(4) 0.8328(3) 0.8183(7)
C2_4 C 0.5656(4) 0.8089(2) 0.6619(7)
C3_4 C 0.5641(4) 0.8363(3) 0.5171(7)
H1_4 H 0.5951 0.8707 0.5164
C4_4 C 0.5179(4) 0.8138(3) 0.3752(8)
H2_4 H 0.5172 0.8332 0.2777
C5_4 C 0.4725(4) 0.7638(3) 0.3702(7)
C6_4 C 0.4742(4) 0.7360(2) 0.5168(6)
H3_4 H 0.4438 0.7015 0.5171
C7_4 C 0.5197(4) 0.7585(2) 0.6600(7)
H4_4 H 0.5198 0.7395 0.7580
C8_4 C 0.4239(4) 0.7422(3) 0.2150(7)
H5_4 H 0.4261 0.7640 0.1227
C9_4 C 0.3774(4) 0.6953(3) 0.1917(8)
H6_4 H 0.3728 0.6742 0.2844
C10_4 C 0.3321(4) 0.6731(3) 0.0355(8)
C11_4 C 0.3041(4) 0.6199(2) 0.0228(6)
H7_4 H 0.3128 0.5978 0.1160
C15_4 C 0.8746(4) 0.9387(2) 0.9614(7)
C16_4 C 0.9691(4) 0.9605(3) 0.9076(6)
loop_
_geom_bond_atom_site_label_1
_geom_bond_atom_site_label_2
_geom_bond_site_symmetry_1
_geom_bond_site_symmetry_2
C27 N2 1_555 1_555
H19 C27 1_555 1_555
Zn2 N2 1_555 1_555
N3 Zn2 1_555 1_555
N3 C12 1_555 1_555
H2 C4 1_555 1_555
C5 C4 1_555 1_555
C8 C5 1_555 1_555
H5 C8 1_555 1_555
C9 C8 1_555 1_555
H6 C9 1_555 1_555
C10 C9 1_555 1_555
C11 C10 1_555 1_555
H7 C11 1_555 1_555
C12 C11 1_555 1_555
H8 C12 1_555 1_555
C13 N3 1_555 1_555
H9 C13 1_555 1_555
C14 C10 1_555 1_555
H10 C14 1_555 1_555
C13 C14 1_555 1_555
Zn1 O1 1_555 1_555
O1 C1 1_555 1_555
O2 C1 1_555 1_555
O3 Zn1 1_555 1_555
O4 Zn1 1_555 1_555
C1 C2 1_555 1_555
C2 C3 1_555 1_555
C3 H1 1_555 1_555
C7 C2 1_555 1_555
H4 C7 1_555 1_555
C15 O3 1_555 1_555
C16 C15 1_555 1_555
C17 C16 1_555 1_555
H11 C17 1_555 1_555
C18 C17 1_555 1_555
H12 C18 1_555 1_555
C19 C18 1_555 1_555
C20 C19 1_555 1_555
H13 C20 1_555 1_555
C21 C16 1_555 1_555
H14 C21 1_555 1_555
C22 C19 1_555 1_555
H15 C22 1_555 1_555
C23 C22 1_555 1_555
H16 C23 1_555 1_555
C24 C23 1_555 1_555
C25 C24 1_555 1_555
H17 C25 1_555 1_555
C26 C25 1_555 1_555
H18 C26 1_555 1_555
C28 C24 1_555 1_555
H20 C28 1_555 1_555
N3_2 Zn1 1_555 1_555
N4 Zn1 1_555 1_555
O4 C15 1_555 1_555
C20 C21 1_555 1_555
C27_2 N4 1_555 1_555
H19_2 C27_2 1_555 1_555
N3_2 C12_2 1_555 1_555
H8_2 C12_2 1_555 1_555
C13_2 N3_2 1_555 1_555
H9_2 C13_2 1_555 1_555
H10_2 C14_2 1_555 1_555
C13_2 C14_2 1_555 1_555
H2_2 C4_2 1_555 1_555
H3 C6 1_555 1_555
N1 C12_3 1_555 1_555
C8_2 C5_2 1_555 1_555
H5_2 C8_2 1_555 1_555
C9_2 C8_2 1_555 1_555
H6_2 C9_2 1_555 1_555
C10_2 C9_2 1_555 1_555
C11_2 C10_2 1_555 1_555
H7_2 C11_2 1_555 1_555
C12_3 C11_2 1_555 1_555
H8_3 C12_3 1_555 1_555
C13_3 N1 1_555 1_555
H9_3 C13_3 1_555 1_555
C14_3 C10_2 1_555 1_555
H10_3 C14_3 1_555 1_555
Zn3 N1 1_555 1_555
C13_3 C14_3 1_555 1_555
N2_2 C26_2 1_555 1_555
H12_2 C18_2 1_555 1_555
H15_2 C22_2 1_555 1_555
C25_2 C24_2 1_555 1_555
H17_2 C25_2 1_555 1_555
C26_2 C25_2 1_555 1_555
H18_2 C26_2 1_555 1_555
C27_3 N2_2 1_555 1_555
Zn3 N2_2 1_555 1_555
O1_2 C1_2 1_555 1_555
O2_2 C1_2 1_555 1_555
C1_2 C2_2 1_555 1_555
C2_2 C3_2 1_555 1_555
C3_2 H1_2 1_555 1_555
C4_3 C3_2 1_555 1_555
H2_3 C4_3 1_555 1_555
C7_2 C2_2 1_555 1_555
H4_2 C7_2 1_555 1_555
C15_2 O3_2 1_555 1_555
C16_2 C15_2 1_555 1_555
C17_2 C16_2 1_555 1_555
H11_2 C17_2 1_555 1_555
C18_3 C17_2 1_555 1_555
H12_3 C18_3 1_555 1_555
C19_2 C18_3 1_555 1_555
C20_2 C19_2 1_555 1_555
H13_2 C20_2 1_555 1_555
C21_2 C16_2 1_555 1_555
H14_2 C21_2 1_555 1_555
C22_3 C19_2 1_555 1_555
H15_3 C22_3 1_555 1_555
C23_2 C22_3 1_555 1_555
H16_2 C23_2 1_555 1_555
C24_3 C23_2 1_555 1_555
C25_3 C24_3 1_555 1_555
H17_3 C25_3 1_555 1_555
C26_3 C25_3 1_555 1_555
H18_3 C26_3 1_555 1_555
C28_2 C24_3 1_555 1_555
H20_2 C28_2 1_555 1_555
O4_2 C15_2 1_555 1_555
C20_2 C21_2 1_555 1_555
C6_2 C5_3 1_555 1_555
H3_2 C6_2 1_555 1_555
C8_3 C5_3 1_555 1_555
H5_3 C8_3 1_555 1_555
C9_3 C8_3 1_555 1_555
H6_3 C9_3 1_555 1_555
C10_3 C9_3 1_555 1_555
C11_3 C10_3 1_555 1_555
H7_3 C11_3 1_555 1_555
N1_2 C12_4 1_555 1_555
H8_4 C12_4 1_555 1_555
C13_4 N1_2 1_555 1_555
H9_4 C13_4 1_555 1_555
H10_4 C14_4 1_555 1_555
Zn3_2 N1_2 1_555 1_555
C13_4 C14_4 1_555 1_555
Zn3_2 O1_3 1_555 1_555
O1_3 C1_3 1_555 1_555
O2_3 C1_3 1_555 1_555
O3_3 Zn3_2 1_555 1_555
O4_3 Zn3_2 1_555 1_555
C1_3 C2_3 1_555 1_555
C2_3 C3_3 1_555 1_555
C3_3 H1_3 1_555 1_555
H3_3 C6_3 1_555 1_555
C7_3 C2_3 1_555 1_555
H4_3 C7_3 1_555 1_555
C15_3 O3_3 1_555 1_555
C16_3 C15_3 1_555 1_555
N4_2 Zn3_2 1_555 1_555
O4_3 C15_3 1_555 1_555
C6_3 C7_3 1_555 1_555
N4_2 C26_4 1_555 1_555
H12_4 C18_4 1_555 1_555
H15_4 C22_4 1_555 1_555
C25_4 C24_4 1_555 1_555
H17_4 C25_4 1_555 1_555
C26_4 C25_4 1_555 1_555
H18_4 C26_4 1_555 1_555
C27_4 N4_2 1_555 1_555
C20_3 C19_3 1_555 1_555
H13_3 C20_3 1_555 1_555
H14_3 C21_3 1_555 1_555
H16_3 C23_3 1_555 1_555
H20_3 C28_3 1_555 1_555
C20_3 C21_3 1_555 1_555
H11_3 C17_3 1_555 1_555
C20_4 C19_4 1_555 1_555
H13_4 C20_4 1_555 1_555
H14_4 C21_4 1_555 1_555
H16_4 C23_4 1_555 1_555
H20_4 C28_4 1_555 1_555
C20_4 C21_4 1_555 1_555
H11_4 C17_4 1_555 1_555
O1_4 C1_4 1_555 1_555
O2_4 C1_4 1_555 1_555
C1_4 C2_4 1_555 1_555
C2_4 C3_4 1_555 1_555
C3_4 H1_4 1_555 1_555
C4_4 C3_4 1_555 1_555
H2_4 C4_4 1_555 1_555
C5_4 C4_4 1_555 1_555
C6_4 C5_4 1_555 1_555
H3_4 C6_4 1_555 1_555
C7_4 C2_4 1_555 1_555
H4_4 C7_4 1_555 1_555
C8_4 C5_4 1_555 1_555
H5_4 C8_4 1_555 1_555
C9_4 C8_4 1_555 1_555
H6_4 C9_4 1_555 1_555
C10_4 C9_4 1_555 1_555
C11_4 C10_4 1_555 1_555
H7_4 C11_4 1_555 1_555
C15_4 O3_4 1_555 1_555
C16_4 C15_4 1_555 1_555
O4_4 C15_4 1_555 1_555
C6_4 C7_4 1_555 1_555

#END
