
###############################################################################
#
# This file contains modified crystal structure data generated from the
# MOF subset of the Cambridge Structural Database (CSD) v543 
# hosted by the Cambridge Crystallographic Data Centre (CCDC).
#
# This work is licensed under the Creative Commons
# Attribution-NonCommercial-ShareAlike 4.0 International License.
# To view a copy of this license, visit
# http://creativecommons.org/licenses/by-nc-sa/4.0/
# or send a letter to
# Creative Commons, PO Box 1866, Mountain View, CA 94042, USA.
#
# CIF created using the CSD Python API on 29 September 2022
# The structure has been converted into the P1 space group
# The structure has a 3D framework
# The original CSD entry UVASAM is in the monoclinic crystal system
# The framework has been calculated to contain at least 10.0% void space
# The void calculation uses a probe of radius 1.32A, grid spacing 0.4
#
###############################################################################

data_UVASAM
_chemical_formula_moiety         '(C112 H80 N8 O16 Zn4)n'
_symmetry_cell_setting           triclinic
_symmetry_space_group_name_H-M   'P 1'
_symmetry_Int_Tables_number      1
_space_group_name_Hall           'P 1'
loop_
_symmetry_equiv_pos_site_id
_symmetry_equiv_pos_as_xyz
1 x,y,z
_cell_length_a                   13.507(4)
_cell_length_b                   24.837(10)
_cell_length_c                   8.406(3)
_cell_angle_alpha                90
_cell_angle_beta                 98.841(5)
_cell_angle_gamma                90
_cell_volume                     2786.48
loop_
_atom_site_label
_atom_site_type_symbol
_atom_site_fract_x
_atom_site_fract_y
_atom_site_fract_z
Zn3 Zn 0.01167(8) 0.90863(3) 0.66638(10)
O3 O 0.1064(5) 0.9709(2) 0.6208(8)
O4 O 0.1707(5) 0.8893(2) 0.6290(7)
C15 C 0.1791(7) 0.9387(3) 0.6046(10)
C16 C 0.2710(7) 0.9600(3) 0.5530(10)
C19 C 0.4448(8) 0.9970(4) 0.4450(11)
C20 C 0.4345(7) 0.9426(3) 0.4796(12)
H13 H 0.4856 0.9186 0.4673
C21 C 0.3494(8) 0.9245(3) 0.5316(11)
H14 H 0.3430 0.8881 0.5533
C23 C 0.6186(7) 0.9896(3) 0.3697(11)
H16 H 0.6188 0.9530 0.3937
C25 C 0.7934(7) 0.9800(3) 0.3245(10)
H17 H 0.7918 0.9446 0.3595
H18 H 0.9405 0.9808 0.2947
N1 N 0.0513(6) 0.8718(3) 0.8858(9)
C12 C 0.0775(8) 0.8196(4) 0.8961(11)
H8 H 0.0673 0.7989 0.8029
O1 O 0.9519(5) 0.8812(3) 0.4535(7)
O2 O 0.9182(6) 0.8084(3) 0.5894(7)
C1 C 0.9151(7) 0.8330(3) 0.4595(11)
C2 C 0.8678(7) 0.8093(3) 0.3057(10)
C3 C 0.8656(7) 0.8364(4) 0.1602(11)
H1 H 0.8946 0.8703 0.1601
C4 C 0.8215(8) 0.8143(4) 0.0168(12)
C5 C 0.7748(7) 0.7635(4) 0.0145(11)
C6 C 0.7763(7) 0.7372(4) 0.1584(10)
H3 H 0.7458 0.7037 0.1588
C7 C 0.8222(7) 0.7592(3) 0.3045(10)
H4 H 0.8222 0.7403 0.4001
N2 N 0.8849(6) 0.9482(3) 0.7227(8)
C18 C 0.3695(8) 0.9672(3) 0.9678(13)
H12 H 0.3765 0.9307 0.9481
C22 C 0.5375(8) 0.9827(4) 0.8885(12)
H15 H 0.5384 0.9462 0.8636
C24 C 0.7085(7) 0.9882(4) 0.8139(10)
C26 C 0.8826(7) 0.9984(3) 0.7817(9)
C27 C 0.8012(7) 0.9190(4) 0.7053(10)
H19 H 0.8020 0.8849 0.6598
C28 C 0.7117(7) 0.9372(3) 0.7523(11)
H20 H 0.6555 0.9151 0.7419
Zn1 Zn 0.51167(8) 0.59137(3) 0.16638(10)
N1_2 N 0.5513(6) 0.6282(3) 0.3858(9)
N2_2 N 0.3849(6) 0.5518(3) 0.2227(8)
H2 H 0.8225 0.8329 0.9210
C8 C 0.7269(7) 0.7423(4) 0.8595(11)
H5 H 0.7298 0.7636 0.7692
C9 C 0.6796(8) 0.6954(4) 0.8357(11)
H6 H 0.6743 0.6746 0.9260
C10 C 0.6347(7) 0.6734(4) 0.6766(11)
C11 C 0.6190(8) 0.7048(3) 0.5392(12)
H7 H 0.6358 0.7411 0.5426
C12_2 C 0.5775(8) 0.6804(4) 0.3961(11)
H8_2 H 0.5673 0.7011 0.3029
C13 C 0.5683(7) 0.5990(3) 0.5202(10)
H9 H 0.5528 0.5625 0.5133
C14 C 0.6073(7) 0.6195(3) 0.6682(9)
H10 H 0.6152 0.5980 0.7598
C22_2 C 0.0375(8) 0.5173(4) 0.3885(12)
H15_2 H 0.0384 0.5538 0.3636
C23_2 C 0.1186(7) 0.4896(3) 0.3697(11)
H16_2 H 0.1188 0.4530 0.3937
C24_2 C 0.2085(7) 0.5118(4) 0.3139(10)
C25_2 C 0.2934(7) 0.4800(3) 0.3245(10)
H17_2 H 0.2918 0.4446 0.3595
C26_2 C 0.3826(7) 0.5016(3) 0.2817(9)
H18_2 H 0.4405 0.4808 0.2947
C27_2 C 0.3012(7) 0.5810(4) 0.2053(10)
H19_2 H 0.3020 0.6151 0.1598
C28_2 C 0.2117(7) 0.5628(3) 0.2523(11)
H20_2 H 0.1555 0.5849 0.2419
O6 O 0.6064(5) 0.5291(2) 0.1208(8)
O7 O 0.6707(5) 0.6107(2) 0.1290(7)
C15_2 C 0.6791(7) 0.5613(3) 0.1046(10)
C16_2 C 0.7710(7) 0.5400(3) 0.0530(10)
C17 C 0.7832(8) 0.4865(4) 0.0206(13)
H11 H 0.7325 0.4624 0.0342
C21_2 C 0.8494(8) 0.5755(3) 0.0316(11)
H14_2 H 0.8430 0.6119 0.0533
O2_2 O 0.4182(6) 0.6916(3) 0.0894(7)
O5 O 0.4519(5) 0.6188(3) 0.9535(7)
C1_2 C 0.4151(7) 0.6670(3) 0.9595(11)
C2_2 C 0.3678(7) 0.6907(3) 0.8057(10)
C3_2 C 0.3656(7) 0.6636(4) 0.6602(11)
H1_2 H 0.3946 0.6297 0.6601
C4_2 C 0.3215(8) 0.6857(4) 0.5168(12)
H2_2 H 0.3225 0.6671 0.4210
C5_2 C 0.2748(7) 0.7365(4) 0.5145(11)
C6_2 C 0.2763(7) 0.7628(4) 0.6584(10)
H3_2 H 0.2458 0.7963 0.6588
C7_2 C 0.3222(7) 0.7408(3) 0.8045(10)
H4_2 H 0.3222 0.7597 0.9001
C8_2 C 0.2269(7) 0.7577(4) 0.3595(11)
H5_2 H 0.2298 0.7364 0.2692
C9_2 C 0.1796(8) 0.8046(4) 0.3357(11)
H6_2 H 0.1743 0.8254 0.4260
C10_2 C 0.1347(7) 0.8266(4) 0.1766(11)
C11_2 C 0.1190(8) 0.7952(3) 0.0392(12)
H7_2 H 0.1358 0.7589 0.0426
C13_2 C 0.0683(7) 0.9010(3) 0.0202(10)
H9_2 H 0.0528 0.9375 0.0133
C14_2 C 0.1073(7) 0.8805(3) 0.1682(9)
H10_2 H 0.1152 0.9020 0.2598
O3_2 O 0.6064(5) 0.4709(2) 0.6208(8)
O4_2 O 0.6707(5) 0.3893(2) 0.6290(7)
C15_3 C 0.6791(7) 0.4387(3) 0.6046(10)
C16_3 C 0.7710(7) 0.4600(3) 0.5530(10)
C17_2 C 0.7832(8) 0.5135(4) 0.5206(13)
H11_2 H 0.7325 0.5376 0.5342
C18_2 C 0.8695(8) 0.5328(3) 0.4678(13)
H12_2 H 0.8765 0.5693 0.4481
C19_2 C 0.9448(8) 0.4970(4) 0.4450(11)
C20_2 C 0.9345(7) 0.4426(3) 0.4796(12)
H13_2 H 0.9856 0.4186 0.4673
C21_3 C 0.8494(8) 0.4245(3) 0.5316(11)
H14_3 H 0.8430 0.3881 0.5533
Zn2 Zn 0.51167(8) 0.40863(3) 0.66638(10)
N1_3 N 0.5513(6) 0.3718(3) 0.8858(9)
N2_3 N 0.3849(6) 0.4482(3) 0.7227(8)
C12_3 C 0.5775(8) 0.3196(4) 0.8961(11)
H8_3 H 0.5673 0.2989 0.8029
C22_3 C 0.0375(8) 0.4827(4) 0.8885(12)
H15_3 H 0.0384 0.4462 0.8636
C23_3 C 0.1186(7) 0.5104(3) 0.8697(11)
H16_3 H 0.1188 0.5470 0.8937
C24_3 C 0.2085(7) 0.4882(4) 0.8139(10)
C25_3 C 0.2934(7) 0.5200(3) 0.8245(10)
H17_3 H 0.2918 0.5554 0.8595
C26_3 C 0.3826(7) 0.4984(3) 0.7817(9)
H18_3 H 0.4405 0.5192 0.7947
C27_3 C 0.3012(7) 0.4190(4) 0.7053(10)
H19_3 H 0.3020 0.3849 0.6598
C28_3 C 0.2117(7) 0.4372(3) 0.7523(11)
H20_3 H 0.1555 0.4151 0.7419
O5_2 O 0.4519(5) 0.3812(3) 0.4535(7)
O2_3 O 0.4182(6) 0.3084(3) 0.5894(7)
C1_3 C 0.4151(7) 0.3330(3) 0.4595(11)
C2_3 C 0.3678(7) 0.3093(3) 0.3057(10)
C3_3 C 0.3656(7) 0.3364(4) 0.1602(11)
H1_3 H 0.3946 0.3703 0.1601
C4_3 C 0.3215(8) 0.3143(4) 0.0168(12)
C5_3 C 0.2748(7) 0.2635(4) 0.0145(11)
C6_3 C 0.2763(7) 0.2372(4) 0.1584(10)
H3_3 H 0.2458 0.2037 0.1588
C7_3 C 0.3222(7) 0.2592(3) 0.3045(10)
H4_3 H 0.3222 0.2403 0.4001
Zn3_2 Zn 0.01167(8) 0.09137(3) 0.16638(10)
N1_4 N 0.0513(6) 0.1282(3) 0.3858(9)
H2_3 H 0.3225 0.3329 0.9210
C8_3 C 0.2269(7) 0.2423(4) 0.8595(11)
H5_3 H 0.2298 0.2636 0.7692
C9_3 C 0.1796(8) 0.1954(4) 0.8357(11)
H6_3 H 0.1743 0.1746 0.9260
C10_3 C 0.1347(7) 0.1734(4) 0.6766(11)
C11_3 C 0.1190(8) 0.2048(3) 0.5392(12)
H7_3 H 0.1358 0.2411 0.5426
C12_4 C 0.0775(8) 0.1804(4) 0.3961(11)
H8_4 H 0.0673 0.2011 0.3029
C13_3 C 0.0683(7) 0.0990(3) 0.5202(10)
H9_3 H 0.0528 0.0625 0.5133
C14_3 C 0.1073(7) 0.1195(3) 0.6682(9)
H10_3 H 0.1152 0.0980 0.7598
O6_2 O 0.1064(5) 0.0291(2) 0.1208(8)
O7_2 O 0.1707(5) 0.1107(2) 0.1290(7)
C15_4 C 0.1791(7) 0.0613(3) 0.1046(10)
C16_4 C 0.2710(7) 0.0400(3) 0.0530(10)
C21_4 C 0.3494(8) 0.0755(3) 0.0316(11)
H14_4 H 0.3430 0.1119 0.0533
O2_4 O 0.9182(6) 0.1916(3) 0.0894(7)
O1_2 O 0.9519(5) 0.1188(3) 0.9535(7)
C1_4 C 0.9151(7) 0.1670(3) 0.9595(11)
C2_4 C 0.8678(7) 0.1907(3) 0.8057(10)
C3_4 C 0.8656(7) 0.1636(4) 0.6602(11)
H1_4 H 0.8946 0.1297 0.6601
C4_4 C 0.8215(8) 0.1857(4) 0.5168(12)
H2_4 H 0.8225 0.1671 0.4210
C5_4 C 0.7748(7) 0.2365(4) 0.5145(11)
C6_4 C 0.7763(7) 0.2628(4) 0.6584(10)
H3_4 H 0.7458 0.2963 0.6588
C7_4 C 0.8222(7) 0.2408(3) 0.8045(10)
H4_4 H 0.8222 0.2597 0.9001
C8_4 C 0.7269(7) 0.2577(4) 0.3595(11)
H5_4 H 0.7298 0.2364 0.2692
C9_4 C 0.6796(8) 0.3046(4) 0.3357(11)
H6_4 H 0.6743 0.3254 0.4260
C10_4 C 0.6347(7) 0.3266(4) 0.1766(11)
C11_4 C 0.6190(8) 0.2952(3) 0.0392(12)
H7_4 H 0.6358 0.2589 0.0426
C13_4 C 0.5683(7) 0.4010(3) 0.0202(10)
H9_4 H 0.5528 0.4375 0.0133
C14_4 C 0.6073(7) 0.3805(3) 0.1682(9)
H10_4 H 0.6152 0.4020 0.2598
C18_3 C 0.8695(8) 0.4672(3) 0.9678(13)
H12_3 H 0.8765 0.4307 0.9481
C19_3 C 0.9448(8) 0.5030(4) 0.9450(11)
C20_3 C 0.9345(7) 0.5574(3) 0.9796(12)
H13_3 H 0.9856 0.5814 0.9673
N2_4 N 0.8849(6) 0.0518(3) 0.2227(8)
C17_3 C 0.2832(8) 0.0135(4) 0.5206(13)
H11_3 H 0.2325 0.0376 0.5342
C18_4 C 0.3695(8) 0.0328(3) 0.4678(13)
H12_4 H 0.3765 0.0693 0.4481
C22_4 C 0.5375(8) 0.0173(4) 0.3885(12)
H15_4 H 0.5384 0.0538 0.3636
C24_4 C 0.7085(7) 0.0118(4) 0.3139(10)
C26_4 C 0.8826(7) 0.0016(3) 0.2817(9)
C27_4 C 0.8012(7) 0.0810(4) 0.2053(10)
H19_4 H 0.8020 0.1151 0.1598
C28_4 C 0.7117(7) 0.0628(3) 0.2523(11)
H20_4 H 0.6555 0.0849 0.2419
C19_4 C 0.4448(8) 0.0030(4) 0.9450(11)
C20_4 C 0.4345(7) 0.0574(3) 0.9796(12)
H13_4 H 0.4856 0.0814 0.9673
C23_4 C 0.6186(7) 0.0104(3) 0.8697(11)
H16_4 H 0.6188 0.0470 0.8937
C25_4 C 0.7934(7) 0.0200(3) 0.8245(10)
H17_4 H 0.7918 0.0554 0.8595
H18_4 H 0.9405 0.0192 0.7947
C17_4 C 0.2832(8) 0.9865(4) 0.0206(13)
H11_4 H 0.2325 0.9624 0.0342
loop_
_geom_bond_atom_site_label_1
_geom_bond_atom_site_label_2
_geom_bond_site_symmetry_1
_geom_bond_site_symmetry_2
O3 C15 1_555 1_555
O4 C15 1_555 1_555
C15 C16 1_555 1_555
C20 C19 1_555 1_555
H13 C20 1_555 1_555
C21 C16 1_555 1_555
H14 C21 1_555 1_555
H16 C23 1_555 1_555
H17 C25 1_555 1_555
Zn3 O3 1_555 1_555
O4 Zn3 1_555 1_555
C20 C21 1_555 1_555
Zn3 N1 1_555 1_555
N1 C12 1_555 1_555
H8 C12 1_555 1_555
O1 C1 1_555 1_555
O2 C1 1_555 1_555
C1 C2 1_555 1_555
C2 C3 1_555 1_555
C3 H1 1_555 1_555
C4 C3 1_555 1_555
C5 C4 1_555 1_555
C6 C5 1_555 1_555
H3 C6 1_555 1_555
C7 C2 1_555 1_555
H4 C7 1_555 1_555
C6 C7 1_555 1_555
H12 C18 1_555 1_555
H15 C22 1_555 1_555
C26 N2 1_555 1_555
C27 N2 1_555 1_555
H19 C27 1_555 1_555
C28 C24 1_555 1_555
H20 C28 1_555 1_555
C27 C28 1_555 1_555
Zn1 N1_2 1_555 1_555
N1_2 C12_2 1_555 1_555
N2_2 Zn1 1_555 1_555
H5 C8 1_555 1_555
C9 C8 1_555 1_555
H6 C9 1_555 1_555
C10 C9 1_555 1_555
C11 C10 1_555 1_555
H7 C11 1_555 1_555
C12_2 C11 1_555 1_555
H8_2 C12_2 1_555 1_555
C13 N1_2 1_555 1_555
H9 C13 1_555 1_555
C14 C10 1_555 1_555
H10 C14 1_555 1_555
H15_2 C22_2 1_555 1_555
C23_2 C22_2 1_555 1_555
H16_2 C23_2 1_555 1_555
C24_2 C23_2 1_555 1_555
C25_2 C24_2 1_555 1_555
H17_2 C25_2 1_555 1_555
C26_2 N2_2 1_555 1_555
H18_2 C26_2 1_555 1_555
C27_2 N2_2 1_555 1_555
H19_2 C27_2 1_555 1_555
C28_2 C24_2 1_555 1_555
H20_2 C28_2 1_555 1_555
O6 Zn1 1_555 1_555
O7 Zn1 1_555 1_555
C13 C14 1_555 1_555
C25_2 C26_2 1_555 1_555
C27_2 C28_2 1_555 1_555
O6 C15_2 1_555 1_555
O7 C15_2 1_555 1_555
C15_2 C16_2 1_555 1_555
C16_2 C17 1_555 1_555
C17 H11 1_555 1_555
C21_2 C16_2 1_555 1_555
H14_2 C21_2 1_555 1_555
O5 C1_2 1_555 1_555
C1_2 C2_2 1_555 1_555
C2_2 C3_2 1_555 1_555
C3_2 H1_2 1_555 1_555
C4_2 C3_2 1_555 1_555
H2_2 C4_2 1_555 1_555
C5_2 C4_2 1_555 1_555
C6_2 C5_2 1_555 1_555
H3_2 C6_2 1_555 1_555
C7_2 C2_2 1_555 1_555
H4_2 C7_2 1_555 1_555
C8_2 C5_2 1_555 1_555
H5_2 C8_2 1_555 1_555
C9_2 C8_2 1_555 1_555
H6_2 C9_2 1_555 1_555
C10_2 C9_2 1_555 1_555
C11_2 C10_2 1_555 1_555
H7_2 C11_2 1_555 1_555
H9_2 C13_2 1_555 1_555
C14_2 C10_2 1_555 1_555
H10_2 C14_2 1_555 1_555
C6_2 C7_2 1_555 1_555
C13_2 C14_2 1_555 1_555
O3_2 C15_3 1_555 1_555
O4_2 C15_3 1_555 1_555
C15_3 C16_3 1_555 1_555
C16_3 C17_2 1_555 1_555
C17_2 H11_2 1_555 1_555
C18_2 C17_2 1_555 1_555
H12_2 C18_2 1_555 1_555
C19_2 C18_2 1_555 1_555
C20_2 C19_2 1_555 1_555
H13_2 C20_2 1_555 1_555
C21_3 C16_3 1_555 1_555
H14_3 C21_3 1_555 1_555
Zn2 O3_2 1_555 1_555
O4_2 Zn2 1_555 1_555
C20_2 C21_3 1_555 1_555
Zn2 N1_3 1_555 1_555
N1_3 C12_3 1_555 1_555
N2_3 Zn2 1_555 1_555
H8_3 C12_3 1_555 1_555
H15_3 C22_3 1_555 1_555
C23_3 C22_3 1_555 1_555
H16_3 C23_3 1_555 1_555
C24_3 C23_3 1_555 1_555
C25_3 C24_3 1_555 1_555
H17_3 C25_3 1_555 1_555
C26_3 N2_3 1_555 1_555
H18_3 C26_3 1_555 1_555
C27_3 N2_3 1_555 1_555
H19_3 C27_3 1_555 1_555
C28_3 C24_3 1_555 1_555
H20_3 C28_3 1_555 1_555
O5_2 Zn2 1_555 1_555
C25_3 C26_3 1_555 1_555
C27_3 C28_3 1_555 1_555
O5_2 C1_3 1_555 1_555
O2_3 C1_3 1_555 1_555
C1_3 C2_3 1_555 1_555
C2_3 C3_3 1_555 1_555
C3_3 H1_3 1_555 1_555
C4_3 C3_3 1_555 1_555
C5_3 C4_3 1_555 1_555
C6_3 C5_3 1_555 1_555
H3_3 C6_3 1_555 1_555
C7_3 C2_3 1_555 1_555
H4_3 C7_3 1_555 1_555
C6_3 C7_3 1_555 1_555
Zn3_2 N1_4 1_555 1_555
N1_4 C12_4 1_555 1_555
H5_3 C8_3 1_555 1_555
C9_3 C8_3 1_555 1_555
H6_3 C9_3 1_555 1_555
C10_3 C9_3 1_555 1_555
C11_3 C10_3 1_555 1_555
H7_3 C11_3 1_555 1_555
C12_4 C11_3 1_555 1_555
H8_4 C12_4 1_555 1_555
C13_3 N1_4 1_555 1_555
H9_3 C13_3 1_555 1_555
C14_3 C10_3 1_555 1_555
H10_3 C14_3 1_555 1_555
O6_2 Zn3_2 1_555 1_555
O7_2 Zn3_2 1_555 1_555
C13_3 C14_3 1_555 1_555
O6_2 C15_4 1_555 1_555
O7_2 C15_4 1_555 1_555
C15_4 C16_4 1_555 1_555
C21_4 C16_4 1_555 1_555
H14_4 C21_4 1_555 1_555
O1_2 C1_4 1_555 1_555
C1_4 C2_4 1_555 1_555
C2_4 C3_4 1_555 1_555
C3_4 H1_4 1_555 1_555
C4_4 C3_4 1_555 1_555
H2_4 C4_4 1_555 1_555
C5_4 C4_4 1_555 1_555
C6_4 C5_4 1_555 1_555
H3_4 C6_4 1_555 1_555
C7_4 C2_4 1_555 1_555
H4_4 C7_4 1_555 1_555
C8_4 C5_4 1_555 1_555
H5_4 C8_4 1_555 1_555
C9_4 C8_4 1_555 1_555
H6_4 C9_4 1_555 1_555
C10_4 C9_4 1_555 1_555
C11_4 C10_4 1_555 1_555
H7_4 C11_4 1_555 1_555
H9_4 C13_4 1_555 1_555
C14_4 C10_4 1_555 1_555
H10_4 C14_4 1_555 1_555
C6_4 C7_4 1_555 1_555
C13_4 C14_4 1_555 1_555
H12_3 C18_3 1_555 1_555
C19_3 C18_3 1_555 1_555
C20_3 C19_3 1_555 1_555
H13_3 C20_3 1_555 1_555
C17_3 H11_3 1_555 1_555
C18_4 C17_3 1_555 1_555
H12_4 C18_4 1_555 1_555
H15_4 C22_4 1_555 1_555
C26_4 N2_4 1_555 1_555
C27_4 N2_4 1_555 1_555
H19_4 C27_4 1_555 1_555
C28_4 C24_4 1_555 1_555
H20_4 C28_4 1_555 1_555
C27_4 C28_4 1_555 1_555
C20_4 C19_4 1_555 1_555
H13_4 C20_4 1_555 1_555
H16_4 C23_4 1_555 1_555
H17_4 C25_4 1_555 1_555
C17_4 H11_4 1_555 1_555

#END
