
###############################################################################
#
# This file contains modified crystal structure data generated from the
# MOF subset of the Cambridge Structural Database (CSD) v543 
# hosted by the Cambridge Crystallographic Data Centre (CCDC).
#
# This work is licensed under the Creative Commons
# Attribution-NonCommercial-ShareAlike 4.0 International License.
# To view a copy of this license, visit
# http://creativecommons.org/licenses/by-nc-sa/4.0/
# or send a letter to
# Creative Commons, PO Box 1866, Mountain View, CA 94042, USA.
#
# CIF created using the CSD Python API on 29 September 2022
# The structure has been converted into the P1 space group
# The structure has a 3D framework
# The original CSD entry UVEVUN is in the cubic crystal system
# The framework has been calculated to contain at least 10.0% void space
# The void calculation uses a probe of radius 1.32A, grid spacing 0.4
# H atom positions have been added when not included in the experimental data
# Generated hydrogen atom positions removed from atoms on special positions
#
###############################################################################

data_UVEVUN
_chemical_formula_moiety         '(C612 H420 Cu72 N36 O228)n'
_symmetry_cell_setting           triclinic
_symmetry_space_group_name_H-M   'P 1'
_symmetry_Int_Tables_number      1
_space_group_name_Hall           'P 1'
loop_
_symmetry_equiv_pos_site_id
_symmetry_equiv_pos_as_xyz
1 x,y,z
_cell_length_a                   31.105(2)
_cell_length_b                   31.105(2)
_cell_length_c                   31.105(2)
_cell_angle_alpha                90
_cell_angle_beta                 90
_cell_angle_gamma                90
_cell_volume                     30094.7
loop_
_atom_site_label
_atom_site_type_symbol
_atom_site_fract_x
_atom_site_fract_y
_atom_site_fract_z
Cu2 Cu -0.00000(2) 0.75947(2) 0.7595
N1 N -0.0000 0.71100(18) 0.71100(18)
C2 C -0.0000 0.6482(2) 0.6482(2)
H1 H -0.0000 0.6270 0.6270
Cu3 Cu 0.31944(2) 0.68056(2) 0.5000
Cu4 Cu 0.31944(2) 0.5000 0.68056(2)
Cu7 Cu 0.25947(2) 0.7405 0.50000(2)
Cu8 Cu 0.25947(2) 0.50000(2) 0.7405
O4 O 0.28273(12) 0.65410(13) 0.54448(12)
O5 O 0.28273(12) 0.54448(12) 0.65410(13)
O10 O 0.23205(13) 0.70473(13) 0.54415(13)
O11 O 0.23205(13) 0.54415(13) 0.70473(13)
O13 O 0.04415(13) 0.73205(13) 0.79527(13)
O16 O 0.04415(13) 0.79527(13) 0.73205(13)
C11 C 0.1607(2) 0.6316(2) 0.6316(2)
C12 C 0.2463(2) 0.61242(19) 0.61242(19)
H5 H 0.2746 0.6056 0.6056
C13 C 0.0376(2) 0.66409(17) 0.66409(17)
C14 C 0.22512(17) 0.59193(17) 0.6432(2)
C15 C 0.22512(17) 0.6432(2) 0.59193(17)
C17 C 0.0800(2) 0.64915(17) 0.64915(17)
C18 C 0.18158(18) 0.6005(2) 0.6536(2)
C19 C 0.18158(18) 0.6536(2) 0.6005(2)
H6 H 0.1677 0.6752 0.5850
H7 H 0.1677 0.5850 0.6752
C21 C 0.0372(3) 0.69533(16) 0.69533(16)
H9 H 0.0631 0.7059 0.7059
C22 C 0.24858(18) 0.6695(2) 0.5575(3)
C23 C 0.24858(18) 0.5575(3) 0.6695(2)
C25 C 0.1172(3) 0.6417(2) 0.6417(2)
Cu1 Cu 0.68056(2) 0.68056(2) 0.5000
Cu2_2 Cu 1.00000(2) 0.75947(2) 0.7595
N1_2 N 1.0000 0.71100(18) 0.71100(18)
O1 O 0.71727(12) 0.65410(13) 0.54448(12)
O2 O 0.76795(13) 0.70473(13) 0.54415(13)
C1 C 0.8393(2) 0.6316(2) 0.6316(2)
C2_2 C 1.0000 0.6482(2) 0.6482(2)
H1_2 H 1.0000 0.6270 0.6270
C3 C 0.7537(2) 0.61242(19) 0.61242(19)
H2 H 0.7254 0.6056 0.6056
C4 C 0.9624(2) 0.66409(17) 0.66409(17)
C5 C 0.77488(17) 0.6432(2) 0.59193(17)
C6 C 0.9200(2) 0.64915(17) 0.64915(17)
C7 C 0.81842(18) 0.6536(2) 0.6005(2)
H3 H 0.8323 0.6752 0.5850
C8 C 0.9628(3) 0.69533(16) 0.69533(16)
H4 H 0.9369 0.7059 0.7059
C9 C 0.75142(18) 0.6695(2) 0.5575(3)
C10 C 0.8828(3) 0.6417(2) 0.6417(2)
O3 O 0.63145(17) 0.63145(17) 0.5000
Cu5 Cu 0.68056(2) 0.5000 0.68056(2)
Cu6 Cu 0.74053(2) 0.7405 0.50000(2)
Cu9 Cu 0.74053(2) 0.50000(2) 0.7405
O6 O 0.71727(12) 0.54448(12) 0.65410(13)
O7 O 0.65410(13) 0.71727(12) 0.45552(12)
O8 O 0.71727(12) 0.65410(13) 0.45552(12)
O9 O 0.65410(13) 0.71727(12) 0.54448(12)
O12 O 0.76795(13) 0.54415(13) 0.70473(13)
O14 O 0.95585(13) 0.79527(13) 0.73205(13)
O15 O 0.95585(13) 0.73205(13) 0.79527(13)
C16 C 0.77488(17) 0.59193(17) 0.6432(2)
C20 C 0.81842(18) 0.6005(2) 0.6536(2)
H8 H 0.8323 0.5850 0.6752
C24 C 0.75142(18) 0.5575(3) 0.6695(2)
Cu2_3 Cu -0.00000(2) 0.24053(2) 0.2405
N1_3 N -0.0000 0.28900(18) 0.28900(18)
C2_3 C -0.0000 0.3518(2) 0.3518(2)
H1_3 H -0.0000 0.3730 0.3730
Cu3_2 Cu 0.31944(2) 0.31944(2) 0.5000
Cu4_2 Cu 0.31944(2) 0.5000 0.31944(2)
Cu7_2 Cu 0.25947(2) 0.2595 0.50000(2)
Cu8_2 Cu 0.25947(2) 0.50000(2) 0.2595
O4_2 O 0.28273(12) 0.34590(13) 0.45552(12)
O5_2 O 0.28273(12) 0.45552(12) 0.34590(13)
O10_2 O 0.23205(13) 0.29527(13) 0.45585(13)
O11_2 O 0.23205(13) 0.45585(13) 0.29527(13)
O13_2 O 0.04415(13) 0.26795(13) 0.20473(13)
O16_2 O 0.04415(13) 0.20473(13) 0.26795(13)
C11_2 C 0.1607(2) 0.3684(2) 0.3684(2)
C12_2 C 0.2463(2) 0.38758(19) 0.38758(19)
H5_2 H 0.2746 0.3944 0.3944
C13_2 C 0.0376(2) 0.33591(17) 0.33591(17)
C14_2 C 0.22512(17) 0.40807(17) 0.3568(2)
C15_2 C 0.22512(17) 0.3568(2) 0.40807(17)
C17_2 C 0.0800(2) 0.35085(17) 0.35085(17)
C18_2 C 0.18158(18) 0.3995(2) 0.3464(2)
C19_2 C 0.18158(18) 0.3464(2) 0.3995(2)
H6_2 H 0.1677 0.3248 0.4150
H7_2 H 0.1677 0.4150 0.3248
C21_2 C 0.0372(3) 0.30467(16) 0.30467(16)
H9_2 H 0.0631 0.2941 0.2941
C22_2 C 0.24858(18) 0.3305(2) 0.4425(3)
C23_2 C 0.24858(18) 0.4425(3) 0.3305(2)
C25_2 C 0.1172(3) 0.3583(2) 0.3583(2)
Cu1_2 Cu 0.68056(2) 0.31944(2) 0.5000
Cu2_4 Cu 1.00000(2) 0.24053(2) 0.2405
N1_4 N 1.0000 0.28900(18) 0.28900(18)
O1_2 O 0.71727(12) 0.34590(13) 0.45552(12)
O2_2 O 0.76795(13) 0.29527(13) 0.45585(13)
C1_2 C 0.8393(2) 0.3684(2) 0.3684(2)
C2_4 C 1.0000 0.3518(2) 0.3518(2)
H1_4 H 1.0000 0.3730 0.3730
C3_2 C 0.7537(2) 0.38758(19) 0.38758(19)
H2_2 H 0.7254 0.3944 0.3944
C4_2 C 0.9624(2) 0.33591(17) 0.33591(17)
C5_2 C 0.77488(17) 0.3568(2) 0.40807(17)
C6_2 C 0.9200(2) 0.35085(17) 0.35085(17)
C7_2 C 0.81842(18) 0.3464(2) 0.3995(2)
H3_2 H 0.8323 0.3248 0.4150
C8_2 C 0.9628(3) 0.30467(16) 0.30467(16)
H4_2 H 0.9369 0.2941 0.2941
C9_2 C 0.75142(18) 0.3305(2) 0.4425(3)
C10_2 C 0.8828(3) 0.3583(2) 0.3583(2)
O3_2 O 0.63145(17) 0.36855(17) 0.5000
Cu5_2 Cu 0.68056(2) 0.5000 0.31944(2)
Cu6_2 Cu 0.74053(2) 0.2595 0.50000(2)
Cu9_2 Cu 0.74053(2) 0.50000(2) 0.2595
O6_2 O 0.71727(12) 0.45552(12) 0.34590(13)
O7_2 O 0.65410(13) 0.28273(12) 0.54448(12)
O8_2 O 0.71727(12) 0.34590(13) 0.54448(12)
O9_2 O 0.65410(13) 0.28273(12) 0.45552(12)
O12_2 O 0.76795(13) 0.45585(13) 0.29527(13)
O14_2 O 0.95585(13) 0.20473(13) 0.26795(13)
O15_2 O 0.95585(13) 0.26795(13) 0.20473(13)
C16_2 C 0.77488(17) 0.40807(17) 0.3568(2)
C20_2 C 0.81842(18) 0.3995(2) 0.3464(2)
H8_2 H 0.8323 0.4150 0.3248
C24_2 C 0.75142(18) 0.4425(3) 0.3305(2)
Cu2_5 Cu 0.00000(2) 0.24053(2) 0.7595
N1_5 N 0.0000 0.28900(18) 0.71100(18)
O1_3 O 0.28273(12) 0.34590(13) 0.54448(12)
O2_3 O 0.23205(13) 0.29527(13) 0.54415(13)
C1_3 C 0.1607(2) 0.3684(2) 0.6316(2)
C2_5 C 0.0000 0.3518(2) 0.6482(2)
H1_5 H 0.0000 0.3730 0.6270
C3_3 C 0.2463(2) 0.38758(19) 0.61242(19)
H2_3 H 0.2746 0.3944 0.6056
C4_3 C 0.0376(2) 0.33591(17) 0.66409(17)
C5_3 C 0.22512(17) 0.3568(2) 0.59193(17)
C6_3 C 0.0800(2) 0.35085(17) 0.64915(17)
C7_3 C 0.18158(18) 0.3464(2) 0.6005(2)
H3_3 H 0.1677 0.3248 0.5850
C8_3 C 0.0372(3) 0.30467(16) 0.69533(16)
H4_3 H 0.0631 0.2941 0.7059
C9_3 C 0.24858(18) 0.3305(2) 0.5575(3)
C10_3 C 0.1172(3) 0.3583(2) 0.6417(2)
O3_3 O 0.36855(17) 0.36855(17) 0.5000
O6_3 O 0.28273(12) 0.45552(12) 0.65410(13)
O7_3 O 0.34590(13) 0.28273(12) 0.45552(12)
O9_3 O 0.34590(13) 0.28273(12) 0.54448(12)
O12_3 O 0.23205(13) 0.45585(13) 0.70473(13)
O14_3 O 0.04415(13) 0.20473(13) 0.73205(13)
O15_3 O 0.04415(13) 0.26795(13) 0.79527(13)
C16_3 C 0.22512(17) 0.40807(17) 0.6432(2)
C20_3 C 0.18158(18) 0.3995(2) 0.6536(2)
H8_3 H 0.1677 0.4150 0.6752
C24_3 C 0.24858(18) 0.4425(3) 0.6695(2)
Cu2_6 Cu 1.00000(2) 0.24053(2) 0.7595
N1_6 N 1.0000 0.28900(18) 0.71100(18)
C2_6 C 1.0000 0.3518(2) 0.6482(2)
H1_6 H 1.0000 0.3730 0.6270
O5_3 O 0.71727(12) 0.45552(12) 0.65410(13)
O10_3 O 0.76795(13) 0.29527(13) 0.54415(13)
O11_3 O 0.76795(13) 0.45585(13) 0.70473(13)
O13_3 O 0.95585(13) 0.26795(13) 0.79527(13)
O16_3 O 0.95585(13) 0.20473(13) 0.73205(13)
C11_3 C 0.8393(2) 0.3684(2) 0.6316(2)
C12_3 C 0.7537(2) 0.38758(19) 0.61242(19)
H5_3 H 0.7254 0.3944 0.6056
C13_3 C 0.9624(2) 0.33591(17) 0.66409(17)
C14_3 C 0.77488(17) 0.40807(17) 0.6432(2)
C15_3 C 0.77488(17) 0.3568(2) 0.59193(17)
C17_3 C 0.9200(2) 0.35085(17) 0.64915(17)
C18_3 C 0.81842(18) 0.3995(2) 0.6536(2)
C19_3 C 0.81842(18) 0.3464(2) 0.6005(2)
H6_3 H 0.8323 0.3248 0.5850
H7_3 H 0.8323 0.4150 0.6752
C21_3 C 0.9628(3) 0.30467(16) 0.69533(16)
H9_3 H 0.9369 0.2941 0.7059
C22_3 C 0.75142(18) 0.3305(2) 0.5575(3)
C23_3 C 0.75142(18) 0.4425(3) 0.6695(2)
C25_3 C 0.8828(3) 0.3583(2) 0.6417(2)
Cu2_7 Cu 0.00000(2) 0.75947(2) 0.2405
N1_7 N 0.0000 0.71100(18) 0.28900(18)
O1_4 O 0.28273(12) 0.65410(13) 0.45552(12)
O2_4 O 0.23205(13) 0.70473(13) 0.45585(13)
C1_4 C 0.1607(2) 0.6316(2) 0.3684(2)
C2_7 C 0.0000 0.6482(2) 0.3518(2)
H1_7 H 0.0000 0.6270 0.3730
C3_4 C 0.2463(2) 0.61242(19) 0.38758(19)
H2_4 H 0.2746 0.6056 0.3944
C4_4 C 0.0376(2) 0.66409(17) 0.33591(17)
C5_4 C 0.22512(17) 0.6432(2) 0.40807(17)
C6_4 C 0.0800(2) 0.64915(17) 0.35085(17)
C7_4 C 0.18158(18) 0.6536(2) 0.3995(2)
H3_4 H 0.1677 0.6752 0.4150
C8_4 C 0.0372(3) 0.69533(16) 0.30467(16)
H4_4 H 0.0631 0.7059 0.2941
C9_4 C 0.24858(18) 0.6695(2) 0.4425(3)
C10_4 C 0.1172(3) 0.6417(2) 0.3583(2)
O3_4 O 0.36855(17) 0.63145(17) 0.5000
O6_4 O 0.28273(12) 0.54448(12) 0.34590(13)
O7_4 O 0.34590(13) 0.71727(12) 0.54448(12)
O9_4 O 0.34590(13) 0.71727(12) 0.45552(12)
O12_4 O 0.23205(13) 0.54415(13) 0.29527(13)
O14_4 O 0.04415(13) 0.79527(13) 0.26795(13)
O15_4 O 0.04415(13) 0.73205(13) 0.20473(13)
C16_4 C 0.22512(17) 0.59193(17) 0.3568(2)
C20_4 C 0.18158(18) 0.6005(2) 0.3464(2)
H8_4 H 0.1677 0.5850 0.3248
C24_4 C 0.24858(18) 0.5575(3) 0.3305(2)
Cu2_8 Cu 1.00000(2) 0.75947(2) 0.2405
N1_8 N 1.0000 0.71100(18) 0.28900(18)
C2_8 C 1.0000 0.6482(2) 0.3518(2)
H1_8 H 1.0000 0.6270 0.3730
O5_4 O 0.71727(12) 0.54448(12) 0.34590(13)
O10_4 O 0.76795(13) 0.70473(13) 0.45585(13)
O11_4 O 0.76795(13) 0.54415(13) 0.29527(13)
O13_4 O 0.95585(13) 0.73205(13) 0.20473(13)
O16_4 O 0.95585(13) 0.79527(13) 0.26795(13)
C11_4 C 0.8393(2) 0.6316(2) 0.3684(2)
C12_4 C 0.7537(2) 0.61242(19) 0.38758(19)
H5_4 H 0.7254 0.6056 0.3944
C13_4 C 0.9624(2) 0.66409(17) 0.33591(17)
C14_4 C 0.77488(17) 0.59193(17) 0.3568(2)
C15_4 C 0.77488(17) 0.6432(2) 0.40807(17)
C17_4 C 0.9200(2) 0.64915(17) 0.35085(17)
C18_4 C 0.81842(18) 0.6005(2) 0.3464(2)
C19_4 C 0.81842(18) 0.6536(2) 0.3995(2)
H6_4 H 0.8323 0.6752 0.4150
H7_4 H 0.8323 0.5850 0.3248
C21_4 C 0.9628(3) 0.69533(16) 0.30467(16)
H9_4 H 0.9369 0.7059 0.2941
C22_4 C 0.75142(18) 0.6695(2) 0.4425(3)
C23_4 C 0.75142(18) 0.5575(3) 0.3305(2)
C25_4 C 0.8828(3) 0.6417(2) 0.3583(2)
Cu2_9 Cu 0.24053(2) -0.00000(2) 0.7595
N1_9 N 0.28900(18) -0.0000 0.71100(18)
C2_9 C 0.3518(2) -0.0000 0.6482(2)
H1_9 H 0.3730 -0.0000 0.6270
Cu4_3 Cu 0.5000 0.31944(2) 0.68056(2)
Cu8_3 Cu 0.50000(2) 0.25947(2) 0.7405
O5_5 O 0.45552(12) 0.28273(12) 0.65410(13)
O10_5 O 0.29527(13) 0.23205(13) 0.54415(13)
O11_5 O 0.45585(13) 0.23205(13) 0.70473(13)
O13_5 O 0.26795(13) 0.04415(13) 0.79527(13)
O16_5 O 0.20473(13) 0.04415(13) 0.73205(13)
C11_5 C 0.3684(2) 0.1607(2) 0.6316(2)
C12_5 C 0.38758(19) 0.2463(2) 0.61242(19)
H5_5 H 0.3944 0.2746 0.6056
C13_5 C 0.33591(17) 0.0376(2) 0.66409(17)
C14_5 C 0.40807(17) 0.22512(17) 0.6432(2)
C15_5 C 0.3568(2) 0.22512(17) 0.59193(17)
C17_5 C 0.35085(17) 0.0800(2) 0.64915(17)
C18_5 C 0.3995(2) 0.18158(18) 0.6536(2)
C19_5 C 0.3464(2) 0.18158(18) 0.6005(2)
H6_5 H 0.3248 0.1677 0.5850
H7_5 H 0.4150 0.1677 0.6752
C21_5 C 0.30467(16) 0.0372(3) 0.69533(16)
H9_5 H 0.2941 0.0631 0.7059
C22_5 C 0.3305(2) 0.24858(18) 0.5575(3)
C23_5 C 0.4425(3) 0.24858(18) 0.6695(2)
C25_5 C 0.3583(2) 0.1172(3) 0.6417(2)
Cu2_10 Cu 0.24053(2) 1.00000(2) 0.7595
N1_10 N 0.28900(18) 1.0000 0.71100(18)
O2_5 O 0.29527(13) 0.76795(13) 0.54415(13)
C1_5 C 0.3684(2) 0.8393(2) 0.6316(2)
C2_10 C 0.3518(2) 1.0000 0.6482(2)
H1_10 H 0.3730 1.0000 0.6270
C3_5 C 0.38758(19) 0.7537(2) 0.61242(19)
H2_5 H 0.3944 0.7254 0.6056
C4_5 C 0.33591(17) 0.9624(2) 0.66409(17)
C5_5 C 0.3568(2) 0.77488(17) 0.59193(17)
C6_5 C 0.35085(17) 0.9200(2) 0.64915(17)
C7_5 C 0.3464(2) 0.81842(18) 0.6005(2)
H3_5 H 0.3248 0.8323 0.5850
C8_5 C 0.30467(16) 0.9628(3) 0.69533(16)
H4_5 H 0.2941 0.9369 0.7059
C9_5 C 0.3305(2) 0.75142(18) 0.5575(3)
C10_5 C 0.3583(2) 0.8828(3) 0.6417(2)
Cu5_3 Cu 0.5000 0.68056(2) 0.68056(2)
Cu9_3 Cu 0.50000(2) 0.74053(2) 0.7405
O6_5 O 0.45552(12) 0.71727(12) 0.65410(13)
O12_5 O 0.45585(13) 0.76795(13) 0.70473(13)
O14_5 O 0.20473(13) 0.95585(13) 0.73205(13)
O15_5 O 0.26795(13) 0.95585(13) 0.79527(13)
C16_5 C 0.40807(17) 0.77488(17) 0.6432(2)
C20_5 C 0.3995(2) 0.81842(18) 0.6536(2)
H8_5 H 0.4150 0.8323 0.6752
C24_5 C 0.4425(3) 0.75142(18) 0.6695(2)
Cu2_11 Cu 0.75947(2) -0.00000(2) 0.2405
N1_11 N 0.71100(18) -0.0000 0.28900(18)
C2_11 C 0.6482(2) -0.0000 0.3518(2)
H1_11 H 0.6270 -0.0000 0.3730
Cu4_4 Cu 0.5000 0.31944(2) 0.31944(2)
Cu8_4 Cu 0.50000(2) 0.25947(2) 0.2595
O5_6 O 0.54448(12) 0.28273(12) 0.34590(13)
O10_6 O 0.70473(13) 0.23205(13) 0.45585(13)
O11_6 O 0.54415(13) 0.23205(13) 0.29527(13)
O13_6 O 0.73205(13) 0.04415(13) 0.20473(13)
O16_6 O 0.79527(13) 0.04415(13) 0.26795(13)
C11_6 C 0.6316(2) 0.1607(2) 0.3684(2)
C12_6 C 0.61242(19) 0.2463(2) 0.38758(19)
H5_6 H 0.6056 0.2746 0.3944
C13_6 C 0.66409(17) 0.0376(2) 0.33591(17)
C14_6 C 0.59193(17) 0.22512(17) 0.3568(2)
C15_6 C 0.6432(2) 0.22512(17) 0.40807(17)
C17_6 C 0.64915(17) 0.0800(2) 0.35085(17)
C18_6 C 0.6005(2) 0.18158(18) 0.3464(2)
C19_6 C 0.6536(2) 0.18158(18) 0.3995(2)
H6_6 H 0.6752 0.1677 0.4150
H7_6 H 0.5850 0.1677 0.3248
C21_6 C 0.69533(16) 0.0372(3) 0.30467(16)
H9_6 H 0.7059 0.0631 0.2941
C22_6 C 0.6695(2) 0.24858(18) 0.4425(3)
C23_6 C 0.5575(3) 0.24858(18) 0.3305(2)
C25_6 C 0.6417(2) 0.1172(3) 0.3583(2)
Cu2_12 Cu 0.75947(2) 1.00000(2) 0.2405
N1_12 N 0.71100(18) 1.0000 0.28900(18)
O2_6 O 0.70473(13) 0.76795(13) 0.45585(13)
C1_6 C 0.6316(2) 0.8393(2) 0.3684(2)
C2_12 C 0.6482(2) 1.0000 0.3518(2)
H1_12 H 0.6270 1.0000 0.3730
C3_6 C 0.61242(19) 0.7537(2) 0.38758(19)
H2_6 H 0.6056 0.7254 0.3944
C4_6 C 0.66409(17) 0.9624(2) 0.33591(17)
C5_6 C 0.6432(2) 0.77488(17) 0.40807(17)
C6_6 C 0.64915(17) 0.9200(2) 0.35085(17)
C7_6 C 0.6536(2) 0.81842(18) 0.3995(2)
H3_6 H 0.6752 0.8323 0.4150
C8_6 C 0.69533(16) 0.9628(3) 0.30467(16)
H4_6 H 0.7059 0.9369 0.2941
C9_6 C 0.6695(2) 0.75142(18) 0.4425(3)
C10_6 C 0.6417(2) 0.8828(3) 0.3583(2)
Cu5_4 Cu 0.5000 0.68056(2) 0.31944(2)
Cu9_4 Cu 0.50000(2) 0.74053(2) 0.2595
O6_6 O 0.54448(12) 0.71727(12) 0.34590(13)
O12_6 O 0.54415(13) 0.76795(13) 0.29527(13)
O14_6 O 0.79527(13) 0.95585(13) 0.26795(13)
O15_6 O 0.73205(13) 0.95585(13) 0.20473(13)
C16_6 C 0.59193(17) 0.77488(17) 0.3568(2)
C20_6 C 0.6005(2) 0.81842(18) 0.3464(2)
H8_6 H 0.5850 0.8323 0.3248
C24_6 C 0.5575(3) 0.75142(18) 0.3305(2)
Cu2_13 Cu 0.75947(2) 0.00000(2) 0.7595
N1_13 N 0.71100(18) 0.0000 0.71100(18)
O2_7 O 0.70473(13) 0.23205(13) 0.54415(13)
C1_7 C 0.6316(2) 0.1607(2) 0.6316(2)
C2_13 C 0.6482(2) 0.0000 0.6482(2)
H1_13 H 0.6270 0.0000 0.6270
C3_7 C 0.61242(19) 0.2463(2) 0.61242(19)
H2_7 H 0.6056 0.2746 0.6056
C4_7 C 0.66409(17) 0.0376(2) 0.66409(17)
C5_7 C 0.6432(2) 0.22512(17) 0.59193(17)
C6_7 C 0.64915(17) 0.0800(2) 0.64915(17)
C7_7 C 0.6536(2) 0.18158(18) 0.6005(2)
H3_7 H 0.6752 0.1677 0.5850
C8_7 C 0.69533(16) 0.0372(3) 0.69533(16)
H4_7 H 0.7059 0.0631 0.7059
C9_7 C 0.6695(2) 0.24858(18) 0.5575(3)
C10_7 C 0.6417(2) 0.1172(3) 0.6417(2)
O6_7 O 0.54448(12) 0.28273(12) 0.65410(13)
O12_7 O 0.54415(13) 0.23205(13) 0.70473(13)
O14_7 O 0.79527(13) 0.04415(13) 0.73205(13)
O15_7 O 0.73205(13) 0.04415(13) 0.79527(13)
C16_7 C 0.59193(17) 0.22512(17) 0.6432(2)
C20_7 C 0.6005(2) 0.18158(18) 0.6536(2)
H8_7 H 0.5850 0.1677 0.6752
C24_7 C 0.5575(3) 0.24858(18) 0.6695(2)
Cu2_14 Cu 0.75947(2) 1.00000(2) 0.7595
N1_14 N 0.71100(18) 1.0000 0.71100(18)
C2_14 C 0.6482(2) 1.0000 0.6482(2)
H1_14 H 0.6270 1.0000 0.6270
O5_7 O 0.54448(12) 0.71727(12) 0.65410(13)
O10_7 O 0.70473(13) 0.76795(13) 0.54415(13)
O11_7 O 0.54415(13) 0.76795(13) 0.70473(13)
O13_7 O 0.73205(13) 0.95585(13) 0.79527(13)
O16_7 O 0.79527(13) 0.95585(13) 0.73205(13)
C11_7 C 0.6316(2) 0.8393(2) 0.6316(2)
C12_7 C 0.61242(19) 0.7537(2) 0.61242(19)
H5_7 H 0.6056 0.7254 0.6056
C13_7 C 0.66409(17) 0.9624(2) 0.66409(17)
C14_7 C 0.59193(17) 0.77488(17) 0.6432(2)
C15_7 C 0.6432(2) 0.77488(17) 0.59193(17)
C17_7 C 0.64915(17) 0.9200(2) 0.64915(17)
C18_7 C 0.6005(2) 0.81842(18) 0.6536(2)
C19_7 C 0.6536(2) 0.81842(18) 0.6005(2)
H6_7 H 0.6752 0.8323 0.5850
H7_7 H 0.5850 0.8323 0.6752
C21_7 C 0.69533(16) 0.9628(3) 0.69533(16)
H9_7 H 0.7059 0.9369 0.7059
C22_7 C 0.6695(2) 0.75142(18) 0.5575(3)
C23_7 C 0.5575(3) 0.75142(18) 0.6695(2)
C25_7 C 0.6417(2) 0.8828(3) 0.6417(2)
Cu2_15 Cu 0.24053(2) 0.00000(2) 0.2405
N1_15 N 0.28900(18) 0.0000 0.28900(18)
O2_8 O 0.29527(13) 0.23205(13) 0.45585(13)
C1_8 C 0.3684(2) 0.1607(2) 0.3684(2)
C2_15 C 0.3518(2) 0.0000 0.3518(2)
H1_15 H 0.3730 0.0000 0.3730
C3_8 C 0.38758(19) 0.2463(2) 0.38758(19)
H2_8 H 0.3944 0.2746 0.3944
C4_8 C 0.33591(17) 0.0376(2) 0.33591(17)
C5_8 C 0.3568(2) 0.22512(17) 0.40807(17)
C6_8 C 0.35085(17) 0.0800(2) 0.35085(17)
C7_8 C 0.3464(2) 0.18158(18) 0.3995(2)
H3_8 H 0.3248 0.1677 0.4150
C8_8 C 0.30467(16) 0.0372(3) 0.30467(16)
H4_8 H 0.2941 0.0631 0.2941
C9_8 C 0.3305(2) 0.24858(18) 0.4425(3)
C10_8 C 0.3583(2) 0.1172(3) 0.3583(2)
O6_8 O 0.45552(12) 0.28273(12) 0.34590(13)
O12_8 O 0.45585(13) 0.23205(13) 0.29527(13)
O14_8 O 0.20473(13) 0.04415(13) 0.26795(13)
O15_8 O 0.26795(13) 0.04415(13) 0.20473(13)
C16_8 C 0.40807(17) 0.22512(17) 0.3568(2)
C20_8 C 0.3995(2) 0.18158(18) 0.3464(2)
H8_8 H 0.4150 0.1677 0.3248
C24_8 C 0.4425(3) 0.24858(18) 0.3305(2)
Cu2_16 Cu 0.24053(2) 1.00000(2) 0.2405
N1_16 N 0.28900(18) 1.0000 0.28900(18)
C2_16 C 0.3518(2) 1.0000 0.3518(2)
H1_16 H 0.3730 1.0000 0.3730
O5_8 O 0.45552(12) 0.71727(12) 0.34590(13)
O10_8 O 0.29527(13) 0.76795(13) 0.45585(13)
O11_8 O 0.45585(13) 0.76795(13) 0.29527(13)
O13_8 O 0.26795(13) 0.95585(13) 0.20473(13)
O16_8 O 0.20473(13) 0.95585(13) 0.26795(13)
C11_8 C 0.3684(2) 0.8393(2) 0.3684(2)
C12_8 C 0.38758(19) 0.7537(2) 0.38758(19)
H5_8 H 0.3944 0.7254 0.3944
C13_8 C 0.33591(17) 0.9624(2) 0.33591(17)
C14_8 C 0.40807(17) 0.77488(17) 0.3568(2)
C15_8 C 0.3568(2) 0.77488(17) 0.40807(17)
C17_8 C 0.35085(17) 0.9200(2) 0.35085(17)
C18_8 C 0.3995(2) 0.81842(18) 0.3464(2)
C19_8 C 0.3464(2) 0.81842(18) 0.3995(2)
H6_8 H 0.3248 0.8323 0.4150
H7_8 H 0.4150 0.8323 0.3248
C21_8 C 0.30467(16) 0.9628(3) 0.30467(16)
H9_8 H 0.2941 0.9369 0.2941
C22_8 C 0.3305(2) 0.75142(18) 0.4425(3)
C23_8 C 0.4425(3) 0.75142(18) 0.3305(2)
C25_8 C 0.3583(2) 0.8828(3) 0.3583(2)
Cu2_17 Cu 0.75947(2) 0.7595 -0.00000(2)
N1_17 N 0.71100(18) 0.71100(18) -0.0000
C2_17 C 0.6482(2) 0.6482(2) -0.0000
H1_17 H 0.6270 0.6270 -0.0000
O4_3 O 0.65410(13) 0.54448(12) 0.28273(12)
O5_9 O 0.54448(12) 0.65410(13) 0.28273(12)
O10_9 O 0.70473(13) 0.54415(13) 0.23205(13)
O11_9 O 0.54415(13) 0.70473(13) 0.23205(13)
O13_9 O 0.73205(13) 0.79527(13) 0.04415(13)
O16_9 O 0.79527(13) 0.73205(13) 0.04415(13)
C11_9 C 0.6316(2) 0.6316(2) 0.1607(2)
C12_9 C 0.61242(19) 0.61242(19) 0.2463(2)
H5_9 H 0.6056 0.6056 0.2746
C13_9 C 0.66409(17) 0.66409(17) 0.0376(2)
C14_9 C 0.59193(17) 0.6432(2) 0.22512(17)
C15_9 C 0.6432(2) 0.59193(17) 0.22512(17)
C17_9 C 0.64915(17) 0.64915(17) 0.0800(2)
C18_9 C 0.6005(2) 0.6536(2) 0.18158(18)
C19_9 C 0.6536(2) 0.6005(2) 0.18158(18)
H6_9 H 0.6752 0.5850 0.1677
H7_9 H 0.5850 0.6752 0.1677
C21_9 C 0.69533(16) 0.69533(16) 0.0372(3)
H9_9 H 0.7059 0.7059 0.0631
C22_9 C 0.6695(2) 0.5575(3) 0.24858(18)
C23_9 C 0.5575(3) 0.6695(2) 0.24858(18)
C25_9 C 0.6417(2) 0.6417(2) 0.1172(3)
Cu2_18 Cu 0.75947(2) 0.7595 1.00000(2)
N1_18 N 0.71100(18) 0.71100(18) 1.0000
O1_5 O 0.65410(13) 0.54448(12) 0.71727(12)
O2_9 O 0.70473(13) 0.54415(13) 0.76795(13)
C1_9 C 0.6316(2) 0.6316(2) 0.8393(2)
C2_18 C 0.6482(2) 0.6482(2) 1.0000
H1_18 H 0.6270 0.6270 1.0000
C3_9 C 0.61242(19) 0.61242(19) 0.7537(2)
H2_9 H 0.6056 0.6056 0.7254
C4_9 C 0.66409(17) 0.66409(17) 0.9624(2)
C5_9 C 0.6432(2) 0.59193(17) 0.77488(17)
C6_9 C 0.64915(17) 0.64915(17) 0.9200(2)
C7_9 C 0.6536(2) 0.6005(2) 0.81842(18)
H3_9 H 0.6752 0.5850 0.8323
C8_9 C 0.69533(16) 0.69533(16) 0.9628(3)
H4_9 H 0.7059 0.7059 0.9369
C9_9 C 0.6695(2) 0.5575(3) 0.75142(18)
C10_9 C 0.6417(2) 0.6417(2) 0.8828(3)
O3_5 O 0.63145(17) 0.5000 0.63145(17)
O6_9 O 0.54448(12) 0.65410(13) 0.71727(12)
O8_3 O 0.65410(13) 0.45552(12) 0.71727(12)
O12_9 O 0.54415(13) 0.70473(13) 0.76795(13)
O14_9 O 0.79527(13) 0.73205(13) 0.95585(13)
O15_9 O 0.73205(13) 0.79527(13) 0.95585(13)
C16_9 C 0.59193(17) 0.6432(2) 0.77488(17)
C20_9 C 0.6005(2) 0.6536(2) 0.81842(18)
H8_9 H 0.5850 0.6752 0.8323
C24_9 C 0.5575(3) 0.6695(2) 0.75142(18)
Cu2_19 Cu 0.24053(2) 0.2405 -0.00000(2)
N1_19 N 0.28900(18) 0.28900(18) -0.0000
C2_19 C 0.3518(2) 0.3518(2) -0.0000
H1_19 H 0.3730 0.3730 -0.0000
O4_4 O 0.34590(13) 0.45552(12) 0.28273(12)
O5_10 O 0.45552(12) 0.34590(13) 0.28273(12)
O10_10 O 0.29527(13) 0.45585(13) 0.23205(13)
O11_10 O 0.45585(13) 0.29527(13) 0.23205(13)
O13_10 O 0.26795(13) 0.20473(13) 0.04415(13)
O16_10 O 0.20473(13) 0.26795(13) 0.04415(13)
C11_10 C 0.3684(2) 0.3684(2) 0.1607(2)
C12_10 C 0.38758(19) 0.38758(19) 0.2463(2)
H5_10 H 0.3944 0.3944 0.2746
C13_10 C 0.33591(17) 0.33591(17) 0.0376(2)
C14_10 C 0.40807(17) 0.3568(2) 0.22512(17)
C15_10 C 0.3568(2) 0.40807(17) 0.22512(17)
C17_10 C 0.35085(17) 0.35085(17) 0.0800(2)
C18_10 C 0.3995(2) 0.3464(2) 0.18158(18)
C19_10 C 0.3464(2) 0.3995(2) 0.18158(18)
H6_10 H 0.3248 0.4150 0.1677
H7_10 H 0.4150 0.3248 0.1677
C21_10 C 0.30467(16) 0.30467(16) 0.0372(3)
H9_10 H 0.2941 0.2941 0.0631
C22_10 C 0.3305(2) 0.4425(3) 0.24858(18)
C23_10 C 0.4425(3) 0.3305(2) 0.24858(18)
C25_10 C 0.3583(2) 0.3583(2) 0.1172(3)
Cu2_20 Cu 0.24053(2) 0.2405 1.00000(2)
N1_20 N 0.28900(18) 0.28900(18) 1.0000
O1_6 O 0.34590(13) 0.45552(12) 0.71727(12)
O2_10 O 0.29527(13) 0.45585(13) 0.76795(13)
C1_10 C 0.3684(2) 0.3684(2) 0.8393(2)
C2_20 C 0.3518(2) 0.3518(2) 1.0000
H1_20 H 0.3730 0.3730 1.0000
C3_10 C 0.38758(19) 0.38758(19) 0.7537(2)
H2_10 H 0.3944 0.3944 0.7254
C4_10 C 0.33591(17) 0.33591(17) 0.9624(2)
C5_10 C 0.3568(2) 0.40807(17) 0.77488(17)
C6_10 C 0.35085(17) 0.35085(17) 0.9200(2)
C7_10 C 0.3464(2) 0.3995(2) 0.81842(18)
H3_10 H 0.3248 0.4150 0.8323
C8_10 C 0.30467(16) 0.30467(16) 0.9628(3)
H4_10 H 0.2941 0.2941 0.9369
C9_10 C 0.3305(2) 0.4425(3) 0.75142(18)
C10_10 C 0.3583(2) 0.3583(2) 0.8828(3)
O3_6 O 0.36855(17) 0.5000 0.63145(17)
O6_10 O 0.45552(12) 0.34590(13) 0.71727(12)
O8_4 O 0.34590(13) 0.54448(12) 0.71727(12)
O12_10 O 0.45585(13) 0.29527(13) 0.76795(13)
O14_10 O 0.20473(13) 0.26795(13) 0.95585(13)
O15_10 O 0.26795(13) 0.20473(13) 0.95585(13)
C16_10 C 0.40807(17) 0.3568(2) 0.77488(17)
C20_10 C 0.3995(2) 0.3464(2) 0.81842(18)
H8_10 H 0.4150 0.3248 0.8323
C24_10 C 0.4425(3) 0.3305(2) 0.75142(18)
Cu2_21 Cu 0.75947(2) 0.2405 0.00000(2)
N1_21 N 0.71100(18) 0.28900(18) 0.0000
O1_7 O 0.65410(13) 0.45552(12) 0.28273(12)
O2_11 O 0.70473(13) 0.45585(13) 0.23205(13)
C1_11 C 0.6316(2) 0.3684(2) 0.1607(2)
C2_21 C 0.6482(2) 0.3518(2) 0.0000
H1_21 H 0.6270 0.3730 0.0000
C3_11 C 0.61242(19) 0.38758(19) 0.2463(2)
H2_11 H 0.6056 0.3944 0.2746
C4_11 C 0.66409(17) 0.33591(17) 0.0376(2)
C5_11 C 0.6432(2) 0.40807(17) 0.22512(17)
C6_11 C 0.64915(17) 0.35085(17) 0.0800(2)
C7_11 C 0.6536(2) 0.3995(2) 0.18158(18)
H3_11 H 0.6752 0.4150 0.1677
C8_11 C 0.69533(16) 0.30467(16) 0.0372(3)
H4_11 H 0.7059 0.2941 0.0631
C9_11 C 0.6695(2) 0.4425(3) 0.24858(18)
C10_11 C 0.6417(2) 0.3583(2) 0.1172(3)
O3_7 O 0.63145(17) 0.5000 0.36855(17)
O6_11 O 0.54448(12) 0.34590(13) 0.28273(12)
O12_11 O 0.54415(13) 0.29527(13) 0.23205(13)
O14_11 O 0.79527(13) 0.26795(13) 0.04415(13)
O15_11 O 0.73205(13) 0.20473(13) 0.04415(13)
C16_11 C 0.59193(17) 0.3568(2) 0.22512(17)
C20_11 C 0.6005(2) 0.3464(2) 0.18158(18)
H8_11 H 0.5850 0.3248 0.1677
C24_11 C 0.5575(3) 0.3305(2) 0.24858(18)
Cu2_22 Cu 0.75947(2) 0.2405 1.00000(2)
N1_22 N 0.71100(18) 0.28900(18) 1.0000
C2_22 C 0.6482(2) 0.3518(2) 1.0000
H1_22 H 0.6270 0.3730 1.0000
O5_11 O 0.54448(12) 0.34590(13) 0.71727(12)
O10_11 O 0.70473(13) 0.45585(13) 0.76795(13)
O11_11 O 0.54415(13) 0.29527(13) 0.76795(13)
O13_11 O 0.73205(13) 0.20473(13) 0.95585(13)
O16_11 O 0.79527(13) 0.26795(13) 0.95585(13)
C11_11 C 0.6316(2) 0.3684(2) 0.8393(2)
C12_11 C 0.61242(19) 0.38758(19) 0.7537(2)
H5_11 H 0.6056 0.3944 0.7254
C13_11 C 0.66409(17) 0.33591(17) 0.9624(2)
C14_11 C 0.59193(17) 0.3568(2) 0.77488(17)
C15_11 C 0.6432(2) 0.40807(17) 0.77488(17)
C17_11 C 0.64915(17) 0.35085(17) 0.9200(2)
C18_11 C 0.6005(2) 0.3464(2) 0.81842(18)
C19_11 C 0.6536(2) 0.3995(2) 0.81842(18)
H6_11 H 0.6752 0.4150 0.8323
H7_11 H 0.5850 0.3248 0.8323
C21_11 C 0.69533(16) 0.30467(16) 0.9628(3)
H9_11 H 0.7059 0.2941 0.9369
C22_11 C 0.6695(2) 0.4425(3) 0.75142(18)
C23_11 C 0.5575(3) 0.3305(2) 0.75142(18)
C25_11 C 0.6417(2) 0.3583(2) 0.8828(3)
Cu2_23 Cu 0.24053(2) 0.7595 0.00000(2)
N1_23 N 0.28900(18) 0.71100(18) 0.0000
O1_8 O 0.34590(13) 0.54448(12) 0.28273(12)
O2_12 O 0.29527(13) 0.54415(13) 0.23205(13)
C1_12 C 0.3684(2) 0.6316(2) 0.1607(2)
C2_23 C 0.3518(2) 0.6482(2) 0.0000
H1_23 H 0.3730 0.6270 0.0000
C3_12 C 0.38758(19) 0.61242(19) 0.2463(2)
H2_12 H 0.3944 0.6056 0.2746
C4_12 C 0.33591(17) 0.66409(17) 0.0376(2)
C5_12 C 0.3568(2) 0.59193(17) 0.22512(17)
C6_12 C 0.35085(17) 0.64915(17) 0.0800(2)
C7_12 C 0.3464(2) 0.6005(2) 0.18158(18)
H3_12 H 0.3248 0.5850 0.1677
C8_12 C 0.30467(16) 0.69533(16) 0.0372(3)
H4_12 H 0.2941 0.7059 0.0631
C9_12 C 0.3305(2) 0.5575(3) 0.24858(18)
C10_12 C 0.3583(2) 0.6417(2) 0.1172(3)
O3_8 O 0.36855(17) 0.5000 0.36855(17)
O6_12 O 0.45552(12) 0.65410(13) 0.28273(12)
O12_12 O 0.45585(13) 0.70473(13) 0.23205(13)
O14_12 O 0.20473(13) 0.73205(13) 0.04415(13)
O15_12 O 0.26795(13) 0.79527(13) 0.04415(13)
C16_12 C 0.40807(17) 0.6432(2) 0.22512(17)
C20_12 C 0.3995(2) 0.6536(2) 0.18158(18)
H8_12 H 0.4150 0.6752 0.1677
C24_12 C 0.4425(3) 0.6695(2) 0.24858(18)
Cu2_24 Cu 0.24053(2) 0.7595 1.00000(2)
N1_24 N 0.28900(18) 0.71100(18) 1.0000
C2_24 C 0.3518(2) 0.6482(2) 1.0000
H1_24 H 0.3730 0.6270 1.0000
O5_12 O 0.45552(12) 0.65410(13) 0.71727(12)
O10_12 O 0.29527(13) 0.54415(13) 0.76795(13)
O11_12 O 0.45585(13) 0.70473(13) 0.76795(13)
O13_12 O 0.26795(13) 0.79527(13) 0.95585(13)
O16_12 O 0.20473(13) 0.73205(13) 0.95585(13)
C11_12 C 0.3684(2) 0.6316(2) 0.8393(2)
C12_12 C 0.38758(19) 0.61242(19) 0.7537(2)
H5_12 H 0.3944 0.6056 0.7254
C13_12 C 0.33591(17) 0.66409(17) 0.9624(2)
C14_12 C 0.40807(17) 0.6432(2) 0.77488(17)
C15_12 C 0.3568(2) 0.59193(17) 0.77488(17)
C17_12 C 0.35085(17) 0.64915(17) 0.9200(2)
C18_12 C 0.3995(2) 0.6536(2) 0.81842(18)
C19_12 C 0.3464(2) 0.6005(2) 0.81842(18)
H6_12 H 0.3248 0.5850 0.8323
H7_12 H 0.4150 0.6752 0.8323
C21_12 C 0.30467(16) 0.69533(16) 0.9628(3)
H9_12 H 0.2941 0.7059 0.9369
C22_12 C 0.3305(2) 0.5575(3) 0.75142(18)
C23_12 C 0.4425(3) 0.6695(2) 0.75142(18)
C25_12 C 0.3583(2) 0.6417(2) 0.8828(3)
O3_9 O 0.5000 0.63145(17) 0.63145(17)
O3_10 O 0.5000 0.36855(17) 0.36855(17)
O3_11 O 0.5000 0.36855(17) 0.63145(17)
O3_12 O 0.5000 0.63145(17) 0.36855(17)
Cu1_3 Cu 0.18056(2) 0.18056(2) -0.0000
N1_25 N 0.5000 0.21100(18) 0.21100(18)
O1_9 O 0.21727(12) 0.15410(13) 0.04448(12)
C1_13 C 0.3393(2) 0.1316(2) 0.1316(2)
C2_25 C 0.5000 0.1482(2) 0.1482(2)
H1_25 H 0.5000 0.1270 0.1270
C3_13 C 0.2537(2) 0.11242(19) 0.11242(19)
H2_13 H 0.2254 0.1056 0.1056
C4_13 C 0.4624(2) 0.16409(17) 0.16409(17)
C5_13 C 0.27488(17) 0.1432(2) 0.09193(17)
C6_13 C 0.4200(2) 0.14915(17) 0.14915(17)
C7_13 C 0.31842(18) 0.1536(2) 0.1005(2)
H3_13 H 0.3323 0.1752 0.0850
C8_13 C 0.4628(3) 0.19533(16) 0.19533(16)
H4_13 H 0.4369 0.2059 0.2059
C9_13 C 0.25142(18) 0.1695(2) 0.0575(3)
C10_13 C 0.3828(3) 0.1417(2) 0.1417(2)
O3_13 O 0.13145(17) 0.13145(17) -0.0000
Cu3_3 Cu 0.81944(2) 0.18056(2) -0.0000
Cu4_5 Cu 0.81944(2) -0.0000 0.18056(2)
Cu5_5 Cu 0.18056(2) -0.0000 0.18056(2)
O4_5 O 0.78273(12) 0.15410(13) 0.04448(12)
O5_13 O 0.78273(12) 0.04448(12) 0.15410(13)
O6_13 O 0.21727(12) 0.04448(12) 0.15410(13)
O9_5 O 0.15410(13) 0.21727(12) 0.04448(12)
C11_13 C 0.6607(2) 0.1316(2) 0.1316(2)
C12_13 C 0.7463(2) 0.11242(19) 0.11242(19)
H5_13 H 0.7746 0.1056 0.1056
C13_13 C 0.5376(2) 0.16409(17) 0.16409(17)
C14_13 C 0.72512(17) 0.09193(17) 0.1432(2)
C15_13 C 0.72512(17) 0.1432(2) 0.09193(17)
C16_13 C 0.27488(17) 0.09193(17) 0.1432(2)
C17_13 C 0.5800(2) 0.14915(17) 0.14915(17)
C18_13 C 0.68158(18) 0.1005(2) 0.1536(2)
C19_13 C 0.68158(18) 0.1536(2) 0.1005(2)
C20_13 C 0.31842(18) 0.1005(2) 0.1536(2)
H6_13 H 0.6677 0.1752 0.0850
H7_13 H 0.6677 0.0850 0.1752
H8_13 H 0.3323 0.0850 0.1752
C21_13 C 0.5372(3) 0.19533(16) 0.19533(16)
H9_13 H 0.5631 0.2059 0.2059
C22_13 C 0.74858(18) 0.1695(2) 0.0575(3)
C23_13 C 0.74858(18) 0.0575(3) 0.1695(2)
C24_13 C 0.25142(18) 0.0575(3) 0.1695(2)
C25_13 C 0.6172(3) 0.1417(2) 0.1417(2)
Cu1_4 Cu 0.18056(2) 0.18056(2) 1.0000
O3_14 O 0.13145(17) 0.13145(17) 1.0000
Cu3_4 Cu 0.81944(2) 0.18056(2) 1.0000
O7_5 O 0.15410(13) 0.21727(12) 0.95552(12)
O8_5 O 0.21727(12) 0.15410(13) 0.95552(12)
Cu4_6 Cu 0.81944(2) 1.0000 0.18056(2)
Cu5_6 Cu 0.18056(2) 1.0000 0.18056(2)
Cu4_7 Cu 0.81944(2) 0.0000 0.81944(2)
Cu5_7 Cu 0.18056(2) 0.0000 0.81944(2)
Cu1_5 Cu 0.18056(2) 0.81944(2) 0.0000
O3_15 O 0.13145(17) 0.86855(17) 0.0000
Cu3_5 Cu 0.81944(2) 0.81944(2) 0.0000
O7_6 O 0.15410(13) 0.78273(12) 0.04448(12)
O8_6 O 0.21727(12) 0.84590(13) 0.04448(12)
Cu1_6 Cu 0.18056(2) 0.81944(2) 1.0000
N1_26 N 0.5000 0.78900(18) 0.78900(18)
O1_10 O 0.21727(12) 0.84590(13) 0.95552(12)
C1_14 C 0.3393(2) 0.8684(2) 0.8684(2)
C2_26 C 0.5000 0.8518(2) 0.8518(2)
H1_26 H 0.5000 0.8730 0.8730
C3_14 C 0.2537(2) 0.88758(19) 0.88758(19)
H2_14 H 0.2254 0.8944 0.8944
C4_14 C 0.4624(2) 0.83591(17) 0.83591(17)
C5_14 C 0.27488(17) 0.8568(2) 0.90807(17)
C6_14 C 0.4200(2) 0.85085(17) 0.85085(17)
C7_14 C 0.31842(18) 0.8464(2) 0.8995(2)
H3_14 H 0.3323 0.8248 0.9150
C8_14 C 0.4628(3) 0.80467(16) 0.80467(16)
H4_14 H 0.4369 0.7941 0.7941
C9_14 C 0.25142(18) 0.8305(2) 0.9425(3)
C10_14 C 0.3828(3) 0.8583(2) 0.8583(2)
O3_16 O 0.13145(17) 0.86855(17) 1.0000
Cu3_6 Cu 0.81944(2) 0.81944(2) 1.0000
Cu4_8 Cu 0.81944(2) 1.0000 0.81944(2)
Cu5_8 Cu 0.18056(2) 1.0000 0.81944(2)
O4_6 O 0.78273(12) 0.84590(13) 0.95552(12)
O5_14 O 0.78273(12) 0.95552(12) 0.84590(13)
O6_14 O 0.21727(12) 0.95552(12) 0.84590(13)
O9_6 O 0.15410(13) 0.78273(12) 0.95552(12)
C11_14 C 0.6607(2) 0.8684(2) 0.8684(2)
C12_14 C 0.7463(2) 0.88758(19) 0.88758(19)
H5_14 H 0.7746 0.8944 0.8944
C13_14 C 0.5376(2) 0.83591(17) 0.83591(17)
C14_14 C 0.72512(17) 0.90807(17) 0.8568(2)
C15_14 C 0.72512(17) 0.8568(2) 0.90807(17)
C16_14 C 0.27488(17) 0.90807(17) 0.8568(2)
C17_14 C 0.5800(2) 0.85085(17) 0.85085(17)
C18_14 C 0.68158(18) 0.8995(2) 0.8464(2)
C19_14 C 0.68158(18) 0.8464(2) 0.8995(2)
C20_14 C 0.31842(18) 0.8995(2) 0.8464(2)
H6_14 H 0.6677 0.8248 0.9150
H7_14 H 0.6677 0.9150 0.8248
H8_14 H 0.3323 0.9150 0.8248
C21_14 C 0.5372(3) 0.80467(16) 0.80467(16)
H9_14 H 0.5631 0.7941 0.7941
C22_14 C 0.74858(18) 0.8305(2) 0.9425(3)
C23_14 C 0.74858(18) 0.9425(3) 0.8305(2)
C24_14 C 0.25142(18) 0.9425(3) 0.8305(2)
C25_14 C 0.6172(3) 0.8583(2) 0.8583(2)
N1_27 N 0.5000 0.78900(18) 0.21100(18)
O1_11 O 0.78273(12) 0.84590(13) 0.04448(12)
C1_15 C 0.6607(2) 0.8684(2) 0.1316(2)
C2_27 C 0.5000 0.8518(2) 0.1482(2)
H1_27 H 0.5000 0.8730 0.1270
C3_15 C 0.7463(2) 0.88758(19) 0.11242(19)
H2_15 H 0.7746 0.8944 0.1056
C4_15 C 0.5376(2) 0.83591(17) 0.16409(17)
C5_15 C 0.72512(17) 0.8568(2) 0.09193(17)
C6_15 C 0.5800(2) 0.85085(17) 0.14915(17)
C7_15 C 0.68158(18) 0.8464(2) 0.1005(2)
H3_15 H 0.6677 0.8248 0.0850
C8_15 C 0.5372(3) 0.80467(16) 0.19533(16)
H4_15 H 0.5631 0.7941 0.2059
C9_15 C 0.74858(18) 0.8305(2) 0.0575(3)
C10_15 C 0.6172(3) 0.8583(2) 0.1417(2)
O3_17 O 0.86855(17) 0.86855(17) -0.0000
O5_15 O 0.21727(12) 0.95552(12) 0.15410(13)
O6_15 O 0.78273(12) 0.95552(12) 0.15410(13)
O9_7 O 0.84590(13) 0.78273(12) 0.04448(12)
C11_15 C 0.3393(2) 0.8684(2) 0.1316(2)
C12_15 C 0.2537(2) 0.88758(19) 0.11242(19)
H5_15 H 0.2254 0.8944 0.1056
C13_15 C 0.4624(2) 0.83591(17) 0.16409(17)
C14_15 C 0.27488(17) 0.90807(17) 0.1432(2)
C15_15 C 0.27488(17) 0.8568(2) 0.09193(17)
C16_15 C 0.72512(17) 0.90807(17) 0.1432(2)
C17_15 C 0.4200(2) 0.85085(17) 0.14915(17)
C18_15 C 0.31842(18) 0.8995(2) 0.1536(2)
C19_15 C 0.31842(18) 0.8464(2) 0.1005(2)
C20_15 C 0.68158(18) 0.8995(2) 0.1536(2)
H6_15 H 0.3323 0.8248 0.0850
H7_15 H 0.3323 0.9150 0.1752
H8_15 H 0.6677 0.9150 0.1752
C21_15 C 0.4628(3) 0.80467(16) 0.19533(16)
H9_15 H 0.4369 0.7941 0.2059
C22_15 C 0.25142(18) 0.8305(2) 0.0575(3)
C23_15 C 0.25142(18) 0.9425(3) 0.1695(2)
C24_15 C 0.74858(18) 0.9425(3) 0.1695(2)
C25_15 C 0.3828(3) 0.8583(2) 0.1417(2)
O3_18 O 0.86855(17) 0.86855(17) 1.0000
O7_7 O 0.84590(13) 0.78273(12) 0.95552(12)
O3_19 O 0.86855(17) 0.13145(17) 0.0000
O7_8 O 0.84590(13) 0.21727(12) 0.04448(12)
N1_28 N 0.5000 0.21100(18) 0.78900(18)
O1_12 O 0.78273(12) 0.15410(13) 0.95552(12)
C1_16 C 0.6607(2) 0.1316(2) 0.8684(2)
C2_28 C 0.5000 0.1482(2) 0.8518(2)
H1_28 H 0.5000 0.1270 0.8730
C3_16 C 0.7463(2) 0.11242(19) 0.88758(19)
H2_16 H 0.7746 0.1056 0.8944
C4_16 C 0.5376(2) 0.16409(17) 0.83591(17)
C5_16 C 0.72512(17) 0.1432(2) 0.90807(17)
C6_16 C 0.5800(2) 0.14915(17) 0.85085(17)
C7_16 C 0.68158(18) 0.1536(2) 0.8995(2)
H3_16 H 0.6677 0.1752 0.9150
C8_16 C 0.5372(3) 0.19533(16) 0.80467(16)
H4_16 H 0.5631 0.2059 0.7941
C9_16 C 0.74858(18) 0.1695(2) 0.9425(3)
C10_16 C 0.6172(3) 0.1417(2) 0.8583(2)
O3_20 O 0.86855(17) 0.13145(17) 1.0000
O5_16 O 0.21727(12) 0.04448(12) 0.84590(13)
O6_16 O 0.78273(12) 0.04448(12) 0.84590(13)
O9_8 O 0.84590(13) 0.21727(12) 0.95552(12)
C11_16 C 0.3393(2) 0.1316(2) 0.8684(2)
C12_16 C 0.2537(2) 0.11242(19) 0.88758(19)
H5_16 H 0.2254 0.1056 0.8944
C13_16 C 0.4624(2) 0.16409(17) 0.83591(17)
C14_16 C 0.27488(17) 0.09193(17) 0.8568(2)
C15_16 C 0.27488(17) 0.1432(2) 0.90807(17)
C16_16 C 0.72512(17) 0.09193(17) 0.8568(2)
C17_16 C 0.4200(2) 0.14915(17) 0.85085(17)
C18_16 C 0.31842(18) 0.1005(2) 0.8464(2)
C19_16 C 0.31842(18) 0.1536(2) 0.8995(2)
C20_16 C 0.68158(18) 0.1005(2) 0.8464(2)
H6_16 H 0.3323 0.1752 0.9150
H7_16 H 0.3323 0.0850 0.8248
H8_16 H 0.6677 0.0850 0.8248
C21_16 C 0.4628(3) 0.19533(16) 0.80467(16)
H9_16 H 0.4369 0.2059 0.7941
C22_16 C 0.25142(18) 0.1695(2) 0.9425(3)
C23_16 C 0.25142(18) 0.0575(3) 0.8305(2)
C24_16 C 0.74858(18) 0.0575(3) 0.8305(2)
C25_16 C 0.3828(3) 0.1417(2) 0.8583(2)
Cu4_9 Cu 0.0000 0.81944(2) 0.18056(2)
Cu5_9 Cu 0.0000 0.18056(2) 0.18056(2)
N1_29 N 0.78900(18) 0.5000 0.21100(18)
C1_17 C 0.8684(2) 0.3393(2) 0.1316(2)
C2_29 C 0.8518(2) 0.5000 0.1482(2)
H1_29 H 0.8730 0.5000 0.1270
C3_17 C 0.88758(19) 0.2537(2) 0.11242(19)
H2_17 H 0.8944 0.2254 0.1056
C4_17 C 0.83591(17) 0.4624(2) 0.16409(17)
C5_17 C 0.8568(2) 0.27488(17) 0.09193(17)
C6_17 C 0.85085(17) 0.4200(2) 0.14915(17)
C7_17 C 0.8464(2) 0.31842(18) 0.1005(2)
H3_17 H 0.8248 0.3323 0.0850
C8_17 C 0.80467(16) 0.4628(3) 0.19533(16)
H4_17 H 0.7941 0.4369 0.2059
C9_17 C 0.8305(2) 0.25142(18) 0.0575(3)
C10_17 C 0.8583(2) 0.3828(3) 0.1417(2)
Cu4_10 Cu 1.0000 0.81944(2) 0.18056(2)
Cu5_10 Cu 1.0000 0.18056(2) 0.18056(2)
O5_17 O 0.95552(12) 0.78273(12) 0.15410(13)
O6_17 O 0.95552(12) 0.21727(12) 0.15410(13)
C11_17 C 0.8684(2) 0.6607(2) 0.1316(2)
C12_17 C 0.88758(19) 0.7463(2) 0.11242(19)
H5_17 H 0.8944 0.7746 0.1056
C13_17 C 0.83591(17) 0.5376(2) 0.16409(17)
C14_17 C 0.90807(17) 0.72512(17) 0.1432(2)
C15_17 C 0.8568(2) 0.72512(17) 0.09193(17)
C16_17 C 0.90807(17) 0.27488(17) 0.1432(2)
C17_17 C 0.85085(17) 0.5800(2) 0.14915(17)
C18_17 C 0.8995(2) 0.68158(18) 0.1536(2)
C19_17 C 0.8464(2) 0.68158(18) 0.1005(2)
C20_17 C 0.8995(2) 0.31842(18) 0.1536(2)
H6_17 H 0.8248 0.6677 0.0850
H7_17 H 0.9150 0.6677 0.1752
H8_17 H 0.9150 0.3323 0.1752
C21_17 C 0.80467(16) 0.5372(3) 0.19533(16)
H9_17 H 0.7941 0.5631 0.2059
C22_17 C 0.8305(2) 0.74858(18) 0.0575(3)
C23_17 C 0.9425(3) 0.74858(18) 0.1695(2)
C24_17 C 0.9425(3) 0.25142(18) 0.1695(2)
C25_17 C 0.8583(2) 0.6172(3) 0.1417(2)
N1_30 N 0.21100(18) 0.5000 0.78900(18)
C1_18 C 0.1316(2) 0.3393(2) 0.8684(2)
C2_30 C 0.1482(2) 0.5000 0.8518(2)
H1_30 H 0.1270 0.5000 0.8730
C3_18 C 0.11242(19) 0.2537(2) 0.88758(19)
H2_18 H 0.1056 0.2254 0.8944
C4_18 C 0.16409(17) 0.4624(2) 0.83591(17)
C5_18 C 0.1432(2) 0.27488(17) 0.90807(17)
C6_18 C 0.14915(17) 0.4200(2) 0.85085(17)
C7_18 C 0.1536(2) 0.31842(18) 0.8995(2)
H3_18 H 0.1752 0.3323 0.9150
C8_18 C 0.19533(16) 0.4628(3) 0.80467(16)
H4_18 H 0.2059 0.4369 0.7941
C9_18 C 0.1695(2) 0.25142(18) 0.9425(3)
C10_18 C 0.1417(2) 0.3828(3) 0.8583(2)
Cu4_11 Cu -0.0000 0.81944(2) 0.81944(2)
Cu5_11 Cu -0.0000 0.18056(2) 0.81944(2)
O5_18 O 0.04448(12) 0.78273(12) 0.84590(13)
O6_18 O 0.04448(12) 0.21727(12) 0.84590(13)
C11_18 C 0.1316(2) 0.6607(2) 0.8684(2)
C12_18 C 0.11242(19) 0.7463(2) 0.88758(19)
H5_18 H 0.1056 0.7746 0.8944
C13_18 C 0.16409(17) 0.5376(2) 0.83591(17)
C14_18 C 0.09193(17) 0.72512(17) 0.8568(2)
C15_18 C 0.1432(2) 0.72512(17) 0.90807(17)
C16_18 C 0.09193(17) 0.27488(17) 0.8568(2)
C17_18 C 0.14915(17) 0.5800(2) 0.85085(17)
C18_18 C 0.1005(2) 0.68158(18) 0.8464(2)
C19_18 C 0.1536(2) 0.68158(18) 0.8995(2)
C20_18 C 0.1005(2) 0.31842(18) 0.8464(2)
H6_18 H 0.1752 0.6677 0.9150
H7_18 H 0.0850 0.6677 0.8248
H8_18 H 0.0850 0.3323 0.8248
C21_18 C 0.19533(16) 0.5372(3) 0.80467(16)
H9_18 H 0.2059 0.5631 0.7941
C22_18 C 0.1695(2) 0.74858(18) 0.9425(3)
C23_18 C 0.0575(3) 0.74858(18) 0.8305(2)
C24_18 C 0.0575(3) 0.25142(18) 0.8305(2)
C25_18 C 0.1417(2) 0.6172(3) 0.8583(2)
Cu4_12 Cu 1.0000 0.81944(2) 0.81944(2)
Cu5_12 Cu 1.0000 0.18056(2) 0.81944(2)
N1_31 N 0.21100(18) 0.5000 0.21100(18)
C1_19 C 0.1316(2) 0.6607(2) 0.1316(2)
C2_31 C 0.1482(2) 0.5000 0.1482(2)
H1_31 H 0.1270 0.5000 0.1270
C3_19 C 0.11242(19) 0.7463(2) 0.11242(19)
H2_19 H 0.1056 0.7746 0.1056
C4_19 C 0.16409(17) 0.5376(2) 0.16409(17)
C5_19 C 0.1432(2) 0.72512(17) 0.09193(17)
C6_19 C 0.14915(17) 0.5800(2) 0.14915(17)
C7_19 C 0.1536(2) 0.68158(18) 0.1005(2)
H3_19 H 0.1752 0.6677 0.0850
C8_19 C 0.19533(16) 0.5372(3) 0.19533(16)
H4_19 H 0.2059 0.5631 0.2059
C9_19 C 0.1695(2) 0.74858(18) 0.0575(3)
C10_19 C 0.1417(2) 0.6172(3) 0.1417(2)
O5_19 O 0.04448(12) 0.21727(12) 0.15410(13)
O6_19 O 0.04448(12) 0.78273(12) 0.15410(13)
C11_19 C 0.1316(2) 0.3393(2) 0.1316(2)
C12_19 C 0.11242(19) 0.2537(2) 0.11242(19)
H5_19 H 0.1056 0.2254 0.1056
C13_19 C 0.16409(17) 0.4624(2) 0.16409(17)
C14_19 C 0.09193(17) 0.27488(17) 0.1432(2)
C15_19 C 0.1432(2) 0.27488(17) 0.09193(17)
C16_19 C 0.09193(17) 0.72512(17) 0.1432(2)
C17_19 C 0.14915(17) 0.4200(2) 0.14915(17)
C18_19 C 0.1005(2) 0.31842(18) 0.1536(2)
C19_19 C 0.1536(2) 0.31842(18) 0.1005(2)
C20_19 C 0.1005(2) 0.68158(18) 0.1536(2)
H6_19 H 0.1752 0.3323 0.0850
H7_19 H 0.0850 0.3323 0.1752
H8_19 H 0.0850 0.6677 0.1752
C21_19 C 0.19533(16) 0.4628(3) 0.19533(16)
H9_19 H 0.2059 0.4369 0.2059
C22_19 C 0.1695(2) 0.25142(18) 0.0575(3)
C23_19 C 0.0575(3) 0.25142(18) 0.1695(2)
C24_19 C 0.0575(3) 0.74858(18) 0.1695(2)
C25_19 C 0.1417(2) 0.3828(3) 0.1417(2)
N1_32 N 0.78900(18) 0.5000 0.78900(18)
C1_20 C 0.8684(2) 0.6607(2) 0.8684(2)
C2_32 C 0.8518(2) 0.5000 0.8518(2)
H1_32 H 0.8730 0.5000 0.8730
C3_20 C 0.88758(19) 0.7463(2) 0.88758(19)
H2_20 H 0.8944 0.7746 0.8944
C4_20 C 0.83591(17) 0.5376(2) 0.83591(17)
C5_20 C 0.8568(2) 0.72512(17) 0.90807(17)
C6_20 C 0.85085(17) 0.5800(2) 0.85085(17)
C7_20 C 0.8464(2) 0.68158(18) 0.8995(2)
H3_20 H 0.8248 0.6677 0.9150
C8_20 C 0.80467(16) 0.5372(3) 0.80467(16)
H4_20 H 0.7941 0.5631 0.7941
C9_20 C 0.8305(2) 0.74858(18) 0.9425(3)
C10_20 C 0.8583(2) 0.6172(3) 0.8583(2)
O5_20 O 0.95552(12) 0.21727(12) 0.84590(13)
O6_20 O 0.95552(12) 0.78273(12) 0.84590(13)
C11_20 C 0.8684(2) 0.3393(2) 0.8684(2)
C12_20 C 0.88758(19) 0.2537(2) 0.88758(19)
H5_20 H 0.8944 0.2254 0.8944
C13_20 C 0.83591(17) 0.4624(2) 0.83591(17)
C14_20 C 0.90807(17) 0.27488(17) 0.8568(2)
C15_20 C 0.8568(2) 0.27488(17) 0.90807(17)
C16_20 C 0.90807(17) 0.72512(17) 0.8568(2)
C17_20 C 0.85085(17) 0.4200(2) 0.85085(17)
C18_20 C 0.8995(2) 0.31842(18) 0.8464(2)
C19_20 C 0.8464(2) 0.31842(18) 0.8995(2)
C20_20 C 0.8995(2) 0.68158(18) 0.8464(2)
H6_20 H 0.8248 0.3323 0.9150
H7_20 H 0.9150 0.3323 0.8248
H8_20 H 0.9150 0.6677 0.8248
C21_20 C 0.80467(16) 0.4628(3) 0.80467(16)
H9_20 H 0.7941 0.4369 0.7941
C22_20 C 0.8305(2) 0.25142(18) 0.9425(3)
C23_20 C 0.9425(3) 0.25142(18) 0.8305(2)
C24_20 C 0.9425(3) 0.74858(18) 0.8305(2)
C25_20 C 0.8583(2) 0.3828(3) 0.8583(2)
N1_33 N 0.21100(18) 0.21100(18) 0.5000
O1_13 O 0.15410(13) 0.04448(12) 0.21727(12)
C1_21 C 0.1316(2) 0.1316(2) 0.3393(2)
C2_33 C 0.1482(2) 0.1482(2) 0.5000
H1_33 H 0.1270 0.1270 0.5000
C3_21 C 0.11242(19) 0.11242(19) 0.2537(2)
H2_21 H 0.1056 0.1056 0.2254
C4_21 C 0.16409(17) 0.16409(17) 0.4624(2)
C5_21 C 0.1432(2) 0.09193(17) 0.27488(17)
C6_21 C 0.14915(17) 0.14915(17) 0.4200(2)
C7_21 C 0.1536(2) 0.1005(2) 0.31842(18)
H3_21 H 0.1752 0.0850 0.3323
C8_21 C 0.19533(16) 0.19533(16) 0.4628(3)
H4_21 H 0.2059 0.2059 0.4369
C9_21 C 0.1695(2) 0.0575(3) 0.25142(18)
C10_21 C 0.1417(2) 0.1417(2) 0.3828(3)
O3_21 O 0.13145(17) -0.0000 0.13145(17)
O4_7 O 0.15410(13) 0.04448(12) 0.78273(12)
O5_21 O 0.04448(12) 0.15410(13) 0.78273(12)
O6_21 O 0.04448(12) 0.15410(13) 0.21727(12)
C11_21 C 0.1316(2) 0.1316(2) 0.6607(2)
C12_21 C 0.11242(19) 0.11242(19) 0.7463(2)
H5_21 H 0.1056 0.1056 0.7746
C13_21 C 0.16409(17) 0.16409(17) 0.5376(2)
C14_21 C 0.09193(17) 0.1432(2) 0.72512(17)
C15_21 C 0.1432(2) 0.09193(17) 0.72512(17)
C16_21 C 0.09193(17) 0.1432(2) 0.27488(17)
C17_21 C 0.14915(17) 0.14915(17) 0.5800(2)
C18_21 C 0.1005(2) 0.1536(2) 0.68158(18)
C19_21 C 0.1536(2) 0.1005(2) 0.68158(18)
C20_21 C 0.1005(2) 0.1536(2) 0.31842(18)
H6_21 H 0.1752 0.0850 0.6677
H7_21 H 0.0850 0.1752 0.6677
H8_21 H 0.0850 0.1752 0.3323
C21_21 C 0.19533(16) 0.19533(16) 0.5372(3)
H9_21 H 0.2059 0.2059 0.5631
C22_21 C 0.1695(2) 0.0575(3) 0.74858(18)
C23_21 C 0.0575(3) 0.1695(2) 0.74858(18)
C24_21 C 0.0575(3) 0.1695(2) 0.25142(18)
C25_21 C 0.1417(2) 0.1417(2) 0.6172(3)
O3_22 O 0.13145(17) 1.0000 0.13145(17)
O8_7 O 0.15410(13) 0.95552(12) 0.21727(12)
O3_23 O 0.86855(17) 0.0000 0.13145(17)
O8_8 O 0.84590(13) 0.04448(12) 0.21727(12)
N1_34 N 0.78900(18) 0.78900(18) 0.5000
O1_14 O 0.84590(13) 0.95552(12) 0.21727(12)
C1_22 C 0.8684(2) 0.8684(2) 0.3393(2)
C2_34 C 0.8518(2) 0.8518(2) 0.5000
H1_34 H 0.8730 0.8730 0.5000
C3_22 C 0.88758(19) 0.88758(19) 0.2537(2)
H2_22 H 0.8944 0.8944 0.2254
C4_22 C 0.83591(17) 0.83591(17) 0.4624(2)
C5_22 C 0.8568(2) 0.90807(17) 0.27488(17)
C6_22 C 0.85085(17) 0.85085(17) 0.4200(2)
C7_22 C 0.8464(2) 0.8995(2) 0.31842(18)
H3_22 H 0.8248 0.9150 0.3323
C8_22 C 0.80467(16) 0.80467(16) 0.4628(3)
H4_22 H 0.7941 0.7941 0.4369
C9_22 C 0.8305(2) 0.9425(3) 0.25142(18)
C10_22 C 0.8583(2) 0.8583(2) 0.3828(3)
O3_24 O 0.86855(17) 1.0000 0.13145(17)
O4_8 O 0.84590(13) 0.95552(12) 0.78273(12)
O5_22 O 0.95552(12) 0.84590(13) 0.78273(12)
O6_22 O 0.95552(12) 0.84590(13) 0.21727(12)
C11_22 C 0.8684(2) 0.8684(2) 0.6607(2)
C12_22 C 0.88758(19) 0.88758(19) 0.7463(2)
H5_22 H 0.8944 0.8944 0.7746
C13_22 C 0.83591(17) 0.83591(17) 0.5376(2)
C14_22 C 0.90807(17) 0.8568(2) 0.72512(17)
C15_22 C 0.8568(2) 0.90807(17) 0.72512(17)
C16_22 C 0.90807(17) 0.8568(2) 0.27488(17)
C17_22 C 0.85085(17) 0.85085(17) 0.5800(2)
C18_22 C 0.8995(2) 0.8464(2) 0.68158(18)
C19_22 C 0.8464(2) 0.8995(2) 0.68158(18)
C20_22 C 0.8995(2) 0.8464(2) 0.31842(18)
H6_22 H 0.8248 0.9150 0.6677
H7_22 H 0.9150 0.8248 0.6677
H8_22 H 0.9150 0.8248 0.3323
C21_22 C 0.80467(16) 0.80467(16) 0.5372(3)
H9_22 H 0.7941 0.7941 0.5631
C22_22 C 0.8305(2) 0.9425(3) 0.74858(18)
C23_22 C 0.9425(3) 0.8305(2) 0.74858(18)
C24_22 C 0.9425(3) 0.8305(2) 0.25142(18)
C25_22 C 0.8583(2) 0.8583(2) 0.6172(3)
O3_25 O 0.13145(17) 0.0000 0.86855(17)
N1_35 N 0.21100(18) 0.78900(18) 0.5000
O1_15 O 0.15410(13) 0.95552(12) 0.78273(12)
C1_23 C 0.1316(2) 0.8684(2) 0.6607(2)
C2_35 C 0.1482(2) 0.8518(2) 0.5000
H1_35 H 0.1270 0.8730 0.5000
C3_23 C 0.11242(19) 0.88758(19) 0.7463(2)
H2_23 H 0.1056 0.8944 0.7746
C4_23 C 0.16409(17) 0.83591(17) 0.5376(2)
C5_23 C 0.1432(2) 0.90807(17) 0.72512(17)
C6_23 C 0.14915(17) 0.85085(17) 0.5800(2)
C7_23 C 0.1536(2) 0.8995(2) 0.68158(18)
H3_23 H 0.1752 0.9150 0.6677
C8_23 C 0.19533(16) 0.80467(16) 0.5372(3)
H4_23 H 0.2059 0.7941 0.5631
C9_23 C 0.1695(2) 0.9425(3) 0.74858(18)
C10_23 C 0.1417(2) 0.8583(2) 0.6172(3)
O3_26 O 0.13145(17) 1.0000 0.86855(17)
O5_23 O 0.04448(12) 0.84590(13) 0.21727(12)
O6_23 O 0.04448(12) 0.84590(13) 0.78273(12)
C11_23 C 0.1316(2) 0.8684(2) 0.3393(2)
C12_23 C 0.11242(19) 0.88758(19) 0.2537(2)
H5_23 H 0.1056 0.8944 0.2254
C13_23 C 0.16409(17) 0.83591(17) 0.4624(2)
C14_23 C 0.09193(17) 0.8568(2) 0.27488(17)
C15_23 C 0.1432(2) 0.90807(17) 0.27488(17)
C16_23 C 0.09193(17) 0.8568(2) 0.72512(17)
C17_23 C 0.14915(17) 0.85085(17) 0.4200(2)
C18_23 C 0.1005(2) 0.8464(2) 0.31842(18)
C19_23 C 0.1536(2) 0.8995(2) 0.31842(18)
C20_23 C 0.1005(2) 0.8464(2) 0.68158(18)
H6_23 H 0.1752 0.9150 0.3323
H7_23 H 0.0850 0.8248 0.3323
H8_23 H 0.0850 0.8248 0.6677
C21_23 C 0.19533(16) 0.80467(16) 0.4628(3)
H9_23 H 0.2059 0.7941 0.4369
C22_23 C 0.1695(2) 0.9425(3) 0.25142(18)
C23_23 C 0.0575(3) 0.8305(2) 0.25142(18)
C24_23 C 0.0575(3) 0.8305(2) 0.74858(18)
C25_23 C 0.1417(2) 0.8583(2) 0.3828(3)
N1_36 N 0.78900(18) 0.21100(18) 0.5000
O1_16 O 0.84590(13) 0.04448(12) 0.78273(12)
C1_24 C 0.8684(2) 0.1316(2) 0.6607(2)
C2_36 C 0.8518(2) 0.1482(2) 0.5000
H1_36 H 0.8730 0.1270 0.5000
C3_24 C 0.88758(19) 0.11242(19) 0.7463(2)
H2_24 H 0.8944 0.1056 0.7746
C4_24 C 0.83591(17) 0.16409(17) 0.5376(2)
C5_24 C 0.8568(2) 0.09193(17) 0.72512(17)
C6_24 C 0.85085(17) 0.14915(17) 0.5800(2)
C7_24 C 0.8464(2) 0.1005(2) 0.68158(18)
H3_24 H 0.8248 0.0850 0.6677
C8_24 C 0.80467(16) 0.19533(16) 0.5372(3)
H4_24 H 0.7941 0.2059 0.5631
C9_24 C 0.8305(2) 0.0575(3) 0.74858(18)
C10_24 C 0.8583(2) 0.1417(2) 0.6172(3)
O3_27 O 0.86855(17) -0.0000 0.86855(17)
O5_24 O 0.95552(12) 0.15410(13) 0.21727(12)
O6_24 O 0.95552(12) 0.15410(13) 0.78273(12)
C11_24 C 0.8684(2) 0.1316(2) 0.3393(2)
C12_24 C 0.88758(19) 0.11242(19) 0.2537(2)
H5_24 H 0.8944 0.1056 0.2254
C13_24 C 0.83591(17) 0.16409(17) 0.4624(2)
C14_24 C 0.90807(17) 0.1432(2) 0.27488(17)
C15_24 C 0.8568(2) 0.09193(17) 0.27488(17)
C16_24 C 0.90807(17) 0.1432(2) 0.72512(17)
C17_24 C 0.85085(17) 0.14915(17) 0.4200(2)
C18_24 C 0.8995(2) 0.1536(2) 0.31842(18)
C19_24 C 0.8464(2) 0.1005(2) 0.31842(18)
C20_24 C 0.8995(2) 0.1536(2) 0.68158(18)
H6_24 H 0.8248 0.0850 0.3323
H7_24 H 0.9150 0.1752 0.3323
H8_24 H 0.9150 0.1752 0.6677
C21_24 C 0.80467(16) 0.19533(16) 0.4628(3)
H9_24 H 0.7941 0.2059 0.4369
C22_24 C 0.8305(2) 0.0575(3) 0.25142(18)
C23_24 C 0.9425(3) 0.1695(2) 0.25142(18)
C24_24 C 0.9425(3) 0.1695(2) 0.74858(18)
C25_24 C 0.8583(2) 0.1417(2) 0.3828(3)
O3_28 O 0.86855(17) 1.0000 0.86855(17)
O3_29 O 0.0000 0.13145(17) 0.13145(17)
O3_30 O 1.0000 0.13145(17) 0.13145(17)
O3_31 O 0.0000 0.86855(17) 0.86855(17)
O3_32 O 1.0000 0.86855(17) 0.86855(17)
O3_33 O -0.0000 0.86855(17) 0.13145(17)
O3_34 O 1.0000 0.86855(17) 0.13145(17)
O3_35 O -0.0000 0.13145(17) 0.86855(17)
O3_36 O 1.0000 0.13145(17) 0.86855(17)
loop_
_geom_bond_atom_site_label_1
_geom_bond_atom_site_label_2
_geom_bond_site_symmetry_1
_geom_bond_site_symmetry_2
Cu2 N1 1_555 1_555
C2 H1 1_555 1_555
Cu3 O4 1_555 1_555
Cu4 O5 1_555 1_555
Cu7 O10 1_555 1_555
Cu8 O11 1_555 1_555
O4 C22 1_555 1_555
O5 C23 1_555 1_555
O10 C22 1_555 1_555
O11 C23 1_555 1_555
O13 Cu2 1_555 1_555
O16 Cu2 1_555 1_555
C11 C18 1_555 1_555
C12 H5 1_555 1_555
C13 C2 1_555 1_555
C14 C12 1_555 1_555
C15 C12 1_555 1_555
C17 C13 1_555 1_555
C18 C14 1_555 1_555
C19 C11 1_555 1_555
H6 C19 1_555 1_555
H7 C18 1_555 1_555
C21 N1 1_555 1_555
H9 C21 1_555 1_555
C22 C15 1_555 1_555
C23 C14 1_555 1_555
C25 C11 1_555 1_555
C13 C21 1_555 1_555
C15 C19 1_555 1_555
C17 C25 1_555 1_555
Cu1 O1 1_555 1_555
Cu2_2 N1_2 1_555 1_555
N1_2 C8 1_555 1_555
O1 C9 1_555 1_555
O2 C9 1_555 1_555
C1 C7 1_555 1_555
C2_2 H1_2 1_555 1_555
C3 H2 1_555 1_555
C4 C2_2 1_555 1_555
C5 C3 1_555 1_555
C6 C4 1_555 1_555
C7 C5 1_555 1_555
H3 C7 1_555 1_555
C8 C4 1_555 1_555
H4 C8 1_555 1_555
C9 C5 1_555 1_555
C10 C1 1_555 1_555
O3 Cu1 1_555 1_555
Cu5 O6 1_555 1_555
Cu6 O2 1_555 1_555
Cu9 O12 1_555 1_555
O6 C24 1_555 1_555
O7 Cu1 1_555 1_555
O8 Cu1 1_555 1_555
O9 Cu1 1_555 1_555
O12 C24 1_555 1_555
O14 Cu2_2 1_555 1_555
O15 Cu2_2 1_555 1_555
C16 C3 1_555 1_555
C20 C1 1_555 1_555
H8 C20 1_555 1_555
C24 C16 1_555 1_555
C6 C10 1_555 1_555
C16 C20 1_555 1_555
Cu2_3 N1_3 1_555 1_555
C2_3 H1_3 1_555 1_555
Cu3_2 O4_2 1_555 1_555
Cu4_2 O5_2 1_555 1_555
Cu7_2 O10_2 1_555 1_555
Cu8_2 O11_2 1_555 1_555
O4_2 C22_2 1_555 1_555
O5_2 C23_2 1_555 1_555
O10_2 C22_2 1_555 1_555
O11_2 C23_2 1_555 1_555
O13_2 Cu2_3 1_555 1_555
O16_2 Cu2_3 1_555 1_555
C11_2 C18_2 1_555 1_555
C12_2 H5_2 1_555 1_555
C13_2 C2_3 1_555 1_555
C14_2 C12_2 1_555 1_555
C15_2 C12_2 1_555 1_555
C17_2 C13_2 1_555 1_555
C18_2 C14_2 1_555 1_555
C19_2 C11_2 1_555 1_555
H6_2 C19_2 1_555 1_555
H7_2 C18_2 1_555 1_555
C21_2 N1_3 1_555 1_555
H9_2 C21_2 1_555 1_555
C22_2 C15_2 1_555 1_555
C23_2 C14_2 1_555 1_555
C25_2 C11_2 1_555 1_555
C13_2 C21_2 1_555 1_555
C15_2 C19_2 1_555 1_555
C17_2 C25_2 1_555 1_555
Cu1_2 O1_2 1_555 1_555
Cu2_4 N1_4 1_555 1_555
N1_4 C8_2 1_555 1_555
O1_2 C9_2 1_555 1_555
O2_2 C9_2 1_555 1_555
C1_2 C7_2 1_555 1_555
C2_4 H1_4 1_555 1_555
C3_2 H2_2 1_555 1_555
C4_2 C2_4 1_555 1_555
C5_2 C3_2 1_555 1_555
C6_2 C4_2 1_555 1_555
C7_2 C5_2 1_555 1_555
H3_2 C7_2 1_555 1_555
C8_2 C4_2 1_555 1_555
H4_2 C8_2 1_555 1_555
C9_2 C5_2 1_555 1_555
C10_2 C1_2 1_555 1_555
O3_2 Cu1_2 1_555 1_555
Cu5_2 O6_2 1_555 1_555
Cu6_2 O2_2 1_555 1_555
Cu9_2 O12_2 1_555 1_555
O6_2 C24_2 1_555 1_555
O7_2 Cu1_2 1_555 1_555
O8_2 Cu1_2 1_555 1_555
O9_2 Cu1_2 1_555 1_555
O12_2 C24_2 1_555 1_555
O14_2 Cu2_4 1_555 1_555
O15_2 Cu2_4 1_555 1_555
C16_2 C3_2 1_555 1_555
C20_2 C1_2 1_555 1_555
H8_2 C20_2 1_555 1_555
C24_2 C16_2 1_555 1_555
C6_2 C10_2 1_555 1_555
C16_2 C20_2 1_555 1_555
Cu3_2 O1_3 1_555 1_555
Cu2_5 N1_5 1_555 1_555
N1_5 C8_3 1_555 1_555
O1_3 C9_3 1_555 1_555
O2_3 C9_3 1_555 1_555
C1_3 C7_3 1_555 1_555
C2_5 H1_5 1_555 1_555
C3_3 H2_3 1_555 1_555
C4_3 C2_5 1_555 1_555
C5_3 C3_3 1_555 1_555
C6_3 C4_3 1_555 1_555
C7_3 C5_3 1_555 1_555
H3_3 C7_3 1_555 1_555
C8_3 C4_3 1_555 1_555
H4_3 C8_3 1_555 1_555
C9_3 C5_3 1_555 1_555
C10_3 C1_3 1_555 1_555
O3_3 Cu3_2 1_555 1_555
Cu4 O6_3 1_555 1_555
Cu7_2 O2_3 1_555 1_555
Cu8 O12_3 1_555 1_555
O6_3 C24_3 1_555 1_555
O7_3 Cu3_2 1_555 1_555
O9_3 Cu3_2 1_555 1_555
O12_3 C24_3 1_555 1_555
O14_3 Cu2_5 1_555 1_555
O15_3 Cu2_5 1_555 1_555
C16_3 C3_3 1_555 1_555
C20_3 C1_3 1_555 1_555
H8_3 C20_3 1_555 1_555
C24_3 C16_3 1_555 1_555
C6_3 C10_3 1_555 1_555
C16_3 C20_3 1_555 1_555
Cu2_6 N1_6 1_555 1_555
C2_6 H1_6 1_555 1_555
Cu5 O5_3 1_555 1_555
Cu6_2 O10_3 1_555 1_555
Cu9 O11_3 1_555 1_555
O8_2 C22_3 1_555 1_555
O5_3 C23_3 1_555 1_555
O10_3 C22_3 1_555 1_555
O11_3 C23_3 1_555 1_555
O13_3 Cu2_6 1_555 1_555
O16_3 Cu2_6 1_555 1_555
C11_3 C18_3 1_555 1_555
C12_3 H5_3 1_555 1_555
C13_3 C2_6 1_555 1_555
C14_3 C12_3 1_555 1_555
C15_3 C12_3 1_555 1_555
C17_3 C13_3 1_555 1_555
C18_3 C14_3 1_555 1_555
C19_3 C11_3 1_555 1_555
H6_3 C19_3 1_555 1_555
H7_3 C18_3 1_555 1_555
C21_3 N1_6 1_555 1_555
H9_3 C21_3 1_555 1_555
C22_3 C15_3 1_555 1_555
C23_3 C14_3 1_555 1_555
C25_3 C11_3 1_555 1_555
C13_3 C21_3 1_555 1_555
C15_3 C19_3 1_555 1_555
C17_3 C25_3 1_555 1_555
Cu3 O1_4 1_555 1_555
Cu2_7 N1_7 1_555 1_555
N1_7 C8_4 1_555 1_555
O1_4 C9_4 1_555 1_555
O2_4 C9_4 1_555 1_555
C1_4 C7_4 1_555 1_555
C2_7 H1_7 1_555 1_555
C3_4 H2_4 1_555 1_555
C4_4 C2_7 1_555 1_555
C5_4 C3_4 1_555 1_555
C6_4 C4_4 1_555 1_555
C7_4 C5_4 1_555 1_555
H3_4 C7_4 1_555 1_555
C8_4 C4_4 1_555 1_555
H4_4 C8_4 1_555 1_555
C9_4 C5_4 1_555 1_555
C10_4 C1_4 1_555 1_555
O3_4 Cu3 1_555 1_555
Cu4_2 O6_4 1_555 1_555
Cu7 O2_4 1_555 1_555
Cu8_2 O12_4 1_555 1_555
O6_4 C24_4 1_555 1_555
O7_4 Cu3 1_555 1_555
O9_4 Cu3 1_555 1_555
O12_4 C24_4 1_555 1_555
O14_4 Cu2_7 1_555 1_555
O15_4 Cu2_7 1_555 1_555
C16_4 C3_4 1_555 1_555
C20_4 C1_4 1_555 1_555
H8_4 C20_4 1_555 1_555
C24_4 C16_4 1_555 1_555
C6_4 C10_4 1_555 1_555
C16_4 C20_4 1_555 1_555
Cu2_8 N1_8 1_555 1_555
C2_8 H1_8 1_555 1_555
Cu5_2 O5_4 1_555 1_555
Cu6 O10_4 1_555 1_555
Cu9_2 O11_4 1_555 1_555
O8 C22_4 1_555 1_555
O5_4 C23_4 1_555 1_555
O10_4 C22_4 1_555 1_555
O11_4 C23_4 1_555 1_555
O13_4 Cu2_8 1_555 1_555
O16_4 Cu2_8 1_555 1_555
C11_4 C18_4 1_555 1_555
C12_4 H5_4 1_555 1_555
C13_4 C2_8 1_555 1_555
C14_4 C12_4 1_555 1_555
C15_4 C12_4 1_555 1_555
C17_4 C13_4 1_555 1_555
C18_4 C14_4 1_555 1_555
C19_4 C11_4 1_555 1_555
H6_4 C19_4 1_555 1_555
H7_4 C18_4 1_555 1_555
C21_4 N1_8 1_555 1_555
H9_4 C21_4 1_555 1_555
C22_4 C15_4 1_555 1_555
C23_4 C14_4 1_555 1_555
C25_4 C11_4 1_555 1_555
C13_4 C21_4 1_555 1_555
C15_4 C19_4 1_555 1_555
C17_4 C25_4 1_555 1_555
Cu2_9 N1_9 1_555 1_555
C2_9 H1_9 1_555 1_555
Cu4_3 O5_5 1_555 1_555
Cu7_2 O10_5 1_555 1_555
Cu8_3 O11_5 1_555 1_555
O9_3 C22_5 1_555 1_555
O5_5 C23_5 1_555 1_555
O10_5 C22_5 1_555 1_555
O11_5 C23_5 1_555 1_555
O13_5 Cu2_9 1_555 1_555
O16_5 Cu2_9 1_555 1_555
C11_5 C18_5 1_555 1_555
C12_5 H5_5 1_555 1_555
C13_5 C2_9 1_555 1_555
C14_5 C12_5 1_555 1_555
C15_5 C12_5 1_555 1_555
C17_5 C13_5 1_555 1_555
C18_5 C14_5 1_555 1_555
C19_5 C11_5 1_555 1_555
H6_5 C19_5 1_555 1_555
H7_5 C18_5 1_555 1_555
C21_5 N1_9 1_555 1_555
H9_5 C21_5 1_555 1_555
C22_5 C15_5 1_555 1_555
C23_5 C14_5 1_555 1_555
C25_5 C11_5 1_555 1_555
C13_5 C21_5 1_555 1_555
C15_5 C19_5 1_555 1_555
C17_5 C25_5 1_555 1_555
Cu2_10 N1_10 1_555 1_555
N1_10 C8_5 1_555 1_555
O7_4 C9_5 1_555 1_555
O2_5 C9_5 1_555 1_555
C1_5 C7_5 1_555 1_555
C2_10 H1_10 1_555 1_555
C3_5 H2_5 1_555 1_555
C4_5 C2_10 1_555 1_555
C5_5 C3_5 1_555 1_555
C6_5 C4_5 1_555 1_555
C7_5 C5_5 1_555 1_555
H3_5 C7_5 1_555 1_555
C8_5 C4_5 1_555 1_555
H4_5 C8_5 1_555 1_555
C9_5 C5_5 1_555 1_555
C10_5 C1_5 1_555 1_555
Cu5_3 O6_5 1_555 1_555
Cu7 O2_5 1_555 1_555
Cu9_3 O12_5 1_555 1_555
O6_5 C24_5 1_555 1_555
O12_5 C24_5 1_555 1_555
O14_5 Cu2_10 1_555 1_555
O15_5 Cu2_10 1_555 1_555
C16_5 C3_5 1_555 1_555
C20_5 C1_5 1_555 1_555
H8_5 C20_5 1_555 1_555
C24_5 C16_5 1_555 1_555
C6_5 C10_5 1_555 1_555
C16_5 C20_5 1_555 1_555
Cu2_11 N1_11 1_555 1_555
C2_11 H1_11 1_555 1_555
Cu4_4 O5_6 1_555 1_555
Cu6_2 O10_6 1_555 1_555
Cu8_4 O11_6 1_555 1_555
O9_2 C22_6 1_555 1_555
O5_6 C23_6 1_555 1_555
O10_6 C22_6 1_555 1_555
O11_6 C23_6 1_555 1_555
O13_6 Cu2_11 1_555 1_555
O16_6 Cu2_11 1_555 1_555
C11_6 C18_6 1_555 1_555
C12_6 H5_6 1_555 1_555
C13_6 C2_11 1_555 1_555
C14_6 C12_6 1_555 1_555
C15_6 C12_6 1_555 1_555
C17_6 C13_6 1_555 1_555
C18_6 C14_6 1_555 1_555
C19_6 C11_6 1_555 1_555
H6_6 C19_6 1_555 1_555
H7_6 C18_6 1_555 1_555
C21_6 N1_11 1_555 1_555
H9_6 C21_6 1_555 1_555
C22_6 C15_6 1_555 1_555
C23_6 C14_6 1_555 1_555
C25_6 C11_6 1_555 1_555
C13_6 C21_6 1_555 1_555
C15_6 C19_6 1_555 1_555
C17_6 C25_6 1_555 1_555
Cu2_12 N1_12 1_555 1_555
N1_12 C8_6 1_555 1_555
O7 C9_6 1_555 1_555
O2_6 C9_6 1_555 1_555
C1_6 C7_6 1_555 1_555
C2_12 H1_12 1_555 1_555
C3_6 H2_6 1_555 1_555
C4_6 C2_12 1_555 1_555
C5_6 C3_6 1_555 1_555
C6_6 C4_6 1_555 1_555
C7_6 C5_6 1_555 1_555
H3_6 C7_6 1_555 1_555
C8_6 C4_6 1_555 1_555
H4_6 C8_6 1_555 1_555
C9_6 C5_6 1_555 1_555
C10_6 C1_6 1_555 1_555
Cu5_4 O6_6 1_555 1_555
Cu6 O2_6 1_555 1_555
Cu9_4 O12_6 1_555 1_555
O6_6 C24_6 1_555 1_555
O12_6 C24_6 1_555 1_555
O14_6 Cu2_12 1_555 1_555
O15_6 Cu2_12 1_555 1_555
C16_6 C3_6 1_555 1_555
C20_6 C1_6 1_555 1_555
H8_6 C20_6 1_555 1_555
C24_6 C16_6 1_555 1_555
C6_6 C10_6 1_555 1_555
C16_6 C20_6 1_555 1_555
Cu2_13 N1_13 1_555 1_555
N1_13 C8_7 1_555 1_555
O7_2 C9_7 1_555 1_555
O2_7 C9_7 1_555 1_555
C1_7 C7_7 1_555 1_555
C2_13 H1_13 1_555 1_555
C3_7 H2_7 1_555 1_555
C4_7 C2_13 1_555 1_555
C5_7 C3_7 1_555 1_555
C6_7 C4_7 1_555 1_555
C7_7 C5_7 1_555 1_555
H3_7 C7_7 1_555 1_555
C8_7 C4_7 1_555 1_555
H4_7 C8_7 1_555 1_555
C9_7 C5_7 1_555 1_555
C10_7 C1_7 1_555 1_555
Cu4_3 O6_7 1_555 1_555
Cu6_2 O2_7 1_555 1_555
Cu8_3 O12_7 1_555 1_555
O6_7 C24_7 1_555 1_555
O12_7 C24_7 1_555 1_555
O14_7 Cu2_13 1_555 1_555
O15_7 Cu2_13 1_555 1_555
C16_7 C3_7 1_555 1_555
C20_7 C1_7 1_555 1_555
H8_7 C20_7 1_555 1_555
C24_7 C16_7 1_555 1_555
C6_7 C10_7 1_555 1_555
C16_7 C20_7 1_555 1_555
Cu2_14 N1_14 1_555 1_555
C2_14 H1_14 1_555 1_555
Cu5_3 O5_7 1_555 1_555
Cu6 O10_7 1_555 1_555
Cu9_3 O11_7 1_555 1_555
O9 C22_7 1_555 1_555
O5_7 C23_7 1_555 1_555
O10_7 C22_7 1_555 1_555
O11_7 C23_7 1_555 1_555
O13_7 Cu2_14 1_555 1_555
O16_7 Cu2_14 1_555 1_555
C11_7 C18_7 1_555 1_555
C12_7 H5_7 1_555 1_555
C13_7 C2_14 1_555 1_555
C14_7 C12_7 1_555 1_555
C15_7 C12_7 1_555 1_555
C17_7 C13_7 1_555 1_555
C18_7 C14_7 1_555 1_555
C19_7 C11_7 1_555 1_555
H6_7 C19_7 1_555 1_555
H7_7 C18_7 1_555 1_555
C21_7 N1_14 1_555 1_555
H9_7 C21_7 1_555 1_555
C22_7 C15_7 1_555 1_555
C23_7 C14_7 1_555 1_555
C25_7 C11_7 1_555 1_555
C13_7 C21_7 1_555 1_555
C15_7 C19_7 1_555 1_555
C17_7 C25_7 1_555 1_555
Cu2_15 N1_15 1_555 1_555
N1_15 C8_8 1_555 1_555
O7_3 C9_8 1_555 1_555
O2_8 C9_8 1_555 1_555
C1_8 C7_8 1_555 1_555
C2_15 H1_15 1_555 1_555
C3_8 H2_8 1_555 1_555
C4_8 C2_15 1_555 1_555
C5_8 C3_8 1_555 1_555
C6_8 C4_8 1_555 1_555
C7_8 C5_8 1_555 1_555
H3_8 C7_8 1_555 1_555
C8_8 C4_8 1_555 1_555
H4_8 C8_8 1_555 1_555
C9_8 C5_8 1_555 1_555
C10_8 C1_8 1_555 1_555
Cu4_4 O6_8 1_555 1_555
Cu7_2 O2_8 1_555 1_555
Cu8_4 O12_8 1_555 1_555
O6_8 C24_8 1_555 1_555
O12_8 C24_8 1_555 1_555
O14_8 Cu2_15 1_555 1_555
O15_8 Cu2_15 1_555 1_555
C16_8 C3_8 1_555 1_555
C20_8 C1_8 1_555 1_555
H8_8 C20_8 1_555 1_555
C24_8 C16_8 1_555 1_555
C6_8 C10_8 1_555 1_555
C16_8 C20_8 1_555 1_555
Cu2_16 N1_16 1_555 1_555
C2_16 H1_16 1_555 1_555
Cu5_4 O5_8 1_555 1_555
Cu7 O10_8 1_555 1_555
Cu9_4 O11_8 1_555 1_555
O9_4 C22_8 1_555 1_555
O5_8 C23_8 1_555 1_555
O10_8 C22_8 1_555 1_555
O11_8 C23_8 1_555 1_555
O13_8 Cu2_16 1_555 1_555
O16_8 Cu2_16 1_555 1_555
C11_8 C18_8 1_555 1_555
C12_8 H5_8 1_555 1_555
C13_8 C2_16 1_555 1_555
C14_8 C12_8 1_555 1_555
C15_8 C12_8 1_555 1_555
C17_8 C13_8 1_555 1_555
C18_8 C14_8 1_555 1_555
C19_8 C11_8 1_555 1_555
H6_8 C19_8 1_555 1_555
H7_8 C18_8 1_555 1_555
C21_8 N1_16 1_555 1_555
H9_8 C21_8 1_555 1_555
C22_8 C15_8 1_555 1_555
C23_8 C14_8 1_555 1_555
C25_8 C11_8 1_555 1_555
C13_8 C21_8 1_555 1_555
C15_8 C19_8 1_555 1_555
C17_8 C25_8 1_555 1_555
Cu2_17 N1_17 1_555 1_555
C2_17 H1_17 1_555 1_555
Cu5_2 O4_3 1_555 1_555
Cu5_4 O5_9 1_555 1_555
Cu9_2 O10_9 1_555 1_555
Cu9_4 O11_9 1_555 1_555
O4_3 C22_9 1_555 1_555
O5_9 C23_9 1_555 1_555
O10_9 C22_9 1_555 1_555
O11_9 C23_9 1_555 1_555
O13_9 Cu2_17 1_555 1_555
O16_9 Cu2_17 1_555 1_555
C11_9 C18_9 1_555 1_555
C12_9 H5_9 1_555 1_555
C13_9 C2_17 1_555 1_555
C14_9 C12_9 1_555 1_555
C15_9 C12_9 1_555 1_555
C17_9 C13_9 1_555 1_555
C18_9 C14_9 1_555 1_555
C19_9 C11_9 1_555 1_555
H6_9 C19_9 1_555 1_555
H7_9 C18_9 1_555 1_555
C21_9 N1_17 1_555 1_555
H9_9 C21_9 1_555 1_555
C22_9 C15_9 1_555 1_555
C23_9 C14_9 1_555 1_555
C25_9 C11_9 1_555 1_555
C13_9 C21_9 1_555 1_555
C15_9 C19_9 1_555 1_555
C17_9 C25_9 1_555 1_555
Cu5 O1_5 1_555 1_555
Cu2_18 N1_18 1_555 1_555
N1_18 C8_9 1_555 1_555
O1_5 C9_9 1_555 1_555
O2_9 C9_9 1_555 1_555
C1_9 C7_9 1_555 1_555
C2_18 H1_18 1_555 1_555
C3_9 H2_9 1_555 1_555
C4_9 C2_18 1_555 1_555
C5_9 C3_9 1_555 1_555
C6_9 C4_9 1_555 1_555
C7_9 C5_9 1_555 1_555
H3_9 C7_9 1_555 1_555
C8_9 C4_9 1_555 1_555
H4_9 C8_9 1_555 1_555
C9_9 C5_9 1_555 1_555
C10_9 C1_9 1_555 1_555
O3_5 Cu5 1_555 1_555
Cu5_3 O6_9 1_555 1_555
Cu9 O2_9 1_555 1_555
Cu9_3 O12_9 1_555 1_555
O6_9 C24_9 1_555 1_555
O8_3 Cu5 1_555 1_555
O12_9 C24_9 1_555 1_555
O14_9 Cu2_18 1_555 1_555
O15_9 Cu2_18 1_555 1_555
C16_9 C3_9 1_555 1_555
C20_9 C1_9 1_555 1_555
H8_9 C20_9 1_555 1_555
C24_9 C16_9 1_555 1_555
C6_9 C10_9 1_555 1_555
C16_9 C20_9 1_555 1_555
Cu2_19 N1_19 1_555 1_555
C2_19 H1_19 1_555 1_555
Cu4_2 O4_4 1_555 1_555
Cu4_4 O5_10 1_555 1_555
Cu8_2 O10_10 1_555 1_555
Cu8_4 O11_10 1_555 1_555
O4_4 C22_10 1_555 1_555
O5_10 C23_10 1_555 1_555
O10_10 C22_10 1_555 1_555
O11_10 C23_10 1_555 1_555
O13_10 Cu2_19 1_555 1_555
O16_10 Cu2_19 1_555 1_555
C11_10 C18_10 1_555 1_555
C12_10 H5_10 1_555 1_555
C13_10 C2_19 1_555 1_555
C14_10 C12_10 1_555 1_555
C15_10 C12_10 1_555 1_555
C17_10 C13_10 1_555 1_555
C18_10 C14_10 1_555 1_555
C19_10 C11_10 1_555 1_555
H6_10 C19_10 1_555 1_555
H7_10 C18_10 1_555 1_555
C21_10 N1_19 1_555 1_555
H9_10 C21_10 1_555 1_555
C22_10 C15_10 1_555 1_555
C23_10 C14_10 1_555 1_555
C25_10 C11_10 1_555 1_555
C13_10 C21_10 1_555 1_555
C15_10 C19_10 1_555 1_555
C17_10 C25_10 1_555 1_555
Cu4 O1_6 1_555 1_555
Cu2_20 N1_20 1_555 1_555
N1_20 C8_10 1_555 1_555
O1_6 C9_10 1_555 1_555
O2_10 C9_10 1_555 1_555
C1_10 C7_10 1_555 1_555
C2_20 H1_20 1_555 1_555
C3_10 H2_10 1_555 1_555
C4_10 C2_20 1_555 1_555
C5_10 C3_10 1_555 1_555
C6_10 C4_10 1_555 1_555
C7_10 C5_10 1_555 1_555
H3_10 C7_10 1_555 1_555
C8_10 C4_10 1_555 1_555
H4_10 C8_10 1_555 1_555
C9_10 C5_10 1_555 1_555
C10_10 C1_10 1_555 1_555
O3_6 Cu4 1_555 1_555
Cu4_3 O6_10 1_555 1_555
Cu8 O2_10 1_555 1_555
Cu8_3 O12_10 1_555 1_555
O6_10 C24_10 1_555 1_555
O8_4 Cu4 1_555 1_555
O12_10 C24_10 1_555 1_555
O14_10 Cu2_20 1_555 1_555
O15_10 Cu2_20 1_555 1_555
C16_10 C3_10 1_555 1_555
C20_10 C1_10 1_555 1_555
H8_10 C20_10 1_555 1_555
C24_10 C16_10 1_555 1_555
C6_10 C10_10 1_555 1_555
C16_10 C20_10 1_555 1_555
Cu5_2 O1_7 1_555 1_555
Cu2_21 N1_21 1_555 1_555
N1_21 C8_11 1_555 1_555
O1_7 C9_11 1_555 1_555
O2_11 C9_11 1_555 1_555
C1_11 C7_11 1_555 1_555
C2_21 H1_21 1_555 1_555
C3_11 H2_11 1_555 1_555
C4_11 C2_21 1_555 1_555
C5_11 C3_11 1_555 1_555
C6_11 C4_11 1_555 1_555
C7_11 C5_11 1_555 1_555
H3_11 C7_11 1_555 1_555
C8_11 C4_11 1_555 1_555
H4_11 C8_11 1_555 1_555
C9_11 C5_11 1_555 1_555
C10_11 C1_11 1_555 1_555
O3_7 Cu5_2 1_555 1_555
Cu4_4 O6_11 1_555 1_555
Cu9_2 O2_11 1_555 1_555
Cu8_4 O12_11 1_555 1_555
O6_11 C24_11 1_555 1_555
O12_11 C24_11 1_555 1_555
O14_11 Cu2_21 1_555 1_555
O15_11 Cu2_21 1_555 1_555
C16_11 C3_11 1_555 1_555
C20_11 C1_11 1_555 1_555
H8_11 C20_11 1_555 1_555
C24_11 C16_11 1_555 1_555
C6_11 C10_11 1_555 1_555
C16_11 C20_11 1_555 1_555
Cu2_22 N1_22 1_555 1_555
C2_22 H1_22 1_555 1_555
Cu4_3 O5_11 1_555 1_555
Cu9 O10_11 1_555 1_555
Cu8_3 O11_11 1_555 1_555
O8_3 C22_11 1_555 1_555
O5_11 C23_11 1_555 1_555
O10_11 C22_11 1_555 1_555
O11_11 C23_11 1_555 1_555
O13_11 Cu2_22 1_555 1_555
O16_11 Cu2_22 1_555 1_555
C11_11 C18_11 1_555 1_555
C12_11 H5_11 1_555 1_555
C13_11 C2_22 1_555 1_555
C14_11 C12_11 1_555 1_555
C15_11 C12_11 1_555 1_555
C17_11 C13_11 1_555 1_555
C18_11 C14_11 1_555 1_555
C19_11 C11_11 1_555 1_555
H6_11 C19_11 1_555 1_555
H7_11 C18_11 1_555 1_555
C21_11 N1_22 1_555 1_555
H9_11 C21_11 1_555 1_555
C22_11 C15_11 1_555 1_555
C23_11 C14_11 1_555 1_555
C25_11 C11_11 1_555 1_555
C13_11 C21_11 1_555 1_555
C15_11 C19_11 1_555 1_555
C17_11 C25_11 1_555 1_555
Cu4_2 O1_8 1_555 1_555
Cu2_23 N1_23 1_555 1_555
N1_23 C8_12 1_555 1_555
O1_8 C9_12 1_555 1_555
O2_12 C9_12 1_555 1_555
C1_12 C7_12 1_555 1_555
C2_23 H1_23 1_555 1_555
C3_12 H2_12 1_555 1_555
C4_12 C2_23 1_555 1_555
C5_12 C3_12 1_555 1_555
C6_12 C4_12 1_555 1_555
C7_12 C5_12 1_555 1_555
H3_12 C7_12 1_555 1_555
C8_12 C4_12 1_555 1_555
H4_12 C8_12 1_555 1_555
C9_12 C5_12 1_555 1_555
C10_12 C1_12 1_555 1_555
O3_8 Cu4_2 1_555 1_555
Cu5_4 O6_12 1_555 1_555
Cu8_2 O2_12 1_555 1_555
Cu9_4 O12_12 1_555 1_555
O6_12 C24_12 1_555 1_555
O12_12 C24_12 1_555 1_555
O14_12 Cu2_23 1_555 1_555
O15_12 Cu2_23 1_555 1_555
C16_12 C3_12 1_555 1_555
C20_12 C1_12 1_555 1_555
H8_12 C20_12 1_555 1_555
C24_12 C16_12 1_555 1_555
C6_12 C10_12 1_555 1_555
C16_12 C20_12 1_555 1_555
Cu2_24 N1_24 1_555 1_555
C2_24 H1_24 1_555 1_555
Cu5_3 O5_12 1_555 1_555
Cu8 O10_12 1_555 1_555
Cu9_3 O11_12 1_555 1_555
O8_4 C22_12 1_555 1_555
O5_12 C23_12 1_555 1_555
O10_12 C22_12 1_555 1_555
O11_12 C23_12 1_555 1_555
O13_12 Cu2_24 1_555 1_555
O16_12 Cu2_24 1_555 1_555
C11_12 C18_12 1_555 1_555
C12_12 H5_12 1_555 1_555
C13_12 C2_24 1_555 1_555
C14_12 C12_12 1_555 1_555
C15_12 C12_12 1_555 1_555
C17_12 C13_12 1_555 1_555
C18_12 C14_12 1_555 1_555
C19_12 C11_12 1_555 1_555
H6_12 C19_12 1_555 1_555
H7_12 C18_12 1_555 1_555
C21_12 N1_24 1_555 1_555
H9_12 C21_12 1_555 1_555
C22_12 C15_12 1_555 1_555
C23_12 C14_12 1_555 1_555
C25_12 C11_12 1_555 1_555
C13_12 C21_12 1_555 1_555
C15_12 C19_12 1_555 1_555
C17_12 C25_12 1_555 1_555
O3_9 Cu5_3 1_555 1_555
O3_10 Cu4_4 1_555 1_555
O3_11 Cu4_3 1_555 1_555
O3_12 Cu5_4 1_555 1_555
Cu1_3 O1_9 1_555 1_555
Cu8_4 N1_25 1_555 1_555
N1_25 C8_13 1_555 1_555
O1_9 C9_13 1_555 1_555
O13_10 C9_13 1_555 1_555
C1_13 C7_13 1_555 1_555
C2_25 H1_25 1_555 1_555
C3_13 H2_13 1_555 1_555
C4_13 C2_25 1_555 1_555
C5_13 C3_13 1_555 1_555
C6_13 C4_13 1_555 1_555
C7_13 C5_13 1_555 1_555
H3_13 C7_13 1_555 1_555
C8_13 C4_13 1_555 1_555
H4_13 C8_13 1_555 1_555
C9_13 C5_13 1_555 1_555
C10_13 C1_13 1_555 1_555
O3_13 Cu1_3 1_555 1_555
Cu3_3 O4_5 1_555 1_555
Cu4_5 O5_13 1_555 1_555
Cu5_5 O6_13 1_555 1_555
O4_5 C22_13 1_555 1_555
O5_13 C23_13 1_555 1_555
O6_13 C24_13 1_555 1_555
O9_5 Cu1_3 1_555 1_555
O15_11 C22_13 1_555 1_555
O13_6 C23_13 1_555 1_555
O15_8 C24_13 1_555 1_555
C11_13 C18_13 1_555 1_555
C12_13 H5_13 1_555 1_555
C13_13 C2_25 1_555 1_555
C14_13 C12_13 1_555 1_555
C15_13 C12_13 1_555 1_555
C16_13 C3_13 1_555 1_555
C17_13 C13_13 1_555 1_555
C18_13 C14_13 1_555 1_555
C19_13 C11_13 1_555 1_555
C20_13 C1_13 1_555 1_555
H6_13 C19_13 1_555 1_555
H7_13 C18_13 1_555 1_555
H8_13 C20_13 1_555 1_555
C21_13 N1_25 1_555 1_555
H9_13 C21_13 1_555 1_555
C22_13 C15_13 1_555 1_555
C23_13 C14_13 1_555 1_555
C24_13 C16_13 1_555 1_555
C25_13 C11_13 1_555 1_555
C6_13 C10_13 1_555 1_555
C13_13 C21_13 1_555 1_555
C15_13 C19_13 1_555 1_555
C16_13 C20_13 1_555 1_555
C17_13 C25_13 1_555 1_555
O3_14 Cu1_4 1_555 1_555
O7_5 Cu1_4 1_555 1_555
O8_5 Cu1_4 1_555 1_555
O3_15 Cu1_5 1_555 1_555
O7_6 Cu1_5 1_555 1_555
O8_6 Cu1_5 1_555 1_555
Cu1_6 O1_10 1_555 1_555
Cu9_3 N1_26 1_555 1_555
N1_26 C8_14 1_555 1_555
O1_10 C9_14 1_555 1_555
O13_12 C9_14 1_555 1_555
C1_14 C7_14 1_555 1_555
C2_26 H1_26 1_555 1_555
C3_14 H2_14 1_555 1_555
C4_14 C2_26 1_555 1_555
C5_14 C3_14 1_555 1_555
C6_14 C4_14 1_555 1_555
C7_14 C5_14 1_555 1_555
H3_14 C7_14 1_555 1_555
C8_14 C4_14 1_555 1_555
H4_14 C8_14 1_555 1_555
C9_14 C5_14 1_555 1_555
C10_14 C1_14 1_555 1_555
O3_16 Cu1_6 1_555 1_555
Cu3_6 O4_6 1_555 1_555
Cu4_8 O5_14 1_555 1_555
Cu5_8 O6_14 1_555 1_555
O4_6 C22_14 1_555 1_555
O5_14 C23_14 1_555 1_555
O6_14 C24_14 1_555 1_555
O9_6 Cu1_6 1_555 1_555
O15_9 C22_14 1_555 1_555
O13_7 C23_14 1_555 1_555
O15_5 C24_14 1_555 1_555
C11_14 C18_14 1_555 1_555
C12_14 H5_14 1_555 1_555
C13_14 C2_26 1_555 1_555
C14_14 C12_14 1_555 1_555
C15_14 C12_14 1_555 1_555
C16_14 C3_14 1_555 1_555
C17_14 C13_14 1_555 1_555
C18_14 C14_14 1_555 1_555
C19_14 C11_14 1_555 1_555
C20_14 C1_14 1_555 1_555
H6_14 C19_14 1_555 1_555
H7_14 C18_14 1_555 1_555
H8_14 C20_14 1_555 1_555
C21_14 N1_26 1_555 1_555
H9_14 C21_14 1_555 1_555
C22_14 C15_14 1_555 1_555
C23_14 C14_14 1_555 1_555
C24_14 C16_14 1_555 1_555
C25_14 C11_14 1_555 1_555
C6_14 C10_14 1_555 1_555
C13_14 C21_14 1_555 1_555
C15_14 C19_14 1_555 1_555
C16_14 C20_14 1_555 1_555
C17_14 C25_14 1_555 1_555
Cu3_5 O1_11 1_555 1_555
Cu9_4 N1_27 1_555 1_555
N1_27 C8_15 1_555 1_555
O1_11 C9_15 1_555 1_555
O13_9 C9_15 1_555 1_555
C1_15 C7_15 1_555 1_555
C2_27 H1_27 1_555 1_555
C3_15 H2_15 1_555 1_555
C4_15 C2_27 1_555 1_555
C5_15 C3_15 1_555 1_555
C6_15 C4_15 1_555 1_555
C7_15 C5_15 1_555 1_555
H3_15 C7_15 1_555 1_555
C8_15 C4_15 1_555 1_555
H4_15 C8_15 1_555 1_555
C9_15 C5_15 1_555 1_555
C10_15 C1_15 1_555 1_555
O3_17 Cu3_5 1_555 1_555
Cu5_6 O5_15 1_555 1_555
Cu4_6 O6_15 1_555 1_555
O8_6 C22_15 1_555 1_555
O5_15 C23_15 1_555 1_555
O6_15 C24_15 1_555 1_555
O9_7 Cu3_5 1_555 1_555
O15_12 C22_15 1_555 1_555
O13_8 C23_15 1_555 1_555
O15_6 C24_15 1_555 1_555
C11_15 C18_15 1_555 1_555
C12_15 H5_15 1_555 1_555
C13_15 C2_27 1_555 1_555
C14_15 C12_15 1_555 1_555
C15_15 C12_15 1_555 1_555
C16_15 C3_15 1_555 1_555
C17_15 C13_15 1_555 1_555
C18_15 C14_15 1_555 1_555
C19_15 C11_15 1_555 1_555
C20_15 C1_15 1_555 1_555
H6_15 C19_15 1_555 1_555
H7_15 C18_15 1_555 1_555
H8_15 C20_15 1_555 1_555
C21_15 N1_27 1_555 1_555
H9_15 C21_15 1_555 1_555
C22_15 C15_15 1_555 1_555
C23_15 C14_15 1_555 1_555
C24_15 C16_15 1_555 1_555
C25_15 C11_15 1_555 1_555
C6_15 C10_15 1_555 1_555
C13_15 C21_15 1_555 1_555
C15_15 C19_15 1_555 1_555
C16_15 C20_15 1_555 1_555
C17_15 C25_15 1_555 1_555
O3_18 Cu3_6 1_555 1_555
O7_7 Cu3_6 1_555 1_555
O3_19 Cu3_3 1_555 1_555
O7_8 Cu3_3 1_555 1_555
Cu3_4 O1_12 1_555 1_555
Cu8_3 N1_28 1_555 1_555
N1_28 C8_16 1_555 1_555
O1_12 C9_16 1_555 1_555
O13_11 C9_16 1_555 1_555
C1_16 C7_16 1_555 1_555
C2_28 H1_28 1_555 1_555
C3_16 H2_16 1_555 1_555
C4_16 C2_28 1_555 1_555
C5_16 C3_16 1_555 1_555
C6_16 C4_16 1_555 1_555
C7_16 C5_16 1_555 1_555
H3_16 C7_16 1_555 1_555
C8_16 C4_16 1_555 1_555
H4_16 C8_16 1_555 1_555
C9_16 C5_16 1_555 1_555
C10_16 C1_16 1_555 1_555
O3_20 Cu3_4 1_555 1_555
Cu5_7 O5_16 1_555 1_555
Cu4_7 O6_16 1_555 1_555
O8_5 C22_16 1_555 1_555
O5_16 C23_16 1_555 1_555
O6_16 C24_16 1_555 1_555
O9_8 Cu3_4 1_555 1_555
O15_10 C22_16 1_555 1_555
O13_5 C23_16 1_555 1_555
O15_7 C24_16 1_555 1_555
C11_16 C18_16 1_555 1_555
C12_16 H5_16 1_555 1_555
C13_16 C2_28 1_555 1_555
C14_16 C12_16 1_555 1_555
C15_16 C12_16 1_555 1_555
C16_16 C3_16 1_555 1_555
C17_16 C13_16 1_555 1_555
C18_16 C14_16 1_555 1_555
C19_16 C11_16 1_555 1_555
C20_16 C1_16 1_555 1_555
H6_16 C19_16 1_555 1_555
H7_16 C18_16 1_555 1_555
H8_16 C20_16 1_555 1_555
C21_16 N1_28 1_555 1_555
H9_16 C21_16 1_555 1_555
C22_16 C15_16 1_555 1_555
C23_16 C14_16 1_555 1_555
C24_16 C16_16 1_555 1_555
C25_16 C11_16 1_555 1_555
C6_16 C10_16 1_555 1_555
C13_16 C21_16 1_555 1_555
C15_16 C19_16 1_555 1_555
C16_16 C20_16 1_555 1_555
C17_16 C25_16 1_555 1_555
Cu9_2 N1_29 1_555 1_555
N1_29 C8_17 1_555 1_555
O7_8 C9_17 1_555 1_555
O14_11 C9_17 1_555 1_555
C1_17 C7_17 1_555 1_555
C2_29 H1_29 1_555 1_555
C3_17 H2_17 1_555 1_555
C4_17 C2_29 1_555 1_555
C5_17 C3_17 1_555 1_555
C6_17 C4_17 1_555 1_555
C7_17 C5_17 1_555 1_555
H3_17 C7_17 1_555 1_555
C8_17 C4_17 1_555 1_555
H4_17 C8_17 1_555 1_555
C9_17 C5_17 1_555 1_555
C10_17 C1_17 1_555 1_555
Cu4_10 O5_17 1_555 1_555
Cu5_10 O6_17 1_555 1_555
O9_7 C22_17 1_555 1_555
O5_17 C23_17 1_555 1_555
O6_17 C24_17 1_555 1_555
O16_9 C22_17 1_555 1_555
O13_4 C23_17 1_555 1_555
O15_2 C24_17 1_555 1_555
C11_17 C18_17 1_555 1_555
C12_17 H5_17 1_555 1_555
C13_17 C2_29 1_555 1_555
C14_17 C12_17 1_555 1_555
C15_17 C12_17 1_555 1_555
C16_17 C3_17 1_555 1_555
C17_17 C13_17 1_555 1_555
C18_17 C14_17 1_555 1_555
C19_17 C11_17 1_555 1_555
C20_17 C1_17 1_555 1_555
H6_17 C19_17 1_555 1_555
H7_17 C18_17 1_555 1_555
H8_17 C20_17 1_555 1_555
C21_17 N1_29 1_555 1_555
H9_17 C21_17 1_555 1_555
C22_17 C15_17 1_555 1_555
C23_17 C14_17 1_555 1_555
C24_17 C16_17 1_555 1_555
C25_17 C11_17 1_555 1_555
C6_17 C10_17 1_555 1_555
C13_17 C21_17 1_555 1_555
C15_17 C19_17 1_555 1_555
C16_17 C20_17 1_555 1_555
C17_17 C25_17 1_555 1_555
Cu8 N1_30 1_555 1_555
N1_30 C8_18 1_555 1_555
O7_5 C9_18 1_555 1_555
O14_10 C9_18 1_555 1_555
C1_18 C7_18 1_555 1_555
C2_30 H1_30 1_555 1_555
C3_18 H2_18 1_555 1_555
C4_18 C2_30 1_555 1_555
C5_18 C3_18 1_555 1_555
C6_18 C4_18 1_555 1_555
C7_18 C5_18 1_555 1_555
H3_18 C7_18 1_555 1_555
C8_18 C4_18 1_555 1_555
H4_18 C8_18 1_555 1_555
C9_18 C5_18 1_555 1_555
C10_18 C1_18 1_555 1_555
Cu4_11 O5_18 1_555 1_555
Cu5_11 O6_18 1_555 1_555
O9_6 C22_18 1_555 1_555
O5_18 C23_18 1_555 1_555
O6_18 C24_18 1_555 1_555
O16_12 C22_18 1_555 1_555
O13 C23_18 1_555 1_555
O15_3 C24_18 1_555 1_555
C11_18 C18_18 1_555 1_555
C12_18 H5_18 1_555 1_555
C13_18 C2_30 1_555 1_555
C14_18 C12_18 1_555 1_555
C15_18 C12_18 1_555 1_555
C16_18 C3_18 1_555 1_555
C17_18 C13_18 1_555 1_555
C18_18 C14_18 1_555 1_555
C19_18 C11_18 1_555 1_555
C20_18 C1_18 1_555 1_555
H6_18 C19_18 1_555 1_555
H7_18 C18_18 1_555 1_555
H8_18 C20_18 1_555 1_555
C21_18 N1_30 1_555 1_555
H9_18 C21_18 1_555 1_555
C22_18 C15_18 1_555 1_555
C23_18 C14_18 1_555 1_555
C24_18 C16_18 1_555 1_555
C25_18 C11_18 1_555 1_555
C6_18 C10_18 1_555 1_555
C13_18 C21_18 1_555 1_555
C15_18 C19_18 1_555 1_555
C16_18 C20_18 1_555 1_555
C17_18 C25_18 1_555 1_555
Cu8_2 N1_31 1_555 1_555
N1_31 C8_19 1_555 1_555
O7_6 C9_19 1_555 1_555
O14_12 C9_19 1_555 1_555
C1_19 C7_19 1_555 1_555
C2_31 H1_31 1_555 1_555
C3_19 H2_19 1_555 1_555
C4_19 C2_31 1_555 1_555
C5_19 C3_19 1_555 1_555
C6_19 C4_19 1_555 1_555
C7_19 C5_19 1_555 1_555
H3_19 C7_19 1_555 1_555
C8_19 C4_19 1_555 1_555
H4_19 C8_19 1_555 1_555
C9_19 C5_19 1_555 1_555
C10_19 C1_19 1_555 1_555
Cu5_9 O5_19 1_555 1_555
Cu4_9 O6_19 1_555 1_555
O9_5 C22_19 1_555 1_555
O5_19 C23_19 1_555 1_555
O6_19 C24_19 1_555 1_555
O16_10 C22_19 1_555 1_555
O13_2 C23_19 1_555 1_555
O15_4 C24_19 1_555 1_555
C11_19 C18_19 1_555 1_555
C12_19 H5_19 1_555 1_555
C13_19 C2_31 1_555 1_555
C14_19 C12_19 1_555 1_555
C15_19 C12_19 1_555 1_555
C16_19 C3_19 1_555 1_555
C17_19 C13_19 1_555 1_555
C18_19 C14_19 1_555 1_555
C19_19 C11_19 1_555 1_555
C20_19 C1_19 1_555 1_555
H6_19 C19_19 1_555 1_555
H7_19 C18_19 1_555 1_555
H8_19 C20_19 1_555 1_555
C21_19 N1_31 1_555 1_555
H9_19 C21_19 1_555 1_555
C22_19 C15_19 1_555 1_555
C23_19 C14_19 1_555 1_555
C24_19 C16_19 1_555 1_555
C25_19 C11_19 1_555 1_555
C6_19 C10_19 1_555 1_555
C13_19 C21_19 1_555 1_555
C15_19 C19_19 1_555 1_555
C16_19 C20_19 1_555 1_555
C17_19 C25_19 1_555 1_555
Cu9 N1_32 1_555 1_555
N1_32 C8_20 1_555 1_555
O7_7 C9_20 1_555 1_555
O14_9 C9_20 1_555 1_555
C1_20 C7_20 1_555 1_555
C2_32 H1_32 1_555 1_555
C3_20 H2_20 1_555 1_555
C4_20 C2_32 1_555 1_555
C5_20 C3_20 1_555 1_555
C6_20 C4_20 1_555 1_555
C7_20 C5_20 1_555 1_555
H3_20 C7_20 1_555 1_555
C8_20 C4_20 1_555 1_555
H4_20 C8_20 1_555 1_555
C9_20 C5_20 1_555 1_555
C10_20 C1_20 1_555 1_555
Cu5_12 O5_20 1_555 1_555
Cu4_12 O6_20 1_555 1_555
O9_8 C22_20 1_555 1_555
O5_20 C23_20 1_555 1_555
O6_20 C24_20 1_555 1_555
O16_11 C22_20 1_555 1_555
O13_3 C23_20 1_555 1_555
O15 C24_20 1_555 1_555
C11_20 C18_20 1_555 1_555
C12_20 H5_20 1_555 1_555
C13_20 C2_32 1_555 1_555
C14_20 C12_20 1_555 1_555
C15_20 C12_20 1_555 1_555
C16_20 C3_20 1_555 1_555
C17_20 C13_20 1_555 1_555
C18_20 C14_20 1_555 1_555
C19_20 C11_20 1_555 1_555
C20_20 C1_20 1_555 1_555
H6_20 C19_20 1_555 1_555
H7_20 C18_20 1_555 1_555
H8_20 C20_20 1_555 1_555
C21_20 N1_32 1_555 1_555
H9_20 C21_20 1_555 1_555
C22_20 C15_20 1_555 1_555
C23_20 C14_20 1_555 1_555
C24_20 C16_20 1_555 1_555
C25_20 C11_20 1_555 1_555
C6_20 C10_20 1_555 1_555
C13_20 C21_20 1_555 1_555
C15_20 C19_20 1_555 1_555
C16_20 C20_20 1_555 1_555
C17_20 C25_20 1_555 1_555
Cu5_5 O1_13 1_555 1_555
Cu7_2 N1_33 1_555 1_555
N1_33 C8_21 1_555 1_555
O1_13 C9_21 1_555 1_555
O14_8 C9_21 1_555 1_555
C1_21 C7_21 1_555 1_555
C2_33 H1_33 1_555 1_555
C3_21 H2_21 1_555 1_555
C4_21 C2_33 1_555 1_555
C5_21 C3_21 1_555 1_555
C6_21 C4_21 1_555 1_555
C7_21 C5_21 1_555 1_555
H3_21 C7_21 1_555 1_555
C8_21 C4_21 1_555 1_555
H4_21 C8_21 1_555 1_555
C9_21 C5_21 1_555 1_555
C10_21 C1_21 1_555 1_555
O3_21 Cu5_5 1_555 1_555
Cu5_7 O4_7 1_555 1_555
Cu5_11 O5_21 1_555 1_555
Cu5_9 O6_21 1_555 1_555
O4_7 C22_21 1_555 1_555
O5_21 C23_21 1_555 1_555
O6_21 C24_21 1_555 1_555
O16_5 C22_21 1_555 1_555
O14_3 C23_21 1_555 1_555
O16_2 C24_21 1_555 1_555
C11_21 C18_21 1_555 1_555
C12_21 H5_21 1_555 1_555
C13_21 C2_33 1_555 1_555
C14_21 C12_21 1_555 1_555
C15_21 C12_21 1_555 1_555
C16_21 C3_21 1_555 1_555
C17_21 C13_21 1_555 1_555
C18_21 C14_21 1_555 1_555
C19_21 C11_21 1_555 1_555
C20_21 C1_21 1_555 1_555
H6_21 C19_21 1_555 1_555
H7_21 C18_21 1_555 1_555
H8_21 C20_21 1_555 1_555
C21_21 N1_33 1_555 1_555
H9_21 C21_21 1_555 1_555
C22_21 C15_21 1_555 1_555
C23_21 C14_21 1_555 1_555
C24_21 C16_21 1_555 1_555
C25_21 C11_21 1_555 1_555
C6_21 C10_21 1_555 1_555
C13_21 C21_21 1_555 1_555
C15_21 C19_21 1_555 1_555
C16_21 C20_21 1_555 1_555
C17_21 C25_21 1_555 1_555
O3_22 Cu5_6 1_555 1_555
O8_7 Cu5_6 1_555 1_555
O3_23 Cu4_5 1_555 1_555
O8_8 Cu4_5 1_555 1_555
Cu4_6 O1_14 1_555 1_555
Cu6 N1_34 1_555 1_555
N1_34 C8_22 1_555 1_555
O1_14 C9_22 1_555 1_555
O14_6 C9_22 1_555 1_555
C1_22 C7_22 1_555 1_555
C2_34 H1_34 1_555 1_555
C3_22 H2_22 1_555 1_555
C4_22 C2_34 1_555 1_555
C5_22 C3_22 1_555 1_555
C6_22 C4_22 1_555 1_555
C7_22 C5_22 1_555 1_555
H3_22 C7_22 1_555 1_555
C8_22 C4_22 1_555 1_555
H4_22 C8_22 1_555 1_555
C9_22 C5_22 1_555 1_555
C10_22 C1_22 1_555 1_555
O3_24 Cu4_6 1_555 1_555
Cu4_8 O4_8 1_555 1_555
Cu4_12 O5_22 1_555 1_555
Cu4_10 O6_22 1_555 1_555
O4_8 C22_22 1_555 1_555
O5_22 C23_22 1_555 1_555
O6_22 C24_22 1_555 1_555
O16_7 C22_22 1_555 1_555
O14 C23_22 1_555 1_555
O16_4 C24_22 1_555 1_555
C11_22 C18_22 1_555 1_555
C12_22 H5_22 1_555 1_555
C13_22 C2_34 1_555 1_555
C14_22 C12_22 1_555 1_555
C15_22 C12_22 1_555 1_555
C16_22 C3_22 1_555 1_555
C17_22 C13_22 1_555 1_555
C18_22 C14_22 1_555 1_555
C19_22 C11_22 1_555 1_555
C20_22 C1_22 1_555 1_555
H6_22 C19_22 1_555 1_555
H7_22 C18_22 1_555 1_555
H8_22 C20_22 1_555 1_555
C21_22 N1_34 1_555 1_555
H9_22 C21_22 1_555 1_555
C22_22 C15_22 1_555 1_555
C23_22 C14_22 1_555 1_555
C24_22 C16_22 1_555 1_555
C25_22 C11_22 1_555 1_555
C6_22 C10_22 1_555 1_555
C13_22 C21_22 1_555 1_555
C15_22 C19_22 1_555 1_555
C16_22 C20_22 1_555 1_555
C17_22 C25_22 1_555 1_555
O3_25 Cu5_7 1_555 1_555
Cu5_8 O1_15 1_555 1_555
Cu7 N1_35 1_555 1_555
N1_35 C8_23 1_555 1_555
O1_15 C9_23 1_555 1_555
O14_5 C9_23 1_555 1_555
C1_23 C7_23 1_555 1_555
C2_35 H1_35 1_555 1_555
C3_23 H2_23 1_555 1_555
C4_23 C2_35 1_555 1_555
C5_23 C3_23 1_555 1_555
C6_23 C4_23 1_555 1_555
C7_23 C5_23 1_555 1_555
H3_23 C7_23 1_555 1_555
C8_23 C4_23 1_555 1_555
H4_23 C8_23 1_555 1_555
C9_23 C5_23 1_555 1_555
C10_23 C1_23 1_555 1_555
O3_26 Cu5_8 1_555 1_555
Cu4_9 O5_23 1_555 1_555
Cu4_11 O6_23 1_555 1_555
O8_7 C22_23 1_555 1_555
O5_23 C23_23 1_555 1_555
O6_23 C24_23 1_555 1_555
O16_8 C22_23 1_555 1_555
O14_4 C23_23 1_555 1_555
O16 C24_23 1_555 1_555
C11_23 C18_23 1_555 1_555
C12_23 H5_23 1_555 1_555
C13_23 C2_35 1_555 1_555
C14_23 C12_23 1_555 1_555
C15_23 C12_23 1_555 1_555
C16_23 C3_23 1_555 1_555
C17_23 C13_23 1_555 1_555
C18_23 C14_23 1_555 1_555
C19_23 C11_23 1_555 1_555
C20_23 C1_23 1_555 1_555
H6_23 C19_23 1_555 1_555
H7_23 C18_23 1_555 1_555
H8_23 C20_23 1_555 1_555
C21_23 N1_35 1_555 1_555
H9_23 C21_23 1_555 1_555
C22_23 C15_23 1_555 1_555
C23_23 C14_23 1_555 1_555
C24_23 C16_23 1_555 1_555
C25_23 C11_23 1_555 1_555
C6_23 C10_23 1_555 1_555
C13_23 C21_23 1_555 1_555
C15_23 C19_23 1_555 1_555
C16_23 C20_23 1_555 1_555
C17_23 C25_23 1_555 1_555
Cu4_7 O1_16 1_555 1_555
Cu6_2 N1_36 1_555 1_555
N1_36 C8_24 1_555 1_555
O1_16 C9_24 1_555 1_555
O14_7 C9_24 1_555 1_555
C1_24 C7_24 1_555 1_555
C2_36 H1_36 1_555 1_555
C3_24 H2_24 1_555 1_555
C4_24 C2_36 1_555 1_555
C5_24 C3_24 1_555 1_555
C6_24 C4_24 1_555 1_555
C7_24 C5_24 1_555 1_555
H3_24 C7_24 1_555 1_555
C8_24 C4_24 1_555 1_555
H4_24 C8_24 1_555 1_555
C9_24 C5_24 1_555 1_555
C10_24 C1_24 1_555 1_555
O3_27 Cu4_7 1_555 1_555
Cu5_10 O5_24 1_555 1_555
Cu5_12 O6_24 1_555 1_555
O8_8 C22_24 1_555 1_555
O5_24 C23_24 1_555 1_555
O6_24 C24_24 1_555 1_555
O16_6 C22_24 1_555 1_555
O14_2 C23_24 1_555 1_555
O16_3 C24_24 1_555 1_555
C11_24 C18_24 1_555 1_555
C12_24 H5_24 1_555 1_555
C13_24 C2_36 1_555 1_555
C14_24 C12_24 1_555 1_555
C15_24 C12_24 1_555 1_555
C16_24 C3_24 1_555 1_555
C17_24 C13_24 1_555 1_555
C18_24 C14_24 1_555 1_555
C19_24 C11_24 1_555 1_555
C20_24 C1_24 1_555 1_555
H6_24 C19_24 1_555 1_555
H7_24 C18_24 1_555 1_555
H8_24 C20_24 1_555 1_555
C21_24 N1_36 1_555 1_555
H9_24 C21_24 1_555 1_555
C22_24 C15_24 1_555 1_555
C23_24 C14_24 1_555 1_555
C24_24 C16_24 1_555 1_555
C25_24 C11_24 1_555 1_555
C6_24 C10_24 1_555 1_555
C13_24 C21_24 1_555 1_555
C15_24 C19_24 1_555 1_555
C16_24 C20_24 1_555 1_555
C17_24 C25_24 1_555 1_555
O3_28 Cu4_8 1_555 1_555
O3_29 Cu5_9 1_555 1_555
O3_30 Cu5_10 1_555 1_555
O3_31 Cu4_11 1_555 1_555
O3_32 Cu4_12 1_555 1_555
O3_33 Cu4_9 1_555 1_555
O3_34 Cu4_10 1_555 1_555
O3_35 Cu5_11 1_555 1_555
O3_36 Cu5_12 1_555 1_555

#END
