
###############################################################################
#
# This file contains modified crystal structure data generated from the
# MOF subset of the Cambridge Structural Database (CSD) v543 
# hosted by the Cambridge Crystallographic Data Centre (CCDC).
#
# This work is licensed under the Creative Commons
# Attribution-NonCommercial-ShareAlike 4.0 International License.
# To view a copy of this license, visit
# http://creativecommons.org/licenses/by-nc-sa/4.0/
# or send a letter to
# Creative Commons, PO Box 1866, Mountain View, CA 94042, USA.
#
# CIF created using the CSD Python API on 29 September 2022
# The structure has been converted into the P1 space group
# The structure has a 3D framework
# The original CSD entry UVEVEX is in the monoclinic crystal system
# The framework has been calculated to contain at least 10.0% void space
# The void calculation uses a probe of radius 1.32A, grid spacing 0.4
#
###############################################################################

data_UVEVEX
_chemical_formula_moiety         '(C40 H20 Mn4 N12 O16)n'
_symmetry_cell_setting           triclinic
_symmetry_space_group_name_H-M   'P 1'
_symmetry_Int_Tables_number      1
_space_group_name_Hall           'P 1'
loop_
_symmetry_equiv_pos_site_id
_symmetry_equiv_pos_as_xyz
1 x,y,z
_cell_length_a                   11.214(11)
_cell_length_b                   12.585(13)
_cell_length_c                   14.447(15)
_cell_angle_alpha                90
_cell_angle_beta                 110.125(15)
_cell_angle_gamma                90
_cell_volume                     1914.39
loop_
_atom_site_label
_atom_site_type_symbol
_atom_site_fract_x
_atom_site_fract_y
_atom_site_fract_z
C9 C 0.1011(3) 0.3509(3) 0.3975(3)
H4 H 0.0740 0.4212 0.3919
C10 C 0.1033(3) 0.1802(3) 0.3958(3)
H5 H 0.0764 0.1098 0.3880
Mn1 Mn 0.38713(4) 0.41830(3) 0.46713(3)
N1 N 0.0245(2) 0.2647(2) 0.3773(2)
N2 N 0.2204(3) 0.3192(2) 0.42657(19)
N3 N 0.2216(3) 0.2097(2) 0.4260(2)
O5 O 0.5128(2) 0.3564(2) 0.59962(19)
O6 O 0.3226(3) 0.5324(2) 0.3540(2)
O7 O 0.5093(2) 0.3604(2) 0.39568(19)
O8 O 0.3257(3) 0.5296(2) 0.5502(2)
C1 C 0.6196(3) 0.3907(3) 0.4039(2)
C2 C 0.6909(3) 0.3245(3) 0.3537(2)
C3 C 0.8232(3) 0.3288(3) 0.3855(2)
H1 H 0.8677 0.3757 0.4351
C4 C 0.8871(3) 0.2628(2) 0.3427(2)
C5 C 0.8242(3) 0.1927(3) 0.2695(2)
H2 H 0.8696 0.1472 0.2431
C6 C 0.6917(3) 0.1903(3) 0.2348(2)
C7 C 0.6257(3) 0.2566(2) 0.2773(2)
H3 H 0.5374 0.2556 0.2543
C8 C 0.6223(3) 0.1165(3) 0.1537(2)
O1 O 0.5128(2) 0.1436(2) 0.09962(19)
O2 O 0.6774(3) 0.0324(2) 0.1460(2)
O4 O 0.6743(3) 0.4704(2) 0.4498(2)
Mn5 Mn 0.61287(4) 0.58170(3) 0.53287(3)
Mn2 Mn 0.38713(4) 0.08170(3) 0.96713(3)
Mn3 Mn 0.61287(4) 0.91830(3) 0.03287(3)
C1_2 C 0.3804(3) 0.8907(3) 0.0961(2)
C2_2 C 0.3091(3) 0.8245(3) 0.1463(2)
C3_2 C 0.1768(3) 0.8288(3) 0.1145(2)
H1_2 H 0.1323 0.8757 0.0649
C4_2 C 0.1129(3) 0.7628(2) 0.1573(2)
C5_2 C 0.1758(3) 0.6927(3) 0.2305(2)
H2_2 H 0.1304 0.6472 0.2569
C6_2 C 0.3083(3) 0.6903(3) 0.2652(2)
C7_2 C 0.3743(3) 0.7566(2) 0.2227(2)
H3_2 H 0.4626 0.7556 0.2457
C8_2 C 0.3777(3) 0.6165(3) 0.3463(2)
O1_2 O 0.4872(2) 0.6436(2) 0.40038(19)
O3 O 0.4907(2) 0.8604(2) 0.10432(19)
O4_2 O 0.3257(3) 0.9704(2) 0.0502(2)
O8_2 O 0.6743(3) 0.0296(2) 0.9498(2)
C9_2 C 0.8989(3) 0.8509(3) 0.1025(3)
H4_2 H 0.9260 0.9212 0.1081
C10_2 C 0.8967(3) 0.6802(3) 0.1042(3)
H5_2 H 0.9236 0.6098 0.1120
N1_2 N 0.9755(2) 0.7647(2) 0.1227(2)
N2_2 N 0.7796(3) 0.8192(2) 0.07343(19)
N3_2 N 0.7784(3) 0.7097(2) 0.0740(2)
O5_2 O 0.4872(2) 0.8564(2) 0.90038(19)
C1_3 C 0.3804(3) 0.6093(3) 0.5961(2)
C2_3 C 0.3091(3) 0.6755(3) 0.6463(2)
C3_3 C 0.1768(3) 0.6712(3) 0.6145(2)
H1_3 H 0.1323 0.6243 0.5649
C4_3 C 0.1129(3) 0.7372(2) 0.6573(2)
C5_3 C 0.1758(3) 0.8073(3) 0.7305(2)
H2_3 H 0.1304 0.8528 0.7569
C6_3 C 0.3083(3) 0.8097(3) 0.7652(2)
C7_3 C 0.3743(3) 0.7434(2) 0.7227(2)
H3_3 H 0.4626 0.7444 0.7457
C8_3 C 0.3777(3) 0.8835(3) 0.8463(2)
O2_2 O 0.3226(3) 0.9676(2) 0.8540(2)
O3_2 O 0.4907(2) 0.6396(2) 0.60432(19)
C9_3 C 0.8989(3) 0.6491(3) 0.6025(3)
H4_3 H 0.9260 0.5788 0.6081
C10_3 C 0.8967(3) 0.8198(3) 0.6042(3)
H5_3 H 0.9236 0.8902 0.6120
N1_3 N 0.9755(2) 0.7353(2) 0.6227(2)
N2_3 N 0.7796(3) 0.6808(2) 0.57343(19)
N3_3 N 0.7784(3) 0.7903(2) 0.5740(2)
O6_2 O 0.6774(3) 0.4676(2) 0.6460(2)
C9_4 C 0.1011(3) 0.1491(3) 0.8975(3)
H4_4 H 0.0740 0.0788 0.8919
C10_4 C 0.1033(3) 0.3198(3) 0.8958(3)
H5_4 H 0.0764 0.3902 0.8880
N1_4 N 0.0245(2) 0.2353(2) 0.8773(2)
N2_4 N 0.2204(3) 0.1808(2) 0.92657(19)
N3_4 N 0.2216(3) 0.2903(2) 0.9260(2)
O7_2 O 0.5093(2) 0.1396(2) 0.89568(19)
C1_4 C 0.6196(3) 0.1093(3) 0.9039(2)
C2_4 C 0.6909(3) 0.1755(3) 0.8537(2)
C3_4 C 0.8232(3) 0.1712(3) 0.8855(2)
H1_4 H 0.8677 0.1243 0.9351
C4_4 C 0.8871(3) 0.2372(2) 0.8427(2)
C5_4 C 0.8242(3) 0.3073(3) 0.7695(2)
H2_4 H 0.8696 0.3528 0.7431
C6_4 C 0.6917(3) 0.3097(3) 0.7348(2)
C7_4 C 0.6257(3) 0.2434(2) 0.7773(2)
H3_4 H 0.5374 0.2444 0.7543
C8_4 C 0.6223(3) 0.3835(3) 0.6537(2)
loop_
_geom_bond_atom_site_label_1
_geom_bond_atom_site_label_2
_geom_bond_site_symmetry_1
_geom_bond_site_symmetry_2
C9 H4 1_555 1_555
C10 H5 1_555 1_555
Mn1 N2 1_555 1_555
N2 C9 1_555 1_555
N3 C10 1_555 1_555
O5 Mn1 1_555 1_555
O6 Mn1 1_555 1_555
O7 Mn1 1_555 1_555
O8 Mn1 1_555 1_555
C9 N1 1_555 1_555
C10 N1 1_555 1_555
N2 N3 1_555 1_555
C1 C2 1_555 1_555
C2 C3 1_555 1_555
C3 H1 1_555 1_555
C4 C3 1_555 1_555
C5 C4 1_555 1_555
H2 C5 1_555 1_555
C6 C5 1_555 1_555
C7 C2 1_555 1_555
H3 C7 1_555 1_555
C8 C6 1_555 1_555
O1 C8 1_555 1_555
O2 C8 1_555 1_555
O7 C1 1_555 1_555
O4 C1 1_555 1_555
Mn5 O4 1_555 1_555
C6 C7 1_555 1_555
C1_2 C2_2 1_555 1_555
C2_2 C3_2 1_555 1_555
C3_2 H1_2 1_555 1_555
C4_2 C3_2 1_555 1_555
C5_2 C4_2 1_555 1_555
H2_2 C5_2 1_555 1_555
C6_2 C5_2 1_555 1_555
C7_2 C2_2 1_555 1_555
H3_2 C7_2 1_555 1_555
C8_2 C6_2 1_555 1_555
O1_2 C8_2 1_555 1_555
O6 C8_2 1_555 1_555
O3 C1_2 1_555 1_555
O4_2 C1_2 1_555 1_555
Mn5 O1_2 1_555 1_555
Mn3 O3 1_555 1_555
C6_2 C7_2 1_555 1_555
C9_2 H4_2 1_555 1_555
C10_2 H5_2 1_555 1_555
Mn3 N2_2 1_555 1_555
N2_2 C9_2 1_555 1_555
N3_2 C10_2 1_555 1_555
C9_2 N1_2 1_555 1_555
C10_2 N1_2 1_555 1_555
N2_2 N3_2 1_555 1_555
C1_3 C2_3 1_555 1_555
C2_3 C3_3 1_555 1_555
C3_3 H1_3 1_555 1_555
C4_3 C3_3 1_555 1_555
C5_3 C4_3 1_555 1_555
H2_3 C5_3 1_555 1_555
C6_3 C5_3 1_555 1_555
C7_3 C2_3 1_555 1_555
H3_3 C7_3 1_555 1_555
C8_3 C6_3 1_555 1_555
O5_2 C8_3 1_555 1_555
O2_2 C8_3 1_555 1_555
O3_2 C1_3 1_555 1_555
O8 C1_3 1_555 1_555
Mn5 O3_2 1_555 1_555
C6_3 C7_3 1_555 1_555
C9_3 H4_3 1_555 1_555
C10_3 H5_3 1_555 1_555
Mn5 N2_3 1_555 1_555
N2_3 C9_3 1_555 1_555
N3_3 C10_3 1_555 1_555
O6_2 Mn5 1_555 1_555
C9_3 N1_3 1_555 1_555
C10_3 N1_3 1_555 1_555
N2_3 N3_3 1_555 1_555
C9_4 H4_4 1_555 1_555
C10_4 H5_4 1_555 1_555
Mn2 N2_4 1_555 1_555
N2_4 C9_4 1_555 1_555
N3_4 C10_4 1_555 1_555
O7_2 Mn2 1_555 1_555
C9_4 N1_4 1_555 1_555
C10_4 N1_4 1_555 1_555
N2_4 N3_4 1_555 1_555
C1_4 C2_4 1_555 1_555
C2_4 C3_4 1_555 1_555
C3_4 H1_4 1_555 1_555
C4_4 C3_4 1_555 1_555
C5_4 C4_4 1_555 1_555
H2_4 C5_4 1_555 1_555
C6_4 C5_4 1_555 1_555
C7_4 C2_4 1_555 1_555
H3_4 C7_4 1_555 1_555
C8_4 C6_4 1_555 1_555
O5 C8_4 1_555 1_555
O6_2 C8_4 1_555 1_555
O7_2 C1_4 1_555 1_555
O8_2 C1_4 1_555 1_555
C6_4 C7_4 1_555 1_555

#END
