
###############################################################################
#
# This file contains modified crystal structure data generated from the
# MOF subset of the Cambridge Structural Database (CSD) v543 
# hosted by the Cambridge Crystallographic Data Centre (CCDC).
#
# This work is licensed under the Creative Commons
# Attribution-NonCommercial-ShareAlike 4.0 International License.
# To view a copy of this license, visit
# http://creativecommons.org/licenses/by-nc-sa/4.0/
# or send a letter to
# Creative Commons, PO Box 1866, Mountain View, CA 94042, USA.
#
# CIF created using the CSD Python API on 29 September 2022
# The structure has been converted into the P1 space group
# The structure has a 3D framework
# The original CSD entry UVINAP is in the tetragonal crystal system
# The framework has been calculated to contain at least 10.0% void space
# The void calculation uses a probe of radius 1.32A, grid spacing 0.4
#
###############################################################################

data_UVINAP
_chemical_formula_moiety         '(C48 H40 Co2 N16)n'
_symmetry_cell_setting           triclinic
_symmetry_space_group_name_H-M   'P 1'
_symmetry_Int_Tables_number      1
_space_group_name_Hall           'P 1'
loop_
_symmetry_equiv_pos_site_id
_symmetry_equiv_pos_as_xyz
1 x,y,z
_cell_length_a                   14.314(3)
_cell_length_b                   14.314(3)
_cell_length_c                   6.2872(12)
_cell_angle_alpha                90
_cell_angle_beta                 90
_cell_angle_gamma                90
_cell_volume                     1288.19
loop_
_atom_site_label
_atom_site_type_symbol
_atom_site_fract_x
_atom_site_fract_y
_atom_site_fract_z
C1 C 0.0578(2) 0.0290(2) 0.8391(5)
C4 C 0.1282(2) 0.1488(2) 0.5780(5)
H3 H 0.0947 0.2018 0.6171
C5 C 0.2294(2) 0.0582(2) 0.4136(5)
H4 H 0.2753 0.0342 0.3243
C6 C 0.1162(2) 0.0620(2) 0.6628(5)
Co1 Co 0.2500 0.2500 0.2500
N1 N 0.19993(17) 0.14602(16) 0.4200(4)
N2 N 0.18056(17) 0.01029(17) 0.5599(4)
C20 C 0.4418(2) 0.2294(2) 0.0864(5)
H16 H 0.4658 0.2753 0.1757
N4 N 0.35398(16) 0.19993(17) 0.0800(4)
N6 N 0.14602(16) 0.30007(17) 0.0800(4)
N7 N 0.30007(17) 0.35398(16) 0.4200(4)
C19 C 0.0582(2) 0.2706(2) 0.0864(5)
H15 H 0.0342 0.2247 0.1757
C1_2 C 0.4422(2) 0.4710(2) 0.8391(5)
C2 C 0.52839(19) 0.43149(19) 0.8582(5)
H1 H 0.5479 0.3853 0.7643
C3 C 0.4121(2) 0.5374(2) 0.9744(4)
H2 H 0.3527 0.5628 0.9587
C4_2 C 0.3718(2) 0.3512(2) 0.5780(5)
H3_2 H 0.4053 0.2982 0.6171
C5_2 C 0.2706(2) 0.4418(2) 0.4136(5)
H4_2 H 0.2247 0.4658 0.3243
C6_2 C 0.3838(2) 0.4380(2) 0.6628(5)
N2_2 N 0.31944(17) 0.48971(17) 0.5599(4)
H5 H 0.3104 0.5480 0.5854
C8 C 0.4710(2) 0.0578(2) 0.6609(5)
C12 C 0.56851(19) 0.02839(19) 0.3582(5)
H8 H 0.6147 0.0479 0.2643
C14 C 0.5374(2) 0.0879(2) 0.5256(4)
H10 H 0.5628 0.1473 0.5413
C17 C 0.3512(2) 0.1282(2) 0.9220(5)
H13 H 0.2982 0.0947 0.8829
C23 C 0.4380(2) 0.1162(2) 0.8372(5)
N9 N 0.48971(17) 0.18056(17) 0.9401(4)
H19 H 0.5480 0.1896 0.9146
C10 C 0.02839(19) 0.93149(19) 0.1418(5)
H6 H 0.0479 0.8853 0.2357
C3_2 C 0.0879(2) 0.9626(2) 0.9744(4)
H2_2 H 0.1473 0.9372 0.9587
H5_2 H 0.1896 0.9520 0.5854
C9 C 0.5290(2) 0.9422(2) 0.3391(5)
C11 C 0.43149(19) 0.97161(19) 0.6418(5)
H7 H 0.3853 0.9521 0.7357
C15 C 0.4626(2) 0.9121(2) 0.4744(4)
H11 H 0.4372 0.8527 0.4587
C18 C 0.6488(2) 0.8718(2) 0.0780(5)
H14 H 0.7018 0.9053 0.1171
C24 C 0.5620(2) 0.8838(2) 0.1628(5)
N10 N 0.51029(17) 0.81944(17) 0.0599(4)
H20 H 0.4520 0.8104 0.0854
C21 C 0.5582(2) 0.7706(2) 0.9136(5)
H17 H 0.5342 0.7247 0.8243
Co3 Co 0.7500 0.7500 0.7500
N5 N 0.64602(16) 0.80007(17) 0.9200(4)
C7 C 0.9422(2) 0.9710(2) 0.1609(5)
C16 C 0.8718(2) 0.8512(2) 0.4220(5)
H12 H 0.9053 0.7982 0.3829
C19_2 C 0.7706(2) 0.9418(2) 0.5864(5)
H15_2 H 0.7247 0.9658 0.6757
C22 C 0.8838(2) 0.9380(2) 0.3372(5)
N3 N 0.80007(17) 0.85398(16) 0.5800(4)
N8 N 0.81944(17) 0.98971(17) 0.4401(4)
C5_3 C 0.9418(2) 0.7294(2) 0.9136(5)
H4_3 H 0.9658 0.7753 0.8243
N1_2 N 0.85398(16) 0.69993(17) 0.9200(4)
N6_2 N 0.69993(17) 0.64602(16) 0.5800(4)
C7_2 C 0.5578(2) 0.5290(2) 0.1609(5)
C10_2 C 0.47161(19) 0.56851(19) 0.1418(5)
H6_2 H 0.4521 0.6147 0.2357
C13 C 0.5879(2) 0.4626(2) 0.0256(4)
H9 H 0.6473 0.4372 0.0413
C16_2 C 0.6282(2) 0.6488(2) 0.4220(5)
H12_2 H 0.5947 0.7018 0.3829
C19_3 C 0.7294(2) 0.5582(2) 0.5864(5)
H15_3 H 0.7753 0.5342 0.6757
C22_2 C 0.6162(2) 0.5620(2) 0.3372(5)
N8_2 N 0.68056(17) 0.51029(17) 0.4401(4)
H18 H 0.6896 0.4520 0.4146
C13_2 C 0.9121(2) 0.0374(2) 0.0256(4)
H9_2 H 0.8527 0.0628 0.0413
H18_2 H 0.8104 0.0480 0.4146
C2_2 C 0.97161(19) 0.06851(19) 0.8582(5)
H1_2 H 0.9521 0.1147 0.7643
C3_3 C 0.0374(2) 0.5879(2) 0.4744(4)
H2_3 H 0.0628 0.6473 0.4587
H5_3 H 0.0480 0.6896 0.0854
C7_3 C 0.0290(2) 0.4422(2) 0.6609(5)
C10_3 C 0.06851(19) 0.52839(19) 0.6418(5)
H6_3 H 0.1147 0.5479 0.7357
C16_3 C 0.1488(2) 0.3718(2) 0.9220(5)
H12_3 H 0.2018 0.4053 0.8829
C22_3 C 0.0620(2) 0.3838(2) 0.8372(5)
N8_3 N 0.01029(17) 0.31944(17) 0.9401(4)
C1_3 C 0.9710(2) 0.5578(2) 0.3391(5)
C2_3 C 0.93149(19) 0.47161(19) 0.3582(5)
H1_3 H 0.8853 0.4521 0.2643
C4_3 C 0.8512(2) 0.6282(2) 0.0780(5)
H3_3 H 0.7982 0.5947 0.1171
C6_3 C 0.9380(2) 0.6162(2) 0.1628(5)
N2_3 N 0.98971(17) 0.68056(17) 0.0599(4)
C13_3 C 0.9626(2) 0.4121(2) 0.5256(4)
H9_3 H 0.9372 0.3527 0.5413
H18_3 H 0.9520 0.3104 0.9146
loop_
_geom_bond_atom_site_label_1
_geom_bond_atom_site_label_2
_geom_bond_site_symmetry_1
_geom_bond_site_symmetry_2
C4 H3 1_555 1_555
C5 H4 1_555 1_555
C6 C1 1_555 1_555
Co1 N1 1_555 1_555
N1 C4 1_555 1_555
N2 C5 1_555 1_555
C20 H16 1_555 1_555
N4 Co1 1_555 1_555
N6 Co1 1_555 1_555
N7 Co1 1_555 1_555
C4 C6 1_555 1_555
C5 N1 1_555 1_555
C6 N2 1_555 1_555
C20 N4 1_555 1_555
C19 H15 1_555 1_555
C19 N6 1_555 1_555
C1_2 C2 1_555 1_555
C2 H1 1_555 1_555
C3 C1_2 1_555 1_555
H2 C3 1_555 1_555
C4_2 H3_2 1_555 1_555
C5_2 H4_2 1_555 1_555
C6_2 C1_2 1_555 1_555
N7 C4_2 1_555 1_555
N2_2 C5_2 1_555 1_555
H5 N2_2 1_555 1_555
C4_2 C6_2 1_555 1_555
C5_2 N7 1_555 1_555
C6_2 N2_2 1_555 1_555
C12 H8 1_555 1_555
C14 C8 1_555 1_555
H10 C14 1_555 1_555
C17 H13 1_555 1_555
C23 C8 1_555 1_555
H19 N9 1_555 1_555
C12 C14 1_555 1_555
C17 C23 1_555 1_555
C23 N9 1_555 1_555
H6 C10 1_555 1_555
H2_2 C3_2 1_555 1_555
C11 H7 1_555 1_555
C15 C9 1_555 1_555
H11 C15 1_555 1_555
C18 H14 1_555 1_555
C24 C9 1_555 1_555
H20 N10 1_555 1_555
C11 C15 1_555 1_555
C18 C24 1_555 1_555
C24 N10 1_555 1_555
C21 H17 1_555 1_555
Co3 N5 1_555 1_555
C21 N5 1_555 1_555
C16 H12 1_555 1_555
C19_2 H15_2 1_555 1_555
C22 C7 1_555 1_555
Co3 N3 1_555 1_555
N3 C16 1_555 1_555
N8 C19_2 1_555 1_555
C16 C22 1_555 1_555
C19_2 N3 1_555 1_555
C22 N8 1_555 1_555
C5_3 H4_3 1_555 1_555
Co3 N1_2 1_555 1_555
N6_2 Co3 1_555 1_555
C5_3 N1_2 1_555 1_555
C7_2 C10_2 1_555 1_555
H6_2 C10_2 1_555 1_555
H9 C13 1_555 1_555
C16_2 H12_2 1_555 1_555
C19_3 H15_3 1_555 1_555
C22_2 C7_2 1_555 1_555
N6_2 C16_2 1_555 1_555
N8_2 C19_3 1_555 1_555
H18 N8_2 1_555 1_555
C7_2 C13 1_555 1_555
C16_2 C22_2 1_555 1_555
C19_3 N6_2 1_555 1_555
C22_2 N8_2 1_555 1_555
H9_2 C13_2 1_555 1_555
C2_2 H1_2 1_555 1_555
H2_3 C3_3 1_555 1_555
C7_3 C10_3 1_555 1_555
C10_3 C3_3 1_555 1_555
H6_3 C10_3 1_555 1_555
C16_3 H12_3 1_555 1_555
C22_3 C7_3 1_555 1_555
C16_3 C22_3 1_555 1_555
C22_3 N8_3 1_555 1_555
C1_3 C2_3 1_555 1_555
C2_3 H1_3 1_555 1_555
C4_3 H3_3 1_555 1_555
C6_3 C1_3 1_555 1_555
C13_3 C2_3 1_555 1_555
H9_3 C13_3 1_555 1_555
C4_3 C6_3 1_555 1_555
C6_3 N2_3 1_555 1_555

#END
