
###############################################################################
#
# This file contains modified crystal structure data generated from the
# MOF subset of the Cambridge Structural Database (CSD) v543 
# hosted by the Cambridge Crystallographic Data Centre (CCDC).
#
# This work is licensed under the Creative Commons
# Attribution-NonCommercial-ShareAlike 4.0 International License.
# To view a copy of this license, visit
# http://creativecommons.org/licenses/by-nc-sa/4.0/
# or send a letter to
# Creative Commons, PO Box 1866, Mountain View, CA 94042, USA.
#
# CIF created using the CSD Python API on 29 September 2022
# The structure has been converted into the P1 space group
# The structure has a 3D framework
# The original CSD entry UVOTOQ is in the tetragonal crystal system
# The framework has been calculated to contain at least 10.0% void space
# The void calculation uses a probe of radius 1.32A, grid spacing 0.4
#
###############################################################################

data_UVOTOQ
_chemical_formula_moiety         '(C304 H256 N16 O124 Tb16)n'
_symmetry_cell_setting           triclinic
_symmetry_space_group_name_H-M   'P 1'
_symmetry_Int_Tables_number      1
_space_group_name_Hall           'P 1'
loop_
_symmetry_equiv_pos_site_id
_symmetry_equiv_pos_as_xyz
1 x,y,z
_cell_length_a                   29.074(6)
_cell_length_b                   29.074(6)
_cell_length_c                   13.854(3)
_cell_angle_alpha                90
_cell_angle_beta                 90
_cell_angle_gamma                90
_cell_volume                     11710.8
loop_
_atom_site_label
_atom_site_type_symbol
_atom_site_fract_x
_atom_site_fract_y
_atom_site_fract_z
C1 C 0.7671(4) 0.1322(4) 0.4961(8)
C2 C 0.7765(4) 0.4277(4) 0.6952(10)
C3 C 0.7700(4) 0.1831(4) 0.5054(10)
C4 C 0.7849(5) 0.2082(4) 0.4269(9)
H1 H 0.7941 0.1927 0.3714
C5 C 0.7866(6) 0.2568(5) 0.4282(9)
H2 H 0.7984 0.2733 0.3764
C6 C 0.7697(4) 0.2791(4) 0.5102(8)
C7 C 0.6205(12) 0.1541(13) 0.609(3)
H3 H 0.6163 0.1865 0.5978
H4 H 0.6352 0.1496 0.6703
H5 H 0.5911 0.1391 0.6089
C8 C 0.7566(6) 0.2544(4) 0.5893(9)
H6 H 0.7477 0.2700 0.6448
C9 C 0.6497(19) 0.1345(12) 0.531(3)
C10 C 0.7564(5) 0.2069(5) 0.5893(9)
C11 C 0.6690(10) 0.1443(11) 0.362(3)
H7 H 0.6709 0.1628 0.3045
H8 H 0.6457 0.1213 0.3534
H9 H 0.6981 0.1297 0.3733
C12 C 0.7678(6) 0.3308(4) 0.5128(10)
C13 C 0.6388(13) 0.2195(11) 0.463(3)
H10 H 0.6417 0.2377 0.4061
H11 H 0.6556 0.2337 0.5151
H12 H 0.6069 0.2172 0.4809
C14 C 0.7548(6) 0.3545(5) 0.4318(9)
H13 H 0.7506 0.3389 0.3738
C15 C 0.7479(5) 0.4027(4) 0.4361(8)
C16 C 0.7541(4) 0.4244(4) 0.5221(8)
H14 H 0.7486 0.4558 0.5251
C17 C 0.7680(5) 0.4024(4) 0.6042(8)
C18 C 0.7755(5) 0.3547(4) 0.5994(8)
H15 H 0.7857 0.3389 0.6537
C19 C 0.7350(5) 0.4263(5) 0.3463(9)
N1 N 0.6570(9) 0.1741(10) 0.4458(15)
O1 O 0.7492(4) 0.1105(3) 0.5685(9)
O2 O 0.7814(4) 0.1123(3) 0.4233(8)
O3 O 0.7460(3) 0.4109(3) 0.2668(6)
O4 O 0.7140(3) 0.4657(3) 0.3487(5)
O5 O 0.6565(4) 0.0993(3) 0.5271(8)
O6 O 0.7731(3) 0.4706(3) 0.6970(7)
O7 O 0.7906(5) 0.4058(3) 0.7692(6)
O8 O 0.7400(5) 0.1854(3) 0.6716(8)
H16 H 0.7397 0.1575 0.6632
Tb1 Tb 0.705153(14) 0.044551(15) 0.59524(3)
O9 O 0.6377(3) 0.0314(4) 0.6733(8)
O10 O 0.6609(3) 0.0040(3) 0.4832(6)
O11 O 0.7157(3) 0.0360(3) 0.4013(5)
O13 O 0.7794(3) 0.0231(3) 0.5530(7)
O14 O 0.7094(5) 0.0942(3) 0.7308(6)
Tb2 Tb 0.794551(15) 0.044847(14) 0.34524(3)
Tb3 Tb 0.794847(14) 0.455449(15) 0.90476(3)
Tb4 Tb 0.705153(14) 0.544551(15) 0.40476(3)
Tb5 Tb 0.794551(15) 0.544847(14) 0.65476(3)
Tb6 Tb 0.705449(15) 0.455153(14) 0.15476(3)
O12 O 0.7140(3) 0.9657(3) 0.6513(5)
O12_2 O 0.7860(3) 0.0343(3) 0.1513(5)
C2_2 C 0.7235(4) 0.5723(4) 0.1952(10)
C3_2 C 0.7300(4) 0.8169(4) 0.0054(10)
C6_2 C 0.7303(4) 0.7209(4) 0.0102(8)
C7_2 C 0.8795(12) 0.8459(13) 0.109(3)
H3_2 H 0.8837 0.8135 0.0978
H4_2 H 0.8648 0.8504 0.1703
H5_2 H 0.9089 0.8609 0.1089
C8_2 C 0.7434(6) 0.7456(4) 0.0893(9)
H6_2 H 0.7523 0.7300 0.1448
C9_2 C 0.8503(19) 0.8655(12) 0.031(3)
C10_2 C 0.7436(5) 0.7931(5) 0.0893(9)
C12_2 C 0.7322(6) 0.6692(4) 0.0128(10)
H11_2 H 0.8444 0.7663 0.0151
C16_2 C 0.7459(4) 0.5756(4) 0.0221(8)
H14_2 H 0.7514 0.5442 0.0251
C17_2 C 0.7320(5) 0.5976(4) 0.1042(8)
C18_2 C 0.7245(5) 0.6453(4) 0.0994(8)
H15_2 H 0.7143 0.6611 0.1537
O1_2 O 0.7508(4) 0.8895(3) 0.0685(9)
O5_2 O 0.8435(4) 0.9007(3) 0.0271(8)
O6_2 O 0.7269(3) 0.5294(3) 0.1970(7)
O7_2 O 0.7094(5) 0.5942(3) 0.2692(6)
O8_2 O 0.7600(5) 0.8146(3) 0.1716(8)
H16_2 H 0.7603 0.8425 0.1632
Tb1_2 Tb 0.794847(14) 0.955449(15) 0.09524(3)
O9_2 O 0.8623(3) 0.9686(4) 0.1733(8)
O13_2 O 0.7206(3) 0.9769(3) 0.0530(7)
O14_2 O 0.7906(5) 0.9058(3) 0.2308(6)
C1_2 C 0.7329(4) 0.8678(4) 0.9961(8)
C4_2 C 0.7151(5) 0.7918(4) 0.9269(9)
H1_2 H 0.7059 0.8073 0.8714
C5_2 C 0.7134(6) 0.7432(5) 0.9282(9)
H2_2 H 0.7016 0.7267 0.8764
C11_2 C 0.8310(10) 0.8557(11) 0.862(3)
H7_2 H 0.8291 0.8372 0.8045
H8_2 H 0.8543 0.8787 0.8534
H9_2 H 0.8019 0.8703 0.8733
C13_2 C 0.8612(13) 0.7805(11) 0.963(3)
H10_2 H 0.8583 0.7623 0.9061
H12_2 H 0.8931 0.7828 0.9809
C14_2 C 0.7452(6) 0.6455(5) 0.9318(9)
H13_2 H 0.7494 0.6611 0.8738
C15_2 C 0.7521(5) 0.5973(4) 0.9361(8)
C19_2 C 0.7650(5) 0.5737(5) 0.8463(9)
N1_2 N 0.8430(9) 0.8259(10) 0.9458(15)
O2_2 O 0.7186(4) 0.8877(3) 0.9233(8)
O3_2 O 0.7540(3) 0.5891(3) 0.7668(6)
O4_2 O 0.7860(3) 0.5343(3) 0.8487(5)
O10_2 O 0.8391(3) 0.9960(3) 0.9832(6)
O11_2 O 0.7843(3) 0.9640(3) 0.9013(5)
Tb2_2 Tb 0.705449(15) 0.955153(14) 0.84524(3)
O7_3 O 0.3442(3) 0.0406(5) 0.0192(6)
Tb3_2 Tb 0.294551(15) 0.044847(14) 0.15476(3)
C1_3 C 0.6178(4) 0.0171(4) 0.7461(8)
C2_3 C 0.3223(4) 0.0265(4) 0.9452(10)
C3_3 C 0.5669(4) 0.0200(4) 0.7554(10)
C4_3 C 0.5418(4) 0.0349(5) 0.6769(9)
H1_3 H 0.5573 0.0441 0.6214
C5_3 C 0.4932(5) 0.0366(6) 0.6782(9)
H2_3 H 0.4767 0.0484 0.6264
C6_3 C 0.4709(4) 0.0197(4) 0.7602(8)
C8_3 C 0.4956(4) 0.0066(6) 0.8393(9)
C10_3 C 0.5431(5) 0.0064(5) 0.8393(9)
C12_3 C 0.4192(4) 0.0178(6) 0.7628(10)
C14_3 C 0.3955(5) 0.0048(6) 0.6818(9)
H13_3 H 0.4111 0.0006 0.6238
C16_3 C 0.3256(4) 0.0041(4) 0.7721(8)
C17_3 C 0.3476(4) 0.0180(5) 0.8542(8)
C18_3 C 0.3953(4) 0.0255(5) 0.8494(8)
H15_3 H 0.4111 0.0357 0.9037
O6_3 O 0.2794(3) 0.0231(3) 0.9470(7)
O13_3 O 0.7269(3) 0.0294(3) 0.8030(7)
Tb5_2 Tb 0.205153(14) 0.044551(15) 0.90476(3)
C7_3 C 0.5959(13) 0.8705(12) 0.859(3)
H3_3 H 0.5635 0.8663 0.8478
H4_3 H 0.6004 0.8852 0.9203
H5_3 H 0.6109 0.8411 0.8589
H6_3 H 0.4800 0.9977 0.8948
C9_3 C 0.6155(12) 0.8997(19) 0.781(3)
C11_3 C 0.6057(11) 0.9190(10) 0.612(3)
H7_3 H 0.5872 0.9209 0.5545
H8_3 H 0.6287 0.8957 0.6034
H9_3 H 0.6203 0.9481 0.6233
C13_3 C 0.5305(11) 0.8888(13) 0.713(3)
H10_3 H 0.5123 0.8917 0.6561
H11_3 H 0.5163 0.9056 0.7651
H12_3 H 0.5328 0.8569 0.7309
C15_3 C 0.3473(4) 0.9979(5) 0.6861(8)
H14_3 H 0.2942 0.9986 0.7751
C19_3 C 0.3237(5) 0.9850(5) 0.5963(9)
N1_3 N 0.5759(10) 0.9070(9) 0.6958(15)
O1_3 O 0.6395(3) 0.9992(4) 0.8185(9)
O3_3 O 0.3391(3) 0.9960(3) 0.5168(6)
O4_3 O 0.2843(3) 0.9640(3) 0.5987(5)
O5_3 O 0.6507(3) 0.9065(4) 0.7771(8)
O8_3 O 0.5646(3) 0.9900(5) 0.9216(8)
H16_3 H 0.5925 0.9897 0.9132
O10_3 O 0.7460(3) 0.9109(3) 0.7332(6)
O14_3 O 0.6558(3) 0.9594(5) 0.9808(6)
Tb4_2 Tb 0.205449(15) 0.955153(14) 0.65476(3)
Tb6_2 Tb 0.294847(14) 0.955449(15) 0.40476(3)
H6_4 H 0.0200 0.0023 0.3948
C15_4 C 0.1527(4) 0.0021(5) 0.1861(8)
H14_4 H 0.2058 0.0014 0.2751
C19_4 C 0.1763(5) 0.0150(5) 0.0963(9)
O3_4 O 0.1609(3) 0.0040(3) 0.0168(6)
O4_4 O 0.2157(3) 0.0360(3) 0.0987(5)
C2_4 C 0.1777(4) 0.9735(4) 0.4452(10)
C5_4 C 0.0068(5) 0.9634(6) 0.1782(9)
H2_4 H 0.0233 0.9516 0.1264
C6_4 C 0.0291(4) 0.9803(4) 0.2602(8)
C8_4 C 0.0044(4) 0.9934(6) 0.3393(9)
C12_4 C 0.0808(4) 0.9822(6) 0.2628(10)
C14_4 C 0.1045(5) 0.9952(6) 0.1818(9)
H13_4 H 0.0889 0.9994 0.1238
C16_4 C 0.1744(4) 0.9959(4) 0.2721(8)
C17_4 C 0.1524(4) 0.9820(5) 0.3542(8)
C18_4 C 0.1047(4) 0.9745(5) 0.3494(8)
H15_4 H 0.0889 0.9643 0.4037
O6_4 O 0.2206(3) 0.9769(3) 0.4470(7)
O7_4 O 0.1558(3) 0.9594(5) 0.5192(6)
C7_4 C 0.9041(13) 0.1295(12) 0.359(3)
H3_4 H 0.9365 0.1337 0.3478
H4_4 H 0.8996 0.1148 0.4203
H5_4 H 0.8891 0.1589 0.3589
C9_4 C 0.8845(12) 0.1003(19) 0.281(3)
C11_4 C 0.8943(11) 0.0810(10) 0.112(3)
H7_4 H 0.9128 0.0791 0.0545
H8_4 H 0.8713 0.1043 0.1034
H9_4 H 0.8797 0.0519 0.1233
C13_4 C 0.9695(11) 0.1112(13) 0.213(3)
H10_4 H 0.9877 0.1083 0.1561
H11_4 H 0.9837 0.0944 0.2651
H12_4 H 0.9672 0.1431 0.2309
N1_4 N 0.9241(10) 0.0930(9) 0.1958(15)
O1_4 O 0.8605(3) 0.0008(4) 0.3185(9)
O5_4 O 0.8493(3) 0.0935(4) 0.2771(8)
O8_4 O 0.9354(3) 0.0100(5) 0.4216(8)
H16_4 H 0.9075 0.0103 0.4132
O10_4 O 0.7540(3) 0.0891(3) 0.2332(6)
O14_4 O 0.8442(3) 0.0406(5) 0.4808(6)
C1_4 C 0.8822(4) 0.9829(4) 0.2461(8)
C3_4 C 0.9331(4) 0.9800(4) 0.2554(10)
C4_4 C 0.9582(4) 0.9651(5) 0.1769(9)
H1_4 H 0.9427 0.9559 0.1214
C10_4 C 0.9569(5) 0.9936(5) 0.3393(9)
O13_4 O 0.7731(3) 0.9706(3) 0.3030(7)
C2_5 C 0.2765(4) 0.9277(4) 0.1952(10)
C3_5 C 0.2700(4) 0.6831(4) 0.0054(10)
C6_5 C 0.2697(4) 0.7791(4) 0.0102(8)
C7_5 C 0.1205(12) 0.6541(13) 0.109(3)
H3_5 H 0.1163 0.6865 0.0978
H4_5 H 0.1352 0.6496 0.1703
H5_5 H 0.0911 0.6391 0.1089
C8_5 C 0.2566(6) 0.7544(4) 0.0893(9)
H6_5 H 0.2477 0.7700 0.1448
C9_5 C 0.1497(19) 0.6345(12) 0.031(3)
C10_5 C 0.2564(5) 0.7069(5) 0.0893(9)
C12_5 C 0.2678(6) 0.8308(4) 0.0128(10)
H11_5 H 0.1556 0.7337 0.0151
C16_5 C 0.2541(4) 0.9244(4) 0.0221(8)
H14_5 H 0.2486 0.9558 0.0251
C17_5 C 0.2680(5) 0.9024(4) 0.1042(8)
C18_5 C 0.2755(5) 0.8547(4) 0.0994(8)
H15_5 H 0.2857 0.8389 0.1537
O1_5 O 0.2492(4) 0.6105(3) 0.0685(9)
O5_5 O 0.1565(4) 0.5993(3) 0.0271(8)
O6_5 O 0.2731(3) 0.9706(3) 0.1970(7)
O7_5 O 0.2906(5) 0.9058(3) 0.2692(6)
O8_5 O 0.2400(5) 0.6854(3) 0.1716(8)
H16_5 H 0.2397 0.6575 0.1632
Tb1_3 Tb 0.205153(14) 0.544551(15) 0.09524(3)
O9_3 O 0.1377(3) 0.5314(4) 0.1733(8)
O12_3 O 0.2140(3) 0.4657(3) 0.1513(5)
O13_5 O 0.2794(3) 0.5231(3) 0.0530(7)
O14_5 O 0.2094(5) 0.5942(3) 0.2308(6)
C1_5 C 0.2671(4) 0.6322(4) 0.9961(8)
C4_5 C 0.2849(5) 0.7082(4) 0.9269(9)
H1_5 H 0.2941 0.6927 0.8714
C5_5 C 0.2866(6) 0.7568(5) 0.9282(9)
H2_5 H 0.2984 0.7733 0.8764
C11_5 C 0.1690(10) 0.6443(11) 0.862(3)
H7_5 H 0.1709 0.6628 0.8045
H8_5 H 0.1457 0.6213 0.8534
H9_5 H 0.1981 0.6297 0.8733
C13_5 C 0.1388(13) 0.7195(11) 0.963(3)
H10_5 H 0.1417 0.7377 0.9061
H12_5 H 0.1069 0.7172 0.9809
C14_5 C 0.2548(6) 0.8545(5) 0.9318(9)
H13_5 H 0.2506 0.8389 0.8738
C15_5 C 0.2479(5) 0.9027(4) 0.9361(8)
C19_5 C 0.2350(5) 0.9263(5) 0.8463(9)
N1_5 N 0.1570(9) 0.6741(10) 0.9458(15)
O2_3 O 0.2814(4) 0.6123(3) 0.9233(8)
O3_5 O 0.2460(3) 0.9109(3) 0.7668(6)
O4_5 O 0.2140(3) 0.9657(3) 0.8487(5)
O10_5 O 0.1609(3) 0.5040(3) 0.9832(6)
O11_3 O 0.2157(3) 0.5360(3) 0.9013(5)
Tb2_3 Tb 0.294551(15) 0.544847(14) 0.84524(3)
C1_6 C 0.2329(4) 0.3678(4) 0.4961(8)
C2_6 C 0.2235(4) 0.0723(4) 0.6952(10)
C3_6 C 0.2300(4) 0.3169(4) 0.5054(10)
C4_6 C 0.2151(5) 0.2918(4) 0.4269(9)
H1_6 H 0.2059 0.3073 0.3714
C5_6 C 0.2134(6) 0.2432(5) 0.4282(9)
H2_6 H 0.2016 0.2267 0.3764
C6_6 C 0.2303(4) 0.2209(4) 0.5102(8)
C7_6 C 0.3795(12) 0.3459(13) 0.609(3)
H3_6 H 0.3837 0.3135 0.5978
H4_6 H 0.3648 0.3504 0.6703
H5_6 H 0.4089 0.3609 0.6089
C8_6 C 0.2434(6) 0.2456(4) 0.5893(9)
H6_6 H 0.2523 0.2300 0.6448
C9_6 C 0.3503(19) 0.3655(12) 0.531(3)
C10_6 C 0.2436(5) 0.2931(5) 0.5893(9)
C11_6 C 0.3310(10) 0.3557(11) 0.362(3)
H7_6 H 0.3291 0.3372 0.3045
H8_6 H 0.3543 0.3787 0.3534
H9_6 H 0.3019 0.3703 0.3733
C12_6 C 0.2322(6) 0.1692(4) 0.5128(10)
C13_6 C 0.3612(13) 0.2805(11) 0.463(3)
H10_6 H 0.3583 0.2623 0.4061
H11_6 H 0.3444 0.2663 0.5151
H12_6 H 0.3931 0.2828 0.4809
C14_6 C 0.2452(6) 0.1455(5) 0.4318(9)
H13_6 H 0.2494 0.1611 0.3738
C15_6 C 0.2521(5) 0.0973(4) 0.4361(8)
C16_6 C 0.2459(4) 0.0756(4) 0.5221(8)
H14_6 H 0.2514 0.0442 0.5251
C17_6 C 0.2320(5) 0.0976(4) 0.6042(8)
C18_6 C 0.2245(5) 0.1453(4) 0.5994(8)
H15_6 H 0.2143 0.1611 0.6537
C19_6 C 0.2650(5) 0.0737(5) 0.3463(9)
N1_6 N 0.3430(9) 0.3259(10) 0.4458(15)
O1_6 O 0.2508(4) 0.3895(3) 0.5685(9)
O2_4 O 0.2186(4) 0.3877(3) 0.4233(8)
O3_6 O 0.2540(3) 0.0891(3) 0.2668(6)
O4_6 O 0.2860(3) 0.0343(3) 0.3487(5)
O5_6 O 0.3435(4) 0.4007(3) 0.5271(8)
O6_6 O 0.2269(3) 0.0294(3) 0.6970(7)
O7_6 O 0.2094(5) 0.0942(3) 0.7692(6)
O8_6 O 0.2600(5) 0.3146(3) 0.6716(8)
H16_6 H 0.2603 0.3425 0.6632
Tb1_4 Tb 0.294847(14) 0.455449(15) 0.59524(3)
O9_4 O 0.3623(3) 0.4686(4) 0.6733(8)
O10_6 O 0.3391(3) 0.4960(3) 0.4832(6)
O11_4 O 0.2843(3) 0.4640(3) 0.4013(5)
O12_4 O 0.2860(3) 0.5343(3) 0.6513(5)
O13_6 O 0.2206(3) 0.4769(3) 0.5530(7)
O14_6 O 0.2906(5) 0.4058(3) 0.7308(6)
Tb2_4 Tb 0.205449(15) 0.455153(14) 0.34524(3)
C1_7 C 0.1178(4) 0.5171(4) 0.2461(8)
C3_7 C 0.0669(4) 0.5200(4) 0.2554(10)
C4_7 C 0.0418(4) 0.5349(5) 0.1769(9)
H1_7 H 0.0573 0.5441 0.1214
C7_7 C 0.0959(13) 0.3705(12) 0.359(3)
H3_7 H 0.0635 0.3663 0.3478
H4_7 H 0.1004 0.3852 0.4203
H5_7 H 0.1109 0.3411 0.3589
C9_7 C 0.1155(12) 0.3997(19) 0.281(3)
C10_7 C 0.0431(5) 0.5064(5) 0.3393(9)
C11_7 C 0.1057(11) 0.4190(10) 0.112(3)
H7_7 H 0.0872 0.4209 0.0545
H8_7 H 0.1287 0.3957 0.1034
H9_7 H 0.1203 0.4481 0.1233
C13_7 C 0.0305(11) 0.3888(13) 0.213(3)
H10_7 H 0.0123 0.3917 0.1561
H11_7 H 0.0163 0.4056 0.2651
H12_7 H 0.0328 0.3569 0.2309
N1_7 N 0.0759(10) 0.4070(9) 0.1958(15)
O1_7 O 0.1395(3) 0.4992(4) 0.3185(9)
O5_7 O 0.1507(3) 0.4065(4) 0.2771(8)
O8_7 O 0.0646(3) 0.4900(5) 0.4216(8)
H16_7 H 0.0925 0.4897 0.4132
O10_7 O 0.2460(3) 0.4109(3) 0.2332(6)
O13_7 O 0.2269(3) 0.5294(3) 0.3030(7)
O14_7 O 0.1558(3) 0.4594(5) 0.4808(6)
C2_7 C 0.8223(4) 0.5265(4) 0.4452(10)
C5_7 C 0.9932(5) 0.5366(6) 0.1782(9)
H2_7 H 0.9767 0.5484 0.1264
C6_7 C 0.9709(4) 0.5197(4) 0.2602(8)
C8_7 C 0.9956(4) 0.5066(6) 0.3393(9)
H6_7 H 0.9800 0.4977 0.3948
C12_7 C 0.9192(4) 0.5178(6) 0.2628(10)
C14_7 C 0.8955(5) 0.5048(6) 0.1818(9)
H13_7 H 0.9111 0.5006 0.1238
C15_7 C 0.8473(4) 0.4979(5) 0.1861(8)
C16_7 C 0.8256(4) 0.5041(4) 0.2721(8)
H14_7 H 0.7942 0.4986 0.2751
C17_7 C 0.8476(4) 0.5180(5) 0.3542(8)
C18_7 C 0.8953(4) 0.5255(5) 0.3494(8)
H15_7 H 0.9111 0.5357 0.4037
C19_7 C 0.8237(5) 0.4850(5) 0.0963(9)
O3_7 O 0.8391(3) 0.4960(3) 0.0168(6)
O4_7 O 0.7843(3) 0.4640(3) 0.0987(5)
O6_7 O 0.7794(3) 0.5231(3) 0.4470(7)
O7_7 O 0.8442(3) 0.5406(5) 0.5192(6)
O7_8 O 0.6558(3) 0.4594(5) 0.0192(6)
C1_8 C 0.3822(4) 0.4829(4) 0.7461(8)
C2_8 C 0.6777(4) 0.4735(4) 0.9452(10)
C3_8 C 0.4331(4) 0.4800(4) 0.7554(10)
C4_8 C 0.4582(4) 0.4651(5) 0.6769(9)
H1_8 H 0.4427 0.4559 0.6214
C5_8 C 0.5068(5) 0.4634(6) 0.6782(9)
H2_8 H 0.5233 0.4516 0.6264
C6_8 C 0.5291(4) 0.4803(4) 0.7602(8)
C7_8 C 0.4041(13) 0.6295(12) 0.859(3)
H3_8 H 0.4365 0.6337 0.8478
H4_8 H 0.3996 0.6148 0.9203
H5_8 H 0.3891 0.6589 0.8589
C8_8 C 0.5044(4) 0.4934(6) 0.8393(9)
H6_8 H 0.5200 0.5023 0.8948
C9_8 C 0.3845(12) 0.6003(19) 0.781(3)
C10_8 C 0.4569(5) 0.4936(5) 0.8393(9)
C11_8 C 0.3943(11) 0.5810(10) 0.612(3)
H7_8 H 0.4128 0.5791 0.5545
H8_8 H 0.3713 0.6043 0.6034
H9_8 H 0.3797 0.5519 0.6233
C12_8 C 0.5808(4) 0.4822(6) 0.7628(10)
C13_8 C 0.4695(11) 0.6112(13) 0.713(3)
H10_8 H 0.4877 0.6083 0.6561
H11_8 H 0.4837 0.5944 0.7651
H12_8 H 0.4672 0.6431 0.7309
C14_8 C 0.6045(5) 0.4952(6) 0.6818(9)
H13_8 H 0.5889 0.4994 0.6238
C15_8 C 0.6527(4) 0.5021(5) 0.6861(8)
C16_8 C 0.6744(4) 0.4959(4) 0.7721(8)
H14_8 H 0.7058 0.5014 0.7751
C17_8 C 0.6524(4) 0.4820(5) 0.8542(8)
C18_8 C 0.6047(4) 0.4745(5) 0.8494(8)
H15_8 H 0.5889 0.4643 0.9037
C19_8 C 0.6763(5) 0.5150(5) 0.5963(9)
N1_8 N 0.4241(10) 0.5930(9) 0.6958(15)
O1_8 O 0.3605(3) 0.5008(4) 0.8185(9)
O3_8 O 0.6609(3) 0.5040(3) 0.5168(6)
O4_8 O 0.7157(3) 0.5360(3) 0.5987(5)
O5_8 O 0.3493(3) 0.5935(4) 0.7771(8)
O6_8 O 0.7206(3) 0.4769(3) 0.9470(7)
O8_8 O 0.4354(3) 0.5100(5) 0.9216(8)
H16_8 H 0.4075 0.5103 0.9132
O10_8 O 0.2540(3) 0.5891(3) 0.7332(6)
O13_8 O 0.2731(3) 0.4706(3) 0.8030(7)
O14_8 O 0.3442(3) 0.5406(5) 0.9808(6)
C1_9 C 0.2329(4) 0.8678(4) 0.5039(8)
C2_9 C 0.2235(4) 0.5723(4) 0.3048(10)
C3_9 C 0.2300(4) 0.8169(4) 0.4946(10)
C4_9 C 0.2151(5) 0.7918(4) 0.5731(9)
H1_9 H 0.2059 0.8073 0.6286
C5_9 C 0.2134(6) 0.7432(5) 0.5718(9)
H2_9 H 0.2016 0.7267 0.6236
C6_9 C 0.2303(4) 0.7209(4) 0.4898(8)
C7_9 C 0.3795(12) 0.8459(13) 0.391(3)
H3_9 H 0.3837 0.8135 0.4022
H4_9 H 0.3648 0.8504 0.3297
H5_9 H 0.4089 0.8609 0.3911
C8_9 C 0.2434(6) 0.7456(4) 0.4107(9)
H6_9 H 0.2523 0.7300 0.3552
C9_9 C 0.3503(19) 0.8655(12) 0.469(3)
C10_9 C 0.2436(5) 0.7931(5) 0.4107(9)
C11_9 C 0.3310(10) 0.8557(11) 0.638(3)
H7_9 H 0.3291 0.8372 0.6955
H8_9 H 0.3543 0.8787 0.6466
H9_9 H 0.3019 0.8703 0.6267
C12_9 C 0.2322(6) 0.6692(4) 0.4872(10)
C13_9 C 0.3612(13) 0.7805(11) 0.537(3)
H10_9 H 0.3583 0.7623 0.5939
H11_9 H 0.3444 0.7663 0.4849
H12_9 H 0.3931 0.7828 0.5191
C14_9 C 0.2452(6) 0.6455(5) 0.5682(9)
H13_9 H 0.2494 0.6611 0.6262
C15_9 C 0.2521(5) 0.5973(4) 0.5639(8)
C16_9 C 0.2459(4) 0.5756(4) 0.4779(8)
H14_9 H 0.2514 0.5442 0.4749
C17_9 C 0.2320(5) 0.5976(4) 0.3958(8)
C18_9 C 0.2245(5) 0.6453(4) 0.4006(8)
H15_9 H 0.2143 0.6611 0.3463
C19_9 C 0.2650(5) 0.5737(5) 0.6537(9)
N1_9 N 0.3430(9) 0.8259(10) 0.5542(15)
O1_9 O 0.2508(4) 0.8895(3) 0.4315(9)
O2_5 O 0.2186(4) 0.8877(3) 0.5767(8)
O5_9 O 0.3435(4) 0.9007(3) 0.4729(8)
O8_9 O 0.2600(5) 0.8146(3) 0.3284(8)
H16_9 H 0.2603 0.8425 0.3368
O9_5 O 0.3623(3) 0.9686(4) 0.3267(8)
C1_10 C 0.2671(4) 0.1322(4) 0.0039(8)
C4_10 C 0.2849(5) 0.2082(4) 0.0731(9)
H1_10 H 0.2941 0.1927 0.1286
C5_10 C 0.2866(6) 0.2568(5) 0.0718(9)
H2_10 H 0.2984 0.2733 0.1236
C11_10 C 0.1690(10) 0.1443(11) 0.138(3)
H7_10 H 0.1709 0.1628 0.1955
H8_10 H 0.1457 0.1213 0.1466
H9_10 H 0.1981 0.1297 0.1267
C13_10 C 0.1388(13) 0.2195(11) 0.037(3)
H10_10 H 0.1417 0.2377 0.0939
H12_10 H 0.1069 0.2172 0.0191
C14_10 C 0.2548(6) 0.3545(5) 0.0682(9)
H13_10 H 0.2506 0.3389 0.1262
C15_10 C 0.2479(5) 0.4027(4) 0.0639(8)
C19_10 C 0.2350(5) 0.4263(5) 0.1537(9)
N1_10 N 0.1570(9) 0.1741(10) 0.0542(15)
O2_6 O 0.2814(4) 0.1123(3) 0.0767(8)
C2_10 C 0.2765(4) 0.4277(4) 0.8048(10)
C3_10 C 0.2700(4) 0.1831(4) 0.9946(10)
C6_10 C 0.2697(4) 0.2791(4) 0.9898(8)
C7_10 C 0.1205(12) 0.1541(13) 0.891(3)
H3_10 H 0.1163 0.1865 0.9022
H4_10 H 0.1352 0.1496 0.8297
H5_10 H 0.0911 0.1391 0.8911
C8_10 C 0.2566(6) 0.2544(4) 0.9107(9)
H6_10 H 0.2477 0.2700 0.8552
C9_10 C 0.1497(19) 0.1345(12) 0.969(3)
C10_10 C 0.2564(5) 0.2069(5) 0.9107(9)
C12_10 C 0.2678(6) 0.3308(4) 0.9872(10)
H11_10 H 0.1556 0.2337 0.9849
C16_10 C 0.2541(4) 0.4244(4) 0.9779(8)
H14_10 H 0.2486 0.4558 0.9749
C17_10 C 0.2680(5) 0.4024(4) 0.8958(8)
C18_10 C 0.2755(5) 0.3547(4) 0.9006(8)
H15_10 H 0.2857 0.3389 0.8463
O1_10 O 0.2492(4) 0.1105(3) 0.9315(9)
O5_10 O 0.1565(4) 0.0993(3) 0.9729(8)
O8_10 O 0.2400(5) 0.1854(3) 0.8284(8)
H16_10 H 0.2397 0.1575 0.8368
O9_6 O 0.1377(3) 0.0314(4) 0.8267(8)
C7_11 C 0.4041(13) 0.1295(12) 0.141(3)
H3_11 H 0.4365 0.1337 0.1522
H4_11 H 0.3996 0.1148 0.0797
H5_11 H 0.3891 0.1589 0.1411
H6_11 H 0.5200 0.0023 0.1052
C9_11 C 0.3845(12) 0.1003(19) 0.219(3)
C11_11 C 0.3943(11) 0.0810(10) 0.388(3)
H7_11 H 0.4128 0.0791 0.4455
H8_11 H 0.3713 0.1043 0.3966
H9_11 H 0.3797 0.0519 0.3767
C13_11 C 0.4695(11) 0.1112(13) 0.287(3)
H10_11 H 0.4877 0.1083 0.3439
H11_11 H 0.4837 0.0944 0.2349
H12_11 H 0.4672 0.1431 0.2691
C15_11 C 0.6527(4) 0.0021(5) 0.3139(8)
H14_11 H 0.7058 0.0014 0.2249
C19_11 C 0.6763(5) 0.0150(5) 0.4037(9)
N1_11 N 0.4241(10) 0.0930(9) 0.3042(15)
O1_11 O 0.3605(3) 0.0008(4) 0.1815(9)
O5_11 O 0.3493(3) 0.0935(4) 0.2229(8)
O8_11 O 0.4354(3) 0.0100(5) 0.0784(8)
H16_11 H 0.4075 0.0103 0.0868
C1_11 C 0.3822(4) 0.9829(4) 0.2539(8)
C2_11 C 0.6777(4) 0.9735(4) 0.0548(10)
C3_11 C 0.4331(4) 0.9800(4) 0.2446(10)
C4_11 C 0.4582(4) 0.9651(5) 0.3231(9)
H1_11 H 0.4427 0.9559 0.3786
C5_11 C 0.5068(5) 0.9634(6) 0.3218(9)
H2_11 H 0.5233 0.9516 0.3736
C6_11 C 0.5291(4) 0.9803(4) 0.2398(8)
C8_11 C 0.5044(4) 0.9934(6) 0.1607(9)
C10_11 C 0.4569(5) 0.9936(5) 0.1607(9)
C12_11 C 0.5808(4) 0.9822(6) 0.2372(10)
C14_11 C 0.6045(5) 0.9952(6) 0.3182(9)
H13_11 H 0.5889 0.9994 0.3762
C16_11 C 0.6744(4) 0.9959(4) 0.2279(8)
C17_11 C 0.6524(4) 0.9820(5) 0.1458(8)
C18_11 C 0.6047(4) 0.9745(5) 0.1506(8)
H15_11 H 0.5889 0.9643 0.0963
C1_12 C 0.1178(4) 0.0171(4) 0.7539(8)
C3_12 C 0.0669(4) 0.0200(4) 0.7446(10)
C4_12 C 0.0418(4) 0.0349(5) 0.8231(9)
H1_12 H 0.0573 0.0441 0.8786
C10_12 C 0.0431(5) 0.0064(5) 0.6607(9)
C7_12 C 0.0959(13) 0.8705(12) 0.641(3)
H3_12 H 0.0635 0.8663 0.6522
H4_12 H 0.1004 0.8852 0.5797
H5_12 H 0.1109 0.8411 0.6411
C9_12 C 0.1155(12) 0.8997(19) 0.719(3)
C11_12 C 0.1057(11) 0.9190(10) 0.888(3)
H7_12 H 0.0872 0.9209 0.9455
H8_12 H 0.1287 0.8957 0.8966
H9_12 H 0.1203 0.9481 0.8767
C13_12 C 0.0305(11) 0.8888(13) 0.787(3)
H10_12 H 0.0123 0.8917 0.8439
H11_12 H 0.0163 0.9056 0.7349
H12_12 H 0.0328 0.8569 0.7691
N1_12 N 0.0759(10) 0.9070(9) 0.8042(15)
O1_12 O 0.1395(3) 0.9992(4) 0.6815(9)
O5_12 O 0.1507(3) 0.9065(4) 0.7229(8)
O8_12 O 0.0646(3) 0.9900(5) 0.5784(8)
H16_12 H 0.0925 0.9897 0.5868
C2_12 C 0.8223(4) 0.0265(4) 0.5548(10)
C5_12 C 0.9932(5) 0.0366(6) 0.8218(9)
H2_12 H 0.9767 0.0484 0.8736
C6_12 C 0.9709(4) 0.0197(4) 0.7398(8)
C8_12 C 0.9956(4) 0.0066(6) 0.6607(9)
C12_12 C 0.9192(4) 0.0178(6) 0.7372(10)
C14_12 C 0.8955(5) 0.0048(6) 0.8182(9)
H13_12 H 0.9111 0.0006 0.8762
C16_12 C 0.8256(4) 0.0041(4) 0.7279(8)
C17_12 C 0.8476(4) 0.0180(5) 0.6458(8)
C18_12 C 0.8953(4) 0.0255(5) 0.6506(8)
H15_12 H 0.9111 0.0357 0.5963
H6_12 H 0.9800 0.9977 0.6052
C15_12 C 0.8473(4) 0.9979(5) 0.8139(8)
H14_12 H 0.7942 0.9986 0.7249
C19_12 C 0.8237(5) 0.9850(5) 0.9037(9)
C1_13 C 0.7329(4) 0.3678(4) 0.0039(8)
C4_13 C 0.7151(5) 0.2918(4) 0.0731(9)
H1_13 H 0.7059 0.3073 0.1286
C5_13 C 0.7134(6) 0.2432(5) 0.0718(9)
H2_13 H 0.7016 0.2267 0.1236
C11_13 C 0.8310(10) 0.3557(11) 0.138(3)
H7_13 H 0.8291 0.3372 0.1955
H8_13 H 0.8543 0.3787 0.1466
H9_13 H 0.8019 0.3703 0.1267
C13_13 C 0.8612(13) 0.2805(11) 0.037(3)
H10_13 H 0.8583 0.2623 0.0939
H12_13 H 0.8931 0.2828 0.0191
C14_13 C 0.7452(6) 0.1455(5) 0.0682(9)
H13_13 H 0.7494 0.1611 0.1262
C15_13 C 0.7521(5) 0.0973(4) 0.0639(8)
C19_13 C 0.7650(5) 0.0737(5) 0.1537(9)
N1_13 N 0.8430(9) 0.3259(10) 0.0542(15)
O2_7 O 0.7186(4) 0.3877(3) 0.0767(8)
C2_13 C 0.7235(4) 0.0723(4) 0.8048(10)
C3_13 C 0.7300(4) 0.3169(4) 0.9946(10)
C6_13 C 0.7303(4) 0.2209(4) 0.9898(8)
C7_13 C 0.8795(12) 0.3459(13) 0.891(3)
H3_13 H 0.8837 0.3135 0.9022
H4_13 H 0.8648 0.3504 0.8297
H5_13 H 0.9089 0.3609 0.8911
C8_13 C 0.7434(6) 0.2456(4) 0.9107(9)
H6_13 H 0.7523 0.2300 0.8552
C9_13 C 0.8503(19) 0.3655(12) 0.969(3)
C10_13 C 0.7436(5) 0.2931(5) 0.9107(9)
C12_13 C 0.7322(6) 0.1692(4) 0.9872(10)
H11_13 H 0.8444 0.2663 0.9849
C16_13 C 0.7459(4) 0.0756(4) 0.9779(8)
H14_13 H 0.7514 0.0442 0.9749
C17_13 C 0.7320(5) 0.0976(4) 0.8958(8)
C18_13 C 0.7245(5) 0.1453(4) 0.9006(8)
H15_13 H 0.7143 0.1611 0.8463
O1_13 O 0.7508(4) 0.3895(3) 0.9315(9)
O5_13 O 0.8435(4) 0.4007(3) 0.9729(8)
O8_13 O 0.7600(5) 0.3146(3) 0.8284(8)
H16_13 H 0.7603 0.3425 0.8368
O9_7 O 0.8623(3) 0.4686(4) 0.8267(8)
C1_14 C 0.7671(4) 0.6322(4) 0.5039(8)
C2_14 C 0.7765(4) 0.9277(4) 0.3048(10)
C3_14 C 0.7700(4) 0.6831(4) 0.4946(10)
C4_14 C 0.7849(5) 0.7082(4) 0.5731(9)
H1_14 H 0.7941 0.6927 0.6286
C5_14 C 0.7866(6) 0.7568(5) 0.5718(9)
H2_14 H 0.7984 0.7733 0.6236
C6_14 C 0.7697(4) 0.7791(4) 0.4898(8)
C7_14 C 0.6205(12) 0.6541(13) 0.391(3)
H3_14 H 0.6163 0.6865 0.4022
H4_14 H 0.6352 0.6496 0.3297
H5_14 H 0.5911 0.6391 0.3911
C8_14 C 0.7566(6) 0.7544(4) 0.4107(9)
H6_14 H 0.7477 0.7700 0.3552
C9_14 C 0.6497(19) 0.6345(12) 0.469(3)
C10_14 C 0.7564(5) 0.7069(5) 0.4107(9)
C11_14 C 0.6690(10) 0.6443(11) 0.638(3)
H7_14 H 0.6709 0.6628 0.6955
H8_14 H 0.6457 0.6213 0.6466
H9_14 H 0.6981 0.6297 0.6267
C12_14 C 0.7678(6) 0.8308(4) 0.4872(10)
C13_14 C 0.6388(13) 0.7195(11) 0.537(3)
H10_14 H 0.6417 0.7377 0.5939
H11_14 H 0.6556 0.7337 0.4849
H12_14 H 0.6069 0.7172 0.5191
C14_14 C 0.7548(6) 0.8545(5) 0.5682(9)
H13_14 H 0.7506 0.8389 0.6262
C15_14 C 0.7479(5) 0.9027(4) 0.5639(8)
C16_14 C 0.7541(4) 0.9244(4) 0.4779(8)
H14_14 H 0.7486 0.9558 0.4749
C17_14 C 0.7680(5) 0.9024(4) 0.3958(8)
C18_14 C 0.7755(5) 0.8547(4) 0.4006(8)
H15_14 H 0.7857 0.8389 0.3463
C19_14 C 0.7350(5) 0.9263(5) 0.6537(9)
N1_14 N 0.6570(9) 0.6741(10) 0.5542(15)
O1_14 O 0.7492(4) 0.6105(3) 0.4315(9)
O2_8 O 0.7814(4) 0.6123(3) 0.5767(8)
O5_14 O 0.6565(4) 0.5993(3) 0.4729(8)
O8_14 O 0.7400(5) 0.6854(3) 0.3284(8)
H16_14 H 0.7397 0.6575 0.3368
O9_8 O 0.6377(3) 0.5314(4) 0.3267(8)
C2_15 C 0.1777(4) 0.4735(4) 0.5548(10)
C5_15 C 0.0068(5) 0.4634(6) 0.8218(9)
H2_15 H 0.0233 0.4516 0.8736
C6_15 C 0.0291(4) 0.4803(4) 0.7398(8)
C8_15 C 0.0044(4) 0.4934(6) 0.6607(9)
H6_15 H 0.0200 0.5023 0.6052
C12_15 C 0.0808(4) 0.4822(6) 0.7372(10)
C14_15 C 0.1045(5) 0.4952(6) 0.8182(9)
H13_15 H 0.0889 0.4994 0.8762
C15_15 C 0.1527(4) 0.5021(5) 0.8139(8)
C16_15 C 0.1744(4) 0.4959(4) 0.7279(8)
H14_15 H 0.2058 0.5014 0.7249
C17_15 C 0.1524(4) 0.4820(5) 0.6458(8)
C18_15 C 0.1047(4) 0.4745(5) 0.6506(8)
H15_15 H 0.0889 0.4643 0.5963
C19_15 C 0.1763(5) 0.5150(5) 0.9037(9)
C1_15 C 0.8822(4) 0.4829(4) 0.7539(8)
C3_15 C 0.9331(4) 0.4800(4) 0.7446(10)
C4_15 C 0.9582(4) 0.4651(5) 0.8231(9)
H1_15 H 0.9427 0.4559 0.8786
C7_15 C 0.9041(13) 0.6295(12) 0.641(3)
H3_15 H 0.9365 0.6337 0.6522
H4_15 H 0.8996 0.6148 0.5797
H5_15 H 0.8891 0.6589 0.6411
C9_15 C 0.8845(12) 0.6003(19) 0.719(3)
C10_15 C 0.9569(5) 0.4936(5) 0.6607(9)
C11_15 C 0.8943(11) 0.5810(10) 0.888(3)
H7_15 H 0.9128 0.5791 0.9455
H8_15 H 0.8713 0.6043 0.8966
H9_15 H 0.8797 0.5519 0.8767
C13_15 C 0.9695(11) 0.6112(13) 0.787(3)
H10_15 H 0.9877 0.6083 0.8439
H11_15 H 0.9837 0.5944 0.7349
H12_15 H 0.9672 0.6431 0.7691
N1_15 N 0.9241(10) 0.5930(9) 0.8042(15)
O1_15 O 0.8605(3) 0.5008(4) 0.6815(9)
O5_15 O 0.8493(3) 0.5935(4) 0.7229(8)
O8_15 O 0.9354(3) 0.5100(5) 0.5784(8)
H16_15 H 0.9075 0.5103 0.5868
C1_16 C 0.6178(4) 0.5171(4) 0.2539(8)
C2_16 C 0.3223(4) 0.5265(4) 0.0548(10)
C3_16 C 0.5669(4) 0.5200(4) 0.2446(10)
C4_16 C 0.5418(4) 0.5349(5) 0.3231(9)
H1_16 H 0.5573 0.5441 0.3786
C5_16 C 0.4932(5) 0.5366(6) 0.3218(9)
H2_16 H 0.4767 0.5484 0.3736
C6_16 C 0.4709(4) 0.5197(4) 0.2398(8)
C7_16 C 0.5959(13) 0.3705(12) 0.141(3)
H3_16 H 0.5635 0.3663 0.1522
H4_16 H 0.6004 0.3852 0.0797
H5_16 H 0.6109 0.3411 0.1411
C8_16 C 0.4956(4) 0.5066(6) 0.1607(9)
H6_16 H 0.4800 0.4977 0.1052
C9_16 C 0.6155(12) 0.3997(19) 0.219(3)
C10_16 C 0.5431(5) 0.5064(5) 0.1607(9)
C11_16 C 0.6057(11) 0.4190(10) 0.388(3)
H7_16 H 0.5872 0.4209 0.4455
H8_16 H 0.6287 0.3957 0.3966
H9_16 H 0.6203 0.4481 0.3767
C12_16 C 0.4192(4) 0.5178(6) 0.2372(10)
C13_16 C 0.5305(11) 0.3888(13) 0.287(3)
H10_16 H 0.5123 0.3917 0.3439
H11_16 H 0.5163 0.4056 0.2349
H12_16 H 0.5328 0.3569 0.2691
C14_16 C 0.3955(5) 0.5048(6) 0.3182(9)
H13_16 H 0.4111 0.5006 0.3762
C15_16 C 0.3473(4) 0.4979(5) 0.3139(8)
C16_16 C 0.3256(4) 0.5041(4) 0.2279(8)
H14_16 H 0.2942 0.4986 0.2249
C17_16 C 0.3476(4) 0.5180(5) 0.1458(8)
C18_16 C 0.3953(4) 0.5255(5) 0.1506(8)
H15_16 H 0.4111 0.5357 0.0963
C19_16 C 0.3237(5) 0.4850(5) 0.4037(9)
N1_16 N 0.5759(10) 0.4070(9) 0.3042(15)
O1_16 O 0.6395(3) 0.4992(4) 0.1815(9)
O5_16 O 0.6507(3) 0.4065(4) 0.2229(8)
O8_16 O 0.5646(3) 0.4900(5) 0.0784(8)
H16_16 H 0.5925 0.4897 0.0868
loop_
_geom_bond_atom_site_label_1
_geom_bond_atom_site_label_2
_geom_bond_site_symmetry_1
_geom_bond_site_symmetry_2
C1 C3 1_555 1_555
C2 C17 1_555 1_555
C3 C4 1_555 1_555
C4 H1 1_555 1_555
C5 C4 1_555 1_555
H2 C5 1_555 1_555
C6 C5 1_555 1_555
C7 H3 1_555 1_555
H4 C7 1_555 1_555
H5 C7 1_555 1_555
C8 C6 1_555 1_555
H6 C8 1_555 1_555
C9 C7 1_555 1_555
C10 C3 1_555 1_555
C11 H7 1_555 1_555
H8 C11 1_555 1_555
H9 C11 1_555 1_555
C12 C6 1_555 1_555
C13 H10 1_555 1_555
H11 C13 1_555 1_555
H12 C13 1_555 1_555
C14 C12 1_555 1_555
H13 C14 1_555 1_555
C15 C14 1_555 1_555
C16 C15 1_555 1_555
H14 C16 1_555 1_555
C17 C16 1_555 1_555
C18 C12 1_555 1_555
H15 C18 1_555 1_555
C19 C15 1_555 1_555
N1 C9 1_555 1_555
O1 C1 1_555 1_555
O2 C1 1_555 1_555
O3 C19 1_555 1_555
O4 C19 1_555 1_555
O5 C9 1_555 1_555
O6 C2 1_555 1_555
O7 C2 1_555 1_555
O8 C10 1_555 1_555
H16 O8 1_555 1_555
Tb1 O1 1_555 1_555
O9 Tb1 1_555 1_555
O10 Tb1 1_555 1_555
O11 Tb1 1_555 1_555
O13 Tb1 1_555 1_555
O14 Tb1 1_555 1_555
Tb2 O2 1_555 1_555
Tb3 O7 1_555 1_555
Tb4 O4 1_555 1_555
Tb5 O6 1_555 1_555
Tb6 O3 1_555 1_555
C8 C10 1_555 1_555
C11 N1 1_555 1_555
C13 N1 1_555 1_555
C17 C18 1_555 1_555
O4 Tb6 1_555 1_555
O5 Tb1 1_555 1_555
O11 Tb2 1_555 1_555
C2_2 C17_2 1_555 1_555
C7_2 H3_2 1_555 1_555
H4_2 C7_2 1_555 1_555
H5_2 C7_2 1_555 1_555
C8_2 C6_2 1_555 1_555
H6_2 C8_2 1_555 1_555
C9_2 C7_2 1_555 1_555
C10_2 C3_2 1_555 1_555
C12_2 C6_2 1_555 1_555
H14_2 C16_2 1_555 1_555
C17_2 C16_2 1_555 1_555
C18_2 C12_2 1_555 1_555
H15_2 C18_2 1_555 1_555
O5_2 C9_2 1_555 1_555
O6_2 C2_2 1_555 1_555
O7_2 C2_2 1_555 1_555
O8_2 C10_2 1_555 1_555
H16_2 O8_2 1_555 1_555
Tb1_2 O1_2 1_555 1_555
O9_2 Tb1_2 1_555 1_555
O13_2 Tb1_2 1_555 1_555
O14_2 Tb1_2 1_555 1_555
Tb4 O7_2 1_555 1_555
Tb6 O6_2 1_555 1_555
C8_2 C10_2 1_555 1_555
C17_2 C18_2 1_555 1_555
O5_2 Tb1_2 1_555 1_555
C4_2 H1_2 1_555 1_555
C5_2 C4_2 1_555 1_555
H2_2 C5_2 1_555 1_555
C11_2 H7_2 1_555 1_555
H8_2 C11_2 1_555 1_555
H9_2 C11_2 1_555 1_555
C13_2 H10_2 1_555 1_555
H12_2 C13_2 1_555 1_555
H13_2 C14_2 1_555 1_555
C15_2 C14_2 1_555 1_555
C19_2 C15_2 1_555 1_555
O2_2 C1_2 1_555 1_555
O3_2 C19_2 1_555 1_555
O4_2 C19_2 1_555 1_555
Tb2_2 O2_2 1_555 1_555
Tb3 O4_2 1_555 1_555
Tb5 O3_2 1_555 1_555
C11_2 N1_2 1_555 1_555
C13_2 N1_2 1_555 1_555
O4_2 Tb5 1_555 1_555
O11_2 Tb2_2 1_555 1_555
Tb3_2 O7_3 1_555 1_555
C1_3 C3_3 1_555 1_555
C2_3 C17_3 1_555 1_555
C3_3 C4_3 1_555 1_555
C4_3 H1_3 1_555 1_555
C5_3 C4_3 1_555 1_555
H2_3 C5_3 1_555 1_555
C6_3 C5_3 1_555 1_555
C8_3 C6_3 1_555 1_555
C10_3 C3_3 1_555 1_555
C12_3 C6_3 1_555 1_555
C14_3 C12_3 1_555 1_555
H13_3 C14_3 1_555 1_555
C17_3 C16_3 1_555 1_555
C18_3 C12_3 1_555 1_555
H15_3 C18_3 1_555 1_555
O9 C1_3 1_555 1_555
O6_3 C2_3 1_555 1_555
Tb5_2 O6_3 1_555 1_555
C8_3 C10_3 1_555 1_555
C17_3 C18_3 1_555 1_555
C7_3 H3_3 1_555 1_555
H4_3 C7_3 1_555 1_555
H5_3 C7_3 1_555 1_555
C9_3 C7_3 1_555 1_555
C11_3 H7_3 1_555 1_555
H8_3 C11_3 1_555 1_555
H9_3 C11_3 1_555 1_555
C13_3 H10_3 1_555 1_555
H11_3 C13_3 1_555 1_555
H12_3 C13_3 1_555 1_555
C19_3 C15_3 1_555 1_555
N1_3 C9_3 1_555 1_555
O3_3 C19_3 1_555 1_555
O4_3 C19_3 1_555 1_555
O5_3 C9_3 1_555 1_555
H16_3 O8_3 1_555 1_555
Tb2_2 O1_3 1_555 1_555
O10_3 Tb2_2 1_555 1_555
O12 Tb2_2 1_555 1_555
O14_3 Tb2_2 1_555 1_555
Tb4_2 O4_3 1_555 1_555
Tb6_2 O3_3 1_555 1_555
C11_3 N1_3 1_555 1_555
C13_3 N1_3 1_555 1_555
O4_3 Tb6_2 1_555 1_555
O5_3 Tb2_2 1_555 1_555
C19_4 C15_4 1_555 1_555
O3_4 C19_4 1_555 1_555
O4_4 C19_4 1_555 1_555
Tb3_2 O4_4 1_555 1_555
C2_4 C17_4 1_555 1_555
H2_4 C5_4 1_555 1_555
C6_4 C5_4 1_555 1_555
C8_4 C6_4 1_555 1_555
C12_4 C6_4 1_555 1_555
C14_4 C12_4 1_555 1_555
H13_4 C14_4 1_555 1_555
C17_4 C16_4 1_555 1_555
C18_4 C12_4 1_555 1_555
H15_4 C18_4 1_555 1_555
O6_4 C2_4 1_555 1_555
O7_4 C2_4 1_555 1_555
Tb4_2 O7_4 1_555 1_555
Tb6_2 O6_4 1_555 1_555
C17_4 C18_4 1_555 1_555
C7_4 H3_4 1_555 1_555
H4_4 C7_4 1_555 1_555
H5_4 C7_4 1_555 1_555
C9_4 C7_4 1_555 1_555
C11_4 H7_4 1_555 1_555
H8_4 C11_4 1_555 1_555
H9_4 C11_4 1_555 1_555
C13_4 H10_4 1_555 1_555
H11_4 C13_4 1_555 1_555
H12_4 C13_4 1_555 1_555
N1_4 C9_4 1_555 1_555
O5_4 C9_4 1_555 1_555
H16_4 O8_4 1_555 1_555
Tb2 O1_4 1_555 1_555
O10_4 Tb2 1_555 1_555
O12_2 Tb2 1_555 1_555
O14_4 Tb2 1_555 1_555
C11_4 N1_4 1_555 1_555
C13_4 N1_4 1_555 1_555
O5_4 Tb2 1_555 1_555
C1_4 C3_4 1_555 1_555
C3_4 C4_4 1_555 1_555
C4_4 H1_4 1_555 1_555
C10_4 C3_4 1_555 1_555
O9_2 C1_4 1_555 1_555
C2_5 C17_5 1_555 1_555
C7_5 H3_5 1_555 1_555
H4_5 C7_5 1_555 1_555
H5_5 C7_5 1_555 1_555
C8_5 C6_5 1_555 1_555
H6_5 C8_5 1_555 1_555
C9_5 C7_5 1_555 1_555
C10_5 C3_5 1_555 1_555
C12_5 C6_5 1_555 1_555
H14_5 C16_5 1_555 1_555
C17_5 C16_5 1_555 1_555
C18_5 C12_5 1_555 1_555
H15_5 C18_5 1_555 1_555
O5_5 C9_5 1_555 1_555
O6_5 C2_5 1_555 1_555
O7_5 C2_5 1_555 1_555
O8_5 C10_5 1_555 1_555
H16_5 O8_5 1_555 1_555
Tb1_3 O1_5 1_555 1_555
O9_3 Tb1_3 1_555 1_555
O12_3 Tb1_3 1_555 1_555
O13_5 Tb1_3 1_555 1_555
O14_5 Tb1_3 1_555 1_555
Tb6_2 O7_5 1_555 1_555
C8_5 C10_5 1_555 1_555
C17_5 C18_5 1_555 1_555
O5_5 Tb1_3 1_555 1_555
C4_5 H1_5 1_555 1_555
C5_5 C4_5 1_555 1_555
H2_5 C5_5 1_555 1_555
C11_5 H7_5 1_555 1_555
H8_5 C11_5 1_555 1_555
H9_5 C11_5 1_555 1_555
C13_5 H10_5 1_555 1_555
H12_5 C13_5 1_555 1_555
H13_5 C14_5 1_555 1_555
C15_5 C14_5 1_555 1_555
C19_5 C15_5 1_555 1_555
O2_3 C1_5 1_555 1_555
O3_5 C19_5 1_555 1_555
O4_5 C19_5 1_555 1_555
Tb2_3 O2_3 1_555 1_555
Tb4_2 O3_5 1_555 1_555
C11_5 N1_5 1_555 1_555
C13_5 N1_5 1_555 1_555
O4_5 Tb4_2 1_555 1_555
O11_3 Tb2_3 1_555 1_555
C1_6 C3_6 1_555 1_555
C2_6 C17_6 1_555 1_555
C3_6 C4_6 1_555 1_555
C4_6 H1_6 1_555 1_555
C5_6 C4_6 1_555 1_555
H2_6 C5_6 1_555 1_555
C6_6 C5_6 1_555 1_555
C7_6 H3_6 1_555 1_555
H4_6 C7_6 1_555 1_555
H5_6 C7_6 1_555 1_555
C8_6 C6_6 1_555 1_555
H6_6 C8_6 1_555 1_555
C9_6 C7_6 1_555 1_555
C10_6 C3_6 1_555 1_555
C11_6 H7_6 1_555 1_555
H8_6 C11_6 1_555 1_555
H9_6 C11_6 1_555 1_555
C12_6 C6_6 1_555 1_555
C13_6 H10_6 1_555 1_555
H11_6 C13_6 1_555 1_555
H12_6 C13_6 1_555 1_555
C14_6 C12_6 1_555 1_555
H13_6 C14_6 1_555 1_555
C15_6 C14_6 1_555 1_555
C16_6 C15_6 1_555 1_555
H14_6 C16_6 1_555 1_555
C17_6 C16_6 1_555 1_555
C18_6 C12_6 1_555 1_555
H15_6 C18_6 1_555 1_555
C19_6 C15_6 1_555 1_555
N1_6 C9_6 1_555 1_555
O1_6 C1_6 1_555 1_555
O2_4 C1_6 1_555 1_555
O3_6 C19_6 1_555 1_555
O4_6 C19_6 1_555 1_555
O5_6 C9_6 1_555 1_555
O6_6 C2_6 1_555 1_555
O7_6 C2_6 1_555 1_555
O8_6 C10_6 1_555 1_555
H16_6 O8_6 1_555 1_555
Tb1_4 O1_6 1_555 1_555
O9_4 Tb1_4 1_555 1_555
O10_6 Tb1_4 1_555 1_555
O11_4 Tb1_4 1_555 1_555
O12_4 Tb1_4 1_555 1_555
O13_6 Tb1_4 1_555 1_555
O14_6 Tb1_4 1_555 1_555
Tb2_4 O2_4 1_555 1_555
Tb5_2 O7_6 1_555 1_555
Tb3_2 O3_6 1_555 1_555
C8_6 C10_6 1_555 1_555
C11_6 N1_6 1_555 1_555
C13_6 N1_6 1_555 1_555
C17_6 C18_6 1_555 1_555
O4_6 Tb3_2 1_555 1_555
O5_6 Tb1_4 1_555 1_555
O11_4 Tb2_4 1_555 1_555
C1_7 C3_7 1_555 1_555
C3_7 C4_7 1_555 1_555
C4_7 H1_7 1_555 1_555
C7_7 H3_7 1_555 1_555
H4_7 C7_7 1_555 1_555
H5_7 C7_7 1_555 1_555
C9_7 C7_7 1_555 1_555
C10_7 C3_7 1_555 1_555
C11_7 H7_7 1_555 1_555
H8_7 C11_7 1_555 1_555
H9_7 C11_7 1_555 1_555
C13_7 H10_7 1_555 1_555
H11_7 C13_7 1_555 1_555
H12_7 C13_7 1_555 1_555
N1_7 C9_7 1_555 1_555
O1_7 C1_7 1_555 1_555
O9_3 C1_7 1_555 1_555
O5_7 C9_7 1_555 1_555
O8_7 C10_7 1_555 1_555
H16_7 O8_7 1_555 1_555
Tb2_4 O1_7 1_555 1_555
O10_7 Tb2_4 1_555 1_555
O12_3 Tb2_4 1_555 1_555
O13_7 Tb2_4 1_555 1_555
O14_7 Tb2_4 1_555 1_555
C11_7 N1_7 1_555 1_555
C13_7 N1_7 1_555 1_555
O5_7 Tb2_4 1_555 1_555
C2_7 C17_7 1_555 1_555
H2_7 C5_7 1_555 1_555
C6_7 C5_7 1_555 1_555
C8_7 C6_7 1_555 1_555
H6_7 C8_7 1_555 1_555
C12_7 C6_7 1_555 1_555
C14_7 C12_7 1_555 1_555
H13_7 C14_7 1_555 1_555
C15_7 C14_7 1_555 1_555
C16_7 C15_7 1_555 1_555
H14_7 C16_7 1_555 1_555
C17_7 C16_7 1_555 1_555
C18_7 C12_7 1_555 1_555
H15_7 C18_7 1_555 1_555
C19_7 C15_7 1_555 1_555
O3_7 C19_7 1_555 1_555
O4_7 C19_7 1_555 1_555
O6_7 C2_7 1_555 1_555
O7_7 C2_7 1_555 1_555
Tb5 O7_7 1_555 1_555
Tb6 O4_7 1_555 1_555
Tb4 O6_7 1_555 1_555
C17_7 C18_7 1_555 1_555
Tb6 O7_8 1_555 1_555
C1_8 C3_8 1_555 1_555
C2_8 C17_8 1_555 1_555
C3_8 C4_8 1_555 1_555
C4_8 H1_8 1_555 1_555
C5_8 C4_8 1_555 1_555
H2_8 C5_8 1_555 1_555
C6_8 C5_8 1_555 1_555
C7_8 H3_8 1_555 1_555
H4_8 C7_8 1_555 1_555
H5_8 C7_8 1_555 1_555
C8_8 C6_8 1_555 1_555
H6_8 C8_8 1_555 1_555
C9_8 C7_8 1_555 1_555
C10_8 C3_8 1_555 1_555
C11_8 H7_8 1_555 1_555
H8_8 C11_8 1_555 1_555
H9_8 C11_8 1_555 1_555
C12_8 C6_8 1_555 1_555
C13_8 H10_8 1_555 1_555
H11_8 C13_8 1_555 1_555
H12_8 C13_8 1_555 1_555
C14_8 C12_8 1_555 1_555
H13_8 C14_8 1_555 1_555
C15_8 C14_8 1_555 1_555
C16_8 C15_8 1_555 1_555
H14_8 C16_8 1_555 1_555
C17_8 C16_8 1_555 1_555
C18_8 C12_8 1_555 1_555
H15_8 C18_8 1_555 1_555
C19_8 C15_8 1_555 1_555
N1_8 C9_8 1_555 1_555
O1_8 C1_8 1_555 1_555
O9_4 C1_8 1_555 1_555
O3_8 C19_8 1_555 1_555
O4_8 C19_8 1_555 1_555
O5_8 C9_8 1_555 1_555
O6_8 C2_8 1_555 1_555
O8_8 C10_8 1_555 1_555
H16_8 O8_8 1_555 1_555
Tb2_3 O1_8 1_555 1_555
O10_8 Tb2_3 1_555 1_555
O12_4 Tb2_3 1_555 1_555
O13_8 Tb2_3 1_555 1_555
O14_8 Tb2_3 1_555 1_555
Tb5 O4_8 1_555 1_555
Tb3 O6_8 1_555 1_555
Tb4 O3_8 1_555 1_555
C8_8 C10_8 1_555 1_555
C11_8 N1_8 1_555 1_555
C13_8 N1_8 1_555 1_555
C17_8 C18_8 1_555 1_555
O4_8 Tb4 1_555 1_555
O5_8 Tb2_3 1_555 1_555
C1_9 C3_9 1_555 1_555
C2_9 C17_9 1_555 1_555
C3_9 C4_9 1_555 1_555
C4_9 H1_9 1_555 1_555
C5_9 C4_9 1_555 1_555
H2_9 C5_9 1_555 1_555
C6_9 C5_9 1_555 1_555
C7_9 H3_9 1_555 1_555
H4_9 C7_9 1_555 1_555
H5_9 C7_9 1_555 1_555
C8_9 C6_9 1_555 1_555
H6_9 C8_9 1_555 1_555
C9_9 C7_9 1_555 1_555
C10_9 C3_9 1_555 1_555
C11_9 H7_9 1_555 1_555
H8_9 C11_9 1_555 1_555
H9_9 C11_9 1_555 1_555
C12_9 C6_9 1_555 1_555
C13_9 H10_9 1_555 1_555
H11_9 C13_9 1_555 1_555
H12_9 C13_9 1_555 1_555
C14_9 C12_9 1_555 1_555
H13_9 C14_9 1_555 1_555
C15_9 C14_9 1_555 1_555
C16_9 C15_9 1_555 1_555
H14_9 C16_9 1_555 1_555
C17_9 C16_9 1_555 1_555
C18_9 C12_9 1_555 1_555
H15_9 C18_9 1_555 1_555
C19_9 C15_9 1_555 1_555
N1_9 C9_9 1_555 1_555
O1_9 C1_9 1_555 1_555
O2_5 C1_9 1_555 1_555
O10_8 C19_9 1_555 1_555
O12_4 C19_9 1_555 1_555
O5_9 C9_9 1_555 1_555
O13_7 C2_9 1_555 1_555
O14_5 C2_9 1_555 1_555
O8_9 C10_9 1_555 1_555
H16_9 O8_9 1_555 1_555
Tb6_2 O1_9 1_555 1_555
O9_5 Tb6_2 1_555 1_555
Tb4_2 O2_5 1_555 1_555
C8_9 C10_9 1_555 1_555
C11_9 N1_9 1_555 1_555
C13_9 N1_9 1_555 1_555
C17_9 C18_9 1_555 1_555
O5_9 Tb6_2 1_555 1_555
C4_10 H1_10 1_555 1_555
C5_10 C4_10 1_555 1_555
H2_10 C5_10 1_555 1_555
C11_10 H7_10 1_555 1_555
H8_10 C11_10 1_555 1_555
H9_10 C11_10 1_555 1_555
C13_10 H10_10 1_555 1_555
H12_10 C13_10 1_555 1_555
H13_10 C14_10 1_555 1_555
C15_10 C14_10 1_555 1_555
C19_10 C15_10 1_555 1_555
O2_6 C1_10 1_555 1_555
O10_7 C19_10 1_555 1_555
O12_3 C19_10 1_555 1_555
Tb3_2 O2_6 1_555 1_555
C11_10 N1_10 1_555 1_555
C13_10 N1_10 1_555 1_555
C2_10 C17_10 1_555 1_555
C7_10 H3_10 1_555 1_555
H4_10 C7_10 1_555 1_555
H5_10 C7_10 1_555 1_555
C8_10 C6_10 1_555 1_555
H6_10 C8_10 1_555 1_555
C9_10 C7_10 1_555 1_555
C10_10 C3_10 1_555 1_555
C12_10 C6_10 1_555 1_555
H14_10 C16_10 1_555 1_555
C17_10 C16_10 1_555 1_555
C18_10 C12_10 1_555 1_555
H15_10 C18_10 1_555 1_555
O5_10 C9_10 1_555 1_555
O13_8 C2_10 1_555 1_555
O14_6 C2_10 1_555 1_555
O8_10 C10_10 1_555 1_555
H16_10 O8_10 1_555 1_555
Tb5_2 O1_10 1_555 1_555
O9_6 Tb5_2 1_555 1_555
C8_10 C10_10 1_555 1_555
C17_10 C18_10 1_555 1_555
O5_10 Tb5_2 1_555 1_555
C7_11 H3_11 1_555 1_555
H4_11 C7_11 1_555 1_555
H5_11 C7_11 1_555 1_555
C9_11 C7_11 1_555 1_555
C11_11 H7_11 1_555 1_555
H8_11 C11_11 1_555 1_555
H9_11 C11_11 1_555 1_555
C13_11 H10_11 1_555 1_555
H11_11 C13_11 1_555 1_555
H12_11 C13_11 1_555 1_555
C19_11 C15_11 1_555 1_555
N1_11 C9_11 1_555 1_555
O10 C19_11 1_555 1_555
O11 C19_11 1_555 1_555
O5_11 C9_11 1_555 1_555
H16_11 O8_11 1_555 1_555
Tb3_2 O1_11 1_555 1_555
C11_11 N1_11 1_555 1_555
C13_11 N1_11 1_555 1_555
O5_11 Tb3_2 1_555 1_555
C1_11 C3_11 1_555 1_555
C2_11 C17_11 1_555 1_555
C3_11 C4_11 1_555 1_555
C4_11 H1_11 1_555 1_555
C5_11 C4_11 1_555 1_555
H2_11 C5_11 1_555 1_555
C6_11 C5_11 1_555 1_555
C8_11 C6_11 1_555 1_555
C10_11 C3_11 1_555 1_555
C12_11 C6_11 1_555 1_555
C14_11 C12_11 1_555 1_555
H13_11 C14_11 1_555 1_555
C17_11 C16_11 1_555 1_555
C18_11 C12_11 1_555 1_555
H15_11 C18_11 1_555 1_555
O9_5 C1_11 1_555 1_555
O13_2 C2_11 1_555 1_555
C8_11 C10_11 1_555 1_555
C17_11 C18_11 1_555 1_555
C1_12 C3_12 1_555 1_555
C3_12 C4_12 1_555 1_555
C4_12 H1_12 1_555 1_555
C10_12 C3_12 1_555 1_555
O9_6 C1_12 1_555 1_555
C7_12 H3_12 1_555 1_555
H4_12 C7_12 1_555 1_555
H5_12 C7_12 1_555 1_555
C9_12 C7_12 1_555 1_555
C11_12 H7_12 1_555 1_555
H8_12 C11_12 1_555 1_555
H9_12 C11_12 1_555 1_555
C13_12 H10_12 1_555 1_555
H11_12 C13_12 1_555 1_555
H12_12 C13_12 1_555 1_555
N1_12 C9_12 1_555 1_555
O5_12 C9_12 1_555 1_555
H16_12 O8_12 1_555 1_555
Tb4_2 O1_12 1_555 1_555
C11_12 N1_12 1_555 1_555
C13_12 N1_12 1_555 1_555
O5_12 Tb4_2 1_555 1_555
C2_12 C17_12 1_555 1_555
H2_12 C5_12 1_555 1_555
C6_12 C5_12 1_555 1_555
C8_12 C6_12 1_555 1_555
C12_12 C6_12 1_555 1_555
C14_12 C12_12 1_555 1_555
H13_12 C14_12 1_555 1_555
C17_12 C16_12 1_555 1_555
C18_12 C12_12 1_555 1_555
H15_12 C18_12 1_555 1_555
O13 C2_12 1_555 1_555
O14_4 C2_12 1_555 1_555
C17_12 C18_12 1_555 1_555
C19_12 C15_12 1_555 1_555
O10_2 C19_12 1_555 1_555
O11_2 C19_12 1_555 1_555
C4_13 H1_13 1_555 1_555
C5_13 C4_13 1_555 1_555
H2_13 C5_13 1_555 1_555
C11_13 H7_13 1_555 1_555
H8_13 C11_13 1_555 1_555
H9_13 C11_13 1_555 1_555
C13_13 H10_13 1_555 1_555
H12_13 C13_13 1_555 1_555
H13_13 C14_13 1_555 1_555
C15_13 C14_13 1_555 1_555
C19_13 C15_13 1_555 1_555
O2_7 C1_13 1_555 1_555
O10_4 C19_13 1_555 1_555
O12_2 C19_13 1_555 1_555
Tb6 O2_7 1_555 1_555
C11_13 N1_13 1_555 1_555
C13_13 N1_13 1_555 1_555
C2_13 C17_13 1_555 1_555
C7_13 H3_13 1_555 1_555
H4_13 C7_13 1_555 1_555
H5_13 C7_13 1_555 1_555
C8_13 C6_13 1_555 1_555
H6_13 C8_13 1_555 1_555
C9_13 C7_13 1_555 1_555
C10_13 C3_13 1_555 1_555
C12_13 C6_13 1_555 1_555
H14_13 C16_13 1_555 1_555
C17_13 C16_13 1_555 1_555
C18_13 C12_13 1_555 1_555
H15_13 C18_13 1_555 1_555
O5_13 C9_13 1_555 1_555
O13_3 C2_13 1_555 1_555
O14 C2_13 1_555 1_555
O8_13 C10_13 1_555 1_555
H16_13 O8_13 1_555 1_555
Tb3 O1_13 1_555 1_555
O9_7 Tb3 1_555 1_555
C8_13 C10_13 1_555 1_555
C17_13 C18_13 1_555 1_555
O5_13 Tb3 1_555 1_555
C1_14 C3_14 1_555 1_555
C2_14 C17_14 1_555 1_555
C3_14 C4_14 1_555 1_555
C4_14 H1_14 1_555 1_555
C5_14 C4_14 1_555 1_555
H2_14 C5_14 1_555 1_555
C6_14 C5_14 1_555 1_555
C7_14 H3_14 1_555 1_555
H4_14 C7_14 1_555 1_555
H5_14 C7_14 1_555 1_555
C8_14 C6_14 1_555 1_555
H6_14 C8_14 1_555 1_555
C9_14 C7_14 1_555 1_555
C10_14 C3_14 1_555 1_555
C11_14 H7_14 1_555 1_555
H8_14 C11_14 1_555 1_555
H9_14 C11_14 1_555 1_555
C12_14 C6_14 1_555 1_555
C13_14 H10_14 1_555 1_555
H11_14 C13_14 1_555 1_555
H12_14 C13_14 1_555 1_555
C14_14 C12_14 1_555 1_555
H13_14 C14_14 1_555 1_555
C15_14 C14_14 1_555 1_555
C16_14 C15_14 1_555 1_555
H14_14 C16_14 1_555 1_555
C17_14 C16_14 1_555 1_555
C18_14 C12_14 1_555 1_555
H15_14 C18_14 1_555 1_555
C19_14 C15_14 1_555 1_555
N1_14 C9_14 1_555 1_555
O1_14 C1_14 1_555 1_555
O2_8 C1_14 1_555 1_555
O10_3 C19_14 1_555 1_555
O12 C19_14 1_555 1_555
O5_14 C9_14 1_555 1_555
O13_4 C2_14 1_555 1_555
O14_2 C2_14 1_555 1_555
O8_14 C10_14 1_555 1_555
H16_14 O8_14 1_555 1_555
Tb4 O1_14 1_555 1_555
O9_8 Tb4 1_555 1_555
Tb5 O2_8 1_555 1_555
C8_14 C10_14 1_555 1_555
C11_14 N1_14 1_555 1_555
C13_14 N1_14 1_555 1_555
C17_14 C18_14 1_555 1_555
O5_14 Tb4 1_555 1_555
C2_15 C17_15 1_555 1_555
H2_15 C5_15 1_555 1_555
C6_15 C5_15 1_555 1_555
C8_15 C6_15 1_555 1_555
H6_15 C8_15 1_555 1_555
C12_15 C6_15 1_555 1_555
C14_15 C12_15 1_555 1_555
H13_15 C14_15 1_555 1_555
C15_15 C14_15 1_555 1_555
C16_15 C15_15 1_555 1_555
H14_15 C16_15 1_555 1_555
C17_15 C16_15 1_555 1_555
C18_15 C12_15 1_555 1_555
H15_15 C18_15 1_555 1_555
C19_15 C15_15 1_555 1_555
O10_5 C19_15 1_555 1_555
O11_3 C19_15 1_555 1_555
O13_6 C2_15 1_555 1_555
O14_7 C2_15 1_555 1_555
C17_15 C18_15 1_555 1_555
C1_15 C3_15 1_555 1_555
C3_15 C4_15 1_555 1_555
C4_15 H1_15 1_555 1_555
C7_15 H3_15 1_555 1_555
H4_15 C7_15 1_555 1_555
H5_15 C7_15 1_555 1_555
C9_15 C7_15 1_555 1_555
C10_15 C3_15 1_555 1_555
C11_15 H7_15 1_555 1_555
H8_15 C11_15 1_555 1_555
H9_15 C11_15 1_555 1_555
C13_15 H10_15 1_555 1_555
H11_15 C13_15 1_555 1_555
H12_15 C13_15 1_555 1_555
N1_15 C9_15 1_555 1_555
O1_15 C1_15 1_555 1_555
O9_7 C1_15 1_555 1_555
O5_15 C9_15 1_555 1_555
O8_15 C10_15 1_555 1_555
H16_15 O8_15 1_555 1_555
Tb5 O1_15 1_555 1_555
C11_15 N1_15 1_555 1_555
C13_15 N1_15 1_555 1_555
O5_15 Tb5 1_555 1_555
C1_16 C3_16 1_555 1_555
C2_16 C17_16 1_555 1_555
C3_16 C4_16 1_555 1_555
C4_16 H1_16 1_555 1_555
C5_16 C4_16 1_555 1_555
H2_16 C5_16 1_555 1_555
C6_16 C5_16 1_555 1_555
C7_16 H3_16 1_555 1_555
H4_16 C7_16 1_555 1_555
H5_16 C7_16 1_555 1_555
C8_16 C6_16 1_555 1_555
H6_16 C8_16 1_555 1_555
C9_16 C7_16 1_555 1_555
C10_16 C3_16 1_555 1_555
C11_16 H7_16 1_555 1_555
H8_16 C11_16 1_555 1_555
H9_16 C11_16 1_555 1_555
C12_16 C6_16 1_555 1_555
C13_16 H10_16 1_555 1_555
H11_16 C13_16 1_555 1_555
H12_16 C13_16 1_555 1_555
C14_16 C12_16 1_555 1_555
H13_16 C14_16 1_555 1_555
C15_16 C14_16 1_555 1_555
C16_16 C15_16 1_555 1_555
H14_16 C16_16 1_555 1_555
C17_16 C16_16 1_555 1_555
C18_16 C12_16 1_555 1_555
H15_16 C18_16 1_555 1_555
C19_16 C15_16 1_555 1_555
N1_16 C9_16 1_555 1_555
O1_16 C1_16 1_555 1_555
O9_8 C1_16 1_555 1_555
O10_6 C19_16 1_555 1_555
O11_4 C19_16 1_555 1_555
O5_16 C9_16 1_555 1_555
O13_5 C2_16 1_555 1_555
O8_16 C10_16 1_555 1_555
H16_16 O8_16 1_555 1_555
Tb6 O1_16 1_555 1_555
C8_16 C10_16 1_555 1_555
C11_16 N1_16 1_555 1_555
C13_16 N1_16 1_555 1_555
C17_16 C18_16 1_555 1_555
O5_16 Tb6 1_555 1_555

#END
