
###############################################################################
#
# This file contains modified crystal structure data generated from the
# MOF subset of the Cambridge Structural Database (CSD) v543 
# hosted by the Cambridge Crystallographic Data Centre (CCDC).
#
# This work is licensed under the Creative Commons
# Attribution-NonCommercial-ShareAlike 4.0 International License.
# To view a copy of this license, visit
# http://creativecommons.org/licenses/by-nc-sa/4.0/
# or send a letter to
# Creative Commons, PO Box 1866, Mountain View, CA 94042, USA.
#
# CIF created using the CSD Python API on 29 September 2022
# The structure has been converted into the P1 space group
# The structure has a 3D framework
# The original CSD entry UVUDUM is in the rhombohedral crystal system
# The framework has been calculated to contain at least 10.0% void space
# The void calculation uses a probe of radius 1.32A, grid spacing 0.4
#
###############################################################################

data_UVUDUM
_chemical_formula_moiety         '(C360 H324 O192 Zn36)n'
_symmetry_cell_setting           triclinic
_symmetry_space_group_name_H-M   'P 1'
_symmetry_Int_Tables_number      1
_space_group_name_Hall           'P 1'
loop_
_symmetry_equiv_pos_site_id
_symmetry_equiv_pos_as_xyz
1 x,y,z
_cell_length_a                   27.6765(9)
_cell_length_b                   27.6765(9)
_cell_length_c                   17.9353(8)
_cell_angle_alpha                90
_cell_angle_beta                 90
_cell_angle_gamma                120
_cell_volume                     11897.7
loop_
_atom_site_label
_atom_site_type_symbol
_atom_site_fract_x
_atom_site_fract_y
_atom_site_fract_z
C1 C 0.27579(9) 0.06533(9) 0.55769(12)
C2 C 0.26439(9) 0.09371(9) 0.62074(12)
C3 C 0.26938(9) 0.14578(9) 0.60950(12)
H1 H 0.2764 0.1618 0.5611
C4 C 0.26393(9) 0.17398(9) 0.66976(12)
C5 C 0.27352(9) 0.23182(10) 0.66009(12)
C6 C 0.25165(9) 0.15012(10) 0.74115(12)
H2 H 0.2491 0.1701 0.7825
C7 C 0.24335(9) 0.09667(10) 0.75021(12)
C8 C 0.25110(9) 0.06897(10) 0.69070(12)
H3 H 0.2473 0.0332 0.6979
C9 C 0.21713(11) 0.09308(11) 0.87946(13)
H4 H 0.1908 0.1059 0.8650
H5 H 0.2520 0.1256 0.8978
C10 C 0.19166(12) 0.04859(12) 0.93927(14)
H6 H 0.1560 0.0178 0.9215
H7 H 0.1853 0.0646 0.9844
H8 H 0.2171 0.0346 0.9506
C11 C 0.35955(10) 0.11554(10) 0.28113(13)
C12 C 0.38036(9) 0.16982(9) 0.24068(12)
C13 C 0.36560(10) 0.20794(9) 0.26581(12)
H9 H 0.3436 0.2005 0.3095
C14 C 0.38338(9) 0.25731(9) 0.22628(12)
C15 C 0.36748(10) 0.29902(10) 0.25166(12)
C16 C 0.41571(10) 0.26831(10) 0.16256(12)
H10 H 0.4284 0.3024 0.1365
C17 C 0.42943(10) 0.22908(10) 0.13697(13)
C18 C 0.41272(10) 0.18023(10) 0.17652(13)
H11 H 0.4232 0.1541 0.1602
C19 C 0.46354(13) 0.19891(11) 0.03425(15)
H12 H 0.4269 0.1641 0.0329
H13 H 0.4905 0.1914 0.0608
O1 O 0.28953(7) 0.09053(7) 0.49587(8)
O2 O 0.27122(7) 0.01830(6) 0.56895(8)
O3 O 0.34437(7) 0.27275(8) 0.47385(9)
O4 O 0.26934(7) 0.24686(7) 0.59422(8)
O5 O 0.28498(7) 0.26229(6) 0.71637(8)
O6 O 0.22861(7) 0.06776(7) 0.81658(8)
O7 O 0.33064(7) 0.10838(7) 0.33869(9)
O8 O 0.37261(7) 0.08134(7) 0.25468(9)
O9 O 0.33273(7) 0.28510(7) 0.30461(8)
O10 O 0.38930(7) 0.34509(7) 0.21800(9)
O11 O 0.45871(8) 0.24247(7) 0.07138(10)
Zn1 Zn 0.33315(2) 0.32255(2) 0.39895(2)
Zn2 Zn 0.30908(2) 0.05395(2) 0.41812(2)
H17 H 0.3197(7) 0.2578(10) 0.5108(10)
H18 H 0.3778(5) 0.2800(10) 0.4891(12)
O12 O 0.25292(9) 0.27122(7) 0.43105(8)
O14 O 0.31064(9) 0.38169(7) 0.38304(8)
O15 O 0.41467(7) 0.37540(10) 0.41199(9)
O16 O 0.37754(10) 0.05597(7) 0.44867(9)
Zn3 Zn 0.34412(2) 0.34393(3) 0.73228(2)
Zn6 Zn 0.25513(3) 0.30908(2) 0.58188(2)
Zn7 Zn 0.38728(2) 0.41154(3) 0.24855(2)
O13 O 0.24686(7) 0.97752(10) 0.40578(8)
Zn4 Zn 0.32255(2) 0.98940(3) 0.60105(2)
Zn5 Zn 0.34393(3) 0.99982(2) 0.26772(2)
O13_2 O 0.02248(10) 0.26934(12) 0.40578(8)
Zn4_2 Zn 0.01060(3) 0.33315(4) 0.60105(2)
Zn5_2 Zn 0.00018(2) 0.34412(4) 0.26772(2)
C1_2 C 0.93467(9) 0.21046(13) 0.55769(12)
C2_2 C 0.90629(9) 0.17068(13) 0.62074(12)
C3_2 C 0.85422(9) 0.12360(13) 0.60950(12)
H1_2 H 0.8382 0.1146 0.5611
C4_2 C 0.82602(9) 0.08995(13) 0.66976(12)
C5_2 C 0.76818(10) 0.04170(13) 0.66009(12)
C6_2 C 0.84988(10) 0.10153(13) 0.74115(12)
H2_2 H 0.8299 0.0790 0.7825
C7_2 C 0.90333(10) 0.14668(13) 0.75021(12)
C8_2 C 0.93103(10) 0.18213(13) 0.69070(12)
H3_2 H 0.9668 0.2141 0.6979
C9_2 C 0.90692(11) 0.12405(16) 0.87946(13)
H4_2 H 0.8941 0.0849 0.8650
H5_2 H 0.8744 0.1264 0.8978
C10_2 C 0.95141(12) 0.14307(17) 0.93927(14)
H6_2 H 0.9822 0.1382 0.9215
H7_2 H 0.9354 0.1207 0.9844
H8_2 H 0.9654 0.1825 0.9506
C11_2 C 0.88446(10) 0.24401(14) 0.28113(13)
C12_2 C 0.83018(9) 0.21054(13) 0.24068(12)
C13_2 C 0.79206(9) 0.15766(13) 0.26581(12)
H9_2 H 0.7995 0.1431 0.3095
C14_2 C 0.74269(9) 0.12607(13) 0.22628(12)
C15_2 C 0.70098(10) 0.06846(14) 0.25166(12)
C16_2 C 0.73169(10) 0.14740(14) 0.16256(12)
H10_2 H 0.6976 0.1260 0.1365
C17_2 C 0.77092(10) 0.20035(14) 0.13697(13)
C18_2 C 0.81977(10) 0.23249(14) 0.17652(13)
H11_2 H 0.8459 0.2691 0.1602
C19_2 C 0.80109(11) 0.26463(17) 0.03425(15)
H12_2 H 0.8359 0.2628 0.0329
H13_2 H 0.8086 0.2991 0.0608
O1_2 O 0.90947(7) 0.19900(10) 0.49587(8)
O2_2 O 0.98170(6) 0.25292(9) 0.56895(8)
O3_2 O 0.72725(8) 0.07162(11) 0.47385(9)
O4_2 O 0.75314(7) 0.02248(10) 0.59422(8)
O5_2 O 0.73771(6) 0.02269(9) 0.71637(8)
O6_2 O 0.93224(7) 0.16085(10) 0.81658(8)
O7_2 O 0.89162(7) 0.22226(10) 0.33869(9)
O8_2 O 0.91866(7) 0.29127(10) 0.25468(9)
O9_2 O 0.71490(7) 0.04763(10) 0.30461(8)
O10_2 O 0.65491(7) 0.04421(10) 0.21800(9)
O11_2 O 0.75753(7) 0.21624(11) 0.07138(10)
Zn1_2 Zn 0.67745(2) 0.01060(3) 0.39895(2)
Zn2_2 Zn 0.94605(2) 0.25513(3) 0.41812(2)
H17_2 H 0.7422(10) 0.0619(12) 0.5108(10)
H18_2 H 0.7200(10) 0.0978(11) 0.4891(12)
O15_2 O 0.62460(10) 0.03928(12) 0.41199(9)
O16_2 O 0.94403(7) 0.32158(12) 0.44867(9)
Zn3_2 Zn 0.65607(3) 0.00018(4) 0.73228(2)
O12_2 O 0.72878(7) 0.98170(11) 0.43105(8)
O14_2 O 0.61831(7) 0.92896(11) 0.38304(8)
Zn6_2 Zn 0.69092(2) 0.94605(4) 0.58188(2)
Zn7_2 Zn 0.58846(3) 0.97575(4) 0.24855(2)
O12_3 O 0.01830(11) 0.74708(9) 0.43105(8)
O14_3 O 0.07104(11) 0.68936(9) 0.38304(8)
Zn6_3 Zn 0.05395(4) 0.74487(3) 0.58188(2)
Zn7_3 Zn 0.02425(4) 0.61272(2) 0.24855(2)
C1_3 C 0.78954(13) 0.72421(9) 0.55769(12)
C2_3 C 0.82932(13) 0.73561(9) 0.62074(12)
C3_3 C 0.87640(13) 0.73062(9) 0.60950(12)
H1_3 H 0.8854 0.7236 0.5611
C4_3 C 0.91005(13) 0.73607(9) 0.66976(12)
C5_3 C 0.95830(13) 0.72648(9) 0.66009(12)
C6_3 C 0.89847(13) 0.74835(9) 0.74115(12)
H2_3 H 0.9210 0.7509 0.7825
C7_3 C 0.85332(13) 0.75665(9) 0.75021(12)
C8_3 C 0.81787(13) 0.74890(9) 0.69070(12)
H3_3 H 0.7859 0.7527 0.6979
C9_3 C 0.87595(16) 0.78287(11) 0.87946(13)
H4_3 H 0.9151 0.8092 0.8650
H5_3 H 0.8736 0.7480 0.8978
C10_3 C 0.85693(17) 0.80834(12) 0.93927(14)
H6_3 H 0.8618 0.8440 0.9215
H7_3 H 0.8793 0.8147 0.9844
H8_3 H 0.8175 0.7829 0.9506
C11_3 C 0.75599(14) 0.64045(10) 0.28113(13)
C12_3 C 0.78946(13) 0.61964(9) 0.24068(12)
C13_3 C 0.84234(13) 0.63440(10) 0.26581(12)
H9_3 H 0.8569 0.6564 0.3095
C14_3 C 0.87393(13) 0.61662(9) 0.22628(12)
C15_3 C 0.93154(14) 0.63252(10) 0.25166(12)
C16_3 C 0.85260(14) 0.58429(10) 0.16256(12)
H10_3 H 0.8740 0.5716 0.1365
C17_3 C 0.79965(14) 0.57057(10) 0.13697(13)
C18_3 C 0.76751(14) 0.58728(10) 0.17652(13)
H11_3 H 0.7309 0.5768 0.1602
C19_3 C 0.73537(17) 0.53646(13) 0.03425(15)
H12_3 H 0.7372 0.5731 0.0329
H13_3 H 0.7009 0.5095 0.0608
O1_3 O 0.80100(10) 0.71047(7) 0.49587(8)
O2_3 O 0.74708(9) 0.72878(7) 0.56895(8)
O3_3 O 0.92838(11) 0.65563(7) 0.47385(9)
O4_3 O 0.97752(10) 0.73066(7) 0.59422(8)
O5_3 O 0.97731(9) 0.71502(7) 0.71637(8)
O6_3 O 0.83915(10) 0.77139(7) 0.81658(8)
O7_3 O 0.77774(10) 0.66936(7) 0.33869(9)
O8_3 O 0.70873(10) 0.62739(7) 0.25468(9)
O9_3 O 0.95237(10) 0.66727(7) 0.30461(8)
O10_3 O 0.95579(10) 0.61070(7) 0.21800(9)
O11_3 O 0.78376(11) 0.54129(8) 0.07138(10)
Zn1_3 Zn 0.98940(3) 0.66685(2) 0.39895(2)
Zn2_3 Zn 0.74487(3) 0.69092(2) 0.41812(2)
H17_3 H 0.9381(12) 0.6803(7) 0.5108(10)
H18_3 H 0.9022(11) 0.6222(5) 0.4891(12)
O13_3 O 0.73066(12) 0.75314(7) 0.40578(8)
O15_3 O 0.96072(12) 0.58533(7) 0.41199(9)
O16_3 O 0.67842(12) 0.62246(10) 0.44867(9)
Zn3_3 Zn 0.99982(4) 0.65588(2) 0.73228(2)
Zn4_3 Zn 0.66685(4) 0.67745(2) 0.60105(2)
Zn5_3 Zn 0.65588(4) 0.65607(3) 0.26772(2)
Zn3_4 Zn 0.01078(2) 0.67727(3) 0.06562(2)
C11_4 C 0.02622(10) 0.44887(10) 0.61446(13)
C12_4 C 0.04703(9) 0.50315(9) 0.57401(12)
C13_4 C 0.03227(10) 0.54127(9) 0.59914(12)
H9_4 H 0.0103 0.5338 0.6428
C14_4 C 0.05005(9) 0.59064(9) 0.55961(12)
C15_4 C 0.03415(10) 0.63235(10) 0.58499(12)
C16_4 C 0.08238(10) 0.60164(10) 0.49589(12)
H10_4 H 0.0951 0.6357 0.4698
C17_4 C 0.09610(10) 0.56241(10) 0.47030(13)
C18_4 C 0.07939(10) 0.51356(10) 0.50985(13)
H11_4 H 0.0899 0.4874 0.4935
C19_4 C 0.13021(13) 0.53224(11) 0.36758(15)
H12_4 H 0.0936 0.4974 0.3662
H13_4 H 0.1572 0.5247 0.3941
C20 C 0.15041(18) 0.55249(15) 0.28934(18)
H14 H 0.1235 0.5598 0.2637
H15 H 0.1542 0.5239 0.2620
H16 H 0.1867 0.5869 0.2915
O3_4 O 0.01104(7) 0.60608(8) 0.80718(9)
O8_4 O 0.03928(7) 0.41467(7) 0.58801(9)
O10_4 O 0.05597(7) 0.67842(7) 0.55133(9)
O11_4 O 0.12538(8) 0.57580(7) 0.40471(10)
H18_4 H 0.0445(5) 0.6133(10) 0.8224(12)
O15_4 O 0.08134(7) 0.70873(10) 0.74532(9)
O16_4 O 0.04421(10) 0.38930(7) 0.78200(9)
C4_4 C 0.93060(9) 0.50731(9) 0.00309(12)
C6_4 C 0.91832(9) 0.48345(10) 0.07448(12)
H2_4 H 0.9158 0.5034 0.1158
C7_4 C 0.91002(9) 0.43000(10) 0.08354(12)
C8_4 C 0.91777(9) 0.40230(10) 0.02403(12)
H3_4 H 0.9140 0.3665 0.0312
C9_4 C 0.88380(11) 0.42641(11) 0.21279(13)
H4_4 H 0.8575 0.4392 0.1983
H5_4 H 0.9187 0.4589 0.2311
C10_4 C 0.85833(12) 0.38192(12) 0.27260(14)
H6_4 H 0.8227 0.3511 0.2548
H7_4 H 0.8520 0.3979 0.3177
H8_4 H 0.8838 0.3679 0.2839
O5_4 O 0.95165(7) 0.59562(6) 0.04970(8)
O6_4 O 0.89528(7) 0.40109(7) 0.14991(8)
C1_4 C 0.94246(9) 0.39866(9) 0.89102(12)
C2_4 C 0.93106(9) 0.42704(9) 0.95407(12)
C3_4 C 0.93605(9) 0.47911(9) 0.94283(12)
H1_4 H 0.9431 0.4951 0.8944
C5_4 C 0.94019(9) 0.56515(10) 0.99342(12)
O1_4 O 0.95620(7) 0.42386(7) 0.82920(8)
O2_4 O 0.93789(7) 0.35163(6) 0.90228(8)
O4_4 O 0.93601(7) 0.58019(7) 0.92755(8)
O7_4 O 0.99731(7) 0.44171(7) 0.67202(9)
O9_4 O 0.99940(7) 0.61843(7) 0.63794(8)
Zn2_4 Zn 0.97575(2) 0.38728(2) 0.75145(2)
H17_4 H 0.9864(7) 0.5911(10) 0.8441(10)
O12_4 O 0.91959(9) 0.60455(7) 0.76438(8)
O13_4 O 0.91353(7) 0.31085(10) 0.73911(8)
Zn4_4 Zn 0.98922(2) 0.32273(3) 0.93438(2)
Zn6_4 Zn 0.92180(3) 0.64241(2) 0.91521(2)
C4_5 C 0.49269(9) 0.42328(13) 0.00309(12)
C6_5 C 0.51655(10) 0.43486(13) 0.07448(12)
H2_5 H 0.4966 0.4123 0.1158
C7_5 C 0.57000(10) 0.48001(13) 0.08354(12)
C8_5 C 0.59770(10) 0.51546(13) 0.02403(12)
H3_5 H 0.6335 0.5474 0.0312
C9_5 C 0.57359(11) 0.45738(16) 0.21279(13)
H4_5 H 0.5608 0.4182 0.1983
H5_5 H 0.5411 0.4597 0.2311
C10_5 C 0.61808(12) 0.47640(17) 0.27260(14)
H6_5 H 0.6489 0.4715 0.2548
H7_5 H 0.6021 0.4540 0.3177
H8_5 H 0.6321 0.5158 0.2839
O5_5 O 0.40438(6) 0.35602(9) 0.04970(8)
O6_5 O 0.59891(7) 0.49418(10) 0.14991(8)
Zn3_5 Zn 0.32273(3) 0.33352(4) 0.06562(2)
C1_5 C 0.60134(9) 0.54379(13) 0.89102(12)
C2_5 C 0.57296(9) 0.50401(13) 0.95407(12)
C3_5 C 0.52089(9) 0.45693(13) 0.94283(12)
H1_5 H 0.5049 0.4479 0.8944
C5_5 C 0.43485(10) 0.37503(13) 0.99342(12)
C11_5 C 0.55113(10) 0.57734(14) 0.61446(13)
C12_5 C 0.49685(9) 0.54387(13) 0.57401(12)
C13_5 C 0.45873(9) 0.49099(13) 0.59914(12)
H9_5 H 0.4662 0.4764 0.6428
C14_5 C 0.40936(9) 0.45940(13) 0.55961(12)
C15_5 C 0.36765(10) 0.40179(14) 0.58499(12)
C16_5 C 0.39836(10) 0.48073(14) 0.49589(12)
H10_5 H 0.3643 0.4593 0.4698
C17_5 C 0.43759(10) 0.53368(14) 0.47030(13)
C18_5 C 0.48644(10) 0.56582(14) 0.50985(13)
H11_5 H 0.5126 0.6024 0.4935
C19_5 C 0.46776(11) 0.59796(17) 0.36758(15)
H12_5 H 0.5026 0.5961 0.3662
H13_5 H 0.4753 0.6324 0.3941
C20_2 C 0.44751(15) 0.59791(23) 0.28934(18)
H14_2 H 0.4402 0.5636 0.2637
H15_2 H 0.4761 0.6302 0.2620
H16_2 H 0.4131 0.5997 0.2915
O1_5 O 0.57614(7) 0.53233(10) 0.82920(8)
O2_5 O 0.64837(6) 0.58625(9) 0.90228(8)
O3_5 O 0.39392(8) 0.40495(11) 0.80718(9)
O4_5 O 0.41981(7) 0.35581(10) 0.92755(8)
O7_5 O 0.55829(7) 0.55559(10) 0.67202(9)
O8_5 O 0.58533(7) 0.62460(10) 0.58801(9)
O9_5 O 0.38157(7) 0.38096(10) 0.63794(8)
O10_5 O 0.32158(7) 0.37754(10) 0.55133(9)
O11_5 O 0.42420(7) 0.54957(11) 0.40471(10)
Zn2_5 Zn 0.61272(2) 0.58846(3) 0.75145(2)
H17_5 H 0.4089(10) 0.3952(12) 0.8441(10)
H18_5 H 0.3867(10) 0.4311(11) 0.8224(12)
O12_5 O 0.39545(7) 0.31503(11) 0.76438(8)
O13_5 O 0.68915(10) 0.60267(12) 0.73911(8)
O15_5 O 0.29127(10) 0.37261(12) 0.74532(9)
O16_5 O 0.61070(7) 0.65491(12) 0.78200(9)
Zn4_5 Zn 0.67727(3) 0.66648(4) 0.93438(2)
Zn6_5 Zn 0.35759(2) 0.27938(4) 0.91521(2)
C4_6 C 0.57672(13) 0.06940(9) 0.00309(12)
C6_6 C 0.56514(13) 0.08168(9) 0.07448(12)
H2_6 H 0.5877 0.0842 0.1158
C7_6 C 0.51999(13) 0.08998(9) 0.08354(12)
C8_6 C 0.48454(13) 0.08223(9) 0.02403(12)
H3_6 H 0.4526 0.0860 0.0312
C9_6 C 0.54262(16) 0.11620(11) 0.21279(13)
H4_6 H 0.5818 0.1425 0.1983
H5_6 H 0.5403 0.0813 0.2311
C10_6 C 0.52360(17) 0.14167(12) 0.27260(14)
H6_6 H 0.5285 0.1773 0.2548
H7_6 H 0.5460 0.1480 0.3177
H8_6 H 0.4842 0.1162 0.2839
O5_6 O 0.64398(9) 0.04835(7) 0.04970(8)
O6_6 O 0.50582(10) 0.10472(7) 0.14991(8)
C1_6 C 0.45621(13) 0.05754(9) 0.89102(12)
C2_6 C 0.49599(13) 0.06894(9) 0.95407(12)
C3_6 C 0.54307(13) 0.06395(9) 0.94283(12)
H1_6 H 0.5521 0.0569 0.8944
C5_6 C 0.62497(13) 0.05981(9) 0.99342(12)
O1_6 O 0.46767(10) 0.04380(7) 0.82920(8)
O2_6 O 0.41375(9) 0.06211(7) 0.90228(8)
O4_6 O 0.64419(10) 0.06399(7) 0.92755(8)
O7_6 O 0.44441(10) 0.00269(7) 0.67202(9)
O9_6 O 0.61904(10) 0.00060(7) 0.63794(8)
Zn2_6 Zn 0.41154(3) 0.02425(2) 0.75145(2)
H17_6 H 0.6048(12) 0.0136(7) 0.8441(10)
O12_6 O 0.68497(11) 0.08041(9) 0.76438(8)
O13_6 O 0.39733(12) 0.08647(7) 0.73911(8)
Zn4_6 Zn 0.33352(4) 0.01078(2) 0.93438(2)
Zn6_6 Zn 0.72062(4) 0.07820(3) 0.91521(2)
Zn3_6 Zn 0.66648(4) 0.98922(2) 0.06562(2)
C11_6 C 0.42266(14) 0.97378(10) 0.61446(13)
C12_6 C 0.45613(13) 0.95297(9) 0.57401(12)
C13_6 C 0.50901(13) 0.96773(10) 0.59914(12)
H9_6 H 0.5236 0.9897 0.6428
C14_6 C 0.54060(13) 0.94995(9) 0.55961(12)
C15_6 C 0.59821(14) 0.96585(10) 0.58499(12)
C16_6 C 0.51927(14) 0.91762(10) 0.49589(12)
H10_6 H 0.5407 0.9049 0.4698
C17_6 C 0.46632(14) 0.90390(10) 0.47030(13)
C18_6 C 0.43418(14) 0.92061(10) 0.50985(13)
H11_6 H 0.3976 0.9101 0.4935
C19_6 C 0.40204(17) 0.86979(13) 0.36758(15)
H12_6 H 0.4039 0.9064 0.3662
H13_6 H 0.3676 0.8428 0.3941
C20_3 C 0.40209(23) 0.84959(18) 0.28934(18)
H14_3 H 0.4364 0.8765 0.2637
H15_3 H 0.3698 0.8458 0.2620
H16_3 H 0.4003 0.8133 0.2915
O3_6 O 0.59505(11) 0.98896(7) 0.80718(9)
O8_6 O 0.37540(10) 0.96072(7) 0.58801(9)
O10_6 O 0.62246(10) 0.94403(7) 0.55133(9)
O11_6 O 0.45043(11) 0.87462(8) 0.40471(10)
H18_6 H 0.5689(11) 0.9555(5) 0.8224(12)
O15_6 O 0.62739(12) 0.91866(7) 0.74532(9)
O16_6 O 0.34509(12) 0.95579(10) 0.78200(9)
O15_7 O 0.74801(7) 0.04206(10) 0.07865(9)
O10_7 O 0.72263(7) 0.01176(7) 0.88467(9)
C1_7 C 0.60912(9) 0.73200(9) 0.22436(12)
C2_7 C 0.59772(9) 0.76038(9) 0.28741(12)
C3_7 C 0.60271(9) 0.81245(9) 0.27617(12)
H1_7 H 0.6097 0.8285 0.2278
C4_7 C 0.59726(9) 0.84065(9) 0.33643(12)
C5_7 C 0.60685(9) 0.89849(10) 0.32676(12)
C6_7 C 0.58498(9) 0.81679(10) 0.40782(12)
H2_7 H 0.5824 0.8368 0.4492
C7_7 C 0.57668(9) 0.76334(10) 0.41688(12)
C8_7 C 0.58443(9) 0.73564(10) 0.35737(12)
H3_7 H 0.5806 0.6999 0.3646
C9_7 C 0.55046(11) 0.75975(11) 0.54613(13)
H4_7 H 0.5241 0.7726 0.5317
H5_7 H 0.5853 0.7923 0.5645
C10_7 C 0.52499(12) 0.71526(12) 0.60594(14)
H6_7 H 0.4893 0.6845 0.5882
H7_7 H 0.5186 0.7313 0.6511
H8_7 H 0.5504 0.7013 0.6173
O1_7 O 0.62286(7) 0.75720(7) 0.16254(8)
O2_7 O 0.60455(7) 0.68497(6) 0.23562(8)
O3_7 O 0.67770(7) 0.93942(8) 0.14052(9)
O4_7 O 0.60267(7) 0.91353(7) 0.26089(8)
O6_7 O 0.56194(7) 0.73443(7) 0.48325(8)
O7_7 O 0.66397(7) 0.77505(7) 0.00536(9)
Zn2_7 Zn 0.64241(2) 0.72062(2) 0.08479(2)
H17_7 H 0.6530(7) 0.9245(10) 0.1775(10)
H18_7 H 0.7111(5) 0.9467(10) 0.1558(12)
O12_7 O 0.58625(9) 0.93789(7) 0.09772(8)
O13_7 O 0.58019(7) 0.64419(10) 0.07245(8)
O16_7 O 0.71088(10) 0.72263(7) 0.11533(9)
C11_7 C 0.69288(10) 0.78221(10) 0.94780(13)
C12_7 C 0.71369(9) 0.83649(9) 0.90735(12)
C13_7 C 0.69893(10) 0.87461(9) 0.93248(12)
H9_7 H 0.6769 0.8672 0.9762
C14_7 C 0.71671(9) 0.92398(9) 0.89295(12)
C15_7 C 0.70081(10) 0.96569(10) 0.91833(12)
C16_7 C 0.74904(10) 0.93498(10) 0.82923(12)
H10_7 H 0.7617 0.9691 0.8032
C17_7 C 0.76276(10) 0.89575(10) 0.80364(13)
C18_7 C 0.74605(10) 0.84690(10) 0.84319(13)
H11_7 H 0.7565 0.8208 0.8269
C19_7 C 0.79687(13) 0.86558(11) 0.70092(15)
H12_7 H 0.7602 0.8308 0.6996
H13_7 H 0.8238 0.8581 0.7275
C20_4 C 0.81707(18) 0.88583(15) 0.62268(18)
H14_4 H 0.7901 0.8932 0.5971
H15_4 H 0.8208 0.8573 0.5954
H16_4 H 0.8533 0.9203 0.6249
O8_7 O 0.70594(7) 0.74801(7) 0.92135(9)
O9_7 O 0.66606(7) 0.95177(7) 0.97128(8)
O11_7 O 0.79204(8) 0.90914(7) 0.73805(10)
C1_8 C 0.26800(9) 0.87713(13) 0.22436(12)
C2_8 C 0.23962(9) 0.83735(13) 0.28741(12)
C3_8 C 0.18755(9) 0.79027(13) 0.27617(12)
H1_8 H 0.1715 0.7813 0.2278
C4_8 C 0.15935(9) 0.75662(13) 0.33643(12)
C5_8 C 0.10151(10) 0.70837(13) 0.32676(12)
C6_8 C 0.18321(10) 0.76820(13) 0.40782(12)
H2_8 H 0.1632 0.7457 0.4492
C7_8 C 0.23666(10) 0.81335(13) 0.41688(12)
C8_8 C 0.26436(10) 0.84880(13) 0.35737(12)
H3_8 H 0.3001 0.8808 0.3646
C9_8 C 0.24025(11) 0.79072(16) 0.54613(13)
H4_8 H 0.2274 0.7516 0.5317
H5_8 H 0.2077 0.7931 0.5645
C10_8 C 0.28474(12) 0.80974(17) 0.60594(14)
H6_8 H 0.3155 0.8049 0.5882
H7_8 H 0.2687 0.7874 0.6511
H8_8 H 0.2987 0.8492 0.6173
O1_8 O 0.24280(7) 0.86567(10) 0.16254(8)
O2_8 O 0.31503(6) 0.91959(9) 0.23562(8)
O3_8 O 0.06058(8) 0.73829(11) 0.14052(9)
O4_8 O 0.08647(7) 0.68915(10) 0.26089(8)
O6_8 O 0.26557(7) 0.82752(10) 0.48325(8)
O7_8 O 0.22495(7) 0.88893(10) 0.00536(9)
Zn2_8 Zn 0.27938(2) 0.92180(3) 0.08479(2)
H17_8 H 0.0755(10) 0.7286(12) 0.1775(10)
H18_8 H 0.0533(10) 0.7645(11) 0.1558(12)
O12_8 O 0.06211(7) 0.64837(11) 0.09772(8)
O13_8 O 0.35581(10) 0.93601(12) 0.07245(8)
O16_8 O 0.27737(7) 0.98824(12) 0.11533(9)
C11_8 C 0.21779(10) 0.91068(14) 0.94780(13)
C12_8 C 0.16351(9) 0.87721(13) 0.90735(12)
C13_8 C 0.12539(9) 0.82433(13) 0.93248(12)
H9_8 H 0.1328 0.8098 0.9762
C14_8 C 0.07602(9) 0.79274(13) 0.89295(12)
C15_8 C 0.03431(10) 0.73513(14) 0.91833(12)
C16_8 C 0.06502(10) 0.81407(14) 0.82923(12)
H10_8 H 0.0309 0.7927 0.8032
C17_8 C 0.10425(10) 0.86702(14) 0.80364(13)
C18_8 C 0.15310(10) 0.89916(14) 0.84319(13)
H11_8 H 0.1792 0.9358 0.8269
C19_8 C 0.13442(11) 0.93130(17) 0.70092(15)
H12_8 H 0.1692 0.9295 0.6996
H13_8 H 0.1419 0.9658 0.7275
C20_5 C 0.11417(15) 0.93125(23) 0.62268(18)
H14_5 H 0.1068 0.8970 0.5971
H15_5 H 0.1427 0.9636 0.5954
H16_5 H 0.0797 0.9331 0.6249
O8_8 O 0.25199(7) 0.95794(10) 0.92135(9)
O9_8 O 0.04823(7) 0.71430(10) 0.97128(8)
O11_8 O 0.09086(7) 0.88291(11) 0.73805(10)
O15_8 O 0.95794(10) 0.70594(12) 0.07865(9)
O10_8 O 0.98824(7) 0.71088(10) 0.88467(9)
C1_9 C 0.12287(13) 0.39088(9) 0.22436(12)
C2_9 C 0.16265(13) 0.40228(9) 0.28741(12)
C3_9 C 0.20973(13) 0.39729(9) 0.27617(12)
H1_9 H 0.2187 0.3903 0.2278
C4_9 C 0.24338(13) 0.40274(9) 0.33643(12)
C5_9 C 0.29163(13) 0.39315(9) 0.32676(12)
C6_9 C 0.23180(13) 0.41502(9) 0.40782(12)
H2_9 H 0.2543 0.4176 0.4492
C7_9 C 0.18665(13) 0.42332(9) 0.41688(12)
C8_9 C 0.15120(13) 0.41557(9) 0.35737(12)
H3_9 H 0.1192 0.4194 0.3646
C9_9 C 0.20928(16) 0.44954(11) 0.54613(13)
H4_9 H 0.2484 0.4759 0.5317
H5_9 H 0.2069 0.4147 0.5645
C10_9 C 0.19026(17) 0.47501(12) 0.60594(14)
H6_9 H 0.1951 0.5107 0.5882
H7_9 H 0.2126 0.4814 0.6511
H8_9 H 0.1508 0.4496 0.6173
O1_9 O 0.13433(10) 0.37714(7) 0.16254(8)
O2_9 O 0.08041(9) 0.39545(7) 0.23562(8)
O3_9 O 0.26171(11) 0.32230(7) 0.14052(9)
O4_9 O 0.31085(10) 0.39733(7) 0.26089(8)
O6_9 O 0.17248(10) 0.43806(7) 0.48325(8)
O7_9 O 0.11107(10) 0.33603(7) 0.00536(9)
Zn2_9 Zn 0.07820(3) 0.35759(2) 0.08479(2)
H17_9 H 0.2714(12) 0.3470(7) 0.1775(10)
H18_9 H 0.2355(11) 0.2889(5) 0.1558(12)
O12_9 O 0.35163(11) 0.41375(9) 0.09772(8)
O13_9 O 0.06399(12) 0.41981(7) 0.07245(8)
O15_9 O 0.29406(12) 0.25199(7) 0.07865(9)
O16_9 O 0.01176(12) 0.28912(10) 0.11533(9)
C11_9 C 0.08932(14) 0.30712(10) 0.94780(13)
C12_9 C 0.12279(13) 0.28631(9) 0.90735(12)
C13_9 C 0.17567(13) 0.30107(10) 0.93248(12)
H9_9 H 0.1902 0.3231 0.9762
C14_9 C 0.20726(13) 0.28329(9) 0.89295(12)
C15_9 C 0.26487(14) 0.29919(10) 0.91833(12)
C16_9 C 0.18593(14) 0.25096(10) 0.82923(12)
H10_9 H 0.2073 0.2383 0.8032
C17_9 C 0.13298(14) 0.23724(10) 0.80364(13)
C18_9 C 0.10084(14) 0.25395(10) 0.84319(13)
H11_9 H 0.0642 0.2435 0.8269
C19_9 C 0.06870(17) 0.20313(13) 0.70092(15)
H12_9 H 0.0705 0.2398 0.6996
H13_9 H 0.0342 0.1762 0.7275
C20_6 C 0.06875(23) 0.18293(18) 0.62268(18)
H14_6 H 0.1030 0.2099 0.5971
H15_6 H 0.0364 0.1792 0.5954
H16_6 H 0.0669 0.1467 0.6249
O8_9 O 0.04206(10) 0.29406(7) 0.92135(9)
O9_9 O 0.28570(10) 0.33394(7) 0.97128(8)
O10_9 O 0.28912(10) 0.27737(7) 0.88467(9)
O11_9 O 0.11709(11) 0.20796(8) 0.73805(10)
C1_10 C 0.72421(9) 0.93467(9) 0.44231(12)
C2_10 C 0.73561(9) 0.90629(9) 0.37926(12)
C3_10 C 0.73062(9) 0.85422(9) 0.39050(12)
H1_10 H 0.7236 0.8382 0.4389
C4_10 C 0.73607(9) 0.82602(9) 0.33024(12)
C5_10 C 0.72648(9) 0.76818(10) 0.33991(12)
C6_10 C 0.74835(9) 0.84988(10) 0.25885(12)
H2_10 H 0.7509 0.8299 0.2175
C7_10 C 0.75665(9) 0.90333(10) 0.24979(12)
C8_10 C 0.74890(9) 0.93103(10) 0.30930(12)
H3_10 H 0.7527 0.9668 0.3021
C9_10 C 0.78287(11) 0.90692(11) 0.12054(13)
H4_10 H 0.8092 0.8941 0.1350
H5_10 H 0.7480 0.8744 0.1022
C10_10 C 0.80834(12) 0.95141(12) 0.06073(14)
H6_10 H 0.8440 0.9822 0.0785
H7_10 H 0.8147 0.9354 0.0156
H8_10 H 0.7829 0.9654 0.0494
C11_10 C 0.64045(10) 0.88446(10) 0.71887(13)
C12_10 C 0.61964(9) 0.83018(9) 0.75932(12)
C13_10 C 0.63440(10) 0.79206(9) 0.73419(12)
H9_10 H 0.6564 0.7995 0.6905
C14_10 C 0.61662(9) 0.74269(9) 0.77372(12)
C15_10 C 0.63252(10) 0.70098(10) 0.74834(12)
C16_10 C 0.58429(10) 0.73169(10) 0.83744(12)
H10_10 H 0.5716 0.6976 0.8635
C17_10 C 0.57057(10) 0.77092(10) 0.86303(13)
C18_10 C 0.58728(10) 0.81977(10) 0.82348(13)
H11_10 H 0.5768 0.8459 0.8398
C19_10 C 0.53646(13) 0.80109(11) 0.96575(15)
H12_10 H 0.5731 0.8359 0.9671
H13_10 H 0.5095 0.8086 0.9392
O1_10 O 0.71047(7) 0.90947(7) 0.50413(8)
O3_10 O 0.65563(7) 0.72725(8) 0.52615(9)
O5_7 O 0.71502(7) 0.73771(6) 0.28363(8)
O6_10 O 0.77139(7) 0.93224(7) 0.18342(8)
O7_10 O 0.66936(7) 0.89162(7) 0.66131(9)
O9_10 O 0.66727(7) 0.71490(7) 0.69539(8)
O11_10 O 0.54129(8) 0.75753(7) 0.92862(10)
H17_10 H 0.6803(7) 0.7422(10) 0.4892(10)
H18_10 H 0.6222(5) 0.7200(10) 0.5109(12)
O14_4 O 0.68936(9) 0.61831(7) 0.61696(8)
O14_5 O 0.38169(7) 0.07104(11) 0.61696(8)
C1_11 C 0.06533(9) 0.78954(13) 0.44231(12)
C2_11 C 0.09371(9) 0.82932(13) 0.37926(12)
C3_11 C 0.14578(9) 0.87640(13) 0.39050(12)
H1_11 H 0.1618 0.8854 0.4389
C4_11 C 0.17398(9) 0.91005(13) 0.33024(12)
C5_11 C 0.23182(10) 0.95830(13) 0.33991(12)
C6_11 C 0.15012(10) 0.89847(13) 0.25885(12)
H2_11 H 0.1701 0.9210 0.2175
C7_11 C 0.09667(10) 0.85332(13) 0.24979(12)
C8_11 C 0.06897(10) 0.81787(13) 0.30930(12)
H3_11 H 0.0332 0.7859 0.3021
C9_11 C 0.09308(11) 0.87595(16) 0.12054(13)
H4_11 H 0.1059 0.9151 0.1350
H5_11 H 0.1256 0.8736 0.1022
C10_11 C 0.04859(12) 0.85693(17) 0.06073(14)
H6_11 H 0.0178 0.8618 0.0785
H7_11 H 0.0646 0.8793 0.0156
H8_11 H 0.0346 0.8175 0.0494
C11_11 C 0.11554(10) 0.75599(14) 0.71887(13)
C12_11 C 0.16982(9) 0.78946(13) 0.75932(12)
C13_11 C 0.20794(9) 0.84234(13) 0.73419(12)
H9_11 H 0.2005 0.8569 0.6905
C14_11 C 0.25731(9) 0.87393(13) 0.77372(12)
C15_11 C 0.29902(10) 0.93154(14) 0.74834(12)
C16_11 C 0.26831(10) 0.85260(14) 0.83744(12)
H10_11 H 0.3024 0.8740 0.8635
C17_11 C 0.22908(10) 0.79965(14) 0.86303(13)
C18_11 C 0.18023(10) 0.76751(14) 0.82348(13)
H11_11 H 0.1541 0.7309 0.8398
C19_11 C 0.19891(11) 0.73537(17) 0.96575(15)
H12_11 H 0.1641 0.7372 0.9671
H13_11 H 0.1914 0.7009 0.9392
O1_11 O 0.09053(7) 0.80100(10) 0.50413(8)
O3_11 O 0.27275(8) 0.92838(11) 0.52615(9)
O5_8 O 0.26229(6) 0.97731(9) 0.28363(8)
O6_11 O 0.06776(7) 0.83915(10) 0.18342(8)
O7_11 O 0.10838(7) 0.77774(10) 0.66131(9)
O9_11 O 0.28510(7) 0.95237(10) 0.69539(8)
O11_11 O 0.24247(7) 0.78376(11) 0.92862(10)
H17_11 H 0.2578(10) 0.9381(12) 0.4892(10)
H18_11 H 0.2800(10) 0.9022(11) 0.5109(12)
C1_12 C 0.21046(13) 0.27579(9) 0.44231(12)
C2_12 C 0.17068(13) 0.26439(9) 0.37926(12)
C3_12 C 0.12360(13) 0.26938(9) 0.39050(12)
H1_12 H 0.1146 0.2764 0.4389
C4_12 C 0.08995(13) 0.26393(9) 0.33024(12)
C5_12 C 0.04170(13) 0.27352(9) 0.33991(12)
C6_12 C 0.10153(13) 0.25165(9) 0.25885(12)
H2_12 H 0.0790 0.2491 0.2175
C7_12 C 0.14668(13) 0.24335(9) 0.24979(12)
C8_12 C 0.18213(13) 0.25110(9) 0.30930(12)
H3_12 H 0.2141 0.2473 0.3021
C9_12 C 0.12405(16) 0.21713(11) 0.12054(13)
H4_12 H 0.0849 0.1908 0.1350
H5_12 H 0.1264 0.2520 0.1022
C10_12 C 0.14307(17) 0.19166(12) 0.06073(14)
H6_12 H 0.1382 0.1560 0.0785
H7_12 H 0.1207 0.1853 0.0156
H8_12 H 0.1825 0.2171 0.0494
C11_12 C 0.24401(14) 0.35955(10) 0.71887(13)
C12_12 C 0.21054(13) 0.38036(9) 0.75932(12)
C13_12 C 0.15766(13) 0.36560(10) 0.73419(12)
H9_12 H 0.1431 0.3436 0.6905
C14_12 C 0.12607(13) 0.38338(9) 0.77372(12)
C15_12 C 0.06846(14) 0.36748(10) 0.74834(12)
C16_12 C 0.14740(14) 0.41571(10) 0.83744(12)
H10_12 H 0.1260 0.4284 0.8635
C17_12 C 0.20035(14) 0.42943(10) 0.86303(13)
C18_12 C 0.23249(14) 0.41272(10) 0.82348(13)
H11_12 H 0.2691 0.4232 0.8398
C19_12 C 0.26463(17) 0.46354(13) 0.96575(15)
H12_12 H 0.2628 0.4269 0.9671
H13_12 H 0.2991 0.4905 0.9392
O1_12 O 0.19900(10) 0.28953(7) 0.50413(8)
O3_12 O 0.07162(11) 0.34437(7) 0.52615(9)
O5_9 O 0.02269(9) 0.28498(7) 0.28363(8)
O6_12 O 0.16085(10) 0.22861(7) 0.18342(8)
O7_12 O 0.22226(10) 0.33064(7) 0.66131(9)
O9_12 O 0.04763(10) 0.33273(7) 0.69539(8)
O11_12 O 0.21624(11) 0.45871(8) 0.92862(10)
H17_12 H 0.0619(12) 0.3197(7) 0.4892(10)
H18_12 H 0.0978(11) 0.3778(5) 0.5109(12)
O14_6 O 0.92896(11) 0.31064(9) 0.61696(8)
C1_13 C 0.05754(9) 0.60134(9) 0.10898(12)
C2_13 C 0.06894(9) 0.57296(9) 0.04593(12)
C3_13 C 0.06395(9) 0.52089(9) 0.05717(12)
H1_13 H 0.0569 0.5049 0.1056
C5_13 C 0.05981(9) 0.43485(10) 0.00658(12)
O1_13 O 0.04380(7) 0.57614(7) 0.17080(8)
O7_13 O 0.00269(7) 0.55829(7) 0.32798(9)
O9_13 O 0.00060(7) 0.38157(7) 0.36206(8)
H17_13 H 0.0136(7) 0.4089(10) 0.1559(10)
C4_13 C 0.06940(9) 0.49269(9) 0.99691(12)
C6_13 C 0.08168(9) 0.51655(10) 0.92552(12)
H2_13 H 0.0842 0.4966 0.8842
C7_13 C 0.08998(9) 0.57000(10) 0.91646(12)
C8_13 C 0.08223(9) 0.59770(10) 0.97597(12)
H3_13 H 0.0860 0.6335 0.9688
C9_13 C 0.11620(11) 0.57359(11) 0.78721(13)
H4_13 H 0.1425 0.5608 0.8017
H5_13 H 0.0813 0.5411 0.7689
C10_13 C 0.14167(12) 0.61808(12) 0.72740(14)
H6_13 H 0.1773 0.6489 0.7452
H7_13 H 0.1480 0.6021 0.6823
H8_13 H 0.1162 0.6321 0.7161
O5_10 O 0.04835(7) 0.40438(6) 0.95030(8)
O6_13 O 0.10472(7) 0.59891(7) 0.85009(8)
C11_13 C 0.97378(10) 0.55113(10) 0.38554(13)
C12_13 C 0.95297(9) 0.49685(9) 0.42599(12)
C13_13 C 0.96773(10) 0.45873(9) 0.40086(12)
H9_13 H 0.9897 0.4662 0.3572
C14_13 C 0.94995(9) 0.40936(9) 0.44039(12)
C15_13 C 0.96585(10) 0.36765(10) 0.41501(12)
C16_13 C 0.91762(10) 0.39836(10) 0.50411(12)
H10_13 H 0.9049 0.3643 0.5302
C17_13 C 0.90390(10) 0.43759(10) 0.52970(13)
C18_13 C 0.92061(10) 0.48644(10) 0.49015(13)
H11_13 H 0.9101 0.5126 0.5065
C19_13 C 0.86979(13) 0.46776(11) 0.63242(15)
H12_13 H 0.9064 0.5026 0.6338
H13_13 H 0.8428 0.4753 0.6059
C20_7 C 0.84959(18) 0.44751(15) 0.71066(18)
H14_7 H 0.8765 0.4402 0.7363
H15_7 H 0.8458 0.4761 0.7380
H16_7 H 0.8133 0.4131 0.7085
O3_13 O 0.98896(7) 0.39392(8) 0.19282(9)
O11_13 O 0.87462(8) 0.42420(7) 0.59529(10)
H18_13 H 0.9555(5) 0.3867(10) 0.1776(12)
C1_14 C 0.39866(9) 0.45621(13) 0.10898(12)
C2_14 C 0.42704(9) 0.49599(13) 0.04593(12)
C3_14 C 0.47911(9) 0.54307(13) 0.05717(12)
H1_14 H 0.4951 0.5521 0.1056
C5_14 C 0.56515(10) 0.62497(13) 0.00658(12)
C11_14 C 0.44887(10) 0.42266(14) 0.38554(13)
C12_14 C 0.50315(9) 0.45613(13) 0.42599(12)
C13_14 C 0.54127(9) 0.50901(13) 0.40086(12)
H9_14 H 0.5338 0.5236 0.3572
C14_14 C 0.59064(9) 0.54060(13) 0.44039(12)
C15_14 C 0.63235(10) 0.59821(14) 0.41501(12)
C16_14 C 0.60164(10) 0.51927(14) 0.50411(12)
H10_14 H 0.6357 0.5407 0.5302
C17_14 C 0.56241(10) 0.46632(14) 0.52970(13)
C18_14 C 0.51356(10) 0.43418(14) 0.49015(13)
H11_14 H 0.4874 0.3976 0.5065
C19_14 C 0.53224(11) 0.40204(17) 0.63242(15)
H12_14 H 0.4974 0.4039 0.6338
H13_14 H 0.5247 0.3676 0.6059
C20_8 C 0.55249(15) 0.40209(23) 0.71066(18)
H14_8 H 0.5598 0.4364 0.7363
H15_8 H 0.5239 0.3698 0.7380
H16_8 H 0.5869 0.4003 0.7085
O1_14 O 0.42386(7) 0.46767(10) 0.17080(8)
O3_14 O 0.60608(8) 0.59505(11) 0.19282(9)
O7_14 O 0.44171(7) 0.44441(10) 0.32798(9)
O9_14 O 0.61843(7) 0.61904(10) 0.36206(8)
O11_14 O 0.57580(7) 0.45043(11) 0.59529(10)
H17_14 H 0.5911(10) 0.6048(12) 0.1559(10)
H18_14 H 0.6133(10) 0.5689(11) 0.1776(12)
C4_14 C 0.50731(9) 0.57672(13) 0.99691(12)
C6_14 C 0.48345(10) 0.56514(13) 0.92552(12)
H2_14 H 0.5034 0.5877 0.8842
C7_14 C 0.43000(10) 0.51999(13) 0.91646(12)
C8_14 C 0.40230(10) 0.48454(13) 0.97597(12)
H3_14 H 0.3665 0.4526 0.9688
C9_14 C 0.42641(11) 0.54262(16) 0.78721(13)
H4_14 H 0.4392 0.5818 0.8017
H5_14 H 0.4589 0.5403 0.7689
C10_14 C 0.38192(12) 0.52360(17) 0.72740(14)
H6_14 H 0.3511 0.5285 0.7452
H7_14 H 0.3979 0.5460 0.6823
H8_14 H 0.3679 0.4842 0.7161
O5_11 O 0.59562(6) 0.64398(9) 0.95030(8)
O6_14 O 0.40109(7) 0.50582(10) 0.85009(8)
C11_15 C 0.57734(14) 0.02622(10) 0.38554(13)
C12_15 C 0.54387(13) 0.04703(9) 0.42599(12)
C13_15 C 0.49099(13) 0.03227(10) 0.40086(12)
H9_15 H 0.4764 0.0103 0.3572
C14_15 C 0.45940(13) 0.05005(9) 0.44039(12)
C15_15 C 0.40179(14) 0.03415(10) 0.41501(12)
C16_15 C 0.48073(14) 0.08238(10) 0.50411(12)
H10_15 H 0.4593 0.0951 0.5302
C17_15 C 0.53368(14) 0.09610(10) 0.52970(13)
C18_15 C 0.56582(14) 0.07939(10) 0.49015(13)
H11_15 H 0.6024 0.0899 0.5065
C19_15 C 0.59796(17) 0.13021(13) 0.63242(15)
H12_15 H 0.5961 0.0936 0.6338
H13_15 H 0.6324 0.1572 0.6059
C20_9 C 0.59791(23) 0.15041(18) 0.71066(18)
H14_9 H 0.5636 0.1235 0.7363
H15_9 H 0.6302 0.1542 0.7380
H16_9 H 0.5997 0.1867 0.7085
O3_15 O 0.40495(11) 0.01104(7) 0.19282(9)
O11_15 O 0.54957(11) 0.12538(8) 0.59529(10)
H18_15 H 0.4311(11) 0.0445(5) 0.1776(12)
C1_15 C 0.54379(13) 0.94246(9) 0.10898(12)
C2_15 C 0.50401(13) 0.93106(9) 0.04593(12)
C3_15 C 0.45693(13) 0.93605(9) 0.05717(12)
H1_15 H 0.4479 0.9431 0.1056
C5_15 C 0.37503(13) 0.94019(9) 0.00658(12)
O1_15 O 0.53233(10) 0.95620(7) 0.17080(8)
O7_15 O 0.55559(10) 0.99731(7) 0.32798(9)
O9_15 O 0.38096(10) 0.99940(7) 0.36206(8)
H17_15 H 0.3952(12) 0.9864(7) 0.1559(10)
C4_15 C 0.42328(13) 0.93060(9) 0.99691(12)
C6_15 C 0.43486(13) 0.91832(9) 0.92552(12)
H2_15 H 0.4123 0.9158 0.8842
C7_15 C 0.48001(13) 0.91002(9) 0.91646(12)
C8_15 C 0.51546(13) 0.91777(9) 0.97597(12)
H3_15 H 0.5474 0.9140 0.9688
C9_15 C 0.45738(16) 0.88380(11) 0.78721(13)
H4_15 H 0.4182 0.8575 0.8017
H5_15 H 0.4597 0.9187 0.7689
C10_15 C 0.47640(17) 0.85833(12) 0.72740(14)
H6_15 H 0.4715 0.8227 0.7452
H7_15 H 0.4540 0.8520 0.6823
H8_15 H 0.5158 0.8838 0.7161
O5_12 O 0.35602(9) 0.95165(7) 0.95030(8)
O6_15 O 0.49418(10) 0.89528(7) 0.85009(8)
C11_16 C 0.30712(10) 0.21779(10) 0.05220(13)
C12_16 C 0.28631(9) 0.16351(9) 0.09265(12)
C13_16 C 0.30107(10) 0.12539(9) 0.06752(12)
H9_16 H 0.3231 0.1328 0.0238
C14_16 C 0.28329(9) 0.07602(9) 0.10705(12)
C15_16 C 0.29919(10) 0.03431(10) 0.08167(12)
C16_16 C 0.25096(10) 0.06502(10) 0.17077(12)
H10_16 H 0.2383 0.0309 0.1968
C17_16 C 0.23724(10) 0.10425(10) 0.19636(13)
C18_16 C 0.25395(10) 0.15310(10) 0.15681(13)
H11_16 H 0.2435 0.1792 0.1731
C19_16 C 0.20313(13) 0.13442(11) 0.29908(15)
H12_16 H 0.2398 0.1692 0.3004
H13_16 H 0.1762 0.1419 0.2725
C20_10 C 0.18293(18) 0.11417(15) 0.37732(18)
H14_10 H 0.2099 0.1068 0.4029
H15_10 H 0.1792 0.1427 0.4046
H16_10 H 0.1467 0.0797 0.3751
O9_16 O 0.33394(7) 0.04823(7) 0.02872(8)
O11_16 O 0.20796(8) 0.09086(7) 0.26195(10)
C1_16 C 0.39088(9) 0.26800(9) 0.77564(12)
C2_16 C 0.40228(9) 0.23962(9) 0.71259(12)
C3_16 C 0.39729(9) 0.18755(9) 0.72383(12)
H1_16 H 0.3903 0.1715 0.7722
C4_16 C 0.40274(9) 0.15935(9) 0.66357(12)
C5_16 C 0.39315(9) 0.10151(10) 0.67324(12)
C6_16 C 0.41502(9) 0.18321(10) 0.59218(12)
H2_16 H 0.4176 0.1632 0.5508
C7_16 C 0.42332(9) 0.23666(10) 0.58312(12)
C8_16 C 0.41557(9) 0.26436(10) 0.64263(12)
H3_16 H 0.4194 0.3001 0.6354
C9_16 C 0.44954(11) 0.24025(11) 0.45387(13)
H4_16 H 0.4759 0.2274 0.4683
H5_16 H 0.4147 0.2077 0.4355
C10_16 C 0.47501(12) 0.28474(12) 0.39406(14)
H6_16 H 0.5107 0.3155 0.4118
H7_16 H 0.4814 0.2687 0.3489
H8_16 H 0.4496 0.2987 0.3827
O1_16 O 0.37714(7) 0.24280(7) 0.83746(8)
O3_16 O 0.32230(7) 0.06058(8) 0.85948(9)
O6_16 O 0.43806(7) 0.26557(7) 0.51675(8)
O7_16 O 0.33603(7) 0.22495(7) 0.99464(9)
H17_16 H 0.3470(7) 0.0755(10) 0.8225(10)
H18_16 H 0.2889(5) 0.0533(10) 0.8442(12)
C11_17 C 0.78221(10) 0.08932(14) 0.05220(13)
C12_17 C 0.83649(9) 0.12279(13) 0.09265(12)
C13_17 C 0.87461(9) 0.17567(13) 0.06752(12)
H9_17 H 0.8672 0.1902 0.0238
C14_17 C 0.92398(9) 0.20726(13) 0.10705(12)
C15_17 C 0.96569(10) 0.26487(14) 0.08167(12)
C16_17 C 0.93498(10) 0.18593(14) 0.17077(12)
H10_17 H 0.9691 0.2073 0.1968
C17_17 C 0.89575(10) 0.13298(14) 0.19636(13)
C18_17 C 0.84690(10) 0.10084(14) 0.15681(13)
H11_17 H 0.8208 0.0642 0.1731
C19_17 C 0.86558(11) 0.06870(17) 0.29908(15)
H12_17 H 0.8308 0.0705 0.3004
H13_17 H 0.8581 0.0342 0.2725
C20_11 C 0.88583(15) 0.06875(23) 0.37732(18)
H14_11 H 0.8932 0.1030 0.4029
H15_11 H 0.8573 0.0364 0.4046
H16_11 H 0.9203 0.0669 0.3751
O9_17 O 0.95177(7) 0.28570(10) 0.02872(8)
O11_17 O 0.90914(7) 0.11709(11) 0.26195(10)
C1_17 C 0.73200(9) 0.12287(13) 0.77564(12)
C2_17 C 0.76038(9) 0.16265(13) 0.71259(12)
C3_17 C 0.81245(9) 0.20973(13) 0.72383(12)
H1_17 H 0.8285 0.2187 0.7722
C4_17 C 0.84065(9) 0.24338(13) 0.66357(12)
C5_17 C 0.89849(10) 0.29163(13) 0.67324(12)
C6_17 C 0.81679(10) 0.23180(13) 0.59218(12)
H2_17 H 0.8368 0.2543 0.5508
C7_17 C 0.76334(10) 0.18665(13) 0.58312(12)
C8_17 C 0.73564(10) 0.15120(13) 0.64263(12)
H3_17 H 0.6999 0.1192 0.6354
C9_17 C 0.75975(11) 0.20928(16) 0.45387(13)
H4_17 H 0.7726 0.2484 0.4683
H5_17 H 0.7923 0.2069 0.4355
C10_17 C 0.71526(12) 0.19026(17) 0.39406(14)
H6_17 H 0.6845 0.1951 0.4118
H7_17 H 0.7313 0.2126 0.3489
H8_17 H 0.7013 0.1508 0.3827
O1_17 O 0.75720(7) 0.13433(10) 0.83746(8)
O3_17 O 0.93942(8) 0.26171(11) 0.85948(9)
O6_17 O 0.73443(7) 0.17248(10) 0.51675(8)
O7_17 O 0.77505(7) 0.11107(10) 0.99464(9)
H17_17 H 0.9245(10) 0.2714(12) 0.8225(10)
H18_17 H 0.9467(10) 0.2355(11) 0.8442(12)
C11_18 C 0.91068(14) 0.69288(10) 0.05220(13)
C12_18 C 0.87721(13) 0.71369(9) 0.09265(12)
C13_18 C 0.82433(13) 0.69893(10) 0.06752(12)
H9_18 H 0.8098 0.6769 0.0238
C14_18 C 0.79274(13) 0.71671(9) 0.10705(12)
C15_18 C 0.73513(14) 0.70081(10) 0.08167(12)
C16_18 C 0.81407(14) 0.74904(10) 0.17077(12)
H10_18 H 0.7927 0.7617 0.1968
C17_18 C 0.86702(14) 0.76276(10) 0.19636(13)
C18_18 C 0.89916(14) 0.74605(10) 0.15681(13)
H11_18 H 0.9358 0.7565 0.1731
C19_18 C 0.93130(17) 0.79687(13) 0.29908(15)
H12_18 H 0.9295 0.7602 0.3004
H13_18 H 0.9658 0.8238 0.2725
C20_12 C 0.93125(23) 0.81707(18) 0.37732(18)
H14_12 H 0.8970 0.7901 0.4029
H15_12 H 0.9636 0.8208 0.4046
H16_12 H 0.9331 0.8533 0.3751
O9_18 O 0.71430(10) 0.66606(7) 0.02872(8)
O11_18 O 0.88291(11) 0.79204(8) 0.26195(10)
C1_18 C 0.87713(13) 0.60912(9) 0.77564(12)
C2_18 C 0.83735(13) 0.59772(9) 0.71259(12)
C3_18 C 0.79027(13) 0.60271(9) 0.72383(12)
H1_18 H 0.7813 0.6097 0.7722
C4_18 C 0.75662(13) 0.59726(9) 0.66357(12)
C5_18 C 0.70837(13) 0.60685(9) 0.67324(12)
C6_18 C 0.76820(13) 0.58498(9) 0.59218(12)
H2_18 H 0.7457 0.5824 0.5508
C7_18 C 0.81335(13) 0.57668(9) 0.58312(12)
C8_18 C 0.84880(13) 0.58443(9) 0.64263(12)
H3_18 H 0.8808 0.5806 0.6354
C9_18 C 0.79072(16) 0.55046(11) 0.45387(13)
H4_18 H 0.7516 0.5241 0.4683
H5_18 H 0.7931 0.5853 0.4355
C10_18 C 0.80974(17) 0.52499(12) 0.39406(14)
H6_18 H 0.8049 0.4893 0.4118
H7_18 H 0.7874 0.5186 0.3489
H8_18 H 0.8492 0.5504 0.3827
O1_18 O 0.86567(10) 0.62286(7) 0.83746(8)
O3_18 O 0.73829(11) 0.67770(7) 0.85948(9)
O6_18 O 0.82752(10) 0.56194(7) 0.51675(8)
O7_18 O 0.88893(10) 0.66397(7) 0.99464(9)
H17_18 H 0.7286(12) 0.6530(7) 0.8225(10)
H18_18 H 0.7645(11) 0.7111(5) 0.8442(12)
C20_13 C 0.48374(18) 0.21916(15) 0.95601(18)
H14_13 H 0.4568 0.2265 0.9304
H15_13 H 0.4875 0.1906 0.9287
H16_13 H 0.5200 0.2536 0.9582
C20_14 C 0.78084(15) 0.26458(23) 0.95601(18)
H14_14 H 0.7735 0.2303 0.9304
H15_14 H 0.8094 0.2969 0.9287
H16_14 H 0.7464 0.2664 0.9582
C20_15 C 0.73542(23) 0.51626(18) 0.95601(18)
H14_15 H 0.7697 0.5432 0.9304
H15_15 H 0.7031 0.5125 0.9287
H16_15 H 0.7336 0.4800 0.9582
C20_16 C 0.51626(18) 0.78084(15) 0.04399(18)
H14_16 H 0.5432 0.7735 0.0696
H15_16 H 0.5125 0.8094 0.0713
H16_16 H 0.4800 0.7464 0.0418
C20_17 C 0.21916(15) 0.73542(23) 0.04399(18)
H14_17 H 0.2265 0.7697 0.0696
H15_17 H 0.1906 0.7031 0.0713
H16_17 H 0.2536 0.7336 0.0418
C20_18 C 0.26458(23) 0.48374(18) 0.04399(18)
H14_18 H 0.2303 0.4568 0.0696
H15_18 H 0.2969 0.4875 0.0713
H16_18 H 0.2664 0.5200 0.0418
loop_
_geom_bond_atom_site_label_1
_geom_bond_atom_site_label_2
_geom_bond_site_symmetry_1
_geom_bond_site_symmetry_2
C1 C2 1_555 1_555
C2 C3 1_555 1_555
C3 H1 1_555 1_555
C4 C3 1_555 1_555
C5 C4 1_555 1_555
C6 C4 1_555 1_555
H2 C6 1_555 1_555
C7 C6 1_555 1_555
C8 C2 1_555 1_555
H3 C8 1_555 1_555
C9 H4 1_555 1_555
H5 C9 1_555 1_555
C10 C9 1_555 1_555
H6 C10 1_555 1_555
H7 C10 1_555 1_555
H8 C10 1_555 1_555
C11 C12 1_555 1_555
C12 C13 1_555 1_555
C13 H9 1_555 1_555
C14 C13 1_555 1_555
C15 C14 1_555 1_555
C16 C14 1_555 1_555
H10 C16 1_555 1_555
C17 C16 1_555 1_555
C18 C12 1_555 1_555
H11 C18 1_555 1_555
C19 H12 1_555 1_555
H13 C19 1_555 1_555
O1 C1 1_555 1_555
O2 C1 1_555 1_555
O3 Zn1 1_555 1_555
O4 C5 1_555 1_555
O5 C5 1_555 1_555
O6 C7 1_555 1_555
O7 C11 1_555 1_555
O8 C11 1_555 1_555
O9 C15 1_555 1_555
O10 C15 1_555 1_555
O11 C17 1_555 1_555
Zn1 O9 1_555 1_555
Zn2 O1 1_555 1_555
H17 O3 1_555 1_555
H18 O3 1_555 1_555
O12 Zn1 1_555 1_555
O14 Zn1 1_555 1_555
O15 Zn1 1_555 1_555
O16 Zn2 1_555 1_555
Zn3 O5 1_555 1_555
Zn6 O4 1_555 1_555
Zn7 O10 1_555 1_555
C7 C8 1_555 1_555
C9 O6 1_555 1_555
C17 C18 1_555 1_555
C19 O11 1_555 1_555
O7 Zn2 1_555 1_555
C1_2 C2_2 1_555 1_555
C2_2 C3_2 1_555 1_555
C3_2 H1_2 1_555 1_555
C4_2 C3_2 1_555 1_555
C5_2 C4_2 1_555 1_555
C6_2 C4_2 1_555 1_555
H2_2 C6_2 1_555 1_555
C7_2 C6_2 1_555 1_555
C8_2 C2_2 1_555 1_555
H3_2 C8_2 1_555 1_555
C9_2 H4_2 1_555 1_555
H5_2 C9_2 1_555 1_555
C10_2 C9_2 1_555 1_555
H6_2 C10_2 1_555 1_555
H7_2 C10_2 1_555 1_555
H8_2 C10_2 1_555 1_555
C11_2 C12_2 1_555 1_555
C12_2 C13_2 1_555 1_555
C13_2 H9_2 1_555 1_555
C14_2 C13_2 1_555 1_555
C15_2 C14_2 1_555 1_555
C16_2 C14_2 1_555 1_555
H10_2 C16_2 1_555 1_555
C17_2 C16_2 1_555 1_555
C18_2 C12_2 1_555 1_555
H11_2 C18_2 1_555 1_555
C19_2 H12_2 1_555 1_555
H13_2 C19_2 1_555 1_555
O1_2 C1_2 1_555 1_555
O2_2 C1_2 1_555 1_555
O3_2 Zn1_2 1_555 1_555
O4_2 C5_2 1_555 1_555
O5_2 C5_2 1_555 1_555
O6_2 C7_2 1_555 1_555
O7_2 C11_2 1_555 1_555
O8_2 C11_2 1_555 1_555
O9_2 C15_2 1_555 1_555
O10_2 C15_2 1_555 1_555
O11_2 C17_2 1_555 1_555
Zn1_2 O9_2 1_555 1_555
Zn2_2 O1_2 1_555 1_555
H17_2 O3_2 1_555 1_555
H18_2 O3_2 1_555 1_555
O15_2 Zn1_2 1_555 1_555
O16_2 Zn2_2 1_555 1_555
Zn3_2 O5_2 1_555 1_555
C7_2 C8_2 1_555 1_555
C9_2 O6_2 1_555 1_555
C17_2 C18_2 1_555 1_555
C19_2 O11_2 1_555 1_555
O7_2 Zn2_2 1_555 1_555
C1_3 C2_3 1_555 1_555
C2_3 C3_3 1_555 1_555
C3_3 H1_3 1_555 1_555
C4_3 C3_3 1_555 1_555
C5_3 C4_3 1_555 1_555
C6_3 C4_3 1_555 1_555
H2_3 C6_3 1_555 1_555
C7_3 C6_3 1_555 1_555
C8_3 C2_3 1_555 1_555
H3_3 C8_3 1_555 1_555
C9_3 H4_3 1_555 1_555
H5_3 C9_3 1_555 1_555
C10_3 C9_3 1_555 1_555
H6_3 C10_3 1_555 1_555
H7_3 C10_3 1_555 1_555
H8_3 C10_3 1_555 1_555
C11_3 C12_3 1_555 1_555
C12_3 C13_3 1_555 1_555
C13_3 H9_3 1_555 1_555
C14_3 C13_3 1_555 1_555
C15_3 C14_3 1_555 1_555
C16_3 C14_3 1_555 1_555
H10_3 C16_3 1_555 1_555
C17_3 C16_3 1_555 1_555
C18_3 C12_3 1_555 1_555
H11_3 C18_3 1_555 1_555
C19_3 H12_3 1_555 1_555
H13_3 C19_3 1_555 1_555
O1_3 C1_3 1_555 1_555
O2_3 C1_3 1_555 1_555
O3_3 Zn1_3 1_555 1_555
O4_3 C5_3 1_555 1_555
O5_3 C5_3 1_555 1_555
O6_3 C7_3 1_555 1_555
O7_3 C11_3 1_555 1_555
O8_3 C11_3 1_555 1_555
O9_3 C15_3 1_555 1_555
O10_3 C15_3 1_555 1_555
O11_3 C17_3 1_555 1_555
Zn1_3 O9_3 1_555 1_555
Zn2_3 O1_3 1_555 1_555
H17_3 O3_3 1_555 1_555
H18_3 O3_3 1_555 1_555
O13_3 Zn2_3 1_555 1_555
O15_3 Zn1_3 1_555 1_555
O16_3 Zn2_3 1_555 1_555
Zn3_3 O5_3 1_555 1_555
Zn4_3 O2_3 1_555 1_555
Zn5_3 O8_3 1_555 1_555
C7_3 C8_3 1_555 1_555
C9_3 O6_3 1_555 1_555
C17_3 C18_3 1_555 1_555
C19_3 O11_3 1_555 1_555
O7_3 Zn2_3 1_555 1_555
C11_4 C12_4 1_555 1_555
C12_4 C13_4 1_555 1_555
C13_4 H9_4 1_555 1_555
C14_4 C13_4 1_555 1_555
C15_4 C14_4 1_555 1_555
C16_4 C14_4 1_555 1_555
H10_4 C16_4 1_555 1_555
C17_4 C16_4 1_555 1_555
C18_4 C12_4 1_555 1_555
H11_4 C18_4 1_555 1_555
C19_4 H12_4 1_555 1_555
H13_4 C19_4 1_555 1_555
C20 C19_4 1_555 1_555
H14 C20 1_555 1_555
H15 C20 1_555 1_555
H16 C20 1_555 1_555
O8_4 C11_4 1_555 1_555
O10_4 C15_4 1_555 1_555
O11_4 C17_4 1_555 1_555
H18_4 O3_4 1_555 1_555
Zn4_2 O8_4 1_555 1_555
Zn6_3 O10_4 1_555 1_555
C17_4 C18_4 1_555 1_555
C19_4 O11_4 1_555 1_555
C6_4 C4_4 1_555 1_555
H2_4 C6_4 1_555 1_555
C7_4 C6_4 1_555 1_555
H3_4 C8_4 1_555 1_555
C9_4 H4_4 1_555 1_555
H5_4 C9_4 1_555 1_555
C10_4 C9_4 1_555 1_555
H6_4 C10_4 1_555 1_555
H7_4 C10_4 1_555 1_555
H8_4 C10_4 1_555 1_555
O6_4 C7_4 1_555 1_555
C7_4 C8_4 1_555 1_555
C9_4 O6_4 1_555 1_555
C1_4 C2_4 1_555 1_555
C2_4 C3_4 1_555 1_555
C3_4 H1_4 1_555 1_555
O1_4 C1_4 1_555 1_555
O2_4 C1_4 1_555 1_555
O4_4 C5_4 1_555 1_555
Zn3_3 O9_4 1_555 1_555
Zn2_4 O1_4 1_555 1_555
O12_4 Zn3_3 1_555 1_555
O13_4 Zn2_4 1_555 1_555
Zn4_4 O2_4 1_555 1_555
Zn6_4 O4_4 1_555 1_555
O7_4 Zn2_4 1_555 1_555
C6_5 C4_5 1_555 1_555
H2_5 C6_5 1_555 1_555
C7_5 C6_5 1_555 1_555
H3_5 C8_5 1_555 1_555
C9_5 H4_5 1_555 1_555
H5_5 C9_5 1_555 1_555
C10_5 C9_5 1_555 1_555
H6_5 C10_5 1_555 1_555
H7_5 C10_5 1_555 1_555
H8_5 C10_5 1_555 1_555
O6_5 C7_5 1_555 1_555
Zn3_5 O5_5 1_555 1_555
C7_5 C8_5 1_555 1_555
C9_5 O6_5 1_555 1_555
C1_5 C2_5 1_555 1_555
C2_5 C3_5 1_555 1_555
C3_5 H1_5 1_555 1_555
C11_5 C12_5 1_555 1_555
C12_5 C13_5 1_555 1_555
C13_5 H9_5 1_555 1_555
C14_5 C13_5 1_555 1_555
C15_5 C14_5 1_555 1_555
C16_5 C14_5 1_555 1_555
H10_5 C16_5 1_555 1_555
C17_5 C16_5 1_555 1_555
C18_5 C12_5 1_555 1_555
H11_5 C18_5 1_555 1_555
C19_5 H12_5 1_555 1_555
H13_5 C19_5 1_555 1_555
C20_2 C19_5 1_555 1_555
H14_2 C20_2 1_555 1_555
H15_2 C20_2 1_555 1_555
H16_2 C20_2 1_555 1_555
O1_5 C1_5 1_555 1_555
O2_5 C1_5 1_555 1_555
O3_5 Zn3 1_555 1_555
O4_5 C5_5 1_555 1_555
O7_5 C11_5 1_555 1_555
O8_5 C11_5 1_555 1_555
O9_5 C15_5 1_555 1_555
O10_5 C15_5 1_555 1_555
O11_5 C17_5 1_555 1_555
Zn3 O9_5 1_555 1_555
Zn2_5 O1_5 1_555 1_555
H17_5 O3_5 1_555 1_555
H18_5 O3_5 1_555 1_555
O12_5 Zn3 1_555 1_555
O13_5 Zn2_5 1_555 1_555
O15_5 Zn3 1_555 1_555
O16_5 Zn2_5 1_555 1_555
Zn4_5 O2_5 1_555 1_555
Zn4_3 O8_5 1_555 1_555
Zn6_5 O4_5 1_555 1_555
Zn6 O10_5 1_555 1_555
C17_5 C18_5 1_555 1_555
C19_5 O11_5 1_555 1_555
O7_5 Zn2_5 1_555 1_555
C6_6 C4_6 1_555 1_555
H2_6 C6_6 1_555 1_555
C7_6 C6_6 1_555 1_555
H3_6 C8_6 1_555 1_555
C9_6 H4_6 1_555 1_555
H5_6 C9_6 1_555 1_555
C10_6 C9_6 1_555 1_555
H6_6 C10_6 1_555 1_555
H7_6 C10_6 1_555 1_555
H8_6 C10_6 1_555 1_555
O6_6 C7_6 1_555 1_555
C7_6 C8_6 1_555 1_555
C9_6 O6_6 1_555 1_555
C1_6 C2_6 1_555 1_555
C2_6 C3_6 1_555 1_555
C3_6 H1_6 1_555 1_555
O1_6 C1_6 1_555 1_555
O2_6 C1_6 1_555 1_555
O4_6 C5_6 1_555 1_555
Zn3_2 O9_6 1_555 1_555
Zn2_6 O1_6 1_555 1_555
O12_6 Zn3_2 1_555 1_555
O13_6 Zn2_6 1_555 1_555
Zn4_6 O2_6 1_555 1_555
Zn6_6 O4_6 1_555 1_555
O7_6 Zn2_6 1_555 1_555
C11_6 C12_6 1_555 1_555
C12_6 C13_6 1_555 1_555
C13_6 H9_6 1_555 1_555
C14_6 C13_6 1_555 1_555
C15_6 C14_6 1_555 1_555
C16_6 C14_6 1_555 1_555
H10_6 C16_6 1_555 1_555
C17_6 C16_6 1_555 1_555
C18_6 C12_6 1_555 1_555
H11_6 C18_6 1_555 1_555
C19_6 H12_6 1_555 1_555
H13_6 C19_6 1_555 1_555
C20_3 C19_6 1_555 1_555
H14_3 C20_3 1_555 1_555
H15_3 C20_3 1_555 1_555
H16_3 C20_3 1_555 1_555
O8_6 C11_6 1_555 1_555
O10_6 C15_6 1_555 1_555
O11_6 C17_6 1_555 1_555
H18_6 O3_6 1_555 1_555
Zn4 O8_6 1_555 1_555
Zn6_2 O10_6 1_555 1_555
C17_6 C18_6 1_555 1_555
C19_6 O11_6 1_555 1_555
Zn6_6 O10_7 1_555 1_555
C1_7 C2_7 1_555 1_555
C2_7 C3_7 1_555 1_555
C3_7 H1_7 1_555 1_555
C4_7 C3_7 1_555 1_555
C5_7 C4_7 1_555 1_555
C6_7 C4_7 1_555 1_555
H2_7 C6_7 1_555 1_555
C7_7 C6_7 1_555 1_555
C8_7 C2_7 1_555 1_555
H3_7 C8_7 1_555 1_555
C9_7 H4_7 1_555 1_555
H5_7 C9_7 1_555 1_555
C10_7 C9_7 1_555 1_555
H6_7 C10_7 1_555 1_555
H7_7 C10_7 1_555 1_555
H8_7 C10_7 1_555 1_555
O1_7 C1_7 1_555 1_555
O2_7 C1_7 1_555 1_555
O3_7 Zn3_6 1_555 1_555
O4_7 C5_7 1_555 1_555
O14_2 C5_7 1_555 1_555
O6_7 C7_7 1_555 1_555
Zn2_7 O1_7 1_555 1_555
H17_7 O3_7 1_555 1_555
H18_7 O3_7 1_555 1_555
O12_7 Zn3_6 1_555 1_555
O13_7 Zn2_7 1_555 1_555
O16_7 Zn2_7 1_555 1_555
Zn5_3 O2_7 1_555 1_555
Zn7_2 O4_7 1_555 1_555
C7_7 C8_7 1_555 1_555
C9_7 O6_7 1_555 1_555
O7_7 Zn2_7 1_555 1_555
C11_7 C12_7 1_555 1_555
C12_7 C13_7 1_555 1_555
C13_7 H9_7 1_555 1_555
C14_7 C13_7 1_555 1_555
C15_7 C14_7 1_555 1_555
C16_7 C14_7 1_555 1_555
H10_7 C16_7 1_555 1_555
C17_7 C16_7 1_555 1_555
C18_7 C12_7 1_555 1_555
H11_7 C18_7 1_555 1_555
C19_7 H12_7 1_555 1_555
H13_7 C19_7 1_555 1_555
C20_4 C19_7 1_555 1_555
H14_4 C20_4 1_555 1_555
H15_4 C20_4 1_555 1_555
H16_4 C20_4 1_555 1_555
O8_7 C11_7 1_555 1_555
O9_7 C15_7 1_555 1_555
O11_7 C17_7 1_555 1_555
Zn4_5 O8_7 1_555 1_555
C17_7 C18_7 1_555 1_555
C19_7 O11_7 1_555 1_555
C1_8 C2_8 1_555 1_555
C2_8 C3_8 1_555 1_555
C3_8 H1_8 1_555 1_555
C4_8 C3_8 1_555 1_555
C5_8 C4_8 1_555 1_555
C6_8 C4_8 1_555 1_555
H2_8 C6_8 1_555 1_555
C7_8 C6_8 1_555 1_555
C8_8 C2_8 1_555 1_555
H3_8 C8_8 1_555 1_555
C9_8 H4_8 1_555 1_555
H5_8 C9_8 1_555 1_555
C10_8 C9_8 1_555 1_555
H6_8 C10_8 1_555 1_555
H7_8 C10_8 1_555 1_555
H8_8 C10_8 1_555 1_555
O1_8 C1_8 1_555 1_555
O2_8 C1_8 1_555 1_555
O3_8 Zn3_4 1_555 1_555
O4_8 C5_8 1_555 1_555
O14_3 C5_8 1_555 1_555
O6_8 C7_8 1_555 1_555
Zn2_8 O1_8 1_555 1_555
H17_8 O3_8 1_555 1_555
H18_8 O3_8 1_555 1_555
O12_8 Zn3_4 1_555 1_555
O13_8 Zn2_8 1_555 1_555
O16_8 Zn2_8 1_555 1_555
Zn5 O2_8 1_555 1_555
Zn7_3 O4_8 1_555 1_555
C7_8 C8_8 1_555 1_555
C9_8 O6_8 1_555 1_555
O7_8 Zn2_8 1_555 1_555
C11_8 C12_8 1_555 1_555
C12_8 C13_8 1_555 1_555
C13_8 H9_8 1_555 1_555
C14_8 C13_8 1_555 1_555
C15_8 C14_8 1_555 1_555
C16_8 C14_8 1_555 1_555
H10_8 C16_8 1_555 1_555
C17_8 C16_8 1_555 1_555
C18_8 C12_8 1_555 1_555
H11_8 C18_8 1_555 1_555
C19_8 H12_8 1_555 1_555
H13_8 C19_8 1_555 1_555
C20_5 C19_8 1_555 1_555
H14_5 C20_5 1_555 1_555
H15_5 C20_5 1_555 1_555
H16_5 C20_5 1_555 1_555
O8_8 C11_8 1_555 1_555
O9_8 C15_8 1_555 1_555
O11_8 C17_8 1_555 1_555
C17_8 C18_8 1_555 1_555
C19_8 O11_8 1_555 1_555
Zn6_4 O10_8 1_555 1_555
C1_9 C2_9 1_555 1_555
C2_9 C3_9 1_555 1_555
C3_9 H1_9 1_555 1_555
C4_9 C3_9 1_555 1_555
C5_9 C4_9 1_555 1_555
C6_9 C4_9 1_555 1_555
H2_9 C6_9 1_555 1_555
C7_9 C6_9 1_555 1_555
C8_9 C2_9 1_555 1_555
H3_9 C8_9 1_555 1_555
C9_9 H4_9 1_555 1_555
H5_9 C9_9 1_555 1_555
C10_9 C9_9 1_555 1_555
H6_9 C10_9 1_555 1_555
H7_9 C10_9 1_555 1_555
H8_9 C10_9 1_555 1_555
O1_9 C1_9 1_555 1_555
O2_9 C1_9 1_555 1_555
O3_9 Zn3_5 1_555 1_555
O4_9 C5_9 1_555 1_555
O14 C5_9 1_555 1_555
O6_9 C7_9 1_555 1_555
Zn2_9 O1_9 1_555 1_555
H17_9 O3_9 1_555 1_555
H18_9 O3_9 1_555 1_555
O12_9 Zn3_5 1_555 1_555
O13_9 Zn2_9 1_555 1_555
O15_9 Zn3_5 1_555 1_555
O16_9 Zn2_9 1_555 1_555
Zn5_2 O2_9 1_555 1_555
Zn7 O4_9 1_555 1_555
C7_9 C8_9 1_555 1_555
C9_9 O6_9 1_555 1_555
O7_9 Zn2_9 1_555 1_555
C11_9 C12_9 1_555 1_555
C12_9 C13_9 1_555 1_555
C13_9 H9_9 1_555 1_555
C14_9 C13_9 1_555 1_555
C15_9 C14_9 1_555 1_555
C16_9 C14_9 1_555 1_555
H10_9 C16_9 1_555 1_555
C17_9 C16_9 1_555 1_555
C18_9 C12_9 1_555 1_555
H11_9 C18_9 1_555 1_555
C19_9 H12_9 1_555 1_555
H13_9 C19_9 1_555 1_555
C20_6 C19_9 1_555 1_555
H14_6 C20_6 1_555 1_555
H15_6 C20_6 1_555 1_555
H16_6 C20_6 1_555 1_555
O8_9 C11_9 1_555 1_555
O9_9 C15_9 1_555 1_555
O10_9 C15_9 1_555 1_555
O11_9 C17_9 1_555 1_555
Zn6_5 O10_9 1_555 1_555
C17_9 C18_9 1_555 1_555
C19_9 O11_9 1_555 1_555
C1_10 C2_10 1_555 1_555
C2_10 C3_10 1_555 1_555
C3_10 H1_10 1_555 1_555
C4_10 C3_10 1_555 1_555
C5_10 C4_10 1_555 1_555
C6_10 C4_10 1_555 1_555
H2_10 C6_10 1_555 1_555
C7_10 C6_10 1_555 1_555
C8_10 C2_10 1_555 1_555
H3_10 C8_10 1_555 1_555
C9_10 H4_10 1_555 1_555
H5_10 C9_10 1_555 1_555
C10_10 C9_10 1_555 1_555
H6_10 C10_10 1_555 1_555
H7_10 C10_10 1_555 1_555
H8_10 C10_10 1_555 1_555
C11_10 C12_10 1_555 1_555
C12_10 C13_10 1_555 1_555
C13_10 H9_10 1_555 1_555
C14_10 C13_10 1_555 1_555
C15_10 C14_10 1_555 1_555
C16_10 C14_10 1_555 1_555
H10_10 C16_10 1_555 1_555
C17_10 C16_10 1_555 1_555
C18_10 C12_10 1_555 1_555
H11_10 C18_10 1_555 1_555
C19_10 H12_10 1_555 1_555
H13_10 C19_10 1_555 1_555
O1_10 C1_10 1_555 1_555
O12_2 C1_10 1_555 1_555
O3_10 Zn4_3 1_555 1_555
O13_3 C5_10 1_555 1_555
O5_7 C5_10 1_555 1_555
O6_10 C7_10 1_555 1_555
O7_10 C11_10 1_555 1_555
O15_6 C11_10 1_555 1_555
O9_10 C15_10 1_555 1_555
O16_5 C15_10 1_555 1_555
O11_10 C17_10 1_555 1_555
Zn4_3 O9_10 1_555 1_555
Zn6_2 O1_10 1_555 1_555
H17_10 O3_10 1_555 1_555
H18_10 O3_10 1_555 1_555
O14_4 Zn4_3 1_555 1_555
Zn5_3 O5_7 1_555 1_555
C7_10 C8_10 1_555 1_555
C9_10 O6_10 1_555 1_555
C17_10 C18_10 1_555 1_555
C19_10 O11_10 1_555 1_555
O7_10 Zn6_2 1_555 1_555
C1_11 C2_11 1_555 1_555
C2_11 C3_11 1_555 1_555
C3_11 H1_11 1_555 1_555
C4_11 C3_11 1_555 1_555
C5_11 C4_11 1_555 1_555
C6_11 C4_11 1_555 1_555
H2_11 C6_11 1_555 1_555
C7_11 C6_11 1_555 1_555
C8_11 C2_11 1_555 1_555
H3_11 C8_11 1_555 1_555
C9_11 H4_11 1_555 1_555
H5_11 C9_11 1_555 1_555
C10_11 C9_11 1_555 1_555
H6_11 C10_11 1_555 1_555
H7_11 C10_11 1_555 1_555
H8_11 C10_11 1_555 1_555
C11_11 C12_11 1_555 1_555
C12_11 C13_11 1_555 1_555
C13_11 H9_11 1_555 1_555
C14_11 C13_11 1_555 1_555
C15_11 C14_11 1_555 1_555
C16_11 C14_11 1_555 1_555
H10_11 C16_11 1_555 1_555
C17_11 C16_11 1_555 1_555
C18_11 C12_11 1_555 1_555
H11_11 C18_11 1_555 1_555
C19_11 H12_11 1_555 1_555
H13_11 C19_11 1_555 1_555
O1_11 C1_11 1_555 1_555
O12_3 C1_11 1_555 1_555
O3_11 Zn4 1_555 1_555
O13 C5_11 1_555 1_555
O5_8 C5_11 1_555 1_555
O6_11 C7_11 1_555 1_555
O7_11 C11_11 1_555 1_555
O15_4 C11_11 1_555 1_555
O9_11 C15_11 1_555 1_555
O16_6 C15_11 1_555 1_555
O11_11 C17_11 1_555 1_555
Zn4 O9_11 1_555 1_555
Zn6_3 O1_11 1_555 1_555
H17_11 O3_11 1_555 1_555
H18_11 O3_11 1_555 1_555
Zn5 O5_8 1_555 1_555
C7_11 C8_11 1_555 1_555
C9_11 O6_11 1_555 1_555
C17_11 C18_11 1_555 1_555
C19_11 O11_11 1_555 1_555
O7_11 Zn6_3 1_555 1_555
C1_12 C2_12 1_555 1_555
C2_12 C3_12 1_555 1_555
C3_12 H1_12 1_555 1_555
C4_12 C3_12 1_555 1_555
C5_12 C4_12 1_555 1_555
C6_12 C4_12 1_555 1_555
H2_12 C6_12 1_555 1_555
C7_12 C6_12 1_555 1_555
C8_12 C2_12 1_555 1_555
H3_12 C8_12 1_555 1_555
C9_12 H4_12 1_555 1_555
H5_12 C9_12 1_555 1_555
C10_12 C9_12 1_555 1_555
H6_12 C10_12 1_555 1_555
H7_12 C10_12 1_555 1_555
H8_12 C10_12 1_555 1_555
C11_12 C12_12 1_555 1_555
C12_12 C13_12 1_555 1_555
C13_12 H9_12 1_555 1_555
C14_12 C13_12 1_555 1_555
C15_12 C14_12 1_555 1_555
C16_12 C14_12 1_555 1_555
H10_12 C16_12 1_555 1_555
C17_12 C16_12 1_555 1_555
C18_12 C12_12 1_555 1_555
H11_12 C18_12 1_555 1_555
C19_12 H12_12 1_555 1_555
H13_12 C19_12 1_555 1_555
O1_12 C1_12 1_555 1_555
O12 C1_12 1_555 1_555
O3_12 Zn4_2 1_555 1_555
O13_2 C5_12 1_555 1_555
O5_9 C5_12 1_555 1_555
O6_12 C7_12 1_555 1_555
O7_12 C11_12 1_555 1_555
O15_5 C11_12 1_555 1_555
O9_12 C15_12 1_555 1_555
O16_4 C15_12 1_555 1_555
O11_12 C17_12 1_555 1_555
Zn4_2 O9_12 1_555 1_555
Zn6 O1_12 1_555 1_555
H17_12 O3_12 1_555 1_555
H18_12 O3_12 1_555 1_555
Zn5_2 O5_9 1_555 1_555
C7_12 C8_12 1_555 1_555
C9_12 O6_12 1_555 1_555
C17_12 C18_12 1_555 1_555
C19_12 O11_12 1_555 1_555
O7_12 Zn6 1_555 1_555
C1_13 C2_13 1_555 1_555
C2_13 C3_13 1_555 1_555
C3_13 H1_13 1_555 1_555
O1_13 C1_13 1_555 1_555
O12_8 C1_13 1_555 1_555
O13_9 C5_13 1_555 1_555
Zn5_2 O9_13 1_555 1_555
Zn7_3 O1_13 1_555 1_555
O7_13 Zn7_3 1_555 1_555
C6_13 C4_13 1_555 1_555
H2_13 C6_13 1_555 1_555
C7_13 C6_13 1_555 1_555
H3_13 C8_13 1_555 1_555
C9_13 H4_13 1_555 1_555
H5_13 C9_13 1_555 1_555
C10_13 C9_13 1_555 1_555
H6_13 C10_13 1_555 1_555
H7_13 C10_13 1_555 1_555
H8_13 C10_13 1_555 1_555
O6_13 C7_13 1_555 1_555
C7_13 C8_13 1_555 1_555
C9_13 O6_13 1_555 1_555
C11_13 C12_13 1_555 1_555
C12_13 C13_13 1_555 1_555
C13_13 H9_13 1_555 1_555
C14_13 C13_13 1_555 1_555
C15_13 C14_13 1_555 1_555
C16_13 C14_13 1_555 1_555
H10_13 C16_13 1_555 1_555
C17_13 C16_13 1_555 1_555
C18_13 C12_13 1_555 1_555
H11_13 C18_13 1_555 1_555
C19_13 H12_13 1_555 1_555
H13_13 C19_13 1_555 1_555
C20_7 C19_13 1_555 1_555
H14_7 C20_7 1_555 1_555
H15_7 C20_7 1_555 1_555
H16_7 C20_7 1_555 1_555
O15_3 C11_13 1_555 1_555
O16_2 C15_13 1_555 1_555
O11_13 C17_13 1_555 1_555
H18_13 O3_13 1_555 1_555
C17_13 C18_13 1_555 1_555
C19_13 O11_13 1_555 1_555
C1_14 C2_14 1_555 1_555
C2_14 C3_14 1_555 1_555
C3_14 H1_14 1_555 1_555
C11_14 C12_14 1_555 1_555
C12_14 C13_14 1_555 1_555
C13_14 H9_14 1_555 1_555
C14_14 C13_14 1_555 1_555
C15_14 C14_14 1_555 1_555
C16_14 C14_14 1_555 1_555
H10_14 C16_14 1_555 1_555
C17_14 C16_14 1_555 1_555
C18_14 C12_14 1_555 1_555
H11_14 C18_14 1_555 1_555
C19_14 H12_14 1_555 1_555
H13_14 C19_14 1_555 1_555
C20_8 C19_14 1_555 1_555
H14_8 C20_8 1_555 1_555
H15_8 C20_8 1_555 1_555
H16_8 C20_8 1_555 1_555
O1_14 C1_14 1_555 1_555
O12_9 C1_14 1_555 1_555
O3_14 Zn5_3 1_555 1_555
O13_7 C5_14 1_555 1_555
O7_14 C11_14 1_555 1_555
O15 C11_14 1_555 1_555
O9_14 C15_14 1_555 1_555
O16_3 C15_14 1_555 1_555
O11_14 C17_14 1_555 1_555
Zn5_3 O9_14 1_555 1_555
Zn7 O1_14 1_555 1_555
H17_14 O3_14 1_555 1_555
H18_14 O3_14 1_555 1_555
C17_14 C18_14 1_555 1_555
C19_14 O11_14 1_555 1_555
O7_14 Zn7 1_555 1_555
C6_14 C4_14 1_555 1_555
H2_14 C6_14 1_555 1_555
C7_14 C6_14 1_555 1_555
H3_14 C8_14 1_555 1_555
C9_14 H4_14 1_555 1_555
H5_14 C9_14 1_555 1_555
C10_14 C9_14 1_555 1_555
H6_14 C10_14 1_555 1_555
H7_14 C10_14 1_555 1_555
H8_14 C10_14 1_555 1_555
O6_14 C7_14 1_555 1_555
Zn4_5 O5_11 1_555 1_555
C7_14 C8_14 1_555 1_555
C9_14 O6_14 1_555 1_555
C11_15 C12_15 1_555 1_555
C12_15 C13_15 1_555 1_555
C13_15 H9_15 1_555 1_555
C14_15 C13_15 1_555 1_555
C15_15 C14_15 1_555 1_555
C16_15 C14_15 1_555 1_555
H10_15 C16_15 1_555 1_555
C17_15 C16_15 1_555 1_555
C18_15 C12_15 1_555 1_555
H11_15 C18_15 1_555 1_555
C19_15 H12_15 1_555 1_555
H13_15 C19_15 1_555 1_555
C20_9 C19_15 1_555 1_555
H14_9 C20_9 1_555 1_555
H15_9 C20_9 1_555 1_555
H16_9 C20_9 1_555 1_555
O15_2 C11_15 1_555 1_555
O16 C15_15 1_555 1_555
O11_15 C17_15 1_555 1_555
H18_15 O3_15 1_555 1_555
C17_15 C18_15 1_555 1_555
C19_15 O11_15 1_555 1_555
C1_15 C2_15 1_555 1_555
C2_15 C3_15 1_555 1_555
C3_15 H1_15 1_555 1_555
O1_15 C1_15 1_555 1_555
O12_7 C1_15 1_555 1_555
O13_8 C5_15 1_555 1_555
Zn5 O9_15 1_555 1_555
Zn7_2 O1_15 1_555 1_555
O7_15 Zn7_2 1_555 1_555
C6_15 C4_15 1_555 1_555
H2_15 C6_15 1_555 1_555
C7_15 C6_15 1_555 1_555
H3_15 C8_15 1_555 1_555
C9_15 H4_15 1_555 1_555
H5_15 C9_15 1_555 1_555
C10_15 C9_15 1_555 1_555
H6_15 C10_15 1_555 1_555
H7_15 C10_15 1_555 1_555
H8_15 C10_15 1_555 1_555
O6_15 C7_15 1_555 1_555
C7_15 C8_15 1_555 1_555
C9_15 O6_15 1_555 1_555
C11_16 C12_16 1_555 1_555
C12_16 C13_16 1_555 1_555
C13_16 H9_16 1_555 1_555
C14_16 C13_16 1_555 1_555
C15_16 C14_16 1_555 1_555
C16_16 C14_16 1_555 1_555
H10_16 C16_16 1_555 1_555
C17_16 C16_16 1_555 1_555
C18_16 C12_16 1_555 1_555
H11_16 C18_16 1_555 1_555
C19_16 H12_16 1_555 1_555
H13_16 C19_16 1_555 1_555
C20_10 C19_16 1_555 1_555
H14_10 C20_10 1_555 1_555
H15_10 C20_10 1_555 1_555
H16_10 C20_10 1_555 1_555
O15_9 C11_16 1_555 1_555
O9_16 C15_16 1_555 1_555
O11_16 C17_16 1_555 1_555
C17_16 C18_16 1_555 1_555
C19_16 O11_16 1_555 1_555
C1_16 C2_16 1_555 1_555
C2_16 C3_16 1_555 1_555
C3_16 H1_16 1_555 1_555
C4_16 C3_16 1_555 1_555
C5_16 C4_16 1_555 1_555
C6_16 C4_16 1_555 1_555
H2_16 C6_16 1_555 1_555
C7_16 C6_16 1_555 1_555
C8_16 C2_16 1_555 1_555
H3_16 C8_16 1_555 1_555
C9_16 H4_16 1_555 1_555
H5_16 C9_16 1_555 1_555
C10_16 C9_16 1_555 1_555
H6_16 C10_16 1_555 1_555
H7_16 C10_16 1_555 1_555
H8_16 C10_16 1_555 1_555
O1_16 C1_16 1_555 1_555
O12_5 C1_16 1_555 1_555
O3_16 Zn4_6 1_555 1_555
O13_6 C5_16 1_555 1_555
O14_5 C5_16 1_555 1_555
O6_16 C7_16 1_555 1_555
Zn6_5 O1_16 1_555 1_555
H17_16 O3_16 1_555 1_555
H18_16 O3_16 1_555 1_555
C7_16 C8_16 1_555 1_555
C9_16 O6_16 1_555 1_555
O7_16 Zn6_5 1_555 1_555
C11_17 C12_17 1_555 1_555
C12_17 C13_17 1_555 1_555
C13_17 H9_17 1_555 1_555
C14_17 C13_17 1_555 1_555
C15_17 C14_17 1_555 1_555
C16_17 C14_17 1_555 1_555
H10_17 C16_17 1_555 1_555
C17_17 C16_17 1_555 1_555
C18_17 C12_17 1_555 1_555
H11_17 C18_17 1_555 1_555
C19_17 H12_17 1_555 1_555
H13_17 C19_17 1_555 1_555
C20_11 C19_17 1_555 1_555
H14_11 C20_11 1_555 1_555
H15_11 C20_11 1_555 1_555
H16_11 C20_11 1_555 1_555
O15_7 C11_17 1_555 1_555
O9_17 C15_17 1_555 1_555
O11_17 C17_17 1_555 1_555
C17_17 C18_17 1_555 1_555
C19_17 O11_17 1_555 1_555
C1_17 C2_17 1_555 1_555
C2_17 C3_17 1_555 1_555
C3_17 H1_17 1_555 1_555
C4_17 C3_17 1_555 1_555
C5_17 C4_17 1_555 1_555
C6_17 C4_17 1_555 1_555
H2_17 C6_17 1_555 1_555
C7_17 C6_17 1_555 1_555
C8_17 C2_17 1_555 1_555
H3_17 C8_17 1_555 1_555
C9_17 H4_17 1_555 1_555
H5_17 C9_17 1_555 1_555
C10_17 C9_17 1_555 1_555
H6_17 C10_17 1_555 1_555
H7_17 C10_17 1_555 1_555
H8_17 C10_17 1_555 1_555
O1_17 C1_17 1_555 1_555
O12_6 C1_17 1_555 1_555
O3_17 Zn4_4 1_555 1_555
O13_4 C5_17 1_555 1_555
O14_6 C5_17 1_555 1_555
O6_17 C7_17 1_555 1_555
Zn6_6 O1_17 1_555 1_555
H17_17 O3_17 1_555 1_555
H18_17 O3_17 1_555 1_555
C7_17 C8_17 1_555 1_555
C9_17 O6_17 1_555 1_555
O7_17 Zn6_6 1_555 1_555
C11_18 C12_18 1_555 1_555
C12_18 C13_18 1_555 1_555
C13_18 H9_18 1_555 1_555
C14_18 C13_18 1_555 1_555
C15_18 C14_18 1_555 1_555
C16_18 C14_18 1_555 1_555
H10_18 C16_18 1_555 1_555
C17_18 C16_18 1_555 1_555
C18_18 C12_18 1_555 1_555
H11_18 C18_18 1_555 1_555
C19_18 H12_18 1_555 1_555
H13_18 C19_18 1_555 1_555
C20_12 C19_18 1_555 1_555
H14_12 C20_12 1_555 1_555
H15_12 C20_12 1_555 1_555
H16_12 C20_12 1_555 1_555
O15_8 C11_18 1_555 1_555
O9_18 C15_18 1_555 1_555
O16_7 C15_18 1_555 1_555
O11_18 C17_18 1_555 1_555
C17_18 C18_18 1_555 1_555
C19_18 O11_18 1_555 1_555
C1_18 C2_18 1_555 1_555
C2_18 C3_18 1_555 1_555
C3_18 H1_18 1_555 1_555
C4_18 C3_18 1_555 1_555
C5_18 C4_18 1_555 1_555
C6_18 C4_18 1_555 1_555
H2_18 C6_18 1_555 1_555
C7_18 C6_18 1_555 1_555
C8_18 C2_18 1_555 1_555
H3_18 C8_18 1_555 1_555
C9_18 H4_18 1_555 1_555
H5_18 C9_18 1_555 1_555
C10_18 C9_18 1_555 1_555
H6_18 C10_18 1_555 1_555
H7_18 C10_18 1_555 1_555
H8_18 C10_18 1_555 1_555
O1_18 C1_18 1_555 1_555
O12_4 C1_18 1_555 1_555
O3_18 Zn4_5 1_555 1_555
O13_5 C5_18 1_555 1_555
O14_4 C5_18 1_555 1_555
O6_18 C7_18 1_555 1_555
Zn6_4 O1_18 1_555 1_555
H17_18 O3_18 1_555 1_555
H18_18 O3_18 1_555 1_555
C7_18 C8_18 1_555 1_555
C9_18 O6_18 1_555 1_555
O7_18 Zn6_4 1_555 1_555
H14_13 C20_13 1_555 1_555
H15_13 C20_13 1_555 1_555
H16_13 C20_13 1_555 1_555
H14_14 C20_14 1_555 1_555
H15_14 C20_14 1_555 1_555
H16_14 C20_14 1_555 1_555
H14_15 C20_15 1_555 1_555
H15_15 C20_15 1_555 1_555
H16_15 C20_15 1_555 1_555
H14_16 C20_16 1_555 1_555
H15_16 C20_16 1_555 1_555
H16_16 C20_16 1_555 1_555
H14_17 C20_17 1_555 1_555
H15_17 C20_17 1_555 1_555
H16_17 C20_17 1_555 1_555
H14_18 C20_18 1_555 1_555
H15_18 C20_18 1_555 1_555
H16_18 C20_18 1_555 1_555

#END
