
###############################################################################
#
# This file contains modified crystal structure data generated from the
# MOF subset of the Cambridge Structural Database (CSD) v543 
# hosted by the Cambridge Crystallographic Data Centre (CCDC).
#
# This work is licensed under the Creative Commons
# Attribution-NonCommercial-ShareAlike 4.0 International License.
# To view a copy of this license, visit
# http://creativecommons.org/licenses/by-nc-sa/4.0/
# or send a letter to
# Creative Commons, PO Box 1866, Mountain View, CA 94042, USA.
#
# CIF created using the CSD Python API on 29 September 2022
# The structure has been converted into the P1 space group
# The structure has a 3D framework
# The original CSD entry UVUFUN is in the cubic crystal system
# The framework has been calculated to contain at least 10.0% void space
# The void calculation uses a probe of radius 1.32A, grid spacing 0.4
# The framework is charged, counterions have been retained in the structure
# H atom positions have been added when not included in the experimental data
# Generated hydrogen atom positions removed from atoms on special positions
#
###############################################################################

data_UVUFUN
_chemical_formula_moiety         '(C480 H528 N48 O101 Zn29 3+)n'
_symmetry_cell_setting           triclinic
_symmetry_space_group_name_H-M   'P 1'
_symmetry_Int_Tables_number      1
_space_group_name_Hall           'P 1'
loop_
_symmetry_equiv_pos_site_id
_symmetry_equiv_pos_as_xyz
1 x,y,z
_cell_length_a                   25.8644(10)
_cell_length_b                   25.8644(10)
_cell_length_c                   25.8644(10)
_cell_angle_alpha                90
_cell_angle_beta                 90
_cell_angle_gamma                90
_cell_volume                     17302.4
loop_
_atom_site_label
_atom_site_type_symbol
_atom_site_fract_x
_atom_site_fract_y
_atom_site_fract_z
C15 C 0.6449(3) 0.1570(3) 0.2390(3)
C20 C 0.6161(3) 0.1420(3) 0.1907(3)
C25 C 0.6425(3) 0.1362(3) 0.1450(3)
H15 H 0.6787 0.1423 0.1444
C30 C 0.6180(3) 0.1219(3) 0.1004(3)
H20 H 0.6373 0.1176 0.0694
C35 C 0.5641(3) 0.1137(3) 0.1004(3)
C40 C 0.5379(3) 0.1225(3) 0.1463(3)
H25 H 0.5013 0.1193 0.1470
C45 C 0.5634(3) 0.1355(3) 0.1900(3)
H30 H 0.5444 0.1403 0.2211
C50 C 0.5374(3) 0.0962(3) 0.0511(3)
H35 H 0.5576 0.1085 0.0210
H40 H 0.5028 0.1124 0.0493
C55 C 0.5021(3) 0.0170(3) 0.0905(3)
H45 H 0.5236 0.0187 0.1221
H50 H 0.4709 0.0384 0.0963
C60 C 0.5819(3) 0.0143(3) 0.0378(3)
H55 H 0.6094 0.0390 0.0477
N6 N 0.5313(2) 0.0385(2) 0.0473(2)
N7 N 0.5473(2) 0.0313(2) 0.5385(2)
N9 N 0.4615(2) 0.0473(2) 0.4687(2)
O8 O 0.68869(17) 0.17132(18) 0.23666(19)
O10 O 0.43869(17) 0.01334(19) 0.57868(18)
O14 O 0.13135(18) 0.0311(2) 0.0979(2)
O17 O 0.61865(18) 0.1521(2) 0.2811(2)
Zn7 Zn 0.73131(3) 0.23131(3) 0.26869(3)
Zn8 Zn 0.01869(3) 0.01869(3) 0.01869(3)
Zn12 Zn 0.65281(4) 0.15281(4) 0.34719(4)
Zn13 Zn 0.09719(4) 0.09719(4) 0.09719(4)
H49 H 0.5963 0.0291 0.9616
Zn4 Zn 0.48131(3) 0.01869(3) 0.98131(3)
C1 C 0.4070(3) 0.8949(3) 0.4890(3)
C2 C 0.3920(3) 0.8661(3) 0.4407(3)
C3 C 0.3862(3) 0.8925(3) 0.3950(3)
H1 H 0.3923 0.9287 0.3944
C4 C 0.3719(3) 0.8680(3) 0.3504(3)
H2 H 0.3676 0.8873 0.3194
C5 C 0.3637(3) 0.8141(3) 0.3504(3)
C6 C 0.3725(3) 0.7879(3) 0.3963(3)
H3 H 0.3693 0.7513 0.3970
C7 C 0.3855(3) 0.8134(3) 0.4400(3)
H4 H 0.3903 0.7944 0.4711
C8 C 0.3462(3) 0.7874(3) 0.3011(3)
H5 H 0.3585 0.8076 0.2710
H6 H 0.3624 0.7528 0.2993
C9 C 0.2670(3) 0.7521(3) 0.3405(3)
H7 H 0.2687 0.7736 0.3721
H8 H 0.2884 0.7209 0.3463
C10 C 0.2643(3) 0.8319(3) 0.2878(3)
H9 H 0.2890 0.8594 0.2977
H10 H 0.2336 0.8352 0.3105
N1 N 0.2885(2) 0.7813(2) 0.2973(2)
O1 O 0.42132(18) 0.93869(17) 0.48666(19)
O2 O 0.4021(2) 0.86865(18) 0.5311(2)
O3 O 0.3541(2) 0.8541(2) 0.6459(2)
Zn1 Zn 0.48131(3) 0.98131(3) 0.51869(3)
Zn2 Zn 0.40281(4) 0.90281(4) 0.59719(4)
C11 C 0.0110(3) 0.5930(3) 0.3949(3)
C12 C 0.1051(3) 0.9890(3) 0.0930(3)
C13 C 0.3430(3) 0.7610(3) 0.1449(3)
C16 C 0.0593(3) 0.6080(3) 0.3661(3)
C17 C 0.1339(3) 0.9407(3) 0.1080(3)
C18 C 0.3580(3) 0.8093(3) 0.1161(3)
C21 C 0.1050(3) 0.6138(3) 0.3925(3)
C22 C 0.1075(3) 0.8950(3) 0.1138(3)
C23 C 0.3638(3) 0.8550(3) 0.1425(3)
H11 H 0.1056 0.6077 0.4287
H12 H 0.0713 0.8944 0.1077
H13 H 0.3577 0.8556 0.1787
C26 C 0.1496(3) 0.6281(3) 0.3680(3)
C27 C 0.1320(3) 0.8504(3) 0.1281(3)
C28 C 0.3781(3) 0.8996(3) 0.1180(3)
H16 H 0.1806 0.6324 0.3873
H17 H 0.1127 0.8194 0.1324
H18 H 0.3824 0.9306 0.1373
C31 C 0.1496(3) 0.6363(3) 0.3141(3)
C32 C 0.1859(3) 0.8504(3) 0.1363(3)
C33 C 0.3863(3) 0.8996(3) 0.0641(3)
C36 C 0.1037(3) 0.6275(3) 0.2879(3)
C37 C 0.2121(3) 0.8963(3) 0.1275(3)
C38 C 0.3775(3) 0.8537(3) 0.0379(3)
H21 H 0.1030 0.6307 0.2513
H22 H 0.2487 0.8970 0.1307
H23 H 0.3807 0.8530 0.0013
C41 C 0.0600(3) 0.6145(3) 0.3134(3)
C42 C 0.1866(3) 0.9400(3) 0.1145(3)
C43 C 0.3645(3) 0.8100(3) 0.0634(3)
H26 H 0.0289 0.6097 0.2944
H27 H 0.2056 0.9711 0.1097
H28 H 0.3597 0.7789 0.0444
C46 C 0.1989(3) 0.6538(3) 0.2874(3)
C47 C 0.2126(3) 0.8011(3) 0.1538(3)
C48 C 0.4038(3) 0.9489(3) 0.0374(3)
H31 H 0.2290 0.6415 0.3076
H32 H 0.1924 0.7710 0.1415
H33 H 0.3915 0.9790 0.0576
H36 H 0.2007 0.6376 0.2528
H37 H 0.2472 0.7993 0.1376
H38 H 0.3876 0.9507 0.0028
C51 C 0.1595(3) 0.7330(3) 0.2521(3)
C52 C 0.2479(3) 0.8405(3) 0.2330(3)
C53 C 0.4830(3) 0.9095(3) 0.0021(3)
H41 H 0.1279 0.7313 0.2736
H42 H 0.2264 0.8721 0.2313
H43 H 0.4813 0.8779 0.0236
H46 H 0.1537 0.7116 0.2209
H47 H 0.2791 0.8463 0.2116
C56 C 0.2122(3) 0.7357(3) 0.3319(3)
C57 C 0.1681(3) 0.7878(3) 0.2357(3)
C58 C 0.4857(3) 0.9622(3) 0.0819(3)
H51 H 0.2023 0.7110 0.3594
H52 H 0.1406 0.7977 0.2110
H53 H 0.4610 0.9523 0.1094
H56 H 0.1895 0.7664 0.3352
H57 H 0.1648 0.8105 0.2664
H58 H 0.5164 0.9395 0.0852
H59 H 0.5605 0.9148 0.0164
H60 H 0.5852 0.9836 0.0605
N2 N 0.2027(2) 0.7115(2) 0.2813(2)
N3 N 0.2187(2) 0.7973(2) 0.2115(2)
N4 N 0.4615(2) 0.9527(2) 0.0313(2)
N8 N 0.5313(2) 0.9615(2) 0.4527(2)
O4 O 0.01334(19) 0.57868(18) 0.43869(17)
O5 O 0.06131(17) 0.98666(19) 0.07868(18)
O6 O 0.32868(18) 0.76334(19) 0.18869(17)
O9 O 0.51334(19) 0.92132(18) 0.56131(17)
O11 O 0.23666(19) 0.68869(17) 0.17132(18)
O12 O 0.31131(17) 0.67132(18) 0.26334(19)
O15 O 0.3479(2) 0.7189(2) 0.11865(18)
O18 O 0.4689(2) 0.9021(2) 0.63135(18)
O19 O 0.36865(18) 0.9689(2) 0.5979(2)
O20 O 0.2811(2) 0.61865(18) 0.1521(2)
O21 O 0.38135(18) 0.6521(2) 0.2189(2)
O22 O 0.3959(2) 0.6041(2) 0.1041(2)
Zn3 Zn 0.26869(3) 0.73131(3) 0.23131(3)
Zn9 Zn 0.34719(4) 0.65281(4) 0.15281(4)
C14 C 0.7390(3) 0.8551(3) 0.8430(3)
C19 C 0.6907(3) 0.8839(3) 0.8580(3)
C24 C 0.6450(3) 0.8575(3) 0.8638(3)
H14 H 0.6444 0.8213 0.8577
C29 C 0.6004(3) 0.8820(3) 0.8781(3)
H19 H 0.5694 0.8627 0.8824
C34 C 0.6004(3) 0.9359(3) 0.8863(3)
C39 C 0.6463(3) 0.9621(3) 0.8775(3)
H24 H 0.6470 0.9987 0.8807
C44 C 0.6900(3) 0.9366(3) 0.8645(3)
H29 H 0.7211 0.9556 0.8597
C49 C 0.5511(3) 0.9626(3) 0.9038(3)
H34 H 0.5210 0.9424 0.8915
H39 H 0.5493 0.9972 0.8876
C54 C 0.5905(3) 0.9979(3) 0.9830(3)
H44 H 0.6221 0.9764 0.9813
H48 H 0.4616 0.9037 0.9709
C59 C 0.5378(3) 0.9181(3) 0.9857(3)
H54 H 0.5477 0.8906 0.9610
N5 N 0.5473(2) 0.9687(2) 0.9615(2)
O7 O 0.73666(19) 0.81131(17) 0.82868(18)
O16 O 0.7811(2) 0.88135(18) 0.8479(2)
Zn6 Zn 0.76869(3) 0.76869(3) 0.76869(3)
Zn11 Zn 0.84719(4) 0.84719(4) 0.84719(4)
O13 O 0.9689(2) 0.5979(2) 0.36865(18)
Zn5 Zn 0.98131(3) 0.51869(3) 0.48131(3)
Zn10 Zn 0.90281(4) 0.59719(4) 0.40281(4)
O13_2 O 0.0311(2) 0.9021(2) 0.36865(18)
Zn5_2 Zn 0.01869(3) 0.98131(3) 0.48131(3)
Zn10_2 Zn 0.09719(4) 0.90281(4) 0.40281(4)
C1_2 C 0.5930(3) 0.6051(3) 0.4890(3)
C2_2 C 0.6080(3) 0.6339(3) 0.4407(3)
C3_2 C 0.6138(3) 0.6075(3) 0.3950(3)
H1_2 H 0.6077 0.5713 0.3944
C4_2 C 0.6281(3) 0.6320(3) 0.3504(3)
H2_2 H 0.6324 0.6127 0.3194
C5_2 C 0.6363(3) 0.6859(3) 0.3504(3)
C6_2 C 0.6275(3) 0.7121(3) 0.3963(3)
H3_2 H 0.6307 0.7487 0.3970
C7_2 C 0.6145(3) 0.6866(3) 0.4400(3)
H4_2 H 0.6097 0.7056 0.4711
C8_2 C 0.6538(3) 0.7126(3) 0.3011(3)
H5_2 H 0.6415 0.6924 0.2710
H6_2 H 0.6376 0.7472 0.2993
C9_2 C 0.7330(3) 0.7479(3) 0.3405(3)
H7_2 H 0.7313 0.7264 0.3721
H8_2 H 0.7116 0.7791 0.3463
C10_2 C 0.7357(3) 0.6681(3) 0.2878(3)
H9_2 H 0.7110 0.6406 0.2977
H10_2 H 0.7664 0.6648 0.3105
N1_2 N 0.7115(2) 0.7187(2) 0.2973(2)
O1_2 O 0.57868(18) 0.56131(17) 0.48666(19)
O2_2 O 0.5979(2) 0.63135(18) 0.5311(2)
O3_2 O 0.6459(2) 0.6459(2) 0.6459(2)
Zn1_2 Zn 0.51869(3) 0.51869(3) 0.51869(3)
Zn2_2 Zn 0.59719(4) 0.59719(4) 0.59719(4)
C11_2 C 0.9890(3) 0.9070(3) 0.3949(3)
C12_2 C 0.8949(3) 0.5110(3) 0.0930(3)
C13_2 C 0.6570(3) 0.7390(3) 0.1449(3)
C15_2 C 0.3551(3) 0.3430(3) 0.2390(3)
C16_2 C 0.9407(3) 0.8920(3) 0.3661(3)
C17_2 C 0.8661(3) 0.5593(3) 0.1080(3)
C18_2 C 0.6420(3) 0.6907(3) 0.1161(3)
C20_2 C 0.3839(3) 0.3580(3) 0.1907(3)
C21_2 C 0.8950(3) 0.8862(3) 0.3925(3)
C22_2 C 0.8925(3) 0.6050(3) 0.1138(3)
C23_2 C 0.6362(3) 0.6450(3) 0.1425(3)
C25_2 C 0.3575(3) 0.3638(3) 0.1450(3)
H11_2 H 0.8944 0.8923 0.4287
H12_2 H 0.9287 0.6056 0.1077
H13_2 H 0.6423 0.6444 0.1787
H15_2 H 0.3213 0.3577 0.1444
C26_2 C 0.8504(3) 0.8719(3) 0.3680(3)
C27_2 C 0.8680(3) 0.6496(3) 0.1281(3)
C28_2 C 0.6219(3) 0.6004(3) 0.1180(3)
C30_2 C 0.3820(3) 0.3781(3) 0.1004(3)
H16_2 H 0.8194 0.8676 0.3873
H17_2 H 0.8873 0.6806 0.1324
H18_2 H 0.6176 0.5694 0.1373
H20_2 H 0.3627 0.3824 0.0694
C31_2 C 0.8504(3) 0.8637(3) 0.3141(3)
C32_2 C 0.8141(3) 0.6496(3) 0.1363(3)
C33_2 C 0.6137(3) 0.6004(3) 0.0641(3)
C35_2 C 0.4359(3) 0.3863(3) 0.1004(3)
C36_2 C 0.8963(3) 0.8725(3) 0.2879(3)
C37_2 C 0.7879(3) 0.6037(3) 0.1275(3)
C38_2 C 0.6225(3) 0.6463(3) 0.0379(3)
C40_2 C 0.4621(3) 0.3775(3) 0.1463(3)
H21_2 H 0.8970 0.8693 0.2513
H22_2 H 0.7513 0.6030 0.1307
H23_2 H 0.6193 0.6470 0.0013
H25_2 H 0.4987 0.3807 0.1470
C41_2 C 0.9400(3) 0.8855(3) 0.3134(3)
C42_2 C 0.8134(3) 0.5600(3) 0.1145(3)
C43_2 C 0.6355(3) 0.6900(3) 0.0634(3)
C45_2 C 0.4366(3) 0.3645(3) 0.1900(3)
H26_2 H 0.9711 0.8903 0.2944
H27_2 H 0.7944 0.5289 0.1097
H28_2 H 0.6403 0.7211 0.0444
H30_2 H 0.4556 0.3597 0.2211
C46_2 C 0.8011(3) 0.8462(3) 0.2874(3)
C47_2 C 0.7874(3) 0.6989(3) 0.1538(3)
C48_2 C 0.5962(3) 0.5511(3) 0.0374(3)
C50_2 C 0.4626(3) 0.4038(3) 0.0511(3)
H31_2 H 0.7710 0.8585 0.3076
H32_2 H 0.8076 0.7290 0.1415
H33_2 H 0.6085 0.5210 0.0576
H35_2 H 0.4424 0.3915 0.0210
H36_2 H 0.7993 0.8624 0.2528
H37_2 H 0.7528 0.7007 0.1376
H38_2 H 0.6124 0.5493 0.0028
H40_2 H 0.4972 0.3876 0.0493
C51_2 C 0.8405(3) 0.7670(3) 0.2521(3)
C52_2 C 0.7521(3) 0.6595(3) 0.2330(3)
C53_2 C 0.5170(3) 0.5905(3) 0.0021(3)
C55_2 C 0.4979(3) 0.4830(3) 0.0905(3)
H41_2 H 0.8721 0.7687 0.2736
H42_2 H 0.7736 0.6279 0.2313
H43_2 H 0.5187 0.6221 0.0236
H45_2 H 0.4764 0.4813 0.1221
H46_2 H 0.8463 0.7884 0.2209
H47_2 H 0.7209 0.6537 0.2116
H50_2 H 0.5291 0.4616 0.0963
C56_2 C 0.7878(3) 0.7643(3) 0.3319(3)
C57_2 C 0.8319(3) 0.7122(3) 0.2357(3)
C58_2 C 0.5143(3) 0.5378(3) 0.0819(3)
C60_2 C 0.4181(3) 0.4857(3) 0.0378(3)
H51_2 H 0.7977 0.7890 0.3594
H52_2 H 0.8594 0.7023 0.2110
H53_2 H 0.5390 0.5477 0.1094
H55_2 H 0.3906 0.4610 0.0477
H56_2 H 0.8105 0.7336 0.3352
H57_2 H 0.8352 0.6895 0.2664
H58_2 H 0.4836 0.5605 0.0852
H59_2 H 0.4395 0.5852 0.0164
H60_2 H 0.4148 0.5164 0.0605
N2_2 N 0.7973(2) 0.7885(2) 0.2813(2)
N3_2 N 0.7813(2) 0.7027(2) 0.2115(2)
N4_2 N 0.5385(2) 0.5473(2) 0.0313(2)
N6_2 N 0.4687(2) 0.4615(2) 0.0473(2)
N7_2 N 0.4527(2) 0.4687(2) 0.5385(2)
N8_2 N 0.4687(2) 0.5385(2) 0.4527(2)
N9_2 N 0.5385(2) 0.4527(2) 0.4687(2)
O4_2 O 0.98666(19) 0.92132(18) 0.43869(17)
O5_2 O 0.93869(17) 0.51334(19) 0.07868(18)
O6_2 O 0.67132(18) 0.73666(19) 0.18869(17)
O8_2 O 0.31131(17) 0.32868(18) 0.23666(19)
O9_2 O 0.48666(19) 0.57868(18) 0.56131(17)
O10_2 O 0.56131(17) 0.48666(19) 0.57868(18)
O11_2 O 0.76334(19) 0.81131(17) 0.17132(18)
O12_2 O 0.68869(17) 0.82868(18) 0.26334(19)
O14_2 O 0.86865(18) 0.4689(2) 0.0979(2)
O15_2 O 0.6521(2) 0.7811(2) 0.11865(18)
O17_2 O 0.38135(18) 0.3479(2) 0.2811(2)
O18_2 O 0.5311(2) 0.5979(2) 0.63135(18)
O19_2 O 0.63135(18) 0.5311(2) 0.5979(2)
O20_2 O 0.7189(2) 0.88135(18) 0.1521(2)
O21_2 O 0.61865(18) 0.8479(2) 0.2189(2)
O22_2 O 0.6041(2) 0.8959(2) 0.1041(2)
Zn3_2 Zn 0.73131(3) 0.76869(3) 0.23131(3)
Zn7_2 Zn 0.26869(3) 0.26869(3) 0.26869(3)
Zn8_2 Zn 0.98131(3) 0.48131(3) 0.01869(3)
Zn9_2 Zn 0.65281(4) 0.84719(4) 0.15281(4)
Zn12_2 Zn 0.34719(4) 0.34719(4) 0.34719(4)
Zn13_2 Zn 0.90281(4) 0.40281(4) 0.09719(4)
C14_2 C 0.2610(3) 0.6449(3) 0.8430(3)
C19_2 C 0.3093(3) 0.6161(3) 0.8580(3)
C24_2 C 0.3550(3) 0.6425(3) 0.8638(3)
H14_2 H 0.3556 0.6787 0.8577
C29_2 C 0.3996(3) 0.6180(3) 0.8781(3)
H19_2 H 0.4306 0.6373 0.8824
C34_2 C 0.3996(3) 0.5641(3) 0.8863(3)
C39_2 C 0.3537(3) 0.5379(3) 0.8775(3)
H24_2 H 0.3530 0.5013 0.8807
C44_2 C 0.3100(3) 0.5634(3) 0.8645(3)
H29_2 H 0.2789 0.5444 0.8597
C49_2 C 0.4489(3) 0.5374(3) 0.9038(3)
H34_2 H 0.4790 0.5576 0.8915
H39_2 H 0.4507 0.5028 0.8876
C54_2 C 0.4095(3) 0.5021(3) 0.9830(3)
H44_2 H 0.3779 0.5236 0.9813
H48_2 H 0.5384 0.5963 0.9709
H49_2 H 0.4037 0.4709 0.9616
C59_2 C 0.4622(3) 0.5819(3) 0.9857(3)
H54_2 H 0.4523 0.6094 0.9610
N5_2 N 0.4527(2) 0.5313(2) 0.9615(2)
O7_2 O 0.26334(19) 0.68869(17) 0.82868(18)
O16_2 O 0.2189(2) 0.61865(18) 0.8479(2)
Zn4_2 Zn 0.51869(3) 0.48131(3) 0.98131(3)
Zn6_2 Zn 0.23131(3) 0.73131(3) 0.76869(3)
Zn11_2 Zn 0.15281(4) 0.65281(4) 0.84719(4)
C1_3 C 0.4070(3) 0.1051(3) 0.0110(3)
C2_3 C 0.3920(3) 0.1339(3) 0.0593(3)
C3_3 C 0.3862(3) 0.1075(3) 0.1050(3)
H1_3 H 0.3923 0.0713 0.1056
C4_3 C 0.3719(3) 0.1320(3) 0.1496(3)
H2_3 H 0.3676 0.1127 0.1806
C5_3 C 0.3637(3) 0.1859(3) 0.1496(3)
C6_3 C 0.3725(3) 0.2121(3) 0.1037(3)
H3_3 H 0.3693 0.2487 0.1030
C7_3 C 0.3855(3) 0.1866(3) 0.0600(3)
H4_3 H 0.3903 0.2056 0.0289
C8_3 C 0.3462(3) 0.2126(3) 0.1989(3)
H5_3 H 0.3585 0.1924 0.2290
H6_3 H 0.3624 0.2472 0.2007
C9_3 C 0.2670(3) 0.2479(3) 0.1595(3)
H7_3 H 0.2687 0.2264 0.1279
H8_3 H 0.2884 0.2791 0.1537
C10_3 C 0.2643(3) 0.1681(3) 0.2122(3)
H9_3 H 0.2890 0.1406 0.2023
H10_3 H 0.2336 0.1648 0.1895
N1_3 N 0.2885(2) 0.2187(2) 0.2027(2)
O1_3 O 0.42132(18) 0.06131(17) 0.01334(19)
C11_3 C 0.0110(3) 0.4070(3) 0.1051(3)
C12_3 C 0.1051(3) 0.0110(3) 0.4070(3)
C13_3 C 0.3430(3) 0.2390(3) 0.3551(3)
C14_3 C 0.7390(3) 0.1449(3) 0.6570(3)
C16_3 C 0.0593(3) 0.3920(3) 0.1339(3)
C17_3 C 0.1339(3) 0.0593(3) 0.3920(3)
C18_3 C 0.3580(3) 0.1907(3) 0.3839(3)
C19_3 C 0.6907(3) 0.1161(3) 0.6420(3)
C21_3 C 0.1050(3) 0.3862(3) 0.1075(3)
C22_3 C 0.1075(3) 0.1050(3) 0.3862(3)
C23_3 C 0.3638(3) 0.1450(3) 0.3575(3)
C24_3 C 0.6450(3) 0.1425(3) 0.6362(3)
H11_3 H 0.1056 0.3923 0.0713
H12_3 H 0.0713 0.1056 0.3923
H13_3 H 0.3577 0.1444 0.3213
H14_3 H 0.6444 0.1787 0.6423
C26_3 C 0.1496(3) 0.3719(3) 0.1320(3)
C27_3 C 0.1320(3) 0.1496(3) 0.3719(3)
C28_3 C 0.3781(3) 0.1004(3) 0.3820(3)
C29_3 C 0.6004(3) 0.1180(3) 0.6219(3)
H16_3 H 0.1806 0.3676 0.1127
H17_3 H 0.1127 0.1806 0.3676
H18_3 H 0.3824 0.0694 0.3627
H19_3 H 0.5694 0.1373 0.6176
C31_3 C 0.1496(3) 0.3637(3) 0.1859(3)
C32_3 C 0.1859(3) 0.1496(3) 0.3637(3)
C33_3 C 0.3863(3) 0.1004(3) 0.4359(3)
C34_3 C 0.6004(3) 0.0641(3) 0.6137(3)
C36_3 C 0.1037(3) 0.3725(3) 0.2121(3)
C37_3 C 0.2121(3) 0.1037(3) 0.3725(3)
C38_3 C 0.3775(3) 0.1463(3) 0.4621(3)
C39_3 C 0.6463(3) 0.0379(3) 0.6225(3)
H21_3 H 0.1030 0.3693 0.2487
H22_3 H 0.2487 0.1030 0.3693
H23_3 H 0.3807 0.1470 0.4987
H24_3 H 0.6470 0.0013 0.6193
C41_3 C 0.0600(3) 0.3855(3) 0.1866(3)
C42_3 C 0.1866(3) 0.0600(3) 0.3855(3)
C43_3 C 0.3645(3) 0.1900(3) 0.4366(3)
C44_3 C 0.6900(3) 0.0634(3) 0.6355(3)
H26_3 H 0.0289 0.3903 0.2056
H27_3 H 0.2056 0.0289 0.3903
H28_3 H 0.3597 0.2211 0.4556
H29_3 H 0.7211 0.0444 0.6403
C46_3 C 0.1989(3) 0.3462(3) 0.2126(3)
C47_3 C 0.2126(3) 0.1989(3) 0.3462(3)
C48_3 C 0.4038(3) 0.0511(3) 0.4626(3)
C49_3 C 0.5511(3) 0.0374(3) 0.5962(3)
H31_3 H 0.2290 0.3585 0.1924
H32_3 H 0.1924 0.2290 0.3585
H33_3 H 0.3915 0.0210 0.4424
H34_3 H 0.5210 0.0576 0.6085
H36_3 H 0.2007 0.3624 0.2472
H37_3 H 0.2472 0.2007 0.3624
H38_3 H 0.3876 0.0493 0.4972
H39_3 H 0.5493 0.0028 0.6124
C51_3 C 0.1595(3) 0.2670(3) 0.2479(3)
C52_3 C 0.2479(3) 0.1595(3) 0.2670(3)
C53_3 C 0.4830(3) 0.0905(3) 0.4979(3)
C54_3 C 0.5905(3) 0.0021(3) 0.5170(3)
H41_3 H 0.1279 0.2687 0.2264
H42_3 H 0.2264 0.1279 0.2687
H43_3 H 0.4813 0.1221 0.4764
H44_3 H 0.6221 0.0236 0.5187
H46_3 H 0.1537 0.2884 0.2791
H47_3 H 0.2791 0.1537 0.2884
H48_3 H 0.4616 0.0963 0.5291
C56_3 C 0.2122(3) 0.2643(3) 0.1681(3)
C57_3 C 0.1681(3) 0.2122(3) 0.2643(3)
C58_3 C 0.4857(3) 0.0378(3) 0.4181(3)
C59_3 C 0.5378(3) 0.0819(3) 0.5143(3)
H51_3 H 0.2023 0.2890 0.1406
H52_3 H 0.1406 0.2023 0.2890
H53_3 H 0.4610 0.0477 0.3906
H54_3 H 0.5477 0.1094 0.5390
H56_3 H 0.1895 0.2336 0.1648
H57_3 H 0.1648 0.1895 0.2336
H58_3 H 0.5164 0.0605 0.4148
H59_3 H 0.5605 0.0852 0.4836
H60_3 H 0.5852 0.0164 0.4395
N2_3 N 0.2027(2) 0.2885(2) 0.2187(2)
N3_3 N 0.2187(2) 0.2027(2) 0.2885(2)
O4_3 O 0.01334(19) 0.42132(18) 0.06131(17)
O5_3 O 0.06131(17) 0.01334(19) 0.42132(18)
O6_3 O 0.32868(18) 0.23666(19) 0.31131(17)
O7_3 O 0.73666(19) 0.18869(17) 0.67132(18)
O11_3 O 0.23666(19) 0.31131(17) 0.32868(18)
O15_3 O 0.3479(2) 0.2811(2) 0.38135(18)
O16_3 O 0.7811(2) 0.11865(18) 0.6521(2)
O20_3 O 0.2811(2) 0.38135(18) 0.3479(2)
O22_3 O 0.3959(2) 0.3959(2) 0.3959(2)
Zn6_3 Zn 0.76869(3) 0.23131(3) 0.73131(3)
Zn11_3 Zn 0.84719(4) 0.15281(4) 0.65281(4)
O2_3 O 0.4021(2) 0.13135(18) 0.9689(2)
O3_3 O 0.3541(2) 0.1459(2) 0.8541(2)
Zn2_3 Zn 0.40281(4) 0.09719(4) 0.90281(4)
O9_3 O 0.51334(19) 0.07868(18) 0.93869(17)
O18_3 O 0.4689(2) 0.0979(2) 0.86865(18)
O19_3 O 0.36865(18) 0.0311(2) 0.9021(2)
C15_3 C 0.6449(3) 0.8430(3) 0.2610(3)
C20_3 C 0.6161(3) 0.8580(3) 0.3093(3)
C25_3 C 0.6425(3) 0.8638(3) 0.3550(3)
H15_3 H 0.6787 0.8577 0.3556
C30_3 C 0.6180(3) 0.8781(3) 0.3996(3)
H20_3 H 0.6373 0.8824 0.4306
C35_3 C 0.5641(3) 0.8863(3) 0.3996(3)
C40_3 C 0.5379(3) 0.8775(3) 0.3537(3)
H25_3 H 0.5013 0.8807 0.3530
C45_3 C 0.5634(3) 0.8645(3) 0.3100(3)
H30_3 H 0.5444 0.8597 0.2789
C50_3 C 0.5374(3) 0.9038(3) 0.4489(3)
H35_3 H 0.5576 0.8915 0.4790
H40_3 H 0.5028 0.8876 0.4507
C55_3 C 0.5021(3) 0.9830(3) 0.4095(3)
H45_3 H 0.5236 0.9813 0.3779
H49_3 H 0.5963 0.9709 0.5384
H50_3 H 0.4709 0.9616 0.4037
C60_3 C 0.5819(3) 0.9857(3) 0.4622(3)
H55_3 H 0.6094 0.9610 0.4523
O14_3 O 0.13135(18) 0.9689(2) 0.4021(2)
O10_3 O 0.43869(17) 0.98666(19) 0.92132(18)
O13_3 O 0.9689(2) 0.4021(2) 0.13135(18)
H50_4 H 0.0291 0.0384 0.9037
N9_3 N 0.0385(2) 0.0473(2) 0.5313(2)
H48_4 H 0.0384 0.9037 0.0291
C1_4 C 0.0930(3) 0.8949(3) 0.5110(3)
C2_4 C 0.1080(3) 0.8661(3) 0.5593(3)
C3_4 C 0.1138(3) 0.8925(3) 0.6050(3)
H1_4 H 0.1077 0.9287 0.6056
C4_4 C 0.1281(3) 0.8680(3) 0.6496(3)
H2_4 H 0.1324 0.8873 0.6806
C5_4 C 0.1363(3) 0.8141(3) 0.6496(3)
C6_4 C 0.1275(3) 0.7879(3) 0.6037(3)
H3_4 H 0.1307 0.7513 0.6030
C7_4 C 0.1145(3) 0.8134(3) 0.5600(3)
H4_4 H 0.1097 0.7944 0.5289
C8_4 C 0.1538(3) 0.7874(3) 0.6989(3)
H5_4 H 0.1415 0.8076 0.7290
H6_4 H 0.1376 0.7528 0.7007
C9_4 C 0.2330(3) 0.7521(3) 0.6595(3)
H7_4 H 0.2313 0.7736 0.6279
H8_4 H 0.2116 0.7209 0.6537
C10_4 C 0.2357(3) 0.8319(3) 0.7122(3)
H9_4 H 0.2110 0.8594 0.7023
H10_4 H 0.2664 0.8352 0.6895
N1_4 N 0.2115(2) 0.7813(2) 0.7027(2)
O1_4 O 0.07868(18) 0.93869(17) 0.51334(19)
O2_4 O 0.0979(2) 0.86865(18) 0.4689(2)
O3_4 O 0.1459(2) 0.8541(2) 0.3541(2)
C11_4 C 0.4890(3) 0.5930(3) 0.6051(3)
C12_4 C 0.3949(3) 0.9890(3) 0.9070(3)
C13_4 C 0.1570(3) 0.7610(3) 0.8551(3)
C16_4 C 0.4407(3) 0.6080(3) 0.6339(3)
C17_4 C 0.3661(3) 0.9407(3) 0.8920(3)
C18_4 C 0.1420(3) 0.8093(3) 0.8839(3)
C21_4 C 0.3950(3) 0.6138(3) 0.6075(3)
C22_4 C 0.3925(3) 0.8950(3) 0.8862(3)
C23_4 C 0.1362(3) 0.8550(3) 0.8575(3)
H11_4 H 0.3944 0.6077 0.5713
H12_4 H 0.4287 0.8944 0.8923
H13_4 H 0.1423 0.8556 0.8213
C26_4 C 0.3504(3) 0.6281(3) 0.6320(3)
C27_4 C 0.3680(3) 0.8504(3) 0.8719(3)
C28_4 C 0.1219(3) 0.8996(3) 0.8820(3)
H16_4 H 0.3194 0.6324 0.6127
H17_4 H 0.3873 0.8194 0.8676
H18_4 H 0.1176 0.9306 0.8627
C31_4 C 0.3504(3) 0.6363(3) 0.6859(3)
C32_4 C 0.3141(3) 0.8504(3) 0.8637(3)
C33_4 C 0.1137(3) 0.8996(3) 0.9359(3)
C36_4 C 0.3963(3) 0.6275(3) 0.7121(3)
C37_4 C 0.2879(3) 0.8963(3) 0.8725(3)
C38_4 C 0.1225(3) 0.8537(3) 0.9621(3)
H21_4 H 0.3970 0.6307 0.7487
H22_4 H 0.2513 0.8970 0.8693
H23_4 H 0.1193 0.8530 0.9987
C41_4 C 0.4400(3) 0.6145(3) 0.6866(3)
C42_4 C 0.3134(3) 0.9400(3) 0.8855(3)
C43_4 C 0.1355(3) 0.8100(3) 0.9366(3)
H26_4 H 0.4711 0.6097 0.7056
H27_4 H 0.2944 0.9711 0.8903
H28_4 H 0.1403 0.7789 0.9556
C46_4 C 0.3011(3) 0.6538(3) 0.7126(3)
C47_4 C 0.2874(3) 0.8011(3) 0.8462(3)
C48_4 C 0.0962(3) 0.9489(3) 0.9626(3)
H31_4 H 0.2710 0.6415 0.6924
H32_4 H 0.3076 0.7710 0.8585
H33_4 H 0.1085 0.9790 0.9424
H36_4 H 0.2993 0.6376 0.7472
H37_4 H 0.2528 0.7993 0.8624
H38_4 H 0.1124 0.9507 0.9972
C51_4 C 0.3405(3) 0.7330(3) 0.7479(3)
C52_4 C 0.2521(3) 0.8405(3) 0.7670(3)
C53_4 C 0.0170(3) 0.9095(3) 0.9979(3)
H41_4 H 0.3721 0.7313 0.7264
H42_4 H 0.2736 0.8721 0.7687
H43_4 H 0.0187 0.8779 0.9764
H46_4 H 0.3463 0.7116 0.7791
H47_4 H 0.2209 0.8463 0.7884
C56_4 C 0.2878(3) 0.7357(3) 0.6681(3)
C57_4 C 0.3319(3) 0.7878(3) 0.7643(3)
C58_4 C 0.0143(3) 0.9622(3) 0.9181(3)
H51_4 H 0.2977 0.7110 0.6406
H52_4 H 0.3594 0.7977 0.7890
H53_4 H 0.0390 0.9523 0.8906
H56_4 H 0.3105 0.7664 0.6648
H57_4 H 0.3352 0.8105 0.7336
N2_4 N 0.2973(2) 0.7115(2) 0.7187(2)
N3_4 N 0.2813(2) 0.7973(2) 0.7885(2)
N4_3 N 0.0385(2) 0.9527(2) 0.9687(2)
O6_4 O 0.17132(18) 0.76334(19) 0.81131(17)
O12_3 O 0.18869(17) 0.67132(18) 0.73666(19)
O15_4 O 0.1521(2) 0.7189(2) 0.88135(18)
O21_3 O 0.11865(18) 0.6521(2) 0.7811(2)
O22_4 O 0.1041(2) 0.6041(2) 0.8959(2)
H49_4 H 0.9037 0.0291 0.0384
C15_4 C 0.8551(3) 0.1570(3) 0.7610(3)
C20_4 C 0.8839(3) 0.1420(3) 0.8093(3)
C25_4 C 0.8575(3) 0.1362(3) 0.8550(3)
H15_4 H 0.8213 0.1423 0.8556
C30_4 C 0.8820(3) 0.1219(3) 0.8996(3)
H20_4 H 0.8627 0.1176 0.9306
C35_4 C 0.9359(3) 0.1137(3) 0.8996(3)
C40_4 C 0.9621(3) 0.1225(3) 0.8537(3)
H25_4 H 0.9987 0.1193 0.8530
C45_4 C 0.9366(3) 0.1355(3) 0.8100(3)
H30_4 H 0.9556 0.1403 0.7789
C50_4 C 0.9626(3) 0.0962(3) 0.9489(3)
H35_4 H 0.9424 0.1085 0.9790
H40_4 H 0.9972 0.1124 0.9507
C55_4 C 0.9979(3) 0.0170(3) 0.9095(3)
H45_4 H 0.9764 0.0187 0.8779
C60_4 C 0.9181(3) 0.0143(3) 0.9622(3)
H55_4 H 0.8906 0.0390 0.9523
N6_3 N 0.9687(2) 0.0385(2) 0.9527(2)
N7_3 N 0.9527(2) 0.0313(2) 0.4615(2)
O8_3 O 0.81131(17) 0.17132(18) 0.76334(19)
O17_3 O 0.88135(18) 0.1521(2) 0.7189(2)
C14_4 C 0.7610(3) 0.8551(3) 0.1570(3)
C19_4 C 0.8093(3) 0.8839(3) 0.1420(3)
C24_4 C 0.8550(3) 0.8575(3) 0.1362(3)
H14_4 H 0.8556 0.8213 0.1423
C29_4 C 0.8996(3) 0.8820(3) 0.1219(3)
H19_4 H 0.9306 0.8627 0.1176
C34_4 C 0.8996(3) 0.9359(3) 0.1137(3)
C39_4 C 0.8537(3) 0.9621(3) 0.1225(3)
H24_4 H 0.8530 0.9987 0.1193
C44_4 C 0.8100(3) 0.9366(3) 0.1355(3)
H29_4 H 0.7789 0.9556 0.1403
C49_4 C 0.9489(3) 0.9626(3) 0.0962(3)
H34_4 H 0.9790 0.9424 0.1085
H39_4 H 0.9507 0.9972 0.1124
C54_4 C 0.9095(3) 0.9979(3) 0.0170(3)
H44_4 H 0.8779 0.9764 0.0187
C59_4 C 0.9622(3) 0.9181(3) 0.0143(3)
H54_4 H 0.9523 0.8906 0.0390
N5_3 N 0.9527(2) 0.9687(2) 0.0385(2)
H58_4 H 0.9836 0.9395 0.9148
H59_4 H 0.9395 0.9148 0.9836
H60_4 H 0.9148 0.9836 0.9395
N8_3 N 0.9687(2) 0.9615(2) 0.5473(2)
C15_5 C 0.2390(3) 0.6449(3) 0.1570(3)
C20_5 C 0.1907(3) 0.6161(3) 0.1420(3)
C25_5 C 0.1450(3) 0.6425(3) 0.1362(3)
H15_5 H 0.1444 0.6787 0.1423
C30_5 C 0.1004(3) 0.6180(3) 0.1219(3)
H20_5 H 0.0694 0.6373 0.1176
C35_5 C 0.1004(3) 0.5641(3) 0.1137(3)
C40_5 C 0.1463(3) 0.5379(3) 0.1225(3)
H25_5 H 0.1470 0.5013 0.1193
C45_5 C 0.1900(3) 0.5634(3) 0.1355(3)
H30_5 H 0.2211 0.5444 0.1403
C50_5 C 0.0511(3) 0.5374(3) 0.0962(3)
H35_5 H 0.0210 0.5576 0.1085
H40_5 H 0.0493 0.5028 0.1124
C55_5 C 0.0905(3) 0.5021(3) 0.0170(3)
H45_5 H 0.1221 0.5236 0.0187
H50_5 H 0.0963 0.4709 0.0384
C60_5 C 0.0378(3) 0.5819(3) 0.0143(3)
H55_5 H 0.0477 0.6094 0.0390
N6_4 N 0.0473(2) 0.5313(2) 0.0385(2)
O10_4 O 0.57868(18) 0.43869(17) 0.01334(19)
O14_4 O 0.0979(2) 0.13135(18) 0.0311(2)
C1_5 C 0.4890(3) 0.4070(3) 0.8949(3)
C2_5 C 0.4407(3) 0.3920(3) 0.8661(3)
C3_5 C 0.3950(3) 0.3862(3) 0.8925(3)
H1_5 H 0.3944 0.3923 0.9287
C4_5 C 0.3504(3) 0.3719(3) 0.8680(3)
H2_5 H 0.3194 0.3676 0.8873
C5_5 C 0.3504(3) 0.3637(3) 0.8141(3)
C6_5 C 0.3963(3) 0.3725(3) 0.7879(3)
H3_5 H 0.3970 0.3693 0.7513
C7_5 C 0.4400(3) 0.3855(3) 0.8134(3)
H4_5 H 0.4711 0.3903 0.7944
C8_5 C 0.3011(3) 0.3462(3) 0.7874(3)
H5_5 H 0.2710 0.3585 0.8076
H6_5 H 0.2993 0.3624 0.7528
C9_5 C 0.3405(3) 0.2670(3) 0.7521(3)
H7_5 H 0.3721 0.2687 0.7736
H8_5 H 0.3463 0.2884 0.7209
C10_5 C 0.2878(3) 0.2643(3) 0.8319(3)
H9_5 H 0.2977 0.2890 0.8594
H10_5 H 0.3105 0.2336 0.8352
N1_5 N 0.2973(2) 0.2885(2) 0.7813(2)
O1_5 O 0.48666(19) 0.42132(18) 0.93869(17)
O2_5 O 0.5311(2) 0.4021(2) 0.86865(18)
O3_5 O 0.6459(2) 0.3541(2) 0.8541(2)
Zn2_4 Zn 0.59719(4) 0.40281(4) 0.90281(4)
C11_5 C 0.3949(3) 0.0110(3) 0.5930(3)
C12_5 C 0.0930(3) 0.1051(3) 0.9890(3)
C13_5 C 0.1449(3) 0.3430(3) 0.7610(3)
C16_5 C 0.3661(3) 0.0593(3) 0.6080(3)
C17_5 C 0.1080(3) 0.1339(3) 0.9407(3)
C18_5 C 0.1161(3) 0.3580(3) 0.8093(3)
C21_5 C 0.3925(3) 0.1050(3) 0.6138(3)
C22_5 C 0.1138(3) 0.1075(3) 0.8950(3)
C23_5 C 0.1425(3) 0.3638(3) 0.8550(3)
H11_5 H 0.4287 0.1056 0.6077
H12_5 H 0.1077 0.0713 0.8944
H13_5 H 0.1787 0.3577 0.8556
C26_5 C 0.3680(3) 0.1496(3) 0.6281(3)
C27_5 C 0.1281(3) 0.1320(3) 0.8504(3)
C28_5 C 0.1180(3) 0.3781(3) 0.8996(3)
H16_5 H 0.3873 0.1806 0.6324
H17_5 H 0.1324 0.1127 0.8194
H18_5 H 0.1373 0.3824 0.9306
C31_5 C 0.3141(3) 0.1496(3) 0.6363(3)
C32_5 C 0.1363(3) 0.1859(3) 0.8504(3)
C33_5 C 0.0641(3) 0.3863(3) 0.8996(3)
C36_5 C 0.2879(3) 0.1037(3) 0.6275(3)
C37_5 C 0.1275(3) 0.2121(3) 0.8963(3)
C38_5 C 0.0379(3) 0.3775(3) 0.8537(3)
H21_5 H 0.2513 0.1030 0.6307
H22_5 H 0.1307 0.2487 0.8970
H23_5 H 0.0013 0.3807 0.8530
C41_5 C 0.3134(3) 0.0600(3) 0.6145(3)
C42_5 C 0.1145(3) 0.1866(3) 0.9400(3)
C43_5 C 0.0634(3) 0.3645(3) 0.8100(3)
H26_5 H 0.2944 0.0289 0.6097
H27_5 H 0.1097 0.2056 0.9711
H28_5 H 0.0444 0.3597 0.7789
C46_5 C 0.2874(3) 0.1989(3) 0.6538(3)
C47_5 C 0.1538(3) 0.2126(3) 0.8011(3)
C48_5 C 0.0374(3) 0.4038(3) 0.9489(3)
H31_5 H 0.3076 0.2290 0.6415
H32_5 H 0.1415 0.1924 0.7710
H33_5 H 0.0576 0.3915 0.9790
H36_5 H 0.2528 0.2007 0.6376
H37_5 H 0.1376 0.2472 0.7993
H38_5 H 0.0028 0.3876 0.9507
C51_5 C 0.2521(3) 0.1595(3) 0.7330(3)
C52_5 C 0.2330(3) 0.2479(3) 0.8405(3)
C53_5 C 0.0021(3) 0.4830(3) 0.9095(3)
H41_5 H 0.2736 0.1279 0.7313
H42_5 H 0.2313 0.2264 0.8721
H43_5 H 0.0236 0.4813 0.8779
H46_5 H 0.2209 0.1537 0.7116
H47_5 H 0.2116 0.2791 0.8463
C56_5 C 0.3319(3) 0.2122(3) 0.7357(3)
C57_5 C 0.2357(3) 0.1681(3) 0.7878(3)
C58_5 C 0.0819(3) 0.4857(3) 0.9622(3)
H51_5 H 0.3594 0.2023 0.7110
H52_5 H 0.2110 0.1406 0.7977
H53_5 H 0.1094 0.4610 0.9523
H56_5 H 0.3352 0.1895 0.7664
H57_5 H 0.2664 0.1648 0.8105
H58_5 H 0.0852 0.5164 0.9395
H59_5 H 0.0164 0.5605 0.9148
H60_5 H 0.0605 0.5852 0.9836
N2_5 N 0.2813(2) 0.2027(2) 0.7115(2)
N3_5 N 0.2115(2) 0.2187(2) 0.7973(2)
N4_4 N 0.0313(2) 0.4615(2) 0.9527(2)
O5_4 O 0.07868(18) 0.06131(17) 0.98666(19)
O6_5 O 0.18869(17) 0.32868(18) 0.76334(19)
O9_4 O 0.56131(17) 0.51334(19) 0.92132(18)
O11_4 O 0.17132(18) 0.23666(19) 0.68869(17)
O12_4 O 0.26334(19) 0.31131(17) 0.67132(18)
O15_5 O 0.11865(18) 0.3479(2) 0.7189(2)
O18_4 O 0.63135(18) 0.4689(2) 0.9021(2)
O19_4 O 0.5979(2) 0.36865(18) 0.9689(2)
O20_4 O 0.1521(2) 0.2811(2) 0.61865(18)
O21_4 O 0.2189(2) 0.38135(18) 0.6521(2)
O22_5 O 0.1041(2) 0.3959(2) 0.6041(2)
Zn3_3 Zn 0.23131(3) 0.26869(3) 0.73131(3)
Zn9_3 Zn 0.15281(4) 0.34719(4) 0.65281(4)
H49_5 H 0.9616 0.5963 0.0291
C14_5 C 0.8430(3) 0.7390(3) 0.8551(3)
C19_5 C 0.8580(3) 0.6907(3) 0.8839(3)
C24_5 C 0.8638(3) 0.6450(3) 0.8575(3)
H14_5 H 0.8577 0.6444 0.8213
C29_5 C 0.8781(3) 0.6004(3) 0.8820(3)
H19_5 H 0.8824 0.5694 0.8627
C34_5 C 0.8863(3) 0.6004(3) 0.9359(3)
C39_5 C 0.8775(3) 0.6463(3) 0.9621(3)
H24_5 H 0.8807 0.6470 0.9987
C44_5 C 0.8645(3) 0.6900(3) 0.9366(3)
H29_5 H 0.8597 0.7211 0.9556
C49_5 C 0.9038(3) 0.5511(3) 0.9626(3)
H34_5 H 0.8915 0.5210 0.9424
H39_5 H 0.8876 0.5493 0.9972
C54_5 C 0.9830(3) 0.5905(3) 0.9979(3)
H44_5 H 0.9813 0.6221 0.9764
H48_5 H 0.9709 0.4616 0.9037
C59_5 C 0.9857(3) 0.5378(3) 0.9181(3)
H54_5 H 0.9610 0.5477 0.8906
N5_4 N 0.9615(2) 0.5473(2) 0.9687(2)
O7_4 O 0.82868(18) 0.73666(19) 0.81131(17)
O16_4 O 0.8479(2) 0.7811(2) 0.88135(18)
C15_6 C 0.1570(3) 0.2390(3) 0.6449(3)
C20_6 C 0.1420(3) 0.1907(3) 0.6161(3)
C25_6 C 0.1362(3) 0.1450(3) 0.6425(3)
H15_6 H 0.1423 0.1444 0.6787
C30_6 C 0.1219(3) 0.1004(3) 0.6180(3)
H20_6 H 0.1176 0.0694 0.6373
C35_6 C 0.1137(3) 0.1004(3) 0.5641(3)
C40_6 C 0.1225(3) 0.1463(3) 0.5379(3)
H25_6 H 0.1193 0.1470 0.5013
C45_6 C 0.1355(3) 0.1900(3) 0.5634(3)
H30_6 H 0.1403 0.2211 0.5444
C50_6 C 0.0962(3) 0.0511(3) 0.5374(3)
H35_6 H 0.1085 0.0210 0.5576
H40_6 H 0.1124 0.0493 0.5028
C55_6 C 0.0170(3) 0.0905(3) 0.5021(3)
H45_6 H 0.0187 0.1221 0.5236
H50_6 H 0.0384 0.0963 0.4709
C60_6 C 0.0143(3) 0.0378(3) 0.5819(3)
H55_6 H 0.0390 0.0477 0.6094
N7_4 N 0.0313(2) 0.5385(2) 0.5473(2)
N9_4 N 0.0473(2) 0.4687(2) 0.4615(2)
O14_5 O 0.0311(2) 0.0979(2) 0.13135(18)
H49_6 H 0.0291 0.9616 0.5963
C1_6 C 0.8949(3) 0.4890(3) 0.4070(3)
C2_6 C 0.8661(3) 0.4407(3) 0.3920(3)
C3_6 C 0.8925(3) 0.3950(3) 0.3862(3)
H1_6 H 0.9287 0.3944 0.3923
C4_6 C 0.8680(3) 0.3504(3) 0.3719(3)
H2_6 H 0.8873 0.3194 0.3676
C5_6 C 0.8141(3) 0.3504(3) 0.3637(3)
C6_6 C 0.7879(3) 0.3963(3) 0.3725(3)
H3_6 H 0.7513 0.3970 0.3693
C7_6 C 0.8134(3) 0.4400(3) 0.3855(3)
H4_6 H 0.7944 0.4711 0.3903
C8_6 C 0.7874(3) 0.3011(3) 0.3462(3)
H5_6 H 0.8076 0.2710 0.3585
H6_6 H 0.7528 0.2993 0.3624
C9_6 C 0.7521(3) 0.3405(3) 0.2670(3)
H7_6 H 0.7736 0.3721 0.2687
H8_6 H 0.7209 0.3463 0.2884
C10_6 C 0.8319(3) 0.2878(3) 0.2643(3)
H9_6 H 0.8594 0.2977 0.2890
H10_6 H 0.8352 0.3105 0.2336
N1_6 N 0.7813(2) 0.2973(2) 0.2885(2)
O1_6 O 0.93869(17) 0.48666(19) 0.42132(18)
O2_6 O 0.86865(18) 0.5311(2) 0.4021(2)
O3_6 O 0.8541(2) 0.6459(2) 0.3541(2)
C11_6 C 0.5930(3) 0.3949(3) 0.0110(3)
C12_6 C 0.9890(3) 0.0930(3) 0.1051(3)
C13_6 C 0.7610(3) 0.1449(3) 0.3430(3)
C16_6 C 0.6080(3) 0.3661(3) 0.0593(3)
C17_6 C 0.9407(3) 0.1080(3) 0.1339(3)
C18_6 C 0.8093(3) 0.1161(3) 0.3580(3)
C21_6 C 0.6138(3) 0.3925(3) 0.1050(3)
C22_6 C 0.8950(3) 0.1138(3) 0.1075(3)
C23_6 C 0.8550(3) 0.1425(3) 0.3638(3)
H11_6 H 0.6077 0.4287 0.1056
H12_6 H 0.8944 0.1077 0.0713
H13_6 H 0.8556 0.1787 0.3577
C26_6 C 0.6281(3) 0.3680(3) 0.1496(3)
C27_6 C 0.8504(3) 0.1281(3) 0.1320(3)
C28_6 C 0.8996(3) 0.1180(3) 0.3781(3)
H16_6 H 0.6324 0.3873 0.1806
H17_6 H 0.8194 0.1324 0.1127
H18_6 H 0.9306 0.1373 0.3824
C31_6 C 0.6363(3) 0.3141(3) 0.1496(3)
C32_6 C 0.8504(3) 0.1363(3) 0.1859(3)
C33_6 C 0.8996(3) 0.0641(3) 0.3863(3)
C36_6 C 0.6275(3) 0.2879(3) 0.1037(3)
C37_6 C 0.8963(3) 0.1275(3) 0.2121(3)
C38_6 C 0.8537(3) 0.0379(3) 0.3775(3)
H21_6 H 0.6307 0.2513 0.1030
H22_6 H 0.8970 0.1307 0.2487
H23_6 H 0.8530 0.0013 0.3807
C41_6 C 0.6145(3) 0.3134(3) 0.0600(3)
C42_6 C 0.9400(3) 0.1145(3) 0.1866(3)
C43_6 C 0.8100(3) 0.0634(3) 0.3645(3)
H26_6 H 0.6097 0.2944 0.0289
H27_6 H 0.9711 0.1097 0.2056
H28_6 H 0.7789 0.0444 0.3597
C46_6 C 0.6538(3) 0.2874(3) 0.1989(3)
C47_6 C 0.8011(3) 0.1538(3) 0.2126(3)
C48_6 C 0.9489(3) 0.0374(3) 0.4038(3)
H31_6 H 0.6415 0.3076 0.2290
H32_6 H 0.7710 0.1415 0.1924
H33_6 H 0.9790 0.0576 0.3915
H36_6 H 0.6376 0.2528 0.2007
H37_6 H 0.7993 0.1376 0.2472
H38_6 H 0.9507 0.0028 0.3876
C51_6 C 0.7330(3) 0.2521(3) 0.1595(3)
C52_6 C 0.8405(3) 0.2330(3) 0.2479(3)
C53_6 C 0.9095(3) 0.0021(3) 0.4830(3)
H41_6 H 0.7313 0.2736 0.1279
H42_6 H 0.8721 0.2313 0.2264
H43_6 H 0.8779 0.0236 0.4813
H46_6 H 0.7116 0.2209 0.1537
H47_6 H 0.8463 0.2116 0.2791
C56_6 C 0.7357(3) 0.3319(3) 0.2122(3)
C57_6 C 0.7878(3) 0.2357(3) 0.1681(3)
C58_6 C 0.9622(3) 0.0819(3) 0.4857(3)
H51_6 H 0.7110 0.3594 0.2023
H52_6 H 0.7977 0.2110 0.1406
H53_6 H 0.9523 0.1094 0.4610
H56_6 H 0.7664 0.3352 0.1895
H57_6 H 0.8105 0.2664 0.1648
H58_6 H 0.9395 0.0852 0.5164
H59_6 H 0.9148 0.0164 0.5605
H60_6 H 0.9836 0.0605 0.5852
N2_6 N 0.7115(2) 0.2813(2) 0.2027(2)
N3_6 N 0.7973(2) 0.2115(2) 0.2187(2)
N8_4 N 0.9615(2) 0.4527(2) 0.5313(2)
O5_5 O 0.98666(19) 0.07868(18) 0.06131(17)
O6_6 O 0.76334(19) 0.18869(17) 0.32868(18)
O9_5 O 0.92132(18) 0.56131(17) 0.51334(19)
O12_5 O 0.67132(18) 0.26334(19) 0.31131(17)
O15_6 O 0.7189(2) 0.11865(18) 0.3479(2)
O18_5 O 0.9021(2) 0.63135(18) 0.4689(2)
O21_5 O 0.6521(2) 0.2189(2) 0.38135(18)
O22_6 O 0.6041(2) 0.1041(2) 0.3959(2)
C14_6 C 0.8551(3) 0.8430(3) 0.7390(3)
C19_6 C 0.8839(3) 0.8580(3) 0.6907(3)
C24_6 C 0.8575(3) 0.8638(3) 0.6450(3)
H14_6 H 0.8213 0.8577 0.6444
C29_6 C 0.8820(3) 0.8781(3) 0.6004(3)
H19_6 H 0.8627 0.8824 0.5694
C34_6 C 0.9359(3) 0.8863(3) 0.6004(3)
C39_6 C 0.9621(3) 0.8775(3) 0.6463(3)
H24_6 H 0.9987 0.8807 0.6470
C44_6 C 0.9366(3) 0.8645(3) 0.6900(3)
H29_6 H 0.9556 0.8597 0.7211
C49_6 C 0.9626(3) 0.9038(3) 0.5511(3)
H34_6 H 0.9424 0.8915 0.5210
H39_6 H 0.9972 0.8876 0.5493
C54_6 C 0.9979(3) 0.9830(3) 0.5905(3)
H44_6 H 0.9764 0.9813 0.6221
H48_6 H 0.9037 0.9709 0.4616
C59_6 C 0.9181(3) 0.9857(3) 0.5378(3)
H54_6 H 0.8906 0.9610 0.5477
O7_5 O 0.81131(17) 0.82868(18) 0.73666(19)
O16_5 O 0.88135(18) 0.8479(2) 0.7811(2)
O14_6 O 0.9021(2) 0.36865(18) 0.0311(2)
C1_7 C 0.5110(3) 0.0930(3) 0.8949(3)
C2_7 C 0.5593(3) 0.1080(3) 0.8661(3)
C3_7 C 0.6050(3) 0.1138(3) 0.8925(3)
H1_7 H 0.6056 0.1077 0.9287
C4_7 C 0.6496(3) 0.1281(3) 0.8680(3)
H2_7 H 0.6806 0.1324 0.8873
C5_7 C 0.6496(3) 0.1363(3) 0.8141(3)
C6_7 C 0.6037(3) 0.1275(3) 0.7879(3)
H3_7 H 0.6030 0.1307 0.7513
C7_7 C 0.5600(3) 0.1145(3) 0.8134(3)
H4_7 H 0.5289 0.1097 0.7944
C8_7 C 0.6989(3) 0.1538(3) 0.7874(3)
H5_7 H 0.7290 0.1415 0.8076
H6_7 H 0.7007 0.1376 0.7528
C9_7 C 0.6595(3) 0.2330(3) 0.7521(3)
H7_7 H 0.6279 0.2313 0.7736
H8_7 H 0.6537 0.2116 0.7209
C10_7 C 0.7122(3) 0.2357(3) 0.8319(3)
H9_7 H 0.7023 0.2110 0.8594
H10_7 H 0.6895 0.2664 0.8352
N1_7 N 0.7027(2) 0.2115(2) 0.7813(2)
C11_7 C 0.6051(3) 0.4890(3) 0.5930(3)
C12_7 C 0.9070(3) 0.3949(3) 0.9890(3)
C16_7 C 0.6339(3) 0.4407(3) 0.6080(3)
C17_7 C 0.8920(3) 0.3661(3) 0.9407(3)
C21_7 C 0.6075(3) 0.3950(3) 0.6138(3)
C22_7 C 0.8862(3) 0.3925(3) 0.8950(3)
H11_7 H 0.5713 0.3944 0.6077
H12_7 H 0.8923 0.4287 0.8944
C26_7 C 0.6320(3) 0.3504(3) 0.6281(3)
C27_7 C 0.8719(3) 0.3680(3) 0.8504(3)
H16_7 H 0.6127 0.3194 0.6324
H17_7 H 0.8676 0.3873 0.8194
C31_7 C 0.6859(3) 0.3504(3) 0.6363(3)
C32_7 C 0.8637(3) 0.3141(3) 0.8504(3)
C36_7 C 0.7121(3) 0.3963(3) 0.6275(3)
C37_7 C 0.8725(3) 0.2879(3) 0.8963(3)
H21_7 H 0.7487 0.3970 0.6307
H22_7 H 0.8693 0.2513 0.8970
C41_7 C 0.6866(3) 0.4400(3) 0.6145(3)
C42_7 C 0.8855(3) 0.3134(3) 0.9400(3)
H26_7 H 0.7056 0.4711 0.6097
H27_7 H 0.8903 0.2944 0.9711
C46_7 C 0.7126(3) 0.3011(3) 0.6538(3)
C47_7 C 0.8462(3) 0.2874(3) 0.8011(3)
H31_7 H 0.6924 0.2710 0.6415
H32_7 H 0.8585 0.3076 0.7710
H36_7 H 0.7472 0.2993 0.6376
H37_7 H 0.8624 0.2528 0.7993
C51_7 C 0.7479(3) 0.3405(3) 0.7330(3)
C52_7 C 0.7670(3) 0.2521(3) 0.8405(3)
H41_7 H 0.7264 0.3721 0.7313
H42_7 H 0.7687 0.2736 0.8721
H46_7 H 0.7791 0.3463 0.7116
H47_7 H 0.7884 0.2209 0.8463
C56_7 C 0.6681(3) 0.2878(3) 0.7357(3)
C57_7 C 0.7643(3) 0.3319(3) 0.7878(3)
H51_7 H 0.6406 0.2977 0.7110
H52_7 H 0.7890 0.3594 0.7977
H56_7 H 0.6648 0.3105 0.7664
H57_7 H 0.7336 0.3352 0.8105
N2_7 N 0.7187(2) 0.2973(2) 0.7115(2)
N3_7 N 0.7885(2) 0.2813(2) 0.7973(2)
O5_6 O 0.92132(18) 0.43869(17) 0.98666(19)
O11_5 O 0.82868(18) 0.26334(19) 0.68869(17)
O20_5 O 0.8479(2) 0.2189(2) 0.61865(18)
O22_7 O 0.8959(2) 0.1041(2) 0.6041(2)
C13_7 C 0.1449(3) 0.6570(3) 0.7390(3)
C15_7 C 0.2390(3) 0.3551(3) 0.3430(3)
C18_7 C 0.1161(3) 0.6420(3) 0.6907(3)
C20_7 C 0.1907(3) 0.3839(3) 0.3580(3)
C23_7 C 0.1425(3) 0.6362(3) 0.6450(3)
C25_7 C 0.1450(3) 0.3575(3) 0.3638(3)
H13_7 H 0.1787 0.6423 0.6444
H15_7 H 0.1444 0.3213 0.3577
C28_7 C 0.1180(3) 0.6219(3) 0.6004(3)
C30_7 C 0.1004(3) 0.3820(3) 0.3781(3)
H18_7 H 0.1373 0.6176 0.5694
H20_7 H 0.0694 0.3627 0.3824
C33_7 C 0.0641(3) 0.6137(3) 0.6004(3)
C35_7 C 0.1004(3) 0.4359(3) 0.3863(3)
C38_7 C 0.0379(3) 0.6225(3) 0.6463(3)
C40_7 C 0.1463(3) 0.4621(3) 0.3775(3)
H23_7 H 0.0013 0.6193 0.6470
H25_7 H 0.1470 0.4987 0.3807
C43_7 C 0.0634(3) 0.6355(3) 0.6900(3)
C45_7 C 0.1900(3) 0.4366(3) 0.3645(3)
H28_7 H 0.0444 0.6403 0.7211
H30_7 H 0.2211 0.4556 0.3597
C48_7 C 0.0374(3) 0.5962(3) 0.5511(3)
C50_7 C 0.0511(3) 0.4626(3) 0.4038(3)
H33_7 H 0.0576 0.6085 0.5210
H35_7 H 0.0210 0.4424 0.3915
H38_7 H 0.0028 0.6124 0.5493
H40_7 H 0.0493 0.4972 0.3876
C53_7 C 0.0021(3) 0.5170(3) 0.5905(3)
C55_7 C 0.0905(3) 0.4979(3) 0.4830(3)
H43_7 H 0.0236 0.5187 0.6221
H45_7 H 0.1221 0.4764 0.4813
H50_7 H 0.0963 0.5291 0.4616
C58_7 C 0.0819(3) 0.5143(3) 0.5378(3)
C60_7 C 0.0378(3) 0.4181(3) 0.4857(3)
H53_7 H 0.1094 0.5390 0.5477
H55_7 H 0.0477 0.3906 0.4610
H58_7 H 0.0852 0.4836 0.5605
H59_7 H 0.0164 0.4395 0.5852
H60_7 H 0.0605 0.4148 0.5164
C14_7 C 0.8430(3) 0.2610(3) 0.6449(3)
C19_7 C 0.8580(3) 0.3093(3) 0.6161(3)
C24_7 C 0.8638(3) 0.3550(3) 0.6425(3)
H14_7 H 0.8577 0.3556 0.6787
C29_7 C 0.8781(3) 0.3996(3) 0.6180(3)
H19_7 H 0.8824 0.4306 0.6373
C34_7 C 0.8863(3) 0.3996(3) 0.5641(3)
C39_7 C 0.8775(3) 0.3537(3) 0.5379(3)
H24_7 H 0.8807 0.3530 0.5013
C44_7 C 0.8645(3) 0.3100(3) 0.5634(3)
H29_7 H 0.8597 0.2789 0.5444
C49_7 C 0.9038(3) 0.4489(3) 0.5374(3)
H34_7 H 0.8915 0.4790 0.5576
H39_7 H 0.8876 0.4507 0.5028
C54_7 C 0.9830(3) 0.4095(3) 0.5021(3)
H44_7 H 0.9813 0.3779 0.5236
H48_7 H 0.9709 0.5384 0.5963
H49_7 H 0.9616 0.4037 0.4709
C59_7 C 0.9857(3) 0.4622(3) 0.5819(3)
H54_7 H 0.9610 0.4523 0.6094
O3_7 O 0.8541(2) 0.3541(2) 0.1459(2)
O3_8 O 0.8959(2) 0.8959(2) 0.8959(2)
N7_5 N 0.7187(2) 0.7027(2) 0.7885(2)
N8_5 N 0.7885(2) 0.7187(2) 0.7027(2)
N9_5 N 0.7027(2) 0.7885(2) 0.7187(2)
C1_8 C 0.3551(3) 0.6570(3) 0.2610(3)
C2_8 C 0.3839(3) 0.6420(3) 0.3093(3)
C3_8 C 0.3575(3) 0.6362(3) 0.3550(3)
H1_8 H 0.3213 0.6423 0.3556
C4_8 C 0.3820(3) 0.6219(3) 0.3996(3)
H2_8 H 0.3627 0.6176 0.4306
C5_8 C 0.4359(3) 0.6137(3) 0.3996(3)
C6_8 C 0.4621(3) 0.6225(3) 0.3537(3)
H3_8 H 0.4987 0.6193 0.3530
C7_8 C 0.4366(3) 0.6355(3) 0.3100(3)
H4_8 H 0.4556 0.6403 0.2789
C8_8 C 0.4626(3) 0.5962(3) 0.4489(3)
H5_8 H 0.4424 0.6085 0.4790
H6_8 H 0.4972 0.6124 0.4507
C9_8 C 0.4979(3) 0.5170(3) 0.4095(3)
H7_8 H 0.4764 0.5187 0.3779
H8_8 H 0.5291 0.5384 0.4037
C10_8 C 0.4181(3) 0.5143(3) 0.4622(3)
H9_8 H 0.3906 0.5390 0.4523
H10_8 H 0.4148 0.4836 0.4395
C11_8 C 0.6570(3) 0.2610(3) 0.3551(3)
C12_8 C 0.2610(3) 0.3551(3) 0.6570(3)
C16_8 C 0.6420(3) 0.3093(3) 0.3839(3)
C17_8 C 0.3093(3) 0.3839(3) 0.6420(3)
C21_8 C 0.6362(3) 0.3550(3) 0.3575(3)
C22_8 C 0.3550(3) 0.3575(3) 0.6362(3)
H11_8 H 0.6423 0.3556 0.3213
H12_8 H 0.3556 0.3213 0.6423
C26_8 C 0.6219(3) 0.3996(3) 0.3820(3)
C27_8 C 0.3996(3) 0.3820(3) 0.6219(3)
H16_8 H 0.6176 0.4306 0.3627
H17_8 H 0.4306 0.3627 0.6176
C31_8 C 0.6137(3) 0.3996(3) 0.4359(3)
C32_8 C 0.3996(3) 0.4359(3) 0.6137(3)
C36_8 C 0.6225(3) 0.3537(3) 0.4621(3)
C37_8 C 0.3537(3) 0.4621(3) 0.6225(3)
H21_8 H 0.6193 0.3530 0.4987
H22_8 H 0.3530 0.4987 0.6193
C41_8 C 0.6355(3) 0.3100(3) 0.4366(3)
C42_8 C 0.3100(3) 0.4366(3) 0.6355(3)
H26_8 H 0.6403 0.2789 0.4556
H27_8 H 0.2789 0.4556 0.6403
C46_8 C 0.5962(3) 0.4489(3) 0.4626(3)
C47_8 C 0.4489(3) 0.4626(3) 0.5962(3)
H31_8 H 0.6085 0.4790 0.4424
H32_8 H 0.4790 0.4424 0.6085
H36_8 H 0.6124 0.4507 0.4972
H37_8 H 0.4507 0.4972 0.6124
C51_8 C 0.5170(3) 0.4095(3) 0.4979(3)
C52_8 C 0.4095(3) 0.4979(3) 0.5170(3)
H41_8 H 0.5187 0.3779 0.4764
H42_8 H 0.3779 0.4764 0.5187
H46_8 H 0.5384 0.4037 0.5291
H47_8 H 0.4037 0.5291 0.5384
C56_8 C 0.5143(3) 0.4622(3) 0.4181(3)
C57_8 C 0.4622(3) 0.4181(3) 0.5143(3)
H51_8 H 0.5390 0.4523 0.3906
H52_8 H 0.4523 0.3906 0.5390
H56_8 H 0.4836 0.4395 0.4148
H57_8 H 0.4395 0.4148 0.4836
O3_9 O 0.1459(2) 0.1459(2) 0.1459(2)
C1_9 C 0.9070(3) 0.6051(3) 0.5110(3)
C2_9 C 0.8920(3) 0.6339(3) 0.5593(3)
C3_9 C 0.8862(3) 0.6075(3) 0.6050(3)
H1_9 H 0.8923 0.5713 0.6056
C4_9 C 0.8719(3) 0.6320(3) 0.6496(3)
H2_9 H 0.8676 0.6127 0.6806
C5_9 C 0.8637(3) 0.6859(3) 0.6496(3)
C6_9 C 0.8725(3) 0.7121(3) 0.6037(3)
H3_9 H 0.8693 0.7487 0.6030
C7_9 C 0.8855(3) 0.6866(3) 0.5600(3)
H4_9 H 0.8903 0.7056 0.5289
C8_9 C 0.8462(3) 0.7126(3) 0.6989(3)
H5_9 H 0.8585 0.6924 0.7290
H6_9 H 0.8624 0.7472 0.7007
C9_9 C 0.7670(3) 0.7479(3) 0.6595(3)
H7_9 H 0.7687 0.7264 0.6279
H8_9 H 0.7884 0.7791 0.6537
C10_9 C 0.7643(3) 0.6681(3) 0.7122(3)
H9_9 H 0.7890 0.6406 0.7023
H10_9 H 0.7336 0.6648 0.6895
C11_9 C 0.5110(3) 0.9070(3) 0.6051(3)
C12_9 C 0.6051(3) 0.5110(3) 0.9070(3)
C16_9 C 0.5593(3) 0.8920(3) 0.6339(3)
C17_9 C 0.6339(3) 0.5593(3) 0.8920(3)
C21_9 C 0.6050(3) 0.8862(3) 0.6075(3)
C22_9 C 0.6075(3) 0.6050(3) 0.8862(3)
H11_9 H 0.6056 0.8923 0.5713
H12_9 H 0.5713 0.6056 0.8923
C26_9 C 0.6496(3) 0.8719(3) 0.6320(3)
C27_9 C 0.6320(3) 0.6496(3) 0.8719(3)
H16_9 H 0.6806 0.8676 0.6127
H17_9 H 0.6127 0.6806 0.8676
C31_9 C 0.6496(3) 0.8637(3) 0.6859(3)
C32_9 C 0.6859(3) 0.6496(3) 0.8637(3)
C36_9 C 0.6037(3) 0.8725(3) 0.7121(3)
C37_9 C 0.7121(3) 0.6037(3) 0.8725(3)
H21_9 H 0.6030 0.8693 0.7487
H22_9 H 0.7487 0.6030 0.8693
C41_9 C 0.5600(3) 0.8855(3) 0.6866(3)
C42_9 C 0.6866(3) 0.5600(3) 0.8855(3)
H26_9 H 0.5289 0.8903 0.7056
H27_9 H 0.7056 0.5289 0.8903
C46_9 C 0.6989(3) 0.8462(3) 0.7126(3)
C47_9 C 0.7126(3) 0.6989(3) 0.8462(3)
H31_9 H 0.7290 0.8585 0.6924
H32_9 H 0.6924 0.7290 0.8585
H36_9 H 0.7007 0.8624 0.7472
H37_9 H 0.7472 0.7007 0.8624
C51_9 C 0.6595(3) 0.7670(3) 0.7479(3)
C52_9 C 0.7479(3) 0.6595(3) 0.7670(3)
H41_9 H 0.6279 0.7687 0.7264
H42_9 H 0.7264 0.6279 0.7687
H46_9 H 0.6537 0.7884 0.7791
H47_9 H 0.7791 0.6537 0.7884
C56_9 C 0.7122(3) 0.7643(3) 0.6681(3)
C57_9 C 0.6681(3) 0.7122(3) 0.7643(3)
H51_9 H 0.7023 0.7890 0.6406
H52_9 H 0.6406 0.7023 0.7890
H56_9 H 0.6895 0.7336 0.6648
H57_9 H 0.6648 0.6895 0.7336
loop_
_geom_bond_atom_site_label_1
_geom_bond_atom_site_label_2
_geom_bond_site_symmetry_1
_geom_bond_site_symmetry_2
C15 C20 1_555 1_555
C20 C25 1_555 1_555
C25 H15 1_555 1_555
C30 C25 1_555 1_555
H20 C30 1_555 1_555
C35 C30 1_555 1_555
C40 C35 1_555 1_555
H25 C40 1_555 1_555
C45 C20 1_555 1_555
H30 C45 1_555 1_555
C50 C35 1_555 1_555
H35 C50 1_555 1_555
H40 C50 1_555 1_555
C55 H45 1_555 1_555
H50 C55 1_555 1_555
H55 C60 1_555 1_555
N6 C50 1_555 1_555
O8 C15 1_555 1_555
O17 C15 1_555 1_555
Zn7 O8 1_555 1_555
Zn12 O17 1_555 1_555
Zn13 O14 1_555 1_555
C40 C45 1_555 1_555
C55 N6 1_555 1_555
C60 N6 1_555 1_555
C1 C2 1_555 1_555
C2 C3 1_555 1_555
C3 H1 1_555 1_555
C4 C3 1_555 1_555
H2 C4 1_555 1_555
C5 C4 1_555 1_555
C6 C5 1_555 1_555
H3 C6 1_555 1_555
C7 C2 1_555 1_555
H4 C7 1_555 1_555
C8 C5 1_555 1_555
H5 C8 1_555 1_555
H6 C8 1_555 1_555
C9 H7 1_555 1_555
H8 C9 1_555 1_555
C10 H9 1_555 1_555
H10 C10 1_555 1_555
N1 C8 1_555 1_555
O1 C1 1_555 1_555
O2 C1 1_555 1_555
O3 Zn2 1_555 1_555
Zn1 O1 1_555 1_555
Zn2 O2 1_555 1_555
C11 C16 1_555 1_555
C12 C17 1_555 1_555
C13 C18 1_555 1_555
C16 C21 1_555 1_555
C17 C22 1_555 1_555
C18 C23 1_555 1_555
C21 H11 1_555 1_555
C22 H12 1_555 1_555
C23 H13 1_555 1_555
C26 C21 1_555 1_555
C27 C22 1_555 1_555
C28 C23 1_555 1_555
H16 C26 1_555 1_555
H17 C27 1_555 1_555
H18 C28 1_555 1_555
C31 C26 1_555 1_555
C32 C27 1_555 1_555
C33 C28 1_555 1_555
C36 C31 1_555 1_555
C37 C32 1_555 1_555
C38 C33 1_555 1_555
H21 C36 1_555 1_555
H22 C37 1_555 1_555
H23 C38 1_555 1_555
C41 C16 1_555 1_555
C42 C17 1_555 1_555
C43 C18 1_555 1_555
H26 C41 1_555 1_555
H27 C42 1_555 1_555
H28 C43 1_555 1_555
C46 C31 1_555 1_555
C47 C32 1_555 1_555
C48 C33 1_555 1_555
H31 C46 1_555 1_555
H32 C47 1_555 1_555
H33 C48 1_555 1_555
H36 C46 1_555 1_555
H37 C47 1_555 1_555
H38 C48 1_555 1_555
C51 H41 1_555 1_555
C52 C10 1_555 1_555
C53 H43 1_555 1_555
H42 C52 1_555 1_555
H46 C51 1_555 1_555
H47 C52 1_555 1_555
C56 C9 1_555 1_555
C57 C51 1_555 1_555
H51 C56 1_555 1_555
H52 C57 1_555 1_555
H53 C58 1_555 1_555
H56 C56 1_555 1_555
H57 C57 1_555 1_555
H58 C58 1_555 1_555
N2 C46 1_555 1_555
N3 C47 1_555 1_555
N4 C48 1_555 1_555
N8 Zn1 1_555 1_555
O4 C11 1_555 1_555
O5 C12 1_555 1_555
O6 C13 1_555 1_555
O9 Zn1 1_555 1_555
O11 Zn3 1_555 1_555
O12 Zn3 1_555 1_555
O15 C13 1_555 1_555
O18 Zn2 1_555 1_555
O19 Zn2 1_555 1_555
O20 Zn9 1_555 1_555
O21 Zn9 1_555 1_555
O22 Zn9 1_555 1_555
Zn3 N1 1_555 1_555
Zn9 O15 1_555 1_555
C6 C7 1_555 1_555
C9 N1 1_555 1_555
C10 N1 1_555 1_555
C36 C41 1_555 1_555
C37 C42 1_555 1_555
C38 C43 1_555 1_555
C51 N2 1_555 1_555
C52 N3 1_555 1_555
C53 N4 1_555 1_555
C56 N2 1_555 1_555
C57 N3 1_555 1_555
C58 N4 1_555 1_555
N2 Zn3 1_555 1_555
N3 Zn3 1_555 1_555
O6 Zn3 1_555 1_555
C14 C19 1_555 1_555
C19 C24 1_555 1_555
C24 H14 1_555 1_555
C29 C24 1_555 1_555
H19 C29 1_555 1_555
C34 C29 1_555 1_555
C39 C34 1_555 1_555
H24 C39 1_555 1_555
C44 C19 1_555 1_555
H29 C44 1_555 1_555
C49 C34 1_555 1_555
H34 C49 1_555 1_555
H39 C49 1_555 1_555
C54 H44 1_555 1_555
H54 C59 1_555 1_555
N5 C49 1_555 1_555
O7 C14 1_555 1_555
O16 C14 1_555 1_555
Zn6 O7 1_555 1_555
Zn11 O16 1_555 1_555
C39 C44 1_555 1_555
C54 N5 1_555 1_555
C59 N5 1_555 1_555
Zn10 O13 1_555 1_555
Zn10_2 O13_2 1_555 1_555
C1_2 C2_2 1_555 1_555
C2_2 C3_2 1_555 1_555
C3_2 H1_2 1_555 1_555
C4_2 C3_2 1_555 1_555
H2_2 C4_2 1_555 1_555
C5_2 C4_2 1_555 1_555
C6_2 C5_2 1_555 1_555
H3_2 C6_2 1_555 1_555
C7_2 C2_2 1_555 1_555
H4_2 C7_2 1_555 1_555
C8_2 C5_2 1_555 1_555
H5_2 C8_2 1_555 1_555
H6_2 C8_2 1_555 1_555
C9_2 H7_2 1_555 1_555
H8_2 C9_2 1_555 1_555
C10_2 H9_2 1_555 1_555
H10_2 C10_2 1_555 1_555
N1_2 C8_2 1_555 1_555
O1_2 C1_2 1_555 1_555
O2_2 C1_2 1_555 1_555
O3_2 Zn2_2 1_555 1_555
Zn1_2 O1_2 1_555 1_555
Zn2_2 O2_2 1_555 1_555
C11_2 C16_2 1_555 1_555
C12_2 C17_2 1_555 1_555
C13_2 C18_2 1_555 1_555
C15_2 C20_2 1_555 1_555
C16_2 C21_2 1_555 1_555
C17_2 C22_2 1_555 1_555
C18_2 C23_2 1_555 1_555
C20_2 C25_2 1_555 1_555
C21_2 H11_2 1_555 1_555
C22_2 H12_2 1_555 1_555
C23_2 H13_2 1_555 1_555
C25_2 H15_2 1_555 1_555
C26_2 C21_2 1_555 1_555
C27_2 C22_2 1_555 1_555
C28_2 C23_2 1_555 1_555
C30_2 C25_2 1_555 1_555
H16_2 C26_2 1_555 1_555
H17_2 C27_2 1_555 1_555
H18_2 C28_2 1_555 1_555
H20_2 C30_2 1_555 1_555
C31_2 C26_2 1_555 1_555
C32_2 C27_2 1_555 1_555
C33_2 C28_2 1_555 1_555
C35_2 C30_2 1_555 1_555
C36_2 C31_2 1_555 1_555
C37_2 C32_2 1_555 1_555
C38_2 C33_2 1_555 1_555
C40_2 C35_2 1_555 1_555
H21_2 C36_2 1_555 1_555
H22_2 C37_2 1_555 1_555
H23_2 C38_2 1_555 1_555
H25_2 C40_2 1_555 1_555
C41_2 C16_2 1_555 1_555
C42_2 C17_2 1_555 1_555
C43_2 C18_2 1_555 1_555
C45_2 C20_2 1_555 1_555
H26_2 C41_2 1_555 1_555
H27_2 C42_2 1_555 1_555
H28_2 C43_2 1_555 1_555
H30_2 C45_2 1_555 1_555
C46_2 C31_2 1_555 1_555
C47_2 C32_2 1_555 1_555
C48_2 C33_2 1_555 1_555
C50_2 C35_2 1_555 1_555
H31_2 C46_2 1_555 1_555
H32_2 C47_2 1_555 1_555
H33_2 C48_2 1_555 1_555
H35_2 C50_2 1_555 1_555
H36_2 C46_2 1_555 1_555
H37_2 C47_2 1_555 1_555
H38_2 C48_2 1_555 1_555
H40_2 C50_2 1_555 1_555
C51_2 H41_2 1_555 1_555
C52_2 C10_2 1_555 1_555
C53_2 H43_2 1_555 1_555
C55_2 H45_2 1_555 1_555
H42_2 C52_2 1_555 1_555
H46_2 C51_2 1_555 1_555
H47_2 C52_2 1_555 1_555
H50_2 C55_2 1_555 1_555
C56_2 C9_2 1_555 1_555
C57_2 C51_2 1_555 1_555
C58_2 C55_2 1_555 1_555
H51_2 C56_2 1_555 1_555
H52_2 C57_2 1_555 1_555
H53_2 C58_2 1_555 1_555
H55_2 C60_2 1_555 1_555
H56_2 C56_2 1_555 1_555
H57_2 C57_2 1_555 1_555
H58_2 C58_2 1_555 1_555
H60_2 C60_2 1_555 1_555
N2_2 C46_2 1_555 1_555
N3_2 C47_2 1_555 1_555
N4_2 C48_2 1_555 1_555
N6_2 C50_2 1_555 1_555
N7_2 Zn1_2 1_555 1_555
N8_2 Zn1_2 1_555 1_555
N9_2 Zn1_2 1_555 1_555
O4_2 C11_2 1_555 1_555
O5_2 C12_2 1_555 1_555
O6_2 C13_2 1_555 1_555
O8_2 C15_2 1_555 1_555
O9_2 Zn1_2 1_555 1_555
O10_2 Zn1_2 1_555 1_555
O11_2 Zn3_2 1_555 1_555
O12_2 Zn3_2 1_555 1_555
O14_2 C12_2 1_555 1_555
O15_2 C13_2 1_555 1_555
O17_2 C15_2 1_555 1_555
O18_2 Zn2_2 1_555 1_555
O19_2 Zn2_2 1_555 1_555
O20_2 Zn9_2 1_555 1_555
O21_2 Zn9_2 1_555 1_555
O22_2 Zn9_2 1_555 1_555
Zn3_2 N1_2 1_555 1_555
Zn7_2 O8_2 1_555 1_555
Zn8_2 O5_2 1_555 1_555
Zn9_2 O15_2 1_555 1_555
Zn12_2 O17_2 1_555 1_555
Zn13_2 O14_2 1_555 1_555
C6_2 C7_2 1_555 1_555
C9_2 N1_2 1_555 1_555
C10_2 N1_2 1_555 1_555
C36_2 C41_2 1_555 1_555
C37_2 C42_2 1_555 1_555
C38_2 C43_2 1_555 1_555
C40_2 C45_2 1_555 1_555
C51_2 N2_2 1_555 1_555
C52_2 N3_2 1_555 1_555
C53_2 N4_2 1_555 1_555
C55_2 N6_2 1_555 1_555
C56_2 N2_2 1_555 1_555
C57_2 N3_2 1_555 1_555
C58_2 N4_2 1_555 1_555
C60_2 N6_2 1_555 1_555
N2_2 Zn3_2 1_555 1_555
N3_2 Zn3_2 1_555 1_555
O6_2 Zn3_2 1_555 1_555
C14_2 C19_2 1_555 1_555
C19_2 C24_2 1_555 1_555
C24_2 H14_2 1_555 1_555
C29_2 C24_2 1_555 1_555
H19_2 C29_2 1_555 1_555
C34_2 C29_2 1_555 1_555
C39_2 C34_2 1_555 1_555
H24_2 C39_2 1_555 1_555
C44_2 C19_2 1_555 1_555
H29_2 C44_2 1_555 1_555
C49_2 C34_2 1_555 1_555
H34_2 C49_2 1_555 1_555
H39_2 C49_2 1_555 1_555
C54_2 H44_2 1_555 1_555
H49_2 C54_2 1_555 1_555
H54_2 C59_2 1_555 1_555
N5_2 C49_2 1_555 1_555
O7_2 C14_2 1_555 1_555
O16_2 C14_2 1_555 1_555
Zn6_2 O7_2 1_555 1_555
Zn11_2 O16_2 1_555 1_555
C39_2 C44_2 1_555 1_555
C54_2 N5_2 1_555 1_555
C59_2 N5_2 1_555 1_555
N5_2 Zn4_2 1_555 1_555
C1_3 C2_3 1_555 1_555
C2_3 C3_3 1_555 1_555
C3_3 H1_3 1_555 1_555
C4_3 C3_3 1_555 1_555
H2_3 C4_3 1_555 1_555
C5_3 C4_3 1_555 1_555
C6_3 C5_3 1_555 1_555
H3_3 C6_3 1_555 1_555
C7_3 C2_3 1_555 1_555
H4_3 C7_3 1_555 1_555
C8_3 C5_3 1_555 1_555
H5_3 C8_3 1_555 1_555
H6_3 C8_3 1_555 1_555
C9_3 H7_3 1_555 1_555
H8_3 C9_3 1_555 1_555
C10_3 H9_3 1_555 1_555
H10_3 C10_3 1_555 1_555
N1_3 C8_3 1_555 1_555
O1_3 C1_3 1_555 1_555
C11_3 C16_3 1_555 1_555
C12_3 C17_3 1_555 1_555
C13_3 C18_3 1_555 1_555
C14_3 C19_3 1_555 1_555
C16_3 C21_3 1_555 1_555
C17_3 C22_3 1_555 1_555
C18_3 C23_3 1_555 1_555
C19_3 C24_3 1_555 1_555
C21_3 H11_3 1_555 1_555
C22_3 H12_3 1_555 1_555
C23_3 H13_3 1_555 1_555
C24_3 H14_3 1_555 1_555
C26_3 C21_3 1_555 1_555
C27_3 C22_3 1_555 1_555
C28_3 C23_3 1_555 1_555
C29_3 C24_3 1_555 1_555
H16_3 C26_3 1_555 1_555
H17_3 C27_3 1_555 1_555
H18_3 C28_3 1_555 1_555
H19_3 C29_3 1_555 1_555
C31_3 C26_3 1_555 1_555
C32_3 C27_3 1_555 1_555
C33_3 C28_3 1_555 1_555
C34_3 C29_3 1_555 1_555
C36_3 C31_3 1_555 1_555
C37_3 C32_3 1_555 1_555
C38_3 C33_3 1_555 1_555
C39_3 C34_3 1_555 1_555
H21_3 C36_3 1_555 1_555
H22_3 C37_3 1_555 1_555
H23_3 C38_3 1_555 1_555
H24_3 C39_3 1_555 1_555
C41_3 C16_3 1_555 1_555
C42_3 C17_3 1_555 1_555
C43_3 C18_3 1_555 1_555
C44_3 C19_3 1_555 1_555
H26_3 C41_3 1_555 1_555
H27_3 C42_3 1_555 1_555
H28_3 C43_3 1_555 1_555
H29_3 C44_3 1_555 1_555
C46_3 C31_3 1_555 1_555
C47_3 C32_3 1_555 1_555
C48_3 C33_3 1_555 1_555
C49_3 C34_3 1_555 1_555
H31_3 C46_3 1_555 1_555
H32_3 C47_3 1_555 1_555
H33_3 C48_3 1_555 1_555
H34_3 C49_3 1_555 1_555
H36_3 C46_3 1_555 1_555
H37_3 C47_3 1_555 1_555
H38_3 C48_3 1_555 1_555
H39_3 C49_3 1_555 1_555
C51_3 H41_3 1_555 1_555
C52_3 C10_3 1_555 1_555
C53_3 H43_3 1_555 1_555
C54_3 H44_3 1_555 1_555
H42_3 C52_3 1_555 1_555
H46_3 C51_3 1_555 1_555
H47_3 C52_3 1_555 1_555
H48_3 C53_3 1_555 1_555
C56_3 C9_3 1_555 1_555
C57_3 C51_3 1_555 1_555
C59_3 C53_3 1_555 1_555
H51_3 C56_3 1_555 1_555
H52_3 C57_3 1_555 1_555
H53_3 C58_3 1_555 1_555
H54_3 C59_3 1_555 1_555
H56_3 C56_3 1_555 1_555
H57_3 C57_3 1_555 1_555
H58_3 C58_3 1_555 1_555
H59_3 C59_3 1_555 1_555
N2_3 C46_3 1_555 1_555
N3_3 C47_3 1_555 1_555
N9 C48_3 1_555 1_555
N7 C49_3 1_555 1_555
O4_3 C11_3 1_555 1_555
O5_3 C12_3 1_555 1_555
O6_3 C13_3 1_555 1_555
O7_3 C14_3 1_555 1_555
O11_3 Zn7_2 1_555 1_555
O15_3 C13_3 1_555 1_555
O16_3 C14_3 1_555 1_555
O20_3 Zn12_2 1_555 1_555
O22_3 Zn12_2 1_555 1_555
Zn7_2 N1_3 1_555 1_555
Zn6_3 O7_3 1_555 1_555
Zn12_2 O15_3 1_555 1_555
Zn11_3 O16_3 1_555 1_555
C6_3 C7_3 1_555 1_555
C9_3 N1_3 1_555 1_555
C10_3 N1_3 1_555 1_555
C36_3 C41_3 1_555 1_555
C37_3 C42_3 1_555 1_555
C38_3 C43_3 1_555 1_555
C39_3 C44_3 1_555 1_555
C51_3 N2_3 1_555 1_555
C52_3 N3_3 1_555 1_555
C53_3 N9 1_555 1_555
C54_3 N7 1_555 1_555
C56_3 N2_3 1_555 1_555
C57_3 N3_3 1_555 1_555
C58_3 N9 1_555 1_555
C59_3 N7 1_555 1_555
N2_3 Zn7_2 1_555 1_555
N3_3 Zn7_2 1_555 1_555
O6_3 Zn7_2 1_555 1_555
O3_3 Zn2_3 1_555 1_555
Zn2_3 O2_3 1_555 1_555
O9_3 Zn4 1_555 1_555
O18_3 Zn2_3 1_555 1_555
O19_3 Zn2_3 1_555 1_555
C15_3 C20_3 1_555 1_555
C20_3 C25_3 1_555 1_555
C25_3 H15_3 1_555 1_555
C30_3 C25_3 1_555 1_555
H20_3 C30_3 1_555 1_555
C35_3 C30_3 1_555 1_555
C40_3 C35_3 1_555 1_555
H25_3 C40_3 1_555 1_555
C45_3 C20_3 1_555 1_555
H30_3 C45_3 1_555 1_555
C50_3 C35_3 1_555 1_555
H35_3 C50_3 1_555 1_555
H40_3 C50_3 1_555 1_555
C55_3 H45_3 1_555 1_555
H50_3 C55_3 1_555 1_555
H55_3 C60_3 1_555 1_555
N8 C50_3 1_555 1_555
O12_2 C15_3 1_555 1_555
O21_2 C15_3 1_555 1_555
Zn10_2 O14_3 1_555 1_555
C40_3 C45_3 1_555 1_555
C55_3 N8 1_555 1_555
C60_3 N8 1_555 1_555
Zn13_2 O13_3 1_555 1_555
C1_4 C2_4 1_555 1_555
C2_4 C3_4 1_555 1_555
C3_4 H1_4 1_555 1_555
C4_4 C3_4 1_555 1_555
H2_4 C4_4 1_555 1_555
C5_4 C4_4 1_555 1_555
C6_4 C5_4 1_555 1_555
H3_4 C6_4 1_555 1_555
C7_4 C2_4 1_555 1_555
H4_4 C7_4 1_555 1_555
C8_4 C5_4 1_555 1_555
H5_4 C8_4 1_555 1_555
H6_4 C8_4 1_555 1_555
C9_4 H7_4 1_555 1_555
H8_4 C9_4 1_555 1_555
C10_4 H9_4 1_555 1_555
H10_4 C10_4 1_555 1_555
N1_4 C8_4 1_555 1_555
O1_4 C1_4 1_555 1_555
O2_4 C1_4 1_555 1_555
O3_4 Zn10_2 1_555 1_555
Zn5_2 O1_4 1_555 1_555
Zn10_2 O2_4 1_555 1_555
C11_4 C16_4 1_555 1_555
C12_4 C17_4 1_555 1_555
C13_4 C18_4 1_555 1_555
C16_4 C21_4 1_555 1_555
C17_4 C22_4 1_555 1_555
C18_4 C23_4 1_555 1_555
C21_4 H11_4 1_555 1_555
C22_4 H12_4 1_555 1_555
C23_4 H13_4 1_555 1_555
C26_4 C21_4 1_555 1_555
C27_4 C22_4 1_555 1_555
C28_4 C23_4 1_555 1_555
H16_4 C26_4 1_555 1_555
H17_4 C27_4 1_555 1_555
H18_4 C28_4 1_555 1_555
C31_4 C26_4 1_555 1_555
C32_4 C27_4 1_555 1_555
C33_4 C28_4 1_555 1_555
C36_4 C31_4 1_555 1_555
C37_4 C32_4 1_555 1_555
C38_4 C33_4 1_555 1_555
H21_4 C36_4 1_555 1_555
H22_4 C37_4 1_555 1_555
H23_4 C38_4 1_555 1_555
C41_4 C16_4 1_555 1_555
C42_4 C17_4 1_555 1_555
C43_4 C18_4 1_555 1_555
H26_4 C41_4 1_555 1_555
H27_4 C42_4 1_555 1_555
H28_4 C43_4 1_555 1_555
C46_4 C31_4 1_555 1_555
C47_4 C32_4 1_555 1_555
C48_4 C33_4 1_555 1_555
H31_4 C46_4 1_555 1_555
H32_4 C47_4 1_555 1_555
H33_4 C48_4 1_555 1_555
H36_4 C46_4 1_555 1_555
H37_4 C47_4 1_555 1_555
H38_4 C48_4 1_555 1_555
C51_4 H41_4 1_555 1_555
C52_4 C10_4 1_555 1_555
C53_4 H43_4 1_555 1_555
H42_4 C52_4 1_555 1_555
H46_4 C51_4 1_555 1_555
H47_4 C52_4 1_555 1_555
C56_4 C9_4 1_555 1_555
C57_4 C51_4 1_555 1_555
H51_4 C56_4 1_555 1_555
H52_4 C57_4 1_555 1_555
H53_4 C58_4 1_555 1_555
H56_4 C56_4 1_555 1_555
H57_4 C57_4 1_555 1_555
N2_4 C46_4 1_555 1_555
N3_4 C47_4 1_555 1_555
N4_3 C48_4 1_555 1_555
O9_2 C11_4 1_555 1_555
O10_3 C12_4 1_555 1_555
O6_4 C13_4 1_555 1_555
O12_3 Zn6_2 1_555 1_555
O18_2 C11_4 1_555 1_555
O15_4 C13_4 1_555 1_555
O21_3 Zn11_2 1_555 1_555
O22_4 Zn11_2 1_555 1_555
Zn6_2 N1_4 1_555 1_555
Zn11_2 O15_4 1_555 1_555
C6_4 C7_4 1_555 1_555
C9_4 N1_4 1_555 1_555
C10_4 N1_4 1_555 1_555
C36_4 C41_4 1_555 1_555
C37_4 C42_4 1_555 1_555
C38_4 C43_4 1_555 1_555
C51_4 N2_4 1_555 1_555
C52_4 N3_4 1_555 1_555
C53_4 N4_3 1_555 1_555
C56_4 N2_4 1_555 1_555
C57_4 N3_4 1_555 1_555
C58_4 N4_3 1_555 1_555
N2_4 Zn6_2 1_555 1_555
N3_4 Zn6_2 1_555 1_555
O6_4 Zn6_2 1_555 1_555
C15_4 C20_4 1_555 1_555
C20_4 C25_4 1_555 1_555
C25_4 H15_4 1_555 1_555
C30_4 C25_4 1_555 1_555
H20_4 C30_4 1_555 1_555
C35_4 C30_4 1_555 1_555
C40_4 C35_4 1_555 1_555
H25_4 C40_4 1_555 1_555
C45_4 C20_4 1_555 1_555
H30_4 C45_4 1_555 1_555
C50_4 C35_4 1_555 1_555
H35_4 C50_4 1_555 1_555
H40_4 C50_4 1_555 1_555
C55_4 H45_4 1_555 1_555
H55_4 C60_4 1_555 1_555
N6_3 C50_4 1_555 1_555
O8_3 C15_4 1_555 1_555
O17_3 C15_4 1_555 1_555
Zn6_3 O8_3 1_555 1_555
Zn11_3 O17_3 1_555 1_555
C40_4 C45_4 1_555 1_555
C55_4 N6_3 1_555 1_555
C60_4 N6_3 1_555 1_555
C14_4 C19_4 1_555 1_555
C19_4 C24_4 1_555 1_555
C24_4 H14_4 1_555 1_555
C29_4 C24_4 1_555 1_555
H19_4 C29_4 1_555 1_555
C34_4 C29_4 1_555 1_555
C39_4 C34_4 1_555 1_555
H24_4 C39_4 1_555 1_555
C44_4 C19_4 1_555 1_555
H29_4 C44_4 1_555 1_555
C49_4 C34_4 1_555 1_555
H34_4 C49_4 1_555 1_555
H39_4 C49_4 1_555 1_555
C54_4 H44_4 1_555 1_555
H54_4 C59_4 1_555 1_555
N5_3 C49_4 1_555 1_555
O11_2 C14_4 1_555 1_555
O20_2 C14_4 1_555 1_555
C39_4 C44_4 1_555 1_555
C54_4 N5_3 1_555 1_555
C59_4 N5_3 1_555 1_555
C15_5 C20_5 1_555 1_555
C20_5 C25_5 1_555 1_555
C25_5 H15_5 1_555 1_555
C30_5 C25_5 1_555 1_555
H20_5 C30_5 1_555 1_555
C35_5 C30_5 1_555 1_555
C40_5 C35_5 1_555 1_555
H25_5 C40_5 1_555 1_555
C45_5 C20_5 1_555 1_555
H30_5 C45_5 1_555 1_555
C50_5 C35_5 1_555 1_555
H35_5 C50_5 1_555 1_555
H40_5 C50_5 1_555 1_555
C55_5 H45_5 1_555 1_555
H50_5 C55_5 1_555 1_555
H55_5 C60_5 1_555 1_555
N6_4 C50_5 1_555 1_555
O11 C15_5 1_555 1_555
O20 C15_5 1_555 1_555
Zn13 O14_4 1_555 1_555
C40_5 C45_5 1_555 1_555
C55_5 N6_4 1_555 1_555
C60_5 N6_4 1_555 1_555
C1_5 C2_5 1_555 1_555
C2_5 C3_5 1_555 1_555
C3_5 H1_5 1_555 1_555
C4_5 C3_5 1_555 1_555
H2_5 C4_5 1_555 1_555
C5_5 C4_5 1_555 1_555
C6_5 C5_5 1_555 1_555
H3_5 C6_5 1_555 1_555
C7_5 C2_5 1_555 1_555
H4_5 C7_5 1_555 1_555
C8_5 C5_5 1_555 1_555
H5_5 C8_5 1_555 1_555
H6_5 C8_5 1_555 1_555
C9_5 H7_5 1_555 1_555
H8_5 C9_5 1_555 1_555
C10_5 H9_5 1_555 1_555
H10_5 C10_5 1_555 1_555
N1_5 C8_5 1_555 1_555
O1_5 C1_5 1_555 1_555
O2_5 C1_5 1_555 1_555
O3_5 Zn2_4 1_555 1_555
Zn4_2 O1_5 1_555 1_555
Zn2_4 O2_5 1_555 1_555
C11_5 C16_5 1_555 1_555
C12_5 C17_5 1_555 1_555
C13_5 C18_5 1_555 1_555
C16_5 C21_5 1_555 1_555
C17_5 C22_5 1_555 1_555
C18_5 C23_5 1_555 1_555
C21_5 H11_5 1_555 1_555
C22_5 H12_5 1_555 1_555
C23_5 H13_5 1_555 1_555
C26_5 C21_5 1_555 1_555
C27_5 C22_5 1_555 1_555
C28_5 C23_5 1_555 1_555
H16_5 C26_5 1_555 1_555
H17_5 C27_5 1_555 1_555
H18_5 C28_5 1_555 1_555
C31_5 C26_5 1_555 1_555
C32_5 C27_5 1_555 1_555
C33_5 C28_5 1_555 1_555
C36_5 C31_5 1_555 1_555
C37_5 C32_5 1_555 1_555
C38_5 C33_5 1_555 1_555
H21_5 C36_5 1_555 1_555
H22_5 C37_5 1_555 1_555
H23_5 C38_5 1_555 1_555
C41_5 C16_5 1_555 1_555
C42_5 C17_5 1_555 1_555
C43_5 C18_5 1_555 1_555
H26_5 C41_5 1_555 1_555
H27_5 C42_5 1_555 1_555
H28_5 C43_5 1_555 1_555
C46_5 C31_5 1_555 1_555
C47_5 C32_5 1_555 1_555
C48_5 C33_5 1_555 1_555
H31_5 C46_5 1_555 1_555
H32_5 C47_5 1_555 1_555
H33_5 C48_5 1_555 1_555
H36_5 C46_5 1_555 1_555
H37_5 C47_5 1_555 1_555
H38_5 C48_5 1_555 1_555
C51_5 H41_5 1_555 1_555
C52_5 C10_5 1_555 1_555
C53_5 H43_5 1_555 1_555
H42_5 C52_5 1_555 1_555
H46_5 C51_5 1_555 1_555
H47_5 C52_5 1_555 1_555
C56_5 C9_5 1_555 1_555
C57_5 C51_5 1_555 1_555
H51_5 C56_5 1_555 1_555
H52_5 C57_5 1_555 1_555
H53_5 C58_5 1_555 1_555
H56_5 C56_5 1_555 1_555
H57_5 C57_5 1_555 1_555
H58_5 C58_5 1_555 1_555
N2_5 C46_5 1_555 1_555
N3_5 C47_5 1_555 1_555
N4_4 C48_5 1_555 1_555
O10 C11_5 1_555 1_555
O5_4 C12_5 1_555 1_555
O6_5 C13_5 1_555 1_555
O9_4 Zn4_2 1_555 1_555
O11_4 Zn3_3 1_555 1_555
O12_4 Zn3_3 1_555 1_555
O15_5 C13_5 1_555 1_555
O18_4 Zn2_4 1_555 1_555
O19_4 Zn2_4 1_555 1_555
O20_4 Zn9_3 1_555 1_555
O21_4 Zn9_3 1_555 1_555
O22_5 Zn9_3 1_555 1_555
Zn3_3 N1_5 1_555 1_555
Zn9_3 O15_5 1_555 1_555
C6_5 C7_5 1_555 1_555
C9_5 N1_5 1_555 1_555
C10_5 N1_5 1_555 1_555
C36_5 C41_5 1_555 1_555
C37_5 C42_5 1_555 1_555
C38_5 C43_5 1_555 1_555
C51_5 N2_5 1_555 1_555
C52_5 N3_5 1_555 1_555
C53_5 N4_4 1_555 1_555
C56_5 N2_5 1_555 1_555
C57_5 N3_5 1_555 1_555
C58_5 N4_4 1_555 1_555
N2_5 Zn3_3 1_555 1_555
N3_5 Zn3_3 1_555 1_555
O6_5 Zn3_3 1_555 1_555
C14_5 C19_5 1_555 1_555
C19_5 C24_5 1_555 1_555
C24_5 H14_5 1_555 1_555
C29_5 C24_5 1_555 1_555
H19_5 C29_5 1_555 1_555
C34_5 C29_5 1_555 1_555
C39_5 C34_5 1_555 1_555
H24_5 C39_5 1_555 1_555
C44_5 C19_5 1_555 1_555
H29_5 C44_5 1_555 1_555
C49_5 C34_5 1_555 1_555
H34_5 C49_5 1_555 1_555
H39_5 C49_5 1_555 1_555
C54_5 H44_5 1_555 1_555
H54_5 C59_5 1_555 1_555
N5_4 C49_5 1_555 1_555
O7_4 C14_5 1_555 1_555
O16_4 C14_5 1_555 1_555
Zn6 O7_4 1_555 1_555
Zn11 O16_4 1_555 1_555
C39_5 C44_5 1_555 1_555
C54_5 N5_4 1_555 1_555
C59_5 N5_4 1_555 1_555
C15_6 C20_6 1_555 1_555
C20_6 C25_6 1_555 1_555
C25_6 H15_6 1_555 1_555
C30_6 C25_6 1_555 1_555
H20_6 C30_6 1_555 1_555
C35_6 C30_6 1_555 1_555
C40_6 C35_6 1_555 1_555
H25_6 C40_6 1_555 1_555
C45_6 C20_6 1_555 1_555
H30_6 C45_6 1_555 1_555
C50_6 C35_6 1_555 1_555
H35_6 C50_6 1_555 1_555
H40_6 C50_6 1_555 1_555
C55_6 H45_6 1_555 1_555
H50_6 C55_6 1_555 1_555
H55_6 C60_6 1_555 1_555
N9_3 C50_6 1_555 1_555
O11_4 C15_6 1_555 1_555
O20_4 C15_6 1_555 1_555
Zn13 O14_5 1_555 1_555
C40_6 C45_6 1_555 1_555
C55_6 N9_3 1_555 1_555
C60_6 N9_3 1_555 1_555
C1_6 C2_6 1_555 1_555
C2_6 C3_6 1_555 1_555
C3_6 H1_6 1_555 1_555
C4_6 C3_6 1_555 1_555
H2_6 C4_6 1_555 1_555
C5_6 C4_6 1_555 1_555
C6_6 C5_6 1_555 1_555
H3_6 C6_6 1_555 1_555
C7_6 C2_6 1_555 1_555
H4_6 C7_6 1_555 1_555
C8_6 C5_6 1_555 1_555
H5_6 C8_6 1_555 1_555
H6_6 C8_6 1_555 1_555
C9_6 H7_6 1_555 1_555
H8_6 C9_6 1_555 1_555
C10_6 H9_6 1_555 1_555
H10_6 C10_6 1_555 1_555
N1_6 C8_6 1_555 1_555
O1_6 C1_6 1_555 1_555
O2_6 C1_6 1_555 1_555
O3_6 Zn10 1_555 1_555
Zn5 O1_6 1_555 1_555
Zn10 O2_6 1_555 1_555
C11_6 C16_6 1_555 1_555
C12_6 C17_6 1_555 1_555
C13_6 C18_6 1_555 1_555
C16_6 C21_6 1_555 1_555
C17_6 C22_6 1_555 1_555
C18_6 C23_6 1_555 1_555
C21_6 H11_6 1_555 1_555
C22_6 H12_6 1_555 1_555
C23_6 H13_6 1_555 1_555
C26_6 C21_6 1_555 1_555
C27_6 C22_6 1_555 1_555
C28_6 C23_6 1_555 1_555
H16_6 C26_6 1_555 1_555
H17_6 C27_6 1_555 1_555
H18_6 C28_6 1_555 1_555
C31_6 C26_6 1_555 1_555
C32_6 C27_6 1_555 1_555
C33_6 C28_6 1_555 1_555
C36_6 C31_6 1_555 1_555
C37_6 C32_6 1_555 1_555
C38_6 C33_6 1_555 1_555
H21_6 C36_6 1_555 1_555
H22_6 C37_6 1_555 1_555
H23_6 C38_6 1_555 1_555
C41_6 C16_6 1_555 1_555
C42_6 C17_6 1_555 1_555
C43_6 C18_6 1_555 1_555
H26_6 C41_6 1_555 1_555
H27_6 C42_6 1_555 1_555
H28_6 C43_6 1_555 1_555
C46_6 C31_6 1_555 1_555
C47_6 C32_6 1_555 1_555
C48_6 C33_6 1_555 1_555
H31_6 C46_6 1_555 1_555
H32_6 C47_6 1_555 1_555
H33_6 C48_6 1_555 1_555
H36_6 C46_6 1_555 1_555
H37_6 C47_6 1_555 1_555
H38_6 C48_6 1_555 1_555
C51_6 H41_6 1_555 1_555
C52_6 C10_6 1_555 1_555
C53_6 H43_6 1_555 1_555
H42_6 C52_6 1_555 1_555
H46_6 C51_6 1_555 1_555
H47_6 C52_6 1_555 1_555
C56_6 C9_6 1_555 1_555
C57_6 C51_6 1_555 1_555
H51_6 C56_6 1_555 1_555
H52_6 C57_6 1_555 1_555
H53_6 C58_6 1_555 1_555
H56_6 C56_6 1_555 1_555
H57_6 C57_6 1_555 1_555
H58_6 C58_6 1_555 1_555
N2_6 C46_6 1_555 1_555
N3_6 C47_6 1_555 1_555
N7_3 C48_6 1_555 1_555
N8_4 Zn5 1_555 1_555
O10_4 C11_6 1_555 1_555
O5_5 C12_6 1_555 1_555
O6_6 C13_6 1_555 1_555
O9_5 Zn5 1_555 1_555
O12_5 Zn7 1_555 1_555
O15_6 C13_6 1_555 1_555
O18_5 Zn10 1_555 1_555
O21_5 Zn12 1_555 1_555
O22_6 Zn12 1_555 1_555
Zn7 N1_6 1_555 1_555
Zn12 O15_6 1_555 1_555
C6_6 C7_6 1_555 1_555
C9_6 N1_6 1_555 1_555
C10_6 N1_6 1_555 1_555
C36_6 C41_6 1_555 1_555
C37_6 C42_6 1_555 1_555
C38_6 C43_6 1_555 1_555
C51_6 N2_6 1_555 1_555
C52_6 N3_6 1_555 1_555
C53_6 N7_3 1_555 1_555
C56_6 N2_6 1_555 1_555
C57_6 N3_6 1_555 1_555
C58_6 N7_3 1_555 1_555
N2_6 Zn7 1_555 1_555
N3_6 Zn7 1_555 1_555
O6_6 Zn7 1_555 1_555
C14_6 C19_6 1_555 1_555
C19_6 C24_6 1_555 1_555
C24_6 H14_6 1_555 1_555
C29_6 C24_6 1_555 1_555
H19_6 C29_6 1_555 1_555
C34_6 C29_6 1_555 1_555
C39_6 C34_6 1_555 1_555
H24_6 C39_6 1_555 1_555
C44_6 C19_6 1_555 1_555
H29_6 C44_6 1_555 1_555
C49_6 C34_6 1_555 1_555
H34_6 C49_6 1_555 1_555
H39_6 C49_6 1_555 1_555
C54_6 H44_6 1_555 1_555
H54_6 C59_6 1_555 1_555
N8_3 C49_6 1_555 1_555
O7_5 C14_6 1_555 1_555
O16_5 C14_6 1_555 1_555
Zn6 O7_5 1_555 1_555
Zn11 O16_5 1_555 1_555
C39_6 C44_6 1_555 1_555
C54_6 N8_3 1_555 1_555
C59_6 N8_3 1_555 1_555
Zn13_2 O14_6 1_555 1_555
C1_7 C2_7 1_555 1_555
C2_7 C3_7 1_555 1_555
C3_7 H1_7 1_555 1_555
C4_7 C3_7 1_555 1_555
H2_7 C4_7 1_555 1_555
C5_7 C4_7 1_555 1_555
C6_7 C5_7 1_555 1_555
H3_7 C6_7 1_555 1_555
C7_7 C2_7 1_555 1_555
H4_7 C7_7 1_555 1_555
C8_7 C5_7 1_555 1_555
H5_7 C8_7 1_555 1_555
H6_7 C8_7 1_555 1_555
C9_7 H7_7 1_555 1_555
H8_7 C9_7 1_555 1_555
C10_7 H9_7 1_555 1_555
H10_7 C10_7 1_555 1_555
N1_7 C8_7 1_555 1_555
O9_3 C1_7 1_555 1_555
O18_3 C1_7 1_555 1_555
C11_7 C16_7 1_555 1_555
C12_7 C17_7 1_555 1_555
C16_7 C21_7 1_555 1_555
C17_7 C22_7 1_555 1_555
C21_7 H11_7 1_555 1_555
C22_7 H12_7 1_555 1_555
C26_7 C21_7 1_555 1_555
C27_7 C22_7 1_555 1_555
H16_7 C26_7 1_555 1_555
H17_7 C27_7 1_555 1_555
C31_7 C26_7 1_555 1_555
C32_7 C27_7 1_555 1_555
C36_7 C31_7 1_555 1_555
C37_7 C32_7 1_555 1_555
H21_7 C36_7 1_555 1_555
H22_7 C37_7 1_555 1_555
C41_7 C16_7 1_555 1_555
C42_7 C17_7 1_555 1_555
H26_7 C41_7 1_555 1_555
H27_7 C42_7 1_555 1_555
C46_7 C31_7 1_555 1_555
C47_7 C32_7 1_555 1_555
H31_7 C46_7 1_555 1_555
H32_7 C47_7 1_555 1_555
H36_7 C46_7 1_555 1_555
H37_7 C47_7 1_555 1_555
C51_7 H41_7 1_555 1_555
C52_7 C10_7 1_555 1_555
H42_7 C52_7 1_555 1_555
H46_7 C51_7 1_555 1_555
H47_7 C52_7 1_555 1_555
C56_7 C9_7 1_555 1_555
C57_7 C51_7 1_555 1_555
H51_7 C56_7 1_555 1_555
H52_7 C57_7 1_555 1_555
H56_7 C56_7 1_555 1_555
H57_7 C57_7 1_555 1_555
N2_7 C46_7 1_555 1_555
N3_7 C47_7 1_555 1_555
O10_2 C11_7 1_555 1_555
O5_6 C12_7 1_555 1_555
O11_5 Zn6_3 1_555 1_555
O19_2 C11_7 1_555 1_555
O20_5 Zn11_3 1_555 1_555
O22_7 Zn11_3 1_555 1_555
Zn6_3 N1_7 1_555 1_555
C6_7 C7_7 1_555 1_555
C9_7 N1_7 1_555 1_555
C10_7 N1_7 1_555 1_555
C36_7 C41_7 1_555 1_555
C37_7 C42_7 1_555 1_555
C51_7 N2_7 1_555 1_555
C52_7 N3_7 1_555 1_555
C56_7 N2_7 1_555 1_555
C57_7 N3_7 1_555 1_555
N2_7 Zn6_3 1_555 1_555
N3_7 Zn6_3 1_555 1_555
C13_7 C18_7 1_555 1_555
C15_7 C20_7 1_555 1_555
C18_7 C23_7 1_555 1_555
C20_7 C25_7 1_555 1_555
C23_7 H13_7 1_555 1_555
C25_7 H15_7 1_555 1_555
C28_7 C23_7 1_555 1_555
C30_7 C25_7 1_555 1_555
H18_7 C28_7 1_555 1_555
H20_7 C30_7 1_555 1_555
C33_7 C28_7 1_555 1_555
C35_7 C30_7 1_555 1_555
C38_7 C33_7 1_555 1_555
C40_7 C35_7 1_555 1_555
H23_7 C38_7 1_555 1_555
H25_7 C40_7 1_555 1_555
C43_7 C18_7 1_555 1_555
C45_7 C20_7 1_555 1_555
H28_7 C43_7 1_555 1_555
H30_7 C45_7 1_555 1_555
C48_7 C33_7 1_555 1_555
C50_7 C35_7 1_555 1_555
H33_7 C48_7 1_555 1_555
H35_7 C50_7 1_555 1_555
H38_7 C48_7 1_555 1_555
H40_7 C50_7 1_555 1_555
C53_7 H43_7 1_555 1_555
C55_7 H45_7 1_555 1_555
H50_7 C55_7 1_555 1_555
C58_7 C55_7 1_555 1_555
H53_7 C58_7 1_555 1_555
H55_7 C60_7 1_555 1_555
H58_7 C58_7 1_555 1_555
H60_7 C60_7 1_555 1_555
N7_4 C48_7 1_555 1_555
N9_4 C50_7 1_555 1_555
O12_3 C13_7 1_555 1_555
O11_3 C15_7 1_555 1_555
O21_3 C13_7 1_555 1_555
O20_3 C15_7 1_555 1_555
C38_7 C43_7 1_555 1_555
C40_7 C45_7 1_555 1_555
C53_7 N7_4 1_555 1_555
C55_7 N9_4 1_555 1_555
C58_7 N7_4 1_555 1_555
C60_7 N9_4 1_555 1_555
C14_7 C19_7 1_555 1_555
C19_7 C24_7 1_555 1_555
C24_7 H14_7 1_555 1_555
C29_7 C24_7 1_555 1_555
H19_7 C29_7 1_555 1_555
C34_7 C29_7 1_555 1_555
C39_7 C34_7 1_555 1_555
H24_7 C39_7 1_555 1_555
C44_7 C19_7 1_555 1_555
H29_7 C44_7 1_555 1_555
C49_7 C34_7 1_555 1_555
H34_7 C49_7 1_555 1_555
H39_7 C49_7 1_555 1_555
C54_7 H44_7 1_555 1_555
H49_7 C54_7 1_555 1_555
H54_7 C59_7 1_555 1_555
N8_4 C49_7 1_555 1_555
O11_5 C14_7 1_555 1_555
O20_5 C14_7 1_555 1_555
C39_7 C44_7 1_555 1_555
C54_7 N8_4 1_555 1_555
C59_7 N8_4 1_555 1_555
O3_7 Zn13_2 1_555 1_555
O3_8 Zn11 1_555 1_555
N7_5 Zn6 1_555 1_555
N8_5 Zn6 1_555 1_555
N9_5 Zn6 1_555 1_555
C1_8 C2_8 1_555 1_555
C2_8 C3_8 1_555 1_555
C3_8 H1_8 1_555 1_555
C4_8 C3_8 1_555 1_555
H2_8 C4_8 1_555 1_555
C5_8 C4_8 1_555 1_555
C6_8 C5_8 1_555 1_555
H3_8 C6_8 1_555 1_555
C7_8 C2_8 1_555 1_555
H4_8 C7_8 1_555 1_555
C8_8 C5_8 1_555 1_555
H5_8 C8_8 1_555 1_555
H6_8 C8_8 1_555 1_555
C9_8 H7_8 1_555 1_555
H8_8 C9_8 1_555 1_555
C10_8 H9_8 1_555 1_555
H10_8 C10_8 1_555 1_555
N8_2 C8_8 1_555 1_555
O12 C1_8 1_555 1_555
O21 C1_8 1_555 1_555
C11_8 C16_8 1_555 1_555
C12_8 C17_8 1_555 1_555
C16_8 C21_8 1_555 1_555
C17_8 C22_8 1_555 1_555
C21_8 H11_8 1_555 1_555
C22_8 H12_8 1_555 1_555
C26_8 C21_8 1_555 1_555
C27_8 C22_8 1_555 1_555
H16_8 C26_8 1_555 1_555
H17_8 C27_8 1_555 1_555
C31_8 C26_8 1_555 1_555
C32_8 C27_8 1_555 1_555
C36_8 C31_8 1_555 1_555
C37_8 C32_8 1_555 1_555
H21_8 C36_8 1_555 1_555
H22_8 C37_8 1_555 1_555
C41_8 C16_8 1_555 1_555
C42_8 C17_8 1_555 1_555
H26_8 C41_8 1_555 1_555
H27_8 C42_8 1_555 1_555
C46_8 C31_8 1_555 1_555
C47_8 C32_8 1_555 1_555
H31_8 C46_8 1_555 1_555
H32_8 C47_8 1_555 1_555
H36_8 C46_8 1_555 1_555
H37_8 C47_8 1_555 1_555
C51_8 H41_8 1_555 1_555
C52_8 C10_8 1_555 1_555
H42_8 C52_8 1_555 1_555
H46_8 C51_8 1_555 1_555
H47_8 C52_8 1_555 1_555
C56_8 C9_8 1_555 1_555
C57_8 C51_8 1_555 1_555
H51_8 C56_8 1_555 1_555
H52_8 C57_8 1_555 1_555
H56_8 C56_8 1_555 1_555
H57_8 C57_8 1_555 1_555
N9_2 C46_8 1_555 1_555
N7_2 C47_8 1_555 1_555
O12_5 C11_8 1_555 1_555
O12_4 C12_8 1_555 1_555
O21_5 C11_8 1_555 1_555
O21_4 C12_8 1_555 1_555
C6_8 C7_8 1_555 1_555
C9_8 N8_2 1_555 1_555
C10_8 N8_2 1_555 1_555
C36_8 C41_8 1_555 1_555
C37_8 C42_8 1_555 1_555
C51_8 N9_2 1_555 1_555
C52_8 N7_2 1_555 1_555
C56_8 N9_2 1_555 1_555
C57_8 N7_2 1_555 1_555
O3_9 Zn13 1_555 1_555
C1_9 C2_9 1_555 1_555
C2_9 C3_9 1_555 1_555
C3_9 H1_9 1_555 1_555
C4_9 C3_9 1_555 1_555
H2_9 C4_9 1_555 1_555
C5_9 C4_9 1_555 1_555
C6_9 C5_9 1_555 1_555
H3_9 C6_9 1_555 1_555
C7_9 C2_9 1_555 1_555
H4_9 C7_9 1_555 1_555
C8_9 C5_9 1_555 1_555
H5_9 C8_9 1_555 1_555
H6_9 C8_9 1_555 1_555
C9_9 H7_9 1_555 1_555
H8_9 C9_9 1_555 1_555
C10_9 H9_9 1_555 1_555
H10_9 C10_9 1_555 1_555
N8_5 C8_9 1_555 1_555
O9_5 C1_9 1_555 1_555
O18_5 C1_9 1_555 1_555
C11_9 C16_9 1_555 1_555
C12_9 C17_9 1_555 1_555
C16_9 C21_9 1_555 1_555
C17_9 C22_9 1_555 1_555
C21_9 H11_9 1_555 1_555
C22_9 H12_9 1_555 1_555
C26_9 C21_9 1_555 1_555
C27_9 C22_9 1_555 1_555
H16_9 C26_9 1_555 1_555
H17_9 C27_9 1_555 1_555
C31_9 C26_9 1_555 1_555
C32_9 C27_9 1_555 1_555
C36_9 C31_9 1_555 1_555
C37_9 C32_9 1_555 1_555
H21_9 C36_9 1_555 1_555
H22_9 C37_9 1_555 1_555
C41_9 C16_9 1_555 1_555
C42_9 C17_9 1_555 1_555
H26_9 C41_9 1_555 1_555
H27_9 C42_9 1_555 1_555
C46_9 C31_9 1_555 1_555
C47_9 C32_9 1_555 1_555
H31_9 C46_9 1_555 1_555
H32_9 C47_9 1_555 1_555
H36_9 C46_9 1_555 1_555
H37_9 C47_9 1_555 1_555
C51_9 H41_9 1_555 1_555
C52_9 C10_9 1_555 1_555
H42_9 C52_9 1_555 1_555
H46_9 C51_9 1_555 1_555
H47_9 C52_9 1_555 1_555
C56_9 C9_9 1_555 1_555
C57_9 C51_9 1_555 1_555
H51_9 C56_9 1_555 1_555
H52_9 C57_9 1_555 1_555
H56_9 C56_9 1_555 1_555
H57_9 C57_9 1_555 1_555
N9_5 C46_9 1_555 1_555
N7_5 C47_9 1_555 1_555
O9 C11_9 1_555 1_555
O9_4 C12_9 1_555 1_555
O18 C11_9 1_555 1_555
O18_4 C12_9 1_555 1_555
C6_9 C7_9 1_555 1_555
C9_9 N8_5 1_555 1_555
C10_9 N8_5 1_555 1_555
C36_9 C41_9 1_555 1_555
C37_9 C42_9 1_555 1_555
C51_9 N9_5 1_555 1_555
C52_9 N7_5 1_555 1_555
C56_9 N9_5 1_555 1_555
C57_9 N7_5 1_555 1_555

#END
