
###############################################################################
#
# This file contains modified crystal structure data generated from the
# MOF subset of the Cambridge Structural Database (CSD) v543 
# hosted by the Cambridge Crystallographic Data Centre (CCDC).
#
# This work is licensed under the Creative Commons
# Attribution-NonCommercial-ShareAlike 4.0 International License.
# To view a copy of this license, visit
# http://creativecommons.org/licenses/by-nc-sa/4.0/
# or send a letter to
# Creative Commons, PO Box 1866, Mountain View, CA 94042, USA.
#
# CIF created using the CSD Python API on 29 September 2022
# The structure has been converted into the P1 space group
# The structure has a 3D framework
# The original CSD entry UVUPOR is in the triclinic crystal system
# The framework has been calculated to contain at least 10.0% void space
# The void calculation uses a probe of radius 1.32A, grid spacing 0.4
#
###############################################################################

data_UVUPOR
_chemical_formula_moiety         '(C124 H72 N18 O24 Zn6)n'
_symmetry_cell_setting           triclinic
_symmetry_space_group_name_H-M   'P 1'
_symmetry_Int_Tables_number      1
_space_group_name_Hall           'P 1'
loop_
_symmetry_equiv_pos_site_id
_symmetry_equiv_pos_as_xyz
1 x,y,z
_cell_length_a                   15.224(3)
_cell_length_b                   15.259(3)
_cell_length_c                   18.059(4)
_cell_angle_alpha                91.84(3)
_cell_angle_beta                 96.69(3)
_cell_angle_gamma                98.28(3)
_cell_volume                     4118.06
loop_
_atom_site_label
_atom_site_type_symbol
_atom_site_fract_x
_atom_site_fract_y
_atom_site_fract_z
Zn3 Zn 0.01109(4) 0.00553(4) 0.08225(3)
N3 N 0.0148(5) 0.0768(4) 0.5419(3)
C18 C 0.0146(5) 0.0736(4) 0.6955(3)
H11 H 0.0259 0.1282 0.6742
C19 C 0.0121(4) 0.0684(4) 0.7714(3)
H12 H 0.0220 0.1211 0.8005
O12 O 0.1250(2) 0.0142(3) 0.9510(2)
N4 N 0.0038(3) 0.0076(3) 0.1941(2)
N6 N 0.0151(4) 0.0802(3) 0.4689(3)
C35 C 0.0173(4) 0.0827(3) 0.2371(3)
H21 H 0.0289 0.1365 0.2148
C36 C 0.0146(4) 0.0831(4) 0.3133(3)
H22 H 0.0227 0.1367 0.3411
C37 C 0.0000(4) 0.0049(4) 0.3483(3)
C40 C 0.0003(5) 0.0019(5) 0.4297(3)
O2 O 0.0101(3) 0.8731(2) 0.06334(19)
C1 C 0.0018(4) 0.7333(3) 0.0018(3)
C4 C -0.0000(4) 0.5482(3) 0.0006(3)
C5 C 0.0085(5) 0.6002(4) 0.0678(3)
H3 H 0.0141 0.5728 0.1130
C6 C 0.0086(5) 0.6897(4) 0.0683(3)
H4 H 0.0132 0.7218 0.1136
C7 C 0.0008(3) 0.8316(4) 0.0010(3)
O5 O 0.0106(3) 0.1351(2) 0.06160(19)
O10 O 0.1462(2) 0.0213(3) 0.0755(2)
C22 C 0.0071(4) 0.3163(4) 0.0646(3)
H13 H 0.0125 0.2882 0.1095
C23 C 0.0080(4) 0.4068(4) 0.0657(3)
H14 H 0.0142 0.4386 0.1112
C17 C -0.0000(4) 0.9951(4) 0.6517(3)
C24 C 0.0000(4) 0.4518(3) 0.9994(3)
C28 C 0.2726(4) 0.0181(5) 0.0099(3)
C29 C 0.3303(4) 0.0143(5) 0.0723(3)
H17 H 0.3105 0.0180 0.1189
C30 C 0.4162(4) 0.0051(5) 0.0674(3)
C31 C 0.4513(4) 0.0044(6) 0.0008(4)
C34 C 0.1738(4) 0.0183(3) 0.0133(3)
H6 H 0.5468 0.0010 0.8889
O7 O 0.9899(3) 0.1269(2) 0.93666(19)
C32 C 0.3962(4) 0.0185(5) 0.9409(3)
H19 H 0.4178 0.0242 0.8949
C33 C 0.3094(4) 0.0247(5) 0.9461(3)
H20 H 0.2731 0.0341 0.9028
C37_2 C 1.0000(4) 0.0049(4) 0.3483(3)
O4 O 0.8750(2) 0.9858(3) 0.0490(2)
C4_2 C 1.0000(4) 0.5482(3) 0.0006(3)
C12 C 0.6038(4) 0.9815(5) 0.0591(3)
H7 H 0.5822 0.9758 0.1051
C13 C 0.6906(4) 0.9753(5) 0.0539(3)
H8 H 0.7269 0.9659 0.0972
H18 H 0.4532 0.9990 0.1111
Zn1 Zn 0.98891(4) 0.99447(4) 0.91775(3)
O1 O 0.9894(3) 0.8649(2) 0.93840(19)
O3 O 0.8538(2) 0.9787(3) 0.9245(2)
N1 N 0.9962(3) 0.9924(3) 0.8059(2)
N2 N 0.9849(4) 0.9198(3) 0.5311(3)
C2 C 0.9929(4) 0.6837(4) 0.9354(3)
H1 H 0.9875 0.7118 0.8905
C3 C 0.9920(4) 0.5932(4) 0.9343(3)
H2 H 0.9858 0.5614 0.8888
C8 C 0.7274(4) 0.9819(5) 0.9901(3)
C9 C 0.6697(4) 0.9857(5) 0.9277(3)
H5 H 0.6895 0.9820 0.8811
C10 C 0.5838(4) 0.9949(5) 0.9326(3)
C11 C 0.5487(4) 0.9956(6) 0.9992(4)
C14 C 0.8262(4) 0.9817(3) 0.9867(3)
C15 C 0.9827(4) 0.9173(3) 0.7629(3)
H9 H 0.9711 0.8635 0.7852
C16 C 0.9854(4) 0.9169(4) 0.6867(3)
H10 H 0.9773 0.8633 0.6589
C17_2 C 1.0000(4) 0.9951(4) 0.6517(3)
C20 C 0.9997(5) 0.9981(5) 0.5703(3)
N7 N 0.9852(5) 0.9232(4) 0.4581(3)
C21 C 0.9982(4) 0.2667(3) 0.9982(3)
C24_2 C 1.0000(4) 0.4518(3) 0.9994(3)
C25 C 0.9915(5) 0.3998(4) 0.9322(3)
H15 H 0.9859 0.4272 0.8870
C26 C 0.9914(5) 0.3103(4) 0.9317(3)
H16 H 0.9868 0.2782 0.8864
C27 C 0.9992(3) 0.1684(4) 0.9990(3)
C38 C 0.9854(5) 0.9264(4) 0.3045(3)
H23 H 0.9741 0.8718 0.3258
C39 C 0.9879(4) 0.9316(4) 0.2286(3)
H24 H 0.9780 0.8789 0.1995
O16 O 0.0923(2) 0.3117(3) 0.2538(2)
O17 O 0.1147(3) 0.3275(3) 0.3778(2)
C54 C 0.0655(4) 0.3198(3) 0.3171(3)
Zn11 Zn 0.22686(4) 0.32725(4) 0.24373(3)
Zn16 Zn 0.24921(4) 0.33743(4) 0.40814(3)
O20 O 0.2294(2) 0.1984(2) 0.26446(18)
O21 O 0.2381(3) 0.2043(2) 0.38846(19)
C62 C 0.2343(4) 0.0654(3) 0.3272(3)
C63 C 0.2388(4) 0.0220(4) 0.3933(3)
H37 H 0.2418 0.0541 0.4384
C67 C 0.2296(4) 0.0150(4) 0.2611(3)
H40 H 0.2262 0.0425 0.2158
C68 C 0.2339(4) 0.1631(4) 0.3261(3)
N14 N 0.2299(3) 0.3262(3) 0.1315(2)
C109 C 0.2401(4) 0.4019(4) 0.0979(3)
H65 H 0.2479 0.4545 0.1268
C110 C 0.2398(5) 0.4063(4) 0.0223(3)
H66 H 0.2476 0.4611 0.0009
C112 C 0.2165(4) 0.2484(4) 0.0128(3)
C113 C 0.2183(4) 0.2506(4) 0.0896(3)
H68 H 0.2112 0.1972 0.1131
O14 O 0.3620(3) 0.3491(3) 0.2749(2)
O15 O 0.3810(2) 0.3457(3) 0.3990(2)
O18 O 0.2270(3) 0.4600(2) 0.26783(18)
O19 O 0.2574(3) 0.4695(2) 0.39139(19)
C41 C 0.5073(4) 0.3485(5) 0.3345(3)
C42 C 0.5635(4) 0.3413(5) 0.3947(3)
H25 H 0.5414 0.3380 0.4406
C43 C 0.6532(4) 0.3384(5) 0.3930(3)
H26 H 0.6904 0.3362 0.4373
C44 C 0.6874(4) 0.3388(5) 0.3272(3)
C45 C 0.6309(4) 0.3474(5) 0.2644(3)
H27 H 0.6519 0.3465 0.2181
C46 C 0.5458(4) 0.3571(5) 0.2684(3)
H28 H 0.5110 0.3700 0.2255
C47 C 0.4097(4) 0.3481(4) 0.3370(4)
C48 C 0.9687(4) 0.3212(5) 0.3172(3)
C49 C 0.9121(4) 0.3396(5) 0.2551(3)
H29 H 0.9341 0.3471 0.2094
C50 C 0.8244(4) 0.3467(5) 0.2606(3)
H30 H 0.7898 0.3612 0.2181
C51 C 0.7842(4) 0.3343(5) 0.3238(3)
C52 C 0.8398(4) 0.3115(5) 0.3838(3)
H31 H 0.8161 0.2991 0.4281
C53 C 0.9299(4) 0.3064(5) 0.3806(3)
H32 H 0.9646 0.2924 0.4232
C55 C 0.2422(4) 0.5999(3) 0.3283(3)
C56 C 0.2088(5) 0.6393(4) 0.2662(3)
H33 H 0.1870 0.6048 0.2227
C57 C 0.2070(5) 0.7299(4) 0.2672(3)
H34 H 0.1831 0.7547 0.2244
C58 C 0.2393(4) 0.7836(3) 0.3288(3)
C59 C 0.2764(5) 0.7447(4) 0.3895(3)
H35 H 0.3023 0.7797 0.4317
C60 C 0.2761(5) 0.6546(4) 0.3890(3)
H36 H 0.2999 0.6300 0.4319
C61 C 0.2431(4) 0.5022(3) 0.3303(3)
C64 C 0.2390(5) 0.9317(4) 0.3933(3)
H38 H 0.2408 0.9040 0.4385
C65 C 0.2367(4) 0.8809(4) 0.3279(3)
C66 C 0.2298(4) 0.9251(4) 0.2617(3)
H39 H 0.2253 0.8928 0.2166
N16 N 0.2371(5) 0.4108(4) 0.8644(3)
N17 N 0.2403(4) 0.4115(4) 0.7923(3)
N18 N 0.2174(5) 0.2556(4) 0.7841(3)
N19 N 0.2153(4) 0.2527(4) 0.8567(3)
N20 N 0.2443(3) 0.3375(3) 0.5205(2)
C111 C 0.2279(4) 0.3290(4) 0.9780(3)
H67 H 0.2079 0.1947 0.9851
C114 C 0.2285(5) 0.3310(4) 0.8949(3)
C115 C 0.2313(4) 0.3336(4) 0.7539(3)
C116 C 0.2208(5) 0.2633(4) 0.5525(3)
H69 H 0.2066 0.2113 0.5225
C117 C 0.2160(5) 0.2580(4) 0.6278(3)
H70 H 0.1997 0.2038 0.6483
C118 C 0.2361(4) 0.3356(4) 0.6727(3)
C119 C 0.2555(5) 0.4123(4) 0.6388(3)
H71 H 0.2660 0.4659 0.6666
C120 C 0.2598(5) 0.4114(4) 0.5624(3)
H72 H 0.2742 0.4649 0.5402
Zn10 Zn 0.77314(4) 0.67275(4) 0.75627(3)
Zn15 Zn 0.75079(4) 0.66257(4) 0.59186(3)
O22 O 0.6380(3) 0.6509(3) 0.7251(2)
O23 O 0.6190(2) 0.6543(3) 0.6010(2)
O25 O 0.9077(2) 0.6883(3) 0.7462(2)
O27 O 0.8853(3) 0.6725(3) 0.6222(2)
O29 O 0.7730(3) 0.5400(2) 0.73217(18)
O31 O 0.7426(3) 0.5305(2) 0.60861(19)
O33 O 0.7706(2) 0.8016(2) 0.73554(18)
O35 O 0.7619(3) 0.7957(2) 0.61154(19)
N15 N 0.7701(3) 0.6738(3) 0.8685(2)
N21 N 0.7557(3) 0.6625(3) 0.4795(2)
C81 C 0.4927(4) 0.6515(5) 0.6655(3)
C82 C 0.4365(4) 0.6587(5) 0.6053(3)
H49 H 0.4586 0.6620 0.5594
C83 C 0.3468(4) 0.6616(5) 0.6070(3)
H50 H 0.3096 0.6638 0.5627
C84 C 0.3126(4) 0.6612(5) 0.6728(3)
C85 C 0.3691(4) 0.6526(5) 0.7356(3)
H51 H 0.3481 0.6535 0.7819
C86 C 0.4542(4) 0.6429(5) 0.7316(3)
H52 H 0.4890 0.6300 0.7745
C87 C 0.5903(4) 0.6519(4) 0.6630(4)
C88 C 0.0313(4) 0.6788(5) 0.6828(3)
C89 C 0.0879(4) 0.6604(5) 0.7449(3)
H53 H 0.0659 0.6529 0.7906
C90 C 0.1756(4) 0.6533(5) 0.7394(3)
H54 H 0.2102 0.6388 0.7819
C91 C 0.2158(4) 0.6657(5) 0.6762(3)
C92 C 0.1602(4) 0.6885(5) 0.6162(3)
H55 H 0.1839 0.7009 0.5719
C93 C 0.0701(4) 0.6936(5) 0.6194(3)
H56 H 0.0354 0.7076 0.5768
C95 C 0.7578(4) 0.4001(3) 0.6717(3)
C96 C 0.7912(5) 0.3607(4) 0.7338(3)
H57 H 0.8130 0.3952 0.7773
C97 C 0.7930(5) 0.2701(4) 0.7328(3)
H58 H 0.8169 0.2453 0.7756
C98 C 0.7607(4) 0.2164(3) 0.6712(3)
C99 C 0.7236(5) 0.2553(4) 0.6105(3)
H59 H 0.6977 0.2203 0.5683
C100 C 0.7239(5) 0.3454(4) 0.6110(3)
H60 H 0.7001 0.3700 0.5681
C101 C 0.7569(4) 0.4978(3) 0.6697(3)
C104 C 0.7610(5) 0.0683(4) 0.6067(3)
H62 H 0.7592 0.0960 0.5615
C105 C 0.7633(4) 0.1191(4) 0.6721(3)
C106 C 0.7702(4) 0.0749(4) 0.7383(3)
H63 H 0.7747 0.1072 0.7834
N9 N 0.7629(5) 0.5892(4) 0.1356(3)
N10 N 0.7597(4) 0.5885(4) 0.2077(3)
N11 N 0.7826(5) 0.7444(4) 0.2159(3)
N12 N 0.7847(4) 0.7473(4) 0.1433(3)
C71 C 0.7721(4) 0.6710(4) 0.0220(3)
H43 H 0.7921 0.8053 0.0149
C74 C 0.7715(5) 0.6690(4) 0.1051(3)
C75 C 0.7687(4) 0.6664(4) 0.2461(3)
C76 C 0.7792(5) 0.7367(4) 0.4475(3)
H45 H 0.7934 0.7887 0.4775
C77 C 0.7840(5) 0.7420(4) 0.3722(3)
H46 H 0.8003 0.7962 0.3517
C78 C 0.7639(4) 0.6644(4) 0.3273(3)
C79 C 0.7445(5) 0.5877(4) 0.3612(3)
H47 H 0.7340 0.5341 0.3334
C80 C 0.7402(5) 0.5886(4) 0.4376(3)
H48 H 0.7258 0.5351 0.4598
C69 C 0.7599(4) 0.5981(4) 0.9021(3)
H41 H 0.7521 0.5455 0.8732
C70 C 0.7602(5) 0.5937(4) 0.9777(3)
H42 H 0.7524 0.5389 0.9991
C72 C 0.7835(4) 0.7516(4) 0.9872(3)
C73 C 0.7817(4) 0.7494(4) 0.9104(3)
H44 H 0.7888 0.8028 0.8869
C94 C 0.9345(4) 0.6802(3) 0.6829(3)
C102 C 0.7657(4) 0.9346(3) 0.6728(3)
C103 C 0.7612(4) 0.9780(4) 0.6067(3)
H61 H 0.7582 0.9459 0.5616
C107 C 0.7704(4) 0.9850(4) 0.7389(3)
H64 H 0.7738 0.9575 0.7842
C108 C 0.7661(4) 0.8369(4) 0.6739(3)
loop_
_geom_bond_atom_site_label_1
_geom_bond_atom_site_label_2
_geom_bond_site_symmetry_1
_geom_bond_site_symmetry_2
H11 C18 1_555 1_555
H12 C19 1_555 1_555
Zn3 N4 1_555 1_555
N4 C35 1_555 1_555
N6 N3 1_555 1_555
C35 H21 1_555 1_555
C36 C35 1_555 1_555
H22 C36 1_555 1_555
C37 C36 1_555 1_555
C40 N6 1_555 1_555
C18 C19 1_555 1_555
C37 C40 1_555 1_555
O2 C7 1_555 1_555
C5 C4 1_555 1_555
H3 C5 1_555 1_555
C6 C1 1_555 1_555
H4 C6 1_555 1_555
C7 C1 1_555 1_555
Zn3 O5 1_555 1_555
O10 Zn3 1_555 1_555
C22 H13 1_555 1_555
C23 C22 1_555 1_555
H14 C23 1_555 1_555
C5 C6 1_555 1_555
O10 C34 1_555 1_555
C28 C29 1_555 1_555
C29 H17 1_555 1_555
C30 C29 1_555 1_555
C34 C28 1_555 1_555
C30 C31 1_555 1_555
H19 C32 1_555 1_555
H20 C33 1_555 1_555
C32 C33 1_555 1_555
H7 C12 1_555 1_555
H8 C13 1_555 1_555
C12 C13 1_555 1_555
Zn1 O1 1_555 1_555
O3 Zn1 1_555 1_555
N1 Zn1 1_555 1_555
N2 C20 1_555 1_555
C2 H1 1_555 1_555
C3 C2 1_555 1_555
H2 C3 1_555 1_555
C8 C9 1_555 1_555
C9 H5 1_555 1_555
C10 C9 1_555 1_555
C11 C10 1_555 1_555
C14 O3 1_555 1_555
C15 N1 1_555 1_555
H9 C15 1_555 1_555
C16 C15 1_555 1_555
H10 C16 1_555 1_555
C17_2 C16 1_555 1_555
C20 C17_2 1_555 1_555
O7 C27 1_555 1_555
N7 N2 1_555 1_555
C25 C24_2 1_555 1_555
H15 C25 1_555 1_555
C26 C21 1_555 1_555
H16 C26 1_555 1_555
C27 C21 1_555 1_555
H23 C38 1_555 1_555
H24 C39 1_555 1_555
C8 C14 1_555 1_555
C25 C26 1_555 1_555
C38 C39 1_555 1_555
O16 C54 1_555 1_555
O17 C54 1_555 1_555
Zn11 O16 1_555 1_555
Zn16 O17 1_555 1_555
O20 C68 1_555 1_555
O21 C68 1_555 1_555
C62 C63 1_555 1_555
C63 H37 1_555 1_555
C67 C62 1_555 1_555
H40 C67 1_555 1_555
C68 C62 1_555 1_555
Zn11 O20 1_555 1_555
Zn16 O21 1_555 1_555
Zn11 N14 1_555 1_555
N14 C109 1_555 1_555
C109 H65 1_555 1_555
C110 C109 1_555 1_555
H66 C110 1_555 1_555
C113 N14 1_555 1_555
H68 C113 1_555 1_555
C112 C113 1_555 1_555
Zn11 O14 1_555 1_555
Zn16 O15 1_555 1_555
O14 C47 1_555 1_555
O15 C47 1_555 1_555
O18 Zn11 1_555 1_555
O19 Zn16 1_555 1_555
C41 C42 1_555 1_555
C42 H25 1_555 1_555
C43 C42 1_555 1_555
H26 C43 1_555 1_555
C44 C43 1_555 1_555
C45 C44 1_555 1_555
H27 C45 1_555 1_555
C46 C41 1_555 1_555
H28 C46 1_555 1_555
C47 C41 1_555 1_555
C48 C49 1_555 1_555
C49 H29 1_555 1_555
C50 C49 1_555 1_555
H30 C50 1_555 1_555
C51 C44 1_555 1_555
C52 C51 1_555 1_555
H31 C52 1_555 1_555
C53 C48 1_555 1_555
H32 C53 1_555 1_555
C55 C56 1_555 1_555
C56 H33 1_555 1_555
C57 C56 1_555 1_555
H34 C57 1_555 1_555
C58 C57 1_555 1_555
C59 C58 1_555 1_555
H35 C59 1_555 1_555
C60 C55 1_555 1_555
H36 C60 1_555 1_555
C61 O18 1_555 1_555
H38 C64 1_555 1_555
C65 C58 1_555 1_555
C66 C65 1_555 1_555
H39 C66 1_555 1_555
N16 N17 1_555 1_555
N17 C115 1_555 1_555
N18 N19 1_555 1_555
N19 C114 1_555 1_555
N20 Zn16 1_555 1_555
C114 N16 1_555 1_555
C115 N18 1_555 1_555
C116 N20 1_555 1_555
H69 C116 1_555 1_555
C117 C116 1_555 1_555
H70 C117 1_555 1_555
C118 C115 1_555 1_555
C119 C118 1_555 1_555
H71 C119 1_555 1_555
C120 N20 1_555 1_555
H72 C120 1_555 1_555
O19 C61 1_555 1_555
C45 C46 1_555 1_555
C50 C51 1_555 1_555
C52 C53 1_555 1_555
C55 C61 1_555 1_555
C59 C60 1_555 1_555
C64 C65 1_555 1_555
C111 C114 1_555 1_555
C117 C118 1_555 1_555
C119 C120 1_555 1_555
Zn10 O22 1_555 1_555
Zn15 O23 1_555 1_555
O22 C87 1_555 1_555
O23 C87 1_555 1_555
O25 Zn10 1_555 1_555
O27 Zn15 1_555 1_555
O29 Zn10 1_555 1_555
O31 Zn15 1_555 1_555
O33 Zn10 1_555 1_555
O35 Zn15 1_555 1_555
N15 Zn10 1_555 1_555
N21 Zn15 1_555 1_555
C81 C82 1_555 1_555
C82 H49 1_555 1_555
C83 C82 1_555 1_555
H50 C83 1_555 1_555
C84 C83 1_555 1_555
C85 C84 1_555 1_555
H51 C85 1_555 1_555
C86 C81 1_555 1_555
H52 C86 1_555 1_555
C87 C81 1_555 1_555
C88 C89 1_555 1_555
C89 H53 1_555 1_555
C90 C89 1_555 1_555
H54 C90 1_555 1_555
C91 C84 1_555 1_555
C92 C91 1_555 1_555
H55 C92 1_555 1_555
C93 C88 1_555 1_555
H56 C93 1_555 1_555
C85 C86 1_555 1_555
C90 C91 1_555 1_555
C92 C93 1_555 1_555
O29 C101 1_555 1_555
O31 C101 1_555 1_555
C95 C96 1_555 1_555
C96 H57 1_555 1_555
C97 C96 1_555 1_555
H58 C97 1_555 1_555
C98 C97 1_555 1_555
C99 C98 1_555 1_555
H59 C99 1_555 1_555
C100 C95 1_555 1_555
H60 C100 1_555 1_555
C101 C95 1_555 1_555
H62 C104 1_555 1_555
C105 C98 1_555 1_555
C106 C105 1_555 1_555
H63 C106 1_555 1_555
C99 C100 1_555 1_555
C104 C105 1_555 1_555
N9 N10 1_555 1_555
N10 C75 1_555 1_555
N11 N12 1_555 1_555
N12 C74 1_555 1_555
N21 C76 1_555 1_555
C74 N9 1_555 1_555
C75 N11 1_555 1_555
C76 H45 1_555 1_555
C77 C76 1_555 1_555
H46 C77 1_555 1_555
C78 C75 1_555 1_555
C79 C78 1_555 1_555
H47 C79 1_555 1_555
C80 N21 1_555 1_555
H48 C80 1_555 1_555
C71 C74 1_555 1_555
C77 C78 1_555 1_555
C79 C80 1_555 1_555
C69 N15 1_555 1_555
H41 C69 1_555 1_555
C70 C69 1_555 1_555
H42 C70 1_555 1_555
C73 N15 1_555 1_555
H44 C73 1_555 1_555
C94 O25 1_555 1_555
C102 C103 1_555 1_555
C103 H61 1_555 1_555
C107 C102 1_555 1_555
H64 C107 1_555 1_555
C108 O33 1_555 1_555
C72 C73 1_555 1_555
O27 C94 1_555 1_555
O35 C108 1_555 1_555
C102 C108 1_555 1_555

#END
