
###############################################################################
#
# This file contains modified crystal structure data generated from the
# MOF subset of the Cambridge Structural Database (CSD) v543 
# hosted by the Cambridge Crystallographic Data Centre (CCDC).
#
# This work is licensed under the Creative Commons
# Attribution-NonCommercial-ShareAlike 4.0 International License.
# To view a copy of this license, visit
# http://creativecommons.org/licenses/by-nc-sa/4.0/
# or send a letter to
# Creative Commons, PO Box 1866, Mountain View, CA 94042, USA.
#
# CIF created using the CSD Python API on 29 September 2022
# The structure has been converted into the P1 space group
# The structure has a 3D framework
# The original CSD entry UVUPUX is in the monoclinic crystal system
# The framework has been calculated to contain at least 10.0% void space
# The void calculation uses a probe of radius 1.32A, grid spacing 0.4
#
###############################################################################

data_UVUPUX
_chemical_formula_moiety         '(C160 H96 N24 O40 Zn6)n'
_symmetry_cell_setting           triclinic
_symmetry_space_group_name_H-M   'P 1'
_symmetry_Int_Tables_number      1
_space_group_name_Hall           'P 1'
loop_
_symmetry_equiv_pos_site_id
_symmetry_equiv_pos_as_xyz
1 x,y,z
_cell_length_a                   27.932(6)
_cell_length_b                   7.5323(15)
_cell_length_c                   23.999(5)
_cell_angle_alpha                90
_cell_angle_beta                 103.99(3)
_cell_angle_gamma                90
_cell_volume                     4899.43
loop_
_atom_site_label
_atom_site_type_symbol
_atom_site_fract_x
_atom_site_fract_y
_atom_site_fract_z
Zn4 Zn 0.036045(8) 0.14503(3) 0.508546(9)
Zn2 Zn 0.036045(8) 0.85497(3) 0.008546(9)
N5 N 0.09548(6) 0.6937(2) 0.01338(7)
Zn7 Zn 0.536045(8) 0.35497(3) 0.008546(9)
N4 N 0.59548(6) 0.1937(2) 0.01338(7)
C35 C 0.59504(8) 0.0223(3) 0.02826(9)
C38 C 0.67484(9) 0.1504(3) 0.99545(12)
H23 H 0.7018 0.1977 0.9842
C39 C 0.63527(8) 0.2562(3) 0.99798(10)
H24 H 0.6362 0.3758 0.9886
C18 C 0.82516(9) 0.3496(3) 0.00455(12)
H11 H 0.7982 0.3023 0.0158
C19 C 0.86473(8) 0.2438(3) 0.00202(10)
H12 H 0.8638 0.1242 0.0114
Zn6 Zn 0.963955(8) 0.85497(3) 0.491454(9)
N6 N 0.71425(8) 0.6881(3) 0.02465(11)
N7 N 0.75074(8) 0.5806(3) 0.01965(11)
H21 H 0.5677 0.9784 0.0395
C36 C 0.63364(8) 0.9085(3) 0.02758(10)
H22 H 0.6325 0.7907 0.0388
C37 C 0.67392(8) 0.9723(3) 0.00987(9)
C40 C 0.71479(8) 0.8522(3) 0.00483(11)
Zn1 Zn 0.963955(8) 0.14503(3) 0.991454(9)
N1 N 0.90452(6) 0.3063(2) 0.98662(7)
N2 N 0.78575(8) 0.8119(3) 0.97535(11)
N3 N 0.74926(8) 0.9194(3) 0.98035(11)
C15 C 0.90496(8) 0.4777(3) 0.97174(9)
H9 H 0.9323 0.5216 0.9605
C16 C 0.86636(8) 0.5915(3) 0.97242(10)
H10 H 0.8675 0.7093 0.9612
C17 C 0.82608(8) 0.5277(3) 0.99013(9)
C20 C 0.78521(8) 0.6478(3) 0.99517(11)
Zn7_2 Zn 0.463955(8) 0.35497(3) 0.491454(9)
N4_2 N 0.40452(6) 0.1937(2) 0.48662(7)
C35_2 C 0.40496(8) 0.0223(3) 0.47174(9)
C38_2 C 0.32516(9) 0.1504(3) 0.50455(12)
H23_2 H 0.2982 0.1977 0.5158
C39_2 C 0.36473(8) 0.2562(3) 0.50202(10)
H24_2 H 0.3638 0.3758 0.5114
N1_2 N 0.09548(6) 0.3063(2) 0.51338(7)
N2_2 N 0.21425(8) 0.8119(3) 0.52465(11)
N3_2 N 0.25074(8) 0.9194(3) 0.51965(11)
C15_2 C 0.09504(8) 0.4777(3) 0.52826(9)
H9_2 H 0.0677 0.5216 0.5395
C16_2 C 0.13364(8) 0.5915(3) 0.52758(10)
H10_2 H 0.1325 0.7093 0.5388
C17_2 C 0.17392(8) 0.5277(3) 0.50987(9)
C18_2 C 0.17484(9) 0.3496(3) 0.49545(12)
H11_2 H 0.2018 0.3023 0.4842
C19_2 C 0.13527(8) 0.2438(3) 0.49798(10)
H12_2 H 0.1362 0.1242 0.4886
C20_2 C 0.21479(8) 0.6478(3) 0.50483(11)
N6_2 N 0.28575(8) 0.6881(3) 0.47535(11)
N7_2 N 0.24926(8) 0.5806(3) 0.48035(11)
H21_2 H 0.4323 0.9784 0.4605
C36_2 C 0.36636(8) 0.9085(3) 0.47242(10)
H22_2 H 0.3675 0.7907 0.4612
C37_2 C 0.32608(8) 0.9723(3) 0.49013(9)
C40_2 C 0.28521(8) 0.8522(3) 0.49517(11)
N5_2 N 0.90452(6) 0.6937(2) 0.48662(7)
Zn4_2 Zn 0.536045(8) 0.64503(3) 0.508546(9)
O8 O 0.55804(6) 0.4573(2) 0.45720(7)
O11 O 0.50513(6) 0.2319(2) 0.44394(6)
N6_3 N 0.21425(8) 0.1881(3) 0.02465(11)
N7_3 N 0.25074(8) 0.0806(3) 0.01965(11)
H15 H 0.5860 0.0970 0.2234
C28 C 0.62709(9) 0.0437(3) 0.33516(9)
C29 C 0.63918(9) 0.2144(4) 0.35287(10)
H17 H 0.6653 0.2719 0.3426
C30 C 0.61226(9) 0.3003(3) 0.38608(10)
H18 H 0.6205 0.4158 0.3984
C31 C 0.57301(8) 0.2163(3) 0.40120(8)
C32 C 0.56275(9) 0.0403(3) 0.38416(10)
C34 C 0.54295(8) 0.3076(3) 0.43659(9)
C35_3 C 0.09504(8) 0.5223(3) 0.02826(9)
H21_3 H 0.0677 0.4784 0.0395
C36_3 C 0.13364(8) 0.4085(3) 0.02758(10)
H22_3 H 0.1325 0.2907 0.0388
C37_3 C 0.17392(8) 0.4723(3) 0.00987(9)
C40_3 C 0.21479(8) 0.3522(3) 0.00483(11)
N2_3 N 0.28575(8) 0.3119(3) 0.97535(11)
N3_3 N 0.24926(8) 0.4194(3) 0.98035(11)
H9_3 H 0.4323 0.0216 0.9605
C16_3 C 0.36636(8) 0.0915(3) 0.97242(10)
H10_3 H 0.3675 0.2093 0.9612
C17_3 C 0.32608(8) 0.0277(3) 0.99013(9)
C20_3 C 0.28521(8) 0.1478(3) 0.99517(11)
C38_3 C 0.17484(9) 0.6504(3) 0.99545(12)
H23_3 H 0.2018 0.6977 0.9842
C39_3 C 0.13527(8) 0.7562(3) 0.99798(10)
H24_3 H 0.1362 0.8758 0.9886
C18_3 C 0.32516(9) 0.8496(3) 0.00455(12)
H11_3 H 0.2982 0.8023 0.0158
C19_3 C 0.36473(8) 0.7438(3) 0.00202(10)
H12_3 H 0.3638 0.6242 0.0114
O6 O 0.51329(6) 0.7339(2) 0.06406(6)
O7 O 0.56644(6) 0.5088(2) 0.07832(7)
O10 O 0.44196(6) 0.4573(2) 0.04280(7)
O13 O 0.49487(6) 0.2319(2) 0.05606(6)
O14 O 0.65530(6) 0.9570(3) 0.30243(7)
C21 C 0.57876(8) 0.7377(3) 0.14733(9)
C22 C 0.61497(10) 0.6436(3) 0.18502(11)
H13 H 0.6228 0.5295 0.1753
C23 C 0.64000(11) 0.7158(4) 0.23721(11)
H14 H 0.6642 0.6509 0.2625
C24 C 0.62833(9) 0.8847(4) 0.25060(10)
C25 C 0.59320(10) 0.9821(4) 0.21367(11)
C26 C 0.56834(9) 0.9093(3) 0.16179(10)
H16 H 0.5445 0.9757 0.1365
C27 C 0.55054(8) 0.6539(3) 0.09229(9)
H19 H 0.5374 0.9804 0.3952
C33 C 0.58958(10) 0.9545(3) 0.35136(11)
H20 H 0.5825 0.8373 0.3402
Zn1_2 Zn 0.463955(8) 0.64503(3) 0.991454(9)
O1 O 0.48671(6) 0.2661(2) 0.93594(6)
O2 O 0.43356(6) 0.4912(2) 0.92168(7)
O5 O 0.34470(6) 0.0430(3) 0.69757(7)
N1_3 N 0.40452(6) 0.8063(2) 0.98662(7)
C1 C 0.42124(8) 0.2623(3) 0.85267(9)
C2 C 0.38503(10) 0.3564(3) 0.81498(11)
H1 H 0.3772 0.4705 0.8247
C3 C 0.36000(11) 0.2842(4) 0.76279(11)
H2 H 0.3358 0.3491 0.7375
C4 C 0.37167(9) 0.1153(4) 0.74940(10)
C5 C 0.40680(10) 0.0179(4) 0.78633(11)
C6 C 0.43166(9) 0.0907(3) 0.83821(10)
H4 H 0.4555 0.0243 0.8635
C7 C 0.44946(8) 0.3461(3) 0.90771(9)
H7 H 0.4626 0.0196 0.6048
C13 C 0.41042(10) 0.0455(3) 0.64864(11)
H8 H 0.4175 0.1627 0.6598
C15_3 C 0.40496(8) 0.9777(3) 0.97174(9)
O9 O 0.55804(6) 0.5427(2) 0.95720(7)
O12 O 0.50513(6) 0.7681(2) 0.94394(6)
O3 O 0.44196(6) 0.5427(2) 0.54280(7)
O4 O 0.49487(6) 0.7681(2) 0.55606(6)
H3 H 0.4140 0.9030 0.7766
C8 C 0.37291(9) 0.9563(3) 0.66484(9)
C9 C 0.36082(9) 0.7856(4) 0.64713(10)
H5 H 0.3347 0.7281 0.6574
C10 C 0.38774(9) 0.6997(3) 0.61392(10)
H6 H 0.3795 0.5842 0.6016
C11 C 0.42699(8) 0.7837(3) 0.59880(8)
C12 C 0.43725(9) 0.9597(3) 0.61584(10)
C14 C 0.45705(8) 0.6924(3) 0.56341(9)
N2_4 N 0.71425(8) 0.3119(3) 0.52465(11)
N3_4 N 0.75074(8) 0.4194(3) 0.51965(11)
H9_4 H 0.5677 0.0216 0.5395
C16_4 C 0.63364(8) 0.0915(3) 0.52758(10)
H10_4 H 0.6325 0.2093 0.5388
C17_4 C 0.67392(8) 0.0277(3) 0.50987(9)
C20_4 C 0.71479(8) 0.1478(3) 0.50483(11)
N6_4 N 0.78575(8) 0.1881(3) 0.47535(11)
N7_4 N 0.74926(8) 0.0806(3) 0.48035(11)
H15_2 H 0.4140 0.0970 0.2766
C28_2 C 0.37291(9) 0.0437(3) 0.16484(9)
C29_2 C 0.36082(9) 0.2144(4) 0.14713(10)
H17_2 H 0.3347 0.2719 0.1574
C30_2 C 0.38774(9) 0.3003(3) 0.11392(10)
H18_2 H 0.3795 0.4158 0.1016
C31_2 C 0.42699(8) 0.2163(3) 0.09880(8)
C32_2 C 0.43725(9) 0.0403(3) 0.11584(10)
C34_2 C 0.45705(8) 0.3076(3) 0.06341(9)
C35_4 C 0.90496(8) 0.5223(3) 0.47174(9)
H21_4 H 0.9323 0.4784 0.4605
C36_4 C 0.86636(8) 0.4085(3) 0.47242(10)
H22_4 H 0.8675 0.2907 0.4612
C37_4 C 0.82608(8) 0.4723(3) 0.49013(9)
C38_4 C 0.82516(9) 0.6504(3) 0.50455(12)
H23_4 H 0.7982 0.6977 0.5158
C39_4 C 0.86473(8) 0.7562(3) 0.50202(10)
H24_4 H 0.8638 0.8758 0.5114
C40_4 C 0.78521(8) 0.3522(3) 0.49517(11)
O1_2 O 0.51329(6) 0.2661(2) 0.56406(6)
O2_2 O 0.56644(6) 0.4912(2) 0.57832(7)
O5_2 O 0.65530(6) 0.0430(3) 0.80243(7)
N1_4 N 0.59548(6) 0.8063(2) 0.51338(7)
C1_2 C 0.57876(8) 0.2623(3) 0.64733(9)
C2_2 C 0.61497(10) 0.3564(3) 0.68502(11)
H1_2 H 0.6228 0.4705 0.6753
C3_2 C 0.64000(11) 0.2842(4) 0.73721(11)
H2_2 H 0.6642 0.3491 0.7625
C4_2 C 0.62833(9) 0.1153(4) 0.75060(10)
C5_2 C 0.59320(10) 0.0179(4) 0.71367(11)
C6_2 C 0.56834(9) 0.0907(3) 0.66179(10)
H4_2 H 0.5445 0.0243 0.6365
C7_2 C 0.55054(8) 0.3461(3) 0.59229(9)
H7_2 H 0.5374 0.0196 0.8952
C13_2 C 0.58958(10) 0.0455(3) 0.85136(11)
H8_2 H 0.5825 0.1627 0.8402
C15_4 C 0.59504(8) 0.9777(3) 0.52826(9)
C18_4 C 0.67484(9) 0.8496(3) 0.49545(12)
H11_4 H 0.7018 0.8023 0.4842
C19_4 C 0.63527(8) 0.7438(3) 0.49798(10)
H12_4 H 0.6362 0.6242 0.4886
O6_2 O 0.48671(6) 0.7339(2) 0.43594(6)
O7_2 O 0.43356(6) 0.5088(2) 0.42168(7)
O14_2 O 0.34470(6) 0.9570(3) 0.19757(7)
C21_2 C 0.42124(8) 0.7377(3) 0.35267(9)
C22_2 C 0.38503(10) 0.6436(3) 0.31498(11)
H13_2 H 0.3772 0.5295 0.3247
C23_2 C 0.36000(11) 0.7158(4) 0.26279(11)
H14_2 H 0.3358 0.6509 0.2375
C24_2 C 0.37167(9) 0.8847(4) 0.24940(10)
C25_2 C 0.40680(10) 0.9821(4) 0.28633(11)
C26_2 C 0.43166(9) 0.9093(3) 0.33821(10)
H16_2 H 0.4555 0.9757 0.3635
C27_2 C 0.44946(8) 0.6539(3) 0.40771(9)
H19_2 H 0.4626 0.9804 0.1048
C33_2 C 0.41042(10) 0.9545(3) 0.14864(11)
H20_2 H 0.4175 0.8373 0.1598
H3_2 H 0.5860 0.9030 0.7234
C8_2 C 0.62709(9) 0.9563(3) 0.83516(9)
C9_2 C 0.63918(9) 0.7856(4) 0.85287(10)
H5_2 H 0.6653 0.7281 0.8426
C10_2 C 0.61226(9) 0.6997(3) 0.88608(10)
H6_2 H 0.6205 0.5842 0.8984
C11_2 C 0.57301(8) 0.7837(3) 0.90120(8)
C12_2 C 0.56275(9) 0.9597(3) 0.88416(10)
C14_2 C 0.54295(8) 0.6924(3) 0.93659(9)
O6_3 O 0.01329(6) 0.2339(2) 0.06406(6)
O7_3 O 0.06644(6) 0.0088(2) 0.07832(7)
O8_2 O 0.05804(6) 0.9573(2) 0.45720(7)
O11_2 O 0.00513(6) 0.7319(2) 0.44394(6)
O14_3 O 0.15530(6) 0.4570(3) 0.30243(7)
C21_3 C 0.07876(8) 0.2377(3) 0.14733(9)
C22_3 C 0.11497(10) 0.1436(3) 0.18502(11)
H13_3 H 0.1228 0.0295 0.1753
C23_3 C 0.14000(11) 0.2158(4) 0.23721(11)
H14_3 H 0.1642 0.1509 0.2625
C24_3 C 0.12833(9) 0.3847(4) 0.25060(10)
C25_3 C 0.09320(10) 0.4821(4) 0.21367(11)
H15_3 H 0.0860 0.5970 0.2234
C26_3 C 0.06834(9) 0.4093(3) 0.16179(10)
H16_3 H 0.0445 0.4757 0.1365
C27_3 C 0.05054(8) 0.1539(3) 0.09229(9)
C28_3 C 0.12709(9) 0.5437(3) 0.33516(9)
C29_3 C 0.13918(9) 0.7144(4) 0.35287(10)
H17_3 H 0.1653 0.7719 0.3426
C30_3 C 0.11226(9) 0.8003(3) 0.38608(10)
H18_3 H 0.1205 0.9158 0.3984
C31_3 C 0.07301(8) 0.7163(3) 0.40120(8)
C32_3 C 0.06275(9) 0.5403(3) 0.38416(10)
H19_3 H 0.0374 0.4804 0.3952
C33_3 C 0.08958(10) 0.4545(3) 0.35136(11)
H20_3 H 0.0825 0.3373 0.3402
C34_3 C 0.04295(8) 0.8076(3) 0.43659(9)
O9_2 O 0.05804(6) 0.0427(2) 0.95720(7)
O12_2 O 0.00513(6) 0.2681(2) 0.94394(6)
O1_3 O 0.01329(6) 0.7661(2) 0.56406(6)
O2_3 O 0.06644(6) 0.9912(2) 0.57832(7)
O5_3 O 0.15530(6) 0.5430(3) 0.80243(7)
C1_3 C 0.07876(8) 0.7623(3) 0.64733(9)
C2_3 C 0.11497(10) 0.8564(3) 0.68502(11)
H1_3 H 0.1228 0.9705 0.6753
C3_3 C 0.14000(11) 0.7842(4) 0.73721(11)
H2_3 H 0.1642 0.8491 0.7625
C4_3 C 0.12833(9) 0.6153(4) 0.75060(10)
C5_3 C 0.09320(10) 0.5179(4) 0.71367(11)
H3_3 H 0.0860 0.4030 0.7234
C6_3 C 0.06834(9) 0.5907(3) 0.66179(10)
H4_3 H 0.0445 0.5243 0.6365
C7_3 C 0.05054(8) 0.8461(3) 0.59229(9)
C8_3 C 0.12709(9) 0.4563(3) 0.83516(9)
C9_3 C 0.13918(9) 0.2856(4) 0.85287(10)
H5_3 H 0.1653 0.2281 0.8426
C10_3 C 0.11226(9) 0.1997(3) 0.88608(10)
H6_3 H 0.1205 0.0842 0.8984
C11_3 C 0.07301(8) 0.2837(3) 0.90120(8)
C12_3 C 0.06275(9) 0.4597(3) 0.88416(10)
H7_3 H 0.0374 0.5196 0.8952
C13_3 C 0.08958(10) 0.5455(3) 0.85136(11)
H8_3 H 0.0825 0.6627 0.8402
C14_3 C 0.04295(8) 0.1924(3) 0.93659(9)
O10_2 O 0.94196(6) 0.9573(2) 0.04280(7)
O13_2 O 0.99487(6) 0.7319(2) 0.05606(6)
O1_4 O 0.98671(6) 0.7661(2) 0.93594(6)
O2_4 O 0.93356(6) 0.9912(2) 0.92168(7)
O3_2 O 0.94196(6) 0.0427(2) 0.54280(7)
O4_2 O 0.99487(6) 0.2681(2) 0.55606(6)
O5_4 O 0.84470(6) 0.5430(3) 0.69757(7)
C1_4 C 0.92124(8) 0.7623(3) 0.85267(9)
C2_4 C 0.88503(10) 0.8564(3) 0.81498(11)
H1_4 H 0.8772 0.9705 0.8247
C3_4 C 0.86000(11) 0.7842(4) 0.76279(11)
H2_4 H 0.8358 0.8491 0.7375
C4_4 C 0.87167(9) 0.6153(4) 0.74940(10)
C5_4 C 0.90680(10) 0.5179(4) 0.78633(11)
H3_4 H 0.9140 0.4030 0.7766
C6_4 C 0.93166(9) 0.5907(3) 0.83821(10)
H4_4 H 0.9555 0.5243 0.8635
C7_4 C 0.94946(8) 0.8461(3) 0.90771(9)
C8_4 C 0.87291(9) 0.4563(3) 0.66484(9)
C9_4 C 0.86082(9) 0.2856(4) 0.64713(10)
H5_4 H 0.8347 0.2281 0.6574
C10_4 C 0.88774(9) 0.1997(3) 0.61392(10)
H6_4 H 0.8795 0.0842 0.6016
C11_4 C 0.92699(8) 0.2837(3) 0.59880(8)
C12_4 C 0.93725(9) 0.4597(3) 0.61584(10)
H7_4 H 0.9626 0.5196 0.6048
C13_4 C 0.91042(10) 0.5455(3) 0.64864(11)
H8_4 H 0.9175 0.6627 0.6598
C14_4 C 0.95705(8) 0.1924(3) 0.56341(9)
O6_4 O 0.98671(6) 0.2339(2) 0.43594(6)
O7_4 O 0.93356(6) 0.0088(2) 0.42168(7)
O14_4 O 0.84470(6) 0.4570(3) 0.19757(7)
C21_4 C 0.92124(8) 0.2377(3) 0.35267(9)
C22_4 C 0.88503(10) 0.1436(3) 0.31498(11)
H13_4 H 0.8772 0.0295 0.3247
C23_4 C 0.86000(11) 0.2158(4) 0.26279(11)
H14_4 H 0.8358 0.1509 0.2375
C24_4 C 0.87167(9) 0.3847(4) 0.24940(10)
C25_4 C 0.90680(10) 0.4821(4) 0.28633(11)
H15_4 H 0.9140 0.5970 0.2766
C26_4 C 0.93166(9) 0.4093(3) 0.33821(10)
H16_4 H 0.9555 0.4757 0.3635
C27_4 C 0.94946(8) 0.1539(3) 0.40771(9)
C28_4 C 0.87291(9) 0.5437(3) 0.16484(9)
C29_4 C 0.86082(9) 0.7144(4) 0.14713(10)
H17_4 H 0.8347 0.7719 0.1574
C30_4 C 0.88774(9) 0.8003(3) 0.11392(10)
H18_4 H 0.8795 0.9158 0.1016
C31_4 C 0.92699(8) 0.7163(3) 0.09880(8)
C32_4 C 0.93725(9) 0.5403(3) 0.11584(10)
H19_4 H 0.9626 0.4804 0.1048
C33_4 C 0.91042(10) 0.4545(3) 0.14864(11)
H20_4 H 0.9175 0.3373 0.1598
C34_4 C 0.95705(8) 0.8076(3) 0.06341(9)
loop_
_geom_bond_atom_site_label_1
_geom_bond_atom_site_label_2
_geom_bond_site_symmetry_1
_geom_bond_site_symmetry_2
N5 Zn2 1_555 1_555
Zn7 N4 1_555 1_555
N4 C35 1_555 1_555
H23 C38 1_555 1_555
H24 C39 1_555 1_555
C38 C39 1_555 1_555
H11 C18 1_555 1_555
H12 C19 1_555 1_555
N6 N7 1_555 1_555
H22 C36 1_555 1_555
C37 C36 1_555 1_555
C40 N6 1_555 1_555
C18 C19 1_555 1_555
C37 C40 1_555 1_555
N1 Zn1 1_555 1_555
N2 N3 1_555 1_555
C15 N1 1_555 1_555
H9 C15 1_555 1_555
C16 C15 1_555 1_555
H10 C16 1_555 1_555
C17 C16 1_555 1_555
C20 N2 1_555 1_555
C17 C20 1_555 1_555
Zn7_2 N4_2 1_555 1_555
N4_2 C35_2 1_555 1_555
H23_2 C38_2 1_555 1_555
C39_2 N4_2 1_555 1_555
H24_2 C39_2 1_555 1_555
C38_2 C39_2 1_555 1_555
N1_2 Zn4 1_555 1_555
N2_2 N3_2 1_555 1_555
N3_2 C40_2 1_555 1_555
C15_2 N1_2 1_555 1_555
H9_2 C15_2 1_555 1_555
C16_2 C15_2 1_555 1_555
H10_2 C16_2 1_555 1_555
C17_2 C16_2 1_555 1_555
C18_2 C17_2 1_555 1_555
H11_2 C18_2 1_555 1_555
C19_2 N1_2 1_555 1_555
H12_2 C19_2 1_555 1_555
C20_2 N2_2 1_555 1_555
N6_2 N7_2 1_555 1_555
N7_2 C20_2 1_555 1_555
H22_2 C36_2 1_555 1_555
C37_2 C36_2 1_555 1_555
C40_2 N6_2 1_555 1_555
C17_2 C20_2 1_555 1_555
C18_2 C19_2 1_555 1_555
C37_2 C40_2 1_555 1_555
N5_2 Zn6 1_555 1_555
Zn4_2 O8 1_555 1_555
Zn7_2 O11 1_555 1_555
O8 C34 1_555 1_555
O11 C34 1_555 1_555
N5 C35_3 1_555 1_555
N6_3 N7_3 1_555 1_555
C29 C28 1_555 1_555
H17 C29 1_555 1_555
C30 C29 1_555 1_555
H18 C30 1_555 1_555
C31 C30 1_555 1_555
C32 C31 1_555 1_555
C34 C31 1_555 1_555
C35_3 H21_3 1_555 1_555
C36_3 C35_3 1_555 1_555
H22_3 C36_3 1_555 1_555
C37_3 C36_3 1_555 1_555
C40_3 N6_3 1_555 1_555
C37_3 C40_3 1_555 1_555
N2_3 N3_3 1_555 1_555
H10_3 C16_3 1_555 1_555
C17_3 C16_3 1_555 1_555
C20_3 N2_3 1_555 1_555
H23_3 C38_3 1_555 1_555
H24_3 C39_3 1_555 1_555
C17_3 C20_3 1_555 1_555
C38_3 C39_3 1_555 1_555
H11_3 C18_3 1_555 1_555
H12_3 C19_3 1_555 1_555
O7 Zn7 1_555 1_555
O13 Zn7 1_555 1_555
O14 C24 1_555 1_555
C21 C22 1_555 1_555
C22 H13 1_555 1_555
C23 C22 1_555 1_555
H14 C23 1_555 1_555
C24 C23 1_555 1_555
C25 C24 1_555 1_555
C26 C21 1_555 1_555
H16 C26 1_555 1_555
C27 O6 1_555 1_555
H20 C33 1_555 1_555
C18_3 C19_3 1_555 1_555
O7 C27 1_555 1_555
C21 C27 1_555 1_555
C25 C26 1_555 1_555
Zn1_2 O2 1_555 1_555
O1 C7 1_555 1_555
O2 C7 1_555 1_555
O5 C4 1_555 1_555
N1_3 Zn1_2 1_555 1_555
C1 C2 1_555 1_555
C2 H1 1_555 1_555
C3 C2 1_555 1_555
H2 C3 1_555 1_555
C4 C3 1_555 1_555
C5 C4 1_555 1_555
C6 C1 1_555 1_555
H4 C6 1_555 1_555
C7 C1 1_555 1_555
H8 C13 1_555 1_555
C15_3 N1_3 1_555 1_555
O12 Zn1_2 1_555 1_555
C5 C6 1_555 1_555
O3 C14 1_555 1_555
O4 C14 1_555 1_555
C9 C8 1_555 1_555
H5 C9 1_555 1_555
C10 C9 1_555 1_555
H6 C10 1_555 1_555
C11 C10 1_555 1_555
C12 C11 1_555 1_555
C14 C11 1_555 1_555
Zn4_2 O4 1_555 1_555
Zn7_2 O3 1_555 1_555
N2_4 N3_4 1_555 1_555
N3_4 C40_4 1_555 1_555
H10_4 C16_4 1_555 1_555
C17_4 C16_4 1_555 1_555
C20_4 N2_4 1_555 1_555
O10 C34_2 1_555 1_555
O13 C34_2 1_555 1_555
N5_2 C35_4 1_555 1_555
N6_4 N7_4 1_555 1_555
N7_4 C20_4 1_555 1_555
C29_2 C28_2 1_555 1_555
H17_2 C29_2 1_555 1_555
C30_2 C29_2 1_555 1_555
H18_2 C30_2 1_555 1_555
C31_2 C30_2 1_555 1_555
C32_2 C31_2 1_555 1_555
C34_2 C31_2 1_555 1_555
C35_4 H21_4 1_555 1_555
C36_4 C35_4 1_555 1_555
H22_4 C36_4 1_555 1_555
C37_4 C36_4 1_555 1_555
C38_4 C37_4 1_555 1_555
H23_4 C38_4 1_555 1_555
C39_4 N5_2 1_555 1_555
H24_4 C39_4 1_555 1_555
C40_4 N6_4 1_555 1_555
C17_4 C20_4 1_555 1_555
C37_4 C40_4 1_555 1_555
C38_4 C39_4 1_555 1_555
Zn4_2 O2_2 1_555 1_555
O1_2 C7_2 1_555 1_555
O2_2 C7_2 1_555 1_555
O5_2 C4_2 1_555 1_555
N1_4 Zn4_2 1_555 1_555
C1_2 C2_2 1_555 1_555
C2_2 H1_2 1_555 1_555
C3_2 C2_2 1_555 1_555
H2_2 C3_2 1_555 1_555
C4_2 C3_2 1_555 1_555
C5_2 C4_2 1_555 1_555
C6_2 C1_2 1_555 1_555
H4_2 C6_2 1_555 1_555
C7_2 C1_2 1_555 1_555
H8_2 C13_2 1_555 1_555
C15_4 N1_4 1_555 1_555
H11_4 C18_4 1_555 1_555
C19_4 N1_4 1_555 1_555
H12_4 C19_4 1_555 1_555
Zn7_2 O1_2 1_555 1_555
O6_2 Zn4_2 1_555 1_555
O7_2 Zn7_2 1_555 1_555
O14_2 C24_2 1_555 1_555
C21_2 C22_2 1_555 1_555
C22_2 H13_2 1_555 1_555
C23_2 C22_2 1_555 1_555
H14_2 C23_2 1_555 1_555
C24_2 C23_2 1_555 1_555
C25_2 C24_2 1_555 1_555
C26_2 C21_2 1_555 1_555
H16_2 C26_2 1_555 1_555
C27_2 O6_2 1_555 1_555
H20_2 C33_2 1_555 1_555
C5_2 C6_2 1_555 1_555
C18_4 C19_4 1_555 1_555
O7_2 C27_2 1_555 1_555
C21_2 C27_2 1_555 1_555
C25_2 C26_2 1_555 1_555
O9 C14_2 1_555 1_555
O12 C14_2 1_555 1_555
C9_2 C8_2 1_555 1_555
H5_2 C9_2 1_555 1_555
C10_2 C9_2 1_555 1_555
H6_2 C10_2 1_555 1_555
C11_2 C10_2 1_555 1_555
C12_2 C11_2 1_555 1_555
C14_2 C11_2 1_555 1_555
O8_2 C34_3 1_555 1_555
O11_2 C34_3 1_555 1_555
O14_3 C24_3 1_555 1_555
C21_3 C22_3 1_555 1_555
C22_3 H13_3 1_555 1_555
C23_3 C22_3 1_555 1_555
H14_3 C23_3 1_555 1_555
C24_3 C23_3 1_555 1_555
C25_3 C24_3 1_555 1_555
H15_3 C25_3 1_555 1_555
C26_3 C21_3 1_555 1_555
H16_3 C26_3 1_555 1_555
C27_3 O6_3 1_555 1_555
C28_3 O14_3 1_555 1_555
C29_3 C28_3 1_555 1_555
H17_3 C29_3 1_555 1_555
C30_3 C29_3 1_555 1_555
H18_3 C30_3 1_555 1_555
C31_3 C30_3 1_555 1_555
C32_3 C31_3 1_555 1_555
H19_3 C32_3 1_555 1_555
C33_3 C28_3 1_555 1_555
H20_3 C33_3 1_555 1_555
C34_3 C31_3 1_555 1_555
O7_3 C27_3 1_555 1_555
C21_3 C27_3 1_555 1_555
C25_3 C26_3 1_555 1_555
C32_3 C33_3 1_555 1_555
O1_3 C7_3 1_555 1_555
O2_3 C7_3 1_555 1_555
O9_2 C14_3 1_555 1_555
O12_2 C14_3 1_555 1_555
O5_3 C4_3 1_555 1_555
C1_3 C2_3 1_555 1_555
C2_3 H1_3 1_555 1_555
C3_3 C2_3 1_555 1_555
H2_3 C3_3 1_555 1_555
C4_3 C3_3 1_555 1_555
C5_3 C4_3 1_555 1_555
H3_3 C5_3 1_555 1_555
C6_3 C1_3 1_555 1_555
H4_3 C6_3 1_555 1_555
C7_3 C1_3 1_555 1_555
C8_3 O5_3 1_555 1_555
C9_3 C8_3 1_555 1_555
H5_3 C9_3 1_555 1_555
C10_3 C9_3 1_555 1_555
H6_3 C10_3 1_555 1_555
C11_3 C10_3 1_555 1_555
C12_3 C11_3 1_555 1_555
H7_3 C12_3 1_555 1_555
C13_3 C8_3 1_555 1_555
H8_3 C13_3 1_555 1_555
C14_3 C11_3 1_555 1_555
C5_3 C6_3 1_555 1_555
C12_3 C13_3 1_555 1_555
O1_4 C7_4 1_555 1_555
O2_4 C7_4 1_555 1_555
O3_2 C14_4 1_555 1_555
O4_2 C14_4 1_555 1_555
O5_4 C4_4 1_555 1_555
C1_4 C2_4 1_555 1_555
C2_4 H1_4 1_555 1_555
C3_4 C2_4 1_555 1_555
H2_4 C3_4 1_555 1_555
C4_4 C3_4 1_555 1_555
C5_4 C4_4 1_555 1_555
H3_4 C5_4 1_555 1_555
C6_4 C1_4 1_555 1_555
H4_4 C6_4 1_555 1_555
C7_4 C1_4 1_555 1_555
C8_4 O5_4 1_555 1_555
C9_4 C8_4 1_555 1_555
H5_4 C9_4 1_555 1_555
C10_4 C9_4 1_555 1_555
H6_4 C10_4 1_555 1_555
C11_4 C10_4 1_555 1_555
C12_4 C11_4 1_555 1_555
H7_4 C12_4 1_555 1_555
C13_4 C8_4 1_555 1_555
H8_4 C13_4 1_555 1_555
C14_4 C11_4 1_555 1_555
C5_4 C6_4 1_555 1_555
C12_4 C13_4 1_555 1_555
O10_2 C34_4 1_555 1_555
O13_2 C34_4 1_555 1_555
O14_4 C24_4 1_555 1_555
C21_4 C22_4 1_555 1_555
C22_4 H13_4 1_555 1_555
C23_4 C22_4 1_555 1_555
H14_4 C23_4 1_555 1_555
C24_4 C23_4 1_555 1_555
C25_4 C24_4 1_555 1_555
H15_4 C25_4 1_555 1_555
C26_4 C21_4 1_555 1_555
H16_4 C26_4 1_555 1_555
C27_4 O6_4 1_555 1_555
C28_4 O14_4 1_555 1_555
C29_4 C28_4 1_555 1_555
H17_4 C29_4 1_555 1_555
C30_4 C29_4 1_555 1_555
H18_4 C30_4 1_555 1_555
C31_4 C30_4 1_555 1_555
C32_4 C31_4 1_555 1_555
H19_4 C32_4 1_555 1_555
C33_4 C28_4 1_555 1_555
H20_4 C33_4 1_555 1_555
C34_4 C31_4 1_555 1_555
O7_4 C27_4 1_555 1_555
C21_4 C27_4 1_555 1_555
C25_4 C26_4 1_555 1_555
C32_4 C33_4 1_555 1_555

#END
