
###############################################################################
#
# This file contains modified crystal structure data generated from the
# MOF subset of the Cambridge Structural Database (CSD) v543 
# hosted by the Cambridge Crystallographic Data Centre (CCDC).
#
# This work is licensed under the Creative Commons
# Attribution-NonCommercial-ShareAlike 4.0 International License.
# To view a copy of this license, visit
# http://creativecommons.org/licenses/by-nc-sa/4.0/
# or send a letter to
# Creative Commons, PO Box 1866, Mountain View, CA 94042, USA.
#
# CIF created using the CSD Python API on 29 September 2022
# The structure has been converted into the P1 space group
# The structure has a 3D framework
# The original CSD entry UVUQAE is in the monoclinic crystal system
# The framework has been calculated to contain at least 10.0% void space
# The void calculation uses a probe of radius 1.32A, grid spacing 0.4
#
###############################################################################

data_UVUQAE
_chemical_formula_moiety         '(C296 H216 N32 O88 Zn14)n'
_symmetry_cell_setting           triclinic
_symmetry_space_group_name_H-M   'P 1'
_symmetry_Int_Tables_number      1
_space_group_name_Hall           'P 1'
loop_
_symmetry_equiv_pos_site_id
_symmetry_equiv_pos_as_xyz
1 x,y,z
_cell_length_a                   25.367(5)
_cell_length_b                   16.334(3)
_cell_length_c                   21.515(4)
_cell_angle_alpha                90
_cell_angle_beta                 97.30(3)
_cell_angle_gamma                90
_cell_volume                     8842.37
loop_
_atom_site_label
_atom_site_type_symbol
_atom_site_fract_x
_atom_site_fract_y
_atom_site_fract_z
N1 N 0.03173(12) 0.54915(19) 0.03912(19)
H19 H 0.0295 0.6953 0.0806
N6 N 0.04978(13) 0.4779(2) 0.0237(2)
H47 H 0.1129 0.3681 0.0081
Zn8 Zn 0.192098(14) 0.24026(2) 0.993903(18)
N7 N 0.11225(11) 0.25890(15) 0.96892(14)
C66 C 0.01787(14) 0.4311(2) 0.9852(2)
C67 C 0.08092(14) 0.2058(2) 0.9347(2)
H44 H 0.0955 0.1566 0.9235
C68 C 0.02823(17) 0.2205(3) 0.9154(3)
H45 H 0.0075 0.1818 0.8919
C69 C 0.00635(16) 0.2937(3) 0.9314(2)
C70 C 0.03861(14) 0.3510(2) 0.96597(19)
C71 C 0.09124(13) 0.33073(19) 0.98427(17)
Zn5 Zn 0.307902(14) 0.25974(2) 0.006097(18)
O9 O 0.79358(9) 0.14724(13) 0.56376(11)
O10 O 0.70511(9) 0.16496(13) 0.55499(11)
C22 C 0.74238(13) 0.04793(19) 0.61000(16)
C23 C 0.78711(14) 0.0076(2) 0.63695(19)
H13 H 0.8204 0.0292 0.6330
C27 C 0.69280(15) 0.0165(2) 0.6172(2)
H16 H 0.6624 0.0440 0.5997
C28 C 0.74719(14) 0.12586(19) 0.57377(16)
Zn6 Zn 0.692098(14) 0.25974(2) 0.493903(18)
Zn9 Zn 0.807902(14) 0.24026(2) 0.506097(18)
O22 O 0.20642(9) 0.14724(13) 0.93624(11)
O25 O 0.29489(9) 0.16496(13) 0.94501(11)
C59 C 0.25762(13) 0.04793(19) 0.89000(16)
C60 C 0.21289(14) 0.0076(2) 0.86305(19)
H40 H 0.1796 0.0292 0.8670
C64 C 0.30720(15) 0.0165(2) 0.8828(2)
H43 H 0.3376 0.0440 0.9003
C65 C 0.25281(14) 0.12586(19) 0.92623(16)
N1_2 N 0.96827(12) 0.54915(19) 0.46088(19)
H19_2 H 0.9705 0.6953 0.4194
N6_2 N 0.95022(13) 0.4779(2) 0.4763(2)
N7_2 N 0.88775(11) 0.25890(15) 0.53108(14)
C66_2 C 0.98213(14) 0.4311(2) 0.5148(2)
C67_2 C 0.91908(14) 0.2058(2) 0.5653(2)
H44_2 H 0.9045 0.1566 0.5765
C68_2 C 0.97177(17) 0.2205(3) 0.5846(3)
H45_2 H 0.9925 0.1818 0.6081
C69_2 C 0.99365(16) 0.2937(3) 0.5686(2)
C70_2 C 0.96139(14) 0.3510(2) 0.53403(19)
C71_2 C 0.90876(13) 0.33073(19) 0.51573(17)
H47_2 H 0.8871 0.3681 0.4919
N1_3 N 0.53173(12) 0.04915(19) 0.03912(19)
N3 N 0.38775(11) 0.24110(15) 0.03108(14)
C29 C 0.48213(14) 0.0689(2) 0.0148(2)
C30 C 0.41908(14) 0.2942(2) 0.0653(2)
H17 H 0.4045 0.3434 0.0765
C31 C 0.47177(17) 0.2795(3) 0.0846(3)
H18 H 0.4925 0.3182 0.1081
C32 C 0.49365(16) 0.2063(3) 0.0686(2)
H19_3 H 0.5295 0.1953 0.0806
C33 C 0.46139(14) 0.1490(2) 0.03403(19)
C34 C 0.40876(13) 0.16927(19) 0.01573(17)
O17 O 0.28580(11) 0.17756(14) 0.07136(12)
O24 O 0.29358(9) 0.35276(13) 0.06376(11)
C73 C 0.1569(3) 0.9456(4) 0.0090(3)
H49 H 0.1669 0.9570 0.0527
H51 H 0.1571 0.8875 0.0023
O1 O 0.21705(11) 0.62635(15) 0.74586(13)
O2 O 0.05066(10) 0.91503(15) 0.69224(12)
O3 O 0.05827(11) 0.90815(15) 0.79698(12)
O4 O 0.30161(10) 0.34348(14) 0.93551(12)
O5 O 0.21420(11) 0.32244(14) 0.92864(12)
N2 N 0.45022(13) 0.0221(2) 0.9763(2)
C1 C 0.10671(14) 0.8133(2) 0.74406(17)
C2 C 0.12290(18) 0.7715(2) 0.79966(19)
H1 H 0.1096 0.7874 0.8361
C3 C 0.15794(18) 0.7078(2) 0.80183(18)
H2 H 0.1679 0.6801 0.8392
C4 C 0.17846(16) 0.6850(2) 0.74808(18)
C5 C 0.16352(16) 0.7261(2) 0.69283(18)
H3 H 0.1773 0.7103 0.6566
C6 C 0.12818(15) 0.7904(2) 0.69086(17)
H4 H 0.1188 0.8186 0.6535
C7 C 0.06906(15) 0.8848(2) 0.74406(18)
C8 C 0.24362(14) 0.42986(19) 0.86865(16)
C9 C 0.19191(15) 0.4548(2) 0.8497(2)
H5 H 0.1638 0.4269 0.8638
C10 C 0.18179(16) 0.5215(2) 0.8096(2)
H6 H 0.1470 0.5383 0.7973
C11 C 0.22352(16) 0.5626(2) 0.78831(18)
C12 C 0.27514(15) 0.5384(2) 0.80620(17)
H7 H 0.3032 0.5665 0.7922
C13 C 0.28480(14) 0.4703(2) 0.84602(17)
H8 H 0.3195 0.4524 0.8572
C14 C 0.25347(15) 0.35983(19) 0.91365(16)
H20 H 0.3871 0.1319 0.9919
Zn3 Zn 0.011253(15) 0.99840(2) 0.818535(18)
N9 N 0.10394(15) 0.9775(2) 0.98944(16)
C72 C 0.08152(18) 0.9713(3) 0.93189(19)
H48 H 0.0993 0.9407 0.9046
H50 H 0.1817 0.9711 0.9849
Zn1 Zn 0.988747(15) 0.99840(2) 0.681465(18)
N4 N 0.89606(15) 0.9775(2) 0.51056(16)
C35 C 0.91848(18) 0.9713(3) 0.56811(19)
H21 H 0.9007 0.9407 0.5954
C36 C 0.8431(3) 0.9456(4) 0.4910(3)
H22 H 0.8331 0.9570 0.4473
H23 H 0.8183 0.9711 0.5151
H24 H 0.8429 0.8875 0.4977
O12 O 0.78295(11) 0.62635(15) 0.75414(13)
O13 O 0.94934(10) 0.91503(15) 0.80776(12)
O14 O 0.94173(11) 0.90815(15) 0.70302(12)
O15 O 0.69839(10) 0.34348(14) 0.56449(12)
O16 O 0.78580(11) 0.32244(14) 0.57136(12)
O18 O 0.71420(11) 0.17756(14) 0.42864(12)
O23 O 0.70642(9) 0.35276(13) 0.43624(11)
N8 N 0.61225(11) 0.24110(15) 0.46892(14)
C38 C 0.89329(14) 0.8133(2) 0.75594(17)
C39 C 0.87710(18) 0.7715(2) 0.70034(19)
H28 H 0.8904 0.7874 0.6639
C40 C 0.84206(18) 0.7078(2) 0.69817(18)
H29 H 0.8321 0.6801 0.6608
C41 C 0.82154(16) 0.6850(2) 0.75192(18)
C42 C 0.83648(16) 0.7261(2) 0.80717(18)
H30 H 0.8227 0.7103 0.8434
C43 C 0.87182(15) 0.7904(2) 0.80914(17)
H31 H 0.8812 0.8186 0.8465
C44 C 0.93094(15) 0.8848(2) 0.75594(18)
C45 C 0.75638(14) 0.42986(19) 0.63135(16)
C46 C 0.80809(15) 0.4548(2) 0.6503(2)
H32 H 0.8362 0.4269 0.6362
C47 C 0.81821(16) 0.5215(2) 0.6904(2)
H33 H 0.8530 0.5383 0.7027
C48 C 0.77648(16) 0.5626(2) 0.71169(18)
C49 C 0.72486(15) 0.5384(2) 0.69380(17)
H34 H 0.6968 0.5665 0.7078
C50 C 0.71520(14) 0.4703(2) 0.65398(17)
H35 H 0.6805 0.4524 0.6428
C51 C 0.74653(15) 0.35983(19) 0.58635(16)
N1_4 N 0.46827(12) 0.04915(19) 0.46088(19)
N2_2 N 0.54978(13) 0.0221(2) 0.5237(2)
C29_2 C 0.51787(14) 0.0689(2) 0.4852(2)
C30_2 C 0.58092(14) 0.2942(2) 0.4347(2)
H17_2 H 0.5955 0.3434 0.4235
C31_2 C 0.52823(17) 0.2795(3) 0.4154(3)
H18_2 H 0.5075 0.3182 0.3919
C32_2 C 0.50635(16) 0.2063(3) 0.4314(2)
H19_4 H 0.4705 0.1953 0.4194
C33_2 C 0.53861(14) 0.1490(2) 0.46597(19)
C34_2 C 0.59124(13) 0.16927(19) 0.48427(17)
H20_2 H 0.6129 0.1319 0.5081
O4_2 O 0.19839(10) 0.15652(14) 0.06449(12)
C8_2 C 0.25638(14) 0.07014(19) 0.13135(16)
C9_2 C 0.30809(15) 0.0452(2) 0.1503(2)
H5_2 H 0.3362 0.0731 0.1362
C13_2 C 0.21520(14) 0.0297(2) 0.15398(17)
H8_2 H 0.1805 0.0476 0.1428
C14_2 C 0.24653(15) 0.14017(19) 0.08635(16)
O15_2 O 0.80161(10) 0.15652(14) 0.43551(12)
O26 O 0.79489(9) 0.33504(13) 0.44501(11)
O27 O 0.20511(9) 0.33504(13) 0.05499(11)
C45_2 C 0.74362(14) 0.07014(19) 0.36865(16)
C46_2 C 0.69191(15) 0.0452(2) 0.3497(2)
H32_2 H 0.6638 0.0731 0.3638
C50_2 C 0.78480(14) 0.0297(2) 0.34602(17)
H35_2 H 0.8195 0.0476 0.3572
C51_2 C 0.75347(15) 0.14017(19) 0.41365(16)
O11 O 0.03831(11) 0.99729(15) 0.40999(12)
C37 C 0.0800(2) 0.9748(4) 0.5345(2)
H25 H 0.1025 0.9757 0.5739
H26 H 0.0460 0.9974 0.5398
H27 H 0.0757 0.9193 0.5200
O19 O 0.23421(11) 0.66389(17) 0.21407(15)
O20 O 0.04135(10) 0.91217(14) 0.18187(13)
O21 O 0.06465(10) 0.91864(15) 0.28592(13)
C52 C 0.19096(15) 0.7149(2) 0.2154(2)
C53 C 0.15916(17) 0.7424(2) 0.1614(2)
H36 H 0.1647 0.7234 0.1219
C54 C 0.11946(15) 0.7981(2) 0.16818(19)
H37 H 0.0973 0.8156 0.1329
C55 C 0.11192(13) 0.82841(19) 0.22607(17)
C56 C 0.14490(15) 0.8009(2) 0.27871(18)
H38 H 0.1403 0.8214 0.3180
C57 C 0.18400(17) 0.7442(2) 0.27375(19)
H39 H 0.2055 0.7259 0.3093
C58 C 0.06946(14) 0.8914(2) 0.23230(19)
C59_2 C 0.24238(13) 0.45207(19) 0.11000(16)
C60_2 C 0.28711(14) 0.4924(2) 0.13695(19)
H40_2 H 0.3204 0.4708 0.1330
C61 C 0.28340(15) 0.5643(2) 0.16970(19)
H41 H 0.3139 0.5917 0.1871
C62 C 0.23336(15) 0.5950(2) 0.17620(18)
C63 C 0.18802(15) 0.5550(2) 0.1502(2)
H42 H 0.1546 0.5759 0.1548
C64_2 C 0.19280(15) 0.4835(2) 0.1172(2)
H43_2 H 0.1624 0.4560 0.0997
C65_2 C 0.24719(14) 0.37414(19) 0.07377(16)
O6 O 0.76579(11) 0.66389(17) 0.28593(15)
O7 O 0.95865(10) 0.91217(14) 0.31813(13)
O8 O 0.93535(10) 0.91864(15) 0.21408(13)
C15 C 0.80904(15) 0.7149(2) 0.2846(2)
C16 C 0.84084(17) 0.7424(2) 0.3386(2)
H9 H 0.8353 0.7234 0.3781
C17 C 0.88054(15) 0.7981(2) 0.33182(19)
H10 H 0.9027 0.8156 0.3671
C18 C 0.88808(13) 0.82841(19) 0.27393(17)
C19 C 0.85510(15) 0.8009(2) 0.22129(18)
H11 H 0.8597 0.8214 0.1820
C20 C 0.81600(17) 0.7442(2) 0.22625(19)
H12 H 0.7945 0.7259 0.1907
C21 C 0.93054(14) 0.8914(2) 0.26770(19)
C22_2 C 0.75762(13) 0.45207(19) 0.39000(16)
C23_2 C 0.71289(14) 0.4924(2) 0.36305(19)
H13_2 H 0.6796 0.4708 0.3670
C24 C 0.71660(15) 0.5643(2) 0.33030(19)
H14 H 0.6861 0.5917 0.3129
C25 C 0.76664(15) 0.5950(2) 0.32380(18)
C26 C 0.81198(15) 0.5550(2) 0.3498(2)
H15 H 0.8454 0.5759 0.3452
C27_2 C 0.80720(15) 0.4835(2) 0.3828(2)
H16_2 H 0.8376 0.4560 0.4003
C28_2 C 0.75281(14) 0.37414(19) 0.42623(16)
O28 O 0.96169(11) 0.99729(15) 0.09001(12)
C73_2 C 0.6569(3) 0.4456(4) 0.0090(3)
H49_2 H 0.6669 0.4570 0.0527
H51_2 H 0.6571 0.3875 0.0023
C74 C 0.5800(2) 0.5252(4) 0.0345(2)
H52 H 0.6025 0.5243 0.0739
H53 H 0.5460 0.5026 0.0398
H54 H 0.5757 0.5807 0.0200
Zn1_2 Zn 0.488747(15) 0.49840(2) 0.681465(18)
O1_2 O 0.71705(11) 0.12635(15) 0.74586(13)
O2_2 O 0.55066(10) 0.41503(15) 0.69224(12)
O3_2 O 0.55827(11) 0.40815(15) 0.79698(12)
O6_2 O 0.73421(11) 0.83611(17) 0.71407(15)
O7_2 O 0.54135(10) 0.58783(14) 0.68187(13)
O8_2 O 0.56465(10) 0.58136(15) 0.78592(13)
O11_2 O 0.46169(11) 0.50271(15) 0.59001(12)
N4_2 N 0.39606(15) 0.4775(2) 0.51056(16)
C1_2 C 0.60671(14) 0.3133(2) 0.74406(17)
C2_2 C 0.62290(18) 0.2715(2) 0.79966(19)
H1_2 H 0.6096 0.2874 0.8361
C3_2 C 0.65794(18) 0.2078(2) 0.80183(18)
H2_2 H 0.6679 0.1801 0.8392
C4_2 C 0.67846(16) 0.1850(2) 0.74808(18)
C5_2 C 0.66352(16) 0.2261(2) 0.69283(18)
H3_2 H 0.6773 0.2103 0.6566
C6_2 C 0.62818(15) 0.2904(2) 0.69086(17)
H4_2 H 0.6188 0.3186 0.6535
C7_2 C 0.56906(15) 0.3848(2) 0.74406(18)
C10_2 C 0.68179(16) 0.0215(2) 0.8096(2)
H6_2 H 0.6470 0.0383 0.7973
C11_2 C 0.72352(16) 0.0626(2) 0.78831(18)
C12_2 C 0.77514(15) 0.0384(2) 0.80620(17)
H7_2 H 0.8032 0.0665 0.7922
C15_2 C 0.69096(15) 0.7851(2) 0.7154(2)
C16_2 C 0.65916(17) 0.7576(2) 0.6614(2)
H9_2 H 0.6647 0.7766 0.6219
C17_2 C 0.61946(15) 0.7019(2) 0.66818(19)
H10_2 H 0.5973 0.6844 0.6329
C18_2 C 0.61192(13) 0.67159(19) 0.72607(17)
C19_2 C 0.64490(15) 0.6991(2) 0.77871(18)
H11_2 H 0.6403 0.6786 0.8180
C20_2 C 0.68400(17) 0.7558(2) 0.77375(19)
H12_2 H 0.7055 0.7741 0.8093
C21_2 C 0.56946(14) 0.6086(2) 0.73230(19)
C24_2 C 0.78340(15) 0.9357(2) 0.66970(19)
H14_2 H 0.8139 0.9083 0.6871
C25_2 C 0.73336(15) 0.9050(2) 0.67620(18)
C26_2 C 0.68802(15) 0.9450(2) 0.6502(2)
H15_2 H 0.6546 0.9241 0.6548
C35_2 C 0.41848(18) 0.4713(3) 0.56811(19)
H21_2 H 0.4007 0.4407 0.5954
C36_2 C 0.3431(3) 0.4456(4) 0.4910(3)
H22_2 H 0.3331 0.4570 0.4473
H23_2 H 0.3183 0.4711 0.5151
H24_2 H 0.3429 0.3875 0.4977
C37_2 C 0.4200(2) 0.5252(4) 0.4655(2)
H25_2 H 0.3975 0.5243 0.4261
H26_2 H 0.4540 0.5026 0.4602
H27_2 H 0.4243 0.5807 0.4800
Zn3_2 Zn 0.511253(15) 0.49840(2) 0.818535(18)
O12_2 O 0.28295(11) 0.12635(15) 0.75414(13)
O13_2 O 0.44934(10) 0.41503(15) 0.80776(12)
O14_2 O 0.44173(11) 0.40815(15) 0.70302(12)
O19_2 O 0.26579(11) 0.83611(17) 0.78593(15)
O20_2 O 0.45865(10) 0.58783(14) 0.81813(13)
O21_2 O 0.43535(10) 0.58136(15) 0.71408(13)
O28_2 O 0.53831(11) 0.50271(15) 0.90999(12)
N9_2 N 0.60394(15) 0.4775(2) 0.98944(16)
C38_2 C 0.39329(14) 0.3133(2) 0.75594(17)
C39_2 C 0.37710(18) 0.2715(2) 0.70034(19)
H28_2 H 0.3904 0.2874 0.6639
C40_2 C 0.34206(18) 0.2078(2) 0.69817(18)
H29_2 H 0.3321 0.1801 0.6608
C41_2 C 0.32154(16) 0.1850(2) 0.75192(18)
C42_2 C 0.33648(16) 0.2261(2) 0.80717(18)
H30_2 H 0.3227 0.2103 0.8434
C43_2 C 0.37182(15) 0.2904(2) 0.80914(17)
H31_2 H 0.3812 0.3186 0.8465
C44_2 C 0.43094(15) 0.3848(2) 0.75594(18)
C47_2 C 0.31821(16) 0.0215(2) 0.6904(2)
H33_2 H 0.3530 0.0383 0.7027
C48_2 C 0.27648(16) 0.0626(2) 0.71169(18)
C49_2 C 0.22486(15) 0.0384(2) 0.69380(17)
H34_2 H 0.1968 0.0665 0.7078
C52_2 C 0.30904(15) 0.7851(2) 0.7846(2)
C53_2 C 0.34084(17) 0.7576(2) 0.8386(2)
H36_2 H 0.3353 0.7766 0.8781
C54_2 C 0.38054(15) 0.7019(2) 0.83182(19)
H37_2 H 0.4027 0.6844 0.8671
C55_2 C 0.38808(13) 0.67159(19) 0.77393(17)
C56_2 C 0.35510(15) 0.6991(2) 0.72129(18)
H38_2 H 0.3597 0.6786 0.6820
C57_2 C 0.31600(17) 0.7558(2) 0.72625(19)
H39_2 H 0.2945 0.7741 0.6907
C58_2 C 0.43054(14) 0.6086(2) 0.76770(19)
C61_2 C 0.21660(15) 0.9357(2) 0.83030(19)
H41_2 H 0.1861 0.9083 0.8129
C62_2 C 0.26664(15) 0.9050(2) 0.82380(18)
C63_2 C 0.31198(15) 0.9450(2) 0.8498(2)
H42_2 H 0.3454 0.9241 0.8452
C72_2 C 0.58152(18) 0.4713(3) 0.93189(19)
H48_2 H 0.5993 0.4407 0.9046
H50_2 H 0.6817 0.4711 0.9849
Zn2 Zn 0.807902(14) 0.75974(2) 0.006097(18)
N3_2 N 0.88775(11) 0.74110(15) 0.03108(14)
C29_3 C 0.98213(14) 0.5689(2) 0.0148(2)
C30_3 C 0.91908(14) 0.7942(2) 0.0653(2)
H17_3 H 0.9045 0.8434 0.0765
C31_3 C 0.97177(17) 0.7795(3) 0.0846(3)
H18_3 H 0.9925 0.8182 0.1081
C32_3 C 0.99365(16) 0.7063(3) 0.0686(2)
C33_3 C 0.96139(14) 0.6490(2) 0.03403(19)
C34_3 C 0.90876(13) 0.66927(19) 0.01573(17)
O17_2 O 0.78580(11) 0.67756(14) 0.07136(12)
O24_2 O 0.79358(9) 0.85276(13) 0.06376(11)
O4_3 O 0.80161(10) 0.84348(14) 0.93551(12)
O5_2 O 0.71420(11) 0.82244(14) 0.92864(12)
N2_3 N 0.95022(13) 0.5221(2) 0.9763(2)
C8_3 C 0.74362(14) 0.92986(19) 0.86865(16)
C9_3 C 0.69191(15) 0.9548(2) 0.8497(2)
H5_3 H 0.6638 0.9269 0.8638
C13_3 C 0.78480(14) 0.9703(2) 0.84602(17)
H8_3 H 0.8195 0.9524 0.8572
C14_3 C 0.75347(15) 0.85983(19) 0.91365(16)
H20_3 H 0.8871 0.6319 0.9919
Zn4 Zn 0.192098(14) 0.75974(2) 0.493903(18)
Zn10 Zn 0.692098(14) 0.74026(2) 0.993903(18)
Zn11 Zn 0.307902(14) 0.74026(2) 0.506097(18)
O15_3 O 0.19839(10) 0.84348(14) 0.56449(12)
O16_2 O 0.28580(11) 0.82244(14) 0.57136(12)
O18_2 O 0.21420(11) 0.67756(14) 0.42864(12)
O23_2 O 0.20642(9) 0.85276(13) 0.43624(11)
O26_2 O 0.20511(9) 0.66496(13) 0.55499(11)
O27_2 O 0.79489(9) 0.66496(13) 0.94501(11)
N5 N 0.96827(12) 0.45085(19) 0.96088(19)
N8_2 N 0.11225(11) 0.74110(15) 0.46892(14)
C45_3 C 0.25638(14) 0.92986(19) 0.63135(16)
C46_3 C 0.30809(15) 0.9548(2) 0.6503(2)
H32_3 H 0.3362 0.9269 0.6362
C50_3 C 0.21520(14) 0.9703(2) 0.65398(17)
H35_3 H 0.1805 0.9524 0.6428
C51_3 C 0.24653(15) 0.85983(19) 0.58635(16)
H46 H 0.9705 0.3047 0.9194
N2_4 N 0.04978(13) 0.5221(2) 0.5237(2)
C29_4 C 0.01787(14) 0.5689(2) 0.4852(2)
C30_4 C 0.08092(14) 0.7942(2) 0.4347(2)
H17_4 H 0.0955 0.8434 0.4235
C31_4 C 0.02823(17) 0.7795(3) 0.4154(3)
H18_4 H 0.0075 0.8182 0.3919
C32_4 C 0.00635(16) 0.7063(3) 0.4314(2)
C33_4 C 0.03861(14) 0.6490(2) 0.46597(19)
C34_4 C 0.09124(13) 0.66927(19) 0.48427(17)
H20_4 H 0.1129 0.6319 0.5081
N5_2 N 0.03173(12) 0.45085(19) 0.53912(19)
H46_2 H 0.0295 0.3047 0.5806
O6_3 O 0.23421(11) 0.33611(17) 0.71407(15)
O7_3 O 0.04135(10) 0.08783(14) 0.68187(13)
O8_3 O 0.06465(10) 0.08136(15) 0.78592(13)
O9_2 O 0.29358(9) 0.64724(13) 0.56376(11)
C15_3 C 0.19096(15) 0.2851(2) 0.7154(2)
C16_3 C 0.15916(17) 0.2576(2) 0.6614(2)
H9_3 H 0.1647 0.2766 0.6219
C17_3 C 0.11946(15) 0.2019(2) 0.66818(19)
H10_3 H 0.0973 0.1844 0.6329
C18_3 C 0.11192(13) 0.17159(19) 0.72607(17)
C19_3 C 0.14490(15) 0.1991(2) 0.77871(18)
H11_3 H 0.1403 0.1786 0.8180
C20_3 C 0.18400(17) 0.2558(2) 0.77375(19)
H12_3 H 0.2055 0.2741 0.8093
C21_3 C 0.06946(14) 0.1086(2) 0.73230(19)
C22_3 C 0.24238(13) 0.54793(19) 0.61000(16)
C23_3 C 0.28711(14) 0.5076(2) 0.63695(19)
H13_3 H 0.3204 0.5292 0.6330
C24_3 C 0.28340(15) 0.4357(2) 0.66970(19)
H14_3 H 0.3139 0.4083 0.6871
C25_3 C 0.23336(15) 0.4050(2) 0.67620(18)
C26_3 C 0.18802(15) 0.4450(2) 0.6502(2)
H15_3 H 0.1546 0.4241 0.6548
C27_3 C 0.19280(15) 0.5165(2) 0.6172(2)
H16_3 H 0.1624 0.5440 0.5997
C28_3 C 0.24719(14) 0.62586(19) 0.57377(16)
O28_3 O 0.03831(11) 0.00271(15) 0.90999(12)
N6_3 N 0.54978(13) 0.9779(2) 0.0237(2)
H47_3 H 0.6129 0.8681 0.0081
N5_3 N 0.46827(12) 0.95085(19) 0.96088(19)
N7_3 N 0.61225(11) 0.75890(15) 0.96892(14)
C66_3 C 0.51787(14) 0.9311(2) 0.9852(2)
C67_3 C 0.58092(14) 0.7058(2) 0.9347(2)
H44_3 H 0.5955 0.6566 0.9235
C68_3 C 0.52823(17) 0.7205(3) 0.9154(3)
H45_3 H 0.5075 0.6818 0.8919
C69_3 C 0.50635(16) 0.7937(3) 0.9314(2)
H46_3 H 0.4705 0.8047 0.9194
C70_3 C 0.53861(14) 0.8510(2) 0.96597(19)
C71_3 C 0.59124(13) 0.83073(19) 0.98427(17)
O11_3 O 0.96169(11) 0.00271(15) 0.59001(12)
C37_3 C 0.9200(2) 0.0252(4) 0.4655(2)
H25_3 H 0.8975 0.0243 0.4261
H26_3 H 0.9540 0.0026 0.4602
H27_3 H 0.9243 0.0807 0.4800
O19_3 O 0.76579(11) 0.33611(17) 0.78593(15)
O20_3 O 0.95865(10) 0.08783(14) 0.81813(13)
O21_3 O 0.93535(10) 0.08136(15) 0.71408(13)
O22_2 O 0.70642(9) 0.64724(13) 0.93624(11)
C52_3 C 0.80904(15) 0.2851(2) 0.7846(2)
C53_3 C 0.84084(17) 0.2576(2) 0.8386(2)
H36_3 H 0.8353 0.2766 0.8781
C54_3 C 0.88054(15) 0.2019(2) 0.83182(19)
H37_3 H 0.9027 0.1844 0.8671
C55_3 C 0.88808(13) 0.17159(19) 0.77393(17)
C56_3 C 0.85510(15) 0.1991(2) 0.72129(18)
H38_3 H 0.8597 0.1786 0.6820
C57_3 C 0.81600(17) 0.2558(2) 0.72625(19)
H39_3 H 0.7945 0.2741 0.6907
C58_3 C 0.93054(14) 0.1086(2) 0.76770(19)
C59_3 C 0.75762(13) 0.54793(19) 0.89000(16)
C60_3 C 0.71289(14) 0.5076(2) 0.86305(19)
H40_3 H 0.6796 0.5292 0.8670
C61_3 C 0.71660(15) 0.4357(2) 0.83030(19)
H41_3 H 0.6861 0.4083 0.8129
C62_3 C 0.76664(15) 0.4050(2) 0.82380(18)
C63_3 C 0.81198(15) 0.4450(2) 0.8498(2)
H42_3 H 0.8454 0.4241 0.8452
C64_3 C 0.80720(15) 0.5165(2) 0.8828(2)
H43_3 H 0.8376 0.5440 0.9003
C65_3 C 0.75281(14) 0.62586(19) 0.92623(16)
N5_4 N 0.53173(12) 0.95085(19) 0.53912(19)
N6_4 N 0.45022(13) 0.9779(2) 0.4763(2)
N7_4 N 0.38775(11) 0.75890(15) 0.53108(14)
C66_4 C 0.48213(14) 0.9311(2) 0.5148(2)
C67_4 C 0.41908(14) 0.7058(2) 0.5653(2)
H44_4 H 0.4045 0.6566 0.5765
C68_4 C 0.47177(17) 0.7205(3) 0.5846(3)
H45_4 H 0.4925 0.6818 0.6081
C69_4 C 0.49365(16) 0.7937(3) 0.5686(2)
H46_4 H 0.5295 0.8047 0.5806
C70_4 C 0.46139(14) 0.8510(2) 0.53403(19)
C71_4 C 0.40876(13) 0.83073(19) 0.51573(17)
H47_4 H 0.3871 0.8681 0.4919
O10_2 O 0.29489(9) 0.83504(13) 0.44501(11)
C22_4 C 0.25762(13) 0.95207(19) 0.39000(16)
C23_4 C 0.21289(14) 0.9924(2) 0.36305(19)
H13_4 H 0.1796 0.9708 0.3670
C27_4 C 0.30720(15) 0.9835(2) 0.3828(2)
H16_4 H 0.3376 0.9560 0.4003
C28_4 C 0.25281(14) 0.87414(19) 0.42623(16)
O25_2 O 0.70511(9) 0.83504(13) 0.05499(11)
C59_4 C 0.74238(13) 0.95207(19) 0.11000(16)
C60_4 C 0.78711(14) 0.9924(2) 0.13695(19)
H40_4 H 0.8204 0.9708 0.1330
C64_4 C 0.69280(15) 0.9835(2) 0.1172(2)
H43_4 H 0.6624 0.9560 0.0997
C65_4 C 0.74719(14) 0.87414(19) 0.07377(16)
Zn1_3 Zn 0.011253(15) 0.00160(2) 0.318535(18)
N4_3 N 0.10394(15) 0.0225(2) 0.48944(16)
C35_3 C 0.08152(18) 0.0287(3) 0.43189(19)
H21_3 H 0.0993 0.0593 0.4046
C36_3 C 0.1569(3) 0.0544(4) 0.5090(3)
H22_3 H 0.1669 0.0430 0.5527
H23_3 H 0.1817 0.0289 0.4849
H24_3 H 0.1571 0.1125 0.5023
O12_3 O 0.21705(11) 0.37365(15) 0.24586(13)
O13_3 O 0.05066(10) 0.08497(15) 0.19224(12)
O14_3 O 0.05827(11) 0.09185(15) 0.29698(12)
O15_4 O 0.30161(10) 0.65652(14) 0.43551(12)
C38_3 C 0.10671(14) 0.1867(2) 0.24406(17)
C39_3 C 0.12290(18) 0.2285(2) 0.29966(19)
H28_3 H 0.1096 0.2126 0.3361
C40_3 C 0.15794(18) 0.2922(2) 0.30183(18)
H29_3 H 0.1679 0.3199 0.3392
C41_3 C 0.17846(16) 0.3150(2) 0.24808(18)
C42_3 C 0.16352(16) 0.2739(2) 0.19283(18)
H30_3 H 0.1773 0.2897 0.1566
C43_3 C 0.12818(15) 0.2096(2) 0.19086(17)
H31_3 H 0.1188 0.1814 0.1535
C44_3 C 0.06906(15) 0.1152(2) 0.24406(18)
C45_4 C 0.24362(14) 0.57014(19) 0.36865(16)
C46_4 C 0.19191(15) 0.5452(2) 0.3497(2)
H32_4 H 0.1638 0.5731 0.3638
C47_3 C 0.18179(16) 0.4785(2) 0.3096(2)
H33_3 H 0.1470 0.4617 0.2973
C48_3 C 0.22352(16) 0.4374(2) 0.28831(18)
C49_3 C 0.27514(15) 0.4616(2) 0.30620(17)
H34_3 H 0.3032 0.4335 0.2922
C50_4 C 0.28480(14) 0.5297(2) 0.34602(17)
H35_4 H 0.3195 0.5476 0.3572
C51_4 C 0.25347(15) 0.64017(19) 0.41365(16)
O1_3 O 0.78295(11) 0.37365(15) 0.25414(13)
O2_3 O 0.94934(10) 0.08497(15) 0.30776(12)
O3_3 O 0.94173(11) 0.09185(15) 0.20302(12)
O4_4 O 0.69839(10) 0.65652(14) 0.06449(12)
C1_3 C 0.89329(14) 0.1867(2) 0.25594(17)
C2_3 C 0.87710(18) 0.2285(2) 0.20034(19)
H1_3 H 0.8904 0.2126 0.1639
C3_3 C 0.84206(18) 0.2922(2) 0.19817(18)
H2_3 H 0.8321 0.3199 0.1608
C4_3 C 0.82154(16) 0.3150(2) 0.25192(18)
C5_3 C 0.83648(16) 0.2739(2) 0.30717(18)
H3_3 H 0.8227 0.2897 0.3434
C6_3 C 0.87182(15) 0.2096(2) 0.30914(17)
H4_3 H 0.8812 0.1814 0.3465
C7_3 C 0.93094(15) 0.1152(2) 0.25594(18)
C8_4 C 0.75638(14) 0.57014(19) 0.13135(16)
C9_4 C 0.80809(15) 0.5452(2) 0.1503(2)
H5_4 H 0.8362 0.5731 0.1362
C10_3 C 0.81821(16) 0.4785(2) 0.1904(2)
H6_3 H 0.8530 0.4617 0.2027
C11_3 C 0.77648(16) 0.4374(2) 0.21169(18)
C12_3 C 0.72486(15) 0.4616(2) 0.19380(17)
H7_3 H 0.6968 0.4335 0.2078
C13_4 C 0.71520(14) 0.5297(2) 0.15398(17)
H8_4 H 0.6805 0.5476 0.1428
C14_4 C 0.74653(15) 0.64017(19) 0.08635(16)
Zn3_3 Zn 0.988747(15) 0.00160(2) 0.181465(18)
N9_3 N 0.89606(15) 0.0225(2) 0.01056(16)
C72_3 C 0.91848(18) 0.0287(3) 0.06811(19)
H48_3 H 0.9007 0.0593 0.0954
H50_3 H 0.8183 0.0289 0.0151
C73_3 C 0.8431(3) 0.0544(4) 0.9910(3)
H49_3 H 0.8331 0.0430 0.9473
H51_3 H 0.8429 0.1125 0.9977
C74_2 C 0.0800(2) 0.0252(4) 0.0345(2)
H52_2 H 0.1025 0.0243 0.0739
H53_2 H 0.0460 0.0026 0.0398
H54_2 H 0.0757 0.0807 0.0200
Zn1_4 Zn 0.511253(15) 0.50160(2) 0.318535(18)
O1_4 O 0.28295(11) 0.87365(15) 0.25414(13)
O2_4 O 0.44934(10) 0.58497(15) 0.30776(12)
O3_4 O 0.44173(11) 0.59185(15) 0.20302(12)
O6_4 O 0.26579(11) 0.16389(17) 0.28593(15)
O7_4 O 0.45865(10) 0.41217(14) 0.31813(13)
O8_4 O 0.43535(10) 0.41864(15) 0.21408(13)
O11_4 O 0.53831(11) 0.49729(15) 0.40999(12)
N4_4 N 0.60394(15) 0.5225(2) 0.48944(16)
C1_4 C 0.39329(14) 0.6867(2) 0.25594(17)
C2_4 C 0.37710(18) 0.7285(2) 0.20034(19)
H1_4 H 0.3904 0.7126 0.1639
C3_4 C 0.34206(18) 0.7922(2) 0.19817(18)
H2_4 H 0.3321 0.8199 0.1608
C4_4 C 0.32154(16) 0.8150(2) 0.25192(18)
C5_4 C 0.33648(16) 0.7739(2) 0.30717(18)
H3_4 H 0.3227 0.7897 0.3434
C6_4 C 0.37182(15) 0.7096(2) 0.30914(17)
H4_4 H 0.3812 0.6814 0.3465
C7_4 C 0.43094(15) 0.6152(2) 0.25594(18)
C10_4 C 0.31821(16) 0.9785(2) 0.1904(2)
H6_4 H 0.3530 0.9617 0.2027
C11_4 C 0.27648(16) 0.9374(2) 0.21169(18)
C12_4 C 0.22486(15) 0.9616(2) 0.19380(17)
H7_4 H 0.1968 0.9335 0.2078
C15_4 C 0.30904(15) 0.2149(2) 0.2846(2)
C16_4 C 0.34084(17) 0.2424(2) 0.3386(2)
H9_4 H 0.3353 0.2234 0.3781
C17_4 C 0.38054(15) 0.2981(2) 0.33182(19)
H10_4 H 0.4027 0.3156 0.3671
C18_4 C 0.38808(13) 0.32841(19) 0.27393(17)
C19_4 C 0.35510(15) 0.3009(2) 0.22129(18)
H11_4 H 0.3597 0.3214 0.1820
C20_4 C 0.31600(17) 0.2442(2) 0.22625(19)
H12_4 H 0.2945 0.2259 0.1907
C21_4 C 0.43054(14) 0.3914(2) 0.26770(19)
C24_4 C 0.21660(15) 0.0643(2) 0.33030(19)
H14_4 H 0.1861 0.0917 0.3129
C25_4 C 0.26664(15) 0.0950(2) 0.32380(18)
C26_4 C 0.31198(15) 0.0550(2) 0.3498(2)
H15_4 H 0.3454 0.0759 0.3452
C35_4 C 0.58152(18) 0.5287(3) 0.43189(19)
H21_4 H 0.5993 0.5593 0.4046
C36_4 C 0.6569(3) 0.5544(4) 0.5090(3)
H22_4 H 0.6669 0.5430 0.5527
H23_4 H 0.6817 0.5289 0.4849
H24_4 H 0.6571 0.6125 0.5023
C37_4 C 0.5800(2) 0.4748(4) 0.5345(2)
H25_4 H 0.6025 0.4757 0.5739
H26_4 H 0.5460 0.4974 0.5398
H27_4 H 0.5757 0.4193 0.5200
Zn3_4 Zn 0.488747(15) 0.50160(2) 0.181465(18)
O12_4 O 0.71705(11) 0.87365(15) 0.24586(13)
O13_4 O 0.55066(10) 0.58497(15) 0.19224(12)
O14_4 O 0.55827(11) 0.59185(15) 0.29698(12)
O19_4 O 0.73421(11) 0.16389(17) 0.21407(15)
O20_4 O 0.54135(10) 0.41217(14) 0.18187(13)
O21_4 O 0.56465(10) 0.41864(15) 0.28592(13)
O28_4 O 0.46169(11) 0.49729(15) 0.09001(12)
N9_4 N 0.39606(15) 0.5225(2) 0.01056(16)
C38_4 C 0.60671(14) 0.6867(2) 0.24406(17)
C39_4 C 0.62290(18) 0.7285(2) 0.29966(19)
H28_4 H 0.6096 0.7126 0.3361
C40_4 C 0.65794(18) 0.7922(2) 0.30183(18)
H29_4 H 0.6679 0.8199 0.3392
C41_4 C 0.67846(16) 0.8150(2) 0.24808(18)
C42_4 C 0.66352(16) 0.7739(2) 0.19283(18)
H30_4 H 0.6773 0.7897 0.1566
C43_4 C 0.62818(15) 0.7096(2) 0.19086(17)
H31_4 H 0.6188 0.6814 0.1535
C44_4 C 0.56906(15) 0.6152(2) 0.24406(18)
C47_4 C 0.68179(16) 0.9785(2) 0.3096(2)
H33_4 H 0.6470 0.9617 0.2973
C48_4 C 0.72352(16) 0.9374(2) 0.28831(18)
C49_4 C 0.77514(15) 0.9616(2) 0.30620(17)
H34_4 H 0.8032 0.9335 0.2922
C52_4 C 0.69096(15) 0.2149(2) 0.2154(2)
C53_4 C 0.65916(17) 0.2424(2) 0.1614(2)
H36_4 H 0.6647 0.2234 0.1219
C54_4 C 0.61946(15) 0.2981(2) 0.16818(19)
H37_4 H 0.5973 0.3156 0.1329
C55_4 C 0.61192(13) 0.32841(19) 0.22607(17)
C56_4 C 0.64490(15) 0.3009(2) 0.27871(18)
H38_4 H 0.6403 0.3214 0.3180
C57_4 C 0.68400(17) 0.2442(2) 0.27375(19)
H39_4 H 0.7055 0.2259 0.3093
C58_4 C 0.56946(14) 0.3914(2) 0.23230(19)
C61_4 C 0.78340(15) 0.0643(2) 0.16970(19)
H41_4 H 0.8139 0.0917 0.1871
C62_4 C 0.73336(15) 0.0950(2) 0.17620(18)
C63_4 C 0.68802(15) 0.0550(2) 0.1502(2)
H42_4 H 0.6546 0.0759 0.1548
C72_4 C 0.41848(18) 0.5287(3) 0.06811(19)
H48_4 H 0.4007 0.5593 0.0954
H50_4 H 0.3183 0.5289 0.0151
C73_4 C 0.3431(3) 0.5544(4) 0.9910(3)
H49_4 H 0.3331 0.5430 0.9473
H51_4 H 0.3429 0.6125 0.9977
C74_3 C 0.4200(2) 0.4748(4) 0.9655(2)
H52_3 H 0.3975 0.4757 0.9261
H53_3 H 0.4540 0.4974 0.9602
H54_3 H 0.4243 0.4193 0.9800
C74_4 C 0.9200(2) 0.9748(4) 0.9655(2)
H52_4 H 0.8975 0.9757 0.9261
H53_4 H 0.9540 0.9974 0.9602
H54_4 H 0.9243 0.9193 0.9800
loop_
_geom_bond_atom_site_label_1
_geom_bond_atom_site_label_2
_geom_bond_site_symmetry_1
_geom_bond_site_symmetry_2
N6 N1 1_555 1_555
Zn8 N7 1_555 1_555
N7 C67 1_555 1_555
C67 H44 1_555 1_555
C68 C67 1_555 1_555
H45 C68 1_555 1_555
C69 C68 1_555 1_555
C70 C66 1_555 1_555
C71 N7 1_555 1_555
C69 C70 1_555 1_555
C70 C71 1_555 1_555
O9 C28 1_555 1_555
O10 C28 1_555 1_555
C22 C23 1_555 1_555
C23 H13 1_555 1_555
C27 C22 1_555 1_555
H16 C27 1_555 1_555
C28 C22 1_555 1_555
Zn6 O10 1_555 1_555
Zn8 O22 1_555 1_555
Zn9 O9 1_555 1_555
O22 C65 1_555 1_555
O25 C65 1_555 1_555
C59 C60 1_555 1_555
C60 H40 1_555 1_555
C64 C59 1_555 1_555
H43 C64 1_555 1_555
C65 C59 1_555 1_555
Zn9 N7_2 1_555 1_555
N6_2 N1_2 1_555 1_555
N7_2 C67_2 1_555 1_555
C67_2 H44_2 1_555 1_555
C68_2 C67_2 1_555 1_555
H45_2 C68_2 1_555 1_555
C69_2 C68_2 1_555 1_555
C70_2 C66_2 1_555 1_555
C71_2 N7_2 1_555 1_555
H47_2 C71_2 1_555 1_555
N6_2 C66_2 1_555 1_555
C69_2 C70_2 1_555 1_555
C70_2 C71_2 1_555 1_555
N1_3 C29 1_555 1_555
N3 Zn5 1_555 1_555
C29 C33 1_555 1_555
C30 N3 1_555 1_555
H17 C30 1_555 1_555
C31 C30 1_555 1_555
H18 C31 1_555 1_555
C32 C31 1_555 1_555
H19_3 C32 1_555 1_555
C33 C32 1_555 1_555
C34 N3 1_555 1_555
O17 Zn5 1_555 1_555
O24 Zn5 1_555 1_555
H49 C73 1_555 1_555
H51 C73 1_555 1_555
C33 C34 1_555 1_555
O1 C4 1_555 1_555
O2 C7 1_555 1_555
O3 C7 1_555 1_555
O4 C14 1_555 1_555
O5 C14 1_555 1_555
C1 C2 1_555 1_555
C2 H1 1_555 1_555
C3 C2 1_555 1_555
H2 C3 1_555 1_555
C4 C3 1_555 1_555
C5 C4 1_555 1_555
H3 C5 1_555 1_555
C6 C1 1_555 1_555
H4 C6 1_555 1_555
C7 C1 1_555 1_555
C8 C9 1_555 1_555
C9 H5 1_555 1_555
C10 C9 1_555 1_555
H6 C10 1_555 1_555
C11 O1 1_555 1_555
C12 C11 1_555 1_555
H7 C12 1_555 1_555
C13 C8 1_555 1_555
H8 C13 1_555 1_555
C14 C8 1_555 1_555
Zn3 O3 1_555 1_555
Zn8 O5 1_555 1_555
N9 C72 1_555 1_555
H48 C72 1_555 1_555
C5 C6 1_555 1_555
C10 C11 1_555 1_555
C12 C13 1_555 1_555
N4 C35 1_555 1_555
H21 C35 1_555 1_555
C36 N4 1_555 1_555
H22 C36 1_555 1_555
H23 C36 1_555 1_555
H24 C36 1_555 1_555
Zn6 O15 1_555 1_555
Zn9 O16 1_555 1_555
O12 C41 1_555 1_555
O14 Zn1 1_555 1_555
O15 C51 1_555 1_555
O16 C51 1_555 1_555
O18 Zn6 1_555 1_555
O23 Zn6 1_555 1_555
N8 Zn6 1_555 1_555
C38 C39 1_555 1_555
C39 H28 1_555 1_555
C40 C39 1_555 1_555
H29 C40 1_555 1_555
C41 C40 1_555 1_555
C42 C41 1_555 1_555
H30 C42 1_555 1_555
C43 C38 1_555 1_555
H31 C43 1_555 1_555
C44 O13 1_555 1_555
C45 C46 1_555 1_555
C46 H32 1_555 1_555
C47 C46 1_555 1_555
H33 C47 1_555 1_555
C48 O12 1_555 1_555
C49 C48 1_555 1_555
H34 C49 1_555 1_555
C50 C45 1_555 1_555
H35 C50 1_555 1_555
C51 C45 1_555 1_555
O14 C44 1_555 1_555
C38 C44 1_555 1_555
C42 C43 1_555 1_555
C47 C48 1_555 1_555
C49 C50 1_555 1_555
N1_4 C29_2 1_555 1_555
N2_2 C29_2 1_555 1_555
C29_2 C33_2 1_555 1_555
C30_2 N8 1_555 1_555
H17_2 C30_2 1_555 1_555
C31_2 C30_2 1_555 1_555
H18_2 C31_2 1_555 1_555
C32_2 C31_2 1_555 1_555
H19_4 C32_2 1_555 1_555
C33_2 C32_2 1_555 1_555
C34_2 N8 1_555 1_555
H20_2 C34_2 1_555 1_555
C33_2 C34_2 1_555 1_555
O4_2 C14_2 1_555 1_555
O17 C14_2 1_555 1_555
C8_2 C9_2 1_555 1_555
C9_2 H5_2 1_555 1_555
C13_2 C8_2 1_555 1_555
H8_2 C13_2 1_555 1_555
C14_2 C8_2 1_555 1_555
Zn9 O15_2 1_555 1_555
O15_2 C51_2 1_555 1_555
O18 C51_2 1_555 1_555
O26 Zn9 1_555 1_555
C45_2 C46_2 1_555 1_555
C46_2 H32_2 1_555 1_555
C50_2 C45_2 1_555 1_555
H35_2 C50_2 1_555 1_555
C51_2 C45_2 1_555 1_555
H25 C37 1_555 1_555
H26 C37 1_555 1_555
H27 C37 1_555 1_555
O19 C52 1_555 1_555
O24 C65_2 1_555 1_555
O27 C65_2 1_555 1_555
C52 C53 1_555 1_555
C53 H36 1_555 1_555
C54 C53 1_555 1_555
H37 C54 1_555 1_555
C55 C54 1_555 1_555
C56 C55 1_555 1_555
H38 C56 1_555 1_555
C57 C52 1_555 1_555
H39 C57 1_555 1_555
C58 O20 1_555 1_555
C59_2 C60_2 1_555 1_555
C60_2 H40_2 1_555 1_555
C61 C60_2 1_555 1_555
H41 C61 1_555 1_555
C62 O19 1_555 1_555
C63 C62 1_555 1_555
H42 C63 1_555 1_555
C64_2 C59_2 1_555 1_555
H43_2 C64_2 1_555 1_555
C65_2 C59_2 1_555 1_555
O21 C58 1_555 1_555
C55 C58 1_555 1_555
C56 C57 1_555 1_555
C61 C62 1_555 1_555
C63 C64_2 1_555 1_555
O6 C15 1_555 1_555
O8 C21 1_555 1_555
O23 C28_2 1_555 1_555
O26 C28_2 1_555 1_555
C15 C16 1_555 1_555
C16 H9 1_555 1_555
C17 C16 1_555 1_555
H10 C17 1_555 1_555
C18 C17 1_555 1_555
C19 C18 1_555 1_555
H11 C19 1_555 1_555
C20 C15 1_555 1_555
H12 C20 1_555 1_555
C21 O7 1_555 1_555
C22_2 C23_2 1_555 1_555
C23_2 H13_2 1_555 1_555
C24 C23_2 1_555 1_555
H14 C24 1_555 1_555
C25 O6 1_555 1_555
C26 C25 1_555 1_555
H15 C26 1_555 1_555
C27_2 C22_2 1_555 1_555
H16_2 C27_2 1_555 1_555
C28_2 C22_2 1_555 1_555
C18 C21 1_555 1_555
C19 C20 1_555 1_555
C24 C25 1_555 1_555
C26 C27_2 1_555 1_555
H49_2 C73_2 1_555 1_555
H51_2 C73_2 1_555 1_555
H52 C74 1_555 1_555
H53 C74 1_555 1_555
H54 C74 1_555 1_555
Zn1_2 O2_2 1_555 1_555
O1_2 C4_2 1_555 1_555
O2_2 C7_2 1_555 1_555
O3_2 C7_2 1_555 1_555
O6_2 C15_2 1_555 1_555
O7_2 Zn1_2 1_555 1_555
O8_2 C21_2 1_555 1_555
O11_2 Zn1_2 1_555 1_555
N4_2 C35_2 1_555 1_555
C1_2 C2_2 1_555 1_555
C2_2 H1_2 1_555 1_555
C3_2 C2_2 1_555 1_555
H2_2 C3_2 1_555 1_555
C4_2 C3_2 1_555 1_555
C5_2 C4_2 1_555 1_555
H3_2 C5_2 1_555 1_555
C6_2 C1_2 1_555 1_555
H4_2 C6_2 1_555 1_555
C7_2 C1_2 1_555 1_555
H6_2 C10_2 1_555 1_555
C11_2 O1_2 1_555 1_555
C12_2 C11_2 1_555 1_555
H7_2 C12_2 1_555 1_555
C15_2 C16_2 1_555 1_555
C16_2 H9_2 1_555 1_555
C17_2 C16_2 1_555 1_555
H10_2 C17_2 1_555 1_555
C18_2 C17_2 1_555 1_555
C19_2 C18_2 1_555 1_555
H11_2 C19_2 1_555 1_555
C20_2 C15_2 1_555 1_555
H12_2 C20_2 1_555 1_555
C21_2 O7_2 1_555 1_555
H14_2 C24_2 1_555 1_555
C25_2 O6_2 1_555 1_555
C26_2 C25_2 1_555 1_555
H15_2 C26_2 1_555 1_555
C35_2 O11_2 1_555 1_555
H21_2 C35_2 1_555 1_555
C36_2 N4_2 1_555 1_555
H22_2 C36_2 1_555 1_555
H23_2 C36_2 1_555 1_555
H24_2 C36_2 1_555 1_555
C37_2 N4_2 1_555 1_555
H25_2 C37_2 1_555 1_555
H26_2 C37_2 1_555 1_555
H27_2 C37_2 1_555 1_555
Zn3_2 O3_2 1_555 1_555
O12_2 C41_2 1_555 1_555
O13_2 Zn3_2 1_555 1_555
O14_2 Zn1_2 1_555 1_555
O19_2 C52_2 1_555 1_555
O20_2 Zn3_2 1_555 1_555
O21_2 Zn1_2 1_555 1_555
O28_2 Zn3_2 1_555 1_555
N9_2 C72_2 1_555 1_555
C38_2 C39_2 1_555 1_555
C39_2 H28_2 1_555 1_555
C40_2 C39_2 1_555 1_555
H29_2 C40_2 1_555 1_555
C41_2 C40_2 1_555 1_555
C42_2 C41_2 1_555 1_555
H30_2 C42_2 1_555 1_555
C43_2 C38_2 1_555 1_555
H31_2 C43_2 1_555 1_555
C44_2 O13_2 1_555 1_555
H33_2 C47_2 1_555 1_555
C48_2 O12_2 1_555 1_555
C49_2 C48_2 1_555 1_555
H34_2 C49_2 1_555 1_555
C52_2 C53_2 1_555 1_555
C53_2 H36_2 1_555 1_555
C54_2 C53_2 1_555 1_555
H37_2 C54_2 1_555 1_555
C55_2 C54_2 1_555 1_555
C56_2 C55_2 1_555 1_555
H38_2 C56_2 1_555 1_555
C57_2 C52_2 1_555 1_555
H39_2 C57_2 1_555 1_555
C58_2 O20_2 1_555 1_555
H41_2 C61_2 1_555 1_555
C62_2 O19_2 1_555 1_555
C63_2 C62_2 1_555 1_555
H42_2 C63_2 1_555 1_555
C72_2 O28_2 1_555 1_555
H48_2 C72_2 1_555 1_555
O8_2 Zn3_2 1_555 1_555
C5_2 C6_2 1_555 1_555
C10_2 C11_2 1_555 1_555
C18_2 C21_2 1_555 1_555
C19_2 C20_2 1_555 1_555
C24_2 C25_2 1_555 1_555
O14_2 C44_2 1_555 1_555
O21_2 C58_2 1_555 1_555
C38_2 C44_2 1_555 1_555
C42_2 C43_2 1_555 1_555
C47_2 C48_2 1_555 1_555
C55_2 C58_2 1_555 1_555
C56_2 C57_2 1_555 1_555
C61_2 C62_2 1_555 1_555
N3_2 Zn2 1_555 1_555
C29_3 C33_3 1_555 1_555
C30_3 N3_2 1_555 1_555
H17_3 C30_3 1_555 1_555
C31_3 C30_3 1_555 1_555
H18_3 C31_3 1_555 1_555
C32_3 C31_3 1_555 1_555
C33_3 C32_3 1_555 1_555
C34_3 N3_2 1_555 1_555
O17_2 Zn2 1_555 1_555
O24_2 Zn2 1_555 1_555
C33_3 C34_3 1_555 1_555
O4_3 C14_3 1_555 1_555
O5_2 C14_3 1_555 1_555
C8_3 C9_3 1_555 1_555
C9_3 H5_3 1_555 1_555
C13_3 C8_3 1_555 1_555
H8_3 C13_3 1_555 1_555
C14_3 C8_3 1_555 1_555
Zn4 O15_3 1_555 1_555
Zn10 O5_2 1_555 1_555
Zn11 O16_2 1_555 1_555
O15_3 C51_3 1_555 1_555
O16_2 C51_3 1_555 1_555
O18_2 Zn4 1_555 1_555
O23_2 Zn4 1_555 1_555
O26_2 Zn4 1_555 1_555
N5 N2_3 1_555 1_555
N8_2 Zn4 1_555 1_555
C45_3 C46_3 1_555 1_555
C46_3 H32_3 1_555 1_555
C50_3 C45_3 1_555 1_555
H35_3 C50_3 1_555 1_555
C51_3 C45_3 1_555 1_555
N2_4 C29_4 1_555 1_555
C29_4 C33_4 1_555 1_555
C30_4 N8_2 1_555 1_555
H17_4 C30_4 1_555 1_555
C31_4 C30_4 1_555 1_555
H18_4 C31_4 1_555 1_555
C32_4 C31_4 1_555 1_555
C33_4 C32_4 1_555 1_555
C34_4 N8_2 1_555 1_555
H20_4 C34_4 1_555 1_555
N5_2 N2_4 1_555 1_555
C33_4 C34_4 1_555 1_555
O6_3 C15_3 1_555 1_555
O8_3 C21_3 1_555 1_555
O9_2 C28_3 1_555 1_555
O26_2 C28_3 1_555 1_555
C15_3 C16_3 1_555 1_555
C16_3 H9_3 1_555 1_555
C17_3 C16_3 1_555 1_555
H10_3 C17_3 1_555 1_555
C18_3 C17_3 1_555 1_555
C19_3 C18_3 1_555 1_555
H11_3 C19_3 1_555 1_555
C20_3 C15_3 1_555 1_555
H12_3 C20_3 1_555 1_555
C21_3 O7_3 1_555 1_555
C22_3 C23_3 1_555 1_555
C23_3 H13_3 1_555 1_555
C24_3 C23_3 1_555 1_555
H14_3 C24_3 1_555 1_555
C25_3 O6_3 1_555 1_555
C26_3 C25_3 1_555 1_555
H15_3 C26_3 1_555 1_555
C27_3 C22_3 1_555 1_555
H16_3 C27_3 1_555 1_555
C28_3 C22_3 1_555 1_555
Zn11 O9_2 1_555 1_555
C18_3 C21_3 1_555 1_555
C19_3 C20_3 1_555 1_555
C24_3 C25_3 1_555 1_555
C26_3 C27_3 1_555 1_555
Zn10 N7_3 1_555 1_555
N7_3 C67_3 1_555 1_555
C66_3 N5_3 1_555 1_555
C67_3 H44_3 1_555 1_555
C68_3 C67_3 1_555 1_555
H45_3 C68_3 1_555 1_555
C69_3 C68_3 1_555 1_555
H46_3 C69_3 1_555 1_555
C70_3 C66_3 1_555 1_555
C71_3 N7_3 1_555 1_555
C69_3 C70_3 1_555 1_555
C70_3 C71_3 1_555 1_555
H25_3 C37_3 1_555 1_555
H26_3 C37_3 1_555 1_555
H27_3 C37_3 1_555 1_555
Zn10 O22_2 1_555 1_555
O19_3 C52_3 1_555 1_555
O22_2 C65_3 1_555 1_555
O27_2 C65_3 1_555 1_555
C52_3 C53_3 1_555 1_555
C53_3 H36_3 1_555 1_555
C54_3 C53_3 1_555 1_555
H37_3 C54_3 1_555 1_555
C55_3 C54_3 1_555 1_555
C56_3 C55_3 1_555 1_555
H38_3 C56_3 1_555 1_555
C57_3 C52_3 1_555 1_555
H39_3 C57_3 1_555 1_555
C58_3 O20_3 1_555 1_555
C59_3 C60_3 1_555 1_555
C60_3 H40_3 1_555 1_555
C61_3 C60_3 1_555 1_555
H41_3 C61_3 1_555 1_555
C62_3 O19_3 1_555 1_555
C63_3 C62_3 1_555 1_555
H42_3 C63_3 1_555 1_555
C64_3 C59_3 1_555 1_555
H43_3 C64_3 1_555 1_555
C65_3 C59_3 1_555 1_555
O21_3 C58_3 1_555 1_555
C55_3 C58_3 1_555 1_555
C56_3 C57_3 1_555 1_555
C61_3 C62_3 1_555 1_555
C63_3 C64_3 1_555 1_555
Zn11 N7_4 1_555 1_555
N7_4 C67_4 1_555 1_555
C66_4 N5_4 1_555 1_555
C67_4 H44_4 1_555 1_555
C68_4 C67_4 1_555 1_555
H45_4 C68_4 1_555 1_555
C69_4 C68_4 1_555 1_555
H46_4 C69_4 1_555 1_555
C70_4 C66_4 1_555 1_555
C71_4 N7_4 1_555 1_555
H47_4 C71_4 1_555 1_555
N6_4 C66_4 1_555 1_555
C69_4 C70_4 1_555 1_555
C70_4 C71_4 1_555 1_555
O23_2 C28_4 1_555 1_555
O10_2 C28_4 1_555 1_555
C22_4 C23_4 1_555 1_555
C23_4 H13_4 1_555 1_555
C27_4 C22_4 1_555 1_555
H16_4 C27_4 1_555 1_555
C28_4 C22_4 1_555 1_555
Zn11 O10_2 1_555 1_555
O24_2 C65_4 1_555 1_555
O25_2 C65_4 1_555 1_555
C59_4 C60_4 1_555 1_555
C60_4 H40_4 1_555 1_555
C64_4 C59_4 1_555 1_555
H43_4 C64_4 1_555 1_555
C65_4 C59_4 1_555 1_555
N4_3 C35_3 1_555 1_555
H21_3 C35_3 1_555 1_555
C36_3 N4_3 1_555 1_555
H22_3 C36_3 1_555 1_555
H23_3 C36_3 1_555 1_555
H24_3 C36_3 1_555 1_555
Zn11 O15_4 1_555 1_555
O12_3 C41_3 1_555 1_555
O14_3 Zn1_3 1_555 1_555
O15_4 C51_4 1_555 1_555
O18_2 C51_4 1_555 1_555
C38_3 C39_3 1_555 1_555
C39_3 H28_3 1_555 1_555
C40_3 C39_3 1_555 1_555
H29_3 C40_3 1_555 1_555
C41_3 C40_3 1_555 1_555
C42_3 C41_3 1_555 1_555
H30_3 C42_3 1_555 1_555
C43_3 C38_3 1_555 1_555
H31_3 C43_3 1_555 1_555
C44_3 O13_3 1_555 1_555
C45_4 C46_4 1_555 1_555
C46_4 H32_4 1_555 1_555
C47_3 C46_4 1_555 1_555
H33_3 C47_3 1_555 1_555
C48_3 O12_3 1_555 1_555
C49_3 C48_3 1_555 1_555
H34_3 C49_3 1_555 1_555
C50_4 C45_4 1_555 1_555
H35_4 C50_4 1_555 1_555
C51_4 C45_4 1_555 1_555
O14_3 C44_3 1_555 1_555
C38_3 C44_3 1_555 1_555
C42_3 C43_3 1_555 1_555
C47_3 C48_3 1_555 1_555
C49_3 C50_4 1_555 1_555
O1_3 C4_3 1_555 1_555
O2_3 C7_3 1_555 1_555
O3_3 C7_3 1_555 1_555
O4_4 C14_4 1_555 1_555
O17_2 C14_4 1_555 1_555
C1_3 C2_3 1_555 1_555
C2_3 H1_3 1_555 1_555
C3_3 C2_3 1_555 1_555
H2_3 C3_3 1_555 1_555
C4_3 C3_3 1_555 1_555
C5_3 C4_3 1_555 1_555
H3_3 C5_3 1_555 1_555
C6_3 C1_3 1_555 1_555
H4_3 C6_3 1_555 1_555
C7_3 C1_3 1_555 1_555
C8_4 C9_4 1_555 1_555
C9_4 H5_4 1_555 1_555
C10_3 C9_4 1_555 1_555
H6_3 C10_3 1_555 1_555
C11_3 O1_3 1_555 1_555
C12_3 C11_3 1_555 1_555
H7_3 C12_3 1_555 1_555
C13_4 C8_4 1_555 1_555
H8_4 C13_4 1_555 1_555
C14_4 C8_4 1_555 1_555
Zn3_3 O3_3 1_555 1_555
N9_3 C72_3 1_555 1_555
H48_3 C72_3 1_555 1_555
C5_3 C6_3 1_555 1_555
C10_3 C11_3 1_555 1_555
C12_3 C13_4 1_555 1_555
H49_3 C73_3 1_555 1_555
H51_3 C73_3 1_555 1_555
H52_2 C74_2 1_555 1_555
H53_2 C74_2 1_555 1_555
H54_2 C74_2 1_555 1_555
Zn1_4 O2_4 1_555 1_555
O1_4 C4_4 1_555 1_555
O2_4 C7_4 1_555 1_555
O3_4 C7_4 1_555 1_555
O6_4 C15_4 1_555 1_555
O7_4 Zn1_4 1_555 1_555
O8_4 C21_4 1_555 1_555
O11_4 Zn1_4 1_555 1_555
N4_4 C35_4 1_555 1_555
C1_4 C2_4 1_555 1_555
C2_4 H1_4 1_555 1_555
C3_4 C2_4 1_555 1_555
H2_4 C3_4 1_555 1_555
C4_4 C3_4 1_555 1_555
C5_4 C4_4 1_555 1_555
H3_4 C5_4 1_555 1_555
C6_4 C1_4 1_555 1_555
H4_4 C6_4 1_555 1_555
C7_4 C1_4 1_555 1_555
H6_4 C10_4 1_555 1_555
C11_4 O1_4 1_555 1_555
C12_4 C11_4 1_555 1_555
H7_4 C12_4 1_555 1_555
C15_4 C16_4 1_555 1_555
C16_4 H9_4 1_555 1_555
C17_4 C16_4 1_555 1_555
H10_4 C17_4 1_555 1_555
C18_4 C17_4 1_555 1_555
C19_4 C18_4 1_555 1_555
H11_4 C19_4 1_555 1_555
C20_4 C15_4 1_555 1_555
H12_4 C20_4 1_555 1_555
C21_4 O7_4 1_555 1_555
H14_4 C24_4 1_555 1_555
C25_4 O6_4 1_555 1_555
C26_4 C25_4 1_555 1_555
H15_4 C26_4 1_555 1_555
C35_4 O11_4 1_555 1_555
H21_4 C35_4 1_555 1_555
C36_4 N4_4 1_555 1_555
H22_4 C36_4 1_555 1_555
H23_4 C36_4 1_555 1_555
H24_4 C36_4 1_555 1_555
C37_4 N4_4 1_555 1_555
H25_4 C37_4 1_555 1_555
H26_4 C37_4 1_555 1_555
H27_4 C37_4 1_555 1_555
Zn3_4 O3_4 1_555 1_555
O12_4 C41_4 1_555 1_555
O13_4 Zn3_4 1_555 1_555
O14_4 Zn1_4 1_555 1_555
O19_4 C52_4 1_555 1_555
O20_4 Zn3_4 1_555 1_555
O21_4 Zn1_4 1_555 1_555
O28_4 Zn3_4 1_555 1_555
N9_4 C72_4 1_555 1_555
C38_4 C39_4 1_555 1_555
C39_4 H28_4 1_555 1_555
C40_4 C39_4 1_555 1_555
H29_4 C40_4 1_555 1_555
C41_4 C40_4 1_555 1_555
C42_4 C41_4 1_555 1_555
H30_4 C42_4 1_555 1_555
C43_4 C38_4 1_555 1_555
H31_4 C43_4 1_555 1_555
C44_4 O13_4 1_555 1_555
H33_4 C47_4 1_555 1_555
C48_4 O12_4 1_555 1_555
C49_4 C48_4 1_555 1_555
H34_4 C49_4 1_555 1_555
C52_4 C53_4 1_555 1_555
C53_4 H36_4 1_555 1_555
C54_4 C53_4 1_555 1_555
H37_4 C54_4 1_555 1_555
C55_4 C54_4 1_555 1_555
C56_4 C55_4 1_555 1_555
H38_4 C56_4 1_555 1_555
C57_4 C52_4 1_555 1_555
H39_4 C57_4 1_555 1_555
C58_4 O20_4 1_555 1_555
H41_4 C61_4 1_555 1_555
C62_4 O19_4 1_555 1_555
C63_4 C62_4 1_555 1_555
H42_4 C63_4 1_555 1_555
C72_4 O28_4 1_555 1_555
H48_4 C72_4 1_555 1_555
O8_4 Zn3_4 1_555 1_555
C5_4 C6_4 1_555 1_555
C10_4 C11_4 1_555 1_555
C18_4 C21_4 1_555 1_555
C19_4 C20_4 1_555 1_555
C24_4 C25_4 1_555 1_555
O14_4 C44_4 1_555 1_555
O21_4 C58_4 1_555 1_555
C38_4 C44_4 1_555 1_555
C42_4 C43_4 1_555 1_555
C47_4 C48_4 1_555 1_555
C55_4 C58_4 1_555 1_555
C56_4 C57_4 1_555 1_555
C61_4 C62_4 1_555 1_555
H49_4 C73_4 1_555 1_555
H51_4 C73_4 1_555 1_555
H52_3 C74_3 1_555 1_555
H53_3 C74_3 1_555 1_555
H54_3 C74_3 1_555 1_555
H52_4 C74_4 1_555 1_555
H53_4 C74_4 1_555 1_555
H54_4 C74_4 1_555 1_555

#END
