
###############################################################################
#
# This file contains modified crystal structure data generated from the
# MOF subset of the Cambridge Structural Database (CSD) v543 
# hosted by the Cambridge Crystallographic Data Centre (CCDC).
#
# This work is licensed under the Creative Commons
# Attribution-NonCommercial-ShareAlike 4.0 International License.
# To view a copy of this license, visit
# http://creativecommons.org/licenses/by-nc-sa/4.0/
# or send a letter to
# Creative Commons, PO Box 1866, Mountain View, CA 94042, USA.
#
# CIF created using the CSD Python API on 29 September 2022
# The structure has been converted into the P1 space group
# The structure has a 3D framework
# The original CSD entry UVUQEJ is in the monoclinic crystal system
# The framework has been calculated to contain at least 10.0% void space
# The void calculation uses a probe of radius 1.32A, grid spacing 0.4
#
###############################################################################

data_UVUQEJ
_chemical_formula_moiety         '(C56 H44 Br4 Cd2 N12 O14)n'
_symmetry_cell_setting           triclinic
_symmetry_space_group_name_H-M   'P 1'
_symmetry_Int_Tables_number      1
_space_group_name_Hall           'P 1'
loop_
_symmetry_equiv_pos_site_id
_symmetry_equiv_pos_as_xyz
1 x,y,z
_cell_length_a                   15.466(4)
_cell_length_b                   8.0557(18)
_cell_length_c                   18.445(3)
_cell_angle_alpha                90
_cell_angle_beta                 123.605(14)
_cell_angle_gamma                90
_cell_volume                     1913.99
loop_
_atom_site_label
_atom_site_type_symbol
_atom_site_fract_x
_atom_site_fract_y
_atom_site_fract_z
Cd1 Cd 0.02572(2) 0.61005(3) 0.86584(2)
O5 O 0.10123(17) 0.3898(3) 0.96425(14)
H10 H 0.0657 0.3698 0.9856
H11 H 0.1022 0.3041 0.9378
O11 O 0.12061(15) 0.5579(3) 0.81231(12)
O14 O 0.02372(15) 0.7321(3) 0.98349(11)
O16 O 0.14716(16) 0.8061(3) 0.96462(12)
C22 C 0.1067(2) 0.9421(3) 0.13185(16)
H18 H 0.0406 0.8989 0.1088
C23 C 0.1552(2) 0.9167(3) 0.08837(16)
C24 C 0.2530(2) 0.9861(4) 0.12244(18)
H19 H 0.2853 0.9730 0.0927
C28 C 0.1054(2) 0.8113(4) 0.00763(17)
O7 O 0.12061(15) 0.9421(3) 0.31231(12)
Cd6 Cd 0.02572(2) 0.88995(3) 0.36584(2)
O13 O 0.02372(15) 0.7679(3) 0.48349(11)
O15 O 0.14716(16) 0.6939(3) 0.46462(12)
Br1 Br 0.32600(2) 0.29389(4) 0.85179(2)
C1 C 0.15517(19) 0.4687(3) 0.70973(15)
C2 C 0.1067(2) 0.5579(3) 0.63185(16)
H1 H 0.0406 0.6011 0.6088
C3 C 0.1552(2) 0.5833(3) 0.58837(16)
C4 C 0.2530(2) 0.5139(4) 0.62244(18)
H2 H 0.2853 0.5270 0.5927
C5 C 0.3023(2) 0.4264(4) 0.6991(2)
H3 H 0.3678 0.3814 0.7214
C6 C 0.2536(2) 0.4058(4) 0.74287(17)
C7 C 0.0993(2) 0.4489(4) 0.75595(16)
C8 C 0.1054(2) 0.6887(4) 0.50763(17)
H5 H 0.1882 0.0508 0.6273
O1 O 0.03758(17) 0.3327(3) 0.73636(13)
O3 O 0.97628(15) 0.2679(3) 0.01651(11)
O4 O 0.85284(16) 0.1939(3) 0.03538(12)
Cd5 Cd 0.97428(2) 0.38995(3) 0.13416(2)
C2_2 C 0.8933(2) 0.0579(3) 0.86815(16)
H1_2 H 0.9594 0.1011 0.8912
C3_2 C 0.8448(2) 0.0833(3) 0.91163(16)
C4_2 C 0.7470(2) 0.0139(4) 0.87756(18)
H2_2 H 0.7147 0.0270 0.9073
C8_2 C 0.8946(2) 0.1887(4) 0.99237(17)
O2 O 0.87939(15) 0.0579(3) 0.68769(12)
Cd4 Cd 0.97428(2) 0.11005(3) 0.63416(2)
O10 O 0.89877(17) 0.6102(3) 0.03575(14)
H21 H 0.9343 0.6302 0.0144
H22 H 0.8978 0.6959 0.0622
O12 O 0.87939(15) 0.4421(3) 0.18769(12)
H13 H 0.8118 0.9492 0.3727
Br2 Br 0.67400(2) 0.70611(4) 0.14821(2)
C21 C 0.84483(19) 0.5313(3) 0.29027(15)
C22_2 C 0.8933(2) 0.4421(3) 0.36815(16)
H18_2 H 0.9594 0.3989 0.3912
C23_2 C 0.8448(2) 0.4167(3) 0.41163(16)
C24_2 C 0.7470(2) 0.4861(4) 0.37756(18)
H19_2 H 0.7147 0.4730 0.4073
C25 C 0.6977(2) 0.5736(4) 0.3009(2)
H20 H 0.6322 0.6186 0.2786
C26 C 0.7464(2) 0.5942(4) 0.25713(17)
C27 C 0.9007(2) 0.5511(4) 0.24405(16)
C28_2 C 0.8946(2) 0.3113(4) 0.49237(17)
O6 O 0.96242(17) 0.6673(3) 0.26364(13)
O8 O 0.97628(15) 0.2321(3) 0.51651(11)
O9 O 0.85284(16) 0.3061(3) 0.53538(12)
Br1_2 Br 0.67400(2) 0.79389(4) 0.64821(2)
C1_2 C 0.84483(19) 0.9687(3) 0.79027(15)
C5_2 C 0.6977(2) 0.9264(4) 0.8009(2)
H3_2 H 0.6322 0.8814 0.7786
C6_2 C 0.7464(2) 0.9058(4) 0.75713(17)
C7_2 C 0.9007(2) 0.9489(4) 0.74405(16)
C9 C 0.8195(2) 0.3997(4) 0.7289(2)
H4 H 0.8464 0.3722 0.6961
C10 C 0.7988(2) 0.4953(5) 0.82337(19)
H5_2 H 0.8118 0.5508 0.8727
C11 C 0.6440(3) 0.2646(4) 0.6321(2)
H6 H 0.6073 0.1924 0.6484
H7 H 0.6752 0.1960 0.6092
C12 C 0.5680(2) 0.3853(4) 0.5623(2)
C13 C 0.4799(3) 0.4357(5) 0.5575(2)
H8 H 0.4649 0.3921 0.5960
C14 C 0.5865(3) 0.4494(5) 0.5041(2)
H9 H 0.6449 0.4152 0.5056
N1 N 0.86837(18) 0.4888(3) 0.80141(15)
N2 N 0.7109(2) 0.4174(4) 0.76988(17)
N3 N 0.7266(2) 0.3557(3) 0.70996(17)
O1_2 O 0.96242(17) 0.8327(3) 0.76364(13)
C15 C 0.1805(2) 0.6003(4) 0.2711(2)
H12 H 0.1536 0.6278 0.3039
C16 C 0.2012(2) 0.5047(5) 0.17663(19)
H13_2 H 0.1882 0.4492 0.1273
C17 C 0.3560(3) 0.7354(4) 0.3679(2)
H14 H 0.3927 0.8076 0.3516
H15 H 0.3248 0.8040 0.3908
C18 C 0.4320(2) 0.6147(4) 0.4377(2)
C19 C 0.5201(3) 0.5643(5) 0.4425(2)
H16 H 0.5351 0.6079 0.4040
C20 C 0.4135(3) 0.5506(5) 0.4959(2)
H17 H 0.3551 0.5848 0.4944
N4 N 0.13163(18) 0.5112(3) 0.19859(15)
N5 N 0.2891(2) 0.5826(4) 0.23012(17)
N6 N 0.2734(2) 0.6443(3) 0.29004(17)
Br2_2 Br 0.32600(2) 0.20611(4) 0.35179(2)
C21_2 C 0.15517(19) 0.0313(3) 0.20973(15)
C25_2 C 0.3023(2) 0.0736(4) 0.1991(2)
H20_2 H 0.3678 0.1186 0.2214
C26_2 C 0.2536(2) 0.0942(4) 0.24287(17)
C27_2 C 0.0993(2) 0.0511(4) 0.25595(16)
O6_2 O 0.03758(17) 0.1673(3) 0.23636(13)
O10_2 O 0.10123(17) 0.1102(3) 0.46425(14)
H21_2 H 0.0657 0.1302 0.4856
H22_2 H 0.1022 0.1959 0.4378
C15_2 C 0.8195(2) 0.1003(4) 0.2289(2)
H12_2 H 0.8464 0.1278 0.1961
C16_2 C 0.7988(2) 0.0047(5) 0.32337(19)
C17_2 C 0.6440(3) 0.2354(4) 0.1321(2)
H14_2 H 0.6073 0.3076 0.1484
H15_2 H 0.6752 0.3040 0.1092
C18_2 C 0.5680(2) 0.1147(4) 0.0623(2)
C19_2 C 0.4799(3) 0.0643(5) 0.0575(2)
H16_2 H 0.4649 0.1079 0.0960
C20_2 C 0.5865(3) 0.0506(5) 0.0041(2)
H17_2 H 0.6449 0.0848 0.0056
N4_2 N 0.86837(18) 0.0112(3) 0.30141(15)
N5_2 N 0.7109(2) 0.0826(4) 0.26988(17)
N6_2 N 0.7266(2) 0.1443(3) 0.20996(17)
C9_2 C 0.1805(2) 0.8997(4) 0.7711(2)
H4_2 H 0.1536 0.8722 0.8039
C10_2 C 0.2012(2) 0.9953(5) 0.67663(19)
C11_2 C 0.3560(3) 0.7646(4) 0.8679(2)
H6_2 H 0.3927 0.6924 0.8516
H7_2 H 0.3248 0.6960 0.8908
C12_2 C 0.4320(2) 0.8853(4) 0.9377(2)
C13_2 C 0.5201(3) 0.9357(5) 0.9425(2)
H8_2 H 0.5351 0.8921 0.9040
C14_2 C 0.4135(3) 0.9494(5) 0.9959(2)
H9_2 H 0.3551 0.9152 0.9944
N1_2 N 0.13163(18) 0.9888(3) 0.69859(15)
N2_2 N 0.2891(2) 0.9174(4) 0.73012(17)
N3_2 N 0.2734(2) 0.8557(3) 0.79004(17)
O5_2 O 0.89877(17) 0.8898(3) 0.53575(14)
H10_2 H 0.9343 0.8698 0.5144
H11_2 H 0.8978 0.8041 0.5622
loop_
_geom_bond_atom_site_label_1
_geom_bond_atom_site_label_2
_geom_bond_site_symmetry_1
_geom_bond_site_symmetry_2
O5 Cd1 1_555 1_555
H10 O5 1_555 1_555
H11 O5 1_555 1_555
O11 Cd1 1_555 1_555
O14 Cd1 1_555 1_555
O16 Cd1 1_555 1_555
C22 H18 1_555 1_555
C23 C22 1_555 1_555
C24 C23 1_555 1_555
H19 C24 1_555 1_555
C28 C23 1_555 1_555
Cd6 O7 1_555 1_555
O13 Cd6 1_555 1_555
O15 Cd6 1_555 1_555
Br1 C6 1_555 1_555
C1 C2 1_555 1_555
C2 H1 1_555 1_555
C3 C2 1_555 1_555
C4 C3 1_555 1_555
H2 C4 1_555 1_555
C5 C4 1_555 1_555
H3 C5 1_555 1_555
C6 C1 1_555 1_555
C7 C1 1_555 1_555
C8 C3 1_555 1_555
O11 C7 1_555 1_555
O13 C8 1_555 1_555
O15 C8 1_555 1_555
C5 C6 1_555 1_555
C7 O1 1_555 1_555
Cd5 O3 1_555 1_555
O4 Cd5 1_555 1_555
C2_2 H1_2 1_555 1_555
C3_2 C2_2 1_555 1_555
C4_2 C3_2 1_555 1_555
H2_2 C4_2 1_555 1_555
C8_2 C3_2 1_555 1_555
Cd4 O2 1_555 1_555
O10 Cd5 1_555 1_555
H21 O10 1_555 1_555
H22 O10 1_555 1_555
O12 Cd5 1_555 1_555
Br2 C26 1_555 1_555
C21 C22_2 1_555 1_555
C22_2 H18_2 1_555 1_555
C23_2 C22_2 1_555 1_555
C24_2 C23_2 1_555 1_555
H19_2 C24_2 1_555 1_555
C25 C24_2 1_555 1_555
H20 C25 1_555 1_555
C26 C21 1_555 1_555
C27 C21 1_555 1_555
C28_2 C23_2 1_555 1_555
O12 C27 1_555 1_555
O8 C28_2 1_555 1_555
O9 C28_2 1_555 1_555
Cd4 O8 1_555 1_555
C25 C26 1_555 1_555
C27 O6 1_555 1_555
O9 Cd4 1_555 1_555
Br1_2 C6_2 1_555 1_555
H3_2 C5_2 1_555 1_555
C6_2 C1_2 1_555 1_555
C7_2 C1_2 1_555 1_555
C9 H4 1_555 1_555
C10 H5_2 1_555 1_555
C11 H6 1_555 1_555
H7 C11 1_555 1_555
C12 C11 1_555 1_555
C13 C12 1_555 1_555
H8 C13 1_555 1_555
C14 C12 1_555 1_555
H9 C14 1_555 1_555
N1 C9 1_555 1_555
N2 C10 1_555 1_555
N3 C9 1_555 1_555
C15 H12 1_555 1_555
C16 H13_2 1_555 1_555
C17 H14 1_555 1_555
H15 C17 1_555 1_555
C18 C17 1_555 1_555
C19 C14 1_555 1_555
H16 C19 1_555 1_555
C20 C13 1_555 1_555
H17 C20 1_555 1_555
N4 C15 1_555 1_555
N5 C16 1_555 1_555
N6 C15 1_555 1_555
Br2_2 C26_2 1_555 1_555
H20_2 C25_2 1_555 1_555
C26_2 C21_2 1_555 1_555
C27_2 C21_2 1_555 1_555
C5_2 C6_2 1_555 1_555
C7_2 O1_2 1_555 1_555
C10 N1 1_555 1_555
C11 N3 1_555 1_555
N2 N3 1_555 1_555
C16 N4 1_555 1_555
C17 N6 1_555 1_555
C18 C19 1_555 1_555
C18 C20 1_555 1_555
N5 N6 1_555 1_555
C25_2 C26_2 1_555 1_555
C27_2 O6_2 1_555 1_555
H21_2 O10_2 1_555 1_555
H22_2 O10_2 1_555 1_555
C15_2 H12_2 1_555 1_555
C17_2 H14_2 1_555 1_555
H15_2 C17_2 1_555 1_555
C18_2 C17_2 1_555 1_555
H16_2 C19_2 1_555 1_555
H17_2 C20_2 1_555 1_555
N4_2 C15_2 1_555 1_555
N5_2 C16_2 1_555 1_555
N6_2 C15_2 1_555 1_555
C16_2 N4_2 1_555 1_555
C17_2 N6_2 1_555 1_555
C18_2 C19_2 1_555 1_555
C18_2 C20_2 1_555 1_555
N5_2 N6_2 1_555 1_555
C9_2 H4_2 1_555 1_555
C11_2 H6_2 1_555 1_555
H7_2 C11_2 1_555 1_555
C12_2 C11_2 1_555 1_555
C13_2 C12_2 1_555 1_555
H8_2 C13_2 1_555 1_555
C14_2 C12_2 1_555 1_555
H9_2 C14_2 1_555 1_555
N1_2 C9_2 1_555 1_555
N2_2 C10_2 1_555 1_555
N3_2 C9_2 1_555 1_555
C10_2 N1_2 1_555 1_555
C11_2 N3_2 1_555 1_555
N2_2 N3_2 1_555 1_555
H10_2 O5_2 1_555 1_555
H11_2 O5_2 1_555 1_555

#END
