
###############################################################################
#
# This file contains modified crystal structure data generated from the
# MOF subset of the Cambridge Structural Database (CSD) v543 
# hosted by the Cambridge Crystallographic Data Centre (CCDC).
#
# This work is licensed under the Creative Commons
# Attribution-NonCommercial-ShareAlike 4.0 International License.
# To view a copy of this license, visit
# http://creativecommons.org/licenses/by-nc-sa/4.0/
# or send a letter to
# Creative Commons, PO Box 1866, Mountain View, CA 94042, USA.
#
# CIF created using the CSD Python API on 29 September 2022
# The structure has been converted into the P1 space group
# The structure has a 3D framework
# The original CSD entry UVUQIN is in the monoclinic crystal system
# The framework has been calculated to contain at least 10.0% void space
# The void calculation uses a probe of radius 1.32A, grid spacing 0.4
#
###############################################################################

data_UVUQIN
_chemical_formula_moiety         '(C48 H44 Br4 Cd4 N12 O18)n'
_symmetry_cell_setting           triclinic
_symmetry_space_group_name_H-M   'P 1'
_symmetry_Int_Tables_number      1
_space_group_name_Hall           'P 1'
loop_
_symmetry_equiv_pos_site_id
_symmetry_equiv_pos_as_xyz
1 x,y,z
_cell_length_a                   14.5649(15)
_cell_length_b                   7.8001(7)
_cell_length_c                   16.8042(17)
_cell_angle_alpha                90
_cell_angle_beta                 105.718(3)
_cell_angle_gamma                90
_cell_volume                     1837.7
loop_
_atom_site_label
_atom_site_type_symbol
_atom_site_fract_x
_atom_site_fract_y
_atom_site_fract_z
Cd1 Cd 0.13330(2) 0.34931(3) 0.15980(2)
C9 C 0.3036(3) 0.5365(5) 0.1055(3)
H4 H 0.3340 0.5700 0.1607
C11 C 0.4213(3) 0.6675(5) 0.0383(4)
H6 H 0.4391 0.7460 0.0863
C12 C 0.5053(3) 0.5492(5) 0.0400(3)
H8 H 0.5644 0.6186 0.0514
H9 H 0.5125 0.4663 0.0859
N1 N 0.2237(2) 0.4474(4) 0.08218(19)
N3 N 0.3348(2) 0.5722(4) 0.0407(2)
O1 O 0.01335(18) 0.2524(4) 0.03463(15)
O2 O 0.0024(2) 0.1805(4) 0.15839(16)
O5 O 0.0325(2) 0.5894(4) 0.12510(16)
H10 H 0.0510 0.6756 0.1690
H11 H 0.0381 0.6382 0.0729
C14 C 0.7912(3) 0.5663(5) 0.0007(2)
H13 H 0.8447 0.6241 0.0354
H15 H 0.5926 0.2620 0.0125
N5 N 0.7253(2) 0.4927(5) 0.0289(2)
Br2 Br 0.42584(3) 0.12566(5) 0.08091(2)
C20 C 0.3027(2) 0.0374(4) 0.0304(2)
C24 C 0.2743(2) 0.0056(4) 0.1731(2)
O8 O 0.2300(2) 0.1026(4) 0.20848(16)
O12 O 0.16183(18) 0.4034(3) 0.29172(14)
C10 C 0.2088(3) 0.4337(5) 0.9993(2)
H5 H 0.1553 0.3759 0.9646
H7 H 0.4074 0.7380 0.9875
N2 N 0.2747(2) 0.5073(5) 0.9711(2)
C13 C 0.6964(3) 0.4635(5) 0.8945(3)
H12 H 0.6660 0.4300 0.8393
C15 C 0.5787(3) 0.3325(5) 0.9617(4)
H14 H 0.5609 0.2540 0.9137
C16 C 0.4947(3) 0.4508(5) 0.9600(3)
H16 H 0.4356 0.3814 0.9486
H17 H 0.4875 0.5337 0.9141
N4 N 0.7763(2) 0.5526(4) 0.91782(19)
N6 N 0.6652(2) 0.4278(4) 0.9593(2)
C21 C 0.2736(3) 0.0187(5) 0.9455(2)
H19 H 0.3139 0.0533 0.9124
Cd4 Cd 0.86670(2) 0.65069(3) 0.84020(2)
C18 C 0.1549(2) 0.9253(4) 0.0425(2)
H18 H 0.1138 0.8945 0.0755
C19 C 0.2437(2) 0.9948(4) 0.07994(19)
O9 O 0.33817(18) 0.9034(3) 0.20828(14)
Cd3 Cd 0.36670(2) 0.84931(3) 0.34020(2)
C2 C 0.8451(2) 0.0747(4) 0.9575(2)
H1 H 0.8862 0.1055 0.9245
C3 C 0.7563(2) 0.0052(4) 0.92006(19)
O4 O 0.66183(18) 0.0966(3) 0.79172(14)
Cd5 Cd 0.63330(2) 0.15069(3) 0.65980(2)
C5 C 0.7264(3) 0.9813(5) 0.0545(2)
H2 H 0.6861 0.9467 0.0876
Br1 Br 0.57416(3) 0.87434(5) 0.91909(2)
C4 C 0.6973(2) 0.9626(4) 0.9696(2)
C8 C 0.7257(2) 0.9944(4) 0.8269(2)
O3 O 0.7700(2) 0.8974(4) 0.79152(16)
O6 O 0.98665(18) 0.7476(4) 0.96537(15)
O7 O 0.9976(2) 0.8195(4) 0.84161(16)
O10 O 0.9675(2) 0.4106(4) 0.87490(16)
H21 H 0.9490 0.3244 0.8310
H22 H 0.9619 0.3618 0.9271
O11 O 0.83817(18) 0.5966(3) 0.70828(14)
Br1_2 Br 0.92584(3) 0.37434(5) 0.58091(2)
C1 C 0.6253(3) 0.5998(5) 0.4575(2)
C2_2 C 0.6549(2) 0.5747(4) 0.5425(2)
H1_2 H 0.6138 0.6055 0.5755
C3_2 C 0.7437(2) 0.5052(4) 0.57994(19)
C4_2 C 0.8027(2) 0.4626(4) 0.5304(2)
C5_2 C 0.7736(3) 0.4813(5) 0.4455(2)
H2_2 H 0.8139 0.4467 0.4124
C6 C 0.6847(3) 0.5515(5) 0.4093(2)
H3 H 0.6642 0.5667 0.3511
C7 C 0.5310(3) 0.6835(5) 0.4204(2)
C8_2 C 0.7743(2) 0.4944(4) 0.6731(2)
C10_2 C 0.2912(3) 0.9337(5) 0.5007(2)
H5_2 H 0.3447 0.8759 0.5354
N1_2 N 0.2763(2) 0.9474(4) 0.41782(19)
O1_2 O 0.48665(18) 0.7524(4) 0.46537(15)
O2_2 O 0.4976(2) 0.6805(4) 0.34161(16)
O3_2 O 0.7300(2) 0.3974(4) 0.70848(16)
C16_2 C 0.0053(3) 0.9508(5) 0.5400(3)
H16_2 H 0.0644 0.8814 0.5514
Br2_2 Br 0.07416(3) 0.62566(5) 0.41909(2)
C17 C 0.3747(3) 0.4002(5) 0.5425(2)
C18_2 C 0.3451(2) 0.4253(4) 0.4575(2)
H18_2 H 0.3862 0.3945 0.4245
C19_2 C 0.2563(2) 0.4948(4) 0.42006(19)
C20_2 C 0.1973(2) 0.5374(4) 0.4696(2)
C21_2 C 0.2264(3) 0.5187(5) 0.5545(2)
H19_2 H 0.1861 0.5533 0.5876
C22 C 0.3153(3) 0.4485(5) 0.5907(2)
H20 H 0.3358 0.4333 0.6489
C23 C 0.4690(3) 0.3165(5) 0.5796(2)
C24_2 C 0.2257(2) 0.5056(4) 0.3269(2)
O6_2 O 0.51335(18) 0.2476(4) 0.53463(15)
O7_2 O 0.5024(2) 0.3195(4) 0.65839(16)
O8_2 O 0.2700(2) 0.6026(4) 0.29152(16)
N7 N 0.7237(2) 0.0526(4) 0.58218(19)
C12_2 C 0.9947(3) 0.0492(5) 0.4600(3)
H8_2 H 0.9356 0.1186 0.4486
C14_2 C 0.7088(3) 0.0663(5) 0.4993(2)
H13_2 H 0.6553 0.1241 0.4646
C17_2 C 0.1253(3) 0.9002(5) 0.9575(2)
C22_2 C 0.1847(3) 0.9485(5) 0.9093(2)
H20_2 H 0.1642 0.9333 0.8511
C23_2 C 0.0310(3) 0.8165(5) 0.9204(2)
C1_2 C 0.8747(3) 0.0998(5) 0.0425(2)
C6_2 C 0.8153(3) 0.0515(5) 0.0907(2)
H3_2 H 0.8358 0.0667 0.1489
C7_2 C 0.9690(3) 0.1835(5) 0.0796(2)
C9_2 C 0.1964(3) 0.0365(5) 0.3945(3)
H4_2 H 0.1660 0.0700 0.3393
C11_2 C 0.0787(3) 0.1675(5) 0.4617(4)
H6_2 H 0.0609 0.2460 0.4137
H7_2 H 0.0926 0.2380 0.5125
N2_2 N 0.2253(2) 0.0073(5) 0.5289(2)
N3_2 N 0.1652(2) 0.0722(4) 0.4593(2)
O5_2 O 0.4675(2) 0.0894(4) 0.37490(16)
H10_2 H 0.4490 0.1756 0.3310
H11_2 H 0.4619 0.1382 0.4271
H17_2 H 0.0125 0.0337 0.5859
O10_2 O 0.5325(2) 0.9106(4) 0.62510(16)
H21_2 H 0.5510 0.8244 0.6690
H22_2 H 0.5381 0.8618 0.5729
H9_2 H 0.9875 0.9663 0.4141
C13_2 C 0.8036(3) 0.9635(5) 0.6055(3)
H12_2 H 0.8340 0.9300 0.6607
C15_2 C 0.9213(3) 0.8325(5) 0.5383(4)
H14_2 H 0.9391 0.7540 0.5863
H15_2 H 0.9074 0.7620 0.4875
N5_2 N 0.7747(2) 0.9927(5) 0.4711(2)
N6_2 N 0.8348(2) 0.9278(4) 0.5407(2)
loop_
_geom_bond_atom_site_label_1
_geom_bond_atom_site_label_2
_geom_bond_site_symmetry_1
_geom_bond_site_symmetry_2
Cd1 N1 1_555 1_555
C9 H4 1_555 1_555
C11 H6 1_555 1_555
C12 C11 1_555 1_555
H8 C12 1_555 1_555
H9 C12 1_555 1_555
N1 C9 1_555 1_555
N3 C9 1_555 1_555
O1 Cd1 1_555 1_555
O2 Cd1 1_555 1_555
O5 Cd1 1_555 1_555
H10 O5 1_555 1_555
H11 O5 1_555 1_555
C14 H13 1_555 1_555
N5 C14 1_555 1_555
Br2 C20 1_555 1_555
O8 Cd1 1_555 1_555
O12 Cd1 1_555 1_555
C11 N3 1_555 1_555
C24 O8 1_555 1_555
C10 H5 1_555 1_555
N2 C10 1_555 1_555
C13 H12 1_555 1_555
C15 H14 1_555 1_555
H16 C16 1_555 1_555
H17 C16 1_555 1_555
N4 C13 1_555 1_555
N6 C13 1_555 1_555
H19 C21 1_555 1_555
Cd4 N4 1_555 1_555
C15 C16 1_555 1_555
C15 N6 1_555 1_555
C18 H18 1_555 1_555
C19 C18 1_555 1_555
Cd3 O9 1_555 1_555
C2 H1 1_555 1_555
C3 C2 1_555 1_555
Cd5 O4 1_555 1_555
H2 C5 1_555 1_555
Br1 C4 1_555 1_555
O3 C8 1_555 1_555
Cd4 O3 1_555 1_555
O6 Cd4 1_555 1_555
O7 Cd4 1_555 1_555
O10 Cd4 1_555 1_555
H21 O10 1_555 1_555
H22 O10 1_555 1_555
O11 Cd4 1_555 1_555
Cd3 N1_2 1_555 1_555
Br1_2 C4_2 1_555 1_555
C1 C2_2 1_555 1_555
C2_2 H1_2 1_555 1_555
C3_2 C2_2 1_555 1_555
C4_2 C3_2 1_555 1_555
C5_2 C4_2 1_555 1_555
H2_2 C5_2 1_555 1_555
C6 C1 1_555 1_555
H3 C6 1_555 1_555
C7 C1 1_555 1_555
C8_2 C3_2 1_555 1_555
C10_2 H5_2 1_555 1_555
O1_2 Cd3 1_555 1_555
O2_2 Cd3 1_555 1_555
O3_2 C8_2 1_555 1_555
O11 C8_2 1_555 1_555
H16_2 C16_2 1_555 1_555
Cd5 O3_2 1_555 1_555
Br2_2 C20_2 1_555 1_555
C17 C18_2 1_555 1_555
C18_2 H18_2 1_555 1_555
C19_2 C18_2 1_555 1_555
C20_2 C19_2 1_555 1_555
C21_2 C20_2 1_555 1_555
H19_2 C21_2 1_555 1_555
C22 C17 1_555 1_555
H20 C22 1_555 1_555
C23 C17 1_555 1_555
C24_2 C19_2 1_555 1_555
O6_2 Cd5 1_555 1_555
O7_2 Cd5 1_555 1_555
O8_2 Cd3 1_555 1_555
O12 C24_2 1_555 1_555
N7 Cd5 1_555 1_555
C5_2 C6 1_555 1_555
C7 O1_2 1_555 1_555
C7 O2_2 1_555 1_555
C10_2 N1_2 1_555 1_555
C21_2 C22 1_555 1_555
C23 O6_2 1_555 1_555
C23 O7_2 1_555 1_555
C24_2 O8_2 1_555 1_555
H8_2 C12_2 1_555 1_555
C14_2 H13_2 1_555 1_555
C14_2 N7 1_555 1_555
C22_2 C17_2 1_555 1_555
H20_2 C22_2 1_555 1_555
C23_2 C17_2 1_555 1_555
C6_2 C1_2 1_555 1_555
H3_2 C6_2 1_555 1_555
C7_2 C1_2 1_555 1_555
C9_2 H4_2 1_555 1_555
C11_2 H6_2 1_555 1_555
H7_2 C11_2 1_555 1_555
N3_2 C9_2 1_555 1_555
H10_2 O5_2 1_555 1_555
H11_2 O5_2 1_555 1_555
C11_2 N3_2 1_555 1_555
N2_2 N3_2 1_555 1_555
H21_2 O10_2 1_555 1_555
H22_2 O10_2 1_555 1_555
C13_2 H12_2 1_555 1_555
C15_2 H14_2 1_555 1_555
H15_2 C15_2 1_555 1_555
N6_2 C13_2 1_555 1_555
C15_2 N6_2 1_555 1_555
N5_2 N6_2 1_555 1_555

#END
