
###############################################################################
#
# This file contains modified crystal structure data generated from the
# MOF subset of the Cambridge Structural Database (CSD) v543 
# hosted by the Cambridge Crystallographic Data Centre (CCDC).
#
# This work is licensed under the Creative Commons
# Attribution-NonCommercial-ShareAlike 4.0 International License.
# To view a copy of this license, visit
# http://creativecommons.org/licenses/by-nc-sa/4.0/
# or send a letter to
# Creative Commons, PO Box 1866, Mountain View, CA 94042, USA.
#
# CIF created using the CSD Python API on 29 September 2022
# The structure has been converted into the P1 space group
# The structure has a 3D framework
# The original CSD entry UVUWAL is in the orthorhombic crystal system
# The framework has been calculated to contain at least 10.0% void space
# The void calculation uses a probe of radius 1.32A, grid spacing 0.4
#
###############################################################################

data_UVUWAL
_chemical_formula_moiety         '(C256 H144 N32 O64 S8 Zn16)n'
_symmetry_cell_setting           triclinic
_symmetry_space_group_name_H-M   'P 1'
_symmetry_Int_Tables_number      1
_space_group_name_Hall           'P 1'
loop_
_symmetry_equiv_pos_site_id
_symmetry_equiv_pos_as_xyz
1 x,y,z
_cell_length_a                   15.4556(7)
_cell_length_b                   18.3812(8)
_cell_length_c                   31.0901(13)
_cell_angle_alpha                90
_cell_angle_beta                 90
_cell_angle_gamma                90
_cell_volume                     8832.46
loop_
_atom_site_label
_atom_site_type_symbol
_atom_site_fract_x
_atom_site_fract_y
_atom_site_fract_z
Zn4 Zn 0.07349(2) 0.333549(18) 0.375789(10)
Zn7 Zn 0.07366(2) 0.174619(18) 0.374050(10)
Zn3 Zn 0.07349(2) 0.166451(18) 0.875789(10)
Zn6 Zn 0.07366(2) 0.325381(18) 0.874050(10)
C30 C 0.6475(3) 0.0253(2) 0.12473(13)
H16 H 0.6995 0.0495 0.1292
C31 C 0.5013(2) 0.02874(19) 0.11733(13)
H17 H 0.4500 0.0552 0.1171
N2 N 0.57518(16) 0.06428(15) 0.12372(8)
Zn5 Zn 0.57366(2) 0.174619(18) 0.125950(10)
C1 C 0.6830(2) 0.25757(18) 0.18784(10)
C2 C 0.7486(2) 0.25823(17) 0.22390(10)
C3 C 0.7798(2) 0.19310(18) 0.24084(10)
H1 H 0.7579 0.1491 0.2308
C4 C 0.8429(2) 0.19323(18) 0.27234(10)
H2 H 0.8631 0.1494 0.2833
C5 C 0.87622(19) 0.25854(17) 0.28771(10)
C6 C 0.8439(2) 0.32353(17) 0.27144(10)
H3 H 0.8649 0.3675 0.2819
C7 C 0.7807(2) 0.32337(18) 0.23988(10)
H4 H 0.7597 0.3673 0.2293
C8 C 0.9477(2) 0.25880(18) 0.32039(10)
C9 C 0.6976(2) 0.25250(18) 0.06930(10)
C10 C 0.7662(2) 0.25174(17) 0.03516(10)
C11 C 0.8027(2) 0.31600(18) 0.02098(10)
H5 H 0.7848 0.3600 0.0328
C15 C 0.7930(2) 0.18661(18) 0.01716(11)
H8 H 0.7685 0.1431 0.0264
C17 C 0.5919(2) 0.48620(17) 0.15239(10)
H9 H 0.6036 0.4641 0.1787
C18 C 0.5909(2) 0.56073(17) 0.15048(11)
H10 H 0.6013 0.5881 0.1751
C19 C 0.5739(2) 0.59558(17) 0.11108(10)
C20 C 0.5598(2) 0.55142(17) 0.07573(11)
H11 H 0.5488 0.5719 0.0489
C21 C 0.5622(2) 0.47646(17) 0.08059(11)
H12 H 0.5532 0.4475 0.0565
C22 C 0.5720(2) 0.67570(16) 0.10921(11)
C23 C 0.5162(2) 0.71523(16) 0.08122(10)
C24 C 0.5148(2) 0.79377(16) 0.08200(10)
C25 C 0.5710(2) 0.83333(16) 0.10969(11)
C26 C 0.6252(2) 0.79256(17) 0.13494(11)
H13 H 0.6636 0.8165 0.1531
C27 C 0.6251(2) 0.71624(17) 0.13466(11)
H14 H 0.6633 0.6921 0.1528
C28 C 0.5723(2) 0.91334(17) 0.11254(11)
C29 C 0.6494(3) 0.9513(2) 0.11952(14)
H15 H 0.7017 0.9264 0.1206
C32 C 0.4971(2) 0.95447(18) 0.11110(13)
H18 H 0.4441 0.9321 0.1060
N1 N 0.57689(17) 0.44389(14) 0.11832(8)
N3 N 0.46063(18) 0.68690(15) 0.05220(9)
N4 N 0.45811(18) 0.82250(15) 0.05369(9)
O1 O 0.65621(15) 0.31784(13) 0.17487(7)
O2 O 0.66241(14) 0.19668(13) 0.17289(7)
O3 O 0.97271(15) 0.31909(13) 0.33387(8)
O4 O 0.97839(15) 0.19777(13) 0.33034(7)
O5 O 0.67358(15) 0.31319(13) 0.08324(8)
O6 O 0.66778(16) 0.19234(13) 0.08122(8)
S1 S 0.41370(6) 0.75477(5) 0.02929(3)
Zn1 Zn 0.57349(2) 0.333549(18) 0.124211(10)
O9 O 0.47271(15) 0.31909(13) 0.16613(8)
O10 O 0.47839(15) 0.19777(13) 0.16966(7)
O11 O 0.48301(15) 0.19012(13) 0.07805(7)
O12 O 0.48962(15) 0.31126(13) 0.07440(7)
C12 C 0.8656(2) 0.31537(18) 0.98936(10)
H6 H 0.8900 0.3589 0.9802
C13 C 0.8926(2) 0.25016(16) 0.97124(10)
C14 C 0.8556(2) 0.18569(18) 0.98558(10)
H7 H 0.8732 0.1416 0.9738
C16 C 0.9601(2) 0.24936(17) 0.93647(10)
O7 O 0.98301(15) 0.30988(13) 0.92195(7)
O8 O 0.98962(15) 0.18874(13) 0.92560(7)
C12_2 C 0.3656(2) 0.18463(18) 0.01064(10)
H6_2 H 0.3900 0.1411 0.0198
C13_2 C 0.3926(2) 0.24984(16) 0.02876(10)
C14_2 C 0.3556(2) 0.31431(18) 0.01442(10)
H7_2 H 0.3732 0.3584 0.0262
C16_2 C 0.4601(2) 0.25064(17) 0.06353(10)
C1_2 C 0.1830(2) 0.24243(18) 0.81216(10)
C2_2 C 0.2486(2) 0.24177(17) 0.77610(10)
C3_2 C 0.2798(2) 0.30690(18) 0.75916(10)
H1_2 H 0.2579 0.3509 0.7692
C4_2 C 0.3429(2) 0.30677(18) 0.72766(10)
H2_2 H 0.3631 0.3506 0.7167
C5_2 C 0.37622(19) 0.24146(17) 0.71229(10)
C6_2 C 0.3439(2) 0.17647(17) 0.72856(10)
H3_2 H 0.3649 0.1325 0.7181
C7_2 C 0.2807(2) 0.17663(18) 0.76012(10)
H4_2 H 0.2597 0.1327 0.7707
C8_2 C 0.4477(2) 0.24120(18) 0.67961(10)
C9_2 C 0.1976(2) 0.24750(18) 0.93070(10)
C10_2 C 0.2662(2) 0.24826(17) 0.96484(10)
C11_2 C 0.3027(2) 0.18400(18) 0.97902(10)
H5_2 H 0.2848 0.1400 0.9672
C15_2 C 0.2930(2) 0.31339(18) 0.98284(11)
H8_2 H 0.2685 0.3569 0.9736
C17_2 C 0.0919(2) 0.01380(17) 0.84761(10)
H9_2 H 0.1036 0.0359 0.8213
C21_2 C 0.0622(2) 0.02354(17) 0.91941(11)
H12_2 H 0.0532 0.0525 0.9435
N1_2 N 0.07689(17) 0.05611(14) 0.88168(8)
O1_2 O 0.15621(15) 0.18216(13) 0.82513(7)
O2_2 O 0.16241(14) 0.30332(13) 0.82711(7)
O3_2 O 0.47271(15) 0.18091(13) 0.66613(8)
O4_2 O 0.47839(15) 0.30223(13) 0.66966(7)
O5_2 O 0.17358(15) 0.18681(13) 0.91676(8)
O6_2 O 0.16778(16) 0.30766(13) 0.91878(8)
N5 N 0.07518(16) 0.43572(15) 0.87628(8)
Zn4_2 Zn 0.57349(2) 0.166451(18) 0.624211(10)
Zn7_2 Zn 0.57366(2) 0.325381(18) 0.625950(10)
C18_2 C 0.0909(2) 0.93927(17) 0.84952(11)
H10_2 H 0.1013 0.9119 0.8249
C19_2 C 0.0739(2) 0.90442(17) 0.88892(10)
C20_2 C 0.0598(2) 0.94858(17) 0.92427(11)
H11_2 H 0.0488 0.9281 0.9511
C22_2 C 0.0720(2) 0.82430(16) 0.89079(11)
C23_2 C 0.0162(2) 0.78477(16) 0.91878(10)
C24_2 C 0.0148(2) 0.70623(16) 0.91800(10)
C25_2 C 0.0710(2) 0.66667(16) 0.89031(11)
C26_2 C 0.1252(2) 0.70744(17) 0.86506(11)
H13_2 H 0.1636 0.6835 0.8469
C27_2 C 0.1251(2) 0.78376(17) 0.86534(11)
H14_2 H 0.1633 0.8079 0.8472
C28_2 C 0.0723(2) 0.58666(17) 0.88746(11)
C29_2 C 0.1494(3) 0.5487(2) 0.88048(14)
H15_2 H 0.2017 0.5736 0.8794
C30_2 C 0.1475(3) 0.4747(2) 0.87527(13)
H16_2 H 0.1995 0.4505 0.8708
C31_2 C 0.0013(2) 0.47126(19) 0.88267(13)
O9_2 O 0.97271(15) 0.18091(13) 0.83387(8)
O10_2 O 0.97839(15) 0.30223(13) 0.83034(7)
C30_3 C 0.1475(3) 0.0253(2) 0.37527(13)
H16_3 H 0.1995 0.0495 0.3708
C31_3 C 0.0013(2) 0.02874(19) 0.38267(13)
N2_2 N 0.07518(16) 0.06428(15) 0.37628(8)
C1_3 C 0.1830(2) 0.25757(18) 0.31216(10)
C2_3 C 0.2486(2) 0.25823(17) 0.27610(10)
C3_3 C 0.2798(2) 0.19310(18) 0.25916(10)
H1_3 H 0.2579 0.1491 0.2692
C4_3 C 0.3429(2) 0.19323(18) 0.22766(10)
H2_3 H 0.3631 0.1494 0.2167
C5_3 C 0.37622(19) 0.25854(17) 0.21229(10)
C6_3 C 0.3439(2) 0.32353(17) 0.22856(10)
H3_3 H 0.3649 0.3675 0.2181
C7_3 C 0.2807(2) 0.32337(18) 0.26012(10)
H4_3 H 0.2597 0.3673 0.2707
C8_3 C 0.4477(2) 0.25880(18) 0.17961(10)
C9_3 C 0.1976(2) 0.25250(18) 0.43070(10)
C10_3 C 0.2662(2) 0.25174(17) 0.46484(10)
C11_3 C 0.3027(2) 0.31600(18) 0.47902(10)
H5_3 H 0.2848 0.3600 0.4672
C12_3 C 0.3656(2) 0.31537(18) 0.51064(10)
H6_3 H 0.3900 0.3589 0.5198
C13_3 C 0.3926(2) 0.25016(16) 0.52876(10)
C14_3 C 0.3556(2) 0.18569(18) 0.51442(10)
H7_3 H 0.3732 0.1416 0.5262
C15_3 C 0.2930(2) 0.18661(18) 0.48284(11)
H8_3 H 0.2685 0.1431 0.4736
C16_3 C 0.4601(2) 0.24936(17) 0.56353(10)
C17_3 C 0.0919(2) 0.48620(17) 0.34761(10)
H9_3 H 0.1036 0.4641 0.3213
C18_3 C 0.0909(2) 0.56073(17) 0.34952(11)
H10_3 H 0.1013 0.5881 0.3249
C19_3 C 0.0739(2) 0.59558(17) 0.38892(10)
C20_3 C 0.0598(2) 0.55142(17) 0.42427(11)
H11_3 H 0.0488 0.5719 0.4511
C21_3 C 0.0622(2) 0.47646(17) 0.41941(11)
H12_3 H 0.0532 0.4475 0.4435
C22_3 C 0.0720(2) 0.67570(16) 0.39079(11)
C23_3 C 0.0162(2) 0.71523(16) 0.41878(10)
C24_3 C 0.0148(2) 0.79377(16) 0.41800(10)
C25_3 C 0.0710(2) 0.83333(16) 0.39031(11)
C26_3 C 0.1252(2) 0.79256(17) 0.36506(11)
H13_3 H 0.1636 0.8165 0.3469
C27_3 C 0.1251(2) 0.71624(17) 0.36534(11)
H14_3 H 0.1633 0.6921 0.3472
C28_3 C 0.0723(2) 0.91334(17) 0.38746(11)
C29_3 C 0.1494(3) 0.9513(2) 0.38048(14)
H15_3 H 0.2017 0.9264 0.3794
N1_3 N 0.07689(17) 0.44389(14) 0.38168(8)
O1_3 O 0.15621(15) 0.31784(13) 0.32513(7)
O2_3 O 0.16241(14) 0.19668(13) 0.32711(7)
O5_3 O 0.17358(15) 0.31319(13) 0.41676(8)
O6_3 O 0.16778(16) 0.19234(13) 0.41878(8)
O7_2 O 0.48301(15) 0.30988(13) 0.57805(7)
O8_2 O 0.48962(15) 0.18874(13) 0.57440(7)
C32_2 C 0.9971(2) 0.95447(18) 0.38890(13)
H18_2 H 0.9441 0.9321 0.3940
N3_2 N 0.96063(18) 0.68690(15) 0.44780(9)
N4_2 N 0.95811(18) 0.82250(15) 0.44631(9)
S1_2 S 0.91370(6) 0.75477(5) 0.47071(3)
O11_2 O 0.98301(15) 0.19012(13) 0.42195(7)
O12_2 O 0.98962(15) 0.31126(13) 0.42560(7)
C1_4 C 0.6830(2) 0.24243(18) 0.68784(10)
C2_4 C 0.7486(2) 0.24177(17) 0.72390(10)
C3_4 C 0.7798(2) 0.30690(18) 0.74084(10)
H1_4 H 0.7579 0.3509 0.7308
C4_4 C 0.8429(2) 0.30677(18) 0.77234(10)
H2_4 H 0.8631 0.3506 0.7833
C5_4 C 0.87622(19) 0.24146(17) 0.78771(10)
C6_4 C 0.8439(2) 0.17647(17) 0.77144(10)
H3_4 H 0.8649 0.1325 0.7819
C7_4 C 0.7807(2) 0.17663(18) 0.73988(10)
H4_4 H 0.7597 0.1327 0.7293
C8_4 C 0.9477(2) 0.24120(18) 0.82039(10)
C9_4 C 0.6976(2) 0.24750(18) 0.56930(10)
C10_4 C 0.7662(2) 0.24826(17) 0.53516(10)
C11_4 C 0.8027(2) 0.18400(18) 0.52098(10)
H5_4 H 0.7848 0.1400 0.5328
C12_4 C 0.8656(2) 0.18463(18) 0.48936(10)
H6_4 H 0.8900 0.1411 0.4802
C13_4 C 0.8926(2) 0.24984(16) 0.47124(10)
C14_4 C 0.8556(2) 0.31431(18) 0.48558(10)
H7_4 H 0.8732 0.3584 0.4738
C15_4 C 0.7930(2) 0.31339(18) 0.51716(11)
H8_4 H 0.7685 0.3569 0.5264
C16_4 C 0.9601(2) 0.25064(17) 0.43647(10)
C17_4 C 0.5919(2) 0.01380(17) 0.65239(10)
H9_4 H 0.6036 0.0359 0.6787
C21_4 C 0.5622(2) 0.02354(17) 0.58059(11)
H12_4 H 0.5532 0.0525 0.5565
N1_4 N 0.57689(17) 0.05611(14) 0.61832(8)
O1_4 O 0.65621(15) 0.18216(13) 0.67487(7)
O2_4 O 0.66241(14) 0.30332(13) 0.67289(7)
O5_4 O 0.67358(15) 0.18681(13) 0.58324(8)
O6_4 O 0.66778(16) 0.30766(13) 0.58122(8)
N5_2 N 0.57518(16) 0.43572(15) 0.62372(8)
C18_4 C 0.5909(2) 0.93927(17) 0.65048(11)
H10_4 H 0.6013 0.9119 0.6751
C19_4 C 0.5739(2) 0.90442(17) 0.61108(10)
C20_4 C 0.5598(2) 0.94858(17) 0.57573(11)
H11_4 H 0.5488 0.9281 0.5489
C22_4 C 0.5720(2) 0.82430(16) 0.60921(11)
C23_4 C 0.5162(2) 0.78477(16) 0.58122(10)
C24_4 C 0.5148(2) 0.70623(16) 0.58200(10)
C25_4 C 0.5710(2) 0.66667(16) 0.60969(11)
C26_4 C 0.6252(2) 0.70744(17) 0.63494(11)
H13_4 H 0.6636 0.6835 0.6531
C27_4 C 0.6251(2) 0.78376(17) 0.63466(11)
H14_4 H 0.6633 0.8079 0.6528
C28_4 C 0.5723(2) 0.58666(17) 0.61254(11)
C29_4 C 0.6494(3) 0.5487(2) 0.61952(14)
H15_4 H 0.7017 0.5736 0.6206
C30_4 C 0.6475(3) 0.4747(2) 0.62473(13)
H16_4 H 0.6995 0.4505 0.6292
C31_4 C 0.5013(2) 0.47126(19) 0.61733(13)
H17_2 H 0.4500 0.4448 0.6171
C32_3 C 0.4971(2) 0.54553(18) 0.61110(13)
H18_3 H 0.4441 0.5679 0.6060
N3_3 N 0.46063(18) 0.81310(15) 0.55220(9)
N4_3 N 0.45811(18) 0.67750(15) 0.55369(9)
S1_3 S 0.41370(6) 0.74523(5) 0.52929(3)
C32_4 C 0.0029(2) 0.04553(18) 0.61110(13)
H18_4 H 0.0559 0.0679 0.6060
N3_4 N 0.03937(18) 0.31310(15) 0.55220(9)
N4_4 N 0.04189(18) 0.17750(15) 0.55369(9)
S1_4 S 0.08630(6) 0.24523(5) 0.52929(3)
O9_3 O 0.02729(15) 0.68091(13) 0.66613(8)
O10_3 O 0.02161(15) 0.80223(13) 0.66966(7)
O11_3 O 0.01699(15) 0.80988(13) 0.57805(7)
O12_3 O 0.01038(15) 0.68874(13) 0.57440(7)
C1_5 C 0.8170(2) 0.74243(18) 0.68784(10)
C2_5 C 0.7514(2) 0.74177(17) 0.72390(10)
C3_5 C 0.7202(2) 0.80690(18) 0.74084(10)
H1_5 H 0.7421 0.8509 0.7308
C4_5 C 0.6571(2) 0.80677(18) 0.77234(10)
H2_5 H 0.6369 0.8506 0.7833
C5_5 C 0.62378(19) 0.74146(17) 0.78771(10)
C6_5 C 0.6561(2) 0.67647(17) 0.77144(10)
H3_5 H 0.6351 0.6325 0.7819
C7_5 C 0.7193(2) 0.67663(18) 0.73988(10)
H4_5 H 0.7403 0.6327 0.7293
C8_5 C 0.5523(2) 0.74120(18) 0.82039(10)
C9_5 C 0.8024(2) 0.74750(18) 0.56930(10)
C10_5 C 0.7338(2) 0.74826(17) 0.53516(10)
C11_5 C 0.6973(2) 0.68400(18) 0.52098(10)
H5_5 H 0.7152 0.6400 0.5328
C12_5 C 0.6344(2) 0.68463(18) 0.48936(10)
H6_5 H 0.6100 0.6411 0.4802
C13_5 C 0.6074(2) 0.74984(16) 0.47124(10)
C14_5 C 0.6444(2) 0.81431(18) 0.48558(10)
H7_5 H 0.6268 0.8584 0.4738
C15_5 C 0.7070(2) 0.81339(18) 0.51716(11)
H8_5 H 0.7315 0.8569 0.5264
C16_5 C 0.5399(2) 0.75064(17) 0.43647(10)
C17_5 C 0.9081(2) 0.51380(17) 0.65239(10)
H9_5 H 0.8964 0.5359 0.6787
C18_5 C 0.9091(2) 0.43927(17) 0.65048(11)
H10_5 H 0.8987 0.4119 0.6751
C19_5 C 0.9261(2) 0.40442(17) 0.61108(10)
C20_5 C 0.9402(2) 0.44858(17) 0.57573(11)
H11_5 H 0.9512 0.4281 0.5489
C21_5 C 0.9378(2) 0.52354(17) 0.58059(11)
H12_5 H 0.9468 0.5525 0.5565
C22_5 C 0.9280(2) 0.32430(16) 0.60921(11)
C23_5 C 0.9838(2) 0.28477(16) 0.58122(10)
C24_5 C 0.9852(2) 0.20623(16) 0.58200(10)
C25_5 C 0.9290(2) 0.16667(16) 0.60969(11)
C26_5 C 0.8748(2) 0.20744(17) 0.63494(11)
H13_5 H 0.8364 0.1835 0.6531
C27_5 C 0.8749(2) 0.28376(17) 0.63466(11)
H14_5 H 0.8367 0.3079 0.6528
C28_5 C 0.9277(2) 0.08666(17) 0.61254(11)
C29_5 C 0.8506(3) 0.0487(2) 0.61952(14)
H15_5 H 0.7983 0.0736 0.6206
N1_5 N 0.92311(17) 0.55611(14) 0.61832(8)
O1_5 O 0.84379(15) 0.68216(13) 0.67487(7)
O2_5 O 0.83759(14) 0.80332(13) 0.67289(7)
O3_3 O 0.52729(15) 0.68091(13) 0.83387(8)
O4_3 O 0.52161(15) 0.80223(13) 0.83034(7)
O5_5 O 0.82642(15) 0.68681(13) 0.58324(8)
O6_5 O 0.83222(16) 0.80766(13) 0.58122(8)
O7_3 O 0.51699(15) 0.69012(13) 0.42195(7)
O8_3 O 0.51038(15) 0.81126(13) 0.42560(7)
Zn1_2 Zn 0.92651(2) 0.666451(18) 0.624211(10)
Zn2 Zn 0.92634(2) 0.825381(18) 0.625950(10)
N5_3 N 0.92482(16) 0.93572(15) 0.62372(8)
Zn3_2 Zn 0.42651(2) 0.833549(18) 0.375789(10)
Zn4_3 Zn 0.42651(2) 0.666451(18) 0.875789(10)
Zn6_2 Zn 0.42634(2) 0.674619(18) 0.374050(10)
Zn7_3 Zn 0.42634(2) 0.825381(18) 0.874050(10)
C30_5 C 0.8525(3) 0.9747(2) 0.62473(13)
H16_5 H 0.8005 0.9505 0.6292
C31_5 C 0.9987(2) 0.97126(19) 0.61733(13)
C18_6 C 0.4091(2) 0.06073(17) 0.34952(11)
H10_6 H 0.3987 0.0881 0.3249
C19_6 C 0.4261(2) 0.09558(17) 0.38892(10)
C20_6 C 0.4402(2) 0.05142(17) 0.42427(11)
H11_6 H 0.4512 0.0719 0.4511
C22_6 C 0.4280(2) 0.17570(16) 0.39079(11)
C23_6 C 0.4838(2) 0.21523(16) 0.41878(10)
C24_6 C 0.4852(2) 0.29377(16) 0.41800(10)
C25_6 C 0.4290(2) 0.33333(16) 0.39031(11)
C26_6 C 0.3748(2) 0.29256(17) 0.36506(11)
H13_6 H 0.3364 0.3165 0.3469
C27_6 C 0.3749(2) 0.21624(17) 0.36534(11)
H14_6 H 0.3367 0.1921 0.3472
C28_6 C 0.4277(2) 0.41334(17) 0.38746(11)
C29_6 C 0.3506(3) 0.4513(2) 0.38048(14)
H15_6 H 0.2983 0.4264 0.3794
C30_6 C 0.3525(3) 0.5253(2) 0.37527(13)
H16_6 H 0.3005 0.5495 0.3708
C31_6 C 0.4987(2) 0.52874(19) 0.38267(13)
H17_3 H 0.5500 0.5552 0.3829
C32_5 C 0.5029(2) 0.45447(18) 0.38890(13)
H18_5 H 0.5559 0.4321 0.3940
N2_3 N 0.42482(16) 0.56428(15) 0.37628(8)
N3_5 N 0.53937(18) 0.18690(15) 0.44780(9)
N4_5 N 0.54189(18) 0.32250(15) 0.44631(9)
S1_5 S 0.58630(6) 0.25477(5) 0.47071(3)
C1_6 C 0.3170(2) 0.75757(18) 0.31216(10)
C2_6 C 0.2514(2) 0.75823(17) 0.27610(10)
C3_6 C 0.2202(2) 0.69310(18) 0.25916(10)
H1_6 H 0.2421 0.6491 0.2692
C4_6 C 0.1571(2) 0.69323(18) 0.22766(10)
H2_6 H 0.1369 0.6494 0.2167
C5_6 C 0.12378(19) 0.75854(17) 0.21229(10)
C6_6 C 0.1561(2) 0.82353(17) 0.22856(10)
H3_6 H 0.1351 0.8675 0.2181
C7_6 C 0.2193(2) 0.82337(18) 0.26012(10)
H4_6 H 0.2403 0.8673 0.2707
C8_6 C 0.0523(2) 0.75880(18) 0.17961(10)
C9_6 C 0.3024(2) 0.75250(18) 0.43070(10)
C10_6 C 0.2338(2) 0.75174(17) 0.46484(10)
C11_6 C 0.1973(2) 0.81600(18) 0.47902(10)
H5_6 H 0.2152 0.8600 0.4672
C12_6 C 0.1344(2) 0.81537(18) 0.51064(10)
H6_6 H 0.1100 0.8589 0.5198
C13_6 C 0.1074(2) 0.75016(16) 0.52876(10)
C14_6 C 0.1444(2) 0.68569(18) 0.51442(10)
H7_6 H 0.1268 0.6416 0.5262
C15_6 C 0.2070(2) 0.68661(18) 0.48284(11)
H8_6 H 0.2315 0.6431 0.4736
C16_6 C 0.0399(2) 0.74936(17) 0.56353(10)
C17_6 C 0.4081(2) 0.98620(17) 0.34761(10)
H9_6 H 0.3964 0.9641 0.3213
C21_6 C 0.4378(2) 0.97646(17) 0.41941(11)
H12_6 H 0.4468 0.9475 0.4435
N1_6 N 0.42311(17) 0.94389(14) 0.38168(8)
O1_6 O 0.34379(15) 0.81784(13) 0.32513(7)
O2_6 O 0.33759(14) 0.69668(13) 0.32711(7)
O3_4 O 0.02729(15) 0.81909(13) 0.16613(8)
O4_4 O 0.02161(15) 0.69777(13) 0.16966(7)
O5_6 O 0.32642(15) 0.81319(13) 0.41676(8)
O6_6 O 0.33222(16) 0.69234(13) 0.41878(8)
O9_4 O 0.52729(15) 0.81909(13) 0.33387(8)
O10_4 O 0.52161(15) 0.69777(13) 0.33034(7)
Zn4_4 Zn 0.92651(2) 0.833549(18) 0.124211(10)
Zn7_4 Zn 0.92634(2) 0.674619(18) 0.125950(10)
C12_7 C 0.1344(2) 0.68463(18) 0.01064(10)
H6_7 H 0.1100 0.6411 0.0198
C13_7 C 0.1074(2) 0.74984(16) 0.02876(10)
C14_7 C 0.1444(2) 0.81431(18) 0.01442(10)
H7_7 H 0.1268 0.8584 0.0262
C16_7 C 0.0399(2) 0.75064(17) 0.06353(10)
O7_4 O 0.01699(15) 0.69012(13) 0.07805(7)
O8_4 O 0.01038(15) 0.81126(13) 0.07440(7)
C1_7 C 0.3170(2) 0.74243(18) 0.81216(10)
C2_7 C 0.2514(2) 0.74177(17) 0.77610(10)
C3_7 C 0.2202(2) 0.80690(18) 0.75916(10)
H1_7 H 0.2421 0.8509 0.7692
C4_7 C 0.1571(2) 0.80677(18) 0.72766(10)
H2_7 H 0.1369 0.8506 0.7167
C5_7 C 0.12378(19) 0.74146(17) 0.71229(10)
C6_7 C 0.1561(2) 0.67647(17) 0.72856(10)
H3_7 H 0.1351 0.6325 0.7181
C7_7 C 0.2193(2) 0.67663(18) 0.76012(10)
H4_7 H 0.2403 0.6327 0.7707
C8_7 C 0.0523(2) 0.74120(18) 0.67961(10)
C9_7 C 0.3024(2) 0.74750(18) 0.93070(10)
C10_7 C 0.2338(2) 0.74826(17) 0.96484(10)
C11_7 C 0.1973(2) 0.68400(18) 0.97902(10)
H5_7 H 0.2152 0.6400 0.9672
C15_7 C 0.2070(2) 0.81339(18) 0.98284(11)
H8_7 H 0.2315 0.8569 0.9736
C17_7 C 0.4081(2) 0.51380(17) 0.84761(10)
H9_7 H 0.3964 0.5359 0.8213
C18_7 C 0.4091(2) 0.43927(17) 0.84952(11)
H10_7 H 0.3987 0.4119 0.8249
C19_7 C 0.4261(2) 0.40442(17) 0.88892(10)
C20_7 C 0.4402(2) 0.44858(17) 0.92427(11)
H11_7 H 0.4512 0.4281 0.9511
C21_7 C 0.4378(2) 0.52354(17) 0.91941(11)
H12_7 H 0.4468 0.5525 0.9435
C22_7 C 0.4280(2) 0.32430(16) 0.89079(11)
C23_7 C 0.4838(2) 0.28477(16) 0.91878(10)
C24_7 C 0.4852(2) 0.20623(16) 0.91800(10)
C25_7 C 0.4290(2) 0.16667(16) 0.89031(11)
C26_7 C 0.3748(2) 0.20744(17) 0.86506(11)
H13_7 H 0.3364 0.1835 0.8469
C27_7 C 0.3749(2) 0.28376(17) 0.86534(11)
H14_7 H 0.3367 0.3079 0.8472
C28_7 C 0.4277(2) 0.08666(17) 0.88746(11)
C29_7 C 0.3506(3) 0.0487(2) 0.88048(14)
H15_7 H 0.2983 0.0736 0.8794
C32_6 C 0.5029(2) 0.04553(18) 0.88890(13)
H18_6 H 0.5559 0.0679 0.8940
N1_7 N 0.42311(17) 0.55611(14) 0.88168(8)
N3_6 N 0.53937(18) 0.31310(15) 0.94780(9)
N4_6 N 0.54189(18) 0.17750(15) 0.94631(9)
O1_7 O 0.34379(15) 0.68216(13) 0.82513(7)
O2_7 O 0.33759(14) 0.80332(13) 0.82711(7)
O5_7 O 0.32642(15) 0.68681(13) 0.91676(8)
O6_7 O 0.33222(16) 0.80766(13) 0.91878(8)
S1_6 S 0.58630(6) 0.24523(5) 0.97071(3)
N5_4 N 0.42482(16) 0.93572(15) 0.87628(8)
O11_4 O 0.51699(15) 0.80988(13) 0.92195(7)
O12_4 O 0.51038(15) 0.68874(13) 0.92560(7)
C30_7 C 0.3525(3) 0.9747(2) 0.87527(13)
H16_7 H 0.3005 0.9505 0.8708
C31_7 C 0.4987(2) 0.97126(19) 0.88267(13)
H17_4 H 0.5500 0.9448 0.8829
C18_8 C 0.9091(2) 0.06073(17) 0.15048(11)
H10_8 H 0.8987 0.0881 0.1751
C19_8 C 0.9261(2) 0.09558(17) 0.11108(10)
C20_8 C 0.9402(2) 0.05142(17) 0.07573(11)
H11_8 H 0.9512 0.0719 0.0489
C22_8 C 0.9280(2) 0.17570(16) 0.10921(11)
C23_8 C 0.9838(2) 0.21523(16) 0.08122(10)
C24_8 C 0.9852(2) 0.29377(16) 0.08200(10)
C25_8 C 0.9290(2) 0.33333(16) 0.10969(11)
C26_8 C 0.8748(2) 0.29256(17) 0.13494(11)
H13_8 H 0.8364 0.3165 0.1531
C27_8 C 0.8749(2) 0.21624(17) 0.13466(11)
H14_8 H 0.8367 0.1921 0.1528
C28_8 C 0.9277(2) 0.41334(17) 0.11254(11)
C29_8 C 0.8506(3) 0.4513(2) 0.11952(14)
H15_8 H 0.7983 0.4264 0.1206
C30_8 C 0.8525(3) 0.5253(2) 0.12473(13)
H16_8 H 0.8005 0.5495 0.1292
C31_8 C 0.9987(2) 0.52874(19) 0.11733(13)
N2_4 N 0.92482(16) 0.56428(15) 0.12372(8)
C1_8 C 0.8170(2) 0.75757(18) 0.18784(10)
C2_8 C 0.7514(2) 0.75823(17) 0.22390(10)
C3_8 C 0.7202(2) 0.69310(18) 0.24084(10)
H1_8 H 0.7421 0.6491 0.2308
C4_8 C 0.6571(2) 0.69323(18) 0.27234(10)
H2_8 H 0.6369 0.6494 0.2833
C5_8 C 0.62378(19) 0.75854(17) 0.28771(10)
C6_8 C 0.6561(2) 0.82353(17) 0.27144(10)
H3_8 H 0.6351 0.8675 0.2819
C7_8 C 0.7193(2) 0.82337(18) 0.23988(10)
H4_8 H 0.7403 0.8673 0.2293
C8_8 C 0.5523(2) 0.75880(18) 0.32039(10)
C9_8 C 0.8024(2) 0.75250(18) 0.06930(10)
C10_8 C 0.7338(2) 0.75174(17) 0.03516(10)
C11_8 C 0.6973(2) 0.81600(18) 0.02098(10)
H5_8 H 0.7152 0.8600 0.0328
C15_8 C 0.7070(2) 0.68661(18) 0.01716(11)
H8_8 H 0.7315 0.6431 0.0264
C17_8 C 0.9081(2) 0.98620(17) 0.15239(10)
H9_8 H 0.8964 0.9641 0.1787
C21_8 C 0.9378(2) 0.97646(17) 0.08059(11)
H12_8 H 0.9468 0.9475 0.0565
N1_8 N 0.92311(17) 0.94389(14) 0.11832(8)
O1_8 O 0.84379(15) 0.81784(13) 0.17487(7)
O2_8 O 0.83759(14) 0.69668(13) 0.17289(7)
O5_8 O 0.82642(15) 0.81319(13) 0.08324(8)
O6_8 O 0.83222(16) 0.69234(13) 0.08122(8)
C12_8 C 0.6344(2) 0.81537(18) 0.98936(10)
H6_8 H 0.6100 0.8589 0.9802
C13_8 C 0.6074(2) 0.75016(16) 0.97124(10)
C14_8 C 0.6444(2) 0.68569(18) 0.98558(10)
H7_8 H 0.6268 0.6416 0.9738
C16_8 C 0.5399(2) 0.74936(17) 0.93647(10)
H17_5 H 0.0500 0.9448 0.6171
H17_6 H 0.9500 0.4448 0.8829
C32_7 C 0.9971(2) 0.54553(18) 0.88890(13)
H18_7 H 0.9441 0.5679 0.8940
N3_7 N 0.96063(18) 0.81310(15) 0.94780(9)
N4_7 N 0.95811(18) 0.67750(15) 0.94631(9)
S1_7 S 0.91370(6) 0.74523(5) 0.97071(3)
H17_7 H 0.9500 0.0552 0.3829
H17_8 H 0.0500 0.5552 0.1171
C32_8 C 0.0029(2) 0.45447(18) 0.11110(13)
H18_8 H 0.0559 0.4321 0.1060
N3_8 N 0.03937(18) 0.18690(15) 0.05220(9)
N4_8 N 0.04189(18) 0.32250(15) 0.05369(9)
S1_8 S 0.08630(6) 0.25477(5) 0.02929(3)
loop_
_geom_bond_atom_site_label_1
_geom_bond_atom_site_label_2
_geom_bond_site_symmetry_1
_geom_bond_site_symmetry_2
H16 C30 1_555 1_555
C31 H17 1_555 1_555
N2 C30 1_555 1_555
Zn5 N2 1_555 1_555
C31 N2 1_555 1_555
C1 C2 1_555 1_555
C2 C3 1_555 1_555
C3 H1 1_555 1_555
C4 C3 1_555 1_555
H2 C4 1_555 1_555
C5 C4 1_555 1_555
C6 C5 1_555 1_555
H3 C6 1_555 1_555
C7 C2 1_555 1_555
H4 C7 1_555 1_555
C8 C5 1_555 1_555
C9 C10 1_555 1_555
C10 C11 1_555 1_555
C11 H5 1_555 1_555
C15 C10 1_555 1_555
H8 C15 1_555 1_555
C17 H9 1_555 1_555
C18 C17 1_555 1_555
H10 C18 1_555 1_555
C19 C18 1_555 1_555
C20 C19 1_555 1_555
H11 C20 1_555 1_555
C21 C20 1_555 1_555
H12 C21 1_555 1_555
C22 C19 1_555 1_555
C23 C22 1_555 1_555
C24 C23 1_555 1_555
C25 C24 1_555 1_555
C26 C25 1_555 1_555
H13 C26 1_555 1_555
C27 C22 1_555 1_555
H14 C27 1_555 1_555
C28 C25 1_555 1_555
C29 C28 1_555 1_555
H15 C29 1_555 1_555
C32 C28 1_555 1_555
H18 C32 1_555 1_555
N1 C17 1_555 1_555
N3 C23 1_555 1_555
N4 C24 1_555 1_555
O1 C1 1_555 1_555
O2 C1 1_555 1_555
O3 C8 1_555 1_555
O4 C8 1_555 1_555
O5 C9 1_555 1_555
O6 C9 1_555 1_555
S1 N3 1_555 1_555
Zn1 N1 1_555 1_555
Zn5 O2 1_555 1_555
O9 Zn1 1_555 1_555
O10 Zn5 1_555 1_555
O11 Zn5 1_555 1_555
O12 Zn1 1_555 1_555
C6 C7 1_555 1_555
C21 N1 1_555 1_555
C26 C27 1_555 1_555
N4 S1 1_555 1_555
O1 Zn1 1_555 1_555
O5 Zn1 1_555 1_555
O6 Zn5 1_555 1_555
H6 C12 1_555 1_555
C13 C12 1_555 1_555
C14 C13 1_555 1_555
H7 C14 1_555 1_555
C16 C13 1_555 1_555
O7 C16 1_555 1_555
O8 C16 1_555 1_555
H6_2 C12_2 1_555 1_555
C13_2 C12_2 1_555 1_555
C14_2 C13_2 1_555 1_555
H7_2 C14_2 1_555 1_555
C16_2 C13_2 1_555 1_555
O11 C16_2 1_555 1_555
O12 C16_2 1_555 1_555
C1_2 C2_2 1_555 1_555
C2_2 C3_2 1_555 1_555
C3_2 H1_2 1_555 1_555
C4_2 C3_2 1_555 1_555
H2_2 C4_2 1_555 1_555
C5_2 C4_2 1_555 1_555
C6_2 C5_2 1_555 1_555
H3_2 C6_2 1_555 1_555
C7_2 C2_2 1_555 1_555
H4_2 C7_2 1_555 1_555
C8_2 C5_2 1_555 1_555
C9_2 C10_2 1_555 1_555
C10_2 C11_2 1_555 1_555
C11_2 H5_2 1_555 1_555
C15_2 C10_2 1_555 1_555
H8_2 C15_2 1_555 1_555
C17_2 H9_2 1_555 1_555
H12_2 C21_2 1_555 1_555
N1_2 C17_2 1_555 1_555
O1_2 C1_2 1_555 1_555
O2_2 C1_2 1_555 1_555
O3_2 C8_2 1_555 1_555
O4_2 C8_2 1_555 1_555
O5_2 C9_2 1_555 1_555
O6_2 C9_2 1_555 1_555
Zn3 N1_2 1_555 1_555
Zn6 O2_2 1_555 1_555
N5 Zn6 1_555 1_555
Zn4_2 O3_2 1_555 1_555
Zn7_2 O4_2 1_555 1_555
C6_2 C7_2 1_555 1_555
C21_2 N1_2 1_555 1_555
O1_2 Zn3 1_555 1_555
O5_2 Zn3 1_555 1_555
O6_2 Zn6 1_555 1_555
H10_2 C18_2 1_555 1_555
C19_2 C18_2 1_555 1_555
C20_2 C19_2 1_555 1_555
H11_2 C20_2 1_555 1_555
C22_2 C19_2 1_555 1_555
C23_2 C22_2 1_555 1_555
C24_2 C23_2 1_555 1_555
C25_2 C24_2 1_555 1_555
C26_2 C25_2 1_555 1_555
H13_2 C26_2 1_555 1_555
C27_2 C22_2 1_555 1_555
H14_2 C27_2 1_555 1_555
C28_2 C25_2 1_555 1_555
C29_2 C28_2 1_555 1_555
H15_2 C29_2 1_555 1_555
C30_2 C29_2 1_555 1_555
H16_2 C30_2 1_555 1_555
N5 C30_2 1_555 1_555
C26_2 C27_2 1_555 1_555
C31_2 N5 1_555 1_555
H16_3 C30_3 1_555 1_555
N2_2 C30_3 1_555 1_555
Zn7 N2_2 1_555 1_555
C31_3 N2_2 1_555 1_555
C1_3 C2_3 1_555 1_555
C2_3 C3_3 1_555 1_555
C3_3 H1_3 1_555 1_555
C4_3 C3_3 1_555 1_555
H2_3 C4_3 1_555 1_555
C5_3 C4_3 1_555 1_555
C6_3 C5_3 1_555 1_555
H3_3 C6_3 1_555 1_555
C7_3 C2_3 1_555 1_555
H4_3 C7_3 1_555 1_555
C8_3 C5_3 1_555 1_555
C9_3 C10_3 1_555 1_555
C10_3 C11_3 1_555 1_555
C11_3 H5_3 1_555 1_555
C12_3 C11_3 1_555 1_555
H6_3 C12_3 1_555 1_555
C13_3 C12_3 1_555 1_555
C14_3 C13_3 1_555 1_555
H7_3 C14_3 1_555 1_555
C15_3 C10_3 1_555 1_555
H8_3 C15_3 1_555 1_555
C16_3 C13_3 1_555 1_555
C17_3 H9_3 1_555 1_555
C18_3 C17_3 1_555 1_555
H10_3 C18_3 1_555 1_555
C19_3 C18_3 1_555 1_555
C20_3 C19_3 1_555 1_555
H11_3 C20_3 1_555 1_555
C21_3 C20_3 1_555 1_555
H12_3 C21_3 1_555 1_555
C22_3 C19_3 1_555 1_555
C23_3 C22_3 1_555 1_555
C24_3 C23_3 1_555 1_555
C25_3 C24_3 1_555 1_555
C26_3 C25_3 1_555 1_555
H13_3 C26_3 1_555 1_555
C27_3 C22_3 1_555 1_555
H14_3 C27_3 1_555 1_555
C28_3 C25_3 1_555 1_555
C29_3 C28_3 1_555 1_555
H15_3 C29_3 1_555 1_555
N1_3 C17_3 1_555 1_555
O1_3 C1_3 1_555 1_555
O2_3 C1_3 1_555 1_555
O9 C8_3 1_555 1_555
O10 C8_3 1_555 1_555
O5_3 C9_3 1_555 1_555
O6_3 C9_3 1_555 1_555
O7_2 C16_3 1_555 1_555
O8_2 C16_3 1_555 1_555
Zn4 N1_3 1_555 1_555
Zn7 O2_3 1_555 1_555
Zn4_2 O8_2 1_555 1_555
Zn7_2 O7_2 1_555 1_555
C6_3 C7_3 1_555 1_555
C14_3 C15_3 1_555 1_555
C21_3 N1_3 1_555 1_555
C26_3 C27_3 1_555 1_555
O1_3 Zn4 1_555 1_555
O5_3 Zn4 1_555 1_555
O6_3 Zn7 1_555 1_555
H18_2 C32_2 1_555 1_555
S1_2 N3_2 1_555 1_555
N4_2 S1_2 1_555 1_555
C1_4 C2_4 1_555 1_555
C2_4 C3_4 1_555 1_555
C3_4 H1_4 1_555 1_555
C4_4 C3_4 1_555 1_555
H2_4 C4_4 1_555 1_555
C5_4 C4_4 1_555 1_555
C6_4 C5_4 1_555 1_555
H3_4 C6_4 1_555 1_555
C7_4 C2_4 1_555 1_555
H4_4 C7_4 1_555 1_555
C8_4 C5_4 1_555 1_555
C9_4 C10_4 1_555 1_555
C10_4 C11_4 1_555 1_555
C11_4 H5_4 1_555 1_555
C12_4 C11_4 1_555 1_555
H6_4 C12_4 1_555 1_555
C13_4 C12_4 1_555 1_555
C14_4 C13_4 1_555 1_555
H7_4 C14_4 1_555 1_555
C15_4 C10_4 1_555 1_555
H8_4 C15_4 1_555 1_555
C16_4 C13_4 1_555 1_555
C17_4 H9_4 1_555 1_555
H12_4 C21_4 1_555 1_555
N1_4 C17_4 1_555 1_555
O1_4 C1_4 1_555 1_555
O2_4 C1_4 1_555 1_555
O9_2 C8_4 1_555 1_555
O10_2 C8_4 1_555 1_555
O5_4 C9_4 1_555 1_555
O6_4 C9_4 1_555 1_555
O11_2 C16_4 1_555 1_555
O12_2 C16_4 1_555 1_555
Zn4_2 N1_4 1_555 1_555
Zn7_2 O2_4 1_555 1_555
N5_2 Zn7_2 1_555 1_555
C6_4 C7_4 1_555 1_555
C14_4 C15_4 1_555 1_555
C21_4 N1_4 1_555 1_555
O1_4 Zn4_2 1_555 1_555
O5_4 Zn4_2 1_555 1_555
O6_4 Zn7_2 1_555 1_555
H10_4 C18_4 1_555 1_555
C19_4 C18_4 1_555 1_555
C20_4 C19_4 1_555 1_555
H11_4 C20_4 1_555 1_555
C22_4 C19_4 1_555 1_555
C23_4 C22_4 1_555 1_555
C24_4 C23_4 1_555 1_555
C25_4 C24_4 1_555 1_555
C26_4 C25_4 1_555 1_555
H13_4 C26_4 1_555 1_555
C27_4 C22_4 1_555 1_555
H14_4 C27_4 1_555 1_555
C28_4 C25_4 1_555 1_555
C29_4 C28_4 1_555 1_555
H15_4 C29_4 1_555 1_555
C30_4 C29_4 1_555 1_555
H16_4 C30_4 1_555 1_555
C31_4 H17_2 1_555 1_555
C32_3 C28_4 1_555 1_555
H18_3 C32_3 1_555 1_555
N5_2 C30_4 1_555 1_555
N3_3 C23_4 1_555 1_555
N4_3 C24_4 1_555 1_555
S1_3 N3_3 1_555 1_555
C26_4 C27_4 1_555 1_555
C31_4 C32_3 1_555 1_555
C31_4 N5_2 1_555 1_555
N4_3 S1_3 1_555 1_555
H18_4 C32_4 1_555 1_555
S1_4 N3_4 1_555 1_555
N4_4 S1_4 1_555 1_555
C1_5 C2_5 1_555 1_555
C2_5 C3_5 1_555 1_555
C3_5 H1_5 1_555 1_555
C4_5 C3_5 1_555 1_555
H2_5 C4_5 1_555 1_555
C5_5 C4_5 1_555 1_555
C6_5 C5_5 1_555 1_555
H3_5 C6_5 1_555 1_555
C7_5 C2_5 1_555 1_555
H4_5 C7_5 1_555 1_555
C8_5 C5_5 1_555 1_555
C9_5 C10_5 1_555 1_555
C10_5 C11_5 1_555 1_555
C11_5 H5_5 1_555 1_555
C12_5 C11_5 1_555 1_555
H6_5 C12_5 1_555 1_555
C13_5 C12_5 1_555 1_555
C14_5 C13_5 1_555 1_555
H7_5 C14_5 1_555 1_555
C15_5 C10_5 1_555 1_555
H8_5 C15_5 1_555 1_555
C16_5 C13_5 1_555 1_555
C17_5 H9_5 1_555 1_555
C18_5 C17_5 1_555 1_555
H10_5 C18_5 1_555 1_555
C19_5 C18_5 1_555 1_555
C20_5 C19_5 1_555 1_555
H11_5 C20_5 1_555 1_555
C21_5 C20_5 1_555 1_555
H12_5 C21_5 1_555 1_555
C22_5 C19_5 1_555 1_555
C23_5 C22_5 1_555 1_555
C24_5 C23_5 1_555 1_555
C25_5 C24_5 1_555 1_555
C26_5 C25_5 1_555 1_555
H13_5 C26_5 1_555 1_555
C27_5 C22_5 1_555 1_555
H14_5 C27_5 1_555 1_555
C28_5 C25_5 1_555 1_555
C29_5 C28_5 1_555 1_555
H15_5 C29_5 1_555 1_555
N1_5 C17_5 1_555 1_555
O1_5 C1_5 1_555 1_555
O2_5 C1_5 1_555 1_555
O3_3 C8_5 1_555 1_555
O4_3 C8_5 1_555 1_555
O5_5 C9_5 1_555 1_555
O6_5 C9_5 1_555 1_555
O7_3 C16_5 1_555 1_555
O8_3 C16_5 1_555 1_555
Zn1_2 N1_5 1_555 1_555
Zn2 O2_5 1_555 1_555
N5_3 Zn2 1_555 1_555
Zn3_2 O8_3 1_555 1_555
Zn4_3 O3_3 1_555 1_555
Zn6_2 O7_3 1_555 1_555
Zn7_3 O4_3 1_555 1_555
C6_5 C7_5 1_555 1_555
C14_5 C15_5 1_555 1_555
C21_5 N1_5 1_555 1_555
C26_5 C27_5 1_555 1_555
O1_5 Zn1_2 1_555 1_555
O5_5 Zn1_2 1_555 1_555
O6_5 Zn2 1_555 1_555
H16_5 C30_5 1_555 1_555
N5_3 C30_5 1_555 1_555
C31_5 N5_3 1_555 1_555
H10_6 C18_6 1_555 1_555
C19_6 C18_6 1_555 1_555
C20_6 C19_6 1_555 1_555
H11_6 C20_6 1_555 1_555
C22_6 C19_6 1_555 1_555
C23_6 C22_6 1_555 1_555
C24_6 C23_6 1_555 1_555
C25_6 C24_6 1_555 1_555
C26_6 C25_6 1_555 1_555
H13_6 C26_6 1_555 1_555
C27_6 C22_6 1_555 1_555
H14_6 C27_6 1_555 1_555
C28_6 C25_6 1_555 1_555
C29_6 C28_6 1_555 1_555
H15_6 C29_6 1_555 1_555
C30_6 C29_6 1_555 1_555
H16_6 C30_6 1_555 1_555
C31_6 H17_3 1_555 1_555
C32_5 C28_6 1_555 1_555
H18_5 C32_5 1_555 1_555
N2_3 C30_6 1_555 1_555
N3_5 C23_6 1_555 1_555
N4_5 C24_6 1_555 1_555
S1_5 N3_5 1_555 1_555
Zn6_2 N2_3 1_555 1_555
C26_6 C27_6 1_555 1_555
C31_6 C32_5 1_555 1_555
C31_6 N2_3 1_555 1_555
N4_5 S1_5 1_555 1_555
C1_6 C2_6 1_555 1_555
C2_6 C3_6 1_555 1_555
C3_6 H1_6 1_555 1_555
C4_6 C3_6 1_555 1_555
H2_6 C4_6 1_555 1_555
C5_6 C4_6 1_555 1_555
C6_6 C5_6 1_555 1_555
H3_6 C6_6 1_555 1_555
C7_6 C2_6 1_555 1_555
H4_6 C7_6 1_555 1_555
C8_6 C5_6 1_555 1_555
C9_6 C10_6 1_555 1_555
C10_6 C11_6 1_555 1_555
C11_6 H5_6 1_555 1_555
C12_6 C11_6 1_555 1_555
H6_6 C12_6 1_555 1_555
C13_6 C12_6 1_555 1_555
C14_6 C13_6 1_555 1_555
H7_6 C14_6 1_555 1_555
C15_6 C10_6 1_555 1_555
H8_6 C15_6 1_555 1_555
C16_6 C13_6 1_555 1_555
C17_6 H9_6 1_555 1_555
H12_6 C21_6 1_555 1_555
N1_6 C17_6 1_555 1_555
O1_6 C1_6 1_555 1_555
O2_6 C1_6 1_555 1_555
O3_4 C8_6 1_555 1_555
O4_4 C8_6 1_555 1_555
O5_6 C9_6 1_555 1_555
O6_6 C9_6 1_555 1_555
O11_3 C16_6 1_555 1_555
O12_3 C16_6 1_555 1_555
Zn3_2 N1_6 1_555 1_555
Zn6_2 O2_6 1_555 1_555
O9_4 Zn3_2 1_555 1_555
O10_4 Zn6_2 1_555 1_555
C6_6 C7_6 1_555 1_555
C14_6 C15_6 1_555 1_555
C21_6 N1_6 1_555 1_555
O1_6 Zn3_2 1_555 1_555
O5_6 Zn3_2 1_555 1_555
O6_6 Zn6_2 1_555 1_555
H6_7 C12_7 1_555 1_555
C13_7 C12_7 1_555 1_555
C14_7 C13_7 1_555 1_555
H7_7 C14_7 1_555 1_555
C16_7 C13_7 1_555 1_555
O7_4 C16_7 1_555 1_555
O8_4 C16_7 1_555 1_555
C1_7 C2_7 1_555 1_555
C2_7 C3_7 1_555 1_555
C3_7 H1_7 1_555 1_555
C4_7 C3_7 1_555 1_555
H2_7 C4_7 1_555 1_555
C5_7 C4_7 1_555 1_555
C6_7 C5_7 1_555 1_555
H3_7 C6_7 1_555 1_555
C7_7 C2_7 1_555 1_555
H4_7 C7_7 1_555 1_555
C8_7 C5_7 1_555 1_555
C9_7 C10_7 1_555 1_555
C10_7 C11_7 1_555 1_555
C11_7 H5_7 1_555 1_555
C15_7 C10_7 1_555 1_555
H8_7 C15_7 1_555 1_555
C17_7 H9_7 1_555 1_555
C18_7 C17_7 1_555 1_555
H10_7 C18_7 1_555 1_555
C19_7 C18_7 1_555 1_555
C20_7 C19_7 1_555 1_555
H11_7 C20_7 1_555 1_555
C21_7 C20_7 1_555 1_555
H12_7 C21_7 1_555 1_555
C22_7 C19_7 1_555 1_555
C23_7 C22_7 1_555 1_555
C24_7 C23_7 1_555 1_555
C25_7 C24_7 1_555 1_555
C26_7 C25_7 1_555 1_555
H13_7 C26_7 1_555 1_555
C27_7 C22_7 1_555 1_555
H14_7 C27_7 1_555 1_555
C28_7 C25_7 1_555 1_555
C29_7 C28_7 1_555 1_555
H15_7 C29_7 1_555 1_555
C32_6 C28_7 1_555 1_555
H18_6 C32_6 1_555 1_555
N1_7 C17_7 1_555 1_555
N3_6 C23_7 1_555 1_555
N4_6 C24_7 1_555 1_555
O1_7 C1_7 1_555 1_555
O2_7 C1_7 1_555 1_555
O9_3 C8_7 1_555 1_555
O10_3 C8_7 1_555 1_555
O5_7 C9_7 1_555 1_555
O6_7 C9_7 1_555 1_555
S1_6 N3_6 1_555 1_555
Zn4_3 N1_7 1_555 1_555
Zn7_3 O2_7 1_555 1_555
N5_4 Zn7_3 1_555 1_555
O11_4 Zn7_3 1_555 1_555
O12_4 Zn4_3 1_555 1_555
C6_7 C7_7 1_555 1_555
C21_7 N1_7 1_555 1_555
C26_7 C27_7 1_555 1_555
N4_6 S1_6 1_555 1_555
O1_7 Zn4_3 1_555 1_555
O5_7 Zn4_3 1_555 1_555
O6_7 Zn7_3 1_555 1_555
H16_7 C30_7 1_555 1_555
C31_7 H17_4 1_555 1_555
N5_4 C30_7 1_555 1_555
C31_7 N5_4 1_555 1_555
H10_8 C18_8 1_555 1_555
C19_8 C18_8 1_555 1_555
C20_8 C19_8 1_555 1_555
H11_8 C20_8 1_555 1_555
C22_8 C19_8 1_555 1_555
C23_8 C22_8 1_555 1_555
C24_8 C23_8 1_555 1_555
C25_8 C24_8 1_555 1_555
C26_8 C25_8 1_555 1_555
H13_8 C26_8 1_555 1_555
C27_8 C22_8 1_555 1_555
H14_8 C27_8 1_555 1_555
C28_8 C25_8 1_555 1_555
C29_8 C28_8 1_555 1_555
H15_8 C29_8 1_555 1_555
C30_8 C29_8 1_555 1_555
H16_8 C30_8 1_555 1_555
N2_4 C30_8 1_555 1_555
Zn7_4 N2_4 1_555 1_555
C26_8 C27_8 1_555 1_555
C31_8 N2_4 1_555 1_555
C1_8 C2_8 1_555 1_555
C2_8 C3_8 1_555 1_555
C3_8 H1_8 1_555 1_555
C4_8 C3_8 1_555 1_555
H2_8 C4_8 1_555 1_555
C5_8 C4_8 1_555 1_555
C6_8 C5_8 1_555 1_555
H3_8 C6_8 1_555 1_555
C7_8 C2_8 1_555 1_555
H4_8 C7_8 1_555 1_555
C8_8 C5_8 1_555 1_555
C9_8 C10_8 1_555 1_555
C10_8 C11_8 1_555 1_555
C11_8 H5_8 1_555 1_555
C15_8 C10_8 1_555 1_555
H8_8 C15_8 1_555 1_555
C17_8 H9_8 1_555 1_555
H12_8 C21_8 1_555 1_555
N1_8 C17_8 1_555 1_555
O1_8 C1_8 1_555 1_555
O2_8 C1_8 1_555 1_555
O9_4 C8_8 1_555 1_555
O10_4 C8_8 1_555 1_555
O5_8 C9_8 1_555 1_555
O6_8 C9_8 1_555 1_555
Zn4_4 N1_8 1_555 1_555
Zn7_4 O2_8 1_555 1_555
C6_8 C7_8 1_555 1_555
C21_8 N1_8 1_555 1_555
O1_8 Zn4_4 1_555 1_555
O5_8 Zn4_4 1_555 1_555
O6_8 Zn7_4 1_555 1_555
H6_8 C12_8 1_555 1_555
C13_8 C12_8 1_555 1_555
C14_8 C13_8 1_555 1_555
H7_8 C14_8 1_555 1_555
C16_8 C13_8 1_555 1_555
O11_4 C16_8 1_555 1_555
O12_4 C16_8 1_555 1_555
H18_7 C32_7 1_555 1_555
S1_7 N3_7 1_555 1_555
N4_7 S1_7 1_555 1_555
H18_8 C32_8 1_555 1_555
S1_8 N3_8 1_555 1_555
N4_8 S1_8 1_555 1_555

#END
