
###############################################################################
#
# This file contains modified crystal structure data generated from the
# MOF subset of the Cambridge Structural Database (CSD) v543 
# hosted by the Cambridge Crystallographic Data Centre (CCDC).
#
# This work is licensed under the Creative Commons
# Attribution-NonCommercial-ShareAlike 4.0 International License.
# To view a copy of this license, visit
# http://creativecommons.org/licenses/by-nc-sa/4.0/
# or send a letter to
# Creative Commons, PO Box 1866, Mountain View, CA 94042, USA.
#
# CIF created using the CSD Python API on 29 September 2022
# The structure has been converted into the P1 space group
# The structure has a 3D framework
# The original CSD entry UWAFUU is in the cubic crystal system
# The framework has been calculated to contain at least 10.0% void space
# The void calculation uses a probe of radius 1.32A, grid spacing 0.4
#
###############################################################################

data_UWAFUU
_chemical_formula_moiety         '(C624 H384 N16 O104 Zn32)n'
_symmetry_cell_setting           triclinic
_symmetry_space_group_name_H-M   'P 1'
_symmetry_Int_Tables_number      1
_space_group_name_Hall           'P 1'
loop_
_symmetry_equiv_pos_site_id
_symmetry_equiv_pos_as_xyz
1 x,y,z
_cell_length_a                   32.5926(6)
_cell_length_b                   32.5926(6)
_cell_length_c                   32.5926(6)
_cell_angle_alpha                90
_cell_angle_beta                 90
_cell_angle_gamma                90
_cell_volume                     34622.4
loop_
_atom_site_label
_atom_site_type_symbol
_atom_site_fract_x
_atom_site_fract_y
_atom_site_fract_z
O10 O 0.25233(8) 0.14855(8) 0.25107(7)
Zn9 Zn 0.277305(11) 0.198900(11) 0.231269(10)
Zn10 Zn 0.198900(11) 0.231269(10) 0.277305(11)
O18 O 0.19568(7) 0.17202(7) 0.28129(7)
C29 C 0.21919(11) 0.14363(12) 0.27086(12)
C43 C 0.18695(11) 0.02178(12) 0.30813(11)
C55 C 0.23247(12) 0.06842(11) 0.27469(12)
H31 H 0.2567 0.0726 0.2601
C61 C 0.20855(11) 0.10123(11) 0.28372(11)
C65 C 0.22219(12) 0.02929(11) 0.28629(11)
H35 H 0.2393 0.0076 0.2793
C71 C 0.17259(12) 0.09404(13) 0.30393(12)
H41 H 0.1548 0.1157 0.3095
C77 C 0.16238(12) 0.05453(13) 0.31621(12)
H47 H 0.1380 0.050 0.3304
C3 C 0.09901(10) 0.84671(10) 0.34992(9)
C4 C 0.08959(10) 0.84187(10) 0.30852(10)
H1 H 0.1095 0.8469 0.2887
N1 N 0.13874(9) 0.86126(9) 0.36126(9)
C6 C 0.05081(11) 0.82971(11) 0.29681(10)
H3 H 0.045 0.827 0.2690
C10 C 0.03090(11) 0.82439(11) 0.36593(10)
H4 H 0.0115 0.8178 0.3858
C17 C 0.02017(10) 0.82147(11) 0.32531(10)
C25 C 0.06976(11) 0.83681(10) 0.37854(9)
H15 H 0.0759 0.8384 0.4064
O11 O 0.24893(7) 0.74767(8) 0.64855(8)
Zn11 Zn 0.268731(10) 0.722695(11) 0.698900(11)
Zn12 Zn 0.222695(11) 0.801100(11) 0.731269(10)
O19 O 0.21871(7) 0.80432(7) 0.67202(7)
C30 C 0.22914(12) 0.78081(11) 0.64363(12)
C31 C 0.15008(9) 0.90099(10) 0.34671(10)
C32 C 0.15329(10) 0.84992(9) 0.40099(10)
C33 C 0.19148(10) 0.91041(10) 0.34187(10)
C34 C 0.15813(10) 0.80852(10) 0.41041(10)
H17 H 0.2113 0.8905 0.3469
H18 H 0.1531 0.7887 0.3905
C37 C 0.20319(10) 0.94919(11) 0.32971(11)
C38 C 0.17029(11) 0.79681(10) 0.44919(11)
H21 H 0.2310 0.955 0.327
H22 H 0.173 0.7690 0.455
C44 C 0.19187(11) 0.81305(11) 0.52178(12)
C45 C 0.13407(10) 0.96910(11) 0.32439(11)
C46 C 0.17561(11) 0.86593(10) 0.46910(11)
H23 H 0.1142 0.9885 0.3178
H24 H 0.1822 0.8858 0.4885
C56 C 0.22531(12) 0.76753(12) 0.56842(11)
H32 H 0.2399 0.7433 0.5726
C59 C 0.17469(10) 0.97983(10) 0.32147(11)
C60 C 0.17853(11) 0.82531(10) 0.47983(10)
C62 C 0.21628(11) 0.79145(11) 0.60123(11)
C66 C 0.21371(11) 0.77781(12) 0.52929(11)
H36 H 0.2207 0.7607 0.5076
C72 C 0.19607(12) 0.82741(12) 0.59404(13)
H42 H 0.1905 0.8452 0.6157
C75 C 0.12146(9) 0.93024(11) 0.33681(10)
C76 C 0.16319(10) 0.87854(9) 0.43024(11)
H45 H 0.0936 0.9241 0.3384
H46 H 0.1616 0.9064 0.4241
C78 C 0.18379(12) 0.83762(12) 0.55453(13)
H48 H 0.1696 0.8620 0.550
O7 O 0.16546(6) 0.74479(7) 0.79499(7)
O13 O 0.24767(8) 0.85145(8) 0.75107(7)
Zn4 Zn 0.217177(11) 0.717177(11) 0.782823(11)
O15 O 0.25227(6) 0.75227(6) 0.74773(6)
O17 O 0.16815(7) 0.79945(7) 0.75353(8)
C28 C 0.15097(10) 0.77657(12) 0.77978(11)
C36 C 0.04944(11) 0.78276(10) 0.83519(11)
H20 H 0.0351 0.7672 0.8544
C42 C 0.10942(11) 0.79007(10) 0.79394(11)
C50 C 0.03206(11) 0.81801(12) 0.82016(11)
C52 C 0.09197(13) 0.82488(14) 0.77681(14)
H28 H 0.106 0.8391 0.7564
C68 C 0.08743(11) 0.76988(10) 0.82259(11)
H38 H 0.0985 0.7463 0.8343
C70 C 0.05360(14) 0.83880(15) 0.78988(15)
H40 H 0.0424 0.8623 0.7782
H44 H 0.0031 0.8926 0.8281
O6 O 0.79499(7) 0.16546(6) 0.74479(7)
O12 O 0.75107(7) 0.24767(8) 0.85145(8)
Zn3 Zn 0.782823(11) 0.217177(11) 0.717177(11)
Zn5 Zn 0.731269(10) 0.222695(11) 0.801100(11)
O14 O 0.74773(6) 0.25227(6) 0.75227(6)
O16 O 0.75353(8) 0.16815(7) 0.79945(7)
O21 O 0.67202(7) 0.21871(7) 0.80432(7)
C27 C 0.77978(11) 0.15097(10) 0.77657(12)
C35 C 0.83519(11) 0.04944(11) 0.78276(10)
H19 H 0.8544 0.0351 0.7672
C41 C 0.79394(11) 0.10942(11) 0.79007(10)
C49 C 0.82016(11) 0.03206(11) 0.81801(12)
C51 C 0.77681(14) 0.09197(13) 0.82488(14)
H27 H 0.7564 0.106 0.8391
C67 C 0.82259(11) 0.08743(11) 0.76988(10)
H37 H 0.8343 0.0985 0.7463
C69 C 0.78988(15) 0.05360(14) 0.83880(15)
H39 H 0.7782 0.0424 0.8623
H43 H 0.8281 0.0031 0.8926
O1 O 0.74479(7) 0.79499(7) 0.16546(6)
O2 O 0.85145(8) 0.75107(7) 0.24767(8)
Zn1 Zn 0.717177(11) 0.782823(11) 0.217177(11)
Zn2 Zn 0.801100(11) 0.731269(10) 0.222695(11)
O3 O 0.75227(6) 0.74773(6) 0.25227(6)
O4 O 0.79945(7) 0.75353(8) 0.16815(7)
O5 O 0.82798(7) 0.78129(7) 0.30432(7)
C1 C 0.77657(12) 0.77978(11) 0.15097(10)
C2 C 0.85637(12) 0.77086(12) 0.28081(11)
C5 C 0.78276(10) 0.83519(11) 0.04944(11)
H2 H 0.7672 0.8544 0.0351
C8 C 0.79007(10) 0.79394(11) 0.10942(11)
C9 C 0.97822(12) 0.80813(11) 0.31305(11)
C12 C 0.81801(12) 0.82016(11) 0.03206(11)
C13 C 0.82488(14) 0.77681(14) 0.09197(13)
H6 H 0.8391 0.7564 0.106
C15 C 0.93158(11) 0.77469(12) 0.26753(12)
H8 H 0.9274 0.7601 0.2433
C18 C 0.89877(11) 0.78372(11) 0.29145(11)
C20 C 0.97071(11) 0.78629(11) 0.27781(12)
H10 H 0.9924 0.7793 0.2607
C21 C 0.76988(10) 0.82259(11) 0.08743(11)
H11 H 0.7463 0.8343 0.0985
C22 C 0.83880(15) 0.78988(15) 0.05360(14)
H12 H 0.8623 0.7782 0.0424
C23 C 0.90596(13) 0.80393(12) 0.32741(12)
H13 H 0.8843 0.8095 0.3452
H14 H 0.8926 0.8281 0.0031
C26 C 0.94547(13) 0.81621(12) 0.33762(12)
H16 H 0.950 0.8304 0.3620
O8 O 0.66546(6) 0.75521(7) 0.20501(7)
O9 O 0.70501(7) 0.83454(6) 0.24479(7)
Zn7 Zn 0.722695(11) 0.698900(11) 0.268731(10)
Zn8 Zn 0.768731(10) 0.777305(11) 0.301100(11)
O20 O 0.80432(7) 0.67202(7) 0.21871(7)
O11_2 O 0.25107(7) 0.25233(8) 0.14855(8)
Zn11_2 Zn 0.231269(10) 0.277305(11) 0.198900(11)
O19_2 O 0.28129(7) 0.19568(7) 0.17202(7)
C30_2 C 0.27086(12) 0.21919(11) 0.14363(12)
C44_2 C 0.30813(11) 0.18695(11) 0.02178(12)
C56_2 C 0.27469(12) 0.23247(12) 0.06842(11)
H32_2 H 0.2601 0.2567 0.0726
C62_2 C 0.28372(11) 0.20855(11) 0.10123(11)
C66_2 C 0.28629(11) 0.22219(12) 0.02929(11)
H36_2 H 0.2793 0.2393 0.0076
C72_2 C 0.30393(12) 0.17259(12) 0.09404(13)
H42_2 H 0.3095 0.1548 0.1157
C78_2 C 0.31621(12) 0.16238(12) 0.05453(13)
H48_2 H 0.3304 0.1380 0.050
O1_2 O 0.75521(7) 0.20501(7) 0.66546(6)
O2_2 O 0.64855(8) 0.24893(7) 0.74767(8)
Zn2_2 Zn 0.698900(11) 0.268731(10) 0.722695(11)
O4_2 O 0.70055(7) 0.24647(8) 0.66815(7)
C1_2 C 0.72343(12) 0.22022(11) 0.65097(10)
C2_2 C 0.64363(12) 0.22914(12) 0.78081(11)
C3_2 C 0.40099(10) 0.15329(10) 0.84992(9)
C4_2 C 0.41041(10) 0.15813(10) 0.80852(10)
H1_2 H 0.3905 0.1531 0.7887
N1_2 N 0.36126(9) 0.13874(9) 0.86126(9)
C5_2 C 0.71724(10) 0.16481(11) 0.54944(11)
H2_2 H 0.7328 0.1456 0.5351
N2 N 0.62359(10) 0.12359(10) 0.37641(10)
C6_2 C 0.44919(11) 0.17029(11) 0.79681(10)
H3_2 H 0.455 0.173 0.7690
C7 C 0.66658(12) 0.16623(11) 0.49087(12)
C8_2 C 0.70993(10) 0.20606(11) 0.60942(11)
C9_2 C 0.52178(12) 0.19187(11) 0.81305(11)
C10_2 C 0.46910(11) 0.17561(11) 0.86593(10)
H4_2 H 0.4885 0.1822 0.8858
C11 C 0.69320(11) 0.15552(12) 0.45943(12)
H5 H 0.7213 0.1574 0.4638
C12_2 C 0.68199(12) 0.17984(11) 0.53206(11)
C13_2 C 0.67512(14) 0.22319(14) 0.59197(13)
H6_2 H 0.6609 0.2436 0.606
C14 C 0.61132(13) 0.14965(13) 0.44496(13)
H7 H 0.5832 0.1475 0.4405
C15_2 C 0.56842(11) 0.22531(12) 0.76753(12)
H8_2 H 0.5726 0.2399 0.7433
C16 C 0.67895(12) 0.14220(12) 0.42177(12)
H9 H 0.6975 0.1354 0.4012
C17_2 C 0.47983(10) 0.17853(11) 0.82531(10)
C18_2 C 0.60123(11) 0.21628(11) 0.79145(11)
C19 C 0.63785(12) 0.13905(11) 0.41478(11)
C20_2 C 0.52929(11) 0.21371(11) 0.77781(12)
H10_2 H 0.5076 0.2207 0.7607
C21_2 C 0.73012(10) 0.17741(11) 0.58743(11)
H11_2 H 0.7537 0.1657 0.5985
C22_2 C 0.66120(15) 0.21012(15) 0.55360(14)
H12_2 H 0.6377 0.2218 0.5424
C23_2 C 0.59404(13) 0.19607(12) 0.82741(12)
H13_2 H 0.6157 0.1905 0.8452
C24 C 0.62605(13) 0.16391(13) 0.48298(13)
H14_2 H 0.6074 0.1719 0.5031
C25_2 C 0.43024(11) 0.16319(10) 0.87854(9)
H15_2 H 0.4241 0.1616 0.9064
C26_2 C 0.55453(13) 0.18379(12) 0.83762(12)
H16_2 H 0.550 0.1696 0.8620
O7_2 O 0.33454(6) 0.25521(7) 0.29499(7)
O8_2 O 0.83454(6) 0.24479(7) 0.70501(7)
Zn4_2 Zn 0.282823(11) 0.282823(11) 0.282823(11)
Zn7_2 Zn 0.777305(11) 0.301100(11) 0.768731(10)
O15_2 O 0.24773(6) 0.24773(6) 0.24773(6)
O17_2 O 0.33185(7) 0.20055(7) 0.25353(8)
O20_2 O 0.69568(7) 0.32798(7) 0.71871(7)
C28_2 C 0.34903(10) 0.22343(12) 0.27978(11)
C31_2 C 0.34992(9) 0.09901(10) 0.84671(10)
C32_2 C 0.34671(10) 0.15008(9) 0.90099(10)
C33_2 C 0.30852(10) 0.08959(10) 0.84187(10)
C34_2 C 0.34187(10) 0.19148(10) 0.91041(10)
H17_2 H 0.2887 0.1095 0.8469
H18_2 H 0.3469 0.2113 0.8905
C36_2 C 0.45056(11) 0.21724(10) 0.33519(11)
H20_2 H 0.4649 0.2328 0.3544
C37_2 C 0.29681(10) 0.05081(11) 0.82971(11)
C38_2 C 0.32971(11) 0.20319(10) 0.94919(11)
H21_2 H 0.2690 0.045 0.827
H22_2 H 0.327 0.2310 0.955
C39 C 0.66623(11) 0.00913(12) 0.33342(12)
C40 C 0.50913(12) 0.16658(12) 0.33377(11)
C42_2 C 0.39058(11) 0.20993(10) 0.29394(11)
C45_2 C 0.36593(10) 0.03090(11) 0.82439(11)
C46_2 C 0.32439(11) 0.13407(10) 0.96910(11)
H23_2 H 0.3858 0.0115 0.8178
H24_2 H 0.3178 0.1142 0.9885
C47 C 0.65552(12) 0.04057(12) 0.30680(11)
C48 C 0.54057(12) 0.19320(11) 0.34448(12)
H25 H 0.6574 0.0362 0.2787
H26 H 0.5362 0.2213 0.3426
C50_2 C 0.46794(11) 0.18199(12) 0.32016(11)
C52_2 C 0.40803(13) 0.17512(14) 0.27681(14)
H28_2 H 0.394 0.1609 0.2564
C53 C 0.64965(13) 0.05504(13) 0.38868(13)
C54 C 0.55504(13) 0.11132(13) 0.35035(13)
H29 H 0.6475 0.0595 0.4168
H30 H 0.5595 0.0832 0.3525
C57 C 0.64220(12) 0.07823(12) 0.32105(12)
C58 C 0.57823(12) 0.17895(12) 0.35780(12)
H33 H 0.6354 0.0988 0.3025
H34 H 0.5988 0.1975 0.3646
C59_2 C 0.32531(10) 0.02017(10) 0.82147(11)
C60_2 C 0.32147(11) 0.17469(10) 0.97983(10)
C63 C 0.63905(11) 0.08522(11) 0.36215(12)
C64 C 0.58522(11) 0.13785(12) 0.36095(11)
C68_2 C 0.41257(11) 0.23012(10) 0.32259(11)
H38_2 H 0.4015 0.2537 0.3343
C70_2 C 0.44640(14) 0.16120(15) 0.28988(15)
H40_2 H 0.4576 0.1377 0.2782
C73 C 0.66391(13) 0.01702(13) 0.37395(13)
C74 C 0.51702(13) 0.12605(13) 0.33609(13)
H44_2 H 0.4969 0.1074 0.3281
C75_2 C 0.37854(9) 0.06976(11) 0.83681(10)
C76_2 C 0.33681(10) 0.12146(9) 0.93024(11)
H45_2 H 0.4064 0.0759 0.8384
H46_2 H 0.3384 0.0936 0.9241
O12_2 O 0.74893(7) 0.75233(8) 0.35145(8)
Zn10_2 Zn 0.301100(11) 0.768731(10) 0.777305(11)
O16_2 O 0.74647(8) 0.83185(7) 0.29945(7)
O18_2 O 0.30432(7) 0.82798(7) 0.78129(7)
C27_2 C 0.72022(11) 0.84903(10) 0.27657(12)
C29_2 C 0.28081(11) 0.85637(12) 0.77086(12)
C35_2 C 0.66481(11) 0.95056(11) 0.28276(10)
H19_2 H 0.6456 0.9649 0.2672
C41_2 C 0.70606(11) 0.89058(11) 0.29007(10)
C43_2 C 0.31305(11) 0.97822(12) 0.80813(11)
C49_2 C 0.67984(11) 0.96794(11) 0.31801(12)
C51_2 C 0.72319(14) 0.90803(13) 0.32488(14)
H27_2 H 0.7436 0.894 0.3391
C55_2 C 0.26753(12) 0.93158(11) 0.77469(12)
H31_2 H 0.2433 0.9274 0.7601
C61_2 C 0.29145(11) 0.89877(11) 0.78372(11)
C65_2 C 0.27781(12) 0.97071(11) 0.78629(11)
H35_2 H 0.2607 0.9924 0.7793
C67_2 C 0.67741(11) 0.91257(11) 0.26988(10)
H37_2 H 0.6657 0.9015 0.2463
C69_2 C 0.71012(15) 0.94640(14) 0.33880(15)
H39_2 H 0.7218 0.9576 0.3623
C71_2 C 0.32741(12) 0.90596(13) 0.80393(12)
H41_2 H 0.3452 0.8843 0.8095
H43_2 H 0.6719 0.9969 0.3926
C77_2 C 0.33762(12) 0.94547(13) 0.81621(12)
H47_2 H 0.3620 0.950 0.8304
N2_2 N 0.37641(10) 0.62359(10) 0.12359(10)
C7_2 C 0.33342(12) 0.66623(11) 0.00913(12)
C11_2 C 0.30680(11) 0.65552(12) 0.04057(12)
H5_2 H 0.2787 0.6574 0.0362
C14_2 C 0.38868(13) 0.64965(13) 0.05504(13)
H7_2 H 0.4168 0.6475 0.0595
C16_2 C 0.32105(12) 0.64220(12) 0.07823(12)
H9_2 H 0.3025 0.6354 0.0988
C19_2 C 0.36215(12) 0.63905(11) 0.08522(11)
C24_2 C 0.37395(13) 0.66391(13) 0.01702(13)
O6_2 O 0.29499(7) 0.33454(6) 0.25521(7)
O13_2 O 0.74767(8) 0.64855(8) 0.24893(7)
O16_3 O 0.25353(8) 0.33185(7) 0.20055(7)
O17_3 O 0.66815(7) 0.70055(7) 0.24647(8)
O21_2 O 0.17202(7) 0.28129(7) 0.19568(7)
O22 O 0.71871(7) 0.69568(7) 0.32798(7)
C27_3 C 0.27978(11) 0.34903(10) 0.22343(12)
C28_3 C 0.65097(10) 0.72343(12) 0.22022(11)
C35_3 C 0.33519(11) 0.45056(11) 0.21724(10)
C36_3 C 0.54944(11) 0.71724(10) 0.16481(11)
H19_3 H 0.3544 0.4649 0.2328
H20_3 H 0.5351 0.7328 0.1456
C39_2 C 0.33377(11) 0.50913(12) 0.16658(12)
C40_2 C 0.49087(12) 0.66658(12) 0.16623(11)
C41_3 C 0.29394(11) 0.39058(11) 0.20993(10)
C42_3 C 0.60942(11) 0.70993(10) 0.20606(11)
C47_2 C 0.34448(12) 0.54057(12) 0.19320(11)
C48_2 C 0.45943(12) 0.69320(11) 0.15552(12)
H25_2 H 0.3426 0.5362 0.2213
H26_2 H 0.4638 0.7213 0.1574
C49_3 C 0.32016(11) 0.46794(11) 0.18199(12)
C50_3 C 0.53206(11) 0.68199(12) 0.17984(11)
C51_3 C 0.27681(14) 0.40803(13) 0.17512(14)
C52_3 C 0.59197(13) 0.67512(14) 0.22319(14)
H27_3 H 0.2564 0.394 0.1609
H28_3 H 0.606 0.6609 0.2436
C53_2 C 0.35035(13) 0.55504(13) 0.11132(13)
C54_2 C 0.44496(13) 0.61132(13) 0.14965(13)
H29_2 H 0.3525 0.5595 0.0832
H30_2 H 0.4405 0.5832 0.1475
C57_2 C 0.35780(12) 0.57823(12) 0.17895(12)
C58_2 C 0.42177(12) 0.67895(12) 0.14220(12)
H33_2 H 0.3646 0.5988 0.1975
H34_2 H 0.4012 0.6975 0.1354
C63_2 C 0.36095(11) 0.58522(11) 0.13785(12)
C64_2 C 0.41478(11) 0.63785(12) 0.13905(11)
C67_3 C 0.32259(11) 0.41257(11) 0.23012(10)
C68_3 C 0.58743(11) 0.73012(10) 0.17741(11)
H37_3 H 0.3343 0.4015 0.2537
H38_3 H 0.5985 0.7537 0.1657
C69_3 C 0.28988(15) 0.44640(14) 0.16120(15)
C70_3 C 0.55360(14) 0.66120(15) 0.21012(15)
H39_3 H 0.2782 0.4576 0.1377
H40_3 H 0.5424 0.6377 0.2218
C73_2 C 0.33609(13) 0.51702(13) 0.12605(13)
C74_2 C 0.48298(13) 0.62605(13) 0.16391(13)
H43_3 H 0.3281 0.4969 0.1074
H44_3 H 0.5031 0.6074 0.1719
O1_3 O 0.24479(7) 0.70501(7) 0.83454(6)
O2_3 O 0.35145(8) 0.74893(7) 0.75233(8)
O4_3 O 0.29945(7) 0.74647(8) 0.83185(7)
O5_2 O 0.32798(7) 0.71871(7) 0.69568(7)
C1_3 C 0.27657(12) 0.72022(11) 0.84903(10)
C2_3 C 0.35637(12) 0.72914(12) 0.71919(11)
C3_3 C 0.59901(10) 0.65329(10) 0.65008(9)
C4_3 C 0.58959(10) 0.65813(10) 0.69148(10)
H1_3 H 0.6095 0.6531 0.7113
N1_3 N 0.63874(9) 0.63874(9) 0.63874(9)
C5_3 C 0.28276(10) 0.66481(11) 0.95056(11)
H2_3 H 0.2672 0.6456 0.9649
C6_3 C 0.55081(11) 0.67029(11) 0.70319(10)
H3_3 H 0.545 0.673 0.7310
C8_3 C 0.29007(10) 0.70606(11) 0.89058(11)
C9_3 C 0.47822(12) 0.69187(11) 0.68695(11)
C10_3 C 0.53090(11) 0.67561(11) 0.63407(10)
H4_3 H 0.5115 0.6822 0.6142
C12_3 C 0.31801(12) 0.67984(11) 0.96794(11)
C13_3 C 0.32488(14) 0.72319(14) 0.90803(13)
H6_3 H 0.3391 0.7436 0.894
C15_3 C 0.43158(11) 0.72531(12) 0.73247(12)
H8_3 H 0.4274 0.7399 0.7567
C17_3 C 0.52017(10) 0.67853(11) 0.67469(10)
C18_3 C 0.39877(11) 0.71628(11) 0.70855(11)
C20_3 C 0.47071(11) 0.71371(11) 0.72219(12)
H10_3 H 0.4924 0.7207 0.7393
C21_3 C 0.26988(10) 0.67741(11) 0.91257(11)
H11_3 H 0.2463 0.6657 0.9015
C22_3 C 0.33880(15) 0.71012(15) 0.94640(14)
H12_3 H 0.3623 0.7218 0.9576
C23_3 C 0.40596(13) 0.69607(12) 0.67259(12)
H13_3 H 0.3843 0.6905 0.6548
H14_3 H 0.3926 0.6719 0.9969
C25_3 C 0.56976(11) 0.66319(10) 0.62146(9)
H15_3 H 0.5759 0.6616 0.5936
C26_3 C 0.44547(13) 0.68379(12) 0.66238(12)
H16_3 H 0.450 0.6696 0.6380
O9_2 O 0.20501(7) 0.66546(6) 0.75521(7)
O10_2 O 0.75233(8) 0.35145(8) 0.74893(7)
C29_3 C 0.71919(11) 0.35637(12) 0.72914(12)
C30_3 C 0.72914(12) 0.71919(11) 0.35637(12)
C31_3 C 0.65008(9) 0.59901(10) 0.65329(10)
C32_3 C 0.65329(10) 0.65008(9) 0.59901(10)
C33_3 C 0.69148(10) 0.58959(10) 0.65813(10)
C34_3 C 0.65813(10) 0.69148(10) 0.58959(10)
H17_3 H 0.7113 0.6095 0.6531
H18_3 H 0.6531 0.7113 0.6095
C37_3 C 0.70319(10) 0.55081(11) 0.67029(11)
C38_3 C 0.67029(11) 0.70319(10) 0.55081(11)
H21_3 H 0.7310 0.545 0.673
H22_3 H 0.673 0.7310 0.545
C43_3 C 0.68695(11) 0.47822(12) 0.69187(11)
C44_3 C 0.69187(11) 0.68695(11) 0.47822(12)
C45_3 C 0.63407(10) 0.53090(11) 0.67561(11)
C46_3 C 0.67561(11) 0.63407(10) 0.53090(11)
H23_3 H 0.6142 0.5115 0.6822
H24_3 H 0.6822 0.6142 0.5115
C55_3 C 0.73247(12) 0.43158(11) 0.72531(12)
C56_3 C 0.72531(12) 0.73247(12) 0.43158(11)
H31_3 H 0.7567 0.4274 0.7399
H32_3 H 0.7399 0.7567 0.4274
C59_3 C 0.67469(10) 0.52017(10) 0.67853(11)
C60_3 C 0.67853(11) 0.67469(10) 0.52017(10)
C61_3 C 0.70855(11) 0.39877(11) 0.71628(11)
C62_3 C 0.71628(11) 0.70855(11) 0.39877(11)
C65_3 C 0.72219(12) 0.47071(11) 0.71371(11)
C66_3 C 0.71371(11) 0.72219(12) 0.47071(11)
H35_3 H 0.7393 0.4924 0.7207
H36_3 H 0.7207 0.7393 0.4924
C71_3 C 0.67259(12) 0.40596(13) 0.69607(12)
C72_3 C 0.69607(12) 0.67259(12) 0.40596(13)
H41_3 H 0.6548 0.3843 0.6905
H42_3 H 0.6905 0.6548 0.3843
C75_3 C 0.62146(9) 0.56976(11) 0.66319(10)
C76_3 C 0.66319(10) 0.62146(9) 0.56976(11)
H45_3 H 0.5936 0.5759 0.6616
H46_3 H 0.6616 0.5936 0.5759
C77_3 C 0.66238(12) 0.44547(13) 0.68379(12)
C78_3 C 0.68379(12) 0.66238(12) 0.44547(13)
H47_3 H 0.6380 0.450 0.6696
H48_3 H 0.6696 0.6380 0.450
O1_4 O 0.25521(7) 0.29499(7) 0.33454(6)
O2_4 O 0.14855(8) 0.25107(7) 0.25233(8)
O4_4 O 0.20055(7) 0.25353(8) 0.33185(7)
C1_4 C 0.22343(12) 0.27978(11) 0.34903(10)
C2_4 C 0.14363(12) 0.27086(12) 0.21919(11)
C5_4 C 0.21724(10) 0.33519(11) 0.45056(11)
H2_4 H 0.2328 0.3544 0.4649
N2_3 N 0.12359(10) 0.37641(10) 0.62359(10)
C7_3 C 0.16658(12) 0.33377(11) 0.50913(12)
C8_4 C 0.20993(10) 0.29394(11) 0.39058(11)
C9_4 C 0.02178(12) 0.30813(11) 0.18695(11)
C11_3 C 0.19320(11) 0.34448(12) 0.54057(12)
H5_3 H 0.2213 0.3426 0.5362
C12_4 C 0.18199(12) 0.32016(11) 0.46794(11)
C13_4 C 0.17512(14) 0.27681(14) 0.40803(13)
H6_4 H 0.1609 0.2564 0.394
C14_3 C 0.11132(13) 0.35035(13) 0.55504(13)
H7_3 H 0.0832 0.3525 0.5595
C15_4 C 0.06842(11) 0.27469(12) 0.23247(12)
H8_4 H 0.0726 0.2601 0.2567
C16_3 C 0.17895(12) 0.35780(12) 0.57823(12)
H9_3 H 0.1975 0.3646 0.5988
C18_4 C 0.10123(11) 0.28372(11) 0.20855(11)
C19_3 C 0.13785(12) 0.36095(11) 0.58522(11)
C20_4 C 0.02929(11) 0.28629(11) 0.22219(12)
H10_4 H 0.0076 0.2793 0.2393
C21_4 C 0.23012(10) 0.32259(11) 0.41257(11)
H11_4 H 0.2537 0.3343 0.4015
C22_4 C 0.16120(15) 0.28988(15) 0.44640(14)
H12_4 H 0.1377 0.2782 0.4576
C23_4 C 0.09404(13) 0.30393(12) 0.17259(12)
H13_4 H 0.1157 0.3095 0.1548
C24_3 C 0.12605(13) 0.33609(13) 0.51702(13)
H14_4 H 0.1074 0.3281 0.4969
C26_4 C 0.05453(13) 0.31621(12) 0.16238(12)
H16_4 H 0.050 0.3304 0.1380
O16_4 O 0.24647(8) 0.66815(7) 0.70055(7)
C27_4 C 0.22022(11) 0.65097(10) 0.72343(12)
C35_4 C 0.16481(11) 0.54944(11) 0.71724(10)
H19_4 H 0.1456 0.5351 0.7328
C39_3 C 0.16623(11) 0.49087(12) 0.66658(12)
C40_3 C 0.00913(12) 0.33342(12) 0.66623(11)
C41_4 C 0.20606(11) 0.60942(11) 0.70993(10)
C47_3 C 0.15552(12) 0.45943(12) 0.69320(11)
C48_3 C 0.04057(12) 0.30680(11) 0.65552(12)
H25_3 H 0.1574 0.4638 0.7213
H26_3 H 0.0362 0.2787 0.6574
C49_4 C 0.17984(11) 0.53206(11) 0.68199(12)
C51_4 C 0.22319(14) 0.59197(13) 0.67512(14)
H27_4 H 0.2436 0.606 0.6609
C53_3 C 0.14965(13) 0.44496(13) 0.61132(13)
C54_3 C 0.05504(13) 0.38868(13) 0.64965(13)
H29_3 H 0.1475 0.4405 0.5832
H30_3 H 0.0595 0.4168 0.6475
C57_3 C 0.14220(12) 0.42177(12) 0.67895(12)
C58_3 C 0.07823(12) 0.32105(12) 0.64220(12)
H33_3 H 0.1354 0.4012 0.6975
H34_3 H 0.0988 0.3025 0.6354
C63_3 C 0.13905(11) 0.41478(11) 0.63785(12)
C64_3 C 0.08522(11) 0.36215(12) 0.63905(11)
C67_4 C 0.17741(11) 0.58743(11) 0.73012(10)
H37_4 H 0.1657 0.5985 0.7537
C69_4 C 0.21012(15) 0.55360(14) 0.66120(15)
H39_4 H 0.2218 0.5424 0.6377
C73_3 C 0.16391(13) 0.48298(13) 0.62605(13)
C74_3 C 0.01702(13) 0.37395(13) 0.66391(13)
H43_4 H 0.1719 0.5031 0.6074
C3_4 C 0.90099(10) 0.34671(10) 0.15008(9)
C4_4 C 0.91041(10) 0.34187(10) 0.19148(10)
H1_4 H 0.8905 0.3469 0.2113
N1_4 N 0.86126(9) 0.36126(9) 0.13874(9)
C6_4 C 0.94919(11) 0.32971(11) 0.20319(10)
H3_4 H 0.955 0.327 0.2310
C10_4 C 0.96910(11) 0.32439(11) 0.13407(10)
H4_4 H 0.9885 0.3178 0.1142
C17_4 C 0.97983(10) 0.32147(11) 0.17469(10)
C25_4 C 0.93024(11) 0.33681(10) 0.12146(9)
H15_4 H 0.9241 0.3384 0.0936
O17_4 O 0.83185(7) 0.29945(7) 0.74647(8)
O22_2 O 0.78129(7) 0.30432(7) 0.82798(7)
C28_4 C 0.84903(10) 0.27657(12) 0.72022(11)
C29_4 C 0.78081(11) 0.64363(12) 0.22914(12)
C31_4 C 0.84992(9) 0.40099(10) 0.15329(10)
C32_4 C 0.84671(10) 0.34992(9) 0.09901(10)
C33_4 C 0.80852(10) 0.41041(10) 0.15813(10)
C34_4 C 0.84187(10) 0.30852(10) 0.08959(10)
H17_4 H 0.7887 0.3905 0.1531
H18_4 H 0.8469 0.2887 0.1095
C36_4 C 0.95056(11) 0.28276(10) 0.66481(11)
H20_4 H 0.9649 0.2672 0.6456
C37_4 C 0.79681(10) 0.44919(11) 0.17029(11)
C38_4 C 0.82971(11) 0.29681(10) 0.05081(11)
H21_4 H 0.7690 0.455 0.173
H22_4 H 0.827 0.2690 0.045
C42_4 C 0.89058(11) 0.29007(10) 0.70606(11)
C43_4 C 0.81305(11) 0.52178(12) 0.19187(11)
C45_4 C 0.86593(10) 0.46910(11) 0.17561(11)
C46_4 C 0.82439(11) 0.36593(10) 0.03090(11)
H23_4 H 0.8858 0.4885 0.1822
H24_4 H 0.8178 0.3858 0.0115
C50_4 C 0.96794(11) 0.31801(12) 0.67984(11)
C52_4 C 0.90803(13) 0.32488(14) 0.72319(14)
H28_4 H 0.894 0.3391 0.7436
C55_4 C 0.76753(12) 0.56842(11) 0.22531(12)
H31_4 H 0.7433 0.5726 0.2399
C59_4 C 0.82531(10) 0.47983(10) 0.17853(11)
C60_4 C 0.82147(11) 0.32531(10) 0.02017(10)
C61_4 C 0.79145(11) 0.60123(11) 0.21628(11)
C65_4 C 0.77781(12) 0.52929(11) 0.21371(11)
H35_4 H 0.7607 0.5076 0.2207
C68_4 C 0.91257(11) 0.26988(10) 0.67741(11)
H38_4 H 0.9015 0.2463 0.6657
C70_4 C 0.94640(14) 0.33880(15) 0.71012(15)
H40_4 H 0.9576 0.3623 0.7218
C71_4 C 0.82741(12) 0.59404(13) 0.19607(12)
H41_4 H 0.8452 0.6157 0.1905
H44_4 H 0.9969 0.3926 0.6719
C75_4 C 0.87854(9) 0.43024(11) 0.16319(10)
C76_4 C 0.83681(10) 0.37854(9) 0.06976(11)
H45_4 H 0.9064 0.4241 0.1616
H46_4 H 0.8384 0.4064 0.0759
C77_4 C 0.83762(12) 0.55453(13) 0.18379(12)
H47_4 H 0.8620 0.550 0.1696
C30_4 C 0.77086(12) 0.28081(11) 0.85637(12)
C44_4 C 0.80813(11) 0.31305(11) 0.97822(12)
C56_4 C 0.77469(12) 0.26753(12) 0.93158(11)
H32_4 H 0.7601 0.2433 0.9274
C62_4 C 0.78372(11) 0.29145(11) 0.89877(11)
C66_4 C 0.78629(11) 0.27781(12) 0.97071(11)
H36_4 H 0.7793 0.2607 0.9924
C72_4 C 0.80393(12) 0.32741(12) 0.90596(13)
H42_4 H 0.8095 0.3452 0.8843
C78_4 C 0.81621(12) 0.33762(12) 0.94547(13)
H48_4 H 0.8304 0.3620 0.950
N2_4 N 0.87641(10) 0.87641(10) 0.87641(10)
C7_4 C 0.83342(12) 0.83377(11) 0.99087(12)
C11_4 C 0.80680(11) 0.84448(12) 0.95943(12)
H5_4 H 0.7787 0.8426 0.9638
C14_4 C 0.88868(13) 0.85035(13) 0.94496(13)
H7_4 H 0.9168 0.8525 0.9405
C16_4 C 0.82105(12) 0.85780(12) 0.92177(12)
H9_4 H 0.8025 0.8646 0.9012
C19_4 C 0.86215(12) 0.86095(11) 0.91478(11)
C24_4 C 0.87395(13) 0.83609(13) 0.98298(13)
C39_4 C 0.83377(11) 0.99087(12) 0.83342(12)
C40_4 C 0.99087(12) 0.83342(12) 0.83377(11)
C47_4 C 0.84448(12) 0.95943(12) 0.80680(11)
C48_4 C 0.95943(12) 0.80680(11) 0.84448(12)
H25_4 H 0.8426 0.9638 0.7787
H26_4 H 0.9638 0.7787 0.8426
C53_4 C 0.85035(13) 0.94496(13) 0.88868(13)
C54_4 C 0.94496(13) 0.88868(13) 0.85035(13)
H29_4 H 0.8525 0.9405 0.9168
H30_4 H 0.9405 0.9168 0.8525
C57_4 C 0.85780(12) 0.92177(12) 0.82105(12)
C58_4 C 0.92177(12) 0.82105(12) 0.85780(12)
H33_4 H 0.8646 0.9012 0.8025
H34_4 H 0.9012 0.8025 0.8646
C63_4 C 0.86095(11) 0.91478(11) 0.86215(12)
C64_4 C 0.91478(11) 0.86215(12) 0.86095(11)
C73_4 C 0.83609(13) 0.98298(13) 0.87395(13)
C74_4 C 0.98298(13) 0.87395(13) 0.83609(13)
N2_5 N 0.12359(10) 0.12359(10) 0.12359(10)
C7_5 C 0.16658(12) 0.16623(11) 0.00913(12)
C11_5 C 0.19320(11) 0.15552(12) 0.04057(12)
H5_5 H 0.2213 0.1574 0.0362
C14_5 C 0.11132(13) 0.14965(13) 0.05504(13)
H7_5 H 0.0832 0.1475 0.0595
C16_5 C 0.17895(12) 0.14220(12) 0.07823(12)
H9_5 H 0.1975 0.1354 0.0988
C19_5 C 0.13785(12) 0.13905(11) 0.08522(11)
C24_5 C 0.12605(13) 0.16391(13) 0.01702(13)
C39_5 C 0.16623(11) 0.00913(12) 0.16658(12)
C40_5 C 0.00913(12) 0.16658(12) 0.16623(11)
C47_5 C 0.15552(12) 0.04057(12) 0.19320(11)
C48_5 C 0.04057(12) 0.19320(11) 0.15552(12)
H25_5 H 0.1574 0.0362 0.2213
H26_5 H 0.0362 0.2213 0.1574
C53_5 C 0.14965(13) 0.05504(13) 0.11132(13)
C54_5 C 0.05504(13) 0.11132(13) 0.14965(13)
H29_5 H 0.1475 0.0595 0.0832
H30_5 H 0.0595 0.0832 0.1475
C57_5 C 0.14220(12) 0.07823(12) 0.17895(12)
C58_5 C 0.07823(12) 0.17895(12) 0.14220(12)
H33_5 H 0.1354 0.0988 0.1975
H34_5 H 0.0988 0.1975 0.1354
C63_5 C 0.13905(11) 0.08522(11) 0.13785(12)
C64_5 C 0.08522(11) 0.13785(12) 0.13905(11)
C73_5 C 0.16391(13) 0.01702(13) 0.12605(13)
C74_5 C 0.01702(13) 0.12605(13) 0.16391(13)
O1_5 O 0.25521(7) 0.20501(7) 0.83454(6)
O2_5 O 0.14855(8) 0.24893(7) 0.75233(8)
Zn1_2 Zn 0.282823(11) 0.217177(11) 0.782823(11)
Zn2_3 Zn 0.198900(11) 0.268731(10) 0.777305(11)
O3_2 O 0.24773(6) 0.25227(6) 0.74773(6)
O4_5 O 0.20055(7) 0.24647(8) 0.83185(7)
O5_3 O 0.17202(7) 0.21871(7) 0.69568(7)
C1_5 C 0.22343(12) 0.22022(11) 0.84903(10)
C2_5 C 0.14363(12) 0.22914(12) 0.71919(11)
C5_5 C 0.21724(10) 0.16481(11) 0.95056(11)
H2_5 H 0.2328 0.1456 0.9649
C8_5 C 0.20993(10) 0.20606(11) 0.89058(11)
C9_5 C 0.02178(12) 0.19187(11) 0.68695(11)
C12_5 C 0.18199(12) 0.17984(11) 0.96794(11)
C13_5 C 0.17512(14) 0.22319(14) 0.90803(13)
H6_5 H 0.1609 0.2436 0.894
C15_5 C 0.06842(11) 0.22531(12) 0.73247(12)
H8_5 H 0.0726 0.2399 0.7567
C18_5 C 0.10123(11) 0.21628(11) 0.70855(11)
C20_5 C 0.02929(11) 0.21371(11) 0.72219(12)
H10_5 H 0.0076 0.2207 0.7393
C21_5 C 0.23012(10) 0.17741(11) 0.91257(11)
H11_5 H 0.2537 0.1657 0.9015
C22_5 C 0.16120(15) 0.21012(15) 0.94640(14)
H12_5 H 0.1377 0.2218 0.9576
C23_5 C 0.09404(13) 0.19607(12) 0.67259(12)
H13_5 H 0.1157 0.1905 0.6548
H14_5 H 0.1074 0.1719 0.9969
C26_5 C 0.05453(13) 0.18379(12) 0.66238(12)
H16_5 H 0.050 0.1696 0.6380
O8_3 O 0.33454(6) 0.24479(7) 0.79499(7)
O9_3 O 0.29499(7) 0.16546(6) 0.75521(7)
Zn7_3 Zn 0.277305(11) 0.301100(11) 0.731269(10)
Zn8_2 Zn 0.231269(10) 0.222695(11) 0.698900(11)
O20_3 O 0.19568(7) 0.32798(7) 0.78129(7)
O6_3 O 0.20501(7) 0.83454(6) 0.25521(7)
O12_3 O 0.24893(7) 0.75233(8) 0.14855(8)
Zn3_2 Zn 0.217177(11) 0.782823(11) 0.282823(11)
Zn5_2 Zn 0.268731(10) 0.777305(11) 0.198900(11)
O14_2 O 0.25227(6) 0.74773(6) 0.24773(6)
O16_5 O 0.24647(8) 0.83185(7) 0.20055(7)
O21_3 O 0.32798(7) 0.78129(7) 0.19568(7)
C27_5 C 0.22022(11) 0.84903(10) 0.22343(12)
C35_5 C 0.16481(11) 0.95056(11) 0.21724(10)
H19_5 H 0.1456 0.9649 0.2328
C41_5 C 0.20606(11) 0.89058(11) 0.20993(10)
C49_5 C 0.17984(11) 0.96794(11) 0.18199(12)
C51_5 C 0.22319(14) 0.90803(13) 0.17512(14)
H27_5 H 0.2436 0.894 0.1609
C67_5 C 0.17741(11) 0.91257(11) 0.23012(10)
H37_5 H 0.1657 0.9015 0.2537
C69_5 C 0.21012(15) 0.94640(14) 0.16120(15)
H39_5 H 0.2218 0.9576 0.1377
H43_5 H 0.1719 0.9969 0.1074
O7_3 O 0.83454(6) 0.25521(7) 0.20501(7)
O13_3 O 0.75233(8) 0.14855(8) 0.24893(7)
Zn4_3 Zn 0.782823(11) 0.282823(11) 0.217177(11)
Zn6 Zn 0.777305(11) 0.198900(11) 0.268731(10)
O15_3 O 0.74773(6) 0.24773(6) 0.25227(6)
O17_5 O 0.83185(7) 0.20055(7) 0.24647(8)
O22_3 O 0.78129(7) 0.19568(7) 0.32798(7)
C28_5 C 0.84903(10) 0.22343(12) 0.22022(11)
C36_5 C 0.95056(11) 0.21724(10) 0.16481(11)
H20_5 H 0.9649 0.2328 0.1456
C42_5 C 0.89058(11) 0.20993(10) 0.20606(11)
C50_5 C 0.96794(11) 0.18199(12) 0.17984(11)
C52_5 C 0.90803(13) 0.17512(14) 0.22319(14)
H28_5 H 0.894 0.1609 0.2436
C68_5 C 0.91257(11) 0.23012(10) 0.17741(11)
H38_5 H 0.9015 0.2537 0.1657
C70_5 C 0.94640(14) 0.16120(15) 0.21012(15)
H40_5 H 0.9576 0.1377 0.2218
H44_5 H 0.9969 0.1074 0.1719
C3_5 C 0.90099(10) 0.15329(10) 0.65008(9)
C4_5 C 0.91041(10) 0.15813(10) 0.69148(10)
H1_5 H 0.8905 0.1531 0.7113
N1_5 N 0.86126(9) 0.13874(9) 0.63874(9)
C6_5 C 0.94919(11) 0.17029(11) 0.70319(10)
H3_5 H 0.955 0.173 0.7310
C10_5 C 0.96910(11) 0.17561(11) 0.63407(10)
H4_5 H 0.9885 0.1822 0.6142
C17_5 C 0.97983(10) 0.17853(11) 0.67469(10)
C25_5 C 0.93024(11) 0.16319(10) 0.62146(9)
H15_5 H 0.9241 0.1616 0.5936
O11_3 O 0.75107(7) 0.25233(8) 0.35145(8)
Zn11_3 Zn 0.731269(10) 0.277305(11) 0.301100(11)
C30_5 C 0.77086(12) 0.21919(11) 0.35637(12)
C31_5 C 0.84992(9) 0.09901(10) 0.65329(10)
C32_5 C 0.84671(10) 0.15008(9) 0.59901(10)
C33_5 C 0.80852(10) 0.08959(10) 0.65813(10)
C34_5 C 0.84187(10) 0.19148(10) 0.58959(10)
H17_5 H 0.7887 0.1095 0.6531
H18_5 H 0.8469 0.2113 0.6095
C37_5 C 0.79681(10) 0.05081(11) 0.67029(11)
C38_5 C 0.82971(11) 0.20319(10) 0.55081(11)
H21_5 H 0.7690 0.045 0.673
H22_5 H 0.827 0.2310 0.545
C44_5 C 0.80813(11) 0.18695(11) 0.47822(12)
C45_5 C 0.86593(10) 0.03090(11) 0.67561(11)
C46_5 C 0.82439(11) 0.13407(10) 0.53090(11)
H23_5 H 0.8858 0.0115 0.6822
H24_5 H 0.8178 0.1142 0.5115
C56_5 C 0.77469(12) 0.23247(12) 0.43158(11)
H32_5 H 0.7601 0.2567 0.4274
C59_5 C 0.82531(10) 0.02017(10) 0.67853(11)
C60_5 C 0.82147(11) 0.17469(10) 0.52017(10)
C62_5 C 0.78372(11) 0.20855(11) 0.39877(11)
C66_5 C 0.78629(11) 0.22219(12) 0.47071(11)
H36_5 H 0.7793 0.2393 0.4924
C72_5 C 0.80393(12) 0.17259(12) 0.40596(13)
H42_5 H 0.8095 0.1548 0.3843
C75_5 C 0.87854(9) 0.06976(11) 0.66319(10)
C76_5 C 0.83681(10) 0.12146(9) 0.56976(11)
H45_5 H 0.9064 0.0759 0.6616
H46_5 H 0.8384 0.0936 0.5759
C78_5 C 0.81621(12) 0.16238(12) 0.44547(13)
H48_5 H 0.8304 0.1380 0.450
O10_3 O 0.74767(8) 0.85145(8) 0.74893(7)
Zn9_2 Zn 0.722695(11) 0.801100(11) 0.768731(10)
Zn10_3 Zn 0.801100(11) 0.768731(10) 0.722695(11)
O18_3 O 0.80432(7) 0.82798(7) 0.71871(7)
C29_5 C 0.78081(11) 0.85637(12) 0.72914(12)
C43_5 C 0.81305(11) 0.97822(12) 0.69187(11)
C55_5 C 0.76753(12) 0.93158(11) 0.72531(12)
H31_5 H 0.7433 0.9274 0.7399
C61_5 C 0.79145(11) 0.89877(11) 0.71628(11)
C65_5 C 0.77781(12) 0.97071(11) 0.71371(11)
H35_5 H 0.7607 0.9924 0.7207
C71_5 C 0.82741(12) 0.90596(13) 0.69607(12)
H41_5 H 0.8452 0.8843 0.6905
C77_5 C 0.83762(12) 0.94547(13) 0.68379(12)
H47_5 H 0.8620 0.950 0.6696
O12_4 O 0.25107(7) 0.24767(8) 0.64855(8)
Zn10_4 Zn 0.698900(11) 0.231269(10) 0.222695(11)
O16_6 O 0.25353(8) 0.16815(7) 0.70055(7)
O18_4 O 0.69568(7) 0.17202(7) 0.21871(7)
C27_6 C 0.27978(11) 0.15097(10) 0.72343(12)
C29_6 C 0.71919(11) 0.14363(12) 0.22914(12)
C35_6 C 0.33519(11) 0.04944(11) 0.71724(10)
H19_6 H 0.3544 0.0351 0.7328
C41_6 C 0.29394(11) 0.10942(11) 0.70993(10)
C43_6 C 0.68695(11) 0.02178(12) 0.19187(11)
C49_6 C 0.32016(11) 0.03206(11) 0.68199(12)
C51_6 C 0.27681(14) 0.09197(13) 0.67512(14)
H27_6 H 0.2564 0.106 0.6609
C55_6 C 0.73247(12) 0.06842(11) 0.22531(12)
H31_6 H 0.7567 0.0726 0.2399
C61_6 C 0.70855(11) 0.10123(11) 0.21628(11)
C65_6 C 0.72219(12) 0.02929(11) 0.21371(11)
H35_6 H 0.7393 0.0076 0.2207
C67_6 C 0.32259(11) 0.08743(11) 0.73012(10)
H37_6 H 0.3343 0.0985 0.7537
C69_6 C 0.28988(15) 0.05360(14) 0.66120(15)
H39_6 H 0.2782 0.0424 0.6377
C71_6 C 0.67259(12) 0.09404(13) 0.19607(12)
H41_6 H 0.6548 0.1157 0.1905
H43_6 H 0.3281 0.0031 0.6074
C77_6 C 0.66238(12) 0.05453(13) 0.18379(12)
H47_6 H 0.6380 0.050 0.1696
O1_6 O 0.24479(7) 0.79499(7) 0.33454(6)
O2_6 O 0.35145(8) 0.75107(7) 0.25233(8)
Zn2_4 Zn 0.301100(11) 0.731269(10) 0.277305(11)
O4_6 O 0.29945(7) 0.75353(8) 0.33185(7)
C1_6 C 0.27657(12) 0.77978(11) 0.34903(10)
C2_6 C 0.35637(12) 0.77086(12) 0.21919(11)
C3_6 C 0.59901(10) 0.84671(10) 0.15008(9)
C4_6 C 0.58959(10) 0.84187(10) 0.19148(10)
H1_6 H 0.6095 0.8469 0.2113
N1_6 N 0.63874(9) 0.86126(9) 0.13874(9)
C5_6 C 0.28276(10) 0.83519(11) 0.45056(11)
H2_6 H 0.2672 0.8544 0.4649
N2_6 N 0.37641(10) 0.87641(10) 0.62359(10)
C6_6 C 0.55081(11) 0.82971(11) 0.20319(10)
H3_6 H 0.545 0.827 0.2310
C7_6 C 0.33342(12) 0.83377(11) 0.50913(12)
C8_6 C 0.29007(10) 0.79394(11) 0.39058(11)
C9_6 C 0.47822(12) 0.80813(11) 0.18695(11)
C10_6 C 0.53090(11) 0.82439(11) 0.13407(10)
H4_6 H 0.5115 0.8178 0.1142
C11_6 C 0.30680(11) 0.84448(12) 0.54057(12)
H5_6 H 0.2787 0.8426 0.5362
C12_6 C 0.31801(12) 0.82016(11) 0.46794(11)
C13_6 C 0.32488(14) 0.77681(14) 0.40803(13)
H6_6 H 0.3391 0.7564 0.394
C14_6 C 0.38868(13) 0.85035(13) 0.55504(13)
H7_6 H 0.4168 0.8525 0.5595
C15_6 C 0.43158(11) 0.77469(12) 0.23247(12)
H8_6 H 0.4274 0.7601 0.2567
C16_6 C 0.32105(12) 0.85780(12) 0.57823(12)
H9_6 H 0.3025 0.8646 0.5988
C17_6 C 0.52017(10) 0.82147(11) 0.17469(10)
C18_6 C 0.39877(11) 0.78372(11) 0.20855(11)
C19_6 C 0.36215(12) 0.86095(11) 0.58522(11)
C20_6 C 0.47071(11) 0.78629(11) 0.22219(12)
H10_6 H 0.4924 0.7793 0.2393
C21_6 C 0.26988(10) 0.82259(11) 0.41257(11)
H11_6 H 0.2463 0.8343 0.4015
C22_6 C 0.33880(15) 0.78988(15) 0.44640(14)
H12_6 H 0.3623 0.7782 0.4576
C23_6 C 0.40596(13) 0.80393(12) 0.17259(12)
H13_6 H 0.3843 0.8095 0.1548
C24_6 C 0.37395(13) 0.83609(13) 0.51702(13)
H14_6 H 0.3926 0.8281 0.4969
C25_6 C 0.56976(11) 0.83681(10) 0.12146(9)
H15_6 H 0.5759 0.8384 0.0936
C26_6 C 0.44547(13) 0.81621(12) 0.16238(12)
H16_6 H 0.450 0.8304 0.1380
O7_4 O 0.66546(6) 0.74479(7) 0.70501(7)
O8_4 O 0.16546(6) 0.75521(7) 0.29499(7)
Zn4_4 Zn 0.717177(11) 0.717177(11) 0.717177(11)
Zn7_4 Zn 0.222695(11) 0.698900(11) 0.231269(10)
O15_4 O 0.75227(6) 0.75227(6) 0.75227(6)
O17_6 O 0.66815(7) 0.79945(7) 0.74647(8)
O20_4 O 0.30432(7) 0.67202(7) 0.28129(7)
O22_4 O 0.71871(7) 0.80432(7) 0.82798(7)
C28_6 C 0.65097(10) 0.77657(12) 0.72022(11)
C31_6 C 0.65008(9) 0.90099(10) 0.15329(10)
C32_6 C 0.65329(10) 0.84992(9) 0.09901(10)
C33_6 C 0.69148(10) 0.91041(10) 0.15813(10)
C34_6 C 0.65813(10) 0.80852(10) 0.08959(10)
H17_6 H 0.7113 0.8905 0.1531
H18_6 H 0.6531 0.7887 0.1095
C36_6 C 0.54944(11) 0.78276(10) 0.66481(11)
H20_6 H 0.5351 0.7672 0.6456
C37_6 C 0.70319(10) 0.94919(11) 0.17029(11)
C38_6 C 0.67029(11) 0.79681(10) 0.05081(11)
H21_6 H 0.7310 0.955 0.173
H22_6 H 0.673 0.7690 0.045
C39_6 C 0.33377(11) 0.99087(12) 0.66658(12)
C40_6 C 0.49087(12) 0.83342(12) 0.66623(11)
C42_6 C 0.60942(11) 0.79007(10) 0.70606(11)
C45_6 C 0.63407(10) 0.96910(11) 0.17561(11)
C46_6 C 0.67561(11) 0.86593(10) 0.03090(11)
H23_6 H 0.6142 0.9885 0.1822
H24_6 H 0.6822 0.8858 0.0115
C47_6 C 0.34448(12) 0.95943(12) 0.69320(11)
C48_6 C 0.45943(12) 0.80680(11) 0.65552(12)
H25_6 H 0.3426 0.9638 0.7213
H26_6 H 0.4638 0.7787 0.6574
C50_6 C 0.53206(11) 0.81801(12) 0.67984(11)
C52_6 C 0.59197(13) 0.82488(14) 0.72319(14)
H28_6 H 0.606 0.8391 0.7436
C53_6 C 0.35035(13) 0.94496(13) 0.61132(13)
C54_6 C 0.44496(13) 0.88868(13) 0.64965(13)
H29_6 H 0.3525 0.9405 0.5832
H30_6 H 0.4405 0.9168 0.6475
C57_6 C 0.35780(12) 0.92177(12) 0.67895(12)
C58_6 C 0.42177(12) 0.82105(12) 0.64220(12)
H33_6 H 0.3646 0.9012 0.6975
H34_6 H 0.4012 0.8025 0.6354
C59_6 C 0.67469(10) 0.97983(10) 0.17853(11)
C60_6 C 0.67853(11) 0.82531(10) 0.02017(10)
C63_6 C 0.36095(11) 0.91478(11) 0.63785(12)
C64_6 C 0.41478(11) 0.86215(12) 0.63905(11)
C68_6 C 0.58743(11) 0.76988(10) 0.67741(11)
H38_6 H 0.5985 0.7463 0.6657
C70_6 C 0.55360(14) 0.83880(15) 0.71012(15)
H40_6 H 0.5424 0.8623 0.7218
C73_6 C 0.33609(13) 0.98298(13) 0.62605(13)
C74_6 C 0.48298(13) 0.87395(13) 0.66391(13)
H44_6 H 0.5031 0.8926 0.6719
C75_6 C 0.62146(9) 0.93024(11) 0.16319(10)
C76_6 C 0.66319(10) 0.87854(9) 0.06976(11)
H45_6 H 0.5936 0.9241 0.1616
H46_6 H 0.6616 0.9064 0.0759
O11_4 O 0.74893(7) 0.74767(8) 0.85145(8)
Zn11_4 Zn 0.768731(10) 0.722695(11) 0.801100(11)
C30_6 C 0.72914(12) 0.78081(11) 0.85637(12)
C44_6 C 0.69187(11) 0.81305(11) 0.97822(12)
C56_6 C 0.72531(12) 0.76753(12) 0.93158(11)
H32_6 H 0.7399 0.7433 0.9274
C62_6 C 0.71628(11) 0.79145(11) 0.89877(11)
C66_6 C 0.71371(11) 0.77781(12) 0.97071(11)
H36_6 H 0.7207 0.7607 0.9924
C72_6 C 0.69607(12) 0.82741(12) 0.90596(13)
H42_6 H 0.6905 0.8452 0.8843
C78_6 C 0.68379(12) 0.83762(12) 0.94547(13)
H48_6 H 0.6696 0.8620 0.950
O1_7 O 0.75521(7) 0.29499(7) 0.16546(6)
O2_7 O 0.64855(8) 0.25107(7) 0.24767(8)
O4_7 O 0.70055(7) 0.25353(8) 0.16815(7)
O5_4 O 0.67202(7) 0.28129(7) 0.30432(7)
C1_7 C 0.72343(12) 0.27978(11) 0.15097(10)
C2_7 C 0.64363(12) 0.27086(12) 0.28081(11)
C3_7 C 0.40099(10) 0.34671(10) 0.34992(9)
C4_7 C 0.41041(10) 0.34187(10) 0.30852(10)
H1_7 H 0.3905 0.3469 0.2887
N1_7 N 0.36126(9) 0.36126(9) 0.36126(9)
C5_7 C 0.71724(10) 0.33519(11) 0.04944(11)
H2_7 H 0.7328 0.3544 0.0351
C6_7 C 0.44919(11) 0.32971(11) 0.29681(10)
H3_7 H 0.455 0.327 0.2690
C8_7 C 0.70993(10) 0.29394(11) 0.10942(11)
C9_7 C 0.52178(12) 0.30813(11) 0.31305(11)
C10_7 C 0.46910(11) 0.32439(11) 0.36593(10)
H4_7 H 0.4885 0.3178 0.3858
C12_7 C 0.68199(12) 0.32016(11) 0.03206(11)
C13_7 C 0.67512(14) 0.27681(14) 0.09197(13)
H6_7 H 0.6609 0.2564 0.106
C15_7 C 0.56842(11) 0.27469(12) 0.26753(12)
H8_7 H 0.5726 0.2601 0.2433
C17_7 C 0.47983(10) 0.32147(11) 0.32531(10)
C18_7 C 0.60123(11) 0.28372(11) 0.29145(11)
C20_7 C 0.52929(11) 0.28629(11) 0.27781(12)
H10_7 H 0.5076 0.2793 0.2607
C21_7 C 0.73012(10) 0.32259(11) 0.08743(11)
H11_7 H 0.7537 0.3343 0.0985
C22_7 C 0.66120(15) 0.28988(15) 0.05360(14)
H12_7 H 0.6377 0.2782 0.0424
C23_7 C 0.59404(13) 0.30393(12) 0.32741(12)
H13_7 H 0.6157 0.3095 0.3452
H14_7 H 0.6074 0.3281 0.0031
C25_7 C 0.43024(11) 0.33681(10) 0.37854(9)
H15_7 H 0.4241 0.3384 0.4064
C26_7 C 0.55453(13) 0.31621(12) 0.33762(12)
H16_7 H 0.550 0.3304 0.3620
O9_4 O 0.79499(7) 0.33454(6) 0.24479(7)
O10_4 O 0.24767(8) 0.64855(8) 0.25107(7)
O19_3 O 0.28129(7) 0.30432(7) 0.67202(7)
C29_7 C 0.28081(11) 0.64363(12) 0.27086(12)
C30_7 C 0.27086(12) 0.28081(11) 0.64363(12)
C31_7 C 0.34992(9) 0.40099(10) 0.34671(10)
C32_7 C 0.34671(10) 0.34992(9) 0.40099(10)
C33_7 C 0.30852(10) 0.41041(10) 0.34187(10)
C34_7 C 0.34187(10) 0.30852(10) 0.41041(10)
H17_7 H 0.2887 0.3905 0.3469
H18_7 H 0.3469 0.2887 0.3905
C37_7 C 0.29681(10) 0.44919(11) 0.32971(11)
C38_7 C 0.32971(11) 0.29681(10) 0.44919(11)
H21_7 H 0.2690 0.455 0.327
H22_7 H 0.327 0.2690 0.455
C43_7 C 0.31305(11) 0.52178(12) 0.30813(11)
C44_7 C 0.30813(11) 0.31305(11) 0.52178(12)
C45_7 C 0.36593(10) 0.46910(11) 0.32439(11)
C46_7 C 0.32439(11) 0.36593(10) 0.46910(11)
H23_7 H 0.3858 0.4885 0.3178
H24_7 H 0.3178 0.3858 0.4885
C55_7 C 0.26753(12) 0.56842(11) 0.27469(12)
C56_7 C 0.27469(12) 0.26753(12) 0.56842(11)
H31_7 H 0.2433 0.5726 0.2601
H32_7 H 0.2601 0.2433 0.5726
C59_7 C 0.32531(10) 0.47983(10) 0.32147(11)
C60_7 C 0.32147(11) 0.32531(10) 0.47983(10)
C61_7 C 0.29145(11) 0.60123(11) 0.28372(11)
C62_7 C 0.28372(11) 0.29145(11) 0.60123(11)
C65_7 C 0.27781(12) 0.52929(11) 0.28629(11)
C66_7 C 0.28629(11) 0.27781(12) 0.52929(11)
H35_7 H 0.2607 0.5076 0.2793
H36_7 H 0.2793 0.2607 0.5076
C71_7 C 0.32741(12) 0.59404(13) 0.30393(12)
C72_7 C 0.30393(12) 0.32741(12) 0.59404(13)
H41_7 H 0.3452 0.6157 0.3095
H42_7 H 0.3095 0.3452 0.6157
C75_7 C 0.37854(9) 0.43024(11) 0.33681(10)
C76_7 C 0.33681(10) 0.37854(9) 0.43024(11)
H45_7 H 0.4064 0.4241 0.3384
H46_7 H 0.3384 0.4064 0.4241
C77_7 C 0.33762(12) 0.55453(13) 0.31621(12)
C78_7 C 0.31621(12) 0.33762(12) 0.55453(13)
H47_7 H 0.3620 0.550 0.3304
H48_7 H 0.3304 0.3620 0.550
N2_7 N 0.62359(10) 0.37641(10) 0.87641(10)
C7_7 C 0.66658(12) 0.33377(11) 0.99087(12)
C11_7 C 0.69320(11) 0.34448(12) 0.95943(12)
H5_7 H 0.7213 0.3426 0.9638
C14_7 C 0.61132(13) 0.35035(13) 0.94496(13)
H7_7 H 0.5832 0.3525 0.9405
C16_7 C 0.67895(12) 0.35780(12) 0.92177(12)
H9_7 H 0.6975 0.3646 0.9012
C19_7 C 0.63785(12) 0.36095(11) 0.91478(11)
C24_7 C 0.62605(13) 0.33609(13) 0.98298(13)
O6_4 O 0.70501(7) 0.66546(6) 0.74479(7)
O13_4 O 0.25233(8) 0.35145(8) 0.75107(7)
O16_7 O 0.74647(8) 0.66815(7) 0.79945(7)
O17_7 O 0.33185(7) 0.29945(7) 0.75353(8)
O21_4 O 0.82798(7) 0.71871(7) 0.80432(7)
C27_7 C 0.72022(11) 0.65097(10) 0.77657(12)
C28_7 C 0.34903(10) 0.27657(12) 0.77978(11)
C35_7 C 0.66481(11) 0.54944(11) 0.78276(10)
C36_7 C 0.45056(11) 0.28276(10) 0.83519(11)
H19_7 H 0.6456 0.5351 0.7672
H20_7 H 0.4649 0.2672 0.8544
C39_7 C 0.66623(11) 0.49087(12) 0.83342(12)
C40_7 C 0.50913(12) 0.33342(12) 0.83377(11)
C41_7 C 0.70606(11) 0.60942(11) 0.79007(10)
C42_7 C 0.39058(11) 0.29007(10) 0.79394(11)
C47_7 C 0.65552(12) 0.45943(12) 0.80680(11)
C48_7 C 0.54057(12) 0.30680(11) 0.84448(12)
H25_7 H 0.6574 0.4638 0.7787
H26_7 H 0.5362 0.2787 0.8426
C49_7 C 0.67984(11) 0.53206(11) 0.81801(12)
C50_7 C 0.46794(11) 0.31801(12) 0.82016(11)
C51_7 C 0.72319(14) 0.59197(13) 0.82488(14)
C52_7 C 0.40803(13) 0.32488(14) 0.77681(14)
H27_7 H 0.7436 0.606 0.8391
H28_7 H 0.394 0.3391 0.7564
C53_7 C 0.64965(13) 0.44496(13) 0.88868(13)
C54_7 C 0.55504(13) 0.38868(13) 0.85035(13)
H29_7 H 0.6475 0.4405 0.9168
H30_7 H 0.5595 0.4168 0.8525
C57_7 C 0.64220(12) 0.42177(12) 0.82105(12)
C58_7 C 0.57823(12) 0.32105(12) 0.85780(12)
H33_7 H 0.6354 0.4012 0.8025
H34_7 H 0.5988 0.3025 0.8646
C63_7 C 0.63905(11) 0.41478(11) 0.86215(12)
C64_7 C 0.58522(11) 0.36215(12) 0.86095(11)
C67_7 C 0.67741(11) 0.58743(11) 0.76988(10)
C68_7 C 0.41257(11) 0.26988(10) 0.82259(11)
H37_7 H 0.6657 0.5985 0.7463
H38_7 H 0.4015 0.2463 0.8343
C69_7 C 0.71012(15) 0.55360(14) 0.83880(15)
C70_7 C 0.44640(14) 0.33880(15) 0.78988(15)
H39_7 H 0.7218 0.5424 0.8623
H40_7 H 0.4576 0.3623 0.7782
C73_7 C 0.66391(13) 0.48298(13) 0.87395(13)
C74_7 C 0.51702(13) 0.37395(13) 0.83609(13)
H43_7 H 0.6719 0.5031 0.8926
H44_7 H 0.4969 0.3926 0.8281
O19_4 O 0.21871(7) 0.69568(7) 0.17202(7)
C30_8 C 0.22914(12) 0.71919(11) 0.14363(12)
C44_8 C 0.19187(11) 0.68695(11) 0.02178(12)
C56_8 C 0.22531(12) 0.73247(12) 0.06842(11)
H32_8 H 0.2399 0.7567 0.0726
C62_8 C 0.21628(11) 0.70855(11) 0.10123(11)
C66_8 C 0.21371(11) 0.72219(12) 0.02929(11)
H36_8 H 0.2207 0.7393 0.0076
C72_8 C 0.19607(12) 0.67259(12) 0.09404(13)
H42_8 H 0.1905 0.6548 0.1157
C78_8 C 0.18379(12) 0.66238(12) 0.05453(13)
H48_8 H 0.1696 0.6380 0.050
C3_8 C 0.09901(10) 0.65329(10) 0.84992(9)
C4_8 C 0.08959(10) 0.65813(10) 0.80852(10)
H1_8 H 0.1095 0.6531 0.7887
N1_8 N 0.13874(9) 0.63874(9) 0.86126(9)
C6_8 C 0.05081(11) 0.67029(11) 0.79681(10)
H3_8 H 0.045 0.673 0.7690
C10_8 C 0.03090(11) 0.67561(11) 0.86593(10)
H4_8 H 0.0115 0.6822 0.8858
C17_8 C 0.02017(10) 0.67853(11) 0.82531(10)
C25_8 C 0.06976(11) 0.66319(10) 0.87854(9)
H15_8 H 0.0759 0.6616 0.9064
O17_8 O 0.16815(7) 0.70055(7) 0.25353(8)
C28_8 C 0.15097(10) 0.72343(12) 0.27978(11)
C29_8 C 0.21919(11) 0.35637(12) 0.77086(12)
C31_8 C 0.15008(9) 0.59901(10) 0.84671(10)
C32_8 C 0.15329(10) 0.65008(9) 0.90099(10)
C33_8 C 0.19148(10) 0.58959(10) 0.84187(10)
C34_8 C 0.15813(10) 0.69148(10) 0.91041(10)
H17_8 H 0.2113 0.6095 0.8469
H18_8 H 0.1531 0.7113 0.8905
C36_8 C 0.04944(11) 0.71724(10) 0.33519(11)
H20_8 H 0.0351 0.7328 0.3544
C37_8 C 0.20319(10) 0.55081(11) 0.82971(11)
C38_8 C 0.17029(11) 0.70319(10) 0.94919(11)
H21_8 H 0.2310 0.545 0.827
H22_8 H 0.173 0.7310 0.955
C42_8 C 0.10942(11) 0.70993(10) 0.29394(11)
C43_8 C 0.18695(11) 0.47822(12) 0.80813(11)
C45_8 C 0.13407(10) 0.53090(11) 0.82439(11)
C46_8 C 0.17561(11) 0.63407(10) 0.96910(11)
H23_8 H 0.1142 0.5115 0.8178
H24_8 H 0.1822 0.6142 0.9885
C50_8 C 0.03206(11) 0.68199(12) 0.32016(11)
C52_8 C 0.09197(13) 0.67512(14) 0.27681(14)
H28_8 H 0.106 0.6609 0.2564
C55_8 C 0.23247(12) 0.43158(11) 0.77469(12)
H31_8 H 0.2567 0.4274 0.7601
C59_8 C 0.17469(10) 0.52017(10) 0.82147(11)
C60_8 C 0.17853(11) 0.67469(10) 0.97983(10)
C61_8 C 0.20855(11) 0.39877(11) 0.78372(11)
C65_8 C 0.22219(12) 0.47071(11) 0.78629(11)
H35_8 H 0.2393 0.4924 0.7793
C68_8 C 0.08743(11) 0.73012(10) 0.32259(11)
H38_8 H 0.0985 0.7537 0.3343
C70_8 C 0.05360(14) 0.66120(15) 0.28988(15)
H40_8 H 0.0424 0.6377 0.2782
C71_8 C 0.17259(12) 0.40596(13) 0.80393(12)
H41_8 H 0.1548 0.3843 0.8095
H44_8 H 0.0031 0.6074 0.3281
C75_8 C 0.12146(9) 0.56976(11) 0.83681(10)
C76_8 C 0.16319(10) 0.62146(9) 0.93024(11)
H45_8 H 0.0936 0.5759 0.8384
H46_8 H 0.1616 0.5936 0.9241
C77_8 C 0.16238(12) 0.44547(13) 0.81621(12)
H47_8 H 0.1380 0.450 0.8304
O1_8 O 0.74479(7) 0.70501(7) 0.66546(6)
O2_8 O 0.85145(8) 0.74893(7) 0.74767(8)
O4_8 O 0.79945(7) 0.74647(8) 0.66815(7)
C1_8 C 0.77657(12) 0.72022(11) 0.65097(10)
C2_8 C 0.85637(12) 0.72914(12) 0.78081(11)
C5_8 C 0.78276(10) 0.66481(11) 0.54944(11)
H2_8 H 0.7672 0.6456 0.5351
N2_8 N 0.87641(10) 0.62359(10) 0.37641(10)
C7_8 C 0.83342(12) 0.66623(11) 0.49087(12)
C8_8 C 0.79007(10) 0.70606(11) 0.60942(11)
C9_8 C 0.97822(12) 0.69187(11) 0.81305(11)
C11_8 C 0.80680(11) 0.65552(12) 0.45943(12)
H5_8 H 0.7787 0.6574 0.4638
C12_8 C 0.81801(12) 0.67984(11) 0.53206(11)
C13_8 C 0.82488(14) 0.72319(14) 0.59197(13)
H6_8 H 0.8391 0.7436 0.606
C14_8 C 0.88868(13) 0.64965(13) 0.44496(13)
H7_8 H 0.9168 0.6475 0.4405
C15_8 C 0.93158(11) 0.72531(12) 0.76753(12)
H8_8 H 0.9274 0.7399 0.7433
C16_8 C 0.82105(12) 0.64220(12) 0.42177(12)
H9_8 H 0.8025 0.6354 0.4012
C18_8 C 0.89877(11) 0.71628(11) 0.79145(11)
C19_8 C 0.86215(12) 0.63905(11) 0.41478(11)
C20_8 C 0.97071(11) 0.71371(11) 0.77781(12)
H10_8 H 0.9924 0.7207 0.7607
C21_8 C 0.76988(10) 0.67741(11) 0.58743(11)
H11_8 H 0.7463 0.6657 0.5985
C22_8 C 0.83880(15) 0.71012(15) 0.55360(14)
H12_8 H 0.8623 0.7218 0.5424
C23_8 C 0.90596(13) 0.69607(12) 0.82741(12)
H13_8 H 0.8843 0.6905 0.8452
C24_8 C 0.87395(13) 0.66391(13) 0.48298(13)
H14_8 H 0.8926 0.6719 0.5031
C26_8 C 0.94547(13) 0.68379(12) 0.83762(12)
H16_8 H 0.950 0.6696 0.8620
O16_8 O 0.75353(8) 0.33185(7) 0.29945(7)
C27_8 C 0.77978(11) 0.34903(10) 0.27657(12)
C35_8 C 0.83519(11) 0.45056(11) 0.28276(10)
H19_8 H 0.8544 0.4649 0.2672
C39_8 C 0.83377(11) 0.50913(12) 0.33342(12)
C40_8 C 0.99087(12) 0.66658(12) 0.33377(11)
C41_8 C 0.79394(11) 0.39058(11) 0.29007(10)
C47_8 C 0.84448(12) 0.54057(12) 0.30680(11)
C48_8 C 0.95943(12) 0.69320(11) 0.34448(12)
H25_8 H 0.8426 0.5362 0.2787
H26_8 H 0.9638 0.7213 0.3426
C49_8 C 0.82016(11) 0.46794(11) 0.31801(12)
C51_8 C 0.77681(14) 0.40803(13) 0.32488(14)
H27_8 H 0.7564 0.394 0.3391
C53_8 C 0.85035(13) 0.55504(13) 0.38868(13)
C54_8 C 0.94496(13) 0.61132(13) 0.35035(13)
H29_8 H 0.8525 0.5595 0.4168
H30_8 H 0.9405 0.5832 0.3525
C57_8 C 0.85780(12) 0.57823(12) 0.32105(12)
C58_8 C 0.92177(12) 0.67895(12) 0.35780(12)
H33_8 H 0.8646 0.5988 0.3025
H34_8 H 0.9012 0.6975 0.3646
C63_8 C 0.86095(11) 0.58522(11) 0.36215(12)
C64_8 C 0.91478(11) 0.63785(12) 0.36095(11)
C67_8 C 0.82259(11) 0.41257(11) 0.26988(10)
H37_8 H 0.8343 0.4015 0.2463
C69_8 C 0.78988(15) 0.44640(14) 0.33880(15)
H39_8 H 0.7782 0.4576 0.3623
C73_8 C 0.83609(13) 0.51702(13) 0.37395(13)
C74_8 C 0.98298(13) 0.62605(13) 0.33609(13)
H43_8 H 0.8281 0.4969 0.3926
loop_
_geom_bond_atom_site_label_1
_geom_bond_atom_site_label_2
_geom_bond_site_symmetry_1
_geom_bond_site_symmetry_2
O10 Zn9 1_555 1_555
Zn10 O18 1_555 1_555
O18 C29 1_555 1_555
C29 O10 1_555 1_555
C55 H31 1_555 1_555
C61 C29 1_555 1_555
C65 C43 1_555 1_555
H35 C65 1_555 1_555
C71 C61 1_555 1_555
H41 C71 1_555 1_555
C77 C43 1_555 1_555
H47 C77 1_555 1_555
C55 C61 1_555 1_555
C55 C65 1_555 1_555
C71 C77 1_555 1_555
C3 C4 1_555 1_555
C4 H1 1_555 1_555
N1 C3 1_555 1_555
C6 C4 1_555 1_555
H3 C6 1_555 1_555
C10 H4 1_555 1_555
C17 C6 1_555 1_555
C25 C3 1_555 1_555
H15 C25 1_555 1_555
O11 Zn11 1_555 1_555
Zn12 O19 1_555 1_555
O19 C30 1_555 1_555
C30 O11 1_555 1_555
C31 N1 1_555 1_555
C32 N1 1_555 1_555
C33 C31 1_555 1_555
C34 C32 1_555 1_555
H17 C33 1_555 1_555
H18 C34 1_555 1_555
C37 C33 1_555 1_555
C38 C34 1_555 1_555
H21 C37 1_555 1_555
H22 C38 1_555 1_555
C44 C60 1_555 1_555
C45 H23 1_555 1_555
C46 H24 1_555 1_555
C56 H32 1_555 1_555
C59 C37 1_555 1_555
C60 C38 1_555 1_555
C62 C30 1_555 1_555
C66 C44 1_555 1_555
H36 C66 1_555 1_555
C72 C62 1_555 1_555
H42 C72 1_555 1_555
C75 C31 1_555 1_555
C76 C32 1_555 1_555
H45 C75 1_555 1_555
H46 C76 1_555 1_555
C78 C44 1_555 1_555
H48 C78 1_555 1_555
C10 C17 1_555 1_555
C10 C25 1_555 1_555
C45 C59 1_555 1_555
C45 C75 1_555 1_555
C46 C60 1_555 1_555
C46 C76 1_555 1_555
C56 C62 1_555 1_555
C56 C66 1_555 1_555
C72 C78 1_555 1_555
O7 Zn4 1_555 1_555
O13 Zn12 1_555 1_555
Zn4 O15 1_555 1_555
Zn12 O15 1_555 1_555
O17 Zn12 1_555 1_555
C28 O7 1_555 1_555
C36 H20 1_555 1_555
C42 C28 1_555 1_555
C50 C36 1_555 1_555
C52 C42 1_555 1_555
H28 C52 1_555 1_555
C68 C36 1_555 1_555
H38 C68 1_555 1_555
C70 C50 1_555 1_555
H40 C70 1_555 1_555
O17 C28 1_555 1_555
C42 C68 1_555 1_555
C52 C70 1_555 1_555
O6 Zn3 1_555 1_555
O12 Zn5 1_555 1_555
Zn3 O14 1_555 1_555
Zn5 O14 1_555 1_555
O16 Zn5 1_555 1_555
O21 Zn5 1_555 1_555
C27 O6 1_555 1_555
C35 H19 1_555 1_555
C41 C27 1_555 1_555
C49 C35 1_555 1_555
C51 C41 1_555 1_555
H27 C51 1_555 1_555
C67 C35 1_555 1_555
H37 C67 1_555 1_555
C69 C49 1_555 1_555
H39 C69 1_555 1_555
O16 C27 1_555 1_555
C41 C67 1_555 1_555
C51 C69 1_555 1_555
O1 Zn1 1_555 1_555
O2 Zn2 1_555 1_555
Zn1 O3 1_555 1_555
Zn2 O3 1_555 1_555
O3 Zn7 1_555 1_555
O4 Zn2 1_555 1_555
O5 C2 1_555 1_555
C1 O1 1_555 1_555
C2 O2 1_555 1_555
C5 H2 1_555 1_555
C8 C1 1_555 1_555
C12 C5 1_555 1_555
C13 C8 1_555 1_555
H6 C13 1_555 1_555
C15 H8 1_555 1_555
C18 C2 1_555 1_555
C20 C9 1_555 1_555
H10 C20 1_555 1_555
C21 C5 1_555 1_555
H11 C21 1_555 1_555
C22 C12 1_555 1_555
H12 C22 1_555 1_555
C23 C18 1_555 1_555
H13 C23 1_555 1_555
C26 C9 1_555 1_555
H16 C26 1_555 1_555
O8 Zn1 1_555 1_555
O9 Zn1 1_555 1_555
Zn8 O3 1_555 1_555
O20 Zn2 1_555 1_555
O4 C1 1_555 1_555
O5 Zn8 1_555 1_555
C8 C21 1_555 1_555
C13 C22 1_555 1_555
C15 C18 1_555 1_555
C15 C20 1_555 1_555
C23 C26 1_555 1_555
O11_2 Zn11_2 1_555 1_555
Zn9 O19_2 1_555 1_555
O19_2 C30_2 1_555 1_555
C30_2 O11_2 1_555 1_555
C56_2 H32_2 1_555 1_555
C62_2 C30_2 1_555 1_555
C66_2 C44_2 1_555 1_555
H36_2 C66_2 1_555 1_555
C72_2 C62_2 1_555 1_555
H42_2 C72_2 1_555 1_555
C78_2 C44_2 1_555 1_555
H48_2 C78_2 1_555 1_555
C56_2 C62_2 1_555 1_555
C56_2 C66_2 1_555 1_555
C72_2 C78_2 1_555 1_555
O1_2 Zn3 1_555 1_555
O2_2 Zn2_2 1_555 1_555
Zn2_2 O14 1_555 1_555
O14 Zn7_2 1_555 1_555
O4_2 Zn2_2 1_555 1_555
O21 C2_2 1_555 1_555
C1_2 O1_2 1_555 1_555
C2_2 O2_2 1_555 1_555
C3_2 C4_2 1_555 1_555
C4_2 H1_2 1_555 1_555
N1_2 C3_2 1_555 1_555
C5_2 H2_2 1_555 1_555
N2 C19 1_555 1_555
C6_2 C4_2 1_555 1_555
H3_2 C6_2 1_555 1_555
C7 C11 1_555 1_555
C8_2 C1_2 1_555 1_555
C9_2 C17_2 1_555 1_555
C10_2 H4_2 1_555 1_555
C11 H5 1_555 1_555
C12_2 C5_2 1_555 1_555
C13_2 C8_2 1_555 1_555
H6_2 C13_2 1_555 1_555
C14 H7 1_555 1_555
C15_2 H8_2 1_555 1_555
C16 C11 1_555 1_555
H9 C16 1_555 1_555
C17_2 C6_2 1_555 1_555
C18_2 C2_2 1_555 1_555
C19 C14 1_555 1_555
C20_2 C9_2 1_555 1_555
H10_2 C20_2 1_555 1_555
C21_2 C5_2 1_555 1_555
H11_2 C21_2 1_555 1_555
C22_2 C12_2 1_555 1_555
H12_2 C22_2 1_555 1_555
C23_2 C18_2 1_555 1_555
H13_2 C23_2 1_555 1_555
C24 C7 1_555 1_555
H14_2 C24 1_555 1_555
C25_2 C3_2 1_555 1_555
H15_2 C25_2 1_555 1_555
C26_2 C9_2 1_555 1_555
H16_2 C26_2 1_555 1_555
O7_2 Zn4_2 1_555 1_555
O8_2 Zn3 1_555 1_555
Zn4_2 O15_2 1_555 1_555
Zn9 O15_2 1_555 1_555
O17_2 Zn9 1_555 1_555
O20_2 Zn2_2 1_555 1_555
C28_2 O7_2 1_555 1_555
C31_2 N1_2 1_555 1_555
C32_2 N1_2 1_555 1_555
C33_2 C31_2 1_555 1_555
C34_2 C32_2 1_555 1_555
H17_2 C33_2 1_555 1_555
H18_2 C34_2 1_555 1_555
C36_2 H20_2 1_555 1_555
C37_2 C33_2 1_555 1_555
C38_2 C34_2 1_555 1_555
H21_2 C37_2 1_555 1_555
H22_2 C38_2 1_555 1_555
C39 C47 1_555 1_555
C40 C48 1_555 1_555
C42_2 C28_2 1_555 1_555
C45_2 H23_2 1_555 1_555
C46_2 H24_2 1_555 1_555
C47 H25 1_555 1_555
C48 H26 1_555 1_555
C50_2 C36_2 1_555 1_555
C52_2 C42_2 1_555 1_555
H28_2 C52_2 1_555 1_555
C53 H29 1_555 1_555
C54 H30 1_555 1_555
C57 C47 1_555 1_555
C58 C48 1_555 1_555
H33 C57 1_555 1_555
H34 C58 1_555 1_555
C59_2 C37_2 1_555 1_555
C60_2 C38_2 1_555 1_555
C63 N2 1_555 1_555
C64 N2 1_555 1_555
C68_2 C36_2 1_555 1_555
H38_2 C68_2 1_555 1_555
C70_2 C50_2 1_555 1_555
H40_2 C70_2 1_555 1_555
C73 C39 1_555 1_555
C74 C40 1_555 1_555
H44_2 C74 1_555 1_555
C75_2 C31_2 1_555 1_555
C76_2 C32_2 1_555 1_555
H45_2 C75_2 1_555 1_555
H46_2 C76_2 1_555 1_555
O4_2 C1_2 1_555 1_555
C7 C12_2 1_555 1_555
C8_2 C21_2 1_555 1_555
C10_2 C17_2 1_555 1_555
C10_2 C25_2 1_555 1_555
C13_2 C22_2 1_555 1_555
C14 C24 1_555 1_555
C15_2 C18_2 1_555 1_555
C15_2 C20_2 1_555 1_555
C16 C19 1_555 1_555
C23_2 C26_2 1_555 1_555
O17_2 C28_2 1_555 1_555
C40 C50_2 1_555 1_555
C42_2 C68_2 1_555 1_555
C45_2 C59_2 1_555 1_555
C45_2 C75_2 1_555 1_555
C46_2 C60_2 1_555 1_555
C46_2 C76_2 1_555 1_555
C52_2 C70_2 1_555 1_555
C53 C63 1_555 1_555
C53 C73 1_555 1_555
C54 C64 1_555 1_555
C54 C74 1_555 1_555
C57 C63 1_555 1_555
C58 C64 1_555 1_555
O12_2 Zn8 1_555 1_555
Zn10_2 O18_2 1_555 1_555
O16_2 Zn8 1_555 1_555
O18_2 C29_2 1_555 1_555
C27_2 O9 1_555 1_555
C29_2 O13 1_555 1_555
C35_2 H19_2 1_555 1_555
C41_2 C27_2 1_555 1_555
C49_2 C35_2 1_555 1_555
C51_2 C41_2 1_555 1_555
H27_2 C51_2 1_555 1_555
C55_2 H31_2 1_555 1_555
C61_2 C29_2 1_555 1_555
C65_2 C43_2 1_555 1_555
H35_2 C65_2 1_555 1_555
C67_2 C35_2 1_555 1_555
H37_2 C67_2 1_555 1_555
C69_2 C49_2 1_555 1_555
H39_2 C69_2 1_555 1_555
C71_2 C61_2 1_555 1_555
H41_2 C71_2 1_555 1_555
C77_2 C43_2 1_555 1_555
H47_2 C77_2 1_555 1_555
O16_2 C27_2 1_555 1_555
C41_2 C67_2 1_555 1_555
C51_2 C69_2 1_555 1_555
C55_2 C61_2 1_555 1_555
C55_2 C65_2 1_555 1_555
C71_2 C77_2 1_555 1_555
N2_2 C19_2 1_555 1_555
C7_2 C11_2 1_555 1_555
C11_2 H5_2 1_555 1_555
C14_2 H7_2 1_555 1_555
C16_2 C11_2 1_555 1_555
H9_2 C16_2 1_555 1_555
C19_2 C14_2 1_555 1_555
C24_2 C7_2 1_555 1_555
O6_2 Zn4_2 1_555 1_555
O13_2 Zn7 1_555 1_555
Zn11_2 O15_2 1_555 1_555
O16_3 Zn11_2 1_555 1_555
O17_3 Zn7 1_555 1_555
O21_2 Zn11_2 1_555 1_555
O22 Zn7 1_555 1_555
C27_3 O6_2 1_555 1_555
C28_3 O8 1_555 1_555
C35_3 H19_3 1_555 1_555
C36_3 H20_3 1_555 1_555
C39_2 C47_2 1_555 1_555
C40_2 C48_2 1_555 1_555
C41_3 C27_3 1_555 1_555
C42_3 C28_3 1_555 1_555
C47_2 H25_2 1_555 1_555
C48_2 H26_2 1_555 1_555
C49_3 C35_3 1_555 1_555
C50_3 C36_3 1_555 1_555
C51_3 C41_3 1_555 1_555
C52_3 C42_3 1_555 1_555
H27_3 C51_3 1_555 1_555
H28_3 C52_3 1_555 1_555
C53_2 H29_2 1_555 1_555
C54_2 H30_2 1_555 1_555
C57_2 C47_2 1_555 1_555
C58_2 C48_2 1_555 1_555
H33_2 C57_2 1_555 1_555
H34_2 C58_2 1_555 1_555
C63_2 N2_2 1_555 1_555
C64_2 N2_2 1_555 1_555
C67_3 C35_3 1_555 1_555
C68_3 C36_3 1_555 1_555
H37_3 C67_3 1_555 1_555
H38_3 C68_3 1_555 1_555
C69_3 C49_3 1_555 1_555
C70_3 C50_3 1_555 1_555
H39_3 C69_3 1_555 1_555
H40_3 C70_3 1_555 1_555
C73_2 C39_2 1_555 1_555
C74_2 C40_2 1_555 1_555
H43_3 C73_2 1_555 1_555
H44_3 C74_2 1_555 1_555
C14_2 C24_2 1_555 1_555
C16_2 C19_2 1_555 1_555
O16_3 C27_3 1_555 1_555
O17_3 C28_3 1_555 1_555
C39_2 C49_3 1_555 1_555
C40_2 C50_3 1_555 1_555
C41_3 C67_3 1_555 1_555
C42_3 C68_3 1_555 1_555
C51_3 C69_3 1_555 1_555
C52_3 C70_3 1_555 1_555
C53_2 C63_2 1_555 1_555
C53_2 C73_2 1_555 1_555
C54_2 C64_2 1_555 1_555
C54_2 C74_2 1_555 1_555
C57_2 C63_2 1_555 1_555
C58_2 C64_2 1_555 1_555
O1_3 Zn4 1_555 1_555
O2_3 Zn10_2 1_555 1_555
Zn10_2 O15 1_555 1_555
O4_3 Zn10_2 1_555 1_555
O5_2 C2_3 1_555 1_555
C1_3 O1_3 1_555 1_555
C2_3 O2_3 1_555 1_555
C3_3 C4_3 1_555 1_555
C4_3 H1_3 1_555 1_555
N1_3 C3_3 1_555 1_555
C5_3 H2_3 1_555 1_555
C6_3 C4_3 1_555 1_555
H3_3 C6_3 1_555 1_555
C8_3 C1_3 1_555 1_555
C9_3 C17_3 1_555 1_555
C10_3 H4_3 1_555 1_555
C12_3 C5_3 1_555 1_555
C13_3 C8_3 1_555 1_555
H6_3 C13_3 1_555 1_555
C15_3 H8_3 1_555 1_555
C17_3 C6_3 1_555 1_555
C18_3 C2_3 1_555 1_555
C20_3 C9_3 1_555 1_555
H10_3 C20_3 1_555 1_555
C21_3 C5_3 1_555 1_555
H11_3 C21_3 1_555 1_555
C22_3 C12_3 1_555 1_555
H12_3 C22_3 1_555 1_555
C23_3 C18_3 1_555 1_555
H13_3 C23_3 1_555 1_555
C25_3 C3_3 1_555 1_555
H15_3 C25_3 1_555 1_555
C26_3 C9_3 1_555 1_555
H16_3 C26_3 1_555 1_555
O9_2 Zn4 1_555 1_555
O10_2 Zn7_2 1_555 1_555
Zn11 O15 1_555 1_555
O20_2 C29_3 1_555 1_555
O22 C30_3 1_555 1_555
C29_3 O10_2 1_555 1_555
C30_3 O12_2 1_555 1_555
C31_3 N1_3 1_555 1_555
C32_3 N1_3 1_555 1_555
C33_3 C31_3 1_555 1_555
C34_3 C32_3 1_555 1_555
H17_3 C33_3 1_555 1_555
H18_3 C34_3 1_555 1_555
C37_3 C33_3 1_555 1_555
C38_3 C34_3 1_555 1_555
H21_3 C37_3 1_555 1_555
H22_3 C38_3 1_555 1_555
C43_3 C59_3 1_555 1_555
C44_3 C60_3 1_555 1_555
C45_3 H23_3 1_555 1_555
C46_3 H24_3 1_555 1_555
C55_3 H31_3 1_555 1_555
C56_3 H32_3 1_555 1_555
C59_3 C37_3 1_555 1_555
C60_3 C38_3 1_555 1_555
C61_3 C29_3 1_555 1_555
C62_3 C30_3 1_555 1_555
C65_3 C43_3 1_555 1_555
C66_3 C44_3 1_555 1_555
H35_3 C65_3 1_555 1_555
H36_3 C66_3 1_555 1_555
C71_3 C61_3 1_555 1_555
C72_3 C62_3 1_555 1_555
H41_3 C71_3 1_555 1_555
H42_3 C72_3 1_555 1_555
C75_3 C31_3 1_555 1_555
C76_3 C32_3 1_555 1_555
H45_3 C75_3 1_555 1_555
H46_3 C76_3 1_555 1_555
C77_3 C43_3 1_555 1_555
C78_3 C44_3 1_555 1_555
H47_3 C77_3 1_555 1_555
H48_3 C78_3 1_555 1_555
O4_3 C1_3 1_555 1_555
O5_2 Zn11 1_555 1_555
C8_3 C21_3 1_555 1_555
C10_3 C17_3 1_555 1_555
C10_3 C25_3 1_555 1_555
C13_3 C22_3 1_555 1_555
C15_3 C18_3 1_555 1_555
C15_3 C20_3 1_555 1_555
C23_3 C26_3 1_555 1_555
C45_3 C59_3 1_555 1_555
C45_3 C75_3 1_555 1_555
C46_3 C60_3 1_555 1_555
C46_3 C76_3 1_555 1_555
C55_3 C61_3 1_555 1_555
C55_3 C65_3 1_555 1_555
C56_3 C62_3 1_555 1_555
C56_3 C66_3 1_555 1_555
C71_3 C77_3 1_555 1_555
C72_3 C78_3 1_555 1_555
O1_4 Zn4_2 1_555 1_555
O2_4 Zn10 1_555 1_555
Zn10 O15_2 1_555 1_555
O4_4 Zn10 1_555 1_555
O21_2 C2_4 1_555 1_555
C1_4 O1_4 1_555 1_555
C2_4 O2_4 1_555 1_555
C5_4 H2_4 1_555 1_555
N2_3 C19_3 1_555 1_555
C7_3 C11_3 1_555 1_555
C8_4 C1_4 1_555 1_555
C11_3 H5_3 1_555 1_555
C12_4 C5_4 1_555 1_555
C13_4 C8_4 1_555 1_555
H6_4 C13_4 1_555 1_555
C14_3 H7_3 1_555 1_555
C15_4 H8_4 1_555 1_555
C16_3 C11_3 1_555 1_555
H9_3 C16_3 1_555 1_555
C18_4 C2_4 1_555 1_555
C19_3 C14_3 1_555 1_555
C20_4 C9_4 1_555 1_555
H10_4 C20_4 1_555 1_555
C21_4 C5_4 1_555 1_555
H11_4 C21_4 1_555 1_555
C22_4 C12_4 1_555 1_555
H12_4 C22_4 1_555 1_555
C23_4 C18_4 1_555 1_555
H13_4 C23_4 1_555 1_555
C24_3 C7_3 1_555 1_555
H14_4 C24_3 1_555 1_555
C26_4 C9_4 1_555 1_555
H16_4 C26_4 1_555 1_555
O16_4 Zn11 1_555 1_555
C27_4 O9_2 1_555 1_555
C35_4 H19_4 1_555 1_555
C39_3 C47_3 1_555 1_555
C40_3 C48_3 1_555 1_555
C41_4 C27_4 1_555 1_555
C47_3 H25_3 1_555 1_555
C48_3 H26_3 1_555 1_555
C49_4 C35_4 1_555 1_555
C51_4 C41_4 1_555 1_555
H27_4 C51_4 1_555 1_555
C53_3 H29_3 1_555 1_555
C54_3 H30_3 1_555 1_555
C57_3 C47_3 1_555 1_555
C58_3 C48_3 1_555 1_555
H33_3 C57_3 1_555 1_555
H34_3 C58_3 1_555 1_555
C63_3 N2_3 1_555 1_555
C64_3 N2_3 1_555 1_555
C67_4 C35_4 1_555 1_555
H37_4 C67_4 1_555 1_555
C69_4 C49_4 1_555 1_555
H39_4 C69_4 1_555 1_555
C73_3 C39_3 1_555 1_555
C74_3 C40_3 1_555 1_555
H43_4 C73_3 1_555 1_555
O4_4 C1_4 1_555 1_555
C7_3 C12_4 1_555 1_555
C8_4 C21_4 1_555 1_555
C13_4 C22_4 1_555 1_555
C14_3 C24_3 1_555 1_555
C15_4 C18_4 1_555 1_555
C15_4 C20_4 1_555 1_555
C16_3 C19_3 1_555 1_555
C23_4 C26_4 1_555 1_555
O16_4 C27_4 1_555 1_555
C39_3 C49_4 1_555 1_555
C41_4 C67_4 1_555 1_555
C51_4 C69_4 1_555 1_555
C53_3 C63_3 1_555 1_555
C53_3 C73_3 1_555 1_555
C54_3 C64_3 1_555 1_555
C54_3 C74_3 1_555 1_555
C57_3 C63_3 1_555 1_555
C58_3 C64_3 1_555 1_555
C3_4 C4_4 1_555 1_555
C4_4 H1_4 1_555 1_555
N1_4 C3_4 1_555 1_555
C6_4 C4_4 1_555 1_555
H3_4 C6_4 1_555 1_555
C10_4 H4_4 1_555 1_555
C17_4 C6_4 1_555 1_555
C25_4 C3_4 1_555 1_555
H15_4 C25_4 1_555 1_555
O17_4 Zn7_2 1_555 1_555
O20 C29_4 1_555 1_555
O22_2 Zn7_2 1_555 1_555
C28_4 O8_2 1_555 1_555
C29_4 O13_2 1_555 1_555
C31_4 N1_4 1_555 1_555
C32_4 N1_4 1_555 1_555
C33_4 C31_4 1_555 1_555
C34_4 C32_4 1_555 1_555
H17_4 C33_4 1_555 1_555
H18_4 C34_4 1_555 1_555
C36_4 H20_4 1_555 1_555
C37_4 C33_4 1_555 1_555
C38_4 C34_4 1_555 1_555
H21_4 C37_4 1_555 1_555
H22_4 C38_4 1_555 1_555
C42_4 C28_4 1_555 1_555
C43_4 C59_4 1_555 1_555
C45_4 H23_4 1_555 1_555
C46_4 H24_4 1_555 1_555
C50_4 C36_4 1_555 1_555
C52_4 C42_4 1_555 1_555
H28_4 C52_4 1_555 1_555
C55_4 H31_4 1_555 1_555
C59_4 C37_4 1_555 1_555
C60_4 C38_4 1_555 1_555
C61_4 C29_4 1_555 1_555
C65_4 C43_4 1_555 1_555
H35_4 C65_4 1_555 1_555
C68_4 C36_4 1_555 1_555
H38_4 C68_4 1_555 1_555
C70_4 C50_4 1_555 1_555
H40_4 C70_4 1_555 1_555
C71_4 C61_4 1_555 1_555
H41_4 C71_4 1_555 1_555
C75_4 C31_4 1_555 1_555
C76_4 C32_4 1_555 1_555
H45_4 C75_4 1_555 1_555
H46_4 C76_4 1_555 1_555
C77_4 C43_4 1_555 1_555
H47_4 C77_4 1_555 1_555
C10_4 C17_4 1_555 1_555
C10_4 C25_4 1_555 1_555
O17_4 C28_4 1_555 1_555
C42_4 C68_4 1_555 1_555
C45_4 C59_4 1_555 1_555
C45_4 C75_4 1_555 1_555
C46_4 C60_4 1_555 1_555
C46_4 C76_4 1_555 1_555
C52_4 C70_4 1_555 1_555
C55_4 C61_4 1_555 1_555
C55_4 C65_4 1_555 1_555
C71_4 C77_4 1_555 1_555
O22_2 C30_4 1_555 1_555
C30_4 O12 1_555 1_555
C56_4 H32_4 1_555 1_555
C62_4 C30_4 1_555 1_555
C66_4 C44_4 1_555 1_555
H36_4 C66_4 1_555 1_555
C72_4 C62_4 1_555 1_555
H42_4 C72_4 1_555 1_555
C78_4 C44_4 1_555 1_555
H48_4 C78_4 1_555 1_555
C56_4 C62_4 1_555 1_555
C56_4 C66_4 1_555 1_555
C72_4 C78_4 1_555 1_555
N2_4 C19_4 1_555 1_555
C7_4 C11_4 1_555 1_555
C11_4 H5_4 1_555 1_555
C14_4 H7_4 1_555 1_555
C16_4 C11_4 1_555 1_555
H9_4 C16_4 1_555 1_555
C19_4 C14_4 1_555 1_555
C24_4 C7_4 1_555 1_555
C39_4 C47_4 1_555 1_555
C40_4 C48_4 1_555 1_555
C47_4 H25_4 1_555 1_555
C48_4 H26_4 1_555 1_555
C53_4 H29_4 1_555 1_555
C54_4 H30_4 1_555 1_555
C57_4 C47_4 1_555 1_555
C58_4 C48_4 1_555 1_555
H33_4 C57_4 1_555 1_555
H34_4 C58_4 1_555 1_555
C63_4 N2_4 1_555 1_555
C64_4 N2_4 1_555 1_555
C73_4 C39_4 1_555 1_555
C74_4 C40_4 1_555 1_555
C14_4 C24_4 1_555 1_555
C16_4 C19_4 1_555 1_555
C53_4 C63_4 1_555 1_555
C53_4 C73_4 1_555 1_555
C54_4 C64_4 1_555 1_555
C54_4 C74_4 1_555 1_555
C57_4 C63_4 1_555 1_555
C58_4 C64_4 1_555 1_555
N2_5 C19_5 1_555 1_555
C7_5 C11_5 1_555 1_555
C11_5 H5_5 1_555 1_555
C14_5 H7_5 1_555 1_555
C16_5 C11_5 1_555 1_555
H9_5 C16_5 1_555 1_555
C19_5 C14_5 1_555 1_555
C24_5 C7_5 1_555 1_555
C39_5 C47_5 1_555 1_555
C40_5 C48_5 1_555 1_555
C47_5 H25_5 1_555 1_555
C48_5 H26_5 1_555 1_555
C53_5 H29_5 1_555 1_555
C54_5 H30_5 1_555 1_555
C57_5 C47_5 1_555 1_555
C58_5 C48_5 1_555 1_555
H33_5 C57_5 1_555 1_555
H34_5 C58_5 1_555 1_555
C63_5 N2_5 1_555 1_555
C64_5 N2_5 1_555 1_555
C73_5 C39_5 1_555 1_555
C74_5 C40_5 1_555 1_555
C14_5 C24_5 1_555 1_555
C16_5 C19_5 1_555 1_555
C53_5 C63_5 1_555 1_555
C53_5 C73_5 1_555 1_555
C54_5 C64_5 1_555 1_555
C54_5 C74_5 1_555 1_555
C57_5 C63_5 1_555 1_555
C58_5 C64_5 1_555 1_555
O1_5 Zn1_2 1_555 1_555
O2_5 Zn2_3 1_555 1_555
Zn1_2 O3_2 1_555 1_555
Zn2_3 O3_2 1_555 1_555
O3_2 Zn7_3 1_555 1_555
O4_5 Zn2_3 1_555 1_555
O5_3 C2_5 1_555 1_555
C1_5 O1_5 1_555 1_555
C2_5 O2_5 1_555 1_555
C5_5 H2_5 1_555 1_555
C8_5 C1_5 1_555 1_555
C12_5 C5_5 1_555 1_555
C13_5 C8_5 1_555 1_555
H6_5 C13_5 1_555 1_555
C15_5 H8_5 1_555 1_555
C18_5 C2_5 1_555 1_555
C20_5 C9_5 1_555 1_555
H10_5 C20_5 1_555 1_555
C21_5 C5_5 1_555 1_555
H11_5 C21_5 1_555 1_555
C22_5 C12_5 1_555 1_555
H12_5 C22_5 1_555 1_555
C23_5 C18_5 1_555 1_555
H13_5 C23_5 1_555 1_555
C26_5 C9_5 1_555 1_555
H16_5 C26_5 1_555 1_555
O8_3 Zn1_2 1_555 1_555
O9_3 Zn1_2 1_555 1_555
Zn8_2 O3_2 1_555 1_555
O20_3 Zn2_3 1_555 1_555
O4_5 C1_5 1_555 1_555
O5_3 Zn8_2 1_555 1_555
C8_5 C21_5 1_555 1_555
C13_5 C22_5 1_555 1_555
C15_5 C18_5 1_555 1_555
C15_5 C20_5 1_555 1_555
C23_5 C26_5 1_555 1_555
O6_3 Zn3_2 1_555 1_555
O12_3 Zn5_2 1_555 1_555
Zn3_2 O14_2 1_555 1_555
Zn5_2 O14_2 1_555 1_555
O16_5 Zn5_2 1_555 1_555
O21_3 Zn5_2 1_555 1_555
C27_5 O6_3 1_555 1_555
C35_5 H19_5 1_555 1_555
C41_5 C27_5 1_555 1_555
C49_5 C35_5 1_555 1_555
C51_5 C41_5 1_555 1_555
H27_5 C51_5 1_555 1_555
C67_5 C35_5 1_555 1_555
H37_5 C67_5 1_555 1_555
C69_5 C49_5 1_555 1_555
H39_5 C69_5 1_555 1_555
O16_5 C27_5 1_555 1_555
C41_5 C67_5 1_555 1_555
C51_5 C69_5 1_555 1_555
O7_3 Zn4_3 1_555 1_555
O13_3 Zn6 1_555 1_555
Zn4_3 O15_3 1_555 1_555
Zn6 O15_3 1_555 1_555
O17_5 Zn6 1_555 1_555
O22_3 Zn6 1_555 1_555
C28_5 O7_3 1_555 1_555
C36_5 H20_5 1_555 1_555
C42_5 C28_5 1_555 1_555
C50_5 C36_5 1_555 1_555
C52_5 C42_5 1_555 1_555
H28_5 C52_5 1_555 1_555
C68_5 C36_5 1_555 1_555
H38_5 C68_5 1_555 1_555
C70_5 C50_5 1_555 1_555
H40_5 C70_5 1_555 1_555
O17_5 C28_5 1_555 1_555
C42_5 C68_5 1_555 1_555
C52_5 C70_5 1_555 1_555
C3_5 C4_5 1_555 1_555
C4_5 H1_5 1_555 1_555
N1_5 C3_5 1_555 1_555
C6_5 C4_5 1_555 1_555
H3_5 C6_5 1_555 1_555
C10_5 H4_5 1_555 1_555
C17_5 C6_5 1_555 1_555
C25_5 C3_5 1_555 1_555
H15_5 C25_5 1_555 1_555
O11_3 Zn11_3 1_555 1_555
O22_3 C30_5 1_555 1_555
C30_5 O11_3 1_555 1_555
C31_5 N1_5 1_555 1_555
C32_5 N1_5 1_555 1_555
C33_5 C31_5 1_555 1_555
C34_5 C32_5 1_555 1_555
H17_5 C33_5 1_555 1_555
H18_5 C34_5 1_555 1_555
C37_5 C33_5 1_555 1_555
C38_5 C34_5 1_555 1_555
H21_5 C37_5 1_555 1_555
H22_5 C38_5 1_555 1_555
C44_5 C60_5 1_555 1_555
C45_5 H23_5 1_555 1_555
C46_5 H24_5 1_555 1_555
C56_5 H32_5 1_555 1_555
C59_5 C37_5 1_555 1_555
C60_5 C38_5 1_555 1_555
C62_5 C30_5 1_555 1_555
C66_5 C44_5 1_555 1_555
H36_5 C66_5 1_555 1_555
C72_5 C62_5 1_555 1_555
H42_5 C72_5 1_555 1_555
C75_5 C31_5 1_555 1_555
C76_5 C32_5 1_555 1_555
H45_5 C75_5 1_555 1_555
H46_5 C76_5 1_555 1_555
C78_5 C44_5 1_555 1_555
H48_5 C78_5 1_555 1_555
C10_5 C17_5 1_555 1_555
C10_5 C25_5 1_555 1_555
C45_5 C59_5 1_555 1_555
C45_5 C75_5 1_555 1_555
C46_5 C60_5 1_555 1_555
C46_5 C76_5 1_555 1_555
C56_5 C62_5 1_555 1_555
C56_5 C66_5 1_555 1_555
C72_5 C78_5 1_555 1_555
O10_3 Zn9_2 1_555 1_555
Zn10_3 O18_3 1_555 1_555
O18_3 C29_5 1_555 1_555
C29_5 O10_3 1_555 1_555
C55_5 H31_5 1_555 1_555
C61_5 C29_5 1_555 1_555
C65_5 C43_5 1_555 1_555
H35_5 C65_5 1_555 1_555
C71_5 C61_5 1_555 1_555
H41_5 C71_5 1_555 1_555
C77_5 C43_5 1_555 1_555
H47_5 C77_5 1_555 1_555
C55_5 C61_5 1_555 1_555
C55_5 C65_5 1_555 1_555
C71_5 C77_5 1_555 1_555
O12_4 Zn8_2 1_555 1_555
Zn10_4 O18_4 1_555 1_555
O16_6 Zn8_2 1_555 1_555
O18_4 C29_6 1_555 1_555
C27_6 O9_3 1_555 1_555
C29_6 O13_3 1_555 1_555
C35_6 H19_6 1_555 1_555
C41_6 C27_6 1_555 1_555
C49_6 C35_6 1_555 1_555
C51_6 C41_6 1_555 1_555
H27_6 C51_6 1_555 1_555
C55_6 H31_6 1_555 1_555
C61_6 C29_6 1_555 1_555
C65_6 C43_6 1_555 1_555
H35_6 C65_6 1_555 1_555
C67_6 C35_6 1_555 1_555
H37_6 C67_6 1_555 1_555
C69_6 C49_6 1_555 1_555
H39_6 C69_6 1_555 1_555
C71_6 C61_6 1_555 1_555
H41_6 C71_6 1_555 1_555
C77_6 C43_6 1_555 1_555
H47_6 C77_6 1_555 1_555
O16_6 C27_6 1_555 1_555
C41_6 C67_6 1_555 1_555
C51_6 C69_6 1_555 1_555
C55_6 C61_6 1_555 1_555
C55_6 C65_6 1_555 1_555
C71_6 C77_6 1_555 1_555
O1_6 Zn3_2 1_555 1_555
O2_6 Zn2_4 1_555 1_555
Zn2_4 O14_2 1_555 1_555
O14_2 Zn7_4 1_555 1_555
O4_6 Zn2_4 1_555 1_555
O21_3 C2_6 1_555 1_555
C1_6 O1_6 1_555 1_555
C2_6 O2_6 1_555 1_555
C3_6 C4_6 1_555 1_555
C4_6 H1_6 1_555 1_555
N1_6 C3_6 1_555 1_555
C5_6 H2_6 1_555 1_555
N2_6 C19_6 1_555 1_555
C6_6 C4_6 1_555 1_555
H3_6 C6_6 1_555 1_555
C7_6 C11_6 1_555 1_555
C8_6 C1_6 1_555 1_555
C9_6 C17_6 1_555 1_555
C10_6 H4_6 1_555 1_555
C11_6 H5_6 1_555 1_555
C12_6 C5_6 1_555 1_555
C13_6 C8_6 1_555 1_555
H6_6 C13_6 1_555 1_555
C14_6 H7_6 1_555 1_555
C15_6 H8_6 1_555 1_555
C16_6 C11_6 1_555 1_555
H9_6 C16_6 1_555 1_555
C17_6 C6_6 1_555 1_555
C18_6 C2_6 1_555 1_555
C19_6 C14_6 1_555 1_555
C20_6 C9_6 1_555 1_555
H10_6 C20_6 1_555 1_555
C21_6 C5_6 1_555 1_555
H11_6 C21_6 1_555 1_555
C22_6 C12_6 1_555 1_555
H12_6 C22_6 1_555 1_555
C23_6 C18_6 1_555 1_555
H13_6 C23_6 1_555 1_555
C24_6 C7_6 1_555 1_555
H14_6 C24_6 1_555 1_555
C25_6 C3_6 1_555 1_555
H15_6 C25_6 1_555 1_555
C26_6 C9_6 1_555 1_555
H16_6 C26_6 1_555 1_555
O7_4 Zn4_4 1_555 1_555
O8_4 Zn3_2 1_555 1_555
Zn4_4 O15_4 1_555 1_555
Zn9_2 O15_4 1_555 1_555
O17_6 Zn9_2 1_555 1_555
O20_4 Zn2_4 1_555 1_555
O22_4 Zn9_2 1_555 1_555
C28_6 O7_4 1_555 1_555
C31_6 N1_6 1_555 1_555
C32_6 N1_6 1_555 1_555
C33_6 C31_6 1_555 1_555
C34_6 C32_6 1_555 1_555
H17_6 C33_6 1_555 1_555
H18_6 C34_6 1_555 1_555
C36_6 H20_6 1_555 1_555
C37_6 C33_6 1_555 1_555
C38_6 C34_6 1_555 1_555
H21_6 C37_6 1_555 1_555
H22_6 C38_6 1_555 1_555
C39_6 C47_6 1_555 1_555
C40_6 C48_6 1_555 1_555
C42_6 C28_6 1_555 1_555
C45_6 H23_6 1_555 1_555
C46_6 H24_6 1_555 1_555
C47_6 H25_6 1_555 1_555
C48_6 H26_6 1_555 1_555
C50_6 C36_6 1_555 1_555
C52_6 C42_6 1_555 1_555
H28_6 C52_6 1_555 1_555
C53_6 H29_6 1_555 1_555
C54_6 H30_6 1_555 1_555
C57_6 C47_6 1_555 1_555
C58_6 C48_6 1_555 1_555
H33_6 C57_6 1_555 1_555
H34_6 C58_6 1_555 1_555
C59_6 C37_6 1_555 1_555
C60_6 C38_6 1_555 1_555
C63_6 N2_6 1_555 1_555
C64_6 N2_6 1_555 1_555
C68_6 C36_6 1_555 1_555
H38_6 C68_6 1_555 1_555
C70_6 C50_6 1_555 1_555
H40_6 C70_6 1_555 1_555
C73_6 C39_6 1_555 1_555
C74_6 C40_6 1_555 1_555
H44_6 C74_6 1_555 1_555
C75_6 C31_6 1_555 1_555
C76_6 C32_6 1_555 1_555
H45_6 C75_6 1_555 1_555
H46_6 C76_6 1_555 1_555
O4_6 C1_6 1_555 1_555
C7_6 C12_6 1_555 1_555
C8_6 C21_6 1_555 1_555
C10_6 C17_6 1_555 1_555
C10_6 C25_6 1_555 1_555
C13_6 C22_6 1_555 1_555
C14_6 C24_6 1_555 1_555
C15_6 C18_6 1_555 1_555
C15_6 C20_6 1_555 1_555
C16_6 C19_6 1_555 1_555
C23_6 C26_6 1_555 1_555
O17_6 C28_6 1_555 1_555
C40_6 C50_6 1_555 1_555
C42_6 C68_6 1_555 1_555
C45_6 C59_6 1_555 1_555
C45_6 C75_6 1_555 1_555
C46_6 C60_6 1_555 1_555
C46_6 C76_6 1_555 1_555
C52_6 C70_6 1_555 1_555
C53_6 C63_6 1_555 1_555
C53_6 C73_6 1_555 1_555
C54_6 C64_6 1_555 1_555
C54_6 C74_6 1_555 1_555
C57_6 C63_6 1_555 1_555
C58_6 C64_6 1_555 1_555
O11_4 Zn11_4 1_555 1_555
O22_4 C30_6 1_555 1_555
C30_6 O11_4 1_555 1_555
C56_6 H32_6 1_555 1_555
C62_6 C30_6 1_555 1_555
C66_6 C44_6 1_555 1_555
H36_6 C66_6 1_555 1_555
C72_6 C62_6 1_555 1_555
H42_6 C72_6 1_555 1_555
C78_6 C44_6 1_555 1_555
H48_6 C78_6 1_555 1_555
C56_6 C62_6 1_555 1_555
C56_6 C66_6 1_555 1_555
C72_6 C78_6 1_555 1_555
O1_7 Zn4_3 1_555 1_555
O2_7 Zn10_4 1_555 1_555
Zn10_4 O15_3 1_555 1_555
O4_7 Zn10_4 1_555 1_555
O5_4 C2_7 1_555 1_555
C1_7 O1_7 1_555 1_555
C2_7 O2_7 1_555 1_555
C3_7 C4_7 1_555 1_555
C4_7 H1_7 1_555 1_555
N1_7 C3_7 1_555 1_555
C5_7 H2_7 1_555 1_555
C6_7 C4_7 1_555 1_555
H3_7 C6_7 1_555 1_555
C8_7 C1_7 1_555 1_555
C9_7 C17_7 1_555 1_555
C10_7 H4_7 1_555 1_555
C12_7 C5_7 1_555 1_555
C13_7 C8_7 1_555 1_555
H6_7 C13_7 1_555 1_555
C15_7 H8_7 1_555 1_555
C17_7 C6_7 1_555 1_555
C18_7 C2_7 1_555 1_555
C20_7 C9_7 1_555 1_555
H10_7 C20_7 1_555 1_555
C21_7 C5_7 1_555 1_555
H11_7 C21_7 1_555 1_555
C22_7 C12_7 1_555 1_555
H12_7 C22_7 1_555 1_555
C23_7 C18_7 1_555 1_555
H13_7 C23_7 1_555 1_555
C25_7 C3_7 1_555 1_555
H15_7 C25_7 1_555 1_555
C26_7 C9_7 1_555 1_555
H16_7 C26_7 1_555 1_555
O9_4 Zn4_3 1_555 1_555
O10_4 Zn7_4 1_555 1_555
Zn11_3 O15_3 1_555 1_555
Zn7_3 O19_3 1_555 1_555
O20_4 C29_7 1_555 1_555
O19_3 C30_7 1_555 1_555
C29_7 O10_4 1_555 1_555
C30_7 O12_4 1_555 1_555
C31_7 N1_7 1_555 1_555
C32_7 N1_7 1_555 1_555
C33_7 C31_7 1_555 1_555
C34_7 C32_7 1_555 1_555
H17_7 C33_7 1_555 1_555
H18_7 C34_7 1_555 1_555
C37_7 C33_7 1_555 1_555
C38_7 C34_7 1_555 1_555
H21_7 C37_7 1_555 1_555
H22_7 C38_7 1_555 1_555
C43_7 C59_7 1_555 1_555
C44_7 C60_7 1_555 1_555
C45_7 H23_7 1_555 1_555
C46_7 H24_7 1_555 1_555
C55_7 H31_7 1_555 1_555
C56_7 H32_7 1_555 1_555
C59_7 C37_7 1_555 1_555
C60_7 C38_7 1_555 1_555
C61_7 C29_7 1_555 1_555
C62_7 C30_7 1_555 1_555
C65_7 C43_7 1_555 1_555
C66_7 C44_7 1_555 1_555
H35_7 C65_7 1_555 1_555
H36_7 C66_7 1_555 1_555
C71_7 C61_7 1_555 1_555
C72_7 C62_7 1_555 1_555
H41_7 C71_7 1_555 1_555
H42_7 C72_7 1_555 1_555
C75_7 C31_7 1_555 1_555
C76_7 C32_7 1_555 1_555
H45_7 C75_7 1_555 1_555
H46_7 C76_7 1_555 1_555
C77_7 C43_7 1_555 1_555
C78_7 C44_7 1_555 1_555
H47_7 C77_7 1_555 1_555
H48_7 C78_7 1_555 1_555
O4_7 C1_7 1_555 1_555
O5_4 Zn11_3 1_555 1_555
C8_7 C21_7 1_555 1_555
C10_7 C17_7 1_555 1_555
C10_7 C25_7 1_555 1_555
C13_7 C22_7 1_555 1_555
C15_7 C18_7 1_555 1_555
C15_7 C20_7 1_555 1_555
C23_7 C26_7 1_555 1_555
C45_7 C59_7 1_555 1_555
C45_7 C75_7 1_555 1_555
C46_7 C60_7 1_555 1_555
C46_7 C76_7 1_555 1_555
C55_7 C61_7 1_555 1_555
C55_7 C65_7 1_555 1_555
C56_7 C62_7 1_555 1_555
C56_7 C66_7 1_555 1_555
C71_7 C77_7 1_555 1_555
C72_7 C78_7 1_555 1_555
N2_7 C19_7 1_555 1_555
C7_7 C11_7 1_555 1_555
C11_7 H5_7 1_555 1_555
C14_7 H7_7 1_555 1_555
C16_7 C11_7 1_555 1_555
H9_7 C16_7 1_555 1_555
C19_7 C14_7 1_555 1_555
C24_7 C7_7 1_555 1_555
O6_4 Zn4_4 1_555 1_555
O13_4 Zn7_3 1_555 1_555
Zn11_4 O15_4 1_555 1_555
O16_7 Zn11_4 1_555 1_555
O17_7 Zn7_3 1_555 1_555
O21_4 Zn11_4 1_555 1_555
C27_7 O6_4 1_555 1_555
C28_7 O8_3 1_555 1_555
C35_7 H19_7 1_555 1_555
C36_7 H20_7 1_555 1_555
C39_7 C47_7 1_555 1_555
C40_7 C48_7 1_555 1_555
C41_7 C27_7 1_555 1_555
C42_7 C28_7 1_555 1_555
C47_7 H25_7 1_555 1_555
C48_7 H26_7 1_555 1_555
C49_7 C35_7 1_555 1_555
C50_7 C36_7 1_555 1_555
C51_7 C41_7 1_555 1_555
C52_7 C42_7 1_555 1_555
H27_7 C51_7 1_555 1_555
H28_7 C52_7 1_555 1_555
C53_7 H29_7 1_555 1_555
C54_7 H30_7 1_555 1_555
C57_7 C47_7 1_555 1_555
C58_7 C48_7 1_555 1_555
H33_7 C57_7 1_555 1_555
H34_7 C58_7 1_555 1_555
C63_7 N2_7 1_555 1_555
C64_7 N2_7 1_555 1_555
C67_7 C35_7 1_555 1_555
C68_7 C36_7 1_555 1_555
H37_7 C67_7 1_555 1_555
H38_7 C68_7 1_555 1_555
C69_7 C49_7 1_555 1_555
C70_7 C50_7 1_555 1_555
H39_7 C69_7 1_555 1_555
H40_7 C70_7 1_555 1_555
C73_7 C39_7 1_555 1_555
C74_7 C40_7 1_555 1_555
H43_7 C73_7 1_555 1_555
H44_7 C74_7 1_555 1_555
C14_7 C24_7 1_555 1_555
C16_7 C19_7 1_555 1_555
O16_7 C27_7 1_555 1_555
O17_7 C28_7 1_555 1_555
C39_7 C49_7 1_555 1_555
C40_7 C50_7 1_555 1_555
C41_7 C67_7 1_555 1_555
C42_7 C68_7 1_555 1_555
C51_7 C69_7 1_555 1_555
C52_7 C70_7 1_555 1_555
C53_7 C63_7 1_555 1_555
C53_7 C73_7 1_555 1_555
C54_7 C64_7 1_555 1_555
C54_7 C74_7 1_555 1_555
C57_7 C63_7 1_555 1_555
C58_7 C64_7 1_555 1_555
Zn7_4 O19_4 1_555 1_555
O19_4 C30_8 1_555 1_555
C30_8 O12_3 1_555 1_555
C56_8 H32_8 1_555 1_555
C62_8 C30_8 1_555 1_555
C66_8 C44_8 1_555 1_555
H36_8 C66_8 1_555 1_555
C72_8 C62_8 1_555 1_555
H42_8 C72_8 1_555 1_555
C78_8 C44_8 1_555 1_555
H48_8 C78_8 1_555 1_555
C56_8 C62_8 1_555 1_555
C56_8 C66_8 1_555 1_555
C72_8 C78_8 1_555 1_555
C3_8 C4_8 1_555 1_555
C4_8 H1_8 1_555 1_555
N1_8 C3_8 1_555 1_555
C6_8 C4_8 1_555 1_555
H3_8 C6_8 1_555 1_555
C10_8 H4_8 1_555 1_555
C17_8 C6_8 1_555 1_555
C25_8 C3_8 1_555 1_555
H15_8 C25_8 1_555 1_555
O17_8 Zn7_4 1_555 1_555
O20_3 C29_8 1_555 1_555
C28_8 O8_4 1_555 1_555
C29_8 O13_4 1_555 1_555
C31_8 N1_8 1_555 1_555
C32_8 N1_8 1_555 1_555
C33_8 C31_8 1_555 1_555
C34_8 C32_8 1_555 1_555
H17_8 C33_8 1_555 1_555
H18_8 C34_8 1_555 1_555
C36_8 H20_8 1_555 1_555
C37_8 C33_8 1_555 1_555
C38_8 C34_8 1_555 1_555
H21_8 C37_8 1_555 1_555
H22_8 C38_8 1_555 1_555
C42_8 C28_8 1_555 1_555
C43_8 C59_8 1_555 1_555
C45_8 H23_8 1_555 1_555
C46_8 H24_8 1_555 1_555
C50_8 C36_8 1_555 1_555
C52_8 C42_8 1_555 1_555
H28_8 C52_8 1_555 1_555
C55_8 H31_8 1_555 1_555
C59_8 C37_8 1_555 1_555
C60_8 C38_8 1_555 1_555
C61_8 C29_8 1_555 1_555
C65_8 C43_8 1_555 1_555
H35_8 C65_8 1_555 1_555
C68_8 C36_8 1_555 1_555
H38_8 C68_8 1_555 1_555
C70_8 C50_8 1_555 1_555
H40_8 C70_8 1_555 1_555
C71_8 C61_8 1_555 1_555
H41_8 C71_8 1_555 1_555
C75_8 C31_8 1_555 1_555
C76_8 C32_8 1_555 1_555
H45_8 C75_8 1_555 1_555
H46_8 C76_8 1_555 1_555
C77_8 C43_8 1_555 1_555
H47_8 C77_8 1_555 1_555
C10_8 C17_8 1_555 1_555
C10_8 C25_8 1_555 1_555
O17_8 C28_8 1_555 1_555
C42_8 C68_8 1_555 1_555
C45_8 C59_8 1_555 1_555
C45_8 C75_8 1_555 1_555
C46_8 C60_8 1_555 1_555
C46_8 C76_8 1_555 1_555
C52_8 C70_8 1_555 1_555
C55_8 C61_8 1_555 1_555
C55_8 C65_8 1_555 1_555
C71_8 C77_8 1_555 1_555
O1_8 Zn4_4 1_555 1_555
O2_8 Zn10_3 1_555 1_555
Zn10_3 O15_4 1_555 1_555
O4_8 Zn10_3 1_555 1_555
O21_4 C2_8 1_555 1_555
C1_8 O1_8 1_555 1_555
C2_8 O2_8 1_555 1_555
C5_8 H2_8 1_555 1_555
N2_8 C19_8 1_555 1_555
C7_8 C11_8 1_555 1_555
C8_8 C1_8 1_555 1_555
C11_8 H5_8 1_555 1_555
C12_8 C5_8 1_555 1_555
C13_8 C8_8 1_555 1_555
H6_8 C13_8 1_555 1_555
C14_8 H7_8 1_555 1_555
C15_8 H8_8 1_555 1_555
C16_8 C11_8 1_555 1_555
H9_8 C16_8 1_555 1_555
C18_8 C2_8 1_555 1_555
C19_8 C14_8 1_555 1_555
C20_8 C9_8 1_555 1_555
H10_8 C20_8 1_555 1_555
C21_8 C5_8 1_555 1_555
H11_8 C21_8 1_555 1_555
C22_8 C12_8 1_555 1_555
H12_8 C22_8 1_555 1_555
C23_8 C18_8 1_555 1_555
H13_8 C23_8 1_555 1_555
C24_8 C7_8 1_555 1_555
H14_8 C24_8 1_555 1_555
C26_8 C9_8 1_555 1_555
H16_8 C26_8 1_555 1_555
O16_8 Zn11_3 1_555 1_555
C27_8 O9_4 1_555 1_555
C35_8 H19_8 1_555 1_555
C39_8 C47_8 1_555 1_555
C40_8 C48_8 1_555 1_555
C41_8 C27_8 1_555 1_555
C47_8 H25_8 1_555 1_555
C48_8 H26_8 1_555 1_555
C49_8 C35_8 1_555 1_555
C51_8 C41_8 1_555 1_555
H27_8 C51_8 1_555 1_555
C53_8 H29_8 1_555 1_555
C54_8 H30_8 1_555 1_555
C57_8 C47_8 1_555 1_555
C58_8 C48_8 1_555 1_555
H33_8 C57_8 1_555 1_555
H34_8 C58_8 1_555 1_555
C63_8 N2_8 1_555 1_555
C64_8 N2_8 1_555 1_555
C67_8 C35_8 1_555 1_555
H37_8 C67_8 1_555 1_555
C69_8 C49_8 1_555 1_555
H39_8 C69_8 1_555 1_555
C73_8 C39_8 1_555 1_555
C74_8 C40_8 1_555 1_555
H43_8 C73_8 1_555 1_555
O4_8 C1_8 1_555 1_555
C7_8 C12_8 1_555 1_555
C8_8 C21_8 1_555 1_555
C13_8 C22_8 1_555 1_555
C14_8 C24_8 1_555 1_555
C15_8 C18_8 1_555 1_555
C15_8 C20_8 1_555 1_555
C16_8 C19_8 1_555 1_555
C23_8 C26_8 1_555 1_555
O16_8 C27_8 1_555 1_555
C39_8 C49_8 1_555 1_555
C41_8 C67_8 1_555 1_555
C51_8 C69_8 1_555 1_555
C53_8 C63_8 1_555 1_555
C53_8 C73_8 1_555 1_555
C54_8 C64_8 1_555 1_555
C54_8 C74_8 1_555 1_555
C57_8 C63_8 1_555 1_555
C58_8 C64_8 1_555 1_555

#END
