
###############################################################################
#
# This file contains modified crystal structure data generated from the
# MOF subset of the Cambridge Structural Database (CSD) v543 
# hosted by the Cambridge Crystallographic Data Centre (CCDC).
#
# This work is licensed under the Creative Commons
# Attribution-NonCommercial-ShareAlike 4.0 International License.
# To view a copy of this license, visit
# http://creativecommons.org/licenses/by-nc-sa/4.0/
# or send a letter to
# Creative Commons, PO Box 1866, Mountain View, CA 94042, USA.
#
# CIF created using the CSD Python API on 29 September 2022
# The structure has been converted into the P1 space group
# The structure has a 3D framework
# The original CSD entry UWAGAB03 is in the cubic crystal system
# The framework has been calculated to contain at least 10.0% void space
# The void calculation uses a probe of radius 1.32A, grid spacing 0.4
#
###############################################################################

data_UWAGAB03
_chemical_formula_moiety         '(C624 H396 N16 O104 Zn32)n'
_symmetry_cell_setting           triclinic
_symmetry_space_group_name_H-M   'P 1'
_symmetry_Int_Tables_number      1
_space_group_name_Hall           'P 1'
loop_
_symmetry_equiv_pos_site_id
_symmetry_equiv_pos_as_xyz
1 x,y,z
_cell_length_a                   32.443(4)
_cell_length_b                   32.443(4)
_cell_length_c                   32.443(4)
_cell_angle_alpha                90
_cell_angle_beta                 90
_cell_angle_gamma                90
_cell_volume                     34147.8
loop_
_atom_site_label
_atom_site_type_symbol
_atom_site_fract_x
_atom_site_fract_y
_atom_site_fract_z
N2 N 0.11546(8) 0.11546(8) 0.11546(8)
C19 C 0.00369(8) 0.16117(8) 0.16451(8)
C20 C 0.03316(9) 0.18698(8) 0.14986(9)
H11 H 0.0284 0.2153 0.1502
C21 C 0.07809(8) 0.13074(8) 0.13268(8)
C23 C 0.01127(9) 0.11834(9) 0.16231(9)
C24 C 0.07046(9) 0.17205(9) 0.13426(9)
H14 H 0.0903 0.1905 0.1249
C25 C 0.04771(9) 0.10312(9) 0.14650(9)
H15 H 0.0521 0.0748 0.145
C32 C 0.16117(8) 0.16451(8) 0.00369(8)
C33 C 0.18698(8) 0.14986(9) 0.03316(9)
H19 H 0.2153 0.1502 0.0284
C34 C 0.13074(8) 0.13268(8) 0.07809(8)
C36 C 0.11834(9) 0.16231(9) 0.01127(9)
C37 C 0.17205(9) 0.13426(9) 0.07046(9)
H22 H 0.1905 0.1249 0.0903
C38 C 0.10312(9) 0.14650(9) 0.04771(9)
H23 H 0.0748 0.145 0.0521
C45 C 0.16451(8) 0.00369(8) 0.16117(8)
C46 C 0.14986(9) 0.03316(9) 0.18698(8)
H27 H 0.1502 0.0284 0.2153
C47 C 0.13268(8) 0.07809(8) 0.13074(8)
C49 C 0.16231(9) 0.01127(9) 0.11834(9)
C50 C 0.13426(9) 0.07046(9) 0.17205(9)
H30 H 0.1249 0.0903 0.1905
C51 C 0.14650(9) 0.04771(9) 0.10312(9)
H31 H 0.145 0.0521 0.0748
O12 O 0.16488(5) 0.22160(5) 0.69636(5)
O13 O 0.14454(5) 0.25708(5) 0.75182(5)
C66 C 0.13821(7) 0.23465(8) 0.72048(7)
C68 C 0.09437(7) 0.22390(7) 0.71125(8)
C70 C 0.04553(8) 0.18793(9) 0.66848(9)
H41 H 0.0402 0.1711 0.6459
C75 C 0.02145(8) 0.22711(8) 0.72614(8)
H46 H 0.000 0.2369 0.7425
C76 C 0.08554(8) 0.19863(8) 0.67734(8)
H47 H 0.1069 0.1891 0.6608
C77 C 0.01280(7) 0.20182(7) 0.69265(7)
C78 C 0.06198(8) 0.23794(8) 0.73532(8)
H48 H 0.0674 0.2548 0.7579
Zn8 Zn 0.196726(8) 0.275248(8) 0.775034(8)
Zn12 Zn 0.224752(8) 0.224966(8) 0.696726(8)
O6 O 0.24951(5) 0.20626(5) 0.82961(5)
C27 C 0.21924(7) 0.22383(7) 0.84628(7)
O7 O 0.19967(5) 0.25391(5) 0.83097(5)
C28 C 0.20862(8) 0.16061(8) 0.94319(8)
H17 H 0.2209 0.1376 0.955
C29 C 0.20519(7) 0.20886(7) 0.88730(7)
C30 C 0.17667(8) 0.18019(8) 0.96365(8)
C31 C 0.22241(7) 0.17465(8) 0.90577(8)
H18 H 0.2438 0.1608 0.8926
C35 C 0.17316(9) 0.22906(9) 0.90744(9)
H20 H 0.1612 0.2523 0.8956
H21 H 0.1 0.1717 0.9913
C39 C 0.15907(10) 0.21487(10) 0.94481(9)
H24 H 0.1375 0.2285 0.9578
O16 O 0.19636(5) 0.33512(5) 0.77840(5)
O18 O 0.24434(4) 0.25566(4) 0.74434(4)
Zn5 Zn 0.278993(8) 0.221007(8) 0.778993(8)
O8 O 0.20626(5) 0.82961(5) 0.24951(5)
C40 C 0.22383(7) 0.84628(7) 0.21924(7)
O9 O 0.25391(5) 0.83097(5) 0.19967(5)
C41 C 0.16061(8) 0.94319(8) 0.20862(8)
H25 H 0.1376 0.955 0.2209
C42 C 0.20886(7) 0.88730(7) 0.20519(7)
C43 C 0.18019(8) 0.96365(8) 0.17667(8)
C44 C 0.17465(8) 0.90577(8) 0.22241(7)
H26 H 0.1608 0.8926 0.2438
C48 C 0.22906(9) 0.90744(9) 0.17316(9)
H28 H 0.2523 0.8956 0.1612
H29 H 0.1717 0.9913 0.1
C52 C 0.21487(10) 0.94481(9) 0.15907(10)
H32 H 0.2285 0.9578 0.1375
Zn4 Zn 0.275248(8) 0.775034(8) 0.196726(8)
O17 O 0.33512(5) 0.77840(5) 0.19636(5)
O19 O 0.25566(4) 0.74434(4) 0.24434(4)
O20 O 0.25708(5) 0.75182(5) 0.14454(5)
Zn6 Zn 0.221007(8) 0.778993(8) 0.278993(8)
O1 O 0.82961(5) 0.24951(5) 0.20626(5)
O2 O 0.77840(5) 0.19636(5) 0.33512(5)
O3 O 0.74434(4) 0.24434(4) 0.25566(4)
O4 O 0.74292(5) 0.25182(5) 0.35546(5)
C1 C 0.84628(7) 0.21924(7) 0.22383(7)
O5 O 0.83097(5) 0.19967(5) 0.25391(5)
Zn1 Zn 0.778993(8) 0.278993(8) 0.221007(8)
Zn2 Zn 0.775034(8) 0.196726(8) 0.275248(8)
N1 N 0.84902(6) 0.15098(6) 0.65098(6)
C2 C 0.76535(8) 0.22048(7) 0.36179(7)
C3 C 0.80981(7) 0.18207(7) 0.53028(7)
C4 C 0.77610(7) 0.21125(8) 0.40563(7)
C5 C 0.83451(7) 0.16070(7) 0.61033(7)
C6 C 0.81207(9) 0.16848(9) 0.45447(8)
H1 H 0.8289 0.1459 0.4598
C7 C 0.82858(7) 0.20194(7) 0.59960(7)
H2 H 0.8325 0.2225 0.6192
C8 C 0.94319(8) 0.20862(8) 0.16061(8)
H3 H 0.955 0.2209 0.1376
C9 C 0.82699(7) 0.13020(7) 0.58092(7)
H4 H 0.8302 0.1026 0.5879
C10 C 0.81692(8) 0.21219(7) 0.55997(7)
H5 H 0.8138 0.2398 0.553
C11 C 0.81503(8) 0.14067(8) 0.54199(8)
H6 H 0.8102 0.12 0.5228
C12 C 0.77289(8) 0.22614(8) 0.47855(8)
H7 H 0.7631 0.2425 0.500
C13 C 0.80137(8) 0.17734(8) 0.41446(8)
H8 H 0.8109 0.1608 0.3931
C14 C 0.79818(7) 0.19265(7) 0.48720(7)
C15 C 0.88730(7) 0.20519(7) 0.20886(7)
C16 C 0.76206(8) 0.23532(8) 0.43802(8)
H9 H 0.7452 0.2579 0.4326
C17 C 0.96365(8) 0.17667(8) 0.18019(8)
C18 C 0.90577(8) 0.22241(7) 0.17465(8)
H10 H 0.8926 0.2438 0.1608
C22 C 0.90744(9) 0.17316(9) 0.22906(9)
H12 H 0.8956 0.1612 0.2523
H13 H 0.9913 0.1 0.1717
C26 C 0.94481(9) 0.15907(10) 0.21487(10)
H16 H 0.9578 0.1375 0.2285
C54 C 0.81793(7) 0.03028(7) 0.69019(7)
C56 C 0.83930(7) 0.11033(7) 0.66549(7)
C58 C 0.79806(7) 0.09960(7) 0.67142(7)
H34 H 0.7775 0.1192 0.6675
C59 C 0.86980(7) 0.08092(7) 0.67301(7)
H35 H 0.8974 0.0879 0.6698
C60 C 0.78781(7) 0.05997(7) 0.68308(8)
H36 H 0.7602 0.053 0.6862
C61 C 0.85933(8) 0.04199(8) 0.68497(8)
H37 H 0.88 0.0228 0.6898
H38 H 0.7575 0.000 0.7369
C67 C 0.96972(7) 0.19019(7) 0.68207(7)
C69 C 0.88967(7) 0.16549(7) 0.66070(7)
C71 C 0.90040(7) 0.17142(7) 0.70194(7)
H42 H 0.8808 0.1675 0.7225
C72 C 0.91908(7) 0.17301(7) 0.63020(7)
H43 H 0.9121 0.1698 0.6026
C73 C 0.94003(7) 0.18308(8) 0.71219(7)
H44 H 0.947 0.1862 0.7398
C74 C 0.95801(8) 0.18497(8) 0.64067(8)
H45 H 0.9772 0.1898 0.62
H46_2 H 1.000 0.2369 0.7425
O14 O 0.74951(5) 0.29374(5) 0.17039(5)
O15 O 0.79374(5) 0.32961(5) 0.25049(5)
O21 O 0.75182(5) 0.14454(5) 0.25708(5)
Zn9 Zn 0.696726(8) 0.224752(8) 0.224966(8)
Zn11 Zn 0.724752(8) 0.275034(8) 0.303274(8)
O10 O 0.80364(5) 0.83512(5) 0.72160(5)
O11 O 0.74818(5) 0.85546(5) 0.75708(5)
C53 C 0.77952(7) 0.86179(7) 0.73465(8)
C55 C 0.78875(8) 0.90563(7) 0.72390(7)
C57 C 0.83152(9) 0.95447(8) 0.68793(9)
H33 H 0.8541 0.9598 0.6711
C62 C 0.77386(8) 0.97855(8) 0.72711(8)
H38_2 H 0.7575 1.000 0.7369
C63 C 0.82266(8) 0.91446(8) 0.69863(8)
H39 H 0.8392 0.8931 0.6891
C64 C 0.80735(7) 0.98720(7) 0.70182(7)
C65 C 0.76468(8) 0.93802(8) 0.73794(8)
H40 H 0.7421 0.9326 0.7548
Zn7 Zn 0.724966(8) 0.803274(8) 0.775248(8)
Zn10 Zn 0.803274(8) 0.775248(8) 0.724966(8)
O10_2 O 0.69636(5) 0.16488(5) 0.22160(5)
C53_2 C 0.72048(7) 0.13821(7) 0.23465(8)
C55_2 C 0.71125(8) 0.09437(7) 0.22390(7)
C57_2 C 0.66848(9) 0.04553(8) 0.18793(9)
H33_2 H 0.6459 0.0402 0.1711
C62_2 C 0.72614(8) 0.02145(8) 0.22711(8)
H38_3 H 0.7425 -0.000 0.2369
C63_2 C 0.67734(8) 0.08554(8) 0.19863(8)
H39_2 H 0.6608 0.1069 0.1891
C64_2 C 0.69265(7) 0.01280(7) 0.20182(7)
C65_2 C 0.73532(8) 0.06198(8) 0.23794(8)
H40_2 H 0.7579 0.0674 0.2548
O8_2 O 0.29374(5) 0.17039(5) 0.74951(5)
C40_2 C 0.27617(7) 0.15372(7) 0.71924(7)
O9_2 O 0.24609(5) 0.16903(5) 0.69967(5)
C41_2 C 0.33939(8) 0.05681(8) 0.70862(8)
H25_2 H 0.3624 0.045 0.7209
C42_2 C 0.29114(7) 0.11270(7) 0.70519(7)
C43_2 C 0.31981(8) 0.03635(8) 0.67667(8)
C44_2 C 0.32535(8) 0.09423(8) 0.72241(7)
H26_2 H 0.3392 0.1074 0.7438
C48_2 C 0.27094(9) 0.09256(9) 0.67316(9)
H28_2 H 0.2477 0.1044 0.6612
H29_2 H 0.3283 0.0087 0.6
C52_2 C 0.28513(10) 0.05519(9) 0.65907(10)
H32_2 H 0.2715 0.0422 0.6375
O20_2 O 0.24292(5) 0.24818(5) 0.64454(5)
N1_2 N 0.65098(6) 0.84902(6) 0.15098(6)
C3_2 C 0.69019(7) 0.81793(7) 0.03028(7)
C5_2 C 0.66549(7) 0.83930(7) 0.11033(7)
C7_2 C 0.67142(7) 0.79806(7) 0.09960(7)
H2_2 H 0.6675 0.7775 0.1192
C9_2 C 0.67301(7) 0.86980(7) 0.08092(7)
H4_2 H 0.6698 0.8974 0.0879
C10_2 C 0.68308(8) 0.78781(7) 0.05997(7)
H5_2 H 0.6862 0.7602 0.053
C11_2 C 0.68497(8) 0.85933(8) 0.04199(8)
H6_2 H 0.6898 0.88 0.0228
H7_2 H 0.7369 0.7575 0.000
C54_2 C 0.68207(7) 0.96972(7) 0.19019(7)
C56_2 C 0.66070(7) 0.88967(7) 0.16549(7)
C58_2 C 0.70194(7) 0.90040(7) 0.17142(7)
H34_2 H 0.7225 0.8808 0.1675
C59_2 C 0.63020(7) 0.91908(7) 0.17301(7)
H35_2 H 0.6026 0.9121 0.1698
C60_2 C 0.71219(7) 0.94003(7) 0.18308(8)
H36_2 H 0.7398 0.947 0.1862
C61_2 C 0.64067(8) 0.95801(8) 0.18497(8)
H37_2 H 0.62 0.9772 0.1898
H38_4 H 0.7425 1.000 0.2369
O13_2 O 0.35546(5) 0.74292(5) 0.25182(5)
C66_2 C 0.36179(7) 0.76535(8) 0.22048(7)
C67_2 C 0.53028(7) 0.80981(7) 0.18207(7)
C68_2 C 0.40563(7) 0.77610(7) 0.21125(8)
C69_2 C 0.61033(7) 0.83451(7) 0.16070(7)
C70_2 C 0.45447(8) 0.81207(9) 0.16848(9)
H41_2 H 0.4598 0.8289 0.1459
C71_2 C 0.59960(7) 0.82858(7) 0.20194(7)
H42_2 H 0.6192 0.8325 0.2225
C72_2 C 0.58092(7) 0.82699(7) 0.13020(7)
H43_2 H 0.5879 0.8302 0.1026
C73_2 C 0.55997(7) 0.81692(8) 0.21219(7)
H44_2 H 0.553 0.8138 0.2398
C74_2 C 0.54199(8) 0.81503(8) 0.14067(8)
H45_2 H 0.5228 0.8102 0.12
C75_2 C 0.47855(8) 0.77289(8) 0.22614(8)
H46_3 H 0.500 0.7631 0.2425
C76_2 C 0.41446(8) 0.80137(8) 0.17734(8)
H47_2 H 0.3931 0.8109 0.1608
C77_2 C 0.48720(7) 0.79818(7) 0.19265(7)
C78_2 C 0.43802(8) 0.76206(8) 0.23532(8)
H48_2 H 0.4326 0.7452 0.2579
Zn8_2 Zn 0.303274(8) 0.724752(8) 0.275034(8)
O1_2 O 0.67039(5) 0.75049(5) 0.70626(5)
O2_2 O 0.72160(5) 0.80364(5) 0.83512(5)
O3_2 O 0.75566(4) 0.75566(4) 0.75566(4)
O4_2 O 0.75708(5) 0.74818(5) 0.85546(5)
C1_2 C 0.65372(7) 0.78076(7) 0.72383(7)
O5_2 O 0.66903(5) 0.80033(5) 0.75391(5)
Zn1_2 Zn 0.721007(8) 0.721007(8) 0.721007(8)
C2_2 C 0.73465(8) 0.77952(7) 0.86179(7)
C4_2 C 0.72390(7) 0.78875(8) 0.90563(7)
C6_2 C 0.68793(9) 0.83152(9) 0.95447(8)
H1_2 H 0.6711 0.8541 0.9598
C8_2 C 0.55681(8) 0.79138(8) 0.66061(8)
H3_2 H 0.545 0.7791 0.6376
C12_2 C 0.72711(8) 0.77386(8) 0.97855(8)
H7_3 H 0.7369 0.7575 1.000
C13_2 C 0.69863(8) 0.82266(8) 0.91446(8)
H8_2 H 0.6891 0.8392 0.8931
N2_2 N 0.38454(8) 0.88454(8) 0.61546(8)
C14_2 C 0.70182(7) 0.80735(7) 0.98720(7)
C15_2 C 0.61270(7) 0.79481(7) 0.70886(7)
C16_2 C 0.73794(8) 0.76468(8) 0.93802(8)
H9_2 H 0.7548 0.7421 0.9326
C17_2 C 0.53635(8) 0.82333(8) 0.68019(8)
C18_2 C 0.59423(8) 0.77759(7) 0.67465(8)
H10_2 H 0.6074 0.7562 0.6608
C19_2 C 0.49631(8) 0.83883(8) 0.66451(8)
C20_2 C 0.46684(9) 0.81302(8) 0.64986(9)
H11_2 H 0.4716 0.7847 0.6502
C21_2 C 0.42191(8) 0.86926(8) 0.63268(8)
C22_2 C 0.59256(9) 0.82684(9) 0.72906(9)
H12_2 H 0.6044 0.8388 0.7523
C23_2 C 0.48873(9) 0.88166(9) 0.66231(9)
H13_2 H 0.5087 0.9 0.6717
C24_2 C 0.42954(9) 0.82795(9) 0.63426(9)
H14_2 H 0.4097 0.8095 0.6249
C25_2 C 0.45229(9) 0.89688(9) 0.64650(9)
H15_2 H 0.4479 0.9252 0.645
C26_2 C 0.55519(9) 0.84093(10) 0.71487(10)
H16_2 H 0.5422 0.8625 0.7285
O6_2 O 0.25049(5) 0.79374(5) 0.32961(5)
C27_2 C 0.28076(7) 0.77617(7) 0.34628(7)
O7_2 O 0.30033(5) 0.74609(5) 0.33097(5)
C28_2 C 0.29138(8) 0.83939(8) 0.44319(8)
H17_2 H 0.2791 0.8624 0.455
C29_2 C 0.29481(7) 0.79114(7) 0.38730(7)
C30_2 C 0.32333(8) 0.81981(8) 0.46365(8)
C31_2 C 0.27759(7) 0.82535(8) 0.40577(8)
H18_2 H 0.2562 0.8392 0.3926
C32_2 C 0.33883(8) 0.83549(8) 0.50369(8)
C33_2 C 0.31302(8) 0.85014(9) 0.53316(9)
H19_2 H 0.2847 0.8498 0.5284
C34_2 C 0.36926(8) 0.86732(8) 0.57809(8)
C35_2 C 0.32684(9) 0.77094(9) 0.40744(9)
H20_2 H 0.3388 0.7477 0.3956
C36_2 C 0.38166(9) 0.83769(9) 0.51127(9)
H21_2 H 0.4 0.8283 0.4913
C37_2 C 0.32795(9) 0.86574(9) 0.57046(9)
H22_2 H 0.3095 0.8751 0.5903
C38_2 C 0.39688(9) 0.85350(9) 0.54771(9)
H23_2 H 0.4252 0.855 0.5521
C39_2 C 0.34093(10) 0.78513(10) 0.44481(9)
H24_2 H 0.3625 0.7715 0.4578
C45_2 C 0.33549(8) 0.99631(8) 0.66117(8)
C46_2 C 0.35014(9) 0.96684(9) 0.68698(8)
H27_2 H 0.3498 0.9716 0.7153
C47_2 C 0.36732(8) 0.92191(8) 0.63074(8)
C49_2 C 0.33769(9) 0.98873(9) 0.61834(9)
C50_2 C 0.36574(9) 0.92954(9) 0.67205(9)
H30_2 H 0.3751 0.9097 0.6905
C51_2 C 0.35350(9) 0.95229(9) 0.60312(9)
H31_2 H 0.355 0.9479 0.5748
O14_2 O 0.75049(5) 0.70626(5) 0.67039(5)
O15_2 O 0.70626(5) 0.67039(5) 0.75049(5)
O16_2 O 0.30364(5) 0.66488(5) 0.27840(5)
Zn11_2 Zn 0.775248(8) 0.724966(8) 0.803274(8)
C27_3 C 0.71924(7) 0.27617(7) 0.15372(7)
O7_3 O 0.69967(5) 0.24609(5) 0.16903(5)
C28_3 C 0.70862(8) 0.33939(8) 0.05681(8)
H17_3 H 0.7209 0.3624 0.045
C29_3 C 0.70519(7) 0.29114(7) 0.11270(7)
C30_3 C 0.67667(8) 0.31981(8) 0.03635(8)
C31_3 C 0.72241(7) 0.32535(8) 0.09423(8)
H18_3 H 0.7438 0.3392 0.1074
C35_3 C 0.67316(9) 0.27094(9) 0.09256(9)
H20_3 H 0.6612 0.2477 0.1044
H21_3 H 0.6 0.3283 0.0087
C39_3 C 0.65907(10) 0.28513(10) 0.05519(9)
H24_3 H 0.6375 0.2715 0.0422
O22 O 0.64454(5) 0.24292(5) 0.24818(5)
O1_3 O 0.32961(5) 0.25049(5) 0.79374(5)
O2_3 O 0.27840(5) 0.30364(5) 0.66488(5)
C1_3 C 0.34628(7) 0.28076(7) 0.77617(7)
O5_3 O 0.33097(5) 0.30033(5) 0.74609(5)
Zn2_2 Zn 0.275034(8) 0.303274(8) 0.724752(8)
N1_3 N 0.34902(6) 0.34902(6) 0.34902(6)
C2_3 C 0.26535(8) 0.27952(7) 0.63821(7)
C3_3 C 0.30981(7) 0.31793(7) 0.46972(7)
C4_3 C 0.27610(7) 0.28875(8) 0.59437(7)
C5_3 C 0.33451(7) 0.33930(7) 0.38967(7)
C6_3 C 0.31207(9) 0.33152(9) 0.54553(8)
H1_3 H 0.3289 0.3541 0.5402
C7_3 C 0.32858(7) 0.29806(7) 0.40040(7)
H2_3 H 0.3325 0.2775 0.3808
C8_3 C 0.44319(8) 0.29138(8) 0.83939(8)
H3_3 H 0.455 0.2791 0.8624
C9_3 C 0.32699(7) 0.36980(7) 0.41908(7)
H4_3 H 0.3302 0.3974 0.4121
C10_3 C 0.31692(8) 0.28781(7) 0.44003(7)
H5_3 H 0.3138 0.2602 0.447
C11_3 C 0.31503(8) 0.35933(8) 0.45801(8)
H6_3 H 0.3102 0.38 0.4772
C12_3 C 0.27289(8) 0.27386(8) 0.52145(8)
H7_4 H 0.2631 0.2575 0.500
C13_3 C 0.30137(8) 0.32266(8) 0.58554(8)
H8_3 H 0.3109 0.3392 0.6069
N2_3 N 0.61546(8) 0.38454(8) 0.88454(8)
C14_3 C 0.29818(7) 0.30735(7) 0.51280(7)
C15_3 C 0.38730(7) 0.29481(7) 0.79114(7)
C16_3 C 0.26206(8) 0.26468(8) 0.56198(8)
H9_3 H 0.2452 0.2421 0.5674
C17_3 C 0.46365(8) 0.32333(8) 0.81981(8)
C18_3 C 0.40577(8) 0.27759(7) 0.82535(8)
H10_3 H 0.3926 0.2562 0.8392
C19_3 C 0.50369(8) 0.33883(8) 0.83549(8)
C20_3 C 0.53316(9) 0.31302(8) 0.85014(9)
H11_3 H 0.5284 0.2847 0.8498
C21_3 C 0.57809(8) 0.36926(8) 0.86732(8)
C22_3 C 0.40744(9) 0.32684(9) 0.77094(9)
H12_3 H 0.3956 0.3388 0.7477
C23_3 C 0.51127(9) 0.38166(9) 0.83769(9)
H13_3 H 0.4913 0.4 0.8283
C24_3 C 0.57046(9) 0.32795(9) 0.86574(9)
H14_3 H 0.5903 0.3095 0.8751
C25_3 C 0.54771(9) 0.39688(9) 0.85350(9)
H15_3 H 0.5521 0.4252 0.855
C26_3 C 0.44481(9) 0.34093(10) 0.78513(10)
H16_3 H 0.4578 0.3625 0.7715
C32_3 C 0.66117(8) 0.33549(8) 0.99631(8)
C33_3 C 0.68698(8) 0.35014(9) 0.96684(9)
H19_3 H 0.7153 0.3498 0.9716
C34_3 C 0.63074(8) 0.36732(8) 0.92191(8)
C36_3 C 0.61834(9) 0.33769(9) 0.98873(9)
C37_3 C 0.67205(9) 0.36574(9) 0.92954(9)
H22_3 H 0.6905 0.3751 0.9097
C38_3 C 0.60312(9) 0.35350(9) 0.95229(9)
H23_3 H 0.5748 0.355 0.9479
C40_3 C 0.72383(7) 0.65372(7) 0.78076(7)
O9_3 O 0.75391(5) 0.66903(5) 0.80033(5)
C41_3 C 0.66061(8) 0.55681(8) 0.79138(8)
H25_3 H 0.6376 0.545 0.7791
C42_3 C 0.70886(7) 0.61270(7) 0.79481(7)
C43_3 C 0.68019(8) 0.53635(8) 0.82333(8)
C44_3 C 0.67465(8) 0.59423(8) 0.77759(7)
H26_3 H 0.6608 0.6074 0.7562
C45_3 C 0.66451(8) 0.49631(8) 0.83883(8)
C46_3 C 0.64986(9) 0.46684(9) 0.81302(8)
H27_3 H 0.6502 0.4716 0.7847
C47_3 C 0.63268(8) 0.42191(8) 0.86926(8)
C48_3 C 0.72906(9) 0.59256(9) 0.82684(9)
H28_3 H 0.7523 0.6044 0.8388
C49_3 C 0.66231(9) 0.48873(9) 0.88166(9)
H29_3 H 0.6717 0.5087 0.9
C50_3 C 0.63426(9) 0.42954(9) 0.82795(9)
H30_3 H 0.6249 0.4097 0.8095
C51_3 C 0.64650(9) 0.45229(9) 0.89688(9)
H31_3 H 0.645 0.4479 0.9252
C52_3 C 0.71487(10) 0.55519(9) 0.84093(10)
H32_3 H 0.7285 0.5422 0.8625
O11_2 O 0.24818(5) 0.64454(5) 0.24292(5)
C53_3 C 0.27952(7) 0.63821(7) 0.26535(8)
C54_3 C 0.31793(7) 0.46972(7) 0.30981(7)
C55_3 C 0.28875(8) 0.59437(7) 0.27610(7)
C56_3 C 0.33930(7) 0.38967(7) 0.33451(7)
C57_3 C 0.33152(9) 0.54553(8) 0.31207(9)
H33_3 H 0.3541 0.5402 0.3289
C58_3 C 0.29806(7) 0.40040(7) 0.32858(7)
H34_3 H 0.2775 0.3808 0.3325
C59_3 C 0.36980(7) 0.41908(7) 0.32699(7)
H35_3 H 0.3974 0.4121 0.3302
C60_3 C 0.28781(7) 0.44003(7) 0.31692(8)
H36_3 H 0.2602 0.447 0.3138
C61_3 C 0.35933(8) 0.45801(8) 0.31503(8)
H37_3 H 0.38 0.4772 0.3102
C62_3 C 0.27386(8) 0.52145(8) 0.27289(8)
H38_5 H 0.2575 0.500 0.2631
C63_3 C 0.32266(8) 0.58554(8) 0.30137(8)
H39_3 H 0.3392 0.6069 0.3109
C64_3 C 0.30735(7) 0.51280(7) 0.29818(7)
C65_3 C 0.26468(8) 0.56198(8) 0.26206(8)
H40_3 H 0.2421 0.5674 0.2452
O12_2 O 0.66488(5) 0.27840(5) 0.30364(5)
C66_3 C 0.63821(7) 0.26535(8) 0.27952(7)
C67_3 C 0.46972(7) 0.30981(7) 0.31793(7)
C68_3 C 0.59437(7) 0.27610(7) 0.28875(8)
C69_3 C 0.38967(7) 0.33451(7) 0.33930(7)
C70_3 C 0.54553(8) 0.31207(9) 0.33152(9)
H41_3 H 0.5402 0.3289 0.3541
C71_3 C 0.40040(7) 0.32858(7) 0.29806(7)
H42_3 H 0.3808 0.3325 0.2775
C72_3 C 0.41908(7) 0.32699(7) 0.36980(7)
H43_3 H 0.4121 0.3302 0.3974
C73_3 C 0.44003(7) 0.31692(8) 0.28781(7)
H44_3 H 0.447 0.3138 0.2602
C74_3 C 0.45801(8) 0.31503(8) 0.35933(8)
H45_3 H 0.4772 0.3102 0.38
C75_3 C 0.52145(8) 0.27289(8) 0.27386(8)
H46_4 H 0.500 0.2631 0.2575
C76_3 C 0.58554(8) 0.30137(8) 0.32266(8)
H47_3 H 0.6069 0.3109 0.3392
C77_3 C 0.51280(7) 0.29818(7) 0.30735(7)
C78_3 C 0.56198(8) 0.26206(8) 0.26468(8)
H48_3 H 0.5674 0.2452 0.2421
O17_2 O 0.83512(5) 0.72160(5) 0.80364(5)
O21_2 O 0.25182(5) 0.35546(5) 0.74292(5)
Zn7_2 Zn 0.224966(8) 0.696726(8) 0.224752(8)
O1_4 O 0.17039(5) 0.74951(5) 0.29374(5)
O2_4 O 0.22160(5) 0.69636(5) 0.16488(5)
C1_4 C 0.15372(7) 0.71924(7) 0.27617(7)
O5_4 O 0.16903(5) 0.69967(5) 0.24609(5)
C2_4 C 0.23465(8) 0.72048(7) 0.13821(7)
C4_4 C 0.22390(7) 0.71125(8) 0.09437(7)
C6_4 C 0.18793(9) 0.66848(9) 0.04553(8)
H1_4 H 0.1711 0.6459 0.0402
C8_4 C 0.05681(8) 0.70862(8) 0.33939(8)
H3_4 H 0.045 0.7209 0.3624
C12_4 C 0.22711(8) 0.72614(8) 0.02145(8)
H7_5 H 0.2369 0.7425 0.000
C13_4 C 0.19863(8) 0.67734(8) 0.08554(8)
H8_4 H 0.1891 0.6608 0.1069
C14_4 C 0.20182(7) 0.69265(7) 0.01280(7)
C15_4 C 0.11270(7) 0.70519(7) 0.29114(7)
C16_4 C 0.23794(8) 0.73532(8) 0.06198(8)
H9_4 H 0.2548 0.7579 0.0674
C17_4 C 0.03635(8) 0.67667(8) 0.31981(8)
C18_4 C 0.09423(8) 0.72241(7) 0.32535(8)
H10_4 H 0.1074 0.7438 0.3392
C22_4 C 0.09256(9) 0.67316(9) 0.27094(9)
H12_4 H 0.1044 0.6612 0.2477
H13_4 H 0.0087 0.6 0.3283
C26_4 C 0.05519(9) 0.65907(10) 0.28513(10)
H16_4 H 0.0422 0.6375 0.2715
N1_4 N 0.15098(6) 0.65098(6) 0.84902(6)
C3_4 C 0.19019(7) 0.68207(7) 0.96972(7)
C5_4 C 0.16549(7) 0.66070(7) 0.88967(7)
C7_4 C 0.17142(7) 0.70194(7) 0.90040(7)
H2_4 H 0.1675 0.7225 0.8808
C9_4 C 0.17301(7) 0.63020(7) 0.91908(7)
H4_4 H 0.1698 0.6026 0.9121
C10_4 C 0.18308(8) 0.71219(7) 0.94003(7)
H5_4 H 0.1862 0.7398 0.947
C11_4 C 0.18497(8) 0.64067(8) 0.95801(8)
H6_4 H 0.1898 0.62 0.9772
H7_6 H 0.2369 0.7425 1.000
C53_4 C 0.22048(7) 0.36179(7) 0.76535(8)
C54_4 C 0.18207(7) 0.53028(7) 0.80981(7)
C55_4 C 0.21125(8) 0.40563(7) 0.77610(7)
C56_4 C 0.16070(7) 0.61033(7) 0.83451(7)
C57_4 C 0.16848(9) 0.45447(8) 0.81207(9)
H33_4 H 0.1459 0.4598 0.8289
C58_4 C 0.20194(7) 0.59960(7) 0.82858(7)
H34_4 H 0.2225 0.6192 0.8325
C59_4 C 0.13020(7) 0.58092(7) 0.82699(7)
H35_4 H 0.1026 0.5879 0.8302
C60_4 C 0.21219(7) 0.55997(7) 0.81692(8)
H36_4 H 0.2398 0.553 0.8138
C61_4 C 0.14067(8) 0.54199(8) 0.81503(8)
H37_4 H 0.12 0.5228 0.8102
C62_4 C 0.22614(8) 0.47855(8) 0.77289(8)
H38_6 H 0.2425 0.500 0.7631
C63_4 C 0.17734(8) 0.41446(8) 0.80137(8)
H39_4 H 0.1608 0.3931 0.8109
C64_4 C 0.19265(7) 0.48720(7) 0.79818(7)
C65_4 C 0.23532(8) 0.43802(8) 0.76206(8)
H40_4 H 0.2579 0.4326 0.7452
C67_4 C 0.03028(7) 0.69019(7) 0.81793(7)
C69_4 C 0.11033(7) 0.66549(7) 0.83930(7)
C71_4 C 0.09960(7) 0.67142(7) 0.79806(7)
H42_4 H 0.1192 0.6675 0.7775
C72_4 C 0.08092(7) 0.67301(7) 0.86980(7)
H43_4 H 0.0879 0.6698 0.8974
C73_4 C 0.05997(7) 0.68308(8) 0.78781(7)
H44_4 H 0.053 0.6862 0.7602
C74_4 C 0.04199(8) 0.68497(8) 0.85933(8)
H45_4 H 0.0228 0.6898 0.88
H46_5 H 0.000 0.7369 0.7575
N2_4 N 0.88454(8) 0.61546(8) 0.38454(8)
C19_4 C 0.99631(8) 0.66117(8) 0.33549(8)
C20_4 C 0.96684(9) 0.68698(8) 0.35014(9)
H11_4 H 0.9716 0.7153 0.3498
C21_4 C 0.92191(8) 0.63074(8) 0.36732(8)
C23_4 C 0.98873(9) 0.61834(9) 0.33769(9)
C24_4 C 0.92954(9) 0.67205(9) 0.36574(9)
H14_4 H 0.9097 0.6905 0.3751
C25_4 C 0.95229(9) 0.60312(9) 0.35350(9)
H15_4 H 0.9479 0.5748 0.355
C27_4 C 0.78076(7) 0.72383(7) 0.65372(7)
O7_4 O 0.80033(5) 0.75391(5) 0.66903(5)
C28_4 C 0.79138(8) 0.66061(8) 0.55681(8)
H17_4 H 0.7791 0.6376 0.545
C29_4 C 0.79481(7) 0.70886(7) 0.61270(7)
C30_4 C 0.82333(8) 0.68019(8) 0.53635(8)
C31_4 C 0.77759(7) 0.67465(8) 0.59423(8)
H18_4 H 0.7562 0.6608 0.6074
C32_4 C 0.83883(8) 0.66451(8) 0.49631(8)
C33_4 C 0.81302(8) 0.64986(9) 0.46684(9)
H19_4 H 0.7847 0.6502 0.4716
C34_4 C 0.86926(8) 0.63268(8) 0.42191(8)
C35_4 C 0.82684(9) 0.72906(9) 0.59256(9)
H20_4 H 0.8388 0.7523 0.6044
C36_4 C 0.88166(9) 0.66231(9) 0.48873(9)
H21_4 H 0.9 0.6717 0.5087
C37_4 C 0.82795(9) 0.63426(9) 0.42954(9)
H22_4 H 0.8095 0.6249 0.4097
C38_4 C 0.89688(9) 0.64650(9) 0.45229(9)
H23_4 H 0.9252 0.645 0.4479
C39_4 C 0.84093(10) 0.71487(10) 0.55519(9)
H24_4 H 0.8625 0.7285 0.5422
C40_4 C 0.77617(7) 0.34628(7) 0.28076(7)
O9_4 O 0.74609(5) 0.33097(5) 0.30033(5)
C41_4 C 0.83939(8) 0.44319(8) 0.29138(8)
H25_4 H 0.8624 0.455 0.2791
C42_4 C 0.79114(7) 0.38730(7) 0.29481(7)
C43_4 C 0.81981(8) 0.46365(8) 0.32333(8)
C44_4 C 0.82535(8) 0.40577(8) 0.27759(7)
H26_4 H 0.8392 0.3926 0.2562
C45_4 C 0.83549(8) 0.50369(8) 0.33883(8)
C46_4 C 0.85014(9) 0.53316(9) 0.31302(8)
H27_4 H 0.8498 0.5284 0.2847
C47_4 C 0.86732(8) 0.57809(8) 0.36926(8)
C48_4 C 0.77094(9) 0.40744(9) 0.32684(9)
H28_4 H 0.7477 0.3956 0.3388
C49_4 C 0.83769(9) 0.51127(9) 0.38166(9)
H29_4 H 0.8283 0.4913 0.4
C50_4 C 0.86574(9) 0.57046(9) 0.32795(9)
H30_4 H 0.8751 0.5903 0.3095
C51_4 C 0.85350(9) 0.54771(9) 0.39688(9)
H31_4 H 0.855 0.5521 0.4252
C52_4 C 0.78513(10) 0.44481(9) 0.34093(10)
H32_4 H 0.7715 0.4578 0.3625
O22_2 O 0.85546(5) 0.75708(5) 0.74818(5)
C66_4 C 0.86179(7) 0.73465(8) 0.77952(7)
C68_4 C 0.90563(7) 0.72390(7) 0.78875(8)
C70_4 C 0.95447(8) 0.68793(9) 0.83152(9)
H41_4 H 0.9598 0.6711 0.8541
C75_4 C 0.97855(8) 0.72711(8) 0.77386(8)
H46_6 H 1.000 0.7369 0.7575
C76_4 C 0.91446(8) 0.69863(8) 0.82266(8)
H47_4 H 0.8931 0.6891 0.8392
C77_4 C 0.98720(7) 0.70182(7) 0.80735(7)
C78_4 C 0.93802(8) 0.73794(8) 0.76468(8)
H48_4 H 0.9326 0.7548 0.7421
O10_3 O 0.19636(5) 0.16488(5) 0.27840(5)
O11_3 O 0.25182(5) 0.14454(5) 0.24292(5)
C53_5 C 0.22048(7) 0.13821(7) 0.26535(8)
C55_5 C 0.21125(8) 0.09437(7) 0.27610(7)
C57_5 C 0.16848(9) 0.04553(8) 0.31207(9)
H33_5 H 0.1459 0.0402 0.3289
C62_5 C 0.22614(8) 0.02145(8) 0.27289(8)
H38_7 H 0.2425 -0.000 0.2631
C63_5 C 0.17734(8) 0.08554(8) 0.30137(8)
H39_5 H 0.1608 0.1069 0.3109
C64_5 C 0.19265(7) 0.01280(7) 0.29818(7)
C65_5 C 0.23532(8) 0.06198(8) 0.26206(8)
H40_5 H 0.2579 0.0674 0.2452
Zn7_3 Zn 0.275034(8) 0.196726(8) 0.224752(8)
Zn10_2 Zn 0.196726(8) 0.224752(8) 0.275034(8)
O1_5 O 0.17039(5) 0.75049(5) 0.79374(5)
O2_5 O 0.22160(5) 0.80364(5) 0.66488(5)
O3_3 O 0.25566(4) 0.75566(4) 0.74434(4)
O4_3 O 0.25708(5) 0.74818(5) 0.64454(5)
C1_5 C 0.15372(7) 0.78076(7) 0.77617(7)
O5_5 O 0.16903(5) 0.80033(5) 0.74609(5)
Zn1_3 Zn 0.221007(8) 0.721007(8) 0.778993(8)
Zn2_3 Zn 0.224966(8) 0.803274(8) 0.724752(8)
N1_5 N 0.15098(6) 0.84902(6) 0.34902(6)
C2_5 C 0.23465(8) 0.77952(7) 0.63821(7)
C3_5 C 0.19019(7) 0.81793(7) 0.46972(7)
C4_5 C 0.22390(7) 0.78875(8) 0.59437(7)
C5_5 C 0.16549(7) 0.83930(7) 0.38967(7)
C6_5 C 0.18793(9) 0.83152(9) 0.54553(8)
H1_5 H 0.1711 0.8541 0.5402
C7_5 C 0.17142(7) 0.79806(7) 0.40040(7)
H2_5 H 0.1675 0.7775 0.3808
C8_5 C 0.05681(8) 0.79138(8) 0.83939(8)
H3_5 H 0.045 0.7791 0.8624
C9_5 C 0.17301(7) 0.86980(7) 0.41908(7)
H4_5 H 0.1698 0.8974 0.4121
C10_5 C 0.18308(8) 0.78781(7) 0.44003(7)
H5_5 H 0.1862 0.7602 0.447
C11_5 C 0.18497(8) 0.85933(8) 0.45801(8)
H6_5 H 0.1898 0.88 0.4772
C12_5 C 0.22711(8) 0.77386(8) 0.52145(8)
H7_7 H 0.2369 0.7575 0.500
C13_5 C 0.19863(8) 0.82266(8) 0.58554(8)
H8_5 H 0.1891 0.8392 0.6069
C14_5 C 0.20182(7) 0.80735(7) 0.51280(7)
C15_5 C 0.11270(7) 0.79481(7) 0.79114(7)
C16_5 C 0.23794(8) 0.76468(8) 0.56198(8)
H9_5 H 0.2548 0.7421 0.5674
C17_5 C 0.03635(8) 0.82333(8) 0.81981(8)
C18_5 C 0.09423(8) 0.77759(7) 0.82535(8)
H10_5 H 0.1074 0.7562 0.8392
C22_5 C 0.09256(9) 0.82684(9) 0.77094(9)
H12_5 H 0.1044 0.8388 0.7477
H13_5 H 0.0087 0.9 0.8283
C26_5 C 0.05519(9) 0.84093(10) 0.78513(10)
H16_5 H 0.0422 0.8625 0.7715
C54_5 C 0.18207(7) 0.96972(7) 0.30981(7)
C56_5 C 0.16070(7) 0.88967(7) 0.33451(7)
C58_5 C 0.20194(7) 0.90040(7) 0.32858(7)
H34_5 H 0.2225 0.8808 0.3325
C59_5 C 0.13020(7) 0.91908(7) 0.32699(7)
H35_5 H 0.1026 0.9121 0.3302
C60_5 C 0.21219(7) 0.94003(7) 0.31692(8)
H36_5 H 0.2398 0.947 0.3138
C61_5 C 0.14067(8) 0.95801(8) 0.31503(8)
H37_5 H 0.12 0.9772 0.3102
H38_8 H 0.2425 1.000 0.2631
C67_5 C 0.03028(7) 0.80981(7) 0.31793(7)
C69_5 C 0.11033(7) 0.83451(7) 0.33930(7)
C71_5 C 0.09960(7) 0.82858(7) 0.29806(7)
H42_5 H 0.1192 0.8325 0.2775
C72_5 C 0.08092(7) 0.82699(7) 0.36980(7)
H43_5 H 0.0879 0.8302 0.3974
C73_5 C 0.05997(7) 0.81692(8) 0.28781(7)
H44_5 H 0.053 0.8138 0.2602
C74_5 C 0.04199(8) 0.81503(8) 0.35933(8)
H45_5 H 0.0228 0.8102 0.38
H46_7 H 0.000 0.7631 0.2575
O14_3 O 0.25049(5) 0.70626(5) 0.82961(5)
O15_3 O 0.20626(5) 0.67039(5) 0.74951(5)
O21_3 O 0.24818(5) 0.85546(5) 0.74292(5)
Zn9_2 Zn 0.303274(8) 0.775248(8) 0.775034(8)
Zn11_3 Zn 0.275248(8) 0.724966(8) 0.696726(8)
O8_3 O 0.79374(5) 0.17039(5) 0.75049(5)
C40_5 C 0.77617(7) 0.15372(7) 0.78076(7)
O9_5 O 0.74609(5) 0.16903(5) 0.80033(5)
C41_5 C 0.83939(8) 0.05681(8) 0.79138(8)
H25_5 H 0.8624 0.045 0.7791
C42_5 C 0.79114(7) 0.11270(7) 0.79481(7)
C43_5 C 0.81981(8) 0.03635(8) 0.82333(8)
C44_5 C 0.82535(8) 0.09423(8) 0.77759(7)
H26_5 H 0.8392 0.1074 0.7562
C48_5 C 0.77094(9) 0.09256(9) 0.82684(9)
H28_5 H 0.7477 0.1044 0.8388
H29_5 H 0.8283 0.0087 0.9
C52_5 C 0.78513(10) 0.05519(9) 0.84093(10)
H32_5 H 0.7715 0.0422 0.8625
Zn4_2 Zn 0.724752(8) 0.224966(8) 0.803274(8)
O17_3 O 0.66488(5) 0.22160(5) 0.80364(5)
O19_2 O 0.74434(4) 0.25566(4) 0.75566(4)
O20_3 O 0.74292(5) 0.24818(5) 0.85546(5)
Zn6_2 Zn 0.778993(8) 0.221007(8) 0.721007(8)
O6_3 O 0.75049(5) 0.79374(5) 0.17039(5)
C27_5 C 0.78076(7) 0.77617(7) 0.15372(7)
O7_5 O 0.80033(5) 0.74609(5) 0.16903(5)
C28_5 C 0.79138(8) 0.83939(8) 0.05681(8)
H17_5 H 0.7791 0.8624 0.045
C29_5 C 0.79481(7) 0.79114(7) 0.11270(7)
C30_5 C 0.82333(8) 0.81981(8) 0.03635(8)
C31_5 C 0.77759(7) 0.82535(8) 0.09423(8)
H18_5 H 0.7562 0.8392 0.1074
C35_5 C 0.82684(9) 0.77094(9) 0.09256(9)
H20_5 H 0.8388 0.7477 0.1044
H21_5 H 0.9 0.8283 0.0087
C39_5 C 0.84093(10) 0.78513(10) 0.05519(9)
H24_5 H 0.8625 0.7715 0.0422
Zn3 Zn 0.803274(8) 0.724752(8) 0.224966(8)
O16_3 O 0.80364(5) 0.66488(5) 0.22160(5)
O18_2 O 0.75566(4) 0.74434(4) 0.25566(4)
O22_3 O 0.85546(5) 0.74292(5) 0.24818(5)
Zn5_2 Zn 0.721007(8) 0.778993(8) 0.221007(8)
N2_5 N 0.88454(8) 0.88454(8) 0.88454(8)
C19_5 C 0.99631(8) 0.83883(8) 0.83549(8)
C20_5 C 0.96684(9) 0.81302(8) 0.85014(9)
H11_5 H 0.9716 0.7847 0.8498
C21_5 C 0.92191(8) 0.86926(8) 0.86732(8)
C23_5 C 0.98873(9) 0.88166(9) 0.83769(9)
C24_5 C 0.92954(9) 0.82795(9) 0.86574(9)
H14_5 H 0.9097 0.8095 0.8751
C25_5 C 0.95229(9) 0.89688(9) 0.85350(9)
H15_5 H 0.9479 0.9252 0.855
C32_5 C 0.83883(8) 0.83549(8) 0.99631(8)
C33_5 C 0.81302(8) 0.85014(9) 0.96684(9)
H19_5 H 0.7847 0.8498 0.9716
C34_5 C 0.86926(8) 0.86732(8) 0.92191(8)
C36_5 C 0.88166(9) 0.83769(9) 0.98873(9)
C37_5 C 0.82795(9) 0.86574(9) 0.92954(9)
H22_5 H 0.8095 0.8751 0.9097
C38_5 C 0.89688(9) 0.85350(9) 0.95229(9)
H23_5 H 0.9252 0.855 0.9479
C45_5 C 0.83549(8) 0.99631(8) 0.83883(8)
C46_5 C 0.85014(9) 0.96684(9) 0.81302(8)
H27_5 H 0.8498 0.9716 0.7847
C47_5 C 0.86732(8) 0.92191(8) 0.86926(8)
C49_5 C 0.83769(9) 0.98873(9) 0.88166(9)
C50_5 C 0.86574(9) 0.92954(9) 0.82795(9)
H30_5 H 0.8751 0.9097 0.8095
C51_5 C 0.85350(9) 0.95229(9) 0.89688(9)
H31_5 H 0.855 0.9479 0.9252
O12_3 O 0.83512(5) 0.77840(5) 0.30364(5)
C66_5 C 0.86179(7) 0.76535(8) 0.27952(7)
C68_5 C 0.90563(7) 0.77610(7) 0.28875(8)
C70_5 C 0.95447(8) 0.81207(9) 0.33152(9)
H41_5 H 0.9598 0.8289 0.3541
C75_5 C 0.97855(8) 0.77289(8) 0.27386(8)
H46_8 H 1.000 0.7631 0.2575
C76_5 C 0.91446(8) 0.80137(8) 0.32266(8)
H47_5 H 0.8931 0.8109 0.3392
C77_5 C 0.98720(7) 0.79818(7) 0.30735(7)
C78_5 C 0.93802(8) 0.76206(8) 0.26468(8)
H48_5 H 0.9326 0.7452 0.2421
Zn12_2 Zn 0.775248(8) 0.775034(8) 0.303274(8)
O1_6 O 0.32961(5) 0.24951(5) 0.29374(5)
O2_6 O 0.27840(5) 0.19636(5) 0.16488(5)
O3_4 O 0.24434(4) 0.24434(4) 0.24434(4)
O4_4 O 0.24292(5) 0.25182(5) 0.14454(5)
C1_6 C 0.34628(7) 0.21924(7) 0.27617(7)
O5_6 O 0.33097(5) 0.19967(5) 0.24609(5)
Zn1_4 Zn 0.278993(8) 0.278993(8) 0.278993(8)
C2_6 C 0.26535(8) 0.22048(7) 0.13821(7)
C4_6 C 0.27610(7) 0.21125(8) 0.09437(7)
C6_6 C 0.31207(9) 0.16848(9) 0.04553(8)
H1_6 H 0.3289 0.1459 0.0402
C8_6 C 0.44319(8) 0.20862(8) 0.33939(8)
H3_6 H 0.455 0.2209 0.3624
C12_6 C 0.27289(8) 0.22614(8) 0.02145(8)
H7_8 H 0.2631 0.2425 0.000
C13_6 C 0.30137(8) 0.17734(8) 0.08554(8)
H8_6 H 0.3109 0.1608 0.1069
N2_6 N 0.61546(8) 0.11546(8) 0.38454(8)
C14_6 C 0.29818(7) 0.19265(7) 0.01280(7)
C15_6 C 0.38730(7) 0.20519(7) 0.29114(7)
C16_6 C 0.26206(8) 0.23532(8) 0.06198(8)
H9_6 H 0.2452 0.2579 0.0674
C17_6 C 0.46365(8) 0.17667(8) 0.31981(8)
C18_6 C 0.40577(8) 0.22241(7) 0.32535(8)
H10_6 H 0.3926 0.2438 0.3392
C19_6 C 0.50369(8) 0.16117(8) 0.33549(8)
C20_6 C 0.53316(9) 0.18698(8) 0.35014(9)
H11_6 H 0.5284 0.2153 0.3498
C21_6 C 0.57809(8) 0.13074(8) 0.36732(8)
C22_6 C 0.40744(9) 0.17316(9) 0.27094(9)
H12_6 H 0.3956 0.1612 0.2477
C23_6 C 0.51127(9) 0.11834(9) 0.33769(9)
H13_6 H 0.4913 0.1 0.3283
C24_6 C 0.57046(9) 0.17205(9) 0.36574(9)
H14_6 H 0.5903 0.1905 0.3751
C25_6 C 0.54771(9) 0.10312(9) 0.35350(9)
H15_6 H 0.5521 0.0748 0.355
C26_6 C 0.44481(9) 0.15907(10) 0.28513(10)
H16_6 H 0.4578 0.1375 0.2715
O6_4 O 0.74951(5) 0.20626(5) 0.67039(5)
C27_6 C 0.71924(7) 0.22383(7) 0.65372(7)
O7_6 O 0.69967(5) 0.25391(5) 0.66903(5)
C28_6 C 0.70862(8) 0.16061(8) 0.55681(8)
H17_6 H 0.7209 0.1376 0.545
C29_6 C 0.70519(7) 0.20886(7) 0.61270(7)
C30_6 C 0.67667(8) 0.18019(8) 0.53635(8)
C31_6 C 0.72241(7) 0.17465(8) 0.59423(8)
H18_6 H 0.7438 0.1608 0.6074
C32_6 C 0.66117(8) 0.16451(8) 0.49631(8)
C33_6 C 0.68698(8) 0.14986(9) 0.46684(9)
H19_6 H 0.7153 0.1502 0.4716
C34_6 C 0.63074(8) 0.13268(8) 0.42191(8)
C35_6 C 0.67316(9) 0.22906(9) 0.59256(9)
H20_6 H 0.6612 0.2523 0.6044
C36_6 C 0.61834(9) 0.16231(9) 0.48873(9)
H21_6 H 0.6 0.1717 0.5087
C37_6 C 0.67205(9) 0.13426(9) 0.42954(9)
H22_6 H 0.6905 0.1249 0.4097
C38_6 C 0.60312(9) 0.14650(9) 0.45229(9)
H23_6 H 0.5748 0.145 0.4479
C39_6 C 0.65907(10) 0.21487(10) 0.55519(9)
H24_6 H 0.6375 0.2285 0.5422
C45_6 C 0.66451(8) 0.00369(8) 0.33883(8)
C46_6 C 0.64986(9) 0.03316(9) 0.31302(8)
H27_6 H 0.6502 0.0284 0.2847
C47_6 C 0.63268(8) 0.07809(8) 0.36926(8)
C49_6 C 0.66231(9) 0.01127(9) 0.38166(9)
C50_6 C 0.63426(9) 0.07046(9) 0.32795(9)
H30_6 H 0.6249 0.0903 0.3095
C51_6 C 0.64650(9) 0.04771(9) 0.39688(9)
H31_6 H 0.645 0.0521 0.4252
Zn3_2 Zn 0.696726(8) 0.275248(8) 0.724966(8)
O14_4 O 0.24951(5) 0.29374(5) 0.32961(5)
O15_4 O 0.29374(5) 0.32961(5) 0.24951(5)
O16_4 O 0.69636(5) 0.33512(5) 0.72160(5)
O22_4 O 0.64454(5) 0.25708(5) 0.74818(5)
Zn11_4 Zn 0.224752(8) 0.275034(8) 0.196726(8)
N1_6 N 0.34902(6) 0.15098(6) 0.84902(6)
C3_6 C 0.30981(7) 0.18207(7) 0.96972(7)
C5_6 C 0.33451(7) 0.16070(7) 0.88967(7)
C7_6 C 0.32858(7) 0.20194(7) 0.90040(7)
H2_6 H 0.3325 0.2225 0.8808
C9_6 C 0.32699(7) 0.13020(7) 0.91908(7)
H4_6 H 0.3302 0.1026 0.9121
C10_6 C 0.31692(8) 0.21219(7) 0.94003(7)
H5_6 H 0.3138 0.2398 0.947
C11_6 C 0.31503(8) 0.14067(8) 0.95801(8)
H6_6 H 0.3102 0.12 0.9772
H7_9 H 0.2631 0.2425 1.000
C54_6 C 0.31793(7) 0.03028(7) 0.80981(7)
C56_6 C 0.33930(7) 0.11033(7) 0.83451(7)
C58_6 C 0.29806(7) 0.09960(7) 0.82858(7)
H34_6 H 0.2775 0.1192 0.8325
C59_6 C 0.36980(7) 0.08092(7) 0.82699(7)
H35_6 H 0.3974 0.0879 0.8302
C60_6 C 0.28781(7) 0.05997(7) 0.81692(8)
H36_6 H 0.2602 0.053 0.8138
C61_6 C 0.35933(8) 0.04199(8) 0.81503(8)
H37_6 H 0.38 0.0228 0.8102
H38_9 H 0.2575 0.000 0.7631
C66_6 C 0.63821(7) 0.23465(8) 0.77952(7)
C67_6 C 0.46972(7) 0.19019(7) 0.81793(7)
C68_6 C 0.59437(7) 0.22390(7) 0.78875(8)
C69_6 C 0.38967(7) 0.16549(7) 0.83930(7)
C70_6 C 0.54553(8) 0.18793(9) 0.83152(9)
H41_6 H 0.5402 0.1711 0.8541
C71_6 C 0.40040(7) 0.17142(7) 0.79806(7)
H42_6 H 0.3808 0.1675 0.7775
C72_6 C 0.41908(7) 0.17301(7) 0.86980(7)
H43_6 H 0.4121 0.1698 0.8974
C73_6 C 0.44003(7) 0.18308(8) 0.78781(7)
H44_6 H 0.447 0.1862 0.7602
C74_6 C 0.45801(8) 0.18497(8) 0.85933(8)
H45_6 H 0.4772 0.1898 0.88
C75_6 C 0.52145(8) 0.22711(8) 0.77386(8)
H46_9 H 0.500 0.2369 0.7575
C76_6 C 0.58554(8) 0.19863(8) 0.82266(8)
H47_6 H 0.6069 0.1891 0.8392
C77_6 C 0.51280(7) 0.20182(7) 0.80735(7)
C78_6 C 0.56198(8) 0.23794(8) 0.76468(8)
H48_6 H 0.5674 0.2548 0.7421
O8_4 O 0.70626(5) 0.82961(5) 0.25049(5)
C40_6 C 0.72383(7) 0.84628(7) 0.28076(7)
O9_6 O 0.75391(5) 0.83097(5) 0.30033(5)
C41_6 C 0.66061(8) 0.94319(8) 0.29138(8)
H25_6 H 0.6376 0.955 0.2791
C42_6 C 0.70886(7) 0.88730(7) 0.29481(7)
C43_6 C 0.68019(8) 0.96365(8) 0.32333(8)
C44_6 C 0.67465(8) 0.90577(8) 0.27759(7)
H26_6 H 0.6608 0.8926 0.2562
C48_6 C 0.72906(9) 0.90744(9) 0.32684(9)
H28_6 H 0.7523 0.8956 0.3388
H29_6 H 0.6717 0.9913 0.4
C52_6 C 0.71487(10) 0.94481(9) 0.34093(10)
H32_6 H 0.7285 0.9578 0.3625
O20_4 O 0.75708(5) 0.75182(5) 0.35546(5)
O10_4 O 0.30364(5) 0.83512(5) 0.77840(5)
C53_6 C 0.27952(7) 0.86179(7) 0.76535(8)
C55_6 C 0.28875(8) 0.90563(7) 0.77610(7)
C57_6 C 0.33152(9) 0.95447(8) 0.81207(9)
H33_6 H 0.3541 0.9598 0.8289
C62_6 C 0.27386(8) 0.97855(8) 0.77289(8)
H38_10 H 0.2575 1.000 0.7631
C63_6 C 0.32266(8) 0.91446(8) 0.80137(8)
H39_6 H 0.3392 0.8931 0.8109
C64_6 C 0.30735(7) 0.98720(7) 0.79818(7)
C65_6 C 0.26468(8) 0.93802(8) 0.76206(8)
H40_6 H 0.2421 0.9326 0.7452
O1_7 O 0.67039(5) 0.74951(5) 0.20626(5)
O2_7 O 0.72160(5) 0.69636(5) 0.33512(5)
C1_7 C 0.65372(7) 0.71924(7) 0.22383(7)
O5_7 O 0.66903(5) 0.69967(5) 0.25391(5)
Zn2_4 Zn 0.724966(8) 0.696726(8) 0.275248(8)
N1_7 N 0.65098(6) 0.65098(6) 0.65098(6)
C2_7 C 0.73465(8) 0.72048(7) 0.36179(7)
C3_7 C 0.69019(7) 0.68207(7) 0.53028(7)
C4_7 C 0.72390(7) 0.71125(8) 0.40563(7)
C5_7 C 0.66549(7) 0.66070(7) 0.61033(7)
C6_7 C 0.68793(9) 0.66848(9) 0.45447(8)
H1_7 H 0.6711 0.6459 0.4598
C7_7 C 0.67142(7) 0.70194(7) 0.59960(7)
H2_7 H 0.6675 0.7225 0.6192
C8_7 C 0.55681(8) 0.70862(8) 0.16061(8)
H3_7 H 0.545 0.7209 0.1376
C9_7 C 0.67301(7) 0.63020(7) 0.58092(7)
H4_7 H 0.6698 0.6026 0.5879
C10_7 C 0.68308(8) 0.71219(7) 0.55997(7)
H5_7 H 0.6862 0.7398 0.553
C11_7 C 0.68497(8) 0.64067(8) 0.54199(8)
H6_7 H 0.6898 0.62 0.5228
C12_7 C 0.72711(8) 0.72614(8) 0.47855(8)
H7_10 H 0.7369 0.7425 0.500
C13_7 C 0.69863(8) 0.67734(8) 0.41446(8)
H8_7 H 0.6891 0.6608 0.3931
N2_7 N 0.38454(8) 0.61546(8) 0.11546(8)
C14_7 C 0.70182(7) 0.69265(7) 0.48720(7)
C15_7 C 0.61270(7) 0.70519(7) 0.20886(7)
C16_7 C 0.73794(8) 0.73532(8) 0.43802(8)
H9_7 H 0.7548 0.7579 0.4326
C17_7 C 0.53635(8) 0.67667(8) 0.18019(8)
C18_7 C 0.59423(8) 0.72241(7) 0.17465(8)
H10_7 H 0.6074 0.7438 0.1608
C19_7 C 0.49631(8) 0.66117(8) 0.16451(8)
C20_7 C 0.46684(9) 0.68698(8) 0.14986(9)
H11_7 H 0.4716 0.7153 0.1502
C21_7 C 0.42191(8) 0.63074(8) 0.13268(8)
C22_7 C 0.59256(9) 0.67316(9) 0.22906(9)
H12_7 H 0.6044 0.6612 0.2523
C23_7 C 0.48873(9) 0.61834(9) 0.16231(9)
H13_7 H 0.5087 0.6 0.1717
C24_7 C 0.42954(9) 0.67205(9) 0.13426(9)
H14_7 H 0.4097 0.6905 0.1249
C25_7 C 0.45229(9) 0.60312(9) 0.14650(9)
H15_7 H 0.4479 0.5748 0.145
C26_7 C 0.55519(9) 0.65907(10) 0.21487(10)
H16_7 H 0.5422 0.6375 0.2285
C32_7 C 0.33883(8) 0.66451(8) 0.00369(8)
C33_7 C 0.31302(8) 0.64986(9) 0.03316(9)
H19_7 H 0.2847 0.6502 0.0284
C34_7 C 0.36926(8) 0.63268(8) 0.07809(8)
C36_7 C 0.38166(9) 0.66231(9) 0.01127(9)
C37_7 C 0.32795(9) 0.63426(9) 0.07046(9)
H22_7 H 0.3095 0.6249 0.0903
C38_7 C 0.39688(9) 0.64650(9) 0.04771(9)
H23_7 H 0.4252 0.645 0.0521
C40_7 C 0.27617(7) 0.34628(7) 0.21924(7)
O9_7 O 0.24609(5) 0.33097(5) 0.19967(5)
C41_7 C 0.33939(8) 0.44319(8) 0.20862(8)
H25_7 H 0.3624 0.455 0.2209
C42_7 C 0.29114(7) 0.38730(7) 0.20519(7)
C43_7 C 0.31981(8) 0.46365(8) 0.17667(8)
C44_7 C 0.32535(8) 0.40577(8) 0.22241(7)
H26_7 H 0.3392 0.3926 0.2438
C45_7 C 0.33549(8) 0.50369(8) 0.16117(8)
C46_7 C 0.35014(9) 0.53316(9) 0.18698(8)
H27_7 H 0.3498 0.5284 0.2153
C47_7 C 0.36732(8) 0.57809(8) 0.13074(8)
C48_7 C 0.27094(9) 0.40744(9) 0.17316(9)
H28_7 H 0.2477 0.3956 0.1612
C49_7 C 0.33769(9) 0.51127(9) 0.11834(9)
H29_7 H 0.3283 0.4913 0.1
C50_7 C 0.36574(9) 0.57046(9) 0.17205(9)
H30_7 H 0.3751 0.5903 0.1905
C51_7 C 0.35350(9) 0.54771(9) 0.10312(9)
H31_7 H 0.355 0.5521 0.0748
C52_7 C 0.28513(10) 0.44481(9) 0.15907(10)
H32_7 H 0.2715 0.4578 0.1375
O11_4 O 0.75182(5) 0.35546(5) 0.75708(5)
C53_7 C 0.72048(7) 0.36179(7) 0.73465(8)
C54_7 C 0.68207(7) 0.53028(7) 0.69019(7)
C55_7 C 0.71125(8) 0.40563(7) 0.72390(7)
C56_7 C 0.66070(7) 0.61033(7) 0.66549(7)
C57_7 C 0.66848(9) 0.45447(8) 0.68793(9)
H33_7 H 0.6459 0.4598 0.6711
C58_7 C 0.70194(7) 0.59960(7) 0.67142(7)
H34_7 H 0.7225 0.6192 0.6675
C59_7 C 0.63020(7) 0.58092(7) 0.67301(7)
H35_7 H 0.6026 0.5879 0.6698
C60_7 C 0.71219(7) 0.55997(7) 0.68308(8)
H36_7 H 0.7398 0.553 0.6862
C61_7 C 0.64067(8) 0.54199(8) 0.68497(8)
H37_7 H 0.62 0.5228 0.6898
C62_7 C 0.72614(8) 0.47855(8) 0.72711(8)
H38_11 H 0.7425 0.500 0.7369
C63_7 C 0.67734(8) 0.41446(8) 0.69863(8)
H39_7 H 0.6608 0.3931 0.6891
C64_7 C 0.69265(7) 0.48720(7) 0.70182(7)
C65_7 C 0.73532(8) 0.43802(8) 0.73794(8)
H40_7 H 0.7579 0.4326 0.7548
O12_4 O 0.33512(5) 0.72160(5) 0.69636(5)
O13_3 O 0.35546(5) 0.75708(5) 0.75182(5)
C66_7 C 0.36179(7) 0.73465(8) 0.72048(7)
C67_7 C 0.53028(7) 0.69019(7) 0.68207(7)
C68_7 C 0.40563(7) 0.72390(7) 0.71125(8)
C69_7 C 0.61033(7) 0.66549(7) 0.66070(7)
C70_7 C 0.45447(8) 0.68793(9) 0.66848(9)
H41_7 H 0.4598 0.6711 0.6459
C71_7 C 0.59960(7) 0.67142(7) 0.70194(7)
H42_7 H 0.6192 0.6675 0.7225
C72_7 C 0.58092(7) 0.67301(7) 0.63020(7)
H43_7 H 0.5879 0.6698 0.6026
C73_7 C 0.55997(7) 0.68308(8) 0.71219(7)
H44_7 H 0.553 0.6862 0.7398
C74_7 C 0.54199(8) 0.68497(8) 0.64067(8)
H45_7 H 0.5228 0.6898 0.62
C75_7 C 0.47855(8) 0.72711(8) 0.72614(8)
H46_10 H 0.500 0.7369 0.7425
C76_7 C 0.41446(8) 0.69863(8) 0.67734(8)
H47_7 H 0.3931 0.6891 0.6608
C77_7 C 0.48720(7) 0.70182(7) 0.69265(7)
C78_7 C 0.43802(8) 0.73794(8) 0.73532(8)
H48_7 H 0.4326 0.7548 0.7579
O17_4 O 0.16488(5) 0.27840(5) 0.19636(5)
O21_4 O 0.74818(5) 0.64454(5) 0.25708(5)
Zn7_4 Zn 0.775034(8) 0.303274(8) 0.775248(8)
C27_7 C 0.28076(7) 0.72383(7) 0.84628(7)
O7_7 O 0.30033(5) 0.75391(5) 0.83097(5)
C28_7 C 0.29138(8) 0.66061(8) 0.94319(8)
H17_7 H 0.2791 0.6376 0.955
C29_7 C 0.29481(7) 0.70886(7) 0.88730(7)
C30_7 C 0.32333(8) 0.68019(8) 0.96365(8)
C31_7 C 0.27759(7) 0.67465(8) 0.90577(8)
H18_7 H 0.2562 0.6608 0.8926
C35_7 C 0.32684(9) 0.72906(9) 0.90744(9)
H20_7 H 0.3388 0.7523 0.8956
H21_7 H 0.4 0.6717 0.9913
C39_7 C 0.34093(10) 0.71487(10) 0.94481(9)
H24_7 H 0.3625 0.7285 0.9578
O13_4 O 0.14454(5) 0.24292(5) 0.25182(5)
C66_8 C 0.13821(7) 0.26535(8) 0.22048(7)
C68_8 C 0.09437(7) 0.27610(7) 0.21125(8)
C70_8 C 0.04553(8) 0.31207(9) 0.16848(9)
H41_8 H 0.0402 0.3289 0.1459
C75_8 C 0.02145(8) 0.27289(8) 0.22614(8)
H46_11 H 0.000 0.2631 0.2425
C76_8 C 0.08554(8) 0.30137(8) 0.17734(8)
H47_8 H 0.1069 0.3109 0.1608
C77_8 C 0.01280(7) 0.29818(7) 0.19265(7)
C78_8 C 0.06198(8) 0.26206(8) 0.23532(8)
H48_8 H 0.0674 0.2452 0.2579
N2_8 N 0.11546(8) 0.38454(8) 0.61546(8)
C19_8 C 0.00369(8) 0.33883(8) 0.66451(8)
C20_8 C 0.03316(9) 0.31302(8) 0.64986(9)
H11_8 H 0.0284 0.2847 0.6502
C21_8 C 0.07809(8) 0.36926(8) 0.63268(8)
C23_8 C 0.01127(9) 0.38166(9) 0.66231(9)
C24_8 C 0.07046(9) 0.32795(9) 0.63426(9)
H14_8 H 0.0903 0.3095 0.6249
C25_8 C 0.04771(9) 0.39688(9) 0.64650(9)
H15_8 H 0.0521 0.4252 0.645
C27_8 C 0.21924(7) 0.27617(7) 0.34628(7)
O7_8 O 0.19967(5) 0.24609(5) 0.33097(5)
C28_8 C 0.20862(8) 0.33939(8) 0.44319(8)
H17_8 H 0.2209 0.3624 0.455
C29_8 C 0.20519(7) 0.29114(7) 0.38730(7)
C30_8 C 0.17667(8) 0.31981(8) 0.46365(8)
C31_8 C 0.22241(7) 0.32535(8) 0.40577(8)
H18_8 H 0.2438 0.3392 0.3926
C32_8 C 0.16117(8) 0.33549(8) 0.50369(8)
C33_8 C 0.18698(8) 0.35014(9) 0.53316(9)
H19_8 H 0.2153 0.3498 0.5284
C34_8 C 0.13074(8) 0.36732(8) 0.57809(8)
C35_8 C 0.17316(9) 0.27094(9) 0.40744(9)
H20_8 H 0.1612 0.2477 0.3956
C36_8 C 0.11834(9) 0.33769(9) 0.51127(9)
H21_8 H 0.1 0.3283 0.4913
C37_8 C 0.17205(9) 0.36574(9) 0.57046(9)
H22_8 H 0.1905 0.3751 0.5903
C38_8 C 0.10312(9) 0.35350(9) 0.54771(9)
H23_8 H 0.0748 0.355 0.5521
C39_8 C 0.15907(10) 0.28513(10) 0.44481(9)
H24_8 H 0.1375 0.2715 0.4578
C40_8 C 0.22383(7) 0.65372(7) 0.71924(7)
O9_8 O 0.25391(5) 0.66903(5) 0.69967(5)
C41_8 C 0.16061(8) 0.55681(8) 0.70862(8)
H25_8 H 0.1376 0.545 0.7209
C42_8 C 0.20886(7) 0.61270(7) 0.70519(7)
C43_8 C 0.18019(8) 0.53635(8) 0.67667(8)
C44_8 C 0.17465(8) 0.59423(8) 0.72241(7)
H26_8 H 0.1608 0.6074 0.7438
C45_8 C 0.16451(8) 0.49631(8) 0.66117(8)
C46_8 C 0.14986(9) 0.46684(9) 0.68698(8)
H27_8 H 0.1502 0.4716 0.7153
C47_8 C 0.13268(8) 0.42191(8) 0.63074(8)
C48_8 C 0.22906(9) 0.59256(9) 0.67316(9)
H28_8 H 0.2523 0.6044 0.6612
C49_8 C 0.16231(9) 0.48873(9) 0.61834(9)
H29_8 H 0.1717 0.5087 0.6
C50_8 C 0.13426(9) 0.42954(9) 0.67205(9)
H30_8 H 0.1249 0.4097 0.6905
C51_8 C 0.14650(9) 0.45229(9) 0.60312(9)
H31_8 H 0.145 0.4479 0.5748
C52_8 C 0.21487(10) 0.55519(9) 0.65907(10)
H32_8 H 0.2285 0.5422 0.6375
N1_8 N 0.84902(6) 0.34902(6) 0.15098(6)
C3_8 C 0.80981(7) 0.31793(7) 0.03028(7)
C5_8 C 0.83451(7) 0.33930(7) 0.11033(7)
C7_8 C 0.82858(7) 0.29806(7) 0.09960(7)
H2_8 H 0.8325 0.2775 0.1192
C9_8 C 0.82699(7) 0.36980(7) 0.08092(7)
H4_8 H 0.8302 0.3974 0.0879
C10_8 C 0.81692(8) 0.28781(7) 0.05997(7)
H5_8 H 0.8138 0.2602 0.053
C11_8 C 0.81503(8) 0.35933(8) 0.04199(8)
H6_8 H 0.8102 0.38 0.0228
H7_11 H 0.7631 0.2575 0.000
C53_8 C 0.77952(7) 0.63821(7) 0.23465(8)
C54_8 C 0.81793(7) 0.46972(7) 0.19019(7)
C55_8 C 0.78875(8) 0.59437(7) 0.22390(7)
C56_8 C 0.83930(7) 0.38967(7) 0.16549(7)
C57_8 C 0.83152(9) 0.54553(8) 0.18793(9)
H33_8 H 0.8541 0.5402 0.1711
C58_8 C 0.79806(7) 0.40040(7) 0.17142(7)
H34_8 H 0.7775 0.3808 0.1675
C59_8 C 0.86980(7) 0.41908(7) 0.17301(7)
H35_8 H 0.8974 0.4121 0.1698
C60_8 C 0.78781(7) 0.44003(7) 0.18308(8)
H36_8 H 0.7602 0.447 0.1862
C61_8 C 0.85933(8) 0.45801(8) 0.18497(8)
H37_8 H 0.88 0.4772 0.1898
C62_8 C 0.77386(8) 0.52145(8) 0.22711(8)
H38_12 H 0.7575 0.500 0.2369
C63_8 C 0.82266(8) 0.58554(8) 0.19863(8)
H39_8 H 0.8392 0.6069 0.1891
C64_8 C 0.80735(7) 0.51280(7) 0.20182(7)
C65_8 C 0.76468(8) 0.56198(8) 0.23794(8)
H40_8 H 0.7421 0.5674 0.2548
C67_8 C 0.96972(7) 0.30981(7) 0.18207(7)
C69_8 C 0.88967(7) 0.33451(7) 0.16070(7)
C71_8 C 0.90040(7) 0.32858(7) 0.20194(7)
H42_8 H 0.8808 0.3325 0.2225
C72_8 C 0.91908(7) 0.32699(7) 0.13020(7)
H43_8 H 0.9121 0.3302 0.1026
C73_8 C 0.94003(7) 0.31692(8) 0.21219(7)
H44_8 H 0.947 0.3138 0.2398
C74_8 C 0.95801(8) 0.31503(8) 0.14067(8)
H45_8 H 0.9772 0.3102 0.12
H46_12 H 1.000 0.2631 0.2425
O1_8 O 0.82961(5) 0.25049(5) 0.70626(5)
O2_8 O 0.77840(5) 0.30364(5) 0.83512(5)
C1_8 C 0.84628(7) 0.28076(7) 0.72383(7)
O5_8 O 0.83097(5) 0.30033(5) 0.75391(5)
C2_8 C 0.76535(8) 0.27952(7) 0.86179(7)
C4_8 C 0.77610(7) 0.28875(8) 0.90563(7)
C6_8 C 0.81207(9) 0.33152(9) 0.95447(8)
H1_8 H 0.8289 0.3541 0.9598
C8_8 C 0.94319(8) 0.29138(8) 0.66061(8)
H3_8 H 0.955 0.2791 0.6376
C12_8 C 0.77289(8) 0.27386(8) 0.97855(8)
H7_12 H 0.7631 0.2575 1.000
C13_8 C 0.80137(8) 0.32266(8) 0.91446(8)
H8_8 H 0.8109 0.3392 0.8931
C14_8 C 0.79818(7) 0.30735(7) 0.98720(7)
C15_8 C 0.88730(7) 0.29481(7) 0.70886(7)
C16_8 C 0.76206(8) 0.26468(8) 0.93802(8)
H9_8 H 0.7452 0.2421 0.9326
C17_8 C 0.96365(8) 0.32333(8) 0.68019(8)
C18_8 C 0.90577(8) 0.27759(7) 0.67465(8)
H10_8 H 0.8926 0.2562 0.6608
C22_8 C 0.90744(9) 0.32684(9) 0.72906(9)
H12_8 H 0.8956 0.3388 0.7523
H13_8 H 0.9913 0.4 0.6717
C26_8 C 0.94481(9) 0.34093(10) 0.71487(10)
H16_8 H 0.9578 0.3625 0.7285
loop_
_geom_bond_atom_site_label_1
_geom_bond_atom_site_label_2
_geom_bond_site_symmetry_1
_geom_bond_site_symmetry_2
N2 C21 1_555 1_555
C20 C19 1_555 1_555
H11 C20 1_555 1_555
C21 C24 1_555 1_555
C23 C19 1_555 1_555
C24 C20 1_555 1_555
H14 C24 1_555 1_555
C25 C21 1_555 1_555
H15 C25 1_555 1_555
C33 C32 1_555 1_555
H19 C33 1_555 1_555
C34 N2 1_555 1_555
C36 C32 1_555 1_555
C37 C33 1_555 1_555
H22 C37 1_555 1_555
C38 C34 1_555 1_555
H23 C38 1_555 1_555
C46 C45 1_555 1_555
H27 C46 1_555 1_555
C47 N2 1_555 1_555
C49 C45 1_555 1_555
C50 C46 1_555 1_555
H30 C50 1_555 1_555
C51 C47 1_555 1_555
H31 C51 1_555 1_555
O12 C66 1_555 1_555
O13 C66 1_555 1_555
C66 C68 1_555 1_555
C68 C76 1_555 1_555
C70 H41 1_555 1_555
C75 H46 1_555 1_555
C76 C70 1_555 1_555
H47 C76 1_555 1_555
C78 C68 1_555 1_555
H48 C78 1_555 1_555
Zn8 O13 1_555 1_555
Zn12 O12 1_555 1_555
C23 C25 1_555 1_555
C34 C37 1_555 1_555
C36 C38 1_555 1_555
C47 C50 1_555 1_555
C49 C51 1_555 1_555
C70 C77 1_555 1_555
C75 C77 1_555 1_555
C75 C78 1_555 1_555
O6 C27 1_555 1_555
C27 O7 1_555 1_555
O7 Zn8 1_555 1_555
C28 H17 1_555 1_555
C29 C27 1_555 1_555
C30 C28 1_555 1_555
C31 C28 1_555 1_555
H18 C31 1_555 1_555
C35 C29 1_555 1_555
H20 C35 1_555 1_555
C39 C30 1_555 1_555
H24 C39 1_555 1_555
Zn8 O16 1_555 1_555
O18 Zn8 1_555 1_555
Zn5 O6 1_555 1_555
C29 C31 1_555 1_555
C35 C39 1_555 1_555
O18 Zn5 1_555 1_555
O8 C40 1_555 1_555
C40 O9 1_555 1_555
O9 Zn4 1_555 1_555
C41 H25 1_555 1_555
C42 C40 1_555 1_555
C43 C41 1_555 1_555
C44 C41 1_555 1_555
H26 C44 1_555 1_555
C48 C42 1_555 1_555
H28 C48 1_555 1_555
C52 C43 1_555 1_555
H32 C52 1_555 1_555
Zn4 O17 1_555 1_555
O19 Zn4 1_555 1_555
O20 Zn4 1_555 1_555
Zn6 O8 1_555 1_555
C42 C44 1_555 1_555
C48 C52 1_555 1_555
O19 Zn6 1_555 1_555
O1 C1 1_555 1_555
O2 Zn2 1_555 1_555
O3 Zn1 1_555 1_555
O4 C2 1_555 1_555
C1 O5 1_555 1_555
O5 Zn2 1_555 1_555
Zn1 O1 1_555 1_555
Zn2 O3 1_555 1_555
N1 C5 1_555 1_555
C2 O2 1_555 1_555
C3 C10 1_555 1_555
C4 C2 1_555 1_555
C5 C7 1_555 1_555
C6 H1 1_555 1_555
C7 H2 1_555 1_555
C8 H3 1_555 1_555
C9 C5 1_555 1_555
H4 C9 1_555 1_555
C10 C7 1_555 1_555
H5 C10 1_555 1_555
C11 C3 1_555 1_555
H6 C11 1_555 1_555
C12 H7 1_555 1_555
C13 C4 1_555 1_555
H8 C13 1_555 1_555
C14 C3 1_555 1_555
C15 C1 1_555 1_555
C16 C4 1_555 1_555
H9 C16 1_555 1_555
C17 C8 1_555 1_555
C18 C8 1_555 1_555
H10 C18 1_555 1_555
C22 C15 1_555 1_555
H12 C22 1_555 1_555
C26 C17 1_555 1_555
H16 C26 1_555 1_555
C54 C60 1_555 1_555
C56 N1 1_555 1_555
C58 C56 1_555 1_555
H34 C58 1_555 1_555
C59 C56 1_555 1_555
H35 C59 1_555 1_555
C60 C58 1_555 1_555
H36 C60 1_555 1_555
C61 C54 1_555 1_555
H37 C61 1_555 1_555
C67 C73 1_555 1_555
C69 N1 1_555 1_555
C71 C69 1_555 1_555
H42 C71 1_555 1_555
C72 C69 1_555 1_555
H43 C72 1_555 1_555
C73 C71 1_555 1_555
H44 C73 1_555 1_555
C74 C67 1_555 1_555
H45 C74 1_555 1_555
O14 Zn1 1_555 1_555
O15 Zn1 1_555 1_555
O21 Zn2 1_555 1_555
Zn9 O3 1_555 1_555
Zn11 O3 1_555 1_555
O4 Zn11 1_555 1_555
C6 C13 1_555 1_555
C6 C14 1_555 1_555
C9 C11 1_555 1_555
C12 C14 1_555 1_555
C12 C16 1_555 1_555
C15 C18 1_555 1_555
C22 C26 1_555 1_555
C59 C61 1_555 1_555
C72 C74 1_555 1_555
O10 C53 1_555 1_555
O11 C53 1_555 1_555
C53 C55 1_555 1_555
C55 C63 1_555 1_555
C57 H33 1_555 1_555
C62 H38_2 1_555 1_555
C63 C57 1_555 1_555
H39 C63 1_555 1_555
C65 C55 1_555 1_555
H40 C65 1_555 1_555
Zn7 O11 1_555 1_555
Zn10 O10 1_555 1_555
C57 C64 1_555 1_555
C62 C64 1_555 1_555
C62 C65 1_555 1_555
O10_2 C53_2 1_555 1_555
O21 C53_2 1_555 1_555
C53_2 C55_2 1_555 1_555
C55_2 C63_2 1_555 1_555
C57_2 H33_2 1_555 1_555
C62_2 H38_3 1_555 1_555
C63_2 C57_2 1_555 1_555
H39_2 C63_2 1_555 1_555
C65_2 C55_2 1_555 1_555
H40_2 C65_2 1_555 1_555
Zn9 O10_2 1_555 1_555
C57_2 C64_2 1_555 1_555
C62_2 C64_2 1_555 1_555
C62_2 C65_2 1_555 1_555
O8_2 C40_2 1_555 1_555
C40_2 O9_2 1_555 1_555
O9_2 Zn12 1_555 1_555
C41_2 H25_2 1_555 1_555
C42_2 C40_2 1_555 1_555
C43_2 C41_2 1_555 1_555
C44_2 C41_2 1_555 1_555
H26_2 C44_2 1_555 1_555
C48_2 C42_2 1_555 1_555
H28_2 C48_2 1_555 1_555
C52_2 C43_2 1_555 1_555
H32_2 C52_2 1_555 1_555
O18 Zn12 1_555 1_555
O20_2 Zn12 1_555 1_555
Zn5 O8_2 1_555 1_555
C42_2 C44_2 1_555 1_555
C48_2 C52_2 1_555 1_555
N1_2 C5_2 1_555 1_555
C3_2 C10_2 1_555 1_555
C5_2 C7_2 1_555 1_555
C7_2 H2_2 1_555 1_555
C9_2 C5_2 1_555 1_555
H4_2 C9_2 1_555 1_555
C10_2 C7_2 1_555 1_555
H5_2 C10_2 1_555 1_555
C11_2 C3_2 1_555 1_555
H6_2 C11_2 1_555 1_555
C54_2 C60_2 1_555 1_555
C56_2 N1_2 1_555 1_555
C58_2 C56_2 1_555 1_555
H34_2 C58_2 1_555 1_555
C59_2 C56_2 1_555 1_555
H35_2 C59_2 1_555 1_555
C60_2 C58_2 1_555 1_555
H36_2 C60_2 1_555 1_555
C61_2 C54_2 1_555 1_555
H37_2 C61_2 1_555 1_555
O17 C66_2 1_555 1_555
O13_2 C66_2 1_555 1_555
C66_2 C68_2 1_555 1_555
C67_2 C73_2 1_555 1_555
C68_2 C76_2 1_555 1_555
C69_2 N1_2 1_555 1_555
C70_2 H41_2 1_555 1_555
C71_2 C69_2 1_555 1_555
H42_2 C71_2 1_555 1_555
C72_2 C69_2 1_555 1_555
H43_2 C72_2 1_555 1_555
C73_2 C71_2 1_555 1_555
H44_2 C73_2 1_555 1_555
C74_2 C67_2 1_555 1_555
H45_2 C74_2 1_555 1_555
C75_2 H46_3 1_555 1_555
C76_2 C70_2 1_555 1_555
H47_2 C76_2 1_555 1_555
C77_2 C67_2 1_555 1_555
C78_2 C68_2 1_555 1_555
H48_2 C78_2 1_555 1_555
Zn8_2 O13_2 1_555 1_555
C9_2 C11_2 1_555 1_555
C59_2 C61_2 1_555 1_555
C70_2 C77_2 1_555 1_555
C72_2 C74_2 1_555 1_555
C75_2 C77_2 1_555 1_555
C75_2 C78_2 1_555 1_555
O1_2 C1_2 1_555 1_555
O2_2 Zn7 1_555 1_555
O3_2 Zn1_2 1_555 1_555
O4_2 C2_2 1_555 1_555
C1_2 O5_2 1_555 1_555
O5_2 Zn7 1_555 1_555
Zn1_2 O1_2 1_555 1_555
Zn7 O3_2 1_555 1_555
C2_2 O2_2 1_555 1_555
C4_2 C2_2 1_555 1_555
C6_2 H1_2 1_555 1_555
C8_2 H3_2 1_555 1_555
C12_2 H7_3 1_555 1_555
C13_2 C4_2 1_555 1_555
H8_2 C13_2 1_555 1_555
N2_2 C21_2 1_555 1_555
C15_2 C1_2 1_555 1_555
C16_2 C4_2 1_555 1_555
H9_2 C16_2 1_555 1_555
C17_2 C8_2 1_555 1_555
C18_2 C8_2 1_555 1_555
H10_2 C18_2 1_555 1_555
C19_2 C17_2 1_555 1_555
C20_2 C19_2 1_555 1_555
H11_2 C20_2 1_555 1_555
C21_2 C24_2 1_555 1_555
C22_2 C15_2 1_555 1_555
H12_2 C22_2 1_555 1_555
C23_2 C19_2 1_555 1_555
H13_2 C23_2 1_555 1_555
C24_2 C20_2 1_555 1_555
H14_2 C24_2 1_555 1_555
C25_2 C21_2 1_555 1_555
H15_2 C25_2 1_555 1_555
C26_2 C17_2 1_555 1_555
H16_2 C26_2 1_555 1_555
O6_2 C27_2 1_555 1_555
C27_2 O7_2 1_555 1_555
O7_2 Zn8_2 1_555 1_555
C28_2 H17_2 1_555 1_555
C29_2 C27_2 1_555 1_555
C30_2 C28_2 1_555 1_555
C31_2 C28_2 1_555 1_555
H18_2 C31_2 1_555 1_555
C32_2 C30_2 1_555 1_555
C33_2 C32_2 1_555 1_555
H19_2 C33_2 1_555 1_555
C34_2 N2_2 1_555 1_555
C35_2 C29_2 1_555 1_555
H20_2 C35_2 1_555 1_555
C36_2 C32_2 1_555 1_555
H21_2 C36_2 1_555 1_555
C37_2 C33_2 1_555 1_555
H22_2 C37_2 1_555 1_555
C38_2 C34_2 1_555 1_555
H23_2 C38_2 1_555 1_555
C39_2 C30_2 1_555 1_555
H24_2 C39_2 1_555 1_555
C46_2 C45_2 1_555 1_555
H27_2 C46_2 1_555 1_555
C47_2 N2_2 1_555 1_555
C49_2 C45_2 1_555 1_555
C50_2 C46_2 1_555 1_555
H30_2 C50_2 1_555 1_555
C51_2 C47_2 1_555 1_555
H31_2 C51_2 1_555 1_555
Zn8_2 O16_2 1_555 1_555
O14_2 Zn1_2 1_555 1_555
O15_2 Zn1_2 1_555 1_555
O19 Zn8_2 1_555 1_555
Zn6 O6_2 1_555 1_555
Zn10 O3_2 1_555 1_555
Zn11_2 O3_2 1_555 1_555
O4_2 Zn11_2 1_555 1_555
C6_2 C13_2 1_555 1_555
C6_2 C14_2 1_555 1_555
C12_2 C14_2 1_555 1_555
C12_2 C16_2 1_555 1_555
C15_2 C18_2 1_555 1_555
C22_2 C26_2 1_555 1_555
C23_2 C25_2 1_555 1_555
C29_2 C31_2 1_555 1_555
C34_2 C37_2 1_555 1_555
C35_2 C39_2 1_555 1_555
C36_2 C38_2 1_555 1_555
C47_2 C50_2 1_555 1_555
C49_2 C51_2 1_555 1_555
O14 C27_3 1_555 1_555
C27_3 O7_3 1_555 1_555
O7_3 Zn9 1_555 1_555
C28_3 H17_3 1_555 1_555
C29_3 C27_3 1_555 1_555
C30_3 C28_3 1_555 1_555
C31_3 C28_3 1_555 1_555
H18_3 C31_3 1_555 1_555
C35_3 C29_3 1_555 1_555
H20_3 C35_3 1_555 1_555
C39_3 C30_3 1_555 1_555
H24_3 C39_3 1_555 1_555
O22 Zn9 1_555 1_555
C29_3 C31_3 1_555 1_555
C35_3 C39_3 1_555 1_555
O1_3 C1_3 1_555 1_555
O2_3 Zn2_2 1_555 1_555
O20_2 C2_3 1_555 1_555
C1_3 O5_3 1_555 1_555
O5_3 Zn2_2 1_555 1_555
Zn5 O1_3 1_555 1_555
Zn2_2 O18 1_555 1_555
N1_3 C5_3 1_555 1_555
C2_3 O2_3 1_555 1_555
C3_3 C10_3 1_555 1_555
C4_3 C2_3 1_555 1_555
C5_3 C7_3 1_555 1_555
C6_3 H1_3 1_555 1_555
C7_3 H2_3 1_555 1_555
C8_3 H3_3 1_555 1_555
C9_3 C5_3 1_555 1_555
H4_3 C9_3 1_555 1_555
C10_3 C7_3 1_555 1_555
H5_3 C10_3 1_555 1_555
C11_3 C3_3 1_555 1_555
H6_3 C11_3 1_555 1_555
C12_3 H7_4 1_555 1_555
C13_3 C4_3 1_555 1_555
H8_3 C13_3 1_555 1_555
N2_3 C21_3 1_555 1_555
C14_3 C3_3 1_555 1_555
C15_3 C1_3 1_555 1_555
C16_3 C4_3 1_555 1_555
H9_3 C16_3 1_555 1_555
C17_3 C8_3 1_555 1_555
C18_3 C8_3 1_555 1_555
H10_3 C18_3 1_555 1_555
C19_3 C17_3 1_555 1_555
C20_3 C19_3 1_555 1_555
H11_3 C20_3 1_555 1_555
C21_3 C24_3 1_555 1_555
C22_3 C15_3 1_555 1_555
H12_3 C22_3 1_555 1_555
C23_3 C19_3 1_555 1_555
H13_3 C23_3 1_555 1_555
C24_3 C20_3 1_555 1_555
H14_3 C24_3 1_555 1_555
C25_3 C21_3 1_555 1_555
H15_3 C25_3 1_555 1_555
C26_3 C17_3 1_555 1_555
H16_3 C26_3 1_555 1_555
C33_3 C32_3 1_555 1_555
H19_3 C33_3 1_555 1_555
C34_3 N2_3 1_555 1_555
C36_3 C32_3 1_555 1_555
C37_3 C33_3 1_555 1_555
H22_3 C37_3 1_555 1_555
C38_3 C34_3 1_555 1_555
H23_3 C38_3 1_555 1_555
O15_2 C40_3 1_555 1_555
C40_3 O9_3 1_555 1_555
O9_3 Zn11_2 1_555 1_555
C41_3 H25_3 1_555 1_555
C42_3 C40_3 1_555 1_555
C43_3 C41_3 1_555 1_555
C44_3 C41_3 1_555 1_555
H26_3 C44_3 1_555 1_555
C45_3 C43_3 1_555 1_555
C46_3 C45_3 1_555 1_555
H27_3 C46_3 1_555 1_555
C47_3 N2_3 1_555 1_555
C48_3 C42_3 1_555 1_555
H28_3 C48_3 1_555 1_555
C49_3 C45_3 1_555 1_555
H29_3 C49_3 1_555 1_555
C50_3 C46_3 1_555 1_555
H30_3 C50_3 1_555 1_555
C51_3 C47_3 1_555 1_555
H31_3 C51_3 1_555 1_555
C52_3 C43_3 1_555 1_555
H32_3 C52_3 1_555 1_555
O16_2 C53_3 1_555 1_555
O11_2 C53_3 1_555 1_555
C53_3 C55_3 1_555 1_555
C54_3 C60_3 1_555 1_555
C55_3 C63_3 1_555 1_555
C56_3 N1_3 1_555 1_555
C57_3 H33_3 1_555 1_555
C58_3 C56_3 1_555 1_555
H34_3 C58_3 1_555 1_555
C59_3 C56_3 1_555 1_555
H35_3 C59_3 1_555 1_555
C60_3 C58_3 1_555 1_555
H36_3 C60_3 1_555 1_555
C61_3 C54_3 1_555 1_555
H37_3 C61_3 1_555 1_555
C62_3 H38_5 1_555 1_555
C63_3 C57_3 1_555 1_555
H39_3 C63_3 1_555 1_555
C64_3 C54_3 1_555 1_555
C65_3 C55_3 1_555 1_555
H40_3 C65_3 1_555 1_555
O12_2 C66_3 1_555 1_555
O22 C66_3 1_555 1_555
C66_3 C68_3 1_555 1_555
C67_3 C73_3 1_555 1_555
C68_3 C76_3 1_555 1_555
C69_3 N1_3 1_555 1_555
C70_3 H41_3 1_555 1_555
C71_3 C69_3 1_555 1_555
H42_3 C71_3 1_555 1_555
C72_3 C69_3 1_555 1_555
H43_3 C72_3 1_555 1_555
C73_3 C71_3 1_555 1_555
H44_3 C73_3 1_555 1_555
C74_3 C67_3 1_555 1_555
H45_3 C74_3 1_555 1_555
C75_3 H46_4 1_555 1_555
C76_3 C70_3 1_555 1_555
H47_3 C76_3 1_555 1_555
C77_3 C67_3 1_555 1_555
C78_3 C68_3 1_555 1_555
H48_3 C78_3 1_555 1_555
Zn11_2 O17_2 1_555 1_555
O21_2 Zn2_2 1_555 1_555
Zn7_2 O11_2 1_555 1_555
Zn11 O12_2 1_555 1_555
C6_3 C13_3 1_555 1_555
C6_3 C14_3 1_555 1_555
C9_3 C11_3 1_555 1_555
C12_3 C14_3 1_555 1_555
C12_3 C16_3 1_555 1_555
C15_3 C18_3 1_555 1_555
C22_3 C26_3 1_555 1_555
C23_3 C25_3 1_555 1_555
C34_3 C37_3 1_555 1_555
C36_3 C38_3 1_555 1_555
C42_3 C44_3 1_555 1_555
C47_3 C50_3 1_555 1_555
C48_3 C52_3 1_555 1_555
C49_3 C51_3 1_555 1_555
C57_3 C64_3 1_555 1_555
C59_3 C61_3 1_555 1_555
C62_3 C64_3 1_555 1_555
C62_3 C65_3 1_555 1_555
C70_3 C77_3 1_555 1_555
C72_3 C74_3 1_555 1_555
C75_3 C77_3 1_555 1_555
C75_3 C78_3 1_555 1_555
O1_4 C1_4 1_555 1_555
O2_4 Zn7_2 1_555 1_555
O20 C2_4 1_555 1_555
C1_4 O5_4 1_555 1_555
O5_4 Zn7_2 1_555 1_555
Zn6 O1_4 1_555 1_555
Zn7_2 O19 1_555 1_555
C2_4 O2_4 1_555 1_555
C4_4 C2_4 1_555 1_555
C6_4 H1_4 1_555 1_555
C8_4 H3_4 1_555 1_555
C12_4 H7_5 1_555 1_555
C13_4 C4_4 1_555 1_555
H8_4 C13_4 1_555 1_555
C15_4 C1_4 1_555 1_555
C16_4 C4_4 1_555 1_555
H9_4 C16_4 1_555 1_555
C17_4 C8_4 1_555 1_555
C18_4 C8_4 1_555 1_555
H10_4 C18_4 1_555 1_555
C22_4 C15_4 1_555 1_555
H12_4 C22_4 1_555 1_555
C26_4 C17_4 1_555 1_555
H16_4 C26_4 1_555 1_555
C6_4 C13_4 1_555 1_555
C6_4 C14_4 1_555 1_555
C12_4 C14_4 1_555 1_555
C12_4 C16_4 1_555 1_555
C15_4 C18_4 1_555 1_555
C22_4 C26_4 1_555 1_555
N1_4 C5_4 1_555 1_555
C3_4 C10_4 1_555 1_555
C5_4 C7_4 1_555 1_555
C7_4 H2_4 1_555 1_555
C9_4 C5_4 1_555 1_555
H4_4 C9_4 1_555 1_555
C10_4 C7_4 1_555 1_555
H5_4 C10_4 1_555 1_555
C11_4 C3_4 1_555 1_555
H6_4 C11_4 1_555 1_555
O16 C53_4 1_555 1_555
O21_2 C53_4 1_555 1_555
C53_4 C55_4 1_555 1_555
C54_4 C60_4 1_555 1_555
C55_4 C63_4 1_555 1_555
C56_4 N1_4 1_555 1_555
C57_4 H33_4 1_555 1_555
C58_4 C56_4 1_555 1_555
H34_4 C58_4 1_555 1_555
C59_4 C56_4 1_555 1_555
H35_4 C59_4 1_555 1_555
C60_4 C58_4 1_555 1_555
H36_4 C60_4 1_555 1_555
C61_4 C54_4 1_555 1_555
H37_4 C61_4 1_555 1_555
C62_4 H38_6 1_555 1_555
C63_4 C57_4 1_555 1_555
H39_4 C63_4 1_555 1_555
C64_4 C54_4 1_555 1_555
C65_4 C55_4 1_555 1_555
H40_4 C65_4 1_555 1_555
C67_4 C73_4 1_555 1_555
C69_4 N1_4 1_555 1_555
C71_4 C69_4 1_555 1_555
H42_4 C71_4 1_555 1_555
C72_4 C69_4 1_555 1_555
H43_4 C72_4 1_555 1_555
C73_4 C71_4 1_555 1_555
H44_4 C73_4 1_555 1_555
C74_4 C67_4 1_555 1_555
H45_4 C74_4 1_555 1_555
C9_4 C11_4 1_555 1_555
C57_4 C64_4 1_555 1_555
C59_4 C61_4 1_555 1_555
C62_4 C64_4 1_555 1_555
C62_4 C65_4 1_555 1_555
C72_4 C74_4 1_555 1_555
N2_4 C21_4 1_555 1_555
C20_4 C19_4 1_555 1_555
H11_4 C20_4 1_555 1_555
C21_4 C24_4 1_555 1_555
C23_4 C19_4 1_555 1_555
C24_4 C20_4 1_555 1_555
H14_4 C24_4 1_555 1_555
C25_4 C21_4 1_555 1_555
H15_4 C25_4 1_555 1_555
O14_2 C27_4 1_555 1_555
C27_4 O7_4 1_555 1_555
O7_4 Zn10 1_555 1_555
C28_4 H17_4 1_555 1_555
C29_4 C27_4 1_555 1_555
C30_4 C28_4 1_555 1_555
C31_4 C28_4 1_555 1_555
H18_4 C31_4 1_555 1_555
C32_4 C30_4 1_555 1_555
C33_4 C32_4 1_555 1_555
H19_4 C33_4 1_555 1_555
C34_4 N2_4 1_555 1_555
C35_4 C29_4 1_555 1_555
H20_4 C35_4 1_555 1_555
C36_4 C32_4 1_555 1_555
H21_4 C36_4 1_555 1_555
C37_4 C33_4 1_555 1_555
H22_4 C37_4 1_555 1_555
C38_4 C34_4 1_555 1_555
H23_4 C38_4 1_555 1_555
C39_4 C30_4 1_555 1_555
H24_4 C39_4 1_555 1_555
O15 C40_4 1_555 1_555
C40_4 O9_4 1_555 1_555
O9_4 Zn11 1_555 1_555
C41_4 H25_4 1_555 1_555
C42_4 C40_4 1_555 1_555
C43_4 C41_4 1_555 1_555
C44_4 C41_4 1_555 1_555
H26_4 C44_4 1_555 1_555
C45_4 C43_4 1_555 1_555
C46_4 C45_4 1_555 1_555
H27_4 C46_4 1_555 1_555
C47_4 N2_4 1_555 1_555
C48_4 C42_4 1_555 1_555
H28_4 C48_4 1_555 1_555
C49_4 C45_4 1_555 1_555
H29_4 C49_4 1_555 1_555
C50_4 C46_4 1_555 1_555
H30_4 C50_4 1_555 1_555
C51_4 C47_4 1_555 1_555
H31_4 C51_4 1_555 1_555
C52_4 C43_4 1_555 1_555
H32_4 C52_4 1_555 1_555
O22_2 Zn10 1_555 1_555
C23_4 C25_4 1_555 1_555
C29_4 C31_4 1_555 1_555
C34_4 C37_4 1_555 1_555
C35_4 C39_4 1_555 1_555
C36_4 C38_4 1_555 1_555
C42_4 C44_4 1_555 1_555
C47_4 C50_4 1_555 1_555
C48_4 C52_4 1_555 1_555
C49_4 C51_4 1_555 1_555
O17_2 C66_4 1_555 1_555
O22_2 C66_4 1_555 1_555
C66_4 C68_4 1_555 1_555
C68_4 C76_4 1_555 1_555
C70_4 H41_4 1_555 1_555
C75_4 H46_6 1_555 1_555
C76_4 C70_4 1_555 1_555
H47_4 C76_4 1_555 1_555
C78_4 C68_4 1_555 1_555
H48_4 C78_4 1_555 1_555
C70_4 C77_4 1_555 1_555
C75_4 C77_4 1_555 1_555
C75_4 C78_4 1_555 1_555
O10_3 C53_5 1_555 1_555
O11_3 C53_5 1_555 1_555
C53_5 C55_5 1_555 1_555
C55_5 C63_5 1_555 1_555
C57_5 H33_5 1_555 1_555
C62_5 H38_7 1_555 1_555
C63_5 C57_5 1_555 1_555
H39_5 C63_5 1_555 1_555
C65_5 C55_5 1_555 1_555
H40_5 C65_5 1_555 1_555
Zn7_3 O11_3 1_555 1_555
Zn10_2 O10_3 1_555 1_555
C57_5 C64_5 1_555 1_555
C62_5 C64_5 1_555 1_555
C62_5 C65_5 1_555 1_555
O1_5 C1_5 1_555 1_555
O2_5 Zn2_3 1_555 1_555
O3_3 Zn1_3 1_555 1_555
O4_3 C2_5 1_555 1_555
C1_5 O5_5 1_555 1_555
O5_5 Zn2_3 1_555 1_555
Zn1_3 O1_5 1_555 1_555
Zn2_3 O3_3 1_555 1_555
N1_5 C5_5 1_555 1_555
C2_5 O2_5 1_555 1_555
C3_5 C10_5 1_555 1_555
C4_5 C2_5 1_555 1_555
C5_5 C7_5 1_555 1_555
C6_5 H1_5 1_555 1_555
C7_5 H2_5 1_555 1_555
C8_5 H3_5 1_555 1_555
C9_5 C5_5 1_555 1_555
H4_5 C9_5 1_555 1_555
C10_5 C7_5 1_555 1_555
H5_5 C10_5 1_555 1_555
C11_5 C3_5 1_555 1_555
H6_5 C11_5 1_555 1_555
C12_5 H7_7 1_555 1_555
C13_5 C4_5 1_555 1_555
H8_5 C13_5 1_555 1_555
C14_5 C3_5 1_555 1_555
C15_5 C1_5 1_555 1_555
C16_5 C4_5 1_555 1_555
H9_5 C16_5 1_555 1_555
C17_5 C8_5 1_555 1_555
C18_5 C8_5 1_555 1_555
H10_5 C18_5 1_555 1_555
C22_5 C15_5 1_555 1_555
H12_5 C22_5 1_555 1_555
C26_5 C17_5 1_555 1_555
H16_5 C26_5 1_555 1_555
C54_5 C60_5 1_555 1_555
C56_5 N1_5 1_555 1_555
C58_5 C56_5 1_555 1_555
H34_5 C58_5 1_555 1_555
C59_5 C56_5 1_555 1_555
H35_5 C59_5 1_555 1_555
C60_5 C58_5 1_555 1_555
H36_5 C60_5 1_555 1_555
C61_5 C54_5 1_555 1_555
H37_5 C61_5 1_555 1_555
C67_5 C73_5 1_555 1_555
C69_5 N1_5 1_555 1_555
C71_5 C69_5 1_555 1_555
H42_5 C71_5 1_555 1_555
C72_5 C69_5 1_555 1_555
H43_5 C72_5 1_555 1_555
C73_5 C71_5 1_555 1_555
H44_5 C73_5 1_555 1_555
C74_5 C67_5 1_555 1_555
H45_5 C74_5 1_555 1_555
O14_3 Zn1_3 1_555 1_555
O15_3 Zn1_3 1_555 1_555
O21_3 Zn2_3 1_555 1_555
Zn9_2 O3_3 1_555 1_555
Zn11_3 O3_3 1_555 1_555
O4_3 Zn11_3 1_555 1_555
C6_5 C13_5 1_555 1_555
C6_5 C14_5 1_555 1_555
C9_5 C11_5 1_555 1_555
C12_5 C14_5 1_555 1_555
C12_5 C16_5 1_555 1_555
C15_5 C18_5 1_555 1_555
C22_5 C26_5 1_555 1_555
C59_5 C61_5 1_555 1_555
C72_5 C74_5 1_555 1_555
O8_3 C40_5 1_555 1_555
C40_5 O9_5 1_555 1_555
O9_5 Zn4_2 1_555 1_555
C41_5 H25_5 1_555 1_555
C42_5 C40_5 1_555 1_555
C43_5 C41_5 1_555 1_555
C44_5 C41_5 1_555 1_555
H26_5 C44_5 1_555 1_555
C48_5 C42_5 1_555 1_555
H28_5 C48_5 1_555 1_555
C52_5 C43_5 1_555 1_555
H32_5 C52_5 1_555 1_555
Zn4_2 O17_3 1_555 1_555
O19_2 Zn4_2 1_555 1_555
O20_3 Zn4_2 1_555 1_555
Zn6_2 O8_3 1_555 1_555
C42_5 C44_5 1_555 1_555
C48_5 C52_5 1_555 1_555
O19_2 Zn6_2 1_555 1_555
O6_3 C27_5 1_555 1_555
C27_5 O7_5 1_555 1_555
O7_5 Zn3 1_555 1_555
C28_5 H17_5 1_555 1_555
C29_5 C27_5 1_555 1_555
C30_5 C28_5 1_555 1_555
C31_5 C28_5 1_555 1_555
H18_5 C31_5 1_555 1_555
C35_5 C29_5 1_555 1_555
H20_5 C35_5 1_555 1_555
C39_5 C30_5 1_555 1_555
H24_5 C39_5 1_555 1_555
Zn3 O16_3 1_555 1_555
O18_2 Zn3 1_555 1_555
O22_3 Zn3 1_555 1_555
Zn5_2 O6_3 1_555 1_555
C29_5 C31_5 1_555 1_555
C35_5 C39_5 1_555 1_555
O18_2 Zn5_2 1_555 1_555
N2_5 C21_5 1_555 1_555
C20_5 C19_5 1_555 1_555
H11_5 C20_5 1_555 1_555
C21_5 C24_5 1_555 1_555
C23_5 C19_5 1_555 1_555
C24_5 C20_5 1_555 1_555
H14_5 C24_5 1_555 1_555
C25_5 C21_5 1_555 1_555
H15_5 C25_5 1_555 1_555
C33_5 C32_5 1_555 1_555
H19_5 C33_5 1_555 1_555
C34_5 N2_5 1_555 1_555
C36_5 C32_5 1_555 1_555
C37_5 C33_5 1_555 1_555
H22_5 C37_5 1_555 1_555
C38_5 C34_5 1_555 1_555
H23_5 C38_5 1_555 1_555
C46_5 C45_5 1_555 1_555
H27_5 C46_5 1_555 1_555
C47_5 N2_5 1_555 1_555
C49_5 C45_5 1_555 1_555
C50_5 C46_5 1_555 1_555
H30_5 C50_5 1_555 1_555
C51_5 C47_5 1_555 1_555
H31_5 C51_5 1_555 1_555
O12_3 C66_5 1_555 1_555
O22_3 C66_5 1_555 1_555
C66_5 C68_5 1_555 1_555
C68_5 C76_5 1_555 1_555
C70_5 H41_5 1_555 1_555
C75_5 H46_8 1_555 1_555
C76_5 C70_5 1_555 1_555
H47_5 C76_5 1_555 1_555
C78_5 C68_5 1_555 1_555
H48_5 C78_5 1_555 1_555
Zn12_2 O12_3 1_555 1_555
C23_5 C25_5 1_555 1_555
C34_5 C37_5 1_555 1_555
C36_5 C38_5 1_555 1_555
C47_5 C50_5 1_555 1_555
C49_5 C51_5 1_555 1_555
C70_5 C77_5 1_555 1_555
C75_5 C77_5 1_555 1_555
C75_5 C78_5 1_555 1_555
O1_6 C1_6 1_555 1_555
O2_6 Zn7_3 1_555 1_555
O3_4 Zn1_4 1_555 1_555
O4_4 C2_6 1_555 1_555
C1_6 O5_6 1_555 1_555
O5_6 Zn7_3 1_555 1_555
Zn1_4 O1_6 1_555 1_555
Zn7_3 O3_4 1_555 1_555
C2_6 O2_6 1_555 1_555
C4_6 C2_6 1_555 1_555
C6_6 H1_6 1_555 1_555
C8_6 H3_6 1_555 1_555
C12_6 H7_8 1_555 1_555
C13_6 C4_6 1_555 1_555
H8_6 C13_6 1_555 1_555
N2_6 C21_6 1_555 1_555
C15_6 C1_6 1_555 1_555
C16_6 C4_6 1_555 1_555
H9_6 C16_6 1_555 1_555
C17_6 C8_6 1_555 1_555
C18_6 C8_6 1_555 1_555
H10_6 C18_6 1_555 1_555
C19_6 C17_6 1_555 1_555
C20_6 C19_6 1_555 1_555
H11_6 C20_6 1_555 1_555
C21_6 C24_6 1_555 1_555
C22_6 C15_6 1_555 1_555
H12_6 C22_6 1_555 1_555
C23_6 C19_6 1_555 1_555
H13_6 C23_6 1_555 1_555
C24_6 C20_6 1_555 1_555
H14_6 C24_6 1_555 1_555
C25_6 C21_6 1_555 1_555
H15_6 C25_6 1_555 1_555
C26_6 C17_6 1_555 1_555
H16_6 C26_6 1_555 1_555
O6_4 C27_6 1_555 1_555
C27_6 O7_6 1_555 1_555
O7_6 Zn3_2 1_555 1_555
C28_6 H17_6 1_555 1_555
C29_6 C27_6 1_555 1_555
C30_6 C28_6 1_555 1_555
C31_6 C28_6 1_555 1_555
H18_6 C31_6 1_555 1_555
C32_6 C30_6 1_555 1_555
C33_6 C32_6 1_555 1_555
H19_6 C33_6 1_555 1_555
C34_6 N2_6 1_555 1_555
C35_6 C29_6 1_555 1_555
H20_6 C35_6 1_555 1_555
C36_6 C32_6 1_555 1_555
H21_6 C36_6 1_555 1_555
C37_6 C33_6 1_555 1_555
H22_6 C37_6 1_555 1_555
C38_6 C34_6 1_555 1_555
H23_6 C38_6 1_555 1_555
C39_6 C30_6 1_555 1_555
H24_6 C39_6 1_555 1_555
C46_6 C45_6 1_555 1_555
H27_6 C46_6 1_555 1_555
C47_6 N2_6 1_555 1_555
C49_6 C45_6 1_555 1_555
C50_6 C46_6 1_555 1_555
H30_6 C50_6 1_555 1_555
C51_6 C47_6 1_555 1_555
H31_6 C51_6 1_555 1_555
Zn3_2 O16_4 1_555 1_555
O14_4 Zn1_4 1_555 1_555
O15_4 Zn1_4 1_555 1_555
O19_2 Zn3_2 1_555 1_555
O22_4 Zn3_2 1_555 1_555
Zn6_2 O6_4 1_555 1_555
Zn10_2 O3_4 1_555 1_555
Zn11_4 O3_4 1_555 1_555
O4_4 Zn11_4 1_555 1_555
C6_6 C13_6 1_555 1_555
C6_6 C14_6 1_555 1_555
C12_6 C14_6 1_555 1_555
C12_6 C16_6 1_555 1_555
C15_6 C18_6 1_555 1_555
C22_6 C26_6 1_555 1_555
C23_6 C25_6 1_555 1_555
C29_6 C31_6 1_555 1_555
C34_6 C37_6 1_555 1_555
C35_6 C39_6 1_555 1_555
C36_6 C38_6 1_555 1_555
C47_6 C50_6 1_555 1_555
C49_6 C51_6 1_555 1_555
N1_6 C5_6 1_555 1_555
C3_6 C10_6 1_555 1_555
C5_6 C7_6 1_555 1_555
C7_6 H2_6 1_555 1_555
C9_6 C5_6 1_555 1_555
H4_6 C9_6 1_555 1_555
C10_6 C7_6 1_555 1_555
H5_6 C10_6 1_555 1_555
C11_6 C3_6 1_555 1_555
H6_6 C11_6 1_555 1_555
C54_6 C60_6 1_555 1_555
C56_6 N1_6 1_555 1_555
C58_6 C56_6 1_555 1_555
H34_6 C58_6 1_555 1_555
C59_6 C56_6 1_555 1_555
H35_6 C59_6 1_555 1_555
C60_6 C58_6 1_555 1_555
H36_6 C60_6 1_555 1_555
C61_6 C54_6 1_555 1_555
H37_6 C61_6 1_555 1_555
O17_3 C66_6 1_555 1_555
O22_4 C66_6 1_555 1_555
C66_6 C68_6 1_555 1_555
C67_6 C73_6 1_555 1_555
C68_6 C76_6 1_555 1_555
C69_6 N1_6 1_555 1_555
C70_6 H41_6 1_555 1_555
C71_6 C69_6 1_555 1_555
H42_6 C71_6 1_555 1_555
C72_6 C69_6 1_555 1_555
H43_6 C72_6 1_555 1_555
C73_6 C71_6 1_555 1_555
H44_6 C73_6 1_555 1_555
C74_6 C67_6 1_555 1_555
H45_6 C74_6 1_555 1_555
C75_6 H46_9 1_555 1_555
C76_6 C70_6 1_555 1_555
H47_6 C76_6 1_555 1_555
C77_6 C67_6 1_555 1_555
C78_6 C68_6 1_555 1_555
H48_6 C78_6 1_555 1_555
C9_6 C11_6 1_555 1_555
C59_6 C61_6 1_555 1_555
C70_6 C77_6 1_555 1_555
C72_6 C74_6 1_555 1_555
C75_6 C77_6 1_555 1_555
C75_6 C78_6 1_555 1_555
O8_4 C40_6 1_555 1_555
C40_6 O9_6 1_555 1_555
O9_6 Zn12_2 1_555 1_555
C41_6 H25_6 1_555 1_555
C42_6 C40_6 1_555 1_555
C43_6 C41_6 1_555 1_555
C44_6 C41_6 1_555 1_555
H26_6 C44_6 1_555 1_555
C48_6 C42_6 1_555 1_555
H28_6 C48_6 1_555 1_555
C52_6 C43_6 1_555 1_555
H32_6 C52_6 1_555 1_555
O18_2 Zn12_2 1_555 1_555
O20_4 Zn12_2 1_555 1_555
Zn5_2 O8_4 1_555 1_555
C42_6 C44_6 1_555 1_555
C48_6 C52_6 1_555 1_555
O10_4 C53_6 1_555 1_555
O21_3 C53_6 1_555 1_555
C53_6 C55_6 1_555 1_555
C55_6 C63_6 1_555 1_555
C57_6 H33_6 1_555 1_555
C62_6 H38_10 1_555 1_555
C63_6 C57_6 1_555 1_555
H39_6 C63_6 1_555 1_555
C65_6 C55_6 1_555 1_555
H40_6 C65_6 1_555 1_555
Zn9_2 O10_4 1_555 1_555
C57_6 C64_6 1_555 1_555
C62_6 C64_6 1_555 1_555
C62_6 C65_6 1_555 1_555
O1_7 C1_7 1_555 1_555
O2_7 Zn2_4 1_555 1_555
O20_4 C2_7 1_555 1_555
C1_7 O5_7 1_555 1_555
O5_7 Zn2_4 1_555 1_555
Zn5_2 O1_7 1_555 1_555
Zn2_4 O18_2 1_555 1_555
N1_7 C5_7 1_555 1_555
C2_7 O2_7 1_555 1_555
C3_7 C10_7 1_555 1_555
C4_7 C2_7 1_555 1_555
C5_7 C7_7 1_555 1_555
C6_7 H1_7 1_555 1_555
C7_7 H2_7 1_555 1_555
C8_7 H3_7 1_555 1_555
C9_7 C5_7 1_555 1_555
H4_7 C9_7 1_555 1_555
C10_7 C7_7 1_555 1_555
H5_7 C10_7 1_555 1_555
C11_7 C3_7 1_555 1_555
H6_7 C11_7 1_555 1_555
C12_7 H7_10 1_555 1_555
C13_7 C4_7 1_555 1_555
H8_7 C13_7 1_555 1_555
N2_7 C21_7 1_555 1_555
C14_7 C3_7 1_555 1_555
C15_7 C1_7 1_555 1_555
C16_7 C4_7 1_555 1_555
H9_7 C16_7 1_555 1_555
C17_7 C8_7 1_555 1_555
C18_7 C8_7 1_555 1_555
H10_7 C18_7 1_555 1_555
C19_7 C17_7 1_555 1_555
C20_7 C19_7 1_555 1_555
H11_7 C20_7 1_555 1_555
C21_7 C24_7 1_555 1_555
C22_7 C15_7 1_555 1_555
H12_7 C22_7 1_555 1_555
C23_7 C19_7 1_555 1_555
H13_7 C23_7 1_555 1_555
C24_7 C20_7 1_555 1_555
H14_7 C24_7 1_555 1_555
C25_7 C21_7 1_555 1_555
H15_7 C25_7 1_555 1_555
C26_7 C17_7 1_555 1_555
H16_7 C26_7 1_555 1_555
C33_7 C32_7 1_555 1_555
H19_7 C33_7 1_555 1_555
C34_7 N2_7 1_555 1_555
C36_7 C32_7 1_555 1_555
C37_7 C33_7 1_555 1_555
H22_7 C37_7 1_555 1_555
C38_7 C34_7 1_555 1_555
H23_7 C38_7 1_555 1_555
O15_4 C40_7 1_555 1_555
C40_7 O9_7 1_555 1_555
O9_7 Zn11_4 1_555 1_555
C41_7 H25_7 1_555 1_555
C42_7 C40_7 1_555 1_555
C43_7 C41_7 1_555 1_555
C44_7 C41_7 1_555 1_555
H26_7 C44_7 1_555 1_555
C45_7 C43_7 1_555 1_555
C46_7 C45_7 1_555 1_555
H27_7 C46_7 1_555 1_555
C47_7 N2_7 1_555 1_555
C48_7 C42_7 1_555 1_555
H28_7 C48_7 1_555 1_555
C49_7 C45_7 1_555 1_555
H29_7 C49_7 1_555 1_555
C50_7 C46_7 1_555 1_555
H30_7 C50_7 1_555 1_555
C51_7 C47_7 1_555 1_555
H31_7 C51_7 1_555 1_555
C52_7 C43_7 1_555 1_555
H32_7 C52_7 1_555 1_555
O16_4 C53_7 1_555 1_555
O11_4 C53_7 1_555 1_555
C53_7 C55_7 1_555 1_555
C54_7 C60_7 1_555 1_555
C55_7 C63_7 1_555 1_555
C56_7 N1_7 1_555 1_555
C57_7 H33_7 1_555 1_555
C58_7 C56_7 1_555 1_555
H34_7 C58_7 1_555 1_555
C59_7 C56_7 1_555 1_555
H35_7 C59_7 1_555 1_555
C60_7 C58_7 1_555 1_555
H36_7 C60_7 1_555 1_555
C61_7 C54_7 1_555 1_555
H37_7 C61_7 1_555 1_555
C62_7 H38_11 1_555 1_555
C63_7 C57_7 1_555 1_555
H39_7 C63_7 1_555 1_555
C64_7 C54_7 1_555 1_555
C65_7 C55_7 1_555 1_555
H40_7 C65_7 1_555 1_555
O12_4 C66_7 1_555 1_555
O13_3 C66_7 1_555 1_555
C66_7 C68_7 1_555 1_555
C67_7 C73_7 1_555 1_555
C68_7 C76_7 1_555 1_555
C69_7 N1_7 1_555 1_555
C70_7 H41_7 1_555 1_555
C71_7 C69_7 1_555 1_555
H42_7 C71_7 1_555 1_555
C72_7 C69_7 1_555 1_555
H43_7 C72_7 1_555 1_555
C73_7 C71_7 1_555 1_555
H44_7 C73_7 1_555 1_555
C74_7 C67_7 1_555 1_555
H45_7 C74_7 1_555 1_555
C75_7 H46_10 1_555 1_555
C76_7 C70_7 1_555 1_555
H47_7 C76_7 1_555 1_555
C77_7 C67_7 1_555 1_555
C78_7 C68_7 1_555 1_555
H48_7 C78_7 1_555 1_555
Zn11_4 O17_4 1_555 1_555
O21_4 Zn2_4 1_555 1_555
Zn7_4 O11_4 1_555 1_555
Zn9_2 O13_3 1_555 1_555
Zn11_3 O12_4 1_555 1_555
C6_7 C13_7 1_555 1_555
C6_7 C14_7 1_555 1_555
C9_7 C11_7 1_555 1_555
C12_7 C14_7 1_555 1_555
C12_7 C16_7 1_555 1_555
C15_7 C18_7 1_555 1_555
C22_7 C26_7 1_555 1_555
C23_7 C25_7 1_555 1_555
C34_7 C37_7 1_555 1_555
C36_7 C38_7 1_555 1_555
C42_7 C44_7 1_555 1_555
C47_7 C50_7 1_555 1_555
C48_7 C52_7 1_555 1_555
C49_7 C51_7 1_555 1_555
C57_7 C64_7 1_555 1_555
C59_7 C61_7 1_555 1_555
C62_7 C64_7 1_555 1_555
C62_7 C65_7 1_555 1_555
C70_7 C77_7 1_555 1_555
C72_7 C74_7 1_555 1_555
C75_7 C77_7 1_555 1_555
C75_7 C78_7 1_555 1_555
O14_3 C27_7 1_555 1_555
C27_7 O7_7 1_555 1_555
O7_7 Zn9_2 1_555 1_555
C28_7 H17_7 1_555 1_555
C29_7 C27_7 1_555 1_555
C30_7 C28_7 1_555 1_555
C31_7 C28_7 1_555 1_555
H18_7 C31_7 1_555 1_555
C35_7 C29_7 1_555 1_555
H20_7 C35_7 1_555 1_555
C39_7 C30_7 1_555 1_555
H24_7 C39_7 1_555 1_555
C29_7 C31_7 1_555 1_555
C35_7 C39_7 1_555 1_555
O17_4 C66_8 1_555 1_555
O13_4 C66_8 1_555 1_555
C66_8 C68_8 1_555 1_555
C68_8 C76_8 1_555 1_555
C70_8 H41_8 1_555 1_555
C75_8 H46_11 1_555 1_555
C76_8 C70_8 1_555 1_555
H47_8 C76_8 1_555 1_555
C78_8 C68_8 1_555 1_555
H48_8 C78_8 1_555 1_555
Zn10_2 O13_4 1_555 1_555
C70_8 C77_8 1_555 1_555
C75_8 C77_8 1_555 1_555
C75_8 C78_8 1_555 1_555
N2_8 C21_8 1_555 1_555
C20_8 C19_8 1_555 1_555
H11_8 C20_8 1_555 1_555
C21_8 C24_8 1_555 1_555
C23_8 C19_8 1_555 1_555
C24_8 C20_8 1_555 1_555
H14_8 C24_8 1_555 1_555
C25_8 C21_8 1_555 1_555
H15_8 C25_8 1_555 1_555
O14_4 C27_8 1_555 1_555
C27_8 O7_8 1_555 1_555
O7_8 Zn10_2 1_555 1_555
C28_8 H17_8 1_555 1_555
C29_8 C27_8 1_555 1_555
C30_8 C28_8 1_555 1_555
C31_8 C28_8 1_555 1_555
H18_8 C31_8 1_555 1_555
C32_8 C30_8 1_555 1_555
C33_8 C32_8 1_555 1_555
H19_8 C33_8 1_555 1_555
C34_8 N2_8 1_555 1_555
C35_8 C29_8 1_555 1_555
H20_8 C35_8 1_555 1_555
C36_8 C32_8 1_555 1_555
H21_8 C36_8 1_555 1_555
C37_8 C33_8 1_555 1_555
H22_8 C37_8 1_555 1_555
C38_8 C34_8 1_555 1_555
H23_8 C38_8 1_555 1_555
C39_8 C30_8 1_555 1_555
H24_8 C39_8 1_555 1_555
O15_3 C40_8 1_555 1_555
C40_8 O9_8 1_555 1_555
O9_8 Zn11_3 1_555 1_555
C41_8 H25_8 1_555 1_555
C42_8 C40_8 1_555 1_555
C43_8 C41_8 1_555 1_555
C44_8 C41_8 1_555 1_555
H26_8 C44_8 1_555 1_555
C45_8 C43_8 1_555 1_555
C46_8 C45_8 1_555 1_555
H27_8 C46_8 1_555 1_555
C47_8 N2_8 1_555 1_555
C48_8 C42_8 1_555 1_555
H28_8 C48_8 1_555 1_555
C49_8 C45_8 1_555 1_555
H29_8 C49_8 1_555 1_555
C50_8 C46_8 1_555 1_555
H30_8 C50_8 1_555 1_555
C51_8 C47_8 1_555 1_555
H31_8 C51_8 1_555 1_555
C52_8 C43_8 1_555 1_555
H32_8 C52_8 1_555 1_555
C23_8 C25_8 1_555 1_555
C29_8 C31_8 1_555 1_555
C34_8 C37_8 1_555 1_555
C35_8 C39_8 1_555 1_555
C36_8 C38_8 1_555 1_555
C42_8 C44_8 1_555 1_555
C47_8 C50_8 1_555 1_555
C48_8 C52_8 1_555 1_555
C49_8 C51_8 1_555 1_555
N1_8 C5_8 1_555 1_555
C3_8 C10_8 1_555 1_555
C5_8 C7_8 1_555 1_555
C7_8 H2_8 1_555 1_555
C9_8 C5_8 1_555 1_555
H4_8 C9_8 1_555 1_555
C10_8 C7_8 1_555 1_555
H5_8 C10_8 1_555 1_555
C11_8 C3_8 1_555 1_555
H6_8 C11_8 1_555 1_555
O16_3 C53_8 1_555 1_555
O21_4 C53_8 1_555 1_555
C53_8 C55_8 1_555 1_555
C54_8 C60_8 1_555 1_555
C55_8 C63_8 1_555 1_555
C56_8 N1_8 1_555 1_555
C57_8 H33_8 1_555 1_555
C58_8 C56_8 1_555 1_555
H34_8 C58_8 1_555 1_555
C59_8 C56_8 1_555 1_555
H35_8 C59_8 1_555 1_555
C60_8 C58_8 1_555 1_555
H36_8 C60_8 1_555 1_555
C61_8 C54_8 1_555 1_555
H37_8 C61_8 1_555 1_555
C62_8 H38_12 1_555 1_555
C63_8 C57_8 1_555 1_555
H39_8 C63_8 1_555 1_555
C64_8 C54_8 1_555 1_555
C65_8 C55_8 1_555 1_555
H40_8 C65_8 1_555 1_555
C67_8 C73_8 1_555 1_555
C69_8 N1_8 1_555 1_555
C71_8 C69_8 1_555 1_555
H42_8 C71_8 1_555 1_555
C72_8 C69_8 1_555 1_555
H43_8 C72_8 1_555 1_555
C73_8 C71_8 1_555 1_555
H44_8 C73_8 1_555 1_555
C74_8 C67_8 1_555 1_555
H45_8 C74_8 1_555 1_555
C9_8 C11_8 1_555 1_555
C57_8 C64_8 1_555 1_555
C59_8 C61_8 1_555 1_555
C62_8 C64_8 1_555 1_555
C62_8 C65_8 1_555 1_555
C72_8 C74_8 1_555 1_555
O1_8 C1_8 1_555 1_555
O2_8 Zn7_4 1_555 1_555
O20_3 C2_8 1_555 1_555
C1_8 O5_8 1_555 1_555
O5_8 Zn7_4 1_555 1_555
Zn6_2 O1_8 1_555 1_555
Zn7_4 O19_2 1_555 1_555
C2_8 O2_8 1_555 1_555
C4_8 C2_8 1_555 1_555
C6_8 H1_8 1_555 1_555
C8_8 H3_8 1_555 1_555
C12_8 H7_12 1_555 1_555
C13_8 C4_8 1_555 1_555
H8_8 C13_8 1_555 1_555
C15_8 C1_8 1_555 1_555
C16_8 C4_8 1_555 1_555
H9_8 C16_8 1_555 1_555
C17_8 C8_8 1_555 1_555
C18_8 C8_8 1_555 1_555
H10_8 C18_8 1_555 1_555
C22_8 C15_8 1_555 1_555
H12_8 C22_8 1_555 1_555
C26_8 C17_8 1_555 1_555
H16_8 C26_8 1_555 1_555
C6_8 C13_8 1_555 1_555
C6_8 C14_8 1_555 1_555
C12_8 C14_8 1_555 1_555
C12_8 C16_8 1_555 1_555
C15_8 C18_8 1_555 1_555
C22_8 C26_8 1_555 1_555

#END
