
###############################################################################
#
# This file contains modified crystal structure data generated from the
# MOF subset of the Cambridge Structural Database (CSD) v543 
# hosted by the Cambridge Crystallographic Data Centre (CCDC).
#
# This work is licensed under the Creative Commons
# Attribution-NonCommercial-ShareAlike 4.0 International License.
# To view a copy of this license, visit
# http://creativecommons.org/licenses/by-nc-sa/4.0/
# or send a letter to
# Creative Commons, PO Box 1866, Mountain View, CA 94042, USA.
#
# CIF created using the CSD Python API on 29 September 2022
# The structure has been converted into the P1 space group
# The structure has a 3D framework
# The original CSD entry UWAGAB02 is in the cubic crystal system
# The framework has been calculated to contain at least 10.0% void space
# The void calculation uses a probe of radius 1.32A, grid spacing 0.4
#
###############################################################################

data_UWAGAB02
_chemical_formula_moiety         '(C624 H384 N16 O104 Zn32)n'
_symmetry_cell_setting           triclinic
_symmetry_space_group_name_H-M   'P 1'
_symmetry_Int_Tables_number      1
_space_group_name_Hall           'P 1'
loop_
_symmetry_equiv_pos_site_id
_symmetry_equiv_pos_as_xyz
1 x,y,z
_cell_length_a                   32.4053(7)
_cell_length_b                   32.4053(7)
_cell_length_c                   32.4053(7)
_cell_angle_alpha                90
_cell_angle_beta                 90
_cell_angle_gamma                90
_cell_volume                     34028.9
loop_
_atom_site_label
_atom_site_type_symbol
_atom_site_fract_x
_atom_site_fract_y
_atom_site_fract_z
O6 O 0.16561(17) 0.29622(18) 0.25000(19)
O7 O 0.16571(16) 0.24587(17) 0.20304(16)
C27 C 0.1491(3) 0.2751(3) 0.2212(3)
C34 C 0.0500(3) 0.2844(3) 0.1622(3)
H21 H 0.0388 0.2732 0.1382
C35 C 0.1073(3) 0.2877(3) 0.2077(3)
C36 C 0.0277(3) 0.3131(3) 0.1837(3)
C37 C 0.0861(4) 0.3180(4) 0.2297(3)
H22 H 0.0984 0.3306 0.2524
C38 C 0.0886(3) 0.2716(3) 0.1746(3)
H23 H 0.102 0.2511 0.1596
C39 C 0.0466(4) 0.3295(4) 0.2177(4)
H24 H 0.0325 0.3491 0.2333
Zn6 Zn 0.21682(3) 0.21682(3) 0.21682(3)
Zn9 Zn 0.22158(3) 0.30030(3) 0.26941(3)
Zn1 Zn 0.78318(3) 0.71682(3) 0.28318(3)
O1 O 0.75000(19) 0.66561(17) 0.20378(18)
O2 O 0.79696(16) 0.66571(16) 0.25413(17)
O3 O 0.74862(15) 0.75138(15) 0.24862(15)
C1 C 0.6424(3) 0.7297(3) 0.2214(3)
C2 C 0.7788(3) 0.6491(3) 0.2249(3)
O4 O 0.67061(18) 0.71986(19) 0.19675(19)
O5 O 0.64827(17) 0.7494(2) 0.25424(19)
C3 C 0.8292(3) 0.4842(4) 0.1748(3)
C4 C 0.8529(4) 0.4050(4) 0.1488(4)
C5 C 0.8018(6) 0.4552(6) 0.1621(8)
H1 H 0.7741 0.4625 0.1603
C6 C 0.8128(6) 0.4148(6) 0.1516(8)
H2 H 0.7926 0.3951 0.1466
C7 C 0.8660(5) 0.4683(4) 0.1810(4)
H3 H 0.8863 0.4844 0.1934
C8 C 0.8747(5) 0.4312(4) 0.1706(4)
H4 H 0.9 0.4214 0.1798
Zn2 Zn 0.73059(3) 0.72158(3) 0.19970(3)
N1 N 0.3579(2) 0.6421(2) 0.1421(2)
C9 C 0.5997(3) 0.7175(3) 0.2109(3)
C10 C 0.4083(3) 0.6613(3) 0.1947(3)
H5 H 0.3883 0.6563 0.2147
C11 C 0.3983(3) 0.6563(2) 0.1532(3)
N2 N 0.8683(5) 0.3683(5) 0.1317(5)
C12 C 0.8378(3) 0.5500(3) 0.2156(3)
H6 H 0.8618 0.5388 0.2268
C13 C 0.5269(3) 0.7158(3) 0.2247(3)
H7 H 0.5047 0.7228 0.2415
C14 C 0.4779(3) 0.6810(3) 0.1782(3)
C15 C 0.4673(3) 0.6760(3) 0.1365(3)
H8 H 0.4873 0.6808 0.1166
C16 C 0.4467(3) 0.6732(3) 0.2065(3)
H9 H 0.4523 0.6764 0.2344
C17 C 0.5540(4) 0.6839(3) 0.1656(4)
H10 H 0.5499 0.6689 0.1415
C18 C 0.5205(3) 0.6935(3) 0.1894(3)
C19 C 0.5667(3) 0.7279(3) 0.2354(3)
H11 H 0.571 0.7432 0.2593
C20 C 0.7923(3) 0.6073(3) 0.2123(3)
C21 C 0.8163(3) 0.5277(3) 0.1869(3)
C22 C 0.4282(3) 0.6642(3) 0.1238(3)
H12 H 0.4222 0.6617 0.0959
C23 C 0.5923(3) 0.6952(4) 0.1755(3)
H13 H 0.6142 0.6879 0.1585
C24 C 0.7703(3) 0.5861(4) 0.1820(4)
H14 H 0.7476 0.5984 0.1694
C25 C 0.8254(3) 0.5886(3) 0.2284(3)
H15 H 0.8404 0.602 0.2489
C26 C 0.7823(4) 0.5466(4) 0.1705(4)
H16 H 0.7667 0.5325 0.1509
C28 C 0.9842(4) 0.3252(3) 0.1708(3)
C29 C 0.9050(4) 0.3512(4) 0.1471(4)
C30 C 0.9552(6) 0.3379(8) 0.1982(6)
H17 H 0.9625 0.3397 0.2259
C31 C 0.9148(6) 0.3484(8) 0.1872(6)
H18 H 0.8951 0.3534 0.2074
C32 C 0.9683(4) 0.3190(4) 0.1340(5)
H19 H 0.9844 0.3066 0.1137
C33 C 0.9312(4) 0.3294(4) 0.1253(5)
H20 H 0.9214 0.3202 0.1
C41 C 0.8252(3) 0.3292(3) 0.0158(4)
C42 C 0.8512(4) 0.3529(4) 0.0950(4)
C43 C 0.8379(8) 0.3018(6) 0.0448(6)
H25 H 0.8397 0.2741 0.0375
C44 C 0.8484(8) 0.3128(6) 0.0852(6)
H26 H 0.8534 0.2926 0.1049
C45 C 0.8190(4) 0.3660(5) 0.0317(4)
H27 H 0.8066 0.3863 0.0156
C46 C 0.8294(4) 0.3747(5) 0.0688(4)
H28 H 0.8202 0.4 0.0786
C55 C 0.3387(3) 0.6947(3) 0.0917(3)
H33 H 0.3437 0.7147 0.1117
C56 C 0.3437(2) 0.6532(3) 0.1017(3)
C58 C 0.3190(3) 0.6782(3) 0.0221(3)
C59 C 0.3240(3) 0.6365(3) 0.0327(3)
H35 H 0.3192 0.6166 0.0127
C60 C 0.3268(3) 0.7065(3) 0.0533(3)
H36 H 0.3236 0.7344 0.0477
C64 C 0.3358(3) 0.6238(3) 0.0718(3)
H39 H 0.3383 0.5959 0.0778
C66 C 0.2786(3) 0.3576(3) 0.2297(3)
O12 O 0.30325(19) 0.32939(18) 0.21986(19)
O13 O 0.24576(19) 0.35173(17) 0.2494(2)
C67 C 0.2891(3) 0.4003(3) 0.2175(3)
C68 C 0.3053(3) 0.5917(3) 0.1613(3)
H41 H 0.2853 0.6117 0.1563
C69 C 0.3468(3) 0.6017(3) 0.1563(2)
C70 C 0.2753(3) 0.4731(3) 0.2158(3)
H42 H 0.2585 0.4953 0.2228
C71 C 0.3218(3) 0.5221(3) 0.1810(3)
C72 C 0.3635(3) 0.5327(3) 0.1760(3)
H43 H 0.3834 0.5127 0.1808
C73 C 0.2935(3) 0.5533(3) 0.1732(3)
H44 H 0.2656 0.5477 0.1764
C74 C 0.3344(4) 0.4460(4) 0.1839(3)
H45 H 0.3585 0.4501 0.1689
C75 C 0.3106(3) 0.4795(3) 0.1935(3)
C76 C 0.2646(3) 0.4333(3) 0.2279(3)
H46 H 0.2407 0.429 0.2432
C77 C 0.3762(3) 0.5718(3) 0.1642(3)
H47 H 0.4041 0.5778 0.1617
C78 C 0.3245(3) 0.4077(3) 0.1952(4)
H48 H 0.3415 0.3858 0.1879
Zn3 Zn 0.77842(3) 0.80030(3) 0.23059(3)
Zn4 Zn 0.69970(3) 0.76941(3) 0.27842(3)
O14 O 0.83439(17) 0.79622(18) 0.25000(19)
O15 O 0.70378(18) 0.75000(19) 0.33439(17)
O16 O 0.83429(16) 0.74587(17) 0.29696(16)
O17 O 0.75413(17) 0.70304(16) 0.33429(16)
O18 O 0.78014(19) 0.80325(19) 0.17061(18)
O19 O 0.69675(19) 0.82939(18) 0.28014(19)
O20 O 0.7506(2) 0.74576(19) 0.14827(17)
O21 O 0.75424(19) 0.85173(17) 0.2506(2)
Zn12 Zn 0.30030(3) 0.26941(3) 0.22158(3)
O8 O 0.79622(18) 0.25000(19) 0.83439(17)
O9 O 0.74587(17) 0.29696(16) 0.83429(16)
C40 C 0.7751(3) 0.2788(3) 0.8509(3)
C47 C 0.7844(3) 0.3378(3) 0.9500(3)
H29 H 0.7732 0.3618 0.9612
C48 C 0.7877(3) 0.2923(3) 0.8927(3)
C49 C 0.8131(3) 0.3163(3) 0.9723(3)
C50 C 0.8180(4) 0.2703(3) 0.9139(4)
H30 H 0.8306 0.2476 0.9016
C51 C 0.7716(3) 0.3254(3) 0.9114(3)
H31 H 0.7511 0.3404 0.898
C52 C 0.8295(4) 0.2823(4) 0.9534(4)
H32 H 0.8491 0.2667 0.9675
C53 C 0.2703(3) 0.7214(3) 0.8576(3)
O10 O 0.28014(19) 0.69675(19) 0.82939(18)
O11 O 0.2506(2) 0.75424(19) 0.85173(17)
C54 C 0.2825(3) 0.7109(3) 0.9003(3)
C57 C 0.2842(3) 0.7247(3) 0.9731(3)
H34 H 0.2772 0.7415 0.9953
C61 C 0.3161(3) 0.6656(4) 0.9460(4)
H37 H 0.3311 0.6415 0.9501
C62 C 0.3065(3) 0.6894(3) 0.9795(3)
C63 C 0.2721(3) 0.7354(3) 0.9333(3)
H38 H 0.2568 0.7593 0.929
C65 C 0.3048(4) 0.6755(3) 0.9077(3)
H40 H 0.3121 0.6585 0.8858
Zn5 Zn 0.71682(3) 0.28318(3) 0.78318(3)
Zn7 Zn 0.23059(3) 0.77842(3) 0.80030(3)
Zn10 Zn 0.27842(3) 0.69970(3) 0.76941(3)
Zn11 Zn 0.80030(3) 0.23059(3) 0.77842(3)
N1_2 N 0.1421(2) 0.3579(2) 0.6421(2)
C10_2 C 0.0917(3) 0.3387(3) 0.6947(3)
H5_2 H 0.1117 0.3437 0.7147
C11_2 C 0.1017(3) 0.3437(2) 0.6532(3)
C14_2 C 0.0221(3) 0.3190(3) 0.6782(3)
C15_2 C 0.0327(3) 0.3240(3) 0.6365(3)
H8_2 H 0.0127 0.3192 0.6166
C16_2 C 0.0533(3) 0.3268(3) 0.7065(3)
H9_2 H 0.0477 0.3236 0.7344
C22_2 C 0.0718(3) 0.3358(3) 0.6238(3)
H12_2 H 0.0778 0.3383 0.5959
C53_2 C 0.2297(3) 0.2786(3) 0.3576(3)
O10_2 O 0.21986(19) 0.30325(19) 0.32939(18)
O11_2 O 0.2494(2) 0.24576(19) 0.35173(17)
C54_2 C 0.2175(3) 0.2891(3) 0.4003(3)
C55_2 C 0.1613(3) 0.3053(3) 0.5917(3)
H33_2 H 0.1563 0.2853 0.6117
C56_2 C 0.1563(2) 0.3468(3) 0.6017(3)
C57_2 C 0.2158(3) 0.2753(3) 0.4731(3)
H34_2 H 0.2228 0.2585 0.4953
C58_2 C 0.1810(3) 0.3218(3) 0.5221(3)
C59_2 C 0.1760(3) 0.3635(3) 0.5327(3)
H35_2 H 0.1808 0.3834 0.5127
C60_2 C 0.1732(3) 0.2935(3) 0.5533(3)
H36_2 H 0.1764 0.2656 0.5477
C61_2 C 0.1839(3) 0.3344(4) 0.4460(4)
H37_2 H 0.1689 0.3585 0.4501
C62_2 C 0.1935(3) 0.3106(3) 0.4795(3)
C63_2 C 0.2279(3) 0.2646(3) 0.4333(3)
H38_2 H 0.2432 0.2407 0.429
C64_2 C 0.1642(3) 0.3762(3) 0.5718(3)
H39_2 H 0.1617 0.4041 0.5778
C65_2 C 0.1952(4) 0.3245(3) 0.4077(3)
H40_2 H 0.1879 0.3415 0.3858
C66_2 C 0.2214(3) 0.6424(3) 0.7297(3)
O12_2 O 0.19675(19) 0.67061(18) 0.71986(19)
O13_2 O 0.25424(19) 0.64827(17) 0.7494(2)
C67_2 C 0.2109(3) 0.5997(3) 0.7175(3)
C68_2 C 0.1947(3) 0.4083(3) 0.6613(3)
H41_2 H 0.2147 0.3883 0.6563
C69_2 C 0.1532(3) 0.3983(3) 0.6563(2)
C70_2 C 0.2247(3) 0.5269(3) 0.7158(3)
H42_2 H 0.2415 0.5047 0.7228
C71_2 C 0.1782(3) 0.4779(3) 0.6810(3)
C72_2 C 0.1365(3) 0.4673(3) 0.6760(3)
H43_2 H 0.1166 0.4873 0.6808
C73_2 C 0.2065(3) 0.4467(3) 0.6732(3)
H44_2 H 0.2344 0.4523 0.6764
C74_2 C 0.1656(4) 0.5540(4) 0.6839(3)
H45_2 H 0.1415 0.5499 0.6689
C75_2 C 0.1894(3) 0.5205(3) 0.6935(3)
C76_2 C 0.2354(3) 0.5667(3) 0.7279(3)
H46_2 H 0.2593 0.571 0.7432
C77_2 C 0.1238(3) 0.4282(3) 0.6642(3)
H47_2 H 0.0959 0.4222 0.6617
C78_2 C 0.1755(3) 0.5923(3) 0.6952(4)
H48_2 H 0.1585 0.6142 0.6879
Zn7_2 Zn 0.26941(3) 0.22158(3) 0.30030(3)
Zn12_2 Zn 0.19970(3) 0.73059(3) 0.72158(3)
O1_2 O 0.75000(19) 0.33439(17) 0.70378(18)
O2_2 O 0.70304(16) 0.33429(16) 0.75413(17)
O3_2 O 0.75138(15) 0.24862(15) 0.74862(15)
C1_2 C 0.8576(3) 0.2703(3) 0.7214(3)
C2_2 C 0.7212(3) 0.3509(3) 0.7249(3)
O4_2 O 0.82939(18) 0.28014(19) 0.69675(19)
O5_2 O 0.85173(17) 0.2506(2) 0.75424(19)
C3_2 C 0.6708(3) 0.5158(4) 0.6748(3)
C4_2 C 0.6471(4) 0.5950(4) 0.6488(4)
C5_2 C 0.6982(6) 0.5448(6) 0.6621(8)
H1_2 H 0.7259 0.5375 0.6603
C6_2 C 0.6872(6) 0.5852(6) 0.6516(8)
H2_2 H 0.7074 0.6049 0.6466
C7_2 C 0.6340(5) 0.5317(4) 0.6810(4)
H3_2 H 0.6137 0.5156 0.6934
C8_2 C 0.6253(5) 0.5688(4) 0.6706(4)
H4_2 H 0.6 0.5786 0.6798
Zn2_2 Zn 0.76941(3) 0.27842(3) 0.69970(3)
C9_2 C 0.9003(3) 0.2825(3) 0.7109(3)
N2_2 N 0.6317(5) 0.6317(5) 0.6317(5)
C12_2 C 0.6622(3) 0.4500(3) 0.7156(3)
H6_2 H 0.6382 0.4612 0.7268
C13_2 C 0.9731(3) 0.2842(3) 0.7247(3)
H7_2 H 0.9953 0.2772 0.7415
C17_2 C 0.9460(4) 0.3161(3) 0.6656(4)
H10_2 H 0.9501 0.3311 0.6415
C18_2 C 0.9795(3) 0.3065(3) 0.6894(3)
C19_2 C 0.9333(3) 0.2721(3) 0.7354(3)
H11_2 H 0.929 0.2568 0.7593
C20_2 C 0.7077(3) 0.3927(3) 0.7123(3)
C21_2 C 0.6837(3) 0.4723(3) 0.6869(3)
C23_2 C 0.9077(3) 0.3048(4) 0.6755(3)
H13_2 H 0.8858 0.3121 0.6585
C24_2 C 0.7297(3) 0.4139(4) 0.6820(4)
H14_2 H 0.7524 0.4016 0.6694
C25_2 C 0.6746(3) 0.4114(3) 0.7284(3)
H15_2 H 0.6596 0.398 0.7489
C26_2 C 0.7177(4) 0.4534(4) 0.6705(4)
H16_2 H 0.7333 0.4675 0.6509
O6_2 O 0.33439(17) 0.70378(18) 0.75000(19)
O7_2 O 0.33429(16) 0.75413(17) 0.70304(16)
C27_2 C 0.3509(3) 0.7249(3) 0.7212(3)
C28_2 C 0.5158(4) 0.6748(3) 0.6708(3)
C29_2 C 0.5950(4) 0.6488(4) 0.6471(4)
C30_2 C 0.5448(6) 0.6621(8) 0.6982(6)
H17_2 H 0.5375 0.6603 0.7259
C31_2 C 0.5852(6) 0.6516(8) 0.6872(6)
H18_2 H 0.6049 0.6466 0.7074
C32_2 C 0.5317(4) 0.6810(4) 0.6340(5)
H19_2 H 0.5156 0.6934 0.6137
C33_2 C 0.5688(4) 0.6706(4) 0.6253(5)
H20_2 H 0.5786 0.6798 0.6
C34_2 C 0.4500(3) 0.7156(3) 0.6622(3)
H21_2 H 0.4612 0.7268 0.6382
C35_2 C 0.3927(3) 0.7123(3) 0.7077(3)
C36_2 C 0.4723(3) 0.6869(3) 0.6837(3)
C37_2 C 0.4139(4) 0.6820(4) 0.7297(3)
H22_2 H 0.4016 0.6694 0.7524
C38_2 C 0.4114(3) 0.7284(3) 0.6746(3)
H23_2 H 0.398 0.7489 0.6596
C39_2 C 0.4534(4) 0.6705(4) 0.7177(4)
H24_2 H 0.4675 0.6509 0.7333
C40_2 C 0.7249(3) 0.7212(3) 0.3509(3)
C41_2 C 0.6748(3) 0.6708(3) 0.5158(4)
C42_2 C 0.6488(4) 0.6471(4) 0.5950(4)
C43_2 C 0.6621(8) 0.6982(6) 0.5448(6)
H25_2 H 0.6603 0.7259 0.5375
C44_2 C 0.6516(8) 0.6872(6) 0.5852(6)
H26_2 H 0.6466 0.7074 0.6049
C45_2 C 0.6810(4) 0.6340(5) 0.5317(4)
H27_2 H 0.6934 0.6137 0.5156
C46_2 C 0.6706(4) 0.6253(5) 0.5688(4)
H28_2 H 0.6798 0.6 0.5786
C47_2 C 0.7156(3) 0.6622(3) 0.4500(3)
H29_2 H 0.7268 0.6382 0.4612
C48_2 C 0.7123(3) 0.7077(3) 0.3927(3)
C49_2 C 0.6869(3) 0.6837(3) 0.4723(3)
C50_2 C 0.6820(4) 0.7297(3) 0.4139(4)
H30_2 H 0.6694 0.7524 0.4016
C51_2 C 0.7284(3) 0.6746(3) 0.4114(3)
H31_2 H 0.7489 0.6596 0.398
C52_2 C 0.6705(4) 0.7177(4) 0.4534(4)
H32_2 H 0.6509 0.7333 0.4675
Zn3_2 Zn 0.72158(3) 0.19970(3) 0.73059(3)
Zn6_2 Zn 0.28318(3) 0.78318(3) 0.71682(3)
O14_2 O 0.66561(17) 0.20378(18) 0.75000(19)
O16_2 O 0.66571(16) 0.25413(17) 0.79696(16)
O18_2 O 0.71986(19) 0.19675(19) 0.67061(18)
O19_2 O 0.80325(19) 0.17061(18) 0.78014(19)
O20_2 O 0.7494(2) 0.25424(19) 0.64827(17)
O21_2 O 0.74576(19) 0.14827(17) 0.7506(2)
O8_2 O 0.29622(18) 0.25000(19) 0.16561(17)
O9_2 O 0.24587(17) 0.20304(16) 0.16571(16)
C40_3 C 0.2751(3) 0.2212(3) 0.1491(3)
C47_3 C 0.2844(3) 0.1622(3) 0.0500(3)
H29_3 H 0.2732 0.1382 0.0388
C48_3 C 0.2877(3) 0.2077(3) 0.1073(3)
C49_3 C 0.3131(3) 0.1837(3) 0.0277(3)
C50_3 C 0.3180(4) 0.2297(3) 0.0861(4)
H30_3 H 0.3306 0.2524 0.0984
C51_3 C 0.2716(3) 0.1746(3) 0.0886(3)
H31_3 H 0.2511 0.1596 0.102
C52_3 C 0.3295(4) 0.2177(4) 0.0466(4)
H32_3 H 0.3491 0.2333 0.0325
C3_3 C 0.3292(3) 0.0158(4) 0.8252(3)
C4_3 C 0.3529(4) 0.0950(4) 0.8512(4)
C5_3 C 0.3018(6) 0.0448(6) 0.8379(8)
H1_3 H 0.2741 0.0375 0.8397
C6_3 C 0.3128(6) 0.0852(6) 0.8484(8)
H2_3 H 0.2926 0.1049 0.8534
C7_3 C 0.3660(5) 0.0317(4) 0.8190(4)
H3_3 H 0.3863 0.0156 0.8066
C8_3 C 0.3747(5) 0.0688(4) 0.8294(4)
H4_3 H 0.4 0.0786 0.8202
N2_3 N 0.3683(5) 0.1317(5) 0.8683(5)
C27_3 C 0.6491(3) 0.2249(3) 0.7788(3)
C28_3 C 0.4842(4) 0.1748(3) 0.8292(3)
C29_3 C 0.4050(4) 0.1488(4) 0.8529(4)
C30_3 C 0.4552(6) 0.1621(8) 0.8018(6)
H17_3 H 0.4625 0.1603 0.7741
C31_3 C 0.4148(6) 0.1516(8) 0.8128(6)
H18_3 H 0.3951 0.1466 0.7926
C32_3 C 0.4683(4) 0.1810(4) 0.8660(5)
H19_3 H 0.4844 0.1934 0.8863
C33_3 C 0.4312(4) 0.1706(4) 0.8747(5)
H20_3 H 0.4214 0.1798 0.9
C34_3 C 0.5500(3) 0.2156(3) 0.8378(3)
H21_3 H 0.5388 0.2268 0.8618
C35_3 C 0.6073(3) 0.2123(3) 0.7923(3)
C36_3 C 0.5277(3) 0.1869(3) 0.8163(3)
C37_3 C 0.5861(4) 0.1820(4) 0.7703(3)
H22_3 H 0.5984 0.1694 0.7476
C38_3 C 0.5886(3) 0.2284(3) 0.8254(3)
H23_3 H 0.602 0.2489 0.8404
C39_3 C 0.5466(4) 0.1705(4) 0.7823(4)
H24_3 H 0.5325 0.1509 0.7667
C41_3 C 0.3252(3) 0.1708(3) 0.9842(4)
C42_3 C 0.3512(4) 0.1471(4) 0.9050(4)
C43_3 C 0.3379(8) 0.1982(6) 0.9552(6)
H25_3 H 0.3397 0.2259 0.9625
C44_3 C 0.3484(8) 0.1872(6) 0.9148(6)
H26_3 H 0.3534 0.2074 0.8951
C45_3 C 0.3190(4) 0.1340(5) 0.9683(4)
H27_3 H 0.3066 0.1137 0.9844
C46_3 C 0.3294(4) 0.1253(5) 0.9312(4)
H28_3 H 0.3202 0.1 0.9214
O1_3 O 0.25000(19) 0.83439(17) 0.79622(18)
O2_3 O 0.29696(16) 0.83429(16) 0.74587(17)
O3_3 O 0.24862(15) 0.74862(15) 0.75138(15)
C1_3 C 0.1424(3) 0.7703(3) 0.7786(3)
C2_3 C 0.2788(3) 0.8509(3) 0.7751(3)
O4_3 O 0.17061(18) 0.78014(19) 0.80325(19)
O5_3 O 0.14827(17) 0.7506(2) 0.74576(19)
C9_3 C 0.0997(3) 0.7825(3) 0.7891(3)
C12_3 C 0.3378(3) 0.9500(3) 0.7844(3)
H6_3 H 0.3618 0.9612 0.7732
C13_3 C 0.0269(3) 0.7842(3) 0.7753(3)
H7_3 H 0.0047 0.7772 0.7585
C17_3 C 0.0540(4) 0.8161(3) 0.8344(4)
H10_3 H 0.0499 0.8311 0.8585
C18_3 C 0.0205(3) 0.8065(3) 0.8106(3)
C19_3 C 0.0667(3) 0.7721(3) 0.7646(3)
H11_3 H 0.071 0.7568 0.7407
C20_3 C 0.2923(3) 0.8927(3) 0.7877(3)
C21_3 C 0.3163(3) 0.9723(3) 0.8131(3)
C23_3 C 0.0923(3) 0.8048(4) 0.8245(3)
H13_3 H 0.1142 0.8121 0.8415
C24_3 C 0.2703(3) 0.9139(4) 0.8180(4)
H14_3 H 0.2476 0.9016 0.8306
C25_3 C 0.3254(3) 0.9114(3) 0.7716(3)
H15_3 H 0.3404 0.898 0.7511
C26_3 C 0.2823(4) 0.9534(4) 0.8295(4)
H16_3 H 0.2667 0.9675 0.8491
O15_2 O 0.20378(18) 0.75000(19) 0.66561(17)
O17_2 O 0.25413(17) 0.79696(16) 0.66571(16)
C66_3 C 0.7786(3) 0.1424(3) 0.7703(3)
C67_3 C 0.7891(3) 0.0997(3) 0.7825(3)
C70_3 C 0.7753(3) 0.0269(3) 0.7842(3)
H42_3 H 0.7585 0.0047 0.7772
C74_3 C 0.8344(4) 0.0540(4) 0.8161(3)
H45_3 H 0.8585 0.0499 0.8311
C75_3 C 0.8106(3) 0.0205(3) 0.8065(3)
C76_3 C 0.7646(3) 0.0667(3) 0.7721(3)
H46_3 H 0.7407 0.071 0.7568
C78_3 C 0.8245(3) 0.0923(3) 0.8048(4)
H48_3 H 0.8415 0.1142 0.8121
C53_3 C 0.7703(3) 0.7786(3) 0.1424(3)
C54_3 C 0.7825(3) 0.7891(3) 0.0997(3)
C57_3 C 0.7842(3) 0.7753(3) 0.0269(3)
H34_3 H 0.7772 0.7585 0.0047
C61_3 C 0.8161(3) 0.8344(4) 0.0540(4)
H37_3 H 0.8311 0.8585 0.0499
C62_3 C 0.8065(3) 0.8106(3) 0.0205(3)
C63_3 C 0.7721(3) 0.7646(3) 0.0667(3)
H38_3 H 0.7568 0.7407 0.071
C65_3 C 0.8048(4) 0.8245(3) 0.0923(3)
H40_3 H 0.8121 0.8415 0.1142
O1_4 O 0.25000(19) 0.16561(17) 0.29622(18)
O2_4 O 0.20304(16) 0.16571(16) 0.24587(17)
O3_4 O 0.25138(15) 0.25138(15) 0.25138(15)
C1_4 C 0.3576(3) 0.2297(3) 0.2786(3)
C2_4 C 0.2212(3) 0.1491(3) 0.2751(3)
O4_4 O 0.32939(18) 0.21986(19) 0.30325(19)
O5_4 O 0.35173(17) 0.2494(2) 0.24576(19)
N1_3 N 0.6421(2) 0.1421(2) 0.3579(2)
C9_4 C 0.4003(3) 0.2175(3) 0.2891(3)
C10_3 C 0.5917(3) 0.1613(3) 0.3053(3)
H5_3 H 0.6117 0.1563 0.2853
C11_3 C 0.6017(3) 0.1563(2) 0.3468(3)
C12_4 C 0.1622(3) 0.0500(3) 0.2844(3)
H6_4 H 0.1382 0.0388 0.2732
C13_4 C 0.4731(3) 0.2158(3) 0.2753(3)
H7_4 H 0.4953 0.2228 0.2585
C14_3 C 0.5221(3) 0.1810(3) 0.3218(3)
C15_3 C 0.5327(3) 0.1760(3) 0.3635(3)
H8_3 H 0.5127 0.1808 0.3834
C16_3 C 0.5533(3) 0.1732(3) 0.2935(3)
H9_3 H 0.5477 0.1764 0.2656
C17_4 C 0.4460(4) 0.1839(3) 0.3344(4)
H10_4 H 0.4501 0.1689 0.3585
C18_4 C 0.4795(3) 0.1935(3) 0.3106(3)
C19_4 C 0.4333(3) 0.2279(3) 0.2646(3)
H11_4 H 0.429 0.2432 0.2407
C20_4 C 0.2077(3) 0.1073(3) 0.2877(3)
C21_4 C 0.1837(3) 0.0277(3) 0.3131(3)
C22_3 C 0.5718(3) 0.1642(3) 0.3762(3)
H12_3 H 0.5778 0.1617 0.4041
C23_4 C 0.4077(3) 0.1952(4) 0.3245(3)
H13_4 H 0.3858 0.1879 0.3415
C24_4 C 0.2297(3) 0.0861(4) 0.3180(4)
H14_4 H 0.2524 0.0984 0.3306
C25_4 C 0.1746(3) 0.0886(3) 0.2716(3)
H15_4 H 0.1596 0.102 0.2511
C26_4 C 0.2177(4) 0.0466(4) 0.3295(4)
H16_4 H 0.2333 0.0325 0.3491
C53_4 C 0.7297(3) 0.2214(3) 0.6424(3)
C54_4 C 0.7175(3) 0.2109(3) 0.5997(3)
C55_3 C 0.6613(3) 0.1947(3) 0.4083(3)
H33_3 H 0.6563 0.2147 0.3883
C56_3 C 0.6563(2) 0.1532(3) 0.3983(3)
C57_4 C 0.7158(3) 0.2247(3) 0.5269(3)
H34_4 H 0.7228 0.2415 0.5047
C58_3 C 0.6810(3) 0.1782(3) 0.4779(3)
C59_3 C 0.6760(3) 0.1365(3) 0.4673(3)
H35_3 H 0.6808 0.1166 0.4873
C60_3 C 0.6732(3) 0.2065(3) 0.4467(3)
H36_3 H 0.6764 0.2344 0.4523
C61_4 C 0.6839(3) 0.1656(4) 0.5540(4)
H37_4 H 0.6689 0.1415 0.5499
C62_4 C 0.6935(3) 0.1894(3) 0.5205(3)
C63_4 C 0.7279(3) 0.2354(3) 0.5667(3)
H38_4 H 0.7432 0.2593 0.571
C64_3 C 0.6642(3) 0.1238(3) 0.4282(3)
H39_3 H 0.6617 0.0959 0.4222
C65_4 C 0.6952(4) 0.1755(3) 0.5923(3)
H40_4 H 0.6879 0.1585 0.6142
C68_3 C 0.6947(3) 0.0917(3) 0.3387(3)
H41_3 H 0.7147 0.1117 0.3437
C69_3 C 0.6532(3) 0.1017(3) 0.3437(2)
C71_3 C 0.6782(3) 0.0221(3) 0.3190(3)
C72_3 C 0.6365(3) 0.0327(3) 0.3240(3)
H43_3 H 0.6166 0.0127 0.3192
C73_3 C 0.7065(3) 0.0533(3) 0.3268(3)
H44_3 H 0.7344 0.0477 0.3236
C77_3 C 0.6238(3) 0.0718(3) 0.3358(3)
H47_3 H 0.5959 0.0778 0.3383
C3_4 C 0.1708(3) 0.9842(4) 0.3252(3)
C4_4 C 0.1471(4) 0.9050(4) 0.3512(4)
C5_4 C 0.1982(6) 0.9552(6) 0.3379(8)
H1_4 H 0.2259 0.9625 0.3397
C6_4 C 0.1872(6) 0.9148(6) 0.3484(8)
H2_4 H 0.2074 0.8951 0.3534
C7_4 C 0.1340(5) 0.9683(4) 0.3190(4)
H3_4 H 0.1137 0.9844 0.3066
C8_4 C 0.1253(5) 0.9312(4) 0.3294(4)
H4_4 H 0.1 0.9214 0.3202
N2_4 N 0.1317(5) 0.8683(5) 0.3683(5)
C28_4 C 0.0158(4) 0.8252(3) 0.3292(3)
C29_4 C 0.0950(4) 0.8512(4) 0.3529(4)
C30_4 C 0.0448(6) 0.8379(8) 0.3018(6)
H17_4 H 0.0375 0.8397 0.2741
C31_4 C 0.0852(6) 0.8484(8) 0.3128(6)
H18_4 H 0.1049 0.8534 0.2926
C32_4 C 0.0317(4) 0.8190(4) 0.3660(5)
H19_4 H 0.0156 0.8066 0.3863
C33_4 C 0.0688(4) 0.8294(4) 0.3747(5)
H20_4 H 0.0786 0.8202 0.4
C40_4 C 0.2249(3) 0.7788(3) 0.6491(3)
C41_4 C 0.1748(3) 0.8292(3) 0.4842(4)
C42_4 C 0.1488(4) 0.8529(4) 0.4050(4)
C43_4 C 0.1621(8) 0.8018(6) 0.4552(6)
H25_4 H 0.1603 0.7741 0.4625
C44_4 C 0.1516(8) 0.8128(6) 0.4148(6)
H26_4 H 0.1466 0.7926 0.3951
C45_4 C 0.1810(4) 0.8660(5) 0.4683(4)
H27_4 H 0.1934 0.8863 0.4844
C46_4 C 0.1706(4) 0.8747(5) 0.4312(4)
H28_4 H 0.1798 0.9 0.4214
C47_4 C 0.2156(3) 0.8378(3) 0.5500(3)
H29_4 H 0.2268 0.8618 0.5388
C48_4 C 0.2123(3) 0.7923(3) 0.6073(3)
C49_4 C 0.1869(3) 0.8163(3) 0.5277(3)
C50_4 C 0.1820(4) 0.7703(3) 0.5861(4)
H30_4 H 0.1694 0.7476 0.5984
C51_4 C 0.2284(3) 0.8254(3) 0.5886(3)
H31_4 H 0.2489 0.8404 0.602
C52_4 C 0.1705(4) 0.7823(4) 0.5466(4)
H32_4 H 0.1509 0.7667 0.5325
C66_4 C 0.7214(3) 0.8576(3) 0.2703(3)
C67_4 C 0.7109(3) 0.9003(3) 0.2825(3)
C70_4 C 0.7247(3) 0.9731(3) 0.2842(3)
H42_4 H 0.7415 0.9953 0.2772
C74_4 C 0.6656(4) 0.9460(4) 0.3161(3)
H45_4 H 0.6415 0.9501 0.3311
C75_4 C 0.6894(3) 0.9795(3) 0.3065(3)
C76_4 C 0.7354(3) 0.9333(3) 0.2721(3)
H46_4 H 0.7593 0.929 0.2568
C78_4 C 0.6755(3) 0.9077(3) 0.3048(4)
H48_4 H 0.6585 0.8858 0.3121
C27_4 C 0.8509(3) 0.7751(3) 0.2788(3)
C34_4 C 0.9500(3) 0.7844(3) 0.3378(3)
H21_4 H 0.9612 0.7732 0.3618
C35_4 C 0.8927(3) 0.7877(3) 0.2923(3)
C36_4 C 0.9723(3) 0.8131(3) 0.3163(3)
C37_4 C 0.9139(4) 0.8180(4) 0.2703(3)
H22_4 H 0.9016 0.8306 0.2476
C38_4 C 0.9114(3) 0.7716(3) 0.3254(3)
H23_4 H 0.898 0.7511 0.3404
C39_4 C 0.9534(4) 0.8295(4) 0.2823(4)
H24_4 H 0.9675 0.8491 0.2667
N1_4 N 0.8579(2) 0.8579(2) 0.8579(2)
C10_4 C 0.9083(3) 0.8387(3) 0.8053(3)
H5_4 H 0.8883 0.8437 0.7853
C11_4 C 0.8983(3) 0.8437(2) 0.8468(3)
C14_4 C 0.9779(3) 0.8190(3) 0.8218(3)
C15_4 C 0.9673(3) 0.8240(3) 0.8635(3)
H8_4 H 0.9873 0.8192 0.8834
C16_4 C 0.9467(3) 0.8268(3) 0.7935(3)
H9_4 H 0.9523 0.8236 0.7656
C22_4 C 0.9282(3) 0.8358(3) 0.8762(3)
H12_4 H 0.9222 0.8383 0.9041
C55_4 C 0.8387(3) 0.8053(3) 0.9083(3)
H33_4 H 0.8437 0.7853 0.8883
C56_4 C 0.8437(2) 0.8468(3) 0.8983(3)
C58_4 C 0.8190(3) 0.8218(3) 0.9779(3)
C59_4 C 0.8240(3) 0.8635(3) 0.9673(3)
H35_4 H 0.8192 0.8834 0.9873
C60_4 C 0.8268(3) 0.7935(3) 0.9467(3)
H36_4 H 0.8236 0.7656 0.9523
C64_4 C 0.8358(3) 0.8762(3) 0.9282(3)
H39_4 H 0.8383 0.9041 0.9222
C68_4 C 0.8053(3) 0.9083(3) 0.8387(3)
H41_4 H 0.7853 0.8883 0.8437
C69_4 C 0.8468(3) 0.8983(3) 0.8437(2)
C71_4 C 0.8218(3) 0.9779(3) 0.8190(3)
C72_4 C 0.8635(3) 0.9673(3) 0.8240(3)
H43_4 H 0.8834 0.9873 0.8192
C73_4 C 0.7935(3) 0.9467(3) 0.8268(3)
H44_4 H 0.7656 0.9523 0.8236
C77_4 C 0.8762(3) 0.9282(3) 0.8358(3)
H47_4 H 0.9041 0.9222 0.8383
O8_3 O 0.20378(18) 0.75000(19) 0.16561(17)
O9_3 O 0.25413(17) 0.70304(16) 0.16571(16)
C40_5 C 0.2249(3) 0.7212(3) 0.1491(3)
C47_5 C 0.2156(3) 0.6622(3) 0.0500(3)
H29_5 H 0.2268 0.6382 0.0388
C48_5 C 0.2123(3) 0.7077(3) 0.1073(3)
C49_5 C 0.1869(3) 0.6837(3) 0.0277(3)
C50_5 C 0.1820(4) 0.7297(3) 0.0861(4)
H30_5 H 0.1694 0.7524 0.0984
C51_5 C 0.2284(3) 0.6746(3) 0.0886(3)
H31_5 H 0.2489 0.6596 0.102
C52_5 C 0.1705(4) 0.7177(4) 0.0466(4)
H32_5 H 0.1509 0.7333 0.0325
C53_5 C 0.7297(3) 0.2786(3) 0.1424(3)
O10_3 O 0.71986(19) 0.30325(19) 0.17061(18)
O11_3 O 0.7494(2) 0.24576(19) 0.14827(17)
C54_5 C 0.7175(3) 0.2891(3) 0.0997(3)
C57_5 C 0.7158(3) 0.2753(3) 0.0269(3)
H34_5 H 0.7228 0.2585 0.0047
C61_5 C 0.6839(3) 0.3344(4) 0.0540(4)
H37_5 H 0.6689 0.3585 0.0499
C62_5 C 0.6935(3) 0.3106(3) 0.0205(3)
C63_5 C 0.7279(3) 0.2646(3) 0.0667(3)
H38_5 H 0.7432 0.2407 0.071
C65_5 C 0.6952(4) 0.3245(3) 0.0923(3)
H40_5 H 0.6879 0.3415 0.1142
Zn5_2 Zn 0.28318(3) 0.71682(3) 0.21682(3)
Zn7_3 Zn 0.76941(3) 0.22158(3) 0.19970(3)
Zn10_2 Zn 0.72158(3) 0.30030(3) 0.23059(3)
Zn11_2 Zn 0.19970(3) 0.76941(3) 0.22158(3)
Zn1_2 Zn 0.21682(3) 0.28318(3) 0.71682(3)
O1_5 O 0.25000(19) 0.33439(17) 0.79622(18)
O2_5 O 0.20304(16) 0.33429(16) 0.74587(17)
O3_5 O 0.25138(15) 0.24862(15) 0.75138(15)
C1_5 C 0.3576(3) 0.2703(3) 0.7786(3)
C2_5 C 0.2212(3) 0.3509(3) 0.7751(3)
O4_5 O 0.32939(18) 0.28014(19) 0.80325(19)
O5_5 O 0.35173(17) 0.2506(2) 0.74576(19)
C3_5 C 0.1708(3) 0.5158(4) 0.8252(3)
C4_5 C 0.1471(4) 0.5950(4) 0.8512(4)
C5_5 C 0.1982(6) 0.5448(6) 0.8379(8)
H1_5 H 0.2259 0.5375 0.8397
C6_5 C 0.1872(6) 0.5852(6) 0.8484(8)
H2_5 H 0.2074 0.6049 0.8534
C7_5 C 0.1340(5) 0.5317(4) 0.8190(4)
H3_5 H 0.1137 0.5156 0.8066
C8_5 C 0.1253(5) 0.5688(4) 0.8294(4)
H4_5 H 0.1 0.5786 0.8202
Zn2_3 Zn 0.26941(3) 0.27842(3) 0.80030(3)
N1_5 N 0.6421(2) 0.3579(2) 0.8579(2)
C9_5 C 0.4003(3) 0.2825(3) 0.7891(3)
C10_5 C 0.5917(3) 0.3387(3) 0.8053(3)
H5_5 H 0.6117 0.3437 0.7853
C11_5 C 0.6017(3) 0.3437(2) 0.8468(3)
N2_5 N 0.1317(5) 0.6317(5) 0.8683(5)
C12_5 C 0.1622(3) 0.4500(3) 0.7844(3)
H6_5 H 0.1382 0.4612 0.7732
C13_5 C 0.4731(3) 0.2842(3) 0.7753(3)
H7_5 H 0.4953 0.2772 0.7585
C14_5 C 0.5221(3) 0.3190(3) 0.8218(3)
C15_5 C 0.5327(3) 0.3240(3) 0.8635(3)
H8_5 H 0.5127 0.3192 0.8834
C16_5 C 0.5533(3) 0.3268(3) 0.7935(3)
H9_5 H 0.5477 0.3236 0.7656
C17_5 C 0.4460(4) 0.3161(3) 0.8344(4)
H10_5 H 0.4501 0.3311 0.8585
C18_5 C 0.4795(3) 0.3065(3) 0.8106(3)
C19_5 C 0.4333(3) 0.2721(3) 0.7646(3)
H11_5 H 0.429 0.2568 0.7407
C20_5 C 0.2077(3) 0.3927(3) 0.7877(3)
C21_5 C 0.1837(3) 0.4723(3) 0.8131(3)
C22_5 C 0.5718(3) 0.3358(3) 0.8762(3)
H12_5 H 0.5778 0.3383 0.9041
C23_5 C 0.4077(3) 0.3048(4) 0.8245(3)
H13_5 H 0.3858 0.3121 0.8415
C24_5 C 0.2297(3) 0.4139(4) 0.8180(4)
H14_5 H 0.2524 0.4016 0.8306
C25_5 C 0.1746(3) 0.4114(3) 0.7716(3)
H15_5 H 0.1596 0.398 0.7511
C26_5 C 0.2177(4) 0.4534(4) 0.8295(4)
H16_5 H 0.2333 0.4675 0.8491
C28_5 C 0.0158(4) 0.6748(3) 0.8292(3)
C29_5 C 0.0950(4) 0.6488(4) 0.8529(4)
C30_5 C 0.0448(6) 0.6621(8) 0.8018(6)
H17_5 H 0.0375 0.6603 0.7741
C31_5 C 0.0852(6) 0.6516(8) 0.8128(6)
H18_5 H 0.1049 0.6466 0.7926
C32_5 C 0.0317(4) 0.6810(4) 0.8660(5)
H19_5 H 0.0156 0.6934 0.8863
C33_5 C 0.0688(4) 0.6706(4) 0.8747(5)
H20_5 H 0.0786 0.6798 0.9
C41_5 C 0.1748(3) 0.6708(3) 0.9842(4)
C42_5 C 0.1488(4) 0.6471(4) 0.9050(4)
C43_5 C 0.1621(8) 0.6982(6) 0.9552(6)
H25_5 H 0.1603 0.7259 0.9625
C44_5 C 0.1516(8) 0.6872(6) 0.9148(6)
H26_5 H 0.1466 0.7074 0.8951
C45_5 C 0.1810(4) 0.6340(5) 0.9683(4)
H27_5 H 0.1934 0.6137 0.9844
C46_5 C 0.1706(4) 0.6253(5) 0.9312(4)
H28_5 H 0.1798 0.6 0.9214
C55_5 C 0.6613(3) 0.3053(3) 0.9083(3)
H33_5 H 0.6563 0.2853 0.8883
C56_5 C 0.6563(2) 0.3468(3) 0.8983(3)
C58_5 C 0.6810(3) 0.3218(3) 0.9779(3)
C59_5 C 0.6760(3) 0.3635(3) 0.9673(3)
H35_5 H 0.6808 0.3834 0.9873
C60_5 C 0.6732(3) 0.2935(3) 0.9467(3)
H36_5 H 0.6764 0.2656 0.9523
C64_5 C 0.6642(3) 0.3762(3) 0.9282(3)
H39_5 H 0.6617 0.4041 0.9222
C66_5 C 0.7214(3) 0.6424(3) 0.7703(3)
O12_3 O 0.69675(19) 0.67061(18) 0.78014(19)
O13_3 O 0.75424(19) 0.64827(17) 0.7506(2)
C67_5 C 0.7109(3) 0.5997(3) 0.7825(3)
C68_5 C 0.6947(3) 0.4083(3) 0.8387(3)
H41_5 H 0.7147 0.3883 0.8437
C69_5 C 0.6532(3) 0.3983(3) 0.8437(2)
C70_5 C 0.7247(3) 0.5269(3) 0.7842(3)
H42_5 H 0.7415 0.5047 0.7772
C71_5 C 0.6782(3) 0.4779(3) 0.8190(3)
C72_5 C 0.6365(3) 0.4673(3) 0.8240(3)
H43_5 H 0.6166 0.4873 0.8192
C73_5 C 0.7065(3) 0.4467(3) 0.8268(3)
H44_5 H 0.7344 0.4523 0.8236
C74_5 C 0.6656(4) 0.5540(4) 0.8161(3)
H45_5 H 0.6415 0.5499 0.8311
C75_5 C 0.6894(3) 0.5205(3) 0.8065(3)
C76_5 C 0.7354(3) 0.5667(3) 0.7721(3)
H46_5 H 0.7593 0.571 0.7568
C77_5 C 0.6238(3) 0.4282(3) 0.8358(3)
H47_5 H 0.5959 0.4222 0.8383
C78_5 C 0.6755(3) 0.5923(3) 0.8048(4)
H48_5 H 0.6585 0.6142 0.8121
Zn3_3 Zn 0.22158(3) 0.19970(3) 0.76941(3)
Zn4_2 Zn 0.30030(3) 0.23059(3) 0.72158(3)
O14_3 O 0.16561(17) 0.20378(18) 0.75000(19)
O15_3 O 0.29622(18) 0.25000(19) 0.66561(17)
O16_3 O 0.16571(16) 0.25413(17) 0.70304(16)
O17_3 O 0.24587(17) 0.29696(16) 0.66571(16)
O18_3 O 0.21986(19) 0.19675(19) 0.82939(18)
O19_3 O 0.30325(19) 0.17061(18) 0.71986(19)
O20_3 O 0.2494(2) 0.25424(19) 0.85173(17)
O21_3 O 0.24576(19) 0.14827(17) 0.7494(2)
Zn8 Zn 0.77842(3) 0.69970(3) 0.73059(3)
Zn12_3 Zn 0.69970(3) 0.73059(3) 0.77842(3)
O6_3 O 0.83439(17) 0.70378(18) 0.75000(19)
O7_3 O 0.83429(16) 0.75413(17) 0.79696(16)
C27_5 C 0.8509(3) 0.7249(3) 0.7788(3)
C34_5 C 0.9500(3) 0.7156(3) 0.8378(3)
H21_5 H 0.9612 0.7268 0.8618
C35_5 C 0.8927(3) 0.7123(3) 0.7923(3)
C36_5 C 0.9723(3) 0.6869(3) 0.8163(3)
C37_5 C 0.9139(4) 0.6820(4) 0.7703(3)
H22_5 H 0.9016 0.6694 0.7476
C38_5 C 0.9114(3) 0.7284(3) 0.8254(3)
H23_5 H 0.898 0.7489 0.8404
C39_5 C 0.9534(4) 0.6705(4) 0.7823(4)
H24_5 H 0.9675 0.6509 0.7667
Zn6_3 Zn 0.78318(3) 0.78318(3) 0.78318(3)
O1_6 O 0.25000(19) 0.66561(17) 0.29622(18)
O2_6 O 0.29696(16) 0.66571(16) 0.24587(17)
O3_6 O 0.24862(15) 0.75138(15) 0.25138(15)
C1_6 C 0.1424(3) 0.7297(3) 0.2786(3)
C2_6 C 0.2788(3) 0.6491(3) 0.2751(3)
O4_6 O 0.17061(18) 0.71986(19) 0.30325(19)
O5_6 O 0.14827(17) 0.7494(2) 0.24576(19)
C3_6 C 0.3292(3) 0.4842(4) 0.3252(3)
C4_6 C 0.3529(4) 0.4050(4) 0.3512(4)
C5_6 C 0.3018(6) 0.4552(6) 0.3379(8)
H1_6 H 0.2741 0.4625 0.3397
C6_6 C 0.3128(6) 0.4148(6) 0.3484(8)
H2_6 H 0.2926 0.3951 0.3534
C7_6 C 0.3660(5) 0.4683(4) 0.3190(4)
H3_6 H 0.3863 0.4844 0.3066
C8_6 C 0.3747(5) 0.4312(4) 0.3294(4)
H4_6 H 0.4 0.4214 0.3202
Zn2_4 Zn 0.23059(3) 0.72158(3) 0.30030(3)
C9_6 C 0.0997(3) 0.7175(3) 0.2891(3)
N2_6 N 0.3683(5) 0.3683(5) 0.3683(5)
C12_6 C 0.3378(3) 0.5500(3) 0.2844(3)
H6_6 H 0.3618 0.5388 0.2732
C13_6 C 0.0269(3) 0.7158(3) 0.2753(3)
H7_6 H 0.0047 0.7228 0.2585
C17_6 C 0.0540(4) 0.6839(3) 0.3344(4)
H10_6 H 0.0499 0.6689 0.3585
C18_6 C 0.0205(3) 0.6935(3) 0.3106(3)
C19_6 C 0.0667(3) 0.7279(3) 0.2646(3)
H11_6 H 0.071 0.7432 0.2407
C20_6 C 0.2923(3) 0.6073(3) 0.2877(3)
C21_6 C 0.3163(3) 0.5277(3) 0.3131(3)
C23_6 C 0.0923(3) 0.6952(4) 0.3245(3)
H13_6 H 0.1142 0.6879 0.3415
C24_6 C 0.2703(3) 0.5861(4) 0.3180(4)
H14_6 H 0.2476 0.5984 0.3306
C25_6 C 0.3254(3) 0.5886(3) 0.2716(3)
H15_6 H 0.3404 0.602 0.2511
C26_6 C 0.2823(4) 0.5466(4) 0.3295(4)
H16_6 H 0.2667 0.5325 0.3491
O6_4 O 0.66561(17) 0.29622(18) 0.25000(19)
O7_4 O 0.66571(16) 0.24587(17) 0.29696(16)
C27_6 C 0.6491(3) 0.2751(3) 0.2788(3)
C28_6 C 0.4842(4) 0.3252(3) 0.3292(3)
C29_6 C 0.4050(4) 0.3512(4) 0.3529(4)
C30_6 C 0.4552(6) 0.3379(8) 0.3018(6)
H17_6 H 0.4625 0.3397 0.2741
C31_6 C 0.4148(6) 0.3484(8) 0.3128(6)
H18_6 H 0.3951 0.3534 0.2926
C32_6 C 0.4683(4) 0.3190(4) 0.3660(5)
H19_6 H 0.4844 0.3066 0.3863
C33_6 C 0.4312(4) 0.3294(4) 0.3747(5)
H20_6 H 0.4214 0.3202 0.4
C34_6 C 0.5500(3) 0.2844(3) 0.3378(3)
H21_6 H 0.5388 0.2732 0.3618
C35_6 C 0.6073(3) 0.2877(3) 0.2923(3)
C36_6 C 0.5277(3) 0.3131(3) 0.3163(3)
C37_6 C 0.5861(4) 0.3180(4) 0.2703(3)
H22_6 H 0.5984 0.3306 0.2476
C38_6 C 0.5886(3) 0.2716(3) 0.3254(3)
H23_6 H 0.602 0.2511 0.3404
C39_6 C 0.5466(4) 0.3295(4) 0.2823(4)
H24_6 H 0.5325 0.3491 0.2667
C40_6 C 0.2751(3) 0.2788(3) 0.6491(3)
C41_6 C 0.3252(3) 0.3292(3) 0.4842(4)
C42_6 C 0.3512(4) 0.3529(4) 0.4050(4)
C43_6 C 0.3379(8) 0.3018(6) 0.4552(6)
H25_6 H 0.3397 0.2741 0.4625
C44_6 C 0.3484(8) 0.3128(6) 0.4148(6)
H26_6 H 0.3534 0.2926 0.3951
C45_6 C 0.3190(4) 0.3660(5) 0.4683(4)
H27_6 H 0.3066 0.3863 0.4844
C46_6 C 0.3294(4) 0.3747(5) 0.4312(4)
H28_6 H 0.3202 0.4 0.4214
C47_6 C 0.2844(3) 0.3378(3) 0.5500(3)
H29_6 H 0.2732 0.3618 0.5388
C48_6 C 0.2877(3) 0.2923(3) 0.6073(3)
C49_6 C 0.3131(3) 0.3163(3) 0.5277(3)
C50_6 C 0.3180(4) 0.2703(3) 0.5861(4)
H30_6 H 0.3306 0.2476 0.5984
C51_6 C 0.2716(3) 0.3254(3) 0.5886(3)
H31_6 H 0.2511 0.3404 0.602
C52_6 C 0.3295(4) 0.2823(4) 0.5466(4)
H32_6 H 0.3491 0.2667 0.5325
Zn3_4 Zn 0.27842(3) 0.80030(3) 0.26941(3)
Zn6_4 Zn 0.71682(3) 0.21682(3) 0.28318(3)
O14_4 O 0.33439(17) 0.79622(18) 0.25000(19)
O16_4 O 0.33429(16) 0.74587(17) 0.20304(16)
O18_4 O 0.28014(19) 0.80325(19) 0.32939(18)
O19_4 O 0.19675(19) 0.82939(18) 0.21986(19)
O20_4 O 0.2506(2) 0.74576(19) 0.35173(17)
O21_4 O 0.25424(19) 0.85173(17) 0.2494(2)
N1_6 N 0.8579(2) 0.6421(2) 0.3579(2)
C10_6 C 0.9083(3) 0.6613(3) 0.3053(3)
H5_6 H 0.8883 0.6563 0.2853
C11_6 C 0.8983(3) 0.6563(2) 0.3468(3)
C14_6 C 0.9779(3) 0.6810(3) 0.3218(3)
C15_6 C 0.9673(3) 0.6760(3) 0.3635(3)
H8_6 H 0.9873 0.6808 0.3834
C16_6 C 0.9467(3) 0.6732(3) 0.2935(3)
H9_6 H 0.9523 0.6764 0.2656
C22_6 C 0.9282(3) 0.6642(3) 0.3762(3)
H12_6 H 0.9222 0.6617 0.4041
C53_6 C 0.7703(3) 0.7214(3) 0.6424(3)
O10_4 O 0.78014(19) 0.69675(19) 0.67061(18)
O11_4 O 0.7506(2) 0.75424(19) 0.64827(17)
C54_6 C 0.7825(3) 0.7109(3) 0.5997(3)
C55_6 C 0.8387(3) 0.6947(3) 0.4083(3)
H33_6 H 0.8437 0.7147 0.3883
C56_6 C 0.8437(2) 0.6532(3) 0.3983(3)
C57_6 C 0.7842(3) 0.7247(3) 0.5269(3)
H34_6 H 0.7772 0.7415 0.5047
C58_6 C 0.8190(3) 0.6782(3) 0.4779(3)
C59_6 C 0.8240(3) 0.6365(3) 0.4673(3)
H35_6 H 0.8192 0.6166 0.4873
C60_6 C 0.8268(3) 0.7065(3) 0.4467(3)
H36_6 H 0.8236 0.7344 0.4523
C61_6 C 0.8161(3) 0.6656(4) 0.5540(4)
H37_6 H 0.8311 0.6415 0.5499
C62_6 C 0.8065(3) 0.6894(3) 0.5205(3)
C63_6 C 0.7721(3) 0.7354(3) 0.5667(3)
H38_6 H 0.7568 0.7593 0.571
C64_6 C 0.8358(3) 0.6238(3) 0.4282(3)
H39_6 H 0.8383 0.5959 0.4222
C65_6 C 0.8048(4) 0.6755(3) 0.5923(3)
H40_6 H 0.8121 0.6585 0.6142
C66_6 C 0.7786(3) 0.3576(3) 0.2703(3)
O12_4 O 0.80325(19) 0.32939(18) 0.28014(19)
O13_4 O 0.74576(19) 0.35173(17) 0.2506(2)
C67_6 C 0.7891(3) 0.4003(3) 0.2825(3)
C68_6 C 0.8053(3) 0.5917(3) 0.3387(3)
H41_6 H 0.7853 0.6117 0.3437
C69_6 C 0.8468(3) 0.6017(3) 0.3437(2)
C70_6 C 0.7753(3) 0.4731(3) 0.2842(3)
H42_6 H 0.7585 0.4953 0.2772
C71_6 C 0.8218(3) 0.5221(3) 0.3190(3)
C72_6 C 0.8635(3) 0.5327(3) 0.3240(3)
H43_6 H 0.8834 0.5127 0.3192
C73_6 C 0.7935(3) 0.5533(3) 0.3268(3)
H44_6 H 0.7656 0.5477 0.3236
C74_6 C 0.8344(4) 0.4460(4) 0.3161(3)
H45_6 H 0.8585 0.4501 0.3311
C75_6 C 0.8106(3) 0.4795(3) 0.3065(3)
C76_6 C 0.7646(3) 0.4333(3) 0.2721(3)
H46_6 H 0.7407 0.429 0.2568
C77_6 C 0.8762(3) 0.5718(3) 0.3358(3)
H47_6 H 0.9041 0.5778 0.3383
C78_6 C 0.8245(3) 0.4077(3) 0.3048(4)
H48_6 H 0.8415 0.3858 0.3121
Zn7_4 Zn 0.73059(3) 0.77842(3) 0.69970(3)
Zn12_4 Zn 0.80030(3) 0.26941(3) 0.27842(3)
C53_7 C 0.2297(3) 0.2214(3) 0.8576(3)
C54_7 C 0.2175(3) 0.2109(3) 0.9003(3)
C57_7 C 0.2158(3) 0.2247(3) 0.9731(3)
H34_7 H 0.2228 0.2415 0.9953
C61_7 C 0.1839(3) 0.1656(4) 0.9460(4)
H37_7 H 0.1689 0.1415 0.9501
C62_7 C 0.1935(3) 0.1894(3) 0.9795(3)
C63_7 C 0.2279(3) 0.2354(3) 0.9333(3)
H38_7 H 0.2432 0.2593 0.929
C65_7 C 0.1952(4) 0.1755(3) 0.9077(3)
H40_7 H 0.1879 0.1585 0.8858
C66_7 C 0.2214(3) 0.8576(3) 0.2297(3)
C67_7 C 0.2109(3) 0.9003(3) 0.2175(3)
C70_7 C 0.2247(3) 0.9731(3) 0.2158(3)
H42_7 H 0.2415 0.9953 0.2228
C74_7 C 0.1656(4) 0.9460(4) 0.1839(3)
H45_7 H 0.1415 0.9501 0.1689
C75_7 C 0.1894(3) 0.9795(3) 0.1935(3)
C76_7 C 0.2354(3) 0.9333(3) 0.2279(3)
H46_7 H 0.2593 0.929 0.2432
C78_7 C 0.1755(3) 0.9077(3) 0.1952(4)
H48_7 H 0.1585 0.8858 0.1879
O1_7 O 0.75000(19) 0.16561(17) 0.20378(18)
O2_7 O 0.70304(16) 0.16571(16) 0.25413(17)
O3_7 O 0.75138(15) 0.25138(15) 0.24862(15)
C1_7 C 0.8576(3) 0.2297(3) 0.2214(3)
C2_7 C 0.7212(3) 0.1491(3) 0.2249(3)
O4_7 O 0.82939(18) 0.21986(19) 0.19675(19)
O5_7 O 0.85173(17) 0.2494(2) 0.25424(19)
C9_7 C 0.9003(3) 0.2175(3) 0.2109(3)
C12_7 C 0.6622(3) 0.0500(3) 0.2156(3)
H6_7 H 0.6382 0.0388 0.2268
C13_7 C 0.9731(3) 0.2158(3) 0.2247(3)
H7_7 H 0.9953 0.2228 0.2415
C17_7 C 0.9460(4) 0.1839(3) 0.1656(4)
H10_7 H 0.9501 0.1689 0.1415
C18_7 C 0.9795(3) 0.1935(3) 0.1894(3)
C19_7 C 0.9333(3) 0.2279(3) 0.2354(3)
H11_7 H 0.929 0.2432 0.2593
C20_7 C 0.7077(3) 0.1073(3) 0.2123(3)
C21_7 C 0.6837(3) 0.0277(3) 0.1869(3)
C23_7 C 0.9077(3) 0.1952(4) 0.1755(3)
H13_7 H 0.8858 0.1879 0.1585
C24_7 C 0.7297(3) 0.0861(4) 0.1820(4)
H14_7 H 0.7524 0.0984 0.1694
C25_7 C 0.6746(3) 0.0886(3) 0.2284(3)
H15_7 H 0.6596 0.102 0.2489
C26_7 C 0.7177(4) 0.0466(4) 0.1705(4)
H16_7 H 0.7333 0.0325 0.1509
O15_4 O 0.79622(18) 0.25000(19) 0.33439(17)
O17_4 O 0.74587(17) 0.20304(16) 0.33429(16)
C3_7 C 0.6708(3) 0.9842(4) 0.1748(3)
C4_7 C 0.6471(4) 0.9050(4) 0.1488(4)
C5_7 C 0.6982(6) 0.9552(6) 0.1621(8)
H1_7 H 0.7259 0.9625 0.1603
C6_7 C 0.6872(6) 0.9148(6) 0.1516(8)
H2_7 H 0.7074 0.8951 0.1466
C7_7 C 0.6340(5) 0.9683(4) 0.1810(4)
H3_7 H 0.6137 0.9844 0.1934
C8_7 C 0.6253(5) 0.9312(4) 0.1706(4)
H4_7 H 0.6 0.9214 0.1798
N2_7 N 0.6317(5) 0.8683(5) 0.1317(5)
C27_7 C 0.3509(3) 0.7751(3) 0.2212(3)
C28_7 C 0.5158(4) 0.8252(3) 0.1708(3)
C29_7 C 0.5950(4) 0.8512(4) 0.1471(4)
C30_7 C 0.5448(6) 0.8379(8) 0.1982(6)
H17_7 H 0.5375 0.8397 0.2259
C31_7 C 0.5852(6) 0.8484(8) 0.1872(6)
H18_7 H 0.6049 0.8534 0.2074
C32_7 C 0.5317(4) 0.8190(4) 0.1340(5)
H19_7 H 0.5156 0.8066 0.1137
C33_7 C 0.5688(4) 0.8294(4) 0.1253(5)
H20_7 H 0.5786 0.8202 0.1
C34_7 C 0.4500(3) 0.7844(3) 0.1622(3)
H21_7 H 0.4612 0.7732 0.1382
C35_7 C 0.3927(3) 0.7877(3) 0.2077(3)
C36_7 C 0.4723(3) 0.8131(3) 0.1837(3)
C37_7 C 0.4139(4) 0.8180(4) 0.2297(3)
H22_7 H 0.4016 0.8306 0.2524
C38_7 C 0.4114(3) 0.7716(3) 0.1746(3)
H23_7 H 0.398 0.7511 0.1596
C39_7 C 0.4534(4) 0.8295(4) 0.2177(4)
H24_7 H 0.4675 0.8491 0.2333
C41_7 C 0.6748(3) 0.8292(3) 0.0158(4)
C42_7 C 0.6488(4) 0.8529(4) 0.0950(4)
C43_7 C 0.6621(8) 0.8018(6) 0.0448(6)
H25_7 H 0.6603 0.7741 0.0375
C44_7 C 0.6516(8) 0.8128(6) 0.0852(6)
H26_7 H 0.6466 0.7926 0.1049
C45_7 C 0.6810(4) 0.8660(5) 0.0317(4)
H27_7 H 0.6934 0.8863 0.0156
C46_7 C 0.6706(4) 0.8747(5) 0.0688(4)
H28_7 H 0.6798 0.9 0.0786
O8_4 O 0.70378(18) 0.75000(19) 0.83439(17)
O9_4 O 0.75413(17) 0.79696(16) 0.83429(16)
C40_7 C 0.7249(3) 0.7788(3) 0.8509(3)
C47_7 C 0.7156(3) 0.8378(3) 0.9500(3)
H29_7 H 0.7268 0.8618 0.9612
C48_7 C 0.7123(3) 0.7923(3) 0.8927(3)
C49_7 C 0.6869(3) 0.8163(3) 0.9723(3)
C50_7 C 0.6820(4) 0.7703(3) 0.9139(4)
H30_7 H 0.6694 0.7476 0.9016
C51_7 C 0.7284(3) 0.8254(3) 0.9114(3)
H31_7 H 0.7489 0.8404 0.898
C52_7 C 0.6705(4) 0.7823(4) 0.9534(4)
H32_7 H 0.6509 0.7667 0.9675
C27_8 C 0.1491(3) 0.2249(3) 0.7212(3)
C34_8 C 0.0500(3) 0.2156(3) 0.6622(3)
H21_8 H 0.0388 0.2268 0.6382
C35_8 C 0.1073(3) 0.2123(3) 0.7077(3)
C36_8 C 0.0277(3) 0.1869(3) 0.6837(3)
C37_8 C 0.0861(4) 0.1820(4) 0.7297(3)
H22_8 H 0.0984 0.1694 0.7524
C38_8 C 0.0886(3) 0.2284(3) 0.6746(3)
H23_8 H 0.102 0.2489 0.6596
C39_8 C 0.0466(4) 0.1705(4) 0.7177(4)
H24_8 H 0.0325 0.1509 0.7333
C3_8 C 0.8292(3) 0.0158(4) 0.6748(3)
C4_8 C 0.8529(4) 0.0950(4) 0.6488(4)
C5_8 C 0.8018(6) 0.0448(6) 0.6621(8)
H1_8 H 0.7741 0.0375 0.6603
C6_8 C 0.8128(6) 0.0852(6) 0.6516(8)
H2_8 H 0.7926 0.1049 0.6466
C7_8 C 0.8660(5) 0.0317(4) 0.6810(4)
H3_8 H 0.8863 0.0156 0.6934
C8_8 C 0.8747(5) 0.0688(4) 0.6706(4)
H4_8 H 0.9 0.0786 0.6798
N2_8 N 0.8683(5) 0.1317(5) 0.6317(5)
C28_8 C 0.9842(4) 0.1748(3) 0.6708(3)
C29_8 C 0.9050(4) 0.1488(4) 0.6471(4)
C30_8 C 0.9552(6) 0.1621(8) 0.6982(6)
H17_8 H 0.9625 0.1603 0.7259
C31_8 C 0.9148(6) 0.1516(8) 0.6872(6)
H18_8 H 0.8951 0.1466 0.7074
C32_8 C 0.9683(4) 0.1810(4) 0.6340(5)
H19_8 H 0.9844 0.1934 0.6137
C33_8 C 0.9312(4) 0.1706(4) 0.6253(5)
H20_8 H 0.9214 0.1798 0.6
C40_8 C 0.7751(3) 0.2212(3) 0.3509(3)
C41_8 C 0.8252(3) 0.1708(3) 0.5158(4)
C42_8 C 0.8512(4) 0.1471(4) 0.5950(4)
C43_8 C 0.8379(8) 0.1982(6) 0.5448(6)
H25_8 H 0.8397 0.2259 0.5375
C44_8 C 0.8484(8) 0.1872(6) 0.5852(6)
H26_8 H 0.8534 0.2074 0.6049
C45_8 C 0.8190(4) 0.1340(5) 0.5317(4)
H27_8 H 0.8066 0.1137 0.5156
C46_8 C 0.8294(4) 0.1253(5) 0.5688(4)
H28_8 H 0.8202 0.1 0.5786
C47_8 C 0.7844(3) 0.1622(3) 0.4500(3)
H29_8 H 0.7732 0.1382 0.4612
C48_8 C 0.7877(3) 0.2077(3) 0.3927(3)
C49_8 C 0.8131(3) 0.1837(3) 0.4723(3)
C50_8 C 0.8180(4) 0.2297(3) 0.4139(4)
H30_8 H 0.8306 0.2524 0.4016
C51_8 C 0.7716(3) 0.1746(3) 0.4114(3)
H31_8 H 0.7511 0.1596 0.398
C52_8 C 0.8295(4) 0.2177(4) 0.4534(4)
H32_8 H 0.8491 0.2333 0.4675
C66_8 C 0.2786(3) 0.1424(3) 0.7297(3)
C67_8 C 0.2891(3) 0.0997(3) 0.7175(3)
C70_8 C 0.2753(3) 0.0269(3) 0.7158(3)
H42_8 H 0.2585 0.0047 0.7228
C74_8 C 0.3344(4) 0.0540(4) 0.6839(3)
H45_8 H 0.3585 0.0499 0.6689
C75_8 C 0.3106(3) 0.0205(3) 0.6935(3)
C76_8 C 0.2646(3) 0.0667(3) 0.7279(3)
H46_8 H 0.2407 0.071 0.7432
C78_8 C 0.3245(3) 0.0923(3) 0.6952(4)
H48_8 H 0.3415 0.1142 0.6879
O1_8 O 0.75000(19) 0.83439(17) 0.70378(18)
O2_8 O 0.79696(16) 0.83429(16) 0.75413(17)
O3_8 O 0.74862(15) 0.74862(15) 0.74862(15)
C1_8 C 0.6424(3) 0.7703(3) 0.7214(3)
C2_8 C 0.7788(3) 0.8509(3) 0.7249(3)
O4_8 O 0.67061(18) 0.78014(19) 0.69675(19)
O5_8 O 0.64827(17) 0.7506(2) 0.75424(19)
N1_7 N 0.3579(2) 0.8579(2) 0.6421(2)
C9_8 C 0.5997(3) 0.7825(3) 0.7109(3)
C10_7 C 0.4083(3) 0.8387(3) 0.6947(3)
H5_7 H 0.3883 0.8437 0.7147
C11_7 C 0.3983(3) 0.8437(2) 0.6532(3)
C12_8 C 0.8378(3) 0.9500(3) 0.7156(3)
H6_8 H 0.8618 0.9612 0.7268
C13_8 C 0.5269(3) 0.7842(3) 0.7247(3)
H7_8 H 0.5047 0.7772 0.7415
C14_7 C 0.4779(3) 0.8190(3) 0.6782(3)
C15_7 C 0.4673(3) 0.8240(3) 0.6365(3)
H8_7 H 0.4873 0.8192 0.6166
C16_7 C 0.4467(3) 0.8268(3) 0.7065(3)
H9_7 H 0.4523 0.8236 0.7344
C17_8 C 0.5540(4) 0.8161(3) 0.6656(4)
H10_8 H 0.5499 0.8311 0.6415
C18_8 C 0.5205(3) 0.8065(3) 0.6894(3)
C19_8 C 0.5667(3) 0.7721(3) 0.7354(3)
H11_8 H 0.571 0.7568 0.7593
C20_8 C 0.7923(3) 0.8927(3) 0.7123(3)
C21_8 C 0.8163(3) 0.9723(3) 0.6869(3)
C22_7 C 0.4282(3) 0.8358(3) 0.6238(3)
H12_7 H 0.4222 0.8383 0.5959
C23_8 C 0.5923(3) 0.8048(4) 0.6755(3)
H13_8 H 0.6142 0.8121 0.6585
C24_8 C 0.7703(3) 0.9139(4) 0.6820(4)
H14_8 H 0.7476 0.9016 0.6694
C25_8 C 0.8254(3) 0.9114(3) 0.7284(3)
H15_8 H 0.8404 0.898 0.7489
C26_8 C 0.7823(4) 0.9534(4) 0.6705(4)
H16_8 H 0.7667 0.9675 0.6509
C53_8 C 0.2703(3) 0.7786(3) 0.3576(3)
C54_8 C 0.2825(3) 0.7891(3) 0.4003(3)
C55_7 C 0.3387(3) 0.8053(3) 0.5917(3)
H33_7 H 0.3437 0.7853 0.6117
C56_7 C 0.3437(2) 0.8468(3) 0.6017(3)
C57_8 C 0.2842(3) 0.7753(3) 0.4731(3)
H34_8 H 0.2772 0.7585 0.4953
C58_7 C 0.3190(3) 0.8218(3) 0.5221(3)
C59_7 C 0.3240(3) 0.8635(3) 0.5327(3)
H35_7 H 0.3192 0.8834 0.5127
C60_7 C 0.3268(3) 0.7935(3) 0.5533(3)
H36_7 H 0.3236 0.7656 0.5477
C61_8 C 0.3161(3) 0.8344(4) 0.4460(4)
H37_8 H 0.3311 0.8585 0.4501
C62_8 C 0.3065(3) 0.8106(3) 0.4795(3)
C63_8 C 0.2721(3) 0.7646(3) 0.4333(3)
H38_8 H 0.2568 0.7407 0.429
C64_7 C 0.3358(3) 0.8762(3) 0.5718(3)
H39_7 H 0.3383 0.9041 0.5778
C65_8 C 0.3048(4) 0.8245(3) 0.4077(3)
H40_8 H 0.3121 0.8415 0.3858
C68_7 C 0.3053(3) 0.9083(3) 0.6613(3)
H41_7 H 0.2853 0.8883 0.6563
C69_7 C 0.3468(3) 0.8983(3) 0.6563(2)
C71_7 C 0.3218(3) 0.9779(3) 0.6810(3)
C72_7 C 0.3635(3) 0.9673(3) 0.6760(3)
H43_7 H 0.3834 0.9873 0.6808
C73_7 C 0.2935(3) 0.9467(3) 0.6732(3)
H44_7 H 0.2656 0.9523 0.6764
C77_7 C 0.3762(3) 0.9282(3) 0.6642(3)
H47_7 H 0.4041 0.9222 0.6617
N1_8 N 0.1421(2) 0.1421(2) 0.1421(2)
C10_8 C 0.0917(3) 0.1613(3) 0.1947(3)
H5_8 H 0.1117 0.1563 0.2147
C11_8 C 0.1017(3) 0.1563(2) 0.1532(3)
C14_8 C 0.0221(3) 0.1810(3) 0.1782(3)
C15_8 C 0.0327(3) 0.1760(3) 0.1365(3)
H8_8 H 0.0127 0.1808 0.1166
C16_8 C 0.0533(3) 0.1732(3) 0.2065(3)
H9_8 H 0.0477 0.1764 0.2344
C22_8 C 0.0718(3) 0.1642(3) 0.1238(3)
H12_8 H 0.0778 0.1617 0.0959
C55_8 C 0.1613(3) 0.1947(3) 0.0917(3)
H33_8 H 0.1563 0.2147 0.1117
C56_8 C 0.1563(2) 0.1532(3) 0.1017(3)
C58_8 C 0.1810(3) 0.1782(3) 0.0221(3)
C59_8 C 0.1760(3) 0.1365(3) 0.0327(3)
H35_8 H 0.1808 0.1166 0.0127
C60_8 C 0.1732(3) 0.2065(3) 0.0533(3)
H36_8 H 0.1764 0.2344 0.0477
C64_8 C 0.1642(3) 0.1238(3) 0.0718(3)
H39_8 H 0.1617 0.0959 0.0778
C68_8 C 0.1947(3) 0.0917(3) 0.1613(3)
H41_8 H 0.2147 0.1117 0.1563
C69_8 C 0.1532(3) 0.1017(3) 0.1563(2)
C71_8 C 0.1782(3) 0.0221(3) 0.1810(3)
C72_8 C 0.1365(3) 0.0327(3) 0.1760(3)
H43_8 H 0.1166 0.0127 0.1808
C73_8 C 0.2065(3) 0.0533(3) 0.1732(3)
H44_8 H 0.2344 0.0477 0.1764
C77_8 C 0.1238(3) 0.0718(3) 0.1642(3)
H47_8 H 0.0959 0.0778 0.1617
loop_
_geom_bond_atom_site_label_1
_geom_bond_atom_site_label_2
_geom_bond_site_symmetry_1
_geom_bond_site_symmetry_2
O6 C27 1_555 1_555
O7 C27 1_555 1_555
C27 C35 1_555 1_555
C34 H21 1_555 1_555
C35 C37 1_555 1_555
C37 H22 1_555 1_555
C38 C34 1_555 1_555
H23 C38 1_555 1_555
C39 C36 1_555 1_555
H24 C39 1_555 1_555
Zn6 O7 1_555 1_555
Zn9 O6 1_555 1_555
C34 C36 1_555 1_555
C35 C38 1_555 1_555
C37 C39 1_555 1_555
Zn1 O2 1_555 1_555
O1 C2 1_555 1_555
O2 C2 1_555 1_555
O3 Zn1 1_555 1_555
C1 O4 1_555 1_555
C2 C20 1_555 1_555
O4 Zn2 1_555 1_555
O5 C1 1_555 1_555
C3 C5 1_555 1_555
C4 C6 1_555 1_555
C5 H1 1_555 1_555
C6 C5 1_555 1_555
H2 C6 1_555 1_555
C7 C3 1_555 1_555
H3 C7 1_555 1_555
C8 C4 1_555 1_555
H4 C8 1_555 1_555
Zn2 O1 1_555 1_555
N1 C11 1_555 1_555
C9 C1 1_555 1_555
C10 H5 1_555 1_555
C11 C10 1_555 1_555
N2 C4 1_555 1_555
C12 H6 1_555 1_555
C13 H7 1_555 1_555
C14 C15 1_555 1_555
C15 H8 1_555 1_555
C16 C10 1_555 1_555
H9 C16 1_555 1_555
C17 H10 1_555 1_555
C18 C13 1_555 1_555
C19 C9 1_555 1_555
H11 C19 1_555 1_555
C20 C24 1_555 1_555
C21 C3 1_555 1_555
C22 C11 1_555 1_555
H12 C22 1_555 1_555
C23 C9 1_555 1_555
H13 C23 1_555 1_555
C24 H14 1_555 1_555
C25 C12 1_555 1_555
H15 C25 1_555 1_555
C26 C21 1_555 1_555
H16 C26 1_555 1_555
C28 C30 1_555 1_555
C29 N2 1_555 1_555
C30 H17 1_555 1_555
C31 C29 1_555 1_555
H18 C31 1_555 1_555
C32 C28 1_555 1_555
H19 C32 1_555 1_555
C33 C29 1_555 1_555
H20 C33 1_555 1_555
C41 C43 1_555 1_555
C42 N2 1_555 1_555
C43 H25 1_555 1_555
C44 C42 1_555 1_555
H26 C44 1_555 1_555
C45 C41 1_555 1_555
H27 C45 1_555 1_555
C46 C42 1_555 1_555
H28 C46 1_555 1_555
C55 H33 1_555 1_555
C56 N1 1_555 1_555
C58 C59 1_555 1_555
C59 H35 1_555 1_555
C60 C55 1_555 1_555
H36 C60 1_555 1_555
C64 C56 1_555 1_555
H39 C64 1_555 1_555
C66 O12 1_555 1_555
O12 Zn12 1_555 1_555
O13 C66 1_555 1_555
C67 C66 1_555 1_555
C68 H41 1_555 1_555
C69 N1 1_555 1_555
C70 H42 1_555 1_555
C71 C72 1_555 1_555
C72 H43 1_555 1_555
C73 C68 1_555 1_555
H44 C73 1_555 1_555
C74 H45 1_555 1_555
C75 C70 1_555 1_555
C76 C67 1_555 1_555
H46 C76 1_555 1_555
C77 C69 1_555 1_555
H47 C77 1_555 1_555
C78 C67 1_555 1_555
H48 C78 1_555 1_555
Zn3 O3 1_555 1_555
Zn4 O3 1_555 1_555
O14 Zn3 1_555 1_555
O15 Zn4 1_555 1_555
O16 Zn1 1_555 1_555
O17 Zn1 1_555 1_555
O18 Zn3 1_555 1_555
O19 Zn4 1_555 1_555
O20 Zn2 1_555 1_555
O21 Zn3 1_555 1_555
Zn9 O13 1_555 1_555
O3 Zn2 1_555 1_555
O5 Zn4 1_555 1_555
C7 C8 1_555 1_555
C12 C21 1_555 1_555
C13 C19 1_555 1_555
C14 C16 1_555 1_555
C14 C18 1_555 1_555
C15 C22 1_555 1_555
C17 C18 1_555 1_555
C17 C23 1_555 1_555
C20 C25 1_555 1_555
C24 C26 1_555 1_555
C30 C31 1_555 1_555
C32 C33 1_555 1_555
C43 C44 1_555 1_555
C45 C46 1_555 1_555
C55 C56 1_555 1_555
C58 C60 1_555 1_555
C59 C64 1_555 1_555
C68 C69 1_555 1_555
C70 C76 1_555 1_555
C71 C73 1_555 1_555
C71 C75 1_555 1_555
C72 C77 1_555 1_555
C74 C75 1_555 1_555
C74 C78 1_555 1_555
O8 C40 1_555 1_555
O9 C40 1_555 1_555
C40 C48 1_555 1_555
C47 H29 1_555 1_555
C48 C50 1_555 1_555
C50 H30 1_555 1_555
C51 C47 1_555 1_555
H31 C51 1_555 1_555
C52 C49 1_555 1_555
H32 C52 1_555 1_555
C53 O10 1_555 1_555
O10 Zn10 1_555 1_555
O11 C53 1_555 1_555
C54 C53 1_555 1_555
C57 H34 1_555 1_555
C61 H37 1_555 1_555
C62 C57 1_555 1_555
C63 C54 1_555 1_555
H38 C63 1_555 1_555
C65 C54 1_555 1_555
H40 C65 1_555 1_555
Zn5 O9 1_555 1_555
Zn7 O11 1_555 1_555
Zn11 O8 1_555 1_555
C47 C49 1_555 1_555
C48 C51 1_555 1_555
C50 C52 1_555 1_555
C57 C63 1_555 1_555
C61 C62 1_555 1_555
C61 C65 1_555 1_555
N1_2 C11_2 1_555 1_555
C10_2 H5_2 1_555 1_555
C11_2 C10_2 1_555 1_555
C14_2 C15_2 1_555 1_555
C15_2 H8_2 1_555 1_555
C16_2 C10_2 1_555 1_555
H9_2 C16_2 1_555 1_555
C22_2 C11_2 1_555 1_555
H12_2 C22_2 1_555 1_555
C53_2 O10_2 1_555 1_555
O10_2 Zn9 1_555 1_555
O11_2 C53_2 1_555 1_555
C54_2 C53_2 1_555 1_555
C55_2 H33_2 1_555 1_555
C56_2 N1_2 1_555 1_555
C57_2 H34_2 1_555 1_555
C58_2 C59_2 1_555 1_555
C59_2 H35_2 1_555 1_555
C60_2 C55_2 1_555 1_555
H36_2 C60_2 1_555 1_555
C61_2 H37_2 1_555 1_555
C62_2 C57_2 1_555 1_555
C63_2 C54_2 1_555 1_555
H38_2 C63_2 1_555 1_555
C64_2 C56_2 1_555 1_555
H39_2 C64_2 1_555 1_555
C65_2 C54_2 1_555 1_555
H40_2 C65_2 1_555 1_555
C66_2 O12_2 1_555 1_555
O12_2 Zn12_2 1_555 1_555
O13_2 C66_2 1_555 1_555
C67_2 C66_2 1_555 1_555
C68_2 H41_2 1_555 1_555
C69_2 N1_2 1_555 1_555
C70_2 H42_2 1_555 1_555
C71_2 C72_2 1_555 1_555
C72_2 H43_2 1_555 1_555
C73_2 C68_2 1_555 1_555
H44_2 C73_2 1_555 1_555
C74_2 H45_2 1_555 1_555
C75_2 C70_2 1_555 1_555
C76_2 C67_2 1_555 1_555
H46_2 C76_2 1_555 1_555
C77_2 C69_2 1_555 1_555
H47_2 C77_2 1_555 1_555
C78_2 C67_2 1_555 1_555
H48_2 C78_2 1_555 1_555
Zn7_2 O11_2 1_555 1_555
Zn10 O13_2 1_555 1_555
C14_2 C16_2 1_555 1_555
C15_2 C22_2 1_555 1_555
C55_2 C56_2 1_555 1_555
C57_2 C63_2 1_555 1_555
C58_2 C60_2 1_555 1_555
C58_2 C62_2 1_555 1_555
C59_2 C64_2 1_555 1_555
C61_2 C62_2 1_555 1_555
C61_2 C65_2 1_555 1_555
C68_2 C69_2 1_555 1_555
C70_2 C76_2 1_555 1_555
C71_2 C73_2 1_555 1_555
C71_2 C75_2 1_555 1_555
C72_2 C77_2 1_555 1_555
C74_2 C75_2 1_555 1_555
C74_2 C78_2 1_555 1_555
Zn5 O2_2 1_555 1_555
O1_2 C2_2 1_555 1_555
O2_2 C2_2 1_555 1_555
O3_2 Zn5 1_555 1_555
C1_2 O4_2 1_555 1_555
C2_2 C20_2 1_555 1_555
O4_2 Zn2_2 1_555 1_555
O5_2 C1_2 1_555 1_555
C3_2 C5_2 1_555 1_555
C4_2 C6_2 1_555 1_555
C5_2 H1_2 1_555 1_555
C6_2 C5_2 1_555 1_555
H2_2 C6_2 1_555 1_555
C7_2 C3_2 1_555 1_555
H3_2 C7_2 1_555 1_555
C8_2 C4_2 1_555 1_555
H4_2 C8_2 1_555 1_555
Zn2_2 O1_2 1_555 1_555
C9_2 C1_2 1_555 1_555
N2_2 C4_2 1_555 1_555
C12_2 H6_2 1_555 1_555
C13_2 H7_2 1_555 1_555
C17_2 H10_2 1_555 1_555
C18_2 C13_2 1_555 1_555
C19_2 C9_2 1_555 1_555
H11_2 C19_2 1_555 1_555
C20_2 C24_2 1_555 1_555
C21_2 C3_2 1_555 1_555
C23_2 C9_2 1_555 1_555
H13_2 C23_2 1_555 1_555
C24_2 H14_2 1_555 1_555
C25_2 C12_2 1_555 1_555
H15_2 C25_2 1_555 1_555
C26_2 C21_2 1_555 1_555
H16_2 C26_2 1_555 1_555
O6_2 C27_2 1_555 1_555
O7_2 C27_2 1_555 1_555
C27_2 C35_2 1_555 1_555
C28_2 C30_2 1_555 1_555
C29_2 N2_2 1_555 1_555
C30_2 H17_2 1_555 1_555
C31_2 C29_2 1_555 1_555
H18_2 C31_2 1_555 1_555
C32_2 C28_2 1_555 1_555
H19_2 C32_2 1_555 1_555
C33_2 C29_2 1_555 1_555
H20_2 C33_2 1_555 1_555
C34_2 H21_2 1_555 1_555
C35_2 C37_2 1_555 1_555
C36_2 C28_2 1_555 1_555
C37_2 H22_2 1_555 1_555
C38_2 C34_2 1_555 1_555
H23_2 C38_2 1_555 1_555
C39_2 C36_2 1_555 1_555
H24_2 C39_2 1_555 1_555
O15 C40_2 1_555 1_555
O17 C40_2 1_555 1_555
C40_2 C48_2 1_555 1_555
C41_2 C43_2 1_555 1_555
C42_2 N2_2 1_555 1_555
C43_2 H25_2 1_555 1_555
C44_2 C42_2 1_555 1_555
H26_2 C44_2 1_555 1_555
C45_2 C41_2 1_555 1_555
H27_2 C45_2 1_555 1_555
C46_2 C42_2 1_555 1_555
H28_2 C46_2 1_555 1_555
C47_2 H29_2 1_555 1_555
C48_2 C50_2 1_555 1_555
C49_2 C41_2 1_555 1_555
C50_2 H30_2 1_555 1_555
C51_2 C47_2 1_555 1_555
H31_2 C51_2 1_555 1_555
C52_2 C49_2 1_555 1_555
H32_2 C52_2 1_555 1_555
Zn3_2 O3_2 1_555 1_555
Zn11 O3_2 1_555 1_555
Zn6_2 O7_2 1_555 1_555
O14_2 Zn3_2 1_555 1_555
O16_2 Zn5 1_555 1_555
O18_2 Zn3_2 1_555 1_555
O19_2 Zn11 1_555 1_555
O20_2 Zn2_2 1_555 1_555
O21_2 Zn3_2 1_555 1_555
Zn10 O6_2 1_555 1_555
O3_2 Zn2_2 1_555 1_555
O5_2 Zn11 1_555 1_555
C7_2 C8_2 1_555 1_555
C12_2 C21_2 1_555 1_555
C13_2 C19_2 1_555 1_555
C17_2 C18_2 1_555 1_555
C17_2 C23_2 1_555 1_555
C20_2 C25_2 1_555 1_555
C24_2 C26_2 1_555 1_555
C30_2 C31_2 1_555 1_555
C32_2 C33_2 1_555 1_555
C34_2 C36_2 1_555 1_555
C35_2 C38_2 1_555 1_555
C37_2 C39_2 1_555 1_555
C43_2 C44_2 1_555 1_555
C45_2 C46_2 1_555 1_555
C47_2 C49_2 1_555 1_555
C48_2 C51_2 1_555 1_555
C50_2 C52_2 1_555 1_555
O8_2 C40_3 1_555 1_555
O9_2 C40_3 1_555 1_555
C40_3 C48_3 1_555 1_555
C47_3 H29_3 1_555 1_555
C48_3 C50_3 1_555 1_555
C50_3 H30_3 1_555 1_555
C51_3 C47_3 1_555 1_555
H31_3 C51_3 1_555 1_555
C52_3 C49_3 1_555 1_555
H32_3 C52_3 1_555 1_555
Zn6 O9_2 1_555 1_555
Zn12 O8_2 1_555 1_555
C47_3 C49_3 1_555 1_555
C48_3 C51_3 1_555 1_555
C50_3 C52_3 1_555 1_555
C3_3 C5_3 1_555 1_555
C4_3 C6_3 1_555 1_555
C5_3 H1_3 1_555 1_555
C6_3 C5_3 1_555 1_555
H2_3 C6_3 1_555 1_555
C7_3 C3_3 1_555 1_555
H3_3 C7_3 1_555 1_555
C8_3 C4_3 1_555 1_555
H4_3 C8_3 1_555 1_555
N2_3 C4_3 1_555 1_555
O14_2 C27_3 1_555 1_555
O16_2 C27_3 1_555 1_555
C27_3 C35_3 1_555 1_555
C28_3 C30_3 1_555 1_555
C29_3 N2_3 1_555 1_555
C30_3 H17_3 1_555 1_555
C31_3 C29_3 1_555 1_555
H18_3 C31_3 1_555 1_555
C32_3 C28_3 1_555 1_555
H19_3 C32_3 1_555 1_555
C33_3 C29_3 1_555 1_555
H20_3 C33_3 1_555 1_555
C34_3 H21_3 1_555 1_555
C35_3 C37_3 1_555 1_555
C36_3 C28_3 1_555 1_555
C37_3 H22_3 1_555 1_555
C38_3 C34_3 1_555 1_555
H23_3 C38_3 1_555 1_555
C39_3 C36_3 1_555 1_555
H24_3 C39_3 1_555 1_555
C41_3 C43_3 1_555 1_555
C42_3 N2_3 1_555 1_555
C43_3 H25_3 1_555 1_555
C44_3 C42_3 1_555 1_555
H26_3 C44_3 1_555 1_555
C45_3 C41_3 1_555 1_555
H27_3 C45_3 1_555 1_555
C46_3 C42_3 1_555 1_555
H28_3 C46_3 1_555 1_555
C7_3 C8_3 1_555 1_555
C30_3 C31_3 1_555 1_555
C32_3 C33_3 1_555 1_555
C34_3 C36_3 1_555 1_555
C35_3 C38_3 1_555 1_555
C37_3 C39_3 1_555 1_555
C43_3 C44_3 1_555 1_555
C45_3 C46_3 1_555 1_555
Zn6_2 O2_3 1_555 1_555
O1_3 C2_3 1_555 1_555
O2_3 C2_3 1_555 1_555
O3_3 Zn6_2 1_555 1_555
C1_3 O4_3 1_555 1_555
C2_3 C20_3 1_555 1_555
O4_3 Zn7 1_555 1_555
O5_3 C1_3 1_555 1_555
Zn7 O1_3 1_555 1_555
C9_3 C1_3 1_555 1_555
C12_3 H6_3 1_555 1_555
C13_3 H7_3 1_555 1_555
C17_3 H10_3 1_555 1_555
C18_3 C13_3 1_555 1_555
C19_3 C9_3 1_555 1_555
H11_3 C19_3 1_555 1_555
C20_3 C24_3 1_555 1_555
C23_3 C9_3 1_555 1_555
H13_3 C23_3 1_555 1_555
C24_3 H14_3 1_555 1_555
C25_3 C12_3 1_555 1_555
H15_3 C25_3 1_555 1_555
C26_3 C21_3 1_555 1_555
H16_3 C26_3 1_555 1_555
Zn10 O3_3 1_555 1_555
Zn12_2 O3_3 1_555 1_555
O15_2 Zn12_2 1_555 1_555
O17_2 Zn6_2 1_555 1_555
O3_3 Zn7 1_555 1_555
O5_3 Zn12_2 1_555 1_555
C12_3 C21_3 1_555 1_555
C13_3 C19_3 1_555 1_555
C17_3 C18_3 1_555 1_555
C17_3 C23_3 1_555 1_555
C20_3 C25_3 1_555 1_555
C24_3 C26_3 1_555 1_555
C66_3 O19_2 1_555 1_555
O21_2 C66_3 1_555 1_555
C67_3 C66_3 1_555 1_555
C70_3 H42_3 1_555 1_555
C74_3 H45_3 1_555 1_555
C75_3 C70_3 1_555 1_555
C76_3 C67_3 1_555 1_555
H46_3 C76_3 1_555 1_555
C78_3 C67_3 1_555 1_555
H48_3 C78_3 1_555 1_555
C70_3 C76_3 1_555 1_555
C74_3 C75_3 1_555 1_555
C74_3 C78_3 1_555 1_555
C53_3 O18 1_555 1_555
O20 C53_3 1_555 1_555
C54_3 C53_3 1_555 1_555
C57_3 H34_3 1_555 1_555
C61_3 H37_3 1_555 1_555
C62_3 C57_3 1_555 1_555
C63_3 C54_3 1_555 1_555
H38_3 C63_3 1_555 1_555
C65_3 C54_3 1_555 1_555
H40_3 C65_3 1_555 1_555
C57_3 C63_3 1_555 1_555
C61_3 C62_3 1_555 1_555
C61_3 C65_3 1_555 1_555
Zn6 O2_4 1_555 1_555
O1_4 C2_4 1_555 1_555
O2_4 C2_4 1_555 1_555
O3_4 Zn6 1_555 1_555
C1_4 O4_4 1_555 1_555
C2_4 C20_4 1_555 1_555
O4_4 Zn7_2 1_555 1_555
O5_4 C1_4 1_555 1_555
Zn7_2 O1_4 1_555 1_555
N1_3 C11_3 1_555 1_555
C9_4 C1_4 1_555 1_555
C10_3 H5_3 1_555 1_555
C11_3 C10_3 1_555 1_555
C12_4 H6_4 1_555 1_555
C13_4 H7_4 1_555 1_555
C14_3 C15_3 1_555 1_555
C15_3 H8_3 1_555 1_555
C16_3 C10_3 1_555 1_555
H9_3 C16_3 1_555 1_555
C17_4 H10_4 1_555 1_555
C18_4 C13_4 1_555 1_555
C19_4 C9_4 1_555 1_555
H11_4 C19_4 1_555 1_555
C20_4 C24_4 1_555 1_555
C22_3 C11_3 1_555 1_555
H12_3 C22_3 1_555 1_555
C23_4 C9_4 1_555 1_555
H13_4 C23_4 1_555 1_555
C24_4 H14_4 1_555 1_555
C25_4 C12_4 1_555 1_555
H15_4 C25_4 1_555 1_555
C26_4 C21_4 1_555 1_555
H16_4 C26_4 1_555 1_555
C53_4 O18_2 1_555 1_555
O20_2 C53_4 1_555 1_555
C54_4 C53_4 1_555 1_555
C55_3 H33_3 1_555 1_555
C56_3 N1_3 1_555 1_555
C57_4 H34_4 1_555 1_555
C58_3 C59_3 1_555 1_555
C59_3 H35_3 1_555 1_555
C60_3 C55_3 1_555 1_555
H36_3 C60_3 1_555 1_555
C61_4 H37_4 1_555 1_555
C62_4 C57_4 1_555 1_555
C63_4 C54_4 1_555 1_555
H38_4 C63_4 1_555 1_555
C64_3 C56_3 1_555 1_555
H39_3 C64_3 1_555 1_555
C65_4 C54_4 1_555 1_555
H40_4 C65_4 1_555 1_555
C68_3 H41_3 1_555 1_555
C69_3 N1_3 1_555 1_555
C71_3 C72_3 1_555 1_555
C72_3 H43_3 1_555 1_555
C73_3 C68_3 1_555 1_555
H44_3 C73_3 1_555 1_555
C77_3 C69_3 1_555 1_555
H47_3 C77_3 1_555 1_555
Zn9 O3_4 1_555 1_555
Zn12 O3_4 1_555 1_555
O3_4 Zn7_2 1_555 1_555
O5_4 Zn12 1_555 1_555
C12_4 C21_4 1_555 1_555
C13_4 C19_4 1_555 1_555
C14_3 C16_3 1_555 1_555
C14_3 C18_4 1_555 1_555
C15_3 C22_3 1_555 1_555
C17_4 C18_4 1_555 1_555
C17_4 C23_4 1_555 1_555
C20_4 C25_4 1_555 1_555
C24_4 C26_4 1_555 1_555
C55_3 C56_3 1_555 1_555
C57_4 C63_4 1_555 1_555
C58_3 C60_3 1_555 1_555
C58_3 C62_4 1_555 1_555
C59_3 C64_3 1_555 1_555
C61_4 C62_4 1_555 1_555
C61_4 C65_4 1_555 1_555
C68_3 C69_3 1_555 1_555
C71_3 C73_3 1_555 1_555
C72_3 C77_3 1_555 1_555
C3_4 C5_4 1_555 1_555
C4_4 C6_4 1_555 1_555
C5_4 H1_4 1_555 1_555
C6_4 C5_4 1_555 1_555
H2_4 C6_4 1_555 1_555
C7_4 C3_4 1_555 1_555
H3_4 C7_4 1_555 1_555
C8_4 C4_4 1_555 1_555
H4_4 C8_4 1_555 1_555
N2_4 C4_4 1_555 1_555
C28_4 C30_4 1_555 1_555
C29_4 N2_4 1_555 1_555
C30_4 H17_4 1_555 1_555
C31_4 C29_4 1_555 1_555
H18_4 C31_4 1_555 1_555
C32_4 C28_4 1_555 1_555
H19_4 C32_4 1_555 1_555
C33_4 C29_4 1_555 1_555
H20_4 C33_4 1_555 1_555
O15_2 C40_4 1_555 1_555
O17_2 C40_4 1_555 1_555
C40_4 C48_4 1_555 1_555
C41_4 C43_4 1_555 1_555
C42_4 N2_4 1_555 1_555
C43_4 H25_4 1_555 1_555
C44_4 C42_4 1_555 1_555
H26_4 C44_4 1_555 1_555
C45_4 C41_4 1_555 1_555
H27_4 C45_4 1_555 1_555
C46_4 C42_4 1_555 1_555
H28_4 C46_4 1_555 1_555
C47_4 H29_4 1_555 1_555
C48_4 C50_4 1_555 1_555
C49_4 C41_4 1_555 1_555
C50_4 H30_4 1_555 1_555
C51_4 C47_4 1_555 1_555
H31_4 C51_4 1_555 1_555
C52_4 C49_4 1_555 1_555
H32_4 C52_4 1_555 1_555
C66_4 O19 1_555 1_555
O21 C66_4 1_555 1_555
C67_4 C66_4 1_555 1_555
C70_4 H42_4 1_555 1_555
C74_4 H45_4 1_555 1_555
C75_4 C70_4 1_555 1_555
C76_4 C67_4 1_555 1_555
H46_4 C76_4 1_555 1_555
C78_4 C67_4 1_555 1_555
H48_4 C78_4 1_555 1_555
C7_4 C8_4 1_555 1_555
C30_4 C31_4 1_555 1_555
C32_4 C33_4 1_555 1_555
C43_4 C44_4 1_555 1_555
C45_4 C46_4 1_555 1_555
C47_4 C49_4 1_555 1_555
C48_4 C51_4 1_555 1_555
C50_4 C52_4 1_555 1_555
C70_4 C76_4 1_555 1_555
C74_4 C75_4 1_555 1_555
C74_4 C78_4 1_555 1_555
O14 C27_4 1_555 1_555
O16 C27_4 1_555 1_555
C27_4 C35_4 1_555 1_555
C34_4 H21_4 1_555 1_555
C35_4 C37_4 1_555 1_555
C37_4 H22_4 1_555 1_555
C38_4 C34_4 1_555 1_555
H23_4 C38_4 1_555 1_555
C39_4 C36_4 1_555 1_555
H24_4 C39_4 1_555 1_555
C34_4 C36_4 1_555 1_555
C35_4 C38_4 1_555 1_555
C37_4 C39_4 1_555 1_555
N1_4 C11_4 1_555 1_555
C10_4 H5_4 1_555 1_555
C11_4 C10_4 1_555 1_555
C14_4 C15_4 1_555 1_555
C15_4 H8_4 1_555 1_555
C16_4 C10_4 1_555 1_555
H9_4 C16_4 1_555 1_555
C22_4 C11_4 1_555 1_555
H12_4 C22_4 1_555 1_555
C55_4 H33_4 1_555 1_555
C56_4 N1_4 1_555 1_555
C58_4 C59_4 1_555 1_555
C59_4 H35_4 1_555 1_555
C60_4 C55_4 1_555 1_555
H36_4 C60_4 1_555 1_555
C64_4 C56_4 1_555 1_555
H39_4 C64_4 1_555 1_555
C68_4 H41_4 1_555 1_555
C69_4 N1_4 1_555 1_555
C71_4 C72_4 1_555 1_555
C72_4 H43_4 1_555 1_555
C73_4 C68_4 1_555 1_555
H44_4 C73_4 1_555 1_555
C77_4 C69_4 1_555 1_555
H47_4 C77_4 1_555 1_555
C14_4 C16_4 1_555 1_555
C15_4 C22_4 1_555 1_555
C55_4 C56_4 1_555 1_555
C58_4 C60_4 1_555 1_555
C59_4 C64_4 1_555 1_555
C68_4 C69_4 1_555 1_555
C71_4 C73_4 1_555 1_555
C72_4 C77_4 1_555 1_555
O8_3 C40_5 1_555 1_555
O9_3 C40_5 1_555 1_555
C40_5 C48_5 1_555 1_555
C47_5 H29_5 1_555 1_555
C48_5 C50_5 1_555 1_555
C50_5 H30_5 1_555 1_555
C51_5 C47_5 1_555 1_555
H31_5 C51_5 1_555 1_555
C52_5 C49_5 1_555 1_555
H32_5 C52_5 1_555 1_555
C53_5 O10_3 1_555 1_555
O10_3 Zn10_2 1_555 1_555
O11_3 C53_5 1_555 1_555
C54_5 C53_5 1_555 1_555
C57_5 H34_5 1_555 1_555
C61_5 H37_5 1_555 1_555
C62_5 C57_5 1_555 1_555
C63_5 C54_5 1_555 1_555
H38_5 C63_5 1_555 1_555
C65_5 C54_5 1_555 1_555
H40_5 C65_5 1_555 1_555
Zn5_2 O9_3 1_555 1_555
Zn7_3 O11_3 1_555 1_555
Zn11_2 O8_3 1_555 1_555
C47_5 C49_5 1_555 1_555
C48_5 C51_5 1_555 1_555
C50_5 C52_5 1_555 1_555
C57_5 C63_5 1_555 1_555
C61_5 C62_5 1_555 1_555
C61_5 C65_5 1_555 1_555
Zn1_2 O2_5 1_555 1_555
O1_5 C2_5 1_555 1_555
O2_5 C2_5 1_555 1_555
O3_5 Zn1_2 1_555 1_555
C1_5 O4_5 1_555 1_555
C2_5 C20_5 1_555 1_555
O4_5 Zn2_3 1_555 1_555
O5_5 C1_5 1_555 1_555
C3_5 C5_5 1_555 1_555
C4_5 C6_5 1_555 1_555
C5_5 H1_5 1_555 1_555
C6_5 C5_5 1_555 1_555
H2_5 C6_5 1_555 1_555
C7_5 C3_5 1_555 1_555
H3_5 C7_5 1_555 1_555
C8_5 C4_5 1_555 1_555
H4_5 C8_5 1_555 1_555
Zn2_3 O1_5 1_555 1_555
N1_5 C11_5 1_555 1_555
C9_5 C1_5 1_555 1_555
C10_5 H5_5 1_555 1_555
C11_5 C10_5 1_555 1_555
N2_5 C4_5 1_555 1_555
C12_5 H6_5 1_555 1_555
C13_5 H7_5 1_555 1_555
C14_5 C15_5 1_555 1_555
C15_5 H8_5 1_555 1_555
C16_5 C10_5 1_555 1_555
H9_5 C16_5 1_555 1_555
C17_5 H10_5 1_555 1_555
C18_5 C13_5 1_555 1_555
C19_5 C9_5 1_555 1_555
H11_5 C19_5 1_555 1_555
C20_5 C24_5 1_555 1_555
C21_5 C3_5 1_555 1_555
C22_5 C11_5 1_555 1_555
H12_5 C22_5 1_555 1_555
C23_5 C9_5 1_555 1_555
H13_5 C23_5 1_555 1_555
C24_5 H14_5 1_555 1_555
C25_5 C12_5 1_555 1_555
H15_5 C25_5 1_555 1_555
C26_5 C21_5 1_555 1_555
H16_5 C26_5 1_555 1_555
C28_5 C30_5 1_555 1_555
C29_5 N2_5 1_555 1_555
C30_5 H17_5 1_555 1_555
C31_5 C29_5 1_555 1_555
H18_5 C31_5 1_555 1_555
C32_5 C28_5 1_555 1_555
H19_5 C32_5 1_555 1_555
C33_5 C29_5 1_555 1_555
H20_5 C33_5 1_555 1_555
C41_5 C43_5 1_555 1_555
C42_5 N2_5 1_555 1_555
C43_5 H25_5 1_555 1_555
C44_5 C42_5 1_555 1_555
H26_5 C44_5 1_555 1_555
C45_5 C41_5 1_555 1_555
H27_5 C45_5 1_555 1_555
C46_5 C42_5 1_555 1_555
H28_5 C46_5 1_555 1_555
C55_5 H33_5 1_555 1_555
C56_5 N1_5 1_555 1_555
C58_5 C59_5 1_555 1_555
C59_5 H35_5 1_555 1_555
C60_5 C55_5 1_555 1_555
H36_5 C60_5 1_555 1_555
C64_5 C56_5 1_555 1_555
H39_5 C64_5 1_555 1_555
C66_5 O12_3 1_555 1_555
O12_3 Zn12_3 1_555 1_555
O13_3 C66_5 1_555 1_555
C67_5 C66_5 1_555 1_555
C68_5 H41_5 1_555 1_555
C69_5 N1_5 1_555 1_555
C70_5 H42_5 1_555 1_555
C71_5 C72_5 1_555 1_555
C72_5 H43_5 1_555 1_555
C73_5 C68_5 1_555 1_555
H44_5 C73_5 1_555 1_555
C74_5 H45_5 1_555 1_555
C75_5 C70_5 1_555 1_555
C76_5 C67_5 1_555 1_555
H46_5 C76_5 1_555 1_555
C77_5 C69_5 1_555 1_555
H47_5 C77_5 1_555 1_555
C78_5 C67_5 1_555 1_555
H48_5 C78_5 1_555 1_555
Zn3_3 O3_5 1_555 1_555
Zn4_2 O3_5 1_555 1_555
O14_3 Zn3_3 1_555 1_555
O15_3 Zn4_2 1_555 1_555
O16_3 Zn1_2 1_555 1_555
O17_3 Zn1_2 1_555 1_555
O18_3 Zn3_3 1_555 1_555
O19_3 Zn4_2 1_555 1_555
O20_3 Zn2_3 1_555 1_555
O21_3 Zn3_3 1_555 1_555
Zn8 O13_3 1_555 1_555
O3_5 Zn2_3 1_555 1_555
O5_5 Zn4_2 1_555 1_555
C7_5 C8_5 1_555 1_555
C12_5 C21_5 1_555 1_555
C13_5 C19_5 1_555 1_555
C14_5 C16_5 1_555 1_555
C14_5 C18_5 1_555 1_555
C15_5 C22_5 1_555 1_555
C17_5 C18_5 1_555 1_555
C17_5 C23_5 1_555 1_555
C20_5 C25_5 1_555 1_555
C24_5 C26_5 1_555 1_555
C30_5 C31_5 1_555 1_555
C32_5 C33_5 1_555 1_555
C43_5 C44_5 1_555 1_555
C45_5 C46_5 1_555 1_555
C55_5 C56_5 1_555 1_555
C58_5 C60_5 1_555 1_555
C59_5 C64_5 1_555 1_555
C68_5 C69_5 1_555 1_555
C70_5 C76_5 1_555 1_555
C71_5 C73_5 1_555 1_555
C71_5 C75_5 1_555 1_555
C72_5 C77_5 1_555 1_555
C74_5 C75_5 1_555 1_555
C74_5 C78_5 1_555 1_555
O6_3 C27_5 1_555 1_555
O7_3 C27_5 1_555 1_555
C27_5 C35_5 1_555 1_555
C34_5 H21_5 1_555 1_555
C35_5 C37_5 1_555 1_555
C37_5 H22_5 1_555 1_555
C38_5 C34_5 1_555 1_555
H23_5 C38_5 1_555 1_555
C39_5 C36_5 1_555 1_555
H24_5 C39_5 1_555 1_555
Zn6_3 O7_3 1_555 1_555
Zn8 O6_3 1_555 1_555
C34_5 C36_5 1_555 1_555
C35_5 C38_5 1_555 1_555
C37_5 C39_5 1_555 1_555
Zn5_2 O2_6 1_555 1_555
O1_6 C2_6 1_555 1_555
O2_6 C2_6 1_555 1_555
O3_6 Zn5_2 1_555 1_555
C1_6 O4_6 1_555 1_555
C2_6 C20_6 1_555 1_555
O4_6 Zn2_4 1_555 1_555
O5_6 C1_6 1_555 1_555
C3_6 C5_6 1_555 1_555
C4_6 C6_6 1_555 1_555
C5_6 H1_6 1_555 1_555
C6_6 C5_6 1_555 1_555
H2_6 C6_6 1_555 1_555
C7_6 C3_6 1_555 1_555
H3_6 C7_6 1_555 1_555
C8_6 C4_6 1_555 1_555
H4_6 C8_6 1_555 1_555
Zn2_4 O1_6 1_555 1_555
C9_6 C1_6 1_555 1_555
N2_6 C4_6 1_555 1_555
C12_6 H6_6 1_555 1_555
C13_6 H7_6 1_555 1_555
C17_6 H10_6 1_555 1_555
C18_6 C13_6 1_555 1_555
C19_6 C9_6 1_555 1_555
H11_6 C19_6 1_555 1_555
C20_6 C24_6 1_555 1_555
C21_6 C3_6 1_555 1_555
C23_6 C9_6 1_555 1_555
H13_6 C23_6 1_555 1_555
C24_6 H14_6 1_555 1_555
C25_6 C12_6 1_555 1_555
H15_6 C25_6 1_555 1_555
C26_6 C21_6 1_555 1_555
H16_6 C26_6 1_555 1_555
O6_4 C27_6 1_555 1_555
O7_4 C27_6 1_555 1_555
C27_6 C35_6 1_555 1_555
C28_6 C30_6 1_555 1_555
C29_6 N2_6 1_555 1_555
C30_6 H17_6 1_555 1_555
C31_6 C29_6 1_555 1_555
H18_6 C31_6 1_555 1_555
C32_6 C28_6 1_555 1_555
H19_6 C32_6 1_555 1_555
C33_6 C29_6 1_555 1_555
H20_6 C33_6 1_555 1_555
C34_6 H21_6 1_555 1_555
C35_6 C37_6 1_555 1_555
C36_6 C28_6 1_555 1_555
C37_6 H22_6 1_555 1_555
C38_6 C34_6 1_555 1_555
H23_6 C38_6 1_555 1_555
C39_6 C36_6 1_555 1_555
H24_6 C39_6 1_555 1_555
O15_3 C40_6 1_555 1_555
O17_3 C40_6 1_555 1_555
C40_6 C48_6 1_555 1_555
C41_6 C43_6 1_555 1_555
C42_6 N2_6 1_555 1_555
C43_6 H25_6 1_555 1_555
C44_6 C42_6 1_555 1_555
H26_6 C44_6 1_555 1_555
C45_6 C41_6 1_555 1_555
H27_6 C45_6 1_555 1_555
C46_6 C42_6 1_555 1_555
H28_6 C46_6 1_555 1_555
C47_6 H29_6 1_555 1_555
C48_6 C50_6 1_555 1_555
C49_6 C41_6 1_555 1_555
C50_6 H30_6 1_555 1_555
C51_6 C47_6 1_555 1_555
H31_6 C51_6 1_555 1_555
C52_6 C49_6 1_555 1_555
H32_6 C52_6 1_555 1_555
Zn3_4 O3_6 1_555 1_555
Zn11_2 O3_6 1_555 1_555
Zn6_4 O7_4 1_555 1_555
O14_4 Zn3_4 1_555 1_555
O16_4 Zn5_2 1_555 1_555
O18_4 Zn3_4 1_555 1_555
O19_4 Zn11_2 1_555 1_555
O20_4 Zn2_4 1_555 1_555
O21_4 Zn3_4 1_555 1_555
Zn10_2 O6_4 1_555 1_555
O3_6 Zn2_4 1_555 1_555
O5_6 Zn11_2 1_555 1_555
C7_6 C8_6 1_555 1_555
C12_6 C21_6 1_555 1_555
C13_6 C19_6 1_555 1_555
C17_6 C18_6 1_555 1_555
C17_6 C23_6 1_555 1_555
C20_6 C25_6 1_555 1_555
C24_6 C26_6 1_555 1_555
C30_6 C31_6 1_555 1_555
C32_6 C33_6 1_555 1_555
C34_6 C36_6 1_555 1_555
C35_6 C38_6 1_555 1_555
C37_6 C39_6 1_555 1_555
C43_6 C44_6 1_555 1_555
C45_6 C46_6 1_555 1_555
C47_6 C49_6 1_555 1_555
C48_6 C51_6 1_555 1_555
C50_6 C52_6 1_555 1_555
N1_6 C11_6 1_555 1_555
C10_6 H5_6 1_555 1_555
C11_6 C10_6 1_555 1_555
C14_6 C15_6 1_555 1_555
C15_6 H8_6 1_555 1_555
C16_6 C10_6 1_555 1_555
H9_6 C16_6 1_555 1_555
C22_6 C11_6 1_555 1_555
H12_6 C22_6 1_555 1_555
C53_6 O10_4 1_555 1_555
O10_4 Zn8 1_555 1_555
O11_4 C53_6 1_555 1_555
C54_6 C53_6 1_555 1_555
C55_6 H33_6 1_555 1_555
C56_6 N1_6 1_555 1_555
C57_6 H34_6 1_555 1_555
C58_6 C59_6 1_555 1_555
C59_6 H35_6 1_555 1_555
C60_6 C55_6 1_555 1_555
H36_6 C60_6 1_555 1_555
C61_6 H37_6 1_555 1_555
C62_6 C57_6 1_555 1_555
C63_6 C54_6 1_555 1_555
H38_6 C63_6 1_555 1_555
C64_6 C56_6 1_555 1_555
H39_6 C64_6 1_555 1_555
C65_6 C54_6 1_555 1_555
H40_6 C65_6 1_555 1_555
C66_6 O12_4 1_555 1_555
O12_4 Zn12_4 1_555 1_555
O13_4 C66_6 1_555 1_555
C67_6 C66_6 1_555 1_555
C68_6 H41_6 1_555 1_555
C69_6 N1_6 1_555 1_555
C70_6 H42_6 1_555 1_555
C71_6 C72_6 1_555 1_555
C72_6 H43_6 1_555 1_555
C73_6 C68_6 1_555 1_555
H44_6 C73_6 1_555 1_555
C74_6 H45_6 1_555 1_555
C75_6 C70_6 1_555 1_555
C76_6 C67_6 1_555 1_555
H46_6 C76_6 1_555 1_555
C77_6 C69_6 1_555 1_555
H47_6 C77_6 1_555 1_555
C78_6 C67_6 1_555 1_555
H48_6 C78_6 1_555 1_555
Zn7_4 O11_4 1_555 1_555
Zn10_2 O13_4 1_555 1_555
C14_6 C16_6 1_555 1_555
C15_6 C22_6 1_555 1_555
C55_6 C56_6 1_555 1_555
C57_6 C63_6 1_555 1_555
C58_6 C60_6 1_555 1_555
C58_6 C62_6 1_555 1_555
C59_6 C64_6 1_555 1_555
C61_6 C62_6 1_555 1_555
C61_6 C65_6 1_555 1_555
C68_6 C69_6 1_555 1_555
C70_6 C76_6 1_555 1_555
C71_6 C73_6 1_555 1_555
C71_6 C75_6 1_555 1_555
C72_6 C77_6 1_555 1_555
C74_6 C75_6 1_555 1_555
C74_6 C78_6 1_555 1_555
C53_7 O18_3 1_555 1_555
O20_3 C53_7 1_555 1_555
C54_7 C53_7 1_555 1_555
C57_7 H34_7 1_555 1_555
C61_7 H37_7 1_555 1_555
C62_7 C57_7 1_555 1_555
C63_7 C54_7 1_555 1_555
H38_7 C63_7 1_555 1_555
C65_7 C54_7 1_555 1_555
H40_7 C65_7 1_555 1_555
C57_7 C63_7 1_555 1_555
C61_7 C62_7 1_555 1_555
C61_7 C65_7 1_555 1_555
C66_7 O19_4 1_555 1_555
O21_4 C66_7 1_555 1_555
C67_7 C66_7 1_555 1_555
C70_7 H42_7 1_555 1_555
C74_7 H45_7 1_555 1_555
C75_7 C70_7 1_555 1_555
C76_7 C67_7 1_555 1_555
H46_7 C76_7 1_555 1_555
C78_7 C67_7 1_555 1_555
H48_7 C78_7 1_555 1_555
C70_7 C76_7 1_555 1_555
C74_7 C75_7 1_555 1_555
C74_7 C78_7 1_555 1_555
Zn6_4 O2_7 1_555 1_555
O1_7 C2_7 1_555 1_555
O2_7 C2_7 1_555 1_555
O3_7 Zn6_4 1_555 1_555
C1_7 O4_7 1_555 1_555
C2_7 C20_7 1_555 1_555
O4_7 Zn7_3 1_555 1_555
O5_7 C1_7 1_555 1_555
Zn7_3 O1_7 1_555 1_555
C9_7 C1_7 1_555 1_555
C12_7 H6_7 1_555 1_555
C13_7 H7_7 1_555 1_555
C17_7 H10_7 1_555 1_555
C18_7 C13_7 1_555 1_555
C19_7 C9_7 1_555 1_555
H11_7 C19_7 1_555 1_555
C20_7 C24_7 1_555 1_555
C23_7 C9_7 1_555 1_555
H13_7 C23_7 1_555 1_555
C24_7 H14_7 1_555 1_555
C25_7 C12_7 1_555 1_555
H15_7 C25_7 1_555 1_555
C26_7 C21_7 1_555 1_555
H16_7 C26_7 1_555 1_555
Zn10_2 O3_7 1_555 1_555
Zn12_4 O3_7 1_555 1_555
O15_4 Zn12_4 1_555 1_555
O17_4 Zn6_4 1_555 1_555
O3_7 Zn7_3 1_555 1_555
O5_7 Zn12_4 1_555 1_555
C12_7 C21_7 1_555 1_555
C13_7 C19_7 1_555 1_555
C17_7 C18_7 1_555 1_555
C17_7 C23_7 1_555 1_555
C20_7 C25_7 1_555 1_555
C24_7 C26_7 1_555 1_555
C3_7 C5_7 1_555 1_555
C4_7 C6_7 1_555 1_555
C5_7 H1_7 1_555 1_555
C6_7 C5_7 1_555 1_555
H2_7 C6_7 1_555 1_555
C7_7 C3_7 1_555 1_555
H3_7 C7_7 1_555 1_555
C8_7 C4_7 1_555 1_555
H4_7 C8_7 1_555 1_555
N2_7 C4_7 1_555 1_555
O14_4 C27_7 1_555 1_555
O16_4 C27_7 1_555 1_555
C27_7 C35_7 1_555 1_555
C28_7 C30_7 1_555 1_555
C29_7 N2_7 1_555 1_555
C30_7 H17_7 1_555 1_555
C31_7 C29_7 1_555 1_555
H18_7 C31_7 1_555 1_555
C32_7 C28_7 1_555 1_555
H19_7 C32_7 1_555 1_555
C33_7 C29_7 1_555 1_555
H20_7 C33_7 1_555 1_555
C34_7 H21_7 1_555 1_555
C35_7 C37_7 1_555 1_555
C36_7 C28_7 1_555 1_555
C37_7 H22_7 1_555 1_555
C38_7 C34_7 1_555 1_555
H23_7 C38_7 1_555 1_555
C39_7 C36_7 1_555 1_555
H24_7 C39_7 1_555 1_555
C41_7 C43_7 1_555 1_555
C42_7 N2_7 1_555 1_555
C43_7 H25_7 1_555 1_555
C44_7 C42_7 1_555 1_555
H26_7 C44_7 1_555 1_555
C45_7 C41_7 1_555 1_555
H27_7 C45_7 1_555 1_555
C46_7 C42_7 1_555 1_555
H28_7 C46_7 1_555 1_555
C7_7 C8_7 1_555 1_555
C30_7 C31_7 1_555 1_555
C32_7 C33_7 1_555 1_555
C34_7 C36_7 1_555 1_555
C35_7 C38_7 1_555 1_555
C37_7 C39_7 1_555 1_555
C43_7 C44_7 1_555 1_555
C45_7 C46_7 1_555 1_555
O8_4 C40_7 1_555 1_555
O9_4 C40_7 1_555 1_555
C40_7 C48_7 1_555 1_555
C47_7 H29_7 1_555 1_555
C48_7 C50_7 1_555 1_555
C50_7 H30_7 1_555 1_555
C51_7 C47_7 1_555 1_555
H31_7 C51_7 1_555 1_555
C52_7 C49_7 1_555 1_555
H32_7 C52_7 1_555 1_555
Zn6_3 O9_4 1_555 1_555
Zn12_3 O8_4 1_555 1_555
C47_7 C49_7 1_555 1_555
C48_7 C51_7 1_555 1_555
C50_7 C52_7 1_555 1_555
O14_3 C27_8 1_555 1_555
O16_3 C27_8 1_555 1_555
C27_8 C35_8 1_555 1_555
C34_8 H21_8 1_555 1_555
C35_8 C37_8 1_555 1_555
C37_8 H22_8 1_555 1_555
C38_8 C34_8 1_555 1_555
H23_8 C38_8 1_555 1_555
C39_8 C36_8 1_555 1_555
H24_8 C39_8 1_555 1_555
C34_8 C36_8 1_555 1_555
C35_8 C38_8 1_555 1_555
C37_8 C39_8 1_555 1_555
C3_8 C5_8 1_555 1_555
C4_8 C6_8 1_555 1_555
C5_8 H1_8 1_555 1_555
C6_8 C5_8 1_555 1_555
H2_8 C6_8 1_555 1_555
C7_8 C3_8 1_555 1_555
H3_8 C7_8 1_555 1_555
C8_8 C4_8 1_555 1_555
H4_8 C8_8 1_555 1_555
N2_8 C4_8 1_555 1_555
C28_8 C30_8 1_555 1_555
C29_8 N2_8 1_555 1_555
C30_8 H17_8 1_555 1_555
C31_8 C29_8 1_555 1_555
H18_8 C31_8 1_555 1_555
C32_8 C28_8 1_555 1_555
H19_8 C32_8 1_555 1_555
C33_8 C29_8 1_555 1_555
H20_8 C33_8 1_555 1_555
O15_4 C40_8 1_555 1_555
O17_4 C40_8 1_555 1_555
C40_8 C48_8 1_555 1_555
C41_8 C43_8 1_555 1_555
C42_8 N2_8 1_555 1_555
C43_8 H25_8 1_555 1_555
C44_8 C42_8 1_555 1_555
H26_8 C44_8 1_555 1_555
C45_8 C41_8 1_555 1_555
H27_8 C45_8 1_555 1_555
C46_8 C42_8 1_555 1_555
H28_8 C46_8 1_555 1_555
C47_8 H29_8 1_555 1_555
C48_8 C50_8 1_555 1_555
C49_8 C41_8 1_555 1_555
C50_8 H30_8 1_555 1_555
C51_8 C47_8 1_555 1_555
H31_8 C51_8 1_555 1_555
C52_8 C49_8 1_555 1_555
H32_8 C52_8 1_555 1_555
C66_8 O19_3 1_555 1_555
O21_3 C66_8 1_555 1_555
C67_8 C66_8 1_555 1_555
C70_8 H42_8 1_555 1_555
C74_8 H45_8 1_555 1_555
C75_8 C70_8 1_555 1_555
C76_8 C67_8 1_555 1_555
H46_8 C76_8 1_555 1_555
C78_8 C67_8 1_555 1_555
H48_8 C78_8 1_555 1_555
C7_8 C8_8 1_555 1_555
C30_8 C31_8 1_555 1_555
C32_8 C33_8 1_555 1_555
C43_8 C44_8 1_555 1_555
C45_8 C46_8 1_555 1_555
C47_8 C49_8 1_555 1_555
C48_8 C51_8 1_555 1_555
C50_8 C52_8 1_555 1_555
C70_8 C76_8 1_555 1_555
C74_8 C75_8 1_555 1_555
C74_8 C78_8 1_555 1_555
Zn6_3 O2_8 1_555 1_555
O1_8 C2_8 1_555 1_555
O2_8 C2_8 1_555 1_555
O3_8 Zn6_3 1_555 1_555
C1_8 O4_8 1_555 1_555
C2_8 C20_8 1_555 1_555
O4_8 Zn7_4 1_555 1_555
O5_8 C1_8 1_555 1_555
Zn7_4 O1_8 1_555 1_555
N1_7 C11_7 1_555 1_555
C9_8 C1_8 1_555 1_555
C10_7 H5_7 1_555 1_555
C11_7 C10_7 1_555 1_555
C12_8 H6_8 1_555 1_555
C13_8 H7_8 1_555 1_555
C14_7 C15_7 1_555 1_555
C15_7 H8_7 1_555 1_555
C16_7 C10_7 1_555 1_555
H9_7 C16_7 1_555 1_555
C17_8 H10_8 1_555 1_555
C18_8 C13_8 1_555 1_555
C19_8 C9_8 1_555 1_555
H11_8 C19_8 1_555 1_555
C20_8 C24_8 1_555 1_555
C22_7 C11_7 1_555 1_555
H12_7 C22_7 1_555 1_555
C23_8 C9_8 1_555 1_555
H13_8 C23_8 1_555 1_555
C24_8 H14_8 1_555 1_555
C25_8 C12_8 1_555 1_555
H15_8 C25_8 1_555 1_555
C26_8 C21_8 1_555 1_555
H16_8 C26_8 1_555 1_555
C53_8 O18_4 1_555 1_555
O20_4 C53_8 1_555 1_555
C54_8 C53_8 1_555 1_555
C55_7 H33_7 1_555 1_555
C56_7 N1_7 1_555 1_555
C57_8 H34_8 1_555 1_555
C58_7 C59_7 1_555 1_555
C59_7 H35_7 1_555 1_555
C60_7 C55_7 1_555 1_555
H36_7 C60_7 1_555 1_555
C61_8 H37_8 1_555 1_555
C62_8 C57_8 1_555 1_555
C63_8 C54_8 1_555 1_555
H38_8 C63_8 1_555 1_555
C64_7 C56_7 1_555 1_555
H39_7 C64_7 1_555 1_555
C65_8 C54_8 1_555 1_555
H40_8 C65_8 1_555 1_555
C68_7 H41_7 1_555 1_555
C69_7 N1_7 1_555 1_555
C71_7 C72_7 1_555 1_555
C72_7 H43_7 1_555 1_555
C73_7 C68_7 1_555 1_555
H44_7 C73_7 1_555 1_555
C77_7 C69_7 1_555 1_555
H47_7 C77_7 1_555 1_555
Zn8 O3_8 1_555 1_555
Zn12_3 O3_8 1_555 1_555
O3_8 Zn7_4 1_555 1_555
O5_8 Zn12_3 1_555 1_555
C12_8 C21_8 1_555 1_555
C13_8 C19_8 1_555 1_555
C14_7 C16_7 1_555 1_555
C14_7 C18_8 1_555 1_555
C15_7 C22_7 1_555 1_555
C17_8 C18_8 1_555 1_555
C17_8 C23_8 1_555 1_555
C20_8 C25_8 1_555 1_555
C24_8 C26_8 1_555 1_555
C55_7 C56_7 1_555 1_555
C57_8 C63_8 1_555 1_555
C58_7 C60_7 1_555 1_555
C58_7 C62_8 1_555 1_555
C59_7 C64_7 1_555 1_555
C61_8 C62_8 1_555 1_555
C61_8 C65_8 1_555 1_555
C68_7 C69_7 1_555 1_555
C71_7 C73_7 1_555 1_555
C72_7 C77_7 1_555 1_555
N1_8 C11_8 1_555 1_555
C10_8 H5_8 1_555 1_555
C11_8 C10_8 1_555 1_555
C14_8 C15_8 1_555 1_555
C15_8 H8_8 1_555 1_555
C16_8 C10_8 1_555 1_555
H9_8 C16_8 1_555 1_555
C22_8 C11_8 1_555 1_555
H12_8 C22_8 1_555 1_555
C55_8 H33_8 1_555 1_555
C56_8 N1_8 1_555 1_555
C58_8 C59_8 1_555 1_555
C59_8 H35_8 1_555 1_555
C60_8 C55_8 1_555 1_555
H36_8 C60_8 1_555 1_555
C64_8 C56_8 1_555 1_555
H39_8 C64_8 1_555 1_555
C68_8 H41_8 1_555 1_555
C69_8 N1_8 1_555 1_555
C71_8 C72_8 1_555 1_555
C72_8 H43_8 1_555 1_555
C73_8 C68_8 1_555 1_555
H44_8 C73_8 1_555 1_555
C77_8 C69_8 1_555 1_555
H47_8 C77_8 1_555 1_555
C14_8 C16_8 1_555 1_555
C15_8 C22_8 1_555 1_555
C55_8 C56_8 1_555 1_555
C58_8 C60_8 1_555 1_555
C59_8 C64_8 1_555 1_555
C68_8 C69_8 1_555 1_555
C71_8 C73_8 1_555 1_555
C72_8 C77_8 1_555 1_555

#END
