
###############################################################################
#
# This file contains modified crystal structure data generated from the
# MOF subset of the Cambridge Structural Database (CSD) v543 
# hosted by the Cambridge Crystallographic Data Centre (CCDC).
#
# This work is licensed under the Creative Commons
# Attribution-NonCommercial-ShareAlike 4.0 International License.
# To view a copy of this license, visit
# http://creativecommons.org/licenses/by-nc-sa/4.0/
# or send a letter to
# Creative Commons, PO Box 1866, Mountain View, CA 94042, USA.
#
# CIF created using the CSD Python API on 29 September 2022
# The structure has been converted into the P1 space group
# The structure has a 3D framework
# The original CSD entry UWAGAB01 is in the cubic crystal system
# The framework has been calculated to contain at least 10.0% void space
# The void calculation uses a probe of radius 1.32A, grid spacing 0.4
#
###############################################################################

data_UWAGAB01
_chemical_formula_moiety         '(C624 H384 N16 O104 Zn32)n'
_symmetry_cell_setting           triclinic
_symmetry_space_group_name_H-M   'P 1'
_symmetry_Int_Tables_number      1
_space_group_name_Hall           'P 1'
loop_
_symmetry_equiv_pos_site_id
_symmetry_equiv_pos_as_xyz
1 x,y,z
_cell_length_a                   32.407(5)
_cell_length_b                   32.407(5)
_cell_length_c                   32.407(5)
_cell_angle_alpha                90
_cell_angle_beta                 90
_cell_angle_gamma                90
_cell_volume                     34034.3
loop_
_atom_site_label
_atom_site_type_symbol
_atom_site_fract_x
_atom_site_fract_y
_atom_site_fract_z
Zn1 Zn 0.30032(2) 0.26947(2) 0.22159(2)
Zn2 Zn 0.21686(2) 0.21686(2) 0.21686(2)
N1 N 0.6420(2) 0.1420(2) 0.3580(2)
O1 O 0.35153(18) 0.24935(15) 0.24587(18)
O2 O 0.29660(16) 0.24990(18) 0.16567(16)
O3 O 0.24601(15) 0.20287(15) 0.16573(14)
O4 O 0.32921(18) 0.22007(17) 0.30324(18)
C1 C 0.6021(2) 0.1566(2) 0.3465(2)
C2 C 0.5919(2) 0.1613(2) 0.3053(2)
H1 H 0.6117 0.1565 0.2852
C3 C 0.2880(2) 0.2077(2) 0.1067(2)
C4 C 0.5226(3) 0.1806(2) 0.3220(2)
C5 C 0.2843(2) 0.1622(3) 0.0498(3)
H2 H 0.273 0.1386 0.038
C6 C 0.3568(3) 0.2299(2) 0.2780(3)
C7 C 0.5334(3) 0.1765(2) 0.3634(3)
H3 H 0.5135 0.1820 0.383
C8 C 0.2715(2) 0.1738(2) 0.0880(3)
H4 H 0.2513 0.1586 0.1015
C9 C 0.4729(3) 0.2167(3) 0.2748(3)
H5 H 0.4948 0.2244 0.2579
C10 C 0.4799(3) 0.1937(3) 0.3101(3)
C11 C 0.3132(3) 0.1838(3) 0.0281(3)
C12 C 0.3997(3) 0.2175(2) 0.2895(2)
C13 C 0.4074(3) 0.1954(3) 0.3238(3)
H6 H 0.3855 0.1881 0.3409
C14 C 0.5533(3) 0.1731(3) 0.2940(3)
H7 H 0.5475 0.1761 0.2661
C15 C 0.4327(3) 0.2281(3) 0.2646(3)
H8 H 0.4280 0.243 0.2407
C16 C 0.2750(2) 0.2213(2) 0.1485(2)
C17 C 0.4461(3) 0.1835(3) 0.3340(3)
H9 H 0.4501 0.1680 0.358
C18 C 0.3291(4) 0.2182(3) 0.0458(3)
H10 H 0.348 0.2342 0.0314
C19 C 0.5720(2) 0.1645(2) 0.3763(2)
H11 H 0.5779 0.1618 0.4042
C20 C 0.3174(4) 0.2297(3) 0.0853(3)
H12 H 0.3296 0.2526 0.0975
O5 O 0.25145(13) 0.25145(13) 0.25145(13)
Zn5 Zn 0.26947(2) 0.22159(2) 0.30032(2)
Zn6 Zn 0.22159(2) 0.30032(2) 0.26947(2)
Zn9 Zn 0.76947(2) 0.27841(2) 0.69968(2)
Zn10 Zn 0.72159(2) 0.19968(2) 0.73053(2)
O7 O 0.74935(15) 0.25413(18) 0.64847(18)
O14 O 0.16573(14) 0.24601(15) 0.20287(15)
O15 O 0.20287(15) 0.16573(14) 0.24601(15)
O17 O 0.72007(17) 0.19676(18) 0.67079(18)
O18 O 0.30324(18) 0.32921(18) 0.22007(17)
C27 C 0.6535(2) 0.1021(2) 0.3434(2)
C28 C 0.6566(2) 0.1535(2) 0.3979(2)
C29 C 0.6947(2) 0.0919(2) 0.3387(2)
C30 C 0.6613(2) 0.1947(2) 0.4081(2)
H17 H 0.7148 0.1117 0.3435
H18 H 0.6565 0.2148 0.3883
C33 C 0.6780(2) 0.0226(3) 0.3194(2)
C34 C 0.6806(2) 0.1780(2) 0.4774(3)
C38 C 0.7299(2) 0.2220(3) 0.6432(3)
C39 C 0.6366(3) 0.0334(3) 0.3235(2)
C40 C 0.6765(2) 0.1366(3) 0.4666(3)
H21 H 0.617 0.0135 0.3180
H22 H 0.6820 0.117 0.4865
C44 C 0.7167(3) 0.2252(3) 0.5271(3)
H26 H 0.7244 0.2421 0.5052
C46 C 0.6937(3) 0.1899(3) 0.5201(3)
C50 C 0.7175(2) 0.2105(2) 0.6003(3)
C52 C 0.6954(3) 0.1762(3) 0.5926(3)
H28 H 0.6881 0.1591 0.6145
C53 C 0.7060(3) 0.0533(3) 0.3269(3)
C54 C 0.6731(3) 0.2060(3) 0.4467(3)
H29 H 0.7339 0.0475 0.3239
H30 H 0.6761 0.2339 0.4525
C56 C 0.7281(3) 0.2354(3) 0.5673(3)
H32 H 0.743 0.2593 0.5720
C60 C 0.6835(3) 0.1660(3) 0.5539(3)
H34 H 0.6680 0.142 0.5499
C63 C 0.6237(2) 0.0720(2) 0.3355(2)
C64 C 0.6645(2) 0.1237(2) 0.4280(2)
H37 H 0.5958 0.0779 0.3382
H38 H 0.6618 0.0958 0.4221
N2 N 0.3684(4) 0.1316(4) 0.8684(4)
C21 C 0.3257(3) 0.1716(3) 0.9855(3)
C22 C 0.3496(3) 0.1481(3) 0.9035(3)
C23 C 0.3331(4) 0.1235(4) 0.9322(3)
H13 H 0.331 0.0957 0.9255
C24 C 0.3192(4) 0.1345(4) 0.9695(3)
H14 H 0.3043 0.1154 0.9848
C25 C 0.3489(7) 0.1882(7) 0.9149(5)
H15 H 0.3558 0.2084 0.8958
C26 C 0.3381(7) 0.1996(7) 0.9547(6)
H16 H 0.3391 0.2275 0.9615
Zn11 Zn 0.71686(2) 0.28314(2) 0.78314(2)
O8 O 0.74587(18) 0.14847(18) 0.75065(15)
O10 O 0.66567(16) 0.20340(16) 0.75010(18)
O12 O 0.66573(14) 0.25399(15) 0.79713(15)
C31 C 0.6067(2) 0.2120(2) 0.7923(2)
C35 C 0.5498(3) 0.2157(2) 0.8378(3)
H19 H 0.538 0.227 0.8614
C41 C 0.5880(3) 0.2285(2) 0.8262(2)
H23 H 0.6015 0.2487 0.8414
C47 C 0.5281(3) 0.1868(3) 0.8162(3)
C57 C 0.6485(2) 0.2250(2) 0.7787(2)
C61 C 0.5458(3) 0.1709(4) 0.7818(3)
H35 H 0.5314 0.152 0.7658
C65 C 0.5853(3) 0.1826(4) 0.7703(3)
H39 H 0.5975 0.1704 0.7474
O21 O 0.75145(13) 0.24855(13) 0.74855(13)
C67 C 0.4855(3) 0.1743(3) 0.8284(3)
C68 C 0.3284(3) 0.0145(3) 0.8257(3)
C69 C 0.4035(3) 0.1504(3) 0.8519(3)
C70 C 0.3519(3) 0.0965(3) 0.8496(3)
C71 C 0.4322(3) 0.1669(4) 0.8765(4)
C72 C 0.3765(4) 0.0678(3) 0.8331(4)
H41 H 0.4255 0.169 0.9043
H42 H 0.4043 0.0745 0.831
C73 C 0.4695(3) 0.1808(4) 0.8655(4)
C74 C 0.3655(4) 0.0305(3) 0.8192(4)
H43 H 0.4848 0.1957 0.8846
H44 H 0.3846 0.0152 0.8043
C75 C 0.4149(5) 0.1511(7) 0.8118(7)
C76 C 0.3118(7) 0.0851(5) 0.8489(7)
H45 H 0.3958 0.1442 0.7916
H46 H 0.2916 0.1042 0.8558
C77 C 0.4547(6) 0.1619(7) 0.8004(7)
C78 C 0.3004(7) 0.0453(6) 0.8381(7)
H47 H 0.4615 0.1609 0.7725
H48 H 0.2725 0.0385 0.8391
Zn7 Zn 0.77841(2) 0.80032(2) 0.23053(2)
Zn8 Zn 0.69968(2) 0.76947(2) 0.27841(2)
O6 O 0.75413(18) 0.85153(18) 0.25065(15)
O16 O 0.69676(18) 0.82921(18) 0.27993(17)
C37 C 0.7220(3) 0.8568(3) 0.2701(2)
C43 C 0.7252(3) 0.9729(3) 0.2833(3)
H25 H 0.7421 0.9948 0.2756
C45 C 0.6899(3) 0.9799(3) 0.3063(3)
C49 C 0.7105(2) 0.8997(3) 0.2825(2)
C51 C 0.6762(3) 0.9074(3) 0.3046(3)
H27 H 0.6591 0.8855 0.3119
C55 C 0.7354(3) 0.9327(3) 0.2719(3)
H31 H 0.7593 0.9280 0.257
C59 C 0.6660(3) 0.9461(3) 0.3165(3)
H33 H 0.642 0.9501 0.3320
Zn4 Zn 0.23053(2) 0.77841(2) 0.80032(2)
Zn12 Zn 0.28314(2) 0.78314(2) 0.71686(2)
O9 O 0.25065(15) 0.75413(18) 0.85153(18)
O11 O 0.25010(18) 0.83433(16) 0.79660(16)
O13 O 0.29713(15) 0.83427(14) 0.74601(15)
O20 O 0.17079(18) 0.77993(17) 0.80324(18)
C32 C 0.2923(2) 0.8933(2) 0.7880(2)
C36 C 0.3378(3) 0.9502(3) 0.7843(2)
H20 H 0.3614 0.962 0.773
C42 C 0.3262(2) 0.9120(3) 0.7715(2)
H24 H 0.3414 0.8985 0.7513
C48 C 0.3162(3) 0.9719(3) 0.8132(3)
C58 C 0.2787(2) 0.8515(2) 0.7750(2)
C62 C 0.2818(3) 0.9542(3) 0.8291(4)
H36 H 0.2658 0.9686 0.848
C66 C 0.2703(3) 0.9147(3) 0.8174(4)
H40 H 0.2474 0.9025 0.8296
O22 O 0.24855(13) 0.74855(13) 0.75145(13)
O9_2 O 0.24935(15) 0.24587(18) 0.35153(18)
O11_2 O 0.24990(18) 0.16567(16) 0.29660(16)
C32_2 C 0.2077(2) 0.1067(2) 0.2880(2)
C36_2 C 0.1622(3) 0.0498(3) 0.2843(2)
H20_2 H 0.1386 0.038 0.273
C42_2 C 0.1738(2) 0.0880(3) 0.2715(2)
H24_2 H 0.1586 0.1015 0.2513
C48_2 C 0.1838(3) 0.0281(3) 0.3132(3)
C58_2 C 0.2213(2) 0.1485(2) 0.2750(2)
C62_2 C 0.2182(3) 0.0458(3) 0.3291(4)
H36_2 H 0.2342 0.0314 0.348
C66_2 C 0.2297(3) 0.0853(3) 0.3174(4)
H40_2 H 0.2526 0.0975 0.3296
Zn1_2 Zn 0.19968(2) 0.73053(2) 0.72159(2)
O1_2 O 0.14847(18) 0.75065(15) 0.74587(18)
O2_2 O 0.20340(16) 0.75010(18) 0.66567(16)
O3_2 O 0.25399(15) 0.79713(15) 0.66573(14)
C3_2 C 0.2120(2) 0.7923(2) 0.6067(2)
C5_2 C 0.2157(2) 0.8378(3) 0.5498(3)
H2_2 H 0.227 0.8614 0.538
C6_2 C 0.1432(3) 0.7701(2) 0.7780(3)
C8_2 C 0.2285(2) 0.8262(2) 0.5880(3)
H4_2 H 0.2487 0.8414 0.6015
C9_2 C 0.0271(3) 0.7833(3) 0.7748(3)
H5_2 H 0.0052 0.7756 0.7579
C10_2 C 0.0201(3) 0.8063(3) 0.8101(3)
C11_2 C 0.1868(3) 0.8162(3) 0.5281(3)
C12_2 C 0.1003(3) 0.7825(2) 0.7895(2)
C13_2 C 0.0926(3) 0.8046(3) 0.8238(3)
H6_2 H 0.1145 0.8119 0.8409
C15_2 C 0.0673(3) 0.7719(3) 0.7646(3)
H8_2 H 0.0720 0.757 0.7407
C16_2 C 0.2250(2) 0.7787(2) 0.6485(2)
C17_2 C 0.0539(3) 0.8165(3) 0.8340(3)
H9_2 H 0.0499 0.8320 0.858
C18_2 C 0.1709(4) 0.7818(3) 0.5458(3)
H10_2 H 0.152 0.7658 0.5314
C20_2 C 0.1826(4) 0.7703(3) 0.5853(3)
H12_2 H 0.1704 0.7474 0.5975
N2_2 N 0.1316(4) 0.8684(4) 0.3684(4)
C21_2 C 0.1743(3) 0.8284(3) 0.4855(3)
C22_2 C 0.1504(3) 0.8519(3) 0.4035(3)
C23_2 C 0.1669(4) 0.8765(4) 0.4322(3)
H13_2 H 0.169 0.9043 0.4255
C24_2 C 0.1808(4) 0.8655(4) 0.4695(3)
H14_2 H 0.1957 0.8846 0.4848
C25_2 C 0.1511(7) 0.8118(7) 0.4149(5)
H15_2 H 0.1442 0.7916 0.3958
C26_2 C 0.1619(7) 0.8004(7) 0.4547(6)
H16_2 H 0.1609 0.7725 0.4615
Zn6_2 Zn 0.27841(2) 0.69968(2) 0.76947(2)
O14_2 O 0.33427(14) 0.75399(15) 0.70287(15)
O18_2 O 0.19676(18) 0.67079(18) 0.72007(17)
C67_2 C 0.0145(3) 0.8257(3) 0.3284(3)
C68_2 C 0.1716(3) 0.9855(3) 0.3257(3)
C69_2 C 0.0965(3) 0.8496(3) 0.3519(3)
C70_2 C 0.1481(3) 0.9035(3) 0.3496(3)
C71_2 C 0.0678(3) 0.8331(4) 0.3765(4)
C72_2 C 0.1235(4) 0.9322(3) 0.3331(4)
H41_2 H 0.0745 0.831 0.4043
H42_2 H 0.0957 0.9255 0.331
C73_2 C 0.0305(3) 0.8192(4) 0.3655(4)
C74_2 C 0.1345(4) 0.9695(3) 0.3192(4)
H43_2 H 0.0152 0.8043 0.3846
H44_2 H 0.1154 0.9848 0.3043
C75_2 C 0.0851(5) 0.8489(7) 0.3118(7)
C76_2 C 0.1882(7) 0.9149(5) 0.3489(7)
H45_2 H 0.1042 0.8558 0.2916
H46_2 H 0.2084 0.8958 0.3558
C77_2 C 0.0453(6) 0.8381(7) 0.3004(7)
C78_2 C 0.1996(7) 0.9547(6) 0.3381(7)
H47_2 H 0.0385 0.8391 0.2725
H48_2 H 0.2275 0.9615 0.3391
Zn8_2 Zn 0.80032(2) 0.23053(2) 0.77841(2)
O16_2 O 0.80324(18) 0.17079(18) 0.77993(17)
C37_2 C 0.7780(3) 0.1432(3) 0.7701(2)
C43_2 C 0.7748(3) 0.0271(3) 0.7833(3)
H25_2 H 0.7579 0.0052 0.7756
C45_2 C 0.8101(3) 0.0201(3) 0.8063(3)
C49_2 C 0.7895(2) 0.1003(3) 0.7825(2)
C51_2 C 0.8238(3) 0.0926(3) 0.8046(3)
H27_2 H 0.8409 0.1145 0.8119
C55_2 C 0.7646(3) 0.0673(3) 0.7719(3)
H31_2 H 0.7407 0.0720 0.757
C59_2 C 0.8340(3) 0.0539(3) 0.8165(3)
H33_2 H 0.858 0.0499 0.8320
Zn9_2 Zn 0.73053(2) 0.72159(2) 0.19968(2)
O7_2 O 0.75065(15) 0.74587(18) 0.14847(18)
O17_2 O 0.77993(17) 0.80324(18) 0.17079(18)
C38_2 C 0.7701(2) 0.7780(3) 0.1432(3)
C44_2 C 0.7833(3) 0.7748(3) 0.0271(3)
H26_2 H 0.7756 0.7579 0.0052
C46_2 C 0.8063(3) 0.8101(3) 0.0201(3)
C50_2 C 0.7825(2) 0.7895(2) 0.1003(3)
C52_2 C 0.8046(3) 0.8238(3) 0.0926(3)
H28_2 H 0.8119 0.8409 0.1145
C56_2 C 0.7719(3) 0.7646(3) 0.0673(3)
H32_2 H 0.757 0.7407 0.0720
C60_2 C 0.8165(3) 0.8340(3) 0.0539(3)
H34_2 H 0.8320 0.858 0.0499
N1_2 N 0.8580(2) 0.8580(2) 0.8580(2)
C1_2 C 0.8979(2) 0.8434(2) 0.8465(2)
C2_2 C 0.9081(2) 0.8387(2) 0.8053(2)
H1_2 H 0.8883 0.8435 0.7852
C4_2 C 0.9774(3) 0.8194(2) 0.8220(2)
C7_2 C 0.9666(3) 0.8235(2) 0.8634(3)
H3_2 H 0.9865 0.8180 0.883
C14_2 C 0.9467(3) 0.8269(3) 0.7940(3)
H7_2 H 0.9525 0.8239 0.7661
C19_2 C 0.9280(2) 0.8355(2) 0.8763(2)
H11_2 H 0.9221 0.8382 0.9042
Zn11_2 Zn 0.78314(2) 0.71686(2) 0.28314(2)
O10_2 O 0.83433(16) 0.79660(16) 0.25010(18)
O12_2 O 0.83427(14) 0.74601(15) 0.29713(15)
C27_2 C 0.8465(2) 0.8979(2) 0.8434(2)
C28_2 C 0.8434(2) 0.8465(2) 0.8979(2)
C29_2 C 0.8053(2) 0.9081(2) 0.8387(2)
C30_2 C 0.8387(2) 0.8053(2) 0.9081(2)
H17_2 H 0.7852 0.8883 0.8435
H18_2 H 0.8435 0.7852 0.8883
C31_2 C 0.8933(2) 0.7880(2) 0.2923(2)
C33_2 C 0.8220(2) 0.9774(3) 0.8194(2)
C34_2 C 0.8194(2) 0.8220(2) 0.9774(3)
C35_2 C 0.9502(3) 0.7843(2) 0.3378(3)
H19_2 H 0.962 0.773 0.3614
C39_2 C 0.8634(3) 0.9666(3) 0.8235(2)
C40_2 C 0.8235(2) 0.8634(3) 0.9666(3)
H21_2 H 0.883 0.9865 0.8180
H22_2 H 0.8180 0.883 0.9865
C41_2 C 0.9120(3) 0.7715(2) 0.3262(2)
H23_2 H 0.8985 0.7513 0.3414
C47_2 C 0.9719(3) 0.8132(3) 0.3162(3)
C53_2 C 0.7940(3) 0.9467(3) 0.8269(3)
C54_2 C 0.8269(3) 0.7940(3) 0.9467(3)
H29_2 H 0.7661 0.9525 0.8239
H30_2 H 0.8239 0.7661 0.9525
C57_2 C 0.8515(2) 0.7750(2) 0.2787(2)
C61_2 C 0.9542(3) 0.8291(4) 0.2818(3)
H35_2 H 0.9686 0.848 0.2658
C63_2 C 0.8763(2) 0.9280(2) 0.8355(2)
C64_2 C 0.8355(2) 0.8763(2) 0.9280(2)
H37_2 H 0.9042 0.9221 0.8382
H38_2 H 0.8382 0.9042 0.9221
C65_2 C 0.9147(3) 0.8174(4) 0.2703(3)
H39_2 H 0.9025 0.8296 0.2474
O21_2 O 0.74855(13) 0.75145(13) 0.24855(13)
O8_2 O 0.24587(18) 0.35153(18) 0.24935(15)
O10_3 O 0.16567(16) 0.29660(16) 0.24990(18)
O19 O 0.22007(17) 0.30324(18) 0.32921(18)
C31_3 C 0.1067(2) 0.2880(2) 0.2077(2)
C35_3 C 0.0498(3) 0.2843(2) 0.1622(3)
H19_3 H 0.038 0.273 0.1386
C41_3 C 0.0880(3) 0.2715(2) 0.1738(2)
H23_3 H 0.1015 0.2513 0.1586
C47_3 C 0.0281(3) 0.3132(3) 0.1838(3)
C57_3 C 0.1485(2) 0.2750(2) 0.2213(2)
C61_3 C 0.0458(3) 0.3291(4) 0.2182(3)
H35_3 H 0.0314 0.348 0.2342
C65_3 C 0.0853(3) 0.3174(4) 0.2297(3)
H39_3 H 0.0975 0.3296 0.2526
N1_3 N 0.1420(2) 0.3580(2) 0.6420(2)
C1_3 C 0.1021(2) 0.3434(2) 0.6535(2)
C2_3 C 0.0919(2) 0.3387(2) 0.6947(2)
H1_3 H 0.1117 0.3435 0.7148
C4_3 C 0.0226(3) 0.3194(2) 0.6780(2)
C7_3 C 0.0334(3) 0.3235(2) 0.6366(3)
H3_3 H 0.0135 0.3180 0.617
C14_3 C 0.0533(3) 0.3269(3) 0.7060(3)
H7_3 H 0.0475 0.3239 0.7339
C19_3 C 0.0720(2) 0.3355(2) 0.6237(2)
H11_3 H 0.0779 0.3382 0.5958
O6_2 O 0.25413(18) 0.64847(18) 0.74935(15)
C27_3 C 0.1535(2) 0.3979(2) 0.6566(2)
C28_3 C 0.1566(2) 0.3465(2) 0.6021(2)
C29_3 C 0.1947(2) 0.4081(2) 0.6613(2)
C30_3 C 0.1613(2) 0.3053(2) 0.5919(2)
H17_3 H 0.2148 0.3883 0.6565
H18_3 H 0.1565 0.2852 0.6117
C33_3 C 0.1780(2) 0.4774(3) 0.6806(2)
C34_3 C 0.1806(2) 0.3220(2) 0.5226(3)
C37_3 C 0.2220(3) 0.6432(3) 0.7299(2)
C38_3 C 0.2299(2) 0.2780(3) 0.3568(3)
C39_3 C 0.1366(3) 0.4666(3) 0.6765(2)
C40_3 C 0.1765(2) 0.3634(3) 0.5334(3)
H21_3 H 0.117 0.4865 0.6820
H22_3 H 0.1820 0.383 0.5135
C43_3 C 0.2252(3) 0.5271(3) 0.7167(3)
C44_3 C 0.2167(3) 0.2748(3) 0.4729(3)
H25_3 H 0.2421 0.5052 0.7244
H26_3 H 0.2244 0.2579 0.4948
C45_3 C 0.1899(3) 0.5201(3) 0.6937(3)
C46_3 C 0.1937(3) 0.3101(3) 0.4799(3)
C49_3 C 0.2105(2) 0.6003(3) 0.7175(2)
C50_3 C 0.2175(2) 0.2895(2) 0.3997(3)
C51_3 C 0.1762(3) 0.5926(3) 0.6954(3)
C52_3 C 0.1954(3) 0.3238(3) 0.4074(3)
H27_3 H 0.1591 0.6145 0.6881
H28_3 H 0.1881 0.3409 0.3855
C53_3 C 0.2060(3) 0.4467(3) 0.6731(3)
C54_3 C 0.1731(3) 0.2940(3) 0.5533(3)
H29_3 H 0.2339 0.4525 0.6761
H30_3 H 0.1761 0.2661 0.5475
C55_3 C 0.2354(3) 0.5673(3) 0.7281(3)
C56_3 C 0.2281(3) 0.2646(3) 0.4327(3)
H31_3 H 0.2593 0.5720 0.743
H32_3 H 0.243 0.2407 0.4280
C59_3 C 0.1660(3) 0.5539(3) 0.6835(3)
C60_3 C 0.1835(3) 0.3340(3) 0.4461(3)
H33_3 H 0.142 0.5499 0.6680
H34_3 H 0.1680 0.358 0.4501
C63_3 C 0.1237(2) 0.4280(2) 0.6645(2)
C64_3 C 0.1645(2) 0.3763(2) 0.5720(2)
H37_3 H 0.0958 0.4221 0.6618
H38_3 H 0.1618 0.4042 0.5779
N2_3 N 0.8684(4) 0.3684(4) 0.1316(4)
C21_3 C 0.8257(3) 0.3284(3) 0.0145(3)
C22_3 C 0.8496(3) 0.3519(3) 0.0965(3)
C23_3 C 0.8331(4) 0.3765(4) 0.0678(3)
H13_3 H 0.831 0.4043 0.0745
C24_3 C 0.8192(4) 0.3655(4) 0.0305(3)
H14_3 H 0.8043 0.3846 0.0152
C25_3 C 0.8489(7) 0.3118(7) 0.0851(5)
H15_3 H 0.8558 0.2916 0.1042
C26_3 C 0.8381(7) 0.3004(7) 0.0453(6)
H16_3 H 0.8391 0.2725 0.0385
O11_3 O 0.75010(18) 0.66567(16) 0.20340(16)
O13_2 O 0.79713(15) 0.66573(14) 0.25399(15)
O20_2 O 0.67079(18) 0.72007(17) 0.19676(18)
C32_3 C 0.7923(2) 0.6067(2) 0.2120(2)
C36_3 C 0.8378(3) 0.5498(3) 0.2157(2)
H20_3 H 0.8614 0.538 0.227
C42_3 C 0.8262(2) 0.5880(3) 0.2285(2)
H24_3 H 0.8414 0.6015 0.2487
C48_3 C 0.8162(3) 0.5281(3) 0.1868(3)
C58_3 C 0.7787(2) 0.6485(2) 0.2250(2)
C62_3 C 0.7818(3) 0.5458(3) 0.1709(4)
H36_3 H 0.7658 0.5314 0.152
C66_3 C 0.7703(3) 0.5853(3) 0.1826(4)
H40_3 H 0.7474 0.5975 0.1704
C67_3 C 0.9855(3) 0.3257(3) 0.1716(3)
C68_3 C 0.8284(3) 0.4855(3) 0.1743(3)
C69_3 C 0.9035(3) 0.3496(3) 0.1481(3)
C70_3 C 0.8519(3) 0.4035(3) 0.1504(3)
C71_3 C 0.9322(3) 0.3331(4) 0.1235(4)
C72_3 C 0.8765(4) 0.4322(3) 0.1669(4)
H41_3 H 0.9255 0.331 0.0957
H42_3 H 0.9043 0.4255 0.169
C73_3 C 0.9695(3) 0.3192(4) 0.1345(4)
C74_3 C 0.8655(4) 0.4695(3) 0.1808(4)
H43_3 H 0.9848 0.3043 0.1154
H44_3 H 0.8846 0.4848 0.1957
C75_3 C 0.9149(5) 0.3489(7) 0.1882(7)
C76_3 C 0.8118(7) 0.4149(5) 0.1511(7)
H45_3 H 0.8958 0.3558 0.2084
H46_3 H 0.7916 0.3958 0.1442
C77_3 C 0.9547(6) 0.3381(7) 0.1996(7)
C78_3 C 0.8004(7) 0.4547(6) 0.1619(7)
H47_3 H 0.9615 0.3391 0.2275
H48_3 H 0.7725 0.4615 0.1609
O1_3 O 0.85153(18) 0.25065(15) 0.75413(18)
O2_3 O 0.79660(16) 0.25010(18) 0.83433(16)
O3_3 O 0.74601(15) 0.29713(15) 0.83427(14)
O4_2 O 0.82921(18) 0.27993(17) 0.69676(18)
C3_3 C 0.7880(2) 0.2923(2) 0.8933(2)
C5_3 C 0.7843(2) 0.3378(3) 0.9502(3)
H2_3 H 0.773 0.3614 0.962
C6_3 C 0.8568(3) 0.2701(2) 0.7220(3)
C8_3 C 0.7715(2) 0.3262(2) 0.9120(3)
H4_3 H 0.7513 0.3414 0.8985
C9_3 C 0.9729(3) 0.2833(3) 0.7252(3)
H5_3 H 0.9948 0.2756 0.7421
C10_3 C 0.9799(3) 0.3063(3) 0.6899(3)
C11_3 C 0.8132(3) 0.3162(3) 0.9719(3)
C12_3 C 0.8997(3) 0.2825(2) 0.7105(2)
C13_3 C 0.9074(3) 0.3046(3) 0.6762(3)
H6_3 H 0.8855 0.3119 0.6591
C15_3 C 0.9327(3) 0.2719(3) 0.7354(3)
H8_3 H 0.9280 0.257 0.7593
C16_3 C 0.7750(2) 0.2787(2) 0.8515(2)
C17_3 C 0.9461(3) 0.3165(3) 0.6660(3)
H9_3 H 0.9501 0.3320 0.642
C18_3 C 0.8291(4) 0.2818(3) 0.9542(3)
H10_3 H 0.848 0.2658 0.9686
C20_3 C 0.8174(4) 0.2703(3) 0.9147(3)
H12_3 H 0.8296 0.2474 0.9025
O15_2 O 0.70287(15) 0.33427(14) 0.75399(15)
N1_4 N 0.3580(2) 0.6420(2) 0.1420(2)
O1_4 O 0.64847(18) 0.74935(15) 0.25413(18)
O2_4 O 0.70340(16) 0.74990(18) 0.33433(16)
O3_4 O 0.75399(15) 0.70287(15) 0.33427(14)
C1_4 C 0.3979(2) 0.6566(2) 0.1535(2)
C2_4 C 0.4081(2) 0.6613(2) 0.1947(2)
H1_4 H 0.3883 0.6565 0.2148
C3_4 C 0.7120(2) 0.7077(2) 0.3933(2)
C4_4 C 0.4774(3) 0.6806(2) 0.1780(2)
C5_4 C 0.7157(2) 0.6622(3) 0.4502(3)
H2_4 H 0.727 0.6386 0.462
C6_4 C 0.6432(3) 0.7299(2) 0.2220(3)
C7_4 C 0.4666(3) 0.6765(2) 0.1366(3)
H3_4 H 0.4865 0.6820 0.117
C8_4 C 0.7285(2) 0.6738(2) 0.4120(3)
H4_4 H 0.7487 0.6586 0.3985
C9_4 C 0.5271(3) 0.7167(3) 0.2252(3)
H5_4 H 0.5052 0.7244 0.2421
C10_4 C 0.5201(3) 0.6937(3) 0.1899(3)
C11_4 C 0.6868(3) 0.6838(3) 0.4719(3)
C12_4 C 0.6003(3) 0.7175(2) 0.2105(2)
C13_4 C 0.5926(3) 0.6954(3) 0.1762(3)
H6_4 H 0.6145 0.6881 0.1591
C14_4 C 0.4467(3) 0.6731(3) 0.2060(3)
H7_4 H 0.4525 0.6761 0.2339
C15_4 C 0.5673(3) 0.7281(3) 0.2354(3)
H8_4 H 0.5720 0.743 0.2593
C16_4 C 0.7250(2) 0.7213(2) 0.3515(2)
C17_4 C 0.5539(3) 0.6835(3) 0.1660(3)
H9_4 H 0.5499 0.6680 0.142
C18_4 C 0.6709(4) 0.7182(3) 0.4542(3)
H10_4 H 0.652 0.7342 0.4686
C19_4 C 0.4280(2) 0.6645(2) 0.1237(2)
H11_4 H 0.4221 0.6618 0.0958
C20_4 C 0.6826(4) 0.7297(3) 0.4147(3)
H12_4 H 0.6704 0.7526 0.4025
N2_4 N 0.6316(4) 0.6316(4) 0.6316(4)
C21_4 C 0.6743(3) 0.6716(3) 0.5145(3)
C22_4 C 0.6504(3) 0.6481(3) 0.5965(3)
C23_4 C 0.6669(4) 0.6235(4) 0.5678(3)
H13_4 H 0.669 0.5957 0.5745
C24_4 C 0.6808(4) 0.6345(4) 0.5305(3)
H14_4 H 0.6957 0.6154 0.5152
C25_4 C 0.6511(7) 0.6882(7) 0.5851(5)
H15_4 H 0.6442 0.7084 0.6042
C26_4 C 0.6619(7) 0.6996(7) 0.5453(6)
H16_4 H 0.6609 0.7275 0.5385
O10_4 O 0.33433(16) 0.70340(16) 0.74990(18)
O11_4 O 0.74990(18) 0.33433(16) 0.70340(16)
O19_2 O 0.27993(17) 0.69676(18) 0.82921(18)
C27_4 C 0.3465(2) 0.6021(2) 0.1566(2)
C28_4 C 0.3434(2) 0.6535(2) 0.1021(2)
C29_4 C 0.3053(2) 0.5919(2) 0.1613(2)
C30_4 C 0.3387(2) 0.6947(2) 0.0919(2)
H17_4 H 0.2852 0.6117 0.1565
H18_4 H 0.3435 0.7148 0.1117
C31_4 C 0.3933(2) 0.7120(2) 0.7077(2)
C32_4 C 0.7077(2) 0.3933(2) 0.7120(2)
C33_4 C 0.3220(2) 0.5226(3) 0.1806(2)
C34_4 C 0.3194(2) 0.6780(2) 0.0226(3)
C35_4 C 0.4502(3) 0.7157(2) 0.6622(3)
C36_4 C 0.6622(3) 0.4502(3) 0.7157(2)
H19_4 H 0.462 0.727 0.6386
H20_4 H 0.6386 0.462 0.727
C37_4 C 0.2780(3) 0.3568(3) 0.2299(2)
C39_4 C 0.3634(3) 0.5334(3) 0.1765(2)
C40_4 C 0.3235(2) 0.6366(3) 0.0334(3)
H21_4 H 0.383 0.5135 0.1820
H22_4 H 0.3180 0.617 0.0135
C41_4 C 0.4120(3) 0.7285(2) 0.6738(2)
C42_4 C 0.6738(2) 0.4120(3) 0.7285(2)
H23_4 H 0.3985 0.7487 0.6586
H24_4 H 0.6586 0.3985 0.7487
C43_4 C 0.2748(3) 0.4729(3) 0.2167(3)
H25_4 H 0.2579 0.4948 0.2244
C45_4 C 0.3101(3) 0.4799(3) 0.1937(3)
C47_4 C 0.4719(3) 0.6868(3) 0.6838(3)
C48_4 C 0.6838(3) 0.4719(3) 0.6868(3)
C49_4 C 0.2895(2) 0.3997(3) 0.2175(2)
C51_4 C 0.3238(3) 0.4074(3) 0.1954(3)
H27_4 H 0.3409 0.3855 0.1881
C53_4 C 0.2940(3) 0.5533(3) 0.1731(3)
C54_4 C 0.3269(3) 0.7060(3) 0.0533(3)
H29_4 H 0.2661 0.5475 0.1761
H30_4 H 0.3239 0.7339 0.0475
C55_4 C 0.2646(3) 0.4327(3) 0.2281(3)
H31_4 H 0.2407 0.4280 0.243
C57_4 C 0.3515(2) 0.7250(2) 0.7213(2)
C58_4 C 0.7213(2) 0.3515(2) 0.7250(2)
C59_4 C 0.3340(3) 0.4461(3) 0.1835(3)
H33_4 H 0.358 0.4501 0.1680
C61_4 C 0.4542(3) 0.6709(4) 0.7182(3)
C62_4 C 0.7182(3) 0.4542(3) 0.6709(4)
H35_4 H 0.4686 0.652 0.7342
H36_4 H 0.7342 0.4686 0.652
C63_4 C 0.3763(2) 0.5720(2) 0.1645(2)
C64_4 C 0.3355(2) 0.6237(2) 0.0720(2)
H37_4 H 0.4042 0.5779 0.1618
H38_4 H 0.3382 0.5958 0.0779
C65_4 C 0.4147(3) 0.6826(4) 0.7297(3)
C66_4 C 0.7297(3) 0.4147(3) 0.6826(4)
H39_4 H 0.4025 0.6704 0.7526
H40_4 H 0.7526 0.4025 0.6704
C67_4 C 0.5145(3) 0.6743(3) 0.6716(3)
C68_4 C 0.6716(3) 0.5145(3) 0.6743(3)
C69_4 C 0.5965(3) 0.6504(3) 0.6481(3)
C70_4 C 0.6481(3) 0.5965(3) 0.6504(3)
C71_4 C 0.5678(3) 0.6669(4) 0.6235(4)
C72_4 C 0.6235(4) 0.5678(3) 0.6669(4)
H41_4 H 0.5745 0.669 0.5957
H42_4 H 0.5957 0.5745 0.669
C73_4 C 0.5305(3) 0.6808(4) 0.6345(4)
C74_4 C 0.6345(4) 0.5305(3) 0.6808(4)
H43_4 H 0.5152 0.6957 0.6154
H44_4 H 0.6154 0.5152 0.6957
C75_4 C 0.5851(5) 0.6511(7) 0.6882(7)
C76_4 C 0.6882(7) 0.5851(5) 0.6511(7)
H45_4 H 0.6042 0.6442 0.7084
H46_4 H 0.7084 0.6042 0.6442
C77_4 C 0.5453(6) 0.6619(7) 0.6996(7)
C78_4 C 0.6996(7) 0.5453(6) 0.6619(7)
H47_4 H 0.5385 0.6609 0.7275
H48_4 H 0.7275 0.5385 0.6609
C38_4 C 0.2701(2) 0.7220(3) 0.8568(3)
C44_4 C 0.2833(3) 0.7252(3) 0.9729(3)
H26_4 H 0.2756 0.7421 0.9948
C46_4 C 0.3063(3) 0.6899(3) 0.9799(3)
C50_4 C 0.2825(2) 0.7105(2) 0.8997(3)
C52_4 C 0.3046(3) 0.6762(3) 0.9074(3)
H28_4 H 0.3119 0.6591 0.8855
C56_4 C 0.2719(3) 0.7354(3) 0.9327(3)
H32_4 H 0.257 0.7593 0.9280
C60_4 C 0.3165(3) 0.6660(3) 0.9461(3)
H34_4 H 0.3320 0.642 0.9501
Zn4_2 Zn 0.76947(2) 0.22159(2) 0.19968(2)
Zn12_2 Zn 0.71686(2) 0.21686(2) 0.28314(2)
O9_3 O 0.74935(15) 0.24587(18) 0.14847(18)
O11_5 O 0.74990(18) 0.16567(16) 0.20340(16)
O13_3 O 0.70287(15) 0.16573(14) 0.25399(15)
O20_3 O 0.82921(18) 0.22007(17) 0.19676(18)
C32_5 C 0.7077(2) 0.1067(2) 0.2120(2)
C36_5 C 0.6622(3) 0.0498(3) 0.2157(2)
H20_5 H 0.6386 0.038 0.227
C42_5 C 0.6738(2) 0.0880(3) 0.2285(2)
H24_5 H 0.6586 0.1015 0.2487
C48_5 C 0.6838(3) 0.0281(3) 0.1868(3)
C58_5 C 0.7213(2) 0.1485(2) 0.2250(2)
C62_5 C 0.7182(3) 0.0458(3) 0.1709(4)
H36_5 H 0.7342 0.0314 0.152
C66_5 C 0.7297(3) 0.0853(3) 0.1826(4)
H40_5 H 0.7526 0.0975 0.1704
O22_2 O 0.75145(13) 0.25145(13) 0.24855(13)
Zn7_2 Zn 0.22159(2) 0.19968(2) 0.76947(2)
Zn8_3 Zn 0.30032(2) 0.23053(2) 0.72159(2)
O6_3 O 0.24587(18) 0.14847(18) 0.74935(15)
O16_3 O 0.30324(18) 0.17079(18) 0.72007(17)
C37_5 C 0.2780(3) 0.1432(3) 0.7299(2)
C43_5 C 0.2748(3) 0.0271(3) 0.7167(3)
H25_5 H 0.2579 0.0052 0.7244
C45_5 C 0.3101(3) 0.0201(3) 0.6937(3)
C49_5 C 0.2895(2) 0.1003(3) 0.7175(2)
C51_5 C 0.3238(3) 0.0926(3) 0.6954(3)
H27_5 H 0.3409 0.1145 0.6881
C55_5 C 0.2646(3) 0.0673(3) 0.7281(3)
H31_5 H 0.2407 0.0720 0.743
C59_5 C 0.3340(3) 0.0539(3) 0.6835(3)
H33_5 H 0.358 0.0499 0.6680
N2_5 N 0.6316(4) 0.8684(4) 0.1316(4)
C21_5 C 0.6743(3) 0.8284(3) 0.0145(3)
C22_5 C 0.6504(3) 0.8519(3) 0.0965(3)
C23_5 C 0.6669(4) 0.8765(4) 0.0678(3)
H13_5 H 0.669 0.9043 0.0745
C24_5 C 0.6808(4) 0.8655(4) 0.0305(3)
H14_5 H 0.6957 0.8846 0.0152
C25_5 C 0.6511(7) 0.8118(7) 0.0851(5)
H15_5 H 0.6442 0.7916 0.1042
C26_5 C 0.6619(7) 0.8004(7) 0.0453(6)
H16_5 H 0.6609 0.7725 0.0385
Zn3 Zn 0.27841(2) 0.80032(2) 0.26947(2)
Zn11_3 Zn 0.28314(2) 0.71686(2) 0.21686(2)
O8_3 O 0.25413(18) 0.85153(18) 0.24935(15)
O10_5 O 0.33433(16) 0.79660(16) 0.24990(18)
O12_3 O 0.33427(14) 0.74601(15) 0.20287(15)
O19_3 O 0.27993(17) 0.80324(18) 0.32921(18)
C31_5 C 0.3933(2) 0.7880(2) 0.2077(2)
C35_5 C 0.4502(3) 0.7843(2) 0.1622(3)
H19_5 H 0.462 0.773 0.1386
C41_5 C 0.4120(3) 0.7715(2) 0.1738(2)
H23_5 H 0.3985 0.7513 0.1586
C47_5 C 0.4719(3) 0.8132(3) 0.1838(3)
C57_5 C 0.3515(2) 0.7750(2) 0.2213(2)
C61_5 C 0.4542(3) 0.8291(4) 0.2182(3)
H35_5 H 0.4686 0.848 0.2342
C65_5 C 0.4147(3) 0.8174(4) 0.2297(3)
H39_5 H 0.4025 0.8296 0.2526
O21_3 O 0.24855(13) 0.75145(13) 0.25145(13)
C67_5 C 0.5145(3) 0.8257(3) 0.1716(3)
C68_5 C 0.6716(3) 0.9855(3) 0.1743(3)
C69_5 C 0.5965(3) 0.8496(3) 0.1481(3)
C70_5 C 0.6481(3) 0.9035(3) 0.1504(3)
C71_5 C 0.5678(3) 0.8331(4) 0.1235(4)
C72_5 C 0.6235(4) 0.9322(3) 0.1669(4)
H41_5 H 0.5745 0.831 0.0957
H42_5 H 0.5957 0.9255 0.169
C73_5 C 0.5305(3) 0.8192(4) 0.1345(4)
C74_5 C 0.6345(4) 0.9695(3) 0.1808(4)
H43_5 H 0.5152 0.8043 0.1154
H44_5 H 0.6154 0.9848 0.1957
C75_5 C 0.5851(5) 0.8489(7) 0.1882(7)
C76_5 C 0.6882(7) 0.9149(5) 0.1511(7)
H45_5 H 0.6042 0.8558 0.2084
H46_5 H 0.7084 0.8958 0.1442
C77_5 C 0.5453(6) 0.8381(7) 0.1996(7)
C78_5 C 0.6996(7) 0.9547(6) 0.1619(7)
H47_5 H 0.5385 0.8391 0.2275
H48_5 H 0.7275 0.9615 0.1609
Zn1_3 Zn 0.69968(2) 0.73053(2) 0.77841(2)
Zn2_2 Zn 0.78314(2) 0.78314(2) 0.78314(2)
N1_5 N 0.3580(2) 0.8580(2) 0.6420(2)
O1_5 O 0.64847(18) 0.75065(15) 0.75413(18)
O2_5 O 0.70340(16) 0.75010(18) 0.83433(16)
O3_5 O 0.75399(15) 0.79713(15) 0.83427(14)
O4_3 O 0.67079(18) 0.77993(17) 0.69676(18)
C1_5 C 0.3979(2) 0.8434(2) 0.6535(2)
C2_5 C 0.4081(2) 0.8387(2) 0.6947(2)
H1_5 H 0.3883 0.8435 0.7148
C3_5 C 0.7120(2) 0.7923(2) 0.8933(2)
C4_5 C 0.4774(3) 0.8194(2) 0.6780(2)
C5_5 C 0.7157(2) 0.8378(3) 0.9502(3)
H2_5 H 0.727 0.8614 0.962
C6_5 C 0.6432(3) 0.7701(2) 0.7220(3)
C7_5 C 0.4666(3) 0.8235(2) 0.6366(3)
H3_5 H 0.4865 0.8180 0.617
C8_5 C 0.7285(2) 0.8262(2) 0.9120(3)
H4_5 H 0.7487 0.8414 0.8985
C9_5 C 0.5271(3) 0.7833(3) 0.7252(3)
H5_5 H 0.5052 0.7756 0.7421
C10_5 C 0.5201(3) 0.8063(3) 0.6899(3)
C11_5 C 0.6868(3) 0.8162(3) 0.9719(3)
C12_5 C 0.6003(3) 0.7825(2) 0.7105(2)
C13_5 C 0.5926(3) 0.8046(3) 0.6762(3)
H6_5 H 0.6145 0.8119 0.6591
C14_5 C 0.4467(3) 0.8269(3) 0.7060(3)
H7_5 H 0.4525 0.8239 0.7339
C15_5 C 0.5673(3) 0.7719(3) 0.7354(3)
H8_5 H 0.5720 0.757 0.7593
C16_5 C 0.7250(2) 0.7787(2) 0.8515(2)
C17_5 C 0.5539(3) 0.8165(3) 0.6660(3)
H9_5 H 0.5499 0.8320 0.642
C18_5 C 0.6709(4) 0.7818(3) 0.9542(3)
H10_5 H 0.652 0.7658 0.9686
C19_5 C 0.4280(2) 0.8355(2) 0.6237(2)
H11_5 H 0.4221 0.8382 0.5958
C20_5 C 0.6826(4) 0.7703(3) 0.9147(3)
H12_5 H 0.6704 0.7474 0.9025
O5_2 O 0.74855(13) 0.74855(13) 0.74855(13)
Zn5_2 Zn 0.73053(2) 0.77841(2) 0.69968(2)
Zn6_3 Zn 0.77841(2) 0.69968(2) 0.73053(2)
Zn9_3 Zn 0.23053(2) 0.72159(2) 0.30032(2)
O7_3 O 0.25065(15) 0.74587(18) 0.35153(18)
O14_3 O 0.83427(14) 0.75399(15) 0.79713(15)
O15_3 O 0.79713(15) 0.83427(14) 0.75399(15)
O18_3 O 0.69676(18) 0.67079(18) 0.77993(17)
C27_5 C 0.3465(2) 0.8979(2) 0.6566(2)
C28_5 C 0.3434(2) 0.8465(2) 0.6021(2)
C29_5 C 0.3053(2) 0.9081(2) 0.6613(2)
C30_5 C 0.3387(2) 0.8053(2) 0.5919(2)
H17_5 H 0.2852 0.8883 0.6565
H18_5 H 0.3435 0.7852 0.6117
C33_5 C 0.3220(2) 0.9774(3) 0.6806(2)
C34_5 C 0.3194(2) 0.8220(2) 0.5226(3)
C38_5 C 0.2701(2) 0.7780(3) 0.3568(3)
C39_5 C 0.3634(3) 0.9666(3) 0.6765(2)
C40_5 C 0.3235(2) 0.8634(3) 0.5334(3)
H21_5 H 0.383 0.9865 0.6820
H22_5 H 0.3180 0.883 0.5135
C44_5 C 0.2833(3) 0.7748(3) 0.4729(3)
H26_5 H 0.2756 0.7579 0.4948
C46_5 C 0.3063(3) 0.8101(3) 0.4799(3)
C50_5 C 0.2825(2) 0.7895(2) 0.3997(3)
C52_5 C 0.3046(3) 0.8238(3) 0.4074(3)
H28_5 H 0.3119 0.8409 0.3855
C53_5 C 0.2940(3) 0.9467(3) 0.6731(3)
C54_5 C 0.3269(3) 0.7940(3) 0.5533(3)
H29_5 H 0.2661 0.9525 0.6761
H30_5 H 0.3239 0.7661 0.5475
C56_5 C 0.2719(3) 0.7646(3) 0.4327(3)
H32_5 H 0.257 0.7407 0.4280
C60_5 C 0.3165(3) 0.8340(3) 0.4461(3)
H34_5 H 0.3320 0.858 0.4501
C63_5 C 0.3763(2) 0.9280(2) 0.6645(2)
C64_5 C 0.3355(2) 0.8763(2) 0.5720(2)
H37_5 H 0.4042 0.9221 0.6618
H38_5 H 0.3382 0.9042 0.5779
N1_6 N 0.1420(2) 0.1420(2) 0.1420(2)
C1_6 C 0.1021(2) 0.1566(2) 0.1535(2)
C2_6 C 0.0919(2) 0.1613(2) 0.1947(2)
H1_6 H 0.1117 0.1565 0.2148
C4_6 C 0.0226(3) 0.1806(2) 0.1780(2)
C7_6 C 0.0334(3) 0.1765(2) 0.1366(3)
H3_6 H 0.0135 0.1820 0.117
C14_6 C 0.0533(3) 0.1731(3) 0.2060(3)
H7_6 H 0.0475 0.1761 0.2339
C19_6 C 0.0720(2) 0.1645(2) 0.1237(2)
H11_6 H 0.0779 0.1618 0.0958
Zn11_4 Zn 0.21686(2) 0.28314(2) 0.71686(2)
O10_6 O 0.16567(16) 0.20340(16) 0.74990(18)
O12_4 O 0.16573(14) 0.25399(15) 0.70287(15)
O19_4 O 0.22007(17) 0.19676(18) 0.82921(18)
C27_6 C 0.1535(2) 0.1021(2) 0.1566(2)
C28_6 C 0.1566(2) 0.1535(2) 0.1021(2)
C29_6 C 0.1947(2) 0.0919(2) 0.1613(2)
C30_6 C 0.1613(2) 0.1947(2) 0.0919(2)
H17_6 H 0.2148 0.1117 0.1565
H18_6 H 0.1565 0.2148 0.1117
C31_6 C 0.1067(2) 0.2120(2) 0.7077(2)
C33_6 C 0.1780(2) 0.0226(3) 0.1806(2)
C34_6 C 0.1806(2) 0.1780(2) 0.0226(3)
C35_6 C 0.0498(3) 0.2157(2) 0.6622(3)
H19_6 H 0.038 0.227 0.6386
C39_6 C 0.1366(3) 0.0334(3) 0.1765(2)
C40_6 C 0.1765(2) 0.1366(3) 0.0334(3)
H21_6 H 0.117 0.0135 0.1820
H22_6 H 0.1820 0.117 0.0135
C41_6 C 0.0880(3) 0.2285(2) 0.6738(2)
H23_6 H 0.1015 0.2487 0.6586
C47_6 C 0.0281(3) 0.1868(3) 0.6838(3)
C53_6 C 0.2060(3) 0.0533(3) 0.1731(3)
C54_6 C 0.1731(3) 0.2060(3) 0.0533(3)
H29_6 H 0.2339 0.0475 0.1761
H30_6 H 0.1761 0.2339 0.0475
C57_6 C 0.1485(2) 0.2250(2) 0.7213(2)
C61_6 C 0.0458(3) 0.1709(4) 0.7182(3)
H35_6 H 0.0314 0.152 0.7342
C63_6 C 0.1237(2) 0.0720(2) 0.1645(2)
C64_6 C 0.1645(2) 0.1237(2) 0.0720(2)
H37_6 H 0.0958 0.0779 0.1618
H38_6 H 0.1618 0.0958 0.0779
C65_6 C 0.0853(3) 0.1826(4) 0.7297(3)
H39_6 H 0.0975 0.1704 0.7526
O21_4 O 0.25145(13) 0.24855(13) 0.75145(13)
Zn9_4 Zn 0.26947(2) 0.27841(2) 0.80032(2)
O7_4 O 0.24935(15) 0.25413(18) 0.85153(18)
C38_6 C 0.2299(2) 0.2220(3) 0.8568(3)
C44_6 C 0.2167(3) 0.2252(3) 0.9729(3)
H26_6 H 0.2244 0.2421 0.9948
C46_6 C 0.1937(3) 0.1899(3) 0.9799(3)
C50_6 C 0.2175(2) 0.2105(2) 0.8997(3)
C52_6 C 0.1954(3) 0.1762(3) 0.9074(3)
H28_6 H 0.1881 0.1591 0.8855
C56_6 C 0.2281(3) 0.2354(3) 0.9327(3)
H32_6 H 0.243 0.2593 0.9280
C60_6 C 0.1835(3) 0.1660(3) 0.9461(3)
H34_6 H 0.1680 0.142 0.9501
Zn8_4 Zn 0.19968(2) 0.76947(2) 0.22159(2)
O16_4 O 0.19676(18) 0.82921(18) 0.22007(17)
C37_6 C 0.2220(3) 0.8568(3) 0.2299(2)
C43_6 C 0.2252(3) 0.9729(3) 0.2167(3)
H25_6 H 0.2421 0.9948 0.2244
C45_6 C 0.1899(3) 0.9799(3) 0.1937(3)
C49_6 C 0.2105(2) 0.8997(3) 0.2175(2)
C51_6 C 0.1762(3) 0.9074(3) 0.1954(3)
H27_6 H 0.1591 0.8855 0.1881
C55_6 C 0.2354(3) 0.9327(3) 0.2281(3)
H31_6 H 0.2593 0.9280 0.243
C59_6 C 0.1660(3) 0.9461(3) 0.1835(3)
H33_6 H 0.142 0.9501 0.1680
Zn1_4 Zn 0.80032(2) 0.26947(2) 0.27841(2)
O1_6 O 0.85153(18) 0.24935(15) 0.25413(18)
O2_6 O 0.79660(16) 0.24990(18) 0.33433(16)
O3_6 O 0.74601(15) 0.20287(15) 0.33427(14)
C3_6 C 0.7880(2) 0.2077(2) 0.3933(2)
C5_6 C 0.7843(2) 0.1622(3) 0.4502(3)
H2_6 H 0.773 0.1386 0.462
C6_6 C 0.8568(3) 0.2299(2) 0.2220(3)
C8_6 C 0.7715(2) 0.1738(2) 0.4120(3)
H4_6 H 0.7513 0.1586 0.3985
C9_6 C 0.9729(3) 0.2167(3) 0.2252(3)
H5_6 H 0.9948 0.2244 0.2421
C10_6 C 0.9799(3) 0.1937(3) 0.1899(3)
C11_6 C 0.8132(3) 0.1838(3) 0.4719(3)
C12_6 C 0.8997(3) 0.2175(2) 0.2105(2)
C13_6 C 0.9074(3) 0.1954(3) 0.1762(3)
H6_6 H 0.8855 0.1881 0.1591
C15_6 C 0.9327(3) 0.2281(3) 0.2354(3)
H8_6 H 0.9280 0.243 0.2593
C16_6 C 0.7750(2) 0.2213(2) 0.3515(2)
C17_6 C 0.9461(3) 0.1835(3) 0.1660(3)
H9_6 H 0.9501 0.1680 0.142
C18_6 C 0.8291(4) 0.2182(3) 0.4542(3)
H10_6 H 0.848 0.2342 0.4686
C20_6 C 0.8174(4) 0.2297(3) 0.4147(3)
H12_6 H 0.8296 0.2526 0.4025
N2_6 N 0.8684(4) 0.1316(4) 0.6316(4)
C21_6 C 0.8257(3) 0.1716(3) 0.5145(3)
C22_6 C 0.8496(3) 0.1481(3) 0.5965(3)
C23_6 C 0.8331(4) 0.1235(4) 0.5678(3)
H13_6 H 0.831 0.0957 0.5745
C24_6 C 0.8192(4) 0.1345(4) 0.5305(3)
H14_6 H 0.8043 0.1154 0.5152
C25_6 C 0.8489(7) 0.1882(7) 0.5851(5)
H15_6 H 0.8558 0.2084 0.6042
C26_6 C 0.8381(7) 0.1996(7) 0.5453(6)
H16_6 H 0.8391 0.2275 0.5385
Zn6_4 Zn 0.72159(2) 0.30032(2) 0.23053(2)
O14_4 O 0.66573(14) 0.24601(15) 0.29713(15)
O18_4 O 0.80324(18) 0.32921(18) 0.27993(17)
C67_6 C 0.9855(3) 0.1743(3) 0.6716(3)
C68_6 C 0.8284(3) 0.0145(3) 0.6743(3)
C69_6 C 0.9035(3) 0.1504(3) 0.6481(3)
C70_6 C 0.8519(3) 0.0965(3) 0.6504(3)
C71_6 C 0.9322(3) 0.1669(4) 0.6235(4)
C72_6 C 0.8765(4) 0.0678(3) 0.6669(4)
H41_6 H 0.9255 0.169 0.5957
H42_6 H 0.9043 0.0745 0.669
C73_6 C 0.9695(3) 0.1808(4) 0.6345(4)
C74_6 C 0.8655(4) 0.0305(3) 0.6808(4)
H43_6 H 0.9848 0.1957 0.6154
H44_6 H 0.8846 0.0152 0.6957
C75_6 C 0.9149(5) 0.1511(7) 0.6882(7)
C76_6 C 0.8118(7) 0.0851(5) 0.6511(7)
H45_6 H 0.8958 0.1442 0.7084
H46_6 H 0.7916 0.1042 0.6442
C77_6 C 0.9547(6) 0.1619(7) 0.6996(7)
C78_6 C 0.8004(7) 0.0453(6) 0.6619(7)
H47_6 H 0.9615 0.1609 0.7275
H48_6 H 0.7725 0.0385 0.6609
O9_4 O 0.75065(15) 0.75413(18) 0.64847(18)
O11_6 O 0.75010(18) 0.83433(16) 0.70340(16)
C32_6 C 0.7923(2) 0.8933(2) 0.7120(2)
C36_6 C 0.8378(3) 0.9502(3) 0.7157(2)
H20_6 H 0.8614 0.962 0.727
C42_6 C 0.8262(2) 0.9120(3) 0.7285(2)
H24_6 H 0.8414 0.8985 0.7487
C48_6 C 0.8162(3) 0.9719(3) 0.6868(3)
C58_6 C 0.7787(2) 0.8515(2) 0.7250(2)
C62_6 C 0.7818(3) 0.9542(3) 0.6709(4)
H36_6 H 0.7658 0.9686 0.652
C66_6 C 0.7703(3) 0.9147(3) 0.6826(4)
H40_6 H 0.7474 0.9025 0.6704
O1_7 O 0.14847(18) 0.74935(15) 0.24587(18)
O2_7 O 0.20340(16) 0.74990(18) 0.16567(16)
O3_7 O 0.25399(15) 0.70287(15) 0.16573(14)
O4_4 O 0.17079(18) 0.72007(17) 0.30324(18)
C3_7 C 0.2120(2) 0.7077(2) 0.1067(2)
C5_7 C 0.2157(2) 0.6622(3) 0.0498(3)
H2_7 H 0.227 0.6386 0.038
C6_7 C 0.1432(3) 0.7299(2) 0.2780(3)
C8_7 C 0.2285(2) 0.6738(2) 0.0880(3)
H4_7 H 0.2487 0.6586 0.1015
C9_7 C 0.0271(3) 0.7167(3) 0.2748(3)
H5_7 H 0.0052 0.7244 0.2579
C10_7 C 0.0201(3) 0.6937(3) 0.3101(3)
C11_7 C 0.1868(3) 0.6838(3) 0.0281(3)
C12_7 C 0.1003(3) 0.7175(2) 0.2895(2)
C13_7 C 0.0926(3) 0.6954(3) 0.3238(3)
H6_7 H 0.1145 0.6881 0.3409
C15_7 C 0.0673(3) 0.7281(3) 0.2646(3)
H8_7 H 0.0720 0.743 0.2407
C16_7 C 0.2250(2) 0.7213(2) 0.1485(2)
C17_7 C 0.0539(3) 0.6835(3) 0.3340(3)
H9_7 H 0.0499 0.6680 0.358
C18_7 C 0.1709(4) 0.7182(3) 0.0458(3)
H10_7 H 0.152 0.7342 0.0314
C20_7 C 0.1826(4) 0.7297(3) 0.0853(3)
H12_7 H 0.1704 0.7526 0.0975
O15_4 O 0.29713(15) 0.66573(14) 0.24601(15)
N2_7 N 0.1316(4) 0.6316(4) 0.8684(4)
C21_7 C 0.1743(3) 0.6716(3) 0.9855(3)
C22_7 C 0.1504(3) 0.6481(3) 0.9035(3)
C23_7 C 0.1669(4) 0.6235(4) 0.9322(3)
H13_7 H 0.169 0.5957 0.9255
C24_7 C 0.1808(4) 0.6345(4) 0.9695(3)
H14_7 H 0.1957 0.6154 0.9848
C25_7 C 0.1511(7) 0.6882(7) 0.9149(5)
H15_7 H 0.1442 0.7084 0.8958
C26_7 C 0.1619(7) 0.6996(7) 0.9547(6)
H16_7 H 0.1609 0.7275 0.9615
O11_7 O 0.24990(18) 0.33433(16) 0.79660(16)
O13_4 O 0.20287(15) 0.33427(14) 0.74601(15)
O20_4 O 0.32921(18) 0.27993(17) 0.80324(18)
C32_7 C 0.2077(2) 0.3933(2) 0.7880(2)
C36_7 C 0.1622(3) 0.4502(3) 0.7843(2)
H20_7 H 0.1386 0.462 0.773
C42_7 C 0.1738(2) 0.4120(3) 0.7715(2)
H24_7 H 0.1586 0.3985 0.7513
C48_7 C 0.1838(3) 0.4719(3) 0.8132(3)
C58_7 C 0.2213(2) 0.3515(2) 0.7750(2)
C62_7 C 0.2182(3) 0.4542(3) 0.8291(4)
H36_7 H 0.2342 0.4686 0.848
C66_7 C 0.2297(3) 0.4147(3) 0.8174(4)
H40_7 H 0.2526 0.4025 0.8296
C67_7 C 0.0145(3) 0.6743(3) 0.8284(3)
C68_7 C 0.1716(3) 0.5145(3) 0.8257(3)
C69_7 C 0.0965(3) 0.6504(3) 0.8519(3)
C70_7 C 0.1481(3) 0.5965(3) 0.8496(3)
C71_7 C 0.0678(3) 0.6669(4) 0.8765(4)
C72_7 C 0.1235(4) 0.5678(3) 0.8331(4)
H41_7 H 0.0745 0.669 0.9043
H42_7 H 0.0957 0.5745 0.831
C73_7 C 0.0305(3) 0.6808(4) 0.8655(4)
C74_7 C 0.1345(4) 0.5305(3) 0.8192(4)
H43_7 H 0.0152 0.6957 0.8846
H44_7 H 0.1154 0.5152 0.8043
C75_7 C 0.0851(5) 0.6511(7) 0.8118(7)
C76_7 C 0.1882(7) 0.5851(5) 0.8489(7)
H45_7 H 0.1042 0.6442 0.7916
H46_7 H 0.2084 0.6042 0.8558
C77_7 C 0.0453(6) 0.6619(7) 0.8004(7)
C78_7 C 0.1996(7) 0.5453(6) 0.8381(7)
H47_7 H 0.0385 0.6609 0.7725
H48_7 H 0.2275 0.5385 0.8391
N1_7 N 0.8580(2) 0.6420(2) 0.3580(2)
C1_7 C 0.8979(2) 0.6566(2) 0.3465(2)
C2_7 C 0.9081(2) 0.6613(2) 0.3053(2)
H1_7 H 0.8883 0.6565 0.2852
C4_7 C 0.9774(3) 0.6806(2) 0.3220(2)
C7_7 C 0.9666(3) 0.6765(2) 0.3634(3)
H3_7 H 0.9865 0.6820 0.383
C14_7 C 0.9467(3) 0.6731(3) 0.2940(3)
H7_7 H 0.9525 0.6761 0.2661
C19_7 C 0.9280(2) 0.6645(2) 0.3763(2)
H11_7 H 0.9221 0.6618 0.4042
O6_4 O 0.74587(18) 0.35153(18) 0.25065(15)
O17_3 O 0.77993(17) 0.69676(18) 0.67079(18)
C27_7 C 0.8465(2) 0.6021(2) 0.3434(2)
C28_7 C 0.8434(2) 0.6535(2) 0.3979(2)
C29_7 C 0.8053(2) 0.5919(2) 0.3387(2)
C30_7 C 0.8387(2) 0.6947(2) 0.4081(2)
H17_7 H 0.7852 0.6117 0.3435
H18_7 H 0.8435 0.7148 0.3883
C33_7 C 0.8220(2) 0.5226(3) 0.3194(2)
C34_7 C 0.8194(2) 0.6780(2) 0.4774(3)
C37_7 C 0.7780(3) 0.3568(3) 0.2701(2)
C38_7 C 0.7701(2) 0.7220(3) 0.6432(3)
C39_7 C 0.8634(3) 0.5334(3) 0.3235(2)
C40_7 C 0.8235(2) 0.6366(3) 0.4666(3)
H21_7 H 0.883 0.5135 0.3180
H22_7 H 0.8180 0.617 0.4865
C43_7 C 0.7748(3) 0.4729(3) 0.2833(3)
C44_7 C 0.7833(3) 0.7252(3) 0.5271(3)
H25_7 H 0.7579 0.4948 0.2756
H26_7 H 0.7756 0.7421 0.5052
C45_7 C 0.8101(3) 0.4799(3) 0.3063(3)
C46_7 C 0.8063(3) 0.6899(3) 0.5201(3)
C49_7 C 0.7895(2) 0.3997(3) 0.2825(2)
C50_7 C 0.7825(2) 0.7105(2) 0.6003(3)
C51_7 C 0.8238(3) 0.4074(3) 0.3046(3)
C52_7 C 0.8046(3) 0.6762(3) 0.5926(3)
H27_7 H 0.8409 0.3855 0.3119
H28_7 H 0.8119 0.6591 0.6145
C53_7 C 0.7940(3) 0.5533(3) 0.3269(3)
C54_7 C 0.8269(3) 0.7060(3) 0.4467(3)
H29_7 H 0.7661 0.5475 0.3239
H30_7 H 0.8239 0.7339 0.4525
C55_7 C 0.7646(3) 0.4327(3) 0.2719(3)
C56_7 C 0.7719(3) 0.7354(3) 0.5673(3)
H31_7 H 0.7407 0.4280 0.257
H32_7 H 0.757 0.7593 0.5720
C59_7 C 0.8340(3) 0.4461(3) 0.3165(3)
C60_7 C 0.8165(3) 0.6660(3) 0.5539(3)
H33_7 H 0.858 0.4501 0.3320
H34_7 H 0.8320 0.642 0.5499
C63_7 C 0.8763(2) 0.5720(2) 0.3355(2)
C64_7 C 0.8355(2) 0.6237(2) 0.4280(2)
H37_7 H 0.9042 0.5779 0.3382
H38_7 H 0.8382 0.5958 0.4221
O8_4 O 0.75413(18) 0.64847(18) 0.75065(15)
O10_7 O 0.83433(16) 0.70340(16) 0.75010(18)
C31_7 C 0.8933(2) 0.7120(2) 0.7923(2)
C35_7 C 0.9502(3) 0.7157(2) 0.8378(3)
H19_7 H 0.962 0.727 0.8614
C41_7 C 0.9120(3) 0.7285(2) 0.8262(2)
H23_7 H 0.8985 0.7487 0.8414
C47_7 C 0.9719(3) 0.6868(3) 0.8162(3)
C57_7 C 0.8515(2) 0.7250(2) 0.7787(2)
C61_7 C 0.9542(3) 0.6709(4) 0.7818(3)
H35_7 H 0.9686 0.652 0.7658
C65_7 C 0.9147(3) 0.6826(4) 0.7703(3)
H39_7 H 0.9025 0.6704 0.7474
O17_4 O 0.72007(17) 0.30324(18) 0.17079(18)
C38_8 C 0.7299(2) 0.2780(3) 0.1432(3)
C44_8 C 0.7167(3) 0.2748(3) 0.0271(3)
H26_8 H 0.7244 0.2579 0.0052
C46_8 C 0.6937(3) 0.3101(3) 0.0201(3)
C50_8 C 0.7175(2) 0.2895(2) 0.1003(3)
C52_8 C 0.6954(3) 0.3238(3) 0.0926(3)
H28_8 H 0.6881 0.3409 0.1145
C56_8 C 0.7281(3) 0.2646(3) 0.0673(3)
H32_8 H 0.743 0.2407 0.0720
C60_8 C 0.6835(3) 0.3340(3) 0.0539(3)
H34_8 H 0.6680 0.358 0.0499
N1_8 N 0.6420(2) 0.3580(2) 0.8580(2)
O1_8 O 0.35153(18) 0.25065(15) 0.74587(18)
O2_8 O 0.29660(16) 0.25010(18) 0.66567(16)
O3_8 O 0.24601(15) 0.29713(15) 0.66573(14)
C1_8 C 0.6021(2) 0.3434(2) 0.8465(2)
C2_8 C 0.5919(2) 0.3387(2) 0.8053(2)
H1_8 H 0.6117 0.3435 0.7852
C3_8 C 0.2880(2) 0.2923(2) 0.6067(2)
C4_8 C 0.5226(3) 0.3194(2) 0.8220(2)
C5_8 C 0.2843(2) 0.3378(3) 0.5498(3)
H2_8 H 0.273 0.3614 0.538
C6_8 C 0.3568(3) 0.2701(2) 0.7780(3)
C7_8 C 0.5334(3) 0.3235(2) 0.8634(3)
H3_8 H 0.5135 0.3180 0.883
C8_8 C 0.2715(2) 0.3262(2) 0.5880(3)
H4_8 H 0.2513 0.3414 0.6015
C9_8 C 0.4729(3) 0.2833(3) 0.7748(3)
H5_8 H 0.4948 0.2756 0.7579
C10_8 C 0.4799(3) 0.3063(3) 0.8101(3)
C11_8 C 0.3132(3) 0.3162(3) 0.5281(3)
C12_8 C 0.3997(3) 0.2825(2) 0.7895(2)
C13_8 C 0.4074(3) 0.3046(3) 0.8238(3)
H6_8 H 0.3855 0.3119 0.8409
C14_8 C 0.5533(3) 0.3269(3) 0.7940(3)
H7_8 H 0.5475 0.3239 0.7661
C15_8 C 0.4327(3) 0.2719(3) 0.7646(3)
H8_8 H 0.4280 0.257 0.7407
C16_8 C 0.2750(2) 0.2787(2) 0.6485(2)
C17_8 C 0.4461(3) 0.3165(3) 0.8340(3)
H9_8 H 0.4501 0.3320 0.858
C18_8 C 0.3291(4) 0.2818(3) 0.5458(3)
H10_8 H 0.348 0.2658 0.5314
C19_8 C 0.5720(2) 0.3355(2) 0.8763(2)
H11_8 H 0.5779 0.3382 0.9042
C20_8 C 0.3174(4) 0.2703(3) 0.5853(3)
H12_8 H 0.3296 0.2474 0.5975
N2_8 N 0.3684(4) 0.3684(4) 0.3684(4)
C21_8 C 0.3257(3) 0.3284(3) 0.4855(3)
C22_8 C 0.3496(3) 0.3519(3) 0.4035(3)
C23_8 C 0.3331(4) 0.3765(4) 0.4322(3)
H13_8 H 0.331 0.4043 0.4255
C24_8 C 0.3192(4) 0.3655(4) 0.4695(3)
H14_8 H 0.3043 0.3846 0.4848
C25_8 C 0.3489(7) 0.3118(7) 0.4149(5)
H15_8 H 0.3558 0.2916 0.3958
C26_8 C 0.3381(7) 0.3004(7) 0.4547(6)
H16_8 H 0.3391 0.2725 0.4615
O10_8 O 0.66567(16) 0.29660(16) 0.25010(18)
O11_8 O 0.25010(18) 0.66567(16) 0.29660(16)
C27_8 C 0.6535(2) 0.3979(2) 0.8434(2)
C28_8 C 0.6566(2) 0.3465(2) 0.8979(2)
C29_8 C 0.6947(2) 0.4081(2) 0.8387(2)
C30_8 C 0.6613(2) 0.3053(2) 0.9081(2)
H17_8 H 0.7148 0.3883 0.8435
H18_8 H 0.6565 0.2852 0.8883
C31_8 C 0.6067(2) 0.2880(2) 0.2923(2)
C32_8 C 0.2923(2) 0.6067(2) 0.2880(2)
C33_8 C 0.6780(2) 0.4774(3) 0.8194(2)
C34_8 C 0.6806(2) 0.3220(2) 0.9774(3)
C35_8 C 0.5498(3) 0.2843(2) 0.3378(3)
C36_8 C 0.3378(3) 0.5498(3) 0.2843(2)
H19_8 H 0.538 0.273 0.3614
H20_8 H 0.3614 0.538 0.273
C37_8 C 0.7220(3) 0.6432(3) 0.7701(2)
C39_8 C 0.6366(3) 0.4666(3) 0.8235(2)
C40_8 C 0.6765(2) 0.3634(3) 0.9666(3)
H21_8 H 0.617 0.4865 0.8180
H22_8 H 0.6820 0.383 0.9865
C41_8 C 0.5880(3) 0.2715(2) 0.3262(2)
C42_8 C 0.3262(2) 0.5880(3) 0.2715(2)
H23_8 H 0.6015 0.2513 0.3414
H24_8 H 0.3414 0.6015 0.2513
C43_8 C 0.7252(3) 0.5271(3) 0.7833(3)
H25_8 H 0.7421 0.5052 0.7756
C45_8 C 0.6899(3) 0.5201(3) 0.8063(3)
C47_8 C 0.5281(3) 0.3132(3) 0.3162(3)
C48_8 C 0.3162(3) 0.5281(3) 0.3132(3)
C49_8 C 0.7105(2) 0.6003(3) 0.7825(2)
C51_8 C 0.6762(3) 0.5926(3) 0.8046(3)
H27_8 H 0.6591 0.6145 0.8119
C53_8 C 0.7060(3) 0.4467(3) 0.8269(3)
C54_8 C 0.6731(3) 0.2940(3) 0.9467(3)
H29_8 H 0.7339 0.4525 0.8239
H30_8 H 0.6761 0.2661 0.9525
C55_8 C 0.7354(3) 0.5673(3) 0.7719(3)
H31_8 H 0.7593 0.5720 0.757
C57_8 C 0.6485(2) 0.2750(2) 0.2787(2)
C58_8 C 0.2787(2) 0.6485(2) 0.2750(2)
C59_8 C 0.6660(3) 0.5539(3) 0.8165(3)
H33_8 H 0.642 0.5499 0.8320
C61_8 C 0.5458(3) 0.3291(4) 0.2818(3)
C62_8 C 0.2818(3) 0.5458(3) 0.3291(4)
H35_8 H 0.5314 0.348 0.2658
H36_8 H 0.2658 0.5314 0.348
C63_8 C 0.6237(2) 0.4280(2) 0.8355(2)
C64_8 C 0.6645(2) 0.3763(2) 0.9280(2)
H37_8 H 0.5958 0.4221 0.8382
H38_8 H 0.6618 0.4042 0.9221
C65_8 C 0.5853(3) 0.3174(4) 0.2703(3)
C66_8 C 0.2703(3) 0.5853(3) 0.3174(4)
H39_8 H 0.5975 0.3296 0.2474
H40_8 H 0.2474 0.5975 0.3296
C67_8 C 0.4855(3) 0.3257(3) 0.3284(3)
C68_8 C 0.3284(3) 0.4855(3) 0.3257(3)
C69_8 C 0.4035(3) 0.3496(3) 0.3519(3)
C70_8 C 0.3519(3) 0.4035(3) 0.3496(3)
C71_8 C 0.4322(3) 0.3331(4) 0.3765(4)
C72_8 C 0.3765(4) 0.4322(3) 0.3331(4)
H41_8 H 0.4255 0.331 0.4043
H42_8 H 0.4043 0.4255 0.331
C73_8 C 0.4695(3) 0.3192(4) 0.3655(4)
C74_8 C 0.3655(4) 0.4695(3) 0.3192(4)
H43_8 H 0.4848 0.3043 0.3846
H44_8 H 0.3846 0.4848 0.3043
C75_8 C 0.4149(5) 0.3489(7) 0.3118(7)
C76_8 C 0.3118(7) 0.4149(5) 0.3489(7)
H45_8 H 0.3958 0.3558 0.2916
H46_8 H 0.2916 0.3958 0.3558
C77_8 C 0.4547(6) 0.3381(7) 0.3004(7)
C78_8 C 0.3004(7) 0.4547(6) 0.3381(7)
H47_8 H 0.4615 0.3391 0.2725
H48_8 H 0.2725 0.4615 0.3391
loop_
_geom_bond_atom_site_label_1
_geom_bond_atom_site_label_2
_geom_bond_site_symmetry_1
_geom_bond_site_symmetry_2
Zn1 O1 1_555 1_555
Zn2 O3 1_555 1_555
N1 C1 1_555 1_555
O1 C6 1_555 1_555
O2 Zn1 1_555 1_555
O3 C16 1_555 1_555
O4 C6 1_555 1_555
C1 C2 1_555 1_555
C2 H1 1_555 1_555
C3 C8 1_555 1_555
C4 C7 1_555 1_555
C5 H2 1_555 1_555
C6 C12 1_555 1_555
C7 H3 1_555 1_555
C8 C5 1_555 1_555
H4 C8 1_555 1_555
C9 H5 1_555 1_555
C10 C4 1_555 1_555
C11 C5 1_555 1_555
C12 C13 1_555 1_555
C13 H6 1_555 1_555
C14 C2 1_555 1_555
H7 C14 1_555 1_555
C15 C9 1_555 1_555
H8 C15 1_555 1_555
C16 O2 1_555 1_555
C17 C10 1_555 1_555
H9 C17 1_555 1_555
C18 C11 1_555 1_555
H10 C18 1_555 1_555
C19 C1 1_555 1_555
H11 C19 1_555 1_555
C20 C3 1_555 1_555
H12 C20 1_555 1_555
O5 Zn1 1_555 1_555
Zn5 O4 1_555 1_555
Zn6 O5 1_555 1_555
Zn9 O7 1_555 1_555
Zn10 O17 1_555 1_555
O7 C38 1_555 1_555
O14 Zn2 1_555 1_555
O15 Zn2 1_555 1_555
O17 C38 1_555 1_555
O18 Zn1 1_555 1_555
C27 N1 1_555 1_555
C28 N1 1_555 1_555
C29 C27 1_555 1_555
C30 C28 1_555 1_555
H17 C29 1_555 1_555
H18 C30 1_555 1_555
C33 C39 1_555 1_555
C34 C40 1_555 1_555
C38 C50 1_555 1_555
C39 H21 1_555 1_555
C40 H22 1_555 1_555
C44 H26 1_555 1_555
C46 C34 1_555 1_555
C50 C52 1_555 1_555
C52 H28 1_555 1_555
C53 C29 1_555 1_555
C54 C30 1_555 1_555
H29 C53 1_555 1_555
H30 C54 1_555 1_555
C56 C44 1_555 1_555
H32 C56 1_555 1_555
C60 C46 1_555 1_555
H34 C60 1_555 1_555
C63 C27 1_555 1_555
C64 C28 1_555 1_555
H37 C63 1_555 1_555
H38 C64 1_555 1_555
Zn2 O5 1_555 1_555
C3 C16 1_555 1_555
C4 C14 1_555 1_555
C7 C19 1_555 1_555
C9 C10 1_555 1_555
C12 C15 1_555 1_555
C13 C17 1_555 1_555
C18 C20 1_555 1_555
O5 Zn5 1_555 1_555
C33 C53 1_555 1_555
C34 C54 1_555 1_555
C39 C63 1_555 1_555
C40 C64 1_555 1_555
C44 C46 1_555 1_555
C50 C56 1_555 1_555
C52 C60 1_555 1_555
N2 C22 1_555 1_555
C22 C23 1_555 1_555
C23 H13 1_555 1_555
C24 C21 1_555 1_555
H14 C24 1_555 1_555
C25 C22 1_555 1_555
H15 C25 1_555 1_555
C26 C21 1_555 1_555
H16 C26 1_555 1_555
Zn10 O8 1_555 1_555
Zn11 O12 1_555 1_555
O10 Zn10 1_555 1_555
O12 C57 1_555 1_555
C31 C41 1_555 1_555
C35 H19 1_555 1_555
C41 C35 1_555 1_555
H23 C41 1_555 1_555
C47 C35 1_555 1_555
C57 O10 1_555 1_555
C61 C47 1_555 1_555
H35 C61 1_555 1_555
C65 C31 1_555 1_555
H39 C65 1_555 1_555
O21 Zn10 1_555 1_555
C67 C47 1_555 1_555
C69 N2 1_555 1_555
C70 N2 1_555 1_555
C71 C69 1_555 1_555
C72 C70 1_555 1_555
H41 C71 1_555 1_555
H42 C72 1_555 1_555
C73 C67 1_555 1_555
C74 C68 1_555 1_555
H43 C73 1_555 1_555
H44 C74 1_555 1_555
C75 C69 1_555 1_555
C76 C70 1_555 1_555
H45 C75 1_555 1_555
H46 C76 1_555 1_555
C77 C67 1_555 1_555
C78 C68 1_555 1_555
H47 C77 1_555 1_555
H48 C78 1_555 1_555
C23 C24 1_555 1_555
C25 C26 1_555 1_555
Zn11 O21 1_555 1_555
C31 C57 1_555 1_555
C61 C65 1_555 1_555
C71 C73 1_555 1_555
C72 C74 1_555 1_555
C75 C77 1_555 1_555
C76 C78 1_555 1_555
Zn7 O6 1_555 1_555
Zn8 O16 1_555 1_555
O6 C37 1_555 1_555
O16 C37 1_555 1_555
C37 C49 1_555 1_555
C43 H25 1_555 1_555
C49 C51 1_555 1_555
C51 H27 1_555 1_555
C55 C43 1_555 1_555
H31 C55 1_555 1_555
C59 C45 1_555 1_555
H33 C59 1_555 1_555
C43 C45 1_555 1_555
C49 C55 1_555 1_555
C51 C59 1_555 1_555
Zn4 O9 1_555 1_555
Zn12 O13 1_555 1_555
O11 Zn4 1_555 1_555
O13 C58 1_555 1_555
O20 Zn4 1_555 1_555
C32 C42 1_555 1_555
C36 H20 1_555 1_555
C42 C36 1_555 1_555
H24 C42 1_555 1_555
C48 C36 1_555 1_555
C58 O11 1_555 1_555
C62 C48 1_555 1_555
H36 C62 1_555 1_555
C66 C32 1_555 1_555
H40 C66 1_555 1_555
O22 Zn4 1_555 1_555
Zn12 O22 1_555 1_555
C32 C58 1_555 1_555
C62 C66 1_555 1_555
Zn5 O9_2 1_555 1_555
O11_2 Zn5 1_555 1_555
O15 C58_2 1_555 1_555
C32_2 C42_2 1_555 1_555
C36_2 H20_2 1_555 1_555
C42_2 C36_2 1_555 1_555
H24_2 C42_2 1_555 1_555
C48_2 C36_2 1_555 1_555
C58_2 O11_2 1_555 1_555
C62_2 C48_2 1_555 1_555
H36_2 C62_2 1_555 1_555
C66_2 C32_2 1_555 1_555
H40_2 C66_2 1_555 1_555
C32_2 C58_2 1_555 1_555
C62_2 C66_2 1_555 1_555
Zn1_2 O1_2 1_555 1_555
Zn12 O3_2 1_555 1_555
O1_2 C6_2 1_555 1_555
O2_2 Zn1_2 1_555 1_555
O3_2 C16_2 1_555 1_555
O20 C6_2 1_555 1_555
C3_2 C8_2 1_555 1_555
C5_2 H2_2 1_555 1_555
C6_2 C12_2 1_555 1_555
C8_2 C5_2 1_555 1_555
H4_2 C8_2 1_555 1_555
C9_2 H5_2 1_555 1_555
C11_2 C5_2 1_555 1_555
C12_2 C13_2 1_555 1_555
C13_2 H6_2 1_555 1_555
C15_2 C9_2 1_555 1_555
H8_2 C15_2 1_555 1_555
C16_2 O2_2 1_555 1_555
C17_2 C10_2 1_555 1_555
H9_2 C17_2 1_555 1_555
C18_2 C11_2 1_555 1_555
H10_2 C18_2 1_555 1_555
C20_2 C3_2 1_555 1_555
H12_2 C20_2 1_555 1_555
O22 Zn1_2 1_555 1_555
N2_2 C22_2 1_555 1_555
C21_2 C11_2 1_555 1_555
C22_2 C23_2 1_555 1_555
C23_2 H13_2 1_555 1_555
C24_2 C21_2 1_555 1_555
H14_2 C24_2 1_555 1_555
C25_2 C22_2 1_555 1_555
H15_2 C25_2 1_555 1_555
C26_2 C21_2 1_555 1_555
H16_2 C26_2 1_555 1_555
Zn6_2 O22 1_555 1_555
O14_2 Zn12 1_555 1_555
O18_2 Zn1_2 1_555 1_555
C69_2 N2_2 1_555 1_555
C70_2 N2_2 1_555 1_555
C71_2 C69_2 1_555 1_555
C72_2 C70_2 1_555 1_555
H41_2 C71_2 1_555 1_555
H42_2 C72_2 1_555 1_555
C73_2 C67_2 1_555 1_555
C74_2 C68_2 1_555 1_555
H43_2 C73_2 1_555 1_555
H44_2 C74_2 1_555 1_555
C75_2 C69_2 1_555 1_555
C76_2 C70_2 1_555 1_555
H45_2 C75_2 1_555 1_555
H46_2 C76_2 1_555 1_555
C77_2 C67_2 1_555 1_555
C78_2 C68_2 1_555 1_555
H47_2 C77_2 1_555 1_555
H48_2 C78_2 1_555 1_555
C3_2 C16_2 1_555 1_555
C9_2 C10_2 1_555 1_555
C12_2 C15_2 1_555 1_555
C13_2 C17_2 1_555 1_555
C18_2 C20_2 1_555 1_555
C23_2 C24_2 1_555 1_555
C25_2 C26_2 1_555 1_555
C71_2 C73_2 1_555 1_555
C72_2 C74_2 1_555 1_555
C75_2 C77_2 1_555 1_555
C76_2 C78_2 1_555 1_555
Zn8_2 O16_2 1_555 1_555
O8 C37_2 1_555 1_555
O16_2 C37_2 1_555 1_555
C37_2 C49_2 1_555 1_555
C43_2 H25_2 1_555 1_555
C49_2 C51_2 1_555 1_555
C51_2 H27_2 1_555 1_555
C55_2 C43_2 1_555 1_555
H31_2 C55_2 1_555 1_555
C59_2 C45_2 1_555 1_555
H33_2 C59_2 1_555 1_555
C43_2 C45_2 1_555 1_555
C49_2 C55_2 1_555 1_555
C51_2 C59_2 1_555 1_555
Zn9_2 O7_2 1_555 1_555
Zn7 O17_2 1_555 1_555
O7_2 C38_2 1_555 1_555
O17_2 C38_2 1_555 1_555
C38_2 C50_2 1_555 1_555
C44_2 H26_2 1_555 1_555
C50_2 C52_2 1_555 1_555
C52_2 H28_2 1_555 1_555
C56_2 C44_2 1_555 1_555
H32_2 C56_2 1_555 1_555
C60_2 C46_2 1_555 1_555
H34_2 C60_2 1_555 1_555
C44_2 C46_2 1_555 1_555
C50_2 C56_2 1_555 1_555
C52_2 C60_2 1_555 1_555
N1_2 C1_2 1_555 1_555
C1_2 C2_2 1_555 1_555
C2_2 H1_2 1_555 1_555
C4_2 C7_2 1_555 1_555
C7_2 H3_2 1_555 1_555
C14_2 C2_2 1_555 1_555
H7_2 C14_2 1_555 1_555
C19_2 C1_2 1_555 1_555
H11_2 C19_2 1_555 1_555
Zn11_2 O12_2 1_555 1_555
O10_2 Zn7 1_555 1_555
O12_2 C57_2 1_555 1_555
C27_2 N1_2 1_555 1_555
C28_2 N1_2 1_555 1_555
C29_2 C27_2 1_555 1_555
C30_2 C28_2 1_555 1_555
H17_2 C29_2 1_555 1_555
H18_2 C30_2 1_555 1_555
C31_2 C41_2 1_555 1_555
C33_2 C39_2 1_555 1_555
C34_2 C40_2 1_555 1_555
C35_2 H19_2 1_555 1_555
C39_2 H21_2 1_555 1_555
C40_2 H22_2 1_555 1_555
C41_2 C35_2 1_555 1_555
H23_2 C41_2 1_555 1_555
C47_2 C35_2 1_555 1_555
C53_2 C29_2 1_555 1_555
C54_2 C30_2 1_555 1_555
H29_2 C53_2 1_555 1_555
H30_2 C54_2 1_555 1_555
C57_2 O10_2 1_555 1_555
C61_2 C47_2 1_555 1_555
H35_2 C61_2 1_555 1_555
C63_2 C27_2 1_555 1_555
C64_2 C28_2 1_555 1_555
H37_2 C63_2 1_555 1_555
H38_2 C64_2 1_555 1_555
C65_2 C31_2 1_555 1_555
H39_2 C65_2 1_555 1_555
O21_2 Zn7 1_555 1_555
C4_2 C14_2 1_555 1_555
C7_2 C19_2 1_555 1_555
Zn11_2 O21_2 1_555 1_555
C31_2 C57_2 1_555 1_555
C33_2 C53_2 1_555 1_555
C34_2 C54_2 1_555 1_555
C39_2 C63_2 1_555 1_555
C40_2 C64_2 1_555 1_555
C61_2 C65_2 1_555 1_555
Zn6 O8_2 1_555 1_555
O10_3 Zn6 1_555 1_555
O14 C57_3 1_555 1_555
O19 Zn6 1_555 1_555
C31_3 C41_3 1_555 1_555
C35_3 H19_3 1_555 1_555
C41_3 C35_3 1_555 1_555
H23_3 C41_3 1_555 1_555
C47_3 C35_3 1_555 1_555
C57_3 O10_3 1_555 1_555
C61_3 C47_3 1_555 1_555
H35_3 C61_3 1_555 1_555
C65_3 C31_3 1_555 1_555
H39_3 C65_3 1_555 1_555
C31_3 C57_3 1_555 1_555
C61_3 C65_3 1_555 1_555
N1_3 C1_3 1_555 1_555
C1_3 C2_3 1_555 1_555
C2_3 H1_3 1_555 1_555
C4_3 C7_3 1_555 1_555
C7_3 H3_3 1_555 1_555
C14_3 C2_3 1_555 1_555
H7_3 C14_3 1_555 1_555
C19_3 C1_3 1_555 1_555
H11_3 C19_3 1_555 1_555
Zn6_2 O6_2 1_555 1_555
O6_2 C37_3 1_555 1_555
O9_2 C38_3 1_555 1_555
O18_2 C37_3 1_555 1_555
O19 C38_3 1_555 1_555
C27_3 N1_3 1_555 1_555
C28_3 N1_3 1_555 1_555
C29_3 C27_3 1_555 1_555
C30_3 C28_3 1_555 1_555
H17_3 C29_3 1_555 1_555
H18_3 C30_3 1_555 1_555
C33_3 C39_3 1_555 1_555
C34_3 C40_3 1_555 1_555
C37_3 C49_3 1_555 1_555
C38_3 C50_3 1_555 1_555
C39_3 H21_3 1_555 1_555
C40_3 H22_3 1_555 1_555
C43_3 H25_3 1_555 1_555
C44_3 H26_3 1_555 1_555
C45_3 C33_3 1_555 1_555
C46_3 C34_3 1_555 1_555
C49_3 C51_3 1_555 1_555
C50_3 C52_3 1_555 1_555
C51_3 H27_3 1_555 1_555
C52_3 H28_3 1_555 1_555
C53_3 C29_3 1_555 1_555
C54_3 C30_3 1_555 1_555
H29_3 C53_3 1_555 1_555
H30_3 C54_3 1_555 1_555
C55_3 C43_3 1_555 1_555
C56_3 C44_3 1_555 1_555
H31_3 C55_3 1_555 1_555
H32_3 C56_3 1_555 1_555
C59_3 C45_3 1_555 1_555
C60_3 C46_3 1_555 1_555
H33_3 C59_3 1_555 1_555
H34_3 C60_3 1_555 1_555
C63_3 C27_3 1_555 1_555
C64_3 C28_3 1_555 1_555
H37_3 C63_3 1_555 1_555
H38_3 C64_3 1_555 1_555
C4_3 C14_3 1_555 1_555
C7_3 C19_3 1_555 1_555
C33_3 C53_3 1_555 1_555
C34_3 C54_3 1_555 1_555
C39_3 C63_3 1_555 1_555
C40_3 C64_3 1_555 1_555
C43_3 C45_3 1_555 1_555
C44_3 C46_3 1_555 1_555
C49_3 C55_3 1_555 1_555
C50_3 C56_3 1_555 1_555
C51_3 C59_3 1_555 1_555
C52_3 C60_3 1_555 1_555
N2_3 C22_3 1_555 1_555
C22_3 C23_3 1_555 1_555
C23_3 H13_3 1_555 1_555
C24_3 C21_3 1_555 1_555
H14_3 C24_3 1_555 1_555
C25_3 C22_3 1_555 1_555
H15_3 C25_3 1_555 1_555
C26_3 C21_3 1_555 1_555
H16_3 C26_3 1_555 1_555
Zn11_2 O13_2 1_555 1_555
O11_3 Zn9_2 1_555 1_555
O13_2 C58_3 1_555 1_555
O20_2 Zn9_2 1_555 1_555
C32_3 C42_3 1_555 1_555
C36_3 H20_3 1_555 1_555
C42_3 C36_3 1_555 1_555
H24_3 C42_3 1_555 1_555
C48_3 C36_3 1_555 1_555
C58_3 O11_3 1_555 1_555
C62_3 C48_3 1_555 1_555
H36_3 C62_3 1_555 1_555
C66_3 C32_3 1_555 1_555
H40_3 C66_3 1_555 1_555
O21_2 Zn9_2 1_555 1_555
C68_3 C48_3 1_555 1_555
C69_3 N2_3 1_555 1_555
C70_3 N2_3 1_555 1_555
C71_3 C69_3 1_555 1_555
C72_3 C70_3 1_555 1_555
H41_3 C71_3 1_555 1_555
H42_3 C72_3 1_555 1_555
C73_3 C67_3 1_555 1_555
C74_3 C68_3 1_555 1_555
H43_3 C73_3 1_555 1_555
H44_3 C74_3 1_555 1_555
C75_3 C69_3 1_555 1_555
C76_3 C70_3 1_555 1_555
H45_3 C75_3 1_555 1_555
H46_3 C76_3 1_555 1_555
C77_3 C67_3 1_555 1_555
C78_3 C68_3 1_555 1_555
H47_3 C77_3 1_555 1_555
H48_3 C78_3 1_555 1_555
C23_3 C24_3 1_555 1_555
C25_3 C26_3 1_555 1_555
C32_3 C58_3 1_555 1_555
C62_3 C66_3 1_555 1_555
C71_3 C73_3 1_555 1_555
C72_3 C74_3 1_555 1_555
C75_3 C77_3 1_555 1_555
C76_3 C78_3 1_555 1_555
Zn8_2 O1_3 1_555 1_555
Zn11 O3_3 1_555 1_555
O1_3 C6_3 1_555 1_555
O2_3 Zn8_2 1_555 1_555
O3_3 C16_3 1_555 1_555
O4_2 C6_3 1_555 1_555
C3_3 C8_3 1_555 1_555
C5_3 H2_3 1_555 1_555
C6_3 C12_3 1_555 1_555
C8_3 C5_3 1_555 1_555
H4_3 C8_3 1_555 1_555
C9_3 H5_3 1_555 1_555
C11_3 C5_3 1_555 1_555
C12_3 C13_3 1_555 1_555
C13_3 H6_3 1_555 1_555
C15_3 C9_3 1_555 1_555
H8_3 C15_3 1_555 1_555
C16_3 O2_3 1_555 1_555
C17_3 C10_3 1_555 1_555
H9_3 C17_3 1_555 1_555
C18_3 C11_3 1_555 1_555
H10_3 C18_3 1_555 1_555
C20_3 C3_3 1_555 1_555
H12_3 C20_3 1_555 1_555
O21 Zn8_2 1_555 1_555
Zn9 O4_2 1_555 1_555
O15_2 Zn11 1_555 1_555
C3_3 C16_3 1_555 1_555
C9_3 C10_3 1_555 1_555
C12_3 C15_3 1_555 1_555
C13_3 C17_3 1_555 1_555
C18_3 C20_3 1_555 1_555
O21 Zn9 1_555 1_555
Zn8 O1_4 1_555 1_555
Zn11_2 O3_4 1_555 1_555
N1_4 C1_4 1_555 1_555
O1_4 C6_4 1_555 1_555
O2_4 Zn8 1_555 1_555
O3_4 C16_4 1_555 1_555
O20_2 C6_4 1_555 1_555
C1_4 C2_4 1_555 1_555
C2_4 H1_4 1_555 1_555
C3_4 C8_4 1_555 1_555
C4_4 C7_4 1_555 1_555
C5_4 H2_4 1_555 1_555
C6_4 C12_4 1_555 1_555
C7_4 H3_4 1_555 1_555
C8_4 C5_4 1_555 1_555
H4_4 C8_4 1_555 1_555
C9_4 H5_4 1_555 1_555
C10_4 C4_4 1_555 1_555
C11_4 C5_4 1_555 1_555
C12_4 C13_4 1_555 1_555
C13_4 H6_4 1_555 1_555
C14_4 C2_4 1_555 1_555
H7_4 C14_4 1_555 1_555
C15_4 C9_4 1_555 1_555
H8_4 C15_4 1_555 1_555
C16_4 O2_4 1_555 1_555
C17_4 C10_4 1_555 1_555
H9_4 C17_4 1_555 1_555
C18_4 C11_4 1_555 1_555
H10_4 C18_4 1_555 1_555
C19_4 C1_4 1_555 1_555
H11_4 C19_4 1_555 1_555
C20_4 C3_4 1_555 1_555
H12_4 C20_4 1_555 1_555
O21_2 Zn8 1_555 1_555
N2_4 C22_4 1_555 1_555
C21_4 C11_4 1_555 1_555
C22_4 C23_4 1_555 1_555
C23_4 H13_4 1_555 1_555
C24_4 C21_4 1_555 1_555
H14_4 C24_4 1_555 1_555
C25_4 C22_4 1_555 1_555
H15_4 C25_4 1_555 1_555
C26_4 C21_4 1_555 1_555
H16_4 C26_4 1_555 1_555
O8_2 C37_4 1_555 1_555
O10_4 Zn6_2 1_555 1_555
O11_4 Zn9 1_555 1_555
O14_2 C57_4 1_555 1_555
O15_2 C58_4 1_555 1_555
O18 C37_4 1_555 1_555
O19_2 Zn6_2 1_555 1_555
C27_4 N1_4 1_555 1_555
C28_4 N1_4 1_555 1_555
C29_4 C27_4 1_555 1_555
C30_4 C28_4 1_555 1_555
H17_4 C29_4 1_555 1_555
H18_4 C30_4 1_555 1_555
C31_4 C41_4 1_555 1_555
C32_4 C42_4 1_555 1_555
C33_4 C39_4 1_555 1_555
C34_4 C40_4 1_555 1_555
C35_4 H19_4 1_555 1_555
C36_4 H20_4 1_555 1_555
C37_4 C49_4 1_555 1_555
C39_4 H21_4 1_555 1_555
C40_4 H22_4 1_555 1_555
C41_4 C35_4 1_555 1_555
C42_4 C36_4 1_555 1_555
H23_4 C41_4 1_555 1_555
H24_4 C42_4 1_555 1_555
C43_4 H25_4 1_555 1_555
C45_4 C33_4 1_555 1_555
C47_4 C35_4 1_555 1_555
C48_4 C36_4 1_555 1_555
C49_4 C51_4 1_555 1_555
C51_4 H27_4 1_555 1_555
C53_4 C29_4 1_555 1_555
C54_4 C30_4 1_555 1_555
H29_4 C53_4 1_555 1_555
H30_4 C54_4 1_555 1_555
C55_4 C43_4 1_555 1_555
H31_4 C55_4 1_555 1_555
C57_4 O10_4 1_555 1_555
C58_4 O11_4 1_555 1_555
C59_4 C45_4 1_555 1_555
H33_4 C59_4 1_555 1_555
C61_4 C47_4 1_555 1_555
C62_4 C48_4 1_555 1_555
H35_4 C61_4 1_555 1_555
H36_4 C62_4 1_555 1_555
C63_4 C27_4 1_555 1_555
C64_4 C28_4 1_555 1_555
H37_4 C63_4 1_555 1_555
H38_4 C64_4 1_555 1_555
C65_4 C31_4 1_555 1_555
C66_4 C32_4 1_555 1_555
H39_4 C65_4 1_555 1_555
H40_4 C66_4 1_555 1_555
C67_4 C47_4 1_555 1_555
C68_4 C48_4 1_555 1_555
C69_4 N2_4 1_555 1_555
C70_4 N2_4 1_555 1_555
C71_4 C69_4 1_555 1_555
C72_4 C70_4 1_555 1_555
H41_4 C71_4 1_555 1_555
H42_4 C72_4 1_555 1_555
C73_4 C67_4 1_555 1_555
C74_4 C68_4 1_555 1_555
H43_4 C73_4 1_555 1_555
H44_4 C74_4 1_555 1_555
C75_4 C69_4 1_555 1_555
C76_4 C70_4 1_555 1_555
H45_4 C75_4 1_555 1_555
H46_4 C76_4 1_555 1_555
C77_4 C67_4 1_555 1_555
C78_4 C68_4 1_555 1_555
H47_4 C77_4 1_555 1_555
H48_4 C78_4 1_555 1_555
C3_4 C16_4 1_555 1_555
C4_4 C14_4 1_555 1_555
C7_4 C19_4 1_555 1_555
C9_4 C10_4 1_555 1_555
C12_4 C15_4 1_555 1_555
C13_4 C17_4 1_555 1_555
C18_4 C20_4 1_555 1_555
C23_4 C24_4 1_555 1_555
C25_4 C26_4 1_555 1_555
C31_4 C57_4 1_555 1_555
C32_4 C58_4 1_555 1_555
C33_4 C53_4 1_555 1_555
C34_4 C54_4 1_555 1_555
C39_4 C63_4 1_555 1_555
C40_4 C64_4 1_555 1_555
C43_4 C45_4 1_555 1_555
C49_4 C55_4 1_555 1_555
C51_4 C59_4 1_555 1_555
C61_4 C65_4 1_555 1_555
C62_4 C66_4 1_555 1_555
C71_4 C73_4 1_555 1_555
C72_4 C74_4 1_555 1_555
C75_4 C77_4 1_555 1_555
C76_4 C78_4 1_555 1_555
O9 C38_4 1_555 1_555
O19_2 C38_4 1_555 1_555
C38_4 C50_4 1_555 1_555
C44_4 H26_4 1_555 1_555
C50_4 C52_4 1_555 1_555
C52_4 H28_4 1_555 1_555
C56_4 C44_4 1_555 1_555
H32_4 C56_4 1_555 1_555
C60_4 C46_4 1_555 1_555
H34_4 C60_4 1_555 1_555
C44_4 C46_4 1_555 1_555
C50_4 C56_4 1_555 1_555
C52_4 C60_4 1_555 1_555
Zn4_2 O9_3 1_555 1_555
Zn12_2 O13_3 1_555 1_555
O11_5 Zn4_2 1_555 1_555
O13_3 C58_5 1_555 1_555
O20_3 Zn4_2 1_555 1_555
C32_5 C42_5 1_555 1_555
C36_5 H20_5 1_555 1_555
C42_5 C36_5 1_555 1_555
H24_5 C42_5 1_555 1_555
C48_5 C36_5 1_555 1_555
C58_5 O11_5 1_555 1_555
C62_5 C48_5 1_555 1_555
H36_5 C62_5 1_555 1_555
C66_5 C32_5 1_555 1_555
H40_5 C66_5 1_555 1_555
O22_2 Zn4_2 1_555 1_555
Zn12_2 O22_2 1_555 1_555
C32_5 C58_5 1_555 1_555
C62_5 C66_5 1_555 1_555
Zn7_2 O6_3 1_555 1_555
Zn8_3 O16_3 1_555 1_555
O6_3 C37_5 1_555 1_555
O16_3 C37_5 1_555 1_555
C37_5 C49_5 1_555 1_555
C43_5 H25_5 1_555 1_555
C49_5 C51_5 1_555 1_555
C51_5 H27_5 1_555 1_555
C55_5 C43_5 1_555 1_555
H31_5 C55_5 1_555 1_555
C59_5 C45_5 1_555 1_555
H33_5 C59_5 1_555 1_555
C43_5 C45_5 1_555 1_555
C49_5 C55_5 1_555 1_555
C51_5 C59_5 1_555 1_555
N2_5 C22_5 1_555 1_555
C22_5 C23_5 1_555 1_555
C23_5 H13_5 1_555 1_555
C24_5 C21_5 1_555 1_555
H14_5 C24_5 1_555 1_555
C25_5 C22_5 1_555 1_555
H15_5 C25_5 1_555 1_555
C26_5 C21_5 1_555 1_555
H16_5 C26_5 1_555 1_555
Zn3 O8_3 1_555 1_555
Zn11_3 O12_3 1_555 1_555
O10_5 Zn3 1_555 1_555
O12_3 C57_5 1_555 1_555
O19_3 Zn3 1_555 1_555
C31_5 C41_5 1_555 1_555
C35_5 H19_5 1_555 1_555
C41_5 C35_5 1_555 1_555
H23_5 C41_5 1_555 1_555
C47_5 C35_5 1_555 1_555
C57_5 O10_5 1_555 1_555
C61_5 C47_5 1_555 1_555
H35_5 C61_5 1_555 1_555
C65_5 C31_5 1_555 1_555
H39_5 C65_5 1_555 1_555
O21_3 Zn3 1_555 1_555
C67_5 C47_5 1_555 1_555
C69_5 N2_5 1_555 1_555
C70_5 N2_5 1_555 1_555
C71_5 C69_5 1_555 1_555
C72_5 C70_5 1_555 1_555
H41_5 C71_5 1_555 1_555
H42_5 C72_5 1_555 1_555
C73_5 C67_5 1_555 1_555
C74_5 C68_5 1_555 1_555
H43_5 C73_5 1_555 1_555
H44_5 C74_5 1_555 1_555
C75_5 C69_5 1_555 1_555
C76_5 C70_5 1_555 1_555
H45_5 C75_5 1_555 1_555
H46_5 C76_5 1_555 1_555
C77_5 C67_5 1_555 1_555
C78_5 C68_5 1_555 1_555
H47_5 C77_5 1_555 1_555
H48_5 C78_5 1_555 1_555
C23_5 C24_5 1_555 1_555
C25_5 C26_5 1_555 1_555
Zn11_3 O21_3 1_555 1_555
C31_5 C57_5 1_555 1_555
C61_5 C65_5 1_555 1_555
C71_5 C73_5 1_555 1_555
C72_5 C74_5 1_555 1_555
C75_5 C77_5 1_555 1_555
C76_5 C78_5 1_555 1_555
Zn1_3 O1_5 1_555 1_555
Zn2_2 O3_5 1_555 1_555
N1_5 C1_5 1_555 1_555
O1_5 C6_5 1_555 1_555
O2_5 Zn1_3 1_555 1_555
O3_5 C16_5 1_555 1_555
O4_3 C6_5 1_555 1_555
C1_5 C2_5 1_555 1_555
C2_5 H1_5 1_555 1_555
C3_5 C8_5 1_555 1_555
C4_5 C7_5 1_555 1_555
C5_5 H2_5 1_555 1_555
C6_5 C12_5 1_555 1_555
C7_5 H3_5 1_555 1_555
C8_5 C5_5 1_555 1_555
H4_5 C8_5 1_555 1_555
C9_5 H5_5 1_555 1_555
C10_5 C4_5 1_555 1_555
C11_5 C5_5 1_555 1_555
C12_5 C13_5 1_555 1_555
C13_5 H6_5 1_555 1_555
C14_5 C2_5 1_555 1_555
H7_5 C14_5 1_555 1_555
C15_5 C9_5 1_555 1_555
H8_5 C15_5 1_555 1_555
C16_5 O2_5 1_555 1_555
C17_5 C10_5 1_555 1_555
H9_5 C17_5 1_555 1_555
C18_5 C11_5 1_555 1_555
H10_5 C18_5 1_555 1_555
C19_5 C1_5 1_555 1_555
H11_5 C19_5 1_555 1_555
C20_5 C3_5 1_555 1_555
H12_5 C20_5 1_555 1_555
O5_2 Zn1_3 1_555 1_555
Zn5_2 O4_3 1_555 1_555
Zn6_3 O5_2 1_555 1_555
Zn9_3 O7_3 1_555 1_555
O7_3 C38_5 1_555 1_555
O14_3 Zn2_2 1_555 1_555
O15_3 Zn2_2 1_555 1_555
O19_3 C38_5 1_555 1_555
O18_3 Zn1_3 1_555 1_555
C27_5 N1_5 1_555 1_555
C28_5 N1_5 1_555 1_555
C29_5 C27_5 1_555 1_555
C30_5 C28_5 1_555 1_555
H17_5 C29_5 1_555 1_555
H18_5 C30_5 1_555 1_555
C33_5 C39_5 1_555 1_555
C34_5 C40_5 1_555 1_555
C38_5 C50_5 1_555 1_555
C39_5 H21_5 1_555 1_555
C40_5 H22_5 1_555 1_555
C44_5 H26_5 1_555 1_555
C46_5 C34_5 1_555 1_555
C50_5 C52_5 1_555 1_555
C52_5 H28_5 1_555 1_555
C53_5 C29_5 1_555 1_555
C54_5 C30_5 1_555 1_555
H29_5 C53_5 1_555 1_555
H30_5 C54_5 1_555 1_555
C56_5 C44_5 1_555 1_555
H32_5 C56_5 1_555 1_555
C60_5 C46_5 1_555 1_555
H34_5 C60_5 1_555 1_555
C63_5 C27_5 1_555 1_555
C64_5 C28_5 1_555 1_555
H37_5 C63_5 1_555 1_555
H38_5 C64_5 1_555 1_555
Zn2_2 O5_2 1_555 1_555
C3_5 C16_5 1_555 1_555
C4_5 C14_5 1_555 1_555
C7_5 C19_5 1_555 1_555
C9_5 C10_5 1_555 1_555
C12_5 C15_5 1_555 1_555
C13_5 C17_5 1_555 1_555
C18_5 C20_5 1_555 1_555
O5_2 Zn5_2 1_555 1_555
C33_5 C53_5 1_555 1_555
C34_5 C54_5 1_555 1_555
C39_5 C63_5 1_555 1_555
C40_5 C64_5 1_555 1_555
C44_5 C46_5 1_555 1_555
C50_5 C56_5 1_555 1_555
C52_5 C60_5 1_555 1_555
N1_6 C1_6 1_555 1_555
C1_6 C2_6 1_555 1_555
C2_6 H1_6 1_555 1_555
C4_6 C7_6 1_555 1_555
C7_6 H3_6 1_555 1_555
C14_6 C2_6 1_555 1_555
H7_6 C14_6 1_555 1_555
C19_6 C1_6 1_555 1_555
H11_6 C19_6 1_555 1_555
Zn11_4 O12_4 1_555 1_555
O10_6 Zn7_2 1_555 1_555
O12_4 C57_6 1_555 1_555
O19_4 Zn7_2 1_555 1_555
C27_6 N1_6 1_555 1_555
C28_6 N1_6 1_555 1_555
C29_6 C27_6 1_555 1_555
C30_6 C28_6 1_555 1_555
H17_6 C29_6 1_555 1_555
H18_6 C30_6 1_555 1_555
C31_6 C41_6 1_555 1_555
C33_6 C39_6 1_555 1_555
C34_6 C40_6 1_555 1_555
C35_6 H19_6 1_555 1_555
C39_6 H21_6 1_555 1_555
C40_6 H22_6 1_555 1_555
C41_6 C35_6 1_555 1_555
H23_6 C41_6 1_555 1_555
C47_6 C35_6 1_555 1_555
C53_6 C29_6 1_555 1_555
C54_6 C30_6 1_555 1_555
H29_6 C53_6 1_555 1_555
H30_6 C54_6 1_555 1_555
C57_6 O10_6 1_555 1_555
C61_6 C47_6 1_555 1_555
H35_6 C61_6 1_555 1_555
C63_6 C27_6 1_555 1_555
C64_6 C28_6 1_555 1_555
H37_6 C63_6 1_555 1_555
H38_6 C64_6 1_555 1_555
C65_6 C31_6 1_555 1_555
H39_6 C65_6 1_555 1_555
O21_4 Zn7_2 1_555 1_555
C4_6 C14_6 1_555 1_555
C7_6 C19_6 1_555 1_555
Zn11_4 O21_4 1_555 1_555
C31_6 C57_6 1_555 1_555
C33_6 C53_6 1_555 1_555
C34_6 C54_6 1_555 1_555
C39_6 C63_6 1_555 1_555
C40_6 C64_6 1_555 1_555
C61_6 C65_6 1_555 1_555
Zn9_4 O7_4 1_555 1_555
O7_4 C38_6 1_555 1_555
O19_4 C38_6 1_555 1_555
C38_6 C50_6 1_555 1_555
C44_6 H26_6 1_555 1_555
C50_6 C52_6 1_555 1_555
C52_6 H28_6 1_555 1_555
C56_6 C44_6 1_555 1_555
H32_6 C56_6 1_555 1_555
C60_6 C46_6 1_555 1_555
H34_6 C60_6 1_555 1_555
C44_6 C46_6 1_555 1_555
C50_6 C56_6 1_555 1_555
C52_6 C60_6 1_555 1_555
Zn8_4 O16_4 1_555 1_555
O8_3 C37_6 1_555 1_555
O16_4 C37_6 1_555 1_555
C37_6 C49_6 1_555 1_555
C43_6 H25_6 1_555 1_555
C49_6 C51_6 1_555 1_555
C51_6 H27_6 1_555 1_555
C55_6 C43_6 1_555 1_555
H31_6 C55_6 1_555 1_555
C59_6 C45_6 1_555 1_555
H33_6 C59_6 1_555 1_555
C43_6 C45_6 1_555 1_555
C49_6 C55_6 1_555 1_555
C51_6 C59_6 1_555 1_555
Zn1_4 O1_6 1_555 1_555
Zn12_2 O3_6 1_555 1_555
O1_6 C6_6 1_555 1_555
O2_6 Zn1_4 1_555 1_555
O3_6 C16_6 1_555 1_555
O20_3 C6_6 1_555 1_555
C3_6 C8_6 1_555 1_555
C5_6 H2_6 1_555 1_555
C6_6 C12_6 1_555 1_555
C8_6 C5_6 1_555 1_555
H4_6 C8_6 1_555 1_555
C9_6 H5_6 1_555 1_555
C11_6 C5_6 1_555 1_555
C12_6 C13_6 1_555 1_555
C13_6 H6_6 1_555 1_555
C15_6 C9_6 1_555 1_555
H8_6 C15_6 1_555 1_555
C16_6 O2_6 1_555 1_555
C17_6 C10_6 1_555 1_555
H9_6 C17_6 1_555 1_555
C18_6 C11_6 1_555 1_555
H10_6 C18_6 1_555 1_555
C20_6 C3_6 1_555 1_555
H12_6 C20_6 1_555 1_555
O22_2 Zn1_4 1_555 1_555
N2_6 C22_6 1_555 1_555
C21_6 C11_6 1_555 1_555
C22_6 C23_6 1_555 1_555
C23_6 H13_6 1_555 1_555
C24_6 C21_6 1_555 1_555
H14_6 C24_6 1_555 1_555
C25_6 C22_6 1_555 1_555
H15_6 C25_6 1_555 1_555
C26_6 C21_6 1_555 1_555
H16_6 C26_6 1_555 1_555
Zn6_4 O22_2 1_555 1_555
O14_4 Zn12_2 1_555 1_555
O18_4 Zn1_4 1_555 1_555
C69_6 N2_6 1_555 1_555
C70_6 N2_6 1_555 1_555
C71_6 C69_6 1_555 1_555
C72_6 C70_6 1_555 1_555
H41_6 C71_6 1_555 1_555
H42_6 C72_6 1_555 1_555
C73_6 C67_6 1_555 1_555
C74_6 C68_6 1_555 1_555
H43_6 C73_6 1_555 1_555
H44_6 C74_6 1_555 1_555
C75_6 C69_6 1_555 1_555
C76_6 C70_6 1_555 1_555
H45_6 C75_6 1_555 1_555
H46_6 C76_6 1_555 1_555
C77_6 C67_6 1_555 1_555
C78_6 C68_6 1_555 1_555
H47_6 C77_6 1_555 1_555
H48_6 C78_6 1_555 1_555
C3_6 C16_6 1_555 1_555
C9_6 C10_6 1_555 1_555
C12_6 C15_6 1_555 1_555
C13_6 C17_6 1_555 1_555
C18_6 C20_6 1_555 1_555
C23_6 C24_6 1_555 1_555
C25_6 C26_6 1_555 1_555
C71_6 C73_6 1_555 1_555
C72_6 C74_6 1_555 1_555
C75_6 C77_6 1_555 1_555
C76_6 C78_6 1_555 1_555
Zn5_2 O9_4 1_555 1_555
O11_6 Zn5_2 1_555 1_555
O15_3 C58_6 1_555 1_555
C32_6 C42_6 1_555 1_555
C36_6 H20_6 1_555 1_555
C42_6 C36_6 1_555 1_555
H24_6 C42_6 1_555 1_555
C48_6 C36_6 1_555 1_555
C58_6 O11_6 1_555 1_555
C62_6 C48_6 1_555 1_555
H36_6 C62_6 1_555 1_555
C66_6 C32_6 1_555 1_555
H40_6 C66_6 1_555 1_555
C32_6 C58_6 1_555 1_555
C62_6 C66_6 1_555 1_555
Zn8_4 O1_7 1_555 1_555
Zn11_3 O3_7 1_555 1_555
O1_7 C6_7 1_555 1_555
O2_7 Zn8_4 1_555 1_555
O3_7 C16_7 1_555 1_555
O4_4 C6_7 1_555 1_555
C3_7 C8_7 1_555 1_555
C5_7 H2_7 1_555 1_555
C6_7 C12_7 1_555 1_555
C8_7 C5_7 1_555 1_555
H4_7 C8_7 1_555 1_555
C9_7 H5_7 1_555 1_555
C11_7 C5_7 1_555 1_555
C12_7 C13_7 1_555 1_555
C13_7 H6_7 1_555 1_555
C15_7 C9_7 1_555 1_555
H8_7 C15_7 1_555 1_555
C16_7 O2_7 1_555 1_555
C17_7 C10_7 1_555 1_555
H9_7 C17_7 1_555 1_555
C18_7 C11_7 1_555 1_555
H10_7 C18_7 1_555 1_555
C20_7 C3_7 1_555 1_555
H12_7 C20_7 1_555 1_555
O21_3 Zn8_4 1_555 1_555
Zn9_3 O4_4 1_555 1_555
O15_4 Zn11_3 1_555 1_555
C3_7 C16_7 1_555 1_555
C9_7 C10_7 1_555 1_555
C12_7 C15_7 1_555 1_555
C13_7 C17_7 1_555 1_555
C18_7 C20_7 1_555 1_555
O21_3 Zn9_3 1_555 1_555
N2_7 C22_7 1_555 1_555
C22_7 C23_7 1_555 1_555
C23_7 H13_7 1_555 1_555
C24_7 C21_7 1_555 1_555
H14_7 C24_7 1_555 1_555
C25_7 C22_7 1_555 1_555
H15_7 C25_7 1_555 1_555
C26_7 C21_7 1_555 1_555
H16_7 C26_7 1_555 1_555
Zn11_4 O13_4 1_555 1_555
O11_7 Zn9_4 1_555 1_555
O13_4 C58_7 1_555 1_555
O20_4 Zn9_4 1_555 1_555
C32_7 C42_7 1_555 1_555
C36_7 H20_7 1_555 1_555
C42_7 C36_7 1_555 1_555
H24_7 C42_7 1_555 1_555
C48_7 C36_7 1_555 1_555
C58_7 O11_7 1_555 1_555
C62_7 C48_7 1_555 1_555
H36_7 C62_7 1_555 1_555
C66_7 C32_7 1_555 1_555
H40_7 C66_7 1_555 1_555
O21_4 Zn9_4 1_555 1_555
C68_7 C48_7 1_555 1_555
C69_7 N2_7 1_555 1_555
C70_7 N2_7 1_555 1_555
C71_7 C69_7 1_555 1_555
C72_7 C70_7 1_555 1_555
H41_7 C71_7 1_555 1_555
H42_7 C72_7 1_555 1_555
C73_7 C67_7 1_555 1_555
C74_7 C68_7 1_555 1_555
H43_7 C73_7 1_555 1_555
H44_7 C74_7 1_555 1_555
C75_7 C69_7 1_555 1_555
C76_7 C70_7 1_555 1_555
H45_7 C75_7 1_555 1_555
H46_7 C76_7 1_555 1_555
C77_7 C67_7 1_555 1_555
C78_7 C68_7 1_555 1_555
H47_7 C77_7 1_555 1_555
H48_7 C78_7 1_555 1_555
C23_7 C24_7 1_555 1_555
C25_7 C26_7 1_555 1_555
C32_7 C58_7 1_555 1_555
C62_7 C66_7 1_555 1_555
C71_7 C73_7 1_555 1_555
C72_7 C74_7 1_555 1_555
C75_7 C77_7 1_555 1_555
C76_7 C78_7 1_555 1_555
N1_7 C1_7 1_555 1_555
C1_7 C2_7 1_555 1_555
C2_7 H1_7 1_555 1_555
C4_7 C7_7 1_555 1_555
C7_7 H3_7 1_555 1_555
C14_7 C2_7 1_555 1_555
H7_7 C14_7 1_555 1_555
C19_7 C1_7 1_555 1_555
H11_7 C19_7 1_555 1_555
Zn6_4 O6_4 1_555 1_555
Zn6_3 O17_3 1_555 1_555
O6_4 C37_7 1_555 1_555
O9_4 C38_7 1_555 1_555
O18_4 C37_7 1_555 1_555
O17_3 C38_7 1_555 1_555
C27_7 N1_7 1_555 1_555
C28_7 N1_7 1_555 1_555
C29_7 C27_7 1_555 1_555
C30_7 C28_7 1_555 1_555
H17_7 C29_7 1_555 1_555
H18_7 C30_7 1_555 1_555
C33_7 C39_7 1_555 1_555
C34_7 C40_7 1_555 1_555
C37_7 C49_7 1_555 1_555
C38_7 C50_7 1_555 1_555
C39_7 H21_7 1_555 1_555
C40_7 H22_7 1_555 1_555
C43_7 H25_7 1_555 1_555
C44_7 H26_7 1_555 1_555
C45_7 C33_7 1_555 1_555
C46_7 C34_7 1_555 1_555
C49_7 C51_7 1_555 1_555
C50_7 C52_7 1_555 1_555
C51_7 H27_7 1_555 1_555
C52_7 H28_7 1_555 1_555
C53_7 C29_7 1_555 1_555
C54_7 C30_7 1_555 1_555
H29_7 C53_7 1_555 1_555
H30_7 C54_7 1_555 1_555
C55_7 C43_7 1_555 1_555
C56_7 C44_7 1_555 1_555
H31_7 C55_7 1_555 1_555
H32_7 C56_7 1_555 1_555
C59_7 C45_7 1_555 1_555
C60_7 C46_7 1_555 1_555
H33_7 C59_7 1_555 1_555
H34_7 C60_7 1_555 1_555
C63_7 C27_7 1_555 1_555
C64_7 C28_7 1_555 1_555
H37_7 C63_7 1_555 1_555
H38_7 C64_7 1_555 1_555
C4_7 C14_7 1_555 1_555
C7_7 C19_7 1_555 1_555
C33_7 C53_7 1_555 1_555
C34_7 C54_7 1_555 1_555
C39_7 C63_7 1_555 1_555
C40_7 C64_7 1_555 1_555
C43_7 C45_7 1_555 1_555
C44_7 C46_7 1_555 1_555
C49_7 C55_7 1_555 1_555
C50_7 C56_7 1_555 1_555
C51_7 C59_7 1_555 1_555
C52_7 C60_7 1_555 1_555
Zn6_3 O8_4 1_555 1_555
O10_7 Zn6_3 1_555 1_555
O14_3 C57_7 1_555 1_555
C31_7 C41_7 1_555 1_555
C35_7 H19_7 1_555 1_555
C41_7 C35_7 1_555 1_555
H23_7 C41_7 1_555 1_555
C47_7 C35_7 1_555 1_555
C57_7 O10_7 1_555 1_555
C61_7 C47_7 1_555 1_555
H35_7 C61_7 1_555 1_555
C65_7 C31_7 1_555 1_555
H39_7 C65_7 1_555 1_555
C31_7 C57_7 1_555 1_555
C61_7 C65_7 1_555 1_555
Zn6_4 O17_4 1_555 1_555
O9_3 C38_8 1_555 1_555
O17_4 C38_8 1_555 1_555
C38_8 C50_8 1_555 1_555
C44_8 H26_8 1_555 1_555
C50_8 C52_8 1_555 1_555
C52_8 H28_8 1_555 1_555
C56_8 C44_8 1_555 1_555
H32_8 C56_8 1_555 1_555
C60_8 C46_8 1_555 1_555
H34_8 C60_8 1_555 1_555
C44_8 C46_8 1_555 1_555
C50_8 C56_8 1_555 1_555
C52_8 C60_8 1_555 1_555
Zn8_3 O1_8 1_555 1_555
Zn11_4 O3_8 1_555 1_555
N1_8 C1_8 1_555 1_555
O1_8 C6_8 1_555 1_555
O2_8 Zn8_3 1_555 1_555
O3_8 C16_8 1_555 1_555
O20_4 C6_8 1_555 1_555
C1_8 C2_8 1_555 1_555
C2_8 H1_8 1_555 1_555
C3_8 C8_8 1_555 1_555
C4_8 C7_8 1_555 1_555
C5_8 H2_8 1_555 1_555
C6_8 C12_8 1_555 1_555
C7_8 H3_8 1_555 1_555
C8_8 C5_8 1_555 1_555
H4_8 C8_8 1_555 1_555
C9_8 H5_8 1_555 1_555
C10_8 C4_8 1_555 1_555
C11_8 C5_8 1_555 1_555
C12_8 C13_8 1_555 1_555
C13_8 H6_8 1_555 1_555
C14_8 C2_8 1_555 1_555
H7_8 C14_8 1_555 1_555
C15_8 C9_8 1_555 1_555
H8_8 C15_8 1_555 1_555
C16_8 O2_8 1_555 1_555
C17_8 C10_8 1_555 1_555
H9_8 C17_8 1_555 1_555
C18_8 C11_8 1_555 1_555
H10_8 C18_8 1_555 1_555
C19_8 C1_8 1_555 1_555
H11_8 C19_8 1_555 1_555
C20_8 C3_8 1_555 1_555
H12_8 C20_8 1_555 1_555
O21_4 Zn8_3 1_555 1_555
N2_8 C22_8 1_555 1_555
C21_8 C11_8 1_555 1_555
C22_8 C23_8 1_555 1_555
C23_8 H13_8 1_555 1_555
C24_8 C21_8 1_555 1_555
H14_8 C24_8 1_555 1_555
C25_8 C22_8 1_555 1_555
H15_8 C25_8 1_555 1_555
C26_8 C21_8 1_555 1_555
H16_8 C26_8 1_555 1_555
O8_4 C37_8 1_555 1_555
O10_8 Zn6_4 1_555 1_555
O11_8 Zn9_3 1_555 1_555
O14_4 C57_8 1_555 1_555
O15_4 C58_8 1_555 1_555
O18_3 C37_8 1_555 1_555
C27_8 N1_8 1_555 1_555
C28_8 N1_8 1_555 1_555
C29_8 C27_8 1_555 1_555
C30_8 C28_8 1_555 1_555
H17_8 C29_8 1_555 1_555
H18_8 C30_8 1_555 1_555
C31_8 C41_8 1_555 1_555
C32_8 C42_8 1_555 1_555
C33_8 C39_8 1_555 1_555
C34_8 C40_8 1_555 1_555
C35_8 H19_8 1_555 1_555
C36_8 H20_8 1_555 1_555
C37_8 C49_8 1_555 1_555
C39_8 H21_8 1_555 1_555
C40_8 H22_8 1_555 1_555
C41_8 C35_8 1_555 1_555
C42_8 C36_8 1_555 1_555
H23_8 C41_8 1_555 1_555
H24_8 C42_8 1_555 1_555
C43_8 H25_8 1_555 1_555
C45_8 C33_8 1_555 1_555
C47_8 C35_8 1_555 1_555
C48_8 C36_8 1_555 1_555
C49_8 C51_8 1_555 1_555
C51_8 H27_8 1_555 1_555
C53_8 C29_8 1_555 1_555
C54_8 C30_8 1_555 1_555
H29_8 C53_8 1_555 1_555
H30_8 C54_8 1_555 1_555
C55_8 C43_8 1_555 1_555
H31_8 C55_8 1_555 1_555
C57_8 O10_8 1_555 1_555
C58_8 O11_8 1_555 1_555
C59_8 C45_8 1_555 1_555
H33_8 C59_8 1_555 1_555
C61_8 C47_8 1_555 1_555
C62_8 C48_8 1_555 1_555
H35_8 C61_8 1_555 1_555
H36_8 C62_8 1_555 1_555
C63_8 C27_8 1_555 1_555
C64_8 C28_8 1_555 1_555
H37_8 C63_8 1_555 1_555
H38_8 C64_8 1_555 1_555
C65_8 C31_8 1_555 1_555
C66_8 C32_8 1_555 1_555
H39_8 C65_8 1_555 1_555
H40_8 C66_8 1_555 1_555
C67_8 C47_8 1_555 1_555
C68_8 C48_8 1_555 1_555
C69_8 N2_8 1_555 1_555
C70_8 N2_8 1_555 1_555
C71_8 C69_8 1_555 1_555
C72_8 C70_8 1_555 1_555
H41_8 C71_8 1_555 1_555
H42_8 C72_8 1_555 1_555
C73_8 C67_8 1_555 1_555
C74_8 C68_8 1_555 1_555
H43_8 C73_8 1_555 1_555
H44_8 C74_8 1_555 1_555
C75_8 C69_8 1_555 1_555
C76_8 C70_8 1_555 1_555
H45_8 C75_8 1_555 1_555
H46_8 C76_8 1_555 1_555
C77_8 C67_8 1_555 1_555
C78_8 C68_8 1_555 1_555
H47_8 C77_8 1_555 1_555
H48_8 C78_8 1_555 1_555
C3_8 C16_8 1_555 1_555
C4_8 C14_8 1_555 1_555
C7_8 C19_8 1_555 1_555
C9_8 C10_8 1_555 1_555
C12_8 C15_8 1_555 1_555
C13_8 C17_8 1_555 1_555
C18_8 C20_8 1_555 1_555
C23_8 C24_8 1_555 1_555
C25_8 C26_8 1_555 1_555
C31_8 C57_8 1_555 1_555
C32_8 C58_8 1_555 1_555
C33_8 C53_8 1_555 1_555
C34_8 C54_8 1_555 1_555
C39_8 C63_8 1_555 1_555
C40_8 C64_8 1_555 1_555
C43_8 C45_8 1_555 1_555
C49_8 C55_8 1_555 1_555
C51_8 C59_8 1_555 1_555
C61_8 C65_8 1_555 1_555
C62_8 C66_8 1_555 1_555
C71_8 C73_8 1_555 1_555
C72_8 C74_8 1_555 1_555
C75_8 C77_8 1_555 1_555
C76_8 C78_8 1_555 1_555

#END
