
###############################################################################
#
# This file contains modified crystal structure data generated from the
# MOF subset of the Cambridge Structural Database (CSD) v543 
# hosted by the Cambridge Crystallographic Data Centre (CCDC).
#
# This work is licensed under the Creative Commons
# Attribution-NonCommercial-ShareAlike 4.0 International License.
# To view a copy of this license, visit
# http://creativecommons.org/licenses/by-nc-sa/4.0/
# or send a letter to
# Creative Commons, PO Box 1866, Mountain View, CA 94042, USA.
#
# CIF created using the CSD Python API on 29 September 2022
# The structure has been converted into the P1 space group
# The structure has a 3D framework
# The original CSD entry UWAGAB04 is in the cubic crystal system
# The framework has been calculated to contain at least 10.0% void space
# The void calculation uses a probe of radius 1.32A, grid spacing 0.4
#
###############################################################################

data_UWAGAB04
_chemical_formula_moiety         '(C624 H384 N16 O104 Zn32)n'
_symmetry_cell_setting           triclinic
_symmetry_space_group_name_H-M   'P 1'
_symmetry_Int_Tables_number      1
_space_group_name_Hall           'P 1'
loop_
_symmetry_equiv_pos_site_id
_symmetry_equiv_pos_as_xyz
1 x,y,z
_cell_length_a                   32.387(5)
_cell_length_b                   32.387(5)
_cell_length_c                   32.387(5)
_cell_angle_alpha                90
_cell_angle_beta                 90
_cell_angle_gamma                90
_cell_volume                     33971.3
loop_
_atom_site_label
_atom_site_type_symbol
_atom_site_fract_x
_atom_site_fract_y
_atom_site_fract_z
C5 C 0.26464(16) 0.43274(14) 0.22795(17)
H5 H 0.2408 0.4284 0.2434
O1 O 0.25159(7) 0.25159(7) 0.25159(7)
O2 O 0.24598(9) 0.20290(9) 0.16565(8)
O3 O 0.29647(10) 0.24973(11) 0.16527(9)
O4 O 0.30297(11) 0.32915(10) 0.21980(11)
O5 O 0.24550(11) 0.35130(9) 0.24893(11)
C6 C 0.27585(12) 0.22104(12) 0.14884(13)
C7 C 0.28814(14) 0.20795(14) 0.10691(14)
C8 C 0.27126(13) 0.17436(14) 0.08805(14)
H6 H 0.2506 0.1596 0.1014
C9 C 0.28423(14) 0.16183(15) 0.04955(16)
H7 H 0.2731 0.138 0.0381
C10 C 0.31323(16) 0.18386(17) 0.02776(16)
C11 C 0.3297(2) 0.2184(2) 0.0462(2)
H8 H 0.349 0.2342 0.032
C12 C 0.3178(2) 0.22992(18) 0.08541(18)
H9 H 0.3299 0.2529 0.0976
C15 C 0.27839(14) 0.35666(13) 0.22966(14)
C16 C 0.28924(15) 0.39969(13) 0.21768(14)
C17 C 0.32471(19) 0.40729(15) 0.1950(2)
H10 H 0.3419 0.3856 0.1874
C18 C 0.3342(2) 0.44685(17) 0.1838(2)
H11 H 0.3584 0.4514 0.169
C19 C 0.30990(15) 0.48003(13) 0.19326(15)
C20 C 0.27492(17) 0.47245(15) 0.21553(18)
H12 H 0.2576 0.4943 0.2225
C21 C 0.32240(14) 0.52212(13) 0.18072(14)
C22 C 0.36385(14) 0.53314(14) 0.17667(15)
H13 H 0.384 0.5134 0.1823
C23 C 0.37614(14) 0.57180(14) 0.16476(14)
H14 H 0.4041 0.5779 0.1621
C24 C 0.34658(13) 0.60199(13) 0.15658(13)
C25 C 0.30511(13) 0.59244(13) 0.16150(14)
H15 H 0.2851 0.6125 0.1569
C26 C 0.29362(14) 0.55312(14) 0.17324(15)
H16 H 0.2657 0.5471 0.1763
N2 N 0.35805(12) 0.64195(12) 0.14195(12)
Zn1 Zn 0.300313(13) 0.269399(13) 0.221584(13)
Zn2 Zn 0.216810(13) 0.216810(13) 0.216810(13)
C36 C 0.56726(14) 0.72795(17) 0.23536(16)
H26 H 0.5716 0.7434 0.2592
O8 O 0.16565(8) 0.24598(9) 0.20290(9)
O9 O 0.20290(9) 0.16565(8) 0.24598(9)
O12 O 0.24973(11) 0.16527(9) 0.29647(10)
O13 O 0.16527(9) 0.29647(10) 0.24973(11)
O15 O 0.67085(10) 0.71980(11) 0.19703(11)
O16 O 0.32915(10) 0.21980(11) 0.30297(11)
O17 O 0.21980(11) 0.30297(11) 0.32915(10)
O19 O 0.64870(9) 0.74893(11) 0.25450(11)
O20 O 0.35130(9) 0.24893(11) 0.24550(11)
O21 O 0.24893(11) 0.24550(11) 0.35130(9)
C56 C 0.64334(13) 0.72966(14) 0.22161(14)
C58 C 0.60031(13) 0.71768(14) 0.21076(15)
C60 C 0.59271(15) 0.6950(2) 0.17529(19)
H36 H 0.6144 0.6874 0.1581
C62 C 0.55315(17) 0.6838(2) 0.1658(2)
H38 H 0.5486 0.669 0.1416
C64 C 0.51997(13) 0.69326(15) 0.19010(15)
C66 C 0.52755(15) 0.71553(18) 0.22508(17)
H40 H 0.5057 0.7225 0.2424
C67 C 0.31928(14) 0.67760(14) 0.02212(13)
C68 C 0.47788(13) 0.68072(14) 0.17760(14)
C69 C 0.32333(15) 0.63615(14) 0.03314(14)
C70 C 0.46686(14) 0.67667(15) 0.13615(14)
H41 H 0.3177 0.616 0.0134
H42 H 0.4866 0.6823 0.116
C71 C 0.33524(14) 0.62386(14) 0.07180(14)
C72 C 0.42820(14) 0.66476(14) 0.12386(14)
H43 H 0.3379 0.5959 0.0779
H44 H 0.4221 0.6621 0.0959
C73 C 0.34342(13) 0.65342(13) 0.10199(13)
C74 C 0.39801(13) 0.65658(13) 0.15342(13)
C75 C 0.33850(14) 0.69489(13) 0.09244(13)
C76 C 0.40756(13) 0.66150(14) 0.19489(13)
H45 H 0.3431 0.7149 0.1125
H46 H 0.3875 0.6569 0.2149
C77 C 0.32676(15) 0.70638(14) 0.05312(14)
C78 C 0.44688(14) 0.67324(15) 0.20638(14)
H47 H 0.3237 0.7343 0.0471
H48 H 0.4529 0.6763 0.2343
Zn3 Zn 0.269399(13) 0.221584(13) 0.300313(13)
Zn4 Zn 0.221584(13) 0.300313(13) 0.269399(13)
Zn9 Zn 0.730601(13) 0.721584(13) 0.199687(13)
Zn10 Zn 0.699687(13) 0.769399(13) 0.278416(13)
C1 C 0.3181(3) 0.1385(3) 0.9664(2)
H1 H 0.2998 0.1206 0.9794
C2 C 0.3306(3) 0.1267(3) 0.9300(2)
H2 H 0.3198 0.102 0.92
C3 C 0.3423(3) 0.1907(3) 0.9116(3)
H3 H 0.3427 0.2086 0.8891
C4 C 0.3301(3) 0.2036(3) 0.9517(3)
H4 H 0.3239 0.2311 0.957
C13 C 0.32731(19) 0.17067(18) 0.98668(18)
C14 C 0.3548(2) 0.14450(19) 0.9081(2)
N1 N 0.3698(3) 0.1302(3) 0.8698(3)
C27 C 0.4664(2) 0.1819(3) 0.8615(3)
C28 C 0.3615(3) 0.0336(2) 0.8181(3)
H17 H 0.4794 0.2002 0.8794
H18 H 0.3794 0.0206 0.7998
C29 C 0.4300(2) 0.1694(3) 0.8733(3)
C30 C 0.3733(3) 0.0700(2) 0.8306(3)
H19 H 0.42 0.1802 0.898
H20 H 0.398 0.08 0.8198
C31 C 0.4116(3) 0.1577(3) 0.8093(3)
C32 C 0.3093(3) 0.0884(3) 0.8423(3)
H21 H 0.3891 0.1573 0.7914
H22 H 0.2914 0.1109 0.8427
C33 C 0.4517(3) 0.1699(3) 0.7964(3)
C34 C 0.2964(3) 0.0483(3) 0.8301(3)
H23 H 0.457 0.1761 0.7689
H24 H 0.2689 0.043 0.8239
C35 C 0.27205(17) 0.73536(16) 0.93274(14)
H25 H 0.2566 0.7592 0.9284
O6 O 0.66565(8) 0.25402(9) 0.79710(9)
O10 O 0.66527(9) 0.20353(10) 0.75027(11)
O14 O 0.28020(11) 0.69703(11) 0.82915(10)
O18 O 0.25107(11) 0.75450(11) 0.85130(9)
C37 C 0.64884(13) 0.22415(12) 0.77896(12)
C39 C 0.60691(14) 0.21186(14) 0.79205(14)
C41 C 0.58805(14) 0.22874(13) 0.82564(14)
H27 H 0.6014 0.2494 0.8404
C43 C 0.54955(16) 0.21577(14) 0.83817(15)
H29 H 0.5381 0.2269 0.862
C45 C 0.52776(16) 0.18677(16) 0.81614(17)
C47 C 0.5462(2) 0.1703(2) 0.7816(2)
H31 H 0.532 0.151 0.7658
C49 C 0.58541(18) 0.1822(2) 0.77008(18)
H33 H 0.5976 0.1701 0.7471
C51 C 0.48668(18) 0.17269(19) 0.82933(18)
C52 C 0.32933(18) 0.01332(18) 0.82731(19)
C53 C 0.4081(2) 0.1452(2) 0.85550(19)
C54 C 0.35550(19) 0.0919(2) 0.8548(2)
C55 C 0.27034(14) 0.72161(14) 0.85666(13)
C57 C 0.28232(14) 0.71076(15) 0.89969(13)
C59 C 0.3050(2) 0.67529(19) 0.90729(15)
H35 H 0.3126 0.6581 0.8856
C61 C 0.3162(2) 0.6658(2) 0.94685(17)
H37 H 0.331 0.6416 0.9514
C63 C 0.30674(15) 0.69010(15) 0.98003(13)
C65 C 0.28447(18) 0.72508(17) 0.97245(15)
H39 H 0.2775 0.7424 0.9943
Zn5 Zn 0.721584(13) 0.199687(13) 0.730601(13)
Zn7 Zn 0.278416(13) 0.699687(13) 0.769399(13)
Zn8 Zn 0.230601(13) 0.778416(13) 0.800313(13)
Zn11 Zn 0.716810(13) 0.283190(13) 0.783190(13)
O7 O 0.29710(9) 0.83435(8) 0.74598(9)
O11 O 0.25027(11) 0.83473(9) 0.79647(10)
C38 C 0.27896(12) 0.85116(13) 0.77585(12)
C40 C 0.29205(14) 0.89309(14) 0.78814(14)
C42 C 0.32564(14) 0.91195(14) 0.77126(13)
H28 H 0.3404 0.8986 0.7506
C44 C 0.33817(15) 0.95045(16) 0.78423(14)
H30 H 0.362 0.9619 0.7731
C46 C 0.31614(17) 0.97224(16) 0.81323(16)
C48 C 0.2816(2) 0.9538(2) 0.8297(2)
H32 H 0.2658 0.968 0.849
C50 C 0.27008(18) 0.91459(18) 0.8178(2)
H34 H 0.2471 0.9024 0.8299
Zn12 Zn 0.283190(13) 0.783190(13) 0.716810(13)
C38_2 C 0.22104(12) 0.14884(13) 0.27585(12)
C40_2 C 0.20795(14) 0.10691(14) 0.28814(14)
C42_2 C 0.17436(14) 0.08805(14) 0.27126(13)
H28_2 H 0.1596 0.1014 0.2506
C44_2 C 0.16183(15) 0.04955(16) 0.28423(14)
H30_2 H 0.138 0.0381 0.2731
C46_2 C 0.18386(17) 0.02776(16) 0.31323(16)
C48_2 C 0.2184(2) 0.0462(2) 0.3297(2)
H32_2 H 0.2342 0.032 0.349
C50_2 C 0.22992(18) 0.08541(18) 0.3178(2)
H34_2 H 0.2529 0.0976 0.3299
C1_2 C 0.1819(3) 0.8615(3) 0.4664(2)
H1_2 H 0.2002 0.8794 0.4794
C2_2 C 0.1694(3) 0.8733(3) 0.4300(2)
H2_2 H 0.1802 0.898 0.42
C3_2 C 0.1577(3) 0.8093(3) 0.4116(3)
H3_2 H 0.1573 0.7914 0.3891
C4_2 C 0.1699(3) 0.7964(3) 0.4517(3)
H4_2 H 0.1761 0.7689 0.457
C5_2 C 0.23536(16) 0.56726(14) 0.72795(17)
H5_2 H 0.2592 0.5716 0.7434
O1_2 O 0.24841(7) 0.74841(7) 0.75159(7)
O2_2 O 0.25402(9) 0.79710(9) 0.66565(8)
O3_2 O 0.20353(10) 0.75027(11) 0.66527(9)
O4_2 O 0.19703(11) 0.67085(10) 0.71980(11)
O5_2 O 0.25450(11) 0.64870(9) 0.74893(11)
C6_2 C 0.22415(12) 0.77896(12) 0.64884(13)
C7_2 C 0.21186(14) 0.79205(14) 0.60691(14)
C8_2 C 0.22874(13) 0.82564(14) 0.58805(14)
H6_2 H 0.2494 0.8404 0.6014
C9_2 C 0.21577(14) 0.83817(15) 0.54955(16)
H7_2 H 0.2269 0.862 0.5381
C10_2 C 0.18677(16) 0.81614(17) 0.52776(16)
C11_2 C 0.1703(2) 0.7816(2) 0.5462(2)
H8_2 H 0.151 0.7658 0.532
C12_2 C 0.1822(2) 0.77008(18) 0.58541(18)
H9_2 H 0.1701 0.7471 0.5976
C13_2 C 0.17269(19) 0.82933(18) 0.48668(18)
C14_2 C 0.1452(2) 0.85550(19) 0.4081(2)
C15_2 C 0.22161(14) 0.64334(13) 0.72966(14)
C16_2 C 0.21076(15) 0.60031(13) 0.71768(14)
C17_2 C 0.17529(19) 0.59271(15) 0.6950(2)
H10_2 H 0.1581 0.6144 0.6874
C18_2 C 0.1658(2) 0.55315(17) 0.6838(2)
H11_2 H 0.1416 0.5486 0.669
C19_2 C 0.19010(15) 0.51997(13) 0.69326(15)
C20_2 C 0.22508(17) 0.52755(15) 0.71553(18)
H12_2 H 0.2424 0.5057 0.7225
C21_2 C 0.17760(14) 0.47788(13) 0.68072(14)
C22_2 C 0.13615(14) 0.46686(14) 0.67667(15)
H13_2 H 0.116 0.4866 0.6823
C23_2 C 0.12386(14) 0.42820(14) 0.66476(14)
H14_2 H 0.0959 0.4221 0.6621
C24_2 C 0.15342(13) 0.39801(13) 0.65658(13)
C25_2 C 0.19489(13) 0.40756(13) 0.66150(14)
H15_2 H 0.2149 0.3875 0.6569
C26_2 C 0.20638(14) 0.44688(14) 0.67324(15)
H16_2 H 0.2343 0.4529 0.6763
N1_2 N 0.1302(3) 0.8698(3) 0.3698(3)
N2_2 N 0.14195(12) 0.35805(12) 0.64195(12)
Zn1_2 Zn 0.199687(13) 0.730601(13) 0.721584(13)
C27_2 C 0.0336(2) 0.8181(3) 0.3615(3)
C28_2 C 0.1385(3) 0.9664(2) 0.3181(3)
H17_2 H 0.0206 0.7998 0.3794
H18_2 H 0.1206 0.9794 0.2998
C29_2 C 0.0700(2) 0.8306(3) 0.3733(3)
C30_2 C 0.1267(3) 0.9300(2) 0.3306(3)
H19_2 H 0.08 0.8198 0.398
H20_2 H 0.102 0.92 0.3198
C31_2 C 0.0884(3) 0.8423(3) 0.3093(3)
C32_2 C 0.1907(3) 0.9116(3) 0.3423(3)
H21_2 H 0.1109 0.8427 0.2914
H22_2 H 0.2086 0.8891 0.3427
C33_2 C 0.0483(3) 0.8301(3) 0.2964(3)
C34_2 C 0.2036(3) 0.9517(3) 0.3301(3)
H23_2 H 0.043 0.8239 0.2689
H24_2 H 0.2311 0.957 0.3239
C35_2 C 0.22795(17) 0.26464(16) 0.43274(14)
H25_2 H 0.2434 0.2408 0.4284
O8_2 O 0.33435(8) 0.75402(9) 0.70290(9)
O13_2 O 0.33473(9) 0.70353(10) 0.74973(11)
O16_2 O 0.17085(10) 0.78020(11) 0.80297(11)
O20_2 O 0.14870(9) 0.75107(11) 0.74550(11)
C51_2 C 0.01332(18) 0.82731(19) 0.32933(18)
C52_2 C 0.17067(18) 0.98668(18) 0.32731(19)
C53_2 C 0.0919(2) 0.8548(2) 0.35550(19)
C54_2 C 0.14450(19) 0.9081(2) 0.3548(2)
C55_2 C 0.22966(14) 0.27839(14) 0.35666(13)
C57_2 C 0.21768(14) 0.28924(15) 0.39969(13)
C59_2 C 0.1950(2) 0.32471(19) 0.40729(15)
H35_2 H 0.1874 0.3419 0.3856
C61_2 C 0.1838(2) 0.3342(2) 0.44685(17)
H37_2 H 0.169 0.3584 0.4514
C63_2 C 0.19326(15) 0.30990(15) 0.48003(13)
C65_2 C 0.21553(18) 0.27492(17) 0.47245(15)
H39_2 H 0.2225 0.2576 0.4943
C67_2 C 0.18072(14) 0.32240(14) 0.52212(13)
C68_2 C 0.02212(13) 0.31928(14) 0.67760(14)
C69_2 C 0.17667(15) 0.36385(14) 0.53314(14)
C70_2 C 0.03314(14) 0.32333(15) 0.63615(14)
H41_2 H 0.1823 0.384 0.5134
H42_2 H 0.0134 0.3177 0.616
C71_2 C 0.16476(14) 0.37614(14) 0.57180(14)
C72_2 C 0.07180(14) 0.33524(14) 0.62386(14)
H43_2 H 0.1621 0.4041 0.5779
H44_2 H 0.0779 0.3379 0.5959
C73_2 C 0.15658(13) 0.34658(13) 0.60199(13)
C74_2 C 0.10199(13) 0.34342(13) 0.65342(13)
C75_2 C 0.16150(14) 0.30511(13) 0.59244(13)
C76_2 C 0.09244(13) 0.33850(14) 0.69489(13)
H45_2 H 0.1569 0.2851 0.6125
H46_2 H 0.1125 0.3431 0.7149
C77_2 C 0.17324(15) 0.29362(14) 0.55312(14)
C78_2 C 0.05312(14) 0.32676(15) 0.70638(14)
H47_2 H 0.1763 0.2657 0.5471
H48_2 H 0.0471 0.3237 0.7343
C36_2 C 0.93274(14) 0.27205(17) 0.73536(16)
H26_2 H 0.9284 0.2566 0.7592
O6_2 O 0.83435(8) 0.74598(9) 0.29710(9)
O10_2 O 0.83473(9) 0.79647(10) 0.25027(11)
O15_2 O 0.82915(10) 0.28020(11) 0.69703(11)
O19_2 O 0.85130(9) 0.25107(11) 0.75450(11)
C37_2 C 0.85116(13) 0.77585(12) 0.27896(12)
C39_2 C 0.89309(14) 0.78814(14) 0.29205(14)
C41_2 C 0.91195(14) 0.77126(13) 0.32564(14)
H27_2 H 0.8986 0.7506 0.3404
C43_2 C 0.95045(16) 0.78423(14) 0.33817(15)
H29_2 H 0.9619 0.7731 0.362
C45_2 C 0.97224(16) 0.81323(16) 0.31614(17)
C47_2 C 0.9538(2) 0.8297(2) 0.2816(2)
H31_2 H 0.968 0.849 0.2658
C49_2 C 0.91459(18) 0.8178(2) 0.27008(18)
H33_2 H 0.9024 0.8299 0.2471
C56_2 C 0.85666(13) 0.27034(14) 0.72161(14)
C58_2 C 0.89969(13) 0.28232(14) 0.71076(15)
C60_2 C 0.90729(15) 0.3050(2) 0.67529(19)
H36_2 H 0.8856 0.3126 0.6581
C62_2 C 0.94685(17) 0.3162(2) 0.6658(2)
H38_2 H 0.9514 0.331 0.6416
C64_2 C 0.98003(13) 0.30674(15) 0.69010(15)
C66_2 C 0.97245(15) 0.28447(18) 0.72508(17)
H40_2 H 0.9943 0.2775 0.7424
Zn5_2 Zn 0.778416(13) 0.800313(13) 0.230601(13)
Zn9_2 Zn 0.769399(13) 0.278416(13) 0.699687(13)
Zn10_2 Zn 0.800313(13) 0.230601(13) 0.778416(13)
Zn11_2 Zn 0.783190(13) 0.716810(13) 0.283190(13)
C37_3 C 0.14884(13) 0.27585(12) 0.22104(12)
C39_3 C 0.10691(14) 0.28814(14) 0.20795(14)
C41_3 C 0.08805(14) 0.27126(13) 0.17436(14)
H27_3 H 0.1014 0.2506 0.1596
C43_3 C 0.04955(16) 0.28423(14) 0.16183(15)
H29_3 H 0.0381 0.2731 0.138
C45_3 C 0.02776(16) 0.31323(16) 0.18386(17)
C47_3 C 0.0462(2) 0.3297(2) 0.2184(2)
H31_3 H 0.032 0.349 0.2342
C49_3 C 0.08541(18) 0.3178(2) 0.22992(18)
H33_3 H 0.0976 0.3299 0.2529
C36_3 C 0.06726(14) 0.77205(17) 0.76464(16)
H26_3 H 0.0716 0.7566 0.7408
C56_3 C 0.14334(13) 0.77034(14) 0.77839(14)
C58_3 C 0.10031(13) 0.78232(14) 0.78924(15)
C60_3 C 0.09271(15) 0.8050(2) 0.82471(19)
H36_3 H 0.1144 0.8126 0.8419
C62_3 C 0.05315(17) 0.8162(2) 0.8342(2)
H38_3 H 0.0486 0.831 0.8584
C64_3 C 0.01997(13) 0.80674(15) 0.80990(15)
C66_3 C 0.02755(15) 0.78447(18) 0.77492(17)
H40_3 H 0.0057 0.7775 0.7576
C1_3 C 0.8181(3) 0.3615(3) 0.0336(2)
H1_3 H 0.7998 0.3794 0.0206
C2_3 C 0.8306(3) 0.3733(3) 0.0700(2)
H2_3 H 0.8198 0.398 0.08
C3_3 C 0.8423(3) 0.3093(3) 0.0884(3)
H3_3 H 0.8427 0.2914 0.1109
C4_3 C 0.8301(3) 0.2964(3) 0.0483(3)
H4_3 H 0.8239 0.2689 0.043
C13_3 C 0.82731(19) 0.32933(18) 0.01332(18)
C14_3 C 0.8548(2) 0.35550(19) 0.0919(2)
N1_3 N 0.8698(3) 0.3698(3) 0.1302(3)
C27_3 C 0.9664(2) 0.3181(3) 0.1385(3)
C28_3 C 0.8615(3) 0.4664(2) 0.1819(3)
H17_3 H 0.9794 0.2998 0.1206
H18_3 H 0.8794 0.4794 0.2002
C29_3 C 0.9300(2) 0.3306(3) 0.1267(3)
C30_3 C 0.8733(3) 0.4300(2) 0.1694(3)
H19_3 H 0.92 0.3198 0.102
H20_3 H 0.898 0.42 0.1802
C31_3 C 0.9116(3) 0.3423(3) 0.1907(3)
C32_3 C 0.8093(3) 0.4116(3) 0.1577(3)
H21_3 H 0.8891 0.3427 0.2086
H22_3 H 0.7914 0.3891 0.1573
C33_3 C 0.9517(3) 0.3301(3) 0.2036(3)
C34_3 C 0.7964(3) 0.4517(3) 0.1699(3)
H23_3 H 0.957 0.3239 0.2311
H24_3 H 0.7689 0.457 0.1761
O7_2 O 0.79710(9) 0.66565(8) 0.25402(9)
O11_2 O 0.75027(11) 0.66527(9) 0.20353(10)
C38_3 C 0.77896(12) 0.64884(13) 0.22415(12)
C40_3 C 0.79205(14) 0.60691(14) 0.21186(14)
C42_3 C 0.82564(14) 0.58805(14) 0.22874(13)
H28_3 H 0.8404 0.6014 0.2494
C44_3 C 0.83817(15) 0.54955(16) 0.21577(14)
H30_3 H 0.862 0.5381 0.2269
C46_3 C 0.81614(17) 0.52776(16) 0.18677(16)
C48_3 C 0.7816(2) 0.5462(2) 0.1703(2)
H32_3 H 0.7658 0.532 0.151
C50_3 C 0.77008(18) 0.58541(18) 0.1822(2)
H34_3 H 0.7471 0.5976 0.1701
C51_3 C 0.98668(18) 0.32731(19) 0.17067(18)
C52_3 C 0.82933(18) 0.48668(18) 0.17269(19)
C53_3 C 0.9081(2) 0.3548(2) 0.14450(19)
C54_3 C 0.85550(19) 0.4081(2) 0.1452(2)
C5_3 C 0.76464(16) 0.06726(14) 0.77205(17)
H5_3 H 0.7408 0.0716 0.7566
O1_3 O 0.75159(7) 0.24841(7) 0.74841(7)
O2_3 O 0.74598(9) 0.29710(9) 0.83435(8)
O3_3 O 0.79647(10) 0.25027(11) 0.83473(9)
O4_3 O 0.80297(11) 0.17085(10) 0.78020(11)
O5_3 O 0.74550(11) 0.14870(9) 0.75107(11)
C6_3 C 0.77585(12) 0.27896(12) 0.85116(13)
C7_3 C 0.78814(14) 0.29205(14) 0.89309(14)
C8_3 C 0.77126(13) 0.32564(14) 0.91195(14)
H6_3 H 0.7506 0.3404 0.8986
C9_3 C 0.78423(14) 0.33817(15) 0.95045(16)
H7_3 H 0.7731 0.362 0.9619
C10_3 C 0.81323(16) 0.31614(17) 0.97224(16)
C11_3 C 0.8297(2) 0.2816(2) 0.9538(2)
H8_3 H 0.849 0.2658 0.968
C12_3 C 0.8178(2) 0.27008(18) 0.91459(18)
H9_3 H 0.8299 0.2471 0.9024
C15_3 C 0.77839(14) 0.14334(13) 0.77034(14)
C16_3 C 0.78924(15) 0.10031(13) 0.78232(14)
C17_3 C 0.82471(19) 0.09271(15) 0.8050(2)
H10_3 H 0.8419 0.1144 0.8126
C18_3 C 0.8342(2) 0.05315(17) 0.8162(2)
H11_3 H 0.8584 0.0486 0.831
C19_3 C 0.80990(15) 0.01997(13) 0.80674(15)
C20_3 C 0.77492(17) 0.02755(15) 0.78447(18)
H12_3 H 0.7576 0.0057 0.7775
O9_2 O 0.70290(9) 0.33435(8) 0.75402(9)
O12_2 O 0.74973(11) 0.33473(9) 0.70353(10)
O17_2 O 0.71980(11) 0.19703(11) 0.67085(10)
O21_2 O 0.74893(11) 0.25450(11) 0.64870(9)
C35_3 C 0.77205(17) 0.76464(16) 0.06726(14)
H25_3 H 0.7566 0.7408 0.0716
O14_2 O 0.78020(11) 0.80297(11) 0.17085(10)
O18_2 O 0.75107(11) 0.74550(11) 0.14870(9)
C55_3 C 0.77034(14) 0.77839(14) 0.14334(13)
C57_3 C 0.78232(14) 0.78924(15) 0.10031(13)
C59_3 C 0.8050(2) 0.82471(19) 0.09271(15)
H35_3 H 0.8126 0.8419 0.1144
C61_3 C 0.8162(2) 0.8342(2) 0.05315(17)
H37_3 H 0.831 0.8584 0.0486
C63_3 C 0.80674(15) 0.80990(15) 0.01997(13)
C65_3 C 0.78447(18) 0.77492(17) 0.02755(15)
H39_3 H 0.7775 0.7576 0.0057
C21_3 C 0.67760(14) 0.02212(13) 0.31928(14)
C22_3 C 0.63615(14) 0.03314(14) 0.32333(15)
H13_3 H 0.616 0.0134 0.3177
C23_3 C 0.62386(14) 0.07180(14) 0.33524(14)
H14_3 H 0.5959 0.0779 0.3379
C24_3 C 0.65342(13) 0.10199(13) 0.34342(13)
C25_3 C 0.69489(13) 0.09244(13) 0.33850(14)
H15_3 H 0.7149 0.1125 0.3431
C26_3 C 0.70638(14) 0.05312(14) 0.32676(15)
H16_3 H 0.7343 0.0471 0.3237
N2_3 N 0.64195(12) 0.14195(12) 0.35805(12)
C35_4 C 0.72795(17) 0.23536(16) 0.56726(14)
C36_4 C 0.43274(14) 0.22795(17) 0.26464(16)
H25_4 H 0.7434 0.2592 0.5716
H26_4 H 0.4284 0.2434 0.2408
C55_4 C 0.72966(14) 0.22161(14) 0.64334(13)
C56_4 C 0.35666(13) 0.22966(14) 0.27839(14)
C57_4 C 0.71768(14) 0.21076(15) 0.60031(13)
C58_4 C 0.39969(13) 0.21768(14) 0.28924(15)
C59_4 C 0.6950(2) 0.17529(19) 0.59271(15)
C60_4 C 0.40729(15) 0.1950(2) 0.32471(19)
H35_4 H 0.6874 0.1581 0.6144
H36_4 H 0.3856 0.1874 0.3419
C61_4 C 0.6838(2) 0.1658(2) 0.55315(17)
C62_4 C 0.44685(17) 0.1838(2) 0.3342(2)
H37_4 H 0.669 0.1416 0.5486
H38_4 H 0.4514 0.169 0.3584
C63_4 C 0.69326(15) 0.19010(15) 0.51997(13)
C64_4 C 0.48003(13) 0.19326(15) 0.30990(15)
C65_4 C 0.71553(18) 0.22508(17) 0.52755(15)
C66_4 C 0.47245(15) 0.21553(18) 0.27492(17)
H39_4 H 0.7225 0.2424 0.5057
H40_4 H 0.4943 0.2225 0.2576
C67_3 C 0.68072(14) 0.17760(14) 0.47788(13)
C68_3 C 0.52212(13) 0.18072(14) 0.32240(14)
C69_3 C 0.67667(15) 0.13615(14) 0.46686(14)
C70_3 C 0.53314(14) 0.17667(15) 0.36385(14)
H41_3 H 0.6823 0.116 0.4866
H42_3 H 0.5134 0.1823 0.384
C71_3 C 0.66476(14) 0.12386(14) 0.42820(14)
C72_3 C 0.57180(14) 0.16476(14) 0.37614(14)
H43_3 H 0.6621 0.0959 0.4221
H44_3 H 0.5779 0.1621 0.4041
C73_3 C 0.65658(13) 0.15342(13) 0.39801(13)
C74_3 C 0.60199(13) 0.15658(13) 0.34658(13)
C75_3 C 0.66150(14) 0.19489(13) 0.40756(13)
C76_3 C 0.59244(13) 0.16150(14) 0.30511(13)
H45_3 H 0.6569 0.2149 0.3875
H46_3 H 0.6125 0.1569 0.2851
C77_3 C 0.67324(15) 0.20638(14) 0.44688(14)
C78_3 C 0.55312(14) 0.17324(15) 0.29362(14)
H47_3 H 0.6763 0.2343 0.4529
H48_3 H 0.5471 0.1763 0.2657
C1_4 C 0.6819(3) 0.6385(3) 0.5336(2)
H1_4 H 0.7002 0.6206 0.5206
C2_4 C 0.6694(3) 0.6267(3) 0.5700(2)
H2_4 H 0.6802 0.602 0.58
C3_4 C 0.6577(3) 0.6907(3) 0.5884(3)
H3_4 H 0.6573 0.7086 0.6109
C4_4 C 0.6699(3) 0.7036(3) 0.5483(3)
H4_4 H 0.6761 0.7311 0.543
C5_4 C 0.73536(16) 0.93274(14) 0.27205(17)
H5_4 H 0.7592 0.9284 0.2566
O1_4 O 0.74841(7) 0.75159(7) 0.24841(7)
O2_4 O 0.75402(9) 0.70290(9) 0.33435(8)
O3_4 O 0.70353(10) 0.74973(11) 0.33473(9)
O4_4 O 0.69703(11) 0.82915(10) 0.28020(11)
O5_4 O 0.75450(11) 0.85130(9) 0.25107(11)
C6_4 C 0.72415(12) 0.72104(12) 0.35116(13)
C7_4 C 0.71186(14) 0.70795(14) 0.39309(14)
C8_4 C 0.72874(13) 0.67436(14) 0.41195(14)
H6_4 H 0.7494 0.6596 0.3986
C9_4 C 0.71577(14) 0.66183(15) 0.45045(16)
H7_4 H 0.7269 0.638 0.4619
C10_4 C 0.68677(16) 0.68386(17) 0.47224(16)
C11_4 C 0.6703(2) 0.7184(2) 0.4538(2)
H8_4 H 0.651 0.7342 0.468
C12_4 C 0.6822(2) 0.72992(18) 0.41459(18)
H9_4 H 0.6701 0.7529 0.4024
C13_4 C 0.67269(19) 0.67067(18) 0.51332(18)
C14_4 C 0.6452(2) 0.64450(19) 0.5919(2)
C15_4 C 0.72161(14) 0.85666(13) 0.27034(14)
C16_4 C 0.71076(15) 0.89969(13) 0.28232(14)
C17_4 C 0.67529(19) 0.90729(15) 0.3050(2)
H10_4 H 0.6581 0.8856 0.3126
C18_4 C 0.6658(2) 0.94685(17) 0.3162(2)
H11_4 H 0.6416 0.9514 0.331
C19_4 C 0.69010(15) 0.98003(13) 0.30674(15)
C20_4 C 0.72508(17) 0.97245(15) 0.28447(18)
H12_4 H 0.7424 0.9943 0.2775
N1_4 N 0.6302(3) 0.6302(3) 0.6302(3)
C27_4 C 0.5336(2) 0.6819(3) 0.6385(3)
C28_4 C 0.6385(3) 0.5336(2) 0.6819(3)
H17_4 H 0.5206 0.7002 0.6206
H18_4 H 0.6206 0.5206 0.7002
C29_4 C 0.5700(2) 0.6694(3) 0.6267(3)
C30_4 C 0.6267(3) 0.5700(2) 0.6694(3)
H19_4 H 0.58 0.6802 0.602
H20_4 H 0.602 0.58 0.6802
C31_4 C 0.5884(3) 0.6577(3) 0.6907(3)
C32_4 C 0.6907(3) 0.5884(3) 0.6577(3)
H21_4 H 0.6109 0.6573 0.7086
H22_4 H 0.7086 0.6109 0.6573
C33_4 C 0.5483(3) 0.6699(3) 0.7036(3)
C34_4 C 0.7036(3) 0.5483(3) 0.6699(3)
H23_4 H 0.543 0.6761 0.7311
H24_4 H 0.7311 0.543 0.6761
C37_4 C 0.35116(13) 0.72415(12) 0.72104(12)
C38_4 C 0.72104(12) 0.35116(13) 0.72415(12)
C39_4 C 0.39309(14) 0.71186(14) 0.70795(14)
C40_4 C 0.70795(14) 0.39309(14) 0.71186(14)
C41_4 C 0.41195(14) 0.72874(13) 0.67436(14)
C42_4 C 0.67436(14) 0.41195(14) 0.72874(13)
H27_4 H 0.3986 0.7494 0.6596
H28_4 H 0.6596 0.3986 0.7494
C43_4 C 0.45045(16) 0.71577(14) 0.66183(15)
C44_4 C 0.66183(15) 0.45045(16) 0.71577(14)
H29_4 H 0.4619 0.7269 0.638
H30_4 H 0.638 0.4619 0.7269
C45_4 C 0.47224(16) 0.68677(16) 0.68386(17)
C46_4 C 0.68386(17) 0.47224(16) 0.68677(16)
C47_4 C 0.4538(2) 0.6703(2) 0.7184(2)
C48_4 C 0.7184(2) 0.4538(2) 0.6703(2)
H31_4 H 0.468 0.651 0.7342
H32_4 H 0.7342 0.468 0.651
C49_4 C 0.41459(18) 0.6822(2) 0.72992(18)
C50_4 C 0.72992(18) 0.41459(18) 0.6822(2)
H33_4 H 0.4024 0.6701 0.7529
H34_4 H 0.7529 0.4024 0.6701
C51_4 C 0.51332(18) 0.67269(19) 0.67067(18)
C52_4 C 0.67067(18) 0.51332(18) 0.67269(19)
C53_4 C 0.5919(2) 0.6452(2) 0.64450(19)
C54_4 C 0.64450(19) 0.5919(2) 0.6452(2)
C21_4 C 0.82240(14) 0.97788(13) 0.81928(14)
C22_4 C 0.86385(14) 0.96686(14) 0.82333(15)
H13_4 H 0.884 0.9866 0.8177
C23_4 C 0.87614(14) 0.92820(14) 0.83524(14)
H14_4 H 0.9041 0.9221 0.8379
C24_4 C 0.84658(13) 0.89801(13) 0.84342(13)
C25_4 C 0.80511(13) 0.90756(13) 0.83850(14)
H15_4 H 0.7851 0.8875 0.8431
C26_4 C 0.79362(14) 0.94688(14) 0.82676(15)
H16_4 H 0.7657 0.9529 0.8237
N2_4 N 0.85805(12) 0.85805(12) 0.85805(12)
C67_4 C 0.81928(14) 0.82240(14) 0.97788(13)
C68_4 C 0.97788(13) 0.81928(14) 0.82240(14)
C69_4 C 0.82333(15) 0.86385(14) 0.96686(14)
C70_4 C 0.96686(14) 0.82333(15) 0.86385(14)
H41_4 H 0.8177 0.884 0.9866
H42_4 H 0.9866 0.8177 0.884
C71_4 C 0.83524(14) 0.87614(14) 0.92820(14)
C72_4 C 0.92820(14) 0.83524(14) 0.87614(14)
H43_4 H 0.8379 0.9041 0.9221
H44_4 H 0.9221 0.8379 0.9041
C73_4 C 0.84342(13) 0.84658(13) 0.89801(13)
C74_4 C 0.89801(13) 0.84342(13) 0.84658(13)
C75_4 C 0.83850(14) 0.80511(13) 0.90756(13)
C76_4 C 0.90756(13) 0.83850(14) 0.80511(13)
H45_4 H 0.8431 0.7851 0.8875
H46_4 H 0.8875 0.8431 0.7851
C77_4 C 0.82676(15) 0.79362(14) 0.94688(14)
C78_4 C 0.94688(14) 0.82676(15) 0.79362(14)
H47_4 H 0.8237 0.7657 0.9529
H48_4 H 0.9529 0.8237 0.7657
O7_3 O 0.70290(9) 0.16565(8) 0.25402(9)
O11_3 O 0.74973(11) 0.16527(9) 0.20353(10)
C38_5 C 0.72104(12) 0.14884(13) 0.22415(12)
C40_5 C 0.70795(14) 0.10691(14) 0.21186(14)
C42_5 C 0.67436(14) 0.08805(14) 0.22874(13)
H28_5 H 0.6596 0.1014 0.2494
C44_5 C 0.66183(15) 0.04955(16) 0.21577(14)
H30_5 H 0.638 0.0381 0.2269
C46_5 C 0.68386(17) 0.02776(16) 0.18677(16)
C48_5 C 0.7184(2) 0.0462(2) 0.1703(2)
H32_5 H 0.7342 0.032 0.151
C50_5 C 0.72992(18) 0.08541(18) 0.1822(2)
H34_5 H 0.7529 0.0976 0.1701
Zn6 Zn 0.769399(13) 0.221584(13) 0.199687(13)
Zn12_2 Zn 0.716810(13) 0.216810(13) 0.283190(13)
C1_5 C 0.6819(3) 0.8615(3) 0.0336(2)
H1_5 H 0.7002 0.8794 0.0206
C2_5 C 0.6694(3) 0.8733(3) 0.0700(2)
H2_5 H 0.6802 0.898 0.08
C3_5 C 0.6577(3) 0.8093(3) 0.0884(3)
H3_5 H 0.6573 0.7914 0.1109
C4_5 C 0.6699(3) 0.7964(3) 0.0483(3)
H4_5 H 0.6761 0.7689 0.043
C13_5 C 0.67269(19) 0.82933(18) 0.01332(18)
C14_5 C 0.6452(2) 0.85550(19) 0.0919(2)
N1_5 N 0.6302(3) 0.8698(3) 0.1302(3)
C27_5 C 0.5336(2) 0.8181(3) 0.1385(3)
C28_5 C 0.6385(3) 0.9664(2) 0.1819(3)
H17_5 H 0.5206 0.7998 0.1206
H18_5 H 0.6206 0.9794 0.2002
C29_5 C 0.5700(2) 0.8306(3) 0.1267(3)
C30_5 C 0.6267(3) 0.9300(2) 0.1694(3)
H19_5 H 0.58 0.8198 0.102
H20_5 H 0.602 0.92 0.1802
C31_5 C 0.5884(3) 0.8423(3) 0.1907(3)
C32_5 C 0.6907(3) 0.9116(3) 0.1577(3)
H21_5 H 0.6109 0.8427 0.2086
H22_5 H 0.7086 0.8891 0.1573
C33_5 C 0.5483(3) 0.8301(3) 0.2036(3)
C34_5 C 0.7036(3) 0.9517(3) 0.1699(3)
H23_5 H 0.543 0.8239 0.2311
H24_5 H 0.7311 0.957 0.1761
C35_5 C 0.72795(17) 0.26464(16) 0.06726(14)
H25_5 H 0.7434 0.2408 0.0716
O6_3 O 0.33435(8) 0.74598(9) 0.20290(9)
O10_3 O 0.33473(9) 0.79647(10) 0.24973(11)
O14_3 O 0.71980(11) 0.30297(11) 0.17085(10)
O18_3 O 0.74893(11) 0.24550(11) 0.14870(9)
C37_5 C 0.35116(13) 0.77585(12) 0.22104(12)
C39_5 C 0.39309(14) 0.78814(14) 0.20795(14)
C41_5 C 0.41195(14) 0.77126(13) 0.17436(14)
H27_5 H 0.3986 0.7506 0.1596
C43_5 C 0.45045(16) 0.78423(14) 0.16183(15)
H29_5 H 0.4619 0.7731 0.138
C45_5 C 0.47224(16) 0.81323(16) 0.18386(17)
C47_5 C 0.4538(2) 0.8297(2) 0.2184(2)
H31_5 H 0.468 0.849 0.2342
C49_5 C 0.41459(18) 0.8178(2) 0.22992(18)
H33_5 H 0.4024 0.8299 0.2529
C51_5 C 0.51332(18) 0.82731(19) 0.17067(18)
C52_5 C 0.67067(18) 0.98668(18) 0.17269(19)
C53_5 C 0.5919(2) 0.8548(2) 0.14450(19)
C54_5 C 0.64450(19) 0.9081(2) 0.1452(2)
C55_5 C 0.72966(14) 0.27839(14) 0.14334(13)
C57_5 C 0.71768(14) 0.28924(15) 0.10031(13)
C59_5 C 0.6950(2) 0.32471(19) 0.09271(15)
H35_5 H 0.6874 0.3419 0.1144
C61_5 C 0.6838(2) 0.3342(2) 0.05315(17)
H37_5 H 0.669 0.3584 0.0486
C63_5 C 0.69326(15) 0.30990(15) 0.01997(13)
C65_5 C 0.71553(18) 0.27492(17) 0.02755(15)
H39_5 H 0.7225 0.2576 0.0057
Zn5_3 Zn 0.278416(13) 0.800313(13) 0.269399(13)
Zn7_2 Zn 0.721584(13) 0.300313(13) 0.230601(13)
Zn11_3 Zn 0.283190(13) 0.716810(13) 0.216810(13)
C5_5 C 0.73536(16) 0.56726(14) 0.77205(17)
H5_5 H 0.7592 0.5716 0.7566
O1_5 O 0.74841(7) 0.74841(7) 0.74841(7)
O2_5 O 0.75402(9) 0.79710(9) 0.83435(8)
O3_5 O 0.70353(10) 0.75027(11) 0.83473(9)
O4_5 O 0.69703(11) 0.67085(10) 0.78020(11)
O5_5 O 0.75450(11) 0.64870(9) 0.75107(11)
C6_5 C 0.72415(12) 0.77896(12) 0.85116(13)
C7_5 C 0.71186(14) 0.79205(14) 0.89309(14)
C8_5 C 0.72874(13) 0.82564(14) 0.91195(14)
H6_5 H 0.7494 0.8404 0.8986
C9_5 C 0.71577(14) 0.83817(15) 0.95045(16)
H7_5 H 0.7269 0.862 0.9619
C10_5 C 0.68677(16) 0.81614(17) 0.97224(16)
C11_5 C 0.6703(2) 0.7816(2) 0.9538(2)
H8_5 H 0.651 0.7658 0.968
C12_5 C 0.6822(2) 0.77008(18) 0.91459(18)
H9_5 H 0.6701 0.7471 0.9024
C15_5 C 0.72161(14) 0.64334(13) 0.77034(14)
C16_5 C 0.71076(15) 0.60031(13) 0.78232(14)
C17_5 C 0.67529(19) 0.59271(15) 0.8050(2)
H10_5 H 0.6581 0.6144 0.8126
C18_5 C 0.6658(2) 0.55315(17) 0.8162(2)
H11_5 H 0.6416 0.5486 0.831
C19_5 C 0.69010(15) 0.51997(13) 0.80674(15)
C20_5 C 0.72508(17) 0.52755(15) 0.78447(18)
H12_5 H 0.7424 0.5057 0.7775
C21_5 C 0.67760(14) 0.47788(13) 0.81928(14)
C22_5 C 0.63615(14) 0.46686(14) 0.82333(15)
H13_5 H 0.616 0.4866 0.8177
C23_5 C 0.62386(14) 0.42820(14) 0.83524(14)
H14_5 H 0.5959 0.4221 0.8379
C24_5 C 0.65342(13) 0.39801(13) 0.84342(13)
C25_5 C 0.69489(13) 0.40756(13) 0.83850(14)
H15_5 H 0.7149 0.3875 0.8431
C26_5 C 0.70638(14) 0.44688(14) 0.82676(15)
H16_5 H 0.7343 0.4529 0.8237
N2_5 N 0.64195(12) 0.35805(12) 0.85805(12)
Zn1_3 Zn 0.699687(13) 0.730601(13) 0.778416(13)
Zn2_2 Zn 0.783190(13) 0.783190(13) 0.783190(13)
C36_5 C 0.43274(14) 0.27205(17) 0.76464(16)
H26_5 H 0.4284 0.2566 0.7408
O8_3 O 0.83435(8) 0.75402(9) 0.79710(9)
O9_3 O 0.79710(9) 0.83435(8) 0.75402(9)
O12_3 O 0.75027(11) 0.83473(9) 0.70353(10)
O13_3 O 0.83473(9) 0.70353(10) 0.75027(11)
O15_3 O 0.32915(10) 0.28020(11) 0.80297(11)
O16_3 O 0.67085(10) 0.78020(11) 0.69703(11)
O17_3 O 0.78020(11) 0.69703(11) 0.67085(10)
O19_3 O 0.35130(9) 0.25107(11) 0.74550(11)
O20_3 O 0.64870(9) 0.75107(11) 0.75450(11)
O21_3 O 0.75107(11) 0.75450(11) 0.64870(9)
C56_5 C 0.35666(13) 0.27034(14) 0.77839(14)
C58_5 C 0.39969(13) 0.28232(14) 0.78924(15)
C60_5 C 0.40729(15) 0.3050(2) 0.82471(19)
H36_5 H 0.3856 0.3126 0.8419
C62_5 C 0.44685(17) 0.3162(2) 0.8342(2)
H38_5 H 0.4514 0.331 0.8584
C64_5 C 0.48003(13) 0.30674(15) 0.80990(15)
C66_5 C 0.47245(15) 0.28447(18) 0.77492(17)
H40_5 H 0.4943 0.2775 0.7576
C67_5 C 0.68072(14) 0.32240(14) 0.97788(13)
C68_5 C 0.52212(13) 0.31928(14) 0.82240(14)
C69_5 C 0.67667(15) 0.36385(14) 0.96686(14)
C70_5 C 0.53314(14) 0.32333(15) 0.86385(14)
H41_5 H 0.6823 0.384 0.9866
H42_5 H 0.5134 0.3177 0.884
C71_5 C 0.66476(14) 0.37614(14) 0.92820(14)
C72_5 C 0.57180(14) 0.33524(14) 0.87614(14)
H43_5 H 0.6621 0.4041 0.9221
H44_5 H 0.5779 0.3379 0.9041
C73_5 C 0.65658(13) 0.34658(13) 0.89801(13)
C74_5 C 0.60199(13) 0.34342(13) 0.84658(13)
C75_5 C 0.66150(14) 0.30511(13) 0.90756(13)
C76_5 C 0.59244(13) 0.33850(14) 0.80511(13)
H45_5 H 0.6569 0.2851 0.8875
H46_5 H 0.6125 0.3431 0.7851
C77_5 C 0.67324(15) 0.29362(14) 0.94688(14)
C78_5 C 0.55312(14) 0.32676(15) 0.79362(14)
H47_5 H 0.6763 0.2657 0.9529
H48_5 H 0.5471 0.3237 0.7657
Zn3_2 Zn 0.730601(13) 0.778416(13) 0.699687(13)
Zn4_2 Zn 0.778416(13) 0.699687(13) 0.730601(13)
Zn9_3 Zn 0.269399(13) 0.278416(13) 0.800313(13)
Zn10_3 Zn 0.300313(13) 0.230601(13) 0.721584(13)
C36_6 C 0.06726(14) 0.72795(17) 0.26464(16)
H26_6 H 0.0716 0.7434 0.2408
O6_4 O 0.16565(8) 0.25402(9) 0.70290(9)
O10_4 O 0.16527(9) 0.20353(10) 0.74973(11)
O15_4 O 0.17085(10) 0.71980(11) 0.30297(11)
O19_4 O 0.14870(9) 0.74893(11) 0.24550(11)
C37_6 C 0.14884(13) 0.22415(12) 0.72104(12)
C39_6 C 0.10691(14) 0.21186(14) 0.70795(14)
C41_6 C 0.08805(14) 0.22874(13) 0.67436(14)
H27_6 H 0.1014 0.2494 0.6596
C43_6 C 0.04955(16) 0.21577(14) 0.66183(15)
H29_6 H 0.0381 0.2269 0.638
C45_6 C 0.02776(16) 0.18677(16) 0.68386(17)
C47_6 C 0.0462(2) 0.1703(2) 0.7184(2)
H31_6 H 0.032 0.151 0.7342
C49_6 C 0.08541(18) 0.1822(2) 0.72992(18)
H33_6 H 0.0976 0.1701 0.7529
C56_6 C 0.14334(13) 0.72966(14) 0.27839(14)
C58_6 C 0.10031(13) 0.71768(14) 0.28924(15)
C60_6 C 0.09271(15) 0.6950(2) 0.32471(19)
H36_6 H 0.1144 0.6874 0.3419
C62_6 C 0.05315(17) 0.6838(2) 0.3342(2)
H38_6 H 0.0486 0.669 0.3584
C64_6 C 0.01997(13) 0.69326(15) 0.30990(15)
C66_6 C 0.02755(15) 0.71553(18) 0.27492(17)
H40_6 H 0.0057 0.7225 0.2576
Zn5_4 Zn 0.221584(13) 0.199687(13) 0.769399(13)
Zn9_4 Zn 0.230601(13) 0.721584(13) 0.300313(13)
Zn10_4 Zn 0.199687(13) 0.769399(13) 0.221584(13)
Zn11_4 Zn 0.216810(13) 0.283190(13) 0.716810(13)
C1_6 C 0.8181(3) 0.1385(3) 0.5336(2)
H1_6 H 0.7998 0.1206 0.5206
C2_6 C 0.8306(3) 0.1267(3) 0.5700(2)
H2_6 H 0.8198 0.102 0.58
C3_6 C 0.8423(3) 0.1907(3) 0.5884(3)
H3_6 H 0.8427 0.2086 0.6109
C4_6 C 0.8301(3) 0.2036(3) 0.5483(3)
H4_6 H 0.8239 0.2311 0.543
C5_6 C 0.76464(16) 0.43274(14) 0.27205(17)
H5_6 H 0.7408 0.4284 0.2566
O1_6 O 0.75159(7) 0.25159(7) 0.24841(7)
O2_6 O 0.74598(9) 0.20290(9) 0.33435(8)
O3_6 O 0.79647(10) 0.24973(11) 0.33473(9)
O4_6 O 0.80297(11) 0.32915(10) 0.28020(11)
O5_6 O 0.74550(11) 0.35130(9) 0.25107(11)
C6_6 C 0.77585(12) 0.22104(12) 0.35116(13)
C7_6 C 0.78814(14) 0.20795(14) 0.39309(14)
C8_6 C 0.77126(13) 0.17436(14) 0.41195(14)
H6_6 H 0.7506 0.1596 0.3986
C9_6 C 0.78423(14) 0.16183(15) 0.45045(16)
H7_6 H 0.7731 0.138 0.4619
C10_6 C 0.81323(16) 0.18386(17) 0.47224(16)
C11_6 C 0.8297(2) 0.2184(2) 0.4538(2)
H8_6 H 0.849 0.2342 0.468
C12_6 C 0.8178(2) 0.22992(18) 0.41459(18)
H9_6 H 0.8299 0.2529 0.4024
C13_6 C 0.82731(19) 0.17067(18) 0.51332(18)
C14_6 C 0.8548(2) 0.14450(19) 0.5919(2)
C15_6 C 0.77839(14) 0.35666(13) 0.27034(14)
C16_6 C 0.78924(15) 0.39969(13) 0.28232(14)
C17_6 C 0.82471(19) 0.40729(15) 0.3050(2)
H10_6 H 0.8419 0.3856 0.3126
C18_6 C 0.8342(2) 0.44685(17) 0.3162(2)
H11_6 H 0.8584 0.4514 0.331
C19_6 C 0.80990(15) 0.48003(13) 0.30674(15)
C20_6 C 0.77492(17) 0.47245(15) 0.28447(18)
H12_6 H 0.7576 0.4943 0.2775
C21_6 C 0.82240(14) 0.52212(13) 0.31928(14)
C22_6 C 0.86385(14) 0.53314(14) 0.32333(15)
H13_6 H 0.884 0.5134 0.3177
C23_6 C 0.87614(14) 0.57180(14) 0.33524(14)
H14_6 H 0.9041 0.5779 0.3379
C24_6 C 0.84658(13) 0.60199(13) 0.34342(13)
C25_6 C 0.80511(13) 0.59244(13) 0.33850(14)
H15_6 H 0.7851 0.6125 0.3431
C26_6 C 0.79362(14) 0.55312(14) 0.32676(15)
H16_6 H 0.7657 0.5471 0.3237
N1_6 N 0.8698(3) 0.1302(3) 0.6302(3)
N2_6 N 0.85805(12) 0.64195(12) 0.35805(12)
Zn1_4 Zn 0.800313(13) 0.269399(13) 0.278416(13)
C27_6 C 0.9664(2) 0.1819(3) 0.6385(3)
C28_6 C 0.8615(3) 0.0336(2) 0.6819(3)
H17_6 H 0.9794 0.2002 0.6206
H18_6 H 0.8794 0.0206 0.7002
C29_6 C 0.9300(2) 0.1694(3) 0.6267(3)
C30_6 C 0.8733(3) 0.0700(2) 0.6694(3)
H19_6 H 0.92 0.1802 0.602
H20_6 H 0.898 0.08 0.6802
C31_6 C 0.9116(3) 0.1577(3) 0.6907(3)
C32_6 C 0.8093(3) 0.0884(3) 0.6577(3)
H21_6 H 0.8891 0.1573 0.7086
H22_6 H 0.7914 0.1109 0.6573
C33_6 C 0.9517(3) 0.1699(3) 0.7036(3)
C34_6 C 0.7964(3) 0.0483(3) 0.6699(3)
H23_6 H 0.957 0.1761 0.7311
H24_6 H 0.7689 0.043 0.6761
C35_6 C 0.77205(17) 0.73536(16) 0.56726(14)
H25_6 H 0.7566 0.7592 0.5716
O8_4 O 0.66565(8) 0.24598(9) 0.29710(9)
O13_4 O 0.66527(9) 0.29647(10) 0.25027(11)
O16_4 O 0.82915(10) 0.21980(11) 0.19703(11)
O20_4 O 0.85130(9) 0.24893(11) 0.25450(11)
C51_6 C 0.98668(18) 0.17269(19) 0.67067(18)
C52_6 C 0.82933(18) 0.01332(18) 0.67269(19)
C53_6 C 0.9081(2) 0.1452(2) 0.64450(19)
C54_6 C 0.85550(19) 0.0919(2) 0.6452(2)
C55_6 C 0.77034(14) 0.72161(14) 0.64334(13)
C57_6 C 0.78232(14) 0.71076(15) 0.60031(13)
C59_6 C 0.8050(2) 0.67529(19) 0.59271(15)
H35_6 H 0.8126 0.6581 0.6144
C61_6 C 0.8162(2) 0.6658(2) 0.55315(17)
H37_6 H 0.831 0.6416 0.5486
C63_6 C 0.80674(15) 0.69010(15) 0.51997(13)
C65_6 C 0.78447(18) 0.72508(17) 0.52755(15)
H39_6 H 0.7775 0.7424 0.5057
C67_6 C 0.81928(14) 0.67760(14) 0.47788(13)
C68_6 C 0.97788(13) 0.68072(14) 0.32240(14)
C69_6 C 0.82333(15) 0.63615(14) 0.46686(14)
C70_6 C 0.96686(14) 0.67667(15) 0.36385(14)
H41_6 H 0.8177 0.616 0.4866
H42_6 H 0.9866 0.6823 0.384
C71_6 C 0.83524(14) 0.62386(14) 0.42820(14)
C72_6 C 0.92820(14) 0.66476(14) 0.37614(14)
H43_6 H 0.8379 0.5959 0.4221
H44_6 H 0.9221 0.6621 0.4041
C73_6 C 0.84342(13) 0.65342(13) 0.39801(13)
C74_6 C 0.89801(13) 0.65658(13) 0.34658(13)
C75_6 C 0.83850(14) 0.69489(13) 0.40756(13)
C76_6 C 0.90756(13) 0.66150(14) 0.30511(13)
H45_6 H 0.8431 0.7149 0.3875
H46_6 H 0.8875 0.6569 0.2851
C77_6 C 0.82676(15) 0.70638(14) 0.44688(14)
C78_6 C 0.94688(14) 0.67324(15) 0.29362(14)
H47_6 H 0.8237 0.7343 0.4529
H48_6 H 0.9529 0.6763 0.2657
C38_6 C 0.77896(12) 0.85116(13) 0.72415(12)
C40_6 C 0.79205(14) 0.89309(14) 0.71186(14)
C42_6 C 0.82564(14) 0.91195(14) 0.72874(13)
H28_6 H 0.8404 0.8986 0.7494
C44_6 C 0.83817(15) 0.95045(16) 0.71577(14)
H30_6 H 0.862 0.9619 0.7269
C46_6 C 0.81614(17) 0.97224(16) 0.68677(16)
C48_6 C 0.7816(2) 0.9538(2) 0.6703(2)
H32_6 H 0.7658 0.968 0.651
C50_6 C 0.77008(18) 0.91459(18) 0.6822(2)
H34_6 H 0.7471 0.9024 0.6701
C35_7 C 0.22795(17) 0.23536(16) 0.93274(14)
H25_7 H 0.2434 0.2592 0.9284
O14_4 O 0.21980(11) 0.19703(11) 0.82915(10)
O18_4 O 0.24893(11) 0.25450(11) 0.85130(9)
C55_7 C 0.22966(14) 0.22161(14) 0.85666(13)
C57_7 C 0.21768(14) 0.21076(15) 0.89969(13)
C59_7 C 0.1950(2) 0.17529(19) 0.90729(15)
H35_7 H 0.1874 0.1581 0.8856
C61_7 C 0.1838(2) 0.1658(2) 0.94685(17)
H37_7 H 0.169 0.1416 0.9514
C63_7 C 0.19326(15) 0.19010(15) 0.98003(13)
C65_7 C 0.21553(18) 0.22508(17) 0.97245(15)
H39_7 H 0.2225 0.2424 0.9943
C5_7 C 0.23536(16) 0.93274(14) 0.22795(17)
H5_7 H 0.2592 0.9284 0.2434
O1_7 O 0.24841(7) 0.75159(7) 0.25159(7)
O2_7 O 0.25402(9) 0.70290(9) 0.16565(8)
O3_7 O 0.20353(10) 0.74973(11) 0.16527(9)
O4_7 O 0.19703(11) 0.82915(10) 0.21980(11)
O5_7 O 0.25450(11) 0.85130(9) 0.24893(11)
C6_7 C 0.22415(12) 0.72104(12) 0.14884(13)
C7_7 C 0.21186(14) 0.70795(14) 0.10691(14)
C8_7 C 0.22874(13) 0.67436(14) 0.08805(14)
H6_7 H 0.2494 0.6596 0.1014
C9_7 C 0.21577(14) 0.66183(15) 0.04955(16)
H7_7 H 0.2269 0.638 0.0381
C10_7 C 0.18677(16) 0.68386(17) 0.02776(16)
C11_7 C 0.1703(2) 0.7184(2) 0.0462(2)
H8_7 H 0.151 0.7342 0.032
C12_7 C 0.1822(2) 0.72992(18) 0.08541(18)
H9_7 H 0.1701 0.7529 0.0976
C15_7 C 0.22161(14) 0.85666(13) 0.22966(14)
C16_7 C 0.21076(15) 0.89969(13) 0.21768(14)
C17_7 C 0.17529(19) 0.90729(15) 0.1950(2)
H10_7 H 0.1581 0.8856 0.1874
C18_7 C 0.1658(2) 0.94685(17) 0.1838(2)
H11_7 H 0.1416 0.9514 0.169
C19_7 C 0.19010(15) 0.98003(13) 0.19326(15)
C20_7 C 0.22508(17) 0.97245(15) 0.21553(18)
H12_7 H 0.2424 0.9943 0.2225
O9_4 O 0.29710(9) 0.66565(8) 0.24598(9)
O12_4 O 0.25027(11) 0.66527(9) 0.29647(10)
O17_4 O 0.28020(11) 0.80297(11) 0.32915(10)
O21_4 O 0.25107(11) 0.74550(11) 0.35130(9)
C1_7 C 0.1819(3) 0.6385(3) 0.9664(2)
H1_7 H 0.2002 0.6206 0.9794
C2_7 C 0.1694(3) 0.6267(3) 0.9300(2)
H2_7 H 0.1802 0.602 0.92
C3_7 C 0.1577(3) 0.6907(3) 0.9116(3)
H3_7 H 0.1573 0.7086 0.8891
C4_7 C 0.1699(3) 0.7036(3) 0.9517(3)
H4_7 H 0.1761 0.7311 0.957
C13_7 C 0.17269(19) 0.67067(18) 0.98668(18)
C14_7 C 0.1452(2) 0.64450(19) 0.9081(2)
N1_7 N 0.1302(3) 0.6302(3) 0.8698(3)
C27_7 C 0.0336(2) 0.6819(3) 0.8615(3)
C28_7 C 0.1385(3) 0.5336(2) 0.8181(3)
H17_7 H 0.0206 0.7002 0.8794
H18_7 H 0.1206 0.5206 0.7998
C29_7 C 0.0700(2) 0.6694(3) 0.8733(3)
C30_7 C 0.1267(3) 0.5700(2) 0.8306(3)
H19_7 H 0.08 0.6802 0.898
H20_7 H 0.102 0.58 0.8198
C31_7 C 0.0884(3) 0.6577(3) 0.8093(3)
C32_7 C 0.1907(3) 0.5884(3) 0.8423(3)
H21_7 H 0.1109 0.6573 0.7914
H22_7 H 0.2086 0.6109 0.8427
C33_7 C 0.0483(3) 0.6699(3) 0.7964(3)
C34_7 C 0.2036(3) 0.5483(3) 0.8301(3)
H23_7 H 0.043 0.6761 0.7689
H24_7 H 0.2311 0.543 0.8239
O7_4 O 0.20290(9) 0.33435(8) 0.74598(9)
O11_4 O 0.24973(11) 0.33473(9) 0.79647(10)
C38_7 C 0.22104(12) 0.35116(13) 0.77585(12)
C40_7 C 0.20795(14) 0.39309(14) 0.78814(14)
C42_7 C 0.17436(14) 0.41195(14) 0.77126(13)
H28_7 H 0.1596 0.3986 0.7506
C44_7 C 0.16183(15) 0.45045(16) 0.78423(14)
H30_7 H 0.138 0.4619 0.7731
C46_7 C 0.18386(17) 0.47224(16) 0.81323(16)
C48_7 C 0.2184(2) 0.4538(2) 0.8297(2)
H32_7 H 0.2342 0.468 0.849
C50_7 C 0.22992(18) 0.41459(18) 0.8178(2)
H34_7 H 0.2529 0.4024 0.8299
C51_7 C 0.01332(18) 0.67269(19) 0.82933(18)
C52_7 C 0.17067(18) 0.51332(18) 0.82731(19)
C53_7 C 0.0919(2) 0.6452(2) 0.85550(19)
C54_7 C 0.14450(19) 0.5919(2) 0.8548(2)
C36_7 C 0.93274(14) 0.22795(17) 0.23536(16)
H26_7 H 0.9284 0.2434 0.2592
C56_7 C 0.85666(13) 0.22966(14) 0.22161(14)
C58_7 C 0.89969(13) 0.21768(14) 0.21076(15)
C60_7 C 0.90729(15) 0.1950(2) 0.17529(19)
H36_7 H 0.8856 0.1874 0.1581
C62_7 C 0.94685(17) 0.1838(2) 0.1658(2)
H38_7 H 0.9514 0.169 0.1416
C64_7 C 0.98003(13) 0.19326(15) 0.19010(15)
C66_7 C 0.97245(15) 0.21553(18) 0.22508(17)
H40_7 H 0.9943 0.2225 0.2424
C37_7 C 0.85116(13) 0.72415(12) 0.77896(12)
C39_7 C 0.89309(14) 0.71186(14) 0.79205(14)
C41_7 C 0.91195(14) 0.72874(13) 0.82564(14)
H27_7 H 0.8986 0.7494 0.8404
C43_7 C 0.95045(16) 0.71577(14) 0.83817(15)
H29_7 H 0.9619 0.7269 0.862
C45_7 C 0.97224(16) 0.68677(16) 0.81614(17)
C47_7 C 0.9538(2) 0.6703(2) 0.7816(2)
H31_7 H 0.968 0.651 0.7658
C49_7 C 0.91459(18) 0.6822(2) 0.77008(18)
H33_7 H 0.9024 0.6701 0.7471
C1_8 C 0.3181(3) 0.3615(3) 0.4664(2)
H1_8 H 0.2998 0.3794 0.4794
C2_8 C 0.3306(3) 0.3733(3) 0.4300(2)
H2_8 H 0.3198 0.398 0.42
C3_8 C 0.3423(3) 0.3093(3) 0.4116(3)
H3_8 H 0.3427 0.2914 0.3891
C4_8 C 0.3301(3) 0.2964(3) 0.4517(3)
H4_8 H 0.3239 0.2689 0.457
C5_8 C 0.26464(16) 0.06726(14) 0.72795(17)
H5_8 H 0.2408 0.0716 0.7434
O1_8 O 0.25159(7) 0.24841(7) 0.75159(7)
O2_8 O 0.24598(9) 0.29710(9) 0.66565(8)
O3_8 O 0.29647(10) 0.25027(11) 0.66527(9)
O4_8 O 0.30297(11) 0.17085(10) 0.71980(11)
O5_8 O 0.24550(11) 0.14870(9) 0.74893(11)
C6_8 C 0.27585(12) 0.27896(12) 0.64884(13)
C7_8 C 0.28814(14) 0.29205(14) 0.60691(14)
C8_8 C 0.27126(13) 0.32564(14) 0.58805(14)
H6_8 H 0.2506 0.3404 0.6014
C9_8 C 0.28423(14) 0.33817(15) 0.54955(16)
H7_8 H 0.2731 0.362 0.5381
C10_8 C 0.31323(16) 0.31614(17) 0.52776(16)
C11_8 C 0.3297(2) 0.2816(2) 0.5462(2)
H8_8 H 0.349 0.2658 0.532
C12_8 C 0.3178(2) 0.27008(18) 0.58541(18)
H9_8 H 0.3299 0.2471 0.5976
C13_8 C 0.32731(19) 0.32933(18) 0.48668(18)
C14_8 C 0.3548(2) 0.35550(19) 0.4081(2)
C15_8 C 0.27839(14) 0.14334(13) 0.72966(14)
C16_8 C 0.28924(15) 0.10031(13) 0.71768(14)
C17_8 C 0.32471(19) 0.09271(15) 0.6950(2)
H10_8 H 0.3419 0.1144 0.6874
C18_8 C 0.3342(2) 0.05315(17) 0.6838(2)
H11_8 H 0.3584 0.0486 0.669
C19_8 C 0.30990(15) 0.01997(13) 0.69326(15)
C20_8 C 0.27492(17) 0.02755(15) 0.71553(18)
H12_8 H 0.2576 0.0057 0.7225
N1_8 N 0.3698(3) 0.3698(3) 0.3698(3)
C27_8 C 0.4664(2) 0.3181(3) 0.3615(3)
C28_8 C 0.3615(3) 0.4664(2) 0.3181(3)
H17_8 H 0.4794 0.2998 0.3794
H18_8 H 0.3794 0.4794 0.2998
C29_8 C 0.4300(2) 0.3306(3) 0.3733(3)
C30_8 C 0.3733(3) 0.4300(2) 0.3306(3)
H19_8 H 0.42 0.3198 0.398
H20_8 H 0.398 0.42 0.3198
C31_8 C 0.4116(3) 0.3423(3) 0.3093(3)
C32_8 C 0.3093(3) 0.4116(3) 0.3423(3)
H21_8 H 0.3891 0.3427 0.2914
H22_8 H 0.2914 0.3891 0.3427
C33_8 C 0.4517(3) 0.3301(3) 0.2964(3)
C34_8 C 0.2964(3) 0.4517(3) 0.3301(3)
H23_8 H 0.457 0.3239 0.2689
H24_8 H 0.2689 0.457 0.3239
C37_8 C 0.64884(13) 0.27585(12) 0.27896(12)
C38_8 C 0.27896(12) 0.64884(13) 0.27585(12)
C39_8 C 0.60691(14) 0.28814(14) 0.29205(14)
C40_8 C 0.29205(14) 0.60691(14) 0.28814(14)
C41_8 C 0.58805(14) 0.27126(13) 0.32564(14)
C42_8 C 0.32564(14) 0.58805(14) 0.27126(13)
H27_8 H 0.6014 0.2506 0.3404
H28_8 H 0.3404 0.6014 0.2506
C43_8 C 0.54955(16) 0.28423(14) 0.33817(15)
C44_8 C 0.33817(15) 0.54955(16) 0.28423(14)
H29_8 H 0.5381 0.2731 0.362
H30_8 H 0.362 0.5381 0.2731
C45_8 C 0.52776(16) 0.31323(16) 0.31614(17)
C46_8 C 0.31614(17) 0.52776(16) 0.31323(16)
C47_8 C 0.5462(2) 0.3297(2) 0.2816(2)
C48_8 C 0.2816(2) 0.5462(2) 0.3297(2)
H31_8 H 0.532 0.349 0.2658
H32_8 H 0.2658 0.532 0.349
C49_8 C 0.58541(18) 0.3178(2) 0.27008(18)
C50_8 C 0.27008(18) 0.58541(18) 0.3178(2)
H33_8 H 0.5976 0.3299 0.2471
H34_8 H 0.2471 0.5976 0.3299
C51_8 C 0.48668(18) 0.32731(19) 0.32933(18)
C52_8 C 0.32933(18) 0.48668(18) 0.32731(19)
C53_8 C 0.4081(2) 0.3548(2) 0.35550(19)
C54_8 C 0.35550(19) 0.4081(2) 0.3548(2)
C21_7 C 0.32240(14) 0.97788(13) 0.68072(14)
C22_7 C 0.36385(14) 0.96686(14) 0.67667(15)
H13_7 H 0.384 0.9866 0.6823
C23_7 C 0.37614(14) 0.92820(14) 0.66476(14)
H14_7 H 0.4041 0.9221 0.6621
C24_7 C 0.34658(13) 0.89801(13) 0.65658(13)
C25_7 C 0.30511(13) 0.90756(13) 0.66150(14)
H15_7 H 0.2851 0.8875 0.6569
C26_7 C 0.29362(14) 0.94688(14) 0.67324(15)
H16_7 H 0.2657 0.9529 0.6763
N2_7 N 0.35805(12) 0.85805(12) 0.64195(12)
C35_8 C 0.27205(17) 0.76464(16) 0.43274(14)
C36_8 C 0.56726(14) 0.77205(17) 0.73536(16)
H25_8 H 0.2566 0.7408 0.4284
H26_8 H 0.5716 0.7566 0.7592
C55_8 C 0.27034(14) 0.77839(14) 0.35666(13)
C56_8 C 0.64334(13) 0.77034(14) 0.72161(14)
C57_8 C 0.28232(14) 0.78924(15) 0.39969(13)
C58_8 C 0.60031(13) 0.78232(14) 0.71076(15)
C59_8 C 0.3050(2) 0.82471(19) 0.40729(15)
C60_8 C 0.59271(15) 0.8050(2) 0.67529(19)
H35_8 H 0.3126 0.8419 0.3856
H36_8 H 0.6144 0.8126 0.6581
C61_8 C 0.3162(2) 0.8342(2) 0.44685(17)
C62_8 C 0.55315(17) 0.8162(2) 0.6658(2)
H37_8 H 0.331 0.8584 0.4514
H38_8 H 0.5486 0.831 0.6416
C63_8 C 0.30674(15) 0.80990(15) 0.48003(13)
C64_8 C 0.51997(13) 0.80674(15) 0.69010(15)
C65_8 C 0.28447(18) 0.77492(17) 0.47245(15)
C66_8 C 0.52755(15) 0.78447(18) 0.72508(17)
H39_8 H 0.2775 0.7576 0.4943
H40_8 H 0.5057 0.7775 0.7424
C67_7 C 0.31928(14) 0.82240(14) 0.52212(13)
C68_7 C 0.47788(13) 0.81928(14) 0.67760(14)
C69_7 C 0.32333(15) 0.86385(14) 0.53314(14)
C70_7 C 0.46686(14) 0.82333(15) 0.63615(14)
H41_7 H 0.3177 0.884 0.5134
H42_7 H 0.4866 0.8177 0.616
C71_7 C 0.33524(14) 0.87614(14) 0.57180(14)
C72_7 C 0.42820(14) 0.83524(14) 0.62386(14)
H43_7 H 0.3379 0.9041 0.5779
H44_7 H 0.4221 0.8379 0.5959
C73_7 C 0.34342(13) 0.84658(13) 0.60199(13)
C74_7 C 0.39801(13) 0.84342(13) 0.65342(13)
C75_7 C 0.33850(14) 0.80511(13) 0.59244(13)
C76_7 C 0.40756(13) 0.83850(14) 0.69489(13)
H45_7 H 0.3431 0.7851 0.6125
H46_7 H 0.3875 0.8431 0.7149
C77_7 C 0.32676(15) 0.79362(14) 0.55312(14)
C78_7 C 0.44688(14) 0.82676(15) 0.70638(14)
H47_7 H 0.3237 0.7657 0.5471
H48_7 H 0.4529 0.8237 0.7343
C21_8 C 0.17760(14) 0.02212(13) 0.18072(14)
C22_8 C 0.13615(14) 0.03314(14) 0.17667(15)
H13_8 H 0.116 0.0134 0.1823
C23_8 C 0.12386(14) 0.07180(14) 0.16476(14)
H14_8 H 0.0959 0.0779 0.1621
C24_8 C 0.15342(13) 0.10199(13) 0.15658(13)
C25_8 C 0.19489(13) 0.09244(13) 0.16150(14)
H15_8 H 0.2149 0.1125 0.1569
C26_8 C 0.20638(14) 0.05312(14) 0.17324(15)
H16_8 H 0.2343 0.0471 0.1763
N2_8 N 0.14195(12) 0.14195(12) 0.14195(12)
C67_8 C 0.18072(14) 0.17760(14) 0.02212(13)
C68_8 C 0.02212(13) 0.18072(14) 0.17760(14)
C69_8 C 0.17667(15) 0.13615(14) 0.03314(14)
C70_8 C 0.03314(14) 0.17667(15) 0.13615(14)
H41_8 H 0.1823 0.116 0.0134
H42_8 H 0.0134 0.1823 0.116
C71_8 C 0.16476(14) 0.12386(14) 0.07180(14)
C72_8 C 0.07180(14) 0.16476(14) 0.12386(14)
H43_8 H 0.1621 0.0959 0.0779
H44_8 H 0.0779 0.1621 0.0959
C73_8 C 0.15658(13) 0.15342(13) 0.10199(13)
C74_8 C 0.10199(13) 0.15658(13) 0.15342(13)
C75_8 C 0.16150(14) 0.19489(13) 0.09244(13)
C76_8 C 0.09244(13) 0.16150(14) 0.19489(13)
H45_8 H 0.1569 0.2149 0.1125
H46_8 H 0.1125 0.1569 0.2149
C77_8 C 0.17324(15) 0.20638(14) 0.05312(14)
C78_8 C 0.05312(14) 0.17324(15) 0.20638(14)
H47_8 H 0.1763 0.2343 0.0471
H48_8 H 0.0471 0.1763 0.2343
loop_
_geom_bond_atom_site_label_1
_geom_bond_atom_site_label_2
_geom_bond_site_symmetry_1
_geom_bond_site_symmetry_2
C5 H5 1_555 1_555
O1 Zn1 1_555 1_555
O2 C6 1_555 1_555
O3 C6 1_555 1_555
O4 C15 1_555 1_555
O5 C15 1_555 1_555
C6 C7 1_555 1_555
C7 C8 1_555 1_555
C8 H6 1_555 1_555
C9 C8 1_555 1_555
H7 C9 1_555 1_555
C10 C9 1_555 1_555
C11 C10 1_555 1_555
H8 C11 1_555 1_555
C12 C7 1_555 1_555
H9 C12 1_555 1_555
C15 C16 1_555 1_555
C16 C5 1_555 1_555
C17 C16 1_555 1_555
H10 C17 1_555 1_555
C18 C17 1_555 1_555
H11 C18 1_555 1_555
C19 C18 1_555 1_555
C20 C5 1_555 1_555
H12 C20 1_555 1_555
C21 C19 1_555 1_555
C22 C21 1_555 1_555
H13 C22 1_555 1_555
C23 C22 1_555 1_555
H14 C23 1_555 1_555
C24 C23 1_555 1_555
C25 C24 1_555 1_555
H15 C25 1_555 1_555
C26 C21 1_555 1_555
H16 C26 1_555 1_555
N2 C24 1_555 1_555
Zn1 O3 1_555 1_555
Zn2 O1 1_555 1_555
C36 H26 1_555 1_555
O8 Zn2 1_555 1_555
O9 Zn2 1_555 1_555
O12 Zn3 1_555 1_555
O13 Zn4 1_555 1_555
O15 C56 1_555 1_555
O16 Zn3 1_555 1_555
O17 Zn4 1_555 1_555
O19 C56 1_555 1_555
O20 Zn1 1_555 1_555
O21 Zn3 1_555 1_555
C56 C58 1_555 1_555
C58 C36 1_555 1_555
C60 C58 1_555 1_555
H36 C60 1_555 1_555
C62 C60 1_555 1_555
H38 C62 1_555 1_555
C64 C62 1_555 1_555
C66 C36 1_555 1_555
H40 C66 1_555 1_555
C68 C64 1_555 1_555
C69 C67 1_555 1_555
C70 C68 1_555 1_555
H41 C69 1_555 1_555
H42 C70 1_555 1_555
C71 C69 1_555 1_555
C72 C70 1_555 1_555
H43 C71 1_555 1_555
H44 C72 1_555 1_555
C73 N2 1_555 1_555
C74 N2 1_555 1_555
C75 C73 1_555 1_555
C76 C74 1_555 1_555
H45 C75 1_555 1_555
H46 C76 1_555 1_555
C77 C67 1_555 1_555
C78 C68 1_555 1_555
H47 C77 1_555 1_555
H48 C78 1_555 1_555
Zn3 O1 1_555 1_555
Zn4 O1 1_555 1_555
Zn9 O15 1_555 1_555
Zn10 O19 1_555 1_555
O2 Zn2 1_555 1_555
O4 Zn1 1_555 1_555
O5 Zn4 1_555 1_555
C11 C12 1_555 1_555
C19 C20 1_555 1_555
C25 C26 1_555 1_555
C64 C66 1_555 1_555
C71 C73 1_555 1_555
C72 C74 1_555 1_555
C75 C77 1_555 1_555
C76 C78 1_555 1_555
C1 H1 1_555 1_555
C2 C1 1_555 1_555
H2 C2 1_555 1_555
C3 H3 1_555 1_555
C4 C3 1_555 1_555
H4 C4 1_555 1_555
C13 C1 1_555 1_555
C14 C2 1_555 1_555
N1 C14 1_555 1_555
C27 H17 1_555 1_555
C28 H18 1_555 1_555
C29 C27 1_555 1_555
C30 C28 1_555 1_555
H19 C29 1_555 1_555
H20 C30 1_555 1_555
C31 H21 1_555 1_555
C32 H22 1_555 1_555
C33 C31 1_555 1_555
C34 C32 1_555 1_555
H23 C33 1_555 1_555
H24 C34 1_555 1_555
C35 H25 1_555 1_555
O6 C37 1_555 1_555
O10 C37 1_555 1_555
O14 C55 1_555 1_555
O18 C55 1_555 1_555
C37 C39 1_555 1_555
C39 C41 1_555 1_555
C41 H27 1_555 1_555
C43 C41 1_555 1_555
H29 C43 1_555 1_555
C45 C43 1_555 1_555
C47 C45 1_555 1_555
H31 C47 1_555 1_555
C49 C39 1_555 1_555
H33 C49 1_555 1_555
C51 C27 1_555 1_555
C52 C28 1_555 1_555
C53 N1 1_555 1_555
C54 N1 1_555 1_555
C55 C57 1_555 1_555
C57 C35 1_555 1_555
C59 C57 1_555 1_555
H35 C59 1_555 1_555
C61 C59 1_555 1_555
H37 C61 1_555 1_555
C63 C61 1_555 1_555
C65 C35 1_555 1_555
H39 C65 1_555 1_555
Zn5 O10 1_555 1_555
Zn7 O14 1_555 1_555
Zn8 O18 1_555 1_555
Zn11 O6 1_555 1_555
C3 C14 1_555 1_555
C4 C13 1_555 1_555
C29 C53 1_555 1_555
C30 C54 1_555 1_555
C31 C53 1_555 1_555
C32 C54 1_555 1_555
C33 C51 1_555 1_555
C34 C52 1_555 1_555
C45 C51 1_555 1_555
C47 C49 1_555 1_555
C63 C65 1_555 1_555
O7 C38 1_555 1_555
O11 C38 1_555 1_555
C38 C40 1_555 1_555
C40 C42 1_555 1_555
C42 H28 1_555 1_555
C44 C42 1_555 1_555
H30 C44 1_555 1_555
C46 C44 1_555 1_555
C48 C46 1_555 1_555
H32 C48 1_555 1_555
C50 C40 1_555 1_555
H34 C50 1_555 1_555
Zn8 O11 1_555 1_555
Zn12 O7 1_555 1_555
C48 C50 1_555 1_555
O9 C38_2 1_555 1_555
O12 C38_2 1_555 1_555
C38_2 C40_2 1_555 1_555
C40_2 C42_2 1_555 1_555
C42_2 H28_2 1_555 1_555
C44_2 C42_2 1_555 1_555
H30_2 C44_2 1_555 1_555
C46_2 C44_2 1_555 1_555
C48_2 C46_2 1_555 1_555
H32_2 C48_2 1_555 1_555
C50_2 C40_2 1_555 1_555
H34_2 C50_2 1_555 1_555
C48_2 C50_2 1_555 1_555
C1_2 H1_2 1_555 1_555
C2_2 C1_2 1_555 1_555
H2_2 C2_2 1_555 1_555
C3_2 H3_2 1_555 1_555
C4_2 C3_2 1_555 1_555
H4_2 C4_2 1_555 1_555
C5_2 H5_2 1_555 1_555
O1_2 Zn1_2 1_555 1_555
O2_2 C6_2 1_555 1_555
O3_2 C6_2 1_555 1_555
O4_2 C15_2 1_555 1_555
O5_2 C15_2 1_555 1_555
C6_2 C7_2 1_555 1_555
C7_2 C8_2 1_555 1_555
C8_2 H6_2 1_555 1_555
C9_2 C8_2 1_555 1_555
H7_2 C9_2 1_555 1_555
C10_2 C9_2 1_555 1_555
C11_2 C10_2 1_555 1_555
H8_2 C11_2 1_555 1_555
C12_2 C7_2 1_555 1_555
H9_2 C12_2 1_555 1_555
C13_2 C1_2 1_555 1_555
C14_2 C2_2 1_555 1_555
C15_2 C16_2 1_555 1_555
C16_2 C5_2 1_555 1_555
C17_2 C16_2 1_555 1_555
H10_2 C17_2 1_555 1_555
C18_2 C17_2 1_555 1_555
H11_2 C18_2 1_555 1_555
C19_2 C18_2 1_555 1_555
C20_2 C5_2 1_555 1_555
H12_2 C20_2 1_555 1_555
C21_2 C19_2 1_555 1_555
C22_2 C21_2 1_555 1_555
H13_2 C22_2 1_555 1_555
C23_2 C22_2 1_555 1_555
H14_2 C23_2 1_555 1_555
C24_2 C23_2 1_555 1_555
C25_2 C24_2 1_555 1_555
H15_2 C25_2 1_555 1_555
C26_2 C21_2 1_555 1_555
H16_2 C26_2 1_555 1_555
N1_2 C14_2 1_555 1_555
N2_2 C24_2 1_555 1_555
Zn1_2 O3_2 1_555 1_555
Zn12 O1_2 1_555 1_555
C27_2 H17_2 1_555 1_555
C28_2 H18_2 1_555 1_555
C29_2 C27_2 1_555 1_555
C30_2 C28_2 1_555 1_555
H19_2 C29_2 1_555 1_555
H20_2 C30_2 1_555 1_555
C31_2 H21_2 1_555 1_555
C32_2 H22_2 1_555 1_555
C33_2 C31_2 1_555 1_555
C34_2 C32_2 1_555 1_555
H23_2 C33_2 1_555 1_555
H24_2 C34_2 1_555 1_555
C35_2 H25_2 1_555 1_555
O8_2 Zn12 1_555 1_555
O13_2 Zn7 1_555 1_555
O17 C55_2 1_555 1_555
O16_2 Zn8 1_555 1_555
O21 C55_2 1_555 1_555
O20_2 Zn1_2 1_555 1_555
C51_2 C27_2 1_555 1_555
C52_2 C28_2 1_555 1_555
C53_2 N1_2 1_555 1_555
C54_2 N1_2 1_555 1_555
C55_2 C57_2 1_555 1_555
C57_2 C35_2 1_555 1_555
C59_2 C57_2 1_555 1_555
H35_2 C59_2 1_555 1_555
C61_2 C59_2 1_555 1_555
H37_2 C61_2 1_555 1_555
C63_2 C61_2 1_555 1_555
C65_2 C35_2 1_555 1_555
H39_2 C65_2 1_555 1_555
C67_2 C63_2 1_555 1_555
C69_2 C67_2 1_555 1_555
C70_2 C68_2 1_555 1_555
H41_2 C69_2 1_555 1_555
H42_2 C70_2 1_555 1_555
C71_2 C69_2 1_555 1_555
C72_2 C70_2 1_555 1_555
H43_2 C71_2 1_555 1_555
H44_2 C72_2 1_555 1_555
C73_2 N2_2 1_555 1_555
C74_2 N2_2 1_555 1_555
C75_2 C73_2 1_555 1_555
C76_2 C74_2 1_555 1_555
H45_2 C75_2 1_555 1_555
H46_2 C76_2 1_555 1_555
C77_2 C67_2 1_555 1_555
C78_2 C68_2 1_555 1_555
H47_2 C77_2 1_555 1_555
H48_2 C78_2 1_555 1_555
Zn8 O1_2 1_555 1_555
Zn7 O1_2 1_555 1_555
C3_2 C14_2 1_555 1_555
C4_2 C13_2 1_555 1_555
O2_2 Zn12 1_555 1_555
O4_2 Zn1_2 1_555 1_555
O5_2 Zn7 1_555 1_555
C10_2 C13_2 1_555 1_555
C11_2 C12_2 1_555 1_555
C19_2 C20_2 1_555 1_555
C25_2 C26_2 1_555 1_555
C29_2 C53_2 1_555 1_555
C30_2 C54_2 1_555 1_555
C31_2 C53_2 1_555 1_555
C32_2 C54_2 1_555 1_555
C33_2 C51_2 1_555 1_555
C34_2 C52_2 1_555 1_555
C63_2 C65_2 1_555 1_555
C71_2 C73_2 1_555 1_555
C72_2 C74_2 1_555 1_555
C75_2 C77_2 1_555 1_555
C76_2 C78_2 1_555 1_555
C36_2 H26_2 1_555 1_555
O6_2 C37_2 1_555 1_555
O10_2 C37_2 1_555 1_555
O15_2 C56_2 1_555 1_555
O19_2 C56_2 1_555 1_555
C37_2 C39_2 1_555 1_555
C39_2 C41_2 1_555 1_555
C41_2 H27_2 1_555 1_555
C43_2 C41_2 1_555 1_555
H29_2 C43_2 1_555 1_555
C45_2 C43_2 1_555 1_555
C47_2 C45_2 1_555 1_555
H31_2 C47_2 1_555 1_555
C49_2 C39_2 1_555 1_555
H33_2 C49_2 1_555 1_555
C56_2 C58_2 1_555 1_555
C58_2 C36_2 1_555 1_555
C60_2 C58_2 1_555 1_555
H36_2 C60_2 1_555 1_555
C62_2 C60_2 1_555 1_555
H38_2 C62_2 1_555 1_555
C64_2 C62_2 1_555 1_555
C66_2 C36_2 1_555 1_555
H40_2 C66_2 1_555 1_555
Zn5_2 O10_2 1_555 1_555
Zn9_2 O15_2 1_555 1_555
Zn10_2 O19_2 1_555 1_555
Zn11_2 O6_2 1_555 1_555
C47_2 C49_2 1_555 1_555
C64_2 C66_2 1_555 1_555
O8 C37_3 1_555 1_555
O13 C37_3 1_555 1_555
C37_3 C39_3 1_555 1_555
C39_3 C41_3 1_555 1_555
C41_3 H27_3 1_555 1_555
C43_3 C41_3 1_555 1_555
H29_3 C43_3 1_555 1_555
C45_3 C43_3 1_555 1_555
C47_3 C45_3 1_555 1_555
H31_3 C47_3 1_555 1_555
C49_3 C39_3 1_555 1_555
H33_3 C49_3 1_555 1_555
C47_3 C49_3 1_555 1_555
C36_3 H26_3 1_555 1_555
O16_2 C56_3 1_555 1_555
O20_2 C56_3 1_555 1_555
C56_3 C58_3 1_555 1_555
C58_3 C36_3 1_555 1_555
C60_3 C58_3 1_555 1_555
H36_3 C60_3 1_555 1_555
C62_3 C60_3 1_555 1_555
H38_3 C62_3 1_555 1_555
C64_3 C62_3 1_555 1_555
C66_3 C36_3 1_555 1_555
H40_3 C66_3 1_555 1_555
C64_3 C66_3 1_555 1_555
C1_3 H1_3 1_555 1_555
C2_3 C1_3 1_555 1_555
H2_3 C2_3 1_555 1_555
C3_3 H3_3 1_555 1_555
C4_3 C3_3 1_555 1_555
H4_3 C4_3 1_555 1_555
C13_3 C1_3 1_555 1_555
C14_3 C2_3 1_555 1_555
N1_3 C14_3 1_555 1_555
C27_3 H17_3 1_555 1_555
C28_3 H18_3 1_555 1_555
C29_3 C27_3 1_555 1_555
C30_3 C28_3 1_555 1_555
H19_3 C29_3 1_555 1_555
H20_3 C30_3 1_555 1_555
C31_3 H21_3 1_555 1_555
C32_3 H22_3 1_555 1_555
C33_3 C31_3 1_555 1_555
C34_3 C32_3 1_555 1_555
H23_3 C33_3 1_555 1_555
H24_3 C34_3 1_555 1_555
O7_2 C38_3 1_555 1_555
O11_2 C38_3 1_555 1_555
C38_3 C40_3 1_555 1_555
C40_3 C42_3 1_555 1_555
C42_3 H28_3 1_555 1_555
C44_3 C42_3 1_555 1_555
H30_3 C44_3 1_555 1_555
C46_3 C44_3 1_555 1_555
C48_3 C46_3 1_555 1_555
H32_3 C48_3 1_555 1_555
C50_3 C40_3 1_555 1_555
H34_3 C50_3 1_555 1_555
C51_3 C27_3 1_555 1_555
C52_3 C28_3 1_555 1_555
C53_3 N1_3 1_555 1_555
C54_3 N1_3 1_555 1_555
Zn9 O11_2 1_555 1_555
Zn11_2 O7_2 1_555 1_555
C3_3 C14_3 1_555 1_555
C4_3 C13_3 1_555 1_555
C29_3 C53_3 1_555 1_555
C30_3 C54_3 1_555 1_555
C31_3 C53_3 1_555 1_555
C32_3 C54_3 1_555 1_555
C33_3 C51_3 1_555 1_555
C34_3 C52_3 1_555 1_555
C46_3 C52_3 1_555 1_555
C48_3 C50_3 1_555 1_555
C5_3 H5_3 1_555 1_555
O1_3 Zn10_2 1_555 1_555
O2_3 C6_3 1_555 1_555
O3_3 C6_3 1_555 1_555
O4_3 C15_3 1_555 1_555
O5_3 C15_3 1_555 1_555
C6_3 C7_3 1_555 1_555
C7_3 C8_3 1_555 1_555
C8_3 H6_3 1_555 1_555
C9_3 C8_3 1_555 1_555
H7_3 C9_3 1_555 1_555
C10_3 C9_3 1_555 1_555
C11_3 C10_3 1_555 1_555
H8_3 C11_3 1_555 1_555
C12_3 C7_3 1_555 1_555
H9_3 C12_3 1_555 1_555
C15_3 C16_3 1_555 1_555
C16_3 C5_3 1_555 1_555
C17_3 C16_3 1_555 1_555
H10_3 C17_3 1_555 1_555
C18_3 C17_3 1_555 1_555
H11_3 C18_3 1_555 1_555
C19_3 C18_3 1_555 1_555
C20_3 C5_3 1_555 1_555
H12_3 C20_3 1_555 1_555
Zn10_2 O3_3 1_555 1_555
Zn11 O1_3 1_555 1_555
O9_2 Zn11 1_555 1_555
O12_2 Zn9_2 1_555 1_555
O17_2 Zn5 1_555 1_555
O21_2 Zn9_2 1_555 1_555
Zn9_2 O1_3 1_555 1_555
Zn5 O1_3 1_555 1_555
O2_3 Zn11 1_555 1_555
O4_3 Zn10_2 1_555 1_555
O5_3 Zn5 1_555 1_555
C11_3 C12_3 1_555 1_555
C19_3 C20_3 1_555 1_555
C35_3 H25_3 1_555 1_555
O14_2 C55_3 1_555 1_555
O18_2 C55_3 1_555 1_555
C55_3 C57_3 1_555 1_555
C57_3 C35_3 1_555 1_555
C59_3 C57_3 1_555 1_555
H35_3 C59_3 1_555 1_555
C61_3 C59_3 1_555 1_555
H37_3 C61_3 1_555 1_555
C63_3 C61_3 1_555 1_555
C65_3 C35_3 1_555 1_555
H39_3 C65_3 1_555 1_555
Zn5_2 O14_2 1_555 1_555
Zn9 O18_2 1_555 1_555
C63_3 C65_3 1_555 1_555
C22_3 C21_3 1_555 1_555
H13_3 C22_3 1_555 1_555
C23_3 C22_3 1_555 1_555
H14_3 C23_3 1_555 1_555
C24_3 C23_3 1_555 1_555
C25_3 C24_3 1_555 1_555
H15_3 C25_3 1_555 1_555
C26_3 C21_3 1_555 1_555
H16_3 C26_3 1_555 1_555
N2_3 C24_3 1_555 1_555
C35_4 H25_4 1_555 1_555
C36_4 H26_4 1_555 1_555
O17_2 C55_4 1_555 1_555
O16 C56_4 1_555 1_555
O21_2 C55_4 1_555 1_555
O20 C56_4 1_555 1_555
C55_4 C57_4 1_555 1_555
C56_4 C58_4 1_555 1_555
C57_4 C35_4 1_555 1_555
C58_4 C36_4 1_555 1_555
C59_4 C57_4 1_555 1_555
C60_4 C58_4 1_555 1_555
H35_4 C59_4 1_555 1_555
H36_4 C60_4 1_555 1_555
C61_4 C59_4 1_555 1_555
C62_4 C60_4 1_555 1_555
H37_4 C61_4 1_555 1_555
H38_4 C62_4 1_555 1_555
C63_4 C61_4 1_555 1_555
C64_4 C62_4 1_555 1_555
C65_4 C35_4 1_555 1_555
C66_4 C36_4 1_555 1_555
H39_4 C65_4 1_555 1_555
H40_4 C66_4 1_555 1_555
C67_3 C63_4 1_555 1_555
C68_3 C64_4 1_555 1_555
C69_3 C67_3 1_555 1_555
C70_3 C68_3 1_555 1_555
H41_3 C69_3 1_555 1_555
H42_3 C70_3 1_555 1_555
C71_3 C69_3 1_555 1_555
C72_3 C70_3 1_555 1_555
H43_3 C71_3 1_555 1_555
H44_3 C72_3 1_555 1_555
C73_3 N2_3 1_555 1_555
C74_3 N2_3 1_555 1_555
C75_3 C73_3 1_555 1_555
C76_3 C74_3 1_555 1_555
H45_3 C75_3 1_555 1_555
H46_3 C76_3 1_555 1_555
C77_3 C67_3 1_555 1_555
C78_3 C68_3 1_555 1_555
H47_3 C77_3 1_555 1_555
H48_3 C78_3 1_555 1_555
C25_3 C26_3 1_555 1_555
C63_4 C65_4 1_555 1_555
C64_4 C66_4 1_555 1_555
C71_3 C73_3 1_555 1_555
C72_3 C74_3 1_555 1_555
C75_3 C77_3 1_555 1_555
C76_3 C78_3 1_555 1_555
C1_4 H1_4 1_555 1_555
C2_4 C1_4 1_555 1_555
H2_4 C2_4 1_555 1_555
C3_4 H3_4 1_555 1_555
C4_4 C3_4 1_555 1_555
H4_4 C4_4 1_555 1_555
C5_4 H5_4 1_555 1_555
O1_4 Zn10 1_555 1_555
O2_4 C6_4 1_555 1_555
O3_4 C6_4 1_555 1_555
O4_4 C15_4 1_555 1_555
O5_4 C15_4 1_555 1_555
C6_4 C7_4 1_555 1_555
C7_4 C8_4 1_555 1_555
C8_4 H6_4 1_555 1_555
C9_4 C8_4 1_555 1_555
H7_4 C9_4 1_555 1_555
C10_4 C9_4 1_555 1_555
C11_4 C10_4 1_555 1_555
H8_4 C11_4 1_555 1_555
C12_4 C7_4 1_555 1_555
H9_4 C12_4 1_555 1_555
C13_4 C1_4 1_555 1_555
C14_4 C2_4 1_555 1_555
C15_4 C16_4 1_555 1_555
C16_4 C5_4 1_555 1_555
C17_4 C16_4 1_555 1_555
H10_4 C17_4 1_555 1_555
C18_4 C17_4 1_555 1_555
H11_4 C18_4 1_555 1_555
C19_4 C18_4 1_555 1_555
C20_4 C5_4 1_555 1_555
H12_4 C20_4 1_555 1_555
N1_4 C14_4 1_555 1_555
Zn10 O3_4 1_555 1_555
Zn11_2 O1_4 1_555 1_555
C27_4 H17_4 1_555 1_555
C28_4 H18_4 1_555 1_555
C29_4 C27_4 1_555 1_555
C30_4 C28_4 1_555 1_555
H19_4 C29_4 1_555 1_555
H20_4 C30_4 1_555 1_555
C31_4 H21_4 1_555 1_555
C32_4 H22_4 1_555 1_555
C33_4 C31_4 1_555 1_555
C34_4 C32_4 1_555 1_555
H23_4 C33_4 1_555 1_555
H24_4 C34_4 1_555 1_555
O8_2 C37_4 1_555 1_555
O9_2 C38_4 1_555 1_555
O13_2 C37_4 1_555 1_555
O12_2 C38_4 1_555 1_555
C37_4 C39_4 1_555 1_555
C38_4 C40_4 1_555 1_555
C39_4 C41_4 1_555 1_555
C40_4 C42_4 1_555 1_555
C41_4 H27_4 1_555 1_555
C42_4 H28_4 1_555 1_555
C43_4 C41_4 1_555 1_555
C44_4 C42_4 1_555 1_555
H29_4 C43_4 1_555 1_555
H30_4 C44_4 1_555 1_555
C45_4 C43_4 1_555 1_555
C46_4 C44_4 1_555 1_555
C47_4 C45_4 1_555 1_555
C48_4 C46_4 1_555 1_555
H31_4 C47_4 1_555 1_555
H32_4 C48_4 1_555 1_555
C49_4 C39_4 1_555 1_555
C50_4 C40_4 1_555 1_555
H33_4 C49_4 1_555 1_555
H34_4 C50_4 1_555 1_555
C51_4 C27_4 1_555 1_555
C52_4 C28_4 1_555 1_555
C53_4 N1_4 1_555 1_555
C54_4 N1_4 1_555 1_555
Zn9 O1_4 1_555 1_555
Zn5_2 O1_4 1_555 1_555
C3_4 C14_4 1_555 1_555
C4_4 C13_4 1_555 1_555
O2_4 Zn11_2 1_555 1_555
O4_4 Zn10 1_555 1_555
O5_4 Zn5_2 1_555 1_555
C10_4 C13_4 1_555 1_555
C11_4 C12_4 1_555 1_555
C19_4 C20_4 1_555 1_555
C29_4 C53_4 1_555 1_555
C30_4 C54_4 1_555 1_555
C31_4 C53_4 1_555 1_555
C32_4 C54_4 1_555 1_555
C33_4 C51_4 1_555 1_555
C34_4 C52_4 1_555 1_555
C45_4 C51_4 1_555 1_555
C46_4 C52_4 1_555 1_555
C47_4 C49_4 1_555 1_555
C48_4 C50_4 1_555 1_555
C22_4 C21_4 1_555 1_555
H13_4 C22_4 1_555 1_555
C23_4 C22_4 1_555 1_555
H14_4 C23_4 1_555 1_555
C24_4 C23_4 1_555 1_555
C25_4 C24_4 1_555 1_555
H15_4 C25_4 1_555 1_555
C26_4 C21_4 1_555 1_555
H16_4 C26_4 1_555 1_555
N2_4 C24_4 1_555 1_555
C69_4 C67_4 1_555 1_555
C70_4 C68_4 1_555 1_555
H41_4 C69_4 1_555 1_555
H42_4 C70_4 1_555 1_555
C71_4 C69_4 1_555 1_555
C72_4 C70_4 1_555 1_555
H43_4 C71_4 1_555 1_555
H44_4 C72_4 1_555 1_555
C73_4 N2_4 1_555 1_555
C74_4 N2_4 1_555 1_555
C75_4 C73_4 1_555 1_555
C76_4 C74_4 1_555 1_555
H45_4 C75_4 1_555 1_555
H46_4 C76_4 1_555 1_555
C77_4 C67_4 1_555 1_555
C78_4 C68_4 1_555 1_555
H47_4 C77_4 1_555 1_555
H48_4 C78_4 1_555 1_555
C25_4 C26_4 1_555 1_555
C71_4 C73_4 1_555 1_555
C72_4 C74_4 1_555 1_555
C75_4 C77_4 1_555 1_555
C76_4 C78_4 1_555 1_555
O7_3 C38_5 1_555 1_555
O11_3 C38_5 1_555 1_555
C38_5 C40_5 1_555 1_555
C40_5 C42_5 1_555 1_555
C42_5 H28_5 1_555 1_555
C44_5 C42_5 1_555 1_555
H30_5 C44_5 1_555 1_555
C46_5 C44_5 1_555 1_555
C48_5 C46_5 1_555 1_555
H32_5 C48_5 1_555 1_555
C50_5 C40_5 1_555 1_555
H34_5 C50_5 1_555 1_555
Zn6 O11_3 1_555 1_555
Zn12_2 O7_3 1_555 1_555
C48_5 C50_5 1_555 1_555
C1_5 H1_5 1_555 1_555
C2_5 C1_5 1_555 1_555
H2_5 C2_5 1_555 1_555
C3_5 H3_5 1_555 1_555
C4_5 C3_5 1_555 1_555
H4_5 C4_5 1_555 1_555
C13_5 C1_5 1_555 1_555
C14_5 C2_5 1_555 1_555
N1_5 C14_5 1_555 1_555
C27_5 H17_5 1_555 1_555
C28_5 H18_5 1_555 1_555
C29_5 C27_5 1_555 1_555
C30_5 C28_5 1_555 1_555
H19_5 C29_5 1_555 1_555
H20_5 C30_5 1_555 1_555
C31_5 H21_5 1_555 1_555
C32_5 H22_5 1_555 1_555
C33_5 C31_5 1_555 1_555
C34_5 C32_5 1_555 1_555
H23_5 C33_5 1_555 1_555
H24_5 C34_5 1_555 1_555
C35_5 H25_5 1_555 1_555
O6_3 C37_5 1_555 1_555
O10_3 C37_5 1_555 1_555
O14_3 C55_5 1_555 1_555
O18_3 C55_5 1_555 1_555
C37_5 C39_5 1_555 1_555
C39_5 C41_5 1_555 1_555
C41_5 H27_5 1_555 1_555
C43_5 C41_5 1_555 1_555
H29_5 C43_5 1_555 1_555
C45_5 C43_5 1_555 1_555
C47_5 C45_5 1_555 1_555
H31_5 C47_5 1_555 1_555
C49_5 C39_5 1_555 1_555
H33_5 C49_5 1_555 1_555
C51_5 C27_5 1_555 1_555
C52_5 C28_5 1_555 1_555
C53_5 N1_5 1_555 1_555
C54_5 N1_5 1_555 1_555
C55_5 C57_5 1_555 1_555
C57_5 C35_5 1_555 1_555
C59_5 C57_5 1_555 1_555
H35_5 C59_5 1_555 1_555
C61_5 C59_5 1_555 1_555
H37_5 C61_5 1_555 1_555
C63_5 C61_5 1_555 1_555
C65_5 C35_5 1_555 1_555
H39_5 C65_5 1_555 1_555
Zn5_3 O10_3 1_555 1_555
Zn7_2 O14_3 1_555 1_555
Zn6 O18_3 1_555 1_555
Zn11_3 O6_3 1_555 1_555
C3_5 C14_5 1_555 1_555
C4_5 C13_5 1_555 1_555
C29_5 C53_5 1_555 1_555
C30_5 C54_5 1_555 1_555
C31_5 C53_5 1_555 1_555
C32_5 C54_5 1_555 1_555
C33_5 C51_5 1_555 1_555
C34_5 C52_5 1_555 1_555
C45_5 C51_5 1_555 1_555
C47_5 C49_5 1_555 1_555
C63_5 C65_5 1_555 1_555
C5_5 H5_5 1_555 1_555
O1_5 Zn1_3 1_555 1_555
O2_5 C6_5 1_555 1_555
O3_5 C6_5 1_555 1_555
O4_5 C15_5 1_555 1_555
O5_5 C15_5 1_555 1_555
C6_5 C7_5 1_555 1_555
C7_5 C8_5 1_555 1_555
C8_5 H6_5 1_555 1_555
C9_5 C8_5 1_555 1_555
H7_5 C9_5 1_555 1_555
C10_5 C9_5 1_555 1_555
C11_5 C10_5 1_555 1_555
H8_5 C11_5 1_555 1_555
C12_5 C7_5 1_555 1_555
H9_5 C12_5 1_555 1_555
C15_5 C16_5 1_555 1_555
C16_5 C5_5 1_555 1_555
C17_5 C16_5 1_555 1_555
H10_5 C17_5 1_555 1_555
C18_5 C17_5 1_555 1_555
H11_5 C18_5 1_555 1_555
C19_5 C18_5 1_555 1_555
C20_5 C5_5 1_555 1_555
H12_5 C20_5 1_555 1_555
C21_5 C19_5 1_555 1_555
C22_5 C21_5 1_555 1_555
H13_5 C22_5 1_555 1_555
C23_5 C22_5 1_555 1_555
H14_5 C23_5 1_555 1_555
C24_5 C23_5 1_555 1_555
C25_5 C24_5 1_555 1_555
H15_5 C25_5 1_555 1_555
C26_5 C21_5 1_555 1_555
H16_5 C26_5 1_555 1_555
N2_5 C24_5 1_555 1_555
Zn1_3 O3_5 1_555 1_555
Zn2_2 O1_5 1_555 1_555
C36_5 H26_5 1_555 1_555
O8_3 Zn2_2 1_555 1_555
O9_3 Zn2_2 1_555 1_555
O12_3 Zn3_2 1_555 1_555
O13_3 Zn4_2 1_555 1_555
O15_3 C56_5 1_555 1_555
O16_3 Zn3_2 1_555 1_555
O17_3 Zn4_2 1_555 1_555
O19_3 C56_5 1_555 1_555
O20_3 Zn1_3 1_555 1_555
O21_3 Zn3_2 1_555 1_555
C56_5 C58_5 1_555 1_555
C58_5 C36_5 1_555 1_555
C60_5 C58_5 1_555 1_555
H36_5 C60_5 1_555 1_555
C62_5 C60_5 1_555 1_555
H38_5 C62_5 1_555 1_555
C64_5 C62_5 1_555 1_555
C66_5 C36_5 1_555 1_555
H40_5 C66_5 1_555 1_555
C68_5 C64_5 1_555 1_555
C69_5 C67_5 1_555 1_555
C70_5 C68_5 1_555 1_555
H41_5 C69_5 1_555 1_555
H42_5 C70_5 1_555 1_555
C71_5 C69_5 1_555 1_555
C72_5 C70_5 1_555 1_555
H43_5 C71_5 1_555 1_555
H44_5 C72_5 1_555 1_555
C73_5 N2_5 1_555 1_555
C74_5 N2_5 1_555 1_555
C75_5 C73_5 1_555 1_555
C76_5 C74_5 1_555 1_555
H45_5 C75_5 1_555 1_555
H46_5 C76_5 1_555 1_555
C77_5 C67_5 1_555 1_555
C78_5 C68_5 1_555 1_555
H47_5 C77_5 1_555 1_555
H48_5 C78_5 1_555 1_555
Zn3_2 O1_5 1_555 1_555
Zn4_2 O1_5 1_555 1_555
Zn9_3 O15_3 1_555 1_555
Zn10_3 O19_3 1_555 1_555
O2_5 Zn2_2 1_555 1_555
O4_5 Zn1_3 1_555 1_555
O5_5 Zn4_2 1_555 1_555
C11_5 C12_5 1_555 1_555
C19_5 C20_5 1_555 1_555
C25_5 C26_5 1_555 1_555
C64_5 C66_5 1_555 1_555
C71_5 C73_5 1_555 1_555
C72_5 C74_5 1_555 1_555
C75_5 C77_5 1_555 1_555
C76_5 C78_5 1_555 1_555
C36_6 H26_6 1_555 1_555
O6_4 C37_6 1_555 1_555
O10_4 C37_6 1_555 1_555
O15_4 C56_6 1_555 1_555
O19_4 C56_6 1_555 1_555
C37_6 C39_6 1_555 1_555
C39_6 C41_6 1_555 1_555
C41_6 H27_6 1_555 1_555
C43_6 C41_6 1_555 1_555
H29_6 C43_6 1_555 1_555
C45_6 C43_6 1_555 1_555
C47_6 C45_6 1_555 1_555
H31_6 C47_6 1_555 1_555
C49_6 C39_6 1_555 1_555
H33_6 C49_6 1_555 1_555
C56_6 C58_6 1_555 1_555
C58_6 C36_6 1_555 1_555
C60_6 C58_6 1_555 1_555
H36_6 C60_6 1_555 1_555
C62_6 C60_6 1_555 1_555
H38_6 C62_6 1_555 1_555
C64_6 C62_6 1_555 1_555
C66_6 C36_6 1_555 1_555
H40_6 C66_6 1_555 1_555
Zn5_4 O10_4 1_555 1_555
Zn9_4 O15_4 1_555 1_555
Zn10_4 O19_4 1_555 1_555
Zn11_4 O6_4 1_555 1_555
C47_6 C49_6 1_555 1_555
C64_6 C66_6 1_555 1_555
C1_6 H1_6 1_555 1_555
C2_6 C1_6 1_555 1_555
H2_6 C2_6 1_555 1_555
C3_6 H3_6 1_555 1_555
C4_6 C3_6 1_555 1_555
H4_6 C4_6 1_555 1_555
C5_6 H5_6 1_555 1_555
O1_6 Zn1_4 1_555 1_555
O2_6 C6_6 1_555 1_555
O3_6 C6_6 1_555 1_555
O4_6 C15_6 1_555 1_555
O5_6 C15_6 1_555 1_555
C6_6 C7_6 1_555 1_555
C7_6 C8_6 1_555 1_555
C8_6 H6_6 1_555 1_555
C9_6 C8_6 1_555 1_555
H7_6 C9_6 1_555 1_555
C10_6 C9_6 1_555 1_555
C11_6 C10_6 1_555 1_555
H8_6 C11_6 1_555 1_555
C12_6 C7_6 1_555 1_555
H9_6 C12_6 1_555 1_555
C13_6 C1_6 1_555 1_555
C14_6 C2_6 1_555 1_555
C15_6 C16_6 1_555 1_555
C16_6 C5_6 1_555 1_555
C17_6 C16_6 1_555 1_555
H10_6 C17_6 1_555 1_555
C18_6 C17_6 1_555 1_555
H11_6 C18_6 1_555 1_555
C19_6 C18_6 1_555 1_555
C20_6 C5_6 1_555 1_555
H12_6 C20_6 1_555 1_555
C21_6 C19_6 1_555 1_555
C22_6 C21_6 1_555 1_555
H13_6 C22_6 1_555 1_555
C23_6 C22_6 1_555 1_555
H14_6 C23_6 1_555 1_555
C24_6 C23_6 1_555 1_555
C25_6 C24_6 1_555 1_555
H15_6 C25_6 1_555 1_555
C26_6 C21_6 1_555 1_555
H16_6 C26_6 1_555 1_555
N1_6 C14_6 1_555 1_555
N2_6 C24_6 1_555 1_555
Zn1_4 O3_6 1_555 1_555
Zn12_2 O1_6 1_555 1_555
C27_6 H17_6 1_555 1_555
C28_6 H18_6 1_555 1_555
C29_6 C27_6 1_555 1_555
C30_6 C28_6 1_555 1_555
H19_6 C29_6 1_555 1_555
H20_6 C30_6 1_555 1_555
C31_6 H21_6 1_555 1_555
C32_6 H22_6 1_555 1_555
C33_6 C31_6 1_555 1_555
C34_6 C32_6 1_555 1_555
H23_6 C33_6 1_555 1_555
H24_6 C34_6 1_555 1_555
C35_6 H25_6 1_555 1_555
O8_4 Zn12_2 1_555 1_555
O13_4 Zn7_2 1_555 1_555
O17_3 C55_6 1_555 1_555
O16_4 Zn6 1_555 1_555
O21_3 C55_6 1_555 1_555
O20_4 Zn1_4 1_555 1_555
C51_6 C27_6 1_555 1_555
C52_6 C28_6 1_555 1_555
C53_6 N1_6 1_555 1_555
C54_6 N1_6 1_555 1_555
C55_6 C57_6 1_555 1_555
C57_6 C35_6 1_555 1_555
C59_6 C57_6 1_555 1_555
H35_6 C59_6 1_555 1_555
C61_6 C59_6 1_555 1_555
H37_6 C61_6 1_555 1_555
C63_6 C61_6 1_555 1_555
C65_6 C35_6 1_555 1_555
H39_6 C65_6 1_555 1_555
C67_6 C63_6 1_555 1_555
C69_6 C67_6 1_555 1_555
C70_6 C68_6 1_555 1_555
H41_6 C69_6 1_555 1_555
H42_6 C70_6 1_555 1_555
C71_6 C69_6 1_555 1_555
C72_6 C70_6 1_555 1_555
H43_6 C71_6 1_555 1_555
H44_6 C72_6 1_555 1_555
C73_6 N2_6 1_555 1_555
C74_6 N2_6 1_555 1_555
C75_6 C73_6 1_555 1_555
C76_6 C74_6 1_555 1_555
H45_6 C75_6 1_555 1_555
H46_6 C76_6 1_555 1_555
C77_6 C67_6 1_555 1_555
C78_6 C68_6 1_555 1_555
H47_6 C77_6 1_555 1_555
H48_6 C78_6 1_555 1_555
Zn6 O1_6 1_555 1_555
Zn7_2 O1_6 1_555 1_555
C3_6 C14_6 1_555 1_555
C4_6 C13_6 1_555 1_555
O2_6 Zn12_2 1_555 1_555
O4_6 Zn1_4 1_555 1_555
O5_6 Zn7_2 1_555 1_555
C10_6 C13_6 1_555 1_555
C11_6 C12_6 1_555 1_555
C19_6 C20_6 1_555 1_555
C25_6 C26_6 1_555 1_555
C29_6 C53_6 1_555 1_555
C30_6 C54_6 1_555 1_555
C31_6 C53_6 1_555 1_555
C32_6 C54_6 1_555 1_555
C33_6 C51_6 1_555 1_555
C34_6 C52_6 1_555 1_555
C63_6 C65_6 1_555 1_555
C71_6 C73_6 1_555 1_555
C72_6 C74_6 1_555 1_555
C75_6 C77_6 1_555 1_555
C76_6 C78_6 1_555 1_555
O9_3 C38_6 1_555 1_555
O12_3 C38_6 1_555 1_555
C38_6 C40_6 1_555 1_555
C40_6 C42_6 1_555 1_555
C42_6 H28_6 1_555 1_555
C44_6 C42_6 1_555 1_555
H30_6 C44_6 1_555 1_555
C46_6 C44_6 1_555 1_555
C48_6 C46_6 1_555 1_555
H32_6 C48_6 1_555 1_555
C50_6 C40_6 1_555 1_555
H34_6 C50_6 1_555 1_555
C48_6 C50_6 1_555 1_555
C35_7 H25_7 1_555 1_555
O14_4 C55_7 1_555 1_555
O18_4 C55_7 1_555 1_555
C55_7 C57_7 1_555 1_555
C57_7 C35_7 1_555 1_555
C59_7 C57_7 1_555 1_555
H35_7 C59_7 1_555 1_555
C61_7 C59_7 1_555 1_555
H37_7 C61_7 1_555 1_555
C63_7 C61_7 1_555 1_555
C65_7 C35_7 1_555 1_555
H39_7 C65_7 1_555 1_555
Zn5_4 O14_4 1_555 1_555
Zn9_3 O18_4 1_555 1_555
C63_7 C65_7 1_555 1_555
C5_7 H5_7 1_555 1_555
O1_7 Zn10_4 1_555 1_555
O2_7 C6_7 1_555 1_555
O3_7 C6_7 1_555 1_555
O4_7 C15_7 1_555 1_555
O5_7 C15_7 1_555 1_555
C6_7 C7_7 1_555 1_555
C7_7 C8_7 1_555 1_555
C8_7 H6_7 1_555 1_555
C9_7 C8_7 1_555 1_555
H7_7 C9_7 1_555 1_555
C10_7 C9_7 1_555 1_555
C11_7 C10_7 1_555 1_555
H8_7 C11_7 1_555 1_555
C12_7 C7_7 1_555 1_555
H9_7 C12_7 1_555 1_555
C15_7 C16_7 1_555 1_555
C16_7 C5_7 1_555 1_555
C17_7 C16_7 1_555 1_555
H10_7 C17_7 1_555 1_555
C18_7 C17_7 1_555 1_555
H11_7 C18_7 1_555 1_555
C19_7 C18_7 1_555 1_555
C20_7 C5_7 1_555 1_555
H12_7 C20_7 1_555 1_555
Zn10_4 O3_7 1_555 1_555
Zn11_3 O1_7 1_555 1_555
O9_4 Zn11_3 1_555 1_555
O12_4 Zn9_4 1_555 1_555
O17_4 Zn5_3 1_555 1_555
O21_4 Zn9_4 1_555 1_555
Zn9_4 O1_7 1_555 1_555
Zn5_3 O1_7 1_555 1_555
O2_7 Zn11_3 1_555 1_555
O4_7 Zn10_4 1_555 1_555
O5_7 Zn5_3 1_555 1_555
C11_7 C12_7 1_555 1_555
C19_7 C20_7 1_555 1_555
C1_7 H1_7 1_555 1_555
C2_7 C1_7 1_555 1_555
H2_7 C2_7 1_555 1_555
C3_7 H3_7 1_555 1_555
C4_7 C3_7 1_555 1_555
H4_7 C4_7 1_555 1_555
C13_7 C1_7 1_555 1_555
C14_7 C2_7 1_555 1_555
N1_7 C14_7 1_555 1_555
C27_7 H17_7 1_555 1_555
C28_7 H18_7 1_555 1_555
C29_7 C27_7 1_555 1_555
C30_7 C28_7 1_555 1_555
H19_7 C29_7 1_555 1_555
H20_7 C30_7 1_555 1_555
C31_7 H21_7 1_555 1_555
C32_7 H22_7 1_555 1_555
C33_7 C31_7 1_555 1_555
C34_7 C32_7 1_555 1_555
H23_7 C33_7 1_555 1_555
H24_7 C34_7 1_555 1_555
O7_4 C38_7 1_555 1_555
O11_4 C38_7 1_555 1_555
C38_7 C40_7 1_555 1_555
C40_7 C42_7 1_555 1_555
C42_7 H28_7 1_555 1_555
C44_7 C42_7 1_555 1_555
H30_7 C44_7 1_555 1_555
C46_7 C44_7 1_555 1_555
C48_7 C46_7 1_555 1_555
H32_7 C48_7 1_555 1_555
C50_7 C40_7 1_555 1_555
H34_7 C50_7 1_555 1_555
C51_7 C27_7 1_555 1_555
C52_7 C28_7 1_555 1_555
C53_7 N1_7 1_555 1_555
C54_7 N1_7 1_555 1_555
Zn9_3 O11_4 1_555 1_555
Zn11_4 O7_4 1_555 1_555
C3_7 C14_7 1_555 1_555
C4_7 C13_7 1_555 1_555
C29_7 C53_7 1_555 1_555
C30_7 C54_7 1_555 1_555
C31_7 C53_7 1_555 1_555
C32_7 C54_7 1_555 1_555
C33_7 C51_7 1_555 1_555
C34_7 C52_7 1_555 1_555
C46_7 C52_7 1_555 1_555
C48_7 C50_7 1_555 1_555
C36_7 H26_7 1_555 1_555
O16_4 C56_7 1_555 1_555
O20_4 C56_7 1_555 1_555
C56_7 C58_7 1_555 1_555
C58_7 C36_7 1_555 1_555
C60_7 C58_7 1_555 1_555
H36_7 C60_7 1_555 1_555
C62_7 C60_7 1_555 1_555
H38_7 C62_7 1_555 1_555
C64_7 C62_7 1_555 1_555
C66_7 C36_7 1_555 1_555
H40_7 C66_7 1_555 1_555
C64_7 C66_7 1_555 1_555
O8_3 C37_7 1_555 1_555
O13_3 C37_7 1_555 1_555
C37_7 C39_7 1_555 1_555
C39_7 C41_7 1_555 1_555
C41_7 H27_7 1_555 1_555
C43_7 C41_7 1_555 1_555
H29_7 C43_7 1_555 1_555
C45_7 C43_7 1_555 1_555
C47_7 C45_7 1_555 1_555
H31_7 C47_7 1_555 1_555
C49_7 C39_7 1_555 1_555
H33_7 C49_7 1_555 1_555
C47_7 C49_7 1_555 1_555
C1_8 H1_8 1_555 1_555
C2_8 C1_8 1_555 1_555
H2_8 C2_8 1_555 1_555
C3_8 H3_8 1_555 1_555
C4_8 C3_8 1_555 1_555
H4_8 C4_8 1_555 1_555
C5_8 H5_8 1_555 1_555
O1_8 Zn10_3 1_555 1_555
O2_8 C6_8 1_555 1_555
O3_8 C6_8 1_555 1_555
O4_8 C15_8 1_555 1_555
O5_8 C15_8 1_555 1_555
C6_8 C7_8 1_555 1_555
C7_8 C8_8 1_555 1_555
C8_8 H6_8 1_555 1_555
C9_8 C8_8 1_555 1_555
H7_8 C9_8 1_555 1_555
C10_8 C9_8 1_555 1_555
C11_8 C10_8 1_555 1_555
H8_8 C11_8 1_555 1_555
C12_8 C7_8 1_555 1_555
H9_8 C12_8 1_555 1_555
C13_8 C1_8 1_555 1_555
C14_8 C2_8 1_555 1_555
C15_8 C16_8 1_555 1_555
C16_8 C5_8 1_555 1_555
C17_8 C16_8 1_555 1_555
H10_8 C17_8 1_555 1_555
C18_8 C17_8 1_555 1_555
H11_8 C18_8 1_555 1_555
C19_8 C18_8 1_555 1_555
C20_8 C5_8 1_555 1_555
H12_8 C20_8 1_555 1_555
N1_8 C14_8 1_555 1_555
Zn10_3 O3_8 1_555 1_555
Zn11_4 O1_8 1_555 1_555
C27_8 H17_8 1_555 1_555
C28_8 H18_8 1_555 1_555
C29_8 C27_8 1_555 1_555
C30_8 C28_8 1_555 1_555
H19_8 C29_8 1_555 1_555
H20_8 C30_8 1_555 1_555
C31_8 H21_8 1_555 1_555
C32_8 H22_8 1_555 1_555
C33_8 C31_8 1_555 1_555
C34_8 C32_8 1_555 1_555
H23_8 C33_8 1_555 1_555
H24_8 C34_8 1_555 1_555
O8_4 C37_8 1_555 1_555
O9_4 C38_8 1_555 1_555
O13_4 C37_8 1_555 1_555
O12_4 C38_8 1_555 1_555
C37_8 C39_8 1_555 1_555
C38_8 C40_8 1_555 1_555
C39_8 C41_8 1_555 1_555
C40_8 C42_8 1_555 1_555
C41_8 H27_8 1_555 1_555
C42_8 H28_8 1_555 1_555
C43_8 C41_8 1_555 1_555
C44_8 C42_8 1_555 1_555
H29_8 C43_8 1_555 1_555
H30_8 C44_8 1_555 1_555
C45_8 C43_8 1_555 1_555
C46_8 C44_8 1_555 1_555
C47_8 C45_8 1_555 1_555
C48_8 C46_8 1_555 1_555
H31_8 C47_8 1_555 1_555
H32_8 C48_8 1_555 1_555
C49_8 C39_8 1_555 1_555
C50_8 C40_8 1_555 1_555
H33_8 C49_8 1_555 1_555
H34_8 C50_8 1_555 1_555
C51_8 C27_8 1_555 1_555
C52_8 C28_8 1_555 1_555
C53_8 N1_8 1_555 1_555
C54_8 N1_8 1_555 1_555
Zn9_3 O1_8 1_555 1_555
Zn5_4 O1_8 1_555 1_555
C3_8 C14_8 1_555 1_555
C4_8 C13_8 1_555 1_555
O2_8 Zn11_4 1_555 1_555
O4_8 Zn10_3 1_555 1_555
O5_8 Zn5_4 1_555 1_555
C10_8 C13_8 1_555 1_555
C11_8 C12_8 1_555 1_555
C19_8 C20_8 1_555 1_555
C29_8 C53_8 1_555 1_555
C30_8 C54_8 1_555 1_555
C31_8 C53_8 1_555 1_555
C32_8 C54_8 1_555 1_555
C33_8 C51_8 1_555 1_555
C34_8 C52_8 1_555 1_555
C45_8 C51_8 1_555 1_555
C46_8 C52_8 1_555 1_555
C47_8 C49_8 1_555 1_555
C48_8 C50_8 1_555 1_555
C22_7 C21_7 1_555 1_555
H13_7 C22_7 1_555 1_555
C23_7 C22_7 1_555 1_555
H14_7 C23_7 1_555 1_555
C24_7 C23_7 1_555 1_555
C25_7 C24_7 1_555 1_555
H15_7 C25_7 1_555 1_555
C26_7 C21_7 1_555 1_555
H16_7 C26_7 1_555 1_555
N2_7 C24_7 1_555 1_555
C35_8 H25_8 1_555 1_555
C36_8 H26_8 1_555 1_555
O17_4 C55_8 1_555 1_555
O16_3 C56_8 1_555 1_555
O21_4 C55_8 1_555 1_555
O20_3 C56_8 1_555 1_555
C55_8 C57_8 1_555 1_555
C56_8 C58_8 1_555 1_555
C57_8 C35_8 1_555 1_555
C58_8 C36_8 1_555 1_555
C59_8 C57_8 1_555 1_555
C60_8 C58_8 1_555 1_555
H35_8 C59_8 1_555 1_555
H36_8 C60_8 1_555 1_555
C61_8 C59_8 1_555 1_555
C62_8 C60_8 1_555 1_555
H37_8 C61_8 1_555 1_555
H38_8 C62_8 1_555 1_555
C63_8 C61_8 1_555 1_555
C64_8 C62_8 1_555 1_555
C65_8 C35_8 1_555 1_555
C66_8 C36_8 1_555 1_555
H39_8 C65_8 1_555 1_555
H40_8 C66_8 1_555 1_555
C67_7 C63_8 1_555 1_555
C68_7 C64_8 1_555 1_555
C69_7 C67_7 1_555 1_555
C70_7 C68_7 1_555 1_555
H41_7 C69_7 1_555 1_555
H42_7 C70_7 1_555 1_555
C71_7 C69_7 1_555 1_555
C72_7 C70_7 1_555 1_555
H43_7 C71_7 1_555 1_555
H44_7 C72_7 1_555 1_555
C73_7 N2_7 1_555 1_555
C74_7 N2_7 1_555 1_555
C75_7 C73_7 1_555 1_555
C76_7 C74_7 1_555 1_555
H45_7 C75_7 1_555 1_555
H46_7 C76_7 1_555 1_555
C77_7 C67_7 1_555 1_555
C78_7 C68_7 1_555 1_555
H47_7 C77_7 1_555 1_555
H48_7 C78_7 1_555 1_555
C25_7 C26_7 1_555 1_555
C63_8 C65_8 1_555 1_555
C64_8 C66_8 1_555 1_555
C71_7 C73_7 1_555 1_555
C72_7 C74_7 1_555 1_555
C75_7 C77_7 1_555 1_555
C76_7 C78_7 1_555 1_555
C22_8 C21_8 1_555 1_555
H13_8 C22_8 1_555 1_555
C23_8 C22_8 1_555 1_555
H14_8 C23_8 1_555 1_555
C24_8 C23_8 1_555 1_555
C25_8 C24_8 1_555 1_555
H15_8 C25_8 1_555 1_555
C26_8 C21_8 1_555 1_555
H16_8 C26_8 1_555 1_555
N2_8 C24_8 1_555 1_555
C69_8 C67_8 1_555 1_555
C70_8 C68_8 1_555 1_555
H41_8 C69_8 1_555 1_555
H42_8 C70_8 1_555 1_555
C71_8 C69_8 1_555 1_555
C72_8 C70_8 1_555 1_555
H43_8 C71_8 1_555 1_555
H44_8 C72_8 1_555 1_555
C73_8 N2_8 1_555 1_555
C74_8 N2_8 1_555 1_555
C75_8 C73_8 1_555 1_555
C76_8 C74_8 1_555 1_555
H45_8 C75_8 1_555 1_555
H46_8 C76_8 1_555 1_555
C77_8 C67_8 1_555 1_555
C78_8 C68_8 1_555 1_555
H47_8 C77_8 1_555 1_555
H48_8 C78_8 1_555 1_555
C25_8 C26_8 1_555 1_555
C71_8 C73_8 1_555 1_555
C72_8 C74_8 1_555 1_555
C75_8 C77_8 1_555 1_555
C76_8 C78_8 1_555 1_555

#END
