
###############################################################################
#
# This file contains modified crystal structure data generated from the
# MOF subset of the Cambridge Structural Database (CSD) v543 
# hosted by the Cambridge Crystallographic Data Centre (CCDC).
#
# This work is licensed under the Creative Commons
# Attribution-NonCommercial-ShareAlike 4.0 International License.
# To view a copy of this license, visit
# http://creativecommons.org/licenses/by-nc-sa/4.0/
# or send a letter to
# Creative Commons, PO Box 1866, Mountain View, CA 94042, USA.
#
# CIF created using the CSD Python API on 29 September 2022
# The structure has been converted into the P1 space group
# The structure has a 3D framework
# The original CSD entry UWALEL is in the trigonal crystal system
# The original CSD entry UWALEL is in a Sohncke space group
# The framework has been calculated to contain at least 10.0% void space
# The void calculation uses a probe of radius 1.32A, grid spacing 0.4
# The framework is charged, counterions have been retained in the structure
#
###############################################################################

data_UWALEL
_chemical_formula_moiety         '(C150 H150 Cu9 N18 O48 2-)n'
_symmetry_cell_setting           triclinic
_symmetry_space_group_name_H-M   'P 1'
_symmetry_Int_Tables_number      1
_space_group_name_Hall           'P 1'
loop_
_symmetry_equiv_pos_site_id
_symmetry_equiv_pos_as_xyz
1 x,y,z
_cell_length_a                   22.4258(16)
_cell_length_b                   22.4258(16)
_cell_length_c                   10.9190(15)
_cell_angle_alpha                90
_cell_angle_beta                 90
_cell_angle_gamma                120
_cell_volume                     4755.64
loop_
_atom_site_label
_atom_site_type_symbol
_atom_site_fract_x
_atom_site_fract_y
_atom_site_fract_z
N1 N 0.5398(8) 0.0342(8) 0.1487(14)
H1 H 0.5339 0.0609 0.2031
H2 H 0.5684 0.0214 0.1820
C2 C 0.5710(11) 0.0742(13) 0.033(2)
H6 H 0.6150 0.1135 0.0517
H7 H 0.5412 0.0892 0.9997
H8 H 0.5768 0.0454 0.9752
C1 C 0.4697(9) 0.9697(8) 0.1203(17)
H3 H 0.4546 0.9398 0.1902
H4 H 0.4745 0.9459 0.0514
H5 H 0.4364 0.9834 0.1016
C1_2 C 0.0303(8) 0.5000(12) 0.4536(17)
H3_2 H 0.0602 0.5148 0.5235
H4_2 H 0.0541 0.5286 0.3847
H5_2 H 0.0166 0.4530 0.4349
N1_2 N 0.9658(8) 0.5056(11) 0.4820(14)
H1_2 H 0.9391 0.4730 0.5364
H2_2 H 0.9786 0.5470 0.5153
C2_2 C 0.9258(13) 0.4968(17) 0.366(2)
H6_2 H 0.8865 0.5015 0.3850
H7_2 H 0.9108 0.4520 0.3330
H8_2 H 0.9546 0.5314 0.3085
N1_3 N 0.4944(11) 0.4602(8) 0.8154(14)
H1_3 H 0.5270 0.4661 0.8698
H2_3 H 0.4530 0.4316 0.8487
C1_3 C 0.5000(12) 0.5303(9) 0.7870(17)
H3_3 H 0.4852 0.5454 0.8569
H4_3 H 0.4714 0.5255 0.7181
H5_3 H 0.5470 0.5636 0.7683
C2_3 C 0.5032(17) 0.4290(11) 0.700(2)
H6_3 H 0.4985 0.3850 0.7184
H7_3 H 0.5480 0.4588 0.6664
H8_3 H 0.4686 0.4232 0.6419
H7_4 H 0.0892 0.5412 0.0003
H8_4 H 0.0454 0.5768 0.0248
N1_4 N 0.0342(8) 0.5398(8) 0.8513(14)
H1_4 H 0.0609 0.5339 0.7969
H2_4 H 0.0214 0.5684 0.8180
C2_4 C 0.0742(13) 0.5710(11) 0.967(2)
H6_4 H 0.1135 0.6150 0.9483
C1_4 C 0.9697(8) 0.4697(9) 0.8797(17)
H3_4 H 0.9398 0.4546 0.8098
H4_4 H 0.9459 0.4745 0.9486
H5_4 H 0.9834 0.4364 0.8984
N1_5 N 0.4602(8) 0.4944(11) 0.1846(14)
H1_5 H 0.4661 0.5270 0.1302
H2_5 H 0.4316 0.4530 0.1513
C1_5 C 0.5303(9) 0.5000(12) 0.2130(17)
H3_5 H 0.5454 0.4852 0.1431
H4_5 H 0.5255 0.4714 0.2819
H5_5 H 0.5636 0.5470 0.2317
C2_5 C 0.4290(11) 0.5032(17) 0.300(2)
H6_5 H 0.3850 0.4985 0.2816
H7_5 H 0.4588 0.5480 0.3336
H8_5 H 0.4232 0.4686 0.3581
C1_6 C 0.5000(12) 0.0303(8) 0.5464(17)
H3_6 H 0.5148 0.0602 0.4765
H4_6 H 0.5286 0.0541 0.6153
H5_6 H 0.4530 0.0166 0.5651
N1_6 N 0.5056(11) 0.9658(8) 0.5180(14)
H1_6 H 0.4730 0.9391 0.4636
H2_6 H 0.5470 0.9786 0.4847
C2_6 C 0.4968(17) 0.9258(13) 0.634(2)
H6_6 H 0.5015 0.8865 0.6150
H7_6 H 0.4520 0.9108 0.6670
H8_6 H 0.5314 0.9546 0.6915
C3 C 0.9240(12) 0.1628(9) 0.5520(19)
H9 H 0.9674 0.2050 0.5524
H10 H 0.9279 0.1284 0.5980
H11 H 0.8895 0.1706 0.5884
C4 C 0.8383(11) 0.0657(10) 0.427(2)
H12 H 0.8229 0.0513 0.3442
H13 H 0.8026 0.0673 0.4724
H14 H 0.8490 0.0335 0.4643
N2 N 0.9044(13) 0.1391(10) 0.425(2)
H15 H 0.9390 0.1372 0.3871
H16 H 0.8957 0.1687 0.3837
C3_2 C 0.8372(9) 0.7612(15) 0.8853(19)
H9_2 H 0.7950 0.7624 0.8857
H10_2 H 0.8716 0.7995 0.9313
H11_2 H 0.8294 0.7189 0.9217
C4_2 C 0.9343(10) 0.7726(15) 0.760(2)
H12_2 H 0.9487 0.7716 0.6775
H13_2 H 0.9327 0.7353 0.8057
H14_2 H 0.9665 0.8155 0.7976
N2_2 N 0.8609(10) 0.7653(16) 0.758(2)
H15_2 H 0.8628 0.8018 0.7204
H16_2 H 0.8313 0.7270 0.7170
C3_3 C 0.2388(15) 0.0760(12) 0.2187(19)
H9_3 H 0.2376 0.0326 0.2191
H10_3 H 0.2005 0.0721 0.2647
H11_3 H 0.2811 0.1105 0.2551
C4_3 C 0.2274(15) 0.1617(11) 0.094(2)
H12_3 H 0.2284 0.1771 0.0109
H13_3 H 0.2647 0.1974 0.1391
H14_3 H 0.1845 0.1510 0.1310
N2_3 N 0.2347(16) 0.0956(13) 0.092(2)
H15_3 H 0.1982 0.0610 0.0538
H16_3 H 0.2730 0.1043 0.0504
C3_4 C 0.1628(9) 0.9240(12) 0.4480(19)
H9_4 H 0.2050 0.9674 0.4476
H10_4 H 0.1284 0.9279 0.4020
H11_4 H 0.1706 0.8895 0.4116
C4_4 C 0.0657(10) 0.8383(11) 0.573(2)
H12_4 H 0.0513 0.8229 0.6558
H13_4 H 0.0673 0.8026 0.5276
H14_4 H 0.0335 0.8490 0.5357
N2_4 N 0.1391(10) 0.9044(13) 0.575(2)
H15_4 H 0.1372 0.9390 0.6129
H16_4 H 0.1687 0.8957 0.6163
C3_5 C 0.0760(12) 0.2388(15) 0.7813(19)
H9_5 H 0.0326 0.2376 0.7809
H10_5 H 0.0721 0.2005 0.7353
H11_5 H 0.1105 0.2811 0.7449
C4_5 C 0.1617(11) 0.2274(15) 0.906(2)
H12_5 H 0.1771 0.2284 0.9891
H13_5 H 0.1974 0.2647 0.8609
H14_5 H 0.1510 0.1845 0.8690
N2_5 N 0.0956(13) 0.2347(16) 0.908(2)
H15_5 H 0.0610 0.1982 0.9462
H16_5 H 0.1043 0.2730 0.9496
C3_6 C 0.7612(15) 0.8372(9) 0.1147(19)
H9_6 H 0.7624 0.7950 0.1143
H10_6 H 0.7995 0.8716 0.0687
H11_6 H 0.7189 0.8294 0.0783
C4_6 C 0.7726(15) 0.9343(10) 0.240(2)
H12_6 H 0.7716 0.9487 0.3225
H13_6 H 0.7353 0.9327 0.1943
H14_6 H 0.8155 0.9665 0.2024
N2_6 N 0.7653(16) 0.8609(10) 0.242(2)
H15_6 H 0.8018 0.8628 0.2796
H16_6 H 0.7270 0.8313 0.2830
Cu5 Cu -0.0000 0.33696(4) 0.6666
Cu3 Cu 0.33696(4) -0.0000 0.3333
Cu2 Cu 0.33679(4) 0.33679(4) 0.0000
C5 C 0.4427(3) 0.3260(3) 0.0799(6)
C6 C 0.4808(3) 0.2899(3) 0.1231(6)
C7 C 0.4441(3) 0.2225(3) 0.1638(5)
H17 H 0.3962 0.1993 0.1669
C8 C 0.4816(3) 0.1894(3) 0.2011(5)
C9 C 0.5505(4) 0.2221(4) 0.1851(9)
H18 H 0.5741 0.1995 0.2079
C10 C 0.5859(5) 0.2849(6) 0.1384(11)
C11 C 0.5515(4) 0.3230(4) 0.1125(9)
H19 H 0.5763 0.3690 0.0891
C12 C 0.4408(3) 0.1169(3) 0.2461(6)
C13 C 0.6629(4) 0.3215(5) 0.1110(6)
C14 C 0.7069(4) 0.3915(5) 0.1125(8)
H20 H 0.6883 0.4199 0.1246
C15 C 0.7715(5) 0.4194(5) 0.0983(10)
H21 H 0.7988 0.4672 0.0986
C16 C 0.8019(5) 0.3780(5) 0.0819(9)
H22 H 0.8493 0.3970 0.0746
C17 C 0.7576(4) 0.3078(5) 0.0774(8)
C18 C 0.7825(4) 0.2585(5) 0.0500(8)
C19 C 0.7538(5) 0.1944(5) 0.1054(11)
H23 H 0.7187 0.1820 0.1624
C20 C 0.7766(4) 0.1477(4) 0.0774(7)
C21 C 0.8340(4) 0.1679(4) 0.0006(6)
C24 C 0.7482(4) 0.0813(4) 0.1494(7)
N3 N 0.6893(3) 0.2789(4) 0.0978(6)
O2 O 0.3759(2) 0.2896(3) 0.0870(4)
O3 O 0.4723(3) 0.3845(3) 0.0427(6)
O4 O 0.3760(2) 0.0887(2) 0.2465(5)
O5 O 0.4714(3) 0.0860(3) 0.2819(6)
O6 O 0.6870(3) 0.0535(2) 0.1832(4)
O7 O 0.7867(4) 0.0585(4) 0.1802(7)
H33 H 0.1402 0.8537 0.0076
C43 C 0.2286(4) 0.8603(4) 0.0618(7)
C44 C 0.2769(5) 0.8363(5) 0.0306(9)
H34 H 0.3205 0.8577 0.0658
C46 C 0.2515(4) 0.9194(4) 0.1481(7)
O9 O 0.3152(3) 0.9493(2) 0.1802(4)
O16 O 0.2084(4) 0.9352(4) 0.1818(7)
Cu3_2 Cu 0.33696(4) 1.0000 0.3333
Cu6 Cu 0.66321(4) 0.00000(6) 0.3333
O17 O 0.3659(4) 0.0507(2) 0.4865(4)
O22 O 0.3130(3) 0.3665(4) 0.1501(4)
Cu2_2 Cu 0.33679(4) 0.33679(4) 1.0000
H24 H 0.8537 0.1402 0.9924
C22 C 0.8603(4) 0.2286(4) 0.9382(7)
C23 C 0.8363(5) 0.2769(5) 0.9694(9)
H25 H 0.8577 0.3205 0.9342
C25 C 0.9194(4) 0.2515(4) 0.8519(7)
O1 O 0.9493(2) 0.3152(3) 0.8198(4)
O8 O 0.9352(4) 0.2084(4) 0.8182(7)
C26 C 0.3260(3) 0.4427(3) 0.9201(6)
C27 C 0.2899(3) 0.4808(3) 0.8769(6)
C28 C 0.2225(3) 0.4441(3) 0.8362(5)
H26 H 0.1993 0.3962 0.8331
C29 C 0.1894(3) 0.4816(3) 0.7989(5)
C30 C 0.2221(4) 0.5505(4) 0.8149(9)
H27 H 0.1995 0.5741 0.7921
C31 C 0.2849(6) 0.5859(5) 0.8616(11)
C32 C 0.3230(4) 0.5515(4) 0.8875(9)
H28 H 0.3690 0.5763 0.9109
C33 C 0.1169(3) 0.4408(3) 0.7539(6)
C34 C 0.3215(5) 0.6629(4) 0.8890(6)
C35 C 0.3915(5) 0.7069(4) 0.8875(8)
H29 H 0.4199 0.6883 0.8754
C36 C 0.4194(5) 0.7715(5) 0.9017(10)
H30 H 0.4672 0.7988 0.9014
C37 C 0.3780(5) 0.8019(5) 0.9181(9)
H31 H 0.3970 0.8493 0.9254
C38 C 0.3078(5) 0.7576(4) 0.9226(8)
C39 C 0.2585(5) 0.7825(4) 0.9500(8)
C40 C 0.1944(5) 0.7538(5) 0.8946(11)
H32 H 0.1820 0.7187 0.8376
C41 C 0.1477(4) 0.7766(4) 0.9226(7)
C42 C 0.1679(4) 0.8340(4) 0.9994(6)
C45 C 0.0813(4) 0.7482(4) 0.8506(7)
N4 N 0.2789(4) 0.6893(3) 0.9022(6)
O10 O 0.2896(3) 0.3759(2) 0.9130(4)
O11 O 0.3845(3) 0.4723(3) 0.9573(6)
O12 O 0.0887(2) 0.3760(2) 0.7535(5)
O13 O 0.0860(3) 0.4714(3) 0.7181(6)
O14 O 0.0535(2) 0.6870(3) 0.8168(4)
O15 O 0.0585(4) 0.7867(4) 0.8198(7)
Cu5_2 Cu 1.0000 0.33696(4) 0.6666
Cu7 Cu -0.00000(6) 0.66321(4) 0.6667
O21 O 0.3665(4) 0.3130(3) 0.8499(4)
Cu6_2 Cu 0.66321(4) 1.00000(6) 0.3333
O19 O 0.2873(3) 0.9113(2) 0.4202(5)
O20 O 0.3854(4) 0.9140(3) 0.3848(6)
Cu7_2 Cu 1.00000(6) 0.66321(4) 0.6667
O18 O 0.0507(2) 0.3659(4) 0.5135(4)
C5_2 C 0.6740(3) 0.1167(4) 0.4132(6)
C6_2 C 0.7101(3) 0.1909(4) 0.4564(6)
C7_2 C 0.7775(3) 0.2216(4) 0.4971(5)
H17_2 H 0.8007 0.1969 0.5002
C8_2 C 0.8106(3) 0.2922(4) 0.5344(5)
C9_2 C 0.7779(4) 0.3284(6) 0.5184(9)
H18_2 H 0.8005 0.3746 0.5412
C10_2 C 0.7151(6) 0.3010(8) 0.4717(11)
C11_2 C 0.6770(4) 0.2285(6) 0.4458(9)
H19_2 H 0.6310 0.2073 0.4224
C12_2 C 0.8831(3) 0.3239(4) 0.5794(6)
C13_2 C 0.6785(5) 0.3414(6) 0.4443(6)
C14_2 C 0.6085(5) 0.3154(6) 0.4458(8)
H20_2 H 0.5801 0.2684 0.4579
C15_2 C 0.5806(5) 0.3521(7) 0.4316(10)
H21_2 H 0.5328 0.3316 0.4319
C16_2 C 0.6220(5) 0.4239(7) 0.4152(9)
H22_2 H 0.6030 0.4523 0.4079
C17_2 C 0.6922(5) 0.4498(6) 0.4107(8)
C18_2 C 0.7415(5) 0.5240(6) 0.3833(8)
C19_2 C 0.8056(5) 0.5594(7) 0.4387(11)
H23_2 H 0.8180 0.5367 0.4957
C20_2 C 0.8523(4) 0.6289(6) 0.4107(7)
C21_2 C 0.8321(4) 0.6661(6) 0.3339(6)
H24_2 H 0.8598 0.7135 0.3257
C22_2 C 0.7714(4) 0.6317(6) 0.2715(7)
C23_2 C 0.7231(5) 0.5594(7) 0.3027(9)
H25_2 H 0.6795 0.5372 0.2675
C24_2 C 0.9187(4) 0.6669(6) 0.4827(7)
C25_2 C 0.7485(4) 0.6679(6) 0.1852(7)
O1_2 O 0.6848(3) 0.6341(4) 0.1531(4)
N3_2 N 0.7211(4) 0.4104(5) 0.4311(6)
O2_2 O 0.7104(3) 0.0863(4) 0.4203(4)
O3_2 O 0.6155(3) 0.0878(4) 0.3760(6)
O4_2 O 0.9113(2) 0.2873(3) 0.5798(5)
O5_2 O 0.9140(3) 0.3854(4) 0.6152(6)
O6_2 O 0.9465(2) 0.6335(4) 0.5165(4)
O7_2 O 0.9415(4) 0.7282(6) 0.5135(7)
O8_2 O 0.7916(4) 0.7268(6) 0.1515(7)
Cu5_3 Cu 0.66304(4) 0.66304(4) -0.0000
Cu5_4 Cu 0.66304(4) 0.66304(4) 1.0000
C26_2 C 0.5573(3) 0.8833(4) 0.2534(6)
C27_2 C 0.5192(3) 0.8091(4) 0.2102(6)
C28_2 C 0.5559(3) 0.7784(4) 0.1695(5)
H26_2 H 0.6038 0.8031 0.1664
C29_2 C 0.5184(3) 0.7078(4) 0.1322(5)
C30_2 C 0.4495(4) 0.6716(6) 0.1482(9)
H27_2 H 0.4259 0.6254 0.1254
C31_2 C 0.4141(5) 0.6990(8) 0.1949(11)
C32_2 C 0.4485(4) 0.7715(6) 0.2208(9)
H28_2 H 0.4237 0.7927 0.2442
C33_2 C 0.5592(3) 0.6761(4) 0.0872(6)
C34_2 C 0.3371(4) 0.6586(6) 0.2223(6)
C35_2 C 0.2931(4) 0.6846(6) 0.2208(8)
H29_2 H 0.3117 0.7316 0.2087
C36_2 C 0.2285(5) 0.6479(7) 0.2350(10)
H30_2 H 0.2012 0.6684 0.2347
C37_2 C 0.1981(5) 0.5761(7) 0.2514(9)
H31_2 H 0.1507 0.5477 0.2587
C38_2 C 0.2424(4) 0.5502(6) 0.2559(8)
C39_2 C 0.2175(4) 0.4760(6) 0.2833(8)
C40_2 C 0.2462(5) 0.4406(7) 0.2279(11)
H32_2 H 0.2813 0.4633 0.1709
C41_2 C 0.2234(4) 0.3711(6) 0.2559(7)
C42_2 C 0.1660(4) 0.3339(6) 0.3327(6)
H33_2 H 0.1463 0.2865 0.3409
C43_2 C 0.1397(4) 0.3683(6) 0.3951(7)
C44_2 C 0.1637(5) 0.4406(7) 0.3639(9)
H34_2 H 0.1423 0.4628 0.3991
C45_2 C 0.2518(4) 0.3331(6) 0.1839(7)
C46_2 C 0.0806(4) 0.3321(6) 0.4814(7)
N4_2 N 0.3107(3) 0.5896(5) 0.2355(6)
O10_2 O 0.6241(2) 0.9137(4) 0.2463(4)
O11_2 O 0.5277(3) 0.9122(4) 0.2906(6)
O12_2 O 0.6240(2) 0.7127(3) 0.0868(5)
O13_2 O 0.5286(3) 0.6146(4) 0.0514(6)
O15_2 O 0.2133(4) 0.2718(6) 0.1531(7)
O16_2 O 0.0648(4) 0.2732(6) 0.5151(7)
O22_2 O 0.6335(4) 0.9465(5) 0.4835(4)
C26_3 C 0.1167(4) 0.6740(3) 0.5868(6)
C27_3 C 0.1909(4) 0.7101(3) 0.5436(6)
C28_3 C 0.2216(4) 0.7775(3) 0.5029(5)
H26_3 H 0.1969 0.8007 0.4998
C29_3 C 0.2922(4) 0.8106(3) 0.4656(5)
C30_3 C 0.3284(6) 0.7779(4) 0.4816(9)
H27_3 H 0.3746 0.8005 0.4588
C31_3 C 0.3010(8) 0.7151(6) 0.5283(11)
C32_3 C 0.2285(6) 0.6770(4) 0.5542(9)
H28_3 H 0.2073 0.6310 0.5776
C33_3 C 0.3239(4) 0.8831(3) 0.4206(6)
C34_3 C 0.3414(6) 0.6785(5) 0.5557(6)
C35_3 C 0.3154(6) 0.6085(5) 0.5542(8)
H29_3 H 0.2684 0.5801 0.5421
C36_3 C 0.3521(7) 0.5806(5) 0.5684(10)
H30_3 H 0.3316 0.5328 0.5681
C37_3 C 0.4239(7) 0.6220(5) 0.5848(9)
H31_3 H 0.4523 0.6030 0.5921
C38_3 C 0.4498(6) 0.6922(5) 0.5893(8)
C39_3 C 0.5240(6) 0.7415(5) 0.6167(8)
C40_3 C 0.5594(7) 0.8056(5) 0.5613(11)
H32_3 H 0.5367 0.8180 0.5043
C41_3 C 0.6289(6) 0.8523(4) 0.5893(7)
C42_3 C 0.6661(6) 0.8321(4) 0.6661(6)
H33_3 H 0.7135 0.8598 0.6743
C43_3 C 0.6317(6) 0.7714(4) 0.7285(7)
C44_3 C 0.5594(7) 0.7231(5) 0.6973(9)
H34_3 H 0.5372 0.6795 0.7325
C45_3 C 0.6669(6) 0.9187(4) 0.5173(7)
C46_3 C 0.6679(6) 0.7485(4) 0.8148(7)
O9_2 O 0.6341(4) 0.6848(3) 0.8469(4)
N4_3 N 0.4104(5) 0.7211(4) 0.5689(6)
O10_3 O 0.0863(4) 0.7104(3) 0.5797(4)
O11_3 O 0.0878(4) 0.6155(3) 0.6240(6)
O15_3 O 0.7282(6) 0.9415(4) 0.4865(7)
O16_3 O 0.7268(6) 0.7916(4) 0.8485(7)
C5_3 C 0.8833(4) 0.5573(3) 0.7466(6)
C6_3 C 0.8091(4) 0.5192(3) 0.7898(6)
C7_3 C 0.7784(4) 0.5559(3) 0.8305(5)
H17_3 H 0.8031 0.6038 0.8336
C8_3 C 0.7078(4) 0.5184(3) 0.8678(5)
C9_3 C 0.6716(6) 0.4495(4) 0.8518(9)
H18_3 H 0.6254 0.4259 0.8746
C10_3 C 0.6990(8) 0.4141(5) 0.8051(11)
C11_3 C 0.7715(6) 0.4485(4) 0.7792(9)
H19_3 H 0.7927 0.4237 0.7558
C12_3 C 0.6761(4) 0.5592(3) 0.9128(6)
C13_3 C 0.6586(6) 0.3371(4) 0.7777(6)
C14_3 C 0.6846(6) 0.2931(4) 0.7792(8)
H20_3 H 0.7316 0.3117 0.7913
C15_3 C 0.6479(7) 0.2285(5) 0.7650(10)
H21_3 H 0.6684 0.2012 0.7653
C16_3 C 0.5761(7) 0.1981(5) 0.7486(9)
H22_3 H 0.5477 0.1507 0.7413
C17_3 C 0.5502(6) 0.2424(4) 0.7441(8)
C18_3 C 0.4760(6) 0.2175(4) 0.7167(8)
C19_3 C 0.4406(7) 0.2462(5) 0.7721(11)
H23_3 H 0.4633 0.2813 0.8291
C20_3 C 0.3711(6) 0.2234(4) 0.7441(7)
C21_3 C 0.3339(6) 0.1660(4) 0.6673(6)
H24_3 H 0.2865 0.1463 0.6591
C22_3 C 0.3683(6) 0.1397(4) 0.6049(7)
C23_3 C 0.4406(7) 0.1637(5) 0.6361(9)
H25_3 H 0.4628 0.1423 0.6009
C24_3 C 0.3331(6) 0.2518(4) 0.8161(7)
C25_3 C 0.3321(6) 0.0806(4) 0.5186(7)
N3_3 N 0.5896(5) 0.3107(3) 0.7645(6)
O2_3 O 0.9137(4) 0.6241(2) 0.7537(4)
O3_3 O 0.9122(4) 0.5277(3) 0.7094(6)
O4_3 O 0.7127(3) 0.6240(2) 0.9132(5)
O5_3 O 0.6146(4) 0.5286(3) 0.9486(6)
O7_3 O 0.2718(6) 0.2133(4) 0.8469(7)
O8_3 O 0.2732(6) 0.0648(4) 0.4849(7)
loop_
_geom_bond_atom_site_label_1
_geom_bond_atom_site_label_2
_geom_bond_site_symmetry_1
_geom_bond_site_symmetry_2
N1 H1 1_555 1_555
H2 N1 1_555 1_555
C2 N1 1_555 1_555
H6 C2 1_555 1_555
H3 C1 1_555 1_555
H4 C1 1_555 1_555
H5 C1 1_555 1_555
H3_2 C1_2 1_555 1_555
H4_2 C1_2 1_555 1_555
H5_2 C1_2 1_555 1_555
N1_2 H1_2 1_555 1_555
H2_2 N1_2 1_555 1_555
C2_2 N1_2 1_555 1_555
H6_2 C2_2 1_555 1_555
H7_2 C2_2 1_555 1_555
H8_2 C2_2 1_555 1_555
N1_3 H1_3 1_555 1_555
H2_3 N1_3 1_555 1_555
C1_3 N1_3 1_555 1_555
H3_3 C1_3 1_555 1_555
H4_3 C1_3 1_555 1_555
H5_3 C1_3 1_555 1_555
C2_3 N1_3 1_555 1_555
H6_3 C2_3 1_555 1_555
H7_3 C2_3 1_555 1_555
H8_3 C2_3 1_555 1_555
N1_4 H1_4 1_555 1_555
H2_4 N1_4 1_555 1_555
C2_4 N1_4 1_555 1_555
H6_4 C2_4 1_555 1_555
H3_4 C1_4 1_555 1_555
H4_4 C1_4 1_555 1_555
H5_4 C1_4 1_555 1_555
N1_5 H1_5 1_555 1_555
H2_5 N1_5 1_555 1_555
C1_5 N1_5 1_555 1_555
H3_5 C1_5 1_555 1_555
H4_5 C1_5 1_555 1_555
H5_5 C1_5 1_555 1_555
C2_5 N1_5 1_555 1_555
H6_5 C2_5 1_555 1_555
H7_5 C2_5 1_555 1_555
H8_5 C2_5 1_555 1_555
H3_6 C1_6 1_555 1_555
H4_6 C1_6 1_555 1_555
H5_6 C1_6 1_555 1_555
N1_6 H1_6 1_555 1_555
H2_6 N1_6 1_555 1_555
C2_6 N1_6 1_555 1_555
H6_6 C2_6 1_555 1_555
H7_6 C2_6 1_555 1_555
H8_6 C2_6 1_555 1_555
C3 H9 1_555 1_555
H10 C3 1_555 1_555
H11 C3 1_555 1_555
C4 H12 1_555 1_555
H13 C4 1_555 1_555
H14 C4 1_555 1_555
N2 C3 1_555 1_555
H15 N2 1_555 1_555
H16 N2 1_555 1_555
C4 N2 1_555 1_555
C3_2 H9_2 1_555 1_555
H10_2 C3_2 1_555 1_555
H11_2 C3_2 1_555 1_555
C4_2 H12_2 1_555 1_555
H13_2 C4_2 1_555 1_555
H14_2 C4_2 1_555 1_555
N2_2 C3_2 1_555 1_555
H15_2 N2_2 1_555 1_555
H16_2 N2_2 1_555 1_555
C4_2 N2_2 1_555 1_555
C3_3 H9_3 1_555 1_555
H10_3 C3_3 1_555 1_555
H11_3 C3_3 1_555 1_555
C4_3 H12_3 1_555 1_555
H13_3 C4_3 1_555 1_555
H14_3 C4_3 1_555 1_555
N2_3 C3_3 1_555 1_555
H15_3 N2_3 1_555 1_555
H16_3 N2_3 1_555 1_555
C4_3 N2_3 1_555 1_555
C3_4 H9_4 1_555 1_555
H10_4 C3_4 1_555 1_555
H11_4 C3_4 1_555 1_555
C4_4 H12_4 1_555 1_555
H13_4 C4_4 1_555 1_555
H14_4 C4_4 1_555 1_555
N2_4 C3_4 1_555 1_555
H15_4 N2_4 1_555 1_555
H16_4 N2_4 1_555 1_555
C4_4 N2_4 1_555 1_555
C3_5 H9_5 1_555 1_555
H10_5 C3_5 1_555 1_555
H11_5 C3_5 1_555 1_555
C4_5 H12_5 1_555 1_555
H13_5 C4_5 1_555 1_555
H14_5 C4_5 1_555 1_555
N2_5 C3_5 1_555 1_555
H15_5 N2_5 1_555 1_555
H16_5 N2_5 1_555 1_555
C4_5 N2_5 1_555 1_555
C3_6 H9_6 1_555 1_555
H10_6 C3_6 1_555 1_555
H11_6 C3_6 1_555 1_555
C4_6 H12_6 1_555 1_555
H13_6 C4_6 1_555 1_555
H14_6 C4_6 1_555 1_555
N2_6 C3_6 1_555 1_555
H15_6 N2_6 1_555 1_555
H16_6 N2_6 1_555 1_555
C4_6 N2_6 1_555 1_555
Cu3 O4 1_555 1_555
Cu2 O2 1_555 1_555
C5 C6 1_555 1_555
C6 C7 1_555 1_555
C7 H17 1_555 1_555
C8 C7 1_555 1_555
C9 C8 1_555 1_555
H18 C9 1_555 1_555
C10 C9 1_555 1_555
C11 C6 1_555 1_555
H19 C11 1_555 1_555
C12 C8 1_555 1_555
C13 C10 1_555 1_555
C14 C13 1_555 1_555
H20 C14 1_555 1_555
C15 C14 1_555 1_555
H21 C15 1_555 1_555
C16 C15 1_555 1_555
H22 C16 1_555 1_555
C17 C16 1_555 1_555
C18 C17 1_555 1_555
C19 C18 1_555 1_555
H23 C19 1_555 1_555
C20 C19 1_555 1_555
C21 C20 1_555 1_555
C24 C20 1_555 1_555
N3 C13 1_555 1_555
O2 C5 1_555 1_555
O3 Cu2 1_555 1_555
O4 C12 1_555 1_555
O5 Cu3 1_555 1_555
O6 C24 1_555 1_555
O7 C24 1_555 1_555
H34 C44 1_555 1_555
C46 C43 1_555 1_555
O9 C46 1_555 1_555
O16 C46 1_555 1_555
Cu3_2 O9 1_555 1_555
Cu6 O6 1_555 1_555
O17 Cu3 1_555 1_555
O22 Cu2 1_555 1_555
C5 O3 1_555 1_555
C10 C11 1_555 1_555
C12 O5 1_555 1_555
C17 N3 1_555 1_555
C43 C44 1_555 1_555
H25 C23 1_555 1_555
C25 C22 1_555 1_555
O1 C25 1_555 1_555
O8 C25 1_555 1_555
C26 C27 1_555 1_555
C27 C28 1_555 1_555
C28 H26 1_555 1_555
C29 C28 1_555 1_555
C30 C29 1_555 1_555
H27 C30 1_555 1_555
C31 C30 1_555 1_555
C32 C27 1_555 1_555
H28 C32 1_555 1_555
C33 C29 1_555 1_555
C34 C31 1_555 1_555
C35 C34 1_555 1_555
H29 C35 1_555 1_555
C36 C35 1_555 1_555
H30 C36 1_555 1_555
C37 C36 1_555 1_555
H31 C37 1_555 1_555
C38 C37 1_555 1_555
C39 C38 1_555 1_555
C40 C39 1_555 1_555
H32 C40 1_555 1_555
C41 C40 1_555 1_555
C42 C41 1_555 1_555
C45 C41 1_555 1_555
N4 C34 1_555 1_555
O10 Cu2_2 1_555 1_555
O11 Cu2_2 1_555 1_555
O12 C33 1_555 1_555
O13 C33 1_555 1_555
O14 C45 1_555 1_555
O15 C45 1_555 1_555
Cu5 O12 1_555 1_555
Cu5_2 O1 1_555 1_555
Cu7 O14 1_555 1_555
O21 Cu2_2 1_555 1_555
C22 C23 1_555 1_555
C26 O10 1_555 1_555
C26 O11 1_555 1_555
C31 C32 1_555 1_555
C38 N4 1_555 1_555
O13 Cu5 1_555 1_555
O19 Cu3_2 1_555 1_555
O20 Cu3_2 1_555 1_555
O18 Cu5 1_555 1_555
Cu5_2 O4_2 1_555 1_555
Cu6 O2_2 1_555 1_555
C5_2 C6_2 1_555 1_555
C6_2 C7_2 1_555 1_555
C7_2 H17_2 1_555 1_555
C8_2 C7_2 1_555 1_555
C9_2 C8_2 1_555 1_555
H18_2 C9_2 1_555 1_555
C10_2 C9_2 1_555 1_555
C11_2 C6_2 1_555 1_555
H19_2 C11_2 1_555 1_555
C12_2 C8_2 1_555 1_555
C13_2 C10_2 1_555 1_555
C14_2 C13_2 1_555 1_555
H20_2 C14_2 1_555 1_555
C15_2 C14_2 1_555 1_555
H21_2 C15_2 1_555 1_555
C16_2 C15_2 1_555 1_555
H22_2 C16_2 1_555 1_555
C17_2 C16_2 1_555 1_555
C18_2 C17_2 1_555 1_555
C19_2 C18_2 1_555 1_555
H23_2 C19_2 1_555 1_555
C20_2 C19_2 1_555 1_555
C21_2 C20_2 1_555 1_555
H24_2 C21_2 1_555 1_555
C22_2 C21_2 1_555 1_555
C23_2 C18_2 1_555 1_555
H25_2 C23_2 1_555 1_555
C24_2 C20_2 1_555 1_555
C25_2 C22_2 1_555 1_555
O1_2 C25_2 1_555 1_555
N3_2 C13_2 1_555 1_555
O2_2 C5_2 1_555 1_555
O3_2 Cu6 1_555 1_555
O4_2 C12_2 1_555 1_555
O5_2 Cu5_2 1_555 1_555
O6_2 C24_2 1_555 1_555
O7_2 C24_2 1_555 1_555
O8_2 C25_2 1_555 1_555
Cu5_3 O1_2 1_555 1_555
Cu7_2 O6_2 1_555 1_555
C5_2 O3_2 1_555 1_555
C10_2 C11_2 1_555 1_555
C12_2 O5_2 1_555 1_555
C17_2 N3_2 1_555 1_555
C22_2 C23_2 1_555 1_555
C26_2 C27_2 1_555 1_555
C27_2 C28_2 1_555 1_555
C28_2 H26_2 1_555 1_555
C29_2 C28_2 1_555 1_555
C30_2 C29_2 1_555 1_555
H27_2 C30_2 1_555 1_555
C31_2 C30_2 1_555 1_555
C32_2 C27_2 1_555 1_555
H28_2 C32_2 1_555 1_555
C33_2 C29_2 1_555 1_555
C34_2 C31_2 1_555 1_555
C35_2 C34_2 1_555 1_555
H29_2 C35_2 1_555 1_555
C36_2 C35_2 1_555 1_555
H30_2 C36_2 1_555 1_555
C37_2 C36_2 1_555 1_555
H31_2 C37_2 1_555 1_555
C38_2 C37_2 1_555 1_555
C39_2 C38_2 1_555 1_555
C40_2 C39_2 1_555 1_555
H32_2 C40_2 1_555 1_555
C41_2 C40_2 1_555 1_555
C42_2 C41_2 1_555 1_555
H33_2 C42_2 1_555 1_555
C43_2 C42_2 1_555 1_555
C44_2 C39_2 1_555 1_555
H34_2 C44_2 1_555 1_555
C45_2 C41_2 1_555 1_555
C46_2 C43_2 1_555 1_555
O18 C46_2 1_555 1_555
N4_2 C34_2 1_555 1_555
O10_2 Cu6_2 1_555 1_555
O11_2 Cu6_2 1_555 1_555
O12_2 C33_2 1_555 1_555
O13_2 C33_2 1_555 1_555
O22 C45_2 1_555 1_555
O15_2 C45_2 1_555 1_555
O16_2 C46_2 1_555 1_555
Cu5_3 O12_2 1_555 1_555
O22_2 Cu6_2 1_555 1_555
C26_2 O10_2 1_555 1_555
C26_2 O11_2 1_555 1_555
C31_2 C32_2 1_555 1_555
C38_2 N4_2 1_555 1_555
C43_2 C44_2 1_555 1_555
O13_2 Cu5_3 1_555 1_555
C26_3 C27_3 1_555 1_555
C27_3 C28_3 1_555 1_555
C28_3 H26_3 1_555 1_555
C29_3 C28_3 1_555 1_555
C30_3 C29_3 1_555 1_555
H27_3 C30_3 1_555 1_555
C31_3 C30_3 1_555 1_555
C32_3 C27_3 1_555 1_555
H28_3 C32_3 1_555 1_555
C33_3 C29_3 1_555 1_555
C34_3 C31_3 1_555 1_555
C35_3 C34_3 1_555 1_555
H29_3 C35_3 1_555 1_555
C36_3 C35_3 1_555 1_555
H30_3 C36_3 1_555 1_555
C37_3 C36_3 1_555 1_555
H31_3 C37_3 1_555 1_555
C38_3 C37_3 1_555 1_555
C39_3 C38_3 1_555 1_555
C40_3 C39_3 1_555 1_555
H32_3 C40_3 1_555 1_555
C41_3 C40_3 1_555 1_555
C42_3 C41_3 1_555 1_555
H33_3 C42_3 1_555 1_555
C43_3 C42_3 1_555 1_555
C44_3 C39_3 1_555 1_555
H34_3 C44_3 1_555 1_555
C45_3 C41_3 1_555 1_555
C46_3 C43_3 1_555 1_555
O9_2 C46_3 1_555 1_555
N4_3 C34_3 1_555 1_555
O10_3 Cu7 1_555 1_555
O11_3 Cu7 1_555 1_555
O19 C33_3 1_555 1_555
O20 C33_3 1_555 1_555
O22_2 C45_3 1_555 1_555
O15_3 C45_3 1_555 1_555
O16_3 C46_3 1_555 1_555
Cu5_4 O9_2 1_555 1_555
C26_3 O10_3 1_555 1_555
C26_3 O11_3 1_555 1_555
C31_3 C32_3 1_555 1_555
C38_3 N4_3 1_555 1_555
C43_3 C44_3 1_555 1_555
Cu5_4 O4_3 1_555 1_555
Cu7_2 O2_3 1_555 1_555
C5_3 C6_3 1_555 1_555
C6_3 C7_3 1_555 1_555
C7_3 H17_3 1_555 1_555
C8_3 C7_3 1_555 1_555
C9_3 C8_3 1_555 1_555
H18_3 C9_3 1_555 1_555
C10_3 C9_3 1_555 1_555
C11_3 C6_3 1_555 1_555
H19_3 C11_3 1_555 1_555
C12_3 C8_3 1_555 1_555
C13_3 C10_3 1_555 1_555
C14_3 C13_3 1_555 1_555
H20_3 C14_3 1_555 1_555
C15_3 C14_3 1_555 1_555
H21_3 C15_3 1_555 1_555
C16_3 C15_3 1_555 1_555
H22_3 C16_3 1_555 1_555
C17_3 C16_3 1_555 1_555
C18_3 C17_3 1_555 1_555
C19_3 C18_3 1_555 1_555
H23_3 C19_3 1_555 1_555
C20_3 C19_3 1_555 1_555
C21_3 C20_3 1_555 1_555
H24_3 C21_3 1_555 1_555
C22_3 C21_3 1_555 1_555
C23_3 C18_3 1_555 1_555
H25_3 C23_3 1_555 1_555
C24_3 C20_3 1_555 1_555
C25_3 C22_3 1_555 1_555
O17 C25_3 1_555 1_555
N3_3 C13_3 1_555 1_555
O2_3 C5_3 1_555 1_555
O3_3 Cu7_2 1_555 1_555
O4_3 C12_3 1_555 1_555
O5_3 Cu5_4 1_555 1_555
O21 C24_3 1_555 1_555
O7_3 C24_3 1_555 1_555
O8_3 C25_3 1_555 1_555
C5_3 O3_3 1_555 1_555
C10_3 C11_3 1_555 1_555
C12_3 O5_3 1_555 1_555
C17_3 N3_3 1_555 1_555
C22_3 C23_3 1_555 1_555

#END
