
###############################################################################
#
# This file contains modified crystal structure data generated from the
# MOF subset of the Cambridge Structural Database (CSD) v543 
# hosted by the Cambridge Crystallographic Data Centre (CCDC).
#
# This work is licensed under the Creative Commons
# Attribution-NonCommercial-ShareAlike 4.0 International License.
# To view a copy of this license, visit
# http://creativecommons.org/licenses/by-nc-sa/4.0/
# or send a letter to
# Creative Commons, PO Box 1866, Mountain View, CA 94042, USA.
#
# CIF created using the CSD Python API on 29 September 2022
# The structure has been converted into the P1 space group
# The structure has a 3D framework
# The original CSD entry UWAYID is in the monoclinic crystal system
# The framework has been calculated to contain at least 10.0% void space
# The void calculation uses a probe of radius 1.32A, grid spacing 0.4
# The framework is charged, counterions have been retained in the structure
# H atom positions have been added when not included in the experimental data
# Generated hydrogen atom positions removed from atoms on special positions
#
###############################################################################

data_UWAYID
_chemical_formula_moiety         '(C352 H432 Cd14 N24 O152)n'
_symmetry_cell_setting           triclinic
_symmetry_space_group_name_H-M   'P 1'
_symmetry_Int_Tables_number      1
_space_group_name_Hall           'P 1'
loop_
_symmetry_equiv_pos_site_id
_symmetry_equiv_pos_as_xyz
1 x,y,z
_cell_length_a                   33.1093(19)
_cell_length_b                   11.0269(4)
_cell_length_c                   31.597(2)
_cell_angle_alpha                90
_cell_angle_beta                 116.139(8)
_cell_angle_gamma                90
_cell_volume                     10356
loop_
_atom_site_label
_atom_site_type_symbol
_atom_site_fract_x
_atom_site_fract_y
_atom_site_fract_z
C30 C 0.08519(17) 0.0718(5) 0.5477(2)
H21 H 0.0556 0.0448 0.5333
C31 C 0.09250(17) 0.1945(5) 0.5558(2)
C32 C 0.13689(19) 0.2323(5) 0.5797(2)
C33 C 0.17200(19) 0.1503(5) 0.5924(2)
H22 H 0.2016 0.1767 0.6084
C34 C 0.16266(19) 0.0285(5) 0.5812(2)
H23 H 0.2283 0.0550 0.5673
C37 C 0.1891(2) 0.3954(6) 0.6137(3)
H25 H 0.1895 0.4832 0.6116
H26 H 0.2062 0.3636 0.5979
C38 C 0.2131(3) 0.3594(9) 0.6658(4)
O13 O 0.14381(13) 0.3552(3) 0.58875(17)
O14 O 0.2552(2) 0.3753(11) 0.6824(3)
O15 O 0.1913(2) 0.3309(6) 0.6864(2)
C50 C 0.01060(17) 0.2390(5) 0.5368(2)
C51 C 0.00890(19) 0.2192(5) 0.5789(2)
C56 C 0.0676(2) 0.1575(7) 0.6523(3)
H38 H 0.0616 0.0821 0.6348
H39 H 0.0998 0.1709 0.6662
C57 C 0.0540(3) 0.1417(7) 0.6918(3)
C58 C 0.05382(17) 0.2858(5) 0.5348(2)
H40 H 0.0632 0.3599 0.5538
C59 C 0.04508(18) 0.3184(5) 0.4849(2)
C60 C 0.0361(2) 0.4372(5) 0.4689(2)
H41 H 0.0379 0.4983 0.4900
C61 C 0.0243(2) 0.4675(6) 0.4220(3)
H42 H 0.0181 0.5477 0.4122
C62 C 0.02190(19) 0.3795(6) 0.3904(2)
C63 C 0.0315(2) 0.2626(5) 0.4052(2)
H43 H 0.0302 0.2025 0.3840
C64 C 0.0432(2) 0.2326(5) 0.4521(3)
H44 H 0.0499 0.1523 0.4616
C65 C 0.00567(19) 0.5156(5) 0.3247(2)
C66 C 0.0498(2) 0.5625(5) 0.3289(2)
O26 O 0.04645(14) 0.2526(4) 0.61989(15)
O27 O 0.0725(2) 0.0528(5) 0.7182(2)
O28 O 0.02785(15) 0.2159(4) 0.69615(16)
O29 O 0.00813(15) 0.3961(4) 0.34297(16)
O30 O 0.05073(15) 0.6455(4) 0.30264(18)
O31 O 0.08550(14) 0.5153(4) 0.35963(17)
Cd4 Cd 0.0000 0.78192(6) 0.2500
Cd6 Cd 0.0000 0.21808(6) 0.7500
Cd11 Cd 0.13599(2) 0.64378(5) 0.34596(2)
Cd2 Cd 0.13599(2) 0.35622(5) 0.84596(2)
C1 C 0.12513(19) 0.4350(7) 0.7601(3)
C2 C 0.1157(2) 0.4718(6) 0.7106(2)
H1 H 0.1412 0.4515 0.7046
H2 H 0.0896 0.4286 0.6880
C3 C 0.1068(2) 0.6513(6) 0.6660(3)
C4 C 0.1020(3) 0.7756(6) 0.6636(3)
H3 H 0.0980 0.8172 0.6871
C5 C 0.1032(3) 0.8388(6) 0.6264(3)
H4 H 0.1001 0.9227 0.6254
C6 C 0.10897(19) 0.7815(5) 0.5909(2)
C7 C 0.1127(2) 0.6586(5) 0.5938(2)
H5 H 0.1161 0.6173 0.5700
C8 C 0.1115(2) 0.5915(6) 0.6302(2)
H6 H 0.1140 0.5074 0.6306
C9 C 0.10965(17) 0.8507(5) 0.5493(2)
H7 H 0.1348 0.8179 0.5445
C10 C 0.06722(17) 0.8279(4) 0.5038(2)
C11 C 0.02838(18) 0.7831(4) 0.5041(2)
H8 H 0.0284 0.7671 0.5330
C14 C 0.02940(19) 0.8262(5) 0.4187(2)
H9 H 0.0298 0.8381 0.3897
C15 C 0.06701(19) 0.8532(5) 0.4606(2)
C16 C 0.1093(2) 0.9326(6) 0.4209(2)
H10 H 0.1308 0.9978 0.4270
H11 H 0.0804 0.9608 0.3974
C17 C 0.1241(2) 0.8232(7) 0.4014(3)
H19 H 0.0159 0.4841 0.7083
H20 H 0.0054 0.4298 0.6587
C29 C 0.11900(17) 0.9862(5) 0.5594(2)
C35 C 0.2272(2) 0.9687(8) 0.5727(3)
H24 H 0.2153 0.9281 0.5424
C36 C 0.2748(2) 0.9221(8) 0.6040(4)
O1 O 0.12750(17) 0.5130(5) 0.78993(18)
O2 O 0.13060(17) 0.3227(4) 0.76966(18)
O3 O 0.10779(18) 0.5974(4) 0.70545(18)
O4 O 0.10594(14) 0.9047(4) 0.46323(15)
O5 O 0.12595(18) 0.8416(5) 0.3628(2)
O6 O 0.1328(2) 0.7269(5) 0.4217(2)
O16 O 0.19850(13) 0.9471(4) 0.59442(17)
O17 O 0.28211(18) 0.8507(6) 0.6361(3)
O18 O 0.30444(18) 0.9578(6) 0.5932(2)
O19 O 0.05170(18) 0.9348(4) 0.28911(18)
Cd9 Cd 0.36401(2) 0.85622(5) 0.65404(2)
O39 O 0.12750(17) 0.4870(5) 0.28993(18)
O40 O 0.13060(17) 0.6773(4) 0.26966(18)
O41 O 0.12595(18) 0.1584(5) 0.8628(2)
O42 O 0.1328(2) 0.2731(5) 0.9217(2)
O43 O 0.02785(15) 0.7841(4) 0.19615(16)
O44 O 0.05073(15) 0.3545(4) 0.80264(18)
O47 O 0.08550(14) 0.4847(4) 0.85963(17)
O49 O 0.21789(18) 0.3507(6) 0.8639(3)
O50 O 0.21789(18) 0.6493(6) 0.3639(3)
O51 O 0.19556(18) 0.4578(6) 0.9068(2)
O52 O 0.19556(18) 0.5422(6) 0.4068(2)
C39 C 0.87487(19) 0.5650(7) 0.2399(3)
C40 C 0.8843(2) 0.5282(6) 0.2894(2)
H27 H 0.8588 0.5485 0.2954
H28 H 0.9104 0.5714 0.3120
C41 C 0.8932(2) 0.3487(6) 0.3340(3)
C42 C 0.8980(3) 0.2244(6) 0.3364(3)
H29 H 0.9020 0.1828 0.3129
C43 C 0.8968(3) 0.1612(6) 0.3736(3)
H30 H 0.8999 0.0773 0.3746
C44 C 0.89103(19) 0.2185(5) 0.4091(2)
C45 C 0.8873(2) 0.3414(5) 0.4062(2)
H31 H 0.8839 0.3827 0.4300
C46 C 0.8885(2) 0.4085(6) 0.3698(2)
H32 H 0.8860 0.4926 0.3694
C47 C 0.89035(17) 0.1493(5) 0.4507(2)
H33 H 0.8652 0.1821 0.4555
C48 C 0.93278(17) 0.1721(4) 0.4962(2)
C49 C 0.97162(18) 0.2169(4) 0.4959(2)
H34 H 0.9716 0.2329 0.4670
C52 C 0.97060(19) 0.1738(5) 0.5813(2)
H35 H 0.9702 0.1619 0.6103
C53 C 0.93299(19) 0.1468(5) 0.5394(2)
C54 C 0.8907(2) 0.0674(6) 0.5791(2)
H36 H 0.8692 0.0022 0.5730
H37 H 0.9196 0.0392 0.6026
C55 C 0.8759(2) 0.1768(7) 0.5986(3)
H45 H 0.9841 0.5159 0.2917
H46 H 0.9946 0.5702 0.3413
C67 C 0.88100(17) 0.0138(5) 0.4406(2)
C73 C 0.7728(2) 0.0313(8) 0.4273(3)
H50 H 0.7847 0.0719 0.4576
C74 C 0.7252(2) 0.0779(8) 0.3960(4)
O20 O 0.87250(17) 0.4870(5) 0.21007(18)
O21 O 0.86940(17) 0.6773(4) 0.23034(18)
O22 O 0.89221(18) 0.4026(4) 0.29455(18)
O23 O 0.89406(14) 0.0953(4) 0.53677(15)
O24 O 0.87405(18) 0.1584(5) 0.6372(2)
O25 O 0.8672(2) 0.2731(5) 0.5783(2)
O35 O 0.80150(13) 0.0529(4) 0.40558(17)
O36 O 0.71789(18) 0.1493(6) 0.3639(3)
O37 O 0.69556(18) 0.0422(6) 0.4068(2)
Cd4_2 Cd 1.0000 0.78192(6) 0.2500
Cd6_2 Cd 1.0000 0.21808(6) 0.7500
Cd8 Cd 0.86401(2) 0.35622(5) 0.65404(2)
Cd10 Cd 0.86401(2) 0.64378(5) 0.15404(2)
Cd12 Cd 0.63599(2) 0.14378(5) 0.34596(2)
H79 H 0.954227 0.00596579 0.232058
C12 C 0.98940(17) 0.7610(5) 0.4632(2)
C13 C 0.99110(19) 0.7808(5) 0.4211(2)
C18 C 0.9324(2) 0.8425(7) 0.3477(3)
H12 H 0.9384 0.9179 0.3652
H13 H 0.9002 0.8291 0.3338
C19 C 0.9460(3) 0.8583(7) 0.3082(3)
C20 C 0.94618(17) 0.7142(5) 0.4652(2)
H14 H 0.9368 0.6401 0.4462
C21 C 0.95492(18) 0.6816(5) 0.5151(2)
C22 C 0.9639(2) 0.5628(5) 0.5311(2)
H15 H 0.9621 0.5017 0.5100
C23 C 0.9757(2) 0.5325(6) 0.5780(3)
H16 H 0.9819 0.4523 0.5878
C24 C 0.97810(19) 0.6205(6) 0.6096(2)
C25 C 0.9685(2) 0.7374(5) 0.5948(2)
H17 H 0.9698 0.7975 0.6160
C26 C 0.9568(2) 0.7674(5) 0.5479(3)
H18 H 0.9501 0.8477 0.5384
C27 C 0.99433(19) 0.4844(5) 0.6753(2)
C28 C 0.9502(2) 0.4375(5) 0.6711(2)
O7 O 0.95355(14) 0.7474(4) 0.38011(15)
O8 O 0.9275(2) 0.9472(5) 0.2818(2)
O9 O 0.97215(15) 0.7841(4) 0.30385(16)
O10 O 0.99187(15) 0.6039(4) 0.65703(16)
O11 O 0.94927(15) 0.3545(4) 0.69736(18)
O12 O 0.91450(14) 0.4847(4) 0.64037(17)
C68 C 0.91481(17) 0.9282(5) 0.4523(2)
H47 H 0.9444 0.9552 0.4667
C69 C 0.90750(17) 0.8055(5) 0.4442(2)
C70 C 0.86311(19) 0.7677(5) 0.4203(2)
C71 C 0.82800(19) 0.8497(5) 0.4076(2)
H48 H 0.7984 0.8233 0.3916
C72 C 0.83734(19) 0.9715(5) 0.4188(2)
H49 H 0.7717 0.9450 0.4327
C75 C 0.8109(2) 0.6046(6) 0.3863(3)
H51 H 0.8105 0.5168 0.3884
H52 H 0.7938 0.6364 0.4021
C76 C 0.7869(3) 0.6406(9) 0.3342(4)
O32 O 0.85619(13) 0.6448(3) 0.41125(17)
O33 O 0.7448(2) 0.6247(11) 0.3176(3)
O34 O 0.8087(2) 0.6691(6) 0.3136(2)
O38 O 0.94830(18) 0.9348(4) 0.21089(18)
O46 O 0.94927(15) 0.6455(4) 0.19736(18)
C39_2 C 0.12513(19) 0.5650(7) 0.2601(3)
C40_2 C 0.1157(2) 0.5282(6) 0.2106(2)
H27_2 H 0.1412 0.5485 0.2046
H28_2 H 0.0896 0.5714 0.1880
C41_2 C 0.1068(2) 0.3487(6) 0.1660(3)
C42_2 C 0.1020(3) 0.2244(6) 0.1636(3)
H29_2 H 0.0980 0.1828 0.1871
C43_2 C 0.1032(3) 0.1612(6) 0.1264(3)
H30_2 H 0.1001 0.0773 0.1254
C44_2 C 0.10897(19) 0.2185(5) 0.0909(2)
C45_2 C 0.1127(2) 0.3414(5) 0.0938(2)
H31_2 H 0.1161 0.3827 0.0700
C46_2 C 0.1115(2) 0.4085(6) 0.1302(2)
H32_2 H 0.1140 0.4926 0.1306
C47_2 C 0.10965(17) 0.1493(5) 0.0493(2)
H33_2 H 0.1348 0.1821 0.0445
C48_2 C 0.06722(17) 0.1721(4) 0.0038(2)
C49_2 C 0.02838(18) 0.2169(4) 0.0041(2)
H34_2 H 0.0284 0.2329 0.0330
H45_2 H 0.0159 0.5159 0.2083
H46_2 H 0.0054 0.5702 0.1587
C67_2 C 0.11900(17) 0.0138(5) 0.0594(2)
C73_2 C 0.2272(2) 0.0313(8) 0.0727(3)
H50_2 H 0.2153 0.0719 0.0424
C74_2 C 0.2748(2) 0.0779(8) 0.1040(4)
O22_2 O 0.10779(18) 0.4026(4) 0.20545(18)
O35_2 O 0.19850(13) 0.0529(4) 0.09442(17)
O36_2 O 0.28211(18) 0.1493(6) 0.1361(3)
O37_2 O 0.30444(18) 0.0422(6) 0.0932(2)
Cd12_2 Cd 0.36401(2) 0.14378(5) 0.15404(2)
H79_2 H 0.0457732 0.00596579 0.267942
C52_2 C 0.02940(19) 0.1738(5) 0.9187(2)
H35_2 H 0.0298 0.1619 0.8897
C53_2 C 0.06701(19) 0.1468(5) 0.9606(2)
C54_2 C 0.1093(2) 0.0674(6) 0.9209(2)
H36_2 H 0.1308 0.0022 0.9270
H37_2 H 0.0804 0.0392 0.8974
C55_2 C 0.1241(2) 0.1768(7) 0.9014(3)
O23_2 O 0.10594(14) 0.0953(4) 0.96323(15)
C12_2 C 0.01060(17) 0.7610(5) 0.0368(2)
C13_2 C 0.00890(19) 0.7808(5) 0.0789(2)
C18_2 C 0.0676(2) 0.8425(7) 0.1523(3)
H12_2 H 0.0616 0.9179 0.1348
H13_2 H 0.0998 0.8291 0.1662
C19_2 C 0.0540(3) 0.8583(7) 0.1918(3)
C20_2 C 0.05382(17) 0.7142(5) 0.0348(2)
H14_2 H 0.0632 0.6401 0.0538
O7_2 O 0.04645(14) 0.7474(4) 0.11989(15)
O8_2 O 0.0725(2) 0.9472(5) 0.2182(2)
C68_2 C 0.08519(17) 0.9282(5) 0.0477(2)
H47_2 H 0.0556 0.9552 0.0333
C69_2 C 0.09250(17) 0.8055(5) 0.0558(2)
C70_2 C 0.13689(19) 0.7677(5) 0.0797(2)
C71_2 C 0.17200(19) 0.8497(5) 0.0924(2)
H48_2 H 0.2016 0.8233 0.1084
C72_2 C 0.16266(19) 0.9715(5) 0.0812(2)
H49_2 H 0.2283 0.9450 0.0673
C75_2 C 0.1891(2) 0.6046(6) 0.1137(3)
H51_2 H 0.1895 0.5168 0.1116
H52_2 H 0.2062 0.6364 0.0979
C76_2 C 0.2131(3) 0.6406(9) 0.1658(4)
O32_2 O 0.14381(13) 0.6448(3) 0.08875(17)
O33_2 O 0.2552(2) 0.6247(11) 0.1824(3)
O34_2 O 0.1913(2) 0.6691(6) 0.1864(2)
C21_2 C 0.04508(18) 0.6816(5) 0.9849(2)
C22_2 C 0.0361(2) 0.5628(5) 0.9689(2)
H15_2 H 0.0379 0.5017 0.9900
C23_2 C 0.0243(2) 0.5325(6) 0.9220(3)
H16_2 H 0.0181 0.4523 0.9122
C24_2 C 0.02190(19) 0.6205(6) 0.8904(2)
C25_2 C 0.0315(2) 0.7374(5) 0.9052(2)
H17_2 H 0.0302 0.7975 0.8840
C26_2 C 0.0432(2) 0.7674(5) 0.9521(3)
H18_2 H 0.0499 0.8477 0.9616
C27_2 C 0.00567(19) 0.4844(5) 0.8247(2)
C28_2 C 0.0498(2) 0.4375(5) 0.8289(2)
O10_2 O 0.00813(15) 0.6039(4) 0.84297(16)
C59_2 C 0.95492(18) 0.3184(5) 0.0151(2)
C60_2 C 0.9639(2) 0.4372(5) 0.0311(2)
H41_2 H 0.9621 0.4983 0.0100
C61_2 C 0.9757(2) 0.4675(6) 0.0780(3)
H42_2 H 0.9819 0.5477 0.0878
C62_2 C 0.97810(19) 0.3795(6) 0.1096(2)
C63_2 C 0.9685(2) 0.2626(5) 0.0948(2)
H43_2 H 0.9698 0.2025 0.1160
C64_2 C 0.9568(2) 0.2326(5) 0.0479(3)
H44_2 H 0.9501 0.1523 0.0384
C65_2 C 0.99433(19) 0.5156(5) 0.1753(2)
C66_2 C 0.9502(2) 0.5625(5) 0.1711(2)
O29_2 O 0.99187(15) 0.3961(4) 0.15703(16)
O31_2 O 0.91450(14) 0.5153(4) 0.14037(17)
C30_2 C 0.91481(17) 0.0718(5) 0.9523(2)
H21_2 H 0.9444 0.0448 0.9667
C31_2 C 0.90750(17) 0.1945(5) 0.9442(2)
C32_2 C 0.86311(19) 0.2323(5) 0.9203(2)
C33_2 C 0.82800(19) 0.1503(5) 0.9076(2)
H22_2 H 0.7984 0.1767 0.8916
C34_2 C 0.83734(19) 0.0285(5) 0.9188(2)
H23_2 H 0.7717 0.0550 0.9327
C37_2 C 0.8109(2) 0.3954(6) 0.8863(3)
H25_2 H 0.8105 0.4832 0.8884
H26_2 H 0.7938 0.3636 0.9021
C38_2 C 0.7869(3) 0.3594(9) 0.8342(4)
O13_2 O 0.85619(13) 0.3552(3) 0.91125(17)
O14_2 O 0.7448(2) 0.3753(11) 0.8176(3)
O15_2 O 0.8087(2) 0.3309(6) 0.8136(2)
C50_2 C 0.98940(17) 0.2390(5) 0.9632(2)
C51_2 C 0.99110(19) 0.2192(5) 0.9211(2)
C56_2 C 0.9324(2) 0.1575(7) 0.8477(3)
H38_2 H 0.9384 0.0821 0.8652
H39_2 H 0.9002 0.1709 0.8338
C57_2 C 0.9460(3) 0.1417(7) 0.8082(3)
C58_2 C 0.94618(17) 0.2858(5) 0.9652(2)
H40_2 H 0.9368 0.3599 0.9462
O26_2 O 0.95355(14) 0.2526(4) 0.88011(15)
O27_2 O 0.9275(2) 0.0528(5) 0.7818(2)
O28_2 O 0.97215(15) 0.2159(4) 0.80385(16)
C14_2 C 0.97060(19) 0.8262(5) 0.0813(2)
H9_2 H 0.9702 0.8381 0.1103
C15_2 C 0.93299(19) 0.8532(5) 0.0394(2)
C16_2 C 0.8907(2) 0.9326(6) 0.0791(2)
H10_2 H 0.8692 0.9978 0.0730
H11_2 H 0.9196 0.9608 0.1026
C17_2 C 0.8759(2) 0.8232(7) 0.0986(3)
O4_2 O 0.89406(14) 0.9047(4) 0.03677(15)
O5_2 O 0.87405(18) 0.8416(5) 0.1372(2)
O6_2 O 0.8672(2) 0.7269(5) 0.0783(2)
O50_2 O 0.78211(18) 0.6493(6) 0.1361(3)
O52_2 O 0.80444(18) 0.5422(6) 0.0932(2)
C1_2 C 0.87487(19) 0.4350(7) 0.7399(3)
C2_2 C 0.8843(2) 0.4718(6) 0.7894(2)
H1_2 H 0.8588 0.4515 0.7954
H2_2 H 0.9104 0.4286 0.8120
C3_2 C 0.8932(2) 0.6513(6) 0.8340(3)
C4_2 C 0.8980(3) 0.7756(6) 0.8364(3)
H3_2 H 0.9020 0.8172 0.8129
C5_2 C 0.8968(3) 0.8388(6) 0.8736(3)
H4_2 H 0.8999 0.9227 0.8746
C6_2 C 0.89103(19) 0.7815(5) 0.9091(2)
C7_2 C 0.8873(2) 0.6586(5) 0.9062(2)
H5_2 H 0.8839 0.6173 0.9300
C8_2 C 0.8885(2) 0.5915(6) 0.8698(2)
H6_2 H 0.8860 0.5074 0.8694
C9_2 C 0.89035(17) 0.8507(5) 0.9507(2)
H7_2 H 0.8652 0.8179 0.9555
C10_2 C 0.93278(17) 0.8279(4) 0.9962(2)
C11_2 C 0.97162(18) 0.7831(4) 0.9959(2)
H8_2 H 0.9716 0.7671 0.9670
H19_2 H 0.9841 0.4841 0.7917
H20_2 H 0.9946 0.4298 0.8413
C29_2 C 0.88100(17) 0.9862(5) 0.9406(2)
C35_2 C 0.7728(2) 0.9687(8) 0.9273(3)
H24_2 H 0.7847 0.9281 0.9576
C36_2 C 0.7252(2) 0.9221(8) 0.8960(4)
O1_2 O 0.87250(17) 0.5130(5) 0.71007(18)
O2_2 O 0.86940(17) 0.3227(4) 0.73034(18)
O3_2 O 0.89221(18) 0.5974(4) 0.79455(18)
O16_2 O 0.80150(13) 0.9471(4) 0.90558(17)
O17_2 O 0.71789(18) 0.8507(6) 0.8639(3)
O18_2 O 0.69556(18) 0.9578(6) 0.9068(2)
Cd9_2 Cd 0.63599(2) 0.85622(5) 0.84596(2)
O49_2 O 0.78211(18) 0.3507(6) 0.6361(3)
O51_2 O 0.80444(18) 0.4578(6) 0.5932(2)
C39_3 C 0.37487(19) 0.0650(7) 0.2399(3)
C40_3 C 0.3843(2) 0.0282(6) 0.2894(2)
H27_3 H 0.3588 0.0485 0.2954
H28_3 H 0.4104 0.0714 0.3120
H42_3 H 0.5181 0.0477 0.4122
C65_3 C 0.50567(19) 0.0156(5) 0.3247(2)
H45_3 H 0.4841 0.0159 0.2917
H46_3 H 0.4946 0.0702 0.3413
C66_3 C 0.5498(2) 0.0625(5) 0.3289(2)
O21_2 O 0.36940(17) 0.1773(4) 0.23034(18)
O30_2 O 0.55073(15) 0.1455(4) 0.30264(18)
O31_3 O 0.58550(14) 0.0153(4) 0.35963(17)
Cd4_3 Cd 0.5000 0.28192(6) 0.2500
C3_3 C 0.6068(2) 0.1513(6) 0.6660(3)
C4_3 C 0.6020(3) 0.2756(6) 0.6636(3)
H3_3 H 0.5980 0.3172 0.6871
C5_3 C 0.6032(3) 0.3388(6) 0.6264(3)
H4_3 H 0.6001 0.4227 0.6254
C6_3 C 0.60897(19) 0.2815(5) 0.5909(2)
C7_3 C 0.6127(2) 0.1586(5) 0.5938(2)
H5_3 H 0.6161 0.1173 0.5700
C8_3 C 0.6115(2) 0.0915(6) 0.6302(2)
H6_3 H 0.6140 0.0074 0.6306
C9_3 C 0.60965(17) 0.3507(5) 0.5493(2)
H7_3 H 0.6348 0.3179 0.5445
C10_3 C 0.56722(17) 0.3279(4) 0.5038(2)
C11_3 C 0.52838(18) 0.2831(4) 0.5041(2)
H8_3 H 0.5284 0.2671 0.5330
C12_3 C 0.48940(17) 0.2610(5) 0.4632(2)
C13_3 C 0.49110(19) 0.2808(5) 0.4211(2)
C14_3 C 0.52940(19) 0.3262(5) 0.4187(2)
H9_3 H 0.5298 0.3381 0.3897
C15_3 C 0.56701(19) 0.3532(5) 0.4606(2)
C16_3 C 0.6093(2) 0.4326(6) 0.4209(2)
H10_3 H 0.6308 0.4978 0.4270
H11_3 H 0.5804 0.4608 0.3974
C17_3 C 0.6241(2) 0.3232(7) 0.4014(3)
C18_3 C 0.4324(2) 0.3425(7) 0.3477(3)
H12_3 H 0.4384 0.4179 0.3652
H13_3 H 0.4002 0.3291 0.3338
C19_3 C 0.4460(3) 0.3583(7) 0.3082(3)
C20_3 C 0.44618(17) 0.2142(5) 0.4652(2)
H14_3 H 0.4368 0.1401 0.4462
C21_3 C 0.45492(18) 0.1816(5) 0.5151(2)
C22_3 C 0.4639(2) 0.0628(5) 0.5311(2)
H15_3 H 0.4621 0.0017 0.5100
C23_3 C 0.4757(2) 0.0325(6) 0.5780(3)
C24_3 C 0.47810(19) 0.1205(6) 0.6096(2)
C25_3 C 0.4685(2) 0.2374(5) 0.5948(2)
H17_3 H 0.4698 0.2975 0.6160
C26_3 C 0.4568(2) 0.2674(5) 0.5479(3)
H18_3 H 0.4501 0.3477 0.5384
C29_3 C 0.61900(17) 0.4862(5) 0.5594(2)
C30_3 C 0.58519(17) 0.5718(5) 0.5477(2)
H21_3 H 0.5556 0.5448 0.5333
C31_3 C 0.59250(17) 0.6945(5) 0.5558(2)
C32_3 C 0.63689(19) 0.7323(5) 0.5797(2)
C33_3 C 0.67200(19) 0.6503(5) 0.5924(2)
H22_3 H 0.7016 0.6767 0.6084
C34_3 C 0.66266(19) 0.5285(5) 0.5812(2)
C35_3 C 0.7272(2) 0.4687(8) 0.5727(3)
H23_3 H 0.7283 0.5550 0.5673
H24_3 H 0.7153 0.4281 0.5424
C36_3 C 0.7748(2) 0.4221(8) 0.6040(4)
C37_3 C 0.6891(2) 0.8954(6) 0.6137(3)
H25_3 H 0.6895 0.9832 0.6116
H26_3 H 0.7062 0.8636 0.5979
C38_3 C 0.7131(3) 0.8594(9) 0.6658(4)
O1_3 O 0.62750(17) 0.0130(5) 0.78993(18)
O3_3 O 0.60779(18) 0.0974(4) 0.70545(18)
O4_3 O 0.60594(14) 0.4047(4) 0.46323(15)
O5_3 O 0.62595(18) 0.3416(5) 0.3628(2)
O6_3 O 0.6328(2) 0.2269(5) 0.4217(2)
O7_3 O 0.45355(14) 0.2474(4) 0.38011(15)
O8_3 O 0.4275(2) 0.4472(5) 0.2818(2)
O9_2 O 0.47215(15) 0.2841(4) 0.30385(16)
O10_3 O 0.49187(15) 0.1039(4) 0.65703(16)
O13_3 O 0.64381(13) 0.8552(3) 0.58875(17)
O14_3 O 0.7552(2) 0.8753(11) 0.6824(3)
O15_3 O 0.6913(2) 0.8309(6) 0.6864(2)
O16_3 O 0.69850(13) 0.4471(4) 0.59442(17)
O19_2 O 0.55170(18) 0.4348(4) 0.28911(18)
C41_3 C 0.3932(2) 0.8487(6) 0.3340(3)
C42_3 C 0.3980(3) 0.7244(6) 0.3364(3)
H29_3 H 0.4020 0.6828 0.3129
C43_3 C 0.3968(3) 0.6612(6) 0.3736(3)
H30_3 H 0.3999 0.5773 0.3746
C44_3 C 0.39103(19) 0.7185(5) 0.4091(2)
C45_3 C 0.3873(2) 0.8414(5) 0.4062(2)
H31_3 H 0.3839 0.8827 0.4300
C46_3 C 0.3885(2) 0.9085(6) 0.3698(2)
H32_3 H 0.3860 0.9926 0.3694
C47_3 C 0.39035(17) 0.6493(5) 0.4507(2)
H33_3 H 0.3652 0.6821 0.4555
C48_3 C 0.43278(17) 0.6721(4) 0.4962(2)
C49_3 C 0.47162(18) 0.7169(4) 0.4959(2)
H34_3 H 0.4716 0.7329 0.4670
C50_3 C 0.51060(17) 0.7390(5) 0.5368(2)
C51_3 C 0.50890(19) 0.7192(5) 0.5789(2)
C52_3 C 0.47060(19) 0.6738(5) 0.5813(2)
H35_3 H 0.4702 0.6619 0.6103
C53_3 C 0.43299(19) 0.6468(5) 0.5394(2)
C54_3 C 0.3907(2) 0.5674(6) 0.5791(2)
H36_3 H 0.3692 0.5022 0.5730
H37_3 H 0.4196 0.5392 0.6026
C55_3 C 0.3759(2) 0.6768(7) 0.5986(3)
C56_3 C 0.5676(2) 0.6575(7) 0.6523(3)
H38_3 H 0.5616 0.5821 0.6348
H39_3 H 0.5998 0.6709 0.6662
C57_3 C 0.5540(3) 0.6417(7) 0.6918(3)
C58_3 C 0.55382(17) 0.7858(5) 0.5348(2)
H40_3 H 0.5632 0.8599 0.5538
C59_3 C 0.54508(18) 0.8184(5) 0.4849(2)
C60_3 C 0.5361(2) 0.9372(5) 0.4689(2)
H41_3 H 0.5379 0.9983 0.4900
C61_3 C 0.5243(2) 0.9675(6) 0.4220(3)
C62_3 C 0.52190(19) 0.8795(6) 0.3904(2)
C63_3 C 0.5315(2) 0.7626(5) 0.4052(2)
H43_3 H 0.5302 0.7025 0.3840
C64_3 C 0.5432(2) 0.7326(5) 0.4521(3)
H44_3 H 0.5499 0.6523 0.4616
C67_3 C 0.38100(17) 0.5138(5) 0.4406(2)
C68_3 C 0.41481(17) 0.4282(5) 0.4523(2)
H47_3 H 0.4444 0.4552 0.4667
C69_3 C 0.40750(17) 0.3055(5) 0.4442(2)
C70_3 C 0.36311(19) 0.2677(5) 0.4203(2)
C71_3 C 0.32800(19) 0.3497(5) 0.4076(2)
H48_3 H 0.2984 0.3233 0.3916
C72_3 C 0.33734(19) 0.4715(5) 0.4188(2)
C73_3 C 0.2728(2) 0.5313(8) 0.4273(3)
H49_3 H 0.2717 0.4450 0.4327
H50_3 H 0.2847 0.5719 0.4576
C74_3 C 0.2252(2) 0.5779(8) 0.3960(4)
C75_3 C 0.3109(2) 0.1046(6) 0.3863(3)
H51_3 H 0.3105 0.0168 0.3884
H52_3 H 0.2938 0.1364 0.4021
C76_3 C 0.2869(3) 0.1406(9) 0.3342(4)
O20_2 O 0.37250(17) 0.9870(5) 0.21007(18)
O22_3 O 0.39221(18) 0.9026(4) 0.29455(18)
O23_3 O 0.39406(14) 0.5953(4) 0.53677(15)
O24_2 O 0.37405(18) 0.6584(5) 0.6372(2)
O25_2 O 0.3672(2) 0.7731(5) 0.5783(2)
O26_3 O 0.54645(14) 0.7526(4) 0.61989(15)
O27_3 O 0.5725(2) 0.5528(5) 0.7182(2)
O28_3 O 0.52785(15) 0.7159(4) 0.69615(16)
O29_3 O 0.50813(15) 0.8961(4) 0.34297(16)
O32_3 O 0.35619(13) 0.1448(3) 0.41125(17)
O33_3 O 0.2448(2) 0.1247(11) 0.3176(3)
O34_3 O 0.3087(2) 0.1691(6) 0.3136(2)
O35_3 O 0.30150(13) 0.5529(4) 0.40558(17)
O38_2 O 0.44830(18) 0.4348(4) 0.21089(18)
Cd6_3 Cd 0.5000 0.71808(6) 0.7500
O40_2 O 0.63060(17) 0.1773(4) 0.26966(18)
O43_2 O 0.52785(15) 0.2841(4) 0.19615(16)
O46_2 O 0.44927(15) 0.1455(4) 0.19736(18)
C1_3 C 0.62513(19) 0.9350(7) 0.7601(3)
C2_3 C 0.6157(2) 0.9718(6) 0.7106(2)
H1_3 H 0.6412 0.9515 0.7046
H2_3 H 0.5896 0.9286 0.6880
H16_3 H 0.4819 0.9523 0.5878
C27_3 C 0.49433(19) 0.9844(5) 0.6753(2)
H19_3 H 0.5159 0.9841 0.7083
H20_3 H 0.5054 0.9298 0.6587
C28_3 C 0.4502(2) 0.9375(5) 0.6711(2)
O2_3 O 0.63060(17) 0.8227(4) 0.76966(18)
O11_2 O 0.44927(15) 0.8545(4) 0.69736(18)
O12_2 O 0.41450(14) 0.9847(4) 0.64037(17)
O39_2 O 0.62750(17) 0.9870(5) 0.28993(18)
O41_2 O 0.62595(18) 0.6584(5) 0.8628(2)
O42_2 O 0.6328(2) 0.7731(5) 0.9217(2)
O44_2 O 0.55073(15) 0.8545(4) 0.80264(18)
O47_2 O 0.58550(14) 0.9847(4) 0.85963(17)
C39_4 C 0.62513(19) 0.0650(7) 0.2601(3)
C40_4 C 0.6157(2) 0.0282(6) 0.2106(2)
H27_4 H 0.6412 0.0485 0.2046
H28_4 H 0.5896 0.0714 0.1880
H42_4 H 0.4819 0.0477 0.0878
C65_4 C 0.49433(19) 0.0156(5) 0.1753(2)
H45_4 H 0.5159 0.0159 0.2083
H46_4 H 0.5054 0.0702 0.1587
C66_4 C 0.4502(2) 0.0625(5) 0.1711(2)
O31_4 O 0.41450(14) 0.0153(4) 0.14037(17)
C12_4 C 0.51060(17) 0.2610(5) 0.0368(2)
C13_4 C 0.50890(19) 0.2808(5) 0.0789(2)
C14_4 C 0.47060(19) 0.3262(5) 0.0813(2)
H9_4 H 0.4702 0.3381 0.1103
C15_4 C 0.43299(19) 0.3532(5) 0.0394(2)
C16_4 C 0.3907(2) 0.4326(6) 0.0791(2)
H10_4 H 0.3692 0.4978 0.0730
H11_4 H 0.4196 0.4608 0.1026
C17_4 C 0.3759(2) 0.3232(7) 0.0986(3)
C18_4 C 0.5676(2) 0.3425(7) 0.1523(3)
H12_4 H 0.5616 0.4179 0.1348
H13_4 H 0.5998 0.3291 0.1662
C19_4 C 0.5540(3) 0.3583(7) 0.1918(3)
C20_4 C 0.55382(17) 0.2142(5) 0.0348(2)
H14_4 H 0.5632 0.1401 0.0538
O4_4 O 0.39406(14) 0.4047(4) 0.03677(15)
O5_4 O 0.37405(18) 0.3416(5) 0.1372(2)
O6_4 O 0.3672(2) 0.2269(5) 0.0783(2)
O7_4 O 0.54645(14) 0.2474(4) 0.11989(15)
O8_4 O 0.5725(2) 0.4472(5) 0.2182(2)
C41_4 C 0.6068(2) 0.8487(6) 0.1660(3)
C42_4 C 0.6020(3) 0.7244(6) 0.1636(3)
H29_4 H 0.5980 0.6828 0.1871
C43_4 C 0.6032(3) 0.6612(6) 0.1264(3)
H30_4 H 0.6001 0.5773 0.1254
C44_4 C 0.60897(19) 0.7185(5) 0.0909(2)
C45_4 C 0.6127(2) 0.8414(5) 0.0938(2)
H31_4 H 0.6161 0.8827 0.0700
C46_4 C 0.6115(2) 0.9085(6) 0.1302(2)
H32_4 H 0.6140 0.9926 0.1306
C47_4 C 0.60965(17) 0.6493(5) 0.0493(2)
H33_4 H 0.6348 0.6821 0.0445
C48_4 C 0.56722(17) 0.6721(4) 0.0038(2)
C49_4 C 0.52838(18) 0.7169(4) 0.0041(2)
H34_4 H 0.5284 0.7329 0.0330
C59_4 C 0.45492(18) 0.8184(5) 0.0151(2)
C60_4 C 0.4639(2) 0.9372(5) 0.0311(2)
H41_4 H 0.4621 0.9983 0.0100
C61_4 C 0.4757(2) 0.9675(6) 0.0780(3)
C62_4 C 0.47810(19) 0.8795(6) 0.1096(2)
C63_4 C 0.4685(2) 0.7626(5) 0.0948(2)
H43_4 H 0.4698 0.7025 0.1160
C64_4 C 0.4568(2) 0.7326(5) 0.0479(3)
H44_4 H 0.4501 0.6523 0.0384
C67_4 C 0.61900(17) 0.5138(5) 0.0594(2)
C68_4 C 0.58519(17) 0.4282(5) 0.0477(2)
H47_4 H 0.5556 0.4552 0.0333
C69_4 C 0.59250(17) 0.3055(5) 0.0558(2)
C70_4 C 0.63689(19) 0.2677(5) 0.0797(2)
C71_4 C 0.67200(19) 0.3497(5) 0.0924(2)
H48_4 H 0.7016 0.3233 0.1084
C72_4 C 0.66266(19) 0.4715(5) 0.0812(2)
C73_4 C 0.7272(2) 0.5313(8) 0.0727(3)
H49_4 H 0.7283 0.4450 0.0673
H50_4 H 0.7153 0.5719 0.0424
C74_4 C 0.7748(2) 0.5779(8) 0.1040(4)
C75_4 C 0.6891(2) 0.1046(6) 0.1137(3)
H51_4 H 0.6895 0.0168 0.1116
H52_4 H 0.7062 0.1364 0.0979
C76_4 C 0.7131(3) 0.1406(9) 0.1658(4)
O22_4 O 0.60779(18) 0.9026(4) 0.20545(18)
O29_4 O 0.49187(15) 0.8961(4) 0.15703(16)
O32_4 O 0.64381(13) 0.1448(3) 0.08875(17)
O33_4 O 0.7552(2) 0.1247(11) 0.1824(3)
O34_4 O 0.6913(2) 0.1691(6) 0.1864(2)
O35_4 O 0.69850(13) 0.5529(4) 0.09442(17)
C3_4 C 0.3932(2) 0.1513(6) 0.8340(3)
C4_4 C 0.3980(3) 0.2756(6) 0.8364(3)
H3_4 H 0.4020 0.3172 0.8129
C5_4 C 0.3968(3) 0.3388(6) 0.8736(3)
H4_4 H 0.3999 0.4227 0.8746
C6_4 C 0.39103(19) 0.2815(5) 0.9091(2)
C7_4 C 0.3873(2) 0.1586(5) 0.9062(2)
H5_4 H 0.3839 0.1173 0.9300
C8_4 C 0.3885(2) 0.0915(6) 0.8698(2)
H6_4 H 0.3860 0.0074 0.8694
C9_4 C 0.39035(17) 0.3507(5) 0.9507(2)
H7_4 H 0.3652 0.3179 0.9555
C10_4 C 0.43278(17) 0.3279(4) 0.9962(2)
C11_4 C 0.47162(18) 0.2831(4) 0.9959(2)
H8_4 H 0.4716 0.2671 0.9670
C21_4 C 0.54508(18) 0.1816(5) 0.9849(2)
C22_4 C 0.5361(2) 0.0628(5) 0.9689(2)
H15_4 H 0.5379 0.0017 0.9900
C23_4 C 0.5243(2) 0.0325(6) 0.9220(3)
C24_4 C 0.52190(19) 0.1205(6) 0.8904(2)
C25_4 C 0.5315(2) 0.2374(5) 0.9052(2)
H17_4 H 0.5302 0.2975 0.8840
C26_4 C 0.5432(2) 0.2674(5) 0.9521(3)
H18_4 H 0.5499 0.3477 0.9616
C29_4 C 0.38100(17) 0.4862(5) 0.9406(2)
C30_4 C 0.41481(17) 0.5718(5) 0.9523(2)
H21_4 H 0.4444 0.5448 0.9667
C31_4 C 0.40750(17) 0.6945(5) 0.9442(2)
C32_4 C 0.36311(19) 0.7323(5) 0.9203(2)
C33_4 C 0.32800(19) 0.6503(5) 0.9076(2)
H22_4 H 0.2984 0.6767 0.8916
C34_4 C 0.33734(19) 0.5285(5) 0.9188(2)
C35_4 C 0.2728(2) 0.4687(8) 0.9273(3)
H23_4 H 0.2717 0.5550 0.9327
H24_4 H 0.2847 0.4281 0.9576
C36_4 C 0.2252(2) 0.4221(8) 0.8960(4)
C37_4 C 0.3109(2) 0.8954(6) 0.8863(3)
H25_4 H 0.3105 0.9832 0.8884
H26_4 H 0.2938 0.8636 0.9021
C38_4 C 0.2869(3) 0.8594(9) 0.8342(4)
O1_4 O 0.37250(17) 0.0130(5) 0.71007(18)
O3_4 O 0.39221(18) 0.0974(4) 0.79455(18)
O10_4 O 0.50813(15) 0.1039(4) 0.84297(16)
O13_4 O 0.35619(13) 0.8552(3) 0.91125(17)
O14_4 O 0.2448(2) 0.8753(11) 0.8176(3)
O15_4 O 0.3087(2) 0.8309(6) 0.8136(2)
O16_4 O 0.30150(13) 0.4471(4) 0.90558(17)
C50_4 C 0.48940(17) 0.7390(5) 0.9632(2)
C51_4 C 0.49110(19) 0.7192(5) 0.9211(2)
C52_4 C 0.52940(19) 0.6738(5) 0.9187(2)
H35_4 H 0.5298 0.6619 0.8897
C53_4 C 0.56701(19) 0.6468(5) 0.9606(2)
C54_4 C 0.6093(2) 0.5674(6) 0.9209(2)
H36_4 H 0.6308 0.5022 0.9270
H37_4 H 0.5804 0.5392 0.8974
C55_4 C 0.6241(2) 0.6768(7) 0.9014(3)
C56_4 C 0.4324(2) 0.6575(7) 0.8477(3)
H38_4 H 0.4384 0.5821 0.8652
H39_4 H 0.4002 0.6709 0.8338
C57_4 C 0.4460(3) 0.6417(7) 0.8082(3)
C58_4 C 0.44618(17) 0.7858(5) 0.9652(2)
H40_4 H 0.4368 0.8599 0.9462
O23_4 O 0.60594(14) 0.5953(4) 0.96323(15)
O26_4 O 0.45355(14) 0.7526(4) 0.88011(15)
O27_4 O 0.4275(2) 0.5528(5) 0.7818(2)
O28_4 O 0.47215(15) 0.7159(4) 0.80385(16)
C1_4 C 0.37487(19) 0.9350(7) 0.7399(3)
C2_4 C 0.3843(2) 0.9718(6) 0.7894(2)
H1_4 H 0.3588 0.9515 0.7954
H2_4 H 0.4104 0.9286 0.8120
H16_4 H 0.5181 0.9523 0.9122
C27_4 C 0.50567(19) 0.9844(5) 0.8247(2)
H19_4 H 0.4841 0.9841 0.7917
H20_4 H 0.4946 0.9298 0.8413
C28_4 C 0.5498(2) 0.9375(5) 0.8289(2)
O2_4 O 0.36940(17) 0.8227(4) 0.73034(18)
O38_3 O 0.05170(18) 0.0652(4) 0.78911(18)
H79_3 H 0.0457732 0.994034 0.767942
O19_3 O 0.94830(18) 0.0652(4) 0.71089(18)
H79_4 H 0.954227 0.994034 0.732058
O19_4 O 0.44830(18) 0.5652(4) 0.71089(18)
O38_4 O 0.55170(18) 0.5652(4) 0.78911(18)
C77 C 0.0535(4) 0.7592(10) 0.7580(5)
H53 H 0.0487 0.7461 0.7261
H54 H 0.0379 0.6981 0.7667
H55 H 0.0423 0.8378 0.7605
C78 C 0.1099(6) 0.7722(11) 0.8379(5)
H56 H 0.1415 0.7679 0.8587
H57 H 0.0987 0.8508 0.8404
H58 H 0.0943 0.7111 0.8466
N1 N 0.1029(3) 0.7525(6) 0.7902(3)
H59 H 0.1135 0.6800 0.7878
H60 H 0.1175 0.8085 0.7821
C77_2 C 0.9465(4) 0.7592(10) 0.7420(5)
H53_2 H 0.9513 0.7461 0.7739
H54_2 H 0.9621 0.6981 0.7333
H55_2 H 0.9577 0.8378 0.7395
C78_2 C 0.8901(6) 0.7722(11) 0.6621(5)
H56_2 H 0.8585 0.7679 0.6413
H57_2 H 0.9013 0.8508 0.6596
H58_2 H 0.9057 0.7111 0.6534
N1_2 N 0.8971(3) 0.7525(6) 0.7098(3)
H59_2 H 0.8865 0.6800 0.7122
H60_2 H 0.8825 0.8085 0.7179
C77_3 C 0.5535(4) 0.2592(10) 0.7580(5)
H53_3 H 0.5487 0.2461 0.7261
H54_3 H 0.5379 0.1981 0.7667
H55_3 H 0.5423 0.3378 0.7605
C78_3 C 0.6099(6) 0.2722(11) 0.8379(5)
H56_3 H 0.6415 0.2679 0.8587
H57_3 H 0.5987 0.3508 0.8404
H58_3 H 0.5943 0.2111 0.8466
N1_3 N 0.6029(3) 0.2525(6) 0.7902(3)
H59_3 H 0.6135 0.1800 0.7878
H60_3 H 0.6175 0.3085 0.7821
C77_4 C 0.4465(4) 0.2592(10) 0.7420(5)
H53_4 H 0.4513 0.2461 0.7739
H54_4 H 0.4621 0.1981 0.7333
H55_4 H 0.4577 0.3378 0.7395
C78_4 C 0.3901(6) 0.2722(11) 0.6621(5)
H56_4 H 0.3585 0.2679 0.6413
H57_4 H 0.4013 0.3508 0.6596
H58_4 H 0.4057 0.2111 0.6534
N1_4 N 0.3971(3) 0.2525(6) 0.7098(3)
H59_4 H 0.3865 0.1800 0.7122
H60_4 H 0.3825 0.3085 0.7179
C77_5 C 0.9465(4) 0.2408(10) 0.2420(5)
H53_5 H 0.9513 0.2539 0.2739
H54_5 H 0.9621 0.3019 0.2333
H55_5 H 0.9577 0.1622 0.2395
C78_5 C 0.8901(6) 0.2278(11) 0.1621(5)
H56_5 H 0.8585 0.2321 0.1413
H57_5 H 0.9013 0.1492 0.1596
H58_5 H 0.9057 0.2889 0.1534
N1_5 N 0.8971(3) 0.2475(6) 0.2098(3)
H59_5 H 0.8865 0.3200 0.2122
H60_5 H 0.8825 0.1915 0.2179
C77_6 C 0.0535(4) 0.2408(10) 0.2580(5)
H53_6 H 0.0487 0.2539 0.2261
H54_6 H 0.0379 0.3019 0.2667
H55_6 H 0.0423 0.1622 0.2605
C78_6 C 0.1099(6) 0.2278(11) 0.3379(5)
H56_6 H 0.1415 0.2321 0.3587
H57_6 H 0.0987 0.1492 0.3404
H58_6 H 0.0943 0.2889 0.3466
N1_6 N 0.1029(3) 0.2475(6) 0.2902(3)
H59_6 H 0.1135 0.3200 0.2878
H60_6 H 0.1175 0.1915 0.2821
C77_7 C 0.4465(4) 0.7408(10) 0.2420(5)
H53_7 H 0.4513 0.7539 0.2739
H54_7 H 0.4621 0.8019 0.2333
H55_7 H 0.4577 0.6622 0.2395
C78_7 C 0.3901(6) 0.7278(11) 0.1621(5)
H56_7 H 0.3585 0.7321 0.1413
H57_7 H 0.4013 0.6492 0.1596
H58_7 H 0.4057 0.7889 0.1534
N1_7 N 0.3971(3) 0.7475(6) 0.2098(3)
H59_7 H 0.3865 0.8200 0.2122
H60_7 H 0.3825 0.6915 0.2179
C77_8 C 0.5535(4) 0.7408(10) 0.2580(5)
H53_8 H 0.5487 0.7539 0.2261
H54_8 H 0.5379 0.8019 0.2667
H55_8 H 0.5423 0.6622 0.2605
C78_8 C 0.6099(6) 0.7278(11) 0.3379(5)
H56_8 H 0.6415 0.7321 0.3587
H57_8 H 0.5987 0.6492 0.3404
H58_8 H 0.5943 0.7889 0.3466
N1_8 N 0.6029(3) 0.7475(6) 0.2902(3)
H59_8 H 0.6135 0.8200 0.2878
H60_8 H 0.6175 0.6915 0.2821
H64 H 0.2639 0.0272 0.7222
C79 C 0.2223(5) 0.7524(17) 0.6965(5)
H61 H 0.2369 0.6762 0.6982
H62 H 0.2074 0.7501 0.7165
H63 H 0.2005 0.7672 0.6645
C80 C 0.2390(8) 0.9716(15) 0.7114(5)
H65 H 0.2178 0.9928 0.6800
H66 H 0.2246 0.9758 0.7320
N2 N 0.2554(4) 0.8485(12) 0.7117(4)
H67 H 0.2695 0.8473 0.6934
H68 H 0.2757 0.8317 0.7409
H64_2 H 0.7361 0.0272 0.7778
C79_2 C 0.7777(5) 0.7524(17) 0.8035(5)
H61_2 H 0.7631 0.6762 0.8018
H62_2 H 0.7926 0.7501 0.7835
H63_2 H 0.7995 0.7672 0.8355
C80_2 C 0.7610(8) 0.9716(15) 0.7886(5)
H65_2 H 0.7822 0.9928 0.8200
H66_2 H 0.7754 0.9758 0.7680
N2_2 N 0.7446(4) 0.8485(12) 0.7883(4)
H67_2 H 0.7305 0.8473 0.8066
H68_2 H 0.7243 0.8317 0.7591
C79_3 C 0.7223(5) 0.2524(17) 0.6965(5)
H61_3 H 0.7369 0.1762 0.6982
H62_3 H 0.7074 0.2501 0.7165
H63_3 H 0.7005 0.2672 0.6645
C80_3 C 0.7390(8) 0.4716(15) 0.7114(5)
H64_3 H 0.7639 0.5272 0.7222
H65_3 H 0.7178 0.4928 0.6800
H66_3 H 0.7246 0.4758 0.7320
N2_3 N 0.7554(4) 0.3485(12) 0.7117(4)
H67_3 H 0.7695 0.3473 0.6934
H68_3 H 0.7757 0.3317 0.7409
C79_4 C 0.2777(5) 0.2524(17) 0.8035(5)
H61_4 H 0.2631 0.1762 0.8018
H62_4 H 0.2926 0.2501 0.7835
H63_4 H 0.2995 0.2672 0.8355
C80_4 C 0.2610(8) 0.4716(15) 0.7886(5)
H64_4 H 0.2361 0.5272 0.7778
H65_4 H 0.2822 0.4928 0.8200
H66_4 H 0.2754 0.4758 0.7680
N2_4 N 0.2446(4) 0.3485(12) 0.7883(4)
H67_4 H 0.2305 0.3473 0.8066
H68_4 H 0.2243 0.3317 0.7591
C79_5 C 0.7777(5) 0.2476(17) 0.3035(5)
H61_5 H 0.7631 0.3238 0.3018
H62_5 H 0.7926 0.2499 0.2835
H63_5 H 0.7995 0.2328 0.3355
C80_5 C 0.7610(8) 0.0284(15) 0.2886(5)
H65_5 H 0.7822 0.0072 0.3200
H66_5 H 0.7754 0.0242 0.2680
N2_5 N 0.7446(4) 0.1515(12) 0.2883(4)
H67_5 H 0.7305 0.1527 0.3066
H68_5 H 0.7243 0.1683 0.2591
H64_5 H 0.7361 0.9728 0.2778
C79_6 C 0.2223(5) 0.2476(17) 0.1965(5)
H61_6 H 0.2369 0.3238 0.1982
H62_6 H 0.2074 0.2499 0.2165
H63_6 H 0.2005 0.2328 0.1645
C80_6 C 0.2390(8) 0.0284(15) 0.2114(5)
H65_6 H 0.2178 0.0072 0.1800
H66_6 H 0.2246 0.0242 0.2320
N2_6 N 0.2554(4) 0.1515(12) 0.2117(4)
H67_6 H 0.2695 0.1527 0.1934
H68_6 H 0.2757 0.1683 0.2409
H64_6 H 0.2639 0.9728 0.2222
C79_7 C 0.2777(5) 0.7476(17) 0.3035(5)
H61_7 H 0.2631 0.8238 0.3018
H62_7 H 0.2926 0.7499 0.2835
H63_7 H 0.2995 0.7328 0.3355
C80_7 C 0.2610(8) 0.5284(15) 0.2886(5)
H64_7 H 0.2361 0.4728 0.2778
H65_7 H 0.2822 0.5072 0.3200
H66_7 H 0.2754 0.5242 0.2680
N2_7 N 0.2446(4) 0.6515(12) 0.2883(4)
H67_7 H 0.2305 0.6527 0.3066
H68_7 H 0.2243 0.6683 0.2591
C79_8 C 0.7223(5) 0.7476(17) 0.1965(5)
H61_8 H 0.7369 0.8238 0.1982
H62_8 H 0.7074 0.7499 0.2165
H63_8 H 0.7005 0.7328 0.1645
C80_8 C 0.7390(8) 0.5284(15) 0.2114(5)
H64_8 H 0.7639 0.4728 0.2222
H65_8 H 0.7178 0.5072 0.1800
H66_8 H 0.7246 0.5242 0.2320
N2_8 N 0.7554(4) 0.6515(12) 0.2117(4)
H67_8 H 0.7695 0.6527 0.1934
H68_8 H 0.7757 0.6683 0.2409
C81 C 0.3470(5) 0.1411(13) 0.5337(5)
H69 H 0.3427 0.1744 0.5595
H70 H 0.3746 0.1715 0.5347
H71 H 0.3223 0.1644 0.5045
N3 N 0.3490(4) 0.0123(11) 0.5373(4)
C82 C 0.3551(5) 0.9467(14) 0.5032(5)
H72 H 0.3558 0.8617 0.5100
H73 H 0.3307 0.9629 0.4728
H74 H 0.3830 0.9700 0.5030
H75 H 0.3714 0.9933 0.5651
H76 H 0.3236 0.9868 0.5375
C81_2 C 0.6530(5) 0.1411(13) 0.9663(5)
H69_2 H 0.6573 0.1744 0.9405
H70_2 H 0.6254 0.1715 0.9653
H71_2 H 0.6777 0.1644 0.9955
N3_2 N 0.6510(4) 0.0123(11) 0.9627(4)
H73_2 H 0.6693 0.9629 0.0272
C82_2 C 0.6449(5) 0.9467(14) 0.9968(5)
H72_2 H 0.6442 0.8617 0.9900
H74_2 H 0.6170 0.9700 0.9970
H75_2 H 0.6286 0.9933 0.9349
H76_2 H 0.6764 0.9868 0.9625
C81_3 C 0.8470(5) 0.6411(13) 0.5337(5)
H69_3 H 0.8427 0.6744 0.5595
H70_3 H 0.8746 0.6715 0.5347
H71_3 H 0.8223 0.6644 0.5045
C82_3 C 0.8551(5) 0.4467(14) 0.5032(5)
H72_3 H 0.8558 0.3617 0.5100
H73_3 H 0.8307 0.4629 0.4728
H74_3 H 0.8830 0.4700 0.5030
N3_3 N 0.8490(4) 0.5123(11) 0.5373(4)
H75_3 H 0.8714 0.4933 0.5651
H76_3 H 0.8236 0.4868 0.5375
H73_4 H 0.1693 0.4629 0.0272
C81_4 C 0.1530(5) 0.6411(13) 0.9663(5)
H69_4 H 0.1573 0.6744 0.9405
H70_4 H 0.1254 0.6715 0.9653
H71_4 H 0.1777 0.6644 0.9955
C82_4 C 0.1449(5) 0.4467(14) 0.9968(5)
H72_4 H 0.1442 0.3617 0.9900
H74_4 H 0.1170 0.4700 0.9970
N3_4 N 0.1510(4) 0.5123(11) 0.9627(4)
H75_4 H 0.1286 0.4933 0.9349
H76_4 H 0.1764 0.4868 0.9625
C82_5 C 0.6449(5) 0.0533(14) 0.4968(5)
H72_5 H 0.6442 0.1383 0.4900
H73_5 H 0.6693 0.0371 0.5272
H74_5 H 0.6170 0.0300 0.4970
H75_5 H 0.6286 0.0067 0.4349
H76_5 H 0.6764 0.0132 0.4625
C81_5 C 0.6530(5) 0.8589(13) 0.4663(5)
H69_5 H 0.6573 0.8256 0.4405
H70_5 H 0.6254 0.8285 0.4653
H71_5 H 0.6777 0.8356 0.4955
N3_5 N 0.6510(4) 0.9877(11) 0.4627(4)
C82_6 C 0.3551(5) 0.0533(14) 0.0032(5)
H72_6 H 0.3558 0.1383 0.0100
H74_6 H 0.3830 0.0300 0.0030
H75_6 H 0.3714 0.0067 0.0651
H76_6 H 0.3236 0.0132 0.0375
H73_6 H 0.3307 0.0371 0.9728
C81_6 C 0.3470(5) 0.8589(13) 0.0337(5)
H69_6 H 0.3427 0.8256 0.0595
H70_6 H 0.3746 0.8285 0.0347
H71_6 H 0.3223 0.8356 0.0045
N3_6 N 0.3490(4) 0.9877(11) 0.0373(4)
C81_7 C 0.1530(5) 0.3589(13) 0.4663(5)
H69_7 H 0.1573 0.3256 0.4405
H70_7 H 0.1254 0.3285 0.4653
H71_7 H 0.1777 0.3356 0.4955
C82_7 C 0.1449(5) 0.5533(14) 0.4968(5)
H72_7 H 0.1442 0.6383 0.4900
H73_7 H 0.1693 0.5371 0.5272
H74_7 H 0.1170 0.5300 0.4970
N3_7 N 0.1510(4) 0.4877(11) 0.4627(4)
H75_7 H 0.1286 0.5067 0.4349
H76_7 H 0.1764 0.5132 0.4625
C81_8 C 0.8470(5) 0.3589(13) 0.0337(5)
H69_8 H 0.8427 0.3256 0.0595
H70_8 H 0.8746 0.3285 0.0347
H71_8 H 0.8223 0.3356 0.0045
C82_8 C 0.8551(5) 0.5533(14) 0.0032(5)
H72_8 H 0.8558 0.6383 0.0100
H74_8 H 0.8830 0.5300 0.0030
N3_8 N 0.8490(4) 0.4877(11) 0.0373(4)
H75_8 H 0.8714 0.5067 0.0651
H76_8 H 0.8236 0.5132 0.0375
H73_8 H 0.8307 0.5371 0.9728
loop_
_geom_bond_atom_site_label_1
_geom_bond_atom_site_label_2
_geom_bond_site_symmetry_1
_geom_bond_site_symmetry_2
H21 C30 1_555 1_555
C31 C30 1_555 1_555
C32 C31 1_555 1_555
C33 C32 1_555 1_555
H22 C33 1_555 1_555
C37 H25 1_555 1_555
H26 C37 1_555 1_555
C38 C37 1_555 1_555
O13 C32 1_555 1_555
O14 C38 1_555 1_555
O15 C38 1_555 1_555
C51 C50 1_555 1_555
C56 H38 1_555 1_555
H39 C56 1_555 1_555
C57 C56 1_555 1_555
C58 C31 1_555 1_555
H40 C58 1_555 1_555
C59 C58 1_555 1_555
C60 C59 1_555 1_555
H41 C60 1_555 1_555
C61 C60 1_555 1_555
H42 C61 1_555 1_555
C62 C61 1_555 1_555
C63 C62 1_555 1_555
H43 C63 1_555 1_555
C64 C59 1_555 1_555
H44 C64 1_555 1_555
C66 C65 1_555 1_555
O26 C51 1_555 1_555
O27 C57 1_555 1_555
O28 C57 1_555 1_555
O29 C62 1_555 1_555
O30 C66 1_555 1_555
O31 C66 1_555 1_555
Cd4 O30 1_555 1_555
Cd6 O28 1_555 1_555
Cd11 O30 1_555 1_555
C33 C34 1_555 1_555
C37 O13 1_555 1_555
C50 C58 1_555 1_555
C56 O26 1_555 1_555
C63 C64 1_555 1_555
C65 O29 1_555 1_555
O31 Cd11 1_555 1_555
Cd2 O1 1_555 1_555
C1 C2 1_555 1_555
C2 H1 1_555 1_555
H2 C2 1_555 1_555
C3 C4 1_555 1_555
C4 H3 1_555 1_555
C5 C4 1_555 1_555
H4 C5 1_555 1_555
C6 C5 1_555 1_555
C7 C6 1_555 1_555
H5 C7 1_555 1_555
C8 C3 1_555 1_555
H6 C8 1_555 1_555
C9 C6 1_555 1_555
H7 C9 1_555 1_555
C10 C9 1_555 1_555
C11 C10 1_555 1_555
H8 C11 1_555 1_555
H9 C14 1_555 1_555
C15 C10 1_555 1_555
C16 H10 1_555 1_555
H11 C16 1_555 1_555
C17 C16 1_555 1_555
C29 C9 1_555 1_555
H24 C35 1_555 1_555
C36 C35 1_555 1_555
O1 C1 1_555 1_555
O2 Cd2 1_555 1_555
O3 C2 1_555 1_555
O4 C15 1_555 1_555
O5 C17 1_555 1_555
O6 C17 1_555 1_555
O17 C36 1_555 1_555
O18 C36 1_555 1_555
O19 Cd4 1_555 1_555
Cd11 O5 1_555 1_555
Cd9 O17 1_555 1_555
O39 Cd11 1_555 1_555
O40 Cd11 1_555 1_555
O41 Cd2 1_555 1_555
O42 Cd2 1_555 1_555
O43 Cd4 1_555 1_555
O44 Cd2 1_555 1_555
O47 Cd2 1_555 1_555
O49 Cd2 1_555 1_555
O50 Cd11 1_555 1_555
O51 Cd2 1_555 1_555
O52 Cd11 1_555 1_555
C1 O2 1_555 1_555
C3 O3 1_555 1_555
C7 C8 1_555 1_555
C14 C15 1_555 1_555
C16 O4 1_555 1_555
C35 O16 1_555 1_555
O6 Cd11 1_555 1_555
O18 Cd9 1_555 1_555
Cd6 O44 1_555 1_555
C39 C40 1_555 1_555
C40 H27 1_555 1_555
H28 C40 1_555 1_555
C41 C42 1_555 1_555
C42 H29 1_555 1_555
C43 C42 1_555 1_555
H30 C43 1_555 1_555
C44 C43 1_555 1_555
C45 C44 1_555 1_555
H31 C45 1_555 1_555
C46 C41 1_555 1_555
H32 C46 1_555 1_555
C47 C44 1_555 1_555
H33 C47 1_555 1_555
C48 C47 1_555 1_555
C49 C48 1_555 1_555
H34 C49 1_555 1_555
H35 C52 1_555 1_555
C53 C48 1_555 1_555
C54 H36 1_555 1_555
H37 C54 1_555 1_555
C55 C54 1_555 1_555
C67 C47 1_555 1_555
H50 C73 1_555 1_555
C74 C73 1_555 1_555
O20 C39 1_555 1_555
O21 C39 1_555 1_555
O22 C40 1_555 1_555
O23 C53 1_555 1_555
O24 C55 1_555 1_555
O25 C55 1_555 1_555
O36 C74 1_555 1_555
O37 C74 1_555 1_555
Cd8 O24 1_555 1_555
Cd10 O20 1_555 1_555
Cd12 O36 1_555 1_555
C41 O22 1_555 1_555
C45 C46 1_555 1_555
C52 C53 1_555 1_555
C54 O23 1_555 1_555
C73 O35 1_555 1_555
O21 Cd10 1_555 1_555
O25 Cd8 1_555 1_555
O37 Cd12 1_555 1_555
Cd4_2 O9 1_555 1_555
C13 C12 1_555 1_555
C18 H12 1_555 1_555
H13 C18 1_555 1_555
C19 C18 1_555 1_555
C20 C12 1_555 1_555
H14 C20 1_555 1_555
C21 C20 1_555 1_555
C22 C21 1_555 1_555
H15 C22 1_555 1_555
C23 C22 1_555 1_555
H16 C23 1_555 1_555
C24 C23 1_555 1_555
C25 C24 1_555 1_555
H17 C25 1_555 1_555
C26 C21 1_555 1_555
H18 C26 1_555 1_555
C28 C27 1_555 1_555
O7 C13 1_555 1_555
O8 C19 1_555 1_555
O9 C19 1_555 1_555
O10 C24 1_555 1_555
O11 C28 1_555 1_555
O12 C28 1_555 1_555
H47 C68 1_555 1_555
C69 C20 1_555 1_555
C70 C69 1_555 1_555
C71 C70 1_555 1_555
H48 C71 1_555 1_555
C75 H51 1_555 1_555
H52 C75 1_555 1_555
C76 C75 1_555 1_555
O32 C70 1_555 1_555
O33 C76 1_555 1_555
O34 C76 1_555 1_555
O38 Cd4_2 1_555 1_555
Cd6_2 O11 1_555 1_555
Cd8 O11 1_555 1_555
O46 Cd4_2 1_555 1_555
C18 O7 1_555 1_555
C25 C26 1_555 1_555
C27 O10 1_555 1_555
O12 Cd8 1_555 1_555
C68 C69 1_555 1_555
C71 C72 1_555 1_555
C75 O32 1_555 1_555
C39_2 C40_2 1_555 1_555
C40_2 H27_2 1_555 1_555
H28_2 C40_2 1_555 1_555
C41_2 C42_2 1_555 1_555
C42_2 H29_2 1_555 1_555
C43_2 C42_2 1_555 1_555
H30_2 C43_2 1_555 1_555
C44_2 C43_2 1_555 1_555
C45_2 C44_2 1_555 1_555
H31_2 C45_2 1_555 1_555
C46_2 C41_2 1_555 1_555
H32_2 C46_2 1_555 1_555
C47_2 C44_2 1_555 1_555
H33_2 C47_2 1_555 1_555
C48_2 C47_2 1_555 1_555
C49_2 C48_2 1_555 1_555
H34_2 C49_2 1_555 1_555
C67_2 C47_2 1_555 1_555
H50_2 C73_2 1_555 1_555
C74_2 C73_2 1_555 1_555
O39 C39_2 1_555 1_555
O40 C39_2 1_555 1_555
O22_2 C40_2 1_555 1_555
O36_2 C74_2 1_555 1_555
O37_2 C74_2 1_555 1_555
Cd12_2 O36_2 1_555 1_555
C41_2 O22_2 1_555 1_555
C45_2 C46_2 1_555 1_555
C73_2 O35_2 1_555 1_555
O37_2 Cd12_2 1_555 1_555
H35_2 C52_2 1_555 1_555
C54_2 H36_2 1_555 1_555
H37_2 C54_2 1_555 1_555
C55_2 C54_2 1_555 1_555
O23_2 C53_2 1_555 1_555
O41 C55_2 1_555 1_555
O42 C55_2 1_555 1_555
C52_2 C53_2 1_555 1_555
C54_2 O23_2 1_555 1_555
C13_2 C12_2 1_555 1_555
C18_2 H12_2 1_555 1_555
H13_2 C18_2 1_555 1_555
C19_2 C18_2 1_555 1_555
C20_2 C12_2 1_555 1_555
H14_2 C20_2 1_555 1_555
O7_2 C13_2 1_555 1_555
O8_2 C19_2 1_555 1_555
O43 C19_2 1_555 1_555
H47_2 C68_2 1_555 1_555
C69_2 C20_2 1_555 1_555
C70_2 C69_2 1_555 1_555
C71_2 C70_2 1_555 1_555
H48_2 C71_2 1_555 1_555
C75_2 H51_2 1_555 1_555
H52_2 C75_2 1_555 1_555
C76_2 C75_2 1_555 1_555
O32_2 C70_2 1_555 1_555
O33_2 C76_2 1_555 1_555
O34_2 C76_2 1_555 1_555
C18_2 O7_2 1_555 1_555
C68_2 C69_2 1_555 1_555
C71_2 C72_2 1_555 1_555
C75_2 O32_2 1_555 1_555
C22_2 C21_2 1_555 1_555
H15_2 C22_2 1_555 1_555
C23_2 C22_2 1_555 1_555
H16_2 C23_2 1_555 1_555
C24_2 C23_2 1_555 1_555
C25_2 C24_2 1_555 1_555
H17_2 C25_2 1_555 1_555
C26_2 C21_2 1_555 1_555
H18_2 C26_2 1_555 1_555
C28_2 C27_2 1_555 1_555
O10_2 C24_2 1_555 1_555
O44 C28_2 1_555 1_555
O47 C28_2 1_555 1_555
C25_2 C26_2 1_555 1_555
C27_2 O10_2 1_555 1_555
C60_2 C59_2 1_555 1_555
H41_2 C60_2 1_555 1_555
C61_2 C60_2 1_555 1_555
H42_2 C61_2 1_555 1_555
C62_2 C61_2 1_555 1_555
C63_2 C62_2 1_555 1_555
H43_2 C63_2 1_555 1_555
C64_2 C59_2 1_555 1_555
H44_2 C64_2 1_555 1_555
C66_2 C65_2 1_555 1_555
O29_2 C62_2 1_555 1_555
O46 C66_2 1_555 1_555
O31_2 C66_2 1_555 1_555
Cd10 O46 1_555 1_555
C63_2 C64_2 1_555 1_555
C65_2 O29_2 1_555 1_555
O31_2 Cd10 1_555 1_555
H21_2 C30_2 1_555 1_555
C31_2 C30_2 1_555 1_555
C32_2 C31_2 1_555 1_555
C33_2 C32_2 1_555 1_555
H22_2 C33_2 1_555 1_555
C37_2 H25_2 1_555 1_555
H26_2 C37_2 1_555 1_555
C38_2 C37_2 1_555 1_555
O13_2 C32_2 1_555 1_555
O14_2 C38_2 1_555 1_555
O15_2 C38_2 1_555 1_555
C51_2 C50_2 1_555 1_555
C56_2 H38_2 1_555 1_555
H39_2 C56_2 1_555 1_555
C57_2 C56_2 1_555 1_555
C58_2 C31_2 1_555 1_555
H40_2 C58_2 1_555 1_555
O26_2 C51_2 1_555 1_555
O27_2 C57_2 1_555 1_555
O28_2 C57_2 1_555 1_555
Cd6_2 O28_2 1_555 1_555
C33_2 C34_2 1_555 1_555
C37_2 O13_2 1_555 1_555
C50_2 C58_2 1_555 1_555
C56_2 O26_2 1_555 1_555
H9_2 C14_2 1_555 1_555
C16_2 H10_2 1_555 1_555
H11_2 C16_2 1_555 1_555
C17_2 C16_2 1_555 1_555
O4_2 C15_2 1_555 1_555
O5_2 C17_2 1_555 1_555
O6_2 C17_2 1_555 1_555
Cd10 O5_2 1_555 1_555
O50_2 Cd10 1_555 1_555
O52_2 Cd10 1_555 1_555
C14_2 C15_2 1_555 1_555
C16_2 O4_2 1_555 1_555
O6_2 Cd10 1_555 1_555
Cd8 O1_2 1_555 1_555
C1_2 C2_2 1_555 1_555
C2_2 H1_2 1_555 1_555
H2_2 C2_2 1_555 1_555
C3_2 C4_2 1_555 1_555
C4_2 H3_2 1_555 1_555
C5_2 C4_2 1_555 1_555
H4_2 C5_2 1_555 1_555
C6_2 C5_2 1_555 1_555
C7_2 C6_2 1_555 1_555
H5_2 C7_2 1_555 1_555
C8_2 C3_2 1_555 1_555
H6_2 C8_2 1_555 1_555
C9_2 C6_2 1_555 1_555
H7_2 C9_2 1_555 1_555
C10_2 C9_2 1_555 1_555
C11_2 C10_2 1_555 1_555
H8_2 C11_2 1_555 1_555
C29_2 C9_2 1_555 1_555
H24_2 C35_2 1_555 1_555
C36_2 C35_2 1_555 1_555
O1_2 C1_2 1_555 1_555
O2_2 Cd8 1_555 1_555
O3_2 C2_2 1_555 1_555
O17_2 C36_2 1_555 1_555
O18_2 C36_2 1_555 1_555
Cd9_2 O17_2 1_555 1_555
O49_2 Cd8 1_555 1_555
O51_2 Cd8 1_555 1_555
C1_2 O2_2 1_555 1_555
C3_2 O3_2 1_555 1_555
C7_2 C8_2 1_555 1_555
C35_2 O16_2 1_555 1_555
O18_2 Cd9_2 1_555 1_555
C39_3 C40_3 1_555 1_555
C40_3 H27_3 1_555 1_555
H28_3 C40_3 1_555 1_555
C65_3 H45_3 1_555 1_555
H46_3 C65_3 1_555 1_555
C66_3 C65_3 1_555 1_555
O21_2 C39_3 1_555 1_555
O30_2 C66_3 1_555 1_555
O31_3 C66_3 1_555 1_555
Cd4_3 O30_2 1_555 1_555
Cd12 O30_2 1_555 1_555
O21_2 Cd12_2 1_555 1_555
O31_3 Cd12 1_555 1_555
Cd4_3 O9_2 1_555 1_555
C3_3 C4_3 1_555 1_555
C4_3 H3_3 1_555 1_555
C5_3 C4_3 1_555 1_555
H4_3 C5_3 1_555 1_555
C6_3 C5_3 1_555 1_555
C7_3 C6_3 1_555 1_555
H5_3 C7_3 1_555 1_555
C8_3 C3_3 1_555 1_555
H6_3 C8_3 1_555 1_555
C9_3 C6_3 1_555 1_555
H7_3 C9_3 1_555 1_555
C10_3 C9_3 1_555 1_555
C11_3 C10_3 1_555 1_555
H8_3 C11_3 1_555 1_555
C12_3 C11_3 1_555 1_555
C13_3 C12_3 1_555 1_555
C14_3 C13_3 1_555 1_555
H9_3 C14_3 1_555 1_555
C15_3 C10_3 1_555 1_555
C16_3 H10_3 1_555 1_555
H11_3 C16_3 1_555 1_555
C17_3 C16_3 1_555 1_555
C18_3 H12_3 1_555 1_555
H13_3 C18_3 1_555 1_555
C19_3 C18_3 1_555 1_555
C20_3 C12_3 1_555 1_555
H14_3 C20_3 1_555 1_555
C21_3 C20_3 1_555 1_555
C22_3 C21_3 1_555 1_555
H15_3 C22_3 1_555 1_555
C23_3 C22_3 1_555 1_555
C24_3 C23_3 1_555 1_555
C25_3 C24_3 1_555 1_555
H17_3 C25_3 1_555 1_555
C26_3 C21_3 1_555 1_555
H18_3 C26_3 1_555 1_555
C29_3 C9_3 1_555 1_555
C30_3 C29_3 1_555 1_555
H21_3 C30_3 1_555 1_555
C31_3 C30_3 1_555 1_555
C32_3 C31_3 1_555 1_555
C33_3 C32_3 1_555 1_555
H22_3 C33_3 1_555 1_555
C34_3 C29_3 1_555 1_555
C35_3 H23_3 1_555 1_555
H24_3 C35_3 1_555 1_555
C36_3 C35_3 1_555 1_555
C37_3 H25_3 1_555 1_555
H26_3 C37_3 1_555 1_555
C38_3 C37_3 1_555 1_555
O4_3 C15_3 1_555 1_555
O5_3 C17_3 1_555 1_555
O6_3 C17_3 1_555 1_555
O7_3 C13_3 1_555 1_555
O8_3 C19_3 1_555 1_555
O9_2 C19_3 1_555 1_555
O10_3 C24_3 1_555 1_555
O13_3 C32_3 1_555 1_555
O14_3 C38_3 1_555 1_555
O15_3 C38_3 1_555 1_555
O16_3 C34_3 1_555 1_555
O49_2 C36_3 1_555 1_555
O51_2 C36_3 1_555 1_555
O19_2 Cd4_3 1_555 1_555
C41_3 C42_3 1_555 1_555
C42_3 H29_3 1_555 1_555
C43_3 C42_3 1_555 1_555
H30_3 C43_3 1_555 1_555
C44_3 C43_3 1_555 1_555
C45_3 C44_3 1_555 1_555
H31_3 C45_3 1_555 1_555
C46_3 C41_3 1_555 1_555
H32_3 C46_3 1_555 1_555
C47_3 C44_3 1_555 1_555
H33_3 C47_3 1_555 1_555
C48_3 C47_3 1_555 1_555
C49_3 C48_3 1_555 1_555
H34_3 C49_3 1_555 1_555
C50_3 C49_3 1_555 1_555
C51_3 C50_3 1_555 1_555
C52_3 C51_3 1_555 1_555
H35_3 C52_3 1_555 1_555
C53_3 C48_3 1_555 1_555
C54_3 H36_3 1_555 1_555
H37_3 C54_3 1_555 1_555
C55_3 C54_3 1_555 1_555
C56_3 H38_3 1_555 1_555
H39_3 C56_3 1_555 1_555
C57_3 C56_3 1_555 1_555
C58_3 C31_3 1_555 1_555
H40_3 C58_3 1_555 1_555
C59_3 C58_3 1_555 1_555
C60_3 C59_3 1_555 1_555
H41_3 C60_3 1_555 1_555
C61_3 C60_3 1_555 1_555
C62_3 C61_3 1_555 1_555
C63_3 C62_3 1_555 1_555
H43_3 C63_3 1_555 1_555
C64_3 C59_3 1_555 1_555
H44_3 C64_3 1_555 1_555
C67_3 C47_3 1_555 1_555
C68_3 C67_3 1_555 1_555
H47_3 C68_3 1_555 1_555
C69_3 C20_3 1_555 1_555
C70_3 C69_3 1_555 1_555
C71_3 C70_3 1_555 1_555
H48_3 C71_3 1_555 1_555
C72_3 C67_3 1_555 1_555
C73_3 H49_3 1_555 1_555
H50_3 C73_3 1_555 1_555
C74_3 C73_3 1_555 1_555
C75_3 H51_3 1_555 1_555
H52_3 C75_3 1_555 1_555
C76_3 C75_3 1_555 1_555
O23_3 C53_3 1_555 1_555
O24_2 C55_3 1_555 1_555
O25_2 C55_3 1_555 1_555
O26_3 C51_3 1_555 1_555
O27_3 C57_3 1_555 1_555
O28_3 C57_3 1_555 1_555
O29_3 C62_3 1_555 1_555
O32_3 C70_3 1_555 1_555
O33_3 C76_3 1_555 1_555
O34_3 C76_3 1_555 1_555
O35_3 C72_3 1_555 1_555
O50 C74_3 1_555 1_555
O52 C74_3 1_555 1_555
O38_2 Cd4_3 1_555 1_555
Cd12 O5_3 1_555 1_555
Cd6_3 O28_3 1_555 1_555
Cd9 O24_2 1_555 1_555
O40_2 Cd12 1_555 1_555
O43_2 Cd4_3 1_555 1_555
O46_2 Cd4_3 1_555 1_555
C3_3 O3_3 1_555 1_555
C7_3 C8_3 1_555 1_555
C14_3 C15_3 1_555 1_555
C16_3 O4_3 1_555 1_555
C18_3 O7_3 1_555 1_555
C25_3 C26_3 1_555 1_555
C33_3 C34_3 1_555 1_555
C35_3 O16_3 1_555 1_555
C37_3 O13_3 1_555 1_555
O6_3 Cd12 1_555 1_555
C41_3 O22_3 1_555 1_555
C45_3 C46_3 1_555 1_555
C50_3 C58_3 1_555 1_555
C52_3 C53_3 1_555 1_555
C54_3 O23_3 1_555 1_555
C56_3 O26_3 1_555 1_555
C63_3 C64_3 1_555 1_555
C68_3 C69_3 1_555 1_555
C71_3 C72_3 1_555 1_555
C73_3 O35_3 1_555 1_555
C75_3 O32_3 1_555 1_555
O25_2 Cd9 1_555 1_555
C1_3 C2_3 1_555 1_555
C2_3 H1_3 1_555 1_555
H2_3 C2_3 1_555 1_555
C27_3 H19_3 1_555 1_555
H20_3 C27_3 1_555 1_555
C28_3 C27_3 1_555 1_555
O2_3 Cd9_2 1_555 1_555
O11_2 C28_3 1_555 1_555
O12_2 C28_3 1_555 1_555
Cd6_3 O11_2 1_555 1_555
Cd9 O11_2 1_555 1_555
O41_2 Cd9_2 1_555 1_555
O42_2 Cd9_2 1_555 1_555
O44_2 Cd9_2 1_555 1_555
O47_2 Cd9_2 1_555 1_555
C1_3 O2_3 1_555 1_555
O12_2 Cd9 1_555 1_555
Cd6_3 O44_2 1_555 1_555
C39_4 C40_4 1_555 1_555
C40_4 H27_4 1_555 1_555
H28_4 C40_4 1_555 1_555
C65_4 H45_4 1_555 1_555
H46_4 C65_4 1_555 1_555
C66_4 C65_4 1_555 1_555
O40_2 C39_4 1_555 1_555
O46_2 C66_4 1_555 1_555
O31_4 C66_4 1_555 1_555
Cd12_2 O46_2 1_555 1_555
O31_4 Cd12_2 1_555 1_555
C13_4 C12_4 1_555 1_555
C14_4 C13_4 1_555 1_555
H9_4 C14_4 1_555 1_555
C16_4 H10_4 1_555 1_555
H11_4 C16_4 1_555 1_555
C17_4 C16_4 1_555 1_555
C18_4 H12_4 1_555 1_555
H13_4 C18_4 1_555 1_555
C19_4 C18_4 1_555 1_555
C20_4 C12_4 1_555 1_555
H14_4 C20_4 1_555 1_555
O4_4 C15_4 1_555 1_555
O5_4 C17_4 1_555 1_555
O6_4 C17_4 1_555 1_555
O7_4 C13_4 1_555 1_555
O8_4 C19_4 1_555 1_555
O43_2 C19_4 1_555 1_555
C41_4 C42_4 1_555 1_555
C42_4 H29_4 1_555 1_555
C43_4 C42_4 1_555 1_555
H30_4 C43_4 1_555 1_555
C44_4 C43_4 1_555 1_555
C45_4 C44_4 1_555 1_555
H31_4 C45_4 1_555 1_555
C46_4 C41_4 1_555 1_555
H32_4 C46_4 1_555 1_555
C47_4 C44_4 1_555 1_555
H33_4 C47_4 1_555 1_555
C48_4 C47_4 1_555 1_555
C49_4 C48_4 1_555 1_555
H34_4 C49_4 1_555 1_555
C60_4 C59_4 1_555 1_555
H41_4 C60_4 1_555 1_555
C61_4 C60_4 1_555 1_555
C62_4 C61_4 1_555 1_555
C63_4 C62_4 1_555 1_555
H43_4 C63_4 1_555 1_555
C64_4 C59_4 1_555 1_555
H44_4 C64_4 1_555 1_555
C67_4 C47_4 1_555 1_555
C68_4 C67_4 1_555 1_555
H47_4 C68_4 1_555 1_555
C69_4 C20_4 1_555 1_555
C70_4 C69_4 1_555 1_555
C71_4 C70_4 1_555 1_555
H48_4 C71_4 1_555 1_555
C72_4 C67_4 1_555 1_555
C73_4 H49_4 1_555 1_555
H50_4 C73_4 1_555 1_555
C74_4 C73_4 1_555 1_555
C75_4 H51_4 1_555 1_555
H52_4 C75_4 1_555 1_555
C76_4 C75_4 1_555 1_555
O29_4 C62_4 1_555 1_555
O32_4 C70_4 1_555 1_555
O33_4 C76_4 1_555 1_555
O34_4 C76_4 1_555 1_555
O35_4 C72_4 1_555 1_555
O50_2 C74_4 1_555 1_555
O52_2 C74_4 1_555 1_555
Cd12_2 O5_4 1_555 1_555
C14_4 C15_4 1_555 1_555
C16_4 O4_4 1_555 1_555
C18_4 O7_4 1_555 1_555
O6_4 Cd12_2 1_555 1_555
C41_4 O22_4 1_555 1_555
C45_4 C46_4 1_555 1_555
C63_4 C64_4 1_555 1_555
C68_4 C69_4 1_555 1_555
C71_4 C72_4 1_555 1_555
C73_4 O35_4 1_555 1_555
C75_4 O32_4 1_555 1_555
C3_4 C4_4 1_555 1_555
C4_4 H3_4 1_555 1_555
C5_4 C4_4 1_555 1_555
H4_4 C5_4 1_555 1_555
C6_4 C5_4 1_555 1_555
C7_4 C6_4 1_555 1_555
H5_4 C7_4 1_555 1_555
C8_4 C3_4 1_555 1_555
H6_4 C8_4 1_555 1_555
C9_4 C6_4 1_555 1_555
H7_4 C9_4 1_555 1_555
C10_4 C9_4 1_555 1_555
C11_4 C10_4 1_555 1_555
H8_4 C11_4 1_555 1_555
C22_4 C21_4 1_555 1_555
H15_4 C22_4 1_555 1_555
C23_4 C22_4 1_555 1_555
C24_4 C23_4 1_555 1_555
C25_4 C24_4 1_555 1_555
H17_4 C25_4 1_555 1_555
C26_4 C21_4 1_555 1_555
H18_4 C26_4 1_555 1_555
C29_4 C9_4 1_555 1_555
C30_4 C29_4 1_555 1_555
H21_4 C30_4 1_555 1_555
C31_4 C30_4 1_555 1_555
C32_4 C31_4 1_555 1_555
C33_4 C32_4 1_555 1_555
H22_4 C33_4 1_555 1_555
C34_4 C29_4 1_555 1_555
C35_4 H23_4 1_555 1_555
H24_4 C35_4 1_555 1_555
C36_4 C35_4 1_555 1_555
C37_4 H25_4 1_555 1_555
H26_4 C37_4 1_555 1_555
C38_4 C37_4 1_555 1_555
O10_4 C24_4 1_555 1_555
O13_4 C32_4 1_555 1_555
O14_4 C38_4 1_555 1_555
O15_4 C38_4 1_555 1_555
O16_4 C34_4 1_555 1_555
O49 C36_4 1_555 1_555
O51 C36_4 1_555 1_555
C51_4 C50_4 1_555 1_555
C52_4 C51_4 1_555 1_555
H35_4 C52_4 1_555 1_555
C54_4 H36_4 1_555 1_555
H37_4 C54_4 1_555 1_555
C55_4 C54_4 1_555 1_555
C56_4 H38_4 1_555 1_555
H39_4 C56_4 1_555 1_555
C57_4 C56_4 1_555 1_555
C58_4 C31_4 1_555 1_555
H40_4 C58_4 1_555 1_555
O23_4 C53_4 1_555 1_555
O41_2 C55_4 1_555 1_555
O42_2 C55_4 1_555 1_555
O26_4 C51_4 1_555 1_555
O27_4 C57_4 1_555 1_555
O28_4 C57_4 1_555 1_555
Cd6_3 O28_4 1_555 1_555
C3_4 O3_4 1_555 1_555
C7_4 C8_4 1_555 1_555
C25_4 C26_4 1_555 1_555
C33_4 C34_4 1_555 1_555
C35_4 O16_4 1_555 1_555
C37_4 O13_4 1_555 1_555
C50_4 C58_4 1_555 1_555
C52_4 C53_4 1_555 1_555
C54_4 O23_4 1_555 1_555
C56_4 O26_4 1_555 1_555
C1_4 C2_4 1_555 1_555
C2_4 H1_4 1_555 1_555
H2_4 C2_4 1_555 1_555
C27_4 H19_4 1_555 1_555
H20_4 C27_4 1_555 1_555
C28_4 C27_4 1_555 1_555
O2_4 Cd9 1_555 1_555
O44_2 C28_4 1_555 1_555
O47_2 C28_4 1_555 1_555
C1_4 O2_4 1_555 1_555
O38_3 Cd6 1_555 1_555
O19_3 Cd6_2 1_555 1_555
O19_4 Cd6_3 1_555 1_555
O38_4 Cd6_3 1_555 1_555
C77 H53 1_555 1_555
H54 C77 1_555 1_555
H55 C77 1_555 1_555
C78 H56 1_555 1_555
H57 C78 1_555 1_555
H58 C78 1_555 1_555
N1 C77 1_555 1_555
H59 N1 1_555 1_555
H60 N1 1_555 1_555
C78 N1 1_555 1_555
C77_2 H53_2 1_555 1_555
H54_2 C77_2 1_555 1_555
H55_2 C77_2 1_555 1_555
C78_2 H56_2 1_555 1_555
H57_2 C78_2 1_555 1_555
H58_2 C78_2 1_555 1_555
N1_2 C77_2 1_555 1_555
H59_2 N1_2 1_555 1_555
H60_2 N1_2 1_555 1_555
C78_2 N1_2 1_555 1_555
C77_3 H53_3 1_555 1_555
H54_3 C77_3 1_555 1_555
H55_3 C77_3 1_555 1_555
C78_3 H56_3 1_555 1_555
H57_3 C78_3 1_555 1_555
H58_3 C78_3 1_555 1_555
N1_3 C77_3 1_555 1_555
H59_3 N1_3 1_555 1_555
H60_3 N1_3 1_555 1_555
C78_3 N1_3 1_555 1_555
C77_4 H53_4 1_555 1_555
H54_4 C77_4 1_555 1_555
H55_4 C77_4 1_555 1_555
C78_4 H56_4 1_555 1_555
H57_4 C78_4 1_555 1_555
H58_4 C78_4 1_555 1_555
N1_4 C77_4 1_555 1_555
H59_4 N1_4 1_555 1_555
H60_4 N1_4 1_555 1_555
C78_4 N1_4 1_555 1_555
C77_5 H53_5 1_555 1_555
H54_5 C77_5 1_555 1_555
H55_5 C77_5 1_555 1_555
C78_5 H56_5 1_555 1_555
H57_5 C78_5 1_555 1_555
H58_5 C78_5 1_555 1_555
N1_5 C77_5 1_555 1_555
H59_5 N1_5 1_555 1_555
H60_5 N1_5 1_555 1_555
C78_5 N1_5 1_555 1_555
C77_6 H53_6 1_555 1_555
H54_6 C77_6 1_555 1_555
H55_6 C77_6 1_555 1_555
C78_6 H56_6 1_555 1_555
H57_6 C78_6 1_555 1_555
H58_6 C78_6 1_555 1_555
N1_6 C77_6 1_555 1_555
H59_6 N1_6 1_555 1_555
H60_6 N1_6 1_555 1_555
C78_6 N1_6 1_555 1_555
C77_7 H53_7 1_555 1_555
H54_7 C77_7 1_555 1_555
H55_7 C77_7 1_555 1_555
C78_7 H56_7 1_555 1_555
H57_7 C78_7 1_555 1_555
H58_7 C78_7 1_555 1_555
N1_7 C77_7 1_555 1_555
H59_7 N1_7 1_555 1_555
H60_7 N1_7 1_555 1_555
C78_7 N1_7 1_555 1_555
C77_8 H53_8 1_555 1_555
H54_8 C77_8 1_555 1_555
H55_8 C77_8 1_555 1_555
C78_8 H56_8 1_555 1_555
H57_8 C78_8 1_555 1_555
H58_8 C78_8 1_555 1_555
N1_8 C77_8 1_555 1_555
H59_8 N1_8 1_555 1_555
H60_8 N1_8 1_555 1_555
C78_8 N1_8 1_555 1_555
C79 H61 1_555 1_555
H62 C79 1_555 1_555
H63 C79 1_555 1_555
H65 C80 1_555 1_555
H66 C80 1_555 1_555
N2 C79 1_555 1_555
H67 N2 1_555 1_555
H68 N2 1_555 1_555
C80 N2 1_555 1_555
C79_2 H61_2 1_555 1_555
H62_2 C79_2 1_555 1_555
H63_2 C79_2 1_555 1_555
H65_2 C80_2 1_555 1_555
H66_2 C80_2 1_555 1_555
N2_2 C79_2 1_555 1_555
H67_2 N2_2 1_555 1_555
H68_2 N2_2 1_555 1_555
C80_2 N2_2 1_555 1_555
C79_3 H61_3 1_555 1_555
H62_3 C79_3 1_555 1_555
H63_3 C79_3 1_555 1_555
C80_3 H64_3 1_555 1_555
H65_3 C80_3 1_555 1_555
H66_3 C80_3 1_555 1_555
N2_3 C79_3 1_555 1_555
H67_3 N2_3 1_555 1_555
H68_3 N2_3 1_555 1_555
C80_3 N2_3 1_555 1_555
C79_4 H61_4 1_555 1_555
H62_4 C79_4 1_555 1_555
H63_4 C79_4 1_555 1_555
C80_4 H64_4 1_555 1_555
H65_4 C80_4 1_555 1_555
H66_4 C80_4 1_555 1_555
N2_4 C79_4 1_555 1_555
H67_4 N2_4 1_555 1_555
H68_4 N2_4 1_555 1_555
C80_4 N2_4 1_555 1_555
C79_5 H61_5 1_555 1_555
H62_5 C79_5 1_555 1_555
H63_5 C79_5 1_555 1_555
H65_5 C80_5 1_555 1_555
H66_5 C80_5 1_555 1_555
N2_5 C79_5 1_555 1_555
H67_5 N2_5 1_555 1_555
H68_5 N2_5 1_555 1_555
C80_5 N2_5 1_555 1_555
C79_6 H61_6 1_555 1_555
H62_6 C79_6 1_555 1_555
H63_6 C79_6 1_555 1_555
H65_6 C80_6 1_555 1_555
H66_6 C80_6 1_555 1_555
N2_6 C79_6 1_555 1_555
H67_6 N2_6 1_555 1_555
H68_6 N2_6 1_555 1_555
C80_6 N2_6 1_555 1_555
C79_7 H61_7 1_555 1_555
H62_7 C79_7 1_555 1_555
H63_7 C79_7 1_555 1_555
C80_7 H64_7 1_555 1_555
H65_7 C80_7 1_555 1_555
H66_7 C80_7 1_555 1_555
N2_7 C79_7 1_555 1_555
H67_7 N2_7 1_555 1_555
H68_7 N2_7 1_555 1_555
C80_7 N2_7 1_555 1_555
C79_8 H61_8 1_555 1_555
H62_8 C79_8 1_555 1_555
H63_8 C79_8 1_555 1_555
C80_8 H64_8 1_555 1_555
H65_8 C80_8 1_555 1_555
H66_8 C80_8 1_555 1_555
N2_8 C79_8 1_555 1_555
H67_8 N2_8 1_555 1_555
H68_8 N2_8 1_555 1_555
C80_8 N2_8 1_555 1_555
C81 H69 1_555 1_555
H70 C81 1_555 1_555
H71 C81 1_555 1_555
N3 C81 1_555 1_555
C82 H72 1_555 1_555
H73 C82 1_555 1_555
H74 C82 1_555 1_555
C81_2 H69_2 1_555 1_555
H70_2 C81_2 1_555 1_555
H71_2 C81_2 1_555 1_555
N3_2 C81_2 1_555 1_555
C82_2 H72_2 1_555 1_555
H74_2 C82_2 1_555 1_555
C81_3 H69_3 1_555 1_555
H70_3 C81_3 1_555 1_555
H71_3 C81_3 1_555 1_555
C82_3 H72_3 1_555 1_555
H73_3 C82_3 1_555 1_555
H74_3 C82_3 1_555 1_555
N3_3 C81_3 1_555 1_555
H75_3 N3_3 1_555 1_555
H76_3 N3_3 1_555 1_555
C82_3 N3_3 1_555 1_555
C81_4 H69_4 1_555 1_555
H70_4 C81_4 1_555 1_555
H71_4 C81_4 1_555 1_555
C82_4 H72_4 1_555 1_555
H74_4 C82_4 1_555 1_555
N3_4 C81_4 1_555 1_555
H75_4 N3_4 1_555 1_555
H76_4 N3_4 1_555 1_555
C82_4 N3_4 1_555 1_555
C82_5 H72_5 1_555 1_555
H73_5 C82_5 1_555 1_555
H74_5 C82_5 1_555 1_555
C81_5 H69_5 1_555 1_555
H70_5 C81_5 1_555 1_555
H71_5 C81_5 1_555 1_555
N3_5 C81_5 1_555 1_555
C82_6 H72_6 1_555 1_555
H74_6 C82_6 1_555 1_555
C81_6 H69_6 1_555 1_555
H70_6 C81_6 1_555 1_555
H71_6 C81_6 1_555 1_555
N3_6 C81_6 1_555 1_555
C81_7 H69_7 1_555 1_555
H70_7 C81_7 1_555 1_555
H71_7 C81_7 1_555 1_555
C82_7 H72_7 1_555 1_555
H73_7 C82_7 1_555 1_555
H74_7 C82_7 1_555 1_555
N3_7 C81_7 1_555 1_555
H75_7 N3_7 1_555 1_555
H76_7 N3_7 1_555 1_555
C82_7 N3_7 1_555 1_555
C81_8 H69_8 1_555 1_555
H70_8 C81_8 1_555 1_555
H71_8 C81_8 1_555 1_555
C82_8 H72_8 1_555 1_555
H74_8 C82_8 1_555 1_555
N3_8 C81_8 1_555 1_555
H75_8 N3_8 1_555 1_555
H76_8 N3_8 1_555 1_555
C82_8 N3_8 1_555 1_555

#END
