
###############################################################################
#
# This file contains modified crystal structure data generated from the
# MOF subset of the Cambridge Structural Database (CSD) v543 
# hosted by the Cambridge Crystallographic Data Centre (CCDC).
#
# This work is licensed under the Creative Commons
# Attribution-NonCommercial-ShareAlike 4.0 International License.
# To view a copy of this license, visit
# http://creativecommons.org/licenses/by-nc-sa/4.0/
# or send a letter to
# Creative Commons, PO Box 1866, Mountain View, CA 94042, USA.
#
# CIF created using the CSD Python API on 29 September 2022
# The structure has been converted into the P1 space group
# The structure has a 3D framework
# The original CSD entry UWEHAG is in the monoclinic crystal system
# The original CSD entry UWEHAG is in a Sohncke space group
# The framework has been calculated to contain at least 10.0% void space
# The void calculation uses a probe of radius 1.32A, grid spacing 0.4
# H atom positions have been added when not included in the experimental data
#
###############################################################################

data_UWEHAG
_chemical_formula_moiety         '(C76 H52 Cu9 N16 O24 P4 S4)n'
_symmetry_cell_setting           triclinic
_symmetry_space_group_name_H-M   'P 1'
_symmetry_Int_Tables_number      1
_space_group_name_Hall           'P 1'
loop_
_symmetry_equiv_pos_site_id
_symmetry_equiv_pos_as_xyz
1 x,y,z
_cell_length_a                   16.9581(7)
_cell_length_b                   11.1033(3)
_cell_length_c                   10.2310(5)
_cell_angle_alpha                90
_cell_angle_beta                 103.866(2)
_cell_angle_gamma                90
_cell_volume                     1870.27
loop_
_atom_site_label
_atom_site_type_symbol
_atom_site_fract_x
_atom_site_fract_y
_atom_site_fract_z
Cu2 Cu 0.0000 0.2685(12) -0.0000
N3 N 0.0000 0.0843(31) -0.0000
Cu6 Cu 0.5000 0.7685(12) -0.0000
O13 O 0.1450(12) 0.2573(21) 0.144(1)
C29 C 0.0111(15) 0.0184(9) 0.1297(16)
N6 N 0.0000 0.4643(40) -0.0000
H20 H 0.0191633 0.067831 0.223917
Cu1 Cu 0.0000 0.1855(13) 0.5000
Cu2_2 Cu 0.0000 0.2685(12) 1.0000
S1 S 0.1195(6) 0.2439(12) 0.7936(10)
O1 O 0.0947(13) 0.1929(22) 0.6492(20)
O2 O 0.0447(12) 0.2902(25) 0.8232(21)
O3 O 0.1764(13) 0.1646(27) 0.8861(25)
P1 P 0.3143(4) 0.7151(7) 0.7108(6)
O4 O 0.2573(7) 0.8136(9) 0.6341(15)
O5 O 0.3550(12) 0.7573(21) 0.856(1)
O6 O 0.3807(5) 0.6717(16) 0.6437(11)
C1 C 0.1758(11) 0.3790(24) 0.7714(15)
C2 C 0.2399(11) 0.3571(17) 0.7107(17)
C3 C 0.2865(9) 0.4598(22) 0.6865(14)
C4 C 0.2637(9) 0.5826(23) 0.7288(17)
C5 C 0.1984(9) 0.5967(20) 0.7885(15)
C6 C 0.1532(11) 0.4885(26) 0.8120(15)
N3_2 N 0.0000 0.0843(31) 1.0000
Cu3 Cu 0.5000 0.6855(13) 0.5000
Cu6_2 Cu 0.5000 0.7685(12) 1.0000
O16 O 0.1193(5) 0.1717(16) 0.3563(11)
N5 N 0.0000 0.3581(38) 0.5000
N6_2 N 0.0000 0.4643(40) 1.0000
H1 H 0.336983 0.448959 0.638792
H2 H 0.181192 0.685594 0.817103
H4 H 0.289063 0.887868 0.629076
H5 H 0.102878 0.495606 0.860659
H11 H 0.254085 0.266409 0.682846
C15 C 0.0000 0.8360(27) -0.0000
C16 C 0.0000 0.6899(39) -0.0000
C17 C 0.0646(13) 0.6330(26) 0.0820(31)
C18 C 0.0646(13) 0.5000(29) 0.0820(31)
C30 C 0.0111(15) 0.8928(9) 0.1297(16)
H3 H 0.114336 0.683825 0.145132
H19 H 0.11169 0.442449 0.141773
H23 H 0.0190158 0.840804 0.222193
N1 N 0.0000 0.9797(29) 0.5000
C9 C 0.0000 0.7341(28) 0.5000
C10 C 0.0000 0.6114(37) 0.5000
C15_2 C 0.0000 0.8360(27) 1.0000
C16_2 C 0.0000 0.6899(39) 1.0000
C25 C 0.0699(10) 0.9152(23) 0.5378(27)
C26 C 0.0699(10) 0.7944(24) 0.5378(27)
C27 C 0.0666(17) 0.5528(10) 0.4825(28)
C28 C 0.0666(17) 0.4257(9) 0.4825(28)
H14 H 0.127465 0.962905 0.568929
H21 H 0.120214 0.378411 0.468412
H24 H 0.119266 0.60275 0.468661
H26 H 0.126983 0.745428 0.568669
Cu2_3 Cu 1.0000 0.2685(12) -0.0000
N3_3 N 1.0000 0.0843(31) -0.0000
O8 O 0.9553(12) 0.2902(25) 0.1768(21)
N6_3 N 1.0000 0.4643(40) -0.0000
Cu1_2 Cu 1.0000 0.1855(13) 0.5000
Cu2_4 Cu 1.0000 0.2685(12) 1.0000
N3_4 N 1.0000 0.0843(31) 1.0000
C13 C 0.9889(15) 0.0184(9) 0.8703(16)
S2 S 0.8805(6) 0.2439(12) 0.2064(10)
O7 O 0.9053(13) 0.1929(22) 0.3508(20)
O10 O 0.8236(13) 0.1646(27) 0.1139(25)
P2 P 0.6857(4) 0.7151(7) 0.2892(6)
O11 O 0.7427(7) 0.8136(9) 0.3659(15)
O12 O 0.8550(12) 0.2573(21) 0.856(1)
O14 O 0.6450(12) 0.7573(21) 0.144(1)
O15 O 0.8807(5) 0.1717(16) 0.6437(11)
O17 O 0.6193(5) 0.6717(16) 0.3563(11)
C19 C 0.8242(11) 0.3790(24) 0.2286(15)
C20 C 0.7601(11) 0.3571(17) 0.2893(17)
C21 C 0.7135(9) 0.4598(22) 0.3135(14)
C22 C 0.7363(9) 0.5826(23) 0.2712(17)
C23 C 0.8016(9) 0.5967(20) 0.2115(15)
C24 C 0.8468(11) 0.4885(26) 0.1880(15)
N5_2 N 1.0000 0.3581(38) 0.5000
N6_4 N 1.0000 0.4643(40) 1.0000
H6 H 0.710937 0.887868 0.370924
H7 H 0.980837 0.067831 0.776083
H9 H 0.745915 0.266409 0.317154
H10 H 0.818808 0.685594 0.182897
H13 H 0.897122 0.495606 0.139341
H15 H 0.663017 0.448959 0.361208
C15_3 C 1.0000 0.8360(27) -0.0000
C16_3 C 1.0000 0.6899(39) -0.0000
N1_2 N 1.0000 0.9797(29) 0.5000
C7 C 0.9301(10) 0.9152(23) 0.4622(27)
C8 C 0.9301(10) 0.7944(24) 0.4622(27)
C9_2 C 1.0000 0.7341(28) 0.5000
C10_2 C 1.0000 0.6114(37) 0.5000
C11 C 0.9334(17) 0.5528(10) 0.5175(28)
C12 C 0.9334(17) 0.4257(9) 0.5175(28)
C14 C 0.9889(15) 0.8928(9) 0.8703(16)
C15_4 C 1.0000 0.8360(27) 1.0000
C16_4 C 1.0000 0.6899(39) 1.0000
C31 C 0.9354(13) 0.6330(26) 0.9180(31)
C32 C 0.9354(13) 0.5000(29) 0.9180(31)
H8 H 0.873017 0.745428 0.431331
H12 H 0.880734 0.60275 0.531339
H16 H 0.879786 0.378411 0.531588
H17 H 0.980984 0.840804 0.777807
H18 H 0.872535 0.962905 0.431071
H22 H 0.88831 0.442449 0.858227
H25 H 0.885664 0.683825 0.854868
P1_2 P 0.8143(4) 0.2151(7) 0.7108(6)
O4_2 O 0.7573(7) 0.3136(9) 0.6341(15)
C4_2 C 0.7637(9) 0.0826(23) 0.7288(17)
C5_2 C 0.6984(9) 0.0967(20) 0.7885(15)
P2_2 P 0.1857(4) 0.2151(7) 0.2892(6)
O11_2 O 0.2427(7) 0.3136(9) 0.3659(15)
C22_2 C 0.2363(9) 0.0826(23) 0.2712(17)
C23_2 C 0.3016(9) 0.0967(20) 0.2115(15)
H2_2 H 0.681192 0.185594 0.817103
H4_2 H 0.789063 0.387868 0.629076
H6_2 H 0.210937 0.387868 0.370924
H10_2 H 0.318808 0.185594 0.182897
N3_5 N 0.5000 0.5843(31) -0.0000
C15_5 C 0.5000 0.3360(27) -0.0000
C16_5 C 0.5000 0.1899(39) -0.0000
C17_2 C 0.5646(13) 0.1330(26) 0.0820(31)
C18_2 C 0.5646(13) 0.0000(29) 0.0820(31)
O8_2 O 0.4553(12) 0.7902(25) 0.1768(21)
C29_2 C 0.5111(15) 0.5184(9) 0.1297(16)
C30_2 C 0.5111(15) 0.3928(9) 0.1297(16)
N6_5 N 0.5000 0.9643(40) -0.0000
H3_2 H 0.614336 0.183825 0.145132
H20_2 H 0.519163 0.567831 0.223917
H23_2 H 0.519016 0.340804 0.222193
S1_2 S 0.6195(6) 0.7439(12) 0.7936(10)
O1_2 O 0.5947(13) 0.6929(22) 0.6492(20)
O2_2 O 0.5447(12) 0.7902(25) 0.8232(21)
O3_2 O 0.6764(13) 0.6646(27) 0.8861(25)
C1_2 C 0.6758(11) 0.8790(24) 0.7714(15)
C2_2 C 0.7399(11) 0.8571(17) 0.7107(17)
C3_2 C 0.7865(9) 0.9598(22) 0.6865(14)
C6_2 C 0.6532(11) 0.9885(26) 0.8120(15)
N1_3 N 0.5000 0.4797(29) 0.5000
C7_2 C 0.4301(10) 0.4152(23) 0.4622(27)
C8_2 C 0.4301(10) 0.2944(24) 0.4622(27)
C9_3 C 0.5000 0.2341(28) 0.5000
C10_3 C 0.5000 0.1114(37) 0.5000
C11_2 C 0.4334(17) 0.0528(10) 0.5175(28)
N3_6 N 0.5000 0.5843(31) 1.0000
C13_2 C 0.4889(15) 0.5184(9) 0.8703(16)
C14_2 C 0.4889(15) 0.3928(9) 0.8703(16)
C15_6 C 0.5000 0.3360(27) 1.0000
C16_6 C 0.5000 0.1899(39) 1.0000
S2_2 S 0.3805(6) 0.7439(12) 0.2064(10)
O7_2 O 0.4053(13) 0.6929(22) 0.3508(20)
O10_2 O 0.3236(13) 0.6646(27) 0.1139(25)
C19_2 C 0.3242(11) 0.8790(24) 0.2286(15)
C20_2 C 0.2601(11) 0.8571(17) 0.2893(17)
C21_2 C 0.2135(9) 0.9598(22) 0.3135(14)
C24_2 C 0.3468(11) 0.9885(26) 0.1880(15)
C25_2 C 0.5699(10) 0.4152(23) 0.5378(27)
C26_2 C 0.5699(10) 0.2944(24) 0.5378(27)
C27_2 C 0.5666(17) 0.0528(10) 0.4825(28)
N5_3 N 0.5000 0.8581(38) 0.5000
C31_2 C 0.4354(13) 0.1330(26) 0.9180(31)
C32_2 C 0.4354(13) 0.0000(29) 0.9180(31)
N6_6 N 0.5000 0.9643(40) 1.0000
H1_2 H 0.836983 0.948959 0.638792
H5_2 H 0.602878 0.995606 0.860659
H7_2 H 0.480837 0.567831 0.776083
H8_2 H 0.373017 0.245428 0.431331
H9_2 H 0.245915 0.766409 0.317154
H11_2 H 0.754085 0.766409 0.682846
H12_2 H 0.380734 0.10275 0.531339
H13_2 H 0.397122 0.995606 0.139341
H14_2 H 0.627465 0.462905 0.568929
H15_2 H 0.163017 0.948959 0.361208
H17_2 H 0.480984 0.340804 0.777807
H18_2 H 0.372535 0.462905 0.431071
H24_2 H 0.619266 0.10275 0.468661
H25_2 H 0.385664 0.183825 0.854868
H26_2 H 0.626983 0.245428 0.568669
C18_3 C 0.5646(13) 1.0000(29) 0.0820(31)
H19_2 H 0.61169 0.942449 0.141773
C12_2 C 0.4334(17) 0.9257(9) 0.5175(28)
C28_2 C 0.5666(17) 0.9257(9) 0.4825(28)
C32_3 C 0.4354(13) 1.0000(29) 0.9180(31)
H16_2 H 0.379786 0.878411 0.531588
H21_2 H 0.620214 0.878411 0.468412
H22_2 H 0.38831 0.942449 0.858227
loop_
_geom_bond_atom_site_label_1
_geom_bond_atom_site_label_2
_geom_bond_site_symmetry_1
_geom_bond_site_symmetry_2
N3 Cu2 1_555 1_555
O13 Cu2 1_555 1_555
C29 N3 1_555 1_555
N6 Cu2 1_555 1_555
C29 H20 1_555 1_555
Cu1 O1 1_555 1_555
Cu2_2 O2 1_555 1_555
S1 O1 1_555 1_555
O2 S1 1_555 1_555
O3 S1 1_555 1_555
P1 O4 1_555 1_555
O5 P1 1_555 1_555
O6 P1 1_555 1_555
C1 S1 1_555 1_555
C2 C1 1_555 1_555
C3 C2 1_555 1_555
C4 P1 1_555 1_555
C5 C4 1_555 1_555
C6 C1 1_555 1_555
N3_2 Cu2_2 1_555 1_555
Cu3 O6 1_555 1_555
Cu6_2 O5 1_555 1_555
O16 Cu1 1_555 1_555
N5 Cu1 1_555 1_555
N6_2 Cu2_2 1_555 1_555
C3 C4 1_555 1_555
C5 C6 1_555 1_555
C3 H1 1_555 1_555
C5 H2 1_555 1_555
O4 H4 1_555 1_555
C6 H5 1_555 1_555
C2 H11 1_555 1_555
C16 C15 1_555 1_555
C17 C16 1_555 1_555
C18 C17 1_555 1_555
N6 C18 1_555 1_555
C30 C15 1_555 1_555
C17 H3 1_555 1_555
C18 H19 1_555 1_555
C30 H23 1_555 1_555
C10 C9 1_555 1_555
C16_2 C15_2 1_555 1_555
C25 N1 1_555 1_555
C26 C9 1_555 1_555
C27 C10 1_555 1_555
C28 N5 1_555 1_555
C25 C26 1_555 1_555
C27 C28 1_555 1_555
C25 H14 1_555 1_555
C28 H21 1_555 1_555
C27 H24 1_555 1_555
C26 H26 1_555 1_555
N3_3 Cu2_3 1_555 1_555
O8 Cu2_3 1_555 1_555
N6_3 Cu2_3 1_555 1_555
N3_4 Cu2_4 1_555 1_555
C13 N3_4 1_555 1_555
Cu3 O17 1_555 1_555
Cu6 O14 1_555 1_555
S2 O7 1_555 1_555
O7 Cu1_2 1_555 1_555
O8 S2 1_555 1_555
O10 S2 1_555 1_555
P2 O11 1_555 1_555
O12 Cu2_4 1_555 1_555
O14 P2 1_555 1_555
O15 Cu1_2 1_555 1_555
O17 P2 1_555 1_555
C19 S2 1_555 1_555
C20 C19 1_555 1_555
C21 C20 1_555 1_555
C22 P2 1_555 1_555
C23 C22 1_555 1_555
C24 C19 1_555 1_555
N5_2 Cu1_2 1_555 1_555
N6_4 Cu2_4 1_555 1_555
C21 C22 1_555 1_555
C23 C24 1_555 1_555
O11 H6 1_555 1_555
C13 H7 1_555 1_555
C20 H9 1_555 1_555
C23 H10 1_555 1_555
C24 H13 1_555 1_555
C21 H15 1_555 1_555
C16_3 C15_3 1_555 1_555
C7 N1_2 1_555 1_555
C8 C7 1_555 1_555
C9_2 C8 1_555 1_555
C10_2 C9_2 1_555 1_555
C11 C10_2 1_555 1_555
C12 C11 1_555 1_555
N5_2 C12 1_555 1_555
C15_4 C14 1_555 1_555
C16_4 C15_4 1_555 1_555
C31 C16_4 1_555 1_555
C32 N6_4 1_555 1_555
C31 C32 1_555 1_555
C8 H8 1_555 1_555
C11 H12 1_555 1_555
C12 H16 1_555 1_555
C14 H17 1_555 1_555
C7 H18 1_555 1_555
C32 H22 1_555 1_555
C31 H25 1_555 1_555
P1_2 O4_2 1_555 1_555
O12 P1_2 1_555 1_555
O15 P1_2 1_555 1_555
C4_2 P1_2 1_555 1_555
C5_2 C4_2 1_555 1_555
P2_2 O11_2 1_555 1_555
O13 P2_2 1_555 1_555
O16 P2_2 1_555 1_555
C22_2 P2_2 1_555 1_555
C23_2 C22_2 1_555 1_555
C5_2 H2_2 1_555 1_555
O4_2 H4_2 1_555 1_555
O11_2 H6_2 1_555 1_555
C23_2 H10_2 1_555 1_555
N3_5 Cu6 1_555 1_555
C16_5 C15_5 1_555 1_555
C17_2 C16_5 1_555 1_555
C18_2 C17_2 1_555 1_555
O8_2 Cu6 1_555 1_555
C29_2 N3_5 1_555 1_555
C30_2 C15_5 1_555 1_555
N6_5 Cu6 1_555 1_555
C29_2 C30_2 1_555 1_555
C17_2 H3_2 1_555 1_555
C29_2 H20_2 1_555 1_555
C30_2 H23_2 1_555 1_555
Cu3 O1_2 1_555 1_555
Cu6_2 O2_2 1_555 1_555
S1_2 O1_2 1_555 1_555
O2_2 S1_2 1_555 1_555
O3_2 S1_2 1_555 1_555
C1_2 S1_2 1_555 1_555
C2_2 C1_2 1_555 1_555
C3_2 C2_2 1_555 1_555
C6_2 C1_2 1_555 1_555
N1_3 Cu3 1_555 1_555
C7_2 N1_3 1_555 1_555
C8_2 C7_2 1_555 1_555
C9_3 C8_2 1_555 1_555
C10_3 C9_3 1_555 1_555
C11_2 C10_3 1_555 1_555
N3_6 Cu6_2 1_555 1_555
C13_2 N3_6 1_555 1_555
C14_2 C13_2 1_555 1_555
C15_6 C14_2 1_555 1_555
C16_6 C15_6 1_555 1_555
S2_2 O7_2 1_555 1_555
O7_2 Cu3 1_555 1_555
O8_2 S2_2 1_555 1_555
O10_2 S2_2 1_555 1_555
C19_2 S2_2 1_555 1_555
C20_2 C19_2 1_555 1_555
C21_2 C20_2 1_555 1_555
C24_2 C19_2 1_555 1_555
C25_2 N1_3 1_555 1_555
C26_2 C9_3 1_555 1_555
C27_2 C10_3 1_555 1_555
N5_3 Cu3 1_555 1_555
C31_2 C16_6 1_555 1_555
N6_6 Cu6_2 1_555 1_555
C25_2 C26_2 1_555 1_555
C31_2 C32_2 1_555 1_555
C3_2 H1_2 1_555 1_555
C6_2 H5_2 1_555 1_555
C13_2 H7_2 1_555 1_555
C8_2 H8_2 1_555 1_555
C20_2 H9_2 1_555 1_555
C2_2 H11_2 1_555 1_555
C11_2 H12_2 1_555 1_555
C24_2 H13_2 1_555 1_555
C25_2 H14_2 1_555 1_555
C21_2 H15_2 1_555 1_555
C14_2 H17_2 1_555 1_555
C7_2 H18_2 1_555 1_555
C27_2 H24_2 1_555 1_555
C31_2 H25_2 1_555 1_555
C26_2 H26_2 1_555 1_555
N6_5 C18_3 1_555 1_555
C18_3 H19_2 1_555 1_555
N5_3 C12_2 1_555 1_555
C28_2 N5_3 1_555 1_555
C32_3 N6_6 1_555 1_555
C12_2 H16_2 1_555 1_555
C28_2 H21_2 1_555 1_555
C32_3 H22_2 1_555 1_555

#END
