
###############################################################################
#
# This file contains modified crystal structure data generated from the
# MOF subset of the Cambridge Structural Database (CSD) v543 
# hosted by the Cambridge Crystallographic Data Centre (CCDC).
#
# This work is licensed under the Creative Commons
# Attribution-NonCommercial-ShareAlike 4.0 International License.
# To view a copy of this license, visit
# http://creativecommons.org/licenses/by-nc-sa/4.0/
# or send a letter to
# Creative Commons, PO Box 1866, Mountain View, CA 94042, USA.
#
# CIF created using the CSD Python API on 29 September 2022
# The structure has been converted into the P1 space group
# The structure has a 3D framework
# The original CSD entry UWELIS is in the monoclinic crystal system
# The framework has been calculated to contain at least 10.0% void space
# The void calculation uses a probe of radius 1.32A, grid spacing 0.4
#
###############################################################################

data_UWELIS
_chemical_formula_moiety         '(C56 H32 N8 O20 Zn3)n'
_symmetry_cell_setting           triclinic
_symmetry_space_group_name_H-M   'P 1'
_symmetry_Int_Tables_number      1
_space_group_name_Hall           'P 1'
loop_
_symmetry_equiv_pos_site_id
_symmetry_equiv_pos_as_xyz
1 x,y,z
_cell_length_a                   13.9830(15)
_cell_length_b                   13.265(2)
_cell_length_c                   14.1890(12)
_cell_angle_alpha                90
_cell_angle_beta                 112.066(3)
_cell_angle_gamma                90
_cell_volume                     2439.06
loop_
_atom_site_label
_atom_site_type_symbol
_atom_site_fract_x
_atom_site_fract_y
_atom_site_fract_z
H12 H 0.1857 0.0425 0.3405
C15 C 0.2249(2) 0.8047(2) 0.3848(2)
H9 H 0.2775 0.7577 0.4122
C16 C 0.1214(2) 0.7739(2) 0.3468(2)
H10 H 0.1051 0.7059 0.3462
C17 C 0.0447(2) 0.8440(2) 0.3106(2)
C18 C 0.0666(2) 0.9458(3) 0.3086(2)
H11 H 0.0140 0.9932 0.2849
C19 C 0.1695(2) 0.9748(2) 0.3431(2)
N5 N 0.24812(19) 0.9059(2) 0.38117(19)
Zn6 Zn 0.40033(3) 0.94686(3) 0.44897(3)
C1 C 0.2249(2) 0.6953(2) 0.8848(2)
H1 H 0.2775 0.7423 0.9122
C2 C 0.1214(2) 0.7261(2) 0.8468(2)
H2 H 0.1051 0.7941 0.8462
C3 C 0.0447(2) 0.6560(2) 0.8106(2)
C4 C 0.0666(2) 0.5542(3) 0.8086(2)
H3 H 0.0140 0.5068 0.7849
C5 C 0.1695(2) 0.5252(2) 0.8431(2)
H4 H 0.1857 0.4575 0.8405
N1 N 0.24812(19) 0.5941(2) 0.88117(19)
Zn2 Zn 0.40033(3) 0.55314(3) 0.94897(3)
Zn7 Zn 0.59967(3) 0.05314(3) 0.55103(3)
Zn1 Zn 0.59967(3) 0.44686(3) 0.05103(3)
C20 C 0.9344(2) 0.8047(2) 0.2746(2)
C21 C 0.7582(2) 0.8445(2) 0.2617(2)
C22 C 0.7075(2) 0.8933(2) 0.3147(2)
H13 H 0.7432 0.9399 0.3645
C23 C 0.6041(2) 0.8748(2) 0.2955(2)
C24 C 0.5513(2) 0.8031(2) 0.2222(2)
H14 H 0.4822 0.7899 0.2092
C25 C 0.6004(2) 0.7519(2) 0.1692(3)
C26 C 0.7061(2) 0.7721(2) 0.1880(2)
H15 H 0.7399 0.7382 0.1521
C27 C 0.5562(2) 0.9237(2) 0.3627(2)
C28 C 0.5519(2) 0.6670(2) 0.0979(2)
N3 N 0.75188(19) 0.4059(2) 0.11883(19)
N6 N 0.86287(17) 0.86876(18) 0.28208(17)
H16 H 0.8823 0.9295 0.3008
O6 O 0.91800(16) 0.71672(15) 0.24752(17)
O7 O 0.39067(16) 0.48672(16) 0.07609(16)
O8 O 0.60933(16) 0.98672(16) 0.42391(16)
O9 O 0.53440(16) 0.39724(16) 0.14920(16)
O10 O 0.46560(16) 0.89724(16) 0.35080(16)
O12 O 0.45932(16) 0.67653(16) 0.03849(16)
O13 O 0.60593(17) 0.59174(16) 0.10232(17)
C6 C 0.9344(2) 0.6953(2) 0.7746(2)
C7 C 0.7582(2) 0.6555(2) 0.7617(2)
C8 C 0.7075(2) 0.6067(2) 0.8147(2)
H5 H 0.7432 0.5601 0.8645
C9 C 0.6041(2) 0.6252(2) 0.7955(2)
C10 C 0.5513(2) 0.6969(2) 0.7222(2)
H6 H 0.4822 0.7101 0.7092
C11 C 0.6004(2) 0.7481(2) 0.6692(3)
C12 C 0.7061(2) 0.7279(2) 0.6880(2)
H7 H 0.7399 0.7618 0.6521
C13 C 0.5562(2) 0.5763(2) 0.8627(2)
C14 C 0.5519(2) 0.8330(2) 0.5979(2)
N2 N 0.86287(17) 0.63124(18) 0.78208(17)
H8 H 0.8823 0.5705 0.8008
O1 O 0.91800(16) 0.78328(15) 0.74752(17)
O2 O 0.60933(16) 0.51328(16) 0.92391(16)
O3 O 0.46560(16) 0.60276(16) 0.85080(16)
O4 O 0.45932(16) 0.82347(16) 0.53849(16)
O5 O 0.60593(17) 0.90826(16) 0.60232(17)
O11 O 0.54068(16) 0.32347(16) 0.96151(16)
O14 O 0.39407(17) 0.40826(16) 0.89768(17)
C6_2 C 0.0656(2) 0.1953(2) 0.7254(2)
C7_2 C 0.2418(2) 0.1555(2) 0.7383(2)
C8_2 C 0.2925(2) 0.1067(2) 0.6853(2)
H5_2 H 0.2568 0.0601 0.6355
C9_2 C 0.3959(2) 0.1252(2) 0.7045(2)
C10_2 C 0.4487(2) 0.1969(2) 0.7778(2)
H6_2 H 0.5178 0.2101 0.7908
C11_2 C 0.3996(2) 0.2481(2) 0.8308(3)
C12_2 C 0.2939(2) 0.2279(2) 0.8120(2)
H7_2 H 0.2601 0.2618 0.8479
C13_2 C 0.4438(2) 0.0763(2) 0.6373(2)
C14_2 C 0.4481(2) 0.3330(2) 0.9021(2)
N2_2 N 0.13713(17) 0.13124(18) 0.71792(17)
H8_2 H 0.1177 0.0705 0.6992
O1_2 O 0.08200(16) 0.28328(15) 0.75248(17)
O2_2 O 0.39067(16) 0.01328(16) 0.57609(16)
O3_2 O 0.53440(16) 0.10276(16) 0.64920(16)
C20_2 C 0.0656(2) 0.3047(2) 0.2254(2)
C21_2 C 0.2418(2) 0.3445(2) 0.2383(2)
C22_2 C 0.2925(2) 0.3933(2) 0.1853(2)
H13_2 H 0.2568 0.4399 0.1355
C23_2 C 0.3959(2) 0.3748(2) 0.2045(2)
C24_2 C 0.4487(2) 0.3031(2) 0.2778(2)
H14_2 H 0.5178 0.2899 0.2908
C25_2 C 0.3996(2) 0.2519(2) 0.3308(3)
C26_2 C 0.2939(2) 0.2721(2) 0.3120(2)
H15_2 H 0.2601 0.2382 0.3479
C27_2 C 0.4438(2) 0.4237(2) 0.1373(2)
C28_2 C 0.4481(2) 0.1670(2) 0.4021(2)
N4 N 0.75188(19) 0.0941(2) 0.61883(19)
N6_2 N 0.13713(17) 0.36876(18) 0.21792(17)
H16_2 H 0.1177 0.4295 0.1992
O6_2 O 0.08200(16) 0.21672(15) 0.25248(17)
O12_2 O 0.54068(16) 0.17653(16) 0.46151(16)
O13_2 O 0.39407(17) 0.09174(16) 0.39768(17)
C1_2 C 0.7751(2) 0.1953(2) 0.6152(2)
H1_2 H 0.7225 0.2423 0.5878
C2_2 C 0.8786(2) 0.2261(2) 0.6532(2)
H2_2 H 0.8949 0.2941 0.6538
C3_2 C 0.9553(2) 0.1560(2) 0.6894(2)
C4_2 C 0.9334(2) 0.0542(3) 0.6914(2)
H3_2 H 0.9860 0.0068 0.7151
C5_2 C 0.8305(2) 0.0252(2) 0.6569(2)
C15_2 C 0.7751(2) 0.3047(2) 0.1152(2)
H9_2 H 0.7225 0.2577 0.0878
C16_2 C 0.8786(2) 0.2739(2) 0.1532(2)
H10_2 H 0.8949 0.2059 0.1538
C17_2 C 0.9553(2) 0.3440(2) 0.1894(2)
C18_2 C 0.9334(2) 0.4458(3) 0.1914(2)
H11_2 H 0.9860 0.4932 0.2151
C19_2 C 0.8305(2) 0.4748(2) 0.1569(2)
H12_2 H 0.8143 0.5425 0.1595
H4_2 H 0.8143 0.9575 0.6595
loop_
_geom_bond_atom_site_label_1
_geom_bond_atom_site_label_2
_geom_bond_site_symmetry_1
_geom_bond_site_symmetry_2
C15 H9 1_555 1_555
C16 C15 1_555 1_555
H10 C16 1_555 1_555
C17 C16 1_555 1_555
C18 C17 1_555 1_555
H11 C18 1_555 1_555
C19 C18 1_555 1_555
N5 C15 1_555 1_555
Zn6 N5 1_555 1_555
C19 N5 1_555 1_555
C1 H1 1_555 1_555
C2 C1 1_555 1_555
H2 C2 1_555 1_555
C3 C2 1_555 1_555
C4 C3 1_555 1_555
H3 C4 1_555 1_555
C5 C4 1_555 1_555
H4 C5 1_555 1_555
N1 C1 1_555 1_555
Zn2 N1 1_555 1_555
C5 N1 1_555 1_555
C21 C22 1_555 1_555
C22 H13 1_555 1_555
C23 C22 1_555 1_555
C24 C23 1_555 1_555
H14 C24 1_555 1_555
C25 C24 1_555 1_555
C26 C21 1_555 1_555
H15 C26 1_555 1_555
C27 C23 1_555 1_555
C28 C25 1_555 1_555
N3 Zn1 1_555 1_555
N6 C20 1_555 1_555
H16 N6 1_555 1_555
O6 C20 1_555 1_555
O8 C27 1_555 1_555
O9 Zn1 1_555 1_555
O10 C27 1_555 1_555
O12 C28 1_555 1_555
O13 Zn1 1_555 1_555
Zn6 O10 1_555 1_555
C21 N6 1_555 1_555
C25 C26 1_555 1_555
C28 O13 1_555 1_555
C7 C8 1_555 1_555
C8 H5 1_555 1_555
C9 C8 1_555 1_555
C10 C9 1_555 1_555
H6 C10 1_555 1_555
C11 C10 1_555 1_555
C12 C7 1_555 1_555
H7 C12 1_555 1_555
C13 C9 1_555 1_555
C14 C11 1_555 1_555
N2 C6 1_555 1_555
H8 N2 1_555 1_555
O1 C6 1_555 1_555
O2 C13 1_555 1_555
O3 C13 1_555 1_555
O4 C14 1_555 1_555
O5 C14 1_555 1_555
O14 Zn2 1_555 1_555
Zn2 O3 1_555 1_555
Zn6 O4 1_555 1_555
C7 N2 1_555 1_555
C11 C12 1_555 1_555
C7_2 C8_2 1_555 1_555
C8_2 H5_2 1_555 1_555
C9_2 C8_2 1_555 1_555
C10_2 C9_2 1_555 1_555
H6_2 C10_2 1_555 1_555
C11_2 C10_2 1_555 1_555
C12_2 C7_2 1_555 1_555
H7_2 C12_2 1_555 1_555
C13_2 C9_2 1_555 1_555
C14_2 C11_2 1_555 1_555
N2_2 C6_2 1_555 1_555
H8_2 N2_2 1_555 1_555
O1_2 C6_2 1_555 1_555
O2_2 C13_2 1_555 1_555
O3_2 C13_2 1_555 1_555
O11 C14_2 1_555 1_555
O14 C14_2 1_555 1_555
C21_2 C22_2 1_555 1_555
C22_2 H13_2 1_555 1_555
C23_2 C22_2 1_555 1_555
C24_2 C23_2 1_555 1_555
H14_2 C24_2 1_555 1_555
C25_2 C24_2 1_555 1_555
C26_2 C21_2 1_555 1_555
H15_2 C26_2 1_555 1_555
C27_2 C23_2 1_555 1_555
C28_2 C25_2 1_555 1_555
N4 Zn7 1_555 1_555
N6_2 C20_2 1_555 1_555
H16_2 N6_2 1_555 1_555
O6_2 C20_2 1_555 1_555
O7 C27_2 1_555 1_555
O9 C27_2 1_555 1_555
O12_2 C28_2 1_555 1_555
Zn7 O3_2 1_555 1_555
C7_2 N2_2 1_555 1_555
C11_2 C12_2 1_555 1_555
C21_2 N6_2 1_555 1_555
C25_2 C26_2 1_555 1_555
C28_2 O13_2 1_555 1_555
O12_2 Zn7 1_555 1_555
C1_2 H1_2 1_555 1_555
C2_2 C1_2 1_555 1_555
H2_2 C2_2 1_555 1_555
C3_2 C2_2 1_555 1_555
C4_2 C3_2 1_555 1_555
H3_2 C4_2 1_555 1_555
C5_2 C4_2 1_555 1_555
N4 C1_2 1_555 1_555
C15_2 H9_2 1_555 1_555
C16_2 C15_2 1_555 1_555
H10_2 C16_2 1_555 1_555
C17_2 C16_2 1_555 1_555
C18_2 C17_2 1_555 1_555
H11_2 C18_2 1_555 1_555
C19_2 C18_2 1_555 1_555
H12_2 C19_2 1_555 1_555
N3 C15_2 1_555 1_555
C5_2 N4 1_555 1_555
C19_2 N3 1_555 1_555

#END
