
###############################################################################
#
# This file contains modified crystal structure data generated from the
# MOF subset of the Cambridge Structural Database (CSD) v543 
# hosted by the Cambridge Crystallographic Data Centre (CCDC).
#
# This work is licensed under the Creative Commons
# Attribution-NonCommercial-ShareAlike 4.0 International License.
# To view a copy of this license, visit
# http://creativecommons.org/licenses/by-nc-sa/4.0/
# or send a letter to
# Creative Commons, PO Box 1866, Mountain View, CA 94042, USA.
#
# CIF created using the CSD Python API on 29 September 2022
# The structure has been converted into the P1 space group
# The structure has a 3D framework
# The original CSD entry UWOJOI is in the tetragonal crystal system
# The framework has been calculated to contain at least 10.0% void space
# The void calculation uses a probe of radius 1.32A, grid spacing 0.4
# H atom positions have been added when not included in the experimental data
#
###############################################################################

data_UWOJOI
_chemical_formula_moiety         '(C168 H112 Co16 N8 O64)n'
_symmetry_cell_setting           triclinic
_symmetry_space_group_name_H-M   'P 1'
_symmetry_Int_Tables_number      1
_space_group_name_Hall           'P 1'
loop_
_symmetry_equiv_pos_site_id
_symmetry_equiv_pos_as_xyz
1 x,y,z
_cell_length_a                   23.5944(5)
_cell_length_b                   23.5944(5)
_cell_length_c                   15.0370(5)
_cell_angle_alpha                90
_cell_angle_beta                 90
_cell_angle_gamma                90
_cell_volume                     8371.03
loop_
_atom_site_label
_atom_site_type_symbol
_atom_site_fract_x
_atom_site_fract_y
_atom_site_fract_z
O5 O 0.56373(16) 0.67215(16) 0.18273(19)
O6 O 0.6100(3) 0.7341(2) 0.1077(3)
C15 C 0.5651(3) 0.6620(2) 0.0273(3)
C17 C 0.5439(2) 0.6089(2) 0.0274(3)
H9 H 0.538611 0.590075 0.081178
C19 C 0.5805(3) 0.6915(2) 0.1124(3)
Co3 Co 0.66765(2) 0.78445(2) 0.16468(3)
Co7 Co 0.58922(3) 0.71167(2) 0.28896(3)
Co1 Co 0.28445(2) 0.33235(2) 0.66468(3)
Co2 Co 0.21167(2) 0.41078(3) 0.78896(3)
O1 O 0.23410(12) 0.32998(13) 0.78209(16)
O2 O 0.2278(3) 0.2863(3) 0.5774(5)
O3 O 0.33679(14) 0.38953(15) 0.7250(2)
O4 O 0.28507(15) 0.45087(14) 0.8036(2)
O7 O 0.66408(13) 0.66204(13) 0.44879(17)
O8 O 0.57533(12) 0.67183(13) 0.39992(17)
C1 C 0.58875(18) 0.63690(17) 0.5437(2)
C2 C 0.61149(18) 0.65775(17) 0.4574(2)
N1 N 0.5217(2) 0.58230(19) 0.7884(2)
C3 C 0.3812(2) 0.4726(2) 0.7767(2)
C4 C 0.3310(2) 0.4345(2) 0.7679(3)
C5 C 0.4738(2) 0.5447(2) 0.7866(2)
C6 C 0.5309(2) 0.6304(2) 0.5556(3)
H1 H 0.506436 0.638584 0.508902
C7 C 0.5446(2) 0.6001(2) 0.7057(2)
C8 C 0.4310(2) 0.4593(2) 0.7330(3)
H2 H 0.433568 0.426030 0.700099
C9 C 0.6242(2) 0.6232(2) 0.6141(3)
H3 H 0.663235 0.626395 0.607064
C10 C 0.3791(2) 0.5216(2) 0.8261(3)
H4 H 0.345928 0.530627 0.856284
C11 C 0.4772(2) 0.4953(2) 0.7382(3)
H5 H 0.510582 0.486177 0.708699
C12 C 0.5091(2) 0.6119(2) 0.6354(3)
H6 H 0.470136 0.607484 0.641867
C13 C 0.5369(2) 0.6096(2) 0.8683(3)
C14 C 0.4249(2) 0.5576(2) 0.8320(3)
H7 H 0.422749 0.590281 0.866353
C16 C 0.6025(2) 0.6050(2) 0.6940(3)
H8 H 0.626969 0.596022 0.740390
C18 C 0.5587(3) 0.6632(2) 0.8685(3)
H10 H 0.564623 0.681958 0.814821
C20 C 0.5300(3) 0.5823(2) 0.9498(3)
H11 H 0.515725 0.545603 0.951280
C21 C 0.5722(3) 0.6900(2) 0.9475(3)
H12 H 0.586126 0.726878 0.946831
Co4 Co 0.71555(2) 0.66765(2) 0.33532(3)
Co5 Co 0.16765(2) 0.28445(2) 0.83532(3)
O9 O 0.32998(13) 0.26590(12) 0.71791(16)
O10 O 0.17215(16) 0.43627(16) 0.68273(19)
O11 O 0.2341(2) 0.3900(3) 0.6077(3)
O12 O 0.33592(13) 0.33796(13) 0.55121(17)
O13 O 0.17183(13) 0.42467(12) 0.89992(17)
H13 H 0.191151 0.306801 0.573013
H14 H 0.245111 0.283232 0.517401
Co1_2 Co 0.21555(2) 0.16765(2) 0.66468(3)
Co2_2 Co 0.28833(2) 0.08922(3) 0.78896(3)
O1_2 O 0.26590(12) 0.17002(13) 0.78209(16)
O2_2 O 0.2722(3) 0.2137(3) 0.5774(5)
O3_2 O 0.16321(14) 0.11047(15) 0.7250(2)
O4_2 O 0.21493(15) 0.04913(14) 0.8036(2)
C3_2 C 0.1188(2) 0.0274(2) 0.7767(2)
C4_2 C 0.1690(2) 0.0655(2) 0.7679(3)
C8_2 C 0.0690(2) 0.0407(2) 0.7330(3)
H2_2 H 0.066432 0.073970 0.700099
C11_2 C 0.0228(2) 0.0047(2) 0.7382(3)
Co5_2 Co 0.33235(2) 0.21555(2) 0.83532(3)
O9_2 O 0.17002(13) 0.23410(12) 0.71791(16)
O10_2 O 0.32785(16) 0.06373(16) 0.68273(19)
O11_2 O 0.2659(2) 0.1100(3) 0.6077(3)
O12_2 O 0.16408(13) 0.16204(13) 0.55121(17)
O13_2 O 0.32817(13) 0.07533(12) 0.89992(17)
H13_2 H 0.308849 0.193199 0.573013
H14_2 H 0.254889 0.216768 0.517401
O5_2 O 0.93627(16) 0.82785(16) 0.18273(19)
O6_2 O 0.8900(3) 0.7659(2) 0.1077(3)
C15_2 C 0.9349(3) 0.8380(2) 0.0273(3)
C17_2 C 0.9561(2) 0.8911(2) 0.0274(3)
H9_2 H 0.961389 0.909925 0.081178
C19_2 C 0.9195(3) 0.8085(2) 0.1124(3)
Co3_2 Co 0.83235(2) 0.71555(2) 0.16468(3)
Co7_2 Co 0.91078(3) 0.78833(2) 0.28896(3)
O7_2 O 0.83592(13) 0.83796(13) 0.44879(17)
O8_2 O 0.92467(12) 0.82817(13) 0.39992(17)
C1_2 C 0.91125(18) 0.86310(17) 0.5437(2)
C2_2 C 0.88851(18) 0.84225(17) 0.4574(2)
N1_2 N 0.9783(2) 0.91770(19) 0.7884(2)
C6_2 C 0.9691(2) 0.8696(2) 0.5556(3)
H1_2 H 0.993564 0.861416 0.508902
C7_2 C 0.9554(2) 0.8999(2) 0.7057(2)
C9_2 C 0.8758(2) 0.8768(2) 0.6141(3)
H3_2 H 0.836765 0.873605 0.607064
C12_2 C 0.9909(2) 0.8881(2) 0.6354(3)
C13_2 C 0.9631(2) 0.8904(2) 0.8683(3)
C16_2 C 0.8975(2) 0.8950(2) 0.6940(3)
H8_2 H 0.873031 0.903978 0.740390
C18_2 C 0.9413(3) 0.8368(2) 0.8685(3)
H10_2 H 0.935377 0.818042 0.814821
C20_2 C 0.9700(3) 0.9177(2) 0.9498(3)
H11_2 H 0.984275 0.954397 0.951280
C21_2 C 0.9278(3) 0.8100(2) 0.9475(3)
H12_2 H 0.913874 0.773122 0.946831
Co4_2 Co 0.78445(2) 0.83235(2) 0.33532(3)
C1_3 C 0.36310(17) 0.08875(18) 0.0437(2)
N1_3 N 0.41770(19) 0.0217(2) 0.2884(2)
C6_3 C 0.3696(2) 0.0309(2) 0.0556(3)
H1_3 H 0.361416 0.006436 0.008902
C7_3 C 0.3999(2) 0.0446(2) 0.2057(2)
C9_3 C 0.3768(2) 0.1242(2) 0.1141(3)
H3_3 H 0.373605 0.163235 0.107064
H5_2 H 0.513823 0.010582 0.208699
C12_3 C 0.3881(2) 0.0091(2) 0.1354(3)
C13_3 C 0.3904(2) 0.0369(2) 0.3683(3)
C15_3 C 0.3380(2) 0.0651(3) 0.5273(3)
C16_3 C 0.3950(2) 0.1025(2) 0.1940(3)
H8_3 H 0.403978 0.126969 0.240390
C17_3 C 0.3911(2) 0.0439(2) 0.5274(3)
H9_3 H 0.409925 0.038611 0.581178
C18_3 C 0.3368(2) 0.0587(3) 0.3685(3)
H10_3 H 0.318042 0.064623 0.314821
C19_3 C 0.3085(2) 0.0805(3) 0.6124(3)
C20_3 C 0.4177(2) 0.0300(3) 0.4498(3)
H11_3 H 0.454397 0.015725 0.451280
C21_3 C 0.3100(2) 0.0722(3) 0.4475(3)
H12_3 H 0.273122 0.086126 0.446831
O7_3 O 0.33796(13) 0.16408(13) 0.94879(17)
C2_3 C 0.34225(17) 0.11149(18) 0.9574(2)
O1_3 O 0.67002(13) 0.73410(12) 0.28209(16)
O2_3 O 0.7137(3) 0.7278(3) 0.0774(5)
O3_3 O 0.61047(15) 0.83679(14) 0.2250(2)
O4_3 O 0.54913(14) 0.78507(15) 0.3036(2)
C3_3 C 0.5274(2) 0.8812(2) 0.2767(2)
C4_3 C 0.5655(2) 0.8310(2) 0.2679(3)
C5_2 C 0.4553(2) 0.9738(2) 0.2866(2)
C8_3 C 0.5407(2) 0.9310(2) 0.2330(3)
H2_3 H 0.573970 0.933568 0.200099
C10_2 C 0.4784(2) 0.8791(2) 0.3261(3)
H4_2 H 0.469373 0.845928 0.356284
C11_3 C 0.5047(2) 0.9772(2) 0.2382(3)
H6_2 H 0.392516 0.970136 0.141867
C14_2 C 0.4424(2) 0.9249(2) 0.3320(3)
H7_2 H 0.409719 0.922749 0.366353
O9_3 O 0.73410(12) 0.82998(13) 0.21791(16)
O12_3 O 0.66204(13) 0.83592(13) 0.05121(17)
H13_3 H 0.693199 0.691151 0.0730135
H14_3 H 0.716768 0.745111 0.0174006
C1_4 C 0.13690(17) 0.41125(18) 0.0437(2)
N1_4 N 0.08230(19) 0.4783(2) 0.2884(2)
C5_3 C 0.0447(2) 0.5262(2) 0.2866(2)
C6_4 C 0.1304(2) 0.4691(2) 0.0556(3)
H1_4 H 0.138584 0.493564 0.008902
C7_4 C 0.1001(2) 0.4554(2) 0.2057(2)
C9_4 C 0.1232(2) 0.3758(2) 0.1141(3)
H3_4 H 0.126395 0.336765 0.107064
C10_3 C 0.0216(2) 0.6209(2) 0.3261(3)
H4_3 H 0.030627 0.654072 0.356284
C12_4 C 0.1119(2) 0.4909(2) 0.1354(3)
H6_3 H 0.107484 0.529864 0.141867
C13_4 C 0.1096(2) 0.4631(2) 0.3683(3)
C14_3 C 0.0576(2) 0.5751(2) 0.3320(3)
H7_3 H 0.090281 0.577251 0.366353
C15_4 C 0.1620(2) 0.4349(3) 0.5273(3)
C16_4 C 0.1050(2) 0.3975(2) 0.1940(3)
H8_4 H 0.096022 0.373031 0.240390
C17_4 C 0.1089(2) 0.4561(2) 0.5274(3)
H9_4 H 0.090075 0.461389 0.581178
C18_4 C 0.1632(2) 0.4413(3) 0.3685(3)
H10_4 H 0.181958 0.435377 0.314821
C19_4 C 0.1915(2) 0.4195(3) 0.6124(3)
C20_4 C 0.0823(2) 0.4700(3) 0.4498(3)
H11_4 H 0.045603 0.484275 0.451280
C21_4 C 0.1900(2) 0.4278(3) 0.4475(3)
H12_4 H 0.226878 0.413874 0.446831
O7_4 O 0.16204(13) 0.33592(13) 0.94879(17)
C2_4 C 0.15775(17) 0.38851(18) 0.9574(2)
O1_4 O 0.82998(13) 0.76590(12) 0.28209(16)
O2_4 O 0.7863(3) 0.7722(3) 0.0774(5)
O3_4 O 0.88953(15) 0.66321(14) 0.2250(2)
O4_4 O 0.95087(14) 0.71493(15) 0.3036(2)
C3_4 C 0.9726(2) 0.6188(2) 0.2767(2)
C4_4 C 0.9345(2) 0.6690(2) 0.2679(3)
C8_4 C 0.9593(2) 0.5690(2) 0.2330(3)
H2_4 H 0.926030 0.566432 0.200099
C11_4 C 0.9953(2) 0.5228(2) 0.2382(3)
H5_3 H 0.986177 0.489418 0.208699
O9_4 O 0.76590(12) 0.67002(13) 0.21791(16)
O12_4 O 0.83796(13) 0.66408(13) 0.05121(17)
H13_4 H 0.806801 0.808849 0.0730135
H14_4 H 0.783232 0.754889 0.0174006
Co2_3 Co 0.78833(2) 0.58922(3) 0.21104(3)
O2_5 O 0.7722(3) 0.7137(3) 0.4226(5)
O3_5 O 0.66321(14) 0.61047(15) 0.2750(2)
O4_5 O 0.71493(15) 0.54913(14) 0.1964(2)
O8_3 O 0.42467(12) 0.32817(13) 0.60008(17)
C1_5 C 0.41125(18) 0.36310(17) 0.4563(2)
C2_5 C 0.38851(18) 0.34225(17) 0.5426(2)
N1_5 N 0.4783(2) 0.41770(19) 0.2116(2)
C3_5 C 0.6188(2) 0.5274(2) 0.2233(2)
C4_5 C 0.6690(2) 0.5655(2) 0.2321(3)
C5_4 C 0.5262(2) 0.4553(2) 0.2134(2)
C6_5 C 0.4691(2) 0.3696(2) 0.4444(3)
H1_5 H 0.493564 0.361416 0.491098
C7_5 C 0.4554(2) 0.3999(2) 0.2943(2)
C8_5 C 0.5690(2) 0.5407(2) 0.2670(3)
H2_5 H 0.566432 0.573970 0.299901
C9_5 C 0.3758(2) 0.3768(2) 0.3859(3)
H3_5 H 0.336765 0.373605 0.392936
C10_4 C 0.6209(2) 0.4784(2) 0.1739(3)
H4_4 H 0.654072 0.469373 0.143716
C11_5 C 0.5228(2) 0.5047(2) 0.2618(3)
H5_4 H 0.489418 0.513823 0.291301
C12_5 C 0.4909(2) 0.3881(2) 0.3646(3)
H6_4 H 0.529864 0.392516 0.358133
C13_5 C 0.4631(2) 0.3904(2) 0.1317(3)
C14_4 C 0.5751(2) 0.4424(2) 0.1680(3)
H7_4 H 0.577251 0.409719 0.133647
C16_5 C 0.3975(2) 0.3950(2) 0.3060(3)
H8_5 H 0.373031 0.403978 0.259610
C18_5 C 0.4413(3) 0.3368(2) 0.1315(3)
H10_5 H 0.435377 0.318042 0.185179
C20_5 C 0.4700(3) 0.4177(2) 0.0502(3)
H11_5 H 0.484275 0.454397 0.048720
C21_5 C 0.4278(3) 0.3100(2) 0.0525(3)
H12_5 H 0.413874 0.273122 0.053169
Co6 Co 0.41078(3) 0.28833(2) 0.71104(3)
O10_3 O 0.82785(16) 0.56373(16) 0.31727(19)
O11_3 O 0.7659(2) 0.6100(3) 0.3923(3)
O13_3 O 0.82817(13) 0.57533(12) 0.10008(17)
H13_5 H 0.808849 0.693199 0.426987
H14_5 H 0.754889 0.716768 0.482599
O5_3 O 0.43627(16) 0.32785(16) 0.81727(19)
O6_3 O 0.3900(3) 0.2659(2) 0.8923(3)
C15_5 C 0.4349(3) 0.3380(2) 0.9727(3)
C17_5 C 0.4561(2) 0.3911(2) 0.9726(3)
H9_5 H 0.461389 0.409925 0.918822
C19_5 C 0.4195(3) 0.3085(2) 0.8876(3)
O8_4 O 0.07533(12) 0.17183(13) 0.60008(17)
C1_6 C 0.08875(18) 0.13690(17) 0.4563(2)
C2_6 C 0.11149(18) 0.15775(17) 0.5426(2)
N1_6 N 0.0217(2) 0.08230(19) 0.2116(2)
C6_6 C 0.0309(2) 0.1304(2) 0.4444(3)
H1_6 H 0.006436 0.138584 0.491098
C7_6 C 0.0446(2) 0.1001(2) 0.2943(2)
C9_6 C 0.1242(2) 0.1232(2) 0.3859(3)
H3_6 H 0.163235 0.126395 0.392936
C12_6 C 0.0091(2) 0.1119(2) 0.3646(3)
C13_6 C 0.0369(2) 0.1096(2) 0.1317(3)
C16_6 C 0.1025(2) 0.1050(2) 0.3060(3)
H8_6 H 0.126969 0.096022 0.259610
C18_6 C 0.0587(3) 0.1632(2) 0.1315(3)
H10_6 H 0.064623 0.181958 0.185179
C20_6 C 0.0300(3) 0.0823(2) 0.0502(3)
H11_6 H 0.015725 0.045603 0.048720
C21_6 C 0.0722(3) 0.1900(2) 0.0525(3)
H12_6 H 0.086126 0.226878 0.053169
Co6_2 Co 0.08922(3) 0.21167(2) 0.71104(3)
O5_4 O 0.06373(16) 0.17215(16) 0.81727(19)
O6_4 O 0.1100(3) 0.2341(2) 0.8923(3)
C15_6 C 0.0651(3) 0.1620(2) 0.9727(3)
C17_6 C 0.0439(2) 0.1089(2) 0.9726(3)
H9_6 H 0.038611 0.090075 0.918822
C19_6 C 0.0805(3) 0.1915(2) 0.8876(3)
Co2_4 Co 0.71167(2) 0.91078(3) 0.21104(3)
O2_6 O 0.7278(3) 0.7863(3) 0.4226(5)
O3_6 O 0.83679(14) 0.88953(15) 0.2750(2)
O4_6 O 0.78507(15) 0.95087(14) 0.1964(2)
C3_6 C 0.8812(2) 0.9726(2) 0.2233(2)
C4_6 C 0.8310(2) 0.9345(2) 0.2321(3)
C8_6 C 0.9310(2) 0.9593(2) 0.2670(3)
H2_6 H 0.933568 0.926030 0.299901
C11_6 C 0.9772(2) 0.9953(2) 0.2618(3)
O10_4 O 0.67215(16) 0.93627(16) 0.31727(19)
O11_4 O 0.7341(2) 0.8900(3) 0.3923(3)
O13_4 O 0.67183(13) 0.92467(12) 0.10008(17)
H13_6 H 0.691151 0.806801 0.426987
H14_6 H 0.745111 0.783232 0.482599
O2_7 O 0.2863(3) 0.2722(3) 0.9226(5)
O3_7 O 0.38953(15) 0.16321(14) 0.7750(2)
O4_7 O 0.45087(14) 0.21493(15) 0.6964(2)
C3_7 C 0.4726(2) 0.1188(2) 0.7233(2)
C4_7 C 0.4345(2) 0.1690(2) 0.7321(3)
C5_5 C 0.5447(2) 0.0262(2) 0.7134(2)
C8_7 C 0.4593(2) 0.0690(2) 0.7670(3)
H2_7 H 0.426030 0.066432 0.799901
C10_5 C 0.5216(2) 0.1209(2) 0.6739(3)
H4_5 H 0.530627 0.154072 0.643716
C11_7 C 0.4953(2) 0.0228(2) 0.7618(3)
H6_5 H 0.607484 0.029864 0.858133
C14_5 C 0.5576(2) 0.0751(2) 0.6680(3)
H7_5 H 0.590281 0.077251 0.633647
H13_7 H 0.306801 0.308849 0.926987
H14_7 H 0.283232 0.254889 0.982599
C2_7 C 0.65775(17) 0.88851(18) 0.0426(2)
C1_7 C 0.63690(17) 0.91125(18) 0.9563(2)
N1_7 N 0.58230(19) 0.9783(2) 0.7116(2)
C6_7 C 0.6304(2) 0.9691(2) 0.9444(3)
H1_7 H 0.638584 0.993564 0.991098
C7_7 C 0.6001(2) 0.9554(2) 0.7943(2)
C9_7 C 0.6232(2) 0.8758(2) 0.8859(3)
H3_7 H 0.626395 0.836765 0.892936
H5_5 H 0.486177 0.989418 0.791301
C12_7 C 0.6119(2) 0.9909(2) 0.8646(3)
C13_7 C 0.6096(2) 0.9631(2) 0.6317(3)
C15_7 C 0.6620(2) 0.9349(3) 0.4727(3)
C16_7 C 0.6050(2) 0.8975(2) 0.8060(3)
H8_7 H 0.596022 0.873031 0.759610
C17_7 C 0.6089(2) 0.9561(2) 0.4726(3)
H9_7 H 0.590075 0.961389 0.418822
C18_7 C 0.6632(2) 0.9413(3) 0.6315(3)
H10_7 H 0.681958 0.935377 0.685179
C19_7 C 0.6915(2) 0.9195(3) 0.3876(3)
C20_7 C 0.5823(2) 0.9700(3) 0.5502(3)
H11_7 H 0.545603 0.984275 0.548720
C21_7 C 0.6900(2) 0.9278(3) 0.5525(3)
H12_7 H 0.726878 0.913874 0.553169
O2_8 O 0.2137(3) 0.2278(3) 0.9226(5)
O3_8 O 0.11047(15) 0.33679(14) 0.7750(2)
O4_8 O 0.04913(14) 0.28507(15) 0.6964(2)
C3_8 C 0.0274(2) 0.3812(2) 0.7233(2)
C4_8 C 0.0655(2) 0.3310(2) 0.7321(3)
C8_8 C 0.0407(2) 0.4310(2) 0.7670(3)
H2_8 H 0.073970 0.433568 0.799901
C11_8 C 0.0047(2) 0.4772(2) 0.7618(3)
H5_6 H 0.013823 0.510582 0.791301
H13_8 H 0.193199 0.191151 0.926987
H14_8 H 0.216768 0.245111 0.982599
C2_8 C 0.84225(17) 0.61149(18) 0.0426(2)
C1_8 C 0.86310(17) 0.58875(18) 0.9563(2)
N1_8 N 0.91770(19) 0.5217(2) 0.7116(2)
C5_6 C 0.9553(2) 0.4738(2) 0.7134(2)
C6_8 C 0.8696(2) 0.5309(2) 0.9444(3)
H1_8 H 0.861416 0.506436 0.991098
C7_8 C 0.8999(2) 0.5446(2) 0.7943(2)
C9_8 C 0.8768(2) 0.6242(2) 0.8859(3)
H3_8 H 0.873605 0.663235 0.892936
C10_6 C 0.9784(2) 0.3791(2) 0.6739(3)
H4_6 H 0.969373 0.345928 0.643716
C12_8 C 0.8881(2) 0.5091(2) 0.8646(3)
H6_6 H 0.892516 0.470136 0.858133
C13_8 C 0.8904(2) 0.5369(2) 0.6317(3)
C14_6 C 0.9424(2) 0.4249(2) 0.6680(3)
H7_6 H 0.909719 0.422749 0.633647
C15_8 C 0.8380(2) 0.5651(3) 0.4727(3)
C16_8 C 0.8950(2) 0.6025(2) 0.8060(3)
H8_8 H 0.903978 0.626969 0.759610
C17_8 C 0.8911(2) 0.5439(2) 0.4726(3)
H9_8 H 0.909925 0.538611 0.418822
C18_8 C 0.8368(2) 0.5587(3) 0.6315(3)
H10_8 H 0.818042 0.564623 0.685179
C19_8 C 0.8085(2) 0.5805(3) 0.3876(3)
C20_8 C 0.9177(2) 0.5300(3) 0.5502(3)
H11_8 H 0.954397 0.515725 0.548720
C21_8 C 0.8100(2) 0.5722(3) 0.5525(3)
H12_8 H 0.773122 0.586126 0.553169
C5_7 C 0.0262(2) 0.9553(2) 0.7866(2)
C10_7 C 0.1209(2) 0.9784(2) 0.8261(3)
H4_7 H 0.154072 0.969373 0.856284
H6_7 H 0.029864 0.892516 0.641867
C14_7 C 0.0751(2) 0.9424(2) 0.8320(3)
H7_7 H 0.077251 0.909719 0.866353
H5_7 H 0.989418 0.013823 0.708699
H5_8 H 0.010582 0.986177 0.291301
C5_8 C 0.9738(2) 0.0447(2) 0.2134(2)
C10_8 C 0.8791(2) 0.0216(2) 0.1739(3)
H4_8 H 0.845928 0.030627 0.143716
H6_8 H 0.970136 0.107484 0.358133
C14_8 C 0.9249(2) 0.0576(2) 0.1680(3)
H7_8 H 0.922749 0.090281 0.133647
loop_
_geom_bond_atom_site_label_1
_geom_bond_atom_site_label_2
_geom_bond_site_symmetry_1
_geom_bond_site_symmetry_2
O5 C19 1_555 1_555
O6 C19 1_555 1_555
C15 C17 1_555 1_555
C17 H9 1_555 1_555
C19 C15 1_555 1_555
Co3 O6 1_555 1_555
Co7 O5 1_555 1_555
Co1 O1 1_555 1_555
Co2 O1 1_555 1_555
O1 Co5 1_555 1_555
O2 Co1 1_555 1_555
O3 Co1 1_555 1_555
O4 Co2 1_555 1_555
O7 C2 1_555 1_555
O8 C2 1_555 1_555
C1 C2 1_555 1_555
N1 C5 1_555 1_555
C3 C4 1_555 1_555
C4 O3 1_555 1_555
C5 C11 1_555 1_555
C6 C1 1_555 1_555
H1 C6 1_555 1_555
C7 N1 1_555 1_555
C8 C3 1_555 1_555
H2 C8 1_555 1_555
C9 C1 1_555 1_555
H3 C9 1_555 1_555
C10 C3 1_555 1_555
H4 C10 1_555 1_555
C11 C8 1_555 1_555
H5 C11 1_555 1_555
C12 C6 1_555 1_555
H6 C12 1_555 1_555
C13 N1 1_555 1_555
C14 C5 1_555 1_555
H7 C14 1_555 1_555
C16 C7 1_555 1_555
H8 C16 1_555 1_555
C18 C13 1_555 1_555
H10 C18 1_555 1_555
C20 C13 1_555 1_555
H11 C20 1_555 1_555
H12 C21 1_555 1_555
Co4 O7 1_555 1_555
Co7 O8 1_555 1_555
O9 Co1 1_555 1_555
O10 Co2 1_555 1_555
O11 Co1 1_555 1_555
O12 Co1 1_555 1_555
O13 Co2 1_555 1_555
O4 C4 1_555 1_555
C7 C12 1_555 1_555
C9 C16 1_555 1_555
C10 C14 1_555 1_555
C18 C21 1_555 1_555
O2 H13 1_555 1_555
O2 H14 1_555 1_555
Co1_2 O1_2 1_555 1_555
Co2_2 O1_2 1_555 1_555
O1_2 Co5_2 1_555 1_555
O2_2 Co1_2 1_555 1_555
O3_2 Co1_2 1_555 1_555
O4_2 Co2_2 1_555 1_555
C3_2 C4_2 1_555 1_555
C4_2 O3_2 1_555 1_555
C8_2 C3_2 1_555 1_555
H2_2 C8_2 1_555 1_555
C11_2 C8_2 1_555 1_555
O9_2 Co1_2 1_555 1_555
O10_2 Co2_2 1_555 1_555
O11_2 Co1_2 1_555 1_555
O12_2 Co1_2 1_555 1_555
O13_2 Co2_2 1_555 1_555
O4_2 C4_2 1_555 1_555
O2_2 H13_2 1_555 1_555
O2_2 H14_2 1_555 1_555
O5_2 C19_2 1_555 1_555
O6_2 C19_2 1_555 1_555
C15_2 C17_2 1_555 1_555
C17_2 H9_2 1_555 1_555
C19_2 C15_2 1_555 1_555
Co3_2 O6_2 1_555 1_555
Co7_2 O5_2 1_555 1_555
O7_2 C2_2 1_555 1_555
O8_2 C2_2 1_555 1_555
C1_2 C2_2 1_555 1_555
C6_2 C1_2 1_555 1_555
H1_2 C6_2 1_555 1_555
C7_2 N1_2 1_555 1_555
C9_2 C1_2 1_555 1_555
H3_2 C9_2 1_555 1_555
C12_2 C6_2 1_555 1_555
C13_2 N1_2 1_555 1_555
C16_2 C7_2 1_555 1_555
H8_2 C16_2 1_555 1_555
C18_2 C13_2 1_555 1_555
H10_2 C18_2 1_555 1_555
C20_2 C13_2 1_555 1_555
H11_2 C20_2 1_555 1_555
H12_2 C21_2 1_555 1_555
Co4_2 O7_2 1_555 1_555
Co7_2 O8_2 1_555 1_555
C7_2 C12_2 1_555 1_555
C9_2 C16_2 1_555 1_555
C18_2 C21_2 1_555 1_555
O10_2 C19_3 1_555 1_555
O11_2 C19_3 1_555 1_555
C6_3 C1_3 1_555 1_555
H1_3 C6_3 1_555 1_555
C7_3 N1_3 1_555 1_555
C9_3 C1_3 1_555 1_555
H3_3 C9_3 1_555 1_555
C12_3 C6_3 1_555 1_555
C13_3 N1_3 1_555 1_555
C15_3 C17_3 1_555 1_555
C16_3 C7_3 1_555 1_555
H8_3 C16_3 1_555 1_555
C17_3 H9_3 1_555 1_555
C18_3 C13_3 1_555 1_555
H10_3 C18_3 1_555 1_555
C19_3 C15_3 1_555 1_555
C20_3 C13_3 1_555 1_555
H11_3 C20_3 1_555 1_555
C21_3 C15_3 1_555 1_555
H12_3 C21_3 1_555 1_555
C7_3 C12_3 1_555 1_555
C9_3 C16_3 1_555 1_555
C17_3 C20_3 1_555 1_555
C18_3 C21_3 1_555 1_555
O7_3 C2_3 1_555 1_555
O13_2 C2_3 1_555 1_555
Co5_2 O7_3 1_555 1_555
Co3 O1_3 1_555 1_555
Co7 O1_3 1_555 1_555
O1_3 Co4 1_555 1_555
O2_3 Co3 1_555 1_555
O3_3 Co3 1_555 1_555
O4_3 Co7 1_555 1_555
C3_3 C4_3 1_555 1_555
C4_3 O3_3 1_555 1_555
C5_2 C11_3 1_555 1_555
C8_3 C3_3 1_555 1_555
H2_3 C8_3 1_555 1_555
C10_2 C3_3 1_555 1_555
H4_2 C10_2 1_555 1_555
C11_3 C8_3 1_555 1_555
C14_2 C5_2 1_555 1_555
H7_2 C14_2 1_555 1_555
O9_3 Co3 1_555 1_555
O12_3 Co3 1_555 1_555
O4_3 C4_3 1_555 1_555
C10_2 C14_2 1_555 1_555
O2_3 H13_3 1_555 1_555
O2_3 H14_3 1_555 1_555
O10 C19_4 1_555 1_555
O11 C19_4 1_555 1_555
N1_4 C5_3 1_555 1_555
C6_4 C1_4 1_555 1_555
H1_4 C6_4 1_555 1_555
C7_4 N1_4 1_555 1_555
C9_4 C1_4 1_555 1_555
H3_4 C9_4 1_555 1_555
H4_3 C10_3 1_555 1_555
C12_4 C6_4 1_555 1_555
H6_3 C12_4 1_555 1_555
C13_4 N1_4 1_555 1_555
C14_3 C5_3 1_555 1_555
H7_3 C14_3 1_555 1_555
C15_4 C17_4 1_555 1_555
C16_4 C7_4 1_555 1_555
H8_4 C16_4 1_555 1_555
C17_4 H9_4 1_555 1_555
C18_4 C13_4 1_555 1_555
H10_4 C18_4 1_555 1_555
C19_4 C15_4 1_555 1_555
C20_4 C13_4 1_555 1_555
H11_4 C20_4 1_555 1_555
C21_4 C15_4 1_555 1_555
H12_4 C21_4 1_555 1_555
C7_4 C12_4 1_555 1_555
C9_4 C16_4 1_555 1_555
C10_3 C14_3 1_555 1_555
C17_4 C20_4 1_555 1_555
C18_4 C21_4 1_555 1_555
O7_4 C2_4 1_555 1_555
O13 C2_4 1_555 1_555
Co5 O7_4 1_555 1_555
Co3_2 O1_4 1_555 1_555
Co7_2 O1_4 1_555 1_555
O1_4 Co4_2 1_555 1_555
O2_4 Co3_2 1_555 1_555
O3_4 Co3_2 1_555 1_555
O4_4 Co7_2 1_555 1_555
C3_4 C4_4 1_555 1_555
C4_4 O3_4 1_555 1_555
C8_4 C3_4 1_555 1_555
H2_4 C8_4 1_555 1_555
C11_4 C8_4 1_555 1_555
H5_3 C11_4 1_555 1_555
O9_4 Co3_2 1_555 1_555
O12_4 Co3_2 1_555 1_555
O4_4 C4_4 1_555 1_555
O2_4 H13_4 1_555 1_555
O2_4 H14_4 1_555 1_555
Co4 O9_4 1_555 1_555
Co2_3 O9_4 1_555 1_555
O2_5 Co4 1_555 1_555
O3_5 Co4 1_555 1_555
O4_5 Co2_3 1_555 1_555
O12 C2_5 1_555 1_555
O8_3 C2_5 1_555 1_555
C1_5 C2_5 1_555 1_555
N1_5 C5_4 1_555 1_555
C3_5 C4_5 1_555 1_555
C4_5 O3_5 1_555 1_555
C5_4 C11_5 1_555 1_555
C6_5 C1_5 1_555 1_555
H1_5 C6_5 1_555 1_555
C7_5 N1_5 1_555 1_555
C8_5 C3_5 1_555 1_555
H2_5 C8_5 1_555 1_555
C9_5 C1_5 1_555 1_555
H3_5 C9_5 1_555 1_555
C10_4 C3_5 1_555 1_555
H4_4 C10_4 1_555 1_555
C11_5 C8_5 1_555 1_555
H5_4 C11_5 1_555 1_555
C12_5 C6_5 1_555 1_555
H6_4 C12_5 1_555 1_555
C13_5 N1_5 1_555 1_555
C14_4 C5_4 1_555 1_555
H7_4 C14_4 1_555 1_555
C16_5 C7_5 1_555 1_555
H8_5 C16_5 1_555 1_555
C18_5 C13_5 1_555 1_555
H10_5 C18_5 1_555 1_555
C20_5 C13_5 1_555 1_555
H11_5 C20_5 1_555 1_555
H12_5 C21_5 1_555 1_555
Co6 O8_3 1_555 1_555
O10_3 Co2_3 1_555 1_555
O11_3 Co4 1_555 1_555
O13_3 Co2_3 1_555 1_555
O4_5 C4_5 1_555 1_555
C7_5 C12_5 1_555 1_555
C9_5 C16_5 1_555 1_555
C10_4 C14_4 1_555 1_555
C18_5 C21_5 1_555 1_555
O2_5 H13_5 1_555 1_555
O2_5 H14_5 1_555 1_555
O5_3 C19_5 1_555 1_555
O6_3 C19_5 1_555 1_555
C15_5 C17_5 1_555 1_555
C17_5 H9_5 1_555 1_555
C19_5 C15_5 1_555 1_555
Co5_2 O6_3 1_555 1_555
Co6 O5_3 1_555 1_555
O12_2 C2_6 1_555 1_555
O8_4 C2_6 1_555 1_555
C1_6 C2_6 1_555 1_555
C6_6 C1_6 1_555 1_555
H1_6 C6_6 1_555 1_555
C7_6 N1_6 1_555 1_555
C9_6 C1_6 1_555 1_555
H3_6 C9_6 1_555 1_555
C12_6 C6_6 1_555 1_555
C13_6 N1_6 1_555 1_555
C16_6 C7_6 1_555 1_555
H8_6 C16_6 1_555 1_555
C18_6 C13_6 1_555 1_555
H10_6 C18_6 1_555 1_555
C20_6 C13_6 1_555 1_555
H11_6 C20_6 1_555 1_555
H12_6 C21_6 1_555 1_555
Co6_2 O8_4 1_555 1_555
C7_6 C12_6 1_555 1_555
C9_6 C16_6 1_555 1_555
C18_6 C21_6 1_555 1_555
O5_4 C19_6 1_555 1_555
O6_4 C19_6 1_555 1_555
C15_6 C17_6 1_555 1_555
C17_6 H9_6 1_555 1_555
C19_6 C15_6 1_555 1_555
Co5 O6_4 1_555 1_555
Co6_2 O5_4 1_555 1_555
Co4_2 O9_3 1_555 1_555
Co2_4 O9_3 1_555 1_555
O2_6 Co4_2 1_555 1_555
O3_6 Co4_2 1_555 1_555
O4_6 Co2_4 1_555 1_555
C3_6 C4_6 1_555 1_555
C4_6 O3_6 1_555 1_555
C8_6 C3_6 1_555 1_555
H2_6 C8_6 1_555 1_555
C11_6 C8_6 1_555 1_555
O10_4 Co2_4 1_555 1_555
O11_4 Co4_2 1_555 1_555
O13_4 Co2_4 1_555 1_555
O4_6 C4_6 1_555 1_555
O2_6 H13_6 1_555 1_555
O2_6 H14_6 1_555 1_555
Co5_2 O9 1_555 1_555
Co6 O9 1_555 1_555
O2_7 Co5_2 1_555 1_555
O3_7 Co5_2 1_555 1_555
O4_7 Co6 1_555 1_555
C3_7 C4_7 1_555 1_555
C4_7 O3_7 1_555 1_555
C5_5 C11_7 1_555 1_555
C8_7 C3_7 1_555 1_555
H2_7 C8_7 1_555 1_555
C10_5 C3_7 1_555 1_555
H4_5 C10_5 1_555 1_555
C11_7 C8_7 1_555 1_555
C14_5 C5_5 1_555 1_555
H7_5 C14_5 1_555 1_555
O4_7 C4_7 1_555 1_555
C10_5 C14_5 1_555 1_555
O2_7 H13_7 1_555 1_555
O2_7 H14_7 1_555 1_555
O12_3 C2_7 1_555 1_555
O13_4 C2_7 1_555 1_555
O10_4 C19_7 1_555 1_555
O11_4 C19_7 1_555 1_555
C6_7 C1_7 1_555 1_555
H1_7 C6_7 1_555 1_555
C7_7 N1_7 1_555 1_555
C9_7 C1_7 1_555 1_555
H3_7 C9_7 1_555 1_555
C12_7 C6_7 1_555 1_555
C13_7 N1_7 1_555 1_555
C15_7 C17_7 1_555 1_555
C16_7 C7_7 1_555 1_555
H8_7 C16_7 1_555 1_555
C17_7 H9_7 1_555 1_555
C18_7 C13_7 1_555 1_555
H10_7 C18_7 1_555 1_555
C19_7 C15_7 1_555 1_555
C20_7 C13_7 1_555 1_555
H11_7 C20_7 1_555 1_555
C21_7 C15_7 1_555 1_555
H12_7 C21_7 1_555 1_555
C7_7 C12_7 1_555 1_555
C9_7 C16_7 1_555 1_555
C17_7 C20_7 1_555 1_555
C18_7 C21_7 1_555 1_555
Co5 O9_2 1_555 1_555
Co6_2 O9_2 1_555 1_555
O2_8 Co5 1_555 1_555
O3_8 Co5 1_555 1_555
O4_8 Co6_2 1_555 1_555
C3_8 C4_8 1_555 1_555
C4_8 O3_8 1_555 1_555
C8_8 C3_8 1_555 1_555
H2_8 C8_8 1_555 1_555
C11_8 C8_8 1_555 1_555
H5_6 C11_8 1_555 1_555
O4_8 C4_8 1_555 1_555
O2_8 H13_8 1_555 1_555
O2_8 H14_8 1_555 1_555
O12_4 C2_8 1_555 1_555
O13_3 C2_8 1_555 1_555
O10_3 C19_8 1_555 1_555
O11_3 C19_8 1_555 1_555
N1_8 C5_6 1_555 1_555
C6_8 C1_8 1_555 1_555
H1_8 C6_8 1_555 1_555
C7_8 N1_8 1_555 1_555
C9_8 C1_8 1_555 1_555
H3_8 C9_8 1_555 1_555
H4_6 C10_6 1_555 1_555
C12_8 C6_8 1_555 1_555
H6_6 C12_8 1_555 1_555
C13_8 N1_8 1_555 1_555
C14_6 C5_6 1_555 1_555
H7_6 C14_6 1_555 1_555
C15_8 C17_8 1_555 1_555
C16_8 C7_8 1_555 1_555
H8_8 C16_8 1_555 1_555
C17_8 H9_8 1_555 1_555
C18_8 C13_8 1_555 1_555
H10_8 C18_8 1_555 1_555
C19_8 C15_8 1_555 1_555
C20_8 C13_8 1_555 1_555
H11_8 C20_8 1_555 1_555
C21_8 C15_8 1_555 1_555
H12_8 C21_8 1_555 1_555
C7_8 C12_8 1_555 1_555
C9_8 C16_8 1_555 1_555
C10_6 C14_6 1_555 1_555
C17_8 C20_8 1_555 1_555
C18_8 C21_8 1_555 1_555
H4_7 C10_7 1_555 1_555
C14_7 C5_7 1_555 1_555
H7_7 C14_7 1_555 1_555
C10_7 C14_7 1_555 1_555
H4_8 C10_8 1_555 1_555
C14_8 C5_8 1_555 1_555
H7_8 C14_8 1_555 1_555
C10_8 C14_8 1_555 1_555

#END
