
###############################################################################
#
# This file contains modified crystal structure data generated from the
# MOF subset of the Cambridge Structural Database (CSD) v543 
# hosted by the Cambridge Crystallographic Data Centre (CCDC).
#
# This work is licensed under the Creative Commons
# Attribution-NonCommercial-ShareAlike 4.0 International License.
# To view a copy of this license, visit
# http://creativecommons.org/licenses/by-nc-sa/4.0/
# or send a letter to
# Creative Commons, PO Box 1866, Mountain View, CA 94042, USA.
#
# CIF created using the CSD Python API on 29 September 2022
# The structure has been converted into the P1 space group
# The structure has a 3D framework
# The original CSD entry UWUKII is in the orthorhombic crystal system
# The framework has been calculated to contain at least 10.0% void space
# The void calculation uses a probe of radius 1.32A, grid spacing 0.4
# H atom positions have been added when not included in the experimental data
#
###############################################################################

data_UWUKII
_chemical_formula_moiety         '(C216 H184 Co16 N56 O94)n'
_symmetry_cell_setting           triclinic
_symmetry_space_group_name_H-M   'P 1'
_symmetry_Int_Tables_number      1
_space_group_name_Hall           'P 1'
loop_
_symmetry_equiv_pos_site_id
_symmetry_equiv_pos_as_xyz
1 x,y,z
_cell_length_a                   20.8935(7)
_cell_length_b                   16.0332(6)
_cell_length_c                   28.1694(10)
_cell_angle_alpha                90
_cell_angle_beta                 90
_cell_angle_gamma                90
_cell_volume                     9436.46
loop_
_atom_site_label
_atom_site_type_symbol
_atom_site_fract_x
_atom_site_fract_y
_atom_site_fract_z
N4 N 0.0167(5) 0.3259(7) 0.8985(4)
C6 C 0.0727(7) 0.2708(10) 0.9000(7)
C7 C 0.0074(8) 0.3958(9) 0.9288(6)
H39 H 0.0946323 0.26812 0.864963
H40 H 0.107215 0.294925 0.925507
H41 H 0.0578316 0.208444 0.910643
H45 H 0.049973 0.40517 0.950456
Co13 Co 0.77677(7) 0.12198(10) 0.92494(5)
O33 O 0.7210(3) 0.0332(4) 0.9565(3)
H13 H 0.8121 0.1489 0.0102
C46 C 0.5644(5) 0.8526(6) 0.0422(4)
C47 C 0.6697(5) 0.9408(7) 0.0109(4)
C48 C 0.6105(5) 0.8683(7) 0.0763(4)
H31 H 0.5291 0.8206 0.0508
C49 C 0.6680(5) 0.9154(6) 0.0568(3)
N13 N 0.6119(4) 0.8437(6) 0.1216(3)
H32 H 0.7025 0.9268 0.0766
O23 O 0.7806(3) 0.9820(4) 0.0164(3)
C51 C 0.5671(5) 0.7951(8) 0.1441(4)
O24 O 0.5242(5) 0.7607(6) 0.1213(4)
C52 C 0.5786(6) 0.7682(8) 0.1907(4)
C53 C 0.5352(6) 0.7189(8) 0.2172(4)
C54 C 0.6251(5) 0.7855(8) 0.2263(4)
N14 N 0.5622(5) 0.7090(7) 0.2575(4)
H33 H 0.4957 0.6983 0.2075
H34 H 0.6592 0.8219 0.2217
H35 H 0.5457 0.6782 0.2793
N15 N 0.3566(4) 0.7468(5) 0.0242(3)
N16 N 0.6161(4) 0.7483(5) 0.2637(3)
Co14 Co 0.65685(6) 0.74881(9) 0.33513(5)
H38 H 0.649814 0.862821 0.141324
C16 C 0.5028(5) 0.0135(6) 0.7964(3)
O13 O 0.4542(3) 0.0172(5) 0.7732(3)
C17 C 0.5597(5) 0.0604(6) 0.7787(3)
C18 C 0.5604(5) 0.0953(6) 0.7339(3)
C19 C 0.6112(4) 0.0762(6) 0.8107(3)
H9 H 0.5252 0.0887 0.7141
C20 C 0.6126(5) 0.1396(6) 0.7182(3)
C21 C 0.6638(5) 0.1216(6) 0.7961(3)
H10 H 0.6093 0.0558 0.8416
N6 N 0.6139(4) 0.1704(6) 0.6709(3)
C22 C 0.6667(5) 0.1521(6) 0.7488(4)
C23 C 0.7214(5) 0.1415(6) 0.8276(3)
O14 O 0.7152(3) 0.1126(4) 0.8683(2)
O16 O 0.8343(3) 0.1288(4) 0.9877(2)
O17 O 0.7272(3) 0.2293(4) 0.9506(2)
C24 C 0.6389(5) 0.2424(7) 0.6561(4)
H11 H 0.7030 0.1797 0.7378
C25 C 0.7635(4) 0.2776(6) 0.9303(3)
H12 H 0.8468 0.0801 0.9951
O18 O 0.6580(4) 0.2964(6) 0.6868(3)
C26 C 0.6408(5) 0.2612(7) 0.6078(4)
C27 C 0.7536(5) 0.3679(6) 0.9344(3)
C28 C 0.6211(5) 0.2176(7) 0.5653(4)
C29 C 0.6746(5) 0.3312(7) 0.5898(4)
C30 C 0.8046(4) 0.4228(6) 0.9261(3)
C31 C 0.6956(5) 0.3974(6) 0.9496(3)
N7 N 0.6434(4) 0.2532(5) 0.5242(3)
H14 H 0.5958 0.1699 0.5658
N8 N 0.6741(4) 0.3248(5) 0.5431(3)
H15 H 0.6934 0.3735 0.6076
H16 H 0.8449 0.4030 0.9178
C32 C 0.7926(4) 0.5095(6) 0.9309(3)
C33 C 0.6850(4) 0.4829(6) 0.9509(3)
H17 H 0.6636 0.3605 0.9589
H18 H 0.6915 0.3618 0.5251
C34 C 0.7324(4) 0.5384(6) 0.9462(3)
C35 C 0.8445(4) 0.5737(6) 0.9211(3)
N9 N 0.6233(4) 0.5181(5) 0.9658(3)
H19 H 0.7257 0.5946 0.9528
O19 O 0.8372(3) 0.6462(4) 0.9400(2)
C36 C 0.5665(5) 0.4787(6) 0.9725(4)
O20 O 0.5625(4) 0.3991(5) 0.9724(3)
C37 C 0.5103(4) 0.5303(6) 0.9736(3)
C38 C 0.4487(5) 0.4947(7) 0.9729(4)
C39 C 0.4996(5) 0.6183(6) 0.9706(3)
N10 N 0.4085(4) 0.5623(5) 0.9722(3)
H20 H 0.4378 0.4385 0.9729
N11 N 0.4398(4) 0.6379(5) 0.9685(3)
H21 H 0.5325 0.6574 0.9703
H22 H 0.3675 0.5580 0.9740
O21 O 0.3127(3) 0.6750(4) 0.9363(2)
O22 O 0.4698(3) 0.8135(4) 0.9788(2)
C40 C 0.2578(5) 0.7010(7) 0.9299(4)
C41 C 0.5179(5) 0.8607(6) 0.9625(3)
N12 N 0.2174(4) 0.6709(5) 0.8969(3)
H23 H 0.2434 0.7443 0.9491
C42 C 0.5678(5) 0.8805(6) 0.9986(4)
C43 C 0.2323(5) 0.5975(7) 0.8710(4)
C44 C 0.1568(6) 0.7118(8) 0.8846(5)
C45 C 0.6208(5) 0.9280(6) 0.9808(3)
H24 H 0.2501 0.6125 0.8407
H25 H 0.1941 0.5653 0.8662
H26 H 0.2629 0.5649 0.8884
H27 H 0.1428 0.7457 0.9107
H28 H 0.1250 0.6703 0.8779
H29 H 0.1629 0.7463 0.8571
H30 H 0.6213 0.9489 0.9500
C50 C 0.7284(5) 0.9908(6) 0.9938(3)
O26 O 0.8467(3) 0.0519(4) 0.8936(2)
Co6 Co 0.84315(6) 0.24881(9) 0.83513(5)
O27 O 0.7637(3) 0.1855(4) 0.8109(2)
O28 O 0.8102(3) 0.2473(4) 0.9050(2)
Co8 Co 0.60847(6) 0.24941(9) 0.45422(5)
O29 O 0.8878(3) 0.5501(4) 0.8955(2)
Co9 Co 0.95832(7) 0.62176(9) 0.86409(5)
Co10 Co 0.89153(6) 0.74941(9) 0.95422(5)
O30 O 0.4250(3) 0.7524(4) 0.8830(2)
Co11 Co 0.39153(6) 0.75059(9) 0.95422(5)
Co12 Co 0.45832(7) 0.87824(9) 0.86409(5)
O31 O 0.3372(3) 0.8538(4) 0.9400(2)
O32 O 0.5176(3) 0.8899(4) 0.9216(2)
H36 H 0.593639 0.133684 0.645686
H37 H 0.623092 0.580481 0.971934
N1 N 0.7963(4) 0.3600(5) 0.8173(3)
O1 O 0.9237(3) 0.3237(5) 0.8569(3)
N2 N 0.8839(4) 0.2483(5) 0.7637(3)
O2 O 0.8975(3) 0.1431(4) 0.8474(2)
C1 C 0.7339(5) 0.3845(6) 0.8191(4)
N3 N 0.8275(4) 0.4334(5) 0.8111(3)
C2 C 0.9756(6) 0.2990(9) 0.8689(6)
C3 C 0.7289(4) 0.4698(6) 0.8146(4)
H1 H 0.8684 0.4381 0.8090
C4 C 0.7875(5) 0.4964(6) 0.8087(3)
H2 H 0.9883 0.2506 0.8533
C5 C 0.6715(5) 0.5263(6) 0.8227(3)
H3 H 0.7991 0.5517 0.8037
N5 N 0.6162(4) 0.4848(5) 0.8282(3)
O5 O 0.6776(4) 0.6004(5) 0.8255(3)
C8 C 0.5555(4) 0.5212(6) 0.8363(4)
C9 C 0.5049(4) 0.4614(6) 0.8456(3)
C10 C 0.5437(4) 0.6046(6) 0.8414(3)
H4 H 0.5126 0.4044 0.8435
C11 C 0.4442(4) 0.4913(5) 0.8578(3)
C12 C 0.4837(4) 0.6319(6) 0.8565(3)
H5 H 0.5757 0.6432 0.8347
C13 C 0.4333(4) 0.5727(6) 0.8640(3)
C14 C 0.3905(4) 0.4276(5) 0.8669(3)
C15 C 0.4720(5) 0.7231(6) 0.8605(4)
H6 H 0.3930 0.5910 0.8733
O6 O 0.3467(3) 0.4481(4) 0.8936(2)
O8 O 0.5114(3) 0.7723(4) 0.8414(3)
Co2 Co 0.27677(7) 0.37802(10) 0.92494(5)
O9 O 0.4052(3) 0.8642(4) 0.8007(2)
O10 O 0.5103(3) 0.9714(4) 0.8328(2)
O11 O 0.3878(3) 0.9499(4) 0.8955(2)
H7 H 0.3920 0.9117 0.7915
H8 H 0.3733 0.8326 0.8060
O25 O 0.3975(3) 0.3569(4) 0.8474(2)
Co5 Co 0.34315(6) 0.25119(9) 0.83513(5)
H42 H 0.618108 0.421623 0.826384
H43 H 0.69346 0.342353 0.8235
H44 H 0.966363 0.38454 0.951756
H46 H 0.998743 0.451219 0.907391
Co1 Co 0.15685(6) 0.75119(9) 0.33513(5)
N1_2 N 0.2037(4) 0.6400(5) 0.3173(3)
O1_2 O 0.0763(3) 0.6763(5) 0.3569(3)
N2_2 N 0.1161(4) 0.7517(5) 0.2637(3)
O2_2 O 0.1025(3) 0.8569(4) 0.3474(2)
O3 O 0.2363(3) 0.8145(4) 0.3109(2)
O4 O 0.1898(3) 0.7527(4) 0.4050(2)
C1_2 C 0.2661(5) 0.6155(6) 0.3191(4)
N3_2 N 0.1725(4) 0.5666(5) 0.3111(3)
C2_2 C 0.0244(6) 0.7010(9) 0.3689(6)
C3_2 C 0.2711(4) 0.5302(6) 0.3146(4)
H1_2 H 0.1316 0.5619 0.3090
C4_2 C 0.2125(5) 0.5036(6) 0.3087(3)
H2_2 H 0.0117 0.7494 0.3533
C5_2 C 0.3285(5) 0.4737(6) 0.3227(3)
H3_2 H 0.2009 0.4483 0.3037
N5_2 N 0.3838(4) 0.5152(5) 0.3282(3)
O5_2 O 0.3224(4) 0.3996(5) 0.3255(3)
C8_2 C 0.4445(4) 0.4788(6) 0.3363(4)
C9_2 C 0.4951(4) 0.5386(6) 0.3456(3)
C10_2 C 0.4563(4) 0.3954(6) 0.3414(3)
H4_2 H 0.4874 0.5956 0.3435
C11_2 C 0.5558(4) 0.5087(5) 0.3578(3)
C12_2 C 0.5163(4) 0.3681(6) 0.3565(3)
H5_2 H 0.4243 0.3568 0.3347
C13_2 C 0.5667(4) 0.4273(6) 0.3640(3)
C14_2 C 0.6095(4) 0.5724(5) 0.3669(3)
C15_2 C 0.5280(5) 0.2769(6) 0.3605(4)
H6_2 H 0.6070 0.4090 0.3733
O6_2 O 0.6533(3) 0.5519(4) 0.3936(2)
O7 O 0.5750(3) 0.2476(4) 0.3830(2)
O8_2 O 0.4886(3) 0.2277(4) 0.3414(3)
Co2_2 Co 0.72323(7) 0.62198(10) 0.42494(5)
Co3 Co 0.54168(7) 0.12176(9) 0.36409(5)
O9_2 O 0.5948(3) 0.1358(4) 0.3007(2)
O10_2 O 0.4897(3) 0.0286(4) 0.3328(2)
O11_2 O 0.6122(3) 0.0501(4) 0.3955(2)
O12 O 0.4824(3) 0.1101(4) 0.4216(2)
H7_2 H 0.6080 0.0883 0.2915
H8_2 H 0.6267 0.1674 0.3060
O25_2 O 0.6025(3) 0.6431(4) 0.3474(2)
H42_2 H 0.381892 0.578377 0.326384
H43_2 H 0.30654 0.657647 0.3235
H44_2 H 0.0336374 0.61546 0.451756
H46_2 H 0.00125734 0.548781 0.407391
C16_2 C 0.4972(5) 0.9865(6) 0.2964(3)
O13_2 O 0.5458(3) 0.9828(5) 0.2732(3)
C17_2 C 0.4403(5) 0.9396(6) 0.2787(3)
C18_2 C 0.4396(5) 0.9047(6) 0.2339(3)
C19_2 C 0.3888(4) 0.9238(6) 0.3107(3)
H9_2 H 0.4748 0.9113 0.2141
C20_2 C 0.3874(5) 0.8604(6) 0.2182(3)
C21_2 C 0.3362(5) 0.8784(6) 0.2961(3)
H10_2 H 0.3907 0.9442 0.3416
N6_2 N 0.3861(4) 0.8296(6) 0.1709(3)
C22_2 C 0.3333(5) 0.8479(6) 0.2488(4)
C23_2 C 0.2786(5) 0.8585(6) 0.3276(3)
O14_2 O 0.2848(3) 0.8874(4) 0.3683(2)
O15 O 0.2790(3) 0.9668(4) 0.4565(3)
O16_2 O 0.1657(3) 0.8712(4) 0.4877(2)
O17_2 O 0.2728(3) 0.7707(4) 0.4506(2)
C24_2 C 0.3611(5) 0.7576(7) 0.1561(4)
H11_2 H 0.2970 0.8203 0.2378
C25_2 C 0.2365(4) 0.7224(6) 0.4303(3)
H12_2 H 0.1532 0.9199 0.4951
H13_2 H 0.1879 0.8511 0.5102
O18_2 O 0.3420(4) 0.7036(6) 0.1868(3)
C26_2 C 0.3592(5) 0.7388(7) 0.1078(4)
C27_2 C 0.2464(5) 0.6321(6) 0.4344(3)
C28_2 C 0.3789(5) 0.7824(7) 0.0653(4)
C29_2 C 0.3254(5) 0.6688(7) 0.0898(4)
C30_2 C 0.1954(4) 0.5772(6) 0.4261(3)
C31_2 C 0.3044(5) 0.6026(6) 0.4496(3)
H14_2 H 0.4042 0.8301 0.0658
N8_2 N 0.3259(4) 0.6752(5) 0.0431(3)
H15_2 H 0.3066 0.6265 0.1076
H16_2 H 0.1551 0.5970 0.4178
C32_2 C 0.2074(4) 0.4905(6) 0.4309(3)
C33_2 C 0.3150(4) 0.5171(6) 0.4509(3)
H17_2 H 0.3364 0.6395 0.4589
H18_2 H 0.3085 0.6382 0.0251
C34_2 C 0.2676(4) 0.4616(6) 0.4462(3)
C35_2 C 0.1555(4) 0.4263(6) 0.4211(3)
N9_2 N 0.3767(4) 0.4819(5) 0.4658(3)
H19_2 H 0.2743 0.4054 0.4528
O19_2 O 0.1628(3) 0.3538(4) 0.4400(2)
C36_2 C 0.4335(5) 0.5213(6) 0.4725(4)
O20_2 O 0.4375(4) 0.6009(5) 0.4724(3)
C37_2 C 0.4897(4) 0.4697(6) 0.4736(3)
C38_2 C 0.5513(5) 0.5053(7) 0.4729(4)
C39_2 C 0.5004(5) 0.3817(6) 0.4706(3)
N10_2 N 0.5915(4) 0.4377(5) 0.4722(3)
H20_2 H 0.5622 0.5615 0.4729
N11_2 N 0.5602(4) 0.3621(5) 0.4685(3)
H21_2 H 0.4675 0.3426 0.4703
H22_2 H 0.6325 0.4420 0.4740
O21_2 O 0.6873(3) 0.3250(4) 0.4363(2)
O22_2 O 0.5302(3) 0.1865(4) 0.4788(2)
C40_2 C 0.7422(5) 0.2990(7) 0.4299(4)
C41_2 C 0.4821(5) 0.1393(6) 0.4625(3)
N12_2 N 0.7826(4) 0.3291(5) 0.3969(3)
H23_2 H 0.7566 0.2557 0.4491
C42_2 C 0.4322(5) 0.1195(6) 0.4986(4)
C43_2 C 0.7677(5) 0.4025(7) 0.3710(4)
C44_2 C 0.8432(6) 0.2882(8) 0.3846(5)
C45_2 C 0.3792(5) 0.0720(6) 0.4808(3)
C46_2 C 0.4356(5) 0.1474(6) 0.5422(4)
H24_2 H 0.7499 0.3875 0.3407
H25_2 H 0.8059 0.4347 0.3662
H26_2 H 0.7371 0.4351 0.3884
H27_2 H 0.8572 0.2543 0.4107
H28_2 H 0.8750 0.3297 0.3779
H29_2 H 0.8371 0.2537 0.3571
H30_2 H 0.3787 0.0511 0.4500
C47_2 C 0.3303(5) 0.0592(7) 0.5109(4)
C48_2 C 0.3895(5) 0.1317(7) 0.5763(4)
H31_2 H 0.4709 0.1794 0.5508
C49_2 C 0.3320(5) 0.0846(6) 0.5568(3)
C50_2 C 0.2716(5) 0.0092(6) 0.4938(3)
N13_2 N 0.3881(4) 0.1563(6) 0.6216(3)
H32_2 H 0.2975 0.0732 0.5766
O23_2 O 0.2194(3) 0.0180(4) 0.5164(3)
C51_2 C 0.4329(5) 0.2049(8) 0.6441(4)
O24_2 O 0.4758(5) 0.2393(6) 0.6213(4)
C52_2 C 0.4214(6) 0.2318(8) 0.6907(4)
C53_2 C 0.4648(6) 0.2811(8) 0.7172(4)
C54_2 C 0.3749(5) 0.2145(8) 0.7263(4)
N14_2 N 0.4378(5) 0.2910(7) 0.7575(4)
H33_2 H 0.5043 0.3017 0.7075
H34_2 H 0.3408 0.1781 0.7217
H35_2 H 0.4543 0.3218 0.7793
O26_2 O 0.1533(3) 0.9481(4) 0.3936(2)
Co7 Co 0.22323(7) 0.87802(10) 0.42494(5)
O29_2 O 0.1122(3) 0.4499(4) 0.3955(2)
Co9_2 Co 0.04168(7) 0.37824(9) 0.36409(5)
Co10_2 Co 0.10847(6) 0.25059(9) 0.45422(5)
O31_2 O 0.6628(3) 0.1462(4) 0.4400(2)
N16_2 N 0.3839(4) 0.2517(5) 0.7637(3)
H36_2 H 0.406361 0.866316 0.145686
H37_2 H 0.376908 0.419519 0.471934
H38_2 H 0.350186 0.137179 0.641324
C39_3 C 0.0004(5) 0.1183(6) 0.4706(3)
N10_3 N 0.0915(4) 0.0623(5) 0.4722(3)
N11_3 N 0.0602(4) 0.1379(5) 0.4685(3)
H22_3 H 0.1325 0.0580 0.4740
O21_3 O 0.1873(3) 0.1750(4) 0.4363(2)
O22_3 O 0.0302(3) 0.3135(4) 0.4788(2)
C40_3 C 0.2422(5) 0.2010(7) 0.4299(4)
N12_3 N 0.2826(4) 0.1709(5) 0.3969(3)
H23_3 H 0.2566 0.2443 0.4491
C43_3 C 0.2677(5) 0.0975(7) 0.3710(4)
C44_3 C 0.3432(6) 0.2118(8) 0.3846(5)
H24_3 H 0.2499 0.1125 0.3407
H25_3 H 0.3059 0.0653 0.3662
H26_3 H 0.2371 0.0649 0.3884
H27_3 H 0.3572 0.2457 0.4107
H28_3 H 0.3750 0.1703 0.3779
H29_3 H 0.3371 0.2463 0.3571
H33_3 H 0.0043 0.1983 0.7075
O30_2 O 0.0750(3) 0.2524(4) 0.3830(2)
N15_2 N 0.1434(4) 0.2468(5) 0.5242(3)
C12_3 C 0.0163(4) 0.1319(6) 0.3565(3)
C13_3 C 0.0667(4) 0.0727(6) 0.3640(3)
C15_3 C 0.0280(5) 0.2231(6) 0.3605(4)
H6_3 H 0.1070 0.0910 0.3733
O9_3 O 0.0948(3) 0.3642(4) 0.3007(2)
H7_3 H 0.1080 0.4117 0.2915
H8_3 H 0.1267 0.3326 0.3060
O13_3 O 0.0458(3) 0.5172(5) 0.2732(3)
C38_3 C 0.0513(5) 0.9947(7) 0.4729(4)
H20_3 H 0.0622 0.9385 0.4729
C11_3 C 0.0558(4) 0.9913(5) 0.3578(3)
C14_3 C 0.1095(4) 0.9276(5) 0.3669(3)
C32_3 C 0.7074(4) 0.0095(6) 0.4309(3)
C34_3 C 0.7676(4) 0.0384(6) 0.4462(3)
C35_3 C 0.6555(4) 0.0737(6) 0.4211(3)
N9_3 N 0.8767(4) 0.0181(5) 0.4658(3)
H19_3 H 0.7743 0.0946 0.4528
C37_3 C 0.9897(4) 0.0303(6) 0.4736(3)
H21_3 H 0.9675 0.1574 0.4703
C41_3 C 0.9821(5) 0.3607(6) 0.4625(3)
C42_3 C 0.9322(5) 0.3805(6) 0.4986(4)
C45_3 C 0.8792(5) 0.4280(6) 0.4808(3)
C46_3 C 0.9356(5) 0.3526(6) 0.5422(4)
H30_3 H 0.8787 0.4489 0.4500
C47_3 C 0.8303(5) 0.4408(7) 0.5109(4)
C48_3 C 0.8895(5) 0.3683(7) 0.5763(4)
H31_3 H 0.9709 0.3206 0.5508
C49_3 C 0.8320(5) 0.4154(6) 0.5568(3)
C50_3 C 0.7716(5) 0.4908(6) 0.4938(3)
N13_3 N 0.8881(4) 0.3437(6) 0.6216(3)
H32_3 H 0.7975 0.4268 0.5766
O23_3 O 0.7194(3) 0.4820(4) 0.5164(3)
C51_3 C 0.9329(5) 0.2951(8) 0.6441(4)
O24_3 O 0.9758(5) 0.2607(6) 0.6213(4)
C52_3 C 0.9214(6) 0.2682(8) 0.6907(4)
C53_3 C 0.9648(6) 0.2189(8) 0.7172(4)
C54_3 C 0.8749(5) 0.2855(8) 0.7263(4)
N14_3 N 0.9378(5) 0.2090(7) 0.7575(4)
H34_3 H 0.8408 0.3219 0.7217
H35_3 H 0.9543 0.1782 0.7793
O32_2 O 0.9824(3) 0.3899(4) 0.4216(2)
O33_2 O 0.7790(3) 0.5332(4) 0.4565(3)
H37_3 H 0.876908 0.0804813 0.471934
H38_3 H 0.850186 0.362821 0.641324
C5_3 C 0.8285(5) 0.0263(6) 0.3227(3)
H3_3 H 0.7009 0.0517 0.3037
O5_3 O 0.8224(4) 0.1004(5) 0.3255(3)
C8_3 C 0.9445(4) 0.0212(6) 0.3363(4)
C10_3 C 0.9563(4) 0.1046(6) 0.3414(3)
H5_3 H 0.9243 0.1432 0.3347
O8_3 O 0.9886(3) 0.2723(4) 0.3414(3)
O10_3 O 0.9897(3) 0.4714(4) 0.3328(2)
C16_3 C 0.9972(5) 0.5135(6) 0.2964(3)
C17_3 C 0.9403(5) 0.5604(6) 0.2787(3)
C18_3 C 0.9396(5) 0.5953(6) 0.2339(3)
C19_3 C 0.8888(4) 0.5762(6) 0.3107(3)
H9_3 H 0.9748 0.5887 0.2141
C20_3 C 0.8874(5) 0.6396(6) 0.2182(3)
C21_3 C 0.8362(5) 0.6216(6) 0.2961(3)
H10_3 H 0.8907 0.5558 0.3416
N6_3 N 0.8861(4) 0.6704(6) 0.1709(3)
C22_3 C 0.8333(5) 0.6521(6) 0.2488(4)
C23_3 C 0.7786(5) 0.6415(6) 0.3276(3)
O14_3 O 0.7848(3) 0.6126(4) 0.3683(2)
O16_3 O 0.6657(3) 0.6288(4) 0.4877(2)
O17_3 O 0.7728(3) 0.7293(4) 0.4506(2)
C24_3 C 0.8611(5) 0.7424(7) 0.1561(4)
H11_3 H 0.7970 0.6797 0.2378
C25_3 C 0.7365(4) 0.7776(6) 0.4303(3)
H12_3 H 0.6532 0.5801 0.4951
H13_3 H 0.6879 0.6489 0.5102
O18_3 O 0.8420(4) 0.7964(6) 0.1868(3)
C26_3 C 0.8592(5) 0.7612(7) 0.1078(4)
C27_3 C 0.7464(5) 0.8679(6) 0.4344(3)
C28_3 C 0.8789(5) 0.7176(7) 0.0653(4)
C29_3 C 0.8254(5) 0.8312(7) 0.0898(4)
C30_3 C 0.6954(4) 0.9228(6) 0.4261(3)
C31_3 C 0.8044(5) 0.8974(6) 0.4496(3)
N7_2 N 0.8566(4) 0.7532(5) 0.0242(3)
H14_3 H 0.9042 0.6699 0.0658
N8_3 N 0.8259(4) 0.8248(5) 0.0431(3)
H15_3 H 0.8066 0.8735 0.1076
H16_3 H 0.6551 0.9030 0.4178
C33_3 C 0.8150(4) 0.9829(6) 0.4509(3)
H17_3 H 0.8364 0.8605 0.4589
H18_3 H 0.8085 0.8618 0.0251
C36_3 C 0.9335(5) 0.9787(6) 0.4725(4)
O20_3 O 0.9375(4) 0.8991(5) 0.4724(3)
O27_2 O 0.7363(3) 0.6855(4) 0.3109(2)
O28_2 O 0.6898(3) 0.7473(4) 0.4050(2)
H36_3 H 0.906361 0.633684 0.145686
N1_3 N 0.7037(4) 0.8600(5) 0.3173(3)
O1_3 O 0.5763(3) 0.8237(5) 0.3569(3)
C1_3 C 0.7661(5) 0.8845(6) 0.3191(4)
N3_3 N 0.6725(4) 0.9334(5) 0.3111(3)
C2_3 C 0.5244(6) 0.7990(9) 0.3689(6)
C3_3 C 0.7711(4) 0.9698(6) 0.3146(4)
H1_3 H 0.6316 0.9381 0.3090
C4_3 C 0.7125(5) 0.9964(6) 0.3087(3)
N4_2 N 0.4833(5) 0.8259(7) 0.3985(4)
H2_3 H 0.5117 0.7506 0.3533
C6_2 C 0.4273(7) 0.7708(10) 0.4000(7)
C7_2 C 0.4926(8) 0.8958(9) 0.4288(6)
N5_3 N 0.8838(4) 0.9848(5) 0.3282(3)
C9_3 C 0.9951(4) 0.9614(6) 0.3456(3)
H4_3 H 0.9874 0.9044 0.3435
H39_2 H 0.405368 0.76812 0.364963
H40_2 H 0.392785 0.794925 0.425507
H41_2 H 0.442168 0.708444 0.410643
H42_3 H 0.881892 0.921623 0.326384
H43_3 H 0.80654 0.842353 0.3235
H44_3 H 0.533637 0.88454 0.451756
H45_2 H 0.450027 0.90517 0.450456
H46_3 H 0.501257 0.951219 0.407391
N1_4 N 0.2963(4) 0.1400(5) 0.8173(3)
O1_4 O 0.4237(3) 0.1763(5) 0.8569(3)
O3_2 O 0.2637(3) 0.3145(4) 0.8109(2)
O4_2 O 0.3102(3) 0.2527(4) 0.9050(2)
C1_4 C 0.2339(5) 0.1155(6) 0.8191(4)
N3_4 N 0.3275(4) 0.0666(5) 0.8111(3)
C2_4 C 0.4756(6) 0.2010(9) 0.8689(6)
C3_4 C 0.2289(4) 0.0302(6) 0.8146(4)
H1_4 H 0.3684 0.0619 0.8090
C4_4 C 0.2875(5) 0.0036(6) 0.8087(3)
N4_3 N 0.5167(5) 0.1741(7) 0.8985(4)
H2_4 H 0.4883 0.2494 0.8533
C6_3 C 0.5727(7) 0.2292(10) 0.9000(7)
C7_3 C 0.5074(8) 0.1042(9) 0.9288(6)
N5_4 N 0.1162(4) 0.0152(5) 0.8282(3)
C9_4 C 0.0049(4) 0.0386(6) 0.8456(3)
H4_4 H 0.0126 0.0956 0.8435
H39_3 H 0.594632 0.23188 0.864963
H40_3 H 0.607215 0.205075 0.925507
H41_3 H 0.557832 0.291556 0.910643
H42_4 H 0.118108 0.0783768 0.826384
H43_4 H 0.19346 0.157647 0.8235
H44_4 H 0.466363 0.11546 0.951756
H45_3 H 0.549973 0.0948302 0.950456
H46_4 H 0.498743 0.0487811 0.907391
C5_4 C 0.1715(5) 0.9737(6) 0.8227(3)
H3_4 H 0.2991 0.9483 0.8037
O5_4 O 0.1776(4) 0.8996(5) 0.8255(3)
C8_4 C 0.0555(4) 0.9788(6) 0.8363(4)
C10_4 C 0.0437(4) 0.8954(6) 0.8414(3)
H5_4 H 0.0757 0.8568 0.8347
O8_4 O 0.0114(3) 0.7277(4) 0.8414(3)
O10_4 O 0.0103(3) 0.5286(4) 0.8328(2)
O12_2 O 0.0176(3) 0.6101(4) 0.9216(2)
C16_4 C 0.0028(5) 0.4865(6) 0.7964(3)
C17_4 C 0.0597(5) 0.4396(6) 0.7787(3)
C18_4 C 0.0604(5) 0.4047(6) 0.7339(3)
C19_4 C 0.1112(4) 0.4238(6) 0.8107(3)
H9_4 H 0.0252 0.4113 0.7141
C20_4 C 0.1126(5) 0.3604(6) 0.7182(3)
C21_4 C 0.1638(5) 0.3784(6) 0.7961(3)
H10_4 H 0.1093 0.4442 0.8416
N6_4 N 0.1139(4) 0.3296(6) 0.6709(3)
C22_4 C 0.1667(5) 0.3479(6) 0.7488(4)
C23_4 C 0.2214(5) 0.3585(6) 0.8276(3)
O14_4 O 0.2152(3) 0.3874(4) 0.8683(2)
O15_2 O 0.2210(3) 0.4668(4) 0.9565(3)
O16_4 O 0.3343(3) 0.3712(4) 0.9877(2)
O17_4 O 0.2272(3) 0.2707(4) 0.9506(2)
C24_4 C 0.1389(5) 0.2576(7) 0.6561(4)
H11_4 H 0.2030 0.3203 0.7378
C25_4 C 0.2635(4) 0.2224(6) 0.9303(3)
H12_4 H 0.3468 0.4199 0.9951
O18_4 O 0.1580(4) 0.2036(6) 0.6868(3)
C26_4 C 0.1408(5) 0.2388(7) 0.6078(4)
C27_4 C 0.2536(5) 0.1321(6) 0.9344(3)
C28_4 C 0.1211(5) 0.2824(7) 0.5653(4)
C29_4 C 0.1746(5) 0.1688(7) 0.5898(4)
C30_4 C 0.3046(4) 0.0772(6) 0.9261(3)
C31_4 C 0.1956(5) 0.1026(6) 0.9496(3)
H14_4 H 0.0958 0.3301 0.5658
N8_4 N 0.1741(4) 0.1752(5) 0.5431(3)
H15_4 H 0.1934 0.1265 0.6076
H16_4 H 0.3449 0.0970 0.9178
C33_4 C 0.1850(4) 0.0171(6) 0.9509(3)
H17_4 H 0.1636 0.1395 0.9589
H18_4 H 0.1915 0.1382 0.5251
C36_4 C 0.0665(5) 0.0213(6) 0.9725(4)
O20_4 O 0.0625(4) 0.1009(5) 0.9724(3)
H36_4 H 0.0936389 0.366316 0.645686
C46_4 C 0.0644(5) 0.6474(6) 0.0422(4)
C47_4 C 0.1697(5) 0.5592(7) 0.0109(4)
C48_4 C 0.1105(5) 0.6317(7) 0.0763(4)
H31_4 H 0.0291 0.6794 0.0508
C49_4 C 0.1680(5) 0.5846(6) 0.0568(3)
N13_4 N 0.1119(4) 0.6563(6) 0.1216(3)
H32_4 H 0.2025 0.5732 0.0766
O23_4 O 0.2806(3) 0.5180(4) 0.0164(3)
C51_4 C 0.0671(5) 0.7049(8) 0.1441(4)
O24_4 O 0.0242(5) 0.7393(6) 0.1213(4)
C52_4 C 0.0786(6) 0.7318(8) 0.1907(4)
C53_4 C 0.0352(6) 0.7811(8) 0.2172(4)
C54_4 C 0.1251(5) 0.7145(8) 0.2263(4)
N14_4 N 0.0622(5) 0.7910(7) 0.2575(4)
H34_4 H 0.1592 0.6781 0.2217
H35_4 H 0.0457 0.8218 0.2793
H38_4 H 0.149814 0.637179 0.141324
C32_4 C 0.2926(4) 0.9905(6) 0.9309(3)
C34_4 C 0.2324(4) 0.9616(6) 0.9462(3)
C35_4 C 0.3445(4) 0.9263(6) 0.9211(3)
N9_4 N 0.1233(4) 0.9819(5) 0.9658(3)
H19_4 H 0.2257 0.9054 0.9528
C37_4 C 0.0103(4) 0.9697(6) 0.9736(3)
H21_4 H 0.0325 0.8426 0.9703
C41_4 C 0.0179(5) 0.6393(6) 0.9625(3)
C42_4 C 0.0678(5) 0.6195(6) 0.9986(4)
C45_4 C 0.1208(5) 0.5720(6) 0.9808(3)
H30_4 H 0.1213 0.5511 0.9500
C50_4 C 0.2284(5) 0.5092(6) 0.9938(3)
H37_4 H 0.123092 0.919519 0.971934
C11_4 C 0.9442(4) 0.0087(5) 0.8578(3)
C14_4 C 0.8905(4) 0.0724(5) 0.8669(3)
C12_4 C 0.9837(4) 0.8681(6) 0.8565(3)
C13_4 C 0.9333(4) 0.9273(6) 0.8640(3)
C15_4 C 0.9720(5) 0.7769(6) 0.8605(4)
H6_4 H 0.8930 0.9090 0.8733
O7_2 O 0.9250(3) 0.7476(4) 0.8830(2)
O9_4 O 0.9052(3) 0.6358(4) 0.8007(2)
H7_4 H 0.8920 0.5883 0.7915
H8_4 H 0.8733 0.6674 0.8060
O13_4 O 0.9542(3) 0.4828(5) 0.7732(3)
C38_4 C 0.9487(5) 0.0053(7) 0.9729(4)
H20_4 H 0.9378 0.0615 0.9729
H33_4 H 0.9957 0.8017 0.2075
C39_4 C 0.9996(5) 0.8817(6) 0.9706(3)
N10_4 N 0.9085(4) 0.9377(5) 0.9722(3)
N11_4 N 0.9398(4) 0.8621(5) 0.9685(3)
H22_4 H 0.8675 0.9420 0.9740
O21_4 O 0.8127(3) 0.8250(4) 0.9363(2)
O22_4 O 0.9698(3) 0.6865(4) 0.9788(2)
C40_4 C 0.7578(5) 0.7990(7) 0.9299(4)
N12_4 N 0.7174(4) 0.8291(5) 0.8969(3)
H23_4 H 0.7434 0.7557 0.9491
C43_4 C 0.7323(5) 0.9025(7) 0.8710(4)
C44_4 C 0.6568(6) 0.7882(8) 0.8846(5)
H24_4 H 0.7501 0.8875 0.8407
H25_4 H 0.6941 0.9347 0.8662
H26_4 H 0.7629 0.9351 0.8884
H27_4 H 0.6428 0.7543 0.9107
H28_4 H 0.6250 0.8297 0.8779
H29_4 H 0.6629 0.7537 0.8571
N4_4 N 0.9833(5) 0.6741(7) 0.3985(4)
C6_4 C 0.9273(7) 0.7292(10) 0.4000(7)
C7_4 C 0.9926(8) 0.6042(9) 0.4288(6)
H39_4 H 0.905368 0.73188 0.364963
H40_4 H 0.892785 0.705075 0.425507
H41_4 H 0.942168 0.791556 0.410643
H45_4 H 0.950027 0.59483 0.450456
H13_4 H 0.3121 0.3511 0.0102
loop_
_geom_bond_atom_site_label_1
_geom_bond_atom_site_label_2
_geom_bond_site_symmetry_1
_geom_bond_site_symmetry_2
C6 N4 1_555 1_555
C7 N4 1_555 1_555
C6 H39 1_555 1_555
C6 H40 1_555 1_555
C6 H41 1_555 1_555
C7 H45 1_555 1_555
Co13 O33 1_555 1_555
C48 C46 1_555 1_555
H31 C46 1_555 1_555
C49 C47 1_555 1_555
N13 C48 1_555 1_555
H32 C49 1_555 1_555
C51 N13 1_555 1_555
O24 C51 1_555 1_555
C52 C51 1_555 1_555
C53 C52 1_555 1_555
C54 C52 1_555 1_555
N14 C53 1_555 1_555
H33 C53 1_555 1_555
H34 C54 1_555 1_555
H35 N14 1_555 1_555
N16 C54 1_555 1_555
Co14 N16 1_555 1_555
C48 C49 1_555 1_555
N14 N16 1_555 1_555
N13 H38 1_555 1_555
O13 C16 1_555 1_555
C17 C16 1_555 1_555
C18 C17 1_555 1_555
C19 C17 1_555 1_555
H9 C18 1_555 1_555
C20 C18 1_555 1_555
C21 C19 1_555 1_555
H10 C19 1_555 1_555
N6 C20 1_555 1_555
C22 C20 1_555 1_555
C23 C21 1_555 1_555
O14 C23 1_555 1_555
O16 H12 1_555 1_555
O17 C25 1_555 1_555
C24 N6 1_555 1_555
H11 C22 1_555 1_555
C25 C27 1_555 1_555
O18 C24 1_555 1_555
C26 C24 1_555 1_555
C27 C30 1_555 1_555
C28 C26 1_555 1_555
C29 C26 1_555 1_555
C30 H16 1_555 1_555
C31 C27 1_555 1_555
N7 C28 1_555 1_555
H14 C28 1_555 1_555
N8 C29 1_555 1_555
H15 C29 1_555 1_555
C32 C30 1_555 1_555
C33 C31 1_555 1_555
H17 C31 1_555 1_555
H18 N8 1_555 1_555
C34 C32 1_555 1_555
C35 C32 1_555 1_555
N9 C33 1_555 1_555
H19 C34 1_555 1_555
O19 C35 1_555 1_555
C36 N9 1_555 1_555
O20 C36 1_555 1_555
C37 C36 1_555 1_555
C38 C37 1_555 1_555
C39 C37 1_555 1_555
N10 C38 1_555 1_555
H20 C38 1_555 1_555
N11 C39 1_555 1_555
H21 C39 1_555 1_555
H22 N10 1_555 1_555
O21 C40 1_555 1_555
O22 C41 1_555 1_555
C40 N12 1_555 1_555
C41 C42 1_555 1_555
N12 C43 1_555 1_555
H23 C40 1_555 1_555
C42 C45 1_555 1_555
C43 H24 1_555 1_555
C44 N12 1_555 1_555
C45 H30 1_555 1_555
H25 C43 1_555 1_555
H26 C43 1_555 1_555
H27 C44 1_555 1_555
H28 C44 1_555 1_555
H29 C44 1_555 1_555
O26 Co13 1_555 1_555
Co6 O27 1_555 1_555
Co13 O14 1_555 1_555
O27 C23 1_555 1_555
O28 C25 1_555 1_555
Co8 N7 1_555 1_555
O29 C35 1_555 1_555
Co9 O29 1_555 1_555
Co10 O19 1_555 1_555
O30 Co11 1_555 1_555
Co11 N11 1_555 1_555
Co12 O30 1_555 1_555
O31 Co11 1_555 1_555
O32 C41 1_555 1_555
C21 C22 1_555 1_555
O16 Co13 1_555 1_555
O17 Co13 1_555 1_555
N7 N8 1_555 1_555
C33 C34 1_555 1_555
N10 N11 1_555 1_555
O21 Co11 1_555 1_555
O22 Co11 1_555 1_555
Co6 O28 1_555 1_555
Co13 O28 1_555 1_555
Co12 O32 1_555 1_555
N6 H36 1_555 1_555
N9 H37 1_555 1_555
Co6 N1 1_555 1_555
N1 C1 1_555 1_555
O1 Co6 1_555 1_555
N2 Co6 1_555 1_555
O2 Co6 1_555 1_555
C1 C3 1_555 1_555
N3 N1 1_555 1_555
C2 O1 1_555 1_555
C3 C4 1_555 1_555
H1 N3 1_555 1_555
C4 N3 1_555 1_555
H2 C2 1_555 1_555
C5 C3 1_555 1_555
H3 C4 1_555 1_555
N5 C5 1_555 1_555
O5 C5 1_555 1_555
C8 N5 1_555 1_555
C9 C8 1_555 1_555
C10 C8 1_555 1_555
H4 C9 1_555 1_555
C11 C9 1_555 1_555
C12 C10 1_555 1_555
H5 C10 1_555 1_555
C13 C11 1_555 1_555
C14 C11 1_555 1_555
C15 C12 1_555 1_555
H6 C13 1_555 1_555
O6 C14 1_555 1_555
O30 C15 1_555 1_555
O8 C15 1_555 1_555
Co2 O6 1_555 1_555
O9 Co12 1_555 1_555
O10 Co12 1_555 1_555
O11 Co12 1_555 1_555
H7 O9 1_555 1_555
H8 O9 1_555 1_555
O25 C14 1_555 1_555
Co5 O25 1_555 1_555
C12 C13 1_555 1_555
O8 Co12 1_555 1_555
N5 H42 1_555 1_555
C1 H43 1_555 1_555
Co1 N1_2 1_555 1_555
N1_2 C1_2 1_555 1_555
O1_2 Co1 1_555 1_555
N2_2 Co1 1_555 1_555
O2_2 Co1 1_555 1_555
O3 Co1 1_555 1_555
O4 Co1 1_555 1_555
C1_2 C3_2 1_555 1_555
N3_2 N1_2 1_555 1_555
C2_2 O1_2 1_555 1_555
C3_2 C4_2 1_555 1_555
H1_2 N3_2 1_555 1_555
C4_2 N3_2 1_555 1_555
H2_2 C2_2 1_555 1_555
C5_2 C3_2 1_555 1_555
H3_2 C4_2 1_555 1_555
N5_2 C5_2 1_555 1_555
O5_2 C5_2 1_555 1_555
C8_2 N5_2 1_555 1_555
C9_2 C8_2 1_555 1_555
C10_2 C8_2 1_555 1_555
H4_2 C9_2 1_555 1_555
C11_2 C9_2 1_555 1_555
C12_2 C10_2 1_555 1_555
H5_2 C10_2 1_555 1_555
C13_2 C11_2 1_555 1_555
C14_2 C11_2 1_555 1_555
C15_2 C12_2 1_555 1_555
H6_2 C13_2 1_555 1_555
O6_2 C14_2 1_555 1_555
O7 C15_2 1_555 1_555
O8_2 C15_2 1_555 1_555
Co2_2 O6_2 1_555 1_555
Co3 O7 1_555 1_555
Co8 O7 1_555 1_555
O9_2 Co3 1_555 1_555
O10_2 Co3 1_555 1_555
O11_2 Co3 1_555 1_555
O12 Co3 1_555 1_555
H7_2 O9_2 1_555 1_555
H8_2 O9_2 1_555 1_555
O25_2 C14_2 1_555 1_555
Co14 O25_2 1_555 1_555
C12_2 C13_2 1_555 1_555
O8_2 Co3 1_555 1_555
N5_2 H42_2 1_555 1_555
C1_2 H43_2 1_555 1_555
O13_2 C16_2 1_555 1_555
C17_2 C16_2 1_555 1_555
C18_2 C17_2 1_555 1_555
C19_2 C17_2 1_555 1_555
H9_2 C18_2 1_555 1_555
C20_2 C18_2 1_555 1_555
C21_2 C19_2 1_555 1_555
H10_2 C19_2 1_555 1_555
N6_2 C20_2 1_555 1_555
C22_2 C20_2 1_555 1_555
C23_2 C21_2 1_555 1_555
O14_2 C23_2 1_555 1_555
O15 Co7 1_555 1_555
O16_2 H12_2 1_555 1_555
O17_2 C25_2 1_555 1_555
C24_2 N6_2 1_555 1_555
H11_2 C22_2 1_555 1_555
C25_2 C27_2 1_555 1_555
H13_2 O16_2 1_555 1_555
O18_2 C24_2 1_555 1_555
C26_2 C24_2 1_555 1_555
C27_2 C30_2 1_555 1_555
C28_2 C26_2 1_555 1_555
C29_2 C26_2 1_555 1_555
C30_2 H16_2 1_555 1_555
C31_2 C27_2 1_555 1_555
N15 C28_2 1_555 1_555
H14_2 C28_2 1_555 1_555
N8_2 C29_2 1_555 1_555
H15_2 C29_2 1_555 1_555
C32_2 C30_2 1_555 1_555
C33_2 C31_2 1_555 1_555
H17_2 C31_2 1_555 1_555
H18_2 N8_2 1_555 1_555
C34_2 C32_2 1_555 1_555
C35_2 C32_2 1_555 1_555
N9_2 C33_2 1_555 1_555
H19_2 C34_2 1_555 1_555
O19_2 C35_2 1_555 1_555
C36_2 N9_2 1_555 1_555
O20_2 C36_2 1_555 1_555
C37_2 C36_2 1_555 1_555
C38_2 C37_2 1_555 1_555
C39_2 C37_2 1_555 1_555
N10_2 C38_2 1_555 1_555
H20_2 C38_2 1_555 1_555
N11_2 C39_2 1_555 1_555
H21_2 C39_2 1_555 1_555
H22_2 N10_2 1_555 1_555
O21_2 C40_2 1_555 1_555
O22_2 C41_2 1_555 1_555
C40_2 N12_2 1_555 1_555
C41_2 C42_2 1_555 1_555
N12_2 C43_2 1_555 1_555
H23_2 C40_2 1_555 1_555
C42_2 C45_2 1_555 1_555
C43_2 H24_2 1_555 1_555
C44_2 N12_2 1_555 1_555
C45_2 H30_2 1_555 1_555
C46_2 C42_2 1_555 1_555
H25_2 C43_2 1_555 1_555
H26_2 C43_2 1_555 1_555
H27_2 C44_2 1_555 1_555
H28_2 C44_2 1_555 1_555
H29_2 C44_2 1_555 1_555
C47_2 C45_2 1_555 1_555
C48_2 C46_2 1_555 1_555
H31_2 C46_2 1_555 1_555
C49_2 C47_2 1_555 1_555
C50_2 C47_2 1_555 1_555
N13_2 C48_2 1_555 1_555
H32_2 C49_2 1_555 1_555
O23_2 C50_2 1_555 1_555
C51_2 N13_2 1_555 1_555
O24_2 C51_2 1_555 1_555
C52_2 C51_2 1_555 1_555
C53_2 C52_2 1_555 1_555
C54_2 C52_2 1_555 1_555
N14_2 C53_2 1_555 1_555
H33_2 C53_2 1_555 1_555
H34_2 C54_2 1_555 1_555
H35_2 N14_2 1_555 1_555
O26_2 Co7 1_555 1_555
Co7 O14_2 1_555 1_555
O3 C23_2 1_555 1_555
O4 C25_2 1_555 1_555
O29_2 C35_2 1_555 1_555
Co9_2 O29_2 1_555 1_555
Co10_2 O19_2 1_555 1_555
Co8 N11_2 1_555 1_555
O31_2 Co8 1_555 1_555
O12 C41_2 1_555 1_555
N16_2 C54_2 1_555 1_555
Co5 N16_2 1_555 1_555
C21_2 C22_2 1_555 1_555
O16_2 Co7 1_555 1_555
O17_2 Co7 1_555 1_555
N15 N8_2 1_555 1_555
C33_2 C34_2 1_555 1_555
N10_2 N11_2 1_555 1_555
O21_2 Co8 1_555 1_555
O22_2 Co8 1_555 1_555
C48_2 C49_2 1_555 1_555
N14_2 N16_2 1_555 1_555
Co7 O4 1_555 1_555
N6_2 H36_2 1_555 1_555
N9_2 H37_2 1_555 1_555
N13_2 H38_2 1_555 1_555
N11_3 C39_3 1_555 1_555
H22_3 N10_3 1_555 1_555
O21_3 C40_3 1_555 1_555
C40_3 N12_3 1_555 1_555
N12_3 C43_3 1_555 1_555
H23_3 C40_3 1_555 1_555
C43_3 H24_3 1_555 1_555
C44_3 N12_3 1_555 1_555
H25_3 C43_3 1_555 1_555
H26_3 C43_3 1_555 1_555
H27_3 C44_3 1_555 1_555
H28_3 C44_3 1_555 1_555
H29_3 C44_3 1_555 1_555
O30_2 Co10_2 1_555 1_555
Co10_2 N11_3 1_555 1_555
Co9_2 O30_2 1_555 1_555
N15_2 Co10_2 1_555 1_555
N10_3 N11_3 1_555 1_555
O21_3 Co10_2 1_555 1_555
O22_3 Co10_2 1_555 1_555
C15_3 C12_3 1_555 1_555
H6_3 C13_3 1_555 1_555
O30_2 C15_3 1_555 1_555
O9_3 Co9_2 1_555 1_555
H7_3 O9_3 1_555 1_555
H8_3 O9_3 1_555 1_555
H20_3 C38_3 1_555 1_555
C12_3 C13_3 1_555 1_555
C14_3 C11_3 1_555 1_555
O26_2 C14_3 1_555 1_555
O2_2 C14_3 1_555 1_555
C34_3 C32_3 1_555 1_555
C35_3 C32_3 1_555 1_555
H19_3 C34_3 1_555 1_555
O31_2 C35_3 1_555 1_555
C41_3 C42_3 1_555 1_555
C42_3 C45_3 1_555 1_555
C45_3 H30_3 1_555 1_555
C46_3 C42_3 1_555 1_555
C47_3 C45_3 1_555 1_555
C48_3 C46_3 1_555 1_555
H31_3 C46_3 1_555 1_555
C49_3 C47_3 1_555 1_555
C50_3 C47_3 1_555 1_555
N13_3 C48_3 1_555 1_555
H32_3 C49_3 1_555 1_555
O23_3 C50_3 1_555 1_555
C51_3 N13_3 1_555 1_555
O24_3 C51_3 1_555 1_555
C52_3 C51_3 1_555 1_555
C53_3 C52_3 1_555 1_555
C54_3 C52_3 1_555 1_555
N14_3 C53_3 1_555 1_555
H34_3 C54_3 1_555 1_555
H35_3 N14_3 1_555 1_555
O11_2 C35_3 1_555 1_555
O32_2 C41_3 1_555 1_555
Co2_2 O33_2 1_555 1_555
O33_2 C50_3 1_555 1_555
N2 C54_3 1_555 1_555
C48_3 C49_3 1_555 1_555
N14_3 N2 1_555 1_555
N9_3 H37_3 1_555 1_555
N13_3 H38_3 1_555 1_555
O5_3 C5_3 1_555 1_555
C10_3 C8_3 1_555 1_555
H5_3 C10_3 1_555 1_555
C16_3 O10_3 1_555 1_555
C17_3 C16_3 1_555 1_555
C18_3 C17_3 1_555 1_555
C19_3 C17_3 1_555 1_555
H9_3 C18_3 1_555 1_555
C20_3 C18_3 1_555 1_555
C21_3 C19_3 1_555 1_555
H10_3 C19_3 1_555 1_555
N6_3 C20_3 1_555 1_555
C22_3 C20_3 1_555 1_555
C23_3 C21_3 1_555 1_555
O14_3 C23_3 1_555 1_555
O16_3 H12_3 1_555 1_555
O17_3 C25_3 1_555 1_555
C24_3 N6_3 1_555 1_555
H11_3 C22_3 1_555 1_555
C25_3 C27_3 1_555 1_555
H13_3 O16_3 1_555 1_555
O18_3 C24_3 1_555 1_555
C26_3 C24_3 1_555 1_555
C27_3 C30_3 1_555 1_555
C28_3 C26_3 1_555 1_555
C29_3 C26_3 1_555 1_555
C30_3 H16_3 1_555 1_555
C31_3 C27_3 1_555 1_555
N7_2 C28_3 1_555 1_555
H14_3 C28_3 1_555 1_555
N8_3 C29_3 1_555 1_555
H15_3 C29_3 1_555 1_555
C33_3 C31_3 1_555 1_555
H17_3 C31_3 1_555 1_555
H18_3 N8_3 1_555 1_555
O20_3 C36_3 1_555 1_555
Co14 O27_2 1_555 1_555
Co2_2 O14_3 1_555 1_555
O27_2 C23_3 1_555 1_555
O28_2 C25_3 1_555 1_555
C21_3 C22_3 1_555 1_555
O16_3 Co2_2 1_555 1_555
O17_3 Co2_2 1_555 1_555
N7_2 N8_3 1_555 1_555
Co14 O28_2 1_555 1_555
Co2_2 O28_2 1_555 1_555
N6_3 H36_3 1_555 1_555
Co14 N1_3 1_555 1_555
N1_3 C1_3 1_555 1_555
O1_3 Co14 1_555 1_555
C1_3 C3_3 1_555 1_555
N3_3 N1_3 1_555 1_555
C2_3 O1_3 1_555 1_555
C3_3 C4_3 1_555 1_555
H1_3 N3_3 1_555 1_555
C4_3 N3_3 1_555 1_555
N4_2 C2_3 1_555 1_555
H2_3 C2_3 1_555 1_555
C6_2 N4_2 1_555 1_555
C7_2 N4_2 1_555 1_555
H4_3 C9_3 1_555 1_555
C6_2 H39_2 1_555 1_555
C6_2 H40_2 1_555 1_555
C6_2 H41_2 1_555 1_555
N5_3 H42_3 1_555 1_555
C1_3 H43_3 1_555 1_555
C7_2 H44_3 1_555 1_555
C7_2 H45_2 1_555 1_555
C7_2 H46_3 1_555 1_555
Co5 N1_4 1_555 1_555
N1_4 C1_4 1_555 1_555
O1_4 Co5 1_555 1_555
O3_2 Co5 1_555 1_555
O4_2 Co5 1_555 1_555
C1_4 C3_4 1_555 1_555
N3_4 N1_4 1_555 1_555
C2_4 O1_4 1_555 1_555
C3_4 C4_4 1_555 1_555
H1_4 N3_4 1_555 1_555
C4_4 N3_4 1_555 1_555
N4_3 C2_4 1_555 1_555
H2_4 C2_4 1_555 1_555
C6_3 N4_3 1_555 1_555
C7_3 N4_3 1_555 1_555
H4_4 C9_4 1_555 1_555
C6_3 H39_3 1_555 1_555
C6_3 H40_3 1_555 1_555
C6_3 H41_3 1_555 1_555
N5_4 H42_4 1_555 1_555
C1_4 H43_4 1_555 1_555
C7_3 H44_4 1_555 1_555
C7_3 H45_3 1_555 1_555
C7_3 H46_4 1_555 1_555
O5_4 C5_4 1_555 1_555
C10_4 C8_4 1_555 1_555
H5_4 C10_4 1_555 1_555
C16_4 O10_4 1_555 1_555
C17_4 C16_4 1_555 1_555
C18_4 C17_4 1_555 1_555
C19_4 C17_4 1_555 1_555
H9_4 C18_4 1_555 1_555
C20_4 C18_4 1_555 1_555
C21_4 C19_4 1_555 1_555
H10_4 C19_4 1_555 1_555
N6_4 C20_4 1_555 1_555
C22_4 C20_4 1_555 1_555
C23_4 C21_4 1_555 1_555
O14_4 C23_4 1_555 1_555
O15_2 Co2 1_555 1_555
O16_4 H12_4 1_555 1_555
O17_4 C25_4 1_555 1_555
C24_4 N6_4 1_555 1_555
H11_4 C22_4 1_555 1_555
C25_4 C27_4 1_555 1_555
O18_4 C24_4 1_555 1_555
C26_4 C24_4 1_555 1_555
C27_4 C30_4 1_555 1_555
C28_4 C26_4 1_555 1_555
C29_4 C26_4 1_555 1_555
C30_4 H16_4 1_555 1_555
C31_4 C27_4 1_555 1_555
N15_2 C28_4 1_555 1_555
H14_4 C28_4 1_555 1_555
N8_4 C29_4 1_555 1_555
H15_4 C29_4 1_555 1_555
C33_4 C31_4 1_555 1_555
H17_4 C31_4 1_555 1_555
H18_4 N8_4 1_555 1_555
O20_4 C36_4 1_555 1_555
Co2 O14_4 1_555 1_555
O3_2 C23_4 1_555 1_555
O4_2 C25_4 1_555 1_555
C21_4 C22_4 1_555 1_555
O16_4 Co2 1_555 1_555
O17_4 Co2 1_555 1_555
N15_2 N8_4 1_555 1_555
Co2 O4_2 1_555 1_555
N6_4 H36_4 1_555 1_555
C48_4 C46_4 1_555 1_555
H31_4 C46_4 1_555 1_555
C49_4 C47_4 1_555 1_555
N13_4 C48_4 1_555 1_555
H32_4 C49_4 1_555 1_555
C51_4 N13_4 1_555 1_555
O24_4 C51_4 1_555 1_555
C52_4 C51_4 1_555 1_555
C53_4 C52_4 1_555 1_555
C54_4 C52_4 1_555 1_555
N14_4 C53_4 1_555 1_555
H34_4 C54_4 1_555 1_555
H35_4 N14_4 1_555 1_555
N2_2 C54_4 1_555 1_555
C48_4 C49_4 1_555 1_555
N14_4 N2_2 1_555 1_555
N13_4 H38_4 1_555 1_555
C34_4 C32_4 1_555 1_555
C35_4 C32_4 1_555 1_555
H19_4 C34_4 1_555 1_555
O31 C35_4 1_555 1_555
C41_4 C42_4 1_555 1_555
C42_4 C45_4 1_555 1_555
C45_4 H30_4 1_555 1_555
O11 C35_4 1_555 1_555
O12_2 C41_4 1_555 1_555
O15_2 C50_4 1_555 1_555
N9_4 H37_4 1_555 1_555
C14_4 C11_4 1_555 1_555
O26 C14_4 1_555 1_555
O2 C14_4 1_555 1_555
C15_4 C12_4 1_555 1_555
H6_4 C13_4 1_555 1_555
O7_2 C15_4 1_555 1_555
Co9 O7_2 1_555 1_555
Co10 O7_2 1_555 1_555
O9_4 Co9 1_555 1_555
H7_4 O9_4 1_555 1_555
H8_4 O9_4 1_555 1_555
H20_4 C38_4 1_555 1_555
C12_4 C13_4 1_555 1_555
N11_4 C39_4 1_555 1_555
H22_4 N10_4 1_555 1_555
O21_4 C40_4 1_555 1_555
C40_4 N12_4 1_555 1_555
N12_4 C43_4 1_555 1_555
H23_4 C40_4 1_555 1_555
C43_4 H24_4 1_555 1_555
C44_4 N12_4 1_555 1_555
H25_4 C43_4 1_555 1_555
H26_4 C43_4 1_555 1_555
H27_4 C44_4 1_555 1_555
H28_4 C44_4 1_555 1_555
H29_4 C44_4 1_555 1_555
Co10 N11_4 1_555 1_555
N10_4 N11_4 1_555 1_555
O21_4 Co10 1_555 1_555
O22_4 Co10 1_555 1_555
C6_4 N4_4 1_555 1_555
C7_4 N4_4 1_555 1_555
C6_4 H39_4 1_555 1_555
C6_4 H40_4 1_555 1_555
C6_4 H41_4 1_555 1_555
C7_4 H45_4 1_555 1_555

#END
