
###############################################################################
#
# This file contains modified crystal structure data generated from the
# MOF subset of the Cambridge Structural Database (CSD) v543 
# hosted by the Cambridge Crystallographic Data Centre (CCDC).
#
# This work is licensed under the Creative Commons
# Attribution-NonCommercial-ShareAlike 4.0 International License.
# To view a copy of this license, visit
# http://creativecommons.org/licenses/by-nc-sa/4.0/
# or send a letter to
# Creative Commons, PO Box 1866, Mountain View, CA 94042, USA.
#
# CIF created using the CSD Python API on 29 September 2022
# The structure has been converted into the P1 space group
# The structure has a 3D framework
# The original CSD entry UWUTIQ is in the monoclinic crystal system
# The framework has been calculated to contain at least 10.0% void space
# The void calculation uses a probe of radius 1.32A, grid spacing 0.4
#
###############################################################################

data_UWUTIQ
_chemical_formula_moiety         '(C128 H80 N8 O30 Zn8)n'
_symmetry_cell_setting           triclinic
_symmetry_space_group_name_H-M   'P 1'
_symmetry_Int_Tables_number      1
_space_group_name_Hall           'P 1'
loop_
_symmetry_equiv_pos_site_id
_symmetry_equiv_pos_as_xyz
1 x,y,z
_cell_length_a                   10.896(6)
_cell_length_b                   19.698(4)
_cell_length_c                   21.554(5)
_cell_angle_alpha                90
_cell_angle_beta                 100.480(5)
_cell_angle_gamma                90
_cell_volume                     4548.95
loop_
_atom_site_label
_atom_site_type_symbol
_atom_site_fract_x
_atom_site_fract_y
_atom_site_fract_z
O5 O 0.1345(3) 0.04788(17) 0.27181(19)
C17 C 0.0979(4) 0.0020(2) 0.3051(2)
Zn5 Zn 0.31540(4) 0.05228(2) 0.265087(19)
O4 O 0.1649(3) 0.95750(17) 0.33560(15)
Zn3 Zn 0.35488(4) 0.94932(2) 0.365348(19)
O3 O 0.3386(4) 0.12196(17) 0.33673(15)
C1 C 0.3369(4) 0.1532(2) 0.44290(19)
C2 C 0.3302(4) 0.2488(2) 0.53794(19)
C3 C 0.3265(4) 0.2983(2) 0.59001(19)
C5 C 0.9618(4) 0.0019(2) 0.3097(2)
C6 C 0.3520(4) 0.1330(2) 0.50504(19)
H1 H 0.3638 0.0873 0.5152
N2 N 0.3179(3) 0.38630(17) 0.69005(15)
O6 O 0.5027(3) 0.0367(2) 0.28538(17)
O7 O 0.3470(3) 0.04065(15) 0.40898(15)
C7 C 0.5748(4) 0.0016(2) 0.32529(19)
C8 C 0.3416(4) 0.1014(2) 0.39209(19)
C9 C 0.3198(5) 0.2222(2) 0.4279(2)
H2 H 0.3114 0.2363 0.3861
C12 C 0.3499(4) 0.1802(2) 0.55246(19)
H3 H 0.3616 0.1660 0.5943
C14 C 0.8795(4) 0.0478(2) 0.2751(3)
H4 H 0.9082 0.0783 0.2481
C15 C 0.7546(4) 0.0481(2) 0.2808(2)
H5 H 0.6997 0.0788 0.2575
C16 C 0.7115(4) 0.0028(2) 0.3212(2)
C23 C 0.3154(5) 0.2696(2) 0.4752(2)
H11 H 0.3025 0.3152 0.4650
C27 C 0.2506(6) 0.3539(3) 0.5822(3)
H15 H 0.2016 0.3633 0.5431
C30 C 0.2479(6) 0.3963(3) 0.6336(3)
H18 H 0.1943 0.4335 0.6282
C31 C 0.3964(6) 0.3338(3) 0.6960(3)
H19 H 0.4486 0.3268 0.7347
C32 C 0.4036(6) 0.2898(3) 0.6476(3)
H20 H 0.4604 0.2541 0.6537
Zn6 Zn 0.31540(4) 0.44772(2) 0.765087(19)
N4 N 0.3179(3) 0.11370(17) 0.19005(15)
O1 O 0.3589(3) 0.88283(16) 0.29297(14)
O2 O 0.5408(3) 0.96525(17) 0.36712(15)
C4 C 0.3265(4) 0.8489(2) 0.18576(19)
O8 O 0.2982(4) 0.96107(16) 0.21864(15)
C10 C 0.3310(4) 0.7544(2) 0.0887(2)
C11 C 0.3349(4) 0.7052(2) 0.03720(19)
C13 C 0.3277(4) 0.9017(2) 0.23704(19)
C19 C 0.2722(5) 0.8646(2) 0.1232(2)
H7 H 0.2344 0.9066 0.1135
C20 C 0.3395(4) 0.6353(2) 0.0469(2)
H8 H 0.3386 0.6178 0.0869
C21 C 0.3748(6) 0.7850(3) 0.1990(2)
H9 H 0.4054 0.7727 0.2406
C24 C 0.9185(4) 0.9564(3) 0.3501(2)
H12 H 0.9730 0.9253 0.3729
C25 C 0.3784(6) 0.7383(3) 0.1506(2)
H13 H 0.4133 0.6956 0.1603
C26 C 0.7943(4) 0.9575(3) 0.3565(2)
H14 H 0.7661 0.9279 0.3844
H16 H 0.3492 0.5454 0.0049
C29 C 0.2752(6) 0.8175(3) 0.0762(2)
H17 H 0.2388 0.8283 0.0349
N3 N 0.3458(3) 0.88603(17) 0.43840(15)
N1 N 0.3458(3) 0.61397(17) 0.93840(15)
C18 C 0.3405(4) 0.6816(2) 0.9287(2)
H6 H 0.3399 0.6977 0.8881
C22 C 0.3359(4) 0.7278(2) 0.9758(2)
H10 H 0.3334 0.7740 0.9669
C28 C 0.3454(4) 0.5919(2) 0.99722(19)
Zn4 Zn 0.35488(4) 0.55068(2) 0.865348(19)
O4_2 O 0.1649(3) 0.54250(17) 0.83560(15)
O5_2 O 0.1345(3) 0.45212(17) 0.77181(19)
C17_2 C 0.0979(4) 0.4980(2) 0.8051(2)
C2_2 C 0.3302(4) 0.2512(2) 0.03794(19)
C3_2 C 0.3265(4) 0.2017(2) 0.09001(19)
C6_2 C 0.3520(4) 0.3670(2) 0.00504(19)
H1_2 H 0.3638 0.4127 0.0152
C12_2 C 0.3499(4) 0.3198(2) 0.05246(19)
H3_2 H 0.3616 0.3340 0.0943
C27_2 C 0.2506(6) 0.1461(3) 0.0822(3)
H15_2 H 0.2016 0.1367 0.0431
C30_2 C 0.2479(6) 0.1037(3) 0.1336(3)
H18_2 H 0.1943 0.0665 0.1282
C31_2 C 0.3964(6) 0.1662(3) 0.1960(3)
H19_2 H 0.4486 0.1732 0.2347
C32_2 C 0.4036(6) 0.2102(3) 0.1476(3)
H20_2 H 0.4604 0.2459 0.1537
O1_2 O 0.3589(3) 0.61717(16) 0.79297(14)
O2_2 O 0.5408(3) 0.53475(17) 0.86712(15)
O3_2 O 0.3386(4) 0.37804(17) 0.83673(15)
C1_2 C 0.3369(4) 0.3468(2) 0.94290(19)
C4_2 C 0.3265(4) 0.6511(2) 0.68576(19)
C5_2 C 0.9618(4) 0.4981(2) 0.8097(2)
O6_2 O 0.5027(3) 0.4633(2) 0.78538(17)
O7_2 O 0.3470(3) 0.45935(15) 0.90898(15)
C7_2 C 0.5748(4) 0.4984(2) 0.82529(19)
O8_2 O 0.2982(4) 0.53893(16) 0.71864(15)
C8_2 C 0.3416(4) 0.3986(2) 0.89209(19)
C9_2 C 0.3198(5) 0.2778(2) 0.9279(2)
H2_2 H 0.3114 0.2637 0.8861
C10_2 C 0.3310(4) 0.7456(2) 0.5887(2)
C11_2 C 0.3349(4) 0.7948(2) 0.53720(19)
C13_2 C 0.3277(4) 0.5983(2) 0.73704(19)
C14_2 C 0.8795(4) 0.4522(2) 0.7751(3)
H4_2 H 0.9082 0.4217 0.7481
C15_2 C 0.7546(4) 0.4519(2) 0.7808(2)
H5_2 H 0.6997 0.4212 0.7575
C16_2 C 0.7115(4) 0.4972(2) 0.8212(2)
C18_2 C 0.3405(4) 0.8184(2) 0.4287(2)
H6_2 H 0.3399 0.8023 0.3881
C19_2 C 0.2722(5) 0.6354(2) 0.6232(2)
H7_2 H 0.2344 0.5934 0.6135
C20_2 C 0.3395(4) 0.8647(2) 0.5469(2)
H8_2 H 0.3386 0.8822 0.5869
C21_2 C 0.3748(6) 0.7150(3) 0.6990(2)
H9_2 H 0.4054 0.7273 0.7406
C22_2 C 0.3359(4) 0.7722(2) 0.4758(2)
H10_2 H 0.3334 0.7260 0.4669
C23_2 C 0.3154(5) 0.2304(2) 0.9752(2)
H11_2 H 0.3025 0.1848 0.9650
C24_2 C 0.9185(4) 0.5436(3) 0.8501(2)
H12_2 H 0.9730 0.5747 0.8729
C25_2 C 0.3784(6) 0.7617(3) 0.6506(2)
H13_2 H 0.4133 0.8044 0.6603
C26_2 C 0.7943(4) 0.5425(3) 0.8565(2)
H14_2 H 0.7661 0.5721 0.8844
C28_2 C 0.3454(4) 0.9081(2) 0.49722(19)
H16_2 H 0.3492 0.9546 0.5049
C29_2 C 0.2752(6) 0.6825(3) 0.5762(2)
H17_2 H 0.2388 0.6717 0.5349
Zn1 Zn 0.64512(4) 0.44932(2) 0.134652(19)
Zn2 Zn 0.68460(4) 0.55228(2) 0.234913(19)
O1_3 O 0.6411(3) 0.38283(16) 0.20703(14)
O2_3 O 0.4592(3) 0.46525(17) 0.13288(15)
O3_3 O 0.6614(4) 0.62196(17) 0.16327(15)
C1_3 C 0.6631(4) 0.6532(2) 0.05710(19)
C4_3 C 0.6735(4) 0.3489(2) 0.31424(19)
N1_2 N 0.6542(3) 0.11397(17) 0.56160(15)
C5_3 C 0.0382(4) 0.5019(2) 0.1903(2)
O6_3 O 0.4973(3) 0.5367(2) 0.21462(17)
O7_3 O 0.6530(3) 0.54065(15) 0.09102(15)
C7_3 C 0.4252(4) 0.5016(2) 0.17471(19)
O8_3 O 0.7018(4) 0.46107(16) 0.28136(15)
C8_3 C 0.6584(4) 0.6014(2) 0.10791(19)
C9_3 C 0.6802(5) 0.7222(2) 0.0721(2)
H2_3 H 0.6886 0.7363 0.1139
C10_3 C 0.6690(4) 0.2544(2) 0.4113(2)
C11_3 C 0.6651(4) 0.2052(2) 0.46280(19)
C13_3 C 0.6723(4) 0.4017(2) 0.26296(19)
C14_3 C 0.1205(4) 0.5478(2) 0.2249(3)
H4_3 H 0.0918 0.5783 0.2519
C15_3 C 0.2454(4) 0.5481(2) 0.2192(2)
H5_3 H 0.3003 0.5788 0.2425
C16_3 C 0.2885(4) 0.5028(2) 0.1788(2)
C18_3 C 0.6595(4) 0.1816(2) 0.5713(2)
H6_3 H 0.6601 0.1977 0.6119
C19_3 C 0.7278(5) 0.3646(2) 0.3768(2)
H7_3 H 0.7656 0.4066 0.3865
C20_3 C 0.6605(4) 0.1353(2) 0.4531(2)
H8_3 H 0.6614 0.1178 0.4131
C21_3 C 0.6252(6) 0.2850(3) 0.3010(2)
H9_3 H 0.5946 0.2727 0.2594
C22_3 C 0.6641(4) 0.2278(2) 0.5242(2)
H10_3 H 0.6666 0.2740 0.5331
C23_3 C 0.6846(5) 0.7696(2) 0.0248(2)
H11_3 H 0.6975 0.8152 0.0350
C24_3 C 0.0815(4) 0.4564(3) 0.1499(2)
H12_3 H 0.0270 0.4253 0.1271
C25_3 C 0.6216(6) 0.2383(3) 0.3494(2)
H13_3 H 0.5867 0.1956 0.3397
C26_3 C 0.2057(4) 0.4575(3) 0.1435(2)
H14_3 H 0.2339 0.4279 0.1156
C28_3 C 0.6546(4) 0.0919(2) 0.50278(19)
H16_3 H 0.6508 0.0454 0.4951
C29_3 C 0.7248(6) 0.3175(3) 0.4238(2)
H17_3 H 0.7612 0.3283 0.4651
Zn4_2 Zn 0.64512(4) 0.05068(2) 0.634652(19)
O9 O 0.8351(3) 0.45750(17) 0.16440(15)
O10 O 0.8655(3) 0.54788(17) 0.22819(19)
N3_2 N 0.6542(3) 0.38603(17) 0.06160(15)
N4_2 N 0.6821(3) 0.61370(17) 0.30995(15)
C2_3 C 0.6698(4) 0.7488(2) 0.96206(19)
C3_3 C 0.6735(4) 0.7983(2) 0.90999(19)
C6_3 C 0.6480(4) 0.6330(2) 0.99496(19)
H1_3 H 0.6362 0.5873 0.9848
N2_2 N 0.6821(3) 0.88630(17) 0.80995(15)
C12_3 C 0.6501(4) 0.6802(2) 0.94754(19)
H3_3 H 0.6384 0.6660 0.9057
C27_3 C 0.7494(6) 0.8539(3) 0.9178(3)
H15_3 H 0.7984 0.8633 0.9569
C30_3 C 0.7521(6) 0.8963(3) 0.8664(3)
H18_3 H 0.8057 0.9335 0.8718
C31_3 C 0.6036(6) 0.8338(3) 0.8040(3)
H19_3 H 0.5514 0.8268 0.7653
C32_3 C 0.5964(6) 0.7898(3) 0.8524(3)
H20_3 H 0.5396 0.7541 0.8463
Zn6_2 Zn 0.68460(4) 0.94772(2) 0.734913(19)
C17_3 C 0.9021(4) 0.5020(2) 0.1949(2)
C18_4 C 0.6595(4) 0.3184(2) 0.0713(2)
H6_4 H 0.6601 0.3023 0.1119
C22_4 C 0.6641(4) 0.2722(2) 0.0242(2)
H10_4 H 0.6666 0.2260 0.0331
C28_4 C 0.6546(4) 0.4081(2) 0.00278(19)
O1_4 O 0.6411(3) 0.11717(16) 0.70703(14)
O2_4 O 0.4592(3) 0.03475(17) 0.63288(15)
C4_4 C 0.6735(4) 0.1511(2) 0.81424(19)
O8_4 O 0.7018(4) 0.03893(16) 0.78136(15)
C10_4 C 0.6690(4) 0.2456(2) 0.9113(2)
C11_4 C 0.6651(4) 0.2948(2) 0.96280(19)
C13_4 C 0.6723(4) 0.0983(2) 0.76296(19)
C19_4 C 0.7278(5) 0.1354(2) 0.8768(2)
H7_4 H 0.7656 0.0934 0.8865
C20_4 C 0.6605(4) 0.3647(2) 0.9531(2)
H8_4 H 0.6614 0.3822 0.9131
C21_4 C 0.6252(6) 0.2150(3) 0.8010(2)
H9_4 H 0.5946 0.2273 0.7594
C24_4 C 0.0815(4) 0.0436(3) 0.6499(2)
H12_4 H 0.0270 0.0747 0.6271
C25_4 C 0.6216(6) 0.2617(3) 0.8494(2)
H13_4 H 0.5867 0.3044 0.8397
C26_4 C 0.2057(4) 0.0425(3) 0.6435(2)
H14_4 H 0.2339 0.0721 0.6156
H16_4 H 0.6508 0.4546 0.9951
C29_4 C 0.7248(6) 0.1825(3) 0.9238(2)
H17_4 H 0.7612 0.1717 0.9651
O9_2 O 0.8351(3) 0.04250(17) 0.66440(15)
O3_4 O 0.6614(4) 0.87804(17) 0.66327(15)
C1_4 C 0.6631(4) 0.8468(2) 0.55710(19)
C2_4 C 0.6698(4) 0.7512(2) 0.46206(19)
C3_4 C 0.6735(4) 0.7017(2) 0.40999(19)
C5_4 C 0.0382(4) 0.9981(2) 0.6903(2)
C6_4 C 0.6480(4) 0.8670(2) 0.49496(19)
H1_4 H 0.6362 0.9127 0.4848
O6_4 O 0.4973(3) 0.9633(2) 0.71462(17)
O7_4 O 0.6530(3) 0.95935(15) 0.59102(15)
C7_4 C 0.4252(4) 0.9984(2) 0.67471(19)
C8_4 C 0.6584(4) 0.8986(2) 0.60791(19)
C9_4 C 0.6802(5) 0.7778(2) 0.5721(2)
H2_4 H 0.6886 0.7637 0.6139
C12_4 C 0.6501(4) 0.8198(2) 0.44754(19)
H3_4 H 0.6384 0.8340 0.4057
C14_4 C 0.1205(4) 0.9522(2) 0.7249(3)
H4_4 H 0.0918 0.9217 0.7519
C15_4 C 0.2454(4) 0.9519(2) 0.7192(2)
H5_4 H 0.3003 0.9212 0.7425
C16_4 C 0.2885(4) 0.9972(2) 0.6788(2)
C23_4 C 0.6846(5) 0.7304(2) 0.5248(2)
H11_4 H 0.6975 0.6848 0.5350
C27_4 C 0.7494(6) 0.6461(3) 0.4178(3)
H15_4 H 0.7984 0.6367 0.4569
C30_4 C 0.7521(6) 0.6037(3) 0.3664(3)
H18_4 H 0.8057 0.5665 0.3718
C31_4 C 0.6036(6) 0.6662(3) 0.3040(3)
H19_4 H 0.5514 0.6732 0.2653
C32_4 C 0.5964(6) 0.7102(3) 0.3524(3)
H20_4 H 0.5396 0.7459 0.3463
O10_2 O 0.8655(3) 0.95212(17) 0.72819(19)
C17_4 C 0.9021(4) 0.9980(2) 0.6949(2)
loop_
_geom_bond_atom_site_label_1
_geom_bond_atom_site_label_2
_geom_bond_site_symmetry_1
_geom_bond_site_symmetry_2
O5 C17 1_555 1_555
Zn5 O5 1_555 1_555
Zn3 O4 1_555 1_555
Zn5 O3 1_555 1_555
O3 C8 1_555 1_555
C1 C6 1_555 1_555
C2 C3 1_555 1_555
C3 C27 1_555 1_555
C5 C14 1_555 1_555
C6 H1 1_555 1_555
N2 C30 1_555 1_555
O6 Zn5 1_555 1_555
C8 C1 1_555 1_555
C9 C1 1_555 1_555
H2 C9 1_555 1_555
C12 C2 1_555 1_555
H3 C12 1_555 1_555
C14 H4 1_555 1_555
C15 C14 1_555 1_555
H5 C15 1_555 1_555
C16 C7 1_555 1_555
C23 C2 1_555 1_555
H11 C23 1_555 1_555
C27 H15 1_555 1_555
C30 C27 1_555 1_555
H18 C30 1_555 1_555
C31 N2 1_555 1_555
H19 C31 1_555 1_555
C32 C3 1_555 1_555
H20 C32 1_555 1_555
Zn6 N2 1_555 1_555
N4 Zn5 1_555 1_555
C6 C12 1_555 1_555
O6 C7 1_555 1_555
O7 C8 1_555 1_555
C9 C23 1_555 1_555
C15 C16 1_555 1_555
C31 C32 1_555 1_555
Zn3 O1 1_555 1_555
O1 C13 1_555 1_555
O2 Zn3 1_555 1_555
C4 C13 1_555 1_555
C10 C11 1_555 1_555
C11 C20 1_555 1_555
C13 O8 1_555 1_555
C19 C4 1_555 1_555
H7 C19 1_555 1_555
C20 H8 1_555 1_555
C21 C4 1_555 1_555
H9 C21 1_555 1_555
H12 C24 1_555 1_555
C25 C10 1_555 1_555
H13 C25 1_555 1_555
H14 C26 1_555 1_555
C29 C10 1_555 1_555
H17 C29 1_555 1_555
N3 Zn3 1_555 1_555
C19 C29 1_555 1_555
C21 C25 1_555 1_555
C24 C26 1_555 1_555
N1 C18 1_555 1_555
C18 H6 1_555 1_555
H10 C22 1_555 1_555
C28 N1 1_555 1_555
Zn4 N1 1_555 1_555
C18 C22 1_555 1_555
O4_2 C17_2 1_555 1_555
O5_2 C17_2 1_555 1_555
Zn4 O4_2 1_555 1_555
Zn6 O5_2 1_555 1_555
C2_2 C3_2 1_555 1_555
C3_2 C27_2 1_555 1_555
C6_2 H1_2 1_555 1_555
N4 C30_2 1_555 1_555
C12_2 C2_2 1_555 1_555
H3_2 C12_2 1_555 1_555
C27_2 H15_2 1_555 1_555
C30_2 C27_2 1_555 1_555
H18_2 C30_2 1_555 1_555
C31_2 N4 1_555 1_555
H19_2 C31_2 1_555 1_555
C32_2 C3_2 1_555 1_555
H20_2 C32_2 1_555 1_555
C6_2 C12_2 1_555 1_555
C31_2 C32_2 1_555 1_555
Zn4 O1_2 1_555 1_555
Zn6 O3_2 1_555 1_555
O1_2 C13_2 1_555 1_555
O2_2 Zn4 1_555 1_555
O3_2 C8_2 1_555 1_555
C4_2 C13_2 1_555 1_555
N3 C18_2 1_555 1_555
C5_2 C14_2 1_555 1_555
O6_2 Zn6 1_555 1_555
O7_2 Zn4 1_555 1_555
C7_2 O2_2 1_555 1_555
O8_2 Zn6 1_555 1_555
C8_2 C1_2 1_555 1_555
C9_2 C1_2 1_555 1_555
H2_2 C9_2 1_555 1_555
C10_2 C11_2 1_555 1_555
C11_2 C20_2 1_555 1_555
C13_2 O8_2 1_555 1_555
C14_2 H4_2 1_555 1_555
C15_2 C14_2 1_555 1_555
H5_2 C15_2 1_555 1_555
C16_2 C7_2 1_555 1_555
C18_2 H6_2 1_555 1_555
C19_2 C4_2 1_555 1_555
H7_2 C19_2 1_555 1_555
C20_2 H8_2 1_555 1_555
C21_2 C4_2 1_555 1_555
H9_2 C21_2 1_555 1_555
C22_2 C11_2 1_555 1_555
H10_2 C22_2 1_555 1_555
H11_2 C23_2 1_555 1_555
C24_2 C5_2 1_555 1_555
H12_2 C24_2 1_555 1_555
C25_2 C10_2 1_555 1_555
H13_2 C25_2 1_555 1_555
C26_2 C16_2 1_555 1_555
H14_2 C26_2 1_555 1_555
C28_2 N3 1_555 1_555
H16_2 C28_2 1_555 1_555
C29_2 C10_2 1_555 1_555
H17_2 C29_2 1_555 1_555
O6_2 C7_2 1_555 1_555
O7_2 C8_2 1_555 1_555
C9_2 C23_2 1_555 1_555
C15_2 C16_2 1_555 1_555
C18_2 C22_2 1_555 1_555
C19_2 C29_2 1_555 1_555
C20_2 C28_2 1_555 1_555
C21_2 C25_2 1_555 1_555
C24_2 C26_2 1_555 1_555
Zn1 O1_3 1_555 1_555
Zn2 O3_3 1_555 1_555
O1_3 C13_3 1_555 1_555
O2_3 Zn1 1_555 1_555
O3_3 C8_3 1_555 1_555
C4_3 C13_3 1_555 1_555
N1_2 C18_3 1_555 1_555
C5_3 C14_3 1_555 1_555
O6_3 Zn2 1_555 1_555
O7_3 Zn1 1_555 1_555
C7_3 O2_3 1_555 1_555
O8_3 Zn2 1_555 1_555
C8_3 C1_3 1_555 1_555
C9_3 C1_3 1_555 1_555
H2_3 C9_3 1_555 1_555
C10_3 C11_3 1_555 1_555
C11_3 C20_3 1_555 1_555
C13_3 O8_3 1_555 1_555
C14_3 H4_3 1_555 1_555
C15_3 C14_3 1_555 1_555
H5_3 C15_3 1_555 1_555
C16_3 C7_3 1_555 1_555
C18_3 H6_3 1_555 1_555
C19_3 C4_3 1_555 1_555
H7_3 C19_3 1_555 1_555
C20_3 H8_3 1_555 1_555
C21_3 C4_3 1_555 1_555
H9_3 C21_3 1_555 1_555
C22_3 C11_3 1_555 1_555
H10_3 C22_3 1_555 1_555
H11_3 C23_3 1_555 1_555
C24_3 C5_3 1_555 1_555
H12_3 C24_3 1_555 1_555
C25_3 C10_3 1_555 1_555
H13_3 C25_3 1_555 1_555
C26_3 C16_3 1_555 1_555
H14_3 C26_3 1_555 1_555
C28_3 N1_2 1_555 1_555
H16_3 C28_3 1_555 1_555
C29_3 C10_3 1_555 1_555
H17_3 C29_3 1_555 1_555
Zn4_2 N1_2 1_555 1_555
O9 Zn1 1_555 1_555
O10 Zn2 1_555 1_555
N3_2 Zn1 1_555 1_555
N4_2 Zn2 1_555 1_555
O6_3 C7_3 1_555 1_555
O7_3 C8_3 1_555 1_555
C9_3 C23_3 1_555 1_555
C15_3 C16_3 1_555 1_555
C18_3 C22_3 1_555 1_555
C19_3 C29_3 1_555 1_555
C20_3 C28_3 1_555 1_555
C21_3 C25_3 1_555 1_555
C24_3 C26_3 1_555 1_555
C2_3 C3_3 1_555 1_555
C3_3 C27_3 1_555 1_555
C6_3 H1_3 1_555 1_555
N2_2 C30_3 1_555 1_555
C12_3 C2_3 1_555 1_555
H3_3 C12_3 1_555 1_555
C27_3 H15_3 1_555 1_555
C30_3 C27_3 1_555 1_555
H18_3 C30_3 1_555 1_555
C31_3 N2_2 1_555 1_555
H19_3 C31_3 1_555 1_555
C32_3 C3_3 1_555 1_555
H20_3 C32_3 1_555 1_555
Zn6_2 N2_2 1_555 1_555
C6_3 C12_3 1_555 1_555
C31_3 C32_3 1_555 1_555
O9 C17_3 1_555 1_555
O10 C17_3 1_555 1_555
N3_2 C18_4 1_555 1_555
C18_4 H6_4 1_555 1_555
H10_4 C22_4 1_555 1_555
C28_4 N3_2 1_555 1_555
C18_4 C22_4 1_555 1_555
Zn4_2 O1_4 1_555 1_555
O1_4 C13_4 1_555 1_555
O2_4 Zn4_2 1_555 1_555
C4_4 C13_4 1_555 1_555
C10_4 C11_4 1_555 1_555
C11_4 C20_4 1_555 1_555
C13_4 O8_4 1_555 1_555
C19_4 C4_4 1_555 1_555
H7_4 C19_4 1_555 1_555
C20_4 H8_4 1_555 1_555
C21_4 C4_4 1_555 1_555
H9_4 C21_4 1_555 1_555
H12_4 C24_4 1_555 1_555
C25_4 C10_4 1_555 1_555
H13_4 C25_4 1_555 1_555
H14_4 C26_4 1_555 1_555
C29_4 C10_4 1_555 1_555
H17_4 C29_4 1_555 1_555
O9_2 Zn4_2 1_555 1_555
C19_4 C29_4 1_555 1_555
C21_4 C25_4 1_555 1_555
C24_4 C26_4 1_555 1_555
Zn6_2 O3_4 1_555 1_555
O3_4 C8_4 1_555 1_555
C1_4 C6_4 1_555 1_555
C2_4 C3_4 1_555 1_555
C3_4 C27_4 1_555 1_555
C5_4 C14_4 1_555 1_555
C6_4 H1_4 1_555 1_555
N4_2 C30_4 1_555 1_555
O6_4 Zn6_2 1_555 1_555
C8_4 C1_4 1_555 1_555
C9_4 C1_4 1_555 1_555
H2_4 C9_4 1_555 1_555
C12_4 C2_4 1_555 1_555
H3_4 C12_4 1_555 1_555
C14_4 H4_4 1_555 1_555
C15_4 C14_4 1_555 1_555
H5_4 C15_4 1_555 1_555
C16_4 C7_4 1_555 1_555
C23_4 C2_4 1_555 1_555
H11_4 C23_4 1_555 1_555
C27_4 H15_4 1_555 1_555
C30_4 C27_4 1_555 1_555
H18_4 C30_4 1_555 1_555
C31_4 N4_2 1_555 1_555
H19_4 C31_4 1_555 1_555
C32_4 C3_4 1_555 1_555
H20_4 C32_4 1_555 1_555
O10_2 Zn6_2 1_555 1_555
C6_4 C12_4 1_555 1_555
O6_4 C7_4 1_555 1_555
O7_4 C8_4 1_555 1_555
C9_4 C23_4 1_555 1_555
C15_4 C16_4 1_555 1_555
C31_4 C32_4 1_555 1_555
O10_2 C17_4 1_555 1_555

#END
