
###############################################################################
#
# This file contains modified crystal structure data generated from the
# MOF subset of the Cambridge Structural Database (CSD) v543 
# hosted by the Cambridge Crystallographic Data Centre (CCDC).
#
# This work is licensed under the Creative Commons
# Attribution-NonCommercial-ShareAlike 4.0 International License.
# To view a copy of this license, visit
# http://creativecommons.org/licenses/by-nc-sa/4.0/
# or send a letter to
# Creative Commons, PO Box 1866, Mountain View, CA 94042, USA.
#
# CIF created using the CSD Python API on 29 September 2022
# The structure has been converted into the P1 space group
# The structure has a 3D framework
# The original CSD entry UXAYOK is in the trigonal crystal system
# The original CSD entry UXAYOK is in a Sohncke space group
# The framework has been calculated to contain at least 10.0% void space
# The void calculation uses a probe of radius 1.32A, grid spacing 0.4
#
###############################################################################

data_UXAYOK
_chemical_formula_moiety         '(C132 H156 N6 O48 U6)n'
_symmetry_cell_setting           triclinic
_symmetry_space_group_name_H-M   'P 1'
_symmetry_Int_Tables_number      1
_space_group_name_Hall           'P 1'
loop_
_symmetry_equiv_pos_site_id
_symmetry_equiv_pos_as_xyz
1 x,y,z
_cell_length_a                   14.1572(5)
_cell_length_b                   14.1572(5)
_cell_length_c                   22.6156(9)
_cell_angle_alpha                90
_cell_angle_beta                 90
_cell_angle_gamma                120
_cell_volume                     3925.49
loop_
_atom_site_label
_atom_site_type_symbol
_atom_site_fract_x
_atom_site_fract_y
_atom_site_fract_z
C4 C 0.2053(4) 0.0943(5) 0.5779(3)
H2 H 0.269755 0.135511 0.600553
C5 C 0.1974(5) 0.1272(4) 0.5219(3)
H3 H 0.25685 0.190904 0.505394
C6 C 0.1032(5) 0.0677(4) 0.4896(3)
H4 H 0.098139 0.091454 0.451002
O9 O 0.0556(3) 0.6459(3) 0.47105(16)
O11 O 0.1626(3) 0.4560(3) 0.34186(15)
O12 O 0.3255(3) 0.5091(3) 0.37608(15)
C1 C 0.0150(4) 0.9732(4) 0.5124(2)
C2 C 0.0230(4) 0.9393(4) 0.5693(2)
C3 C 0.1179(4) 0.9999(4) 0.6013(2)
H1 H 0.123686 0.976743 0.639917
C11 C 0.2413(3) 0.6264(3) 0.49292(19)
C12 C 0.3055(4) 0.6779(3) 0.44305(19)
C13 C 0.4081(4) 0.7690(4) 0.4509(2)
H9 H 0.452385 0.803841 0.417317
C14 C 0.4469(4) 0.8099(4) 0.5069(2)
H10 H 0.517504 0.871756 0.511482
C15 C 0.3834(4) 0.7610(4) 0.5556(2)
H11 H 0.40955 0.789911 0.59391
C16 C 0.2802(4) 0.6688(4) 0.54904(19)
H12 H 0.2365 0.634919 0.582889
C17 C 0.1293(3) 0.5274(3) 0.4867(2)
H13 H 0.104897 0.491908 0.525805
H14 H 0.13358 0.474586 0.459708
C18 C 0.0456(4) 0.5546(3) 0.4631(2)
C19 C 0.2622(4) 0.6383(4) 0.38186(19)
H15 H 0.311918 0.692984 0.352848
H16 H 0.190151 0.633307 0.378032
C20 C 0.2499(4) 0.5285(4) 0.36640(17)
U4 U 0.21767(3) 0.31689(2) 0.34022(2)
O19 O 0.6349(3) 0.0350(4) 0.70508(16)
O20 O 0.8069(3) 0.1009(4) 0.68222(16)
U1 U 0.88535(2) 0.60332(2) 0.41849(2)
U2 U 0.68311(2) 0.90078(2) 0.67355(2)
O1 O 0.8091(3) 0.5544(3) 0.48485(15)
O2 O 0.9609(3) 0.6504(3) 0.35191(15)
O3 O 0.7187(3) 0.8828(3) 0.74615(15)
O4 O 0.6456(3) 0.9143(3) 0.60044(15)
O5 O 0.8255(3) 0.7417(3) 0.41870(17)
O6 O 0.9832(3) 0.7859(3) 0.45819(17)
O7 O 0.8662(3) 0.9534(3) 0.63893(18)
O8 O 0.7467(3) 0.7788(3) 0.63125(17)
O10 O 0.9621(3) 0.4823(3) 0.43497(16)
O13 O 0.7703(3) 0.4178(3) 0.37363(15)
O14 O 0.7233(3) 0.5418(3) 0.35887(16)
O15 O 0.4001(3) 0.3651(3) 0.37175(16)
O16 O 0.2940(3) 0.1931(3) 0.34889(16)
C7 C 0.9154(5) 0.9092(4) 0.4742(3)
H5 H 0.917166 0.95626 0.441411
H6 H 0.849466 0.88913 0.498143
C8 C 0.9070(4) 0.8058(4) 0.4485(2)
C9 C 0.9291(4) 0.8389(4) 0.5960(3)
H7 H 0.957649 0.810232 0.626903
H8 H 0.895146 0.782386 0.564909
C10 C 0.8424(4) 0.8582(4) 0.6230(2)
C21 C 0.5856(4) 0.2560(4) 0.3084(2)
C22 C 0.5090(3) 0.1916(4) 0.3518(2)
C23 C 0.4744(4) 0.0808(4) 0.3551(2)
H17 H 0.421971 0.03698 0.384044
C24 C 0.5153(4) 0.0332(4) 0.3167(2)
C25 C 0.5919(4) 0.0970(4) 0.2742(2)
H19 H 0.621005 0.065447 0.24812
C26 C 0.6254(4) 0.2073(4) 0.2702(2)
H20 H 0.676682 0.250365 0.24063
C27 C 0.6233(4) 0.3756(4) 0.3035(2)
H21 H 0.559245 0.385558 0.308176
H22 H 0.652791 0.400477 0.263267
C28 C 0.7096(4) 0.4480(4) 0.3483(2)
C29 C 0.4660(4) 0.2421(4) 0.3955(2)
H23 H 0.528211 0.310229 0.411049
H24 H 0.432531 0.191473 0.429199
C30 C 0.3824(4) 0.2683(4) 0.37000(19)
O17 O 0.5440(3) 0.7066(4) 0.67519(15)
O18 O 0.4909(3) 0.8164(4) 0.70941(15)
U1_2 U 0.39668(2) 0.28203(3) 0.75182(2)
O1_2 O 0.4456(3) 0.2547(4) 0.81818(15)
O2_2 O 0.3496(3) 0.3105(4) 0.68524(15)
O5_2 O 0.2583(3) 0.0838(4) 0.75203(17)
O6_2 O 0.2141(3) 0.1973(4) 0.79152(17)
O9_2 O 0.3541(3) 0.4097(4) 0.80438(16)
O10_2 O 0.5177(3) 0.4798(4) 0.76830(16)
O13_2 O 0.5822(3) 0.3525(4) 0.70696(15)
O14_2 O 0.4582(3) 0.1815(4) 0.69220(16)
C1_2 C 0.0268(4) 0.0418(6) 0.8457(2)
C2_2 C 0.0607(4) 0.0837(6) 0.9026(2)
C3_2 C 0.0001(4) 0.1180(6) 0.9346(2)
H1_2 H 0.023257 0.146943 0.973250
C7_2 C 0.0908(4) 0.0062(6) 0.8075(3)
C8_2 C 0.1942(4) 0.1012(6) 0.7818(2)
C9_2 C 0.1611(4) 0.0902(6) 0.9293(3)
H7_2 H 0.189768 0.147417 0.960236
H8_2 H 0.217614 0.112760 0.898242
C11_2 C 0.3736(3) 0.6149(4) 0.82625(19)
C12_2 C 0.3221(3) 0.6276(5) 0.77638(19)
C13_2 C 0.2310(4) 0.6391(6) 0.7842(2)
H9_2 H 0.196159 0.648544 0.750650
C14_2 C 0.1901(4) 0.6370(6) 0.8402(2)
H10_2 H 0.128244 0.645748 0.844815
C15_2 C 0.2390(4) 0.6224(6) 0.8889(2)
H11_2 H 0.210089 0.619639 0.92724
C16_2 C 0.3312(4) 0.6114(6) 0.88237(19)
H12_2 H 0.365081 0.601581 0.916222
C17_2 C 0.4726(3) 0.6019(4) 0.8200(2)
H13_2 H 0.508092 0.612989 0.859138
H14_2 H 0.525414 0.658994 0.793041
C18_2 C 0.4454(3) 0.4910(5) 0.7964(2)
C19_2 C 0.3617(4) 0.6239(6) 0.71519(19)
H15_2 H 0.307016 0.618934 0.686181
H16_2 H 0.366693 0.556844 0.711365
C20_2 C 0.4715(4) 0.7214(6) 0.69973(17)
C21_2 C 0.7440(4) 0.3296(6) 0.6417(2)
C22_2 C 0.8084(4) 0.3174(5) 0.6851(2)
C23_2 C 0.9192(4) 0.3936(6) 0.6884(2)
H17_2 H 0.96302 0.384991 0.717377
C24_2 C 0.9668(4) 0.4821(6) 0.6500(2)
C25_2 C 0.9030(4) 0.4949(6) 0.6075(2)
H19_2 H 0.934553 0.555558 0.58145
C26_2 C 0.7927(4) 0.4181(6) 0.6035(2)
H20_2 H 0.749635 0.426317 0.57396
C27_2 C 0.6244(4) 0.2477(6) 0.6368(2)
H21_2 H 0.614442 0.173687 0.641509
H22_2 H 0.599523 0.252314 0.596600
C28_2 C 0.5520(4) 0.2616(6) 0.6816(2)
C29_2 C 0.7579(4) 0.2239(6) 0.7288(2)
H23_2 H 0.689771 0.217982 0.744382
H24_2 H 0.808527 0.241058 0.762532
C30_2 C 0.7317(4) 0.1141(6) 0.70333(19)
U2_2 U 0.09922(2) 0.78233(3) 0.00688(2)
O3_2 O 0.1172(3) 0.8359(4) 0.07948(15)
O17_2 O 0.2934(4) 0.8374(5) 0.00853(15)
O18_2 O 0.1836(4) 0.6745(5) 0.04275(15)
O4_2 O 0.0857(3) 0.7313(4) 0.93377(15)
O7_2 O 0.0466(3) 0.9128(4) 0.97226(18)
O8_2 O 0.2212(3) 0.9679(4) 0.96458(17)
H5_2 H 0.04374 0.960906 0.774744
H6_2 H 0.11087 0.960336 0.831476
C10_2 C 0.1418(4) 0.9842(6) 0.9563(2)
O3_3 O 0.1641(4) 0.2813(3) 0.41282(15)
O4_3 O 0.2687(4) 0.3544(3) 0.26711(15)
O7_3 O 0.0872(4) 0.1338(3) 0.30560(18)
O8_3 O 0.0321(4) 0.2533(3) 0.29792(17)
H5_3 H 0.039094 0.082834 0.108078
H6_3 H 0.039664 0.150534 0.164810
C10_3 C 0.0158(6) 0.1576(4) 0.2897(2)
O9_3 O 0.5903(4) 0.9444(3) 0.13772(16)
C1_3 C 0.9582(6) 0.9850(4) 0.1791(2)
C2_3 C 0.9163(6) 0.9770(4) 0.2360(2)
C3_3 C 0.8820(6) 0.8821(4) 0.2680(2)
H1_3 H 0.853057 0.876314 0.306584
C4_2 C 0.8890(6) 0.7947(4) 0.2446(3)
H2_2 H 0.865756 0.730245 0.267220
C5_2 C 0.9298(6) 0.8026(5) 0.1886(3)
H3_2 H 0.934054 0.74315 0.172061
C6_2 C 0.9645(6) 0.8968(5) 0.1563(3)
H4_2 H 0.993315 0.901861 0.117669
C11_3 C 0.3851(4) 0.7587(3) 0.15959(19)
C12_3 C 0.3724(5) 0.6945(4) 0.10972(19)
C13_3 C 0.3609(6) 0.5919(4) 0.1176(2)
H9_3 H 0.351456 0.547615 0.083984
C14_3 C 0.3630(6) 0.5531(4) 0.1736(2)
H10_3 H 0.354252 0.482496 0.178149
C15_3 C 0.3776(6) 0.6166(4) 0.2223(2)
H11_3 H 0.380361 0.59045 0.26058
C16_3 C 0.3886(6) 0.7198(4) 0.21571(19)
H12_3 H 0.398419 0.7635 0.249556
C17_3 C 0.3981(4) 0.8707(3) 0.1534(2)
H13_3 H 0.387011 0.895103 0.192472
H14_3 H 0.341006 0.86642 0.126375
C18_3 C 0.5090(5) 0.9544(4) 0.1298(2)
C19_3 C 0.3761(6) 0.7378(4) 0.04853(19)
H15_3 H 0.381066 0.688082 0.019515
H16_3 H 0.443156 0.809849 0.044699
C20_3 C 0.2786(6) 0.7501(4) 0.03307(17)
H18 H 0.491161 0.957471 0.319401
H18_2 H 0.042529 0.533690 0.652734
C4_3 C 0.9057(5) 0.1110(6) 0.9112(3)
H2_3 H 0.864489 0.134244 0.933886
C5_3 C 0.8728(4) 0.0702(6) 0.8552(3)
H3_3 H 0.809096 0.065946 0.838727
C6_3 C 0.9323(4) 0.0355(6) 0.8229(3)
H4_3 H 0.908546 0.006685 0.784335
O19_2 O 0.9650(4) 0.5999(5) 0.03842(16)
O20_2 O 0.8991(4) 0.7060(5) 0.01556(16)
U1_3 U 0.71797(3) 0.11465(2) 0.08516(2)
O1_3 O 0.7453(4) 0.1909(3) 0.15152(15)
O2_3 O 0.6895(4) 0.0391(3) 0.01858(15)
O5_3 O 0.9162(4) 0.1745(3) 0.08537(17)
O6_3 O 0.8027(4) 0.0168(3) 0.12486(17)
O10_3 O 0.5202(4) 0.0379(3) 0.10164(16)
O13_3 O 0.6475(4) 0.2297(3) 0.04030(15)
O14_3 O 0.8185(4) 0.2767(3) 0.02554(16)
C7_3 C 0.9938(6) 0.0846(5) 0.1409(3)
C8_3 C 0.8988(6) 0.0930(4) 0.1152(2)
C9_3 C 0.9098(6) 0.0709(4) 0.2627(3)
H7_3 H 0.852583 0.042351 0.293570
H8_3 H 0.887240 0.104854 0.231576
C22_3 C 0.6826(5) 0.4910(3) 0.0185(2)
C23_3 C 0.6064(6) 0.5256(4) 0.0218(2)
H17_3 H 0.615009 0.578029 0.050711
C28_3 C 0.7384(6) 0.2904(4) 0.0150(2)
C29_3 C 0.7761(6) 0.5340(4) 0.0622(2)
H23_3 H 0.782018 0.471789 0.077716
H24_3 H 0.758942 0.567469 0.095866
C30_3 C 0.8859(6) 0.6176(4) 0.03667(19)
C21_3 C 0.6704(6) 0.4144(4) 0.9751(2)
C24_3 C 0.5179(6) 0.4847(4) 0.9834(2)
H18_3 H 0.466310 0.508839 0.986068
C25_3 C 0.5051(6) 0.4081(4) 0.9409(2)
H19_3 H 0.444442 0.378995 0.91479
C26_3 C 0.5819(6) 0.3746(4) 0.9369(2)
H20_3 H 0.573683 0.323318 0.90730
C27_3 C 0.7523(6) 0.3767(4) 0.9702(2)
H21_3 H 0.826313 0.440755 0.974843
H22_3 H 0.747686 0.347209 0.929934
N1 N 0.5465(4) 0.5821(3) 0.58029(18)
H25 H 0.579(5) 0.641(4) 0.608(2)
C31 C 0.4238(4) 0.5206(4) 0.5887(2)
H26 H 0.3959 0.572253 0.587705
H27 H 0.405297 0.483569 0.627584
C32 C 0.3710(4) 0.4366(4) 0.5394(3)
H28 H 0.316557 0.365312 0.556306
H29 H 0.333289 0.460214 0.511343
C33 C 0.5893(5) 0.5069(4) 0.5913(2)
H30 H 0.579405 0.48514 0.633477
H31 H 0.668242 0.544163 0.582173
C34 C 0.5281(5) 0.4063(4) 0.5524(3)
H32 H 0.580695 0.391201 0.53161
H33 H 0.480334 0.34223 0.577109
C35 C 0.5748(5) 0.6279(5) 0.5189(2)
H34 H 0.654846 0.674338 0.514843
H35 H 0.541006 0.673109 0.510663
C36 C 0.5318(4) 0.5319(5) 0.4749(2)
H36 H 0.489357 0.542221 0.443301
H37 H 0.593797 0.529453 0.456349
C37 C 0.4596(4) 0.4255(4) 0.5074(2)
H38 H 0.425998 0.363614 0.478671
C33_2 C 0.4931(4) 0.0824(6) 0.9246(2)
H30_2 H 0.51486 0.094265 0.966810
H31_2 H 0.455837 0.124079 0.915506
C34_2 C 0.5937(4) 0.1218(6) 0.8857(3)
H32_2 H 0.608799 0.189494 0.86494
H33_2 H 0.65777 0.138104 0.910442
H37_2 H 0.470547 0.064344 0.789682
C37_2 C 0.5745(4) 0.0341(6) 0.8407(2)
H38_2 H 0.636386 0.062384 0.812004
N1_2 N 0.4179(3) 0.9644(5) 0.91362(18)
H25_2 H 0.359(4) 0.938(6) 0.941(2)
C31_2 C 0.4794(4) 0.9032(6) 0.9220(2)
H26_2 H 0.427747 0.823647 0.921038
H27_2 H 0.516431 0.921728 0.960917
C32_2 C 0.5634(4) 0.9344(6) 0.8727(3)
H28_2 H 0.634688 0.951245 0.889639
H29_2 H 0.539786 0.873075 0.844676
C35_2 C 0.3721(5) 0.9469(7) 0.8522(2)
H34_2 H 0.325662 0.980508 0.848176
H35_2 H 0.326891 0.867897 0.843996
C36_2 C 0.4681(5) 0.9999(6) 0.8082(2)
H36_2 H 0.457779 0.947136 0.776634
N1_3 N 0.0356(5) 0.4535(4) 0.24696(18)
H25_3 H 0.062(6) 0.421(5) 0.275(2)
C31_3 C 0.0968(6) 0.5762(4) 0.2554(2)
H26_3 H 0.176353 0.6041 0.254372
H27_3 H 0.078272 0.594703 0.294251
C32_3 C 0.0656(6) 0.6290(4) 0.2061(3)
H28_3 H 0.048755 0.683443 0.222973
H29_3 H 0.126925 0.666711 0.178010
C35_3 C 0.0531(7) 0.4252(5) 0.1856(2)
H34_3 H 0.019492 0.345154 0.181510
H35_3 H 0.132103 0.458994 0.177330
C36_3 C 0.0001(6) 0.4682(4) 0.1416(2)
H36_3 H 0.052864 0.510643 0.109968
C33_3 C 0.9176(6) 0.4107(5) 0.2580(2)
H30_3 H 0.905735 0.420595 0.300144
H31_3 H 0.875921 0.331758 0.248840
C34_3 C 0.8782(6) 0.4719(5) 0.2191(3)
H32_3 H 0.810506 0.419305 0.19828
H33_3 H 0.861896 0.519666 0.243776
H37_3 H 0.935656 0.406203 0.123016
C37_3 C 0.9659(6) 0.5404(4) 0.1741(2)
H38_3 H 0.937616 0.574002 0.145338
N2 N 0.8323(4) 0.2633(3) 0.4528(2)
H39 H 0.859(5) 0.339(2) 0.444(3)
C38 C 0.7197(5) 0.2183(4) 0.4769(3)
H40 H 0.675617 0.236084 0.449908
H41 H 0.722414 0.250921 0.515998
C39 C 0.6678(5) 0.0942(5) 0.4827(3)
H42 H 0.631917 0.070104 0.521695
H43 H 0.611821 0.057433 0.451591
C40 C 0.8296(6) 0.2061(5) 0.3972(3)
H44 H 0.901704 0.244375 0.377549
H45 H 0.774579 0.205187 0.369808
C41 C 0.8003(6) 0.0894(5) 0.4128(3)
H46 H 0.865704 0.081554 0.409169
H47 H 0.744193 0.037575 0.385015
C42 C 0.9022(5) 0.2508(5) 0.4988(3)
H48 H 0.911227 0.297783 0.533272
H49 H 0.975295 0.274144 0.482205
C43 C 0.8490(5) 0.1323(4) 0.5185(3)
H50 H 0.903244 0.107633 0.518103
H51 H 0.820464 0.124617 0.559237
C44 C 0.7566(4) 0.0638(4) 0.4763(2)
H52 H 0.726197 0.98449 0.484913
H52_2 H 0.01551 0.741707 0.818246
N2_2 N 0.7367(3) 0.5690(5) 0.7861(2)
H39_2 H 0.661(2) 0.520(5) 0.777(3)
C38_2 C 0.7817(4) 0.5014(6) 0.8102(3)
H40_2 H 0.763916 0.439533 0.783241
H41_2 H 0.749079 0.471493 0.849331
C39_2 C 0.9058(5) 0.5736(7) 0.8160(3)
H42_2 H 0.929896 0.561813 0.855028
H43_2 H 0.942567 0.554388 0.784924
C40_2 C 0.7939(5) 0.6235(8) 0.7305(3)
H44_2 H 0.755625 0.657329 0.710882
H45_2 H 0.794813 0.569392 0.703141
C41_2 C 0.9106(5) 0.7109(8) 0.7461(3)
H46_2 H 0.918446 0.784150 0.742502
H47_2 H 0.962425 0.706618 0.718348
C42_2 C 0.7492(5) 0.6514(7) 0.8321(3)
H48_2 H 0.702217 0.613444 0.866605
H49_2 H 0.725856 0.701151 0.815538
C43_2 C 0.8677(4) 0.7167(6) 0.8518(3)
H50_2 H 0.892367 0.795611 0.851436
H51_2 H 0.875383 0.695847 0.892570
C44_2 C 0.9362(4) 0.6928(6) 0.8096(2)
N2_3 N 0.4310(5) 0.1677(4) 0.1195(2)
H39_3 H 0.480(5) 0.141(5) 0.111(3)
C38_3 C 0.4986(6) 0.2803(5) 0.1436(3)
H40_3 H 0.560467 0.324383 0.116575
H41_3 H 0.528507 0.277586 0.182665
C39_3 C 0.4264(7) 0.3322(5) 0.1494(3)
H42_3 H 0.438187 0.368083 0.188362
H43_3 H 0.445612 0.388179 0.118258
C40_3 C 0.3765(8) 0.1704(6) 0.0639(3)
H44_3 H 0.342671 0.098296 0.044216
H45_3 H 0.430608 0.225421 0.036475
C41_3 C 0.2891(8) 0.1997(6) 0.0795(3)
H46_3 H 0.215850 0.134296 0.075836
H47_3 H 0.293382 0.255807 0.051682
C42_3 C 0.3486(7) 0.0978(5) 0.1655(3)
H48_3 H 0.386556 0.088773 0.199939
H49_3 H 0.298849 0.024705 0.148872
C43_3 C 0.2833(6) 0.1510(5) 0.1852(3)
H50_3 H 0.204389 0.096756 0.184770
H51_3 H 0.304153 0.179536 0.225904
C44_3 C 0.3072(6) 0.2434(4) 0.1430(2)
H52_3 H 0.258293 0.273803 0.151580
loop_
_geom_bond_atom_site_label_1
_geom_bond_atom_site_label_2
_geom_bond_site_symmetry_1
_geom_bond_site_symmetry_2
H2 C4 1_555 1_555
C5 C4 1_555 1_555
H3 C5 1_555 1_555
H4 C6 1_555 1_555
C5 C6 1_555 1_555
O11 C20 1_555 1_555
O12 C20 1_555 1_555
C1 C2 1_555 1_555
C2 C3 1_555 1_555
C3 H1 1_555 1_555
C11 C12 1_555 1_555
C12 C13 1_555 1_555
C13 H9 1_555 1_555
C14 C13 1_555 1_555
H10 C14 1_555 1_555
C15 C14 1_555 1_555
H11 C15 1_555 1_555
C16 C11 1_555 1_555
H12 C16 1_555 1_555
C17 C11 1_555 1_555
H13 C17 1_555 1_555
H14 C17 1_555 1_555
C18 O9 1_555 1_555
C19 C12 1_555 1_555
H15 C19 1_555 1_555
H16 C19 1_555 1_555
C20 C19 1_555 1_555
U4 O11 1_555 1_555
O12 U4 1_555 1_555
C15 C16 1_555 1_555
C17 C18 1_555 1_555
U1 O1 1_555 1_555
U2 O3 1_555 1_555
O2 U1 1_555 1_555
O4 U2 1_555 1_555
O5 U1 1_555 1_555
O6 U1 1_555 1_555
O7 U2 1_555 1_555
O8 U2 1_555 1_555
O10 U1 1_555 1_555
O13 U1 1_555 1_555
O14 U1 1_555 1_555
O15 C30 1_555 1_555
O16 C30 1_555 1_555
H5 C7 1_555 1_555
H6 C7 1_555 1_555
C8 O5 1_555 1_555
H7 C9 1_555 1_555
H8 C9 1_555 1_555
C10 O7 1_555 1_555
C21 C22 1_555 1_555
C22 C23 1_555 1_555
C23 H17 1_555 1_555
C24 C23 1_555 1_555
C25 C24 1_555 1_555
H19 C25 1_555 1_555
C26 C21 1_555 1_555
H20 C26 1_555 1_555
C27 C21 1_555 1_555
H21 C27 1_555 1_555
H22 C27 1_555 1_555
C28 O13 1_555 1_555
C29 C22 1_555 1_555
H23 C29 1_555 1_555
H24 C29 1_555 1_555
C30 C29 1_555 1_555
U4 O15 1_555 1_555
O17 U2 1_555 1_555
O18 U2 1_555 1_555
O6 C8 1_555 1_555
O8 C10 1_555 1_555
O14 C28 1_555 1_555
O16 U4 1_555 1_555
C7 C8 1_555 1_555
C9 C10 1_555 1_555
C25 C26 1_555 1_555
C27 C28 1_555 1_555
U1_2 O1_2 1_555 1_555
O2_2 U1_2 1_555 1_555
O5_2 U1_2 1_555 1_555
O6_2 U1_2 1_555 1_555
O9_2 U1_2 1_555 1_555
O10_2 U1_2 1_555 1_555
O17 C20_2 1_555 1_555
O18 C20_2 1_555 1_555
O13_2 U1_2 1_555 1_555
O14_2 U1_2 1_555 1_555
O19 C30_2 1_555 1_555
O20 C30_2 1_555 1_555
C1_2 C2_2 1_555 1_555
C2_2 C3_2 1_555 1_555
C3_2 H1_2 1_555 1_555
C7_2 C1_2 1_555 1_555
C8_2 O5_2 1_555 1_555
C9_2 C2_2 1_555 1_555
H7_2 C9_2 1_555 1_555
H8_2 C9_2 1_555 1_555
C11_2 C12_2 1_555 1_555
C12_2 C13_2 1_555 1_555
C13_2 H9_2 1_555 1_555
C14_2 C13_2 1_555 1_555
H10_2 C14_2 1_555 1_555
C15_2 C14_2 1_555 1_555
H11_2 C15_2 1_555 1_555
C16_2 C11_2 1_555 1_555
H12_2 C16_2 1_555 1_555
C17_2 C11_2 1_555 1_555
H13_2 C17_2 1_555 1_555
H14_2 C17_2 1_555 1_555
C18_2 O9_2 1_555 1_555
C19_2 C12_2 1_555 1_555
H15_2 C19_2 1_555 1_555
H16_2 C19_2 1_555 1_555
C20_2 C19_2 1_555 1_555
C21_2 C22_2 1_555 1_555
C22_2 C23_2 1_555 1_555
C23_2 H17_2 1_555 1_555
C24_2 C23_2 1_555 1_555
C25_2 C24_2 1_555 1_555
H19_2 C25_2 1_555 1_555
C26_2 C21_2 1_555 1_555
H20_2 C26_2 1_555 1_555
C27_2 C21_2 1_555 1_555
H21_2 C27_2 1_555 1_555
H22_2 C27_2 1_555 1_555
C28_2 O13_2 1_555 1_555
C29_2 C22_2 1_555 1_555
H23_2 C29_2 1_555 1_555
H24_2 C29_2 1_555 1_555
C30_2 C29_2 1_555 1_555
O6_2 C8_2 1_555 1_555
O10_2 C18_2 1_555 1_555
O14_2 C28_2 1_555 1_555
C7_2 C8_2 1_555 1_555
C15_2 C16_2 1_555 1_555
C17_2 C18_2 1_555 1_555
C25_2 C26_2 1_555 1_555
C27_2 C28_2 1_555 1_555
U2_2 O3_2 1_555 1_555
O17_2 U2_2 1_555 1_555
O18_2 U2_2 1_555 1_555
C10_2 O7_2 1_555 1_555
O8_2 C10_2 1_555 1_555
U4 O3_3 1_555 1_555
O4_3 U4 1_555 1_555
O7_3 U4 1_555 1_555
O8_3 U4 1_555 1_555
C10_3 O7_3 1_555 1_555
O8_3 C10_3 1_555 1_555
O17_2 C20_3 1_555 1_555
O18_2 C20_3 1_555 1_555
C1_3 C2_3 1_555 1_555
C2_3 C3_3 1_555 1_555
C3_3 H1_3 1_555 1_555
C4_2 C3_3 1_555 1_555
H2_2 C4_2 1_555 1_555
C5_2 C4_2 1_555 1_555
H3_2 C5_2 1_555 1_555
C6_2 C1_3 1_555 1_555
H4_2 C6_2 1_555 1_555
C11_3 C12_3 1_555 1_555
C12_3 C13_3 1_555 1_555
C13_3 H9_3 1_555 1_555
C14_3 C13_3 1_555 1_555
H10_3 C14_3 1_555 1_555
C15_3 C14_3 1_555 1_555
H11_3 C15_3 1_555 1_555
C16_3 C11_3 1_555 1_555
H12_3 C16_3 1_555 1_555
C17_3 C11_3 1_555 1_555
H13_3 C17_3 1_555 1_555
H14_3 C17_3 1_555 1_555
C18_3 O9_3 1_555 1_555
C19_3 C12_3 1_555 1_555
H15_3 C19_3 1_555 1_555
H16_3 C19_3 1_555 1_555
C20_3 C19_3 1_555 1_555
C5_2 C6_2 1_555 1_555
C15_3 C16_3 1_555 1_555
C17_3 C18_3 1_555 1_555
H2_3 C4_3 1_555 1_555
C5_3 C4_3 1_555 1_555
H3_3 C5_3 1_555 1_555
H4_3 C6_3 1_555 1_555
C5_3 C6_3 1_555 1_555
U1_3 O1_3 1_555 1_555
O2_3 U1_3 1_555 1_555
O5_3 U1_3 1_555 1_555
O6_3 U1_3 1_555 1_555
O10_3 U1_3 1_555 1_555
O13_3 U1_3 1_555 1_555
O14_3 U1_3 1_555 1_555
O19_2 C30_3 1_555 1_555
O20_2 C30_3 1_555 1_555
C8_3 O5_3 1_555 1_555
H7_3 C9_3 1_555 1_555
H8_3 C9_3 1_555 1_555
C22_3 C23_3 1_555 1_555
C23_3 H17_3 1_555 1_555
C28_3 O13_3 1_555 1_555
C29_3 C22_3 1_555 1_555
H23_3 C29_3 1_555 1_555
H24_3 C29_3 1_555 1_555
C30_3 C29_3 1_555 1_555
O6_3 C8_3 1_555 1_555
O14_3 C28_3 1_555 1_555
C7_3 C8_3 1_555 1_555
H18_3 C24_3 1_555 1_555
C25_3 C24_3 1_555 1_555
H19_3 C25_3 1_555 1_555
C26_3 C21_3 1_555 1_555
H20_3 C26_3 1_555 1_555
C27_3 C21_3 1_555 1_555
H21_3 C27_3 1_555 1_555
H22_3 C27_3 1_555 1_555
C25_3 C26_3 1_555 1_555
N1 H25 1_555 1_555
C31 N1 1_555 1_555
H26 C31 1_555 1_555
H27 C31 1_555 1_555
C32 C31 1_555 1_555
H28 C32 1_555 1_555
H29 C32 1_555 1_555
C33 N1 1_555 1_555
H30 C33 1_555 1_555
H31 C33 1_555 1_555
C34 C33 1_555 1_555
H32 C34 1_555 1_555
H33 C34 1_555 1_555
C35 N1 1_555 1_555
H34 C35 1_555 1_555
H35 C35 1_555 1_555
C36 C35 1_555 1_555
H36 C36 1_555 1_555
H37 C36 1_555 1_555
C37 C32 1_555 1_555
H38 C37 1_555 1_555
C34 C37 1_555 1_555
C36 C37 1_555 1_555
H30_2 C33_2 1_555 1_555
H31_2 C33_2 1_555 1_555
C34_2 C33_2 1_555 1_555
H32_2 C34_2 1_555 1_555
H33_2 C34_2 1_555 1_555
H38_2 C37_2 1_555 1_555
C34_2 C37_2 1_555 1_555
N1_2 H25_2 1_555 1_555
C31_2 N1_2 1_555 1_555
H26_2 C31_2 1_555 1_555
H27_2 C31_2 1_555 1_555
C32_2 C31_2 1_555 1_555
H28_2 C32_2 1_555 1_555
H29_2 C32_2 1_555 1_555
C35_2 N1_2 1_555 1_555
H34_2 C35_2 1_555 1_555
H35_2 C35_2 1_555 1_555
C36_2 C35_2 1_555 1_555
H36_2 C36_2 1_555 1_555
N1_3 H25_3 1_555 1_555
C31_3 N1_3 1_555 1_555
H26_3 C31_3 1_555 1_555
H27_3 C31_3 1_555 1_555
C32_3 C31_3 1_555 1_555
H28_3 C32_3 1_555 1_555
H29_3 C32_3 1_555 1_555
C35_3 N1_3 1_555 1_555
H34_3 C35_3 1_555 1_555
H35_3 C35_3 1_555 1_555
C36_3 C35_3 1_555 1_555
H36_3 C36_3 1_555 1_555
H30_3 C33_3 1_555 1_555
H31_3 C33_3 1_555 1_555
C34_3 C33_3 1_555 1_555
H32_3 C34_3 1_555 1_555
H33_3 C34_3 1_555 1_555
H38_3 C37_3 1_555 1_555
C34_3 C37_3 1_555 1_555
N2 H39 1_555 1_555
C38 N2 1_555 1_555
H40 C38 1_555 1_555
H41 C38 1_555 1_555
C39 C38 1_555 1_555
H42 C39 1_555 1_555
H43 C39 1_555 1_555
C40 N2 1_555 1_555
H44 C40 1_555 1_555
H45 C40 1_555 1_555
C41 C40 1_555 1_555
H46 C41 1_555 1_555
H47 C41 1_555 1_555
C42 N2 1_555 1_555
H48 C42 1_555 1_555
H49 C42 1_555 1_555
C43 C42 1_555 1_555
H50 C43 1_555 1_555
H51 C43 1_555 1_555
C44 C39 1_555 1_555
C41 C44 1_555 1_555
C43 C44 1_555 1_555
N2_2 H39_2 1_555 1_555
C38_2 N2_2 1_555 1_555
H40_2 C38_2 1_555 1_555
H41_2 C38_2 1_555 1_555
C39_2 C38_2 1_555 1_555
H42_2 C39_2 1_555 1_555
H43_2 C39_2 1_555 1_555
C40_2 N2_2 1_555 1_555
H44_2 C40_2 1_555 1_555
H45_2 C40_2 1_555 1_555
C41_2 C40_2 1_555 1_555
H46_2 C41_2 1_555 1_555
H47_2 C41_2 1_555 1_555
C42_2 N2_2 1_555 1_555
H48_2 C42_2 1_555 1_555
H49_2 C42_2 1_555 1_555
C43_2 C42_2 1_555 1_555
H50_2 C43_2 1_555 1_555
H51_2 C43_2 1_555 1_555
C44_2 C39_2 1_555 1_555
C41_2 C44_2 1_555 1_555
C43_2 C44_2 1_555 1_555
N2_3 H39_3 1_555 1_555
C38_3 N2_3 1_555 1_555
H40_3 C38_3 1_555 1_555
H41_3 C38_3 1_555 1_555
C39_3 C38_3 1_555 1_555
H42_3 C39_3 1_555 1_555
H43_3 C39_3 1_555 1_555
C40_3 N2_3 1_555 1_555
H44_3 C40_3 1_555 1_555
H45_3 C40_3 1_555 1_555
C41_3 C40_3 1_555 1_555
H46_3 C41_3 1_555 1_555
H47_3 C41_3 1_555 1_555
C42_3 N2_3 1_555 1_555
H48_3 C42_3 1_555 1_555
H49_3 C42_3 1_555 1_555
C43_3 C42_3 1_555 1_555
H50_3 C43_3 1_555 1_555
H51_3 C43_3 1_555 1_555
C44_3 C39_3 1_555 1_555
H52_3 C44_3 1_555 1_555
C41_3 C44_3 1_555 1_555
C43_3 C44_3 1_555 1_555

#END
