
###############################################################################
#
# This file contains modified crystal structure data generated from the
# MOF subset of the Cambridge Structural Database (CSD) v543 
# hosted by the Cambridge Crystallographic Data Centre (CCDC).
#
# This work is licensed under the Creative Commons
# Attribution-NonCommercial-ShareAlike 4.0 International License.
# To view a copy of this license, visit
# http://creativecommons.org/licenses/by-nc-sa/4.0/
# or send a letter to
# Creative Commons, PO Box 1866, Mountain View, CA 94042, USA.
#
# CIF created using the CSD Python API on 29 September 2022
# The structure has been converted into the P1 space group
# The structure has a 3D framework
# The original CSD entry UXIDIQ is in the monoclinic crystal system
# The framework has been calculated to contain at least 10.0% void space
# The void calculation uses a probe of radius 1.32A, grid spacing 0.4
#
###############################################################################

data_UXIDIQ
_chemical_formula_moiety         '(C152 H104 Cd14 N48 O56)n'
_symmetry_cell_setting           triclinic
_symmetry_space_group_name_H-M   'P 1'
_symmetry_Int_Tables_number      1
_space_group_name_Hall           'P 1'
loop_
_symmetry_equiv_pos_site_id
_symmetry_equiv_pos_as_xyz
1 x,y,z
_cell_length_a                   35.076(3)
_cell_length_b                   7.5997(7)
_cell_length_c                   18.5480(18)
_cell_angle_alpha                90
_cell_angle_beta                 117.8560(10)
_cell_angle_gamma                90
_cell_volume                     4371.37
loop_
_atom_site_label
_atom_site_type_symbol
_atom_site_fract_x
_atom_site_fract_y
_atom_site_fract_z
Cd1 Cd 0.0000 0.56239(5) 0.2500
O1 O 0.17900(10) 0.0585(5) 0.53503(18)
O2 O 0.23639(9) 0.0048(4) 0.51923(16)
O3 O 0.24296(10) 0.3952(5) 0.27649(19)
O4 O 0.19442(9) 0.2142(4) 0.18667(17)
O5 O 0.05421(10) 0.3625(4) 0.3177(2)
O6 O 0.06224(9) 0.5266(4) 0.22837(17)
C1 C 0.18096(12) 0.1791(5) 0.4177(2)
C2 C 0.20309(12) 0.2039(5) 0.3729(2)
H3 H 0.2309 0.1597 0.3929
C3 C 0.18477(11) 0.2925(5) 0.2992(2)
C4 C 0.14326(12) 0.3597(5) 0.2687(2)
H4 H 0.1305 0.4175 0.2187
C5 C 0.12064(12) 0.3399(5) 0.3137(2)
C6 C 0.13883(12) 0.2486(5) 0.3865(2)
H5 H 0.1233 0.2327 0.4151
C7 C 0.19986(12) 0.0760(5) 0.4954(2)
C8 C 0.20928(11) 0.3049(5) 0.2509(2)
C9 C 0.07616(12) 0.4150(5) 0.2841(2)
Cd7 Cd 0.235745(8) 0.13403(4) 0.131420(15)
Cd8 Cd 0.264255(8) 0.63403(4) 0.368580(15)
N14 N 0.03114(10) 0.7279(5) 0.3650(2)
O15 O 0.25704(10) 0.1048(5) 0.72351(19)
N4 N 0.46886(10) 0.2279(5) 0.1350(2)
N5 N 0.43203(14) 0.3206(7) 0.1170(3)
N6 N 0.44427(10) 0.3334(4) 0.01125(19)
C18 C 0.41742(17) 0.3780(9) 0.0425(3)
H12 H 0.3920 0.4412 0.0144
C19 C 0.47526(13) 0.2379(6) 0.0706(2)
H13 H 0.4982 0.1857 0.0667
Cd5 Cd 0.5000 0.06239(5) 0.2500
Cd2 Cd 0.235745(8) 0.86597(4) 0.631420(15)
N1 N 0.30191(10) 0.7421(5) 0.67996(19)
N2 N 0.32379(10) 0.7680(5) 0.63483(19)
N3 N 0.36648(10) 0.6294(4) 0.74860(19)
O7 O 0.20817(11) 0.6277(4) 0.5354(2)
H1 H 0.1829 0.6353 0.5278
H2 H 0.2096 0.6511 0.4931
C10 C 0.40367(11) 0.5356(5) 0.8079(2)
C11 C 0.40529(11) 0.4813(5) 0.8799(2)
H6 H 0.3829 0.5068 0.8918
C12 C 0.44168(13) 0.3859(5) 0.9352(2)
C13 C 0.47492(13) 0.3440(6) 0.9181(2)
H7 H 0.4986 0.2794 0.9547
C14 C 0.47182(12) 0.4020(6) 0.8435(2)
H8 H 0.4940 0.3762 0.8312
C15 C 0.43692(12) 0.4954(5) 0.7886(2)
H9 H 0.4353 0.5316 0.7393
C16 C 0.36220(11) 0.7005(5) 0.6780(2)
H10 H 0.3838 0.7011 0.6624
C17 C 0.32791(12) 0.6588(5) 0.7476(2)
H11 H 0.3210 0.6254 0.7883
O18 O 0.19442(9) 0.7858(4) 0.68667(17)
Cd1_2 Cd 1.0000 0.56239(5) 0.2500
O10 O 0.75704(10) 0.3952(5) 0.22351(19)
O11 O 0.80558(9) 0.2142(4) 0.31333(17)
O12 O 0.94579(10) 0.3625(4) 0.1823(2)
O13 O 0.93776(9) 0.5266(4) 0.27163(17)
C20 C 0.81904(12) 0.1791(5) 0.0823(2)
C21 C 0.79691(12) 0.2039(5) 0.1271(2)
H16 H 0.7691 0.1597 0.1071
C22 C 0.81523(11) 0.2925(5) 0.2008(2)
C23 C 0.85674(12) 0.3597(5) 0.2313(2)
H17 H 0.8695 0.4175 0.2813
C24 C 0.87936(12) 0.3399(5) 0.1863(2)
C25 C 0.86117(12) 0.2486(5) 0.1135(2)
H18 H 0.8767 0.2327 0.0849
C26 C 0.80014(12) 0.0760(5) 0.0046(2)
C27 C 0.79072(11) 0.3049(5) 0.2491(2)
C28 C 0.92384(12) 0.4150(5) 0.2159(2)
Cd6 Cd 0.764255(8) 0.13403(4) 0.368580(15)
Cd9 Cd 0.735745(8) 0.63403(4) 0.131420(15)
N13 N 0.96886(10) 0.7279(5) 0.1350(2)
O8 O 0.82100(10) 0.0585(5) 0.96497(18)
O9 O 0.76361(9) 0.0048(4) 0.98077(16)
O16 O 0.74296(10) 0.1048(5) 0.77649(19)
Cd3 Cd 0.764255(8) 0.86597(4) 0.868580(15)
N7 N 0.69809(10) 0.7421(5) 0.82004(19)
N8 N 0.67621(10) 0.7680(5) 0.86517(19)
N9 N 0.63352(10) 0.6294(4) 0.75140(19)
N10 N 0.53114(10) 0.2279(5) 0.3650(2)
N11 N 0.56797(14) 0.3206(7) 0.3830(3)
N12 N 0.55573(10) 0.3334(4) 0.48875(19)
O14 O 0.79183(11) 0.6277(4) 0.9646(2)
H14 H 0.8171 0.6353 0.9722
C29 C 0.59633(11) 0.5356(5) 0.6921(2)
C30 C 0.59471(11) 0.4813(5) 0.6201(2)
H19 H 0.6171 0.5068 0.6082
C31 C 0.55832(13) 0.3859(5) 0.5648(2)
C32 C 0.52508(13) 0.3440(6) 0.5819(2)
H20 H 0.5014 0.2794 0.5453
C33 C 0.52818(12) 0.4020(6) 0.6565(2)
H21 H 0.5060 0.3762 0.6688
C34 C 0.56308(12) 0.4954(5) 0.7114(2)
H22 H 0.5647 0.5316 0.7607
C35 C 0.63780(11) 0.7005(5) 0.8220(2)
H23 H 0.6162 0.7011 0.8376
C36 C 0.67209(12) 0.6588(5) 0.7524(2)
H24 H 0.6790 0.6254 0.7117
C37 C 0.58258(17) 0.3780(9) 0.4575(3)
H25 H 0.6080 0.4412 0.4856
C38 C 0.52474(13) 0.2379(6) 0.4294(2)
H26 H 0.5018 0.1857 0.4333
O17 O 0.80558(9) 0.7858(4) 0.81333(17)
O6_2 O 0.56224(9) 0.0266(4) 0.22837(17)
O13_2 O 0.43776(9) 0.0266(4) 0.27163(17)
Cd2_2 Cd 0.735745(8) 0.36597(4) 0.631420(15)
N1_2 N 0.80191(10) 0.2421(5) 0.67996(19)
N2_2 N 0.82379(10) 0.2680(5) 0.63483(19)
N3_2 N 0.86648(10) 0.1294(4) 0.74860(19)
O1_2 O 0.67900(10) 0.5585(5) 0.53503(18)
O2_2 O 0.73639(9) 0.5048(4) 0.51923(16)
O3_2 O 0.74296(10) 0.8952(5) 0.27649(19)
O4_2 O 0.69442(9) 0.7142(4) 0.18667(17)
O5_2 O 0.55421(10) 0.8625(4) 0.3177(2)
O7_2 O 0.70817(11) 0.1277(4) 0.5354(2)
H1_2 H 0.6829 0.1353 0.5278
H2_2 H 0.7096 0.1511 0.4931
C1_2 C 0.68096(12) 0.6791(5) 0.4177(2)
C2_2 C 0.70309(12) 0.7039(5) 0.3729(2)
H3_2 H 0.7309 0.6597 0.3929
C3_2 C 0.68477(11) 0.7925(5) 0.2992(2)
C4_2 C 0.64326(12) 0.8597(5) 0.2687(2)
H4_2 H 0.6305 0.9175 0.2187
C5_2 C 0.62064(12) 0.8399(5) 0.3137(2)
C6_2 C 0.63883(12) 0.7486(5) 0.3865(2)
H5_2 H 0.6233 0.7327 0.4151
C7_2 C 0.69986(12) 0.5760(5) 0.4954(2)
C8_2 C 0.70928(11) 0.8049(5) 0.2509(2)
C9_2 C 0.57616(12) 0.9150(5) 0.2841(2)
C10_2 C 0.90367(11) 0.0356(5) 0.8079(2)
H6_2 H 0.8829 0.0068 0.8918
H9_2 H 0.9353 0.0316 0.7393
C16_2 C 0.86220(11) 0.2005(5) 0.6780(2)
H10_2 H 0.8838 0.2011 0.6624
C17_2 C 0.82791(12) 0.1588(5) 0.7476(2)
H11_2 H 0.8210 0.1254 0.7883
O10_2 O 0.25704(10) 0.8952(5) 0.22351(19)
O11_2 O 0.30558(9) 0.7142(4) 0.31333(17)
O12_2 O 0.44579(10) 0.8625(4) 0.1823(2)
H15 H 0.2904 0.1511 0.0069
C20_2 C 0.31904(12) 0.6791(5) 0.0823(2)
C21_2 C 0.29691(12) 0.7039(5) 0.1271(2)
H16_2 H 0.2691 0.6597 0.1071
C22_2 C 0.31523(11) 0.7925(5) 0.2008(2)
C23_2 C 0.35674(12) 0.8597(5) 0.2313(2)
H17_2 H 0.3695 0.9175 0.2813
C24_2 C 0.37936(12) 0.8399(5) 0.1863(2)
C25_2 C 0.36117(12) 0.7486(5) 0.1135(2)
H18_2 H 0.3767 0.7327 0.0849
C26_2 C 0.30014(12) 0.5760(5) 0.0046(2)
C27_2 C 0.29072(11) 0.8049(5) 0.2491(2)
C28_2 C 0.42384(12) 0.9150(5) 0.2159(2)
O15_2 O 0.75704(10) 0.6048(5) 0.72351(19)
O18_2 O 0.69442(9) 0.2858(4) 0.68667(17)
Cd3_2 Cd 0.264255(8) 0.36597(4) 0.868580(15)
N7_2 N 0.19809(10) 0.2421(5) 0.82004(19)
N8_2 N 0.17621(10) 0.2680(5) 0.86517(19)
N9_2 N 0.13352(10) 0.1294(4) 0.75140(19)
O8_2 O 0.32100(10) 0.5585(5) 0.96497(18)
O9_2 O 0.26361(9) 0.5048(4) 0.98077(16)
O14_2 O 0.29183(11) 0.1277(4) 0.9646(2)
H14_2 H 0.3171 0.1353 0.9722
C29_2 C 0.09633(11) 0.0356(5) 0.6921(2)
H19_2 H 0.1171 0.0068 0.6082
H22_2 H 0.0647 0.0316 0.7607
C35_2 C 0.13780(11) 0.2005(5) 0.8220(2)
H23_2 H 0.1162 0.2011 0.8376
C36_2 C 0.17209(12) 0.1588(5) 0.7524(2)
H24_2 H 0.1790 0.1254 0.7117
O16_2 O 0.24296(10) 0.6048(5) 0.77649(19)
O17_2 O 0.30558(9) 0.2858(4) 0.81333(17)
N5_2 N 0.93203(14) 0.8206(7) 0.1170(3)
N6_2 N 0.94427(10) 0.8334(4) 0.01125(19)
C18_2 C 0.91742(17) 0.8780(9) 0.0425(3)
H12_2 H 0.8920 0.9412 0.0144
C19_2 C 0.97526(13) 0.7379(6) 0.0706(2)
H13_2 H 0.9982 0.6857 0.0667
N11_2 N 0.06797(14) 0.8206(7) 0.3830(3)
N12_2 N 0.05573(10) 0.8334(4) 0.48875(19)
C30_2 C 0.09471(11) 0.9813(5) 0.6201(2)
C31_2 C 0.05832(13) 0.8859(5) 0.5648(2)
C32_2 C 0.02508(13) 0.8440(6) 0.5819(2)
H20_2 H 0.0014 0.7794 0.5453
C33_2 C 0.02818(12) 0.9020(6) 0.6565(2)
H21_2 H 0.0060 0.8762 0.6688
C34_2 C 0.06308(12) 0.9954(5) 0.7114(2)
C37_2 C 0.08258(17) 0.8780(9) 0.4575(3)
H25_2 H 0.1080 0.9412 0.4856
C38_2 C 0.02474(13) 0.7379(6) 0.4294(2)
H26_2 H 0.0018 0.6857 0.4333
N7_3 N 0.30191(10) 0.2579(5) 0.17996(19)
N8_3 N 0.32379(10) 0.2320(5) 0.13483(19)
N9_3 N 0.36648(10) 0.3706(4) 0.24860(19)
N10_2 N 0.46886(10) 0.7721(5) 0.6350(2)
N11_3 N 0.43203(14) 0.6794(7) 0.6170(3)
N12_3 N 0.44427(10) 0.6666(4) 0.51125(19)
O14_3 O 0.20817(11) 0.3723(4) 0.0354(2)
H14_3 H 0.1829 0.3647 0.0278
C29_3 C 0.40367(11) 0.4644(5) 0.3079(2)
C30_3 C 0.40529(11) 0.5187(5) 0.3799(2)
H19_3 H 0.3829 0.4932 0.3918
C31_3 C 0.44168(13) 0.6141(5) 0.4352(2)
C32_3 C 0.47492(13) 0.6560(6) 0.4181(2)
H20_3 H 0.4986 0.7206 0.4547
C33_3 C 0.47182(12) 0.5980(6) 0.3435(2)
H21_3 H 0.4940 0.6238 0.3312
C34_3 C 0.43692(12) 0.5046(5) 0.2886(2)
H22_3 H 0.4353 0.4684 0.2393
C35_3 C 0.36220(11) 0.2995(5) 0.1780(2)
H23_3 H 0.3838 0.2989 0.1624
C36_3 C 0.32791(12) 0.3412(5) 0.2476(2)
H24_3 H 0.3210 0.3746 0.2883
C37_3 C 0.41742(17) 0.6220(9) 0.5425(3)
H25_3 H 0.3920 0.5588 0.5144
C38_3 C 0.47526(13) 0.7621(6) 0.5706(2)
H26_3 H 0.4982 0.8143 0.5667
Cd4 Cd 0.5000 0.93761(5) 0.7500
O8_3 O 0.17900(10) 0.9415(5) 0.03503(18)
O9_3 O 0.23639(9) 0.9952(4) 0.01923(16)
Cd1_3 Cd 0.0000 0.43761(5) 0.7500
O12_3 O 0.05421(10) 0.6375(4) 0.8177(2)
O13_3 O 0.06224(9) 0.4734(4) 0.72837(17)
C20_3 C 0.18096(12) 0.8209(5) 0.9177(2)
C21_3 C 0.20309(12) 0.7961(5) 0.8729(2)
H16_3 H 0.2309 0.8403 0.8929
C22_3 C 0.18477(11) 0.7075(5) 0.7992(2)
C23_3 C 0.14326(12) 0.6403(5) 0.7687(2)
H17_3 H 0.1305 0.5825 0.7187
C24_3 C 0.12064(12) 0.6601(5) 0.8137(2)
C25_3 C 0.13883(12) 0.7514(5) 0.8865(2)
H18_3 H 0.1233 0.7673 0.9151
C26_3 C 0.19986(12) 0.9240(5) 0.9954(2)
C27_3 C 0.20928(11) 0.6951(5) 0.7509(2)
C28_3 C 0.07616(12) 0.5850(5) 0.7841(2)
N13_2 N 0.03114(10) 0.2721(5) 0.8650(2)
N1_3 N 0.69809(10) 0.2579(5) 0.32004(19)
N2_3 N 0.67621(10) 0.2320(5) 0.36517(19)
N3_3 N 0.63352(10) 0.3706(4) 0.25140(19)
O7_3 O 0.79183(11) 0.3723(4) 0.4646(2)
H1_3 H 0.8171 0.3647 0.4722
H2_3 H 0.7904 0.3489 0.5069
C10_3 C 0.59633(11) 0.4644(5) 0.1921(2)
C11_2 C 0.59471(11) 0.5187(5) 0.1201(2)
H6_3 H 0.6171 0.4932 0.1082
C12_2 C 0.55832(13) 0.6141(5) 0.0648(2)
C13_2 C 0.52508(13) 0.6560(6) 0.0819(2)
H7_2 H 0.5014 0.7206 0.0453
C14_2 C 0.52818(12) 0.5980(6) 0.1565(2)
H8_2 H 0.5060 0.6238 0.1688
C15_2 C 0.56308(12) 0.5046(5) 0.2114(2)
H9_3 H 0.5647 0.4684 0.2607
C16_3 C 0.63780(11) 0.2995(5) 0.3220(2)
H10_3 H 0.6162 0.2989 0.3376
C17_3 C 0.67209(12) 0.3412(5) 0.2524(2)
H11_3 H 0.6790 0.3746 0.2117
N4_2 N 0.53114(10) 0.7721(5) 0.8650(2)
N5_3 N 0.56797(14) 0.6794(7) 0.8830(3)
N6_3 N 0.55573(10) 0.6666(4) 0.98875(19)
C18_3 C 0.58258(17) 0.6220(9) 0.9575(3)
H12_3 H 0.6080 0.5588 0.9856
C19_3 C 0.52474(13) 0.7621(6) 0.9294(2)
H13_3 H 0.5018 0.8143 0.9333
Cd1_4 Cd 1.0000 0.43761(5) 0.7500
O1_3 O 0.82100(10) 0.9415(5) 0.46497(18)
O2_3 O 0.76361(9) 0.9952(4) 0.48077(16)
O5_3 O 0.94579(10) 0.6375(4) 0.6823(2)
O6_3 O 0.93776(9) 0.4734(4) 0.77163(17)
C1_3 C 0.81904(12) 0.8209(5) 0.5823(2)
C2_3 C 0.79691(12) 0.7961(5) 0.6271(2)
H3_3 H 0.7691 0.8403 0.6071
C3_3 C 0.81523(11) 0.7075(5) 0.7008(2)
C4_3 C 0.85674(12) 0.6403(5) 0.7313(2)
H4_3 H 0.8695 0.5825 0.7813
C5_3 C 0.87936(12) 0.6601(5) 0.6863(2)
C6_3 C 0.86117(12) 0.7514(5) 0.6135(2)
H5_3 H 0.8767 0.7673 0.5849
C7_3 C 0.80014(12) 0.9240(5) 0.5046(2)
C8_3 C 0.79072(11) 0.6951(5) 0.7491(2)
C9_3 C 0.92384(12) 0.5850(5) 0.7159(2)
N14_2 N 0.96886(10) 0.2721(5) 0.6350(2)
N11_4 N 0.93203(14) 0.1794(7) 0.6170(3)
N12_4 N 0.94427(10) 0.1666(4) 0.51125(19)
C30_4 C 0.90529(11) 0.0187(5) 0.3799(2)
C31_4 C 0.94168(13) 0.1141(5) 0.4352(2)
C32_4 C 0.97492(13) 0.1560(6) 0.4181(2)
H20_4 H 0.9986 0.2206 0.4547
C33_4 C 0.97182(12) 0.0980(6) 0.3435(2)
H21_4 H 0.9940 0.1238 0.3312
C34_4 C 0.93692(12) 0.0046(5) 0.2886(2)
C37_4 C 0.91742(17) 0.1220(9) 0.5425(3)
H25_4 H 0.8920 0.0588 0.5144
C38_4 C 0.97526(13) 0.2621(6) 0.5706(2)
H26_4 H 0.9982 0.3143 0.5667
N5_4 N 0.06797(14) 0.1794(7) 0.8830(3)
N6_4 N 0.05573(10) 0.1666(4) 0.98875(19)
C18_4 C 0.08258(17) 0.1220(9) 0.9575(3)
H12_4 H 0.1080 0.0588 0.9856
C19_4 C 0.02474(13) 0.2621(6) 0.9294(2)
H13_4 H 0.0018 0.3143 0.9333
N7_4 N 0.80191(10) 0.7579(5) 0.17996(19)
N8_4 N 0.82379(10) 0.7320(5) 0.13483(19)
N9_4 N 0.86648(10) 0.8706(4) 0.24860(19)
O8_4 O 0.67900(10) 0.4415(5) 0.03503(18)
O9_4 O 0.73639(9) 0.4952(4) 0.01923(16)
O14_4 O 0.70817(11) 0.8723(4) 0.0354(2)
H14_4 H 0.6829 0.8647 0.0278
C29_4 C 0.90367(11) 0.9644(5) 0.3079(2)
H19_4 H 0.8829 0.9932 0.3918
H22_4 H 0.9353 0.9684 0.2393
C35_4 C 0.86220(11) 0.7995(5) 0.1780(2)
H23_4 H 0.8838 0.7989 0.1624
C36_4 C 0.82791(12) 0.8412(5) 0.2476(2)
H24_4 H 0.8210 0.8746 0.2883
N1_4 N 0.19809(10) 0.7579(5) 0.32004(19)
N2_4 N 0.17621(10) 0.7320(5) 0.36517(19)
N3_4 N 0.13352(10) 0.8706(4) 0.25140(19)
O1_4 O 0.32100(10) 0.4415(5) 0.46497(18)
O2_4 O 0.26361(9) 0.4952(4) 0.48077(16)
O5_4 O 0.44579(10) 0.1375(4) 0.6823(2)
O7_4 O 0.29183(11) 0.8723(4) 0.4646(2)
H1_4 H 0.3171 0.8647 0.4722
H2_4 H 0.2904 0.8489 0.5069
C1_4 C 0.31904(12) 0.3209(5) 0.5823(2)
C2_4 C 0.29691(12) 0.2961(5) 0.6271(2)
H3_4 H 0.2691 0.3403 0.6071
C3_4 C 0.31523(11) 0.2075(5) 0.7008(2)
C4_4 C 0.35674(12) 0.1403(5) 0.7313(2)
H4_4 H 0.3695 0.0825 0.7813
C5_4 C 0.37936(12) 0.1601(5) 0.6863(2)
C6_4 C 0.36117(12) 0.2514(5) 0.6135(2)
H5_4 H 0.3767 0.2673 0.5849
C7_4 C 0.30014(12) 0.4240(5) 0.5046(2)
C8_4 C 0.29072(11) 0.1951(5) 0.7491(2)
C9_4 C 0.42384(12) 0.0850(5) 0.7159(2)
C10_4 C 0.09633(11) 0.9644(5) 0.1921(2)
H6_4 H 0.1171 0.9932 0.1082
H9_4 H 0.0647 0.9684 0.2607
C16_4 C 0.13780(11) 0.7995(5) 0.3220(2)
H10_4 H 0.1162 0.7989 0.3376
C17_4 C 0.17209(12) 0.8412(5) 0.2524(2)
H11_4 H 0.1790 0.8746 0.2117
O12_4 O 0.55421(10) 0.1375(4) 0.8177(2)
H15_2 H 0.7096 0.8489 0.9931
C20_4 C 0.68096(12) 0.3209(5) 0.9177(2)
C21_4 C 0.70309(12) 0.2961(5) 0.8729(2)
H16_4 H 0.7309 0.3403 0.8929
C22_4 C 0.68477(11) 0.2075(5) 0.7992(2)
C23_4 C 0.64326(12) 0.1403(5) 0.7687(2)
H17_4 H 0.6305 0.0825 0.7187
C24_4 C 0.62064(12) 0.1601(5) 0.8137(2)
C25_4 C 0.63883(12) 0.2514(5) 0.8865(2)
H18_4 H 0.6233 0.2673 0.9151
C26_4 C 0.69986(12) 0.4240(5) 0.9954(2)
C27_4 C 0.70928(11) 0.1951(5) 0.7509(2)
C28_4 C 0.57616(12) 0.0850(5) 0.7841(2)
O6_4 O 0.43776(9) 0.9734(4) 0.77163(17)
O13_4 O 0.56224(9) 0.9734(4) 0.72837(17)
H15_3 H 0.7904 0.6511 0.0069
C11_3 C 0.90529(11) 0.9813(5) 0.8799(2)
C12_3 C 0.94168(13) 0.8859(5) 0.9352(2)
C13_3 C 0.97492(13) 0.8440(6) 0.9181(2)
H7_3 H 0.9986 0.7794 0.9547
C14_3 C 0.97182(12) 0.9020(6) 0.8435(2)
H8_3 H 0.9940 0.8762 0.8312
C15_3 C 0.93692(12) 0.9954(5) 0.7886(2)
H15_4 H 0.2096 0.3489 0.9931
C11_4 C 0.09471(11) 0.0187(5) 0.1201(2)
C12_4 C 0.05832(13) 0.1141(5) 0.0648(2)
C13_4 C 0.02508(13) 0.1560(6) 0.0819(2)
H7_4 H 0.0014 0.2206 0.0453
C14_4 C 0.02818(12) 0.0980(6) 0.1565(2)
H8_4 H 0.0060 0.1238 0.1688
C15_4 C 0.06308(12) 0.0046(5) 0.2114(2)
loop_
_geom_bond_atom_site_label_1
_geom_bond_atom_site_label_2
_geom_bond_site_symmetry_1
_geom_bond_site_symmetry_2
Cd1 O5 1_555 1_555
O3 C8 1_555 1_555
O4 C8 1_555 1_555
O5 C9 1_555 1_555
O6 Cd1 1_555 1_555
C1 C2 1_555 1_555
C2 H3 1_555 1_555
C3 C2 1_555 1_555
C4 C3 1_555 1_555
H4 C4 1_555 1_555
C5 C4 1_555 1_555
C6 C1 1_555 1_555
H5 C6 1_555 1_555
C7 O1 1_555 1_555
C8 C3 1_555 1_555
C9 O6 1_555 1_555
Cd7 O4 1_555 1_555
Cd8 O3 1_555 1_555
N14 Cd1 1_555 1_555
O2 C7 1_555 1_555
C1 C7 1_555 1_555
C5 C6 1_555 1_555
C5 C9 1_555 1_555
N4 N5 1_555 1_555
N5 C18 1_555 1_555
C18 N6 1_555 1_555
H12 C18 1_555 1_555
C19 N4 1_555 1_555
H13 C19 1_555 1_555
Cd5 N4 1_555 1_555
N6 C19 1_555 1_555
Cd2 N1 1_555 1_555
N1 N2 1_555 1_555
N2 C16 1_555 1_555
N3 C10 1_555 1_555
O7 Cd2 1_555 1_555
H1 O7 1_555 1_555
H2 O7 1_555 1_555
C10 C11 1_555 1_555
C11 H6 1_555 1_555
C12 C11 1_555 1_555
C13 C12 1_555 1_555
H7 C13 1_555 1_555
C14 C13 1_555 1_555
H8 C14 1_555 1_555
C15 C10 1_555 1_555
H9 C15 1_555 1_555
C16 N3 1_555 1_555
H10 C16 1_555 1_555
C17 N1 1_555 1_555
H11 C17 1_555 1_555
O18 Cd2 1_555 1_555
N3 C17 1_555 1_555
C14 C15 1_555 1_555
O10 C27 1_555 1_555
O11 C27 1_555 1_555
O12 Cd1_2 1_555 1_555
O13 Cd1_2 1_555 1_555
C20 C21 1_555 1_555
C21 H16 1_555 1_555
C22 C21 1_555 1_555
C23 C22 1_555 1_555
H17 C23 1_555 1_555
C24 C23 1_555 1_555
C25 C20 1_555 1_555
H18 C25 1_555 1_555
C27 C22 1_555 1_555
C28 O12 1_555 1_555
Cd6 O11 1_555 1_555
Cd9 O10 1_555 1_555
N13 Cd1_2 1_555 1_555
O13 C28 1_555 1_555
C20 C26 1_555 1_555
C24 C25 1_555 1_555
C24 C28 1_555 1_555
Cd3 N7 1_555 1_555
N7 N8 1_555 1_555
N8 C35 1_555 1_555
N9 C29 1_555 1_555
N10 N11 1_555 1_555
N11 C37 1_555 1_555
N12 C31 1_555 1_555
O14 Cd3 1_555 1_555
H14 O14 1_555 1_555
C29 C30 1_555 1_555
C30 H19 1_555 1_555
C31 C30 1_555 1_555
C32 C31 1_555 1_555
H20 C32 1_555 1_555
C33 C32 1_555 1_555
H21 C33 1_555 1_555
C34 C29 1_555 1_555
H22 C34 1_555 1_555
C35 N9 1_555 1_555
H23 C35 1_555 1_555
C36 N7 1_555 1_555
H24 C36 1_555 1_555
C37 N12 1_555 1_555
H25 C37 1_555 1_555
C38 N10 1_555 1_555
H26 C38 1_555 1_555
Cd5 N10 1_555 1_555
O17 Cd3 1_555 1_555
N9 C36 1_555 1_555
N12 C38 1_555 1_555
C33 C34 1_555 1_555
O6_2 Cd5 1_555 1_555
O13_2 Cd5 1_555 1_555
Cd2_2 N1_2 1_555 1_555
N1_2 N2_2 1_555 1_555
N2_2 C16_2 1_555 1_555
N3_2 C10_2 1_555 1_555
O1_2 Cd2_2 1_555 1_555
O2_2 Cd2_2 1_555 1_555
O3_2 C8_2 1_555 1_555
O4_2 C8_2 1_555 1_555
O5_2 C9_2 1_555 1_555
O7_2 Cd2_2 1_555 1_555
H1_2 O7_2 1_555 1_555
H2_2 O7_2 1_555 1_555
C1_2 C2_2 1_555 1_555
C2_2 H3_2 1_555 1_555
C3_2 C2_2 1_555 1_555
C4_2 C3_2 1_555 1_555
H4_2 C4_2 1_555 1_555
C5_2 C4_2 1_555 1_555
C6_2 C1_2 1_555 1_555
H5_2 C6_2 1_555 1_555
C7_2 O1_2 1_555 1_555
C8_2 C3_2 1_555 1_555
C16_2 N3_2 1_555 1_555
H10_2 C16_2 1_555 1_555
C17_2 N1_2 1_555 1_555
H11_2 C17_2 1_555 1_555
O10_2 C27_2 1_555 1_555
O11_2 C27_2 1_555 1_555
C20_2 C21_2 1_555 1_555
C21_2 H16_2 1_555 1_555
C22_2 C21_2 1_555 1_555
C23_2 C22_2 1_555 1_555
H17_2 C23_2 1_555 1_555
C24_2 C23_2 1_555 1_555
C25_2 C20_2 1_555 1_555
H18_2 C25_2 1_555 1_555
C27_2 C22_2 1_555 1_555
C28_2 O12_2 1_555 1_555
Cd8 O11_2 1_555 1_555
Cd9 O4_2 1_555 1_555
O15_2 Cd2_2 1_555 1_555
O18_2 Cd2_2 1_555 1_555
N3_2 C17_2 1_555 1_555
O2_2 C7_2 1_555 1_555
C1_2 C7_2 1_555 1_555
C5_2 C6_2 1_555 1_555
C5_2 C9_2 1_555 1_555
C20_2 C26_2 1_555 1_555
C24_2 C25_2 1_555 1_555
C24_2 C28_2 1_555 1_555
Cd3_2 N7_2 1_555 1_555
N7_2 N8_2 1_555 1_555
N8_2 C35_2 1_555 1_555
N9_2 C29_2 1_555 1_555
O8_2 Cd3_2 1_555 1_555
O9_2 Cd3_2 1_555 1_555
O14_2 Cd3_2 1_555 1_555
H14_2 O14_2 1_555 1_555
C35_2 N9_2 1_555 1_555
H23_2 C35_2 1_555 1_555
C36_2 N7_2 1_555 1_555
H24_2 C36_2 1_555 1_555
O16_2 Cd3_2 1_555 1_555
O17_2 Cd3_2 1_555 1_555
N9_2 C36_2 1_555 1_555
N13 N5_2 1_555 1_555
N5_2 C18_2 1_555 1_555
C18_2 N6_2 1_555 1_555
H12_2 C18_2 1_555 1_555
C19_2 N13 1_555 1_555
H13_2 C19_2 1_555 1_555
N6_2 C19_2 1_555 1_555
N14 N11_2 1_555 1_555
N11_2 C37_2 1_555 1_555
N12_2 C31_2 1_555 1_555
C31_2 C30_2 1_555 1_555
C32_2 C31_2 1_555 1_555
H20_2 C32_2 1_555 1_555
C33_2 C32_2 1_555 1_555
H21_2 C33_2 1_555 1_555
C37_2 N12_2 1_555 1_555
H25_2 C37_2 1_555 1_555
C38_2 N14 1_555 1_555
H26_2 C38_2 1_555 1_555
N12_2 C38_2 1_555 1_555
C33_2 C34_2 1_555 1_555
Cd7 N7_3 1_555 1_555
N7_3 N8_3 1_555 1_555
N8_3 C35_3 1_555 1_555
N9_3 C29_3 1_555 1_555
N10_2 N11_3 1_555 1_555
N11_3 C37_3 1_555 1_555
N12_3 C31_3 1_555 1_555
O14_3 Cd7 1_555 1_555
H14_3 O14_3 1_555 1_555
C29_3 C30_3 1_555 1_555
C30_3 H19_3 1_555 1_555
C31_3 C30_3 1_555 1_555
C32_3 C31_3 1_555 1_555
H20_3 C32_3 1_555 1_555
C33_3 C32_3 1_555 1_555
H21_3 C33_3 1_555 1_555
C34_3 C29_3 1_555 1_555
H22_3 C34_3 1_555 1_555
C35_3 N9_3 1_555 1_555
H23_3 C35_3 1_555 1_555
C36_3 N7_3 1_555 1_555
H24_3 C36_3 1_555 1_555
C37_3 N12_3 1_555 1_555
H25_3 C37_3 1_555 1_555
C38_3 N10_2 1_555 1_555
H26_3 C38_3 1_555 1_555
Cd4 N10_2 1_555 1_555
N9_3 C36_3 1_555 1_555
N12_3 C38_3 1_555 1_555
C33_3 C34_3 1_555 1_555
O16_2 C27_3 1_555 1_555
O18 C27_3 1_555 1_555
O12_3 Cd1_3 1_555 1_555
O13_3 Cd1_3 1_555 1_555
C20_3 C21_3 1_555 1_555
C21_3 H16_3 1_555 1_555
C22_3 C21_3 1_555 1_555
C23_3 C22_3 1_555 1_555
H17_3 C23_3 1_555 1_555
C24_3 C23_3 1_555 1_555
C25_3 C20_3 1_555 1_555
H18_3 C25_3 1_555 1_555
C27_3 C22_3 1_555 1_555
C28_3 O12_3 1_555 1_555
N13_2 Cd1_3 1_555 1_555
O13_3 C28_3 1_555 1_555
C20_3 C26_3 1_555 1_555
C24_3 C25_3 1_555 1_555
C24_3 C28_3 1_555 1_555
Cd6 N1_3 1_555 1_555
N1_3 N2_3 1_555 1_555
N2_3 C16_3 1_555 1_555
N3_3 C10_3 1_555 1_555
O7_3 Cd6 1_555 1_555
H1_3 O7_3 1_555 1_555
H2_3 O7_3 1_555 1_555
C10_3 C11_2 1_555 1_555
C11_2 H6_3 1_555 1_555
C12_2 C11_2 1_555 1_555
C13_2 C12_2 1_555 1_555
H7_2 C13_2 1_555 1_555
C14_2 C13_2 1_555 1_555
H8_2 C14_2 1_555 1_555
C15_2 C10_3 1_555 1_555
H9_3 C15_2 1_555 1_555
C16_3 N3_3 1_555 1_555
H10_3 C16_3 1_555 1_555
C17_3 N1_3 1_555 1_555
H11_3 C17_3 1_555 1_555
N3_3 C17_3 1_555 1_555
C14_2 C15_2 1_555 1_555
N4_2 N5_3 1_555 1_555
N5_3 C18_3 1_555 1_555
C18_3 N6_3 1_555 1_555
H12_3 C18_3 1_555 1_555
C19_3 N4_2 1_555 1_555
H13_3 C19_3 1_555 1_555
Cd4 N4_2 1_555 1_555
N6_3 C19_3 1_555 1_555
Cd1_4 O5_3 1_555 1_555
O15_2 C8_3 1_555 1_555
O17 C8_3 1_555 1_555
O5_3 C9_3 1_555 1_555
O6_3 Cd1_4 1_555 1_555
C1_3 C2_3 1_555 1_555
C2_3 H3_3 1_555 1_555
C3_3 C2_3 1_555 1_555
C4_3 C3_3 1_555 1_555
H4_3 C4_3 1_555 1_555
C5_3 C4_3 1_555 1_555
C6_3 C1_3 1_555 1_555
H5_3 C6_3 1_555 1_555
C7_3 O1_3 1_555 1_555
C8_3 C3_3 1_555 1_555
C9_3 O6_3 1_555 1_555
N14_2 Cd1_4 1_555 1_555
O2_3 C7_3 1_555 1_555
C1_3 C7_3 1_555 1_555
C5_3 C6_3 1_555 1_555
C5_3 C9_3 1_555 1_555
N14_2 N11_4 1_555 1_555
N11_4 C37_4 1_555 1_555
N12_4 C31_4 1_555 1_555
C31_4 C30_4 1_555 1_555
C32_4 C31_4 1_555 1_555
H20_4 C32_4 1_555 1_555
C33_4 C32_4 1_555 1_555
H21_4 C33_4 1_555 1_555
C37_4 N12_4 1_555 1_555
H25_4 C37_4 1_555 1_555
C38_4 N14_2 1_555 1_555
H26_4 C38_4 1_555 1_555
N12_4 C38_4 1_555 1_555
C33_4 C34_4 1_555 1_555
N13_2 N5_4 1_555 1_555
N5_4 C18_4 1_555 1_555
C18_4 N6_4 1_555 1_555
H12_4 C18_4 1_555 1_555
C19_4 N13_2 1_555 1_555
H13_4 C19_4 1_555 1_555
N6_4 C19_4 1_555 1_555
Cd9 N7_4 1_555 1_555
N7_4 N8_4 1_555 1_555
N8_4 C35_4 1_555 1_555
N9_4 C29_4 1_555 1_555
O8_4 Cd9 1_555 1_555
O9_4 Cd9 1_555 1_555
O14_4 Cd9 1_555 1_555
H14_4 O14_4 1_555 1_555
C35_4 N9_4 1_555 1_555
H23_4 C35_4 1_555 1_555
C36_4 N7_4 1_555 1_555
H24_4 C36_4 1_555 1_555
N9_4 C36_4 1_555 1_555
Cd8 N1_4 1_555 1_555
N1_4 N2_4 1_555 1_555
N2_4 C16_4 1_555 1_555
N3_4 C10_4 1_555 1_555
O1_4 Cd8 1_555 1_555
O2_4 Cd8 1_555 1_555
O15 C8_4 1_555 1_555
O17_2 C8_4 1_555 1_555
O5_4 C9_4 1_555 1_555
O7_4 Cd8 1_555 1_555
H1_4 O7_4 1_555 1_555
H2_4 O7_4 1_555 1_555
C1_4 C2_4 1_555 1_555
C2_4 H3_4 1_555 1_555
C3_4 C2_4 1_555 1_555
C4_4 C3_4 1_555 1_555
H4_4 C4_4 1_555 1_555
C5_4 C4_4 1_555 1_555
C6_4 C1_4 1_555 1_555
H5_4 C6_4 1_555 1_555
C7_4 O1_4 1_555 1_555
C8_4 C3_4 1_555 1_555
C16_4 N3_4 1_555 1_555
H10_4 C16_4 1_555 1_555
C17_4 N1_4 1_555 1_555
H11_4 C17_4 1_555 1_555
O16 C27_4 1_555 1_555
O18_2 C27_4 1_555 1_555
C20_4 C21_4 1_555 1_555
C21_4 H16_4 1_555 1_555
C22_4 C21_4 1_555 1_555
C23_4 C22_4 1_555 1_555
H17_4 C23_4 1_555 1_555
C24_4 C23_4 1_555 1_555
C25_4 C20_4 1_555 1_555
H18_4 C25_4 1_555 1_555
C27_4 C22_4 1_555 1_555
C28_4 O12_4 1_555 1_555
N3_4 C17_4 1_555 1_555
O2_4 C7_4 1_555 1_555
C1_4 C7_4 1_555 1_555
C5_4 C6_4 1_555 1_555
C5_4 C9_4 1_555 1_555
C20_4 C26_4 1_555 1_555
C24_4 C25_4 1_555 1_555
C24_4 C28_4 1_555 1_555
O6_4 Cd4 1_555 1_555
O13_4 Cd4 1_555 1_555
C12_3 C11_3 1_555 1_555
C13_3 C12_3 1_555 1_555
H7_3 C13_3 1_555 1_555
C14_3 C13_3 1_555 1_555
H8_3 C14_3 1_555 1_555
C14_3 C15_3 1_555 1_555
C12_4 C11_4 1_555 1_555
C13_4 C12_4 1_555 1_555
H7_4 C13_4 1_555 1_555
C14_4 C13_4 1_555 1_555
H8_4 C14_4 1_555 1_555
C14_4 C15_4 1_555 1_555

#END
