
###############################################################################
#
# This file contains modified crystal structure data generated from the
# MOF subset of the Cambridge Structural Database (CSD) v543 
# hosted by the Cambridge Crystallographic Data Centre (CCDC).
#
# This work is licensed under the Creative Commons
# Attribution-NonCommercial-ShareAlike 4.0 International License.
# To view a copy of this license, visit
# http://creativecommons.org/licenses/by-nc-sa/4.0/
# or send a letter to
# Creative Commons, PO Box 1866, Mountain View, CA 94042, USA.
#
# CIF created using the CSD Python API on 29 September 2022
# The structure has been converted into the P1 space group
# The structure has a 3D framework
# The original CSD entry UXIGOZ is in the monoclinic crystal system
# The framework has been calculated to contain at least 10.0% void space
# The void calculation uses a probe of radius 1.32A, grid spacing 0.4
#
###############################################################################

data_UXIGOZ
_chemical_formula_moiety         '(C192 H152 Cd7 N16 O40)n'
_symmetry_cell_setting           triclinic
_symmetry_space_group_name_H-M   'P 1'
_symmetry_Int_Tables_number      1
_space_group_name_Hall           'P 1'
loop_
_symmetry_equiv_pos_site_id
_symmetry_equiv_pos_as_xyz
1 x,y,z
_cell_length_a                   22.112(4)
_cell_length_b                   9.2100(18)
_cell_length_c                   22.977(5)
_cell_angle_alpha                90
_cell_angle_beta                 93.24(3)
_cell_angle_gamma                90
_cell_volume                     4671.82
loop_
_atom_site_label
_atom_site_type_symbol
_atom_site_fract_x
_atom_site_fract_y
_atom_site_fract_z
O6 O 0.17599(13) 0.0664(4) 0.23863(15)
O9 O 0.08127(14) 0.4882(3) 0.42995(12)
O10 O 0.00245(13) 0.3421(4) 0.41753(13)
C35 C 0.05375(18) 0.3842(4) 0.40615(16)
C36 C 0.08393(16) 0.3029(4) 0.35938(15)
C37 C 0.1400(2) 0.3385(7) 0.3431(3)
H31 H 0.1593 0.4190 0.3600
C38 C 0.05737(17) 0.1847(4) 0.33260(16)
H32 H 0.0188 0.1573 0.3424
C44 C 0.10366(18) 0.0338(4) 0.15724(18)
H35 H 0.0932 0.1315 0.1583
C46 C 0.14178(18) 0.1433(5) 0.2767(2)
C47 C 0.1692(2) 0.2596(8) 0.3023(3)
H37 H 0.2079 0.2864 0.2924
C48 C 0.08605(18) 0.1043(4) 0.29136(17)
H38 H 0.0670 0.0241 0.2740
Cd6 Cd 0.054823(9) 0.61277(2) 0.508342(9)
Cd1 Cd 0.054823(9) 0.38723(2) 0.008342(9)
N1 N 0.13010(12) 0.2282(3) 0.02595(12)
N2 N 0.20242(13) 0.0685(3) 0.01008(14)
C1 C 0.22397(16) 0.1506(4) 0.05691(18)
C2 C 0.27826(18) 0.1497(5) 0.0900(2)
H1 H 0.3094 0.0860 0.0823
C3 C 0.2837(2) 0.2483(6) 0.1352(2)
H2 H 0.3195 0.2508 0.1585
C4 C 0.2377(2) 0.3433(5) 0.1470(2)
H3 H 0.2430 0.4067 0.1784
C5 C 0.18433(18) 0.3463(4) 0.11338(17)
H4 H 0.1535 0.4106 0.1214
C6 C 0.17828(16) 0.2502(3) 0.06731(15)
O7 O 0.01252(12) 0.7369(3) 0.04624(13)
O8 O 0.08803(13) 0.5801(3) 0.05996(13)
C39 C 0.06185(16) 0.6966(4) 0.06982(15)
C40 C 0.09257(15) 0.7979(4) 0.11341(15)
C41 C 0.1370(2) 0.7477(5) 0.15263(19)
H33 H 0.1497 0.6517 0.1504
C42 C 0.1630(2) 0.8372(6) 0.1952(2)
H34 H 0.1918 0.8011 0.2226
C43 C 0.14607(17) 0.9783(5) 0.19670(18)
C45 C 0.07643(16) 0.9421(4) 0.11544(16)
H36 H 0.0471 0.9784 0.0887
C10 C 0.22939(17) 0.8060(4) 0.01264(18)
H10 H 0.2391 0.8153 0.0542
H11 H 0.1877 0.7741 0.0072
C31 C 0.35381(17) 0.3820(3) 0.00687(17)
C32 C 0.39222(19) 0.4485(5) 0.05430(19)
H24 H 0.4097 0.5367 0.0406
H25 H 0.3680 0.4698 0.0866
H26 H 0.4240 0.3823 0.0665
C33 C 0.26356(18) 0.5481(4) 0.01646(19)
H27 H 0.2210 0.5223 0.0147
H28 H 0.2770 0.5564 0.0572
H5 H 0.0903 0.9633 0.9594
C9 C 0.23644(18) 0.9519(4) 0.98354(19)
H8 H 0.2790 0.9777 0.9853
H9 H 0.2230 0.9436 0.9428
N3 N 0.36990(12) 0.2718(3) 0.97405(12)
N4 N 0.29758(13) 0.4315(3) 0.98992(14)
C25 C 0.27603(16) 0.3494(4) 0.94309(18)
C26 C 0.22174(18) 0.3503(5) 0.9100(2)
H20 H 0.1906 0.4140 0.9177
C27 C 0.2163(2) 0.2517(6) 0.8648(2)
H21 H 0.1805 0.2492 0.8415
C28 C 0.2623(2) 0.1567(5) 0.8530(2)
H22 H 0.2570 0.0933 0.8216
C29 C 0.31567(18) 0.1537(4) 0.88662(17)
H23 H 0.3465 0.0894 0.8786
C30 C 0.32172(16) 0.2498(3) 0.93269(15)
C34 C 0.27061(17) 0.6940(4) 0.98736(18)
H29 H 0.2609 0.6847 0.9458
H30 H 0.3123 0.7259 0.9928
Cd7 Cd 0.445177(9) 0.11277(2) 0.991658(9)
Cd4 Cd 0.945177(9) 0.38723(2) 0.491658(9)
O2 O 0.98748(12) 0.2631(3) 0.95376(13)
O3 O 0.91197(13) 0.4199(3) 0.94004(13)
C15 C 0.93815(16) 0.3034(4) 0.93018(15)
C16 C 0.90743(15) 0.2021(4) 0.88659(15)
C17 C 0.8630(2) 0.2523(5) 0.84737(19)
H14 H 0.8503 0.3483 0.8496
C18 C 0.8370(2) 0.1628(6) 0.8048(2)
H15 H 0.8082 0.1989 0.7774
C19 C 0.85393(17) 0.0217(5) 0.80330(18)
C21 C 0.92357(16) 0.0579(4) 0.88456(16)
H17 H 0.9529 0.0216 0.9113
Cd2 Cd 0.945177(9) 0.61277(2) 0.991658(9)
N5 N 0.86990(12) 0.7718(3) 0.97405(12)
O1 O 0.82401(13) 0.9336(4) 0.76137(15)
O4 O 0.91873(14) 0.5118(3) 0.57005(12)
O5 O 0.99755(13) 0.6579(4) 0.58247(13)
C11 C 0.94625(18) 0.6158(4) 0.59385(16)
C12 C 0.91607(16) 0.6971(4) 0.64062(15)
C13 C 0.8600(2) 0.6615(7) 0.6569(3)
H12 H 0.8407 0.5810 0.6400
C14 C 0.94263(17) 0.8153(4) 0.66740(16)
H13 H 0.9812 0.8427 0.6576
C20 C 0.89634(18) 0.9662(4) 0.84276(18)
H16 H 0.9068 0.8685 0.8417
C22 C 0.85822(18) 0.8567(5) 0.7233(2)
C23 C 0.8308(2) 0.7404(8) 0.6977(3)
H18 H 0.7921 0.7136 0.7076
C24 C 0.91395(18) 0.8957(4) 0.70864(17)
H19 H 0.9330 0.9759 0.7260
O2_2 O 0.01252(12) 0.2631(3) 0.54624(13)
O3_2 O 0.08803(13) 0.4199(3) 0.55996(13)
C15_2 C 0.06185(16) 0.3034(4) 0.56982(15)
C16_2 C 0.09257(15) 0.2021(4) 0.61341(15)
C17_2 C 0.1370(2) 0.2523(5) 0.65263(19)
H14_2 H 0.1497 0.3483 0.6504
C18_2 C 0.1630(2) 0.1628(6) 0.6952(2)
H15_2 H 0.1918 0.1989 0.7226
C19_2 C 0.14607(17) 0.0217(5) 0.69670(18)
C21_2 C 0.07643(16) 0.0579(4) 0.61544(16)
H17_2 H 0.0471 0.0216 0.5887
N5_2 N 0.13010(12) 0.7718(3) 0.52595(12)
N1_2 N 0.86990(12) 0.2282(3) 0.47405(12)
N2_2 N 0.79758(13) 0.0685(3) 0.48992(14)
C1_2 C 0.77603(16) 0.1506(4) 0.44309(18)
C2_2 C 0.72174(18) 0.1497(5) 0.4100(2)
H1_2 H 0.6906 0.0860 0.4177
C3_2 C 0.7163(2) 0.2483(6) 0.3648(2)
H2_2 H 0.6805 0.2508 0.3415
C4_2 C 0.7623(2) 0.3433(5) 0.3530(2)
H3_2 H 0.7570 0.4067 0.3216
C5_2 C 0.81567(18) 0.3463(4) 0.38662(17)
H4_2 H 0.8465 0.4106 0.3786
C6_2 C 0.82172(16) 0.2502(3) 0.43269(15)
C7 C 0.85381(17) 0.1180(3) 0.50687(17)
C8 C 0.89222(19) 0.0515(5) 0.55430(19)
H6 H 0.8680 0.0302 0.5866
H7 H 0.9240 0.1177 0.5665
O7_2 O 0.98748(12) 0.7369(3) 0.45376(13)
O8_2 O 0.91197(13) 0.5801(3) 0.44004(13)
C39_2 C 0.93815(16) 0.6966(4) 0.43018(15)
C40_2 C 0.90743(15) 0.7979(4) 0.38659(15)
C41_2 C 0.8630(2) 0.7477(5) 0.34737(19)
H33_2 H 0.8503 0.6517 0.3496
C42_2 C 0.8370(2) 0.8372(6) 0.3048(2)
H34_2 H 0.8082 0.8011 0.2774
C43_2 C 0.85393(17) 0.9783(5) 0.30330(18)
C45_2 C 0.92357(16) 0.9421(4) 0.38456(16)
H36_2 H 0.9529 0.9784 0.4113
H5_2 H 0.9097 0.9633 0.5406
C9_2 C 0.76356(18) 0.9519(4) 0.51646(19)
H8_2 H 0.7210 0.9777 0.5147
H9_2 H 0.7770 0.9436 0.5572
C10_2 C 0.77061(17) 0.8060(4) 0.48736(18)
H10_2 H 0.7609 0.8153 0.4458
H11_2 H 0.8123 0.7741 0.4928
N3_2 N 0.63010(12) 0.2718(3) 0.52595(12)
N4_2 N 0.70242(13) 0.4315(3) 0.51008(14)
C25_2 C 0.72397(16) 0.3494(4) 0.55691(18)
C26_2 C 0.77826(18) 0.3503(5) 0.5900(2)
H20_2 H 0.8094 0.4140 0.5823
C27_2 C 0.7837(2) 0.2517(6) 0.6352(2)
H21_2 H 0.8195 0.2492 0.6585
C28_2 C 0.7377(2) 0.1567(5) 0.6470(2)
H22_2 H 0.7430 0.0933 0.6784
C29_2 C 0.68433(18) 0.1537(4) 0.61338(17)
H23_2 H 0.6535 0.0894 0.6214
C30_2 C 0.67828(16) 0.2498(3) 0.56731(15)
C31_2 C 0.64619(17) 0.3820(3) 0.49313(17)
C32_2 C 0.60778(19) 0.4485(5) 0.44570(19)
H24_2 H 0.5903 0.5367 0.4594
H25_2 H 0.6320 0.4698 0.4134
H26_2 H 0.5760 0.3823 0.4335
C33_2 C 0.73644(18) 0.5481(4) 0.48354(19)
H27_2 H 0.7790 0.5223 0.4853
H28_2 H 0.7230 0.5564 0.4428
C34_2 C 0.72939(17) 0.6940(4) 0.51264(18)
H29_2 H 0.7391 0.6847 0.5542
H30_2 H 0.6877 0.7259 0.5072
Cd7_2 Cd 0.554823(9) 0.11277(2) 0.508342(9)
O6_2 O 0.67599(13) 0.5664(4) 0.23863(15)
O7_3 O 0.51252(12) 0.2369(3) 0.04624(13)
O8_3 O 0.58803(13) 0.0801(3) 0.05996(13)
O9_2 O 0.58127(14) 0.9882(3) 0.42995(12)
O10_2 O 0.50245(13) 0.8421(4) 0.41753(13)
C35_2 C 0.55375(18) 0.8842(4) 0.40615(16)
C36_2 C 0.58393(16) 0.8029(4) 0.35938(15)
C37_2 C 0.6400(2) 0.8385(7) 0.3431(3)
H31_2 H 0.6593 0.9190 0.3600
C38_2 C 0.55737(17) 0.6847(4) 0.33260(16)
H32_2 H 0.5188 0.6573 0.3424
C39_3 C 0.56185(16) 0.1966(4) 0.06982(15)
C40_3 C 0.59257(15) 0.2979(4) 0.11341(15)
C41_3 C 0.6370(2) 0.2477(5) 0.15263(19)
H33_3 H 0.6497 0.1517 0.1504
C42_3 C 0.6630(2) 0.3372(6) 0.1952(2)
H34_3 H 0.6918 0.3011 0.2226
C43_3 C 0.64607(17) 0.4783(5) 0.19670(18)
C44_2 C 0.60366(18) 0.5338(4) 0.15724(18)
H35_2 H 0.5932 0.6315 0.1583
C45_3 C 0.57643(16) 0.4421(4) 0.11544(16)
H36_3 H 0.5471 0.4784 0.0887
C46_2 C 0.64178(18) 0.6433(5) 0.2767(2)
C47_2 C 0.6692(2) 0.7596(8) 0.3023(3)
H37_2 H 0.7079 0.7864 0.2924
C48_2 C 0.58605(18) 0.6043(4) 0.29136(17)
H38_2 H 0.5670 0.5241 0.2740
Cd4_2 Cd 0.445177(9) 0.88723(2) 0.491658(9)
O11 O 0.58127(14) 0.0118(3) 0.92995(12)
O13 O 0.50245(13) 0.1579(4) 0.91753(13)
Cd1_2 Cd 0.554823(9) 0.88723(2) 0.008342(9)
N1_3 N 0.63010(12) 0.7282(3) 0.02595(12)
N2_3 N 0.70242(13) 0.5685(3) 0.01008(14)
C1_3 C 0.72397(16) 0.6506(4) 0.05691(18)
C2_3 C 0.77826(18) 0.6497(5) 0.0900(2)
H1_3 H 0.8094 0.5860 0.0823
C3_3 C 0.7837(2) 0.7483(6) 0.1352(2)
H2_3 H 0.8195 0.7508 0.1585
C4_3 C 0.7377(2) 0.8433(5) 0.1470(2)
H3_3 H 0.7430 0.9067 0.1784
C5_3 C 0.68433(18) 0.8463(4) 0.11338(17)
H4_3 H 0.6535 0.9106 0.1214
C6_3 C 0.67828(16) 0.7502(3) 0.06731(15)
C10_3 C 0.72939(17) 0.3060(4) 0.01264(18)
H10_3 H 0.7391 0.3153 0.0542
H11_3 H 0.6877 0.2741 0.0072
H24_3 H 0.9097 0.0367 0.0406
C33_3 C 0.76356(18) 0.0481(4) 0.01646(19)
H27_3 H 0.7210 0.0223 0.0147
H28_3 H 0.7770 0.0564 0.0572
O12 O 0.41873(14) 0.9882(3) 0.07005(12)
O14 O 0.49755(13) 0.8421(4) 0.08247(13)
O1_2 O 0.32401(13) 0.4336(4) 0.76137(15)
O2_3 O 0.48748(12) 0.7631(3) 0.95376(13)
O3_3 O 0.41197(13) 0.9199(3) 0.94004(13)
O4_2 O 0.41873(14) 0.0118(3) 0.57005(12)
O5_2 O 0.49755(13) 0.1579(4) 0.58247(13)
C7_2 C 0.64619(17) 0.6180(3) 0.99313(17)
C8_2 C 0.60778(19) 0.5515(5) 0.94570(19)
H5_3 H 0.5903 0.4633 0.9594
H6_2 H 0.6320 0.5302 0.9134
H7_2 H 0.5760 0.6177 0.9335
C9_3 C 0.73644(18) 0.4519(4) 0.98354(19)
H8_3 H 0.7790 0.4777 0.9853
H9_3 H 0.7230 0.4436 0.9428
C11_2 C 0.44625(18) 0.1158(4) 0.59385(16)
C12_2 C 0.41607(16) 0.1971(4) 0.64062(15)
C13_2 C 0.3600(2) 0.1615(7) 0.6569(3)
H12_2 H 0.3407 0.0810 0.6400
C14_2 C 0.44263(17) 0.3153(4) 0.66740(16)
H13_2 H 0.4812 0.3427 0.6576
C15_3 C 0.43815(16) 0.8034(4) 0.93018(15)
C16_3 C 0.40743(15) 0.7021(4) 0.88659(15)
C17_3 C 0.3630(2) 0.7523(5) 0.84737(19)
H14_3 H 0.3503 0.8483 0.8496
C18_3 C 0.3370(2) 0.6628(6) 0.8048(2)
H15_3 H 0.3082 0.6989 0.7774
C19_3 C 0.35393(17) 0.5217(5) 0.80330(18)
C20_2 C 0.39634(18) 0.4662(4) 0.84276(18)
H16_2 H 0.4068 0.3685 0.8417
C21_3 C 0.42357(16) 0.5579(4) 0.88456(16)
H17_3 H 0.4529 0.5216 0.9113
C22_2 C 0.35822(18) 0.3567(5) 0.7233(2)
C23_2 C 0.3308(2) 0.2404(8) 0.6977(3)
H18_2 H 0.2921 0.2136 0.7076
C24_2 C 0.41395(18) 0.3957(4) 0.70864(17)
H19_2 H 0.4330 0.4759 0.7260
C34_3 C 0.77061(17) 0.1940(4) 0.98736(18)
H29_3 H 0.7609 0.1847 0.9458
H30_3 H 0.8123 0.2259 0.9928
N4_3 N 0.79758(13) 0.9315(3) 0.98992(14)
C25_3 C 0.77603(16) 0.8494(4) 0.94309(18)
C26_3 C 0.72174(18) 0.8503(5) 0.9100(2)
H20_3 H 0.6906 0.9140 0.9177
C27_3 C 0.7163(2) 0.7517(6) 0.8648(2)
H21_3 H 0.6805 0.7492 0.8415
C28_3 C 0.7623(2) 0.6567(5) 0.8530(2)
H22_3 H 0.7570 0.5933 0.8216
C29_3 C 0.81567(18) 0.6537(4) 0.88662(17)
H23_3 H 0.8465 0.5894 0.8786
C30_3 C 0.82172(16) 0.7498(3) 0.93269(15)
O6_3 O 0.32401(13) 0.5664(4) 0.26137(15)
O7_4 O 0.48748(12) 0.2369(3) 0.45376(13)
O8_4 O 0.41197(13) 0.0801(3) 0.44004(13)
C35_3 C 0.44625(18) 0.8842(4) 0.09385(16)
C36_3 C 0.41607(16) 0.8029(4) 0.14062(15)
C37_3 C 0.3600(2) 0.8385(7) 0.1569(3)
H31_3 H 0.3407 0.9190 0.1400
C38_3 C 0.44263(17) 0.6847(4) 0.16740(16)
H32_3 H 0.4812 0.6573 0.1576
C39_4 C 0.43815(16) 0.1966(4) 0.43018(15)
C40_4 C 0.40743(15) 0.2979(4) 0.38659(15)
C41_4 C 0.3630(2) 0.2477(5) 0.34737(19)
H33_4 H 0.3503 0.1517 0.3496
C42_4 C 0.3370(2) 0.3372(6) 0.3048(2)
H34_4 H 0.3082 0.3011 0.2774
C43_4 C 0.35393(17) 0.4783(5) 0.30330(18)
C44_3 C 0.39634(18) 0.5338(4) 0.34276(18)
H35_3 H 0.4068 0.6315 0.3417
C45_4 C 0.42357(16) 0.4421(4) 0.38456(16)
H36_4 H 0.4529 0.4784 0.4113
C46_3 C 0.35822(18) 0.6433(5) 0.2233(2)
C47_3 C 0.3308(2) 0.7596(8) 0.1977(3)
H37_3 H 0.2921 0.7864 0.2076
C48_3 C 0.41395(18) 0.6043(4) 0.20864(17)
H38_3 H 0.4330 0.5241 0.2260
N1_4 N 0.36990(12) 0.7282(3) 0.47405(12)
N2_4 N 0.29758(13) 0.5685(3) 0.48992(14)
O1_3 O 0.67599(13) 0.4336(4) 0.73863(15)
O2_4 O 0.51252(12) 0.7631(3) 0.54624(13)
O3_4 O 0.58803(13) 0.9199(3) 0.55996(13)
C1_4 C 0.27603(16) 0.6506(4) 0.44309(18)
C2_4 C 0.22174(18) 0.6497(5) 0.4100(2)
H1_4 H 0.1906 0.5860 0.4177
C3_4 C 0.2163(2) 0.7483(6) 0.3648(2)
H2_4 H 0.1805 0.7508 0.3415
C4_4 C 0.2623(2) 0.8433(5) 0.3530(2)
H3_4 H 0.2570 0.9067 0.3216
C5_4 C 0.31567(18) 0.8463(4) 0.38662(17)
H4_4 H 0.3465 0.9106 0.3786
C6_4 C 0.32172(16) 0.7502(3) 0.43269(15)
C7_3 C 0.35381(17) 0.6180(3) 0.50687(17)
C8_3 C 0.39222(19) 0.5515(5) 0.55430(19)
H5_4 H 0.4097 0.4633 0.5406
H6_3 H 0.3680 0.5302 0.5866
H7_3 H 0.4240 0.6177 0.5665
C9_4 C 0.26356(18) 0.4519(4) 0.51646(19)
H8_4 H 0.2210 0.4777 0.5147
H9_4 H 0.2770 0.4436 0.5572
C10_4 C 0.27061(17) 0.3060(4) 0.48736(18)
H10_4 H 0.2609 0.3153 0.4458
H11_4 H 0.3123 0.2741 0.4928
C11_3 C 0.55375(18) 0.1158(4) 0.90615(16)
C12_3 C 0.58393(16) 0.1971(4) 0.85938(15)
C13_3 C 0.6400(2) 0.1615(7) 0.8431(3)
H12_3 H 0.6593 0.0810 0.8600
C14_3 C 0.55737(17) 0.3153(4) 0.83260(16)
H13_3 H 0.5188 0.3427 0.8424
C15_4 C 0.56185(16) 0.8034(4) 0.56982(15)
C16_4 C 0.59257(15) 0.7021(4) 0.61341(15)
C17_4 C 0.6370(2) 0.7523(5) 0.65263(19)
H14_4 H 0.6497 0.8483 0.6504
C18_4 C 0.6630(2) 0.6628(6) 0.6952(2)
H15_4 H 0.6918 0.6989 0.7226
C19_4 C 0.64607(17) 0.5217(5) 0.69670(18)
C20_3 C 0.60366(18) 0.4662(4) 0.65724(18)
H16_3 H 0.5932 0.3685 0.6583
C21_4 C 0.57643(16) 0.5579(4) 0.61544(16)
H17_4 H 0.5471 0.5216 0.5887
C22_3 C 0.64178(18) 0.3567(5) 0.7767(2)
C23_3 C 0.6692(2) 0.2404(8) 0.8023(3)
H18_3 H 0.7079 0.2136 0.7924
C24_3 C 0.58605(18) 0.3957(4) 0.79136(17)
H19_3 H 0.5670 0.4759 0.7740
H24_4 H 0.0903 0.0367 0.4594
C33_4 C 0.23644(18) 0.0481(4) 0.48354(19)
H27_4 H 0.2790 0.0223 0.4853
H28_4 H 0.2230 0.0564 0.4428
C34_4 C 0.22939(17) 0.1940(4) 0.51264(18)
H29_4 H 0.2391 0.1847 0.5542
H30_4 H 0.1877 0.2259 0.5072
N4_4 N 0.20242(13) 0.9315(3) 0.51008(14)
C25_4 C 0.22397(16) 0.8494(4) 0.55691(18)
C26_4 C 0.27826(18) 0.8503(5) 0.5900(2)
H20_4 H 0.3094 0.9140 0.5823
C27_4 C 0.2837(2) 0.7517(6) 0.6352(2)
H21_4 H 0.3195 0.7492 0.6585
C28_4 C 0.2377(2) 0.6567(5) 0.6470(2)
H22_4 H 0.2430 0.5933 0.6784
C29_4 C 0.18433(18) 0.6537(4) 0.61338(17)
H23_4 H 0.1535 0.5894 0.6214
C30_4 C 0.17828(16) 0.7498(3) 0.56731(15)
C31_3 C 0.14619(17) 0.8820(3) 0.49313(17)
C32_3 C 0.10778(19) 0.9485(5) 0.44570(19)
H25_3 H 0.1320 0.9698 0.4134
H26_3 H 0.0760 0.8823 0.4335
C7_4 C 0.14619(17) 0.1180(3) 0.99313(17)
C8_4 C 0.10778(19) 0.0515(5) 0.94570(19)
H6_4 H 0.1320 0.0302 0.9134
H7_4 H 0.0760 0.1177 0.9335
O11_2 O 0.08127(14) 0.5118(3) 0.92995(12)
O13_2 O 0.00245(13) 0.6579(4) 0.91753(13)
O1_4 O 0.17599(13) 0.9336(4) 0.73863(15)
C11_4 C 0.05375(18) 0.6158(4) 0.90615(16)
C12_4 C 0.08393(16) 0.6971(4) 0.85938(15)
C13_4 C 0.1400(2) 0.6615(7) 0.8431(3)
H12_4 H 0.1593 0.5810 0.8600
C14_4 C 0.05737(17) 0.8153(4) 0.83260(16)
H13_4 H 0.0188 0.8427 0.8424
C20_4 C 0.10366(18) 0.9662(4) 0.65724(18)
H16_4 H 0.0932 0.8685 0.6583
C22_4 C 0.14178(18) 0.8567(5) 0.7767(2)
C23_4 C 0.1692(2) 0.7404(8) 0.8023(3)
H18_4 H 0.2079 0.7136 0.7924
C24_4 C 0.08605(18) 0.8957(4) 0.79136(17)
H19_4 H 0.0670 0.9759 0.7740
O12_2 O 0.91873(14) 0.4882(3) 0.07005(12)
O14_2 O 0.99755(13) 0.3421(4) 0.08247(13)
O6_4 O 0.82401(13) 0.0664(4) 0.26137(15)
C35_4 C 0.94625(18) 0.3842(4) 0.09385(16)
C36_4 C 0.91607(16) 0.3029(4) 0.14062(15)
C37_4 C 0.8600(2) 0.3385(7) 0.1569(3)
H31_4 H 0.8407 0.4190 0.1400
C38_4 C 0.94263(17) 0.1847(4) 0.16740(16)
H32_4 H 0.9812 0.1573 0.1576
C44_4 C 0.89634(18) 0.0338(4) 0.34276(18)
H35_4 H 0.9068 0.1315 0.3417
C46_4 C 0.85822(18) 0.1433(5) 0.2233(2)
C47_4 C 0.8308(2) 0.2596(8) 0.1977(3)
H37_4 H 0.7921 0.2864 0.2076
C48_4 C 0.91395(18) 0.1043(4) 0.20864(17)
H38_4 H 0.9330 0.0241 0.2260
C31_4 C 0.85381(17) 0.8820(3) 0.00687(17)
C32_4 C 0.89222(19) 0.9485(5) 0.05430(19)
H25_4 H 0.8680 0.9698 0.0866
H26_4 H 0.9240 0.8823 0.0665
loop_
_geom_bond_atom_site_label_1
_geom_bond_atom_site_label_2
_geom_bond_site_symmetry_1
_geom_bond_site_symmetry_2
O9 C35 1_555 1_555
O10 C35 1_555 1_555
C35 C36 1_555 1_555
C36 C37 1_555 1_555
C37 H31 1_555 1_555
C38 C36 1_555 1_555
H32 C38 1_555 1_555
H35 C44 1_555 1_555
C46 O6 1_555 1_555
C47 C37 1_555 1_555
H37 C47 1_555 1_555
C48 C38 1_555 1_555
H38 C48 1_555 1_555
Cd6 O9 1_555 1_555
C46 C47 1_555 1_555
C46 C48 1_555 1_555
Cd1 N1 1_555 1_555
N1 C6 1_555 1_555
N2 C1 1_555 1_555
C1 C2 1_555 1_555
C2 H1 1_555 1_555
C3 C2 1_555 1_555
H2 C3 1_555 1_555
C4 C3 1_555 1_555
H3 C4 1_555 1_555
C5 C4 1_555 1_555
H4 C5 1_555 1_555
C6 C1 1_555 1_555
O8 Cd1 1_555 1_555
C39 O7 1_555 1_555
C40 C39 1_555 1_555
C41 C40 1_555 1_555
H33 C41 1_555 1_555
C42 C41 1_555 1_555
H34 C42 1_555 1_555
C43 C42 1_555 1_555
C45 C40 1_555 1_555
H36 C45 1_555 1_555
C5 C6 1_555 1_555
O8 C39 1_555 1_555
H10 C10 1_555 1_555
H11 C10 1_555 1_555
C32 C31 1_555 1_555
H24 C32 1_555 1_555
H25 C32 1_555 1_555
H26 C32 1_555 1_555
H27 C33 1_555 1_555
H28 C33 1_555 1_555
H8 C9 1_555 1_555
H9 C9 1_555 1_555
N3 C30 1_555 1_555
N4 C25 1_555 1_555
C25 C26 1_555 1_555
C26 H20 1_555 1_555
C27 C26 1_555 1_555
H21 C27 1_555 1_555
C28 C27 1_555 1_555
H22 C28 1_555 1_555
C29 C28 1_555 1_555
H23 C29 1_555 1_555
C30 C25 1_555 1_555
H29 C34 1_555 1_555
H30 C34 1_555 1_555
Cd7 N3 1_555 1_555
C29 C30 1_555 1_555
O3 C15 1_555 1_555
C15 O2 1_555 1_555
C16 C15 1_555 1_555
C17 C16 1_555 1_555
H14 C17 1_555 1_555
C18 C17 1_555 1_555
H15 C18 1_555 1_555
C19 C18 1_555 1_555
C21 C16 1_555 1_555
H17 C21 1_555 1_555
Cd2 O3 1_555 1_555
N5 Cd2 1_555 1_555
O4 C11 1_555 1_555
O5 C11 1_555 1_555
C11 C12 1_555 1_555
C12 C13 1_555 1_555
C13 H12 1_555 1_555
C14 C12 1_555 1_555
H13 C14 1_555 1_555
H16 C20 1_555 1_555
C22 O1 1_555 1_555
C23 C13 1_555 1_555
H18 C23 1_555 1_555
C24 C14 1_555 1_555
H19 C24 1_555 1_555
Cd4 O4 1_555 1_555
C22 C23 1_555 1_555
C22 C24 1_555 1_555
O3_2 C15_2 1_555 1_555
C15_2 O2_2 1_555 1_555
C16_2 C15_2 1_555 1_555
C17_2 C16_2 1_555 1_555
H14_2 C17_2 1_555 1_555
C18_2 C17_2 1_555 1_555
H15_2 C18_2 1_555 1_555
C19_2 C18_2 1_555 1_555
C21_2 C16_2 1_555 1_555
H17_2 C21_2 1_555 1_555
Cd6 O3_2 1_555 1_555
N5_2 Cd6 1_555 1_555
Cd4 N1_2 1_555 1_555
N1_2 C6_2 1_555 1_555
N2_2 C1_2 1_555 1_555
C1_2 C2_2 1_555 1_555
C2_2 H1_2 1_555 1_555
C3_2 C2_2 1_555 1_555
H2_2 C3_2 1_555 1_555
C4_2 C3_2 1_555 1_555
H3_2 C4_2 1_555 1_555
C5_2 C4_2 1_555 1_555
H4_2 C5_2 1_555 1_555
C6_2 C1_2 1_555 1_555
C7 N1_2 1_555 1_555
C8 C7 1_555 1_555
H6 C8 1_555 1_555
H7 C8 1_555 1_555
O8_2 Cd4 1_555 1_555
C39_2 O7_2 1_555 1_555
C40_2 C39_2 1_555 1_555
C41_2 C40_2 1_555 1_555
H33_2 C41_2 1_555 1_555
C42_2 C41_2 1_555 1_555
H34_2 C42_2 1_555 1_555
C43_2 C42_2 1_555 1_555
C45_2 C40_2 1_555 1_555
H36_2 C45_2 1_555 1_555
N2_2 C7 1_555 1_555
C5_2 C6_2 1_555 1_555
O8_2 C39_2 1_555 1_555
H8_2 C9_2 1_555 1_555
H9_2 C9_2 1_555 1_555
C10_2 C9_2 1_555 1_555
H10_2 C10_2 1_555 1_555
H11_2 C10_2 1_555 1_555
N3_2 C30_2 1_555 1_555
N4_2 C25_2 1_555 1_555
C25_2 C26_2 1_555 1_555
C26_2 H20_2 1_555 1_555
C27_2 C26_2 1_555 1_555
H21_2 C27_2 1_555 1_555
C28_2 C27_2 1_555 1_555
H22_2 C28_2 1_555 1_555
C29_2 C28_2 1_555 1_555
H23_2 C29_2 1_555 1_555
C30_2 C25_2 1_555 1_555
C31_2 N3_2 1_555 1_555
C32_2 C31_2 1_555 1_555
H24_2 C32_2 1_555 1_555
H25_2 C32_2 1_555 1_555
H26_2 C32_2 1_555 1_555
C33_2 N4_2 1_555 1_555
H27_2 C33_2 1_555 1_555
H28_2 C33_2 1_555 1_555
C34_2 C10_2 1_555 1_555
H29_2 C34_2 1_555 1_555
H30_2 C34_2 1_555 1_555
Cd7_2 N3_2 1_555 1_555
N4_2 C31_2 1_555 1_555
C29_2 C30_2 1_555 1_555
C33_2 C34_2 1_555 1_555
O6_2 C43_3 1_555 1_555
O9_2 C35_2 1_555 1_555
O10_2 C35_2 1_555 1_555
C35_2 C36_2 1_555 1_555
C36_2 C37_2 1_555 1_555
C37_2 H31_2 1_555 1_555
C38_2 C36_2 1_555 1_555
H32_2 C38_2 1_555 1_555
C39_3 O7_3 1_555 1_555
C40_3 C39_3 1_555 1_555
C41_3 C40_3 1_555 1_555
H33_3 C41_3 1_555 1_555
C42_3 C41_3 1_555 1_555
H34_3 C42_3 1_555 1_555
C43_3 C42_3 1_555 1_555
C44_2 C43_3 1_555 1_555
H35_2 C44_2 1_555 1_555
C45_3 C40_3 1_555 1_555
H36_3 C45_3 1_555 1_555
C46_2 O6_2 1_555 1_555
C47_2 C37_2 1_555 1_555
H37_2 C47_2 1_555 1_555
C48_2 C38_2 1_555 1_555
H38_2 C48_2 1_555 1_555
Cd4_2 O10_2 1_555 1_555
O8_3 C39_3 1_555 1_555
C44_2 C45_3 1_555 1_555
C46_2 C47_2 1_555 1_555
C46_2 C48_2 1_555 1_555
O13 Cd7 1_555 1_555
Cd1_2 N1_3 1_555 1_555
N1_3 C6_3 1_555 1_555
N2_3 C1_3 1_555 1_555
C1_3 C2_3 1_555 1_555
C2_3 H1_3 1_555 1_555
C3_3 C2_3 1_555 1_555
H2_3 C3_3 1_555 1_555
C4_3 C3_3 1_555 1_555
H3_3 C4_3 1_555 1_555
C5_3 C4_3 1_555 1_555
H4_3 C5_3 1_555 1_555
C6_3 C1_3 1_555 1_555
H10_3 C10_3 1_555 1_555
H11_3 C10_3 1_555 1_555
H27_3 C33_3 1_555 1_555
H28_3 C33_3 1_555 1_555
O14 Cd1_2 1_555 1_555
C5_3 C6_3 1_555 1_555
O1_2 C19_3 1_555 1_555
O3_3 C15_3 1_555 1_555
O4_2 C11_2 1_555 1_555
O5_2 C11_2 1_555 1_555
C8_2 C7_2 1_555 1_555
H5_3 C8_2 1_555 1_555
H6_2 C8_2 1_555 1_555
H7_2 C8_2 1_555 1_555
H8_3 C9_3 1_555 1_555
H9_3 C9_3 1_555 1_555
C11_2 C12_2 1_555 1_555
C12_2 C13_2 1_555 1_555
C13_2 H12_2 1_555 1_555
C14_2 C12_2 1_555 1_555
H13_2 C14_2 1_555 1_555
C15_3 O2_3 1_555 1_555
C16_3 C15_3 1_555 1_555
C17_3 C16_3 1_555 1_555
H14_3 C17_3 1_555 1_555
C18_3 C17_3 1_555 1_555
H15_3 C18_3 1_555 1_555
C19_3 C18_3 1_555 1_555
C20_2 C19_3 1_555 1_555
H16_2 C20_2 1_555 1_555
C21_3 C16_3 1_555 1_555
H17_3 C21_3 1_555 1_555
C22_2 O1_2 1_555 1_555
C23_2 C13_2 1_555 1_555
H18_2 C23_2 1_555 1_555
C24_2 C14_2 1_555 1_555
H19_2 C24_2 1_555 1_555
H29_3 C34_3 1_555 1_555
H30_3 C34_3 1_555 1_555
Cd7_2 O5_2 1_555 1_555
C20_2 C21_3 1_555 1_555
C22_2 C23_2 1_555 1_555
C22_2 C24_2 1_555 1_555
N5 C30_3 1_555 1_555
N4_3 C25_3 1_555 1_555
C25_3 C26_3 1_555 1_555
C26_3 H20_3 1_555 1_555
C27_3 C26_3 1_555 1_555
H21_3 C27_3 1_555 1_555
C28_3 C27_3 1_555 1_555
H22_3 C28_3 1_555 1_555
C29_3 C28_3 1_555 1_555
H23_3 C29_3 1_555 1_555
C30_3 C25_3 1_555 1_555
C29_3 C30_3 1_555 1_555
O6_3 C43_4 1_555 1_555
O7_4 Cd7_2 1_555 1_555
O12 C35_3 1_555 1_555
O14 C35_3 1_555 1_555
C35_3 C36_3 1_555 1_555
C36_3 C37_3 1_555 1_555
C37_3 H31_3 1_555 1_555
C38_3 C36_3 1_555 1_555
H32_3 C38_3 1_555 1_555
C39_4 O7_4 1_555 1_555
C40_4 C39_4 1_555 1_555
C41_4 C40_4 1_555 1_555
H33_4 C41_4 1_555 1_555
C42_4 C41_4 1_555 1_555
H34_4 C42_4 1_555 1_555
C43_4 C42_4 1_555 1_555
C44_3 C43_4 1_555 1_555
H35_3 C44_3 1_555 1_555
C45_4 C40_4 1_555 1_555
H36_4 C45_4 1_555 1_555
C46_3 O6_3 1_555 1_555
C47_3 C37_3 1_555 1_555
H37_3 C47_3 1_555 1_555
C48_3 C38_3 1_555 1_555
H38_3 C48_3 1_555 1_555
O8_4 C39_4 1_555 1_555
C44_3 C45_4 1_555 1_555
C46_3 C47_3 1_555 1_555
C46_3 C48_3 1_555 1_555
Cd4_2 N1_4 1_555 1_555
N1_4 C6_4 1_555 1_555
N2_4 C1_4 1_555 1_555
O1_3 C19_4 1_555 1_555
O2_4 Cd4_2 1_555 1_555
O3_4 C15_4 1_555 1_555
O11 C11_3 1_555 1_555
O13 C11_3 1_555 1_555
C1_4 C2_4 1_555 1_555
C2_4 H1_4 1_555 1_555
C3_4 C2_4 1_555 1_555
H2_4 C3_4 1_555 1_555
C4_4 C3_4 1_555 1_555
H3_4 C4_4 1_555 1_555
C5_4 C4_4 1_555 1_555
H4_4 C5_4 1_555 1_555
C6_4 C1_4 1_555 1_555
C7_3 N1_4 1_555 1_555
C8_3 C7_3 1_555 1_555
H5_4 C8_3 1_555 1_555
H6_3 C8_3 1_555 1_555
H7_3 C8_3 1_555 1_555
C9_4 N2_4 1_555 1_555
H8_4 C9_4 1_555 1_555
H9_4 C9_4 1_555 1_555
C10_4 C9_4 1_555 1_555
H10_4 C10_4 1_555 1_555
H11_4 C10_4 1_555 1_555
C11_3 C12_3 1_555 1_555
C12_3 C13_3 1_555 1_555
C13_3 H12_3 1_555 1_555
C14_3 C12_3 1_555 1_555
H13_3 C14_3 1_555 1_555
C15_4 O2_4 1_555 1_555
C16_4 C15_4 1_555 1_555
C17_4 C16_4 1_555 1_555
H14_4 C17_4 1_555 1_555
C18_4 C17_4 1_555 1_555
H15_4 C18_4 1_555 1_555
C19_4 C18_4 1_555 1_555
C20_3 C19_4 1_555 1_555
H16_3 C20_3 1_555 1_555
C21_4 C16_4 1_555 1_555
H17_4 C21_4 1_555 1_555
C22_3 O1_3 1_555 1_555
C23_3 C13_3 1_555 1_555
H18_3 C23_3 1_555 1_555
C24_3 C14_3 1_555 1_555
H19_3 C24_3 1_555 1_555
H27_4 C33_4 1_555 1_555
H28_4 C33_4 1_555 1_555
C34_4 C10_4 1_555 1_555
H29_4 C34_4 1_555 1_555
H30_4 C34_4 1_555 1_555
N2_4 C7_3 1_555 1_555
C5_4 C6_4 1_555 1_555
C20_3 C21_4 1_555 1_555
C22_3 C23_3 1_555 1_555
C22_3 C24_3 1_555 1_555
C33_4 C34_4 1_555 1_555
N5_2 C30_4 1_555 1_555
N4_4 C25_4 1_555 1_555
C25_4 C26_4 1_555 1_555
C26_4 H20_4 1_555 1_555
C27_4 C26_4 1_555 1_555
H21_4 C27_4 1_555 1_555
C28_4 C27_4 1_555 1_555
H22_4 C28_4 1_555 1_555
C29_4 C28_4 1_555 1_555
H23_4 C29_4 1_555 1_555
C30_4 C25_4 1_555 1_555
C31_3 N5_2 1_555 1_555
C32_3 C31_3 1_555 1_555
H25_3 C32_3 1_555 1_555
H26_3 C32_3 1_555 1_555
N4_4 C31_3 1_555 1_555
C29_4 C30_4 1_555 1_555
C8_4 C7_4 1_555 1_555
H6_4 C8_4 1_555 1_555
H7_4 C8_4 1_555 1_555
O11_2 C11_4 1_555 1_555
O13_2 C11_4 1_555 1_555
C11_4 C12_4 1_555 1_555
C12_4 C13_4 1_555 1_555
C13_4 H12_4 1_555 1_555
C14_4 C12_4 1_555 1_555
H13_4 C14_4 1_555 1_555
H16_4 C20_4 1_555 1_555
C22_4 O1_4 1_555 1_555
C23_4 C13_4 1_555 1_555
H18_4 C23_4 1_555 1_555
C24_4 C14_4 1_555 1_555
H19_4 C24_4 1_555 1_555
C22_4 C23_4 1_555 1_555
C22_4 C24_4 1_555 1_555
O12_2 C35_4 1_555 1_555
O14_2 C35_4 1_555 1_555
C35_4 C36_4 1_555 1_555
C36_4 C37_4 1_555 1_555
C37_4 H31_4 1_555 1_555
C38_4 C36_4 1_555 1_555
H32_4 C38_4 1_555 1_555
H35_4 C44_4 1_555 1_555
C46_4 O6_4 1_555 1_555
C47_4 C37_4 1_555 1_555
H37_4 C47_4 1_555 1_555
C48_4 C38_4 1_555 1_555
H38_4 C48_4 1_555 1_555
C46_4 C47_4 1_555 1_555
C46_4 C48_4 1_555 1_555
C32_4 C31_4 1_555 1_555
H25_4 C32_4 1_555 1_555
H26_4 C32_4 1_555 1_555

#END
