
###############################################################################
#
# This file contains modified crystal structure data generated from the
# MOF subset of the Cambridge Structural Database (CSD) v543 
# hosted by the Cambridge Crystallographic Data Centre (CCDC).
#
# This work is licensed under the Creative Commons
# Attribution-NonCommercial-ShareAlike 4.0 International License.
# To view a copy of this license, visit
# http://creativecommons.org/licenses/by-nc-sa/4.0/
# or send a letter to
# Creative Commons, PO Box 1866, Mountain View, CA 94042, USA.
#
# CIF created using the CSD Python API on 29 September 2022
# The structure has been converted into the P1 space group
# The structure has a 3D framework
# The original CSD entry UXUPIN is in the tetragonal crystal system
# The framework has been calculated to contain at least 10.0% void space
# The void calculation uses a probe of radius 1.32A, grid spacing 0.4
#
###############################################################################

data_UXUPIN
_chemical_formula_moiety         '(C352 H256 Cu24 F96 N64 O96 S32)n'
_symmetry_cell_setting           triclinic
_symmetry_space_group_name_H-M   'P 1'
_symmetry_Int_Tables_number      1
_space_group_name_Hall           'P 1'
loop_
_symmetry_equiv_pos_site_id
_symmetry_equiv_pos_as_xyz
1 x,y,z
_cell_length_a                   28.564(2)
_cell_length_b                   28.564(2)
_cell_length_c                   18.2725(13)
_cell_angle_alpha                90
_cell_angle_beta                 90
_cell_angle_gamma                90
_cell_volume                     14908.6
loop_
_atom_site_label
_atom_site_type_symbol
_atom_site_fract_x
_atom_site_fract_y
_atom_site_fract_z
Cu1 Cu 0.7500 0.25885(2) 0.0000
H1 H 0.8496 0.2287 0.0056
Cu3 Cu 0.50885(2) -0.0000 0.2500
S2 S 0.81685(13) 0.27246(12) 0.17848(12)
F4 F 0.8916(6) 0.2786(5) 0.2459(9)
F5 F 0.8964(3) 0.2805(5) 0.1192(9)
F6 F 0.8766(7) 0.2123(4) 0.1711(6)
O4 O 0.79971(13) 0.25946(14) 0.10833(19)
O5 O 0.8112(6) 0.3242(3) 0.1875(7)
O6 O 0.7989(7) 0.2519(6) 0.2415(5)
N3 N 0.70831(12) 0.20820(11) 0.0434(2)
N4 N 0.55752(12) 0.04201(11) 0.2037(2)
N6 N 0.70799(11) 0.30752(12) 0.0463(2)
C12 C 0.66242(16) 0.20679(16) 0.0270(3)
C13 C 0.63252(16) 0.17393(17) 0.0570(3)
H10 H 0.6010 0.1735 0.0441
C14 C 0.65033(15) 0.14130(15) 0.1070(3)
C15 C 0.69685(17) 0.14328(19) 0.1230(4)
H11 H 0.7097 0.1218 0.1556
C16 C 0.72528(16) 0.17689(17) 0.0914(4)
H12 H 0.7569 0.1778 0.1036
C17 C 0.59270(18) 0.06051(16) 0.2425(3)
H13 H 0.5965 0.0514 0.2910
C18 C 0.62352(18) 0.09263(16) 0.2130(3)
H14 H 0.6474 0.1051 0.2415
C19 C 0.61846(16) 0.10606(14) 0.1406(3)
C20 C 0.58300(19) 0.08636(17) 0.1013(3)
H15 H 0.5787 0.0948 0.0526
C21 C 0.55356(18) 0.05405(17) 0.1332(3)
H16 H 0.5303 0.0402 0.1049
C22 C 0.8783(6) 0.2602(6) 0.1804(8)
Cu1_2 Cu 0.7500 0.25885(2) 1.0000
S1 S 0.68315(13) 0.27246(12) 0.82152(12)
F1 F 0.6084(6) 0.2786(5) 0.7541(9)
F2 F 0.6036(3) 0.2805(5) 0.8808(9)
F3 F 0.6234(7) 0.2123(4) 0.8289(6)
O1 O 0.70029(13) 0.25946(14) 0.89167(19)
O2 O 0.6888(6) 0.3242(3) 0.8125(7)
O3 O 0.7011(7) 0.2519(6) 0.7585(5)
N1 N 0.79169(12) 0.20820(11) 0.9566(2)
N2 N 0.94248(12) 0.04201(11) 0.7963(2)
C1 C 0.83758(16) 0.20679(16) 0.9730(3)
C2 C 0.86748(16) 0.17393(17) 0.9430(3)
H2 H 0.8990 0.1735 0.9559
C3 C 0.84967(15) 0.14130(15) 0.8930(3)
C4 C 0.80315(17) 0.14328(19) 0.8770(4)
H3 H 0.7903 0.1218 0.8444
C5 C 0.77472(16) 0.17689(17) 0.9086(4)
H4 H 0.7431 0.1778 0.8964
C6 C 0.90730(18) 0.06051(16) 0.7575(3)
H5 H 0.9035 0.0514 0.7090
C7 C 0.87648(18) 0.09263(16) 0.7870(3)
H6 H 0.8526 0.1051 0.7585
C8 C 0.88154(16) 0.10606(14) 0.8594(3)
C9 C 0.91700(19) 0.08636(17) 0.8987(3)
H7 H 0.9213 0.0948 0.9474
C10 C 0.94644(18) 0.05405(17) 0.8668(3)
H8 H 0.9697 0.0402 0.8951
C11 C 0.6217(6) 0.2602(6) 0.8196(8)
Cu2 Cu 0.99115(2) 0.0000 0.7500
N5 N 0.79201(11) 0.30752(12) 0.9537(2)
H9 H 0.6504 0.2287 0.9944
Cu3_2 Cu 0.50885(2) 1.0000 0.2500
Cu2_2 Cu 0.99115(2) 1.0000 0.7500
Cu1_3 Cu 0.7500 0.74115(2) 0.5000
S1_2 S 0.81685(13) 0.72754(12) 0.32152(12)
F1_2 F 0.8916(6) 0.7214(5) 0.2541(9)
F2_2 F 0.8964(3) 0.7195(5) 0.3808(9)
F3_2 F 0.8766(7) 0.7877(4) 0.3289(6)
O1_2 O 0.79971(13) 0.74054(14) 0.39167(19)
O2_2 O 0.8112(6) 0.6758(3) 0.3125(7)
O3_2 O 0.7989(7) 0.7481(6) 0.2585(5)
N1_2 N 0.70831(12) 0.79180(11) 0.4566(2)
N2_2 N 0.55752(12) 0.95799(11) 0.2963(2)
C1_2 C 0.66242(16) 0.79321(16) 0.4730(3)
H1_2 H 0.6504 0.7713 0.5056
C2_2 C 0.63252(16) 0.82607(17) 0.4430(3)
H2_2 H 0.6010 0.8265 0.4559
C3_2 C 0.65033(15) 0.85870(15) 0.3930(3)
C4_2 C 0.69685(17) 0.85672(19) 0.3770(4)
H3_2 H 0.7097 0.8782 0.3444
C5_2 C 0.72528(16) 0.82311(17) 0.4086(4)
H4_2 H 0.7569 0.8222 0.3964
C6_2 C 0.59270(18) 0.93949(16) 0.2575(3)
H5_2 H 0.5965 0.9486 0.2090
C7_2 C 0.62352(18) 0.90737(16) 0.2870(3)
H6_2 H 0.6474 0.8949 0.2585
C8_2 C 0.61846(16) 0.89394(14) 0.3594(3)
C9_2 C 0.58300(19) 0.91364(17) 0.3987(3)
H7_2 H 0.5787 0.9052 0.4474
C10_2 C 0.55356(18) 0.94595(17) 0.3668(3)
H8_2 H 0.5303 0.9598 0.3951
C11_2 C 0.8783(6) 0.7398(6) 0.3196(8)
S2_2 S 0.68315(13) 0.72754(12) 0.67848(12)
F4_2 F 0.6084(6) 0.7214(5) 0.7459(9)
F5_2 F 0.6036(3) 0.7195(5) 0.6192(9)
F6_2 F 0.6234(7) 0.7877(4) 0.6711(6)
O4_2 O 0.70029(13) 0.74054(14) 0.60833(19)
O5_2 O 0.6888(6) 0.6758(3) 0.6875(7)
O6_2 O 0.7011(7) 0.7481(6) 0.7415(5)
N3_2 N 0.79169(12) 0.79180(11) 0.5434(2)
N4_2 N 0.94248(12) 0.95799(11) 0.7037(2)
N5_2 N 0.70799(11) 0.69248(12) 0.4537(2)
N6_2 N 0.79201(11) 0.69248(12) 0.5463(2)
C12_2 C 0.83758(16) 0.79321(16) 0.5270(3)
H9_2 H 0.8496 0.7713 0.4944
C13_2 C 0.86748(16) 0.82607(17) 0.5570(3)
H10_2 H 0.8990 0.8265 0.5441
C14_2 C 0.84967(15) 0.85870(15) 0.6070(3)
C15_2 C 0.80315(17) 0.85672(19) 0.6230(4)
H11_2 H 0.7903 0.8782 0.6556
C16_2 C 0.77472(16) 0.82311(17) 0.5914(4)
H12_2 H 0.7431 0.8222 0.6036
C17_2 C 0.90730(18) 0.93949(16) 0.7425(3)
H13_2 H 0.9035 0.9486 0.7910
C18_2 C 0.87648(18) 0.90737(16) 0.7130(3)
H14_2 H 0.8526 0.8949 0.7415
C19_2 C 0.88154(16) 0.89394(14) 0.6406(3)
C20_2 C 0.91700(19) 0.91364(17) 0.6013(3)
H15_2 H 0.9213 0.9052 0.5526
C21_2 C 0.94644(18) 0.94595(17) 0.6332(3)
H16_2 H 0.9697 0.9598 0.6049
C22_2 C 0.6217(6) 0.7398(6) 0.6804(8)
Cu1_4 Cu 0.2500 0.75885(2) 0.5000
S1_3 S 0.18315(13) 0.77246(12) 0.32152(12)
F1_3 F 0.1084(6) 0.7786(5) 0.2541(9)
F2_3 F 0.1036(3) 0.7805(5) 0.3808(9)
F3_3 F 0.1234(7) 0.7123(4) 0.3289(6)
O1_3 O 0.20029(13) 0.75946(14) 0.39167(19)
O2_3 O 0.1888(6) 0.8242(3) 0.3125(7)
O3_3 O 0.2011(7) 0.7519(6) 0.2585(5)
N1_3 N 0.29169(12) 0.70820(11) 0.4566(2)
N2_3 N 0.44248(12) 0.54201(11) 0.2963(2)
C1_3 C 0.33758(16) 0.70679(16) 0.4730(3)
H1_3 H 0.3496 0.7287 0.5056
C2_3 C 0.36748(16) 0.67393(17) 0.4430(3)
H2_3 H 0.3990 0.6735 0.4559
C3_3 C 0.34967(15) 0.64130(15) 0.3930(3)
C4_3 C 0.30315(17) 0.64328(19) 0.3770(4)
H3_3 H 0.2903 0.6218 0.3444
C5_3 C 0.27472(16) 0.67689(17) 0.4086(4)
H4_3 H 0.2431 0.6778 0.3964
C6_3 C 0.40730(18) 0.56051(16) 0.2575(3)
H5_3 H 0.4035 0.5514 0.2090
C7_3 C 0.37648(18) 0.59263(16) 0.2870(3)
H6_3 H 0.3526 0.6051 0.2585
C8_3 C 0.38154(16) 0.60606(14) 0.3594(3)
C9_3 C 0.41700(19) 0.58636(17) 0.3987(3)
H7_3 H 0.4213 0.5948 0.4474
C10_3 C 0.44644(18) 0.55405(17) 0.3668(3)
H8_3 H 0.4697 0.5402 0.3951
C11_3 C 0.1217(6) 0.7602(6) 0.3196(8)
Cu2_3 Cu 0.49115(2) 0.5000 0.2500
Cu3_3 Cu 0.00885(2) 0.5000 0.7500
S2_3 S 0.31685(13) 0.77246(12) 0.67848(12)
F4_3 F 0.3916(6) 0.7786(5) 0.7459(9)
F5_3 F 0.3964(3) 0.7805(5) 0.6192(9)
F6_3 F 0.3766(7) 0.7123(4) 0.6711(6)
O4_3 O 0.29971(13) 0.75946(14) 0.60833(19)
O5_3 O 0.3112(6) 0.8242(3) 0.6875(7)
O6_3 O 0.2989(7) 0.7519(6) 0.7415(5)
N3_3 N 0.20831(12) 0.70820(11) 0.5434(2)
N4_3 N 0.05752(12) 0.54201(11) 0.7037(2)
N5_3 N 0.29201(11) 0.80752(12) 0.4537(2)
N6_3 N 0.20799(11) 0.80752(12) 0.5463(2)
C12_3 C 0.16242(16) 0.70679(16) 0.5270(3)
H9_3 H 0.1504 0.7287 0.4944
C13_3 C 0.13252(16) 0.67393(17) 0.5570(3)
H10_3 H 0.1010 0.6735 0.5441
C14_3 C 0.15033(15) 0.64130(15) 0.6070(3)
C15_3 C 0.19685(17) 0.64328(19) 0.6230(4)
H11_3 H 0.2097 0.6218 0.6556
C16_3 C 0.22528(16) 0.67689(17) 0.5914(4)
H12_3 H 0.2569 0.6778 0.6036
C17_3 C 0.09270(18) 0.56051(16) 0.7425(3)
H13_3 H 0.0965 0.5514 0.7910
C18_3 C 0.12352(18) 0.59263(16) 0.7130(3)
H14_3 H 0.1474 0.6051 0.7415
C19_3 C 0.11846(16) 0.60606(14) 0.6406(3)
C20_3 C 0.08300(19) 0.58636(17) 0.6013(3)
H15_3 H 0.0787 0.5948 0.5526
C21_3 C 0.05356(18) 0.55405(17) 0.6332(3)
H16_3 H 0.0303 0.5402 0.6049
C22_3 C 0.3783(6) 0.7602(6) 0.6804(8)
Cu1_5 Cu 0.2500 0.24115(2) 0.0000
H1_4 H 0.1504 0.2713 0.0056
S2_4 S 0.18315(13) 0.22754(12) 0.17848(12)
F4_4 F 0.1084(6) 0.2214(5) 0.2459(9)
F5_4 F 0.1036(3) 0.2195(5) 0.1192(9)
F6_4 F 0.1234(7) 0.2877(4) 0.1711(6)
O4_4 O 0.20029(13) 0.24054(14) 0.10833(19)
O5_4 O 0.1888(6) 0.1758(3) 0.1875(7)
O6_4 O 0.2011(7) 0.2481(6) 0.2415(5)
N3_4 N 0.29169(12) 0.29180(11) 0.0434(2)
N4_4 N 0.44248(12) 0.45799(11) 0.2037(2)
N6_4 N 0.29201(11) 0.19248(12) 0.0463(2)
C12_4 C 0.33758(16) 0.29321(16) 0.0270(3)
C13_4 C 0.36748(16) 0.32607(17) 0.0570(3)
H10_4 H 0.3990 0.3265 0.0441
C14_4 C 0.34967(15) 0.35870(15) 0.1070(3)
C15_4 C 0.30315(17) 0.35672(19) 0.1230(4)
H11_4 H 0.2903 0.3782 0.1556
C16_4 C 0.27472(16) 0.32311(17) 0.0914(4)
H12_4 H 0.2431 0.3222 0.1036
C17_4 C 0.40730(18) 0.43949(16) 0.2425(3)
H13_4 H 0.4035 0.4486 0.2910
C18_4 C 0.37648(18) 0.40737(16) 0.2130(3)
H14_4 H 0.3526 0.3949 0.2415
C19_4 C 0.38154(16) 0.39394(14) 0.1406(3)
C20_4 C 0.41700(19) 0.41364(17) 0.1013(3)
H15_4 H 0.4213 0.4052 0.0526
C21_4 C 0.44644(18) 0.44595(17) 0.1332(3)
H16_4 H 0.4697 0.4598 0.1049
C22_4 C 0.1217(6) 0.2398(6) 0.1804(8)
Cu1_6 Cu 0.2500 0.24115(2) 1.0000
S1_4 S 0.31685(13) 0.22754(12) 0.82152(12)
F1_4 F 0.3916(6) 0.2214(5) 0.7541(9)
F2_4 F 0.3964(3) 0.2195(5) 0.8808(9)
F3_4 F 0.3766(7) 0.2877(4) 0.8289(6)
O1_4 O 0.29971(13) 0.24054(14) 0.89167(19)
O2_4 O 0.3112(6) 0.1758(3) 0.8125(7)
O3_4 O 0.2989(7) 0.2481(6) 0.7585(5)
N1_4 N 0.20831(12) 0.29180(11) 0.9566(2)
N2_4 N 0.05752(12) 0.45799(11) 0.7963(2)
C1_4 C 0.16242(16) 0.29321(16) 0.9730(3)
C2_4 C 0.13252(16) 0.32607(17) 0.9430(3)
H2_4 H 0.1010 0.3265 0.9559
C3_4 C 0.15033(15) 0.35870(15) 0.8930(3)
C4_4 C 0.19685(17) 0.35672(19) 0.8770(4)
H3_4 H 0.2097 0.3782 0.8444
C5_4 C 0.22528(16) 0.32311(17) 0.9086(4)
H4_4 H 0.2569 0.3222 0.8964
C6_4 C 0.09270(18) 0.43949(16) 0.7575(3)
H5_4 H 0.0965 0.4486 0.7090
C7_4 C 0.12352(18) 0.40737(16) 0.7870(3)
H6_4 H 0.1474 0.3949 0.7585
C8_4 C 0.11846(16) 0.39394(14) 0.8594(3)
C9_4 C 0.08300(19) 0.41364(17) 0.8987(3)
H7_4 H 0.0787 0.4052 0.9474
C10_4 C 0.05356(18) 0.44595(17) 0.8668(3)
H8_4 H 0.0303 0.4598 0.8951
C11_4 C 0.3783(6) 0.2398(6) 0.8196(8)
N5_4 N 0.20799(11) 0.19248(12) 0.9537(2)
H9_4 H 0.3496 0.2713 0.9944
S1_5 S 0.02246(12) 0.56685(13) 0.92848(12)
F1_5 F 0.0286(5) 0.6416(6) 0.9959(9)
F2_5 F 0.0305(5) 0.6464(3) 0.8692(9)
O1_5 O 0.00946(14) 0.54971(13) 0.85833(19)
O2_5 O 0.0742(3) 0.5612(6) 0.9375(7)
O3_5 O 0.0019(6) 0.5489(7) 0.9915(5)
C11_5 C 0.0102(6) 0.6283(6) 0.9304(8)
S2_5 S 0.02246(12) 0.43315(13) 0.57152(12)
F4_5 F 0.0286(5) 0.3584(6) 0.5041(9)
F5_5 F 0.0305(5) 0.3536(3) 0.6308(9)
O4_5 O 0.00946(14) 0.45029(13) 0.64167(19)
O5_5 O 0.0742(3) 0.4388(6) 0.5625(7)
O6_5 O 0.0019(6) 0.4511(7) 0.5085(5)
C22_5 C 0.0102(6) 0.3717(6) 0.5696(8)
H5_5 H 0.8014 0.3465 0.0410
F3_5 F 0.9623(4) 0.6266(7) 0.9211(6)
N1_5 N 0.95820(11) 0.45831(12) 0.7934(2)
C1_5 C 0.95679(16) 0.41242(16) 0.7770(3)
H1_5 H 0.9787 0.4004 0.7444
C2_5 C 0.92393(17) 0.38252(16) 0.8070(3)
H2_5 H 0.9235 0.3510 0.7941
C3_5 C 0.89130(15) 0.40033(15) 0.8570(3)
C4_5 C 0.89328(19) 0.44685(17) 0.8730(4)
H3_5 H 0.8718 0.4597 0.9056
C5_5 C 0.92689(17) 0.47528(16) 0.8414(4)
H4_5 H 0.9278 0.5069 0.8536
C6_5 C 0.81051(16) 0.34270(18) 0.9925(3)
C7_5 C 0.84263(16) 0.37352(18) 0.9630(3)
H6_5 H 0.8551 0.3974 0.9915
C8_5 C 0.85606(14) 0.36846(16) 0.8906(3)
C9_5 C 0.83636(17) 0.33300(19) 0.8513(3)
H7_5 H 0.8448 0.3287 0.8026
C10_5 C 0.80405(17) 0.30356(18) 0.8832(3)
H8_5 H 0.7902 0.2803 0.8549
F6_5 F 0.9623(4) 0.3734(7) 0.5789(6)
N3_5 N 0.95820(11) 0.54169(12) 0.7066(2)
C12_5 C 0.95679(16) 0.58758(16) 0.7230(3)
H9_5 H 0.9787 0.5996 0.7556
C13_5 C 0.92393(17) 0.61748(16) 0.6930(3)
H10_5 H 0.9235 0.6490 0.7059
C14_5 C 0.89130(15) 0.59967(15) 0.6430(3)
C15_5 C 0.89328(19) 0.55315(17) 0.6270(4)
H11_5 H 0.8718 0.5403 0.5944
C16_5 C 0.92689(17) 0.52472(16) 0.6586(4)
H12_5 H 0.9278 0.4931 0.6464
C17_5 C 0.81051(16) 0.65730(18) 0.5075(3)
H13_5 H 0.8014 0.6535 0.4590
C18_5 C 0.84263(16) 0.62648(18) 0.5370(3)
H14_5 H 0.8551 0.6026 0.5085
C19_5 C 0.85606(14) 0.63154(16) 0.6094(3)
C20_5 C 0.83636(17) 0.66700(19) 0.6487(3)
H15_5 H 0.8448 0.6713 0.6974
C21_5 C 0.80405(17) 0.69644(18) 0.6168(3)
H16_5 H 0.7902 0.7197 0.6451
S1_6 S 0.47754(12) 0.43315(13) 0.42848(12)
F1_6 F 0.4714(5) 0.3584(6) 0.4959(9)
F2_6 F 0.4695(5) 0.3536(3) 0.3692(9)
F3_6 F 0.5377(4) 0.3734(7) 0.4211(6)
O1_6 O 0.49054(14) 0.45029(13) 0.35833(19)
O2_6 O 0.4258(3) 0.4388(6) 0.4375(7)
O3_6 O 0.4981(6) 0.4511(7) 0.4915(5)
N1_6 N 0.54180(11) 0.54169(12) 0.2934(2)
C1_6 C 0.54321(16) 0.58758(16) 0.2770(3)
H1_6 H 0.5213 0.5996 0.2444
C2_6 C 0.57607(17) 0.61748(16) 0.3070(3)
H2_6 H 0.5765 0.6490 0.2941
C3_6 C 0.60870(15) 0.59967(15) 0.3570(3)
C4_6 C 0.60672(19) 0.55315(17) 0.3730(4)
H3_6 H 0.6282 0.5403 0.4056
C5_6 C 0.57311(17) 0.52472(16) 0.3414(4)
H4_6 H 0.5722 0.4931 0.3536
C6_6 C 0.68949(16) 0.65730(18) 0.4925(3)
H5_6 H 0.6986 0.6535 0.5410
C7_6 C 0.65737(16) 0.62648(18) 0.4630(3)
H6_6 H 0.6449 0.6026 0.4915
C8_6 C 0.64394(14) 0.63154(16) 0.3906(3)
C9_6 C 0.66364(17) 0.66700(19) 0.3513(3)
H7_6 H 0.6552 0.6713 0.3026
C10_6 C 0.69595(17) 0.69644(18) 0.3832(3)
H8_6 H 0.7098 0.7197 0.3549
C11_6 C 0.4898(6) 0.3717(6) 0.4304(8)
S2_6 S 0.47754(12) 0.56685(13) 0.07152(12)
F4_6 F 0.4714(5) 0.6416(6) 0.0041(9)
F5_6 F 0.4695(5) 0.6464(3) 0.1308(9)
F6_6 F 0.5377(4) 0.6266(7) 0.0789(6)
O4_6 O 0.49054(14) 0.54971(13) 0.14167(19)
O5_6 O 0.4258(3) 0.5612(6) 0.0625(7)
O6_6 O 0.4981(6) 0.5489(7) 0.0085(5)
N3_6 N 0.54180(11) 0.45831(12) 0.2066(2)
C12_6 C 0.54321(16) 0.41242(16) 0.2230(3)
H9_6 H 0.5213 0.4004 0.2556
C13_6 C 0.57607(17) 0.38252(16) 0.1930(3)
H10_6 H 0.5765 0.3510 0.2059
C14_6 C 0.60870(15) 0.40033(15) 0.1430(3)
C15_6 C 0.60672(19) 0.44685(17) 0.1270(4)
H11_6 H 0.6282 0.4597 0.0944
C16_6 C 0.57311(17) 0.47528(16) 0.1586(4)
H12_6 H 0.5722 0.5069 0.1464
C17_6 C 0.68949(16) 0.34270(18) 0.0075(3)
C18_6 C 0.65737(16) 0.37352(18) 0.0370(3)
H14_6 H 0.6449 0.3974 0.0085
C19_6 C 0.64394(14) 0.36846(16) 0.1094(3)
C20_6 C 0.66364(17) 0.33300(19) 0.1487(3)
H15_6 H 0.6552 0.3287 0.1974
C21_6 C 0.69595(17) 0.30356(18) 0.1168(3)
H16_6 H 0.7098 0.2803 0.1451
C22_6 C 0.4898(6) 0.6283(6) 0.0696(8)
H13_6 H 0.6986 0.3465 0.9590
S1_7 S 0.52246(12) 0.06685(13) 0.42848(12)
F1_7 F 0.5286(5) 0.1416(6) 0.4959(9)
F2_7 F 0.5305(5) 0.1464(3) 0.3692(9)
F3_7 F 0.4623(4) 0.1266(7) 0.4211(6)
O1_7 O 0.50946(14) 0.04971(13) 0.35833(19)
O2_7 O 0.5742(3) 0.0612(6) 0.4375(7)
O3_7 O 0.5019(6) 0.0489(7) 0.4915(5)
H4_7 H 0.4278 0.0069 0.3536
C11_7 C 0.5102(6) 0.1283(6) 0.4304(8)
N3_7 N 0.45820(11) 0.04169(12) 0.2066(2)
C12_7 C 0.45679(16) 0.08758(16) 0.2230(3)
H9_7 H 0.4787 0.0996 0.2556
C13_7 C 0.42393(17) 0.11748(16) 0.1930(3)
H10_7 H 0.4235 0.1490 0.2059
C14_7 C 0.39130(15) 0.09967(15) 0.1430(3)
C15_7 C 0.39328(19) 0.05315(17) 0.1270(4)
H11_7 H 0.3718 0.0403 0.0944
C16_7 C 0.42689(17) 0.02472(16) 0.1586(4)
C17_7 C 0.31051(16) 0.15730(18) 0.0075(3)
C18_7 C 0.34263(16) 0.12648(18) 0.0370(3)
H14_7 H 0.3551 0.1026 0.0085
C19_7 C 0.35606(14) 0.13154(16) 0.1094(3)
C20_7 C 0.33636(17) 0.16700(19) 0.1487(3)
H15_7 H 0.3448 0.1713 0.1974
C21_7 C 0.30405(17) 0.19644(18) 0.1168(3)
H16_7 H 0.2902 0.2197 0.1451
H13_7 H 0.3014 0.1535 0.9590
N1_7 N 0.45820(11) 0.95831(12) 0.2934(2)
C1_7 C 0.45679(16) 0.91242(16) 0.2770(3)
H1_7 H 0.4787 0.9004 0.2444
C2_7 C 0.42393(17) 0.88252(16) 0.3070(3)
H2_7 H 0.4235 0.8510 0.2941
C3_7 C 0.39130(15) 0.90033(15) 0.3570(3)
C4_7 C 0.39328(19) 0.94685(17) 0.3730(4)
H3_7 H 0.3718 0.9597 0.4056
C5_7 C 0.42689(17) 0.97528(16) 0.3414(4)
C6_7 C 0.31051(16) 0.84270(18) 0.4925(3)
H5_7 H 0.3014 0.8465 0.5410
C7_7 C 0.34263(16) 0.87352(18) 0.4630(3)
H6_7 H 0.3551 0.8974 0.4915
C8_7 C 0.35606(14) 0.86846(16) 0.3906(3)
C9_7 C 0.33636(17) 0.83300(19) 0.3513(3)
H7_7 H 0.3448 0.8287 0.3026
C10_7 C 0.30405(17) 0.80356(18) 0.3832(3)
H8_7 H 0.2902 0.7803 0.3549
S2_7 S 0.52246(12) 0.93315(13) 0.07152(12)
F4_7 F 0.5286(5) 0.8584(6) 0.0041(9)
F5_7 F 0.5305(5) 0.8536(3) 0.1308(9)
F6_7 F 0.4623(4) 0.8734(7) 0.0789(6)
O4_7 O 0.50946(14) 0.95029(13) 0.14167(19)
O5_7 O 0.5742(3) 0.9388(6) 0.0625(7)
O6_7 O 0.5019(6) 0.9511(7) 0.0085(5)
H12_7 H 0.4278 0.9931 0.1464
C22_7 C 0.5102(6) 0.8717(6) 0.0696(8)
H5_8 H 0.1986 0.1535 0.0410
N1_8 N 0.04180(11) 0.04169(12) 0.7934(2)
C1_8 C 0.04321(16) 0.08758(16) 0.7770(3)
H1_8 H 0.0213 0.0996 0.7444
C2_8 C 0.07607(17) 0.11748(16) 0.8070(3)
H2_8 H 0.0765 0.1490 0.7941
C3_8 C 0.10870(15) 0.09967(15) 0.8570(3)
C4_8 C 0.10672(19) 0.05315(17) 0.8730(4)
H3_8 H 0.1282 0.0403 0.9056
C5_8 C 0.07311(17) 0.02472(16) 0.8414(4)
C6_8 C 0.18949(16) 0.15730(18) 0.9925(3)
C7_8 C 0.15737(16) 0.12648(18) 0.9630(3)
H6_8 H 0.1449 0.1026 0.9915
C8_8 C 0.14394(14) 0.13154(16) 0.8906(3)
C9_8 C 0.16364(17) 0.16700(19) 0.8513(3)
H7_8 H 0.1552 0.1713 0.8026
C10_8 C 0.19595(17) 0.19644(18) 0.8832(3)
H8_8 H 0.2098 0.2197 0.8549
F6_8 F 0.0377(4) 0.1266(7) 0.5789(6)
H12_8 H 0.0722 0.0069 0.6464
F3_8 F 0.0377(4) 0.8734(7) 0.9211(6)
H4_8 H 0.0722 0.9931 0.8536
N3_8 N 0.04180(11) 0.95831(12) 0.7066(2)
C12_8 C 0.04321(16) 0.91242(16) 0.7230(3)
H9_8 H 0.0213 0.9004 0.7556
C13_8 C 0.07607(17) 0.88252(16) 0.6930(3)
H10_8 H 0.0765 0.8510 0.7059
C14_8 C 0.10870(15) 0.90033(15) 0.6430(3)
C15_8 C 0.10672(19) 0.94685(17) 0.6270(4)
H11_8 H 0.1282 0.9597 0.5944
C16_8 C 0.07311(17) 0.97528(16) 0.6586(4)
C17_8 C 0.18949(16) 0.84270(18) 0.5075(3)
H13_8 H 0.1986 0.8465 0.4590
C18_8 C 0.15737(16) 0.87352(18) 0.5370(3)
H14_8 H 0.1449 0.8974 0.5085
C19_8 C 0.14394(14) 0.86846(16) 0.6094(3)
C20_8 C 0.16364(17) 0.83300(19) 0.6487(3)
H15_8 H 0.1552 0.8287 0.6974
C21_8 C 0.19595(17) 0.80356(18) 0.6168(3)
H16_8 H 0.2098 0.7803 0.6451
S2_8 S 0.97754(12) 0.06685(13) 0.57152(12)
F4_8 F 0.9714(5) 0.1416(6) 0.5041(9)
F5_8 F 0.9695(5) 0.1464(3) 0.6308(9)
O4_8 O 0.99054(14) 0.04971(13) 0.64167(19)
O5_8 O 0.9258(3) 0.0612(6) 0.5625(7)
O6_8 O 0.9981(6) 0.0489(7) 0.5085(5)
C22_8 C 0.9898(6) 0.1283(6) 0.5696(8)
S1_8 S 0.97754(12) 0.93315(13) 0.92848(12)
F1_8 F 0.9714(5) 0.8584(6) 0.9959(9)
F2_8 F 0.9695(5) 0.8536(3) 0.8692(9)
O1_8 O 0.99054(14) 0.95029(13) 0.85833(19)
O2_8 O 0.9258(3) 0.9388(6) 0.9375(7)
O3_8 O 0.9981(6) 0.9511(7) 0.9915(5)
C11_8 C 0.9898(6) 0.8717(6) 0.9304(8)
F3_9 F 0.0377(4) 0.3734(7) 0.0789(6)
N1_9 N 0.04180(11) 0.54169(12) 0.2066(2)
N2_5 N 0.20799(11) 0.69248(12) 0.0463(2)
C1_9 C 0.04321(16) 0.58758(16) 0.2230(3)
H1_9 H 0.0213 0.5996 0.2556
C2_9 C 0.07607(17) 0.61748(16) 0.1930(3)
H2_9 H 0.0765 0.6490 0.2059
C3_9 C 0.10870(15) 0.59967(15) 0.1430(3)
C4_9 C 0.10672(19) 0.55315(17) 0.1270(4)
H3_9 H 0.1282 0.5403 0.0944
C5_9 C 0.07311(17) 0.52472(16) 0.1586(4)
H4_9 H 0.0722 0.4931 0.1464
C6_9 C 0.18949(16) 0.65730(18) 0.0075(3)
C7_9 C 0.15737(16) 0.62648(18) 0.0370(3)
H6_9 H 0.1449 0.6026 0.0085
C8_9 C 0.14394(14) 0.63154(16) 0.1094(3)
C9_9 C 0.16364(17) 0.66700(19) 0.1487(3)
H7_9 H 0.1552 0.6713 0.1974
C10_9 C 0.19595(17) 0.69644(18) 0.1168(3)
H8_9 H 0.2098 0.7197 0.1451
Cu2_4 Cu 0.2500 0.74115(2) 0.0000
Cu3_4 Cu 0.2500 0.25885(2) 0.5000
F6_9 F 0.0377(4) 0.6266(7) 0.4211(6)
N3_9 N 0.04180(11) 0.45831(12) 0.2934(2)
N4_5 N 0.20799(11) 0.30752(12) 0.4537(2)
C12_9 C 0.04321(16) 0.41242(16) 0.2770(3)
H9_9 H 0.0213 0.4004 0.2444
C13_9 C 0.07607(17) 0.38252(16) 0.3070(3)
H10_9 H 0.0765 0.3510 0.2941
C14_9 C 0.10870(15) 0.40033(15) 0.3570(3)
C15_9 C 0.10672(19) 0.44685(17) 0.3730(4)
H11_9 H 0.1282 0.4597 0.4056
C16_9 C 0.07311(17) 0.47528(16) 0.3414(4)
H12_9 H 0.0722 0.5069 0.3536
C17_9 C 0.18949(16) 0.34270(18) 0.4925(3)
H13_9 H 0.1986 0.3465 0.5410
C18_9 C 0.15737(16) 0.37352(18) 0.4630(3)
H14_9 H 0.1449 0.3974 0.4915
C19_9 C 0.14394(14) 0.36846(16) 0.3906(3)
C20_9 C 0.16364(17) 0.33300(19) 0.3513(3)
H15_9 H 0.1552 0.3287 0.3026
C21_9 C 0.19595(17) 0.30356(18) 0.3832(3)
H16_9 H 0.2098 0.2803 0.3549
H5_9 H 0.1986 0.6535 0.9590
Cu2_5 Cu 0.2500 0.74115(2) 1.0000
Cu1_7 Cu 0.99115(2) 0.5000 0.2500
S1_9 S 0.97754(12) 0.43315(13) 0.07152(12)
F1_9 F 0.9714(5) 0.3584(6) 0.0041(9)
F2_9 F 0.9695(5) 0.3536(3) 0.1308(9)
O1_9 O 0.99054(14) 0.45029(13) 0.14167(19)
O2_9 O 0.9258(3) 0.4388(6) 0.0625(7)
O3_9 O 0.9981(6) 0.4511(7) 0.0085(5)
C11_9 C 0.9898(6) 0.3717(6) 0.0696(8)
S2_9 S 0.97754(12) 0.56685(13) 0.42848(12)
F4_9 F 0.9714(5) 0.6416(6) 0.4959(9)
F5_9 F 0.9695(5) 0.6464(3) 0.3692(9)
O4_9 O 0.99054(14) 0.54971(13) 0.35833(19)
O5_9 O 0.9258(3) 0.5612(6) 0.4375(7)
O6_9 O 0.9981(6) 0.5489(7) 0.4915(5)
N5_5 N 0.94248(12) 0.54201(11) 0.2037(2)
N6_5 N 0.94248(12) 0.45799(11) 0.2963(2)
C22_9 C 0.9898(6) 0.6283(6) 0.4304(8)
H13_10 H 0.3014 0.6535 0.0410
Cu1_8 Cu 0.50885(2) 0.5000 0.7500
S1_10 S 0.52246(12) 0.56685(13) 0.57152(12)
F1_10 F 0.5286(5) 0.6416(6) 0.5041(9)
F2_10 F 0.5305(5) 0.6464(3) 0.6308(9)
F3_10 F 0.4623(4) 0.6266(7) 0.5789(6)
O1_10 O 0.50946(14) 0.54971(13) 0.64167(19)
O2_10 O 0.5742(3) 0.5612(6) 0.5625(7)
O3_10 O 0.5019(6) 0.5489(7) 0.5085(5)
N1_10 N 0.45820(11) 0.45831(12) 0.7066(2)
N2_6 N 0.29201(11) 0.30752(12) 0.5463(2)
C1_10 C 0.45679(16) 0.41242(16) 0.7230(3)
H1_10 H 0.4787 0.4004 0.7556
C2_10 C 0.42393(17) 0.38252(16) 0.6930(3)
H2_10 H 0.4235 0.3510 0.7059
C3_10 C 0.39130(15) 0.40033(15) 0.6430(3)
C4_10 C 0.39328(19) 0.44685(17) 0.6270(4)
H3_10 H 0.3718 0.4597 0.5944
C5_10 C 0.42689(17) 0.47528(16) 0.6586(4)
H4_10 H 0.4278 0.5069 0.6464
C6_10 C 0.31051(16) 0.34270(18) 0.5075(3)
H5_10 H 0.3014 0.3465 0.4590
C7_10 C 0.34263(16) 0.37352(18) 0.5370(3)
H6_10 H 0.3551 0.3974 0.5085
C8_10 C 0.35606(14) 0.36846(16) 0.6094(3)
C9_10 C 0.33636(17) 0.33300(19) 0.6487(3)
H7_10 H 0.3448 0.3287 0.6974
C10_10 C 0.30405(17) 0.30356(18) 0.6168(3)
H8_10 H 0.2902 0.2803 0.6451
C11_10 C 0.5102(6) 0.6283(6) 0.5696(8)
S2_10 S 0.52246(12) 0.43315(13) 0.92848(12)
F4_10 F 0.5286(5) 0.3584(6) 0.9959(9)
F5_10 F 0.5305(5) 0.3536(3) 0.8692(9)
F6_10 F 0.4623(4) 0.3734(7) 0.9211(6)
O4_10 O 0.50946(14) 0.45029(13) 0.85833(19)
O5_10 O 0.5742(3) 0.4388(6) 0.9375(7)
O6_10 O 0.5019(6) 0.4511(7) 0.9915(5)
N3_10 N 0.45820(11) 0.54169(12) 0.7934(2)
N4_6 N 0.29201(11) 0.69248(12) 0.9537(2)
N5_6 N 0.55752(12) 0.45799(11) 0.7037(2)
N6_6 N 0.55752(12) 0.54201(11) 0.7963(2)
C12_10 C 0.45679(16) 0.58758(16) 0.7770(3)
H9_10 H 0.4787 0.5996 0.7444
C13_10 C 0.42393(17) 0.61748(16) 0.8070(3)
H10_10 H 0.4235 0.6490 0.7941
C14_10 C 0.39130(15) 0.59967(15) 0.8570(3)
C15_10 C 0.39328(19) 0.55315(17) 0.8730(4)
H11_10 H 0.3718 0.5403 0.9056
C16_10 C 0.42689(17) 0.52472(16) 0.8414(4)
H12_10 H 0.4278 0.4931 0.8536
C17_10 C 0.31051(16) 0.65730(18) 0.9925(3)
C18_10 C 0.34263(16) 0.62648(18) 0.9630(3)
H14_10 H 0.3551 0.6026 0.9915
C19_10 C 0.35606(14) 0.63154(16) 0.8906(3)
C20_10 C 0.33636(17) 0.66700(19) 0.8513(3)
H15_10 H 0.3448 0.6713 0.8026
C21_10 C 0.30405(17) 0.69644(18) 0.8832(3)
H16_10 H 0.2902 0.7197 0.8549
C22_10 C 0.5102(6) 0.3717(6) 0.9304(8)
Cu1_9 Cu 0.49115(2) 0.0000 0.7500
N1_11 N 0.54180(11) 0.04169(12) 0.7066(2)
N2_7 N 0.70799(11) 0.19248(12) 0.5463(2)
C1_11 C 0.54321(16) 0.08758(16) 0.7230(3)
H1_11 H 0.5213 0.0996 0.7556
C2_11 C 0.57607(17) 0.11748(16) 0.6930(3)
H2_11 H 0.5765 0.1490 0.7059
C3_11 C 0.60870(15) 0.09967(15) 0.6430(3)
C4_11 C 0.60672(19) 0.05315(17) 0.6270(4)
H3_11 H 0.6282 0.0403 0.5944
C5_11 C 0.57311(17) 0.02472(16) 0.6586(4)
C6_11 C 0.68949(16) 0.15730(18) 0.5075(3)
H5_11 H 0.6986 0.1535 0.4590
C7_11 C 0.65737(16) 0.12648(18) 0.5370(3)
H6_11 H 0.6449 0.1026 0.5085
C8_11 C 0.64394(14) 0.13154(16) 0.6094(3)
C9_11 C 0.66364(17) 0.16700(19) 0.6487(3)
H7_11 H 0.6552 0.1713 0.6974
C10_11 C 0.69595(17) 0.19644(18) 0.6168(3)
H8_11 H 0.7098 0.2197 0.6451
Cu2_6 Cu 0.7500 0.24115(2) 0.5000
S2_11 S 0.47754(12) 0.06685(13) 0.92848(12)
F4_11 F 0.4714(5) 0.1416(6) 0.9959(9)
F5_11 F 0.4695(5) 0.1464(3) 0.8692(9)
F6_11 F 0.5377(4) 0.1266(7) 0.9211(6)
O4_11 O 0.49054(14) 0.04971(13) 0.85833(19)
O5_11 O 0.4258(3) 0.0612(6) 0.9375(7)
O6_11 O 0.4981(6) 0.0489(7) 0.9915(5)
N5_7 N 0.44248(12) 0.04201(11) 0.7037(2)
H12_11 H 0.5722 0.0069 0.8536
C22_11 C 0.4898(6) 0.1283(6) 0.9304(8)
Cu3_5 Cu 0.7500 0.75885(2) 0.0000
H13_11 H 0.6986 0.8465 0.0410
Cu1_10 Cu 0.49115(2) 1.0000 0.7500
S1_11 S 0.47754(12) 0.93315(13) 0.57152(12)
F1_11 F 0.4714(5) 0.8584(6) 0.5041(9)
F2_11 F 0.4695(5) 0.8536(3) 0.6308(9)
F3_11 F 0.5377(4) 0.8734(7) 0.5789(6)
O1_11 O 0.49054(14) 0.95029(13) 0.64167(19)
O2_11 O 0.4258(3) 0.9388(6) 0.5625(7)
O3_11 O 0.4981(6) 0.9511(7) 0.5085(5)
H4_11 H 0.5722 0.9931 0.6464
C11_11 C 0.4898(6) 0.8717(6) 0.5696(8)
Cu3_6 Cu 0.7500 0.75885(2) 1.0000
N3_11 N 0.54180(11) 0.95831(12) 0.7934(2)
N4_7 N 0.70799(11) 0.80752(12) 0.9537(2)
N6_7 N 0.44248(12) 0.95799(11) 0.7963(2)
C12_11 C 0.54321(16) 0.91242(16) 0.7770(3)
H9_11 H 0.5213 0.9004 0.7444
C13_11 C 0.57607(17) 0.88252(16) 0.8070(3)
H10_11 H 0.5765 0.8510 0.7941
C14_11 C 0.60870(15) 0.90033(15) 0.8570(3)
C15_11 C 0.60672(19) 0.94685(17) 0.8730(4)
H11_11 H 0.6282 0.9597 0.9056
C16_11 C 0.57311(17) 0.97528(16) 0.8414(4)
C17_11 C 0.68949(16) 0.84270(18) 0.9925(3)
C18_11 C 0.65737(16) 0.87352(18) 0.9630(3)
H14_11 H 0.6449 0.8974 0.9915
C19_11 C 0.64394(14) 0.86846(16) 0.8906(3)
C20_11 C 0.66364(17) 0.83300(19) 0.8513(3)
H15_11 H 0.6552 0.8287 0.8026
C21_11 C 0.69595(17) 0.80356(18) 0.8832(3)
H16_11 H 0.7098 0.7803 0.8549
Cu1_11 Cu 0.00885(2) -0.0000 0.2500
S1_12 S 0.02246(12) 0.06685(13) 0.07152(12)
F1_12 F 0.0286(5) 0.1416(6) 0.0041(9)
F2_12 F 0.0305(5) 0.1464(3) 0.1308(9)
O1_12 O 0.00946(14) 0.04971(13) 0.14167(19)
O2_12 O 0.0742(3) 0.0612(6) 0.0625(7)
O3_12 O 0.0019(6) 0.0489(7) 0.0085(5)
C11_12 C 0.0102(6) 0.1283(6) 0.0696(8)
N6_8 N 0.05752(12) 0.04201(11) 0.2963(2)
Cu1_12 Cu 0.00885(2) 1.0000 0.2500
S2_12 S 0.02246(12) 0.93315(13) 0.42848(12)
F4_12 F 0.0286(5) 0.8584(6) 0.4959(9)
F5_12 F 0.0305(5) 0.8536(3) 0.3692(9)
O4_12 O 0.00946(14) 0.95029(13) 0.35833(19)
O5_12 O 0.0742(3) 0.9388(6) 0.4375(7)
O6_12 O 0.0019(6) 0.9511(7) 0.4915(5)
N5_8 N 0.05752(12) 0.95799(11) 0.2037(2)
C22_12 C 0.0102(6) 0.8717(6) 0.4304(8)
F3_12 F 0.9623(4) 0.1266(7) 0.0789(6)
H4_12 H 0.9278 0.0069 0.1464
N3_12 N 0.95820(11) 0.04169(12) 0.2934(2)
N4_8 N 0.79201(11) 0.19248(12) 0.4537(2)
C12_12 C 0.95679(16) 0.08758(16) 0.2770(3)
H9_12 H 0.9787 0.0996 0.2444
C13_12 C 0.92393(17) 0.11748(16) 0.3070(3)
H10_12 H 0.9235 0.1490 0.2941
C14_12 C 0.89130(15) 0.09967(15) 0.3570(3)
C15_12 C 0.89328(19) 0.05315(17) 0.3730(4)
H11_12 H 0.8718 0.0403 0.4056
C16_12 C 0.92689(17) 0.02472(16) 0.3414(4)
C17_12 C 0.81051(16) 0.15730(18) 0.4925(3)
H13_12 H 0.8014 0.1535 0.5410
C18_12 C 0.84263(16) 0.12648(18) 0.4630(3)
H14_12 H 0.8551 0.1026 0.4915
C19_12 C 0.85606(14) 0.13154(16) 0.3906(3)
C20_12 C 0.83636(17) 0.16700(19) 0.3513(3)
H15_12 H 0.8448 0.1713 0.3026
C21_12 C 0.80405(17) 0.19644(18) 0.3832(3)
H16_12 H 0.7902 0.2197 0.3549
N1_12 N 0.95820(11) 0.95831(12) 0.2066(2)
N2_8 N 0.79201(11) 0.80752(12) 0.0463(2)
C1_12 C 0.95679(16) 0.91242(16) 0.2230(3)
H1_12 H 0.9787 0.9004 0.2556
C2_12 C 0.92393(17) 0.88252(16) 0.1930(3)
H2_12 H 0.9235 0.8510 0.2059
C3_12 C 0.89130(15) 0.90033(15) 0.1430(3)
C4_12 C 0.89328(19) 0.94685(17) 0.1270(4)
H3_12 H 0.8718 0.9597 0.0944
C5_12 C 0.92689(17) 0.97528(16) 0.1586(4)
C6_12 C 0.81051(16) 0.84270(18) 0.0075(3)
C7_12 C 0.84263(16) 0.87352(18) 0.0370(3)
H6_12 H 0.8551 0.8974 0.0085
C8_12 C 0.85606(14) 0.86846(16) 0.1094(3)
C9_12 C 0.83636(17) 0.83300(19) 0.1487(3)
H7_12 H 0.8448 0.8287 0.1974
C10_12 C 0.80405(17) 0.80356(18) 0.1168(3)
H8_12 H 0.7902 0.7803 0.1451
F6_12 F 0.9623(4) 0.8734(7) 0.4211(6)
H12_12 H 0.9278 0.9931 0.3536
H5_12 H 0.8014 0.8465 0.9590
S1_13 S 0.31685(13) 0.72754(12) 0.17848(12)
F1_13 F 0.3916(6) 0.7214(5) 0.2459(9)
F2_13 F 0.3964(3) 0.7195(5) 0.1192(9)
F3_13 F 0.3766(7) 0.7877(4) 0.1711(6)
O1_13 O 0.29971(13) 0.74054(14) 0.10833(19)
O2_13 O 0.3112(6) 0.6758(3) 0.1875(7)
O3_13 O 0.2989(7) 0.7481(6) 0.2415(5)
N1_13 N 0.20831(12) 0.79180(11) 0.0434(2)
C1_13 C 0.16242(16) 0.79321(16) 0.0270(3)
C2_13 C 0.13252(16) 0.82607(17) 0.0570(3)
H2_13 H 0.1010 0.8265 0.0441
C3_13 C 0.15033(15) 0.85870(15) 0.1070(3)
C4_13 C 0.19685(17) 0.85672(19) 0.1230(4)
H3_13 H 0.2097 0.8782 0.1556
C5_13 C 0.22528(16) 0.82311(17) 0.0914(4)
H4_13 H 0.2569 0.8222 0.1036
C6_13 C 0.09270(18) 0.93949(16) 0.2425(3)
H5_13 H 0.0965 0.9486 0.2910
C7_13 C 0.12352(18) 0.90737(16) 0.2130(3)
H6_13 H 0.1474 0.8949 0.2415
C8_13 C 0.11846(16) 0.89394(14) 0.1406(3)
C9_13 C 0.08300(19) 0.91364(17) 0.1013(3)
H7_13 H 0.0787 0.9052 0.0526
C10_13 C 0.05356(18) 0.94595(17) 0.1332(3)
H8_13 H 0.0303 0.9598 0.1049
C11_13 C 0.3783(6) 0.7398(6) 0.1804(8)
H9_13 H 0.3496 0.7713 0.0056
H1_13 H 0.1504 0.7713 0.9944
S2_13 S 0.18315(13) 0.72754(12) 0.82152(12)
F4_13 F 0.1084(6) 0.7214(5) 0.7541(9)
F5_13 F 0.1036(3) 0.7195(5) 0.8808(9)
F6_13 F 0.1234(7) 0.7877(4) 0.8289(6)
O4_13 O 0.20029(13) 0.74054(14) 0.89167(19)
O5_13 O 0.1888(6) 0.6758(3) 0.8125(7)
O6_13 O 0.2011(7) 0.7481(6) 0.7585(5)
N3_13 N 0.29169(12) 0.79180(11) 0.9566(2)
C12_13 C 0.33758(16) 0.79321(16) 0.9730(3)
C13_13 C 0.36748(16) 0.82607(17) 0.9430(3)
H10_13 H 0.3990 0.8265 0.9559
C14_13 C 0.34967(15) 0.85870(15) 0.8930(3)
C15_13 C 0.30315(17) 0.85672(19) 0.8770(4)
H11_13 H 0.2903 0.8782 0.8444
C16_13 C 0.27472(16) 0.82311(17) 0.9086(4)
H12_13 H 0.2431 0.8222 0.8964
C17_13 C 0.40730(18) 0.93949(16) 0.7575(3)
H13_13 H 0.4035 0.9486 0.7090
C18_13 C 0.37648(18) 0.90737(16) 0.7870(3)
H14_13 H 0.3526 0.8949 0.7585
C19_13 C 0.38154(16) 0.89394(14) 0.8594(3)
C20_13 C 0.41700(19) 0.91364(17) 0.8987(3)
H15_13 H 0.4213 0.9052 0.9474
C21_13 C 0.44644(18) 0.94595(17) 0.8668(3)
H16_13 H 0.4697 0.9598 0.8951
C22_13 C 0.1217(6) 0.7398(6) 0.8196(8)
S1_14 S 0.18315(13) 0.27246(12) 0.67848(12)
F1_14 F 0.1084(6) 0.2786(5) 0.7459(9)
F2_14 F 0.1036(3) 0.2805(5) 0.6192(9)
F3_14 F 0.1234(7) 0.2123(4) 0.6711(6)
O1_14 O 0.20029(13) 0.25946(14) 0.60833(19)
O2_14 O 0.1888(6) 0.3242(3) 0.6875(7)
O3_14 O 0.2011(7) 0.2519(6) 0.7415(5)
N1_14 N 0.29169(12) 0.20820(11) 0.5434(2)
C1_14 C 0.33758(16) 0.20679(16) 0.5270(3)
H1_14 H 0.3496 0.2287 0.4944
C2_14 C 0.36748(16) 0.17393(17) 0.5570(3)
H2_14 H 0.3990 0.1735 0.5441
C3_14 C 0.34967(15) 0.14130(15) 0.6070(3)
C4_14 C 0.30315(17) 0.14328(19) 0.6230(4)
H3_14 H 0.2903 0.1218 0.6556
C5_14 C 0.27472(16) 0.17689(17) 0.5914(4)
H4_14 H 0.2431 0.1778 0.6036
C6_14 C 0.40730(18) 0.06051(16) 0.7425(3)
H5_14 H 0.4035 0.0514 0.7910
C7_14 C 0.37648(18) 0.09263(16) 0.7130(3)
H6_14 H 0.3526 0.1051 0.7415
C8_14 C 0.38154(16) 0.10606(14) 0.6406(3)
C9_14 C 0.41700(19) 0.08636(17) 0.6013(3)
H7_14 H 0.4213 0.0948 0.5526
C10_14 C 0.44644(18) 0.05405(17) 0.6332(3)
H8_14 H 0.4697 0.0402 0.6049
C11_14 C 0.1217(6) 0.2602(6) 0.6804(8)
S2_14 S 0.31685(13) 0.27246(12) 0.32152(12)
F4_14 F 0.3916(6) 0.2786(5) 0.2541(9)
F5_14 F 0.3964(3) 0.2805(5) 0.3808(9)
F6_14 F 0.3766(7) 0.2123(4) 0.3289(6)
O4_14 O 0.29971(13) 0.25946(14) 0.39167(19)
O5_14 O 0.3112(6) 0.3242(3) 0.3125(7)
O6_14 O 0.2989(7) 0.2519(6) 0.2585(5)
N3_14 N 0.20831(12) 0.20820(11) 0.4566(2)
C12_14 C 0.16242(16) 0.20679(16) 0.4730(3)
H9_14 H 0.1504 0.2287 0.5056
C13_14 C 0.13252(16) 0.17393(17) 0.4430(3)
H10_14 H 0.1010 0.1735 0.4559
C14_14 C 0.15033(15) 0.14130(15) 0.3930(3)
C15_14 C 0.19685(17) 0.14328(19) 0.3770(4)
H11_14 H 0.2097 0.1218 0.3444
C16_14 C 0.22528(16) 0.17689(17) 0.4086(4)
H12_14 H 0.2569 0.1778 0.3964
C17_14 C 0.09270(18) 0.06051(16) 0.2575(3)
H13_14 H 0.0965 0.0514 0.2090
C18_14 C 0.12352(18) 0.09263(16) 0.2870(3)
H14_14 H 0.1474 0.1051 0.2585
C19_14 C 0.11846(16) 0.10606(14) 0.3594(3)
C20_14 C 0.08300(19) 0.08636(17) 0.3987(3)
H15_14 H 0.0787 0.0948 0.4474
C21_14 C 0.05356(18) 0.05405(17) 0.3668(3)
H16_14 H 0.0303 0.0402 0.3951
C22_14 C 0.3783(6) 0.2602(6) 0.3196(8)
S1_15 S 0.81685(13) 0.22754(12) 0.67848(12)
F1_15 F 0.8916(6) 0.2214(5) 0.7459(9)
F2_15 F 0.8964(3) 0.2195(5) 0.6192(9)
F3_15 F 0.8766(7) 0.2877(4) 0.6711(6)
O1_15 O 0.79971(13) 0.24054(14) 0.60833(19)
O2_15 O 0.8112(6) 0.1758(3) 0.6875(7)
O3_15 O 0.7989(7) 0.2481(6) 0.7415(5)
N1_15 N 0.70831(12) 0.29180(11) 0.5434(2)
C1_15 C 0.66242(16) 0.29321(16) 0.5270(3)
H1_15 H 0.6504 0.2713 0.4944
C2_15 C 0.63252(16) 0.32607(17) 0.5570(3)
H2_15 H 0.6010 0.3265 0.5441
C3_15 C 0.65033(15) 0.35870(15) 0.6070(3)
C4_15 C 0.69685(17) 0.35672(19) 0.6230(4)
H3_15 H 0.7097 0.3782 0.6556
C5_15 C 0.72528(16) 0.32311(17) 0.5914(4)
H4_15 H 0.7569 0.3222 0.6036
C6_15 C 0.59270(18) 0.43949(16) 0.7425(3)
H5_15 H 0.5965 0.4486 0.7910
C7_15 C 0.62352(18) 0.40737(16) 0.7130(3)
H6_15 H 0.6474 0.3949 0.7415
C8_15 C 0.61846(16) 0.39394(14) 0.6406(3)
C9_15 C 0.58300(19) 0.41364(17) 0.6013(3)
H7_15 H 0.5787 0.4052 0.5526
C10_15 C 0.55356(18) 0.44595(17) 0.6332(3)
H8_15 H 0.5303 0.4598 0.6049
C11_15 C 0.8783(6) 0.2398(6) 0.6804(8)
S2_15 S 0.68315(13) 0.22754(12) 0.32152(12)
F4_15 F 0.6084(6) 0.2214(5) 0.2541(9)
F5_15 F 0.6036(3) 0.2195(5) 0.3808(9)
F6_15 F 0.6234(7) 0.2877(4) 0.3289(6)
O4_15 O 0.70029(13) 0.24054(14) 0.39167(19)
O5_15 O 0.6888(6) 0.1758(3) 0.3125(7)
O6_15 O 0.7011(7) 0.2481(6) 0.2585(5)
N3_15 N 0.79169(12) 0.29180(11) 0.4566(2)
C12_15 C 0.83758(16) 0.29321(16) 0.4730(3)
H9_15 H 0.8496 0.2713 0.5056
C13_15 C 0.86748(16) 0.32607(17) 0.4430(3)
H10_15 H 0.8990 0.3265 0.4559
C14_15 C 0.84967(15) 0.35870(15) 0.3930(3)
C15_15 C 0.80315(17) 0.35672(19) 0.3770(4)
H11_15 H 0.7903 0.3782 0.3444
C16_15 C 0.77472(16) 0.32311(17) 0.4086(4)
H12_15 H 0.7431 0.3222 0.3964
C17_15 C 0.90730(18) 0.43949(16) 0.2575(3)
H13_15 H 0.9035 0.4486 0.2090
C18_15 C 0.87648(18) 0.40737(16) 0.2870(3)
H14_15 H 0.8526 0.3949 0.2585
C19_15 C 0.88154(16) 0.39394(14) 0.3594(3)
C20_15 C 0.91700(19) 0.41364(17) 0.3987(3)
H15_15 H 0.9213 0.4052 0.4474
C21_15 C 0.94644(18) 0.44595(17) 0.3668(3)
H16_15 H 0.9697 0.4598 0.3951
C22_15 C 0.6217(6) 0.2398(6) 0.3196(8)
S1_16 S 0.68315(13) 0.77246(12) 0.17848(12)
F1_16 F 0.6084(6) 0.7786(5) 0.2459(9)
F2_16 F 0.6036(3) 0.7805(5) 0.1192(9)
F3_16 F 0.6234(7) 0.7123(4) 0.1711(6)
O1_16 O 0.70029(13) 0.75946(14) 0.10833(19)
O2_16 O 0.6888(6) 0.8242(3) 0.1875(7)
O3_16 O 0.7011(7) 0.7519(6) 0.2415(5)
N1_16 N 0.79169(12) 0.70820(11) 0.0434(2)
C1_16 C 0.83758(16) 0.70679(16) 0.0270(3)
C2_16 C 0.86748(16) 0.67393(17) 0.0570(3)
H2_16 H 0.8990 0.6735 0.0441
C3_16 C 0.84967(15) 0.64130(15) 0.1070(3)
C4_16 C 0.80315(17) 0.64328(19) 0.1230(4)
H3_16 H 0.7903 0.6218 0.1556
C5_16 C 0.77472(16) 0.67689(17) 0.0914(4)
H4_16 H 0.7431 0.6778 0.1036
C6_16 C 0.90730(18) 0.56051(16) 0.2425(3)
H5_16 H 0.9035 0.5514 0.2910
C7_16 C 0.87648(18) 0.59263(16) 0.2130(3)
H6_16 H 0.8526 0.6051 0.2415
C8_16 C 0.88154(16) 0.60606(14) 0.1406(3)
C9_16 C 0.91700(19) 0.58636(17) 0.1013(3)
H7_16 H 0.9213 0.5948 0.0526
C10_16 C 0.94644(18) 0.55405(17) 0.1332(3)
H8_16 H 0.9697 0.5402 0.1049
C11_16 C 0.6217(6) 0.7602(6) 0.1804(8)
H9_16 H 0.6504 0.7287 0.0056
H1_16 H 0.8496 0.7287 0.9944
S2_16 S 0.81685(13) 0.77246(12) 0.82152(12)
F4_16 F 0.8916(6) 0.7786(5) 0.7541(9)
F5_16 F 0.8964(3) 0.7805(5) 0.8808(9)
F6_16 F 0.8766(7) 0.7123(4) 0.8289(6)
O4_16 O 0.79971(13) 0.75946(14) 0.89167(19)
O5_16 O 0.8112(6) 0.8242(3) 0.8125(7)
O6_16 O 0.7989(7) 0.7519(6) 0.7585(5)
N3_16 N 0.70831(12) 0.70820(11) 0.9566(2)
C12_16 C 0.66242(16) 0.70679(16) 0.9730(3)
C13_16 C 0.63252(16) 0.67393(17) 0.9430(3)
H10_16 H 0.6010 0.6735 0.9559
C14_16 C 0.65033(15) 0.64130(15) 0.8930(3)
C15_16 C 0.69685(17) 0.64328(19) 0.8770(4)
H11_16 H 0.7097 0.6218 0.8444
C16_16 C 0.72528(16) 0.67689(17) 0.9086(4)
H12_16 H 0.7569 0.6778 0.8964
C17_16 C 0.59270(18) 0.56051(16) 0.7575(3)
H13_16 H 0.5965 0.5514 0.7090
C18_16 C 0.62352(18) 0.59263(16) 0.7870(3)
H14_16 H 0.6474 0.6051 0.7585
C19_16 C 0.61846(16) 0.60606(14) 0.8594(3)
C20_16 C 0.58300(19) 0.58636(17) 0.8987(3)
H15_16 H 0.5787 0.5948 0.9474
C21_16 C 0.55356(18) 0.55405(17) 0.8668(3)
H16_16 H 0.5303 0.5402 0.8951
C22_16 C 0.8783(6) 0.7602(6) 0.8196(8)
loop_
_geom_bond_atom_site_label_1
_geom_bond_atom_site_label_2
_geom_bond_site_symmetry_1
_geom_bond_site_symmetry_2
Cu3 N4 1_555 1_555
S2 O4 1_555 1_555
F4 C22 1_555 1_555
F5 C22 1_555 1_555
F6 C22 1_555 1_555
O4 Cu1 1_555 1_555
O5 S2 1_555 1_555
O6 S2 1_555 1_555
N3 Cu1 1_555 1_555
N4 C17 1_555 1_555
N6 Cu1 1_555 1_555
C12 N3 1_555 1_555
C13 C12 1_555 1_555
H10 C13 1_555 1_555
C14 C13 1_555 1_555
C15 C14 1_555 1_555
H11 C15 1_555 1_555
C16 N3 1_555 1_555
H12 C16 1_555 1_555
C17 H13 1_555 1_555
C18 C17 1_555 1_555
H14 C18 1_555 1_555
C19 C14 1_555 1_555
C20 C19 1_555 1_555
H15 C20 1_555 1_555
C21 N4 1_555 1_555
H16 C21 1_555 1_555
C22 S2 1_555 1_555
C15 C16 1_555 1_555
C18 C19 1_555 1_555
C20 C21 1_555 1_555
Cu1_2 O1 1_555 1_555
S1 O1 1_555 1_555
F1 C11 1_555 1_555
F2 C11 1_555 1_555
F3 C11 1_555 1_555
O2 S1 1_555 1_555
O3 S1 1_555 1_555
N1 Cu1_2 1_555 1_555
N2 C6 1_555 1_555
C1 N1 1_555 1_555
C2 C1 1_555 1_555
H2 C2 1_555 1_555
C3 C2 1_555 1_555
C4 C3 1_555 1_555
H3 C4 1_555 1_555
C5 N1 1_555 1_555
H4 C5 1_555 1_555
C6 H5 1_555 1_555
C7 C6 1_555 1_555
H6 C7 1_555 1_555
C8 C3 1_555 1_555
C9 C8 1_555 1_555
H7 C9 1_555 1_555
C10 N2 1_555 1_555
H8 C10 1_555 1_555
C11 S1 1_555 1_555
Cu2 N2 1_555 1_555
N5 Cu1_2 1_555 1_555
C4 C5 1_555 1_555
C7 C8 1_555 1_555
C9 C10 1_555 1_555
Cu1_3 O1_2 1_555 1_555
S1_2 O1_2 1_555 1_555
F1_2 C11_2 1_555 1_555
F2_2 C11_2 1_555 1_555
F3_2 C11_2 1_555 1_555
O2_2 S1_2 1_555 1_555
O3_2 S1_2 1_555 1_555
N1_2 Cu1_3 1_555 1_555
N2_2 C6_2 1_555 1_555
C1_2 N1_2 1_555 1_555
H1_2 C1_2 1_555 1_555
C2_2 C1_2 1_555 1_555
H2_2 C2_2 1_555 1_555
C3_2 C2_2 1_555 1_555
C4_2 C3_2 1_555 1_555
H3_2 C4_2 1_555 1_555
C5_2 N1_2 1_555 1_555
H4_2 C5_2 1_555 1_555
C6_2 H5_2 1_555 1_555
C7_2 C6_2 1_555 1_555
H6_2 C7_2 1_555 1_555
C8_2 C3_2 1_555 1_555
C9_2 C8_2 1_555 1_555
H7_2 C9_2 1_555 1_555
C10_2 N2_2 1_555 1_555
H8_2 C10_2 1_555 1_555
C11_2 S1_2 1_555 1_555
Cu3_2 N2_2 1_555 1_555
Cu2_2 N4_2 1_555 1_555
S2_2 O4_2 1_555 1_555
F4_2 C22_2 1_555 1_555
F5_2 C22_2 1_555 1_555
F6_2 C22_2 1_555 1_555
O4_2 Cu1_3 1_555 1_555
O5_2 S2_2 1_555 1_555
O6_2 S2_2 1_555 1_555
N3_2 Cu1_3 1_555 1_555
N4_2 C17_2 1_555 1_555
N5_2 Cu1_3 1_555 1_555
N6_2 Cu1_3 1_555 1_555
C12_2 N3_2 1_555 1_555
H9_2 C12_2 1_555 1_555
C13_2 C12_2 1_555 1_555
H10_2 C13_2 1_555 1_555
C14_2 C13_2 1_555 1_555
C15_2 C14_2 1_555 1_555
H11_2 C15_2 1_555 1_555
C16_2 N3_2 1_555 1_555
H12_2 C16_2 1_555 1_555
C17_2 H13_2 1_555 1_555
C18_2 C17_2 1_555 1_555
H14_2 C18_2 1_555 1_555
C19_2 C14_2 1_555 1_555
C20_2 C19_2 1_555 1_555
H15_2 C20_2 1_555 1_555
C21_2 N4_2 1_555 1_555
H16_2 C21_2 1_555 1_555
C22_2 S2_2 1_555 1_555
C4_2 C5_2 1_555 1_555
C7_2 C8_2 1_555 1_555
C9_2 C10_2 1_555 1_555
C15_2 C16_2 1_555 1_555
C18_2 C19_2 1_555 1_555
C20_2 C21_2 1_555 1_555
Cu1_4 O1_3 1_555 1_555
S1_3 O1_3 1_555 1_555
F1_3 C11_3 1_555 1_555
F2_3 C11_3 1_555 1_555
F3_3 C11_3 1_555 1_555
O2_3 S1_3 1_555 1_555
O3_3 S1_3 1_555 1_555
N1_3 Cu1_4 1_555 1_555
N2_3 C6_3 1_555 1_555
C1_3 N1_3 1_555 1_555
H1_3 C1_3 1_555 1_555
C2_3 C1_3 1_555 1_555
H2_3 C2_3 1_555 1_555
C3_3 C2_3 1_555 1_555
C4_3 C3_3 1_555 1_555
H3_3 C4_3 1_555 1_555
C5_3 N1_3 1_555 1_555
H4_3 C5_3 1_555 1_555
C6_3 H5_3 1_555 1_555
C7_3 C6_3 1_555 1_555
H6_3 C7_3 1_555 1_555
C8_3 C3_3 1_555 1_555
C9_3 C8_3 1_555 1_555
H7_3 C9_3 1_555 1_555
C10_3 N2_3 1_555 1_555
H8_3 C10_3 1_555 1_555
C11_3 S1_3 1_555 1_555
Cu2_3 N2_3 1_555 1_555
Cu3_3 N4_3 1_555 1_555
S2_3 O4_3 1_555 1_555
F4_3 C22_3 1_555 1_555
F5_3 C22_3 1_555 1_555
F6_3 C22_3 1_555 1_555
O4_3 Cu1_4 1_555 1_555
O5_3 S2_3 1_555 1_555
O6_3 S2_3 1_555 1_555
N3_3 Cu1_4 1_555 1_555
N4_3 C17_3 1_555 1_555
N5_3 Cu1_4 1_555 1_555
N6_3 Cu1_4 1_555 1_555
C12_3 N3_3 1_555 1_555
H9_3 C12_3 1_555 1_555
C13_3 C12_3 1_555 1_555
H10_3 C13_3 1_555 1_555
C14_3 C13_3 1_555 1_555
C15_3 C14_3 1_555 1_555
H11_3 C15_3 1_555 1_555
C16_3 N3_3 1_555 1_555
H12_3 C16_3 1_555 1_555
C17_3 H13_3 1_555 1_555
C18_3 C17_3 1_555 1_555
H14_3 C18_3 1_555 1_555
C19_3 C14_3 1_555 1_555
C20_3 C19_3 1_555 1_555
H15_3 C20_3 1_555 1_555
C21_3 N4_3 1_555 1_555
H16_3 C21_3 1_555 1_555
C22_3 S2_3 1_555 1_555
C4_3 C5_3 1_555 1_555
C7_3 C8_3 1_555 1_555
C9_3 C10_3 1_555 1_555
C15_3 C16_3 1_555 1_555
C18_3 C19_3 1_555 1_555
C20_3 C21_3 1_555 1_555
Cu2_3 N4_4 1_555 1_555
S2_4 O4_4 1_555 1_555
F4_4 C22_4 1_555 1_555
F5_4 C22_4 1_555 1_555
F6_4 C22_4 1_555 1_555
O4_4 Cu1_5 1_555 1_555
O5_4 S2_4 1_555 1_555
O6_4 S2_4 1_555 1_555
N3_4 Cu1_5 1_555 1_555
N4_4 C17_4 1_555 1_555
N6_4 Cu1_5 1_555 1_555
C12_4 N3_4 1_555 1_555
C13_4 C12_4 1_555 1_555
H10_4 C13_4 1_555 1_555
C14_4 C13_4 1_555 1_555
C15_4 C14_4 1_555 1_555
H11_4 C15_4 1_555 1_555
C16_4 N3_4 1_555 1_555
H12_4 C16_4 1_555 1_555
C17_4 H13_4 1_555 1_555
C18_4 C17_4 1_555 1_555
H14_4 C18_4 1_555 1_555
C19_4 C14_4 1_555 1_555
C20_4 C19_4 1_555 1_555
H15_4 C20_4 1_555 1_555
C21_4 N4_4 1_555 1_555
H16_4 C21_4 1_555 1_555
C22_4 S2_4 1_555 1_555
C15_4 C16_4 1_555 1_555
C18_4 C19_4 1_555 1_555
C20_4 C21_4 1_555 1_555
Cu1_6 O1_4 1_555 1_555
S1_4 O1_4 1_555 1_555
F1_4 C11_4 1_555 1_555
F2_4 C11_4 1_555 1_555
F3_4 C11_4 1_555 1_555
O2_4 S1_4 1_555 1_555
O3_4 S1_4 1_555 1_555
N1_4 Cu1_6 1_555 1_555
N2_4 C6_4 1_555 1_555
C1_4 N1_4 1_555 1_555
C2_4 C1_4 1_555 1_555
H2_4 C2_4 1_555 1_555
C3_4 C2_4 1_555 1_555
C4_4 C3_4 1_555 1_555
H3_4 C4_4 1_555 1_555
C5_4 N1_4 1_555 1_555
H4_4 C5_4 1_555 1_555
C6_4 H5_4 1_555 1_555
C7_4 C6_4 1_555 1_555
H6_4 C7_4 1_555 1_555
C8_4 C3_4 1_555 1_555
C9_4 C8_4 1_555 1_555
H7_4 C9_4 1_555 1_555
C10_4 N2_4 1_555 1_555
H8_4 C10_4 1_555 1_555
C11_4 S1_4 1_555 1_555
Cu3_3 N2_4 1_555 1_555
N5_4 Cu1_6 1_555 1_555
C4_4 C5_4 1_555 1_555
C7_4 C8_4 1_555 1_555
C9_4 C10_4 1_555 1_555
Cu3_3 O1_5 1_555 1_555
S1_5 O1_5 1_555 1_555
F1_5 C11_5 1_555 1_555
F2_5 C11_5 1_555 1_555
O2_5 S1_5 1_555 1_555
O3_5 S1_5 1_555 1_555
C11_5 S1_5 1_555 1_555
S2_5 O4_5 1_555 1_555
F4_5 C22_5 1_555 1_555
F5_5 C22_5 1_555 1_555
O4_5 Cu3_3 1_555 1_555
O5_5 S2_5 1_555 1_555
O6_5 S2_5 1_555 1_555
C22_5 S2_5 1_555 1_555
N5 C6_5 1_555 1_555
C1_5 N1_5 1_555 1_555
H1_5 C1_5 1_555 1_555
C2_5 C1_5 1_555 1_555
H2_5 C2_5 1_555 1_555
C3_5 C2_5 1_555 1_555
C4_5 C3_5 1_555 1_555
H3_5 C4_5 1_555 1_555
C5_5 N1_5 1_555 1_555
H4_5 C5_5 1_555 1_555
C7_5 C6_5 1_555 1_555
H6_5 C7_5 1_555 1_555
C8_5 C3_5 1_555 1_555
C9_5 C8_5 1_555 1_555
H7_5 C9_5 1_555 1_555
C10_5 N5 1_555 1_555
H8_5 C10_5 1_555 1_555
N6_2 C17_5 1_555 1_555
C12_5 N3_5 1_555 1_555
H9_5 C12_5 1_555 1_555
C13_5 C12_5 1_555 1_555
H10_5 C13_5 1_555 1_555
C14_5 C13_5 1_555 1_555
C15_5 C14_5 1_555 1_555
H11_5 C15_5 1_555 1_555
C16_5 N3_5 1_555 1_555
H12_5 C16_5 1_555 1_555
C17_5 H13_5 1_555 1_555
C18_5 C17_5 1_555 1_555
H14_5 C18_5 1_555 1_555
C19_5 C14_5 1_555 1_555
C20_5 C19_5 1_555 1_555
H15_5 C20_5 1_555 1_555
C21_5 N6_2 1_555 1_555
H16_5 C21_5 1_555 1_555
C4_5 C5_5 1_555 1_555
C7_5 C8_5 1_555 1_555
C9_5 C10_5 1_555 1_555
C15_5 C16_5 1_555 1_555
C18_5 C19_5 1_555 1_555
C20_5 C21_5 1_555 1_555
Cu2_3 O1_6 1_555 1_555
S1_6 O1_6 1_555 1_555
F1_6 C11_6 1_555 1_555
F2_6 C11_6 1_555 1_555
F3_6 C11_6 1_555 1_555
O2_6 S1_6 1_555 1_555
O3_6 S1_6 1_555 1_555
N1_6 Cu2_3 1_555 1_555
N5_2 C6_6 1_555 1_555
C1_6 N1_6 1_555 1_555
H1_6 C1_6 1_555 1_555
C2_6 C1_6 1_555 1_555
H2_6 C2_6 1_555 1_555
C3_6 C2_6 1_555 1_555
C4_6 C3_6 1_555 1_555
H3_6 C4_6 1_555 1_555
C5_6 N1_6 1_555 1_555
H4_6 C5_6 1_555 1_555
C6_6 H5_6 1_555 1_555
C7_6 C6_6 1_555 1_555
H6_6 C7_6 1_555 1_555
C8_6 C3_6 1_555 1_555
C9_6 C8_6 1_555 1_555
H7_6 C9_6 1_555 1_555
C10_6 N5_2 1_555 1_555
H8_6 C10_6 1_555 1_555
C11_6 S1_6 1_555 1_555
S2_6 O4_6 1_555 1_555
F4_6 C22_6 1_555 1_555
F5_6 C22_6 1_555 1_555
F6_6 C22_6 1_555 1_555
O4_6 Cu2_3 1_555 1_555
O5_6 S2_6 1_555 1_555
O6_6 S2_6 1_555 1_555
N3_6 Cu2_3 1_555 1_555
N6 C17_6 1_555 1_555
C12_6 N3_6 1_555 1_555
H9_6 C12_6 1_555 1_555
C13_6 C12_6 1_555 1_555
H10_6 C13_6 1_555 1_555
C14_6 C13_6 1_555 1_555
C15_6 C14_6 1_555 1_555
H11_6 C15_6 1_555 1_555
C16_6 N3_6 1_555 1_555
H12_6 C16_6 1_555 1_555
C18_6 C17_6 1_555 1_555
H14_6 C18_6 1_555 1_555
C19_6 C14_6 1_555 1_555
C20_6 C19_6 1_555 1_555
H15_6 C20_6 1_555 1_555
C21_6 N6 1_555 1_555
H16_6 C21_6 1_555 1_555
C22_6 S2_6 1_555 1_555
C4_6 C5_6 1_555 1_555
C7_6 C8_6 1_555 1_555
C9_6 C10_6 1_555 1_555
C15_6 C16_6 1_555 1_555
C18_6 C19_6 1_555 1_555
C20_6 C21_6 1_555 1_555
Cu3 O1_7 1_555 1_555
S1_7 O1_7 1_555 1_555
F1_7 C11_7 1_555 1_555
F2_7 C11_7 1_555 1_555
F3_7 C11_7 1_555 1_555
O2_7 S1_7 1_555 1_555
O3_7 S1_7 1_555 1_555
C11_7 S1_7 1_555 1_555
N3_7 Cu3 1_555 1_555
N6_4 C17_7 1_555 1_555
C12_7 N3_7 1_555 1_555
H9_7 C12_7 1_555 1_555
C13_7 C12_7 1_555 1_555
H10_7 C13_7 1_555 1_555
C14_7 C13_7 1_555 1_555
C15_7 C14_7 1_555 1_555
H11_7 C15_7 1_555 1_555
C16_7 N3_7 1_555 1_555
C18_7 C17_7 1_555 1_555
H14_7 C18_7 1_555 1_555
C19_7 C14_7 1_555 1_555
C20_7 C19_7 1_555 1_555
H15_7 C20_7 1_555 1_555
C21_7 N6_4 1_555 1_555
H16_7 C21_7 1_555 1_555
C15_7 C16_7 1_555 1_555
C18_7 C19_7 1_555 1_555
C20_7 C21_7 1_555 1_555
N1_7 Cu3_2 1_555 1_555
N5_3 C6_7 1_555 1_555
C1_7 N1_7 1_555 1_555
H1_7 C1_7 1_555 1_555
C2_7 C1_7 1_555 1_555
H2_7 C2_7 1_555 1_555
C3_7 C2_7 1_555 1_555
C4_7 C3_7 1_555 1_555
H3_7 C4_7 1_555 1_555
C5_7 N1_7 1_555 1_555
C6_7 H5_7 1_555 1_555
C7_7 C6_7 1_555 1_555
H6_7 C7_7 1_555 1_555
C8_7 C3_7 1_555 1_555
C9_7 C8_7 1_555 1_555
H7_7 C9_7 1_555 1_555
C10_7 N5_3 1_555 1_555
H8_7 C10_7 1_555 1_555
S2_7 O4_7 1_555 1_555
F4_7 C22_7 1_555 1_555
F5_7 C22_7 1_555 1_555
F6_7 C22_7 1_555 1_555
O4_7 Cu3_2 1_555 1_555
O5_7 S2_7 1_555 1_555
O6_7 S2_7 1_555 1_555
C22_7 S2_7 1_555 1_555
C4_7 C5_7 1_555 1_555
C7_7 C8_7 1_555 1_555
C9_7 C10_7 1_555 1_555
N5_4 C6_8 1_555 1_555
C1_8 N1_8 1_555 1_555
H1_8 C1_8 1_555 1_555
C2_8 C1_8 1_555 1_555
H2_8 C2_8 1_555 1_555
C3_8 C2_8 1_555 1_555
C4_8 C3_8 1_555 1_555
H3_8 C4_8 1_555 1_555
C5_8 N1_8 1_555 1_555
C7_8 C6_8 1_555 1_555
H6_8 C7_8 1_555 1_555
C8_8 C3_8 1_555 1_555
C9_8 C8_8 1_555 1_555
H7_8 C9_8 1_555 1_555
C10_8 N5_4 1_555 1_555
H8_8 C10_8 1_555 1_555
C4_8 C5_8 1_555 1_555
C7_8 C8_8 1_555 1_555
C9_8 C10_8 1_555 1_555
N6_3 C17_8 1_555 1_555
C12_8 N3_8 1_555 1_555
H9_8 C12_8 1_555 1_555
C13_8 C12_8 1_555 1_555
H10_8 C13_8 1_555 1_555
C14_8 C13_8 1_555 1_555
C15_8 C14_8 1_555 1_555
H11_8 C15_8 1_555 1_555
C16_8 N3_8 1_555 1_555
C17_8 H13_8 1_555 1_555
C18_8 C17_8 1_555 1_555
H14_8 C18_8 1_555 1_555
C19_8 C14_8 1_555 1_555
C20_8 C19_8 1_555 1_555
H15_8 C20_8 1_555 1_555
C21_8 N6_3 1_555 1_555
H16_8 C21_8 1_555 1_555
C15_8 C16_8 1_555 1_555
C18_8 C19_8 1_555 1_555
C20_8 C21_8 1_555 1_555
S2_8 O4_8 1_555 1_555
F4_8 C22_8 1_555 1_555
F5_8 C22_8 1_555 1_555
O4_8 Cu2 1_555 1_555
O5_8 S2_8 1_555 1_555
O6_8 S2_8 1_555 1_555
C22_8 S2_8 1_555 1_555
Cu2_2 O1_8 1_555 1_555
S1_8 O1_8 1_555 1_555
F1_8 C11_8 1_555 1_555
F2_8 C11_8 1_555 1_555
O2_8 S1_8 1_555 1_555
O3_8 S1_8 1_555 1_555
C11_8 S1_8 1_555 1_555
N2_5 C6_9 1_555 1_555
C1_9 N1_9 1_555 1_555
H1_9 C1_9 1_555 1_555
C2_9 C1_9 1_555 1_555
H2_9 C2_9 1_555 1_555
C3_9 C2_9 1_555 1_555
C4_9 C3_9 1_555 1_555
H3_9 C4_9 1_555 1_555
C5_9 N1_9 1_555 1_555
H4_9 C5_9 1_555 1_555
C7_9 C6_9 1_555 1_555
H6_9 C7_9 1_555 1_555
C8_9 C3_9 1_555 1_555
C9_9 C8_9 1_555 1_555
H7_9 C9_9 1_555 1_555
C10_9 N2_5 1_555 1_555
H8_9 C10_9 1_555 1_555
Cu2_4 N2_5 1_555 1_555
Cu3_4 N4_5 1_555 1_555
N4_5 C17_9 1_555 1_555
C12_9 N3_9 1_555 1_555
H9_9 C12_9 1_555 1_555
C13_9 C12_9 1_555 1_555
H10_9 C13_9 1_555 1_555
C14_9 C13_9 1_555 1_555
C15_9 C14_9 1_555 1_555
H11_9 C15_9 1_555 1_555
C16_9 N3_9 1_555 1_555
H12_9 C16_9 1_555 1_555
C17_9 H13_9 1_555 1_555
C18_9 C17_9 1_555 1_555
H14_9 C18_9 1_555 1_555
C19_9 C14_9 1_555 1_555
C20_9 C19_9 1_555 1_555
H15_9 C20_9 1_555 1_555
C21_9 N4_5 1_555 1_555
H16_9 C21_9 1_555 1_555
C4_9 C5_9 1_555 1_555
C7_9 C8_9 1_555 1_555
C9_9 C10_9 1_555 1_555
C15_9 C16_9 1_555 1_555
C18_9 C19_9 1_555 1_555
C20_9 C21_9 1_555 1_555
Cu1_7 O1_9 1_555 1_555
S1_9 O1_9 1_555 1_555
F1_9 C11_9 1_555 1_555
F2_9 C11_9 1_555 1_555
O2_9 S1_9 1_555 1_555
O3_9 S1_9 1_555 1_555
C11_9 S1_9 1_555 1_555
S2_9 O4_9 1_555 1_555
F4_9 C22_9 1_555 1_555
F5_9 C22_9 1_555 1_555
O4_9 Cu1_7 1_555 1_555
O5_9 S2_9 1_555 1_555
O6_9 S2_9 1_555 1_555
N5_5 Cu1_7 1_555 1_555
N6_5 Cu1_7 1_555 1_555
C22_9 S2_9 1_555 1_555
Cu1_8 O1_10 1_555 1_555
S1_10 O1_10 1_555 1_555
F1_10 C11_10 1_555 1_555
F2_10 C11_10 1_555 1_555
F3_10 C11_10 1_555 1_555
O2_10 S1_10 1_555 1_555
O3_10 S1_10 1_555 1_555
N1_10 Cu1_8 1_555 1_555
N2_6 C6_10 1_555 1_555
C1_10 N1_10 1_555 1_555
H1_10 C1_10 1_555 1_555
C2_10 C1_10 1_555 1_555
H2_10 C2_10 1_555 1_555
C3_10 C2_10 1_555 1_555
C4_10 C3_10 1_555 1_555
H3_10 C4_10 1_555 1_555
C5_10 N1_10 1_555 1_555
H4_10 C5_10 1_555 1_555
C6_10 H5_10 1_555 1_555
C7_10 C6_10 1_555 1_555
H6_10 C7_10 1_555 1_555
C8_10 C3_10 1_555 1_555
C9_10 C8_10 1_555 1_555
H7_10 C9_10 1_555 1_555
C10_10 N2_6 1_555 1_555
H8_10 C10_10 1_555 1_555
C11_10 S1_10 1_555 1_555
Cu3_4 N2_6 1_555 1_555
Cu2_5 N4_6 1_555 1_555
S2_10 O4_10 1_555 1_555
F4_10 C22_10 1_555 1_555
F5_10 C22_10 1_555 1_555
F6_10 C22_10 1_555 1_555
O4_10 Cu1_8 1_555 1_555
O5_10 S2_10 1_555 1_555
O6_10 S2_10 1_555 1_555
N3_10 Cu1_8 1_555 1_555
N4_6 C17_10 1_555 1_555
N5_6 Cu1_8 1_555 1_555
N6_6 Cu1_8 1_555 1_555
C12_10 N3_10 1_555 1_555
H9_10 C12_10 1_555 1_555
C13_10 C12_10 1_555 1_555
H10_10 C13_10 1_555 1_555
C14_10 C13_10 1_555 1_555
C15_10 C14_10 1_555 1_555
H11_10 C15_10 1_555 1_555
C16_10 N3_10 1_555 1_555
H12_10 C16_10 1_555 1_555
C18_10 C17_10 1_555 1_555
H14_10 C18_10 1_555 1_555
C19_10 C14_10 1_555 1_555
C20_10 C19_10 1_555 1_555
H15_10 C20_10 1_555 1_555
C21_10 N4_6 1_555 1_555
H16_10 C21_10 1_555 1_555
C22_10 S2_10 1_555 1_555
C4_10 C5_10 1_555 1_555
C7_10 C8_10 1_555 1_555
C9_10 C10_10 1_555 1_555
C15_10 C16_10 1_555 1_555
C18_10 C19_10 1_555 1_555
C20_10 C21_10 1_555 1_555
N1_11 Cu1_9 1_555 1_555
N2_7 C6_11 1_555 1_555
C1_11 N1_11 1_555 1_555
H1_11 C1_11 1_555 1_555
C2_11 C1_11 1_555 1_555
H2_11 C2_11 1_555 1_555
C3_11 C2_11 1_555 1_555
C4_11 C3_11 1_555 1_555
H3_11 C4_11 1_555 1_555
C5_11 N1_11 1_555 1_555
C6_11 H5_11 1_555 1_555
C7_11 C6_11 1_555 1_555
H6_11 C7_11 1_555 1_555
C8_11 C3_11 1_555 1_555
C9_11 C8_11 1_555 1_555
H7_11 C9_11 1_555 1_555
C10_11 N2_7 1_555 1_555
H8_11 C10_11 1_555 1_555
Cu2_6 N2_7 1_555 1_555
S2_11 O4_11 1_555 1_555
F4_11 C22_11 1_555 1_555
F5_11 C22_11 1_555 1_555
F6_11 C22_11 1_555 1_555
O4_11 Cu1_9 1_555 1_555
O5_11 S2_11 1_555 1_555
O6_11 S2_11 1_555 1_555
N5_7 Cu1_9 1_555 1_555
C22_11 S2_11 1_555 1_555
C4_11 C5_11 1_555 1_555
C7_11 C8_11 1_555 1_555
C9_11 C10_11 1_555 1_555
Cu1_10 O1_11 1_555 1_555
S1_11 O1_11 1_555 1_555
F1_11 C11_11 1_555 1_555
F2_11 C11_11 1_555 1_555
F3_11 C11_11 1_555 1_555
O2_11 S1_11 1_555 1_555
O3_11 S1_11 1_555 1_555
C11_11 S1_11 1_555 1_555
Cu3_6 N4_7 1_555 1_555
N3_11 Cu1_10 1_555 1_555
N4_7 C17_11 1_555 1_555
N6_7 Cu1_10 1_555 1_555
C12_11 N3_11 1_555 1_555
H9_11 C12_11 1_555 1_555
C13_11 C12_11 1_555 1_555
H10_11 C13_11 1_555 1_555
C14_11 C13_11 1_555 1_555
C15_11 C14_11 1_555 1_555
H11_11 C15_11 1_555 1_555
C16_11 N3_11 1_555 1_555
C18_11 C17_11 1_555 1_555
H14_11 C18_11 1_555 1_555
C19_11 C14_11 1_555 1_555
C20_11 C19_11 1_555 1_555
H15_11 C20_11 1_555 1_555
C21_11 N4_7 1_555 1_555
H16_11 C21_11 1_555 1_555
C15_11 C16_11 1_555 1_555
C18_11 C19_11 1_555 1_555
C20_11 C21_11 1_555 1_555
Cu1_11 O1_12 1_555 1_555
S1_12 O1_12 1_555 1_555
F1_12 C11_12 1_555 1_555
F2_12 C11_12 1_555 1_555
O2_12 S1_12 1_555 1_555
O3_12 S1_12 1_555 1_555
C11_12 S1_12 1_555 1_555
N6_8 Cu1_11 1_555 1_555
S2_12 O4_12 1_555 1_555
F4_12 C22_12 1_555 1_555
F5_12 C22_12 1_555 1_555
O4_12 Cu1_12 1_555 1_555
O5_12 S2_12 1_555 1_555
O6_12 S2_12 1_555 1_555
N5_8 Cu1_12 1_555 1_555
C22_12 S2_12 1_555 1_555
Cu2_6 N4_8 1_555 1_555
N4_8 C17_12 1_555 1_555
C12_12 N3_12 1_555 1_555
H9_12 C12_12 1_555 1_555
C13_12 C12_12 1_555 1_555
H10_12 C13_12 1_555 1_555
C14_12 C13_12 1_555 1_555
C15_12 C14_12 1_555 1_555
H11_12 C15_12 1_555 1_555
C16_12 N3_12 1_555 1_555
C17_12 H13_12 1_555 1_555
C18_12 C17_12 1_555 1_555
H14_12 C18_12 1_555 1_555
C19_12 C14_12 1_555 1_555
C20_12 C19_12 1_555 1_555
H15_12 C20_12 1_555 1_555
C21_12 N4_8 1_555 1_555
H16_12 C21_12 1_555 1_555
C15_12 C16_12 1_555 1_555
C18_12 C19_12 1_555 1_555
C20_12 C21_12 1_555 1_555
N2_8 C6_12 1_555 1_555
C1_12 N1_12 1_555 1_555
H1_12 C1_12 1_555 1_555
C2_12 C1_12 1_555 1_555
H2_12 C2_12 1_555 1_555
C3_12 C2_12 1_555 1_555
C4_12 C3_12 1_555 1_555
H3_12 C4_12 1_555 1_555
C5_12 N1_12 1_555 1_555
C7_12 C6_12 1_555 1_555
H6_12 C7_12 1_555 1_555
C8_12 C3_12 1_555 1_555
C9_12 C8_12 1_555 1_555
H7_12 C9_12 1_555 1_555
C10_12 N2_8 1_555 1_555
H8_12 C10_12 1_555 1_555
Cu3_5 N2_8 1_555 1_555
C4_12 C5_12 1_555 1_555
C7_12 C8_12 1_555 1_555
C9_12 C10_12 1_555 1_555
Cu2_4 O1_13 1_555 1_555
S1_13 O1_13 1_555 1_555
F1_13 C11_13 1_555 1_555
F2_13 C11_13 1_555 1_555
F3_13 C11_13 1_555 1_555
O2_13 S1_13 1_555 1_555
O3_13 S1_13 1_555 1_555
N1_13 Cu2_4 1_555 1_555
N5_8 C6_13 1_555 1_555
C1_13 N1_13 1_555 1_555
C2_13 C1_13 1_555 1_555
H2_13 C2_13 1_555 1_555
C3_13 C2_13 1_555 1_555
C4_13 C3_13 1_555 1_555
H3_13 C4_13 1_555 1_555
C5_13 N1_13 1_555 1_555
H4_13 C5_13 1_555 1_555
C6_13 H5_13 1_555 1_555
C7_13 C6_13 1_555 1_555
H6_13 C7_13 1_555 1_555
C8_13 C3_13 1_555 1_555
C9_13 C8_13 1_555 1_555
H7_13 C9_13 1_555 1_555
C10_13 N5_8 1_555 1_555
H8_13 C10_13 1_555 1_555
C11_13 S1_13 1_555 1_555
C4_13 C5_13 1_555 1_555
C7_13 C8_13 1_555 1_555
C9_13 C10_13 1_555 1_555
S2_13 O4_13 1_555 1_555
F4_13 C22_13 1_555 1_555
F5_13 C22_13 1_555 1_555
F6_13 C22_13 1_555 1_555
O4_13 Cu2_5 1_555 1_555
O5_13 S2_13 1_555 1_555
O6_13 S2_13 1_555 1_555
N3_13 Cu2_5 1_555 1_555
N6_7 C17_13 1_555 1_555
C12_13 N3_13 1_555 1_555
C13_13 C12_13 1_555 1_555
H10_13 C13_13 1_555 1_555
C14_13 C13_13 1_555 1_555
C15_13 C14_13 1_555 1_555
H11_13 C15_13 1_555 1_555
C16_13 N3_13 1_555 1_555
H12_13 C16_13 1_555 1_555
C17_13 H13_13 1_555 1_555
C18_13 C17_13 1_555 1_555
H14_13 C18_13 1_555 1_555
C19_13 C14_13 1_555 1_555
C20_13 C19_13 1_555 1_555
H15_13 C20_13 1_555 1_555
C21_13 N6_7 1_555 1_555
H16_13 C21_13 1_555 1_555
C22_13 S2_13 1_555 1_555
C15_13 C16_13 1_555 1_555
C18_13 C19_13 1_555 1_555
C20_13 C21_13 1_555 1_555
Cu3_4 O1_14 1_555 1_555
S1_14 O1_14 1_555 1_555
F1_14 C11_14 1_555 1_555
F2_14 C11_14 1_555 1_555
F3_14 C11_14 1_555 1_555
O2_14 S1_14 1_555 1_555
O3_14 S1_14 1_555 1_555
N1_14 Cu3_4 1_555 1_555
N5_7 C6_14 1_555 1_555
C1_14 N1_14 1_555 1_555
H1_14 C1_14 1_555 1_555
C2_14 C1_14 1_555 1_555
H2_14 C2_14 1_555 1_555
C3_14 C2_14 1_555 1_555
C4_14 C3_14 1_555 1_555
H3_14 C4_14 1_555 1_555
C5_14 N1_14 1_555 1_555
H4_14 C5_14 1_555 1_555
C6_14 H5_14 1_555 1_555
C7_14 C6_14 1_555 1_555
H6_14 C7_14 1_555 1_555
C8_14 C3_14 1_555 1_555
C9_14 C8_14 1_555 1_555
H7_14 C9_14 1_555 1_555
C10_14 N5_7 1_555 1_555
H8_14 C10_14 1_555 1_555
C11_14 S1_14 1_555 1_555
S2_14 O4_14 1_555 1_555
F4_14 C22_14 1_555 1_555
F5_14 C22_14 1_555 1_555
F6_14 C22_14 1_555 1_555
O4_14 Cu3_4 1_555 1_555
O5_14 S2_14 1_555 1_555
O6_14 S2_14 1_555 1_555
N3_14 Cu3_4 1_555 1_555
N6_8 C17_14 1_555 1_555
C12_14 N3_14 1_555 1_555
H9_14 C12_14 1_555 1_555
C13_14 C12_14 1_555 1_555
H10_14 C13_14 1_555 1_555
C14_14 C13_14 1_555 1_555
C15_14 C14_14 1_555 1_555
H11_14 C15_14 1_555 1_555
C16_14 N3_14 1_555 1_555
H12_14 C16_14 1_555 1_555
C17_14 H13_14 1_555 1_555
C18_14 C17_14 1_555 1_555
H14_14 C18_14 1_555 1_555
C19_14 C14_14 1_555 1_555
C20_14 C19_14 1_555 1_555
H15_14 C20_14 1_555 1_555
C21_14 N6_8 1_555 1_555
H16_14 C21_14 1_555 1_555
C22_14 S2_14 1_555 1_555
C4_14 C5_14 1_555 1_555
C7_14 C8_14 1_555 1_555
C9_14 C10_14 1_555 1_555
C15_14 C16_14 1_555 1_555
C18_14 C19_14 1_555 1_555
C20_14 C21_14 1_555 1_555
Cu2_6 O1_15 1_555 1_555
S1_15 O1_15 1_555 1_555
F1_15 C11_15 1_555 1_555
F2_15 C11_15 1_555 1_555
F3_15 C11_15 1_555 1_555
O2_15 S1_15 1_555 1_555
O3_15 S1_15 1_555 1_555
N1_15 Cu2_6 1_555 1_555
N5_6 C6_15 1_555 1_555
C1_15 N1_15 1_555 1_555
H1_15 C1_15 1_555 1_555
C2_15 C1_15 1_555 1_555
H2_15 C2_15 1_555 1_555
C3_15 C2_15 1_555 1_555
C4_15 C3_15 1_555 1_555
H3_15 C4_15 1_555 1_555
C5_15 N1_15 1_555 1_555
H4_15 C5_15 1_555 1_555
C6_15 H5_15 1_555 1_555
C7_15 C6_15 1_555 1_555
H6_15 C7_15 1_555 1_555
C8_15 C3_15 1_555 1_555
C9_15 C8_15 1_555 1_555
H7_15 C9_15 1_555 1_555
C10_15 N5_6 1_555 1_555
H8_15 C10_15 1_555 1_555
C11_15 S1_15 1_555 1_555
S2_15 O4_15 1_555 1_555
F4_15 C22_15 1_555 1_555
F5_15 C22_15 1_555 1_555
F6_15 C22_15 1_555 1_555
O4_15 Cu2_6 1_555 1_555
O5_15 S2_15 1_555 1_555
O6_15 S2_15 1_555 1_555
N3_15 Cu2_6 1_555 1_555
N6_5 C17_15 1_555 1_555
C12_15 N3_15 1_555 1_555
H9_15 C12_15 1_555 1_555
C13_15 C12_15 1_555 1_555
H10_15 C13_15 1_555 1_555
C14_15 C13_15 1_555 1_555
C15_15 C14_15 1_555 1_555
H11_15 C15_15 1_555 1_555
C16_15 N3_15 1_555 1_555
H12_15 C16_15 1_555 1_555
C17_15 H13_15 1_555 1_555
C18_15 C17_15 1_555 1_555
H14_15 C18_15 1_555 1_555
C19_15 C14_15 1_555 1_555
C20_15 C19_15 1_555 1_555
H15_15 C20_15 1_555 1_555
C21_15 N6_5 1_555 1_555
H16_15 C21_15 1_555 1_555
C22_15 S2_15 1_555 1_555
C4_15 C5_15 1_555 1_555
C7_15 C8_15 1_555 1_555
C9_15 C10_15 1_555 1_555
C15_15 C16_15 1_555 1_555
C18_15 C19_15 1_555 1_555
C20_15 C21_15 1_555 1_555
Cu3_5 O1_16 1_555 1_555
S1_16 O1_16 1_555 1_555
F1_16 C11_16 1_555 1_555
F2_16 C11_16 1_555 1_555
F3_16 C11_16 1_555 1_555
O2_16 S1_16 1_555 1_555
O3_16 S1_16 1_555 1_555
N1_16 Cu3_5 1_555 1_555
N5_5 C6_16 1_555 1_555
C1_16 N1_16 1_555 1_555
C2_16 C1_16 1_555 1_555
H2_16 C2_16 1_555 1_555
C3_16 C2_16 1_555 1_555
C4_16 C3_16 1_555 1_555
H3_16 C4_16 1_555 1_555
C5_16 N1_16 1_555 1_555
H4_16 C5_16 1_555 1_555
C6_16 H5_16 1_555 1_555
C7_16 C6_16 1_555 1_555
H6_16 C7_16 1_555 1_555
C8_16 C3_16 1_555 1_555
C9_16 C8_16 1_555 1_555
H7_16 C9_16 1_555 1_555
C10_16 N5_5 1_555 1_555
H8_16 C10_16 1_555 1_555
C11_16 S1_16 1_555 1_555
C4_16 C5_16 1_555 1_555
C7_16 C8_16 1_555 1_555
C9_16 C10_16 1_555 1_555
S2_16 O4_16 1_555 1_555
F4_16 C22_16 1_555 1_555
F5_16 C22_16 1_555 1_555
F6_16 C22_16 1_555 1_555
O4_16 Cu3_6 1_555 1_555
O5_16 S2_16 1_555 1_555
O6_16 S2_16 1_555 1_555
N3_16 Cu3_6 1_555 1_555
N6_6 C17_16 1_555 1_555
C12_16 N3_16 1_555 1_555
C13_16 C12_16 1_555 1_555
H10_16 C13_16 1_555 1_555
C14_16 C13_16 1_555 1_555
C15_16 C14_16 1_555 1_555
H11_16 C15_16 1_555 1_555
C16_16 N3_16 1_555 1_555
H12_16 C16_16 1_555 1_555
C17_16 H13_16 1_555 1_555
C18_16 C17_16 1_555 1_555
H14_16 C18_16 1_555 1_555
C19_16 C14_16 1_555 1_555
C20_16 C19_16 1_555 1_555
H15_16 C20_16 1_555 1_555
C21_16 N6_6 1_555 1_555
H16_16 C21_16 1_555 1_555
C22_16 S2_16 1_555 1_555
C15_16 C16_16 1_555 1_555
C18_16 C19_16 1_555 1_555
C20_16 C21_16 1_555 1_555

#END
