
###############################################################################
#
# This file contains modified crystal structure data generated from the
# MOF subset of the Cambridge Structural Database (CSD) v543 
# hosted by the Cambridge Crystallographic Data Centre (CCDC).
#
# This work is licensed under the Creative Commons
# Attribution-NonCommercial-ShareAlike 4.0 International License.
# To view a copy of this license, visit
# http://creativecommons.org/licenses/by-nc-sa/4.0/
# or send a letter to
# Creative Commons, PO Box 1866, Mountain View, CA 94042, USA.
#
# CIF created using the CSD Python API on 29 September 2022
# The structure has been converted into the P1 space group
# The structure has a 3D framework
# The original CSD entry UXUPEJ is in the tetragonal crystal system
# The framework has been calculated to contain at least 10.0% void space
# The void calculation uses a probe of radius 1.32A, grid spacing 0.4
#
###############################################################################

data_UXUPEJ
_chemical_formula_moiety         '(C352 H256 Cu24 F96 N64 O96 S32)n'
_symmetry_cell_setting           triclinic
_symmetry_space_group_name_H-M   'P 1'
_symmetry_Int_Tables_number      1
_space_group_name_Hall           'P 1'
loop_
_symmetry_equiv_pos_site_id
_symmetry_equiv_pos_as_xyz
1 x,y,z
_cell_length_a                   28.5955(13)
_cell_length_b                   28.5955(13)
_cell_length_c                   18.0782(8)
_cell_angle_alpha                90
_cell_angle_beta                 90
_cell_angle_gamma                90
_cell_volume                     14782.6
loop_
_atom_site_label
_atom_site_type_symbol
_atom_site_fract_x
_atom_site_fract_y
_atom_site_fract_z
Cu1 Cu 0.2500 0.23992(2) 0.5000
S1 S 0.18170(9) 0.22488(9) 0.67892(10)
F1 F 0.1219(6) 0.2873(4) 0.6752(7)
F2 F 0.1016(3) 0.2219(4) 0.6137(8)
F3 F 0.1006(4) 0.2189(4) 0.7347(7)
O1 O 0.19986(12) 0.24018(13) 0.60943(19)
O2 O 0.1973(5) 0.2467(4) 0.7434(4)
O3 O 0.1866(4) 0.1735(2) 0.6857(4)
N1 N 0.29142(12) 0.19094(11) 0.5467(2)
N2 N 0.45957(12) 0.04120(12) 0.7058(2)
C1 C 0.30308(18) 0.19409(16) 0.6182(3)
H1 H 0.2887 0.2167 0.6472
C2 C 0.33557(18) 0.16507(17) 0.6504(3)
H2 H 0.3435 0.1690 0.6999
C3 C 0.35623(15) 0.13039(14) 0.6097(3)
C4 C 0.34340(18) 0.12570(16) 0.5356(3)
H3 H 0.3563 0.1022 0.5065
C5 C 0.31101(18) 0.15683(16) 0.5062(3)
H4 H 0.3026 0.1539 0.4567
C6 C 0.42862(15) 0.02461(16) 0.6558(3)
C7 C 0.39517(16) 0.05231(18) 0.6238(3)
H6 H 0.3746 0.0396 0.5894
C8 C 0.39202(15) 0.09891(15) 0.6424(3)
C9 C 0.42418(16) 0.11587(16) 0.6934(3)
H7 H 0.4233 0.1471 0.7074
C10 C 0.45714(16) 0.08681(17) 0.7230(3)
H8 H 0.4787 0.0991 0.7563
C11 C 0.1198(5) 0.2400(6) 0.6760(8)
Cu2 Cu 0.51008(2) 0.0000 0.7500
S2 S 0.31830(9) 0.22488(9) 0.32108(10)
F4 F 0.3781(6) 0.2873(4) 0.3248(7)
F5 F 0.3984(3) 0.2219(4) 0.3863(8)
F6 F 0.3994(4) 0.2189(4) 0.2653(7)
O4 O 0.30014(12) 0.24018(13) 0.39057(19)
O5 O 0.3027(5) 0.2467(4) 0.2566(4)
O6 O 0.3134(4) 0.1735(2) 0.3143(4)
N3 N 0.20858(12) 0.19094(11) 0.4533(2)
N4 N 0.04043(12) 0.04120(12) 0.2942(2)
N5 N 0.29120(12) 0.29043(12) 0.5442(2)
N6 N 0.20880(12) 0.29043(12) 0.4558(2)
C12 C 0.19692(18) 0.19409(16) 0.3818(3)
H9 H 0.2113 0.2167 0.3528
C13 C 0.16443(18) 0.16507(17) 0.3496(3)
H10 H 0.1565 0.1690 0.3001
C14 C 0.14377(15) 0.13039(14) 0.3903(3)
C15 C 0.15660(18) 0.12570(16) 0.4644(3)
H11 H 0.1437 0.1022 0.4935
C16 C 0.18899(18) 0.15683(16) 0.4938(3)
H12 H 0.1974 0.1539 0.5433
C17 C 0.07138(15) 0.02461(16) 0.3442(3)
C18 C 0.10483(16) 0.05231(18) 0.3762(3)
H14 H 0.1254 0.0396 0.4106
C19 C 0.10798(15) 0.09891(15) 0.3576(3)
C20 C 0.07582(16) 0.11587(16) 0.3066(3)
H15 H 0.0767 0.1471 0.2926
C21 C 0.04286(16) 0.08681(17) 0.2770(3)
H16 H 0.0213 0.0991 0.2437
C22 C 0.3802(5) 0.2400(6) 0.3240(8)
H5 H 0.4301 0.9932 0.6427
Cu2_2 Cu 0.51008(2) 1.0000 0.7500
H13 H 0.0699 0.9932 0.3573
Cu3 Cu 0.98992(2) 0.0000 0.2500
Cu3_2 Cu 0.98992(2) 1.0000 0.2500
H13_2 H 0.4301 0.0068 0.8573
Cu1_2 Cu 0.2500 0.76008(2) 0.0000
S1_2 S 0.31830(9) 0.77512(9) 0.17892(10)
F1_2 F 0.3781(6) 0.7127(4) 0.1752(7)
F2_2 F 0.3984(3) 0.7781(4) 0.1137(8)
F3_2 F 0.3994(4) 0.7811(4) 0.2347(7)
O1_2 O 0.30014(12) 0.75982(13) 0.10943(19)
O2_2 O 0.3027(5) 0.7533(4) 0.2434(4)
O3_2 O 0.3134(4) 0.8265(2) 0.1857(4)
N1_2 N 0.20858(12) 0.80906(11) 0.0467(2)
N2_2 N 0.04043(12) 0.95880(12) 0.2058(2)
C1_2 C 0.19692(18) 0.80591(16) 0.1182(3)
H1_2 H 0.2113 0.7833 0.1472
C2_2 C 0.16443(18) 0.83493(17) 0.1504(3)
H2_2 H 0.1565 0.8310 0.1999
C3_2 C 0.14377(15) 0.86961(14) 0.1097(3)
C4_2 C 0.15660(18) 0.87430(16) 0.0356(3)
H3_2 H 0.1437 0.8978 0.0065
C5_2 C 0.18899(18) 0.84317(16) 0.0062(3)
C6_2 C 0.07138(15) 0.97539(16) 0.1558(3)
C7_2 C 0.10483(16) 0.94769(18) 0.1238(3)
H6_2 H 0.1254 0.9604 0.0894
C8_2 C 0.10798(15) 0.90109(15) 0.1424(3)
C9_2 C 0.07582(16) 0.88413(16) 0.1934(3)
H7_2 H 0.0767 0.8529 0.2074
C10_2 C 0.04286(16) 0.91319(17) 0.2230(3)
H8_2 H 0.0213 0.9009 0.2563
C11_2 C 0.3802(5) 0.7600(6) 0.1760(8)
N5_2 N 0.20880(12) 0.70957(12) 0.0442(2)
H12_2 H 0.3026 0.8461 0.0433
Cu1_3 Cu 0.2500 0.76008(2) 1.0000
H4_2 H 0.1974 0.8461 0.9567
S2_2 S 0.18170(9) 0.77512(9) 0.82108(10)
F4_2 F 0.1219(6) 0.7127(4) 0.8248(7)
F5_2 F 0.1016(3) 0.7781(4) 0.8863(8)
F6_2 F 0.1006(4) 0.7811(4) 0.7653(7)
O4_2 O 0.19986(12) 0.75982(13) 0.89057(19)
O5_2 O 0.1973(5) 0.7533(4) 0.7566(4)
O6_2 O 0.1866(4) 0.8265(2) 0.8143(4)
N3_2 N 0.29142(12) 0.80906(11) 0.9533(2)
N4_2 N 0.45957(12) 0.95880(12) 0.7942(2)
N6_2 N 0.29120(12) 0.70957(12) 0.9558(2)
C12_2 C 0.30308(18) 0.80591(16) 0.8818(3)
H9_2 H 0.2887 0.7833 0.8528
C13_2 C 0.33557(18) 0.83493(17) 0.8496(3)
H10_2 H 0.3435 0.8310 0.8001
C14_2 C 0.35623(15) 0.86961(14) 0.8903(3)
C15_2 C 0.34340(18) 0.87430(16) 0.9644(3)
H11_2 H 0.3563 0.8978 0.9935
C16_2 C 0.31101(18) 0.84317(16) 0.9938(3)
C17_2 C 0.42862(15) 0.97539(16) 0.8442(3)
C18_2 C 0.39517(16) 0.94769(18) 0.8762(3)
H14_2 H 0.3746 0.9604 0.9106
C19_2 C 0.39202(15) 0.90109(15) 0.8576(3)
C20_2 C 0.42418(16) 0.88413(16) 0.8066(3)
H15_2 H 0.4233 0.8529 0.7926
C21_2 C 0.45714(16) 0.91319(17) 0.7770(3)
H16_2 H 0.4787 0.9009 0.7437
C22_2 C 0.1198(5) 0.7600(6) 0.8240(8)
Cu2_3 Cu 0.01008(2) 0.5000 0.2500
Cu1_4 Cu 0.7500 0.73992(2) 0.0000
S1_3 S 0.68170(9) 0.72488(9) 0.17892(10)
F1_3 F 0.6219(6) 0.7873(4) 0.1752(7)
F2_3 F 0.6016(3) 0.7219(4) 0.1137(8)
F3_3 F 0.6006(4) 0.7189(4) 0.2347(7)
O1_3 O 0.69986(12) 0.74018(13) 0.10943(19)
O2_3 O 0.6973(5) 0.7467(4) 0.2434(4)
O3_3 O 0.6866(4) 0.6735(2) 0.1857(4)
N1_3 N 0.79142(12) 0.69094(11) 0.0467(2)
N2_3 N 0.95957(12) 0.54120(12) 0.2058(2)
C1_3 C 0.80308(18) 0.69409(16) 0.1182(3)
H1_3 H 0.7887 0.7167 0.1472
C2_3 C 0.83557(18) 0.66507(17) 0.1504(3)
H2_3 H 0.8435 0.6690 0.1999
C3_3 C 0.85623(15) 0.63039(14) 0.1097(3)
C4_3 C 0.84340(18) 0.62570(16) 0.0356(3)
H3_3 H 0.8563 0.6022 0.0065
C5_3 C 0.81101(18) 0.65683(16) 0.0062(3)
C6_3 C 0.92862(15) 0.52461(16) 0.1558(3)
H5_2 H 0.9301 0.4932 0.1427
C7_3 C 0.89517(16) 0.55231(18) 0.1238(3)
H6_3 H 0.8746 0.5396 0.0894
C8_3 C 0.89202(15) 0.59891(15) 0.1424(3)
C9_3 C 0.92418(16) 0.61587(16) 0.1934(3)
H7_3 H 0.9233 0.6471 0.2074
C10_3 C 0.95714(16) 0.58681(17) 0.2230(3)
H8_3 H 0.9787 0.5991 0.2563
C11_3 C 0.6198(5) 0.7400(6) 0.1760(8)
N5_3 N 0.79120(12) 0.79043(12) 0.0442(2)
H12_3 H 0.6974 0.6539 0.0433
Cu1_5 Cu 0.7500 0.73992(2) 1.0000
H4_3 H 0.8026 0.6539 0.9567
Cu3_3 Cu 0.48992(2) 0.5000 0.7500
S2_3 S 0.81830(9) 0.72488(9) 0.82108(10)
F4_3 F 0.8781(6) 0.7873(4) 0.8248(7)
F5_3 F 0.8984(3) 0.7219(4) 0.8863(8)
F6_3 F 0.8994(4) 0.7189(4) 0.7653(7)
O4_3 O 0.80014(12) 0.74018(13) 0.89057(19)
O5_3 O 0.8027(5) 0.7467(4) 0.7566(4)
O6_3 O 0.8134(4) 0.6735(2) 0.8143(4)
N3_3 N 0.70858(12) 0.69094(11) 0.9533(2)
N4_3 N 0.54043(12) 0.54120(12) 0.7942(2)
N6_3 N 0.70880(12) 0.79043(12) 0.9558(2)
C12_3 C 0.69692(18) 0.69409(16) 0.8818(3)
H9_3 H 0.7113 0.7167 0.8528
C13_3 C 0.66443(18) 0.66507(17) 0.8496(3)
H10_3 H 0.6565 0.6690 0.8001
C14_3 C 0.64377(15) 0.63039(14) 0.8903(3)
C15_3 C 0.65660(18) 0.62570(16) 0.9644(3)
H11_3 H 0.6437 0.6022 0.9935
C16_3 C 0.68899(18) 0.65683(16) 0.9938(3)
C17_3 C 0.57138(15) 0.52461(16) 0.8442(3)
H13_3 H 0.5699 0.4932 0.8573
C18_3 C 0.60483(16) 0.55231(18) 0.8762(3)
H14_3 H 0.6254 0.5396 0.9106
C19_3 C 0.60798(15) 0.59891(15) 0.8576(3)
C20_3 C 0.57582(16) 0.61587(16) 0.8066(3)
H15_3 H 0.5767 0.6471 0.7926
C21_3 C 0.54286(16) 0.58681(17) 0.7770(3)
H16_3 H 0.5213 0.5991 0.7437
C22_3 C 0.8802(5) 0.7400(6) 0.8240(8)
Cu1_6 Cu 0.7500 0.26008(2) 0.5000
S1_4 S 0.81830(9) 0.27512(9) 0.67892(10)
F1_4 F 0.8781(6) 0.2127(4) 0.6752(7)
F2_4 F 0.8984(3) 0.2781(4) 0.6137(8)
F3_4 F 0.8994(4) 0.2811(4) 0.7347(7)
O1_4 O 0.80014(12) 0.25982(13) 0.60943(19)
O2_4 O 0.8027(5) 0.2533(4) 0.7434(4)
O3_4 O 0.8134(4) 0.3265(2) 0.6857(4)
N1_4 N 0.70858(12) 0.30906(11) 0.5467(2)
N2_4 N 0.54043(12) 0.45880(12) 0.7058(2)
C1_4 C 0.69692(18) 0.30591(16) 0.6182(3)
H1_4 H 0.7113 0.2833 0.6472
C2_4 C 0.66443(18) 0.33493(17) 0.6504(3)
H2_4 H 0.6565 0.3310 0.6999
C3_4 C 0.64377(15) 0.36961(14) 0.6097(3)
C4_4 C 0.65660(18) 0.37430(16) 0.5356(3)
H3_4 H 0.6437 0.3978 0.5065
C5_4 C 0.68899(18) 0.34317(16) 0.5062(3)
H4_4 H 0.6974 0.3461 0.4567
C6_4 C 0.57138(15) 0.47539(16) 0.6558(3)
H5_3 H 0.5699 0.5068 0.6427
C7_4 C 0.60483(16) 0.44769(18) 0.6238(3)
H6_4 H 0.6254 0.4604 0.5894
C8_4 C 0.60798(15) 0.40109(15) 0.6424(3)
C9_4 C 0.57582(16) 0.38413(16) 0.6934(3)
H7_4 H 0.5767 0.3529 0.7074
C10_4 C 0.54286(16) 0.41319(17) 0.7230(3)
H8_4 H 0.5213 0.4009 0.7563
C11_4 C 0.8802(5) 0.2600(6) 0.6760(8)
S2_4 S 0.68170(9) 0.27512(9) 0.32108(10)
F4_4 F 0.6219(6) 0.2127(4) 0.3248(7)
F5_4 F 0.6016(3) 0.2781(4) 0.3863(8)
F6_4 F 0.6006(4) 0.2811(4) 0.2653(7)
O4_4 O 0.69986(12) 0.25982(13) 0.39057(19)
O5_4 O 0.6973(5) 0.2533(4) 0.2566(4)
O6_4 O 0.6866(4) 0.3265(2) 0.3143(4)
N3_4 N 0.79142(12) 0.30906(11) 0.4533(2)
N4_4 N 0.95957(12) 0.45880(12) 0.2942(2)
N5_4 N 0.70880(12) 0.20957(12) 0.5442(2)
N6_4 N 0.79120(12) 0.20957(12) 0.4558(2)
C12_4 C 0.80308(18) 0.30591(16) 0.3818(3)
H9_4 H 0.7887 0.2833 0.3528
C13_4 C 0.83557(18) 0.33493(17) 0.3496(3)
H10_4 H 0.8435 0.3310 0.3001
C14_4 C 0.85623(15) 0.36961(14) 0.3903(3)
C15_4 C 0.84340(18) 0.37430(16) 0.4644(3)
H11_4 H 0.8563 0.3978 0.4935
C16_4 C 0.81101(18) 0.34317(16) 0.4938(3)
H12_4 H 0.8026 0.3461 0.5433
C17_4 C 0.92862(15) 0.47539(16) 0.3442(3)
H13_4 H 0.9301 0.5068 0.3573
C18_4 C 0.89517(16) 0.44769(18) 0.3762(3)
H14_4 H 0.8746 0.4604 0.4106
C19_4 C 0.89202(15) 0.40109(15) 0.3576(3)
C20_4 C 0.92418(16) 0.38413(16) 0.3066(3)
H15_4 H 0.9233 0.3529 0.2926
C21_4 C 0.95714(16) 0.41319(17) 0.2770(3)
H16_4 H 0.9787 0.4009 0.2437
C22_4 C 0.6198(5) 0.2600(6) 0.3240(8)
F1_5 F 0.0373(4) 0.1281(6) 0.0748(7)
F4_5 F 0.0373(4) 0.8719(6) 0.4252(7)
S1_5 S 0.97488(9) 0.06830(9) 0.07108(10)
F2_5 F 0.9719(4) 0.1484(3) 0.1363(8)
F3_5 F 0.9689(4) 0.1494(4) 0.0153(7)
O1_5 O 0.99018(13) 0.05014(12) 0.14057(19)
O2_5 O 0.9967(4) 0.0527(5) 0.0066(4)
O3_5 O 0.9235(2) 0.0634(4) 0.0643(4)
C11_5 C 0.9900(6) 0.1302(5) 0.0740(8)
N3_5 N 0.94094(11) 0.04142(12) 0.2967(2)
C12_5 C 0.94409(16) 0.05308(18) 0.3682(3)
H9_5 H 0.9667 0.0387 0.3972
C13_5 C 0.91507(17) 0.08557(18) 0.4004(3)
H10_5 H 0.9190 0.0935 0.4499
C14_5 C 0.88039(14) 0.10623(15) 0.3597(3)
C15_5 C 0.87570(16) 0.09340(18) 0.2856(3)
H11_5 H 0.8522 0.1063 0.2565
C16_5 C 0.90683(16) 0.06101(18) 0.2562(3)
H12_5 H 0.9039 0.0526 0.2067
C17_5 C 0.77461(16) 0.17862(15) 0.4058(3)
H13_5 H 0.7432 0.1801 0.3927
C18_5 C 0.80231(18) 0.14517(16) 0.3738(3)
H14_5 H 0.7896 0.1246 0.3394
C19_5 C 0.84891(15) 0.14202(15) 0.3924(3)
C20_5 C 0.86587(16) 0.17418(16) 0.4434(3)
H15_5 H 0.8971 0.1733 0.4574
C21_5 C 0.83681(17) 0.20714(16) 0.4730(3)
H16_5 H 0.8491 0.2287 0.5063
N1_5 N 0.94094(11) 0.95858(12) 0.2033(2)
C1_5 C 0.94409(16) 0.94692(18) 0.1318(3)
H1_5 H 0.9667 0.9613 0.1028
C2_5 C 0.91507(17) 0.91443(18) 0.0996(3)
H2_5 H 0.9190 0.9065 0.0501
C3_5 C 0.88039(14) 0.89377(15) 0.1403(3)
C4_5 C 0.87570(16) 0.90660(18) 0.2144(3)
H3_5 H 0.8522 0.8937 0.2435
C5_5 C 0.90683(16) 0.93899(18) 0.2438(3)
H4_5 H 0.9039 0.9474 0.2933
C6_5 C 0.77461(16) 0.82138(15) 0.0942(3)
H5_4 H 0.7432 0.8199 0.1073
C7_5 C 0.80231(18) 0.85483(16) 0.1262(3)
H6_5 H 0.7896 0.8754 0.1606
C8_5 C 0.84891(15) 0.85798(15) 0.1076(3)
C9_5 C 0.86587(16) 0.82582(16) 0.0566(3)
H7_5 H 0.8971 0.8267 0.0426
C10_5 C 0.83681(17) 0.79286(16) 0.0270(3)
S2_5 S 0.97488(9) 0.93170(9) 0.42892(10)
F5_5 F 0.9719(4) 0.8516(3) 0.3637(8)
F6_5 F 0.9689(4) 0.8506(4) 0.4847(7)
O4_5 O 0.99018(13) 0.94986(12) 0.35943(19)
O5_5 O 0.9967(4) 0.9473(5) 0.4934(4)
O6_5 O 0.9235(2) 0.9366(4) 0.4357(4)
C22_5 C 0.9900(6) 0.8698(5) 0.4260(8)
H8_5 H 0.8491 0.7713 0.9937
N1_6 N 0.55906(11) 0.04142(12) 0.7033(2)
C1_6 C 0.55591(16) 0.05308(18) 0.6318(3)
H1_6 H 0.5333 0.0387 0.6028
C2_6 C 0.58493(17) 0.08557(18) 0.5996(3)
H2_6 H 0.5810 0.0935 0.5501
C3_6 C 0.61961(14) 0.10623(15) 0.6403(3)
C4_6 C 0.62430(16) 0.09340(18) 0.7144(3)
H3_6 H 0.6478 0.1063 0.7435
C5_6 C 0.59317(16) 0.06101(18) 0.7438(3)
H4_6 H 0.5961 0.0526 0.7933
C6_6 C 0.72539(16) 0.17862(15) 0.5942(3)
H5_5 H 0.7568 0.1801 0.6073
C7_6 C 0.69769(18) 0.14517(16) 0.6262(3)
H6_6 H 0.7104 0.1246 0.6606
C8_6 C 0.65109(15) 0.14202(15) 0.6076(3)
C9_6 C 0.63413(16) 0.17418(16) 0.5566(3)
H7_6 H 0.6029 0.1733 0.5426
C10_6 C 0.66319(17) 0.20714(16) 0.5270(3)
H8_6 H 0.6509 0.2287 0.4937
S2_6 S 0.52512(9) 0.06830(9) 0.92892(10)
F4_6 F 0.4627(4) 0.1281(6) 0.9252(7)
F5_6 F 0.5281(4) 0.1484(3) 0.8637(8)
F6_6 F 0.5311(4) 0.1494(4) 0.9847(7)
O4_6 O 0.50982(13) 0.05014(12) 0.85943(19)
O5_6 O 0.5033(4) 0.0527(5) 0.9934(4)
O6_6 O 0.5765(2) 0.0634(4) 0.9357(4)
C22_6 C 0.5100(6) 0.1302(5) 0.9260(8)
H16_6 H 0.6509 0.7713 0.0063
S1_6 S 0.52512(9) 0.93170(9) 0.57108(10)
F1_6 F 0.4627(4) 0.8719(6) 0.5748(7)
F2_6 F 0.5281(4) 0.8516(3) 0.6363(8)
F3_6 F 0.5311(4) 0.8506(4) 0.5153(7)
O1_6 O 0.50982(13) 0.94986(12) 0.64057(19)
O2_6 O 0.5033(4) 0.9473(5) 0.5066(4)
O3_6 O 0.5765(2) 0.9366(4) 0.5643(4)
C11_6 C 0.5100(6) 0.8698(5) 0.5740(8)
N3_6 N 0.55906(11) 0.95858(12) 0.7967(2)
C12_6 C 0.55591(16) 0.94692(18) 0.8682(3)
H9_6 H 0.5333 0.9613 0.8972
C13_6 C 0.58493(17) 0.91443(18) 0.9004(3)
H10_6 H 0.5810 0.9065 0.9499
C14_6 C 0.61961(14) 0.89377(15) 0.8597(3)
C15_6 C 0.62430(16) 0.90660(18) 0.7856(3)
H11_6 H 0.6478 0.8937 0.7565
C16_6 C 0.59317(16) 0.93899(18) 0.7562(3)
H12_6 H 0.5961 0.9474 0.7067
C17_6 C 0.72539(16) 0.82138(15) 0.9058(3)
H13_6 H 0.7568 0.8199 0.8927
C18_6 C 0.69769(18) 0.85483(16) 0.8738(3)
H14_6 H 0.7104 0.8754 0.8394
C19_6 C 0.65109(15) 0.85798(15) 0.8924(3)
C20_6 C 0.63413(16) 0.82582(16) 0.9434(3)
H15_6 H 0.6029 0.8267 0.9574
C21_6 C 0.66319(17) 0.79286(16) 0.9730(3)
H16_7 H 0.3491 0.7287 0.0063
S1_7 S 0.47488(9) 0.56830(9) 0.57108(10)
F1_7 F 0.5373(4) 0.6281(6) 0.5748(7)
F2_7 F 0.4719(4) 0.6484(3) 0.6363(8)
F3_7 F 0.4689(4) 0.6494(4) 0.5153(7)
O1_7 O 0.49018(13) 0.55014(12) 0.64057(19)
O2_7 O 0.4967(4) 0.5527(5) 0.5066(4)
O3_7 O 0.4235(2) 0.5634(4) 0.5643(4)
N1_7 N 0.44094(11) 0.45858(12) 0.7033(2)
C1_7 C 0.44409(16) 0.44692(18) 0.6318(3)
H1_7 H 0.4667 0.4613 0.6028
C2_7 C 0.41507(17) 0.41443(18) 0.5996(3)
H2_7 H 0.4190 0.4065 0.5501
C3_7 C 0.38039(14) 0.39377(15) 0.6403(3)
C4_7 C 0.37570(16) 0.40660(18) 0.7144(3)
H3_7 H 0.3522 0.3937 0.7435
C5_7 C 0.40683(16) 0.43899(18) 0.7438(3)
H4_7 H 0.4039 0.4474 0.7933
C6_7 C 0.27461(16) 0.32138(15) 0.5942(3)
H5_6 H 0.2432 0.3199 0.6073
C7_7 C 0.30231(18) 0.35483(16) 0.6262(3)
H6_7 H 0.2896 0.3754 0.6606
C8_7 C 0.34891(15) 0.35798(15) 0.6076(3)
C9_7 C 0.36587(16) 0.32582(16) 0.5566(3)
H7_7 H 0.3971 0.3267 0.5426
C10_7 C 0.33681(17) 0.29286(16) 0.5270(3)
H8_7 H 0.3491 0.2713 0.4937
C11_7 C 0.4900(6) 0.6302(5) 0.5740(8)
S2_7 S 0.47488(9) 0.43170(9) 0.92892(10)
F4_7 F 0.5373(4) 0.3719(6) 0.9252(7)
F5_7 F 0.4719(4) 0.3516(3) 0.8637(8)
F6_7 F 0.4689(4) 0.3506(4) 0.9847(7)
O4_7 O 0.49018(13) 0.44986(12) 0.85943(19)
O5_7 O 0.4967(4) 0.4473(5) 0.9934(4)
O6_7 O 0.4235(2) 0.4366(4) 0.9357(4)
N3_7 N 0.44094(11) 0.54142(12) 0.7967(2)
C12_7 C 0.44409(16) 0.55308(18) 0.8682(3)
H9_7 H 0.4667 0.5387 0.8972
C13_7 C 0.41507(17) 0.58557(18) 0.9004(3)
H10_7 H 0.4190 0.5935 0.9499
C14_7 C 0.38039(14) 0.60623(15) 0.8597(3)
C15_7 C 0.37570(16) 0.59340(18) 0.7856(3)
H11_7 H 0.3522 0.6063 0.7565
C16_7 C 0.40683(16) 0.56101(18) 0.7562(3)
H12_7 H 0.4039 0.5526 0.7067
C17_7 C 0.27461(16) 0.67862(15) 0.9058(3)
H13_7 H 0.2432 0.6801 0.8927
C18_7 C 0.30231(18) 0.64517(16) 0.8738(3)
H14_7 H 0.2896 0.6246 0.8394
C19_7 C 0.34891(15) 0.64202(15) 0.8924(3)
C20_7 C 0.36587(16) 0.67418(16) 0.9434(3)
H15_7 H 0.3971 0.6733 0.9574
C21_7 C 0.33681(17) 0.70714(16) 0.9730(3)
C22_7 C 0.4900(6) 0.3698(5) 0.9260(8)
S1_8 S 0.02512(9) 0.43170(9) 0.07108(10)
F2_8 F 0.0281(4) 0.3516(3) 0.1363(8)
F3_8 F 0.0311(4) 0.3506(4) 0.0153(7)
O1_8 O 0.00982(13) 0.44986(12) 0.14057(19)
O2_8 O 0.0033(4) 0.4473(5) 0.0066(4)
O3_8 O 0.0765(2) 0.4366(4) 0.0643(4)
N1_8 N 0.05906(11) 0.54142(12) 0.2033(2)
C1_8 C 0.05591(16) 0.55308(18) 0.1318(3)
H1_8 H 0.0333 0.5387 0.1028
C2_8 C 0.08493(17) 0.58557(18) 0.0996(3)
H2_8 H 0.0810 0.5935 0.0501
C3_8 C 0.11961(14) 0.60623(15) 0.1403(3)
C4_8 C 0.12430(16) 0.59340(18) 0.2144(3)
H3_8 H 0.1478 0.6063 0.2435
C5_8 C 0.09317(16) 0.56101(18) 0.2438(3)
H4_8 H 0.0961 0.5526 0.2933
C6_8 C 0.22539(16) 0.67862(15) 0.0942(3)
H5_7 H 0.2568 0.6801 0.1073
C7_8 C 0.19769(18) 0.64517(16) 0.1262(3)
H6_8 H 0.2104 0.6246 0.1606
C8_8 C 0.15109(15) 0.64202(15) 0.1076(3)
C9_8 C 0.13413(16) 0.67418(16) 0.0566(3)
H7_8 H 0.1029 0.6733 0.0426
C10_8 C 0.16319(17) 0.70714(16) 0.0270(3)
C11_8 C 0.0100(6) 0.3698(5) 0.0740(8)
S2_8 S 0.02512(9) 0.56830(9) 0.42892(10)
F5_8 F 0.0281(4) 0.6484(3) 0.3637(8)
F6_8 F 0.0311(4) 0.6494(4) 0.4847(7)
O4_8 O 0.00982(13) 0.55014(12) 0.35943(19)
O5_8 O 0.0033(4) 0.5527(5) 0.4934(4)
O6_8 O 0.0765(2) 0.5634(4) 0.4357(4)
N3_8 N 0.05906(11) 0.45858(12) 0.2967(2)
C12_8 C 0.05591(16) 0.44692(18) 0.3682(3)
H9_8 H 0.0333 0.4613 0.3972
C13_8 C 0.08493(17) 0.41443(18) 0.4004(3)
H10_8 H 0.0810 0.4065 0.4499
C14_8 C 0.11961(14) 0.39377(15) 0.3597(3)
C15_8 C 0.12430(16) 0.40660(18) 0.2856(3)
H11_8 H 0.1478 0.3937 0.2565
C16_8 C 0.09317(16) 0.43899(18) 0.2562(3)
H12_8 H 0.0961 0.4474 0.2067
C17_8 C 0.22539(16) 0.32138(15) 0.4058(3)
H13_8 H 0.2568 0.3199 0.3927
C18_8 C 0.19769(18) 0.35483(16) 0.3738(3)
H14_8 H 0.2104 0.3754 0.3394
C19_8 C 0.15109(15) 0.35798(15) 0.3924(3)
C20_8 C 0.13413(16) 0.32582(16) 0.4434(3)
H15_8 H 0.1029 0.3267 0.4574
C21_8 C 0.16319(17) 0.29286(16) 0.4730(3)
H16_8 H 0.1509 0.2713 0.5063
C22_8 C 0.0100(6) 0.6302(5) 0.4260(8)
H8_8 H 0.1509 0.7287 0.9937
F1_8 F 0.9627(4) 0.3719(6) 0.0748(7)
F4_8 F 0.9627(4) 0.6281(6) 0.4252(7)
H8_9 H 0.1509 0.2287 0.0063
Cu2_4 Cu 0.2500 0.26008(2) 0.0000
Cu1_7 Cu 0.01008(2) 0.0000 0.7500
N1_9 N 0.05906(11) 0.04142(12) 0.7967(2)
N2_5 N 0.20880(12) 0.20957(12) 0.9558(2)
C1_9 C 0.05591(16) 0.05308(18) 0.8682(3)
H1_9 H 0.0333 0.0387 0.8972
C2_9 C 0.08493(17) 0.08557(18) 0.9004(3)
H2_9 H 0.0810 0.0935 0.9499
C3_9 C 0.11961(14) 0.10623(15) 0.8597(3)
C4_9 C 0.12430(16) 0.09340(18) 0.7856(3)
H3_9 H 0.1478 0.1063 0.7565
C5_9 C 0.09317(16) 0.06101(18) 0.7562(3)
H4_9 H 0.0961 0.0526 0.7067
C6_9 C 0.22539(16) 0.17862(15) 0.9058(3)
H5_8 H 0.2568 0.1801 0.8927
C7_9 C 0.19769(18) 0.14517(16) 0.8738(3)
H6_9 H 0.2104 0.1246 0.8394
C8_9 C 0.15109(15) 0.14202(15) 0.8924(3)
C9_9 C 0.13413(16) 0.17418(16) 0.9434(3)
H7_9 H 0.1029 0.1733 0.9574
C10_9 C 0.16319(17) 0.20714(16) 0.9730(3)
Cu2_5 Cu 0.2500 0.26008(2) 1.0000
S2_9 S 0.02512(9) 0.06830(9) 0.57108(10)
F5_9 F 0.0281(4) 0.1484(3) 0.6363(8)
F6_9 F 0.0311(4) 0.1494(4) 0.5153(7)
O4_9 O 0.00982(13) 0.05014(12) 0.64057(19)
O5_9 O 0.0033(4) 0.0527(5) 0.5066(4)
O6_9 O 0.0765(2) 0.0634(4) 0.5643(4)
C22_9 C 0.0100(6) 0.1302(5) 0.5740(8)
Cu1_8 Cu 0.01008(2) 1.0000 0.7500
S1_9 S 0.02512(9) 0.93170(9) 0.92892(10)
F2_9 F 0.0281(4) 0.8516(3) 0.8637(8)
F3_9 F 0.0311(4) 0.8506(4) 0.9847(7)
O1_9 O 0.00982(13) 0.94986(12) 0.85943(19)
O2_9 O 0.0033(4) 0.9473(5) 0.9934(4)
O3_9 O 0.0765(2) 0.9366(4) 0.9357(4)
C11_9 C 0.0100(6) 0.8698(5) 0.9260(8)
Cu3_4 Cu 0.2500 0.73992(2) 0.5000
N3_9 N 0.05906(11) 0.95858(12) 0.7033(2)
N4_5 N 0.20880(12) 0.79043(12) 0.5442(2)
C12_9 C 0.05591(16) 0.94692(18) 0.6318(3)
H9_9 H 0.0333 0.9613 0.6028
C13_9 C 0.08493(17) 0.91443(18) 0.5996(3)
H10_9 H 0.0810 0.9065 0.5501
C14_9 C 0.11961(14) 0.89377(15) 0.6403(3)
C15_9 C 0.12430(16) 0.90660(18) 0.7144(3)
H11_9 H 0.1478 0.8937 0.7435
C16_9 C 0.09317(16) 0.93899(18) 0.7438(3)
H12_9 H 0.0961 0.9474 0.7933
C17_9 C 0.22539(16) 0.82138(15) 0.5942(3)
H13_9 H 0.2568 0.8199 0.6073
C18_9 C 0.19769(18) 0.85483(16) 0.6262(3)
H14_9 H 0.2104 0.8754 0.6606
C19_9 C 0.15109(15) 0.85798(15) 0.6076(3)
C20_9 C 0.13413(16) 0.82582(16) 0.5566(3)
H15_9 H 0.1029 0.8267 0.5426
C21_9 C 0.16319(17) 0.79286(16) 0.5270(3)
H16_9 H 0.1509 0.7713 0.4937
F4_9 F 0.9627(4) 0.1281(6) 0.5748(7)
N5_5 N 0.95957(12) 0.04120(12) 0.7942(2)
F1_9 F 0.9627(4) 0.8719(6) 0.9252(7)
N6_5 N 0.95957(12) 0.95880(12) 0.7058(2)
Cu1_9 Cu 0.48992(2) -0.0000 0.2500
S1_10 S 0.47488(9) 0.06830(9) 0.42892(10)
F1_10 F 0.5373(4) 0.1281(6) 0.4252(7)
F2_10 F 0.4719(4) 0.1484(3) 0.3637(8)
F3_10 F 0.4689(4) 0.1494(4) 0.4847(7)
O1_10 O 0.49018(13) 0.05014(12) 0.35943(19)
O2_10 O 0.4967(4) 0.0527(5) 0.4934(4)
O3_10 O 0.4235(2) 0.0634(4) 0.4357(4)
C11_10 C 0.4900(6) 0.1302(5) 0.4260(8)
N3_10 N 0.44094(11) 0.04142(12) 0.2033(2)
N4_6 N 0.29120(12) 0.20957(12) 0.0442(2)
N6_6 N 0.54043(12) 0.04120(12) 0.2058(2)
C12_10 C 0.44409(16) 0.05308(18) 0.1318(3)
H9_10 H 0.4667 0.0387 0.1028
C13_10 C 0.41507(17) 0.08557(18) 0.0996(3)
H10_10 H 0.4190 0.0935 0.0501
C14_10 C 0.38039(14) 0.10623(15) 0.1403(3)
C15_10 C 0.37570(16) 0.09340(18) 0.2144(3)
H11_10 H 0.3522 0.1063 0.2435
C16_10 C 0.40683(16) 0.06101(18) 0.2438(3)
H12_10 H 0.4039 0.0526 0.2933
C17_10 C 0.27461(16) 0.17862(15) 0.0942(3)
H13_10 H 0.2432 0.1801 0.1073
C18_10 C 0.30231(18) 0.14517(16) 0.1262(3)
H14_10 H 0.2896 0.1246 0.1606
C19_10 C 0.34891(15) 0.14202(15) 0.1076(3)
C20_10 C 0.36587(16) 0.17418(16) 0.0566(3)
H15_10 H 0.3971 0.1733 0.0426
C21_10 C 0.33681(17) 0.20714(16) 0.0270(3)
H16_10 H 0.3491 0.2287 0.9937
Cu1_10 Cu 0.48992(2) 1.0000 0.2500
N1_10 N 0.44094(11) 0.95858(12) 0.2967(2)
N2_6 N 0.29120(12) 0.79043(12) 0.4558(2)
C1_10 C 0.44409(16) 0.94692(18) 0.3682(3)
H1_10 H 0.4667 0.9613 0.3972
C2_10 C 0.41507(17) 0.91443(18) 0.4004(3)
H2_10 H 0.4190 0.9065 0.4499
C3_10 C 0.38039(14) 0.89377(15) 0.3597(3)
C4_10 C 0.37570(16) 0.90660(18) 0.2856(3)
H3_10 H 0.3522 0.8937 0.2565
C5_10 C 0.40683(16) 0.93899(18) 0.2562(3)
H4_10 H 0.4039 0.9474 0.2067
C6_10 C 0.27461(16) 0.82138(15) 0.4058(3)
H5_9 H 0.2432 0.8199 0.3927
C7_10 C 0.30231(18) 0.85483(16) 0.3738(3)
H6_10 H 0.2896 0.8754 0.3394
C8_10 C 0.34891(15) 0.85798(15) 0.3924(3)
C9_10 C 0.36587(16) 0.82582(16) 0.4434(3)
H7_10 H 0.3971 0.8267 0.4574
C10_10 C 0.33681(17) 0.79286(16) 0.4730(3)
H8_10 H 0.3491 0.7713 0.5063
S2_10 S 0.47488(9) 0.93170(9) 0.07108(10)
F4_10 F 0.5373(4) 0.8719(6) 0.0748(7)
F5_10 F 0.4719(4) 0.8516(3) 0.1363(8)
F6_10 F 0.4689(4) 0.8506(4) 0.0153(7)
O4_10 O 0.49018(13) 0.94986(12) 0.14057(19)
O5_10 O 0.4967(4) 0.9473(5) 0.0066(4)
O6_10 O 0.4235(2) 0.9366(4) 0.0643(4)
N5_6 N 0.54043(12) 0.95880(12) 0.2942(2)
C22_10 C 0.4900(6) 0.8698(5) 0.0740(8)
Cu1_11 Cu 0.51008(2) 0.5000 0.2500
S1_11 S 0.52512(9) 0.43170(9) 0.42892(10)
F1_11 F 0.4627(4) 0.3719(6) 0.4252(7)
F2_11 F 0.5281(4) 0.3516(3) 0.3637(8)
F3_11 F 0.5311(4) 0.3506(4) 0.4847(7)
O1_11 O 0.50982(13) 0.44986(12) 0.35943(19)
O2_11 O 0.5033(4) 0.4473(5) 0.4934(4)
O3_11 O 0.5765(2) 0.4366(4) 0.4357(4)
N1_11 N 0.55906(11) 0.54142(12) 0.2967(2)
N2_7 N 0.70880(12) 0.70957(12) 0.4558(2)
C1_11 C 0.55591(16) 0.55308(18) 0.3682(3)
H1_11 H 0.5333 0.5387 0.3972
C2_11 C 0.58493(17) 0.58557(18) 0.4004(3)
H2_11 H 0.5810 0.5935 0.4499
C3_11 C 0.61961(14) 0.60623(15) 0.3597(3)
C4_11 C 0.62430(16) 0.59340(18) 0.2856(3)
H3_11 H 0.6478 0.6063 0.2565
C5_11 C 0.59317(16) 0.56101(18) 0.2562(3)
H4_11 H 0.5961 0.5526 0.2067
C6_11 C 0.72539(16) 0.67862(15) 0.4058(3)
H5_10 H 0.7568 0.6801 0.3927
C7_11 C 0.69769(18) 0.64517(16) 0.3738(3)
H6_11 H 0.7104 0.6246 0.3394
C8_11 C 0.65109(15) 0.64202(15) 0.3924(3)
C9_11 C 0.63413(16) 0.67418(16) 0.4434(3)
H7_11 H 0.6029 0.6733 0.4574
C10_11 C 0.66319(17) 0.70714(16) 0.4730(3)
H8_11 H 0.6509 0.7287 0.5063
C11_11 C 0.5100(6) 0.3698(5) 0.4260(8)
Cu2_6 Cu 0.7500 0.76008(2) 0.5000
Cu3_5 Cu 0.7500 0.23992(2) 0.0000
S2_11 S 0.52512(9) 0.56830(9) 0.07108(10)
F4_11 F 0.4627(4) 0.6281(6) 0.0748(7)
F5_11 F 0.5281(4) 0.6484(3) 0.1363(8)
F6_11 F 0.5311(4) 0.6494(4) 0.0153(7)
O4_11 O 0.50982(13) 0.55014(12) 0.14057(19)
O5_11 O 0.5033(4) 0.5527(5) 0.0066(4)
O6_11 O 0.5765(2) 0.5634(4) 0.0643(4)
N3_11 N 0.55906(11) 0.45858(12) 0.2033(2)
N4_7 N 0.70880(12) 0.29043(12) 0.0442(2)
N5_7 N 0.45957(12) 0.54120(12) 0.2942(2)
N6_7 N 0.45957(12) 0.45880(12) 0.2058(2)
C12_11 C 0.55591(16) 0.44692(18) 0.1318(3)
H9_11 H 0.5333 0.4613 0.1028
C13_11 C 0.58493(17) 0.41443(18) 0.0996(3)
H10_11 H 0.5810 0.4065 0.0501
C14_11 C 0.61961(14) 0.39377(15) 0.1403(3)
C15_11 C 0.62430(16) 0.40660(18) 0.2144(3)
H11_11 H 0.6478 0.3937 0.2435
C16_11 C 0.59317(16) 0.43899(18) 0.2438(3)
H12_11 H 0.5961 0.4474 0.2933
C17_11 C 0.72539(16) 0.32138(15) 0.0942(3)
H13_11 H 0.7568 0.3199 0.1073
C18_11 C 0.69769(18) 0.35483(16) 0.1262(3)
H14_11 H 0.7104 0.3754 0.1606
C19_11 C 0.65109(15) 0.35798(15) 0.1076(3)
C20_11 C 0.63413(16) 0.32582(16) 0.0566(3)
H15_11 H 0.6029 0.3267 0.0426
C21_11 C 0.66319(17) 0.29286(16) 0.0270(3)
C22_11 C 0.5100(6) 0.6302(5) 0.0740(8)
Cu3_6 Cu 0.7500 0.23992(2) 1.0000
H16_11 H 0.6509 0.2713 0.9937
F1_12 F 0.0373(4) 0.6281(6) 0.9252(7)
F4_12 F 0.0373(4) 0.3719(6) 0.5748(7)
N5_8 N 0.04043(12) 0.45880(12) 0.7942(2)
N6_8 N 0.04043(12) 0.54120(12) 0.7058(2)
H8_12 H 0.8491 0.2713 0.0063
Cu1_12 Cu 0.98992(2) 0.5000 0.7500
S1_12 S 0.97488(9) 0.56830(9) 0.92892(10)
F2_12 F 0.9719(4) 0.6484(3) 0.8637(8)
F3_12 F 0.9689(4) 0.6494(4) 0.9847(7)
O1_12 O 0.99018(13) 0.55014(12) 0.85943(19)
O2_12 O 0.9967(4) 0.5527(5) 0.9934(4)
O3_12 O 0.9235(2) 0.5634(4) 0.9357(4)
N1_12 N 0.94094(11) 0.45858(12) 0.7967(2)
N2_8 N 0.79120(12) 0.29043(12) 0.9558(2)
C1_12 C 0.94409(16) 0.44692(18) 0.8682(3)
H1_12 H 0.9667 0.4613 0.8972
C2_12 C 0.91507(17) 0.41443(18) 0.9004(3)
H2_12 H 0.9190 0.4065 0.9499
C3_12 C 0.88039(14) 0.39377(15) 0.8597(3)
C4_12 C 0.87570(16) 0.40660(18) 0.7856(3)
H3_12 H 0.8522 0.3937 0.7565
C5_12 C 0.90683(16) 0.43899(18) 0.7562(3)
H4_12 H 0.9039 0.4474 0.7067
C6_12 C 0.77461(16) 0.32138(15) 0.9058(3)
H5_11 H 0.7432 0.3199 0.8927
C7_12 C 0.80231(18) 0.35483(16) 0.8738(3)
H6_12 H 0.7896 0.3754 0.8394
C8_12 C 0.84891(15) 0.35798(15) 0.8924(3)
C9_12 C 0.86587(16) 0.32582(16) 0.9434(3)
H7_12 H 0.8971 0.3267 0.9574
C10_12 C 0.83681(17) 0.29286(16) 0.9730(3)
C11_12 C 0.9900(6) 0.6302(5) 0.9260(8)
S2_12 S 0.97488(9) 0.43170(9) 0.57108(10)
F5_12 F 0.9719(4) 0.3516(3) 0.6363(8)
F6_12 F 0.9689(4) 0.3506(4) 0.5153(7)
O4_12 O 0.99018(13) 0.44986(12) 0.64057(19)
O5_12 O 0.9967(4) 0.4473(5) 0.5066(4)
O6_12 O 0.9235(2) 0.4366(4) 0.5643(4)
N3_12 N 0.94094(11) 0.54142(12) 0.7033(2)
N4_8 N 0.79120(12) 0.70957(12) 0.5442(2)
C12_12 C 0.94409(16) 0.55308(18) 0.6318(3)
H9_12 H 0.9667 0.5387 0.6028
C13_12 C 0.91507(17) 0.58557(18) 0.5996(3)
H10_12 H 0.9190 0.5935 0.5501
C14_12 C 0.88039(14) 0.60623(15) 0.6403(3)
C15_12 C 0.87570(16) 0.59340(18) 0.7144(3)
H11_12 H 0.8522 0.6063 0.7435
C16_12 C 0.90683(16) 0.56101(18) 0.7438(3)
H12_12 H 0.9039 0.5526 0.7933
C17_12 C 0.77461(16) 0.67862(15) 0.5942(3)
H13_12 H 0.7432 0.6801 0.6073
C18_12 C 0.80231(18) 0.64517(16) 0.6262(3)
H14_12 H 0.7896 0.6246 0.6606
C19_12 C 0.84891(15) 0.64202(15) 0.6076(3)
C20_12 C 0.86587(16) 0.67418(16) 0.5566(3)
H15_12 H 0.8971 0.6733 0.5426
C21_12 C 0.83681(17) 0.70714(16) 0.5270(3)
H16_12 H 0.8491 0.7287 0.4937
C22_12 C 0.9900(6) 0.3698(5) 0.5740(8)
H5_12 H 0.5699 0.0068 0.3573
H13_13 H 0.9301 0.0068 0.6427
S1_13 S 0.81830(9) 0.77512(9) 0.32108(10)
F1_13 F 0.8781(6) 0.7127(4) 0.3248(7)
F2_13 F 0.8984(3) 0.7781(4) 0.3863(8)
F3_13 F 0.8994(4) 0.7811(4) 0.2653(7)
O1_13 O 0.80014(12) 0.75982(13) 0.39057(19)
O2_13 O 0.8027(5) 0.7533(4) 0.2566(4)
O3_13 O 0.8134(4) 0.8265(2) 0.3143(4)
N1_13 N 0.70858(12) 0.80906(11) 0.4533(2)
C1_13 C 0.69692(18) 0.80591(16) 0.3818(3)
H1_13 H 0.7113 0.7833 0.3528
C2_13 C 0.66443(18) 0.83493(17) 0.3496(3)
H2_13 H 0.6565 0.8310 0.3001
C3_13 C 0.64377(15) 0.86961(14) 0.3903(3)
C4_13 C 0.65660(18) 0.87430(16) 0.4644(3)
H3_13 H 0.6437 0.8978 0.4935
C5_13 C 0.68899(18) 0.84317(16) 0.4938(3)
H4_13 H 0.6974 0.8461 0.5433
C6_13 C 0.57138(15) 0.97539(16) 0.3442(3)
C7_13 C 0.60483(16) 0.94769(18) 0.3762(3)
H6_13 H 0.6254 0.9604 0.4106
C8_13 C 0.60798(15) 0.90109(15) 0.3576(3)
C9_13 C 0.57582(16) 0.88413(16) 0.3066(3)
H7_13 H 0.5767 0.8529 0.2926
C10_13 C 0.54286(16) 0.91319(17) 0.2770(3)
H8_13 H 0.5213 0.9009 0.2437
C11_13 C 0.8802(5) 0.7600(6) 0.3240(8)
S2_13 S 0.68170(9) 0.77512(9) 0.67892(10)
F4_13 F 0.6219(6) 0.7127(4) 0.6752(7)
F5_13 F 0.6016(3) 0.7781(4) 0.6137(8)
F6_13 F 0.6006(4) 0.7811(4) 0.7347(7)
O4_13 O 0.69986(12) 0.75982(13) 0.60943(19)
O5_13 O 0.6973(5) 0.7533(4) 0.7434(4)
O6_13 O 0.6866(4) 0.8265(2) 0.6857(4)
N3_13 N 0.79142(12) 0.80906(11) 0.5467(2)
C12_13 C 0.80308(18) 0.80591(16) 0.6182(3)
H9_13 H 0.7887 0.7833 0.6472
C13_13 C 0.83557(18) 0.83493(17) 0.6504(3)
H10_13 H 0.8435 0.8310 0.6999
C14_13 C 0.85623(15) 0.86961(14) 0.6097(3)
C15_13 C 0.84340(18) 0.87430(16) 0.5356(3)
H11_13 H 0.8563 0.8978 0.5065
C16_13 C 0.81101(18) 0.84317(16) 0.5062(3)
H12_13 H 0.8026 0.8461 0.4567
C17_13 C 0.92862(15) 0.97539(16) 0.6558(3)
C18_13 C 0.89517(16) 0.94769(18) 0.6238(3)
H14_13 H 0.8746 0.9604 0.5894
C19_13 C 0.89202(15) 0.90109(15) 0.6424(3)
C20_13 C 0.92418(16) 0.88413(16) 0.6934(3)
H15_13 H 0.9233 0.8529 0.7074
C21_13 C 0.95714(16) 0.91319(17) 0.7230(3)
H16_13 H 0.9787 0.9009 0.7563
C22_13 C 0.6198(5) 0.7600(6) 0.6760(8)
H4_14 H 0.8026 0.1539 0.0433
S2_14 S 0.81830(9) 0.22488(9) 0.17892(10)
F4_14 F 0.8781(6) 0.2873(4) 0.1752(7)
F5_14 F 0.8984(3) 0.2219(4) 0.1137(8)
F6_14 F 0.8994(4) 0.2189(4) 0.2347(7)
O4_14 O 0.80014(12) 0.24018(13) 0.10943(19)
O5_14 O 0.8027(5) 0.2467(4) 0.2434(4)
O6_14 O 0.8134(4) 0.1735(2) 0.1857(4)
N3_14 N 0.70858(12) 0.19094(11) 0.0467(2)
C12_14 C 0.69692(18) 0.19409(16) 0.1182(3)
H9_14 H 0.7113 0.2167 0.1472
C13_14 C 0.66443(18) 0.16507(17) 0.1504(3)
H10_14 H 0.6565 0.1690 0.1999
C14_14 C 0.64377(15) 0.13039(14) 0.1097(3)
C15_14 C 0.65660(18) 0.12570(16) 0.0356(3)
H11_14 H 0.6437 0.1022 0.0065
C16_14 C 0.68899(18) 0.15683(16) 0.0062(3)
C17_14 C 0.57138(15) 0.02461(16) 0.1558(3)
C18_14 C 0.60483(16) 0.05231(18) 0.1238(3)
H14_14 H 0.6254 0.0396 0.0894
C19_14 C 0.60798(15) 0.09891(15) 0.1424(3)
C20_14 C 0.57582(16) 0.11587(16) 0.1934(3)
H15_14 H 0.5767 0.1471 0.2074
C21_14 C 0.54286(16) 0.08681(17) 0.2230(3)
H16_14 H 0.5213 0.0991 0.2563
C22_14 C 0.8802(5) 0.2400(6) 0.1760(8)
S1_14 S 0.68170(9) 0.22488(9) 0.82108(10)
F1_14 F 0.6219(6) 0.2873(4) 0.8248(7)
F2_14 F 0.6016(3) 0.2219(4) 0.8863(8)
F3_14 F 0.6006(4) 0.2189(4) 0.7653(7)
O1_14 O 0.69986(12) 0.24018(13) 0.89057(19)
O2_14 O 0.6973(5) 0.2467(4) 0.7566(4)
O3_14 O 0.6866(4) 0.1735(2) 0.8143(4)
N1_14 N 0.79142(12) 0.19094(11) 0.9533(2)
C1_14 C 0.80308(18) 0.19409(16) 0.8818(3)
H1_14 H 0.7887 0.2167 0.8528
C2_14 C 0.83557(18) 0.16507(17) 0.8496(3)
H2_14 H 0.8435 0.1690 0.8001
C3_14 C 0.85623(15) 0.13039(14) 0.8903(3)
C4_14 C 0.84340(18) 0.12570(16) 0.9644(3)
H3_14 H 0.8563 0.1022 0.9935
C5_14 C 0.81101(18) 0.15683(16) 0.9938(3)
C6_14 C 0.92862(15) 0.02461(16) 0.8442(3)
C7_14 C 0.89517(16) 0.05231(18) 0.8762(3)
H6_14 H 0.8746 0.0396 0.9106
C8_14 C 0.89202(15) 0.09891(15) 0.8576(3)
C9_14 C 0.92418(16) 0.11587(16) 0.8066(3)
H7_14 H 0.9233 0.1471 0.7926
C10_14 C 0.95714(16) 0.08681(17) 0.7770(3)
H8_14 H 0.9787 0.0991 0.7437
C11_14 C 0.6198(5) 0.2400(6) 0.8240(8)
H12_14 H 0.6974 0.1539 0.9567
H13_14 H 0.5699 0.9932 0.1427
H4_15 H 0.1974 0.3461 0.0433
S2_15 S 0.18170(9) 0.27512(9) 0.17892(10)
F4_15 F 0.1219(6) 0.2127(4) 0.1752(7)
F5_15 F 0.1016(3) 0.2781(4) 0.1137(8)
F6_15 F 0.1006(4) 0.2811(4) 0.2347(7)
O4_15 O 0.19986(12) 0.25982(13) 0.10943(19)
O5_15 O 0.1973(5) 0.2533(4) 0.2434(4)
O6_15 O 0.1866(4) 0.3265(2) 0.1857(4)
N3_15 N 0.29142(12) 0.30906(11) 0.0467(2)
C12_15 C 0.30308(18) 0.30591(16) 0.1182(3)
H9_15 H 0.2887 0.2833 0.1472
C13_15 C 0.33557(18) 0.33493(17) 0.1504(3)
H10_15 H 0.3435 0.3310 0.1999
C14_15 C 0.35623(15) 0.36961(14) 0.1097(3)
C15_15 C 0.34340(18) 0.37430(16) 0.0356(3)
H11_15 H 0.3563 0.3978 0.0065
C16_15 C 0.31101(18) 0.34317(16) 0.0062(3)
C17_15 C 0.42862(15) 0.47539(16) 0.1558(3)
H13_15 H 0.4301 0.5068 0.1427
C18_15 C 0.39517(16) 0.44769(18) 0.1238(3)
H14_15 H 0.3746 0.4604 0.0894
C19_15 C 0.39202(15) 0.40109(15) 0.1424(3)
C20_15 C 0.42418(16) 0.38413(16) 0.1934(3)
H15_15 H 0.4233 0.3529 0.2074
C21_15 C 0.45714(16) 0.41319(17) 0.2230(3)
H16_15 H 0.4787 0.4009 0.2563
C22_15 C 0.1198(5) 0.2600(6) 0.1760(8)
S1_15 S 0.31830(9) 0.27512(9) 0.82108(10)
F1_15 F 0.3781(6) 0.2127(4) 0.8248(7)
F2_15 F 0.3984(3) 0.2781(4) 0.8863(8)
F3_15 F 0.3994(4) 0.2811(4) 0.7653(7)
O1_15 O 0.30014(12) 0.25982(13) 0.89057(19)
O2_15 O 0.3027(5) 0.2533(4) 0.7566(4)
O3_15 O 0.3134(4) 0.3265(2) 0.8143(4)
N1_15 N 0.20858(12) 0.30906(11) 0.9533(2)
C1_15 C 0.19692(18) 0.30591(16) 0.8818(3)
H1_15 H 0.2113 0.2833 0.8528
C2_15 C 0.16443(18) 0.33493(17) 0.8496(3)
H2_15 H 0.1565 0.3310 0.8001
C3_15 C 0.14377(15) 0.36961(14) 0.8903(3)
C4_15 C 0.15660(18) 0.37430(16) 0.9644(3)
H3_15 H 0.1437 0.3978 0.9935
C5_15 C 0.18899(18) 0.34317(16) 0.9938(3)
C6_15 C 0.07138(15) 0.47539(16) 0.8442(3)
H5_13 H 0.0699 0.5068 0.8573
C7_15 C 0.10483(16) 0.44769(18) 0.8762(3)
H6_15 H 0.1254 0.4604 0.9106
C8_15 C 0.10798(15) 0.40109(15) 0.8576(3)
C9_15 C 0.07582(16) 0.38413(16) 0.8066(3)
H7_15 H 0.0767 0.3529 0.7926
C10_15 C 0.04286(16) 0.41319(17) 0.7770(3)
H8_15 H 0.0213 0.4009 0.7437
C11_15 C 0.3802(5) 0.2600(6) 0.8240(8)
H12_15 H 0.3026 0.3461 0.9567
S1_16 S 0.18170(9) 0.72488(9) 0.32108(10)
F1_16 F 0.1219(6) 0.7873(4) 0.3248(7)
F2_16 F 0.1016(3) 0.7219(4) 0.3863(8)
F3_16 F 0.1006(4) 0.7189(4) 0.2653(7)
O1_16 O 0.19986(12) 0.74018(13) 0.39057(19)
O2_16 O 0.1973(5) 0.7467(4) 0.2566(4)
O3_16 O 0.1866(4) 0.6735(2) 0.3143(4)
N1_16 N 0.29142(12) 0.69094(11) 0.4533(2)
C1_16 C 0.30308(18) 0.69409(16) 0.3818(3)
H1_16 H 0.2887 0.7167 0.3528
C2_16 C 0.33557(18) 0.66507(17) 0.3496(3)
H2_16 H 0.3435 0.6690 0.3001
C3_16 C 0.35623(15) 0.63039(14) 0.3903(3)
C4_16 C 0.34340(18) 0.62570(16) 0.4644(3)
H3_16 H 0.3563 0.6022 0.4935
C5_16 C 0.31101(18) 0.65683(16) 0.4938(3)
H4_16 H 0.3026 0.6539 0.5433
C6_16 C 0.42862(15) 0.52461(16) 0.3442(3)
H5_14 H 0.4301 0.4932 0.3573
C7_16 C 0.39517(16) 0.55231(18) 0.3762(3)
H6_16 H 0.3746 0.5396 0.4106
C8_16 C 0.39202(15) 0.59891(15) 0.3576(3)
C9_16 C 0.42418(16) 0.61587(16) 0.3066(3)
H7_16 H 0.4233 0.6471 0.2926
C10_16 C 0.45714(16) 0.58681(17) 0.2770(3)
H8_16 H 0.4787 0.5991 0.2437
C11_16 C 0.1198(5) 0.7400(6) 0.3240(8)
S2_16 S 0.31830(9) 0.72488(9) 0.67892(10)
F4_16 F 0.3781(6) 0.7873(4) 0.6752(7)
F5_16 F 0.3984(3) 0.7219(4) 0.6137(8)
F6_16 F 0.3994(4) 0.7189(4) 0.7347(7)
O4_16 O 0.30014(12) 0.74018(13) 0.60943(19)
O5_16 O 0.3027(5) 0.7467(4) 0.7434(4)
O6_16 O 0.3134(4) 0.6735(2) 0.6857(4)
N3_16 N 0.20858(12) 0.69094(11) 0.5467(2)
C12_16 C 0.19692(18) 0.69409(16) 0.6182(3)
H9_16 H 0.2113 0.7167 0.6472
C13_16 C 0.16443(18) 0.66507(17) 0.6504(3)
H10_16 H 0.1565 0.6690 0.6999
C14_16 C 0.14377(15) 0.63039(14) 0.6097(3)
C15_16 C 0.15660(18) 0.62570(16) 0.5356(3)
H11_16 H 0.1437 0.6022 0.5065
C16_16 C 0.18899(18) 0.65683(16) 0.5062(3)
H12_16 H 0.1974 0.6539 0.4567
C17_16 C 0.07138(15) 0.52461(16) 0.6558(3)
H13_16 H 0.0699 0.4932 0.6427
C18_16 C 0.10483(16) 0.55231(18) 0.6238(3)
H14_16 H 0.1254 0.5396 0.5894
C19_16 C 0.10798(15) 0.59891(15) 0.6424(3)
C20_16 C 0.07582(16) 0.61587(16) 0.6934(3)
H15_16 H 0.0767 0.6471 0.7074
C21_16 C 0.04286(16) 0.58681(17) 0.7230(3)
H16_16 H 0.0213 0.5991 0.7563
C22_16 C 0.3802(5) 0.7400(6) 0.6760(8)
H5_15 H 0.0699 0.0068 0.1427
H5_16 H 0.9301 0.9932 0.8573
loop_
_geom_bond_atom_site_label_1
_geom_bond_atom_site_label_2
_geom_bond_site_symmetry_1
_geom_bond_site_symmetry_2
Cu1 O1 1_555 1_555
S1 O1 1_555 1_555
F1 C11 1_555 1_555
F2 C11 1_555 1_555
F3 C11 1_555 1_555
O2 S1 1_555 1_555
O3 S1 1_555 1_555
N1 Cu1 1_555 1_555
N2 C6 1_555 1_555
C1 N1 1_555 1_555
H1 C1 1_555 1_555
C2 C1 1_555 1_555
H2 C2 1_555 1_555
C3 C2 1_555 1_555
C4 C3 1_555 1_555
H3 C4 1_555 1_555
C5 N1 1_555 1_555
H4 C5 1_555 1_555
C7 C6 1_555 1_555
H6 C7 1_555 1_555
C8 C3 1_555 1_555
C9 C8 1_555 1_555
H7 C9 1_555 1_555
C10 N2 1_555 1_555
H8 C10 1_555 1_555
C11 S1 1_555 1_555
Cu2 N2 1_555 1_555
S2 O4 1_555 1_555
F4 C22 1_555 1_555
F5 C22 1_555 1_555
F6 C22 1_555 1_555
O4 Cu1 1_555 1_555
O5 S2 1_555 1_555
O6 S2 1_555 1_555
N3 Cu1 1_555 1_555
N4 C17 1_555 1_555
N5 Cu1 1_555 1_555
N6 Cu1 1_555 1_555
C12 N3 1_555 1_555
H9 C12 1_555 1_555
C13 C12 1_555 1_555
H10 C13 1_555 1_555
C14 C13 1_555 1_555
C15 C14 1_555 1_555
H11 C15 1_555 1_555
C16 N3 1_555 1_555
H12 C16 1_555 1_555
C18 C17 1_555 1_555
H14 C18 1_555 1_555
C19 C14 1_555 1_555
C20 C19 1_555 1_555
H15 C20 1_555 1_555
C21 N4 1_555 1_555
H16 C21 1_555 1_555
C22 S2 1_555 1_555
C4 C5 1_555 1_555
C7 C8 1_555 1_555
C9 C10 1_555 1_555
C15 C16 1_555 1_555
C18 C19 1_555 1_555
C20 C21 1_555 1_555
Cu1_2 O1_2 1_555 1_555
S1_2 O1_2 1_555 1_555
F1_2 C11_2 1_555 1_555
F2_2 C11_2 1_555 1_555
F3_2 C11_2 1_555 1_555
O2_2 S1_2 1_555 1_555
O3_2 S1_2 1_555 1_555
N1_2 Cu1_2 1_555 1_555
N2_2 C6_2 1_555 1_555
C1_2 N1_2 1_555 1_555
H1_2 C1_2 1_555 1_555
C2_2 C1_2 1_555 1_555
H2_2 C2_2 1_555 1_555
C3_2 C2_2 1_555 1_555
C4_2 C3_2 1_555 1_555
H3_2 C4_2 1_555 1_555
C5_2 N1_2 1_555 1_555
C7_2 C6_2 1_555 1_555
H6_2 C7_2 1_555 1_555
C8_2 C3_2 1_555 1_555
C9_2 C8_2 1_555 1_555
H7_2 C9_2 1_555 1_555
C10_2 N2_2 1_555 1_555
H8_2 C10_2 1_555 1_555
C11_2 S1_2 1_555 1_555
N5_2 Cu1_2 1_555 1_555
C4_2 C5_2 1_555 1_555
C7_2 C8_2 1_555 1_555
C9_2 C10_2 1_555 1_555
Cu2_2 N4_2 1_555 1_555
S2_2 O4_2 1_555 1_555
F4_2 C22_2 1_555 1_555
F5_2 C22_2 1_555 1_555
F6_2 C22_2 1_555 1_555
O4_2 Cu1_3 1_555 1_555
O5_2 S2_2 1_555 1_555
O6_2 S2_2 1_555 1_555
N3_2 Cu1_3 1_555 1_555
N4_2 C17_2 1_555 1_555
N6_2 Cu1_3 1_555 1_555
C12_2 N3_2 1_555 1_555
H9_2 C12_2 1_555 1_555
C13_2 C12_2 1_555 1_555
H10_2 C13_2 1_555 1_555
C14_2 C13_2 1_555 1_555
C15_2 C14_2 1_555 1_555
H11_2 C15_2 1_555 1_555
C16_2 N3_2 1_555 1_555
C18_2 C17_2 1_555 1_555
H14_2 C18_2 1_555 1_555
C19_2 C14_2 1_555 1_555
C20_2 C19_2 1_555 1_555
H15_2 C20_2 1_555 1_555
C21_2 N4_2 1_555 1_555
H16_2 C21_2 1_555 1_555
C22_2 S2_2 1_555 1_555
C15_2 C16_2 1_555 1_555
C18_2 C19_2 1_555 1_555
C20_2 C21_2 1_555 1_555
Cu1_4 O1_3 1_555 1_555
S1_3 O1_3 1_555 1_555
F1_3 C11_3 1_555 1_555
F2_3 C11_3 1_555 1_555
F3_3 C11_3 1_555 1_555
O2_3 S1_3 1_555 1_555
O3_3 S1_3 1_555 1_555
N1_3 Cu1_4 1_555 1_555
N2_3 C6_3 1_555 1_555
C1_3 N1_3 1_555 1_555
H1_3 C1_3 1_555 1_555
C2_3 C1_3 1_555 1_555
H2_3 C2_3 1_555 1_555
C3_3 C2_3 1_555 1_555
C4_3 C3_3 1_555 1_555
H3_3 C4_3 1_555 1_555
C5_3 N1_3 1_555 1_555
C6_3 H5_2 1_555 1_555
C7_3 C6_3 1_555 1_555
H6_3 C7_3 1_555 1_555
C8_3 C3_3 1_555 1_555
C9_3 C8_3 1_555 1_555
H7_3 C9_3 1_555 1_555
C10_3 N2_3 1_555 1_555
H8_3 C10_3 1_555 1_555
C11_3 S1_3 1_555 1_555
N5_3 Cu1_4 1_555 1_555
C4_3 C5_3 1_555 1_555
C7_3 C8_3 1_555 1_555
C9_3 C10_3 1_555 1_555
Cu3_3 N4_3 1_555 1_555
S2_3 O4_3 1_555 1_555
F4_3 C22_3 1_555 1_555
F5_3 C22_3 1_555 1_555
F6_3 C22_3 1_555 1_555
O4_3 Cu1_5 1_555 1_555
O5_3 S2_3 1_555 1_555
O6_3 S2_3 1_555 1_555
N3_3 Cu1_5 1_555 1_555
N4_3 C17_3 1_555 1_555
N6_3 Cu1_5 1_555 1_555
C12_3 N3_3 1_555 1_555
H9_3 C12_3 1_555 1_555
C13_3 C12_3 1_555 1_555
H10_3 C13_3 1_555 1_555
C14_3 C13_3 1_555 1_555
C15_3 C14_3 1_555 1_555
H11_3 C15_3 1_555 1_555
C16_3 N3_3 1_555 1_555
C17_3 H13_3 1_555 1_555
C18_3 C17_3 1_555 1_555
H14_3 C18_3 1_555 1_555
C19_3 C14_3 1_555 1_555
C20_3 C19_3 1_555 1_555
H15_3 C20_3 1_555 1_555
C21_3 N4_3 1_555 1_555
H16_3 C21_3 1_555 1_555
C22_3 S2_3 1_555 1_555
C15_3 C16_3 1_555 1_555
C18_3 C19_3 1_555 1_555
C20_3 C21_3 1_555 1_555
Cu1_6 O1_4 1_555 1_555
S1_4 O1_4 1_555 1_555
F1_4 C11_4 1_555 1_555
F2_4 C11_4 1_555 1_555
F3_4 C11_4 1_555 1_555
O2_4 S1_4 1_555 1_555
O3_4 S1_4 1_555 1_555
N1_4 Cu1_6 1_555 1_555
N2_4 C6_4 1_555 1_555
C1_4 N1_4 1_555 1_555
H1_4 C1_4 1_555 1_555
C2_4 C1_4 1_555 1_555
H2_4 C2_4 1_555 1_555
C3_4 C2_4 1_555 1_555
C4_4 C3_4 1_555 1_555
H3_4 C4_4 1_555 1_555
C5_4 N1_4 1_555 1_555
H4_4 C5_4 1_555 1_555
C6_4 H5_3 1_555 1_555
C7_4 C6_4 1_555 1_555
H6_4 C7_4 1_555 1_555
C8_4 C3_4 1_555 1_555
C9_4 C8_4 1_555 1_555
H7_4 C9_4 1_555 1_555
C10_4 N2_4 1_555 1_555
H8_4 C10_4 1_555 1_555
C11_4 S1_4 1_555 1_555
Cu3_3 N2_4 1_555 1_555
S2_4 O4_4 1_555 1_555
F4_4 C22_4 1_555 1_555
F5_4 C22_4 1_555 1_555
F6_4 C22_4 1_555 1_555
O4_4 Cu1_6 1_555 1_555
O5_4 S2_4 1_555 1_555
O6_4 S2_4 1_555 1_555
N3_4 Cu1_6 1_555 1_555
N4_4 C17_4 1_555 1_555
N5_4 Cu1_6 1_555 1_555
N6_4 Cu1_6 1_555 1_555
C12_4 N3_4 1_555 1_555
H9_4 C12_4 1_555 1_555
C13_4 C12_4 1_555 1_555
H10_4 C13_4 1_555 1_555
C14_4 C13_4 1_555 1_555
C15_4 C14_4 1_555 1_555
H11_4 C15_4 1_555 1_555
C16_4 N3_4 1_555 1_555
H12_4 C16_4 1_555 1_555
C17_4 H13_4 1_555 1_555
C18_4 C17_4 1_555 1_555
H14_4 C18_4 1_555 1_555
C19_4 C14_4 1_555 1_555
C20_4 C19_4 1_555 1_555
H15_4 C20_4 1_555 1_555
C21_4 N4_4 1_555 1_555
H16_4 C21_4 1_555 1_555
C22_4 S2_4 1_555 1_555
C4_4 C5_4 1_555 1_555
C7_4 C8_4 1_555 1_555
C9_4 C10_4 1_555 1_555
C15_4 C16_4 1_555 1_555
C18_4 C19_4 1_555 1_555
C20_4 C21_4 1_555 1_555
Cu3 O1_5 1_555 1_555
S1_5 O1_5 1_555 1_555
F2_5 C11_5 1_555 1_555
F3_5 C11_5 1_555 1_555
O2_5 S1_5 1_555 1_555
O3_5 S1_5 1_555 1_555
C11_5 S1_5 1_555 1_555
N3_5 Cu3 1_555 1_555
N6_4 C17_5 1_555 1_555
C12_5 N3_5 1_555 1_555
H9_5 C12_5 1_555 1_555
C13_5 C12_5 1_555 1_555
H10_5 C13_5 1_555 1_555
C14_5 C13_5 1_555 1_555
C15_5 C14_5 1_555 1_555
H11_5 C15_5 1_555 1_555
C16_5 N3_5 1_555 1_555
H12_5 C16_5 1_555 1_555
C17_5 H13_5 1_555 1_555
C18_5 C17_5 1_555 1_555
H14_5 C18_5 1_555 1_555
C19_5 C14_5 1_555 1_555
C20_5 C19_5 1_555 1_555
H15_5 C20_5 1_555 1_555
C21_5 N6_4 1_555 1_555
H16_5 C21_5 1_555 1_555
C15_5 C16_5 1_555 1_555
C18_5 C19_5 1_555 1_555
C20_5 C21_5 1_555 1_555
N1_5 Cu3_2 1_555 1_555
N5_3 C6_5 1_555 1_555
C1_5 N1_5 1_555 1_555
H1_5 C1_5 1_555 1_555
C2_5 C1_5 1_555 1_555
H2_5 C2_5 1_555 1_555
C3_5 C2_5 1_555 1_555
C4_5 C3_5 1_555 1_555
H3_5 C4_5 1_555 1_555
C5_5 N1_5 1_555 1_555
H4_5 C5_5 1_555 1_555
C6_5 H5_4 1_555 1_555
C7_5 C6_5 1_555 1_555
H6_5 C7_5 1_555 1_555
C8_5 C3_5 1_555 1_555
C9_5 C8_5 1_555 1_555
H7_5 C9_5 1_555 1_555
C10_5 N5_3 1_555 1_555
S2_5 O4_5 1_555 1_555
F5_5 C22_5 1_555 1_555
F6_5 C22_5 1_555 1_555
O4_5 Cu3_2 1_555 1_555
O5_5 S2_5 1_555 1_555
O6_5 S2_5 1_555 1_555
C22_5 S2_5 1_555 1_555
C4_5 C5_5 1_555 1_555
C7_5 C8_5 1_555 1_555
C9_5 C10_5 1_555 1_555
N1_6 Cu2 1_555 1_555
N5_4 C6_6 1_555 1_555
C1_6 N1_6 1_555 1_555
H1_6 C1_6 1_555 1_555
C2_6 C1_6 1_555 1_555
H2_6 C2_6 1_555 1_555
C3_6 C2_6 1_555 1_555
C4_6 C3_6 1_555 1_555
H3_6 C4_6 1_555 1_555
C5_6 N1_6 1_555 1_555
H4_6 C5_6 1_555 1_555
C6_6 H5_5 1_555 1_555
C7_6 C6_6 1_555 1_555
H6_6 C7_6 1_555 1_555
C8_6 C3_6 1_555 1_555
C9_6 C8_6 1_555 1_555
H7_6 C9_6 1_555 1_555
C10_6 N5_4 1_555 1_555
H8_6 C10_6 1_555 1_555
S2_6 O4_6 1_555 1_555
F4_6 C22_6 1_555 1_555
F5_6 C22_6 1_555 1_555
F6_6 C22_6 1_555 1_555
O4_6 Cu2 1_555 1_555
O5_6 S2_6 1_555 1_555
O6_6 S2_6 1_555 1_555
C22_6 S2_6 1_555 1_555
C4_6 C5_6 1_555 1_555
C7_6 C8_6 1_555 1_555
C9_6 C10_6 1_555 1_555
Cu2_2 O1_6 1_555 1_555
S1_6 O1_6 1_555 1_555
F1_6 C11_6 1_555 1_555
F2_6 C11_6 1_555 1_555
F3_6 C11_6 1_555 1_555
O2_6 S1_6 1_555 1_555
O3_6 S1_6 1_555 1_555
C11_6 S1_6 1_555 1_555
N3_6 Cu2_2 1_555 1_555
N6_3 C17_6 1_555 1_555
C12_6 N3_6 1_555 1_555
H9_6 C12_6 1_555 1_555
C13_6 C12_6 1_555 1_555
H10_6 C13_6 1_555 1_555
C14_6 C13_6 1_555 1_555
C15_6 C14_6 1_555 1_555
H11_6 C15_6 1_555 1_555
C16_6 N3_6 1_555 1_555
H12_6 C16_6 1_555 1_555
C17_6 H13_6 1_555 1_555
C18_6 C17_6 1_555 1_555
H14_6 C18_6 1_555 1_555
C19_6 C14_6 1_555 1_555
C20_6 C19_6 1_555 1_555
H15_6 C20_6 1_555 1_555
C21_6 N6_3 1_555 1_555
C15_6 C16_6 1_555 1_555
C18_6 C19_6 1_555 1_555
C20_6 C21_6 1_555 1_555
Cu3_3 O1_7 1_555 1_555
S1_7 O1_7 1_555 1_555
F1_7 C11_7 1_555 1_555
F2_7 C11_7 1_555 1_555
F3_7 C11_7 1_555 1_555
O2_7 S1_7 1_555 1_555
O3_7 S1_7 1_555 1_555
N1_7 Cu3_3 1_555 1_555
N5 C6_7 1_555 1_555
C1_7 N1_7 1_555 1_555
H1_7 C1_7 1_555 1_555
C2_7 C1_7 1_555 1_555
H2_7 C2_7 1_555 1_555
C3_7 C2_7 1_555 1_555
C4_7 C3_7 1_555 1_555
H3_7 C4_7 1_555 1_555
C5_7 N1_7 1_555 1_555
H4_7 C5_7 1_555 1_555
C6_7 H5_6 1_555 1_555
C7_7 C6_7 1_555 1_555
H6_7 C7_7 1_555 1_555
C8_7 C3_7 1_555 1_555
C9_7 C8_7 1_555 1_555
H7_7 C9_7 1_555 1_555
C10_7 N5 1_555 1_555
H8_7 C10_7 1_555 1_555
C11_7 S1_7 1_555 1_555
S2_7 O4_7 1_555 1_555
F4_7 C22_7 1_555 1_555
F5_7 C22_7 1_555 1_555
F6_7 C22_7 1_555 1_555
O4_7 Cu3_3 1_555 1_555
O5_7 S2_7 1_555 1_555
O6_7 S2_7 1_555 1_555
N3_7 Cu3_3 1_555 1_555
N6_2 C17_7 1_555 1_555
C12_7 N3_7 1_555 1_555
H9_7 C12_7 1_555 1_555
C13_7 C12_7 1_555 1_555
H10_7 C13_7 1_555 1_555
C14_7 C13_7 1_555 1_555
C15_7 C14_7 1_555 1_555
H11_7 C15_7 1_555 1_555
C16_7 N3_7 1_555 1_555
H12_7 C16_7 1_555 1_555
C17_7 H13_7 1_555 1_555
C18_7 C17_7 1_555 1_555
H14_7 C18_7 1_555 1_555
C19_7 C14_7 1_555 1_555
C20_7 C19_7 1_555 1_555
H15_7 C20_7 1_555 1_555
C21_7 N6_2 1_555 1_555
C22_7 S2_7 1_555 1_555
C4_7 C5_7 1_555 1_555
C7_7 C8_7 1_555 1_555
C9_7 C10_7 1_555 1_555
C15_7 C16_7 1_555 1_555
C18_7 C19_7 1_555 1_555
C20_7 C21_7 1_555 1_555
Cu2_3 O1_8 1_555 1_555
S1_8 O1_8 1_555 1_555
F2_8 C11_8 1_555 1_555
F3_8 C11_8 1_555 1_555
O2_8 S1_8 1_555 1_555
O3_8 S1_8 1_555 1_555
N1_8 Cu2_3 1_555 1_555
N5_2 C6_8 1_555 1_555
C1_8 N1_8 1_555 1_555
H1_8 C1_8 1_555 1_555
C2_8 C1_8 1_555 1_555
H2_8 C2_8 1_555 1_555
C3_8 C2_8 1_555 1_555
C4_8 C3_8 1_555 1_555
H3_8 C4_8 1_555 1_555
C5_8 N1_8 1_555 1_555
H4_8 C5_8 1_555 1_555
C6_8 H5_7 1_555 1_555
C7_8 C6_8 1_555 1_555
H6_8 C7_8 1_555 1_555
C8_8 C3_8 1_555 1_555
C9_8 C8_8 1_555 1_555
H7_8 C9_8 1_555 1_555
C10_8 N5_2 1_555 1_555
C11_8 S1_8 1_555 1_555
S2_8 O4_8 1_555 1_555
F5_8 C22_8 1_555 1_555
F6_8 C22_8 1_555 1_555
O4_8 Cu2_3 1_555 1_555
O5_8 S2_8 1_555 1_555
O6_8 S2_8 1_555 1_555
N3_8 Cu2_3 1_555 1_555
N6 C17_8 1_555 1_555
C12_8 N3_8 1_555 1_555
H9_8 C12_8 1_555 1_555
C13_8 C12_8 1_555 1_555
H10_8 C13_8 1_555 1_555
C14_8 C13_8 1_555 1_555
C15_8 C14_8 1_555 1_555
H11_8 C15_8 1_555 1_555
C16_8 N3_8 1_555 1_555
H12_8 C16_8 1_555 1_555
C17_8 H13_8 1_555 1_555
C18_8 C17_8 1_555 1_555
H14_8 C18_8 1_555 1_555
C19_8 C14_8 1_555 1_555
C20_8 C19_8 1_555 1_555
H15_8 C20_8 1_555 1_555
C21_8 N6 1_555 1_555
H16_8 C21_8 1_555 1_555
C22_8 S2_8 1_555 1_555
C4_8 C5_8 1_555 1_555
C7_8 C8_8 1_555 1_555
C9_8 C10_8 1_555 1_555
C15_8 C16_8 1_555 1_555
C18_8 C19_8 1_555 1_555
C20_8 C21_8 1_555 1_555
N1_9 Cu1_7 1_555 1_555
N2_5 C6_9 1_555 1_555
C1_9 N1_9 1_555 1_555
H1_9 C1_9 1_555 1_555
C2_9 C1_9 1_555 1_555
H2_9 C2_9 1_555 1_555
C3_9 C2_9 1_555 1_555
C4_9 C3_9 1_555 1_555
H3_9 C4_9 1_555 1_555
C5_9 N1_9 1_555 1_555
H4_9 C5_9 1_555 1_555
C6_9 H5_8 1_555 1_555
C7_9 C6_9 1_555 1_555
H6_9 C7_9 1_555 1_555
C8_9 C3_9 1_555 1_555
C9_9 C8_9 1_555 1_555
H7_9 C9_9 1_555 1_555
C10_9 N2_5 1_555 1_555
Cu2_5 N2_5 1_555 1_555
S2_9 O4_9 1_555 1_555
F5_9 C22_9 1_555 1_555
F6_9 C22_9 1_555 1_555
O4_9 Cu1_7 1_555 1_555
O5_9 S2_9 1_555 1_555
O6_9 S2_9 1_555 1_555
C22_9 S2_9 1_555 1_555
C4_9 C5_9 1_555 1_555
C7_9 C8_9 1_555 1_555
C9_9 C10_9 1_555 1_555
Cu1_8 O1_9 1_555 1_555
S1_9 O1_9 1_555 1_555
F2_9 C11_9 1_555 1_555
F3_9 C11_9 1_555 1_555
O2_9 S1_9 1_555 1_555
O3_9 S1_9 1_555 1_555
C11_9 S1_9 1_555 1_555
Cu3_4 N4_5 1_555 1_555
N3_9 Cu1_8 1_555 1_555
N4_5 C17_9 1_555 1_555
C12_9 N3_9 1_555 1_555
H9_9 C12_9 1_555 1_555
C13_9 C12_9 1_555 1_555
H10_9 C13_9 1_555 1_555
C14_9 C13_9 1_555 1_555
C15_9 C14_9 1_555 1_555
H11_9 C15_9 1_555 1_555
C16_9 N3_9 1_555 1_555
H12_9 C16_9 1_555 1_555
C17_9 H13_9 1_555 1_555
C18_9 C17_9 1_555 1_555
H14_9 C18_9 1_555 1_555
C19_9 C14_9 1_555 1_555
C20_9 C19_9 1_555 1_555
H15_9 C20_9 1_555 1_555
C21_9 N4_5 1_555 1_555
H16_9 C21_9 1_555 1_555
C15_9 C16_9 1_555 1_555
C18_9 C19_9 1_555 1_555
C20_9 C21_9 1_555 1_555
Cu1_9 O1_10 1_555 1_555
S1_10 O1_10 1_555 1_555
F1_10 C11_10 1_555 1_555
F2_10 C11_10 1_555 1_555
F3_10 C11_10 1_555 1_555
O2_10 S1_10 1_555 1_555
O3_10 S1_10 1_555 1_555
C11_10 S1_10 1_555 1_555
Cu2_4 N4_6 1_555 1_555
N3_10 Cu1_9 1_555 1_555
N4_6 C17_10 1_555 1_555
N6_6 Cu1_9 1_555 1_555
C12_10 N3_10 1_555 1_555
H9_10 C12_10 1_555 1_555
C13_10 C12_10 1_555 1_555
H10_10 C13_10 1_555 1_555
C14_10 C13_10 1_555 1_555
C15_10 C14_10 1_555 1_555
H11_10 C15_10 1_555 1_555
C16_10 N3_10 1_555 1_555
H12_10 C16_10 1_555 1_555
C17_10 H13_10 1_555 1_555
C18_10 C17_10 1_555 1_555
H14_10 C18_10 1_555 1_555
C19_10 C14_10 1_555 1_555
C20_10 C19_10 1_555 1_555
H15_10 C20_10 1_555 1_555
C21_10 N4_6 1_555 1_555
C15_10 C16_10 1_555 1_555
C18_10 C19_10 1_555 1_555
C20_10 C21_10 1_555 1_555
N1_10 Cu1_10 1_555 1_555
N2_6 C6_10 1_555 1_555
C1_10 N1_10 1_555 1_555
H1_10 C1_10 1_555 1_555
C2_10 C1_10 1_555 1_555
H2_10 C2_10 1_555 1_555
C3_10 C2_10 1_555 1_555
C4_10 C3_10 1_555 1_555
H3_10 C4_10 1_555 1_555
C5_10 N1_10 1_555 1_555
H4_10 C5_10 1_555 1_555
C6_10 H5_9 1_555 1_555
C7_10 C6_10 1_555 1_555
H6_10 C7_10 1_555 1_555
C8_10 C3_10 1_555 1_555
C9_10 C8_10 1_555 1_555
H7_10 C9_10 1_555 1_555
C10_10 N2_6 1_555 1_555
H8_10 C10_10 1_555 1_555
Cu3_4 N2_6 1_555 1_555
S2_10 O4_10 1_555 1_555
F4_10 C22_10 1_555 1_555
F5_10 C22_10 1_555 1_555
F6_10 C22_10 1_555 1_555
O4_10 Cu1_10 1_555 1_555
O5_10 S2_10 1_555 1_555
O6_10 S2_10 1_555 1_555
N5_6 Cu1_10 1_555 1_555
C22_10 S2_10 1_555 1_555
C4_10 C5_10 1_555 1_555
C7_10 C8_10 1_555 1_555
C9_10 C10_10 1_555 1_555
Cu1_11 O1_11 1_555 1_555
S1_11 O1_11 1_555 1_555
F1_11 C11_11 1_555 1_555
F2_11 C11_11 1_555 1_555
F3_11 C11_11 1_555 1_555
O2_11 S1_11 1_555 1_555
O3_11 S1_11 1_555 1_555
N1_11 Cu1_11 1_555 1_555
N2_7 C6_11 1_555 1_555
C1_11 N1_11 1_555 1_555
H1_11 C1_11 1_555 1_555
C2_11 C1_11 1_555 1_555
H2_11 C2_11 1_555 1_555
C3_11 C2_11 1_555 1_555
C4_11 C3_11 1_555 1_555
H3_11 C4_11 1_555 1_555
C5_11 N1_11 1_555 1_555
H4_11 C5_11 1_555 1_555
C6_11 H5_10 1_555 1_555
C7_11 C6_11 1_555 1_555
H6_11 C7_11 1_555 1_555
C8_11 C3_11 1_555 1_555
C9_11 C8_11 1_555 1_555
H7_11 C9_11 1_555 1_555
C10_11 N2_7 1_555 1_555
H8_11 C10_11 1_555 1_555
C11_11 S1_11 1_555 1_555
Cu2_6 N2_7 1_555 1_555
Cu3_5 N4_7 1_555 1_555
S2_11 O4_11 1_555 1_555
F4_11 C22_11 1_555 1_555
F5_11 C22_11 1_555 1_555
F6_11 C22_11 1_555 1_555
O4_11 Cu1_11 1_555 1_555
O5_11 S2_11 1_555 1_555
O6_11 S2_11 1_555 1_555
N3_11 Cu1_11 1_555 1_555
N4_7 C17_11 1_555 1_555
N5_7 Cu1_11 1_555 1_555
N6_7 Cu1_11 1_555 1_555
C12_11 N3_11 1_555 1_555
H9_11 C12_11 1_555 1_555
C13_11 C12_11 1_555 1_555
H10_11 C13_11 1_555 1_555
C14_11 C13_11 1_555 1_555
C15_11 C14_11 1_555 1_555
H11_11 C15_11 1_555 1_555
C16_11 N3_11 1_555 1_555
H12_11 C16_11 1_555 1_555
C17_11 H13_11 1_555 1_555
C18_11 C17_11 1_555 1_555
H14_11 C18_11 1_555 1_555
C19_11 C14_11 1_555 1_555
C20_11 C19_11 1_555 1_555
H15_11 C20_11 1_555 1_555
C21_11 N4_7 1_555 1_555
C22_11 S2_11 1_555 1_555
C4_11 C5_11 1_555 1_555
C7_11 C8_11 1_555 1_555
C9_11 C10_11 1_555 1_555
C15_11 C16_11 1_555 1_555
C18_11 C19_11 1_555 1_555
C20_11 C21_11 1_555 1_555
Cu1_12 O1_12 1_555 1_555
S1_12 O1_12 1_555 1_555
F2_12 C11_12 1_555 1_555
F3_12 C11_12 1_555 1_555
O2_12 S1_12 1_555 1_555
O3_12 S1_12 1_555 1_555
N1_12 Cu1_12 1_555 1_555
N2_8 C6_12 1_555 1_555
C1_12 N1_12 1_555 1_555
H1_12 C1_12 1_555 1_555
C2_12 C1_12 1_555 1_555
H2_12 C2_12 1_555 1_555
C3_12 C2_12 1_555 1_555
C4_12 C3_12 1_555 1_555
H3_12 C4_12 1_555 1_555
C5_12 N1_12 1_555 1_555
H4_12 C5_12 1_555 1_555
C6_12 H5_11 1_555 1_555
C7_12 C6_12 1_555 1_555
H6_12 C7_12 1_555 1_555
C8_12 C3_12 1_555 1_555
C9_12 C8_12 1_555 1_555
H7_12 C9_12 1_555 1_555
C10_12 N2_8 1_555 1_555
C11_12 S1_12 1_555 1_555
Cu3_6 N2_8 1_555 1_555
Cu2_6 N4_8 1_555 1_555
S2_12 O4_12 1_555 1_555
F5_12 C22_12 1_555 1_555
F6_12 C22_12 1_555 1_555
O4_12 Cu1_12 1_555 1_555
O5_12 S2_12 1_555 1_555
O6_12 S2_12 1_555 1_555
N3_12 Cu1_12 1_555 1_555
N4_8 C17_12 1_555 1_555
C12_12 N3_12 1_555 1_555
H9_12 C12_12 1_555 1_555
C13_12 C12_12 1_555 1_555
H10_12 C13_12 1_555 1_555
C14_12 C13_12 1_555 1_555
C15_12 C14_12 1_555 1_555
H11_12 C15_12 1_555 1_555
C16_12 N3_12 1_555 1_555
H12_12 C16_12 1_555 1_555
C17_12 H13_12 1_555 1_555
C18_12 C17_12 1_555 1_555
H14_12 C18_12 1_555 1_555
C19_12 C14_12 1_555 1_555
C20_12 C19_12 1_555 1_555
H15_12 C20_12 1_555 1_555
C21_12 N4_8 1_555 1_555
H16_12 C21_12 1_555 1_555
C22_12 S2_12 1_555 1_555
C4_12 C5_12 1_555 1_555
C7_12 C8_12 1_555 1_555
C9_12 C10_12 1_555 1_555
C15_12 C16_12 1_555 1_555
C18_12 C19_12 1_555 1_555
C20_12 C21_12 1_555 1_555
Cu2_6 O1_13 1_555 1_555
S1_13 O1_13 1_555 1_555
F1_13 C11_13 1_555 1_555
F2_13 C11_13 1_555 1_555
F3_13 C11_13 1_555 1_555
O2_13 S1_13 1_555 1_555
O3_13 S1_13 1_555 1_555
N1_13 Cu2_6 1_555 1_555
N5_6 C6_13 1_555 1_555
C1_13 N1_13 1_555 1_555
H1_13 C1_13 1_555 1_555
C2_13 C1_13 1_555 1_555
H2_13 C2_13 1_555 1_555
C3_13 C2_13 1_555 1_555
C4_13 C3_13 1_555 1_555
H3_13 C4_13 1_555 1_555
C5_13 N1_13 1_555 1_555
H4_13 C5_13 1_555 1_555
C7_13 C6_13 1_555 1_555
H6_13 C7_13 1_555 1_555
C8_13 C3_13 1_555 1_555
C9_13 C8_13 1_555 1_555
H7_13 C9_13 1_555 1_555
C10_13 N5_6 1_555 1_555
H8_13 C10_13 1_555 1_555
C11_13 S1_13 1_555 1_555
S2_13 O4_13 1_555 1_555
F4_13 C22_13 1_555 1_555
F5_13 C22_13 1_555 1_555
F6_13 C22_13 1_555 1_555
O4_13 Cu2_6 1_555 1_555
O5_13 S2_13 1_555 1_555
O6_13 S2_13 1_555 1_555
N3_13 Cu2_6 1_555 1_555
N6_5 C17_13 1_555 1_555
C12_13 N3_13 1_555 1_555
H9_13 C12_13 1_555 1_555
C13_13 C12_13 1_555 1_555
H10_13 C13_13 1_555 1_555
C14_13 C13_13 1_555 1_555
C15_13 C14_13 1_555 1_555
H11_13 C15_13 1_555 1_555
C16_13 N3_13 1_555 1_555
H12_13 C16_13 1_555 1_555
C18_13 C17_13 1_555 1_555
H14_13 C18_13 1_555 1_555
C19_13 C14_13 1_555 1_555
C20_13 C19_13 1_555 1_555
H15_13 C20_13 1_555 1_555
C21_13 N6_5 1_555 1_555
H16_13 C21_13 1_555 1_555
C22_13 S2_13 1_555 1_555
C4_13 C5_13 1_555 1_555
C7_13 C8_13 1_555 1_555
C9_13 C10_13 1_555 1_555
C15_13 C16_13 1_555 1_555
C18_13 C19_13 1_555 1_555
C20_13 C21_13 1_555 1_555
S2_14 O4_14 1_555 1_555
F4_14 C22_14 1_555 1_555
F5_14 C22_14 1_555 1_555
F6_14 C22_14 1_555 1_555
O4_14 Cu3_5 1_555 1_555
O5_14 S2_14 1_555 1_555
O6_14 S2_14 1_555 1_555
N3_14 Cu3_5 1_555 1_555
N6_6 C17_14 1_555 1_555
C12_14 N3_14 1_555 1_555
H9_14 C12_14 1_555 1_555
C13_14 C12_14 1_555 1_555
H10_14 C13_14 1_555 1_555
C14_14 C13_14 1_555 1_555
C15_14 C14_14 1_555 1_555
H11_14 C15_14 1_555 1_555
C16_14 N3_14 1_555 1_555
C18_14 C17_14 1_555 1_555
H14_14 C18_14 1_555 1_555
C19_14 C14_14 1_555 1_555
C20_14 C19_14 1_555 1_555
H15_14 C20_14 1_555 1_555
C21_14 N6_6 1_555 1_555
H16_14 C21_14 1_555 1_555
C22_14 S2_14 1_555 1_555
C15_14 C16_14 1_555 1_555
C18_14 C19_14 1_555 1_555
C20_14 C21_14 1_555 1_555
Cu3_6 O1_14 1_555 1_555
S1_14 O1_14 1_555 1_555
F1_14 C11_14 1_555 1_555
F2_14 C11_14 1_555 1_555
F3_14 C11_14 1_555 1_555
O2_14 S1_14 1_555 1_555
O3_14 S1_14 1_555 1_555
N1_14 Cu3_6 1_555 1_555
N5_5 C6_14 1_555 1_555
C1_14 N1_14 1_555 1_555
H1_14 C1_14 1_555 1_555
C2_14 C1_14 1_555 1_555
H2_14 C2_14 1_555 1_555
C3_14 C2_14 1_555 1_555
C4_14 C3_14 1_555 1_555
H3_14 C4_14 1_555 1_555
C5_14 N1_14 1_555 1_555
C7_14 C6_14 1_555 1_555
H6_14 C7_14 1_555 1_555
C8_14 C3_14 1_555 1_555
C9_14 C8_14 1_555 1_555
H7_14 C9_14 1_555 1_555
C10_14 N5_5 1_555 1_555
H8_14 C10_14 1_555 1_555
C11_14 S1_14 1_555 1_555
C4_14 C5_14 1_555 1_555
C7_14 C8_14 1_555 1_555
C9_14 C10_14 1_555 1_555
S2_15 O4_15 1_555 1_555
F4_15 C22_15 1_555 1_555
F5_15 C22_15 1_555 1_555
F6_15 C22_15 1_555 1_555
O4_15 Cu2_4 1_555 1_555
O5_15 S2_15 1_555 1_555
O6_15 S2_15 1_555 1_555
N3_15 Cu2_4 1_555 1_555
N6_7 C17_15 1_555 1_555
C12_15 N3_15 1_555 1_555
H9_15 C12_15 1_555 1_555
C13_15 C12_15 1_555 1_555
H10_15 C13_15 1_555 1_555
C14_15 C13_15 1_555 1_555
C15_15 C14_15 1_555 1_555
H11_15 C15_15 1_555 1_555
C16_15 N3_15 1_555 1_555
C17_15 H13_15 1_555 1_555
C18_15 C17_15 1_555 1_555
H14_15 C18_15 1_555 1_555
C19_15 C14_15 1_555 1_555
C20_15 C19_15 1_555 1_555
H15_15 C20_15 1_555 1_555
C21_15 N6_7 1_555 1_555
H16_15 C21_15 1_555 1_555
C22_15 S2_15 1_555 1_555
C15_15 C16_15 1_555 1_555
C18_15 C19_15 1_555 1_555
C20_15 C21_15 1_555 1_555
Cu2_5 O1_15 1_555 1_555
S1_15 O1_15 1_555 1_555
F1_15 C11_15 1_555 1_555
F2_15 C11_15 1_555 1_555
F3_15 C11_15 1_555 1_555
O2_15 S1_15 1_555 1_555
O3_15 S1_15 1_555 1_555
N1_15 Cu2_5 1_555 1_555
N5_8 C6_15 1_555 1_555
C1_15 N1_15 1_555 1_555
H1_15 C1_15 1_555 1_555
C2_15 C1_15 1_555 1_555
H2_15 C2_15 1_555 1_555
C3_15 C2_15 1_555 1_555
C4_15 C3_15 1_555 1_555
H3_15 C4_15 1_555 1_555
C5_15 N1_15 1_555 1_555
C6_15 H5_13 1_555 1_555
C7_15 C6_15 1_555 1_555
H6_15 C7_15 1_555 1_555
C8_15 C3_15 1_555 1_555
C9_15 C8_15 1_555 1_555
H7_15 C9_15 1_555 1_555
C10_15 N5_8 1_555 1_555
H8_15 C10_15 1_555 1_555
C11_15 S1_15 1_555 1_555
C4_15 C5_15 1_555 1_555
C7_15 C8_15 1_555 1_555
C9_15 C10_15 1_555 1_555
Cu3_4 O1_16 1_555 1_555
S1_16 O1_16 1_555 1_555
F1_16 C11_16 1_555 1_555
F2_16 C11_16 1_555 1_555
F3_16 C11_16 1_555 1_555
O2_16 S1_16 1_555 1_555
O3_16 S1_16 1_555 1_555
N1_16 Cu3_4 1_555 1_555
N5_7 C6_16 1_555 1_555
C1_16 N1_16 1_555 1_555
H1_16 C1_16 1_555 1_555
C2_16 C1_16 1_555 1_555
H2_16 C2_16 1_555 1_555
C3_16 C2_16 1_555 1_555
C4_16 C3_16 1_555 1_555
H3_16 C4_16 1_555 1_555
C5_16 N1_16 1_555 1_555
H4_16 C5_16 1_555 1_555
C6_16 H5_14 1_555 1_555
C7_16 C6_16 1_555 1_555
H6_16 C7_16 1_555 1_555
C8_16 C3_16 1_555 1_555
C9_16 C8_16 1_555 1_555
H7_16 C9_16 1_555 1_555
C10_16 N5_7 1_555 1_555
H8_16 C10_16 1_555 1_555
C11_16 S1_16 1_555 1_555
S2_16 O4_16 1_555 1_555
F4_16 C22_16 1_555 1_555
F5_16 C22_16 1_555 1_555
F6_16 C22_16 1_555 1_555
O4_16 Cu3_4 1_555 1_555
O5_16 S2_16 1_555 1_555
O6_16 S2_16 1_555 1_555
N3_16 Cu3_4 1_555 1_555
N6_8 C17_16 1_555 1_555
C12_16 N3_16 1_555 1_555
H9_16 C12_16 1_555 1_555
C13_16 C12_16 1_555 1_555
H10_16 C13_16 1_555 1_555
C14_16 C13_16 1_555 1_555
C15_16 C14_16 1_555 1_555
H11_16 C15_16 1_555 1_555
C16_16 N3_16 1_555 1_555
H12_16 C16_16 1_555 1_555
C17_16 H13_16 1_555 1_555
C18_16 C17_16 1_555 1_555
H14_16 C18_16 1_555 1_555
C19_16 C14_16 1_555 1_555
C20_16 C19_16 1_555 1_555
H15_16 C20_16 1_555 1_555
C21_16 N6_8 1_555 1_555
H16_16 C21_16 1_555 1_555
C22_16 S2_16 1_555 1_555
C4_16 C5_16 1_555 1_555
C7_16 C8_16 1_555 1_555
C9_16 C10_16 1_555 1_555
C15_16 C16_16 1_555 1_555
C18_16 C19_16 1_555 1_555
C20_16 C21_16 1_555 1_555

#END
