
###############################################################################
#
# This file contains modified crystal structure data generated from the
# MOF subset of the Cambridge Structural Database (CSD) v543 
# hosted by the Cambridge Crystallographic Data Centre (CCDC).
#
# This work is licensed under the Creative Commons
# Attribution-NonCommercial-ShareAlike 4.0 International License.
# To view a copy of this license, visit
# http://creativecommons.org/licenses/by-nc-sa/4.0/
# or send a letter to
# Creative Commons, PO Box 1866, Mountain View, CA 94042, USA.
#
# CIF created using the CSD Python API on 29 September 2022
# The structure has been converted into the P1 space group
# The structure has a 3D framework
# The original CSD entry UYAPOA is in the rhombohedral crystal system
# The framework has been calculated to contain at least 10.0% void space
# The void calculation uses a probe of radius 1.32A, grid spacing 0.4
#
###############################################################################

data_UYAPOA
_chemical_formula_moiety         '(C792 H432 O150 Zn28)n'
_symmetry_cell_setting           triclinic
_symmetry_space_group_name_H-M   'P 1'
_symmetry_Int_Tables_number      1
_space_group_name_Hall           'P 1'
loop_
_symmetry_equiv_pos_site_id
_symmetry_equiv_pos_as_xyz
1 x,y,z
_cell_length_a                   20.4586(8)
_cell_length_b                   20.4586(8)
_cell_length_c                   80.370(3)
_cell_angle_alpha                90
_cell_angle_beta                 90
_cell_angle_gamma                120
_cell_volume                     29132.4
loop_
_atom_site_label
_atom_site_type_symbol
_atom_site_fract_x
_atom_site_fract_y
_atom_site_fract_z
Zn14 Zn -0.0000 0.0000 0.935142(14)
C24 C 0.1754(3) 0.6213(2) 0.05028(5)
C26 C 0.1089(3) 0.6036(2) 0.03923(5)
C28 C 0.0966(4) 0.6625(2) 0.03397(5)
H14 H 0.1269 0.7113 0.0379
C30 C 0.0397(4) 0.6469(2) 0.02300(6)
H16 H 0.0331 0.6862 0.0192
C34 C 0.0023(3) 0.5167(2) 0.02321(6)
C36 C 0.0607(4) 0.5319(3) 0.03391(6)
H20 H 0.0675 0.4926 0.0376
O7 O 0.21941(24) 0.68884(17) 0.05368(4)
O17 O 0.18151(24) 0.56685(17) 0.05526(4)
Zn5 Zn 0.26087(2) 0.56571(2) 0.069132(5)
Zn9 Zn 0.30484(3) 0.73913(2) 0.069132(5)
Zn14_2 Zn -0.0000 1.0000 0.935142(14)
Zn14_3 Zn 1.0000 0.0000 0.935142(14)
C1 C 0.3787(2) 0.5541(2) 0.05028(5)
C2 C 0.3964(2) 0.5053(2) 0.03923(5)
C3 C 0.3375(2) 0.4341(3) 0.03397(5)
H1 H 0.2887 0.4156 0.0379
C4 C 0.3531(2) 0.3928(3) 0.02300(6)
H2 H 0.3138 0.3469 0.0192
C5 C 0.4266(2) 0.4172(2) 0.01719(5)
C6 C 0.4833(2) 0.4856(2) 0.02321(6)
H3 H 0.5329 0.5028 0.0199
C7 C 0.4681(3) 0.5288(2) 0.03391(6)
H4 H 0.5074 0.5749 0.0376
C8 C 0.4410(2) 0.3707(2) 0.00525(5)
C9 C 0.5108(2) 0.3738(2) 0.00479(5)
H5 H 0.5484 0.4046 0.0123
O1 O 0.31116(17) 0.53057(17) 0.05368(4)
O3 O 0.3333 0.6667 0.07665(5)
O4 O 0.43315(17) 0.61466(17) 0.05526(4)
Zn2 Zn 0.3333 0.6667 0.101809(14)
C31 C 0.5828(2) 0.0094(3) 0.01719(5)
C32 C 0.9906(3) 0.5734(2) 0.01719(5)
H17 H 0.4972 0.0301 0.0199
H18 H 0.9699 0.4671 0.0199
C37 C 0.6293(2) 0.0703(3) 0.00525(5)
C38 C 0.9297(3) 0.5590(2) 0.00525(5)
C39 C 0.6262(2) 0.1370(3) 0.00479(5)
C40 C 0.8630(3) 0.4892(2) 0.00479(5)
H21 H 0.5954 0.1438 0.0123
H22 H 0.8562 0.4516 0.0123
O12 O 0.2096(2) 0.4822(2) 0.08433(5)
O22 O 0.2698(4) 0.5663(5) 0.10626(9)
O23 O 0.2964(6) 0.7302(4) 0.10626(9)
O24 O 0.4337(5) 0.7036(6) 0.10626(9)
Zn7 Zn 0.43429(2) 0.69516(3) 0.069132(5)
C10 C 0.5250(2) 0.3306(2) 0.99310(5)
C11 C 0.4690(2) 0.2867(2) 0.98168(5)
H6 H 0.4780 0.2585 0.9739
C12 C 0.3995(2) 0.2841(2) 0.98162(5)
C13 C 0.3869(2) 0.3269(3) 0.99357(5)
H7 H 0.3408 0.3257 0.9936
C14 C 0.3404(2) 0.2397(3) 0.96934(6)
C15 C 0.2656(3) 0.2031(4) 0.97333(7)
H8 H 0.2520 0.2064 0.9842
C16 C 0.2090(4) 0.1613(4) 0.96199(8)
H9 H 0.1587 0.1351 0.9653
C17 C 0.2297(3) 0.1596(4) 0.94531(7)
C18 C 0.3048(3) 0.1972(3) 0.94111(6)
H10 H 0.3188 0.1967 0.9301
C19 C 0.3595(3) 0.2352(3) 0.95280(6)
H11 H 0.4101 0.2583 0.9497
C20 C 0.5979(2) 0.3321(2) 0.99305(5)
C21 C 0.5995(2) 0.2646(2) 0.99318(5)
H12 H 0.5545 0.2186 0.9933
C22 C 0.1673(5) 0.1167(3) 0.93297(9)
O2 O 0.1845(2) 0.1237(2) 0.91766(5)
O5 O 0.1004(5) 0.0635(4) 0.93959(9)
C41 C 0.6694(2) 0.1944(3) 0.99310(5)
C42 C 0.8056(3) 0.4750(2) 0.99310(5)
C43 C 0.7133(2) 0.1823(3) 0.98168(5)
C44 C 0.8177(3) 0.5310(2) 0.98168(5)
H23 H 0.7415 0.2195 0.9739
H24 H 0.7805 0.5220 0.9739
C45 C 0.7159(2) 0.1154(3) 0.98162(5)
C46 C 0.8846(3) 0.6005(2) 0.98162(5)
C47 C 0.6731(3) 0.0600(4) 0.99357(5)
C48 C 0.9400(4) 0.6131(2) 0.99357(5)
H25 H 0.6743 0.0151 0.9936
H26 H 0.9849 0.6592 0.9936
C49 C 0.7603(3) 0.1007(4) 0.96934(6)
C50 C 0.8993(4) 0.6596(2) 0.96934(6)
C51 C 0.7969(4) 0.0625(5) 0.97333(7)
C52 C 0.9375(5) 0.7344(3) 0.97333(7)
H27 H 0.7936 0.0456 0.9842
H28 H 0.9544 0.7480 0.9842
C53 C 0.8387(4) 0.0477(6) 0.96199(8)
C54 C 0.9523(6) 0.7910(4) 0.96199(8)
H29 H 0.8649 0.0236 0.9653
H30 H 0.9764 0.8413 0.9653
C55 C 0.8404(4) 0.0701(5) 0.94531(7)
C56 C 0.9299(5) 0.7703(3) 0.94531(7)
C57 C 0.8028(3) 0.1076(4) 0.94111(6)
C58 C 0.8924(4) 0.6952(3) 0.94111(6)
H31 H 0.8033 0.1221 0.9301
H32 H 0.8779 0.6812 0.9301
C59 C 0.7648(3) 0.1243(4) 0.95280(6)
C60 C 0.8757(4) 0.6405(3) 0.95280(6)
H33 H 0.7417 0.1518 0.9497
H34 H 0.8482 0.5899 0.9497
C61 C 0.6679(2) 0.2658(3) 0.99305(5)
C62 C 0.7342(3) 0.4021(2) 0.99305(5)
C63 C 0.7354(2) 0.3349(3) 0.99318(5)
C64 C 0.6651(3) 0.4005(2) 0.99318(5)
H35 H 0.7814 0.3359 0.9933
H36 H 0.6641 0.4455 0.9933
C65 C 0.8833(3) 0.0506(6) 0.93297(9)
C66 C 0.9494(6) 0.8327(5) 0.93297(9)
O8 O 0.13610(17) 0.02217(17) 0.88701(4)
O10 O 0.8763(2) 0.0608(3) 0.91766(5)
O11 O 0.9392(3) 0.8155(2) 0.91766(5)
O15 O -0.0000 0.0000 0.90998(5)
O19 O 0.09982(17) 0.15182(24) 0.88859(4)
O20 O 0.9365(4) 0.0369(6) 0.93959(9)
O21 O 0.9631(6) 0.8996(5) 0.93959(9)
Zn4 Zn 0.10096(2) 0.07246(2) 0.902465(5)
Zn10 Zn 0.97151(3) 0.89904(2) 0.902465(5)
Zn11 Zn 0.92754(2) 0.02849(3) 0.902465(5)
Zn14_4 Zn 1.0000 1.0000 0.935142(14)
C23 C 0.4459(2) 0.8246(3) 0.05028(5)
C25 C 0.4947(2) 0.8911(3) 0.03923(5)
C27 C 0.5659(3) 0.9034(4) 0.03397(5)
H13 H 0.5844 0.8731 0.0379
C29 C 0.6072(3) 0.9603(4) 0.02300(6)
H15 H 0.6531 0.9669 0.0192
C33 C 0.5144(2) 0.9977(3) 0.02321(6)
C35 C 0.4712(2) 0.9393(4) 0.03391(6)
H19 H 0.4251 0.9325 0.0376
O6 O 0.46943(17) 0.78059(24) 0.05368(4)
O13 O 0.2725(3) 0.7904(2) 0.08433(5)
O16 O 0.38534(17) 0.81849(24) 0.05526(4)
O15_2 O -0.0000 1.0000 0.90998(5)
O15_3 O 1.0000 0.0000 0.90998(5)
O15_4 O 1.0000 1.0000 0.90998(5)
O8_2 O 0.97783(17) 0.11392(24) 0.88701(4)
O12_2 O 0.5178(2) 0.7275(3) 0.08433(5)
O19_2 O 0.84818(24) 0.94799(29) 0.88859(4)
O19_3 O 0.05201(29) 0.90018(17) 0.88859(4)
O8_3 O 0.88608(24) 0.86390(17) 0.88701(4)
O3_2 O -0.0000 0.0000 0.40998(5)
Zn2_2 Zn -0.0000 0.0000 0.435142(14)
H14_2 H 0.7936 0.0446 0.3712
H16_2 H 0.6998 0.0195 0.3525
C52_2 C 0.6042(5) 0.0677(3) 0.30666(7)
H28_2 H 0.6211 0.0813 0.3175
C54_2 C 0.6190(6) 0.1243(4) 0.29532(8)
H30_2 H 0.6431 0.1746 0.2986
C56_2 C 0.5966(5) 0.1036(3) 0.27864(7)
C58_2 C 0.5591(4) 0.0285(3) 0.27444(6)
H32_2 H 0.5446 0.0145 0.2634
C66_2 C 0.6161(6) 0.1660(5) 0.26630(9)
O7_2 O 0.88608(24) 0.02217(17) 0.38701(4)
O11_2 O 0.6059(3) 0.1488(2) 0.25099(5)
O21_2 O 0.6298(6) 0.2329(5) 0.27292(9)
O24_2 O 0.1004(5) 0.0369(6) 0.43959(9)
Zn7_2 Zn 0.10096(2) 0.02849(3) 0.402465(5)
Zn9_2 Zn 0.97151(3) 0.07246(2) 0.402465(5)
Zn10_2 Zn 0.63817(3) 0.23238(2) 0.235799(5)
Zn14_5 Zn 0.6666 0.3334 0.268476(14)
C1_2 C 0.0454(2) 0.8874(2) 0.38361(5)
C2_2 C 0.0631(2) 0.8386(2) 0.37256(5)
C3_2 C 0.0042(2) 0.7674(3) 0.36730(5)
C4_2 C 0.0198(2) 0.7261(3) 0.35633(6)
C5_2 C 0.0933(2) 0.7505(2) 0.35052(5)
C6_2 C 0.1500(2) 0.8189(2) 0.35654(6)
H3_2 H 0.1996 0.8361 0.3532
C7_2 C 0.1348(3) 0.8621(2) 0.36724(6)
H4_2 H 0.1741 0.9082 0.3709
C8_2 C 0.1077(2) 0.7040(2) 0.33858(5)
C9_2 C 0.1775(2) 0.7071(2) 0.33812(5)
H5_2 H 0.2151 0.7379 0.3456
C10_2 C 0.1917(2) 0.6639(2) 0.32643(5)
C11_2 C 0.1357(2) 0.6200(2) 0.31501(5)
H6_2 H 0.1447 0.5918 0.3072
C12_2 C 0.0662(2) 0.6174(2) 0.31495(5)
C13_2 C 0.0536(2) 0.6602(3) 0.32690(5)
H7_2 H 0.0075 0.6590 0.3269
C14_2 C 0.0071(2) 0.5730(3) 0.30267(6)
C19_2 C 0.0262(3) 0.5685(3) 0.28613(6)
H11_2 H 0.0768 0.5916 0.2830
C20_2 C 0.2646(2) 0.6654(2) 0.32638(5)
C21_2 C 0.2662(2) 0.5979(2) 0.32651(5)
H12_2 H 0.2212 0.5519 0.3266
O3_3 O -0.0000 1.0000 0.40998(5)
O4_2 O 0.09982(17) 0.94799(17) 0.38859(4)
Zn2_3 Zn -0.0000 1.0000 0.435142(14)
C23_2 C 0.1126(2) 0.1579(3) 0.38361(5)
C24_2 C 0.8421(3) 0.9546(2) 0.38361(5)
C25_2 C 0.1614(2) 0.2244(3) 0.37256(5)
C26_2 C 0.7756(3) 0.9369(2) 0.37256(5)
C27_2 C 0.2326(3) 0.2367(4) 0.36730(5)
C28_2 C 0.7633(4) 0.9958(2) 0.36730(5)
H13_2 H 0.2511 0.2064 0.3712
C29_2 C 0.2739(3) 0.2936(4) 0.35633(6)
C30_2 C 0.7064(4) 0.9802(2) 0.35633(6)
H15_2 H 0.3198 0.3002 0.3525
C31_2 C 0.2495(2) 0.3427(3) 0.35052(5)
C32_2 C 0.6573(3) 0.9067(2) 0.35052(5)
C33_2 C 0.1811(2) 0.3310(3) 0.35654(6)
C34_2 C 0.6690(3) 0.8500(2) 0.35654(6)
H17_2 H 0.1639 0.3634 0.3532
H18_2 H 0.6366 0.8004 0.3532
C35_2 C 0.1379(2) 0.2726(4) 0.36724(6)
C36_2 C 0.7274(4) 0.8652(3) 0.36724(6)
H19_2 H 0.0918 0.2658 0.3709
H20_2 H 0.7342 0.8259 0.3709
C37_2 C 0.2960(2) 0.4036(3) 0.33858(5)
C38_2 C 0.5964(3) 0.8923(2) 0.33858(5)
C39_2 C 0.2929(2) 0.4703(3) 0.33812(5)
C40_2 C 0.5297(3) 0.8225(2) 0.33812(5)
H21_2 H 0.2621 0.4771 0.3456
H22_2 H 0.5229 0.7849 0.3456
C41_2 C 0.3361(2) 0.5277(3) 0.32643(5)
C42_2 C 0.4723(3) 0.8083(2) 0.32643(5)
C43_2 C 0.3800(2) 0.5156(3) 0.31501(5)
C44_2 C 0.4844(3) 0.8643(2) 0.31501(5)
H23_2 H 0.4082 0.5528 0.3072
H24_2 H 0.4472 0.8553 0.3072
C45_2 C 0.3826(2) 0.4487(3) 0.31495(5)
C46_2 C 0.5513(3) 0.9338(2) 0.31495(5)
C47_2 C 0.3398(3) 0.3933(4) 0.32690(5)
C48_2 C 0.6067(4) 0.9464(2) 0.32690(5)
H25_2 H 0.3410 0.3484 0.3269
H26_2 H 0.6516 0.9925 0.3269
C49_2 C 0.4270(3) 0.4340(4) 0.30267(6)
C50_2 C 0.5660(4) 0.9929(2) 0.30267(6)
C51_2 C 0.4636(4) 0.3958(5) 0.30666(7)
H27_2 H 0.4603 0.3789 0.3175
C53_2 C 0.5054(4) 0.3810(6) 0.29532(8)
H29_2 H 0.5316 0.3569 0.2986
C55_2 C 0.5071(4) 0.4034(5) 0.27864(7)
C57_2 C 0.4695(3) 0.4409(4) 0.27444(6)
H31_2 H 0.4700 0.4554 0.2634
C59_2 C 0.4315(3) 0.4576(4) 0.28613(6)
C60_2 C 0.5424(4) 0.9738(3) 0.28613(6)
H33_2 H 0.4084 0.4851 0.2830
H34_2 H 0.5149 0.9232 0.2830
C61_2 C 0.3346(2) 0.5991(3) 0.32638(5)
C62_2 C 0.4009(3) 0.7354(2) 0.32638(5)
C63_2 C 0.4021(2) 0.6682(3) 0.32651(5)
C64_2 C 0.3318(3) 0.7338(2) 0.32651(5)
H35_2 H 0.4481 0.6692 0.3266
H36_2 H 0.3308 0.7788 0.3266
C65_2 C 0.5500(3) 0.3839(6) 0.26630(9)
O6_2 O 0.13610(17) 0.11392(24) 0.38701(4)
O10_2 O 0.5430(2) 0.3941(3) 0.25099(5)
O16_2 O 0.05201(17) 0.15182(24) 0.38859(4)
O17_2 O 0.84818(24) 0.90018(17) 0.38859(4)
O20_2 O 0.6032(4) 0.3702(6) 0.27292(9)
Zn5_2 Zn 0.92754(2) 0.89904(2) 0.402465(5)
Zn11_2 Zn 0.59420(2) 0.36183(3) 0.235799(5)
O3_4 O 1.0000 0.0000 0.40998(5)
Zn2_4 Zn 1.0000 0.0000 0.435142(14)
O23_2 O 0.9631(6) 0.0635(4) 0.43959(9)
H1_2 H 0.9554 0.7489 0.3712
H2_2 H 0.9805 0.6802 0.3525
C15_2 C 0.9323(3) 0.5364(4) 0.30666(7)
H8_2 H 0.9187 0.5397 0.3175
C16_2 C 0.8757(4) 0.4946(4) 0.29532(8)
H9_2 H 0.8254 0.4684 0.2986
C17_2 C 0.8964(3) 0.4929(4) 0.27864(7)
C18_2 C 0.9715(3) 0.5305(3) 0.27444(6)
H10_2 H 0.9855 0.5300 0.2634
C22_2 C 0.8340(5) 0.4500(3) 0.26630(9)
O1_2 O 0.97783(17) 0.86390(17) 0.38701(4)
O2_2 O 0.8512(2) 0.4570(2) 0.25099(5)
O3_5 O 1.0000 1.0000 0.40998(5)
O5_2 O 0.7671(5) 0.3968(4) 0.27292(9)
Zn2_5 Zn 1.0000 1.0000 0.435142(14)
O8_4 O 0.80276(17) 0.35551(17) 0.22035(4)
O12_3 O 0.8763(2) 0.8155(2) 0.41766(5)
O13_2 O 0.9392(3) 0.1237(2) 0.41766(5)
O15_5 O 0.6666 0.3334 0.24332(5)
O19_4 O 0.76648(17) 0.48516(24) 0.22193(4)
O22_2 O 0.9365(4) 0.8996(5) 0.43959(9)
Zn4_2 Zn 0.76762(2) 0.40580(2) 0.235799(5)
O8_5 O 0.64449(17) 0.44726(24) 0.22035(4)
O12_4 O 0.1845(2) 0.0608(3) 0.41766(5)
O19_5 O 0.51484(24) 0.28133(29) 0.22193(4)
O8_6 O 0.55274(24) 0.19724(17) 0.22035(4)
O19_6 O 0.71867(29) 0.23352(17) 0.22193(4)
C24_3 C 0.5087(3) 0.2880(2) 0.71695(5)
C26_3 C 0.4422(3) 0.2703(2) 0.70590(5)
C28_3 C 0.4299(4) 0.3292(2) 0.70064(5)
H14_3 H 0.4602 0.3780 0.7046
C30_3 C 0.3730(4) 0.3136(2) 0.68967(6)
H16_3 H 0.3664 0.3529 0.6859
C32_3 C 0.3239(3) 0.2401(2) 0.68386(5)
C34_3 C 0.3356(3) 0.1834(2) 0.68988(6)
H18_3 H 0.3032 0.1338 0.6866
C36_3 C 0.3940(4) 0.1986(3) 0.70058(6)
H20_3 H 0.4008 0.1593 0.7043
C38_3 C 0.2630(3) 0.2257(2) 0.67192(5)
C40_3 C 0.1963(3) 0.1559(2) 0.67146(5)
H22_3 H 0.1895 0.1183 0.6790
C42_3 C 0.1389(3) 0.1417(2) 0.65977(5)
C44_3 C 0.1510(3) 0.1977(2) 0.64835(5)
H24_3 H 0.1138 0.1887 0.6406
C46_3 C 0.2179(3) 0.2672(2) 0.64829(5)
C48_3 C 0.2733(4) 0.2798(2) 0.66024(5)
H26_3 H 0.3182 0.3259 0.6603
C50_3 C 0.2326(4) 0.3263(2) 0.63601(6)
C52_3 C 0.2708(5) 0.4011(3) 0.64000(7)
H28_3 H 0.2877 0.4147 0.6509
C54_3 C 0.2856(6) 0.4577(4) 0.62866(8)
H30_3 H 0.3097 0.5080 0.6320
C56_3 C 0.2632(5) 0.4370(3) 0.61198(7)
C58_3 C 0.2257(4) 0.3619(3) 0.60778(6)
H32_3 H 0.2112 0.3479 0.5968
C60_3 C 0.2090(4) 0.3072(3) 0.61947(6)
H34_3 H 0.1815 0.2566 0.6164
C62_3 C 0.0675(3) 0.0688(2) 0.65972(5)
C63_3 C 0.0687(2) 0.0016(3) 0.65985(5)
H35_3 H 0.1147 0.0026 0.6600
C66_3 C 0.2827(6) 0.4994(5) 0.59964(9)
O7_3 O 0.55274(24) 0.35551(17) 0.72035(4)
O11_3 O 0.2725(3) 0.4822(2) 0.58433(5)
O17_3 O 0.51484(24) 0.23352(17) 0.72193(4)
O21_3 O 0.2964(6) 0.5663(5) 0.60626(9)
Zn5_3 Zn 0.59420(2) 0.23238(2) 0.735799(5)
Zn9_3 Zn 0.63817(3) 0.40580(2) 0.735799(5)
Zn10_3 Zn 0.30484(3) 0.56571(2) 0.569132(5)
Zn14_6 Zn 0.3333 0.6667 0.601809(14)
C41_3 C 0.0027(2) 0.8611(3) 0.65977(5)
C43_3 C 0.0466(2) 0.8490(3) 0.64835(5)
H23_3 H 0.0748 0.8862 0.6406
C45_3 C 0.0492(2) 0.7821(3) 0.64829(5)
C47_3 C 0.0064(3) 0.7267(4) 0.66024(5)
H25_3 H 0.0076 0.6818 0.6603
C49_3 C 0.0936(3) 0.7674(4) 0.63601(6)
C51_3 C 0.1302(4) 0.7292(5) 0.64000(7)
H27_3 H 0.1269 0.7123 0.6509
C53_3 C 0.1720(4) 0.7144(6) 0.62866(8)
H29_3 H 0.1982 0.6903 0.6320
C55_3 C 0.1737(4) 0.7368(5) 0.61198(7)
C57_3 C 0.1361(3) 0.7743(4) 0.60778(6)
H31_3 H 0.1366 0.7888 0.5968
C59_3 C 0.0981(3) 0.7910(4) 0.61947(6)
H33_3 H 0.0750 0.8185 0.6164
C61_3 C 0.0012(2) 0.9325(3) 0.65972(5)
C65_3 C 0.2166(3) 0.7173(6) 0.59964(9)
O10_3 O 0.2096(2) 0.7275(3) 0.58433(5)
O20_3 O 0.2698(4) 0.7036(6) 0.60626(9)
Zn11_3 Zn 0.26087(2) 0.69516(3) 0.569132(5)
C1_3 C 0.7120(2) 0.2208(2) 0.71695(5)
C2_3 C 0.7297(2) 0.1720(2) 0.70590(5)
C3_3 C 0.6708(2) 0.1008(3) 0.70064(5)
H1_3 H 0.6220 0.0823 0.7046
C4_3 C 0.6864(2) 0.0595(3) 0.68967(6)
H2_3 H 0.6471 0.0136 0.6859
C5_3 C 0.7599(2) 0.0839(2) 0.68386(5)
C6_3 C 0.8166(2) 0.1523(2) 0.68988(6)
H3_3 H 0.8662 0.1695 0.6866
C7_3 C 0.8014(3) 0.1955(2) 0.70058(6)
H4_3 H 0.8407 0.2416 0.7043
C8_3 C 0.7743(2) 0.0374(2) 0.67192(5)
C9_3 C 0.8441(2) 0.0405(2) 0.67146(5)
H5_3 H 0.8817 0.0713 0.6790
O1_3 O 0.64449(17) 0.19724(17) 0.72035(4)
O3_6 O 0.6666 0.3334 0.74332(5)
O4_3 O 0.76648(17) 0.28133(17) 0.72193(4)
Zn2_6 Zn 0.6666 0.3334 0.768476(14)
C64_3 C 0.9984(3) 0.0672(2) 0.65985(5)
H36_3 H 0.9974 0.1122 0.6600
O12_5 O 0.5430(2) 0.1488(2) 0.75099(5)
O22_3 O 0.6032(4) 0.2329(5) 0.77292(9)
O23_3 O 0.6298(6) 0.3968(4) 0.77292(9)
O24_3 O 0.7671(5) 0.3702(6) 0.77292(9)
Zn7_3 Zn 0.76762(2) 0.36183(3) 0.735799(5)
C10_3 C 0.8583(2) 0.9973(2) 0.65977(5)
C11_3 C 0.8023(2) 0.9534(2) 0.64835(5)
H6_3 H 0.8113 0.9252 0.6406
C12_3 C 0.7328(2) 0.9508(2) 0.64829(5)
C13_3 C 0.7202(2) 0.9936(3) 0.66024(5)
H7_3 H 0.6741 0.9924 0.6603
C14_3 C 0.6737(2) 0.9064(3) 0.63601(6)
C15_3 C 0.5989(3) 0.8698(4) 0.64000(7)
H8_3 H 0.5853 0.8731 0.6509
C16_3 C 0.5423(4) 0.8280(4) 0.62866(8)
H9_3 H 0.4920 0.8018 0.6320
C17_3 C 0.5630(3) 0.8263(4) 0.61198(7)
C18_3 C 0.6381(3) 0.8639(3) 0.60778(6)
H10_3 H 0.6521 0.8634 0.5968
C19_3 C 0.6928(3) 0.9019(3) 0.61947(6)
H11_3 H 0.7434 0.9250 0.6164
C20_3 C 0.9312(2) 0.9988(2) 0.65972(5)
C21_3 C 0.9328(2) 0.9313(2) 0.65985(5)
H12_3 H 0.8878 0.8853 0.6600
C22_3 C 0.5006(5) 0.7834(3) 0.59964(9)
O2_3 O 0.5178(2) 0.7904(2) 0.58433(5)
O5_3 O 0.4337(5) 0.7302(4) 0.60626(9)
C23_3 C 0.7792(2) 0.4913(3) 0.71695(5)
C25_3 C 0.8280(2) 0.5578(3) 0.70590(5)
C27_3 C 0.8992(3) 0.5701(4) 0.70064(5)
H13_3 H 0.9177 0.5398 0.7046
C29_3 C 0.9405(3) 0.6270(4) 0.68967(6)
H15_3 H 0.9864 0.6336 0.6859
C31_3 C 0.9161(2) 0.6761(3) 0.68386(5)
C33_3 C 0.8477(2) 0.6644(3) 0.68988(6)
H17_3 H 0.8305 0.6968 0.6866
C35_3 C 0.8045(2) 0.6060(4) 0.70058(6)
H19_3 H 0.7584 0.5992 0.7043
C37_3 C 0.9626(2) 0.7370(3) 0.67192(5)
C39_3 C 0.9595(2) 0.8037(3) 0.67146(5)
H21_3 H 0.9287 0.8105 0.6790
O6_3 O 0.80276(17) 0.44726(24) 0.72035(4)
O8_7 O 0.46943(17) 0.68884(17) 0.55368(4)
O13_3 O 0.6059(3) 0.4570(2) 0.75099(5)
O15_6 O 0.3333 0.6667 0.57665(5)
O16_3 O 0.71867(17) 0.48516(24) 0.72193(4)
O19_7 O 0.43315(17) 0.81849(24) 0.55526(4)
Zn4_3 Zn 0.43429(2) 0.73913(2) 0.569132(5)
O8_8 O 0.31116(17) 0.78059(24) 0.55368(4)
O19_8 O 0.18151(24) 0.61466(29) 0.55526(4)
O12_6 O 0.8512(2) 0.3941(3) 0.75099(5)
O8_9 O 0.21941(24) 0.53057(17) 0.55368(4)
O19_9 O 0.38534(29) 0.56685(17) 0.55526(4)
C23_4 C 0.1754(3) 0.5541(2) 0.55028(5)
C25_4 C 0.1089(3) 0.5053(2) 0.53923(5)
C27_4 C 0.0966(4) 0.4341(3) 0.53397(5)
H13_4 H 0.1269 0.4156 0.5379
C29_4 C 0.0397(4) 0.3928(3) 0.52300(6)
H15_4 H 0.0331 0.3469 0.5192
C33_4 C 0.0023(3) 0.4856(2) 0.52321(6)
C35_4 C 0.0607(4) 0.5288(2) 0.53391(6)
H19_4 H 0.0675 0.5749 0.5376
C1_4 C 0.4459(2) 0.6213(2) 0.55028(5)
C2_4 C 0.4947(2) 0.6036(2) 0.53923(5)
C3_4 C 0.5659(3) 0.6625(2) 0.53397(5)
H1_4 H 0.5844 0.7113 0.5379
C4_4 C 0.6072(3) 0.6469(2) 0.52300(6)
H2_4 H 0.6531 0.6862 0.5192
C5_4 C 0.5828(2) 0.5734(2) 0.51719(5)
C6_4 C 0.5144(2) 0.5167(2) 0.52321(6)
H3_4 H 0.4972 0.4671 0.5199
C7_4 C 0.4712(2) 0.5319(3) 0.53391(6)
H4_4 H 0.4251 0.4926 0.5376
C8_4 C 0.6293(2) 0.5590(2) 0.50525(5)
C9_4 C 0.6262(2) 0.4892(2) 0.50479(5)
H5_4 H 0.5954 0.4516 0.5123
C10_4 C 0.6694(2) 0.4750(2) 0.49310(5)
C11_4 C 0.7133(2) 0.5310(2) 0.48168(5)
H6_4 H 0.7415 0.5220 0.4739
C12_4 C 0.7159(2) 0.6005(2) 0.48162(5)
C13_4 C 0.6731(3) 0.6131(2) 0.49357(5)
H7_4 H 0.6743 0.6592 0.4936
C14_4 C 0.7603(3) 0.6596(2) 0.46934(6)
C15_4 C 0.7969(4) 0.7344(3) 0.47333(7)
H8_4 H 0.7936 0.7480 0.4842
C16_4 C 0.8387(4) 0.7910(4) 0.46199(8)
H9_4 H 0.8649 0.8413 0.4653
C17_4 C 0.8404(4) 0.7703(3) 0.44531(7)
C18_4 C 0.8028(3) 0.6952(3) 0.44111(6)
H10_4 H 0.8033 0.6812 0.4301
C19_4 C 0.7648(3) 0.6405(3) 0.45280(6)
H11_4 H 0.7417 0.5899 0.4497
C20_4 C 0.6679(2) 0.4021(2) 0.49305(5)
C21_4 C 0.7354(2) 0.4005(2) 0.49318(5)
H12_4 H 0.7814 0.4455 0.4933
C22_4 C 0.8833(3) 0.8327(5) 0.43297(9)
C31_4 C 0.9906(3) 0.4172(2) 0.51719(5)
C32_4 C 0.4266(2) 0.0094(3) 0.51719(5)
H17_4 H 0.9699 0.5028 0.5199
H18_4 H 0.5329 0.0301 0.5199
C37_4 C 0.9297(3) 0.3707(2) 0.50525(5)
C38_4 C 0.4410(2) 0.0703(3) 0.50525(5)
C39_4 C 0.8630(3) 0.3738(2) 0.50479(5)
C40_4 C 0.5108(2) 0.1370(3) 0.50479(5)
H21_4 H 0.8562 0.4046 0.5123
H22_4 H 0.5484 0.1438 0.5123
C41_4 C 0.8056(3) 0.3306(2) 0.49310(5)
C42_4 C 0.5250(2) 0.1944(3) 0.49310(5)
C43_4 C 0.8177(3) 0.2867(2) 0.48168(5)
C44_4 C 0.4690(2) 0.1823(3) 0.48168(5)
H23_4 H 0.7805 0.2585 0.4739
H24_4 H 0.4780 0.2195 0.4739
C45_4 C 0.8846(3) 0.2841(2) 0.48162(5)
C46_4 C 0.3995(2) 0.1154(3) 0.48162(5)
C47_4 C 0.9400(4) 0.3269(3) 0.49357(5)
C48_4 C 0.3869(2) 0.0600(4) 0.49357(5)
H25_4 H 0.9849 0.3257 0.4936
H26_4 H 0.3408 0.0151 0.4936
C49_4 C 0.8993(4) 0.2397(3) 0.46934(6)
C50_4 C 0.3404(2) 0.1007(4) 0.46934(6)
C51_4 C 0.9375(5) 0.2031(4) 0.47333(7)
C52_4 C 0.2656(3) 0.0625(5) 0.47333(7)
H27_4 H 0.9544 0.2064 0.4842
H28_4 H 0.2520 0.0456 0.4842
C53_4 C 0.9523(6) 0.1613(4) 0.46199(8)
C54_4 C 0.2090(4) 0.0477(6) 0.46199(8)
H29_4 H 0.9764 0.1351 0.4653
H30_4 H 0.1587 0.0236 0.4653
C55_4 C 0.9299(5) 0.1596(4) 0.44531(7)
C56_4 C 0.2297(3) 0.0701(5) 0.44531(7)
C57_4 C 0.8924(4) 0.1972(3) 0.44111(6)
C58_4 C 0.3048(3) 0.1076(4) 0.44111(6)
H31_4 H 0.8779 0.1967 0.4301
H32_4 H 0.3188 0.1221 0.4301
C59_4 C 0.8757(4) 0.2352(3) 0.45280(6)
C60_4 C 0.3595(3) 0.1243(4) 0.45280(6)
H33_4 H 0.8482 0.2583 0.4497
H34_4 H 0.4101 0.1518 0.4497
C61_4 C 0.7342(3) 0.3321(2) 0.49305(5)
C62_4 C 0.5979(2) 0.2658(3) 0.49305(5)
C63_4 C 0.6651(3) 0.2646(2) 0.49318(5)
C64_4 C 0.5995(2) 0.3349(3) 0.49318(5)
H35_4 H 0.6641 0.2186 0.4933
H36_4 H 0.5545 0.3359 0.4933
C65_4 C 0.9494(6) 0.1167(3) 0.43297(9)
C66_4 C 0.1673(5) 0.0506(6) 0.43297(9)
C24_4 C 0.3787(2) 0.8246(3) 0.55028(5)
C26_4 C 0.3964(2) 0.8911(3) 0.53923(5)
C28_4 C 0.3375(2) 0.9034(4) 0.53397(5)
H14_4 H 0.2887 0.8731 0.5379
C30_4 C 0.3531(2) 0.9603(4) 0.52300(6)
H16_4 H 0.3138 0.9669 0.5192
C34_4 C 0.4833(2) 0.9977(3) 0.52321(6)
C36_4 C 0.4681(3) 0.9393(4) 0.53391(6)
H20_4 H 0.5074 0.9325 0.5376
C10_5 C 0.0027(2) 0.1417(2) 0.15977(5)
C11_5 C 0.0466(2) 0.1977(2) 0.14835(5)
H6_5 H 0.0748 0.1887 0.1406
C12_5 C 0.0492(2) 0.2672(2) 0.14829(5)
C13_5 C 0.0064(3) 0.2798(2) 0.16024(5)
H7_5 H 0.0076 0.3259 0.1603
C14_5 C 0.0936(3) 0.3263(2) 0.13601(6)
C15_5 C 0.1302(4) 0.4011(3) 0.14000(7)
H8_5 H 0.1269 0.4147 0.1509
C16_5 C 0.1720(4) 0.4577(4) 0.12866(8)
H9_5 H 0.1982 0.5080 0.1320
C17_5 C 0.1737(4) 0.4370(3) 0.11198(7)
C18_5 C 0.1361(3) 0.3619(3) 0.10778(6)
H10_5 H 0.1366 0.3479 0.0968
C19_5 C 0.0981(3) 0.3072(3) 0.11947(6)
H11_5 H 0.0750 0.2566 0.1164
C20_5 C 0.0012(2) 0.0688(2) 0.15972(5)
C21_5 C 0.0687(2) 0.0672(2) 0.15985(5)
H12_5 H 0.1147 0.1122 0.1600
C22_5 C 0.2166(3) 0.4994(5) 0.09964(9)
C23_5 C 0.5087(3) 0.2208(2) 0.21695(5)
C25_5 C 0.4422(3) 0.1720(2) 0.20590(5)
C27_5 C 0.4299(4) 0.1008(3) 0.20064(5)
H13_5 H 0.4602 0.0823 0.2046
C29_5 C 0.3730(4) 0.0595(3) 0.18967(6)
H15_5 H 0.3664 0.0136 0.1859
C31_5 C 0.3239(3) 0.0839(2) 0.18386(5)
C33_5 C 0.3356(3) 0.1523(2) 0.18988(6)
H17_5 H 0.3032 0.1695 0.1866
C35_5 C 0.3940(4) 0.1955(2) 0.20058(6)
H19_5 H 0.4008 0.2416 0.2043
C37_5 C 0.2630(3) 0.0374(2) 0.17192(5)
C39_5 C 0.1963(3) 0.0405(2) 0.17146(5)
H21_5 H 0.1895 0.0713 0.1790
C41_5 C 0.1389(3) 0.9973(2) 0.15977(5)
C43_5 C 0.1510(3) 0.9534(2) 0.14835(5)
H23_5 H 0.1138 0.9252 0.1406
C45_5 C 0.2179(3) 0.9508(2) 0.14829(5)
C47_5 C 0.2733(4) 0.9936(3) 0.16024(5)
H25_5 H 0.3182 0.9924 0.1603
C49_5 C 0.2326(4) 0.9064(3) 0.13601(6)
C51_5 C 0.2708(5) 0.8698(4) 0.14000(7)
H27_5 H 0.2877 0.8731 0.1509
C53_5 C 0.2856(6) 0.8280(4) 0.12866(8)
H29_5 H 0.3097 0.8018 0.1320
C55_5 C 0.2632(5) 0.8263(4) 0.11198(7)
C57_5 C 0.2257(4) 0.8639(3) 0.10778(6)
H31_5 H 0.2112 0.8634 0.0968
C59_5 C 0.2090(4) 0.9019(3) 0.11947(6)
H33_5 H 0.1815 0.9250 0.1164
C61_5 C 0.0675(3) 0.9988(2) 0.15972(5)
C65_5 C 0.2827(6) 0.7834(3) 0.09964(9)
C1_5 C 0.7792(2) 0.2880(2) 0.21695(5)
C2_5 C 0.8280(2) 0.2703(2) 0.20590(5)
C3_5 C 0.8992(3) 0.3292(2) 0.20064(5)
H1_5 H 0.9177 0.3780 0.2046
C4_5 C 0.9405(3) 0.3136(2) 0.18967(6)
H2_5 H 0.9864 0.3529 0.1859
C5_5 C 0.9161(2) 0.2401(2) 0.18386(5)
C6_5 C 0.8477(2) 0.1834(2) 0.18988(6)
H3_5 H 0.8305 0.1338 0.1866
C7_5 C 0.8045(2) 0.1986(3) 0.20058(6)
H4_5 H 0.7584 0.1593 0.2043
C8_5 C 0.9626(2) 0.2257(2) 0.17192(5)
C9_5 C 0.9595(2) 0.1559(2) 0.17146(5)
H5_5 H 0.9287 0.1183 0.1790
C64_5 C 0.9328(2) 0.0016(3) 0.15985(5)
H36_5 H 0.8878 0.0026 0.1600
C24_5 C 0.7120(2) 0.4913(3) 0.21695(5)
C26_5 C 0.7297(2) 0.5578(3) 0.20590(5)
C28_5 C 0.6708(2) 0.5701(4) 0.20064(5)
H14_5 H 0.6220 0.5398 0.2046
C30_5 C 0.6864(2) 0.6270(4) 0.18967(6)
H16_5 H 0.6471 0.6336 0.1859
C32_5 C 0.7599(2) 0.6761(3) 0.18386(5)
C34_5 C 0.8166(2) 0.6644(3) 0.18988(6)
H18_5 H 0.8662 0.6968 0.1866
C36_5 C 0.8014(3) 0.6060(4) 0.20058(6)
H20_5 H 0.8407 0.5992 0.2043
C38_5 C 0.7743(2) 0.7370(3) 0.17192(5)
C40_5 C 0.8441(2) 0.8037(3) 0.17146(5)
H22_5 H 0.8817 0.8105 0.1790
C42_5 C 0.8583(2) 0.8611(3) 0.15977(5)
C44_5 C 0.8023(2) 0.8490(3) 0.14835(5)
H24_5 H 0.8113 0.8862 0.1406
C46_5 C 0.7328(2) 0.7821(3) 0.14829(5)
C48_5 C 0.7202(2) 0.7267(4) 0.16024(5)
H26_5 H 0.6741 0.6818 0.1603
C50_5 C 0.6737(2) 0.7674(4) 0.13601(6)
C52_5 C 0.5989(3) 0.7292(5) 0.14000(7)
H28_5 H 0.5853 0.7123 0.1509
C54_5 C 0.5423(4) 0.7144(6) 0.12866(8)
H30_5 H 0.4920 0.6903 0.1320
C56_5 C 0.5630(3) 0.7368(5) 0.11198(7)
C58_5 C 0.6381(3) 0.7743(4) 0.10778(6)
H32_5 H 0.6521 0.7888 0.0968
C60_5 C 0.6928(3) 0.7910(4) 0.11947(6)
H34_5 H 0.7434 0.8185 0.1164
C62_5 C 0.9312(2) 0.9325(3) 0.15972(5)
C63_5 C 0.9984(3) 0.9313(2) 0.15985(5)
H35_5 H 0.9974 0.8853 0.1600
C66_5 C 0.5006(5) 0.7173(6) 0.09964(9)
H1_6 H 0.2511 0.0446 0.8712
H2_6 H 0.3198 0.0195 0.8525
C15_6 C 0.4636(4) 0.0677(3) 0.80666(7)
H8_6 H 0.4603 0.0813 0.8175
C16_6 C 0.5054(4) 0.1243(4) 0.79532(8)
H9_6 H 0.5316 0.1746 0.7986
C17_6 C 0.5071(4) 0.1036(3) 0.77864(7)
C18_6 C 0.4695(3) 0.0285(3) 0.77444(6)
H10_6 H 0.4700 0.0145 0.7634
C22_6 C 0.5500(3) 0.1660(5) 0.76630(9)
C1_6 C 0.1126(2) 0.9546(2) 0.88361(5)
C2_6 C 0.1614(2) 0.9369(2) 0.87256(5)
C3_6 C 0.2326(3) 0.9958(2) 0.86730(5)
C4_6 C 0.2739(3) 0.9802(2) 0.85633(6)
C5_6 C 0.2495(2) 0.9067(2) 0.85052(5)
C6_6 C 0.1811(2) 0.8500(2) 0.85654(6)
H3_6 H 0.1639 0.8004 0.8532
C7_6 C 0.1379(2) 0.8652(3) 0.86724(6)
H4_6 H 0.0918 0.8259 0.8709
C8_6 C 0.2960(2) 0.8923(2) 0.83858(5)
C9_6 C 0.2929(2) 0.8225(2) 0.83812(5)
H5_6 H 0.2621 0.7849 0.8456
C10_6 C 0.3361(2) 0.8083(2) 0.82643(5)
C11_6 C 0.3800(2) 0.8643(2) 0.81501(5)
H6_6 H 0.4082 0.8553 0.8072
C12_6 C 0.3826(2) 0.9338(2) 0.81495(5)
C13_6 C 0.3398(3) 0.9464(2) 0.82690(5)
H7_6 H 0.3410 0.9925 0.8269
C14_6 C 0.4270(3) 0.9929(2) 0.80267(6)
C19_6 C 0.4315(3) 0.9738(3) 0.78613(6)
H11_6 H 0.4084 0.9232 0.7830
C20_6 C 0.3346(2) 0.7354(2) 0.82638(5)
C21_6 C 0.4021(2) 0.7338(2) 0.82651(5)
H12_6 H 0.4481 0.7788 0.8266
C23_6 C 0.8421(3) 0.8874(2) 0.88361(5)
C24_6 C 0.0454(2) 0.1579(3) 0.88361(5)
C25_6 C 0.7756(3) 0.8386(2) 0.87256(5)
C26_6 C 0.0631(2) 0.2244(3) 0.87256(5)
C27_6 C 0.7633(4) 0.7674(3) 0.86730(5)
C28_6 C 0.0042(2) 0.2367(4) 0.86730(5)
H13_6 H 0.7936 0.7489 0.8712
C29_6 C 0.7064(4) 0.7261(3) 0.85633(6)
C30_6 C 0.0198(2) 0.2936(4) 0.85633(6)
H15_6 H 0.6998 0.6802 0.8525
C31_6 C 0.6573(3) 0.7505(2) 0.85052(5)
C32_6 C 0.0933(2) 0.3427(3) 0.85052(5)
C33_6 C 0.6690(3) 0.8189(2) 0.85654(6)
C34_6 C 0.1500(2) 0.3310(3) 0.85654(6)
H17_6 H 0.6366 0.8361 0.8532
H18_6 H 0.1996 0.3634 0.8532
C35_6 C 0.7274(4) 0.8621(2) 0.86724(6)
C36_6 C 0.1348(3) 0.2726(4) 0.86724(6)
H19_6 H 0.7342 0.9082 0.8709
H20_6 H 0.1741 0.2658 0.8709
C37_6 C 0.5964(3) 0.7040(2) 0.83858(5)
C38_6 C 0.1077(2) 0.4036(3) 0.83858(5)
C39_6 C 0.5297(3) 0.7071(2) 0.83812(5)
C40_6 C 0.1775(2) 0.4703(3) 0.83812(5)
H21_6 H 0.5229 0.7379 0.8456
H22_6 H 0.2151 0.4771 0.8456
C41_6 C 0.4723(3) 0.6639(2) 0.82643(5)
C42_6 C 0.1917(2) 0.5277(3) 0.82643(5)
C43_6 C 0.4844(3) 0.6200(2) 0.81501(5)
C44_6 C 0.1357(2) 0.5156(3) 0.81501(5)
H23_6 H 0.4472 0.5918 0.8072
H24_6 H 0.1447 0.5528 0.8072
C45_6 C 0.5513(3) 0.6174(2) 0.81495(5)
C46_6 C 0.0662(2) 0.4487(3) 0.81495(5)
C47_6 C 0.6067(4) 0.6602(3) 0.82690(5)
C48_6 C 0.0536(2) 0.3933(4) 0.82690(5)
H25_6 H 0.6516 0.6590 0.8269
H26_6 H 0.0075 0.3484 0.8269
C49_6 C 0.5660(4) 0.5730(3) 0.80267(6)
C50_6 C 0.0071(2) 0.4340(4) 0.80267(6)
C51_6 C 0.6042(5) 0.5364(4) 0.80666(7)
H27_6 H 0.6211 0.5397 0.8175
C53_6 C 0.6190(6) 0.4946(4) 0.79532(8)
H29_6 H 0.6431 0.4684 0.7986
C55_6 C 0.5966(5) 0.4929(4) 0.77864(7)
C57_6 C 0.5591(4) 0.5305(3) 0.77444(6)
H31_6 H 0.5446 0.5300 0.7634
C59_6 C 0.5424(4) 0.5685(3) 0.78613(6)
C60_6 C 0.0262(3) 0.4576(4) 0.78613(6)
H33_6 H 0.5149 0.5916 0.7830
H34_6 H 0.0768 0.4851 0.7830
C61_6 C 0.4009(3) 0.6654(2) 0.82638(5)
C62_6 C 0.2646(2) 0.5991(3) 0.82638(5)
C63_6 C 0.3318(3) 0.5979(2) 0.82651(5)
C64_6 C 0.2662(2) 0.6682(3) 0.82651(5)
H35_6 H 0.3308 0.5519 0.8266
H36_6 H 0.2212 0.6692 0.8266
C65_6 C 0.6161(6) 0.4500(3) 0.76630(9)
H14_6 H 0.9554 0.2064 0.8712
H16_6 H 0.9805 0.3002 0.8525
C52_6 C 0.9323(3) 0.3958(5) 0.80666(7)
H28_6 H 0.9187 0.3789 0.8175
C54_6 C 0.8757(4) 0.3810(6) 0.79532(8)
H30_6 H 0.8254 0.3569 0.7986
C56_6 C 0.8964(3) 0.4034(5) 0.77864(7)
C58_6 C 0.9715(3) 0.4409(4) 0.77444(6)
H32_6 H 0.9855 0.4554 0.7634
C66_6 C 0.8340(5) 0.3839(6) 0.76630(9)
Zn14_7 Zn 0.0000 -0.0000 0.564858(14)
Zn14_8 Zn 0.0000 1.0000 0.564858(14)
C24_7 C 0.6213(2) 0.1754(3) 0.44972(5)
C26_7 C 0.6036(2) 0.1089(3) 0.46077(5)
C28_7 C 0.6625(2) 0.0966(4) 0.46603(5)
H14_7 H 0.7113 0.1269 0.4621
C30_7 C 0.6469(2) 0.0397(4) 0.47700(6)
H16_7 H 0.6862 0.0331 0.4808
C34_7 C 0.5167(2) 0.0023(3) 0.47679(6)
C36_7 C 0.5319(3) 0.0607(4) 0.46609(6)
H20_7 H 0.4926 0.0675 0.4624
O7_4 O 0.68884(17) 0.21941(24) 0.44632(4)
O17_4 O 0.56685(17) 0.18151(24) 0.44474(4)
Zn5_4 Zn 0.56571(2) 0.26087(2) 0.430868(5)
Zn9_4 Zn 0.73913(2) 0.30484(3) 0.430868(5)
Zn14_9 Zn 1.0000 -0.0000 0.564858(14)
C1_7 C 0.5541(2) 0.3787(2) 0.44972(5)
C2_7 C 0.5053(2) 0.3964(2) 0.46077(5)
C3_7 C 0.4341(3) 0.3375(2) 0.46603(5)
H1_7 H 0.4156 0.2887 0.4621
C4_7 C 0.3928(3) 0.3531(2) 0.47700(6)
H2_7 H 0.3469 0.3138 0.4808
C5_7 C 0.4172(2) 0.4266(2) 0.48281(5)
C6_7 C 0.4856(2) 0.4833(2) 0.47679(6)
H3_7 H 0.5028 0.5329 0.4801
C7_7 C 0.5288(2) 0.4681(3) 0.46609(6)
H4_7 H 0.5749 0.5074 0.4624
C8_7 C 0.3707(2) 0.4410(2) 0.49475(5)
C9_7 C 0.3738(2) 0.5108(2) 0.49521(5)
H5_7 H 0.4046 0.5484 0.4877
C10_7 C 0.3306(2) 0.5250(2) 0.50690(5)
C11_7 C 0.2867(2) 0.4690(2) 0.51832(5)
H6_7 H 0.2585 0.4780 0.5261
C12_7 C 0.2841(2) 0.3995(2) 0.51838(5)
C13_7 C 0.3269(3) 0.3869(2) 0.50643(5)
H7_7 H 0.3257 0.3408 0.5064
C14_7 C 0.2397(3) 0.3404(2) 0.53066(6)
C15_7 C 0.2031(4) 0.2656(3) 0.52667(7)
H8_7 H 0.2064 0.2520 0.5158
C16_7 C 0.1613(4) 0.2090(4) 0.53801(8)
H9_7 H 0.1351 0.1587 0.5347
C17_7 C 0.1596(4) 0.2297(3) 0.55469(7)
C18_7 C 0.1972(3) 0.3048(3) 0.55889(6)
H10_7 H 0.1967 0.3188 0.5699
C19_7 C 0.2352(3) 0.3595(3) 0.54720(6)
H11_7 H 0.2583 0.4101 0.5503
C20_7 C 0.3321(2) 0.5979(2) 0.50695(5)
C21_7 C 0.2646(2) 0.5995(2) 0.50682(5)
H12_7 H 0.2186 0.5545 0.5067
C22_7 C 0.1167(3) 0.1673(5) 0.56703(9)
O1_4 O 0.53057(17) 0.31116(17) 0.44632(4)
O2_4 O 0.1237(2) 0.1845(2) 0.58234(5)
O3_7 O 0.6667 0.3333 0.42335(5)
O4_4 O 0.61466(17) 0.43315(17) 0.44474(4)
O5_4 O 0.0635(4) 0.1004(5) 0.56041(9)
Zn2_7 Zn 0.6667 0.3333 0.398191(14)
C31_7 C 0.0094(3) 0.5828(2) 0.48281(5)
C32_7 C 0.5734(2) 0.9906(3) 0.48281(5)
H17_7 H 0.0301 0.4972 0.4801
H18_7 H 0.4671 0.9699 0.4801
C37_7 C 0.0703(3) 0.6293(2) 0.49475(5)
C38_7 C 0.5590(2) 0.9297(3) 0.49475(5)
C39_7 C 0.1370(3) 0.6262(2) 0.49521(5)
C40_7 C 0.4892(2) 0.8630(3) 0.49521(5)
H21_7 H 0.1438 0.5954 0.4877
H22_7 H 0.4516 0.8562 0.4877
C41_7 C 0.1944(3) 0.6694(2) 0.50690(5)
C42_7 C 0.4750(2) 0.8056(3) 0.50690(5)
C43_7 C 0.1823(3) 0.7133(2) 0.51832(5)
C44_7 C 0.5310(2) 0.8177(3) 0.51832(5)
H23_7 H 0.2195 0.7415 0.5261
H24_7 H 0.5220 0.7805 0.5261
C45_7 C 0.1154(3) 0.7159(2) 0.51838(5)
C46_7 C 0.6005(2) 0.8846(3) 0.51838(5)
C47_7 C 0.0600(4) 0.6731(3) 0.50643(5)
C48_7 C 0.6131(2) 0.9400(4) 0.50643(5)
H25_7 H 0.0151 0.6743 0.5064
H26_7 H 0.6592 0.9849 0.5064
C49_7 C 0.1007(4) 0.7603(3) 0.53066(6)
C50_7 C 0.6596(2) 0.8993(4) 0.53066(6)
C51_7 C 0.0625(5) 0.7969(4) 0.52667(7)
C52_7 C 0.7344(3) 0.9375(5) 0.52667(7)
H27_7 H 0.0456 0.7936 0.5158
H28_7 H 0.7480 0.9544 0.5158
C53_7 C 0.0477(6) 0.8387(4) 0.53801(8)
C54_7 C 0.7910(4) 0.9523(6) 0.53801(8)
H29_7 H 0.0236 0.8649 0.5347
H30_7 H 0.8413 0.9764 0.5347
C55_7 C 0.0701(5) 0.8404(4) 0.55469(7)
C56_7 C 0.7703(3) 0.9299(5) 0.55469(7)
C57_7 C 0.1076(4) 0.8028(3) 0.55889(6)
C58_7 C 0.6952(3) 0.8924(4) 0.55889(6)
H31_7 H 0.1221 0.8033 0.5699
H32_7 H 0.6812 0.8779 0.5699
C59_7 C 0.1243(4) 0.7648(3) 0.54720(6)
C60_7 C 0.6405(3) 0.8757(4) 0.54720(6)
H33_7 H 0.1518 0.7417 0.5503
H34_7 H 0.5899 0.8482 0.5503
C61_7 C 0.2658(3) 0.6679(2) 0.50695(5)
C62_7 C 0.4021(2) 0.7342(3) 0.50695(5)
C63_7 C 0.3349(3) 0.7354(2) 0.50682(5)
C64_7 C 0.4005(2) 0.6651(3) 0.50682(5)
H35_7 H 0.3359 0.7814 0.5067
H36_7 H 0.4455 0.6641 0.5067
C65_7 C 0.0506(6) 0.8833(3) 0.56703(9)
C66_7 C 0.8327(5) 0.9494(6) 0.56703(9)
O8_10 O 0.02217(17) 0.13610(17) 0.61299(4)
O10_4 O 0.0608(3) 0.8763(2) 0.58234(5)
O11_4 O 0.8155(2) 0.9392(3) 0.58234(5)
O12_7 O 0.4822(2) 0.2096(2) 0.41567(5)
O15_7 O 0.0000 -0.0000 0.59002(5)
O19_10 O 0.15182(24) 0.09982(17) 0.61141(4)
O20_4 O 0.0369(6) 0.9365(4) 0.56041(9)
O21_4 O 0.8996(5) 0.9631(6) 0.56041(9)
O22_4 O 0.5663(5) 0.2698(4) 0.39374(9)
O23_4 O 0.7302(4) 0.2964(6) 0.39374(9)
O24_4 O 0.7036(6) 0.4337(5) 0.39374(9)
Zn4_4 Zn 0.07246(2) 0.10096(2) 0.597535(5)
Zn7_4 Zn 0.69516(3) 0.43429(2) 0.430868(5)
Zn10_4 Zn 0.89904(2) 0.97151(3) 0.597535(5)
Zn11_4 Zn 0.02849(3) 0.92754(2) 0.597535(5)
Zn14_10 Zn 1.0000 1.0000 0.564858(14)
O15_8 O 0.0000 1.0000 0.59002(5)
C23_7 C 0.8246(3) 0.4459(2) 0.44972(5)
C25_7 C 0.8911(3) 0.4947(2) 0.46077(5)
C27_7 C 0.9034(4) 0.5659(3) 0.46603(5)
H13_7 H 0.8731 0.5844 0.4621
C29_7 C 0.9603(4) 0.6072(3) 0.47700(6)
H15_7 H 0.9669 0.6531 0.4808
C33_7 C 0.9977(3) 0.5144(2) 0.47679(6)
C35_7 C 0.9393(4) 0.4712(2) 0.46609(6)
H19_7 H 0.9325 0.4251 0.4624
O6_4 O 0.78059(24) 0.46943(17) 0.44632(4)
O13_4 O 0.7904(2) 0.2725(3) 0.41567(5)
O15_9 O 1.0000 -0.0000 0.59002(5)
O16_4 O 0.81849(24) 0.38534(17) 0.44474(4)
O15_10 O 1.0000 1.0000 0.59002(5)
O8_11 O 0.11392(24) 0.97783(17) 0.61299(4)
O12_8 O 0.7275(3) 0.5178(2) 0.41567(5)
O19_11 O 0.94799(29) 0.84818(24) 0.61141(4)
O19_12 O 0.90018(17) 0.05201(29) 0.61141(4)
O8_12 O 0.86390(17) 0.88608(24) 0.61299(4)
C24_8 C 0.2880(2) 0.5087(3) 0.78305(5)
C26_8 C 0.2703(2) 0.4422(3) 0.79410(5)
C28_8 C 0.3292(2) 0.4299(4) 0.79936(5)
H14_8 H 0.3780 0.4602 0.7954
C30_8 C 0.3136(2) 0.3730(4) 0.81033(6)
H16_8 H 0.3529 0.3664 0.8141
C32_8 C 0.2401(2) 0.3239(3) 0.81614(5)
C34_8 C 0.1834(2) 0.3356(3) 0.81012(6)
H18_8 H 0.1338 0.3032 0.8134
C36_8 C 0.1986(3) 0.3940(4) 0.79942(6)
H20_8 H 0.1593 0.4008 0.7957
C38_8 C 0.2257(2) 0.2630(3) 0.82808(5)
C40_8 C 0.1559(2) 0.1963(3) 0.82854(5)
H22_8 H 0.1183 0.1895 0.8210
C42_8 C 0.1417(2) 0.1389(3) 0.84023(5)
C44_8 C 0.1977(2) 0.1510(3) 0.85165(5)
H24_8 H 0.1887 0.1138 0.8594
C46_8 C 0.2672(2) 0.2179(3) 0.85171(5)
C48_8 C 0.2798(2) 0.2733(4) 0.83976(5)
H26_8 H 0.3259 0.3182 0.8397
C50_8 C 0.3263(2) 0.2326(4) 0.86399(6)
C52_8 C 0.4011(3) 0.2708(5) 0.86000(7)
H28_8 H 0.4147 0.2877 0.8491
C54_8 C 0.4577(4) 0.2856(6) 0.87134(8)
H30_8 H 0.5080 0.3097 0.8680
C56_8 C 0.4370(3) 0.2632(5) 0.88802(7)
C58_8 C 0.3619(3) 0.2257(4) 0.89222(6)
H32_8 H 0.3479 0.2112 0.9032
C60_8 C 0.3072(3) 0.2090(4) 0.88053(6)
H34_8 H 0.2566 0.1815 0.8836
C62_8 C 0.0688(2) 0.0675(3) 0.84028(5)
C63_8 C 0.0016(3) 0.0687(2) 0.84015(5)
H35_8 H 0.0026 0.1147 0.8400
C66_8 C 0.4994(5) 0.2827(6) 0.90036(9)
O7_5 O 0.35551(17) 0.55274(24) 0.77965(4)
O11_5 O 0.4822(2) 0.2725(3) 0.91567(5)
O17_5 O 0.23352(17) 0.51484(24) 0.77807(4)
O21_5 O 0.5663(5) 0.2964(6) 0.89374(9)
Zn5_5 Zn 0.23238(2) 0.59420(2) 0.764201(5)
Zn9_5 Zn 0.40580(2) 0.63817(3) 0.764201(5)
Zn10_5 Zn 0.56571(2) 0.30484(3) 0.930868(5)
Zn14_11 Zn 0.6667 0.3333 0.898191(14)
C1_8 C 0.2208(2) 0.7120(2) 0.78305(5)
C2_8 C 0.1720(2) 0.7297(2) 0.79410(5)
C3_8 C 0.1008(3) 0.6708(2) 0.79936(5)
H1_8 H 0.0823 0.6220 0.7954
C4_8 C 0.0595(3) 0.6864(2) 0.81033(6)
H2_8 H 0.0136 0.6471 0.8141
C5_8 C 0.0839(2) 0.7599(2) 0.81614(5)
C6_8 C 0.1523(2) 0.8166(2) 0.81012(6)
H3_8 H 0.1695 0.8662 0.8134
C7_8 C 0.1955(2) 0.8014(3) 0.79942(6)
H4_8 H 0.2416 0.8407 0.7957
C8_8 C 0.0374(2) 0.7743(2) 0.82808(5)
C9_8 C 0.0405(2) 0.8441(2) 0.82854(5)
H5_8 H 0.0713 0.8817 0.8210
O1_5 O 0.19724(17) 0.64449(17) 0.77965(4)
O3_8 O 0.3334 0.6666 0.75668(5)
O4_5 O 0.28133(17) 0.76648(17) 0.77807(4)
Zn2_8 Zn 0.3334 0.6666 0.731524(14)
C64_8 C 0.0672(2) 0.9984(3) 0.84015(5)
H36_8 H 0.1122 0.9974 0.8400
O12_9 O 0.1488(2) 0.5430(2) 0.74901(5)
O22_5 O 0.2329(5) 0.6032(4) 0.72708(9)
O23_5 O 0.3968(4) 0.6298(6) 0.72708(9)
O24_5 O 0.3702(6) 0.7671(5) 0.72708(9)
Zn7_5 Zn 0.36183(3) 0.76762(2) 0.764201(5)
C41_8 C 0.8611(3) 0.0027(2) 0.84023(5)
C43_8 C 0.8490(3) 0.0466(2) 0.85165(5)
H23_8 H 0.8862 0.0748 0.8594
C45_8 C 0.7821(3) 0.0492(2) 0.85171(5)
C47_8 C 0.7267(4) 0.0064(3) 0.83976(5)
H25_8 H 0.6818 0.0076 0.8397
C49_8 C 0.7674(4) 0.0936(3) 0.86399(6)
C51_8 C 0.7292(5) 0.1302(4) 0.86000(7)
H27_8 H 0.7123 0.1269 0.8491
C53_8 C 0.7144(6) 0.1720(4) 0.87134(8)
H29_8 H 0.6903 0.1982 0.8680
C55_8 C 0.7368(5) 0.1737(4) 0.88802(7)
C57_8 C 0.7743(4) 0.1361(3) 0.89222(6)
H31_8 H 0.7888 0.1366 0.9032
C59_8 C 0.7910(4) 0.0981(3) 0.88053(6)
H33_8 H 0.8185 0.0750 0.8836
C61_8 C 0.9325(3) 0.0012(2) 0.84028(5)
C65_8 C 0.7173(6) 0.2166(3) 0.90036(9)
O10_5 O 0.7275(3) 0.2096(2) 0.91567(5)
O20_5 O 0.7036(6) 0.2698(4) 0.89374(9)
Zn11_5 Zn 0.69516(3) 0.26087(2) 0.930868(5)
C10_8 C 0.9973(2) 0.8583(2) 0.84023(5)
C11_8 C 0.9534(2) 0.8023(2) 0.85165(5)
H6_8 H 0.9252 0.8113 0.8594
C12_8 C 0.9508(2) 0.7328(2) 0.85171(5)
C13_8 C 0.9936(3) 0.7202(2) 0.83976(5)
H7_8 H 0.9924 0.6741 0.8397
C14_8 C 0.9064(3) 0.6737(2) 0.86399(6)
C15_8 C 0.8698(4) 0.5989(3) 0.86000(7)
H8_8 H 0.8731 0.5853 0.8491
C16_8 C 0.8280(4) 0.5423(4) 0.87134(8)
H9_8 H 0.8018 0.4920 0.8680
C17_8 C 0.8263(4) 0.5630(3) 0.88802(7)
C18_8 C 0.8639(3) 0.6381(3) 0.89222(6)
H10_8 H 0.8634 0.6521 0.9032
C19_8 C 0.9019(3) 0.6928(3) 0.88053(6)
H11_8 H 0.9250 0.7434 0.8836
C20_8 C 0.9988(2) 0.9312(2) 0.84028(5)
C21_8 C 0.9313(2) 0.9328(2) 0.84015(5)
H12_8 H 0.8853 0.8878 0.8400
C22_8 C 0.7834(3) 0.5006(5) 0.90036(9)
O2_5 O 0.7904(2) 0.5178(2) 0.91567(5)
O5_5 O 0.7302(4) 0.4337(5) 0.89374(9)
C23_8 C 0.4913(3) 0.7792(2) 0.78305(5)
C25_8 C 0.5578(3) 0.8280(2) 0.79410(5)
C27_8 C 0.5701(4) 0.8992(3) 0.79936(5)
H13_8 H 0.5398 0.9177 0.7954
C29_8 C 0.6270(4) 0.9405(3) 0.81033(6)
H15_8 H 0.6336 0.9864 0.8141
C31_8 C 0.6761(3) 0.9161(2) 0.81614(5)
C33_8 C 0.6644(3) 0.8477(2) 0.81012(6)
H17_8 H 0.6968 0.8305 0.8134
C35_8 C 0.6060(4) 0.8045(2) 0.79942(6)
H19_8 H 0.5992 0.7584 0.7957
C37_8 C 0.7370(3) 0.9626(2) 0.82808(5)
C39_8 C 0.8037(3) 0.9595(2) 0.82854(5)
H21_8 H 0.8105 0.9287 0.8210
O6_5 O 0.44726(24) 0.80276(17) 0.77965(4)
O8_13 O 0.68884(17) 0.46943(17) 0.94632(4)
O13_5 O 0.4570(2) 0.6059(3) 0.74901(5)
O15_11 O 0.6667 0.3333 0.92335(5)
O16_5 O 0.48516(24) 0.71867(17) 0.77807(4)
O19_13 O 0.81849(24) 0.43315(17) 0.94474(4)
Zn4_5 Zn 0.73913(2) 0.43429(2) 0.930868(5)
O8_14 O 0.78059(24) 0.31116(17) 0.94632(4)
O19_14 O 0.61466(29) 0.18151(24) 0.94474(4)
O12_10 O 0.3941(3) 0.8512(2) 0.74901(5)
O8_15 O 0.53057(17) 0.21941(24) 0.94632(4)
O19_15 O 0.56685(17) 0.38534(29) 0.94474(4)
O3_9 O 0.0000 -0.0000 0.09002(5)
Zn2_9 Zn 0.0000 -0.0000 0.064858(14)
H14_9 H 0.0446 0.7936 0.1288
H16_9 H 0.0195 0.6998 0.1475
C52_9 C 0.0677(3) 0.6042(5) 0.19334(7)
H28_9 H 0.0813 0.6211 0.1825
C54_9 C 0.1243(4) 0.6190(6) 0.20468(8)
H30_9 H 0.1746 0.6431 0.2014
C56_9 C 0.1036(3) 0.5966(5) 0.22136(7)
C58_9 C 0.0285(3) 0.5591(4) 0.22556(6)
H32_9 H 0.0145 0.5446 0.2366
C66_9 C 0.1660(5) 0.6161(6) 0.23370(9)
O7_6 O 0.02217(17) 0.88608(24) 0.11299(4)
O11_6 O 0.1488(2) 0.6059(3) 0.24901(5)
O21_6 O 0.2329(5) 0.6298(6) 0.22708(9)
O24_6 O 0.0369(6) 0.1004(5) 0.06041(9)
Zn7_6 Zn 0.02849(3) 0.10096(2) 0.097535(5)
Zn9_6 Zn 0.07246(2) 0.97151(3) 0.097535(5)
Zn10_6 Zn 0.23238(2) 0.63817(3) 0.264201(5)
Zn14_12 Zn 0.3334 0.6666 0.231524(14)
O3_10 O 0.0000 1.0000 0.09002(5)
Zn2_10 Zn 0.0000 1.0000 0.064858(14)
O23_6 O 0.0635(4) 0.9631(6) 0.06041(9)
C1_9 C 0.8874(2) 0.0454(2) 0.11639(5)
C2_9 C 0.8386(2) 0.0631(2) 0.12744(5)
C3_9 C 0.7674(3) 0.0042(2) 0.13270(5)
C4_9 C 0.7261(3) 0.0198(2) 0.14367(6)
C5_9 C 0.7505(2) 0.0933(2) 0.14948(5)
C6_9 C 0.8189(2) 0.1500(2) 0.14346(6)
H3_9 H 0.8361 0.1996 0.1468
C7_9 C 0.8621(2) 0.1348(3) 0.13276(6)
H4_9 H 0.9082 0.1741 0.1291
C8_9 C 0.7040(2) 0.1077(2) 0.16142(5)
C9_9 C 0.7071(2) 0.1775(2) 0.16188(5)
H5_9 H 0.7379 0.2151 0.1544
C10_9 C 0.6639(2) 0.1917(2) 0.17357(5)
C11_9 C 0.6200(2) 0.1357(2) 0.18499(5)
H6_9 H 0.5918 0.1447 0.1928
C12_9 C 0.6174(2) 0.0662(2) 0.18505(5)
C13_9 C 0.6602(3) 0.0536(2) 0.17310(5)
H7_9 H 0.6590 0.0075 0.1731
C14_9 C 0.5730(3) 0.0071(2) 0.19733(6)
C19_9 C 0.5685(3) 0.0262(3) 0.21387(6)
H11_9 H 0.5916 0.0768 0.2170
C20_9 C 0.6654(2) 0.2646(2) 0.17362(5)
C21_9 C 0.5979(2) 0.2662(2) 0.17349(5)
H12_9 H 0.5519 0.2212 0.1734
O3_11 O 1.0000 -0.0000 0.09002(5)
O4_6 O 0.94799(17) 0.09982(17) 0.11141(4)
Zn2_11 Zn 1.0000 -0.0000 0.064858(14)
C23_9 C 0.1579(3) 0.1126(2) 0.11639(5)
C24_9 C 0.9546(2) 0.8421(3) 0.11639(5)
C25_9 C 0.2244(3) 0.1614(2) 0.12744(5)
C26_9 C 0.9369(2) 0.7756(3) 0.12744(5)
C27_9 C 0.2367(4) 0.2326(3) 0.13270(5)
C28_9 C 0.9958(2) 0.7633(4) 0.13270(5)
H13_9 H 0.2064 0.2511 0.1288
C29_9 C 0.2936(4) 0.2739(3) 0.14367(6)
C30_9 C 0.9802(2) 0.7064(4) 0.14367(6)
H15_9 H 0.3002 0.3198 0.1475
C31_9 C 0.3427(3) 0.2495(2) 0.14948(5)
C32_9 C 0.9067(2) 0.6573(3) 0.14948(5)
C33_9 C 0.3310(3) 0.1811(2) 0.14346(6)
C34_9 C 0.8500(2) 0.6690(3) 0.14346(6)
H17_9 H 0.3634 0.1639 0.1468
H18_9 H 0.8004 0.6366 0.1468
C35_9 C 0.2726(4) 0.1379(2) 0.13276(6)
C36_9 C 0.8652(3) 0.7274(4) 0.13276(6)
H19_9 H 0.2658 0.0918 0.1291
H20_9 H 0.8259 0.7342 0.1291
C37_9 C 0.4036(3) 0.2960(2) 0.16142(5)
C38_9 C 0.8923(2) 0.5964(3) 0.16142(5)
C39_9 C 0.4703(3) 0.2929(2) 0.16188(5)
C40_9 C 0.8225(2) 0.5297(3) 0.16188(5)
H21_9 H 0.4771 0.2621 0.1544
H22_9 H 0.7849 0.5229 0.1544
C41_9 C 0.5277(3) 0.3361(2) 0.17357(5)
C42_9 C 0.8083(2) 0.4723(3) 0.17357(5)
C43_9 C 0.5156(3) 0.3800(2) 0.18499(5)
C44_9 C 0.8643(2) 0.4844(3) 0.18499(5)
H23_9 H 0.5528 0.4082 0.1928
H24_9 H 0.8553 0.4472 0.1928
C45_9 C 0.4487(3) 0.3826(2) 0.18505(5)
C46_9 C 0.9338(2) 0.5513(3) 0.18505(5)
C47_9 C 0.3933(4) 0.3398(3) 0.17310(5)
C48_9 C 0.9464(2) 0.6067(4) 0.17310(5)
H25_9 H 0.3484 0.3410 0.1731
H26_9 H 0.9925 0.6516 0.1731
C49_9 C 0.4340(4) 0.4270(3) 0.19733(6)
C50_9 C 0.9929(2) 0.5660(4) 0.19733(6)
C51_9 C 0.3958(5) 0.4636(4) 0.19334(7)
H27_9 H 0.3789 0.4603 0.1825
C53_9 C 0.3810(6) 0.5054(4) 0.20468(8)
H29_9 H 0.3569 0.5316 0.2014
C55_9 C 0.4034(5) 0.5071(4) 0.22136(7)
C57_9 C 0.4409(4) 0.4695(3) 0.22556(6)
H31_9 H 0.4554 0.4700 0.2366
C59_9 C 0.4576(4) 0.4315(3) 0.21387(6)
C60_9 C 0.9738(3) 0.5424(4) 0.21387(6)
H33_9 H 0.4851 0.4084 0.2170
H34_9 H 0.9232 0.5149 0.2170
C61_9 C 0.5991(3) 0.3346(2) 0.17362(5)
C62_9 C 0.7354(2) 0.4009(3) 0.17362(5)
C63_9 C 0.6682(3) 0.4021(2) 0.17349(5)
C64_9 C 0.7338(2) 0.3318(3) 0.17349(5)
H35_9 H 0.6692 0.4481 0.1734
H36_9 H 0.7788 0.3308 0.1734
C65_9 C 0.3839(6) 0.5500(3) 0.23370(9)
O6_6 O 0.11392(24) 0.13610(17) 0.11299(4)
O10_6 O 0.3941(3) 0.5430(2) 0.24901(5)
O16_6 O 0.15182(24) 0.05201(17) 0.11141(4)
O17_6 O 0.90018(17) 0.84818(24) 0.11141(4)
O20_6 O 0.3702(6) 0.6032(4) 0.22708(9)
Zn5_6 Zn 0.89904(2) 0.92754(2) 0.097535(5)
Zn11_6 Zn 0.36183(3) 0.59420(2) 0.264201(5)
H1_9 H 0.7489 0.9554 0.1288
H2_9 H 0.6802 0.9805 0.1475
C15_9 C 0.5364(4) 0.9323(3) 0.19334(7)
H8_9 H 0.5397 0.9187 0.1825
C16_9 C 0.4946(4) 0.8757(4) 0.20468(8)
H9_9 H 0.4684 0.8254 0.2014
C17_9 C 0.4929(4) 0.8964(3) 0.22136(7)
C18_9 C 0.5305(3) 0.9715(3) 0.22556(6)
H10_9 H 0.5300 0.9855 0.2366
C22_9 C 0.4500(3) 0.8340(5) 0.23370(9)
O1_6 O 0.86390(17) 0.97783(17) 0.11299(4)
O2_6 O 0.4570(2) 0.8512(2) 0.24901(5)
O3_12 O 1.0000 1.0000 0.09002(5)
O5_6 O 0.3968(4) 0.7671(5) 0.22708(9)
Zn2_12 Zn 1.0000 1.0000 0.064858(14)
O8_16 O 0.35551(17) 0.80276(17) 0.27965(4)
O12_11 O 0.8155(2) 0.8763(2) 0.08234(5)
O13_6 O 0.1237(2) 0.9392(3) 0.08234(5)
O15_12 O 0.3334 0.6666 0.25668(5)
O19_16 O 0.48516(24) 0.76648(17) 0.27807(4)
O22_6 O 0.8996(5) 0.9365(4) 0.06041(9)
Zn4_6 Zn 0.40580(2) 0.76762(2) 0.264201(5)
O8_17 O 0.44726(24) 0.64449(17) 0.27965(4)
O12_12 O 0.0608(3) 0.1845(2) 0.08234(5)
O19_17 O 0.28133(29) 0.51484(24) 0.27807(4)
O8_18 O 0.19724(17) 0.55274(24) 0.27965(4)
O19_18 O 0.23352(17) 0.71867(29) 0.27807(4)
C23_10 C 0.5541(2) 0.1754(3) 0.94972(5)
C25_10 C 0.5053(2) 0.1089(3) 0.96077(5)
C27_10 C 0.4341(3) 0.0966(4) 0.96603(5)
H13_10 H 0.4156 0.1269 0.9621
C29_10 C 0.3928(3) 0.0397(4) 0.97700(6)
H15_10 H 0.3469 0.0331 0.9808
C33_10 C 0.4856(2) 0.0023(3) 0.97679(6)
C35_10 C 0.5288(2) 0.0607(4) 0.96609(6)
H19_10 H 0.5749 0.0675 0.9624
C10_10 C 0.4750(2) 0.6694(2) 0.00690(5)
C11_10 C 0.5310(2) 0.7133(2) 0.01832(5)
H6_10 H 0.5220 0.7415 0.0261
C12_10 C 0.6005(2) 0.7159(2) 0.01838(5)
C13_10 C 0.6131(2) 0.6731(3) 0.00643(5)
H7_10 H 0.6592 0.6743 0.0064
C14_10 C 0.6596(2) 0.7603(3) 0.03066(6)
C15_10 C 0.7344(3) 0.7969(4) 0.02667(7)
H8_10 H 0.7480 0.7936 0.0158
C16_10 C 0.7910(4) 0.8387(4) 0.03801(8)
H9_10 H 0.8413 0.8649 0.0347
C17_10 C 0.7703(3) 0.8404(4) 0.05469(7)
C18_10 C 0.6952(3) 0.8028(3) 0.05889(6)
H10_10 H 0.6812 0.8033 0.0699
C19_10 C 0.6405(3) 0.7648(3) 0.04720(6)
H11_10 H 0.5899 0.7417 0.0503
C20_10 C 0.4021(2) 0.6679(2) 0.00695(5)
C21_10 C 0.4005(2) 0.7354(2) 0.00682(5)
H12_10 H 0.4455 0.7814 0.0067
C22_10 C 0.8327(5) 0.8833(3) 0.06703(9)
C41_10 C 0.3306(2) 0.8056(3) 0.00690(5)
C42_10 C 0.1944(3) 0.5250(2) 0.00690(5)
C43_10 C 0.2867(2) 0.8177(3) 0.01832(5)
C44_10 C 0.1823(3) 0.4690(2) 0.01832(5)
H23_10 H 0.2585 0.7805 0.0261
H24_10 H 0.2195 0.4780 0.0261
C45_10 C 0.2841(2) 0.8846(3) 0.01838(5)
C46_10 C 0.1154(3) 0.3995(2) 0.01838(5)
C47_10 C 0.3269(3) 0.9400(4) 0.00643(5)
C48_10 C 0.0600(4) 0.3869(2) 0.00643(5)
H25_10 H 0.3257 0.9849 0.0064
H26_10 H 0.0151 0.3408 0.0064
C49_10 C 0.2397(3) 0.8993(4) 0.03066(6)
C50_10 C 0.1007(4) 0.3404(2) 0.03066(6)
C51_10 C 0.2031(4) 0.9375(5) 0.02667(7)
C52_10 C 0.0625(5) 0.2656(3) 0.02667(7)
H27_10 H 0.2064 0.9544 0.0158
H28_10 H 0.0456 0.2520 0.0158
C53_10 C 0.1613(4) 0.9523(6) 0.03801(8)
C54_10 C 0.0477(6) 0.2090(4) 0.03801(8)
H29_10 H 0.1351 0.9764 0.0347
H30_10 H 0.0236 0.1587 0.0347
C55_10 C 0.1596(4) 0.9299(5) 0.05469(7)
C56_10 C 0.0701(5) 0.2297(3) 0.05469(7)
C57_10 C 0.1972(3) 0.8924(4) 0.05889(6)
C58_10 C 0.1076(4) 0.3048(3) 0.05889(6)
H31_10 H 0.1967 0.8779 0.0699
H32_10 H 0.1221 0.3188 0.0699
C59_10 C 0.2352(3) 0.8757(4) 0.04720(6)
C60_10 C 0.1243(4) 0.3595(3) 0.04720(6)
H33_10 H 0.2583 0.8482 0.0503
H34_10 H 0.1518 0.4101 0.0503
C61_10 C 0.3321(2) 0.7342(3) 0.00695(5)
C62_10 C 0.2658(3) 0.5979(2) 0.00695(5)
C63_10 C 0.2646(2) 0.6651(3) 0.00682(5)
C64_10 C 0.3349(3) 0.5995(2) 0.00682(5)
H35_10 H 0.2186 0.6641 0.0067
H36_10 H 0.3359 0.5545 0.0067
C65_10 C 0.1167(3) 0.9494(6) 0.06703(9)
C66_10 C 0.0506(6) 0.1673(5) 0.06703(9)
C1_10 C 0.6213(2) 0.4459(2) 0.94972(5)
C2_10 C 0.6036(2) 0.4947(2) 0.96077(5)
C3_10 C 0.6625(2) 0.5659(3) 0.96603(5)
H1_10 H 0.7113 0.5844 0.9621
C4_10 C 0.6469(2) 0.6072(3) 0.97700(6)
H2_10 H 0.6862 0.6531 0.9808
C5_10 C 0.5734(2) 0.5828(2) 0.98281(5)
C6_10 C 0.5167(2) 0.5144(2) 0.97679(6)
H3_10 H 0.4671 0.4972 0.9801
C7_10 C 0.5319(3) 0.4712(2) 0.96609(6)
H4_10 H 0.4926 0.4251 0.9624
C8_10 C 0.5590(2) 0.6293(2) 0.99475(5)
C9_10 C 0.4892(2) 0.6262(2) 0.99521(5)
H5_10 H 0.4516 0.5954 0.9877
C31_10 C 0.4172(2) 0.9906(3) 0.98281(5)
C32_10 C 0.0094(3) 0.4266(2) 0.98281(5)
H17_10 H 0.5028 0.9699 0.9801
H18_10 H 0.0301 0.5329 0.9801
C37_10 C 0.3707(2) 0.9297(3) 0.99475(5)
C38_10 C 0.0703(3) 0.4410(2) 0.99475(5)
C39_10 C 0.3738(2) 0.8630(3) 0.99521(5)
C40_10 C 0.1370(3) 0.5108(2) 0.99521(5)
H21_10 H 0.4046 0.8562 0.9877
H22_10 H 0.1438 0.5484 0.9877
C24_10 C 0.8246(3) 0.3787(2) 0.94972(5)
C26_10 C 0.8911(3) 0.3964(2) 0.96077(5)
C28_10 C 0.9034(4) 0.3375(2) 0.96603(5)
H14_10 H 0.8731 0.2887 0.9621
C30_10 C 0.9603(4) 0.3531(2) 0.97700(6)
H16_10 H 0.9669 0.3138 0.9808
C34_10 C 0.9977(3) 0.4833(2) 0.97679(6)
C36_10 C 0.9393(4) 0.4681(3) 0.96609(6)
H20_10 H 0.9325 0.5074 0.9624
H1_11 H 0.0446 0.2511 0.6288
H2_11 H 0.0195 0.3198 0.6475
C15_11 C 0.0677(3) 0.4636(4) 0.69334(7)
H8_11 H 0.0813 0.4603 0.6825
C16_11 C 0.1243(4) 0.5054(4) 0.70468(8)
H9_11 H 0.1746 0.5316 0.7014
C17_11 C 0.1036(3) 0.5071(4) 0.72136(7)
C18_11 C 0.0285(3) 0.4695(3) 0.72556(6)
H10_11 H 0.0145 0.4700 0.7366
C22_11 C 0.1660(5) 0.5500(3) 0.73370(9)
C1_11 C 0.9546(2) 0.1126(2) 0.61639(5)
C2_11 C 0.9369(2) 0.1614(2) 0.62744(5)
C3_11 C 0.9958(2) 0.2326(3) 0.63270(5)
C4_11 C 0.9802(2) 0.2739(3) 0.64367(6)
C5_11 C 0.9067(2) 0.2495(2) 0.64948(5)
C6_11 C 0.8500(2) 0.1811(2) 0.64346(6)
H3_11 H 0.8004 0.1639 0.6468
C7_11 C 0.8652(3) 0.1379(2) 0.63276(6)
H4_11 H 0.8259 0.0918 0.6291
C8_11 C 0.8923(2) 0.2960(2) 0.66142(5)
C9_11 C 0.8225(2) 0.2929(2) 0.66188(5)
H5_11 H 0.7849 0.2621 0.6544
C10_11 C 0.8083(2) 0.3361(2) 0.67357(5)
C11_11 C 0.8643(2) 0.3800(2) 0.68499(5)
H6_11 H 0.8553 0.4082 0.6928
C12_11 C 0.9338(2) 0.3826(2) 0.68505(5)
C13_11 C 0.9464(2) 0.3398(3) 0.67310(5)
H7_11 H 0.9925 0.3410 0.6731
C14_11 C 0.9929(2) 0.4270(3) 0.69733(6)
C19_11 C 0.9738(3) 0.4315(3) 0.71387(6)
H11_11 H 0.9232 0.4084 0.7170
C20_11 C 0.7354(2) 0.3346(2) 0.67362(5)
C21_11 C 0.7338(2) 0.4021(2) 0.67349(5)
H12_11 H 0.7788 0.4481 0.6734
C23_11 C 0.8874(2) 0.8421(3) 0.61639(5)
C24_11 C 0.1579(3) 0.0454(2) 0.61639(5)
C25_11 C 0.8386(2) 0.7756(3) 0.62744(5)
C26_11 C 0.2244(3) 0.0631(2) 0.62744(5)
C27_11 C 0.7674(3) 0.7633(4) 0.63270(5)
C28_11 C 0.2367(4) 0.0042(2) 0.63270(5)
H13_11 H 0.7489 0.7936 0.6288
C29_11 C 0.7261(3) 0.7064(4) 0.64367(6)
C30_11 C 0.2936(4) 0.0198(2) 0.64367(6)
H15_11 H 0.6802 0.6998 0.6475
C31_11 C 0.7505(2) 0.6573(3) 0.64948(5)
C32_11 C 0.3427(3) 0.0933(2) 0.64948(5)
C33_11 C 0.8189(2) 0.6690(3) 0.64346(6)
C34_11 C 0.3310(3) 0.1500(2) 0.64346(6)
H17_11 H 0.8361 0.6366 0.6468
H18_11 H 0.3634 0.1996 0.6468
C35_11 C 0.8621(2) 0.7274(4) 0.63276(6)
C36_11 C 0.2726(4) 0.1348(3) 0.63276(6)
H19_11 H 0.9082 0.7342 0.6291
H20_11 H 0.2658 0.1741 0.6291
C37_11 C 0.7040(2) 0.5964(3) 0.66142(5)
C38_11 C 0.4036(3) 0.1077(2) 0.66142(5)
C39_11 C 0.7071(2) 0.5297(3) 0.66188(5)
C40_11 C 0.4703(3) 0.1775(2) 0.66188(5)
H21_11 H 0.7379 0.5229 0.6544
H22_11 H 0.4771 0.2151 0.6544
C41_11 C 0.6639(2) 0.4723(3) 0.67357(5)
C42_11 C 0.5277(3) 0.1917(2) 0.67357(5)
C43_11 C 0.6200(2) 0.4844(3) 0.68499(5)
C44_11 C 0.5156(3) 0.1357(2) 0.68499(5)
H23_11 H 0.5918 0.4472 0.6928
H24_11 H 0.5528 0.1447 0.6928
C45_11 C 0.6174(2) 0.5513(3) 0.68505(5)
C46_11 C 0.4487(3) 0.0662(2) 0.68505(5)
C47_11 C 0.6602(3) 0.6067(4) 0.67310(5)
C48_11 C 0.3933(4) 0.0536(2) 0.67310(5)
H25_11 H 0.6590 0.6516 0.6731
H26_11 H 0.3484 0.0075 0.6731
C49_11 C 0.5730(3) 0.5660(4) 0.69733(6)
C50_11 C 0.4340(4) 0.0071(2) 0.69733(6)
C51_11 C 0.5364(4) 0.6042(5) 0.69334(7)
H27_11 H 0.5397 0.6211 0.6825
C53_11 C 0.4946(4) 0.6190(6) 0.70468(8)
H29_11 H 0.4684 0.6431 0.7014
C55_11 C 0.4929(4) 0.5966(5) 0.72136(7)
C57_11 C 0.5305(3) 0.5591(4) 0.72556(6)
H31_11 H 0.5300 0.5446 0.7366
C59_11 C 0.5685(3) 0.5424(4) 0.71387(6)
C60_11 C 0.4576(4) 0.0262(3) 0.71387(6)
H33_11 H 0.5916 0.5149 0.7170
H34_11 H 0.4851 0.0768 0.7170
C61_11 C 0.6654(2) 0.4009(3) 0.67362(5)
C62_11 C 0.5991(3) 0.2646(2) 0.67362(5)
C63_11 C 0.5979(2) 0.3318(3) 0.67349(5)
C64_11 C 0.6682(3) 0.2662(2) 0.67349(5)
H35_11 H 0.5519 0.3308 0.6734
H36_11 H 0.6692 0.2212 0.6734
C65_11 C 0.4500(3) 0.6161(6) 0.73370(9)
H14_11 H 0.2064 0.9554 0.6288
H16_11 H 0.3002 0.9805 0.6475
C52_11 C 0.3958(5) 0.9323(3) 0.69334(7)
H28_11 H 0.3789 0.9187 0.6825
C54_11 C 0.3810(6) 0.8757(4) 0.70468(8)
H30_11 H 0.3569 0.8254 0.7014
C56_11 C 0.4034(5) 0.8964(3) 0.72136(7)
C58_11 C 0.4409(4) 0.9715(3) 0.72556(6)
H32_11 H 0.4554 0.9855 0.7366
C66_11 C 0.3839(6) 0.8340(5) 0.73370(9)
C10_12 C 0.1417(2) 0.0027(2) 0.34023(5)
C11_12 C 0.1977(2) 0.0466(2) 0.35165(5)
H6_12 H 0.1887 0.0748 0.3594
C12_12 C 0.2672(2) 0.0492(2) 0.35171(5)
C13_12 C 0.2798(2) 0.0064(3) 0.33976(5)
H7_12 H 0.3259 0.0076 0.3397
C14_12 C 0.3263(2) 0.0936(3) 0.36399(6)
C15_12 C 0.4011(3) 0.1302(4) 0.36000(7)
H8_12 H 0.4147 0.1269 0.3491
C16_12 C 0.4577(4) 0.1720(4) 0.37134(8)
H9_12 H 0.5080 0.1982 0.3680
C17_12 C 0.4370(3) 0.1737(4) 0.38802(7)
C18_12 C 0.3619(3) 0.1361(3) 0.39222(6)
H10_12 H 0.3479 0.1366 0.4032
C19_12 C 0.3072(3) 0.0981(3) 0.38053(6)
H11_12 H 0.2566 0.0750 0.3836
C20_12 C 0.0688(2) 0.0012(2) 0.34028(5)
C21_12 C 0.0672(2) 0.0687(2) 0.34015(5)
H12_12 H 0.1122 0.1147 0.3400
C22_12 C 0.4994(5) 0.2166(3) 0.40036(9)
C23_12 C 0.2208(2) 0.5087(3) 0.28305(5)
C25_12 C 0.1720(2) 0.4422(3) 0.29410(5)
C27_12 C 0.1008(3) 0.4299(4) 0.29936(5)
H13_12 H 0.0823 0.4602 0.2954
C29_12 C 0.0595(3) 0.3730(4) 0.31033(6)
H15_12 H 0.0136 0.3664 0.3141
C31_12 C 0.0839(2) 0.3239(3) 0.31614(5)
C33_12 C 0.1523(2) 0.3356(3) 0.31012(6)
H17_12 H 0.1695 0.3032 0.3134
C35_12 C 0.1955(2) 0.3940(4) 0.29942(6)
H19_12 H 0.2416 0.4008 0.2957
C37_12 C 0.0374(2) 0.2630(3) 0.32808(5)
C39_12 C 0.0405(2) 0.1963(3) 0.32854(5)
H21_12 H 0.0713 0.1895 0.3210
C1_12 C 0.2880(2) 0.7792(2) 0.28305(5)
C2_12 C 0.2703(2) 0.8280(2) 0.29410(5)
C3_12 C 0.3292(2) 0.8992(3) 0.29936(5)
H1_12 H 0.3780 0.9177 0.2954
C4_12 C 0.3136(2) 0.9405(3) 0.31033(6)
H2_12 H 0.3529 0.9864 0.3141
C5_12 C 0.2401(2) 0.9161(2) 0.31614(5)
C6_12 C 0.1834(2) 0.8477(2) 0.31012(6)
H3_12 H 0.1338 0.8305 0.3134
C7_12 C 0.1986(3) 0.8045(2) 0.29942(6)
H4_12 H 0.1593 0.7584 0.2957
C8_12 C 0.2257(2) 0.9626(2) 0.32808(5)
C9_12 C 0.1559(2) 0.9595(2) 0.32854(5)
H5_12 H 0.1183 0.9287 0.3210
C64_12 C 0.0016(3) 0.9328(2) 0.34015(5)
H36_12 H 0.0026 0.8878 0.3400
C41_12 C 0.9973(2) 0.1389(3) 0.34023(5)
C43_12 C 0.9534(2) 0.1510(3) 0.35165(5)
H23_12 H 0.9252 0.1138 0.3594
C45_12 C 0.9508(2) 0.2179(3) 0.35171(5)
C47_12 C 0.9936(3) 0.2733(4) 0.33976(5)
H25_12 H 0.9924 0.3182 0.3397
C49_12 C 0.9064(3) 0.2326(4) 0.36399(6)
C51_12 C 0.8698(4) 0.2708(5) 0.36000(7)
H27_12 H 0.8731 0.2877 0.3491
C53_12 C 0.8280(4) 0.2856(6) 0.37134(8)
H29_12 H 0.8018 0.3097 0.3680
C55_12 C 0.8263(4) 0.2632(5) 0.38802(7)
C57_12 C 0.8639(3) 0.2257(4) 0.39222(6)
H31_12 H 0.8634 0.2112 0.4032
C59_12 C 0.9019(3) 0.2090(4) 0.38053(6)
H33_12 H 0.9250 0.1815 0.3836
C61_12 C 0.9988(2) 0.0675(3) 0.34028(5)
C65_12 C 0.7834(3) 0.2827(6) 0.40036(9)
C24_12 C 0.4913(3) 0.7120(2) 0.28305(5)
C26_12 C 0.5578(3) 0.7297(2) 0.29410(5)
C28_12 C 0.5701(4) 0.6708(2) 0.29936(5)
H14_12 H 0.5398 0.6220 0.2954
C30_12 C 0.6270(4) 0.6864(2) 0.31033(6)
H16_12 H 0.6336 0.6471 0.3141
C32_12 C 0.6761(3) 0.7599(2) 0.31614(5)
C34_12 C 0.6644(3) 0.8166(2) 0.31012(6)
H18_12 H 0.6968 0.8662 0.3134
C36_12 C 0.6060(4) 0.8014(3) 0.29942(6)
H20_12 H 0.5992 0.8407 0.2957
C38_12 C 0.7370(3) 0.7743(2) 0.32808(5)
C40_12 C 0.8037(3) 0.8441(2) 0.32854(5)
H22_12 H 0.8105 0.8817 0.3210
C42_12 C 0.8611(3) 0.8583(2) 0.34023(5)
C44_12 C 0.8490(3) 0.8023(2) 0.35165(5)
H24_12 H 0.8862 0.8113 0.3594
C46_12 C 0.7821(3) 0.7328(2) 0.35171(5)
C48_12 C 0.7267(4) 0.7202(2) 0.33976(5)
H26_12 H 0.6818 0.6741 0.3397
C50_12 C 0.7674(4) 0.6737(2) 0.36399(6)
C52_12 C 0.7292(5) 0.5989(3) 0.36000(7)
H28_12 H 0.7123 0.5853 0.3491
C54_12 C 0.7144(6) 0.5423(4) 0.37134(8)
H30_12 H 0.6903 0.4920 0.3680
C56_12 C 0.7368(5) 0.5630(3) 0.38802(7)
C58_12 C 0.7743(4) 0.6381(3) 0.39222(6)
H32_12 H 0.7888 0.6521 0.4032
C60_12 C 0.7910(4) 0.6928(3) 0.38053(6)
H34_12 H 0.8185 0.7434 0.3836
C62_12 C 0.9325(3) 0.9312(2) 0.34028(5)
C63_12 C 0.9313(2) 0.9984(3) 0.34015(5)
H35_12 H 0.8853 0.9974 0.3400
C66_12 C 0.7173(6) 0.5006(5) 0.40036(9)
loop_
_geom_bond_atom_site_label_1
_geom_bond_atom_site_label_2
_geom_bond_site_symmetry_1
_geom_bond_site_symmetry_2
C24 C26 1_555 1_555
C26 C28 1_555 1_555
C28 H14 1_555 1_555
C30 C28 1_555 1_555
H16 C30 1_555 1_555
C36 C26 1_555 1_555
H20 C36 1_555 1_555
O7 C24 1_555 1_555
O17 C24 1_555 1_555
Zn5 O17 1_555 1_555
Zn9 O7 1_555 1_555
C34 C36 1_555 1_555
C1 C2 1_555 1_555
C2 C3 1_555 1_555
C3 H1 1_555 1_555
C4 C3 1_555 1_555
H2 C4 1_555 1_555
C5 C4 1_555 1_555
C6 C5 1_555 1_555
H3 C6 1_555 1_555
C7 C2 1_555 1_555
H4 C7 1_555 1_555
C8 C5 1_555 1_555
C9 C8 1_555 1_555
H5 C9 1_555 1_555
O1 C1 1_555 1_555
O3 Zn5 1_555 1_555
O4 C1 1_555 1_555
Zn5 O1 1_555 1_555
Zn2 O3 1_555 1_555
C37 C31 1_555 1_555
C38 C32 1_555 1_555
C39 C37 1_555 1_555
C40 C38 1_555 1_555
H21 C39 1_555 1_555
H22 C40 1_555 1_555
O12 Zn5 1_555 1_555
O22 Zn2 1_555 1_555
O23 Zn2 1_555 1_555
O24 Zn2 1_555 1_555
Zn7 O3 1_555 1_555
Zn9 O3 1_555 1_555
C6 C7 1_555 1_555
O4 Zn7 1_555 1_555
C11 C10 1_555 1_555
H6 C11 1_555 1_555
C12 C11 1_555 1_555
H7 C13 1_555 1_555
C14 C12 1_555 1_555
C15 C14 1_555 1_555
H8 C15 1_555 1_555
C16 C15 1_555 1_555
H9 C16 1_555 1_555
C17 C16 1_555 1_555
C18 C17 1_555 1_555
H10 C18 1_555 1_555
C19 C14 1_555 1_555
H11 C19 1_555 1_555
C20 C10 1_555 1_555
C21 C20 1_555 1_555
H12 C21 1_555 1_555
C22 C17 1_555 1_555
O2 C22 1_555 1_555
O5 C22 1_555 1_555
C43 C41 1_555 1_555
C44 C42 1_555 1_555
H23 C43 1_555 1_555
H24 C44 1_555 1_555
C45 C43 1_555 1_555
C46 C44 1_555 1_555
H25 C47 1_555 1_555
H26 C48 1_555 1_555
C49 C45 1_555 1_555
C50 C46 1_555 1_555
C51 C49 1_555 1_555
C52 C50 1_555 1_555
H27 C51 1_555 1_555
H28 C52 1_555 1_555
C53 C51 1_555 1_555
C54 C52 1_555 1_555
H29 C53 1_555 1_555
H30 C54 1_555 1_555
C55 C53 1_555 1_555
C56 C54 1_555 1_555
C57 C55 1_555 1_555
C58 C56 1_555 1_555
H31 C57 1_555 1_555
H32 C58 1_555 1_555
C59 C49 1_555 1_555
C60 C50 1_555 1_555
H33 C59 1_555 1_555
H34 C60 1_555 1_555
C61 C21 1_555 1_555
C62 C42 1_555 1_555
C63 C61 1_555 1_555
C64 C20 1_555 1_555
H35 C63 1_555 1_555
H36 C64 1_555 1_555
C65 C55 1_555 1_555
C66 C56 1_555 1_555
O8 Zn4 1_555 1_555
O10 C65 1_555 1_555
O11 C66 1_555 1_555
O15 Zn4 1_555 1_555
O19 Zn4 1_555 1_555
O20 C65 1_555 1_555
O21 C66 1_555 1_555
Zn4 O2 1_555 1_555
Zn10 O11 1_555 1_555
Zn11 O10 1_555 1_555
Zn14 O5 1_555 1_555
Zn14_3 O20 1_555 1_555
Zn14_4 O21 1_555 1_555
C12 C13 1_555 1_555
C18 C19 1_555 1_555
C41 C61 1_555 1_555
C45 C47 1_555 1_555
C46 C48 1_555 1_555
C57 C59 1_555 1_555
C58 C60 1_555 1_555
C62 C63 1_555 1_555
C62 C64 1_555 1_555
O15 Zn14 1_555 1_555
C23 C25 1_555 1_555
C25 C27 1_555 1_555
C27 H13 1_555 1_555
C29 C27 1_555 1_555
H15 C29 1_555 1_555
C35 C25 1_555 1_555
H19 C35 1_555 1_555
O6 C23 1_555 1_555
O13 Zn9 1_555 1_555
O16 C23 1_555 1_555
Zn9 O16 1_555 1_555
Zn7 O6 1_555 1_555
C33 C35 1_555 1_555
O15_2 Zn14_2 1_555 1_555
O15_3 Zn14_3 1_555 1_555
O15_4 Zn14_4 1_555 1_555
O8_2 Zn11 1_555 1_555
O12_2 Zn7 1_555 1_555
O8_3 Zn10 1_555 1_555
Zn2_2 O3_2 1_555 1_555
H28_2 C52_2 1_555 1_555
C54_2 C52_2 1_555 1_555
H30_2 C54_2 1_555 1_555
C56_2 C54_2 1_555 1_555
C58_2 C56_2 1_555 1_555
H32_2 C58_2 1_555 1_555
C66_2 C56_2 1_555 1_555
O11_2 C66_2 1_555 1_555
O21_2 C66_2 1_555 1_555
O24_2 Zn2_2 1_555 1_555
Zn7_2 O3_2 1_555 1_555
Zn9_2 O7_2 1_555 1_555
Zn10_2 O11_2 1_555 1_555
Zn14_5 O21_2 1_555 1_555
C1_2 C2_2 1_555 1_555
C2_2 C3_2 1_555 1_555
C4_2 C3_2 1_555 1_555
C5_2 C4_2 1_555 1_555
C6_2 C5_2 1_555 1_555
H3_2 C6_2 1_555 1_555
C7_2 C2_2 1_555 1_555
H4_2 C7_2 1_555 1_555
C8_2 C5_2 1_555 1_555
C9_2 C8_2 1_555 1_555
H5_2 C9_2 1_555 1_555
C10_2 C9_2 1_555 1_555
C11_2 C10_2 1_555 1_555
H6_2 C11_2 1_555 1_555
C12_2 C11_2 1_555 1_555
C13_2 C8_2 1_555 1_555
H7_2 C13_2 1_555 1_555
C14_2 C12_2 1_555 1_555
C19_2 C14_2 1_555 1_555
H11_2 C19_2 1_555 1_555
C20_2 C10_2 1_555 1_555
C21_2 C20_2 1_555 1_555
H12_2 C21_2 1_555 1_555
O4_2 C1_2 1_555 1_555
Zn2_3 O3_3 1_555 1_555
C23_2 C25_2 1_555 1_555
C24_2 C26_2 1_555 1_555
C25_2 C27_2 1_555 1_555
C26_2 C28_2 1_555 1_555
C27_2 H13_2 1_555 1_555
C29_2 C27_2 1_555 1_555
C30_2 C28_2 1_555 1_555
H15_2 C29_2 1_555 1_555
C31_2 C29_2 1_555 1_555
C32_2 C30_2 1_555 1_555
C33_2 C31_2 1_555 1_555
C34_2 C32_2 1_555 1_555
H17_2 C33_2 1_555 1_555
H18_2 C34_2 1_555 1_555
C35_2 C25_2 1_555 1_555
C36_2 C26_2 1_555 1_555
H19_2 C35_2 1_555 1_555
H20_2 C36_2 1_555 1_555
C37_2 C31_2 1_555 1_555
C38_2 C32_2 1_555 1_555
C39_2 C37_2 1_555 1_555
C40_2 C38_2 1_555 1_555
H21_2 C39_2 1_555 1_555
H22_2 C40_2 1_555 1_555
C41_2 C39_2 1_555 1_555
C42_2 C40_2 1_555 1_555
C43_2 C41_2 1_555 1_555
C44_2 C42_2 1_555 1_555
H23_2 C43_2 1_555 1_555
H24_2 C44_2 1_555 1_555
C45_2 C43_2 1_555 1_555
C46_2 C44_2 1_555 1_555
C47_2 C37_2 1_555 1_555
C48_2 C38_2 1_555 1_555
H25_2 C47_2 1_555 1_555
H26_2 C48_2 1_555 1_555
C49_2 C45_2 1_555 1_555
C50_2 C46_2 1_555 1_555
C51_2 C49_2 1_555 1_555
H27_2 C51_2 1_555 1_555
C53_2 C51_2 1_555 1_555
H29_2 C53_2 1_555 1_555
C55_2 C53_2 1_555 1_555
C57_2 C55_2 1_555 1_555
H31_2 C57_2 1_555 1_555
C59_2 C49_2 1_555 1_555
C60_2 C50_2 1_555 1_555
H33_2 C59_2 1_555 1_555
H34_2 C60_2 1_555 1_555
C61_2 C21_2 1_555 1_555
C62_2 C42_2 1_555 1_555
C63_2 C61_2 1_555 1_555
C64_2 C20_2 1_555 1_555
H35_2 C63_2 1_555 1_555
H36_2 C64_2 1_555 1_555
C65_2 C55_2 1_555 1_555
O6_2 C23_2 1_555 1_555
O10_2 C65_2 1_555 1_555
O16_2 C23_2 1_555 1_555
O17_2 C24_2 1_555 1_555
O20_2 C65_2 1_555 1_555
Zn5_2 O17_2 1_555 1_555
Zn7_2 O6_2 1_555 1_555
Zn11_2 O10_2 1_555 1_555
Zn14_5 O20_2 1_555 1_555
C6_2 C7_2 1_555 1_555
C12_2 C13_2 1_555 1_555
C33_2 C35_2 1_555 1_555
C34_2 C36_2 1_555 1_555
C41_2 C61_2 1_555 1_555
C45_2 C47_2 1_555 1_555
C46_2 C48_2 1_555 1_555
C57_2 C59_2 1_555 1_555
C62_2 C63_2 1_555 1_555
C62_2 C64_2 1_555 1_555
Zn2_4 O3_4 1_555 1_555
O23_2 Zn2_4 1_555 1_555
Zn9_2 O3_4 1_555 1_555
H8_2 C15_2 1_555 1_555
C16_2 C15_2 1_555 1_555
H9_2 C16_2 1_555 1_555
C17_2 C16_2 1_555 1_555
C18_2 C17_2 1_555 1_555
H10_2 C18_2 1_555 1_555
C22_2 C17_2 1_555 1_555
O2_2 C22_2 1_555 1_555
O3_5 Zn5_2 1_555 1_555
O5_2 C22_2 1_555 1_555
Zn5_2 O1_2 1_555 1_555
Zn2_5 O3_5 1_555 1_555
O8_4 Zn4_2 1_555 1_555
O12_3 Zn5_2 1_555 1_555
O13_2 Zn9_2 1_555 1_555
O15_5 Zn4_2 1_555 1_555
O19_4 Zn4_2 1_555 1_555
O22_2 Zn2_5 1_555 1_555
Zn4_2 O2_2 1_555 1_555
Zn14_5 O5_2 1_555 1_555
O15_5 Zn14_5 1_555 1_555
O8_5 Zn11_2 1_555 1_555
O12_4 Zn7_2 1_555 1_555
O15_5 Zn11_2 1_555 1_555
O19_5 Zn11_2 1_555 1_555
O8_6 Zn10_2 1_555 1_555
O15_5 Zn10_2 1_555 1_555
O19_6 Zn10_2 1_555 1_555
C24_3 C26_3 1_555 1_555
C26_3 C28_3 1_555 1_555
C28_3 H14_3 1_555 1_555
C30_3 C28_3 1_555 1_555
H16_3 C30_3 1_555 1_555
C32_3 C30_3 1_555 1_555
C34_3 C32_3 1_555 1_555
H18_3 C34_3 1_555 1_555
C36_3 C26_3 1_555 1_555
H20_3 C36_3 1_555 1_555
C38_3 C32_3 1_555 1_555
C40_3 C38_3 1_555 1_555
H22_3 C40_3 1_555 1_555
C42_3 C40_3 1_555 1_555
C44_3 C42_3 1_555 1_555
H24_3 C44_3 1_555 1_555
C46_3 C44_3 1_555 1_555
C48_3 C38_3 1_555 1_555
H26_3 C48_3 1_555 1_555
C50_3 C46_3 1_555 1_555
C52_3 C50_3 1_555 1_555
H28_3 C52_3 1_555 1_555
C54_3 C52_3 1_555 1_555
H30_3 C54_3 1_555 1_555
C56_3 C54_3 1_555 1_555
C58_3 C56_3 1_555 1_555
H32_3 C58_3 1_555 1_555
C60_3 C50_3 1_555 1_555
H34_3 C60_3 1_555 1_555
C62_3 C42_3 1_555 1_555
H35_3 C63_3 1_555 1_555
C66_3 C56_3 1_555 1_555
O7_3 C24_3 1_555 1_555
O11_3 C66_3 1_555 1_555
O17_3 C24_3 1_555 1_555
O21_3 C66_3 1_555 1_555
Zn5_3 O17_3 1_555 1_555
Zn9_3 O7_3 1_555 1_555
Zn10_3 O11_3 1_555 1_555
Zn14_6 O21_3 1_555 1_555
C34_3 C36_3 1_555 1_555
C46_3 C48_3 1_555 1_555
C58_3 C60_3 1_555 1_555
C62_3 C63_3 1_555 1_555
C43_3 C41_3 1_555 1_555
H23_3 C43_3 1_555 1_555
C45_3 C43_3 1_555 1_555
H25_3 C47_3 1_555 1_555
C49_3 C45_3 1_555 1_555
C51_3 C49_3 1_555 1_555
H27_3 C51_3 1_555 1_555
C53_3 C51_3 1_555 1_555
H29_3 C53_3 1_555 1_555
C55_3 C53_3 1_555 1_555
C57_3 C55_3 1_555 1_555
H31_3 C57_3 1_555 1_555
C59_3 C49_3 1_555 1_555
H33_3 C59_3 1_555 1_555
C65_3 C55_3 1_555 1_555
O10_3 C65_3 1_555 1_555
O20_3 C65_3 1_555 1_555
Zn11_3 O10_3 1_555 1_555
Zn14_6 O20_3 1_555 1_555
C41_3 C61_3 1_555 1_555
C45_3 C47_3 1_555 1_555
C57_3 C59_3 1_555 1_555
C1_3 C2_3 1_555 1_555
C2_3 C3_3 1_555 1_555
C3_3 H1_3 1_555 1_555
C4_3 C3_3 1_555 1_555
H2_3 C4_3 1_555 1_555
C5_3 C4_3 1_555 1_555
C6_3 C5_3 1_555 1_555
H3_3 C6_3 1_555 1_555
C7_3 C2_3 1_555 1_555
H4_3 C7_3 1_555 1_555
C8_3 C5_3 1_555 1_555
C9_3 C8_3 1_555 1_555
H5_3 C9_3 1_555 1_555
O1_3 C1_3 1_555 1_555
O3_6 Zn5_3 1_555 1_555
O4_3 C1_3 1_555 1_555
Zn5_3 O1_3 1_555 1_555
Zn2_6 O3_6 1_555 1_555
H36_3 C64_3 1_555 1_555
O12_5 Zn5_3 1_555 1_555
O22_3 Zn2_6 1_555 1_555
O23_3 Zn2_6 1_555 1_555
O24_3 Zn2_6 1_555 1_555
Zn7_3 O3_6 1_555 1_555
Zn9_3 O3_6 1_555 1_555
C6_3 C7_3 1_555 1_555
O4_3 Zn7_3 1_555 1_555
C11_3 C10_3 1_555 1_555
H6_3 C11_3 1_555 1_555
C12_3 C11_3 1_555 1_555
H7_3 C13_3 1_555 1_555
C14_3 C12_3 1_555 1_555
C15_3 C14_3 1_555 1_555
H8_3 C15_3 1_555 1_555
C16_3 C15_3 1_555 1_555
H9_3 C16_3 1_555 1_555
C17_3 C16_3 1_555 1_555
C18_3 C17_3 1_555 1_555
H10_3 C18_3 1_555 1_555
C19_3 C14_3 1_555 1_555
H11_3 C19_3 1_555 1_555
C20_3 C10_3 1_555 1_555
C21_3 C20_3 1_555 1_555
H12_3 C21_3 1_555 1_555
C22_3 C17_3 1_555 1_555
O2_3 C22_3 1_555 1_555
O5_3 C22_3 1_555 1_555
C23_3 C25_3 1_555 1_555
C25_3 C27_3 1_555 1_555
C27_3 H13_3 1_555 1_555
C29_3 C27_3 1_555 1_555
H15_3 C29_3 1_555 1_555
C31_3 C29_3 1_555 1_555
C33_3 C31_3 1_555 1_555
H17_3 C33_3 1_555 1_555
C35_3 C25_3 1_555 1_555
H19_3 C35_3 1_555 1_555
C37_3 C31_3 1_555 1_555
C39_3 C37_3 1_555 1_555
H21_3 C39_3 1_555 1_555
O6_3 C23_3 1_555 1_555
O8_7 Zn4_3 1_555 1_555
O13_3 Zn9_3 1_555 1_555
O15_6 Zn4_3 1_555 1_555
O16_3 C23_3 1_555 1_555
O19_7 Zn4_3 1_555 1_555
Zn9_3 O16_3 1_555 1_555
Zn4_3 O2_3 1_555 1_555
Zn7_3 O6_3 1_555 1_555
Zn14_6 O5_3 1_555 1_555
C12_3 C13_3 1_555 1_555
C18_3 C19_3 1_555 1_555
C33_3 C35_3 1_555 1_555
O15_6 Zn14_6 1_555 1_555
O8_8 Zn11_3 1_555 1_555
O15_6 Zn11_3 1_555 1_555
O19_8 Zn11_3 1_555 1_555
O12_6 Zn7_3 1_555 1_555
O8_9 Zn10_3 1_555 1_555
O15_6 Zn10_3 1_555 1_555
O19_9 Zn10_3 1_555 1_555
C23_4 C25_4 1_555 1_555
C25_4 C27_4 1_555 1_555
C27_4 H13_4 1_555 1_555
C29_4 C27_4 1_555 1_555
H15_4 C29_4 1_555 1_555
C35_4 C25_4 1_555 1_555
H19_4 C35_4 1_555 1_555
O8_9 C23_4 1_555 1_555
O19_8 C23_4 1_555 1_555
C33_4 C35_4 1_555 1_555
C1_4 C2_4 1_555 1_555
C2_4 C3_4 1_555 1_555
C3_4 H1_4 1_555 1_555
C4_4 C3_4 1_555 1_555
H2_4 C4_4 1_555 1_555
C5_4 C4_4 1_555 1_555
C6_4 C5_4 1_555 1_555
H3_4 C6_4 1_555 1_555
C7_4 C2_4 1_555 1_555
H4_4 C7_4 1_555 1_555
C8_4 C5_4 1_555 1_555
C9_4 C8_4 1_555 1_555
H5_4 C9_4 1_555 1_555
C10_4 C9_4 1_555 1_555
C11_4 C10_4 1_555 1_555
H6_4 C11_4 1_555 1_555
C12_4 C11_4 1_555 1_555
C13_4 C8_4 1_555 1_555
H7_4 C13_4 1_555 1_555
C14_4 C12_4 1_555 1_555
C15_4 C14_4 1_555 1_555
H8_4 C15_4 1_555 1_555
C16_4 C15_4 1_555 1_555
H9_4 C16_4 1_555 1_555
C17_4 C16_4 1_555 1_555
C18_4 C17_4 1_555 1_555
H10_4 C18_4 1_555 1_555
C19_4 C14_4 1_555 1_555
H11_4 C19_4 1_555 1_555
C20_4 C10_4 1_555 1_555
C21_4 C20_4 1_555 1_555
H12_4 C21_4 1_555 1_555
C22_4 C17_4 1_555 1_555
O8_7 C1_4 1_555 1_555
O12_3 C22_4 1_555 1_555
O19_9 C1_4 1_555 1_555
O22_2 C22_4 1_555 1_555
C37_4 C31_4 1_555 1_555
C38_4 C32_4 1_555 1_555
C39_4 C37_4 1_555 1_555
C40_4 C38_4 1_555 1_555
H21_4 C39_4 1_555 1_555
H22_4 C40_4 1_555 1_555
C41_4 C39_4 1_555 1_555
C42_4 C40_4 1_555 1_555
C43_4 C41_4 1_555 1_555
C44_4 C42_4 1_555 1_555
H23_4 C43_4 1_555 1_555
H24_4 C44_4 1_555 1_555
C45_4 C43_4 1_555 1_555
C46_4 C44_4 1_555 1_555
C47_4 C37_4 1_555 1_555
C48_4 C38_4 1_555 1_555
H25_4 C47_4 1_555 1_555
H26_4 C48_4 1_555 1_555
C49_4 C45_4 1_555 1_555
C50_4 C46_4 1_555 1_555
C51_4 C49_4 1_555 1_555
C52_4 C50_4 1_555 1_555
H27_4 C51_4 1_555 1_555
H28_4 C52_4 1_555 1_555
C53_4 C51_4 1_555 1_555
C54_4 C52_4 1_555 1_555
H29_4 C53_4 1_555 1_555
H30_4 C54_4 1_555 1_555
C55_4 C53_4 1_555 1_555
C56_4 C54_4 1_555 1_555
C57_4 C55_4 1_555 1_555
C58_4 C56_4 1_555 1_555
H31_4 C57_4 1_555 1_555
H32_4 C58_4 1_555 1_555
C59_4 C49_4 1_555 1_555
C60_4 C50_4 1_555 1_555
H33_4 C59_4 1_555 1_555
H34_4 C60_4 1_555 1_555
C61_4 C21_4 1_555 1_555
C62_4 C42_4 1_555 1_555
C63_4 C61_4 1_555 1_555
C64_4 C20_4 1_555 1_555
H35_4 C63_4 1_555 1_555
H36_4 C64_4 1_555 1_555
C65_4 C55_4 1_555 1_555
C66_4 C56_4 1_555 1_555
O13_2 C65_4 1_555 1_555
O12_4 C66_4 1_555 1_555
O23_2 C65_4 1_555 1_555
O24_2 C66_4 1_555 1_555
C6_4 C7_4 1_555 1_555
C12_4 C13_4 1_555 1_555
C18_4 C19_4 1_555 1_555
C41_4 C61_4 1_555 1_555
C45_4 C47_4 1_555 1_555
C46_4 C48_4 1_555 1_555
C57_4 C59_4 1_555 1_555
C58_4 C60_4 1_555 1_555
C62_4 C63_4 1_555 1_555
C62_4 C64_4 1_555 1_555
C24_4 C26_4 1_555 1_555
C26_4 C28_4 1_555 1_555
C28_4 H14_4 1_555 1_555
C30_4 C28_4 1_555 1_555
H16_4 C30_4 1_555 1_555
C36_4 C26_4 1_555 1_555
H20_4 C36_4 1_555 1_555
O8_8 C24_4 1_555 1_555
O19_7 C24_4 1_555 1_555
C34_4 C36_4 1_555 1_555
C11_5 C10_5 1_555 1_555
H6_5 C11_5 1_555 1_555
C12_5 C11_5 1_555 1_555
H7_5 C13_5 1_555 1_555
C14_5 C12_5 1_555 1_555
C15_5 C14_5 1_555 1_555
H8_5 C15_5 1_555 1_555
C16_5 C15_5 1_555 1_555
H9_5 C16_5 1_555 1_555
C17_5 C16_5 1_555 1_555
C18_5 C17_5 1_555 1_555
H10_5 C18_5 1_555 1_555
C19_5 C14_5 1_555 1_555
H11_5 C19_5 1_555 1_555
C20_5 C10_5 1_555 1_555
C21_5 C20_5 1_555 1_555
H12_5 C21_5 1_555 1_555
C22_5 C17_5 1_555 1_555
O12 C22_5 1_555 1_555
O22 C22_5 1_555 1_555
C23_5 C25_5 1_555 1_555
C25_5 C27_5 1_555 1_555
C27_5 H13_5 1_555 1_555
C29_5 C27_5 1_555 1_555
H15_5 C29_5 1_555 1_555
C31_5 C29_5 1_555 1_555
C33_5 C31_5 1_555 1_555
H17_5 C33_5 1_555 1_555
C35_5 C25_5 1_555 1_555
H19_5 C35_5 1_555 1_555
C37_5 C31_5 1_555 1_555
C39_5 C37_5 1_555 1_555
H21_5 C39_5 1_555 1_555
O8_6 C23_5 1_555 1_555
O19_5 C23_5 1_555 1_555
C12_5 C13_5 1_555 1_555
C18_5 C19_5 1_555 1_555
C33_5 C35_5 1_555 1_555
C43_5 C41_5 1_555 1_555
H23_5 C43_5 1_555 1_555
C45_5 C43_5 1_555 1_555
H25_5 C47_5 1_555 1_555
C49_5 C45_5 1_555 1_555
C51_5 C49_5 1_555 1_555
H27_5 C51_5 1_555 1_555
C53_5 C51_5 1_555 1_555
H29_5 C53_5 1_555 1_555
C55_5 C53_5 1_555 1_555
C57_5 C55_5 1_555 1_555
H31_5 C57_5 1_555 1_555
C59_5 C49_5 1_555 1_555
H33_5 C59_5 1_555 1_555
C65_5 C55_5 1_555 1_555
O13 C65_5 1_555 1_555
O23 C65_5 1_555 1_555
C41_5 C61_5 1_555 1_555
C45_5 C47_5 1_555 1_555
C57_5 C59_5 1_555 1_555
C1_5 C2_5 1_555 1_555
C2_5 C3_5 1_555 1_555
C3_5 H1_5 1_555 1_555
C4_5 C3_5 1_555 1_555
H2_5 C4_5 1_555 1_555
C5_5 C4_5 1_555 1_555
C6_5 C5_5 1_555 1_555
H3_5 C6_5 1_555 1_555
C7_5 C2_5 1_555 1_555
H4_5 C7_5 1_555 1_555
C8_5 C5_5 1_555 1_555
C9_5 C8_5 1_555 1_555
H5_5 C9_5 1_555 1_555
O8_4 C1_5 1_555 1_555
O19_6 C1_5 1_555 1_555
H36_5 C64_5 1_555 1_555
C6_5 C7_5 1_555 1_555
C24_5 C26_5 1_555 1_555
C26_5 C28_5 1_555 1_555
C28_5 H14_5 1_555 1_555
C30_5 C28_5 1_555 1_555
H16_5 C30_5 1_555 1_555
C32_5 C30_5 1_555 1_555
C34_5 C32_5 1_555 1_555
H18_5 C34_5 1_555 1_555
C36_5 C26_5 1_555 1_555
H20_5 C36_5 1_555 1_555
C38_5 C32_5 1_555 1_555
C40_5 C38_5 1_555 1_555
H22_5 C40_5 1_555 1_555
C42_5 C40_5 1_555 1_555
C44_5 C42_5 1_555 1_555
H24_5 C44_5 1_555 1_555
C46_5 C44_5 1_555 1_555
C48_5 C38_5 1_555 1_555
H26_5 C48_5 1_555 1_555
C50_5 C46_5 1_555 1_555
C52_5 C50_5 1_555 1_555
H28_5 C52_5 1_555 1_555
C54_5 C52_5 1_555 1_555
H30_5 C54_5 1_555 1_555
C56_5 C54_5 1_555 1_555
C58_5 C56_5 1_555 1_555
H32_5 C58_5 1_555 1_555
C60_5 C50_5 1_555 1_555
H34_5 C60_5 1_555 1_555
C62_5 C42_5 1_555 1_555
H35_5 C63_5 1_555 1_555
C66_5 C56_5 1_555 1_555
O8_5 C24_5 1_555 1_555
O12_2 C66_5 1_555 1_555
O19_4 C24_5 1_555 1_555
O24 C66_5 1_555 1_555
C34_5 C36_5 1_555 1_555
C46_5 C48_5 1_555 1_555
C58_5 C60_5 1_555 1_555
C62_5 C63_5 1_555 1_555
H8_6 C15_6 1_555 1_555
C16_6 C15_6 1_555 1_555
H9_6 C16_6 1_555 1_555
C17_6 C16_6 1_555 1_555
C18_6 C17_6 1_555 1_555
H10_6 C18_6 1_555 1_555
C22_6 C17_6 1_555 1_555
O12_5 C22_6 1_555 1_555
O22_3 C22_6 1_555 1_555
O15_3 Zn11 1_555 1_555
C1_6 C2_6 1_555 1_555
C2_6 C3_6 1_555 1_555
C4_6 C3_6 1_555 1_555
C5_6 C4_6 1_555 1_555
C6_6 C5_6 1_555 1_555
H3_6 C6_6 1_555 1_555
C7_6 C2_6 1_555 1_555
H4_6 C7_6 1_555 1_555
C8_6 C5_6 1_555 1_555
C9_6 C8_6 1_555 1_555
H5_6 C9_6 1_555 1_555
C10_6 C9_6 1_555 1_555
C11_6 C10_6 1_555 1_555
H6_6 C11_6 1_555 1_555
C12_6 C11_6 1_555 1_555
C13_6 C8_6 1_555 1_555
H7_6 C13_6 1_555 1_555
C14_6 C12_6 1_555 1_555
C19_6 C14_6 1_555 1_555
H11_6 C19_6 1_555 1_555
C20_6 C10_6 1_555 1_555
C21_6 C20_6 1_555 1_555
H12_6 C21_6 1_555 1_555
O19_3 C1_6 1_555 1_555
C23_6 C25_6 1_555 1_555
C24_6 C26_6 1_555 1_555
C25_6 C27_6 1_555 1_555
C26_6 C28_6 1_555 1_555
C27_6 H13_6 1_555 1_555
C29_6 C27_6 1_555 1_555
C30_6 C28_6 1_555 1_555
H15_6 C29_6 1_555 1_555
C31_6 C29_6 1_555 1_555
C32_6 C30_6 1_555 1_555
C33_6 C31_6 1_555 1_555
C34_6 C32_6 1_555 1_555
H17_6 C33_6 1_555 1_555
H18_6 C34_6 1_555 1_555
C35_6 C25_6 1_555 1_555
C36_6 C26_6 1_555 1_555
H19_6 C35_6 1_555 1_555
H20_6 C36_6 1_555 1_555
C37_6 C31_6 1_555 1_555
C38_6 C32_6 1_555 1_555
C39_6 C37_6 1_555 1_555
C40_6 C38_6 1_555 1_555
H21_6 C39_6 1_555 1_555
H22_6 C40_6 1_555 1_555
C41_6 C39_6 1_555 1_555
C42_6 C40_6 1_555 1_555
C43_6 C41_6 1_555 1_555
C44_6 C42_6 1_555 1_555
H23_6 C43_6 1_555 1_555
H24_6 C44_6 1_555 1_555
C45_6 C43_6 1_555 1_555
C46_6 C44_6 1_555 1_555
C47_6 C37_6 1_555 1_555
C48_6 C38_6 1_555 1_555
H25_6 C47_6 1_555 1_555
H26_6 C48_6 1_555 1_555
C49_6 C45_6 1_555 1_555
C50_6 C46_6 1_555 1_555
C51_6 C49_6 1_555 1_555
H27_6 C51_6 1_555 1_555
C53_6 C51_6 1_555 1_555
H29_6 C53_6 1_555 1_555
C55_6 C53_6 1_555 1_555
C57_6 C55_6 1_555 1_555
H31_6 C57_6 1_555 1_555
C59_6 C49_6 1_555 1_555
C60_6 C50_6 1_555 1_555
H33_6 C59_6 1_555 1_555
H34_6 C60_6 1_555 1_555
C61_6 C21_6 1_555 1_555
C62_6 C42_6 1_555 1_555
C63_6 C61_6 1_555 1_555
C64_6 C20_6 1_555 1_555
H35_6 C63_6 1_555 1_555
H36_6 C64_6 1_555 1_555
C65_6 C55_6 1_555 1_555
O8_3 C23_6 1_555 1_555
O13_3 C65_6 1_555 1_555
O19_2 C23_6 1_555 1_555
O19 C24_6 1_555 1_555
O23_3 C65_6 1_555 1_555
C6_6 C7_6 1_555 1_555
C12_6 C13_6 1_555 1_555
C33_6 C35_6 1_555 1_555
C34_6 C36_6 1_555 1_555
C41_6 C61_6 1_555 1_555
C45_6 C47_6 1_555 1_555
C46_6 C48_6 1_555 1_555
C57_6 C59_6 1_555 1_555
C62_6 C63_6 1_555 1_555
C62_6 C64_6 1_555 1_555
O15_4 Zn10 1_555 1_555
H28_6 C52_6 1_555 1_555
C54_6 C52_6 1_555 1_555
H30_6 C54_6 1_555 1_555
C56_6 C54_6 1_555 1_555
C58_6 C56_6 1_555 1_555
H32_6 C58_6 1_555 1_555
C66_6 C56_6 1_555 1_555
O12_6 C66_6 1_555 1_555
O24_3 C66_6 1_555 1_555
C24_7 C26_7 1_555 1_555
C26_7 C28_7 1_555 1_555
C28_7 H14_7 1_555 1_555
C30_7 C28_7 1_555 1_555
H16_7 C30_7 1_555 1_555
C36_7 C26_7 1_555 1_555
H20_7 C36_7 1_555 1_555
O7_4 C24_7 1_555 1_555
O17_4 C24_7 1_555 1_555
Zn5_4 O17_4 1_555 1_555
Zn9_4 O7_4 1_555 1_555
C34_7 C36_7 1_555 1_555
C1_7 C2_7 1_555 1_555
C2_7 C3_7 1_555 1_555
C3_7 H1_7 1_555 1_555
C4_7 C3_7 1_555 1_555
H2_7 C4_7 1_555 1_555
C5_7 C4_7 1_555 1_555
C6_7 C5_7 1_555 1_555
H3_7 C6_7 1_555 1_555
C7_7 C2_7 1_555 1_555
H4_7 C7_7 1_555 1_555
C8_7 C5_7 1_555 1_555
C9_7 C8_7 1_555 1_555
H5_7 C9_7 1_555 1_555
C10_7 C9_7 1_555 1_555
C11_7 C10_7 1_555 1_555
H6_7 C11_7 1_555 1_555
C12_7 C11_7 1_555 1_555
C13_7 C8_7 1_555 1_555
H7_7 C13_7 1_555 1_555
C14_7 C12_7 1_555 1_555
C15_7 C14_7 1_555 1_555
H8_7 C15_7 1_555 1_555
C16_7 C15_7 1_555 1_555
H9_7 C16_7 1_555 1_555
C17_7 C16_7 1_555 1_555
C18_7 C17_7 1_555 1_555
H10_7 C18_7 1_555 1_555
C19_7 C14_7 1_555 1_555
H11_7 C19_7 1_555 1_555
C20_7 C10_7 1_555 1_555
C21_7 C20_7 1_555 1_555
H12_7 C21_7 1_555 1_555
C22_7 C17_7 1_555 1_555
O1_4 C1_7 1_555 1_555
O2_4 C22_7 1_555 1_555
O3_7 Zn5_4 1_555 1_555
O4_4 C1_7 1_555 1_555
O5_4 C22_7 1_555 1_555
Zn5_4 O1_4 1_555 1_555
Zn2_7 O3_7 1_555 1_555
C37_7 C31_7 1_555 1_555
C38_7 C32_7 1_555 1_555
C39_7 C37_7 1_555 1_555
C40_7 C38_7 1_555 1_555
H21_7 C39_7 1_555 1_555
H22_7 C40_7 1_555 1_555
C41_7 C39_7 1_555 1_555
C42_7 C40_7 1_555 1_555
C43_7 C41_7 1_555 1_555
C44_7 C42_7 1_555 1_555
H23_7 C43_7 1_555 1_555
H24_7 C44_7 1_555 1_555
C45_7 C43_7 1_555 1_555
C46_7 C44_7 1_555 1_555
C47_7 C37_7 1_555 1_555
C48_7 C38_7 1_555 1_555
H25_7 C47_7 1_555 1_555
H26_7 C48_7 1_555 1_555
C49_7 C45_7 1_555 1_555
C50_7 C46_7 1_555 1_555
C51_7 C49_7 1_555 1_555
C52_7 C50_7 1_555 1_555
H27_7 C51_7 1_555 1_555
H28_7 C52_7 1_555 1_555
C53_7 C51_7 1_555 1_555
C54_7 C52_7 1_555 1_555
H29_7 C53_7 1_555 1_555
H30_7 C54_7 1_555 1_555
C55_7 C53_7 1_555 1_555
C56_7 C54_7 1_555 1_555
C57_7 C55_7 1_555 1_555
C58_7 C56_7 1_555 1_555
H31_7 C57_7 1_555 1_555
H32_7 C58_7 1_555 1_555
C59_7 C49_7 1_555 1_555
C60_7 C50_7 1_555 1_555
H33_7 C59_7 1_555 1_555
H34_7 C60_7 1_555 1_555
C61_7 C21_7 1_555 1_555
C62_7 C42_7 1_555 1_555
C63_7 C61_7 1_555 1_555
C64_7 C20_7 1_555 1_555
H35_7 C63_7 1_555 1_555
H36_7 C64_7 1_555 1_555
C65_7 C55_7 1_555 1_555
C66_7 C56_7 1_555 1_555
O8_10 Zn4_4 1_555 1_555
O10_4 C65_7 1_555 1_555
O11_4 C66_7 1_555 1_555
O12_7 Zn5_4 1_555 1_555
O15_7 Zn4_4 1_555 1_555
O19_10 Zn4_4 1_555 1_555
O20_4 C65_7 1_555 1_555
O21_4 C66_7 1_555 1_555
O22_4 Zn2_7 1_555 1_555
O23_4 Zn2_7 1_555 1_555
O24_4 Zn2_7 1_555 1_555
Zn4_4 O2_4 1_555 1_555
Zn7_4 O3_7 1_555 1_555
Zn9_4 O3_7 1_555 1_555
Zn10_4 O11_4 1_555 1_555
Zn11_4 O10_4 1_555 1_555
Zn14_7 O5_4 1_555 1_555
Zn14_8 O20_4 1_555 1_555
Zn14_10 O21_4 1_555 1_555
C6_7 C7_7 1_555 1_555
C12_7 C13_7 1_555 1_555
C18_7 C19_7 1_555 1_555
O4_4 Zn7_4 1_555 1_555
C41_7 C61_7 1_555 1_555
C45_7 C47_7 1_555 1_555
C46_7 C48_7 1_555 1_555
C57_7 C59_7 1_555 1_555
C58_7 C60_7 1_555 1_555
C62_7 C63_7 1_555 1_555
C62_7 C64_7 1_555 1_555
O15_7 Zn14_7 1_555 1_555
O15_8 Zn14_8 1_555 1_555
C23_7 C25_7 1_555 1_555
C25_7 C27_7 1_555 1_555
C27_7 H13_7 1_555 1_555
C29_7 C27_7 1_555 1_555
H15_7 C29_7 1_555 1_555
C35_7 C25_7 1_555 1_555
H19_7 C35_7 1_555 1_555
O6_4 C23_7 1_555 1_555
O13_4 Zn9_4 1_555 1_555
O16_4 C23_7 1_555 1_555
Zn9_4 O16_4 1_555 1_555
Zn7_4 O6_4 1_555 1_555
C33_7 C35_7 1_555 1_555
O15_9 Zn14_9 1_555 1_555
O15_10 Zn14_10 1_555 1_555
O8_11 Zn11_4 1_555 1_555
O12_8 Zn7_4 1_555 1_555
O8_12 Zn10_4 1_555 1_555
C24_8 C26_8 1_555 1_555
C26_8 C28_8 1_555 1_555
C28_8 H14_8 1_555 1_555
C30_8 C28_8 1_555 1_555
H16_8 C30_8 1_555 1_555
C32_8 C30_8 1_555 1_555
C34_8 C32_8 1_555 1_555
H18_8 C34_8 1_555 1_555
C36_8 C26_8 1_555 1_555
H20_8 C36_8 1_555 1_555
C38_8 C32_8 1_555 1_555
C40_8 C38_8 1_555 1_555
H22_8 C40_8 1_555 1_555
C42_8 C40_8 1_555 1_555
C44_8 C42_8 1_555 1_555
H24_8 C44_8 1_555 1_555
C46_8 C44_8 1_555 1_555
C48_8 C38_8 1_555 1_555
H26_8 C48_8 1_555 1_555
C50_8 C46_8 1_555 1_555
C52_8 C50_8 1_555 1_555
H28_8 C52_8 1_555 1_555
C54_8 C52_8 1_555 1_555
H30_8 C54_8 1_555 1_555
C56_8 C54_8 1_555 1_555
C58_8 C56_8 1_555 1_555
H32_8 C58_8 1_555 1_555
C60_8 C50_8 1_555 1_555
H34_8 C60_8 1_555 1_555
C62_8 C42_8 1_555 1_555
H35_8 C63_8 1_555 1_555
C66_8 C56_8 1_555 1_555
O7_5 C24_8 1_555 1_555
O11_5 C66_8 1_555 1_555
O17_5 C24_8 1_555 1_555
O21_5 C66_8 1_555 1_555
Zn5_5 O17_5 1_555 1_555
Zn9_5 O7_5 1_555 1_555
Zn10_5 O11_5 1_555 1_555
Zn14_11 O21_5 1_555 1_555
C34_8 C36_8 1_555 1_555
C46_8 C48_8 1_555 1_555
C58_8 C60_8 1_555 1_555
C62_8 C63_8 1_555 1_555
C1_8 C2_8 1_555 1_555
C2_8 C3_8 1_555 1_555
C3_8 H1_8 1_555 1_555
C4_8 C3_8 1_555 1_555
H2_8 C4_8 1_555 1_555
C5_8 C4_8 1_555 1_555
C6_8 C5_8 1_555 1_555
H3_8 C6_8 1_555 1_555
C7_8 C2_8 1_555 1_555
H4_8 C7_8 1_555 1_555
C8_8 C5_8 1_555 1_555
C9_8 C8_8 1_555 1_555
H5_8 C9_8 1_555 1_555
O1_5 C1_8 1_555 1_555
O3_8 Zn5_5 1_555 1_555
O4_5 C1_8 1_555 1_555
Zn5_5 O1_5 1_555 1_555
Zn2_8 O3_8 1_555 1_555
H36_8 C64_8 1_555 1_555
O12_9 Zn5_5 1_555 1_555
O22_5 Zn2_8 1_555 1_555
O23_5 Zn2_8 1_555 1_555
O24_5 Zn2_8 1_555 1_555
Zn7_5 O3_8 1_555 1_555
Zn9_5 O3_8 1_555 1_555
C6_8 C7_8 1_555 1_555
O4_5 Zn7_5 1_555 1_555
C43_8 C41_8 1_555 1_555
H23_8 C43_8 1_555 1_555
C45_8 C43_8 1_555 1_555
H25_8 C47_8 1_555 1_555
C49_8 C45_8 1_555 1_555
C51_8 C49_8 1_555 1_555
H27_8 C51_8 1_555 1_555
C53_8 C51_8 1_555 1_555
H29_8 C53_8 1_555 1_555
C55_8 C53_8 1_555 1_555
C57_8 C55_8 1_555 1_555
H31_8 C57_8 1_555 1_555
C59_8 C49_8 1_555 1_555
H33_8 C59_8 1_555 1_555
C65_8 C55_8 1_555 1_555
O10_5 C65_8 1_555 1_555
O20_5 C65_8 1_555 1_555
Zn11_5 O10_5 1_555 1_555
Zn14_11 O20_5 1_555 1_555
C41_8 C61_8 1_555 1_555
C45_8 C47_8 1_555 1_555
C57_8 C59_8 1_555 1_555
C11_8 C10_8 1_555 1_555
H6_8 C11_8 1_555 1_555
C12_8 C11_8 1_555 1_555
H7_8 C13_8 1_555 1_555
C14_8 C12_8 1_555 1_555
C15_8 C14_8 1_555 1_555
H8_8 C15_8 1_555 1_555
C16_8 C15_8 1_555 1_555
H9_8 C16_8 1_555 1_555
C17_8 C16_8 1_555 1_555
C18_8 C17_8 1_555 1_555
H10_8 C18_8 1_555 1_555
C19_8 C14_8 1_555 1_555
H11_8 C19_8 1_555 1_555
C20_8 C10_8 1_555 1_555
C21_8 C20_8 1_555 1_555
H12_8 C21_8 1_555 1_555
C22_8 C17_8 1_555 1_555
O2_5 C22_8 1_555 1_555
O5_5 C22_8 1_555 1_555
C23_8 C25_8 1_555 1_555
C25_8 C27_8 1_555 1_555
C27_8 H13_8 1_555 1_555
C29_8 C27_8 1_555 1_555
H15_8 C29_8 1_555 1_555
C31_8 C29_8 1_555 1_555
C33_8 C31_8 1_555 1_555
H17_8 C33_8 1_555 1_555
C35_8 C25_8 1_555 1_555
H19_8 C35_8 1_555 1_555
C37_8 C31_8 1_555 1_555
C39_8 C37_8 1_555 1_555
H21_8 C39_8 1_555 1_555
O6_5 C23_8 1_555 1_555
O8_13 Zn4_5 1_555 1_555
O13_5 Zn9_5 1_555 1_555
O15_11 Zn4_5 1_555 1_555
O16_5 C23_8 1_555 1_555
O19_13 Zn4_5 1_555 1_555
Zn9_5 O16_5 1_555 1_555
Zn4_5 O2_5 1_555 1_555
Zn7_5 O6_5 1_555 1_555
Zn14_11 O5_5 1_555 1_555
C12_8 C13_8 1_555 1_555
C18_8 C19_8 1_555 1_555
C33_8 C35_8 1_555 1_555
O15_11 Zn14_11 1_555 1_555
O8_14 Zn11_5 1_555 1_555
O15_11 Zn11_5 1_555 1_555
O19_14 Zn11_5 1_555 1_555
O12_10 Zn7_5 1_555 1_555
O8_15 Zn10_5 1_555 1_555
O15_11 Zn10_5 1_555 1_555
O19_15 Zn10_5 1_555 1_555
Zn2_9 O3_9 1_555 1_555
H28_9 C52_9 1_555 1_555
C54_9 C52_9 1_555 1_555
H30_9 C54_9 1_555 1_555
C56_9 C54_9 1_555 1_555
C58_9 C56_9 1_555 1_555
H32_9 C58_9 1_555 1_555
C66_9 C56_9 1_555 1_555
O11_6 C66_9 1_555 1_555
O21_6 C66_9 1_555 1_555
O24_6 Zn2_9 1_555 1_555
Zn7_6 O3_9 1_555 1_555
Zn9_6 O7_6 1_555 1_555
Zn10_6 O11_6 1_555 1_555
Zn14_12 O21_6 1_555 1_555
Zn2_10 O3_10 1_555 1_555
O23_6 Zn2_10 1_555 1_555
Zn9_6 O3_10 1_555 1_555
C1_9 C2_9 1_555 1_555
C2_9 C3_9 1_555 1_555
C4_9 C3_9 1_555 1_555
C5_9 C4_9 1_555 1_555
C6_9 C5_9 1_555 1_555
H3_9 C6_9 1_555 1_555
C7_9 C2_9 1_555 1_555
H4_9 C7_9 1_555 1_555
C8_9 C5_9 1_555 1_555
C9_9 C8_9 1_555 1_555
H5_9 C9_9 1_555 1_555
C10_9 C9_9 1_555 1_555
C11_9 C10_9 1_555 1_555
H6_9 C11_9 1_555 1_555
C12_9 C11_9 1_555 1_555
C13_9 C8_9 1_555 1_555
H7_9 C13_9 1_555 1_555
C14_9 C12_9 1_555 1_555
C19_9 C14_9 1_555 1_555
H11_9 C19_9 1_555 1_555
C20_9 C10_9 1_555 1_555
C21_9 C20_9 1_555 1_555
H12_9 C21_9 1_555 1_555
O4_6 C1_9 1_555 1_555
Zn2_11 O3_11 1_555 1_555
C23_9 C25_9 1_555 1_555
C24_9 C26_9 1_555 1_555
C25_9 C27_9 1_555 1_555
C26_9 C28_9 1_555 1_555
C27_9 H13_9 1_555 1_555
C29_9 C27_9 1_555 1_555
C30_9 C28_9 1_555 1_555
H15_9 C29_9 1_555 1_555
C31_9 C29_9 1_555 1_555
C32_9 C30_9 1_555 1_555
C33_9 C31_9 1_555 1_555
C34_9 C32_9 1_555 1_555
H17_9 C33_9 1_555 1_555
H18_9 C34_9 1_555 1_555
C35_9 C25_9 1_555 1_555
C36_9 C26_9 1_555 1_555
H19_9 C35_9 1_555 1_555
H20_9 C36_9 1_555 1_555
C37_9 C31_9 1_555 1_555
C38_9 C32_9 1_555 1_555
C39_9 C37_9 1_555 1_555
C40_9 C38_9 1_555 1_555
H21_9 C39_9 1_555 1_555
H22_9 C40_9 1_555 1_555
C41_9 C39_9 1_555 1_555
C42_9 C40_9 1_555 1_555
C43_9 C41_9 1_555 1_555
C44_9 C42_9 1_555 1_555
H23_9 C43_9 1_555 1_555
H24_9 C44_9 1_555 1_555
C45_9 C43_9 1_555 1_555
C46_9 C44_9 1_555 1_555
C47_9 C37_9 1_555 1_555
C48_9 C38_9 1_555 1_555
H25_9 C47_9 1_555 1_555
H26_9 C48_9 1_555 1_555
C49_9 C45_9 1_555 1_555
C50_9 C46_9 1_555 1_555
C51_9 C49_9 1_555 1_555
H27_9 C51_9 1_555 1_555
C53_9 C51_9 1_555 1_555
H29_9 C53_9 1_555 1_555
C55_9 C53_9 1_555 1_555
C57_9 C55_9 1_555 1_555
H31_9 C57_9 1_555 1_555
C59_9 C49_9 1_555 1_555
C60_9 C50_9 1_555 1_555
H33_9 C59_9 1_555 1_555
H34_9 C60_9 1_555 1_555
C61_9 C21_9 1_555 1_555
C62_9 C42_9 1_555 1_555
C63_9 C61_9 1_555 1_555
C64_9 C20_9 1_555 1_555
H35_9 C63_9 1_555 1_555
H36_9 C64_9 1_555 1_555
C65_9 C55_9 1_555 1_555
O6_6 C23_9 1_555 1_555
O10_6 C65_9 1_555 1_555
O16_6 C23_9 1_555 1_555
O17_6 C24_9 1_555 1_555
O20_6 C65_9 1_555 1_555
Zn5_6 O17_6 1_555 1_555
Zn7_6 O6_6 1_555 1_555
Zn11_6 O10_6 1_555 1_555
Zn14_12 O20_6 1_555 1_555
C6_9 C7_9 1_555 1_555
C12_9 C13_9 1_555 1_555
C33_9 C35_9 1_555 1_555
C34_9 C36_9 1_555 1_555
C41_9 C61_9 1_555 1_555
C45_9 C47_9 1_555 1_555
C46_9 C48_9 1_555 1_555
C57_9 C59_9 1_555 1_555
C62_9 C63_9 1_555 1_555
C62_9 C64_9 1_555 1_555
H8_9 C15_9 1_555 1_555
C16_9 C15_9 1_555 1_555
H9_9 C16_9 1_555 1_555
C17_9 C16_9 1_555 1_555
C18_9 C17_9 1_555 1_555
H10_9 C18_9 1_555 1_555
C22_9 C17_9 1_555 1_555
O2_6 C22_9 1_555 1_555
O3_12 Zn5_6 1_555 1_555
O5_6 C22_9 1_555 1_555
Zn5_6 O1_6 1_555 1_555
Zn2_12 O3_12 1_555 1_555
O8_16 Zn4_6 1_555 1_555
O12_11 Zn5_6 1_555 1_555
O13_6 Zn9_6 1_555 1_555
O15_12 Zn4_6 1_555 1_555
O19_16 Zn4_6 1_555 1_555
O22_6 Zn2_12 1_555 1_555
Zn4_6 O2_6 1_555 1_555
Zn14_12 O5_6 1_555 1_555
O15_12 Zn14_12 1_555 1_555
O8_17 Zn11_6 1_555 1_555
O12_12 Zn7_6 1_555 1_555
O15_12 Zn11_6 1_555 1_555
O19_17 Zn11_6 1_555 1_555
O8_18 Zn10_6 1_555 1_555
O15_12 Zn10_6 1_555 1_555
O19_18 Zn10_6 1_555 1_555
C23_10 C25_10 1_555 1_555
C25_10 C27_10 1_555 1_555
C27_10 H13_10 1_555 1_555
C29_10 C27_10 1_555 1_555
H15_10 C29_10 1_555 1_555
C35_10 C25_10 1_555 1_555
H19_10 C35_10 1_555 1_555
O8_15 C23_10 1_555 1_555
O19_14 C23_10 1_555 1_555
C33_10 C35_10 1_555 1_555
C11_10 C10_10 1_555 1_555
H6_10 C11_10 1_555 1_555
C12_10 C11_10 1_555 1_555
H7_10 C13_10 1_555 1_555
C14_10 C12_10 1_555 1_555
C15_10 C14_10 1_555 1_555
H8_10 C15_10 1_555 1_555
C16_10 C15_10 1_555 1_555
H9_10 C16_10 1_555 1_555
C17_10 C16_10 1_555 1_555
C18_10 C17_10 1_555 1_555
H10_10 C18_10 1_555 1_555
C19_10 C14_10 1_555 1_555
H11_10 C19_10 1_555 1_555
C20_10 C10_10 1_555 1_555
C21_10 C20_10 1_555 1_555
H12_10 C21_10 1_555 1_555
C22_10 C17_10 1_555 1_555
O12_11 C22_10 1_555 1_555
O22_6 C22_10 1_555 1_555
C43_10 C41_10 1_555 1_555
C44_10 C42_10 1_555 1_555
H23_10 C43_10 1_555 1_555
H24_10 C44_10 1_555 1_555
C45_10 C43_10 1_555 1_555
C46_10 C44_10 1_555 1_555
H25_10 C47_10 1_555 1_555
H26_10 C48_10 1_555 1_555
C49_10 C45_10 1_555 1_555
C50_10 C46_10 1_555 1_555
C51_10 C49_10 1_555 1_555
C52_10 C50_10 1_555 1_555
H27_10 C51_10 1_555 1_555
H28_10 C52_10 1_555 1_555
C53_10 C51_10 1_555 1_555
C54_10 C52_10 1_555 1_555
H29_10 C53_10 1_555 1_555
H30_10 C54_10 1_555 1_555
C55_10 C53_10 1_555 1_555
C56_10 C54_10 1_555 1_555
C57_10 C55_10 1_555 1_555
C58_10 C56_10 1_555 1_555
H31_10 C57_10 1_555 1_555
H32_10 C58_10 1_555 1_555
C59_10 C49_10 1_555 1_555
C60_10 C50_10 1_555 1_555
H33_10 C59_10 1_555 1_555
H34_10 C60_10 1_555 1_555
C61_10 C21_10 1_555 1_555
C62_10 C42_10 1_555 1_555
C63_10 C61_10 1_555 1_555
C64_10 C20_10 1_555 1_555
H35_10 C63_10 1_555 1_555
H36_10 C64_10 1_555 1_555
C65_10 C55_10 1_555 1_555
C66_10 C56_10 1_555 1_555
O13_6 C65_10 1_555 1_555
O12_12 C66_10 1_555 1_555
O23_6 C65_10 1_555 1_555
O24_6 C66_10 1_555 1_555
C12_10 C13_10 1_555 1_555
C18_10 C19_10 1_555 1_555
C41_10 C61_10 1_555 1_555
C45_10 C47_10 1_555 1_555
C46_10 C48_10 1_555 1_555
C57_10 C59_10 1_555 1_555
C58_10 C60_10 1_555 1_555
C62_10 C63_10 1_555 1_555
C62_10 C64_10 1_555 1_555
C1_10 C2_10 1_555 1_555
C2_10 C3_10 1_555 1_555
C3_10 H1_10 1_555 1_555
C4_10 C3_10 1_555 1_555
H2_10 C4_10 1_555 1_555
C5_10 C4_10 1_555 1_555
C6_10 C5_10 1_555 1_555
H3_10 C6_10 1_555 1_555
C7_10 C2_10 1_555 1_555
H4_10 C7_10 1_555 1_555
C8_10 C5_10 1_555 1_555
C9_10 C8_10 1_555 1_555
H5_10 C9_10 1_555 1_555
O8_13 C1_10 1_555 1_555
O19_15 C1_10 1_555 1_555
C37_10 C31_10 1_555 1_555
C38_10 C32_10 1_555 1_555
C39_10 C37_10 1_555 1_555
C40_10 C38_10 1_555 1_555
H21_10 C39_10 1_555 1_555
H22_10 C40_10 1_555 1_555
C6_10 C7_10 1_555 1_555
C24_10 C26_10 1_555 1_555
C26_10 C28_10 1_555 1_555
C28_10 H14_10 1_555 1_555
C30_10 C28_10 1_555 1_555
H16_10 C30_10 1_555 1_555
C36_10 C26_10 1_555 1_555
H20_10 C36_10 1_555 1_555
O8_14 C24_10 1_555 1_555
O19_13 C24_10 1_555 1_555
C34_10 C36_10 1_555 1_555
H8_11 C15_11 1_555 1_555
C16_11 C15_11 1_555 1_555
H9_11 C16_11 1_555 1_555
C17_11 C16_11 1_555 1_555
C18_11 C17_11 1_555 1_555
H10_11 C18_11 1_555 1_555
C22_11 C17_11 1_555 1_555
O12_9 C22_11 1_555 1_555
O22_5 C22_11 1_555 1_555
O15_8 Zn11_4 1_555 1_555
C1_11 C2_11 1_555 1_555
C2_11 C3_11 1_555 1_555
C4_11 C3_11 1_555 1_555
C5_11 C4_11 1_555 1_555
C6_11 C5_11 1_555 1_555
H3_11 C6_11 1_555 1_555
C7_11 C2_11 1_555 1_555
H4_11 C7_11 1_555 1_555
C8_11 C5_11 1_555 1_555
C9_11 C8_11 1_555 1_555
H5_11 C9_11 1_555 1_555
C10_11 C9_11 1_555 1_555
C11_11 C10_11 1_555 1_555
H6_11 C11_11 1_555 1_555
C12_11 C11_11 1_555 1_555
C13_11 C8_11 1_555 1_555
H7_11 C13_11 1_555 1_555
C14_11 C12_11 1_555 1_555
C19_11 C14_11 1_555 1_555
H11_11 C19_11 1_555 1_555
C20_11 C10_11 1_555 1_555
C21_11 C20_11 1_555 1_555
H12_11 C21_11 1_555 1_555
O19_12 C1_11 1_555 1_555
C23_11 C25_11 1_555 1_555
C24_11 C26_11 1_555 1_555
C25_11 C27_11 1_555 1_555
C26_11 C28_11 1_555 1_555
C27_11 H13_11 1_555 1_555
C29_11 C27_11 1_555 1_555
C30_11 C28_11 1_555 1_555
H15_11 C29_11 1_555 1_555
C31_11 C29_11 1_555 1_555
C32_11 C30_11 1_555 1_555
C33_11 C31_11 1_555 1_555
C34_11 C32_11 1_555 1_555
H17_11 C33_11 1_555 1_555
H18_11 C34_11 1_555 1_555
C35_11 C25_11 1_555 1_555
C36_11 C26_11 1_555 1_555
H19_11 C35_11 1_555 1_555
H20_11 C36_11 1_555 1_555
C37_11 C31_11 1_555 1_555
C38_11 C32_11 1_555 1_555
C39_11 C37_11 1_555 1_555
C40_11 C38_11 1_555 1_555
H21_11 C39_11 1_555 1_555
H22_11 C40_11 1_555 1_555
C41_11 C39_11 1_555 1_555
C42_11 C40_11 1_555 1_555
C43_11 C41_11 1_555 1_555
C44_11 C42_11 1_555 1_555
H23_11 C43_11 1_555 1_555
H24_11 C44_11 1_555 1_555
C45_11 C43_11 1_555 1_555
C46_11 C44_11 1_555 1_555
C47_11 C37_11 1_555 1_555
C48_11 C38_11 1_555 1_555
H25_11 C47_11 1_555 1_555
H26_11 C48_11 1_555 1_555
C49_11 C45_11 1_555 1_555
C50_11 C46_11 1_555 1_555
C51_11 C49_11 1_555 1_555
H27_11 C51_11 1_555 1_555
C53_11 C51_11 1_555 1_555
H29_11 C53_11 1_555 1_555
C55_11 C53_11 1_555 1_555
C57_11 C55_11 1_555 1_555
H31_11 C57_11 1_555 1_555
C59_11 C49_11 1_555 1_555
C60_11 C50_11 1_555 1_555
H33_11 C59_11 1_555 1_555
H34_11 C60_11 1_555 1_555
C61_11 C21_11 1_555 1_555
C62_11 C42_11 1_555 1_555
C63_11 C61_11 1_555 1_555
C64_11 C20_11 1_555 1_555
H35_11 C63_11 1_555 1_555
H36_11 C64_11 1_555 1_555
C65_11 C55_11 1_555 1_555
O8_12 C23_11 1_555 1_555
O13_5 C65_11 1_555 1_555
O19_11 C23_11 1_555 1_555
O19_10 C24_11 1_555 1_555
O23_5 C65_11 1_555 1_555
C6_11 C7_11 1_555 1_555
C12_11 C13_11 1_555 1_555
C33_11 C35_11 1_555 1_555
C34_11 C36_11 1_555 1_555
C41_11 C61_11 1_555 1_555
C45_11 C47_11 1_555 1_555
C46_11 C48_11 1_555 1_555
C57_11 C59_11 1_555 1_555
C62_11 C63_11 1_555 1_555
C62_11 C64_11 1_555 1_555
O15_10 Zn10_4 1_555 1_555
H28_11 C52_11 1_555 1_555
C54_11 C52_11 1_555 1_555
H30_11 C54_11 1_555 1_555
C56_11 C54_11 1_555 1_555
C58_11 C56_11 1_555 1_555
H32_11 C58_11 1_555 1_555
C66_11 C56_11 1_555 1_555
O12_10 C66_11 1_555 1_555
O24_5 C66_11 1_555 1_555
C11_12 C10_12 1_555 1_555
H6_12 C11_12 1_555 1_555
C12_12 C11_12 1_555 1_555
H7_12 C13_12 1_555 1_555
C14_12 C12_12 1_555 1_555
C15_12 C14_12 1_555 1_555
H8_12 C15_12 1_555 1_555
C16_12 C15_12 1_555 1_555
H9_12 C16_12 1_555 1_555
C17_12 C16_12 1_555 1_555
C18_12 C17_12 1_555 1_555
H10_12 C18_12 1_555 1_555
C19_12 C14_12 1_555 1_555
H11_12 C19_12 1_555 1_555
C20_12 C10_12 1_555 1_555
C21_12 C20_12 1_555 1_555
H12_12 C21_12 1_555 1_555
C22_12 C17_12 1_555 1_555
O12_7 C22_12 1_555 1_555
O22_4 C22_12 1_555 1_555
C23_12 C25_12 1_555 1_555
C25_12 C27_12 1_555 1_555
C27_12 H13_12 1_555 1_555
C29_12 C27_12 1_555 1_555
H15_12 C29_12 1_555 1_555
C31_12 C29_12 1_555 1_555
C33_12 C31_12 1_555 1_555
H17_12 C33_12 1_555 1_555
C35_12 C25_12 1_555 1_555
H19_12 C35_12 1_555 1_555
C37_12 C31_12 1_555 1_555
C39_12 C37_12 1_555 1_555
H21_12 C39_12 1_555 1_555
O8_18 C23_12 1_555 1_555
O19_17 C23_12 1_555 1_555
C12_12 C13_12 1_555 1_555
C18_12 C19_12 1_555 1_555
C33_12 C35_12 1_555 1_555
C1_12 C2_12 1_555 1_555
C2_12 C3_12 1_555 1_555
C3_12 H1_12 1_555 1_555
C4_12 C3_12 1_555 1_555
H2_12 C4_12 1_555 1_555
C5_12 C4_12 1_555 1_555
C6_12 C5_12 1_555 1_555
H3_12 C6_12 1_555 1_555
C7_12 C2_12 1_555 1_555
H4_12 C7_12 1_555 1_555
C8_12 C5_12 1_555 1_555
C9_12 C8_12 1_555 1_555
H5_12 C9_12 1_555 1_555
O8_16 C1_12 1_555 1_555
O19_18 C1_12 1_555 1_555
H36_12 C64_12 1_555 1_555
C6_12 C7_12 1_555 1_555
C43_12 C41_12 1_555 1_555
H23_12 C43_12 1_555 1_555
C45_12 C43_12 1_555 1_555
H25_12 C47_12 1_555 1_555
C49_12 C45_12 1_555 1_555
C51_12 C49_12 1_555 1_555
H27_12 C51_12 1_555 1_555
C53_12 C51_12 1_555 1_555
H29_12 C53_12 1_555 1_555
C55_12 C53_12 1_555 1_555
C57_12 C55_12 1_555 1_555
H31_12 C57_12 1_555 1_555
C59_12 C49_12 1_555 1_555
H33_12 C59_12 1_555 1_555
C65_12 C55_12 1_555 1_555
O13_4 C65_12 1_555 1_555
O23_4 C65_12 1_555 1_555
C41_12 C61_12 1_555 1_555
C45_12 C47_12 1_555 1_555
C57_12 C59_12 1_555 1_555
C24_12 C26_12 1_555 1_555
C26_12 C28_12 1_555 1_555
C28_12 H14_12 1_555 1_555
C30_12 C28_12 1_555 1_555
H16_12 C30_12 1_555 1_555
C32_12 C30_12 1_555 1_555
C34_12 C32_12 1_555 1_555
H18_12 C34_12 1_555 1_555
C36_12 C26_12 1_555 1_555
H20_12 C36_12 1_555 1_555
C38_12 C32_12 1_555 1_555
C40_12 C38_12 1_555 1_555
H22_12 C40_12 1_555 1_555
C42_12 C40_12 1_555 1_555
C44_12 C42_12 1_555 1_555
H24_12 C44_12 1_555 1_555
C46_12 C44_12 1_555 1_555
C48_12 C38_12 1_555 1_555
H26_12 C48_12 1_555 1_555
C50_12 C46_12 1_555 1_555
C52_12 C50_12 1_555 1_555
H28_12 C52_12 1_555 1_555
C54_12 C52_12 1_555 1_555
H30_12 C54_12 1_555 1_555
C56_12 C54_12 1_555 1_555
C58_12 C56_12 1_555 1_555
H32_12 C58_12 1_555 1_555
C60_12 C50_12 1_555 1_555
H34_12 C60_12 1_555 1_555
C62_12 C42_12 1_555 1_555
H35_12 C63_12 1_555 1_555
C66_12 C56_12 1_555 1_555
O8_17 C24_12 1_555 1_555
O12_8 C66_12 1_555 1_555
O19_16 C24_12 1_555 1_555
O24_4 C66_12 1_555 1_555
C34_12 C36_12 1_555 1_555
C46_12 C48_12 1_555 1_555
C58_12 C60_12 1_555 1_555
C62_12 C63_12 1_555 1_555

#END
