
###############################################################################
#
# This file contains modified crystal structure data generated from the
# MOF subset of the Cambridge Structural Database (CSD) v543 
# hosted by the Cambridge Crystallographic Data Centre (CCDC).
#
# This work is licensed under the Creative Commons
# Attribution-NonCommercial-ShareAlike 4.0 International License.
# To view a copy of this license, visit
# http://creativecommons.org/licenses/by-nc-sa/4.0/
# or send a letter to
# Creative Commons, PO Box 1866, Mountain View, CA 94042, USA.
#
# CIF created using the CSD Python API on 29 September 2022
# The structure has been converted into the P1 space group
# The structure has a 3D framework
# The original CSD entry UYAQER is in the rhombohedral crystal system
# The framework has been calculated to contain at least 10.0% void space
# The void calculation uses a probe of radius 1.32A, grid spacing 0.4
#
###############################################################################

data_UYAQER
_chemical_formula_moiety         '(C234 H180 N90 Zn11)n'
_symmetry_cell_setting           triclinic
_symmetry_space_group_name_H-M   'P 1'
_symmetry_Int_Tables_number      1
_space_group_name_Hall           'P 1'
loop_
_symmetry_equiv_pos_site_id
_symmetry_equiv_pos_as_xyz
1 x,y,z
_cell_length_a                   27.214(9)
_cell_length_b                   27.214(9)
_cell_length_c                   10.206(6)
_cell_angle_alpha                90
_cell_angle_beta                 90
_cell_angle_gamma                120
_cell_volume                     6545.92
loop_
_atom_site_label
_atom_site_type_symbol
_atom_site_fract_x
_atom_site_fract_y
_atom_site_fract_z
Zn3 Zn 0.8333 0.1667 0.1667
N10 N 0.74414(17) 0.12472(18) 0.0763(4)
C24 C 0.7033(2) 0.0720(2) 0.1075(5)
H16 H 0.7078 0.0556 0.1831
C25 C 0.6554(2) 0.0411(2) 0.0345(5)
H17 H 0.6285 0.0047 0.0610
N5 N 0.92253(17) 0.20861(18) 0.2570(4)
C9 C 0.9787(2) 0.2147(2) 0.4417(5)
H4 H 0.9829 0.1968 0.5150
C10 C 0.9321(2) 0.1869(2) 0.3635(5)
H5 H 0.9051 0.1500 0.3867
C11 C 0.9634(2) 0.2613(2) 0.2258(5)
H6 H 0.9589 0.2777 0.1502
H12 H 0.9815 0.1567 0.9853
N1 N 0.84613(23) 0.10751(16) 0.0465(4)
C1 C 0.8308(4) 0.0539(2) 0.0787(6)
H1 H 0.8167 0.0406 0.1621
N6 N 0.82053(23) 0.22583(16) 0.2869(4)
N7 N 0.80062(23) 0.12252(16) 0.3341(4)
N8 N 0.78811(23) 0.07069(16) 0.3818(4)
N9 N 0.76607(24) 0.11580(17) 0.5375(4)
C14 C 0.8358(4) 0.2795(2) 0.2547(6)
H11 H 0.8499 0.2928 0.1713
C15 C 0.8309(4) 0.3148(2) 0.3421(6)
H12_2 H 0.8419 0.3519 0.3187
C16 C 0.8097(4) 0.2953(2) 0.4630(6)
H13 H 0.8063 0.3194 0.5222
C17 C 0.7929(3) 0.2406(2) 0.5006(5)
C18 C 0.8004(3) 0.2069(2) 0.4076(5)
C19 C 0.78746(28) 0.14760(19) 0.4303(5)
C20 C 0.7683(3) 0.0688(2) 0.5025(5)
C21 C 0.7499(3) 0.0199(2) 0.5888(5)
C25_2 C 0.7190(3) 0.0113(2) 0.7012(5)
H17_2 H 0.7095 0.0382 0.7277
C26 C 0.7695(3) 0.2189(2) 0.6344(5)
H18 H 0.7679 0.2482 0.6831
H19 H 0.7321 0.1866 0.6267
H20 H 0.7938 0.2081 0.6791
Zn1 Zn 0.5000 -0.0000 0.5000
N1_2 N 0.55916(16) 0.07196(17) 0.3798(4)
N4 N 0.44913(17) 0.01639(17) 0.1292(4)
C1_2 C 0.6128(2) 0.1103(3) 0.4120(6)
H1_2 H 0.6261 0.1095 0.4954
C2 C 0.6481(2) 0.1505(3) 0.3246(6)
H2 H 0.6852 0.1766 0.3480
C3 C 0.6286(2) 0.1522(3) 0.2037(6)
H3 H 0.6527 0.1797 0.1445
C4 C 0.5739(2) 0.1143(2) 0.1661(5)
C5 C 0.5402(2) 0.0731(2) 0.2591(5)
C6 C 0.48093(19) 0.0268(2) 0.2364(5)
C13 C 0.5522(2) 0.1160(2) 0.0323(5)
H9 H 0.5199 0.1211 0.0400
N7_2 N 0.54415(16) 0.01144(17) 0.6674(4)
N8_2 N 0.59598(16) 0.05076(17) 0.7151(4)
N11 N 0.45805(18) 0.04725(25) 0.5904(4)
C20_2 C 0.5979(2) 0.0329(2) 0.8358(5)
C21_2 C 0.6468(2) 0.0634(2) 0.9221(5)
C22 C 0.6880(2) 0.1186(2) 0.8916(5)
H14 H 0.6838 0.1365 0.8183
C23 C 0.7346(2) 0.1464(2) 0.9698(5)
H15 H 0.7616 0.1833 0.9466
N2 N 0.34477(17) 0.13396(23) 0.9993(4)
N3 N 0.38409(17) 0.12145(23) 0.9516(4)
N4_2 N 0.31694(17) 0.09941(24) 0.7959(4)
C2_2 C 0.1828(3) 0.1643(4) 0.9913(6)
C3_2 C 0.1811(3) 0.1431(4) 0.8704(6)
H3_2 H 0.1536 0.1397 0.8112
C4_2 C 0.2190(2) 0.1263(3) 0.8328(5)
C5_2 C 0.2602(2) 0.1338(3) 0.9258(5)
C6_2 C 0.3065(2) 0.12080(28) 0.9031(5)
C7 C 0.3662(2) 0.1017(3) 0.8309(5)
C8 C 0.3967(2) 0.0833(3) 0.7446(5)
C9_2 C 0.4519(2) 0.0973(3) 0.7751(5)
H4_2 H 0.4698 0.1194 0.8484
C10_2 C 0.4797(2) 0.0785(3) 0.6969(5)
H5_2 H 0.5166 0.0884 0.7201
C11_2 C 0.4053(2) 0.0354(3) 0.5592(5)
H6_2 H 0.3889 0.0145 0.4836
C12 C 0.3744(2) 0.0524(3) 0.6322(5)
H7 H 0.3380 0.0429 0.6057
C13_2 C 0.2173(2) 0.1029(3) 0.6990(5)
H8 H 0.1864 0.1013 0.6503
H9_2 H 0.2122 0.0655 0.7067
H10 H 0.2524 0.1272 0.6543
H8_2 H 0.5815 0.1469 0.9836
H10_2 H 0.5414 0.0809 0.9876
H18_2 H 0.4185 0.8531 0.0164
H20_2 H 0.4586 0.9191 0.0124
Zn1_2 Zn 0.5000 1.0000 0.5000
N2_2 N 0.45585(16) 0.98856(17) 0.3326(4)
N3_2 N 0.40402(16) 0.94924(17) 0.2849(4)
C7_2 C 0.4021(2) 0.9671(2) 0.1642(5)
C8_2 C 0.3532(2) 0.9366(2) 0.0779(5)
C9_3 C 0.3120(2) 0.8814(2) 0.1084(5)
H4_3 H 0.3162 0.8635 0.1817
C10_3 C 0.2654(2) 0.8536(2) 0.0302(5)
H5_3 H 0.2384 0.8167 0.0534
N6_2 N 0.44084(16) 0.92804(17) 0.6202(4)
N9_2 N 0.55087(17) 0.98361(17) 0.8708(4)
N12 N 0.54195(18) 0.95275(25) 0.4096(4)
C14_2 C 0.3872(2) 0.8897(3) 0.5880(6)
H11_2 H 0.3739 0.8905 0.5046
C15_2 C 0.3519(2) 0.8495(3) 0.6754(6)
H12_3 H 0.3148 0.8234 0.6520
C16_2 C 0.3714(2) 0.8478(3) 0.7963(6)
H13_2 H 0.3473 0.8203 0.8555
C17_2 C 0.4261(2) 0.8857(2) 0.8339(5)
C18_2 C 0.4598(2) 0.9269(2) 0.7409(5)
C19_2 C 0.51907(19) 0.9732(2) 0.7636(5)
C26_2 C 0.4478(2) 0.8840(2) 0.9677(5)
H19_2 H 0.4801 0.8789 0.9600
N7_3 N 0.65523(17) 0.86604(23) 0.0007(4)
N8_3 N 0.61591(17) 0.87855(23) 0.0484(4)
N9_3 N 0.68306(17) 0.90059(24) 0.2041(4)
C15_3 C 0.8172(3) 0.8357(4) 0.0087(6)
C16_3 C 0.8189(3) 0.8569(4) 0.1296(6)
H13_3 H 0.8464 0.8603 0.1888
C17_3 C 0.7810(2) 0.8737(3) 0.1672(5)
C18_3 C 0.7398(2) 0.8662(3) 0.0742(5)
C19_3 C 0.6935(2) 0.87920(28) 0.0969(5)
C20_3 C 0.6338(2) 0.8983(3) 0.1691(5)
C21_3 C 0.6033(2) 0.9167(3) 0.2554(5)
C22_2 C 0.5481(2) 0.9027(3) 0.2249(5)
H14_2 H 0.5302 0.8806 0.1516
C23_2 C 0.5203(2) 0.9215(3) 0.3031(5)
H15_2 H 0.4834 0.9116 0.2799
C24_2 C 0.5947(2) 0.9646(3) 0.4408(5)
H16_2 H 0.6111 0.9855 0.5164
C25_3 C 0.6256(2) 0.9476(3) 0.3678(5)
H17_3 H 0.6620 0.9571 0.3943
C26_3 C 0.7827(2) 0.8971(3) 0.3010(5)
H18_3 H 0.8136 0.8987 0.3497
H19_3 H 0.7878 0.9345 0.2933
H20_3 H 0.7476 0.8728 0.3457
N5_2 N 0.25586(17) 0.87528(18) 0.9237(4)
C11_3 C 0.2967(2) 0.9280(2) 0.8925(5)
H6_3 H 0.2922 0.9444 0.8169
C12_2 C 0.3446(2) 0.9589(2) 0.9655(5)
H7_2 H 0.3715 0.9953 0.9390
Zn2 Zn 0.1667 0.8333 0.8333
N1_3 N 0.17947(23) 0.77417(16) 0.7131(4)
N2_3 N 0.19938(23) 0.87748(16) 0.6659(4)
N3_3 N 0.21189(23) 0.92931(16) 0.6182(4)
N4_3 N 0.23393(24) 0.88420(17) 0.4625(4)
C1_3 C 0.1642(4) 0.7205(2) 0.7453(6)
H1_3 H 0.1501 0.7072 0.8287
C2_3 C 0.1691(4) 0.6852(2) 0.6579(6)
H2_2 H 0.1581 0.6481 0.6813
C3_3 C 0.1903(4) 0.7047(2) 0.5370(6)
H3_3 H 0.1937 0.6806 0.4778
C4_3 C 0.2071(3) 0.7594(2) 0.4994(5)
C5_3 C 0.1996(3) 0.7931(2) 0.5924(5)
C6_3 C 0.21254(28) 0.85240(19) 0.5697(5)
C7_3 C 0.2317(3) 0.9312(2) 0.4975(5)
C8_3 C 0.2501(3) 0.9801(2) 0.4112(5)
C12_3 C 0.2810(3) 0.9887(2) 0.2988(5)
H7_3 H 0.2905 0.9618 0.2723
C13_3 C 0.2305(3) 0.7811(2) 0.3656(5)
H8_3 H 0.2321 0.7518 0.3169
H9_3 H 0.2679 0.8134 0.3733
H10_3 H 0.2062 0.7919 0.3209
N6_3 N 0.15387(23) 0.89249(16) 0.9535(4)
N12_2 N 0.07747(31) 0.79139(18) 0.7430(4)
C14_3 C 0.1692(4) 0.9461(2) 0.9213(6)
H11_3 H 0.1833 0.9594 0.8379
H2_3 H 0.0185 0.8433 0.0147
C22_3 C 0.0213(2) 0.7853(2) 0.5583(5)
H14_3 H 0.0171 0.8032 0.4850
C23_3 C 0.0679(2) 0.8131(2) 0.6365(5)
H15_3 H 0.0949 0.8500 0.6133
C24_3 C 0.0366(2) 0.7387(2) 0.7742(5)
H16_3 H 0.0411 0.7223 0.8498
H18_4 H 0.1469 0.5654 0.0164
H20_4 H 0.0809 0.5395 0.0124
Zn1_3 Zn -0.0000 0.5000 0.5000
N2_4 N 0.01144(17) 0.46729(23) 0.3326(4)
N3_4 N 0.05076(17) 0.45478(23) 0.2849(4)
C7_4 C 0.0329(2) 0.4350(3) 0.1642(5)
C8_4 C 0.0634(2) 0.4166(3) 0.0779(5)
C9_4 C 0.1186(2) 0.4306(3) 0.1084(5)
H4_4 H 0.1365 0.4527 0.1817
C10_4 C 0.1464(2) 0.4118(3) 0.0302(5)
H5_4 H 0.1833 0.4217 0.0534
N6_4 N 0.07196(17) 0.51280(23) 0.6202(4)
N9_4 N 0.01639(17) 0.56726(24) 0.8708(4)
N12_3 N 0.04725(25) 0.58919(31) 0.4096(4)
C14_4 C 0.1103(3) 0.4975(4) 0.5880(6)
H11_4 H 0.1095 0.4834 0.5046
C15_4 C 0.1505(3) 0.5024(4) 0.6754(6)
H12_4 H 0.1766 0.4914 0.6520
C16_4 C 0.1522(3) 0.5236(4) 0.7963(6)
H13_4 H 0.1797 0.5270 0.8555
C17_4 C 0.1143(2) 0.5404(3) 0.8339(5)
C18_4 C 0.0731(2) 0.5329(3) 0.7409(5)
C19_4 C 0.0268(2) 0.54587(28) 0.7636(5)
C26_4 C 0.1160(2) 0.5638(3) 0.9677(5)
H19_4 H 0.1211 0.6012 0.9600
N7_4 N 0.13396(23) 0.78918(16) 0.0007(4)
N8_4 N 0.12145(23) 0.73735(16) 0.0484(4)
N9_5 N 0.09941(24) 0.78246(17) 0.2041(4)
C15_5 C 0.1643(4) 0.9814(2) 0.0087(6)
C16_5 C 0.1431(4) 0.9619(2) 0.1296(6)
H13_5 H 0.1397 0.9860 0.1888
C17_5 C 0.1263(3) 0.9072(2) 0.1672(5)
C18_5 C 0.1338(3) 0.8735(2) 0.0742(5)
C19_5 C 0.12080(28) 0.81426(19) 0.0969(5)
C20_4 C 0.1017(3) 0.7354(2) 0.1691(5)
C21_4 C 0.0833(3) 0.6865(2) 0.2554(5)
C22_4 C 0.0973(3) 0.6453(2) 0.2249(5)
H14_4 H 0.1194 0.6495 0.1516
C23_4 C 0.0785(3) 0.5987(2) 0.3031(5)
H15_4 H 0.0884 0.5717 0.2799
C24_4 C 0.0354(3) 0.6300(2) 0.4408(5)
H16_4 H 0.0145 0.6255 0.5164
C25_4 C 0.0524(3) 0.6779(2) 0.3678(5)
H17_4 H 0.0429 0.7048 0.3943
C26_5 C 0.1029(3) 0.8855(2) 0.3010(5)
H18_5 H 0.1013 0.9148 0.3497
H19_5 H 0.0655 0.8532 0.2933
H20_5 H 0.1272 0.8747 0.3457
N5_3 N 0.12472(18) 0.38058(25) 0.9237(4)
C11_4 C 0.0720(2) 0.3687(3) 0.8925(5)
H6_4 H 0.0556 0.3478 0.8169
C12_4 C 0.0411(2) 0.3857(3) 0.9655(5)
H7_4 H 0.0047 0.3762 0.9390
Zn2_2 Zn 0.1667 0.3333 0.8333
Zn3_2 Zn 0.3333 0.1667 0.1667
N10_2 N 0.38058(25) 0.25586(17) 0.0763(4)
C24_5 C 0.3687(3) 0.2967(2) 0.1075(5)
H16_5 H 0.3478 0.2922 0.1831
C25_5 C 0.3857(3) 0.3446(2) 0.0345(5)
H17_5 H 0.3762 0.3715 0.0610
H18_6 H 0.4346 0.5815 0.0164
H20_6 H 0.4605 0.5414 0.0124
N1_4 N 0.22583(16) 0.40529(17) 0.7131(4)
N2_5 N 0.12252(16) 0.32189(17) 0.6659(4)
N3_5 N 0.07069(16) 0.28257(17) 0.6182(4)
N4_4 N 0.11580(17) 0.34972(17) 0.4625(4)
C1_4 C 0.2795(2) 0.4436(3) 0.7453(6)
H1_4 H 0.2928 0.4428 0.8287
C2_4 C 0.3148(2) 0.4838(3) 0.6579(6)
H2_4 H 0.3519 0.5099 0.6813
C3_4 C 0.2953(2) 0.4855(3) 0.5370(6)
H3_4 H 0.3194 0.5130 0.4778
C4_4 C 0.2406(2) 0.4476(2) 0.4994(5)
C5_4 C 0.2069(2) 0.4064(2) 0.5924(5)
C6_4 C 0.14760(19) 0.3601(2) 0.5697(5)
C7_5 C 0.0688(2) 0.3004(2) 0.4975(5)
C8_5 C 0.0199(2) 0.2699(2) 0.4112(5)
C12_5 C 0.0113(2) 0.2922(2) 0.2988(5)
H7_5 H 0.0382 0.3286 0.2723
C13_4 C 0.2189(2) 0.4493(2) 0.3656(5)
H8_4 H 0.2482 0.4802 0.3169
H9_4 H 0.1866 0.4544 0.3733
H10_4 H 0.2081 0.4142 0.3209
N6_5 N 0.10751(16) 0.26137(17) 0.9535(4)
N12_4 N 0.20861(18) 0.28609(25) 0.7430(4)
C14_5 C 0.0539(2) 0.2230(3) 0.9213(6)
H11_5 H 0.0406 0.2238 0.8379
N5_4 N 0.28609(25) 0.07747(17) 0.2570(4)
C9_5 C 0.2361(3) 0.0213(2) 0.4417(5)
H4_5 H 0.2140 0.0171 0.5150
C10_5 C 0.2549(3) 0.0679(2) 0.3635(5)
H5_5 H 0.2450 0.0949 0.3867
C11_5 C 0.2980(3) 0.0366(2) 0.2258(5)
H6_5 H 0.3189 0.0411 0.1502
H12_5 H 0.1753 0.0185 0.9853
N1_5 N 0.26137(17) 0.15387(23) 0.0465(4)
C1_5 C 0.2230(3) 0.1692(4) 0.0787(6)
H1_5 H 0.2238 0.1833 0.1621
H2_5 H 0.1567 0.1753 0.0147
N6_6 N 0.40529(17) 0.17947(23) 0.2869(4)
N7_5 N 0.32189(17) 0.19938(23) 0.3341(4)
N8_5 N 0.28257(17) 0.21189(23) 0.3818(4)
N9_6 N 0.34972(17) 0.23393(24) 0.5375(4)
C14_6 C 0.4436(3) 0.1642(4) 0.2547(6)
H11_6 H 0.4428 0.1501 0.1713
C15_6 C 0.4838(3) 0.1691(4) 0.3421(6)
H12_6 H 0.5099 0.1581 0.3187
C16_6 C 0.4855(3) 0.1903(4) 0.4630(6)
H13_6 H 0.5130 0.1937 0.5222
C17_6 C 0.4476(2) 0.2071(3) 0.5006(5)
C18_6 C 0.4064(2) 0.1996(3) 0.4076(5)
C19_6 C 0.3601(2) 0.21254(28) 0.4303(5)
C20_5 C 0.3004(2) 0.2317(3) 0.5025(5)
C21_5 C 0.2699(2) 0.2501(3) 0.5888(5)
C22_5 C 0.2147(2) 0.2361(3) 0.5583(5)
H14_5 H 0.1968 0.2140 0.4850
C23_5 C 0.1869(2) 0.2549(3) 0.6365(5)
H15_5 H 0.1500 0.2450 0.6133
C24_6 C 0.2613(2) 0.2980(3) 0.7742(5)
H16_6 H 0.2777 0.3189 0.8498
C25_6 C 0.2922(2) 0.2810(3) 0.7012(5)
H17_6 H 0.3286 0.2905 0.7277
C26_6 C 0.4493(2) 0.2305(3) 0.6344(5)
H18_7 H 0.4802 0.2321 0.6831
H19_6 H 0.4544 0.2679 0.6267
H20_7 H 0.4142 0.2062 0.6791
Zn3_3 Zn 0.8333 0.6667 0.1667
N10_3 N 0.87528(18) 0.61942(25) 0.0763(4)
C24_7 C 0.9280(2) 0.6313(3) 0.1075(5)
H16_7 H 0.9444 0.6522 0.1831
C25_7 C 0.9589(2) 0.6143(3) 0.0345(5)
H17_7 H 0.9953 0.6238 0.0610
N5_5 N 0.61942(25) 0.74414(17) 0.9237(4)
C11_6 C 0.6313(3) 0.7033(2) 0.8925(5)
H6_6 H 0.6522 0.7078 0.8169
C12_6 C 0.6143(3) 0.6554(2) 0.9655(5)
H7_6 H 0.6238 0.6285 0.9390
H8_5 H 0.5654 0.4185 0.9836
H10_5 H 0.5395 0.4586 0.9876
Zn2_3 Zn 0.6667 0.8333 0.8333
N1_6 N 0.59471(17) 0.82053(23) 0.7131(4)
N2_6 N 0.67811(17) 0.80062(23) 0.6659(4)
N3_6 N 0.71743(17) 0.78811(23) 0.6182(4)
N4_5 N 0.65028(17) 0.76607(24) 0.4625(4)
N5_6 N 0.79139(18) 0.71391(25) 0.2570(4)
C1_6 C 0.5564(3) 0.8358(4) 0.7453(6)
H1_6 H 0.5572 0.8499 0.8287
C2_5 C 0.5162(3) 0.8309(4) 0.6579(6)
H2_6 H 0.4901 0.8419 0.6813
C3_5 C 0.5145(3) 0.8097(4) 0.5370(6)
H3_5 H 0.4870 0.8063 0.4778
C4_5 C 0.5524(2) 0.7929(3) 0.4994(5)
C5_5 C 0.5936(2) 0.8004(3) 0.5924(5)
C6_5 C 0.6399(2) 0.78746(28) 0.5697(5)
C7_6 C 0.6996(2) 0.7683(3) 0.4975(5)
C8_6 C 0.7301(2) 0.7499(3) 0.4112(5)
C9_6 C 0.7853(2) 0.7639(3) 0.4417(5)
H4_6 H 0.8032 0.7860 0.5150
C10_6 C 0.8131(2) 0.7451(3) 0.3635(5)
H5_6 H 0.8500 0.7550 0.3867
C11_7 C 0.7387(2) 0.7020(3) 0.2258(5)
H6_7 H 0.7223 0.6811 0.1502
C12_7 C 0.7078(2) 0.7190(3) 0.2988(5)
H7_7 H 0.6714 0.7095 0.2723
C13_5 C 0.5507(2) 0.7695(3) 0.3656(5)
H8_6 H 0.5198 0.7679 0.3169
H9_5 H 0.5456 0.7321 0.3733
H10_6 H 0.5858 0.7938 0.3209
N6_7 N 0.73863(17) 0.84613(23) 0.9535(4)
N12_5 N 0.71391(25) 0.92253(31) 0.7430(4)
C14_7 C 0.7770(3) 0.8308(4) 0.9213(6)
H11_7 H 0.7762 0.8167 0.8379
H12_7 H 0.8433 0.8247 0.9853
N1_7 N 0.89249(16) 0.73863(17) 0.0465(4)
C1_7 C 0.9461(2) 0.7770(3) 0.0787(6)
H1_7 H 0.9594 0.7762 0.1621
N6_8 N 0.77417(16) 0.59471(17) 0.2869(4)
N7_6 N 0.87748(16) 0.67811(17) 0.3341(4)
N8_6 N 0.92931(16) 0.71743(17) 0.3818(4)
N9_7 N 0.88420(17) 0.65028(17) 0.5375(4)
C14_8 C 0.7205(2) 0.5564(3) 0.2547(6)
H11_8 H 0.7072 0.5572 0.1713
C15_7 C 0.6852(2) 0.5162(3) 0.3421(6)
H12_8 H 0.6481 0.4901 0.3187
C16_7 C 0.7047(2) 0.5145(3) 0.4630(6)
H13_7 H 0.6806 0.4870 0.5222
C17_7 C 0.7594(2) 0.5524(2) 0.5006(5)
C18_7 C 0.7931(2) 0.5936(2) 0.4076(5)
C19_7 C 0.85240(19) 0.6399(2) 0.4303(5)
C20_6 C 0.9312(2) 0.6996(2) 0.5025(5)
C21_6 C 0.9801(2) 0.7301(2) 0.5888(5)
C25_8 C 0.9887(2) 0.7078(2) 0.7012(5)
H17_8 H 0.9618 0.6714 0.7277
C26_7 C 0.7811(2) 0.5507(2) 0.6344(5)
H18_8 H 0.7518 0.5198 0.6831
H19_7 H 0.8134 0.5456 0.6267
H20_8 H 0.7919 0.5858 0.6791
H2_7 H 0.8247 0.9815 0.0147
C22_6 C 0.7639(3) 0.9787(2) 0.5583(5)
H14_6 H 0.7860 0.9829 0.4850
C23_6 C 0.7451(3) 0.9321(2) 0.6365(5)
H15_6 H 0.7550 0.9051 0.6133
C24_8 C 0.7020(3) 0.9634(2) 0.7742(5)
H16_8 H 0.6811 0.9589 0.8498
Zn1_4 Zn 1.0000 0.5000 0.5000
N1_8 N 0.92804(17) 0.48720(23) 0.3798(4)
N4_6 N 0.98361(17) 0.43274(24) 0.1292(4)
C1_8 C 0.8897(3) 0.5025(4) 0.4120(6)
H1_8 H 0.8905 0.5166 0.4954
C2_6 C 0.8495(3) 0.4976(4) 0.3246(6)
H2_8 H 0.8234 0.5086 0.3480
C3_6 C 0.8478(3) 0.4764(4) 0.2037(6)
H3_6 H 0.8203 0.4730 0.1445
C4_6 C 0.8857(2) 0.4596(3) 0.1661(5)
C5_6 C 0.9269(2) 0.4671(3) 0.2591(5)
C6_6 C 0.9732(2) 0.45413(28) 0.2364(5)
C13_6 C 0.8840(2) 0.4362(3) 0.0323(5)
H9_6 H 0.8789 0.3988 0.0400
N7_7 N 0.98856(17) 0.53271(23) 0.6674(4)
N8_7 N 0.94924(17) 0.54522(23) 0.7151(4)
N11_2 N 0.95275(25) 0.41081(31) 0.5904(4)
C20_7 C 0.9671(2) 0.5650(3) 0.8358(5)
C21_7 C 0.9366(2) 0.5834(3) 0.9221(5)
C22_7 C 0.8814(2) 0.5694(3) 0.8916(5)
H14_7 H 0.8635 0.5473 0.8183
C23_7 C 0.8536(2) 0.5882(3) 0.9698(5)
H15_7 H 0.8167 0.5783 0.9466
N2_7 N 0.86604(23) 0.21082(16) 0.9993(4)
N3_7 N 0.87855(23) 0.26265(16) 0.9516(4)
N4_7 N 0.90059(24) 0.21754(17) 0.7959(4)
C2_7 C 0.8357(4) 0.0186(2) 0.9913(6)
C3_7 C 0.8569(4) 0.0381(2) 0.8704(6)
H3_7 H 0.8603 0.0140 0.8112
C4_7 C 0.8737(3) 0.0928(2) 0.8328(5)
C5_7 C 0.8662(3) 0.1265(2) 0.9258(5)
C6_7 C 0.87920(28) 0.18574(19) 0.9031(5)
C7_7 C 0.8983(3) 0.2646(2) 0.8309(5)
C8_7 C 0.9167(3) 0.3135(2) 0.7446(5)
C9_7 C 0.9027(3) 0.3547(2) 0.7751(5)
H4_7 H 0.8806 0.3505 0.8484
C10_7 C 0.9215(3) 0.4013(2) 0.6969(5)
H5_7 H 0.9116 0.4283 0.7201
C11_8 C 0.9646(3) 0.3700(2) 0.5592(5)
H6_8 H 0.9855 0.3745 0.4836
C12_8 C 0.9476(3) 0.3221(2) 0.6322(5)
H7_8 H 0.9571 0.2952 0.6057
C13_7 C 0.8971(3) 0.1145(2) 0.6990(5)
H8_7 H 0.8987 0.0852 0.6503
H9_7 H 0.9345 0.1468 0.7067
H10_7 H 0.8728 0.1253 0.6543
H8_8 H 0.8531 0.4346 0.9836
H10_8 H 0.9191 0.4605 0.9876
Zn1_5 Zn 0.5000 0.5000 0.5000
N1_9 N 0.51280(23) 0.44084(16) 0.3798(4)
N2_8 N 0.53271(23) 0.54415(16) 0.3326(4)
N3_8 N 0.54522(23) 0.59598(16) 0.2849(4)
N4_8 N 0.56726(24) 0.55087(17) 0.1292(4)
C1_9 C 0.4975(4) 0.3872(2) 0.4120(6)
H1_9 H 0.4834 0.3739 0.4954
C2_8 C 0.5024(4) 0.3519(2) 0.3246(6)
H2_9 H 0.4914 0.3148 0.3480
C3_8 C 0.5236(4) 0.3714(2) 0.2037(6)
H3_8 H 0.5270 0.3473 0.1445
C4_8 C 0.5404(3) 0.4261(2) 0.1661(5)
C5_8 C 0.5329(3) 0.4598(2) 0.2591(5)
C6_8 C 0.54587(28) 0.51907(19) 0.2364(5)
C7_8 C 0.5650(3) 0.5979(2) 0.1642(5)
C8_8 C 0.5834(3) 0.6468(2) 0.0779(5)
C9_8 C 0.5694(3) 0.6880(2) 0.1084(5)
H4_8 H 0.5473 0.6838 0.1817
C10_8 C 0.5882(3) 0.7346(2) 0.0302(5)
H5_8 H 0.5783 0.7616 0.0534
C13_8 C 0.5638(3) 0.4478(2) 0.0323(5)
H9_8 H 0.6012 0.4801 0.0400
N6_9 N 0.48720(23) 0.55916(16) 0.6202(4)
N7_8 N 0.46729(23) 0.45585(16) 0.6674(4)
N8_8 N 0.45478(23) 0.40402(16) 0.7151(4)
N9_8 N 0.43274(24) 0.44913(17) 0.8708(4)
N11_3 N 0.58919(31) 0.54195(18) 0.5904(4)
N12_6 N 0.41081(31) 0.45805(18) 0.4096(4)
C14_9 C 0.5025(4) 0.6128(2) 0.5880(6)
H11_9 H 0.5166 0.6261 0.5046
C15_8 C 0.4976(4) 0.6481(2) 0.6754(6)
H12_9 H 0.5086 0.6852 0.6520
C16_8 C 0.4764(4) 0.6286(2) 0.7963(6)
H13_8 H 0.4730 0.6527 0.8555
C17_8 C 0.4596(3) 0.5739(2) 0.8339(5)
C18_8 C 0.4671(3) 0.5402(2) 0.7409(5)
C19_8 C 0.45413(28) 0.48093(19) 0.7636(5)
C20_8 C 0.4350(3) 0.4021(2) 0.8358(5)
C21_8 C 0.4166(3) 0.3532(2) 0.9221(5)
C22_8 C 0.4306(3) 0.3120(2) 0.8916(5)
H14_8 H 0.4527 0.3162 0.8183
C23_8 C 0.4118(3) 0.2654(2) 0.9698(5)
H15_8 H 0.4217 0.2384 0.9466
C26_8 C 0.4362(3) 0.5522(2) 0.9677(5)
H19_8 H 0.3988 0.5199 0.9600
N7_9 N 0.21082(16) 0.34477(17) 0.0007(4)
N8_9 N 0.26265(16) 0.38409(17) 0.0484(4)
N9_9 N 0.21754(17) 0.31694(17) 0.2041(4)
C15_9 C 0.0186(2) 0.1828(3) 0.0087(6)
C16_9 C 0.0381(2) 0.1811(3) 0.1296(6)
H13_9 H 0.0140 0.1536 0.1888
C17_9 C 0.0928(2) 0.2190(2) 0.1672(5)
C18_9 C 0.1265(2) 0.2602(2) 0.0742(5)
C19_9 C 0.18574(19) 0.3065(2) 0.0969(5)
C20_9 C 0.2646(2) 0.3662(2) 0.1691(5)
C21_9 C 0.3135(2) 0.3967(2) 0.2554(5)
C22_9 C 0.3547(2) 0.4519(2) 0.2249(5)
H14_9 H 0.3505 0.4698 0.1516
C23_9 C 0.4013(2) 0.4797(2) 0.3031(5)
H15_9 H 0.4283 0.5166 0.2799
C24_9 C 0.3700(2) 0.4053(2) 0.4408(5)
H16_9 H 0.3745 0.3889 0.5164
C25_9 C 0.3221(2) 0.3744(2) 0.3678(5)
H17_9 H 0.2952 0.3380 0.3943
C26_9 C 0.1145(2) 0.2173(2) 0.3010(5)
H18_9 H 0.0852 0.1864 0.3497
H19_9 H 0.1468 0.2122 0.2933
H20_9 H 0.1253 0.2524 0.3457
N2_9 N 0.78918(16) 0.65523(17) 0.9993(4)
N3_9 N 0.73735(16) 0.61591(17) 0.9516(4)
N4_9 N 0.78246(17) 0.68306(17) 0.7959(4)
C2_9 C 0.9814(2) 0.8172(3) 0.9913(6)
C3_9 C 0.9619(2) 0.8189(3) 0.8704(6)
H3_9 H 0.9860 0.8464 0.8112
C4_9 C 0.9072(2) 0.7810(2) 0.8328(5)
C5_9 C 0.8735(2) 0.7398(2) 0.9258(5)
C6_9 C 0.81426(19) 0.6935(2) 0.9031(5)
C7_9 C 0.7354(2) 0.6338(2) 0.8309(5)
C8_9 C 0.6865(2) 0.6033(2) 0.7446(5)
C9_9 C 0.6453(2) 0.5481(2) 0.7751(5)
H4_9 H 0.6495 0.5302 0.8484
C10_9 C 0.5987(2) 0.5203(2) 0.6969(5)
H5_9 H 0.5717 0.4834 0.7201
C11_9 C 0.6300(2) 0.5947(2) 0.5592(5)
H6_9 H 0.6255 0.6111 0.4836
C12_9 C 0.6779(2) 0.6256(2) 0.6322(5)
H7_9 H 0.7048 0.6620 0.6057
C13_9 C 0.8855(2) 0.7827(2) 0.6990(5)
H8_9 H 0.9148 0.8136 0.6503
H9_9 H 0.8532 0.7878 0.7067
H10_9 H 0.8747 0.7476 0.6543
loop_
_geom_bond_atom_site_label_1
_geom_bond_atom_site_label_2
_geom_bond_site_symmetry_1
_geom_bond_site_symmetry_2
Zn3 N10 1_555 1_555
C24 N10 1_555 1_555
H16 C24 1_555 1_555
H17 C25 1_555 1_555
C24 C25 1_555 1_555
N5 C10 1_555 1_555
H4 C9 1_555 1_555
C10 C9 1_555 1_555
H5 C10 1_555 1_555
C11 N5 1_555 1_555
H6 C11 1_555 1_555
Zn3 N5 1_555 1_555
Zn3 N1 1_555 1_555
N1 C1 1_555 1_555
C1 H1 1_555 1_555
N6 Zn3 1_555 1_555
N7 Zn3 1_555 1_555
N8 N7 1_555 1_555
N9 C19 1_555 1_555
C14 N6 1_555 1_555
H11 C14 1_555 1_555
C15 C14 1_555 1_555
H12_2 C15 1_555 1_555
C16 C15 1_555 1_555
H13 C16 1_555 1_555
C17 C16 1_555 1_555
C18 N6 1_555 1_555
C19 N7 1_555 1_555
C20 N8 1_555 1_555
C21 C20 1_555 1_555
C25_2 C21 1_555 1_555
H17_2 C25_2 1_555 1_555
C26 C17 1_555 1_555
H18 C26 1_555 1_555
H19 C26 1_555 1_555
H20 C26 1_555 1_555
N9 C20 1_555 1_555
C17 C18 1_555 1_555
C18 C19 1_555 1_555
Zn1 N1_2 1_555 1_555
N1_2 C1_2 1_555 1_555
N4 C6 1_555 1_555
C1_2 H1_2 1_555 1_555
C2 C1_2 1_555 1_555
H2 C2 1_555 1_555
C3 C2 1_555 1_555
H3 C3 1_555 1_555
C4 C3 1_555 1_555
C5 N1_2 1_555 1_555
C13 C4 1_555 1_555
H9 C13 1_555 1_555
N7_2 Zn1 1_555 1_555
N8_2 N7_2 1_555 1_555
N11 Zn1 1_555 1_555
C20_2 N8_2 1_555 1_555
C21_2 C20_2 1_555 1_555
C22 C21_2 1_555 1_555
H14 C22 1_555 1_555
C23 C22 1_555 1_555
H15 C23 1_555 1_555
C4 C5 1_555 1_555
C5 C6 1_555 1_555
N3 N2 1_555 1_555
N4_2 C6_2 1_555 1_555
N11 C10_2 1_555 1_555
C3_2 C2_2 1_555 1_555
H3_2 C3_2 1_555 1_555
C4_2 C3_2 1_555 1_555
C6_2 N2 1_555 1_555
C7 N3 1_555 1_555
C8 C7 1_555 1_555
C9_2 C8 1_555 1_555
H4_2 C9_2 1_555 1_555
C10_2 C9_2 1_555 1_555
H5_2 C10_2 1_555 1_555
C11_2 N11 1_555 1_555
H6_2 C11_2 1_555 1_555
C12 C8 1_555 1_555
H7 C12 1_555 1_555
C13_2 C4_2 1_555 1_555
H8 C13_2 1_555 1_555
H9_2 C13_2 1_555 1_555
H10 C13_2 1_555 1_555
N4_2 C7 1_555 1_555
C4_2 C5_2 1_555 1_555
C5_2 C6_2 1_555 1_555
C11_2 C12 1_555 1_555
N2_2 Zn1_2 1_555 1_555
N3_2 N2_2 1_555 1_555
C7_2 N3_2 1_555 1_555
C8_2 C7_2 1_555 1_555
C9_3 C8_2 1_555 1_555
H4_3 C9_3 1_555 1_555
C10_3 C9_3 1_555 1_555
H5_3 C10_3 1_555 1_555
N6_2 Zn1_2 1_555 1_555
N9_2 C19_2 1_555 1_555
N12 Zn1_2 1_555 1_555
C14_2 N6_2 1_555 1_555
H11_2 C14_2 1_555 1_555
C15_2 C14_2 1_555 1_555
H12_3 C15_2 1_555 1_555
C16_2 C15_2 1_555 1_555
H13_2 C16_2 1_555 1_555
C17_2 C16_2 1_555 1_555
C18_2 N6_2 1_555 1_555
C26_2 C17_2 1_555 1_555
H19_2 C26_2 1_555 1_555
C17_2 C18_2 1_555 1_555
C18_2 C19_2 1_555 1_555
N8_3 N7_3 1_555 1_555
N9_3 C19_3 1_555 1_555
N12 C23_2 1_555 1_555
C16_3 C15_3 1_555 1_555
H13_3 C16_3 1_555 1_555
C17_3 C16_3 1_555 1_555
C19_3 N7_3 1_555 1_555
C20_3 N8_3 1_555 1_555
C21_3 C20_3 1_555 1_555
C22_2 C21_3 1_555 1_555
H14_2 C22_2 1_555 1_555
C23_2 C22_2 1_555 1_555
H15_2 C23_2 1_555 1_555
C24_2 N12 1_555 1_555
H16_2 C24_2 1_555 1_555
C25_3 C21_3 1_555 1_555
H17_3 C25_3 1_555 1_555
C26_3 C17_3 1_555 1_555
H18_3 C26_3 1_555 1_555
H19_3 C26_3 1_555 1_555
H20_3 C26_3 1_555 1_555
N9_3 C20_3 1_555 1_555
C17_3 C18_3 1_555 1_555
C18_3 C19_3 1_555 1_555
C24_2 C25_3 1_555 1_555
C11_3 N5_2 1_555 1_555
H6_3 C11_3 1_555 1_555
H7_2 C12_2 1_555 1_555
Zn2 N5_2 1_555 1_555
C11_3 C12_2 1_555 1_555
Zn2 N1_3 1_555 1_555
N1_3 C1_3 1_555 1_555
N2_3 Zn2 1_555 1_555
N3_3 N2_3 1_555 1_555
N4_3 C6_3 1_555 1_555
C1_3 H1_3 1_555 1_555
C2_3 C1_3 1_555 1_555
H2_2 C2_3 1_555 1_555
C3_3 C2_3 1_555 1_555
H3_3 C3_3 1_555 1_555
C4_3 C3_3 1_555 1_555
C5_3 N1_3 1_555 1_555
C6_3 N2_3 1_555 1_555
C7_3 N3_3 1_555 1_555
C8_3 C7_3 1_555 1_555
C12_3 C8_3 1_555 1_555
H7_3 C12_3 1_555 1_555
C13_3 C4_3 1_555 1_555
H8_3 C13_3 1_555 1_555
H9_3 C13_3 1_555 1_555
H10_3 C13_3 1_555 1_555
N6_3 Zn2 1_555 1_555
N12_2 Zn2 1_555 1_555
C14_3 N6_3 1_555 1_555
H11_3 C14_3 1_555 1_555
N4_3 C7_3 1_555 1_555
C4_3 C5_3 1_555 1_555
C5_3 C6_3 1_555 1_555
N12_2 C23_3 1_555 1_555
H14_3 C22_3 1_555 1_555
C23_3 C22_3 1_555 1_555
H15_3 C23_3 1_555 1_555
C24_3 N12_2 1_555 1_555
H16_3 C24_3 1_555 1_555
N2_4 Zn1_3 1_555 1_555
N3_4 N2_4 1_555 1_555
C7_4 N3_4 1_555 1_555
C8_4 C7_4 1_555 1_555
C9_4 C8_4 1_555 1_555
H4_4 C9_4 1_555 1_555
C10_4 C9_4 1_555 1_555
H5_4 C10_4 1_555 1_555
N6_4 Zn1_3 1_555 1_555
N9_4 C19_4 1_555 1_555
N12_3 Zn1_3 1_555 1_555
C14_4 N6_4 1_555 1_555
H11_4 C14_4 1_555 1_555
C15_4 C14_4 1_555 1_555
H12_4 C15_4 1_555 1_555
C16_4 C15_4 1_555 1_555
H13_4 C16_4 1_555 1_555
C17_4 C16_4 1_555 1_555
C18_4 N6_4 1_555 1_555
C26_4 C17_4 1_555 1_555
H19_4 C26_4 1_555 1_555
C17_4 C18_4 1_555 1_555
C18_4 C19_4 1_555 1_555
N8_4 N7_4 1_555 1_555
N9_5 C19_5 1_555 1_555
N12_3 C23_4 1_555 1_555
C16_5 C15_5 1_555 1_555
H13_5 C16_5 1_555 1_555
C17_5 C16_5 1_555 1_555
C19_5 N7_4 1_555 1_555
C20_4 N8_4 1_555 1_555
C21_4 C20_4 1_555 1_555
C22_4 C21_4 1_555 1_555
H14_4 C22_4 1_555 1_555
C23_4 C22_4 1_555 1_555
H15_4 C23_4 1_555 1_555
C24_4 N12_3 1_555 1_555
H16_4 C24_4 1_555 1_555
C25_4 C21_4 1_555 1_555
H17_4 C25_4 1_555 1_555
C26_5 C17_5 1_555 1_555
H18_5 C26_5 1_555 1_555
H19_5 C26_5 1_555 1_555
H20_5 C26_5 1_555 1_555
N9_5 C20_4 1_555 1_555
C17_5 C18_5 1_555 1_555
C18_5 C19_5 1_555 1_555
C24_4 C25_4 1_555 1_555
C11_4 N5_3 1_555 1_555
H6_4 C11_4 1_555 1_555
H7_4 C12_4 1_555 1_555
Zn2_2 N5_3 1_555 1_555
C11_4 C12_4 1_555 1_555
Zn3_2 N10_2 1_555 1_555
C24_5 N10_2 1_555 1_555
H16_5 C24_5 1_555 1_555
H17_5 C25_5 1_555 1_555
C24_5 C25_5 1_555 1_555
Zn2_2 N1_4 1_555 1_555
N1_4 C1_4 1_555 1_555
N2_5 Zn2_2 1_555 1_555
N3_5 N2_5 1_555 1_555
N4_4 C6_4 1_555 1_555
C1_4 H1_4 1_555 1_555
C2_4 C1_4 1_555 1_555
H2_4 C2_4 1_555 1_555
C3_4 C2_4 1_555 1_555
H3_4 C3_4 1_555 1_555
C4_4 C3_4 1_555 1_555
C5_4 N1_4 1_555 1_555
C6_4 N2_5 1_555 1_555
C7_5 N3_5 1_555 1_555
C8_5 C7_5 1_555 1_555
C12_5 C8_5 1_555 1_555
H7_5 C12_5 1_555 1_555
C13_4 C4_4 1_555 1_555
H8_4 C13_4 1_555 1_555
H9_4 C13_4 1_555 1_555
H10_4 C13_4 1_555 1_555
N6_5 Zn2_2 1_555 1_555
N12_4 Zn2_2 1_555 1_555
C14_5 N6_5 1_555 1_555
H11_5 C14_5 1_555 1_555
N4_4 C7_5 1_555 1_555
C4_4 C5_4 1_555 1_555
C5_4 C6_4 1_555 1_555
N5_4 C10_5 1_555 1_555
H4_5 C9_5 1_555 1_555
C10_5 C9_5 1_555 1_555
H5_5 C10_5 1_555 1_555
C11_5 N5_4 1_555 1_555
H6_5 C11_5 1_555 1_555
Zn3_2 N5_4 1_555 1_555
Zn3_2 N1_5 1_555 1_555
N1_5 C1_5 1_555 1_555
C1_5 H1_5 1_555 1_555
N6_6 Zn3_2 1_555 1_555
N7_5 Zn3_2 1_555 1_555
N8_5 N7_5 1_555 1_555
N9_6 C19_6 1_555 1_555
N12_4 C23_5 1_555 1_555
C14_6 N6_6 1_555 1_555
H11_6 C14_6 1_555 1_555
C15_6 C14_6 1_555 1_555
H12_6 C15_6 1_555 1_555
C16_6 C15_6 1_555 1_555
H13_6 C16_6 1_555 1_555
C17_6 C16_6 1_555 1_555
C18_6 N6_6 1_555 1_555
C19_6 N7_5 1_555 1_555
C20_5 N8_5 1_555 1_555
C21_5 C20_5 1_555 1_555
C22_5 C21_5 1_555 1_555
H14_5 C22_5 1_555 1_555
C23_5 C22_5 1_555 1_555
H15_5 C23_5 1_555 1_555
C24_6 N12_4 1_555 1_555
H16_6 C24_6 1_555 1_555
C25_6 C21_5 1_555 1_555
H17_6 C25_6 1_555 1_555
C26_6 C17_6 1_555 1_555
H18_7 C26_6 1_555 1_555
H19_6 C26_6 1_555 1_555
H20_7 C26_6 1_555 1_555
N9_6 C20_5 1_555 1_555
C17_6 C18_6 1_555 1_555
C18_6 C19_6 1_555 1_555
C24_6 C25_6 1_555 1_555
Zn3_3 N10_3 1_555 1_555
C24_7 N10_3 1_555 1_555
H16_7 C24_7 1_555 1_555
H17_7 C25_7 1_555 1_555
C24_7 C25_7 1_555 1_555
C11_6 N5_5 1_555 1_555
H6_6 C11_6 1_555 1_555
H7_6 C12_6 1_555 1_555
Zn2_3 N5_5 1_555 1_555
C11_6 C12_6 1_555 1_555
Zn2_3 N1_6 1_555 1_555
N1_6 C1_6 1_555 1_555
N2_6 Zn2_3 1_555 1_555
N3_6 N2_6 1_555 1_555
N4_5 C6_5 1_555 1_555
N5_6 C10_6 1_555 1_555
C1_6 H1_6 1_555 1_555
C2_5 C1_6 1_555 1_555
H2_6 C2_5 1_555 1_555
C3_5 C2_5 1_555 1_555
H3_5 C3_5 1_555 1_555
C4_5 C3_5 1_555 1_555
C5_5 N1_6 1_555 1_555
C6_5 N2_6 1_555 1_555
C7_6 N3_6 1_555 1_555
C8_6 C7_6 1_555 1_555
C9_6 C8_6 1_555 1_555
H4_6 C9_6 1_555 1_555
C10_6 C9_6 1_555 1_555
H5_6 C10_6 1_555 1_555
C11_7 N5_6 1_555 1_555
H6_7 C11_7 1_555 1_555
C12_7 C8_6 1_555 1_555
H7_7 C12_7 1_555 1_555
C13_5 C4_5 1_555 1_555
H8_6 C13_5 1_555 1_555
H9_5 C13_5 1_555 1_555
H10_6 C13_5 1_555 1_555
Zn3_3 N5_6 1_555 1_555
N6_7 Zn2_3 1_555 1_555
N12_5 Zn2_3 1_555 1_555
C14_7 N6_7 1_555 1_555
H11_7 C14_7 1_555 1_555
N4_5 C7_6 1_555 1_555
C4_5 C5_5 1_555 1_555
C5_5 C6_5 1_555 1_555
C11_7 C12_7 1_555 1_555
Zn3_3 N1_7 1_555 1_555
N1_7 C1_7 1_555 1_555
C1_7 H1_7 1_555 1_555
N6_8 Zn3_3 1_555 1_555
N7_6 Zn3_3 1_555 1_555
N8_6 N7_6 1_555 1_555
N9_7 C19_7 1_555 1_555
C14_8 N6_8 1_555 1_555
H11_8 C14_8 1_555 1_555
C15_7 C14_8 1_555 1_555
H12_8 C15_7 1_555 1_555
C16_7 C15_7 1_555 1_555
H13_7 C16_7 1_555 1_555
C17_7 C16_7 1_555 1_555
C18_7 N6_8 1_555 1_555
C19_7 N7_6 1_555 1_555
C20_6 N8_6 1_555 1_555
C21_6 C20_6 1_555 1_555
C25_8 C21_6 1_555 1_555
H17_8 C25_8 1_555 1_555
C26_7 C17_7 1_555 1_555
H18_8 C26_7 1_555 1_555
H19_7 C26_7 1_555 1_555
H20_8 C26_7 1_555 1_555
N9_7 C20_6 1_555 1_555
C17_7 C18_7 1_555 1_555
C18_7 C19_7 1_555 1_555
N12_5 C23_6 1_555 1_555
H14_6 C22_6 1_555 1_555
C23_6 C22_6 1_555 1_555
H15_6 C23_6 1_555 1_555
C24_8 N12_5 1_555 1_555
H16_8 C24_8 1_555 1_555
Zn1_4 N1_8 1_555 1_555
N1_8 C1_8 1_555 1_555
N4_6 C6_6 1_555 1_555
C1_8 H1_8 1_555 1_555
C2_6 C1_8 1_555 1_555
H2_8 C2_6 1_555 1_555
C3_6 C2_6 1_555 1_555
H3_6 C3_6 1_555 1_555
C4_6 C3_6 1_555 1_555
C5_6 N1_8 1_555 1_555
C13_6 C4_6 1_555 1_555
H9_6 C13_6 1_555 1_555
N7_7 Zn1_4 1_555 1_555
N8_7 N7_7 1_555 1_555
N11_2 Zn1_4 1_555 1_555
C20_7 N8_7 1_555 1_555
C21_7 C20_7 1_555 1_555
C22_7 C21_7 1_555 1_555
H14_7 C22_7 1_555 1_555
C23_7 C22_7 1_555 1_555
H15_7 C23_7 1_555 1_555
C4_6 C5_6 1_555 1_555
C5_6 C6_6 1_555 1_555
N3_7 N2_7 1_555 1_555
N4_7 C6_7 1_555 1_555
N11_2 C10_7 1_555 1_555
C3_7 C2_7 1_555 1_555
H3_7 C3_7 1_555 1_555
C4_7 C3_7 1_555 1_555
C6_7 N2_7 1_555 1_555
C7_7 N3_7 1_555 1_555
C8_7 C7_7 1_555 1_555
C9_7 C8_7 1_555 1_555
H4_7 C9_7 1_555 1_555
C10_7 C9_7 1_555 1_555
H5_7 C10_7 1_555 1_555
C11_8 N11_2 1_555 1_555
H6_8 C11_8 1_555 1_555
C12_8 C8_7 1_555 1_555
H7_8 C12_8 1_555 1_555
C13_7 C4_7 1_555 1_555
H8_7 C13_7 1_555 1_555
H9_7 C13_7 1_555 1_555
H10_7 C13_7 1_555 1_555
N4_7 C7_7 1_555 1_555
C4_7 C5_7 1_555 1_555
C5_7 C6_7 1_555 1_555
C11_8 C12_8 1_555 1_555
Zn1_5 N1_9 1_555 1_555
N1_9 C1_9 1_555 1_555
N2_8 Zn1_5 1_555 1_555
N3_8 N2_8 1_555 1_555
N4_8 C6_8 1_555 1_555
C1_9 H1_9 1_555 1_555
C2_8 C1_9 1_555 1_555
H2_9 C2_8 1_555 1_555
C3_8 C2_8 1_555 1_555
H3_8 C3_8 1_555 1_555
C4_8 C3_8 1_555 1_555
C5_8 N1_9 1_555 1_555
C6_8 N2_8 1_555 1_555
C7_8 N3_8 1_555 1_555
C8_8 C7_8 1_555 1_555
C9_8 C8_8 1_555 1_555
H4_8 C9_8 1_555 1_555
C10_8 C9_8 1_555 1_555
H5_8 C10_8 1_555 1_555
C13_8 C4_8 1_555 1_555
H9_8 C13_8 1_555 1_555
N6_9 Zn1_5 1_555 1_555
N7_8 Zn1_5 1_555 1_555
N8_8 N7_8 1_555 1_555
N9_8 C19_8 1_555 1_555
N11_3 Zn1_5 1_555 1_555
N12_6 Zn1_5 1_555 1_555
C14_9 N6_9 1_555 1_555
H11_9 C14_9 1_555 1_555
C15_8 C14_9 1_555 1_555
H12_9 C15_8 1_555 1_555
C16_8 C15_8 1_555 1_555
H13_8 C16_8 1_555 1_555
C17_8 C16_8 1_555 1_555
C18_8 N6_9 1_555 1_555
C19_8 N7_8 1_555 1_555
C20_8 N8_8 1_555 1_555
C21_8 C20_8 1_555 1_555
C22_8 C21_8 1_555 1_555
H14_8 C22_8 1_555 1_555
C23_8 C22_8 1_555 1_555
H15_8 C23_8 1_555 1_555
C26_8 C17_8 1_555 1_555
H19_8 C26_8 1_555 1_555
N4_8 C7_8 1_555 1_555
C4_8 C5_8 1_555 1_555
C5_8 C6_8 1_555 1_555
N9_8 C20_8 1_555 1_555
C17_8 C18_8 1_555 1_555
C18_8 C19_8 1_555 1_555
N8_9 N7_9 1_555 1_555
N9_9 C19_9 1_555 1_555
N12_6 C23_9 1_555 1_555
C16_9 C15_9 1_555 1_555
H13_9 C16_9 1_555 1_555
C17_9 C16_9 1_555 1_555
C19_9 N7_9 1_555 1_555
C20_9 N8_9 1_555 1_555
C21_9 C20_9 1_555 1_555
C22_9 C21_9 1_555 1_555
H14_9 C22_9 1_555 1_555
C23_9 C22_9 1_555 1_555
H15_9 C23_9 1_555 1_555
C24_9 N12_6 1_555 1_555
H16_9 C24_9 1_555 1_555
C25_9 C21_9 1_555 1_555
H17_9 C25_9 1_555 1_555
C26_9 C17_9 1_555 1_555
H18_9 C26_9 1_555 1_555
H19_9 C26_9 1_555 1_555
H20_9 C26_9 1_555 1_555
N9_9 C20_9 1_555 1_555
C17_9 C18_9 1_555 1_555
C18_9 C19_9 1_555 1_555
C24_9 C25_9 1_555 1_555
N3_9 N2_9 1_555 1_555
N4_9 C6_9 1_555 1_555
N11_3 C10_9 1_555 1_555
C3_9 C2_9 1_555 1_555
H3_9 C3_9 1_555 1_555
C4_9 C3_9 1_555 1_555
C6_9 N2_9 1_555 1_555
C7_9 N3_9 1_555 1_555
C8_9 C7_9 1_555 1_555
C9_9 C8_9 1_555 1_555
H4_9 C9_9 1_555 1_555
C10_9 C9_9 1_555 1_555
H5_9 C10_9 1_555 1_555
C11_9 N11_3 1_555 1_555
H6_9 C11_9 1_555 1_555
C12_9 C8_9 1_555 1_555
H7_9 C12_9 1_555 1_555
C13_9 C4_9 1_555 1_555
H8_9 C13_9 1_555 1_555
H9_9 C13_9 1_555 1_555
H10_9 C13_9 1_555 1_555
N4_9 C7_9 1_555 1_555
C4_9 C5_9 1_555 1_555
C5_9 C6_9 1_555 1_555
C11_9 C12_9 1_555 1_555

#END
