
###############################################################################
#
# This file contains modified crystal structure data generated from the
# MOF subset of the Cambridge Structural Database (CSD) v543 
# hosted by the Cambridge Crystallographic Data Centre (CCDC).
#
# This work is licensed under the Creative Commons
# Attribution-NonCommercial-ShareAlike 4.0 International License.
# To view a copy of this license, visit
# http://creativecommons.org/licenses/by-nc-sa/4.0/
# or send a letter to
# Creative Commons, PO Box 1866, Mountain View, CA 94042, USA.
#
# CIF created using the CSD Python API on 29 September 2022
# The structure has been converted into the P1 space group
# The structure has a 3D framework
# The original CSD entry UYAQAN is in the rhombohedral crystal system
# The framework has been calculated to contain at least 10.0% void space
# The void calculation uses a probe of radius 1.32A, grid spacing 0.4
#
###############################################################################

data_UYAQAN
_chemical_formula_moiety         '(C234 H180 Mg11 N90)n'
_symmetry_cell_setting           triclinic
_symmetry_space_group_name_H-M   'P 1'
_symmetry_Int_Tables_number      1
_space_group_name_Hall           'P 1'
loop_
_symmetry_equiv_pos_site_id
_symmetry_equiv_pos_as_xyz
1 x,y,z
_cell_length_a                   27.085(6)
_cell_length_b                   27.085(6)
_cell_length_c                   10.329(6)
_cell_angle_alpha                90
_cell_angle_beta                 90
_cell_angle_gamma                120
_cell_volume                     6562.16
loop_
_atom_site_label
_atom_site_type_symbol
_atom_site_fract_x
_atom_site_fract_y
_atom_site_fract_z
C2 C 0.1604(3) 0.1792(3) 0.0089(7)
C3 C 0.1388(3) 0.1772(3) 0.1296(7)
H3 H 0.1337 0.1487 0.1874
C4 C 0.1244(2) 0.2176(3) 0.1658(6)
C5 C 0.1314(2) 0.2581(3) 0.0763(6)
C6 C 0.1195(2) 0.3059(2) 0.0994(6)
C7 C 0.1008(2) 0.3659(3) 0.1721(6)
C8 C 0.0831(2) 0.3975(3) 0.2585(6)
C9 C 0.0984(2) 0.4531(3) 0.2315(6)
H4 H 0.1213 0.4716 0.1604
C10 C 0.0795(2) 0.4811(2) 0.3101(6)
H5 H 0.0908 0.5188 0.2905
C11 C 0.0326(2) 0.4036(3) 0.4411(6)
H6 H 0.0098 0.3860 0.5129
C12 C 0.0510(2) 0.3739(2) 0.3693(6)
H7 H 0.0420 0.3374 0.3948
C13 C 0.1017(2) 0.2159(2) 0.2998(6)
H8 H 0.0935 0.2463 0.3090
H9 H 0.1297 0.2204 0.3628
H10 H 0.0675 0.1801 0.3130
N2 N 0.13272(17) 0.3457(2) 0.0048(4)
N3 N 0.12148(19) 0.3858(2) 0.0531(4)
N4 N 0.09865(18) 0.31668(19) 0.2070(4)
N5 N 0.04582(19) 0.4575(2) 0.4130(4)
Mg2 Mg 0.0000 0.5001 0.5000
C1 C 0.1133(3) 0.6127(4) 0.5901(6)
H1 H 0.1133 0.6261 0.5072
C2_2 C 0.1541(3) 0.6479(4) 0.6756(7)
H2 H 0.1804 0.6851 0.6520
C3_2 C 0.1561(3) 0.6283(4) 0.7963(7)
H3_2 H 0.1846 0.6517 0.8541
C4_2 C 0.1157(3) 0.5735(4) 0.8325(6)
C5_2 C 0.0752(3) 0.5400(4) 0.7430(6)
C6_2 C 0.0274(2) 0.4803(3) 0.7661(6)
C13_2 C 0.1174(2) 0.5525(3) 0.9665(6)
H8_2 H 0.0870 0.5139 0.9757
H10_2 H 0.1532 0.5541 0.9797
N1 N 0.07271(19) 0.55861(26) 0.6215(4)
N4_2 N 0.01665(19) 0.44864(26) 0.8737(4)
C20 C 0.0326(3) 0.5984(4) 0.1612(6)
C21 C 0.0642(3) 0.6477(4) 0.0748(6)
C22 C 0.1198(3) 0.6880(4) 0.1018(6)
H14 H 0.1383 0.6836 0.1729
C23 C 0.1478(2) 0.7349(3) 0.0232(6)
H15 H 0.1855 0.7613 0.0428
N7 N 0.0124(2) 0.54631(26) 0.3285(4)
N8 N 0.0525(2) 0.59765(28) 0.2802(4)
Mg1 Mg 0.1667 0.3333 0.8333
C1_2 C 0.1660(3) 0.2200(3) 0.9234(6)
H1_2 H 0.1794 0.2200 0.8405
H2_2 H 0.1713 0.1529 0.9853
N1_2 N 0.15256(18) 0.26062(19) 0.9548(4)
Mg3 Mg 0.3333 0.1666 0.1667
C14 C 0.1673(3) 0.4467(3) 0.7433(6)
H11 H 0.1539 0.4467 0.8262
C15 C 0.1729(3) 0.4875(3) 0.6578(7)
H12 H 0.1620 0.5138 0.6814
C16 C 0.1945(3) 0.4895(3) 0.5371(7)
H13 H 0.1996 0.5180 0.4793
C17 C 0.2089(2) 0.4491(3) 0.5009(6)
C18 C 0.2019(2) 0.4086(3) 0.5904(6)
C19 C 0.2138(2) 0.3608(2) 0.5673(6)
C20_2 C 0.2325(2) 0.3008(3) 0.4946(6)
C21_2 C 0.2502(2) 0.2692(3) 0.4082(6)
C22_2 C 0.2349(2) 0.2136(3) 0.4352(6)
H14_2 H 0.2120 0.1951 0.5063
C23_2 C 0.2538(2) 0.1856(2) 0.3566(6)
H15_2 H 0.2425 0.1479 0.3762
C24 C 0.3007(2) 0.2631(3) 0.2256(6)
H16 H 0.3235 0.2807 0.1538
C25 C 0.2823(2) 0.2928(2) 0.2974(6)
H17 H 0.2913 0.3293 0.2719
C26 C 0.2316(2) 0.4508(2) 0.3669(6)
H18 H 0.2398 0.4204 0.3577
H19 H 0.2036 0.4463 0.3039
H20 H 0.2658 0.4866 0.3537
N6 N 0.18077(18) 0.40605(19) 0.7119(4)
N7_2 N 0.20061(17) 0.3210(2) 0.6619(4)
N8_2 N 0.21185(19) 0.2809(2) 0.6136(4)
N9 N 0.23468(18) 0.34999(19) 0.4597(4)
N10 N 0.28751(19) 0.2092(2) 0.2537(4)
N11 N 0.07835(28) 0.28751(19) 0.7463(4)
N12 N 0.25499(28) 0.37915(19) 0.9203(4)
C1_3 C 0.4467(3) 0.2793(4) 0.2567(6)
H1_3 H 0.4467 0.2927 0.1738
C2_3 C 0.4875(3) 0.3145(4) 0.3422(7)
H2_3 H 0.5138 0.3517 0.3186
C3_3 C 0.4895(3) 0.2949(4) 0.4629(7)
H3_3 H 0.5180 0.3183 0.5207
C4_3 C 0.4491(3) 0.2401(4) 0.4991(6)
C5_3 C 0.4086(3) 0.2066(4) 0.4096(6)
C6_3 C 0.3608(2) 0.1469(3) 0.4327(6)
C7_2 C 0.3008(3) 0.0682(4) 0.5054(6)
C8_2 C 0.2692(3) 0.0189(4) 0.5918(6)
C12_2 C 0.2928(2) 0.0104(3) 0.7026(6)
H7_2 H 0.3293 0.0379 0.7281
C13_3 C 0.4508(2) 0.2191(3) 0.6331(6)
H8_3 H 0.4204 0.1805 0.6423
H9_2 H 0.4463 0.2426 0.6961
H10_3 H 0.4866 0.2207 0.6463
N1_3 N 0.40605(19) 0.22527(26) 0.2881(4)
N2_2 N 0.3210(2) 0.12035(26) 0.3381(4)
N3_2 N 0.2809(2) 0.06901(28) 0.3864(4)
N4_3 N 0.34999(19) 0.11530(26) 0.5403(4)
C14_2 C 0.2200(3) 0.0540(4) 0.0766(6)
H11_2 H 0.2200 0.0406 0.1595
N6_2 N 0.26062(19) 0.10806(26) 0.0452(4)
N11_2 N 0.37915(19) 0.12417(34) 0.0797(4)
C9_2 C 0.0214(4) 0.2349(2) 0.5648(6)
H4_2 H 0.0170 0.2120 0.4937
C10_2 C 0.0683(3) 0.2538(2) 0.6434(6)
H5_2 H 0.0947 0.2425 0.6238
C11_2 C 0.0377(4) 0.3007(2) 0.7744(6)
H6_2 H 0.0429 0.3235 0.8462
H12_2 H 0.0184 0.1713 0.0147
C11_3 C 0.3659(2) 0.0703(3) 0.1078(6)
H6_3 H 0.3431 0.0527 0.1796
C12_3 C 0.3843(2) 0.0406(2) 0.0360(6)
H7_3 H 0.3753 0.0041 0.0615
C24_2 C 0.2957(4) 0.3659(2) 0.8922(6)
H16_2 H 0.2905 0.3431 0.8204
C25_2 C 0.3438(3) 0.3843(2) 0.9640(6)
H17_2 H 0.3713 0.3753 0.9385
H19_2 H 0.5760 0.4630 0.9705
Mg2_2 Mg 1.0000 0.5001 0.5000
C15_2 C 0.8396(3) 0.8208(3) 0.9911(7)
C16_2 C 0.8612(3) 0.8228(3) 0.8704(7)
H13_2 H 0.8663 0.8513 0.8126
C17_2 C 0.8756(2) 0.7824(3) 0.8342(6)
C18_2 C 0.8686(2) 0.7419(3) 0.9237(6)
C19_2 C 0.8805(2) 0.6941(2) 0.9006(6)
C20_3 C 0.8992(2) 0.6341(3) 0.8279(6)
C21_3 C 0.9169(2) 0.6025(3) 0.7415(6)
C22_3 C 0.9016(2) 0.5469(3) 0.7685(6)
H14_3 H 0.8787 0.5284 0.8396
C23_3 C 0.9205(2) 0.5189(2) 0.6899(6)
H15_3 H 0.9092 0.4812 0.7095
C24_3 C 0.9674(2) 0.5964(3) 0.5589(6)
H16_3 H 0.9902 0.6140 0.4871
C25_3 C 0.9490(2) 0.6261(2) 0.6307(6)
H17_3 H 0.9580 0.6626 0.6052
C26_2 C 0.8983(2) 0.7841(2) 0.7002(6)
H18_2 H 0.9065 0.7537 0.6910
H19_3 H 0.8703 0.7796 0.6372
H20_2 H 0.9325 0.8199 0.6870
N7_3 N 0.86728(17) 0.6543(2) 0.9952(4)
N8_3 N 0.87852(19) 0.6142(2) 0.9469(4)
N9_2 N 0.90135(18) 0.68332(19) 0.7930(4)
N10_2 N 0.95418(19) 0.5425(2) 0.5870(4)
C7_3 C 0.9674(3) 0.4016(4) 0.8388(6)
C8_3 C 0.9358(3) 0.3523(4) 0.9252(6)
C9_3 C 0.8802(3) 0.3120(4) 0.8982(6)
H4_3 H 0.8617 0.3164 0.8271
C10_3 C 0.8522(2) 0.2651(3) 0.9768(6)
H5_3 H 0.8145 0.2387 0.9572
N2_3 N 0.9876(2) 0.45369(26) 0.6715(4)
N3_3 N 0.9475(2) 0.40235(28) 0.7198(4)
C14_3 C 0.8867(3) 0.3873(4) 0.4099(6)
H11_3 H 0.8867 0.3739 0.4928
C15_3 C 0.8459(3) 0.3521(4) 0.3244(7)
H12_3 H 0.8196 0.3149 0.3480
C16_3 C 0.8439(3) 0.3717(4) 0.2037(7)
H13_3 H 0.8154 0.3483 0.1459
C17_3 C 0.8843(3) 0.4265(4) 0.1675(6)
C18_3 C 0.9248(3) 0.4600(4) 0.2570(6)
C19_3 C 0.9726(2) 0.5197(3) 0.2339(6)
C26_3 C 0.8826(2) 0.4475(3) 0.0335(6)
H18_3 H 0.9130 0.4861 0.0243
H20_3 H 0.8468 0.4459 0.0203
N6_3 N 0.92729(19) 0.44139(26) 0.3785(4)
N9_3 N 0.98335(19) 0.55136(26) 0.1263(4)
H2_4 H 0.8471 0.0184 0.9853
Mg3_2 Mg 0.8334 0.1667 0.1667
C22_4 C 0.7864(3) 0.0214(4) 0.4352(6)
H14_4 H 0.8049 0.0170 0.5063
C23_4 C 0.8144(2) 0.0683(3) 0.3566(6)
H15_4 H 0.8521 0.0947 0.3762
C24_4 C 0.7369(3) 0.0377(4) 0.2256(6)
H16_4 H 0.7193 0.0429 0.1538
N10_3 N 0.7908(2) 0.07835(28) 0.2537(4)
C1_4 C 0.7207(4) 0.1673(3) 0.2567(6)
H1_4 H 0.7073 0.1539 0.1738
C2_4 C 0.6855(4) 0.1729(3) 0.3422(7)
H2_5 H 0.6483 0.1620 0.3186
C3_4 C 0.7051(4) 0.1945(3) 0.4629(7)
H3_4 H 0.6817 0.1996 0.5207
C4_4 C 0.7599(4) 0.2089(2) 0.4991(6)
C5_4 C 0.7934(4) 0.2019(2) 0.4096(6)
C6_4 C 0.8531(3) 0.2138(2) 0.4327(6)
C7_4 C 0.9318(4) 0.2325(2) 0.5054(6)
C8_4 C 0.9811(4) 0.2502(2) 0.5918(6)
C12_4 C 0.9896(3) 0.2823(2) 0.7026(6)
H7_4 H 0.9621 0.2913 0.7281
C13_4 C 0.7809(3) 0.2316(2) 0.6331(6)
H8_4 H 0.8195 0.2398 0.6423
H9_3 H 0.7574 0.2036 0.6961
H10_4 H 0.7793 0.2658 0.6463
N1_4 N 0.77473(26) 0.18077(18) 0.2881(4)
N2_4 N 0.87965(26) 0.20061(17) 0.3381(4)
N3_4 N 0.93099(28) 0.21185(19) 0.3864(4)
N4_4 N 0.88470(26) 0.23468(18) 0.5403(4)
C14_4 C 0.9460(4) 0.1660(3) 0.0766(6)
H11_4 H 0.9594 0.1794 0.1595
N6_4 N 0.89194(26) 0.15256(18) 0.0452(4)
N11_3 N 0.87583(34) 0.25499(28) 0.0797(4)
C11_4 C 0.9297(3) 0.2957(4) 0.1078(6)
H6_4 H 0.9473 0.2905 0.1796
C12_5 C 0.9594(2) 0.3438(3) 0.0360(6)
H7_5 H 0.9959 0.3713 0.0615
C2_5 C 0.8208(3) 0.9812(4) 0.0089(7)
C3_5 C 0.8228(3) 0.9616(4) 0.1296(7)
H3_5 H 0.8513 0.9850 0.1874
C4_5 C 0.7824(3) 0.9068(4) 0.1658(6)
C5_5 C 0.7419(3) 0.8733(4) 0.0763(6)
C6_5 C 0.6941(2) 0.8136(3) 0.0994(6)
C7_5 C 0.6341(3) 0.7349(4) 0.1721(6)
C8_5 C 0.6025(3) 0.6856(4) 0.2585(6)
C9_4 C 0.5469(3) 0.6453(4) 0.2315(6)
H4_4 H 0.5284 0.6497 0.1604
C10_4 C 0.5189(2) 0.5984(3) 0.3101(6)
H5_4 H 0.4812 0.5720 0.2905
C11_5 C 0.5964(3) 0.6290(4) 0.4411(6)
H6_5 H 0.6140 0.6238 0.5129
C12_6 C 0.6261(2) 0.6771(3) 0.3693(6)
H7_6 H 0.6626 0.7046 0.3948
C13_5 C 0.7841(2) 0.8858(3) 0.2998(6)
H8_5 H 0.7537 0.8472 0.3090
H9_4 H 0.7796 0.9093 0.3628
H10_5 H 0.8199 0.8874 0.3130
N2_5 N 0.6543(2) 0.78702(26) 0.0048(4)
N3_5 N 0.6142(2) 0.73568(28) 0.0531(4)
N4_5 N 0.68332(19) 0.78197(26) 0.2070(4)
N5_2 N 0.5425(2) 0.58832(28) 0.4130(4)
Mg2_3 Mg 0.4999 0.5000 0.5000
C15_4 C 0.1792(3) 0.0188(4) 0.9911(7)
C16_4 C 0.1772(3) 0.0384(4) 0.8704(7)
H13_4 H 0.1487 0.0150 0.8126
C17_4 C 0.2176(3) 0.0932(4) 0.8342(6)
C18_4 C 0.2581(3) 0.1267(4) 0.9237(6)
C19_4 C 0.3059(2) 0.1864(3) 0.9006(6)
C20_4 C 0.3659(3) 0.2651(4) 0.8279(6)
C21_4 C 0.3975(3) 0.3144(4) 0.7415(6)
C22_5 C 0.4531(3) 0.3547(4) 0.7685(6)
H14_5 H 0.4716 0.3503 0.8396
C23_5 C 0.4811(2) 0.4016(3) 0.6899(6)
H15_5 H 0.5188 0.4280 0.7095
C24_5 C 0.4036(3) 0.3710(4) 0.5589(6)
H16_5 H 0.3860 0.3762 0.4871
C25_4 C 0.3739(2) 0.3229(3) 0.6307(6)
H17_4 H 0.3374 0.2954 0.6052
C26_4 C 0.2159(2) 0.1142(3) 0.7002(6)
H18_4 H 0.2463 0.1528 0.6910
H19_4 H 0.2204 0.0907 0.6372
H20_4 H 0.1801 0.1126 0.6870
N7_4 N 0.3457(2) 0.21298(26) 0.9952(4)
N8_4 N 0.3858(2) 0.26432(28) 0.9469(4)
N9_4 N 0.31668(19) 0.21803(26) 0.7930(4)
N10_4 N 0.4575(2) 0.41168(28) 0.5870(4)
C1_5 C 0.3873(4) 0.5007(3) 0.5901(6)
H1_5 H 0.3739 0.4873 0.5072
C2_6 C 0.3521(4) 0.5063(3) 0.6756(7)
H2_6 H 0.3149 0.4954 0.6520
C3_6 C 0.3717(4) 0.5279(3) 0.7963(7)
H3_6 H 0.3483 0.5330 0.8541
C4_6 C 0.4265(4) 0.5423(2) 0.8325(6)
C5_6 C 0.4600(4) 0.5353(2) 0.7430(6)
C6_6 C 0.5197(3) 0.5472(2) 0.7661(6)
C7_6 C 0.5984(4) 0.5659(2) 0.8388(6)
C8_6 C 0.6477(4) 0.5836(2) 0.9252(6)
C9_5 C 0.6880(4) 0.5683(2) 0.8982(6)
H4_5 H 0.6836 0.5454 0.8271
C10_5 C 0.7349(3) 0.5872(2) 0.9768(6)
H5_5 H 0.7613 0.5759 0.9572
C13_6 C 0.4475(3) 0.5650(2) 0.9665(6)
H8_6 H 0.4861 0.5732 0.9757
H10_6 H 0.4459 0.5992 0.9797
N1_5 N 0.44139(26) 0.51411(18) 0.6215(4)
N2_6 N 0.54631(26) 0.53395(17) 0.6715(4)
N3_6 N 0.59765(28) 0.54519(19) 0.7198(4)
N4_6 N 0.55136(26) 0.56802(18) 0.8737(4)
C14_5 C 0.6127(4) 0.4993(3) 0.4099(6)
H11_5 H 0.6261 0.5127 0.4928
C15_5 C 0.6479(4) 0.4937(3) 0.3244(7)
H12_4 H 0.6851 0.5046 0.3480
C16_5 C 0.6283(4) 0.4721(3) 0.2037(7)
H13_5 H 0.6517 0.4670 0.1459
C17_5 C 0.5735(4) 0.4577(2) 0.1675(6)
C18_5 C 0.5400(4) 0.4647(2) 0.2570(6)
C19_5 C 0.4803(3) 0.4528(2) 0.2339(6)
C20_5 C 0.4016(4) 0.4341(2) 0.1612(6)
C21_5 C 0.3523(4) 0.4164(2) 0.0748(6)
C22_6 C 0.3120(4) 0.4317(2) 0.1018(6)
H14_6 H 0.3164 0.4546 0.1729
C23_6 C 0.2651(3) 0.4128(2) 0.0232(6)
H15_6 H 0.2387 0.4241 0.0428
C26_5 C 0.5525(3) 0.4350(2) 0.0335(6)
H18_5 H 0.5139 0.4268 0.0243
H20_5 H 0.5541 0.4008 0.0203
N6_5 N 0.55861(26) 0.48589(18) 0.3785(4)
N7_5 N 0.45369(26) 0.46605(17) 0.3285(4)
N8_5 N 0.40235(28) 0.45481(19) 0.2802(4)
N9_5 N 0.44864(26) 0.43198(18) 0.1263(4)
Mg1_2 Mg 0.6667 0.8334 0.8333
C1_6 C 0.7800(3) 0.9460(4) 0.9234(6)
H1_6 H 0.7800 0.9594 0.8405
N1_6 N 0.73938(19) 0.89194(26) 0.9548(4)
C14_6 C 0.5533(3) 0.7207(4) 0.7433(6)
H11_6 H 0.5533 0.7073 0.8262
C15_6 C 0.5125(3) 0.6855(4) 0.6578(7)
H12_5 H 0.4862 0.6483 0.6814
C16_6 C 0.5105(3) 0.7051(4) 0.5371(7)
H13_6 H 0.4820 0.6817 0.4793
C17_6 C 0.5509(3) 0.7599(4) 0.5009(6)
C18_6 C 0.5914(3) 0.7934(4) 0.5904(6)
C19_6 C 0.6392(2) 0.8531(3) 0.5673(6)
C20_6 C 0.6992(3) 0.9318(4) 0.4946(6)
C21_6 C 0.7308(3) 0.9811(4) 0.4082(6)
C25_5 C 0.7072(2) 0.9896(3) 0.2974(6)
H17_5 H 0.6707 0.9621 0.2719
C26_6 C 0.5492(2) 0.7809(3) 0.3669(6)
H18_6 H 0.5796 0.8195 0.3577
H19_5 H 0.5537 0.7574 0.3039
H20_6 H 0.5134 0.7793 0.3537
N6_6 N 0.59395(19) 0.77473(26) 0.7119(4)
N7_6 N 0.6790(2) 0.87965(26) 0.6619(4)
N8_6 N 0.7191(2) 0.93099(28) 0.6136(4)
N9_6 N 0.65001(19) 0.88470(26) 0.4597(4)
N11_4 N 0.71249(19) 0.79083(34) 0.7463(4)
N12_2 N 0.62085(19) 0.87583(34) 0.9203(4)
H2_7 H 0.9816 0.8287 0.9853
Mg3_3 Mg 0.8333 0.6667 0.1667
C22_7 C 0.9786(4) 0.7651(2) 0.4352(6)
H14_7 H 0.9830 0.7880 0.5063
C23_7 C 0.9317(3) 0.7462(2) 0.3566(6)
H15_7 H 0.9053 0.7575 0.3762
C24_6 C 0.9623(4) 0.6993(2) 0.2256(6)
H16_6 H 0.9571 0.6765 0.1538
N10_5 N 0.92165(28) 0.71249(19) 0.2537(4)
C1_7 C 0.8327(3) 0.5533(3) 0.2567(6)
H1_7 H 0.8461 0.5533 0.1738
C2_7 C 0.8271(3) 0.5125(3) 0.3422(7)
H2_8 H 0.8380 0.4862 0.3186
C3_7 C 0.8055(3) 0.5105(3) 0.4629(7)
H3_7 H 0.8004 0.4820 0.5207
C4_7 C 0.7911(2) 0.5509(3) 0.4991(6)
C5_7 C 0.7981(2) 0.5914(3) 0.4096(6)
C6_7 C 0.7862(2) 0.6392(2) 0.4327(6)
C7_7 C 0.7675(2) 0.6992(3) 0.5054(6)
C8_7 C 0.7498(2) 0.7308(3) 0.5918(6)
C9_6 C 0.7651(2) 0.7864(3) 0.5648(6)
H4_6 H 0.7880 0.8049 0.4937
C10_6 C 0.7462(2) 0.8144(2) 0.6434(6)
H5_6 H 0.7575 0.8521 0.6238
C11_6 C 0.6993(2) 0.7369(3) 0.7744(6)
H6_6 H 0.6765 0.7193 0.8462
C12_7 C 0.7177(2) 0.7072(2) 0.7026(6)
H7_7 H 0.7087 0.6707 0.7281
C13_7 C 0.7684(2) 0.5492(2) 0.6331(6)
H8_7 H 0.7602 0.5796 0.6423
H9_5 H 0.7964 0.5537 0.6961
H10_7 H 0.7342 0.5134 0.6463
N1_7 N 0.81923(18) 0.59395(19) 0.2881(4)
N2_7 N 0.79939(17) 0.6790(2) 0.3381(4)
N3_7 N 0.78815(19) 0.7191(2) 0.3864(4)
N4_7 N 0.76532(18) 0.65001(19) 0.5403(4)
C14_7 C 0.8340(3) 0.7800(3) 0.0766(6)
H11_7 H 0.8206 0.7800 0.1595
H12_6 H 0.8287 0.8471 0.0147
N6_7 N 0.84744(18) 0.73938(19) 0.0452(4)
N11_5 N 0.74501(28) 0.62085(19) 0.0797(4)
C24_7 C 0.6341(2) 0.9297(3) 0.8922(6)
H16_7 H 0.6569 0.9473 0.8204
C25_6 C 0.6157(2) 0.9594(2) 0.9640(6)
H17_6 H 0.6247 0.9959 0.9385
C11_7 C 0.7043(4) 0.6341(2) 0.1078(6)
H6_7 H 0.7095 0.6569 0.1796
C12_8 C 0.6562(3) 0.6157(2) 0.0360(6)
H7_8 H 0.6287 0.6247 0.0615
H9_6 H 0.4240 0.5370 0.0295
Mg2_4 Mg 0.5000 -0.0000 0.5000
C15_7 C 0.9812(4) 0.1604(3) 0.9911(7)
C16_7 C 0.9616(4) 0.1388(3) 0.8704(7)
H13_7 H 0.9850 0.1337 0.8126
C17_7 C 0.9068(4) 0.1244(2) 0.8342(6)
C18_7 C 0.8733(4) 0.1314(2) 0.9237(6)
C19_7 C 0.8136(3) 0.1195(2) 0.9006(6)
C20_7 C 0.7349(4) 0.1008(2) 0.8279(6)
C21_7 C 0.6856(4) 0.0831(2) 0.7415(6)
C22_8 C 0.6453(4) 0.0984(2) 0.7685(6)
H14_8 H 0.6497 0.1213 0.8396
C23_8 C 0.5984(3) 0.0795(2) 0.6899(6)
H15_8 H 0.5720 0.0908 0.7095
C24_8 C 0.6290(4) 0.0326(2) 0.5589(6)
H16_8 H 0.6238 0.0098 0.4871
C25_7 C 0.6771(3) 0.0510(2) 0.6307(6)
H17_7 H 0.7046 0.0420 0.6052
C26_7 C 0.8858(3) 0.1017(2) 0.7002(6)
H18_7 H 0.8472 0.0935 0.6910
H19_6 H 0.9093 0.1297 0.6372
H20_7 H 0.8874 0.0675 0.6870
N7_7 N 0.78702(26) 0.13272(17) 0.9952(4)
N8_7 N 0.73568(28) 0.12148(19) 0.9469(4)
N9_7 N 0.78197(26) 0.09865(18) 0.7930(4)
N10_6 N 0.58832(28) 0.04582(19) 0.5870(4)
C7_8 C 0.4341(2) 0.0326(3) 0.8388(6)
C8_8 C 0.4164(2) 0.0642(3) 0.9252(6)
C9_7 C 0.4317(2) 0.1198(3) 0.8982(6)
H4_7 H 0.4546 0.1383 0.8271
C10_7 C 0.4128(2) 0.1478(2) 0.9768(6)
H5_7 H 0.4241 0.1855 0.9572
N2_8 N 0.46605(17) 0.0124(2) 0.6715(4)
N3_8 N 0.45481(19) 0.0525(2) 0.7198(4)
C14_8 C 0.5007(3) 0.1133(3) 0.4099(6)
H11_8 H 0.4873 0.1133 0.4928
C15_8 C 0.5063(3) 0.1541(3) 0.3244(7)
H12_7 H 0.4954 0.1804 0.3480
C16_8 C 0.5279(3) 0.1561(3) 0.2037(7)
H13_8 H 0.5330 0.1846 0.1459
C17_8 C 0.5423(2) 0.1157(3) 0.1675(6)
C18_8 C 0.5353(2) 0.0752(3) 0.2570(6)
C19_8 C 0.5472(2) 0.0274(2) 0.2339(6)
C26_8 C 0.5650(2) 0.1174(2) 0.0335(6)
H18_8 H 0.5732 0.0870 0.0243
H20_8 H 0.5992 0.1532 0.0203
N6_8 N 0.51411(18) 0.07271(19) 0.3785(4)
N9_8 N 0.56802(18) 0.01665(19) 0.1263(4)
C2_8 C 0.0188(4) 0.8396(3) 0.0089(7)
C3_8 C 0.0384(4) 0.8612(3) 0.1296(7)
H3_8 H 0.0150 0.8663 0.1874
C4_8 C 0.0932(4) 0.8756(2) 0.1658(6)
C5_8 C 0.1267(4) 0.8686(2) 0.0763(6)
C6_8 C 0.1864(3) 0.8805(2) 0.0994(6)
C7_9 C 0.2651(4) 0.8992(2) 0.1721(6)
C8_9 C 0.3144(4) 0.9169(2) 0.2585(6)
C9_8 C 0.3547(4) 0.9016(2) 0.2315(6)
H4_8 H 0.3503 0.8787 0.1604
C10_8 C 0.4016(3) 0.9205(2) 0.3101(6)
H5_8 H 0.4280 0.9092 0.2905
C11_8 C 0.3710(4) 0.9674(2) 0.4411(6)
H6_8 H 0.3762 0.9902 0.5129
C12_9 C 0.3229(3) 0.9490(2) 0.3693(6)
H7_9 H 0.2954 0.9580 0.3948
C13_8 C 0.1142(3) 0.8983(2) 0.2998(6)
H8_8 H 0.1528 0.9065 0.3090
H9_7 H 0.0907 0.8703 0.3628
H10_8 H 0.1126 0.9325 0.3130
N2_9 N 0.21298(26) 0.86728(17) 0.0048(4)
N3_9 N 0.26432(28) 0.87852(19) 0.0531(4)
N4_8 N 0.21803(26) 0.90135(18) 0.2070(4)
N5_3 N 0.41168(28) 0.95418(19) 0.4130(4)
Mg2_5 Mg 0.5000 1.0000 0.5000
C1_8 C 0.4993(3) 0.8867(3) 0.5901(6)
H1_8 H 0.5127 0.8867 0.5072
C2_9 C 0.4937(3) 0.8459(3) 0.6756(7)
H2_9 H 0.5046 0.8196 0.6520
C3_9 C 0.4721(3) 0.8439(3) 0.7963(7)
H3_9 H 0.4670 0.8154 0.8541
C4_9 C 0.4577(2) 0.8843(3) 0.8325(6)
C5_9 C 0.4647(2) 0.9248(3) 0.7430(6)
C6_9 C 0.4528(2) 0.9726(2) 0.7661(6)
C13_9 C 0.4350(2) 0.8826(2) 0.9665(6)
H8_9 H 0.4268 0.9130 0.9757
H10_9 H 0.4008 0.8468 0.9797
N1_8 N 0.48589(18) 0.92729(19) 0.6215(4)
N4_9 N 0.43198(18) 0.98335(19) 0.8737(4)
C20_8 C 0.5659(2) 0.9674(3) 0.1612(6)
C21_8 C 0.5836(2) 0.9358(3) 0.0748(6)
C22_9 C 0.5683(2) 0.8802(3) 0.1018(6)
H14_9 H 0.5454 0.8617 0.1729
C23_9 C 0.5872(2) 0.8522(2) 0.0232(6)
H15_9 H 0.5759 0.8145 0.0428
N7_8 N 0.53395(17) 0.9876(2) 0.3285(4)
N8_8 N 0.54519(19) 0.9475(2) 0.2802(4)
Mg1_3 Mg 0.1666 0.8333 0.8333
C1_9 C 0.0540(4) 0.8340(3) 0.9234(6)
H1_9 H 0.0406 0.8206 0.8405
N1_9 N 0.10806(26) 0.84744(18) 0.9548(4)
C14_9 C 0.2793(4) 0.8327(3) 0.7433(6)
H11_9 H 0.2927 0.8461 0.8262
C15_9 C 0.3145(4) 0.8271(3) 0.6578(7)
H12_8 H 0.3517 0.8380 0.6814
C16_9 C 0.2949(4) 0.8055(3) 0.5371(7)
H13_9 H 0.3183 0.8004 0.4793
C17_9 C 0.2401(4) 0.7911(2) 0.5009(6)
C18_9 C 0.2066(4) 0.7981(2) 0.5904(6)
C19_9 C 0.1469(3) 0.7862(2) 0.5673(6)
C20_9 C 0.0682(4) 0.7675(2) 0.4946(6)
C21_9 C 0.0189(4) 0.7498(2) 0.4082(6)
C25_8 C 0.0104(3) 0.7177(2) 0.2974(6)
H17_8 H 0.0379 0.7087 0.2719
C26_9 C 0.2191(3) 0.7684(2) 0.3669(6)
H18_9 H 0.1805 0.7602 0.3577
H19_7 H 0.2426 0.7964 0.3039
H20_9 H 0.2207 0.7342 0.3537
N6_9 N 0.22527(26) 0.81923(18) 0.7119(4)
N7_9 N 0.12035(26) 0.79939(17) 0.6619(4)
N8_9 N 0.06901(28) 0.78815(19) 0.6136(4)
N9_9 N 0.11530(26) 0.76532(18) 0.4597(4)
N11_6 N 0.20917(34) 0.92165(28) 0.7463(4)
N12_3 N 0.12417(34) 0.74501(28) 0.9203(4)
C9_9 C 0.2136(3) 0.9786(4) 0.5648(6)
H4_9 H 0.1951 0.9830 0.4937
C10_9 C 0.1856(2) 0.9317(3) 0.6434(6)
H5_9 H 0.1479 0.9053 0.6238
C11_9 C 0.2631(3) 0.9623(4) 0.7744(6)
H6_9 H 0.2807 0.9571 0.8462
H12_9 H 0.1529 0.9816 0.0147
C24_9 C 0.0703(3) 0.7043(4) 0.8922(6)
H16_9 H 0.0527 0.7095 0.8204
C25_9 C 0.0406(2) 0.6562(3) 0.9640(6)
H17_9 H 0.0041 0.6287 0.9385
H19_8 H 0.5370 0.1129 0.9705
H9_8 H 0.4630 0.8871 0.0295
H9_9 H 0.1129 0.5760 0.0295
H19_9 H 0.8871 0.4240 0.9705
loop_
_geom_bond_atom_site_label_1
_geom_bond_atom_site_label_2
_geom_bond_site_symmetry_1
_geom_bond_site_symmetry_2
C3 C2 1_555 1_555
H3 C3 1_555 1_555
C4 C3 1_555 1_555
C5 C4 1_555 1_555
C6 C5 1_555 1_555
C7 C8 1_555 1_555
C8 C9 1_555 1_555
C9 H4 1_555 1_555
C10 C9 1_555 1_555
H5 C10 1_555 1_555
C11 H6 1_555 1_555
C12 C8 1_555 1_555
H7 C12 1_555 1_555
C13 C4 1_555 1_555
H8 C13 1_555 1_555
H9 C13 1_555 1_555
H10 C13 1_555 1_555
N3 C7 1_555 1_555
N4 C6 1_555 1_555
N5 C10 1_555 1_555
Mg2 N5 1_555 1_555
C6 N2 1_555 1_555
C7 N4 1_555 1_555
C11 C12 1_555 1_555
C11 N5 1_555 1_555
N2 N3 1_555 1_555
Mg2 N1 1_555 1_555
C1 H1 1_555 1_555
C2_2 C1 1_555 1_555
H2 C2_2 1_555 1_555
C3_2 C2_2 1_555 1_555
H3_2 C3_2 1_555 1_555
C4_2 C3_2 1_555 1_555
C5_2 C4_2 1_555 1_555
C6_2 C5_2 1_555 1_555
C13_2 C4_2 1_555 1_555
H8_2 C13_2 1_555 1_555
H10_2 C13_2 1_555 1_555
N1 C1 1_555 1_555
N4_2 C6_2 1_555 1_555
C20 C21 1_555 1_555
C21 C22 1_555 1_555
C22 H14 1_555 1_555
C23 C22 1_555 1_555
H15 C23 1_555 1_555
N7 Mg2 1_555 1_555
N8 C20 1_555 1_555
C5_2 N1 1_555 1_555
N7 N8 1_555 1_555
Mg1 N1_2 1_555 1_555
C1_2 H1_2 1_555 1_555
N1_2 C1_2 1_555 1_555
Mg3 N10 1_555 1_555
C14 H11 1_555 1_555
C15 C14 1_555 1_555
H12 C15 1_555 1_555
C16 C15 1_555 1_555
H13 C16 1_555 1_555
C17 C16 1_555 1_555
C18 C17 1_555 1_555
C19 C18 1_555 1_555
C20_2 C21_2 1_555 1_555
C21_2 C22_2 1_555 1_555
C22_2 H14_2 1_555 1_555
C23_2 C22_2 1_555 1_555
H15_2 C23_2 1_555 1_555
C24 H16 1_555 1_555
C25 C21_2 1_555 1_555
H17 C25 1_555 1_555
C26 C17 1_555 1_555
H18 C26 1_555 1_555
H19 C26 1_555 1_555
H20 C26 1_555 1_555
N6 Mg1 1_555 1_555
N7_2 Mg1 1_555 1_555
N8_2 C20_2 1_555 1_555
N9 C19 1_555 1_555
N10 C23_2 1_555 1_555
N11 Mg1 1_555 1_555
N12 Mg1 1_555 1_555
C14 N6 1_555 1_555
C18 N6 1_555 1_555
C19 N7_2 1_555 1_555
C20_2 N9 1_555 1_555
C24 C25 1_555 1_555
C24 N10 1_555 1_555
N7_2 N8_2 1_555 1_555
Mg3 N1_3 1_555 1_555
C1_3 H1_3 1_555 1_555
C2_3 C1_3 1_555 1_555
H2_3 C2_3 1_555 1_555
C3_3 C2_3 1_555 1_555
H3_3 C3_3 1_555 1_555
C4_3 C3_3 1_555 1_555
C5_3 C4_3 1_555 1_555
C6_3 C5_3 1_555 1_555
C7_2 C8_2 1_555 1_555
C12_2 C8_2 1_555 1_555
H7_2 C12_2 1_555 1_555
C13_3 C4_3 1_555 1_555
H8_3 C13_3 1_555 1_555
H9_2 C13_3 1_555 1_555
H10_3 C13_3 1_555 1_555
N1_3 C1_3 1_555 1_555
N2_2 Mg3 1_555 1_555
N3_2 C7_2 1_555 1_555
N4_3 C6_3 1_555 1_555
C14_2 H11_2 1_555 1_555
N6_2 Mg3 1_555 1_555
N11_2 Mg3 1_555 1_555
C5_3 N1_3 1_555 1_555
C6_3 N2_2 1_555 1_555
C7_2 N4_3 1_555 1_555
N2_2 N3_2 1_555 1_555
C14_2 N6_2 1_555 1_555
C9_2 H4_2 1_555 1_555
C10_2 C9_2 1_555 1_555
H5_2 C10_2 1_555 1_555
C11_2 H6_2 1_555 1_555
N11 C10_2 1_555 1_555
C11_2 N11 1_555 1_555
C11_3 H6_3 1_555 1_555
H7_3 C12_3 1_555 1_555
C11_3 C12_3 1_555 1_555
C11_3 N11_2 1_555 1_555
C24_2 H16_2 1_555 1_555
H17_2 C25_2 1_555 1_555
C24_2 C25_2 1_555 1_555
C24_2 N12 1_555 1_555
Mg2_2 N10_2 1_555 1_555
C16_2 C15_2 1_555 1_555
H13_2 C16_2 1_555 1_555
C17_2 C16_2 1_555 1_555
C18_2 C17_2 1_555 1_555
C19_2 C18_2 1_555 1_555
C20_3 C21_3 1_555 1_555
C21_3 C22_3 1_555 1_555
C22_3 H14_3 1_555 1_555
C23_3 C22_3 1_555 1_555
H15_3 C23_3 1_555 1_555
C24_3 H16_3 1_555 1_555
C25_3 C21_3 1_555 1_555
H17_3 C25_3 1_555 1_555
C26_2 C17_2 1_555 1_555
H18_2 C26_2 1_555 1_555
H19_3 C26_2 1_555 1_555
H20_2 C26_2 1_555 1_555
N8_3 C20_3 1_555 1_555
N9_2 C19_2 1_555 1_555
N10_2 C23_3 1_555 1_555
C19_2 N7_3 1_555 1_555
C20_3 N9_2 1_555 1_555
C24_3 C25_3 1_555 1_555
C24_3 N10_2 1_555 1_555
N7_3 N8_3 1_555 1_555
C7_3 C8_3 1_555 1_555
C8_3 C9_3 1_555 1_555
C9_3 H4_3 1_555 1_555
C10_3 C9_3 1_555 1_555
H5_3 C10_3 1_555 1_555
N2_3 Mg2_2 1_555 1_555
N3_3 C7_3 1_555 1_555
C14_3 H11_3 1_555 1_555
C15_3 C14_3 1_555 1_555
H12_3 C15_3 1_555 1_555
C16_3 C15_3 1_555 1_555
H13_3 C16_3 1_555 1_555
C17_3 C16_3 1_555 1_555
C18_3 C17_3 1_555 1_555
C19_3 C18_3 1_555 1_555
C26_3 C17_3 1_555 1_555
H18_3 C26_3 1_555 1_555
H20_3 C26_3 1_555 1_555
N6_3 Mg2_2 1_555 1_555
N9_3 C19_3 1_555 1_555
N2_3 N3_3 1_555 1_555
C14_3 N6_3 1_555 1_555
C18_3 N6_3 1_555 1_555
Mg3_2 N10_3 1_555 1_555
C22_4 H14_4 1_555 1_555
C23_4 C22_4 1_555 1_555
H15_4 C23_4 1_555 1_555
C24_4 H16_4 1_555 1_555
N10_3 C23_4 1_555 1_555
C24_4 N10_3 1_555 1_555
Mg3_2 N1_4 1_555 1_555
C1_4 H1_4 1_555 1_555
C2_4 C1_4 1_555 1_555
H2_5 C2_4 1_555 1_555
C3_4 C2_4 1_555 1_555
H3_4 C3_4 1_555 1_555
C4_4 C3_4 1_555 1_555
C5_4 C4_4 1_555 1_555
C6_4 C5_4 1_555 1_555
C7_4 C8_4 1_555 1_555
C12_4 C8_4 1_555 1_555
H7_4 C12_4 1_555 1_555
C13_4 C4_4 1_555 1_555
H8_4 C13_4 1_555 1_555
H9_3 C13_4 1_555 1_555
H10_4 C13_4 1_555 1_555
N1_4 C1_4 1_555 1_555
N2_4 Mg3_2 1_555 1_555
N3_4 C7_4 1_555 1_555
N4_4 C6_4 1_555 1_555
C14_4 H11_4 1_555 1_555
N6_4 Mg3_2 1_555 1_555
N11_3 Mg3_2 1_555 1_555
C5_4 N1_4 1_555 1_555
C6_4 N2_4 1_555 1_555
C7_4 N4_4 1_555 1_555
N2_4 N3_4 1_555 1_555
C14_4 N6_4 1_555 1_555
C11_4 H6_4 1_555 1_555
H7_5 C12_5 1_555 1_555
C11_4 C12_5 1_555 1_555
C11_4 N11_3 1_555 1_555
C3_5 C2_5 1_555 1_555
H3_5 C3_5 1_555 1_555
C4_5 C3_5 1_555 1_555
C5_5 C4_5 1_555 1_555
C6_5 C5_5 1_555 1_555
C7_5 C8_5 1_555 1_555
C8_5 C9_4 1_555 1_555
C9_4 H4_4 1_555 1_555
C10_4 C9_4 1_555 1_555
H5_4 C10_4 1_555 1_555
C11_5 H6_5 1_555 1_555
C12_6 C8_5 1_555 1_555
H7_6 C12_6 1_555 1_555
C13_5 C4_5 1_555 1_555
H8_5 C13_5 1_555 1_555
H9_4 C13_5 1_555 1_555
H10_5 C13_5 1_555 1_555
N3_5 C7_5 1_555 1_555
N4_5 C6_5 1_555 1_555
N5_2 C10_4 1_555 1_555
Mg2_3 N5_2 1_555 1_555
C6_5 N2_5 1_555 1_555
C7_5 N4_5 1_555 1_555
C11_5 C12_6 1_555 1_555
C11_5 N5_2 1_555 1_555
N2_5 N3_5 1_555 1_555
Mg2_3 N10_4 1_555 1_555
C16_4 C15_4 1_555 1_555
H13_4 C16_4 1_555 1_555
C17_4 C16_4 1_555 1_555
C18_4 C17_4 1_555 1_555
C19_4 C18_4 1_555 1_555
C20_4 C21_4 1_555 1_555
C21_4 C22_5 1_555 1_555
C22_5 H14_5 1_555 1_555
C23_5 C22_5 1_555 1_555
H15_5 C23_5 1_555 1_555
C24_5 H16_5 1_555 1_555
C25_4 C21_4 1_555 1_555
H17_4 C25_4 1_555 1_555
C26_4 C17_4 1_555 1_555
H18_4 C26_4 1_555 1_555
H19_4 C26_4 1_555 1_555
H20_4 C26_4 1_555 1_555
N8_4 C20_4 1_555 1_555
N9_4 C19_4 1_555 1_555
N10_4 C23_5 1_555 1_555
C19_4 N7_4 1_555 1_555
C20_4 N9_4 1_555 1_555
C24_5 C25_4 1_555 1_555
C24_5 N10_4 1_555 1_555
N7_4 N8_4 1_555 1_555
Mg2_3 N1_5 1_555 1_555
C1_5 H1_5 1_555 1_555
C2_6 C1_5 1_555 1_555
H2_6 C2_6 1_555 1_555
C3_6 C2_6 1_555 1_555
H3_6 C3_6 1_555 1_555
C4_6 C3_6 1_555 1_555
C5_6 C4_6 1_555 1_555
C6_6 C5_6 1_555 1_555
C7_6 C8_6 1_555 1_555
C8_6 C9_5 1_555 1_555
C9_5 H4_5 1_555 1_555
C10_5 C9_5 1_555 1_555
H5_5 C10_5 1_555 1_555
C13_6 C4_6 1_555 1_555
H8_6 C13_6 1_555 1_555
H10_6 C13_6 1_555 1_555
N1_5 C1_5 1_555 1_555
N2_6 Mg2_3 1_555 1_555
N3_6 C7_6 1_555 1_555
N4_6 C6_6 1_555 1_555
C14_5 H11_5 1_555 1_555
C15_5 C14_5 1_555 1_555
H12_4 C15_5 1_555 1_555
C16_5 C15_5 1_555 1_555
H13_5 C16_5 1_555 1_555
C17_5 C16_5 1_555 1_555
C18_5 C17_5 1_555 1_555
C19_5 C18_5 1_555 1_555
C20_5 C21_5 1_555 1_555
C21_5 C22_6 1_555 1_555
C22_6 H14_6 1_555 1_555
C23_6 C22_6 1_555 1_555
H15_6 C23_6 1_555 1_555
C26_5 C17_5 1_555 1_555
H18_5 C26_5 1_555 1_555
H20_5 C26_5 1_555 1_555
N6_5 Mg2_3 1_555 1_555
N7_5 Mg2_3 1_555 1_555
N8_5 C20_5 1_555 1_555
N9_5 C19_5 1_555 1_555
C5_6 N1_5 1_555 1_555
C6_6 N2_6 1_555 1_555
C7_6 N4_6 1_555 1_555
N2_6 N3_6 1_555 1_555
C14_5 N6_5 1_555 1_555
C18_5 N6_5 1_555 1_555
C19_5 N7_5 1_555 1_555
C20_5 N9_5 1_555 1_555
N7_5 N8_5 1_555 1_555
Mg1_2 N1_6 1_555 1_555
C1_6 H1_6 1_555 1_555
N1_6 C1_6 1_555 1_555
C14_6 H11_6 1_555 1_555
C15_6 C14_6 1_555 1_555
H12_5 C15_6 1_555 1_555
C16_6 C15_6 1_555 1_555
H13_6 C16_6 1_555 1_555
C17_6 C16_6 1_555 1_555
C18_6 C17_6 1_555 1_555
C19_6 C18_6 1_555 1_555
C20_6 C21_6 1_555 1_555
C25_5 C21_6 1_555 1_555
H17_5 C25_5 1_555 1_555
C26_6 C17_6 1_555 1_555
H18_6 C26_6 1_555 1_555
H19_5 C26_6 1_555 1_555
H20_6 C26_6 1_555 1_555
N6_6 Mg1_2 1_555 1_555
N7_6 Mg1_2 1_555 1_555
N8_6 C20_6 1_555 1_555
N9_6 C19_6 1_555 1_555
N11_4 Mg1_2 1_555 1_555
N12_2 Mg1_2 1_555 1_555
C14_6 N6_6 1_555 1_555
C18_6 N6_6 1_555 1_555
C19_6 N7_6 1_555 1_555
C20_6 N9_6 1_555 1_555
N7_6 N8_6 1_555 1_555
Mg3_3 N10_5 1_555 1_555
C22_7 H14_7 1_555 1_555
C23_7 C22_7 1_555 1_555
H15_7 C23_7 1_555 1_555
C24_6 H16_6 1_555 1_555
N10_5 C23_7 1_555 1_555
C24_6 N10_5 1_555 1_555
Mg3_3 N1_7 1_555 1_555
C1_7 H1_7 1_555 1_555
C2_7 C1_7 1_555 1_555
H2_8 C2_7 1_555 1_555
C3_7 C2_7 1_555 1_555
H3_7 C3_7 1_555 1_555
C4_7 C3_7 1_555 1_555
C5_7 C4_7 1_555 1_555
C6_7 C5_7 1_555 1_555
C7_7 C8_7 1_555 1_555
C8_7 C9_6 1_555 1_555
C9_6 H4_6 1_555 1_555
C10_6 C9_6 1_555 1_555
H5_6 C10_6 1_555 1_555
C11_6 H6_6 1_555 1_555
C12_7 C8_7 1_555 1_555
H7_7 C12_7 1_555 1_555
C13_7 C4_7 1_555 1_555
H8_7 C13_7 1_555 1_555
H9_5 C13_7 1_555 1_555
H10_7 C13_7 1_555 1_555
N1_7 C1_7 1_555 1_555
N2_7 Mg3_3 1_555 1_555
N3_7 C7_7 1_555 1_555
N4_7 C6_7 1_555 1_555
N11_4 C10_6 1_555 1_555
C14_7 H11_7 1_555 1_555
N6_7 Mg3_3 1_555 1_555
N11_5 Mg3_3 1_555 1_555
C5_7 N1_7 1_555 1_555
C6_7 N2_7 1_555 1_555
C7_7 N4_7 1_555 1_555
C11_6 C12_7 1_555 1_555
C11_6 N11_4 1_555 1_555
N2_7 N3_7 1_555 1_555
C14_7 N6_7 1_555 1_555
C24_7 H16_7 1_555 1_555
H17_6 C25_6 1_555 1_555
C24_7 C25_6 1_555 1_555
C24_7 N12_2 1_555 1_555
C11_7 H6_7 1_555 1_555
H7_8 C12_8 1_555 1_555
C11_7 C12_8 1_555 1_555
C11_7 N11_5 1_555 1_555
Mg2_4 N10_6 1_555 1_555
C16_7 C15_7 1_555 1_555
H13_7 C16_7 1_555 1_555
C17_7 C16_7 1_555 1_555
C18_7 C17_7 1_555 1_555
C19_7 C18_7 1_555 1_555
C20_7 C21_7 1_555 1_555
C21_7 C22_8 1_555 1_555
C22_8 H14_8 1_555 1_555
C23_8 C22_8 1_555 1_555
H15_8 C23_8 1_555 1_555
C24_8 H16_8 1_555 1_555
C25_7 C21_7 1_555 1_555
H17_7 C25_7 1_555 1_555
C26_7 C17_7 1_555 1_555
H18_7 C26_7 1_555 1_555
H19_6 C26_7 1_555 1_555
H20_7 C26_7 1_555 1_555
N8_7 C20_7 1_555 1_555
N9_7 C19_7 1_555 1_555
N10_6 C23_8 1_555 1_555
C19_7 N7_7 1_555 1_555
C20_7 N9_7 1_555 1_555
C24_8 C25_7 1_555 1_555
C24_8 N10_6 1_555 1_555
N7_7 N8_7 1_555 1_555
C7_8 C8_8 1_555 1_555
C8_8 C9_7 1_555 1_555
C9_7 H4_7 1_555 1_555
C10_7 C9_7 1_555 1_555
H5_7 C10_7 1_555 1_555
N2_8 Mg2_4 1_555 1_555
N3_8 C7_8 1_555 1_555
C14_8 H11_8 1_555 1_555
C15_8 C14_8 1_555 1_555
H12_7 C15_8 1_555 1_555
C16_8 C15_8 1_555 1_555
H13_8 C16_8 1_555 1_555
C17_8 C16_8 1_555 1_555
C18_8 C17_8 1_555 1_555
C19_8 C18_8 1_555 1_555
C26_8 C17_8 1_555 1_555
H18_8 C26_8 1_555 1_555
H20_8 C26_8 1_555 1_555
N6_8 Mg2_4 1_555 1_555
N9_8 C19_8 1_555 1_555
N2_8 N3_8 1_555 1_555
C14_8 N6_8 1_555 1_555
C18_8 N6_8 1_555 1_555
C3_8 C2_8 1_555 1_555
H3_8 C3_8 1_555 1_555
C4_8 C3_8 1_555 1_555
C5_8 C4_8 1_555 1_555
C6_8 C5_8 1_555 1_555
C7_9 C8_9 1_555 1_555
C8_9 C9_8 1_555 1_555
C9_8 H4_8 1_555 1_555
C10_8 C9_8 1_555 1_555
H5_8 C10_8 1_555 1_555
C11_8 H6_8 1_555 1_555
C12_9 C8_9 1_555 1_555
H7_9 C12_9 1_555 1_555
C13_8 C4_8 1_555 1_555
H8_8 C13_8 1_555 1_555
H9_7 C13_8 1_555 1_555
H10_8 C13_8 1_555 1_555
N3_9 C7_9 1_555 1_555
N4_8 C6_8 1_555 1_555
N5_3 C10_8 1_555 1_555
Mg2_5 N5_3 1_555 1_555
C6_8 N2_9 1_555 1_555
C7_9 N4_8 1_555 1_555
C11_8 C12_9 1_555 1_555
C11_8 N5_3 1_555 1_555
N2_9 N3_9 1_555 1_555
Mg2_5 N1_8 1_555 1_555
C1_8 H1_8 1_555 1_555
C2_9 C1_8 1_555 1_555
H2_9 C2_9 1_555 1_555
C3_9 C2_9 1_555 1_555
H3_9 C3_9 1_555 1_555
C4_9 C3_9 1_555 1_555
C5_9 C4_9 1_555 1_555
C6_9 C5_9 1_555 1_555
C13_9 C4_9 1_555 1_555
H8_9 C13_9 1_555 1_555
H10_9 C13_9 1_555 1_555
N1_8 C1_8 1_555 1_555
N4_9 C6_9 1_555 1_555
C20_8 C21_8 1_555 1_555
C21_8 C22_9 1_555 1_555
C22_9 H14_9 1_555 1_555
C23_9 C22_9 1_555 1_555
H15_9 C23_9 1_555 1_555
N7_8 Mg2_5 1_555 1_555
N8_8 C20_8 1_555 1_555
C5_9 N1_8 1_555 1_555
N7_8 N8_8 1_555 1_555
Mg1_3 N1_9 1_555 1_555
C1_9 H1_9 1_555 1_555
N1_9 C1_9 1_555 1_555
C14_9 H11_9 1_555 1_555
C15_9 C14_9 1_555 1_555
H12_8 C15_9 1_555 1_555
C16_9 C15_9 1_555 1_555
H13_9 C16_9 1_555 1_555
C17_9 C16_9 1_555 1_555
C18_9 C17_9 1_555 1_555
C19_9 C18_9 1_555 1_555
C20_9 C21_9 1_555 1_555
C25_8 C21_9 1_555 1_555
H17_8 C25_8 1_555 1_555
C26_9 C17_9 1_555 1_555
H18_9 C26_9 1_555 1_555
H19_7 C26_9 1_555 1_555
H20_9 C26_9 1_555 1_555
N6_9 Mg1_3 1_555 1_555
N7_9 Mg1_3 1_555 1_555
N8_9 C20_9 1_555 1_555
N9_9 C19_9 1_555 1_555
N11_6 Mg1_3 1_555 1_555
N12_3 Mg1_3 1_555 1_555
C14_9 N6_9 1_555 1_555
C18_9 N6_9 1_555 1_555
C19_9 N7_9 1_555 1_555
C20_9 N9_9 1_555 1_555
N7_9 N8_9 1_555 1_555
C9_9 H4_9 1_555 1_555
C10_9 C9_9 1_555 1_555
H5_9 C10_9 1_555 1_555
C11_9 H6_9 1_555 1_555
N11_6 C10_9 1_555 1_555
C11_9 N11_6 1_555 1_555
C24_9 H16_9 1_555 1_555
H17_9 C25_9 1_555 1_555
C24_9 C25_9 1_555 1_555
C24_9 N12_3 1_555 1_555

#END
