
###############################################################################
#
# This file contains modified crystal structure data generated from the
# MOF subset of the Cambridge Structural Database (CSD) v543 
# hosted by the Cambridge Crystallographic Data Centre (CCDC).
#
# This work is licensed under the Creative Commons
# Attribution-NonCommercial-ShareAlike 4.0 International License.
# To view a copy of this license, visit
# http://creativecommons.org/licenses/by-nc-sa/4.0/
# or send a letter to
# Creative Commons, PO Box 1866, Mountain View, CA 94042, USA.
#
# CIF created using the CSD Python API on 29 September 2022
# The structure has been converted into the P1 space group
# The structure has a 3D framework
# The original CSD entry UYETUQ is in the orthorhombic crystal system
# The framework has been calculated to contain at least 10.0% void space
# The void calculation uses a probe of radius 1.32A, grid spacing 0.4
# The framework is charged, counterions have been retained in the structure
# H atom positions have been added when not included in the experimental data
# Generated hydrogen atom positions removed from atoms on special positions
#
###############################################################################

data_UYETUQ
_chemical_formula_moiety         '(C292 H251 Eu24 F8 O136 8-)n'
_symmetry_cell_setting           triclinic
_symmetry_space_group_name_H-M   'P 1'
_symmetry_Int_Tables_number      1
_space_group_name_Hall           'P 1'
loop_
_symmetry_equiv_pos_site_id
_symmetry_equiv_pos_as_xyz
1 x,y,z
_cell_length_a                   26.3338(9)
_cell_length_b                   32.6870(12)
_cell_length_c                   14.8669(5)
_cell_angle_alpha                90
_cell_angle_beta                 90
_cell_angle_gamma                90
_cell_volume                     12797
loop_
_atom_site_label
_atom_site_type_symbol
_atom_site_fract_x
_atom_site_fract_y
_atom_site_fract_z
O9 O 0.8857(2) 0.3317(2) 0.0280(4)
O10 O 0.8169(2) 0.2945(2) 0.0599(4)
C19 C 0.8407(4) 0.3212(3) 0.0153(6)
C27 C 0.4484(4) 0.6531(4) 0.0382(7)
C28 C 0.3963(4) 0.6473(3) 0.0463(6)
C29 C 0.3765(3) 0.6291(4) 0.1231(8)
H18 H 0.341269 0.625182 0.128615
C30 C 0.4088(4) 0.6167(5) 0.1919(7)
H19 H 0.395375 0.604401 0.243895
C31 C 0.4609(4) 0.6225(4) 0.1838(7)
H20 H 0.482689 0.614151 0.230348
C32 C 0.4807(3) 0.6407(5) 0.1070(9)
H21 H 0.515896 0.644682 0.101520
O19 O 0.6176(6) 0.7102(7) 0.0088(7)
C38 C 0.6152(13) 0.750000 0.0569(18)
O22 O 0.6176(6) 0.7898(7) 0.0088(7)
Eu9 Eu 0.96021(2) 0.31178(2) 0.11060(3)
Eu14 Eu 0.83671(2) 0.250000 0.17989(4)
H47 H 0.599874 0.639659 0.0431037
H50 H 0.611559 0.75 0.129866
Eu1 Eu 0.46021(2) 0.31178(2) 0.38940(3)
Eu2 Eu 0.66329(2) 0.750000 0.67989(4)
Eu3 Eu 0.53077(2) 0.250000 0.19878(4)
Eu4 Eu 0.59121(2) 0.68758(2) 0.86565(3)
O1 O 0.4129(2) 0.250000 0.4042(4)
H1 H 0.401502 0.250000 0.467670
O2 O 0.5038(2) 0.250000 0.3492(4)
O3 O 0.47933(17) 0.19501(14) 0.2328(3)
H2 H 0.500788 0.170896 0.219415
O4 O 0.4451(5) 0.7048(5) 0.9231(10)
O5 O 0.5891(2) 0.2950(2) 0.2659(4)
O6 O 0.5500(2) 0.32858(18) 0.3773(4)
O7 O 0.8209(2) 0.3266(2) 0.3598(4)
O8 O 0.7764(2) 0.29452(18) 0.2509(4)
O11 O 0.5527(3) 0.62131(18) 0.6668(5)
O12 O 0.61122(16) 0.69412(14) 0.7117(3)
H3 H 0.632518 0.669929 0.698185
O13 O 0.5173(5) 0.6689(5) 0.9516(9)
O14 O 0.5436(2) 0.750000 0.8885(4)
H4 H 0.532624 0.750000 0.952248
O15 O 0.6332(2) 0.750000 0.8295(4)
H5 H 0.664174 0.750000 0.867135
O16 O 0.5831(2) 0.62008(18) 0.8069(4)
O17 O 0.4868(4) 0.3662(3) 0.5039(7)
O18 O 0.4824(4) 0.2844(3) 0.5330(6)
C1 C 0.5883(3) 0.3170(2) 0.3354(6)
C2 C 0.6390(3) 0.3302(3) 0.3703(5)
C3 C 0.6414(3) 0.3554(2) 0.4491(5)
H6 H 0.611331 0.365622 0.474702
C4 C 0.7313(3) 0.3515(2) 0.4447(5)
H7 H 0.762838 0.358696 0.469704
C5 C 0.7310(3) 0.3277(3) 0.3661(5)
C6 C 0.7794(3) 0.3149(2) 0.3229(6)
C7 C 0.6832(3) 0.3182(3) 0.3301(6)
H8 H 0.681505 0.302977 0.276554
C8 C 0.6915(3) 0.3882(3) 0.5736(6)
C9 C 0.6666(3) 0.4257(3) 0.5861(6)
H9 H 0.645485 0.436027 0.540503
C10 C 0.6728(3) 0.4472(3) 0.6639(6)
C11 C 0.7046(3) 0.4319(3) 0.7333(6)
H10 H 0.709379 0.446996 0.786490
C12 C 0.7286(3) 0.3944(3) 0.7219(6)
C13 C 0.7579(4) 0.3761(3) 0.7985(6)
C14 C 0.7923(4) 0.3987(3) 0.8462(6)
H11 H 0.796912 0.426562 0.832852
C15 C 0.8205(4) 0.3804(3) 0.9151(6)
H12 H 0.845495 0.395643 0.945269
C16 C 0.8122(4) 0.3408(3) 0.9390(6)
C17 C 0.7766(4) 0.3176(3) 0.8918(6)
H13 H 0.770102 0.290343 0.908000
C18 C 0.7511(4) 0.3354(3) 0.8210(6)
H14 H 0.728380 0.319464 0.787037
C20 C 0.7220(3) 0.3729(3) 0.6411(5)
H15 H 0.738560 0.347766 0.632809
C21 C 0.6449(5) 0.4867(3) 0.6810(7)
C22 C 0.6350(5) 0.5010(3) 0.7679(7)
H16 H 0.644177 0.484681 0.817311
C23 C 0.6123(5) 0.5380(3) 0.7831(7)
H17 H 0.606757 0.546645 0.842654
C24 C 0.5975(5) 0.5628(3) 0.7138(7)
C25 C 0.5753(4) 0.6049(3) 0.7315(6)
C26 C 0.4718(7) 0.6776(7) 0.9637(13)
O20 O 0.6152(5) 0.6324(5) 0.9842(7)
C33 C 0.6038(5) 0.5488(3) 0.6274(7)
H22 H 0.592862 0.564733 0.578487
C34 C 0.6263(5) 0.5107(3) 0.6122(7)
H23 H 0.628894 0.501095 0.552839
C35 C 0.4841(8) 0.250000 0.5677(10)
C36 C 0.6876(3) 0.3648(3) 0.4874(5)
C37 C 0.4869(8) 0.250000 0.6697(10)
F1 F 0.3611(4) 0.6590(4) 0.9801(7)
O21 O 0.4824(4) 0.2156(3) 0.5330(6)
Eu5 Eu 0.53979(2) 0.68822(2) 0.61060(3)
Eu6 Eu 0.40879(2) 0.31242(2) 0.13435(3)
O23 O 0.5549(5) 0.2952(5) 0.0769(10)
O24 O 0.4109(2) 0.7050(2) 0.7341(4)
O25 O 0.4500(2) 0.67142(18) 0.6227(4)
O26 O 0.1791(2) 0.6734(2) 0.6402(4)
O27 O 0.2236(2) 0.70548(18) 0.7491(4)
O30 O 0.4473(3) 0.37869(18) 0.3332(5)
O31 O 0.38878(16) 0.30588(14) 0.2883(3)
H24 H 0.367482 0.330071 0.301815
O32 O 0.4827(5) 0.3311(5) 0.0484(9)
O33 O 0.4169(2) 0.37992(18) 0.1931(4)
O34 O 0.5132(4) 0.6338(3) 0.4961(7)
C39 C 0.4117(3) 0.6830(2) 0.6646(6)
C40 C 0.3610(3) 0.6698(3) 0.6297(5)
C41 C 0.3586(3) 0.6446(2) 0.5509(5)
H25 H 0.388669 0.634378 0.525298
C42 C 0.2687(3) 0.6485(2) 0.5553(5)
H26 H 0.237162 0.641304 0.530296
C43 C 0.2690(3) 0.6723(3) 0.6339(5)
C44 C 0.2206(3) 0.6851(2) 0.6771(6)
C45 C 0.3168(3) 0.6818(3) 0.6699(6)
H27 H 0.318495 0.697023 0.723446
C46 C 0.3085(3) 0.6118(3) 0.4264(6)
C47 C 0.3334(3) 0.5743(3) 0.4139(6)
H28 H 0.354515 0.563973 0.459497
C48 C 0.3272(3) 0.5528(3) 0.3361(6)
C49 C 0.2954(3) 0.5681(3) 0.2667(6)
H29 H 0.290621 0.553004 0.213510
C50 C 0.2714(3) 0.6056(3) 0.2781(6)
C51 C 0.2421(4) 0.6239(3) 0.2015(6)
C52 C 0.2077(4) 0.6013(3) 0.1538(6)
H30 H 0.203088 0.573438 0.167148
C53 C 0.1795(4) 0.6196(3) 0.0849(6)
H31 H 0.154505 0.604357 0.054731
C54 C 0.1878(4) 0.6592(3) 0.0610(6)
C55 C 0.2234(4) 0.6824(3) 0.1082(6)
H32 H 0.229898 0.709657 0.092000
C56 C 0.2489(4) 0.6646(3) 0.1790(6)
H33 H 0.271620 0.680536 0.212963
C58 C 0.2780(3) 0.6271(3) 0.3589(5)
H34 H 0.261440 0.652234 0.367191
C59 C 0.3551(5) 0.5133(3) 0.3190(7)
C60 C 0.3650(5) 0.4990(3) 0.2321(7)
H35 H 0.355823 0.515319 0.182689
C61 C 0.3877(5) 0.4620(3) 0.2169(7)
H36 H 0.393243 0.453355 0.157346
C62 C 0.4025(5) 0.4372(3) 0.2862(7)
C63 C 0.4247(4) 0.3951(3) 0.2685(6)
C64 C 0.5282(7) 0.3224(7) 0.0363(13)
O35 O 0.3848(5) 0.3676(5) 0.0158(7)
C71 C 0.3962(5) 0.4512(3) 0.3726(7)
H41 H 0.407138 0.435267 0.421513
C72 C 0.3737(5) 0.4893(3) 0.3878(7)
H42 H 0.371106 0.498905 0.447161
C73 C 0.3124(3) 0.6352(3) 0.5126(5)
F2 F 0.6389(4) 0.3410(4) 0.0199(7)
O36 O 0.47933(17) 0.30499(14) 0.2328(3)
H43 H 0.500788 0.329104 0.219415
Eu8 Eu 0.46021(2) 0.18822(2) 0.38940(3)
Eu11 Eu 0.16329(2) 0.750000 0.82011(4)
Eu12 Eu 0.33671(2) 0.250000 0.32011(4)
Eu15 Eu 0.46923(2) 0.750000 0.80122(4)
Eu16 Eu 0.40879(2) 0.18758(2) 0.13435(3)
Eu17 Eu 0.90879(2) 0.31242(2) 0.36565(3)
Eu18 Eu 0.59121(2) 0.81242(2) 0.86565(3)
Eu19 Eu 0.09121(2) 0.68758(2) 0.63435(3)
O37 O 0.5871(2) 0.750000 0.5958(4)
O38 O 0.4962(2) 0.750000 0.6508(4)
O39 O 0.52067(17) 0.69501(14) 0.7672(3)
O40 O 0.5549(5) 0.2048(5) 0.0769(10)
O41 O 0.5891(2) 0.2050(2) 0.2659(4)
O42 O 0.6791(2) 0.6734(2) 0.8598(4)
O43 O 0.3209(2) 0.3266(2) 0.1402(4)
O44 O 0.7236(2) 0.70548(18) 0.7509(4)
O45 O 0.7236(2) 0.79452(18) 0.7509(4)
O46 O 0.6143(2) 0.6683(2) 0.5280(4)
O47 O 0.3857(2) 0.3317(2) 0.4720(4)
O48 O 0.6831(2) 0.7055(2) 0.5599(4)
O49 O 0.6831(2) 0.7945(2) 0.5599(4)
O50 O 0.61122(16) 0.80588(14) 0.7117(3)
O51 O 0.4564(2) 0.250000 0.1115(4)
O52 O 0.3668(2) 0.250000 0.1705(4)
O53 O 0.5176(4) 0.7156(3) 0.4670(6)
H46 H 0.652715 0.631119 0.990341
H51 H 0.453509 0.265227 0.697021
H52 H 0.48825 0.218594 0.694029
H53 H 0.520949 0.266178 0.691213
H54 H 0.397826 0.394655 0.0355629
O28 O 0.1143(2) 0.6683(2) 0.9720(4)
O29 O 0.1831(2) 0.7055(2) 0.9401(4)
C57 C 0.1593(4) 0.6788(3) 0.9847(6)
C65 C 0.5516(4) 0.3469(4) 0.9618(7)
C66 C 0.6037(4) 0.3527(3) 0.9537(6)
C67 C 0.6235(3) 0.3709(4) 0.8769(8)
H37 H 0.658731 0.374818 0.871385
C68 C 0.5912(4) 0.3833(5) 0.8081(7)
H38 H 0.604625 0.395599 0.756105
C69 C 0.5391(4) 0.3775(4) 0.8162(7)
H39 H 0.517311 0.385849 0.769652
C70 C 0.5193(3) 0.3593(5) 0.8930(9)
H40 H 0.484104 0.355318 0.898480
Eu7 Eu 0.03979(2) 0.68822(2) 0.88940(3)
O54 O 0.3824(6) 0.2898(7) 0.9912(7)
H55 H 0.400126 0.360341 0.956896
Eu3_2 Eu 0.03077(2) 0.250000 0.30122(4)
O2_2 O 0.0038(2) 0.250000 0.1508(4)
H2_2 H 0.000788 0.329104 0.280585
O5_2 O 0.0891(2) 0.2050(2) 0.2341(4)
O6_2 O 0.0500(2) 0.17142(18) 0.1227(4)
O7_2 O 0.3209(2) 0.1734(2) 0.1402(4)
O8_2 O 0.2764(2) 0.20548(18) 0.2491(4)
C1_2 C 0.0883(3) 0.1830(2) 0.1646(6)
C2_2 C 0.1390(3) 0.1698(3) 0.1297(5)
C3_2 C 0.1414(3) 0.1446(2) 0.0509(5)
H6_2 H 0.111331 0.134378 0.025298
C4_2 C 0.2313(3) 0.1485(2) 0.0553(5)
H7_2 H 0.262838 0.141304 0.030296
C5_2 C 0.2310(3) 0.1723(3) 0.1339(5)
C6_2 C 0.2794(3) 0.1851(2) 0.1771(6)
C7_2 C 0.1832(3) 0.1818(3) 0.1699(6)
H8_2 H 0.181505 0.197023 0.223446
C36_2 C 0.1876(3) 0.1352(3) 0.0126(5)
O23_2 O 0.0549(5) 0.2048(5) 0.4231(10)
C64_2 C 0.0282(7) 0.1776(7) 0.4637(13)
C65_2 C 0.0516(4) 0.1531(4) 0.5382(7)
C66_2 C 0.1037(4) 0.1473(3) 0.5463(6)
C67_2 C 0.1235(3) 0.1291(4) 0.6231(8)
H37_2 H 0.158731 0.125182 0.628615
C68_2 C 0.0912(4) 0.1167(5) 0.6919(7)
H38_2 H 0.104625 0.104401 0.743895
C69_2 C 0.0391(4) 0.1225(4) 0.6838(7)
H39_2 H 0.017311 0.114151 0.730348
C70_2 C 0.0193(3) 0.1407(5) 0.6070(9)
F2_2 F 0.1389(4) 0.1590(4) 0.4801(7)
H43_2 H 0.000788 0.170896 0.280585
O40_2 O 0.0549(5) 0.2952(5) 0.4231(10)
O41_2 O 0.0891(2) 0.2950(2) 0.2341(4)
H45 H 0.00650216 0.112036 0.02698
O9_2 O 0.3857(2) 0.1683(2) 0.4720(4)
O10_2 O 0.3169(2) 0.2055(2) 0.4401(4)
C8_2 C 0.1915(3) 0.1118(3) 0.9264(6)
C9_2 C 0.1666(3) 0.0743(3) 0.9139(6)
H9_2 H 0.145485 0.063973 0.959497
C10_2 C 0.1728(3) 0.0528(3) 0.8361(6)
C11_2 C 0.2046(3) 0.0681(3) 0.7667(6)
H10_2 H 0.209379 0.053004 0.713510
C12_2 C 0.2286(3) 0.1056(3) 0.7781(6)
C13_2 C 0.2579(4) 0.1239(3) 0.7015(6)
C14_2 C 0.2923(4) 0.1013(3) 0.6538(6)
H11_2 H 0.296912 0.073438 0.667148
C15_2 C 0.3205(4) 0.1196(3) 0.5849(6)
H12_2 H 0.345495 0.104357 0.554731
C16_2 C 0.3122(4) 0.1592(3) 0.5610(6)
C17_2 C 0.2766(4) 0.1824(3) 0.6082(6)
H13_2 H 0.270102 0.209657 0.592000
C18_2 C 0.2511(4) 0.1646(3) 0.6790(6)
H14_2 H 0.228380 0.180536 0.712963
C19_2 C 0.3407(4) 0.1788(3) 0.4847(6)
C20_2 C 0.2220(3) 0.1271(3) 0.8589(5)
H15_2 H 0.238560 0.152234 0.867191
C21_2 C 0.1449(5) 0.0133(3) 0.8190(7)
H16_2 H 0.144177 0.015319 0.682689
H44 H 0.00815683 0.146595 0.948784
H53_2 H 0.0209492 0.233822 0.808787
O34_2 O 0.0132(4) 0.8662(3) 0.0039(7)
O53_2 O 0.0176(4) 0.7844(3) 0.0330(6)
H49 H 0.000414508 0.852641 0.0592147
Eu4_2 Eu 0.09121(2) 0.81242(2) 0.63435(3)
O11_2 O 0.0527(3) 0.87869(18) 0.8332(5)
O12_2 O 0.11122(16) 0.80588(14) 0.7883(3)
H3_2 H 0.132518 0.830071 0.801815
O13_2 O 0.0173(5) 0.8311(5) 0.5484(9)
O14_2 O 0.0436(2) 0.750000 0.6115(4)
H4_2 H 0.032624 0.750000 0.547752
O15_2 O 0.1332(2) 0.750000 0.6705(4)
H5_2 H 0.164174 0.750000 0.632865
O16_2 O 0.0831(2) 0.87992(18) 0.6931(4)
C22_2 C 0.1350(5) 0.9990(3) 0.7321(7)
C23_2 C 0.1123(5) 0.9620(3) 0.7169(7)
H17_2 H 0.106757 0.953355 0.657346
C24_2 C 0.0975(5) 0.9372(3) 0.7862(7)
C25_2 C 0.0753(4) 0.8951(3) 0.7685(6)
H21_2 H 0.015896 0.855318 0.398480
O19_2 O 0.1176(6) 0.7898(7) 0.4912(7)
O20_2 O 0.1152(5) 0.8676(5) 0.5158(7)
C33_2 C 0.1038(5) 0.9512(3) 0.8726(7)
H22_2 H 0.092862 0.935267 0.921513
C34_2 C 0.1263(5) 0.9893(3) 0.8878(7)
H23_2 H 0.128894 0.998905 0.947161
C38_2 C 0.1152(13) 0.750000 0.4431(18)
O22_2 O 0.1176(6) 0.7102(7) 0.4912(7)
Eu5_2 Eu 0.03979(2) 0.81178(2) 0.88940(3)
O37_2 O 0.0871(2) 0.750000 0.9042(4)
O39_2 O 0.02067(17) 0.80499(14) 0.7328(3)
O42_2 O 0.1791(2) 0.8266(2) 0.6402(4)
O44_2 O 0.2236(2) 0.79452(18) 0.7491(4)
O46_2 O 0.1143(2) 0.8317(2) 0.9720(4)
O48_2 O 0.1831(2) 0.7945(2) 0.9401(4)
O50_2 O 0.11122(16) 0.69412(14) 0.7883(3)
H50_2 H 0.111559 0.75 0.370134
Eu1_2 Eu 0.96021(2) 0.18822(2) 0.11060(3)
O1_2 O 0.9129(2) 0.250000 0.0958(4)
H1_2 H 0.901502 0.250000 0.032330
O3_2 O 0.97933(17) 0.30499(14) 0.2672(3)
Eu6_2 Eu 0.90879(2) 0.18758(2) 0.36565(3)
O30_2 O 0.9473(3) 0.12131(18) 0.1668(5)
O31_2 O 0.88878(16) 0.19412(14) 0.2117(3)
H24_2 H 0.867482 0.169929 0.198185
O32_2 O 0.9827(5) 0.1689(5) 0.4516(9)
O33_2 O 0.9169(2) 0.12008(18) 0.3069(4)
C60_2 C 0.8650(5) 0.0010(3) 0.2679(7)
C61_2 C 0.8877(5) 0.0380(3) 0.2831(7)
H36_2 H 0.893243 0.046645 0.342654
C62_2 C 0.9025(5) 0.0628(3) 0.2138(7)
C63_2 C 0.9247(4) 0.1049(3) 0.2315(6)
H40_2 H 0.984104 0.144682 0.601520
O35_2 O 0.8848(5) 0.1324(5) 0.4842(7)
C71_2 C 0.8962(5) 0.0488(3) 0.1274(7)
H41_2 H 0.907138 0.064733 0.078487
C72_2 C 0.8737(5) 0.0107(3) 0.1122(7)
H42_2 H 0.871106 0.001095 0.052839
O36_2 O 0.97933(17) 0.19501(14) 0.2672(3)
O43_2 O 0.8209(2) 0.1734(2) 0.3598(4)
O47_2 O 0.8857(2) 0.1683(2) 0.0280(4)
O51_2 O 0.9564(2) 0.250000 0.3885(4)
O52_2 O 0.8668(2) 0.250000 0.3295(4)
O54_2 O 0.8824(6) 0.2102(7) 0.5088(7)
O17_2 O 0.9868(4) 0.1338(3) 0.9961(7)
O18_2 O 0.9824(4) 0.2156(3) 0.9670(6)
C35_2 C 0.9841(8) 0.250000 0.9323(10)
C37_2 C 0.9869(8) 0.250000 0.8303(10)
O21_2 O 0.9824(4) 0.2844(3) 0.9670(6)
H51_2 H 0.953509 0.234773 0.802979
H52_2 H 0.98825 0.281406 0.805971
O28_2 O 0.6143(2) 0.8317(2) 0.5280(4)
C46_2 C 0.8085(3) 0.8882(3) 0.0736(6)
C47_2 C 0.8334(3) 0.9257(3) 0.0861(6)
H28_2 H 0.854515 0.936027 0.040503
C48_2 C 0.8272(3) 0.9472(3) 0.1639(6)
C49_2 C 0.7954(3) 0.9319(3) 0.2333(6)
H29_2 H 0.790621 0.946996 0.286490
C50_2 C 0.7714(3) 0.8944(3) 0.2219(6)
C51_2 C 0.7421(4) 0.8761(3) 0.2985(6)
C52_2 C 0.7077(4) 0.8987(3) 0.3462(6)
H30_2 H 0.703088 0.926562 0.332852
C53_2 C 0.6795(4) 0.8804(3) 0.4151(6)
H31_2 H 0.654505 0.895643 0.445269
C54_2 C 0.6878(4) 0.8408(3) 0.4390(6)
C55_2 C 0.7234(4) 0.8176(3) 0.3918(6)
H32_2 H 0.729898 0.790343 0.408000
C56_2 C 0.7489(4) 0.8354(3) 0.3210(6)
H33_2 H 0.771620 0.819464 0.287037
C57_2 C 0.6593(4) 0.8212(3) 0.5153(6)
C58_2 C 0.7780(3) 0.8729(3) 0.1411(5)
H34_2 H 0.761440 0.847766 0.132809
C59_2 C 0.8551(5) 0.9867(3) 0.1810(7)
H35_2 H 0.855823 0.984681 0.317311
Eu7_2 Eu 0.53979(2) 0.81178(2) 0.61060(3)
O4_2 O 0.9451(5) 0.7952(5) 0.5769(10)
C26_2 C 0.9718(7) 0.8224(7) 0.5363(13)
C27_2 C 0.9484(4) 0.8469(4) 0.4618(7)
C28_2 C 0.8963(4) 0.8527(3) 0.4537(6)
C29_2 C 0.8765(3) 0.8709(4) 0.3769(8)
H18_2 H 0.841269 0.874818 0.371385
C30_2 C 0.9088(4) 0.8833(5) 0.3081(7)
H19_2 H 0.895375 0.895599 0.256105
C31_2 C 0.9609(4) 0.8775(4) 0.3162(7)
H20_2 H 0.982689 0.885849 0.269652
C32_2 C 0.9807(3) 0.8593(5) 0.3930(9)
F1_2 F 0.8611(4) 0.8410(4) 0.5199(7)
O24_2 O 0.9109(2) 0.7950(2) 0.7659(4)
O25_2 O 0.9500(2) 0.82858(18) 0.8773(4)
O26_2 O 0.6791(2) 0.8266(2) 0.8598(4)
C39_2 C 0.9117(3) 0.8170(2) 0.8354(6)
C40_2 C 0.8610(3) 0.8302(3) 0.8703(5)
C41_2 C 0.8586(3) 0.8554(2) 0.9491(5)
H25_2 H 0.888669 0.865622 0.974702
C42_2 C 0.7687(3) 0.8515(2) 0.9447(5)
H26_2 H 0.737162 0.858696 0.969704
C43_2 C 0.7690(3) 0.8277(3) 0.8661(5)
C44_2 C 0.7206(3) 0.8149(2) 0.8229(6)
C45_2 C 0.8168(3) 0.8182(3) 0.8301(6)
H27_2 H 0.818495 0.802977 0.776554
C73_2 C 0.8124(3) 0.8648(3) 0.9874(5)
Eu15_2 Eu 0.96923(2) 0.750000 0.69878(4)
O38_2 O 0.9962(2) 0.750000 0.8492(4)
H48 H 0.985949 0.883507 0.97776
O29_2 O 0.8169(2) 0.2055(2) 0.0599(4)
C57_3 C 0.8407(4) 0.1788(3) 0.0153(6)
O11_3 O 0.4473(3) 0.12131(18) 0.3332(5)
O12_3 O 0.38878(16) 0.19412(14) 0.2883(3)
H3_3 H 0.367482 0.169929 0.301815
O13_3 O 0.4827(5) 0.1689(5) 0.0484(9)
H4_3 H 0.467376 0.250000 0.047752
H5_3 H 0.335826 0.250000 0.132865
O16_3 O 0.4169(2) 0.12008(18) 0.1931(4)
C22_3 C 0.3650(5) 0.0010(3) 0.2321(7)
C23_3 C 0.3877(5) 0.0380(3) 0.2169(7)
H17_3 H 0.393243 0.046645 0.157346
C24_3 C 0.4025(5) 0.0628(3) 0.2862(7)
C25_3 C 0.4247(4) 0.1049(3) 0.2685(6)
C26_3 C 0.5282(7) 0.1776(7) 0.0363(13)
O20_3 O 0.3848(5) 0.1324(5) 0.0158(7)
C33_3 C 0.3962(5) 0.0488(3) 0.3726(7)
H22_3 H 0.407138 0.064733 0.421513
C34_3 C 0.3737(5) 0.0107(3) 0.3878(7)
H23_3 H 0.371106 0.001095 0.447161
F1_3 F 0.6389(4) 0.1590(4) 0.0199(7)
O25_3 O 0.5500(2) 0.17142(18) 0.3773(4)
O27_2 O 0.7764(2) 0.20548(18) 0.2509(4)
O34_3 O 0.4868(4) 0.1338(3) 0.5039(7)
C39_3 C 0.5883(3) 0.1830(2) 0.3354(6)
C40_3 C 0.6390(3) 0.1698(3) 0.3703(5)
C41_3 C 0.6414(3) 0.1446(2) 0.4491(5)
H25_3 H 0.611331 0.134378 0.474702
C42_3 C 0.7313(3) 0.1485(2) 0.4447(5)
H26_3 H 0.762838 0.141304 0.469704
C43_3 C 0.7310(3) 0.1723(3) 0.3661(5)
C44_3 C 0.7794(3) 0.1851(2) 0.3229(6)
C45_3 C 0.6832(3) 0.1818(3) 0.3301(6)
H27_3 H 0.681505 0.197023 0.276554
C46_3 C 0.6915(3) 0.1118(3) 0.5736(6)
C47_3 C 0.6666(3) 0.0743(3) 0.5861(6)
H28_3 H 0.645485 0.063973 0.540503
C48_3 C 0.6728(3) 0.0528(3) 0.6639(6)
C49_3 C 0.7046(3) 0.0681(3) 0.7333(6)
H29_3 H 0.709379 0.053004 0.786490
C50_3 C 0.7286(3) 0.1056(3) 0.7219(6)
C51_3 C 0.7579(4) 0.1239(3) 0.7985(6)
C52_3 C 0.7923(4) 0.1013(3) 0.8462(6)
H30_3 H 0.796912 0.073438 0.832852
C53_3 C 0.8205(4) 0.1196(3) 0.9151(6)
H31_3 H 0.845495 0.104357 0.945269
C54_3 C 0.8122(4) 0.1592(3) 0.9390(6)
C55_3 C 0.7766(4) 0.1824(3) 0.8918(6)
H32_3 H 0.770102 0.209657 0.908000
C56_3 C 0.7511(4) 0.1646(3) 0.8210(6)
H33_3 H 0.728380 0.180536 0.787037
C58_3 C 0.7220(3) 0.1271(3) 0.6411(5)
H34_3 H 0.738560 0.152234 0.632809
C59_3 C 0.6449(5) 0.0133(3) 0.6810(7)
H35_3 H 0.644177 0.015319 0.817311
C73_3 C 0.6876(3) 0.1352(3) 0.4874(5)
O45_2 O 0.2764(2) 0.29452(18) 0.2491(4)
O49_2 O 0.3169(2) 0.2945(2) 0.4401(4)
H46_2 H 0.347285 0.131119 0.00965919
C27_3 C 0.5516(4) 0.1531(4) 0.9618(7)
C28_3 C 0.6037(4) 0.1473(3) 0.9537(6)
C29_3 C 0.6235(3) 0.1291(4) 0.8769(8)
H18_3 H 0.658731 0.125182 0.871385
C30_3 C 0.5912(4) 0.1167(5) 0.8081(7)
H19_3 H 0.604625 0.104401 0.756105
C31_3 C 0.5391(4) 0.1225(4) 0.8162(7)
H20_3 H 0.517311 0.114151 0.769652
C32_3 C 0.5193(3) 0.1407(5) 0.8930(9)
H21_3 H 0.484104 0.144682 0.898480
O19_3 O 0.3824(6) 0.2102(7) 0.9912(7)
C38_3 C 0.3848(13) 0.250000 0.9431(18)
H47_2 H 0.400126 0.139659 0.956896
H50_3 H 0.388441 0.25 0.870134
C65_3 C 0.4484(4) 0.8469(4) 0.0382(7)
C66_3 C 0.3963(4) 0.8527(3) 0.0463(6)
C67_3 C 0.3765(3) 0.8709(4) 0.1231(8)
H37_3 H 0.341269 0.874818 0.128615
C68_3 C 0.4088(4) 0.8833(5) 0.1919(7)
H38_3 H 0.395375 0.895599 0.243895
C69_3 C 0.4609(4) 0.8775(4) 0.1838(7)
H39_3 H 0.482689 0.885849 0.230348
C70_3 C 0.4807(3) 0.8593(5) 0.1070(9)
H40_3 H 0.515896 0.855318 0.101520
H55_2 H 0.599874 0.860341 0.0431037
H1_3 H 0.598498 0.750000 0.532330
H2_3 H 0.499212 0.670896 0.780585
O5_3 O 0.4109(2) 0.7950(2) 0.7341(4)
O6_3 O 0.4500(2) 0.82858(18) 0.6227(4)
O17_3 O 0.5132(4) 0.8662(3) 0.4961(7)
O18_3 O 0.5176(4) 0.7844(3) 0.4670(6)
C1_3 C 0.4117(3) 0.8170(2) 0.6646(6)
C2_3 C 0.3610(3) 0.8302(3) 0.6297(5)
C3_3 C 0.3586(3) 0.8554(2) 0.5509(5)
H6_3 H 0.388669 0.865622 0.525298
C4_3 C 0.2687(3) 0.8515(2) 0.5553(5)
H7_3 H 0.237162 0.858696 0.530296
C5_3 C 0.2690(3) 0.8277(3) 0.6339(5)
C6_3 C 0.2206(3) 0.8149(2) 0.6771(6)
C7_3 C 0.3168(3) 0.8182(3) 0.6699(6)
H8_3 H 0.318495 0.802977 0.723446
C8_3 C 0.3085(3) 0.8882(3) 0.4264(6)
C9_3 C 0.3334(3) 0.9257(3) 0.4139(6)
H9_3 H 0.354515 0.936027 0.459497
C10_3 C 0.3272(3) 0.9472(3) 0.3361(6)
C11_3 C 0.2954(3) 0.9319(3) 0.2667(6)
H10_3 H 0.290621 0.946996 0.213510
C12_3 C 0.2714(3) 0.8944(3) 0.2781(6)
C13_3 C 0.2421(4) 0.8761(3) 0.2015(6)
C14_3 C 0.2077(4) 0.8987(3) 0.1538(6)
H11_3 H 0.203088 0.926562 0.167148
C15_3 C 0.1795(4) 0.8804(3) 0.0849(6)
H12_3 H 0.154505 0.895643 0.054731
C16_3 C 0.1878(4) 0.8408(3) 0.0610(6)
C17_3 C 0.2234(4) 0.8176(3) 0.1082(6)
H13_3 H 0.229898 0.790343 0.092000
C18_3 C 0.2489(4) 0.8354(3) 0.1790(6)
H14_3 H 0.271620 0.819464 0.212963
C20_3 C 0.2780(3) 0.8729(3) 0.3589(5)
H15_3 H 0.261440 0.847766 0.367191
C21_3 C 0.3551(5) 0.9867(3) 0.3190(7)
H16_3 H 0.355823 0.984681 0.182689
C35_3 C 0.5159(8) 0.750000 0.4323(10)
C36_3 C 0.3124(3) 0.8648(3) 0.5126(5)
C37_3 C 0.5131(8) 0.750000 0.3303(10)
O23_3 O 0.4451(5) 0.7952(5) 0.9231(10)
O30_3 O 0.5527(3) 0.87869(18) 0.6668(5)
H24_3 H 0.632518 0.830071 0.698185
O32_3 O 0.5173(5) 0.8311(5) 0.9516(9)
O33_3 O 0.5831(2) 0.87992(18) 0.8069(4)
C60_3 C 0.6350(5) 0.9990(3) 0.7679(7)
C61_3 C 0.6123(5) 0.9620(3) 0.7831(7)
H36_3 H 0.606757 0.953355 0.842654
C62_3 C 0.5975(5) 0.9372(3) 0.7138(7)
C63_3 C 0.5753(4) 0.8951(3) 0.7315(6)
C64_3 C 0.4718(7) 0.8224(7) 0.9637(13)
O35_3 O 0.6152(5) 0.8676(5) 0.9842(7)
C71_3 C 0.6038(5) 0.9512(3) 0.6274(7)
H41_3 H 0.592862 0.935267 0.578487
C72_3 C 0.6263(5) 0.9893(3) 0.6122(7)
H42_3 H 0.628894 0.998905 0.552839
F2_3 F 0.3611(4) 0.8410(4) 0.9801(7)
O36_3 O 0.52067(17) 0.80499(14) 0.7672(3)
H43_3 H 0.499212 0.829104 0.780585
H51_3 H 0.546491 0.765227 0.302979
H52_3 H 0.51175 0.718594 0.305971
H53_3 H 0.479051 0.766178 0.308787
H54_2 H 0.602174 0.894655 0.964437
C19_3 C 0.1593(4) 0.8212(3) 0.9847(6)
O17_4 O 0.0132(4) 0.6338(3) 0.0039(7)
O18_4 O 0.0176(4) 0.7156(3) 0.0330(6)
C26_4 C 0.0282(7) 0.3224(7) 0.4637(13)
C27_4 C 0.0516(4) 0.3469(4) 0.5382(7)
C28_4 C 0.1037(4) 0.3527(3) 0.5463(6)
C29_4 C 0.1235(3) 0.3709(4) 0.6231(8)
H18_4 H 0.158731 0.374818 0.628615
C30_4 C 0.0912(4) 0.3833(5) 0.6919(7)
H19_4 H 0.104625 0.395599 0.743895
C31_4 C 0.0391(4) 0.3775(4) 0.6838(7)
H20_4 H 0.017311 0.385849 0.730348
C32_4 C 0.0193(3) 0.3593(5) 0.6070(9)
C35_4 C 0.0159(8) 0.750000 0.0677(10)
C37_4 C 0.0131(8) 0.750000 0.1697(10)
F1_4 F 0.1389(4) 0.3410(4) 0.4801(7)
O25_4 O 0.0500(2) 0.32858(18) 0.1227(4)
C39_4 C 0.0883(3) 0.3170(2) 0.1646(6)
C40_4 C 0.1390(3) 0.3302(3) 0.1297(5)
C41_4 C 0.1414(3) 0.3554(2) 0.0509(5)
H25_4 H 0.111331 0.365622 0.025298
C42_4 C 0.2313(3) 0.3515(2) 0.0553(5)
H26_4 H 0.262838 0.358696 0.030296
C43_4 C 0.2310(3) 0.3277(3) 0.1339(5)
C44_4 C 0.2794(3) 0.3149(2) 0.1771(6)
C45_4 C 0.1832(3) 0.3182(3) 0.1699(6)
H27_4 H 0.181505 0.302977 0.223446
C73_4 C 0.1876(3) 0.3648(3) 0.0126(5)
H48_2 H 0.0140513 0.383507 0.0222399
H51_4 H 0.0464911 0.734773 0.197021
H52_4 H 0.0117497 0.781406 0.194029
H1_4 H 0.098498 0.750000 0.967670
O30_4 O 0.0527(3) 0.62131(18) 0.8332(5)
H24_4 H 0.132518 0.669929 0.801815
O32_4 O 0.0173(5) 0.6689(5) 0.5484(9)
O33_4 O 0.0831(2) 0.62008(18) 0.6931(4)
C46_4 C 0.1915(3) 0.3882(3) 0.9264(6)
C47_4 C 0.1666(3) 0.4257(3) 0.9139(6)
H28_4 H 0.145485 0.436027 0.959497
C48_4 C 0.1728(3) 0.4472(3) 0.8361(6)
C49_4 C 0.2046(3) 0.4319(3) 0.7667(6)
H29_4 H 0.209379 0.446996 0.713510
C50_4 C 0.2286(3) 0.3944(3) 0.7781(6)
C51_4 C 0.2579(4) 0.3761(3) 0.7015(6)
C52_4 C 0.2923(4) 0.3987(3) 0.6538(6)
H30_4 H 0.296912 0.426562 0.667148
C53_4 C 0.3205(4) 0.3804(3) 0.5849(6)
H31_4 H 0.345495 0.395643 0.554731
C54_4 C 0.3122(4) 0.3408(3) 0.5610(6)
C55_4 C 0.2766(4) 0.3176(3) 0.6082(6)
H32_4 H 0.270102 0.290343 0.592000
C56_4 C 0.2511(4) 0.3354(3) 0.6790(6)
H33_4 H 0.228380 0.319464 0.712963
C57_4 C 0.3407(4) 0.3212(3) 0.4847(6)
C58_4 C 0.2220(3) 0.3729(3) 0.8589(5)
H34_4 H 0.238560 0.347766 0.867191
C59_4 C 0.1449(5) 0.4867(3) 0.8190(7)
C60_4 C 0.1350(5) 0.5010(3) 0.7321(7)
H35_4 H 0.144177 0.484681 0.682689
C61_4 C 0.1123(5) 0.5380(3) 0.7169(7)
H36_4 H 0.106757 0.546645 0.657346
C62_4 C 0.0975(5) 0.5628(3) 0.7862(7)
C63_4 C 0.0753(4) 0.6049(3) 0.7685(6)
H40_4 H 0.015896 0.644682 0.398480
O35_4 O 0.1152(5) 0.6324(5) 0.5158(7)
C71_4 C 0.1038(5) 0.5488(3) 0.8726(7)
H41_4 H 0.092862 0.564733 0.921513
C72_4 C 0.1263(5) 0.5107(3) 0.8878(7)
H42_4 H 0.128894 0.501095 0.947161
O36_4 O 0.02067(17) 0.69501(14) 0.7328(3)
O11_4 O 0.9473(3) 0.37869(18) 0.1668(5)
O12_4 O 0.88878(16) 0.30588(14) 0.2117(3)
H3_4 H 0.867482 0.330071 0.198185
O13_4 O 0.9827(5) 0.3311(5) 0.4516(9)
H4_4 H 0.967376 0.250000 0.452248
H5_4 H 0.835826 0.250000 0.367135
O16_4 O 0.9169(2) 0.37992(18) 0.3069(4)
C8_4 C 0.8085(3) 0.6118(3) 0.0736(6)
C9_4 C 0.8334(3) 0.5743(3) 0.0861(6)
H9_4 H 0.854515 0.563973 0.040503
C10_4 C 0.8272(3) 0.5528(3) 0.1639(6)
C11_4 C 0.7954(3) 0.5681(3) 0.2333(6)
H10_4 H 0.790621 0.553004 0.286490
C12_4 C 0.7714(3) 0.6056(3) 0.2219(6)
C13_4 C 0.7421(4) 0.6239(3) 0.2985(6)
C14_4 C 0.7077(4) 0.6013(3) 0.3462(6)
H11_4 H 0.703088 0.573438 0.332852
C15_4 C 0.6795(4) 0.6196(3) 0.4151(6)
H12_4 H 0.654505 0.604357 0.445269
C16_4 C 0.6878(4) 0.6592(3) 0.4390(6)
C17_4 C 0.7234(4) 0.6824(3) 0.3918(6)
H13_4 H 0.729898 0.709657 0.408000
C18_4 C 0.7489(4) 0.6646(3) 0.3210(6)
H14_4 H 0.771620 0.680536 0.287037
C19_4 C 0.6593(4) 0.6788(3) 0.5153(6)
C20_4 C 0.7780(3) 0.6271(3) 0.1411(5)
H15_4 H 0.761440 0.652234 0.132809
C21_4 C 0.8551(5) 0.5133(3) 0.1810(7)
C22_4 C 0.8650(5) 0.4990(3) 0.2679(7)
H16_4 H 0.855823 0.515319 0.317311
C23_4 C 0.8877(5) 0.4620(3) 0.2831(7)
H17_4 H 0.893243 0.453355 0.342654
C24_4 C 0.9025(5) 0.4372(3) 0.2138(7)
C25_4 C 0.9247(4) 0.3951(3) 0.2315(6)
H21_4 H 0.984104 0.355318 0.601520
O19_4 O 0.8824(6) 0.2898(7) 0.5088(7)
O20_4 O 0.8848(5) 0.3676(5) 0.4842(7)
C33_4 C 0.8962(5) 0.4512(3) 0.1274(7)
H22_4 H 0.907138 0.435267 0.078487
C34_4 C 0.8737(5) 0.4893(3) 0.1122(7)
H23_4 H 0.871106 0.498905 0.052839
C38_4 C 0.8848(13) 0.250000 0.5569(18)
H44_2 H 0.991843 0.646595 0.0512158
H50_4 H 0.888441 0.25 0.629866
H53_4 H 0.979051 0.733822 0.191213
H2_4 H 0.999212 0.829104 0.719415
O5_4 O 0.9109(2) 0.7050(2) 0.7659(4)
O6_4 O 0.9500(2) 0.67142(18) 0.8773(4)
C1_4 C 0.9117(3) 0.6830(2) 0.8354(6)
C2_4 C 0.8610(3) 0.6698(3) 0.8703(5)
C3_4 C 0.8586(3) 0.6446(2) 0.9491(5)
H6_4 H 0.888669 0.634378 0.974702
C4_4 C 0.7687(3) 0.6485(2) 0.9447(5)
H7_4 H 0.737162 0.641304 0.969704
C5_4 C 0.7690(3) 0.6723(3) 0.8661(5)
C6_4 C 0.7206(3) 0.6851(2) 0.8229(6)
C7_4 C 0.8168(3) 0.6818(3) 0.8301(6)
H8_4 H 0.818495 0.697023 0.776554
C36_4 C 0.8124(3) 0.6352(3) 0.9874(5)
O23_4 O 0.9451(5) 0.7048(5) 0.5769(10)
O34_4 O 0.9868(4) 0.3662(3) 0.9961(7)
C64_4 C 0.9718(7) 0.6776(7) 0.5363(13)
C65_4 C 0.9484(4) 0.6531(4) 0.4618(7)
C66_4 C 0.8963(4) 0.6473(3) 0.4537(6)
C67_4 C 0.8765(3) 0.6291(4) 0.3769(8)
H37_4 H 0.841269 0.625182 0.371385
C68_4 C 0.9088(4) 0.6167(5) 0.3081(7)
H38_4 H 0.895375 0.604401 0.256105
C69_4 C 0.9609(4) 0.6225(4) 0.3162(7)
H39_4 H 0.982689 0.614151 0.269652
C70_4 C 0.9807(3) 0.6407(5) 0.3930(9)
F2_4 F 0.8611(4) 0.6590(4) 0.5199(7)
H43_4 H 0.999212 0.670896 0.719415
H45_2 H 0.993498 0.612036 0.97302
H49_2 H 0.999585 0.352641 0.940785
H46_3 H 0.347285 0.368881 0.00965919
H51_5 H 0.546491 0.734773 0.302979
H52_5 H 0.51175 0.781406 0.305971
H53_5 H 0.479051 0.733822 0.308787
H54_3 H 0.602174 0.605345 0.964437
H48_3 H 0.0140513 0.116493 0.0222399
H51_6 H 0.0464911 0.765227 0.197021
H52_6 H 0.0117497 0.718594 0.194029
H49_3 H 0.999585 0.147359 0.940785
H44_3 H 0.991843 0.853405 0.0512158
H53_6 H 0.979051 0.766178 0.191213
H45_3 H 0.993498 0.887964 0.97302
H51_7 H 0.453509 0.234773 0.697021
H52_7 H 0.48825 0.281406 0.694029
H53_7 H 0.520949 0.233822 0.691213
H54_4 H 0.397826 0.105345 0.0355629
H46_4 H 0.652715 0.868881 0.990341
H45_4 H 0.00650216 0.387964 0.02698
H49_4 H 0.000414508 0.647359 0.0592147
H44_4 H 0.00815683 0.353405 0.948784
H53_8 H 0.0209492 0.266178 0.808787
H48_4 H 0.985949 0.616493 0.97776
H51_8 H 0.953509 0.265227 0.802979
H52_8 H 0.98825 0.218594 0.805971
loop_
_geom_bond_atom_site_label_1
_geom_bond_atom_site_label_2
_geom_bond_site_symmetry_1
_geom_bond_site_symmetry_2
O9 C19 1_555 1_555
O10 C19 1_555 1_555
C28 C27 1_555 1_555
C29 C28 1_555 1_555
H18 C29 1_555 1_555
C30 C29 1_555 1_555
H19 C30 1_555 1_555
C31 C30 1_555 1_555
H20 C31 1_555 1_555
C32 C27 1_555 1_555
H21 C32 1_555 1_555
C38 O19 1_555 1_555
O22 C38 1_555 1_555
Eu9 O9 1_555 1_555
Eu14 O10 1_555 1_555
C31 C32 1_555 1_555
C38 H50 1_555 1_555
Eu1 O1 1_555 1_555
Eu2 O12 1_555 1_555
Eu3 O2 1_555 1_555
Eu4 O12 1_555 1_555
O1 H1 1_555 1_555
O2 Eu1 1_555 1_555
O3 Eu3 1_555 1_555
H2 O3 1_555 1_555
O4 C26 1_555 1_555
O5 Eu3 1_555 1_555
O6 Eu1 1_555 1_555
O7 C6 1_555 1_555
O8 C6 1_555 1_555
O11 C25 1_555 1_555
O12 H3 1_555 1_555
O13 Eu4 1_555 1_555
O14 Eu4 1_555 1_555
H4 O14 1_555 1_555
O15 Eu2 1_555 1_555
H5 O15 1_555 1_555
O16 Eu4 1_555 1_555
O17 Eu1 1_555 1_555
O18 Eu1 1_555 1_555
C1 O5 1_555 1_555
C2 C1 1_555 1_555
C3 C2 1_555 1_555
H6 C3 1_555 1_555
C4 H7 1_555 1_555
C5 C4 1_555 1_555
C6 C5 1_555 1_555
C7 C2 1_555 1_555
H8 C7 1_555 1_555
C8 C9 1_555 1_555
C9 H9 1_555 1_555
C10 C9 1_555 1_555
C11 C10 1_555 1_555
H10 C11 1_555 1_555
C12 C11 1_555 1_555
C13 C12 1_555 1_555
C14 C13 1_555 1_555
H11 C14 1_555 1_555
C15 C14 1_555 1_555
H12 C15 1_555 1_555
C16 C15 1_555 1_555
C17 C16 1_555 1_555
H13 C17 1_555 1_555
C18 C13 1_555 1_555
H14 C18 1_555 1_555
C20 C8 1_555 1_555
H15 C20 1_555 1_555
C21 C10 1_555 1_555
C22 C21 1_555 1_555
H16 C22 1_555 1_555
C23 C22 1_555 1_555
H17 C23 1_555 1_555
C24 C23 1_555 1_555
C25 O16 1_555 1_555
C26 O13 1_555 1_555
O20 Eu4 1_555 1_555
C33 C24 1_555 1_555
H22 C33 1_555 1_555
C34 C21 1_555 1_555
H23 C34 1_555 1_555
C35 O18 1_555 1_555
C36 C3 1_555 1_555
C37 C35 1_555 1_555
O21 C35 1_555 1_555
Eu5 O11 1_555 1_555
Eu6 O31 1_555 1_555
O23 Eu3 1_555 1_555
O24 C39 1_555 1_555
O25 Eu5 1_555 1_555
O26 C44 1_555 1_555
O27 C44 1_555 1_555
O30 Eu1 1_555 1_555
O31 Eu1 1_555 1_555
H24 O31 1_555 1_555
O32 Eu6 1_555 1_555
O33 Eu6 1_555 1_555
O34 Eu5 1_555 1_555
C39 O25 1_555 1_555
C40 C39 1_555 1_555
C41 C40 1_555 1_555
H25 C41 1_555 1_555
C42 H26 1_555 1_555
C43 C42 1_555 1_555
C44 C43 1_555 1_555
C45 C40 1_555 1_555
H27 C45 1_555 1_555
C46 C47 1_555 1_555
C47 H28 1_555 1_555
C48 C47 1_555 1_555
C49 C48 1_555 1_555
H29 C49 1_555 1_555
C50 C49 1_555 1_555
C51 C50 1_555 1_555
C52 C51 1_555 1_555
H30 C52 1_555 1_555
C53 C52 1_555 1_555
H31 C53 1_555 1_555
C54 C53 1_555 1_555
C55 C54 1_555 1_555
H32 C55 1_555 1_555
C56 C51 1_555 1_555
H33 C56 1_555 1_555
C58 C46 1_555 1_555
H34 C58 1_555 1_555
C59 C48 1_555 1_555
C60 C59 1_555 1_555
H35 C60 1_555 1_555
C61 C60 1_555 1_555
H36 C61 1_555 1_555
C62 C61 1_555 1_555
C63 O30 1_555 1_555
C64 O23 1_555 1_555
O35 Eu6 1_555 1_555
C71 C62 1_555 1_555
H41 C71 1_555 1_555
C72 C59 1_555 1_555
H42 C72 1_555 1_555
C73 C41 1_555 1_555
O36 Eu1 1_555 1_555
H43 O36 1_555 1_555
Eu8 O1 1_555 1_555
Eu11 O27 1_555 1_555
Eu12 O1 1_555 1_555
Eu14 O8 1_555 1_555
Eu15 O4 1_555 1_555
Eu16 O3 1_555 1_555
Eu17 O7 1_555 1_555
Eu18 O14 1_555 1_555
Eu19 O26 1_555 1_555
O37 Eu2 1_555 1_555
O38 Eu5 1_555 1_555
O39 Eu4 1_555 1_555
O40 Eu3 1_555 1_555
O41 Eu3 1_555 1_555
O42 Eu4 1_555 1_555
O43 Eu6 1_555 1_555
O44 Eu2 1_555 1_555
O45 Eu2 1_555 1_555
O46 Eu5 1_555 1_555
O47 Eu1 1_555 1_555
O48 Eu2 1_555 1_555
O49 Eu2 1_555 1_555
O50 Eu2 1_555 1_555
O51 Eu3 1_555 1_555
O52 Eu6 1_555 1_555
O53 Eu5 1_555 1_555
Eu3 O36 1_555 1_555
Eu4 O15 1_555 1_555
O2 Eu8 1_555 1_555
O3 Eu8 1_555 1_555
O6 C1 1_555 1_555
O12 Eu5 1_555 1_555
O14 Eu15 1_555 1_555
O15 Eu18 1_555 1_555
C4 C36 1_555 1_555
C5 C7 1_555 1_555
C8 C36 1_555 1_555
C12 C20 1_555 1_555
C17 C18 1_555 1_555
C24 C25 1_555 1_555
C33 C34 1_555 1_555
O21 Eu8 1_555 1_555
Eu5 O37 1_555 1_555
Eu5 O39 1_555 1_555
Eu6 O36 1_555 1_555
Eu6 O51 1_555 1_555
O24 Eu15 1_555 1_555
O31 Eu12 1_555 1_555
O32 C64 1_555 1_555
O33 C63 1_555 1_555
C42 C73 1_555 1_555
C43 C45 1_555 1_555
C46 C73 1_555 1_555
C50 C58 1_555 1_555
C55 C56 1_555 1_555
C62 C63 1_555 1_555
C71 C72 1_555 1_555
Eu12 O52 1_555 1_555
Eu15 O38 1_555 1_555
Eu15 O39 1_555 1_555
Eu16 O51 1_555 1_555
Eu16 O52 1_555 1_555
Eu18 O50 1_555 1_555
O20 H46 1_555 1_555
C37 H51 1_555 1_555
C37 H52 1_555 1_555
C37 H53 1_555 1_555
O35 H54 1_555 1_555
O28 C57 1_555 1_555
O29 C57 1_555 1_555
C66 C65 1_555 1_555
C67 C66 1_555 1_555
H37 C67 1_555 1_555
C68 C67 1_555 1_555
H38 C68 1_555 1_555
C69 C68 1_555 1_555
H39 C69 1_555 1_555
C70 C65 1_555 1_555
H40 C70 1_555 1_555
Eu7 O28 1_555 1_555
Eu11 O29 1_555 1_555
C69 C70 1_555 1_555
Eu3_2 O2_2 1_555 1_555
O5_2 Eu3_2 1_555 1_555
O7_2 C6_2 1_555 1_555
O8_2 C6_2 1_555 1_555
C1_2 O5_2 1_555 1_555
C2_2 C1_2 1_555 1_555
C3_2 C2_2 1_555 1_555
H6_2 C3_2 1_555 1_555
C4_2 H7_2 1_555 1_555
C5_2 C4_2 1_555 1_555
C6_2 C5_2 1_555 1_555
C7_2 C2_2 1_555 1_555
H8_2 C7_2 1_555 1_555
C36_2 C3_2 1_555 1_555
O23_2 Eu3_2 1_555 1_555
C64_2 O23_2 1_555 1_555
C65_2 C64_2 1_555 1_555
C66_2 C65_2 1_555 1_555
C67_2 C66_2 1_555 1_555
H37_2 C67_2 1_555 1_555
C68_2 C67_2 1_555 1_555
H38_2 C68_2 1_555 1_555
C69_2 C68_2 1_555 1_555
H39_2 C69_2 1_555 1_555
C70_2 C65_2 1_555 1_555
F2_2 C66_2 1_555 1_555
Eu12 O8_2 1_555 1_555
Eu16 O7_2 1_555 1_555
O40_2 Eu3_2 1_555 1_555
O41_2 Eu3_2 1_555 1_555
O6_2 C1_2 1_555 1_555
C4_2 C36_2 1_555 1_555
C5_2 C7_2 1_555 1_555
C69_2 C70_2 1_555 1_555
O9_2 C19_2 1_555 1_555
O10_2 C19_2 1_555 1_555
C8_2 C9_2 1_555 1_555
C9_2 H9_2 1_555 1_555
C10_2 C9_2 1_555 1_555
C11_2 C10_2 1_555 1_555
H10_2 C11_2 1_555 1_555
C12_2 C11_2 1_555 1_555
C13_2 C12_2 1_555 1_555
C14_2 C13_2 1_555 1_555
H11_2 C14_2 1_555 1_555
C15_2 C14_2 1_555 1_555
H12_2 C15_2 1_555 1_555
C16_2 C15_2 1_555 1_555
C17_2 C16_2 1_555 1_555
H13_2 C17_2 1_555 1_555
C18_2 C13_2 1_555 1_555
H14_2 C18_2 1_555 1_555
C19_2 C16_2 1_555 1_555
C20_2 C8_2 1_555 1_555
H15_2 C20_2 1_555 1_555
C21_2 C10_2 1_555 1_555
Eu8 O9_2 1_555 1_555
Eu12 O10_2 1_555 1_555
C12_2 C20_2 1_555 1_555
C17_2 C18_2 1_555 1_555
O34_2 H49 1_555 1_555
Eu11 O12_2 1_555 1_555
Eu4_2 O12_2 1_555 1_555
O11_2 C25_2 1_555 1_555
O12_2 H3_2 1_555 1_555
O13_2 Eu4_2 1_555 1_555
O14_2 Eu4_2 1_555 1_555
H4_2 O14_2 1_555 1_555
O15_2 Eu11 1_555 1_555
H5_2 O15_2 1_555 1_555
O16_2 Eu4_2 1_555 1_555
C23_2 C22_2 1_555 1_555
H17_2 C23_2 1_555 1_555
C24_2 C23_2 1_555 1_555
C25_2 O16_2 1_555 1_555
O19_2 Eu4_2 1_555 1_555
O20_2 Eu4_2 1_555 1_555
C33_2 C24_2 1_555 1_555
H22_2 C33_2 1_555 1_555
H23_2 C34_2 1_555 1_555
C38_2 O19_2 1_555 1_555
O22_2 C38_2 1_555 1_555
Eu5_2 O11_2 1_555 1_555
Eu19 O14_2 1_555 1_555
O37_2 Eu11 1_555 1_555
O39_2 Eu4_2 1_555 1_555
O42_2 Eu4_2 1_555 1_555
O44_2 Eu11 1_555 1_555
O46_2 Eu5_2 1_555 1_555
O48_2 Eu11 1_555 1_555
O50_2 Eu11 1_555 1_555
Eu4_2 O15_2 1_555 1_555
O12_2 Eu5_2 1_555 1_555
O15_2 Eu19 1_555 1_555
C24_2 C25_2 1_555 1_555
C33_2 C34_2 1_555 1_555
O22_2 Eu19 1_555 1_555
Eu5_2 O37_2 1_555 1_555
Eu5_2 O39_2 1_555 1_555
Eu19 O50_2 1_555 1_555
C38_2 H50_2 1_555 1_555
Eu1_2 O1_2 1_555 1_555
O1_2 H1_2 1_555 1_555
Eu6_2 O31_2 1_555 1_555
O30_2 Eu1_2 1_555 1_555
O31_2 Eu1_2 1_555 1_555
H24_2 O31_2 1_555 1_555
O32_2 Eu6_2 1_555 1_555
O33_2 Eu6_2 1_555 1_555
C61_2 C60_2 1_555 1_555
H36_2 C61_2 1_555 1_555
C62_2 C61_2 1_555 1_555
C63_2 O30_2 1_555 1_555
O35_2 Eu6_2 1_555 1_555
C71_2 C62_2 1_555 1_555
H41_2 C71_2 1_555 1_555
H42_2 C72_2 1_555 1_555
O36_2 Eu1_2 1_555 1_555
Eu9 O1_2 1_555 1_555
Eu14 O1_2 1_555 1_555
Eu17 O3_2 1_555 1_555
O43_2 Eu6_2 1_555 1_555
O47_2 Eu1_2 1_555 1_555
O52_2 Eu6_2 1_555 1_555
O54_2 Eu6_2 1_555 1_555
O3_2 Eu9 1_555 1_555
Eu6_2 O36_2 1_555 1_555
Eu6_2 O51_2 1_555 1_555
O31_2 Eu14 1_555 1_555
O33_2 C63_2 1_555 1_555
C62_2 C63_2 1_555 1_555
C71_2 C72_2 1_555 1_555
Eu14 O52_2 1_555 1_555
Eu17 O51_2 1_555 1_555
Eu17 O52_2 1_555 1_555
C35_2 O18_2 1_555 1_555
C37_2 C35_2 1_555 1_555
O21_2 C35_2 1_555 1_555
C37_2 H51_2 1_555 1_555
C37_2 H52_2 1_555 1_555
O28_2 C57_2 1_555 1_555
O49 C57_2 1_555 1_555
C46_2 C47_2 1_555 1_555
C47_2 H28_2 1_555 1_555
C48_2 C47_2 1_555 1_555
C49_2 C48_2 1_555 1_555
H29_2 C49_2 1_555 1_555
C50_2 C49_2 1_555 1_555
C51_2 C50_2 1_555 1_555
C52_2 C51_2 1_555 1_555
H30_2 C52_2 1_555 1_555
C53_2 C52_2 1_555 1_555
H31_2 C53_2 1_555 1_555
C54_2 C53_2 1_555 1_555
C55_2 C54_2 1_555 1_555
H32_2 C55_2 1_555 1_555
C56_2 C51_2 1_555 1_555
H33_2 C56_2 1_555 1_555
C57_2 C54_2 1_555 1_555
C58_2 C46_2 1_555 1_555
H34_2 C58_2 1_555 1_555
C59_2 C48_2 1_555 1_555
Eu7_2 O28_2 1_555 1_555
C50_2 C58_2 1_555 1_555
C55_2 C56_2 1_555 1_555
O4_2 C26_2 1_555 1_555
C27_2 C26_2 1_555 1_555
C28_2 C27_2 1_555 1_555
C29_2 C28_2 1_555 1_555
H18_2 C29_2 1_555 1_555
C30_2 C29_2 1_555 1_555
H19_2 C30_2 1_555 1_555
C31_2 C30_2 1_555 1_555
H20_2 C31_2 1_555 1_555
C32_2 C27_2 1_555 1_555
F1_2 C28_2 1_555 1_555
O24_2 C39_2 1_555 1_555
O26_2 C44_2 1_555 1_555
O45 C44_2 1_555 1_555
C39_2 O25_2 1_555 1_555
C40_2 C39_2 1_555 1_555
C41_2 C40_2 1_555 1_555
H25_2 C41_2 1_555 1_555
C42_2 H26_2 1_555 1_555
C43_2 C42_2 1_555 1_555
C44_2 C43_2 1_555 1_555
C45_2 C40_2 1_555 1_555
H27_2 C45_2 1_555 1_555
C73_2 C41_2 1_555 1_555
Eu15_2 O4_2 1_555 1_555
Eu18 O26_2 1_555 1_555
C31_2 C32_2 1_555 1_555
O24_2 Eu15_2 1_555 1_555
C42_2 C73_2 1_555 1_555
C43_2 C45_2 1_555 1_555
Eu15_2 O38_2 1_555 1_555
O47_2 C57_3 1_555 1_555
O29_2 C57_3 1_555 1_555
Eu14 O29_2 1_555 1_555
Eu12 O12_3 1_555 1_555
Eu16 O12_3 1_555 1_555
O40 C26_3 1_555 1_555
O11_3 C25_3 1_555 1_555
O12_3 H3_3 1_555 1_555
O13_3 Eu16 1_555 1_555
H4_3 O51 1_555 1_555
H5_3 O52 1_555 1_555
O16_3 Eu16 1_555 1_555
C23_3 C22_3 1_555 1_555
H17_3 C23_3 1_555 1_555
C24_3 C23_3 1_555 1_555
C25_3 O16_3 1_555 1_555
C26_3 O13_3 1_555 1_555
O20_3 Eu16 1_555 1_555
C33_3 C24_3 1_555 1_555
H22_3 C33_3 1_555 1_555
H23_3 C34_3 1_555 1_555
Eu8 O11_3 1_555 1_555
O41 C39_3 1_555 1_555
O25_3 Eu8 1_555 1_555
O43_2 C44_3 1_555 1_555
O27_2 C44_3 1_555 1_555
O34_3 Eu8 1_555 1_555
C39_3 O25_3 1_555 1_555
C40_3 C39_3 1_555 1_555
C41_3 C40_3 1_555 1_555
H25_3 C41_3 1_555 1_555
C42_3 H26_3 1_555 1_555
C43_3 C42_3 1_555 1_555
C44_3 C43_3 1_555 1_555
C45_3 C40_3 1_555 1_555
H27_3 C45_3 1_555 1_555
C46_3 C47_3 1_555 1_555
C47_3 H28_3 1_555 1_555
C48_3 C47_3 1_555 1_555
C49_3 C48_3 1_555 1_555
H29_3 C49_3 1_555 1_555
C50_3 C49_3 1_555 1_555
C51_3 C50_3 1_555 1_555
C52_3 C51_3 1_555 1_555
H30_3 C52_3 1_555 1_555
C53_3 C52_3 1_555 1_555
H31_3 C53_3 1_555 1_555
C54_3 C53_3 1_555 1_555
C55_3 C54_3 1_555 1_555
H32_3 C55_3 1_555 1_555
C56_3 C51_3 1_555 1_555
H33_3 C56_3 1_555 1_555
C58_3 C46_3 1_555 1_555
H34_3 C58_3 1_555 1_555
C59_3 C48_3 1_555 1_555
C73_3 C41_3 1_555 1_555
Eu14 O27_2 1_555 1_555
O45_2 Eu12 1_555 1_555
O49_2 Eu12 1_555 1_555
O12_3 Eu8 1_555 1_555
C24_3 C25_3 1_555 1_555
C33_3 C34_3 1_555 1_555
C42_3 C73_3 1_555 1_555
C43_3 C45_3 1_555 1_555
C46_3 C73_3 1_555 1_555
C50_3 C58_3 1_555 1_555
C55_3 C56_3 1_555 1_555
O20_3 H46_2 1_555 1_555
C28_3 C27_3 1_555 1_555
C29_3 C28_3 1_555 1_555
H18_3 C29_3 1_555 1_555
C30_3 C29_3 1_555 1_555
H19_3 C30_3 1_555 1_555
C31_3 C30_3 1_555 1_555
H20_3 C31_3 1_555 1_555
C32_3 C27_3 1_555 1_555
H21_3 C32_3 1_555 1_555
C38_3 O19_3 1_555 1_555
O54 C38_3 1_555 1_555
C31_3 C32_3 1_555 1_555
C38_3 H50_3 1_555 1_555
C66_3 C65_3 1_555 1_555
C67_3 C66_3 1_555 1_555
H37_3 C67_3 1_555 1_555
C68_3 C67_3 1_555 1_555
H38_3 C68_3 1_555 1_555
C69_3 C68_3 1_555 1_555
H39_3 C69_3 1_555 1_555
C70_3 C65_3 1_555 1_555
H40_3 C70_3 1_555 1_555
C69_3 C70_3 1_555 1_555
Eu7_2 O37 1_555 1_555
O37 H1_3 1_555 1_555
O38 Eu7_2 1_555 1_555
H2_3 O39 1_555 1_555
O5_3 Eu15 1_555 1_555
O6_3 Eu7_2 1_555 1_555
O42_2 C6_3 1_555 1_555
O44_2 C6_3 1_555 1_555
O17_3 Eu7_2 1_555 1_555
O18_3 Eu7_2 1_555 1_555
C1_3 O5_3 1_555 1_555
C2_3 C1_3 1_555 1_555
C3_3 C2_3 1_555 1_555
H6_3 C3_3 1_555 1_555
C4_3 H7_3 1_555 1_555
C5_3 C4_3 1_555 1_555
C6_3 C5_3 1_555 1_555
C7_3 C2_3 1_555 1_555
H8_3 C7_3 1_555 1_555
C8_3 C9_3 1_555 1_555
C9_3 H9_3 1_555 1_555
C10_3 C9_3 1_555 1_555
C11_3 C10_3 1_555 1_555
H10_3 C11_3 1_555 1_555
C12_3 C11_3 1_555 1_555
C13_3 C12_3 1_555 1_555
C14_3 C13_3 1_555 1_555
H11_3 C14_3 1_555 1_555
C15_3 C14_3 1_555 1_555
H12_3 C15_3 1_555 1_555
C16_3 C15_3 1_555 1_555
C17_3 C16_3 1_555 1_555
H13_3 C17_3 1_555 1_555
C18_3 C13_3 1_555 1_555
H14_3 C18_3 1_555 1_555
C20_3 C8_3 1_555 1_555
H15_3 C20_3 1_555 1_555
C21_3 C10_3 1_555 1_555
C35_3 O18_3 1_555 1_555
C36_3 C3_3 1_555 1_555
C37_3 C35_3 1_555 1_555
O53 C35_3 1_555 1_555
O23_3 Eu15 1_555 1_555
O30_3 Eu7_2 1_555 1_555
O50 Eu7_2 1_555 1_555
H24_3 O50 1_555 1_555
O32_3 Eu18 1_555 1_555
O33_3 Eu18 1_555 1_555
C61_3 C60_3 1_555 1_555
H36_3 C61_3 1_555 1_555
C62_3 C61_3 1_555 1_555
C63_3 O30_3 1_555 1_555
C64_3 O23_3 1_555 1_555
O35_3 Eu18 1_555 1_555
C71_3 C62_3 1_555 1_555
H41_3 C71_3 1_555 1_555
H42_3 C72_3 1_555 1_555
O36_3 Eu7_2 1_555 1_555
H43_3 O36_3 1_555 1_555
Eu15 O36_3 1_555 1_555
O6_3 C1_3 1_555 1_555
C4_3 C36_3 1_555 1_555
C5_3 C7_3 1_555 1_555
C8_3 C36_3 1_555 1_555
C12_3 C20_3 1_555 1_555
C17_3 C18_3 1_555 1_555
Eu18 O36_3 1_555 1_555
O32_3 C64_3 1_555 1_555
O33_3 C63_3 1_555 1_555
C62_3 C63_3 1_555 1_555
C71_3 C72_3 1_555 1_555
C37_3 H51_3 1_555 1_555
C37_3 H52_3 1_555 1_555
C37_3 H53_3 1_555 1_555
O35_3 H54_2 1_555 1_555
O46_2 C19_3 1_555 1_555
O48_2 C19_3 1_555 1_555
O40_2 C26_4 1_555 1_555
C27_4 C26_4 1_555 1_555
C28_4 C27_4 1_555 1_555
C29_4 C28_4 1_555 1_555
H18_4 C29_4 1_555 1_555
C30_4 C29_4 1_555 1_555
H19_4 C30_4 1_555 1_555
C31_4 C30_4 1_555 1_555
H20_4 C31_4 1_555 1_555
C32_4 C27_4 1_555 1_555
C35_4 O18_4 1_555 1_555
C37_4 C35_4 1_555 1_555
F1_4 C28_4 1_555 1_555
O53_2 C35_4 1_555 1_555
O41_2 C39_4 1_555 1_555
O43 C44_4 1_555 1_555
O45_2 C44_4 1_555 1_555
C39_4 O25_4 1_555 1_555
C40_4 C39_4 1_555 1_555
C41_4 C40_4 1_555 1_555
H25_4 C41_4 1_555 1_555
C42_4 H26_4 1_555 1_555
C43_4 C42_4 1_555 1_555
C44_4 C43_4 1_555 1_555
C45_4 C40_4 1_555 1_555
H27_4 C45_4 1_555 1_555
C73_4 C41_4 1_555 1_555
C31_4 C32_4 1_555 1_555
C42_4 C73_4 1_555 1_555
C43_4 C45_4 1_555 1_555
C37_4 H51_4 1_555 1_555
C37_4 H52_4 1_555 1_555
Eu7 O37_2 1_555 1_555
O37_2 H1_4 1_555 1_555
O47 C57_4 1_555 1_555
O49_2 C57_4 1_555 1_555
O30_4 Eu7 1_555 1_555
O50_2 Eu7 1_555 1_555
H24_4 O50_2 1_555 1_555
O32_4 Eu19 1_555 1_555
O33_4 Eu19 1_555 1_555
C46_4 C47_4 1_555 1_555
C47_4 H28_4 1_555 1_555
C48_4 C47_4 1_555 1_555
C49_4 C48_4 1_555 1_555
H29_4 C49_4 1_555 1_555
C50_4 C49_4 1_555 1_555
C51_4 C50_4 1_555 1_555
C52_4 C51_4 1_555 1_555
H30_4 C52_4 1_555 1_555
C53_4 C52_4 1_555 1_555
H31_4 C53_4 1_555 1_555
C54_4 C53_4 1_555 1_555
C55_4 C54_4 1_555 1_555
H32_4 C55_4 1_555 1_555
C56_4 C51_4 1_555 1_555
H33_4 C56_4 1_555 1_555
C57_4 C54_4 1_555 1_555
C58_4 C46_4 1_555 1_555
H34_4 C58_4 1_555 1_555
C59_4 C48_4 1_555 1_555
C60_4 C59_4 1_555 1_555
H35_4 C60_4 1_555 1_555
C61_4 C60_4 1_555 1_555
H36_4 C61_4 1_555 1_555
C62_4 C61_4 1_555 1_555
C63_4 O30_4 1_555 1_555
O35_4 Eu19 1_555 1_555
C71_4 C62_4 1_555 1_555
H41_4 C71_4 1_555 1_555
C72_4 C59_4 1_555 1_555
H42_4 C72_4 1_555 1_555
O36_4 Eu7 1_555 1_555
Eu19 O36_4 1_555 1_555
O33_4 C63_4 1_555 1_555
C50_4 C58_4 1_555 1_555
C55_4 C56_4 1_555 1_555
C62_4 C63_4 1_555 1_555
C71_4 C72_4 1_555 1_555
Eu14 O12_4 1_555 1_555
Eu17 O12_4 1_555 1_555
O46 C19_4 1_555 1_555
O48 C19_4 1_555 1_555
O11_4 C25_4 1_555 1_555
O12_4 H3_4 1_555 1_555
O13_4 Eu17 1_555 1_555
H4_4 O51_2 1_555 1_555
H5_4 O52_2 1_555 1_555
O16_4 Eu17 1_555 1_555
C8_4 C9_4 1_555 1_555
C9_4 H9_4 1_555 1_555
C10_4 C9_4 1_555 1_555
C11_4 C10_4 1_555 1_555
H10_4 C11_4 1_555 1_555
C12_4 C11_4 1_555 1_555
C13_4 C12_4 1_555 1_555
C14_4 C13_4 1_555 1_555
H11_4 C14_4 1_555 1_555
C15_4 C14_4 1_555 1_555
H12_4 C15_4 1_555 1_555
C16_4 C15_4 1_555 1_555
C17_4 C16_4 1_555 1_555
H13_4 C17_4 1_555 1_555
C18_4 C13_4 1_555 1_555
H14_4 C18_4 1_555 1_555
C19_4 C16_4 1_555 1_555
C20_4 C8_4 1_555 1_555
H15_4 C20_4 1_555 1_555
C21_4 C10_4 1_555 1_555
C22_4 C21_4 1_555 1_555
H16_4 C22_4 1_555 1_555
C23_4 C22_4 1_555 1_555
H17_4 C23_4 1_555 1_555
C24_4 C23_4 1_555 1_555
C25_4 O16_4 1_555 1_555
O19_4 Eu17 1_555 1_555
O20_4 Eu17 1_555 1_555
C33_4 C24_4 1_555 1_555
H22_4 C33_4 1_555 1_555
C34_4 C21_4 1_555 1_555
H23_4 C34_4 1_555 1_555
C38_4 O19_4 1_555 1_555
O54_2 C38_4 1_555 1_555
Eu9 O11_4 1_555 1_555
O12_4 Eu9 1_555 1_555
C12_4 C20_4 1_555 1_555
C17_4 C18_4 1_555 1_555
C24_4 C25_4 1_555 1_555
C33_4 C34_4 1_555 1_555
C38_4 H50_4 1_555 1_555
O5_4 Eu15_2 1_555 1_555
O42 C6_4 1_555 1_555
O44 C6_4 1_555 1_555
C1_4 O5_4 1_555 1_555
C2_4 C1_4 1_555 1_555
C3_4 C2_4 1_555 1_555
H6_4 C3_4 1_555 1_555
C4_4 H7_4 1_555 1_555
C5_4 C4_4 1_555 1_555
C6_4 C5_4 1_555 1_555
C7_4 C2_4 1_555 1_555
H8_4 C7_4 1_555 1_555
C36_4 C3_4 1_555 1_555
O23_4 Eu15_2 1_555 1_555
C64_4 O23_4 1_555 1_555
C65_4 C64_4 1_555 1_555
C66_4 C65_4 1_555 1_555
C67_4 C66_4 1_555 1_555
H37_4 C67_4 1_555 1_555
C68_4 C67_4 1_555 1_555
H38_4 C68_4 1_555 1_555
C69_4 C68_4 1_555 1_555
H39_4 C69_4 1_555 1_555
C70_4 C65_4 1_555 1_555
F2_4 C66_4 1_555 1_555
O6_4 C1_4 1_555 1_555
C4_4 C36_4 1_555 1_555
C5_4 C7_4 1_555 1_555
C69_4 C70_4 1_555 1_555
O34_4 H49_2 1_555 1_555
O35 H46_3 1_555 1_555
C37_3 H51_5 1_555 1_555
C37_3 H52_5 1_555 1_555
C37_3 H53_5 1_555 1_555
O20 H54_3 1_555 1_555
C37_4 H51_6 1_555 1_555
C37_4 H52_6 1_555 1_555
O17_2 H49_3 1_555 1_555
C37 H51_7 1_555 1_555
C37 H52_7 1_555 1_555
C37 H53_7 1_555 1_555
O20_3 H54_4 1_555 1_555
O35_3 H46_4 1_555 1_555
O17_4 H49_4 1_555 1_555
C37_2 H51_8 1_555 1_555
C37_2 H52_8 1_555 1_555

#END
