
###############################################################################
#
# This file contains modified crystal structure data generated from the
# MOF subset of the Cambridge Structural Database (CSD) v543 
# hosted by the Cambridge Crystallographic Data Centre (CCDC).
#
# This work is licensed under the Creative Commons
# Attribution-NonCommercial-ShareAlike 4.0 International License.
# To view a copy of this license, visit
# http://creativecommons.org/licenses/by-nc-sa/4.0/
# or send a letter to
# Creative Commons, PO Box 1866, Mountain View, CA 94042, USA.
#
# CIF created using the CSD Python API on 29 September 2022
# The structure has been converted into the P1 space group
# The structure has a 3D framework
# The original CSD entry UYEVUS is in the orthorhombic crystal system
# The framework has been calculated to contain at least 10.0% void space
# The void calculation uses a probe of radius 1.32A, grid spacing 0.4
# The framework is charged, counterions have been retained in the structure
# H atom positions have been added when not included in the experimental data
# Generated hydrogen atom positions removed from atoms on special positions
#
###############################################################################

data_UYEVUS
_chemical_formula_moiety         '(C256 H207 F4 O111 Y20 8-)n'
_symmetry_cell_setting           triclinic
_symmetry_space_group_name_H-M   'P 1'
_symmetry_Int_Tables_number      1
_space_group_name_Hall           'P 1'
loop_
_symmetry_equiv_pos_site_id
_symmetry_equiv_pos_as_xyz
1 x,y,z
_cell_length_a                   25.2874(10)
_cell_length_b                   25.7770(13)
_cell_length_c                   14.3158(6)
_cell_angle_alpha                90
_cell_angle_beta                 90
_cell_angle_gamma                90
_cell_volume                     9331.52
loop_
_atom_site_label
_atom_site_type_symbol
_atom_site_fract_x
_atom_site_fract_y
_atom_site_fract_z
O10 O 0.0579(7) 0.3616(8) 0.0059(12)
H42 H 0.0399115 0.370326 0.0655227
F1 F 0.0197(7) 0.250000 0.2491(14)
O45 O 0.0579(7) 0.1384(8) 0.0059(12)
H49 H 0.0697545 0.164576 0.0522826
H49_2 H 0.0697545 0.335424 0.0522826
H42_2 H 0.0399115 0.129674 0.0655227
Y1 Y 0.12364(7) 0.250000 0.82432(14)
O1 O 0.0870(4) 0.250000 0.6819(9)
O2 O 0.1772(3) 0.3075(6) 0.7484(8)
O3 O 0.1575(6) 0.2997(9) 0.9485(12)
O4 O 0.0683(3) 0.3191(5) 0.8027(7)
O5 O 0.0498(4) 0.250000 0.9192(8)
H1 H 0.118583 0.250000 0.639875
Y2 Y 0.04317(6) 0.17352(9) 0.63807(12)
C1 C 0.1733(6) 0.3351(9) 0.6709(15)
H2 H 0.090142 0.350604 0.816337
O6 O 0.1288(4) 0.3507(7) 0.6441(9)
O7 O 0.0288(7) 0.4098(8) 0.6973(13)
C2 C 0.2193(6) 0.3503(10) 0.6261(16)
O9 O 0.0039(5) 0.4075(6) 0.8522(10)
C4 C 0.2719(5) 0.3359(8) 0.6558(11)
C5 C 0.2175(6) 0.3787(10) 0.5391(11)
H3 H 0.276060 0.315700 0.710877
C7 C 0.3142(6) 0.3501(8) 0.6084(14)
H4 H 0.183919 0.389918 0.516967
C8 C 0.2624(6) 0.3908(10) 0.4852(14)
C11 C 0.3111(7) 0.3786(8) 0.5240(14)
C12 C 0.3670(6) 0.3309(9) 0.6448(12)
C13 C 0.2551(8) 0.4178(11) 0.3957(12)
H7 H 0.342685 0.389420 0.493705
O14 O 0.3702(4) 0.3061(5) 0.7145(8)
C16 C 0.2917(7) 0.4032(10) 0.3215(12)
C17 C 0.2103(7) 0.4465(10) 0.3755(12)
Y4 Y 0.42164(7) 0.250000 0.78966(14)
H10 H 0.320315 0.379969 0.331684
C19 C 0.2815(7) 0.4263(11) 0.2321(12)
C20 C 0.2017(7) 0.4638(10) 0.2848(12)
H11 H 0.185512 0.454376 0.423415
O15 O 0.4938(4) 0.250000 0.8824(8)
O16 O 0.3991(4) 0.3076(6) 0.9028(7)
C21 C 0.2368(7) 0.4540(10) 0.2182(12)
C22 C 0.3202(9) 0.4075(13) 0.1558(14)
H12 H 0.480899 0.250000 0.948455
H13 H 0.455897 0.347619 0.765868
H14 H 0.230096 0.467115 0.157316
C23 C 0.2977(8) 0.3893(13) 0.0727(14)
C24 C 0.3718(8) 0.4072(12) 0.1711(14)
C25 C 0.3354(8) 0.3733(12) 0.0038(14)
H15 H 0.260539 0.387687 0.062923
C26 C 0.4091(8) 0.3879(12) 0.1115(13)
H16 H 0.383931 0.421688 0.228265
C27 C 0.3865(9) 0.3693(13) 0.0204(14)
H18 H 0.445666 0.386271 0.126244
O18 O 0.5717(5) 0.2986(9) 0.0041(9)
C29 C 0.5872(15) 0.250000 0.044(3)
H19 H 0.078433 0.750000 0.100198
O19 O 0.1575(6) 0.2003(9) 0.9485(12)
O20 O 0.0683(3) 0.1809(5) 0.8027(7)
O21 O 0.1772(3) 0.1925(6) 0.7484(8)
Y5 Y 0.04317(6) 0.32648(9) 0.63807(12)
O22 O 0.4078(5) 0.3469(6) 0.5979(9)
O23 O 0.3702(4) 0.1939(5) 0.7145(8)
Y6 Y 0.49709(5) 0.32357(8) 0.59674(11)
Y7 Y 0.49709(5) 0.17643(8) 0.59674(11)
O24 O 0.4784(3) 0.3164(5) 0.7546(6)
O25 O 0.4784(3) 0.1836(5) 0.7546(6)
O26 O 0.4541(4) 0.250000 0.6400(8)
O27 O 0.3991(4) 0.1924(6) 0.9028(7)
C38 C 0.1522(5) 0.4981(8) 0.2699(11)
Y8 Y 0.54317(6) 0.32648(9) 0.86193(12)
Y9 Y 0.54317(6) 0.17352(9) 0.86193(12)
H25 H 0.455897 0.152381 0.765868
C41 C 0.1250(6) 0.5192(8) 0.3452(8)
C42 C 0.1327(6) 0.5041(8) 0.1797(9)
H28 H 0.138309 0.515055 0.406744
C45 C 0.0782(6) 0.5464(8) 0.3303(9)
H29 H 0.151284 0.489661 0.128289
C46 C 0.0859(6) 0.5313(8) 0.1649(8)
C50 C 0.0587(5) 0.5524(8) 0.2402(11)
H30 H 0.059638 0.560800 0.381780
H31 H 0.072614 0.535405 0.103325
C55 C 0.0037(12) 0.5791(14) 0.230(3)
Y12 Y 0.00291(5) 0.67643(8) 0.09674(11)
O41 O 0.0459(4) 0.750000 0.1400(8)
O46 O 0.0216(3) 0.6836(5) 0.2546(6)
O47 O 0.0922(5) 0.6531(6) 0.0979(9)
O49 O 0.5717(5) 0.2014(9) 0.0041(9)
Y18 Y 0.07836(7) 0.750000 0.28966(14)
Y19 Y 0.00291(5) 0.82357(8) 0.09674(11)
H41 H 0.0723832 0.393718 0.977396
H45 H 0.611566 0.25 0.106723
H17 H 0.322883 0.365145 0.942967
C28 C 0.4214(9) 0.3379(14) 0.9503(16)
O17 O 0.4736(5) 0.3523(7) 0.9518(10)
C30 C 0.038(2) 0.750000 0.912(3)
C31 C 0.0667(11) 0.750000 0.8223(17)
C32 C 0.0315(7) 0.750000 0.740(2)
C33 C 0.1236(10) 0.750000 0.8232(19)
C34 C 0.0502(12) 0.750000 0.649(2)
C35 C 0.1447(14) 0.750000 0.726(2)
H21 H 0.144697 0.750000 0.878097
C36 C 0.1083(11) 0.750000 0.6454(17)
H22 H 0.028094 0.750000 0.595284
H23 H 0.181814 0.750000 0.716366
H24 H 0.124013 0.750000 0.585189
O37 O 0.5870(4) 0.250000 0.8181(9)
O38 O 0.5683(3) 0.3191(5) 0.6973(7)
O39 O 0.6288(4) 0.3507(7) 0.8559(9)
O40 O 0.5288(7) 0.4098(8) 0.8027(13)
O44 O 0.0298(8) 0.7054(10) 0.9514(13)
O52 O 0.0298(8) 0.7946(10) 0.9514(13)
O13 O 0.9702(8) 0.2946(10) 0.0486(13)
H37 H 0.677117 0.634855 0.057033
C64 C 0.5786(9) 0.6621(14) 0.0497(16)
O48 O 0.4712(7) 0.5902(8) 0.1973(13)
O50 O 0.6009(4) 0.6924(6) 0.0972(7)
O51 O 0.5264(5) 0.6477(7) 0.0482(10)
Y20 Y 0.45683(6) 0.67352(9) 0.13807(12)
Y21 Y 0.57836(7) 0.750000 0.21034(14)
O53 O 0.5062(4) 0.750000 0.1176(8)
O54 O 0.5216(3) 0.6836(5) 0.2454(6)
O55 O 0.4130(4) 0.750000 0.1819(9)
O56 O 0.4317(3) 0.6809(5) 0.3027(7)
O57 O 0.3712(4) 0.6493(7) 0.1441(9)
Y3 Y 0.99709(5) 0.32357(8) 0.90326(11)
O8 O 0.9784(3) 0.3164(5) 0.7454(6)
O11 O 0.9541(4) 0.250000 0.8600(8)
O12 O 0.9078(5) 0.3469(6) 0.9021(9)
C3 C 0.9963(12) 0.4209(14) 0.770(3)
C6 C 0.9413(5) 0.4476(8) 0.7598(11)
C9 C 0.9141(6) 0.4687(8) 0.8351(8)
C10 C 0.9218(6) 0.4536(8) 0.6697(9)
C14 C 0.8673(6) 0.4959(8) 0.8203(9)
H5 H 0.927386 0.464595 0.896675
C15 C 0.8750(6) 0.4808(8) 0.6548(8)
H6 H 0.940362 0.439200 0.618220
C18 C 0.8478(5) 0.5019(8) 0.7301(11)
H8 H 0.848716 0.510339 0.871711
H9 H 0.861691 0.484945 0.593256
H20 H 0.936975 0.750000 0.014971
C37 C 0.7983(7) 0.5362(10) 0.7152(12)
C39 C 0.7897(7) 0.5535(10) 0.6245(12)
C40 C 0.7632(7) 0.5460(10) 0.7818(12)
C43 C 0.7449(8) 0.5822(11) 0.6043(12)
H26 H 0.814488 0.545624 0.576585
H27 H 0.769904 0.532885 0.842684
C44 C 0.7185(7) 0.5737(11) 0.7679(12)
C47 C 0.7376(6) 0.6092(10) 0.5148(14)
C48 C 0.7083(7) 0.5968(10) 0.6785(12)
C49 C 0.6798(9) 0.5925(13) 0.8442(14)
C51 C 0.6889(7) 0.6214(8) 0.4760(14)
C52 C 0.7825(6) 0.6213(10) 0.4609(11)
H32 H 0.679685 0.620031 0.668316
C53 C 0.7023(8) 0.6107(13) 0.9273(14)
C54 C 0.6282(8) 0.5928(12) 0.8289(14)
H33 H 0.657315 0.610580 0.506295
C56 C 0.6858(6) 0.6499(8) 0.3916(14)
C57 C 0.7807(6) 0.6497(10) 0.3739(16)
H34 H 0.816081 0.610082 0.483033
C58 C 0.6646(8) 0.6267(12) 0.9962(14)
H35 H 0.739461 0.612313 0.937077
C59 C 0.5909(8) 0.6121(12) 0.8885(13)
H36 H 0.616069 0.578312 0.771735
O29 O 0.9961(5) 0.5925(6) 0.1478(10)
O30 O 0.9712(7) 0.5902(8) 0.3027(13)
C60 C 0.7281(5) 0.6641(8) 0.3442(11)
C61 C 0.6330(6) 0.6691(9) 0.3552(12)
C62 C 0.8267(6) 0.6649(9) 0.3291(15)
C63 C 0.6135(9) 0.6307(13) 0.9796(14)
H38 H 0.554334 0.613729 0.873756
Y13 Y 0.95683(6) 0.67352(9) 0.36193(12)
H39 H 0.723940 0.684300 0.289123
O31 O 0.6298(4) 0.6939(5) 0.2855(8)
O32 O 0.5922(5) 0.6531(6) 0.4021(9)
O33 O 0.8228(3) 0.6925(6) 0.2516(8)
O34 O 0.8712(4) 0.6493(7) 0.3559(9)
O42 O 0.9502(4) 0.750000 0.0808(8)
O43 O 0.9317(3) 0.6809(5) 0.1973(7)
Y16 Y 0.50291(5) 0.67643(8) 0.40326(11)
Y17 Y 0.87636(7) 0.750000 0.17568(14)
H40 H 0.909858 0.649396 0.183663
O58 O 0.4283(5) 0.7014(9) 0.9959(9)
H48 H 0.911118 0.625578 0.0299236
O58_2 O 0.0717(5) 0.2986(9) 0.4959(9)
Y1_2 Y 0.37636(7) 0.750000 0.32432(14)
O2_2 O 0.3228(3) 0.6925(6) 0.2484(8)
O3_2 O 0.3425(6) 0.7003(9) 0.4485(12)
O5_2 O 0.4502(4) 0.750000 0.4192(8)
H1_2 H 0.381417 0.750000 0.139875
Y2_2 Y 0.45683(6) 0.82648(9) 0.13807(12)
C1_2 C 0.3267(6) 0.6649(9) 0.1709(15)
H2_2 H 0.409858 0.649396 0.316337
C2_2 C 0.2807(6) 0.6497(10) 0.1261(16)
O9_2 O 0.4961(5) 0.5925(6) 0.3522(10)
O10_2 O 0.4421(7) 0.6384(8) 0.5059(12)
O11_2 O 0.5459(4) 0.750000 0.3600(8)
O13_2 O 0.5298(8) 0.7054(10) 0.5486(13)
C3_2 C 0.5037(12) 0.5791(14) 0.270(3)
C4_2 C 0.2281(5) 0.6641(8) 0.1558(11)
C5_2 C 0.2825(6) 0.6213(10) 0.0391(11)
C6_2 C 0.5587(5) 0.5524(8) 0.2598(11)
H3_2 H 0.223940 0.684300 0.210877
C7_2 C 0.1858(6) 0.6499(8) 0.1084(14)
H4_2 H 0.316081 0.610082 0.016967
C9_2 C 0.5859(6) 0.5313(8) 0.3351(8)
C10_2 C 0.5782(6) 0.5464(8) 0.1697(9)
C11_2 C 0.1889(7) 0.6214(8) 0.0240(14)
C12_2 C 0.1330(6) 0.6691(9) 0.1448(12)
C14_2 C 0.6327(6) 0.5041(8) 0.3203(9)
H5_2 H 0.572614 0.535405 0.396675
C15_2 C 0.6250(6) 0.5192(8) 0.1548(8)
H6_2 H 0.559638 0.560800 0.118220
O14_2 O 0.1298(4) 0.6939(5) 0.2145(8)
C18_2 C 0.6522(5) 0.4981(8) 0.2301(11)
H8_2 H 0.651284 0.489661 0.371711
H9_2 H 0.638309 0.515055 0.093256
O15_2 O 0.0062(4) 0.750000 0.3824(8)
O16_2 O 0.1009(4) 0.6924(6) 0.4028(7)
H12_2 H 0.019101 0.750000 0.448455
H13_2 H 0.044103 0.652381 0.265868
O19_2 O 0.3425(6) 0.7997(9) 0.4485(12)
O20_2 O 0.4317(3) 0.8191(5) 0.3027(7)
O21_2 O 0.3228(3) 0.8075(6) 0.2484(8)
O23_2 O 0.1298(4) 0.8061(5) 0.2145(8)
C37_2 C 0.7017(7) 0.4638(10) 0.2152(12)
O25_2 O 0.0216(3) 0.8164(5) 0.2546(6)
O27_2 O 0.1009(4) 0.8076(6) 0.4028(7)
C39_2 C 0.7103(7) 0.4465(10) 0.1245(12)
C40_2 C 0.7368(7) 0.4540(10) 0.2818(12)
H25_2 H 0.044103 0.847619 0.265868
C43_2 C 0.7551(8) 0.4178(11) 0.1043(12)
H26_2 H 0.685512 0.454376 0.076585
H27_2 H 0.730096 0.467115 0.342684
C44_2 C 0.7815(7) 0.4263(11) 0.2679(12)
C47_2 C 0.7624(6) 0.3908(10) 0.0148(14)
C48_2 C 0.7917(7) 0.4032(10) 0.1785(12)
C49_2 C 0.8202(9) 0.4075(13) 0.3442(14)
H32_2 H 0.820315 0.379969 0.168316
C53_2 C 0.7977(8) 0.3893(13) 0.4273(14)
C54_2 C 0.8718(8) 0.4072(12) 0.3289(14)
H33_2 H 0.842685 0.389420 0.006295
C58_2 C 0.8354(8) 0.3733(12) 0.4962(14)
H35_2 H 0.760539 0.387687 0.437077
C59_2 C 0.9091(8) 0.3879(12) 0.3885(13)
H36_2 H 0.883931 0.421688 0.271735
C63_2 C 0.8865(9) 0.3693(13) 0.4796(14)
H37_2 H 0.822883 0.365145 0.557033
H38_2 H 0.945666 0.386271 0.373756
C64_2 C 0.9214(9) 0.3379(14) 0.5497(16)
O50_2 O 0.8991(4) 0.3076(6) 0.5972(7)
O51_2 O 0.9736(5) 0.3523(7) 0.5482(10)
Y21_2 Y 0.92164(7) 0.250000 0.71034(14)
O53_2 O 0.9938(4) 0.250000 0.6176(8)
C8_2 C 0.2376(6) 0.6092(10) 0.9852(14)
C13_2 C 0.2449(8) 0.5822(11) 0.8957(12)
H7_2 H 0.157315 0.610580 0.993705
C16_2 C 0.2083(7) 0.5968(10) 0.8215(12)
C17_2 C 0.2897(7) 0.5535(10) 0.8755(12)
H10_2 H 0.179685 0.620031 0.831684
C19_2 C 0.2185(7) 0.5737(11) 0.7321(12)
C20_2 C 0.2983(7) 0.5362(10) 0.7848(12)
H11_2 H 0.314488 0.545624 0.923415
C21_2 C 0.2632(7) 0.5460(10) 0.7182(12)
C22_2 C 0.1798(9) 0.5925(13) 0.6558(14)
H14_2 H 0.269904 0.532885 0.657316
C23_2 C 0.2023(8) 0.6107(13) 0.5727(14)
C24_2 C 0.1282(8) 0.5928(12) 0.6711(14)
C25_2 C 0.1646(8) 0.6267(12) 0.5038(14)
H15_2 H 0.239461 0.612313 0.562923
C26_2 C 0.0909(8) 0.6121(12) 0.6115(13)
H16_2 H 0.116069 0.578312 0.728265
C27_2 C 0.1135(9) 0.6307(13) 0.5204(14)
H17_2 H 0.177117 0.634855 0.442967
H18_2 H 0.054334 0.613729 0.626244
C28_2 C 0.0786(9) 0.6621(14) 0.4503(16)
O17_2 O 0.0264(5) 0.6477(7) 0.4518(10)
H19_2 H 0.421567 0.250000 0.600198
H20_2 H 0.563025 0.250000 0.514971
C30_2 C 0.462(2) 0.250000 0.412(3)
C31_2 C 0.4333(11) 0.250000 0.3223(17)
C32_2 C 0.4685(7) 0.250000 0.240(2)
C33_2 C 0.3764(10) 0.250000 0.3232(19)
F1_2 F 0.5197(7) 0.250000 0.2509(14)
C34_2 C 0.4498(12) 0.250000 0.149(2)
C35_2 C 0.3553(14) 0.250000 0.226(2)
H21_2 H 0.355303 0.250000 0.378097
C36_2 C 0.3917(11) 0.250000 0.1454(17)
H22_2 H 0.471906 0.250000 0.095284
H23_2 H 0.318186 0.250000 0.216366
H24_2 H 0.375987 0.250000 0.085189
C38_2 C 0.3478(5) 0.5019(8) 0.7699(11)
C41_2 C 0.3750(6) 0.4808(8) 0.8452(8)
C42_2 C 0.3673(6) 0.4959(8) 0.6797(9)
H28_2 H 0.361691 0.484945 0.906744
C45_2 C 0.4218(6) 0.4536(8) 0.8303(9)
H29_2 H 0.348716 0.510339 0.628289
C46_2 C 0.4141(6) 0.4687(8) 0.6649(8)
C50_2 C 0.4413(5) 0.4476(8) 0.7402(11)
H30_2 H 0.440362 0.439200 0.881780
H31_2 H 0.427386 0.464595 0.603325
C51_2 C 0.8111(7) 0.3786(8) 0.9760(14)
C52_2 C 0.7175(6) 0.3787(10) 0.9609(11)
C55_2 C 0.4963(12) 0.4209(14) 0.730(3)
C56_2 C 0.8142(6) 0.3501(8) 0.8916(14)
C57_2 C 0.7193(6) 0.3503(10) 0.8739(16)
H34_2 H 0.683919 0.389918 0.983033
O29_2 O 0.5039(5) 0.4075(6) 0.6478(10)
C60_2 C 0.7719(5) 0.3359(8) 0.8442(11)
C61_2 C 0.8670(6) 0.3309(9) 0.8552(12)
C62_2 C 0.6733(6) 0.3351(9) 0.8291(15)
H39_2 H 0.776060 0.315700 0.789123
O31_2 O 0.8702(4) 0.3061(5) 0.7855(8)
O33_2 O 0.6772(3) 0.3075(6) 0.7516(8)
O42_2 O 0.5498(4) 0.250000 0.5808(8)
O44_2 O 0.4702(8) 0.2946(10) 0.4514(13)
O45_2 O 0.5579(7) 0.3616(8) 0.4941(12)
Y17_2 Y 0.62364(7) 0.250000 0.67568(14)
H40_2 H 0.590142 0.350604 0.683663
O52_2 O 0.4702(8) 0.2054(10) 0.4514(13)
Y9_2 Y 0.95683(6) 0.82648(9) 0.36193(12)
O18_2 O 0.9283(5) 0.7014(9) 0.5041(9)
C29_2 C 0.9128(15) 0.750000 0.544(3)
O37_2 O 0.9130(4) 0.750000 0.3181(9)
O49_2 O 0.9283(5) 0.7986(9) 0.5041(9)
H45_2 H 0.888434 0.75 0.606723
C18_3 C 0.1522(5) 0.0019(8) 0.2699(11)
H8_3 H 0.151284 0.010339 0.128289
H20_3 H 0.063025 0.250000 0.985029
C37_3 C 0.2017(7) 0.0362(10) 0.2848(12)
C39_3 C 0.2103(7) 0.0535(10) 0.3755(12)
C40_3 C 0.2368(7) 0.0460(10) 0.2182(12)
C43_3 C 0.2551(8) 0.0822(11) 0.3957(12)
H26_3 H 0.185512 0.045624 0.423415
H27_3 H 0.230096 0.032885 0.157316
C44_3 C 0.2815(7) 0.0737(11) 0.2321(12)
C47_3 C 0.2624(6) 0.1092(10) 0.4852(14)
C48_3 C 0.2917(7) 0.0968(10) 0.3215(12)
C49_3 C 0.3202(9) 0.0925(13) 0.1558(14)
C51_3 C 0.3111(7) 0.1214(8) 0.5240(14)
C52_3 C 0.2175(6) 0.1213(10) 0.5391(11)
H32_3 H 0.320315 0.120031 0.331684
C53_3 C 0.2977(8) 0.1107(13) 0.0727(14)
C54_3 C 0.3718(8) 0.0928(12) 0.1711(14)
H33_3 H 0.342685 0.110580 0.493705
C56_3 C 0.3142(6) 0.1499(8) 0.6084(14)
C57_3 C 0.2193(6) 0.1497(10) 0.6261(16)
H34_3 H 0.183919 0.110082 0.516967
C58_3 C 0.3354(8) 0.1267(12) 0.0038(14)
H35_3 H 0.260539 0.112313 0.062923
C59_3 C 0.4091(8) 0.1121(12) 0.1115(13)
H36_3 H 0.383931 0.078312 0.228265
O29_3 O 0.0039(5) 0.0925(6) 0.8522(10)
O30_2 O 0.0288(7) 0.0902(8) 0.6973(13)
C60_3 C 0.2719(5) 0.1641(8) 0.6558(11)
C61_3 C 0.3670(6) 0.1691(9) 0.6448(12)
C62_3 C 0.1733(6) 0.1649(9) 0.6709(15)
C63_3 C 0.3865(9) 0.1307(13) 0.0204(14)
H38_3 H 0.445666 0.113729 0.126244
H39_3 H 0.276060 0.184300 0.710877
O32_2 O 0.4078(5) 0.1531(6) 0.5979(9)
O34_2 O 0.1288(4) 0.1493(7) 0.6441(9)
H40_3 H 0.090142 0.149396 0.816337
H48_2 H 0.0888821 0.125578 0.970076
H37_3 H 0.322883 0.134855 0.942967
C64_3 C 0.4214(9) 0.1621(14) 0.9503(16)
O48_2 O 0.5288(7) 0.0902(8) 0.8027(13)
O51_3 O 0.4736(5) 0.1477(7) 0.9518(10)
O56_2 O 0.5683(3) 0.1809(5) 0.6973(7)
O57_2 O 0.6288(4) 0.1493(7) 0.8559(9)
O12_2 O 0.0922(5) 0.8469(6) 0.0979(9)
C3_3 C 0.0037(12) 0.9209(14) 0.230(3)
C6_3 C 0.0587(5) 0.9476(8) 0.2402(11)
C9_3 C 0.0859(6) 0.9687(8) 0.1649(8)
C10_3 C 0.0782(6) 0.9536(8) 0.3303(9)
C14_3 C 0.1327(6) 0.9959(8) 0.1797(9)
H5_3 H 0.072614 0.964595 0.103325
C15_3 C 0.1250(6) 0.9808(8) 0.3452(8)
H6_3 H 0.059638 0.939200 0.381780
H9_3 H 0.138309 0.984945 0.406744
C30_3 C 0.962(2) 0.250000 0.088(3)
C31_3 C 0.9333(11) 0.250000 0.1777(17)
C32_3 C 0.9685(7) 0.250000 0.260(2)
C33_3 C 0.8764(10) 0.250000 0.1768(19)
C34_3 C 0.9498(12) 0.250000 0.351(2)
C35_3 C 0.8553(14) 0.250000 0.274(2)
H21_3 H 0.855303 0.250000 0.121903
C36_3 C 0.8917(11) 0.250000 0.3546(17)
H22_3 H 0.971906 0.250000 0.404716
H23_3 H 0.818186 0.250000 0.283634
H24_3 H 0.875987 0.250000 0.414811
O44_3 O 0.9702(8) 0.2054(10) 0.0486(13)
H19_3 H 0.921567 0.250000 0.899802
C41_3 C 0.8750(6) 0.0192(8) 0.6548(8)
C42_3 C 0.8673(6) 0.0041(8) 0.8203(9)
H28_3 H 0.861691 0.015055 0.593256
C45_3 C 0.9218(6) 0.0464(8) 0.6697(9)
C46_3 C 0.9141(6) 0.0313(8) 0.8351(8)
C50_3 C 0.9413(5) 0.0524(8) 0.7598(11)
H30_3 H 0.940362 0.060800 0.618220
H31_3 H 0.927386 0.035405 0.896675
C55_3 C 0.9963(12) 0.0791(14) 0.770(3)
Y12_2 Y 0.99709(5) 0.17643(8) 0.90326(11)
O46_2 O 0.9784(3) 0.1836(5) 0.7454(6)
O47_2 O 0.9078(5) 0.1531(6) 0.9021(9)
H17_3 H 0.677117 0.865145 0.057033
C28_3 C 0.5786(9) 0.8379(14) 0.0497(16)
O17_3 O 0.5264(5) 0.8523(7) 0.0482(10)
O28 O 0.6009(4) 0.8076(6) 0.0972(7)
O36 O 0.5216(3) 0.8164(5) 0.2454(6)
O39_2 O 0.3712(4) 0.8507(7) 0.1441(9)
O40_2 O 0.4712(7) 0.9098(8) 0.1973(13)
O2_3 O 0.8228(3) 0.8075(6) 0.2516(8)
O3_3 O 0.8425(6) 0.7997(9) 0.0515(12)
O4_2 O 0.9317(3) 0.8191(5) 0.1973(7)
H1_3 H 0.881417 0.750000 0.360125
C1_3 C 0.8267(6) 0.8351(9) 0.3291(15)
H2_3 H 0.909858 0.850604 0.183663
O6_2 O 0.8712(4) 0.8507(7) 0.3559(9)
O7_2 O 0.9712(7) 0.9098(8) 0.3027(13)
C2_3 C 0.7807(6) 0.8503(10) 0.3739(16)
O9_3 O 0.9961(5) 0.9075(6) 0.1478(10)
C4_3 C 0.7281(5) 0.8359(8) 0.3442(11)
C5_3 C 0.7825(6) 0.8787(10) 0.4609(11)
H3_3 H 0.723940 0.815700 0.289123
C7_3 C 0.6858(6) 0.8501(8) 0.3916(14)
H4_3 H 0.816081 0.889918 0.483033
C8_3 C 0.7376(6) 0.8908(10) 0.5148(14)
C11_3 C 0.6889(7) 0.8786(8) 0.4760(14)
C12_3 C 0.6330(6) 0.8309(9) 0.3552(12)
C13_3 C 0.7449(8) 0.9178(11) 0.6043(12)
H7_3 H 0.657315 0.889420 0.506295
O14_3 O 0.6298(4) 0.8061(5) 0.2855(8)
C16_3 C 0.7083(7) 0.9032(10) 0.6785(12)
C17_3 C 0.7897(7) 0.9465(10) 0.6245(12)
H10_3 H 0.679685 0.879969 0.668316
C19_3 C 0.7185(7) 0.9263(11) 0.7679(12)
C20_3 C 0.7983(7) 0.9638(10) 0.7152(12)
H11_3 H 0.814488 0.954376 0.576585
C21_3 C 0.7632(7) 0.9540(10) 0.7818(12)
C22_3 C 0.6798(9) 0.9075(13) 0.8442(14)
H12_3 H 0.519101 0.750000 0.051545
H13_3 H 0.544103 0.847619 0.234132
H14_3 H 0.769904 0.967115 0.842684
C23_3 C 0.7023(8) 0.8893(13) 0.9273(14)
C24_3 C 0.6282(8) 0.9072(12) 0.8289(14)
C25_3 C 0.6646(8) 0.8733(12) 0.9962(14)
H15_3 H 0.739461 0.887687 0.937077
C26_3 C 0.5909(8) 0.8879(12) 0.8885(13)
H16_3 H 0.616069 0.921688 0.771735
C27_3 C 0.6135(9) 0.8693(13) 0.9796(14)
H18_3 H 0.554334 0.886271 0.873756
O18_3 O 0.4283(5) 0.7986(9) 0.9959(9)
C29_3 C 0.4128(15) 0.750000 0.956(3)
O19_3 O 0.8425(6) 0.7003(9) 0.0515(12)
O22_2 O 0.5922(5) 0.8469(6) 0.4021(9)
Y6_2 Y 0.50291(5) 0.82357(8) 0.40326(11)
C38_3 C 0.8478(5) 0.9981(8) 0.7301(11)
H25_3 H 0.544103 0.652381 0.234132
H29_3 H 0.848716 0.989661 0.871711
H41_2 H 0.927617 0.893718 0.0226038
H45_3 H 0.388434 0.75 0.893277
O18_4 O 0.0717(5) 0.2014(9) 0.4959(9)
C29_4 C 0.0872(15) 0.250000 0.456(3)
H45_4 H 0.111566 0.25 0.393277
C8_4 C 0.7624(6) 0.1092(10) 0.0148(14)
C13_4 C 0.7551(8) 0.0822(11) 0.1043(12)
H7_4 H 0.842685 0.110580 0.006295
C16_4 C 0.7917(7) 0.0968(10) 0.1785(12)
C17_4 C 0.7103(7) 0.0535(10) 0.1245(12)
H10_4 H 0.820315 0.120031 0.168316
C19_4 C 0.7815(7) 0.0737(11) 0.2679(12)
C20_4 C 0.7017(7) 0.0362(10) 0.2152(12)
H11_4 H 0.685512 0.045624 0.076585
C21_4 C 0.7368(7) 0.0460(10) 0.2818(12)
C22_4 C 0.8202(9) 0.0925(13) 0.3442(14)
H14_4 H 0.730096 0.032885 0.342684
C23_4 C 0.7977(8) 0.1107(13) 0.4273(14)
C24_4 C 0.8718(8) 0.0928(12) 0.3289(14)
C25_4 C 0.8354(8) 0.1267(12) 0.4962(14)
H15_4 H 0.760539 0.112313 0.437077
C26_4 C 0.9091(8) 0.1121(12) 0.3885(13)
H16_4 H 0.883931 0.078312 0.271735
C27_4 C 0.8865(9) 0.1307(13) 0.4796(14)
H17_4 H 0.822883 0.134855 0.557033
H18_4 H 0.945666 0.113729 0.373756
C28_4 C 0.9214(9) 0.1621(14) 0.5497(16)
O17_4 O 0.9736(5) 0.1477(7) 0.5482(10)
C38_4 C 0.6522(5) 0.0019(8) 0.2301(11)
H29_4 H 0.651284 0.010339 0.371711
O28_2 O 0.8991(4) 0.1924(6) 0.5972(7)
O2_4 O 0.6772(3) 0.1925(6) 0.7516(8)
O3_4 O 0.6575(6) 0.2003(9) 0.5515(12)
H1_4 H 0.618583 0.250000 0.860125
C1_4 C 0.6733(6) 0.1649(9) 0.8291(15)
H2_4 H 0.590142 0.149396 0.683663
C2_4 C 0.7193(6) 0.1497(10) 0.8739(16)
O9_4 O 0.5039(5) 0.0925(6) 0.6478(10)
O10_3 O 0.5579(7) 0.1384(8) 0.4941(12)
C3_4 C 0.4963(12) 0.0791(14) 0.730(3)
C4_4 C 0.7719(5) 0.1641(8) 0.8442(11)
C5_4 C 0.7175(6) 0.1213(10) 0.9609(11)
C6_4 C 0.4413(5) 0.0524(8) 0.7402(11)
H3_4 H 0.776060 0.184300 0.789123
C7_4 C 0.8142(6) 0.1499(8) 0.8916(14)
H4_4 H 0.683919 0.110082 0.983033
C9_4 C 0.4141(6) 0.0313(8) 0.6649(8)
C10_4 C 0.4218(6) 0.0464(8) 0.8303(9)
C11_4 C 0.8111(7) 0.1214(8) 0.9760(14)
C12_4 C 0.8670(6) 0.1691(9) 0.8552(12)
C14_4 C 0.3673(6) 0.0041(8) 0.6797(9)
H5_4 H 0.427386 0.035405 0.603325
C15_4 C 0.3750(6) 0.0192(8) 0.8452(8)
H6_4 H 0.440362 0.060800 0.881780
O14_4 O 0.8702(4) 0.1939(5) 0.7855(8)
H9_4 H 0.361691 0.015055 0.906744
H12_4 H 0.980899 0.250000 0.551545
H13_4 H 0.955897 0.152381 0.734132
O19_4 O 0.6575(6) 0.2997(9) 0.5515(12)
H25_4 H 0.955897 0.347619 0.734132
H19_4 H 0.578433 0.750000 0.399802
H20_4 H 0.436975 0.750000 0.485029
C30_4 C 0.538(2) 0.750000 0.588(3)
C31_4 C 0.5667(11) 0.750000 0.6777(17)
C32_4 C 0.5315(7) 0.750000 0.760(2)
C33_4 C 0.6236(10) 0.750000 0.6768(19)
F1_3 F 0.4803(7) 0.750000 0.7491(14)
C34_4 C 0.5502(12) 0.750000 0.851(2)
C35_4 C 0.6447(14) 0.750000 0.774(2)
H21_4 H 0.644697 0.750000 0.621903
C36_4 C 0.6083(11) 0.750000 0.8546(17)
H22_4 H 0.528094 0.750000 0.904716
H23_4 H 0.681814 0.750000 0.783634
H24_4 H 0.624013 0.750000 0.914811
C41_4 C 0.6250(6) 0.9808(8) 0.1548(8)
C42_4 C 0.6327(6) 0.9959(8) 0.3203(9)
H28_4 H 0.638309 0.984945 0.093256
C45_4 C 0.5782(6) 0.9536(8) 0.1697(9)
C46_4 C 0.5859(6) 0.9687(8) 0.3351(8)
C50_4 C 0.5587(5) 0.9476(8) 0.2598(11)
H30_4 H 0.559638 0.939200 0.118220
H31_4 H 0.572614 0.964595 0.396675
C51_4 C 0.1889(7) 0.8786(8) 0.0240(14)
C52_4 C 0.2825(6) 0.8787(10) 0.0391(11)
C55_4 C 0.5037(12) 0.9209(14) 0.270(3)
C56_4 C 0.1858(6) 0.8501(8) 0.1084(14)
C57_4 C 0.2807(6) 0.8503(10) 0.1261(16)
H34_4 H 0.316081 0.889918 0.016967
O29_4 O 0.4961(5) 0.9075(6) 0.3522(10)
C60_4 C 0.2281(5) 0.8359(8) 0.1558(11)
C61_4 C 0.1330(6) 0.8309(9) 0.1448(12)
C62_4 C 0.3267(6) 0.8351(9) 0.1709(15)
H39_4 H 0.223940 0.815700 0.210877
O44_4 O 0.5298(8) 0.7946(10) 0.5486(13)
O45_3 O 0.4421(7) 0.8616(8) 0.5059(12)
H40_4 H 0.409858 0.850604 0.316337
C18_4 C 0.3478(5) 0.9981(8) 0.7699(11)
H8_4 H 0.348716 0.989661 0.628289
C37_4 C 0.2983(7) 0.9638(10) 0.7848(12)
C39_4 C 0.2897(7) 0.9465(10) 0.8755(12)
C40_4 C 0.2632(7) 0.9540(10) 0.7182(12)
C43_4 C 0.2449(8) 0.9178(11) 0.8957(12)
H26_4 H 0.314488 0.954376 0.923415
H27_4 H 0.269904 0.967115 0.657316
C44_4 C 0.2185(7) 0.9263(11) 0.7321(12)
C47_4 C 0.2376(6) 0.8908(10) 0.9852(14)
C48_4 C 0.2083(7) 0.9032(10) 0.8215(12)
C49_4 C 0.1798(9) 0.9075(13) 0.6558(14)
H32_4 H 0.179685 0.879969 0.831684
C53_4 C 0.2023(8) 0.8893(13) 0.5727(14)
C54_4 C 0.1282(8) 0.9072(12) 0.6711(14)
H33_4 H 0.157315 0.889420 0.993705
C58_4 C 0.1646(8) 0.8733(12) 0.5038(14)
H35_4 H 0.239461 0.887687 0.562923
C59_4 C 0.0909(8) 0.8879(12) 0.6115(13)
H36_4 H 0.116069 0.921688 0.728265
C63_4 C 0.1135(9) 0.8693(13) 0.5204(14)
H37_4 H 0.177117 0.865145 0.442967
H38_4 H 0.054334 0.886271 0.626244
C64_4 C 0.0786(9) 0.8379(14) 0.4503(16)
O51_4 O 0.0264(5) 0.8523(7) 0.4518(10)
H48_3 H 0.0888821 0.374422 0.970076
H41_3 H 0.927617 0.606282 0.0226038
H41_4 H 0.0723832 0.106282 0.977396
H48_4 H 0.911118 0.874422 0.0299236
F1_4 F 0.9803(7) 0.750000 0.7509(14)
O45_4 O 0.9421(7) 0.6384(8) 0.9941(12)
H49_3 H 0.930245 0.664576 0.947717
O10_4 O 0.9421(7) 0.8616(8) 0.9941(12)
H42_3 H 0.960089 0.870326 0.934477
H42_4 H 0.960089 0.629674 0.934477
H49_4 H 0.930245 0.835424 0.947717
loop_
_geom_bond_atom_site_label_1
_geom_bond_atom_site_label_2
_geom_bond_site_symmetry_1
_geom_bond_site_symmetry_2
O10 H42 1_555 1_555
O45 H49 1_555 1_555
O10 H49_2 1_555 1_555
O45 H42_2 1_555 1_555
Y1 O1 1_555 1_555
O1 H1 1_555 1_555
O2 Y1 1_555 1_555
O3 Y1 1_555 1_555
O4 Y1 1_555 1_555
O5 Y1 1_555 1_555
Y2 O1 1_555 1_555
C1 O2 1_555 1_555
H2 O4 1_555 1_555
O6 C1 1_555 1_555
C2 C1 1_555 1_555
C4 C2 1_555 1_555
C5 C2 1_555 1_555
H3 C4 1_555 1_555
C7 C4 1_555 1_555
H4 C5 1_555 1_555
C8 C5 1_555 1_555
C11 C7 1_555 1_555
C12 C7 1_555 1_555
C13 C8 1_555 1_555
H7 C11 1_555 1_555
O14 C12 1_555 1_555
C16 C13 1_555 1_555
C17 C13 1_555 1_555
Y4 O14 1_555 1_555
H10 C16 1_555 1_555
C19 C16 1_555 1_555
C20 C17 1_555 1_555
H11 C17 1_555 1_555
O15 Y4 1_555 1_555
O16 Y4 1_555 1_555
C21 C19 1_555 1_555
C22 C19 1_555 1_555
H12 O15 1_555 1_555
H13 O24 1_555 1_555
H14 C21 1_555 1_555
C23 C22 1_555 1_555
C24 C22 1_555 1_555
C25 C23 1_555 1_555
H15 C23 1_555 1_555
C26 C24 1_555 1_555
H16 C24 1_555 1_555
C27 C25 1_555 1_555
H18 C26 1_555 1_555
O18 C29 1_555 1_555
C29 O49 1_555 1_555
H19 O41 1_555 1_555
O19 Y1 1_555 1_555
O20 Y1 1_555 1_555
O21 Y1 1_555 1_555
Y5 O1 1_555 1_555
O22 C12 1_555 1_555
O23 Y4 1_555 1_555
Y6 O22 1_555 1_555
Y7 O25 1_555 1_555
O24 Y4 1_555 1_555
O25 Y4 1_555 1_555
O26 Y4 1_555 1_555
O27 Y4 1_555 1_555
C38 C20 1_555 1_555
Y8 O15 1_555 1_555
Y9 O15 1_555 1_555
H25 O25 1_555 1_555
C41 C38 1_555 1_555
C42 C38 1_555 1_555
H28 C41 1_555 1_555
C45 C41 1_555 1_555
H29 C42 1_555 1_555
C46 C42 1_555 1_555
C50 C45 1_555 1_555
H30 C45 1_555 1_555
H31 C46 1_555 1_555
C55 C50 1_555 1_555
O41 Y12 1_555 1_555
O46 Y12 1_555 1_555
O47 Y12 1_555 1_555
Y18 O41 1_555 1_555
Y19 O41 1_555 1_555
O4 Y5 1_555 1_555
Y2 O20 1_555 1_555
O6 Y5 1_555 1_555
O7 Y5 1_555 1_555
C8 C11 1_555 1_555
C20 C21 1_555 1_555
C26 C27 1_555 1_555
Y6 O24 1_555 1_555
Y6 O26 1_555 1_555
Y7 O26 1_555 1_555
O24 Y8 1_555 1_555
O25 Y9 1_555 1_555
C46 C50 1_555 1_555
O46 Y18 1_555 1_555
C29 H45 1_555 1_555
O17 C28 1_555 1_555
C30 C31 1_555 1_555
C31 C32 1_555 1_555
C33 C31 1_555 1_555
C34 C32 1_555 1_555
C35 C33 1_555 1_555
H21 C33 1_555 1_555
C36 C34 1_555 1_555
H22 C34 1_555 1_555
H23 C35 1_555 1_555
H24 C36 1_555 1_555
O16 C28 1_555 1_555
Y8 O17 1_555 1_555
O37 Y8 1_555 1_555
O38 Y8 1_555 1_555
O39 Y8 1_555 1_555
O40 Y8 1_555 1_555
O44 C30 1_555 1_555
O52 C30 1_555 1_555
C35 C36 1_555 1_555
Y9 O37 1_555 1_555
O48 Y20 1_555 1_555
O50 C64 1_555 1_555
O51 C64 1_555 1_555
Y20 O51 1_555 1_555
Y21 O50 1_555 1_555
O53 Y20 1_555 1_555
O54 Y20 1_555 1_555
O55 Y20 1_555 1_555
O56 Y20 1_555 1_555
O57 Y20 1_555 1_555
Y21 O53 1_555 1_555
Y21 O54 1_555 1_555
O8 Y3 1_555 1_555
O11 Y3 1_555 1_555
O12 Y3 1_555 1_555
C6 C3 1_555 1_555
C9 C6 1_555 1_555
C10 C6 1_555 1_555
C14 C9 1_555 1_555
H5 C9 1_555 1_555
C15 C10 1_555 1_555
H6 C10 1_555 1_555
C18 C14 1_555 1_555
H8 C14 1_555 1_555
H9 C15 1_555 1_555
H20 O42 1_555 1_555
C37 C18 1_555 1_555
C39 C37 1_555 1_555
C40 C37 1_555 1_555
C43 C39 1_555 1_555
H26 C39 1_555 1_555
H27 C40 1_555 1_555
C44 C40 1_555 1_555
C47 C43 1_555 1_555
C48 C43 1_555 1_555
C49 C44 1_555 1_555
C51 C47 1_555 1_555
C52 C47 1_555 1_555
H32 C48 1_555 1_555
C53 C49 1_555 1_555
C54 C49 1_555 1_555
H33 C51 1_555 1_555
C56 C51 1_555 1_555
C57 C52 1_555 1_555
H34 C52 1_555 1_555
C58 C53 1_555 1_555
H35 C53 1_555 1_555
C59 C54 1_555 1_555
H36 C54 1_555 1_555
C60 C56 1_555 1_555
C61 C56 1_555 1_555
C62 C57 1_555 1_555
C63 C58 1_555 1_555
H38 C59 1_555 1_555
Y13 O30 1_555 1_555
H39 C60 1_555 1_555
O31 C61 1_555 1_555
O32 C61 1_555 1_555
O33 C62 1_555 1_555
O34 C62 1_555 1_555
Y21 O31 1_555 1_555
Y16 O32 1_555 1_555
Y17 O33 1_555 1_555
H40 O43 1_555 1_555
C15 C18 1_555 1_555
C44 C48 1_555 1_555
C57 C60 1_555 1_555
C59 C63 1_555 1_555
Y13 O34 1_555 1_555
Y13 O43 1_555 1_555
O42 Y17 1_555 1_555
O43 Y17 1_555 1_555
O58_2 Y5 1_555 1_555
Y1_2 O55 1_555 1_555
O55 H1_2 1_555 1_555
O2_2 Y1_2 1_555 1_555
O3_2 Y1_2 1_555 1_555
O56 Y1_2 1_555 1_555
O5_2 Y1_2 1_555 1_555
Y2_2 O55 1_555 1_555
C1_2 O2_2 1_555 1_555
Y16 O56 1_555 1_555
H2_2 O56 1_555 1_555
O57 C1_2 1_555 1_555
O48 C3_2 1_555 1_555
O54 Y16 1_555 1_555
C2_2 C1_2 1_555 1_555
O9_2 Y16 1_555 1_555
O10_2 Y16 1_555 1_555
O11_2 Y16 1_555 1_555
O13_2 Y16 1_555 1_555
C3_2 O9_2 1_555 1_555
C4_2 C2_2 1_555 1_555
C5_2 C2_2 1_555 1_555
C6_2 C3_2 1_555 1_555
H3_2 C4_2 1_555 1_555
C7_2 C4_2 1_555 1_555
H4_2 C5_2 1_555 1_555
C9_2 C6_2 1_555 1_555
C10_2 C6_2 1_555 1_555
C11_2 C7_2 1_555 1_555
C12_2 C7_2 1_555 1_555
C14_2 C9_2 1_555 1_555
H5_2 C9_2 1_555 1_555
C15_2 C10_2 1_555 1_555
H6_2 C10_2 1_555 1_555
O14_2 C12_2 1_555 1_555
C18_2 C14_2 1_555 1_555
H8_2 C14_2 1_555 1_555
H9_2 C15_2 1_555 1_555
Y18 O14_2 1_555 1_555
O15_2 Y18 1_555 1_555
O16_2 Y18 1_555 1_555
H12_2 O15_2 1_555 1_555
H13_2 O46 1_555 1_555
O19_2 Y1_2 1_555 1_555
O20_2 Y1_2 1_555 1_555
O21_2 Y1_2 1_555 1_555
O47 C12_2 1_555 1_555
O23_2 Y18 1_555 1_555
Y19 O25_2 1_555 1_555
C37_2 C18_2 1_555 1_555
O25_2 Y18 1_555 1_555
O27_2 Y18 1_555 1_555
C39_2 C37_2 1_555 1_555
C40_2 C37_2 1_555 1_555
H25_2 O25_2 1_555 1_555
C43_2 C39_2 1_555 1_555
H26_2 C39_2 1_555 1_555
H27_2 C40_2 1_555 1_555
C44_2 C40_2 1_555 1_555
C47_2 C43_2 1_555 1_555
C48_2 C43_2 1_555 1_555
C49_2 C44_2 1_555 1_555
H32_2 C48_2 1_555 1_555
C53_2 C49_2 1_555 1_555
C54_2 C49_2 1_555 1_555
C58_2 C53_2 1_555 1_555
H35_2 C53_2 1_555 1_555
C59_2 C54_2 1_555 1_555
H36_2 C54_2 1_555 1_555
C63_2 C58_2 1_555 1_555
H37_2 C58_2 1_555 1_555
H38_2 C59_2 1_555 1_555
C64_2 C63_2 1_555 1_555
O50_2 C64_2 1_555 1_555
O51_2 C64_2 1_555 1_555
Y21_2 O50_2 1_555 1_555
O5_2 Y16 1_555 1_555
Y2_2 O20_2 1_555 1_555
C15_2 C18_2 1_555 1_555
C44_2 C48_2 1_555 1_555
C59_2 C63_2 1_555 1_555
Y21_2 O53_2 1_555 1_555
Y21_2 O8 1_555 1_555
C13_2 C8_2 1_555 1_555
C16_2 C13_2 1_555 1_555
C17_2 C13_2 1_555 1_555
H10_2 C16_2 1_555 1_555
C19_2 C16_2 1_555 1_555
C20_2 C17_2 1_555 1_555
H11_2 C17_2 1_555 1_555
C21_2 C19_2 1_555 1_555
C22_2 C19_2 1_555 1_555
H14_2 C21_2 1_555 1_555
C23_2 C22_2 1_555 1_555
C24_2 C22_2 1_555 1_555
C25_2 C23_2 1_555 1_555
H15_2 C23_2 1_555 1_555
C26_2 C24_2 1_555 1_555
H16_2 C24_2 1_555 1_555
C27_2 C25_2 1_555 1_555
H17_2 C25_2 1_555 1_555
H18_2 C26_2 1_555 1_555
C28_2 C27_2 1_555 1_555
O17_2 C28_2 1_555 1_555
H19_2 O26 1_555 1_555
H20_2 O42_2 1_555 1_555
C30_2 C31_2 1_555 1_555
C31_2 C32_2 1_555 1_555
C32_2 F1_2 1_555 1_555
C33_2 C31_2 1_555 1_555
C34_2 C32_2 1_555 1_555
C35_2 C33_2 1_555 1_555
H21_2 C33_2 1_555 1_555
C36_2 C34_2 1_555 1_555
H22_2 C34_2 1_555 1_555
H23_2 C35_2 1_555 1_555
H24_2 C36_2 1_555 1_555
C38_2 C20_2 1_555 1_555
C41_2 C38_2 1_555 1_555
C42_2 C38_2 1_555 1_555
H28_2 C41_2 1_555 1_555
C45_2 C41_2 1_555 1_555
H29_2 C42_2 1_555 1_555
C46_2 C42_2 1_555 1_555
C50_2 C45_2 1_555 1_555
H30_2 C45_2 1_555 1_555
H31_2 C46_2 1_555 1_555
C55_2 C50_2 1_555 1_555
C56_2 C51_2 1_555 1_555
C57_2 C52_2 1_555 1_555
H34_2 C52_2 1_555 1_555
O16_2 C28_2 1_555 1_555
O29_2 C55_2 1_555 1_555
O40 C55_2 1_555 1_555
C60_2 C56_2 1_555 1_555
C61_2 C56_2 1_555 1_555
C62_2 C57_2 1_555 1_555
Y6 O29_2 1_555 1_555
H39_2 C60_2 1_555 1_555
O31_2 C61_2 1_555 1_555
O12 C61_2 1_555 1_555
O33_2 C62_2 1_555 1_555
O39 C62_2 1_555 1_555
O42_2 Y6 1_555 1_555
O38 Y6 1_555 1_555
O44_2 C30_2 1_555 1_555
O45_2 Y6 1_555 1_555
Y21_2 O31_2 1_555 1_555
Y17_2 O33_2 1_555 1_555
H40_2 O38 1_555 1_555
O52_2 C30_2 1_555 1_555
C20_2 C21_2 1_555 1_555
C26_2 C27_2 1_555 1_555
C35_2 C36_2 1_555 1_555
C46_2 C50_2 1_555 1_555
C57_2 C60_2 1_555 1_555
Y6 O44_2 1_555 1_555
O42_2 Y17_2 1_555 1_555
O42_2 Y7 1_555 1_555
O38 Y17_2 1_555 1_555
Y7 O52_2 1_555 1_555
O18_2 C29_2 1_555 1_555
C29_2 O49_2 1_555 1_555
O37_2 Y13 1_555 1_555
O49_2 Y9_2 1_555 1_555
O18_2 Y13 1_555 1_555
Y9_2 O37_2 1_555 1_555
C29_2 H45_2 1_555 1_555
H20_3 O5 1_555 1_555
C37_3 C18_3 1_555 1_555
C39_3 C37_3 1_555 1_555
C40_3 C37_3 1_555 1_555
C43_3 C39_3 1_555 1_555
H26_3 C39_3 1_555 1_555
H27_3 C40_3 1_555 1_555
C44_3 C40_3 1_555 1_555
C47_3 C43_3 1_555 1_555
C48_3 C43_3 1_555 1_555
C49_3 C44_3 1_555 1_555
C51_3 C47_3 1_555 1_555
C52_3 C47_3 1_555 1_555
H32_3 C48_3 1_555 1_555
C53_3 C49_3 1_555 1_555
C54_3 C49_3 1_555 1_555
H33_3 C51_3 1_555 1_555
C56_3 C51_3 1_555 1_555
C57_3 C52_3 1_555 1_555
H34_3 C52_3 1_555 1_555
C58_3 C53_3 1_555 1_555
H35_3 C53_3 1_555 1_555
C59_3 C54_3 1_555 1_555
H36_3 C54_3 1_555 1_555
C60_3 C56_3 1_555 1_555
C61_3 C56_3 1_555 1_555
C62_3 C57_3 1_555 1_555
C63_3 C58_3 1_555 1_555
H38_3 C59_3 1_555 1_555
Y2 O30_2 1_555 1_555
H39_3 C60_3 1_555 1_555
O23 C61_3 1_555 1_555
O32_2 C61_3 1_555 1_555
O21 C62_3 1_555 1_555
O34_2 C62_3 1_555 1_555
Y7 O32_2 1_555 1_555
H40_3 O20 1_555 1_555
C44_3 C48_3 1_555 1_555
C57_3 C60_3 1_555 1_555
C59_3 C63_3 1_555 1_555
Y2 O34_2 1_555 1_555
O48_2 Y9 1_555 1_555
O27 C64_3 1_555 1_555
O51_3 C64_3 1_555 1_555
Y9 O51_3 1_555 1_555
O56_2 Y9 1_555 1_555
O57_2 Y9 1_555 1_555
O12_2 Y19 1_555 1_555
C6_3 C3_3 1_555 1_555
C9_3 C6_3 1_555 1_555
C10_3 C6_3 1_555 1_555
C14_3 C9_3 1_555 1_555
H5_3 C9_3 1_555 1_555
C15_3 C10_3 1_555 1_555
H6_3 C10_3 1_555 1_555
H9_3 C15_3 1_555 1_555
C30_3 C31_3 1_555 1_555
C31_3 C32_3 1_555 1_555
C33_3 C31_3 1_555 1_555
C34_3 C32_3 1_555 1_555
C35_3 C33_3 1_555 1_555
H21_3 C33_3 1_555 1_555
C36_3 C34_3 1_555 1_555
H22_3 C34_3 1_555 1_555
H23_3 C35_3 1_555 1_555
H24_3 C36_3 1_555 1_555
O44_3 C30_3 1_555 1_555
O13 C30_3 1_555 1_555
C35_3 C36_3 1_555 1_555
H19_3 O11 1_555 1_555
H28_3 C41_3 1_555 1_555
C45_3 C41_3 1_555 1_555
C46_3 C42_3 1_555 1_555
C50_3 C45_3 1_555 1_555
H30_3 C45_3 1_555 1_555
H31_3 C46_3 1_555 1_555
C55_3 C50_3 1_555 1_555
O11 Y12_2 1_555 1_555
O46_2 Y12_2 1_555 1_555
O47_2 Y12_2 1_555 1_555
Y21_2 O11 1_555 1_555
C46_3 C50_3 1_555 1_555
O46_2 Y21_2 1_555 1_555
O17_3 C28_3 1_555 1_555
O28 C28_3 1_555 1_555
Y21 O28 1_555 1_555
Y2_2 O17_3 1_555 1_555
O36 Y21 1_555 1_555
O39_2 Y2_2 1_555 1_555
O40_2 Y2_2 1_555 1_555
Y2_2 O53 1_555 1_555
Y2_2 O36 1_555 1_555
Y17 O37_2 1_555 1_555
O37_2 H1_3 1_555 1_555
O2_3 Y17 1_555 1_555
O3_3 Y17 1_555 1_555
O4_2 Y17 1_555 1_555
C1_3 O2_3 1_555 1_555
H2_3 O4_2 1_555 1_555
O6_2 C1_3 1_555 1_555
C2_3 C1_3 1_555 1_555
C4_3 C2_3 1_555 1_555
C5_3 C2_3 1_555 1_555
H3_3 C4_3 1_555 1_555
C7_3 C4_3 1_555 1_555
H4_3 C5_3 1_555 1_555
C8_3 C5_3 1_555 1_555
C11_3 C7_3 1_555 1_555
C12_3 C7_3 1_555 1_555
C13_3 C8_3 1_555 1_555
H7_3 C11_3 1_555 1_555
O14_3 C12_3 1_555 1_555
C16_3 C13_3 1_555 1_555
C17_3 C13_3 1_555 1_555
Y21 O14_3 1_555 1_555
H10_3 C16_3 1_555 1_555
C19_3 C16_3 1_555 1_555
C20_3 C17_3 1_555 1_555
H11_3 C17_3 1_555 1_555
C21_3 C19_3 1_555 1_555
C22_3 C19_3 1_555 1_555
H12_3 O53 1_555 1_555
H13_3 O36 1_555 1_555
H14_3 C21_3 1_555 1_555
C23_3 C22_3 1_555 1_555
C24_3 C22_3 1_555 1_555
C25_3 C23_3 1_555 1_555
H15_3 C23_3 1_555 1_555
C26_3 C24_3 1_555 1_555
H16_3 C24_3 1_555 1_555
C27_3 C25_3 1_555 1_555
H18_3 C26_3 1_555 1_555
O18_3 C29_3 1_555 1_555
C29_3 O58 1_555 1_555
O19_3 Y17 1_555 1_555
O22_2 C12_3 1_555 1_555
Y6_2 O22_2 1_555 1_555
O11_2 Y21 1_555 1_555
C38_3 C20_3 1_555 1_555
H25_3 O54 1_555 1_555
O4_2 Y9_2 1_555 1_555
O6_2 Y9_2 1_555 1_555
O7_2 Y9_2 1_555 1_555
C8_3 C11_3 1_555 1_555
C20_3 C21_3 1_555 1_555
C26_3 C27_3 1_555 1_555
Y6_2 O36 1_555 1_555
Y6_2 O11_2 1_555 1_555
C29_3 H45_3 1_555 1_555
O18_4 C29_4 1_555 1_555
C29_4 O58_2 1_555 1_555
O18_4 Y2 1_555 1_555
C29_4 H45_4 1_555 1_555
C13_4 C8_4 1_555 1_555
C16_4 C13_4 1_555 1_555
C17_4 C13_4 1_555 1_555
H10_4 C16_4 1_555 1_555
C19_4 C16_4 1_555 1_555
C20_4 C17_4 1_555 1_555
H11_4 C17_4 1_555 1_555
C21_4 C19_4 1_555 1_555
C22_4 C19_4 1_555 1_555
H14_4 C21_4 1_555 1_555
C23_4 C22_4 1_555 1_555
C24_4 C22_4 1_555 1_555
C25_4 C23_4 1_555 1_555
H15_4 C23_4 1_555 1_555
C26_4 C24_4 1_555 1_555
H16_4 C24_4 1_555 1_555
C27_4 C25_4 1_555 1_555
H17_4 C25_4 1_555 1_555
H18_4 C26_4 1_555 1_555
C28_4 C27_4 1_555 1_555
O17_4 C28_4 1_555 1_555
C38_4 C20_4 1_555 1_555
O28_2 C28_4 1_555 1_555
Y21_2 O28_2 1_555 1_555
C20_4 C21_4 1_555 1_555
C26_4 C27_4 1_555 1_555
Y17_2 O37 1_555 1_555
O37 H1_4 1_555 1_555
O2_4 Y17_2 1_555 1_555
O3_4 Y17_2 1_555 1_555
O56_2 Y17_2 1_555 1_555
C1_4 O2_4 1_555 1_555
Y7 O56_2 1_555 1_555
H2_4 O56_2 1_555 1_555
O57_2 C1_4 1_555 1_555
O48_2 C3_4 1_555 1_555
C2_4 C1_4 1_555 1_555
O9_4 Y7 1_555 1_555
O10_3 Y7 1_555 1_555
C3_4 O9_4 1_555 1_555
C4_4 C2_4 1_555 1_555
C5_4 C2_4 1_555 1_555
C6_4 C3_4 1_555 1_555
H3_4 C4_4 1_555 1_555
C7_4 C4_4 1_555 1_555
H4_4 C5_4 1_555 1_555
C9_4 C6_4 1_555 1_555
C10_4 C6_4 1_555 1_555
C11_4 C7_4 1_555 1_555
C12_4 C7_4 1_555 1_555
C14_4 C9_4 1_555 1_555
H5_4 C9_4 1_555 1_555
C15_4 C10_4 1_555 1_555
H6_4 C10_4 1_555 1_555
O14_4 C12_4 1_555 1_555
H9_4 C15_4 1_555 1_555
Y21_2 O14_4 1_555 1_555
H12_4 O53_2 1_555 1_555
H13_4 O46_2 1_555 1_555
O19_4 Y17_2 1_555 1_555
O47_2 C12_4 1_555 1_555
H25_4 O8 1_555 1_555
H19_4 O11_2 1_555 1_555
H20_4 O5_2 1_555 1_555
C30_4 C31_4 1_555 1_555
C31_4 C32_4 1_555 1_555
C32_4 F1_3 1_555 1_555
C33_4 C31_4 1_555 1_555
C34_4 C32_4 1_555 1_555
C35_4 C33_4 1_555 1_555
H21_4 C33_4 1_555 1_555
C36_4 C34_4 1_555 1_555
H22_4 C34_4 1_555 1_555
H23_4 C35_4 1_555 1_555
H24_4 C36_4 1_555 1_555
H28_4 C41_4 1_555 1_555
C45_4 C41_4 1_555 1_555
C46_4 C42_4 1_555 1_555
C50_4 C45_4 1_555 1_555
H30_4 C45_4 1_555 1_555
H31_4 C46_4 1_555 1_555
C55_4 C50_4 1_555 1_555
C56_4 C51_4 1_555 1_555
C57_4 C52_4 1_555 1_555
H34_4 C52_4 1_555 1_555
O29_4 C55_4 1_555 1_555
O40_2 C55_4 1_555 1_555
C60_4 C56_4 1_555 1_555
C61_4 C56_4 1_555 1_555
C62_4 C57_4 1_555 1_555
Y6_2 O29_4 1_555 1_555
H39_4 C60_4 1_555 1_555
O23_2 C61_4 1_555 1_555
O12_2 C61_4 1_555 1_555
O21_2 C62_4 1_555 1_555
O39_2 C62_4 1_555 1_555
O5_2 Y6_2 1_555 1_555
O20_2 Y6_2 1_555 1_555
O44_4 C30_4 1_555 1_555
O45_3 Y6_2 1_555 1_555
H40_4 O20_2 1_555 1_555
O13_2 C30_4 1_555 1_555
C35_4 C36_4 1_555 1_555
C46_4 C50_4 1_555 1_555
C57_4 C60_4 1_555 1_555
Y6_2 O44_4 1_555 1_555
C37_4 C18_4 1_555 1_555
C39_4 C37_4 1_555 1_555
C40_4 C37_4 1_555 1_555
C43_4 C39_4 1_555 1_555
H26_4 C39_4 1_555 1_555
H27_4 C40_4 1_555 1_555
C44_4 C40_4 1_555 1_555
C47_4 C43_4 1_555 1_555
C48_4 C43_4 1_555 1_555
C49_4 C44_4 1_555 1_555
H32_4 C48_4 1_555 1_555
C53_4 C49_4 1_555 1_555
C54_4 C49_4 1_555 1_555
C58_4 C53_4 1_555 1_555
H35_4 C53_4 1_555 1_555
C59_4 C54_4 1_555 1_555
H36_4 C54_4 1_555 1_555
C63_4 C58_4 1_555 1_555
H37_4 C58_4 1_555 1_555
H38_4 C59_4 1_555 1_555
C64_4 C63_4 1_555 1_555
O27_2 C64_4 1_555 1_555
O51_4 C64_4 1_555 1_555
C44_4 C48_4 1_555 1_555
C59_4 C63_4 1_555 1_555
O45_4 H49_3 1_555 1_555
O10_4 H42_3 1_555 1_555
O45_4 H42_4 1_555 1_555
O10_4 H49_4 1_555 1_555

#END
