
###############################################################################
#
# This file contains modified crystal structure data generated from the
# MOF subset of the Cambridge Structural Database (CSD) v543 
# hosted by the Cambridge Crystallographic Data Centre (CCDC).
#
# This work is licensed under the Creative Commons
# Attribution-NonCommercial-ShareAlike 4.0 International License.
# To view a copy of this license, visit
# http://creativecommons.org/licenses/by-nc-sa/4.0/
# or send a letter to
# Creative Commons, PO Box 1866, Mountain View, CA 94042, USA.
#
# CIF created using the CSD Python API on 29 September 2022
# The structure has been converted into the P1 space group
# The structure has a 3D framework
# The original CSD entry UYEVEC is in the orthorhombic crystal system
# The framework has been calculated to contain at least 10.0% void space
# The void calculation uses a probe of radius 1.32A, grid spacing 0.4
# The framework is charged, counterions have been retained in the structure
# H atom positions have been added when not included in the experimental data
# Generated hydrogen atom positions removed from atoms on special positions
#
###############################################################################

data_UYEVEC
_chemical_formula_moiety         '(C252 H239 O123 Tb24 10-)n'
_symmetry_cell_setting           triclinic
_symmetry_space_group_name_H-M   'P 1'
_symmetry_Int_Tables_number      1
_space_group_name_Hall           'P 1'
loop_
_symmetry_equiv_pos_site_id
_symmetry_equiv_pos_as_xyz
1 x,y,z
_cell_length_a                   26.370(6)
_cell_length_b                   32.626(7)
_cell_length_c                   14.831(3)
_cell_angle_alpha                90
_cell_angle_beta                 90
_cell_angle_gamma                90
_cell_volume                     12759.8
loop_
_atom_site_label
_atom_site_type_symbol
_atom_site_fract_x
_atom_site_fract_y
_atom_site_fract_z
O11 O 0.8187(4) 0.2945(3) 0.0637(6)
O12 O 0.8883(4) 0.3313(3) 0.0291(6)
C12 C 0.8446(6) 0.3202(5) 0.0196(9)
Tb7 Tb 0.83765(4) 0.250000 0.18233(6)
Tb17 Tb 0.96144(3) 0.31100(2) 0.11500(5)
Tb2 Tb 0.53300(4) 0.250000 0.19608(6)
Tb3 Tb 0.91033(3) 0.31177(2) 0.36739(5)
Tb4 Tb 0.53856(3) 0.68900(2) 0.61500(5)
O1 O 0.8904(3) 0.3051(2) 0.2144(4)
H1 H 0.869458 0.329545 0.200822
O2 O 0.8697(3) 0.250000 0.3319(6)
H2 H 0.838923 0.250000 0.370205
O3 O 0.5856(3) 0.750000 0.5988(6)
H3 H 0.596559 0.750000 0.534969
O4 O 0.4813(3) 0.1951(2) 0.2277(5)
H4 H 0.502458 0.170753 0.214300
O5 O 0.4585(4) 0.250000 0.1079(6)
H5 H 0.469110 0.250000 0.043873
O6 O 0.5051(4) 0.250000 0.3440(6)
H6 H 0.536393 0.250000 0.381028
O7 O 0.8236(3) 0.3270(3) 0.3614(6)
O8 O 0.5903(3) 0.2946(3) 0.2654(6)
O9 O 0.5510(3) 0.3296(3) 0.3757(6)
O10 O 0.7785(3) 0.2940(3) 0.2519(6)
O13 O 0.5806(4) 0.6212(3) 0.8108(6)
O14 O 0.5565(4) 0.2043(3) 0.0779(6)
O15 O 0.5131(5) 0.7150(4) 0.4742(7)
O16 O 0.5498(4) 0.6226(3) 0.6707(7)
O17 O 0.4817(5) 0.1680(4) 0.0483(7)
C1 C 0.7342(2) 0.3279(3) 0.3693(5)
C2 C 0.6880(3) 0.3171(3) 0.3311(4)
H7 H 0.687157 0.301067 0.278400
C3 C 0.6429(2) 0.3299(3) 0.3708(5)
C4 C 0.6441(2) 0.3536(3) 0.4487(5)
H8 H 0.613694 0.362252 0.475546
C5 C 0.6904(3) 0.3644(3) 0.4869(4)
C6 C 0.7354(2) 0.3515(3) 0.4472(5)
H9 H 0.766672 0.358863 0.473059
C7 C 0.5889(5) 0.3173(4) 0.3353(9)
C8 C 0.7827(5) 0.3156(4) 0.3208(9)
C9 C 0.6934(5) 0.3891(4) 0.5746(8)
C10 C 0.7263(6) 0.3742(5) 0.6444(9)
H10 H 0.745270 0.350225 0.634404
C11 C 0.6746(6) 0.4491(4) 0.6673(9)
O18 O 0.8843(7) 0.2901(8) 0.5084(10)
C13 C 0.7304(6) 0.3938(4) 0.7239(9)
C14 C 0.7051(6) 0.4330(5) 0.7342(10)
H11 H 0.709632 0.447832 0.787858
C15 C 0.5741(6) 0.6060(5) 0.7347(10)
C16 C 0.6677(6) 0.4260(5) 0.5888(9)
H12 H 0.645348 0.435667 0.544232
C17 C 0.7785(4) 0.3174(2) 0.8958(7)
H13 H 0.772392 0.290016 0.912209
C18 C 0.7513(4) 0.3351(3) 0.8257(7)
H14 H 0.726693 0.319714 0.794687
C19 C 0.7604(4) 0.3756(3) 0.8013(6)
C20 C 0.7967(4) 0.3984(2) 0.8471(7)
H15 H 0.802876 0.425737 0.830692
C21 C 0.8240(4) 0.3806(3) 0.9172(7)
H16 H 0.848576 0.396040 0.948213
C22 C 0.8149(4) 0.3402(3) 0.9416(6)
C23 C 0.5959(9) 0.5653(6) 0.7148(12)
C24 C 0.6471(9) 0.4889(6) 0.6824(11)
C25 C 0.5300(12) 0.1759(9) 0.0340(17)
O19 O 0.5125(6) 0.6312(6) 0.4885(18)
O20 O 0.8880(9) 0.3687(8) 0.4878(11)
C26 C 0.6262(9) 0.5119(6) 0.6132(11)
H17 H 0.630072 0.503142 0.553207
C27 C 0.5991(9) 0.5481(6) 0.6319(11)
H18 H 0.582345 0.561166 0.583907
C28 C 0.5097(10) 0.750000 0.4381(15)
C29 C 0.6109(9) 0.5382(6) 0.7847(11)
H19 H 0.601388 0.543988 0.844453
C30 C 0.6384(9) 0.5043(6) 0.7675(11)
H20 H 0.652613 0.490202 0.816672
C32 C 0.8803(16) 0.250000 0.549(2)
C33 C 0.8510(15) 0.250000 0.6343(19)
O21 O 0.5131(5) 0.7850(4) 0.4742(7)
O22 O 0.8843(7) 0.2099(8) 0.5084(10)
Tb5 Tb 0.08967(3) 0.68823(2) 0.63261(5)
Tb6 Tb 0.46144(3) 0.31100(2) 0.38500(5)
O23 O 0.1096(3) 0.6949(2) 0.7856(4)
H21 H 0.130542 0.670455 0.799178
O24 O 0.1764(3) 0.6730(3) 0.6386(6)
O25 O 0.4097(3) 0.7054(3) 0.7346(6)
O26 O 0.4490(3) 0.6704(3) 0.6243(6)
O27 O 0.2215(3) 0.7060(3) 0.7481(6)
O30 O 0.4194(4) 0.3788(3) 0.1892(6)
O31 O 0.4502(4) 0.3774(3) 0.3293(7)
C34 C 0.2658(2) 0.6721(3) 0.6307(5)
C35 C 0.3120(3) 0.6829(3) 0.6689(4)
H22 H 0.312843 0.698933 0.721600
C36 C 0.3571(2) 0.6701(3) 0.6292(5)
C37 C 0.3559(2) 0.6464(3) 0.5513(5)
H23 H 0.386306 0.637748 0.524454
C38 C 0.3096(3) 0.6356(3) 0.5131(4)
C39 C 0.2646(2) 0.6485(3) 0.5528(5)
H24 H 0.233328 0.641137 0.526941
C40 C 0.4111(5) 0.6827(4) 0.6647(9)
C41 C 0.2173(5) 0.6844(4) 0.6792(9)
C42 C 0.3066(5) 0.6109(4) 0.4254(8)
C43 C 0.2737(6) 0.6258(5) 0.3556(9)
H25 H 0.254730 0.649775 0.365596
C44 C 0.3254(6) 0.5509(4) 0.3327(9)
C46 C 0.2696(6) 0.6062(4) 0.2761(9)
C47 C 0.2949(6) 0.5670(5) 0.2658(10)
H26 H 0.290368 0.552168 0.212142
C48 C 0.4259(6) 0.3940(5) 0.2653(10)
C49 C 0.3323(6) 0.5740(5) 0.4112(9)
H27 H 0.354652 0.564333 0.455768
C50 C 0.2215(4) 0.6826(2) 0.1042(7)
H28 H 0.227608 0.709984 0.087791
C51 C 0.2487(4) 0.6649(3) 0.1743(7)
H29 H 0.273307 0.680286 0.205313
C52 C 0.2396(4) 0.6244(3) 0.1987(6)
C53 C 0.2033(4) 0.6016(2) 0.1529(7)
H30 H 0.197124 0.574263 0.169308
C54 C 0.1760(4) 0.6194(3) 0.0828(7)
H31 H 0.151424 0.603960 0.051787
C55 C 0.1851(4) 0.6598(3) 0.0584(6)
C56 C 0.4041(9) 0.4347(6) 0.2852(12)
C57 C 0.3529(9) 0.5111(6) 0.3176(11)
O32 O 0.4875(6) 0.3688(6) 0.5115(18)
O33 O 0.1120(9) 0.6313(8) 0.5122(11)
C58 C 0.3738(9) 0.4881(6) 0.3868(11)
H32 H 0.369928 0.496858 0.446793
C59 C 0.4009(9) 0.4519(6) 0.3681(11)
H33 H 0.417655 0.438834 0.416093
C60 C 0.3891(9) 0.4618(6) 0.2153(11)
H34 H 0.398612 0.456012 0.155547
C61 C 0.3616(9) 0.4957(6) 0.2325(11)
H35 H 0.347387 0.509798 0.183328
O34 O 0.5565(4) 0.2957(3) 0.0779(6)
O35 O 0.4817(5) 0.3320(4) 0.0483(7)
C62 C 0.5300(12) 0.3241(9) 0.0340(17)
O36 O 0.4813(3) 0.3049(2) 0.2277(5)
H36 H 0.502458 0.329247 0.214300
Tb8 Tb 0.66235(4) 0.750000 0.68233(6)
Tb10 Tb 0.16235(4) 0.750000 0.81767(6)
Tb11 Tb 0.46700(4) 0.750000 0.80392(6)
Tb12 Tb 0.58967(3) 0.68823(2) 0.86739(5)
Tb13 Tb 0.41033(3) 0.18823(2) 0.13261(5)
Tb14 Tb 0.41033(3) 0.31177(2) 0.13261(5)
Tb15 Tb 0.91033(3) 0.18823(2) 0.36739(5)
Tb18 Tb 0.46144(3) 0.18900(2) 0.38500(5)
Tb20 Tb 0.03856(3) 0.68900(2) 0.88500(5)
Tb21 Tb 0.53856(3) 0.81100(2) 0.61500(5)
O37 O 0.6096(3) 0.6949(2) 0.7144(4)
O38 O 0.3904(3) 0.3051(2) 0.2856(4)
O39 O 0.8904(3) 0.1949(2) 0.2144(4)
O40 O 0.1303(3) 0.750000 0.6681(6)
O41 O 0.9144(3) 0.250000 0.0988(6)
O42 O 0.4144(3) 0.250000 0.4012(6)
O43 O 0.5187(3) 0.6951(2) 0.7723(5)
O44 O 0.9813(3) 0.3049(2) 0.2723(5)
O45 O 0.0187(3) 0.6951(2) 0.7277(5)
O46 O 0.0415(4) 0.750000 0.6079(6)
O47 O 0.9585(4) 0.250000 0.3921(6)
O48 O 0.4949(4) 0.750000 0.6560(6)
O49 O 0.5903(3) 0.2054(3) 0.2654(6)
O50 O 0.7785(3) 0.2060(3) 0.2519(6)
O52 O 0.8187(4) 0.2055(3) 0.0637(6)
O53 O 0.6117(4) 0.6687(3) 0.5291(6)
O54 O 0.3883(4) 0.3313(3) 0.4709(6)
O55 O 0.9194(4) 0.3788(3) 0.3108(6)
O56 O 0.0806(4) 0.6212(3) 0.6892(6)
O57 O 0.4869(5) 0.2850(4) 0.5258(7)
O58 O 0.9817(5) 0.3320(4) 0.4517(7)
O59 O 0.0183(5) 0.6680(4) 0.5483(7)
O60 O 0.1157(7) 0.7099(8) 0.4916(10)
H37 H 0.812659 0.260914 0.621344
H38 H 0.849428 0.218981 0.661273
H39 H 0.869388 0.270105 0.682947
H47 H 0.502879 0.75 0.365681
C31 C 0.5577(11) 0.1530(8) 0.9613(15)
O28 O 0.1813(4) 0.7055(3) 0.9363(6)
O29 O 0.1117(4) 0.6687(3) 0.9709(6)
C45 C 0.1554(6) 0.6798(5) 0.9804(9)
C63 C 0.5577(11) 0.3470(8) 0.9613(15)
H40 H 0.590114 0.137125 0.990461
H41 H 0.532255 0.130755 0.930477
H42 H 0.570822 0.174511 0.910232
H52 H 0.570822 0.325489 0.910232
H53 H 0.532255 0.369245 0.930477
H54 H 0.590114 0.362875 0.990461
H21_2 H 0.369458 0.329545 0.299178
O24_2 O 0.3236(3) 0.3270(3) 0.1386(6)
O25_2 O 0.0903(3) 0.2946(3) 0.2346(6)
O26_2 O 0.0510(3) 0.3296(3) 0.1243(6)
O27_2 O 0.2785(3) 0.2940(3) 0.2481(6)
C34_2 C 0.2342(2) 0.3279(3) 0.1307(5)
C35_2 C 0.1880(3) 0.3171(3) 0.1689(4)
H22_2 H 0.187157 0.301067 0.221600
C36_2 C 0.1429(2) 0.3299(3) 0.1292(5)
C37_2 C 0.1441(2) 0.3536(3) 0.0513(5)
H23_2 H 0.113694 0.362252 0.024454
C38_2 C 0.1904(3) 0.3644(3) 0.0131(4)
C39_2 C 0.2354(2) 0.3515(3) 0.0528(5)
H24_2 H 0.266672 0.358863 0.026941
C40_2 C 0.0889(5) 0.3173(4) 0.1647(9)
C41_2 C 0.2827(5) 0.3156(4) 0.1792(9)
O32_2 O 0.0125(6) 0.6312(6) 0.0115(18)
O33_2 O 0.3880(9) 0.3687(8) 0.0122(11)
Tb10_2 Tb 0.33765(4) 0.250000 0.31767(6)
Tb11_2 Tb 0.03300(4) 0.250000 0.30392(6)
O40_2 O 0.3697(3) 0.250000 0.1681(6)
O48_2 O 0.0051(4) 0.250000 0.1560(6)
O57_2 O 0.0131(5) 0.7150(4) 0.0258(7)
H44 H 0.0075661 0.390873 0.0176924
H49 H 0.0386071 0.609273 0.0127016
H50 H 0.401901 0.395473 0.0322771
O4_2 O 0.0187(3) 0.8049(2) 0.7277(5)
H5_2 H 0.030890 0.750000 0.543873
O17_2 O 0.0183(5) 0.8320(4) 0.5483(7)
O28_2 O 0.3187(4) 0.2945(3) 0.4363(6)
O31_2 O 0.0498(4) 0.6226(3) 0.8293(7)
C42_2 C 0.1934(5) 0.3891(4) 0.9254(8)
C43_2 C 0.2263(6) 0.3742(5) 0.8556(9)
H25_2 H 0.245270 0.350225 0.865596
C44_2 C 0.1746(6) 0.4491(4) 0.8327(9)
C45_2 C 0.3446(6) 0.3202(5) 0.4804(9)
C46_2 C 0.2304(6) 0.3938(4) 0.7761(9)
C47_2 C 0.2051(6) 0.4330(5) 0.7658(10)
H26_2 H 0.209632 0.447832 0.712142
C48_2 C 0.0741(6) 0.6060(5) 0.7653(10)
C49_2 C 0.1677(6) 0.4260(5) 0.9112(9)
H27_2 H 0.145348 0.435667 0.955768
C50_2 C 0.2785(4) 0.3174(2) 0.6042(7)
H28_2 H 0.272392 0.290016 0.587791
C51_2 C 0.2513(4) 0.3351(3) 0.6743(7)
H29_2 H 0.226693 0.319714 0.705313
C52_2 C 0.2604(4) 0.3756(3) 0.6987(6)
C53_2 C 0.2967(4) 0.3984(2) 0.6529(7)
H30_2 H 0.302876 0.425737 0.669308
C54_2 C 0.3240(4) 0.3806(3) 0.5828(7)
H31_2 H 0.348576 0.396040 0.551787
C55_2 C 0.3149(4) 0.3402(3) 0.5584(6)
C56_2 C 0.0959(9) 0.5653(6) 0.7852(12)
C57_2 C 0.1471(9) 0.4889(6) 0.8176(11)
C58_2 C 0.1262(9) 0.5119(6) 0.8868(11)
H32_2 H 0.130072 0.503142 0.946793
C59_2 C 0.0991(9) 0.5481(6) 0.8681(11)
H33_2 H 0.082345 0.561166 0.916093
C60_2 C 0.1109(9) 0.5382(6) 0.7153(11)
H34_2 H 0.101388 0.543988 0.655547
C61_2 C 0.1384(9) 0.5043(6) 0.7325(11)
H35_2 H 0.152613 0.490202 0.683328
Tb13_2 Tb 0.08967(3) 0.81177(2) 0.63261(5)
Tb18_2 Tb 0.03856(3) 0.81100(2) 0.88500(5)
O42_2 O 0.0856(3) 0.750000 0.9012(6)
O60_2 O 0.3843(7) 0.2901(8) 0.9916(10)
H51 H 0.40311 0.361194 0.953136
H3_2 H 0.903441 0.250000 0.034969
O11_2 O 0.6813(4) 0.7055(3) 0.5637(6)
O16_2 O 0.9502(4) 0.3774(3) 0.1707(7)
C9_2 C 0.8066(5) 0.6109(4) 0.0746(8)
C10_2 C 0.7737(6) 0.6258(5) 0.1444(9)
H10_2 H 0.754730 0.649775 0.134404
C11_2 C 0.8254(6) 0.5509(4) 0.1673(9)
O18_2 O 0.6157(7) 0.7099(8) 0.0084(10)
C12_2 C 0.6554(6) 0.6798(5) 0.5196(9)
C13_2 C 0.7696(6) 0.6062(4) 0.2239(9)
C14_2 C 0.7949(6) 0.5670(5) 0.2342(10)
H11_2 H 0.790368 0.552168 0.287858
C15_2 C 0.9259(6) 0.3940(5) 0.2347(10)
C16_2 C 0.8323(6) 0.5740(5) 0.0888(9)
H12_2 H 0.854652 0.564333 0.044232
C17_2 C 0.7215(4) 0.6826(2) 0.3958(7)
H13_2 H 0.727608 0.709984 0.412209
C18_2 C 0.7487(4) 0.6649(3) 0.3257(7)
H14_2 H 0.773307 0.680286 0.294687
C19_2 C 0.7396(4) 0.6244(3) 0.3013(6)
C20_2 C 0.7033(4) 0.6016(2) 0.3471(7)
H15_2 H 0.697124 0.574263 0.330692
C21_2 C 0.6760(4) 0.6194(3) 0.4172(7)
H16_2 H 0.651424 0.603960 0.448213
C22_2 C 0.6851(4) 0.6598(3) 0.4416(6)
C23_2 C 0.9041(9) 0.4347(6) 0.2148(12)
C24_2 C 0.8529(9) 0.5111(6) 0.1824(11)
C26_2 C 0.8738(9) 0.4881(6) 0.1132(11)
H17_2 H 0.869928 0.496858 0.053207
C27_2 C 0.9009(9) 0.4519(6) 0.1319(11)
H18_2 H 0.917655 0.438834 0.083907
C29_2 C 0.8891(9) 0.4618(6) 0.2847(11)
H19_2 H 0.898612 0.456012 0.344453
C30_2 C 0.8616(9) 0.4957(6) 0.2675(11)
H20_2 H 0.847387 0.509798 0.316672
C32_2 C 0.6197(16) 0.750000 0.049(2)
C33_2 C 0.6490(15) 0.750000 0.1343(19)
O22_2 O 0.6157(7) 0.7901(8) 0.0084(10)
Tb21_2 Tb 0.96144(3) 0.18900(2) 0.11500(5)
H37_2 H 0.687341 0.739086 0.121344
H38_2 H 0.650572 0.781019 0.161273
H39_2 H 0.630612 0.729895 0.182947
H46 H 0.59689 0.638806 0.0468636
Tb2_2 Tb 0.96700(4) 0.750000 0.69608(6)
H1_2 H 0.630542 0.670455 0.700822
O2_2 O 0.6303(3) 0.750000 0.8319(6)
H2_2 H 0.661077 0.750000 0.870205
H4_2 H 0.997542 0.829247 0.714300
O6_2 O 0.9949(4) 0.750000 0.8440(6)
H6_2 H 0.963607 0.750000 0.881028
O7_2 O 0.6764(3) 0.6730(3) 0.8614(6)
O8_2 O 0.9097(3) 0.7054(3) 0.7654(6)
O9_2 O 0.9490(3) 0.6704(3) 0.8757(6)
O10_2 O 0.7215(3) 0.7060(3) 0.7519(6)
O14_2 O 0.9435(4) 0.7957(3) 0.5779(6)
O15_2 O 0.9869(5) 0.2850(4) 0.9742(7)
C1_2 C 0.7658(2) 0.6721(3) 0.8693(5)
C2_2 C 0.8120(3) 0.6829(3) 0.8311(4)
H7_2 H 0.812843 0.698933 0.778400
C3_2 C 0.8571(2) 0.6701(3) 0.8708(5)
C4_2 C 0.8559(2) 0.6464(3) 0.9487(5)
H8_2 H 0.886306 0.637748 0.975546
C5_2 C 0.8096(3) 0.6356(3) 0.9869(4)
C6_2 C 0.7646(2) 0.6485(3) 0.9472(5)
H9_2 H 0.733328 0.641137 0.973059
C7_2 C 0.9111(5) 0.6827(4) 0.8353(9)
C8_2 C 0.7173(5) 0.6844(4) 0.8208(9)
C25_2 C 0.9700(12) 0.8241(9) 0.5340(17)
O19_2 O 0.9875(6) 0.3688(6) 0.9885(18)
O20_2 O 0.6120(9) 0.6313(8) 0.9878(11)
C28_2 C 0.9903(10) 0.250000 0.9381(15)
C31_2 C 0.9423(11) 0.8470(8) 0.4613(15)
O21_2 O 0.9869(5) 0.2150(4) 0.9742(7)
O34_2 O 0.9435(4) 0.7043(3) 0.5779(6)
C62_2 C 0.9700(12) 0.6759(9) 0.5340(17)
C63_2 C 0.9423(11) 0.6530(8) 0.4613(15)
H36_2 H 0.997542 0.670753 0.714300
Tb15_2 Tb 0.58967(3) 0.81177(2) 0.86739(5)
O39_2 O 0.6096(3) 0.8051(2) 0.7144(4)
O47_2 O 0.5415(4) 0.750000 0.8921(6)
O49_2 O 0.9097(3) 0.7946(3) 0.7654(6)
O50_2 O 0.7215(3) 0.7940(3) 0.7519(6)
O52_2 O 0.6813(4) 0.7945(3) 0.5637(6)
O58_2 O 0.5183(5) 0.6680(4) 0.9517(7)
H40_2 H 0.909886 0.862875 0.490461
H41_2 H 0.967745 0.869245 0.430477
H42_2 H 0.929178 0.825489 0.410232
H43 H 0.956267 0.380675 0.961733
H45 H 0.6494 0.629179 0.994052
H47_2 H 0.997121 0.25 0.865681
H48 H 0.979095 0.619121 0.995718
H52_2 H 0.929178 0.674511 0.410232
H53_2 H 0.967745 0.630755 0.430477
H54_2 H 0.909886 0.637125 0.490461
O29_2 O 0.8883(4) 0.1687(3) 0.0291(6)
C45_3 C 0.8446(6) 0.1798(5) 0.0196(9)
H3_3 H 0.403441 0.250000 0.465031
O13_2 O 0.4194(4) 0.1212(3) 0.1892(6)
O15_3 O 0.4869(5) 0.2150(4) 0.5258(7)
O16_3 O 0.4502(4) 0.1226(3) 0.3293(7)
C15_3 C 0.4259(6) 0.1060(5) 0.2653(10)
C23_3 C 0.4041(9) 0.0653(6) 0.2852(12)
O19_3 O 0.4875(6) 0.1312(6) 0.5115(18)
C26_3 C 0.3738(9) 0.0119(6) 0.3868(11)
H17_3 H 0.369928 0.003142 0.446793
C27_3 C 0.4009(9) 0.0481(6) 0.3681(11)
H18_3 H 0.417655 0.061166 0.416093
C28_3 C 0.4903(10) 0.250000 0.5619(15)
C29_3 C 0.3891(9) 0.0382(6) 0.2153(11)
H19_3 H 0.398612 0.043988 0.155547
C30_3 C 0.3616(9) 0.0043(6) 0.2325(11)
H21_3 H 0.869458 0.170455 0.200822
O24_3 O 0.8236(3) 0.1730(3) 0.3614(6)
O26_3 O 0.5510(3) 0.1704(3) 0.3757(6)
C34_3 C 0.7342(2) 0.1721(3) 0.3693(5)
C35_3 C 0.6880(3) 0.1829(3) 0.3311(4)
H22_3 H 0.687157 0.198933 0.278400
C36_3 C 0.6429(2) 0.1701(3) 0.3708(5)
C37_3 C 0.6441(2) 0.1464(3) 0.4487(5)
H23_3 H 0.613694 0.137748 0.475546
C38_3 C 0.6904(3) 0.1356(3) 0.4869(4)
C39_3 C 0.7354(2) 0.1485(3) 0.4472(5)
H24_3 H 0.766672 0.141137 0.473059
C40_3 C 0.5889(5) 0.1827(4) 0.3353(9)
C41_3 C 0.7827(5) 0.1844(4) 0.3208(9)
C42_3 C 0.6934(5) 0.1109(4) 0.5746(8)
C43_3 C 0.7263(6) 0.1258(5) 0.6444(9)
H25_3 H 0.745270 0.149775 0.634404
C44_3 C 0.6746(6) 0.0509(4) 0.6673(9)
C46_3 C 0.7304(6) 0.1062(4) 0.7239(9)
C47_3 C 0.7051(6) 0.0670(5) 0.7342(10)
H26_3 H 0.709632 0.052168 0.787858
C49_3 C 0.6677(6) 0.0740(5) 0.5888(9)
H27_3 H 0.645348 0.064333 0.544232
C50_3 C 0.7785(4) 0.1826(2) 0.8958(7)
H28_3 H 0.772392 0.209984 0.912209
C51_3 C 0.7513(4) 0.1649(3) 0.8257(7)
H29_3 H 0.726693 0.180286 0.794687
C52_3 C 0.7604(4) 0.1244(3) 0.8013(6)
C53_3 C 0.7967(4) 0.1016(2) 0.8471(7)
H30_3 H 0.802876 0.074263 0.830692
C54_3 C 0.8240(4) 0.1194(3) 0.9172(7)
H31_3 H 0.848576 0.103960 0.948213
C55_3 C 0.8149(4) 0.1598(3) 0.9416(6)
C57_3 C 0.6471(9) 0.0111(6) 0.6824(11)
O33_3 O 0.8880(9) 0.1313(8) 0.4878(11)
H35_3 H 0.652613 0.009798 0.816672
O37_2 O 0.3904(3) 0.1949(2) 0.2856(4)
O45_2 O 0.9813(3) 0.1951(2) 0.2723(5)
O53_2 O 0.3883(4) 0.1687(3) 0.4709(6)
O56_2 O 0.9194(4) 0.1212(3) 0.3108(6)
O59_2 O 0.9817(5) 0.1680(4) 0.4517(7)
H47_3 H 0.497121 0.25 0.634319
C31_3 C 0.4423(11) 0.6530(8) 0.0387(15)
C63_3 C 0.4423(11) 0.8470(8) 0.0387(15)
H40_3 H 0.409886 0.637125 0.0095391
H41_3 H 0.467745 0.630755 0.0695226
H42_3 H 0.429178 0.674511 0.089768
H52_3 H 0.429178 0.825489 0.089768
H53_3 H 0.467745 0.869245 0.0695226
H54_3 H 0.409886 0.862875 0.0095391
O1_2 O 0.1096(3) 0.8051(2) 0.7856(4)
H1_3 H 0.130542 0.829545 0.799178
H2_3 H 0.161077 0.750000 0.629795
H4_3 H 0.497542 0.670753 0.785700
H5_3 H 0.530890 0.750000 0.956127
H6_3 H 0.463607 0.750000 0.618972
O7_3 O 0.1764(3) 0.8270(3) 0.6386(6)
O8_3 O 0.4097(3) 0.7946(3) 0.7346(6)
O9_3 O 0.4490(3) 0.8296(3) 0.6243(6)
O10_3 O 0.2215(3) 0.7940(3) 0.7481(6)
O14_3 O 0.4435(4) 0.7043(3) 0.9221(6)
C1_3 C 0.2658(2) 0.8279(3) 0.6307(5)
C2_3 C 0.3120(3) 0.8171(3) 0.6689(4)
H7_3 H 0.312843 0.801067 0.721600
C3_3 C 0.3571(2) 0.8299(3) 0.6292(5)
C4_3 C 0.3559(2) 0.8536(3) 0.5513(5)
H8_3 H 0.386306 0.862252 0.524454
C5_3 C 0.3096(3) 0.8644(3) 0.5131(4)
C6_3 C 0.2646(2) 0.8515(3) 0.5528(5)
H9_3 H 0.233328 0.858863 0.526941
C7_3 C 0.4111(5) 0.8173(4) 0.6647(9)
C8_3 C 0.2173(5) 0.8156(4) 0.6792(9)
C9_3 C 0.3066(5) 0.8891(4) 0.4254(8)
C10_3 C 0.2737(6) 0.8742(5) 0.3556(9)
H10_3 H 0.254730 0.850225 0.365596
C11_3 C 0.3254(6) 0.9491(4) 0.3327(9)
O18_3 O 0.1157(7) 0.7901(8) 0.4916(10)
C13_3 C 0.2696(6) 0.8938(4) 0.2761(9)
C14_3 C 0.2949(6) 0.9330(5) 0.2658(10)
H11_3 H 0.290368 0.947832 0.212142
C16_3 C 0.3323(6) 0.9260(5) 0.4112(9)
H12_3 H 0.354652 0.935667 0.455768
C17_3 C 0.2215(4) 0.8174(2) 0.1042(7)
H13_3 H 0.227608 0.790016 0.087791
C18_3 C 0.2487(4) 0.8351(3) 0.1743(7)
H14_3 H 0.273307 0.819714 0.205313
C19_3 C 0.2396(4) 0.8756(3) 0.1987(6)
C20_3 C 0.2033(4) 0.8984(2) 0.1529(7)
H15_3 H 0.197124 0.925737 0.169308
C21_3 C 0.1760(4) 0.8806(3) 0.0828(7)
H16_3 H 0.151424 0.896040 0.051787
C22_3 C 0.1851(4) 0.8402(3) 0.0584(6)
C24_3 C 0.3529(9) 0.9889(6) 0.3176(11)
C25_3 C 0.4700(12) 0.6759(9) 0.9660(17)
O20_3 O 0.1120(9) 0.8687(8) 0.5122(11)
H20_3 H 0.347387 0.990202 0.183328
C32_3 C 0.1197(16) 0.750000 0.451(2)
C33_3 C 0.1490(15) 0.750000 0.3657(19)
O30_2 O 0.5806(4) 0.8788(3) 0.8108(6)
O31_3 O 0.5498(4) 0.8774(3) 0.6707(7)
C48_3 C 0.5741(6) 0.8940(5) 0.7347(10)
C56_3 C 0.5959(9) 0.9347(6) 0.7148(12)
O32_3 O 0.5125(6) 0.8688(6) 0.4885(18)
C58_3 C 0.6262(9) 0.9881(6) 0.6132(11)
H32_3 H 0.630072 0.996858 0.553207
C59_3 C 0.5991(9) 0.9519(6) 0.6319(11)
H33_3 H 0.582345 0.938834 0.583907
C60_3 C 0.6109(9) 0.9618(6) 0.7847(11)
H34_3 H 0.601388 0.956012 0.844453
C61_3 C 0.6384(9) 0.9957(6) 0.7675(11)
O34_3 O 0.4435(4) 0.7957(3) 0.9221(6)
O35_2 O 0.5183(5) 0.8320(4) 0.9517(7)
C62_3 C 0.4700(12) 0.8241(9) 0.9660(17)
O36_2 O 0.5187(3) 0.8049(2) 0.7723(5)
H36_3 H 0.497542 0.829247 0.785700
O51 O 0.1813(4) 0.7945(3) 0.9363(6)
O54_2 O 0.6117(4) 0.8313(3) 0.5291(6)
O55_2 O 0.0806(4) 0.8788(3) 0.6892(6)
H37_3 H 0.187341 0.760914 0.378656
H38_3 H 0.150572 0.718981 0.338727
H39_3 H 0.130612 0.770105 0.317053
O12_2 O 0.1117(4) 0.8313(3) 0.9709(6)
C12_3 C 0.1554(6) 0.8202(5) 0.9804(9)
H1_4 H 0.369458 0.170455 0.299178
H2_4 H 0.338923 0.250000 0.129795
H4_4 H 0.002458 0.329247 0.285700
H6_4 H 0.036393 0.250000 0.118972
O7_4 O 0.3236(3) 0.1730(3) 0.1386(6)
O8_4 O 0.0903(3) 0.2054(3) 0.2346(6)
O9_4 O 0.0510(3) 0.1704(3) 0.1243(6)
O10_4 O 0.2785(3) 0.2060(3) 0.2481(6)
O14_4 O 0.0565(4) 0.2957(3) 0.4221(6)
C1_4 C 0.2342(2) 0.1721(3) 0.1307(5)
C2_4 C 0.1880(3) 0.1829(3) 0.1689(4)
H7_4 H 0.187157 0.198933 0.221600
C3_4 C 0.1429(2) 0.1701(3) 0.1292(5)
C4_4 C 0.1441(2) 0.1464(3) 0.0513(5)
H8_4 H 0.113694 0.137748 0.024454
C5_4 C 0.1904(3) 0.1356(3) 0.0131(4)
C6_4 C 0.2354(2) 0.1485(3) 0.0528(5)
H9_4 H 0.266672 0.141137 0.026941
C7_4 C 0.0889(5) 0.1827(4) 0.1647(9)
C8_4 C 0.2827(5) 0.1844(4) 0.1792(9)
C25_4 C 0.0300(12) 0.3241(9) 0.4660(17)
O20_4 O 0.3880(9) 0.1313(8) 0.0122(11)
C31_4 C 0.0577(11) 0.3470(8) 0.5387(15)
O34_4 O 0.0565(4) 0.2043(3) 0.4221(6)
C62_4 C 0.0300(12) 0.1759(9) 0.4660(17)
C63_4 C 0.0577(11) 0.1530(8) 0.5387(15)
H36_4 H 0.002458 0.170753 0.285700
O51_2 O 0.3187(4) 0.2055(3) 0.4363(6)
H40_4 H 0.0901139 0.362875 0.509539
H41_4 H 0.0322554 0.369245 0.569523
H42_4 H 0.0708217 0.325489 0.589768
H45_2 H 0.3506 0.129179 0.00594833
H48_2 H 0.0209047 0.119121 0.00428187
H52_4 H 0.0708217 0.174511 0.589768
H53_4 H 0.0322554 0.130755 0.569523
H54_4 H 0.0901139 0.137125 0.509539
C9_4 C 0.1934(5) 0.1109(4) 0.9254(8)
C10_4 C 0.2263(6) 0.1258(5) 0.8556(9)
H10_4 H 0.245270 0.149775 0.865596
C11_4 C 0.1746(6) 0.0509(4) 0.8327(9)
O18_4 O 0.3843(7) 0.2099(8) 0.9916(10)
C12_4 C 0.3446(6) 0.1798(5) 0.4804(9)
C13_4 C 0.2304(6) 0.1062(4) 0.7761(9)
C14_4 C 0.2051(6) 0.0670(5) 0.7658(10)
H11_4 H 0.209632 0.052168 0.712142
C16_4 C 0.1677(6) 0.0740(5) 0.9112(9)
H12_4 H 0.145348 0.064333 0.955768
C17_4 C 0.2785(4) 0.1826(2) 0.6042(7)
H13_4 H 0.272392 0.209984 0.587791
C18_4 C 0.2513(4) 0.1649(3) 0.6743(7)
H14_4 H 0.226693 0.180286 0.705313
C19_4 C 0.2604(4) 0.1244(3) 0.6987(6)
C20_4 C 0.2967(4) 0.1016(2) 0.6529(7)
H15_4 H 0.302876 0.074263 0.669308
C21_4 C 0.3240(4) 0.1194(3) 0.5828(7)
H16_4 H 0.348576 0.103960 0.551787
C22_4 C 0.3149(4) 0.1598(3) 0.5584(6)
C24_4 C 0.1471(9) 0.0111(6) 0.8176(11)
H20_4 H 0.152613 0.009798 0.683328
C32_4 C 0.3803(16) 0.250000 0.951(2)
C33_4 C 0.3510(15) 0.250000 0.8657(19)
H37_4 H 0.312659 0.239086 0.878656
H38_4 H 0.349428 0.281019 0.838727
H39_4 H 0.369388 0.229895 0.817053
H46_2 H 0.40311 0.138806 0.953136
O15_4 O 0.0131(5) 0.7850(4) 0.0258(7)
O19_4 O 0.0125(6) 0.8688(6) 0.0115(18)
C28_4 C 0.0097(10) 0.750000 0.0619(15)
H43_2 H 0.0437333 0.880675 0.0382669
H47_4 H 0.00287938 0.75 0.134319
H3_4 H 0.096559 0.750000 0.965031
O16_4 O 0.0498(4) 0.8774(3) 0.8293(7)
C15_4 C 0.0741(6) 0.8940(5) 0.7653(10)
C23_4 C 0.0959(9) 0.9347(6) 0.7852(12)
C26_4 C 0.1262(9) 0.9881(6) 0.8868(11)
H17_4 H 0.130072 0.996858 0.946793
C27_4 C 0.0991(9) 0.9519(6) 0.8681(11)
H18_4 H 0.082345 0.938834 0.916093
C29_4 C 0.1109(9) 0.9618(6) 0.7153(11)
H19_4 H 0.101388 0.956012 0.655547
C30_4 C 0.1384(9) 0.9957(6) 0.7325(11)
H5_4 H 0.969110 0.250000 0.456127
O31_4 O 0.9502(4) 0.1226(3) 0.1707(7)
C48_4 C 0.9259(6) 0.1060(5) 0.2347(10)
C56_4 C 0.9041(9) 0.0653(6) 0.2148(12)
C58_4 C 0.8738(9) 0.0119(6) 0.1132(11)
H32_4 H 0.869928 0.003142 0.053207
C59_4 C 0.9009(9) 0.0481(6) 0.1319(11)
H33_4 H 0.917655 0.061166 0.083907
C60_4 C 0.8891(9) 0.0382(6) 0.2847(11)
H34_4 H 0.898612 0.043988 0.344453
C61_4 C 0.8616(9) 0.0043(6) 0.2675(11)
O32_4 O 0.9875(6) 0.1312(6) 0.9885(18)
H49_2 H 0.961393 0.109273 0.987298
C42_4 C 0.8066(5) 0.8891(4) 0.0746(8)
C43_4 C 0.7737(6) 0.8742(5) 0.1444(9)
H25_4 H 0.754730 0.850225 0.134404
C44_4 C 0.8254(6) 0.9491(4) 0.1673(9)
C45_4 C 0.6554(6) 0.8202(5) 0.5196(9)
C46_4 C 0.7696(6) 0.8938(4) 0.2239(9)
C47_4 C 0.7949(6) 0.9330(5) 0.2342(10)
H26_4 H 0.790368 0.947832 0.287858
C49_4 C 0.8323(6) 0.9260(5) 0.0888(9)
H27_4 H 0.854652 0.935667 0.044232
C50_4 C 0.7215(4) 0.8174(2) 0.3958(7)
H28_4 H 0.727608 0.790016 0.412209
C51_4 C 0.7487(4) 0.8351(3) 0.3257(7)
H29_4 H 0.773307 0.819714 0.294687
C52_4 C 0.7396(4) 0.8756(3) 0.3013(6)
C53_4 C 0.7033(4) 0.8984(2) 0.3471(7)
H30_4 H 0.697124 0.925737 0.330692
C54_4 C 0.6760(4) 0.8806(3) 0.4172(7)
H31_4 H 0.651424 0.896040 0.448213
C55_4 C 0.6851(4) 0.8402(3) 0.4416(6)
C57_4 C 0.8529(9) 0.9889(6) 0.1824(11)
H35_4 H 0.847387 0.990202 0.316672
H51_2 H 0.59689 0.861194 0.0468636
H21_4 H 0.630542 0.829545 0.700822
O24_4 O 0.6764(3) 0.8270(3) 0.8614(6)
O26_4 O 0.9490(3) 0.8296(3) 0.8757(6)
C34_4 C 0.7658(2) 0.8279(3) 0.8693(5)
C35_4 C 0.8120(3) 0.8171(3) 0.8311(4)
H22_4 H 0.812843 0.801067 0.778400
C36_4 C 0.8571(2) 0.8299(3) 0.8708(5)
C37_4 C 0.8559(2) 0.8536(3) 0.9487(5)
H23_4 H 0.886306 0.862252 0.975546
C38_4 C 0.8096(3) 0.8644(3) 0.9869(4)
C39_4 C 0.7646(2) 0.8515(3) 0.9472(5)
H24_4 H 0.733328 0.858863 0.973059
C40_4 C 0.9111(5) 0.8173(4) 0.8353(9)
C41_4 C 0.7173(5) 0.8156(4) 0.8208(9)
O33_4 O 0.6120(9) 0.8687(8) 0.9878(11)
H44_2 H 0.992434 0.890873 0.982308
H50_2 H 0.598099 0.895473 0.967723
H37_5 H 0.187341 0.739086 0.378656
H38_5 H 0.150572 0.781019 0.338727
H39_5 H 0.130612 0.729895 0.317053
H43_3 H 0.0437333 0.619325 0.0382669
H45_3 H 0.3506 0.370821 0.00594833
H48_3 H 0.0209047 0.380879 0.00428187
H37_6 H 0.312659 0.260914 0.878656
H38_6 H 0.349428 0.218981 0.838727
H39_6 H 0.369388 0.270105 0.817053
H44_3 H 0.992434 0.609127 0.982308
H49_3 H 0.961393 0.390727 0.987298
H50_3 H 0.598099 0.604527 0.967723
H37_7 H 0.812659 0.239086 0.621344
H38_7 H 0.849428 0.281019 0.661273
H39_7 H 0.869388 0.229895 0.682947
H44_4 H 0.0075661 0.109127 0.0176924
H50_4 H 0.401901 0.104527 0.0322771
H49_4 H 0.0386071 0.890727 0.0127016
H43_4 H 0.956267 0.119325 0.961733
H37_8 H 0.687341 0.760914 0.121344
H38_8 H 0.650572 0.718981 0.161273
H39_8 H 0.630612 0.770105 0.182947
H45_4 H 0.6494 0.870821 0.994052
H48_4 H 0.979095 0.880879 0.995718
loop_
_geom_bond_atom_site_label_1
_geom_bond_atom_site_label_2
_geom_bond_site_symmetry_1
_geom_bond_site_symmetry_2
O11 C12 1_555 1_555
O12 C12 1_555 1_555
Tb7 O11 1_555 1_555
Tb17 O12 1_555 1_555
Tb7 O1 1_555 1_555
Tb2 O4 1_555 1_555
Tb3 O1 1_555 1_555
Tb4 O3 1_555 1_555
O1 H1 1_555 1_555
O2 Tb7 1_555 1_555
H2 O2 1_555 1_555
O3 H3 1_555 1_555
O4 H4 1_555 1_555
O5 Tb2 1_555 1_555
H5 O5 1_555 1_555
O6 Tb2 1_555 1_555
H6 O6 1_555 1_555
O7 Tb3 1_555 1_555
O8 Tb2 1_555 1_555
O9 C7 1_555 1_555
O10 Tb7 1_555 1_555
O13 C15 1_555 1_555
O14 Tb2 1_555 1_555
O15 Tb4 1_555 1_555
O16 Tb4 1_555 1_555
O17 C25 1_555 1_555
C1 C2 1_555 1_555
C2 H7 1_555 1_555
C3 C2 1_555 1_555
C4 C3 1_555 1_555
H8 C4 1_555 1_555
C5 C4 1_555 1_555
C6 C1 1_555 1_555
H9 C6 1_555 1_555
C7 O8 1_555 1_555
C8 O7 1_555 1_555
C9 C5 1_555 1_555
C10 C9 1_555 1_555
H10 C10 1_555 1_555
C11 C14 1_555 1_555
O18 Tb3 1_555 1_555
C13 C10 1_555 1_555
C14 C13 1_555 1_555
H11 C14 1_555 1_555
C15 O16 1_555 1_555
C16 C9 1_555 1_555
H12 C16 1_555 1_555
C17 H13 1_555 1_555
C18 C17 1_555 1_555
H14 C18 1_555 1_555
C19 C13 1_555 1_555
C20 C19 1_555 1_555
H15 C20 1_555 1_555
C21 C20 1_555 1_555
H16 C21 1_555 1_555
C22 C17 1_555 1_555
C23 C15 1_555 1_555
C24 C11 1_555 1_555
C25 O14 1_555 1_555
O19 Tb4 1_555 1_555
O20 Tb3 1_555 1_555
C26 C24 1_555 1_555
H17 C26 1_555 1_555
C27 C23 1_555 1_555
H18 C27 1_555 1_555
C28 O15 1_555 1_555
C29 C23 1_555 1_555
H19 C29 1_555 1_555
C30 C24 1_555 1_555
H20 C30 1_555 1_555
C32 O18 1_555 1_555
C33 C32 1_555 1_555
O21 C28 1_555 1_555
O22 C32 1_555 1_555
Tb5 O23 1_555 1_555
Tb6 O6 1_555 1_555
O23 H21 1_555 1_555
O24 Tb5 1_555 1_555
O25 C40 1_555 1_555
O26 Tb4 1_555 1_555
O27 C41 1_555 1_555
O30 C48 1_555 1_555
O31 Tb6 1_555 1_555
C34 C35 1_555 1_555
C35 H22 1_555 1_555
C36 C35 1_555 1_555
C37 C36 1_555 1_555
H23 C37 1_555 1_555
C38 C37 1_555 1_555
C39 C34 1_555 1_555
H24 C39 1_555 1_555
C40 O26 1_555 1_555
C41 O24 1_555 1_555
C42 C38 1_555 1_555
C43 C42 1_555 1_555
H25 C43 1_555 1_555
C44 C47 1_555 1_555
C46 C43 1_555 1_555
C47 C46 1_555 1_555
H26 C47 1_555 1_555
C48 O31 1_555 1_555
C49 C42 1_555 1_555
H27 C49 1_555 1_555
C50 H28 1_555 1_555
C51 C50 1_555 1_555
H29 C51 1_555 1_555
C52 C46 1_555 1_555
C53 C52 1_555 1_555
H30 C53 1_555 1_555
C54 C53 1_555 1_555
H31 C54 1_555 1_555
C55 C50 1_555 1_555
C56 C48 1_555 1_555
C57 C44 1_555 1_555
O32 Tb6 1_555 1_555
O33 Tb5 1_555 1_555
C58 C57 1_555 1_555
H32 C58 1_555 1_555
C59 C56 1_555 1_555
H33 C59 1_555 1_555
C60 C56 1_555 1_555
H34 C60 1_555 1_555
C61 C57 1_555 1_555
H35 C61 1_555 1_555
O34 Tb2 1_555 1_555
O35 C62 1_555 1_555
C62 O34 1_555 1_555
O36 Tb2 1_555 1_555
H36 O36 1_555 1_555
Tb8 O3 1_555 1_555
Tb10 O23 1_555 1_555
Tb11 O25 1_555 1_555
Tb12 O13 1_555 1_555
Tb13 O4 1_555 1_555
Tb14 O5 1_555 1_555
Tb15 O2 1_555 1_555
Tb17 O1 1_555 1_555
Tb18 O4 1_555 1_555
Tb20 O23 1_555 1_555
Tb21 O3 1_555 1_555
O37 Tb4 1_555 1_555
O38 Tb6 1_555 1_555
O39 Tb7 1_555 1_555
O40 Tb5 1_555 1_555
O41 Tb7 1_555 1_555
O42 Tb6 1_555 1_555
O43 Tb4 1_555 1_555
O44 Tb3 1_555 1_555
O45 Tb5 1_555 1_555
O46 Tb5 1_555 1_555
O47 Tb3 1_555 1_555
O48 Tb4 1_555 1_555
O49 Tb2 1_555 1_555
O50 Tb7 1_555 1_555
O52 Tb7 1_555 1_555
O53 Tb4 1_555 1_555
O54 Tb6 1_555 1_555
O55 Tb3 1_555 1_555
O56 Tb5 1_555 1_555
O57 Tb6 1_555 1_555
O58 Tb3 1_555 1_555
O59 Tb5 1_555 1_555
O60 Tb5 1_555 1_555
Tb3 O2 1_555 1_555
O5 Tb13 1_555 1_555
O6 Tb18 1_555 1_555
O9 Tb6 1_555 1_555
O10 C8 1_555 1_555
O17 Tb13 1_555 1_555
C1 C8 1_555 1_555
C3 C7 1_555 1_555
C5 C6 1_555 1_555
C11 C16 1_555 1_555
C18 C19 1_555 1_555
C21 C22 1_555 1_555
C26 C27 1_555 1_555
C29 C30 1_555 1_555
O21 Tb21 1_555 1_555
O22 Tb15 1_555 1_555
Tb6 O36 1_555 1_555
O27 Tb10 1_555 1_555
O30 Tb14 1_555 1_555
C34 C41 1_555 1_555
C36 C40 1_555 1_555
C38 C39 1_555 1_555
C44 C49 1_555 1_555
C51 C52 1_555 1_555
C54 C55 1_555 1_555
C58 C59 1_555 1_555
C60 C61 1_555 1_555
O35 Tb14 1_555 1_555
O36 Tb14 1_555 1_555
Tb8 O37 1_555 1_555
Tb10 O40 1_555 1_555
Tb11 O43 1_555 1_555
Tb11 O48 1_555 1_555
Tb12 O37 1_555 1_555
Tb12 O43 1_555 1_555
Tb14 O38 1_555 1_555
Tb15 O39 1_555 1_555
Tb15 O47 1_555 1_555
Tb17 O41 1_555 1_555
Tb17 O44 1_555 1_555
Tb18 O42 1_555 1_555
Tb20 O45 1_555 1_555
Tb21 O48 1_555 1_555
C33 H37 1_555 1_555
C33 H38 1_555 1_555
C33 H39 1_555 1_555
C28 H47 1_555 1_555
O28 C45 1_555 1_555
O29 C45 1_555 1_555
Tb10 O28 1_555 1_555
Tb20 O29 1_555 1_555
C31 H40 1_555 1_555
C31 H41 1_555 1_555
C31 H42 1_555 1_555
C63 H52 1_555 1_555
C63 H53 1_555 1_555
C63 H54 1_555 1_555
O38 H21_2 1_555 1_555
O24_2 Tb14 1_555 1_555
O25_2 C40_2 1_555 1_555
O27_2 C41_2 1_555 1_555
C34_2 C35_2 1_555 1_555
C35_2 H22_2 1_555 1_555
C36_2 C35_2 1_555 1_555
C37_2 C36_2 1_555 1_555
H23_2 C37_2 1_555 1_555
C38_2 C37_2 1_555 1_555
C39_2 C34_2 1_555 1_555
H24_2 C39_2 1_555 1_555
C40_2 O26_2 1_555 1_555
C41_2 O24_2 1_555 1_555
O33_2 Tb14 1_555 1_555
Tb10_2 O38 1_555 1_555
Tb11_2 O25_2 1_555 1_555
O40_2 Tb14 1_555 1_555
O27_2 Tb10_2 1_555 1_555
C34_2 C41_2 1_555 1_555
C36_2 C40_2 1_555 1_555
C38_2 C39_2 1_555 1_555
Tb10_2 O40_2 1_555 1_555
Tb11_2 O48_2 1_555 1_555
O32_2 H49 1_555 1_555
O33_2 H50 1_555 1_555
H5_2 O46 1_555 1_555
O28_2 C45_2 1_555 1_555
O54 C45_2 1_555 1_555
O56 C48_2 1_555 1_555
O31_2 Tb20 1_555 1_555
C43_2 C42_2 1_555 1_555
H25_2 C43_2 1_555 1_555
C44_2 C47_2 1_555 1_555
C45_2 C55_2 1_555 1_555
C46_2 C43_2 1_555 1_555
C47_2 C46_2 1_555 1_555
H26_2 C47_2 1_555 1_555
C48_2 O31_2 1_555 1_555
C49_2 C42_2 1_555 1_555
H27_2 C49_2 1_555 1_555
C50_2 H28_2 1_555 1_555
C51_2 C50_2 1_555 1_555
H29_2 C51_2 1_555 1_555
C52_2 C46_2 1_555 1_555
C53_2 C52_2 1_555 1_555
H30_2 C53_2 1_555 1_555
C54_2 C53_2 1_555 1_555
H31_2 C54_2 1_555 1_555
C55_2 C50_2 1_555 1_555
C56_2 C48_2 1_555 1_555
C57_2 C44_2 1_555 1_555
C58_2 C57_2 1_555 1_555
H32_2 C58_2 1_555 1_555
C59_2 C56_2 1_555 1_555
H33_2 C59_2 1_555 1_555
C60_2 C56_2 1_555 1_555
H34_2 C60_2 1_555 1_555
C61_2 C57_2 1_555 1_555
H35_2 C61_2 1_555 1_555
Tb10_2 O28_2 1_555 1_555
Tb13_2 O4_2 1_555 1_555
Tb18_2 O4_2 1_555 1_555
O42_2 Tb20 1_555 1_555
O46 Tb13_2 1_555 1_555
O17_2 Tb13_2 1_555 1_555
C44_2 C49_2 1_555 1_555
C51_2 C52_2 1_555 1_555
C54_2 C55_2 1_555 1_555
C58_2 C59_2 1_555 1_555
C60_2 C61_2 1_555 1_555
Tb18_2 O42_2 1_555 1_555
O41 H3_2 1_555 1_555
O11_2 C12_2 1_555 1_555
O53 C12_2 1_555 1_555
O55 C15_2 1_555 1_555
O16_2 Tb17 1_555 1_555
C10_2 C9_2 1_555 1_555
H10_2 C10_2 1_555 1_555
C11_2 C14_2 1_555 1_555
C12_2 C22_2 1_555 1_555
C13_2 C10_2 1_555 1_555
C14_2 C13_2 1_555 1_555
H11_2 C14_2 1_555 1_555
C15_2 O16_2 1_555 1_555
C16_2 C9_2 1_555 1_555
H12_2 C16_2 1_555 1_555
C17_2 H13_2 1_555 1_555
C18_2 C17_2 1_555 1_555
H14_2 C18_2 1_555 1_555
C19_2 C13_2 1_555 1_555
C20_2 C19_2 1_555 1_555
H15_2 C20_2 1_555 1_555
C21_2 C20_2 1_555 1_555
H16_2 C21_2 1_555 1_555
C22_2 C17_2 1_555 1_555
C23_2 C15_2 1_555 1_555
C24_2 C11_2 1_555 1_555
C26_2 C24_2 1_555 1_555
H17_2 C26_2 1_555 1_555
C27_2 C23_2 1_555 1_555
H18_2 C27_2 1_555 1_555
C29_2 C23_2 1_555 1_555
H19_2 C29_2 1_555 1_555
C30_2 C24_2 1_555 1_555
H20_2 C30_2 1_555 1_555
C32_2 O18_2 1_555 1_555
C33_2 C32_2 1_555 1_555
O22_2 C32_2 1_555 1_555
Tb8 O11_2 1_555 1_555
Tb21_2 O41 1_555 1_555
C11_2 C16_2 1_555 1_555
C18_2 C19_2 1_555 1_555
C21_2 C22_2 1_555 1_555
C26_2 C27_2 1_555 1_555
C29_2 C30_2 1_555 1_555
C33_2 H37_2 1_555 1_555
C33_2 H38_2 1_555 1_555
C33_2 H39_2 1_555 1_555
O37 H1_2 1_555 1_555
O2_2 Tb8 1_555 1_555
H2_2 O2_2 1_555 1_555
O6_2 Tb2_2 1_555 1_555
H6_2 O6_2 1_555 1_555
O7_2 Tb12 1_555 1_555
O8_2 Tb2_2 1_555 1_555
O9_2 C7_2 1_555 1_555
O10_2 Tb8 1_555 1_555
O14_2 Tb2_2 1_555 1_555
C1_2 C2_2 1_555 1_555
C2_2 H7_2 1_555 1_555
C3_2 C2_2 1_555 1_555
C4_2 C3_2 1_555 1_555
H8_2 C4_2 1_555 1_555
C5_2 C4_2 1_555 1_555
C6_2 C1_2 1_555 1_555
H9_2 C6_2 1_555 1_555
C7_2 O8_2 1_555 1_555
C8_2 O7_2 1_555 1_555
C25_2 O14_2 1_555 1_555
O20_2 Tb12 1_555 1_555
C28_2 O15_2 1_555 1_555
C31_2 C25_2 1_555 1_555
O21_2 C28_2 1_555 1_555
O34_2 Tb2_2 1_555 1_555
C62_2 O34_2 1_555 1_555
C63_2 C62_2 1_555 1_555
Tb15_2 O2_2 1_555 1_555
O39_2 Tb8 1_555 1_555
O47_2 Tb12 1_555 1_555
O49_2 Tb2_2 1_555 1_555
O50_2 Tb8 1_555 1_555
O52_2 Tb8 1_555 1_555
O58_2 Tb12 1_555 1_555
Tb12 O2_2 1_555 1_555
O10_2 C8_2 1_555 1_555
C1_2 C8_2 1_555 1_555
C3_2 C7_2 1_555 1_555
C5_2 C6_2 1_555 1_555
Tb15_2 O39_2 1_555 1_555
Tb15_2 O47_2 1_555 1_555
C31_2 H40_2 1_555 1_555
C31_2 H41_2 1_555 1_555
C31_2 H42_2 1_555 1_555
O19_2 H43 1_555 1_555
O20_2 H45 1_555 1_555
C28_2 H47_2 1_555 1_555
C63_2 H52_2 1_555 1_555
C63_2 H53_2 1_555 1_555
C63_2 H54_2 1_555 1_555
O52 C45_3 1_555 1_555
O29_2 C45_3 1_555 1_555
Tb21_2 O29_2 1_555 1_555
O42 H3_3 1_555 1_555
O13_2 C15_3 1_555 1_555
O15_3 Tb18 1_555 1_555
O16_3 Tb18 1_555 1_555
C15_3 O16_3 1_555 1_555
C23_3 C15_3 1_555 1_555
O19_3 Tb18 1_555 1_555
H17_3 C26_3 1_555 1_555
C27_3 C23_3 1_555 1_555
H18_3 C27_3 1_555 1_555
C28_3 O15_3 1_555 1_555
C29_3 C23_3 1_555 1_555
H19_3 C29_3 1_555 1_555
O57 C28_3 1_555 1_555
O39 H21_3 1_555 1_555
O24_3 Tb15 1_555 1_555
O49 C40_3 1_555 1_555
O26_3 Tb18 1_555 1_555
O50 C41_3 1_555 1_555
C34_3 C35_3 1_555 1_555
C35_3 H22_3 1_555 1_555
C36_3 C35_3 1_555 1_555
C37_3 C36_3 1_555 1_555
H23_3 C37_3 1_555 1_555
C38_3 C37_3 1_555 1_555
C39_3 C34_3 1_555 1_555
H24_3 C39_3 1_555 1_555
C40_3 O26_3 1_555 1_555
C41_3 O24_3 1_555 1_555
C42_3 C38_3 1_555 1_555
C43_3 C42_3 1_555 1_555
H25_3 C43_3 1_555 1_555
C44_3 C47_3 1_555 1_555
C46_3 C43_3 1_555 1_555
C47_3 C46_3 1_555 1_555
H26_3 C47_3 1_555 1_555
C49_3 C42_3 1_555 1_555
H27_3 C49_3 1_555 1_555
C50_3 H28_3 1_555 1_555
C51_3 C50_3 1_555 1_555
H29_3 C51_3 1_555 1_555
C52_3 C46_3 1_555 1_555
C53_3 C52_3 1_555 1_555
H30_3 C53_3 1_555 1_555
C54_3 C53_3 1_555 1_555
H31_3 C54_3 1_555 1_555
C55_3 C50_3 1_555 1_555
C57_3 C44_3 1_555 1_555
O33_3 Tb15 1_555 1_555
Tb10_2 O42 1_555 1_555
Tb13 O13_2 1_555 1_555
Tb21_2 O39 1_555 1_555
O37_2 Tb18 1_555 1_555
O45_2 Tb15 1_555 1_555
O53_2 Tb18 1_555 1_555
O56_2 Tb15 1_555 1_555
O59_2 Tb15 1_555 1_555
C26_3 C27_3 1_555 1_555
C29_3 C30_3 1_555 1_555
C34_3 C41_3 1_555 1_555
C36_3 C40_3 1_555 1_555
C38_3 C39_3 1_555 1_555
C44_3 C49_3 1_555 1_555
C51_3 C52_3 1_555 1_555
C54_3 C55_3 1_555 1_555
Tb10_2 O37_2 1_555 1_555
Tb13 O37_2 1_555 1_555
Tb21_2 O45_2 1_555 1_555
C28_3 H47_3 1_555 1_555
C31_3 H40_3 1_555 1_555
C31_3 H41_3 1_555 1_555
C31_3 H42_3 1_555 1_555
C63_3 H52_3 1_555 1_555
C63_3 H53_3 1_555 1_555
C63_3 H54_3 1_555 1_555
Tb10 O1_2 1_555 1_555
Tb13_2 O1_2 1_555 1_555
O1_2 H1_3 1_555 1_555
H2_3 O40 1_555 1_555
O43 H4_3 1_555 1_555
O47_2 Tb11 1_555 1_555
H5_3 O47_2 1_555 1_555
H6_3 O48 1_555 1_555
O7_3 Tb13_2 1_555 1_555
O8_3 Tb11 1_555 1_555
O9_3 C7_3 1_555 1_555
O10_3 Tb10 1_555 1_555
O14_3 Tb11 1_555 1_555
O58_2 C25_3 1_555 1_555
C1_3 C2_3 1_555 1_555
C2_3 H7_3 1_555 1_555
C3_3 C2_3 1_555 1_555
C4_3 C3_3 1_555 1_555
H8_3 C4_3 1_555 1_555
C5_3 C4_3 1_555 1_555
C6_3 C1_3 1_555 1_555
H9_3 C6_3 1_555 1_555
C7_3 O8_3 1_555 1_555
C8_3 O7_3 1_555 1_555
C9_3 C5_3 1_555 1_555
C10_3 C9_3 1_555 1_555
H10_3 C10_3 1_555 1_555
C11_3 C14_3 1_555 1_555
O18_3 Tb13_2 1_555 1_555
C13_3 C10_3 1_555 1_555
C14_3 C13_3 1_555 1_555
H11_3 C14_3 1_555 1_555
C16_3 C9_3 1_555 1_555
H12_3 C16_3 1_555 1_555
C17_3 H13_3 1_555 1_555
C18_3 C17_3 1_555 1_555
H14_3 C18_3 1_555 1_555
C19_3 C13_3 1_555 1_555
C20_3 C19_3 1_555 1_555
H15_3 C20_3 1_555 1_555
C21_3 C20_3 1_555 1_555
H16_3 C21_3 1_555 1_555
C22_3 C17_3 1_555 1_555
C24_3 C11_3 1_555 1_555
C25_3 O14_3 1_555 1_555
O20_3 Tb13_2 1_555 1_555
C32_3 O18_3 1_555 1_555
C33_3 C32_3 1_555 1_555
O60 C32_3 1_555 1_555
O30_2 C48_3 1_555 1_555
O31_3 Tb21 1_555 1_555
C48_3 O31_3 1_555 1_555
C56_3 C48_3 1_555 1_555
O32_3 Tb21 1_555 1_555
H32_3 C58_3 1_555 1_555
C59_3 C56_3 1_555 1_555
H33_3 C59_3 1_555 1_555
C60_3 C56_3 1_555 1_555
H34_3 C60_3 1_555 1_555
O34_3 Tb11 1_555 1_555
O35_2 C62_3 1_555 1_555
C62_3 O34_3 1_555 1_555
O36_2 Tb11 1_555 1_555
H36_3 O36_2 1_555 1_555
Tb18_2 O1_2 1_555 1_555
O39_2 Tb21 1_555 1_555
O42_2 Tb10 1_555 1_555
O51 Tb10 1_555 1_555
O54_2 Tb21 1_555 1_555
O55_2 Tb13_2 1_555 1_555
Tb13_2 O40 1_555 1_555
O9_3 Tb21 1_555 1_555
O10_3 C8_3 1_555 1_555
C1_3 C8_3 1_555 1_555
C3_3 C7_3 1_555 1_555
C5_3 C6_3 1_555 1_555
C11_3 C16_3 1_555 1_555
C18_3 C19_3 1_555 1_555
C21_3 C22_3 1_555 1_555
Tb21 O36_2 1_555 1_555
O30_2 Tb15_2 1_555 1_555
C58_3 C59_3 1_555 1_555
C60_3 C61_3 1_555 1_555
O35_2 Tb15_2 1_555 1_555
O36_2 Tb15_2 1_555 1_555
C33_3 H37_3 1_555 1_555
C33_3 H38_3 1_555 1_555
C33_3 H39_3 1_555 1_555
O51 C12_3 1_555 1_555
O12_2 C12_3 1_555 1_555
Tb18_2 O12_2 1_555 1_555
O37_2 H1_4 1_555 1_555
H2_4 O40_2 1_555 1_555
H6_4 O48_2 1_555 1_555
O7_4 Tb13 1_555 1_555
O8_4 Tb11_2 1_555 1_555
O9_4 C7_4 1_555 1_555
O10_4 Tb10_2 1_555 1_555
O14_4 Tb11_2 1_555 1_555
C1_4 C2_4 1_555 1_555
C2_4 H7_4 1_555 1_555
C3_4 C2_4 1_555 1_555
C4_4 C3_4 1_555 1_555
H8_4 C4_4 1_555 1_555
C5_4 C4_4 1_555 1_555
C6_4 C1_4 1_555 1_555
H9_4 C6_4 1_555 1_555
C7_4 O8_4 1_555 1_555
C8_4 O7_4 1_555 1_555
C25_4 O14_4 1_555 1_555
O20_4 Tb13 1_555 1_555
C31_4 C25_4 1_555 1_555
O34_4 Tb11_2 1_555 1_555
C62_4 O34_4 1_555 1_555
C63_4 C62_4 1_555 1_555
O51_2 Tb10_2 1_555 1_555
Tb13 O40_2 1_555 1_555
O10_4 C8_4 1_555 1_555
C1_4 C8_4 1_555 1_555
C3_4 C7_4 1_555 1_555
C5_4 C6_4 1_555 1_555
C31_4 H40_4 1_555 1_555
C31_4 H41_4 1_555 1_555
C31_4 H42_4 1_555 1_555
O20_4 H45_2 1_555 1_555
C63_4 H52_4 1_555 1_555
C63_4 H53_4 1_555 1_555
C63_4 H54_4 1_555 1_555
O51_2 C12_4 1_555 1_555
O53_2 C12_4 1_555 1_555
C10_4 C9_4 1_555 1_555
H10_4 C10_4 1_555 1_555
C11_4 C14_4 1_555 1_555
C12_4 C22_4 1_555 1_555
C13_4 C10_4 1_555 1_555
C14_4 C13_4 1_555 1_555
H11_4 C14_4 1_555 1_555
C16_4 C9_4 1_555 1_555
H12_4 C16_4 1_555 1_555
C17_4 H13_4 1_555 1_555
C18_4 C17_4 1_555 1_555
H14_4 C18_4 1_555 1_555
C19_4 C13_4 1_555 1_555
C20_4 C19_4 1_555 1_555
H15_4 C20_4 1_555 1_555
C21_4 C20_4 1_555 1_555
H16_4 C21_4 1_555 1_555
C22_4 C17_4 1_555 1_555
C24_4 C11_4 1_555 1_555
C32_4 O18_4 1_555 1_555
C33_4 C32_4 1_555 1_555
O60_2 C32_4 1_555 1_555
C11_4 C16_4 1_555 1_555
C18_4 C19_4 1_555 1_555
C21_4 C22_4 1_555 1_555
C33_4 H37_4 1_555 1_555
C33_4 H38_4 1_555 1_555
C33_4 H39_4 1_555 1_555
C28_4 O15_4 1_555 1_555
O57_2 C28_4 1_555 1_555
O19_4 H43_2 1_555 1_555
C28_4 H47_4 1_555 1_555
O42_2 H3_4 1_555 1_555
O55_2 C15_4 1_555 1_555
O16_4 Tb18_2 1_555 1_555
C15_4 O16_4 1_555 1_555
C23_4 C15_4 1_555 1_555
H17_4 C26_4 1_555 1_555
C27_4 C23_4 1_555 1_555
H18_4 C27_4 1_555 1_555
C29_4 C23_4 1_555 1_555
H19_4 C29_4 1_555 1_555
C26_4 C27_4 1_555 1_555
C29_4 C30_4 1_555 1_555
H5_4 O47 1_555 1_555
O56_2 C48_4 1_555 1_555
O31_4 Tb21_2 1_555 1_555
C48_4 O31_4 1_555 1_555
C56_4 C48_4 1_555 1_555
H32_4 C58_4 1_555 1_555
C59_4 C56_4 1_555 1_555
H33_4 C59_4 1_555 1_555
C60_4 C56_4 1_555 1_555
H34_4 C60_4 1_555 1_555
C58_4 C59_4 1_555 1_555
C60_4 C61_4 1_555 1_555
O32_4 H49_2 1_555 1_555
O52_2 C45_4 1_555 1_555
O54_2 C45_4 1_555 1_555
C43_4 C42_4 1_555 1_555
H25_4 C43_4 1_555 1_555
C44_4 C47_4 1_555 1_555
C45_4 C55_4 1_555 1_555
C46_4 C43_4 1_555 1_555
C47_4 C46_4 1_555 1_555
H26_4 C47_4 1_555 1_555
C49_4 C42_4 1_555 1_555
H27_4 C49_4 1_555 1_555
C50_4 H28_4 1_555 1_555
C51_4 C50_4 1_555 1_555
H29_4 C51_4 1_555 1_555
C52_4 C46_4 1_555 1_555
C53_4 C52_4 1_555 1_555
H30_4 C53_4 1_555 1_555
C54_4 C53_4 1_555 1_555
H31_4 C54_4 1_555 1_555
C55_4 C50_4 1_555 1_555
C57_4 C44_4 1_555 1_555
C44_4 C49_4 1_555 1_555
C51_4 C52_4 1_555 1_555
C54_4 C55_4 1_555 1_555
O39_2 H21_4 1_555 1_555
O24_4 Tb15_2 1_555 1_555
O49_2 C40_4 1_555 1_555
O50_2 C41_4 1_555 1_555
C34_4 C35_4 1_555 1_555
C35_4 H22_4 1_555 1_555
C36_4 C35_4 1_555 1_555
C37_4 C36_4 1_555 1_555
H23_4 C37_4 1_555 1_555
C38_4 C37_4 1_555 1_555
C39_4 C34_4 1_555 1_555
H24_4 C39_4 1_555 1_555
C40_4 O26_4 1_555 1_555
C41_4 O24_4 1_555 1_555
O33_4 Tb15_2 1_555 1_555
C34_4 C41_4 1_555 1_555
C36_4 C40_4 1_555 1_555
C38_4 C39_4 1_555 1_555
O33_4 H50_2 1_555 1_555
C33_3 H37_5 1_555 1_555
C33_3 H38_5 1_555 1_555
C33_3 H39_5 1_555 1_555
O32_2 H43_3 1_555 1_555
O33_2 H45_3 1_555 1_555
C33_4 H37_6 1_555 1_555
C33_4 H38_6 1_555 1_555
C33_4 H39_6 1_555 1_555
O19_2 H49_3 1_555 1_555
O20_2 H50_3 1_555 1_555
C33 H37_7 1_555 1_555
C33 H38_7 1_555 1_555
C33 H39_7 1_555 1_555
O20_4 H50_4 1_555 1_555
O19_4 H49_4 1_555 1_555
O32_4 H43_4 1_555 1_555
C33_2 H37_8 1_555 1_555
C33_2 H38_8 1_555 1_555
C33_2 H39_8 1_555 1_555
O33_4 H45_4 1_555 1_555

#END
