
###############################################################################
#
# This file contains modified crystal structure data generated from the
# MOF subset of the Cambridge Structural Database (CSD) v543 
# hosted by the Cambridge Crystallographic Data Centre (CCDC).
#
# This work is licensed under the Creative Commons
# Attribution-NonCommercial-ShareAlike 4.0 International License.
# To view a copy of this license, visit
# http://creativecommons.org/licenses/by-nc-sa/4.0/
# or send a letter to
# Creative Commons, PO Box 1866, Mountain View, CA 94042, USA.
#
# CIF created using the CSD Python API on 29 September 2022
# The structure has been converted into the P1 space group
# The structure has a 3D framework
# The original CSD entry UYEWED is in the orthorhombic crystal system
# The framework has been calculated to contain at least 10.0% void space
# The void calculation uses a probe of radius 1.32A, grid spacing 0.4
# The framework is charged, counterions have been retained in the structure
# H atom positions have been added when not included in the experimental data
#
###############################################################################

data_UYEWED
_chemical_formula_moiety         '(C252 H196 O124 Y24 10-)n'
_symmetry_cell_setting           triclinic
_symmetry_space_group_name_H-M   'P 1'
_symmetry_Int_Tables_number      1
_space_group_name_Hall           'P 1'
loop_
_symmetry_equiv_pos_site_id
_symmetry_equiv_pos_as_xyz
1 x,y,z
_cell_length_a                   25.401(5)
_cell_length_b                   27.779(6)
_cell_length_c                   14.625(3)
_cell_angle_alpha                90
_cell_angle_beta                 90
_cell_angle_gamma                90
_cell_volume                     10319.6
loop_
_atom_site_label
_atom_site_type_symbol
_atom_site_fract_x
_atom_site_fract_y
_atom_site_fract_z
O17 O 0.5549(4) 0.2974(5) 0.0083(7)
C33 C 0.5683(8) 0.250000 0.0290(17)
H21 H 0.595687 0.249999 0.071203
O20 O 0.5549(4) 0.2026(5) 0.0083(7)
Y1 Y 0.10425(6) 0.250000 0.81229(13)
Y2 Y 0.40332(6) 0.250000 0.79997(13)
Y3 Y 0.48019(5) 0.31965(6) 0.61247(10)
Y4 Y 0.52540(5) 0.32089(7) 0.87104(11)
O1 O 0.4386(4) 0.250000 0.6518(8)
H1 H 0.407256 0.250000 0.612739
O2 O 0.0312(4) 0.250000 0.9078(8)
H2 H 0.043999 0.250000 0.971028
O3 O 0.4775(4) 0.250000 0.8922(8)
H3 H 0.465138 0.250000 0.955681
O4 O 0.0692(4) 0.250000 0.6688(8)
H4 H 0.100195 0.250000 0.628869
O5 O 0.0492(3) 0.1880(4) 0.7863(7)
H5 H 0.070895 0.159527 0.798642
O6 O 0.4595(3) 0.3123(3) 0.7684(6)
H6 H 0.437641 0.340712 0.779809
O7 O 0.3502(3) 0.3012(5) 0.7248(8)
O8 O 0.3932(4) 0.3408(5) 0.6120(8)
O9 O 0.1587(4) 0.3015(5) 0.7360(9)
O10 O 0.1127(4) 0.3431(5) 0.6340(8)
O11 O 0.4552(6) 0.2892(7) 0.4696(9)
O12 O 0.0114(6) 0.6016(7) 0.1643(12)
C1 C 0.3513(5) 0.3277(7) 0.6539(13)
C2 C 0.2046(6) 0.3458(7) 0.6229(12)
C3 C 0.2523(5) 0.3307(7) 0.6592(12)
H7 H 0.252929 0.311452 0.711258
C4 C 0.2999(5) 0.3695(6) 0.5323(10)
H8 H 0.331098 0.376968 0.502098
C5 C 0.2994(5) 0.3444(6) 0.6176(12)
C6 C 0.2483(6) 0.3828(8) 0.4957(11)
C7 C 0.2044(6) 0.3692(6) 0.5402(10)
H9 H 0.172093 0.376056 0.513455
O16 O 0.1338(7) 0.3031(6) 0.9267(14)
C8 C 0.1557(7) 0.3291(8) 0.6657(14)
O18 O 0.0537(7) 0.3498(7) 0.9682(13)
C10 C 0.0196(9) 0.5846(11) 0.2437(19)
C11 C 0.2734(5) 0.4154(6) 0.2450(8)
C12 C 0.2338(6) 0.4489(6) 0.2293(8)
H10 H 0.230403 0.463035 0.171917
C13 C 0.1993(5) 0.4613(6) 0.2992(9)
C14 C 0.2044(5) 0.4402(6) 0.3849(8)
H11 H 0.181338 0.448466 0.431663
C15 C 0.2440(6) 0.4066(6) 0.4006(7)
C16 C 0.2785(5) 0.3942(6) 0.3307(9)
H12 H 0.304960 0.371774 0.341264
C17 C 0.1036(8) 0.3407(8) 0.946(2)
C18 C 0.3612(5) 0.3926(8) 0.1834(9)
H13 H 0.376039 0.402960 0.238083
C19 C 0.3932(4) 0.3746(8) 0.1142(10)
H14 H 0.429427 0.372916 0.122712
C20 C 0.3710(5) 0.3591(8) 0.0325(9)
C21 C 0.3168(5) 0.3617(8) 0.0198(8)
C22 C 0.2849(3) 0.3797(8) 0.0889(10)
H16 H 0.248620 0.381373 0.080486
C23 C 0.3070(5) 0.3951(8) 0.1707(9)
C24 C 0.1336(6) 0.5224(6) 0.3581(9)
H17 H 0.146850 0.517888 0.416822
C25 C 0.1578(5) 0.5002(6) 0.2840(11)
C26 C 0.1380(6) 0.5070(6) 0.1963(9)
H18 H 0.154174 0.492102 0.146756
C27 C 0.0941(6) 0.5360(6) 0.1827(9)
H19 H 0.080936 0.540552 0.124072
C28 C 0.0700(5) 0.5582(6) 0.2569(11)
C29 C 0.0898(6) 0.5515(6) 0.3446(10)
H20 H 0.073611 0.566339 0.394137
C30 C 0.4401(15) 0.250000 0.4334(18)
C31 C 0.4199(12) 0.250000 0.3433(17)
C32 C 0.1352(10) 0.3818(9) 0.928(2)
O19 O 0.4552(6) 0.2108(7) 0.4696(9)
Y5 Y 0.48019(5) 0.18035(6) 0.61247(10)
Y6 Y 0.52540(5) 0.17911(7) 0.87104(11)
O21 O 0.0492(3) 0.3120(4) 0.7863(7)
H22 H 0.070895 0.340473 0.798642
O22 O 0.4595(3) 0.1877(3) 0.7684(6)
H23 H 0.437641 0.159288 0.779809
O23 O 0.3502(3) 0.1988(5) 0.7248(8)
O24 O 0.3932(4) 0.1592(5) 0.6120(8)
O25 O 0.1587(4) 0.1985(5) 0.7360(9)
O26 O 0.1127(4) 0.1569(5) 0.6340(8)
C34 C 0.3513(5) 0.1723(7) 0.6539(13)
C35 C 0.2046(6) 0.1542(7) 0.6229(12)
C36 C 0.2523(5) 0.1693(7) 0.6592(12)
H24 H 0.252929 0.188548 0.711258
C37 C 0.2999(5) 0.1305(6) 0.5323(10)
H25 H 0.331098 0.123032 0.502098
C38 C 0.2994(5) 0.1556(6) 0.6176(12)
C39 C 0.2483(6) 0.1172(8) 0.4957(11)
C40 C 0.2044(6) 0.1308(6) 0.5402(10)
H26 H 0.172093 0.123944 0.513455
O31 O 0.1338(7) 0.1969(6) 0.9267(14)
C41 C 0.1557(7) 0.1709(8) 0.6657(14)
O32 O 0.0537(7) 0.1502(7) 0.9682(13)
C44 C 0.2734(5) 0.0846(6) 0.2450(8)
C45 C 0.2338(6) 0.0511(6) 0.2293(8)
H27 H 0.230403 0.036965 0.171917
C46 C 0.1993(5) 0.0387(6) 0.2992(9)
C47 C 0.2044(5) 0.0598(6) 0.3849(8)
H28 H 0.181338 0.051534 0.431663
C48 C 0.2440(6) 0.0934(6) 0.4006(7)
C49 C 0.2785(5) 0.1058(6) 0.3307(9)
H29 H 0.304960 0.128226 0.341264
C50 C 0.1036(8) 0.1593(8) 0.946(2)
C51 C 0.3612(5) 0.1074(8) 0.1834(9)
H30 H 0.376039 0.097040 0.238083
C52 C 0.3932(4) 0.1254(8) 0.1142(10)
H31 H 0.429427 0.127084 0.122712
C53 C 0.3710(5) 0.1409(8) 0.0325(9)
C54 C 0.3168(5) 0.1383(8) 0.0198(8)
C55 C 0.2849(3) 0.1203(8) 0.0889(10)
H33 H 0.248620 0.118627 0.080486
C56 C 0.3070(5) 0.1049(8) 0.1707(9)
H35 H 0.154174 0.007898 0.146756
C63 C 0.1352(10) 0.1182(9) 0.928(2)
Y8 Y 0.01981(5) 0.68035(6) 0.11247(10)
Y14 Y 0.02540(5) 0.17911(7) 0.62896(11)
Y15 Y 0.02540(5) 0.32089(7) 0.62896(11)
O33 O 0.5312(4) 0.250000 0.5922(8)
O34 O 0.5692(4) 0.250000 0.8312(8)
O35 O 0.5492(3) 0.3120(4) 0.7137(7)
O36 O 0.5492(3) 0.1880(4) 0.7137(7)
O37 O 0.6127(4) 0.1569(5) 0.8660(8)
O38 O 0.6127(4) 0.3431(5) 0.8660(8)
O39 O 0.4886(6) 0.3984(7) 0.6643(12)
O40 O 0.4886(6) 0.1016(7) 0.6643(12)
O41 O 0.3800(5) 0.3018(6) 0.9089(9)
O42 O 0.3800(5) 0.1982(6) 0.9089(9)
O43 O 0.4544(5) 0.3471(6) 0.9562(8)
O44 O 0.4544(5) 0.1529(6) 0.9562(8)
O45 O 0.5090(6) 0.3996(7) 0.8096(12)
O46 O 0.5090(6) 0.1004(7) 0.8096(12)
O47 O 0.5537(7) 0.1502(7) 0.5318(13)
O48 O 0.5537(7) 0.3498(7) 0.5318(13)
H38 H 0.147051 0.38175 0.85644
H39 H 0.112697 0.414282 0.942503
H40 H 0.170082 0.380882 0.971255
H41 H 0.449791 0.263467 0.296449
H42 H 0.409061 0.213458 0.323994
H43 H 0.385291 0.273075 0.34007
H44 H 0.170082 0.119118 0.971255
H45 H 0.112697 0.0857177 0.942503
H46 H 0.147051 0.11825 0.85644
C9 C 0.4036(8) 0.3331(10) 0.9531(14)
H15 H 0.302008 0.351330 0.965116
C42 C 0.4036(8) 0.1669(10) 0.9531(14)
H32 H 0.302008 0.148670 0.965116
O27 O 0.0114(6) 0.8984(7) 0.1643(12)
C43 C 0.0196(9) 0.9154(11) 0.2437(19)
C57 C 0.1336(6) 0.9776(6) 0.3581(9)
H34 H 0.146850 0.982112 0.416822
C58 C 0.1578(5) 0.9998(6) 0.2840(11)
C59 C 0.1380(6) 0.9930(6) 0.1963(9)
C60 C 0.0941(6) 0.9640(6) 0.1827(9)
H36 H 0.080936 0.959448 0.124072
C61 C 0.0700(5) 0.9418(6) 0.2569(11)
C62 C 0.0898(6) 0.9485(6) 0.3446(10)
H37 H 0.073611 0.933661 0.394137
Y11 Y 0.01981(5) 0.81965(6) 0.11247(10)
O15 O 0.9910(6) 0.6004(7) 0.3096(12)
Y9 Y 0.98019(5) 0.18035(6) 0.88753(10)
Y10 Y 0.98019(5) 0.31965(6) 0.88753(10)
Y13 Y 0.97460(5) 0.67911(7) 0.37104(11)
O30 O 0.9910(6) 0.8996(7) 0.3096(12)
Y17 Y 0.97460(5) 0.82089(7) 0.37104(11)
C43_2 C 0.4804(9) 0.0846(11) 0.7437(19)
C57_2 C 0.3664(6) 0.0224(6) 0.8581(9)
H34_2 H 0.353150 0.017888 0.916822
C58_2 C 0.3422(5) 0.0002(6) 0.7840(11)
C59_2 C 0.3620(6) 0.0070(6) 0.6963(9)
C60_2 C 0.4059(6) 0.0360(6) 0.6827(9)
H36_2 H 0.419064 0.040552 0.624072
C61_2 C 0.4300(5) 0.0582(6) 0.7569(11)
C62_2 C 0.4102(6) 0.0515(6) 0.8446(10)
H37_2 H 0.426389 0.066339 0.894137
Y1_2 Y 0.39575(6) 0.750000 0.31229(13)
Y2_2 Y 0.09668(6) 0.750000 0.29997(13)
O1_2 O 0.0614(4) 0.750000 0.1518(8)
H1_2 H 0.092744 0.750000 0.112739
O2_2 O 0.4688(4) 0.750000 0.4078(8)
H2_2 H 0.456001 0.750000 0.471028
O3_2 O 0.0225(4) 0.750000 0.3922(8)
H3_2 H 0.034862 0.750000 0.455681
O4_2 O 0.4308(4) 0.750000 0.1688(8)
H4_2 H 0.399805 0.750000 0.128869
O5_2 O 0.4508(3) 0.8120(4) 0.2863(7)
H5_2 H 0.429105 0.840473 0.298642
O6_2 O 0.0405(3) 0.6877(3) 0.2684(6)
H6_2 H 0.062359 0.659288 0.279809
O7_2 O 0.1498(3) 0.6988(5) 0.2248(8)
O8_2 O 0.1068(4) 0.6592(5) 0.1120(8)
O9_2 O 0.3413(4) 0.6985(5) 0.2360(9)
O10_2 O 0.3873(4) 0.6569(5) 0.1340(8)
C1_2 C 0.1487(5) 0.6723(7) 0.1539(13)
C2_2 C 0.2954(6) 0.6542(7) 0.1229(12)
C3_2 C 0.2477(5) 0.6693(7) 0.1592(12)
H7_2 H 0.247071 0.688548 0.211258
C4_2 C 0.2001(5) 0.6305(6) 0.0323(10)
H8_2 H 0.168902 0.623032 0.002098
C5_2 C 0.2006(5) 0.6556(6) 0.1176(12)
C7_2 C 0.2956(6) 0.6308(6) 0.0402(10)
H9_2 H 0.327907 0.623944 0.013455
O16_2 O 0.3662(7) 0.6969(6) 0.4267(14)
C8_2 C 0.3443(7) 0.6709(8) 0.1657(14)
O18_2 O 0.4463(7) 0.6502(7) 0.4682(13)
C17_2 C 0.3964(8) 0.6593(8) 0.446(2)
C32_2 C 0.3648(10) 0.6182(9) 0.428(2)
O21_2 O 0.4508(3) 0.6880(4) 0.2863(7)
H22_2 H 0.429105 0.659527 0.298642
O22_2 O 0.0405(3) 0.8123(3) 0.2684(6)
H23_2 H 0.062359 0.840712 0.279809
O23_2 O 0.1498(3) 0.8012(5) 0.2248(8)
O24_2 O 0.1068(4) 0.8408(5) 0.1120(8)
O25_2 O 0.3413(4) 0.8015(5) 0.2360(9)
O26_2 O 0.3873(4) 0.8431(5) 0.1340(8)
C34_2 C 0.1487(5) 0.8277(7) 0.1539(13)
C35_2 C 0.2954(6) 0.8458(7) 0.1229(12)
C36_2 C 0.2477(5) 0.8307(7) 0.1592(12)
H24_2 H 0.247071 0.811452 0.211258
C37_2 C 0.2001(5) 0.8695(6) 0.0323(10)
H25_2 H 0.168902 0.876968 0.002098
C38_2 C 0.2006(5) 0.8444(6) 0.1176(12)
C40_2 C 0.2956(6) 0.8692(6) 0.0402(10)
H26_2 H 0.327907 0.876056 0.013455
O31_2 O 0.3662(7) 0.8031(6) 0.4267(14)
C41_2 C 0.3443(7) 0.8291(8) 0.1657(14)
O32_2 O 0.4463(7) 0.8498(7) 0.4682(13)
C50_2 C 0.3964(8) 0.8407(8) 0.446(2)
C63_2 C 0.3648(10) 0.8818(9) 0.428(2)
Y9_2 Y 0.51981(5) 0.81965(6) 0.38753(10)
Y10_2 Y 0.51981(5) 0.68035(6) 0.38753(10)
Y14_2 Y 0.47460(5) 0.82089(7) 0.12896(11)
Y15_2 Y 0.47460(5) 0.67911(7) 0.12896(11)
O41_2 O 0.1200(5) 0.6982(6) 0.4089(9)
O42_2 O 0.1200(5) 0.8018(6) 0.4089(9)
O43_2 O 0.0456(5) 0.6529(6) 0.4562(8)
O44_2 O 0.0456(5) 0.8471(6) 0.4562(8)
H38_2 H 0.352949 0.61825 0.35644
H39_2 H 0.387303 0.585718 0.442503
H40_2 H 0.329918 0.619118 0.471255
H44_2 H 0.329918 0.880882 0.471255
H45_2 H 0.387303 0.914282 0.442503
H46_2 H 0.352949 0.88175 0.35644
O11_2 O 0.0448(6) 0.7108(7) 0.9696(9)
C6_2 C 0.2517(6) 0.6172(8) 0.9957(11)
C9_2 C 0.0964(8) 0.6669(10) 0.4531(14)
C10_2 C 0.4804(9) 0.4154(11) 0.7437(19)
C11_2 C 0.2266(5) 0.5846(6) 0.7450(8)
C12_2 C 0.2662(6) 0.5511(6) 0.7293(8)
H10_2 H 0.269597 0.536965 0.671917
C13_2 C 0.3007(5) 0.5387(6) 0.7992(9)
C14_2 C 0.2956(5) 0.5598(6) 0.8849(8)
H11_2 H 0.318662 0.551534 0.931663
C15_2 C 0.2560(6) 0.5934(6) 0.9006(7)
C16_2 C 0.2215(5) 0.6058(6) 0.8307(9)
H12_2 H 0.195040 0.628226 0.841264
C18_2 C 0.1388(5) 0.6074(8) 0.6834(9)
H13_2 H 0.123961 0.597040 0.738083
C19_2 C 0.1068(4) 0.6254(8) 0.6142(10)
H14_2 H 0.070573 0.627084 0.622712
C20_2 C 0.1290(5) 0.6409(8) 0.5325(9)
C21_2 C 0.1832(5) 0.6383(8) 0.5198(8)
H15_2 H 0.197992 0.648670 0.465116
C22_2 C 0.2151(3) 0.6203(8) 0.5889(10)
H16_2 H 0.251380 0.618627 0.580486
C23_2 C 0.1930(5) 0.6049(8) 0.6707(9)
C24_2 C 0.3664(6) 0.4776(6) 0.8581(9)
H17_2 H 0.353150 0.482112 0.916822
C25_2 C 0.3422(5) 0.4998(6) 0.7840(11)
C26_2 C 0.3620(6) 0.4930(6) 0.6963(9)
H18_2 H 0.345826 0.507898 0.646756
C27_2 C 0.4059(6) 0.4640(6) 0.6827(9)
H19_2 H 0.419064 0.459448 0.624072
C28_2 C 0.4300(5) 0.4418(6) 0.7569(11)
C29_2 C 0.4102(6) 0.4485(6) 0.8446(10)
H20_2 H 0.426389 0.433661 0.894137
C30_2 C 0.0599(15) 0.750000 0.9334(18)
C31_2 C 0.0801(12) 0.750000 0.8433(17)
O19_2 O 0.0448(6) 0.7892(7) 0.9696(9)
C39_2 C 0.2517(6) 0.8828(8) 0.9957(11)
C42_2 C 0.0964(8) 0.8331(10) 0.4531(14)
C44_2 C 0.2266(5) 0.9154(6) 0.7450(8)
C45_2 C 0.2662(6) 0.9489(6) 0.7293(8)
H27_2 H 0.269597 0.963035 0.671917
C46_2 C 0.3007(5) 0.9613(6) 0.7992(9)
C47_2 C 0.2956(5) 0.9402(6) 0.8849(8)
H28_2 H 0.318662 0.948466 0.931663
C48_2 C 0.2560(6) 0.9066(6) 0.9006(7)
C49_2 C 0.2215(5) 0.8942(6) 0.8307(9)
H29_2 H 0.195040 0.871774 0.841264
C51_2 C 0.1388(5) 0.8926(8) 0.6834(9)
H30_2 H 0.123961 0.902960 0.738083
C52_2 C 0.1068(4) 0.8746(8) 0.6142(10)
H31_2 H 0.070573 0.872916 0.622712
C53_2 C 0.1290(5) 0.8591(8) 0.5325(9)
C54_2 C 0.1832(5) 0.8617(8) 0.5198(8)
H32_2 H 0.197992 0.851330 0.465116
C55_2 C 0.2151(3) 0.8797(8) 0.5889(10)
H33_2 H 0.251380 0.881373 0.580486
C56_2 C 0.1930(5) 0.8951(8) 0.6707(9)
H35_2 H 0.345826 0.992102 0.646756
H41_2 H 0.0502088 0.736533 0.796449
H42_2 H 0.0909387 0.786542 0.823994
H43_2 H 0.114709 0.726925 0.84007
O17_2 O 0.9451(4) 0.7026(5) 0.5083(7)
C33_2 C 0.9317(8) 0.750000 0.5290(17)
H21_2 H 0.904313 0.750001 0.571203
O20_2 O 0.9451(4) 0.7974(5) 0.5083(7)
O33_2 O 0.9688(4) 0.750000 0.0922(8)
O34_2 O 0.9308(4) 0.750000 0.3312(8)
O35_2 O 0.9508(3) 0.6880(4) 0.2137(7)
O36_2 O 0.9508(3) 0.8120(4) 0.2137(7)
O37_2 O 0.8873(4) 0.8431(5) 0.3660(8)
O38_2 O 0.8873(4) 0.6569(5) 0.3660(8)
O47_2 O 0.9463(7) 0.8498(7) 0.0318(13)
O48_2 O 0.9463(7) 0.6502(7) 0.0318(13)
O15_2 O 0.0090(6) 0.1004(7) 0.6904(12)
O30_2 O 0.0090(6) 0.3996(7) 0.6904(12)
O12_2 O 0.9886(6) 0.1016(7) 0.8357(12)
C10_3 C 0.9804(9) 0.0846(11) 0.7563(19)
C24_3 C 0.8664(6) 0.0224(6) 0.6419(9)
H17_3 H 0.853150 0.017888 0.583178
C25_3 C 0.8422(5) 0.0002(6) 0.7160(11)
C26_3 C 0.8620(6) 0.0070(6) 0.8037(9)
C27_3 C 0.9059(6) 0.0360(6) 0.8173(9)
H19_3 H 0.919064 0.040552 0.875928
C28_3 C 0.9300(5) 0.0582(6) 0.7431(11)
C29_3 C 0.9102(6) 0.0515(6) 0.6554(10)
H20_3 H 0.926389 0.066339 0.605863
O13 O 0.6200(5) 0.8018(6) 0.0911(9)
O14 O 0.5456(5) 0.8471(6) 0.0438(8)
C9_3 C 0.5964(8) 0.8331(10) 0.0469(14)
H15_3 H 0.697992 0.851330 0.034884
O28 O 0.6200(5) 0.6982(6) 0.0911(9)
O29 O 0.5456(5) 0.6529(6) 0.0438(8)
C42_3 C 0.5964(8) 0.6669(10) 0.0469(14)
H32_3 H 0.697992 0.648670 0.034884
Y7 Y 0.59668(6) 0.750000 0.20003(13)
Y1_3 Y 0.89575(6) 0.750000 0.18771(13)
O1_3 O 0.5614(4) 0.750000 0.3482(8)
H1_3 H 0.592744 0.750000 0.387261
H2_3 H 0.956001 0.750000 0.028972
O3_3 O 0.5225(4) 0.750000 0.1078(8)
H3_3 H 0.534862 0.750000 0.044319
H4_3 H 0.899805 0.750000 0.371131
H5_3 H 0.929105 0.659527 0.201358
O6_3 O 0.5405(3) 0.8123(3) 0.2316(6)
H6_3 H 0.562359 0.840712 0.220191
O7_3 O 0.6498(3) 0.8012(5) 0.2752(8)
O8_3 O 0.6068(4) 0.8408(5) 0.3880(8)
O9_3 O 0.8413(4) 0.8015(5) 0.2640(9)
O11_3 O 0.5448(6) 0.7892(7) 0.5304(9)
C1_3 C 0.6487(5) 0.8277(7) 0.3461(13)
C2_3 C 0.7954(6) 0.8458(7) 0.3771(12)
C3_3 C 0.7477(5) 0.8307(7) 0.3408(12)
H7_3 H 0.747071 0.811452 0.288742
C4_3 C 0.7001(5) 0.8695(6) 0.4677(10)
H8_3 H 0.668902 0.876968 0.497902
C5_3 C 0.7006(5) 0.8444(6) 0.3824(12)
C6_3 C 0.7517(6) 0.8828(8) 0.5043(11)
C7_3 C 0.7956(6) 0.8692(6) 0.4598(10)
H9_3 H 0.827907 0.876056 0.486545
O16_3 O 0.8662(7) 0.8031(6) 0.0733(14)
C8_3 C 0.8443(7) 0.8291(8) 0.3343(14)
C11_3 C 0.7266(5) 0.9154(6) 0.7550(8)
C12_3 C 0.7662(6) 0.9489(6) 0.7707(8)
H10_3 H 0.769597 0.963035 0.828083
C13_3 C 0.8007(5) 0.9613(6) 0.7008(9)
C14_3 C 0.7956(5) 0.9402(6) 0.6151(8)
H11_3 H 0.818662 0.948466 0.568337
C15_3 C 0.7560(6) 0.9066(6) 0.5994(7)
C16_3 C 0.7215(5) 0.8942(6) 0.6693(9)
H12_3 H 0.695040 0.871774 0.658736
C17_3 C 0.8964(8) 0.8407(8) 0.054(2)
C18_3 C 0.6388(5) 0.8926(8) 0.8166(9)
H13_3 H 0.623961 0.902960 0.761917
C19_3 C 0.6068(4) 0.8746(8) 0.8858(10)
H14_3 H 0.570573 0.872916 0.877288
C20_3 C 0.6290(5) 0.8591(8) 0.9675(9)
C21_3 C 0.6832(5) 0.8617(8) 0.9802(8)
C22_3 C 0.7151(3) 0.8797(8) 0.9111(10)
H16_3 H 0.751380 0.881373 0.919514
C23_3 C 0.6930(5) 0.8951(8) 0.8293(9)
H18_3 H 0.845826 0.992102 0.853244
C30_3 C 0.5599(15) 0.750000 0.5666(18)
C31_3 C 0.5801(12) 0.750000 0.6567(17)
C32_3 C 0.8648(10) 0.8818(9) 0.072(2)
O19_3 O 0.5448(6) 0.7108(7) 0.5304(9)
H22_3 H 0.929105 0.840473 0.201358
O22_3 O 0.5405(3) 0.6877(3) 0.2316(6)
H23_3 H 0.562359 0.659288 0.220191
O23_3 O 0.6498(3) 0.6988(5) 0.2752(8)
O24_3 O 0.6068(4) 0.6592(5) 0.3880(8)
O25_3 O 0.8413(4) 0.6985(5) 0.2640(9)
O27_2 O 0.9886(6) 0.3984(7) 0.8357(12)
C34_3 C 0.6487(5) 0.6723(7) 0.3461(13)
C35_3 C 0.7954(6) 0.6542(7) 0.3771(12)
C36_3 C 0.7477(5) 0.6693(7) 0.3408(12)
H24_3 H 0.747071 0.688548 0.288742
C37_3 C 0.7001(5) 0.6305(6) 0.4677(10)
H25_3 H 0.668902 0.623032 0.497902
C38_3 C 0.7006(5) 0.6556(6) 0.3824(12)
C39_3 C 0.7517(6) 0.6172(8) 0.5043(11)
C40_3 C 0.7956(6) 0.6308(6) 0.4598(10)
H26_3 H 0.827907 0.623944 0.486545
O31_3 O 0.8662(7) 0.6969(6) 0.0733(14)
C41_3 C 0.8443(7) 0.6709(8) 0.3343(14)
C43_3 C 0.9804(9) 0.4154(11) 0.7563(19)
C44_3 C 0.7266(5) 0.5846(6) 0.7550(8)
C45_3 C 0.7662(6) 0.5511(6) 0.7707(8)
H27_3 H 0.769597 0.536965 0.828083
C46_3 C 0.8007(5) 0.5387(6) 0.7008(9)
C47_3 C 0.7956(5) 0.5598(6) 0.6151(8)
H28_3 H 0.818662 0.551534 0.568337
C48_3 C 0.7560(6) 0.5934(6) 0.5994(7)
C49_3 C 0.7215(5) 0.6058(6) 0.6693(9)
H29_3 H 0.695040 0.628226 0.658736
C50_3 C 0.8964(8) 0.6593(8) 0.054(2)
C51_3 C 0.6388(5) 0.6074(8) 0.8166(9)
H30_3 H 0.623961 0.597040 0.761917
C52_3 C 0.6068(4) 0.6254(8) 0.8858(10)
H31_3 H 0.570573 0.627084 0.877288
C53_3 C 0.6290(5) 0.6409(8) 0.9675(9)
C54_3 C 0.6832(5) 0.6383(8) 0.9802(8)
C55_3 C 0.7151(3) 0.6203(8) 0.9111(10)
H33_3 H 0.751380 0.618627 0.919514
C56_3 C 0.6930(5) 0.6049(8) 0.8293(9)
C57_3 C 0.8664(6) 0.4776(6) 0.6419(9)
H34_3 H 0.853150 0.482112 0.583178
C58_3 C 0.8422(5) 0.4998(6) 0.7160(11)
C59_3 C 0.8620(6) 0.4930(6) 0.8037(9)
H35_3 H 0.845826 0.507898 0.853244
C60_3 C 0.9059(6) 0.4640(6) 0.8173(9)
H36_3 H 0.919064 0.459448 0.875928
C61_3 C 0.9300(5) 0.4418(6) 0.7431(11)
C62_3 C 0.9102(6) 0.4485(6) 0.6554(10)
H37_3 H 0.926389 0.433661 0.605863
C63_3 C 0.8648(10) 0.6182(9) 0.072(2)
O39_2 O 0.5114(6) 0.8984(7) 0.3357(12)
O40_2 O 0.5114(6) 0.6016(7) 0.3357(12)
O45_2 O 0.4910(6) 0.8996(7) 0.1904(12)
O46_2 O 0.4910(6) 0.6004(7) 0.1904(12)
H38_3 H 0.852949 0.88175 0.14356
H39_3 H 0.887303 0.914282 0.0574969
H40_3 H 0.829918 0.880882 0.0287448
H41_3 H 0.550209 0.763467 0.703551
H42_3 H 0.590939 0.713458 0.676006
H43_3 H 0.614709 0.773075 0.65993
H44_3 H 0.829918 0.619118 0.0287448
H45_3 H 0.887303 0.585718 0.0574969
H46_3 H 0.852949 0.61825 0.14356
O17_3 O 0.0549(4) 0.2026(5) 0.4917(7)
C33_3 C 0.0683(8) 0.250000 0.4710(17)
H21_3 H 0.095687 0.250001 0.428797
O20_3 O 0.0549(4) 0.2974(5) 0.4917(7)
O11_4 O 0.9552(6) 0.2108(7) 0.0304(9)
O13_2 O 0.8800(5) 0.1982(6) 0.5911(9)
O14_2 O 0.9544(5) 0.1529(6) 0.5438(8)
C6_4 C 0.7483(6) 0.1172(8) 0.0043(11)
C9_4 C 0.9036(8) 0.1669(10) 0.5469(14)
C11_4 C 0.7734(5) 0.0846(6) 0.2550(8)
C12_4 C 0.7338(6) 0.0511(6) 0.2707(8)
H10_4 H 0.730403 0.036965 0.328083
C13_4 C 0.6993(5) 0.0387(6) 0.2008(9)
C14_4 C 0.7044(5) 0.0598(6) 0.1151(8)
H11_4 H 0.681338 0.051534 0.068337
C15_4 C 0.7440(6) 0.0934(6) 0.0994(7)
C16_4 C 0.7785(5) 0.1058(6) 0.1693(9)
H12_4 H 0.804960 0.128226 0.158736
C18_4 C 0.8612(5) 0.1074(8) 0.3166(9)
H13_4 H 0.876039 0.097040 0.261917
C19_4 C 0.8932(4) 0.1254(8) 0.3858(10)
H14_4 H 0.929427 0.127084 0.377288
C20_4 C 0.8710(5) 0.1409(8) 0.4675(9)
C21_4 C 0.8168(5) 0.1383(8) 0.4802(8)
H15_4 H 0.802008 0.148670 0.534884
C22_4 C 0.7849(3) 0.1203(8) 0.4111(10)
H16_4 H 0.748620 0.118627 0.419514
C23_4 C 0.8070(5) 0.1049(8) 0.3293(9)
H18_4 H 0.654174 0.007898 0.353244
C30_4 C 0.9401(15) 0.250000 0.0666(18)
C31_4 C 0.9199(12) 0.250000 0.1567(17)
O19_4 O 0.9552(6) 0.2892(7) 0.0304(9)
O28_2 O 0.8800(5) 0.3018(6) 0.5911(9)
O29_2 O 0.9544(5) 0.3471(6) 0.5438(8)
C39_4 C 0.7483(6) 0.3828(8) 0.0043(11)
C42_4 C 0.9036(8) 0.3331(10) 0.5469(14)
C43_4 C 0.5196(9) 0.5846(11) 0.2563(19)
C44_4 C 0.7734(5) 0.4154(6) 0.2550(8)
C45_4 C 0.7338(6) 0.4489(6) 0.2707(8)
H27_4 H 0.730403 0.463035 0.328083
C46_4 C 0.6993(5) 0.4613(6) 0.2008(9)
C47_4 C 0.7044(5) 0.4402(6) 0.1151(8)
H28_4 H 0.681338 0.448466 0.068337
C48_4 C 0.7440(6) 0.4066(6) 0.0994(7)
C49_4 C 0.7785(5) 0.3942(6) 0.1693(9)
H29_4 H 0.804960 0.371774 0.158736
C51_4 C 0.8612(5) 0.3926(8) 0.3166(9)
H30_4 H 0.876039 0.402960 0.261917
C52_4 C 0.8932(4) 0.3746(8) 0.3858(10)
H31_4 H 0.929427 0.372916 0.377288
C53_4 C 0.8710(5) 0.3591(8) 0.4675(9)
C54_4 C 0.8168(5) 0.3617(8) 0.4802(8)
H32_4 H 0.802008 0.351330 0.534884
C55_4 C 0.7849(3) 0.3797(8) 0.4111(10)
H33_4 H 0.748620 0.381373 0.419514
C56_4 C 0.8070(5) 0.3951(8) 0.3293(9)
C57_4 C 0.6336(6) 0.5224(6) 0.1419(9)
H34_4 H 0.646850 0.517888 0.083178
C58_4 C 0.6578(5) 0.5002(6) 0.2160(11)
C59_4 C 0.6380(6) 0.5070(6) 0.3037(9)
H35_4 H 0.654174 0.492102 0.353244
C60_4 C 0.5941(6) 0.5360(6) 0.3173(9)
H36_4 H 0.580936 0.540552 0.375928
C61_4 C 0.5700(5) 0.5582(6) 0.2431(11)
C62_4 C 0.5898(6) 0.5515(6) 0.1554(10)
H37_4 H 0.573611 0.566339 0.105863
Y7_2 Y 0.90332(6) 0.250000 0.70003(13)
H41_4 H 0.949791 0.236533 0.203551
H42_4 H 0.909061 0.286542 0.176006
H43_4 H 0.885291 0.226925 0.15993
Y1_4 Y 0.60425(6) 0.250000 0.68771(13)
O1_4 O 0.9386(4) 0.250000 0.8482(8)
H1_4 H 0.907256 0.250000 0.887261
H2_4 H 0.543999 0.250000 0.528972
O3_4 O 0.9775(4) 0.250000 0.6078(8)
H3_4 H 0.965138 0.250000 0.544319
H4_4 H 0.600195 0.250000 0.871131
H5_4 H 0.570895 0.340473 0.701358
O6_4 O 0.9595(3) 0.1877(3) 0.7316(6)
H6_4 H 0.937641 0.159288 0.720191
O7_4 O 0.8502(3) 0.1988(5) 0.7752(8)
O8_4 O 0.8932(4) 0.1592(5) 0.8880(8)
O9_4 O 0.6587(4) 0.1985(5) 0.7640(9)
C1_4 C 0.8513(5) 0.1723(7) 0.8461(13)
C2_4 C 0.7046(6) 0.1542(7) 0.8771(12)
C3_4 C 0.7523(5) 0.1693(7) 0.8408(12)
H7_4 H 0.752929 0.188548 0.788742
C4_4 C 0.7999(5) 0.1305(6) 0.9677(10)
H8_4 H 0.831098 0.123032 0.997902
C5_4 C 0.7994(5) 0.1556(6) 0.8824(12)
C7_4 C 0.7044(6) 0.1308(6) 0.9598(10)
H9_4 H 0.672093 0.123944 0.986545
O16_4 O 0.6338(7) 0.1969(6) 0.5733(14)
C8_4 C 0.6557(7) 0.1709(8) 0.8343(14)
C17_4 C 0.6036(8) 0.1593(8) 0.554(2)
C32_4 C 0.6352(10) 0.1182(9) 0.572(2)
H22_4 H 0.570895 0.159527 0.701358
O22_4 O 0.9595(3) 0.3123(3) 0.7316(6)
H23_4 H 0.937641 0.340712 0.720191
O23_4 O 0.8502(3) 0.3012(5) 0.7752(8)
O24_4 O 0.8932(4) 0.3408(5) 0.8880(8)
O25_4 O 0.6587(4) 0.3015(5) 0.7640(9)
C34_4 C 0.8513(5) 0.3277(7) 0.8461(13)
C35_4 C 0.7046(6) 0.3458(7) 0.8771(12)
C36_4 C 0.7523(5) 0.3307(7) 0.8408(12)
H24_4 H 0.752929 0.311452 0.788742
C37_4 C 0.7999(5) 0.3695(6) 0.9677(10)
H25_4 H 0.831098 0.376968 0.997902
C38_4 C 0.7994(5) 0.3444(6) 0.8824(12)
C40_4 C 0.7044(6) 0.3692(6) 0.9598(10)
H26_4 H 0.672093 0.376056 0.986545
O31_4 O 0.6338(7) 0.3031(6) 0.5733(14)
C41_4 C 0.6557(7) 0.3291(8) 0.8343(14)
C50_4 C 0.6036(8) 0.3407(8) 0.554(2)
C63_4 C 0.6352(10) 0.3818(9) 0.572(2)
H38_4 H 0.647051 0.11825 0.64356
H39_4 H 0.612697 0.0857177 0.557497
H40_4 H 0.670082 0.119118 0.528745
H44_4 H 0.670082 0.380882 0.528745
H45_4 H 0.612697 0.414282 0.557497
H46_4 H 0.647051 0.38175 0.64356
C10_4 C 0.5196(9) 0.9154(11) 0.2563(19)
C24_4 C 0.6336(6) 0.9776(6) 0.1419(9)
H17_4 H 0.646850 0.982112 0.083178
C25_4 C 0.6578(5) 0.9998(6) 0.2160(11)
C26_4 C 0.6380(6) 0.9930(6) 0.3037(9)
C27_4 C 0.5941(6) 0.9640(6) 0.3173(9)
H19_4 H 0.580936 0.959448 0.375928
C28_4 C 0.5700(5) 0.9418(6) 0.2431(11)
C29_4 C 0.5898(6) 0.9485(6) 0.1554(10)
H20_4 H 0.573611 0.933661 0.105863
H41_5 H 0.550209 0.736533 0.703551
H42_5 H 0.590939 0.786542 0.676006
H43_5 H 0.614709 0.726925 0.65993
H41_6 H 0.949791 0.263467 0.203551
H42_6 H 0.909061 0.213458 0.176006
H43_6 H 0.885291 0.273075 0.15993
H41_7 H 0.449791 0.236533 0.296449
H42_7 H 0.409061 0.286542 0.323994
H43_7 H 0.385291 0.226925 0.34007
H41_8 H 0.0502088 0.763467 0.796449
H42_8 H 0.0909387 0.713458 0.823994
H43_8 H 0.114709 0.773075 0.84007
O17_4 O 0.4451(4) 0.7974(5) 0.9917(7)
C33_4 C 0.4317(8) 0.750000 0.9710(17)
H21_4 H 0.404313 0.749999 0.928797
O20_4 O 0.4451(4) 0.7026(5) 0.9917(7)
loop_
_geom_bond_atom_site_label_1
_geom_bond_atom_site_label_2
_geom_bond_site_symmetry_1
_geom_bond_site_symmetry_2
C33 O17 1_555 1_555
H21 C33 1_555 1_555
O20 C33 1_555 1_555
Y1 O2 1_555 1_555
Y2 O1 1_555 1_555
Y3 O1 1_555 1_555
Y4 O3 1_555 1_555
O1 H1 1_555 1_555
O2 H2 1_555 1_555
O3 Y2 1_555 1_555
H3 O3 1_555 1_555
O4 Y1 1_555 1_555
H4 O4 1_555 1_555
O5 Y1 1_555 1_555
H5 O5 1_555 1_555
O6 Y2 1_555 1_555
H6 O6 1_555 1_555
O7 Y2 1_555 1_555
O8 Y3 1_555 1_555
O9 Y1 1_555 1_555
O10 C8 1_555 1_555
O11 Y3 1_555 1_555
O12 C10 1_555 1_555
C1 O7 1_555 1_555
C2 C3 1_555 1_555
C3 H7 1_555 1_555
C4 H8 1_555 1_555
C5 C1 1_555 1_555
C6 C4 1_555 1_555
C7 C2 1_555 1_555
H9 C7 1_555 1_555
O16 Y1 1_555 1_555
C8 O9 1_555 1_555
O18 C17 1_555 1_555
C10 C28 1_555 1_555
C11 C12 1_555 1_555
C12 H10 1_555 1_555
C13 C12 1_555 1_555
C14 C13 1_555 1_555
H11 C14 1_555 1_555
C15 C6 1_555 1_555
C16 C11 1_555 1_555
H12 C16 1_555 1_555
C17 O16 1_555 1_555
C18 H13 1_555 1_555
C19 C18 1_555 1_555
H14 C19 1_555 1_555
C20 C19 1_555 1_555
C21 C20 1_555 1_555
C22 C21 1_555 1_555
H16 C22 1_555 1_555
C23 C11 1_555 1_555
C24 H17 1_555 1_555
C25 C13 1_555 1_555
C26 C25 1_555 1_555
H18 C26 1_555 1_555
C27 C26 1_555 1_555
H19 C27 1_555 1_555
C28 C27 1_555 1_555
C29 C24 1_555 1_555
H20 C29 1_555 1_555
C30 O11 1_555 1_555
C31 C30 1_555 1_555
C32 C17 1_555 1_555
O19 C30 1_555 1_555
Y5 O1 1_555 1_555
Y6 O3 1_555 1_555
O21 Y1 1_555 1_555
H22 O21 1_555 1_555
O22 Y2 1_555 1_555
H23 O22 1_555 1_555
O23 Y2 1_555 1_555
O24 Y5 1_555 1_555
O25 Y1 1_555 1_555
O26 C41 1_555 1_555
C34 O23 1_555 1_555
C35 C36 1_555 1_555
C36 H24 1_555 1_555
C37 H25 1_555 1_555
C38 C34 1_555 1_555
C39 C37 1_555 1_555
C40 C35 1_555 1_555
H26 C40 1_555 1_555
O31 Y1 1_555 1_555
C41 O25 1_555 1_555
O32 C50 1_555 1_555
C44 C45 1_555 1_555
C45 H27 1_555 1_555
C46 C45 1_555 1_555
C47 C46 1_555 1_555
H28 C47 1_555 1_555
C48 C39 1_555 1_555
C49 C44 1_555 1_555
H29 C49 1_555 1_555
C50 O31 1_555 1_555
C51 H30 1_555 1_555
C52 C51 1_555 1_555
H31 C52 1_555 1_555
C53 C52 1_555 1_555
C54 C53 1_555 1_555
C55 C54 1_555 1_555
H33 C55 1_555 1_555
C56 C44 1_555 1_555
C63 C50 1_555 1_555
Y8 O12 1_555 1_555
Y14 O4 1_555 1_555
Y15 O4 1_555 1_555
O33 Y3 1_555 1_555
O34 Y4 1_555 1_555
O35 Y3 1_555 1_555
O36 Y5 1_555 1_555
O37 Y6 1_555 1_555
O38 Y4 1_555 1_555
O39 Y3 1_555 1_555
O40 Y5 1_555 1_555
O41 Y2 1_555 1_555
O42 Y2 1_555 1_555
O43 Y4 1_555 1_555
O44 Y6 1_555 1_555
O45 Y4 1_555 1_555
O46 Y6 1_555 1_555
O47 Y5 1_555 1_555
O48 Y3 1_555 1_555
Y3 O6 1_555 1_555
Y4 O6 1_555 1_555
Y4 O35 1_555 1_555
O5 Y14 1_555 1_555
O8 C1 1_555 1_555
O10 Y15 1_555 1_555
C2 C8 1_555 1_555
C3 C5 1_555 1_555
C4 C5 1_555 1_555
C6 C7 1_555 1_555
C14 C15 1_555 1_555
C15 C16 1_555 1_555
C18 C23 1_555 1_555
C22 C23 1_555 1_555
C24 C25 1_555 1_555
C28 C29 1_555 1_555
O19 Y5 1_555 1_555
Y5 O22 1_555 1_555
Y5 O33 1_555 1_555
Y6 O22 1_555 1_555
Y6 O34 1_555 1_555
Y6 O36 1_555 1_555
O21 Y15 1_555 1_555
O24 C34 1_555 1_555
O26 Y14 1_555 1_555
C35 C41 1_555 1_555
C36 C38 1_555 1_555
C37 C38 1_555 1_555
C39 C40 1_555 1_555
C47 C48 1_555 1_555
C48 C49 1_555 1_555
C51 C56 1_555 1_555
C55 C56 1_555 1_555
C32 H38 1_555 1_555
C32 H39 1_555 1_555
C32 H40 1_555 1_555
C31 H41 1_555 1_555
C31 H42 1_555 1_555
C31 H43 1_555 1_555
C63 H44 1_555 1_555
C63 H45 1_555 1_555
C63 H46 1_555 1_555
O41 C9 1_555 1_555
O43 C9 1_555 1_555
O42 C42 1_555 1_555
O44 C42 1_555 1_555
O27 C43 1_555 1_555
C43 C61 1_555 1_555
C57 H34 1_555 1_555
C59 C58 1_555 1_555
C60 C59 1_555 1_555
H36 C60 1_555 1_555
C61 C60 1_555 1_555
C62 C57 1_555 1_555
H37 C62 1_555 1_555
Y11 O27 1_555 1_555
C57 C58 1_555 1_555
C61 C62 1_555 1_555
Y13 O15 1_555 1_555
Y17 O30 1_555 1_555
O40 C43_2 1_555 1_555
O46 C43_2 1_555 1_555
C43_2 C61_2 1_555 1_555
C57_2 H34_2 1_555 1_555
C59_2 C58_2 1_555 1_555
C60_2 C59_2 1_555 1_555
H36_2 C60_2 1_555 1_555
C61_2 C60_2 1_555 1_555
C62_2 C57_2 1_555 1_555
H37_2 C62_2 1_555 1_555
C57_2 C58_2 1_555 1_555
C61_2 C62_2 1_555 1_555
Y1_2 O2_2 1_555 1_555
Y2_2 O1_2 1_555 1_555
Y8 O1_2 1_555 1_555
O1_2 H1_2 1_555 1_555
O2_2 H2_2 1_555 1_555
O3_2 Y2_2 1_555 1_555
H3_2 O3_2 1_555 1_555
O4_2 Y1_2 1_555 1_555
H4_2 O4_2 1_555 1_555
O5_2 Y1_2 1_555 1_555
H5_2 O5_2 1_555 1_555
O6_2 Y2_2 1_555 1_555
H6_2 O6_2 1_555 1_555
O7_2 Y2_2 1_555 1_555
O8_2 Y8 1_555 1_555
O9_2 Y1_2 1_555 1_555
O10_2 C8_2 1_555 1_555
C1_2 O7_2 1_555 1_555
C2_2 C3_2 1_555 1_555
C3_2 H7_2 1_555 1_555
C4_2 H8_2 1_555 1_555
C5_2 C1_2 1_555 1_555
C7_2 C2_2 1_555 1_555
H9_2 C7_2 1_555 1_555
O16_2 Y1_2 1_555 1_555
C8_2 O9_2 1_555 1_555
O18_2 C17_2 1_555 1_555
C17_2 O16_2 1_555 1_555
C32_2 C17_2 1_555 1_555
Y11 O1_2 1_555 1_555
O21_2 Y1_2 1_555 1_555
H22_2 O21_2 1_555 1_555
O22_2 Y2_2 1_555 1_555
H23_2 O22_2 1_555 1_555
O23_2 Y2_2 1_555 1_555
O24_2 Y11 1_555 1_555
O25_2 Y1_2 1_555 1_555
O26_2 C41_2 1_555 1_555
C34_2 O23_2 1_555 1_555
C35_2 C36_2 1_555 1_555
C36_2 H24_2 1_555 1_555
C37_2 H25_2 1_555 1_555
C38_2 C34_2 1_555 1_555
C40_2 C35_2 1_555 1_555
H26_2 C40_2 1_555 1_555
O31_2 Y1_2 1_555 1_555
C41_2 O25_2 1_555 1_555
O32_2 C50_2 1_555 1_555
C50_2 O31_2 1_555 1_555
C63_2 C50_2 1_555 1_555
Y9_2 O2_2 1_555 1_555
Y10_2 O2_2 1_555 1_555
Y14_2 O4_2 1_555 1_555
Y15_2 O4_2 1_555 1_555
O41_2 Y2_2 1_555 1_555
O42_2 Y2_2 1_555 1_555
Y8 O6_2 1_555 1_555
O5_2 Y9_2 1_555 1_555
O5_2 Y14_2 1_555 1_555
O8_2 C1_2 1_555 1_555
O10_2 Y15_2 1_555 1_555
C2_2 C8_2 1_555 1_555
C3_2 C5_2 1_555 1_555
C4_2 C5_2 1_555 1_555
O18_2 Y10_2 1_555 1_555
Y11 O22_2 1_555 1_555
O21_2 Y10_2 1_555 1_555
O21_2 Y15_2 1_555 1_555
O24_2 C34_2 1_555 1_555
O26_2 Y14_2 1_555 1_555
C35_2 C41_2 1_555 1_555
C36_2 C38_2 1_555 1_555
C37_2 C38_2 1_555 1_555
O32_2 Y9_2 1_555 1_555
C32_2 H38_2 1_555 1_555
C32_2 H39_2 1_555 1_555
C32_2 H40_2 1_555 1_555
C63_2 H44_2 1_555 1_555
C63_2 H45_2 1_555 1_555
C63_2 H46_2 1_555 1_555
O39 C10_2 1_555 1_555
O41_2 C9_2 1_555 1_555
O43_2 C9_2 1_555 1_555
O45 C10_2 1_555 1_555
C9_2 C20_2 1_555 1_555
C10_2 C28_2 1_555 1_555
C11_2 C12_2 1_555 1_555
C12_2 H10_2 1_555 1_555
C13_2 C12_2 1_555 1_555
C14_2 C13_2 1_555 1_555
H11_2 C14_2 1_555 1_555
C15_2 C6_2 1_555 1_555
C16_2 C11_2 1_555 1_555
H12_2 C16_2 1_555 1_555
C18_2 H13_2 1_555 1_555
C19_2 C18_2 1_555 1_555
H14_2 C19_2 1_555 1_555
C20_2 C19_2 1_555 1_555
C21_2 C20_2 1_555 1_555
H15_2 C21_2 1_555 1_555
C22_2 C21_2 1_555 1_555
H16_2 C22_2 1_555 1_555
C23_2 C11_2 1_555 1_555
C24_2 H17_2 1_555 1_555
C25_2 C13_2 1_555 1_555
C26_2 C25_2 1_555 1_555
H18_2 C26_2 1_555 1_555
C27_2 C26_2 1_555 1_555
H19_2 C27_2 1_555 1_555
C28_2 C27_2 1_555 1_555
C29_2 C24_2 1_555 1_555
H20_2 C29_2 1_555 1_555
C30_2 O11_2 1_555 1_555
C31_2 C30_2 1_555 1_555
O19_2 C30_2 1_555 1_555
O42_2 C42_2 1_555 1_555
O44_2 C42_2 1_555 1_555
C42_2 C53_2 1_555 1_555
C44_2 C45_2 1_555 1_555
C45_2 H27_2 1_555 1_555
C46_2 C45_2 1_555 1_555
C47_2 C46_2 1_555 1_555
H28_2 C47_2 1_555 1_555
C48_2 C39_2 1_555 1_555
C49_2 C44_2 1_555 1_555
H29_2 C49_2 1_555 1_555
C51_2 H30_2 1_555 1_555
C52_2 C51_2 1_555 1_555
H31_2 C52_2 1_555 1_555
C53_2 C52_2 1_555 1_555
C54_2 C53_2 1_555 1_555
H32_2 C54_2 1_555 1_555
C55_2 C54_2 1_555 1_555
H33_2 C55_2 1_555 1_555
C56_2 C44_2 1_555 1_555
C14_2 C15_2 1_555 1_555
C15_2 C16_2 1_555 1_555
C18_2 C23_2 1_555 1_555
C22_2 C23_2 1_555 1_555
C24_2 C25_2 1_555 1_555
C28_2 C29_2 1_555 1_555
C47_2 C48_2 1_555 1_555
C48_2 C49_2 1_555 1_555
C51_2 C56_2 1_555 1_555
C55_2 C56_2 1_555 1_555
C31_2 H41_2 1_555 1_555
C31_2 H42_2 1_555 1_555
C31_2 H43_2 1_555 1_555
O17_2 Y13 1_555 1_555
C33_2 O17_2 1_555 1_555
H21_2 C33_2 1_555 1_555
O20_2 C33_2 1_555 1_555
O34_2 Y13 1_555 1_555
O37_2 Y17 1_555 1_555
O38_2 Y13 1_555 1_555
Y13 O35_2 1_555 1_555
O20_2 Y17 1_555 1_555
Y17 O34_2 1_555 1_555
Y17 O36_2 1_555 1_555
Y14 O15_2 1_555 1_555
Y15 O30_2 1_555 1_555
O12_2 C10_3 1_555 1_555
C10_3 C28_3 1_555 1_555
C24_3 H17_3 1_555 1_555
C26_3 C25_3 1_555 1_555
C27_3 C26_3 1_555 1_555
H19_3 C27_3 1_555 1_555
C28_3 C27_3 1_555 1_555
C29_3 C24_3 1_555 1_555
H20_3 C29_3 1_555 1_555
Y9 O12_2 1_555 1_555
C24_3 C25_3 1_555 1_555
C28_3 C29_3 1_555 1_555
O13 C9_3 1_555 1_555
O14 C9_3 1_555 1_555
O28 C42_3 1_555 1_555
O29 C42_3 1_555 1_555
Y7 O13 1_555 1_555
Y14_2 O14 1_555 1_555
Y15_2 O29 1_555 1_555
O28 Y7 1_555 1_555
Y1_3 O33_2 1_555 1_555
Y7 O1_3 1_555 1_555
Y9_2 O1_3 1_555 1_555
Y14_2 O3_3 1_555 1_555
O1_3 H1_3 1_555 1_555
O33_2 H2_3 1_555 1_555
O3_3 Y7 1_555 1_555
H3_3 O3_3 1_555 1_555
O34_2 Y1_3 1_555 1_555
H4_3 O34_2 1_555 1_555
O35_2 Y1_3 1_555 1_555
H5_3 O35_2 1_555 1_555
O6_3 Y7 1_555 1_555
H6_3 O6_3 1_555 1_555
O7_3 Y7 1_555 1_555
O8_3 Y9_2 1_555 1_555
O9_3 Y1_3 1_555 1_555
O37_2 C8_3 1_555 1_555
O11_3 Y9_2 1_555 1_555
C1_3 O7_3 1_555 1_555
C2_3 C3_3 1_555 1_555
C3_3 H7_3 1_555 1_555
C4_3 H8_3 1_555 1_555
C5_3 C1_3 1_555 1_555
C6_3 C4_3 1_555 1_555
C7_3 C2_3 1_555 1_555
H9_3 C7_3 1_555 1_555
O16_3 Y1_3 1_555 1_555
C8_3 O9_3 1_555 1_555
O47_2 C17_3 1_555 1_555
C11_3 C12_3 1_555 1_555
C12_3 H10_3 1_555 1_555
C13_3 C12_3 1_555 1_555
C14_3 C13_3 1_555 1_555
H11_3 C14_3 1_555 1_555
C15_3 C6_3 1_555 1_555
C16_3 C11_3 1_555 1_555
H12_3 C16_3 1_555 1_555
C17_3 O16_3 1_555 1_555
C18_3 H13_3 1_555 1_555
C19_3 C18_3 1_555 1_555
H14_3 C19_3 1_555 1_555
C20_3 C19_3 1_555 1_555
C21_3 C20_3 1_555 1_555
C22_3 C21_3 1_555 1_555
H16_3 C22_3 1_555 1_555
C23_3 C11_3 1_555 1_555
C30_3 O11_3 1_555 1_555
C31_3 C30_3 1_555 1_555
C32_3 C17_3 1_555 1_555
O19_3 C30_3 1_555 1_555
Y10_2 O1_3 1_555 1_555
Y15_2 O3_3 1_555 1_555
O36_2 Y1_3 1_555 1_555
H22_3 O36_2 1_555 1_555
O22_3 Y7 1_555 1_555
H23_3 O22_3 1_555 1_555
O23_3 Y7 1_555 1_555
O24_3 Y10_2 1_555 1_555
O25_3 Y1_3 1_555 1_555
O38_2 C41_3 1_555 1_555
O27_2 C43_3 1_555 1_555
C34_3 O23_3 1_555 1_555
C35_3 C36_3 1_555 1_555
C36_3 H24_3 1_555 1_555
C37_3 H25_3 1_555 1_555
C38_3 C34_3 1_555 1_555
C39_3 C37_3 1_555 1_555
C40_3 C35_3 1_555 1_555
H26_3 C40_3 1_555 1_555
O31_3 Y1_3 1_555 1_555
C41_3 O25_3 1_555 1_555
O48_2 C50_3 1_555 1_555
C43_3 C61_3 1_555 1_555
C44_3 C45_3 1_555 1_555
C45_3 H27_3 1_555 1_555
C46_3 C45_3 1_555 1_555
C47_3 C46_3 1_555 1_555
H28_3 C47_3 1_555 1_555
C48_3 C39_3 1_555 1_555
C49_3 C44_3 1_555 1_555
H29_3 C49_3 1_555 1_555
C50_3 O31_3 1_555 1_555
C51_3 H30_3 1_555 1_555
C52_3 C51_3 1_555 1_555
H31_3 C52_3 1_555 1_555
C53_3 C52_3 1_555 1_555
C54_3 C53_3 1_555 1_555
C55_3 C54_3 1_555 1_555
H33_3 C55_3 1_555 1_555
C56_3 C44_3 1_555 1_555
C57_3 H34_3 1_555 1_555
C58_3 C46_3 1_555 1_555
C59_3 C58_3 1_555 1_555
H35_3 C59_3 1_555 1_555
C60_3 C59_3 1_555 1_555
H36_3 C60_3 1_555 1_555
C61_3 C60_3 1_555 1_555
C62_3 C57_3 1_555 1_555
H37_3 C62_3 1_555 1_555
C63_3 C50_3 1_555 1_555
Y10 O27_2 1_555 1_555
O39_2 Y9_2 1_555 1_555
O40_2 Y10_2 1_555 1_555
O45_2 Y14_2 1_555 1_555
O46_2 Y15_2 1_555 1_555
Y9_2 O6_3 1_555 1_555
Y14_2 O6_3 1_555 1_555
O8_3 C1_3 1_555 1_555
C2_3 C8_3 1_555 1_555
C3_3 C5_3 1_555 1_555
C4_3 C5_3 1_555 1_555
C6_3 C7_3 1_555 1_555
C14_3 C15_3 1_555 1_555
C15_3 C16_3 1_555 1_555
C18_3 C23_3 1_555 1_555
C22_3 C23_3 1_555 1_555
O19_3 Y10_2 1_555 1_555
Y10_2 O22_3 1_555 1_555
Y15_2 O22_3 1_555 1_555
O24_3 C34_3 1_555 1_555
C35_3 C41_3 1_555 1_555
C36_3 C38_3 1_555 1_555
C37_3 C38_3 1_555 1_555
C39_3 C40_3 1_555 1_555
C47_3 C48_3 1_555 1_555
C48_3 C49_3 1_555 1_555
C51_3 C56_3 1_555 1_555
C55_3 C56_3 1_555 1_555
C57_3 C58_3 1_555 1_555
C61_3 C62_3 1_555 1_555
C32_3 H38_3 1_555 1_555
C32_3 H39_3 1_555 1_555
C32_3 H40_3 1_555 1_555
C31_3 H41_3 1_555 1_555
C31_3 H42_3 1_555 1_555
C31_3 H43_3 1_555 1_555
C63_3 H44_3 1_555 1_555
C63_3 H45_3 1_555 1_555
C63_3 H46_3 1_555 1_555
O17_3 Y14 1_555 1_555
C33_3 O17_3 1_555 1_555
H21_3 C33_3 1_555 1_555
O20_3 C33_3 1_555 1_555
O20_3 Y15 1_555 1_555
O13_2 C9_4 1_555 1_555
O14_2 C9_4 1_555 1_555
C9_4 C20_4 1_555 1_555
C11_4 C12_4 1_555 1_555
C12_4 H10_4 1_555 1_555
C13_4 C12_4 1_555 1_555
C14_4 C13_4 1_555 1_555
H11_4 C14_4 1_555 1_555
C15_4 C6_4 1_555 1_555
C16_4 C11_4 1_555 1_555
H12_4 C16_4 1_555 1_555
C18_4 H13_4 1_555 1_555
C19_4 C18_4 1_555 1_555
H14_4 C19_4 1_555 1_555
C20_4 C19_4 1_555 1_555
C21_4 C20_4 1_555 1_555
H15_4 C21_4 1_555 1_555
C22_4 C21_4 1_555 1_555
H16_4 C22_4 1_555 1_555
C23_4 C11_4 1_555 1_555
C30_4 O11_4 1_555 1_555
C31_4 C30_4 1_555 1_555
O19_4 C30_4 1_555 1_555
O40_2 C43_4 1_555 1_555
O28_2 C42_4 1_555 1_555
O29_2 C42_4 1_555 1_555
O46_2 C43_4 1_555 1_555
C42_4 C53_4 1_555 1_555
C43_4 C61_4 1_555 1_555
C44_4 C45_4 1_555 1_555
C45_4 H27_4 1_555 1_555
C46_4 C45_4 1_555 1_555
C47_4 C46_4 1_555 1_555
H28_4 C47_4 1_555 1_555
C48_4 C39_4 1_555 1_555
C49_4 C44_4 1_555 1_555
H29_4 C49_4 1_555 1_555
C51_4 H30_4 1_555 1_555
C52_4 C51_4 1_555 1_555
H31_4 C52_4 1_555 1_555
C53_4 C52_4 1_555 1_555
C54_4 C53_4 1_555 1_555
H32_4 C54_4 1_555 1_555
C55_4 C54_4 1_555 1_555
H33_4 C55_4 1_555 1_555
C56_4 C44_4 1_555 1_555
C57_4 H34_4 1_555 1_555
C58_4 C46_4 1_555 1_555
C59_4 C58_4 1_555 1_555
H35_4 C59_4 1_555 1_555
C60_4 C59_4 1_555 1_555
H36_4 C60_4 1_555 1_555
C61_4 C60_4 1_555 1_555
C62_4 C57_4 1_555 1_555
H37_4 C62_4 1_555 1_555
Y7_2 O13_2 1_555 1_555
C14_4 C15_4 1_555 1_555
C15_4 C16_4 1_555 1_555
C18_4 C23_4 1_555 1_555
C22_4 C23_4 1_555 1_555
O28_2 Y7_2 1_555 1_555
C47_4 C48_4 1_555 1_555
C48_4 C49_4 1_555 1_555
C51_4 C56_4 1_555 1_555
C55_4 C56_4 1_555 1_555
C57_4 C58_4 1_555 1_555
C61_4 C62_4 1_555 1_555
C31_4 H41_4 1_555 1_555
C31_4 H42_4 1_555 1_555
C31_4 H43_4 1_555 1_555
Y1_4 O33 1_555 1_555
Y7_2 O1_4 1_555 1_555
Y9 O1_4 1_555 1_555
O1_4 H1_4 1_555 1_555
O33 H2_4 1_555 1_555
O3_4 Y7_2 1_555 1_555
H3_4 O3_4 1_555 1_555
O34 Y1_4 1_555 1_555
H4_4 O34 1_555 1_555
O35 Y1_4 1_555 1_555
H5_4 O35 1_555 1_555
O6_4 Y7_2 1_555 1_555
H6_4 O6_4 1_555 1_555
O7_4 Y7_2 1_555 1_555
O8_4 Y9 1_555 1_555
O9_4 Y1_4 1_555 1_555
O37 C8_4 1_555 1_555
C1_4 O7_4 1_555 1_555
C2_4 C3_4 1_555 1_555
C3_4 H7_4 1_555 1_555
C4_4 H8_4 1_555 1_555
C5_4 C1_4 1_555 1_555
C7_4 C2_4 1_555 1_555
H9_4 C7_4 1_555 1_555
O16_4 Y1_4 1_555 1_555
C8_4 O9_4 1_555 1_555
O47 C17_4 1_555 1_555
C17_4 O16_4 1_555 1_555
C32_4 C17_4 1_555 1_555
Y10 O1_4 1_555 1_555
O36 Y1_4 1_555 1_555
H22_4 O36 1_555 1_555
O22_4 Y7_2 1_555 1_555
H23_4 O22_4 1_555 1_555
O23_4 Y7_2 1_555 1_555
O24_4 Y10 1_555 1_555
O25_4 Y1_4 1_555 1_555
O38 C41_4 1_555 1_555
C34_4 O23_4 1_555 1_555
C35_4 C36_4 1_555 1_555
C36_4 H24_4 1_555 1_555
C37_4 H25_4 1_555 1_555
C38_4 C34_4 1_555 1_555
C40_4 C35_4 1_555 1_555
H26_4 C40_4 1_555 1_555
O31_4 Y1_4 1_555 1_555
C41_4 O25_4 1_555 1_555
O48 C50_4 1_555 1_555
C50_4 O31_4 1_555 1_555
C63_4 C50_4 1_555 1_555
Y9 O6_4 1_555 1_555
O8_4 C1_4 1_555 1_555
C2_4 C8_4 1_555 1_555
C3_4 C5_4 1_555 1_555
C4_4 C5_4 1_555 1_555
Y10 O22_4 1_555 1_555
O24_4 C34_4 1_555 1_555
C35_4 C41_4 1_555 1_555
C36_4 C38_4 1_555 1_555
C37_4 C38_4 1_555 1_555
C32_4 H38_4 1_555 1_555
C32_4 H39_4 1_555 1_555
C32_4 H40_4 1_555 1_555
C63_4 H44_4 1_555 1_555
C63_4 H45_4 1_555 1_555
C63_4 H46_4 1_555 1_555
O39_2 C10_4 1_555 1_555
O45_2 C10_4 1_555 1_555
C10_4 C28_4 1_555 1_555
C24_4 H17_4 1_555 1_555
C26_4 C25_4 1_555 1_555
C27_4 C26_4 1_555 1_555
H19_4 C27_4 1_555 1_555
C28_4 C27_4 1_555 1_555
C29_4 C24_4 1_555 1_555
H20_4 C29_4 1_555 1_555
C24_4 C25_4 1_555 1_555
C28_4 C29_4 1_555 1_555
C31_3 H41_5 1_555 1_555
C31_3 H42_5 1_555 1_555
C31_3 H43_5 1_555 1_555
C31_4 H41_6 1_555 1_555
C31_4 H42_6 1_555 1_555
C31_4 H43_6 1_555 1_555
C31 H41_7 1_555 1_555
C31 H42_7 1_555 1_555
C31 H43_7 1_555 1_555
C31_2 H41_8 1_555 1_555
C31_2 H42_8 1_555 1_555
C31_2 H43_8 1_555 1_555
C33_4 O17_4 1_555 1_555
H21_4 C33_4 1_555 1_555
O20_4 C33_4 1_555 1_555

#END
