
###############################################################################
#
# This file contains modified crystal structure data generated from the
# MOF subset of the Cambridge Structural Database (CSD) v543 
# hosted by the Cambridge Crystallographic Data Centre (CCDC).
#
# This work is licensed under the Creative Commons
# Attribution-NonCommercial-ShareAlike 4.0 International License.
# To view a copy of this license, visit
# http://creativecommons.org/licenses/by-nc-sa/4.0/
# or send a letter to
# Creative Commons, PO Box 1866, Mountain View, CA 94042, USA.
#
# CIF created using the CSD Python API on 29 September 2022
# The structure has been converted into the P1 space group
# The structure has a 3D framework
# The original CSD entry UYEWUT is in the orthorhombic crystal system
# The framework has been calculated to contain at least 10.0% void space
# The void calculation uses a probe of radius 1.32A, grid spacing 0.4
# The framework is charged, counterions have been retained in the structure
# H atom positions have been added when not included in the experimental data
# Generated hydrogen atom positions removed from atoms on special positions
#
###############################################################################

data_UYEWUT
_chemical_formula_moiety         '(C232 H182 O118 Y24 10-)n'
_symmetry_cell_setting           triclinic
_symmetry_space_group_name_H-M   'P 1'
_symmetry_Int_Tables_number      1
_space_group_name_Hall           'P 1'
loop_
_symmetry_equiv_pos_site_id
_symmetry_equiv_pos_as_xyz
1 x,y,z
_cell_length_a                   25.004(3)
_cell_length_b                   27.689(3)
_cell_length_c                   14.0884(15)
_cell_angle_alpha                90
_cell_angle_beta                 90
_cell_angle_gamma                90
_cell_volume                     9753.9
loop_
_atom_site_label
_atom_site_type_symbol
_atom_site_fract_x
_atom_site_fract_y
_atom_site_fract_z
Y14 Y 0.03242(7) 0.82074(8) 0.85329(14)
Y16 Y 0.03242(7) 0.67926(8) 0.85329(14)
O24 O 0.1162(6) 0.3043(6) 0.1177(12)
O30 O 0.0431(6) 0.3430(6) 0.0622(11)
O31 O 0.5546(6) 0.6464(6) 0.0170(10)
H31 H 0.567670 0.667447 0.051892
C46 C 0.0923(9) 0.3336(10) 0.0664(14)
C57 C 0.1820(5) 0.3661(5) 0.0162(8)
H41 H 0.195625 0.355400 0.074675
Y10 Y 0.08819(9) 0.250000 0.22976(19)
O51 O 0.4674(6) 0.7053(8) 0.0689(10)
Y1 Y 0.91181(9) 0.750000 0.77024(19)
Y2 Y 0.61863(9) 0.750000 0.82899(18)
Y3 Y 0.53242(7) 0.67926(8) 0.64671(14)
Y4 Y 0.50783(7) 0.31928(8) 0.08136(14)
O1 O 0.9833(4) 0.750000 0.8691(8)
H1 H 0.968771 0.750000 0.934522
O2 O 0.4695(4) 0.6869(4) 0.7593(7)
H2 H 0.446702 0.658139 0.748976
O3 O 0.4535(4) 0.250000 0.0599(10)
O4 O 0.5506(6) 0.250000 0.1178(10)
H4 H 0.582018 0.250001 0.075135
O5 O 0.5762(5) 0.750000 0.6858(10)
H5 H 0.606619 0.750001 0.640746
O6 O 0.4375(4) 0.3161(4) 0.1845(8)
H6 H 0.415414 0.345079 0.172415
O7 O 0.5014(4) 0.3959(5) 0.1347(11)
O9 O 0.6719(4) 0.6983(6) 0.7442(10)
O10 O 0.6192(5) 0.6545(5) 0.6427(9)
O11 O 0.4827(5) 0.3951(6) 0.2918(12)
O12 O 0.8601(4) 0.6975(6) 0.6886(11)
O13 O 0.9012(5) 0.6572(5) 0.5749(10)
O15 O 0.6593(5) 0.7014(6) 0.9397(10)
H7 H 0.635378 0.680190 0.966848
H8 H 0.670999 0.718371 0.992448
O16 O 0.5546(7) 0.7009(5) 0.4936(12)
C1 C 0.7030(4) 0.6294(6) 0.5330(13)
H9 H 0.668233 0.621106 0.513536
C2 C 0.7108(5) 0.6546(5) 0.6171(11)
C3 C 0.7622(6) 0.6669(5) 0.6459(8)
H10 H 0.767414 0.683955 0.702780
C4 C 0.8059(4) 0.6539(6) 0.5905(11)
C5 C 0.7981(5) 0.6286(5) 0.5063(10)
H11 H 0.827648 0.619819 0.468818
C6 C 0.7467(6) 0.6164(5) 0.4776(9)
C7 C 0.5105(8) 0.4154(9) 0.218(3)
C8 C 0.8606(8) 0.6737(9) 0.6147(13)
C9 C 0.6632(6) 0.6728(8) 0.6726(13)
C10 C 0.5559(5) 0.4449(5) 0.2335(11)
C11 C 0.5795(6) 0.4496(5) 0.3223(9)
H13 H 0.566008 0.432182 0.374277
C12 C 0.6231(6) 0.4802(6) 0.3343(9)
H14 H 0.639102 0.483370 0.394318
C13 C 0.6431(5) 0.5059(5) 0.2574(12)
C14 C 0.6195(6) 0.5012(5) 0.1686(10)
H15 H 0.632990 0.518641 0.116591
C15 C 0.5759(6) 0.4707(6) 0.1566(9)
H16 H 0.559896 0.467453 0.096547
C17 C 0.6882(4) 0.5415(4) 0.2748(10)
C18 C 0.6969(4) 0.5609(5) 0.3644(8)
H17 H 0.673699 0.553121 0.414695
C19 C 0.7398(5) 0.5918(5) 0.3797(7)
C20 C 0.7741(4) 0.6033(5) 0.3054(10)
H18 H 0.803125 0.624161 0.315713
C21 C 0.7654(4) 0.5838(5) 0.2157(8)
C22 C 0.7224(5) 0.5529(5) 0.2004(7)
H19 H 0.716562 0.539787 0.139772
C23 C 0.8040(5) 0.5990(5) 0.1384(9)
C24 C 0.8584(5) 0.6023(5) 0.1569(8)
H20 H 0.872106 0.591628 0.215357
C25 C 0.8927(4) 0.6214(6) 0.0888(10)
H21 H 0.929573 0.623594 0.101329
C26 C 0.8725(5) 0.6372(5) 0.0023(9)
C28 C 0.7838(4) 0.6148(6) 0.0519(10)
H23 H 0.746907 0.612634 0.039352
C29 C 0.5550(19) 0.750000 0.471(3)
H24 H 0.555965 0.750000 0.403847
O19 O 0.5546(7) 0.7991(5) 0.4936(12)
Y5 Y 0.46758(7) 0.32074(8) 0.35329(14)
Y6 Y 0.49217(7) 0.68072(8) 0.91864(14)
O21 O 0.5305(4) 0.3131(4) 0.2407(7)
H26 H 0.553298 0.341861 0.251024
O22 O 0.5625(4) 0.6839(4) 0.8155(8)
H27 H 0.584586 0.654921 0.827585
O23 O 0.4986(4) 0.6041(5) 0.8653(11)
O25 O 0.3281(4) 0.3017(6) 0.2558(10)
O26 O 0.3808(5) 0.3455(5) 0.3573(9)
O27 O 0.5173(5) 0.6049(6) 0.7082(12)
O28 O 0.1399(4) 0.3025(6) 0.3114(11)
O29 O 0.0988(5) 0.3428(5) 0.4251(10)
C31 C 0.2970(4) 0.3706(6) 0.4670(13)
H28 H 0.331767 0.378894 0.486464
C32 C 0.2892(5) 0.3454(5) 0.3829(11)
C33 C 0.2378(6) 0.3331(5) 0.3541(8)
H29 H 0.232586 0.316045 0.297220
C34 C 0.1941(4) 0.3461(6) 0.4095(11)
C35 C 0.2019(5) 0.3714(5) 0.4937(10)
H30 H 0.172352 0.380181 0.531182
C36 C 0.2533(6) 0.3836(5) 0.5224(9)
C37 C 0.4895(8) 0.5846(9) 0.782(3)
C38 C 0.1394(8) 0.3263(9) 0.3853(13)
C39 C 0.3368(6) 0.3272(8) 0.3274(13)
C40 C 0.4441(5) 0.5551(5) 0.7665(11)
C41 C 0.4205(6) 0.5504(5) 0.6777(9)
H32 H 0.433992 0.567818 0.625723
C42 C 0.3769(6) 0.5198(6) 0.6657(9)
H33 H 0.360898 0.516630 0.605682
C43 C 0.3569(5) 0.4941(5) 0.7426(12)
C44 C 0.3805(6) 0.4988(5) 0.8314(10)
H34 H 0.367010 0.481359 0.883409
C45 C 0.4241(6) 0.5293(6) 0.8434(9)
H35 H 0.440104 0.532547 0.903453
C47 C 0.3118(4) 0.4585(4) 0.7252(10)
C48 C 0.3031(4) 0.4391(5) 0.6356(8)
H36 H 0.326301 0.446879 0.585305
C49 C 0.2602(5) 0.4082(5) 0.6203(7)
C50 C 0.2259(4) 0.3967(5) 0.6946(10)
H37 H 0.196875 0.375839 0.684287
C51 C 0.2346(4) 0.4162(5) 0.7843(8)
C52 C 0.2776(5) 0.4471(5) 0.7996(7)
H38 H 0.283438 0.460213 0.860228
C53 C 0.1960(5) 0.4010(5) 0.8616(9)
C54 C 0.1416(5) 0.3977(5) 0.8431(8)
H39 H 0.127894 0.408372 0.784643
C55 C 0.1073(4) 0.3786(6) 0.9112(10)
H40 H 0.070427 0.376406 0.898671
C56 C 0.1275(5) 0.3628(5) 0.9977(9)
C58 C 0.2162(4) 0.3852(6) 0.9481(10)
H42 H 0.253093 0.387366 0.960648
O32 O 0.6593(5) 0.7986(6) 0.9397(10)
H43 H 0.635378 0.819810 0.966848
H44 H 0.670999 0.781629 0.992448
Y8 Y 0.58819(9) 0.250000 0.27024(19)
Y11 Y 0.41181(9) 0.750000 0.72976(19)
Y12 Y 0.38137(9) 0.250000 0.17101(18)
Y17 Y 0.53242(7) 0.82074(8) 0.64671(14)
Y18 Y 0.99217(7) 0.68072(8) 0.58136(14)
Y19 Y 0.00783(7) 0.31928(8) 0.41864(14)
Y20 Y 0.50783(7) 0.18072(8) 0.08136(14)
O33 O 0.5167(4) 0.250000 0.3691(8)
O34 O 0.4833(4) 0.750000 0.6309(8)
O35 O 0.9695(4) 0.8131(4) 0.7407(7)
O36 O 0.9695(4) 0.6869(4) 0.7407(7)
O37 O 0.5465(4) 0.750000 0.9401(10)
O38 O 0.9494(6) 0.750000 0.6178(10)
O39 O 0.4494(6) 0.750000 0.8822(10)
O40 O 0.4238(5) 0.250000 0.3142(10)
O41 O 0.5625(4) 0.8161(4) 0.8155(8)
O42 O 0.8838(6) 0.6957(6) 0.8823(12)
O43 O 0.8838(6) 0.8043(6) 0.8823(12)
O44 O 0.6719(4) 0.8017(6) 0.7442(10)
O45 O 0.8601(4) 0.8025(6) 0.6886(11)
O46 O 0.5988(5) 0.3428(5) 0.0749(10)
O47 O 0.4012(5) 0.6572(5) 0.9251(10)
O48 O 0.5431(6) 0.3430(6) 0.4378(11)
O49 O 0.4569(6) 0.6570(6) 0.5622(11)
O50 O 0.4454(7) 0.2991(5) 0.5064(12)
H46 H 0.58336 0.631483 0.97823
H3 H 0.438908 0.250000 0.994544
O14 O 0.9569(6) 0.6570(6) 0.9378(11)
O17 O 0.4454(6) 0.3536(6) 0.9830(10)
H12 H 0.432330 0.332553 0.948108
O18 O 0.5326(6) 0.2947(8) 0.9311(10)
C16 C 0.9077(9) 0.6664(10) 0.9336(14)
C27 C 0.8180(5) 0.6339(5) 0.9838(8)
H22 H 0.804375 0.644600 0.925325
C30 C 0.5470(12) 0.250000 0.898(2)
H25 H 0.570125 0.250000 0.845781
O20 O 0.5326(6) 0.2053(8) 0.9311(10)
H45 H 0.462761 0.378792 0.943412
Y13 Y 0.96758(7) 0.32074(8) 0.14671(14)
O2_2 O 0.0305(4) 0.3131(4) 0.2593(7)
H2_2 H 0.053298 0.341861 0.248976
O23_2 O 0.0014(4) 0.3959(5) 0.3653(11)
O24_2 O 0.3838(6) 0.6957(6) 0.6177(12)
H30_2 H 0.327648 0.619819 0.031182
C36_2 C 0.2467(6) 0.6164(5) 0.0224(9)
C37_2 C 0.0105(8) 0.4154(9) 0.282(3)
C40_2 C 0.0559(5) 0.4449(5) 0.2665(11)
C41_2 C 0.0795(6) 0.4496(5) 0.1777(9)
H32_2 H 0.066008 0.432182 0.125723
C42_2 C 0.1231(6) 0.4802(6) 0.1657(9)
H33_2 H 0.139102 0.483370 0.105682
C43_2 C 0.1431(5) 0.5059(5) 0.2426(12)
C44_2 C 0.1195(6) 0.5012(5) 0.3314(10)
H34_2 H 0.132990 0.518641 0.383409
C45_2 C 0.0759(6) 0.4707(6) 0.3434(9)
H35_2 H 0.059896 0.467453 0.403453
C46_2 C 0.4077(9) 0.6664(10) 0.5664(14)
C47_2 C 0.1882(4) 0.5415(4) 0.2252(10)
C48_2 C 0.1969(4) 0.5609(5) 0.1356(8)
H36_2 H 0.173699 0.553121 0.085305
C49_2 C 0.2398(5) 0.5918(5) 0.1203(7)
C50_2 C 0.2741(4) 0.6033(5) 0.1946(10)
H37_2 H 0.303125 0.624161 0.184287
C51_2 C 0.2654(4) 0.5838(5) 0.2843(8)
C52_2 C 0.2224(5) 0.5529(5) 0.2996(7)
H38_2 H 0.216562 0.539787 0.360228
C53_2 C 0.3040(5) 0.5990(5) 0.3616(9)
C54_2 C 0.3584(5) 0.6023(5) 0.3431(8)
H39_2 H 0.372106 0.591628 0.284643
C55_2 C 0.3927(4) 0.6214(6) 0.4112(10)
H40_2 H 0.429573 0.623594 0.398671
C56_2 C 0.3725(5) 0.6372(5) 0.4977(9)
C57_2 C 0.3180(5) 0.6339(5) 0.5162(8)
H41_2 H 0.304375 0.644600 0.574675
C58_2 C 0.2838(4) 0.6148(6) 0.4481(10)
H42_2 H 0.246907 0.612634 0.460648
O34_2 O 0.0167(4) 0.250000 0.1309(8)
O39_2 O 0.0506(6) 0.250000 0.3822(10)
O50_2 O 0.0546(7) 0.7009(5) 0.0064(12)
O51_2 O 0.0326(6) 0.2947(8) 0.5689(10)
O3_2 O 0.0465(4) 0.750000 0.5599(10)
H3_2 H 0.061092 0.750000 0.494544
O6_2 O 0.0625(4) 0.6839(4) 0.6845(8)
H6_2 H 0.084586 0.654921 0.672415
O11_2 O 0.0173(5) 0.6049(6) 0.7918(12)
O17_2 O 0.0546(6) 0.6464(6) 0.4830(10)
O25_2 O 0.1719(4) 0.6983(6) 0.7558(10)
O26_2 O 0.1192(5) 0.6545(5) 0.8573(9)
O28_2 O 0.3601(4) 0.6975(6) 0.8114(11)
C31_2 C 0.2030(4) 0.6294(6) 0.9670(13)
H28_2 H 0.168233 0.621106 0.986464
C32_2 C 0.2108(5) 0.6546(5) 0.8829(11)
C33_2 C 0.2622(6) 0.6669(5) 0.8541(8)
H29_2 H 0.267414 0.683955 0.797220
C34_2 C 0.3059(4) 0.6539(6) 0.9095(11)
C35_2 C 0.2981(5) 0.6286(5) 0.9937(10)
C38_2 C 0.3606(8) 0.6737(9) 0.8853(13)
C39_2 C 0.1632(6) 0.6728(8) 0.8274(13)
Y12_2 Y 0.11863(9) 0.750000 0.67101(18)
O40_2 O 0.0762(5) 0.750000 0.8142(10)
Y2_2 Y 0.88137(9) 0.250000 0.32899(18)
H1_2 H 0.531229 0.250000 0.434522
O5_2 O 0.9238(5) 0.250000 0.1858(10)
H5_2 H 0.893381 0.249999 0.140746
O9_2 O 0.8281(4) 0.3017(6) 0.2442(10)
O10_2 O 0.8808(5) 0.3455(5) 0.1427(9)
O12_2 O 0.6399(4) 0.3025(6) 0.1886(11)
O15_2 O 0.8407(5) 0.2986(6) 0.4397(10)
H7_2 H 0.864622 0.319810 0.466848
H8_2 H 0.829001 0.281629 0.492448
C1_2 C 0.7970(4) 0.3706(6) 0.0330(13)
H9_2 H 0.831767 0.378894 0.013536
C2_2 C 0.7892(5) 0.3454(5) 0.1171(11)
C3_2 C 0.7378(6) 0.3331(5) 0.1459(8)
H10_2 H 0.732586 0.316045 0.202780
C4_2 C 0.6941(4) 0.3461(6) 0.0905(11)
C5_2 C 0.7019(5) 0.3714(5) 0.0063(10)
C8_2 C 0.6394(8) 0.3263(9) 0.1147(13)
C9_2 C 0.8368(6) 0.3272(8) 0.1726(13)
O22_2 O 0.9375(4) 0.3161(4) 0.3155(8)
H27_2 H 0.915414 0.345079 0.327585
O27_2 O 0.9827(5) 0.3951(6) 0.2082(12)
O31_2 O 0.9454(6) 0.3536(6) 0.5170(10)
O32_2 O 0.8407(5) 0.2014(6) 0.4397(10)
H43_2 H 0.864622 0.180190 0.466848
H44_2 H 0.829001 0.218371 0.492448
Y14_2 Y 0.46758(7) 0.17926(8) 0.35329(14)
Y17_2 Y 0.96758(7) 0.17926(8) 0.14671(14)
O35_2 O 0.5305(4) 0.1869(4) 0.2407(7)
O37_2 O 0.9535(4) 0.250000 0.4401(10)
O41_2 O 0.9375(4) 0.1839(4) 0.3155(8)
O42_2 O 0.6162(6) 0.3043(6) 0.3823(12)
O43_2 O 0.6162(6) 0.1957(6) 0.3823(12)
O44_2 O 0.8281(4) 0.1983(6) 0.2442(10)
O45_2 O 0.6399(4) 0.1975(6) 0.1886(11)
H4_2 H 0.917982 0.749999 0.575135
O7_2 O 0.9986(4) 0.6041(5) 0.6347(11)
O16_2 O 0.9454(7) 0.2991(5) 0.9936(12)
H11_2 H 0.672352 0.380181 0.968818
C6_2 C 0.7533(6) 0.3836(5) 0.9776(9)
C7_2 C 0.9895(8) 0.5846(9) 0.718(3)
O18_2 O 0.9674(6) 0.7053(8) 0.4311(10)
C10_2 C 0.9441(5) 0.5551(5) 0.7335(11)
C11_2 C 0.9205(6) 0.5504(5) 0.8223(9)
H13_2 H 0.933992 0.567818 0.874277
C12_2 C 0.8769(6) 0.5198(6) 0.8343(9)
H14_2 H 0.860898 0.516630 0.894318
C13_2 C 0.8569(5) 0.4941(5) 0.7574(12)
C14_2 C 0.8805(6) 0.4988(5) 0.6686(10)
H15_2 H 0.867010 0.481359 0.616591
C15_2 C 0.9241(6) 0.5293(6) 0.6566(9)
H16_2 H 0.940104 0.532547 0.596547
C16_2 C 0.5923(9) 0.3336(10) 0.4336(14)
C17_2 C 0.8118(4) 0.4585(4) 0.7748(10)
C18_2 C 0.8031(4) 0.4391(5) 0.8644(8)
H17_2 H 0.826301 0.446879 0.914695
C19_2 C 0.7602(5) 0.4082(5) 0.8797(7)
C20_2 C 0.7259(4) 0.3967(5) 0.8054(10)
H18_2 H 0.696875 0.375839 0.815713
C21_2 C 0.7346(4) 0.4162(5) 0.7157(8)
C22_2 C 0.7776(5) 0.4471(5) 0.7004(7)
H19_2 H 0.783438 0.460213 0.639772
C23_2 C 0.6960(5) 0.4010(5) 0.6384(9)
C24_2 C 0.6416(5) 0.3977(5) 0.6569(8)
H20_2 H 0.627894 0.408372 0.715357
C25_2 C 0.6073(4) 0.3786(6) 0.5888(10)
H21_2 H 0.570427 0.376406 0.601329
C26_2 C 0.6275(5) 0.3628(5) 0.5023(9)
C27_2 C 0.6820(5) 0.3661(5) 0.4838(8)
H22_2 H 0.695625 0.355400 0.425325
C28_2 C 0.7162(4) 0.3852(6) 0.5519(10)
H23_2 H 0.753093 0.387366 0.539352
C29_2 C 0.9450(19) 0.250000 0.971(3)
H24_2 H 0.944035 0.250000 0.903847
C30_2 C 0.9530(12) 0.750000 0.398(2)
H25_2 H 0.929875 0.750000 0.345781
O19_2 O 0.9454(7) 0.2009(5) 0.9936(12)
O20_2 O 0.9674(6) 0.7947(8) 0.4311(10)
H26_2 H 0.946702 0.658139 0.751024
Y20_2 Y 0.99217(7) 0.81928(8) 0.58136(14)
O8 O 0.1162(6) 0.1957(6) 0.1177(12)
O14_2 O 0.0431(6) 0.1570(6) 0.0622(11)
C16_3 C 0.0923(9) 0.1664(10) 0.0664(14)
C27_3 C 0.1820(5) 0.1339(5) 0.0162(8)
H22_3 H 0.195625 0.144600 0.074675
H1_3 H 0.031229 0.250000 0.065478
H2_3 H 0.553298 0.158139 0.251024
H5_3 H 0.393381 0.250001 0.359254
O9_3 O 0.3281(4) 0.1983(6) 0.2558(10)
O10_3 O 0.3808(5) 0.1545(5) 0.3573(9)
O12_3 O 0.1399(4) 0.1975(6) 0.3114(11)
O13_2 O 0.0988(5) 0.1572(5) 0.4251(10)
O15_3 O 0.3407(5) 0.2014(6) 0.0603(10)
H7_3 H 0.364622 0.180190 0.033152
H8_3 H 0.329001 0.218371 0.007552
O16_3 O 0.4454(7) 0.2009(5) 0.5064(12)
C1_3 C 0.2970(4) 0.1294(6) 0.4670(13)
H9_3 H 0.331767 0.121106 0.486464
C2_3 C 0.2892(5) 0.1546(5) 0.3829(11)
C3_3 C 0.2378(6) 0.1669(5) 0.3541(8)
H10_3 H 0.232586 0.183955 0.297220
C4_3 C 0.1941(4) 0.1539(6) 0.4095(11)
C5_3 C 0.2019(5) 0.1286(5) 0.4937(10)
H11_3 H 0.172352 0.119819 0.531182
C6_3 C 0.2533(6) 0.1164(5) 0.5224(9)
C8_3 C 0.1394(8) 0.1737(9) 0.3853(13)
C9_3 C 0.3368(6) 0.1728(8) 0.3274(13)
C13_3 C 0.3569(5) 0.0059(5) 0.7426(12)
C14_3 C 0.3805(6) 0.0012(5) 0.8314(10)
H15_3 H 0.367010 0.018641 0.883409
C17_3 C 0.3118(4) 0.0415(4) 0.7252(10)
C18_3 C 0.3031(4) 0.0609(5) 0.6356(8)
H17_3 H 0.326301 0.053121 0.585305
C19_3 C 0.2602(5) 0.0918(5) 0.6203(7)
C20_3 C 0.2259(4) 0.1033(5) 0.6946(10)
H18_3 H 0.196875 0.124161 0.684287
C21_3 C 0.2346(4) 0.0838(5) 0.7843(8)
C22_3 C 0.2776(5) 0.0529(5) 0.7996(7)
H19_3 H 0.283438 0.039787 0.860228
C23_3 C 0.1960(5) 0.0990(5) 0.8616(9)
C24_3 C 0.1416(5) 0.1023(5) 0.8431(8)
H20_3 H 0.127894 0.091628 0.784643
C25_3 C 0.1073(4) 0.1214(6) 0.9112(10)
H21_3 H 0.070427 0.123594 0.898671
C26_3 C 0.1275(5) 0.1372(5) 0.9977(9)
C28_3 C 0.2162(4) 0.1148(6) 0.9481(10)
H23_3 H 0.253093 0.112634 0.960648
C29_3 C 0.4450(19) 0.250000 0.529(3)
H24_3 H 0.444035 0.250000 0.596153
O22_3 O 0.4375(4) 0.1839(4) 0.1845(8)
H27_3 H 0.415414 0.154921 0.172415
O23_3 O 0.5014(4) 0.1041(5) 0.1347(11)
O27_3 O 0.4827(5) 0.1049(6) 0.2918(12)
C37_3 C 0.5105(8) 0.0846(9) 0.218(3)
C40_3 C 0.5559(5) 0.0551(5) 0.2335(11)
C41_3 C 0.5795(6) 0.0504(5) 0.3223(9)
H32_3 H 0.566008 0.067818 0.374277
C42_3 C 0.6231(6) 0.0198(6) 0.3343(9)
H33_3 H 0.639102 0.016630 0.394318
C45_3 C 0.5759(6) 0.0293(6) 0.1566(9)
H35_3 H 0.559896 0.032547 0.096547
O32_3 O 0.3407(5) 0.2986(6) 0.0603(10)
H43_3 H 0.364622 0.319810 0.033152
H44_3 H 0.329001 0.281629 0.007552
Y18_2 Y 0.00783(7) 0.18072(8) 0.41864(14)
O36_2 O 0.0305(4) 0.1869(4) 0.2593(7)
O47_2 O 0.5988(5) 0.1572(5) 0.0749(10)
O49_2 O 0.5431(6) 0.1570(6) 0.4378(11)
H46_2 H 0.41664 0.131483 0.0217699
O31_3 O 0.4454(6) 0.1464(6) 0.9830(10)
H31_2 H 0.432330 0.167447 0.948108
H3_3 H 0.561092 0.750000 0.005456
O17_3 O 0.5546(6) 0.8536(6) 0.0170(10)
H12_2 H 0.567670 0.832553 0.051892
O18_3 O 0.4674(6) 0.7947(8) 0.0689(10)
C30_3 C 0.4530(12) 0.750000 0.102(2)
H25_3 H 0.429875 0.750000 0.154219
H45_2 H 0.537239 0.878792 0.056588
Y4_2 Y 0.49217(7) 0.81928(8) 0.91864(14)
H4_3 H 0.417982 0.750001 0.924865
H6_3 H 0.584586 0.845079 0.827585
O7_3 O 0.4986(4) 0.8959(5) 0.8653(11)
O11_3 O 0.5173(5) 0.8951(6) 0.7082(12)
C7_3 C 0.4895(8) 0.9154(9) 0.782(3)
C10_3 C 0.4441(5) 0.9449(5) 0.7665(11)
C11_3 C 0.4205(6) 0.9496(5) 0.6777(9)
H13_3 H 0.433992 0.932182 0.625723
C12_3 C 0.3769(6) 0.9802(6) 0.6657(9)
H14_3 H 0.360898 0.983370 0.605682
C15_3 C 0.4241(6) 0.9707(6) 0.8434(9)
H16_3 H 0.440104 0.967453 0.903453
O21_2 O 0.4695(4) 0.8131(4) 0.7593(7)
H26_3 H 0.446702 0.841861 0.748976
O26_3 O 0.6192(5) 0.8455(5) 0.6427(9)
O29_2 O 0.9012(5) 0.8428(5) 0.5749(10)
C31_3 C 0.7030(4) 0.8706(6) 0.5330(13)
H28_3 H 0.668233 0.878894 0.513536
C32_3 C 0.7108(5) 0.8454(5) 0.6171(11)
C33_3 C 0.7622(6) 0.8331(5) 0.6459(8)
H29_3 H 0.767414 0.816045 0.702780
C34_3 C 0.8059(4) 0.8461(6) 0.5905(11)
C35_3 C 0.7981(5) 0.8714(5) 0.5063(10)
H30_3 H 0.827648 0.880181 0.468818
C36_3 C 0.7467(6) 0.8836(5) 0.4776(9)
C38_3 C 0.8606(8) 0.8263(9) 0.6147(13)
C39_3 C 0.6632(6) 0.8272(8) 0.6726(13)
C43_3 C 0.6431(5) 0.9941(5) 0.2574(12)
C44_3 C 0.6195(6) 0.9988(5) 0.1686(10)
H34_3 H 0.632990 0.981359 0.116591
C47_3 C 0.6882(4) 0.9585(4) 0.2748(10)
C48_3 C 0.6969(4) 0.9391(5) 0.3644(8)
H36_3 H 0.673699 0.946879 0.414695
C49_3 C 0.7398(5) 0.9082(5) 0.3797(7)
C50_3 C 0.7741(4) 0.8967(5) 0.3054(10)
H37_3 H 0.803125 0.875839 0.315713
C51_3 C 0.7654(4) 0.9162(5) 0.2157(8)
C52_3 C 0.7224(5) 0.9471(5) 0.2004(7)
H38_3 H 0.716562 0.960213 0.139772
C53_3 C 0.8040(5) 0.9010(5) 0.1384(9)
C54_3 C 0.8584(5) 0.8977(5) 0.1569(8)
H39_3 H 0.872106 0.908372 0.215357
C55_3 C 0.8927(4) 0.8786(6) 0.0888(10)
H40_3 H 0.929573 0.876406 0.101329
C56_3 C 0.8725(5) 0.8628(5) 0.0023(9)
C58_3 C 0.7838(4) 0.8852(6) 0.0519(10)
H42_3 H 0.746907 0.887366 0.039352
O46_2 O 0.4012(5) 0.8428(5) 0.9251(10)
O48_2 O 0.4569(6) 0.8430(6) 0.5622(11)
O30_2 O 0.9569(6) 0.8430(6) 0.9378(11)
C46_3 C 0.9077(9) 0.8336(10) 0.9336(14)
C57_3 C 0.8180(5) 0.8661(5) 0.9838(8)
H41_3 H 0.804375 0.855400 0.925325
H4_4 H 0.082018 0.249999 0.424865
O7_4 O 0.0014(4) 0.1041(5) 0.3653(11)
C7_4 C 0.0105(8) 0.0846(9) 0.282(3)
O18_4 O 0.0326(6) 0.2053(8) 0.5689(10)
C10_4 C 0.0559(5) 0.0551(5) 0.2665(11)
C11_4 C 0.0795(6) 0.0504(5) 0.1777(9)
H13_4 H 0.066008 0.067818 0.125723
C12_4 C 0.1231(6) 0.0198(6) 0.1657(9)
H14_4 H 0.139102 0.016630 0.105682
C15_4 C 0.0759(6) 0.0293(6) 0.3434(9)
H16_4 H 0.059896 0.032547 0.403453
C30_4 C 0.0470(12) 0.250000 0.602(2)
H25_4 H 0.070125 0.250000 0.654219
H26_4 H 0.053298 0.158139 0.248976
O8_2 O 0.3838(6) 0.8043(6) 0.6177(12)
O16_4 O 0.0546(7) 0.7991(5) 0.0064(12)
H11_4 H 0.327648 0.880181 0.031182
C6_4 C 0.2467(6) 0.8836(5) 0.0224(9)
C13_4 C 0.1431(5) 0.9941(5) 0.2426(12)
C14_4 C 0.1195(6) 0.9988(5) 0.3314(10)
H15_4 H 0.132990 0.981359 0.383409
C16_4 C 0.4077(9) 0.8336(10) 0.5664(14)
C17_4 C 0.1882(4) 0.9585(4) 0.2252(10)
C18_4 C 0.1969(4) 0.9391(5) 0.1356(8)
H17_4 H 0.173699 0.946879 0.085305
C19_4 C 0.2398(5) 0.9082(5) 0.1203(7)
C20_4 C 0.2741(4) 0.8967(5) 0.1946(10)
H18_4 H 0.303125 0.875839 0.184287
C21_4 C 0.2654(4) 0.9162(5) 0.2843(8)
C22_4 C 0.2224(5) 0.9471(5) 0.2996(7)
H19_4 H 0.216562 0.960213 0.360228
C23_4 C 0.3040(5) 0.9010(5) 0.3616(9)
C24_4 C 0.3584(5) 0.8977(5) 0.3431(8)
H20_4 H 0.372106 0.908372 0.284643
C25_4 C 0.3927(4) 0.8786(6) 0.4112(10)
H21_4 H 0.429573 0.876406 0.398671
C26_4 C 0.3725(5) 0.8628(5) 0.4977(9)
C27_4 C 0.3180(5) 0.8661(5) 0.5162(8)
H22_4 H 0.304375 0.855400 0.574675
C28_4 C 0.2838(4) 0.8852(6) 0.4481(10)
H23_4 H 0.246907 0.887366 0.460648
C29_4 C 0.0550(19) 0.750000 0.029(3)
H24_4 H 0.055965 0.750000 0.096153
H1_4 H 0.468771 0.750000 0.565478
H5_4 H 0.106619 0.749999 0.859254
O9_4 O 0.1719(4) 0.8017(6) 0.7558(10)
O10_4 O 0.1192(5) 0.8455(5) 0.8573(9)
O12_4 O 0.3601(4) 0.8025(6) 0.8114(11)
O15_4 O 0.1593(5) 0.7986(6) 0.5603(10)
H7_4 H 0.135378 0.819810 0.533152
H8_4 H 0.170999 0.781629 0.507552
C1_4 C 0.2030(4) 0.8706(6) 0.9670(13)
H9_4 H 0.168233 0.878894 0.986464
C2_4 C 0.2108(5) 0.8454(5) 0.8829(11)
C3_4 C 0.2622(6) 0.8331(5) 0.8541(8)
H10_4 H 0.267414 0.816045 0.797220
C4_4 C 0.3059(4) 0.8461(6) 0.9095(11)
C5_4 C 0.2981(5) 0.8714(5) 0.9937(10)
C8_4 C 0.3606(8) 0.8263(9) 0.8853(13)
C9_4 C 0.1632(6) 0.8272(8) 0.8274(13)
O22_4 O 0.0625(4) 0.8161(4) 0.6845(8)
H27_4 H 0.084586 0.845079 0.672415
O27_4 O 0.0173(5) 0.8951(6) 0.7918(12)
O31_4 O 0.0546(6) 0.8536(6) 0.4830(10)
O32_4 O 0.1593(5) 0.7014(6) 0.5603(10)
H43_4 H 0.135378 0.680190 0.533152
H44_4 H 0.170999 0.718371 0.507552
H3_4 H 0.938908 0.250000 0.505456
H6_4 H 0.915414 0.154921 0.327585
O11_4 O 0.9827(5) 0.1049(6) 0.2082(12)
O17_4 O 0.9454(6) 0.1464(6) 0.5170(10)
O26_4 O 0.8808(5) 0.1545(5) 0.1427(9)
C31_4 C 0.7970(4) 0.1294(6) 0.0330(13)
H28_4 H 0.831767 0.121106 0.013536
C32_4 C 0.7892(5) 0.1546(5) 0.1171(11)
C33_4 C 0.7378(6) 0.1669(5) 0.1459(8)
H29_4 H 0.732586 0.183955 0.202780
C34_4 C 0.6941(4) 0.1539(6) 0.0905(11)
C35_4 C 0.7019(5) 0.1286(5) 0.0063(10)
C38_4 C 0.6394(8) 0.1737(9) 0.1147(13)
C39_4 C 0.8368(6) 0.1728(8) 0.1726(13)
H30_4 H 0.672352 0.119819 0.968818
C36_4 C 0.7533(6) 0.1164(5) 0.9776(9)
C43_4 C 0.8569(5) 0.0059(5) 0.7574(12)
C44_4 C 0.8805(6) 0.0012(5) 0.6686(10)
H34_4 H 0.867010 0.018641 0.616591
C46_4 C 0.5923(9) 0.1664(10) 0.4336(14)
C47_4 C 0.8118(4) 0.0415(4) 0.7748(10)
C48_4 C 0.8031(4) 0.0609(5) 0.8644(8)
H36_4 H 0.826301 0.053121 0.914695
C49_4 C 0.7602(5) 0.0918(5) 0.8797(7)
C50_4 C 0.7259(4) 0.1033(5) 0.8054(10)
H37_4 H 0.696875 0.124161 0.815713
C51_4 C 0.7346(4) 0.0838(5) 0.7157(8)
C52_4 C 0.7776(5) 0.0529(5) 0.7004(7)
H38_4 H 0.783438 0.039787 0.639772
C53_4 C 0.6960(5) 0.0990(5) 0.6384(9)
C54_4 C 0.6416(5) 0.1023(5) 0.6569(8)
H39_4 H 0.627894 0.091628 0.715357
C55_4 C 0.6073(4) 0.1214(6) 0.5888(10)
H40_4 H 0.570427 0.123594 0.601329
C56_4 C 0.6275(5) 0.1372(5) 0.5023(9)
C57_4 C 0.6820(5) 0.1339(5) 0.4838(8)
H41_4 H 0.695625 0.144600 0.425325
C58_4 C 0.7162(4) 0.1148(6) 0.5519(10)
H42_4 H 0.753093 0.112634 0.539352
H2_4 H 0.946702 0.841861 0.751024
O23_4 O 0.9986(4) 0.8959(5) 0.6347(11)
C37_4 C 0.9895(8) 0.9154(9) 0.718(3)
C40_4 C 0.9441(5) 0.9449(5) 0.7335(11)
C41_4 C 0.9205(6) 0.9496(5) 0.8223(9)
H32_4 H 0.933992 0.932182 0.874277
C42_4 C 0.8769(6) 0.9802(6) 0.8343(9)
H33_4 H 0.860898 0.983370 0.894318
C45_4 C 0.9241(6) 0.9707(6) 0.6566(9)
H35_4 H 0.940104 0.967453 0.596547
H45_3 H 0.537239 0.621208 0.056588
H46_3 H 0.41664 0.368517 0.0217699
H45_4 H 0.462761 0.121208 0.943412
H46_4 H 0.58336 0.868517 0.97823
loop_
_geom_bond_atom_site_label_1
_geom_bond_atom_site_label_2
_geom_bond_site_symmetry_1
_geom_bond_site_symmetry_2
O24 C46 1_555 1_555
O30 C46 1_555 1_555
H31 O31 1_555 1_555
H41 C57 1_555 1_555
Y10 O24 1_555 1_555
Y1 O1 1_555 1_555
Y2 O5 1_555 1_555
Y3 O2 1_555 1_555
Y4 O3 1_555 1_555
O1 H1 1_555 1_555
O2 H2 1_555 1_555
O4 Y4 1_555 1_555
H4 O4 1_555 1_555
O5 Y3 1_555 1_555
H5 O5 1_555 1_555
O6 Y4 1_555 1_555
H6 O6 1_555 1_555
O7 Y4 1_555 1_555
O9 Y2 1_555 1_555
O10 Y3 1_555 1_555
O11 C7 1_555 1_555
O12 Y1 1_555 1_555
O13 C8 1_555 1_555
O15 Y2 1_555 1_555
H7 O15 1_555 1_555
H8 O15 1_555 1_555
O16 Y3 1_555 1_555
C1 H9 1_555 1_555
C2 C1 1_555 1_555
C3 C2 1_555 1_555
H10 C3 1_555 1_555
C4 C3 1_555 1_555
C5 C4 1_555 1_555
H11 C5 1_555 1_555
C6 C1 1_555 1_555
C7 O7 1_555 1_555
C8 O12 1_555 1_555
C9 O9 1_555 1_555
C10 C7 1_555 1_555
C11 C10 1_555 1_555
H13 C11 1_555 1_555
C12 C11 1_555 1_555
H14 C12 1_555 1_555
C13 C12 1_555 1_555
C14 C13 1_555 1_555
H15 C14 1_555 1_555
C15 C10 1_555 1_555
H16 C15 1_555 1_555
C17 C13 1_555 1_555
C18 C17 1_555 1_555
H17 C18 1_555 1_555
C19 C6 1_555 1_555
C20 C19 1_555 1_555
H18 C20 1_555 1_555
C21 C20 1_555 1_555
C22 C17 1_555 1_555
H19 C22 1_555 1_555
C23 C21 1_555 1_555
C24 C23 1_555 1_555
H20 C24 1_555 1_555
C25 C24 1_555 1_555
H21 C25 1_555 1_555
C26 C25 1_555 1_555
C28 C23 1_555 1_555
H23 C28 1_555 1_555
C29 O16 1_555 1_555
H24 C29 1_555 1_555
O19 C29 1_555 1_555
Y5 O6 1_555 1_555
Y6 O2 1_555 1_555
O21 Y4 1_555 1_555
H26 O21 1_555 1_555
O22 Y2 1_555 1_555
H27 O22 1_555 1_555
O23 Y6 1_555 1_555
O25 C39 1_555 1_555
O26 Y5 1_555 1_555
O27 Y3 1_555 1_555
O28 C38 1_555 1_555
O29 C38 1_555 1_555
C31 H28 1_555 1_555
C32 C31 1_555 1_555
C33 C32 1_555 1_555
H29 C33 1_555 1_555
C34 C33 1_555 1_555
C35 C34 1_555 1_555
H30 C35 1_555 1_555
C36 C31 1_555 1_555
C37 O23 1_555 1_555
C38 C34 1_555 1_555
C39 O26 1_555 1_555
C40 C37 1_555 1_555
C41 C40 1_555 1_555
H32 C41 1_555 1_555
C42 C41 1_555 1_555
H33 C42 1_555 1_555
C43 C42 1_555 1_555
C44 C43 1_555 1_555
H34 C44 1_555 1_555
C45 C40 1_555 1_555
H35 C45 1_555 1_555
C47 C43 1_555 1_555
C48 C47 1_555 1_555
H36 C48 1_555 1_555
C49 C36 1_555 1_555
C50 C49 1_555 1_555
H37 C50 1_555 1_555
C51 C50 1_555 1_555
C52 C47 1_555 1_555
H38 C52 1_555 1_555
C53 C51 1_555 1_555
C54 C53 1_555 1_555
H39 C54 1_555 1_555
C55 C54 1_555 1_555
H40 C55 1_555 1_555
C56 C55 1_555 1_555
C58 C53 1_555 1_555
H42 C58 1_555 1_555
O32 Y2 1_555 1_555
H43 O32 1_555 1_555
H44 O32 1_555 1_555
Y8 O4 1_555 1_555
Y10 O28 1_555 1_555
Y11 O2 1_555 1_555
Y12 O3 1_555 1_555
Y17 O5 1_555 1_555
Y18 O13 1_555 1_555
Y19 O29 1_555 1_555
Y20 O3 1_555 1_555
O33 Y5 1_555 1_555
O34 Y3 1_555 1_555
O35 Y1 1_555 1_555
O36 Y1 1_555 1_555
O37 Y2 1_555 1_555
O38 Y1 1_555 1_555
O39 Y6 1_555 1_555
O40 Y5 1_555 1_555
O41 Y2 1_555 1_555
O42 Y1 1_555 1_555
O43 Y1 1_555 1_555
O44 Y2 1_555 1_555
O45 Y1 1_555 1_555
O46 Y4 1_555 1_555
O47 Y6 1_555 1_555
O48 Y5 1_555 1_555
O49 Y3 1_555 1_555
O50 Y5 1_555 1_555
Y3 O22 1_555 1_555
O4 Y20 1_555 1_555
O6 Y12 1_555 1_555
O10 C9 1_555 1_555
O11 Y5 1_555 1_555
C2 C9 1_555 1_555
C4 C8 1_555 1_555
C5 C6 1_555 1_555
C14 C15 1_555 1_555
C18 C19 1_555 1_555
C21 C22 1_555 1_555
O19 Y17 1_555 1_555
Y5 O21 1_555 1_555
Y6 O22 1_555 1_555
Y6 O37 1_555 1_555
O21 Y8 1_555 1_555
O25 Y12 1_555 1_555
O27 C37 1_555 1_555
C32 C39 1_555 1_555
C35 C36 1_555 1_555
C44 C45 1_555 1_555
C48 C49 1_555 1_555
C51 C52 1_555 1_555
Y8 O33 1_555 1_555
Y11 O34 1_555 1_555
Y11 O39 1_555 1_555
Y12 O40 1_555 1_555
Y17 O34 1_555 1_555
Y17 O41 1_555 1_555
Y18 O36 1_555 1_555
Y18 O38 1_555 1_555
O42 C16 1_555 1_555
O14 C16 1_555 1_555
H12 O17 1_555 1_555
H22 C27 1_555 1_555
C30 O18 1_555 1_555
H25 C30 1_555 1_555
O20 C30 1_555 1_555
O17 H45 1_555 1_555
O2_2 H2_2 1_555 1_555
Y19 O2_2 1_555 1_555
O23_2 Y19 1_555 1_555
O24_2 C46_2 1_555 1_555
O49 C46_2 1_555 1_555
C37_2 O23_2 1_555 1_555
C40_2 C37_2 1_555 1_555
C41_2 C40_2 1_555 1_555
H32_2 C41_2 1_555 1_555
C42_2 C41_2 1_555 1_555
H33_2 C42_2 1_555 1_555
C43_2 C42_2 1_555 1_555
C44_2 C43_2 1_555 1_555
H34_2 C44_2 1_555 1_555
C45_2 C40_2 1_555 1_555
H35_2 C45_2 1_555 1_555
C46_2 C56_2 1_555 1_555
C47_2 C43_2 1_555 1_555
C48_2 C47_2 1_555 1_555
H36_2 C48_2 1_555 1_555
C49_2 C36_2 1_555 1_555
C50_2 C49_2 1_555 1_555
H37_2 C50_2 1_555 1_555
C51_2 C50_2 1_555 1_555
C52_2 C47_2 1_555 1_555
H38_2 C52_2 1_555 1_555
C53_2 C51_2 1_555 1_555
C54_2 C53_2 1_555 1_555
H39_2 C54_2 1_555 1_555
C55_2 C54_2 1_555 1_555
H40_2 C55_2 1_555 1_555
C56_2 C55_2 1_555 1_555
C57_2 C56_2 1_555 1_555
H41_2 C57_2 1_555 1_555
C58_2 C53_2 1_555 1_555
H42_2 C58_2 1_555 1_555
Y11 O24_2 1_555 1_555
Y10 O2_2 1_555 1_555
O39_2 Y19 1_555 1_555
O51_2 Y19 1_555 1_555
C44_2 C45_2 1_555 1_555
C48_2 C49_2 1_555 1_555
C51_2 C52_2 1_555 1_555
C57_2 C58_2 1_555 1_555
Y10 O34_2 1_555 1_555
Y10 O39_2 1_555 1_555
O3_2 H3_2 1_555 1_555
H6_2 O6_2 1_555 1_555
Y16 O6_2 1_555 1_555
O25_2 C39_2 1_555 1_555
O26_2 Y16 1_555 1_555
O28_2 C38_2 1_555 1_555
O47 C38_2 1_555 1_555
C31_2 H28_2 1_555 1_555
C32_2 C31_2 1_555 1_555
C33_2 C32_2 1_555 1_555
H29_2 C33_2 1_555 1_555
C34_2 C33_2 1_555 1_555
C35_2 C34_2 1_555 1_555
C38_2 C34_2 1_555 1_555
C39_2 O26_2 1_555 1_555
Y11 O28_2 1_555 1_555
Y12_2 O3_2 1_555 1_555
O40_2 Y16 1_555 1_555
O6_2 Y12_2 1_555 1_555
O11_2 Y16 1_555 1_555
O25_2 Y12_2 1_555 1_555
C32_2 C39_2 1_555 1_555
Y12_2 O40_2 1_555 1_555
Y2_2 O5_2 1_555 1_555
O33 H1_2 1_555 1_555
O5_2 Y13 1_555 1_555
H5_2 O5_2 1_555 1_555
O9_2 Y2_2 1_555 1_555
O10_2 Y13 1_555 1_555
O12_2 Y8 1_555 1_555
O46 C8_2 1_555 1_555
O15_2 Y2_2 1_555 1_555
H7_2 O15_2 1_555 1_555
H8_2 O15_2 1_555 1_555
C1_2 H9_2 1_555 1_555
C2_2 C1_2 1_555 1_555
C3_2 C2_2 1_555 1_555
H10_2 C3_2 1_555 1_555
C4_2 C3_2 1_555 1_555
C5_2 C4_2 1_555 1_555
C8_2 O12_2 1_555 1_555
C9_2 O9_2 1_555 1_555
O22_2 Y2_2 1_555 1_555
H27_2 O22_2 1_555 1_555
O27_2 Y13 1_555 1_555
O32_2 Y2_2 1_555 1_555
H43_2 O32_2 1_555 1_555
H44_2 O32_2 1_555 1_555
Y14_2 O33 1_555 1_555
Y17_2 O5_2 1_555 1_555
O35_2 Y8 1_555 1_555
O37_2 Y2_2 1_555 1_555
O41_2 Y2_2 1_555 1_555
O42_2 Y8 1_555 1_555
O43_2 Y8 1_555 1_555
O44_2 Y2_2 1_555 1_555
O45_2 Y8 1_555 1_555
Y13 O22_2 1_555 1_555
O10_2 C9_2 1_555 1_555
C2_2 C9_2 1_555 1_555
C4_2 C8_2 1_555 1_555
Y14_2 O35_2 1_555 1_555
Y17_2 O41_2 1_555 1_555
H4_2 O38 1_555 1_555
O7_2 Y18 1_555 1_555
O42_2 C16_2 1_555 1_555
O48 C16_2 1_555 1_555
C7_2 O7_2 1_555 1_555
O18_2 Y18 1_555 1_555
C10_2 C7_2 1_555 1_555
C11_2 C10_2 1_555 1_555
H13_2 C11_2 1_555 1_555
C12_2 C11_2 1_555 1_555
H14_2 C12_2 1_555 1_555
C13_2 C12_2 1_555 1_555
C14_2 C13_2 1_555 1_555
H15_2 C14_2 1_555 1_555
C15_2 C10_2 1_555 1_555
H16_2 C15_2 1_555 1_555
C16_2 C26_2 1_555 1_555
C17_2 C13_2 1_555 1_555
C18_2 C17_2 1_555 1_555
H17_2 C18_2 1_555 1_555
C19_2 C6_2 1_555 1_555
C20_2 C19_2 1_555 1_555
H18_2 C20_2 1_555 1_555
C21_2 C20_2 1_555 1_555
C22_2 C17_2 1_555 1_555
H19_2 C22_2 1_555 1_555
C23_2 C21_2 1_555 1_555
C24_2 C23_2 1_555 1_555
H20_2 C24_2 1_555 1_555
C25_2 C24_2 1_555 1_555
H21_2 C25_2 1_555 1_555
C26_2 C25_2 1_555 1_555
C27_2 C26_2 1_555 1_555
H22_2 C27_2 1_555 1_555
C28_2 C23_2 1_555 1_555
H23_2 C28_2 1_555 1_555
C29_2 O16_2 1_555 1_555
H24_2 C29_2 1_555 1_555
C30_2 O18_2 1_555 1_555
H25_2 C30_2 1_555 1_555
O19_2 C29_2 1_555 1_555
O20_2 C30_2 1_555 1_555
H26_2 O36 1_555 1_555
O38 Y20_2 1_555 1_555
C14_2 C15_2 1_555 1_555
C18_2 C19_2 1_555 1_555
C21_2 C22_2 1_555 1_555
C27_2 C28_2 1_555 1_555
O20_2 Y20_2 1_555 1_555
O8 C16_3 1_555 1_555
O14_2 C16_3 1_555 1_555
H22_3 C27_3 1_555 1_555
Y10 O8 1_555 1_555
O34_2 H1_3 1_555 1_555
O35_2 H2_3 1_555 1_555
O40 Y14_2 1_555 1_555
H5_3 O40 1_555 1_555
O9_3 Y12 1_555 1_555
O10_3 Y14_2 1_555 1_555
O12_3 Y10 1_555 1_555
O13_2 C8_3 1_555 1_555
O15_3 Y12 1_555 1_555
H7_3 O15_3 1_555 1_555
H8_3 O15_3 1_555 1_555
O16_3 Y14_2 1_555 1_555
C1_3 H9_3 1_555 1_555
C2_3 C1_3 1_555 1_555
C3_3 C2_3 1_555 1_555
H10_3 C3_3 1_555 1_555
C4_3 C3_3 1_555 1_555
C5_3 C4_3 1_555 1_555
H11_3 C5_3 1_555 1_555
C6_3 C1_3 1_555 1_555
C8_3 O12_3 1_555 1_555
C9_3 O9_3 1_555 1_555
C14_3 C13_3 1_555 1_555
H15_3 C14_3 1_555 1_555
C17_3 C13_3 1_555 1_555
C18_3 C17_3 1_555 1_555
H17_3 C18_3 1_555 1_555
C19_3 C6_3 1_555 1_555
C20_3 C19_3 1_555 1_555
H18_3 C20_3 1_555 1_555
C21_3 C20_3 1_555 1_555
C22_3 C17_3 1_555 1_555
H19_3 C22_3 1_555 1_555
C23_3 C21_3 1_555 1_555
C24_3 C23_3 1_555 1_555
H20_3 C24_3 1_555 1_555
C25_3 C24_3 1_555 1_555
H21_3 C25_3 1_555 1_555
C26_3 C25_3 1_555 1_555
C28_3 C23_3 1_555 1_555
H23_3 C28_3 1_555 1_555
C29_3 O16_3 1_555 1_555
H24_3 C29_3 1_555 1_555
O50 C29_3 1_555 1_555
Y20 O35_2 1_555 1_555
O22_3 Y12 1_555 1_555
H27_3 O22_3 1_555 1_555
O23_3 Y20 1_555 1_555
O27_3 Y14_2 1_555 1_555
C37_3 O23_3 1_555 1_555
C40_3 C37_3 1_555 1_555
C41_3 C40_3 1_555 1_555
H32_3 C41_3 1_555 1_555
C42_3 C41_3 1_555 1_555
H33_3 C42_3 1_555 1_555
C45_3 C40_3 1_555 1_555
H35_3 C45_3 1_555 1_555
O32_3 Y12 1_555 1_555
H43_3 O32_3 1_555 1_555
H44_3 O32_3 1_555 1_555
Y18_2 O13_2 1_555 1_555
O36_2 Y10 1_555 1_555
O47_2 Y20 1_555 1_555
O49_2 Y14_2 1_555 1_555
Y14_2 O22_3 1_555 1_555
O10_3 C9_3 1_555 1_555
C2_3 C9_3 1_555 1_555
C4_3 C8_3 1_555 1_555
C5_3 C6_3 1_555 1_555
C18_3 C19_3 1_555 1_555
C21_3 C22_3 1_555 1_555
Y20 O22_3 1_555 1_555
O27_3 C37_3 1_555 1_555
Y18_2 O36_2 1_555 1_555
Y18_2 O39_2 1_555 1_555
H31_2 O31_3 1_555 1_555
H12_2 O17_3 1_555 1_555
C30_3 O18_3 1_555 1_555
H25_3 C30_3 1_555 1_555
O51 C30_3 1_555 1_555
O17_3 H45_2 1_555 1_555
Y4_2 O37 1_555 1_555
O39 Y4_2 1_555 1_555
H4_3 O39 1_555 1_555
O41 Y4_2 1_555 1_555
H6_3 O41 1_555 1_555
O7_3 Y4_2 1_555 1_555
O11_3 C7_3 1_555 1_555
C7_3 O7_3 1_555 1_555
C10_3 C7_3 1_555 1_555
C11_3 C10_3 1_555 1_555
H13_3 C11_3 1_555 1_555
C12_3 C11_3 1_555 1_555
H14_3 C12_3 1_555 1_555
C15_3 C10_3 1_555 1_555
H16_3 C15_3 1_555 1_555
O21_2 Y4_2 1_555 1_555
H26_3 O21_2 1_555 1_555
O44 C39_3 1_555 1_555
O26_3 Y17 1_555 1_555
O45 C38_3 1_555 1_555
O29_2 C38_3 1_555 1_555
C31_3 H28_3 1_555 1_555
C32_3 C31_3 1_555 1_555
C33_3 C32_3 1_555 1_555
H29_3 C33_3 1_555 1_555
C34_3 C33_3 1_555 1_555
C35_3 C34_3 1_555 1_555
H30_3 C35_3 1_555 1_555
C36_3 C31_3 1_555 1_555
C38_3 C34_3 1_555 1_555
C39_3 O26_3 1_555 1_555
C44_3 C43_3 1_555 1_555
H34_3 C44_3 1_555 1_555
C47_3 C43_3 1_555 1_555
C48_3 C47_3 1_555 1_555
H36_3 C48_3 1_555 1_555
C49_3 C36_3 1_555 1_555
C50_3 C49_3 1_555 1_555
H37_3 C50_3 1_555 1_555
C51_3 C50_3 1_555 1_555
C52_3 C47_3 1_555 1_555
H38_3 C52_3 1_555 1_555
C53_3 C51_3 1_555 1_555
C54_3 C53_3 1_555 1_555
H39_3 C54_3 1_555 1_555
C55_3 C54_3 1_555 1_555
H40_3 C55_3 1_555 1_555
C56_3 C55_3 1_555 1_555
C58_3 C53_3 1_555 1_555
H42_3 C58_3 1_555 1_555
Y20_2 O29_2 1_555 1_555
O46_2 Y4_2 1_555 1_555
O48_2 Y17 1_555 1_555
O11_3 Y17 1_555 1_555
Y17 O21_2 1_555 1_555
O21_2 Y11 1_555 1_555
C32_3 C39_3 1_555 1_555
C35_3 C36_3 1_555 1_555
C48_3 C49_3 1_555 1_555
C51_3 C52_3 1_555 1_555
O43 C46_3 1_555 1_555
O30_2 C46_3 1_555 1_555
H41_3 C57_3 1_555 1_555
H4_4 O39_2 1_555 1_555
O7_4 Y18_2 1_555 1_555
C7_4 O7_4 1_555 1_555
O18_4 Y18_2 1_555 1_555
C10_4 C7_4 1_555 1_555
C11_4 C10_4 1_555 1_555
H13_4 C11_4 1_555 1_555
C12_4 C11_4 1_555 1_555
H14_4 C12_4 1_555 1_555
C15_4 C10_4 1_555 1_555
H16_4 C15_4 1_555 1_555
C30_4 O18_4 1_555 1_555
H25_4 C30_4 1_555 1_555
O51_2 C30_4 1_555 1_555
H26_4 O36_2 1_555 1_555
O8_2 C16_4 1_555 1_555
O48_2 C16_4 1_555 1_555
C14_4 C13_4 1_555 1_555
H15_4 C14_4 1_555 1_555
C16_4 C26_4 1_555 1_555
C17_4 C13_4 1_555 1_555
C18_4 C17_4 1_555 1_555
H17_4 C18_4 1_555 1_555
C19_4 C6_4 1_555 1_555
C20_4 C19_4 1_555 1_555
H18_4 C20_4 1_555 1_555
C21_4 C20_4 1_555 1_555
C22_4 C17_4 1_555 1_555
H19_4 C22_4 1_555 1_555
C23_4 C21_4 1_555 1_555
C24_4 C23_4 1_555 1_555
H20_4 C24_4 1_555 1_555
C25_4 C24_4 1_555 1_555
H21_4 C25_4 1_555 1_555
C26_4 C25_4 1_555 1_555
C27_4 C26_4 1_555 1_555
H22_4 C27_4 1_555 1_555
C28_4 C23_4 1_555 1_555
H23_4 C28_4 1_555 1_555
C29_4 O16_4 1_555 1_555
H24_4 C29_4 1_555 1_555
O50_2 C29_4 1_555 1_555
Y11 O8_2 1_555 1_555
C18_4 C19_4 1_555 1_555
C21_4 C22_4 1_555 1_555
C27_4 C28_4 1_555 1_555
O34 H1_4 1_555 1_555
O40_2 Y14 1_555 1_555
H5_4 O40_2 1_555 1_555
O9_4 Y12_2 1_555 1_555
O10_4 Y14 1_555 1_555
O12_4 Y11 1_555 1_555
O46_2 C8_4 1_555 1_555
O15_4 Y12_2 1_555 1_555
H7_4 O15_4 1_555 1_555
H8_4 O15_4 1_555 1_555
C1_4 H9_4 1_555 1_555
C2_4 C1_4 1_555 1_555
C3_4 C2_4 1_555 1_555
H10_4 C3_4 1_555 1_555
C4_4 C3_4 1_555 1_555
C5_4 C4_4 1_555 1_555
C8_4 O12_4 1_555 1_555
C9_4 O9_4 1_555 1_555
O22_4 Y12_2 1_555 1_555
H27_4 O22_4 1_555 1_555
O27_4 Y14 1_555 1_555
O32_4 Y12_2 1_555 1_555
H43_4 O32_4 1_555 1_555
H44_4 O32_4 1_555 1_555
Y14 O22_4 1_555 1_555
O10_4 C9_4 1_555 1_555
C2_4 C9_4 1_555 1_555
C4_4 C8_4 1_555 1_555
O37_2 H3_4 1_555 1_555
H6_4 O41_2 1_555 1_555
O44_2 C39_4 1_555 1_555
O26_4 Y17_2 1_555 1_555
O45_2 C38_4 1_555 1_555
O47_2 C38_4 1_555 1_555
C31_4 H28_4 1_555 1_555
C32_4 C31_4 1_555 1_555
C33_4 C32_4 1_555 1_555
H29_4 C33_4 1_555 1_555
C34_4 C33_4 1_555 1_555
C35_4 C34_4 1_555 1_555
C38_4 C34_4 1_555 1_555
C39_4 O26_4 1_555 1_555
O11_4 Y17_2 1_555 1_555
C32_4 C39_4 1_555 1_555
O43_2 C46_4 1_555 1_555
O49_2 C46_4 1_555 1_555
C44_4 C43_4 1_555 1_555
H34_4 C44_4 1_555 1_555
C46_4 C56_4 1_555 1_555
C47_4 C43_4 1_555 1_555
C48_4 C47_4 1_555 1_555
H36_4 C48_4 1_555 1_555
C49_4 C36_4 1_555 1_555
C50_4 C49_4 1_555 1_555
H37_4 C50_4 1_555 1_555
C51_4 C50_4 1_555 1_555
C52_4 C47_4 1_555 1_555
H38_4 C52_4 1_555 1_555
C53_4 C51_4 1_555 1_555
C54_4 C53_4 1_555 1_555
H39_4 C54_4 1_555 1_555
C55_4 C54_4 1_555 1_555
H40_4 C55_4 1_555 1_555
C56_4 C55_4 1_555 1_555
C57_4 C56_4 1_555 1_555
H41_4 C57_4 1_555 1_555
C58_4 C53_4 1_555 1_555
H42_4 C58_4 1_555 1_555
C48_4 C49_4 1_555 1_555
C51_4 C52_4 1_555 1_555
C57_4 C58_4 1_555 1_555
O35 H2_4 1_555 1_555
Y20_2 O35 1_555 1_555
O23_4 Y20_2 1_555 1_555
C37_4 O23_4 1_555 1_555
C40_4 C37_4 1_555 1_555
C41_4 C40_4 1_555 1_555
H32_4 C41_4 1_555 1_555
C42_4 C41_4 1_555 1_555
H33_4 C42_4 1_555 1_555
C45_4 C40_4 1_555 1_555
H35_4 C45_4 1_555 1_555
O31 H45_3 1_555 1_555
O31_3 H45_4 1_555 1_555

#END
