
###############################################################################
#
# This file contains modified crystal structure data generated from the
# MOF subset of the Cambridge Structural Database (CSD) v543 
# hosted by the Cambridge Crystallographic Data Centre (CCDC).
#
# This work is licensed under the Creative Commons
# Attribution-NonCommercial-ShareAlike 4.0 International License.
# To view a copy of this license, visit
# http://creativecommons.org/licenses/by-nc-sa/4.0/
# or send a letter to
# Creative Commons, PO Box 1866, Mountain View, CA 94042, USA.
#
# CIF created using the CSD Python API on 29 September 2022
# The structure has been converted into the P1 space group
# The structure has a 3D framework
# The original CSD entry UYOCIX is in the tetragonal crystal system
# The original CSD entry UYOCIX is in a Sohncke space group
# The framework has been calculated to contain at least 10.0% void space
# The void calculation uses a probe of radius 1.32A, grid spacing 0.4
# H atom positions have been added when not included in the experimental data
# Generated hydrogen atom positions removed from atoms on special positions
#
###############################################################################

data_UYOCIX
_chemical_formula_moiety         '(C272 H240 N16 O128 Zr26)n'
_symmetry_cell_setting           triclinic
_symmetry_space_group_name_H-M   'P 1'
_symmetry_Int_Tables_number      1
_space_group_name_Hall           'P 1'
loop_
_symmetry_equiv_pos_site_id
_symmetry_equiv_pos_as_xyz
1 x,y,z
_cell_length_a                   15.9417(8)
_cell_length_b                   15.9417(8)
_cell_length_c                   60.406(3)
_cell_angle_alpha                90
_cell_angle_beta                 90
_cell_angle_gamma                90
_cell_volume                     15351.4
loop_
_atom_site_label
_atom_site_type_symbol
_atom_site_fract_x
_atom_site_fract_y
_atom_site_fract_z
C57 C 0.5524(5) 0.0652(4) 0.16467(10)
H30 H 0.587720 0.105572 0.158651
C58 C 0.5298(5) 0.0672(5) 0.18732(10)
C59 C 0.4783(6) 0.0061(5) 0.19565(10)
H31 H 0.464809 0.007219 0.210631
C61 C 0.5677(5) 0.1288(4) 0.20251(10)
C65 C 0.3583(5) 0.0290(4) 0.07694(10)
C66 C 0.3294(5) 0.0372(4) 0.09783(10)
H35 H 0.289353 0.077802 0.101027
C68 C 0.3257(5) 0.0818(4) 0.05787(10)
O21 O 0.5560(3) 0.1204(3) 0.22279(7)
O22 O 0.5984(2) 0.1912(3) 0.19450(7)
O23 O 0.2876(3) 0.1431(3) 0.06277(7)
O24 O 0.3451(3) 0.0567(3) 0.03853(6)
Zr7 Zr 0.69866(4) 0.27928(3) 0.20943(2)
Zr11 Zr 0.19866(4) 0.22072(3) 0.04057(2)
Zr17 Zr 0.31964(4) 0.09915(4) 0.00425(2)
Zr18 Zr 0.59915(4) 0.18036(4) 0.25425(2)
C1 C 0.5776(4) 0.4309(5) 0.30344(10)
C2 C 0.5253(4) 0.4732(5) 0.32036(10)
C3 C 0.4670(5) 0.5347(5) 0.31480(11)
H1 H 0.463290 0.553235 0.300230
C4 C 0.4150(5) 0.5683(5) 0.33061(10)
H2 H 0.375510 0.608253 0.326447
C5 C 0.4198(4) 0.5446(5) 0.35226(10)
C6 C 0.4806(5) 0.4868(5) 0.35868(10)
H3 H 0.485292 0.471430 0.373474
C7 C 0.5343(5) 0.4521(5) 0.34309(10)
H4 H 0.576174 0.415093 0.347519
C8 C 0.4379(4) 0.6002(5) 0.40235(10)
C9 C 0.5014(4) 0.6501(6) 0.39514(10)
H5 H 0.502047 0.667553 0.380456
C10 C 0.5650(4) 0.6753(5) 0.40911(10)
H6 H 0.607413 0.710383 0.404022
C11 C 0.5646(4) 0.6472(4) 0.43113(10)
C12 C 0.4997(5) 0.5978(5) 0.43864(11)
H7 H 0.497730 0.582026 0.453457
C13 C 0.4388(5) 0.5720(5) 0.42462(11)
H8 H 0.397314 0.535504 0.429592
C14 C 0.6298(4) 0.6791(5) 0.44764(10)
C15 C 0.3593(4) 0.5847(5) 0.38944(10)
C16 C 0.2804(4) 0.5807(5) 0.39843(10)
H9 H 0.265937 0.583093 0.413337
C17 C 0.2260(4) 0.5723(5) 0.38022(10)
C18 C 0.2723(4) 0.5651(5) 0.36143(10)
C19 C 0.2175(5) 0.5517(5) 0.34330(10)
H10 H 0.232436 0.545644 0.328505
C20 C 0.1381(4) 0.5496(5) 0.35198(10)
C21 C 0.0612(4) 0.5308(5) 0.34006(10)
C22 C 0.0004(4) 0.4807(5) 0.34853(10)
H11 H 0.001830 0.467599 0.363525
C26 C 0.0566(5) 0.5542(5) 0.31735(11)
H14 H 0.095732 0.591108 0.311386
C28 C 0.0771(4) 0.5854(5) 0.39001(10)
C29 C 0.0849(5) 0.5556(5) 0.41154(10)
H15 H 0.125579 0.515631 0.414826
C30 C 0.0338(5) 0.5843(6) 0.42776(11)
H16 H 0.040848 0.565239 0.442197
C33 C 0.0157(4) 0.6404(5) 0.38503(10)
H18 H 0.007994 0.658332 0.370518
N1 N 0.3572(3) 0.5721(4) 0.36688(8)
N2 N 0.1418(4) 0.5647(4) 0.37460(8)
O1 O 0.5563(3) 0.4457(3) 0.28364(7)
O2 O 0.6412(3) 0.3995(3) 0.30894(7)
O3 O 0.6884(3) 0.7147(2) 0.44040(6)
O4 O 0.6188(3) 0.6564(3) 0.46748(7)
O9 O 0.9562(3) 0.3932(4) 0.24108(8)
O10 O 0.7147(3) 0.4244(3) 0.26962(6)
O11 O 0.4601(3) 0.3945(4) 0.25063(7)
O12 O 0.8079(2) 0.2948(3) 0.26567(6)
O13 O 0.7042(3) 0.3781(3) 0.23060(6)
O14 O 0.8307(3) 0.2859(3) 0.22518(6)
O15 O 0.8148(4) 0.5411(3) 0.24545(8)
O16 O 0.9564(3) 0.1841(5) 0.24510(8)
Zr1 Zr 0.59872(4) 0.40128(4) 0.250000
Zr3 Zr 0.82040(4) 0.17960(4) 0.250000
Zr4 Zr 0.81964(4) 0.40085(4) 0.24575(2)
C35 C 0.5691(5) 0.4224(4) 0.19656(10)
C36 C 0.5268(5) 0.4747(4) 0.17964(10)
C37 C 0.4653(5) 0.5330(5) 0.18520(11)
H19 H 0.446765 0.536710 0.199770
C38 C 0.4317(5) 0.5850(5) 0.16939(10)
H20 H 0.391747 0.624490 0.173553
C39 C 0.4554(5) 0.5802(4) 0.14774(10)
C40 C 0.5132(5) 0.5194(5) 0.14132(10)
H21 H 0.528570 0.514708 0.126526
C41 C 0.5479(5) 0.4657(5) 0.15691(10)
H22 H 0.584907 0.423826 0.152481
C42 C 0.3998(5) 0.5621(4) 0.09765(10)
C43 C 0.3499(6) 0.4986(4) 0.10486(10)
H23 H 0.332447 0.497953 0.119544
C44 C 0.3247(5) 0.4350(4) 0.09089(10)
H24 H 0.289617 0.392587 0.095978
C45 C 0.3528(4) 0.4354(4) 0.06887(10)
C46 C 0.4022(5) 0.5003(5) 0.06136(11)
H25 H 0.417974 0.502270 0.046543
C47 C 0.4280(5) 0.5612(5) 0.07538(11)
H26 H 0.464496 0.602686 0.070408
C48 C 0.3209(5) 0.3702(4) 0.05236(10)
C49 C 0.4153(5) 0.6407(4) 0.11056(10)
C50 C 0.4193(5) 0.7196(4) 0.10157(10)
H27 H 0.416907 0.734063 0.086663
C51 C 0.4277(5) 0.7740(4) 0.11978(10)
C52 C 0.4349(5) 0.7277(4) 0.13857(10)
C53 C 0.4483(5) 0.7825(5) 0.15670(10)
H28 H 0.454356 0.767564 0.171495
C54 C 0.4504(5) 0.8619(4) 0.14802(10)
C55 C 0.4692(5) 0.9388(4) 0.15994(10)
C56 C 0.5193(5) 0.9996(4) 0.15147(10)
H29 H 0.532401 0.998170 0.136475
C60 C 0.4458(5) 0.9434(5) 0.18265(11)
H32 H 0.408892 0.904268 0.188614
C62 C 0.4146(5) 0.9229(4) 0.10999(10)
C63 C 0.4444(5) 0.9151(5) 0.08846(10)
H33 H 0.484369 0.874421 0.085174
C64 C 0.4157(6) 0.9662(5) 0.07224(11)
H34 H 0.434761 0.959152 0.057803
C67 C 0.3596(5) 0.9843(4) 0.11497(10)
H36 H 0.341668 0.992006 0.129482
N3 N 0.4279(4) 0.6428(3) 0.13312(8)
N4 N 0.4353(4) 0.8582(4) 0.12540(8)
O17 O 0.5543(3) 0.4437(3) 0.21636(7)
O18 O 0.6005(3) 0.3588(3) 0.19106(7)
O19 O 0.2853(2) 0.3116(3) 0.05960(6)
O20 O 0.3436(3) 0.3812(3) 0.03252(7)
O25 O 0.6068(4) 0.0438(3) 0.25892(8)
O26 O 0.5756(3) 0.2853(3) 0.23038(6)
O27 O 0.6055(4) 0.5399(3) 0.24937(7)
O28 O 0.7052(3) 0.1921(2) 0.23433(6)
O29 O 0.6219(3) 0.2958(3) 0.26940(6)
O30 O 0.7141(3) 0.1693(3) 0.27482(6)
O31 O 0.4589(3) 0.1852(4) 0.25455(8)
O32 O 0.8159(5) 0.0436(3) 0.25490(8)
Zr5 Zr 0.72072(3) 0.30134(4) 0.29057(2)
O33 O 0.7853(2) 0.1884(3) 0.19040(6)
O34 O 0.8116(3) 0.2147(2) 0.30960(6)
O35 O 0.8436(3) 0.1188(3) 0.21748(7)
O36 O 0.8812(3) 0.1564(3) 0.28252(7)
O37 O 0.8796(3) 0.4440(3) 0.27721(7)
O39 O 0.8088(3) 0.4016(2) 0.30550(7)
O41 O 0.7876(3) 0.3569(3) 0.18723(7)
O42 O 0.6431(3) 0.2124(3) 0.31277(7)
O43 O 0.8451(3) 0.4433(3) 0.21147(6)
O44 O 0.5567(3) 0.1549(3) 0.28853(6)
Zr9 Zr 0.77928(3) 0.80134(4) 0.45943(2)
Zr13 Zr 0.32040(4) 0.32040(4) 0.000000
Zr14 Zr 0.67960(4) 0.67960(4) 0.500000
H37 H 0.979495 0.348916 0.25087
H38 H 0.968688 0.379214 0.225404
H39 H 0.836614 0.562188 0.231093
H40 H 0.755884 0.559903 0.247413
H45 H 0.437812 0.163386 0.268907
H46 H 0.440097 0.244116 0.252587
H51 H 0.651084 0.0205046 0.24913
H52 H 0.620786 0.0313116 0.274596
Zr13_2 Zr 0.32040(4) 0.32040(4) 1.000000
C23 C 0.9348(4) 0.4476(5) 0.33533(10)
H12 H 0.894428 0.412280 0.341349
C24 C 0.9328(5) 0.4702(5) 0.31268(10)
C25 C 0.9939(5) 0.5217(6) 0.30435(10)
H13 H 0.992781 0.535191 0.289369
C27 C 0.8712(4) 0.4323(5) 0.29749(10)
C31 C 0.9710(4) 0.6417(5) 0.42306(10)
C32 C 0.9628(4) 0.6706(5) 0.40217(10)
H17 H 0.922198 0.710647 0.398973
C34 C 0.9182(4) 0.6743(5) 0.44213(10)
O7 O 0.8569(3) 0.7124(3) 0.43723(7)
O8 O 0.9433(3) 0.6549(3) 0.46147(6)
Zr16 Zr 0.90085(4) 0.68036(4) 0.49575(2)
C1_2 C 0.0691(5) 0.0776(4) 0.05344(10)
C2_2 C 0.0268(5) 0.0253(4) 0.07036(10)
C7_2 C 0.0479(5) 0.0343(5) 0.09309(10)
H4_2 H 0.084907 0.076174 0.097519
O1_2 O 0.0543(3) 0.0563(3) 0.03364(7)
O2_2 O 0.1005(3) 0.1412(3) 0.05894(7)
O10_2 O 0.0756(3) 0.2147(3) 0.01962(6)
O12_2 O 0.2052(3) 0.3079(2) 0.01567(6)
Zr1_2 Zr 0.09872(4) 0.09872(4) -0.000000
O25_2 O 0.4562(3) 0.1068(4) 0.00892(8)
O29_2 O 0.2042(3) 0.1219(3) 0.01940(6)
O30_2 O 0.3307(3) 0.2141(3) 0.02482(6)
O32_2 O 0.4564(3) 0.3159(5) 0.00490(8)
O37_2 O 0.0560(3) 0.3796(3) 0.02721(7)
O39_2 O 0.0984(2) 0.3088(3) 0.05550(7)
H37_2 H 0.151084 0.479495 0.000870446
H41 H 0.311393 0.484764 0.00968717
H49 H 0.472707 0.259361 0.010292
H52_2 H 0.468688 0.120786 0.0245963
O9_2 O 0.1068(4) 0.4562(3) 0.99108(8)
O13_2 O 0.1219(3) 0.2042(3) 0.98060(6)
O14_2 O 0.2141(3) 0.3307(3) 0.97518(6)
O16_2 O 0.3159(5) 0.4564(3) 0.99510(8)
Zr1_3 Zr 0.09872(4) 0.09872(4) 1.000000
Zr2 Zr 0.22072(3) 0.19866(4) 0.95943(2)
Zr4_2 Zr 0.09915(4) 0.31964(4) 0.99575(2)
C35_2 C 0.0776(4) 0.0691(5) 0.94656(10)
C36_2 C 0.0253(4) 0.0268(5) 0.92964(10)
C41_2 C 0.0343(5) 0.0479(5) 0.90691(10)
H22_2 H 0.076174 0.084907 0.902481
O17_2 O 0.0563(3) 0.0543(3) 0.96636(7)
O18_2 O 0.1412(3) 0.1005(3) 0.94106(7)
O26_2 O 0.2147(3) 0.0756(3) 0.98038(6)
O28_2 O 0.3079(2) 0.2052(3) 0.98433(6)
O33_2 O 0.3116(3) 0.2853(2) 0.94040(6)
O35_2 O 0.3812(3) 0.3436(3) 0.96748(7)
O38 O 0.3796(3) 0.0560(3) 0.97279(7)
O40 O 0.3088(3) 0.0984(2) 0.94450(7)
O41_2 O 0.1431(3) 0.2876(3) 0.93723(7)
O43_2 O 0.0567(3) 0.3451(3) 0.96147(6)
H38_2 H 0.120786 0.468688 0.975404
H42 H 0.367857 0.475156 0.987503
H50 H 0.485128 0.327536 0.990641
H51_2 H 0.479495 0.151084 0.99913
C6_2 C 0.0132(5) 0.9806(5) 0.10868(10)
H3_2 H 0.028570 0.985292 0.123474
C22_2 C 0.0193(5) 0.5004(4) 0.09853(10)
H11_2 H 0.032401 0.501830 0.113525
C23_2 C 0.0524(5) 0.4348(4) 0.08533(10)
H12_2 H 0.087720 0.394428 0.091349
C24_2 C 0.0298(5) 0.4328(5) 0.06268(10)
C27_2 C 0.0677(5) 0.3712(4) 0.04749(10)
O11_2 O 0.1055(4) 0.9601(3) 0.00063(7)
O31_2 O 0.3148(4) 0.9589(3) 0.00455(8)
H43 H 0.0487185 0.936711 0.00338293
H45_2 H 0.336614 0.937812 0.0189069
H46_2 H 0.255884 0.940097 0.00258679
C43_2 C 0.0014(4) 0.8499(6) 0.85486(10)
H23_2 H 0.002047 0.832447 0.869544
C44_2 C 0.0650(4) 0.8247(5) 0.84089(10)
H24_2 H 0.107413 0.789617 0.845978
C45_2 C 0.0646(4) 0.8528(4) 0.81887(10)
C48_2 C 0.1298(4) 0.8209(5) 0.80236(10)
O19_2 O 0.1884(3) 0.7853(2) 0.80960(6)
O20_2 O 0.1188(3) 0.8436(3) 0.78252(7)
Zr10 Zr 0.27928(3) 0.69866(4) 0.79057(2)
Zr13_3 Zr 0.17960(4) 0.82040(4) 0.750000
H44 H 0.126739 0.939404 0.986174
C9_2 C 0.8499(6) 0.0014(4) 0.14514(10)
H5_2 H 0.832447 0.002047 0.130456
C10_2 C 0.8247(5) 0.0650(4) 0.15911(10)
H6_2 H 0.789617 0.107413 0.154022
C11_2 C 0.8528(4) 0.0646(4) 0.18113(10)
C14_2 C 0.8209(5) 0.1298(4) 0.19764(10)
H47 H 0.940478 0.144909 0.0109996
O15_2 O 0.9589(3) 0.3148(4) 0.99545(8)
C40_2 C 0.9806(5) 0.0132(5) 0.89132(10)
H21_2 H 0.985292 0.028570 0.876526
C56_2 C 0.5004(4) 0.0193(5) 0.90147(10)
H29_2 H 0.501830 0.032401 0.886475
C57_2 C 0.4348(4) 0.0524(5) 0.91467(10)
H30_2 H 0.394428 0.087720 0.908651
C58_2 C 0.4328(5) 0.0298(5) 0.93732(10)
C61_2 C 0.3712(4) 0.0677(5) 0.95251(10)
O27_2 O 0.9601(3) 0.1055(4) 0.99937(7)
H39_2 H 0.937812 0.336614 0.981093
H40_2 H 0.940097 0.255884 0.997413
H48 H 0.941259 0.125721 0.984638
C3_2 C 0.9653(5) 0.9670(5) 0.06480(11)
H1_2 H 0.946765 0.963290 0.050230
C4_2 C 0.9317(5) 0.9150(5) 0.08061(10)
H2_2 H 0.891747 0.875510 0.076447
C5_2 C 0.9554(5) 0.9198(4) 0.10226(10)
C8_2 C 0.8998(5) 0.9379(4) 0.15235(10)
C12_2 C 0.9022(5) 0.9997(5) 0.18864(11)
H7_2 H 0.917974 0.997730 0.203457
C13_2 C 0.9280(5) 0.9388(5) 0.17462(11)
H8_2 H 0.964496 0.897314 0.179592
C15_2 C 0.9153(5) 0.8593(4) 0.13944(10)
C16_2 C 0.9193(5) 0.7804(4) 0.14843(10)
H9_2 H 0.916907 0.765937 0.163337
C17_2 C 0.9277(5) 0.7260(4) 0.13022(10)
C18_2 C 0.9349(5) 0.7723(4) 0.11143(10)
C19_2 C 0.9483(5) 0.7175(5) 0.09330(10)
H10_2 H 0.954356 0.732436 0.078505
C20_2 C 0.9504(5) 0.6381(4) 0.10198(10)
C21_2 C 0.9692(5) 0.5612(4) 0.09006(10)
C25_2 C 0.9783(6) 0.4939(5) 0.05435(10)
H13_2 H 0.964809 0.492781 0.039369
C26_2 C 0.9458(5) 0.5566(5) 0.06735(11)
H14_2 H 0.908892 0.595732 0.061386
C28_2 C 0.9146(5) 0.5771(4) 0.14001(10)
C29_2 C 0.9444(5) 0.5849(5) 0.16154(10)
H15_2 H 0.984369 0.625579 0.164826
C30_2 C 0.9157(6) 0.5338(5) 0.17776(11)
H16_2 H 0.934761 0.540848 0.192197
C31_2 C 0.8583(5) 0.4710(4) 0.17306(10)
C32_2 C 0.8294(5) 0.4628(4) 0.15217(10)
H17_2 H 0.789353 0.422198 0.148973
C33_2 C 0.8596(5) 0.5157(4) 0.13503(10)
H18_2 H 0.841668 0.507994 0.120518
C34_2 C 0.8257(5) 0.4182(4) 0.19213(10)
N1_2 N 0.9279(4) 0.8572(3) 0.11688(8)
N2_2 N 0.9353(4) 0.6418(4) 0.12460(8)
C37_2 C 0.9670(5) 0.9653(5) 0.93520(11)
H19_2 H 0.963290 0.946765 0.949770
C38_2 C 0.9150(5) 0.9317(5) 0.91939(10)
H20_2 H 0.875510 0.891747 0.923553
C39_2 C 0.9198(4) 0.9554(5) 0.89774(10)
C42_2 C 0.9379(4) 0.8998(5) 0.84765(10)
C46_2 C 0.9997(5) 0.9022(5) 0.81136(11)
H25_2 H 0.997730 0.917974 0.796543
C47_2 C 0.9388(5) 0.9280(5) 0.82538(11)
H26_2 H 0.897314 0.964496 0.820408
C49_2 C 0.8593(4) 0.9153(5) 0.86056(10)
C50_2 C 0.7804(4) 0.9193(5) 0.85157(10)
H27_2 H 0.765937 0.916907 0.836663
C51_2 C 0.7260(4) 0.9277(5) 0.86978(10)
C52_2 C 0.7723(4) 0.9349(5) 0.88857(10)
C53_2 C 0.7175(5) 0.9483(5) 0.90670(10)
H28_2 H 0.732436 0.954356 0.921495
C54_2 C 0.6381(4) 0.9504(5) 0.89802(10)
C55_2 C 0.5612(4) 0.9692(5) 0.90994(10)
C59_2 C 0.4939(5) 0.9783(6) 0.94565(10)
H31_2 H 0.492781 0.964809 0.960631
C60_2 C 0.5566(5) 0.9458(5) 0.93265(11)
H32_2 H 0.595732 0.908892 0.938614
C62_2 C 0.5771(4) 0.9146(5) 0.85999(10)
C63_2 C 0.5849(5) 0.9444(5) 0.83846(10)
H33_2 H 0.625579 0.984369 0.835174
C64_2 C 0.5338(5) 0.9157(6) 0.82224(11)
H34_2 H 0.540848 0.934761 0.807803
C65_2 C 0.4710(4) 0.8583(5) 0.82694(10)
C66_2 C 0.4628(4) 0.8294(5) 0.84783(10)
H35_2 H 0.422198 0.789353 0.851027
C67_2 C 0.5157(4) 0.8596(5) 0.86497(10)
H36_2 H 0.507994 0.841668 0.879482
C68_2 C 0.4182(4) 0.8257(5) 0.80787(10)
N3_2 N 0.8572(3) 0.9279(4) 0.88312(8)
N4_2 N 0.6418(4) 0.9353(4) 0.87540(8)
O23_2 O 0.3569(3) 0.7876(3) 0.81277(7)
O24_2 O 0.4433(3) 0.8451(3) 0.78853(6)
Zr17_2 Zr 0.40085(4) 0.81964(4) 0.75425(2)
C23_3 C 0.0652(4) 0.5524(5) 0.83533(10)
H12_3 H 0.105572 0.587720 0.841349
C24_3 C 0.0672(5) 0.5298(5) 0.81268(10)
C25_3 C 0.0061(5) 0.4783(6) 0.80435(10)
H13_3 H 0.007219 0.464809 0.789369
C27_3 C 0.1288(4) 0.5677(5) 0.79749(10)
C31_3 C 0.0290(4) 0.3583(5) 0.92306(10)
C32_3 C 0.0372(4) 0.3294(5) 0.90217(10)
H17_3 H 0.077802 0.289353 0.898973
C34_3 C 0.0818(4) 0.3257(5) 0.94213(10)
O5 O 0.1204(3) 0.5560(3) 0.77721(7)
O6 O 0.1912(3) 0.5984(2) 0.80550(7)
Zr15 Zr 0.18036(4) 0.59915(4) 0.74575(2)
C1_3 C 0.4224(4) 0.5691(5) 0.80344(10)
C2_3 C 0.4747(4) 0.5268(5) 0.82036(10)
C3_3 C 0.5330(5) 0.4653(5) 0.81480(11)
H1_3 H 0.536710 0.446765 0.800230
C4_3 C 0.5850(5) 0.4317(5) 0.83061(10)
H2_3 H 0.624490 0.391747 0.826447
C5_3 C 0.5802(4) 0.4554(5) 0.85226(10)
C6_3 C 0.5194(5) 0.5132(5) 0.85868(10)
H3_3 H 0.514708 0.528570 0.873474
C7_3 C 0.4657(5) 0.5479(5) 0.84309(10)
H4_3 H 0.423826 0.584907 0.847519
C8_3 C 0.5621(4) 0.3998(5) 0.90235(10)
C9_3 C 0.4986(4) 0.3499(6) 0.89514(10)
H5_3 H 0.497953 0.332447 0.880456
C10_3 C 0.4350(4) 0.3247(5) 0.90911(10)
H6_3 H 0.392587 0.289617 0.904022
C11_3 C 0.4354(4) 0.3528(4) 0.93113(10)
C12_3 C 0.5003(5) 0.4022(5) 0.93864(11)
H7_3 H 0.502270 0.417974 0.953457
C13_3 C 0.5612(5) 0.4280(5) 0.92462(11)
H8_3 H 0.602686 0.464496 0.929592
C14_3 C 0.3702(4) 0.3209(5) 0.94764(10)
C15_3 C 0.6407(4) 0.4153(5) 0.88944(10)
C16_3 C 0.7196(4) 0.4193(5) 0.89843(10)
H9_3 H 0.734063 0.416907 0.913337
C17_3 C 0.7740(4) 0.4277(5) 0.88022(10)
C18_3 C 0.7277(4) 0.4349(5) 0.86143(10)
C19_3 C 0.7825(5) 0.4483(5) 0.84330(10)
H10_3 H 0.767564 0.454356 0.828505
C20_3 C 0.8619(4) 0.4504(5) 0.85198(10)
C21_3 C 0.9388(4) 0.4692(5) 0.84006(10)
C22_3 C 0.9996(4) 0.5193(5) 0.84853(10)
H11_3 H 0.998170 0.532401 0.863525
C26_3 C 0.9434(5) 0.4458(5) 0.81735(11)
H14_3 H 0.904268 0.408892 0.811386
C28_3 C 0.9229(4) 0.4146(5) 0.89001(10)
C29_3 C 0.9151(5) 0.4444(5) 0.91154(10)
H15_3 H 0.874421 0.484369 0.914826
C30_3 C 0.9662(5) 0.4157(6) 0.92776(11)
H16_3 H 0.959152 0.434761 0.942197
C33_3 C 0.9843(4) 0.3596(5) 0.88503(10)
H18_3 H 0.992006 0.341668 0.870518
N1_3 N 0.6428(3) 0.4279(4) 0.86688(8)
N2_3 N 0.8582(4) 0.4353(4) 0.87460(8)
O1_3 O 0.4437(3) 0.5543(3) 0.78364(7)
O2_3 O 0.3588(3) 0.6005(3) 0.80894(7)
O9_3 O 0.0438(3) 0.6068(4) 0.74108(8)
O10_3 O 0.2853(3) 0.5756(3) 0.76962(6)
O11_3 O 0.5399(3) 0.6055(4) 0.75063(7)
O12_3 O 0.1921(2) 0.7052(3) 0.76567(6)
O13_3 O 0.2958(3) 0.6219(3) 0.73060(6)
O14_3 O 0.1693(3) 0.7141(3) 0.72518(6)
O15_3 O 0.1852(4) 0.4589(3) 0.74545(8)
O16_3 O 0.0436(3) 0.8159(5) 0.74510(8)
Zr1_4 Zr 0.40128(4) 0.59872(4) 0.750000
Zr2_2 Zr 0.30134(4) 0.72072(3) 0.70943(2)
C35_3 C 0.4309(5) 0.5776(4) 0.69656(10)
C36_3 C 0.4732(5) 0.5253(4) 0.67964(10)
C37_3 C 0.5347(5) 0.4670(5) 0.68520(11)
H19_3 H 0.553235 0.463290 0.699770
C38_3 C 0.5683(5) 0.4150(5) 0.66939(10)
H20_3 H 0.608253 0.375510 0.673553
C39_3 C 0.5446(5) 0.4198(4) 0.64774(10)
C40_3 C 0.4868(5) 0.4806(5) 0.64132(10)
H21_3 H 0.471430 0.485292 0.626526
C41_3 C 0.4521(5) 0.5343(5) 0.65691(10)
H22_3 H 0.415093 0.576174 0.652481
C42_3 C 0.6002(5) 0.4379(4) 0.59765(10)
C43_3 C 0.6501(6) 0.5014(4) 0.60486(10)
H23_3 H 0.667553 0.502047 0.619544
C44_3 C 0.6753(5) 0.5650(4) 0.59089(10)
H24_3 H 0.710383 0.607413 0.595978
C45_3 C 0.6472(4) 0.5646(4) 0.56887(10)
C46_3 C 0.5978(5) 0.4997(5) 0.56136(11)
H25_3 H 0.582026 0.497730 0.546543
C47_3 C 0.5720(5) 0.4388(5) 0.57538(11)
H26_3 H 0.535504 0.397314 0.570408
C48_3 C 0.6791(5) 0.6298(4) 0.55236(10)
C49_3 C 0.5847(5) 0.3593(4) 0.61056(10)
C50_3 C 0.5807(5) 0.2804(4) 0.60157(10)
H27_3 H 0.583093 0.265937 0.586663
C51_3 C 0.5723(5) 0.2260(4) 0.61978(10)
C52_3 C 0.5651(5) 0.2723(4) 0.63857(10)
C53_3 C 0.5517(5) 0.2175(5) 0.65670(10)
H28_3 H 0.545644 0.232436 0.671495
C54_3 C 0.5496(5) 0.1381(4) 0.64802(10)
C55_3 C 0.5308(5) 0.0612(4) 0.65994(10)
C56_3 C 0.4807(5) 0.0004(4) 0.65147(10)
H29_3 H 0.467599 0.001830 0.636475
C60_3 C 0.5542(5) 0.0566(5) 0.68265(11)
H32_3 H 0.591108 0.095732 0.688614
C62_3 C 0.5854(5) 0.0771(4) 0.60999(10)
C63_3 C 0.5556(5) 0.0849(5) 0.58846(10)
H33_3 H 0.515631 0.125579 0.585174
C64_3 C 0.5843(6) 0.0338(5) 0.57224(11)
H34_3 H 0.565239 0.040848 0.557803
C67_3 C 0.6404(5) 0.0157(4) 0.61497(10)
H36_3 H 0.658332 0.007994 0.629482
N3_3 N 0.5721(4) 0.3572(3) 0.63312(8)
N4_3 N 0.5647(4) 0.1418(4) 0.62540(8)
O17_3 O 0.4457(3) 0.5563(3) 0.71636(7)
O18_3 O 0.3995(3) 0.6412(3) 0.69106(7)
O19_3 O 0.7147(2) 0.6884(3) 0.55960(6)
O20_3 O 0.6564(3) 0.6188(3) 0.53252(7)
O25_3 O 0.3932(4) 0.9562(3) 0.75892(8)
O26_3 O 0.4244(3) 0.7147(3) 0.73038(6)
O27_3 O 0.3945(4) 0.4601(3) 0.74937(7)
O28_3 O 0.2948(3) 0.8079(2) 0.73433(6)
O29_3 O 0.3781(3) 0.7042(3) 0.76940(6)
O30_3 O 0.2859(3) 0.8307(3) 0.77482(6)
O31_3 O 0.5411(3) 0.8148(4) 0.75455(8)
O32_3 O 0.1841(5) 0.9564(3) 0.75490(8)
O33_3 O 0.2147(2) 0.8116(3) 0.69040(6)
O35_3 O 0.1564(3) 0.8812(3) 0.71748(7)
O38_2 O 0.4440(3) 0.8796(3) 0.72279(7)
O40_2 O 0.4016(2) 0.8088(3) 0.69450(7)
O41_3 O 0.2124(3) 0.6431(3) 0.68723(7)
O43_3 O 0.1549(3) 0.5567(3) 0.71147(6)
Zr10_2 Zr 0.80134(4) 0.77928(3) 0.54057(2)
H37_3 H 0.0205046 0.651084 0.75087
H38_3 H 0.0313116 0.620786 0.725404
H39_3 H 0.163386 0.437812 0.731093
H40_3 H 0.244116 0.440097 0.747413
H45_3 H 0.562188 0.836614 0.768907
H46_3 H 0.559903 0.755884 0.752587
H51_3 H 0.348916 0.979495 0.74913
H52_3 H 0.379214 0.968688 0.774596
C57_3 C 0.4476(5) 0.9348(4) 0.66467(10)
H30_3 H 0.412280 0.894428 0.658651
C58_3 C 0.4702(5) 0.9328(5) 0.68732(10)
C59_3 C 0.5217(6) 0.9939(5) 0.69565(10)
H31_3 H 0.535191 0.992781 0.710631
C61_3 C 0.4323(5) 0.8712(4) 0.70251(10)
C65_3 C 0.6417(5) 0.9710(4) 0.57694(10)
C66_3 C 0.6706(5) 0.9628(4) 0.59783(10)
H35_3 H 0.710647 0.922198 0.601027
C68_3 C 0.6743(5) 0.9182(4) 0.55787(10)
O23_3 O 0.7124(3) 0.8569(3) 0.56277(7)
O24_3 O 0.6549(3) 0.9433(3) 0.53853(6)
Zr17_3 Zr 0.68036(4) 0.90085(4) 0.50425(2)
C3_4 C 0.0347(5) 0.0330(5) 0.56480(11)
H1_4 H 0.053235 0.036710 0.550230
C4_4 C 0.0683(5) 0.0850(5) 0.58061(10)
H2_4 H 0.108253 0.124490 0.576447
C5_4 C 0.0446(5) 0.0802(4) 0.60226(10)
C8_4 C 0.1002(5) 0.0621(4) 0.65235(10)
C12_4 C 0.0978(5) 0.0003(5) 0.68864(11)
H7_4 H 0.082026 0.002270 0.703457
C13_4 C 0.0720(5) 0.0612(5) 0.67462(11)
H8_4 H 0.035504 0.102686 0.679592
C15_4 C 0.0847(5) 0.1407(4) 0.63944(10)
C16_4 C 0.0807(5) 0.2196(4) 0.64843(10)
H9_4 H 0.083093 0.234063 0.663337
C17_4 C 0.0723(5) 0.2740(4) 0.63022(10)
C18_4 C 0.0651(5) 0.2277(4) 0.61143(10)
C19_4 C 0.0517(5) 0.2825(5) 0.59330(10)
H10_4 H 0.045644 0.267564 0.578505
C20_4 C 0.0496(5) 0.3619(4) 0.60198(10)
C21_4 C 0.0308(5) 0.4388(4) 0.59006(10)
C25_4 C 0.0217(6) 0.5061(5) 0.55435(10)
H13_4 H 0.035191 0.507219 0.539369
C26_4 C 0.0542(5) 0.4434(5) 0.56735(11)
H14_4 H 0.091108 0.404268 0.561386
C28_4 C 0.0854(5) 0.4229(4) 0.64001(10)
C29_4 C 0.0556(5) 0.4151(5) 0.66154(10)
H15_4 H 0.015631 0.374421 0.664826
C30_4 C 0.0843(6) 0.4662(5) 0.67776(11)
H16_4 H 0.065239 0.459152 0.692197
C31_4 C 0.1417(5) 0.5290(4) 0.67306(10)
C32_4 C 0.1706(5) 0.5372(4) 0.65217(10)
H17_4 H 0.210647 0.577802 0.648973
C33_4 C 0.1404(5) 0.4843(4) 0.63503(10)
H18_4 H 0.158332 0.492006 0.620518
C34_4 C 0.1743(5) 0.5818(4) 0.69213(10)
N1_4 N 0.0721(4) 0.1428(3) 0.61688(8)
N2_4 N 0.0647(4) 0.3582(4) 0.62460(8)
C37_4 C 0.0330(5) 0.0347(5) 0.43520(11)
H19_4 H 0.036710 0.053235 0.449770
C38_4 C 0.0850(5) 0.0683(5) 0.41939(10)
H20_4 H 0.124490 0.108253 0.423553
C39_4 C 0.0802(4) 0.0446(5) 0.39774(10)
C42_4 C 0.0621(4) 0.1002(5) 0.34765(10)
C46_4 C 0.0003(5) 0.0978(5) 0.31136(11)
H25_4 H 0.002270 0.082026 0.296543
C47_4 C 0.0612(5) 0.0720(5) 0.32538(11)
H26_4 H 0.102686 0.035504 0.320408
C49_4 C 0.1407(4) 0.0847(5) 0.36056(10)
C50_4 C 0.2196(4) 0.0807(5) 0.35157(10)
H27_4 H 0.234063 0.083093 0.336663
C51_4 C 0.2740(4) 0.0723(5) 0.36978(10)
C52_4 C 0.2277(4) 0.0651(5) 0.38857(10)
C53_4 C 0.2825(5) 0.0517(5) 0.40670(10)
H28_4 H 0.267564 0.045644 0.421495
C54_4 C 0.3619(4) 0.0496(5) 0.39802(10)
C55_4 C 0.4388(4) 0.0308(5) 0.40994(10)
C59_4 C 0.5061(5) 0.0217(6) 0.44565(10)
H31_4 H 0.507219 0.035191 0.460631
C60_4 C 0.4434(5) 0.0542(5) 0.43265(11)
H32_4 H 0.404268 0.091108 0.438614
C62_4 C 0.4229(4) 0.0854(5) 0.35999(10)
C63_4 C 0.4151(5) 0.0556(5) 0.33846(10)
H33_4 H 0.374421 0.015631 0.335174
C64_4 C 0.4662(5) 0.0843(6) 0.32224(11)
H34_4 H 0.459152 0.065239 0.307803
C65_4 C 0.5290(4) 0.1417(5) 0.32694(10)
C66_4 C 0.5372(4) 0.1706(5) 0.34783(10)
H35_4 H 0.577802 0.210647 0.351027
C67_4 C 0.4843(4) 0.1404(5) 0.36497(10)
H36_4 H 0.492006 0.158332 0.379482
C68_4 C 0.5818(4) 0.1743(5) 0.30787(10)
N3_4 N 0.1428(3) 0.0721(4) 0.38312(8)
N4_4 N 0.3582(4) 0.0647(4) 0.37540(8)
C9_4 C 0.1501(6) 0.9986(4) 0.64514(10)
H5_4 H 0.167553 0.997953 0.630456
C10_4 C 0.1753(5) 0.9350(4) 0.65911(10)
H6_4 H 0.210383 0.892587 0.654022
C11_4 C 0.1472(4) 0.9354(4) 0.68113(10)
C14_4 C 0.1791(5) 0.8702(4) 0.69764(10)
O15_4 O 0.0411(3) 0.6852(4) 0.49545(8)
C40_4 C 0.0194(5) 0.9868(5) 0.39132(10)
H21_4 H 0.014708 0.971430 0.376526
C56_4 C 0.4996(4) 0.9807(5) 0.40147(10)
H29_4 H 0.498170 0.967599 0.386475
C57_4 C 0.5652(4) 0.9476(5) 0.41467(10)
H30_4 H 0.605572 0.912280 0.408651
C58_4 C 0.5672(5) 0.9702(5) 0.43732(10)
C61_4 C 0.6288(4) 0.9323(5) 0.45251(10)
O21_2 O 0.6204(3) 0.9440(3) 0.47279(7)
O22_2 O 0.6912(3) 0.9016(2) 0.44450(7)
O27_4 O 0.0399(3) 0.8945(4) 0.49937(7)
H39_4 H 0.0621881 0.663386 0.481093
H40_4 H 0.0599033 0.744116 0.497413
C6_4 C 0.9868(5) 0.0194(5) 0.60868(10)
H3_4 H 0.971430 0.014708 0.623474
C22_4 C 0.9807(5) 0.4996(4) 0.59853(10)
H11_4 H 0.967599 0.498170 0.613525
C23_4 C 0.9476(5) 0.5652(4) 0.58533(10)
H12_4 H 0.912280 0.605572 0.591349
C24_4 C 0.9702(5) 0.5672(5) 0.56268(10)
C27_4 C 0.9323(5) 0.6288(4) 0.54749(10)
O5_2 O 0.9440(3) 0.6204(3) 0.52721(7)
O6_2 O 0.9016(2) 0.6912(3) 0.55550(7)
O11_4 O 0.8945(4) 0.0399(3) 0.50063(7)
C43_4 C 0.9986(4) 0.1501(6) 0.35486(10)
H23_4 H 0.997953 0.167553 0.369544
C44_4 C 0.9350(4) 0.1753(5) 0.34089(10)
H24_4 H 0.892587 0.210383 0.345978
C45_4 C 0.9354(4) 0.1472(4) 0.31887(10)
C48_4 C 0.8702(4) 0.1791(5) 0.30236(10)
O31_4 O 0.6852(4) 0.0411(3) 0.50455(8)
H45_4 H 0.663386 0.0621881 0.518907
H46_4 H 0.744116 0.0599033 0.502587
C1_4 C 0.9309(5) 0.9224(4) 0.55344(10)
C2_4 C 0.9732(5) 0.9747(4) 0.57036(10)
C7_4 C 0.9521(5) 0.9657(5) 0.59309(10)
H4_4 H 0.915093 0.923826 0.597519
O1_4 O 0.9457(3) 0.9437(3) 0.53364(7)
O2_4 O 0.8995(3) 0.8588(3) 0.55894(7)
O9_4 O 0.8932(4) 0.5438(3) 0.49108(8)
O10_4 O 0.9244(3) 0.7853(3) 0.51962(6)
O12_4 O 0.7948(3) 0.6921(2) 0.51567(6)
O13_4 O 0.8781(3) 0.7958(3) 0.48060(6)
O14_4 O 0.7859(3) 0.6693(3) 0.47518(6)
O16_4 O 0.6841(5) 0.5436(3) 0.49510(8)
Zr1_5 Zr 0.90128(4) 0.90128(4) 0.500000
C35_4 C 0.9224(4) 0.9309(5) 0.44656(10)
C36_4 C 0.9747(4) 0.9732(5) 0.42964(10)
C41_4 C 0.9657(5) 0.9521(5) 0.40691(10)
H22_4 H 0.923826 0.915093 0.402481
O17_4 O 0.9437(3) 0.9457(3) 0.46636(7)
O18_4 O 0.8588(3) 0.8995(3) 0.44106(7)
O25_4 O 0.5438(3) 0.8932(4) 0.50892(8)
O26_4 O 0.7853(3) 0.9244(3) 0.48038(6)
O28_4 O 0.6921(2) 0.7948(3) 0.48433(6)
O29_4 O 0.7958(3) 0.8781(3) 0.51940(6)
O30_4 O 0.6693(3) 0.7859(3) 0.52482(6)
O32_4 O 0.5436(3) 0.6841(5) 0.50490(8)
H37_4 H 0.848916 0.520505 0.50087
H38_4 H 0.879214 0.531312 0.475404
H51_4 H 0.520505 0.848916 0.49913
H52_4 H 0.531312 0.879214 0.524596
H42_2 H 0.475156 0.367857 0.0124972
H50_2 H 0.327536 0.485128 0.00935907
H41_2 H 0.484764 0.311393 0.990313
H49_2 H 0.259361 0.472707 0.989708
H48_2 H 0.125721 0.941259 0.015362
H47_2 H 0.144909 0.940478 0.989
H44_2 H 0.939404 0.126739 0.0138263
H43_2 H 0.936711 0.0487185 0.996617
loop_
_geom_bond_atom_site_label_1
_geom_bond_atom_site_label_2
_geom_bond_site_symmetry_1
_geom_bond_site_symmetry_2
H30 C57 1_555 1_555
C58 C57 1_555 1_555
C59 C58 1_555 1_555
H31 C59 1_555 1_555
C61 C58 1_555 1_555
C66 C65 1_555 1_555
H35 C66 1_555 1_555
C68 C65 1_555 1_555
O21 C61 1_555 1_555
O22 C61 1_555 1_555
O23 C68 1_555 1_555
O24 C68 1_555 1_555
Zr7 O22 1_555 1_555
Zr11 O23 1_555 1_555
Zr17 O24 1_555 1_555
Zr18 O21 1_555 1_555
C1 C2 1_555 1_555
C2 C3 1_555 1_555
C3 H1 1_555 1_555
C4 C3 1_555 1_555
H2 C4 1_555 1_555
C5 C4 1_555 1_555
C6 C5 1_555 1_555
H3 C6 1_555 1_555
C7 C2 1_555 1_555
H4 C7 1_555 1_555
C8 C9 1_555 1_555
C9 H5 1_555 1_555
C10 C9 1_555 1_555
H6 C10 1_555 1_555
C11 C10 1_555 1_555
C12 C11 1_555 1_555
H7 C12 1_555 1_555
C13 C8 1_555 1_555
H8 C13 1_555 1_555
C14 C11 1_555 1_555
C15 C8 1_555 1_555
C16 C15 1_555 1_555
H9 C16 1_555 1_555
C17 C16 1_555 1_555
C18 C17 1_555 1_555
C19 C18 1_555 1_555
H10 C19 1_555 1_555
C20 C19 1_555 1_555
C21 C20 1_555 1_555
C22 C21 1_555 1_555
H11 C22 1_555 1_555
C26 C21 1_555 1_555
H14 C26 1_555 1_555
C28 C29 1_555 1_555
C29 H15 1_555 1_555
C30 C29 1_555 1_555
H16 C30 1_555 1_555
C33 C28 1_555 1_555
H18 C33 1_555 1_555
N1 C5 1_555 1_555
N2 C17 1_555 1_555
O1 C1 1_555 1_555
O2 C1 1_555 1_555
O3 C14 1_555 1_555
O4 C14 1_555 1_555
O9 Zr4 1_555 1_555
O10 Zr1 1_555 1_555
O11 Zr1 1_555 1_555
O12 Zr3 1_555 1_555
O13 Zr1 1_555 1_555
O14 Zr7 1_555 1_555
O15 Zr4 1_555 1_555
O16 Zr3 1_555 1_555
Zr1 O1 1_555 1_555
Zr7 O13 1_555 1_555
Zr3 O14 1_555 1_555
Zr4 O10 1_555 1_555
C35 C36 1_555 1_555
C36 C37 1_555 1_555
C37 H19 1_555 1_555
C38 C37 1_555 1_555
H20 C38 1_555 1_555
C39 C38 1_555 1_555
C40 C39 1_555 1_555
H21 C40 1_555 1_555
C41 C36 1_555 1_555
H22 C41 1_555 1_555
C42 C43 1_555 1_555
C43 H23 1_555 1_555
C44 C43 1_555 1_555
H24 C44 1_555 1_555
C45 C44 1_555 1_555
C46 C45 1_555 1_555
H25 C46 1_555 1_555
C47 C42 1_555 1_555
H26 C47 1_555 1_555
C48 C45 1_555 1_555
C49 C42 1_555 1_555
C50 C49 1_555 1_555
H27 C50 1_555 1_555
C51 C50 1_555 1_555
C52 C51 1_555 1_555
C53 C52 1_555 1_555
H28 C53 1_555 1_555
C54 C53 1_555 1_555
C55 C54 1_555 1_555
C56 C55 1_555 1_555
H29 C56 1_555 1_555
C60 C55 1_555 1_555
H32 C60 1_555 1_555
C62 C63 1_555 1_555
C63 H33 1_555 1_555
C64 C63 1_555 1_555
H34 C64 1_555 1_555
C67 C62 1_555 1_555
H36 C67 1_555 1_555
N3 C39 1_555 1_555
N4 C51 1_555 1_555
O17 Zr1 1_555 1_555
O18 Zr7 1_555 1_555
O19 C48 1_555 1_555
O20 C48 1_555 1_555
O25 Zr18 1_555 1_555
O26 Zr1 1_555 1_555
O27 Zr1 1_555 1_555
O28 Zr7 1_555 1_555
O29 Zr1 1_555 1_555
O30 Zr3 1_555 1_555
O31 Zr18 1_555 1_555
O32 Zr3 1_555 1_555
Zr5 O2 1_555 1_555
Zr18 O26 1_555 1_555
O33 Zr7 1_555 1_555
O34 Zr5 1_555 1_555
O35 Zr3 1_555 1_555
O36 Zr3 1_555 1_555
O37 Zr4 1_555 1_555
O39 Zr5 1_555 1_555
O41 Zr7 1_555 1_555
O42 Zr5 1_555 1_555
O43 Zr4 1_555 1_555
O44 Zr18 1_555 1_555
Zr9 O3 1_555 1_555
Zr11 O19 1_555 1_555
Zr13 O20 1_555 1_555
Zr14 O4 1_555 1_555
C6 C7 1_555 1_555
C12 C13 1_555 1_555
C15 N1 1_555 1_555
C18 N1 1_555 1_555
C20 N2 1_555 1_555
C28 N2 1_555 1_555
O10 Zr5 1_555 1_555
O12 Zr4 1_555 1_555
O12 Zr5 1_555 1_555
O13 Zr4 1_555 1_555
O14 Zr4 1_555 1_555
Zr7 O26 1_555 1_555
Zr3 O28 1_555 1_555
C35 O17 1_555 1_555
C35 O18 1_555 1_555
C40 C41 1_555 1_555
C46 C47 1_555 1_555
C49 N3 1_555 1_555
C52 N3 1_555 1_555
C54 N4 1_555 1_555
C62 N4 1_555 1_555
O28 Zr18 1_555 1_555
O29 Zr5 1_555 1_555
O29 Zr18 1_555 1_555
O30 Zr5 1_555 1_555
O30 Zr18 1_555 1_555
O9 H37 1_555 1_555
O9 H38 1_555 1_555
O15 H39 1_555 1_555
O15 H40 1_555 1_555
O31 H45 1_555 1_555
O31 H46 1_555 1_555
O25 H51 1_555 1_555
O25 H52 1_555 1_555
H12 C23 1_555 1_555
C24 C23 1_555 1_555
C25 C24 1_555 1_555
H13 C25 1_555 1_555
C27 C24 1_555 1_555
C32 C31 1_555 1_555
H17 C32 1_555 1_555
C34 C31 1_555 1_555
O37 C27 1_555 1_555
O39 C27 1_555 1_555
O7 C34 1_555 1_555
O8 C34 1_555 1_555
Zr9 O7 1_555 1_555
Zr16 O8 1_555 1_555
C1_2 C2_2 1_555 1_555
C7_2 C2_2 1_555 1_555
H4_2 C7_2 1_555 1_555
O1_2 C1_2 1_555 1_555
O2_2 C1_2 1_555 1_555
O10_2 Zr1_2 1_555 1_555
O12_2 Zr13 1_555 1_555
Zr1_2 O1_2 1_555 1_555
O25_2 Zr17 1_555 1_555
O29_2 Zr1_2 1_555 1_555
O30_2 Zr13 1_555 1_555
O32_2 Zr13 1_555 1_555
Zr11 O2_2 1_555 1_555
O39_2 Zr11 1_555 1_555
O10_2 Zr11 1_555 1_555
O12_2 Zr11 1_555 1_555
O29_2 Zr11 1_555 1_555
O29_2 Zr17 1_555 1_555
O30_2 Zr11 1_555 1_555
O30_2 Zr17 1_555 1_555
O32_2 H49 1_555 1_555
O25_2 H52_2 1_555 1_555
O9_2 Zr4_2 1_555 1_555
O13_2 Zr1_3 1_555 1_555
O14_2 Zr2 1_555 1_555
O16_2 Zr13_2 1_555 1_555
Zr2 O13_2 1_555 1_555
Zr13_2 O14_2 1_555 1_555
C35_2 C36_2 1_555 1_555
C41_2 C36_2 1_555 1_555
H22_2 C41_2 1_555 1_555
O17_2 Zr1_3 1_555 1_555
O18_2 Zr2 1_555 1_555
O26_2 Zr1_3 1_555 1_555
O28_2 Zr2 1_555 1_555
O33_2 Zr2 1_555 1_555
O35_2 Zr13_2 1_555 1_555
O40 Zr2 1_555 1_555
O41_2 Zr2 1_555 1_555
O43_2 Zr4_2 1_555 1_555
O13_2 Zr4_2 1_555 1_555
O14_2 Zr4_2 1_555 1_555
Zr2 O26_2 1_555 1_555
Zr13_2 O28_2 1_555 1_555
C35_2 O17_2 1_555 1_555
C35_2 O18_2 1_555 1_555
O9_2 H38_2 1_555 1_555
O16_2 H42 1_555 1_555
H3_2 C6_2 1_555 1_555
H11_2 C22_2 1_555 1_555
C23_2 C22_2 1_555 1_555
H12_2 C23_2 1_555 1_555
C24_2 C23_2 1_555 1_555
C27_2 C24_2 1_555 1_555
O37_2 C27_2 1_555 1_555
O39_2 C27_2 1_555 1_555
O11_2 H43 1_555 1_555
O31_2 H45_2 1_555 1_555
O31_2 H46_2 1_555 1_555
C43_2 H23_2 1_555 1_555
C44_2 C43_2 1_555 1_555
H24_2 C44_2 1_555 1_555
C45_2 C44_2 1_555 1_555
C48_2 C45_2 1_555 1_555
O19_2 C48_2 1_555 1_555
O20_2 C48_2 1_555 1_555
Zr10 O19_2 1_555 1_555
Zr13_3 O20_2 1_555 1_555
C9_2 H5_2 1_555 1_555
C10_2 C9_2 1_555 1_555
H6_2 C10_2 1_555 1_555
C11_2 C10_2 1_555 1_555
C14_2 C11_2 1_555 1_555
O33 C14_2 1_555 1_555
O35 C14_2 1_555 1_555
H21_2 C40_2 1_555 1_555
H29_2 C56_2 1_555 1_555
C57_2 C56_2 1_555 1_555
H30_2 C57_2 1_555 1_555
C58_2 C57_2 1_555 1_555
C61_2 C58_2 1_555 1_555
O38 C61_2 1_555 1_555
O40 C61_2 1_555 1_555
O15_2 H39_2 1_555 1_555
O15_2 H40_2 1_555 1_555
O27_2 H48 1_555 1_555
C3_2 H1_2 1_555 1_555
C4_2 C3_2 1_555 1_555
H2_2 C4_2 1_555 1_555
C5_2 C4_2 1_555 1_555
H7_2 C12_2 1_555 1_555
C13_2 C8_2 1_555 1_555
H8_2 C13_2 1_555 1_555
C15_2 C8_2 1_555 1_555
C16_2 C15_2 1_555 1_555
H9_2 C16_2 1_555 1_555
C17_2 C16_2 1_555 1_555
C18_2 C17_2 1_555 1_555
C19_2 C18_2 1_555 1_555
H10_2 C19_2 1_555 1_555
C20_2 C19_2 1_555 1_555
C21_2 C20_2 1_555 1_555
H13_2 C25_2 1_555 1_555
C26_2 C21_2 1_555 1_555
H14_2 C26_2 1_555 1_555
C28_2 C29_2 1_555 1_555
C29_2 H15_2 1_555 1_555
C30_2 C29_2 1_555 1_555
H16_2 C30_2 1_555 1_555
C31_2 C30_2 1_555 1_555
C32_2 C31_2 1_555 1_555
H17_2 C32_2 1_555 1_555
C33_2 C28_2 1_555 1_555
H18_2 C33_2 1_555 1_555
C34_2 C31_2 1_555 1_555
N1_2 C5_2 1_555 1_555
N2_2 C17_2 1_555 1_555
O41 C34_2 1_555 1_555
O43 C34_2 1_555 1_555
C12_2 C13_2 1_555 1_555
C15_2 N1_2 1_555 1_555
C18_2 N1_2 1_555 1_555
C20_2 N2_2 1_555 1_555
C25_2 C26_2 1_555 1_555
C28_2 N2_2 1_555 1_555
C32_2 C33_2 1_555 1_555
C37_2 H19_2 1_555 1_555
C38_2 C37_2 1_555 1_555
H20_2 C38_2 1_555 1_555
C39_2 C38_2 1_555 1_555
H25_2 C46_2 1_555 1_555
C47_2 C42_2 1_555 1_555
H26_2 C47_2 1_555 1_555
C49_2 C42_2 1_555 1_555
C50_2 C49_2 1_555 1_555
H27_2 C50_2 1_555 1_555
C51_2 C50_2 1_555 1_555
C52_2 C51_2 1_555 1_555
C53_2 C52_2 1_555 1_555
H28_2 C53_2 1_555 1_555
C54_2 C53_2 1_555 1_555
C55_2 C54_2 1_555 1_555
H31_2 C59_2 1_555 1_555
C60_2 C55_2 1_555 1_555
H32_2 C60_2 1_555 1_555
C62_2 C63_2 1_555 1_555
C63_2 H33_2 1_555 1_555
C64_2 C63_2 1_555 1_555
H34_2 C64_2 1_555 1_555
C65_2 C64_2 1_555 1_555
C66_2 C65_2 1_555 1_555
H35_2 C66_2 1_555 1_555
C67_2 C62_2 1_555 1_555
H36_2 C67_2 1_555 1_555
C68_2 C65_2 1_555 1_555
N3_2 C39_2 1_555 1_555
N4_2 C51_2 1_555 1_555
O23_2 C68_2 1_555 1_555
O24_2 C68_2 1_555 1_555
Zr10 O23_2 1_555 1_555
Zr17_2 O24_2 1_555 1_555
C46_2 C47_2 1_555 1_555
C49_2 N3_2 1_555 1_555
C52_2 N3_2 1_555 1_555
C54_2 N4_2 1_555 1_555
C59_2 C60_2 1_555 1_555
C62_2 N4_2 1_555 1_555
C66_2 C67_2 1_555 1_555
H12_3 C23_3 1_555 1_555
C24_3 C23_3 1_555 1_555
C25_3 C24_3 1_555 1_555
H13_3 C25_3 1_555 1_555
C27_3 C24_3 1_555 1_555
C32_3 C31_3 1_555 1_555
H17_3 C32_3 1_555 1_555
C34_3 C31_3 1_555 1_555
O5 C27_3 1_555 1_555
O6 C27_3 1_555 1_555
O41_2 C34_3 1_555 1_555
O43_2 C34_3 1_555 1_555
Zr10 O6 1_555 1_555
Zr15 O5 1_555 1_555
C1_3 C2_3 1_555 1_555
C2_3 C3_3 1_555 1_555
C3_3 H1_3 1_555 1_555
C4_3 C3_3 1_555 1_555
H2_3 C4_3 1_555 1_555
C5_3 C4_3 1_555 1_555
C6_3 C5_3 1_555 1_555
H3_3 C6_3 1_555 1_555
C7_3 C2_3 1_555 1_555
H4_3 C7_3 1_555 1_555
C8_3 C9_3 1_555 1_555
C9_3 H5_3 1_555 1_555
C10_3 C9_3 1_555 1_555
H6_3 C10_3 1_555 1_555
C11_3 C10_3 1_555 1_555
C12_3 C11_3 1_555 1_555
H7_3 C12_3 1_555 1_555
C13_3 C8_3 1_555 1_555
H8_3 C13_3 1_555 1_555
C14_3 C11_3 1_555 1_555
C15_3 C8_3 1_555 1_555
C16_3 C15_3 1_555 1_555
H9_3 C16_3 1_555 1_555
C17_3 C16_3 1_555 1_555
C18_3 C17_3 1_555 1_555
C19_3 C18_3 1_555 1_555
H10_3 C19_3 1_555 1_555
C20_3 C19_3 1_555 1_555
C21_3 C20_3 1_555 1_555
C22_3 C21_3 1_555 1_555
H11_3 C22_3 1_555 1_555
C26_3 C21_3 1_555 1_555
H14_3 C26_3 1_555 1_555
C28_3 C29_3 1_555 1_555
C29_3 H15_3 1_555 1_555
C30_3 C29_3 1_555 1_555
H16_3 C30_3 1_555 1_555
C33_3 C28_3 1_555 1_555
H18_3 C33_3 1_555 1_555
N1_3 C5_3 1_555 1_555
N2_3 C17_3 1_555 1_555
O1_3 C1_3 1_555 1_555
O2_3 C1_3 1_555 1_555
O33_2 C14_3 1_555 1_555
O35_2 C14_3 1_555 1_555
O9_3 Zr15 1_555 1_555
O10_3 Zr1_4 1_555 1_555
O11_3 Zr1_4 1_555 1_555
O12_3 Zr13_3 1_555 1_555
O13_3 Zr1_4 1_555 1_555
O14_3 Zr2_2 1_555 1_555
O15_3 Zr15 1_555 1_555
O16_3 Zr13_3 1_555 1_555
Zr1_4 O1_3 1_555 1_555
Zr2_2 O13_3 1_555 1_555
Zr13_3 O14_3 1_555 1_555
Zr15 O10_3 1_555 1_555
C35_3 C36_3 1_555 1_555
C36_3 C37_3 1_555 1_555
C37_3 H19_3 1_555 1_555
C38_3 C37_3 1_555 1_555
H20_3 C38_3 1_555 1_555
C39_3 C38_3 1_555 1_555
C40_3 C39_3 1_555 1_555
H21_3 C40_3 1_555 1_555
C41_3 C36_3 1_555 1_555
H22_3 C41_3 1_555 1_555
C42_3 C43_3 1_555 1_555
C43_3 H23_3 1_555 1_555
C44_3 C43_3 1_555 1_555
H24_3 C44_3 1_555 1_555
C45_3 C44_3 1_555 1_555
C46_3 C45_3 1_555 1_555
H25_3 C46_3 1_555 1_555
C47_3 C42_3 1_555 1_555
H26_3 C47_3 1_555 1_555
C48_3 C45_3 1_555 1_555
C49_3 C42_3 1_555 1_555
C50_3 C49_3 1_555 1_555
H27_3 C50_3 1_555 1_555
C51_3 C50_3 1_555 1_555
C52_3 C51_3 1_555 1_555
C53_3 C52_3 1_555 1_555
H28_3 C53_3 1_555 1_555
C54_3 C53_3 1_555 1_555
C55_3 C54_3 1_555 1_555
C56_3 C55_3 1_555 1_555
H29_3 C56_3 1_555 1_555
C60_3 C55_3 1_555 1_555
H32_3 C60_3 1_555 1_555
C62_3 C63_3 1_555 1_555
C63_3 H33_3 1_555 1_555
C64_3 C63_3 1_555 1_555
H34_3 C64_3 1_555 1_555
C67_3 C62_3 1_555 1_555
H36_3 C67_3 1_555 1_555
N3_3 C39_3 1_555 1_555
N4_3 C51_3 1_555 1_555
O17_3 Zr1_4 1_555 1_555
O18_3 Zr2_2 1_555 1_555
O19_3 C48_3 1_555 1_555
O20_3 C48_3 1_555 1_555
O25_3 Zr17_2 1_555 1_555
O26_3 Zr1_4 1_555 1_555
O27_3 Zr1_4 1_555 1_555
O28_3 Zr2_2 1_555 1_555
O29_3 Zr1_4 1_555 1_555
O30_3 Zr13_3 1_555 1_555
O31_3 Zr17_2 1_555 1_555
O32_3 Zr13_3 1_555 1_555
Zr10 O2_3 1_555 1_555
Zr17_2 O26_3 1_555 1_555
O33_3 Zr2_2 1_555 1_555
O35_3 Zr13_3 1_555 1_555
O38_2 Zr17_2 1_555 1_555
O40_2 Zr2_2 1_555 1_555
O41_3 Zr2_2 1_555 1_555
O43_3 Zr15 1_555 1_555
Zr10_2 O19_3 1_555 1_555
Zr14 O20_3 1_555 1_555
C6_3 C7_3 1_555 1_555
C12_3 C13_3 1_555 1_555
C15_3 N1_3 1_555 1_555
C18_3 N1_3 1_555 1_555
C20_3 N2_3 1_555 1_555
C28_3 N2_3 1_555 1_555
O10_3 Zr10 1_555 1_555
O12_3 Zr15 1_555 1_555
O12_3 Zr10 1_555 1_555
O13_3 Zr15 1_555 1_555
O14_3 Zr15 1_555 1_555
Zr2_2 O26_3 1_555 1_555
Zr13_3 O28_3 1_555 1_555
C35_3 O17_3 1_555 1_555
C35_3 O18_3 1_555 1_555
C40_3 C41_3 1_555 1_555
C46_3 C47_3 1_555 1_555
C49_3 N3_3 1_555 1_555
C52_3 N3_3 1_555 1_555
C54_3 N4_3 1_555 1_555
C62_3 N4_3 1_555 1_555
O28_3 Zr17_2 1_555 1_555
O29_3 Zr10 1_555 1_555
O29_3 Zr17_2 1_555 1_555
O30_3 Zr10 1_555 1_555
O30_3 Zr17_2 1_555 1_555
O9_3 H37_3 1_555 1_555
O9_3 H38_3 1_555 1_555
O15_3 H39_3 1_555 1_555
O15_3 H40_3 1_555 1_555
O31_3 H45_3 1_555 1_555
O31_3 H46_3 1_555 1_555
O25_3 H51_3 1_555 1_555
O25_3 H52_3 1_555 1_555
H30_3 C57_3 1_555 1_555
C58_3 C57_3 1_555 1_555
C59_3 C58_3 1_555 1_555
H31_3 C59_3 1_555 1_555
C61_3 C58_3 1_555 1_555
C66_3 C65_3 1_555 1_555
H35_3 C66_3 1_555 1_555
C68_3 C65_3 1_555 1_555
O38_2 C61_3 1_555 1_555
O40_2 C61_3 1_555 1_555
O23_3 C68_3 1_555 1_555
O24_3 C68_3 1_555 1_555
Zr10_2 O23_3 1_555 1_555
Zr17_3 O24_3 1_555 1_555
C3_4 H1_4 1_555 1_555
C4_4 C3_4 1_555 1_555
H2_4 C4_4 1_555 1_555
C5_4 C4_4 1_555 1_555
H7_4 C12_4 1_555 1_555
C13_4 C8_4 1_555 1_555
H8_4 C13_4 1_555 1_555
C15_4 C8_4 1_555 1_555
C16_4 C15_4 1_555 1_555
H9_4 C16_4 1_555 1_555
C17_4 C16_4 1_555 1_555
C18_4 C17_4 1_555 1_555
C19_4 C18_4 1_555 1_555
H10_4 C19_4 1_555 1_555
C20_4 C19_4 1_555 1_555
C21_4 C20_4 1_555 1_555
H13_4 C25_4 1_555 1_555
C26_4 C21_4 1_555 1_555
H14_4 C26_4 1_555 1_555
C28_4 C29_4 1_555 1_555
C29_4 H15_4 1_555 1_555
C30_4 C29_4 1_555 1_555
H16_4 C30_4 1_555 1_555
C31_4 C30_4 1_555 1_555
C32_4 C31_4 1_555 1_555
H17_4 C32_4 1_555 1_555
C33_4 C28_4 1_555 1_555
H18_4 C33_4 1_555 1_555
C34_4 C31_4 1_555 1_555
N1_4 C5_4 1_555 1_555
N2_4 C17_4 1_555 1_555
O41_3 C34_4 1_555 1_555
O43_3 C34_4 1_555 1_555
C37_4 H19_4 1_555 1_555
C38_4 C37_4 1_555 1_555
H20_4 C38_4 1_555 1_555
C39_4 C38_4 1_555 1_555
H25_4 C46_4 1_555 1_555
C47_4 C42_4 1_555 1_555
H26_4 C47_4 1_555 1_555
C49_4 C42_4 1_555 1_555
C50_4 C49_4 1_555 1_555
H27_4 C50_4 1_555 1_555
C51_4 C50_4 1_555 1_555
C52_4 C51_4 1_555 1_555
C53_4 C52_4 1_555 1_555
H28_4 C53_4 1_555 1_555
C54_4 C53_4 1_555 1_555
C55_4 C54_4 1_555 1_555
H31_4 C59_4 1_555 1_555
C60_4 C55_4 1_555 1_555
H32_4 C60_4 1_555 1_555
C62_4 C63_4 1_555 1_555
C63_4 H33_4 1_555 1_555
C64_4 C63_4 1_555 1_555
H34_4 C64_4 1_555 1_555
C65_4 C64_4 1_555 1_555
C66_4 C65_4 1_555 1_555
H35_4 C66_4 1_555 1_555
C67_4 C62_4 1_555 1_555
H36_4 C67_4 1_555 1_555
C68_4 C65_4 1_555 1_555
N3_4 C39_4 1_555 1_555
N4_4 C51_4 1_555 1_555
O42 C68_4 1_555 1_555
O44 C68_4 1_555 1_555
C12_4 C13_4 1_555 1_555
C15_4 N1_4 1_555 1_555
C18_4 N1_4 1_555 1_555
C20_4 N2_4 1_555 1_555
C25_4 C26_4 1_555 1_555
C28_4 N2_4 1_555 1_555
C32_4 C33_4 1_555 1_555
C46_4 C47_4 1_555 1_555
C49_4 N3_4 1_555 1_555
C52_4 N3_4 1_555 1_555
C54_4 N4_4 1_555 1_555
C59_4 C60_4 1_555 1_555
C62_4 N4_4 1_555 1_555
C66_4 C67_4 1_555 1_555
C9_4 H5_4 1_555 1_555
C10_4 C9_4 1_555 1_555
H6_4 C10_4 1_555 1_555
C11_4 C10_4 1_555 1_555
C14_4 C11_4 1_555 1_555
O33_3 C14_4 1_555 1_555
O35_3 C14_4 1_555 1_555
H21_4 C40_4 1_555 1_555
H29_4 C56_4 1_555 1_555
C57_4 C56_4 1_555 1_555
H30_4 C57_4 1_555 1_555
C58_4 C57_4 1_555 1_555
C61_4 C58_4 1_555 1_555
O21_2 C61_4 1_555 1_555
O22_2 C61_4 1_555 1_555
Zr9 O22_2 1_555 1_555
Zr17_3 O21_2 1_555 1_555
O15_4 H39_4 1_555 1_555
O15_4 H40_4 1_555 1_555
H3_4 C6_4 1_555 1_555
H11_4 C22_4 1_555 1_555
C23_4 C22_4 1_555 1_555
H12_4 C23_4 1_555 1_555
C24_4 C23_4 1_555 1_555
C27_4 C24_4 1_555 1_555
O5_2 C27_4 1_555 1_555
O6_2 C27_4 1_555 1_555
C43_4 H23_4 1_555 1_555
C44_4 C43_4 1_555 1_555
H24_4 C44_4 1_555 1_555
C45_4 C44_4 1_555 1_555
C48_4 C45_4 1_555 1_555
O34 C48_4 1_555 1_555
O36 C48_4 1_555 1_555
Zr10_2 O6_2 1_555 1_555
Zr16 O5_2 1_555 1_555
O31_4 H45_4 1_555 1_555
O31_4 H46_4 1_555 1_555
C1_4 C2_4 1_555 1_555
C7_4 C2_4 1_555 1_555
H4_4 C7_4 1_555 1_555
O1_4 C1_4 1_555 1_555
O2_4 C1_4 1_555 1_555
O9_4 Zr16 1_555 1_555
O10_4 Zr1_5 1_555 1_555
O12_4 Zr14 1_555 1_555
O13_4 Zr1_5 1_555 1_555
O14_4 Zr9 1_555 1_555
O16_4 Zr14 1_555 1_555
Zr1_5 O1_4 1_555 1_555
Zr9 O13_4 1_555 1_555
Zr14 O14_4 1_555 1_555
Zr16 O10_4 1_555 1_555
C35_4 C36_4 1_555 1_555
C41_4 C36_4 1_555 1_555
H22_4 C41_4 1_555 1_555
O17_4 Zr1_5 1_555 1_555
O18_4 Zr9 1_555 1_555
O25_4 Zr17_3 1_555 1_555
O26_4 Zr1_5 1_555 1_555
O28_4 Zr9 1_555 1_555
O29_4 Zr1_5 1_555 1_555
O30_4 Zr14 1_555 1_555
O32_4 Zr14 1_555 1_555
Zr10_2 O2_4 1_555 1_555
Zr17_3 O26_4 1_555 1_555
O10_4 Zr10_2 1_555 1_555
O12_4 Zr16 1_555 1_555
O12_4 Zr10_2 1_555 1_555
O13_4 Zr16 1_555 1_555
O14_4 Zr16 1_555 1_555
Zr9 O26_4 1_555 1_555
Zr14 O28_4 1_555 1_555
C35_4 O17_4 1_555 1_555
C35_4 O18_4 1_555 1_555
O28_4 Zr17_3 1_555 1_555
O29_4 Zr10_2 1_555 1_555
O29_4 Zr17_3 1_555 1_555
O30_4 Zr10_2 1_555 1_555
O30_4 Zr17_3 1_555 1_555
O9_4 H37_4 1_555 1_555
O9_4 H38_4 1_555 1_555
O25_4 H51_4 1_555 1_555
O25_4 H52_4 1_555 1_555
O32_2 H42_2 1_555 1_555
O16_2 H49_2 1_555 1_555
O11_2 H48_2 1_555 1_555
O27_2 H43_2 1_555 1_555

#END
