
###############################################################################
#
# This file contains modified crystal structure data generated from the
# MOF subset of the Cambridge Structural Database (CSD) v543 
# hosted by the Cambridge Crystallographic Data Centre (CCDC).
#
# This work is licensed under the Creative Commons
# Attribution-NonCommercial-ShareAlike 4.0 International License.
# To view a copy of this license, visit
# http://creativecommons.org/licenses/by-nc-sa/4.0/
# or send a letter to
# Creative Commons, PO Box 1866, Mountain View, CA 94042, USA.
#
# CIF created using the CSD Python API on 29 September 2022
# The structure has been converted into the P1 space group
# The structure has a 3D framework
# The original CSD entry UYOFIY is in the orthorhombic crystal system
# The framework has been calculated to contain at least 10.0% void space
# The void calculation uses a probe of radius 1.32A, grid spacing 0.4
#
###############################################################################

data_UYOFIY
_chemical_formula_moiety         '(C120 H80 N48 O112 Tb16)n'
_symmetry_cell_setting           triclinic
_symmetry_space_group_name_H-M   'P 1'
_symmetry_Int_Tables_number      1
_space_group_name_Hall           'P 1'
loop_
_symmetry_equiv_pos_site_id
_symmetry_equiv_pos_as_xyz
1 x,y,z
_cell_length_a                   13.279(3)
_cell_length_b                   13.141(3)
_cell_length_c                   32.181(7)
_cell_angle_alpha                90
_cell_angle_beta                 90
_cell_angle_gamma                90
_cell_volume                     5615.56
loop_
_atom_site_label
_atom_site_type_symbol
_atom_site_fract_x
_atom_site_fract_y
_atom_site_fract_z
O1 O 0.0294(6) 0.0239(6) 0.4586(3)
Tb4 Tb 0.30733(4) 0.46667(4) 0.466122(17)
Tb7 Tb 0.46189(4) 0.04849(4) 0.765454(17)
Tb10 Tb 0.03811(4) 0.54849(4) 0.765454(17)
O18 O 0.3015(5) 0.1013(6) 0.7444(3)
O24 O 0.1991(6) 0.1455(7) 0.4692(3)
O25 O 0.2149(6) 0.3122(6) 0.4653(3)
C16 C 0.2516(8) 0.2241(8) 0.4720(3)
O31 O 0.1367(6) 0.0744(6) 0.7423(3)
C17 C 0.0177(8) 0.3049(8) 0.7402(3)
O32 O 0.4664(7) 0.0257(8) 0.5481(3)
N8 N 0.2743(7) 0.2913(7) 0.7787(3)
H11 H 0.3336 0.2679 0.7837
N9 N 0.4112(7) 0.3090(7) 0.4744(3)
N12 N 0.1486(7) 0.3987(7) 0.7757(3)
N13 N 0.1486(7) 0.1013(7) 0.2757(3)
N15 N 0.5114(8) 0.1990(8) 0.5041(3)
H12 H 0.5652 0.1727 0.5144
C18 C 0.1972(8) 0.2378(9) 0.7612(4)
C19 C 0.1197(8) 0.3067(8) 0.7589(4)
C21 C 0.2115(8) 0.1314(8) 0.7480(3)
C22 C 0.4049(9) 0.0494(10) 0.5211(4)
C24 C 0.4195(9) 0.1531(9) 0.5016(4)
C26 C 0.3587(9) 0.2202(9) 0.4830(4)
C27 C 0.5036(10) 0.2913(9) 0.4878(5)
H14 H 0.5564 0.3377 0.4860
C28 C 0.2434(10) 0.3846(9) 0.7870(4)
H15 H 0.2834 0.4343 0.7992
C29 C 0.0026(9) 0.0059(10) 0.6336(4)
O34 O 0.3377(6) 0.0022(6) 0.4214(3)
H19 H 0.3511 0.0132 0.3959
H20 H 0.3872 0.0237 0.4356
Tb2 Tb 0.03811(4) 0.95151(4) 0.265454(17)
O5 O 0.0223(6) 0.7759(6) 0.2742(3)
O6 O 0.1505(6) 0.9360(7) 0.3970(3)
O7 O 0.1281(6) 0.9183(6) 0.3298(2)
O10 O 0.0257(6) 0.6096(6) 0.2613(3)
C5 C 0.1000(8) 0.9475(8) 0.3650(4)
O13 O 0.0191(7) 0.9194(9) 0.1943(3)
H7 H 0.0179 0.9714 0.1786
H8 H 0.0629 0.8776 0.1856
Tb3 Tb 0.19267(4) 0.96667(4) 0.466122(17)
O16 O 0.3318(6) 0.9971(7) 0.5102(3)
O17 O 0.1382(6) 0.9742(8) 0.5364(3)
O20 O 0.1985(5) 0.8987(6) 0.2444(3)
O26 O 0.2851(6) 0.8122(6) 0.4653(3)
O30 O 0.0257(6) 0.8904(6) 0.7613(3)
N7 N 0.0494(8) 0.9928(8) 0.6711(3)
N10 N 0.0888(7) 0.8090(7) 0.4744(3)
N16 N 0.1518(8) 0.9467(10) 0.6213(4)
H13 H 0.2049 0.9241 0.6091
C23 C 0.0658(9) 0.9776(9) 0.6024(4)
C25 C 0.0576(10) 0.9752(8) 0.5562(4)
C30 C 0.1394(11) 0.9578(12) 0.6626(5)
H16 H 0.1881 0.9427 0.6824
Tb1 Tb 0.80733(4) 0.03333(4) 0.533878(17)
O2 O 0.6682(6) 0.0029(7) 0.4898(3)
O3 O 0.8618(6) 0.0258(8) 0.4636(3)
N1 N 0.9506(8) 0.0072(8) 0.3289(3)
N6 N 0.8482(8) 0.0533(10) 0.3787(4)
H3 H 0.7951 0.0759 0.3909
C8 C 0.9342(9) 0.0224(9) 0.3976(4)
C10 C 0.9424(10) 0.0248(8) 0.4438(4)
C15 C 0.8606(11) 0.0422(12) 0.3374(5)
H6 H 0.8119 0.0573 0.3176
Tb6 Tb 0.96189(4) 0.04849(4) 0.734546(17)
O19 O 0.8015(5) 0.1013(6) 0.7556(3)
O21 O 0.9777(6) 0.2241(6) 0.7258(3)
O22 O 0.8495(6) 0.0640(7) 0.6030(3)
O23 O 0.8719(6) 0.0817(6) 0.6702(2)
O27 O 0.7149(6) 0.1878(6) 0.5347(3)
O28 O 0.9743(6) 0.3904(6) 0.7387(3)
O29 O 0.9743(6) 0.1096(6) 0.2387(3)
N11 N 0.9112(7) 0.1910(7) 0.5256(3)
C20 C 0.9000(8) 0.0525(8) 0.6350(4)
O33 O 0.9809(7) 0.0806(9) 0.8057(3)
H17 H 0.9821 0.0286 0.8214
H18 H 0.9371 0.1224 0.8144
O4 O 0.6985(5) 0.8987(6) 0.2556(3)
O8 O 0.8009(6) 0.8545(7) 0.5308(3)
O9 O 0.7851(6) 0.6878(6) 0.5347(3)
C1 C 0.7484(8) 0.7759(8) 0.5280(3)
O11 O 0.8633(6) 0.9256(6) 0.2577(3)
C2 C 0.9823(8) 0.6951(8) 0.2598(3)
O12 O 0.5336(7) 0.9743(8) 0.4519(3)
N2 N 0.7257(7) 0.7087(7) 0.2213(3)
H1 H 0.6664 0.7321 0.2163
N3 N 0.5888(7) 0.6910(7) 0.5256(3)
N4 N 0.8514(7) 0.6013(7) 0.2243(3)
N5 N 0.4886(8) 0.8010(8) 0.4959(3)
H2 H 0.4348 0.8273 0.4856
C3 C 0.8028(8) 0.7622(9) 0.2388(4)
C4 C 0.8803(8) 0.6933(8) 0.2411(4)
C6 C 0.7885(8) 0.8686(8) 0.2520(3)
C7 C 0.5951(9) 0.9506(10) 0.4789(4)
C9 C 0.5805(9) 0.8469(9) 0.4984(4)
C11 C 0.6413(9) 0.7798(9) 0.5170(4)
C12 C 0.4964(10) 0.7087(9) 0.5122(5)
H4 H 0.4436 0.6623 0.5140
C13 C 0.7566(10) 0.6154(9) 0.2130(4)
H5 H 0.7166 0.5657 0.2008
C14 C 0.9974(9) 0.9941(10) 0.3664(4)
O14 O 0.6623(6) 0.9978(6) 0.5786(3)
H9 H 0.6489 0.9868 0.6041
H10 H 0.6128 0.9763 0.5644
Tb5 Tb 0.69267(4) 0.53333(4) 0.533878(17)
Tb8 Tb 0.96189(4) 0.45151(4) 0.234546(17)
Tb9 Tb 0.53811(4) 0.95151(4) 0.234546(17)
O15 O 0.9706(6) 0.9761(6) 0.5414(3)
N14 N 0.8514(7) 0.8987(7) 0.7243(3)
O8_2 O 0.6991(6) 0.1455(7) 0.0308(3)
O9_2 O 0.7149(6) 0.3122(6) 0.0347(3)
C1_2 C 0.7516(8) 0.2241(8) 0.0280(3)
N3_2 N 0.9112(7) 0.3090(7) 0.0256(3)
C11_2 C 0.8587(9) 0.2202(9) 0.0170(4)
O14_2 O 0.8377(6) 0.0022(6) 0.0786(3)
H9_2 H 0.8511 0.0132 0.1041
H10_2 H 0.8872 0.0237 0.0644
Tb5_2 Tb 0.80733(4) 0.46667(4) 0.033878(17)
O15_2 O 0.5294(6) 0.0239(6) 0.0414(3)
O16_2 O 0.1682(6) 0.0029(7) 0.0102(3)
O17_2 O 0.3618(6) 0.0258(8) 0.0364(3)
O30_2 O 0.4743(6) 0.1096(6) 0.2613(3)
N7_2 N 0.4506(8) 0.0072(8) 0.1711(3)
N14_2 N 0.6486(7) 0.1013(7) 0.2243(3)
N16_2 N 0.3482(8) 0.0533(10) 0.1213(4)
H13_2 H 0.2951 0.0759 0.1091
C23_2 C 0.4342(9) 0.0224(9) 0.1024(4)
C25_2 C 0.4424(10) 0.0248(8) 0.0562(4)
C30_2 C 0.3606(11) 0.0422(12) 0.1626(5)
H16_2 H 0.3119 0.0573 0.1824
O5_2 O 0.4777(6) 0.2241(6) 0.7742(3)
O6_2 O 0.3495(6) 0.0640(7) 0.8970(3)
O7_2 O 0.3719(6) 0.0817(6) 0.8298(2)
O10_2 O 0.4743(6) 0.3904(6) 0.7613(3)
O11_2 O 0.6367(6) 0.0744(6) 0.7577(3)
C2_2 C 0.5177(8) 0.3049(8) 0.7598(3)
O12_2 O 0.9664(7) 0.0257(8) 0.9519(3)
N2_2 N 0.7743(7) 0.2913(7) 0.7213(3)
H1_2 H 0.8336 0.2679 0.7163
N4_2 N 0.6486(7) 0.3987(7) 0.7243(3)
C3_2 C 0.6972(8) 0.2378(9) 0.7388(4)
C4_2 C 0.6197(8) 0.3067(8) 0.7411(4)
C5_2 C 0.4000(8) 0.0525(8) 0.8650(4)
C6_2 C 0.7115(8) 0.1314(8) 0.7520(3)
C7_2 C 0.9049(9) 0.0494(10) 0.9789(4)
C9_2 C 0.9195(9) 0.1531(9) 0.9984(4)
C13_2 C 0.7434(10) 0.3846(9) 0.7130(4)
H5_2 H 0.7834 0.4343 0.7008
C14_2 C 0.5026(9) 0.0059(10) 0.8664(4)
O13_2 O 0.4809(7) 0.0806(9) 0.6943(3)
H7_2 H 0.4821 0.0286 0.6786
H8_2 H 0.4371 0.1224 0.6856
Tb3_2 Tb 0.30733(4) 0.03333(4) 0.966122(17)
Tb8_2 Tb 0.53811(4) 0.54849(4) 0.734546(17)
O26_2 O 0.2149(6) 0.1878(6) 0.9653(3)
N10_2 N 0.4112(7) 0.1910(7) 0.9744(3)
Tb1_2 Tb 0.69267(4) 0.96667(4) 0.033878(17)
Tb10_2 Tb 0.46189(4) 0.45151(4) 0.265454(17)
O21_2 O 0.5223(6) 0.7759(6) 0.2258(3)
O22_2 O 0.6505(6) 0.9360(7) 0.1030(3)
O23_2 O 0.6281(6) 0.9183(6) 0.1702(2)
O27_2 O 0.7851(6) 0.8122(6) 0.0347(3)
O28_2 O 0.5257(6) 0.6096(6) 0.2387(3)
O31_2 O 0.3633(6) 0.9256(6) 0.2423(3)
C17_2 C 0.4823(8) 0.6951(8) 0.2402(3)
O32_2 O 0.0336(7) 0.9743(8) 0.0481(3)
N8_2 N 0.2257(7) 0.7087(7) 0.2787(3)
H11_2 H 0.1664 0.7321 0.2837
N11_2 N 0.5888(7) 0.8090(7) 0.0256(3)
N12_2 N 0.3514(7) 0.6013(7) 0.2757(3)
C18_2 C 0.3028(8) 0.7622(9) 0.2612(4)
C19_2 C 0.3803(8) 0.6933(8) 0.2589(4)
C20_2 C 0.6000(8) 0.9475(8) 0.1350(4)
C21_2 C 0.2885(8) 0.8686(8) 0.2480(3)
C22_2 C 0.0951(9) 0.9506(10) 0.0211(4)
C24_2 C 0.0805(9) 0.8469(9) 0.0016(4)
C28_2 C 0.2566(10) 0.6154(9) 0.2870(4)
H15_2 H 0.2166 0.5657 0.2992
C29_2 C 0.4974(9) 0.9941(10) 0.1336(4)
O33_2 O 0.5191(7) 0.9194(9) 0.3057(3)
H17_2 H 0.5179 0.9714 0.3214
H18_2 H 0.5629 0.8776 0.3144
O1_2 O 0.4706(6) 0.9761(6) 0.9586(3)
O2_2 O 0.8318(6) 0.9971(7) 0.9898(3)
O3_2 O 0.6382(6) 0.9742(8) 0.9636(3)
N1_2 N 0.5494(8) 0.9928(8) 0.8289(3)
N6_2 N 0.6518(8) 0.9467(10) 0.8787(4)
H3_2 H 0.7049 0.9241 0.8909
C8_2 C 0.5658(9) 0.9776(9) 0.8976(4)
C10_2 C 0.5576(10) 0.9752(8) 0.9438(4)
C15_2 C 0.6394(11) 0.9578(12) 0.8374(5)
H6_2 H 0.6881 0.9427 0.8176
Tb4_2 Tb 0.19267(4) 0.53333(4) 0.966122(17)
O24_2 O 0.3009(6) 0.8545(7) 0.9692(3)
O25_2 O 0.2851(6) 0.6878(6) 0.9653(3)
C16_2 C 0.2484(8) 0.7759(8) 0.9720(3)
O29_2 O 0.5257(6) 0.8904(6) 0.7387(3)
N9_2 N 0.0888(7) 0.6910(7) 0.9744(3)
N13_2 N 0.3514(7) 0.8987(7) 0.7757(3)
C26_2 C 0.1413(9) 0.7798(9) 0.9830(4)
O34_2 O 0.1623(6) 0.9978(6) 0.9214(3)
H19_2 H 0.1489 0.9868 0.8959
H20_2 H 0.1128 0.9763 0.9356
O2_3 O 0.3318(6) 0.5029(7) 0.0102(3)
O3_3 O 0.1382(6) 0.5258(8) 0.0364(3)
O4_2 O 0.3015(5) 0.3987(6) 0.2444(3)
O11_3 O 0.1367(6) 0.4256(6) 0.2423(3)
C2_3 C 0.0177(8) 0.1951(8) 0.2402(3)
O12_3 O 0.4664(7) 0.4743(8) 0.0481(3)
N1_3 N 0.0494(8) 0.5072(8) 0.1711(3)
N2_3 N 0.2743(7) 0.2087(7) 0.2787(3)
H1_3 H 0.3336 0.2321 0.2837
N5_2 N 0.5114(8) 0.3010(8) 0.0041(3)
H2_2 H 0.5652 0.3273 0.0144
C3_3 C 0.1972(8) 0.2622(9) 0.2612(4)
N6_3 N 0.1518(8) 0.5533(10) 0.1213(4)
H3_3 H 0.2049 0.5759 0.1091
C4_3 C 0.1197(8) 0.1933(8) 0.2589(4)
C6_3 C 0.2115(8) 0.3686(8) 0.2480(3)
C7_3 C 0.4049(9) 0.4506(10) 0.0211(4)
C8_3 C 0.0658(9) 0.5224(9) 0.1024(4)
C9_3 C 0.4195(9) 0.3469(9) 0.0016(4)
C10_3 C 0.0576(10) 0.5248(8) 0.0562(4)
C13_3 C 0.2434(10) 0.1154(9) 0.2870(4)
H5_3 H 0.2834 0.0657 0.2992
C14_3 C 0.0026(9) 0.4941(10) 0.1336(4)
C15_3 C 0.1394(11) 0.5422(12) 0.1626(5)
H6_3 H 0.1881 0.5573 0.1824
O8_3 O 0.1991(6) 0.3545(7) 0.9692(3)
C1_3 C 0.2516(8) 0.2759(8) 0.9720(3)
C11_3 C 0.3587(9) 0.2798(9) 0.9830(4)
C12_2 C 0.5036(10) 0.2087(9) 0.9878(5)
H4_2 H 0.5564 0.1623 0.9860
O14_3 O 0.3377(6) 0.4978(6) 0.9214(3)
H9_3 H 0.3511 0.4868 0.8959
H10_3 H 0.3872 0.4763 0.9356
O15_3 O 0.0294(6) 0.4761(6) 0.9586(3)
O19_2 O 0.1985(5) 0.6013(6) 0.7444(3)
O21_3 O 0.0223(6) 0.7241(6) 0.7742(3)
O22_3 O 0.1505(6) 0.5640(7) 0.8970(3)
O23_3 O 0.1281(6) 0.5817(6) 0.8298(2)
C20_3 C 0.1000(8) 0.5525(8) 0.8650(4)
O33_3 O 0.0191(7) 0.5806(9) 0.6943(3)
H17_3 H 0.0179 0.5286 0.6786
H18_3 H 0.0629 0.6224 0.6856
O1_3 O 0.9706(6) 0.5239(6) 0.0414(3)
O5_3 O 0.9777(6) 0.2759(6) 0.2258(3)
O6_3 O 0.8495(6) 0.4360(7) 0.1030(3)
O7_3 O 0.8719(6) 0.4183(6) 0.1702(2)
C5_3 C 0.9000(8) 0.4475(8) 0.1350(4)
O13_3 O 0.9809(7) 0.4194(9) 0.3057(3)
H7_3 H 0.9821 0.4714 0.3214
H8_3 H 0.9371 0.3776 0.3144
O20_2 O 0.8015(5) 0.3987(6) 0.2556(3)
O24_3 O 0.8009(6) 0.6455(7) 0.0308(3)
C16_3 C 0.7484(8) 0.7241(8) 0.0280(3)
C26_3 C 0.6413(9) 0.7202(9) 0.0170(4)
C27_2 C 0.4964(10) 0.7913(9) 0.0122(5)
H14_2 H 0.4436 0.8377 0.0140
O34_3 O 0.6623(6) 0.5022(6) 0.0786(3)
H19_3 H 0.6489 0.5132 0.1041
H20_3 H 0.6128 0.5237 0.0644
O16_3 O 0.6682(6) 0.4971(7) 0.9898(3)
O17_3 O 0.8618(6) 0.4742(8) 0.9636(3)
O18_2 O 0.6985(5) 0.6013(6) 0.7556(3)
O31_3 O 0.8633(6) 0.5744(6) 0.7577(3)
C17_3 C 0.9823(8) 0.8049(8) 0.7598(3)
O32_3 O 0.5336(7) 0.5257(8) 0.9519(3)
N7_3 N 0.9506(8) 0.4928(8) 0.8289(3)
N8_3 N 0.7257(7) 0.7913(7) 0.7213(3)
H11_3 H 0.6664 0.7679 0.7163
N15_2 N 0.4886(8) 0.6990(8) 0.9959(3)
H12_2 H 0.4348 0.6727 0.9856
C18_3 C 0.8028(8) 0.7378(9) 0.7388(4)
N16_3 N 0.8482(8) 0.4467(10) 0.8787(4)
H13_3 H 0.7951 0.4241 0.8909
C19_3 C 0.8803(8) 0.8067(8) 0.7411(4)
C21_3 C 0.7885(8) 0.6314(8) 0.7520(3)
C22_3 C 0.5951(9) 0.5494(10) 0.9789(4)
C23_3 C 0.9342(9) 0.4776(9) 0.8976(4)
C24_3 C 0.5805(9) 0.6531(9) 0.9984(4)
C25_3 C 0.9424(10) 0.4752(8) 0.9438(4)
C28_3 C 0.7566(10) 0.8846(9) 0.7130(4)
H15_3 H 0.7166 0.9343 0.7008
C29_3 C 0.9974(9) 0.5059(10) 0.8664(4)
C30_3 C 0.8606(11) 0.4578(12) 0.8374(5)
H16_3 H 0.8119 0.4427 0.8176
O1_4 O 0.5294(6) 0.4761(6) 0.5414(3)
O2_4 O 0.1682(6) 0.4971(7) 0.5102(3)
O3_4 O 0.3618(6) 0.4742(8) 0.5364(3)
O5_4 O 0.5223(6) 0.7241(6) 0.7258(3)
O6_4 O 0.6505(6) 0.5640(7) 0.6030(3)
O7_4 O 0.6281(6) 0.5817(6) 0.6702(2)
O8_4 O 0.3009(6) 0.6455(7) 0.4692(3)
C1_4 C 0.2484(8) 0.7241(8) 0.4720(3)
O11_4 O 0.3633(6) 0.5744(6) 0.7423(3)
C2_4 C 0.4823(8) 0.8049(8) 0.7402(3)
O12_4 O 0.0336(7) 0.5257(8) 0.5481(3)
N1_4 N 0.4506(8) 0.4928(8) 0.6711(3)
N2_4 N 0.2257(7) 0.7913(7) 0.7787(3)
H1_4 H 0.1664 0.7679 0.7837
C3_4 C 0.3028(8) 0.7378(9) 0.7612(4)
N6_4 N 0.3482(8) 0.4467(10) 0.6213(4)
H3_4 H 0.2951 0.4241 0.6091
C4_4 C 0.3803(8) 0.8067(8) 0.7589(4)
C5_4 C 0.6000(8) 0.5525(8) 0.6350(4)
C6_4 C 0.2885(8) 0.6314(8) 0.7480(3)
C7_4 C 0.0951(9) 0.5494(10) 0.5211(4)
C8_4 C 0.4342(9) 0.4776(9) 0.6024(4)
C9_4 C 0.0805(9) 0.6531(9) 0.5016(4)
C10_4 C 0.4424(10) 0.4752(8) 0.5562(4)
C11_4 C 0.1413(9) 0.7202(9) 0.4830(4)
C13_4 C 0.2566(10) 0.8846(9) 0.7870(4)
H5_4 H 0.2166 0.9343 0.7992
C14_4 C 0.4974(9) 0.5059(10) 0.6336(4)
C15_4 C 0.3606(11) 0.4578(12) 0.6626(5)
H6_4 H 0.3119 0.4427 0.6824
O13_4 O 0.5191(7) 0.5806(9) 0.8057(3)
H7_4 H 0.5179 0.5286 0.8214
H8_4 H 0.5629 0.6224 0.8144
O14_4 O 0.1623(6) 0.5022(6) 0.4214(3)
H9_4 H 0.1489 0.5132 0.3959
H10_4 H 0.1128 0.5237 0.4356
O15_4 O 0.4706(6) 0.5239(6) 0.4586(3)
O16_4 O 0.8318(6) 0.5029(7) 0.4898(3)
O17_4 O 0.6382(6) 0.5258(8) 0.4636(3)
O21_4 O 0.4777(6) 0.2759(6) 0.2742(3)
O22_4 O 0.3495(6) 0.4360(7) 0.3970(3)
O23_4 O 0.3719(6) 0.4183(6) 0.3298(2)
O24_4 O 0.6991(6) 0.3545(7) 0.5308(3)
C16_4 C 0.7516(8) 0.2759(8) 0.5280(3)
O31_4 O 0.6367(6) 0.4256(6) 0.2577(3)
C17_4 C 0.5177(8) 0.1951(8) 0.2598(3)
O32_4 O 0.9664(7) 0.4743(8) 0.4519(3)
N7_4 N 0.5494(8) 0.5072(8) 0.3289(3)
N8_4 N 0.7743(7) 0.2087(7) 0.2213(3)
H11_4 H 0.8336 0.2321 0.2163
C18_4 C 0.6972(8) 0.2622(9) 0.2388(4)
N16_4 N 0.6518(8) 0.5533(10) 0.3787(4)
H13_4 H 0.7049 0.5759 0.3909
C19_4 C 0.6197(8) 0.1933(8) 0.2411(4)
C20_4 C 0.4000(8) 0.4475(8) 0.3650(4)
C21_4 C 0.7115(8) 0.3686(8) 0.2520(3)
C22_4 C 0.9049(9) 0.4506(10) 0.4789(4)
C23_4 C 0.5658(9) 0.5224(9) 0.3976(4)
C24_4 C 0.9195(9) 0.3469(9) 0.4984(4)
C25_4 C 0.5576(10) 0.5248(8) 0.4438(4)
C26_4 C 0.8587(9) 0.2798(9) 0.5170(4)
C28_4 C 0.7434(10) 0.1154(9) 0.2130(4)
H15_4 H 0.7834 0.0657 0.2008
C29_4 C 0.5026(9) 0.4941(10) 0.3664(4)
C30_4 C 0.6394(11) 0.5422(12) 0.3374(5)
H16_4 H 0.6881 0.5573 0.3176
O33_4 O 0.4809(7) 0.4194(9) 0.1943(3)
H17_4 H 0.4821 0.4714 0.1786
H18_4 H 0.4371 0.3776 0.1856
O34_4 O 0.8377(6) 0.4978(6) 0.5786(3)
H19_4 H 0.8511 0.4868 0.6041
H20_4 H 0.8872 0.4763 0.5644
C12_3 C 0.0036(10) 0.2913(9) 0.0122(5)
H4_3 H 0.0564 0.3377 0.0140
N5_3 N 0.0114(8) 0.1990(8) 0.9959(3)
H2_3 H 0.0652 0.1727 0.9856
N15_3 N 0.9886(8) 0.8010(8) 0.0041(3)
H12_3 H 0.9348 0.8273 0.0144
C27_3 C 0.9964(10) 0.7087(9) 0.9878(5)
H14_3 H 0.9436 0.6623 0.9860
N15_4 N 0.0114(8) 0.3010(8) 0.4959(3)
H12_4 H 0.0652 0.3273 0.4856
C27_4 C 0.0036(10) 0.2087(9) 0.5122(5)
H14_4 H 0.0564 0.1623 0.5140
N5_4 N 0.9886(8) 0.6990(8) 0.5041(3)
H2_4 H 0.9348 0.6727 0.5144
C12_4 C 0.9964(10) 0.7913(9) 0.4878(5)
H4_4 H 0.9436 0.8377 0.4860
loop_
_geom_bond_atom_site_label_1
_geom_bond_atom_site_label_2
_geom_bond_site_symmetry_1
_geom_bond_site_symmetry_2
Tb4 O25 1_555 1_555
Tb7 O18 1_555 1_555
O18 C21 1_555 1_555
O25 C16 1_555 1_555
C16 O24 1_555 1_555
O32 C22 1_555 1_555
N8 H11 1_555 1_555
N9 Tb4 1_555 1_555
N12 Tb10 1_555 1_555
N15 H12 1_555 1_555
C18 N8 1_555 1_555
C19 C17 1_555 1_555
C21 O31 1_555 1_555
C24 N15 1_555 1_555
C26 C16 1_555 1_555
C27 N9 1_555 1_555
H14 C27 1_555 1_555
C28 N8 1_555 1_555
H15 C28 1_555 1_555
H19 O34 1_555 1_555
H20 O34 1_555 1_555
N9 C26 1_555 1_555
N12 C19 1_555 1_555
N12 C28 1_555 1_555
N15 C27 1_555 1_555
C18 C19 1_555 1_555
C18 C21 1_555 1_555
C22 C24 1_555 1_555
C24 C26 1_555 1_555
Tb2 O5 1_555 1_555
O6 C5 1_555 1_555
O7 Tb2 1_555 1_555
C5 O7 1_555 1_555
O13 Tb2 1_555 1_555
H7 O13 1_555 1_555
H8 O13 1_555 1_555
O16 Tb3 1_555 1_555
O17 Tb3 1_555 1_555
O20 Tb2 1_555 1_555
O26 Tb3 1_555 1_555
N10 Tb3 1_555 1_555
N16 H13 1_555 1_555
C23 N16 1_555 1_555
C30 N7 1_555 1_555
H16 C30 1_555 1_555
O6 Tb3 1_555 1_555
O17 C25 1_555 1_555
N16 C30 1_555 1_555
C23 C25 1_555 1_555
Tb1 O2 1_555 1_555
O3 Tb1 1_555 1_555
N6 H3 1_555 1_555
C8 N6 1_555 1_555
C10 O3 1_555 1_555
C15 N1 1_555 1_555
H6 C15 1_555 1_555
Tb6 O19 1_555 1_555
O21 Tb6 1_555 1_555
O22 Tb1 1_555 1_555
O23 Tb6 1_555 1_555
O27 Tb1 1_555 1_555
N11 Tb1 1_555 1_555
C20 O22 1_555 1_555
O33 Tb6 1_555 1_555
H17 O33 1_555 1_555
H18 O33 1_555 1_555
N6 C15 1_555 1_555
C8 C10 1_555 1_555
O23 C20 1_555 1_555
O4 C6 1_555 1_555
O9 C1 1_555 1_555
C1 O8 1_555 1_555
C2 C4 1_555 1_555
O12 C7 1_555 1_555
N2 H1 1_555 1_555
N3 C11 1_555 1_555
N4 C4 1_555 1_555
N5 H2 1_555 1_555
C3 N2 1_555 1_555
C4 C3 1_555 1_555
C6 O11 1_555 1_555
C7 C9 1_555 1_555
C9 N5 1_555 1_555
C11 C1 1_555 1_555
C12 N3 1_555 1_555
H4 C12 1_555 1_555
C13 N2 1_555 1_555
H5 C13 1_555 1_555
H9 O14 1_555 1_555
H10 O14 1_555 1_555
Tb5 O9 1_555 1_555
Tb9 O4 1_555 1_555
N3 Tb5 1_555 1_555
N4 C13 1_555 1_555
N4 Tb8 1_555 1_555
N5 C12 1_555 1_555
C3 C6 1_555 1_555
C9 C11 1_555 1_555
O9_2 C1_2 1_555 1_555
C1_2 O8_2 1_555 1_555
N3_2 C11_2 1_555 1_555
C11_2 C1_2 1_555 1_555
H9_2 O14_2 1_555 1_555
H10_2 O14_2 1_555 1_555
Tb5_2 O9_2 1_555 1_555
N16_2 H13_2 1_555 1_555
C23_2 N16_2 1_555 1_555
C25_2 O15_2 1_555 1_555
C30_2 N7_2 1_555 1_555
H16_2 C30_2 1_555 1_555
N3_2 Tb5_2 1_555 1_555
O17_2 C25_2 1_555 1_555
N16_2 C30_2 1_555 1_555
C23_2 C25_2 1_555 1_555
Tb7 O5_2 1_555 1_555
O19 C6_2 1_555 1_555
O5_2 C2_2 1_555 1_555
O6_2 C5_2 1_555 1_555
O7_2 Tb7 1_555 1_555
O10_2 C2_2 1_555 1_555
O11_2 Tb7 1_555 1_555
C2_2 C4_2 1_555 1_555
O12_2 C7_2 1_555 1_555
N2_2 H1_2 1_555 1_555
N4_2 C4_2 1_555 1_555
C3_2 N2_2 1_555 1_555
C4_2 C3_2 1_555 1_555
C5_2 O7_2 1_555 1_555
C6_2 O11_2 1_555 1_555
C7_2 C9_2 1_555 1_555
C13_2 N2_2 1_555 1_555
H5_2 C13_2 1_555 1_555
O13_2 Tb7 1_555 1_555
H7_2 O13_2 1_555 1_555
H8_2 O13_2 1_555 1_555
Tb8_2 O10_2 1_555 1_555
O26_2 Tb3_2 1_555 1_555
N10_2 Tb3_2 1_555 1_555
O6_2 Tb3_2 1_555 1_555
N4_2 C13_2 1_555 1_555
N4_2 Tb8_2 1_555 1_555
C3_2 C6_2 1_555 1_555
C5_2 C14_2 1_555 1_555
Tb10_2 O28_2 1_555 1_555
O20 C21_2 1_555 1_555
O21_2 Tb9 1_555 1_555
O22_2 Tb1_2 1_555 1_555
O23_2 Tb9 1_555 1_555
O27_2 Tb1_2 1_555 1_555
O28_2 C17_2 1_555 1_555
O31_2 Tb9 1_555 1_555
C17_2 O21_2 1_555 1_555
O32_2 C22_2 1_555 1_555
N8_2 H11_2 1_555 1_555
N11_2 Tb1_2 1_555 1_555
N12_2 Tb10_2 1_555 1_555
C18_2 N8_2 1_555 1_555
C19_2 C17_2 1_555 1_555
C20_2 O22_2 1_555 1_555
C21_2 O31_2 1_555 1_555
C28_2 N8_2 1_555 1_555
H15_2 C28_2 1_555 1_555
O33_2 Tb9 1_555 1_555
H17_2 O33_2 1_555 1_555
H18_2 O33_2 1_555 1_555
O23_2 C20_2 1_555 1_555
N12_2 C19_2 1_555 1_555
N12_2 C28_2 1_555 1_555
C18_2 C19_2 1_555 1_555
C18_2 C21_2 1_555 1_555
C20_2 C29_2 1_555 1_555
C22_2 C24_2 1_555 1_555
O1_2 C10_2 1_555 1_555
N6_2 H3_2 1_555 1_555
C8_2 N6_2 1_555 1_555
C10_2 O3_2 1_555 1_555
C15_2 N1_2 1_555 1_555
H6_2 C15_2 1_555 1_555
Tb4_2 O25_2 1_555 1_555
O25_2 C16_2 1_555 1_555
C16_2 O24_2 1_555 1_555
N9_2 Tb4_2 1_555 1_555
C26_2 C16_2 1_555 1_555
H19_2 O34_2 1_555 1_555
H20_2 O34_2 1_555 1_555
N6_2 C15_2 1_555 1_555
C8_2 C10_2 1_555 1_555
N9_2 C26_2 1_555 1_555
O2_3 C7_3 1_555 1_555
O4_2 C6_3 1_555 1_555
C2_3 C4_3 1_555 1_555
O12_3 C7_3 1_555 1_555
N2_3 H1_3 1_555 1_555
N13 C4_3 1_555 1_555
N5_2 H2_2 1_555 1_555
C3_3 N2_3 1_555 1_555
N6_3 H3_3 1_555 1_555
C4_3 C3_3 1_555 1_555
C6_3 O11_3 1_555 1_555
C7_3 C9_3 1_555 1_555
C8_3 N6_3 1_555 1_555
C9_3 N5_2 1_555 1_555
C10_3 O3_3 1_555 1_555
C13_3 N2_3 1_555 1_555
H5_3 C13_3 1_555 1_555
C14_3 N1_3 1_555 1_555
C15_3 N1_3 1_555 1_555
H6_3 C15_3 1_555 1_555
Tb10_2 O4_2 1_555 1_555
N13 C13_3 1_555 1_555
C3_3 C6_3 1_555 1_555
N6_3 C15_3 1_555 1_555
C8_3 C10_3 1_555 1_555
C8_3 C14_3 1_555 1_555
O8_3 Tb4_2 1_555 1_555
O26_2 C1_3 1_555 1_555
C1_3 O8_3 1_555 1_555
N10_2 C11_3 1_555 1_555
C11_3 C1_3 1_555 1_555
C12_2 N10_2 1_555 1_555
H4_2 C12_2 1_555 1_555
O14_3 Tb4_2 1_555 1_555
H9_3 O14_3 1_555 1_555
H10_3 O14_3 1_555 1_555
Tb10 O19_2 1_555 1_555
O15_3 Tb4_2 1_555 1_555
O21_3 Tb10 1_555 1_555
O22_3 Tb4_2 1_555 1_555
O23_3 Tb10 1_555 1_555
C20_3 O22_3 1_555 1_555
O33_3 Tb10 1_555 1_555
H17_3 O33_3 1_555 1_555
H18_3 O33_3 1_555 1_555
O23_3 C20_3 1_555 1_555
Tb8 O5_3 1_555 1_555
O6_3 C5_3 1_555 1_555
O7_3 Tb8 1_555 1_555
C5_3 O7_3 1_555 1_555
O13_3 Tb8 1_555 1_555
H7_3 O13_3 1_555 1_555
H8_3 O13_3 1_555 1_555
Tb5_2 O1_3 1_555 1_555
O20_2 Tb8 1_555 1_555
O24_3 Tb5_2 1_555 1_555
O27_2 C16_3 1_555 1_555
C16_3 O24_3 1_555 1_555
C26_3 C16_3 1_555 1_555
C27_2 N11_2 1_555 1_555
H14_2 C27_2 1_555 1_555
O34_3 Tb5_2 1_555 1_555
H19_3 O34_3 1_555 1_555
H20_3 O34_3 1_555 1_555
O6_3 Tb5_2 1_555 1_555
N11_2 C26_3 1_555 1_555
Tb8_2 O18_2 1_555 1_555
O18_2 C21_3 1_555 1_555
O32_3 C22_3 1_555 1_555
N8_3 H11_3 1_555 1_555
N15_2 H12_2 1_555 1_555
C18_3 N8_3 1_555 1_555
N16_3 H13_3 1_555 1_555
C19_3 C17_3 1_555 1_555
C21_3 O31_3 1_555 1_555
C22_3 O16_3 1_555 1_555
C23_3 N16_3 1_555 1_555
C24_3 N15_2 1_555 1_555
C28_3 N8_3 1_555 1_555
H15_3 C28_3 1_555 1_555
C29_3 N7_3 1_555 1_555
C30_3 N7_3 1_555 1_555
H16_3 C30_3 1_555 1_555
O17_3 C25_3 1_555 1_555
N14 C19_3 1_555 1_555
N14 C28_3 1_555 1_555
C18_3 C19_3 1_555 1_555
C18_3 C21_3 1_555 1_555
N16_3 C30_3 1_555 1_555
C22_3 C24_3 1_555 1_555
C23_3 C25_3 1_555 1_555
C23_3 C29_3 1_555 1_555
Tb4 O2_4 1_555 1_555
Tb8_2 O5_4 1_555 1_555
O1_4 C10_4 1_555 1_555
O2_4 C7_4 1_555 1_555
O3_4 Tb4 1_555 1_555
O19_2 C6_4 1_555 1_555
O5_4 C2_4 1_555 1_555
O6_4 C5_4 1_555 1_555
O7_4 Tb8_2 1_555 1_555
O8_4 Tb4 1_555 1_555
O26 C1_4 1_555 1_555
C1_4 O8_4 1_555 1_555
O29_2 C2_4 1_555 1_555
O11_4 Tb8_2 1_555 1_555
C2_4 C4_4 1_555 1_555
O12_4 C7_4 1_555 1_555
N1_4 Tb8_2 1_555 1_555
N2_4 H1_4 1_555 1_555
N10 C11_4 1_555 1_555
N13_2 C4_4 1_555 1_555
C3_4 N2_4 1_555 1_555
N6_4 H3_4 1_555 1_555
C4_4 C3_4 1_555 1_555
C5_4 O7_4 1_555 1_555
C6_4 O11_4 1_555 1_555
C7_4 C9_4 1_555 1_555
C8_4 N6_4 1_555 1_555
C10_4 O3_4 1_555 1_555
C11_4 C1_4 1_555 1_555
C13_4 N2_4 1_555 1_555
H5_4 C13_4 1_555 1_555
C14_4 N1_4 1_555 1_555
C15_4 N1_4 1_555 1_555
H6_4 C15_4 1_555 1_555
O13_4 Tb8_2 1_555 1_555
H7_4 O13_4 1_555 1_555
H8_4 O13_4 1_555 1_555
O14_4 Tb4 1_555 1_555
H9_4 O14_4 1_555 1_555
H10_4 O14_4 1_555 1_555
Tb5 O1_4 1_555 1_555
O15_4 Tb4 1_555 1_555
O16_4 Tb5 1_555 1_555
O17_4 Tb5 1_555 1_555
O20_2 C21_4 1_555 1_555
O21_4 Tb10_2 1_555 1_555
O22_4 Tb4 1_555 1_555
O23_4 Tb10_2 1_555 1_555
O24_4 Tb5 1_555 1_555
O27 C16_4 1_555 1_555
C16_4 O24_4 1_555 1_555
O30_2 C17_4 1_555 1_555
O31_4 Tb10_2 1_555 1_555
C17_4 O21_4 1_555 1_555
O32_4 C22_4 1_555 1_555
N7_4 Tb10_2 1_555 1_555
N8_4 H11_4 1_555 1_555
C18_4 N8_4 1_555 1_555
N16_4 H13_4 1_555 1_555
C19_4 C17_4 1_555 1_555
C20_4 O22_4 1_555 1_555
C21_4 O31_4 1_555 1_555
C22_4 O16_4 1_555 1_555
C23_4 N16_4 1_555 1_555
C25_4 O15_4 1_555 1_555
C26_4 C16_4 1_555 1_555
C28_4 N8_4 1_555 1_555
H15_4 C28_4 1_555 1_555
C29_4 N7_4 1_555 1_555
C30_4 N7_4 1_555 1_555
H16_4 C30_4 1_555 1_555
O33_4 Tb10_2 1_555 1_555
H17_4 O33_4 1_555 1_555
H18_4 O33_4 1_555 1_555
O34_4 Tb5 1_555 1_555
H19_4 O34_4 1_555 1_555
H20_4 O34_4 1_555 1_555
O6_4 Tb5 1_555 1_555
N13_2 C13_4 1_555 1_555
C3_4 C6_4 1_555 1_555
N6_4 C15_4 1_555 1_555
C5_4 C14_4 1_555 1_555
C8_4 C10_4 1_555 1_555
C8_4 C14_4 1_555 1_555
C9_4 C11_4 1_555 1_555
O17_4 C25_4 1_555 1_555
O23_4 C20_4 1_555 1_555
N11 C26_4 1_555 1_555
N14_2 C19_4 1_555 1_555
N14_2 C28_4 1_555 1_555
C18_4 C19_4 1_555 1_555
C18_4 C21_4 1_555 1_555
N16_4 C30_4 1_555 1_555
C20_4 C29_4 1_555 1_555
C22_4 C24_4 1_555 1_555
C23_4 C25_4 1_555 1_555
C23_4 C29_4 1_555 1_555
C24_4 C26_4 1_555 1_555
H4_3 C12_3 1_555 1_555
N5_3 H2_3 1_555 1_555
N15_3 H12_3 1_555 1_555
H14_3 C27_3 1_555 1_555
N15_4 H12_4 1_555 1_555
H14_4 C27_4 1_555 1_555
N15_4 C27_4 1_555 1_555
N5_4 H2_4 1_555 1_555
H4_4 C12_4 1_555 1_555
N5_4 C12_4 1_555 1_555

#END
