
###############################################################################
#
# This file contains modified crystal structure data generated from the
# MOF subset of the Cambridge Structural Database (CSD) v543 
# hosted by the Cambridge Crystallographic Data Centre (CCDC).
#
# This work is licensed under the Creative Commons
# Attribution-NonCommercial-ShareAlike 4.0 International License.
# To view a copy of this license, visit
# http://creativecommons.org/licenses/by-nc-sa/4.0/
# or send a letter to
# Creative Commons, PO Box 1866, Mountain View, CA 94042, USA.
#
# CIF created using the CSD Python API on 29 September 2022
# The structure has been converted into the P1 space group
# The structure has a 3D framework
# The original CSD entry UYOHUM is in the triclinic crystal system
# The framework has been calculated to contain at least 10.0% void space
# The void calculation uses a probe of radius 1.32A, grid spacing 0.4
#
###############################################################################

data_UYOHUM
_chemical_formula_moiety         '(C34 H28 Cd6 N42 O2)n'
_symmetry_cell_setting           triclinic
_symmetry_space_group_name_H-M   'P 1'
_symmetry_Int_Tables_number      1
_space_group_name_Hall           'P 1'
loop_
_symmetry_equiv_pos_site_id
_symmetry_equiv_pos_as_xyz
1 x,y,z
_cell_length_a                   8.9792(13)
_cell_length_b                   12.4503(17)
_cell_length_c                   14.096(2)
_cell_angle_alpha                84.466(2)
_cell_angle_beta                 81.596(2)
_cell_angle_gamma                74.138(2)
_cell_volume                     1496.92
loop_
_atom_site_label
_atom_site_type_symbol
_atom_site_fract_x
_atom_site_fract_y
_atom_site_fract_z
Cd10 Cd 0.06431(2) 0.406180(17) 0.396450(15)
N1 N 0.0082(3) 0.2383(2) 0.36303(18)
N4 N 0.1949(3) 0.0226(2) 0.01902(19)
N5 N 0.1382(3) 0.03857(19) 0.17498(17)
C1 C 0.0790(3) 0.1876(2) 0.2832(2)
H3 H 0.1394 0.2232 0.2385
C5 C 0.0658(3) 0.0845(2) 0.2646(2)
C12 C 0.1011(4) 0.0828(2) 0.0857(2)
Cd7 Cd 0.34616(2) 0.434770(17) 0.547760(15)
N29 N 0.2205(4) 0.4034(3) 0.2525(2)
N38 N 0.2482(3) 0.3028(2) 0.4879(2)
N41 N 0.2726(3) 0.2032(2) 0.4948(2)
N42 N 0.2945(6) 0.1086(3) 0.5008(4)
N49 N 0.1327(3) 0.5560(2) 0.46167(19)
Cd2 Cd 0.65384(2) 0.565230(17) 0.452240(15)
N2 N 0.4969(3) 0.7047(2) 0.35736(19)
N3 N 0.2975(3) 0.9365(2) 0.06479(19)
N10 N 0.8591(5) 0.5551(5) 0.1648(3)
N11 N 0.8563(3) 0.5386(3) 0.2468(2)
N12 N 0.8560(3) 0.5208(2) 0.3306(2)
N13 N 0.7518(3) 0.6972(2) 0.5121(2)
N14 N 0.7274(3) 0.7968(2) 0.5052(2)
N15 N 0.7055(6) 0.8914(3) 0.4992(4)
N16 N 0.5379(3) 0.4286(2) 0.4202(2)
N17 N 0.5721(3) 0.3504(2) 0.3715(2)
N18 N 0.6032(5) 0.2746(3) 0.3264(3)
N19 N 0.8673(3) 0.4440(2) 0.53833(19)
N20 N 0.8758(3) 0.3667(2) 0.5985(2)
N21 N 0.8884(5) 0.2920(3) 0.6537(3)
C6 C 0.3611(4) 0.8943(2) 0.3188(2)
H7 H 0.3234 0.9677 0.3370
C7 C 0.4377(4) 0.8113(3) 0.3803(2)
H8 H 0.4487 0.8303 0.4407
C8 C 0.4780(4) 0.6790(3) 0.2714(2)
H9 H 0.5185 0.6053 0.2547
C9 C 0.4018(4) 0.7558(3) 0.2058(2)
H10 H 0.3909 0.7337 0.1466
C10 C 0.3414(3) 0.8663(2) 0.2290(2)
C11 C 0.2622(3) 0.9464(2) 0.1574(2)
Cd11 Cd 0.93569(2) 0.593820(17) 0.603550(15)
N43 N 0.4621(3) 0.5714(2) 0.5798(2)
N46 N 0.4279(3) 0.6496(2) 0.6285(2)
N47 N 0.3968(5) 0.7254(3) 0.6736(3)
Cd1 Cd 0.5000 0.5000 0.0000
O1 O 0.6503(3) 0.6148(2) 0.0217(2)
H2 H 0.7164 0.5952 0.0617
N6 N 0.7171(3) 0.3546(2) 0.02597(19)
N8 N 0.3106(3) 0.4459(2) 0.20743(18)
N9 N 0.4037(3) 0.4862(2) 0.1627(2)
C2 C 0.9215(4) 0.1858(3) 0.4258(2)
H4 H 0.8700 0.2210 0.4811
C3 C 0.9048(4) 0.0815(3) 0.4123(2)
H5 H 0.8446 0.0472 0.4582
C4 C 0.9784(4) 0.0291(3) 0.3301(2)
C13 C 0.9693(3) 0.1791(2) 0.0680(2)
C14 C 0.8262(4) 0.1918(3) 0.1214(2)
H11 H 0.8118 0.1413 0.1727
C15 C 0.7034(4) 0.2804(3) 0.0984(2)
H12 H 0.6068 0.2882 0.1354
H15 H 0.3656 0.3184 0.0026
C33 C 0.1429(4) 0.6572(3) 0.0250(3)
H27 H 0.1314 0.6052 0.0756
C34 C 0.0149(4) 0.7423(3) 0.0063(3)
Cd1_2 Cd 0.5000 0.5000 1.0000
H1 H 0.6344 0.6816 0.9974
C16 C 0.8571(4) 0.3428(3) 0.9750(3)
H13 H 0.8686 0.3948 0.9244
C17 C 0.9851(4) 0.2577(3) 0.9937(3)
O2 O 0.3497(3) 0.3852(2) 0.9783(2)
H16 H 0.2836 0.4048 0.9383
N27 N 0.2829(3) 0.6454(2) 0.97403(19)
N28 N 0.7795(4) 0.5966(3) 0.7475(2)
N31 N 0.6894(3) 0.5541(2) 0.79257(18)
N32 N 0.5963(3) 0.5138(2) 0.8373(2)
N37 N 0.1440(3) 0.4792(2) 0.6694(2)
C19 C 0.0785(4) 0.8142(3) 0.5742(2)
H18 H 0.1300 0.7790 0.5189
C20 C 0.0952(4) 0.9185(3) 0.5877(2)
H19 H 0.1554 0.9528 0.5418
C21 C 0.0216(4) 0.9709(3) 0.6699(2)
C30 C 0.0307(3) 0.8209(2) 0.9320(2)
C31 C 0.1738(4) 0.8082(3) 0.8786(2)
H25 H 0.1882 0.8587 0.8273
C32 C 0.2966(4) 0.7196(3) 0.9016(2)
H26 H 0.3932 0.7118 0.8646
N23 N 0.5031(3) 0.2953(2) 0.64264(19)
N24 N 0.7025(3) 0.0635(2) 0.93521(19)
C23 C 0.6389(4) 0.1057(2) 0.6812(2)
H21 H 0.6766 0.0323 0.6630
C24 C 0.5623(4) 0.1887(3) 0.6197(2)
H22 H 0.5513 0.1697 0.5593
C25 C 0.5220(4) 0.3210(3) 0.7286(2)
H23 H 0.4815 0.3947 0.7453
C26 C 0.5982(4) 0.2442(3) 0.7942(2)
H24 H 0.6091 0.2663 0.8534
C27 C 0.6586(3) 0.1337(2) 0.7710(2)
C28 C 0.7378(3) 0.0536(2) 0.8426(2)
N22 N 0.9918(3) 0.7617(2) 0.63697(18)
N25 N 0.8051(3) 0.9774(2) 0.98098(19)
N26 N 0.8618(3) 0.96143(19) 0.82502(17)
C18 C 0.9210(3) 0.8124(2) 0.7168(2)
H17 H 0.8606 0.7768 0.7615
C22 C 0.9342(3) 0.9155(2) 0.7354(2)
C29 C 0.8989(4) 0.9172(2) 0.9143(2)
N33 N 0.1409(5) 0.4449(5) 0.8352(3)
N34 N 0.1437(3) 0.4614(3) 0.7532(2)
N53 N 0.1242(3) 0.6333(2) 0.4015(2)
N54 N 0.1116(5) 0.7080(3) 0.3463(3)
H14 H 0.0812 0.2530 0.9569
H20 H 0.0304 0.0412 0.6810
H6 H 0.9696 0.9588 0.3190
H28 H 0.9188 0.7470 0.0431
loop_
_geom_bond_atom_site_label_1
_geom_bond_atom_site_label_2
_geom_bond_site_symmetry_1
_geom_bond_site_symmetry_2
Cd10 N1 1_555 1_555
N1 C1 1_555 1_555
N4 C12 1_555 1_555
N5 C5 1_555 1_555
C1 H3 1_555 1_555
C5 C1 1_555 1_555
C12 N5 1_555 1_555
Cd7 N38 1_555 1_555
N29 Cd10 1_555 1_555
N38 Cd10 1_555 1_555
N41 N38 1_555 1_555
N42 N41 1_555 1_555
N49 Cd10 1_555 1_555
Cd7 N49 1_555 1_555
Cd2 N2 1_555 1_555
N2 C7 1_555 1_555
N10 N11 1_555 1_555
N11 N12 1_555 1_555
N12 Cd2 1_555 1_555
N13 Cd2 1_555 1_555
N14 N13 1_555 1_555
N15 N14 1_555 1_555
N16 Cd2 1_555 1_555
N17 N16 1_555 1_555
N18 N17 1_555 1_555
N19 Cd2 1_555 1_555
N20 N19 1_555 1_555
N21 N20 1_555 1_555
C6 H7 1_555 1_555
C7 C6 1_555 1_555
H8 C7 1_555 1_555
C8 N2 1_555 1_555
H9 C8 1_555 1_555
C9 C8 1_555 1_555
H10 C9 1_555 1_555
C10 C6 1_555 1_555
C11 N3 1_555 1_555
Cd7 N16 1_555 1_555
Cd11 N13 1_555 1_555
N43 Cd2 1_555 1_555
N46 N43 1_555 1_555
N47 N46 1_555 1_555
N19 Cd11 1_555 1_555
C9 C10 1_555 1_555
C10 C11 1_555 1_555
Cd7 N43 1_555 1_555
Cd1 O1 1_555 1_555
H2 O1 1_555 1_555
N6 Cd1 1_555 1_555
N29 N8 1_555 1_555
N8 N9 1_555 1_555
N9 Cd1 1_555 1_555
H4 C2 1_555 1_555
C3 C2 1_555 1_555
H5 C3 1_555 1_555
C4 C3 1_555 1_555
C14 C13 1_555 1_555
H11 C14 1_555 1_555
C15 N6 1_555 1_555
H12 C15 1_555 1_555
H27 C33 1_555 1_555
C14 C15 1_555 1_555
C33 C34 1_555 1_555
H13 C16 1_555 1_555
Cd11 N28 1_555 1_555
O2 Cd1_2 1_555 1_555
H16 O2 1_555 1_555
N27 Cd1_2 1_555 1_555
N28 N31 1_555 1_555
N31 N32 1_555 1_555
N32 Cd1_2 1_555 1_555
H18 C19 1_555 1_555
C20 C19 1_555 1_555
H19 C20 1_555 1_555
C21 C20 1_555 1_555
C31 C30 1_555 1_555
H25 C31 1_555 1_555
C32 N27 1_555 1_555
H26 C32 1_555 1_555
C16 C17 1_555 1_555
C31 C32 1_555 1_555
Cd7 N23 1_555 1_555
N23 C24 1_555 1_555
N37 Cd7 1_555 1_555
C23 H21 1_555 1_555
C24 C23 1_555 1_555
H22 C24 1_555 1_555
C25 N23 1_555 1_555
H23 C25 1_555 1_555
C26 C25 1_555 1_555
H24 C26 1_555 1_555
C27 C23 1_555 1_555
C28 N24 1_555 1_555
C26 C27 1_555 1_555
C27 C28 1_555 1_555
Cd11 N22 1_555 1_555
N22 C18 1_555 1_555
N25 C29 1_555 1_555
N26 C22 1_555 1_555
C18 H17 1_555 1_555
C22 C18 1_555 1_555
C29 N26 1_555 1_555
N33 N34 1_555 1_555
N34 N37 1_555 1_555
N53 N49 1_555 1_555
N54 N53 1_555 1_555

#END
