
###############################################################################
#
# This file contains modified crystal structure data generated from the
# MOF subset of the Cambridge Structural Database (CSD) v543 
# hosted by the Cambridge Crystallographic Data Centre (CCDC).
#
# This work is licensed under the Creative Commons
# Attribution-NonCommercial-ShareAlike 4.0 International License.
# To view a copy of this license, visit
# http://creativecommons.org/licenses/by-nc-sa/4.0/
# or send a letter to
# Creative Commons, PO Box 1866, Mountain View, CA 94042, USA.
#
# CIF created using the CSD Python API on 29 September 2022
# The structure has been converted into the P1 space group
# The structure has a 3D framework
# The original CSD entry UYOXUC is in the rhombohedral crystal system
# The framework has been calculated to contain at least 10.0% void space
# The void calculation uses a probe of radius 1.32A, grid spacing 0.4
# The framework is charged, counterions have been retained in the structure
#
###############################################################################

data_UYOXUC
_chemical_formula_moiety         '(C324 H144 Cd20 N72 O128 42-)n'
_symmetry_cell_setting           triclinic
_symmetry_space_group_name_H-M   'P 1'
_symmetry_Int_Tables_number      1
_space_group_name_Hall           'P 1'
loop_
_symmetry_equiv_pos_site_id
_symmetry_equiv_pos_as_xyz
1 x,y,z
_cell_length_a                   25.126(1)
_cell_length_b                   25.126(1)
_cell_length_c                   32.427(2)
_cell_angle_alpha                90
_cell_angle_beta                 90
_cell_angle_gamma                120
_cell_volume                     17729
loop_
_atom_site_label
_atom_site_type_symbol
_atom_site_fract_x
_atom_site_fract_y
_atom_site_fract_z
Cd3 Cd 0.0000 0.632554(12) 0.2500
Cd6 Cd 0.034113(12) 0.3333 0.0833
O11 O 0.08943(10) 0.63102(9) 0.27473(8)
O13 O 0.01642(12) 0.39734(16) 0.12510(8)
O22 O 0.06401(16) 0.71425(10) 0.20823(8)
O29 O 0.00015(10) 0.56043(11) 0.29889(8)
O39 O 0.03143(16) 0.72541(12) 0.29759(9)
Cd1 Cd 0.632554(12) 0.0000 0.2500
O1 O 0.63102(9) 0.08943(10) 0.22527(8)
C1 C 0.61263(13) 0.28534(13) 0.18757(10)
O3 O 0.56043(11) 0.00015(10) 0.20111(8)
N1 N 0.65972(10) 0.27533(10) 0.18765(8)
N2 N 0.55456(13) 0.23673(13) 0.18682(12)
C2 C 0.53457(13) 0.17372(13) 0.18271(11)
C3 C 0.47835(13) 0.13790(14) 0.16396(11)
H1 H 0.4557 0.1557 0.1550
C4 C 0.58127(14) 0.05562(14) 0.20621(11)
C5 C 0.45524(12) 0.07522(14) 0.15828(10)
C6 C 0.39435(15) 0.03687(18) 0.13662(12)
C7 C 0.56751(13) 0.14659(13) 0.19668(10)
H2 H 0.6048 0.1702 0.2102
C8 C 0.54531(13) 0.08510(13) 0.19065(10)
C9 C 0.48964(14) 0.04950(14) 0.17136(11)
H3 H 0.4752 0.0079 0.1671
O4 O 0.36064(11) 0.05874(12) 0.13092(9)
H4 H 0.5323(17) 0.2424(15) 0.1822(12)
Cd2 Cd 0.367446(12) 0.367446(12) 0.2500
Cd3_2 Cd 1.0000 0.632554(12) 0.2500
Cd5 Cd 0.6667 0.700779(12) 0.0833
Cd7 Cd 0.3333 0.034113(12) 0.4167
O5 O 0.45841(13) 0.36898(9) 0.22527(8)
O6 O 0.91057(10) 0.54159(13) 0.22527(8)
O10 O 0.36898(9) 0.45841(13) 0.27473(8)
C10 C 0.71466(13) 0.32729(18) 0.18757(10)
C11 C 0.67271(18) 0.38737(13) 0.18757(10)
O12 O 0.60266(16) 0.61908(10) 0.12510(8)
O14 O 0.39734(16) 0.01642(12) 0.37490(8)
O17 O 0.71425(10) 0.06401(16) 0.29177(8)
O19 O 0.34975(12) 0.28575(10) 0.29177(8)
O20 O 0.28575(10) 0.34975(12) 0.20823(8)
O21 O 0.93599(16) 0.65025(12) 0.29177(8)
O23 O 0.43972(15) 0.43957(11) 0.20111(8)
O24 O 0.99985(10) 0.56028(15) 0.20111(8)
O28 O 0.43957(11) 0.43972(15) 0.29889(8)
N3 N 0.72467(10) 0.38439(14) 0.18765(8)
N4 N 0.61561(14) 0.34028(10) 0.18765(8)
N8 N 0.68217(18) 0.44544(13) 0.18682(12)
N9 N 0.76327(13) 0.31783(18) 0.18682(12)
C15 C 0.63915(18) 0.46543(13) 0.18271(11)
C16 C 0.82628(13) 0.36085(18) 0.18271(11)
C20 C 0.65955(19) 0.52165(13) 0.16396(11)
C21 C 0.86210(14) 0.34045(19) 0.16396(11)
H5 H 0.7000 0.5443 0.1550
H6 H 0.8443 0.3000 0.1550
C25 C 0.47435(20) 0.41873(14) 0.20621(11)
C26 C 0.94438(14) 0.52565(20) 0.20621(11)
C30 C 0.61998(18) 0.54476(12) 0.15828(10)
C31 C 0.92478(14) 0.38002(18) 0.15828(10)
C35 C 0.64252(23) 0.60565(15) 0.13662(12)
C36 C 0.96313(18) 0.35748(23) 0.13662(12)
C40 C 0.57908(18) 0.43249(13) 0.19668(10)
C41 C 0.85341(13) 0.42092(18) 0.19668(10)
H10 H 0.5654 0.3952 0.2102
H11 H 0.8298 0.4346 0.2102
C45 C 0.53979(18) 0.45469(13) 0.19065(10)
C46 C 0.91490(13) 0.46021(18) 0.19065(10)
C50 C 0.55986(20) 0.51036(14) 0.17136(11)
C51 C 0.95050(14) 0.44014(20) 0.17136(11)
H15 H 0.5327 0.5248 0.1671
H16 H 0.9921 0.4673 0.1671
O30 O 0.69810(16) 0.63936(11) 0.13092(9)
O31 O 0.94126(12) 0.30190(16) 0.13092(9)
O36 O 0.72541(12) 0.03143(16) 0.20241(9)
O37 O 0.27459(12) 0.30603(11) 0.29759(9)
O38 O 0.30603(11) 0.27459(12) 0.20241(9)
O40 O 0.96857(16) 0.69397(11) 0.20241(9)
H20 H 0.7101(23) 0.4677(17) 0.1822(12)
H21 H 0.7576(15) 0.2899(23) 0.1822(12)
Cd1_2 Cd 0.632554(12) 1.0000 0.2500
O2 O 0.38092(10) 0.98358(12) 0.12510(8)
Cd4 Cd 0.299221(12) 0.965887(12) 0.0833
Cd10 Cd 0.700779(12) 0.6667 0.4167
O7 O 0.54159(13) 0.91057(10) 0.27473(8)
C12 C 0.32729(18) 0.71466(13) 0.31243(10)
C13 C 0.38737(13) 0.67271(18) 0.31243(10)
C14 C 0.28534(13) 0.61263(13) 0.31243(10)
O16 O 0.61908(10) 0.60266(16) 0.37490(8)
O18 O 0.65025(12) 0.93599(16) 0.20823(8)
O25 O 0.56028(15) 0.99985(10) 0.29889(8)
N5 N 0.38439(14) 0.72467(10) 0.31235(8)
N6 N 0.34028(10) 0.61561(14) 0.31235(8)
N7 N 0.27533(10) 0.65972(10) 0.31235(8)
N10 N 0.31783(18) 0.76327(13) 0.31318(12)
N11 N 0.23673(13) 0.55456(13) 0.31318(12)
N12 N 0.44544(13) 0.68217(18) 0.31318(12)
C17 C 0.36085(18) 0.82628(13) 0.31729(11)
C18 C 0.17372(13) 0.53457(13) 0.31729(11)
C19 C 0.46543(13) 0.63915(18) 0.31729(11)
C22 C 0.34045(19) 0.86210(14) 0.33604(11)
C23 C 0.13790(14) 0.47835(13) 0.33604(11)
C24 C 0.52165(13) 0.65955(19) 0.33604(11)
H7 H 0.3000 0.8443 0.3450
H8 H 0.1557 0.4557 0.3450
H9 H 0.5443 0.7000 0.3450
C27 C 0.52565(20) 0.94438(14) 0.29379(11)
C28 C 0.05562(14) 0.58127(14) 0.29379(11)
C29 C 0.41873(14) 0.47435(20) 0.29379(11)
C32 C 0.38002(18) 0.92478(14) 0.34172(10)
C33 C 0.07522(14) 0.45524(12) 0.34172(10)
C34 C 0.54476(12) 0.61998(18) 0.34172(10)
C37 C 0.35748(23) 0.96313(18) 0.36338(12)
C38 C 0.03687(18) 0.39435(15) 0.36338(12)
C39 C 0.60565(15) 0.64252(23) 0.36338(12)
C42 C 0.42092(18) 0.85341(13) 0.30332(10)
C43 C 0.14659(13) 0.56751(13) 0.30332(10)
C44 C 0.43249(13) 0.57908(18) 0.30332(10)
H12 H 0.4346 0.8298 0.2898
H13 H 0.1702 0.6048 0.2898
H14 H 0.3952 0.5654 0.2898
C47 C 0.46021(18) 0.91490(13) 0.30935(10)
C48 C 0.08510(13) 0.54531(13) 0.30935(10)
C49 C 0.45469(13) 0.53979(18) 0.30935(10)
C52 C 0.44014(20) 0.95050(14) 0.32864(11)
C53 C 0.04950(14) 0.48964(14) 0.32864(11)
C54 C 0.51036(14) 0.55986(20) 0.32864(11)
H17 H 0.4673 0.9921 0.3329
H18 H 0.0079 0.4752 0.3329
H19 H 0.5248 0.5327 0.3329
O32 O 0.30190(16) 0.94126(12) 0.36908(9)
O33 O 0.05874(12) 0.36064(11) 0.36908(9)
O34 O 0.63936(11) 0.69810(16) 0.36908(9)
O35 O 0.69397(11) 0.96857(16) 0.29759(9)
H22 H 0.2899(23) 0.7576(15) 0.3178(12)
H23 H 0.2424(15) 0.5323(17) 0.3178(12)
H24 H 0.4677(17) 0.7101(23) 0.3178(12)
Cd8 Cd 0.965887(12) 0.299221(12) 0.4167
O15 O 0.98358(12) 0.38092(10) 0.37490(8)
O22_2 O 0.73067(16) 0.04759(10) 0.54157(8)
O39_2 O 0.69810(16) 0.05874(12) 0.63092(9)
O40_2 O 0.63523(16) 0.02731(11) 0.53575(9)
Cd1_3 Cd 0.299221(12) 0.3333 0.5833
O1_2 O 0.29769(9) 0.42276(10) 0.55860(8)
C1_2 C 0.27930(13) 0.61867(13) 0.52090(10)
O2_2 O 0.04759(10) 0.31691(12) 0.45843(8)
O3_2 O 0.22710(11) 0.33348(10) 0.53444(8)
N1_2 N 0.32639(10) 0.60866(10) 0.52098(8)
N2_2 N 0.22123(13) 0.57006(13) 0.52015(12)
C2_2 C 0.20124(13) 0.50705(13) 0.51604(11)
C3_2 C 0.14502(13) 0.47123(14) 0.49729(11)
H1_2 H 0.1224 0.4890 0.4883
C4_2 C 0.24794(14) 0.38895(14) 0.53954(11)
C5_2 C 0.12191(12) 0.40855(14) 0.49161(10)
C6_2 C 0.06102(15) 0.37020(18) 0.46995(12)
C7_2 C 0.23418(13) 0.47992(13) 0.53001(10)
H2_2 H 0.2715 0.5035 0.5435
C8_2 C 0.21198(13) 0.41843(13) 0.52398(10)
C9_2 C 0.15631(14) 0.38283(14) 0.50469(11)
H3_2 H 0.1419 0.3412 0.5004
O4_2 O 0.02731(11) 0.39207(12) 0.46425(9)
H4_2 H 0.1990(17) 0.5757(15) 0.5155(12)
Cd2_2 Cd 0.034113(12) 0.700779(12) 0.5833
Cd3_3 Cd 0.6667 0.965887(12) 0.5833
Cd7_2 Cd 0.0000 0.367446(12) 0.7500
Cd10_2 Cd 0.367446(12) 0.0000 0.7500
O5_2 O 0.12508(13) 0.70231(9) 0.55860(8)
O6_2 O 0.57724(10) 0.87492(13) 0.55860(8)
O7_2 O 0.20826(13) 0.24390(10) 0.60806(8)
O10_2 O 0.03565(9) 0.79174(13) 0.60806(8)
O11_2 O 0.75610(10) 0.96435(9) 0.60806(8)
C10_2 C 0.38133(13) 0.66062(18) 0.52090(10)
C11_2 C 0.33938(18) 0.72070(13) 0.52090(10)
C13_2 C 0.05404(13) 0.00604(18) 0.64576(10)
O12_2 O 0.26933(16) 0.95241(10) 0.45843(8)
O13_2 O 0.68309(12) 0.73067(16) 0.45843(8)
O14_2 O 0.06401(16) 0.34975(12) 0.70823(8)
O17_2 O 0.38092(10) 0.39734(16) 0.62510(8)
O18_2 O 0.31691(12) 0.26933(16) 0.54157(8)
O19_2 O 0.01642(12) 0.61908(10) 0.62510(8)
O21_2 O 0.60266(16) 0.98358(12) 0.62510(8)
O23_2 O 0.10639(15) 0.77290(11) 0.53444(8)
O24_2 O 0.66652(10) 0.89361(15) 0.53444(8)
O25_2 O 0.22695(15) 0.33318(10) 0.63222(8)
O28_2 O 0.10624(11) 0.77305(15) 0.63222(8)
O29_2 O 0.66682(10) 0.89376(11) 0.63222(8)
N3_2 N 0.39134(10) 0.71772(14) 0.52098(8)
N4_2 N 0.28228(14) 0.67361(10) 0.52098(8)
N5_2 N 0.05106(14) 0.05800(10) 0.64568(8)
N8_2 N 0.34884(18) 0.77877(13) 0.52015(12)
N9_2 N 0.42994(13) 0.65116(18) 0.52015(12)
N12_2 N 0.11211(13) 0.01550(18) 0.64651(12)
C15_2 C 0.30582(18) 0.79876(13) 0.51604(11)
C16_2 C 0.49295(13) 0.69418(18) 0.51604(11)
C17_2 C 0.02752(18) 0.15961(13) 0.65062(11)
C20_2 C 0.32622(19) 0.85498(13) 0.49729(11)
C21_2 C 0.52877(14) 0.67378(19) 0.49729(11)
C22_2 C 0.00712(19) 0.19543(14) 0.66937(11)
H5_2 H 0.3667 0.8776 0.4883
H6_2 H 0.5110 0.6333 0.4883
H9_2 H 0.2110 0.0333 0.6783
C25_2 C 0.14102(20) 0.75206(14) 0.53954(11)
C26_2 C 0.61105(14) 0.85898(20) 0.53954(11)
C27_2 C 0.19232(20) 0.27771(14) 0.62712(11)
C30_2 C 0.28665(18) 0.87809(12) 0.49161(10)
C31_2 C 0.59145(14) 0.71335(18) 0.49161(10)
C32_2 C 0.04669(18) 0.25811(14) 0.67505(10)
C35_2 C 0.30919(23) 0.93898(15) 0.46995(12)
C36_2 C 0.62980(18) 0.69081(23) 0.46995(12)
C37_2 C 0.02415(23) 0.29646(18) 0.69671(12)
C40_2 C 0.24575(18) 0.76582(13) 0.53001(10)
C41_2 C 0.52008(13) 0.75425(18) 0.53001(10)
C42_2 C 0.08759(18) 0.18674(13) 0.63665(10)
H10_2 H 0.2321 0.7285 0.5435
H11_2 H 0.4965 0.7679 0.5435
H12_2 H 0.1013 0.1631 0.6231
C45_2 C 0.20646(18) 0.78802(13) 0.52398(10)
C46_2 C 0.58157(13) 0.79354(18) 0.52398(10)
C47_2 C 0.12688(18) 0.24823(13) 0.64268(10)
C50_2 C 0.22653(20) 0.84369(14) 0.50469(11)
C51_2 C 0.61717(14) 0.77347(20) 0.50469(11)
C52_2 C 0.10681(20) 0.28383(14) 0.66197(11)
H15_2 H 0.1994 0.8581 0.5004
H16_2 H 0.6588 0.8006 0.5004
H17_2 H 0.1340 0.3254 0.6662
O30_2 O 0.36477(16) 0.97269(11) 0.46425(9)
O31_2 O 0.60793(12) 0.63523(16) 0.46425(9)
O34_2 O 0.30603(11) 0.03143(16) 0.70241(9)
O35_2 O 0.36064(11) 0.30190(16) 0.63092(9)
O36_2 O 0.39207(12) 0.36477(16) 0.53575(9)
H20_2 H 0.3768(23) 0.8010(17) 0.5155(12)
H21_2 H 0.4243(15) 0.6232(23) 0.5155(12)
H24_2 H 0.1344(17) 0.0434(23) 0.6511(12)
Cd10_3 Cd 0.367446(12) 1.0000 0.7500
O16_2 O 0.28575(10) 0.93599(16) 0.70823(8)
N6_2 N 0.00695(10) 0.94894(14) 0.64568(8)
C19_2 C 0.13210(13) 0.97248(18) 0.65062(11)
C24_2 C 0.18832(13) 0.99288(19) 0.66937(11)
C29_2 C 0.08540(14) 0.80768(20) 0.62712(11)
C34_2 C 0.21143(12) 0.95331(18) 0.67505(10)
C39_2 C 0.27232(15) 0.97585(23) 0.69671(12)
C44_2 C 0.09916(13) 0.91241(18) 0.63665(10)
H14_2 H 0.0619 0.8987 0.6231
C49_2 C 0.12136(13) 0.87312(18) 0.64268(10)
C54_2 C 0.17703(14) 0.89319(20) 0.66197(11)
H19_2 H 0.1915 0.8660 0.6662
Cd7_3 Cd 1.0000 0.367446(12) 0.7500
C12_2 C 0.99396(18) 0.04799(13) 0.64576(10)
O20_2 O 0.95241(10) 0.68309(12) 0.54157(8)
N10_2 N 0.98450(18) 0.09660(13) 0.64651(12)
H7_2 H 0.9667 0.1776 0.6783
O32_2 O 0.96857(16) 0.27459(12) 0.70241(9)
O37_2 O 0.94126(12) 0.63936(11) 0.63092(9)
O38_2 O 0.97269(11) 0.60793(12) 0.53575(9)
H22_2 H 0.9566(23) 0.0909(15) 0.6511(12)
Cd8_2 Cd 0.632554(12) 0.632554(12) 0.7500
C14_2 C 0.95201(13) 0.94596(13) 0.64576(10)
O15_2 O 0.65025(12) 0.71425(10) 0.70823(8)
N7_2 N 0.94200(10) 0.99305(10) 0.64568(8)
N11_2 N 0.90340(13) 0.88789(13) 0.64651(12)
C18_2 C 0.84039(13) 0.86790(13) 0.65062(11)
C23_2 C 0.80457(14) 0.81168(13) 0.66937(11)
H8_2 H 0.8224 0.7890 0.6783
C28_2 C 0.72229(14) 0.91460(14) 0.62712(11)
C33_2 C 0.74189(14) 0.78857(12) 0.67505(10)
C38_2 C 0.70354(18) 0.72768(15) 0.69671(12)
C43_2 C 0.81326(13) 0.90084(13) 0.63665(10)
H13_2 H 0.8369 0.9381 0.6231
C48_2 C 0.75177(13) 0.87864(13) 0.64268(10)
C53_2 C 0.71617(14) 0.82297(14) 0.66197(11)
H18_2 H 0.6746 0.8085 0.6662
O33_2 O 0.72541(12) 0.69397(11) 0.70241(9)
H23_2 H 0.9091(15) 0.8656(17) 0.6511(12)
Cd3_4 Cd 0.3333 0.299221(12) 0.9167
O6_3 O 0.24390(10) 0.20826(13) 0.89194(8)
O11_3 O 0.42276(10) 0.29769(9) 0.94140(8)
C11_3 C 0.00604(18) 0.05404(13) 0.85424(10)
O13_3 O 0.34975(12) 0.06401(16) 0.79177(8)
O21_3 O 0.26933(16) 0.31691(12) 0.95843(8)
O22_3 O 0.39734(16) 0.38092(10) 0.87490(8)
O24_3 O 0.33318(10) 0.22695(15) 0.86778(8)
O29_3 O 0.33348(10) 0.22710(11) 0.96556(8)
N3_3 N 0.05800(10) 0.05106(14) 0.85432(8)
N8_3 N 0.01550(18) 0.11211(13) 0.85349(12)
C16_3 C 0.15961(13) 0.02752(18) 0.84938(11)
C21_3 C 0.19543(14) 0.00712(19) 0.83063(11)
H5_3 H 0.0333 0.2110 0.8217
C26_3 C 0.27771(14) 0.19232(20) 0.87288(11)
C31_3 C 0.25811(14) 0.04669(18) 0.82495(10)
C36_3 C 0.29646(18) 0.02415(23) 0.80329(12)
C41_3 C 0.18674(13) 0.08759(18) 0.86335(10)
H11_3 H 0.1631 0.1013 0.8769
C46_3 C 0.24823(13) 0.12688(18) 0.85732(10)
C51_3 C 0.28383(14) 0.10681(20) 0.83803(11)
H16_3 H 0.3254 0.1340 0.8338
O30_3 O 0.03143(16) 0.30603(11) 0.79759(9)
O39_3 O 0.36477(16) 0.39207(12) 0.96425(9)
O40_3 O 0.30190(16) 0.36064(11) 0.86908(9)
H20_3 H 0.0434(23) 0.1344(17) 0.8489(12)
C10_3 C 0.04799(13) 0.99396(18) 0.85424(10)
O17_3 O 0.04759(10) 0.73067(16) 0.95843(8)
N9_3 N 0.09660(13) 0.98450(18) 0.85349(12)
H6_3 H 0.1776 0.9667 0.8217
O31_3 O 0.27459(12) 0.96857(16) 0.79759(9)
O35_3 O 0.02731(11) 0.63523(16) 0.96425(9)
O36_3 O 0.05874(12) 0.69810(16) 0.86908(9)
H21_3 H 0.0909(15) 0.9566(23) 0.8489(12)
Cd2_3 Cd 0.700779(12) 0.034113(12) 0.9167
O5_3 O 0.79174(13) 0.03565(9) 0.89194(8)
O10_3 O 0.70231(9) 0.12508(13) 0.94140(8)
O12_3 O 0.93599(16) 0.28575(10) 0.79177(8)
O20_3 O 0.61908(10) 0.01642(12) 0.87490(8)
O23_3 O 0.77305(15) 0.10624(11) 0.86778(8)
O28_3 O 0.77290(11) 0.10639(15) 0.96556(8)
N4_3 N 0.94894(14) 0.00695(10) 0.85432(8)
C15_3 C 0.97248(18) 0.13210(13) 0.84938(11)
C20_3 C 0.99288(19) 0.18832(13) 0.83063(11)
C25_3 C 0.80768(20) 0.08540(14) 0.87288(11)
C30_3 C 0.95331(18) 0.21143(12) 0.82495(10)
C35_3 C 0.97585(23) 0.27232(15) 0.80329(12)
C40_3 C 0.91241(18) 0.09916(13) 0.86335(10)
H10_3 H 0.8987 0.0619 0.8769
C45_3 C 0.87312(18) 0.12136(13) 0.85732(10)
C50_3 C 0.89319(20) 0.17703(14) 0.83803(11)
H15_3 H 0.8660 0.1915 0.8338
O14_3 O 0.73067(16) 0.68309(12) 0.04157(8)
O15_3 O 0.31691(12) 0.04759(10) 0.04157(8)
O16_3 O 0.95241(10) 0.26933(16) 0.04157(8)
C22_3 C 0.67378(19) 0.52877(14) 0.00271(11)
C23_3 C 0.47123(14) 0.14502(13) 0.00271(11)
C24_3 C 0.85498(13) 0.32622(19) 0.00271(11)
H7_3 H 0.6333 0.5110 0.0117
H8_3 H 0.4890 0.1224 0.0117
H9_3 H 0.8776 0.3667 0.0117
C32_3 C 0.71335(18) 0.59145(14) 0.00839(10)
C33_3 C 0.40855(14) 0.12191(12) 0.00839(10)
C34_3 C 0.87809(12) 0.28665(18) 0.00839(10)
C37_3 C 0.69081(23) 0.62980(18) 0.03005(12)
C38_3 C 0.37020(18) 0.06102(15) 0.03005(12)
C39_3 C 0.93898(15) 0.30919(23) 0.03005(12)
O32_3 O 0.63523(16) 0.60793(12) 0.03575(9)
O33_3 O 0.39207(12) 0.02731(11) 0.03575(9)
O34_3 O 0.97269(11) 0.36477(16) 0.03575(9)
Cd1_4 Cd 0.965887(12) 0.6667 0.9167
O1_3 O 0.96435(9) 0.75610(10) 0.89194(8)
C1_3 C 0.94596(13) 0.95201(13) 0.85424(10)
O2_3 O 0.71425(10) 0.65025(12) 0.79177(8)
O3_3 O 0.89376(11) 0.66682(10) 0.86778(8)
N1_3 N 0.99305(10) 0.94200(10) 0.85432(8)
N2_3 N 0.88789(13) 0.90340(13) 0.85349(12)
C2_3 C 0.86790(13) 0.84039(13) 0.84938(11)
C3_3 C 0.81168(13) 0.80457(14) 0.83063(11)
H1_3 H 0.7890 0.8224 0.8217
C4_3 C 0.91460(14) 0.72229(14) 0.87288(11)
C5_3 C 0.78857(12) 0.74189(14) 0.82495(10)
C6_3 C 0.72768(15) 0.70354(18) 0.80329(12)
C7_3 C 0.90084(13) 0.81326(13) 0.86335(10)
H2_3 H 0.9381 0.8369 0.8769
C8_3 C 0.87864(13) 0.75177(13) 0.85732(10)
C9_3 C 0.82297(14) 0.71617(14) 0.83803(11)
H3_3 H 0.8085 0.6746 0.8338
O4_3 O 0.69397(11) 0.72541(12) 0.79759(9)
H4_3 H 0.8656(17) 0.9091(15) 0.8489(12)
O7_3 O 0.87492(13) 0.57724(10) 0.94140(8)
C12_3 C 0.66062(18) 0.38133(13) 0.97910(10)
C13_3 C 0.72070(13) 0.33938(18) 0.97910(10)
C14_3 C 0.61867(13) 0.27930(13) 0.97910(10)
O18_3 O 0.98358(12) 0.60266(16) 0.87490(8)
O19_3 O 0.68309(12) 0.95241(10) 0.95843(8)
O25_3 O 0.89361(15) 0.66652(10) 0.96556(8)
N5_3 N 0.71772(14) 0.39134(10) 0.97902(8)
N6_3 N 0.67361(10) 0.28228(14) 0.97902(8)
N7_3 N 0.60866(10) 0.32639(10) 0.97902(8)
N10_3 N 0.65116(18) 0.42994(13) 0.97985(12)
N11_3 N 0.57006(13) 0.22123(13) 0.97985(12)
N12_3 N 0.77877(13) 0.34884(18) 0.97985(12)
C17_3 C 0.69418(18) 0.49295(13) 0.98396(11)
C18_3 C 0.50705(13) 0.20124(13) 0.98396(11)
C19_3 C 0.79876(13) 0.30582(18) 0.98396(11)
C27_3 C 0.85898(20) 0.61105(14) 0.96046(11)
C28_3 C 0.38895(14) 0.24794(14) 0.96046(11)
C29_3 C 0.75206(14) 0.14102(20) 0.96046(11)
C42_3 C 0.75425(18) 0.52008(13) 0.96999(10)
C43_3 C 0.47992(13) 0.23418(13) 0.96999(10)
C44_3 C 0.76582(13) 0.24575(18) 0.96999(10)
H12_3 H 0.7679 0.4965 0.9565
H13_3 H 0.5035 0.2715 0.9565
H14_3 H 0.7285 0.2321 0.9565
C47_3 C 0.79354(18) 0.58157(13) 0.97602(10)
C48_3 C 0.41843(13) 0.21198(13) 0.97602(10)
C49_3 C 0.78802(13) 0.20646(18) 0.97602(10)
C52_3 C 0.77347(20) 0.61717(14) 0.99531(11)
C53_3 C 0.38283(14) 0.15631(14) 0.99531(11)
C54_3 C 0.84369(14) 0.22653(20) 0.99531(11)
H17_3 H 0.8006 0.6588 0.9996
H18_3 H 0.3412 0.1419 0.9996
H19_3 H 0.8581 0.1994 0.9996
O37_3 O 0.60793(12) 0.97269(11) 0.96425(9)
O38_3 O 0.63936(11) 0.94126(12) 0.86908(9)
H22_3 H 0.6232(23) 0.4243(15) 0.9845(12)
H23_3 H 0.5757(15) 0.1990(17) 0.9845(12)
H24_3 H 0.8010(17) 0.3768(23) 0.9845(12)
O7_4 O 0.45841(13) 0.08943(10) 0.72527(8)
O8 O 0.91057(10) 0.36898(9) 0.72527(8)
O9 O 0.63102(9) 0.54159(13) 0.72527(8)
C12_4 C 0.67271(18) 0.28534(13) 0.68757(10)
C13_4 C 0.61263(13) 0.32729(18) 0.68757(10)
C14_4 C 0.71466(13) 0.38737(13) 0.68757(10)
O25_4 O 0.43972(15) 0.00015(10) 0.70111(8)
O26 O 0.99985(10) 0.43957(11) 0.70111(8)
O27 O 0.56043(11) 0.56028(15) 0.70111(8)
N5_4 N 0.61561(14) 0.27533(10) 0.68765(8)
N6_4 N 0.65972(10) 0.38439(14) 0.68765(8)
N7_4 N 0.72467(10) 0.34028(10) 0.68765(8)
N10_4 N 0.68217(18) 0.23673(13) 0.68682(12)
N11_4 N 0.76327(13) 0.44544(13) 0.68682(12)
N12_4 N 0.55456(13) 0.31783(18) 0.68682(12)
C17_4 C 0.63915(18) 0.17372(13) 0.68271(11)
C18_4 C 0.82628(13) 0.46543(13) 0.68271(11)
C19_4 C 0.53457(13) 0.36085(18) 0.68271(11)
C22_4 C 0.65955(19) 0.13790(14) 0.66396(11)
C23_4 C 0.86210(14) 0.52165(13) 0.66396(11)
C24_4 C 0.47835(13) 0.34045(19) 0.66396(11)
H7_4 H 0.7000 0.1557 0.6550
H8_4 H 0.8443 0.5443 0.6550
H9_4 H 0.4557 0.3000 0.6550
C27_4 C 0.47435(20) 0.05562(14) 0.70621(11)
C28_4 C 0.94438(14) 0.41873(14) 0.70621(11)
C29_4 C 0.58127(14) 0.52565(20) 0.70621(11)
C32_4 C 0.61998(18) 0.07522(14) 0.65828(10)
C33_4 C 0.92478(14) 0.54476(12) 0.65828(10)
C34_4 C 0.45524(12) 0.38002(18) 0.65828(10)
C37_4 C 0.64252(23) 0.03687(18) 0.63662(12)
C38_4 C 0.96313(18) 0.60565(15) 0.63662(12)
C39_4 C 0.39435(15) 0.35748(23) 0.63662(12)
C42_4 C 0.57908(18) 0.14659(13) 0.69668(10)
C43_4 C 0.85341(13) 0.43249(13) 0.69668(10)
C44_4 C 0.56751(13) 0.42092(18) 0.69668(10)
H12_4 H 0.5654 0.1702 0.7102
H13_4 H 0.8298 0.3952 0.7102
H14_4 H 0.6048 0.4346 0.7102
C47_4 C 0.53979(18) 0.08510(13) 0.69065(10)
C48_4 C 0.91490(13) 0.45469(13) 0.69065(10)
C49_4 C 0.54531(13) 0.46021(18) 0.69065(10)
C52_4 C 0.55986(20) 0.04950(14) 0.67136(11)
C53_4 C 0.95050(14) 0.51036(14) 0.67136(11)
C54_4 C 0.48964(14) 0.44014(20) 0.67136(11)
H17_4 H 0.5327 0.0079 0.6671
H18_4 H 0.9921 0.5248 0.6671
H19_4 H 0.4752 0.4673 0.6671
H22_4 H 0.7101(23) 0.2424(15) 0.6822(12)
H23_4 H 0.7576(15) 0.4677(17) 0.6822(12)
H24_4 H 0.5323(17) 0.2899(23) 0.6822(12)
O1_4 O 0.36898(9) 0.91057(10) 0.77473(8)
C1_4 C 0.38737(13) 0.71466(13) 0.81243(10)
O3_4 O 0.43957(11) 0.99985(10) 0.79889(8)
N1_4 N 0.34028(10) 0.72467(10) 0.81235(8)
N2_4 N 0.44544(13) 0.76327(13) 0.81318(12)
C2_4 C 0.46543(13) 0.82628(13) 0.81729(11)
C3_4 C 0.52165(13) 0.86210(14) 0.83604(11)
H1_4 H 0.5443 0.8443 0.8450
C4_4 C 0.41873(14) 0.94438(14) 0.79379(11)
C5_4 C 0.54476(12) 0.92478(14) 0.84172(10)
C6_4 C 0.60565(15) 0.96313(18) 0.86338(12)
C7_4 C 0.43249(13) 0.85341(13) 0.80332(10)
H2_4 H 0.3952 0.8298 0.7898
C8_4 C 0.45469(13) 0.91490(13) 0.80935(10)
C9_4 C 0.51036(14) 0.95050(14) 0.82864(11)
H3_4 H 0.5248 0.9921 0.8329
H4_4 H 0.4677(17) 0.7576(15) 0.8178(12)
O5_4 O 0.54159(13) 0.63102(9) 0.77473(8)
O6_4 O 0.08943(10) 0.45841(13) 0.77473(8)
C10_4 C 0.28534(13) 0.67271(18) 0.81243(10)
C11_4 C 0.32729(18) 0.61263(13) 0.81243(10)
O23_4 O 0.56028(15) 0.56043(11) 0.79889(8)
O24_4 O 0.00015(10) 0.43972(15) 0.79889(8)
N3_4 N 0.27533(10) 0.61561(14) 0.81235(8)
N4_4 N 0.38439(14) 0.65972(10) 0.81235(8)
N8_4 N 0.31783(18) 0.55456(13) 0.81318(12)
N9_4 N 0.23673(13) 0.68217(18) 0.81318(12)
C15_4 C 0.36085(18) 0.53457(13) 0.81729(11)
C16_4 C 0.17372(13) 0.63915(18) 0.81729(11)
C20_4 C 0.34045(19) 0.47835(13) 0.83604(11)
C21_4 C 0.13790(14) 0.65955(19) 0.83604(11)
H5_4 H 0.3000 0.4557 0.8450
H6_4 H 0.1557 0.7000 0.8450
C25_4 C 0.52565(20) 0.58127(14) 0.79379(11)
C26_4 C 0.05562(14) 0.47435(20) 0.79379(11)
C30_4 C 0.38002(18) 0.45524(12) 0.84172(10)
C31_4 C 0.07522(14) 0.61998(18) 0.84172(10)
C35_4 C 0.35748(23) 0.39435(15) 0.86338(12)
C36_4 C 0.03687(18) 0.64252(23) 0.86338(12)
C40_4 C 0.42092(18) 0.56751(13) 0.80332(10)
C41_4 C 0.14659(13) 0.57908(18) 0.80332(10)
H10_4 H 0.4346 0.6048 0.7898
H11_4 H 0.1702 0.5654 0.7898
C45_4 C 0.46021(18) 0.54531(13) 0.80935(10)
C46_4 C 0.08510(13) 0.53979(18) 0.80935(10)
C50_4 C 0.44014(20) 0.48964(14) 0.82864(11)
C51_4 C 0.04950(14) 0.55986(20) 0.82864(11)
H15_4 H 0.4673 0.4752 0.8329
H16_4 H 0.0079 0.5327 0.8329
H20_4 H 0.2899(23) 0.5323(17) 0.8178(12)
H21_4 H 0.2424(15) 0.7101(23) 0.8178(12)
O8_2 O 0.24390(10) 0.03565(9) 0.39194(8)
C14_5 C 0.04799(13) 0.05404(13) 0.35424(10)
O26_2 O 0.33318(10) 0.10624(11) 0.36778(8)
N7_5 N 0.05800(10) 0.00695(10) 0.35432(8)
N11_5 N 0.09660(13) 0.11211(13) 0.35349(12)
C18_5 C 0.15961(13) 0.13210(13) 0.34938(11)
C23_5 C 0.19543(14) 0.18832(13) 0.33063(11)
H8_5 H 0.1776 0.2110 0.3217
C28_5 C 0.27771(14) 0.08540(14) 0.37288(11)
C33_5 C 0.25811(14) 0.21143(12) 0.32495(10)
C38_5 C 0.29646(18) 0.27232(15) 0.30329(12)
C43_5 C 0.18674(13) 0.09916(13) 0.36335(10)
H13_5 H 0.1631 0.0619 0.3769
C48_5 C 0.24823(13) 0.12136(13) 0.35732(10)
C53_5 C 0.28383(14) 0.17703(14) 0.33803(11)
H18_5 H 0.3254 0.1915 0.3338
H23_5 H 0.0909(15) 0.1344(17) 0.3489(12)
C12_5 C 0.00604(18) 0.95201(13) 0.35424(10)
N10_5 N 0.01550(18) 0.90340(13) 0.35349(12)
H7_5 H 0.0333 0.8224 0.3217
H22_5 H 0.0434(23) 0.9091(15) 0.3489(12)
O9_2 O 0.96435(9) 0.20826(13) 0.39194(8)
O27_2 O 0.89376(11) 0.22695(15) 0.36778(8)
N6_5 N 0.99305(10) 0.05106(14) 0.35432(8)
C19_5 C 0.86790(13) 0.02752(18) 0.34938(11)
C24_5 C 0.81168(13) 0.00712(19) 0.33063(11)
C29_5 C 0.91460(14) 0.19232(20) 0.37288(11)
C34_5 C 0.78857(12) 0.04669(18) 0.32495(10)
C39_5 C 0.72768(15) 0.02415(23) 0.30329(12)
C44_5 C 0.90084(13) 0.08759(18) 0.36335(10)
H14_5 H 0.9381 0.1013 0.3769
C49_5 C 0.87864(13) 0.12688(18) 0.35732(10)
C54_5 C 0.82297(14) 0.10681(20) 0.33803(11)
H19_5 H 0.8085 0.1340 0.3338
O1_5 O 0.70231(9) 0.57724(10) 0.44140(8)
C1_5 C 0.72070(13) 0.38133(13) 0.47910(10)
O3_5 O 0.77290(11) 0.66652(10) 0.46556(8)
N1_5 N 0.67361(10) 0.39134(10) 0.47902(8)
N2_5 N 0.77877(13) 0.42994(13) 0.47985(12)
C2_5 C 0.79876(13) 0.49295(13) 0.48396(11)
C3_5 C 0.85498(13) 0.52877(14) 0.50271(11)
H1_5 H 0.8776 0.5110 0.5117
C4_5 C 0.75206(14) 0.61105(14) 0.46046(11)
C5_5 C 0.87809(12) 0.59145(14) 0.50839(10)
C6_5 C 0.93898(15) 0.62980(18) 0.53005(12)
C7_5 C 0.76582(13) 0.52008(13) 0.46999(10)
H2_5 H 0.7285 0.4965 0.4565
C8_5 C 0.78802(13) 0.58157(13) 0.47602(10)
C9_5 C 0.84369(14) 0.61717(14) 0.49531(11)
H3_5 H 0.8581 0.6588 0.4996
H4_5 H 0.8010(17) 0.4243(15) 0.4845(12)
O5_5 O 0.87492(13) 0.29769(9) 0.44140(8)
O6_5 O 0.42276(10) 0.12508(13) 0.44140(8)
O7_5 O 0.79174(13) 0.75610(10) 0.39194(8)
C10_5 C 0.61867(13) 0.33938(18) 0.47910(10)
C11_5 C 0.66062(18) 0.27930(13) 0.47910(10)
C13_5 C 0.94596(13) 0.99396(18) 0.35424(10)
O23_5 O 0.89361(15) 0.22710(11) 0.46556(8)
O24_5 O 0.33348(10) 0.10639(15) 0.46556(8)
O25_5 O 0.77305(15) 0.66682(10) 0.36778(8)
N3_5 N 0.60866(10) 0.28228(14) 0.47902(8)
N4_5 N 0.71772(14) 0.32639(10) 0.47902(8)
N5_5 N 0.94894(14) 0.94200(10) 0.35432(8)
N8_5 N 0.65116(18) 0.22123(13) 0.47985(12)
N9_5 N 0.57006(13) 0.34884(18) 0.47985(12)
N12_5 N 0.88789(13) 0.98450(18) 0.35349(12)
C15_5 C 0.69418(18) 0.20124(13) 0.48396(11)
C16_5 C 0.50705(13) 0.30582(18) 0.48396(11)
C17_5 C 0.97248(18) 0.84039(13) 0.34938(11)
C20_5 C 0.67378(19) 0.14502(13) 0.50271(11)
C21_5 C 0.47123(14) 0.32622(19) 0.50271(11)
C22_5 C 0.99288(19) 0.80457(14) 0.33063(11)
H5_5 H 0.6333 0.1224 0.5117
H6_5 H 0.4890 0.3667 0.5117
H9_5 H 0.7890 0.9667 0.3217
C25_5 C 0.85898(20) 0.24794(14) 0.46046(11)
C26_5 C 0.38895(14) 0.14102(20) 0.46046(11)
C27_5 C 0.80768(20) 0.72229(14) 0.37288(11)
C30_5 C 0.71335(18) 0.12191(12) 0.50839(10)
C31_5 C 0.40855(14) 0.28665(18) 0.50839(10)
C32_5 C 0.95331(18) 0.74189(14) 0.32495(10)
C35_5 C 0.69081(23) 0.06102(15) 0.53005(12)
C36_5 C 0.37020(18) 0.30919(23) 0.53005(12)
C37_5 C 0.97585(23) 0.70354(18) 0.30329(12)
C40_5 C 0.75425(18) 0.23418(13) 0.46999(10)
C41_5 C 0.47992(13) 0.24575(18) 0.46999(10)
C42_5 C 0.91241(18) 0.81326(13) 0.36335(10)
H10_5 H 0.7679 0.2715 0.4565
H11_5 H 0.5035 0.2321 0.4565
H12_5 H 0.8987 0.8369 0.3769
C45_5 C 0.79354(18) 0.21198(13) 0.47602(10)
C46_5 C 0.41843(13) 0.20646(18) 0.47602(10)
C47_5 C 0.87312(18) 0.75177(13) 0.35732(10)
C50_5 C 0.77347(20) 0.15631(14) 0.49531(11)
C51_5 C 0.38283(14) 0.22653(20) 0.49531(11)
C52_5 C 0.89319(20) 0.71617(14) 0.33803(11)
H15_5 H 0.8006 0.1419 0.4996
H16_5 H 0.3412 0.1994 0.4996
H17_5 H 0.8660 0.6746 0.3338
H20_5 H 0.6232(23) 0.1990(17) 0.4845(12)
H21_5 H 0.5757(15) 0.3768(23) 0.4845(12)
H24_5 H 0.8656(17) 0.9566(23) 0.3489(12)
O1_6 O 0.03565(9) 0.24390(10) 0.10806(8)
C1_6 C 0.05404(13) 0.04799(13) 0.14576(10)
O3_6 O 0.10624(11) 0.33318(10) 0.13222(8)
N1_6 N 0.00695(10) 0.05800(10) 0.14568(8)
N2_6 N 0.11211(13) 0.09660(13) 0.14651(12)
C2_6 C 0.13210(13) 0.15961(13) 0.15062(11)
C3_6 C 0.18832(13) 0.19543(14) 0.16937(11)
H1_6 H 0.2110 0.1776 0.1783
C4_6 C 0.08540(14) 0.27771(14) 0.12712(11)
C5_6 C 0.21143(12) 0.25811(14) 0.17505(10)
C6_6 C 0.27232(15) 0.29646(18) 0.19671(12)
C7_6 C 0.09916(13) 0.18674(13) 0.13665(10)
H2_6 H 0.0619 0.1631 0.1231
C8_6 C 0.12136(13) 0.24823(13) 0.14268(10)
C9_6 C 0.17703(14) 0.28383(14) 0.16197(11)
H3_6 H 0.1915 0.3254 0.1662
H4_6 H 0.1344(17) 0.0909(15) 0.1511(12)
O7_6 O 0.12508(13) 0.42276(10) 0.05860(8)
O8_3 O 0.57724(10) 0.70231(9) 0.05860(8)
O9_3 O 0.29769(9) 0.87492(13) 0.05860(8)
C12_6 C 0.33938(18) 0.61867(13) 0.02090(10)
C13_6 C 0.27930(13) 0.66062(18) 0.02090(10)
C14_6 C 0.38133(13) 0.72070(13) 0.02090(10)
O25_6 O 0.10639(15) 0.33348(10) 0.03444(8)
O26_3 O 0.66652(10) 0.77290(11) 0.03444(8)
O27_3 O 0.22710(11) 0.89361(15) 0.03444(8)
N5_6 N 0.28228(14) 0.60866(10) 0.02098(8)
N6_6 N 0.32639(10) 0.71772(14) 0.02098(8)
N7_6 N 0.39134(10) 0.67361(10) 0.02098(8)
N10_6 N 0.34884(18) 0.57006(13) 0.02015(12)
N11_6 N 0.42994(13) 0.77877(13) 0.02015(12)
N12_6 N 0.22123(13) 0.65116(18) 0.02015(12)
C17_6 C 0.30582(18) 0.50705(13) 0.01604(11)
C18_6 C 0.49295(13) 0.79876(13) 0.01604(11)
C19_6 C 0.20124(13) 0.69418(18) 0.01604(11)
C27_6 C 0.14102(20) 0.38895(14) 0.03954(11)
C28_6 C 0.61105(14) 0.75206(14) 0.03954(11)
C29_6 C 0.24794(14) 0.85898(20) 0.03954(11)
C42_6 C 0.24575(18) 0.47992(13) 0.03001(10)
C43_6 C 0.52008(13) 0.76582(13) 0.03001(10)
C44_6 C 0.23418(13) 0.75425(18) 0.03001(10)
H12_6 H 0.2321 0.5035 0.0435
H13_6 H 0.4965 0.7285 0.0435
H14_6 H 0.2715 0.7679 0.0435
C47_6 C 0.20646(18) 0.41843(13) 0.02398(10)
C48_6 C 0.58157(13) 0.78802(13) 0.02398(10)
C49_6 C 0.21198(13) 0.79354(18) 0.02398(10)
C52_6 C 0.22653(20) 0.38283(14) 0.00469(11)
C53_6 C 0.61717(14) 0.84369(14) 0.00469(11)
C54_6 C 0.15631(14) 0.77347(20) 0.00469(11)
H17_6 H 0.1994 0.3412 0.0004
H18_6 H 0.6588 0.8581 0.0004
H19_6 H 0.1419 0.8006 0.0004
H22_6 H 0.3768(23) 0.5757(15) 0.0155(12)
H23_6 H 0.4243(15) 0.8010(17) 0.0155(12)
H24_6 H 0.1990(17) 0.6232(23) 0.0155(12)
C22_6 C 0.32622(19) 0.47123(14) 0.99729(11)
C23_6 C 0.52877(14) 0.85498(13) 0.99729(11)
C24_6 C 0.14502(13) 0.67378(19) 0.99729(11)
H7_6 H 0.3667 0.4890 0.9883
H8_6 H 0.5110 0.8776 0.9883
H9_6 H 0.1224 0.6333 0.9883
C32_6 C 0.28665(18) 0.40855(14) 0.99161(10)
C33_6 C 0.59145(14) 0.87809(12) 0.99161(10)
C34_6 C 0.12191(12) 0.71335(18) 0.99161(10)
C37_6 C 0.30919(23) 0.37020(18) 0.96995(12)
C38_6 C 0.62980(18) 0.93898(15) 0.96995(12)
C39_6 C 0.06102(15) 0.69081(23) 0.96995(12)
O5_6 O 0.20826(13) 0.96435(9) 0.10806(8)
O23_6 O 0.22695(15) 0.89376(11) 0.13222(8)
N4_6 N 0.05106(14) 0.99305(10) 0.14568(8)
C15_6 C 0.02752(18) 0.86790(13) 0.15062(11)
C20_6 C 0.00712(19) 0.81168(13) 0.16937(11)
C25_6 C 0.19232(20) 0.91460(14) 0.12712(11)
C30_6 C 0.04669(18) 0.78857(12) 0.17505(10)
C35_6 C 0.02415(23) 0.72768(15) 0.19671(12)
C40_6 C 0.08759(18) 0.90084(13) 0.13665(10)
H10_6 H 0.1013 0.9381 0.1231
C45_6 C 0.12688(18) 0.87864(13) 0.14268(10)
C50_6 C 0.10681(20) 0.82297(14) 0.16197(11)
H15_6 H 0.1340 0.8085 0.1662
C10_6 C 0.95201(13) 0.00604(18) 0.14576(10)
N9_6 N 0.90340(13) 0.01550(18) 0.14651(12)
H6_6 H 0.8224 0.0333 0.1783
H21_6 H 0.9091(15) 0.0434(23) 0.1511(12)
O6_6 O 0.75610(10) 0.79174(13) 0.10806(8)
C11_6 C 0.99396(18) 0.94596(13) 0.14576(10)
O24_6 O 0.66682(10) 0.77305(15) 0.13222(8)
N3_6 N 0.94200(10) 0.94894(14) 0.14568(8)
N8_6 N 0.98450(18) 0.88789(13) 0.14651(12)
C16_6 C 0.84039(13) 0.97248(18) 0.15062(11)
C21_6 C 0.80457(14) 0.99288(19) 0.16937(11)
H5_6 H 0.9667 0.7890 0.1783
C26_6 C 0.72229(14) 0.80768(20) 0.12712(11)
C31_6 C 0.74189(14) 0.95331(18) 0.17505(10)
C36_6 C 0.70354(18) 0.97585(23) 0.19671(12)
C41_6 C 0.81326(13) 0.91241(18) 0.13665(10)
H11_6 H 0.8369 0.8987 0.1231
C46_6 C 0.75177(13) 0.87312(18) 0.14268(10)
C51_6 C 0.71617(14) 0.89319(20) 0.16197(11)
H16_6 H 0.6746 0.8660 0.1662
H20_6 H 0.9566(23) 0.8656(17) 0.1511(12)
loop_
_geom_bond_atom_site_label_1
_geom_bond_atom_site_label_2
_geom_bond_site_symmetry_1
_geom_bond_site_symmetry_2
Cd6 O13 1_555 1_555
O11 Cd3 1_555 1_555
O22 Cd3 1_555 1_555
O29 Cd3 1_555 1_555
O39 Cd3 1_555 1_555
Cd1 O1 1_555 1_555
O1 C4 1_555 1_555
C1 N1 1_555 1_555
O3 Cd1 1_555 1_555
N1 C10 1_555 1_555
N2 C1 1_555 1_555
C2 N2 1_555 1_555
C3 C2 1_555 1_555
H1 C3 1_555 1_555
C4 O3 1_555 1_555
C5 C3 1_555 1_555
C6 C5 1_555 1_555
C7 C2 1_555 1_555
H2 C7 1_555 1_555
C8 C4 1_555 1_555
C9 C5 1_555 1_555
H3 C9 1_555 1_555
O4 C6 1_555 1_555
H4 N2 1_555 1_555
Cd2 O5 1_555 1_555
Cd3_2 O6 1_555 1_555
Cd5 O12 1_555 1_555
Cd7 O14 1_555 1_555
O5 C25 1_555 1_555
O6 C26 1_555 1_555
O10 Cd2 1_555 1_555
C10 N3 1_555 1_555
C11 N3 1_555 1_555
O12 C35 1_555 1_555
O17 Cd1 1_555 1_555
O19 Cd2 1_555 1_555
O20 Cd2 1_555 1_555
O21 Cd3_2 1_555 1_555
O23 Cd2 1_555 1_555
O24 Cd3_2 1_555 1_555
O28 Cd2 1_555 1_555
N4 C1 1_555 1_555
N8 C11 1_555 1_555
N9 C10 1_555 1_555
C15 N8 1_555 1_555
C16 N9 1_555 1_555
C20 C15 1_555 1_555
C21 C16 1_555 1_555
H5 C20 1_555 1_555
H6 C21 1_555 1_555
C25 O23 1_555 1_555
C26 O24 1_555 1_555
C30 C20 1_555 1_555
C31 C21 1_555 1_555
C35 C30 1_555 1_555
C36 C31 1_555 1_555
C40 C15 1_555 1_555
C41 C16 1_555 1_555
H10 C40 1_555 1_555
H11 C41 1_555 1_555
C45 C25 1_555 1_555
C46 C26 1_555 1_555
C50 C30 1_555 1_555
C51 C31 1_555 1_555
H15 C50 1_555 1_555
H16 C51 1_555 1_555
O30 Cd5 1_555 1_555
O36 Cd1 1_555 1_555
O37 Cd2 1_555 1_555
O38 Cd2 1_555 1_555
O40 Cd3_2 1_555 1_555
H20 N8 1_555 1_555
H21 N9 1_555 1_555
C7 C8 1_555 1_555
C8 C9 1_555 1_555
C11 N4 1_555 1_555
C35 O30 1_555 1_555
C36 O31 1_555 1_555
C40 C45 1_555 1_555
C41 C46 1_555 1_555
C45 C50 1_555 1_555
C46 C51 1_555 1_555
Cd4 O2 1_555 1_555
Cd10 O16 1_555 1_555
O7 Cd1_2 1_555 1_555
O11 C28 1_555 1_555
O10 C29 1_555 1_555
C12 N5 1_555 1_555
C13 N5 1_555 1_555
C14 N6 1_555 1_555
O16 C39 1_555 1_555
O18 Cd1_2 1_555 1_555
O25 Cd1_2 1_555 1_555
N6 C13 1_555 1_555
N7 C12 1_555 1_555
N10 C12 1_555 1_555
N11 C14 1_555 1_555
N12 C13 1_555 1_555
C17 N10 1_555 1_555
C18 N11 1_555 1_555
C19 N12 1_555 1_555
C22 C17 1_555 1_555
C23 C18 1_555 1_555
C24 C19 1_555 1_555
H7 C22 1_555 1_555
H8 C23 1_555 1_555
H9 C24 1_555 1_555
C27 O7 1_555 1_555
C28 O29 1_555 1_555
C29 O28 1_555 1_555
C32 C22 1_555 1_555
C33 C23 1_555 1_555
C34 C24 1_555 1_555
C37 C32 1_555 1_555
C38 C33 1_555 1_555
C39 C34 1_555 1_555
C42 C17 1_555 1_555
C43 C18 1_555 1_555
C44 C19 1_555 1_555
H12 C42 1_555 1_555
H13 C43 1_555 1_555
H14 C44 1_555 1_555
C47 C27 1_555 1_555
C48 C28 1_555 1_555
C49 C29 1_555 1_555
C52 C32 1_555 1_555
C53 C33 1_555 1_555
C54 C34 1_555 1_555
H17 C52 1_555 1_555
H18 C53 1_555 1_555
H19 C54 1_555 1_555
O34 Cd10 1_555 1_555
O35 Cd1_2 1_555 1_555
H22 N10 1_555 1_555
H23 N11 1_555 1_555
H24 N12 1_555 1_555
C14 N7 1_555 1_555
O25 C27 1_555 1_555
C37 O32 1_555 1_555
C38 O33 1_555 1_555
C39 O34 1_555 1_555
C42 C47 1_555 1_555
C43 C48 1_555 1_555
C44 C49 1_555 1_555
C47 C52 1_555 1_555
C48 C53 1_555 1_555
C49 C54 1_555 1_555
Cd8 O15 1_555 1_555
Cd1_3 O1_2 1_555 1_555
O1_2 C4_2 1_555 1_555
C1_2 N1_2 1_555 1_555
O2_2 C6_2 1_555 1_555
O3_2 Cd1_3 1_555 1_555
N1_2 C10_2 1_555 1_555
N2_2 C1_2 1_555 1_555
C2_2 N2_2 1_555 1_555
C3_2 C2_2 1_555 1_555
H1_2 C3_2 1_555 1_555
C4_2 O3_2 1_555 1_555
C5_2 C3_2 1_555 1_555
C6_2 C5_2 1_555 1_555
C7_2 C2_2 1_555 1_555
H2_2 C7_2 1_555 1_555
C8_2 C4_2 1_555 1_555
C9_2 C5_2 1_555 1_555
H3_2 C9_2 1_555 1_555
O4_2 C6_2 1_555 1_555
H4_2 N2_2 1_555 1_555
Cd2_2 O5_2 1_555 1_555
Cd3_3 O6_2 1_555 1_555
Cd10 O13_2 1_555 1_555
Cd7_2 O14_2 1_555 1_555
O5_2 C25_2 1_555 1_555
O6_2 C26_2 1_555 1_555
O7_2 Cd1_3 1_555 1_555
O10_2 Cd2_2 1_555 1_555
O11_2 Cd3_3 1_555 1_555
C10_2 N3_2 1_555 1_555
C11_2 N3_2 1_555 1_555
C13_2 N5_2 1_555 1_555
O12_2 C35_2 1_555 1_555
O13_2 C36_2 1_555 1_555
O14_2 C37_2 1_555 1_555
O17_2 Cd1_3 1_555 1_555
O18_2 Cd1_3 1_555 1_555
O19_2 Cd2_2 1_555 1_555
O21_2 Cd3_3 1_555 1_555
O23_2 Cd2_2 1_555 1_555
O24_2 Cd3_3 1_555 1_555
O25_2 Cd1_3 1_555 1_555
O28_2 Cd2_2 1_555 1_555
O29_2 Cd3_3 1_555 1_555
N4_2 C1_2 1_555 1_555
N8_2 C11_2 1_555 1_555
N9_2 C10_2 1_555 1_555
N12_2 C13_2 1_555 1_555
C15_2 N8_2 1_555 1_555
C16_2 N9_2 1_555 1_555
C20_2 C15_2 1_555 1_555
C21_2 C16_2 1_555 1_555
C22_2 C17_2 1_555 1_555
H5_2 C20_2 1_555 1_555
H6_2 C21_2 1_555 1_555
C25_2 O23_2 1_555 1_555
C26_2 O24_2 1_555 1_555
C27_2 O7_2 1_555 1_555
C30_2 C20_2 1_555 1_555
C31_2 C21_2 1_555 1_555
C32_2 C22_2 1_555 1_555
C35_2 C30_2 1_555 1_555
C36_2 C31_2 1_555 1_555
C37_2 C32_2 1_555 1_555
C40_2 C15_2 1_555 1_555
C41_2 C16_2 1_555 1_555
C42_2 C17_2 1_555 1_555
H10_2 C40_2 1_555 1_555
H11_2 C41_2 1_555 1_555
H12_2 C42_2 1_555 1_555
C45_2 C25_2 1_555 1_555
C46_2 C26_2 1_555 1_555
C47_2 C27_2 1_555 1_555
C50_2 C30_2 1_555 1_555
C51_2 C31_2 1_555 1_555
C52_2 C32_2 1_555 1_555
H15_2 C50_2 1_555 1_555
H16_2 C51_2 1_555 1_555
H17_2 C52_2 1_555 1_555
O31_2 Cd10 1_555 1_555
O34_2 Cd10_2 1_555 1_555
O35_2 Cd1_3 1_555 1_555
O36_2 Cd1_3 1_555 1_555
H20_2 N8_2 1_555 1_555
H21_2 N9_2 1_555 1_555
H24_2 N12_2 1_555 1_555
C7_2 C8_2 1_555 1_555
C8_2 C9_2 1_555 1_555
C11_2 N4_2 1_555 1_555
O25_2 C27_2 1_555 1_555
C35_2 O30_2 1_555 1_555
C36_2 O31_2 1_555 1_555
C40_2 C45_2 1_555 1_555
C41_2 C46_2 1_555 1_555
C42_2 C47_2 1_555 1_555
C45_2 C50_2 1_555 1_555
C46_2 C51_2 1_555 1_555
C47_2 C52_2 1_555 1_555
Cd10_3 O16_2 1_555 1_555
O10_2 C29_2 1_555 1_555
O16_2 C39_2 1_555 1_555
C24_2 C19_2 1_555 1_555
C29_2 O28_2 1_555 1_555
C34_2 C24_2 1_555 1_555
C39_2 C34_2 1_555 1_555
C44_2 C19_2 1_555 1_555
H14_2 C44_2 1_555 1_555
C49_2 C29_2 1_555 1_555
C54_2 C34_2 1_555 1_555
H19_2 C54_2 1_555 1_555
C44_2 C49_2 1_555 1_555
C49_2 C54_2 1_555 1_555
N10_2 C12_2 1_555 1_555
O32_2 Cd7_3 1_555 1_555
H22_2 N10_2 1_555 1_555
Cd8_2 O15_2 1_555 1_555
O11_2 C28_2 1_555 1_555
O15_2 C38_2 1_555 1_555
N11_2 C14_2 1_555 1_555
C18_2 N11_2 1_555 1_555
C23_2 C18_2 1_555 1_555
H8_2 C23_2 1_555 1_555
C28_2 O29_2 1_555 1_555
C33_2 C23_2 1_555 1_555
C38_2 C33_2 1_555 1_555
C43_2 C18_2 1_555 1_555
H13_2 C43_2 1_555 1_555
C48_2 C28_2 1_555 1_555
C53_2 C33_2 1_555 1_555
H18_2 C53_2 1_555 1_555
O33_2 Cd8_2 1_555 1_555
H23_2 N11_2 1_555 1_555
C14_2 N7_2 1_555 1_555
C38_2 O33_2 1_555 1_555
C43_2 C48_2 1_555 1_555
C48_2 C53_2 1_555 1_555
Cd3_4 O6_3 1_555 1_555
Cd10_2 O13_3 1_555 1_555
O6_3 C26_3 1_555 1_555
O11_3 Cd3_4 1_555 1_555
C11_3 N3_3 1_555 1_555
O13_3 C36_3 1_555 1_555
O21_3 Cd3_4 1_555 1_555
O22_3 Cd3_4 1_555 1_555
O24_3 Cd3_4 1_555 1_555
O29_3 Cd3_4 1_555 1_555
N8_3 C11_3 1_555 1_555
C21_3 C16_3 1_555 1_555
C26_3 O24_3 1_555 1_555
C31_3 C21_3 1_555 1_555
C36_3 C31_3 1_555 1_555
C41_3 C16_3 1_555 1_555
H11_3 C41_3 1_555 1_555
C46_3 C26_3 1_555 1_555
C51_3 C31_3 1_555 1_555
H16_3 C51_3 1_555 1_555
O30_3 Cd7_2 1_555 1_555
O39_3 Cd3_4 1_555 1_555
O40_3 Cd3_4 1_555 1_555
H20_3 N8_3 1_555 1_555
C41_3 C46_3 1_555 1_555
C46_3 C51_3 1_555 1_555
N9_3 C10_3 1_555 1_555
O31_3 Cd10_3 1_555 1_555
H21_3 N9_3 1_555 1_555
Cd2_3 O5_3 1_555 1_555
Cd7_3 O12_3 1_555 1_555
O5_3 C25_3 1_555 1_555
O10_3 Cd2_3 1_555 1_555
O12_3 C35_3 1_555 1_555
O20_3 Cd2_3 1_555 1_555
O23_3 Cd2_3 1_555 1_555
O28_3 Cd2_3 1_555 1_555
C20_3 C15_3 1_555 1_555
C25_3 O23_3 1_555 1_555
C30_3 C20_3 1_555 1_555
C35_3 C30_3 1_555 1_555
C40_3 C15_3 1_555 1_555
H10_3 C40_3 1_555 1_555
C45_3 C25_3 1_555 1_555
C50_3 C30_3 1_555 1_555
H15_3 C50_3 1_555 1_555
C40_3 C45_3 1_555 1_555
C45_3 C50_3 1_555 1_555
Cd5 O14_3 1_555 1_555
O14_3 C37_3 1_555 1_555
O15_3 C38_3 1_555 1_555
O16_3 C39_3 1_555 1_555
H7_3 C22_3 1_555 1_555
H8_3 C23_3 1_555 1_555
H9_3 C24_3 1_555 1_555
C32_3 C22_3 1_555 1_555
C33_3 C23_3 1_555 1_555
C34_3 C24_3 1_555 1_555
C37_3 C32_3 1_555 1_555
C38_3 C33_3 1_555 1_555
C39_3 C34_3 1_555 1_555
O32_3 Cd5 1_555 1_555
C37_3 O32_3 1_555 1_555
C38_3 O33_3 1_555 1_555
C39_3 O34_3 1_555 1_555
Cd1_4 O1_3 1_555 1_555
O1_3 C4_3 1_555 1_555
C1_3 N1_3 1_555 1_555
O2_3 C6_3 1_555 1_555
O3_3 Cd1_4 1_555 1_555
N2_3 C1_3 1_555 1_555
C2_3 N2_3 1_555 1_555
C3_3 C2_3 1_555 1_555
H1_3 C3_3 1_555 1_555
C4_3 O3_3 1_555 1_555
C5_3 C3_3 1_555 1_555
C6_3 C5_3 1_555 1_555
C7_3 C2_3 1_555 1_555
H2_3 C7_3 1_555 1_555
C8_3 C4_3 1_555 1_555
C9_3 C5_3 1_555 1_555
H3_3 C9_3 1_555 1_555
O4_3 C6_3 1_555 1_555
H4_3 N2_3 1_555 1_555
Cd8_2 O2_3 1_555 1_555
O7_3 Cd1_4 1_555 1_555
O11_3 C28_3 1_555 1_555
O10_3 C29_3 1_555 1_555
C12_3 N5_3 1_555 1_555
C13_3 N5_3 1_555 1_555
C14_3 N6_3 1_555 1_555
O18_3 Cd1_4 1_555 1_555
O25_3 Cd1_4 1_555 1_555
N6_3 C13_3 1_555 1_555
N7_3 C12_3 1_555 1_555
N10_3 C12_3 1_555 1_555
N11_3 C14_3 1_555 1_555
N12_3 C13_3 1_555 1_555
C17_3 N10_3 1_555 1_555
C18_3 N11_3 1_555 1_555
C19_3 N12_3 1_555 1_555
C27_3 O7_3 1_555 1_555
C28_3 O29_3 1_555 1_555
C29_3 O28_3 1_555 1_555
C42_3 C17_3 1_555 1_555
C43_3 C18_3 1_555 1_555
C44_3 C19_3 1_555 1_555
H12_3 C42_3 1_555 1_555
H13_3 C43_3 1_555 1_555
H14_3 C44_3 1_555 1_555
C47_3 C27_3 1_555 1_555
C48_3 C28_3 1_555 1_555
C49_3 C29_3 1_555 1_555
H17_3 C52_3 1_555 1_555
H18_3 C53_3 1_555 1_555
H19_3 C54_3 1_555 1_555
H22_3 N10_3 1_555 1_555
H23_3 N11_3 1_555 1_555
H24_3 N12_3 1_555 1_555
C7_3 C8_3 1_555 1_555
C8_3 C9_3 1_555 1_555
O4_3 Cd8_2 1_555 1_555
C14_3 N7_3 1_555 1_555
O25_3 C27_3 1_555 1_555
C42_3 C47_3 1_555 1_555
C43_3 C48_3 1_555 1_555
C44_3 C49_3 1_555 1_555
C47_3 C52_3 1_555 1_555
C48_3 C53_3 1_555 1_555
C49_3 C54_3 1_555 1_555
Cd7_3 O8 1_555 1_555
Cd8_2 O9 1_555 1_555
O7_4 Cd10_2 1_555 1_555
O8 C28_4 1_555 1_555
O9 C29_4 1_555 1_555
C12_4 N5_4 1_555 1_555
C13_4 N5_4 1_555 1_555
C14_4 N6_4 1_555 1_555
O17_2 C39_4 1_555 1_555
O25_4 Cd10_2 1_555 1_555
O26 Cd7_3 1_555 1_555
O27 Cd8_2 1_555 1_555
N6_4 C13_4 1_555 1_555
N7_4 C12_4 1_555 1_555
N10_4 C12_4 1_555 1_555
N11_4 C14_4 1_555 1_555
N12_4 C13_4 1_555 1_555
C17_4 N10_4 1_555 1_555
C18_4 N11_4 1_555 1_555
C19_4 N12_4 1_555 1_555
C22_4 C17_4 1_555 1_555
C23_4 C18_4 1_555 1_555
C24_4 C19_4 1_555 1_555
H7_4 C22_4 1_555 1_555
H8_4 C23_4 1_555 1_555
H9_4 C24_4 1_555 1_555
C27_4 O7_4 1_555 1_555
C28_4 O26 1_555 1_555
C29_4 O27 1_555 1_555
C32_4 C22_4 1_555 1_555
C33_4 C23_4 1_555 1_555
C34_4 C24_4 1_555 1_555
C37_4 C32_4 1_555 1_555
C38_4 C33_4 1_555 1_555
C39_4 C34_4 1_555 1_555
C42_4 C17_4 1_555 1_555
C43_4 C18_4 1_555 1_555
C44_4 C19_4 1_555 1_555
H12_4 C42_4 1_555 1_555
H13_4 C43_4 1_555 1_555
H14_4 C44_4 1_555 1_555
C47_4 C27_4 1_555 1_555
C48_4 C28_4 1_555 1_555
C49_4 C29_4 1_555 1_555
C52_4 C32_4 1_555 1_555
C53_4 C33_4 1_555 1_555
C54_4 C34_4 1_555 1_555
H17_4 C52_4 1_555 1_555
H18_4 C53_4 1_555 1_555
H19_4 C54_4 1_555 1_555
H22_4 N10_4 1_555 1_555
H23_4 N11_4 1_555 1_555
H24_4 N12_4 1_555 1_555
C14_4 N7_4 1_555 1_555
O25_4 C27_4 1_555 1_555
C37_4 O39_2 1_555 1_555
C38_4 O37_2 1_555 1_555
C39_4 O35_2 1_555 1_555
C42_4 C47_4 1_555 1_555
C43_4 C48_4 1_555 1_555
C44_4 C49_4 1_555 1_555
C47_4 C52_4 1_555 1_555
C48_4 C53_4 1_555 1_555
C49_4 C54_4 1_555 1_555
Cd10_3 O1_4 1_555 1_555
O1_4 C4_4 1_555 1_555
C1_4 N1_4 1_555 1_555
O3_4 Cd10_3 1_555 1_555
N1_4 C10_4 1_555 1_555
N2_4 C1_4 1_555 1_555
C2_4 N2_4 1_555 1_555
C3_4 C2_4 1_555 1_555
H1_4 C3_4 1_555 1_555
C4_4 O3_4 1_555 1_555
C5_4 C3_4 1_555 1_555
C6_4 C5_4 1_555 1_555
C7_4 C2_4 1_555 1_555
H2_4 C7_4 1_555 1_555
C8_4 C4_4 1_555 1_555
C9_4 C5_4 1_555 1_555
H3_4 C9_4 1_555 1_555
O38_3 C6_4 1_555 1_555
H4_4 N2_4 1_555 1_555
Cd8_2 O5_4 1_555 1_555
Cd7_2 O6_4 1_555 1_555
O5_4 C25_4 1_555 1_555
O6_4 C26_4 1_555 1_555
C10_4 N3_4 1_555 1_555
C11_4 N3_4 1_555 1_555
O22_3 C35_4 1_555 1_555
O23_4 Cd8_2 1_555 1_555
O24_4 Cd7_2 1_555 1_555
N4_4 C1_4 1_555 1_555
N8_4 C11_4 1_555 1_555
N9_4 C10_4 1_555 1_555
C15_4 N8_4 1_555 1_555
C16_4 N9_4 1_555 1_555
C20_4 C15_4 1_555 1_555
C21_4 C16_4 1_555 1_555
H5_4 C20_4 1_555 1_555
H6_4 C21_4 1_555 1_555
C25_4 O23_4 1_555 1_555
C26_4 O24_4 1_555 1_555
C30_4 C20_4 1_555 1_555
C31_4 C21_4 1_555 1_555
C35_4 C30_4 1_555 1_555
C36_4 C31_4 1_555 1_555
C40_4 C15_4 1_555 1_555
C41_4 C16_4 1_555 1_555
H10_4 C40_4 1_555 1_555
H11_4 C41_4 1_555 1_555
C45_4 C25_4 1_555 1_555
C46_4 C26_4 1_555 1_555
C50_4 C30_4 1_555 1_555
C51_4 C31_4 1_555 1_555
H15_4 C50_4 1_555 1_555
H16_4 C51_4 1_555 1_555
H20_4 N8_4 1_555 1_555
H21_4 N9_4 1_555 1_555
C7_4 C8_4 1_555 1_555
C8_4 C9_4 1_555 1_555
C11_4 N4_4 1_555 1_555
C35_4 O40_3 1_555 1_555
C36_4 O36_3 1_555 1_555
C40_4 C45_4 1_555 1_555
C41_4 C46_4 1_555 1_555
C45_4 C50_4 1_555 1_555
C46_4 C51_4 1_555 1_555
Cd7 O8_2 1_555 1_555
O8_2 C28_5 1_555 1_555
O19 C38_5 1_555 1_555
O26_2 Cd7 1_555 1_555
N11_5 C14_5 1_555 1_555
C18_5 N11_5 1_555 1_555
C23_5 C18_5 1_555 1_555
H8_5 C23_5 1_555 1_555
C28_5 O26_2 1_555 1_555
C33_5 C23_5 1_555 1_555
C38_5 C33_5 1_555 1_555
C43_5 C18_5 1_555 1_555
H13_5 C43_5 1_555 1_555
C48_5 C28_5 1_555 1_555
C53_5 C33_5 1_555 1_555
H18_5 C53_5 1_555 1_555
H23_5 N11_5 1_555 1_555
C14_5 N7_5 1_555 1_555
C38_5 O37 1_555 1_555
C43_5 C48_5 1_555 1_555
C48_5 C53_5 1_555 1_555
N10_5 C12_5 1_555 1_555
H22_5 N10_5 1_555 1_555
Cd8 O9_2 1_555 1_555
O9_2 C29_5 1_555 1_555
O17 C39_5 1_555 1_555
O27_2 Cd8 1_555 1_555
C24_5 C19_5 1_555 1_555
C29_5 O27_2 1_555 1_555
C34_5 C24_5 1_555 1_555
C39_5 C34_5 1_555 1_555
C44_5 C19_5 1_555 1_555
H14_5 C44_5 1_555 1_555
C49_5 C29_5 1_555 1_555
C54_5 C34_5 1_555 1_555
H19_5 C54_5 1_555 1_555
C44_5 C49_5 1_555 1_555
C49_5 C54_5 1_555 1_555
Cd10 O1_5 1_555 1_555
O1_5 C4_5 1_555 1_555
C1_5 N1_5 1_555 1_555
O20_2 C6_5 1_555 1_555
O3_5 Cd10 1_555 1_555
N1_5 C10_5 1_555 1_555
N2_5 C1_5 1_555 1_555
C2_5 N2_5 1_555 1_555
C3_5 C2_5 1_555 1_555
H1_5 C3_5 1_555 1_555
C4_5 O3_5 1_555 1_555
C5_5 C3_5 1_555 1_555
C6_5 C5_5 1_555 1_555
C7_5 C2_5 1_555 1_555
H2_5 C7_5 1_555 1_555
C8_5 C4_5 1_555 1_555
C9_5 C5_5 1_555 1_555
H3_5 C9_5 1_555 1_555
O38_2 C6_5 1_555 1_555
H4_5 N2_5 1_555 1_555
Cd8 O5_5 1_555 1_555
Cd7 O6_5 1_555 1_555
O5_5 C25_5 1_555 1_555
O6_5 C26_5 1_555 1_555
O7_5 Cd10 1_555 1_555
C10_5 N3_5 1_555 1_555
C11_5 N3_5 1_555 1_555
C13_5 N5_5 1_555 1_555
O22_2 C35_5 1_555 1_555
O18_2 C36_5 1_555 1_555
O21 C37_5 1_555 1_555
O23_5 Cd8 1_555 1_555
O24_5 Cd7 1_555 1_555
O25_5 Cd10 1_555 1_555
N4_5 C1_5 1_555 1_555
N8_5 C11_5 1_555 1_555
N9_5 C10_5 1_555 1_555
N12_5 C13_5 1_555 1_555
C15_5 N8_5 1_555 1_555
C16_5 N9_5 1_555 1_555
C20_5 C15_5 1_555 1_555
C21_5 C16_5 1_555 1_555
C22_5 C17_5 1_555 1_555
H5_5 C20_5 1_555 1_555
H6_5 C21_5 1_555 1_555
C25_5 O23_5 1_555 1_555
C26_5 O24_5 1_555 1_555
C27_5 O7_5 1_555 1_555
C30_5 C20_5 1_555 1_555
C31_5 C21_5 1_555 1_555
C32_5 C22_5 1_555 1_555
C35_5 C30_5 1_555 1_555
C36_5 C31_5 1_555 1_555
C37_5 C32_5 1_555 1_555
C40_5 C15_5 1_555 1_555
C41_5 C16_5 1_555 1_555
C42_5 C17_5 1_555 1_555
H10_5 C40_5 1_555 1_555
H11_5 C41_5 1_555 1_555
H12_5 C42_5 1_555 1_555
C45_5 C25_5 1_555 1_555
C46_5 C26_5 1_555 1_555
C47_5 C27_5 1_555 1_555
C50_5 C30_5 1_555 1_555
C51_5 C31_5 1_555 1_555
C52_5 C32_5 1_555 1_555
H15_5 C50_5 1_555 1_555
H16_5 C51_5 1_555 1_555
H17_5 C52_5 1_555 1_555
H20_5 N8_5 1_555 1_555
H21_5 N9_5 1_555 1_555
H24_5 N12_5 1_555 1_555
C7_5 C8_5 1_555 1_555
C8_5 C9_5 1_555 1_555
C11_5 N4_5 1_555 1_555
O25_5 C27_5 1_555 1_555
C35_5 O40_2 1_555 1_555
C36_5 O36_2 1_555 1_555
C40_5 C45_5 1_555 1_555
C41_5 C46_5 1_555 1_555
C42_5 C47_5 1_555 1_555
C45_5 C50_5 1_555 1_555
C46_5 C51_5 1_555 1_555
C47_5 C52_5 1_555 1_555
Cd6 O1_6 1_555 1_555
O1_6 C4_6 1_555 1_555
C1_6 N1_6 1_555 1_555
O20 C6_6 1_555 1_555
O3_6 Cd6 1_555 1_555
N2_6 C1_6 1_555 1_555
C2_6 N2_6 1_555 1_555
C3_6 C2_6 1_555 1_555
H1_6 C3_6 1_555 1_555
C4_6 O3_6 1_555 1_555
C5_6 C3_6 1_555 1_555
C6_6 C5_6 1_555 1_555
C7_6 C2_6 1_555 1_555
H2_6 C7_6 1_555 1_555
C8_6 C4_6 1_555 1_555
C9_6 C5_6 1_555 1_555
H3_6 C9_6 1_555 1_555
O38 C6_6 1_555 1_555
H4_6 N2_6 1_555 1_555
Cd5 O8_3 1_555 1_555
Cd4 O9_3 1_555 1_555
O7_6 Cd6 1_555 1_555
O8_3 C28_6 1_555 1_555
O9_3 C29_6 1_555 1_555
C12_6 N5_6 1_555 1_555
C13_6 N5_6 1_555 1_555
C14_6 N6_6 1_555 1_555
O25_6 Cd6 1_555 1_555
O26_3 Cd5 1_555 1_555
O27_3 Cd4 1_555 1_555
N6_6 C13_6 1_555 1_555
N7_6 C12_6 1_555 1_555
N10_6 C12_6 1_555 1_555
N11_6 C14_6 1_555 1_555
N12_6 C13_6 1_555 1_555
C17_6 N10_6 1_555 1_555
C18_6 N11_6 1_555 1_555
C19_6 N12_6 1_555 1_555
C27_6 O7_6 1_555 1_555
C28_6 O26_3 1_555 1_555
C29_6 O27_3 1_555 1_555
C42_6 C17_6 1_555 1_555
C43_6 C18_6 1_555 1_555
C44_6 C19_6 1_555 1_555
H12_6 C42_6 1_555 1_555
H13_6 C43_6 1_555 1_555
H14_6 C44_6 1_555 1_555
C47_6 C27_6 1_555 1_555
C48_6 C28_6 1_555 1_555
C49_6 C29_6 1_555 1_555
H17_6 C52_6 1_555 1_555
H18_6 C53_6 1_555 1_555
H19_6 C54_6 1_555 1_555
H22_6 N10_6 1_555 1_555
H23_6 N11_6 1_555 1_555
H24_6 N12_6 1_555 1_555
C7_6 C8_6 1_555 1_555
C8_6 C9_6 1_555 1_555
C14_6 N7_6 1_555 1_555
O25_6 C27_6 1_555 1_555
C42_6 C47_6 1_555 1_555
C43_6 C48_6 1_555 1_555
C44_6 C49_6 1_555 1_555
C47_6 C52_6 1_555 1_555
C48_6 C53_6 1_555 1_555
C49_6 C54_6 1_555 1_555
O21_3 C37_6 1_555 1_555
O19_3 C38_6 1_555 1_555
O17_3 C39_6 1_555 1_555
H7_6 C22_6 1_555 1_555
H8_6 C23_6 1_555 1_555
H9_6 C24_6 1_555 1_555
C32_6 C22_6 1_555 1_555
C33_6 C23_6 1_555 1_555
C34_6 C24_6 1_555 1_555
C37_6 C32_6 1_555 1_555
C38_6 C33_6 1_555 1_555
C39_6 C34_6 1_555 1_555
C37_6 O39_3 1_555 1_555
C38_6 O37_3 1_555 1_555
C39_6 O35_3 1_555 1_555
Cd4 O5_6 1_555 1_555
O5_6 C25_6 1_555 1_555
O22 C35_6 1_555 1_555
O23_6 Cd4 1_555 1_555
C20_6 C15_6 1_555 1_555
C25_6 O23_6 1_555 1_555
C30_6 C20_6 1_555 1_555
C35_6 C30_6 1_555 1_555
C40_6 C15_6 1_555 1_555
H10_6 C40_6 1_555 1_555
C45_6 C25_6 1_555 1_555
C50_6 C30_6 1_555 1_555
H15_6 C50_6 1_555 1_555
C40_6 C45_6 1_555 1_555
C45_6 C50_6 1_555 1_555
N9_6 C10_6 1_555 1_555
H21_6 N9_6 1_555 1_555
Cd5 O6_6 1_555 1_555
O6_6 C26_6 1_555 1_555
C11_6 N3_6 1_555 1_555
O18 C36_6 1_555 1_555
O24_6 Cd5 1_555 1_555
N8_6 C11_6 1_555 1_555
C21_6 C16_6 1_555 1_555
C26_6 O24_6 1_555 1_555
C31_6 C21_6 1_555 1_555
C36_6 C31_6 1_555 1_555
C41_6 C16_6 1_555 1_555
H11_6 C41_6 1_555 1_555
C46_6 C26_6 1_555 1_555
C51_6 C31_6 1_555 1_555
H16_6 C51_6 1_555 1_555
H20_6 N8_6 1_555 1_555
C41_6 C46_6 1_555 1_555
C46_6 C51_6 1_555 1_555

#END
