
###############################################################################
#
# This file contains modified crystal structure data generated from the
# MOF subset of the Cambridge Structural Database (CSD) v543 
# hosted by the Cambridge Crystallographic Data Centre (CCDC).
#
# This work is licensed under the Creative Commons
# Attribution-NonCommercial-ShareAlike 4.0 International License.
# To view a copy of this license, visit
# http://creativecommons.org/licenses/by-nc-sa/4.0/
# or send a letter to
# Creative Commons, PO Box 1866, Mountain View, CA 94042, USA.
#
# CIF created using the CSD Python API on 29 September 2022
# The structure has been converted into the P1 space group
# The structure has a 3D framework
# The original CSD entry UYUGEC is in the tetragonal crystal system
# The framework has been calculated to contain at least 10.0% void space
# The void calculation uses a probe of radius 1.32A, grid spacing 0.4
# H atom positions have been added when not included in the experimental data
# Generated hydrogen atom positions removed from atoms on special positions
#
###############################################################################

data_UYUGEC
_chemical_formula_moiety         '(C144 H168 Cu24 I8 N24 O88 Zr30)n'
_symmetry_cell_setting           triclinic
_symmetry_space_group_name_H-M   'P 1'
_symmetry_Int_Tables_number      1
_space_group_name_Hall           'P 1'
loop_
_symmetry_equiv_pos_site_id
_symmetry_equiv_pos_as_xyz
1 x,y,z
_cell_length_a                   17.5411(5)
_cell_length_b                   17.5411(5)
_cell_length_c                   34.6975(15)
_cell_angle_alpha                90
_cell_angle_beta                 90
_cell_angle_gamma                90
_cell_volume                     10676.1
loop_
_atom_site_label
_atom_site_type_symbol
_atom_site_fract_x
_atom_site_fract_y
_atom_site_fract_z
I10 I -0.0000 0.63152(2) 0.29375(2)
I12 I -0.0000 0.36848(2) 0.29375(2)
Cu10 Cu -0.0000 0.57503(4) 0.22329(2)
Cu12 Cu -0.0000 0.42497(4) 0.22329(2)
I6 I 0.63152(2) -0.0000 0.29375(2)
I8 I 0.36848(2) -0.0000 0.29375(2)
Cu6 Cu 0.57503(4) -0.0000 0.22329(2)
Cu8 Cu 0.42497(4) -0.0000 0.22329(2)
I1 I 0.13152(2) 0.5000 0.20625(2)
Zr1 Zr 0.5000 0.5000 0.42941(2)
Zr2 Zr 0.64249(3) 0.5000 0.5000
Cu1 Cu 0.07503(4) 0.5000 0.27671(2)
O1 O 0.30039(19) 0.5000 0.44101(9)
O2 O 0.39287(17) 0.5000 0.39645(8)
O3 O 0.5714(2) 0.4286(2) 0.46550(11)
H1 H 0.5982 0.4018 0.4517
O4 O 0.7246(2) 0.4061(3) 0.5000
N1 N 0.1572(3) 0.5000 0.31774(13)
C1 C 0.2311(3) 0.5000 0.30932(15)
H3 H 0.2461 0.5000 0.2830
C2 C 0.2869(3) 0.5000 0.33757(15)
H4 H 0.3394 0.5000 0.3308
C3 C 0.2650(3) 0.5000 0.37544(13)
C4 C 0.1901(4) 0.5000 0.38379(15)
H5 H 0.1733 0.5000 0.4098
C5 C 0.1380(4) 0.5000 0.35381(19)
H6 H 0.0853 0.5000 0.3600
C6 C 0.3249(3) 0.5000 0.40693(13)
I2 I 0.5000 0.13152(2) 0.20625(2)
Zr3 Zr 0.5000 0.64249(3) 0.5000
Cu2 Cu 0.5000 0.07503(4) 0.27671(2)
O5 O 0.5000 0.30039(19) 0.44101(9)
O6 O 0.5000 0.39287(17) 0.39645(8)
O7 O 0.5714(2) 0.5714(2) 0.46550(11)
H7 H 0.5982 0.5982 0.4517
O8 O 0.5939(3) 0.7246(2) 0.5000
N2 N 0.5000 0.1572(3) 0.31774(13)
C7 C 0.5000 0.2311(3) 0.30932(15)
H9 H 0.5000 0.2461 0.2830
C8 C 0.5000 0.2869(3) 0.33757(15)
H10 H 0.5000 0.3394 0.3308
C9 C 0.5000 0.2650(3) 0.37544(13)
C10 C 0.5000 0.1901(4) 0.38379(15)
H11 H 0.5000 0.1733 0.4098
C11 C 0.5000 0.1380(4) 0.35381(19)
H12 H 0.5000 0.0853 0.3600
C12 C 0.5000 0.3249(3) 0.40693(13)
I3 I 0.86848(2) 0.5000 0.20625(2)
Cu3 Cu 0.92497(4) 0.5000 0.27671(2)
O9 O 0.69961(19) 0.5000 0.44101(9)
O10 O 0.60713(17) 0.5000 0.39645(8)
O11 O 0.4286(2) 0.5714(2) 0.46550(11)
H13 H 0.4018 0.5982 0.4517
N3 N 0.8428(3) 0.5000 0.31774(13)
C13 C 0.7689(3) 0.5000 0.30932(15)
H14 H 0.7539 0.5000 0.2830
C14 C 0.7131(3) 0.5000 0.33757(15)
H15 H 0.6606 0.5000 0.3308
C15 C 0.7350(3) 0.5000 0.37544(13)
C16 C 0.8099(4) 0.5000 0.38379(15)
H16 H 0.8267 0.5000 0.4098
C17 C 0.8620(4) 0.5000 0.35381(19)
H17 H 0.9147 0.5000 0.3600
C18 C 0.6751(3) 0.5000 0.40693(13)
I4 I 0.5000 0.86848(2) 0.20625(2)
Cu4 Cu 0.5000 0.92497(4) 0.27671(2)
O12 O 0.5000 0.69961(19) 0.44101(9)
O13 O 0.5000 0.60713(17) 0.39645(8)
O14 O 0.4286(2) 0.4286(2) 0.46550(11)
H18 H 0.4018 0.4018 0.4517
N4 N 0.5000 0.8428(3) 0.31774(13)
C19 C 0.5000 0.7689(3) 0.30932(15)
H19 H 0.5000 0.7539 0.2830
C20 C 0.5000 0.7131(3) 0.33757(15)
H20 H 0.5000 0.6606 0.3308
C21 C 0.5000 0.7350(3) 0.37544(13)
C22 C 0.5000 0.8099(4) 0.38379(15)
H21 H 0.5000 0.8267 0.4098
C23 C 0.5000 0.8620(4) 0.35381(19)
H22 H 0.5000 0.9147 0.3600
C24 C 0.5000 0.6751(3) 0.40693(13)
O15 O 0.7246(2) 0.5939(3) 0.5000
O16 O 0.4061(3) 0.7246(2) 0.5000
I6_2 I 0.63152(2) 1.0000 0.29375(2)
I8_2 I 0.36848(2) 1.0000 0.29375(2)
I10_2 I 1.0000 0.63152(2) 0.29375(2)
I12_2 I 1.0000 0.36848(2) 0.29375(2)
Zr4 Zr 0.35751(3) 0.5000 0.5000
Zr5 Zr 0.5000 0.35751(3) 0.5000
Cu6_2 Cu 0.57503(4) 1.0000 0.22329(2)
Cu8_2 Cu 0.42497(4) 1.0000 0.22329(2)
Cu10_2 Cu 1.0000 0.57503(4) 0.22329(2)
Cu12_2 Cu 1.0000 0.42497(4) 0.22329(2)
O17 O 0.69961(19) 0.5000 0.55899(9)
O18 O 0.5000 0.69961(19) 0.55899(9)
O19 O 0.5714(2) 0.5714(2) 0.53450(11)
O20 O 0.4286(2) 0.5714(2) 0.53450(11)
O21 O 0.5714(2) 0.4286(2) 0.53450(11)
O8_2 O 0.2754(2) 0.5939(3) 0.5000
O16_2 O 0.2754(2) 0.4061(3) 0.5000
O18_2 O 0.30039(19) 0.5000 0.55899(9)
O20_2 O 0.4286(2) 0.4286(2) 0.53450(11)
O8_3 O 0.4061(3) 0.2754(2) 0.5000
O16_3 O 0.5939(3) 0.2754(2) 0.5000
O18_3 O 0.5000 0.30039(19) 0.55899(9)
I10_3 I -0.0000 0.36848(2) 0.70625(2)
I12_3 I -0.0000 0.63152(2) 0.70625(2)
Cu10_3 Cu -0.0000 0.42497(4) 0.77671(2)
Cu12_3 Cu -0.0000 0.57503(4) 0.77671(2)
I5 I 0.63152(2) 0.0000 0.70625(2)
I7 I 0.36848(2) 0.0000 0.70625(2)
Cu5 Cu 0.57503(4) 0.0000 0.77671(2)
Cu7 Cu 0.42497(4) 0.0000 0.77671(2)
I1_2 I 0.13152(2) 0.5000 0.79375(2)
Zr1_2 Zr 0.5000 0.5000 0.57059(2)
Cu1_2 Cu 0.07503(4) 0.5000 0.72329(2)
O2_2 O 0.39287(17) 0.5000 0.60355(8)
H1_2 H 0.5982 0.5982 0.5483
N1_2 N 0.1572(3) 0.5000 0.68226(13)
C1_2 C 0.2311(3) 0.5000 0.69068(15)
H3_2 H 0.2461 0.5000 0.7170
C2_2 C 0.2869(3) 0.5000 0.66243(15)
H4_2 H 0.3394 0.5000 0.6692
C3_2 C 0.2650(3) 0.5000 0.62456(13)
C4_2 C 0.1901(4) 0.5000 0.61621(15)
H5_2 H 0.1733 0.5000 0.5902
C5_2 C 0.1380(4) 0.5000 0.64619(19)
H6_2 H 0.0853 0.5000 0.6400
C6_2 C 0.3249(3) 0.5000 0.59307(13)
I2_2 I 0.5000 0.86848(2) 0.79375(2)
Cu2_2 Cu 0.5000 0.92497(4) 0.72329(2)
O6_2 O 0.5000 0.60713(17) 0.60355(8)
H7_2 H 0.5982 0.4018 0.5483
N2_2 N 0.5000 0.8428(3) 0.68226(13)
C7_2 C 0.5000 0.7689(3) 0.69068(15)
H9_2 H 0.5000 0.7539 0.7170
C8_2 C 0.5000 0.7131(3) 0.66243(15)
H10_2 H 0.5000 0.6606 0.6692
C9_2 C 0.5000 0.7350(3) 0.62456(13)
C10_2 C 0.5000 0.8099(4) 0.61621(15)
H11_2 H 0.5000 0.8267 0.5902
C11_2 C 0.5000 0.8620(4) 0.64619(19)
H12_2 H 0.5000 0.9147 0.6400
C12_2 C 0.5000 0.6751(3) 0.59307(13)
I3_2 I 0.86848(2) 0.5000 0.79375(2)
Cu3_2 Cu 0.92497(4) 0.5000 0.72329(2)
O10_2 O 0.60713(17) 0.5000 0.60355(8)
H13_2 H 0.4018 0.4018 0.5483
N3_2 N 0.8428(3) 0.5000 0.68226(13)
C13_2 C 0.7689(3) 0.5000 0.69068(15)
H14_2 H 0.7539 0.5000 0.7170
C14_2 C 0.7131(3) 0.5000 0.66243(15)
H15_2 H 0.6606 0.5000 0.6692
C15_2 C 0.7350(3) 0.5000 0.62456(13)
C16_2 C 0.8099(4) 0.5000 0.61621(15)
H16_2 H 0.8267 0.5000 0.5902
C17_2 C 0.8620(4) 0.5000 0.64619(19)
H17_2 H 0.9147 0.5000 0.6400
C18_2 C 0.6751(3) 0.5000 0.59307(13)
I4_2 I 0.5000 0.13152(2) 0.79375(2)
Cu4_2 Cu 0.5000 0.07503(4) 0.72329(2)
O13_2 O 0.5000 0.39287(17) 0.60355(8)
H18_2 H 0.4018 0.5982 0.5483
N4_2 N 0.5000 0.1572(3) 0.68226(13)
C19_2 C 0.5000 0.2311(3) 0.69068(15)
H19_2 H 0.5000 0.2461 0.7170
C20_2 C 0.5000 0.2869(3) 0.66243(15)
H20_2 H 0.5000 0.3394 0.6692
C21_2 C 0.5000 0.2650(3) 0.62456(13)
C22_2 C 0.5000 0.1901(4) 0.61621(15)
H21_2 H 0.5000 0.1733 0.5902
C23_2 C 0.5000 0.1380(4) 0.64619(19)
H22_2 H 0.5000 0.0853 0.6400
C24_2 C 0.5000 0.3249(3) 0.59307(13)
I5_2 I 0.63152(2) 1.0000 0.70625(2)
I7_2 I 0.36848(2) 1.0000 0.70625(2)
I10_4 I 1.0000 0.36848(2) 0.70625(2)
I12_4 I 1.0000 0.63152(2) 0.70625(2)
Cu5_2 Cu 0.57503(4) 1.0000 0.77671(2)
Cu7_2 Cu 0.42497(4) 1.0000 0.77671(2)
Cu10_4 Cu 1.0000 0.42497(4) 0.77671(2)
Cu12_4 Cu 1.0000 0.57503(4) 0.77671(2)
Zr2_2 Zr 0.14249(3) 0.0000 -0.0000
Zr3_2 Zr 0.0000 0.14249(3) -0.0000
O8_4 O 0.0939(3) 0.2246(2) -0.0000
H8 H 0.0762 0.2679 -0.0000
O15_2 O 0.2246(2) 0.0939(3) -0.0000
H23 H 0.2679 0.0762 -0.0000
O17_2 O 0.19961(19) 0.0000 0.05899(9)
O18_4 O 0.0000 0.19961(19) 0.05899(9)
O19_2 O 0.0714(2) 0.0714(2) 0.03450(11)
H27 H 0.217081 0.125707 0.0233671
Zr1_3 Zr 0.0000 0.0000 0.92941(2)
Zr2_3 Zr 0.14249(3) 0.0000 1.0000
Zr3_3 Zr -0.0000 0.14249(3) 1.0000
O7_2 O 0.0714(2) 0.0714(2) 0.96550(11)
H7_3 H 0.0982 0.0982 0.9517
O8_5 O 0.0939(3) 0.2246(2) 1.0000
H8_2 H 0.0762 0.2679 1.0000
O9_2 O 0.19961(19) 0.0000 0.94101(9)
O10_3 O 0.10713(17) -0.0000 0.89645(8)
N3_3 N 0.3428(3) -0.0000 0.81774(13)
C13_3 C 0.2689(3) -0.0000 0.80932(15)
H14_3 H 0.2539 -0.0000 0.7830
C14_3 C 0.2131(3) -0.0000 0.83757(15)
H15_3 H 0.1606 -0.0000 0.8308
C15_3 C 0.2350(3) -0.0000 0.87544(13)
C16_3 C 0.3099(4) -0.0000 0.88379(15)
H16_3 H 0.3267 -0.0000 0.9098
C17_3 C 0.3620(4) -0.0000 0.85381(19)
H17_3 H 0.4147 -0.0000 0.8600
C18_3 C 0.1751(3) -0.0000 0.90693(13)
O12_2 O 0.0000 0.19961(19) 0.94101(9)
O13_3 O -0.0000 0.10713(17) 0.89645(8)
N4_3 N 0.0000 0.3428(3) 0.81774(13)
C19_3 C -0.0000 0.2689(3) 0.80932(15)
H19_3 H -0.0000 0.2539 0.7830
C20_3 C -0.0000 0.2131(3) 0.83757(15)
H20_3 H -0.0000 0.1606 0.8308
C21_3 C -0.0000 0.2350(3) 0.87544(13)
C22_3 C -0.0000 0.3099(4) 0.88379(15)
H21_3 H -0.0000 0.3267 0.9098
C23_3 C 0.0000 0.3620(4) 0.85381(19)
H22_3 H -0.0000 0.4147 0.8600
C24_3 C -0.0000 0.1751(3) 0.90693(13)
O15_3 O 0.2246(2) 0.0939(3) 1.0000
H23_2 H 0.2679 0.0762 1.0000
H26 H 0.125707 0.217081 0.976633
Zr2_4 Zr 0.14249(3) 1.0000 -0.0000
O4_2 O 0.2246(2) 0.9061(3) -0.0000
H2 H 0.2679 0.9238 -0.0000
Zr5_2 Zr 0.0000 0.85751(3) -0.0000
O17_3 O 0.19961(19) 1.0000 0.05899(9)
O21_2 O 0.0714(2) 0.9286(2) 0.03450(11)
Zr1_4 Zr 0.0000 1.0000 0.92941(2)
Zr2_5 Zr 0.14249(3) 1.0000 1.0000
O3_2 O 0.0714(2) 0.9286(2) 0.96550(11)
H1_3 H 0.0982 0.9018 0.9517
O4_3 O 0.2246(2) 0.9061(3) 1.0000
H2_2 H 0.2679 0.9238 1.0000
O5_2 O 0.0000 0.80039(19) 0.94101(9)
O6_3 O -0.0000 0.89287(17) 0.89645(8)
N2_3 N -0.0000 0.6572(3) 0.81774(13)
C7_3 C -0.0000 0.7311(3) 0.80932(15)
H9_3 H -0.0000 0.7461 0.7830
C8_3 C -0.0000 0.7869(3) 0.83757(15)
H10_3 H -0.0000 0.8394 0.8308
C9_3 C -0.0000 0.7650(3) 0.87544(13)
C10_3 C -0.0000 0.6901(4) 0.88379(15)
H11_3 H -0.0000 0.6733 0.9098
C11_3 C -0.0000 0.6380(4) 0.85381(19)
H12_3 H -0.0000 0.5853 0.8600
C12_3 C -0.0000 0.8249(3) 0.90693(13)
O9_3 O 0.19961(19) 1.0000 0.94101(9)
O10_4 O 0.10713(17) 1.0000 0.89645(8)
N3_4 N 0.3428(3) 1.0000 0.81774(13)
C13_4 C 0.2689(3) 1.0000 0.80932(15)
H14_4 H 0.2539 1.0000 0.7830
C14_4 C 0.2131(3) 1.0000 0.83757(15)
H15_4 H 0.1606 1.0000 0.8308
C15_4 C 0.2350(3) 1.0000 0.87544(13)
C16_4 C 0.3099(4) 1.0000 0.88379(15)
H16_4 H 0.3267 1.0000 0.9098
C17_4 C 0.3620(4) 1.0000 0.85381(19)
H17_4 H 0.4147 1.0000 0.8600
C18_4 C 0.1751(3) 1.0000 0.90693(13)
Zr5_3 Zr 0.0000 0.85751(3) 1.0000
H25 H 0.217081 0.874293 0.976633
Zr3_4 Zr 1.0000 0.14249(3) -0.0000
O16_4 O 0.9061(3) 0.2246(2) -0.0000
H24 H 0.9238 0.2679 -0.0000
Zr4_2 Zr 0.85751(3) 0.0000 -0.0000
O18_5 O 1.0000 0.19961(19) 0.05899(9)
O20_3 O 0.9286(2) 0.0714(2) 0.03450(11)
H28 H 0.874293 0.217081 0.0233671
Zr1_5 Zr 1.0000 0.0000 0.92941(2)
O1_2 O 0.80039(19) 0.0000 0.94101(9)
O2_3 O 0.89287(17) -0.0000 0.89645(8)
N1_3 N 0.6572(3) -0.0000 0.81774(13)
C1_3 C 0.7311(3) -0.0000 0.80932(15)
H3_3 H 0.7461 -0.0000 0.7830
C2_3 C 0.7869(3) -0.0000 0.83757(15)
H4_3 H 0.8394 -0.0000 0.8308
C3_3 C 0.7650(3) -0.0000 0.87544(13)
C4_3 C 0.6901(4) -0.0000 0.88379(15)
H5_3 H 0.6733 -0.0000 0.9098
C5_3 C 0.6380(4) -0.0000 0.85381(19)
H6_3 H 0.5853 -0.0000 0.8600
C6_3 C 0.8249(3) -0.0000 0.90693(13)
Zr3_5 Zr 1.0000 0.14249(3) 1.0000
O11_2 O 0.9286(2) 0.0714(2) 0.96550(11)
H13_3 H 0.9018 0.0982 0.9517
O12_3 O 1.0000 0.19961(19) 0.94101(9)
O13_4 O 1.0000 0.10713(17) 0.89645(8)
N4_4 N 1.0000 0.3428(3) 0.81774(13)
C19_4 C 1.0000 0.2689(3) 0.80932(15)
H19_4 H 1.0000 0.2539 0.7830
C20_4 C 1.0000 0.2131(3) 0.83757(15)
H20_4 H 1.0000 0.1606 0.8308
C21_4 C 1.0000 0.2350(3) 0.87544(13)
C22_4 C 1.0000 0.3099(4) 0.88379(15)
H21_4 H 1.0000 0.3267 0.9098
C23_4 C 1.0000 0.3620(4) 0.85381(19)
H22_4 H 1.0000 0.4147 0.8600
C24_4 C 1.0000 0.1751(3) 0.90693(13)
O16_5 O 0.9061(3) 0.2246(2) 1.0000
H24_2 H 0.9238 0.2679 1.0000
Zr4_3 Zr 0.85751(3) 0.0000 1.0000
Zr4_4 Zr 0.85751(3) 1.0000 -0.0000
Zr5_4 Zr 1.0000 0.85751(3) -0.0000
Zr1_6 Zr 1.0000 1.0000 0.92941(2)
O1_3 O 0.80039(19) 1.0000 0.94101(9)
O2_4 O 0.89287(17) 1.0000 0.89645(8)
N1_4 N 0.6572(3) 1.0000 0.81774(13)
C1_4 C 0.7311(3) 1.0000 0.80932(15)
H3_4 H 0.7461 1.0000 0.7830
C2_4 C 0.7869(3) 1.0000 0.83757(15)
H4_4 H 0.8394 1.0000 0.8308
C3_4 C 0.7650(3) 1.0000 0.87544(13)
C4_4 C 0.6901(4) 1.0000 0.88379(15)
H5_4 H 0.6733 1.0000 0.9098
C5_4 C 0.6380(4) 1.0000 0.85381(19)
H6_4 H 0.5853 1.0000 0.8600
C6_4 C 0.8249(3) 1.0000 0.90693(13)
O5_3 O 1.0000 0.80039(19) 0.94101(9)
O6_4 O 1.0000 0.89287(17) 0.89645(8)
N2_4 N 1.0000 0.6572(3) 0.81774(13)
C7_4 C 1.0000 0.7311(3) 0.80932(15)
H9_4 H 1.0000 0.7461 0.7830
C8_4 C 1.0000 0.7869(3) 0.83757(15)
H10_4 H 1.0000 0.8394 0.8308
C9_4 C 1.0000 0.7650(3) 0.87544(13)
C10_4 C 1.0000 0.6901(4) 0.88379(15)
H11_4 H 1.0000 0.6733 0.9098
C11_4 C 1.0000 0.6380(4) 0.85381(19)
H12_4 H 1.0000 0.5853 0.8600
C12_4 C 1.0000 0.8249(3) 0.90693(13)
O14_2 O 0.9286(2) 0.9286(2) 0.96550(11)
H18_3 H 0.9018 0.9018 0.9517
Zr4_5 Zr 0.85751(3) 1.0000 1.0000
Zr5_5 Zr 1.0000 0.85751(3) 1.0000
O8_6 O 0.7754(2) 0.0939(3) -0.0000
H8_3 H 0.7321 0.0762 -0.0000
O18_6 O 0.80039(19) 0.0000 0.05899(9)
O8_7 O 0.7754(2) 0.0939(3) 1.0000
H8_4 H 0.7321 0.0762 1.0000
H26_2 H 0.782919 0.125707 0.976633
O16_6 O 0.7754(2) 0.9061(3) -0.0000
H24_3 H 0.7321 0.9238 -0.0000
O18_7 O 0.80039(19) 1.0000 0.05899(9)
O20_4 O 0.9286(2) 0.9286(2) 0.03450(11)
H28_2 H 0.782919 0.874293 0.0233671
O16_7 O 0.7754(2) 0.9061(3) 1.0000
H24_4 H 0.7321 0.9238 1.0000
O16_8 O 0.0939(3) 0.7754(2) -0.0000
H24_5 H 0.0762 0.7321 -0.0000
O18_8 O -0.0000 0.80039(19) 0.05899(9)
H28_3 H 0.125707 0.782919 0.0233671
O16_9 O 0.0939(3) 0.7754(2) 1.0000
H24_6 H 0.0762 0.7321 1.0000
O8_8 O 0.9061(3) 0.7754(2) -0.0000
H8_5 H 0.9238 0.7321 -0.0000
O18_9 O 1.0000 0.80039(19) 0.05899(9)
O8_9 O 0.9061(3) 0.7754(2) 1.0000
H8_6 H 0.9238 0.7321 1.0000
H26_3 H 0.874293 0.782919 0.976633
Zr1_7 Zr 0.0000 -0.0000 0.07059(2)
H1_4 H 0.0982 0.0982 0.0483
O6_5 O -0.0000 0.10713(17) 0.10355(8)
N2_5 N -0.0000 0.3428(3) 0.18226(13)
C7_5 C -0.0000 0.2689(3) 0.19068(15)
H9_5 H -0.0000 0.2539 0.2170
C8_5 C -0.0000 0.2131(3) 0.16243(15)
H10_5 H -0.0000 0.1606 0.1692
C9_5 C -0.0000 0.2350(3) 0.12456(13)
C10_5 C -0.0000 0.3099(4) 0.11621(15)
H11_5 H -0.0000 0.3267 0.0902
C11_5 C -0.0000 0.3620(4) 0.14619(19)
H12_5 H -0.0000 0.4147 0.1400
C12_5 C -0.0000 0.1751(3) 0.09307(13)
O10_5 O 0.10713(17) 0.0000 0.10355(8)
N3_5 N 0.3428(3) 0.0000 0.18226(13)
C13_5 C 0.2689(3) 0.0000 0.19068(15)
H14_5 H 0.2539 0.0000 0.2170
C14_5 C 0.2131(3) 0.0000 0.16243(15)
H15_5 H 0.1606 0.0000 0.1692
C15_5 C 0.2350(3) 0.0000 0.12456(13)
C16_5 C 0.3099(4) 0.0000 0.11621(15)
H16_5 H 0.3267 0.0000 0.0902
C17_5 C 0.3620(4) 0.0000 0.14619(19)
H17_5 H 0.4147 0.0000 0.1400
C18_5 C 0.1751(3) 0.0000 0.09307(13)
Zr1_8 Zr 0.0000 1.0000 0.07059(2)
H7_4 H 0.0982 0.9018 0.0483
O10_6 O 0.10713(17) 1.0000 0.10355(8)
N3_6 N 0.3428(3) 1.0000 0.18226(13)
C13_6 C 0.2689(3) 1.0000 0.19068(15)
H14_6 H 0.2539 1.0000 0.2170
C14_6 C 0.2131(3) 1.0000 0.16243(15)
H15_6 H 0.1606 1.0000 0.1692
C15_6 C 0.2350(3) 1.0000 0.12456(13)
C16_6 C 0.3099(4) 1.0000 0.11621(15)
H16_6 H 0.3267 1.0000 0.0902
C17_6 C 0.3620(4) 1.0000 0.14619(19)
H17_6 H 0.4147 1.0000 0.1400
C18_6 C 0.1751(3) 1.0000 0.09307(13)
O13_5 O -0.0000 0.89287(17) 0.10355(8)
N4_5 N 0.0000 0.6572(3) 0.18226(13)
C19_5 C -0.0000 0.7311(3) 0.19068(15)
H19_5 H -0.0000 0.7461 0.2170
C20_5 C -0.0000 0.7869(3) 0.16243(15)
H20_5 H -0.0000 0.8394 0.1692
C21_5 C -0.0000 0.7650(3) 0.12456(13)
C22_5 C -0.0000 0.6901(4) 0.11621(15)
H21_5 H -0.0000 0.6733 0.0902
C23_5 C 0.0000 0.6380(4) 0.14619(19)
H22_5 H -0.0000 0.5853 0.1400
C24_5 C -0.0000 0.8249(3) 0.09307(13)
Zr1_9 Zr 1.0000 -0.0000 0.07059(2)
O2_5 O 0.89287(17) 0.0000 0.10355(8)
N1_5 N 0.6572(3) 0.0000 0.18226(13)
C1_5 C 0.7311(3) 0.0000 0.19068(15)
H3_5 H 0.7461 0.0000 0.2170
C2_5 C 0.7869(3) 0.0000 0.16243(15)
H4_5 H 0.8394 0.0000 0.1692
C3_5 C 0.7650(3) 0.0000 0.12456(13)
C4_5 C 0.6901(4) 0.0000 0.11621(15)
H5_5 H 0.6733 0.0000 0.0902
C5_5 C 0.6380(4) 0.0000 0.14619(19)
H6_5 H 0.5853 0.0000 0.1400
C6_5 C 0.8249(3) 0.0000 0.09307(13)
O6_6 O 1.0000 0.10713(17) 0.10355(8)
N2_6 N 1.0000 0.3428(3) 0.18226(13)
C7_6 C 1.0000 0.2689(3) 0.19068(15)
H9_6 H 1.0000 0.2539 0.2170
C8_6 C 1.0000 0.2131(3) 0.16243(15)
H10_6 H 1.0000 0.1606 0.1692
C9_6 C 1.0000 0.2350(3) 0.12456(13)
C10_6 C 1.0000 0.3099(4) 0.11621(15)
H11_6 H 1.0000 0.3267 0.0902
C11_6 C 1.0000 0.3620(4) 0.14619(19)
H12_6 H 1.0000 0.4147 0.1400
C12_6 C 1.0000 0.1751(3) 0.09307(13)
H18_4 H 0.9018 0.0982 0.0483
Zr1_10 Zr 1.0000 1.0000 0.07059(2)
O2_6 O 0.89287(17) 1.0000 0.10355(8)
N1_6 N 0.6572(3) 1.0000 0.18226(13)
C1_6 C 0.7311(3) 1.0000 0.19068(15)
H3_6 H 0.7461 1.0000 0.2170
C2_6 C 0.7869(3) 1.0000 0.16243(15)
H4_6 H 0.8394 1.0000 0.1692
C3_6 C 0.7650(3) 1.0000 0.12456(13)
C4_6 C 0.6901(4) 1.0000 0.11621(15)
H5_6 H 0.6733 1.0000 0.0902
C5_6 C 0.6380(4) 1.0000 0.14619(19)
H6_6 H 0.5853 1.0000 0.1400
C6_6 C 0.8249(3) 1.0000 0.09307(13)
H13_4 H 0.9018 0.9018 0.0483
O13_6 O 1.0000 0.89287(17) 0.10355(8)
N4_6 N 1.0000 0.6572(3) 0.18226(13)
C19_6 C 1.0000 0.7311(3) 0.19068(15)
H19_6 H 1.0000 0.7461 0.2170
C20_6 C 1.0000 0.7869(3) 0.16243(15)
H20_6 H 1.0000 0.8394 0.1692
C21_6 C 1.0000 0.7650(3) 0.12456(13)
C22_6 C 1.0000 0.6901(4) 0.11621(15)
H21_6 H 1.0000 0.6733 0.0902
C23_6 C 1.0000 0.6380(4) 0.14619(19)
H22_6 H 1.0000 0.5853 0.1400
C24_6 C 1.0000 0.8249(3) 0.09307(13)
H28_4 H 0.125707 0.782919 0.976633
H25_2 H 0.782919 0.125707 0.0233671
H26_4 H 0.874293 0.782919 0.0233671
H27_2 H 0.782919 0.874293 0.976633
H28_5 H 0.217081 0.125707 0.976633
H26_5 H 0.217081 0.874293 0.0233671
H26_6 H 0.125707 0.217081 0.0233671
H28_6 H 0.874293 0.217081 0.976633
loop_
_geom_bond_atom_site_label_1
_geom_bond_atom_site_label_2
_geom_bond_site_symmetry_1
_geom_bond_site_symmetry_2
I10 Cu10 1_555 1_555
I12 Cu12 1_555 1_555
I6 Cu6 1_555 1_555
I8 Cu8 1_555 1_555
I1 Cu1 1_555 1_555
Zr1 O2 1_555 1_555
Zr2 O3 1_555 1_555
Cu1 N1 1_555 1_555
O1 C6 1_555 1_555
O2 C6 1_555 1_555
O3 Zr1 1_555 1_555
H1 O3 1_555 1_555
O4 Zr2 1_555 1_555
N1 C1 1_555 1_555
C1 H3 1_555 1_555
C2 C1 1_555 1_555
H4 C2 1_555 1_555
C3 C2 1_555 1_555
C4 C3 1_555 1_555
H5 C4 1_555 1_555
C5 N1 1_555 1_555
H6 C5 1_555 1_555
C6 C3 1_555 1_555
I2 Cu2 1_555 1_555
Zr3 O7 1_555 1_555
Cu2 N2 1_555 1_555
O5 C12 1_555 1_555
O6 Zr1 1_555 1_555
O7 Zr1 1_555 1_555
H7 O7 1_555 1_555
O8 Zr3 1_555 1_555
N2 C7 1_555 1_555
C7 H9 1_555 1_555
C8 C7 1_555 1_555
H10 C8 1_555 1_555
C9 C8 1_555 1_555
C10 C9 1_555 1_555
H11 C10 1_555 1_555
C11 N2 1_555 1_555
H12 C11 1_555 1_555
C12 O6 1_555 1_555
I3 Cu3 1_555 1_555
Cu3 N3 1_555 1_555
O9 Zr2 1_555 1_555
O10 Zr1 1_555 1_555
O11 Zr1 1_555 1_555
H13 O11 1_555 1_555
N3 C13 1_555 1_555
C13 H14 1_555 1_555
C14 C13 1_555 1_555
H15 C14 1_555 1_555
C15 C14 1_555 1_555
C16 C15 1_555 1_555
H16 C16 1_555 1_555
C17 N3 1_555 1_555
H17 C17 1_555 1_555
C18 O9 1_555 1_555
I4 Cu4 1_555 1_555
Cu4 N4 1_555 1_555
O12 Zr3 1_555 1_555
O13 Zr1 1_555 1_555
O14 Zr1 1_555 1_555
H18 O14 1_555 1_555
N4 C19 1_555 1_555
C19 H19 1_555 1_555
C20 C19 1_555 1_555
H20 C20 1_555 1_555
C21 C20 1_555 1_555
C22 C21 1_555 1_555
H21 C22 1_555 1_555
C23 N4 1_555 1_555
H22 C23 1_555 1_555
C24 O12 1_555 1_555
O15 Zr2 1_555 1_555
O16 Zr3 1_555 1_555
I6 Cu2 1_555 1_555
I6_2 Cu4 1_555 1_555
I8 Cu2 1_555 1_555
I8_2 Cu4 1_555 1_555
I10 Cu1 1_555 1_555
I10_2 Cu3 1_555 1_555
I12 Cu1 1_555 1_555
I12_2 Cu3 1_555 1_555
Zr4 O1 1_555 1_555
Zr5 O3 1_555 1_555
Cu6 I2 1_555 1_555
Cu6_2 I4 1_555 1_555
Cu8 I2 1_555 1_555
Cu8_2 I4 1_555 1_555
Cu10 I1 1_555 1_555
Cu10_2 I3 1_555 1_555
Cu12 I1 1_555 1_555
Cu12_2 I3 1_555 1_555
O17 Zr2 1_555 1_555
O18 Zr3 1_555 1_555
O19 Zr2 1_555 1_555
O20 Zr3 1_555 1_555
O21 Zr2 1_555 1_555
Zr2 O7 1_555 1_555
C4 C5 1_555 1_555
Zr3 O11 1_555 1_555
Zr3 O19 1_555 1_555
O5 Zr5 1_555 1_555
C9 C12 1_555 1_555
C10 C11 1_555 1_555
O10 C18 1_555 1_555
O11 Zr4 1_555 1_555
C15 C18 1_555 1_555
C16 C17 1_555 1_555
O13 C24 1_555 1_555
O14 Zr4 1_555 1_555
O14 Zr5 1_555 1_555
C21 C24 1_555 1_555
C22 C23 1_555 1_555
I6_2 Cu6_2 1_555 1_555
I8_2 Cu8_2 1_555 1_555
I10_2 Cu10_2 1_555 1_555
I12_2 Cu12_2 1_555 1_555
Zr4 O20 1_555 1_555
Zr5 O21 1_555 1_555
O8_2 Zr4 1_555 1_555
O16_2 Zr4 1_555 1_555
O18_2 Zr4 1_555 1_555
O20_2 Zr4 1_555 1_555
Zr5 O20_2 1_555 1_555
O8_3 Zr5 1_555 1_555
O16_3 Zr5 1_555 1_555
O18_3 Zr5 1_555 1_555
I10_3 Cu10_3 1_555 1_555
I12_3 Cu12_3 1_555 1_555
I5 Cu5 1_555 1_555
I7 Cu7 1_555 1_555
I1_2 Cu1_2 1_555 1_555
Zr1_2 O2_2 1_555 1_555
Cu1_2 N1_2 1_555 1_555
O18_2 C6_2 1_555 1_555
O2_2 C6_2 1_555 1_555
O19 Zr1_2 1_555 1_555
H1_2 O19 1_555 1_555
N1_2 C1_2 1_555 1_555
C1_2 H3_2 1_555 1_555
C2_2 C1_2 1_555 1_555
H4_2 C2_2 1_555 1_555
C3_2 C2_2 1_555 1_555
C4_2 C3_2 1_555 1_555
H5_2 C4_2 1_555 1_555
C5_2 N1_2 1_555 1_555
H6_2 C5_2 1_555 1_555
C6_2 C3_2 1_555 1_555
I2_2 Cu2_2 1_555 1_555
Cu2_2 N2_2 1_555 1_555
O18 C12_2 1_555 1_555
O6_2 Zr1_2 1_555 1_555
O21 Zr1_2 1_555 1_555
H7_2 O21 1_555 1_555
N2_2 C7_2 1_555 1_555
C7_2 H9_2 1_555 1_555
C8_2 C7_2 1_555 1_555
H10_2 C8_2 1_555 1_555
C9_2 C8_2 1_555 1_555
C10_2 C9_2 1_555 1_555
H11_2 C10_2 1_555 1_555
C11_2 N2_2 1_555 1_555
H12_2 C11_2 1_555 1_555
C12_2 O6_2 1_555 1_555
I3_2 Cu3_2 1_555 1_555
Cu3_2 N3_2 1_555 1_555
O10_2 Zr1_2 1_555 1_555
O20_2 Zr1_2 1_555 1_555
H13_2 O20_2 1_555 1_555
N3_2 C13_2 1_555 1_555
C13_2 H14_2 1_555 1_555
C14_2 C13_2 1_555 1_555
H15_2 C14_2 1_555 1_555
C15_2 C14_2 1_555 1_555
C16_2 C15_2 1_555 1_555
H16_2 C16_2 1_555 1_555
C17_2 N3_2 1_555 1_555
H17_2 C17_2 1_555 1_555
C18_2 O17 1_555 1_555
I4_2 Cu4_2 1_555 1_555
Cu4_2 N4_2 1_555 1_555
O13_2 Zr1_2 1_555 1_555
O20 Zr1_2 1_555 1_555
H18_2 O20 1_555 1_555
N4_2 C19_2 1_555 1_555
C19_2 H19_2 1_555 1_555
C20_2 C19_2 1_555 1_555
H20_2 C20_2 1_555 1_555
C21_2 C20_2 1_555 1_555
C22_2 C21_2 1_555 1_555
H21_2 C22_2 1_555 1_555
C23_2 N4_2 1_555 1_555
H22_2 C23_2 1_555 1_555
C24_2 O18_3 1_555 1_555
I5_2 Cu2_2 1_555 1_555
I5 Cu4_2 1_555 1_555
I7_2 Cu2_2 1_555 1_555
I7 Cu4_2 1_555 1_555
I10_3 Cu1_2 1_555 1_555
I10_4 Cu3_2 1_555 1_555
I12_3 Cu1_2 1_555 1_555
I12_4 Cu3_2 1_555 1_555
Cu5_2 I2_2 1_555 1_555
Cu5 I4_2 1_555 1_555
Cu7_2 I2_2 1_555 1_555
Cu7 I4_2 1_555 1_555
Cu10_3 I1_2 1_555 1_555
Cu10_4 I3_2 1_555 1_555
Cu12_3 I1_2 1_555 1_555
Cu12_4 I3_2 1_555 1_555
C4_2 C5_2 1_555 1_555
C9_2 C12_2 1_555 1_555
C10_2 C11_2 1_555 1_555
O10_2 C18_2 1_555 1_555
C15_2 C18_2 1_555 1_555
C16_2 C17_2 1_555 1_555
O13_2 C24_2 1_555 1_555
C21_2 C24_2 1_555 1_555
C22_2 C23_2 1_555 1_555
I5_2 Cu5_2 1_555 1_555
I7_2 Cu7_2 1_555 1_555
I10_4 Cu10_4 1_555 1_555
I12_4 Cu12_4 1_555 1_555
O8_4 Zr3_2 1_555 1_555
H8 O8_4 1_555 1_555
O15_2 Zr2_2 1_555 1_555
H23 O15_2 1_555 1_555
O17_2 Zr2_2 1_555 1_555
O18_4 Zr3_2 1_555 1_555
O19_2 Zr2_2 1_555 1_555
Zr3_2 O19_2 1_555 1_555
O15_2 H27 1_555 1_555
Zr3_3 O7_2 1_555 1_555
O7_2 Zr1_3 1_555 1_555
H7_3 O7_2 1_555 1_555
O8_5 Zr3_3 1_555 1_555
H8_2 O8_5 1_555 1_555
Cu7 N3_3 1_555 1_555
O9_2 Zr2_3 1_555 1_555
O10_3 Zr1_3 1_555 1_555
N3_3 C13_3 1_555 1_555
C13_3 H14_3 1_555 1_555
C14_3 C13_3 1_555 1_555
H15_3 C14_3 1_555 1_555
C15_3 C14_3 1_555 1_555
C16_3 C15_3 1_555 1_555
H16_3 C16_3 1_555 1_555
C17_3 N3_3 1_555 1_555
H17_3 C17_3 1_555 1_555
C18_3 O9_2 1_555 1_555
Cu10_3 N4_3 1_555 1_555
O12_2 Zr3_3 1_555 1_555
O13_3 Zr1_3 1_555 1_555
N4_3 C19_3 1_555 1_555
C19_3 H19_3 1_555 1_555
C20_3 C19_3 1_555 1_555
H20_3 C20_3 1_555 1_555
C21_3 C20_3 1_555 1_555
C22_3 C21_3 1_555 1_555
H21_3 C22_3 1_555 1_555
C23_3 N4_3 1_555 1_555
H22_3 C23_3 1_555 1_555
C24_3 O12_2 1_555 1_555
O15_3 Zr2_3 1_555 1_555
H23_2 O15_3 1_555 1_555
Zr2_3 O7_2 1_555 1_555
O10_3 C18_3 1_555 1_555
C15_3 C18_3 1_555 1_555
C16_3 C17_3 1_555 1_555
O13_3 C24_3 1_555 1_555
C21_3 C24_3 1_555 1_555
C22_3 C23_3 1_555 1_555
O8_5 H26 1_555 1_555
O4_2 Zr2_4 1_555 1_555
H2 O4_2 1_555 1_555
O17_3 Zr2_4 1_555 1_555
O21_2 Zr2_4 1_555 1_555
Zr5_2 O21_2 1_555 1_555
Zr2_5 O3_2 1_555 1_555
O3_2 Zr1_4 1_555 1_555
H1_3 O3_2 1_555 1_555
O4_3 Zr2_5 1_555 1_555
H2_2 O4_3 1_555 1_555
Cu12_3 N2_3 1_555 1_555
O5_2 C12_3 1_555 1_555
O6_3 Zr1_4 1_555 1_555
N2_3 C7_3 1_555 1_555
C7_3 H9_3 1_555 1_555
C8_3 C7_3 1_555 1_555
H10_3 C8_3 1_555 1_555
C9_3 C8_3 1_555 1_555
C10_3 C9_3 1_555 1_555
H11_3 C10_3 1_555 1_555
C11_3 N2_3 1_555 1_555
H12_3 C11_3 1_555 1_555
C12_3 O6_3 1_555 1_555
Cu7_2 N3_4 1_555 1_555
O9_3 Zr2_5 1_555 1_555
O10_4 Zr1_4 1_555 1_555
N3_4 C13_4 1_555 1_555
C13_4 H14_4 1_555 1_555
C14_4 C13_4 1_555 1_555
H15_4 C14_4 1_555 1_555
C15_4 C14_4 1_555 1_555
C16_4 C15_4 1_555 1_555
H16_4 C16_4 1_555 1_555
C17_4 N3_4 1_555 1_555
H17_4 C17_4 1_555 1_555
C18_4 O9_3 1_555 1_555
Zr5_3 O3_2 1_555 1_555
O5_2 Zr5_3 1_555 1_555
C9_3 C12_3 1_555 1_555
C10_3 C11_3 1_555 1_555
O10_4 C18_4 1_555 1_555
C15_4 C18_4 1_555 1_555
C16_4 C17_4 1_555 1_555
O4_3 H25 1_555 1_555
O16_4 Zr3_4 1_555 1_555
H24 O16_4 1_555 1_555
O18_5 Zr3_4 1_555 1_555
O20_3 Zr3_4 1_555 1_555
Zr4_2 O20_3 1_555 1_555
O16_4 H28 1_555 1_555
Zr1_5 O2_3 1_555 1_555
Cu5 N1_3 1_555 1_555
O1_2 C6_3 1_555 1_555
O2_3 C6_3 1_555 1_555
N1_3 C1_3 1_555 1_555
C1_3 H3_3 1_555 1_555
C2_3 C1_3 1_555 1_555
H4_3 C2_3 1_555 1_555
C3_3 C2_3 1_555 1_555
C4_3 C3_3 1_555 1_555
H5_3 C4_3 1_555 1_555
C5_3 N1_3 1_555 1_555
H6_3 C5_3 1_555 1_555
C6_3 C3_3 1_555 1_555
O11_2 Zr1_5 1_555 1_555
H13_3 O11_2 1_555 1_555
Cu10_4 N4_4 1_555 1_555
O12_3 Zr3_5 1_555 1_555
O13_4 Zr1_5 1_555 1_555
N4_4 C19_4 1_555 1_555
C19_4 H19_4 1_555 1_555
C20_4 C19_4 1_555 1_555
H20_4 C20_4 1_555 1_555
C21_4 C20_4 1_555 1_555
C22_4 C21_4 1_555 1_555
H21_4 C22_4 1_555 1_555
C23_4 N4_4 1_555 1_555
H22_4 C23_4 1_555 1_555
C24_4 O12_3 1_555 1_555
O16_5 Zr3_5 1_555 1_555
H24_2 O16_5 1_555 1_555
Zr4_3 O1_2 1_555 1_555
C4_3 C5_3 1_555 1_555
Zr3_5 O11_2 1_555 1_555
O11_2 Zr4_3 1_555 1_555
O13_4 C24_4 1_555 1_555
C21_4 C24_4 1_555 1_555
C22_4 C23_4 1_555 1_555
Zr1_6 O2_4 1_555 1_555
Cu5_2 N1_4 1_555 1_555
O1_3 C6_4 1_555 1_555
O2_4 C6_4 1_555 1_555
N1_4 C1_4 1_555 1_555
C1_4 H3_4 1_555 1_555
C2_4 C1_4 1_555 1_555
H4_4 C2_4 1_555 1_555
C3_4 C2_4 1_555 1_555
C4_4 C3_4 1_555 1_555
H5_4 C4_4 1_555 1_555
C5_4 N1_4 1_555 1_555
H6_4 C5_4 1_555 1_555
C6_4 C3_4 1_555 1_555
Cu12_4 N2_4 1_555 1_555
O5_3 C12_4 1_555 1_555
O6_4 Zr1_6 1_555 1_555
N2_4 C7_4 1_555 1_555
C7_4 H9_4 1_555 1_555
C8_4 C7_4 1_555 1_555
H10_4 C8_4 1_555 1_555
C9_4 C8_4 1_555 1_555
C10_4 C9_4 1_555 1_555
H11_4 C10_4 1_555 1_555
C11_4 N2_4 1_555 1_555
H12_4 C11_4 1_555 1_555
C12_4 O6_4 1_555 1_555
O14_2 Zr1_6 1_555 1_555
H18_3 O14_2 1_555 1_555
Zr4_5 O1_3 1_555 1_555
C4_4 C5_4 1_555 1_555
O5_3 Zr5_5 1_555 1_555
C9_4 C12_4 1_555 1_555
C10_4 C11_4 1_555 1_555
O14_2 Zr4_5 1_555 1_555
O14_2 Zr5_5 1_555 1_555
O8_6 Zr4_2 1_555 1_555
H8_3 O8_6 1_555 1_555
O18_6 Zr4_2 1_555 1_555
O8_7 Zr4_3 1_555 1_555
H8_4 O8_7 1_555 1_555
O8_7 H26_2 1_555 1_555
O16_6 Zr4_4 1_555 1_555
H24_3 O16_6 1_555 1_555
O18_7 Zr4_4 1_555 1_555
O20_4 Zr4_4 1_555 1_555
Zr5_4 O20_4 1_555 1_555
O16_6 H28_2 1_555 1_555
O16_7 Zr4_5 1_555 1_555
H24_4 O16_7 1_555 1_555
O16_8 Zr5_2 1_555 1_555
H24_5 O16_8 1_555 1_555
O18_8 Zr5_2 1_555 1_555
O16_8 H28_3 1_555 1_555
O16_9 Zr5_3 1_555 1_555
H24_6 O16_9 1_555 1_555
O8_8 Zr5_4 1_555 1_555
H8_5 O8_8 1_555 1_555
O18_9 Zr5_4 1_555 1_555
O8_9 Zr5_5 1_555 1_555
H8_6 O8_9 1_555 1_555
O8_9 H26_3 1_555 1_555
O19_2 Zr1_7 1_555 1_555
H1_4 O19_2 1_555 1_555
Cu12 N2_5 1_555 1_555
O18_4 C12_5 1_555 1_555
O6_5 Zr1_7 1_555 1_555
N2_5 C7_5 1_555 1_555
C7_5 H9_5 1_555 1_555
C8_5 C7_5 1_555 1_555
H10_5 C8_5 1_555 1_555
C9_5 C8_5 1_555 1_555
C10_5 C9_5 1_555 1_555
H11_5 C10_5 1_555 1_555
C11_5 N2_5 1_555 1_555
H12_5 C11_5 1_555 1_555
C12_5 O6_5 1_555 1_555
Cu8 N3_5 1_555 1_555
O10_5 Zr1_7 1_555 1_555
N3_5 C13_5 1_555 1_555
C13_5 H14_5 1_555 1_555
C14_5 C13_5 1_555 1_555
H15_5 C14_5 1_555 1_555
C15_5 C14_5 1_555 1_555
C16_5 C15_5 1_555 1_555
H16_5 C16_5 1_555 1_555
C17_5 N3_5 1_555 1_555
H17_5 C17_5 1_555 1_555
C18_5 O17_2 1_555 1_555
C9_5 C12_5 1_555 1_555
C10_5 C11_5 1_555 1_555
O10_5 C18_5 1_555 1_555
C15_5 C18_5 1_555 1_555
C16_5 C17_5 1_555 1_555
O21_2 Zr1_8 1_555 1_555
H7_4 O21_2 1_555 1_555
Cu8_2 N3_6 1_555 1_555
O10_6 Zr1_8 1_555 1_555
N3_6 C13_6 1_555 1_555
C13_6 H14_6 1_555 1_555
C14_6 C13_6 1_555 1_555
H15_6 C14_6 1_555 1_555
C15_6 C14_6 1_555 1_555
C16_6 C15_6 1_555 1_555
H16_6 C16_6 1_555 1_555
C17_6 N3_6 1_555 1_555
H17_6 C17_6 1_555 1_555
C18_6 O17_3 1_555 1_555
Cu10 N4_5 1_555 1_555
O13_5 Zr1_8 1_555 1_555
N4_5 C19_5 1_555 1_555
C19_5 H19_5 1_555 1_555
C20_5 C19_5 1_555 1_555
H20_5 C20_5 1_555 1_555
C21_5 C20_5 1_555 1_555
C22_5 C21_5 1_555 1_555
H21_5 C22_5 1_555 1_555
C23_5 N4_5 1_555 1_555
H22_5 C23_5 1_555 1_555
C24_5 O18_8 1_555 1_555
O10_6 C18_6 1_555 1_555
C15_6 C18_6 1_555 1_555
C16_6 C17_6 1_555 1_555
O13_5 C24_5 1_555 1_555
C21_5 C24_5 1_555 1_555
C22_5 C23_5 1_555 1_555
Zr1_9 O2_5 1_555 1_555
Cu6 N1_5 1_555 1_555
O18_6 C6_5 1_555 1_555
O2_5 C6_5 1_555 1_555
N1_5 C1_5 1_555 1_555
C1_5 H3_5 1_555 1_555
C2_5 C1_5 1_555 1_555
H4_5 C2_5 1_555 1_555
C3_5 C2_5 1_555 1_555
C4_5 C3_5 1_555 1_555
H5_5 C4_5 1_555 1_555
C5_5 N1_5 1_555 1_555
H6_5 C5_5 1_555 1_555
C6_5 C3_5 1_555 1_555
Cu12_2 N2_6 1_555 1_555
O18_5 C12_6 1_555 1_555
O6_6 Zr1_9 1_555 1_555
N2_6 C7_6 1_555 1_555
C7_6 H9_6 1_555 1_555
C8_6 C7_6 1_555 1_555
H10_6 C8_6 1_555 1_555
C9_6 C8_6 1_555 1_555
C10_6 C9_6 1_555 1_555
H11_6 C10_6 1_555 1_555
C11_6 N2_6 1_555 1_555
H12_6 C11_6 1_555 1_555
C12_6 O6_6 1_555 1_555
O20_3 Zr1_9 1_555 1_555
H18_4 O20_3 1_555 1_555
C4_5 C5_5 1_555 1_555
C9_6 C12_6 1_555 1_555
C10_6 C11_6 1_555 1_555
Zr1_10 O2_6 1_555 1_555
Cu6_2 N1_6 1_555 1_555
O18_7 C6_6 1_555 1_555
O2_6 C6_6 1_555 1_555
N1_6 C1_6 1_555 1_555
C1_6 H3_6 1_555 1_555
C2_6 C1_6 1_555 1_555
H4_6 C2_6 1_555 1_555
C3_6 C2_6 1_555 1_555
C4_6 C3_6 1_555 1_555
H5_6 C4_6 1_555 1_555
C5_6 N1_6 1_555 1_555
H6_6 C5_6 1_555 1_555
C6_6 C3_6 1_555 1_555
O20_4 Zr1_10 1_555 1_555
H13_4 O20_4 1_555 1_555
Cu10_2 N4_6 1_555 1_555
O13_6 Zr1_10 1_555 1_555
N4_6 C19_6 1_555 1_555
C19_6 H19_6 1_555 1_555
C20_6 C19_6 1_555 1_555
H20_6 C20_6 1_555 1_555
C21_6 C20_6 1_555 1_555
C22_6 C21_6 1_555 1_555
H21_6 C22_6 1_555 1_555
C23_6 N4_6 1_555 1_555
H22_6 C23_6 1_555 1_555
C24_6 O18_9 1_555 1_555
C4_6 C5_6 1_555 1_555
O13_6 C24_6 1_555 1_555
C21_6 C24_6 1_555 1_555
C22_6 C23_6 1_555 1_555
O16_9 H28_4 1_555 1_555
O8_6 H25_2 1_555 1_555
O8_8 H26_4 1_555 1_555
O16_7 H27_2 1_555 1_555
O15_3 H28_5 1_555 1_555
O4_2 H26_5 1_555 1_555
O8_4 H26_6 1_555 1_555
O16_5 H28_6 1_555 1_555

#END
