
###############################################################################
#
# This file contains modified crystal structure data generated from the
# MOF subset of the Cambridge Structural Database (CSD) v543 
# hosted by the Cambridge Crystallographic Data Centre (CCDC).
#
# This work is licensed under the Creative Commons
# Attribution-NonCommercial-ShareAlike 4.0 International License.
# To view a copy of this license, visit
# http://creativecommons.org/licenses/by-nc-sa/4.0/
# or send a letter to
# Creative Commons, PO Box 1866, Mountain View, CA 94042, USA.
#
# CIF created using the CSD Python API on 29 September 2022
# The structure has been converted into the P1 space group
# The structure has a 3D framework
# The original CSD entry UZAFOR is in the monoclinic crystal system
# The framework has been calculated to contain at least 10.0% void space
# The void calculation uses a probe of radius 1.32A, grid spacing 0.4
#
###############################################################################

data_UZAFOR
_chemical_formula_moiety         '(C232 H288 N64 O64 Zn16)n'
_symmetry_cell_setting           triclinic
_symmetry_space_group_name_H-M   'P 1'
_symmetry_Int_Tables_number      1
_space_group_name_Hall           'P 1'
loop_
_symmetry_equiv_pos_site_id
_symmetry_equiv_pos_as_xyz
1 x,y,z
_cell_length_a                   42.0262(17)
_cell_length_b                   10.4420(4)
_cell_length_c                   18.8977(8)
_cell_angle_alpha                90
_cell_angle_beta                 112.776(5)
_cell_angle_gamma                90
_cell_volume                     7646.38
loop_
_atom_site_label
_atom_site_type_symbol
_atom_site_fract_x
_atom_site_fract_y
_atom_site_fract_z
C14 C 0.3682(2) 0.0083(8) 0.5734(5)
H16 H 0.3529 0.0769 0.5607
H29 H 0.2673 0.0650 0.8924
O5 O 0.31334(18) 0.0706(8) 0.8391(4)
Zn4 Zn 0.410620(15) 0.11888(6) 0.74903(3)
O11 O 0.34026(16) 0.1389(7) 0.6795(4)
O12 O 0.2865(2) 0.1141(9) 0.6429(5)
Zn2 Zn 0.325394(16) 0.96001(7) 0.73491(4)
C1 C 0.4056(2) 0.3119(8) 0.6096(5)
H1 H 0.3848 0.2733 0.5798
C2 C 0.4527(2) 0.3573(10) 0.7032(6)
H2 H 0.4704 0.3568 0.7517
C3 C 0.4501(2) 0.4413(10) 0.6458(6)
H3 H 0.4659 0.5040 0.6464
C4 C 0.4019(2) 0.4835(8) 0.5146(5)
H4 H 0.3867 0.4244 0.4771
H5 H 0.4194 0.5106 0.4959
C5 C 0.3809(2) 0.6013(7) 0.5186(5)
C6 C 0.3617(2) 0.5684(8) 0.5716(5)
H6 H 0.3478 0.4927 0.5510
H7 H 0.3789 0.5454 0.6215
C7 C 0.3070(2) 0.7042(10) 0.5345(5)
H8 H 0.2949 0.6750 0.4847
C8 C 0.2965(2) 0.7914(10) 0.5720(6)
H9 H 0.2755 0.8342 0.5520
C9 C 0.3456(2) 0.7302(8) 0.6481(5)
H10 H 0.3657 0.7200 0.6918
C10 C 0.3537(2) 0.6218(8) 0.4363(4)
H11 H 0.3376 0.5509 0.4234
H12 H 0.3409 0.6993 0.4357
C11 C 0.37838(19) 0.7411(8) 0.3547(5)
H13 H 0.3762 0.8219 0.3729
C12 C 0.3894(3) 0.5930(9) 0.2940(6)
H14 H 0.3967 0.5491 0.2601
C13 C 0.3753(2) 0.5367(10) 0.3383(5)
H15 H 0.3713 0.4496 0.3413
C15 C 0.3680(2) 0.9115(8) 0.5232(5)
H17 H 0.3536 0.9015 0.4719
C16 C 0.4095(2) 0.8836(8) 0.6396(5)
H18 H 0.4281 0.8482 0.6797
C17 C 0.4068(2) 0.7102(8) 0.5477(5)
H19 H 0.4261 0.6789 0.5921
H20 H 0.4155 0.7290 0.5083
H24 H 0.4360 0.0084 0.9580
C24 C 0.2902(3) 0.9838(11) 0.8300(6)
C25 C 0.2723(3) 0.9778(14) 0.8822(7)
H30 H 0.2883 0.9427 0.9305
C26 C 0.2402(4) 0.9046(15) 0.8594(8)
H31 H 0.2227 0.9514 0.8184
H32 H 0.2438 0.8243 0.8378
C27 C 0.2266(4) 0.8756(15) 0.9143(10)
H33 H 0.2236 0.9563 0.9364
H34 H 0.2442 0.8283 0.9548
C28 C 0.1941(3) 0.8038(12) 0.8948(7)
H35 H 0.1755 0.8608 0.8647
H36 H 0.1912 0.7881 0.9426
C29 C 0.1881(3) 0.6808(10) 0.8533(6)
N1 N 0.42546(18) 0.2742(7) 0.6786(4)
N2 N 0.41919(18) 0.4139(6) 0.5870(4)
N3 N 0.33922(18) 0.6659(7) 0.5835(4)
N4 N 0.32097(18) 0.8090(7) 0.6443(4)
N5 N 0.36780(16) 0.6322(7) 0.3782(4)
N6 N 0.39186(17) 0.7216(7) 0.3044(4)
N7 N 0.39528(16) 0.8317(6) 0.5695(4)
N8 N 0.39416(17) 0.9895(6) 0.6452(4)
O6 O 0.28398(17) 0.9028(7) 0.7791(4)
O7 O 0.15974(16) 0.6389(7) 0.8205(4)
O8 O 0.2135(2) 0.6141(9) 0.8571(5)
Zn3 Zn 0.410620(15) 0.88112(6) 0.24903(3)
Zn7 Zn 0.174606(16) 0.46001(7) 0.76509(4)
N9 N 0.39186(17) 0.2784(7) 0.8044(4)
O9 O 0.38543(14) 0.9763(6) 0.8110(3)
O10 O 0.46489(18) 0.1578(8) 0.8500(4)
C21 C 0.4698(2) 0.8836(10) 0.0328(6)
H25 H 0.4863 0.8849 0.0083
H26 H 0.4685 0.7963 0.0490
C22 C 0.4836(2) 0.9694(11) 0.1045(5)
H28 H 0.4690 0.9594 0.1333
C23 C 0.5199(3) 0.9387(11) 0.1555(6)
O4 O 0.53511(18) 0.8422(8) 0.1500(4)
Zn5 Zn 0.589380(15) 0.88112(6) 0.25097(3)
C18 C 0.3885(2) 0.8733(9) 0.8456(5)
C19 C 0.4229(2) 0.8381(9) 0.9066(6)
H21 H 0.4215 0.7511 0.9231
H22 H 0.4400 0.8392 0.8839
C20 C 0.4349(2) 0.9210(10) 0.9742(5)
H23 H 0.4182 0.9183 0.9981
O2 O 0.36368(17) 0.7983(7) 0.8308(4)
C14_2 C 0.6318(2) 0.0083(8) 0.9266(5)
H16_2 H 0.6471 0.0769 0.9393
H29_2 H 0.7327 0.0650 0.6076
O5_2 O 0.68666(18) 0.0706(8) 0.6609(4)
Zn4_2 Zn 0.589380(15) 0.11888(6) 0.75097(3)
O11_2 O 0.65974(16) 0.1389(7) 0.8205(4)
O12_2 O 0.7135(2) 0.1141(9) 0.8571(5)
H4_2 H 0.6133 0.4244 0.0229
H5_2 H 0.5806 0.5106 0.0041
H8_2 H 0.7051 0.6750 0.0153
C10_2 C 0.6463(2) 0.6218(8) 0.0637(4)
H11_2 H 0.6624 0.5509 0.0766
H12_2 H 0.6591 0.6993 0.0643
C11_2 C 0.62162(19) 0.7411(8) 0.1453(5)
H13_2 H 0.6238 0.8219 0.1271
C12_2 C 0.6106(3) 0.5930(9) 0.2060(6)
H14_2 H 0.6033 0.5491 0.2399
C13_2 C 0.6247(2) 0.5367(10) 0.1617(5)
H15_2 H 0.6287 0.4496 0.1587
H17_2 H 0.6464 0.9015 0.0281
N5_2 N 0.63220(16) 0.6322(7) 0.1218(4)
N6_2 N 0.60814(17) 0.7216(7) 0.1956(4)
Zn2_2 Zn 0.674606(16) 0.96001(7) 0.76509(4)
C1_2 C 0.5944(2) 0.3119(8) 0.8904(5)
H1_2 H 0.6152 0.2733 0.9202
C2_2 C 0.5473(2) 0.3573(10) 0.7968(6)
H2_2 H 0.5296 0.3568 0.7483
C3_2 C 0.5499(2) 0.4413(10) 0.8542(6)
H3_2 H 0.5341 0.5040 0.8536
C4_2 C 0.5981(2) 0.4835(8) 0.9854(5)
C5_2 C 0.6191(2) 0.6013(7) 0.9814(5)
C6_2 C 0.6383(2) 0.5684(8) 0.9284(5)
H6_2 H 0.6522 0.4927 0.9490
H7_2 H 0.6211 0.5454 0.8785
C7_2 C 0.6930(2) 0.7042(10) 0.9655(5)
C8_2 C 0.7035(2) 0.7914(10) 0.9280(6)
H9_2 H 0.7245 0.8342 0.9480
C9_2 C 0.6544(2) 0.7302(8) 0.8519(5)
H10_2 H 0.6343 0.7200 0.8082
C15_2 C 0.6320(2) 0.9115(8) 0.9768(5)
C16_2 C 0.5905(2) 0.8836(8) 0.8604(5)
H18_2 H 0.5719 0.8482 0.8203
C17_2 C 0.5932(2) 0.7102(8) 0.9523(5)
H19_2 H 0.5739 0.6789 0.9079
H20_2 H 0.5845 0.7290 0.9917
H24_2 H 0.5640 0.0084 0.5420
H27 H 0.5177 0.0582 0.4114
C24_2 C 0.7098(3) 0.9838(11) 0.6700(6)
C25_2 C 0.7277(3) 0.9778(14) 0.6178(7)
H30_2 H 0.7117 0.9427 0.5695
C26_2 C 0.7598(4) 0.9046(15) 0.6406(8)
H31_2 H 0.7773 0.9514 0.6816
H32_2 H 0.7562 0.8243 0.6622
C27_2 C 0.7734(4) 0.8756(15) 0.5857(10)
H33_2 H 0.7764 0.9563 0.5636
H34_2 H 0.7558 0.8283 0.5452
C28_2 C 0.8059(3) 0.8038(12) 0.6052(7)
H35_2 H 0.8245 0.8608 0.6353
H36_2 H 0.8088 0.7881 0.5574
C29_2 C 0.8119(3) 0.6808(10) 0.6467(6)
N1_2 N 0.57454(18) 0.2742(7) 0.8214(4)
N2_2 N 0.58081(18) 0.4139(6) 0.9130(4)
N3_2 N 0.66078(18) 0.6659(7) 0.9165(4)
N4_2 N 0.67903(18) 0.8090(7) 0.8557(4)
N7_2 N 0.60472(16) 0.8317(6) 0.9305(4)
N8_2 N 0.60584(17) 0.9895(6) 0.8548(4)
O3 O 0.4641(2) 0.0225(9) 0.2946(5)
O6_2 O 0.71602(17) 0.9028(7) 0.7209(4)
O7_2 O 0.84026(16) 0.6389(7) 0.6795(4)
O8_2 O 0.7865(2) 0.6141(9) 0.6429(5)
Zn7_2 Zn 0.825394(16) 0.46001(7) 0.73491(4)
N9_2 N 0.60814(17) 0.2784(7) 0.6956(4)
O9_2 O 0.61457(14) 0.9763(6) 0.6890(3)
O10_2 O 0.53511(18) 0.1578(8) 0.6500(4)
C18_2 C 0.6115(2) 0.8733(9) 0.6544(5)
C19_2 C 0.5771(2) 0.8381(9) 0.5934(6)
H21_2 H 0.5785 0.7511 0.5769
H22_2 H 0.5600 0.8392 0.6161
C20_2 C 0.5651(2) 0.9210(10) 0.5258(5)
H23_2 H 0.5818 0.9183 0.5019
C21_2 C 0.5302(2) 0.8836(10) 0.4672(6)
H25_2 H 0.5137 0.8849 0.4917
H26_2 H 0.5315 0.7963 0.4510
C22_2 C 0.5164(2) 0.9694(11) 0.3955(5)
H28_2 H 0.5310 0.9594 0.3667
C23_2 C 0.4801(3) 0.9387(11) 0.3445(6)
O2_2 O 0.63632(17) 0.7983(7) 0.6692(4)
O4_2 O 0.46489(18) 0.8422(8) 0.3500(4)
C23_3 C 0.0199(3) 0.4387(11) 0.1555(6)
O3_2 O 0.0359(2) 0.5225(9) 0.2054(5)
O4_3 O 0.03511(18) 0.3422(8) 0.1500(4)
Zn5_2 Zn 0.089380(15) 0.38112(6) 0.25097(3)
H3_3 H 0.9659 0.0040 0.6464
H5_3 H 0.9194 0.0106 0.4959
C5_3 C 0.8809(2) 0.1013(7) 0.5186(5)
C6_3 C 0.8617(2) 0.0684(8) 0.5716(5)
H7_3 H 0.8789 0.0454 0.6215
C7_3 C 0.8070(2) 0.2042(10) 0.5345(5)
H8_3 H 0.7949 0.1750 0.4847
C8_3 C 0.7965(2) 0.2914(10) 0.5720(6)
H9_3 H 0.7755 0.3342 0.5520
C9_3 C 0.8456(2) 0.2302(8) 0.6481(5)
H10_3 H 0.8657 0.2200 0.6918
C10_3 C 0.8537(2) 0.1218(8) 0.4363(4)
H11_3 H 0.8376 0.0509 0.4234
H12_3 H 0.8409 0.1993 0.4357
C11_3 C 0.87838(19) 0.2411(8) 0.3547(5)
H13_3 H 0.8762 0.3219 0.3729
C12_3 C 0.8894(3) 0.0930(9) 0.2940(6)
H14_3 H 0.8967 0.0491 0.2601
C13_3 C 0.8753(2) 0.0367(10) 0.3383(5)
C14_3 C 0.8682(2) 0.5083(8) 0.5734(5)
H16_3 H 0.8529 0.5769 0.5607
C15_3 C 0.8680(2) 0.4115(8) 0.5232(5)
H17_3 H 0.8536 0.4015 0.4719
C16_3 C 0.9095(2) 0.3836(8) 0.6396(5)
H18_3 H 0.9281 0.3482 0.6797
C17_3 C 0.9068(2) 0.2102(8) 0.5477(5)
H19_3 H 0.9261 0.1789 0.5921
H20_3 H 0.9155 0.2290 0.5083
C24_3 C 0.7902(3) 0.4838(11) 0.8300(6)
C25_3 C 0.7723(3) 0.4778(14) 0.8822(7)
H29_3 H 0.7673 0.5650 0.8924
H30_3 H 0.7883 0.4427 0.9305
C26_3 C 0.7402(4) 0.4046(15) 0.8594(8)
H31_3 H 0.7227 0.4514 0.8184
H32_3 H 0.7438 0.3243 0.8378
C27_3 C 0.7266(4) 0.3756(15) 0.9143(10)
H33_3 H 0.7236 0.4563 0.9364
H34_3 H 0.7442 0.3283 0.9548
C28_3 C 0.6941(3) 0.3038(12) 0.8948(7)
H35_3 H 0.6755 0.3608 0.8647
H36_3 H 0.6912 0.2881 0.9426
C29_3 C 0.6881(3) 0.1808(10) 0.8533(6)
N3_3 N 0.83922(18) 0.1659(7) 0.5835(4)
N4_3 N 0.82097(18) 0.3090(7) 0.6443(4)
N5_3 N 0.86780(16) 0.1322(7) 0.3782(4)
N6_3 N 0.89186(17) 0.2216(7) 0.3044(4)
N7_3 N 0.89528(16) 0.3317(6) 0.5695(4)
N8_3 N 0.89416(17) 0.4895(6) 0.6452(4)
O5_3 O 0.81334(18) 0.5706(8) 0.8391(4)
O6_3 O 0.78398(17) 0.4028(7) 0.7791(4)
Zn3_2 Zn 0.910620(15) 0.38112(6) 0.24903(3)
Zn4_3 Zn 0.910620(15) 0.61888(6) 0.74903(3)
O9_3 O 0.88543(14) 0.4763(6) 0.8110(3)
C1_3 C 0.9056(2) 0.8119(8) 0.6096(5)
H1_3 H 0.8848 0.7733 0.5798
C2_3 C 0.9527(2) 0.8573(10) 0.7032(6)
H2_3 H 0.9704 0.8568 0.7517
C3_3 C 0.9501(2) 0.9413(10) 0.6458(6)
C4_3 C 0.9019(2) 0.9835(8) 0.5146(5)
H4_3 H 0.8867 0.9244 0.4771
H6_3 H 0.8478 0.9927 0.5510
H15_3 H 0.8713 0.9496 0.3413
C18_3 C 0.8885(2) 0.3733(9) 0.8456(5)
C19_3 C 0.9229(2) 0.3381(9) 0.9066(6)
H21_3 H 0.9215 0.2511 0.9231
H22_3 H 0.9400 0.3392 0.8839
C20_3 C 0.9349(2) 0.4210(10) 0.9742(5)
H23_3 H 0.9182 0.4183 0.9981
H24_3 H 0.9360 0.5084 0.9580
N1_3 N 0.92546(18) 0.7742(7) 0.6786(4)
N2_3 N 0.91919(18) 0.9139(6) 0.5870(4)
O2_3 O 0.86368(17) 0.2983(7) 0.8308(4)
N9_3 N 0.89186(17) 0.7784(7) 0.8044(4)
O10_3 O 0.96489(18) 0.6578(8) 0.8500(4)
H5_4 H 0.0806 0.0106 0.0041
H8_4 H 0.2051 0.1750 0.0153
C10_4 C 0.1463(2) 0.1218(8) 0.0637(4)
H11_4 H 0.1624 0.0509 0.0766
H12_4 H 0.1591 0.1993 0.0643
C11_4 C 0.12162(19) 0.2411(8) 0.1453(5)
H13_4 H 0.1238 0.3219 0.1271
C12_4 C 0.1106(3) 0.0930(9) 0.2060(6)
H14_4 H 0.1033 0.0491 0.2399
C13_4 C 0.1247(2) 0.0367(10) 0.1617(5)
H17_4 H 0.1464 0.4015 0.0281
N5_4 N 0.13220(16) 0.1322(7) 0.1218(4)
N6_4 N 0.10814(17) 0.2216(7) 0.1956(4)
H3_4 H 0.0341 0.0040 0.8536
C5_4 C 0.1191(2) 0.1013(7) 0.9814(5)
C6_4 C 0.1383(2) 0.0684(8) 0.9284(5)
H7_4 H 0.1211 0.0454 0.8785
C7_4 C 0.1930(2) 0.2042(10) 0.9655(5)
C8_4 C 0.2035(2) 0.2914(10) 0.9280(6)
H9_4 H 0.2245 0.3342 0.9480
C9_4 C 0.1544(2) 0.2302(8) 0.8519(5)
H10_4 H 0.1343 0.2200 0.8082
C14_4 C 0.1318(2) 0.5083(8) 0.9266(5)
H16_4 H 0.1471 0.5769 0.9393
C15_4 C 0.1320(2) 0.4115(8) 0.9768(5)
C16_4 C 0.0905(2) 0.3836(8) 0.8604(5)
H18_4 H 0.0719 0.3482 0.8203
C17_4 C 0.0932(2) 0.2102(8) 0.9523(5)
H19_4 H 0.0739 0.1789 0.9079
H20_4 H 0.0845 0.2290 0.9917
C24_4 C 0.2098(3) 0.4838(11) 0.6700(6)
C25_4 C 0.2277(3) 0.4778(14) 0.6178(7)
H29_4 H 0.2327 0.5650 0.6076
H30_4 H 0.2117 0.4427 0.5695
C26_4 C 0.2598(4) 0.4046(15) 0.6406(8)
H31_4 H 0.2773 0.4514 0.6816
H32_4 H 0.2562 0.3243 0.6622
C27_4 C 0.2734(4) 0.3756(15) 0.5857(10)
H33_4 H 0.2764 0.4563 0.5636
H34_4 H 0.2558 0.3283 0.5452
C28_4 C 0.3059(3) 0.3038(12) 0.6052(7)
H35_4 H 0.3245 0.3608 0.6353
H36_4 H 0.3088 0.2881 0.5574
C29_4 C 0.3119(3) 0.1808(10) 0.6467(6)
N3_4 N 0.16078(18) 0.1659(7) 0.9165(4)
N4_4 N 0.17903(18) 0.3090(7) 0.8557(4)
N7_4 N 0.10472(16) 0.3317(6) 0.9305(4)
N8_4 N 0.10584(17) 0.4895(6) 0.8548(4)
O5_4 O 0.18666(18) 0.5706(8) 0.6609(4)
O6_4 O 0.21602(17) 0.4028(7) 0.7209(4)
Zn4_4 Zn 0.089380(15) 0.61888(6) 0.75097(3)
O9_4 O 0.11457(14) 0.4763(6) 0.6890(3)
C1_4 C 0.0944(2) 0.8119(8) 0.8904(5)
H1_4 H 0.1152 0.7733 0.9202
C2_4 C 0.0473(2) 0.8573(10) 0.7968(6)
H2_4 H 0.0296 0.8568 0.7483
C3_4 C 0.0499(2) 0.9413(10) 0.8542(6)
C4_4 C 0.0981(2) 0.9835(8) 0.9854(5)
H6_4 H 0.1522 0.9927 0.9490
C18_4 C 0.1115(2) 0.3733(9) 0.6544(5)
C19_4 C 0.0771(2) 0.3381(9) 0.5934(6)
H21_4 H 0.0785 0.2511 0.5769
H22_4 H 0.0600 0.3392 0.6161
C20_4 C 0.0651(2) 0.4210(10) 0.5258(5)
H23_4 H 0.0818 0.4183 0.5019
H24_4 H 0.0640 0.5084 0.5420
C21_3 C 0.0302(2) 0.3836(10) 0.4672(6)
H25_3 H 0.0137 0.3849 0.4917
H26_3 H 0.0315 0.2963 0.4510
C22_3 C 0.0164(2) 0.4694(11) 0.3955(5)
H27_2 H 0.0177 0.5582 0.4114
H28_3 H 0.0310 0.4594 0.3667
N1_4 N 0.07454(18) 0.7742(7) 0.8214(4)
N2_4 N 0.08081(18) 0.9139(6) 0.9130(4)
O2_4 O 0.13632(17) 0.2983(7) 0.6692(4)
N9_4 N 0.10814(17) 0.7784(7) 0.6956(4)
O10_4 O 0.03511(18) 0.6578(8) 0.6500(4)
C23_4 C 0.9801(3) 0.4387(11) 0.3445(6)
O3_3 O 0.9641(2) 0.5225(9) 0.2946(5)
O4_4 O 0.96489(18) 0.3422(8) 0.3500(4)
C18_5 C 0.6115(2) 0.1267(9) 0.1544(5)
C19_5 C 0.5771(2) 0.1619(9) 0.0934(6)
H21_5 H 0.5785 0.2489 0.0769
H22_5 H 0.5600 0.1608 0.1161
C20_5 C 0.5651(2) 0.0790(10) 0.0258(5)
H23_5 H 0.5818 0.0817 0.0019
O1 O 0.61457(14) 0.0237(6) 0.1890(3)
O2_5 O 0.63632(17) 0.2017(7) 0.1692(4)
Zn6 Zn 0.674606(16) 0.03999(7) 0.26509(4)
N10 N 0.60584(17) 0.0105(6) 0.3548(4)
C21_4 C 0.5302(2) 0.1164(10) 0.9672(6)
H25_4 H 0.5137 0.1151 0.9917
H26_4 H 0.5315 0.2037 0.9510
C22_4 C 0.5164(2) 0.0306(11) 0.8955(5)
H28_4 H 0.5310 0.0406 0.8667
C23_5 C 0.4801(3) 0.0613(11) 0.8445(6)
C1_5 C 0.5944(2) 0.6881(8) 0.3904(5)
H1_5 H 0.6152 0.7267 0.4202
C2_5 C 0.5473(2) 0.6427(10) 0.2968(6)
H2_5 H 0.5296 0.6432 0.2483
C3_5 C 0.5499(2) 0.5587(10) 0.3542(6)
H3_5 H 0.5341 0.4960 0.3536
C4_5 C 0.5981(2) 0.5165(8) 0.4854(5)
H4_4 H 0.6133 0.5756 0.5229
H5_5 H 0.5806 0.4894 0.5041
C5_5 C 0.6191(2) 0.3987(7) 0.4814(5)
C6_5 C 0.6383(2) 0.4316(8) 0.4284(5)
H6_5 H 0.6522 0.5073 0.4490
H7_5 H 0.6211 0.4546 0.3785
C7_5 C 0.6930(2) 0.2958(10) 0.4655(5)
H8_5 H 0.7051 0.3250 0.5153
C8_5 C 0.7035(2) 0.2086(10) 0.4280(6)
H9_5 H 0.7245 0.1658 0.4480
C9_5 C 0.6544(2) 0.2698(8) 0.3519(5)
H10_5 H 0.6343 0.2800 0.3082
C10_5 C 0.6463(2) 0.3782(8) 0.5637(4)
H11_5 H 0.6624 0.4491 0.5766
H12_5 H 0.6591 0.3007 0.5643
C11_5 C 0.62162(19) 0.2589(8) 0.6453(5)
H13_5 H 0.6238 0.1781 0.6271
C12_5 C 0.6106(3) 0.4070(9) 0.7060(6)
H14_5 H 0.6033 0.4509 0.7399
C13_5 C 0.6247(2) 0.4633(10) 0.6617(5)
H15_4 H 0.6287 0.5504 0.6587
C15_5 C 0.6320(2) 0.0885(8) 0.4768(5)
H17_5 H 0.6464 0.0985 0.5281
C16_5 C 0.5905(2) 0.1164(8) 0.3604(5)
H18_5 H 0.5719 0.1518 0.3203
C17_5 C 0.5932(2) 0.2898(8) 0.4523(5)
H19_5 H 0.5739 0.3211 0.4079
H20_5 H 0.5845 0.2710 0.4917
H24_5 H 0.5640 0.9916 0.0420
C24_5 C 0.7098(3) 0.0162(11) 0.1700(6)
C25_5 C 0.7277(3) 0.0222(14) 0.1178(7)
H30_5 H 0.7117 0.0573 0.0695
C26_5 C 0.7598(4) 0.0954(15) 0.1406(8)
H31_5 H 0.7773 0.0486 0.1816
H32_5 H 0.7562 0.1757 0.1622
C27_5 C 0.7734(4) 0.1244(15) 0.0857(10)
H33_5 H 0.7764 0.0437 0.0636
H34_5 H 0.7558 0.1717 0.0452
C28_5 C 0.8059(3) 0.1962(12) 0.1052(7)
H35_5 H 0.8245 0.1392 0.1353
H36_5 H 0.8088 0.2119 0.0574
C29_5 C 0.8119(3) 0.3192(10) 0.1467(6)
N1_5 N 0.57454(18) 0.7258(7) 0.3214(4)
N2_5 N 0.58081(18) 0.5861(6) 0.4130(4)
N3_5 N 0.66078(18) 0.3341(7) 0.4165(4)
N4_5 N 0.67903(18) 0.1910(7) 0.3557(4)
N5_5 N 0.63220(16) 0.3678(7) 0.6218(4)
N7_5 N 0.60472(16) 0.1683(6) 0.4305(4)
O6_5 O 0.71602(17) 0.0972(7) 0.2209(4)
O7_3 O 0.84026(16) 0.3611(7) 0.1795(4)
O8_3 O 0.7865(2) 0.3859(9) 0.1429(5)
Zn7_3 Zn 0.825394(16) 0.53999(7) 0.23491(4)
C14_5 C 0.6318(2) 0.9917(8) 0.4266(5)
H16_5 H 0.6471 0.9231 0.4393
H29_5 H 0.7327 0.9350 0.1076
O5_5 O 0.68666(18) 0.9294(8) 0.1609(4)
O11_3 O 0.65974(16) 0.8611(7) 0.3205(4)
O12_3 O 0.7135(2) 0.8859(9) 0.3571(5)
C18_6 C 0.3885(2) 0.1267(9) 0.3456(5)
C19_6 C 0.4229(2) 0.1619(9) 0.4066(6)
H21_6 H 0.4215 0.2489 0.4231
H22_6 H 0.4400 0.1608 0.3839
C20_6 C 0.4349(2) 0.0790(10) 0.4742(5)
H23_6 H 0.4182 0.0817 0.4981
C21_5 C 0.4698(2) 0.1164(10) 0.5328(6)
H25_5 H 0.4863 0.1151 0.5083
H26_5 H 0.4685 0.2037 0.5490
C22_5 C 0.4836(2) 0.0306(11) 0.6045(5)
H28_5 H 0.4690 0.0406 0.6333
C23_6 C 0.5199(3) 0.0613(11) 0.6555(6)
O1_2 O 0.38543(14) 0.0237(6) 0.3110(3)
O2_6 O 0.36368(17) 0.2017(7) 0.3308(4)
Zn6_2 Zn 0.325394(16) 0.03999(7) 0.23491(4)
N10_2 N 0.39416(17) 0.0105(6) 0.1452(4)
C1_6 C 0.4056(2) 0.6881(8) 0.1096(5)
H1_6 H 0.3848 0.7267 0.0798
C2_6 C 0.4527(2) 0.6427(10) 0.2032(6)
H2_6 H 0.4704 0.6432 0.2517
C3_6 C 0.4501(2) 0.5587(10) 0.1458(6)
H3_6 H 0.4659 0.4960 0.1464
C4_6 C 0.4019(2) 0.5165(8) 0.0146(5)
C5_6 C 0.3809(2) 0.3987(7) 0.0186(5)
C6_6 C 0.3617(2) 0.4316(8) 0.0716(5)
H6_6 H 0.3478 0.5073 0.0510
H7_6 H 0.3789 0.4546 0.1215
C7_6 C 0.3070(2) 0.2958(10) 0.0345(5)
C8_6 C 0.2965(2) 0.2086(10) 0.0720(6)
H9_6 H 0.2755 0.1658 0.0520
C9_6 C 0.3456(2) 0.2698(8) 0.1481(5)
H10_6 H 0.3657 0.2800 0.1918
C15_6 C 0.3680(2) 0.0885(8) 0.0232(5)
C16_6 C 0.4095(2) 0.1164(8) 0.1396(5)
H18_6 H 0.4281 0.1518 0.1797
C17_6 C 0.4068(2) 0.2898(8) 0.0477(5)
H19_6 H 0.4261 0.3211 0.0921
H20_6 H 0.4155 0.2710 0.0083
H24_6 H 0.4360 0.9916 0.4580
H27_3 H 0.4823 0.9418 0.5886
C24_6 C 0.2902(3) 0.0162(11) 0.3300(6)
C25_6 C 0.2723(3) 0.0222(14) 0.3822(7)
H30_6 H 0.2883 0.0573 0.4305
C26_6 C 0.2402(4) 0.0954(15) 0.3594(8)
H31_6 H 0.2227 0.0486 0.3184
H32_6 H 0.2438 0.1757 0.3378
C27_6 C 0.2266(4) 0.1244(15) 0.4143(10)
H33_6 H 0.2236 0.0437 0.4364
H34_6 H 0.2442 0.1717 0.4548
C28_6 C 0.1941(3) 0.1962(12) 0.3948(7)
H35_6 H 0.1755 0.1392 0.3647
H36_6 H 0.1912 0.2119 0.4426
C29_6 C 0.1881(3) 0.3192(10) 0.3533(6)
N1_6 N 0.42546(18) 0.7258(7) 0.1786(4)
N2_6 N 0.41919(18) 0.5861(6) 0.0870(4)
N3_6 N 0.33922(18) 0.3341(7) 0.0835(4)
N4_6 N 0.32097(18) 0.1910(7) 0.1443(4)
N7_6 N 0.39528(16) 0.1683(6) 0.0695(4)
O3_4 O 0.5359(2) 0.9775(9) 0.7054(5)
O6_6 O 0.28398(17) 0.0972(7) 0.2791(4)
O7_4 O 0.15974(16) 0.3611(7) 0.3205(4)
O8_4 O 0.2135(2) 0.3859(9) 0.3571(5)
Zn7_4 Zn 0.174606(16) 0.53999(7) 0.26509(4)
H4_5 H 0.3867 0.5756 0.9771
H5_6 H 0.4194 0.4894 0.9959
H8_6 H 0.2949 0.3250 0.9847
C10_6 C 0.3537(2) 0.3782(8) 0.9363(4)
H11_6 H 0.3376 0.4491 0.9234
H12_6 H 0.3409 0.3007 0.9357
C11_6 C 0.37838(19) 0.2589(8) 0.8547(5)
H13_6 H 0.3762 0.1781 0.8729
C12_6 C 0.3894(3) 0.4070(9) 0.7940(6)
H14_6 H 0.3967 0.4509 0.7601
C13_6 C 0.3753(2) 0.4633(10) 0.8383(5)
H15_5 H 0.3713 0.5504 0.8413
H17_6 H 0.3536 0.0985 0.9719
N5_6 N 0.36780(16) 0.3678(7) 0.8782(4)
C14_6 C 0.3682(2) 0.9917(8) 0.0734(5)
H16_6 H 0.3529 0.9231 0.0607
H29_6 H 0.2673 0.9350 0.3924
O5_6 O 0.31334(18) 0.9294(8) 0.3391(4)
O11_4 O 0.34026(16) 0.8611(7) 0.1795(4)
O12_4 O 0.2865(2) 0.8859(9) 0.1429(5)
C1_7 C 0.0944(2) 0.1881(8) 0.3904(5)
H1_7 H 0.1152 0.2267 0.4202
C2_7 C 0.0473(2) 0.1427(10) 0.2968(6)
H2_7 H 0.0296 0.1432 0.2483
C3_7 C 0.0499(2) 0.0587(10) 0.3542(6)
C4_7 C 0.0981(2) 0.0165(8) 0.4854(5)
H4_6 H 0.1133 0.0756 0.5229
H6_7 H 0.1522 0.0073 0.4490
H15_6 H 0.1287 0.0504 0.6587
C18_7 C 0.1115(2) 0.6267(9) 0.1544(5)
C19_7 C 0.0771(2) 0.6619(9) 0.0934(6)
H21_7 H 0.0785 0.7489 0.0769
H22_7 H 0.0600 0.6608 0.1161
C20_7 C 0.0651(2) 0.5790(10) 0.0258(5)
H23_7 H 0.0818 0.5817 0.0019
H24_7 H 0.0640 0.4916 0.0420
N1_7 N 0.07454(18) 0.2258(7) 0.3214(4)
N2_7 N 0.08081(18) 0.0861(6) 0.4130(4)
O1_3 O 0.11457(14) 0.5237(6) 0.1890(3)
O2_7 O 0.13632(17) 0.7017(7) 0.1692(4)
N10_3 N 0.10584(17) 0.5105(6) 0.3548(4)
H3_7 H 0.0341 0.9960 0.3536
H5_7 H 0.0806 0.9894 0.5041
C5_7 C 0.1191(2) 0.8987(7) 0.4814(5)
C6_7 C 0.1383(2) 0.9316(8) 0.4284(5)
H7_7 H 0.1211 0.9546 0.3785
C7_7 C 0.1930(2) 0.7958(10) 0.4655(5)
H8_7 H 0.2051 0.8250 0.5153
C8_7 C 0.2035(2) 0.7086(10) 0.4280(6)
H9_7 H 0.2245 0.6658 0.4480
C9_7 C 0.1544(2) 0.7698(8) 0.3519(5)
H10_7 H 0.1343 0.7800 0.3082
C10_7 C 0.1463(2) 0.8782(8) 0.5637(4)
H11_7 H 0.1624 0.9491 0.5766
H12_7 H 0.1591 0.8007 0.5643
C11_7 C 0.12162(19) 0.7589(8) 0.6453(5)
H13_7 H 0.1238 0.6781 0.6271
C12_7 C 0.1106(3) 0.9070(9) 0.7060(6)
H14_7 H 0.1033 0.9509 0.7399
C13_7 C 0.1247(2) 0.9633(10) 0.6617(5)
C14_7 C 0.1318(2) 0.4917(8) 0.4266(5)
H16_7 H 0.1471 0.4231 0.4393
C15_7 C 0.1320(2) 0.5885(8) 0.4768(5)
H17_7 H 0.1464 0.5985 0.5281
C16_7 C 0.0905(2) 0.6164(8) 0.3604(5)
H18_7 H 0.0719 0.6518 0.3203
C17_7 C 0.0932(2) 0.7898(8) 0.4523(5)
H19_7 H 0.0739 0.8211 0.4079
H20_7 H 0.0845 0.7710 0.4917
C24_7 C 0.2098(3) 0.5162(11) 0.1700(6)
C25_7 C 0.2277(3) 0.5222(14) 0.1178(7)
H29_7 H 0.2327 0.4350 0.1076
H30_7 H 0.2117 0.5573 0.0695
C26_7 C 0.2598(4) 0.5954(15) 0.1406(8)
H31_7 H 0.2773 0.5486 0.1816
H32_7 H 0.2562 0.6757 0.1622
C27_7 C 0.2734(4) 0.6244(15) 0.0857(10)
H33_7 H 0.2764 0.5437 0.0636
H34_7 H 0.2558 0.6717 0.0452
C28_7 C 0.3059(3) 0.6962(12) 0.1052(7)
H35_7 H 0.3245 0.6392 0.1353
H36_7 H 0.3088 0.7119 0.0574
C29_7 C 0.3119(3) 0.8192(10) 0.1467(6)
N3_7 N 0.16078(18) 0.8341(7) 0.4165(4)
N4_7 N 0.17903(18) 0.6910(7) 0.3557(4)
N5_7 N 0.13220(16) 0.8678(7) 0.6218(4)
N7_7 N 0.10472(16) 0.6683(6) 0.4305(4)
O5_7 O 0.18666(18) 0.4294(8) 0.1609(4)
O6_7 O 0.21602(17) 0.5972(7) 0.2209(4)
C23_7 C 0.9801(3) 0.5613(11) 0.8445(6)
O3_5 O 0.9641(2) 0.4775(9) 0.7946(5)
C23_8 C 0.0199(3) 0.5613(11) 0.6555(6)
O3_6 O 0.0359(2) 0.4775(9) 0.7054(5)
C1_8 C 0.9056(2) 0.1881(8) 0.1096(5)
H1_8 H 0.8848 0.2267 0.0798
C2_8 C 0.9527(2) 0.1427(10) 0.2032(6)
H2_8 H 0.9704 0.1432 0.2517
C3_8 C 0.9501(2) 0.0587(10) 0.1458(6)
C4_8 C 0.9019(2) 0.0165(8) 0.0146(5)
H6_8 H 0.8478 0.0073 0.0510
C18_8 C 0.8885(2) 0.6267(9) 0.3456(5)
C19_8 C 0.9229(2) 0.6619(9) 0.4066(6)
H21_8 H 0.9215 0.7489 0.4231
H22_8 H 0.9400 0.6608 0.3839
C20_8 C 0.9349(2) 0.5790(10) 0.4742(5)
H23_8 H 0.9182 0.5817 0.4981
H24_8 H 0.9360 0.4916 0.4580
C21_6 C 0.9698(2) 0.6164(10) 0.5328(6)
H25_6 H 0.9863 0.6151 0.5083
H26_6 H 0.9685 0.7037 0.5490
C22_6 C 0.9836(2) 0.5306(11) 0.6045(5)
H27_4 H 0.9823 0.4418 0.5886
H28_6 H 0.9690 0.5406 0.6333
N1_8 N 0.92546(18) 0.2258(7) 0.1786(4)
N2_8 N 0.91919(18) 0.0861(6) 0.0870(4)
O1_4 O 0.88543(14) 0.5237(6) 0.3110(3)
O2_8 O 0.86368(17) 0.7017(7) 0.3308(4)
N10_4 N 0.89416(17) 0.5105(6) 0.1452(4)
H3_8 H 0.9659 0.9960 0.1464
C5_8 C 0.8809(2) 0.8987(7) 0.0186(5)
C6_8 C 0.8617(2) 0.9316(8) 0.0716(5)
H7_8 H 0.8789 0.9546 0.1215
C7_8 C 0.8070(2) 0.7958(10) 0.0345(5)
C8_8 C 0.7965(2) 0.7086(10) 0.0720(6)
H9_8 H 0.7755 0.6658 0.0520
C9_8 C 0.8456(2) 0.7698(8) 0.1481(5)
H10_8 H 0.8657 0.7800 0.1918
C14_8 C 0.8682(2) 0.4917(8) 0.0734(5)
H16_8 H 0.8529 0.4231 0.0607
C15_8 C 0.8680(2) 0.5885(8) 0.0232(5)
C16_8 C 0.9095(2) 0.6164(8) 0.1396(5)
H18_8 H 0.9281 0.6518 0.1797
C17_8 C 0.9068(2) 0.7898(8) 0.0477(5)
H19_8 H 0.9261 0.8211 0.0921
H20_8 H 0.9155 0.7710 0.0083
C24_8 C 0.7902(3) 0.5162(11) 0.3300(6)
C25_8 C 0.7723(3) 0.5222(14) 0.3822(7)
H29_8 H 0.7673 0.4350 0.3924
H30_8 H 0.7883 0.5573 0.4305
C26_8 C 0.7402(4) 0.5954(15) 0.3594(8)
H31_8 H 0.7227 0.5486 0.3184
H32_8 H 0.7438 0.6757 0.3378
C27_8 C 0.7266(4) 0.6244(15) 0.4143(10)
H33_8 H 0.7236 0.5437 0.4364
H34_8 H 0.7442 0.6717 0.4548
C28_8 C 0.6941(3) 0.6962(12) 0.3948(7)
H35_8 H 0.6755 0.6392 0.3647
H36_8 H 0.6912 0.7119 0.4426
C29_8 C 0.6881(3) 0.8192(10) 0.3533(6)
N3_8 N 0.83922(18) 0.8341(7) 0.0835(4)
N4_8 N 0.82097(18) 0.6910(7) 0.1443(4)
N7_8 N 0.89528(16) 0.6683(6) 0.0695(4)
O5_8 O 0.81334(18) 0.4294(8) 0.3391(4)
O6_8 O 0.78398(17) 0.5972(7) 0.2791(4)
H5_8 H 0.9194 0.9894 0.9959
H8_8 H 0.7949 0.8250 0.9847
C10_8 C 0.8537(2) 0.8782(8) 0.9363(4)
H11_8 H 0.8376 0.9491 0.9234
H12_8 H 0.8409 0.8007 0.9357
C11_8 C 0.87838(19) 0.7589(8) 0.8547(5)
H13_8 H 0.8762 0.6781 0.8729
C12_8 C 0.8894(3) 0.9070(9) 0.7940(6)
H14_8 H 0.8967 0.9509 0.7601
C13_8 C 0.8753(2) 0.9633(10) 0.8383(5)
H17_8 H 0.8536 0.5985 0.9719
N5_8 N 0.86780(16) 0.8678(7) 0.8782(4)
H27_5 H 0.4823 0.0582 0.0886
O3_7 O 0.5359(2) 0.0225(9) 0.2054(5)
C21_7 C 0.9698(2) 0.3836(10) 0.0328(6)
H25_7 H 0.9863 0.3849 0.0083
H26_7 H 0.9685 0.2963 0.0490
C22_7 C 0.9836(2) 0.4694(11) 0.1045(5)
H27_6 H 0.9823 0.5582 0.0886
H28_7 H 0.9690 0.4594 0.1333
H4_7 H 0.1133 0.9244 0.0229
H15_7 H 0.1287 0.9496 0.1587
H27_7 H 0.5177 0.9418 0.9114
O3_8 O 0.4641(2) 0.9775(9) 0.7946(5)
C21_8 C 0.0302(2) 0.6164(10) 0.9672(6)
H25_8 H 0.0137 0.6151 0.9917
H26_8 H 0.0315 0.7037 0.9510
C22_8 C 0.0164(2) 0.5306(11) 0.8955(5)
H27_8 H 0.0177 0.4418 0.9114
H28_8 H 0.0310 0.5406 0.8667
H4_8 H 0.8867 0.0756 0.9771
H15_8 H 0.8713 0.0504 0.8413
loop_
_geom_bond_atom_site_label_1
_geom_bond_atom_site_label_2
_geom_bond_site_symmetry_1
_geom_bond_site_symmetry_2
C14 H16 1_555 1_555
Zn4 N1 1_555 1_555
Zn2 N4 1_555 1_555
C1 H1 1_555 1_555
C2 H2 1_555 1_555
C3 C2 1_555 1_555
H3 C3 1_555 1_555
C4 H4 1_555 1_555
H5 C4 1_555 1_555
C5 C4 1_555 1_555
C6 C5 1_555 1_555
H6 C6 1_555 1_555
H7 C6 1_555 1_555
C7 H8 1_555 1_555
C8 C7 1_555 1_555
H9 C8 1_555 1_555
C9 H10 1_555 1_555
C10 C5 1_555 1_555
H11 C10 1_555 1_555
H12 C10 1_555 1_555
C11 H13 1_555 1_555
C12 H14 1_555 1_555
C13 C12 1_555 1_555
H15 C13 1_555 1_555
H17 C15 1_555 1_555
C16 H18 1_555 1_555
C17 C5 1_555 1_555
H19 C17 1_555 1_555
H20 C17 1_555 1_555
C24 C25 1_555 1_555
H30 C25 1_555 1_555
C26 C25 1_555 1_555
H31 C26 1_555 1_555
H32 C26 1_555 1_555
C27 C26 1_555 1_555
H33 C27 1_555 1_555
H34 C27 1_555 1_555
C28 C27 1_555 1_555
H35 C28 1_555 1_555
H36 C28 1_555 1_555
C29 C28 1_555 1_555
N1 C1 1_555 1_555
N2 C1 1_555 1_555
N3 C6 1_555 1_555
N4 C8 1_555 1_555
N5 C10 1_555 1_555
N6 C11 1_555 1_555
N7 C15 1_555 1_555
O6 Zn2 1_555 1_555
O7 C29 1_555 1_555
O8 C29 1_555 1_555
Zn3 N6 1_555 1_555
Zn7 O7 1_555 1_555
N9 Zn4 1_555 1_555
O9 Zn2 1_555 1_555
O10 Zn4 1_555 1_555
C2 N1 1_555 1_555
C3 N2 1_555 1_555
C4 N2 1_555 1_555
C7 N3 1_555 1_555
C9 N3 1_555 1_555
C9 N4 1_555 1_555
C11 N5 1_555 1_555
C12 N6 1_555 1_555
C13 N5 1_555 1_555
C16 N7 1_555 1_555
C16 N8 1_555 1_555
C17 N7 1_555 1_555
C24 O6 1_555 1_555
O8 Zn7 1_555 1_555
H25 C21 1_555 1_555
H26 C21 1_555 1_555
C22 C21 1_555 1_555
H28 C22 1_555 1_555
C23 C22 1_555 1_555
O4 C23 1_555 1_555
Zn5 O4 1_555 1_555
C18 C19 1_555 1_555
C19 H21 1_555 1_555
H22 C19 1_555 1_555
C20 C19 1_555 1_555
H23 C20 1_555 1_555
O2 C18 1_555 1_555
C18 O9 1_555 1_555
C14_2 H16_2 1_555 1_555
H11_2 C10_2 1_555 1_555
H12_2 C10_2 1_555 1_555
C11_2 H13_2 1_555 1_555
C12_2 H14_2 1_555 1_555
C13_2 C12_2 1_555 1_555
H15_2 C13_2 1_555 1_555
N5_2 C10_2 1_555 1_555
N6_2 C11_2 1_555 1_555
Zn5 N6_2 1_555 1_555
C11_2 N5_2 1_555 1_555
C12_2 N6_2 1_555 1_555
C13_2 N5_2 1_555 1_555
Zn4_2 N1_2 1_555 1_555
Zn2_2 N4_2 1_555 1_555
C1_2 H1_2 1_555 1_555
C2_2 H2_2 1_555 1_555
C3_2 C2_2 1_555 1_555
H3_2 C3_2 1_555 1_555
C5_2 C4_2 1_555 1_555
C6_2 C5_2 1_555 1_555
H6_2 C6_2 1_555 1_555
H7_2 C6_2 1_555 1_555
C8_2 C7_2 1_555 1_555
H9_2 C8_2 1_555 1_555
C9_2 H10_2 1_555 1_555
C16_2 H18_2 1_555 1_555
C17_2 C5_2 1_555 1_555
H19_2 C17_2 1_555 1_555
H20_2 C17_2 1_555 1_555
C24_2 C25_2 1_555 1_555
H30_2 C25_2 1_555 1_555
C26_2 C25_2 1_555 1_555
H31_2 C26_2 1_555 1_555
H32_2 C26_2 1_555 1_555
C27_2 C26_2 1_555 1_555
H33_2 C27_2 1_555 1_555
H34_2 C27_2 1_555 1_555
C28_2 C27_2 1_555 1_555
H35_2 C28_2 1_555 1_555
H36_2 C28_2 1_555 1_555
C29_2 C28_2 1_555 1_555
N1_2 C1_2 1_555 1_555
N2_2 C1_2 1_555 1_555
N3_2 C6_2 1_555 1_555
N4_2 C8_2 1_555 1_555
N7_2 C15_2 1_555 1_555
O6_2 Zn2_2 1_555 1_555
O7_2 C29_2 1_555 1_555
O8_2 C29_2 1_555 1_555
Zn7_2 O7_2 1_555 1_555
N9_2 Zn4_2 1_555 1_555
O9_2 Zn2_2 1_555 1_555
O10_2 Zn4_2 1_555 1_555
C2_2 N1_2 1_555 1_555
C3_2 N2_2 1_555 1_555
C4_2 N2_2 1_555 1_555
C7_2 N3_2 1_555 1_555
C9_2 N3_2 1_555 1_555
C9_2 N4_2 1_555 1_555
C16_2 N7_2 1_555 1_555
C16_2 N8_2 1_555 1_555
C17_2 N7_2 1_555 1_555
C24_2 O6_2 1_555 1_555
O8_2 Zn7_2 1_555 1_555
C18_2 C19_2 1_555 1_555
C19_2 H21_2 1_555 1_555
H22_2 C19_2 1_555 1_555
C20_2 C19_2 1_555 1_555
H23_2 C20_2 1_555 1_555
C21_2 C20_2 1_555 1_555
H25_2 C21_2 1_555 1_555
H26_2 C21_2 1_555 1_555
C22_2 C21_2 1_555 1_555
H28_2 C22_2 1_555 1_555
C23_2 C22_2 1_555 1_555
O2_2 C18_2 1_555 1_555
O4_2 C23_2 1_555 1_555
Zn3 O4_2 1_555 1_555
C18_2 O9_2 1_555 1_555
O3_2 C23_3 1_555 1_555
O4_3 C23_3 1_555 1_555
Zn5_2 O4_3 1_555 1_555
Zn7_2 N4_3 1_555 1_555
C6_3 C5_3 1_555 1_555
H7_3 C6_3 1_555 1_555
C7_3 H8_3 1_555 1_555
C8_3 C7_3 1_555 1_555
H9_3 C8_3 1_555 1_555
C9_3 H10_3 1_555 1_555
C10_3 C5_3 1_555 1_555
H11_3 C10_3 1_555 1_555
H12_3 C10_3 1_555 1_555
C11_3 H13_3 1_555 1_555
C12_3 H14_3 1_555 1_555
C13_3 C12_3 1_555 1_555
C14_3 H16_3 1_555 1_555
C15_3 C14_3 1_555 1_555
H17_3 C15_3 1_555 1_555
C16_3 H18_3 1_555 1_555
C17_3 C5_3 1_555 1_555
H19_3 C17_3 1_555 1_555
H20_3 C17_3 1_555 1_555
C24_3 C25_3 1_555 1_555
C25_3 H29_3 1_555 1_555
H30_3 C25_3 1_555 1_555
C26_3 C25_3 1_555 1_555
H31_3 C26_3 1_555 1_555
H32_3 C26_3 1_555 1_555
C27_3 C26_3 1_555 1_555
H33_3 C27_3 1_555 1_555
H34_3 C27_3 1_555 1_555
C28_3 C27_3 1_555 1_555
H35_3 C28_3 1_555 1_555
H36_3 C28_3 1_555 1_555
C29_3 C28_3 1_555 1_555
N3_3 C6_3 1_555 1_555
N4_3 C8_3 1_555 1_555
N5_3 C10_3 1_555 1_555
N6_3 C11_3 1_555 1_555
N7_3 C15_3 1_555 1_555
N8_3 C14_3 1_555 1_555
O5_3 C24_3 1_555 1_555
O6_3 Zn7_2 1_555 1_555
O11_2 C29_3 1_555 1_555
O12_2 C29_3 1_555 1_555
Zn3_2 N6_3 1_555 1_555
Zn4_3 N8_3 1_555 1_555
O9_3 Zn7_2 1_555 1_555
C7_3 N3_3 1_555 1_555
C9_3 N3_3 1_555 1_555
C9_3 N4_3 1_555 1_555
C11_3 N5_3 1_555 1_555
C12_3 N6_3 1_555 1_555
C13_3 N5_3 1_555 1_555
C16_3 N7_3 1_555 1_555
C16_3 N8_3 1_555 1_555
C17_3 N7_3 1_555 1_555
C24_3 O6_3 1_555 1_555
Zn4_3 O9_3 1_555 1_555
Zn4_3 N1_3 1_555 1_555
C1_3 H1_3 1_555 1_555
C2_3 H2_3 1_555 1_555
C3_3 C2_3 1_555 1_555
C4_3 H4_3 1_555 1_555
C18_3 C19_3 1_555 1_555
C19_3 H21_3 1_555 1_555
H22_3 C19_3 1_555 1_555
C20_3 C19_3 1_555 1_555
H23_3 C20_3 1_555 1_555
H24_3 C20_3 1_555 1_555
N1_3 C1_3 1_555 1_555
N2_3 C1_3 1_555 1_555
O2_3 C18_3 1_555 1_555
N9_3 Zn4_3 1_555 1_555
O10_3 Zn4_3 1_555 1_555
C2_3 N1_3 1_555 1_555
C3_3 N2_3 1_555 1_555
C4_3 N2_3 1_555 1_555
C18_3 O9_3 1_555 1_555
H11_4 C10_4 1_555 1_555
H12_4 C10_4 1_555 1_555
C11_4 H13_4 1_555 1_555
C12_4 H14_4 1_555 1_555
C13_4 C12_4 1_555 1_555
N5_4 C10_4 1_555 1_555
N6_4 C11_4 1_555 1_555
Zn5_2 N6_4 1_555 1_555
C11_4 N5_4 1_555 1_555
C12_4 N6_4 1_555 1_555
C13_4 N5_4 1_555 1_555
Zn7 N4_4 1_555 1_555
C6_4 C5_4 1_555 1_555
H7_4 C6_4 1_555 1_555
C8_4 C7_4 1_555 1_555
H9_4 C8_4 1_555 1_555
C9_4 H10_4 1_555 1_555
C14_4 H16_4 1_555 1_555
C15_4 C14_4 1_555 1_555
C16_4 H18_4 1_555 1_555
C17_4 C5_4 1_555 1_555
H19_4 C17_4 1_555 1_555
H20_4 C17_4 1_555 1_555
C24_4 C25_4 1_555 1_555
C25_4 H29_4 1_555 1_555
H30_4 C25_4 1_555 1_555
C26_4 C25_4 1_555 1_555
H31_4 C26_4 1_555 1_555
H32_4 C26_4 1_555 1_555
C27_4 C26_4 1_555 1_555
H33_4 C27_4 1_555 1_555
H34_4 C27_4 1_555 1_555
C28_4 C27_4 1_555 1_555
H35_4 C28_4 1_555 1_555
H36_4 C28_4 1_555 1_555
C29_4 C28_4 1_555 1_555
N3_4 C6_4 1_555 1_555
N4_4 C8_4 1_555 1_555
N7_4 C15_4 1_555 1_555
N8_4 C14_4 1_555 1_555
O5_4 C24_4 1_555 1_555
O6_4 Zn7 1_555 1_555
O11 C29_4 1_555 1_555
O12 C29_4 1_555 1_555
Zn4_4 N8_4 1_555 1_555
O9_4 Zn7 1_555 1_555
C7_4 N3_4 1_555 1_555
C9_4 N3_4 1_555 1_555
C9_4 N4_4 1_555 1_555
C16_4 N7_4 1_555 1_555
C16_4 N8_4 1_555 1_555
C17_4 N7_4 1_555 1_555
C24_4 O6_4 1_555 1_555
Zn4_4 O9_4 1_555 1_555
Zn4_4 N1_4 1_555 1_555
C1_4 H1_4 1_555 1_555
C2_4 H2_4 1_555 1_555
C3_4 C2_4 1_555 1_555
C18_4 C19_4 1_555 1_555
C19_4 H21_4 1_555 1_555
H22_4 C19_4 1_555 1_555
C20_4 C19_4 1_555 1_555
H23_4 C20_4 1_555 1_555
H24_4 C20_4 1_555 1_555
C21_3 C20_4 1_555 1_555
H25_3 C21_3 1_555 1_555
H26_3 C21_3 1_555 1_555
C22_3 C21_3 1_555 1_555
H27_2 C22_3 1_555 1_555
H28_3 C22_3 1_555 1_555
N1_4 C1_4 1_555 1_555
N2_4 C1_4 1_555 1_555
O2_4 C18_4 1_555 1_555
N9_4 Zn4_4 1_555 1_555
O10_4 Zn4_4 1_555 1_555
C2_4 N1_4 1_555 1_555
C3_4 N2_4 1_555 1_555
C4_4 N2_4 1_555 1_555
C18_4 O9_4 1_555 1_555
O3_3 C23_4 1_555 1_555
O4_4 C23_4 1_555 1_555
Zn3_2 O4_4 1_555 1_555
C18_5 C19_5 1_555 1_555
C19_5 H21_5 1_555 1_555
H22_5 C19_5 1_555 1_555
C20_5 C19_5 1_555 1_555
H23_5 C20_5 1_555 1_555
O2_5 C18_5 1_555 1_555
Zn6 O1 1_555 1_555
C18_5 O1 1_555 1_555
H25_4 C21_4 1_555 1_555
H26_4 C21_4 1_555 1_555
C22_4 C21_4 1_555 1_555
H28_4 C22_4 1_555 1_555
C23_5 C22_4 1_555 1_555
O10 C23_5 1_555 1_555
Zn5 N1_5 1_555 1_555
Zn6 N4_5 1_555 1_555
C1_5 H1_5 1_555 1_555
C2_5 H2_5 1_555 1_555
C3_5 C2_5 1_555 1_555
H3_5 C3_5 1_555 1_555
C4_5 H4_4 1_555 1_555
H5_5 C4_5 1_555 1_555
C5_5 C4_5 1_555 1_555
C6_5 C5_5 1_555 1_555
H6_5 C6_5 1_555 1_555
H7_5 C6_5 1_555 1_555
C7_5 H8_5 1_555 1_555
C8_5 C7_5 1_555 1_555
H9_5 C8_5 1_555 1_555
C9_5 H10_5 1_555 1_555
C10_5 C5_5 1_555 1_555
H11_5 C10_5 1_555 1_555
H12_5 C10_5 1_555 1_555
C11_5 H13_5 1_555 1_555
C12_5 H14_5 1_555 1_555
C13_5 C12_5 1_555 1_555
H15_4 C13_5 1_555 1_555
H17_5 C15_5 1_555 1_555
C16_5 H18_5 1_555 1_555
C17_5 C5_5 1_555 1_555
H19_5 C17_5 1_555 1_555
H20_5 C17_5 1_555 1_555
C24_5 C25_5 1_555 1_555
H30_5 C25_5 1_555 1_555
C26_5 C25_5 1_555 1_555
H31_5 C26_5 1_555 1_555
H32_5 C26_5 1_555 1_555
C27_5 C26_5 1_555 1_555
H33_5 C27_5 1_555 1_555
H34_5 C27_5 1_555 1_555
C28_5 C27_5 1_555 1_555
H35_5 C28_5 1_555 1_555
H36_5 C28_5 1_555 1_555
C29_5 C28_5 1_555 1_555
N1_5 C1_5 1_555 1_555
N2_5 C1_5 1_555 1_555
N3_5 C6_5 1_555 1_555
N4_5 C8_5 1_555 1_555
N5_5 C10_5 1_555 1_555
N9_2 C11_5 1_555 1_555
N7_5 C15_5 1_555 1_555
O6_5 Zn6 1_555 1_555
O7_3 C29_5 1_555 1_555
O8_3 C29_5 1_555 1_555
Zn7_3 O7_3 1_555 1_555
C2_5 N1_5 1_555 1_555
C3_5 N2_5 1_555 1_555
C4_5 N2_5 1_555 1_555
C7_5 N3_5 1_555 1_555
C9_5 N3_5 1_555 1_555
C9_5 N4_5 1_555 1_555
C11_5 N5_5 1_555 1_555
C12_5 N9_2 1_555 1_555
C13_5 N5_5 1_555 1_555
C16_5 N7_5 1_555 1_555
C16_5 N10 1_555 1_555
C17_5 N7_5 1_555 1_555
C24_5 O6_5 1_555 1_555
O8_3 Zn7_3 1_555 1_555
C14_5 H16_5 1_555 1_555
C18_6 C19_6 1_555 1_555
C19_6 H21_6 1_555 1_555
H22_6 C19_6 1_555 1_555
C20_6 C19_6 1_555 1_555
H23_6 C20_6 1_555 1_555
C21_5 C20_6 1_555 1_555
H25_5 C21_5 1_555 1_555
H26_5 C21_5 1_555 1_555
C22_5 C21_5 1_555 1_555
H28_5 C22_5 1_555 1_555
C23_6 C22_5 1_555 1_555
O2_6 C18_6 1_555 1_555
O10_2 C23_6 1_555 1_555
Zn6_2 O1_2 1_555 1_555
C18_6 O1_2 1_555 1_555
Zn3 N1_6 1_555 1_555
Zn6_2 N4_6 1_555 1_555
C1_6 H1_6 1_555 1_555
C2_6 H2_6 1_555 1_555
C3_6 C2_6 1_555 1_555
H3_6 C3_6 1_555 1_555
C5_6 C4_6 1_555 1_555
C6_6 C5_6 1_555 1_555
H6_6 C6_6 1_555 1_555
H7_6 C6_6 1_555 1_555
C8_6 C7_6 1_555 1_555
H9_6 C8_6 1_555 1_555
C9_6 H10_6 1_555 1_555
C16_6 H18_6 1_555 1_555
C17_6 C5_6 1_555 1_555
H19_6 C17_6 1_555 1_555
H20_6 C17_6 1_555 1_555
C24_6 C25_6 1_555 1_555
H30_6 C25_6 1_555 1_555
C26_6 C25_6 1_555 1_555
H31_6 C26_6 1_555 1_555
H32_6 C26_6 1_555 1_555
C27_6 C26_6 1_555 1_555
H33_6 C27_6 1_555 1_555
H34_6 C27_6 1_555 1_555
C28_6 C27_6 1_555 1_555
H35_6 C28_6 1_555 1_555
H36_6 C28_6 1_555 1_555
C29_6 C28_6 1_555 1_555
N1_6 C1_6 1_555 1_555
N2_6 C1_6 1_555 1_555
N3_6 C6_6 1_555 1_555
N4_6 C8_6 1_555 1_555
N7_6 C15_6 1_555 1_555
O6_6 Zn6_2 1_555 1_555
O7_4 C29_6 1_555 1_555
O8_4 C29_6 1_555 1_555
Zn7_4 O7_4 1_555 1_555
C2_6 N1_6 1_555 1_555
C3_6 N2_6 1_555 1_555
C4_6 N2_6 1_555 1_555
C7_6 N3_6 1_555 1_555
C9_6 N3_6 1_555 1_555
C9_6 N4_6 1_555 1_555
C16_6 N7_6 1_555 1_555
C16_6 N10_2 1_555 1_555
C17_6 N7_6 1_555 1_555
C24_6 O6_6 1_555 1_555
O8_4 Zn7_4 1_555 1_555
H11_6 C10_6 1_555 1_555
H12_6 C10_6 1_555 1_555
C11_6 H13_6 1_555 1_555
C12_6 H14_6 1_555 1_555
C13_6 C12_6 1_555 1_555
H15_5 C13_6 1_555 1_555
N5_6 C10_6 1_555 1_555
N9 C11_6 1_555 1_555
C11_6 N5_6 1_555 1_555
C12_6 N9 1_555 1_555
C13_6 N5_6 1_555 1_555
C14_6 H16_6 1_555 1_555
Zn5_2 N1_7 1_555 1_555
C1_7 H1_7 1_555 1_555
C2_7 H2_7 1_555 1_555
C3_7 C2_7 1_555 1_555
C4_7 H4_6 1_555 1_555
C18_7 C19_7 1_555 1_555
C19_7 H21_7 1_555 1_555
H22_7 C19_7 1_555 1_555
C20_7 C19_7 1_555 1_555
H23_7 C20_7 1_555 1_555
H24_7 C20_7 1_555 1_555
N1_7 C1_7 1_555 1_555
N2_7 C1_7 1_555 1_555
O1_3 Zn5_2 1_555 1_555
O2_7 C18_7 1_555 1_555
Zn7_4 O1_3 1_555 1_555
N10_3 Zn5_2 1_555 1_555
C2_7 N1_7 1_555 1_555
C3_7 N2_7 1_555 1_555
C4_7 N2_7 1_555 1_555
C18_7 O1_3 1_555 1_555
Zn7_4 N4_7 1_555 1_555
C6_7 C5_7 1_555 1_555
H7_7 C6_7 1_555 1_555
C7_7 H8_7 1_555 1_555
C8_7 C7_7 1_555 1_555
H9_7 C8_7 1_555 1_555
C9_7 H10_7 1_555 1_555
C10_7 C5_7 1_555 1_555
H11_7 C10_7 1_555 1_555
H12_7 C10_7 1_555 1_555
C11_7 H13_7 1_555 1_555
C12_7 H14_7 1_555 1_555
C13_7 C12_7 1_555 1_555
C14_7 H16_7 1_555 1_555
C15_7 C14_7 1_555 1_555
H17_7 C15_7 1_555 1_555
C16_7 H18_7 1_555 1_555
C17_7 C5_7 1_555 1_555
H19_7 C17_7 1_555 1_555
H20_7 C17_7 1_555 1_555
C24_7 C25_7 1_555 1_555
C25_7 H29_7 1_555 1_555
H30_7 C25_7 1_555 1_555
C26_7 C25_7 1_555 1_555
H31_7 C26_7 1_555 1_555
H32_7 C26_7 1_555 1_555
C27_7 C26_7 1_555 1_555
H33_7 C27_7 1_555 1_555
H34_7 C27_7 1_555 1_555
C28_7 C27_7 1_555 1_555
H35_7 C28_7 1_555 1_555
H36_7 C28_7 1_555 1_555
C29_7 C28_7 1_555 1_555
N3_7 C6_7 1_555 1_555
N4_7 C8_7 1_555 1_555
N5_7 C10_7 1_555 1_555
N9_4 C11_7 1_555 1_555
N7_7 C15_7 1_555 1_555
N10_3 C14_7 1_555 1_555
O5_7 C24_7 1_555 1_555
O6_7 Zn7_4 1_555 1_555
O11_4 C29_7 1_555 1_555
O12_4 C29_7 1_555 1_555
C7_7 N3_7 1_555 1_555
C9_7 N3_7 1_555 1_555
C9_7 N4_7 1_555 1_555
C11_7 N5_7 1_555 1_555
C12_7 N9_4 1_555 1_555
C13_7 N5_7 1_555 1_555
C16_7 N7_7 1_555 1_555
C16_7 N10_3 1_555 1_555
C17_7 N7_7 1_555 1_555
C24_7 O6_7 1_555 1_555
O3_5 C23_7 1_555 1_555
O10_3 C23_7 1_555 1_555
O3_6 C23_8 1_555 1_555
O10_4 C23_8 1_555 1_555
Zn3_2 N1_8 1_555 1_555
C1_8 H1_8 1_555 1_555
C2_8 H2_8 1_555 1_555
C3_8 C2_8 1_555 1_555
C18_8 C19_8 1_555 1_555
C19_8 H21_8 1_555 1_555
H22_8 C19_8 1_555 1_555
C20_8 C19_8 1_555 1_555
H23_8 C20_8 1_555 1_555
H24_8 C20_8 1_555 1_555
C21_6 C20_8 1_555 1_555
H25_6 C21_6 1_555 1_555
H26_6 C21_6 1_555 1_555
C22_6 C21_6 1_555 1_555
H27_4 C22_6 1_555 1_555
H28_6 C22_6 1_555 1_555
N1_8 C1_8 1_555 1_555
N2_8 C1_8 1_555 1_555
O1_4 Zn3_2 1_555 1_555
O2_8 C18_8 1_555 1_555
Zn7_3 O1_4 1_555 1_555
N10_4 Zn3_2 1_555 1_555
C2_8 N1_8 1_555 1_555
C3_8 N2_8 1_555 1_555
C4_8 N2_8 1_555 1_555
C18_8 O1_4 1_555 1_555
Zn7_3 N4_8 1_555 1_555
C6_8 C5_8 1_555 1_555
H7_8 C6_8 1_555 1_555
C8_8 C7_8 1_555 1_555
H9_8 C8_8 1_555 1_555
C9_8 H10_8 1_555 1_555
C14_8 H16_8 1_555 1_555
C15_8 C14_8 1_555 1_555
C16_8 H18_8 1_555 1_555
C17_8 C5_8 1_555 1_555
H19_8 C17_8 1_555 1_555
H20_8 C17_8 1_555 1_555
C24_8 C25_8 1_555 1_555
C25_8 H29_8 1_555 1_555
H30_8 C25_8 1_555 1_555
C26_8 C25_8 1_555 1_555
H31_8 C26_8 1_555 1_555
H32_8 C26_8 1_555 1_555
C27_8 C26_8 1_555 1_555
H33_8 C27_8 1_555 1_555
H34_8 C27_8 1_555 1_555
C28_8 C27_8 1_555 1_555
H35_8 C28_8 1_555 1_555
H36_8 C28_8 1_555 1_555
C29_8 C28_8 1_555 1_555
N3_8 C6_8 1_555 1_555
N4_8 C8_8 1_555 1_555
N7_8 C15_8 1_555 1_555
N10_4 C14_8 1_555 1_555
O5_8 C24_8 1_555 1_555
O6_8 Zn7_3 1_555 1_555
O11_3 C29_8 1_555 1_555
O12_3 C29_8 1_555 1_555
C7_8 N3_8 1_555 1_555
C9_8 N3_8 1_555 1_555
C9_8 N4_8 1_555 1_555
C16_8 N7_8 1_555 1_555
C16_8 N10_4 1_555 1_555
C17_8 N7_8 1_555 1_555
C24_8 O6_8 1_555 1_555
H11_8 C10_8 1_555 1_555
H12_8 C10_8 1_555 1_555
C11_8 H13_8 1_555 1_555
C12_8 H14_8 1_555 1_555
C13_8 C12_8 1_555 1_555
N5_8 C10_8 1_555 1_555
N9_3 C11_8 1_555 1_555
C11_8 N5_8 1_555 1_555
C12_8 N9_3 1_555 1_555
C13_8 N5_8 1_555 1_555
H25_7 C21_7 1_555 1_555
H26_7 C21_7 1_555 1_555
C22_7 C21_7 1_555 1_555
H27_6 C22_7 1_555 1_555
H28_7 C22_7 1_555 1_555
H25_8 C21_8 1_555 1_555
H26_8 C21_8 1_555 1_555
C22_8 C21_8 1_555 1_555
H27_8 C22_8 1_555 1_555
H28_8 C22_8 1_555 1_555

#END
