
###############################################################################
#
# This file contains modified crystal structure data generated from the
# MOF subset of the Cambridge Structural Database (CSD) v543 
# hosted by the Cambridge Crystallographic Data Centre (CCDC).
#
# This work is licensed under the Creative Commons
# Attribution-NonCommercial-ShareAlike 4.0 International License.
# To view a copy of this license, visit
# http://creativecommons.org/licenses/by-nc-sa/4.0/
# or send a letter to
# Creative Commons, PO Box 1866, Mountain View, CA 94042, USA.
#
# CIF created using the CSD Python API on 29 September 2022
# The structure has been converted into the P1 space group
# The structure has a 3D framework
# The original CSD entry UZAMUE is in the monoclinic crystal system
# The framework has been calculated to contain at least 10.0% void space
# The void calculation uses a probe of radius 1.32A, grid spacing 0.4
#
###############################################################################

data_UZAMUE
_chemical_formula_moiety         '(C52 H36 Eu4 N8 O40 Zn4)n'
_symmetry_cell_setting           triclinic
_symmetry_space_group_name_H-M   'P 1'
_symmetry_Int_Tables_number      1
_space_group_name_Hall           'P 1'
loop_
_symmetry_equiv_pos_site_id
_symmetry_equiv_pos_as_xyz
1 x,y,z
_cell_length_a                   10.1255(8)
_cell_length_b                   9.5868(7)
_cell_length_c                   20.4418(14)
_cell_angle_alpha                90
_cell_angle_beta                 105.693(3)
_cell_angle_gamma                90
_cell_volume                     1910.34
loop_
_atom_site_label
_atom_site_type_symbol
_atom_site_fract_x
_atom_site_fract_y
_atom_site_fract_z
C3 C 0.2005(7) 0.0071(5) 0.0543(3)
H2 H 0.2345 0.0975 0.0563
C1 C 0.1359(4) 0.8093(4) 0.1104(2)
C2 C 0.1857(6) 0.9439(5) 0.1124(2)
H1 H 0.2094 0.9922 0.1533
C6 C 0.0989(4) 0.7383(4) 0.04888(18)
H4 H 0.0634 0.6484 0.0468
C8 C 0.1206(4) 0.7412(4) 0.17444(19)
O3 O 0.0926(3) 0.6137(3) 0.17173(14)
O4 O 0.1405(3) 0.8144(3) 0.22737(13)
Eu3 Eu 0.029595(18) 0.929406(19) 0.298433(9)
C4 C 0.1652(6) 0.9370(5) 0.9936(2)
H3 H 0.1750 0.9804 0.9545
C5 C 0.1150(4) 0.8021(4) 0.99012(19)
C7 C 0.0787(4) 0.7253(4) 0.92411(19)
C9 C 0.2037(4) 0.2977(4) 0.73895(18)
C10 C 0.3408(4) 0.3610(4) 0.75256(19)
C11 C 0.4088(4) 0.4635(4) 0.7961(2)
C12 C 0.3747(4) 0.5510(4) 0.84879(19)
C13 C 0.5423(4) 0.3861(4) 0.7373(2)
H5 H 0.6182 0.3743 0.7204
Eu1 Eu 0.029595(18) 0.570594(19) 0.798433(9)
N1 N 0.4264(3) 0.3130(3) 0.71580(17)
N2 N 0.5372(3) 0.4784(4) 0.78568(17)
O1 O 0.0998(3) 0.7804(3) 0.87193(13)
O2 O 0.0302(3) 0.6028(3) 0.92087(13)
O5 O 0.1093(3) 0.3481(3) 0.75917(14)
O6 O 0.1886(3) 0.1858(3) 0.70345(13)
O7 O 0.2612(3) 0.5320(3) 0.86229(14)
O8 O 0.4627(3) 0.6380(3) 0.87800(14)
O10 O 0.2365(3) 0.1164(3) 0.57230(15)
H8 H 0.1559 0.0931 0.5611
H9 H 0.2729 0.0692 0.5486
Zn1 Zn 0.36073(4) 0.13871(5) 0.66367(2)
O12 O 0.1405(3) 0.6856(3) 0.72737(13)
O15 O 0.5373(3) 0.1380(3) 0.62200(14)
Zn2 Zn 0.63927(4) 0.63871(5) 0.83633(2)
N3 N 0.4628(3) 0.9784(4) 0.71432(17)
Eu2 Eu 0.970405(18) 0.429406(19) 0.201567(9)
O9 O 0.8752(3) 0.5271(3) 0.68852(15)
H6 H 0.8696 0.4499 0.6717
H7 H 0.8282 0.5773 0.6595
Eu4 Eu 0.970405(18) 0.070594(19) 0.701567(9)
O11 O 0.9074(3) 0.3863(3) 0.82827(14)
O13 O 0.8907(3) 0.8481(3) 0.74083(14)
O14 O 0.8114(3) 0.6858(3) 0.79655(13)
O9_2 O 0.1248(3) 0.0271(3) 0.81148(15)
H7_2 H 0.1718 0.0773 0.8405
H6_2 H 0.1304 0.9499 0.8283
O11_2 O 0.0926(3) 0.8863(3) 0.67173(14)
C1_2 C 0.8641(4) 0.3093(4) 0.3896(2)
C2_2 C 0.8143(6) 0.4439(5) 0.3876(2)
H1_2 H 0.7906 0.4922 0.3467
C3_2 C 0.7995(7) 0.5071(5) 0.4457(3)
H2_2 H 0.7655 0.5975 0.4437
C4_2 C 0.8348(6) 0.4370(5) 0.5064(2)
H3_2 H 0.8250 0.4804 0.5455
C5_2 C 0.8850(4) 0.3021(4) 0.50988(19)
C6_2 C 0.9011(4) 0.2383(4) 0.45112(18)
H4_2 H 0.9366 0.1484 0.4532
C7_2 C 0.9213(4) 0.2253(4) 0.57589(19)
C8_2 C 0.8794(4) 0.2412(4) 0.32556(19)
C12_2 C 0.6253(4) 0.0510(4) 0.65121(19)
O1_2 O 0.9002(3) 0.2804(3) 0.62807(13)
O2_2 O 0.9698(3) 0.1028(3) 0.57913(13)
O3_2 O 0.9074(3) 0.1137(3) 0.32827(14)
O4_2 O 0.8595(3) 0.3144(3) 0.27263(13)
O7_2 O 0.7388(3) 0.0320(3) 0.63771(14)
O12_2 O 0.8595(3) 0.1856(3) 0.77263(13)
C9_2 C 0.7963(4) 0.7977(4) 0.76105(18)
C10_2 C 0.6592(4) 0.8610(4) 0.74744(19)
C11_2 C 0.5912(4) 0.9635(4) 0.7039(2)
C13_2 C 0.4577(4) 0.8861(4) 0.7627(2)
H5_2 H 0.3818 0.8743 0.7796
N1_2 N 0.5736(3) 0.8130(3) 0.78420(17)
O10_2 O 0.7635(3) 0.6164(3) 0.92770(15)
H8_2 H 0.8441 0.5931 0.9389
H9_2 H 0.7271 0.5692 0.9514
O9_3 O 0.1248(3) 0.4729(3) 0.31148(15)
H6_3 H 0.1304 0.5501 0.3283
H7_3 H 0.1718 0.4227 0.3405
O13_2 O 0.1093(3) 0.1519(3) 0.25917(14)
O14_2 O 0.1886(3) 0.3142(3) 0.20345(13)
N3_2 N 0.5372(3) 0.0216(4) 0.28568(17)
C4_3 C 0.8348(6) 0.0630(5) 0.0064(2)
H3_3 H 0.8250 0.0196 0.0455
C5_3 C 0.8850(4) 0.1979(4) 0.00988(19)
C7_3 C 0.9213(4) 0.2747(4) 0.07589(19)
C9_3 C 0.7963(4) 0.7023(4) 0.26105(18)
C10_3 C 0.6592(4) 0.6390(4) 0.24744(19)
C11_3 C 0.5912(4) 0.5365(4) 0.2039(2)
C12_3 C 0.6253(4) 0.4490(4) 0.15121(19)
C13_3 C 0.4577(4) 0.6139(4) 0.2627(2)
H5_3 H 0.3818 0.6257 0.2796
N1_3 N 0.5736(3) 0.6870(3) 0.28420(17)
N2_2 N 0.4628(3) 0.5216(4) 0.21432(17)
O1_3 O 0.9002(3) 0.2196(3) 0.12807(13)
O2_3 O 0.9698(3) 0.3972(3) 0.07913(13)
O5_2 O 0.8907(3) 0.6519(3) 0.24083(14)
O6_2 O 0.8114(3) 0.8142(3) 0.29655(13)
O7_3 O 0.7388(3) 0.4680(3) 0.13771(14)
O8_2 O 0.5373(3) 0.3620(3) 0.12200(14)
O10_3 O 0.7635(3) 0.8836(3) 0.42770(15)
H8_3 H 0.8441 0.9069 0.4389
H9_3 H 0.7271 0.9308 0.4514
Zn1_2 Zn 0.63927(4) 0.86129(5) 0.33633(2)
O15_2 O 0.4627(3) 0.8620(3) 0.37800(14)
Zn2_2 Zn 0.36073(4) 0.36129(5) 0.16367(2)
C1_3 C 0.8641(4) 0.1907(4) 0.8896(2)
C2_3 C 0.8143(6) 0.0561(5) 0.8876(2)
H1_3 H 0.7906 0.0078 0.8467
C6_3 C 0.9011(4) 0.2617(4) 0.95112(18)
H4_3 H 0.9366 0.3516 0.9532
C8_3 C 0.8794(4) 0.2588(4) 0.82556(19)
C9_4 C 0.2037(4) 0.2023(4) 0.23895(18)
C10_4 C 0.3408(4) 0.1390(4) 0.25256(19)
C11_4 C 0.4088(4) 0.0365(4) 0.2961(2)
C13_4 C 0.5423(4) 0.1139(4) 0.2373(2)
H5_4 H 0.6182 0.1257 0.2204
N1_4 N 0.4264(3) 0.1870(3) 0.21580(17)
O10_4 O 0.2365(3) 0.3836(3) 0.07230(15)
H8_4 H 0.1559 0.4069 0.0611
H9_4 H 0.2729 0.4308 0.0486
C1_4 C 0.1359(4) 0.6907(4) 0.6104(2)
C2_4 C 0.1857(6) 0.5561(5) 0.6124(2)
H1_4 H 0.2094 0.5078 0.6533
C3_3 C 0.2005(7) 0.4929(5) 0.5543(3)
H2_3 H 0.2345 0.4025 0.5563
C4_4 C 0.1652(6) 0.5630(5) 0.4936(2)
H3_4 H 0.1750 0.5196 0.4545
C5_4 C 0.1150(4) 0.6979(4) 0.49012(19)
C6_4 C 0.0989(4) 0.7617(4) 0.54888(18)
H4_4 H 0.0634 0.8516 0.5468
C7_4 C 0.0787(4) 0.7747(4) 0.42411(19)
C8_4 C 0.1206(4) 0.7588(4) 0.67444(19)
C12_4 C 0.3747(4) 0.9490(4) 0.34879(19)
O1_4 O 0.0998(3) 0.7196(3) 0.37193(13)
O2_4 O 0.0302(3) 0.8972(3) 0.42087(13)
O7_4 O 0.2612(3) 0.9680(3) 0.36229(14)
H6_4 H 0.8696 0.0501 0.1717
O9_4 O 0.8752(3) 0.9729(3) 0.18852(15)
H7_4 H 0.8282 0.9227 0.1595
C3_4 C 0.7995(7) 0.9929(5) 0.9457(3)
H2_4 H 0.7655 0.9025 0.9437
loop_
_geom_bond_atom_site_label_1
_geom_bond_atom_site_label_2
_geom_bond_site_symmetry_1
_geom_bond_site_symmetry_2
H2 C3 1_555 1_555
C1 C2 1_555 1_555
C2 H1 1_555 1_555
C6 C1 1_555 1_555
H4 C6 1_555 1_555
C8 C1 1_555 1_555
O3 C8 1_555 1_555
O4 C8 1_555 1_555
Eu3 O4 1_555 1_555
H3 C4 1_555 1_555
C5 C4 1_555 1_555
C7 C5 1_555 1_555
C9 C10 1_555 1_555
C10 C11 1_555 1_555
C11 C12 1_555 1_555
C12 O7 1_555 1_555
C13 H5 1_555 1_555
Eu1 O1 1_555 1_555
N1 C10 1_555 1_555
N2 C11 1_555 1_555
O1 C7 1_555 1_555
O2 C7 1_555 1_555
O5 C9 1_555 1_555
O6 C9 1_555 1_555
O7 Eu1 1_555 1_555
O8 C12 1_555 1_555
O10 H8 1_555 1_555
H9 O10 1_555 1_555
Zn1 N1 1_555 1_555
O12 Eu1 1_555 1_555
O15 Zn1 1_555 1_555
Zn2 N2 1_555 1_555
C13 N1 1_555 1_555
C13 N2 1_555 1_555
Eu1 O2 1_555 1_555
Eu1 O5 1_555 1_555
O6 Zn1 1_555 1_555
O8 Zn2 1_555 1_555
O10 Zn1 1_555 1_555
H6 O9 1_555 1_555
H7 O9 1_555 1_555
H7_2 O9_2 1_555 1_555
C1_2 C2_2 1_555 1_555
C2_2 H1_2 1_555 1_555
C3_2 C2_2 1_555 1_555
H2_2 C3_2 1_555 1_555
C4_2 C3_2 1_555 1_555
H3_2 C4_2 1_555 1_555
C5_2 C4_2 1_555 1_555
C6_2 C1_2 1_555 1_555
H4_2 C6_2 1_555 1_555
C7_2 C5_2 1_555 1_555
C8_2 C1_2 1_555 1_555
C12_2 O7_2 1_555 1_555
Eu4 O1_2 1_555 1_555
O1_2 C7_2 1_555 1_555
O2_2 C7_2 1_555 1_555
O3_2 C8_2 1_555 1_555
O4_2 C8_2 1_555 1_555
O7_2 Eu4 1_555 1_555
O15 C12_2 1_555 1_555
Eu2 O4_2 1_555 1_555
O12_2 Eu4 1_555 1_555
C5_2 C6_2 1_555 1_555
Eu4 O2_2 1_555 1_555
C9_2 C10_2 1_555 1_555
C10_2 C11_2 1_555 1_555
C13_2 H5_2 1_555 1_555
N1_2 C10_2 1_555 1_555
N3 C11_2 1_555 1_555
O13 C9_2 1_555 1_555
O14 C9_2 1_555 1_555
O10_2 H8_2 1_555 1_555
H9_2 O10_2 1_555 1_555
Zn2 N1_2 1_555 1_555
C13_2 N1_2 1_555 1_555
C13_2 N3 1_555 1_555
O14 Zn2 1_555 1_555
O10_2 Zn2 1_555 1_555
H6_3 O9_3 1_555 1_555
H7_3 O9_3 1_555 1_555
H3_3 C4_3 1_555 1_555
C5_3 C4_3 1_555 1_555
C7_3 C5_3 1_555 1_555
C9_3 C10_3 1_555 1_555
C10_3 C11_3 1_555 1_555
C11_3 C12_3 1_555 1_555
C12_3 O7_3 1_555 1_555
C13_3 H5_3 1_555 1_555
Eu2 O1_3 1_555 1_555
N1_3 C10_3 1_555 1_555
N2_2 C11_3 1_555 1_555
O1_3 C7_3 1_555 1_555
O2_3 C7_3 1_555 1_555
O5_2 C9_3 1_555 1_555
O6_2 C9_3 1_555 1_555
O7_3 Eu2 1_555 1_555
O8_2 C12_3 1_555 1_555
O10_3 H8_3 1_555 1_555
H9_3 O10_3 1_555 1_555
Zn1_2 N1_3 1_555 1_555
O15_2 Zn1_2 1_555 1_555
Zn2_2 N2_2 1_555 1_555
C13_3 N1_3 1_555 1_555
C13_3 N2_2 1_555 1_555
Eu2 O2_3 1_555 1_555
Eu2 O5_2 1_555 1_555
O6_2 Zn1_2 1_555 1_555
O8_2 Zn2_2 1_555 1_555
O10_3 Zn1_2 1_555 1_555
C1_3 C2_3 1_555 1_555
C2_3 H1_3 1_555 1_555
C6_3 C1_3 1_555 1_555
H4_3 C6_3 1_555 1_555
C8_3 C1_3 1_555 1_555
O11 C8_3 1_555 1_555
O12_2 C8_3 1_555 1_555
C9_4 C10_4 1_555 1_555
C10_4 C11_4 1_555 1_555
C13_4 H5_4 1_555 1_555
N1_4 C10_4 1_555 1_555
N3_2 C11_4 1_555 1_555
O13_2 C9_4 1_555 1_555
O14_2 C9_4 1_555 1_555
O10_4 H8_4 1_555 1_555
H9_4 O10_4 1_555 1_555
Zn2_2 N1_4 1_555 1_555
C13_4 N1_4 1_555 1_555
C13_4 N3_2 1_555 1_555
O14_2 Zn2_2 1_555 1_555
O10_4 Zn2_2 1_555 1_555
C1_4 C2_4 1_555 1_555
C2_4 H1_4 1_555 1_555
C3_3 C2_4 1_555 1_555
H2_3 C3_3 1_555 1_555
C4_4 C3_3 1_555 1_555
H3_4 C4_4 1_555 1_555
C5_4 C4_4 1_555 1_555
C6_4 C1_4 1_555 1_555
H4_4 C6_4 1_555 1_555
C7_4 C5_4 1_555 1_555
C8_4 C1_4 1_555 1_555
C12_4 O7_4 1_555 1_555
Eu3 O1_4 1_555 1_555
O1_4 C7_4 1_555 1_555
O2_4 C7_4 1_555 1_555
O11_2 C8_4 1_555 1_555
O12 C8_4 1_555 1_555
O7_4 Eu3 1_555 1_555
O15_2 C12_4 1_555 1_555
C5_4 C6_4 1_555 1_555
Eu3 O2_4 1_555 1_555
H7_4 O9_4 1_555 1_555
H2_4 C3_4 1_555 1_555

#END
