
###############################################################################
#
# This file contains modified crystal structure data generated from the
# MOF subset of the Cambridge Structural Database (CSD) v543 
# hosted by the Cambridge Crystallographic Data Centre (CCDC).
#
# This work is licensed under the Creative Commons
# Attribution-NonCommercial-ShareAlike 4.0 International License.
# To view a copy of this license, visit
# http://creativecommons.org/licenses/by-nc-sa/4.0/
# or send a letter to
# Creative Commons, PO Box 1866, Mountain View, CA 94042, USA.
#
# CIF created using the CSD Python API on 29 September 2022
# The structure has been converted into the P1 space group
# The structure has a 3D framework
# The original CSD entry UZANAL is in the monoclinic crystal system
# The framework has been calculated to contain at least 10.0% void space
# The void calculation uses a probe of radius 1.32A, grid spacing 0.4
#
###############################################################################

data_UZANAL
_chemical_formula_moiety         '(C52 H36 Gd4 N8 O40 Zn4)n'
_symmetry_cell_setting           triclinic
_symmetry_space_group_name_H-M   'P 1'
_symmetry_Int_Tables_number      1
_space_group_name_Hall           'P 1'
loop_
_symmetry_equiv_pos_site_id
_symmetry_equiv_pos_as_xyz
1 x,y,z
_cell_length_a                   10.1045(13)
_cell_length_b                   9.5831(12)
_cell_length_c                   20.385(3)
_cell_angle_alpha                90
_cell_angle_beta                 105.585(6)
_cell_angle_gamma                90
_cell_volume                     1901.35
loop_
_atom_site_label
_atom_site_type_symbol
_atom_site_fract_x
_atom_site_fract_y
_atom_site_fract_z
C3 C 0.1996(8) 0.0077(6) 0.0545(3)
H2 H 0.2330 0.0984 0.0565
C1 C 0.1354(5) 0.8085(5) 0.1106(2)
C2 C 0.1853(7) 0.9441(5) 0.1124(3)
H1 H 0.2092 0.9923 0.1535
C6 C 0.0986(4) 0.7383(4) 0.0489(2)
H4 H 0.0632 0.6483 0.0468
C8 C 0.1203(4) 0.7407(4) 0.1746(2)
O3 O 0.0919(3) 0.6131(3) 0.17145(17)
O4 O 0.1395(3) 0.8139(3) 0.22751(16)
Gd3 Gd 0.029780(19) 0.92944(2) 0.298547(10)
C4 C 0.1649(7) 0.9378(5) 0.9934(3)
H3 H 0.1751 0.9813 0.9543
C5 C 0.1143(5) 0.8021(4) 0.9900(2)
C7 C 0.0792(4) 0.7258(4) 0.9236(2)
C9 C 0.2029(4) 0.2982(4) 0.7392(2)
C10 C 0.3411(4) 0.3613(4) 0.7528(2)
C11 C 0.4089(4) 0.4635(4) 0.7954(2)
C12 C 0.3744(4) 0.5516(4) 0.8483(2)
C13 C 0.5424(5) 0.3852(5) 0.7371(3)
H5 H 0.6184 0.3727 0.7202
Gd1 Gd 0.029780(19) 0.57056(2) 0.798547(10)
N1 N 0.4259(4) 0.3131(4) 0.7158(2)
N2 N 0.5377(3) 0.4782(4) 0.7858(2)
O1 O 0.0996(3) 0.7805(3) 0.87148(16)
O2 O 0.0301(3) 0.6029(3) 0.92056(16)
O5 O 0.1091(3) 0.3501(3) 0.75930(16)
O6 O 0.1875(3) 0.1860(3) 0.70393(16)
O7 O 0.2608(3) 0.5333(3) 0.86206(17)
O8 O 0.4631(3) 0.6382(3) 0.87799(17)
O10 O 0.2357(3) 0.1163(4) 0.57219(18)
H8 H 0.1551 0.0930 0.5610
H9 H 0.2721 0.0690 0.5484
Zn1 Zn 0.36012(5) 0.13850(5) 0.66379(3)
O12 O 0.1395(3) 0.6861(3) 0.72751(16)
O15 O 0.5369(3) 0.1382(3) 0.62201(17)
Zn2 Zn 0.63988(5) 0.63850(5) 0.83621(3)
N3 N 0.4623(3) 0.9782(4) 0.7142(2)
Gd2 Gd 0.970220(19) 0.42944(2) 0.201453(10)
O9 O 0.8758(4) 0.5278(4) 0.68934(18)
H6 H 0.8702 0.4505 0.6725
H7 H 0.8288 0.5779 0.6603
Gd4 Gd 0.970220(19) 0.07056(2) 0.701453(10)
O11 O 0.9081(3) 0.3869(3) 0.82855(17)
O13 O 0.8909(3) 0.8501(3) 0.74070(16)
O14 O 0.8125(3) 0.6860(3) 0.79607(16)
O9_2 O 0.1242(4) 0.0278(4) 0.81066(18)
H7_2 H 0.1712 0.0779 0.8397
H6_2 H 0.1298 0.9505 0.8275
O11_2 O 0.0919(3) 0.8869(3) 0.67145(17)
C1_2 C 0.8646(5) 0.3085(5) 0.3894(2)
C2_2 C 0.8147(7) 0.4441(5) 0.3876(3)
H1_2 H 0.7908 0.4923 0.3465
C3_2 C 0.8004(8) 0.5077(6) 0.4455(3)
H2_2 H 0.7670 0.5984 0.4435
C4_2 C 0.8351(7) 0.4378(5) 0.5066(3)
H3_2 H 0.8249 0.4813 0.5457
C5_2 C 0.8857(5) 0.3021(4) 0.5100(2)
C6_2 C 0.9014(4) 0.2383(4) 0.4511(2)
H4_2 H 0.9368 0.1483 0.4532
C7_2 C 0.9208(4) 0.2258(4) 0.5764(2)
C8_2 C 0.8797(4) 0.2407(4) 0.3254(2)
C12_2 C 0.6256(4) 0.0516(4) 0.6517(2)
O1_2 O 0.9004(3) 0.2805(3) 0.62852(16)
O2_2 O 0.9699(3) 0.1029(3) 0.57944(16)
O3_2 O 0.9081(3) 0.1131(3) 0.32855(17)
O4_2 O 0.8605(3) 0.3139(3) 0.27249(16)
O7_2 O 0.7392(3) 0.0333(3) 0.63794(17)
O12_2 O 0.8605(3) 0.1861(3) 0.77249(16)
C9_2 C 0.7971(4) 0.7982(4) 0.7608(2)
C10_2 C 0.6589(4) 0.8613(4) 0.7472(2)
C11_2 C 0.5911(4) 0.9635(4) 0.7046(2)
C13_2 C 0.4576(5) 0.8852(5) 0.7629(3)
H5_2 H 0.3816 0.8727 0.7798
N1_2 N 0.5741(4) 0.8131(4) 0.7842(2)
O10_2 O 0.7643(3) 0.6163(4) 0.92781(18)
H8_2 H 0.8449 0.5930 0.9390
H9_2 H 0.7279 0.5690 0.9516
O9_3 O 0.1242(4) 0.4722(4) 0.31066(18)
H6_3 H 0.1298 0.5495 0.3275
H7_3 H 0.1712 0.4221 0.3397
O13_2 O 0.1091(3) 0.1499(3) 0.25930(16)
O14_2 O 0.1875(3) 0.3140(3) 0.20393(16)
N3_2 N 0.5377(3) 0.0218(4) 0.2858(2)
C4_3 C 0.8351(7) 0.0622(5) 0.0066(3)
H3_3 H 0.8249 0.0187 0.0457
C5_3 C 0.8857(5) 0.1979(4) 0.0100(2)
C7_3 C 0.9208(4) 0.2742(4) 0.0764(2)
C9_3 C 0.7971(4) 0.7018(4) 0.2608(2)
C10_3 C 0.6589(4) 0.6387(4) 0.2472(2)
C11_3 C 0.5911(4) 0.5365(4) 0.2046(2)
C12_3 C 0.6256(4) 0.4484(4) 0.1517(2)
C13_3 C 0.4576(5) 0.6148(5) 0.2629(3)
H5_3 H 0.3816 0.6273 0.2798
N1_3 N 0.5741(4) 0.6869(4) 0.2842(2)
N2_2 N 0.4623(3) 0.5218(4) 0.2142(2)
O1_3 O 0.9004(3) 0.2195(3) 0.12852(16)
O2_3 O 0.9699(3) 0.3971(3) 0.07944(16)
O5_2 O 0.8909(3) 0.6499(3) 0.24070(16)
O6_2 O 0.8125(3) 0.8140(3) 0.29607(16)
O7_3 O 0.7392(3) 0.4667(3) 0.13794(17)
O8_2 O 0.5369(3) 0.3618(3) 0.12201(17)
O10_3 O 0.7643(3) 0.8837(4) 0.42781(18)
H8_3 H 0.8449 0.9070 0.4390
H9_3 H 0.7279 0.9310 0.4516
Zn1_2 Zn 0.63988(5) 0.86150(5) 0.33621(3)
O15_2 O 0.4631(3) 0.8618(3) 0.37799(17)
Zn2_2 Zn 0.36012(5) 0.36150(5) 0.16379(3)
C1_3 C 0.8646(5) 0.1915(5) 0.8894(2)
C2_3 C 0.8147(7) 0.0559(5) 0.8876(3)
H1_3 H 0.7908 0.0077 0.8465
C6_3 C 0.9014(4) 0.2617(4) 0.9511(2)
H4_3 H 0.9368 0.3517 0.9532
C8_3 C 0.8797(4) 0.2593(4) 0.8254(2)
C9_4 C 0.2029(4) 0.2018(4) 0.2392(2)
C10_4 C 0.3411(4) 0.1387(4) 0.2528(2)
C11_4 C 0.4089(4) 0.0365(4) 0.2954(2)
C13_4 C 0.5424(5) 0.1148(5) 0.2371(3)
H5_4 H 0.6184 0.1273 0.2202
N1_4 N 0.4259(4) 0.1869(4) 0.2158(2)
O10_4 O 0.2357(3) 0.3837(4) 0.07219(18)
H8_4 H 0.1551 0.4070 0.0610
H9_4 H 0.2721 0.4310 0.0484
C1_4 C 0.1354(5) 0.6915(5) 0.6106(2)
C2_4 C 0.1853(7) 0.5559(5) 0.6124(3)
H1_4 H 0.2092 0.5077 0.6535
C3_3 C 0.1996(8) 0.4923(6) 0.5545(3)
H2_3 H 0.2330 0.4016 0.5565
C4_4 C 0.1649(7) 0.5622(5) 0.4934(3)
H3_4 H 0.1751 0.5187 0.4543
C5_4 C 0.1143(5) 0.6979(4) 0.4900(2)
C6_4 C 0.0986(4) 0.7617(4) 0.5489(2)
H4_4 H 0.0632 0.8517 0.5468
C7_4 C 0.0792(4) 0.7742(4) 0.4236(2)
C8_4 C 0.1203(4) 0.7593(4) 0.6746(2)
C12_4 C 0.3744(4) 0.9484(4) 0.3483(2)
O1_4 O 0.0996(3) 0.7195(3) 0.37148(16)
O2_4 O 0.0301(3) 0.8971(3) 0.42056(16)
O7_4 O 0.2608(3) 0.9667(3) 0.36206(17)
H6_4 H 0.8702 0.0495 0.1725
O9_4 O 0.8758(4) 0.9722(4) 0.18934(18)
H7_4 H 0.8288 0.9221 0.1603
C3_4 C 0.8004(8) 0.9923(6) 0.9455(3)
H2_4 H 0.7670 0.9016 0.9435
loop_
_geom_bond_atom_site_label_1
_geom_bond_atom_site_label_2
_geom_bond_site_symmetry_1
_geom_bond_site_symmetry_2
H2 C3 1_555 1_555
C1 C2 1_555 1_555
C2 H1 1_555 1_555
C6 C1 1_555 1_555
H4 C6 1_555 1_555
C8 C1 1_555 1_555
O3 C8 1_555 1_555
O4 C8 1_555 1_555
Gd3 O4 1_555 1_555
H3 C4 1_555 1_555
C5 C4 1_555 1_555
C7 C5 1_555 1_555
C9 C10 1_555 1_555
C10 C11 1_555 1_555
C11 C12 1_555 1_555
C12 O7 1_555 1_555
C13 H5 1_555 1_555
Gd1 O1 1_555 1_555
N1 C10 1_555 1_555
N2 C11 1_555 1_555
O1 C7 1_555 1_555
O2 C7 1_555 1_555
O5 C9 1_555 1_555
O6 C9 1_555 1_555
O7 Gd1 1_555 1_555
O8 C12 1_555 1_555
O10 H8 1_555 1_555
H9 O10 1_555 1_555
Zn1 N1 1_555 1_555
O12 Gd1 1_555 1_555
O15 Zn1 1_555 1_555
Zn2 N2 1_555 1_555
C13 N1 1_555 1_555
C13 N2 1_555 1_555
Gd1 O2 1_555 1_555
Gd1 O5 1_555 1_555
O6 Zn1 1_555 1_555
O8 Zn2 1_555 1_555
O10 Zn1 1_555 1_555
H6 O9 1_555 1_555
H7 O9 1_555 1_555
H7_2 O9_2 1_555 1_555
C1_2 C2_2 1_555 1_555
C2_2 H1_2 1_555 1_555
C3_2 C2_2 1_555 1_555
H2_2 C3_2 1_555 1_555
C4_2 C3_2 1_555 1_555
H3_2 C4_2 1_555 1_555
C5_2 C4_2 1_555 1_555
C6_2 C1_2 1_555 1_555
H4_2 C6_2 1_555 1_555
C7_2 C5_2 1_555 1_555
C8_2 C1_2 1_555 1_555
C12_2 O7_2 1_555 1_555
Gd4 O1_2 1_555 1_555
O1_2 C7_2 1_555 1_555
O2_2 C7_2 1_555 1_555
O3_2 C8_2 1_555 1_555
O4_2 C8_2 1_555 1_555
O7_2 Gd4 1_555 1_555
O15 C12_2 1_555 1_555
Gd2 O4_2 1_555 1_555
O12_2 Gd4 1_555 1_555
C5_2 C6_2 1_555 1_555
Gd4 O2_2 1_555 1_555
C9_2 C10_2 1_555 1_555
C10_2 C11_2 1_555 1_555
C13_2 H5_2 1_555 1_555
N1_2 C10_2 1_555 1_555
N3 C11_2 1_555 1_555
O13 C9_2 1_555 1_555
O14 C9_2 1_555 1_555
O10_2 H8_2 1_555 1_555
H9_2 O10_2 1_555 1_555
Zn2 N1_2 1_555 1_555
C13_2 N1_2 1_555 1_555
C13_2 N3 1_555 1_555
O14 Zn2 1_555 1_555
O10_2 Zn2 1_555 1_555
H6_3 O9_3 1_555 1_555
H7_3 O9_3 1_555 1_555
H3_3 C4_3 1_555 1_555
C5_3 C4_3 1_555 1_555
C7_3 C5_3 1_555 1_555
C9_3 C10_3 1_555 1_555
C10_3 C11_3 1_555 1_555
C11_3 C12_3 1_555 1_555
C12_3 O7_3 1_555 1_555
C13_3 H5_3 1_555 1_555
Gd2 O1_3 1_555 1_555
N1_3 C10_3 1_555 1_555
N2_2 C11_3 1_555 1_555
O1_3 C7_3 1_555 1_555
O2_3 C7_3 1_555 1_555
O5_2 C9_3 1_555 1_555
O6_2 C9_3 1_555 1_555
O7_3 Gd2 1_555 1_555
O8_2 C12_3 1_555 1_555
O10_3 H8_3 1_555 1_555
H9_3 O10_3 1_555 1_555
Zn1_2 N1_3 1_555 1_555
O15_2 Zn1_2 1_555 1_555
Zn2_2 N2_2 1_555 1_555
C13_3 N1_3 1_555 1_555
C13_3 N2_2 1_555 1_555
Gd2 O2_3 1_555 1_555
Gd2 O5_2 1_555 1_555
O6_2 Zn1_2 1_555 1_555
O8_2 Zn2_2 1_555 1_555
O10_3 Zn1_2 1_555 1_555
C1_3 C2_3 1_555 1_555
C2_3 H1_3 1_555 1_555
C6_3 C1_3 1_555 1_555
H4_3 C6_3 1_555 1_555
C8_3 C1_3 1_555 1_555
O11 C8_3 1_555 1_555
O12_2 C8_3 1_555 1_555
C9_4 C10_4 1_555 1_555
C10_4 C11_4 1_555 1_555
C13_4 H5_4 1_555 1_555
N1_4 C10_4 1_555 1_555
N3_2 C11_4 1_555 1_555
O13_2 C9_4 1_555 1_555
O14_2 C9_4 1_555 1_555
O10_4 H8_4 1_555 1_555
H9_4 O10_4 1_555 1_555
Zn2_2 N1_4 1_555 1_555
C13_4 N1_4 1_555 1_555
C13_4 N3_2 1_555 1_555
O14_2 Zn2_2 1_555 1_555
O10_4 Zn2_2 1_555 1_555
C1_4 C2_4 1_555 1_555
C2_4 H1_4 1_555 1_555
C3_3 C2_4 1_555 1_555
H2_3 C3_3 1_555 1_555
C4_4 C3_3 1_555 1_555
H3_4 C4_4 1_555 1_555
C5_4 C4_4 1_555 1_555
C6_4 C1_4 1_555 1_555
H4_4 C6_4 1_555 1_555
C7_4 C5_4 1_555 1_555
C8_4 C1_4 1_555 1_555
C12_4 O7_4 1_555 1_555
Gd3 O1_4 1_555 1_555
O1_4 C7_4 1_555 1_555
O2_4 C7_4 1_555 1_555
O11_2 C8_4 1_555 1_555
O12 C8_4 1_555 1_555
O7_4 Gd3 1_555 1_555
O15_2 C12_4 1_555 1_555
C5_4 C6_4 1_555 1_555
Gd3 O2_4 1_555 1_555
H7_4 O9_4 1_555 1_555
H2_4 C3_4 1_555 1_555

#END
