
###############################################################################
#
# This file contains modified crystal structure data generated from the
# MOF subset of the Cambridge Structural Database (CSD) v543 
# hosted by the Cambridge Crystallographic Data Centre (CCDC).
#
# This work is licensed under the Creative Commons
# Attribution-NonCommercial-ShareAlike 4.0 International License.
# To view a copy of this license, visit
# http://creativecommons.org/licenses/by-nc-sa/4.0/
# or send a letter to
# Creative Commons, PO Box 1866, Mountain View, CA 94042, USA.
#
# CIF created using the CSD Python API on 29 September 2022
# The structure has been converted into the P1 space group
# The structure has a 3D framework
# The original CSD entry UZAROE is in the cubic crystal system
# The framework has been calculated to contain at least 10.0% void space
# The void calculation uses a probe of radius 1.32A, grid spacing 0.4
#
###############################################################################

data_UZAROE
_chemical_formula_moiety         '(C312 H192 Co24 N312 O192)n'
_symmetry_cell_setting           triclinic
_symmetry_space_group_name_H-M   'P 1'
_symmetry_Int_Tables_number      1
_space_group_name_Hall           'P 1'
loop_
_symmetry_equiv_pos_site_id
_symmetry_equiv_pos_as_xyz
1 x,y,z
_cell_length_a                   29.0302(5)
_cell_length_b                   29.0302(5)
_cell_length_c                   29.0302(5)
_cell_angle_alpha                90
_cell_angle_beta                 90
_cell_angle_gamma                90
_cell_volume                     24465.3
loop_
_atom_site_label
_atom_site_type_symbol
_atom_site_fract_x
_atom_site_fract_y
_atom_site_fract_z
C2 C 0.6069(5) -0.0000 0.2500(6)
N4 N 0.6077(5) -0.0000 0.2954(9)
C6 C 0.6056(3) 0.0260(4) 0.1799(4)
H4 H 0.6053 0.0454 0.1545
N6 N 0.6060(4) 0.0376(4) 0.2225(5)
O4 O 0.6052(3) 0.0365(3) 0.3174(4)
Co2 Co 0.60500(5) 0.10500(5) 0.2500
C1 C 0.6156(4) 0.8187(3) 0.1813(3)
C2_2 C 0.6069(5) 1.0000 0.2500(6)
C3 C 0.6056(3) 0.9740(4) 0.1799(4)
H1 H 0.6053 0.9546 0.1545
C4 C 0.6595(3) 0.8743(3) 0.1602(3)
H2 H 0.6760 0.9017 0.1593
Co1 Co 0.60500(5) 0.89500(5) 0.2500
N1 N 0.6060(4) 0.9624(4) 0.2225(5)
N2 N 0.5865(4) 0.7910(3) 0.2090(3)
N3 N 0.6316(3) 0.8606(3) 0.1946(3)
N4_2 N 0.6077(5) 1.0000 0.2954(9)
O1 O 0.6052(3) 0.9635(3) 0.3174(4)
O2 O 0.5741(3) 0.7538(2) 0.1935(3)
C5 C 0.6595(3) 0.8398(3) 0.1257(3)
H3 H 0.6760 0.8407 0.0983
N5 N 0.6316(3) 0.8054(3) 0.1394(3)
O3 O 0.5741(3) 0.8065(3) 0.2462(2)
Co3 Co 0.60500(5) 0.7500 0.10500(5)
N7 N 0.5376(4) 0.8940(4) 0.2775(5)
N8 N 0.6394(3) 0.8684(3) 0.3054(3)
C1_2 C 0.1813(3) 0.6156(4) 0.1813(3)
C2_3 C 0.0000 0.6069(5) 0.2500(6)
C3_2 C 0.0260(4) 0.6056(3) 0.1799(4)
H1_2 H 0.0454 0.6053 0.1545
C4_2 C 0.1257(3) 0.6595(3) 0.1602(3)
H2_2 H 0.0983 0.6760 0.1593
Co1_2 Co 0.10500(5) 0.60500(5) 0.2500
N1_2 N 0.0376(4) 0.6060(4) 0.2225(5)
N2_2 N 0.2090(3) 0.5865(4) 0.2090(3)
N3_2 N 0.1394(3) 0.6316(3) 0.1946(3)
N4_3 N 0.0000 0.6077(5) 0.2954(9)
O1_2 O 0.0365(3) 0.6052(3) 0.3174(4)
O2_2 O 0.2462(2) 0.5741(3) 0.1935(3)
C5_2 C 0.1602(3) 0.6595(3) 0.1257(3)
H3_2 H 0.1593 0.6760 0.0983
N5_2 N 0.1946(3) 0.6316(3) 0.1394(3)
O3_2 O 0.1935(3) 0.5741(3) 0.2462(2)
Co3_2 Co 0.2500 0.60500(5) 0.10500(5)
N7_2 N 0.1060(4) 0.5376(4) 0.2775(5)
N8_2 N 0.1316(3) 0.6394(3) 0.3054(3)
C2_4 C 1.0000 0.6069(5) 0.2500(6)
N4_4 N 1.0000 0.6077(5) 0.2954(9)
C6_2 C 0.9740(4) 0.6056(3) 0.1799(4)
H4_2 H 0.9546 0.6053 0.1545
N6_2 N 0.9624(4) 0.6060(4) 0.2225(5)
O4_2 O 0.9635(3) 0.6052(3) 0.3174(4)
Co2_2 Co 0.89500(5) 0.60500(5) 0.2500
C1_3 C 0.3844(4) 0.1813(3) 0.1813(3)
C2_5 C 0.3931(5) 0.0000 0.2500(6)
C3_3 C 0.3944(3) 0.0260(4) 0.1799(4)
H1_3 H 0.3947 0.0454 0.1545
C4_3 C 0.3405(3) 0.1257(3) 0.1602(3)
H2_3 H 0.3240 0.0983 0.1593
Co1_3 Co 0.39500(5) 0.10500(5) 0.2500
N1_3 N 0.3940(4) 0.0376(4) 0.2225(5)
N2_3 N 0.4135(4) 0.2090(3) 0.2090(3)
N3_3 N 0.3684(3) 0.1394(3) 0.1946(3)
N4_5 N 0.3923(5) 0.0000 0.2954(9)
O1_3 O 0.3948(3) 0.0365(3) 0.3174(4)
O2_3 O 0.4259(3) 0.2462(2) 0.1935(3)
C5_3 C 0.3405(3) 0.1602(3) 0.1257(3)
H3_3 H 0.3240 0.1593 0.0983
N5_3 N 0.3684(3) 0.1946(3) 0.1394(3)
O3_3 O 0.4259(3) 0.1935(3) 0.2462(2)
Co3_3 Co 0.39500(5) 0.2500 0.10500(5)
N7_3 N 0.4624(4) 0.1060(4) 0.2775(5)
N8_3 N 0.3606(3) 0.1316(3) 0.3054(3)
C2_6 C 0.3931(5) 1.0000 0.2500(6)
N4_6 N 0.3923(5) 1.0000 0.2954(9)
C6_3 C 0.3944(3) 0.9740(4) 0.1799(4)
H4_3 H 0.3947 0.9546 0.1545
N6_3 N 0.3940(4) 0.9624(4) 0.2225(5)
O4_3 O 0.3948(3) 0.9635(3) 0.3174(4)
Co2_3 Co 0.39500(5) 0.89500(5) 0.2500
C2_7 C -0.0000 0.3931(5) 0.2500(6)
N4_7 N -0.0000 0.3923(5) 0.2954(9)
C6_4 C 0.0260(4) 0.3944(3) 0.1799(4)
H4_4 H 0.0454 0.3947 0.1545
N6_4 N 0.0376(4) 0.3940(4) 0.2225(5)
O4_4 O 0.0365(3) 0.3948(3) 0.3174(4)
Co2_4 Co 0.10500(5) 0.39500(5) 0.2500
C1_4 C 0.8187(3) 0.3844(4) 0.1813(3)
C2_8 C 1.0000 0.3931(5) 0.2500(6)
C3_4 C 0.9740(4) 0.3944(3) 0.1799(4)
H1_4 H 0.9546 0.3947 0.1545
C4_4 C 0.8743(3) 0.3405(3) 0.1602(3)
H2_4 H 0.9017 0.3240 0.1593
Co1_4 Co 0.89500(5) 0.39500(5) 0.2500
N1_4 N 0.9624(4) 0.3940(4) 0.2225(5)
N2_4 N 0.7910(3) 0.4135(4) 0.2090(3)
N3_4 N 0.8606(3) 0.3684(3) 0.1946(3)
N4_8 N 1.0000 0.3923(5) 0.2954(9)
O1_4 O 0.9635(3) 0.3948(3) 0.3174(4)
O2_4 O 0.7538(2) 0.4259(3) 0.1935(3)
C5_4 C 0.8398(3) 0.3405(3) 0.1257(3)
H3_4 H 0.8407 0.3240 0.0983
N5_4 N 0.8054(3) 0.3684(3) 0.1394(3)
O3_4 O 0.8065(3) 0.4259(3) 0.2462(2)
Co3_4 Co 0.7500 0.39500(5) 0.10500(5)
N7_4 N 0.8940(4) 0.4624(4) 0.2775(5)
N8_4 N 0.8684(3) 0.3606(3) 0.3054(3)
C1_5 C 0.6156(4) 0.1813(3) 0.8187(3)
C2_9 C 0.6069(5) 0.0000 0.7500(6)
C3_5 C 0.6056(3) 0.0260(4) 0.8201(4)
H1_5 H 0.6053 0.0454 0.8455
C4_5 C 0.6595(3) 0.1257(3) 0.8398(3)
H2_5 H 0.6760 0.0983 0.8407
Co1_5 Co 0.60500(5) 0.10500(5) 0.7500
N1_5 N 0.6060(4) 0.0376(4) 0.7775(5)
N2_5 N 0.5865(4) 0.2090(3) 0.7910(3)
N3_5 N 0.6316(3) 0.1394(3) 0.8054(3)
N4_9 N 0.6077(5) 0.0000 0.7046(9)
O1_5 O 0.6052(3) 0.0365(3) 0.6826(4)
O2_5 O 0.5741(3) 0.2462(2) 0.8065(3)
C5_5 C 0.6595(3) 0.1602(3) 0.8743(3)
H3_5 H 0.6760 0.1593 0.9017
N5_5 N 0.6316(3) 0.1946(3) 0.8606(3)
O3_5 O 0.5741(3) 0.1935(3) 0.7538(2)
Co3_5 Co 0.60500(5) 0.2500 0.89500(5)
N7_5 N 0.5376(4) 0.1060(4) 0.7225(5)
N8_5 N 0.6394(3) 0.1316(3) 0.6946(3)
C2_10 C 0.6069(5) 1.0000 0.7500(6)
N4_10 N 0.6077(5) 1.0000 0.7046(9)
C6_5 C 0.6056(3) 0.9740(4) 0.8201(4)
H4_5 H 0.6053 0.9546 0.8455
N6_5 N 0.6060(4) 0.9624(4) 0.7775(5)
O4_5 O 0.6052(3) 0.9635(3) 0.6826(4)
Co2_5 Co 0.60500(5) 0.89500(5) 0.7500
C2_11 C -0.0000 0.6069(5) 0.7500(6)
N4_11 N -0.0000 0.6077(5) 0.7046(9)
C6_6 C 0.0260(4) 0.6056(3) 0.8201(4)
H4_6 H 0.0454 0.6053 0.8455
N6_6 N 0.0376(4) 0.6060(4) 0.7775(5)
O4_6 O 0.0365(3) 0.6052(3) 0.6826(4)
Co2_6 Co 0.10500(5) 0.60500(5) 0.7500
C1_6 C 0.8187(3) 0.6156(4) 0.8187(3)
C2_12 C 1.0000 0.6069(5) 0.7500(6)
C3_6 C 0.9740(4) 0.6056(3) 0.8201(4)
H1_6 H 0.9546 0.6053 0.8455
C4_6 C 0.8743(3) 0.6595(3) 0.8398(3)
H2_6 H 0.9017 0.6760 0.8407
Co1_6 Co 0.89500(5) 0.60500(5) 0.7500
N1_6 N 0.9624(4) 0.6060(4) 0.7775(5)
N2_6 N 0.7910(3) 0.5865(4) 0.7910(3)
N3_6 N 0.8606(3) 0.6316(3) 0.8054(3)
N4_12 N 1.0000 0.6077(5) 0.7046(9)
O1_6 O 0.9635(3) 0.6052(3) 0.6826(4)
O2_6 O 0.7538(2) 0.5741(3) 0.8065(3)
C5_6 C 0.8398(3) 0.6595(3) 0.8743(3)
H3_6 H 0.8407 0.6760 0.9017
N5_6 N 0.8054(3) 0.6316(3) 0.8606(3)
O3_6 O 0.8065(3) 0.5741(3) 0.7538(2)
Co3_6 Co 0.7500 0.60500(5) 0.89500(5)
N7_6 N 0.8940(4) 0.5376(4) 0.7225(5)
N8_6 N 0.8684(3) 0.6394(3) 0.6946(3)
C2_13 C 0.3931(5) -0.0000 0.7500(6)
N4_13 N 0.3923(5) -0.0000 0.7046(9)
C6_7 C 0.3944(3) 0.0260(4) 0.8201(4)
H4_7 H 0.3947 0.0454 0.8455
N6_7 N 0.3940(4) 0.0376(4) 0.7775(5)
O4_7 O 0.3948(3) 0.0365(3) 0.6826(4)
Co2_7 Co 0.39500(5) 0.10500(5) 0.7500
C1_7 C 0.3844(4) 0.8187(3) 0.8187(3)
C2_14 C 0.3931(5) 1.0000 0.7500(6)
C3_7 C 0.3944(3) 0.9740(4) 0.8201(4)
H1_7 H 0.3947 0.9546 0.8455
C4_7 C 0.3405(3) 0.8743(3) 0.8398(3)
H2_7 H 0.3240 0.9017 0.8407
Co1_7 Co 0.39500(5) 0.89500(5) 0.7500
N1_7 N 0.3940(4) 0.9624(4) 0.7775(5)
N2_7 N 0.4135(4) 0.7910(3) 0.7910(3)
N3_7 N 0.3684(3) 0.8606(3) 0.8054(3)
N4_14 N 0.3923(5) 1.0000 0.7046(9)
O1_7 O 0.3948(3) 0.9635(3) 0.6826(4)
O2_7 O 0.4259(3) 0.7538(2) 0.8065(3)
C5_7 C 0.3405(3) 0.8398(3) 0.8743(3)
H3_7 H 0.3240 0.8407 0.9017
N5_7 N 0.3684(3) 0.8054(3) 0.8606(3)
O3_7 O 0.4259(3) 0.8065(3) 0.7538(2)
Co3_7 Co 0.39500(5) 0.7500 0.89500(5)
N7_7 N 0.4624(4) 0.8940(4) 0.7225(5)
N8_7 N 0.3606(3) 0.8684(3) 0.6946(3)
C1_8 C 0.1813(3) 0.3844(4) 0.8187(3)
C2_15 C 0.0000 0.3931(5) 0.7500(6)
C3_8 C 0.0260(4) 0.3944(3) 0.8201(4)
H1_8 H 0.0454 0.3947 0.8455
C4_8 C 0.1257(3) 0.3405(3) 0.8398(3)
H2_8 H 0.0983 0.3240 0.8407
Co1_8 Co 0.10500(5) 0.39500(5) 0.7500
N1_8 N 0.0376(4) 0.3940(4) 0.7775(5)
N2_8 N 0.2090(3) 0.4135(4) 0.7910(3)
N3_8 N 0.1394(3) 0.3684(3) 0.8054(3)
N4_15 N 0.0000 0.3923(5) 0.7046(9)
O1_8 O 0.0365(3) 0.3948(3) 0.6826(4)
O2_8 O 0.2462(2) 0.4259(3) 0.8065(3)
C5_8 C 0.1602(3) 0.3405(3) 0.8743(3)
H3_8 H 0.1593 0.3240 0.9017
N5_8 N 0.1946(3) 0.3684(3) 0.8606(3)
O3_8 O 0.1935(3) 0.4259(3) 0.7538(2)
Co3_8 Co 0.2500 0.39500(5) 0.89500(5)
N7_8 N 0.1060(4) 0.4624(4) 0.7225(5)
N8_8 N 0.1316(3) 0.3606(3) 0.6946(3)
C2_16 C 1.0000 0.3931(5) 0.7500(6)
N4_16 N 1.0000 0.3923(5) 0.7046(9)
C6_8 C 0.9740(4) 0.3944(3) 0.8201(4)
H4_8 H 0.9546 0.3947 0.8455
N6_8 N 0.9624(4) 0.3940(4) 0.7775(5)
O4_8 O 0.9635(3) 0.3948(3) 0.6826(4)
Co2_8 Co 0.89500(5) 0.39500(5) 0.7500
C2_17 C 0.2500(6) 0.6069(5) -0.0000
N4_17 N 0.2954(9) 0.6077(5) -0.0000
C6_9 C 0.1799(4) 0.6056(3) 0.0260(4)
H4_9 H 0.1545 0.6053 0.0454
N6_9 N 0.2225(5) 0.6060(4) 0.0376(4)
O4_9 O 0.3174(4) 0.6052(3) 0.0365(3)
C1_9 C 0.1813(3) 0.6156(4) 0.8187(3)
C2_18 C 0.2500(6) 0.6069(5) 1.0000
C3_9 C 0.1799(4) 0.6056(3) 0.9740(4)
H1_9 H 0.1545 0.6053 0.9546
C4_9 C 0.1602(3) 0.6595(3) 0.8743(3)
H2_9 H 0.1593 0.6760 0.9017
Co1_9 Co 0.2500 0.60500(5) 0.89500(5)
N1_9 N 0.2225(5) 0.6060(4) 0.9624(4)
N2_9 N 0.2090(3) 0.5865(4) 0.7910(3)
N3_9 N 0.1946(3) 0.6316(3) 0.8606(3)
N4_18 N 0.2954(9) 0.6077(5) 1.0000
O1_9 O 0.3174(4) 0.6052(3) 0.9635(3)
O2_9 O 0.1935(3) 0.5741(3) 0.7538(2)
C5_9 C 0.1257(3) 0.6595(3) 0.8398(3)
H3_9 H 0.0983 0.6760 0.8407
N5_9 N 0.1394(3) 0.6316(3) 0.8054(3)
O3_9 O 0.2462(2) 0.5741(3) 0.8065(3)
N7_9 N 0.2775(5) 0.5376(4) 0.8940(4)
N8_9 N 0.3054(3) 0.6394(3) 0.8684(3)
C2_19 C 0.3931(5) 0.2500(6) -0.0000
N4_19 N 0.3923(5) 0.2954(9) -0.0000
C6_10 C 0.3944(3) 0.1799(4) 0.0260(4)
H4_10 H 0.3947 0.1545 0.0454
N6_10 N 0.3940(4) 0.2225(5) 0.0376(4)
O4_10 O 0.3948(3) 0.3174(4) 0.0365(3)
C1_10 C 0.3844(4) 0.1813(3) 0.8187(3)
C2_20 C 0.3931(5) 0.2500(6) 1.0000
C3_10 C 0.3944(3) 0.1799(4) 0.9740(4)
H1_10 H 0.3947 0.1545 0.9546
C4_10 C 0.3405(3) 0.1602(3) 0.8743(3)
H2_10 H 0.3240 0.1593 0.9017
Co1_10 Co 0.39500(5) 0.2500 0.89500(5)
N1_10 N 0.3940(4) 0.2225(5) 0.9624(4)
N2_10 N 0.4135(4) 0.2090(3) 0.7910(3)
N3_10 N 0.3684(3) 0.1946(3) 0.8606(3)
N4_20 N 0.3923(5) 0.2954(9) 1.0000
O1_10 O 0.3948(3) 0.3174(4) 0.9635(3)
O2_10 O 0.4259(3) 0.1935(3) 0.7538(2)
C5_10 C 0.3405(3) 0.1257(3) 0.8398(3)
H3_10 H 0.3240 0.0983 0.8407
N5_10 N 0.3684(3) 0.1394(3) 0.8054(3)
O3_10 O 0.4259(3) 0.2462(2) 0.8065(3)
N7_10 N 0.4624(4) 0.2775(5) 0.8940(4)
N8_10 N 0.3606(3) 0.3054(3) 0.8684(3)
C2_21 C 0.7500(6) 0.3931(5) -0.0000
N4_21 N 0.7046(9) 0.3923(5) -0.0000
C6_11 C 0.8201(4) 0.3944(3) 0.0260(4)
H4_11 H 0.8455 0.3947 0.0454
N6_11 N 0.7775(5) 0.3940(4) 0.0376(4)
O4_11 O 0.6826(4) 0.3948(3) 0.0365(3)
C1_11 C 0.8187(3) 0.3844(4) 0.8187(3)
C2_22 C 0.7500(6) 0.3931(5) 1.0000
C3_11 C 0.8201(4) 0.3944(3) 0.9740(4)
H1_11 H 0.8455 0.3947 0.9546
C4_11 C 0.8398(3) 0.3405(3) 0.8743(3)
H2_11 H 0.8407 0.3240 0.9017
Co1_11 Co 0.7500 0.39500(5) 0.89500(5)
N1_11 N 0.7775(5) 0.3940(4) 0.9624(4)
N2_11 N 0.7910(3) 0.4135(4) 0.7910(3)
N3_11 N 0.8054(3) 0.3684(3) 0.8606(3)
N4_22 N 0.7046(9) 0.3923(5) 1.0000
O1_11 O 0.6826(4) 0.3948(3) 0.9635(3)
O2_11 O 0.8065(3) 0.4259(3) 0.7538(2)
C5_11 C 0.8743(3) 0.3405(3) 0.8398(3)
H3_11 H 0.9017 0.3240 0.8407
N5_11 N 0.8606(3) 0.3684(3) 0.8054(3)
O3_11 O 0.7538(2) 0.4259(3) 0.8065(3)
N7_11 N 0.7225(5) 0.4624(4) 0.8940(4)
N8_11 N 0.6946(3) 0.3606(3) 0.8684(3)
C2_23 C 0.6069(5) 0.7500(6) -0.0000
N4_23 N 0.6077(5) 0.7046(9) -0.0000
C6_12 C 0.6056(3) 0.8201(4) 0.0260(4)
H4_12 H 0.6053 0.8455 0.0454
N6_12 N 0.6060(4) 0.7775(5) 0.0376(4)
O4_12 O 0.6052(3) 0.6826(4) 0.0365(3)
C1_12 C 0.6156(4) 0.8187(3) 0.8187(3)
C2_24 C 0.6069(5) 0.7500(6) 1.0000
C3_12 C 0.6056(3) 0.8201(4) 0.9740(4)
H1_12 H 0.6053 0.8455 0.9546
C4_12 C 0.6595(3) 0.8398(3) 0.8743(3)
H2_12 H 0.6760 0.8407 0.9017
Co1_12 Co 0.60500(5) 0.7500 0.89500(5)
N1_12 N 0.6060(4) 0.7775(5) 0.9624(4)
N2_12 N 0.5865(4) 0.7910(3) 0.7910(3)
N3_12 N 0.6316(3) 0.8054(3) 0.8606(3)
N4_24 N 0.6077(5) 0.7046(9) 1.0000
O1_12 O 0.6052(3) 0.6826(4) 0.9635(3)
O2_12 O 0.5741(3) 0.8065(3) 0.7538(2)
C5_12 C 0.6595(3) 0.8743(3) 0.8398(3)
H3_12 H 0.6760 0.9017 0.8407
N5_12 N 0.6316(3) 0.8606(3) 0.8054(3)
O3_12 O 0.5741(3) 0.7538(2) 0.8065(3)
N7_12 N 0.5376(4) 0.7225(5) 0.8940(4)
N8_12 N 0.6394(3) 0.6946(3) 0.8684(3)
C1_13 C 0.1813(3) 0.3844(4) 0.1813(3)
C2_25 C 0.2500(6) 0.3931(5) 0.0000
C3_13 C 0.1799(4) 0.3944(3) 0.0260(4)
H1_13 H 0.1545 0.3947 0.0454
C4_13 C 0.1602(3) 0.3405(3) 0.1257(3)
H2_13 H 0.1593 0.3240 0.0983
Co1_13 Co 0.2500 0.39500(5) 0.10500(5)
N1_13 N 0.2225(5) 0.3940(4) 0.0376(4)
N2_13 N 0.2090(3) 0.4135(4) 0.2090(3)
N3_13 N 0.1946(3) 0.3684(3) 0.1394(3)
N4_25 N 0.2954(9) 0.3923(5) 0.0000
O1_13 O 0.3174(4) 0.3948(3) 0.0365(3)
O2_13 O 0.1935(3) 0.4259(3) 0.2462(2)
C5_13 C 0.1257(3) 0.3405(3) 0.1602(3)
H3_13 H 0.0983 0.3240 0.1593
N5_13 N 0.1394(3) 0.3684(3) 0.1946(3)
O3_13 O 0.2462(2) 0.4259(3) 0.1935(3)
N7_13 N 0.2775(5) 0.4624(4) 0.1060(4)
N8_13 N 0.3054(3) 0.3606(3) 0.1316(3)
C2_26 C 0.2500(6) 0.3931(5) 1.0000
N4_26 N 0.2954(9) 0.3923(5) 1.0000
C6_13 C 0.1799(4) 0.3944(3) 0.9740(4)
H4_13 H 0.1545 0.3947 0.9546
N6_13 N 0.2225(5) 0.3940(4) 0.9624(4)
O4_13 O 0.3174(4) 0.3948(3) 0.9635(3)
C1_14 C 0.6156(4) 0.1813(3) 0.1813(3)
C2_27 C 0.6069(5) 0.2500(6) 0.0000
C3_14 C 0.6056(3) 0.1799(4) 0.0260(4)
H1_14 H 0.6053 0.1545 0.0454
C4_14 C 0.6595(3) 0.1602(3) 0.1257(3)
H2_14 H 0.6760 0.1593 0.0983
Co1_14 Co 0.60500(5) 0.2500 0.10500(5)
N1_14 N 0.6060(4) 0.2225(5) 0.0376(4)
N2_14 N 0.5865(4) 0.2090(3) 0.2090(3)
N3_14 N 0.6316(3) 0.1946(3) 0.1394(3)
N4_27 N 0.6077(5) 0.2954(9) 0.0000
O1_14 O 0.6052(3) 0.3174(4) 0.0365(3)
O2_14 O 0.5741(3) 0.1935(3) 0.2462(2)
C5_14 C 0.6595(3) 0.1257(3) 0.1602(3)
H3_14 H 0.6760 0.0983 0.1593
N5_14 N 0.6316(3) 0.1394(3) 0.1946(3)
O3_14 O 0.5741(3) 0.2462(2) 0.1935(3)
N7_14 N 0.5376(4) 0.2775(5) 0.1060(4)
N8_14 N 0.6394(3) 0.3054(3) 0.1316(3)
C2_28 C 0.6069(5) 0.2500(6) 1.0000
N4_28 N 0.6077(5) 0.2954(9) 1.0000
C6_14 C 0.6056(3) 0.1799(4) 0.9740(4)
H4_14 H 0.6053 0.1545 0.9546
N6_14 N 0.6060(4) 0.2225(5) 0.9624(4)
O4_14 O 0.6052(3) 0.3174(4) 0.9635(3)
C1_15 C 0.8187(3) 0.6156(4) 0.1813(3)
C2_29 C 0.7500(6) 0.6069(5) 0.0000
C3_15 C 0.8201(4) 0.6056(3) 0.0260(4)
H1_15 H 0.8455 0.6053 0.0454
C4_15 C 0.8398(3) 0.6595(3) 0.1257(3)
H2_15 H 0.8407 0.6760 0.0983
Co1_15 Co 0.7500 0.60500(5) 0.10500(5)
N1_15 N 0.7775(5) 0.6060(4) 0.0376(4)
N2_15 N 0.7910(3) 0.5865(4) 0.2090(3)
N3_15 N 0.8054(3) 0.6316(3) 0.1394(3)
N4_29 N 0.7046(9) 0.6077(5) 0.0000
O1_15 O 0.6826(4) 0.6052(3) 0.0365(3)
O2_15 O 0.8065(3) 0.5741(3) 0.2462(2)
C5_15 C 0.8743(3) 0.6595(3) 0.1602(3)
H3_15 H 0.9017 0.6760 0.1593
N5_15 N 0.8606(3) 0.6316(3) 0.1946(3)
O3_15 O 0.7538(2) 0.5741(3) 0.1935(3)
N7_15 N 0.7225(5) 0.5376(4) 0.1060(4)
N8_15 N 0.6946(3) 0.6394(3) 0.1316(3)
C2_30 C 0.7500(6) 0.6069(5) 1.0000
N4_30 N 0.7046(9) 0.6077(5) 1.0000
C6_15 C 0.8201(4) 0.6056(3) 0.9740(4)
H4_15 H 0.8455 0.6053 0.9546
N6_15 N 0.7775(5) 0.6060(4) 0.9624(4)
O4_15 O 0.6826(4) 0.6052(3) 0.9635(3)
C1_16 C 0.3844(4) 0.8187(3) 0.1813(3)
C2_31 C 0.3931(5) 0.7500(6) 0.0000
C3_16 C 0.3944(3) 0.8201(4) 0.0260(4)
H1_16 H 0.3947 0.8455 0.0454
C4_16 C 0.3405(3) 0.8398(3) 0.1257(3)
H2_16 H 0.3240 0.8407 0.0983
Co1_16 Co 0.39500(5) 0.7500 0.10500(5)
N1_16 N 0.3940(4) 0.7775(5) 0.0376(4)
N2_16 N 0.4135(4) 0.7910(3) 0.2090(3)
N3_16 N 0.3684(3) 0.8054(3) 0.1394(3)
N4_31 N 0.3923(5) 0.7046(9) 0.0000
O1_16 O 0.3948(3) 0.6826(4) 0.0365(3)
O2_16 O 0.4259(3) 0.8065(3) 0.2462(2)
C5_16 C 0.3405(3) 0.8743(3) 0.1602(3)
H3_16 H 0.3240 0.9017 0.1593
N5_16 N 0.3684(3) 0.8606(3) 0.1946(3)
O3_16 O 0.4259(3) 0.7538(2) 0.1935(3)
N7_16 N 0.4624(4) 0.7225(5) 0.1060(4)
N8_16 N 0.3606(3) 0.6946(3) 0.1316(3)
C2_32 C 0.3931(5) 0.7500(6) 1.0000
N4_32 N 0.3923(5) 0.7046(9) 1.0000
C6_16 C 0.3944(3) 0.8201(4) 0.9740(4)
H4_16 H 0.3947 0.8455 0.9546
N6_16 N 0.3940(4) 0.7775(5) 0.9624(4)
O4_16 O 0.3948(3) 0.6826(4) 0.9635(3)
C2_33 C -0.0000 0.2500(6) 0.6069(5)
N4_33 N -0.0000 0.2954(9) 0.6077(5)
C6_17 C 0.0260(4) 0.1799(4) 0.6056(3)
H4_17 H 0.0454 0.1545 0.6053
N6_17 N 0.0376(4) 0.2225(5) 0.6060(4)
O4_17 O 0.0365(3) 0.3174(4) 0.6052(3)
Co2_9 Co 0.10500(5) 0.2500 0.60500(5)
C1_17 C 0.8187(3) 0.1813(3) 0.6156(4)
C2_34 C 1.0000 0.2500(6) 0.6069(5)
C3_17 C 0.9740(4) 0.1799(4) 0.6056(3)
H1_17 H 0.9546 0.1545 0.6053
C4_17 C 0.8743(3) 0.1602(3) 0.6595(3)
H2_17 H 0.9017 0.1593 0.6760
Co1_17 Co 0.89500(5) 0.2500 0.60500(5)
N1_17 N 0.9624(4) 0.2225(5) 0.6060(4)
N2_17 N 0.7910(3) 0.2090(3) 0.5865(4)
N3_17 N 0.8606(3) 0.1946(3) 0.6316(3)
N4_34 N 1.0000 0.2954(9) 0.6077(5)
O1_17 O 0.9635(3) 0.3174(4) 0.6052(3)
O2_17 O 0.7538(2) 0.1935(3) 0.5741(3)
C5_17 C 0.8398(3) 0.1257(3) 0.6595(3)
H3_17 H 0.8407 0.0983 0.6760
N5_17 N 0.8054(3) 0.1394(3) 0.6316(3)
O3_17 O 0.8065(3) 0.2462(2) 0.5741(3)
Co3_9 Co 0.7500 0.10500(5) 0.60500(5)
N7_17 N 0.8940(4) 0.2775(5) 0.5376(4)
N8_17 N 0.8684(3) 0.3054(3) 0.6394(3)
C1_18 C 0.8187(3) 0.1813(3) 0.3844(4)
C2_35 C 0.7500(6) 0.0000 0.3931(5)
C3_18 C 0.8201(4) 0.0260(4) 0.3944(3)
H1_18 H 0.8455 0.0454 0.3947
C4_18 C 0.8398(3) 0.1257(3) 0.3405(3)
H2_18 H 0.8407 0.0983 0.3240
Co1_18 Co 0.7500 0.10500(5) 0.39500(5)
N1_18 N 0.7775(5) 0.0376(4) 0.3940(4)
N2_18 N 0.7910(3) 0.2090(3) 0.4135(4)
N3_18 N 0.8054(3) 0.1394(3) 0.3684(3)
N4_35 N 0.7046(9) 0.0000 0.3923(5)
O1_18 O 0.6826(4) 0.0365(3) 0.3948(3)
O2_18 O 0.8065(3) 0.2462(2) 0.4259(3)
C5_18 C 0.8743(3) 0.1602(3) 0.3405(3)
H3_18 H 0.9017 0.1593 0.3240
N5_18 N 0.8606(3) 0.1946(3) 0.3684(3)
O3_18 O 0.7538(2) 0.1935(3) 0.4259(3)
Co3_10 Co 0.89500(5) 0.2500 0.39500(5)
N7_18 N 0.7225(5) 0.1060(4) 0.4624(4)
N8_18 N 0.6946(3) 0.1316(3) 0.3606(3)
C2_36 C 0.7500(6) 1.0000 0.3931(5)
N4_36 N 0.7046(9) 1.0000 0.3923(5)
C6_18 C 0.8201(4) 0.9740(4) 0.3944(3)
H4_18 H 0.8455 0.9546 0.3947
N6_18 N 0.7775(5) 0.9624(4) 0.3940(4)
O4_18 O 0.6826(4) 0.9635(3) 0.3948(3)
Co2_10 Co 0.7500 0.89500(5) 0.39500(5)
C2_37 C 0.7500(6) -0.0000 0.6069(5)
N4_37 N 0.7046(9) -0.0000 0.6077(5)
C6_19 C 0.8201(4) 0.0260(4) 0.6056(3)
H4_19 H 0.8455 0.0454 0.6053
N6_19 N 0.7775(5) 0.0376(4) 0.6060(4)
O4_19 O 0.6826(4) 0.0365(3) 0.6052(3)
C1_19 C 0.8187(3) 0.8187(3) 0.6156(4)
C2_38 C 0.7500(6) 1.0000 0.6069(5)
C3_19 C 0.8201(4) 0.9740(4) 0.6056(3)
H1_19 H 0.8455 0.9546 0.6053
C4_19 C 0.8398(3) 0.8743(3) 0.6595(3)
H2_19 H 0.8407 0.9017 0.6760
Co1_19 Co 0.7500 0.89500(5) 0.60500(5)
N1_19 N 0.7775(5) 0.9624(4) 0.6060(4)
N2_19 N 0.7910(3) 0.7910(3) 0.5865(4)
N3_19 N 0.8054(3) 0.8606(3) 0.6316(3)
N4_38 N 0.7046(9) 1.0000 0.6077(5)
O1_19 O 0.6826(4) 0.9635(3) 0.6052(3)
O2_19 O 0.8065(3) 0.7538(2) 0.5741(3)
C5_19 C 0.8743(3) 0.8398(3) 0.6595(3)
H3_19 H 0.9017 0.8407 0.6760
N5_19 N 0.8606(3) 0.8054(3) 0.6316(3)
O3_19 O 0.7538(2) 0.8065(3) 0.5741(3)
Co3_11 Co 0.89500(5) 0.7500 0.60500(5)
N7_19 N 0.7225(5) 0.8940(4) 0.5376(4)
N8_19 N 0.6946(3) 0.8684(3) 0.6394(3)
C2_39 C 0.2500(6) -0.0000 0.3931(5)
N4_39 N 0.2954(9) -0.0000 0.3923(5)
C6_20 C 0.1799(4) 0.0260(4) 0.3944(3)
H4_20 H 0.1545 0.0454 0.3947
N6_20 N 0.2225(5) 0.0376(4) 0.3940(4)
O4_20 O 0.3174(4) 0.0365(3) 0.3948(3)
Co2_11 Co 0.2500 0.10500(5) 0.39500(5)
C1_20 C 0.1813(3) 0.8187(3) 0.3844(4)
C2_40 C 0.2500(6) 1.0000 0.3931(5)
C3_20 C 0.1799(4) 0.9740(4) 0.3944(3)
H1_20 H 0.1545 0.9546 0.3947
C4_20 C 0.1602(3) 0.8743(3) 0.3405(3)
H2_20 H 0.1593 0.9017 0.3240
Co1_20 Co 0.2500 0.89500(5) 0.39500(5)
N1_20 N 0.2225(5) 0.9624(4) 0.3940(4)
N2_20 N 0.2090(3) 0.7910(3) 0.4135(4)
N3_20 N 0.1946(3) 0.8606(3) 0.3684(3)
N4_40 N 0.2954(9) 1.0000 0.3923(5)
O1_20 O 0.3174(4) 0.9635(3) 0.3948(3)
O2_20 O 0.1935(3) 0.7538(2) 0.4259(3)
C5_20 C 0.1257(3) 0.8398(3) 0.3405(3)
H3_20 H 0.0983 0.8407 0.3240
N5_20 N 0.1394(3) 0.8054(3) 0.3684(3)
O3_20 O 0.2462(2) 0.8065(3) 0.4259(3)
Co3_12 Co 0.10500(5) 0.7500 0.39500(5)
N7_20 N 0.2775(5) 0.8940(4) 0.4624(4)
N8_20 N 0.3054(3) 0.8684(3) 0.3606(3)
C1_21 C 0.1813(3) 0.1813(3) 0.6156(4)
C2_41 C 0.2500(6) 0.0000 0.6069(5)
C3_21 C 0.1799(4) 0.0260(4) 0.6056(3)
H1_21 H 0.1545 0.0454 0.6053
C4_21 C 0.1602(3) 0.1257(3) 0.6595(3)
H2_21 H 0.1593 0.0983 0.6760
Co1_21 Co 0.2500 0.10500(5) 0.60500(5)
N1_21 N 0.2225(5) 0.0376(4) 0.6060(4)
N2_21 N 0.2090(3) 0.2090(3) 0.5865(4)
N3_21 N 0.1946(3) 0.1394(3) 0.6316(3)
N4_41 N 0.2954(9) 0.0000 0.6077(5)
O1_21 O 0.3174(4) 0.0365(3) 0.6052(3)
O2_21 O 0.1935(3) 0.2462(2) 0.5741(3)
C5_21 C 0.1257(3) 0.1602(3) 0.6595(3)
H3_21 H 0.0983 0.1593 0.6760
N5_21 N 0.1394(3) 0.1946(3) 0.6316(3)
O3_21 O 0.2462(2) 0.1935(3) 0.5741(3)
N7_21 N 0.2775(5) 0.1060(4) 0.5376(4)
N8_21 N 0.3054(3) 0.1316(3) 0.6394(3)
C2_42 C 0.2500(6) 1.0000 0.6069(5)
N4_42 N 0.2954(9) 1.0000 0.6077(5)
C6_21 C 0.1799(4) 0.9740(4) 0.6056(3)
H4_21 H 0.1545 0.9546 0.6053
N6_21 N 0.2225(5) 0.9624(4) 0.6060(4)
O4_21 O 0.3174(4) 0.9635(3) 0.6052(3)
Co2_12 Co 0.2500 0.89500(5) 0.60500(5)
C2_43 C -0.0000 0.7500(6) 0.3931(5)
N4_43 N -0.0000 0.7046(9) 0.3923(5)
C6_22 C 0.0260(4) 0.8201(4) 0.3944(3)
H4_22 H 0.0454 0.8455 0.3947
N6_22 N 0.0376(4) 0.7775(5) 0.3940(4)
O4_22 O 0.0365(3) 0.6826(4) 0.3948(3)
C1_22 C 0.8187(3) 0.8187(3) 0.3844(4)
C2_44 C 1.0000 0.7500(6) 0.3931(5)
C3_22 C 0.9740(4) 0.8201(4) 0.3944(3)
H1_22 H 0.9546 0.8455 0.3947
C4_22 C 0.8743(3) 0.8398(3) 0.3405(3)
H2_22 H 0.9017 0.8407 0.3240
Co1_22 Co 0.89500(5) 0.7500 0.39500(5)
N1_22 N 0.9624(4) 0.7775(5) 0.3940(4)
N2_22 N 0.7910(3) 0.7910(3) 0.4135(4)
N3_22 N 0.8606(3) 0.8054(3) 0.3684(3)
N4_44 N 1.0000 0.7046(9) 0.3923(5)
O1_22 O 0.9635(3) 0.6826(4) 0.3948(3)
O2_22 O 0.7538(2) 0.8065(3) 0.4259(3)
C5_22 C 0.8398(3) 0.8743(3) 0.3405(3)
H3_22 H 0.8407 0.9017 0.3240
N5_22 N 0.8054(3) 0.8606(3) 0.3684(3)
O3_22 O 0.8065(3) 0.7538(2) 0.4259(3)
N7_22 N 0.8940(4) 0.7225(5) 0.4624(4)
N8_22 N 0.8684(3) 0.6946(3) 0.3606(3)
C1_23 C 0.1813(3) 0.8187(3) 0.6156(4)
C2_45 C 0.0000 0.7500(6) 0.6069(5)
C3_23 C 0.0260(4) 0.8201(4) 0.6056(3)
H1_23 H 0.0454 0.8455 0.6053
C4_23 C 0.1257(3) 0.8398(3) 0.6595(3)
H2_23 H 0.0983 0.8407 0.6760
Co1_23 Co 0.10500(5) 0.7500 0.60500(5)
N1_23 N 0.0376(4) 0.7775(5) 0.6060(4)
N2_23 N 0.2090(3) 0.7910(3) 0.5865(4)
N3_23 N 0.1394(3) 0.8054(3) 0.6316(3)
N4_45 N 0.0000 0.7046(9) 0.6077(5)
O1_23 O 0.0365(3) 0.6826(4) 0.6052(3)
O2_23 O 0.2462(2) 0.8065(3) 0.5741(3)
C5_23 C 0.1602(3) 0.8743(3) 0.6595(3)
H3_23 H 0.1593 0.9017 0.6760
N5_23 N 0.1946(3) 0.8606(3) 0.6316(3)
O3_23 O 0.1935(3) 0.7538(2) 0.5741(3)
N7_23 N 0.1060(4) 0.7225(5) 0.5376(4)
N8_23 N 0.1316(3) 0.6946(3) 0.6394(3)
C2_46 C 1.0000 0.7500(6) 0.6069(5)
N4_46 N 1.0000 0.7046(9) 0.6077(5)
C6_23 C 0.9740(4) 0.8201(4) 0.6056(3)
H4_23 H 0.9546 0.8455 0.6053
N6_23 N 0.9624(4) 0.7775(5) 0.6060(4)
O4_23 O 0.9635(3) 0.6826(4) 0.6052(3)
C1_24 C 0.1813(3) 0.1813(3) 0.3844(4)
C2_47 C 0.0000 0.2500(6) 0.3931(5)
C3_24 C 0.0260(4) 0.1799(4) 0.3944(3)
H1_24 H 0.0454 0.1545 0.3947
C4_24 C 0.1257(3) 0.1602(3) 0.3405(3)
H2_24 H 0.0983 0.1593 0.3240
Co1_24 Co 0.10500(5) 0.2500 0.39500(5)
N1_24 N 0.0376(4) 0.2225(5) 0.3940(4)
N2_24 N 0.2090(3) 0.2090(3) 0.4135(4)
N3_24 N 0.1394(3) 0.1946(3) 0.3684(3)
N4_47 N 0.0000 0.2954(9) 0.3923(5)
O1_24 O 0.0365(3) 0.3174(4) 0.3948(3)
O2_24 O 0.2462(2) 0.1935(3) 0.4259(3)
C5_24 C 0.1602(3) 0.1257(3) 0.3405(3)
H3_24 H 0.1593 0.0983 0.3240
N5_24 N 0.1946(3) 0.1394(3) 0.3684(3)
O3_24 O 0.1935(3) 0.2462(2) 0.4259(3)
N7_24 N 0.1060(4) 0.2775(5) 0.4624(4)
N8_24 N 0.1316(3) 0.3054(3) 0.3606(3)
C2_48 C 1.0000 0.2500(6) 0.3931(5)
N4_48 N 1.0000 0.2954(9) 0.3923(5)
C6_24 C 0.9740(4) 0.1799(4) 0.3944(3)
H4_24 H 0.9546 0.1545 0.3947
N6_24 N 0.9624(4) 0.2225(5) 0.3940(4)
O4_24 O 0.9635(3) 0.3174(4) 0.3948(3)
C1_25 C 0.1156(4) 0.3187(3) 0.6813(3)
C2_49 C 0.1069(5) 0.5000 0.7500(6)
C3_25 C 0.1056(3) 0.4740(4) 0.6799(4)
H1_25 H 0.1053 0.4546 0.6545
C4_25 C 0.1595(3) 0.3743(3) 0.6602(3)
H2_25 H 0.1760 0.4017 0.6593
N2_25 N 0.0865(4) 0.2910(3) 0.7090(3)
N4_49 N 0.1077(5) 0.5000 0.7954(9)
O1_25 O 0.1052(3) 0.4635(3) 0.8174(4)
O2_25 O 0.0741(3) 0.2538(2) 0.6935(3)
C5_25 C 0.1595(3) 0.3398(3) 0.6257(3)
H3_25 H 0.1760 0.3407 0.5983
N5_25 N 0.1316(3) 0.3054(3) 0.6394(3)
O3_25 O 0.0741(3) 0.3065(3) 0.7462(2)
C6_25 C 0.1056(3) 0.5260(4) 0.6799(4)
H4_25 H 0.1053 0.5454 0.6545
N6_25 N 0.1060(4) 0.5376(4) 0.7225(5)
O4_25 O 0.1052(3) 0.5365(3) 0.8174(4)
C1_26 C 0.6813(3) 0.1156(4) 0.6813(3)
C2_50 C 0.5000 0.1069(5) 0.7500(6)
C3_26 C 0.5260(4) 0.1056(3) 0.6799(4)
H1_26 H 0.5454 0.1053 0.6545
C4_26 C 0.6257(3) 0.1595(3) 0.6602(3)
H2_26 H 0.5983 0.1760 0.6593
N2_26 N 0.7090(3) 0.0865(4) 0.7090(3)
N4_50 N 0.5000 0.1077(5) 0.7954(9)
O1_26 O 0.5365(3) 0.1052(3) 0.8174(4)
O2_26 O 0.7462(2) 0.0741(3) 0.6935(3)
C5_26 C 0.6602(3) 0.1595(3) 0.6257(3)
H3_26 H 0.6593 0.1760 0.5983
N5_26 N 0.6946(3) 0.1316(3) 0.6394(3)
O3_26 O 0.6935(3) 0.0741(3) 0.7462(2)
C6_26 C 0.4740(4) 0.1056(3) 0.6799(4)
H4_26 H 0.4546 0.1053 0.6545
N6_26 N 0.4624(4) 0.1060(4) 0.7225(5)
O4_26 O 0.4635(3) 0.1052(3) 0.8174(4)
C1_27 C 0.8844(4) 0.6813(3) 0.6813(3)
C2_51 C 0.8931(5) 0.5000 0.7500(6)
C3_27 C 0.8944(3) 0.5260(4) 0.6799(4)
H1_27 H 0.8947 0.5454 0.6545
C4_27 C 0.8405(3) 0.6257(3) 0.6602(3)
H2_27 H 0.8240 0.5983 0.6593
N2_27 N 0.9135(4) 0.7090(3) 0.7090(3)
N4_51 N 0.8923(5) 0.5000 0.7954(9)
O1_27 O 0.8948(3) 0.5365(3) 0.8174(4)
O2_27 O 0.9259(3) 0.7462(2) 0.6935(3)
C5_27 C 0.8405(3) 0.6602(3) 0.6257(3)
H3_27 H 0.8240 0.6593 0.5983
N5_27 N 0.8684(3) 0.6946(3) 0.6394(3)
O3_27 O 0.9259(3) 0.6935(3) 0.7462(2)
C6_27 C 0.8944(3) 0.4740(4) 0.6799(4)
H4_27 H 0.8947 0.4546 0.6545
N6_27 N 0.8940(4) 0.4624(4) 0.7225(5)
O4_27 O 0.8948(3) 0.4635(3) 0.8174(4)
C1_28 C 0.3187(3) 0.8844(4) 0.6813(3)
C2_52 C 0.5000 0.8931(5) 0.7500(6)
C3_28 C 0.4740(4) 0.8944(3) 0.6799(4)
H1_28 H 0.4546 0.8947 0.6545
C4_28 C 0.3743(3) 0.8405(3) 0.6602(3)
H2_28 H 0.4017 0.8240 0.6593
N2_28 N 0.2910(3) 0.9135(4) 0.7090(3)
N4_52 N 0.5000 0.8923(5) 0.7954(9)
O1_28 O 0.4635(3) 0.8948(3) 0.8174(4)
O2_28 O 0.2538(2) 0.9259(3) 0.6935(3)
C5_28 C 0.3398(3) 0.8405(3) 0.6257(3)
H3_28 H 0.3407 0.8240 0.5983
N5_28 N 0.3054(3) 0.8684(3) 0.6394(3)
O3_28 O 0.3065(3) 0.9259(3) 0.7462(2)
C6_28 C 0.5260(4) 0.8944(3) 0.6799(4)
H4_28 H 0.5454 0.8947 0.6545
N6_28 N 0.5376(4) 0.8940(4) 0.7225(5)
O4_28 O 0.5365(3) 0.8948(3) 0.8174(4)
C1_29 C 0.1156(4) 0.6813(3) 0.3187(3)
C2_53 C 0.1069(5) 0.5000 0.2500(6)
C3_29 C 0.1056(3) 0.5260(4) 0.3201(4)
H1_29 H 0.1053 0.5454 0.3455
C4_29 C 0.1595(3) 0.6257(3) 0.3398(3)
H2_29 H 0.1760 0.5983 0.3407
N2_29 N 0.0865(4) 0.7090(3) 0.2910(3)
N4_53 N 0.1077(5) 0.5000 0.2046(9)
O1_29 O 0.1052(3) 0.5365(3) 0.1826(4)
O2_29 O 0.0741(3) 0.7462(2) 0.3065(3)
C5_29 C 0.1595(3) 0.6602(3) 0.3743(3)
H3_29 H 0.1760 0.6593 0.4017
N5_29 N 0.1316(3) 0.6946(3) 0.3606(3)
O3_29 O 0.0741(3) 0.6935(3) 0.2538(2)
C6_29 C 0.1056(3) 0.4740(4) 0.3201(4)
H4_29 H 0.1053 0.4546 0.3455
N6_29 N 0.1060(4) 0.4624(4) 0.2775(5)
O4_29 O 0.1052(3) 0.4635(3) 0.1826(4)
C1_30 C 0.3187(3) 0.1156(4) 0.3187(3)
C2_54 C 0.5000 0.1069(5) 0.2500(6)
C3_30 C 0.4740(4) 0.1056(3) 0.3201(4)
H1_30 H 0.4546 0.1053 0.3455
C4_30 C 0.3743(3) 0.1595(3) 0.3398(3)
H2_30 H 0.4017 0.1760 0.3407
N2_30 N 0.2910(3) 0.0865(4) 0.2910(3)
N4_54 N 0.5000 0.1077(5) 0.2046(9)
O1_30 O 0.4635(3) 0.1052(3) 0.1826(4)
O2_30 O 0.2538(2) 0.0741(3) 0.3065(3)
C5_30 C 0.3398(3) 0.1595(3) 0.3743(3)
H3_30 H 0.3407 0.1760 0.4017
N5_30 N 0.3054(3) 0.1316(3) 0.3606(3)
O3_30 O 0.3065(3) 0.0741(3) 0.2538(2)
C6_30 C 0.5260(4) 0.1056(3) 0.3201(4)
H4_30 H 0.5454 0.1053 0.3455
N6_30 N 0.5376(4) 0.1060(4) 0.2775(5)
O4_30 O 0.5365(3) 0.1052(3) 0.1826(4)
C1_31 C 0.8844(4) 0.3187(3) 0.3187(3)
C2_55 C 0.8931(5) 0.5000 0.2500(6)
C3_31 C 0.8944(3) 0.4740(4) 0.3201(4)
H1_31 H 0.8947 0.4546 0.3455
C4_31 C 0.8405(3) 0.3743(3) 0.3398(3)
H2_31 H 0.8240 0.4017 0.3407
N2_31 N 0.9135(4) 0.2910(3) 0.2910(3)
N4_55 N 0.8923(5) 0.5000 0.2046(9)
O1_31 O 0.8948(3) 0.4635(3) 0.1826(4)
O2_31 O 0.9259(3) 0.2538(2) 0.3065(3)
C5_31 C 0.8405(3) 0.3398(3) 0.3743(3)
H3_31 H 0.8240 0.3407 0.4017
N5_31 N 0.8684(3) 0.3054(3) 0.3606(3)
O3_31 O 0.9259(3) 0.3065(3) 0.2538(2)
C6_31 C 0.8944(3) 0.5260(4) 0.3201(4)
H4_31 H 0.8947 0.5454 0.3455
N6_31 N 0.8940(4) 0.5376(4) 0.2775(5)
O4_31 O 0.8948(3) 0.5365(3) 0.1826(4)
C1_32 C 0.6813(3) 0.8844(4) 0.3187(3)
C2_56 C 0.5000 0.8931(5) 0.2500(6)
C3_32 C 0.5260(4) 0.8944(3) 0.3201(4)
H1_32 H 0.5454 0.8947 0.3455
C4_32 C 0.6257(3) 0.8405(3) 0.3398(3)
H2_32 H 0.5983 0.8240 0.3407
N2_32 N 0.7090(3) 0.9135(4) 0.2910(3)
N4_56 N 0.5000 0.8923(5) 0.2046(9)
O1_32 O 0.5365(3) 0.8948(3) 0.1826(4)
O2_32 O 0.7462(2) 0.9259(3) 0.3065(3)
C5_32 C 0.6602(3) 0.8405(3) 0.3743(3)
H3_32 H 0.6593 0.8240 0.4017
N5_32 N 0.6946(3) 0.8684(3) 0.3606(3)
O3_32 O 0.6935(3) 0.9259(3) 0.2538(2)
C6_32 C 0.4740(4) 0.8944(3) 0.3201(4)
H4_32 H 0.4546 0.8947 0.3455
N6_32 N 0.4624(4) 0.8940(4) 0.2775(5)
O4_32 O 0.4635(3) 0.8948(3) 0.1826(4)
C1_33 C 0.6813(3) 0.1156(4) 0.3187(3)
C2_57 C 0.7500(6) 0.1069(5) 0.5000
C3_33 C 0.6799(4) 0.1056(3) 0.4740(4)
H1_33 H 0.6545 0.1053 0.4546
C4_33 C 0.6602(3) 0.1595(3) 0.3743(3)
H2_33 H 0.6593 0.1760 0.4017
N2_33 N 0.7090(3) 0.0865(4) 0.2910(3)
N4_57 N 0.7954(9) 0.1077(5) 0.5000
O1_33 O 0.8174(4) 0.1052(3) 0.4635(3)
O2_33 O 0.6935(3) 0.0741(3) 0.2538(2)
C5_33 C 0.6257(3) 0.1595(3) 0.3398(3)
H3_33 H 0.5983 0.1760 0.3407
N5_33 N 0.6394(3) 0.1316(3) 0.3054(3)
O3_33 O 0.7462(2) 0.0741(3) 0.3065(3)
C6_33 C 0.6799(4) 0.1056(3) 0.5260(4)
H4_33 H 0.6545 0.1053 0.5454
N6_33 N 0.7225(5) 0.1060(4) 0.5376(4)
O4_33 O 0.8174(4) 0.1052(3) 0.5365(3)
C1_34 C 0.8844(4) 0.6813(3) 0.3187(3)
C2_58 C 0.8931(5) 0.7500(6) 0.5000
C3_34 C 0.8944(3) 0.6799(4) 0.4740(4)
H1_34 H 0.8947 0.6545 0.4546
C4_34 C 0.8405(3) 0.6602(3) 0.3743(3)
H2_34 H 0.8240 0.6593 0.4017
N2_34 N 0.9135(4) 0.7090(3) 0.2910(3)
N4_58 N 0.8923(5) 0.7954(9) 0.5000
O1_34 O 0.8948(3) 0.8174(4) 0.4635(3)
O2_34 O 0.9259(3) 0.6935(3) 0.2538(2)
C5_34 C 0.8405(3) 0.6257(3) 0.3398(3)
H3_34 H 0.8240 0.5983 0.3407
N5_34 N 0.8684(3) 0.6394(3) 0.3054(3)
O3_34 O 0.9259(3) 0.7462(2) 0.3065(3)
C6_34 C 0.8944(3) 0.6799(4) 0.5260(4)
H4_34 H 0.8947 0.6545 0.5454
N6_34 N 0.8940(4) 0.7225(5) 0.5376(4)
O4_34 O 0.8948(3) 0.8174(4) 0.5365(3)
C1_35 C 0.3187(3) 0.8844(4) 0.3187(3)
C2_59 C 0.2500(6) 0.8931(5) 0.5000
C3_35 C 0.3201(4) 0.8944(3) 0.4740(4)
H1_35 H 0.3455 0.8947 0.4546
C4_35 C 0.3398(3) 0.8405(3) 0.3743(3)
H2_35 H 0.3407 0.8240 0.4017
N2_35 N 0.2910(3) 0.9135(4) 0.2910(3)
N4_59 N 0.2046(9) 0.8923(5) 0.5000
O1_35 O 0.1826(4) 0.8948(3) 0.4635(3)
O2_35 O 0.3065(3) 0.9259(3) 0.2538(2)
C5_35 C 0.3743(3) 0.8405(3) 0.3398(3)
H3_35 H 0.4017 0.8240 0.3407
N5_35 N 0.3606(3) 0.8684(3) 0.3054(3)
O3_35 O 0.2538(2) 0.9259(3) 0.3065(3)
C6_35 C 0.3201(4) 0.8944(3) 0.5260(4)
H4_35 H 0.3455 0.8947 0.5454
N6_35 N 0.2775(5) 0.8940(4) 0.5376(4)
O4_35 O 0.1826(4) 0.8948(3) 0.5365(3)
C1_36 C 0.1156(4) 0.3187(3) 0.3187(3)
C2_60 C 0.1069(5) 0.2500(6) 0.5000
C3_36 C 0.1056(3) 0.3201(4) 0.4740(4)
H1_36 H 0.1053 0.3455 0.4546
C4_36 C 0.1595(3) 0.3398(3) 0.3743(3)
H2_36 H 0.1760 0.3407 0.4017
N2_36 N 0.0865(4) 0.2910(3) 0.2910(3)
N4_60 N 0.1077(5) 0.2046(9) 0.5000
O1_36 O 0.1052(3) 0.1826(4) 0.4635(3)
O2_36 O 0.0741(3) 0.3065(3) 0.2538(2)
C5_36 C 0.1595(3) 0.3743(3) 0.3398(3)
H3_36 H 0.1760 0.4017 0.3407
N5_36 N 0.1316(3) 0.3606(3) 0.3054(3)
O3_36 O 0.0741(3) 0.2538(2) 0.3065(3)
C6_36 C 0.1056(3) 0.3201(4) 0.5260(4)
H4_36 H 0.1053 0.3455 0.5454
N6_36 N 0.1060(4) 0.2775(5) 0.5376(4)
O4_36 O 0.1052(3) 0.1826(4) 0.5365(3)
C1_37 C 0.6813(3) 0.8844(4) 0.6813(3)
C2_61 C 0.7500(6) 0.8931(5) 0.5000
C3_37 C 0.6799(4) 0.8944(3) 0.5260(4)
H1_37 H 0.6545 0.8947 0.5454
C4_37 C 0.6602(3) 0.8405(3) 0.6257(3)
H2_37 H 0.6593 0.8240 0.5983
N2_37 N 0.7090(3) 0.9135(4) 0.7090(3)
N4_61 N 0.7954(9) 0.8923(5) 0.5000
O1_37 O 0.8174(4) 0.8948(3) 0.5365(3)
O2_37 O 0.6935(3) 0.9259(3) 0.7462(2)
C5_37 C 0.6257(3) 0.8405(3) 0.6602(3)
H3_37 H 0.5983 0.8240 0.6593
N5_37 N 0.6394(3) 0.8684(3) 0.6946(3)
O3_37 O 0.7462(2) 0.9259(3) 0.6935(3)
C6_37 C 0.6799(4) 0.8944(3) 0.4740(4)
H4_37 H 0.6545 0.8947 0.4546
N6_37 N 0.7225(5) 0.8940(4) 0.4624(4)
O4_37 O 0.8174(4) 0.8948(3) 0.4635(3)
C1_38 C 0.1156(4) 0.6813(3) 0.6813(3)
C2_62 C 0.1069(5) 0.7500(6) 0.5000
C3_38 C 0.1056(3) 0.6799(4) 0.5260(4)
H1_38 H 0.1053 0.6545 0.5454
C4_38 C 0.1595(3) 0.6602(3) 0.6257(3)
H2_38 H 0.1760 0.6593 0.5983
N2_38 N 0.0865(4) 0.7090(3) 0.7090(3)
N4_62 N 0.1077(5) 0.7954(9) 0.5000
O1_38 O 0.1052(3) 0.8174(4) 0.5365(3)
O2_38 O 0.0741(3) 0.6935(3) 0.7462(2)
C5_38 C 0.1595(3) 0.6257(3) 0.6602(3)
H3_38 H 0.1760 0.5983 0.6593
N5_38 N 0.1316(3) 0.6394(3) 0.6946(3)
O3_38 O 0.0741(3) 0.7462(2) 0.6935(3)
C6_38 C 0.1056(3) 0.6799(4) 0.4740(4)
H4_38 H 0.1053 0.6545 0.4546
N6_38 N 0.1060(4) 0.7225(5) 0.4624(4)
O4_38 O 0.1052(3) 0.8174(4) 0.4635(3)
C1_39 C 0.3187(3) 0.1156(4) 0.6813(3)
C2_63 C 0.2500(6) 0.1069(5) 0.5000
C3_39 C 0.3201(4) 0.1056(3) 0.5260(4)
H1_39 H 0.3455 0.1053 0.5454
C4_39 C 0.3398(3) 0.1595(3) 0.6257(3)
H2_39 H 0.3407 0.1760 0.5983
N2_39 N 0.2910(3) 0.0865(4) 0.7090(3)
N4_63 N 0.2046(9) 0.1077(5) 0.5000
O1_39 O 0.1826(4) 0.1052(3) 0.5365(3)
O2_39 O 0.3065(3) 0.0741(3) 0.7462(2)
C5_39 C 0.3743(3) 0.1595(3) 0.6602(3)
H3_39 H 0.4017 0.1760 0.6593
N5_39 N 0.3606(3) 0.1316(3) 0.6946(3)
O3_39 O 0.2538(2) 0.0741(3) 0.6935(3)
C6_39 C 0.3201(4) 0.1056(3) 0.4740(4)
H4_39 H 0.3455 0.1053 0.4546
N6_39 N 0.2775(5) 0.1060(4) 0.4624(4)
O4_39 O 0.1826(4) 0.1052(3) 0.4635(3)
C1_40 C 0.8844(4) 0.3187(3) 0.6813(3)
C2_64 C 0.8931(5) 0.2500(6) 0.5000
C3_40 C 0.8944(3) 0.3201(4) 0.5260(4)
H1_40 H 0.8947 0.3455 0.5454
C4_40 C 0.8405(3) 0.3398(3) 0.6257(3)
H2_40 H 0.8240 0.3407 0.5983
N2_40 N 0.9135(4) 0.2910(3) 0.7090(3)
N4_64 N 0.8923(5) 0.2046(9) 0.5000
O1_40 O 0.8948(3) 0.1826(4) 0.5365(3)
O2_40 O 0.9259(3) 0.3065(3) 0.7462(2)
C5_40 C 0.8405(3) 0.3743(3) 0.6602(3)
H3_40 H 0.8240 0.4017 0.6593
N5_40 N 0.8684(3) 0.3606(3) 0.6946(3)
O3_40 O 0.9259(3) 0.2538(2) 0.6935(3)
C6_40 C 0.8944(3) 0.3201(4) 0.4740(4)
H4_40 H 0.8947 0.3455 0.4546
N6_40 N 0.8940(4) 0.2775(5) 0.4624(4)
O4_40 O 0.8948(3) 0.1826(4) 0.4635(3)
C1_41 C 0.3187(3) 0.6813(3) 0.1156(4)
C2_65 C 0.5000 0.7500(6) 0.1069(5)
C3_41 C 0.4740(4) 0.6799(4) 0.1056(3)
H1_41 H 0.4546 0.6545 0.1053
C4_41 C 0.3743(3) 0.6602(3) 0.1595(3)
H2_41 H 0.4017 0.6593 0.1760
N2_41 N 0.2910(3) 0.7090(3) 0.0865(4)
N4_65 N 0.5000 0.7954(9) 0.1077(5)
O1_41 O 0.4635(3) 0.8174(4) 0.1052(3)
O2_41 O 0.2538(2) 0.6935(3) 0.0741(3)
C5_41 C 0.3398(3) 0.6257(3) 0.1595(3)
H3_41 H 0.3407 0.5983 0.1760
N5_41 N 0.3054(3) 0.6394(3) 0.1316(3)
O3_41 O 0.3065(3) 0.7462(2) 0.0741(3)
C6_41 C 0.5260(4) 0.6799(4) 0.1056(3)
H4_41 H 0.5454 0.6545 0.1053
N6_41 N 0.5376(4) 0.7225(5) 0.1060(4)
O4_41 O 0.5365(3) 0.8174(4) 0.1052(3)
C1_42 C 0.3187(3) 0.6813(3) 0.8844(4)
C2_66 C 0.2500(6) 0.5000 0.8931(5)
C3_42 C 0.3201(4) 0.5260(4) 0.8944(3)
H1_42 H 0.3455 0.5454 0.8947
C4_42 C 0.3398(3) 0.6257(3) 0.8405(3)
H2_42 H 0.3407 0.5983 0.8240
N2_42 N 0.2910(3) 0.7090(3) 0.9135(4)
N4_66 N 0.2046(9) 0.5000 0.8923(5)
O1_42 O 0.1826(4) 0.5365(3) 0.8948(3)
O2_42 O 0.3065(3) 0.7462(2) 0.9259(3)
C5_42 C 0.3743(3) 0.6602(3) 0.8405(3)
H3_42 H 0.4017 0.6593 0.8240
N5_42 N 0.3606(3) 0.6946(3) 0.8684(3)
O3_42 O 0.2538(2) 0.6935(3) 0.9259(3)
C6_42 C 0.3201(4) 0.4740(4) 0.8944(3)
H4_42 H 0.3455 0.4546 0.8947
N6_42 N 0.2775(5) 0.4624(4) 0.8940(4)
O4_42 O 0.1826(4) 0.4635(3) 0.8948(3)
C1_43 C 0.3187(3) 0.3187(3) 0.1156(4)
C2_67 C 0.2500(6) 0.5000 0.1069(5)
C3_43 C 0.3201(4) 0.4740(4) 0.1056(3)
H1_43 H 0.3455 0.4546 0.1053
C4_43 C 0.3398(3) 0.3743(3) 0.1595(3)
H2_43 H 0.3407 0.4017 0.1760
N2_43 N 0.2910(3) 0.2910(3) 0.0865(4)
N4_67 N 0.2046(9) 0.5000 0.1077(5)
O1_43 O 0.1826(4) 0.4635(3) 0.1052(3)
O2_43 O 0.3065(3) 0.2538(2) 0.0741(3)
C5_43 C 0.3743(3) 0.3398(3) 0.1595(3)
H3_43 H 0.4017 0.3407 0.1760
N5_43 N 0.3606(3) 0.3054(3) 0.1316(3)
O3_43 O 0.2538(2) 0.3065(3) 0.0741(3)
C6_43 C 0.3201(4) 0.5260(4) 0.1056(3)
H4_43 H 0.3455 0.5454 0.1053
N6_43 N 0.2775(5) 0.5376(4) 0.1060(4)
O4_43 O 0.1826(4) 0.5365(3) 0.1052(3)
C1_44 C 0.6813(3) 0.3187(3) 0.8844(4)
C2_68 C 0.7500(6) 0.5000 0.8931(5)
C3_44 C 0.6799(4) 0.4740(4) 0.8944(3)
H1_44 H 0.6545 0.4546 0.8947
C4_44 C 0.6602(3) 0.3743(3) 0.8405(3)
H2_44 H 0.6593 0.4017 0.8240
N2_44 N 0.7090(3) 0.2910(3) 0.9135(4)
N4_68 N 0.7954(9) 0.5000 0.8923(5)
O1_44 O 0.8174(4) 0.4635(3) 0.8948(3)
O2_44 O 0.6935(3) 0.2538(2) 0.9259(3)
C5_44 C 0.6257(3) 0.3398(3) 0.8405(3)
H3_44 H 0.5983 0.3407 0.8240
N5_44 N 0.6394(3) 0.3054(3) 0.8684(3)
O3_44 O 0.7462(2) 0.3065(3) 0.9259(3)
C6_44 C 0.6799(4) 0.5260(4) 0.8944(3)
H4_44 H 0.6545 0.5454 0.8947
N6_44 N 0.7225(5) 0.5376(4) 0.8940(4)
O4_44 O 0.8174(4) 0.5365(3) 0.8948(3)
C1_45 C 0.6813(3) 0.6813(3) 0.1156(4)
C2_69 C 0.7500(6) 0.5000 0.1069(5)
C3_45 C 0.6799(4) 0.5260(4) 0.1056(3)
H1_45 H 0.6545 0.5454 0.1053
C4_45 C 0.6602(3) 0.6257(3) 0.1595(3)
H2_45 H 0.6593 0.5983 0.1760
N2_45 N 0.7090(3) 0.7090(3) 0.0865(4)
N4_69 N 0.7954(9) 0.5000 0.1077(5)
O1_45 O 0.8174(4) 0.5365(3) 0.1052(3)
O2_45 O 0.6935(3) 0.7462(2) 0.0741(3)
C5_45 C 0.6257(3) 0.6602(3) 0.1595(3)
H3_45 H 0.5983 0.6593 0.1760
N5_45 N 0.6394(3) 0.6946(3) 0.1316(3)
O3_45 O 0.7462(2) 0.6935(3) 0.0741(3)
C6_45 C 0.6799(4) 0.4740(4) 0.1056(3)
H4_45 H 0.6545 0.4546 0.1053
N6_45 N 0.7225(5) 0.4624(4) 0.1060(4)
O4_45 O 0.8174(4) 0.4635(3) 0.1052(3)
C1_46 C 0.3187(3) 0.3187(3) 0.8844(4)
C2_70 C 0.5000 0.2500(6) 0.8931(5)
C3_46 C 0.4740(4) 0.3201(4) 0.8944(3)
H1_46 H 0.4546 0.3455 0.8947
C4_46 C 0.3743(3) 0.3398(3) 0.8405(3)
H2_46 H 0.4017 0.3407 0.8240
N2_46 N 0.2910(3) 0.2910(3) 0.9135(4)
N4_70 N 0.5000 0.2046(9) 0.8923(5)
O1_46 O 0.4635(3) 0.1826(4) 0.8948(3)
O2_46 O 0.2538(2) 0.3065(3) 0.9259(3)
C5_46 C 0.3398(3) 0.3743(3) 0.8405(3)
H3_46 H 0.3407 0.4017 0.8240
N5_46 N 0.3054(3) 0.3606(3) 0.8684(3)
O3_46 O 0.3065(3) 0.2538(2) 0.9259(3)
C6_46 C 0.5260(4) 0.3201(4) 0.8944(3)
H4_46 H 0.5454 0.3455 0.8947
N6_46 N 0.5376(4) 0.2775(5) 0.8940(4)
O4_46 O 0.5365(3) 0.1826(4) 0.8948(3)
C1_47 C 0.6813(3) 0.3187(3) 0.1156(4)
C2_71 C 0.5000 0.2500(6) 0.1069(5)
C3_47 C 0.5260(4) 0.3201(4) 0.1056(3)
H1_47 H 0.5454 0.3455 0.1053
C4_47 C 0.6257(3) 0.3398(3) 0.1595(3)
H2_47 H 0.5983 0.3407 0.1760
N2_47 N 0.7090(3) 0.2910(3) 0.0865(4)
N4_71 N 0.5000 0.2046(9) 0.1077(5)
O1_47 O 0.5365(3) 0.1826(4) 0.1052(3)
O2_47 O 0.7462(2) 0.3065(3) 0.0741(3)
C5_47 C 0.6602(3) 0.3743(3) 0.1595(3)
H3_47 H 0.6593 0.4017 0.1760
N5_47 N 0.6946(3) 0.3606(3) 0.1316(3)
O3_47 O 0.6935(3) 0.2538(2) 0.0741(3)
C6_47 C 0.4740(4) 0.3201(4) 0.1056(3)
H4_47 H 0.4546 0.3455 0.1053
N6_47 N 0.4624(4) 0.2775(5) 0.1060(4)
O4_47 O 0.4635(3) 0.1826(4) 0.1052(3)
C1_48 C 0.6813(3) 0.6813(3) 0.8844(4)
C2_72 C 0.5000 0.7500(6) 0.8931(5)
C3_48 C 0.5260(4) 0.6799(4) 0.8944(3)
H1_48 H 0.5454 0.6545 0.8947
C4_48 C 0.6257(3) 0.6602(3) 0.8405(3)
H2_48 H 0.5983 0.6593 0.8240
N2_48 N 0.7090(3) 0.7090(3) 0.9135(4)
N4_72 N 0.5000 0.7954(9) 0.8923(5)
O1_48 O 0.5365(3) 0.8174(4) 0.8948(3)
O2_48 O 0.7462(2) 0.6935(3) 0.9259(3)
C5_48 C 0.6602(3) 0.6257(3) 0.8405(3)
H3_48 H 0.6593 0.5983 0.8240
N5_48 N 0.6946(3) 0.6394(3) 0.8684(3)
O3_48 O 0.6935(3) 0.7462(2) 0.9259(3)
C6_48 C 0.4740(4) 0.6799(4) 0.8944(3)
H4_48 H 0.4546 0.6545 0.8947
N6_48 N 0.4624(4) 0.7225(5) 0.8940(4)
O4_48 O 0.4635(3) 0.8174(4) 0.8948(3)
loop_
_geom_bond_atom_site_label_1
_geom_bond_atom_site_label_2
_geom_bond_site_symmetry_1
_geom_bond_site_symmetry_2
N4 C2 1_555 1_555
H4 C6 1_555 1_555
N6 C2 1_555 1_555
O4 N4 1_555 1_555
Co2 N6 1_555 1_555
C6 N6 1_555 1_555
C1 N2 1_555 1_555
C2_2 N1 1_555 1_555
C3 H1 1_555 1_555
C4 H2 1_555 1_555
Co1 N1 1_555 1_555
N1 C3 1_555 1_555
N2 O2 1_555 1_555
N3 C1 1_555 1_555
N4_2 C2_2 1_555 1_555
O1 N4_2 1_555 1_555
C5 C4 1_555 1_555
H3 C5 1_555 1_555
N5 C1 1_555 1_555
O3 N2 1_555 1_555
Co3 N5 1_555 1_555
N7 Co1 1_555 1_555
N8 Co1 1_555 1_555
C4 N3 1_555 1_555
Co1 N3 1_555 1_555
C5 N5 1_555 1_555
C1_2 N2_2 1_555 1_555
C2_3 N1_2 1_555 1_555
C3_2 H1_2 1_555 1_555
C4_2 H2_2 1_555 1_555
Co1_2 N1_2 1_555 1_555
N1_2 C3_2 1_555 1_555
N2_2 O2_2 1_555 1_555
N3_2 C1_2 1_555 1_555
N4_3 C2_3 1_555 1_555
O1_2 N4_3 1_555 1_555
C5_2 C4_2 1_555 1_555
H3_2 C5_2 1_555 1_555
N5_2 C1_2 1_555 1_555
O3_2 N2_2 1_555 1_555
Co3_2 N5_2 1_555 1_555
N7_2 Co1_2 1_555 1_555
N8_2 Co1_2 1_555 1_555
C4_2 N3_2 1_555 1_555
Co1_2 N3_2 1_555 1_555
C5_2 N5_2 1_555 1_555
N4_4 C2_4 1_555 1_555
H4_2 C6_2 1_555 1_555
N6_2 C2_4 1_555 1_555
O4_2 N4_4 1_555 1_555
Co2_2 N6_2 1_555 1_555
C6_2 N6_2 1_555 1_555
C1_3 N2_3 1_555 1_555
C2_5 N1_3 1_555 1_555
C3_3 H1_3 1_555 1_555
C4_3 H2_3 1_555 1_555
Co1_3 N1_3 1_555 1_555
N1_3 C3_3 1_555 1_555
N2_3 O2_3 1_555 1_555
N3_3 C1_3 1_555 1_555
N4_5 C2_5 1_555 1_555
O1_3 N4_5 1_555 1_555
C5_3 C4_3 1_555 1_555
H3_3 C5_3 1_555 1_555
N5_3 C1_3 1_555 1_555
O3_3 N2_3 1_555 1_555
Co3_3 N5_3 1_555 1_555
N7_3 Co1_3 1_555 1_555
N8_3 Co1_3 1_555 1_555
C4_3 N3_3 1_555 1_555
Co1_3 N3_3 1_555 1_555
C5_3 N5_3 1_555 1_555
N4_6 C2_6 1_555 1_555
H4_3 C6_3 1_555 1_555
N6_3 C2_6 1_555 1_555
O4_3 N4_6 1_555 1_555
Co2_3 N6_3 1_555 1_555
C6_3 N6_3 1_555 1_555
N4_7 C2_7 1_555 1_555
H4_4 C6_4 1_555 1_555
N6_4 C2_7 1_555 1_555
O4_4 N4_7 1_555 1_555
Co2_4 N6_4 1_555 1_555
C6_4 N6_4 1_555 1_555
C1_4 N2_4 1_555 1_555
C2_8 N1_4 1_555 1_555
C3_4 H1_4 1_555 1_555
C4_4 H2_4 1_555 1_555
Co1_4 N1_4 1_555 1_555
N1_4 C3_4 1_555 1_555
N2_4 O2_4 1_555 1_555
N3_4 C1_4 1_555 1_555
N4_8 C2_8 1_555 1_555
O1_4 N4_8 1_555 1_555
C5_4 C4_4 1_555 1_555
H3_4 C5_4 1_555 1_555
N5_4 C1_4 1_555 1_555
O3_4 N2_4 1_555 1_555
Co3_4 N5_4 1_555 1_555
N7_4 Co1_4 1_555 1_555
N8_4 Co1_4 1_555 1_555
C4_4 N3_4 1_555 1_555
Co1_4 N3_4 1_555 1_555
C5_4 N5_4 1_555 1_555
C1_5 N2_5 1_555 1_555
C2_9 N1_5 1_555 1_555
C3_5 H1_5 1_555 1_555
C4_5 H2_5 1_555 1_555
Co1_5 N1_5 1_555 1_555
N1_5 C3_5 1_555 1_555
N2_5 O2_5 1_555 1_555
N3_5 C1_5 1_555 1_555
N4_9 C2_9 1_555 1_555
O1_5 N4_9 1_555 1_555
C5_5 C4_5 1_555 1_555
H3_5 C5_5 1_555 1_555
N5_5 C1_5 1_555 1_555
O3_5 N2_5 1_555 1_555
Co3_5 N5_5 1_555 1_555
N7_5 Co1_5 1_555 1_555
N8_5 Co1_5 1_555 1_555
C4_5 N3_5 1_555 1_555
Co1_5 N3_5 1_555 1_555
C5_5 N5_5 1_555 1_555
N4_10 C2_10 1_555 1_555
H4_5 C6_5 1_555 1_555
N6_5 C2_10 1_555 1_555
O4_5 N4_10 1_555 1_555
Co2_5 N6_5 1_555 1_555
C6_5 N6_5 1_555 1_555
N4_11 C2_11 1_555 1_555
H4_6 C6_6 1_555 1_555
N6_6 C2_11 1_555 1_555
O4_6 N4_11 1_555 1_555
Co2_6 N6_6 1_555 1_555
C6_6 N6_6 1_555 1_555
C1_6 N2_6 1_555 1_555
C2_12 N1_6 1_555 1_555
C3_6 H1_6 1_555 1_555
C4_6 H2_6 1_555 1_555
Co1_6 N1_6 1_555 1_555
N1_6 C3_6 1_555 1_555
N2_6 O2_6 1_555 1_555
N3_6 C1_6 1_555 1_555
N4_12 C2_12 1_555 1_555
O1_6 N4_12 1_555 1_555
C5_6 C4_6 1_555 1_555
H3_6 C5_6 1_555 1_555
N5_6 C1_6 1_555 1_555
O3_6 N2_6 1_555 1_555
Co3_6 N5_6 1_555 1_555
N7_6 Co1_6 1_555 1_555
N8_6 Co1_6 1_555 1_555
C4_6 N3_6 1_555 1_555
Co1_6 N3_6 1_555 1_555
C5_6 N5_6 1_555 1_555
N4_13 C2_13 1_555 1_555
H4_7 C6_7 1_555 1_555
N6_7 C2_13 1_555 1_555
O4_7 N4_13 1_555 1_555
Co2_7 N6_7 1_555 1_555
C6_7 N6_7 1_555 1_555
C1_7 N2_7 1_555 1_555
C2_14 N1_7 1_555 1_555
C3_7 H1_7 1_555 1_555
C4_7 H2_7 1_555 1_555
Co1_7 N1_7 1_555 1_555
N1_7 C3_7 1_555 1_555
N2_7 O2_7 1_555 1_555
N3_7 C1_7 1_555 1_555
N4_14 C2_14 1_555 1_555
O1_7 N4_14 1_555 1_555
C5_7 C4_7 1_555 1_555
H3_7 C5_7 1_555 1_555
N5_7 C1_7 1_555 1_555
O3_7 N2_7 1_555 1_555
Co3_7 N5_7 1_555 1_555
N7_7 Co1_7 1_555 1_555
N8_7 Co1_7 1_555 1_555
C4_7 N3_7 1_555 1_555
Co1_7 N3_7 1_555 1_555
C5_7 N5_7 1_555 1_555
C1_8 N2_8 1_555 1_555
C2_15 N1_8 1_555 1_555
C3_8 H1_8 1_555 1_555
C4_8 H2_8 1_555 1_555
Co1_8 N1_8 1_555 1_555
N1_8 C3_8 1_555 1_555
N2_8 O2_8 1_555 1_555
N3_8 C1_8 1_555 1_555
N4_15 C2_15 1_555 1_555
O1_8 N4_15 1_555 1_555
C5_8 C4_8 1_555 1_555
H3_8 C5_8 1_555 1_555
N5_8 C1_8 1_555 1_555
O3_8 N2_8 1_555 1_555
Co3_8 N5_8 1_555 1_555
N7_8 Co1_8 1_555 1_555
N8_8 Co1_8 1_555 1_555
C4_8 N3_8 1_555 1_555
Co1_8 N3_8 1_555 1_555
C5_8 N5_8 1_555 1_555
N4_16 C2_16 1_555 1_555
H4_8 C6_8 1_555 1_555
N6_8 C2_16 1_555 1_555
O4_8 N4_16 1_555 1_555
Co2_8 N6_8 1_555 1_555
C6_8 N6_8 1_555 1_555
N4_17 C2_17 1_555 1_555
H4_9 C6_9 1_555 1_555
N6_9 C2_17 1_555 1_555
O4_9 N4_17 1_555 1_555
Co3_2 N6_9 1_555 1_555
C6_9 N6_9 1_555 1_555
C1_9 N2_9 1_555 1_555
C2_18 N1_9 1_555 1_555
C3_9 H1_9 1_555 1_555
C4_9 H2_9 1_555 1_555
Co1_9 N1_9 1_555 1_555
N1_9 C3_9 1_555 1_555
N2_9 O2_9 1_555 1_555
N3_9 C1_9 1_555 1_555
N4_18 C2_18 1_555 1_555
O1_9 N4_18 1_555 1_555
C5_9 C4_9 1_555 1_555
H3_9 C5_9 1_555 1_555
N5_9 C1_9 1_555 1_555
O3_9 N2_9 1_555 1_555
Co2_6 N5_9 1_555 1_555
N7_9 Co1_9 1_555 1_555
N8_9 Co1_9 1_555 1_555
C4_9 N3_9 1_555 1_555
Co1_9 N3_9 1_555 1_555
C5_9 N5_9 1_555 1_555
N4_19 C2_19 1_555 1_555
H4_10 C6_10 1_555 1_555
N6_10 C2_19 1_555 1_555
O4_10 N4_19 1_555 1_555
Co3_3 N6_10 1_555 1_555
C6_10 N6_10 1_555 1_555
C1_10 N2_10 1_555 1_555
C2_20 N1_10 1_555 1_555
C3_10 H1_10 1_555 1_555
C4_10 H2_10 1_555 1_555
Co1_10 N1_10 1_555 1_555
N1_10 C3_10 1_555 1_555
N2_10 O2_10 1_555 1_555
N3_10 C1_10 1_555 1_555
N4_20 C2_20 1_555 1_555
O1_10 N4_20 1_555 1_555
C5_10 C4_10 1_555 1_555
H3_10 C5_10 1_555 1_555
N5_10 C1_10 1_555 1_555
O3_10 N2_10 1_555 1_555
Co2_7 N5_10 1_555 1_555
N7_10 Co1_10 1_555 1_555
N8_10 Co1_10 1_555 1_555
C4_10 N3_10 1_555 1_555
Co1_10 N3_10 1_555 1_555
C5_10 N5_10 1_555 1_555
N4_21 C2_21 1_555 1_555
H4_11 C6_11 1_555 1_555
N6_11 C2_21 1_555 1_555
O4_11 N4_21 1_555 1_555
Co3_4 N6_11 1_555 1_555
C6_11 N6_11 1_555 1_555
C1_11 N2_11 1_555 1_555
C2_22 N1_11 1_555 1_555
C3_11 H1_11 1_555 1_555
C4_11 H2_11 1_555 1_555
Co1_11 N1_11 1_555 1_555
N1_11 C3_11 1_555 1_555
N2_11 O2_11 1_555 1_555
N3_11 C1_11 1_555 1_555
N4_22 C2_22 1_555 1_555
O1_11 N4_22 1_555 1_555
C5_11 C4_11 1_555 1_555
H3_11 C5_11 1_555 1_555
N5_11 C1_11 1_555 1_555
O3_11 N2_11 1_555 1_555
Co2_8 N5_11 1_555 1_555
N7_11 Co1_11 1_555 1_555
N8_11 Co1_11 1_555 1_555
C4_11 N3_11 1_555 1_555
Co1_11 N3_11 1_555 1_555
C5_11 N5_11 1_555 1_555
N4_23 C2_23 1_555 1_555
H4_12 C6_12 1_555 1_555
N6_12 C2_23 1_555 1_555
O4_12 N4_23 1_555 1_555
Co3 N6_12 1_555 1_555
C6_12 N6_12 1_555 1_555
C1_12 N2_12 1_555 1_555
C2_24 N1_12 1_555 1_555
C3_12 H1_12 1_555 1_555
C4_12 H2_12 1_555 1_555
Co1_12 N1_12 1_555 1_555
N1_12 C3_12 1_555 1_555
N2_12 O2_12 1_555 1_555
N3_12 C1_12 1_555 1_555
N4_24 C2_24 1_555 1_555
O1_12 N4_24 1_555 1_555
C5_12 C4_12 1_555 1_555
H3_12 C5_12 1_555 1_555
N5_12 C1_12 1_555 1_555
O3_12 N2_12 1_555 1_555
Co2_5 N5_12 1_555 1_555
N7_12 Co1_12 1_555 1_555
N8_12 Co1_12 1_555 1_555
C4_12 N3_12 1_555 1_555
Co1_12 N3_12 1_555 1_555
C5_12 N5_12 1_555 1_555
C1_13 N2_13 1_555 1_555
C2_25 N1_13 1_555 1_555
C3_13 H1_13 1_555 1_555
C4_13 H2_13 1_555 1_555
Co1_13 N1_13 1_555 1_555
N1_13 C3_13 1_555 1_555
N2_13 O2_13 1_555 1_555
N3_13 C1_13 1_555 1_555
N4_25 C2_25 1_555 1_555
O1_13 N4_25 1_555 1_555
C5_13 C4_13 1_555 1_555
H3_13 C5_13 1_555 1_555
N5_13 C1_13 1_555 1_555
O3_13 N2_13 1_555 1_555
Co2_4 N5_13 1_555 1_555
N7_13 Co1_13 1_555 1_555
N8_13 Co1_13 1_555 1_555
C4_13 N3_13 1_555 1_555
Co1_13 N3_13 1_555 1_555
C5_13 N5_13 1_555 1_555
N4_26 C2_26 1_555 1_555
H4_13 C6_13 1_555 1_555
N6_13 C2_26 1_555 1_555
O4_13 N4_26 1_555 1_555
Co3_8 N6_13 1_555 1_555
C6_13 N6_13 1_555 1_555
C1_14 N2_14 1_555 1_555
C2_27 N1_14 1_555 1_555
C3_14 H1_14 1_555 1_555
C4_14 H2_14 1_555 1_555
Co1_14 N1_14 1_555 1_555
N1_14 C3_14 1_555 1_555
N2_14 O2_14 1_555 1_555
N3_14 C1_14 1_555 1_555
N4_27 C2_27 1_555 1_555
O1_14 N4_27 1_555 1_555
C5_14 C4_14 1_555 1_555
H3_14 C5_14 1_555 1_555
N5_14 C1_14 1_555 1_555
O3_14 N2_14 1_555 1_555
Co2 N5_14 1_555 1_555
N7_14 Co1_14 1_555 1_555
N8_14 Co1_14 1_555 1_555
C4_14 N3_14 1_555 1_555
Co1_14 N3_14 1_555 1_555
C5_14 N5_14 1_555 1_555
N4_28 C2_28 1_555 1_555
H4_14 C6_14 1_555 1_555
N6_14 C2_28 1_555 1_555
O4_14 N4_28 1_555 1_555
Co3_5 N6_14 1_555 1_555
C6_14 N6_14 1_555 1_555
C1_15 N2_15 1_555 1_555
C2_29 N1_15 1_555 1_555
C3_15 H1_15 1_555 1_555
C4_15 H2_15 1_555 1_555
Co1_15 N1_15 1_555 1_555
N1_15 C3_15 1_555 1_555
N2_15 O2_15 1_555 1_555
N3_15 C1_15 1_555 1_555
N4_29 C2_29 1_555 1_555
O1_15 N4_29 1_555 1_555
C5_15 C4_15 1_555 1_555
H3_15 C5_15 1_555 1_555
N5_15 C1_15 1_555 1_555
O3_15 N2_15 1_555 1_555
Co2_2 N5_15 1_555 1_555
N7_15 Co1_15 1_555 1_555
N8_15 Co1_15 1_555 1_555
C4_15 N3_15 1_555 1_555
Co1_15 N3_15 1_555 1_555
C5_15 N5_15 1_555 1_555
N4_30 C2_30 1_555 1_555
H4_15 C6_15 1_555 1_555
N6_15 C2_30 1_555 1_555
O4_15 N4_30 1_555 1_555
Co3_6 N6_15 1_555 1_555
C6_15 N6_15 1_555 1_555
C1_16 N2_16 1_555 1_555
C2_31 N1_16 1_555 1_555
C3_16 H1_16 1_555 1_555
C4_16 H2_16 1_555 1_555
Co1_16 N1_16 1_555 1_555
N1_16 C3_16 1_555 1_555
N2_16 O2_16 1_555 1_555
N3_16 C1_16 1_555 1_555
N4_31 C2_31 1_555 1_555
O1_16 N4_31 1_555 1_555
C5_16 C4_16 1_555 1_555
H3_16 C5_16 1_555 1_555
N5_16 C1_16 1_555 1_555
O3_16 N2_16 1_555 1_555
Co2_3 N5_16 1_555 1_555
N7_16 Co1_16 1_555 1_555
N8_16 Co1_16 1_555 1_555
C4_16 N3_16 1_555 1_555
Co1_16 N3_16 1_555 1_555
C5_16 N5_16 1_555 1_555
N4_32 C2_32 1_555 1_555
H4_16 C6_16 1_555 1_555
N6_16 C2_32 1_555 1_555
O4_16 N4_32 1_555 1_555
Co3_7 N6_16 1_555 1_555
C6_16 N6_16 1_555 1_555
N4_33 C2_33 1_555 1_555
H4_17 C6_17 1_555 1_555
N6_17 C2_33 1_555 1_555
O4_17 N4_33 1_555 1_555
Co2_9 N6_17 1_555 1_555
C6_17 N6_17 1_555 1_555
C1_17 N2_17 1_555 1_555
C2_34 N1_17 1_555 1_555
C3_17 H1_17 1_555 1_555
C4_17 H2_17 1_555 1_555
Co1_17 N1_17 1_555 1_555
N1_17 C3_17 1_555 1_555
N2_17 O2_17 1_555 1_555
N3_17 C1_17 1_555 1_555
N4_34 C2_34 1_555 1_555
O1_17 N4_34 1_555 1_555
C5_17 C4_17 1_555 1_555
H3_17 C5_17 1_555 1_555
N5_17 C1_17 1_555 1_555
O3_17 N2_17 1_555 1_555
Co3_9 N5_17 1_555 1_555
N7_17 Co1_17 1_555 1_555
N8_17 Co1_17 1_555 1_555
C4_17 N3_17 1_555 1_555
Co1_17 N3_17 1_555 1_555
C5_17 N5_17 1_555 1_555
C1_18 N2_18 1_555 1_555
C2_35 N1_18 1_555 1_555
C3_18 H1_18 1_555 1_555
C4_18 H2_18 1_555 1_555
Co1_18 N1_18 1_555 1_555
N1_18 C3_18 1_555 1_555
N2_18 O2_18 1_555 1_555
N3_18 C1_18 1_555 1_555
N4_35 C2_35 1_555 1_555
O1_18 N4_35 1_555 1_555
C5_18 C4_18 1_555 1_555
H3_18 C5_18 1_555 1_555
N5_18 C1_18 1_555 1_555
O3_18 N2_18 1_555 1_555
Co3_10 N5_18 1_555 1_555
N7_18 Co1_18 1_555 1_555
N8_18 Co1_18 1_555 1_555
C4_18 N3_18 1_555 1_555
Co1_18 N3_18 1_555 1_555
C5_18 N5_18 1_555 1_555
N4_36 C2_36 1_555 1_555
H4_18 C6_18 1_555 1_555
N6_18 C2_36 1_555 1_555
O4_18 N4_36 1_555 1_555
Co2_10 N6_18 1_555 1_555
C6_18 N6_18 1_555 1_555
N4_37 C2_37 1_555 1_555
H4_19 C6_19 1_555 1_555
N6_19 C2_37 1_555 1_555
O4_19 N4_37 1_555 1_555
Co3_9 N6_19 1_555 1_555
C6_19 N6_19 1_555 1_555
C1_19 N2_19 1_555 1_555
C2_38 N1_19 1_555 1_555
C3_19 H1_19 1_555 1_555
C4_19 H2_19 1_555 1_555
Co1_19 N1_19 1_555 1_555
N1_19 C3_19 1_555 1_555
N2_19 O2_19 1_555 1_555
N3_19 C1_19 1_555 1_555
N4_38 C2_38 1_555 1_555
O1_19 N4_38 1_555 1_555
C5_19 C4_19 1_555 1_555
H3_19 C5_19 1_555 1_555
N5_19 C1_19 1_555 1_555
O3_19 N2_19 1_555 1_555
Co3_11 N5_19 1_555 1_555
N7_19 Co1_19 1_555 1_555
N8_19 Co1_19 1_555 1_555
C4_19 N3_19 1_555 1_555
Co1_19 N3_19 1_555 1_555
C5_19 N5_19 1_555 1_555
N4_39 C2_39 1_555 1_555
H4_20 C6_20 1_555 1_555
N6_20 C2_39 1_555 1_555
O4_20 N4_39 1_555 1_555
Co2_11 N6_20 1_555 1_555
C6_20 N6_20 1_555 1_555
C1_20 N2_20 1_555 1_555
C2_40 N1_20 1_555 1_555
C3_20 H1_20 1_555 1_555
C4_20 H2_20 1_555 1_555
Co1_20 N1_20 1_555 1_555
N1_20 C3_20 1_555 1_555
N2_20 O2_20 1_555 1_555
N3_20 C1_20 1_555 1_555
N4_40 C2_40 1_555 1_555
O1_20 N4_40 1_555 1_555
C5_20 C4_20 1_555 1_555
H3_20 C5_20 1_555 1_555
N5_20 C1_20 1_555 1_555
O3_20 N2_20 1_555 1_555
Co3_12 N5_20 1_555 1_555
N7_20 Co1_20 1_555 1_555
N8_20 Co1_20 1_555 1_555
C4_20 N3_20 1_555 1_555
Co1_20 N3_20 1_555 1_555
C5_20 N5_20 1_555 1_555
C1_21 N2_21 1_555 1_555
C2_41 N1_21 1_555 1_555
C3_21 H1_21 1_555 1_555
C4_21 H2_21 1_555 1_555
Co1_21 N1_21 1_555 1_555
N1_21 C3_21 1_555 1_555
N2_21 O2_21 1_555 1_555
N3_21 C1_21 1_555 1_555
N4_41 C2_41 1_555 1_555
O1_21 N4_41 1_555 1_555
C5_21 C4_21 1_555 1_555
H3_21 C5_21 1_555 1_555
N5_21 C1_21 1_555 1_555
O3_21 N2_21 1_555 1_555
Co2_9 N5_21 1_555 1_555
N7_21 Co1_21 1_555 1_555
N8_21 Co1_21 1_555 1_555
C4_21 N3_21 1_555 1_555
Co1_21 N3_21 1_555 1_555
C5_21 N5_21 1_555 1_555
N4_42 C2_42 1_555 1_555
H4_21 C6_21 1_555 1_555
N6_21 C2_42 1_555 1_555
O4_21 N4_42 1_555 1_555
Co2_12 N6_21 1_555 1_555
C6_21 N6_21 1_555 1_555
N4_43 C2_43 1_555 1_555
H4_22 C6_22 1_555 1_555
N6_22 C2_43 1_555 1_555
O4_22 N4_43 1_555 1_555
Co3_12 N6_22 1_555 1_555
C6_22 N6_22 1_555 1_555
C1_22 N2_22 1_555 1_555
C2_44 N1_22 1_555 1_555
C3_22 H1_22 1_555 1_555
C4_22 H2_22 1_555 1_555
Co1_22 N1_22 1_555 1_555
N1_22 C3_22 1_555 1_555
N2_22 O2_22 1_555 1_555
N3_22 C1_22 1_555 1_555
N4_44 C2_44 1_555 1_555
O1_22 N4_44 1_555 1_555
C5_22 C4_22 1_555 1_555
H3_22 C5_22 1_555 1_555
N5_22 C1_22 1_555 1_555
O3_22 N2_22 1_555 1_555
Co2_10 N5_22 1_555 1_555
N7_22 Co1_22 1_555 1_555
N8_22 Co1_22 1_555 1_555
C4_22 N3_22 1_555 1_555
Co1_22 N3_22 1_555 1_555
C5_22 N5_22 1_555 1_555
C1_23 N2_23 1_555 1_555
C2_45 N1_23 1_555 1_555
C3_23 H1_23 1_555 1_555
C4_23 H2_23 1_555 1_555
Co1_23 N1_23 1_555 1_555
N1_23 C3_23 1_555 1_555
N2_23 O2_23 1_555 1_555
N3_23 C1_23 1_555 1_555
N4_45 C2_45 1_555 1_555
O1_23 N4_45 1_555 1_555
C5_23 C4_23 1_555 1_555
H3_23 C5_23 1_555 1_555
N5_23 C1_23 1_555 1_555
O3_23 N2_23 1_555 1_555
Co2_12 N5_23 1_555 1_555
N7_23 Co1_23 1_555 1_555
N8_23 Co1_23 1_555 1_555
C4_23 N3_23 1_555 1_555
Co1_23 N3_23 1_555 1_555
C5_23 N5_23 1_555 1_555
N4_46 C2_46 1_555 1_555
H4_23 C6_23 1_555 1_555
N6_23 C2_46 1_555 1_555
O4_23 N4_46 1_555 1_555
Co3_11 N6_23 1_555 1_555
C6_23 N6_23 1_555 1_555
C1_24 N2_24 1_555 1_555
C2_47 N1_24 1_555 1_555
C3_24 H1_24 1_555 1_555
C4_24 H2_24 1_555 1_555
Co1_24 N1_24 1_555 1_555
N1_24 C3_24 1_555 1_555
N2_24 O2_24 1_555 1_555
N3_24 C1_24 1_555 1_555
N4_47 C2_47 1_555 1_555
O1_24 N4_47 1_555 1_555
C5_24 C4_24 1_555 1_555
H3_24 C5_24 1_555 1_555
N5_24 C1_24 1_555 1_555
O3_24 N2_24 1_555 1_555
Co2_11 N5_24 1_555 1_555
N7_24 Co1_24 1_555 1_555
N8_24 Co1_24 1_555 1_555
C4_24 N3_24 1_555 1_555
Co1_24 N3_24 1_555 1_555
C5_24 N5_24 1_555 1_555
N4_48 C2_48 1_555 1_555
H4_24 C6_24 1_555 1_555
N6_24 C2_48 1_555 1_555
O4_24 N4_48 1_555 1_555
Co3_10 N6_24 1_555 1_555
C6_24 N6_24 1_555 1_555
C1_25 N2_25 1_555 1_555
C2_49 N7_8 1_555 1_555
C3_25 H1_25 1_555 1_555
C4_25 H2_25 1_555 1_555
N7_8 C3_25 1_555 1_555
N2_25 O2_25 1_555 1_555
N8_8 C1_25 1_555 1_555
N4_49 C2_49 1_555 1_555
O1_25 N4_49 1_555 1_555
C5_25 C4_25 1_555 1_555
H3_25 C5_25 1_555 1_555
N5_25 C1_25 1_555 1_555
O3_25 N2_25 1_555 1_555
C6_25 C3_25 1_555 1_555
H4_25 C6_25 1_555 1_555
N6_25 C2_49 1_555 1_555
O4_25 N4_49 1_555 1_555
Co2_6 N6_25 1_555 1_555
Co2_9 N5_25 1_555 1_555
C4_25 N8_8 1_555 1_555
C5_25 N5_25 1_555 1_555
C6_25 N6_25 1_555 1_555
C1_26 N2_26 1_555 1_555
C2_50 N7_5 1_555 1_555
C3_26 H1_26 1_555 1_555
C4_26 H2_26 1_555 1_555
N7_5 C3_26 1_555 1_555
N2_26 O2_26 1_555 1_555
N8_5 C1_26 1_555 1_555
N4_50 C2_50 1_555 1_555
O1_26 N4_50 1_555 1_555
C5_26 C4_26 1_555 1_555
H3_26 C5_26 1_555 1_555
N5_26 C1_26 1_555 1_555
O3_26 N2_26 1_555 1_555
C6_26 C3_26 1_555 1_555
H4_26 C6_26 1_555 1_555
N6_26 C2_50 1_555 1_555
O4_26 N4_50 1_555 1_555
Co2_7 N6_26 1_555 1_555
Co3_9 N5_26 1_555 1_555
C4_26 N8_5 1_555 1_555
C5_26 N5_26 1_555 1_555
C6_26 N6_26 1_555 1_555
C1_27 N2_27 1_555 1_555
C2_51 N7_6 1_555 1_555
C3_27 H1_27 1_555 1_555
C4_27 H2_27 1_555 1_555
N7_6 C3_27 1_555 1_555
N2_27 O2_27 1_555 1_555
N8_6 C1_27 1_555 1_555
N4_51 C2_51 1_555 1_555
O1_27 N4_51 1_555 1_555
C5_27 C4_27 1_555 1_555
H3_27 C5_27 1_555 1_555
N5_27 C1_27 1_555 1_555
O3_27 N2_27 1_555 1_555
C6_27 C3_27 1_555 1_555
H4_27 C6_27 1_555 1_555
N6_27 C2_51 1_555 1_555
O4_27 N4_51 1_555 1_555
Co2_8 N6_27 1_555 1_555
Co3_11 N5_27 1_555 1_555
C4_27 N8_6 1_555 1_555
C5_27 N5_27 1_555 1_555
C6_27 N6_27 1_555 1_555
C1_28 N2_28 1_555 1_555
C2_52 N7_7 1_555 1_555
C3_28 H1_28 1_555 1_555
C4_28 H2_28 1_555 1_555
N7_7 C3_28 1_555 1_555
N2_28 O2_28 1_555 1_555
N8_7 C1_28 1_555 1_555
N4_52 C2_52 1_555 1_555
O1_28 N4_52 1_555 1_555
C5_28 C4_28 1_555 1_555
H3_28 C5_28 1_555 1_555
N5_28 C1_28 1_555 1_555
O3_28 N2_28 1_555 1_555
C6_28 C3_28 1_555 1_555
H4_28 C6_28 1_555 1_555
N6_28 C2_52 1_555 1_555
O4_28 N4_52 1_555 1_555
Co2_5 N6_28 1_555 1_555
Co2_12 N5_28 1_555 1_555
C4_28 N8_7 1_555 1_555
C5_28 N5_28 1_555 1_555
C6_28 N6_28 1_555 1_555
C1_29 N2_29 1_555 1_555
C2_53 N7_2 1_555 1_555
C3_29 H1_29 1_555 1_555
C4_29 H2_29 1_555 1_555
N7_2 C3_29 1_555 1_555
N2_29 O2_29 1_555 1_555
N8_2 C1_29 1_555 1_555
N4_53 C2_53 1_555 1_555
O1_29 N4_53 1_555 1_555
C5_29 C4_29 1_555 1_555
H3_29 C5_29 1_555 1_555
N5_29 C1_29 1_555 1_555
O3_29 N2_29 1_555 1_555
C6_29 C3_29 1_555 1_555
H4_29 C6_29 1_555 1_555
N6_29 C2_53 1_555 1_555
O4_29 N4_53 1_555 1_555
Co2_4 N6_29 1_555 1_555
Co3_12 N5_29 1_555 1_555
C4_29 N8_2 1_555 1_555
C5_29 N5_29 1_555 1_555
C6_29 N6_29 1_555 1_555
C1_30 N2_30 1_555 1_555
C2_54 N7_3 1_555 1_555
C3_30 H1_30 1_555 1_555
C4_30 H2_30 1_555 1_555
N7_3 C3_30 1_555 1_555
N2_30 O2_30 1_555 1_555
N8_3 C1_30 1_555 1_555
N4_54 C2_54 1_555 1_555
O1_30 N4_54 1_555 1_555
C5_30 C4_30 1_555 1_555
H3_30 C5_30 1_555 1_555
N5_30 C1_30 1_555 1_555
O3_30 N2_30 1_555 1_555
C6_30 C3_30 1_555 1_555
H4_30 C6_30 1_555 1_555
N6_30 C2_54 1_555 1_555
O4_30 N4_54 1_555 1_555
Co2 N6_30 1_555 1_555
Co2_11 N5_30 1_555 1_555
C4_30 N8_3 1_555 1_555
C5_30 N5_30 1_555 1_555
C6_30 N6_30 1_555 1_555
C1_31 N2_31 1_555 1_555
C2_55 N7_4 1_555 1_555
C3_31 H1_31 1_555 1_555
C4_31 H2_31 1_555 1_555
N7_4 C3_31 1_555 1_555
N2_31 O2_31 1_555 1_555
N8_4 C1_31 1_555 1_555
N4_55 C2_55 1_555 1_555
O1_31 N4_55 1_555 1_555
C5_31 C4_31 1_555 1_555
H3_31 C5_31 1_555 1_555
N5_31 C1_31 1_555 1_555
O3_31 N2_31 1_555 1_555
C6_31 C3_31 1_555 1_555
H4_31 C6_31 1_555 1_555
N6_31 C2_55 1_555 1_555
O4_31 N4_55 1_555 1_555
Co2_2 N6_31 1_555 1_555
Co3_10 N5_31 1_555 1_555
C4_31 N8_4 1_555 1_555
C5_31 N5_31 1_555 1_555
C6_31 N6_31 1_555 1_555
C1_32 N2_32 1_555 1_555
C2_56 N7 1_555 1_555
C3_32 H1_32 1_555 1_555
C4_32 H2_32 1_555 1_555
N7 C3_32 1_555 1_555
N2_32 O2_32 1_555 1_555
N8 C1_32 1_555 1_555
N4_56 C2_56 1_555 1_555
O1_32 N4_56 1_555 1_555
C5_32 C4_32 1_555 1_555
H3_32 C5_32 1_555 1_555
N5_32 C1_32 1_555 1_555
O3_32 N2_32 1_555 1_555
C6_32 C3_32 1_555 1_555
H4_32 C6_32 1_555 1_555
N6_32 C2_56 1_555 1_555
O4_32 N4_56 1_555 1_555
Co2_3 N6_32 1_555 1_555
Co2_10 N5_32 1_555 1_555
C4_32 N8 1_555 1_555
C5_32 N5_32 1_555 1_555
C6_32 N6_32 1_555 1_555
C1_33 N2_33 1_555 1_555
C2_57 N7_18 1_555 1_555
C3_33 H1_33 1_555 1_555
C4_33 H2_33 1_555 1_555
N7_18 C3_33 1_555 1_555
N2_33 O2_33 1_555 1_555
N8_18 C1_33 1_555 1_555
N4_57 C2_57 1_555 1_555
O1_33 N4_57 1_555 1_555
C5_33 C4_33 1_555 1_555
H3_33 C5_33 1_555 1_555
N5_33 C1_33 1_555 1_555
O3_33 N2_33 1_555 1_555
C6_33 C3_33 1_555 1_555
H4_33 C6_33 1_555 1_555
N6_33 C2_57 1_555 1_555
O4_33 N4_57 1_555 1_555
Co3_9 N6_33 1_555 1_555
Co2 N5_33 1_555 1_555
C4_33 N8_18 1_555 1_555
C5_33 N5_33 1_555 1_555
C6_33 N6_33 1_555 1_555
C1_34 N2_34 1_555 1_555
C2_58 N7_22 1_555 1_555
C3_34 H1_34 1_555 1_555
C4_34 H2_34 1_555 1_555
N7_22 C3_34 1_555 1_555
N2_34 O2_34 1_555 1_555
N8_22 C1_34 1_555 1_555
N4_58 C2_58 1_555 1_555
O1_34 N4_58 1_555 1_555
C5_34 C4_34 1_555 1_555
H3_34 C5_34 1_555 1_555
N5_34 C1_34 1_555 1_555
O3_34 N2_34 1_555 1_555
C6_34 C3_34 1_555 1_555
H4_34 C6_34 1_555 1_555
N6_34 C2_58 1_555 1_555
O4_34 N4_58 1_555 1_555
Co3_11 N6_34 1_555 1_555
Co2_2 N5_34 1_555 1_555
C4_34 N8_22 1_555 1_555
C5_34 N5_34 1_555 1_555
C6_34 N6_34 1_555 1_555
C1_35 N2_35 1_555 1_555
C2_59 N7_20 1_555 1_555
C3_35 H1_35 1_555 1_555
C4_35 H2_35 1_555 1_555
N7_20 C3_35 1_555 1_555
N2_35 O2_35 1_555 1_555
N8_20 C1_35 1_555 1_555
N4_59 C2_59 1_555 1_555
O1_35 N4_59 1_555 1_555
C5_35 C4_35 1_555 1_555
H3_35 C5_35 1_555 1_555
N5_35 C1_35 1_555 1_555
O3_35 N2_35 1_555 1_555
C6_35 C3_35 1_555 1_555
H4_35 C6_35 1_555 1_555
N6_35 C2_59 1_555 1_555
O4_35 N4_59 1_555 1_555
Co2_12 N6_35 1_555 1_555
Co2_3 N5_35 1_555 1_555
C4_35 N8_20 1_555 1_555
C5_35 N5_35 1_555 1_555
C6_35 N6_35 1_555 1_555
C1_36 N2_36 1_555 1_555
C2_60 N7_24 1_555 1_555
C3_36 H1_36 1_555 1_555
C4_36 H2_36 1_555 1_555
N7_24 C3_36 1_555 1_555
N2_36 O2_36 1_555 1_555
N8_24 C1_36 1_555 1_555
N4_60 C2_60 1_555 1_555
O1_36 N4_60 1_555 1_555
C5_36 C4_36 1_555 1_555
H3_36 C5_36 1_555 1_555
N5_36 C1_36 1_555 1_555
O3_36 N2_36 1_555 1_555
C6_36 C3_36 1_555 1_555
H4_36 C6_36 1_555 1_555
N6_36 C2_60 1_555 1_555
O4_36 N4_60 1_555 1_555
Co2_9 N6_36 1_555 1_555
Co2_4 N5_36 1_555 1_555
C4_36 N8_24 1_555 1_555
C5_36 N5_36 1_555 1_555
C6_36 N6_36 1_555 1_555
C1_37 N2_37 1_555 1_555
C2_61 N7_19 1_555 1_555
C3_37 H1_37 1_555 1_555
C4_37 H2_37 1_555 1_555
N7_19 C3_37 1_555 1_555
N2_37 O2_37 1_555 1_555
N8_19 C1_37 1_555 1_555
N4_61 C2_61 1_555 1_555
O1_37 N4_61 1_555 1_555
C5_37 C4_37 1_555 1_555
H3_37 C5_37 1_555 1_555
N5_37 C1_37 1_555 1_555
O3_37 N2_37 1_555 1_555
C6_37 C3_37 1_555 1_555
H4_37 C6_37 1_555 1_555
N6_37 C2_61 1_555 1_555
O4_37 N4_61 1_555 1_555
Co2_10 N6_37 1_555 1_555
Co2_5 N5_37 1_555 1_555
C4_37 N8_19 1_555 1_555
C5_37 N5_37 1_555 1_555
C6_37 N6_37 1_555 1_555
C1_38 N2_38 1_555 1_555
C2_62 N7_23 1_555 1_555
C3_38 H1_38 1_555 1_555
C4_38 H2_38 1_555 1_555
N7_23 C3_38 1_555 1_555
N2_38 O2_38 1_555 1_555
N8_23 C1_38 1_555 1_555
N4_62 C2_62 1_555 1_555
O1_38 N4_62 1_555 1_555
C5_38 C4_38 1_555 1_555
H3_38 C5_38 1_555 1_555
N5_38 C1_38 1_555 1_555
O3_38 N2_38 1_555 1_555
C6_38 C3_38 1_555 1_555
H4_38 C6_38 1_555 1_555
N6_38 C2_62 1_555 1_555
O4_38 N4_62 1_555 1_555
Co3_12 N6_38 1_555 1_555
Co2_6 N5_38 1_555 1_555
C4_38 N8_23 1_555 1_555
C5_38 N5_38 1_555 1_555
C6_38 N6_38 1_555 1_555
C1_39 N2_39 1_555 1_555
C2_63 N7_21 1_555 1_555
C3_39 H1_39 1_555 1_555
C4_39 H2_39 1_555 1_555
N7_21 C3_39 1_555 1_555
N2_39 O2_39 1_555 1_555
N8_21 C1_39 1_555 1_555
N4_63 C2_63 1_555 1_555
O1_39 N4_63 1_555 1_555
C5_39 C4_39 1_555 1_555
H3_39 C5_39 1_555 1_555
N5_39 C1_39 1_555 1_555
O3_39 N2_39 1_555 1_555
C6_39 C3_39 1_555 1_555
H4_39 C6_39 1_555 1_555
N6_39 C2_63 1_555 1_555
O4_39 N4_63 1_555 1_555
Co2_11 N6_39 1_555 1_555
Co2_7 N5_39 1_555 1_555
C4_39 N8_21 1_555 1_555
C5_39 N5_39 1_555 1_555
C6_39 N6_39 1_555 1_555
C1_40 N2_40 1_555 1_555
C2_64 N7_17 1_555 1_555
C3_40 H1_40 1_555 1_555
C4_40 H2_40 1_555 1_555
N7_17 C3_40 1_555 1_555
N2_40 O2_40 1_555 1_555
N8_17 C1_40 1_555 1_555
N4_64 C2_64 1_555 1_555
O1_40 N4_64 1_555 1_555
C5_40 C4_40 1_555 1_555
H3_40 C5_40 1_555 1_555
N5_40 C1_40 1_555 1_555
O3_40 N2_40 1_555 1_555
C6_40 C3_40 1_555 1_555
H4_40 C6_40 1_555 1_555
N6_40 C2_64 1_555 1_555
O4_40 N4_64 1_555 1_555
Co3_10 N6_40 1_555 1_555
Co2_8 N5_40 1_555 1_555
C4_40 N8_17 1_555 1_555
C5_40 N5_40 1_555 1_555
C6_40 N6_40 1_555 1_555
C1_41 N2_41 1_555 1_555
C2_65 N7_16 1_555 1_555
C3_41 H1_41 1_555 1_555
C4_41 H2_41 1_555 1_555
N7_16 C3_41 1_555 1_555
N2_41 O2_41 1_555 1_555
N8_16 C1_41 1_555 1_555
N4_65 C2_65 1_555 1_555
O1_41 N4_65 1_555 1_555
C5_41 C4_41 1_555 1_555
H3_41 C5_41 1_555 1_555
N5_41 C1_41 1_555 1_555
O3_41 N2_41 1_555 1_555
C6_41 C3_41 1_555 1_555
H4_41 C6_41 1_555 1_555
N6_41 C2_65 1_555 1_555
O4_41 N4_65 1_555 1_555
Co3 N6_41 1_555 1_555
Co3_2 N5_41 1_555 1_555
C4_41 N8_16 1_555 1_555
C5_41 N5_41 1_555 1_555
C6_41 N6_41 1_555 1_555
C1_42 N2_42 1_555 1_555
C2_66 N7_9 1_555 1_555
C3_42 H1_42 1_555 1_555
C4_42 H2_42 1_555 1_555
N7_9 C3_42 1_555 1_555
N2_42 O2_42 1_555 1_555
N8_9 C1_42 1_555 1_555
N4_66 C2_66 1_555 1_555
O1_42 N4_66 1_555 1_555
C5_42 C4_42 1_555 1_555
H3_42 C5_42 1_555 1_555
N5_42 C1_42 1_555 1_555
O3_42 N2_42 1_555 1_555
C6_42 C3_42 1_555 1_555
H4_42 C6_42 1_555 1_555
N6_42 C2_66 1_555 1_555
O4_42 N4_66 1_555 1_555
Co3_8 N6_42 1_555 1_555
Co3_7 N5_42 1_555 1_555
C4_42 N8_9 1_555 1_555
C5_42 N5_42 1_555 1_555
C6_42 N6_42 1_555 1_555
C1_43 N2_43 1_555 1_555
C2_67 N7_13 1_555 1_555
C3_43 H1_43 1_555 1_555
C4_43 H2_43 1_555 1_555
N7_13 C3_43 1_555 1_555
N2_43 O2_43 1_555 1_555
N8_13 C1_43 1_555 1_555
N4_67 C2_67 1_555 1_555
O1_43 N4_67 1_555 1_555
C5_43 C4_43 1_555 1_555
H3_43 C5_43 1_555 1_555
N5_43 C1_43 1_555 1_555
O3_43 N2_43 1_555 1_555
C6_43 C3_43 1_555 1_555
H4_43 C6_43 1_555 1_555
N6_43 C2_67 1_555 1_555
O4_43 N4_67 1_555 1_555
Co3_2 N6_43 1_555 1_555
Co3_3 N5_43 1_555 1_555
C4_43 N8_13 1_555 1_555
C5_43 N5_43 1_555 1_555
C6_43 N6_43 1_555 1_555
C1_44 N2_44 1_555 1_555
C2_68 N7_11 1_555 1_555
C3_44 H1_44 1_555 1_555
C4_44 H2_44 1_555 1_555
N7_11 C3_44 1_555 1_555
N2_44 O2_44 1_555 1_555
N8_11 C1_44 1_555 1_555
N4_68 C2_68 1_555 1_555
O1_44 N4_68 1_555 1_555
C5_44 C4_44 1_555 1_555
H3_44 C5_44 1_555 1_555
N5_44 C1_44 1_555 1_555
O3_44 N2_44 1_555 1_555
C6_44 C3_44 1_555 1_555
H4_44 C6_44 1_555 1_555
N6_44 C2_68 1_555 1_555
O4_44 N4_68 1_555 1_555
Co3_6 N6_44 1_555 1_555
Co3_5 N5_44 1_555 1_555
C4_44 N8_11 1_555 1_555
C5_44 N5_44 1_555 1_555
C6_44 N6_44 1_555 1_555
C1_45 N2_45 1_555 1_555
C2_69 N7_15 1_555 1_555
C3_45 H1_45 1_555 1_555
C4_45 H2_45 1_555 1_555
N7_15 C3_45 1_555 1_555
N2_45 O2_45 1_555 1_555
N8_15 C1_45 1_555 1_555
N4_69 C2_69 1_555 1_555
O1_45 N4_69 1_555 1_555
C5_45 C4_45 1_555 1_555
H3_45 C5_45 1_555 1_555
N5_45 C1_45 1_555 1_555
O3_45 N2_45 1_555 1_555
C6_45 C3_45 1_555 1_555
H4_45 C6_45 1_555 1_555
N6_45 C2_69 1_555 1_555
O4_45 N4_69 1_555 1_555
Co3_4 N6_45 1_555 1_555
Co3 N5_45 1_555 1_555
C4_45 N8_15 1_555 1_555
C5_45 N5_45 1_555 1_555
C6_45 N6_45 1_555 1_555
C1_46 N2_46 1_555 1_555
C2_70 N7_10 1_555 1_555
C3_46 H1_46 1_555 1_555
C4_46 H2_46 1_555 1_555
N7_10 C3_46 1_555 1_555
N2_46 O2_46 1_555 1_555
N8_10 C1_46 1_555 1_555
N4_70 C2_70 1_555 1_555
O1_46 N4_70 1_555 1_555
C5_46 C4_46 1_555 1_555
H3_46 C5_46 1_555 1_555
N5_46 C1_46 1_555 1_555
O3_46 N2_46 1_555 1_555
C6_46 C3_46 1_555 1_555
H4_46 C6_46 1_555 1_555
N6_46 C2_70 1_555 1_555
O4_46 N4_70 1_555 1_555
Co3_5 N6_46 1_555 1_555
Co3_8 N5_46 1_555 1_555
C4_46 N8_10 1_555 1_555
C5_46 N5_46 1_555 1_555
C6_46 N6_46 1_555 1_555
C1_47 N2_47 1_555 1_555
C2_71 N7_14 1_555 1_555
C3_47 H1_47 1_555 1_555
C4_47 H2_47 1_555 1_555
N7_14 C3_47 1_555 1_555
N2_47 O2_47 1_555 1_555
N8_14 C1_47 1_555 1_555
N4_71 C2_71 1_555 1_555
O1_47 N4_71 1_555 1_555
C5_47 C4_47 1_555 1_555
H3_47 C5_47 1_555 1_555
N5_47 C1_47 1_555 1_555
O3_47 N2_47 1_555 1_555
C6_47 C3_47 1_555 1_555
H4_47 C6_47 1_555 1_555
N6_47 C2_71 1_555 1_555
O4_47 N4_71 1_555 1_555
Co3_3 N6_47 1_555 1_555
Co3_4 N5_47 1_555 1_555
C4_47 N8_14 1_555 1_555
C5_47 N5_47 1_555 1_555
C6_47 N6_47 1_555 1_555
C1_48 N2_48 1_555 1_555
C2_72 N7_12 1_555 1_555
C3_48 H1_48 1_555 1_555
C4_48 H2_48 1_555 1_555
N7_12 C3_48 1_555 1_555
N2_48 O2_48 1_555 1_555
N8_12 C1_48 1_555 1_555
N4_72 C2_72 1_555 1_555
O1_48 N4_72 1_555 1_555
C5_48 C4_48 1_555 1_555
H3_48 C5_48 1_555 1_555
N5_48 C1_48 1_555 1_555
O3_48 N2_48 1_555 1_555
C6_48 C3_48 1_555 1_555
H4_48 C6_48 1_555 1_555
N6_48 C2_72 1_555 1_555
O4_48 N4_72 1_555 1_555
Co3_7 N6_48 1_555 1_555
Co3_6 N5_48 1_555 1_555
C4_48 N8_12 1_555 1_555
C5_48 N5_48 1_555 1_555
C6_48 N6_48 1_555 1_555

#END
