
###############################################################################
#
# This file contains modified crystal structure data generated from the
# MOF subset of the Cambridge Structural Database (CSD) v543 
# hosted by the Cambridge Crystallographic Data Centre (CCDC).
#
# This work is licensed under the Creative Commons
# Attribution-NonCommercial-ShareAlike 4.0 International License.
# To view a copy of this license, visit
# http://creativecommons.org/licenses/by-nc-sa/4.0/
# or send a letter to
# Creative Commons, PO Box 1866, Mountain View, CA 94042, USA.
#
# CIF created using the CSD Python API on 29 September 2022
# The structure has been converted into the P1 space group
# The structure has a 3D framework
# The original CSD entry UZATAR is in the triclinic crystal system
# The framework has been calculated to contain at least 10.0% void space
# The void calculation uses a probe of radius 1.32A, grid spacing 0.4
#
###############################################################################

data_UZATAR
_chemical_formula_moiety         '(C30 H22 Er4 O32)n'
_symmetry_cell_setting           triclinic
_symmetry_space_group_name_H-M   'P 1'
_symmetry_Int_Tables_number      1
_space_group_name_Hall           'P 1'
loop_
_symmetry_equiv_pos_site_id
_symmetry_equiv_pos_as_xyz
1 x,y,z
_cell_length_a                   9.6762(8)
_cell_length_b                   10.9949(9)
_cell_length_c                   11.4960(10)
_cell_angle_alpha                104.9310(10)
_cell_angle_beta                 90.7850(10)
_cell_angle_gamma                114.2470(10)
_cell_volume                     1067.54
loop_
_atom_site_label
_atom_site_type_symbol
_atom_site_fract_x
_atom_site_fract_y
_atom_site_fract_z
_atom_site_U_iso_or_equiv
_atom_site_thermal_displace_type
O33 O 0.0174(8) 0.0678(7) 0.6973(6) 0.0347 Uani
H22 H 0.0815 0.0823 0.6468 0.0420 Uiso
O38 O 0.2051(6) 0.1478(5) 0.9128(5) 0.0220 Uani
O44 O 0.0980(6) 0.9464(5) 0.0335(5) 0.0163 Uani
Er3 Er 0.01754(3) 0.92442(3) 0.82953(3) 0.0123 Uani
Er12 Er 0.00674(4) 0.50751(3) 0.24678(3) 0.0152 Uani
O27 O 0.1063(6) 0.7512(5) 0.8330(5) 0.0152 Uani
O32 O 0.2266(7) 0.9457(6) 0.7161(6) 0.0296 Uani
H19 H 0.2506 0.9999 0.6713 0.0360 Uiso
H20 H 0.2771 0.8992 0.7206 0.0360 Uiso
O19 O 0.0256(8) 0.3315(6) 0.8307(5) 0.0339 Uani
H15 H 0.0953 0.3581 0.8896 0.0410 Uiso
O23 O 0.1805(7) 0.5328(7) 0.6373(6) 0.0331 Uani
O25 O 0.2176(6) 0.6386(5) 0.8975(5) 0.0218 Uani
Er8 Er 0.98246(3) 0.07558(3) 0.17047(3) 0.0123 Uani
H21 H 0.9533 0.1028 0.7019 0.0420 Uiso
O45 O 0.9020(6) 0.0536(5) 0.9665(5) 0.0163 Uani
C5 C 0.2409(8) 0.2459(7) 0.0090(7) 0.0147 Uani
C6 C 0.3727(8) 0.3799(7) 0.0050(7) 0.0139 Uani
C9 C 0.2923(9) 0.6163(9) 0.6011(7) 0.0219 Uani
C10 C 0.3452(8) 0.4360(7) 0.4488(7) 0.0147 Uani
C11 C 0.5540(8) 0.6228(8) 0.5936(7) 0.0191 Uani
H3 H 0.5911 0.7066 0.6553 0.0230 Uiso
C12 C 0.4006(8) 0.5590(8) 0.5457(7) 0.0153 Uani
C13 C 0.1860(9) 0.3691(8) 0.3863(7) 0.0162 Uani
C14 C 0.2499(9) 0.5309(8) 0.1173(7) 0.0190 Uani
C15 C 0.3782(8) 0.5132(8) 0.0597(7) 0.0164 Uani
O1 O 0.2752(7) 0.6239(6) 0.2156(6) 0.0334 Uani
O2 O 0.1130(6) 0.4518(6) 0.0686(5) 0.0189 Uani
H5 H 0.0323 0.7547 0.1996 0.0410 Uiso
O4 O 0.1032(8) 0.7158(6) 0.4130(6) 0.0354 Uani
H6 H 0.0456 0.7295 0.4650 0.0420 Uiso
H7 H 0.1951 0.7761 0.4202 0.0420 Uiso
O8 O 0.1313(7) 0.4505(6) 0.3713(5) 0.0289 Uani
O9 O 0.1151(6) 0.2388(5) 0.3532(5) 0.0200 Uani
O12 O 0.1862(6) 0.2414(5) 0.1059(5) 0.0183 Uani
O16 O 0.3211(8) 0.7397(7) 0.6117(7) 0.0402 Uani
C22 C 0.5063(9) 0.6301(8) 0.0550(7) 0.0181 Uani
H13 H 0.5119 0.7179 0.0930 0.0220 Uiso
C24 C 0.7077(9) 0.3837(9) 0.3989(7) 0.0219 Uani
C25 C 0.6548(8) 0.5640(7) 0.5512(7) 0.0147 Uani
C26 C 0.4460(8) 0.3772(8) 0.4064(7) 0.0191 Uani
H14 H 0.4089 0.2934 0.3447 0.0230 Uiso
C27 C 0.5994(8) 0.4410(8) 0.4543(7) 0.0153 Uani
C28 C 0.8140(9) 0.6309(8) 0.6137(7) 0.0162 Uani
Er13 Er 0.99326(4) 0.49249(3) 0.75322(3) 0.0152 Uani
O21 O 0.8195(7) 0.4672(7) 0.3627(6) 0.0331 Uani
O29 O 0.8687(7) 0.5495(6) 0.6287(5) 0.0289 Uani
O31 O 0.8849(6) 0.7612(5) 0.6468(5) 0.0200 Uani
O35 O 0.8138(6) 0.7586(5) 0.8941(5) 0.0183 Uani
O36 O 0.7949(6) 0.8522(5) 0.0872(5) 0.0220 Uani
O40 O 0.2411(6) 0.0577(6) 0.2106(5) 0.0249 Uani
O41 O 0.7589(6) 0.9423(6) 0.7894(5) 0.0249 Uani
O46 O 0.6789(8) 0.2603(7) 0.3883(7) 0.0402 Uani
C7 C 0.4937(9) 0.3699(8) 0.9450(7) 0.0181 Uani
H2 H 0.4881 0.2821 0.9070 0.0220 Uiso
C20 C 0.7591(8) 0.7541(7) 0.9910(7) 0.0147 Uani
C21 C 0.6273(8) 0.6201(7) 0.9950(7) 0.0139 Uani
C29 C 0.7501(9) 0.4691(8) 0.8827(7) 0.0190 Uani
C30 C 0.6218(8) 0.4868(8) 0.9403(7) 0.0164 Uani
O17 O 0.7248(7) 0.3761(6) 0.7844(6) 0.0334 Uani
O18 O 0.8870(6) 0.5482(6) 0.9314(5) 0.0189 Uani
H16 H 0.9677 0.2453 0.8004 0.0410 Uiso
O20 O 0.8968(8) 0.2842(6) 0.5870(6) 0.0354 Uani
H17 H 0.9544 0.2705 0.5350 0.0420 Uiso
H18 H 0.8049 0.2239 0.5798 0.0420 Uiso
H10 H 0.0467 0.8972 0.2981 0.0420 Uiso
C4 C 0.6395(8) 0.1165(8) 0.0491(7) 0.0146 Uani
C8 C 0.7827(8) 0.2492(8) 0.1074(7) 0.0152 Uani
O3 O 0.9744(8) 0.6685(6) 0.1693(5) 0.0339 Uani
H4 H 0.9047 0.6419 0.1104 0.0410 Uiso
O6 O 0.7824(6) 0.3614(5) 0.1025(5) 0.0218 Uani
O7 O 0.8937(6) 0.2488(5) 0.1670(5) 0.0152 Uani
O10 O 0.7734(7) 0.0543(6) 0.2839(6) 0.0296 Uani
H8 H 0.7494 0.0001 0.3287 0.0360 Uiso
H9 H 0.7229 0.1008 0.2794 0.0360 Uiso
C18 C 0.5031(8) 0.1089(8) 0.0929(7) 0.0160 Uani
H12 H 0.5053 0.1830 0.1554 0.0190 Uiso
C1 C 0.7719(8) 0.0020(8) 0.8989(7) 0.0170 Uani
C2 C 0.6359(8) 0.0062(8) 0.9543(7) 0.0154 Uani
O11 O 0.9826(8) 0.9322(7) 0.3027(6) 0.0347 Uani
H11 H 0.9185 0.9177 0.3532 0.0420 Uiso
C16 C 0.2281(8) 0.9980(8) 0.1011(7) 0.0170 Uani
C17 C 0.3641(8) 0.9938(8) 0.0457(7) 0.0154 Uani
C3 C 0.4969(8) 0.8911(8) 0.9071(7) 0.0160 Uani
H1 H 0.4947 0.8170 0.8446 0.0190 Uiso
C19 C 0.3605(8) 0.8835(8) 0.9509(7) 0.0146 Uani
C23 C 0.2173(8) 0.7508(8) 0.8926(7) 0.0152 Uani
loop_
_atom_site_aniso_label
_atom_site_aniso_U_11
_atom_site_aniso_U_22
_atom_site_aniso_U_33
_atom_site_aniso_U_23
_atom_site_aniso_U_13
_atom_site_aniso_U_12
O33 0.038 0.038 0.04 0.019 0.012 0.023
O38 0.018 0.011 0.028 0.003 0.006 -0.001
O44 0.012 0.011 0.026 0.002 0.001 0.007
Er3 0.01069 0.00799 0.01584 0.00279 0.00256 0.00213
Er12 0.01311 0.0121 0.0185 0.00319 0.00198 0.0042
O27 0.011 0.01 0.021 0.001 0.001 0.003
O32 0.033 0.022 0.039 0.013 0.017 0.014
O19 0.056 0.018 0.027 0.001 -0.011 0.019
O23 0.022 0.042 0.032 0.006 0.018 0.013
O25 0.015 0.009 0.039 0.007 -0.007 0.003
Er8 0.01069 0.00799 0.01584 0.00279 0.00256 0.00213
O45 0.012 0.011 0.026 0.002 0.001 0.007
C5 0.007 0.009 0.026 0.004 0 0.002
C6 0.012 0.008 0.019 0.007 0.002 0
C9 0.019 0.027 0.015 -0.003 -0.005 0.011
C10 0.017 0.009 0.017 0.003 0.002 0.005
C11 0.013 0.016 0.022 -0.006 0 0.007
C12 0.014 0.016 0.018 0.004 0.006 0.009
C13 0.016 0.023 0.011 0.004 0.007 0.01
C14 0.018 0.012 0.027 0.008 0.008 0.005
C15 0.014 0.008 0.024 0.004 0.003 0.002
O1 0.022 0.022 0.038 -0.005 0.01 0
O2 0.012 0.02 0.024 0.005 0.005 0.007
O4 0.037 0.025 0.034 -0.004 0 0.011
O8 0.029 0.026 0.029 -0.003 -0.011 0.016
O9 0.015 0.013 0.025 0.003 -0.002 0.001
O12 0.013 0.016 0.024 0.008 0.007 0.003
O16 0.04 0.024 0.057 0 0.01 0.021
C22 0.015 0.013 0.026 0.005 0.001 0.006
C24 0.019 0.027 0.015 -0.003 -0.005 0.011
C25 0.017 0.009 0.017 0.003 0.002 0.005
C26 0.013 0.016 0.022 -0.006 0 0.007
C27 0.014 0.016 0.018 0.004 0.006 0.009
C28 0.016 0.023 0.011 0.004 0.007 0.01
Er13 0.01311 0.0121 0.0185 0.00319 0.00198 0.0042
O21 0.022 0.042 0.032 0.006 0.018 0.013
O29 0.029 0.026 0.029 -0.003 -0.011 0.016
O31 0.015 0.013 0.025 0.003 -0.002 0.001
O35 0.013 0.016 0.024 0.008 0.007 0.003
O36 0.018 0.011 0.028 0.003 0.006 -0.001
O40 0.024 0.03 0.016 0 0.003 0.011
O41 0.024 0.03 0.016 0 0.003 0.011
O46 0.04 0.024 0.057 0 0.01 0.021
C7 0.015 0.013 0.026 0.005 0.001 0.006
C20 0.007 0.009 0.026 0.004 0 0.002
C21 0.012 0.008 0.019 0.007 0.002 0
C29 0.018 0.012 0.027 0.008 0.008 0.005
C30 0.014 0.008 0.024 0.004 0.003 0.002
O17 0.022 0.022 0.038 -0.005 0.01 0
O18 0.012 0.02 0.024 0.005 0.005 0.007
O20 0.037 0.025 0.034 -0.004 0 0.011
C4 0.011 0.011 0.021 0.003 -0.003 0.005
C8 0.005 0.021 0.015 0.007 0 0
O3 0.056 0.018 0.027 0.001 -0.011 0.019
O6 0.015 0.009 0.039 0.007 -0.007 0.003
O7 0.011 0.01 0.021 0.001 0.001 0.003
O10 0.033 0.022 0.039 0.013 0.017 0.014
C18 0.014 0.009 0.021 -0.002 -0.002 0.005
C1 0.014 0.012 0.026 0.008 0.002 0.005
C2 0.012 0.017 0.017 0.005 -0.002 0.006
O11 0.038 0.038 0.04 0.019 0.012 0.023
C16 0.014 0.012 0.026 0.008 0.002 0.005
C17 0.012 0.017 0.017 0.005 -0.002 0.006
C3 0.014 0.009 0.021 -0.002 -0.002 0.005
C19 0.011 0.011 0.021 0.003 -0.003 0.005
C23 0.005 0.021 0.015 0.007 0 0
loop_
_geom_bond_atom_site_label_1
_geom_bond_atom_site_label_2
_geom_bond_site_symmetry_1
_geom_bond_site_symmetry_2
H22 O33 1_555 1_555
Er3 O27 1_555 1_555
O32 Er3 1_555 1_555
H19 O32 1_555 1_555
H20 O32 1_555 1_555
H15 O19 1_555 1_555
C5 C6 1_555 1_555
C9 C12 1_555 1_555
C10 C12 1_555 1_555
C11 H3 1_555 1_555
C12 C11 1_555 1_555
C13 C10 1_555 1_555
C14 C15 1_555 1_555
C15 C6 1_555 1_555
Er12 O1 1_555 1_555
O1 C14 1_555 1_555
O2 C14 1_555 1_555
O4 Er12 1_555 1_555
H6 O4 1_555 1_555
H7 O4 1_555 1_555
O23 C9 1_555 1_555
O8 C13 1_555 1_555
O9 C13 1_555 1_555
O12 C5 1_555 1_555
O16 C9 1_555 1_555
C22 C15 1_555 1_555
H13 C22 1_555 1_555
C24 C27 1_555 1_555
C25 C11 1_555 1_555
C26 C10 1_555 1_555
H14 C26 1_555 1_555
C27 C25 1_555 1_555
C28 C25 1_555 1_555
O21 C24 1_555 1_555
O29 C28 1_555 1_555
O31 C28 1_555 1_555
O46 C24 1_555 1_555
Er12 O2 1_555 1_555
Er12 O8 1_555 1_555
C26 C27 1_555 1_555
Er13 O29 1_555 1_555
C7 H2 1_555 1_555
C20 C21 1_555 1_555
C29 C30 1_555 1_555
C30 C7 1_555 1_555
Er13 O17 1_555 1_555
O17 C29 1_555 1_555
O18 C29 1_555 1_555
O20 Er13 1_555 1_555
H17 O20 1_555 1_555
H18 O20 1_555 1_555
O35 C20 1_555 1_555
C21 C30 1_555 1_555
Er13 O18 1_555 1_555
C8 C4 1_555 1_555
Er8 O7 1_555 1_555
H4 O3 1_555 1_555
O6 C8 1_555 1_555
O7 C8 1_555 1_555
O10 Er8 1_555 1_555
H8 O10 1_555 1_555
H9 O10 1_555 1_555
C18 C4 1_555 1_555
H12 C18 1_555 1_555
C1 C2 1_555 1_555
O45 C1 1_555 1_555
H11 O11 1_555 1_555
C16 C17 1_555 1_555
O44 C16 1_555 1_555
C3 H1 1_555 1_555
C19 C3 1_555 1_555
C23 C19 1_555 1_555
O25 C23 1_555 1_555
O27 C23 1_555 1_555

#END
