
###############################################################################
#
# This file contains modified crystal structure data generated from the
# MOF subset of the Cambridge Structural Database (CSD) v543 
# hosted by the Cambridge Crystallographic Data Centre (CCDC).
#
# This work is licensed under the Creative Commons
# Attribution-NonCommercial-ShareAlike 4.0 International License.
# To view a copy of this license, visit
# http://creativecommons.org/licenses/by-nc-sa/4.0/
# or send a letter to
# Creative Commons, PO Box 1866, Mountain View, CA 94042, USA.
#
# CIF created using the CSD Python API on 29 September 2022
# The structure has been converted into the P1 space group
# The structure has a 3D framework
# The original CSD entry UZAXOL is in the monoclinic crystal system
# The framework has been calculated to contain at least 10.0% void space
# The void calculation uses a probe of radius 1.32A, grid spacing 0.4
#
###############################################################################

data_UZAXOL
_chemical_formula_moiety         '(C288 H160 Co8 N48 O32 S16)n'
_symmetry_cell_setting           triclinic
_symmetry_space_group_name_H-M   'P 1'
_symmetry_Int_Tables_number      1
_space_group_name_Hall           'P 1'
loop_
_symmetry_equiv_pos_site_id
_symmetry_equiv_pos_as_xyz
1 x,y,z
_cell_length_a                   18.1418(6)
_cell_length_b                   31.5398(6)
_cell_length_c                   15.5459(5)
_cell_angle_alpha                90
_cell_angle_beta                 112.541(4)
_cell_angle_gamma                90
_cell_volume                     8215.65
loop_
_atom_site_label
_atom_site_type_symbol
_atom_site_fract_x
_atom_site_fract_y
_atom_site_fract_z
Co6 Co 0.07101(3) 0.34444(2) 0.67069(4)
O9 O 0.04613(16) 0.34266(8) 0.9217(2)
S1 S 0.17296(8) 0.09470(3) 0.93750(8)
S2 S 0.19026(10) 0.59138(3) 0.93841(9)
O6 O 0.08638(18) 0.34782(9) 0.8052(2)
N1 N 0.06967(19) 0.77654(10) 0.6902(2)
N2 N 0.07183(19) 0.27657(10) 0.6805(2)
N4 N 0.07226(19) 0.41246(10) 0.6712(2)
N5 N 0.1451(2) 0.13378(10) 0.8662(3)
N6 N 0.1428(2) 0.05494(10) 0.8673(3)
C2 C 0.1013(2) 0.34382(10) 0.8901(3)
N7 N 0.1585(3) 0.55266(11) 0.8660(3)
N8 N 0.1564(3) 0.63168(11) 0.8710(3)
C3 C 0.0724(2) 0.14051(11) 0.6955(3)
C4 C 0.0370(3) 0.61754(12) 0.6232(3)
H1 H 0.009432 0.632192 0.568349
C6 C 0.0759(2) 0.64028(11) 0.7033(3)
C7 C 0.0729(2) 0.18725(11) 0.6914(3)
C8 C 0.1359(2) 0.71236(12) 0.7618(3)
H2 H 0.180026 0.699683 0.807059
C9 C 0.0741(2) 0.68751(11) 0.7022(3)
C10 C 0.1173(2) 0.61589(12) 0.7855(3)
C11 C 0.1083(3) 0.11737(12) 0.7801(3)
C12 C 0.1314(2) 0.75578(12) 0.7534(3)
H3 H 0.173553 0.771707 0.793921
C13 C 0.0344(3) 0.11729(13) 0.6163(3)
H4 H 0.009016 0.131454 0.560222
C14 C 0.1314(2) 0.25560(12) 0.7470(3)
H5 H 0.172669 0.271281 0.789765
C15 C 0.1855(2) 0.34110(11) 0.9579(3)
C16 C 0.0070(2) 0.47999(12) 0.6339(3)
C17 C 0.1342(2) 0.21174(12) 0.7547(3)
H7 H 0.176518 0.198657 0.801716
C18 C 0.1183(3) 0.57018(12) 0.7817(3)
C19 C 0.0096(3) 0.70819(12) 0.6353(3)
C20 C 0.0675(3) 0.00153(12) 0.6933(3)
C21 C 0.1071(3) 0.07166(12) 0.7808(3)
C22 C 0.0374(3) 0.57258(12) 0.6210(3)
H9 H 0.009039 0.559075 0.564815
C23 C 0.0755(2) 0.50136(12) 0.6899(3)
C24 C 0.0115(3) 0.20908(12) 0.6222(3)
C25 C 0.0687(3) 0.04859(12) 0.6967(3)
C26 C 0.0075(2) 0.43618(12) 0.6263(3)
C29 C 0.0771(2) 0.54816(12) 0.6971(3)
C32 C 0.0325(3) 0.07224(12) 0.6172(3)
H15 H 0.005443 0.058096 0.561452
C36 C 0.1382(2) 0.43270(13) 0.7265(3)
H18 H 0.183316 0.416624 0.759067
C38 C 0.0139(2) 0.25284(12) 0.6197(3)
C41 C 0.2484(2) 0.34480(12) 0.9275(3)
H21 H 0.237461 0.348415 0.864408
C42 C 0.0101(2) 0.75218(12) 0.6316(3)
C47 C 0.3265(3) 0.34315(14) 0.9901(3)
H26 H 0.367674 0.345593 0.968672
C52 C 0.1430(3) 0.47660(13) 0.7379(3)
H29 H 0.190382 0.489286 0.776811
Co5 Co 0.06640(4) 0.84469(2) 0.67875(4)
O11 O 0.19844(16) 0.34451(8) 0.7012(2)
O12 O 0.11283(16) 0.33370(8) 0.5589(2)
N3 N 0.0648(2) 0.91294(10) 0.6800(2)
C28 C 0.1293(3) 0.93327(13) 0.7382(3)
H13 H 0.173624 0.917397 0.774227
C34 C 0.0009(3) 0.93618(12) 0.6295(3)
C45 C 0.1330(3) 0.97721(13) 0.7469(3)
H25 H 0.178871 0.990228 0.788344
H6 H 0.039404 0.995091 0.898734
H10 H 0.030611 0.694311 0.921597
H11 H 0.039174 0.922640 0.911624
C27 C 0.0002(3) 0.48005(13) 0.8659(3)
H12 H 0.045694 0.495054 0.902084
H16 H 0.044665 0.422258 0.910158
H19 H 0.027320 0.766722 0.927282
O10 O 0.04443(16) 0.84331(8) 0.9173(2)
S3 S 0.35928(7) 0.73663(5) 0.26462(9)
O3 O 0.10373(18) 0.84720(9) 0.8161(2)
O4 O 0.80156(16) 0.65549(8) 0.2988(2)
O5 O 0.88717(16) 0.66630(8) 0.4411(2)
O7 O 0.1141(2) 0.83611(10) 0.5755(3)
C1 C 0.1056(2) 0.84326(10) 0.8968(3)
C5 C 0.1854(2) 0.83894(11) 0.9741(3)
O8 O 0.2048(3) 0.85024(14) 0.7075(3)
N9 N 0.3453(2) 0.75926(13) 0.3504(3)
C30 C 0.8173(2) 0.66635(11) 0.3824(3)
C33 C 0.7508(2) 0.68239(13) 0.4085(3)
N10 N 0.4534(2) 0.72629(14) 0.3125(3)
C35 C 0.7655(2) 0.71333(13) 0.4767(3)
H17 H 0.817523 0.722332 0.510016
C39 C 0.7034(2) 0.73080(13) 0.4953(3)
H20 H 0.714028 0.751924 0.540146
C46 C 0.4323(2) 0.77561(14) 0.5130(3)
C48 C 0.2550(2) 0.84329(12) 0.9569(3)
H27 H 0.252107 0.847217 0.896376
C49 C 0.3679(3) 0.79416(14) 0.5386(3)
C51 C 0.2928(3) 0.77581(14) 0.5072(3)
H28 H 0.282063 0.752265 0.468323
C53 C 0.4169(3) 0.75818(14) 0.4237(3)
C54 C 0.6253(3) 0.71734(14) 0.4481(3)
C55 C 0.2335(3) 0.79221(15) 0.5333(3)
H30 H 0.183089 0.779895 0.510954
C56 C 0.4784(3) 0.73963(14) 0.4009(3)
C59 C 0.3828(3) 0.83005(16) 0.5948(4)
H32 H 0.432169 0.843472 0.613652
C60 C 0.5591(3) 0.73714(14) 0.4687(3)
C61 C 0.2488(3) 0.82660(17) 0.5922(4)
C64 C 0.6727(3) 0.66826(16) 0.3616(4)
H35 H 0.662358 0.647347 0.316347
C66 C 0.5718(3) 0.75471(15) 0.5550(3)
H36 H 0.623114 0.754115 0.600740
C67 C 0.5103(3) 0.77344(15) 0.5765(3)
H37 H 0.522755 0.784775 0.635623
C68 C 0.6100(3) 0.68499(17) 0.3816(4)
H38 H 0.558402 0.674783 0.351115
C71 C 0.1829(4) 0.83925(16) 0.6256(3)
C72 C 0.3239(3) 0.84585(16) 0.6228(4)
H40 H 0.334542 0.869278 0.662042
Co7 Co 0.92899(3) 0.65556(2) 0.32931(4)
N3_2 N 0.9352(2) 0.08706(10) 0.3200(2)
C28_2 C 0.8707(3) 0.06673(13) 0.2618(3)
H13_2 H 0.826376 0.082603 0.225773
C34_2 C 0.9991(3) 0.06382(12) 0.3705(3)
C45_2 C 0.8670(3) 0.02279(13) 0.2531(3)
H25_2 H 0.821129 0.009772 0.211656
Co4 Co 0.93360(4) 0.15531(2) 0.32125(4)
S1_2 S 0.82704(8) 0.90530(3) 0.06250(8)
S2_2 S 0.80974(10) 0.40862(3) 0.06159(9)
O1 O 0.95387(16) 0.65734(8) 0.0783(2)
O6_2 O 0.91362(18) 0.65218(9) 0.1948(2)
N1_2 N 0.93033(19) 0.22346(10) 0.3098(2)
N2_2 N 0.92817(19) 0.72343(10) 0.3195(2)
N4_2 N 0.92774(19) 0.58754(10) 0.3288(2)
N5_2 N 0.8549(2) 0.86622(10) 0.1338(3)
N6_2 N 0.8572(2) 0.94506(10) 0.1327(3)
C2_2 C 0.8987(2) 0.65618(10) 0.1099(3)
N7_2 N 0.8415(3) 0.44734(11) 0.1340(3)
N8_2 N 0.8436(3) 0.36832(11) 0.1290(3)
C3_2 C 0.9276(2) 0.85949(11) 0.3045(3)
C4_2 C 0.9630(3) 0.38246(12) 0.3768(3)
H1_2 H 0.990568 0.367808 0.431651
C6_2 C 0.9241(2) 0.35972(11) 0.2967(3)
C7_2 C 0.9271(2) 0.81275(11) 0.3086(3)
C8_2 C 0.8641(2) 0.28764(12) 0.2382(3)
H2_2 H 0.819974 0.300317 0.192941
C9_2 C 0.9259(2) 0.31249(11) 0.2978(3)
C10_2 C 0.8827(2) 0.38411(12) 0.2145(3)
C11_2 C 0.8917(3) 0.88263(12) 0.2199(3)
C12_2 C 0.8686(2) 0.24422(12) 0.2466(3)
H3_2 H 0.826447 0.228293 0.206079
C13_2 C 0.9656(3) 0.88271(13) 0.3837(3)
H4_2 H 0.990984 0.868546 0.439778
C14_2 C 0.8686(2) 0.74440(12) 0.2530(3)
H5_2 H 0.827331 0.728719 0.210235
C15_2 C 0.8145(2) 0.65890(11) 0.0421(3)
C16_2 C 0.9930(2) 0.52001(12) 0.3661(3)
C17_2 C 0.8658(2) 0.78826(12) 0.2453(3)
H7_2 H 0.823482 0.801343 0.198284
C18_2 C 0.8817(3) 0.42982(12) 0.2183(3)
C19_2 C 0.9904(3) 0.29181(12) 0.3647(3)
C20_2 C 0.9325(3) 0.99847(12) 0.3067(3)
C21_2 C 0.8929(3) 0.92834(12) 0.2192(3)
C22_2 C 0.9626(3) 0.42742(12) 0.3790(3)
H9_2 H 0.990961 0.440925 0.435185
C23_2 C 0.9245(2) 0.49864(12) 0.3101(3)
C24_2 C 0.9885(3) 0.79092(12) 0.3778(3)
C25_2 C 0.9313(3) 0.95141(12) 0.3033(3)
C26_2 C 0.9925(2) 0.56382(12) 0.3737(3)
C29_2 C 0.9229(2) 0.45184(12) 0.3029(3)
C32_2 C 0.9675(3) 0.92776(12) 0.3828(3)
H15_2 H 0.994557 0.941904 0.438548
C36_2 C 0.8618(2) 0.56730(13) 0.2735(3)
H18_2 H 0.816684 0.583376 0.240933
C38_2 C 0.9861(2) 0.74716(12) 0.3803(3)
C41_2 C 0.7516(2) 0.65520(12) 0.0725(3)
H21_2 H 0.762539 0.651585 0.135592
C42_2 C 0.9899(2) 0.24782(12) 0.3684(3)
C47_2 C 0.6735(3) 0.65685(14) 0.0099(3)
H26_2 H 0.632326 0.654407 0.031328
C52_2 C 0.8570(3) 0.52340(13) 0.2621(3)
H29_2 H 0.809618 0.510714 0.223189
S3_2 S 0.64072(7) 0.26337(5) 0.73538(9)
O2 O 0.95557(16) 0.15669(8) 0.0827(2)
O3_2 O 0.89627(18) 0.15280(9) 0.1839(2)
O7_2 O 0.8859(2) 0.16389(10) 0.4245(3)
C1_2 C 0.8944(2) 0.15674(10) 0.1032(3)
C5_2 C 0.8146(2) 0.16106(11) 0.0259(3)
O8_2 O 0.7952(3) 0.14976(14) 0.2925(3)
N9_2 N 0.6547(2) 0.24074(13) 0.6496(3)
C30_2 C 0.1827(2) 0.33365(11) 0.6176(3)
C33_2 C 0.2492(2) 0.31761(13) 0.5915(3)
N10_2 N 0.5466(2) 0.27371(14) 0.6875(3)
C35_2 C 0.2345(2) 0.28667(13) 0.5233(3)
H17_2 H 0.182477 0.277668 0.489984
C39_2 C 0.2966(2) 0.26920(13) 0.5047(3)
H20_2 H 0.285972 0.248076 0.459854
C46_2 C 0.5677(2) 0.22439(14) 0.4870(3)
C48_2 C 0.7450(2) 0.15671(12) 0.0431(3)
H27_2 H 0.747893 0.152783 0.103624
C49_2 C 0.6321(3) 0.20584(14) 0.4614(3)
C51_2 C 0.7072(3) 0.22419(14) 0.4928(3)
H28_2 H 0.717937 0.247735 0.531677
C53_2 C 0.5831(3) 0.24182(14) 0.5763(3)
C54_2 C 0.3747(3) 0.28266(14) 0.5519(3)
C55_2 C 0.7665(3) 0.20779(15) 0.4667(3)
H30_2 H 0.816911 0.220105 0.489046
C56_2 C 0.5216(3) 0.26037(14) 0.5991(3)
C59_2 C 0.6172(3) 0.16995(16) 0.4052(4)
H32_2 H 0.567831 0.156528 0.386348
C60_2 C 0.4409(3) 0.26286(14) 0.5313(3)
C61_2 C 0.7512(3) 0.17340(17) 0.4078(4)
C64_2 C 0.3273(3) 0.33174(16) 0.6384(4)
H35_2 H 0.337642 0.352653 0.683653
C66_2 C 0.4282(3) 0.24529(15) 0.4450(3)
H36_2 H 0.376886 0.245885 0.399260
C67_2 C 0.4897(3) 0.22656(15) 0.4235(3)
H37_2 H 0.477245 0.215225 0.364377
C68_2 C 0.3900(3) 0.31501(17) 0.6184(4)
H38_2 H 0.441598 0.325217 0.648885
C71_2 C 0.8171(4) 0.16075(16) 0.3744(3)
C72_2 C 0.6761(3) 0.15415(16) 0.3772(4)
H40_2 H 0.665458 0.130722 0.337958
H6_2 H 0.960596 0.004909 0.101266
H10_2 H 0.969389 0.305689 0.078403
H11_2 H 0.960826 0.077360 0.088376
C27_2 C 0.9998(3) 0.51995(13) 0.1341(3)
H12_2 H 0.954306 0.504946 0.097916
H16_2 H 0.955335 0.577742 0.089842
H19_2 H 0.972680 0.233278 0.072718
S3_3 S 0.64072(7) 0.23663(5) 0.23538(9)
O4_2 O 0.19844(16) 0.15549(8) 0.2012(2)
O5_2 O 0.11283(16) 0.16630(8) 0.0589(2)
N9_3 N 0.6547(2) 0.25926(13) 0.1496(3)
C30_3 C 0.1827(2) 0.16635(11) 0.1176(3)
C33_3 C 0.2492(2) 0.18239(13) 0.0915(3)
N10_3 N 0.5466(2) 0.22629(14) 0.1875(3)
C35_3 C 0.2345(2) 0.21333(13) 0.0233(3)
C39_3 C 0.2966(2) 0.23080(13) 0.0047(3)
H28_3 H 0.717937 0.252265 0.031677
C53_3 C 0.5831(3) 0.25818(14) 0.0763(3)
C54_3 C 0.3747(3) 0.21734(14) 0.0519(3)
C56_3 C 0.5216(3) 0.23963(14) 0.0991(3)
C60_3 C 0.4409(3) 0.23714(14) 0.0313(3)
C64_3 C 0.3273(3) 0.16826(16) 0.1384(4)
H35_3 H 0.337642 0.147347 0.183653
C68_3 C 0.3900(3) 0.18499(17) 0.1184(4)
H38_3 H 0.441598 0.174783 0.148885
Co7_2 Co 0.07101(3) 0.15556(2) 0.17069(4)
H6_3 H 0.039404 0.504909 0.398734
H8 H 0.032908 0.307186 0.406190
H10_3 H 0.030611 0.805689 0.421597
H11_3 H 0.039174 0.577360 0.411624
H19_3 H 0.027320 0.733278 0.427282
H22 H 0.032875 0.234330 0.413752
Co3 Co 0.06640(4) 0.65531(2) 0.17875(4)
O10_2 O 0.04443(16) 0.65669(8) 0.4173(2)
S4 S 0.41923(8) 0.60481(6) 0.91476(10)
O3_3 O 0.10373(18) 0.65280(9) 0.3161(2)
O7_3 O 0.1141(2) 0.66389(10) 0.0755(3)
C1_3 C 0.1056(2) 0.65674(10) 0.3968(3)
C5_3 C 0.1854(2) 0.66106(11) 0.4741(3)
O8_3 O 0.2048(3) 0.64976(14) 0.2075(3)
C31 C 0.1909(3) 0.66818(14) 0.5645(3)
H14 H 0.144546 0.672099 0.575680
H17_3 H 0.817523 0.777668 0.010016
C37 C 0.6556(3) 0.66208(15) 0.9160(3)
H20_3 H 0.714028 0.748076 0.040146
C40 C 0.3334(3) 0.66431(15) 0.6227(3)
C43 C 0.7979(3) 0.66440(15) 0.9478(3)
H23 H 0.839187 0.667115 0.926707
C44 C 0.3282(3) 0.65829(14) 0.5304(3)
H24 H 0.374647 0.655355 0.518991
C46_3 C 0.4323(2) 0.72439(14) 0.0130(3)
C48_3 C 0.2550(2) 0.65671(12) 0.4569(3)
H27_3 H 0.252107 0.652783 0.396376
C49_3 C 0.3679(3) 0.70584(14) 0.0386(3)
C50 C 0.4123(3) 0.66534(16) 0.7004(3)
C51_3 C 0.2928(3) 0.72419(14) 0.0072(3)
C55_3 C 0.2335(3) 0.70779(15) 0.0333(3)
H30_3 H 0.183089 0.720105 0.010954
C57 C 0.5720(3) 0.66404(16) 0.8464(3)
C58 C 0.7188(3) 0.66580(16) 0.8854(3)
H31 H 0.707585 0.669276 0.822180
C59_3 C 0.3828(3) 0.66995(16) 0.0948(4)
H32_3 H 0.432169 0.656528 0.113652
C61_3 C 0.2488(3) 0.67340(17) 0.0922(4)
C62 C 0.2643(3) 0.66957(15) 0.6384(3)
H33 H 0.266783 0.674068 0.698569
N11 N 0.5093(3) 0.62163(17) 0.9363(3)
C63 C 0.5532(3) 0.68497(18) 0.7658(4)
H34 H 0.593236 0.700342 0.756475
C65 C 0.4271(3) 0.64461(16) 0.7888(3)
C66_3 C 0.5718(3) 0.74529(15) 0.0550(3)
H36_3 H 0.623114 0.745885 0.100740
C67_3 C 0.5103(3) 0.72656(15) 0.0765(3)
H37_3 H 0.522755 0.715225 0.135623
N12 N 0.3722(3) 0.62336(16) 0.8113(3)
C69 C 0.5055(3) 0.64358(18) 0.8598(3)
C70 C 0.4756(3) 0.68513(18) 0.6935(4)
H39 H 0.468279 0.699652 0.638795
C71_3 C 0.1829(4) 0.66075(16) 0.1256(3)
C72_3 C 0.3239(3) 0.65415(16) 0.1228(4)
H40_3 H 0.334542 0.630722 0.162042
N13 N 0.06967(19) 0.72346(10) 0.1902(2)
N14 N 0.0648(2) 0.58706(10) 0.1800(2)
O9_2 O 0.04613(16) 0.15734(8) 0.4217(2)
S1_3 S 0.17296(8) 0.40530(3) 0.43750(8)
S4_2 S 0.58077(8) 0.10481(6) 0.58524(10)
O6_3 O 0.08638(18) 0.15218(9) 0.3052(2)
N2_3 N 0.07183(19) 0.22343(10) 0.1805(2)
N4_3 N 0.07226(19) 0.08754(10) 0.1712(2)
N5_3 N 0.1451(2) 0.36622(10) 0.3662(3)
N6_3 N 0.1428(2) 0.44506(10) 0.3673(3)
C2_3 C 0.1013(2) 0.15618(10) 0.3901(3)
C3_3 C 0.0724(2) 0.35949(11) 0.1955(3)
C7_3 C 0.0729(2) 0.31275(11) 0.1914(3)
C11_3 C 0.1083(3) 0.38263(12) 0.2801(3)
C13_3 C 0.0344(3) 0.38271(13) 0.1163(3)
H4_3 H 0.009016 0.368546 0.060222
C14_3 C 0.1314(2) 0.24440(12) 0.2470(3)
H5_3 H 0.172669 0.228719 0.289765
C15_3 C 0.1855(2) 0.15890(11) 0.4579(3)
C16_3 C 0.0070(2) 0.02001(12) 0.1339(3)
C17_3 C 0.1342(2) 0.28826(12) 0.2547(3)
H7_3 H 0.176518 0.301343 0.301716
C20_3 C 0.0675(3) 0.49847(12) 0.1933(3)
C21_3 C 0.1071(3) 0.42834(12) 0.2808(3)
C24_3 C 0.0115(3) 0.29092(12) 0.1222(3)
C25_3 C 0.0687(3) 0.45141(12) 0.1967(3)
C26_3 C 0.0075(2) 0.06382(12) 0.1263(3)
C28_3 C 0.1293(3) 0.56673(13) 0.2382(3)
H13_3 H 0.173624 0.582603 0.274227
C31_2 C 0.8091(3) 0.16818(14) 0.9355(3)
H14_2 H 0.855454 0.172099 0.924320
C32_3 C 0.0325(3) 0.42776(12) 0.1172(3)
H15_3 H 0.005443 0.441904 0.061452
C34_3 C 0.0009(3) 0.56382(12) 0.1295(3)
C36_3 C 0.1382(2) 0.06730(13) 0.2265(3)
H18_3 H 0.183316 0.083376 0.259067
C37_2 C 0.3444(3) 0.16208(15) 0.5840(3)
C38_3 C 0.0139(2) 0.24716(12) 0.1197(3)
C40_2 C 0.6666(3) 0.16431(15) 0.8773(3)
C41_3 C 0.2484(2) 0.15520(12) 0.4275(3)
H21_3 H 0.237461 0.151585 0.364408
C43_2 C 0.2021(3) 0.16440(15) 0.5522(3)
H23_2 H 0.160813 0.167115 0.573293
C44_2 C 0.6718(3) 0.15829(14) 0.9696(3)
H24_2 H 0.625353 0.155355 0.981009
C45_3 C 0.1330(3) 0.52279(13) 0.2469(3)
H25_3 H 0.178871 0.509772 0.288344
C47_3 C 0.3265(3) 0.15685(14) 0.4901(3)
H26_3 H 0.367674 0.154407 0.468672
C50_2 C 0.5877(3) 0.16534(16) 0.7996(3)
C52_3 C 0.1430(3) 0.02340(13) 0.2379(3)
H29_3 H 0.190382 0.010714 0.276811
C57_2 C 0.4280(3) 0.16404(16) 0.6536(3)
C58_2 C 0.2812(3) 0.16580(16) 0.6146(3)
H31_2 H 0.292415 0.169276 0.677820
C62_2 C 0.7357(3) 0.16957(15) 0.8616(3)
H33_2 H 0.733217 0.174068 0.801431
N11_2 N 0.4907(3) 0.12163(17) 0.5637(3)
C63_2 C 0.4468(3) 0.18497(18) 0.7342(4)
H34_2 H 0.406764 0.200342 0.743525
C65_2 C 0.5729(3) 0.14461(16) 0.7112(3)
N12_2 N 0.6278(3) 0.12336(16) 0.6887(3)
C69_2 C 0.4945(3) 0.14358(18) 0.6402(3)
C70_2 C 0.5244(3) 0.18513(18) 0.8065(4)
H39_2 H 0.531721 0.199652 0.861205
S2_3 S 0.19026(10) 0.90862(3) 0.43841(9)
N7_3 N 0.1585(3) 0.94734(11) 0.3660(3)
N8_3 N 0.1564(3) 0.86832(11) 0.3710(3)
C4_3 C 0.0370(3) 0.88246(12) 0.1232(3)
H1_3 H 0.009432 0.867808 0.068349
C6_3 C 0.0759(2) 0.85972(11) 0.2033(3)
C8_3 C 0.1359(2) 0.78764(12) 0.2618(3)
H2_3 H 0.180026 0.800317 0.307059
C9_3 C 0.0741(2) 0.81249(11) 0.2022(3)
C10_3 C 0.1173(2) 0.88411(12) 0.2855(3)
C12_3 C 0.1314(2) 0.74422(12) 0.2534(3)
H3_3 H 0.173553 0.728293 0.293921
C18_3 C 0.1183(3) 0.92982(12) 0.2817(3)
C19_3 C 0.0096(3) 0.79181(12) 0.1353(3)
C22_3 C 0.0374(3) 0.92742(12) 0.1210(3)
H9_3 H 0.009039 0.940925 0.064815
C23_3 C 0.0755(2) 0.99864(12) 0.1899(3)
C29_3 C 0.0771(2) 0.95184(12) 0.1971(3)
C42_3 C 0.0101(2) 0.74782(12) 0.1316(3)
Co1 Co 0.93360(4) 0.34469(2) 0.82125(4)
S4_3 S 0.58077(8) 0.39519(6) 0.08524(10)
O2_2 O 0.95557(16) 0.34331(8) 0.5827(2)
O3_4 O 0.89627(18) 0.34720(9) 0.6839(2)
O7_4 O 0.8859(2) 0.33611(10) 0.9245(3)
C1_4 C 0.8944(2) 0.34326(10) 0.6032(3)
C5_4 C 0.8146(2) 0.33894(11) 0.5259(3)
O8_4 O 0.7952(3) 0.35024(14) 0.7925(3)
C31_3 C 0.8091(3) 0.33182(14) 0.4355(3)
H14_3 H 0.855454 0.327901 0.424320
H17_4 H 0.182477 0.222332 0.989984
C37_3 C 0.3444(3) 0.33792(15) 0.0840(3)
H20_4 H 0.285972 0.251924 0.959854
C40_3 C 0.6666(3) 0.33569(15) 0.3773(3)
C43_3 C 0.2021(3) 0.33560(15) 0.0522(3)
H23_3 H 0.160813 0.332885 0.073293
C44_3 C 0.6718(3) 0.34171(14) 0.4696(3)
H24_3 H 0.625353 0.344645 0.481009
C46_4 C 0.5677(2) 0.27561(14) 0.9870(3)
C48_4 C 0.7450(2) 0.34329(12) 0.5431(3)
H27_4 H 0.747893 0.347217 0.603624
C49_4 C 0.6321(3) 0.29416(14) 0.9614(3)
C50_3 C 0.5877(3) 0.33466(16) 0.2996(3)
C51_4 C 0.7072(3) 0.27581(14) 0.9928(3)
C55_4 C 0.7665(3) 0.29221(15) 0.9667(3)
H30_4 H 0.816911 0.279895 0.989046
C57_3 C 0.4280(3) 0.33596(16) 0.1536(3)
C58_3 C 0.2812(3) 0.33420(16) 0.1146(3)
H31_3 H 0.292415 0.330724 0.177820
C59_4 C 0.6172(3) 0.33005(16) 0.9052(4)
H32_4 H 0.567831 0.343472 0.886348
C61_4 C 0.7512(3) 0.32660(17) 0.9078(4)
C62_3 C 0.7357(3) 0.33043(15) 0.3616(3)
H33_3 H 0.733217 0.325932 0.301431
N11_3 N 0.4907(3) 0.37837(17) 0.0637(3)
C63_3 C 0.4468(3) 0.31503(18) 0.2342(4)
H34_3 H 0.406764 0.299658 0.243525
C65_3 C 0.5729(3) 0.35539(16) 0.2112(3)
C66_4 C 0.4282(3) 0.25471(15) 0.9450(3)
H36_4 H 0.376886 0.254115 0.899260
C67_4 C 0.4897(3) 0.27344(15) 0.9235(3)
H37_4 H 0.477245 0.284775 0.864377
N12_3 N 0.6278(3) 0.37664(16) 0.1887(3)
C69_3 C 0.4945(3) 0.35642(18) 0.1402(3)
C70_3 C 0.5244(3) 0.31487(18) 0.3065(4)
H39_3 H 0.531721 0.300348 0.361205
C71_4 C 0.8171(4) 0.33925(16) 0.8744(3)
C72_4 C 0.6761(3) 0.34585(16) 0.8772(4)
H40_4 H 0.665458 0.369278 0.837958
N13_2 N 0.93033(19) 0.27654(10) 0.8098(2)
N14_2 N 0.9352(2) 0.41294(10) 0.8200(2)
H6_4 H 0.960596 0.495091 0.601266
H8_2 H 0.967092 0.692814 0.593810
H10_4 H 0.969389 0.194311 0.578403
H11_4 H 0.960826 0.422640 0.588376
H19_4 H 0.972680 0.266722 0.572718
H22_2 H 0.967125 0.765670 0.586248
S2_4 S 0.80974(10) 0.09138(3) 0.56159(9)
N7_4 N 0.8415(3) 0.05266(11) 0.6340(3)
N8_4 N 0.8436(3) 0.13168(11) 0.6290(3)
C4_4 C 0.9630(3) 0.11754(12) 0.8768(3)
H1_4 H 0.990568 0.132192 0.931651
C6_4 C 0.9241(2) 0.14028(11) 0.7967(3)
C8_4 C 0.8641(2) 0.21236(12) 0.7382(3)
H2_4 H 0.819974 0.199683 0.692941
C9_4 C 0.9259(2) 0.18751(11) 0.7978(3)
C10_4 C 0.8827(2) 0.11589(12) 0.7145(3)
C12_4 C 0.8686(2) 0.25578(12) 0.7466(3)
H3_4 H 0.826447 0.271707 0.706079
C18_4 C 0.8817(3) 0.07018(12) 0.7183(3)
C19_4 C 0.9904(3) 0.20819(12) 0.8647(3)
C22_4 C 0.9626(3) 0.07258(12) 0.8790(3)
H9_4 H 0.990961 0.059075 0.935185
C23_4 C 0.9245(2) 0.00136(12) 0.8101(3)
C29_4 C 0.9229(2) 0.04816(12) 0.8029(3)
C42_4 C 0.9899(2) 0.25218(12) 0.8684(3)
Co2 Co 0.92899(3) 0.84444(2) 0.82931(4)
S1_4 S 0.82704(8) 0.59470(3) 0.56250(8)
S4_4 S 0.41923(8) 0.89519(6) 0.41476(10)
O1_2 O 0.95387(16) 0.84266(8) 0.5783(2)
O6_4 O 0.91362(18) 0.84782(9) 0.6948(2)
N2_4 N 0.92817(19) 0.77657(10) 0.8195(2)
N4_4 N 0.92774(19) 0.91246(10) 0.8288(2)
N5_4 N 0.8549(2) 0.63378(10) 0.6338(3)
N6_4 N 0.8572(2) 0.55494(10) 0.6327(3)
C2_4 C 0.8987(2) 0.84382(10) 0.6099(3)
C3_4 C 0.9276(2) 0.64051(11) 0.8045(3)
C7_4 C 0.9271(2) 0.68725(11) 0.8086(3)
C11_4 C 0.8917(3) 0.61737(12) 0.7199(3)
C13_4 C 0.9656(3) 0.61729(13) 0.8837(3)
H4_4 H 0.990984 0.631454 0.939778
C14_4 C 0.8686(2) 0.75560(12) 0.7530(3)
H5_4 H 0.827331 0.771281 0.710235
C15_4 C 0.8145(2) 0.84110(11) 0.5421(3)
C16_4 C 0.9930(2) 0.97999(12) 0.8661(3)
C17_4 C 0.8658(2) 0.71174(12) 0.7453(3)
H7_4 H 0.823482 0.698657 0.698284
C20_4 C 0.9325(3) 0.50153(12) 0.8067(3)
C21_4 C 0.8929(3) 0.57166(12) 0.7192(3)
C24_4 C 0.9885(3) 0.70908(12) 0.8778(3)
C25_4 C 0.9313(3) 0.54859(12) 0.8033(3)
C26_4 C 0.9925(2) 0.93618(12) 0.8737(3)
C28_4 C 0.8707(3) 0.43327(13) 0.7618(3)
H13_4 H 0.826376 0.417397 0.725773
C31_4 C 0.1909(3) 0.83182(14) 0.0645(3)
H14_4 H 0.144546 0.827901 0.075680
C32_4 C 0.9675(3) 0.57224(12) 0.8828(3)
H15_4 H 0.994557 0.558096 0.938548
C34_4 C 0.9991(3) 0.43618(12) 0.8705(3)
C36_4 C 0.8618(2) 0.93270(13) 0.7735(3)
H18_4 H 0.816684 0.916624 0.740933
C37_4 C 0.6556(3) 0.83792(15) 0.4160(3)
C38_4 C 0.9861(2) 0.75284(12) 0.8803(3)
C40_4 C 0.3334(3) 0.83569(15) 0.1227(3)
C41_4 C 0.7516(2) 0.84480(12) 0.5725(3)
H21_4 H 0.762539 0.848415 0.635592
C43_4 C 0.7979(3) 0.83560(15) 0.4478(3)
H23_4 H 0.839187 0.832885 0.426707
C44_4 C 0.3282(3) 0.84171(14) 0.0304(3)
H24_4 H 0.374647 0.844645 0.018991
C45_4 C 0.8670(3) 0.47721(13) 0.7531(3)
H25_4 H 0.821129 0.490228 0.711656
C47_4 C 0.6735(3) 0.84315(14) 0.5099(3)
H26_4 H 0.632326 0.845593 0.531328
C50_4 C 0.4123(3) 0.83466(16) 0.2004(3)
C52_4 C 0.8570(3) 0.97660(13) 0.7621(3)
H29_4 H 0.809618 0.989286 0.723189
C57_4 C 0.5720(3) 0.83596(16) 0.3464(3)
C58_4 C 0.7188(3) 0.83420(16) 0.3854(3)
H31_4 H 0.707585 0.830724 0.322180
C62_4 C 0.2643(3) 0.83043(15) 0.1384(3)
H33_4 H 0.266783 0.825932 0.198569
N11_4 N 0.5093(3) 0.87837(17) 0.4363(3)
C63_4 C 0.5532(3) 0.81503(18) 0.2658(4)
H34_4 H 0.593236 0.799658 0.256475
C65_4 C 0.4271(3) 0.85539(16) 0.2888(3)
N12_4 N 0.3722(3) 0.87664(16) 0.3113(3)
C69_4 C 0.5055(3) 0.85642(18) 0.3598(3)
C70_4 C 0.4756(3) 0.81487(18) 0.1935(4)
H39_4 H 0.468279 0.800348 0.138795
O11_2 O 0.80156(16) 0.84451(8) 0.7988(2)
O12_2 O 0.88717(16) 0.83370(8) 0.9411(2)
S3_4 S 0.35928(7) 0.76337(5) 0.76462(9)
N9_4 N 0.3453(2) 0.74074(13) 0.8504(3)
C30_4 C 0.8173(2) 0.83365(11) 0.8824(3)
C33_4 C 0.7508(2) 0.81761(13) 0.9085(3)
N10_4 N 0.4534(2) 0.77371(14) 0.8125(3)
C35_4 C 0.7655(2) 0.78667(13) 0.9767(3)
C39_4 C 0.7034(2) 0.76920(13) 0.9953(3)
H28_4 H 0.282063 0.747735 0.968323
C53_4 C 0.4169(3) 0.74182(14) 0.9237(3)
C54_4 C 0.6253(3) 0.78266(14) 0.9481(3)
C56_4 C 0.4784(3) 0.76037(14) 0.9009(3)
C60_4 C 0.5591(3) 0.76286(14) 0.9687(3)
C64_4 C 0.6727(3) 0.83174(16) 0.8616(4)
H35_4 H 0.662358 0.852653 0.816347
C68_4 C 0.6100(3) 0.81501(17) 0.8816(4)
H38_4 H 0.558402 0.825217 0.851115
C27_3 C 0.9998(3) 0.98005(13) 0.6341(3)
H12_3 H 0.954306 0.995054 0.597916
H16_3 H 0.955335 0.922258 0.589842
H8_3 H 0.032908 0.192814 0.906190
H22_3 H 0.032875 0.265670 0.913752
C27_4 C 0.0002(3) 0.01995(13) 0.3659(3)
H12_4 H 0.045694 0.004946 0.402084
H16_4 H 0.044665 0.077742 0.410158
H8_4 H 0.967092 0.807186 0.093810
H22_4 H 0.967125 0.734330 0.086248
loop_
_geom_bond_atom_site_label_1
_geom_bond_atom_site_label_2
_geom_bond_site_symmetry_1
_geom_bond_site_symmetry_2
Co6 O6 1_555 1_555
S1 N5 1_555 1_555
S2 N7 1_555 1_555
O9 C2 1_555 1_555
O6 C2 1_555 1_555
N1 C12 1_555 1_555
N2 Co6 1_555 1_555
N4 Co6 1_555 1_555
N5 C11 1_555 1_555
N6 S1 1_555 1_555
C2 C15 1_555 1_555
N7 C18 1_555 1_555
N8 S2 1_555 1_555
C3 C7 1_555 1_555
C4 H1 1_555 1_555
C6 C4 1_555 1_555
C7 C17 1_555 1_555
C8 H2 1_555 1_555
C9 C6 1_555 1_555
C10 N8 1_555 1_555
C11 C3 1_555 1_555
C12 C8 1_555 1_555
H3 C12 1_555 1_555
C13 C3 1_555 1_555
H4 C13 1_555 1_555
C14 N2 1_555 1_555
H5 C14 1_555 1_555
C15 C41 1_555 1_555
C17 C14 1_555 1_555
H7 C17 1_555 1_555
C18 C10 1_555 1_555
C19 C9 1_555 1_555
C20 C25 1_555 1_555
C21 N6 1_555 1_555
C22 C4 1_555 1_555
H9 C22 1_555 1_555
C23 C16 1_555 1_555
C24 C7 1_555 1_555
C25 C21 1_555 1_555
C26 N4 1_555 1_555
C29 C18 1_555 1_555
C32 C13 1_555 1_555
H15 C32 1_555 1_555
C36 N4 1_555 1_555
H18 C36 1_555 1_555
C38 N2 1_555 1_555
C41 H21 1_555 1_555
C42 N1 1_555 1_555
C47 C41 1_555 1_555
H26 C47 1_555 1_555
C52 C23 1_555 1_555
H29 C52 1_555 1_555
Co5 N1 1_555 1_555
O11 Co6 1_555 1_555
O12 Co6 1_555 1_555
C6 C10 1_555 1_555
C8 C9 1_555 1_555
C11 C21 1_555 1_555
C16 C26 1_555 1_555
C19 C42 1_555 1_555
C22 C29 1_555 1_555
C23 C29 1_555 1_555
C24 C38 1_555 1_555
C25 C32 1_555 1_555
C36 C52 1_555 1_555
N3 C28 1_555 1_555
C28 H13 1_555 1_555
C34 N3 1_555 1_555
H25 C45 1_555 1_555
Co5 N3 1_555 1_555
C28 C45 1_555 1_555
H12 C27 1_555 1_555
Co5 O3 1_555 1_555
S3 N9 1_555 1_555
O10 C1 1_555 1_555
O3 C1 1_555 1_555
O4 C30 1_555 1_555
O5 C30 1_555 1_555
O7 Co5 1_555 1_555
C1 C5 1_555 1_555
O8 Co5 1_555 1_555
N9 C53 1_555 1_555
C30 C33 1_555 1_555
C33 C35 1_555 1_555
N10 S3 1_555 1_555
C35 H17 1_555 1_555
C39 C35 1_555 1_555
H20 C39 1_555 1_555
C46 C49 1_555 1_555
C48 C5 1_555 1_555
H27 C48 1_555 1_555
C49 C51 1_555 1_555
C51 H28 1_555 1_555
C53 C46 1_555 1_555
C54 C39 1_555 1_555
C55 C51 1_555 1_555
H30 C55 1_555 1_555
C56 N10 1_555 1_555
C59 C49 1_555 1_555
H32 C59 1_555 1_555
C60 C54 1_555 1_555
C61 C55 1_555 1_555
C64 C33 1_555 1_555
H35 C64 1_555 1_555
C66 C60 1_555 1_555
H36 C66 1_555 1_555
C67 C46 1_555 1_555
H37 C67 1_555 1_555
C68 C54 1_555 1_555
H38 C68 1_555 1_555
C71 O7 1_555 1_555
C72 C59 1_555 1_555
H40 C72 1_555 1_555
Co7 O4 1_555 1_555
O5 Co7 1_555 1_555
O8 C71 1_555 1_555
C53 C56 1_555 1_555
C56 C60 1_555 1_555
C61 C71 1_555 1_555
C61 C72 1_555 1_555
C64 C68 1_555 1_555
C66 C67 1_555 1_555
N3_2 C28_2 1_555 1_555
C28_2 H13_2 1_555 1_555
C34_2 N3_2 1_555 1_555
H25_2 C45_2 1_555 1_555
Co4 N3_2 1_555 1_555
C28_2 C45_2 1_555 1_555
Co7 O6_2 1_555 1_555
S1_2 N5_2 1_555 1_555
S2_2 N7_2 1_555 1_555
O1 C2_2 1_555 1_555
O6_2 C2_2 1_555 1_555
N1_2 C12_2 1_555 1_555
N2_2 Co7 1_555 1_555
N4_2 Co7 1_555 1_555
N5_2 C11_2 1_555 1_555
N6_2 S1_2 1_555 1_555
C2_2 C15_2 1_555 1_555
N7_2 C18_2 1_555 1_555
N8_2 S2_2 1_555 1_555
C3_2 C7_2 1_555 1_555
C4_2 H1_2 1_555 1_555
C6_2 C4_2 1_555 1_555
C7_2 C17_2 1_555 1_555
C8_2 H2_2 1_555 1_555
C9_2 C6_2 1_555 1_555
C10_2 N8_2 1_555 1_555
C11_2 C3_2 1_555 1_555
C12_2 C8_2 1_555 1_555
H3_2 C12_2 1_555 1_555
C13_2 C3_2 1_555 1_555
H4_2 C13_2 1_555 1_555
C14_2 N2_2 1_555 1_555
H5_2 C14_2 1_555 1_555
C15_2 C41_2 1_555 1_555
C17_2 C14_2 1_555 1_555
H7_2 C17_2 1_555 1_555
C18_2 C10_2 1_555 1_555
C19_2 C9_2 1_555 1_555
C20_2 C25_2 1_555 1_555
C21_2 N6_2 1_555 1_555
C22_2 C4_2 1_555 1_555
H9_2 C22_2 1_555 1_555
C23_2 C16_2 1_555 1_555
C24_2 C7_2 1_555 1_555
C25_2 C21_2 1_555 1_555
C26_2 N4_2 1_555 1_555
C29_2 C18_2 1_555 1_555
C32_2 C13_2 1_555 1_555
H15_2 C32_2 1_555 1_555
C36_2 N4_2 1_555 1_555
H18_2 C36_2 1_555 1_555
C38_2 N2_2 1_555 1_555
C41_2 H21_2 1_555 1_555
C42_2 N1_2 1_555 1_555
C47_2 C41_2 1_555 1_555
H26_2 C47_2 1_555 1_555
C52_2 C23_2 1_555 1_555
H29_2 C52_2 1_555 1_555
Co4 N1_2 1_555 1_555
C6_2 C10_2 1_555 1_555
C8_2 C9_2 1_555 1_555
C11_2 C21_2 1_555 1_555
C16_2 C26_2 1_555 1_555
C19_2 C42_2 1_555 1_555
C22_2 C29_2 1_555 1_555
C23_2 C29_2 1_555 1_555
C24_2 C38_2 1_555 1_555
C25_2 C32_2 1_555 1_555
C36_2 C52_2 1_555 1_555
Co4 O3_2 1_555 1_555
S3_2 N9_2 1_555 1_555
O2 C1_2 1_555 1_555
O3_2 C1_2 1_555 1_555
O11 C30_2 1_555 1_555
O12 C30_2 1_555 1_555
O7_2 Co4 1_555 1_555
C1_2 C5_2 1_555 1_555
O8_2 Co4 1_555 1_555
N9_2 C53_2 1_555 1_555
C30_2 C33_2 1_555 1_555
C33_2 C35_2 1_555 1_555
N10_2 S3_2 1_555 1_555
C35_2 H17_2 1_555 1_555
C39_2 C35_2 1_555 1_555
H20_2 C39_2 1_555 1_555
C46_2 C49_2 1_555 1_555
C48_2 C5_2 1_555 1_555
H27_2 C48_2 1_555 1_555
C49_2 C51_2 1_555 1_555
C51_2 H28_2 1_555 1_555
C53_2 C46_2 1_555 1_555
C54_2 C39_2 1_555 1_555
C55_2 C51_2 1_555 1_555
H30_2 C55_2 1_555 1_555
C56_2 N10_2 1_555 1_555
C59_2 C49_2 1_555 1_555
H32_2 C59_2 1_555 1_555
C60_2 C54_2 1_555 1_555
C61_2 C55_2 1_555 1_555
C64_2 C33_2 1_555 1_555
H35_2 C64_2 1_555 1_555
C66_2 C60_2 1_555 1_555
H36_2 C66_2 1_555 1_555
C67_2 C46_2 1_555 1_555
H37_2 C67_2 1_555 1_555
C68_2 C54_2 1_555 1_555
H38_2 C68_2 1_555 1_555
C71_2 O7_2 1_555 1_555
C72_2 C59_2 1_555 1_555
H40_2 C72_2 1_555 1_555
O8_2 C71_2 1_555 1_555
C53_2 C56_2 1_555 1_555
C56_2 C60_2 1_555 1_555
C61_2 C71_2 1_555 1_555
C61_2 C72_2 1_555 1_555
C64_2 C68_2 1_555 1_555
C66_2 C67_2 1_555 1_555
H12_2 C27_2 1_555 1_555
S3_3 N9_3 1_555 1_555
O4_2 C30_3 1_555 1_555
O5_2 C30_3 1_555 1_555
N9_3 C53_3 1_555 1_555
C30_3 C33_3 1_555 1_555
C33_3 C35_3 1_555 1_555
N10_3 S3_3 1_555 1_555
C39_3 C35_3 1_555 1_555
C54_3 C39_3 1_555 1_555
C56_3 N10_3 1_555 1_555
C60_3 C54_3 1_555 1_555
C64_3 C33_3 1_555 1_555
H35_3 C64_3 1_555 1_555
C68_3 C54_3 1_555 1_555
H38_3 C68_3 1_555 1_555
Co7_2 O4_2 1_555 1_555
O5_2 Co7_2 1_555 1_555
C53_3 C56_3 1_555 1_555
C56_3 C60_3 1_555 1_555
C64_3 C68_3 1_555 1_555
Co3 O3_3 1_555 1_555
S4 N11 1_555 1_555
O10_2 C1_3 1_555 1_555
O3_3 C1_3 1_555 1_555
O7_3 Co3 1_555 1_555
C1_3 C5_3 1_555 1_555
C5_3 C31 1_555 1_555
O8_3 Co3 1_555 1_555
C31 H14 1_555 1_555
C40 C44 1_555 1_555
H23 C43 1_555 1_555
C44 H24 1_555 1_555
C46_3 C49_3 1_555 1_555
C48_3 C5_3 1_555 1_555
H27_3 C48_3 1_555 1_555
C49_3 C51_3 1_555 1_555
C50 C40 1_555 1_555
C55_3 C51_3 1_555 1_555
H30_3 C55_3 1_555 1_555
C57 C37 1_555 1_555
C58 C37 1_555 1_555
H31 C58 1_555 1_555
C59_3 C49_3 1_555 1_555
H32_3 C59_3 1_555 1_555
C61_3 C55_3 1_555 1_555
C62 C31 1_555 1_555
H33 C62 1_555 1_555
N11 C69 1_555 1_555
C63 C57 1_555 1_555
H34 C63 1_555 1_555
C65 C50 1_555 1_555
H36_3 C66_3 1_555 1_555
C67_3 C46_3 1_555 1_555
H37_3 C67_3 1_555 1_555
N12 S4 1_555 1_555
C69 C57 1_555 1_555
C70 C50 1_555 1_555
H39 C70 1_555 1_555
C71_3 O7_3 1_555 1_555
C72_3 C59_3 1_555 1_555
H40_3 C72_3 1_555 1_555
N13 Co3 1_555 1_555
N14 Co3 1_555 1_555
O8_3 C71_3 1_555 1_555
C40 C62 1_555 1_555
C43 C58 1_555 1_555
C44 C48_3 1_555 1_555
C61_3 C71_3 1_555 1_555
C61_3 C72_3 1_555 1_555
C63 C70 1_555 1_555
C65 N12 1_555 1_555
C65 C69 1_555 1_555
C66_3 C67_3 1_555 1_555
Co7_2 O6_3 1_555 1_555
S1_3 N5_3 1_555 1_555
S4_2 N11_2 1_555 1_555
O9_2 C2_3 1_555 1_555
O6_3 C2_3 1_555 1_555
N2_3 Co7_2 1_555 1_555
N14 C28_3 1_555 1_555
N4_3 Co7_2 1_555 1_555
N5_3 C11_3 1_555 1_555
N6_3 S1_3 1_555 1_555
C2_3 C15_3 1_555 1_555
C3_3 C7_3 1_555 1_555
C7_3 C17_3 1_555 1_555
C11_3 C3_3 1_555 1_555
C13_3 C3_3 1_555 1_555
H4_3 C13_3 1_555 1_555
C14_3 N2_3 1_555 1_555
H5_3 C14_3 1_555 1_555
C15_3 C41_3 1_555 1_555
C17_3 C14_3 1_555 1_555
H7_3 C17_3 1_555 1_555
C20_3 C25_3 1_555 1_555
C21_3 N6_3 1_555 1_555
C24_3 C7_3 1_555 1_555
C25_3 C21_3 1_555 1_555
C26_3 N4_3 1_555 1_555
C28_3 H13_3 1_555 1_555
C31_2 H14_2 1_555 1_555
C32_3 C13_3 1_555 1_555
H15_3 C32_3 1_555 1_555
C34_3 N14 1_555 1_555
C36_3 N4_3 1_555 1_555
H18_3 C36_3 1_555 1_555
C37_2 C47_3 1_555 1_555
C38_3 N2_3 1_555 1_555
C40_2 C44_2 1_555 1_555
C41_3 H21_3 1_555 1_555
C43_2 C15_3 1_555 1_555
H23_2 C43_2 1_555 1_555
C44_2 H24_2 1_555 1_555
C45_3 C20_3 1_555 1_555
H25_3 C45_3 1_555 1_555
C47_3 C41_3 1_555 1_555
H26_3 C47_3 1_555 1_555
C50_2 C40_2 1_555 1_555
H29_3 C52_3 1_555 1_555
C57_2 C37_2 1_555 1_555
C58_2 C37_2 1_555 1_555
H31_2 C58_2 1_555 1_555
C62_2 C31_2 1_555 1_555
H33_2 C62_2 1_555 1_555
N11_2 C69_2 1_555 1_555
C63_2 C57_2 1_555 1_555
H34_2 C63_2 1_555 1_555
C65_2 C50_2 1_555 1_555
N12_2 S4_2 1_555 1_555
C69_2 C57_2 1_555 1_555
C70_2 C50_2 1_555 1_555
H39_2 C70_2 1_555 1_555
C11_3 C21_3 1_555 1_555
C16_3 C26_3 1_555 1_555
C24_3 C38_3 1_555 1_555
C25_3 C32_3 1_555 1_555
C28_3 C45_3 1_555 1_555
C36_3 C52_3 1_555 1_555
C40_2 C62_2 1_555 1_555
C43_2 C58_2 1_555 1_555
C63_2 C70_2 1_555 1_555
C65_2 N12_2 1_555 1_555
C65_2 C69_2 1_555 1_555
S2_3 N7_3 1_555 1_555
N13 C12_3 1_555 1_555
N7_3 C18_3 1_555 1_555
N8_3 S2_3 1_555 1_555
C4_3 H1_3 1_555 1_555
C6_3 C4_3 1_555 1_555
C8_3 H2_3 1_555 1_555
C9_3 C6_3 1_555 1_555
C10_3 N8_3 1_555 1_555
C12_3 C8_3 1_555 1_555
H3_3 C12_3 1_555 1_555
C18_3 C10_3 1_555 1_555
C19_3 C9_3 1_555 1_555
C22_3 C4_3 1_555 1_555
H9_3 C22_3 1_555 1_555
C29_3 C18_3 1_555 1_555
C42_3 N13 1_555 1_555
C6_3 C10_3 1_555 1_555
C8_3 C9_3 1_555 1_555
C19_3 C42_3 1_555 1_555
C22_3 C29_3 1_555 1_555
C23_3 C29_3 1_555 1_555
Co1 O3_4 1_555 1_555
S4_3 N11_3 1_555 1_555
O2_2 C1_4 1_555 1_555
O3_4 C1_4 1_555 1_555
O7_4 Co1 1_555 1_555
C1_4 C5_4 1_555 1_555
C5_4 C31_3 1_555 1_555
O8_4 Co1 1_555 1_555
C31_3 H14_3 1_555 1_555
C40_3 C44_3 1_555 1_555
H23_3 C43_3 1_555 1_555
C44_3 H24_3 1_555 1_555
C46_4 C49_4 1_555 1_555
C48_4 C5_4 1_555 1_555
H27_4 C48_4 1_555 1_555
C49_4 C51_4 1_555 1_555
C50_3 C40_3 1_555 1_555
C55_4 C51_4 1_555 1_555
H30_4 C55_4 1_555 1_555
C57_3 C37_3 1_555 1_555
C58_3 C37_3 1_555 1_555
H31_3 C58_3 1_555 1_555
C59_4 C49_4 1_555 1_555
H32_4 C59_4 1_555 1_555
C61_4 C55_4 1_555 1_555
C62_3 C31_3 1_555 1_555
H33_3 C62_3 1_555 1_555
N11_3 C69_3 1_555 1_555
C63_3 C57_3 1_555 1_555
H34_3 C63_3 1_555 1_555
C65_3 C50_3 1_555 1_555
H36_4 C66_4 1_555 1_555
C67_4 C46_4 1_555 1_555
H37_4 C67_4 1_555 1_555
N12_3 S4_3 1_555 1_555
C69_3 C57_3 1_555 1_555
C70_3 C50_3 1_555 1_555
H39_3 C70_3 1_555 1_555
C71_4 O7_4 1_555 1_555
C72_4 C59_4 1_555 1_555
H40_4 C72_4 1_555 1_555
N13_2 Co1 1_555 1_555
N14_2 Co1 1_555 1_555
O8_4 C71_4 1_555 1_555
C40_3 C62_3 1_555 1_555
C43_3 C58_3 1_555 1_555
C44_3 C48_4 1_555 1_555
C61_4 C71_4 1_555 1_555
C61_4 C72_4 1_555 1_555
C63_3 C70_3 1_555 1_555
C65_3 N12_3 1_555 1_555
C65_3 C69_3 1_555 1_555
C66_4 C67_4 1_555 1_555
S2_4 N7_4 1_555 1_555
N13_2 C12_4 1_555 1_555
N7_4 C18_4 1_555 1_555
N8_4 S2_4 1_555 1_555
C4_4 H1_4 1_555 1_555
C6_4 C4_4 1_555 1_555
C8_4 H2_4 1_555 1_555
C9_4 C6_4 1_555 1_555
C10_4 N8_4 1_555 1_555
C12_4 C8_4 1_555 1_555
H3_4 C12_4 1_555 1_555
C18_4 C10_4 1_555 1_555
C19_4 C9_4 1_555 1_555
C22_4 C4_4 1_555 1_555
H9_4 C22_4 1_555 1_555
C29_4 C18_4 1_555 1_555
C42_4 N13_2 1_555 1_555
C6_4 C10_4 1_555 1_555
C8_4 C9_4 1_555 1_555
C19_4 C42_4 1_555 1_555
C22_4 C29_4 1_555 1_555
C23_4 C29_4 1_555 1_555
Co2 O6_4 1_555 1_555
S1_4 N5_4 1_555 1_555
S4_4 N11_4 1_555 1_555
O1_2 C2_4 1_555 1_555
O6_4 C2_4 1_555 1_555
N2_4 Co2 1_555 1_555
N14_2 C28_4 1_555 1_555
N4_4 Co2 1_555 1_555
N5_4 C11_4 1_555 1_555
N6_4 S1_4 1_555 1_555
C2_4 C15_4 1_555 1_555
C3_4 C7_4 1_555 1_555
C7_4 C17_4 1_555 1_555
C11_4 C3_4 1_555 1_555
C13_4 C3_4 1_555 1_555
H4_4 C13_4 1_555 1_555
C14_4 N2_4 1_555 1_555
H5_4 C14_4 1_555 1_555
C15_4 C41_4 1_555 1_555
C17_4 C14_4 1_555 1_555
H7_4 C17_4 1_555 1_555
C20_4 C25_4 1_555 1_555
C21_4 N6_4 1_555 1_555
C24_4 C7_4 1_555 1_555
C25_4 C21_4 1_555 1_555
C26_4 N4_4 1_555 1_555
C28_4 H13_4 1_555 1_555
C31_4 H14_4 1_555 1_555
C32_4 C13_4 1_555 1_555
H15_4 C32_4 1_555 1_555
C34_4 N14_2 1_555 1_555
C36_4 N4_4 1_555 1_555
H18_4 C36_4 1_555 1_555
C37_4 C47_4 1_555 1_555
C38_4 N2_4 1_555 1_555
C40_4 C44_4 1_555 1_555
C41_4 H21_4 1_555 1_555
C43_4 C15_4 1_555 1_555
H23_4 C43_4 1_555 1_555
C44_4 H24_4 1_555 1_555
C45_4 C20_4 1_555 1_555
H25_4 C45_4 1_555 1_555
C47_4 C41_4 1_555 1_555
H26_4 C47_4 1_555 1_555
C50_4 C40_4 1_555 1_555
H29_4 C52_4 1_555 1_555
C57_4 C37_4 1_555 1_555
C58_4 C37_4 1_555 1_555
H31_4 C58_4 1_555 1_555
C62_4 C31_4 1_555 1_555
H33_4 C62_4 1_555 1_555
N11_4 C69_4 1_555 1_555
C63_4 C57_4 1_555 1_555
H34_4 C63_4 1_555 1_555
C65_4 C50_4 1_555 1_555
N12_4 S4_4 1_555 1_555
C69_4 C57_4 1_555 1_555
C70_4 C50_4 1_555 1_555
H39_4 C70_4 1_555 1_555
O11_2 Co2 1_555 1_555
O12_2 Co2 1_555 1_555
C11_4 C21_4 1_555 1_555
C16_4 C26_4 1_555 1_555
C24_4 C38_4 1_555 1_555
C25_4 C32_4 1_555 1_555
C28_4 C45_4 1_555 1_555
C36_4 C52_4 1_555 1_555
C40_4 C62_4 1_555 1_555
C43_4 C58_4 1_555 1_555
C63_4 C70_4 1_555 1_555
C65_4 N12_4 1_555 1_555
C65_4 C69_4 1_555 1_555
S3_4 N9_4 1_555 1_555
O11_2 C30_4 1_555 1_555
O12_2 C30_4 1_555 1_555
N9_4 C53_4 1_555 1_555
C30_4 C33_4 1_555 1_555
C33_4 C35_4 1_555 1_555
N10_4 S3_4 1_555 1_555
C39_4 C35_4 1_555 1_555
C54_4 C39_4 1_555 1_555
C56_4 N10_4 1_555 1_555
C60_4 C54_4 1_555 1_555
C64_4 C33_4 1_555 1_555
H35_4 C64_4 1_555 1_555
C68_4 C54_4 1_555 1_555
H38_4 C68_4 1_555 1_555
C53_4 C56_4 1_555 1_555
C56_4 C60_4 1_555 1_555
C64_4 C68_4 1_555 1_555
H12_3 C27_3 1_555 1_555
H12_4 C27_4 1_555 1_555

#END
