
###############################################################################
#
# This file contains modified crystal structure data generated from the
# MOF subset of the Cambridge Structural Database (CSD) v543 
# hosted by the Cambridge Crystallographic Data Centre (CCDC).
#
# This work is licensed under the Creative Commons
# Attribution-NonCommercial-ShareAlike 4.0 International License.
# To view a copy of this license, visit
# http://creativecommons.org/licenses/by-nc-sa/4.0/
# or send a letter to
# Creative Commons, PO Box 1866, Mountain View, CA 94042, USA.
#
# CIF created using the CSD Python API on 29 September 2022
# The structure has been converted into the P1 space group
# The structure has a 3D framework
# The original CSD entry UZEDUB is in the monoclinic crystal system
# The framework has been calculated to contain at least 10.0% void space
# The void calculation uses a probe of radius 1.32A, grid spacing 0.4
#
###############################################################################

data_UZEDUB
_chemical_formula_moiety         '(C336 H232 Cd8 N56 O40)n'
_symmetry_cell_setting           triclinic
_symmetry_space_group_name_H-M   'P 1'
_symmetry_Int_Tables_number      1
_space_group_name_Hall           'P 1'
loop_
_symmetry_equiv_pos_site_id
_symmetry_equiv_pos_as_xyz
1 x,y,z
_cell_length_a                   18.0232(11)
_cell_length_b                   18.0621(9)
_cell_length_c                   24.6633(16)
_cell_angle_alpha                90
_cell_angle_beta                 90.917(4)
_cell_angle_gamma                90
_cell_volume                     8027.78
loop_
_atom_site_label
_atom_site_type_symbol
_atom_site_fract_x
_atom_site_fract_y
_atom_site_fract_z
N3 N 0.2485(3) 0.0976(3) 0.3175(2)
N8 N 0.1319(3) 0.1084(3) 0.2916(3)
C7 C 0.2020(4) 0.1081(4) 0.2763(3)
H3 H 0.216756 0.114483 0.240604
C15 C 0.2051(5) 0.0931(5) 0.3618(4)
H8 H 0.222194 0.087302 0.397318
C16 C 0.1328(5) 0.0984(5) 0.3462(4)
H9 H 0.091822 0.095754 0.368582
C32 C 0.0668(4) 0.1204(4) 0.2580(3)
C79 C 0.0604(4) 0.0927(4) 0.2064(3)
H53 H 0.100133 0.067608 0.191322
C84 C 0.0087(4) 0.1599(4) 0.2785(3)
H58 H 0.013175 0.181302 0.312656
Cd5 Cd 0.37662(3) 0.09875(2) 0.32236(2)
N15 N 0.0051(3) 0.3922(3) 0.8301(2)
N1 N 0.5051(3) 0.1078(3) 0.3301(2)
N6 N 0.6199(3) 0.1161(3) 0.3045(2)
C1 C 0.8032(4) 0.1366(3) 0.2024(2)
C2 C 0.6208(4) 0.0922(4) 0.3582(3)
H1 H 0.662406 0.081277 0.379494
C6 C 0.6823(3) 0.1239(3) 0.2700(2)
C10 C 0.9373(4) 0.1391(4) 0.1990(3)
C11 C 0.5488(4) 0.1241(3) 0.2906(3)
H5 H 0.532329 0.139576 0.256477
C12 C 0.7982(4) 0.0782(3) 0.2388(2)
H6 H 0.836139 0.043292 0.240821
N13 N 0.8671(3) 0.1437(3) 0.1710(2)
C24 C 0.5509(4) 0.0880(4) 0.3729(3)
H15 H 0.534868 0.073838 0.406999
C34 C 0.8576(4) 0.2101(4) 0.0081(3)
C38 C 0.9145(4) 0.2165(4) 0.0958(3)
H22 H 0.950410 0.236689 0.118869
C50 C 0.8636(4) 0.1666(4) 0.1160(3)
C53 C 0.9124(4) 0.2366(4) 0.0419(3)
H29 H 0.948350 0.268327 0.028396
C58 C 0.6860(4) 0.1827(3) 0.2334(3)
H34 H 0.647964 0.217492 0.231717
C59 C 0.7382(3) 0.0715(3) 0.2716(2)
H35 H 0.734998 0.031433 0.295167
C60 C 0.8076(4) 0.1395(4) 0.0812(3)
H36 H 0.772910 0.105864 0.093876
C61 C 0.7458(4) 0.1892(3) 0.1999(3)
H37 H 0.748330 0.228389 0.175575
C68 C 0.9449(4) 0.1682(4) 0.2493(3)
H44 H 0.905606 0.194347 0.264143
C69 C 0.8044(4) 0.1631(4) 0.0280(3)
H45 H 0.765918 0.147003 0.005309
C72 C 0.9963(4) 0.1017(4) 0.1767(3)
H47 H 0.992390 0.082696 0.141773
Cd1 Cd 0.87662(3) 0.40125(2) 0.82236(2)
C3 C 0.8650(4) 0.3608(4) 0.6529(3)
O3 O 0.8698(3) 0.3173(3) 0.74395(19)
N11 N 0.8538(3) 0.2327(3) 0.9520(2)
C14 C 0.8740(4) 0.3714(4) 0.7139(3)
C17 C 0.8478(4) 0.1580(4) 0.3902(3)
H10 H 0.825402 0.144227 0.357467
O4 O 0.8847(3) 0.4355(3) 0.73073(19)
C18 C 0.8721(4) 0.4046(4) 0.5621(3)
H11 H 0.880408 0.443016 0.537852
N14 N 0.8640(3) 0.3027(3) 0.8799(2)
C29 C 0.8984(4) 0.1094(4) 0.4156(3)
O5 O 0.8328(4) 0.3737(3) 0.4509(2)
C36 C 0.8370(4) 0.2794(4) 0.5788(3)
H20 H 0.822017 0.233213 0.566050
C40 C 0.8796(4) 0.4170(4) 0.6167(3)
H23 H 0.894597 0.463181 0.629318
C41 C 0.9146(5) 0.0352(4) 0.3922(3)
C42 C 0.8695(4) 0.2999(4) 0.9335(3)
H24 H 0.882671 0.339855 0.955395
C44 C 0.8645(4) 0.2479(4) 0.4609(3)
C46 C 0.8522(4) 0.3352(4) 0.5429(3)
C52 C 0.8310(4) 0.2247(4) 0.4123(2)
H28 H 0.796778 0.255304 0.394801
O8 O 0.8969(3) 0.0244(3) 0.3447(2)
C66 C 0.9320(4) 0.1325(4) 0.4650(3)
H42 H 0.966183 0.102048 0.482732
C67 C 0.9142(4) 0.2000(4) 0.4866(3)
H43 H 0.935915 0.214156 0.519423
C70 C 0.8478(4) 0.3226(4) 0.4817(3)
C71 C 0.8425(4) 0.2341(4) 0.8650(3)
H46 H 0.832805 0.219857 0.829375
C73 C 0.8439(4) 0.2920(4) 0.6338(3)
H48 H 0.834400 0.253961 0.658180
C75 C 0.8367(5) 0.1885(4) 0.9082(3)
H49 H 0.824051 0.138604 0.908260
N17 N 0.7485(3) 0.4024(3) 0.8175(2)
O11 O 0.8832(3) 0.5208(3) 0.8463(2)
C13 C 0.8948(4) 0.6628(4) 0.8898(2)
H7 H 0.912692 0.655548 0.855059
C26 C 0.8744(4) 0.5260(4) 0.8956(4)
C37 C 0.8908(4) 0.7322(4) 0.9101(2)
H21 H 0.903694 0.772039 0.888328
O6 O 0.8664(4) 0.4729(3) 0.9266(2)
C45 C 0.8729(4) 0.6034(4) 0.9197(3)
C49 C 0.8676(4) 0.7454(4) 0.9631(3)
C65 C 0.8447(4) 0.6843(4) 0.9935(3)
C74 C 0.8662(5) 0.8212(4) 0.9848(3)
C77 C 0.8465(5) 0.6135(4) 0.9721(3)
H51 H 0.830377 0.573279 0.992349
O10 O 0.8541(4) 0.8739(3) 0.9546(2)
O6_2 O 0.3664(4) 0.0271(3) 0.4266(2)
N6_2 N 0.1199(3) 0.3839(3) 0.8045(2)
N8_2 N 0.6319(3) 0.3916(3) 0.7916(3)
C1_2 C 0.3032(4) 0.3634(3) 0.7024(2)
C2_2 C 0.1208(4) 0.4078(4) 0.8582(3)
H1_2 H 0.162406 0.418723 0.879494
C3_2 C 0.3650(4) 0.1392(4) 0.1529(3)
C6_2 C 0.1823(3) 0.3761(3) 0.7700(2)
C7_2 C 0.7020(4) 0.3919(4) 0.7763(3)
H3_2 H 0.716756 0.385517 0.740604
C10_2 C 0.4373(4) 0.3609(4) 0.6990(3)
O3_2 O 0.3698(3) 0.1827(3) 0.24395(19)
C11_2 C 0.0488(4) 0.3759(3) 0.7906(3)
H5_2 H 0.032329 0.360424 0.756477
C12_2 C 0.2982(4) 0.4218(3) 0.7388(2)
H6_2 H 0.336139 0.456708 0.740821
N11_2 N 0.3538(3) 0.2673(3) 0.4520(2)
C14_2 C 0.3740(4) 0.1286(4) 0.2139(3)
C15_2 C 0.7051(5) 0.4069(5) 0.8618(4)
H8_2 H 0.722194 0.412698 0.897318
C16_2 C 0.6328(5) 0.4016(5) 0.8462(4)
H9_2 H 0.591822 0.404246 0.868582
N13_2 N 0.3671(3) 0.3563(3) 0.6710(2)
O4_2 O 0.3847(3) 0.0645(3) 0.23073(19)
C18_2 C 0.3721(4) 0.0954(4) 0.0621(3)
H11_2 H 0.380408 0.056984 0.037852
C24_2 C 0.0509(4) 0.4120(4) 0.8729(3)
H15_2 H 0.034868 0.426162 0.906999
N14_2 N 0.3640(3) 0.1973(3) 0.3799(2)
C32_2 C 0.5668(4) 0.3796(4) 0.7580(3)
C34_2 C 0.3576(4) 0.2899(4) 0.5081(3)
C36_2 C 0.3370(4) 0.2206(4) 0.0788(3)
H20_2 H 0.322017 0.266787 0.066050
C38_2 C 0.4145(4) 0.2835(4) 0.5958(3)
H22_2 H 0.450410 0.263311 0.618869
C40_2 C 0.3796(4) 0.0830(4) 0.1167(3)
H23_2 H 0.394597 0.036819 0.129318
C42_2 C 0.3695(4) 0.2001(4) 0.4335(3)
H24_2 H 0.382671 0.160145 0.455395
C46_2 C 0.3522(4) 0.1648(4) 0.0429(3)
C50_2 C 0.3636(4) 0.3334(4) 0.6160(3)
C53_2 C 0.4124(4) 0.2634(4) 0.5419(3)
H29_2 H 0.448350 0.231673 0.528396
C58_2 C 0.1860(4) 0.3173(3) 0.7334(3)
H34_2 H 0.147964 0.282508 0.731717
C59_2 C 0.2382(3) 0.4285(3) 0.7716(2)
H35_2 H 0.234998 0.468567 0.795167
C60_2 C 0.3076(4) 0.3605(4) 0.5812(3)
H36_2 H 0.272910 0.394136 0.593876
C61_2 C 0.2458(4) 0.3108(3) 0.6999(3)
H37_2 H 0.248330 0.271611 0.675575
H43_2 H 0.435915 0.285844 0.019423
C68_2 C 0.4449(4) 0.3318(4) 0.7493(3)
H44_2 H 0.405606 0.305653 0.764143
C69_2 C 0.3044(4) 0.3369(4) 0.5280(3)
H45_2 H 0.265918 0.352997 0.505309
C71_2 C 0.3425(4) 0.2659(4) 0.3650(3)
H46_2 H 0.332805 0.280143 0.329375
C72_2 C 0.4963(4) 0.3983(4) 0.6767(3)
H47_2 H 0.492390 0.417304 0.641773
C73_2 C 0.3439(4) 0.2080(4) 0.1338(3)
H48_2 H 0.334400 0.246039 0.158180
C75_2 C 0.3367(5) 0.3115(4) 0.4082(3)
H49_2 H 0.324051 0.361396 0.408260
C79_2 C 0.5604(4) 0.4073(4) 0.7064(3)
H53_2 H 0.600133 0.432392 0.691322
C84_2 C 0.5087(4) 0.3401(4) 0.7785(3)
H58_2 H 0.513175 0.318698 0.812656
N2 N 0.7931(3) 0.8873(3) 0.3207(3)
N4 N 0.0503(3) 0.9063(3) 0.3222(2)
N5 N 0.6786(3) 0.8838(3) 0.2932(2)
N7 N 0.1651(3) 0.8918(3) 0.2933(2)
N9 N 0.4167(3) 0.8662(3) 0.1651(2)
C5 C 0.0993(4) 0.9143(4) 0.3644(3)
H2 H 0.086105 0.924905 0.399840
C8 C 0.1686(4) 0.9048(4) 0.3479(3)
H4 H 0.211396 0.906614 0.369520
C19 C 0.3494(4) 0.8674(4) 0.1950(3)
C21 C 0.6138(4) 0.8820(3) 0.2581(3)
C23 C 0.6785(4) 0.8854(4) 0.3489(3)
H14 H 0.637299 0.884617 0.371097
C25 C 0.7496(4) 0.8857(3) 0.2785(3)
H16 H 0.765632 0.885838 0.242878
C27 C 0.2258(3) 0.8810(3) 0.2580(3)
C28 C 0.5494(4) 0.8385(3) 0.1781(3)
H17 H 0.549351 0.811461 0.146010
C30 C 0.4149(4) 0.7995(4) 0.0033(3)
C31 C 0.0929(4) 0.8937(4) 0.2805(3)
H18 H 0.074473 0.886770 0.245429
C33 C 0.2810(4) 0.8324(4) 0.2728(3)
H19 H 0.276670 0.804398 0.304205
C35 C 0.4144(3) 0.8454(4) 0.1100(3)
C43 C 0.4858(4) 0.8740(4) 0.1944(3)
C48 C 0.3426(4) 0.8250(4) 0.2411(3)
H26 H 0.379674 0.791482 0.250790
C51 C 0.2913(4) 0.9131(4) 0.1781(3)
H27 H 0.294232 0.938914 0.145582
C54 C 0.4564(4) 0.8592(4) 0.0189(3)
C55 C 0.4861(4) 0.9158(3) 0.2418(3)
H31 H 0.443612 0.941138 0.252011
C56 C 0.3702(4) 0.7634(4) 0.0395(3)
H32 H 0.340599 0.723850 0.028468
C63 C 0.2297(4) 0.9198(3) 0.2097(3)
H39 H 0.190664 0.950299 0.198708
C64 C 0.7494(4) 0.8882(4) 0.3644(3)
H40 H 0.766229 0.890512 0.400196
C80 C 0.5491(4) 0.9197(3) 0.2735(3)
H54 H 0.549073 0.947390 0.305291
C81 C 0.4568(4) 0.8827(4) 0.0725(3)
H55 H 0.485342 0.923283 0.083076
C82 C 0.6131(4) 0.8434(3) 0.2097(3)
H56 H 0.656255 0.820465 0.198190
C83 C 0.3704(4) 0.7873(4) 0.0924(3)
H57 H 0.339986 0.763682 0.117045
Cd6 Cd 0.92383(3) 0.90699(2) 0.32321(2)
N10 N 0.4214(3) 0.7727(3) 0.9481(2)
N12 N 0.4296(3) 0.6937(3) 0.8808(2)
H30 H 0.484571 0.884230 0.993479
C57 C 0.4113(4) 0.7022(4) 0.9313(3)
H33 H 0.393605 0.664339 0.953177
C76 C 0.4521(4) 0.7616(4) 0.8641(3)
H50 H 0.467638 0.772377 0.829228
C78 C 0.4491(5) 0.8104(4) 0.9041(3)
H52 H 0.462871 0.860005 0.902765
Cd7 Cd 0.42383(3) 0.59301(2) 0.82321(2)
O1 O 0.9373(3) 0.8175(2) 0.24270(16)
C4 C 0.9099(4) 0.8597(3) 0.1541(2)
O2 O 0.9097(3) 0.9357(2) 0.23226(17)
C9 C 0.9194(4) 0.8721(4) 0.2140(2)
C20 C 0.8673(4) 0.9089(4) 0.1235(3)
H12 H 0.847163 0.950384 0.140103
C22 C 0.9403(4) 0.7997(3) 0.1286(2)
H13 H 0.969864 0.767110 0.148575
C39 C 0.8834(4) 0.8350(3) 0.0439(3)
C47 C 0.8542(4) 0.8970(4) 0.0685(3)
H25 H 0.826046 0.930612 0.048387
C62 C 0.9282(4) 0.7863(3) 0.0743(2)
H38 H 0.949485 0.745335 0.057794
H41 H 0.828007 0.691389 0.028622
O9 O 0.9448(4) 0.9864(4) 0.4203(3)
N18 N 0.9296(3) 0.8063(3) 0.3808(2)
N2_2 N 0.2931(3) 0.6127(3) 0.8207(3)
N5_2 N 0.1786(3) 0.6162(3) 0.7932(2)
C21_2 C 0.1138(4) 0.6180(3) 0.7581(3)
C23_2 C 0.1785(4) 0.6146(4) 0.8489(3)
H14_2 H 0.137299 0.615383 0.871097
C25_2 C 0.2496(4) 0.6143(3) 0.7785(3)
H16_2 H 0.265632 0.614162 0.742878
C28_2 C 0.0494(4) 0.6615(3) 0.6781(3)
H17_2 H 0.049351 0.688539 0.646010
C64_2 C 0.2494(4) 0.6118(4) 0.8644(3)
H40_2 H 0.266229 0.609488 0.900196
C80_2 C 0.0491(4) 0.5803(3) 0.7735(3)
H54_2 H 0.049073 0.552610 0.805291
C82_2 C 0.1131(4) 0.6566(3) 0.7097(3)
H56_2 H 0.156255 0.679535 0.698190
N4_2 N 0.5503(3) 0.5937(3) 0.8222(2)
N7_2 N 0.6651(3) 0.6082(3) 0.7933(2)
O1_2 O 0.4373(3) 0.6825(2) 0.74270(16)
C4_2 C 0.4099(4) 0.6403(3) 0.6541(2)
N9_2 N 0.9167(3) 0.6338(3) 0.6651(2)
C5_2 C 0.5993(4) 0.5857(4) 0.8644(3)
H2_2 H 0.586105 0.575095 0.899840
O2_2 O 0.4097(3) 0.5643(2) 0.73226(17)
C8_2 C 0.6686(4) 0.5952(4) 0.8479(3)
H4_2 H 0.711396 0.593386 0.869520
C9_2 C 0.4194(4) 0.6279(4) 0.7140(2)
N10_2 N 0.9214(3) 0.7273(3) 0.4481(2)
C13_2 C 0.3948(4) 0.8372(4) 0.3898(2)
H7_2 H 0.412692 0.844452 0.355059
C17_2 C 0.3478(4) 0.3420(4) 0.8902(3)
H10_2 H 0.325402 0.355773 0.857467
C19_2 C 0.8494(4) 0.6326(4) 0.6950(3)
C20_2 C 0.3673(4) 0.5911(4) 0.6235(3)
H12_2 H 0.347163 0.549616 0.640103
C22_2 C 0.4403(4) 0.7003(3) 0.6286(2)
H13_2 H 0.469864 0.732890 0.648575
C26_2 C 0.3744(4) 0.9740(4) 0.3956(4)
C27_2 C 0.7258(3) 0.6190(3) 0.7580(3)
C29_2 C 0.3984(4) 0.3906(4) 0.9156(3)
C30_2 C 0.9149(4) 0.7005(4) 0.5033(3)
O5_2 O 0.3328(4) 0.1263(3) 0.9509(2)
C31_2 C 0.5929(4) 0.6063(4) 0.7805(3)
H18_2 H 0.574473 0.613230 0.745429
C33_2 C 0.7810(4) 0.6676(4) 0.7728(3)
H19_2 H 0.776670 0.695602 0.804205
C35_2 C 0.9144(3) 0.6546(4) 0.6100(3)
C37_2 C 0.3908(4) 0.7678(4) 0.4101(2)
H21_2 H 0.403694 0.727961 0.388328
C39_2 C 0.3834(4) 0.6650(3) 0.5439(3)
C41_2 C 0.4146(5) 0.4648(4) 0.8922(3)
O7 O 0.3832(3) 0.9792(3) 0.3463(2)
C43_2 C 0.9858(4) 0.6260(4) 0.6944(3)
C44_2 C 0.3645(4) 0.2521(4) 0.9609(3)
C45_2 C 0.3729(4) 0.8966(4) 0.4197(3)
C47_2 C 0.3542(4) 0.6030(4) 0.5685(3)
H25_2 H 0.326046 0.569388 0.548387
C48_2 C 0.8426(4) 0.6750(4) 0.7411(3)
H26_2 H 0.879674 0.708518 0.750790
C49_2 C 0.3676(4) 0.7546(4) 0.4631(3)
C51_2 C 0.7913(4) 0.5869(4) 0.6781(3)
H27_2 H 0.794232 0.561086 0.645582
C52_2 C 0.3310(4) 0.2753(4) 0.9123(2)
H28_2 H 0.296778 0.244696 0.894801
C54_2 C 0.9564(4) 0.6408(4) 0.5189(3)
H30_2 H 0.984571 0.615770 0.493479
C55_2 C 0.9861(4) 0.5842(3) 0.7418(3)
H31_2 H 0.943612 0.558862 0.752011
C56_2 C 0.8702(4) 0.7366(4) 0.5395(3)
H32_2 H 0.840599 0.776150 0.528468
C57_2 C 0.9113(4) 0.7978(4) 0.4313(3)
H33_2 H 0.893605 0.835661 0.453177
C62_2 C 0.4282(4) 0.7137(3) 0.5743(2)
H38_2 H 0.449485 0.754665 0.557794
C63_2 C 0.7297(4) 0.5802(3) 0.7097(3)
H39_2 H 0.690664 0.549701 0.698708
O8_2 O 0.3969(3) 0.4756(3) 0.8447(2)
C65_2 C 0.3447(4) 0.8157(4) 0.4935(3)
H41_2 H 0.328007 0.808611 0.528622
C66_2 C 0.4320(4) 0.3675(4) 0.9650(3)
H42_2 H 0.466183 0.397952 0.982732
C67_2 C 0.4142(4) 0.3000(4) 0.9866(3)
O9_2 O 0.4448(4) 0.5136(4) 0.9203(3)
C70_2 C 0.3478(4) 0.1774(4) 0.9817(3)
C74_2 C 0.3662(5) 0.6788(4) 0.4848(3)
C76_2 C 0.9521(4) 0.7384(4) 0.3641(3)
H50_2 H 0.967638 0.727623 0.329228
C77_2 C 0.3465(5) 0.8865(4) 0.4721(3)
H51_2 H 0.330377 0.926721 0.492349
C78_2 C 0.9491(5) 0.6896(4) 0.4041(3)
H52_2 H 0.962871 0.639995 0.402765
O10_2 O 0.3541(4) 0.6261(3) 0.4546(2)
C81_2 C 0.9568(4) 0.6173(4) 0.5725(3)
H55_2 H 0.985342 0.576717 0.583076
C83_2 C 0.8704(4) 0.7127(4) 0.5924(3)
H57_2 H 0.839986 0.736318 0.617045
Cd4 Cd 0.12338(3) 0.59875(2) 0.17764(2)
Cd1_2 Cd 0.62338(3) 0.90125(2) 0.67764(2)
N1_2 N 0.9949(3) 0.6078(3) 0.1699(2)
N3_2 N 0.2515(3) 0.5976(3) 0.1825(2)
N6_3 N 0.8801(3) 0.6161(3) 0.1955(2)
N8_3 N 0.3681(3) 0.6084(3) 0.2084(3)
C1_3 C 0.6968(4) 0.6366(3) 0.2976(2)
C2_3 C 0.8792(4) 0.5922(4) 0.1418(3)
H1_3 H 0.837594 0.581277 0.120506
C3_3 C 0.6350(4) 0.8608(4) 0.8471(3)
C6_3 C 0.8177(3) 0.6239(3) 0.2300(2)
C7_3 C 0.2980(4) 0.6081(4) 0.2237(3)
H3_3 H 0.283244 0.614483 0.259396
C10_3 C 0.5627(4) 0.6391(4) 0.3010(3)
O3_3 O 0.6302(3) 0.8173(3) 0.75605(19)
C11_3 C 0.9512(4) 0.6241(3) 0.2094(3)
H5_3 H 0.967671 0.639576 0.243523
C12_3 C 0.7018(4) 0.5782(3) 0.2612(2)
H6_3 H 0.663861 0.543292 0.259179
N11_3 N 0.6462(3) 0.7327(3) 0.5480(2)
C14_3 C 0.6260(4) 0.8714(4) 0.7861(3)
C15_3 C 0.2949(5) 0.5931(5) 0.1382(4)
H8_3 H 0.277806 0.587302 0.102682
C16_3 C 0.3672(5) 0.5984(5) 0.1538(4)
H9_3 H 0.408178 0.595754 0.131418
N13_3 N 0.6329(3) 0.6437(3) 0.3290(2)
O4_3 O 0.6153(3) 0.9355(3) 0.76927(19)
C18_3 C 0.6279(4) 0.9046(4) 0.9379(3)
H11_3 H 0.619592 0.943016 0.962148
C24_3 C 0.9491(4) 0.5880(4) 0.1271(3)
H15_3 H 0.965132 0.573838 0.093001
N14_3 N 0.6360(3) 0.8027(3) 0.6201(2)
C32_3 C 0.4332(4) 0.6204(4) 0.2420(3)
C34_3 C 0.6424(4) 0.7101(4) 0.4919(3)
C36_3 C 0.6630(4) 0.7794(4) 0.9212(3)
H20_3 H 0.677983 0.733213 0.933950
C38_3 C 0.5855(4) 0.7165(4) 0.4042(3)
H22_3 H 0.549590 0.736689 0.381131
C40_3 C 0.6204(4) 0.9170(4) 0.8833(3)
H23_3 H 0.605403 0.963181 0.870682
C42_3 C 0.6305(4) 0.7999(4) 0.5665(3)
H24_3 H 0.617329 0.839855 0.544605
C46_3 C 0.6478(4) 0.8352(4) 0.9571(3)
C50_3 C 0.6364(4) 0.6666(4) 0.3840(3)
C53_3 C 0.5876(4) 0.7366(4) 0.4581(3)
H29_3 H 0.551650 0.768327 0.471604
C58_3 C 0.8140(4) 0.6827(3) 0.2666(3)
H34_3 H 0.852036 0.717492 0.268283
C59_3 C 0.7618(3) 0.5715(3) 0.2284(2)
H35_3 H 0.765002 0.531433 0.204833
C60_3 C 0.6924(4) 0.6395(4) 0.4188(3)
H36_3 H 0.727090 0.605864 0.406124
C61_3 C 0.7542(4) 0.6892(3) 0.3001(3)
H37_3 H 0.751670 0.728389 0.324425
H43_3 H 0.564085 0.714156 0.980577
C68_3 C 0.5551(4) 0.6682(4) 0.2507(3)
H44_3 H 0.594394 0.694347 0.235857
C69_3 C 0.6956(4) 0.6631(4) 0.4720(3)
H45_3 H 0.734082 0.647003 0.494691
C71_3 C 0.6575(4) 0.7341(4) 0.6350(3)
H46_3 H 0.667195 0.719857 0.670625
C72_3 C 0.5037(4) 0.6017(4) 0.3233(3)
H47_3 H 0.507610 0.582696 0.358227
C73_3 C 0.6561(4) 0.7920(4) 0.8662(3)
H48_3 H 0.665600 0.753961 0.841820
C75_3 C 0.6633(5) 0.6885(4) 0.5918(3)
H49_3 H 0.675949 0.638604 0.591740
C79_3 C 0.4396(4) 0.5927(4) 0.2936(3)
H53_3 H 0.399867 0.567608 0.308678
C84_3 C 0.4913(4) 0.6599(4) 0.2215(3)
H58_3 H 0.486825 0.681302 0.187344
N15_2 N 0.4949(3) 0.8922(3) 0.6699(2)
N17_2 N 0.7515(3) 0.9024(3) 0.6825(2)
O6_3 O 0.6336(4) 0.9729(3) 0.5734(2)
C13_3 C 0.1052(4) 0.3372(4) 0.1102(2)
H7_3 H 0.087308 0.344452 0.144941
C26_3 C 0.1256(4) 0.4740(4) 0.1044(4)
C37_3 C 0.1092(4) 0.2678(4) 0.0899(2)
H21_3 H 0.096306 0.227961 0.111672
O6_4 O 0.1336(4) 0.5271(3) 0.0734(2)
O7_2 O 0.1168(3) 0.4792(3) 0.1537(2)
C45_3 C 0.1271(4) 0.3966(4) 0.0803(3)
C49_3 C 0.1324(4) 0.2546(4) 0.0369(3)
C65_3 C 0.1553(4) 0.3157(4) 0.0065(3)
C74_3 C 0.1338(5) 0.1788(4) 0.0152(3)
C77_3 C 0.1535(5) 0.3865(4) 0.0279(3)
H51_3 H 0.169623 0.426721 0.007651
O10_3 O 0.1459(4) 0.1261(3) 0.0454(2)
C3_4 C 0.1350(4) 0.6392(4) 0.3471(3)
O3_4 O 0.1302(3) 0.6827(3) 0.25605(19)
N11_4 N 0.1462(3) 0.7673(3) 0.0480(2)
C14_4 C 0.1260(4) 0.6286(4) 0.2861(3)
C17_3 C 0.1522(4) 0.8420(4) 0.6098(3)
H10_3 H 0.174598 0.855773 0.642533
O4_4 O 0.1153(3) 0.5645(3) 0.26927(19)
C18_4 C 0.1279(4) 0.5954(4) 0.4379(3)
H11_4 H 0.119592 0.556984 0.462148
N14_4 N 0.1360(3) 0.6973(3) 0.1201(2)
C29_3 C 0.1016(4) 0.8906(4) 0.5844(3)
O5_3 O 0.1672(4) 0.6263(3) 0.5491(2)
C36_4 C 0.1630(4) 0.7206(4) 0.4212(3)
H20_4 H 0.177983 0.766787 0.433950
C40_4 C 0.1204(4) 0.5830(4) 0.3833(3)
H23_4 H 0.105403 0.536819 0.370682
C41_3 C 0.0854(5) 0.9648(4) 0.6078(3)
C42_4 C 0.1305(4) 0.7001(4) 0.0665(3)
H24_4 H 0.117329 0.660145 0.044605
C44_3 C 0.1355(4) 0.7521(4) 0.5391(3)
C46_4 C 0.1478(4) 0.6648(4) 0.4571(3)
C52_3 C 0.1690(4) 0.7753(4) 0.5877(2)
H28_3 H 0.203222 0.744696 0.605199
O8_3 O 0.1031(3) 0.9756(3) 0.6553(2)
C66_3 C 0.0680(4) 0.8675(4) 0.5350(3)
H42_3 H 0.033817 0.897952 0.517268
C67_3 C 0.0858(4) 0.8000(4) 0.5134(3)
H43_4 H 0.064085 0.785844 0.480577
C70_3 C 0.1522(4) 0.6774(4) 0.5183(3)
C71_4 C 0.1575(4) 0.7659(4) 0.1350(3)
H46_4 H 0.167195 0.780143 0.170625
C73_4 C 0.1561(4) 0.7080(4) 0.3662(3)
H48_4 H 0.165600 0.746039 0.341820
C75_4 C 0.1633(5) 0.8115(4) 0.0918(3)
H49_4 H 0.175949 0.861396 0.091740
N6_4 N 0.3801(3) 0.8839(3) 0.6955(2)
C1_4 C 0.1968(4) 0.8634(3) 0.7976(2)
C2_4 C 0.3792(4) 0.9078(4) 0.6418(3)
H1_4 H 0.337594 0.918723 0.620506
C6_4 C 0.3177(3) 0.8761(3) 0.7300(2)
C10_4 C 0.0627(4) 0.8609(4) 0.8010(3)
C11_4 C 0.4512(4) 0.8759(3) 0.7094(3)
H5_4 H 0.467671 0.860424 0.743523
C12_4 C 0.2018(4) 0.9218(3) 0.7612(2)
H6_4 H 0.163861 0.956708 0.759179
N13_4 N 0.1329(3) 0.8563(3) 0.8290(2)
C24_4 C 0.4491(4) 0.9120(4) 0.6271(3)
H15_4 H 0.465132 0.926162 0.593001
C34_4 C 0.1424(4) 0.7899(4) 0.9919(3)
C38_4 C 0.0855(4) 0.7835(4) 0.9042(3)
H22_4 H 0.049590 0.763311 0.881131
C50_4 C 0.1364(4) 0.8334(4) 0.8840(3)
C53_4 C 0.0876(4) 0.7634(4) 0.9581(3)
H29_4 H 0.051650 0.731673 0.971604
C58_4 C 0.3140(4) 0.8173(3) 0.7666(3)
H34_4 H 0.352036 0.782508 0.768283
C59_4 C 0.2618(3) 0.9285(3) 0.7284(2)
H35_4 H 0.265002 0.968567 0.704833
C60_4 C 0.1924(4) 0.8605(4) 0.9188(3)
H36_4 H 0.227090 0.894136 0.906124
C61_4 C 0.2542(4) 0.8108(3) 0.8001(3)
H37_4 H 0.251670 0.771611 0.824425
C68_4 C 0.0551(4) 0.8318(4) 0.7507(3)
H44_4 H 0.094394 0.805653 0.735857
C69_4 C 0.1956(4) 0.8369(4) 0.9720(3)
H45_4 H 0.234082 0.852997 0.994691
C72_4 C 0.0037(4) 0.8983(4) 0.8233(3)
H47_4 H 0.007610 0.917304 0.858227
N8_4 N 0.8681(3) 0.8916(3) 0.7084(3)
C7_4 C 0.7980(4) 0.8919(4) 0.7237(3)
H3_4 H 0.783244 0.885517 0.759396
C15_4 C 0.7949(5) 0.9069(5) 0.6382(4)
H8_4 H 0.777806 0.912698 0.602682
C16_4 C 0.8672(5) 0.9016(5) 0.6538(4)
H9_4 H 0.908178 0.904246 0.631418
C32_4 C 0.9332(4) 0.8796(4) 0.7420(3)
C79_4 C 0.9396(4) 0.9073(4) 0.7936(3)
H53_4 H 0.899867 0.932392 0.808678
C84_4 C 0.9913(4) 0.8401(4) 0.7215(3)
H58_4 H 0.986825 0.818698 0.687344
O11_2 O 0.6168(3) 0.0208(3) 0.6537(2)
Cd2 Cd 0.57617(3) 0.40699(2) 0.17679(2)
N4_3 N 0.4497(3) 0.4063(3) 0.1778(2)
N7_3 N 0.3349(3) 0.3918(3) 0.2067(2)
O1_3 O 0.5627(3) 0.3175(2) 0.25730(16)
C4_3 C 0.5901(4) 0.3597(3) 0.3459(2)
N9_3 N 0.0833(3) 0.3662(3) 0.3349(2)
C5_3 C 0.4007(4) 0.4143(4) 0.1356(3)
H2_3 H 0.413895 0.424905 0.100160
O2_3 O 0.5903(3) 0.4357(2) 0.26774(17)
C8_3 C 0.3314(4) 0.4048(4) 0.1521(3)
H4_3 H 0.288604 0.406614 0.130480
C9_3 C 0.5806(4) 0.3721(4) 0.2860(2)
N10_3 N 0.0786(3) 0.2727(3) 0.5519(2)
C13_4 C 0.6052(4) 0.1628(4) 0.6102(2)
H7_4 H 0.587308 0.155548 0.644941
N12_2 N 0.0704(3) 0.1937(3) 0.6192(2)
C17_4 C 0.6522(4) 0.6580(4) 0.1098(3)
H10_4 H 0.674598 0.644227 0.142533
C19_3 C 0.1506(4) 0.3674(4) 0.3050(3)
C20_3 C 0.6327(4) 0.4089(4) 0.3765(3)
H12_3 H 0.652837 0.450384 0.359897
C22_3 C 0.5597(4) 0.2997(3) 0.3714(2)
H13_3 H 0.530136 0.267110 0.351425
C26_4 C 0.6256(4) 0.0260(4) 0.6044(4)
C27_3 C 0.2742(3) 0.3810(3) 0.2420(3)
C29_4 C 0.6016(4) 0.6094(4) 0.0844(3)
C30_3 C 0.0851(4) 0.2995(4) 0.4967(3)
O5_4 O 0.6672(4) 0.8737(3) 0.0491(2)
C31_3 C 0.4071(4) 0.3937(4) 0.2195(3)
H18_3 H 0.425527 0.386770 0.254571
C33_3 C 0.2190(4) 0.3324(4) 0.2272(3)
H19_3 H 0.223330 0.304398 0.195795
C35_3 C 0.0856(3) 0.3454(4) 0.3900(3)
C37_4 C 0.6092(4) 0.2322(4) 0.5899(2)
H21_4 H 0.596306 0.272039 0.611672
C39_3 C 0.6166(4) 0.3350(3) 0.4561(3)
C41_4 C 0.5854(5) 0.5352(4) 0.1078(3)
C43_3 C 0.0142(4) 0.3740(4) 0.3056(3)
C44_4 C 0.6355(4) 0.7479(4) 0.0391(3)
C45_4 C 0.6271(4) 0.1034(4) 0.5803(3)
C47_3 C 0.6458(4) 0.3970(4) 0.4315(3)
H25_3 H 0.673954 0.430612 0.451613
C48_3 C 0.1574(4) 0.3250(4) 0.2589(3)
H26_3 H 0.120326 0.291482 0.249210
C49_4 C 0.6324(4) 0.2454(4) 0.5369(3)
C51_3 C 0.2087(4) 0.4131(4) 0.3219(3)
H27_3 H 0.205768 0.438914 0.354418
C52_4 C 0.6690(4) 0.7247(4) 0.0877(2)
H28_4 H 0.703222 0.755304 0.105199
C54_3 C 0.0436(4) 0.3592(4) 0.4811(3)
H30_3 H 0.015429 0.384230 0.506521
C55_3 C 0.0139(4) 0.4158(3) 0.2582(3)
H31_3 H 0.056388 0.441138 0.247989
C56_3 C 0.1298(4) 0.2634(4) 0.4605(3)
H32_3 H 0.159401 0.223850 0.471532
C57_3 C 0.0887(4) 0.2022(4) 0.5687(3)
H33_3 H 0.106395 0.164339 0.546823
C62_3 C 0.5718(4) 0.2863(3) 0.4257(2)
H38_3 H 0.550515 0.245335 0.442206
C63_3 C 0.2703(4) 0.4198(3) 0.2903(3)
H39_3 H 0.309336 0.450299 0.301292
O8_4 O 0.6031(3) 0.5244(3) 0.1553(2)
C65_4 C 0.6553(4) 0.1843(4) 0.5065(3)
H41_3 H 0.671993 0.191389 0.471378
C66_4 C 0.5680(4) 0.6325(4) 0.0350(3)
H42_4 H 0.533817 0.602048 0.017268
C67_4 C 0.5858(4) 0.7000(4) 0.0134(3)
O9_3 O 0.5552(4) 0.4864(4) 0.0797(3)
C70_4 C 0.6522(4) 0.8226(4) 0.0183(3)
C74_4 C 0.6338(5) 0.3212(4) 0.5152(3)
C76_3 C 0.0479(4) 0.2616(4) 0.6359(3)
H50_3 H 0.032362 0.272377 0.670772
C77_4 C 0.6535(5) 0.1135(4) 0.5279(3)
H51_4 H 0.669623 0.073279 0.507651
C78_3 C 0.0509(5) 0.3104(4) 0.5959(3)
H52_3 H 0.037129 0.360005 0.597235
O10_4 O 0.6459(4) 0.3739(3) 0.5454(2)
C81_3 C 0.0432(4) 0.3827(4) 0.4275(3)
H55_3 H 0.014658 0.423283 0.416924
C83_3 C 0.1296(4) 0.2873(4) 0.4076(3)
H57_3 H 0.160014 0.263682 0.382955
Cd7_2 Cd 0.07617(3) 0.09301(2) 0.67679(2)
N16 N 0.7069(3) 0.3873(3) 0.1793(3)
N18_2 N 0.5704(3) 0.3063(3) 0.1192(2)
N5_3 N 0.8214(3) 0.3838(3) 0.2068(2)
C21_3 C 0.8862(4) 0.3820(3) 0.2419(3)
C23_3 C 0.8215(4) 0.3854(4) 0.1511(3)
H14_3 H 0.862701 0.384617 0.128903
C25_3 C 0.7504(4) 0.3857(3) 0.2215(3)
H16_3 H 0.734368 0.385838 0.257122
C28_3 C 0.9506(4) 0.3385(3) 0.3219(3)
H17_3 H 0.950649 0.311461 0.353990
C64_3 C 0.7506(4) 0.3882(4) 0.1356(3)
H40_3 H 0.733771 0.390512 0.099804
C80_3 C 0.9509(4) 0.4197(3) 0.2265(3)
H54_3 H 0.950927 0.447390 0.194709
C82_3 C 0.8869(4) 0.3434(3) 0.2903(3)
H56_3 H 0.843745 0.320465 0.301810
O1_4 O 0.0627(3) 0.1825(2) 0.75730(16)
C4_4 C 0.0901(4) 0.1403(3) 0.8459(2)
O2_4 O 0.0903(3) 0.0643(2) 0.76774(17)
C9_4 C 0.0806(4) 0.1279(4) 0.7860(2)
C20_4 C 0.1327(4) 0.0911(4) 0.8765(3)
H12_4 H 0.152837 0.049616 0.859897
C22_4 C 0.0597(4) 0.2003(3) 0.8714(2)
H13_4 H 0.030136 0.232890 0.851425
C39_4 C 0.1166(4) 0.1650(3) 0.9561(3)
C47_4 C 0.1458(4) 0.1030(4) 0.9315(3)
H25_4 H 0.173954 0.069388 0.951613
C62_4 C 0.0718(4) 0.2137(3) 0.9257(2)
H38_4 H 0.050515 0.254665 0.942206
H41_4 H 0.171993 0.308611 0.971378
O9_4 O 0.0552(4) 0.0136(4) 0.5797(3)
N16_2 N 0.2069(3) 0.1127(3) 0.6793(3)
N10_4 N 0.5786(3) 0.2273(3) 0.0519(2)
H30_4 H 0.515429 0.115770 0.006521
C57_4 C 0.5887(4) 0.2978(4) 0.0687(3)
H33_4 H 0.606395 0.335661 0.046823
C76_4 C 0.5479(4) 0.2384(4) 0.1359(3)
H50_4 H 0.532362 0.227623 0.170772
C78_4 C 0.5509(5) 0.1896(4) 0.0959(3)
H52_4 H 0.537129 0.139995 0.097235
N4_4 N 0.9497(3) 0.0937(3) 0.6778(2)
N5_4 N 0.3214(3) 0.1162(3) 0.7068(2)
N7_4 N 0.8349(3) 0.1082(3) 0.7067(2)
N9_4 N 0.5833(3) 0.1338(3) 0.8349(2)
C5_4 C 0.9007(4) 0.0857(4) 0.6356(3)
H2_4 H 0.913895 0.075095 0.600160
C8_4 C 0.8314(4) 0.0952(4) 0.6521(3)
H4_4 H 0.788604 0.093386 0.630480
C19_4 C 0.6506(4) 0.1326(4) 0.8050(3)
C21_4 C 0.3862(4) 0.1180(3) 0.7419(3)
C23_4 C 0.3215(4) 0.1146(4) 0.6511(3)
H14_4 H 0.362701 0.115383 0.628903
C25_4 C 0.2504(4) 0.1143(3) 0.7215(3)
H16_4 H 0.234368 0.114162 0.757122
C27_4 C 0.7742(3) 0.1190(3) 0.7420(3)
C28_4 C 0.4506(4) 0.1615(3) 0.8219(3)
H17_4 H 0.450649 0.188539 0.853990
C30_4 C 0.5851(4) 0.2005(4) 0.9967(3)
C31_4 C 0.9071(4) 0.1063(4) 0.7195(3)
H18_4 H 0.925527 0.113230 0.754571
C33_4 C 0.7190(4) 0.1676(4) 0.7272(3)
H19_4 H 0.723330 0.195602 0.695795
C35_4 C 0.5856(3) 0.1546(4) 0.8900(3)
C43_4 C 0.5142(4) 0.1260(4) 0.8056(3)
C48_4 C 0.6574(4) 0.1750(4) 0.7589(3)
H26_4 H 0.620326 0.208518 0.749210
C51_4 C 0.7087(4) 0.0869(4) 0.8219(3)
H27_4 H 0.705768 0.061086 0.854418
C54_4 C 0.5436(4) 0.1408(4) 0.9811(3)
C55_4 C 0.5139(4) 0.0842(3) 0.7582(3)
H31_4 H 0.556388 0.058862 0.747989
C56_4 C 0.6298(4) 0.2366(4) 0.9605(3)
H32_4 H 0.659401 0.276150 0.971532
C63_4 C 0.7703(4) 0.0802(3) 0.7903(3)
H39_4 H 0.809336 0.049701 0.801292
C64_4 C 0.2506(4) 0.1118(4) 0.6356(3)
H40_4 H 0.233771 0.109488 0.599804
C80_4 C 0.4509(4) 0.0803(3) 0.7265(3)
H54_4 H 0.450927 0.052610 0.694709
C81_4 C 0.5432(4) 0.1173(4) 0.9275(3)
H55_4 H 0.514658 0.076717 0.916924
C82_4 C 0.3869(4) 0.1566(3) 0.7903(3)
H56_4 H 0.343745 0.179535 0.801810
C83_4 C 0.6296(4) 0.2127(4) 0.9076(3)
H57_4 H 0.660014 0.236318 0.882955
loop_
_geom_bond_atom_site_label_1
_geom_bond_atom_site_label_2
_geom_bond_site_symmetry_1
_geom_bond_site_symmetry_2
N3 C7 1_555 1_555
N8 C7 1_555 1_555
C7 H3 1_555 1_555
C15 N3 1_555 1_555
H8 C15 1_555 1_555
C16 N8 1_555 1_555
H9 C16 1_555 1_555
C32 N8 1_555 1_555
C79 C32 1_555 1_555
H53 C79 1_555 1_555
C84 C32 1_555 1_555
H58 C84 1_555 1_555
Cd5 N3 1_555 1_555
C15 C16 1_555 1_555
N1 C11 1_555 1_555
N6 C2 1_555 1_555
C1 C12 1_555 1_555
C2 H1 1_555 1_555
C6 N6 1_555 1_555
C10 N13 1_555 1_555
C11 N6 1_555 1_555
H5 C11 1_555 1_555
C12 H6 1_555 1_555
N13 C1 1_555 1_555
C24 N1 1_555 1_555
H15 C24 1_555 1_555
C34 C53 1_555 1_555
C38 H22 1_555 1_555
C50 N13 1_555 1_555
C53 C38 1_555 1_555
H29 C53 1_555 1_555
C58 C6 1_555 1_555
H34 C58 1_555 1_555
C59 C6 1_555 1_555
H35 C59 1_555 1_555
C60 C50 1_555 1_555
H36 C60 1_555 1_555
C61 C1 1_555 1_555
H37 C61 1_555 1_555
C68 C10 1_555 1_555
H44 C68 1_555 1_555
C69 C34 1_555 1_555
H45 C69 1_555 1_555
C72 C10 1_555 1_555
H47 C72 1_555 1_555
Cd5 N1 1_555 1_555
C2 C24 1_555 1_555
C12 C59 1_555 1_555
C38 C50 1_555 1_555
C58 C61 1_555 1_555
C60 C69 1_555 1_555
Cd1 O3 1_555 1_555
C3 C14 1_555 1_555
O3 C14 1_555 1_555
C14 O4 1_555 1_555
C17 H10 1_555 1_555
O4 Cd1 1_555 1_555
C18 H11 1_555 1_555
N14 Cd1 1_555 1_555
C29 C17 1_555 1_555
O5 C70 1_555 1_555
C36 H20 1_555 1_555
C40 C3 1_555 1_555
H23 C40 1_555 1_555
C41 C29 1_555 1_555
C42 N11 1_555 1_555
H24 C42 1_555 1_555
C44 C52 1_555 1_555
C46 C18 1_555 1_555
C52 C17 1_555 1_555
H28 C52 1_555 1_555
C66 C29 1_555 1_555
H42 C66 1_555 1_555
C67 C44 1_555 1_555
H43 C67 1_555 1_555
C70 C44 1_555 1_555
C71 N14 1_555 1_555
H46 C71 1_555 1_555
C73 C3 1_555 1_555
H48 C73 1_555 1_555
C75 N11 1_555 1_555
H49 C75 1_555 1_555
N17 Cd1 1_555 1_555
O11 Cd1 1_555 1_555
C18 C40 1_555 1_555
N14 C42 1_555 1_555
C36 C46 1_555 1_555
C36 C73 1_555 1_555
C41 O8 1_555 1_555
C46 C70 1_555 1_555
C66 C67 1_555 1_555
C71 C75 1_555 1_555
C13 H7 1_555 1_555
C26 O6 1_555 1_555
C37 C13 1_555 1_555
H21 C37 1_555 1_555
O11 C26 1_555 1_555
C45 C13 1_555 1_555
C49 C37 1_555 1_555
C65 C49 1_555 1_555
C77 C45 1_555 1_555
H51 C77 1_555 1_555
O10 C74 1_555 1_555
C26 C45 1_555 1_555
C49 C74 1_555 1_555
C65 C77 1_555 1_555
Cd5 O3_2 1_555 1_555
N15 C11_2 1_555 1_555
N17 C7_2 1_555 1_555
N6_2 C2_2 1_555 1_555
N8_2 C7_2 1_555 1_555
C1_2 C12_2 1_555 1_555
C2_2 H1_2 1_555 1_555
C3_2 C14_2 1_555 1_555
C6_2 N6_2 1_555 1_555
C7_2 H3_2 1_555 1_555
C10_2 N13_2 1_555 1_555
O3_2 C14_2 1_555 1_555
C11_2 N6_2 1_555 1_555
H5_2 C11_2 1_555 1_555
C12_2 H6_2 1_555 1_555
N11_2 C34_2 1_555 1_555
C14_2 O4_2 1_555 1_555
C15_2 N17 1_555 1_555
H8_2 C15_2 1_555 1_555
C16_2 N8_2 1_555 1_555
H9_2 C16_2 1_555 1_555
N13_2 C1_2 1_555 1_555
O4_2 Cd5 1_555 1_555
C18_2 H11_2 1_555 1_555
C24_2 N15 1_555 1_555
H15_2 C24_2 1_555 1_555
N14_2 Cd5 1_555 1_555
C32_2 N8_2 1_555 1_555
C34_2 C53_2 1_555 1_555
C36_2 H20_2 1_555 1_555
C38_2 H22_2 1_555 1_555
C40_2 C3_2 1_555 1_555
H23_2 C40_2 1_555 1_555
C42_2 N11_2 1_555 1_555
H24_2 C42_2 1_555 1_555
C46_2 C18_2 1_555 1_555
C50_2 N13_2 1_555 1_555
C53_2 C38_2 1_555 1_555
H29_2 C53_2 1_555 1_555
C58_2 C6_2 1_555 1_555
H34_2 C58_2 1_555 1_555
C59_2 C6_2 1_555 1_555
H35_2 C59_2 1_555 1_555
C60_2 C50_2 1_555 1_555
H36_2 C60_2 1_555 1_555
C61_2 C1_2 1_555 1_555
H37_2 C61_2 1_555 1_555
C68_2 C10_2 1_555 1_555
H44_2 C68_2 1_555 1_555
C69_2 C34_2 1_555 1_555
H45_2 C69_2 1_555 1_555
C71_2 N14_2 1_555 1_555
H46_2 C71_2 1_555 1_555
C72_2 C10_2 1_555 1_555
H47_2 C72_2 1_555 1_555
C73_2 C3_2 1_555 1_555
H48_2 C73_2 1_555 1_555
C75_2 N11_2 1_555 1_555
H49_2 C75_2 1_555 1_555
C79_2 C32_2 1_555 1_555
H53_2 C79_2 1_555 1_555
C84_2 C32_2 1_555 1_555
H58_2 C84_2 1_555 1_555
C2_2 C24_2 1_555 1_555
C12_2 C59_2 1_555 1_555
C15_2 C16_2 1_555 1_555
C18_2 C40_2 1_555 1_555
N14_2 C42_2 1_555 1_555
C36_2 C46_2 1_555 1_555
C36_2 C73_2 1_555 1_555
C38_2 C50_2 1_555 1_555
C58_2 C61_2 1_555 1_555
C60_2 C69_2 1_555 1_555
C68_2 C84_2 1_555 1_555
C71_2 C75_2 1_555 1_555
C72_2 C79_2 1_555 1_555
N2 C25 1_555 1_555
N4 C5 1_555 1_555
N5 C21 1_555 1_555
N7 C8 1_555 1_555
N9 C19 1_555 1_555
C5 H2 1_555 1_555
C8 C5 1_555 1_555
H4 C8 1_555 1_555
C19 C48 1_555 1_555
C21 C80 1_555 1_555
C23 N5 1_555 1_555
H14 C23 1_555 1_555
C25 N5 1_555 1_555
H16 C25 1_555 1_555
C27 N7 1_555 1_555
C28 H17 1_555 1_555
C30 C54 1_555 1_555
C31 N4 1_555 1_555
H18 C31 1_555 1_555
C33 C27 1_555 1_555
H19 C33 1_555 1_555
C35 N9 1_555 1_555
C43 N9 1_555 1_555
C48 C33 1_555 1_555
H26 C48 1_555 1_555
C51 C19 1_555 1_555
H27 C51 1_555 1_555
C55 C43 1_555 1_555
H31 C55 1_555 1_555
C56 C30 1_555 1_555
H32 C56 1_555 1_555
C63 C27 1_555 1_555
H39 C63 1_555 1_555
C64 N2 1_555 1_555
H40 C64 1_555 1_555
C80 C55 1_555 1_555
H54 C80 1_555 1_555
C81 C35 1_555 1_555
H55 C81 1_555 1_555
C82 C21 1_555 1_555
H56 C82 1_555 1_555
C83 C35 1_555 1_555
H57 C83 1_555 1_555
Cd6 N2 1_555 1_555
N7 C31 1_555 1_555
C23 C64 1_555 1_555
C28 C43 1_555 1_555
C28 C82 1_555 1_555
C51 C63 1_555 1_555
C54 C81 1_555 1_555
C56 C83 1_555 1_555
N12 C57 1_555 1_555
C57 N10 1_555 1_555
H33 C57 1_555 1_555
C76 N12 1_555 1_555
H50 C76 1_555 1_555
C78 N10 1_555 1_555
H52 C78 1_555 1_555
Cd7 N12 1_555 1_555
C76 C78 1_555 1_555
O1 Cd6 1_555 1_555
C4 C9 1_555 1_555
O2 Cd6 1_555 1_555
C9 O1 1_555 1_555
C20 C4 1_555 1_555
H12 C20 1_555 1_555
C22 C4 1_555 1_555
H13 C22 1_555 1_555
C39 C47 1_555 1_555
C47 C20 1_555 1_555
H25 C47 1_555 1_555
C62 C22 1_555 1_555
H38 C62 1_555 1_555
O9 Cd6 1_555 1_555
N18 Cd6 1_555 1_555
O2 C9 1_555 1_555
C39 C62 1_555 1_555
N2_2 C25_2 1_555 1_555
N5_2 C21_2 1_555 1_555
C21_2 C80_2 1_555 1_555
C23_2 N5_2 1_555 1_555
H14_2 C23_2 1_555 1_555
C25_2 N5_2 1_555 1_555
H16_2 C25_2 1_555 1_555
C28_2 H17_2 1_555 1_555
C64_2 N2_2 1_555 1_555
H40_2 C64_2 1_555 1_555
H54_2 C80_2 1_555 1_555
C82_2 C21_2 1_555 1_555
H56_2 C82_2 1_555 1_555
Cd7 N2_2 1_555 1_555
C23_2 C64_2 1_555 1_555
C28_2 C82_2 1_555 1_555
Cd7 N4_2 1_555 1_555
N4_2 C5_2 1_555 1_555
N7_2 C8_2 1_555 1_555
O1_2 Cd7 1_555 1_555
C4_2 C9_2 1_555 1_555
N9_2 C19_2 1_555 1_555
C5_2 H2_2 1_555 1_555
O2_2 Cd7 1_555 1_555
C8_2 C5_2 1_555 1_555
H4_2 C8_2 1_555 1_555
C9_2 O1_2 1_555 1_555
N10_2 C30_2 1_555 1_555
C13_2 H7_2 1_555 1_555
N18 C57_2 1_555 1_555
C17_2 H10_2 1_555 1_555
C19_2 C48_2 1_555 1_555
C20_2 C4_2 1_555 1_555
H12_2 C20_2 1_555 1_555
C22_2 C4_2 1_555 1_555
H13_2 C22_2 1_555 1_555
C27_2 N7_2 1_555 1_555
C29_2 C17_2 1_555 1_555
C30_2 C54_2 1_555 1_555
O5_2 C70_2 1_555 1_555
C31_2 N4_2 1_555 1_555
H18_2 C31_2 1_555 1_555
C33_2 C27_2 1_555 1_555
H19_2 C33_2 1_555 1_555
C35_2 N9_2 1_555 1_555
C37_2 C13_2 1_555 1_555
H21_2 C37_2 1_555 1_555
C39_2 C47_2 1_555 1_555
C41_2 C29_2 1_555 1_555
O7 C26_2 1_555 1_555
C43_2 N9_2 1_555 1_555
C44_2 C52_2 1_555 1_555
C45_2 C13_2 1_555 1_555
C47_2 C20_2 1_555 1_555
H25_2 C47_2 1_555 1_555
C48_2 C33_2 1_555 1_555
H26_2 C48_2 1_555 1_555
C49_2 C37_2 1_555 1_555
C51_2 C19_2 1_555 1_555
H27_2 C51_2 1_555 1_555
C52_2 C17_2 1_555 1_555
H28_2 C52_2 1_555 1_555
C54_2 H30_2 1_555 1_555
C55_2 C43_2 1_555 1_555
H31_2 C55_2 1_555 1_555
C56_2 C30_2 1_555 1_555
H32_2 C56_2 1_555 1_555
C57_2 N10_2 1_555 1_555
H33_2 C57_2 1_555 1_555
C62_2 C22_2 1_555 1_555
H38_2 C62_2 1_555 1_555
C63_2 C27_2 1_555 1_555
H39_2 C63_2 1_555 1_555
O8_2 Cd7 1_555 1_555
C65_2 C49_2 1_555 1_555
H41_2 C65_2 1_555 1_555
C66_2 C29_2 1_555 1_555
H42_2 C66_2 1_555 1_555
C67_2 C44_2 1_555 1_555
O9_2 Cd7 1_555 1_555
C70_2 C44_2 1_555 1_555
C74_2 C39_2 1_555 1_555
C76_2 N18 1_555 1_555
H50_2 C76_2 1_555 1_555
C77_2 C45_2 1_555 1_555
H51_2 C77_2 1_555 1_555
C78_2 N10_2 1_555 1_555
H52_2 C78_2 1_555 1_555
O10_2 C74_2 1_555 1_555
C81_2 C35_2 1_555 1_555
H55_2 C81_2 1_555 1_555
C83_2 C35_2 1_555 1_555
H57_2 C83_2 1_555 1_555
N7_2 C31_2 1_555 1_555
O2_2 C9_2 1_555 1_555
C26_2 C45_2 1_555 1_555
C39_2 C62_2 1_555 1_555
C41_2 O8_2 1_555 1_555
C41_2 O9_2 1_555 1_555
C49_2 C74_2 1_555 1_555
C51_2 C63_2 1_555 1_555
C54_2 C81_2 1_555 1_555
C56_2 C83_2 1_555 1_555
C65_2 C77_2 1_555 1_555
C66_2 C67_2 1_555 1_555
C76_2 C78_2 1_555 1_555
Cd1_2 O3_3 1_555 1_555
N1_2 C11_3 1_555 1_555
N3_2 C7_3 1_555 1_555
N6_3 C2_3 1_555 1_555
N8_3 C7_3 1_555 1_555
C1_3 C12_3 1_555 1_555
C2_3 H1_3 1_555 1_555
C3_3 C14_3 1_555 1_555
C6_3 N6_3 1_555 1_555
C7_3 H3_3 1_555 1_555
C10_3 N13_3 1_555 1_555
O3_3 C14_3 1_555 1_555
C11_3 N6_3 1_555 1_555
H5_3 C11_3 1_555 1_555
C12_3 H6_3 1_555 1_555
N11_3 C34_3 1_555 1_555
C14_3 O4_3 1_555 1_555
C15_3 N3_2 1_555 1_555
H8_3 C15_3 1_555 1_555
C16_3 N8_3 1_555 1_555
H9_3 C16_3 1_555 1_555
N13_3 C1_3 1_555 1_555
O4_3 Cd1_2 1_555 1_555
C18_3 H11_3 1_555 1_555
C24_3 N1_2 1_555 1_555
H15_3 C24_3 1_555 1_555
N14_3 Cd1_2 1_555 1_555
C32_3 N8_3 1_555 1_555
C34_3 C53_3 1_555 1_555
C36_3 H20_3 1_555 1_555
C38_3 H22_3 1_555 1_555
C40_3 C3_3 1_555 1_555
H23_3 C40_3 1_555 1_555
C42_3 N11_3 1_555 1_555
H24_3 C42_3 1_555 1_555
C46_3 C18_3 1_555 1_555
C50_3 N13_3 1_555 1_555
C53_3 C38_3 1_555 1_555
H29_3 C53_3 1_555 1_555
C58_3 C6_3 1_555 1_555
H34_3 C58_3 1_555 1_555
C59_3 C6_3 1_555 1_555
H35_3 C59_3 1_555 1_555
C60_3 C50_3 1_555 1_555
H36_3 C60_3 1_555 1_555
C61_3 C1_3 1_555 1_555
H37_3 C61_3 1_555 1_555
C68_3 C10_3 1_555 1_555
H44_3 C68_3 1_555 1_555
C69_3 C34_3 1_555 1_555
H45_3 C69_3 1_555 1_555
C71_3 N14_3 1_555 1_555
H46_3 C71_3 1_555 1_555
C72_3 C10_3 1_555 1_555
H47_3 C72_3 1_555 1_555
C73_3 C3_3 1_555 1_555
H48_3 C73_3 1_555 1_555
C75_3 N11_3 1_555 1_555
H49_3 C75_3 1_555 1_555
C79_3 C32_3 1_555 1_555
H53_3 C79_3 1_555 1_555
C84_3 C32_3 1_555 1_555
H58_3 C84_3 1_555 1_555
Cd4 N3_2 1_555 1_555
N15_2 Cd1_2 1_555 1_555
N17_2 Cd1_2 1_555 1_555
C2_3 C24_3 1_555 1_555
C12_3 C59_3 1_555 1_555
C15_3 C16_3 1_555 1_555
C18_3 C40_3 1_555 1_555
N14_3 C42_3 1_555 1_555
C36_3 C46_3 1_555 1_555
C36_3 C73_3 1_555 1_555
C38_3 C50_3 1_555 1_555
C58_3 C61_3 1_555 1_555
C60_3 C69_3 1_555 1_555
C68_3 C84_3 1_555 1_555
C71_3 C75_3 1_555 1_555
C72_3 C79_3 1_555 1_555
C13_3 H7_3 1_555 1_555
C26_3 O6_4 1_555 1_555
C37_3 C13_3 1_555 1_555
H21_3 C37_3 1_555 1_555
O7_2 C26_3 1_555 1_555
C45_3 C13_3 1_555 1_555
C49_3 C37_3 1_555 1_555
C65_3 C49_3 1_555 1_555
C77_3 C45_3 1_555 1_555
H51_3 C77_3 1_555 1_555
O10_3 C74_3 1_555 1_555
Cd4 O7_2 1_555 1_555
C26_3 C45_3 1_555 1_555
C49_3 C74_3 1_555 1_555
C65_3 C77_3 1_555 1_555
Cd4 O3_4 1_555 1_555
C3_4 C14_4 1_555 1_555
O3_4 C14_4 1_555 1_555
C14_4 O4_4 1_555 1_555
C17_3 H10_3 1_555 1_555
O4_4 Cd4 1_555 1_555
C18_4 H11_4 1_555 1_555
N14_4 Cd4 1_555 1_555
C29_3 C17_3 1_555 1_555
O5_3 C70_3 1_555 1_555
C36_4 H20_4 1_555 1_555
C40_4 C3_4 1_555 1_555
H23_4 C40_4 1_555 1_555
C41_3 C29_3 1_555 1_555
C42_4 N11_4 1_555 1_555
H24_4 C42_4 1_555 1_555
C44_3 C52_3 1_555 1_555
C46_4 C18_4 1_555 1_555
C52_3 C17_3 1_555 1_555
H28_3 C52_3 1_555 1_555
C66_3 C29_3 1_555 1_555
H42_3 C66_3 1_555 1_555
C67_3 C44_3 1_555 1_555
H43_4 C67_3 1_555 1_555
C70_3 C44_3 1_555 1_555
C71_4 N14_4 1_555 1_555
H46_4 C71_4 1_555 1_555
C73_4 C3_4 1_555 1_555
H48_4 C73_4 1_555 1_555
C75_4 N11_4 1_555 1_555
H49_4 C75_4 1_555 1_555
C18_4 C40_4 1_555 1_555
N14_4 C42_4 1_555 1_555
C36_4 C46_4 1_555 1_555
C36_4 C73_4 1_555 1_555
C41_3 O8_3 1_555 1_555
C46_4 C70_3 1_555 1_555
C66_3 C67_3 1_555 1_555
C71_4 C75_4 1_555 1_555
N15_2 C11_4 1_555 1_555
N6_4 C2_4 1_555 1_555
C1_4 C12_4 1_555 1_555
C2_4 H1_4 1_555 1_555
C6_4 N6_4 1_555 1_555
C10_4 N13_4 1_555 1_555
C11_4 N6_4 1_555 1_555
H5_4 C11_4 1_555 1_555
C12_4 H6_4 1_555 1_555
N13_4 C1_4 1_555 1_555
C24_4 N15_2 1_555 1_555
H15_4 C24_4 1_555 1_555
C34_4 C53_4 1_555 1_555
C38_4 H22_4 1_555 1_555
C50_4 N13_4 1_555 1_555
C53_4 C38_4 1_555 1_555
H29_4 C53_4 1_555 1_555
C58_4 C6_4 1_555 1_555
H34_4 C58_4 1_555 1_555
C59_4 C6_4 1_555 1_555
H35_4 C59_4 1_555 1_555
C60_4 C50_4 1_555 1_555
H36_4 C60_4 1_555 1_555
C61_4 C1_4 1_555 1_555
H37_4 C61_4 1_555 1_555
C68_4 C10_4 1_555 1_555
H44_4 C68_4 1_555 1_555
C69_4 C34_4 1_555 1_555
H45_4 C69_4 1_555 1_555
C72_4 C10_4 1_555 1_555
H47_4 C72_4 1_555 1_555
C2_4 C24_4 1_555 1_555
C12_4 C59_4 1_555 1_555
C38_4 C50_4 1_555 1_555
C58_4 C61_4 1_555 1_555
C60_4 C69_4 1_555 1_555
N17_2 C7_4 1_555 1_555
N8_4 C7_4 1_555 1_555
C7_4 H3_4 1_555 1_555
C15_4 N17_2 1_555 1_555
H8_4 C15_4 1_555 1_555
C16_4 N8_4 1_555 1_555
H9_4 C16_4 1_555 1_555
C32_4 N8_4 1_555 1_555
C79_4 C32_4 1_555 1_555
H53_4 C79_4 1_555 1_555
C84_4 C32_4 1_555 1_555
H58_4 C84_4 1_555 1_555
C15_4 C16_4 1_555 1_555
Cd2 N4_3 1_555 1_555
N4_3 C5_3 1_555 1_555
N7_3 C8_3 1_555 1_555
O1_3 Cd2 1_555 1_555
C4_3 C9_3 1_555 1_555
N9_3 C19_3 1_555 1_555
C5_3 H2_3 1_555 1_555
O2_3 Cd2 1_555 1_555
C8_3 C5_3 1_555 1_555
H4_3 C8_3 1_555 1_555
C9_3 O1_3 1_555 1_555
N10_3 C30_3 1_555 1_555
C13_4 H7_4 1_555 1_555
N12_2 C57_3 1_555 1_555
C17_4 H10_4 1_555 1_555
C19_3 C48_3 1_555 1_555
C20_3 C4_3 1_555 1_555
H12_3 C20_3 1_555 1_555
C22_3 C4_3 1_555 1_555
H13_3 C22_3 1_555 1_555
C27_3 N7_3 1_555 1_555
C29_4 C17_4 1_555 1_555
C30_3 C54_3 1_555 1_555
O5_4 C70_4 1_555 1_555
C31_3 N4_3 1_555 1_555
H18_3 C31_3 1_555 1_555
C33_3 C27_3 1_555 1_555
H19_3 C33_3 1_555 1_555
C35_3 N9_3 1_555 1_555
C37_4 C13_4 1_555 1_555
H21_4 C37_4 1_555 1_555
C39_3 C47_3 1_555 1_555
C41_4 C29_4 1_555 1_555
O11_2 C26_4 1_555 1_555
C43_3 N9_3 1_555 1_555
C44_4 C52_4 1_555 1_555
C45_4 C13_4 1_555 1_555
C47_3 C20_3 1_555 1_555
H25_3 C47_3 1_555 1_555
C48_3 C33_3 1_555 1_555
H26_3 C48_3 1_555 1_555
C49_4 C37_4 1_555 1_555
C51_3 C19_3 1_555 1_555
H27_3 C51_3 1_555 1_555
C52_4 C17_4 1_555 1_555
H28_4 C52_4 1_555 1_555
C54_3 H30_3 1_555 1_555
C55_3 C43_3 1_555 1_555
H31_3 C55_3 1_555 1_555
C56_3 C30_3 1_555 1_555
H32_3 C56_3 1_555 1_555
C57_3 N10_3 1_555 1_555
H33_3 C57_3 1_555 1_555
C62_3 C22_3 1_555 1_555
H38_3 C62_3 1_555 1_555
C63_3 C27_3 1_555 1_555
H39_3 C63_3 1_555 1_555
O8_4 Cd2 1_555 1_555
C65_4 C49_4 1_555 1_555
H41_3 C65_4 1_555 1_555
C66_4 C29_4 1_555 1_555
H42_4 C66_4 1_555 1_555
C67_4 C44_4 1_555 1_555
O9_3 Cd2 1_555 1_555
C70_4 C44_4 1_555 1_555
C74_4 C39_3 1_555 1_555
C76_3 N12_2 1_555 1_555
H50_3 C76_3 1_555 1_555
C77_4 C45_4 1_555 1_555
H51_4 C77_4 1_555 1_555
C78_3 N10_3 1_555 1_555
H52_3 C78_3 1_555 1_555
O10_4 C74_4 1_555 1_555
C81_3 C35_3 1_555 1_555
H55_3 C81_3 1_555 1_555
C83_3 C35_3 1_555 1_555
H57_3 C83_3 1_555 1_555
Cd7_2 N12_2 1_555 1_555
N16 Cd2 1_555 1_555
N18_2 Cd2 1_555 1_555
N7_3 C31_3 1_555 1_555
O2_3 C9_3 1_555 1_555
C26_4 C45_4 1_555 1_555
C39_3 C62_3 1_555 1_555
C41_4 O8_4 1_555 1_555
C41_4 O9_3 1_555 1_555
C49_4 C74_4 1_555 1_555
C51_3 C63_3 1_555 1_555
C54_3 C81_3 1_555 1_555
C56_3 C83_3 1_555 1_555
C65_4 C77_4 1_555 1_555
C66_4 C67_4 1_555 1_555
C76_3 C78_3 1_555 1_555
N16 C25_3 1_555 1_555
N5_3 C21_3 1_555 1_555
C21_3 C80_3 1_555 1_555
C23_3 N5_3 1_555 1_555
H14_3 C23_3 1_555 1_555
C25_3 N5_3 1_555 1_555
H16_3 C25_3 1_555 1_555
C28_3 H17_3 1_555 1_555
C64_3 N16 1_555 1_555
H40_3 C64_3 1_555 1_555
H54_3 C80_3 1_555 1_555
C82_3 C21_3 1_555 1_555
H56_3 C82_3 1_555 1_555
C23_3 C64_3 1_555 1_555
C28_3 C82_3 1_555 1_555
O1_4 Cd7_2 1_555 1_555
C4_4 C9_4 1_555 1_555
O2_4 Cd7_2 1_555 1_555
C9_4 O1_4 1_555 1_555
C20_4 C4_4 1_555 1_555
H12_4 C20_4 1_555 1_555
C22_4 C4_4 1_555 1_555
H13_4 C22_4 1_555 1_555
C39_4 C47_4 1_555 1_555
C47_4 C20_4 1_555 1_555
H25_4 C47_4 1_555 1_555
C62_4 C22_4 1_555 1_555
H38_4 C62_4 1_555 1_555
O9_4 Cd7_2 1_555 1_555
N16_2 Cd7_2 1_555 1_555
O2_4 C9_4 1_555 1_555
C39_4 C62_4 1_555 1_555
N18_2 C57_4 1_555 1_555
C57_4 N10_4 1_555 1_555
H33_4 C57_4 1_555 1_555
C76_4 N18_2 1_555 1_555
H50_4 C76_4 1_555 1_555
C78_4 N10_4 1_555 1_555
H52_4 C78_4 1_555 1_555
C76_4 C78_4 1_555 1_555
N16_2 C25_4 1_555 1_555
N4_4 C5_4 1_555 1_555
N5_4 C21_4 1_555 1_555
N7_4 C8_4 1_555 1_555
N9_4 C19_4 1_555 1_555
C5_4 H2_4 1_555 1_555
C8_4 C5_4 1_555 1_555
H4_4 C8_4 1_555 1_555
C19_4 C48_4 1_555 1_555
C21_4 C80_4 1_555 1_555
C23_4 N5_4 1_555 1_555
H14_4 C23_4 1_555 1_555
C25_4 N5_4 1_555 1_555
H16_4 C25_4 1_555 1_555
C27_4 N7_4 1_555 1_555
C28_4 H17_4 1_555 1_555
C30_4 C54_4 1_555 1_555
C31_4 N4_4 1_555 1_555
H18_4 C31_4 1_555 1_555
C33_4 C27_4 1_555 1_555
H19_4 C33_4 1_555 1_555
C35_4 N9_4 1_555 1_555
C43_4 N9_4 1_555 1_555
C48_4 C33_4 1_555 1_555
H26_4 C48_4 1_555 1_555
C51_4 C19_4 1_555 1_555
H27_4 C51_4 1_555 1_555
C55_4 C43_4 1_555 1_555
H31_4 C55_4 1_555 1_555
C56_4 C30_4 1_555 1_555
H32_4 C56_4 1_555 1_555
C63_4 C27_4 1_555 1_555
H39_4 C63_4 1_555 1_555
C64_4 N16_2 1_555 1_555
H40_4 C64_4 1_555 1_555
C80_4 C55_4 1_555 1_555
H54_4 C80_4 1_555 1_555
C81_4 C35_4 1_555 1_555
H55_4 C81_4 1_555 1_555
C82_4 C21_4 1_555 1_555
H56_4 C82_4 1_555 1_555
C83_4 C35_4 1_555 1_555
H57_4 C83_4 1_555 1_555
N7_4 C31_4 1_555 1_555
C23_4 C64_4 1_555 1_555
C28_4 C43_4 1_555 1_555
C28_4 C82_4 1_555 1_555
C51_4 C63_4 1_555 1_555
C54_4 C81_4 1_555 1_555
C56_4 C83_4 1_555 1_555

#END
