
###############################################################################
#
# This file contains modified crystal structure data generated from the
# MOF subset of the Cambridge Structural Database (CSD) v543 
# hosted by the Cambridge Crystallographic Data Centre (CCDC).
#
# This work is licensed under the Creative Commons
# Attribution-NonCommercial-ShareAlike 4.0 International License.
# To view a copy of this license, visit
# http://creativecommons.org/licenses/by-nc-sa/4.0/
# or send a letter to
# Creative Commons, PO Box 1866, Mountain View, CA 94042, USA.
#
# CIF created using the CSD Python API on 29 September 2022
# The structure has been converted into the P1 space group
# The structure has a 3D framework
# The original CSD entry UZEFAJ is in the monoclinic crystal system
# The framework has been calculated to contain at least 10.0% void space
# The void calculation uses a probe of radius 1.32A, grid spacing 0.4
#
###############################################################################

data_UZEFAJ
_chemical_formula_moiety         '(C328 H232 Cd8 N54 O40)n'
_symmetry_cell_setting           triclinic
_symmetry_space_group_name_H-M   'P 1'
_symmetry_Int_Tables_number      1
_space_group_name_Hall           'P 1'
loop_
_symmetry_equiv_pos_site_id
_symmetry_equiv_pos_as_xyz
1 x,y,z
_cell_length_a                   18.151(5)
_cell_length_b                   18.053(5)
_cell_length_c                   24.485(7)
_cell_angle_alpha                90
_cell_angle_beta                 90.522(4)
_cell_angle_gamma                90
_cell_volume                     8022.91
loop_
_atom_site_label
_atom_site_type_symbol
_atom_site_fract_x
_atom_site_fract_y
_atom_site_fract_z
C29 C 0.2523(3) 0.1175(3) 0.7776(2)
H17 H 0.267602 0.118527 0.741458
C30 C 0.2530(3) 0.1115(4) 0.8646(3)
H18 H 0.269886 0.108000 0.900445
C31 C 0.1817(3) 0.1162(4) 0.8492(2)
H19 H 0.140919 0.116358 0.871985
C32 C 0.1157(3) 0.1243(3) 0.7592(2)
C33 C 0.0529(3) 0.0881(3) 0.7754(2)
H20 H 0.053493 0.060310 0.807387
C36 C 0.0536(3) 0.1685(3) 0.6792(2)
H22 H 0.053980 0.194575 0.646470
C37 C 0.1166(3) 0.1631(3) 0.7100(2)
H23 H 0.159909 0.185175 0.698176
N8 N 0.2968(2) 0.1126(3) 0.81975(19)
N9 N 0.1813(2) 0.1209(3) 0.79328(18)
Cd3 Cd 0.42571(2) 0.08554(2) 0.82056(2)
C1 C 0.3671(3) 0.4727(4) 0.3898(3)
C2 C 0.3682(3) 0.3979(3) 0.4169(2)
C3 C 0.3950(3) 0.3367(3) 0.3893(2)
H1 H 0.411475 0.342256 0.353669
C4 C 0.3978(3) 0.2679(4) 0.4133(2)
H2 H 0.416443 0.227557 0.394385
C5 C 0.3725(3) 0.2596(4) 0.4659(2)
C6 C 0.3437(4) 0.3194(4) 0.4938(3)
H3 H 0.325528 0.312870 0.528836
C7 C 0.3415(3) 0.3886(4) 0.4702(2)
H4 H 0.322624 0.428712 0.489346
C8 C 0.3885(4) 0.1764(4) 0.5421(2)
C9 C 0.3550(4) 0.1147(4) 0.5649(2)
H5 H 0.325062 0.083941 0.543739
C10 C 0.3673(3) 0.0998(4) 0.6204(2)
H6 H 0.344767 0.058923 0.636261
C11 C 0.4120(3) 0.1445(3) 0.6518(2)
C12 C 0.4445(3) 0.2070(3) 0.6281(2)
H7 H 0.473603 0.238512 0.649174
C13 C 0.4334(3) 0.2216(4) 0.5736(2)
H8 H 0.456225 0.262311 0.557689
C14 C 0.4233(3) 0.1300(4) 0.7118(2)
C34 C 0.9893(3) 0.0925(3) 0.7445(2)
H21 H 0.947095 0.067549 0.755453
C35 C 0.9883(3) 0.1347(3) 0.6969(2)
C38 C 0.9596(3) 0.2491(4) 0.3640(2)
H24 H 0.977990 0.239226 0.329461
C39 C 0.9558(4) 0.1993(4) 0.4046(2)
H25 H 0.970306 0.149930 0.403320
C40 C 0.9147(3) 0.3061(4) 0.4313(2)
H26 H 0.895885 0.343462 0.453276
C41 C 0.9193(3) 0.2087(3) 0.5029(2)
C42 C 0.8744(3) 0.2445(4) 0.5400(2)
H27 H 0.844404 0.283462 0.528733
C43 C 0.8747(3) 0.2215(4) 0.5941(2)
H28 H 0.845153 0.245890 0.619174
C44 C 0.9186(3) 0.1625(3) 0.6115(2)
C45 C 0.9606(3) 0.1256(4) 0.5736(2)
H29 H 0.988883 0.085094 0.584391
C46 C 0.9612(3) 0.1479(4) 0.5203(2)
H30 H 0.989765 0.122312 0.495167
C47 C 0.5960(3) 0.0982(3) 0.7796(2)
H31 H 0.579775 0.098594 0.743443
C48 C 0.5974(3) 0.0915(3) 0.8668(2)
H32 H 0.581607 0.085867 0.902591
C49 C 0.6682(3) 0.1047(3) 0.8518(2)
H33 H 0.708943 0.110118 0.874677
C50 C 0.7291(3) 0.1201(3) 0.7604(2)
C51 C 0.7806(3) 0.1722(3) 0.7744(2)
H34 H 0.773990 0.201641 0.805130
C52 C 0.8422(3) 0.1809(3) 0.7428(2)
H35 H 0.877024 0.216472 0.752214
C53 C 0.8529(3) 0.1376(3) 0.6973(2)
C54 C 0.8007(3) 0.0879(3) 0.6826(2)
H36 H 0.806646 0.060086 0.650936
C55 C 0.7383(3) 0.0780(3) 0.7141(2)
H37 H 0.702965 0.043157 0.703978
C74 C 0.1983(3) 0.6086(3) 0.2691(2)
H52 H 0.213691 0.618021 0.233622
C75 C 0.1275(4) 0.5904(4) 0.3390(3)
H53 H 0.086768 0.584247 0.361342
C76 C 0.1992(3) 0.5852(4) 0.3540(3)
H54 H 0.216000 0.575613 0.389337
C77 C 0.0621(3) 0.6186(3) 0.2519(2)
C78 C 0.0041(3) 0.6551(4) 0.2752(2)
H55 H 0.008346 0.673749 0.310509
C82 C 0.0566(3) 0.5900(4) 0.1992(2)
H58 H 0.096081 0.565043 0.183666
Cd2 Cd 0.37108(2) 0.59646(2) 0.31524(2)
N1 N 0.2430(2) 0.5960(3) 0.31030(19)
N2 N 0.1269(2) 0.6064(3) 0.28453(19)
N10 N 0.5531(2) 0.0877(3) 0.82158(18)
N11 N 0.6669(2) 0.1083(3) 0.79535(17)
N12 N 0.9333(2) 0.3156(3) 0.38003(17)
N13 N 0.9260(2) 0.2362(3) 0.44839(18)
N14 N 0.9204(2) 0.1429(3) 0.66765(18)
O1 O 0.3558(3) 0.5293(3) 0.41881(19)
O2 O 0.3780(2) 0.4756(2) 0.33929(17)
O3 O 0.3738(3) 0.1878(3) 0.48686(16)
O4 O 0.4428(2) 0.1805(2) 0.74252(15)
O5 O 0.4104(2) 0.0646(2) 0.72799(15)
Cd4 Cd 0.92571(2) 0.41446(2) 0.32056(2)
N15 N 0.3579(2) 0.6982(3) 0.37237(18)
N16 N 0.4979(2) 0.6045(3) 0.32459(18)
N18 N 0.4333(2) 0.1844(3) 0.88003(17)
O11 O 0.3624(3) 0.6622(4) 0.2333(2)
O12 O 0.4078(5) 0.5560(4) 0.2096(3)
C15 C 0.3746(4) 0.6132(5) 0.2006(3)
C16 C 0.3608(3) 0.6288(4) 0.1396(2)
C17 C 0.3736(4) 0.5789(4) 0.0990(3)
H9 H 0.391566 0.532254 0.108255
C18 C 0.3608(4) 0.5953(4) 0.0439(3)
H10 H 0.370440 0.560618 0.016754
C19 C 0.3334(4) 0.6646(4) 0.0310(3)
C20 C 0.3176(4) 0.7154(4) 0.0717(3)
H11 H 0.297390 0.761200 0.062879
C21 C 0.3323(3) 0.6971(4) 0.1257(3)
H12 H 0.322785 0.731510 0.152962
H15 H 0.426830 0.766886 0.009805
C59 C 0.8520(3) 0.7081(4) 0.0018(2)
C60 C 0.7995(4) 0.6607(4) 0.0217(3)
C61 C 0.8032(3) 0.6368(4) 0.0761(2)
H42 H 0.769240 0.602789 0.089248
C62 C 0.8586(3) 0.6648(3) 0.1104(2)
C63 C 0.9096(3) 0.7155(4) 0.0901(2)
H43 H 0.945406 0.735679 0.113067
C64 C 0.9066(3) 0.7356(4) 0.0359(2)
H44 H 0.941699 0.767978 0.022037
C65 C 0.5424(3) 0.5861(3) 0.3678(2)
H45 H 0.525476 0.571916 0.401951
C66 C 0.6129(3) 0.5910(3) 0.3545(2)
H46 H 0.653374 0.581226 0.376897
C67 C 0.5428(3) 0.6207(3) 0.2846(2)
H47 H 0.527521 0.635121 0.249846
C68 C 0.6777(3) 0.6223(3) 0.2652(2)
C69 C 0.6813(3) 0.6818(3) 0.2302(2)
H48 H 0.644148 0.717243 0.229432
C70 C 0.7415(3) 0.6877(3) 0.1962(2)
H49 H 0.744974 0.727479 0.172226
C71 C 0.7971(3) 0.6342(3) 0.1976(2)
C72 C 0.7923(3) 0.5758(3) 0.2338(2)
H50 H 0.829631 0.540553 0.235362
C73 C 0.7327(3) 0.5693(3) 0.2674(2)
H51 H 0.729305 0.529697 0.291535
C79 C 0.9388(3) 0.6643(4) 0.2457(2)
H56 H 0.899530 0.689643 0.261175
C80 C 0.9320(3) 0.6358(3) 0.1935(2)
C81 C 0.9911(3) 0.5996(4) 0.1701(2)
H57 H 0.986998 0.581466 0.134622
N3 N 0.8622(2) 0.6410(3) 0.16553(18)
N7 N 0.6140(2) 0.6138(3) 0.30022(17)
C56 C 0.8399(4) 0.7323(4) 0.8571(3)
H38 H 0.832136 0.717598 0.821136
C57 C 0.8345(4) 0.6856(4) 0.9016(3)
H39 H 0.823409 0.635277 0.901818
C58 C 0.8621(3) 0.7990(3) 0.9259(2)
H40 H 0.872912 0.839844 0.947676
H41 H 0.761439 0.644452 0.998998
N4 N 0.8579(2) 0.8018(3) 0.87237(18)
N5 N 0.8493(3) 0.7311(3) 0.94573(18)
Cd7 Cd 0.87108(2) 0.90354(2) 0.81524(2)
C29_2 C 0.7523(3) 0.3825(3) 0.2776(2)
H17_2 H 0.767602 0.381473 0.241458
C30_2 C 0.7530(3) 0.3885(4) 0.3646(3)
H18_2 H 0.769886 0.392000 0.400445
C31_2 C 0.6817(3) 0.3838(4) 0.3492(2)
H19_2 H 0.640919 0.383642 0.371985
C32_2 C 0.6157(3) 0.3757(3) 0.2592(2)
C33_2 C 0.5529(3) 0.4119(3) 0.2754(2)
H20_2 H 0.553493 0.439690 0.307387
C34_2 C 0.4893(3) 0.4075(3) 0.2445(2)
H21_2 H 0.447095 0.432451 0.255453
C35_2 C 0.4883(3) 0.3653(3) 0.1969(2)
C36_2 C 0.5536(3) 0.3315(3) 0.1792(2)
H22_2 H 0.553980 0.305425 0.146470
C37_2 C 0.6166(3) 0.3369(3) 0.2100(2)
H23_2 H 0.659909 0.314825 0.198176
C41_2 C 0.4193(3) 0.2913(3) 0.0029(2)
C42_2 C 0.3744(3) 0.2555(4) 0.0400(2)
H27_2 H 0.344404 0.216538 0.028733
C43_2 C 0.3747(3) 0.2785(4) 0.0941(2)
H28_2 H 0.345153 0.254110 0.119174
C44_2 C 0.4186(3) 0.3375(3) 0.1115(2)
C45_2 C 0.4606(3) 0.3744(4) 0.0736(2)
H29_2 H 0.488883 0.414906 0.084391
C46_2 C 0.4612(3) 0.3521(4) 0.0203(2)
C47_2 C 0.0960(3) 0.4018(3) 0.2796(2)
H31_2 H 0.079775 0.401406 0.243443
C48_2 C 0.0974(3) 0.4085(3) 0.3668(2)
H32_2 H 0.081607 0.414133 0.402591
C49_2 C 0.1682(3) 0.3953(3) 0.3518(2)
H33_2 H 0.208943 0.389882 0.374677
C50_2 C 0.2291(3) 0.3799(3) 0.2604(2)
C51_2 C 0.2806(3) 0.3278(3) 0.2744(2)
H34_2 H 0.273990 0.298359 0.305130
C52_2 C 0.3422(3) 0.3191(3) 0.2428(2)
H35_2 H 0.377024 0.283528 0.252214
C53_2 C 0.3529(3) 0.3624(3) 0.1973(2)
C54_2 C 0.3007(3) 0.4121(3) 0.1826(2)
H36_2 H 0.306646 0.439914 0.150936
C55_2 C 0.2383(3) 0.4220(3) 0.2141(2)
H37_2 H 0.202965 0.456843 0.203978
N8_2 N 0.7968(2) 0.3874(3) 0.31975(19)
N9_2 N 0.6813(2) 0.3791(3) 0.29328(18)
N10_2 N 0.0531(2) 0.4123(3) 0.32158(18)
N11_2 N 0.1669(2) 0.3917(3) 0.29535(17)
N14_2 N 0.4204(2) 0.3571(3) 0.16765(18)
C38_2 C 0.4596(3) 0.2509(4) 0.8640(2)
H24_2 H 0.477990 0.260774 0.829461
C39_2 C 0.4558(4) 0.3007(4) 0.9046(2)
H25_2 H 0.470306 0.350070 0.903320
C40_2 C 0.4147(3) 0.1939(4) 0.9313(2)
H26_2 H 0.395885 0.156538 0.953276
H30_2 H 0.489765 0.377688 0.995167
N13_2 N 0.4260(2) 0.2638(3) 0.94839(18)
H3_2 H 0.825528 0.187130 0.028836
C8_2 C 0.8885(4) 0.3236(4) 0.0421(2)
C9_2 C 0.8550(4) 0.3853(4) 0.0649(2)
H5_2 H 0.825062 0.416059 0.043739
C10_2 C 0.8673(3) 0.4002(4) 0.1204(2)
H6_2 H 0.844767 0.441077 0.136261
C11_2 C 0.9120(3) 0.3555(3) 0.1518(2)
C12_2 C 0.9445(3) 0.2930(3) 0.1281(2)
H7_2 H 0.973603 0.261488 0.149174
C13_2 C 0.9334(3) 0.2784(4) 0.0736(2)
H8_2 H 0.956225 0.237689 0.057689
C14_2 C 0.9233(3) 0.3700(4) 0.2118(2)
C15_2 C 0.8746(4) 0.8868(5) 0.7006(3)
C16_2 C 0.8608(3) 0.8712(4) 0.6396(2)
C17_2 C 0.8736(4) 0.9211(4) 0.5990(3)
H9_2 H 0.891566 0.967746 0.608255
C18_2 C 0.8608(4) 0.9047(4) 0.5439(3)
H10_2 H 0.870440 0.939382 0.516754
C19_2 C 0.8334(4) 0.8354(4) 0.5310(3)
C20_2 C 0.8176(4) 0.7846(4) 0.5717(3)
H11_2 H 0.797390 0.738800 0.562879
C21_2 C 0.8323(3) 0.8029(4) 0.6257(3)
H12_2 H 0.822785 0.768490 0.652962
C22 C 0.9144(3) 0.5473(4) 0.3859(3)
C23 C 0.8916(3) 0.6208(3) 0.4090(2)
C24 C 0.8359(3) 0.6619(3) 0.3861(2)
H13 H 0.813505 0.645424 0.354022
C25 C 0.8122(3) 0.7265(3) 0.4092(2)
H14 H 0.773583 0.753021 0.393486
C26 C 0.8463(3) 0.7519(4) 0.4561(2)
C27 C 0.9029(4) 0.7143(4) 0.4791(3)
H15_2 H 0.926830 0.733114 0.509805
C28 C 0.9254(3) 0.6474(4) 0.4566(3)
H16 H 0.962980 0.620342 0.473317
O4_2 O 0.9428(2) 0.3195(2) 0.24252(15)
O5_2 O 0.9104(2) 0.4354(2) 0.22799(15)
O6 O 0.8892(2) 0.5290(2) 0.34132(18)
O7 O 0.9564(3) 0.5067(3) 0.4114(2)
O8 O 0.8209(3) 0.8194(3) 0.47658(17)
O9 O 0.8624(3) 0.8378(4) 0.7333(2)
O10 O 0.9078(5) 0.9440(4) 0.7096(3)
C56_2 C 0.3399(4) 0.7677(4) 0.3571(3)
H38_2 H 0.332136 0.782402 0.321136
C57_2 C 0.3345(4) 0.8144(4) 0.4016(3)
H39_2 H 0.323409 0.864723 0.401818
C58_2 C 0.3621(3) 0.7010(3) 0.4259(2)
H40_2 H 0.372912 0.660156 0.447676
C59_2 C 0.3520(3) 0.7919(4) 0.5018(2)
C60_2 C 0.2995(4) 0.8393(4) 0.5217(3)
H41_2 H 0.261439 0.855548 0.498998
C61_2 C 0.3032(3) 0.8632(4) 0.5761(2)
H42_2 H 0.269240 0.897211 0.589248
C62_2 C 0.3586(3) 0.8352(3) 0.6104(2)
C63_2 C 0.4096(3) 0.7845(4) 0.5901(2)
H43_2 H 0.445406 0.764321 0.613067
C64_2 C 0.4066(3) 0.7644(4) 0.5359(2)
H44_2 H 0.441699 0.732022 0.522037
C65_2 C 0.0424(3) 0.9139(3) 0.8678(2)
H45_2 H 0.025476 0.928084 0.901951
C66_2 C 0.1129(3) 0.9090(3) 0.8545(2)
H46_2 H 0.153374 0.918774 0.876897
C67_2 C 0.0428(3) 0.8793(3) 0.7846(2)
H47_2 H 0.027521 0.864879 0.749846
C68_2 C 0.1777(3) 0.8777(3) 0.7652(2)
C69_2 C 0.1813(3) 0.8182(3) 0.7302(2)
H48_2 H 0.144148 0.782757 0.729432
C70_2 C 0.2415(3) 0.8123(3) 0.6962(2)
H49_2 H 0.244974 0.772521 0.672226
C71_2 C 0.2971(3) 0.8658(3) 0.6976(2)
C72_2 C 0.2923(3) 0.9242(3) 0.7338(2)
H50_2 H 0.329631 0.959447 0.735362
C73_2 C 0.2327(3) 0.9307(3) 0.7674(2)
H51_2 H 0.229305 0.970303 0.791535
C74_2 C 0.6983(3) 0.8914(3) 0.7691(2)
H52_2 H 0.713691 0.881979 0.733622
C75_2 C 0.6275(4) 0.9096(4) 0.8390(3)
H53_2 H 0.586768 0.915753 0.861342
C76_2 C 0.6992(3) 0.9148(4) 0.8540(3)
H54_2 H 0.716000 0.924387 0.889337
C77_2 C 0.5621(3) 0.8814(3) 0.7519(2)
C78_2 C 0.5041(3) 0.8449(4) 0.7752(2)
H55_2 H 0.508346 0.826251 0.810509
C79_2 C 0.4388(3) 0.8357(4) 0.7457(2)
H56_2 H 0.399530 0.810357 0.761175
C80_2 C 0.4320(3) 0.8642(3) 0.6935(2)
C81_2 C 0.4911(3) 0.9004(4) 0.6701(2)
H57_2 H 0.486998 0.918534 0.634622
C82_2 C 0.5566(3) 0.9100(4) 0.6992(2)
H58_2 H 0.596081 0.934957 0.683666
N1_2 N 0.7430(2) 0.9040(3) 0.81030(19)
N2_2 N 0.6269(2) 0.8936(3) 0.78453(19)
N3_2 N 0.3622(2) 0.8590(3) 0.66553(18)
N5_2 N 0.3493(3) 0.7689(3) 0.44573(18)
N7_2 N 0.1140(2) 0.8862(3) 0.80022(17)
O1_2 O 0.8558(3) 0.9707(3) 0.91881(19)
N16_2 N 0.9979(2) 0.8955(3) 0.82459(18)
C22_2 C 0.4144(3) 0.9527(4) 0.8859(3)
C23_2 C 0.3916(3) 0.8792(3) 0.9090(2)
C24_2 C 0.3359(3) 0.8381(3) 0.8861(2)
H13_2 H 0.313505 0.854576 0.854022
C25_2 C 0.3122(3) 0.7735(3) 0.9092(2)
H14_2 H 0.273583 0.746979 0.893486
C26_2 C 0.3463(3) 0.7481(4) 0.9561(2)
C27_2 C 0.4029(4) 0.7857(4) 0.9791(3)
C28_2 C 0.4254(3) 0.8526(4) 0.9566(3)
H16_2 H 0.462980 0.879658 0.973317
O6_2 O 0.3892(2) 0.9710(2) 0.84132(18)
O7_2 O 0.4564(3) 0.9933(3) 0.9114(2)
O8_2 O 0.3209(3) 0.6806(3) 0.97658(17)
N6 N 0.0021(2) 0.1045(3) 0.17541(18)
Cd5 Cd 0.12892(2) 0.09646(2) 0.18476(2)
C56_3 C 0.6601(4) 0.2323(4) 0.6429(3)
H38_3 H 0.667864 0.217598 0.678864
C57_3 C 0.6655(4) 0.1856(4) 0.5984(3)
H39_3 H 0.676591 0.135277 0.598182
C58_3 C 0.6379(3) 0.2990(3) 0.5741(2)
H40_3 H 0.627088 0.339844 0.552324
C59_3 C 0.6480(3) 0.2081(4) 0.4982(2)
C60_3 C 0.7005(4) 0.1607(4) 0.4783(3)
H41_3 H 0.738561 0.144452 0.501002
C61_3 C 0.6968(3) 0.1368(4) 0.4239(2)
H42_3 H 0.730760 0.102789 0.410752
C62_3 C 0.6414(3) 0.1648(3) 0.3896(2)
C63_3 C 0.5904(3) 0.2155(4) 0.4099(2)
H43_3 H 0.554594 0.235679 0.386933
C64_3 C 0.5934(3) 0.2356(4) 0.4641(2)
H44_3 H 0.558301 0.267978 0.477963
C65_3 C 0.9576(3) 0.0861(3) 0.1322(2)
H45_3 H 0.974524 0.071916 0.098049
C66_3 C 0.8871(3) 0.0910(3) 0.1455(2)
H46_3 H 0.846626 0.081226 0.123103
C67_3 C 0.9572(3) 0.1207(3) 0.2154(2)
H47_3 H 0.972479 0.135121 0.250154
C68_3 C 0.8223(3) 0.1223(3) 0.2348(2)
C69_3 C 0.8187(3) 0.1818(3) 0.2698(2)
H48_3 H 0.855852 0.217243 0.270568
C70_3 C 0.7585(3) 0.1877(3) 0.3038(2)
H49_3 H 0.755026 0.227479 0.327774
C71_3 C 0.7029(3) 0.1342(3) 0.3024(2)
C72_3 C 0.7077(3) 0.0758(3) 0.2662(2)
H50_3 H 0.670369 0.040553 0.264638
C73_3 C 0.7673(3) 0.0693(3) 0.2326(2)
H51_3 H 0.770695 0.029697 0.208465
C74_3 C 0.3017(3) 0.1086(3) 0.2309(2)
H52_3 H 0.286309 0.118021 0.266378
C75_3 C 0.3725(4) 0.0904(4) 0.1610(3)
H53_3 H 0.413232 0.084247 0.138658
C76_3 C 0.3008(3) 0.0852(4) 0.1460(3)
H54_3 H 0.284000 0.075613 0.110663
C77_3 C 0.4379(3) 0.1186(3) 0.2481(2)
C78_3 C 0.4959(3) 0.1551(4) 0.2248(2)
H55_3 H 0.491654 0.173749 0.189491
C79_3 C 0.5612(3) 0.1643(4) 0.2543(2)
H56_3 H 0.600470 0.189643 0.238825
C80_3 C 0.5680(3) 0.1358(3) 0.3065(2)
C81_3 C 0.5089(3) 0.0996(4) 0.3299(2)
H57_3 H 0.513002 0.081466 0.365378
C82_3 C 0.4434(3) 0.0900(4) 0.3008(2)
H58_3 H 0.403919 0.065043 0.316334
N1_3 N 0.2570(2) 0.0960(3) 0.18970(19)
N2_3 N 0.3731(2) 0.1064(3) 0.21547(19)
N3_3 N 0.6378(2) 0.1410(3) 0.33447(18)
N4_2 N 0.6421(2) 0.3018(3) 0.62763(18)
N5_3 N 0.6507(3) 0.2311(3) 0.55427(18)
N7_3 N 0.8860(2) 0.1138(3) 0.19978(17)
O1_3 O 0.1442(3) 0.0293(3) 0.08119(19)
Cd7_2 Cd 0.62892(2) 0.40354(2) 0.68476(2)
N15_2 N 0.1421(2) 0.1982(3) 0.12763(18)
O11_2 O 0.1376(3) 0.1622(4) 0.2667(2)
O12_2 O 0.0922(5) 0.0560(4) 0.2904(3)
H3_3 H 0.174472 0.812870 0.971164
C8_3 C 0.1115(4) 0.6764(4) 0.9579(2)
C9_3 C 0.1450(4) 0.6147(4) 0.9351(2)
H5_3 H 0.174938 0.583941 0.956261
C10_3 C 0.1327(3) 0.5998(4) 0.8796(2)
H6_3 H 0.155233 0.558923 0.863739
C11_3 C 0.0880(3) 0.6445(3) 0.8482(2)
C12_3 C 0.0555(3) 0.7070(3) 0.8719(2)
H7_3 H 0.026397 0.738512 0.850826
C13_3 C 0.0666(3) 0.7216(4) 0.9264(2)
H8_3 H 0.043775 0.762311 0.942311
C14_3 C 0.0767(3) 0.6300(4) 0.7882(2)
C15_3 C 0.1254(4) 0.1132(5) 0.2994(3)
C16_3 C 0.1392(3) 0.1288(4) 0.3604(2)
C17_3 C 0.1264(4) 0.0789(4) 0.4010(3)
H9_3 H 0.108434 0.032254 0.391745
C18_3 C 0.1392(4) 0.0953(4) 0.4561(3)
H10_3 H 0.129560 0.060618 0.483246
C19_3 C 0.1666(4) 0.1646(4) 0.4690(3)
C20_3 C 0.1824(4) 0.2154(4) 0.4283(3)
H11_3 H 0.202610 0.261200 0.437121
C21_3 C 0.1677(3) 0.1971(4) 0.3743(3)
H12_3 H 0.177215 0.231510 0.347038
C22_3 C 0.0856(3) 0.4527(4) 0.6141(3)
C23_3 C 0.1084(3) 0.3792(3) 0.5910(2)
C24_3 C 0.1641(3) 0.3381(3) 0.6139(2)
H13_3 H 0.186495 0.354576 0.645978
C25_3 C 0.1878(3) 0.2735(3) 0.5908(2)
H14_3 H 0.226417 0.246979 0.606514
C26_3 C 0.1537(3) 0.2481(4) 0.5439(2)
C27_3 C 0.0971(4) 0.2857(4) 0.5209(3)
H15_3 H 0.073170 0.266886 0.490195
C28_3 C 0.0746(3) 0.3526(4) 0.5434(3)
H16_3 H 0.037020 0.379658 0.526683
Cd1 Cd 0.07429(2) 0.58554(2) 0.67944(2)
O4_3 O 0.0572(2) 0.6805(2) 0.75748(15)
O5_3 O 0.0896(2) 0.5646(2) 0.77201(15)
O6_3 O 0.1108(2) 0.4710(2) 0.65868(18)
O7_3 O 0.0436(3) 0.4933(3) 0.5886(2)
O8_3 O 0.1791(3) 0.1806(3) 0.52342(17)
N17 N 0.2032(2) 0.6126(3) 0.68025(19)
N18_2 N 0.0667(2) 0.6844(3) 0.61997(17)
C38_3 C 0.5404(3) 0.7491(4) 0.1360(2)
H24_3 H 0.522010 0.739226 0.170539
C39_3 C 0.5442(4) 0.6993(4) 0.0954(2)
H25_3 H 0.529694 0.649930 0.096680
C40_3 C 0.5853(3) 0.8061(4) 0.0687(2)
H26_3 H 0.604115 0.843462 0.046724
H30_3 H 0.510235 0.622312 0.004833
N12_2 N 0.5667(2) 0.8156(3) 0.11997(17)
N13_3 N 0.5740(2) 0.7362(3) 0.05161(18)
Cd4_2 Cd 0.57429(2) 0.91446(2) 0.17944(2)
C29_3 C 0.2477(3) 0.6175(3) 0.7224(2)
H17_3 H 0.232398 0.618527 0.758542
C30_3 C 0.2470(3) 0.6115(4) 0.6354(3)
H18_3 H 0.230114 0.608000 0.599555
C31_3 C 0.3183(3) 0.6162(4) 0.6508(2)
H19_3 H 0.359081 0.616358 0.628015
C32_3 C 0.3843(3) 0.6243(3) 0.7408(2)
C33_3 C 0.4471(3) 0.5881(3) 0.7246(2)
H20_3 H 0.446507 0.560310 0.692613
C34_3 C 0.5107(3) 0.5925(3) 0.7555(2)
H21_3 H 0.552905 0.567549 0.744547
C35_3 C 0.5117(3) 0.6347(3) 0.8031(2)
C36_3 C 0.4464(3) 0.6685(3) 0.8208(2)
H22_3 H 0.446020 0.694575 0.853530
C37_3 C 0.3834(3) 0.6631(3) 0.7900(2)
H23_3 H 0.340091 0.685175 0.801824
C41_3 C 0.5807(3) 0.7087(3) 0.9971(2)
C42_3 C 0.6256(3) 0.7445(4) 0.9600(2)
H27_3 H 0.655596 0.783462 0.971267
C43_3 C 0.6253(3) 0.7215(4) 0.9059(2)
H28_3 H 0.654847 0.745890 0.880826
C44_3 C 0.5814(3) 0.6625(3) 0.8885(2)
C45_3 C 0.5394(3) 0.6256(4) 0.9264(2)
H29_3 H 0.511117 0.585094 0.915609
C46_3 C 0.5388(3) 0.6479(4) 0.9797(2)
C47_3 C 0.9040(3) 0.5982(3) 0.7204(2)
H31_3 H 0.920225 0.598594 0.756557
C48_3 C 0.9026(3) 0.5915(3) 0.6332(2)
H32_3 H 0.918393 0.585867 0.597409
C49_3 C 0.8318(3) 0.6047(3) 0.6482(2)
H33_3 H 0.791057 0.610118 0.625323
C50_3 C 0.7709(3) 0.6201(3) 0.7396(2)
C51_3 C 0.7194(3) 0.6722(3) 0.7256(2)
H34_3 H 0.726010 0.701641 0.694870
C52_3 C 0.6578(3) 0.6809(3) 0.7572(2)
H35_3 H 0.622976 0.716472 0.747786
C53_3 C 0.6471(3) 0.6376(3) 0.8027(2)
C54_3 C 0.6993(3) 0.5879(3) 0.8174(2)
H36_3 H 0.693354 0.560086 0.849064
C55_3 C 0.7617(3) 0.5780(3) 0.7859(2)
H37_3 H 0.797035 0.543157 0.796022
N9_3 N 0.3187(2) 0.6209(3) 0.70672(18)
N10_3 N 0.9469(2) 0.5877(3) 0.67842(18)
N11_3 N 0.8331(2) 0.6083(3) 0.70465(17)
N14_3 N 0.5796(2) 0.6429(3) 0.83235(18)
C56_4 C 0.1601(4) 0.2677(4) 0.1429(3)
H38_4 H 0.167864 0.282402 0.178864
C57_4 C 0.1655(4) 0.3144(4) 0.0984(3)
H39_4 H 0.176591 0.364723 0.098182
C58_4 C 0.1379(3) 0.2010(3) 0.0741(2)
H40_4 H 0.127088 0.160156 0.052324
H41_4 H 0.238561 0.355548 0.001002
N5_4 N 0.1507(3) 0.2689(3) 0.05427(18)
C59_4 C 0.1480(3) 0.2919(4) 0.9982(2)
C60_4 C 0.2005(4) 0.3393(4) 0.9783(3)
C61_4 C 0.1968(3) 0.3632(4) 0.9239(2)
H42_4 H 0.230760 0.397211 0.910752
C62_4 C 0.1414(3) 0.3352(3) 0.8896(2)
C63_4 C 0.0904(3) 0.2845(4) 0.9099(2)
H43_4 H 0.054594 0.264321 0.886933
C64_4 C 0.0934(3) 0.2644(4) 0.9641(2)
H44_4 H 0.058301 0.232022 0.977963
C65_4 C 0.4576(3) 0.4139(3) 0.6322(2)
H45_4 H 0.474524 0.428084 0.598049
C66_4 C 0.3871(3) 0.4090(3) 0.6455(2)
H46_4 H 0.346626 0.418774 0.623103
C67_4 C 0.4572(3) 0.3793(3) 0.7154(2)
H47_4 H 0.472479 0.364879 0.750154
C68_4 C 0.3223(3) 0.3777(3) 0.7348(2)
C69_4 C 0.3187(3) 0.3182(3) 0.7698(2)
H48_4 H 0.355852 0.282757 0.770568
C70_4 C 0.2585(3) 0.3123(3) 0.8038(2)
H49_4 H 0.255026 0.272521 0.827774
C71_4 C 0.2029(3) 0.3658(3) 0.8024(2)
C72_4 C 0.2077(3) 0.4242(3) 0.7662(2)
H50_4 H 0.170369 0.459447 0.764638
C73_4 C 0.2673(3) 0.4307(3) 0.7326(2)
H51_4 H 0.270695 0.470303 0.708465
C79_4 C 0.0612(3) 0.3357(4) 0.7543(2)
H56_4 H 0.100470 0.310357 0.738825
C80_4 C 0.0680(3) 0.3642(3) 0.8065(2)
C81_4 C 0.0089(3) 0.4004(4) 0.8299(2)
H57_4 H 0.013002 0.418534 0.865378
N3_4 N 0.1378(2) 0.3590(3) 0.83447(18)
N6_2 N 0.5021(2) 0.3955(3) 0.67541(18)
N7_4 N 0.3860(2) 0.3862(3) 0.69978(17)
C15_4 C 0.6254(4) 0.3868(5) 0.7994(3)
C16_4 C 0.6392(3) 0.3712(4) 0.8604(2)
C17_4 C 0.6264(4) 0.4211(4) 0.9010(3)
H9_4 H 0.608434 0.467746 0.891745
C18_4 C 0.6392(4) 0.4047(4) 0.9561(3)
H10_4 H 0.629560 0.439382 0.983246
C19_4 C 0.6666(4) 0.3354(4) 0.9690(3)
C20_4 C 0.6824(4) 0.2846(4) 0.9283(3)
H11_4 H 0.702610 0.238800 0.937121
C21_4 C 0.6677(3) 0.3029(4) 0.8743(3)
H12_4 H 0.677215 0.268490 0.847038
H15_4 H 0.573170 0.233114 0.990195
O9_2 O 0.6376(3) 0.3378(4) 0.7667(2)
O10_2 O 0.5922(5) 0.4440(4) 0.7904(3)
C1_2 C 0.6329(3) 0.5273(4) 0.6102(3)
C2_2 C 0.6318(3) 0.6021(3) 0.5831(2)
C3_2 C 0.6050(3) 0.6633(3) 0.6107(2)
H1_2 H 0.588525 0.657744 0.646331
C4_2 C 0.6022(3) 0.7321(4) 0.5867(2)
H2_2 H 0.583557 0.772443 0.605615
C5_2 C 0.6275(3) 0.7404(4) 0.5341(2)
C6_2 C 0.6563(4) 0.6806(4) 0.5062(3)
H3_4 H 0.674472 0.687130 0.471164
C7_2 C 0.6585(3) 0.6114(4) 0.5298(2)
H4_2 H 0.677376 0.571288 0.510654
C8_4 C 0.6115(4) 0.8236(4) 0.4579(2)
C9_4 C 0.6450(4) 0.8853(4) 0.4351(2)
H5_4 H 0.674938 0.916059 0.456261
C10_4 C 0.6327(3) 0.9002(4) 0.3796(2)
H6_4 H 0.655233 0.941077 0.363739
C11_4 C 0.5880(3) 0.8555(3) 0.3482(2)
C12_4 C 0.5555(3) 0.7930(3) 0.3719(2)
H7_4 H 0.526397 0.761488 0.350826
C13_4 C 0.5666(3) 0.7784(4) 0.4264(2)
H8_4 H 0.543775 0.737689 0.442311
C14_4 C 0.5767(3) 0.8700(4) 0.2882(2)
C34_4 C 0.0107(3) 0.9075(3) 0.2555(2)
H21_4 H 0.052905 0.932451 0.244547
C35_4 C 0.0117(3) 0.8653(3) 0.3031(2)
C38_4 C 0.0404(3) 0.7509(4) 0.6360(2)
H24_4 H 0.022010 0.760774 0.670539
C39_4 C 0.0442(4) 0.8007(4) 0.5954(2)
H25_4 H 0.029694 0.850070 0.596680
C40_4 C 0.0853(3) 0.6939(4) 0.5687(2)
H26_4 H 0.104115 0.656538 0.546724
C41_4 C 0.0807(3) 0.7913(3) 0.4971(2)
C42_4 C 0.1256(3) 0.7555(4) 0.4600(2)
H27_4 H 0.155596 0.716538 0.471267
C43_4 C 0.1253(3) 0.7785(4) 0.4059(2)
H28_4 H 0.154847 0.754110 0.380826
C44_4 C 0.0814(3) 0.8375(3) 0.3885(2)
C45_4 C 0.0394(3) 0.8744(4) 0.4264(2)
H29_4 H 0.011117 0.914906 0.415609
C46_4 C 0.0388(3) 0.8521(4) 0.4797(2)
H30_4 H 0.010235 0.877688 0.504833
C47_4 C 0.4040(3) 0.9018(3) 0.2204(2)
H31_4 H 0.420225 0.901406 0.256557
C48_4 C 0.4026(3) 0.9085(3) 0.1332(2)
H32_4 H 0.418393 0.914133 0.097409
C49_4 C 0.3318(3) 0.8953(3) 0.1482(2)
H33_4 H 0.291057 0.889882 0.125323
C50_4 C 0.2709(3) 0.8799(3) 0.2396(2)
C51_4 C 0.2194(3) 0.8278(3) 0.2256(2)
H34_4 H 0.226010 0.798359 0.194870
C52_4 C 0.1578(3) 0.8191(3) 0.2572(2)
H35_4 H 0.122976 0.783528 0.247786
C53_4 C 0.1471(3) 0.8624(3) 0.3027(2)
C54_4 C 0.1993(3) 0.9121(3) 0.3174(2)
H36_4 H 0.193354 0.939914 0.349064
C55_4 C 0.2617(3) 0.9220(3) 0.2859(2)
H37_4 H 0.297035 0.956843 0.296022
C74_4 C 0.8017(3) 0.3914(3) 0.7309(2)
H52_4 H 0.786309 0.381979 0.766378
C75_4 C 0.8725(4) 0.4096(4) 0.6610(3)
H53_4 H 0.913232 0.415753 0.638658
C76_4 C 0.8008(3) 0.4148(4) 0.6460(3)
H54_4 H 0.784000 0.424387 0.610663
C77_4 C 0.9379(3) 0.3814(3) 0.7481(2)
C78_4 C 0.9959(3) 0.3449(4) 0.7248(2)
H55_4 H 0.991654 0.326251 0.689491
C82_4 C 0.9434(3) 0.4100(4) 0.8008(2)
H58_4 H 0.903919 0.434957 0.816334
N1_4 N 0.7570(2) 0.4040(3) 0.68970(19)
N2_4 N 0.8731(2) 0.3936(3) 0.71547(19)
N10_4 N 0.4469(2) 0.9123(3) 0.17842(18)
N11_4 N 0.3331(2) 0.8917(3) 0.20465(17)
N13_4 N 0.0740(2) 0.7638(3) 0.55161(18)
N14_4 N 0.0796(2) 0.8571(3) 0.33235(18)
O1_4 O 0.6442(3) 0.4707(3) 0.58119(19)
O2_2 O 0.6220(2) 0.5244(2) 0.66071(17)
O3_2 O 0.6262(3) 0.8122(3) 0.51314(16)
O4_4 O 0.5572(2) 0.8195(2) 0.25748(15)
O5_4 O 0.5896(2) 0.9354(2) 0.27201(15)
N17_2 N 0.7032(2) 0.8874(3) 0.18025(19)
C29_4 C 0.7477(3) 0.8825(3) 0.2224(2)
H17_4 H 0.732398 0.881473 0.258542
C30_4 C 0.7470(3) 0.8885(4) 0.1354(3)
H18_4 H 0.730114 0.892000 0.099555
C31_4 C 0.8183(3) 0.8838(4) 0.1508(2)
H19_4 H 0.859081 0.883642 0.128015
C32_4 C 0.8843(3) 0.8757(3) 0.2408(2)
C33_4 C 0.9471(3) 0.9119(3) 0.2246(2)
H20_4 H 0.946507 0.939690 0.192613
C36_4 C 0.9464(3) 0.8315(3) 0.3208(2)
H22_4 H 0.946020 0.805425 0.353530
C37_4 C 0.8834(3) 0.8369(3) 0.2900(2)
H23_4 H 0.840091 0.814825 0.301824
N9_4 N 0.8187(2) 0.8791(3) 0.20672(18)
C1_3 C 0.1329(3) 0.9727(4) 0.1102(3)
C2_3 C 0.1318(3) 0.8979(3) 0.0831(2)
C3_3 C 0.1050(3) 0.8367(3) 0.1107(2)
H1_3 H 0.088525 0.842256 0.146331
C4_3 C 0.1022(3) 0.7679(4) 0.0867(2)
H2_3 H 0.083557 0.727557 0.105615
C5_3 C 0.1275(3) 0.7596(4) 0.0341(2)
C6_3 C 0.1563(4) 0.8194(4) 0.0062(3)
C7_3 C 0.1585(3) 0.8886(4) 0.0298(2)
H4_3 H 0.177376 0.928712 0.010654
O2_3 O 0.1220(2) 0.9756(2) 0.16071(17)
O3_3 O 0.1262(3) 0.6878(3) 0.01314(16)
C22_4 C 0.5856(3) 0.0473(4) 0.1141(3)
C23_4 C 0.6084(3) 0.1208(3) 0.0910(2)
C24_4 C 0.6641(3) 0.1619(3) 0.1139(2)
H13_4 H 0.686495 0.145424 0.145978
C25_4 C 0.6878(3) 0.2265(3) 0.0908(2)
H14_4 H 0.726417 0.253021 0.106514
C26_4 C 0.6537(3) 0.2519(4) 0.0439(2)
C27_4 C 0.5971(4) 0.2143(4) 0.0209(3)
C28_4 C 0.5746(3) 0.1474(4) 0.0434(3)
H16_4 H 0.537020 0.120342 0.026683
O6_4 O 0.6108(2) 0.0290(2) 0.15868(18)
O7_4 O 0.5436(3) 0.0067(3) 0.0886(2)
O8_4 O 0.6791(3) 0.3194(3) 0.02342(17)
C1_4 C 0.8671(3) 0.0273(4) 0.8898(3)
C2_4 C 0.8682(3) 0.1021(3) 0.9169(2)
C3_4 C 0.8950(3) 0.1633(3) 0.8893(2)
H1_4 H 0.911475 0.157744 0.853669
C4_4 C 0.8978(3) 0.2321(4) 0.9133(2)
H2_4 H 0.916443 0.272443 0.894385
C5_4 C 0.8725(3) 0.2404(4) 0.9659(2)
C6_4 C 0.8437(4) 0.1806(4) 0.9938(3)
C7_4 C 0.8415(3) 0.1114(4) 0.9702(2)
H4_4 H 0.822624 0.071288 0.989346
O2_4 O 0.8780(2) 0.0244(2) 0.83929(17)
O3_4 O 0.8738(3) 0.3122(3) 0.98686(16)
loop_
_geom_bond_atom_site_label_1
_geom_bond_atom_site_label_2
_geom_bond_site_symmetry_1
_geom_bond_site_symmetry_2
C29 H17 1_555 1_555
C30 H18 1_555 1_555
C31 C30 1_555 1_555
H19 C31 1_555 1_555
C32 C33 1_555 1_555
C33 H20 1_555 1_555
H22 C36 1_555 1_555
C37 C32 1_555 1_555
H23 C37 1_555 1_555
N8 C29 1_555 1_555
N9 C29 1_555 1_555
Cd3 N8 1_555 1_555
C30 N8 1_555 1_555
C31 N9 1_555 1_555
C32 N9 1_555 1_555
C36 C37 1_555 1_555
C1 C2 1_555 1_555
C2 C3 1_555 1_555
C3 H1 1_555 1_555
C4 C3 1_555 1_555
H2 C4 1_555 1_555
C5 C4 1_555 1_555
C6 C5 1_555 1_555
H3 C6 1_555 1_555
C7 C2 1_555 1_555
H4 C7 1_555 1_555
C8 C9 1_555 1_555
C9 H5 1_555 1_555
C10 C9 1_555 1_555
H6 C10 1_555 1_555
C11 C10 1_555 1_555
C12 C11 1_555 1_555
H7 C12 1_555 1_555
C13 C8 1_555 1_555
H8 C13 1_555 1_555
C14 C11 1_555 1_555
H21 C34 1_555 1_555
C35 C34 1_555 1_555
C38 H24 1_555 1_555
C39 C38 1_555 1_555
H25 C39 1_555 1_555
C40 H26 1_555 1_555
C41 C42 1_555 1_555
C42 H27 1_555 1_555
C43 C42 1_555 1_555
H28 C43 1_555 1_555
C44 C43 1_555 1_555
C45 C44 1_555 1_555
H29 C45 1_555 1_555
C46 C41 1_555 1_555
H30 C46 1_555 1_555
C47 H31 1_555 1_555
C48 H32 1_555 1_555
C49 C48 1_555 1_555
H33 C49 1_555 1_555
C50 C51 1_555 1_555
C51 H34 1_555 1_555
C52 C51 1_555 1_555
H35 C52 1_555 1_555
C53 C52 1_555 1_555
C54 C53 1_555 1_555
H36 C54 1_555 1_555
C55 C50 1_555 1_555
H37 C55 1_555 1_555
C74 H52 1_555 1_555
C75 H53 1_555 1_555
C76 C75 1_555 1_555
H54 C76 1_555 1_555
C77 C78 1_555 1_555
C78 H55 1_555 1_555
C82 C77 1_555 1_555
H58 C82 1_555 1_555
Cd3 N10 1_555 1_555
Cd2 N1 1_555 1_555
N1 C74 1_555 1_555
N2 C74 1_555 1_555
N10 C47 1_555 1_555
N11 C47 1_555 1_555
N12 C38 1_555 1_555
N13 C39 1_555 1_555
N14 C35 1_555 1_555
O1 C1 1_555 1_555
O2 C1 1_555 1_555
O3 C5 1_555 1_555
O4 C14 1_555 1_555
O5 C14 1_555 1_555
Cd4 N12 1_555 1_555
N15 Cd2 1_555 1_555
N16 Cd2 1_555 1_555
N18 Cd3 1_555 1_555
O11 Cd2 1_555 1_555
O12 Cd2 1_555 1_555
C6 C7 1_555 1_555
C8 O3 1_555 1_555
C12 C13 1_555 1_555
C40 N12 1_555 1_555
C40 N13 1_555 1_555
C41 N13 1_555 1_555
C44 N14 1_555 1_555
C45 C46 1_555 1_555
C48 N10 1_555 1_555
C49 N11 1_555 1_555
C50 N11 1_555 1_555
C53 N14 1_555 1_555
C54 C55 1_555 1_555
C75 N2 1_555 1_555
C76 N1 1_555 1_555
C77 N2 1_555 1_555
Cd3 O4 1_555 1_555
Cd3 O5 1_555 1_555
Cd2 O2 1_555 1_555
C15 C16 1_555 1_555
C16 C17 1_555 1_555
C17 H9 1_555 1_555
C18 C17 1_555 1_555
H10 C18 1_555 1_555
C19 C18 1_555 1_555
C20 C19 1_555 1_555
H11 C20 1_555 1_555
C21 C16 1_555 1_555
H12 C21 1_555 1_555
O11 C15 1_555 1_555
O12 C15 1_555 1_555
C20 C21 1_555 1_555
C59 C60 1_555 1_555
C61 C60 1_555 1_555
H42 C61 1_555 1_555
C62 C61 1_555 1_555
C63 C62 1_555 1_555
H43 C63 1_555 1_555
C64 C59 1_555 1_555
H44 C64 1_555 1_555
C65 H45 1_555 1_555
C66 C65 1_555 1_555
H46 C66 1_555 1_555
C67 H47 1_555 1_555
C68 C69 1_555 1_555
C69 H48 1_555 1_555
C70 C69 1_555 1_555
H49 C70 1_555 1_555
C71 C70 1_555 1_555
C72 C71 1_555 1_555
H50 C72 1_555 1_555
C73 C68 1_555 1_555
H51 C73 1_555 1_555
H56 C79 1_555 1_555
C80 C79 1_555 1_555
C81 C80 1_555 1_555
H57 C81 1_555 1_555
N3 C62 1_555 1_555
N16 C65 1_555 1_555
N7 C66 1_555 1_555
C63 C64 1_555 1_555
C67 N16 1_555 1_555
C67 N7 1_555 1_555
C68 N7 1_555 1_555
C71 N3 1_555 1_555
C72 C73 1_555 1_555
C80 N3 1_555 1_555
C56 H38 1_555 1_555
C57 C56 1_555 1_555
H39 C57 1_555 1_555
C58 H40 1_555 1_555
N4 C56 1_555 1_555
N5 C57 1_555 1_555
Cd7 N4 1_555 1_555
C58 N4 1_555 1_555
C58 N5 1_555 1_555
C29_2 H17_2 1_555 1_555
C30_2 H18_2 1_555 1_555
C31_2 C30_2 1_555 1_555
H19_2 C31_2 1_555 1_555
C32_2 C33_2 1_555 1_555
C33_2 H20_2 1_555 1_555
C34_2 C33_2 1_555 1_555
H21_2 C34_2 1_555 1_555
C35_2 C34_2 1_555 1_555
C36_2 C35_2 1_555 1_555
H22_2 C36_2 1_555 1_555
C37_2 C32_2 1_555 1_555
H23_2 C37_2 1_555 1_555
C41_2 C42_2 1_555 1_555
C42_2 H27_2 1_555 1_555
C43_2 C42_2 1_555 1_555
H28_2 C43_2 1_555 1_555
C44_2 C43_2 1_555 1_555
C45_2 C44_2 1_555 1_555
H29_2 C45_2 1_555 1_555
C46_2 C41_2 1_555 1_555
C47_2 H31_2 1_555 1_555
C48_2 H32_2 1_555 1_555
C49_2 C48_2 1_555 1_555
H33_2 C49_2 1_555 1_555
C50_2 C51_2 1_555 1_555
C51_2 H34_2 1_555 1_555
C52_2 C51_2 1_555 1_555
H35_2 C52_2 1_555 1_555
C53_2 C52_2 1_555 1_555
C54_2 C53_2 1_555 1_555
H36_2 C54_2 1_555 1_555
C55_2 C50_2 1_555 1_555
H37_2 C55_2 1_555 1_555
N8_2 C29_2 1_555 1_555
N9_2 C29_2 1_555 1_555
N10_2 C47_2 1_555 1_555
N11_2 C47_2 1_555 1_555
N14_2 C35_2 1_555 1_555
Cd4 N8_2 1_555 1_555
C30_2 N8_2 1_555 1_555
C31_2 N9_2 1_555 1_555
C32_2 N9_2 1_555 1_555
C36_2 C37_2 1_555 1_555
C44_2 N14_2 1_555 1_555
C45_2 C46_2 1_555 1_555
C48_2 N10_2 1_555 1_555
C49_2 N11_2 1_555 1_555
C50_2 N11_2 1_555 1_555
C53_2 N14_2 1_555 1_555
C54_2 C55_2 1_555 1_555
C38_2 H24_2 1_555 1_555
C39_2 C38_2 1_555 1_555
H25_2 C39_2 1_555 1_555
C40_2 H26_2 1_555 1_555
N18 C38_2 1_555 1_555
N13_2 C39_2 1_555 1_555
C40_2 N18 1_555 1_555
C40_2 N13_2 1_555 1_555
C8_2 C9_2 1_555 1_555
C9_2 H5_2 1_555 1_555
C10_2 C9_2 1_555 1_555
H6_2 C10_2 1_555 1_555
C11_2 C10_2 1_555 1_555
C12_2 C11_2 1_555 1_555
H7_2 C12_2 1_555 1_555
C13_2 C8_2 1_555 1_555
H8_2 C13_2 1_555 1_555
C14_2 C11_2 1_555 1_555
C15_2 C16_2 1_555 1_555
C16_2 C17_2 1_555 1_555
C17_2 H9_2 1_555 1_555
C18_2 C17_2 1_555 1_555
H10_2 C18_2 1_555 1_555
C19_2 C18_2 1_555 1_555
C20_2 C19_2 1_555 1_555
H11_2 C20_2 1_555 1_555
C21_2 C16_2 1_555 1_555
H12_2 C21_2 1_555 1_555
C22 C23 1_555 1_555
C23 C24 1_555 1_555
C24 H13 1_555 1_555
C25 C24 1_555 1_555
H14 C25 1_555 1_555
C26 C25 1_555 1_555
C27 C26 1_555 1_555
H15_2 C27 1_555 1_555
C28 C23 1_555 1_555
H16 C28 1_555 1_555
O4_2 C14_2 1_555 1_555
O5_2 C14_2 1_555 1_555
O6 C22 1_555 1_555
O7 C22 1_555 1_555
O8 C19_2 1_555 1_555
O9 C15_2 1_555 1_555
O10 C15_2 1_555 1_555
Cd7 O9 1_555 1_555
C12_2 C13_2 1_555 1_555
C20_2 C21_2 1_555 1_555
C26 O8 1_555 1_555
C27 C28 1_555 1_555
Cd4 O4_2 1_555 1_555
Cd4 O5_2 1_555 1_555
Cd4 O6 1_555 1_555
O10 Cd7 1_555 1_555
C56_2 H38_2 1_555 1_555
C57_2 C56_2 1_555 1_555
H39_2 C57_2 1_555 1_555
C58_2 H40_2 1_555 1_555
C59_2 C60_2 1_555 1_555
C60_2 H41_2 1_555 1_555
C61_2 C60_2 1_555 1_555
H42_2 C61_2 1_555 1_555
C62_2 C61_2 1_555 1_555
C63_2 C62_2 1_555 1_555
H43_2 C63_2 1_555 1_555
C64_2 C59_2 1_555 1_555
H44_2 C64_2 1_555 1_555
C65_2 H45_2 1_555 1_555
C66_2 C65_2 1_555 1_555
H46_2 C66_2 1_555 1_555
C67_2 H47_2 1_555 1_555
C68_2 C69_2 1_555 1_555
C69_2 H48_2 1_555 1_555
C70_2 C69_2 1_555 1_555
H49_2 C70_2 1_555 1_555
C71_2 C70_2 1_555 1_555
C72_2 C71_2 1_555 1_555
H50_2 C72_2 1_555 1_555
C73_2 C68_2 1_555 1_555
H51_2 C73_2 1_555 1_555
C74_2 H52_2 1_555 1_555
C75_2 H53_2 1_555 1_555
C76_2 C75_2 1_555 1_555
H54_2 C76_2 1_555 1_555
C77_2 C78_2 1_555 1_555
C78_2 H55_2 1_555 1_555
C79_2 C78_2 1_555 1_555
H56_2 C79_2 1_555 1_555
C80_2 C79_2 1_555 1_555
C81_2 C80_2 1_555 1_555
H57_2 C81_2 1_555 1_555
C82_2 C77_2 1_555 1_555
H58_2 C82_2 1_555 1_555
Cd7 N1_2 1_555 1_555
N1_2 C74_2 1_555 1_555
N2_2 C74_2 1_555 1_555
N3_2 C62_2 1_555 1_555
N15 C56_2 1_555 1_555
N5_2 C57_2 1_555 1_555
N7_2 C66_2 1_555 1_555
N16_2 Cd7 1_555 1_555
C58_2 N15 1_555 1_555
C58_2 N5_2 1_555 1_555
C59_2 N5_2 1_555 1_555
C63_2 C64_2 1_555 1_555
C67_2 N7_2 1_555 1_555
C68_2 N7_2 1_555 1_555
C71_2 N3_2 1_555 1_555
C72_2 C73_2 1_555 1_555
C75_2 N2_2 1_555 1_555
C76_2 N1_2 1_555 1_555
C77_2 N2_2 1_555 1_555
C80_2 N3_2 1_555 1_555
C81_2 C82_2 1_555 1_555
C22_2 C23_2 1_555 1_555
C23_2 C24_2 1_555 1_555
C24_2 H13_2 1_555 1_555
C25_2 C24_2 1_555 1_555
H14_2 C25_2 1_555 1_555
C26_2 C25_2 1_555 1_555
C27_2 C26_2 1_555 1_555
C28_2 C23_2 1_555 1_555
H16_2 C28_2 1_555 1_555
O6_2 C22_2 1_555 1_555
O7_2 C22_2 1_555 1_555
C26_2 O8_2 1_555 1_555
C27_2 C28_2 1_555 1_555
Cd5 N6 1_555 1_555
C56_3 H38_3 1_555 1_555
C57_3 C56_3 1_555 1_555
H39_3 C57_3 1_555 1_555
C58_3 H40_3 1_555 1_555
C59_3 C60_3 1_555 1_555
C60_3 H41_3 1_555 1_555
C61_3 C60_3 1_555 1_555
H42_3 C61_3 1_555 1_555
C62_3 C61_3 1_555 1_555
C63_3 C62_3 1_555 1_555
H43_3 C63_3 1_555 1_555
C64_3 C59_3 1_555 1_555
H44_3 C64_3 1_555 1_555
C65_3 H45_3 1_555 1_555
C66_3 C65_3 1_555 1_555
H46_3 C66_3 1_555 1_555
C67_3 H47_3 1_555 1_555
C68_3 C69_3 1_555 1_555
C69_3 H48_3 1_555 1_555
C70_3 C69_3 1_555 1_555
H49_3 C70_3 1_555 1_555
C71_3 C70_3 1_555 1_555
C72_3 C71_3 1_555 1_555
H50_3 C72_3 1_555 1_555
C73_3 C68_3 1_555 1_555
H51_3 C73_3 1_555 1_555
C74_3 H52_3 1_555 1_555
C75_3 H53_3 1_555 1_555
C76_3 C75_3 1_555 1_555
H54_3 C76_3 1_555 1_555
C77_3 C78_3 1_555 1_555
C78_3 H55_3 1_555 1_555
C79_3 C78_3 1_555 1_555
H56_3 C79_3 1_555 1_555
C80_3 C79_3 1_555 1_555
C81_3 C80_3 1_555 1_555
H57_3 C81_3 1_555 1_555
C82_3 C77_3 1_555 1_555
H58_3 C82_3 1_555 1_555
Cd5 N1_3 1_555 1_555
N1_3 C74_3 1_555 1_555
N2_3 C74_3 1_555 1_555
N3_3 C62_3 1_555 1_555
N4_2 C56_3 1_555 1_555
N5_3 C57_3 1_555 1_555
N7_3 C66_3 1_555 1_555
Cd7_2 N4_2 1_555 1_555
N15_2 Cd5 1_555 1_555
O11_2 Cd5 1_555 1_555
O12_2 Cd5 1_555 1_555
C58_3 N4_2 1_555 1_555
C58_3 N5_3 1_555 1_555
C59_3 N5_3 1_555 1_555
C63_3 C64_3 1_555 1_555
C67_3 N7_3 1_555 1_555
C68_3 N7_3 1_555 1_555
C71_3 N3_3 1_555 1_555
C72_3 C73_3 1_555 1_555
C75_3 N2_3 1_555 1_555
C76_3 N1_3 1_555 1_555
C77_3 N2_3 1_555 1_555
C80_3 N3_3 1_555 1_555
C81_3 C82_3 1_555 1_555
C8_3 C9_3 1_555 1_555
C9_3 H5_3 1_555 1_555
C10_3 C9_3 1_555 1_555
H6_3 C10_3 1_555 1_555
C11_3 C10_3 1_555 1_555
C12_3 C11_3 1_555 1_555
H7_3 C12_3 1_555 1_555
C13_3 C8_3 1_555 1_555
H8_3 C13_3 1_555 1_555
C14_3 C11_3 1_555 1_555
C15_3 C16_3 1_555 1_555
C16_3 C17_3 1_555 1_555
C17_3 H9_3 1_555 1_555
C18_3 C17_3 1_555 1_555
H10_3 C18_3 1_555 1_555
C19_3 C18_3 1_555 1_555
C20_3 C19_3 1_555 1_555
H11_3 C20_3 1_555 1_555
C21_3 C16_3 1_555 1_555
H12_3 C21_3 1_555 1_555
C22_3 C23_3 1_555 1_555
C23_3 C24_3 1_555 1_555
C24_3 H13_3 1_555 1_555
C25_3 C24_3 1_555 1_555
H14_3 C25_3 1_555 1_555
C26_3 C25_3 1_555 1_555
C27_3 C26_3 1_555 1_555
H15_3 C27_3 1_555 1_555
C28_3 C23_3 1_555 1_555
H16_3 C28_3 1_555 1_555
O4_3 C14_3 1_555 1_555
O5_3 C14_3 1_555 1_555
O6_3 C22_3 1_555 1_555
O7_3 C22_3 1_555 1_555
O8_3 C19_3 1_555 1_555
O11_2 C15_3 1_555 1_555
O12_2 C15_3 1_555 1_555
N17 Cd1 1_555 1_555
N18_2 Cd1 1_555 1_555
C12_3 C13_3 1_555 1_555
C20_3 C21_3 1_555 1_555
C26_3 O8_3 1_555 1_555
C27_3 C28_3 1_555 1_555
Cd1 O4_3 1_555 1_555
Cd1 O5_3 1_555 1_555
Cd1 O6_3 1_555 1_555
C38_3 H24_3 1_555 1_555
C39_3 C38_3 1_555 1_555
H25_3 C39_3 1_555 1_555
C40_3 H26_3 1_555 1_555
N12_2 C38_3 1_555 1_555
N13_3 C39_3 1_555 1_555
Cd4_2 N12_2 1_555 1_555
C40_3 N12_2 1_555 1_555
C40_3 N13_3 1_555 1_555
C29_3 H17_3 1_555 1_555
C30_3 H18_3 1_555 1_555
C31_3 C30_3 1_555 1_555
H19_3 C31_3 1_555 1_555
C32_3 C33_3 1_555 1_555
C33_3 H20_3 1_555 1_555
C34_3 C33_3 1_555 1_555
H21_3 C34_3 1_555 1_555
C35_3 C34_3 1_555 1_555
C36_3 C35_3 1_555 1_555
H22_3 C36_3 1_555 1_555
C37_3 C32_3 1_555 1_555
H23_3 C37_3 1_555 1_555
C41_3 C42_3 1_555 1_555
C42_3 H27_3 1_555 1_555
C43_3 C42_3 1_555 1_555
H28_3 C43_3 1_555 1_555
C44_3 C43_3 1_555 1_555
C45_3 C44_3 1_555 1_555
H29_3 C45_3 1_555 1_555
C46_3 C41_3 1_555 1_555
C47_3 H31_3 1_555 1_555
C48_3 H32_3 1_555 1_555
C49_3 C48_3 1_555 1_555
H33_3 C49_3 1_555 1_555
C50_3 C51_3 1_555 1_555
C51_3 H34_3 1_555 1_555
C52_3 C51_3 1_555 1_555
H35_3 C52_3 1_555 1_555
C53_3 C52_3 1_555 1_555
C54_3 C53_3 1_555 1_555
H36_3 C54_3 1_555 1_555
C55_3 C50_3 1_555 1_555
H37_3 C55_3 1_555 1_555
N17 C29_3 1_555 1_555
N9_3 C29_3 1_555 1_555
N10_3 C47_3 1_555 1_555
N11_3 C47_3 1_555 1_555
N14_3 C35_3 1_555 1_555
C30_3 N17 1_555 1_555
C31_3 N9_3 1_555 1_555
C32_3 N9_3 1_555 1_555
C36_3 C37_3 1_555 1_555
C44_3 N14_3 1_555 1_555
C45_3 C46_3 1_555 1_555
C48_3 N10_3 1_555 1_555
C49_3 N11_3 1_555 1_555
C50_3 N11_3 1_555 1_555
C53_3 N14_3 1_555 1_555
C54_3 C55_3 1_555 1_555
C56_4 H38_4 1_555 1_555
C57_4 C56_4 1_555 1_555
H39_4 C57_4 1_555 1_555
C58_4 H40_4 1_555 1_555
N15_2 C56_4 1_555 1_555
N5_4 C57_4 1_555 1_555
C58_4 N15_2 1_555 1_555
C58_4 N5_4 1_555 1_555
C59_4 C60_4 1_555 1_555
C61_4 C60_4 1_555 1_555
H42_4 C61_4 1_555 1_555
C62_4 C61_4 1_555 1_555
C63_4 C62_4 1_555 1_555
H43_4 C63_4 1_555 1_555
C64_4 C59_4 1_555 1_555
H44_4 C64_4 1_555 1_555
C65_4 H45_4 1_555 1_555
C66_4 C65_4 1_555 1_555
H46_4 C66_4 1_555 1_555
C67_4 H47_4 1_555 1_555
C68_4 C69_4 1_555 1_555
C69_4 H48_4 1_555 1_555
C70_4 C69_4 1_555 1_555
H49_4 C70_4 1_555 1_555
C71_4 C70_4 1_555 1_555
C72_4 C71_4 1_555 1_555
H50_4 C72_4 1_555 1_555
C73_4 C68_4 1_555 1_555
H51_4 C73_4 1_555 1_555
H56_4 C79_4 1_555 1_555
C80_4 C79_4 1_555 1_555
C81_4 C80_4 1_555 1_555
H57_4 C81_4 1_555 1_555
N3_4 C62_4 1_555 1_555
N6_2 C65_4 1_555 1_555
N7_4 C66_4 1_555 1_555
Cd7_2 N6_2 1_555 1_555
C63_4 C64_4 1_555 1_555
C67_4 N6_2 1_555 1_555
C67_4 N7_4 1_555 1_555
C68_4 N7_4 1_555 1_555
C71_4 N3_4 1_555 1_555
C72_4 C73_4 1_555 1_555
C80_4 N3_4 1_555 1_555
C15_4 C16_4 1_555 1_555
C16_4 C17_4 1_555 1_555
C17_4 H9_4 1_555 1_555
C18_4 C17_4 1_555 1_555
H10_4 C18_4 1_555 1_555
C19_4 C18_4 1_555 1_555
C20_4 C19_4 1_555 1_555
H11_4 C20_4 1_555 1_555
C21_4 C16_4 1_555 1_555
H12_4 C21_4 1_555 1_555
O9_2 C15_4 1_555 1_555
O10_2 C15_4 1_555 1_555
Cd7_2 O9_2 1_555 1_555
C20_4 C21_4 1_555 1_555
O10_2 Cd7_2 1_555 1_555
C1_2 C2_2 1_555 1_555
C2_2 C3_2 1_555 1_555
C3_2 H1_2 1_555 1_555
C4_2 C3_2 1_555 1_555
H2_2 C4_2 1_555 1_555
C5_2 C4_2 1_555 1_555
C6_2 C5_2 1_555 1_555
H3_4 C6_2 1_555 1_555
C7_2 C2_2 1_555 1_555
H4_2 C7_2 1_555 1_555
C8_4 C9_4 1_555 1_555
C9_4 H5_4 1_555 1_555
C10_4 C9_4 1_555 1_555
H6_4 C10_4 1_555 1_555
C11_4 C10_4 1_555 1_555
C12_4 C11_4 1_555 1_555
H7_4 C12_4 1_555 1_555
C13_4 C8_4 1_555 1_555
H8_4 C13_4 1_555 1_555
C14_4 C11_4 1_555 1_555
H21_4 C34_4 1_555 1_555
C35_4 C34_4 1_555 1_555
C38_4 H24_4 1_555 1_555
C39_4 C38_4 1_555 1_555
H25_4 C39_4 1_555 1_555
C40_4 H26_4 1_555 1_555
C41_4 C42_4 1_555 1_555
C42_4 H27_4 1_555 1_555
C43_4 C42_4 1_555 1_555
H28_4 C43_4 1_555 1_555
C44_4 C43_4 1_555 1_555
C45_4 C44_4 1_555 1_555
H29_4 C45_4 1_555 1_555
C46_4 C41_4 1_555 1_555
H30_4 C46_4 1_555 1_555
C47_4 H31_4 1_555 1_555
C48_4 H32_4 1_555 1_555
C49_4 C48_4 1_555 1_555
H33_4 C49_4 1_555 1_555
C50_4 C51_4 1_555 1_555
C51_4 H34_4 1_555 1_555
C52_4 C51_4 1_555 1_555
H35_4 C52_4 1_555 1_555
C53_4 C52_4 1_555 1_555
C54_4 C53_4 1_555 1_555
H36_4 C54_4 1_555 1_555
C55_4 C50_4 1_555 1_555
H37_4 C55_4 1_555 1_555
C74_4 H52_4 1_555 1_555
C75_4 H53_4 1_555 1_555
C76_4 C75_4 1_555 1_555
H54_4 C76_4 1_555 1_555
C77_4 C78_4 1_555 1_555
C78_4 H55_4 1_555 1_555
C82_4 C77_4 1_555 1_555
H58_4 C82_4 1_555 1_555
Cd4_2 N10_4 1_555 1_555
Cd7_2 N1_4 1_555 1_555
N1_4 C74_4 1_555 1_555
N2_4 C74_4 1_555 1_555
N10_4 C47_4 1_555 1_555
N11_4 C47_4 1_555 1_555
N18_2 C38_4 1_555 1_555
N13_4 C39_4 1_555 1_555
N14_4 C35_4 1_555 1_555
O1_4 C1_2 1_555 1_555
O2_2 C1_2 1_555 1_555
O3_2 C5_2 1_555 1_555
O4_4 C14_4 1_555 1_555
O5_4 C14_4 1_555 1_555
N17_2 Cd4_2 1_555 1_555
C6_2 C7_2 1_555 1_555
C8_4 O3_2 1_555 1_555
C12_4 C13_4 1_555 1_555
C40_4 N18_2 1_555 1_555
C40_4 N13_4 1_555 1_555
C41_4 N13_4 1_555 1_555
C44_4 N14_4 1_555 1_555
C45_4 C46_4 1_555 1_555
C48_4 N10_4 1_555 1_555
C49_4 N11_4 1_555 1_555
C50_4 N11_4 1_555 1_555
C53_4 N14_4 1_555 1_555
C54_4 C55_4 1_555 1_555
C75_4 N2_4 1_555 1_555
C76_4 N1_4 1_555 1_555
C77_4 N2_4 1_555 1_555
Cd4_2 O4_4 1_555 1_555
Cd4_2 O5_4 1_555 1_555
Cd7_2 O2_2 1_555 1_555
C29_4 H17_4 1_555 1_555
C30_4 H18_4 1_555 1_555
C31_4 C30_4 1_555 1_555
H19_4 C31_4 1_555 1_555
C32_4 C33_4 1_555 1_555
C33_4 H20_4 1_555 1_555
H22_4 C36_4 1_555 1_555
C37_4 C32_4 1_555 1_555
H23_4 C37_4 1_555 1_555
N17_2 C29_4 1_555 1_555
N9_4 C29_4 1_555 1_555
C30_4 N17_2 1_555 1_555
C31_4 N9_4 1_555 1_555
C32_4 N9_4 1_555 1_555
C36_4 C37_4 1_555 1_555
C1_3 C2_3 1_555 1_555
C2_3 C3_3 1_555 1_555
C3_3 H1_3 1_555 1_555
C4_3 C3_3 1_555 1_555
H2_3 C4_3 1_555 1_555
C5_3 C4_3 1_555 1_555
C6_3 C5_3 1_555 1_555
C7_3 C2_3 1_555 1_555
H4_3 C7_3 1_555 1_555
O2_3 C1_3 1_555 1_555
O3_3 C5_3 1_555 1_555
C6_3 C7_3 1_555 1_555
C22_4 C23_4 1_555 1_555
C23_4 C24_4 1_555 1_555
C24_4 H13_4 1_555 1_555
C25_4 C24_4 1_555 1_555
H14_4 C25_4 1_555 1_555
C26_4 C25_4 1_555 1_555
C27_4 C26_4 1_555 1_555
C28_4 C23_4 1_555 1_555
H16_4 C28_4 1_555 1_555
O6_4 C22_4 1_555 1_555
O7_4 C22_4 1_555 1_555
C26_4 O8_4 1_555 1_555
C27_4 C28_4 1_555 1_555
C1_4 C2_4 1_555 1_555
C2_4 C3_4 1_555 1_555
C3_4 H1_4 1_555 1_555
C4_4 C3_4 1_555 1_555
H2_4 C4_4 1_555 1_555
C5_4 C4_4 1_555 1_555
C6_4 C5_4 1_555 1_555
C7_4 C2_4 1_555 1_555
H4_4 C7_4 1_555 1_555
O2_4 C1_4 1_555 1_555
O3_4 C5_4 1_555 1_555
C6_4 C7_4 1_555 1_555

#END
