
###############################################################################
#
# This file contains modified crystal structure data generated from the
# MOF subset of the Cambridge Structural Database (CSD) v543 
# hosted by the Cambridge Crystallographic Data Centre (CCDC).
#
# This work is licensed under the Creative Commons
# Attribution-NonCommercial-ShareAlike 4.0 International License.
# To view a copy of this license, visit
# http://creativecommons.org/licenses/by-nc-sa/4.0/
# or send a letter to
# Creative Commons, PO Box 1866, Mountain View, CA 94042, USA.
#
# CIF created using the CSD Python API on 29 September 2022
# The structure has been converted into the P1 space group
# The structure has a 3D framework
# The original CSD entry UZEGIS is in the monoclinic crystal system
# The framework has been calculated to contain at least 10.0% void space
# The void calculation uses a probe of radius 1.32A, grid spacing 0.4
# The framework is charged, counterions have been retained in the structure
#
###############################################################################

data_UZEGIS
_chemical_formula_moiety         '(C24 H40 N4 O35 Tb4)n'
_symmetry_cell_setting           triclinic
_symmetry_space_group_name_H-M   'P 1'
_symmetry_Int_Tables_number      1
_space_group_name_Hall           'P 1'
loop_
_symmetry_equiv_pos_site_id
_symmetry_equiv_pos_as_xyz
1 x,y,z
_cell_length_a                   9.6439(4)
_cell_length_b                   11.6434(4)
_cell_length_c                   14.3243(5)
_cell_angle_alpha                90
_cell_angle_beta                 122.428(2)
_cell_angle_gamma                90
_cell_volume                     1357.63
loop_
_atom_site_label
_atom_site_type_symbol
_atom_site_fract_x
_atom_site_fract_y
_atom_site_fract_z
C3 C 0.0058(4) 0.5662(4) 0.0010(3)
O10 O 0.6100(5) 0.5113(3) 0.1427(3)
O11 O 0.3404(5) 0.4884(3) 0.0227(3)
C5 C 0.4852(6) 0.4997(3) 0.0485(4)
O15 O 0.1162(4) 0.3944(3) 0.2976(3)
O18 O 0.2043(4) 0.2131(3) 0.3435(3)
C8 C 0.0961(5) 0.2881(4) 0.2941(4)
Tb4 Tb 0.88249(3) 0.51368(2) 0.168070(18)
Tb5 Tb 0.11751(3) 0.01368(2) 0.331930(18)
O22 O 0.1025(4) 0.6377(3) 0.2934(3)
Tb1 Tb 0.11751(3) 0.48632(2) 0.831930(18)
O1 O 0.3900(5) 0.4887(3) 0.8573(3)
O2 O 0.6596(5) 0.5116(3) 0.9773(3)
O3 O 0.1931(4) 0.6813(3) 0.8281(3)
O4 O 0.0371(4) 0.6108(3) 0.9356(3)
O7 O 0.1025(4) 0.8623(3) 0.7934(3)
O8 O 0.1050(5) 0.4789(3) 0.6553(3)
H1 H 0.1534 0.5279 0.6345
H2 H 0.0509 0.4271 0.6028
C1 C 0.0836(5) 0.7566(4) 0.7831(3)
C4 C 0.5148(6) 0.5003(3) 0.9515(4)
O13 O 0.0189(4) 0.3824(3) 0.9331(3)
O23 O 0.2043(4) 0.2869(3) 0.8435(3)
O6 O 0.9811(4) 0.6176(3) 0.0669(3)
O12 O 0.9629(4) 0.3892(3) 0.0644(3)
O14 O 0.8069(4) 0.3187(3) 0.1719(3)
O16 O 0.8975(4) 0.1377(3) 0.2066(3)
O17 O 0.8950(5) 0.5211(3) 0.3447(3)
H3 H 0.8466 0.4721 0.3655
H4 H 0.9491 0.5729 0.3972
C7 C 0.9164(5) 0.2434(4) 0.2169(3)
O24 O 0.7957(4) 0.7131(3) 0.1565(3)
O5 O 0.8838(4) 0.6056(3) 0.7024(3)
O9 O 0.7957(4) 0.7869(3) 0.6565(3)
C2 C 0.9039(5) 0.7119(4) 0.7059(4)
C6 C 0.9942(4) 0.4338(4) 0.9990(3)
Tb3 Tb 0.88249(3) 0.98632(2) 0.668070(18)
O21 O 0.8975(4) 0.3623(3) 0.7066(3)
O5_2 O 0.1162(4) 0.1056(3) 0.7976(3)
O6_2 O 0.0189(4) 0.1176(3) 0.4331(3)
C2_2 C 0.0961(5) 0.2119(4) 0.7941(4)
O17_2 O 0.1050(5) 0.0211(3) 0.1553(3)
H4_2 H 0.0509 0.0729 0.1028
O19 O 0.3900(5) 0.0113(3) 0.3573(3)
O20 O 0.3404(5) 0.0116(3) 0.5227(3)
O12_2 O 0.0371(4) 0.8892(3) 0.4356(3)
C6_2 C 0.0058(4) 0.9338(4) 0.5010(3)
O14_2 O 0.1931(4) 0.8187(3) 0.3281(3)
H3_2 H 0.1534 0.9721 0.1345
C7_2 C 0.0836(5) 0.7434(4) 0.2831(3)
O3_2 O 0.8069(4) 0.1813(3) 0.6719(3)
O4_2 O 0.9629(4) 0.1108(3) 0.5644(3)
H1_2 H 0.8466 0.0279 0.8655
C1_2 C 0.9164(5) 0.2566(4) 0.7169(3)
C3_2 C 0.9942(4) 0.0662(4) 0.4990(3)
C4_2 C 0.4852(6) 0.0003(3) 0.5485(4)
O1_2 O 0.6100(5) 0.9887(3) 0.6427(3)
O8_2 O 0.8950(5) 0.9789(3) 0.8447(3)
H2_2 H 0.9491 0.9271 0.8972
O11_2 O 0.6596(5) 0.9884(3) 0.4773(3)
C5_2 C 0.5148(6) 0.9997(3) 0.4515(4)
O13_2 O 0.9811(4) 0.8824(3) 0.5669(3)
O15_2 O 0.8838(4) 0.8944(3) 0.2024(3)
C8_2 C 0.9039(5) 0.7881(4) 0.2059(4)
N1 N 0.5747(5) 0.8700(5) 0.8049(4)
H5 H 0.6161 0.9111 0.8676
H6 H 0.6083 0.9033 0.7636
C9 C 0.3970(7) 0.8747(8) 0.7449(5)
H7 H 0.3516 0.8274 0.6801
H8 H 0.3613 0.9526 0.7235
H9 H 0.3605 0.8473 0.7915
C10 C 0.6422(10) 0.7524(9) 0.8337(6)
H10 H 0.5951 0.7068 0.7677
H11 H 0.6160 0.7187 0.8835
H12 H 0.7593 0.7551 0.8685
N1_2 N 0.4253(5) 0.3700(5) 0.6951(4)
H5_2 H 0.3839 0.4111 0.6324
H6_2 H 0.3917 0.4033 0.7364
C9_2 C 0.6030(7) 0.3747(8) 0.7551(5)
H7_2 H 0.6484 0.3274 0.8199
H8_2 H 0.6387 0.4526 0.7765
H9_2 H 0.6395 0.3473 0.7085
C10_2 C 0.3578(10) 0.2524(9) 0.6663(6)
H10_2 H 0.4049 0.2068 0.7323
H11_2 H 0.3840 0.2187 0.6165
H12_2 H 0.2407 0.2551 0.6315
N1_3 N 0.4253(5) 0.1300(5) 0.1951(4)
H5_3 H 0.3839 0.0889 0.1324
H6_3 H 0.3917 0.0967 0.2364
C9_3 C 0.6030(7) 0.1253(8) 0.2551(5)
H7_3 H 0.6484 0.1726 0.3199
H8_3 H 0.6387 0.0474 0.2765
H9_3 H 0.6395 0.1527 0.2085
C10_3 C 0.3578(10) 0.2476(9) 0.1663(6)
H10_3 H 0.4049 0.2932 0.2323
H11_3 H 0.3840 0.2813 0.1165
H12_3 H 0.2407 0.2449 0.1315
N1_4 N 0.5747(5) 0.6300(5) 0.3049(4)
H5_4 H 0.6161 0.5889 0.3676
H6_4 H 0.6083 0.5967 0.2636
C9_4 C 0.3970(7) 0.6253(8) 0.2449(5)
H7_4 H 0.3516 0.6726 0.1801
H8_4 H 0.3613 0.5474 0.2235
H9_4 H 0.3605 0.6527 0.2915
C10_4 C 0.6422(10) 0.7476(9) 0.3337(6)
H10_4 H 0.5951 0.7932 0.2677
H11_4 H 0.6160 0.7813 0.3835
H12_4 H 0.7593 0.7449 0.3685
loop_
_geom_bond_atom_site_label_1
_geom_bond_atom_site_label_2
_geom_bond_site_symmetry_1
_geom_bond_site_symmetry_2
O10 C5 1_555 1_555
C5 O11 1_555 1_555
O18 C8 1_555 1_555
C8 O15 1_555 1_555
O10 Tb4 1_555 1_555
O18 Tb5 1_555 1_555
Tb1 O1 1_555 1_555
O1 C4 1_555 1_555
O2 C4 1_555 1_555
O3 Tb1 1_555 1_555
O4 Tb1 1_555 1_555
O7 C1 1_555 1_555
O8 Tb1 1_555 1_555
H1 O8 1_555 1_555
H2 O8 1_555 1_555
C1 O3 1_555 1_555
O13 Tb1 1_555 1_555
O23 Tb1 1_555 1_555
Tb4 O6 1_555 1_555
O14 Tb4 1_555 1_555
O16 C7 1_555 1_555
O17 Tb4 1_555 1_555
H3 O17 1_555 1_555
H4 O17 1_555 1_555
C7 O14 1_555 1_555
O24 Tb4 1_555 1_555
O12 Tb4 1_555 1_555
O9 C2 1_555 1_555
C2 O5 1_555 1_555
O9 Tb3 1_555 1_555
O23 C2_2 1_555 1_555
C2_2 O5_2 1_555 1_555
Tb5 O6_2 1_555 1_555
O17_2 Tb5 1_555 1_555
H4_2 O17_2 1_555 1_555
O19 Tb5 1_555 1_555
O20 Tb5 1_555 1_555
O12_2 C6_2 1_555 1_555
O22 C7_2 1_555 1_555
C7_2 O14_2 1_555 1_555
O20 C4_2 1_555 1_555
O21 C1_2 1_555 1_555
C1_2 O3_2 1_555 1_555
C3_2 O4_2 1_555 1_555
Tb3 O1_2 1_555 1_555
O8_2 Tb3 1_555 1_555
H2_2 O8_2 1_555 1_555
O11_2 Tb3 1_555 1_555
C5_2 O11_2 1_555 1_555
O13_2 Tb3 1_555 1_555
O24 C8_2 1_555 1_555
C8_2 O15_2 1_555 1_555
N1 H5 1_555 1_555
H6 N1 1_555 1_555
C9 N1 1_555 1_555
H7 C9 1_555 1_555
H8 C9 1_555 1_555
H9 C9 1_555 1_555
C10 N1 1_555 1_555
H10 C10 1_555 1_555
H11 C10 1_555 1_555
H12 C10 1_555 1_555
N1_2 H5_2 1_555 1_555
H6_2 N1_2 1_555 1_555
C9_2 N1_2 1_555 1_555
H7_2 C9_2 1_555 1_555
H8_2 C9_2 1_555 1_555
H9_2 C9_2 1_555 1_555
C10_2 N1_2 1_555 1_555
H10_2 C10_2 1_555 1_555
H11_2 C10_2 1_555 1_555
H12_2 C10_2 1_555 1_555
N1_3 H5_3 1_555 1_555
H6_3 N1_3 1_555 1_555
C9_3 N1_3 1_555 1_555
H7_3 C9_3 1_555 1_555
H8_3 C9_3 1_555 1_555
H9_3 C9_3 1_555 1_555
C10_3 N1_3 1_555 1_555
H10_3 C10_3 1_555 1_555
H11_3 C10_3 1_555 1_555
H12_3 C10_3 1_555 1_555
N1_4 H5_4 1_555 1_555
H6_4 N1_4 1_555 1_555
C9_4 N1_4 1_555 1_555
H7_4 C9_4 1_555 1_555
H8_4 C9_4 1_555 1_555
H9_4 C9_4 1_555 1_555
C10_4 N1_4 1_555 1_555
H10_4 C10_4 1_555 1_555
H11_4 C10_4 1_555 1_555
H12_4 C10_4 1_555 1_555

#END
