
###############################################################################
#
# This file contains modified crystal structure data generated from the
# MOF subset of the Cambridge Structural Database (CSD) v543 
# hosted by the Cambridge Crystallographic Data Centre (CCDC).
#
# This work is licensed under the Creative Commons
# Attribution-NonCommercial-ShareAlike 4.0 International License.
# To view a copy of this license, visit
# http://creativecommons.org/licenses/by-nc-sa/4.0/
# or send a letter to
# Creative Commons, PO Box 1866, Mountain View, CA 94042, USA.
#
# CIF created using the CSD Python API on 29 September 2022
# The structure has been converted into the P1 space group
# The structure has a 3D framework
# The original CSD entry UZEWOM is in the cubic crystal system
# The framework has been calculated to contain at least 10.0% void space
# The void calculation uses a probe of radius 1.32A, grid spacing 0.4
# H atom positions have been added when not included in the experimental data
#
###############################################################################

data_UZEWOM
_chemical_formula_moiety         '(C96 H192 N48 Zn12)n'
_symmetry_cell_setting           triclinic
_symmetry_space_group_name_H-M   'P 1'
_symmetry_Int_Tables_number      1
_space_group_name_Hall           'P 1'
loop_
_symmetry_equiv_pos_site_id
_symmetry_equiv_pos_as_xyz
1 x,y,z
_cell_length_a                   17.0293(3)
_cell_length_b                   17.0293(3)
_cell_length_c                   17.0293(3)
_cell_angle_alpha                90
_cell_angle_beta                 90
_cell_angle_gamma                90
_cell_volume                     4938.45
loop_
_atom_site_label
_atom_site_type_symbol
_atom_site_fract_x
_atom_site_fract_y
_atom_site_fract_z
_atom_site_U_iso_or_equiv
_atom_site_thermal_displace_type
C1 C 0.37705 0.0079 0.62295 0.0100 Uiso
C3 C 0.4061 0.0855 0.5939 0.0100 Uiso
Zn1 Zn 0.50000 0.00000 0.75000 0.0100 Uiso
C6 C 0.63149 0.10086 0.6875 0.0100 Uiso
C7 C 0.6875 0.10086 0.63149 0.0100 Uiso
N3 N 0.59027 0.03168 0.68278 0.0100 Uiso
N4 N 0.68278 0.03168 0.59027 0.0100 Uiso
N6 N 0.46832 0.09027 0.81722 0.0100 Uiso
Zn2 Zn 0.25000 0.00000 0.50000 0.0100 Uiso
Zn3 Zn 0.75000 0.00000 0.50000 0.0100 Uiso
H1 H 0.620736 0.147885 0.729481 . .
H2 H 0.466655 0.0795807 0.574214 . .
H3 H 0.369638 0.105008 0.545121 . .
H4 H 0.403165 0.128428 0.641208 . .
H10 H 0.729481 0.147885 0.620736 . .
C2 C 0.36851 0.89914 0.6875 0.0100 Uiso
N1 N 0.40973 0.96832 0.68278 0.0100 Uiso
Zn1_2 Zn 0.50000 1.00000 0.75000 0.0100 Uiso
C4 C 0.62295 0.9921 0.62295 0.0100 Uiso
C5 C 0.3125 0.89914 0.63149 0.0100 Uiso
C8 C 0.5939 0.9145 0.5939 0.0100 Uiso
N2 N 0.31722 0.96832 0.59027 0.0100 Uiso
N5 N 0.53168 0.90973 0.81722 0.0100 Uiso
Zn2_2 Zn 0.25000 1.00000 0.50000 0.0100 Uiso
Zn3_2 Zn 0.75000 1.00000 0.50000 0.0100 Uiso
H5 H 0.533345 0.920419 0.574214 . .
H6 H 0.630362 0.894992 0.545121 . .
H7 H 0.596835 0.871572 0.641208 . .
H8 H 0.270519 0.852115 0.620736 . .
H9 H 0.379264 0.852115 0.729481 . .
C1_2 C 0.62295 0.37705 0.0079 0.0100 Uiso
C3_2 C 0.5939 0.4061 0.0855 0.0100 Uiso
Zn1_3 Zn 0.75000 0.50000 0.00000 0.0100 Uiso
C6_2 C 0.6875 0.63149 0.10086 0.0100 Uiso
C7_2 C 0.63149 0.6875 0.10086 0.0100 Uiso
N3_2 N 0.68278 0.59027 0.03168 0.0100 Uiso
N4_2 N 0.59027 0.68278 0.03168 0.0100 Uiso
N6_2 N 0.81722 0.46832 0.09027 0.0100 Uiso
Zn2_3 Zn 0.50000 0.25000 0.00000 0.0100 Uiso
Zn3_3 Zn 0.50000 0.75000 0.00000 0.0100 Uiso
H1_2 H 0.729481 0.620736 0.147885 . .
H2_2 H 0.574214 0.466655 0.0795807 . .
H3_2 H 0.545121 0.369638 0.105008 . .
H4_2 H 0.641208 0.403165 0.128428 . .
H10_2 H 0.620736 0.729481 0.147885 . .
C2_2 C 0.6875 0.36851 0.89914 0.0100 Uiso
N1_2 N 0.68278 0.40973 0.96832 0.0100 Uiso
Zn1_4 Zn 0.75000 0.50000 1.00000 0.0100 Uiso
C4_2 C 0.62295 0.62295 0.9921 0.0100 Uiso
C5_2 C 0.63149 0.3125 0.89914 0.0100 Uiso
C8_2 C 0.5939 0.5939 0.9145 0.0100 Uiso
N2_2 N 0.59027 0.31722 0.96832 0.0100 Uiso
N5_2 N 0.81722 0.53168 0.90973 0.0100 Uiso
Zn2_4 Zn 0.50000 0.25000 1.00000 0.0100 Uiso
Zn3_4 Zn 0.50000 0.75000 1.00000 0.0100 Uiso
H5_2 H 0.574214 0.533345 0.920419 . .
H6_2 H 0.545121 0.630362 0.894992 . .
H7_2 H 0.641208 0.596835 0.871572 . .
H8_2 H 0.620736 0.270519 0.852115 . .
H9_2 H 0.729481 0.379264 0.852115 . .
C1_3 C 0.0079 0.62295 0.37705 0.0100 Uiso
C3_3 C 0.0855 0.5939 0.4061 0.0100 Uiso
Zn1_5 Zn 0.00000 0.75000 0.50000 0.0100 Uiso
C6_3 C 0.10086 0.6875 0.63149 0.0100 Uiso
C7_3 C 0.10086 0.63149 0.6875 0.0100 Uiso
N3_3 N 0.03168 0.68278 0.59027 0.0100 Uiso
N4_3 N 0.03168 0.59027 0.68278 0.0100 Uiso
N6_3 N 0.09027 0.81722 0.46832 0.0100 Uiso
Zn2_5 Zn 0.00000 0.50000 0.25000 0.0100 Uiso
Zn3_5 Zn 0.00000 0.50000 0.75000 0.0100 Uiso
H1_3 H 0.147885 0.729481 0.620736 . .
H2_3 H 0.0795807 0.574214 0.466655 . .
H3_3 H 0.105008 0.545121 0.369638 . .
H4_3 H 0.128428 0.641208 0.403165 . .
H10_3 H 0.147885 0.620736 0.729481 . .
C2_3 C 0.89914 0.6875 0.36851 0.0100 Uiso
N1_3 N 0.96832 0.68278 0.40973 0.0100 Uiso
Zn1_6 Zn 1.00000 0.75000 0.50000 0.0100 Uiso
C4_3 C 0.9921 0.62295 0.62295 0.0100 Uiso
C5_3 C 0.89914 0.63149 0.3125 0.0100 Uiso
C8_3 C 0.9145 0.5939 0.5939 0.0100 Uiso
N2_3 N 0.96832 0.59027 0.31722 0.0100 Uiso
N5_3 N 0.90973 0.81722 0.53168 0.0100 Uiso
Zn2_6 Zn 1.00000 0.50000 0.25000 0.0100 Uiso
Zn3_6 Zn 1.00000 0.50000 0.75000 0.0100 Uiso
H5_3 H 0.920419 0.574214 0.533345 . .
H6_3 H 0.894992 0.545121 0.630362 . .
H7_3 H 0.871572 0.641208 0.596835 . .
H8_3 H 0.852115 0.620736 0.270519 . .
H9_3 H 0.852115 0.729481 0.379264 . .
C6_4 C 0.10086 0.36851 0.3125 0.0100 Uiso
C7_4 C 0.10086 0.3125 0.36851 0.0100 Uiso
N3_4 N 0.03168 0.40973 0.31722 0.0100 Uiso
N4_4 N 0.03168 0.31722 0.40973 0.0100 Uiso
N6_4 N 0.09027 0.53168 0.18278 0.0100 Uiso
Zn3_7 Zn 0.00000 0.25000 0.50000 0.0100 Uiso
H1_4 H 0.147885 0.379264 0.270519 . .
H2_4 H 0.0795807 0.533345 0.425786 . .
H3_4 H 0.105008 0.630362 0.454879 . .
H4_4 H 0.128428 0.596835 0.358792 . .
H10_4 H 0.147885 0.270519 0.379264 . .
C4_4 C 0.9921 0.37705 0.37705 0.0100 Uiso
C8_4 C 0.9145 0.4061 0.4061 0.0100 Uiso
N5_4 N 0.90973 0.46832 0.18278 0.0100 Uiso
Zn3_8 Zn 1.00000 0.25000 0.50000 0.0100 Uiso
H5_4 H 0.920419 0.466655 0.425786 . .
H6_4 H 0.894992 0.369638 0.454879 . .
H7_4 H 0.871572 0.403165 0.358792 . .
C6_5 C 0.3125 0.10086 0.36851 0.0100 Uiso
C7_5 C 0.36851 0.10086 0.3125 0.0100 Uiso
N3_5 N 0.31722 0.03168 0.40973 0.0100 Uiso
N4_5 N 0.40973 0.03168 0.31722 0.0100 Uiso
N6_5 N 0.18278 0.09027 0.53168 0.0100 Uiso
Zn3_9 Zn 0.50000 0.00000 0.25000 0.0100 Uiso
H1_5 H 0.270519 0.147885 0.379264 . .
H2_5 H 0.425786 0.0795807 0.533345 . .
H3_5 H 0.454879 0.105008 0.630362 . .
H4_5 H 0.358792 0.128428 0.596835 . .
H10_5 H 0.379264 0.147885 0.270519 . .
C4_5 C 0.37705 0.9921 0.37705 0.0100 Uiso
C8_5 C 0.4061 0.9145 0.4061 0.0100 Uiso
N5_5 N 0.18278 0.90973 0.46832 0.0100 Uiso
Zn3_10 Zn 0.50000 1.00000 0.25000 0.0100 Uiso
H5_5 H 0.425786 0.920419 0.466655 . .
H6_5 H 0.454879 0.894992 0.369638 . .
H7_5 H 0.358792 0.871572 0.403165 . .
C6_6 C 0.36851 0.3125 0.10086 0.0100 Uiso
C7_6 C 0.3125 0.36851 0.10086 0.0100 Uiso
N3_6 N 0.40973 0.31722 0.03168 0.0100 Uiso
N4_6 N 0.31722 0.40973 0.03168 0.0100 Uiso
N6_6 N 0.53168 0.18278 0.09027 0.0100 Uiso
Zn3_11 Zn 0.25000 0.50000 0.00000 0.0100 Uiso
H1_6 H 0.379264 0.270519 0.147885 . .
H2_6 H 0.533345 0.425786 0.0795807 . .
H3_6 H 0.630362 0.454879 0.105008 . .
H4_6 H 0.596835 0.358792 0.128428 . .
H10_6 H 0.270519 0.379264 0.147885 . .
C4_6 C 0.37705 0.37705 0.9921 0.0100 Uiso
C8_6 C 0.4061 0.4061 0.9145 0.0100 Uiso
N5_6 N 0.46832 0.18278 0.90973 0.0100 Uiso
Zn3_12 Zn 0.25000 0.50000 1.00000 0.0100 Uiso
H5_6 H 0.466655 0.425786 0.920419 . .
H6_6 H 0.369638 0.454879 0.894992 . .
H7_6 H 0.403165 0.358792 0.871572 . .
C4_7 C 0.37705 0.62295 0.0079 0.0100 Uiso
C8_7 C 0.4061 0.5939 0.0855 0.0100 Uiso
N5_7 N 0.18278 0.53168 0.09027 0.0100 Uiso
H5_7 H 0.425786 0.533345 0.0795807 . .
H6_7 H 0.454879 0.630362 0.105008 . .
H7_7 H 0.358792 0.596835 0.128428 . .
C6_7 C 0.3125 0.63149 0.89914 0.0100 Uiso
C7_7 C 0.36851 0.6875 0.89914 0.0100 Uiso
N3_7 N 0.31722 0.59027 0.96832 0.0100 Uiso
N4_7 N 0.40973 0.68278 0.96832 0.0100 Uiso
N6_7 N 0.18278 0.46832 0.90973 0.0100 Uiso
H1_7 H 0.270519 0.620736 0.852115 . .
H2_7 H 0.425786 0.466655 0.920419 . .
H3_7 H 0.454879 0.369638 0.894992 . .
H4_7 H 0.358792 0.403165 0.871572 . .
H10_7 H 0.379264 0.729481 0.852115 . .
C4_8 C 0.0079 0.37705 0.62295 0.0100 Uiso
C8_8 C 0.0855 0.4061 0.5939 0.0100 Uiso
N5_8 N 0.09027 0.18278 0.53168 0.0100 Uiso
H5_8 H 0.0795807 0.425786 0.533345 . .
H6_8 H 0.105008 0.454879 0.630362 . .
H7_8 H 0.128428 0.358792 0.596835 . .
C6_8 C 0.89914 0.3125 0.63149 0.0100 Uiso
C7_8 C 0.89914 0.36851 0.6875 0.0100 Uiso
N3_8 N 0.96832 0.31722 0.59027 0.0100 Uiso
N4_8 N 0.96832 0.40973 0.68278 0.0100 Uiso
N6_8 N 0.90973 0.18278 0.46832 0.0100 Uiso
H1_8 H 0.852115 0.270519 0.620736 . .
H2_8 H 0.920419 0.425786 0.466655 . .
H3_8 H 0.894992 0.454879 0.369638 . .
H4_8 H 0.871572 0.358792 0.403165 . .
H10_8 H 0.852115 0.379264 0.729481 . .
C4_9 C 0.62295 0.0079 0.37705 0.0100 Uiso
C8_9 C 0.5939 0.0855 0.4061 0.0100 Uiso
N5_9 N 0.53168 0.09027 0.18278 0.0100 Uiso
H5_9 H 0.533345 0.0795807 0.425786 . .
H6_9 H 0.630362 0.105008 0.454879 . .
H7_9 H 0.596835 0.128428 0.358792 . .
C6_9 C 0.63149 0.89914 0.3125 0.0100 Uiso
C7_9 C 0.6875 0.89914 0.36851 0.0100 Uiso
N3_9 N 0.59027 0.96832 0.31722 0.0100 Uiso
N4_9 N 0.68278 0.96832 0.40973 0.0100 Uiso
N6_9 N 0.46832 0.90973 0.18278 0.0100 Uiso
H1_9 H 0.620736 0.852115 0.270519 . .
H2_9 H 0.466655 0.920419 0.425786 . .
H3_9 H 0.369638 0.894992 0.454879 . .
H4_9 H 0.403165 0.871572 0.358792 . .
H10_9 H 0.729481 0.852115 0.379264 . .
N6_10 N 0.46832 0.81722 0.09027 0.0100 Uiso
H2_10 H 0.466655 0.574214 0.0795807 . .
H3_10 H 0.369638 0.545121 0.105008 . .
H4_10 H 0.403165 0.641208 0.128428 . .
N5_10 N 0.53168 0.81722 0.90973 0.0100 Uiso
H5_10 H 0.533345 0.574214 0.920419 . .
H6_10 H 0.630362 0.545121 0.894992 . .
H7_10 H 0.596835 0.641208 0.871572 . .
N6_11 N 0.09027 0.46832 0.81722 0.0100 Uiso
H2_11 H 0.0795807 0.466655 0.574214 . .
H3_11 H 0.105008 0.369638 0.545121 . .
H4_11 H 0.128428 0.403165 0.641208 . .
N5_11 N 0.90973 0.53168 0.81722 0.0100 Uiso
H5_11 H 0.920419 0.533345 0.574214 . .
H6_11 H 0.894992 0.630362 0.545121 . .
H7_11 H 0.871572 0.596835 0.641208 . .
N6_12 N 0.81722 0.09027 0.46832 0.0100 Uiso
H2_12 H 0.574214 0.0795807 0.466655 . .
H3_12 H 0.545121 0.105008 0.369638 . .
H4_12 H 0.641208 0.128428 0.403165 . .
N5_12 N 0.81722 0.90973 0.53168 0.0100 Uiso
H5_12 H 0.574214 0.920419 0.533345 . .
H6_12 H 0.545121 0.894992 0.630362 . .
H7_12 H 0.641208 0.871572 0.596835 . .
C4_10 C 0.12295 0.4921 0.12295 0.0100 Uiso
C6_10 C 0.13149 0.60086 0.1875 0.0100 Uiso
C7_10 C 0.1875 0.60086 0.13149 0.0100 Uiso
C8_10 C 0.0939 0.4145 0.0939 0.0100 Uiso
H1_10 H 0.120736 0.647885 0.229481 . .
H5_13 H 0.0333455 0.420419 0.0742141 . .
H6_13 H 0.130362 0.394992 0.045121 . .
H7_13 H 0.0968353 0.371572 0.141208 . .
H10_10 H 0.229481 0.647885 0.120736 . .
C1_4 C 0.87705 0.5079 0.12295 0.0100 Uiso
C2_4 C 0.86851 0.39914 0.1875 0.0100 Uiso
C3_4 C 0.9061 0.5855 0.0939 0.0100 Uiso
C5_4 C 0.8125 0.39914 0.13149 0.0100 Uiso
H2_13 H 0.966655 0.579581 0.0742141 . .
H3_13 H 0.869638 0.605008 0.045121 . .
H4_13 H 0.903165 0.628428 0.141208 . .
H8_4 H 0.770519 0.352115 0.120736 . .
H9_4 H 0.879264 0.352115 0.229481 . .
C4_11 C 0.12295 0.12295 0.4921 0.0100 Uiso
C6_11 C 0.1875 0.13149 0.60086 0.0100 Uiso
C7_11 C 0.13149 0.1875 0.60086 0.0100 Uiso
C8_11 C 0.0939 0.0939 0.4145 0.0100 Uiso
H1_11 H 0.229481 0.120736 0.647885 . .
H5_14 H 0.0742141 0.0333455 0.420419 . .
H6_14 H 0.045121 0.130362 0.394992 . .
H7_14 H 0.141208 0.0968353 0.371572 . .
H10_11 H 0.120736 0.229481 0.647885 . .
C1_5 C 0.12295 0.87705 0.5079 0.0100 Uiso
C2_5 C 0.1875 0.86851 0.39914 0.0100 Uiso
C3_5 C 0.0939 0.9061 0.5855 0.0100 Uiso
C5_5 C 0.13149 0.8125 0.39914 0.0100 Uiso
H2_14 H 0.0742141 0.966655 0.579581 . .
H3_14 H 0.045121 0.869638 0.605008 . .
H4_14 H 0.141208 0.903165 0.628428 . .
H8_5 H 0.120736 0.770519 0.352115 . .
H9_5 H 0.229481 0.879264 0.352115 . .
C4_12 C 0.4921 0.12295 0.12295 0.0100 Uiso
C6_12 C 0.60086 0.1875 0.13149 0.0100 Uiso
C7_12 C 0.60086 0.13149 0.1875 0.0100 Uiso
C8_12 C 0.4145 0.0939 0.0939 0.0100 Uiso
H1_12 H 0.647885 0.229481 0.120736 . .
H5_15 H 0.420419 0.0742141 0.0333455 . .
H6_15 H 0.394992 0.045121 0.130362 . .
H7_15 H 0.371572 0.141208 0.0968353 . .
H10_12 H 0.647885 0.120736 0.229481 . .
C1_6 C 0.5079 0.12295 0.87705 0.0100 Uiso
C2_6 C 0.39914 0.1875 0.86851 0.0100 Uiso
C3_6 C 0.5855 0.0939 0.9061 0.0100 Uiso
C5_6 C 0.39914 0.13149 0.8125 0.0100 Uiso
H2_15 H 0.579581 0.0742141 0.966655 . .
H3_15 H 0.605008 0.045121 0.869638 . .
H4_15 H 0.628428 0.141208 0.903165 . .
H8_6 H 0.352115 0.120736 0.770519 . .
H9_6 H 0.352115 0.229481 0.879264 . .
H2_16 H 0.579581 0.0333455 0.925786 . .
H3_16 H 0.605008 0.130362 0.954879 . .
H4_16 H 0.628428 0.0968353 0.858792 . .
C4_13 C 0.4921 0.87705 0.87705 0.0100 Uiso
C6_13 C 0.60086 0.86851 0.8125 0.0100 Uiso
C7_13 C 0.60086 0.8125 0.86851 0.0100 Uiso
C8_13 C 0.4145 0.9061 0.9061 0.0100 Uiso
H1_13 H 0.647885 0.879264 0.770519 . .
H5_16 H 0.420419 0.966655 0.925786 . .
H6_16 H 0.394992 0.869638 0.954879 . .
H7_16 H 0.371572 0.903165 0.858792 . .
H10_13 H 0.647885 0.770519 0.879264 . .
H2_17 H 0.925786 0.579581 0.0333455 . .
H3_17 H 0.954879 0.605008 0.130362 . .
H4_17 H 0.858792 0.628428 0.0968353 . .
C4_14 C 0.87705 0.4921 0.87705 0.0100 Uiso
C6_14 C 0.8125 0.60086 0.86851 0.0100 Uiso
C7_14 C 0.86851 0.60086 0.8125 0.0100 Uiso
C8_14 C 0.9061 0.4145 0.9061 0.0100 Uiso
H1_14 H 0.770519 0.647885 0.879264 . .
H5_17 H 0.925786 0.420419 0.966655 . .
H6_17 H 0.954879 0.394992 0.869638 . .
H7_17 H 0.858792 0.371572 0.903165 . .
H10_14 H 0.879264 0.647885 0.770519 . .
H2_18 H 0.0333455 0.925786 0.579581 . .
H3_18 H 0.130362 0.954879 0.605008 . .
H4_18 H 0.0968353 0.858792 0.628428 . .
C4_15 C 0.87705 0.87705 0.4921 0.0100 Uiso
C6_15 C 0.86851 0.8125 0.60086 0.0100 Uiso
C7_15 C 0.8125 0.86851 0.60086 0.0100 Uiso
C8_15 C 0.9061 0.9061 0.4145 0.0100 Uiso
H1_15 H 0.879264 0.770519 0.647885 . .
H5_18 H 0.966655 0.925786 0.420419 . .
H6_18 H 0.869638 0.954879 0.394992 . .
H7_18 H 0.903165 0.858792 0.371572 . .
H10_15 H 0.770519 0.879264 0.647885 . .
C4_16 C 0.87705 0.12295 0.5079 0.0100 Uiso
C6_16 C 0.8125 0.13149 0.39914 0.0100 Uiso
C7_16 C 0.86851 0.1875 0.39914 0.0100 Uiso
C8_16 C 0.9061 0.0939 0.5855 0.0100 Uiso
H1_16 H 0.770519 0.120736 0.352115 . .
H5_19 H 0.925786 0.0333455 0.579581 . .
H6_19 H 0.954879 0.130362 0.605008 . .
H7_19 H 0.858792 0.0968353 0.628428 . .
H10_16 H 0.879264 0.229481 0.352115 . .
H2_19 H 0.925786 0.966655 0.420419 . .
H3_19 H 0.954879 0.869638 0.394992 . .
H4_19 H 0.858792 0.903165 0.371572 . .
C4_17 C 0.5079 0.87705 0.12295 0.0100 Uiso
C6_17 C 0.39914 0.8125 0.13149 0.0100 Uiso
C7_17 C 0.39914 0.86851 0.1875 0.0100 Uiso
C8_17 C 0.5855 0.9061 0.0939 0.0100 Uiso
H1_17 H 0.352115 0.770519 0.120736 . .
H5_20 H 0.579581 0.925786 0.0333455 . .
H6_20 H 0.605008 0.954879 0.130362 . .
H7_20 H 0.628428 0.858792 0.0968353 . .
H10_17 H 0.352115 0.879264 0.229481 . .
H2_20 H 0.420419 0.925786 0.966655 . .
H3_20 H 0.394992 0.954879 0.869638 . .
H4_20 H 0.371572 0.858792 0.903165 . .
C4_18 C 0.12295 0.5079 0.87705 0.0100 Uiso
C6_18 C 0.13149 0.39914 0.8125 0.0100 Uiso
C7_18 C 0.1875 0.39914 0.86851 0.0100 Uiso
C8_18 C 0.0939 0.5855 0.9061 0.0100 Uiso
H1_18 H 0.120736 0.352115 0.770519 . .
H5_21 H 0.0333455 0.579581 0.925786 . .
H6_21 H 0.130362 0.605008 0.954879 . .
H7_21 H 0.0968353 0.628428 0.858792 . .
H10_18 H 0.229481 0.352115 0.879264 . .
H2_21 H 0.966655 0.420419 0.925786 . .
H3_21 H 0.869638 0.394992 0.954879 . .
H4_21 H 0.903165 0.371572 0.858792 . .
H5_22 H 0.0333455 0.0742141 0.420419 . .
H6_22 H 0.130362 0.045121 0.394992 . .
H7_22 H 0.0968353 0.141208 0.371572 . .
H2_22 H 0.966655 0.0742141 0.579581 . .
H3_22 H 0.869638 0.045121 0.605008 . .
H4_22 H 0.903165 0.141208 0.628428 . .
H5_23 H 0.420419 0.0333455 0.0742141 . .
H6_23 H 0.394992 0.130362 0.045121 . .
H7_23 H 0.371572 0.0968353 0.141208 . .
H2_23 H 0.579581 0.966655 0.0742141 . .
H3_23 H 0.605008 0.869638 0.045121 . .
H4_23 H 0.628428 0.903165 0.141208 . .
H5_24 H 0.0742141 0.420419 0.0333455 . .
H6_24 H 0.045121 0.394992 0.130362 . .
H7_24 H 0.141208 0.371572 0.0968353 . .
H2_24 H 0.0742141 0.579581 0.966655 . .
H3_24 H 0.045121 0.605008 0.869638 . .
H4_24 H 0.141208 0.628428 0.903165 . .
loop_
_geom_bond_atom_site_label_1
_geom_bond_atom_site_label_2
_geom_bond_site_symmetry_1
_geom_bond_site_symmetry_2
C1 C3 1_555 1_555
C6 C7 1_555 1_555
C7 N4 1_555 1_555
N3 Zn1 1_555 1_555
N6 Zn1 1_555 1_555
Zn3 N4 1_555 1_555
C6 N3 1_555 1_555
C6 H1 1_555 1_555
C3 H2 1_555 1_555
C3 H3 1_555 1_555
C3 H4 1_555 1_555
C7 H10 1_555 1_555
C2 N1 1_555 1_555
Zn1_2 N1 1_555 1_555
C4 C8 1_555 1_555
C5 C2 1_555 1_555
N5 Zn1_2 1_555 1_555
Zn2_2 N2 1_555 1_555
C5 N2 1_555 1_555
C8 H5 1_555 1_555
C8 H6 1_555 1_555
C8 H7 1_555 1_555
C5 H8 1_555 1_555
C2 H9 1_555 1_555
C1_2 C3_2 1_555 1_555
C6_2 C7_2 1_555 1_555
C7_2 N4_2 1_555 1_555
N3_2 Zn1_3 1_555 1_555
N6_2 Zn1_3 1_555 1_555
Zn3_3 N4_2 1_555 1_555
C6_2 N3_2 1_555 1_555
C6_2 H1_2 1_555 1_555
C3_2 H2_2 1_555 1_555
C3_2 H3_2 1_555 1_555
C3_2 H4_2 1_555 1_555
C7_2 H10_2 1_555 1_555
C2_2 N1_2 1_555 1_555
Zn1_4 N1_2 1_555 1_555
C4_2 C8_2 1_555 1_555
C5_2 C2_2 1_555 1_555
N5_2 Zn1_4 1_555 1_555
Zn2_4 N2_2 1_555 1_555
C5_2 N2_2 1_555 1_555
C8_2 H5_2 1_555 1_555
C8_2 H6_2 1_555 1_555
C8_2 H7_2 1_555 1_555
C5_2 H8_2 1_555 1_555
C2_2 H9_2 1_555 1_555
C1_3 C3_3 1_555 1_555
C6_3 C7_3 1_555 1_555
C7_3 N4_3 1_555 1_555
N3_3 Zn1_5 1_555 1_555
N6_3 Zn1_5 1_555 1_555
Zn3_5 N4_3 1_555 1_555
C6_3 N3_3 1_555 1_555
C6_3 H1_3 1_555 1_555
C3_3 H2_3 1_555 1_555
C3_3 H3_3 1_555 1_555
C3_3 H4_3 1_555 1_555
C7_3 H10_3 1_555 1_555
C2_3 N1_3 1_555 1_555
Zn1_6 N1_3 1_555 1_555
C4_3 C8_3 1_555 1_555
C5_3 C2_3 1_555 1_555
N5_3 Zn1_6 1_555 1_555
Zn2_6 N2_3 1_555 1_555
C5_3 N2_3 1_555 1_555
C8_3 H5_3 1_555 1_555
C8_3 H6_3 1_555 1_555
C8_3 H7_3 1_555 1_555
C5_3 H8_3 1_555 1_555
C2_3 H9_3 1_555 1_555
C6_4 C7_4 1_555 1_555
C7_4 N4_4 1_555 1_555
N3_4 Zn2_5 1_555 1_555
N6_4 Zn2_5 1_555 1_555
Zn3_7 N4_4 1_555 1_555
C6_4 N3_4 1_555 1_555
C6_4 H1_4 1_555 1_555
C3_3 H2_4 1_555 1_555
C3_3 H3_4 1_555 1_555
C3_3 H4_4 1_555 1_555
C7_4 H10_4 1_555 1_555
C4_4 C8_4 1_555 1_555
N5_4 Zn2_6 1_555 1_555
C8_4 H5_4 1_555 1_555
C8_4 H6_4 1_555 1_555
C8_4 H7_4 1_555 1_555
C6_5 C7_5 1_555 1_555
C7_5 N4_5 1_555 1_555
N3_5 Zn2 1_555 1_555
N6_5 Zn2 1_555 1_555
Zn3_9 N4_5 1_555 1_555
C6_5 N3_5 1_555 1_555
C6_5 H1_5 1_555 1_555
C3 H2_5 1_555 1_555
C3 H3_5 1_555 1_555
C3 H4_5 1_555 1_555
C7_5 H10_5 1_555 1_555
C4_5 C8_5 1_555 1_555
N5_5 Zn2_2 1_555 1_555
C8_5 H5_5 1_555 1_555
C8_5 H6_5 1_555 1_555
C8_5 H7_5 1_555 1_555
C6_6 C7_6 1_555 1_555
C7_6 N4_6 1_555 1_555
N3_6 Zn2_3 1_555 1_555
N6_6 Zn2_3 1_555 1_555
Zn3_11 N4_6 1_555 1_555
C6_6 N3_6 1_555 1_555
C6_6 H1_6 1_555 1_555
C3_2 H2_6 1_555 1_555
C3_2 H3_6 1_555 1_555
C3_2 H4_6 1_555 1_555
C7_6 H10_6 1_555 1_555
C4_6 C8_6 1_555 1_555
N5_6 Zn2_4 1_555 1_555
C8_6 H5_6 1_555 1_555
C8_6 H6_6 1_555 1_555
C8_6 H7_6 1_555 1_555
C4_7 C8_7 1_555 1_555
N5_7 Zn3_11 1_555 1_555
C8_7 H5_7 1_555 1_555
C8_7 H6_7 1_555 1_555
C8_7 H7_7 1_555 1_555
C6_7 C7_7 1_555 1_555
C7_7 N4_7 1_555 1_555
N3_7 Zn3_12 1_555 1_555
N6_7 Zn3_12 1_555 1_555
Zn3_4 N4_7 1_555 1_555
C6_7 N3_7 1_555 1_555
C6_7 H1_7 1_555 1_555
C8_6 H2_7 1_555 1_555
C8_6 H3_7 1_555 1_555
C8_6 H4_7 1_555 1_555
C7_7 H10_7 1_555 1_555
C4_8 C8_8 1_555 1_555
N5_8 Zn3_7 1_555 1_555
C8_8 H5_8 1_555 1_555
C8_8 H6_8 1_555 1_555
C8_8 H7_8 1_555 1_555
C6_8 C7_8 1_555 1_555
C7_8 N4_8 1_555 1_555
N3_8 Zn3_8 1_555 1_555
N6_8 Zn3_8 1_555 1_555
Zn3_6 N4_8 1_555 1_555
C6_8 N3_8 1_555 1_555
C6_8 H1_8 1_555 1_555
C8_4 H2_8 1_555 1_555
C8_4 H3_8 1_555 1_555
C8_4 H4_8 1_555 1_555
C7_8 H10_8 1_555 1_555
C4_9 C8_9 1_555 1_555
N5_9 Zn3_9 1_555 1_555
C8_9 H5_9 1_555 1_555
C8_9 H6_9 1_555 1_555
C8_9 H7_9 1_555 1_555
C6_9 C7_9 1_555 1_555
C7_9 N4_9 1_555 1_555
N3_9 Zn3_10 1_555 1_555
N6_9 Zn3_10 1_555 1_555
Zn3_2 N4_9 1_555 1_555
C6_9 N3_9 1_555 1_555
C6_9 H1_9 1_555 1_555
C8_5 H2_9 1_555 1_555
C8_5 H3_9 1_555 1_555
C8_5 H4_9 1_555 1_555
C7_9 H10_9 1_555 1_555
N6_10 Zn3_3 1_555 1_555
C8_7 H2_10 1_555 1_555
C8_7 H3_10 1_555 1_555
C8_7 H4_10 1_555 1_555
N5_10 Zn3_4 1_555 1_555
C8_2 H5_10 1_555 1_555
C8_2 H6_10 1_555 1_555
C8_2 H7_10 1_555 1_555
N6_11 Zn3_5 1_555 1_555
C8_8 H2_11 1_555 1_555
C8_8 H3_11 1_555 1_555
C8_8 H4_11 1_555 1_555
N5_11 Zn3_6 1_555 1_555
C8_3 H5_11 1_555 1_555
C8_3 H6_11 1_555 1_555
C8_3 H7_11 1_555 1_555
N6_12 Zn3 1_555 1_555
C8_9 H2_12 1_555 1_555
C8_9 H3_12 1_555 1_555
C8_9 H4_12 1_555 1_555
N5_12 Zn3_2 1_555 1_555
C8 H5_12 1_555 1_555
C8 H6_12 1_555 1_555
C8 H7_12 1_555 1_555
C4_10 C8_10 1_555 1_555
C6_10 C7_10 1_555 1_555
C7_10 N5_7 1_555 1_555
N5_7 C4_10 1_555 1_555
C4_10 N6_4 1_555 1_555
C6_10 N6_4 1_555 1_555
C6_10 H1_10 1_555 1_555
C8_10 H5_13 1_555 1_555
C8_10 H6_13 1_555 1_555
C8_10 H7_13 1_555 1_555
C7_10 H10_10 1_555 1_555
C1_4 C3_4 1_555 1_555
C2_4 N5_4 1_555 1_555
N5_4 C1_4 1_555 1_555
C5_4 C2_4 1_555 1_555
N6_2 C1_4 1_555 1_555
C5_4 N6_2 1_555 1_555
C3_4 H2_13 1_555 1_555
C3_4 H3_13 1_555 1_555
C3_4 H4_13 1_555 1_555
C5_4 H8_4 1_555 1_555
C2_4 H9_4 1_555 1_555
C4_11 C8_11 1_555 1_555
C6_11 C7_11 1_555 1_555
C7_11 N5_8 1_555 1_555
N5_8 C4_11 1_555 1_555
C4_11 N6_5 1_555 1_555
C6_11 N6_5 1_555 1_555
C6_11 H1_11 1_555 1_555
C8_11 H5_14 1_555 1_555
C8_11 H6_14 1_555 1_555
C8_11 H7_14 1_555 1_555
C7_11 H10_11 1_555 1_555
C1_5 C3_5 1_555 1_555
C2_5 N5_5 1_555 1_555
N5_5 C1_5 1_555 1_555
C5_5 C2_5 1_555 1_555
N6_3 C1_5 1_555 1_555
C5_5 N6_3 1_555 1_555
C3_5 H2_14 1_555 1_555
C3_5 H3_14 1_555 1_555
C3_5 H4_14 1_555 1_555
C5_5 H8_5 1_555 1_555
C2_5 H9_5 1_555 1_555
C4_12 C8_12 1_555 1_555
C6_12 C7_12 1_555 1_555
C7_12 N5_9 1_555 1_555
N5_9 C4_12 1_555 1_555
C4_12 N6_6 1_555 1_555
C6_12 N6_6 1_555 1_555
C6_12 H1_12 1_555 1_555
C8_12 H5_15 1_555 1_555
C8_12 H6_15 1_555 1_555
C8_12 H7_15 1_555 1_555
C7_12 H10_12 1_555 1_555
C1_6 C3_6 1_555 1_555
C2_6 N5_6 1_555 1_555
N5_6 C1_6 1_555 1_555
C5_6 C2_6 1_555 1_555
N6 C1_6 1_555 1_555
C5_6 N6 1_555 1_555
C3_6 H2_15 1_555 1_555
C3_6 H3_15 1_555 1_555
C3_6 H4_15 1_555 1_555
C5_6 H8_6 1_555 1_555
C2_6 H9_6 1_555 1_555
C3_6 H2_16 1_555 1_555
C3_6 H3_16 1_555 1_555
C3_6 H4_16 1_555 1_555
C4_13 C8_13 1_555 1_555
C6_13 C7_13 1_555 1_555
C7_13 N5_10 1_555 1_555
N5_10 C4_13 1_555 1_555
C4_13 N5 1_555 1_555
C6_13 N5 1_555 1_555
C6_13 H1_13 1_555 1_555
C8_13 H5_16 1_555 1_555
C8_13 H6_16 1_555 1_555
C8_13 H7_16 1_555 1_555
C7_13 H10_13 1_555 1_555
C3_4 H2_17 1_555 1_555
C3_4 H3_17 1_555 1_555
C3_4 H4_17 1_555 1_555
C4_14 C8_14 1_555 1_555
C6_14 C7_14 1_555 1_555
C7_14 N5_11 1_555 1_555
N5_11 C4_14 1_555 1_555
C4_14 N5_2 1_555 1_555
C6_14 N5_2 1_555 1_555
C6_14 H1_14 1_555 1_555
C8_14 H5_17 1_555 1_555
C8_14 H6_17 1_555 1_555
C8_14 H7_17 1_555 1_555
C7_14 H10_14 1_555 1_555
C3_5 H2_18 1_555 1_555
C3_5 H3_18 1_555 1_555
C3_5 H4_18 1_555 1_555
C4_15 C8_15 1_555 1_555
C6_15 C7_15 1_555 1_555
C7_15 N5_12 1_555 1_555
N5_12 C4_15 1_555 1_555
C4_15 N5_3 1_555 1_555
C6_15 N5_3 1_555 1_555
C6_15 H1_15 1_555 1_555
C8_15 H5_18 1_555 1_555
C8_15 H6_18 1_555 1_555
C8_15 H7_18 1_555 1_555
C7_15 H10_15 1_555 1_555
C4_16 C8_16 1_555 1_555
C6_16 C7_16 1_555 1_555
C7_16 N6_8 1_555 1_555
N6_8 C4_16 1_555 1_555
C4_16 N6_12 1_555 1_555
C6_16 N6_12 1_555 1_555
C6_16 H1_16 1_555 1_555
C8_16 H5_19 1_555 1_555
C8_16 H6_19 1_555 1_555
C8_16 H7_19 1_555 1_555
C7_16 H10_16 1_555 1_555
C8_15 H2_19 1_555 1_555
C8_15 H3_19 1_555 1_555
C8_15 H4_19 1_555 1_555
C4_17 C8_17 1_555 1_555
C6_17 C7_17 1_555 1_555
C7_17 N6_9 1_555 1_555
N6_9 C4_17 1_555 1_555
C4_17 N6_10 1_555 1_555
C6_17 N6_10 1_555 1_555
C6_17 H1_17 1_555 1_555
C8_17 H5_20 1_555 1_555
C8_17 H6_20 1_555 1_555
C8_17 H7_20 1_555 1_555
C7_17 H10_17 1_555 1_555
C8_13 H2_20 1_555 1_555
C8_13 H3_20 1_555 1_555
C8_13 H4_20 1_555 1_555
C4_18 C8_18 1_555 1_555
C6_18 C7_18 1_555 1_555
C7_18 N6_7 1_555 1_555
N6_7 C4_18 1_555 1_555
C4_18 N6_11 1_555 1_555
C6_18 N6_11 1_555 1_555
C6_18 H1_18 1_555 1_555
C8_18 H5_21 1_555 1_555
C8_18 H6_21 1_555 1_555
C8_18 H7_21 1_555 1_555
C7_18 H10_18 1_555 1_555
C8_14 H2_21 1_555 1_555
C8_14 H3_21 1_555 1_555
C8_14 H4_21 1_555 1_555
C8_11 H5_22 1_555 1_555
C8_11 H6_22 1_555 1_555
C8_11 H7_22 1_555 1_555
C8_16 H2_22 1_555 1_555
C8_16 H3_22 1_555 1_555
C8_16 H4_22 1_555 1_555
C8_12 H5_23 1_555 1_555
C8_12 H6_23 1_555 1_555
C8_12 H7_23 1_555 1_555
C8_17 H2_23 1_555 1_555
C8_17 H3_23 1_555 1_555
C8_17 H4_23 1_555 1_555
C8_10 H5_24 1_555 1_555
C8_10 H6_24 1_555 1_555
C8_10 H7_24 1_555 1_555
C8_18 H2_24 1_555 1_555
C8_18 H3_24 1_555 1_555
C8_18 H4_24 1_555 1_555

#END
