
###############################################################################
#
# This file contains modified crystal structure data generated from the
# MOF subset of the Cambridge Structural Database (CSD) v543 
# hosted by the Cambridge Crystallographic Data Centre (CCDC).
#
# This work is licensed under the Creative Commons
# Attribution-NonCommercial-ShareAlike 4.0 International License.
# To view a copy of this license, visit
# http://creativecommons.org/licenses/by-nc-sa/4.0/
# or send a letter to
# Creative Commons, PO Box 1866, Mountain View, CA 94042, USA.
#
# CIF created using the CSD Python API on 29 September 2022
# The structure has been converted into the P1 space group
# The structure has a 3D framework
# The original CSD entry UZEWUS is in the cubic crystal system
# The framework has been calculated to contain at least 10.0% void space
# The void calculation uses a probe of radius 1.32A, grid spacing 0.4
# H atom positions have been added when not included in the experimental data
#
###############################################################################

data_UZEWUS
_chemical_formula_moiety         '(C96 H192 N48 Zn12)n'
_symmetry_cell_setting           triclinic
_symmetry_space_group_name_H-M   'P 1'
_symmetry_Int_Tables_number      1
_space_group_name_Hall           'P 1'
loop_
_symmetry_equiv_pos_site_id
_symmetry_equiv_pos_as_xyz
1 x,y,z
_cell_length_a                   16.9331(10)
_cell_length_b                   16.9331(10)
_cell_length_c                   16.9331(10)
_cell_angle_alpha                90
_cell_angle_beta                 90
_cell_angle_gamma                90
_cell_volume                     4855.23
loop_
_atom_site_label
_atom_site_type_symbol
_atom_site_fract_x
_atom_site_fract_y
_atom_site_fract_z
_atom_site_U_iso_or_equiv
_atom_site_thermal_displace_type
C1 C 0.37705 0.0079 0.62295 0.0100 Uiso
C3 C 0.4061 0.0855 0.5939 0.0100 Uiso
Zn1 Zn 0.50000 -0.00000 0.75000 0.0100 Uiso
C6 C 0.63149 0.10086 0.6875 0.0100 Uiso
C7 C 0.6875 0.10086 0.63149 0.0100 Uiso
N3 N 0.59027 0.03168 0.68278 0.0100 Uiso
N4 N 0.68278 0.03168 0.59027 0.0100 Uiso
N6 N 0.46832 0.09027 0.81722 0.0100 Uiso
Zn2 Zn 0.25000 0.00000 0.50000 0.0100 Uiso
Zn3 Zn 0.75000 0.00000 0.50000 0.0100 Uiso
H1 H 0.72972 0.148152 0.620675 . .
H4 H 0.620675 0.148152 0.72972 . .
H8 H 0.466999 0.0795471 0.574102 . .
H9 H 0.369431 0.105119 0.544844 . .
H10 H 0.403148 0.128672 0.641476 . .
C2 C 0.36851 0.89914 0.6875 0.0100 Uiso
N1 N 0.40973 0.96832 0.68278 0.0100 Uiso
Zn1_2 Zn 0.50000 1.00000 0.75000 0.0100 Uiso
C4 C 0.62295 0.9921 0.62295 0.0100 Uiso
C5 C 0.3125 0.89914 0.63149 0.0100 Uiso
C8 C 0.5939 0.9145 0.5939 0.0100 Uiso
N2 N 0.31722 0.96832 0.59027 0.0100 Uiso
N5 N 0.53168 0.90973 0.81722 0.0100 Uiso
Zn2_2 Zn 0.25000 1.00000 0.50000 0.0100 Uiso
Zn3_2 Zn 0.75000 1.00000 0.50000 0.0100 Uiso
H2 H 0.27028 0.851848 0.620675 . .
H3 H 0.379325 0.851848 0.72972 . .
H5 H 0.533001 0.920453 0.574102 . .
H6 H 0.630569 0.894881 0.544844 . .
H7 H 0.596852 0.871328 0.641476 . .
C1_2 C 0.62295 0.37705 0.0079 0.0100 Uiso
C3_2 C 0.5939 0.4061 0.0855 0.0100 Uiso
Zn1_3 Zn 0.75000 0.50000 0.00000 0.0100 Uiso
C6_2 C 0.6875 0.63149 0.10086 0.0100 Uiso
C7_2 C 0.63149 0.6875 0.10086 0.0100 Uiso
N3_2 N 0.68278 0.59027 0.03168 0.0100 Uiso
N4_2 N 0.59027 0.68278 0.03168 0.0100 Uiso
N6_2 N 0.81722 0.46832 0.09027 0.0100 Uiso
Zn2_3 Zn 0.50000 0.25000 0.00000 0.0100 Uiso
Zn3_3 Zn 0.50000 0.75000 0.00000 0.0100 Uiso
H1_2 H 0.620675 0.72972 0.148152 . .
H4_2 H 0.72972 0.620675 0.148152 . .
H8_2 H 0.574102 0.466999 0.0795471 . .
H9_2 H 0.544844 0.369431 0.105119 . .
H10_2 H 0.641476 0.403148 0.128672 . .
C2_2 C 0.6875 0.36851 0.89914 0.0100 Uiso
N1_2 N 0.68278 0.40973 0.96832 0.0100 Uiso
Zn1_4 Zn 0.75000 0.50000 1.00000 0.0100 Uiso
C4_2 C 0.62295 0.62295 0.9921 0.0100 Uiso
C5_2 C 0.63149 0.3125 0.89914 0.0100 Uiso
C8_2 C 0.5939 0.5939 0.9145 0.0100 Uiso
N2_2 N 0.59027 0.31722 0.96832 0.0100 Uiso
N5_2 N 0.81722 0.53168 0.90973 0.0100 Uiso
Zn2_4 Zn 0.50000 0.25000 1.00000 0.0100 Uiso
Zn3_4 Zn 0.50000 0.75000 1.00000 0.0100 Uiso
H2_2 H 0.620675 0.27028 0.851848 . .
H3_2 H 0.72972 0.379325 0.851848 . .
H5_2 H 0.574102 0.533001 0.920453 . .
H6_2 H 0.544844 0.630569 0.894881 . .
H7_2 H 0.641476 0.596852 0.871328 . .
C1_3 C 0.0079 0.62295 0.37705 0.0100 Uiso
C3_3 C 0.0855 0.5939 0.4061 0.0100 Uiso
Zn1_5 Zn -0.00000 0.75000 0.50000 0.0100 Uiso
C6_3 C 0.10086 0.6875 0.63149 0.0100 Uiso
C7_3 C 0.10086 0.63149 0.6875 0.0100 Uiso
N3_3 N 0.03168 0.68278 0.59027 0.0100 Uiso
N4_3 N 0.03168 0.59027 0.68278 0.0100 Uiso
N6_3 N 0.09027 0.81722 0.46832 0.0100 Uiso
Zn2_5 Zn -0.00000 0.50000 0.25000 0.0100 Uiso
Zn3_5 Zn -0.00000 0.50000 0.75000 0.0100 Uiso
H1_3 H 0.148152 0.620675 0.72972 . .
H4_3 H 0.148152 0.72972 0.620675 . .
H8_3 H 0.0795471 0.574102 0.466999 . .
H9_3 H 0.105119 0.544844 0.369431 . .
H10_3 H 0.128672 0.641476 0.403148 . .
C2_3 C 0.89914 0.6875 0.36851 0.0100 Uiso
N1_3 N 0.96832 0.68278 0.40973 0.0100 Uiso
Zn1_6 Zn 1.00000 0.75000 0.50000 0.0100 Uiso
C4_3 C 0.9921 0.62295 0.62295 0.0100 Uiso
C5_3 C 0.89914 0.63149 0.3125 0.0100 Uiso
C8_3 C 0.9145 0.5939 0.5939 0.0100 Uiso
N2_3 N 0.96832 0.59027 0.31722 0.0100 Uiso
N5_3 N 0.90973 0.81722 0.53168 0.0100 Uiso
Zn2_6 Zn 1.00000 0.50000 0.25000 0.0100 Uiso
Zn3_6 Zn 1.00000 0.50000 0.75000 0.0100 Uiso
H2_3 H 0.851848 0.620675 0.27028 . .
H3_3 H 0.851848 0.72972 0.379325 . .
H5_3 H 0.920453 0.574102 0.533001 . .
H6_3 H 0.894881 0.544844 0.630569 . .
H7_3 H 0.871328 0.641476 0.596852 . .
C6_4 C 0.10086 0.36851 0.3125 0.0100 Uiso
C7_4 C 0.10086 0.3125 0.36851 0.0100 Uiso
N3_4 N 0.03168 0.40973 0.31722 0.0100 Uiso
N4_4 N 0.03168 0.31722 0.40973 0.0100 Uiso
N6_4 N 0.09027 0.53168 0.18278 0.0100 Uiso
Zn3_7 Zn -0.00000 0.25000 0.50000 0.0100 Uiso
H1_4 H 0.148152 0.27028 0.379325 . .
H4_4 H 0.148152 0.379325 0.27028 . .
H8_4 H 0.0795471 0.533001 0.425898 . .
H9_4 H 0.105119 0.630569 0.455156 . .
H10_4 H 0.128672 0.596852 0.358524 . .
C4_4 C 0.9921 0.37705 0.37705 0.0100 Uiso
C8_4 C 0.9145 0.4061 0.4061 0.0100 Uiso
N5_4 N 0.90973 0.46832 0.18278 0.0100 Uiso
Zn3_8 Zn 1.00000 0.25000 0.50000 0.0100 Uiso
H5_4 H 0.920453 0.466999 0.425898 . .
H6_4 H 0.894881 0.369431 0.455156 . .
H7_4 H 0.871328 0.403148 0.358524 . .
C6_5 C 0.3125 0.10086 0.36851 0.0100 Uiso
C7_5 C 0.36851 0.10086 0.3125 0.0100 Uiso
N3_5 N 0.31722 0.03168 0.40973 0.0100 Uiso
N4_5 N 0.40973 0.03168 0.31722 0.0100 Uiso
N6_5 N 0.18278 0.09027 0.53168 0.0100 Uiso
Zn3_9 Zn 0.50000 0.00000 0.25000 0.0100 Uiso
H1_5 H 0.379325 0.148152 0.27028 . .
H4_5 H 0.27028 0.148152 0.379325 . .
H8_5 H 0.425898 0.0795471 0.533001 . .
H9_5 H 0.455156 0.105119 0.630569 . .
H10_5 H 0.358524 0.128672 0.596852 . .
C4_5 C 0.37705 0.9921 0.37705 0.0100 Uiso
C8_5 C 0.4061 0.9145 0.4061 0.0100 Uiso
N5_5 N 0.18278 0.90973 0.46832 0.0100 Uiso
Zn3_10 Zn 0.50000 1.00000 0.25000 0.0100 Uiso
H5_5 H 0.425898 0.920453 0.466999 . .
H6_5 H 0.455156 0.894881 0.369431 . .
H7_5 H 0.358524 0.871328 0.403148 . .
C6_6 C 0.36851 0.3125 0.10086 0.0100 Uiso
C7_6 C 0.3125 0.36851 0.10086 0.0100 Uiso
N3_6 N 0.40973 0.31722 0.03168 0.0100 Uiso
N4_6 N 0.31722 0.40973 0.03168 0.0100 Uiso
N6_6 N 0.53168 0.18278 0.09027 0.0100 Uiso
Zn3_11 Zn 0.25000 0.50000 0.00000 0.0100 Uiso
H1_6 H 0.27028 0.379325 0.148152 . .
H4_6 H 0.379325 0.27028 0.148152 . .
H8_6 H 0.533001 0.425898 0.0795471 . .
H9_6 H 0.630569 0.455156 0.105119 . .
H10_6 H 0.596852 0.358524 0.128672 . .
C4_6 C 0.37705 0.37705 0.9921 0.0100 Uiso
C8_6 C 0.4061 0.4061 0.9145 0.0100 Uiso
N5_6 N 0.46832 0.18278 0.90973 0.0100 Uiso
Zn3_12 Zn 0.25000 0.50000 1.00000 0.0100 Uiso
H5_6 H 0.466999 0.425898 0.920453 . .
H6_6 H 0.369431 0.455156 0.894881 . .
H7_6 H 0.403148 0.358524 0.871328 . .
C4_7 C 0.37705 0.62295 0.0079 0.0100 Uiso
C8_7 C 0.4061 0.5939 0.0855 0.0100 Uiso
N5_7 N 0.18278 0.53168 0.09027 0.0100 Uiso
H5_7 H 0.425898 0.533001 0.0795471 . .
H6_7 H 0.455156 0.630569 0.105119 . .
H7_7 H 0.358524 0.596852 0.128672 . .
C6_7 C 0.3125 0.63149 0.89914 0.0100 Uiso
C7_7 C 0.36851 0.6875 0.89914 0.0100 Uiso
N3_7 N 0.31722 0.59027 0.96832 0.0100 Uiso
N4_7 N 0.40973 0.68278 0.96832 0.0100 Uiso
N6_7 N 0.18278 0.46832 0.90973 0.0100 Uiso
H1_7 H 0.379325 0.72972 0.851848 . .
H4_7 H 0.27028 0.620675 0.851848 . .
H8_7 H 0.425898 0.466999 0.920453 . .
H9_7 H 0.455156 0.369431 0.894881 . .
H10_7 H 0.358524 0.403148 0.871328 . .
C4_8 C 0.0079 0.37705 0.62295 0.0100 Uiso
C8_8 C 0.0855 0.4061 0.5939 0.0100 Uiso
N5_8 N 0.09027 0.18278 0.53168 0.0100 Uiso
H5_8 H 0.0795471 0.425898 0.533001 . .
H6_8 H 0.105119 0.455156 0.630569 . .
H7_8 H 0.128672 0.358524 0.596852 . .
C6_8 C 0.89914 0.3125 0.63149 0.0100 Uiso
C7_8 C 0.89914 0.36851 0.6875 0.0100 Uiso
N3_8 N 0.96832 0.31722 0.59027 0.0100 Uiso
N4_8 N 0.96832 0.40973 0.68278 0.0100 Uiso
N6_8 N 0.90973 0.18278 0.46832 0.0100 Uiso
H1_8 H 0.851848 0.379325 0.72972 . .
H4_8 H 0.851848 0.27028 0.620675 . .
H8_8 H 0.920453 0.425898 0.466999 . .
H9_8 H 0.894881 0.455156 0.369431 . .
H10_8 H 0.871328 0.358524 0.403148 . .
C4_9 C 0.62295 0.0079 0.37705 0.0100 Uiso
C8_9 C 0.5939 0.0855 0.4061 0.0100 Uiso
N5_9 N 0.53168 0.09027 0.18278 0.0100 Uiso
H5_9 H 0.533001 0.0795471 0.425898 . .
H6_9 H 0.630569 0.105119 0.455156 . .
H7_9 H 0.596852 0.128672 0.358524 . .
C6_9 C 0.63149 0.89914 0.3125 0.0100 Uiso
C7_9 C 0.6875 0.89914 0.36851 0.0100 Uiso
N3_9 N 0.59027 0.96832 0.31722 0.0100 Uiso
N4_9 N 0.68278 0.96832 0.40973 0.0100 Uiso
N6_9 N 0.46832 0.90973 0.18278 0.0100 Uiso
H1_9 H 0.72972 0.851848 0.379325 . .
H4_9 H 0.620675 0.851848 0.27028 . .
H8_9 H 0.466999 0.920453 0.425898 . .
H9_9 H 0.369431 0.894881 0.455156 . .
H10_9 H 0.403148 0.871328 0.358524 . .
N6_10 N 0.46832 0.81722 0.09027 0.0100 Uiso
H8_10 H 0.466999 0.574102 0.0795471 . .
H9_10 H 0.369431 0.544844 0.105119 . .
H10_10 H 0.403148 0.641476 0.128672 . .
N5_10 N 0.53168 0.81722 0.90973 0.0100 Uiso
H5_10 H 0.533001 0.574102 0.920453 . .
H6_10 H 0.630569 0.544844 0.894881 . .
H7_10 H 0.596852 0.641476 0.871328 . .
N6_11 N 0.09027 0.46832 0.81722 0.0100 Uiso
H8_11 H 0.0795471 0.466999 0.574102 . .
H9_11 H 0.105119 0.369431 0.544844 . .
H10_11 H 0.128672 0.403148 0.641476 . .
N5_11 N 0.90973 0.53168 0.81722 0.0100 Uiso
H5_11 H 0.920453 0.533001 0.574102 . .
H6_11 H 0.894881 0.630569 0.544844 . .
H7_11 H 0.871328 0.596852 0.641476 . .
N6_12 N 0.81722 0.09027 0.46832 0.0100 Uiso
H8_12 H 0.574102 0.0795471 0.466999 . .
H9_12 H 0.544844 0.105119 0.369431 . .
H10_12 H 0.641476 0.128672 0.403148 . .
N5_12 N 0.81722 0.90973 0.53168 0.0100 Uiso
H5_12 H 0.574102 0.920453 0.533001 . .
H6_12 H 0.544844 0.894881 0.630569 . .
H7_12 H 0.641476 0.871328 0.596852 . .
C4_10 C 0.12295 0.4921 0.12295 0.0100 Uiso
C6_10 C 0.13149 0.60086 0.1875 0.0100 Uiso
C7_10 C 0.1875 0.60086 0.13149 0.0100 Uiso
C8_10 C 0.0939 0.4145 0.0939 0.0100 Uiso
H1_10 H 0.22972 0.648152 0.120675 . .
H4_10 H 0.120675 0.648152 0.22972 . .
H5_13 H 0.0330015 0.420453 0.0741022 . .
H6_13 H 0.130569 0.394881 0.0448439 . .
H7_13 H 0.096852 0.371328 0.141476 . .
C1_4 C 0.87705 0.5079 0.12295 0.0100 Uiso
C2_4 C 0.86851 0.39914 0.1875 0.0100 Uiso
C3_4 C 0.9061 0.5855 0.0939 0.0100 Uiso
C5_4 C 0.8125 0.39914 0.13149 0.0100 Uiso
H2_4 H 0.77028 0.351848 0.120675 . .
H3_4 H 0.879325 0.351848 0.22972 . .
H8_13 H 0.966999 0.579547 0.0741022 . .
H9_13 H 0.869431 0.605119 0.0448439 . .
H10_13 H 0.903148 0.628672 0.141476 . .
C4_11 C 0.12295 0.12295 0.4921 0.0100 Uiso
C6_11 C 0.1875 0.13149 0.60086 0.0100 Uiso
C7_11 C 0.13149 0.1875 0.60086 0.0100 Uiso
C8_11 C 0.0939 0.0939 0.4145 0.0100 Uiso
H1_11 H 0.120675 0.22972 0.648152 . .
H4_11 H 0.22972 0.120675 0.648152 . .
H5_14 H 0.0741022 0.0330015 0.420453 . .
H6_14 H 0.0448439 0.130569 0.394881 . .
H7_14 H 0.141476 0.096852 0.371328 . .
C1_5 C 0.12295 0.87705 0.5079 0.0100 Uiso
C2_5 C 0.1875 0.86851 0.39914 0.0100 Uiso
C3_5 C 0.0939 0.9061 0.5855 0.0100 Uiso
C5_5 C 0.13149 0.8125 0.39914 0.0100 Uiso
H2_5 H 0.120675 0.77028 0.351848 . .
H3_5 H 0.22972 0.879325 0.351848 . .
H8_14 H 0.0741022 0.966999 0.579547 . .
H9_14 H 0.0448439 0.869431 0.605119 . .
H10_14 H 0.141476 0.903148 0.628672 . .
C4_12 C 0.4921 0.12295 0.12295 0.0100 Uiso
C6_12 C 0.60086 0.1875 0.13149 0.0100 Uiso
C7_12 C 0.60086 0.13149 0.1875 0.0100 Uiso
C8_12 C 0.4145 0.0939 0.0939 0.0100 Uiso
H1_12 H 0.648152 0.120675 0.22972 . .
H4_12 H 0.648152 0.22972 0.120675 . .
H5_15 H 0.420453 0.0741022 0.0330015 . .
H6_15 H 0.394881 0.0448439 0.130569 . .
H7_15 H 0.371328 0.141476 0.096852 . .
C1_6 C 0.5079 0.12295 0.87705 0.0100 Uiso
C2_6 C 0.39914 0.1875 0.86851 0.0100 Uiso
C3_6 C 0.5855 0.0939 0.9061 0.0100 Uiso
C5_6 C 0.39914 0.13149 0.8125 0.0100 Uiso
H2_6 H 0.351848 0.120675 0.77028 . .
H3_6 H 0.351848 0.22972 0.879325 . .
H8_15 H 0.579547 0.0741022 0.966999 . .
H9_15 H 0.605119 0.0448439 0.869431 . .
H10_15 H 0.628672 0.141476 0.903148 . .
H8_16 H 0.579547 0.0330015 0.925898 . .
H9_16 H 0.605119 0.130569 0.955156 . .
H10_16 H 0.628672 0.096852 0.858524 . .
C4_13 C 0.4921 0.87705 0.87705 0.0100 Uiso
C6_13 C 0.60086 0.86851 0.8125 0.0100 Uiso
C7_13 C 0.60086 0.8125 0.86851 0.0100 Uiso
C8_13 C 0.4145 0.9061 0.9061 0.0100 Uiso
H1_13 H 0.648152 0.77028 0.879325 . .
H4_13 H 0.648152 0.879325 0.77028 . .
H5_16 H 0.420453 0.966999 0.925898 . .
H6_16 H 0.394881 0.869431 0.955156 . .
H7_16 H 0.371328 0.903148 0.858524 . .
H8_17 H 0.925898 0.579547 0.0330015 . .
H9_17 H 0.955156 0.605119 0.130569 . .
H10_17 H 0.858524 0.628672 0.096852 . .
C4_14 C 0.87705 0.4921 0.87705 0.0100 Uiso
C6_14 C 0.8125 0.60086 0.86851 0.0100 Uiso
C7_14 C 0.86851 0.60086 0.8125 0.0100 Uiso
C8_14 C 0.9061 0.4145 0.9061 0.0100 Uiso
H1_14 H 0.879325 0.648152 0.77028 . .
H4_14 H 0.77028 0.648152 0.879325 . .
H5_17 H 0.925898 0.420453 0.966999 . .
H6_17 H 0.955156 0.394881 0.869431 . .
H7_17 H 0.858524 0.371328 0.903148 . .
H8_18 H 0.0330015 0.925898 0.579547 . .
H9_18 H 0.130569 0.955156 0.605119 . .
H10_18 H 0.096852 0.858524 0.628672 . .
C4_15 C 0.87705 0.87705 0.4921 0.0100 Uiso
C6_15 C 0.86851 0.8125 0.60086 0.0100 Uiso
C7_15 C 0.8125 0.86851 0.60086 0.0100 Uiso
C8_15 C 0.9061 0.9061 0.4145 0.0100 Uiso
H1_15 H 0.77028 0.879325 0.648152 . .
H4_15 H 0.879325 0.77028 0.648152 . .
H5_18 H 0.966999 0.925898 0.420453 . .
H6_18 H 0.869431 0.955156 0.394881 . .
H7_18 H 0.903148 0.858524 0.371328 . .
C4_16 C 0.87705 0.12295 0.5079 0.0100 Uiso
C6_16 C 0.8125 0.13149 0.39914 0.0100 Uiso
C7_16 C 0.86851 0.1875 0.39914 0.0100 Uiso
C8_16 C 0.9061 0.0939 0.5855 0.0100 Uiso
H1_16 H 0.879325 0.22972 0.351848 . .
H4_16 H 0.77028 0.120675 0.351848 . .
H5_19 H 0.925898 0.0330015 0.579547 . .
H6_19 H 0.955156 0.130569 0.605119 . .
H7_19 H 0.858524 0.096852 0.628672 . .
H8_19 H 0.925898 0.966999 0.420453 . .
H9_19 H 0.955156 0.869431 0.394881 . .
H10_19 H 0.858524 0.903148 0.371328 . .
C4_17 C 0.5079 0.87705 0.12295 0.0100 Uiso
C6_17 C 0.39914 0.8125 0.13149 0.0100 Uiso
C7_17 C 0.39914 0.86851 0.1875 0.0100 Uiso
C8_17 C 0.5855 0.9061 0.0939 0.0100 Uiso
H1_17 H 0.351848 0.879325 0.22972 . .
H4_17 H 0.351848 0.77028 0.120675 . .
H5_20 H 0.579547 0.925898 0.0330015 . .
H6_20 H 0.605119 0.955156 0.130569 . .
H7_20 H 0.628672 0.858524 0.096852 . .
H8_20 H 0.420453 0.925898 0.966999 . .
H9_20 H 0.394881 0.955156 0.869431 . .
H10_20 H 0.371328 0.858524 0.903148 . .
C4_18 C 0.12295 0.5079 0.87705 0.0100 Uiso
C6_18 C 0.13149 0.39914 0.8125 0.0100 Uiso
C7_18 C 0.1875 0.39914 0.86851 0.0100 Uiso
C8_18 C 0.0939 0.5855 0.9061 0.0100 Uiso
H1_18 H 0.22972 0.351848 0.879325 . .
H4_18 H 0.120675 0.351848 0.77028 . .
H5_21 H 0.0330015 0.579547 0.925898 . .
H6_21 H 0.130569 0.605119 0.955156 . .
H7_21 H 0.096852 0.628672 0.858524 . .
H8_21 H 0.966999 0.420453 0.925898 . .
H9_21 H 0.869431 0.394881 0.955156 . .
H10_21 H 0.903148 0.371328 0.858524 . .
H5_22 H 0.0330015 0.0741022 0.420453 . .
H6_22 H 0.130569 0.0448439 0.394881 . .
H7_22 H 0.096852 0.141476 0.371328 . .
H8_22 H 0.966999 0.0741022 0.579547 . .
H9_22 H 0.869431 0.0448439 0.605119 . .
H10_22 H 0.903148 0.141476 0.628672 . .
H5_23 H 0.420453 0.0330015 0.0741022 . .
H6_23 H 0.394881 0.130569 0.0448439 . .
H7_23 H 0.371328 0.096852 0.141476 . .
H8_23 H 0.579547 0.966999 0.0741022 . .
H9_23 H 0.605119 0.869431 0.0448439 . .
H10_23 H 0.628672 0.903148 0.141476 . .
H5_24 H 0.0741022 0.420453 0.0330015 . .
H6_24 H 0.0448439 0.394881 0.130569 . .
H7_24 H 0.141476 0.371328 0.096852 . .
H8_24 H 0.0741022 0.579547 0.966999 . .
H9_24 H 0.0448439 0.605119 0.869431 . .
H10_24 H 0.141476 0.628672 0.903148 . .
loop_
_geom_bond_atom_site_label_1
_geom_bond_atom_site_label_2
_geom_bond_site_symmetry_1
_geom_bond_site_symmetry_2
C1 C3 1_555 1_555
C6 C7 1_555 1_555
C7 N4 1_555 1_555
N3 Zn1 1_555 1_555
N6 Zn1 1_555 1_555
Zn3 N4 1_555 1_555
C6 N3 1_555 1_555
C7 H1 1_555 1_555
C6 H4 1_555 1_555
C3 H8 1_555 1_555
C3 H9 1_555 1_555
C3 H10 1_555 1_555
C2 N1 1_555 1_555
Zn1_2 N1 1_555 1_555
C4 C8 1_555 1_555
C5 C2 1_555 1_555
N5 Zn1_2 1_555 1_555
Zn2_2 N2 1_555 1_555
C5 N2 1_555 1_555
C5 H2 1_555 1_555
C2 H3 1_555 1_555
C8 H5 1_555 1_555
C8 H6 1_555 1_555
C8 H7 1_555 1_555
C1_2 C3_2 1_555 1_555
C6_2 C7_2 1_555 1_555
C7_2 N4_2 1_555 1_555
N3_2 Zn1_3 1_555 1_555
N6_2 Zn1_3 1_555 1_555
Zn3_3 N4_2 1_555 1_555
C6_2 N3_2 1_555 1_555
C7_2 H1_2 1_555 1_555
C6_2 H4_2 1_555 1_555
C3_2 H8_2 1_555 1_555
C3_2 H9_2 1_555 1_555
C3_2 H10_2 1_555 1_555
C2_2 N1_2 1_555 1_555
Zn1_4 N1_2 1_555 1_555
C4_2 C8_2 1_555 1_555
C5_2 C2_2 1_555 1_555
N5_2 Zn1_4 1_555 1_555
Zn2_4 N2_2 1_555 1_555
C5_2 N2_2 1_555 1_555
C5_2 H2_2 1_555 1_555
C2_2 H3_2 1_555 1_555
C8_2 H5_2 1_555 1_555
C8_2 H6_2 1_555 1_555
C8_2 H7_2 1_555 1_555
C1_3 C3_3 1_555 1_555
C6_3 C7_3 1_555 1_555
C7_3 N4_3 1_555 1_555
N3_3 Zn1_5 1_555 1_555
N6_3 Zn1_5 1_555 1_555
Zn3_5 N4_3 1_555 1_555
C6_3 N3_3 1_555 1_555
C7_3 H1_3 1_555 1_555
C6_3 H4_3 1_555 1_555
C3_3 H8_3 1_555 1_555
C3_3 H9_3 1_555 1_555
C3_3 H10_3 1_555 1_555
C2_3 N1_3 1_555 1_555
Zn1_6 N1_3 1_555 1_555
C4_3 C8_3 1_555 1_555
C5_3 C2_3 1_555 1_555
N5_3 Zn1_6 1_555 1_555
Zn2_6 N2_3 1_555 1_555
C5_3 N2_3 1_555 1_555
C5_3 H2_3 1_555 1_555
C2_3 H3_3 1_555 1_555
C8_3 H5_3 1_555 1_555
C8_3 H6_3 1_555 1_555
C8_3 H7_3 1_555 1_555
C6_4 C7_4 1_555 1_555
C7_4 N4_4 1_555 1_555
N3_4 Zn2_5 1_555 1_555
N6_4 Zn2_5 1_555 1_555
Zn3_7 N4_4 1_555 1_555
C6_4 N3_4 1_555 1_555
C7_4 H1_4 1_555 1_555
C6_4 H4_4 1_555 1_555
C3_3 H8_4 1_555 1_555
C3_3 H9_4 1_555 1_555
C3_3 H10_4 1_555 1_555
C4_4 C8_4 1_555 1_555
N5_4 Zn2_6 1_555 1_555
C8_4 H5_4 1_555 1_555
C8_4 H6_4 1_555 1_555
C8_4 H7_4 1_555 1_555
C6_5 C7_5 1_555 1_555
C7_5 N4_5 1_555 1_555
N3_5 Zn2 1_555 1_555
N6_5 Zn2 1_555 1_555
Zn3_9 N4_5 1_555 1_555
C6_5 N3_5 1_555 1_555
C7_5 H1_5 1_555 1_555
C6_5 H4_5 1_555 1_555
C3 H8_5 1_555 1_555
C3 H9_5 1_555 1_555
C3 H10_5 1_555 1_555
C4_5 C8_5 1_555 1_555
N5_5 Zn2_2 1_555 1_555
C8_5 H5_5 1_555 1_555
C8_5 H6_5 1_555 1_555
C8_5 H7_5 1_555 1_555
C6_6 C7_6 1_555 1_555
C7_6 N4_6 1_555 1_555
N3_6 Zn2_3 1_555 1_555
N6_6 Zn2_3 1_555 1_555
Zn3_11 N4_6 1_555 1_555
C6_6 N3_6 1_555 1_555
C7_6 H1_6 1_555 1_555
C6_6 H4_6 1_555 1_555
C3_2 H8_6 1_555 1_555
C3_2 H9_6 1_555 1_555
C3_2 H10_6 1_555 1_555
C4_6 C8_6 1_555 1_555
N5_6 Zn2_4 1_555 1_555
C8_6 H5_6 1_555 1_555
C8_6 H6_6 1_555 1_555
C8_6 H7_6 1_555 1_555
C4_7 C8_7 1_555 1_555
N5_7 Zn3_11 1_555 1_555
C8_7 H5_7 1_555 1_555
C8_7 H6_7 1_555 1_555
C8_7 H7_7 1_555 1_555
C6_7 C7_7 1_555 1_555
C7_7 N4_7 1_555 1_555
N3_7 Zn3_12 1_555 1_555
N6_7 Zn3_12 1_555 1_555
Zn3_4 N4_7 1_555 1_555
C6_7 N3_7 1_555 1_555
C7_7 H1_7 1_555 1_555
C6_7 H4_7 1_555 1_555
C8_6 H8_7 1_555 1_555
C8_6 H9_7 1_555 1_555
C8_6 H10_7 1_555 1_555
C4_8 C8_8 1_555 1_555
N5_8 Zn3_7 1_555 1_555
C8_8 H5_8 1_555 1_555
C8_8 H6_8 1_555 1_555
C8_8 H7_8 1_555 1_555
C6_8 C7_8 1_555 1_555
C7_8 N4_8 1_555 1_555
N3_8 Zn3_8 1_555 1_555
N6_8 Zn3_8 1_555 1_555
Zn3_6 N4_8 1_555 1_555
C6_8 N3_8 1_555 1_555
C7_8 H1_8 1_555 1_555
C6_8 H4_8 1_555 1_555
C8_4 H8_8 1_555 1_555
C8_4 H9_8 1_555 1_555
C8_4 H10_8 1_555 1_555
C4_9 C8_9 1_555 1_555
N5_9 Zn3_9 1_555 1_555
C8_9 H5_9 1_555 1_555
C8_9 H6_9 1_555 1_555
C8_9 H7_9 1_555 1_555
C6_9 C7_9 1_555 1_555
C7_9 N4_9 1_555 1_555
N3_9 Zn3_10 1_555 1_555
N6_9 Zn3_10 1_555 1_555
Zn3_2 N4_9 1_555 1_555
C6_9 N3_9 1_555 1_555
C7_9 H1_9 1_555 1_555
C6_9 H4_9 1_555 1_555
C8_5 H8_9 1_555 1_555
C8_5 H9_9 1_555 1_555
C8_5 H10_9 1_555 1_555
N6_10 Zn3_3 1_555 1_555
C8_7 H8_10 1_555 1_555
C8_7 H9_10 1_555 1_555
C8_7 H10_10 1_555 1_555
N5_10 Zn3_4 1_555 1_555
C8_2 H5_10 1_555 1_555
C8_2 H6_10 1_555 1_555
C8_2 H7_10 1_555 1_555
N6_11 Zn3_5 1_555 1_555
C8_8 H8_11 1_555 1_555
C8_8 H9_11 1_555 1_555
C8_8 H10_11 1_555 1_555
N5_11 Zn3_6 1_555 1_555
C8_3 H5_11 1_555 1_555
C8_3 H6_11 1_555 1_555
C8_3 H7_11 1_555 1_555
N6_12 Zn3 1_555 1_555
C8_9 H8_12 1_555 1_555
C8_9 H9_12 1_555 1_555
C8_9 H10_12 1_555 1_555
N5_12 Zn3_2 1_555 1_555
C8 H5_12 1_555 1_555
C8 H6_12 1_555 1_555
C8 H7_12 1_555 1_555
C4_10 C8_10 1_555 1_555
C6_10 C7_10 1_555 1_555
C7_10 N5_7 1_555 1_555
N5_7 C4_10 1_555 1_555
C4_10 N6_4 1_555 1_555
C6_10 N6_4 1_555 1_555
C7_10 H1_10 1_555 1_555
C6_10 H4_10 1_555 1_555
C8_10 H5_13 1_555 1_555
C8_10 H6_13 1_555 1_555
C8_10 H7_13 1_555 1_555
C1_4 C3_4 1_555 1_555
C2_4 N5_4 1_555 1_555
N5_4 C1_4 1_555 1_555
C5_4 C2_4 1_555 1_555
N6_2 C1_4 1_555 1_555
C5_4 N6_2 1_555 1_555
C5_4 H2_4 1_555 1_555
C2_4 H3_4 1_555 1_555
C3_4 H8_13 1_555 1_555
C3_4 H9_13 1_555 1_555
C3_4 H10_13 1_555 1_555
C4_11 C8_11 1_555 1_555
C6_11 C7_11 1_555 1_555
C7_11 N5_8 1_555 1_555
N5_8 C4_11 1_555 1_555
C4_11 N6_5 1_555 1_555
C6_11 N6_5 1_555 1_555
C7_11 H1_11 1_555 1_555
C6_11 H4_11 1_555 1_555
C8_11 H5_14 1_555 1_555
C8_11 H6_14 1_555 1_555
C8_11 H7_14 1_555 1_555
C1_5 C3_5 1_555 1_555
C2_5 N5_5 1_555 1_555
N5_5 C1_5 1_555 1_555
C5_5 C2_5 1_555 1_555
N6_3 C1_5 1_555 1_555
C5_5 N6_3 1_555 1_555
C5_5 H2_5 1_555 1_555
C2_5 H3_5 1_555 1_555
C3_5 H8_14 1_555 1_555
C3_5 H9_14 1_555 1_555
C3_5 H10_14 1_555 1_555
C4_12 C8_12 1_555 1_555
C6_12 C7_12 1_555 1_555
C7_12 N5_9 1_555 1_555
N5_9 C4_12 1_555 1_555
C4_12 N6_6 1_555 1_555
C6_12 N6_6 1_555 1_555
C7_12 H1_12 1_555 1_555
C6_12 H4_12 1_555 1_555
C8_12 H5_15 1_555 1_555
C8_12 H6_15 1_555 1_555
C8_12 H7_15 1_555 1_555
C1_6 C3_6 1_555 1_555
C2_6 N5_6 1_555 1_555
N5_6 C1_6 1_555 1_555
C5_6 C2_6 1_555 1_555
N6 C1_6 1_555 1_555
C5_6 N6 1_555 1_555
C5_6 H2_6 1_555 1_555
C2_6 H3_6 1_555 1_555
C3_6 H8_15 1_555 1_555
C3_6 H9_15 1_555 1_555
C3_6 H10_15 1_555 1_555
C3_6 H8_16 1_555 1_555
C3_6 H9_16 1_555 1_555
C3_6 H10_16 1_555 1_555
C4_13 C8_13 1_555 1_555
C6_13 C7_13 1_555 1_555
C7_13 N5_10 1_555 1_555
N5_10 C4_13 1_555 1_555
C4_13 N5 1_555 1_555
C6_13 N5 1_555 1_555
C7_13 H1_13 1_555 1_555
C6_13 H4_13 1_555 1_555
C8_13 H5_16 1_555 1_555
C8_13 H6_16 1_555 1_555
C8_13 H7_16 1_555 1_555
C3_4 H8_17 1_555 1_555
C3_4 H9_17 1_555 1_555
C3_4 H10_17 1_555 1_555
C4_14 C8_14 1_555 1_555
C6_14 C7_14 1_555 1_555
C7_14 N5_11 1_555 1_555
N5_11 C4_14 1_555 1_555
C4_14 N5_2 1_555 1_555
C6_14 N5_2 1_555 1_555
C7_14 H1_14 1_555 1_555
C6_14 H4_14 1_555 1_555
C8_14 H5_17 1_555 1_555
C8_14 H6_17 1_555 1_555
C8_14 H7_17 1_555 1_555
C3_5 H8_18 1_555 1_555
C3_5 H9_18 1_555 1_555
C3_5 H10_18 1_555 1_555
C4_15 C8_15 1_555 1_555
C6_15 C7_15 1_555 1_555
C7_15 N5_12 1_555 1_555
N5_12 C4_15 1_555 1_555
C4_15 N5_3 1_555 1_555
C6_15 N5_3 1_555 1_555
C7_15 H1_15 1_555 1_555
C6_15 H4_15 1_555 1_555
C8_15 H5_18 1_555 1_555
C8_15 H6_18 1_555 1_555
C8_15 H7_18 1_555 1_555
C4_16 C8_16 1_555 1_555
C6_16 C7_16 1_555 1_555
C7_16 N6_8 1_555 1_555
N6_8 C4_16 1_555 1_555
C4_16 N6_12 1_555 1_555
C6_16 N6_12 1_555 1_555
C7_16 H1_16 1_555 1_555
C6_16 H4_16 1_555 1_555
C8_16 H5_19 1_555 1_555
C8_16 H6_19 1_555 1_555
C8_16 H7_19 1_555 1_555
C8_15 H8_19 1_555 1_555
C8_15 H9_19 1_555 1_555
C8_15 H10_19 1_555 1_555
C4_17 C8_17 1_555 1_555
C6_17 C7_17 1_555 1_555
C7_17 N6_9 1_555 1_555
N6_9 C4_17 1_555 1_555
C4_17 N6_10 1_555 1_555
C6_17 N6_10 1_555 1_555
C7_17 H1_17 1_555 1_555
C6_17 H4_17 1_555 1_555
C8_17 H5_20 1_555 1_555
C8_17 H6_20 1_555 1_555
C8_17 H7_20 1_555 1_555
C8_13 H8_20 1_555 1_555
C8_13 H9_20 1_555 1_555
C8_13 H10_20 1_555 1_555
C4_18 C8_18 1_555 1_555
C6_18 C7_18 1_555 1_555
C7_18 N6_7 1_555 1_555
N6_7 C4_18 1_555 1_555
C4_18 N6_11 1_555 1_555
C6_18 N6_11 1_555 1_555
C7_18 H1_18 1_555 1_555
C6_18 H4_18 1_555 1_555
C8_18 H5_21 1_555 1_555
C8_18 H6_21 1_555 1_555
C8_18 H7_21 1_555 1_555
C8_14 H8_21 1_555 1_555
C8_14 H9_21 1_555 1_555
C8_14 H10_21 1_555 1_555
C8_11 H5_22 1_555 1_555
C8_11 H6_22 1_555 1_555
C8_11 H7_22 1_555 1_555
C8_16 H8_22 1_555 1_555
C8_16 H9_22 1_555 1_555
C8_16 H10_22 1_555 1_555
C8_12 H5_23 1_555 1_555
C8_12 H6_23 1_555 1_555
C8_12 H7_23 1_555 1_555
C8_17 H8_23 1_555 1_555
C8_17 H9_23 1_555 1_555
C8_17 H10_23 1_555 1_555
C8_10 H5_24 1_555 1_555
C8_10 H6_24 1_555 1_555
C8_10 H7_24 1_555 1_555
C8_18 H8_24 1_555 1_555
C8_18 H9_24 1_555 1_555
C8_18 H10_24 1_555 1_555

#END
