
###############################################################################
#
# This file contains modified crystal structure data generated from the
# MOF subset of the Cambridge Structural Database (CSD) v543 
# hosted by the Cambridge Crystallographic Data Centre (CCDC).
#
# This work is licensed under the Creative Commons
# Attribution-NonCommercial-ShareAlike 4.0 International License.
# To view a copy of this license, visit
# http://creativecommons.org/licenses/by-nc-sa/4.0/
# or send a letter to
# Creative Commons, PO Box 1866, Mountain View, CA 94042, USA.
#
# CIF created using the CSD Python API on 29 September 2022
# The structure has been converted into the P1 space group
# The structure has a 3D framework
# The original CSD entry UZOHID is in the orthorhombic crystal system
# The framework has been calculated to contain at least 10.0% void space
# The void calculation uses a probe of radius 1.32A, grid spacing 0.4
#
###############################################################################

data_UZOHID
_chemical_formula_moiety         '(C192 H144 Cd10 N32 O32)n'
_symmetry_cell_setting           triclinic
_symmetry_space_group_name_H-M   'P 1'
_symmetry_Int_Tables_number      1
_space_group_name_Hall           'P 1'
loop_
_symmetry_equiv_pos_site_id
_symmetry_equiv_pos_as_xyz
1 x,y,z
_cell_length_a                   29.405(5)
_cell_length_b                   30.799(5)
_cell_length_c                   6.740(5)
_cell_angle_alpha                90
_cell_angle_beta                 90
_cell_angle_gamma                90
_cell_volume                     6104.04
loop_
_atom_site_label
_atom_site_type_symbol
_atom_site_fract_x
_atom_site_fract_y
_atom_site_fract_z
C1 C 0.19984(16) 0.19376(17) 0.0829(8)
H3 H 0.111006 0.185267 0.048676
O1 O 0.24214(13) 0.18967(17) 0.0830(8)
O2 O 0.18043(15) 0.22158(15) 0.1875(7)
Cd1 Cd 0.250000 0.250000 0.29858(13)
C13 C 0.30016(16) 0.30624(17) 0.0829(8)
H12 H 0.388994 0.314733 0.048676
O3 O 0.25786(13) 0.31033(17) 0.0830(8)
O4 O 0.31957(15) 0.27842(15) 0.1875(7)
N5 N 0.21102(14) 0.28988(14) 0.5335(8)
N6 N 0.28898(14) 0.21012(14) 0.5335(8)
C4 C 0.0835(2) 0.3638(2) 0.9348(10)
H2 H 0.069159 0.345579 0.844056
C5 C 0.13095(19) 0.36491(17) 0.9410(8)
C8 C 0.15824(18) 0.33858(16) 0.7994(9)
C9 C 0.1629(2) 0.29417(18) 0.8160(10)
H4 H 0.148246 0.279553 0.918362
C10 C 0.1890(3) 0.2713(2) 0.6835(11)
H5 H 0.191384 0.241365 0.699241
C11 C 0.2087(3) 0.3325(2) 0.5207(11)
H6 H 0.225678 0.346392 0.423291
C12 C 0.1819(3) 0.3575(2) 0.6462(11)
H7 H 0.179948 0.387367 0.626370
C4_2 C 0.4165(2) 0.1362(2) 0.9348(10)
H2_2 H 0.430841 0.154421 0.844056
C5_2 C 0.36905(19) 0.13509(17) 0.9410(8)
C8_2 C 0.34176(18) 0.16142(16) 0.7994(9)
C9_2 C 0.3371(2) 0.20583(18) 0.8160(10)
H4_2 H 0.351754 0.220447 0.918362
C10_2 C 0.3110(3) 0.2287(2) 0.6835(11)
H5_2 H 0.308616 0.258635 0.699241
C11_2 C 0.2913(3) 0.1675(2) 0.5207(11)
H6_2 H 0.274322 0.153608 0.423291
C12_2 C 0.3181(3) 0.1425(2) 0.6462(11)
H7_2 H 0.320052 0.112633 0.626370
C2 C 0.17170(18) 0.16575(17) 0.9457(8)
C3 C 0.19294(19) 0.1390(2) 0.8104(11)
H1 H 0.224509 0.137983 0.803413
C4_3 C 0.1665(2) 0.1138(2) 0.6848(10)
H2_3 H 0.180841 0.095579 0.594056
C5_3 C 0.11905(19) 0.11491(17) 0.6910(8)
C6 C 0.09768(18) 0.14152(18) 0.8305(8)
C7 C 0.12487(19) 0.16711(18) 0.9565(8)
C8_3 C 0.09176(18) 0.08858(16) 0.5494(9)
C9_3 C 0.0871(2) 0.04417(18) 0.5660(10)
H4_3 H 0.101754 0.029553 0.668362
C10_3 C 0.0610(3) 0.0213(2) 0.4335(11)
C11_3 C 0.0413(3) 0.0825(2) 0.2707(11)
H6_3 H 0.024322 0.096392 0.173291
C12_3 C 0.0681(3) 0.1075(2) 0.3962(11)
H7_3 H 0.070052 0.137367 0.376370
N1 N 0.05060(16) 0.14471(19) 0.8381(9)
H8 H 0.034145 0.130175 0.756183
H9 H 0.037896 0.161225 0.924836
N2 N 0.03898(14) 0.03988(14) 0.2835(8)
C14 C 0.32830(18) 0.33425(17) 0.9457(8)
C15 C 0.30706(19) 0.3610(2) 0.8104(11)
H10 H 0.275491 0.362017 0.803413
C16 C 0.3335(2) 0.3862(2) 0.6848(10)
H11 H 0.319159 0.404421 0.594056
C17 C 0.38095(19) 0.38509(17) 0.6910(8)
C18 C 0.40232(18) 0.35848(18) 0.8305(8)
C19 C 0.37513(19) 0.33289(18) 0.9565(8)
C20 C 0.40824(18) 0.41142(16) 0.5494(9)
C21 C 0.4129(2) 0.45583(18) 0.5660(10)
H13 H 0.398246 0.470447 0.668362
C22 C 0.4390(3) 0.4787(2) 0.4335(11)
H14 H 0.441384 0.508635 0.449241
C23 C 0.4587(3) 0.4175(2) 0.2707(11)
H15 H 0.475678 0.403608 0.173291
C24 C 0.4319(3) 0.3925(2) 0.3962(11)
H16 H 0.429948 0.362633 0.376370
N3 N 0.44940(16) 0.35529(19) 0.8381(9)
H17 H 0.465855 0.369825 0.756183
H18 H 0.462104 0.338775 0.924836
N4 N 0.46102(14) 0.46012(14) 0.2835(8)
Cd2 Cd 0.000000 0.000000 0.04858(13)
Cd3 Cd 0.500000 0.500000 0.04858(13)
Cd2_2 Cd 1.000000 1.000000 0.04858(13)
C2_2 C 0.82830(18) 0.83425(17) 0.9457(8)
C3_2 C 0.80706(19) 0.8610(2) 0.8104(11)
H1_2 H 0.775491 0.862017 0.803413
C4_4 C 0.8335(2) 0.8862(2) 0.6848(10)
H2_4 H 0.819159 0.904421 0.594056
C5_4 C 0.88095(19) 0.88509(17) 0.6910(8)
C6_2 C 0.90232(18) 0.85848(18) 0.8305(8)
C7_2 C 0.87513(19) 0.83289(18) 0.9565(8)
C8_4 C 0.90824(18) 0.91142(16) 0.5494(9)
C9_4 C 0.9129(2) 0.95583(18) 0.5660(10)
H4_4 H 0.898246 0.970447 0.668362
C10_4 C 0.9390(3) 0.9787(2) 0.4335(11)
C11_4 C 0.9587(3) 0.9175(2) 0.2707(11)
H6_4 H 0.975678 0.903608 0.173291
C12_4 C 0.9319(3) 0.8925(2) 0.3962(11)
H7_4 H 0.929948 0.862633 0.376370
N1_2 N 0.94940(16) 0.85529(19) 0.8381(9)
H8_2 H 0.965855 0.869825 0.756183
H9_2 H 0.962104 0.838775 0.924836
N2_2 N 0.96102(14) 0.96012(14) 0.2835(8)
C14_2 C 0.67170(18) 0.66575(17) 0.9457(8)
C15_2 C 0.69294(19) 0.6390(2) 0.8104(11)
H10_2 H 0.724509 0.637983 0.803413
C16_2 C 0.6665(2) 0.6138(2) 0.6848(10)
H11_2 H 0.680841 0.595579 0.594056
C17_2 C 0.61905(19) 0.61491(17) 0.6910(8)
C18_2 C 0.59768(18) 0.64152(18) 0.8305(8)
C19_2 C 0.62487(19) 0.66711(18) 0.9565(8)
C20_2 C 0.59176(18) 0.58858(16) 0.5494(9)
C21_2 C 0.5871(2) 0.54417(18) 0.5660(10)
H13_2 H 0.601754 0.529553 0.668362
C22_2 C 0.5610(3) 0.5213(2) 0.4335(11)
H14_2 H 0.558616 0.491365 0.449241
C23_2 C 0.5413(3) 0.5825(2) 0.2707(11)
H15_2 H 0.524322 0.596392 0.173291
C24_2 C 0.5681(3) 0.6075(2) 0.3962(11)
H16_2 H 0.570052 0.637367 0.376370
N3_2 N 0.55060(16) 0.64471(19) 0.8381(9)
H17_2 H 0.534145 0.630175 0.756183
H18_2 H 0.537896 0.661225 0.924836
N4_2 N 0.53898(14) 0.53988(14) 0.2835(8)
H5_3 H 0.058616 0.991365 0.449241
Cd2_3 Cd 0.000000 1.000000 0.04858(13)
Cd2_4 Cd 1.000000 0.000000 0.04858(13)
H5_4 H 0.941384 0.008635 0.449241
C1_2 C 0.80016(16) 0.80624(17) 0.0829(8)
H3_2 H 0.888994 0.814733 0.048676
O1_2 O 0.75786(13) 0.81033(17) 0.0830(8)
O2_2 O 0.81957(15) 0.77842(15) 0.1875(7)
Cd1_2 Cd 0.750000 0.750000 0.29858(13)
C13_2 C 0.69984(16) 0.69376(17) 0.0829(8)
H12_2 H 0.611006 0.685267 0.048676
O3_2 O 0.74214(13) 0.68967(17) 0.0830(8)
O4_2 O 0.68043(15) 0.72158(15) 0.1875(7)
N5_2 N 0.78898(14) 0.71012(14) 0.5335(8)
N6_2 N 0.71102(14) 0.78988(14) 0.5335(8)
C16_3 C 0.9165(2) 0.6362(2) 0.9348(10)
H11_3 H 0.930841 0.654421 0.844056
C17_3 C 0.86905(19) 0.63509(17) 0.9410(8)
C20_3 C 0.84176(18) 0.66142(16) 0.7994(9)
C21_3 C 0.8371(2) 0.70583(18) 0.8160(10)
H13_3 H 0.851754 0.720447 0.918362
C22_3 C 0.8110(3) 0.7287(2) 0.6835(11)
H14_3 H 0.808616 0.758635 0.699241
C23_3 C 0.7913(3) 0.6675(2) 0.5207(11)
H15_3 H 0.774322 0.653608 0.423291
C24_3 C 0.8181(3) 0.6425(2) 0.6462(11)
H16_3 H 0.820052 0.612633 0.626370
C16_4 C 0.5835(2) 0.8638(2) 0.9348(10)
H11_4 H 0.569159 0.845579 0.844056
C17_4 C 0.63095(19) 0.86491(17) 0.9410(8)
C20_4 C 0.65824(18) 0.83858(16) 0.7994(9)
C21_4 C 0.6629(2) 0.79417(18) 0.8160(10)
H13_4 H 0.648246 0.779553 0.918362
C22_4 C 0.6890(3) 0.7713(2) 0.6835(11)
H14_4 H 0.691384 0.741365 0.699241
C23_4 C 0.7087(3) 0.8325(2) 0.5207(11)
H15_4 H 0.725678 0.846392 0.423291
C24_4 C 0.6819(3) 0.8575(2) 0.6462(11)
H16_4 H 0.679948 0.887367 0.626370
C1_3 C 0.05016(16) 0.44376(17) 0.3329(8)
C2_3 C 0.07830(18) 0.41575(17) 0.1957(8)
C3_3 C 0.05706(19) 0.3890(2) 0.0604(11)
H1_3 H 0.025491 0.387983 0.053413
C6_3 C 0.15232(18) 0.39152(18) 0.0805(8)
C7_3 C 0.12513(19) 0.41711(18) 0.2065(8)
H3_3 H 0.138994 0.435267 0.298676
N1_3 N 0.19940(16) 0.39471(19) 0.0881(9)
H8_3 H 0.215855 0.380175 0.006183
H9_3 H 0.212104 0.411225 0.174836
O1_3 O 0.00786(13) 0.43967(17) 0.3330(8)
O2_3 O 0.06957(15) 0.47158(15) 0.4375(7)
Cd1_3 Cd -0.000000 0.500000 0.54858(13)
N5_3 N 0.03898(14) 0.53988(14) 0.7835(8)
Cd1_4 Cd 0.500000 1.000000 0.54858(13)
C13_3 C 0.55016(16) 0.94376(17) 0.3329(8)
C14_3 C 0.57830(18) 0.91575(17) 0.1957(8)
C15_3 C 0.55706(19) 0.8890(2) 0.0604(11)
H10_3 H 0.525491 0.887983 0.053413
C18_3 C 0.65232(18) 0.89152(18) 0.0805(8)
C19_3 C 0.62513(19) 0.91711(18) 0.2065(8)
H12_3 H 0.638994 0.935267 0.298676
N3_3 N 0.69940(16) 0.89471(19) 0.0881(9)
H17_3 H 0.715855 0.880175 0.006183
H18_3 H 0.712104 0.911225 0.174836
O3_3 O 0.50786(13) 0.93967(17) 0.3330(8)
O4_3 O 0.56957(15) 0.97158(15) 0.4375(7)
N5_4 N 0.46102(14) 0.96012(14) 0.7835(8)
C10_5 C 0.0610(3) 0.5213(2) 0.9335(11)
H5_5 H 0.058616 0.491365 0.949241
C11_5 C 0.0413(3) 0.5825(2) 0.7707(11)
H6_5 H 0.024322 0.596392 0.673291
C12_5 C 0.0681(3) 0.6075(2) 0.8962(11)
H7_5 H 0.070052 0.637367 0.876370
C22_5 C 0.4390(3) 0.9787(2) 0.9335(11)
C23_5 C 0.4587(3) 0.9175(2) 0.7707(11)
H15_5 H 0.475678 0.903608 0.673291
C24_5 C 0.4319(3) 0.8925(2) 0.8962(11)
H16_5 H 0.429948 0.862633 0.876370
H14_5 H 0.558616 0.991365 0.949241
Cd1_5 Cd 1.000000 0.500000 0.54858(13)
C13_4 C 0.94984(16) 0.55624(17) 0.3329(8)
C14_4 C 0.92170(18) 0.58425(17) 0.1957(8)
C15_4 C 0.94294(19) 0.6110(2) 0.0604(11)
H10_4 H 0.974509 0.612017 0.053413
C18_4 C 0.84768(18) 0.60848(18) 0.0805(8)
C19_4 C 0.87487(19) 0.58289(18) 0.2065(8)
H12_4 H 0.861006 0.564733 0.298676
N3_4 N 0.80060(16) 0.60529(19) 0.0881(9)
H17_4 H 0.784145 0.619825 0.006183
H18_4 H 0.787896 0.588775 0.174836
O3_4 O 0.99214(13) 0.56033(17) 0.3330(8)
O4_4 O 0.93043(15) 0.52842(15) 0.4375(7)
N6_3 N 0.96102(14) 0.46012(14) 0.7835(8)
C1_4 C 0.44984(16) 0.05624(17) 0.3329(8)
C2_4 C 0.42170(18) 0.08425(17) 0.1957(8)
C3_4 C 0.44294(19) 0.1110(2) 0.0604(11)
H1_4 H 0.474509 0.112017 0.053413
C6_4 C 0.34768(18) 0.10848(18) 0.0805(8)
C7_4 C 0.37487(19) 0.08289(18) 0.2065(8)
H3_4 H 0.361006 0.064733 0.298676
N1_4 N 0.30060(16) 0.10529(19) 0.0881(9)
H8_4 H 0.284145 0.119825 0.006183
H9_4 H 0.287896 0.088775 0.174836
O1_4 O 0.49214(13) 0.06033(17) 0.3330(8)
O2_4 O 0.43043(15) 0.02842(15) 0.4375(7)
Cd1_6 Cd 0.500000 -0.000000 0.54858(13)
N6_4 N 0.53898(14) 0.03988(14) 0.7835(8)
H14_6 H 0.441384 0.008635 0.949241
C10_6 C 0.9390(3) 0.4787(2) 0.9335(11)
H5_6 H 0.941384 0.508635 0.949241
C11_6 C 0.9587(3) 0.4175(2) 0.7707(11)
H6_6 H 0.975678 0.403608 0.673291
C12_6 C 0.9319(3) 0.3925(2) 0.8962(11)
H7_6 H 0.929948 0.362633 0.876370
C22_6 C 0.5610(3) 0.0213(2) 0.9335(11)
C23_6 C 0.5413(3) 0.0825(2) 0.7707(11)
H15_6 H 0.524322 0.096392 0.673291
C24_6 C 0.5681(3) 0.1075(2) 0.8962(11)
H16_6 H 0.570052 0.137367 0.876370
N5_5 N 0.21102(14) 0.78988(14) 0.0335(8)
N6_5 N 0.28898(14) 0.71012(14) 0.0335(8)
N5_6 N 0.78898(14) 0.21012(14) 0.0335(8)
N6_6 N 0.71102(14) 0.28988(14) 0.0335(8)
C1_5 C 0.05016(16) 0.94376(17) 0.8329(8)
C2_5 C 0.07830(18) 0.91575(17) 0.6957(8)
C3_5 C 0.05706(19) 0.8890(2) 0.5604(11)
H1_5 H 0.025491 0.887983 0.553413
C4_5 C 0.0835(2) 0.8638(2) 0.4348(10)
H2_5 H 0.069159 0.845579 0.344056
C5_5 C 0.13095(19) 0.86491(17) 0.4410(8)
C6_5 C 0.15232(18) 0.89152(18) 0.5805(8)
C7_5 C 0.12513(19) 0.91711(18) 0.7065(8)
H3_5 H 0.138994 0.935267 0.798676
C8_5 C 0.15824(18) 0.83858(16) 0.2994(9)
C9_5 C 0.1629(2) 0.79417(18) 0.3160(10)
H4_5 H 0.148246 0.779553 0.418362
C10_7 C 0.1890(3) 0.7713(2) 0.1835(11)
H5_7 H 0.191384 0.741365 0.199241
C11_7 C 0.2087(3) 0.8325(2) 0.0207(11)
C12_7 C 0.1819(3) 0.8575(2) 0.1462(11)
H7_7 H 0.179948 0.887367 0.126370
N1_5 N 0.19940(16) 0.89471(19) 0.5881(9)
H8_5 H 0.215855 0.880175 0.506183
H9_5 H 0.212104 0.911225 0.674836
O1_5 O 0.00786(13) 0.93967(17) 0.8330(8)
O2_5 O 0.06957(15) 0.97158(15) 0.9375(7)
C13_5 C 0.94984(16) 0.05624(17) 0.8329(8)
C14_5 C 0.92170(18) 0.08425(17) 0.6957(8)
C15_5 C 0.94294(19) 0.1110(2) 0.5604(11)
H10_5 H 0.974509 0.112017 0.553413
C16_5 C 0.9165(2) 0.1362(2) 0.4348(10)
H11_5 H 0.930841 0.154421 0.344056
C17_5 C 0.86905(19) 0.13509(17) 0.4410(8)
C18_5 C 0.84768(18) 0.10848(18) 0.5805(8)
C19_5 C 0.87487(19) 0.08289(18) 0.7065(8)
H12_5 H 0.861006 0.064733 0.798676
C20_5 C 0.84176(18) 0.16142(16) 0.2994(9)
C21_5 C 0.8371(2) 0.20583(18) 0.3160(10)
H13_5 H 0.851754 0.220447 0.418362
C22_7 C 0.8110(3) 0.2287(2) 0.1835(11)
H14_7 H 0.808616 0.258635 0.199241
C23_7 C 0.7913(3) 0.1675(2) 0.0207(11)
C24_7 C 0.8181(3) 0.1425(2) 0.1462(11)
H16_7 H 0.820052 0.112633 0.126370
N3_5 N 0.80060(16) 0.10529(19) 0.5881(9)
H17_5 H 0.784145 0.119825 0.506183
H18_5 H 0.787896 0.088775 0.674836
O3_5 O 0.99214(13) 0.06033(17) 0.8330(8)
O4_5 O 0.93043(15) 0.02842(15) 0.9375(7)
C1_6 C 0.44984(16) 0.55624(17) 0.8329(8)
C2_6 C 0.42170(18) 0.58425(17) 0.6957(8)
C3_6 C 0.44294(19) 0.6110(2) 0.5604(11)
H1_6 H 0.474509 0.612017 0.553413
C4_6 C 0.4165(2) 0.6362(2) 0.4348(10)
H2_6 H 0.430841 0.654421 0.344056
C5_6 C 0.36905(19) 0.63509(17) 0.4410(8)
C6_6 C 0.34768(18) 0.60848(18) 0.5805(8)
C7_6 C 0.37487(19) 0.58289(18) 0.7065(8)
H3_6 H 0.361006 0.564733 0.798676
C8_6 C 0.34176(18) 0.66142(16) 0.2994(9)
C9_6 C 0.3371(2) 0.70583(18) 0.3160(10)
H4_6 H 0.351754 0.720447 0.418362
C10_8 C 0.3110(3) 0.7287(2) 0.1835(11)
H5_8 H 0.308616 0.758635 0.199241
C11_8 C 0.2913(3) 0.6675(2) 0.0207(11)
C12_8 C 0.3181(3) 0.6425(2) 0.1462(11)
H7_8 H 0.320052 0.612633 0.126370
N1_6 N 0.30060(16) 0.60529(19) 0.5881(9)
H8_6 H 0.284145 0.619825 0.506183
H9_6 H 0.287896 0.588775 0.674836
O1_6 O 0.49214(13) 0.56033(17) 0.8330(8)
O2_6 O 0.43043(15) 0.52842(15) 0.9375(7)
C13_6 C 0.55016(16) 0.44376(17) 0.8329(8)
C14_6 C 0.57830(18) 0.41575(17) 0.6957(8)
C15_6 C 0.55706(19) 0.3890(2) 0.5604(11)
H10_6 H 0.525491 0.387983 0.553413
C16_6 C 0.5835(2) 0.3638(2) 0.4348(10)
H11_6 H 0.569159 0.345579 0.344056
C17_6 C 0.63095(19) 0.36491(17) 0.4410(8)
C18_6 C 0.65232(18) 0.39152(18) 0.5805(8)
C19_6 C 0.62513(19) 0.41711(18) 0.7065(8)
H12_6 H 0.638994 0.435267 0.798676
C20_6 C 0.65824(18) 0.33858(16) 0.2994(9)
C21_6 C 0.6629(2) 0.29417(18) 0.3160(10)
H13_6 H 0.648246 0.279553 0.418362
C22_8 C 0.6890(3) 0.2713(2) 0.1835(11)
H14_8 H 0.691384 0.241365 0.199241
C23_8 C 0.7087(3) 0.3325(2) 0.0207(11)
C24_8 C 0.6819(3) 0.3575(2) 0.1462(11)
H16_8 H 0.679948 0.387367 0.126370
N3_6 N 0.69940(16) 0.39471(19) 0.5881(9)
H17_6 H 0.715855 0.380175 0.506183
H18_6 H 0.712104 0.411225 0.674836
O3_6 O 0.50786(13) 0.43967(17) 0.8330(8)
O4_6 O 0.56957(15) 0.47158(15) 0.9375(7)
C1_7 C 0.19984(16) 0.69376(17) 0.5829(8)
C2_7 C 0.17170(18) 0.66575(17) 0.4457(8)
C3_7 C 0.19294(19) 0.6390(2) 0.3104(11)
H1_7 H 0.224509 0.637983 0.303413
C4_7 C 0.1665(2) 0.6138(2) 0.1848(10)
H2_7 H 0.180841 0.595579 0.094056
C5_7 C 0.11905(19) 0.61491(17) 0.1910(8)
C6_7 C 0.09768(18) 0.64152(18) 0.3305(8)
C7_7 C 0.12487(19) 0.66711(18) 0.4565(8)
H3_7 H 0.111006 0.685267 0.548676
C8_7 C 0.09176(18) 0.58858(16) 0.0494(9)
C9_7 C 0.0871(2) 0.54417(18) 0.0660(10)
H4_7 H 0.101754 0.529553 0.168362
N1_7 N 0.05060(16) 0.64471(19) 0.3381(9)
H8_7 H 0.034145 0.630175 0.256183
H9_7 H 0.037896 0.661225 0.424836
O1_7 O 0.24214(13) 0.68967(17) 0.5830(8)
O2_7 O 0.18043(15) 0.72158(15) 0.6875(7)
Cd1_7 Cd 0.250000 0.750000 0.79858(13)
C13_7 C 0.30016(16) 0.80624(17) 0.5829(8)
C14_7 C 0.32830(18) 0.83425(17) 0.4457(8)
C15_7 C 0.30706(19) 0.8610(2) 0.3104(11)
H10_7 H 0.275491 0.862017 0.303413
C16_7 C 0.3335(2) 0.8862(2) 0.1848(10)
H11_7 H 0.319159 0.904421 0.094056
C17_7 C 0.38095(19) 0.88509(17) 0.1910(8)
C18_7 C 0.40232(18) 0.85848(18) 0.3305(8)
C19_7 C 0.37513(19) 0.83289(18) 0.4565(8)
H12_7 H 0.388994 0.814733 0.548676
C20_7 C 0.40824(18) 0.91142(16) 0.0494(9)
C21_7 C 0.4129(2) 0.95583(18) 0.0660(10)
H13_7 H 0.398246 0.970447 0.168362
N3_7 N 0.44940(16) 0.85529(19) 0.3381(9)
H17_7 H 0.465855 0.869825 0.256183
H18_7 H 0.462104 0.838775 0.424836
O3_7 O 0.25786(13) 0.81033(17) 0.5830(8)
O4_7 O 0.31957(15) 0.77842(15) 0.6875(7)
C1_8 C 0.80016(16) 0.30624(17) 0.5829(8)
C2_8 C 0.82830(18) 0.33425(17) 0.4457(8)
C3_8 C 0.80706(19) 0.3610(2) 0.3104(11)
H1_8 H 0.775491 0.362017 0.303413
C4_8 C 0.8335(2) 0.3862(2) 0.1848(10)
H2_8 H 0.819159 0.404421 0.094056
C5_8 C 0.88095(19) 0.38509(17) 0.1910(8)
C6_8 C 0.90232(18) 0.35848(18) 0.3305(8)
C7_8 C 0.87513(19) 0.33289(18) 0.4565(8)
H3_8 H 0.888994 0.314733 0.548676
C8_8 C 0.90824(18) 0.41142(16) 0.0494(9)
C9_8 C 0.9129(2) 0.45583(18) 0.0660(10)
H4_8 H 0.898246 0.470447 0.168362
N1_8 N 0.94940(16) 0.35529(19) 0.3381(9)
H8_8 H 0.965855 0.369825 0.256183
H9_8 H 0.962104 0.338775 0.424836
O1_8 O 0.75786(13) 0.31033(17) 0.5830(8)
O2_8 O 0.81957(15) 0.27842(15) 0.6875(7)
Cd1_8 Cd 0.750000 0.250000 0.79858(13)
C13_8 C 0.69984(16) 0.19376(17) 0.5829(8)
C14_8 C 0.67170(18) 0.16575(17) 0.4457(8)
C15_8 C 0.69294(19) 0.1390(2) 0.3104(11)
H10_8 H 0.724509 0.137983 0.303413
C16_8 C 0.6665(2) 0.1138(2) 0.1848(10)
H11_8 H 0.680841 0.095579 0.094056
C17_8 C 0.61905(19) 0.11491(17) 0.1910(8)
C18_8 C 0.59768(18) 0.14152(18) 0.3305(8)
C19_8 C 0.62487(19) 0.16711(18) 0.4565(8)
H12_8 H 0.611006 0.185267 0.548676
C20_8 C 0.59176(18) 0.08858(16) 0.0494(9)
C21_8 C 0.5871(2) 0.04417(18) 0.0660(10)
H13_8 H 0.601754 0.029553 0.168362
N3_8 N 0.55060(16) 0.14471(19) 0.3381(9)
H17_8 H 0.534145 0.130175 0.256183
H18_8 H 0.537896 0.161225 0.424836
O3_8 O 0.74214(13) 0.18967(17) 0.5830(8)
O4_8 O 0.68043(15) 0.22158(15) 0.6875(7)
H6_7 H 0.225678 0.846392 0.923291
H15_7 H 0.774322 0.153608 0.923291
H6_8 H 0.274322 0.653608 0.923291
H15_8 H 0.725678 0.346392 0.923291
loop_
_geom_bond_atom_site_label_1
_geom_bond_atom_site_label_2
_geom_bond_site_symmetry_1
_geom_bond_site_symmetry_2
O1 C1 1_555 1_555
O2 C1 1_555 1_555
Cd1 O1 1_555 1_555
O3 Cd1 1_555 1_555
O4 Cd1 1_555 1_555
N5 Cd1 1_555 1_555
N6 Cd1 1_555 1_555
O2 Cd1 1_555 1_555
C13 O3 1_555 1_555
C13 O4 1_555 1_555
H2 C4 1_555 1_555
C5 C4 1_555 1_555
C8 C5 1_555 1_555
C9 C8 1_555 1_555
H4 C9 1_555 1_555
C10 C9 1_555 1_555
H5 C10 1_555 1_555
C11 H6 1_555 1_555
C12 C8 1_555 1_555
H7 C12 1_555 1_555
N5 C10 1_555 1_555
C11 C12 1_555 1_555
C11 N5 1_555 1_555
H2_2 C4_2 1_555 1_555
C5_2 C4_2 1_555 1_555
C8_2 C5_2 1_555 1_555
C9_2 C8_2 1_555 1_555
H4_2 C9_2 1_555 1_555
C10_2 C9_2 1_555 1_555
H5_2 C10_2 1_555 1_555
C11_2 H6_2 1_555 1_555
C12_2 C8_2 1_555 1_555
H7_2 C12_2 1_555 1_555
N6 C10_2 1_555 1_555
C11_2 C12_2 1_555 1_555
C11_2 N6 1_555 1_555
C2 C3 1_555 1_555
C3 H1 1_555 1_555
C4_3 C3 1_555 1_555
H2_3 C4_3 1_555 1_555
C5_3 C4_3 1_555 1_555
C6 C5_3 1_555 1_555
C7 C2 1_555 1_555
C8_3 C5_3 1_555 1_555
C9_3 C8_3 1_555 1_555
H4_3 C9_3 1_555 1_555
C10_3 C9_3 1_555 1_555
C11_3 H6_3 1_555 1_555
C12_3 C8_3 1_555 1_555
H7_3 C12_3 1_555 1_555
N1 C6 1_555 1_555
H8 N1 1_555 1_555
H9 N1 1_555 1_555
N2 C10_3 1_555 1_555
C14 C15 1_555 1_555
C15 H10 1_555 1_555
C16 C15 1_555 1_555
H11 C16 1_555 1_555
C17 C16 1_555 1_555
C18 C17 1_555 1_555
C19 C14 1_555 1_555
C20 C17 1_555 1_555
C21 C20 1_555 1_555
H13 C21 1_555 1_555
C22 C21 1_555 1_555
H14 C22 1_555 1_555
C23 H15 1_555 1_555
C24 C20 1_555 1_555
H16 C24 1_555 1_555
N3 C18 1_555 1_555
H17 N3 1_555 1_555
H18 N3 1_555 1_555
N4 C22 1_555 1_555
Cd2 N2 1_555 1_555
Cd3 N4 1_555 1_555
C6 C7 1_555 1_555
C11_3 C12_3 1_555 1_555
C11_3 N2 1_555 1_555
C18 C19 1_555 1_555
C23 C24 1_555 1_555
C23 N4 1_555 1_555
C2_2 C3_2 1_555 1_555
C3_2 H1_2 1_555 1_555
C4_4 C3_2 1_555 1_555
H2_4 C4_4 1_555 1_555
C5_4 C4_4 1_555 1_555
C6_2 C5_4 1_555 1_555
C7_2 C2_2 1_555 1_555
C8_4 C5_4 1_555 1_555
C9_4 C8_4 1_555 1_555
H4_4 C9_4 1_555 1_555
C10_4 C9_4 1_555 1_555
C11_4 H6_4 1_555 1_555
C12_4 C8_4 1_555 1_555
H7_4 C12_4 1_555 1_555
N1_2 C6_2 1_555 1_555
H8_2 N1_2 1_555 1_555
H9_2 N1_2 1_555 1_555
N2_2 C10_4 1_555 1_555
C14_2 C15_2 1_555 1_555
C15_2 H10_2 1_555 1_555
C16_2 C15_2 1_555 1_555
H11_2 C16_2 1_555 1_555
C17_2 C16_2 1_555 1_555
C18_2 C17_2 1_555 1_555
C19_2 C14_2 1_555 1_555
C20_2 C17_2 1_555 1_555
C21_2 C20_2 1_555 1_555
H13_2 C21_2 1_555 1_555
C22_2 C21_2 1_555 1_555
H14_2 C22_2 1_555 1_555
C23_2 H15_2 1_555 1_555
C24_2 C20_2 1_555 1_555
H16_2 C24_2 1_555 1_555
N3_2 C18_2 1_555 1_555
H17_2 N3_2 1_555 1_555
H18_2 N3_2 1_555 1_555
N4_2 C22_2 1_555 1_555
Cd2_2 N2_2 1_555 1_555
Cd3 N4_2 1_555 1_555
C6_2 C7_2 1_555 1_555
C11_4 C12_4 1_555 1_555
C11_4 N2_2 1_555 1_555
C18_2 C19_2 1_555 1_555
C23_2 C24_2 1_555 1_555
C23_2 N4_2 1_555 1_555
O1_2 C1_2 1_555 1_555
O2_2 C1_2 1_555 1_555
Cd1_2 O1_2 1_555 1_555
O3_2 Cd1_2 1_555 1_555
O4_2 Cd1_2 1_555 1_555
N5_2 Cd1_2 1_555 1_555
N6_2 Cd1_2 1_555 1_555
O2_2 Cd1_2 1_555 1_555
C13_2 O3_2 1_555 1_555
C13_2 O4_2 1_555 1_555
H11_3 C16_3 1_555 1_555
C17_3 C16_3 1_555 1_555
C20_3 C17_3 1_555 1_555
C21_3 C20_3 1_555 1_555
H13_3 C21_3 1_555 1_555
C22_3 C21_3 1_555 1_555
H14_3 C22_3 1_555 1_555
C23_3 H15_3 1_555 1_555
C24_3 C20_3 1_555 1_555
H16_3 C24_3 1_555 1_555
N5_2 C22_3 1_555 1_555
C23_3 C24_3 1_555 1_555
C23_3 N5_2 1_555 1_555
H11_4 C16_4 1_555 1_555
C17_4 C16_4 1_555 1_555
C20_4 C17_4 1_555 1_555
C21_4 C20_4 1_555 1_555
H13_4 C21_4 1_555 1_555
C22_4 C21_4 1_555 1_555
H14_4 C22_4 1_555 1_555
C23_4 H15_4 1_555 1_555
C24_4 C20_4 1_555 1_555
H16_4 C24_4 1_555 1_555
N6_2 C22_4 1_555 1_555
C23_4 C24_4 1_555 1_555
C23_4 N6_2 1_555 1_555
C1_3 C2_3 1_555 1_555
C2_3 C3_3 1_555 1_555
C3_3 H1_3 1_555 1_555
C7_3 C2_3 1_555 1_555
H3_3 C7_3 1_555 1_555
N1_3 C6_3 1_555 1_555
H8_3 N1_3 1_555 1_555
H9_3 N1_3 1_555 1_555
O1_3 C1_3 1_555 1_555
O2_3 C1_3 1_555 1_555
Cd1_3 O1_3 1_555 1_555
N5_3 Cd1_3 1_555 1_555
C6_3 C7_3 1_555 1_555
O2_3 Cd1_3 1_555 1_555
C13_3 C14_3 1_555 1_555
C14_3 C15_3 1_555 1_555
C15_3 H10_3 1_555 1_555
C19_3 C14_3 1_555 1_555
H12_3 C19_3 1_555 1_555
N3_3 C18_3 1_555 1_555
H17_3 N3_3 1_555 1_555
H18_3 N3_3 1_555 1_555
O3_3 Cd1_4 1_555 1_555
O4_3 Cd1_4 1_555 1_555
N5_4 Cd1_4 1_555 1_555
C13_3 O3_3 1_555 1_555
C13_3 O4_3 1_555 1_555
C18_3 C19_3 1_555 1_555
H5_5 C10_5 1_555 1_555
C11_5 H6_5 1_555 1_555
H7_5 C12_5 1_555 1_555
N5_3 C10_5 1_555 1_555
C23_5 H15_5 1_555 1_555
H16_5 C24_5 1_555 1_555
N5_4 C22_5 1_555 1_555
C11_5 C12_5 1_555 1_555
C11_5 N5_3 1_555 1_555
C23_5 C24_5 1_555 1_555
C23_5 N5_4 1_555 1_555
C13_4 C14_4 1_555 1_555
C14_4 C15_4 1_555 1_555
C15_4 H10_4 1_555 1_555
C19_4 C14_4 1_555 1_555
H12_4 C19_4 1_555 1_555
N3_4 C18_4 1_555 1_555
H17_4 N3_4 1_555 1_555
H18_4 N3_4 1_555 1_555
O3_4 Cd1_5 1_555 1_555
O4_4 Cd1_5 1_555 1_555
N6_3 Cd1_5 1_555 1_555
C13_4 O3_4 1_555 1_555
C13_4 O4_4 1_555 1_555
C18_4 C19_4 1_555 1_555
C1_4 C2_4 1_555 1_555
C2_4 C3_4 1_555 1_555
C3_4 H1_4 1_555 1_555
C7_4 C2_4 1_555 1_555
H3_4 C7_4 1_555 1_555
N1_4 C6_4 1_555 1_555
H8_4 N1_4 1_555 1_555
H9_4 N1_4 1_555 1_555
O1_4 C1_4 1_555 1_555
O2_4 C1_4 1_555 1_555
Cd1_6 O1_4 1_555 1_555
N6_4 Cd1_6 1_555 1_555
C6_4 C7_4 1_555 1_555
O2_4 Cd1_6 1_555 1_555
H5_6 C10_6 1_555 1_555
C11_6 H6_6 1_555 1_555
H7_6 C12_6 1_555 1_555
N6_3 C10_6 1_555 1_555
C23_6 H15_6 1_555 1_555
H16_6 C24_6 1_555 1_555
N6_4 C22_6 1_555 1_555
C11_6 C12_6 1_555 1_555
C11_6 N6_3 1_555 1_555
C23_6 C24_6 1_555 1_555
C23_6 N6_4 1_555 1_555
C1_5 C2_5 1_555 1_555
C2_5 C3_5 1_555 1_555
C3_5 H1_5 1_555 1_555
C4_5 C3_5 1_555 1_555
H2_5 C4_5 1_555 1_555
C5_5 C4_5 1_555 1_555
C6_5 C5_5 1_555 1_555
C7_5 C2_5 1_555 1_555
H3_5 C7_5 1_555 1_555
C8_5 C5_5 1_555 1_555
C9_5 C8_5 1_555 1_555
H4_5 C9_5 1_555 1_555
C10_7 C9_5 1_555 1_555
H5_7 C10_7 1_555 1_555
C12_7 C8_5 1_555 1_555
H7_7 C12_7 1_555 1_555
N1_5 C6_5 1_555 1_555
H8_5 N1_5 1_555 1_555
H9_5 N1_5 1_555 1_555
N5_5 C10_7 1_555 1_555
O1_5 C1_5 1_555 1_555
O2_5 C1_5 1_555 1_555
C6_5 C7_5 1_555 1_555
C11_7 C12_7 1_555 1_555
C11_7 N5_5 1_555 1_555
C13_5 C14_5 1_555 1_555
C14_5 C15_5 1_555 1_555
C15_5 H10_5 1_555 1_555
C16_5 C15_5 1_555 1_555
H11_5 C16_5 1_555 1_555
C17_5 C16_5 1_555 1_555
C18_5 C17_5 1_555 1_555
C19_5 C14_5 1_555 1_555
H12_5 C19_5 1_555 1_555
C20_5 C17_5 1_555 1_555
C21_5 C20_5 1_555 1_555
H13_5 C21_5 1_555 1_555
C22_7 C21_5 1_555 1_555
H14_7 C22_7 1_555 1_555
C24_7 C20_5 1_555 1_555
H16_7 C24_7 1_555 1_555
N3_5 C18_5 1_555 1_555
H17_5 N3_5 1_555 1_555
H18_5 N3_5 1_555 1_555
N5_6 C22_7 1_555 1_555
C13_5 O3_5 1_555 1_555
C13_5 O4_5 1_555 1_555
C18_5 C19_5 1_555 1_555
C23_7 C24_7 1_555 1_555
C23_7 N5_6 1_555 1_555
C1_6 C2_6 1_555 1_555
C2_6 C3_6 1_555 1_555
C3_6 H1_6 1_555 1_555
C4_6 C3_6 1_555 1_555
H2_6 C4_6 1_555 1_555
C5_6 C4_6 1_555 1_555
C6_6 C5_6 1_555 1_555
C7_6 C2_6 1_555 1_555
H3_6 C7_6 1_555 1_555
C8_6 C5_6 1_555 1_555
C9_6 C8_6 1_555 1_555
H4_6 C9_6 1_555 1_555
C10_8 C9_6 1_555 1_555
H5_8 C10_8 1_555 1_555
C12_8 C8_6 1_555 1_555
H7_8 C12_8 1_555 1_555
N1_6 C6_6 1_555 1_555
H8_6 N1_6 1_555 1_555
H9_6 N1_6 1_555 1_555
N6_5 C10_8 1_555 1_555
O1_6 C1_6 1_555 1_555
O2_6 C1_6 1_555 1_555
C13_6 C14_6 1_555 1_555
C14_6 C15_6 1_555 1_555
C15_6 H10_6 1_555 1_555
C16_6 C15_6 1_555 1_555
H11_6 C16_6 1_555 1_555
C17_6 C16_6 1_555 1_555
C18_6 C17_6 1_555 1_555
C19_6 C14_6 1_555 1_555
H12_6 C19_6 1_555 1_555
C20_6 C17_6 1_555 1_555
C21_6 C20_6 1_555 1_555
H13_6 C21_6 1_555 1_555
C22_8 C21_6 1_555 1_555
H14_8 C22_8 1_555 1_555
C24_8 C20_6 1_555 1_555
H16_8 C24_8 1_555 1_555
N3_6 C18_6 1_555 1_555
H17_6 N3_6 1_555 1_555
H18_6 N3_6 1_555 1_555
N6_6 C22_8 1_555 1_555
C6_6 C7_6 1_555 1_555
C11_8 C12_8 1_555 1_555
C11_8 N6_5 1_555 1_555
C13_6 O3_6 1_555 1_555
C13_6 O4_6 1_555 1_555
C18_6 C19_6 1_555 1_555
C23_8 C24_8 1_555 1_555
C23_8 N6_6 1_555 1_555
C1_7 C2_7 1_555 1_555
C2_7 C3_7 1_555 1_555
C3_7 H1_7 1_555 1_555
C4_7 C3_7 1_555 1_555
H2_7 C4_7 1_555 1_555
C5_7 C4_7 1_555 1_555
C6_7 C5_7 1_555 1_555
C7_7 C2_7 1_555 1_555
H3_7 C7_7 1_555 1_555
C8_7 C5_7 1_555 1_555
C9_7 C8_7 1_555 1_555
H4_7 C9_7 1_555 1_555
N1_7 C6_7 1_555 1_555
H8_7 N1_7 1_555 1_555
H9_7 N1_7 1_555 1_555
O1_7 C1_7 1_555 1_555
O2_7 C1_7 1_555 1_555
Cd1_7 O1_7 1_555 1_555
C13_7 C14_7 1_555 1_555
C14_7 C15_7 1_555 1_555
C15_7 H10_7 1_555 1_555
C16_7 C15_7 1_555 1_555
H11_7 C16_7 1_555 1_555
C17_7 C16_7 1_555 1_555
C18_7 C17_7 1_555 1_555
C19_7 C14_7 1_555 1_555
H12_7 C19_7 1_555 1_555
C20_7 C17_7 1_555 1_555
C21_7 C20_7 1_555 1_555
H13_7 C21_7 1_555 1_555
N3_7 C18_7 1_555 1_555
H17_7 N3_7 1_555 1_555
H18_7 N3_7 1_555 1_555
O3_7 Cd1_7 1_555 1_555
O4_7 Cd1_7 1_555 1_555
C6_7 C7_7 1_555 1_555
O2_7 Cd1_7 1_555 1_555
C13_7 O3_7 1_555 1_555
C13_7 O4_7 1_555 1_555
C18_7 C19_7 1_555 1_555
C1_8 C2_8 1_555 1_555
C2_8 C3_8 1_555 1_555
C3_8 H1_8 1_555 1_555
C4_8 C3_8 1_555 1_555
H2_8 C4_8 1_555 1_555
C5_8 C4_8 1_555 1_555
C6_8 C5_8 1_555 1_555
C7_8 C2_8 1_555 1_555
H3_8 C7_8 1_555 1_555
C8_8 C5_8 1_555 1_555
C9_8 C8_8 1_555 1_555
H4_8 C9_8 1_555 1_555
N1_8 C6_8 1_555 1_555
H8_8 N1_8 1_555 1_555
H9_8 N1_8 1_555 1_555
O1_8 C1_8 1_555 1_555
O2_8 C1_8 1_555 1_555
Cd1_8 O1_8 1_555 1_555
C13_8 C14_8 1_555 1_555
C14_8 C15_8 1_555 1_555
C15_8 H10_8 1_555 1_555
C16_8 C15_8 1_555 1_555
H11_8 C16_8 1_555 1_555
C17_8 C16_8 1_555 1_555
C18_8 C17_8 1_555 1_555
C19_8 C14_8 1_555 1_555
H12_8 C19_8 1_555 1_555
C20_8 C17_8 1_555 1_555
C21_8 C20_8 1_555 1_555
H13_8 C21_8 1_555 1_555
N3_8 C18_8 1_555 1_555
H17_8 N3_8 1_555 1_555
H18_8 N3_8 1_555 1_555
O3_8 Cd1_8 1_555 1_555
O4_8 Cd1_8 1_555 1_555
C6_8 C7_8 1_555 1_555
O2_8 Cd1_8 1_555 1_555
C13_8 O3_8 1_555 1_555
C13_8 O4_8 1_555 1_555
C18_8 C19_8 1_555 1_555

#END
