
###############################################################################
#
# This file contains modified crystal structure data generated from the
# MOF subset of the Cambridge Structural Database (CSD) v543 
# hosted by the Cambridge Crystallographic Data Centre (CCDC).
#
# This work is licensed under the Creative Commons
# Attribution-NonCommercial-ShareAlike 4.0 International License.
# To view a copy of this license, visit
# http://creativecommons.org/licenses/by-nc-sa/4.0/
# or send a letter to
# Creative Commons, PO Box 1866, Mountain View, CA 94042, USA.
#
# CIF created using the CSD Python API on 29 September 2022
# The structure has been converted into the P1 space group
# The structure has a 3D framework
# The original CSD entry UZUNEJ is in the monoclinic crystal system
# The framework has been calculated to contain at least 10.0% void space
# The void calculation uses a probe of radius 1.32A, grid spacing 0.4
#
###############################################################################

data_UZUNEJ
_chemical_formula_moiety         '(C88 H88 Cu8 N16 O32)n'
_symmetry_cell_setting           triclinic
_symmetry_space_group_name_H-M   'P 1'
_symmetry_Int_Tables_number      1
_space_group_name_Hall           'P 1'
loop_
_symmetry_equiv_pos_site_id
_symmetry_equiv_pos_as_xyz
1 x,y,z
_cell_length_a                   27.733(2)
_cell_length_b                   13.1588(9)
_cell_length_c                   8.6333(7)
_cell_angle_alpha                90
_cell_angle_beta                 95.217(6)
_cell_angle_gamma                90
_cell_volume                     3137.52
loop_
_atom_site_label
_atom_site_type_symbol
_atom_site_fract_x
_atom_site_fract_y
_atom_site_fract_z
C12 C 0.3845(3) 0.6819(5) 0.3045(9)
H12 H 0.3865 0.7511 0.3262
C13 C 0.4185(2) 0.6396(5) 0.2185(8)
H13 H 0.4424 0.6799 0.1807
C14 C 0.4168(2) 0.5349(5) 0.1881(8)
C15 C 0.3802(2) 0.4815(5) 0.2444(8)
H14 H 0.3777 0.4120 0.2260
C16 C 0.3465(2) 0.5289(5) 0.3285(8)
H15 H 0.3218 0.4907 0.3653
C17 C 0.4524(2) 0.4847(6) 0.1014(8)
H16 H 0.4511 0.4144 0.0914
N3 N 0.34890(18) 0.6295(4) 0.3582(6)
N4 N 0.48500(19) 0.5321(5) 0.0391(7)
O6 O 0.31532(18) 0.7206(3) 0.6787(5)
O8 O 0.31231(16) 0.8425(3) 0.4263(5)
O11 O 0.25222(17) 0.7055(3) 0.2552(5)
O14 O 0.25408(16) 0.5792(3) 0.5134(5)
Cu2 Cu 0.28937(2) 0.70425(5) 0.46145(8)
C1 C 0.6155(3) 0.3181(5) 0.6955(9)
H1 H 0.6135 0.2489 0.6738
C2 C 0.5815(2) 0.3604(5) 0.7815(8)
H2 H 0.5576 0.3201 0.8193
C3 C 0.5832(2) 0.4651(5) 0.8119(8)
C4 C 0.6198(2) 0.5185(5) 0.7556(8)
H3 H 0.6223 0.5880 0.7740
C5 C 0.6535(2) 0.4711(5) 0.6715(8)
H4 H 0.6782 0.5093 0.6347
C6 C 0.5476(2) 0.5153(6) 0.8986(8)
H5 H 0.5489 0.5856 0.9086
C7 C 0.7096(2) 0.2347(4) 0.2243(7)
C8 C 0.6851(2) 0.2113(4) 0.0639(7)
H6 H 0.6507 0.2078 0.0696
C10 C 0.6915(3) 0.0223(4) 0.1028(8)
H10 H 0.7037 0.0383 0.2076
H11 H 0.6570 0.0151 0.1005
N1 N 0.65110(18) 0.3705(4) 0.6418(6)
N2 N 0.51500(19) 0.4679(5) 0.9609(7)
O1 O 0.68468(18) 0.2794(3) 0.3213(5)
O3 O 0.75222(17) 0.2055(3) 0.2552(5)
Cu1 Cu 0.71063(2) 0.29575(5) 0.53855(8)
C22 C 0.7130(2) 0.0802(4) 0.5568(6)
O7 O 0.68769(16) 0.1575(3) 0.5737(5)
O10 O 0.74778(17) 0.2945(3) 0.7448(5)
O12 O 0.75408(16) 0.0792(3) 0.5134(5)
O13 O 0.74592(16) 0.4208(3) 0.4866(5)
Cu4 Cu 0.78937(2) 0.20425(5) 0.46145(8)
H7 H 0.6915 0.2657 0.9945
C9 C 0.7026(3) 0.1100(5) 0.9982(7)
H8 H 0.6871 0.0986 0.8956
H9 H 0.7369 0.1133 0.9912
Cu6 Cu 0.71063(2) 0.70425(5) 0.03855(8)
C11 C 0.7130(2) 0.9198(4) 0.0568(6)
O2 O 0.68769(16) 0.8425(3) 0.0737(5)
O4 O 0.75408(16) 0.9208(3) 0.0134(5)
C18 C 0.7096(2) 0.7653(4) 0.7243(7)
C19 C 0.6851(2) 0.7887(4) 0.5639(7)
H17 H 0.6507 0.7922 0.5696
H18 H 0.6915 0.7343 0.4945
C20 C 0.7026(3) 0.8900(5) 0.4982(7)
H19 H 0.6871 0.9014 0.3956
H20 H 0.7369 0.8867 0.4912
C21 C 0.6915(3) 0.9777(4) 0.6028(8)
H21 H 0.7037 0.9617 0.7076
H22 H 0.6570 0.9849 0.6005
O5 O 0.68468(18) 0.7206(3) 0.8213(5)
O9 O 0.75222(17) 0.7945(3) 0.7552(5)
Cu7 Cu 0.78937(2) 0.79575(5) 0.96145(8)
C7_2 C 0.2904(2) 0.2347(4) 0.2757(7)
C8_2 C 0.3149(2) 0.2113(4) 0.4361(7)
H6_2 H 0.3493 0.2078 0.4304
H7_2 H 0.3085 0.2657 0.5055
C9_2 C 0.2974(3) 0.1100(5) 0.5018(7)
H8_2 H 0.3129 0.0986 0.6044
H9_2 H 0.2631 0.1133 0.5088
C10_2 C 0.3085(3) 0.0223(4) 0.3972(8)
H10_2 H 0.2963 0.0383 0.2924
H11_2 H 0.3430 0.0151 0.3995
O1_2 O 0.31532(18) 0.2794(3) 0.1787(5)
O3_2 O 0.24778(17) 0.2055(3) 0.2448(5)
O13_2 O 0.25408(16) 0.4208(3) 0.0134(5)
Cu4_2 Cu 0.21063(2) 0.20425(5) 0.03855(8)
C1_2 C 0.3845(3) 0.3181(5) 0.8045(9)
H1_2 H 0.3865 0.2489 0.8262
C2_2 C 0.4185(2) 0.3604(5) 0.7185(8)
H2_2 H 0.4424 0.3201 0.6807
C3_2 C 0.4168(2) 0.4651(5) 0.6881(8)
C4_2 C 0.3802(2) 0.5185(5) 0.7444(8)
H3_2 H 0.3777 0.5880 0.7260
C5_2 C 0.3465(2) 0.4711(5) 0.8285(8)
H4_2 H 0.3218 0.5093 0.8653
C6_2 C 0.4524(2) 0.5153(6) 0.6014(8)
H5_2 H 0.4511 0.5856 0.5914
N1_2 N 0.34890(18) 0.3705(4) 0.8582(6)
N2_2 N 0.48500(19) 0.4679(5) 0.5391(7)
Cu1_2 Cu 0.28937(2) 0.29575(5) 0.96145(8)
C12_2 C 0.6155(3) 0.6819(5) 0.1955(9)
H12_2 H 0.6135 0.7511 0.1738
C13_2 C 0.5815(2) 0.6396(5) 0.2815(8)
H13_2 H 0.5576 0.6799 0.3193
C14_2 C 0.5832(2) 0.5349(5) 0.3119(8)
C15_2 C 0.6198(2) 0.4815(5) 0.2556(8)
H14_2 H 0.6223 0.4120 0.2740
C16_2 C 0.6535(2) 0.5289(5) 0.1715(8)
H15_2 H 0.6782 0.4907 0.1347
C17_2 C 0.5476(2) 0.4847(6) 0.3986(8)
H16_2 H 0.5489 0.4144 0.4086
C22_2 C 0.2870(2) 0.0802(4) 0.9432(6)
N3_2 N 0.65110(18) 0.6295(4) 0.1418(6)
N4_2 N 0.51500(19) 0.5321(5) 0.4609(7)
O7_2 O 0.31231(16) 0.1575(3) 0.9263(5)
O10_2 O 0.25222(17) 0.2945(3) 0.7552(5)
O11_2 O 0.74778(17) 0.7055(3) 0.2448(5)
O12_2 O 0.24592(16) 0.0792(3) 0.9866(5)
O14_2 O 0.74592(16) 0.5792(3) 0.9866(5)
C11_2 C 0.2870(2) 0.9198(4) 0.4432(6)
O4_2 O 0.24592(16) 0.9208(3) 0.4866(5)
H18_2 H 0.3085 0.7343 0.0055
C20_2 C 0.2974(3) 0.8900(5) 0.0018(7)
H19_2 H 0.3129 0.9014 0.1044
H20_2 H 0.2631 0.8867 0.0088
Cu5 Cu 0.21063(2) 0.79575(5) 0.53855(8)
C18_2 C 0.2904(2) 0.7653(4) 0.7757(7)
C19_2 C 0.3149(2) 0.7887(4) 0.9361(7)
H17_2 H 0.3493 0.7922 0.9304
C21_2 C 0.3085(3) 0.9777(4) 0.8972(8)
H21_2 H 0.2963 0.9617 0.7924
H22_2 H 0.3430 0.9849 0.8995
O9_2 O 0.24778(17) 0.7945(3) 0.7448(5)
C1_3 C 0.1155(3) 0.8181(5) 0.6955(9)
H1_3 H 0.1135 0.7489 0.6738
C2_3 C 0.0815(2) 0.8604(5) 0.7815(8)
H2_3 H 0.0576 0.8201 0.8193
C3_3 C 0.0832(2) 0.9651(5) 0.8119(8)
C5_3 C 0.1535(2) 0.9711(5) 0.6715(8)
C7_3 C 0.2096(2) 0.7347(4) 0.2243(7)
C8_3 C 0.1851(2) 0.7113(4) 0.0639(7)
H6_3 H 0.1507 0.7078 0.0696
C10_3 C 0.1915(3) 0.5223(4) 0.1028(8)
H10_3 H 0.2037 0.5383 0.2076
H11_3 H 0.1570 0.5151 0.1005
C11_3 C 0.2130(2) 0.4198(4) 0.0568(6)
N1_3 N 0.15110(18) 0.8705(4) 0.6418(6)
N2_3 N 0.01500(19) 0.9679(5) 0.9609(7)
O1_3 O 0.18468(18) 0.7794(3) 0.3213(5)
O2_2 O 0.18769(16) 0.3425(3) 0.0737(5)
C18_3 C 0.2096(2) 0.2653(4) 0.7243(7)
C19_3 C 0.1851(2) 0.2887(4) 0.5639(7)
H17_3 H 0.1507 0.2922 0.5696
H18_3 H 0.1915 0.2343 0.4945
C20_3 C 0.2026(3) 0.3900(5) 0.4982(7)
H19_3 H 0.1871 0.4014 0.3956
H20_3 H 0.2369 0.3867 0.4912
C21_3 C 0.1915(3) 0.4777(4) 0.6028(8)
H21_3 H 0.2037 0.4617 0.7076
H22_3 H 0.1570 0.4849 0.6005
C22_3 C 0.2130(2) 0.5802(4) 0.5568(6)
O5_2 O 0.18468(18) 0.2206(3) 0.8213(5)
O7_3 O 0.18769(16) 0.6575(3) 0.5737(5)
H7_3 H 0.1915 0.7657 0.9945
C9_3 C 0.2026(3) 0.6100(5) 0.9982(7)
H8_3 H 0.1871 0.5986 0.8956
H9_3 H 0.2369 0.6133 0.9912
C12_3 C 0.8845(3) 0.1819(5) 0.3045(9)
H12_3 H 0.8865 0.2511 0.3262
C13_3 C 0.9185(2) 0.1396(5) 0.2185(8)
H13_3 H 0.9424 0.1799 0.1807
C14_3 C 0.9168(2) 0.0349(5) 0.1881(8)
C16_3 C 0.8465(2) 0.0289(5) 0.3285(8)
N3_3 N 0.84890(18) 0.1295(4) 0.3582(6)
N4_3 N 0.98500(19) 0.0321(5) 0.0391(7)
O6_2 O 0.81532(18) 0.2206(3) 0.6787(5)
O8_2 O 0.81231(16) 0.3425(3) 0.4263(5)
C12_4 C 0.1155(3) 0.1819(5) 0.1955(9)
H12_4 H 0.1135 0.2511 0.1738
C13_4 C 0.0815(2) 0.1396(5) 0.2815(8)
H13_4 H 0.0576 0.1799 0.3193
C14_4 C 0.0832(2) 0.0349(5) 0.3119(8)
C16_4 C 0.1535(2) 0.0289(5) 0.1715(8)
N3_4 N 0.15110(18) 0.1295(4) 0.1418(6)
N4_4 N 0.01500(19) 0.0321(5) 0.4609(7)
C7_4 C 0.7904(2) 0.7347(4) 0.2757(7)
C8_4 C 0.8149(2) 0.7113(4) 0.4361(7)
H6_4 H 0.8493 0.7078 0.4304
H7_4 H 0.8085 0.7657 0.5055
C9_4 C 0.7974(3) 0.6100(5) 0.5018(7)
H8_4 H 0.8129 0.5986 0.6044
H9_4 H 0.7631 0.6133 0.5088
C10_4 C 0.8085(3) 0.5223(4) 0.3972(8)
H10_4 H 0.7963 0.5383 0.2924
H11_4 H 0.8430 0.5151 0.3995
C11_4 C 0.7870(2) 0.4198(4) 0.4432(6)
O1_4 O 0.81532(18) 0.7794(3) 0.1787(5)
H18_4 H 0.8085 0.2343 0.0055
C20_4 C 0.7974(3) 0.3900(5) 0.0018(7)
H19_4 H 0.8129 0.4014 0.1044
H20_4 H 0.7631 0.3867 0.0088
C1_4 C 0.8845(3) 0.8181(5) 0.8045(9)
H1_4 H 0.8865 0.7489 0.8262
C2_4 C 0.9185(2) 0.8604(5) 0.7185(8)
H2_4 H 0.9424 0.8201 0.6807
C3_4 C 0.9168(2) 0.9651(5) 0.6881(8)
C5_4 C 0.8465(2) 0.9711(5) 0.8285(8)
N1_4 N 0.84890(18) 0.8705(4) 0.8582(6)
N2_4 N 0.98500(19) 0.9679(5) 0.5391(7)
C18_4 C 0.7904(2) 0.2653(4) 0.7757(7)
C19_4 C 0.8149(2) 0.2887(4) 0.9361(7)
H17_4 H 0.8493 0.2922 0.9304
C21_4 C 0.8085(3) 0.4777(4) 0.8972(8)
H21_4 H 0.7963 0.4617 0.7924
H22_4 H 0.8430 0.4849 0.8995
C22_4 C 0.7870(2) 0.5802(4) 0.9432(6)
O7_4 O 0.81231(16) 0.6575(3) 0.9263(5)
C4_3 C 0.1198(2) 0.0185(5) 0.7556(8)
H3_3 H 0.1223 0.0880 0.7740
H4_3 H 0.1782 0.0093 0.6347
C6_3 C 0.0476(2) 0.0153(6) 0.8986(8)
H5_3 H 0.0489 0.0856 0.9086
C15_3 C 0.8802(2) 0.9815(5) 0.2444(8)
H14_3 H 0.8777 0.9120 0.2260
H15_3 H 0.8218 0.9907 0.3653
C17_3 C 0.9524(2) 0.9847(6) 0.1014(8)
H16_3 H 0.9511 0.9144 0.0914
C15_4 C 0.1198(2) 0.9815(5) 0.2556(8)
H14_4 H 0.1223 0.9120 0.2740
H15_4 H 0.1782 0.9907 0.1347
C17_4 C 0.0476(2) 0.9847(6) 0.3986(8)
H16_4 H 0.0489 0.9144 0.4086
C4_4 C 0.8802(2) 0.0185(5) 0.7444(8)
H3_4 H 0.8777 0.0880 0.7260
H4_4 H 0.8218 0.0093 0.8653
C6_4 C 0.9524(2) 0.0153(6) 0.6014(8)
H5_4 H 0.9511 0.0856 0.5914
loop_
_geom_bond_atom_site_label_1
_geom_bond_atom_site_label_2
_geom_bond_site_symmetry_1
_geom_bond_site_symmetry_2
C12 H12 1_555 1_555
C13 C12 1_555 1_555
H13 C13 1_555 1_555
C14 C13 1_555 1_555
C15 C14 1_555 1_555
H14 C15 1_555 1_555
C16 C15 1_555 1_555
H15 C16 1_555 1_555
C17 C14 1_555 1_555
H16 C17 1_555 1_555
N3 C12 1_555 1_555
O6 Cu2 1_555 1_555
O8 Cu2 1_555 1_555
O11 Cu2 1_555 1_555
O14 Cu2 1_555 1_555
Cu2 N3 1_555 1_555
C16 N3 1_555 1_555
C17 N4 1_555 1_555
C1 H1 1_555 1_555
C2 C1 1_555 1_555
H2 C2 1_555 1_555
C3 C2 1_555 1_555
C4 C3 1_555 1_555
H3 C4 1_555 1_555
C5 C4 1_555 1_555
H4 C5 1_555 1_555
C6 C3 1_555 1_555
H5 C6 1_555 1_555
C7 C8 1_555 1_555
C8 H6 1_555 1_555
H10 C10 1_555 1_555
H11 C10 1_555 1_555
N1 C1 1_555 1_555
N2 C6 1_555 1_555
O1 C7 1_555 1_555
O3 C7 1_555 1_555
Cu1 N1 1_555 1_555
O7 Cu1 1_555 1_555
O10 Cu1 1_555 1_555
O12 C22 1_555 1_555
O13 Cu1 1_555 1_555
Cu4 O3 1_555 1_555
C5 N1 1_555 1_555
O1 Cu1 1_555 1_555
C22 O7 1_555 1_555
O12 Cu4 1_555 1_555
H8 C9 1_555 1_555
H9 C9 1_555 1_555
O2 C11 1_555 1_555
O4 C11 1_555 1_555
C18 C19 1_555 1_555
C19 H17 1_555 1_555
H18 C19 1_555 1_555
C20 C19 1_555 1_555
H19 C20 1_555 1_555
H20 C20 1_555 1_555
C21 C20 1_555 1_555
H21 C21 1_555 1_555
H22 C21 1_555 1_555
O5 C18 1_555 1_555
O9 C18 1_555 1_555
Cu6 O2 1_555 1_555
Cu7 O9 1_555 1_555
C7_2 C8_2 1_555 1_555
C8_2 H6_2 1_555 1_555
H7_2 C8_2 1_555 1_555
C9_2 C8_2 1_555 1_555
H8_2 C9_2 1_555 1_555
H9_2 C9_2 1_555 1_555
C10_2 C9_2 1_555 1_555
H10_2 C10_2 1_555 1_555
H11_2 C10_2 1_555 1_555
O1_2 C7_2 1_555 1_555
O3_2 C7_2 1_555 1_555
Cu4_2 O3_2 1_555 1_555
C1_2 H1_2 1_555 1_555
C2_2 C1_2 1_555 1_555
H2_2 C2_2 1_555 1_555
C3_2 C2_2 1_555 1_555
C4_2 C3_2 1_555 1_555
H3_2 C4_2 1_555 1_555
C5_2 C4_2 1_555 1_555
H4_2 C5_2 1_555 1_555
C6_2 C3_2 1_555 1_555
H5_2 C6_2 1_555 1_555
N1_2 C1_2 1_555 1_555
N2_2 C6_2 1_555 1_555
Cu1_2 N1_2 1_555 1_555
C12_2 H12_2 1_555 1_555
C13_2 C12_2 1_555 1_555
H13_2 C13_2 1_555 1_555
C14_2 C13_2 1_555 1_555
C15_2 C14_2 1_555 1_555
H14_2 C15_2 1_555 1_555
C16_2 C15_2 1_555 1_555
H15_2 C16_2 1_555 1_555
C17_2 C14_2 1_555 1_555
H16_2 C17_2 1_555 1_555
N3_2 C12_2 1_555 1_555
N4_2 N2_2 1_555 1_555
O7_2 Cu1_2 1_555 1_555
O10_2 Cu1_2 1_555 1_555
O11_2 Cu6 1_555 1_555
O12_2 C22_2 1_555 1_555
Cu6 N3_2 1_555 1_555
C5_2 N1_2 1_555 1_555
C16_2 N3_2 1_555 1_555
C17_2 N4_2 1_555 1_555
C22_2 O7_2 1_555 1_555
O8 C11_2 1_555 1_555
O4_2 C11_2 1_555 1_555
H19_2 C20_2 1_555 1_555
H20_2 C20_2 1_555 1_555
Cu5 O4_2 1_555 1_555
C18_2 C19_2 1_555 1_555
C19_2 H17_2 1_555 1_555
H21_2 C21_2 1_555 1_555
H22_2 C21_2 1_555 1_555
O6 C18_2 1_555 1_555
O9_2 C18_2 1_555 1_555
Cu5 O9_2 1_555 1_555
C1_3 H1_3 1_555 1_555
C2_3 C1_3 1_555 1_555
H2_3 C2_3 1_555 1_555
C3_3 C2_3 1_555 1_555
C7_3 C8_3 1_555 1_555
C8_3 H6_3 1_555 1_555
H10_3 C10_3 1_555 1_555
H11_3 C10_3 1_555 1_555
C11_3 C10_3 1_555 1_555
N1_3 C1_3 1_555 1_555
O1_3 C7_3 1_555 1_555
O2_2 C11_3 1_555 1_555
O11 C7_3 1_555 1_555
O13_2 C11_3 1_555 1_555
Cu5 N1_3 1_555 1_555
C18_3 C19_3 1_555 1_555
C19_3 H17_3 1_555 1_555
H18_3 C19_3 1_555 1_555
C20_3 C19_3 1_555 1_555
H19_3 C20_3 1_555 1_555
H20_3 C20_3 1_555 1_555
C21_3 C20_3 1_555 1_555
H21_3 C21_3 1_555 1_555
H22_3 C21_3 1_555 1_555
C22_3 C21_3 1_555 1_555
O5_2 C18_3 1_555 1_555
O7_3 Cu5 1_555 1_555
O10_2 C18_3 1_555 1_555
O14 C22_3 1_555 1_555
Cu4_2 O2_2 1_555 1_555
C5_3 N1_3 1_555 1_555
O1_3 Cu5 1_555 1_555
C22_3 O7_3 1_555 1_555
H8_3 C9_3 1_555 1_555
H9_3 C9_3 1_555 1_555
C12_3 H12_3 1_555 1_555
C13_3 C12_3 1_555 1_555
H13_3 C13_3 1_555 1_555
C14_3 C13_3 1_555 1_555
N3_3 C12_3 1_555 1_555
O6_2 Cu4 1_555 1_555
O8_2 Cu4 1_555 1_555
Cu4 N3_3 1_555 1_555
C16_3 N3_3 1_555 1_555
C12_4 H12_4 1_555 1_555
C13_4 C12_4 1_555 1_555
H13_4 C13_4 1_555 1_555
C14_4 C13_4 1_555 1_555
N3_4 C12_4 1_555 1_555
Cu4_2 N3_4 1_555 1_555
C16_4 N3_4 1_555 1_555
C7_4 C8_4 1_555 1_555
C8_4 H6_4 1_555 1_555
H7_4 C8_4 1_555 1_555
C9_4 C8_4 1_555 1_555
H8_4 C9_4 1_555 1_555
H9_4 C9_4 1_555 1_555
C10_4 C9_4 1_555 1_555
H10_4 C10_4 1_555 1_555
H11_4 C10_4 1_555 1_555
C11_4 C10_4 1_555 1_555
O1_4 C7_4 1_555 1_555
O8_2 C11_4 1_555 1_555
O11_2 C7_4 1_555 1_555
O13 C11_4 1_555 1_555
H19_4 C20_4 1_555 1_555
H20_4 C20_4 1_555 1_555
C1_4 H1_4 1_555 1_555
C2_4 C1_4 1_555 1_555
H2_4 C2_4 1_555 1_555
C3_4 C2_4 1_555 1_555
N1_4 C1_4 1_555 1_555
Cu7 N1_4 1_555 1_555
C18_4 C19_4 1_555 1_555
C19_4 H17_4 1_555 1_555
H21_4 C21_4 1_555 1_555
H22_4 C21_4 1_555 1_555
C22_4 C21_4 1_555 1_555
O6_2 C18_4 1_555 1_555
O7_4 Cu7 1_555 1_555
O10 C18_4 1_555 1_555
O14_2 C22_4 1_555 1_555
C5_4 N1_4 1_555 1_555
C22_4 O7_4 1_555 1_555
H3_3 C4_3 1_555 1_555
H5_3 C6_3 1_555 1_555
H14_3 C15_3 1_555 1_555
H16_3 C17_3 1_555 1_555
H14_4 C15_4 1_555 1_555
H16_4 C17_4 1_555 1_555
H3_4 C4_4 1_555 1_555
H5_4 C6_4 1_555 1_555

#END
