
###############################################################################
#
# This file contains modified crystal structure data generated from the
# MOF subset of the Cambridge Structural Database (CSD) v543 
# hosted by the Cambridge Crystallographic Data Centre (CCDC).
#
# This work is licensed under the Creative Commons
# Attribution-NonCommercial-ShareAlike 4.0 International License.
# To view a copy of this license, visit
# http://creativecommons.org/licenses/by-nc-sa/4.0/
# or send a letter to
# Creative Commons, PO Box 1866, Mountain View, CA 94042, USA.
#
# CIF created using the CSD Python API on 29 September 2022
# The structure has been converted into the P1 space group
# The structure has a 3D framework
# The original CSD entry UZUNAF is in the monoclinic crystal system
# The framework has been calculated to contain at least 10.0% void space
# The void calculation uses a probe of radius 1.32A, grid spacing 0.4
#
###############################################################################

data_UZUNAF
_chemical_formula_moiety         '(C88 H88 Cu8 N16 O32)n'
_symmetry_cell_setting           triclinic
_symmetry_space_group_name_H-M   'P 1'
_symmetry_Int_Tables_number      1
_space_group_name_Hall           'P 1'
loop_
_symmetry_equiv_pos_site_id
_symmetry_equiv_pos_as_xyz
1 x,y,z
_cell_length_a                   27.6739(15)
_cell_length_b                   13.1598(6)
_cell_length_c                   8.6462(4)
_cell_angle_alpha                90
_cell_angle_beta                 95.435(3)
_cell_angle_gamma                90
_cell_volume                     3134.64
loop_
_atom_site_label
_atom_site_type_symbol
_atom_site_fract_x
_atom_site_fract_y
_atom_site_fract_z
C19 C 0.1921(3) 0.0208(5) 0.1009(8)
H17 H 0.2045 0.0365 0.2069
H18 H 0.1572 0.0135 0.0992
C21 C 0.1856(3) 0.2118(5) 0.0642(7)
H22 H 0.1507 0.2089 0.0683
C22 C 0.2097(3) 0.2349(5) 0.2260(8)
O8 O 0.25218(19) 0.2060(4) 0.2553(5)
O12 O 0.18417(19) 0.2784(4) 0.3195(5)
Cu6 Cu 0.28949(3) 0.20441(6) 0.46189(9)
Cu7 Cu 0.21051(3) 0.29559(6) 0.53811(9)
C20 C 0.2027(3) 0.1119(5) 0.9975(7)
H19 H 0.2374 0.1156 0.9884
H20 H 0.1865 0.1018 0.8942
H21 H 0.1924 0.2669 0.9950
C1 C 0.1157(3) 0.6809(6) 0.1964(9)
H1 H 0.1140 0.7504 0.1766
C2 C 0.0817(3) 0.6394(6) 0.2807(8)
H2 H 0.0576 0.6796 0.3171
C3 C 0.0836(3) 0.5372(6) 0.3110(8)
C4 C 0.1203(3) 0.4828(6) 0.2534(9)
H3 H 0.1228 0.4133 0.2715
C5 C 0.1528(3) 0.5302(6) 0.1699(8)
H4 H 0.1773 0.4918 0.1318
C6 C 0.0478(3) 0.4825(7) 0.3970(8)
H5 H 0.0487 0.4120 0.4039
C7 C 0.2871(3) 0.4197(5) 0.4422(7)
C8 C 0.3079(3) 0.5208(5) 0.3991(8)
H6 H 0.2955 0.5365 0.2931
H7 H 0.3428 0.5135 0.4008
C9 C 0.2973(3) 0.6119(5) 0.5025(7)
H8 H 0.2626 0.6156 0.5116
H9 H 0.3135 0.6018 0.6058
C10 C 0.3144(3) 0.7118(5) 0.4358(7)
H10 H 0.3076 0.7669 0.5050
H11 H 0.3493 0.7089 0.4317
C11 C 0.2903(3) 0.7349(5) 0.2740(8)
N1 N 0.1510(2) 0.6288(4) 0.1409(6)
N2 N 0.0152(2) 0.5327(5) 0.4621(7)
O1 O 0.2448(2) 0.4200(3) 0.4849(6)
O2 O 0.24782(19) 0.7060(4) 0.2447(5)
O3 O 0.31250(19) 0.3429(4) 0.4264(6)
O4 O 0.31583(19) 0.7784(4) 0.1805(5)
Cu1 Cu 0.21051(3) 0.70441(6) 0.03811(9)
C18 C 0.2129(3) 0.9197(5) 0.0578(7)
O5 O 0.2552(2) 0.9200(3) 0.0151(6)
O10 O 0.18750(19) 0.8429(4) 0.0736(6)
O6 O 0.2448(2) 0.5800(3) 0.9849(6)
O13 O 0.18417(19) 0.7216(4) 0.8195(5)
Cu5 Cu 0.28949(3) 0.79559(6) 0.96189(9)
O7 O 0.7552(2) 0.4200(3) 0.0151(6)
O14 O 0.81583(19) 0.2784(4) 0.1805(5)
C12 C 0.8843(3) 0.3191(6) 0.8036(9)
H12 H 0.8860 0.2496 0.8234
C13 C 0.9183(3) 0.3606(6) 0.7193(8)
H13 H 0.9424 0.3204 0.6829
C14 C 0.9164(3) 0.4628(6) 0.6890(8)
C15 C 0.8797(3) 0.5172(6) 0.7466(9)
H14 H 0.8772 0.5867 0.7285
C16 C 0.8472(3) 0.4698(6) 0.8301(8)
H15 H 0.8227 0.5082 0.8682
C17 C 0.9522(3) 0.5175(7) 0.6030(8)
H16 H 0.9513 0.5880 0.5961
N3 N 0.8490(2) 0.3712(4) 0.8591(6)
N4 N 0.9848(2) 0.4673(5) 0.5379(7)
O9 O 0.75218(19) 0.2940(4) 0.7553(5)
O11 O 0.81250(19) 0.1571(4) 0.9264(6)
Cu2 Cu 0.78949(3) 0.29559(6) 0.96189(9)
C12_2 C 0.1157(3) 0.3191(6) 0.6964(9)
H12_2 H 0.1140 0.2496 0.6766
C13_2 C 0.0817(3) 0.3606(6) 0.7807(8)
H13_2 H 0.0576 0.3204 0.8171
C14_2 C 0.0836(3) 0.4628(6) 0.8110(8)
C15_2 C 0.1203(3) 0.5172(6) 0.7534(9)
H14_2 H 0.1228 0.5867 0.7715
C16_2 C 0.1528(3) 0.4698(6) 0.6699(8)
H15_2 H 0.1773 0.5082 0.6318
C17_2 C 0.0478(3) 0.5175(7) 0.8970(8)
H16_2 H 0.0487 0.5880 0.9039
N3_2 N 0.1510(2) 0.3712(4) 0.6409(6)
N4_2 N 0.0152(2) 0.4673(5) 0.9621(7)
O9_2 O 0.24782(19) 0.2940(4) 0.7447(5)
O11_2 O 0.18750(19) 0.1571(4) 0.5736(6)
C19_2 C 0.8079(3) 0.0208(5) 0.3991(8)
H17_2 H 0.7955 0.0365 0.2931
H18_2 H 0.8428 0.0135 0.4008
C20_2 C 0.7973(3) 0.1119(5) 0.5025(7)
H19_2 H 0.7626 0.1156 0.5116
H20_2 H 0.8135 0.1018 0.6058
C21_2 C 0.8144(3) 0.2118(5) 0.4358(7)
H21_2 H 0.8076 0.2669 0.5050
H22_2 H 0.8493 0.2089 0.4317
C22_2 C 0.7903(3) 0.2349(5) 0.2740(8)
O8_2 O 0.74782(19) 0.2060(4) 0.2447(5)
Cu6_2 Cu 0.71051(3) 0.20441(6) 0.03811(9)
C1_2 C 0.8843(3) 0.6809(6) 0.3036(9)
H1_2 H 0.8860 0.7504 0.3234
C2_2 C 0.9183(3) 0.6394(6) 0.2193(8)
H2_2 H 0.9424 0.6796 0.1829
C3_2 C 0.9164(3) 0.5372(6) 0.1890(8)
C4_2 C 0.8797(3) 0.4828(6) 0.2466(9)
H3_2 H 0.8772 0.4133 0.2285
C5_2 C 0.8472(3) 0.5302(6) 0.3301(8)
H4_2 H 0.8227 0.4918 0.3682
C6_2 C 0.9522(3) 0.4825(7) 0.1030(8)
H5_2 H 0.9513 0.4120 0.0961
C7_2 C 0.7129(3) 0.4197(5) 0.0578(7)
C8_2 C 0.6921(3) 0.5208(5) 0.1009(8)
H6_2 H 0.7045 0.5365 0.2069
H7_2 H 0.6572 0.5135 0.0992
C10_2 C 0.6856(3) 0.7118(5) 0.0642(7)
H11_2 H 0.6507 0.7089 0.0683
C11_2 C 0.7097(3) 0.7349(5) 0.2260(8)
N1_2 N 0.8490(2) 0.6288(4) 0.3591(6)
N2_2 N 0.9848(2) 0.5327(5) 0.0379(7)
O2_2 O 0.75218(19) 0.7060(4) 0.2553(5)
O3_2 O 0.68750(19) 0.3429(4) 0.0736(6)
O4_2 O 0.68417(19) 0.7784(4) 0.3195(5)
Cu1_2 Cu 0.78949(3) 0.70441(6) 0.46189(9)
C18_2 C 0.7871(3) 0.9197(5) 0.4422(7)
O5_2 O 0.7448(2) 0.9200(3) 0.4849(6)
O6_2 O 0.7552(2) 0.5800(3) 0.5151(6)
O10_2 O 0.81250(19) 0.8429(4) 0.4264(6)
O13_2 O 0.81583(19) 0.7216(4) 0.6805(5)
Cu5_2 Cu 0.71051(3) 0.79559(6) 0.53811(9)
C9_2 C 0.7027(3) 0.6119(5) 0.9975(7)
H8_2 H 0.7374 0.6156 0.9884
H9_2 H 0.6865 0.6018 0.8942
H10_2 H 0.6924 0.7669 0.9950
C1_3 C 0.6157(3) 0.1809(6) 0.1964(9)
H1_3 H 0.6140 0.2504 0.1766
C2_3 C 0.5817(3) 0.1394(6) 0.2807(8)
H2_3 H 0.5576 0.1796 0.3171
C3_3 C 0.5836(3) 0.0372(6) 0.3110(8)
C5_3 C 0.6528(3) 0.0302(6) 0.1699(8)
N1_3 N 0.6510(2) 0.1288(4) 0.1409(6)
N2_3 N 0.5152(2) 0.0327(5) 0.4621(7)
C15_3 C 0.3797(3) 0.0172(6) 0.7466(9)
H14_3 H 0.3772 0.0867 0.7285
H15_3 H 0.3227 0.0082 0.8682
C17_3 C 0.4522(3) 0.0175(7) 0.6030(8)
H16_3 H 0.4513 0.0880 0.5961
O6_3 O 0.7448(2) 0.0800(3) 0.9849(6)
O13_3 O 0.68417(19) 0.2216(4) 0.8195(5)
C4_3 C 0.6203(3) 0.9828(6) 0.2534(9)
H3_3 H 0.6228 0.9133 0.2715
H4_3 H 0.6773 0.9918 0.1318
C6_3 C 0.5478(3) 0.9825(7) 0.3970(8)
H5_3 H 0.5487 0.9120 0.4039
C12_3 C 0.3843(3) 0.8191(6) 0.8036(9)
H12_3 H 0.3860 0.7496 0.8234
C13_3 C 0.4183(3) 0.8606(6) 0.7193(8)
H13_3 H 0.4424 0.8204 0.6829
C14_3 C 0.4164(3) 0.9628(6) 0.6890(8)
C16_3 C 0.3472(3) 0.9698(6) 0.8301(8)
N3_3 N 0.3490(2) 0.8712(4) 0.8591(6)
N4_3 N 0.4848(2) 0.9673(5) 0.5379(7)
O9_3 O 0.25218(19) 0.7940(4) 0.7553(5)
O11_3 O 0.31250(19) 0.6571(4) 0.9264(6)
C1_4 C 0.3843(3) 0.1809(6) 0.3036(9)
H1_4 H 0.3860 0.2504 0.3234
C2_4 C 0.4183(3) 0.1394(6) 0.2193(8)
H2_4 H 0.4424 0.1796 0.1829
C3_4 C 0.4164(3) 0.0372(6) 0.1890(8)
C5_4 C 0.3472(3) 0.0302(6) 0.3301(8)
N1_4 N 0.3490(2) 0.1288(4) 0.3591(6)
N2_4 N 0.4848(2) 0.0327(5) 0.0379(7)
O6_4 O 0.2552(2) 0.0800(3) 0.5151(6)
O13_4 O 0.31583(19) 0.2216(4) 0.6805(5)
C15_4 C 0.6203(3) 0.0172(6) 0.7534(9)
H14_4 H 0.6228 0.0867 0.7715
H15_4 H 0.6773 0.0082 0.6318
C17_4 C 0.5478(3) 0.0175(7) 0.8970(8)
H16_4 H 0.5487 0.0880 0.9039
C4_4 C 0.3797(3) 0.9828(6) 0.2466(9)
H3_4 H 0.3772 0.9133 0.2285
H4_4 H 0.3227 0.9918 0.3682
C6_4 C 0.4522(3) 0.9825(7) 0.1030(8)
H5_4 H 0.4513 0.9120 0.0961
C12_4 C 0.6157(3) 0.8191(6) 0.6964(9)
H12_4 H 0.6140 0.7496 0.6766
C13_4 C 0.5817(3) 0.8606(6) 0.7807(8)
H13_4 H 0.5576 0.8204 0.8171
C14_4 C 0.5836(3) 0.9628(6) 0.8110(8)
C16_4 C 0.6528(3) 0.9698(6) 0.6699(8)
N3_4 N 0.6510(2) 0.8712(4) 0.6409(6)
N4_4 N 0.5152(2) 0.9673(5) 0.9621(7)
O9_4 O 0.74782(19) 0.7940(4) 0.7447(5)
O11_4 O 0.68750(19) 0.6571(4) 0.5736(6)
C7_3 C 0.7129(3) 0.5803(5) 0.5578(7)
C8_3 C 0.6921(3) 0.4792(5) 0.6009(8)
H6_3 H 0.7045 0.4635 0.7069
H7_3 H 0.6572 0.4865 0.5992
C9_3 C 0.7027(3) 0.3881(5) 0.4975(7)
H8_3 H 0.7374 0.3844 0.4884
H9_3 H 0.6865 0.3982 0.3942
C10_3 C 0.6856(3) 0.2882(5) 0.5642(7)
H10_3 H 0.6924 0.2331 0.4950
H11_3 H 0.6507 0.2911 0.5683
C11_3 C 0.7097(3) 0.2651(5) 0.7260(8)
C18_3 C 0.7871(3) 0.0803(5) 0.9422(7)
C20_3 C 0.7973(3) 0.8881(5) 0.0025(7)
H19_3 H 0.7626 0.8844 0.0116
H20_3 H 0.8135 0.8982 0.1058
H21_3 H 0.8076 0.7331 0.0050
C19_3 C 0.8079(3) 0.9792(5) 0.8991(8)
H17_3 H 0.7955 0.9635 0.7931
H18_3 H 0.8428 0.9865 0.9008
C21_3 C 0.8144(3) 0.7882(5) 0.9358(7)
H22_3 H 0.8493 0.7911 0.9317
C22_3 C 0.7903(3) 0.7651(5) 0.7740(8)
C9_4 C 0.2973(3) 0.3881(5) 0.0025(7)
H8_4 H 0.2626 0.3844 0.0116
H9_4 H 0.3135 0.3982 0.1058
H10_4 H 0.3076 0.2331 0.0050
C7_4 C 0.2871(3) 0.5803(5) 0.9422(7)
C8_4 C 0.3079(3) 0.4792(5) 0.8991(8)
H6_4 H 0.2955 0.4635 0.7931
H7_4 H 0.3428 0.4865 0.9008
C10_4 C 0.3144(3) 0.2882(5) 0.9358(7)
H11_4 H 0.3493 0.2911 0.9317
C11_4 C 0.2903(3) 0.2651(5) 0.7740(8)
C18_4 C 0.2129(3) 0.0803(5) 0.5578(7)
C19_4 C 0.1921(3) 0.9792(5) 0.6009(8)
H17_4 H 0.2045 0.9635 0.7069
H18_4 H 0.1572 0.9865 0.5992
C20_4 C 0.2027(3) 0.8881(5) 0.4975(7)
H19_4 H 0.2374 0.8844 0.4884
H20_4 H 0.1865 0.8982 0.3942
C21_4 C 0.1856(3) 0.7882(5) 0.5642(7)
H21_4 H 0.1924 0.7331 0.4950
H22_4 H 0.1507 0.7911 0.5683
C22_4 C 0.2097(3) 0.7651(5) 0.7260(8)
loop_
_geom_bond_atom_site_label_1
_geom_bond_atom_site_label_2
_geom_bond_site_symmetry_1
_geom_bond_site_symmetry_2
C19 H17 1_555 1_555
H18 C19 1_555 1_555
H22 C21 1_555 1_555
C22 C21 1_555 1_555
O8 C22 1_555 1_555
O12 C22 1_555 1_555
Cu6 O8 1_555 1_555
Cu7 O12 1_555 1_555
H19 C20 1_555 1_555
H20 C20 1_555 1_555
C1 H1 1_555 1_555
C2 C1 1_555 1_555
H2 C2 1_555 1_555
C3 C2 1_555 1_555
C4 C3 1_555 1_555
H3 C4 1_555 1_555
C5 C4 1_555 1_555
H4 C5 1_555 1_555
C6 C3 1_555 1_555
H5 C6 1_555 1_555
C7 C8 1_555 1_555
C8 H6 1_555 1_555
H7 C8 1_555 1_555
C9 C8 1_555 1_555
H8 C9 1_555 1_555
H9 C9 1_555 1_555
C10 C9 1_555 1_555
H10 C10 1_555 1_555
H11 C10 1_555 1_555
C11 C10 1_555 1_555
N1 C1 1_555 1_555
N2 C6 1_555 1_555
O1 C7 1_555 1_555
O2 C11 1_555 1_555
O3 C7 1_555 1_555
O4 C11 1_555 1_555
Cu1 N1 1_555 1_555
O5 C18 1_555 1_555
O10 Cu1 1_555 1_555
Cu7 O1 1_555 1_555
Cu6 O3 1_555 1_555
C5 N1 1_555 1_555
O2 Cu1 1_555 1_555
C18 O10 1_555 1_555
C12 H12 1_555 1_555
C13 C12 1_555 1_555
H13 C13 1_555 1_555
C14 C13 1_555 1_555
C15 C14 1_555 1_555
H14 C15 1_555 1_555
C16 C15 1_555 1_555
H15 C16 1_555 1_555
C17 C14 1_555 1_555
H16 C17 1_555 1_555
N3 C12 1_555 1_555
O9 Cu2 1_555 1_555
O11 Cu2 1_555 1_555
Cu2 N3 1_555 1_555
C16 N3 1_555 1_555
C17 N4 1_555 1_555
C12_2 H12_2 1_555 1_555
C13_2 C12_2 1_555 1_555
H13_2 C13_2 1_555 1_555
C14_2 C13_2 1_555 1_555
C15_2 C14_2 1_555 1_555
H14_2 C15_2 1_555 1_555
C16_2 C15_2 1_555 1_555
H15_2 C16_2 1_555 1_555
C17_2 C14_2 1_555 1_555
H16_2 C17_2 1_555 1_555
N3_2 C12_2 1_555 1_555
O9_2 Cu7 1_555 1_555
O11_2 Cu7 1_555 1_555
Cu7 N3_2 1_555 1_555
C16_2 N3_2 1_555 1_555
C17_2 N4_2 1_555 1_555
C19_2 H17_2 1_555 1_555
H18_2 C19_2 1_555 1_555
C20_2 C19_2 1_555 1_555
H19_2 C20_2 1_555 1_555
H20_2 C20_2 1_555 1_555
C21_2 C20_2 1_555 1_555
H21_2 C21_2 1_555 1_555
H22_2 C21_2 1_555 1_555
C22_2 C21_2 1_555 1_555
O8_2 C22_2 1_555 1_555
O14 C22_2 1_555 1_555
Cu6_2 O8_2 1_555 1_555
C1_2 H1_2 1_555 1_555
C2_2 C1_2 1_555 1_555
H2_2 C2_2 1_555 1_555
C3_2 C2_2 1_555 1_555
C4_2 C3_2 1_555 1_555
H3_2 C4_2 1_555 1_555
C5_2 C4_2 1_555 1_555
H4_2 C5_2 1_555 1_555
C6_2 C3_2 1_555 1_555
H5_2 C6_2 1_555 1_555
C7_2 C8_2 1_555 1_555
C8_2 H6_2 1_555 1_555
H7_2 C8_2 1_555 1_555
H11_2 C10_2 1_555 1_555
C11_2 C10_2 1_555 1_555
N1_2 C1_2 1_555 1_555
N2_2 C6_2 1_555 1_555
O7 C7_2 1_555 1_555
O2_2 C11_2 1_555 1_555
O3_2 C7_2 1_555 1_555
O4_2 C11_2 1_555 1_555
Cu1_2 N1_2 1_555 1_555
O5_2 C18_2 1_555 1_555
O6_2 Cu1_2 1_555 1_555
O10_2 Cu1_2 1_555 1_555
O13_2 Cu1_2 1_555 1_555
Cu6_2 O3_2 1_555 1_555
Cu5_2 O4_2 1_555 1_555
C5_2 N1_2 1_555 1_555
O2_2 Cu1_2 1_555 1_555
C18_2 O10_2 1_555 1_555
O5_2 Cu5_2 1_555 1_555
H8_2 C9_2 1_555 1_555
H9_2 C9_2 1_555 1_555
C1_3 H1_3 1_555 1_555
C2_3 C1_3 1_555 1_555
H2_3 C2_3 1_555 1_555
C3_3 C2_3 1_555 1_555
N1_3 C1_3 1_555 1_555
Cu6_2 N1_3 1_555 1_555
H14_3 C15_3 1_555 1_555
H16_3 C17_3 1_555 1_555
C5_3 N1_3 1_555 1_555
H3_3 C4_3 1_555 1_555
H5_3 C6_3 1_555 1_555
C12_3 H12_3 1_555 1_555
C13_3 C12_3 1_555 1_555
H13_3 C13_3 1_555 1_555
C14_3 C13_3 1_555 1_555
N3_3 C12_3 1_555 1_555
O9_3 Cu5 1_555 1_555
O11_3 Cu5 1_555 1_555
Cu5 N3_3 1_555 1_555
C16_3 N3_3 1_555 1_555
C1_4 H1_4 1_555 1_555
C2_4 C1_4 1_555 1_555
H2_4 C2_4 1_555 1_555
C3_4 C2_4 1_555 1_555
N1_4 C1_4 1_555 1_555
Cu6 N1_4 1_555 1_555
O6_4 Cu6 1_555 1_555
O13_4 Cu6 1_555 1_555
C5_4 N1_4 1_555 1_555
H14_4 C15_4 1_555 1_555
H16_4 C17_4 1_555 1_555
H3_4 C4_4 1_555 1_555
H5_4 C6_4 1_555 1_555
C12_4 H12_4 1_555 1_555
C13_4 C12_4 1_555 1_555
H13_4 C13_4 1_555 1_555
C14_4 C13_4 1_555 1_555
N3_4 C12_4 1_555 1_555
O9_4 Cu5_2 1_555 1_555
O11_4 Cu5_2 1_555 1_555
Cu5_2 N3_4 1_555 1_555
C16_4 N3_4 1_555 1_555
C7_3 C8_3 1_555 1_555
C8_3 H6_3 1_555 1_555
H7_3 C8_3 1_555 1_555
C9_3 C8_3 1_555 1_555
H8_3 C9_3 1_555 1_555
H9_3 C9_3 1_555 1_555
C10_3 C9_3 1_555 1_555
H10_3 C10_3 1_555 1_555
H11_3 C10_3 1_555 1_555
C11_3 C10_3 1_555 1_555
O6_2 C7_3 1_555 1_555
O9 C11_3 1_555 1_555
O11_4 C7_3 1_555 1_555
O13_3 C11_3 1_555 1_555
O6_3 C18_3 1_555 1_555
C18_3 O11 1_555 1_555
H19_3 C20_3 1_555 1_555
H20_3 C20_3 1_555 1_555
C19_3 H17_3 1_555 1_555
H18_3 C19_3 1_555 1_555
H22_3 C21_3 1_555 1_555
C22_3 C21_3 1_555 1_555
O9_4 C22_3 1_555 1_555
O13_2 C22_3 1_555 1_555
H8_4 C9_4 1_555 1_555
H9_4 C9_4 1_555 1_555
C7_4 C8_4 1_555 1_555
C8_4 H6_4 1_555 1_555
H7_4 C8_4 1_555 1_555
H11_4 C10_4 1_555 1_555
C11_4 C10_4 1_555 1_555
O6 C7_4 1_555 1_555
O9_2 C11_4 1_555 1_555
O11_3 C7_4 1_555 1_555
O13_4 C11_4 1_555 1_555
O6_4 C18_4 1_555 1_555
C18_4 O11_2 1_555 1_555
C19_4 H17_4 1_555 1_555
H18_4 C19_4 1_555 1_555
C20_4 C19_4 1_555 1_555
H19_4 C20_4 1_555 1_555
H20_4 C20_4 1_555 1_555
C21_4 C20_4 1_555 1_555
H21_4 C21_4 1_555 1_555
H22_4 C21_4 1_555 1_555
C22_4 C21_4 1_555 1_555
O9_3 C22_4 1_555 1_555
O13 C22_4 1_555 1_555

#END
