
###############################################################################
#
# This file contains modified crystal structure data generated from the
# MOF subset of the Cambridge Structural Database (CSD) v543 
# hosted by the Cambridge Crystallographic Data Centre (CCDC).
#
# This work is licensed under the Creative Commons
# Attribution-NonCommercial-ShareAlike 4.0 International License.
# To view a copy of this license, visit
# http://creativecommons.org/licenses/by-nc-sa/4.0/
# or send a letter to
# Creative Commons, PO Box 1866, Mountain View, CA 94042, USA.
#
# CIF created using the CSD Python API on 29 September 2022
# The structure has been converted into the P1 space group
# The structure has a 3D framework
# The original CSD entry UZUSEO is in the triclinic crystal system
# The framework has been calculated to contain at least 10.0% void space
# The void calculation uses a probe of radius 1.32A, grid spacing 0.4
# The framework is charged, counterions have been retained in the structure
# H atom positions have been added when not included in the experimental data
#
###############################################################################

data_UZUSEO
_chemical_formula_moiety         '(C18 H34 O28 P6 U10 2+)n'
_symmetry_cell_setting           triclinic
_symmetry_space_group_name_H-M   'P 1'
_symmetry_Int_Tables_number      1
_space_group_name_Hall           'P 1'
loop_
_symmetry_equiv_pos_site_id
_symmetry_equiv_pos_as_xyz
1 x,y,z
_cell_length_a                   10.089(3)
_cell_length_b                   11.712(4)
_cell_length_c                   11.803(4)
_cell_angle_alpha                111.964(4)
_cell_angle_beta                 107.146(4)
_cell_angle_gamma                105.977(4)
_cell_volume                     1112.88
loop_
_atom_site_label
_atom_site_type_symbol
_atom_site_fract_x
_atom_site_fract_y
_atom_site_fract_z
O1 O 0.0000 0.0000 0.5000
H16 H 0.098424 8.32667e-17 0.5
H18 H 0.079874 0.0957227 0.547782
O1_2 O 0.0000 1.0000 0.5000
H16_2 H 0.098424 1 0.5
H17 H 0.0338564 0.951707 0.547782
O1_3 O 1.0000 0.0000 0.5000
H17_2 H 0.966144 0.0482934 0.452218
H16_3 H 0.901576 0 0.5
O1_4 O 1.0000 1.0000 0.5000
H18_2 H 0.920126 0.904277 0.452218
H16_4 H 0.901576 1 0.5
U1 U 0.0000 0.0000 0.0000
U2 U 0.0000 0.5000 0.5000
O14 O 0.1856(13) 0.0447(15) 0.1160(15)
O15 O 0.1356(14) 0.5648(13) 0.4501(13)
O25 O 0.1054(15) 0.7021(11) 0.6970(12)
O28 O 0.1556(12) 0.4221(14) 0.6025(12)
U1_2 U 0.0000 0.0000 1.0000
O18 O 0.0989(17) 0.1949(12) 0.9935(15)
U1_3 U 0.0000 1.0000 0.0000
O7 O 0.0039(17) 0.8328(14) 0.2475(14)
U9 U 0.5000 0.5000 0.0000
C11 C 0.0066(18) 0.4256(15) 0.0677(16)
H7 H 0.0087 0.3747 0.1121
U1_4 U 0.0000 1.0000 1.0000
U9_2 U 0.5000 0.5000 1.0000
P4 P 0.1107(5) 0.2656(4) 0.9092(5)
O19 O 0.2700(13) 0.3204(11) 0.9239(13)
O23 O 0.0500(12) 0.8935(12) 0.8216(12)
C10 C 0.0500(15) 0.3976(13) 0.9608(16)
C12 C 0.0392(18) 0.4707(15) 0.8939(18)
H8 H 0.0632 0.4500 0.8206
U1_5 U 1.0000 0.0000 0.0000
U2_2 U 1.0000 0.5000 0.5000
P2 P 0.8435(5) 0.1444(4) 0.2342(4)
P3 P 0.6971(5) 0.5922(5) 0.3570(4)
O3 O 0.8644(14) 0.4352(13) 0.5499(13)
O8 O 0.9500(12) 0.1065(12) 0.1784(12)
O9 O 0.8946(15) 0.2979(11) 0.3030(12)
O10 O 0.8334(17) 0.0871(16) 0.3326(13)
O11 O 0.8444(12) 0.5779(14) 0.3975(12)
O12 O 0.5981(14) 0.5086(12) 0.2033(11)
O13 O 0.7365(19) 0.7463(14) 0.4127(17)
C4 C 0.6497(16) 0.0638(14) 0.1008(15)
C5 C 0.5772(19) 0.1417(15) 0.0754(15)
H3 H 0.6276 0.2367 0.1264
C7 C 0.5856(16) 0.5391(15) 0.4373(15)
C8 C 0.6464(18) 0.6087(16) 0.5785(16)
H5 H 0.7431 0.6829 0.6306
C9 C 0.4367(17) 0.4323(15) 0.3587(15)
H6 H 0.3938 0.3890 0.2640
P6 P 0.3029(5) 0.4078(5) 0.6430(4)
O29 O 0.4019(14) 0.4914(12) 0.7967(11)
O32 O 0.2635(19) 0.2537(14) 0.5873(17)
C16 C 0.4144(16) 0.4609(15) 0.5627(15)
C17 C 0.3536(18) 0.3913(16) 0.4215(16)
H11 H 0.2569 0.3171 0.3694
C18 C 0.5633(17) 0.5677(15) 0.6413(15)
H12 H 0.6062 0.6110 0.7360
H19 H 0.799625 0.783891 0.37346
H20 H 0.204654 0.203708 0.486277
U1_6 U 1.0000 0.0000 1.0000
C15 C 0.4270(19) 0.0754(15) 0.9718(16)
H10 H 0.3782 0.1270 0.9519
H22 H 0.206819 0.0139431 0.718205
U1_7 U 1.0000 1.0000 0.0000
P1 P 0.8893(5) 0.7344(4) 0.0908(5)
O5 O 0.9011(17) 0.8051(12) 0.0065(15)
O6 O 0.7300(13) 0.6796(11) 0.0761(13)
C1 C 0.9500(15) 0.6024(13) 0.0392(16)
C3 C 0.9608(18) 0.5293(15) 0.1061(18)
H2 H 0.9368 0.5500 0.1794
C6 C 0.5730(19) 0.9246(15) 0.0282(16)
H4 H 0.6218 0.8730 0.0481
O16 O 0.4282(13) 0.6153(11) 0.0630(13)
H13 H 0.98028 0.912047 0.28373
H14 H 0.663762 0.400892 0.0129568
U1_8 U 1.0000 1.0000 1.0000
O2 O 0.8144(13) 0.9553(15) 0.8840(15)
O4 O 0.5718(13) 0.3847(11) 0.9370(13)
C2 C 0.9934(18) 0.5744(15) 0.9323(16)
H1 H 0.9913 0.6253 0.8879
P5 P 0.1565(5) 0.8556(4) 0.7658(4)
O21 O 0.9961(17) 0.1672(14) 0.7525(14)
O26 O 0.1666(17) 0.9129(16) 0.6674(13)
C13 C 0.3503(16) 0.9362(14) 0.8992(15)
C14 C 0.4228(19) 0.8583(15) 0.9246(15)
H9 H 0.3724 0.7633 0.8736
H15 H 0.491574 0.290008 0.894232
H21 H 0.888574 0.134137 0.740768
H15_2 H 0.508426 0.709992 0.105768
H21_2 H 0.111426 0.865863 0.259232
H13_2 H 0.0197204 0.0879529 0.71627
H14_2 H 0.336238 0.599108 0.987043
H22_2 H 0.793181 0.986057 0.281795
H19_2 H 0.200375 0.216109 0.62654
H20_2 H 0.795346 0.796292 0.513723
loop_
_geom_bond_atom_site_label_1
_geom_bond_atom_site_label_2
_geom_bond_site_symmetry_1
_geom_bond_site_symmetry_2
O1 H16 1_555 1_555
O1 H18 1_555 1_555
O1_2 H16_2 1_555 1_555
O1_2 H17 1_555 1_555
O1_3 H17_2 1_555 1_555
O1_3 H16_3 1_555 1_555
O1_4 H18_2 1_555 1_555
O1_4 H16_4 1_555 1_555
O14 U1 1_555 1_555
O15 U2 1_555 1_555
O25 U2 1_555 1_555
O28 U2 1_555 1_555
O18 U1_2 1_555 1_555
H7 C11 1_555 1_555
U9_2 O19 1_555 1_555
P4 O18 1_555 1_555
O19 P4 1_555 1_555
O23 U1_4 1_555 1_555
C10 P4 1_555 1_555
H8 C12 1_555 1_555
C10 C12 1_555 1_555
U2_2 O3 1_555 1_555
P2 O8 1_555 1_555
P3 O11 1_555 1_555
O8 U1_5 1_555 1_555
O9 U2_2 1_555 1_555
O10 P2 1_555 1_555
O11 U2_2 1_555 1_555
O12 P3 1_555 1_555
O13 P3 1_555 1_555
C4 P2 1_555 1_555
C5 C4 1_555 1_555
H3 C5 1_555 1_555
C7 P3 1_555 1_555
C8 C7 1_555 1_555
H5 C8 1_555 1_555
C9 C7 1_555 1_555
H6 C9 1_555 1_555
U9 O12 1_555 1_555
U9_2 O29 1_555 1_555
P6 O28 1_555 1_555
O29 P6 1_555 1_555
O32 P6 1_555 1_555
C16 P6 1_555 1_555
C17 C9 1_555 1_555
H11 C17 1_555 1_555
C18 C8 1_555 1_555
H12 C18 1_555 1_555
P2 O9 1_555 1_555
C16 C17 1_555 1_555
C16 C18 1_555 1_555
O13 H19 1_555 1_555
O32 H20 1_555 1_555
H10 C15 1_555 1_555
P1 O5 1_555 1_555
O5 U1_7 1_555 1_555
O6 U9 1_555 1_555
C1 P1 1_555 1_555
C3 C1 1_555 1_555
H2 C3 1_555 1_555
H4 C6 1_555 1_555
O16 U9 1_555 1_555
P1 O6 1_555 1_555
U1_8 O2 1_555 1_555
U9_2 O4 1_555 1_555
H1 C2 1_555 1_555
P5 O23 1_555 1_555
O25 P5 1_555 1_555
O26 P5 1_555 1_555
C13 P5 1_555 1_555
H9 C14 1_555 1_555
C13 C14 1_555 1_555
O4 H15 1_555 1_555
O21 H21 1_555 1_555
O16 H15_2 1_555 1_555
O7 H21_2 1_555 1_555
O32 H19_2 1_555 1_555
O13 H20_2 1_555 1_555

#END
