
###############################################################################
#
# This file contains modified crystal structure data generated from the
# MOF subset of the Cambridge Structural Database (CSD) v543 
# hosted by the Cambridge Crystallographic Data Centre (CCDC).
#
# This work is licensed under the Creative Commons
# Attribution-NonCommercial-ShareAlike 4.0 International License.
# To view a copy of this license, visit
# http://creativecommons.org/licenses/by-nc-sa/4.0/
# or send a letter to
# Creative Commons, PO Box 1866, Mountain View, CA 94042, USA.
#
# CIF created using the CSD Python API on 29 September 2022
# The structure has been converted into the P1 space group
# The structure has a 3D framework
# The original CSD entry VABQAQ is in the triclinic crystal system
# The framework has been calculated to contain at least 10.0% void space
# The void calculation uses a probe of radius 1.32A, grid spacing 0.4
# H atom positions have been added when not included in the experimental data
#
###############################################################################

data_VABQAQ
_chemical_formula_moiety         '(C56 H64 Cu4 N8 Na2 O20)n'
_symmetry_cell_setting           triclinic
_symmetry_space_group_name_H-M   'P 1'
_symmetry_Int_Tables_number      1
_space_group_name_Hall           'P 1'
loop_
_symmetry_equiv_pos_site_id
_symmetry_equiv_pos_as_xyz
1 x,y,z
_cell_length_a                   12.550(3)
_cell_length_b                   13.413(3)
_cell_length_c                   13.540(4)
_cell_angle_alpha                117.12(2)
_cell_angle_beta                 115.73(2)
_cell_angle_gamma                92.13(2)
_cell_volume                     1747.2
loop_
_atom_site_label
_atom_site_type_symbol
_atom_site_fract_x
_atom_site_fract_y
_atom_site_fract_z
Cu1 Cu 0.1602 0.3725 0.2583
Cu2 Cu 0.2478 0.1650 0.3459
O1 O 0.2448(6) 0.2480(5) 0.2544(6)
O2 O 0.3074(5) 0.4874(5) 0.2874(6)
O3 O 0.0124(6) 0.4236(6) 0.2322(6)
O4 O 0.3374(6) 0.5611(6) 0.1800(6)
O6 O 0.2828(6) 0.1700(6) 0.5039(6)
O8 O 0.4385(6) 0.2051(6) 0.6904(6)
N1 N 0.0935(7) 0.3168(6) 0.0710(7)
N2 N 0.4276(7) 0.1696(6) 0.4058(7)
C1 C 0.3027(9) 0.2180(8) 0.1847(9)
C2 C 0.2476(9) 0.2018(8) 0.0643(9)
C4 C 0.4273(10) 0.1588(8) 0.0438(11)
C6 C 0.4824(9) 0.1754(8) 0.1667(9)
C7 C 0.4235(9) 0.2070(8) 0.2406(9)
C9 C 0.4934(9) 0.2399(8) 0.3789(9)
C10 C 0.1543(9) 0.4128(8) 0.0674(9)
C11 C 0.2782(9) 0.4946(8) 0.1886(9)
C14 C 0.4895(9) 0.2211(8) 0.5476(9)
C15 C 0.4002(10) 0.1962(8) 0.5862(10)
C16 C 0.4267(9) 0.0433(8) 0.3410(9)
N3 N 0.2231(7) 0.4435(6) 0.4463(7)
C18 C 0.1471(10) 0.4683(9) 0.4958(10)
C19 C 0.1924(11) 0.5229(10) 0.6254(11)
C20 C 0.3190(10) 0.5569(9) 0.7092(10)
C21 C 0.3938(10) 0.5297(9) 0.6566(10)
C22 C 0.3423(9) 0.4741(8) 0.5252(9)
N4 N 0.0693(7) 0.1522(7) 0.2928(8)
C27 C 0.0281(9) 0.1777(10) 0.3734(10)
C28 C 0.5679(9) 0.6050(9) 0.0315(10)
Na1 Na 0.3603(3) 0.6927(3) 0.1192(3)
H2 H 0.5726 0.1235 0.0191
H5 H 0.5631 0.1652 0.2023
H8 H 0.5738 0.2289 0.3999
H9 H 0.5047 0.3214 0.4334
H10 H 0.0987 0.4584 0.0530
H14 H 0.5212 0.3045 0.5900
H15 H 0.5578 0.1911 0.5750
H16 H 0.4416 0.0165 0.3993
H17 H 0.4941 0.0396 0.3247
H18 H 0.0596 0.4465 0.4386
H19 H 0.1365 0.5391 0.6576
H20 H 0.3521 0.5959 0.8005
H21 H 0.4817 0.5515 0.7114
H22 H 0.3951 0.4555 0.4891
H23 H 0.0213 0.0964 0.1136
H27 H 0.0849 0.2029 0.4615
H28 H 0.6080 0.6878 0.0885
Na2 Na 0.6397(3) 0.3073(3) 0.8808(3)
O11 O 0.5615(6) 0.7949(6) 0.3096(6)
O12 O 0.3137(6) 0.8634(5) 0.1471(7)
C30 C 0.6220(10) 0.5423(8) 0.0973(10)
H33 H 0.4205 0.4215 0.0410
H34 H 0.7089 0.5573 0.1265
H35 H 0.6104 0.5696 0.1699
H36 H 0.575919 0.448596 0.0313147
H37 H 0.530556 0.412443 0.00132615
C3 C 0.3079(10) 0.1717(7) 0.9940(9)
C5 C 0.4935(10) 0.1290(9) 0.9684(11)
C8 C 0.1160(9) 0.2009(8) 0.9983(9)
O10 O 0.4390(6) 0.5821(5) 0.9884(6)
C29 C 0.3780(10) 0.4577(8) 0.9027(10)
H1 H 0.2669 0.1603 0.9094
H3 H 0.4468 0.0557 0.8881
H4 H 0.5053 0.1899 0.9521
H6 H 0.0926 0.1842 0.9135
H7 H 0.0643 0.1392 0.9894
H11 H 0.1671 0.3774 0.9954
H29 H 0.5795 0.5785 0.9590
H30 H 0.2911 0.4427 0.8735
H31 H 0.3896 0.4304 0.8301
O13 O 0.1705(6) 0.5937(6) 0.9210(6)
C31 C 0.4321(9) 0.3950(9) 0.9685(10)
H32 H 0.3920 0.3122 0.9115
O7 O 0.2128(6) 0.9960(5) 0.1904(6)
C17 C 0.3096(9) 0.9605(9) 0.2162(10)
O5 O 0.8295(6) 0.4063(6) 0.0790(6)
C12 C 0.9568(8) 0.2999(8) 0.0140(8)
C13 C 0.9279(9) 0.3828(8) 0.1131(10)
C23 C 0.9903(9) 0.1161(8) 0.1716(10)
C24 C 0.8669(10) 0.1063(9) 0.1258(10)
C25 C 0.8242(11) 0.1337(11) 0.2086(12)
C26 C 0.9034(11) 0.1681(12) 0.3330(11)
H24 H 0.8123 0.0813 0.0372
H25 H 0.7383 0.1286 0.1791
H26 H 0.8734 0.1855 0.3916
H12 H 0.9150 0.2206 0.9801
H13 H 0.9270 0.3138 0.9444
H12_2 H 0.0850 0.7794 0.0199
H13_2 H 0.0730 0.6862 0.0556
C12_2 C 0.0432(8) 0.7001(8) 0.9860(8)
C13_2 C 0.0721(9) 0.6172(8) 0.8869(10)
C23_2 C 0.0097(9) 0.8839(8) 0.8284(10)
C24_2 C 0.1331(10) 0.8937(9) 0.8742(10)
C25_2 C 0.1758(11) 0.8663(11) 0.7914(12)
C26_2 C 0.0966(11) 0.8319(12) 0.6670(11)
H24_2 H 0.1877 0.9187 0.9628
H25_2 H 0.2617 0.8714 0.8209
H26_2 H 0.1266 0.8145 0.6084
O7_2 O 0.7872(6) 0.0040(5) 0.8096(6)
O9 O 0.6863(6) 0.1366(5) 0.8529(7)
C17_2 C 0.6904(9) 0.0395(9) 0.7838(10)
C3_2 C 0.6921(10) 0.8283(7) 0.0060(9)
C5_2 C 0.5065(10) 0.8710(9) 0.0316(11)
C8_2 C 0.8840(9) 0.7991(8) 0.0017(9)
O10_2 O 0.5610(6) 0.4179(5) 0.0116(6)
H1_2 H 0.7331 0.8397 0.0906
H3_2 H 0.5532 0.9443 0.1119
H4_2 H 0.4947 0.8101 0.0479
H6_2 H 0.9074 0.8158 0.0865
H7_2 H 0.9357 0.8608 0.0106
H11_2 H 0.8329 0.6226 0.0046
Cu1_2 Cu 0.8398 0.6275 0.7417
Cu2_2 Cu 0.7522 0.8350 0.6541
O1_2 O 0.7552(6) 0.7520(5) 0.7456(6)
O2_2 O 0.6926(5) 0.5126(5) 0.7126(6)
O3_2 O 0.9876(6) 0.5764(6) 0.7678(6)
O4_2 O 0.6626(6) 0.4389(6) 0.8200(6)
O6_2 O 0.7172(6) 0.8300(6) 0.4961(6)
N1_2 N 0.9065(7) 0.6832(6) 0.9290(7)
N2_2 N 0.5724(7) 0.8304(6) 0.5942(7)
C1_2 C 0.6973(9) 0.7820(8) 0.8153(9)
C2_2 C 0.7524(9) 0.7982(8) 0.9357(9)
C4_2 C 0.5727(10) 0.8412(8) 0.9562(11)
C6_2 C 0.5176(9) 0.8246(8) 0.8333(9)
C7_2 C 0.5765(9) 0.7930(8) 0.7594(9)
C9_2 C 0.5066(9) 0.7601(8) 0.6211(9)
C10_2 C 0.8457(9) 0.5872(8) 0.9326(9)
C11_2 C 0.7218(9) 0.5054(8) 0.8114(9)
C14_2 C 0.5105(9) 0.7789(8) 0.4524(9)
C15_2 C 0.5998(10) 0.8038(8) 0.4138(10)
C16_2 C 0.5733(9) 0.9567(8) 0.6590(9)
N3_2 N 0.7769(7) 0.5565(6) 0.5537(7)
C18_2 C 0.8529(10) 0.5317(9) 0.5042(10)
C19_2 C 0.8076(11) 0.4771(10) 0.3746(11)
C20_2 C 0.6810(10) 0.4431(9) 0.2908(10)
C21_2 C 0.6062(10) 0.4703(9) 0.3434(10)
C22_2 C 0.6577(9) 0.5259(8) 0.4748(9)
N4_2 N 0.9307(7) 0.8478(7) 0.7072(8)
C27_2 C 0.9719(9) 0.8223(10) 0.6266(10)
H2_2 H 0.4274 0.8765 0.9809
H5_2 H 0.4369 0.8348 0.7977
H8_2 H 0.4262 0.7711 0.6001
H9_2 H 0.4953 0.6786 0.5666
H10_2 H 0.9013 0.5416 0.9470
H14_2 H 0.4788 0.6955 0.4100
H15_2 H 0.4422 0.8089 0.4250
H16_2 H 0.5584 0.9835 0.6007
H17_2 H 0.5059 0.9604 0.6753
H18_2 H 0.9404 0.5535 0.5614
H19_2 H 0.8635 0.4609 0.3424
H20_2 H 0.6479 0.4041 0.1995
H21_2 H 0.5183 0.4485 0.2886
H22_2 H 0.6049 0.5445 0.5109
H23_2 H 0.9787 0.9036 0.8864
H27_2 H 0.9151 0.7971 0.5385
H36_2 H 0.424081 0.551404 0.968685
H37_2 H 0.469444 0.587557 0.998674
loop_
_geom_bond_atom_site_label_1
_geom_bond_atom_site_label_2
_geom_bond_site_symmetry_1
_geom_bond_site_symmetry_2
Cu1 O1 1_555 1_555
Cu2 O1 1_555 1_555
O1 C1 1_555 1_555
O2 Cu1 1_555 1_555
O3 Cu1 1_555 1_555
O4 C11 1_555 1_555
O6 Cu2 1_555 1_555
O8 C15 1_555 1_555
N1 Cu1 1_555 1_555
N2 Cu2 1_555 1_555
C1 C2 1_555 1_555
C6 C4 1_555 1_555
C7 C1 1_555 1_555
C9 N2 1_555 1_555
C10 N1 1_555 1_555
C11 O2 1_555 1_555
C14 N2 1_555 1_555
C15 O6 1_555 1_555
C16 N2 1_555 1_555
N3 Cu1 1_555 1_555
C18 N3 1_555 1_555
C19 C18 1_555 1_555
C20 C19 1_555 1_555
C21 C20 1_555 1_555
C22 N3 1_555 1_555
N4 Cu2 1_555 1_555
C27 N4 1_555 1_555
C28 H28 1_555 1_555
Na1 O4 1_555 1_555
H5 C6 1_555 1_555
H8 C9 1_555 1_555
H9 C9 1_555 1_555
H10 C10 1_555 1_555
H14 C14 1_555 1_555
H15 C14 1_555 1_555
H16 C16 1_555 1_555
H17 C16 1_555 1_555
H18 C18 1_555 1_555
H19 C19 1_555 1_555
H20 C20 1_555 1_555
H21 C21 1_555 1_555
H22 C22 1_555 1_555
H27 C27 1_555 1_555
Na2 O8 1_555 1_555
O11 Na1 1_555 1_555
O12 Na1 1_555 1_555
C30 C28 1_555 1_555
H34 C30 1_555 1_555
H35 C30 1_555 1_555
C6 C7 1_555 1_555
C7 C9 1_555 1_555
C10 C11 1_555 1_555
C14 C15 1_555 1_555
C21 C22 1_555 1_555
C30 H36 1_555 1_555
C29 O10 1_555 1_555
H1 C3 1_555 1_555
H3 C5 1_555 1_555
H4 C5 1_555 1_555
H6 C8 1_555 1_555
H7 C8 1_555 1_555
H30 C29 1_555 1_555
H31 C29 1_555 1_555
C31 C29 1_555 1_555
H32 C31 1_555 1_555
O12 C17 1_555 1_555
C17 O7 1_555 1_555
O5 C13 1_555 1_555
C24 C23 1_555 1_555
C25 C24 1_555 1_555
C26 C25 1_555 1_555
H24 C24 1_555 1_555
H25 C25 1_555 1_555
H26 C26 1_555 1_555
C12 C13 1_555 1_555
O13 C13_2 1_555 1_555
C24_2 C23_2 1_555 1_555
C25_2 C24_2 1_555 1_555
C26_2 C25_2 1_555 1_555
H24_2 C24_2 1_555 1_555
H25_2 C25_2 1_555 1_555
H26_2 C26_2 1_555 1_555
C12_2 C13_2 1_555 1_555
O9 C17_2 1_555 1_555
C17_2 O7_2 1_555 1_555
Na2 O9 1_555 1_555
C30 O10_2 1_555 1_555
H1_2 C3_2 1_555 1_555
H3_2 C5_2 1_555 1_555
H4_2 C5_2 1_555 1_555
H6_2 C8_2 1_555 1_555
H7_2 C8_2 1_555 1_555
Cu1_2 O1_2 1_555 1_555
Cu2_2 O1_2 1_555 1_555
O1_2 C1_2 1_555 1_555
O2_2 Cu1_2 1_555 1_555
O3_2 Cu1_2 1_555 1_555
O4_2 C11_2 1_555 1_555
O6_2 Cu2_2 1_555 1_555
O11 C15_2 1_555 1_555
N1_2 Cu1_2 1_555 1_555
N2_2 Cu2_2 1_555 1_555
C1_2 C2_2 1_555 1_555
C6_2 C4_2 1_555 1_555
C7_2 C1_2 1_555 1_555
C9_2 N2_2 1_555 1_555
C10_2 N1_2 1_555 1_555
C11_2 O2_2 1_555 1_555
C14_2 N2_2 1_555 1_555
C15_2 O6_2 1_555 1_555
C16_2 N2_2 1_555 1_555
N3_2 Cu1_2 1_555 1_555
C18_2 N3_2 1_555 1_555
C19_2 C18_2 1_555 1_555
C20_2 C19_2 1_555 1_555
C21_2 C20_2 1_555 1_555
C22_2 N3_2 1_555 1_555
N4_2 Cu2_2 1_555 1_555
C27_2 N4_2 1_555 1_555
Na2 O4_2 1_555 1_555
H5_2 C6_2 1_555 1_555
H8_2 C9_2 1_555 1_555
H9_2 C9_2 1_555 1_555
H10_2 C10_2 1_555 1_555
H14_2 C14_2 1_555 1_555
H15_2 C14_2 1_555 1_555
H16_2 C16_2 1_555 1_555
H17_2 C16_2 1_555 1_555
H18_2 C18_2 1_555 1_555
H19_2 C19_2 1_555 1_555
H20_2 C20_2 1_555 1_555
H21_2 C21_2 1_555 1_555
H22_2 C22_2 1_555 1_555
H27_2 C27_2 1_555 1_555
C6_2 C7_2 1_555 1_555
C7_2 C9_2 1_555 1_555
C10_2 C11_2 1_555 1_555
C14_2 C15_2 1_555 1_555
C21_2 C22_2 1_555 1_555
C29 H36_2 1_555 1_555

#END
