
###############################################################################
#
# This file contains modified crystal structure data generated from the
# MOF subset of the Cambridge Structural Database (CSD) v543 
# hosted by the Cambridge Crystallographic Data Centre (CCDC).
#
# This work is licensed under the Creative Commons
# Attribution-NonCommercial-ShareAlike 4.0 International License.
# To view a copy of this license, visit
# http://creativecommons.org/licenses/by-nc-sa/4.0/
# or send a letter to
# Creative Commons, PO Box 1866, Mountain View, CA 94042, USA.
#
# CIF created using the CSD Python API on 29 September 2022
# The structure has been converted into the P1 space group
# The structure has a 3D framework
# The original CSD entry VABREY is in the tetragonal crystal system
# The framework has been calculated to contain at least 10.0% void space
# The void calculation uses a probe of radius 1.32A, grid spacing 0.4
# The framework is charged, counterions have been retained in the structure
#
###############################################################################

data_VABREY
_chemical_formula_moiety         '(C208 H160 Br18 Cu18 N16 O28 2-)n'
_symmetry_cell_setting           triclinic
_symmetry_space_group_name_H-M   'P 1'
_symmetry_Int_Tables_number      1
_space_group_name_Hall           'P 1'
loop_
_symmetry_equiv_pos_site_id
_symmetry_equiv_pos_as_xyz
1 x,y,z
_cell_length_a                   13.2570(5)
_cell_length_b                   13.2570(5)
_cell_length_c                   31.1199(14)
_cell_angle_alpha                90
_cell_angle_beta                 90
_cell_angle_gamma                90
_cell_volume                     5469.26
loop_
_atom_site_label
_atom_site_type_symbol
_atom_site_fract_x
_atom_site_fract_y
_atom_site_fract_z
Cu1 Cu 0.5000 0.0000 0.29580(3)
Br1 Br 0.5000 -0.0000 0.37867(3)
Cu3 Cu 0.5000 0.0000 0.20420(3)
O5 O 0.5460(4) 0.1369(3) 0.29424(16)
O6 O 0.3607(4) 0.0520(4) 0.27848(16)
N1 N 0.7167(5) 0.6384(4) 0.2257(2)
O2 O 0.5520(4) 0.1393(4) 0.22152(16)
C1 C 0.5632(5) 0.1777(5) 0.2578(2)
C2 C 0.6037(5) 0.2849(4) 0.2597(2)
C3 C 0.6530(5) 0.3233(5) 0.2260(2)
H1 H 0.6642 0.2830 0.2012
C4 C 0.6885(6) 0.4233(5) 0.2272(2)
H2 H 0.7227 0.4515 0.2032
C5 C 0.6724(6) 0.4809(5) 0.2647(2)
C6 C 0.6168(6) 0.4436(5) 0.2989(2)
H3 H 0.6016 0.4850 0.3230
C7 C 0.5834(6) 0.3426(5) 0.2971(2)
H4 H 0.5478 0.3137 0.3206
C8 C 0.7150(7) 0.5860(6) 0.2676(3)
H5 H 0.6740 0.6258 0.2881
H6 H 0.7846 0.5823 0.2790
C9 C 0.8043(6) 0.6375(6) 0.2001(3)
H7 H 0.8637 0.6059 0.2105
C10 C 0.8050(6) 0.6791(6) 0.1625(3)
H8 H 0.8652 0.6784 0.1459
C11 C 0.7154(5) 0.7265(5) 0.1452(3)
C12 C 0.6278(6) 0.7255(5) 0.1703(2)
H9 H 0.5675 0.7568 0.1606
C13 C 0.6320(7) 0.6771(5) 0.2101(3)
H10 H 0.5720 0.6717 0.2266
N2 N 0.7167(5) 0.8616(4) 0.0243(2)
C22 C 0.8043(6) 0.8625(6) 0.0499(3)
H17 H 0.8637 0.8941 0.0395
C23 C 0.8050(6) 0.8209(6) 0.0875(3)
H18 H 0.8652 0.8216 0.1041
C24 C 0.7154(5) 0.7735(5) 0.1048(3)
C25 C 0.6278(6) 0.7745(5) 0.0797(2)
H19 H 0.5675 0.7432 0.0894
C26 C 0.6320(7) 0.8229(5) 0.0399(3)
H20 H 0.5720 0.8283 0.0234
Br1_2 Br 0.5000 0.0000 0.12133(3)
O1 O 0.3631(3) 0.0460(4) 0.20576(16)
C1_2 C 0.3223(5) 0.0632(5) 0.2422(2)
C2_2 C 0.2151(4) 0.1037(5) 0.2403(2)
C3_2 C 0.1767(5) 0.1530(5) 0.2740(2)
H1_2 H 0.2170 0.1642 0.2988
C4_2 C 0.0767(5) 0.1885(6) 0.2728(2)
H2_2 H 0.0485 0.2227 0.2968
C5_2 C 0.0191(5) 0.1724(6) 0.2353(2)
C6_2 C 0.0564(5) 0.1168(6) 0.2011(2)
H3_2 H 0.0150 0.1016 0.1770
C7_2 C 0.1574(5) 0.0834(6) 0.2029(2)
H4_2 H 0.1863 0.0478 0.1794
Cu1_2 Cu 0.5000 1.0000 0.29580(3)
Br1_3 Br 0.5000 1.0000 0.37867(3)
N1_2 N 0.2833(5) 0.3616(4) 0.2257(2)
O1_2 O 0.4540(4) 0.8631(3) 0.29424(16)
O2_2 O 0.4480(4) 0.8607(4) 0.22152(16)
C1_3 C 0.4368(5) 0.8223(5) 0.2578(2)
C2_3 C 0.3963(5) 0.7151(4) 0.2597(2)
C3_3 C 0.3470(5) 0.6767(5) 0.2260(2)
H1_3 H 0.3358 0.7170 0.2012
C4_3 C 0.3115(6) 0.5767(5) 0.2272(2)
H2_3 H 0.2773 0.5485 0.2032
C5_3 C 0.3276(6) 0.5191(5) 0.2647(2)
C6_3 C 0.3832(6) 0.5564(5) 0.2989(2)
H3_3 H 0.3984 0.5150 0.3230
C7_3 C 0.4166(6) 0.6574(5) 0.2971(2)
H4_3 H 0.4522 0.6863 0.3206
C8_2 C 0.2850(7) 0.4140(6) 0.2676(3)
H5_2 H 0.3260 0.3742 0.2881
H6_2 H 0.2154 0.4177 0.2790
C9_2 C 0.1957(6) 0.3625(6) 0.2001(3)
H7_2 H 0.1363 0.3941 0.2105
C10_2 C 0.1950(6) 0.3209(6) 0.1625(3)
H8_2 H 0.1348 0.3216 0.1459
C11_2 C 0.2846(5) 0.2735(5) 0.1452(3)
C12_2 C 0.3722(6) 0.2745(5) 0.1703(2)
H9_2 H 0.4325 0.2432 0.1606
C13_2 C 0.3680(7) 0.3229(5) 0.2101(3)
H10_2 H 0.4280 0.3283 0.2266
N2_2 N 0.2833(5) 0.1384(4) 0.0243(2)
C22_2 C 0.1957(6) 0.1375(6) 0.0499(3)
H17_2 H 0.1363 0.1059 0.0395
C23_2 C 0.1950(6) 0.1791(6) 0.0875(3)
H18_2 H 0.1348 0.1784 0.1041
C24_2 C 0.2846(5) 0.2265(5) 0.1048(3)
C25_2 C 0.3722(6) 0.2255(5) 0.0797(2)
H19_2 H 0.4325 0.2568 0.0894
C26_2 C 0.3680(7) 0.1771(5) 0.0399(3)
H20_2 H 0.4280 0.1717 0.0234
Cu3_2 Cu 0.5000 1.0000 0.20420(3)
O7 O 0.6393(4) 0.9480(4) 0.27848(16)
Br1_4 Br 0.5000 1.0000 0.12133(3)
O5_2 O 0.6369(3) 0.9540(4) 0.20576(16)
C1_4 C 0.6777(5) 0.9368(5) 0.2422(2)
C2_4 C 0.7849(4) 0.8963(5) 0.2403(2)
C3_4 C 0.8233(5) 0.8470(5) 0.2740(2)
H1_4 H 0.7830 0.8358 0.2988
C4_4 C 0.9233(5) 0.8115(6) 0.2728(2)
H2_4 H 0.9515 0.7773 0.2968
C5_4 C 0.9809(5) 0.8276(6) 0.2353(2)
C6_4 C 0.9436(5) 0.8832(6) 0.2011(2)
H3_4 H 0.9850 0.8984 0.1770
C7_4 C 0.8426(5) 0.9166(6) 0.2029(2)
H4_4 H 0.8137 0.9522 0.1794
C21 C 0.2850(7) 0.0860(6) 0.9824(3)
H15 H 0.3260 0.1258 0.9619
H16 H 0.2154 0.0823 0.9710
O4 O 0.4480(4) 0.6393(4) 0.02848(16)
C16 C 0.3470(5) 0.8233(5) 0.0240(2)
H11 H 0.3358 0.7830 0.0488
C17 C 0.3115(6) 0.9233(5) 0.0228(2)
H12 H 0.2773 0.9515 0.0468
Cu2 Cu 0.5000 0.5000 0.04580(3)
O4_2 O 0.5520(4) 0.3607(4) 0.02848(16)
C16_2 C 0.6530(5) 0.1767(5) 0.0240(2)
H11_2 H 0.6642 0.2170 0.0488
C17_2 C 0.6885(6) 0.0767(5) 0.0228(2)
H12_2 H 0.7227 0.0485 0.0468
O3 O 0.6369(3) 0.5460(4) 0.04424(16)
C14 C 0.6777(5) 0.5632(5) 0.0078(2)
C15 C 0.7849(4) 0.6037(5) 0.0097(2)
C18 C 0.9809(5) 0.6724(6) 0.0147(2)
C19 C 0.9436(5) 0.6168(6) 0.0489(2)
H13 H 0.9850 0.6016 0.0730
C20 C 0.8426(5) 0.5834(6) 0.0471(2)
H14 H 0.8137 0.5478 0.0706
O3_2 O 0.3631(3) 0.4540(4) 0.04424(16)
C14_2 C 0.3223(5) 0.4368(5) 0.0078(2)
C15_2 C 0.2151(4) 0.3963(5) 0.0097(2)
C18_2 C 0.0191(5) 0.3276(6) 0.0147(2)
C19_2 C 0.0564(5) 0.3832(6) 0.0489(2)
H13_2 H 0.0150 0.3984 0.0730
C20_2 C 0.1574(5) 0.4166(6) 0.0471(2)
H14_2 H 0.1863 0.4522 0.0706
Br1_5 Br 0.5000 0.5000 0.12867(3)
O3_3 O 0.4540(4) 0.6369(3) 0.95576(16)
C14_3 C 0.4368(5) 0.6777(5) 0.9922(2)
C15_3 C 0.3963(5) 0.7849(4) 0.9903(2)
C18_3 C 0.3276(6) 0.9809(5) 0.9853(2)
C19_3 C 0.3832(6) 0.9436(5) 0.9511(2)
H13_3 H 0.3984 0.9850 0.9270
C20_3 C 0.4166(6) 0.8426(5) 0.9529(2)
H14_3 H 0.4522 0.8137 0.9294
Cu4 Cu 0.5000 0.5000 0.95420(3)
O3_4 O 0.5460(4) 0.3631(3) 0.95576(16)
C14_4 C 0.5632(5) 0.3223(5) 0.9922(2)
C15_4 C 0.6037(5) 0.2151(4) 0.9903(2)
C18_4 C 0.6724(6) 0.0191(5) 0.9853(2)
C19_4 C 0.6168(6) 0.0564(5) 0.9511(2)
H13_4 H 0.6016 0.0150 0.9270
C20_4 C 0.5834(6) 0.1574(5) 0.9529(2)
H14_4 H 0.5478 0.1863 0.9294
O4_3 O 0.6393(4) 0.5520(4) 0.97152(16)
C16_3 C 0.8233(5) 0.6530(5) 0.9760(2)
H11_3 H 0.7830 0.6642 0.9512
C17_3 C 0.9233(5) 0.6885(6) 0.9772(2)
H12_3 H 0.9515 0.7227 0.9532
O4_4 O 0.3607(4) 0.4480(4) 0.97152(16)
C16_4 C 0.1767(5) 0.3470(5) 0.9760(2)
H11_4 H 0.2170 0.3358 0.9512
C17_4 C 0.0767(5) 0.3115(6) 0.9772(2)
H12_4 H 0.0485 0.2773 0.9532
Br1_6 Br 0.5000 0.5000 0.87133(3)
C21_2 C 0.7150(7) 0.9140(6) 0.9824(3)
H15_2 H 0.6740 0.8742 0.9619
H16_2 H 0.7846 0.9177 0.9710
Cu1_3 Cu 0.0000 0.5000 0.70420(3)
Br1_7 Br 0.0000 0.5000 0.62133(3)
Cu3_3 Cu 0.0000 0.5000 0.79580(3)
O5_3 O 0.1369(3) 0.4540(4) 0.70576(16)
O6_2 O 0.0520(4) 0.6393(4) 0.72152(16)
N1_3 N 0.6384(4) 0.2833(5) 0.7743(2)
O2_3 O 0.1393(4) 0.4480(4) 0.77848(16)
C1_5 C 0.1777(5) 0.4368(5) 0.7422(2)
C2_5 C 0.2849(4) 0.3963(5) 0.7403(2)
C3_5 C 0.3233(5) 0.3470(5) 0.7740(2)
H1_5 H 0.2830 0.3358 0.7988
C4_5 C 0.4233(5) 0.3115(6) 0.7728(2)
H2_5 H 0.4515 0.2773 0.7968
C5_5 C 0.4809(5) 0.3276(6) 0.7353(2)
C6_5 C 0.4436(5) 0.3832(6) 0.7011(2)
H3_5 H 0.4850 0.3984 0.6770
C7_5 C 0.3426(5) 0.4166(6) 0.7029(2)
H4_5 H 0.3137 0.4522 0.6794
C8_3 C 0.5860(6) 0.2850(7) 0.7324(3)
H5_3 H 0.6258 0.3260 0.7119
H6_3 H 0.5823 0.2154 0.7210
C9_3 C 0.6375(6) 0.1957(6) 0.7999(3)
H7_3 H 0.6059 0.1363 0.7895
C10_3 C 0.6791(6) 0.1950(6) 0.8375(3)
H8_3 H 0.6784 0.1348 0.8541
C11_3 C 0.7265(5) 0.2846(5) 0.8548(3)
C12_3 C 0.7255(5) 0.3722(6) 0.8297(2)
H9_3 H 0.7568 0.4325 0.8394
C13_3 C 0.6771(5) 0.3680(7) 0.7899(3)
H10_3 H 0.6717 0.4280 0.7734
N2_3 N 0.8616(4) 0.2833(5) 0.9757(2)
C22_3 C 0.8625(6) 0.1957(6) 0.9501(3)
H17_3 H 0.8941 0.1363 0.9605
C23_3 C 0.8209(6) 0.1950(6) 0.9125(3)
H18_3 H 0.8216 0.1348 0.8959
C24_3 C 0.7735(5) 0.2846(5) 0.8952(3)
C25_3 C 0.7745(5) 0.3722(6) 0.9203(2)
H19_3 H 0.7432 0.4325 0.9106
C26_3 C 0.8229(5) 0.3680(7) 0.9601(3)
H20_3 H 0.8283 0.4280 0.9766
O3_5 O 0.0460(4) 0.6369(3) 0.79424(16)
C14_5 C 0.0632(5) 0.6777(5) 0.7578(2)
C15_5 C 0.1037(5) 0.7849(4) 0.7597(2)
C16_5 C 0.1530(5) 0.8233(5) 0.7260(2)
H11_5 H 0.1642 0.7830 0.7012
C17_5 C 0.1885(6) 0.9233(5) 0.7272(2)
H12_5 H 0.2227 0.9515 0.7032
C18_5 C 0.1724(6) 0.9809(5) 0.7647(2)
C19_5 C 0.1168(6) 0.9436(5) 0.7989(2)
H13_5 H 0.1016 0.9850 0.8230
C20_5 C 0.0834(6) 0.8426(5) 0.7971(2)
H14_5 H 0.0478 0.8137 0.8206
Br1_8 Br -0.0000 0.5000 0.87867(3)
C21_3 C 0.0860(6) 0.7150(7) 0.0176(3)
H15_3 H 0.1258 0.6740 0.0381
H16_3 H 0.0823 0.7846 0.0290
Cu1_4 Cu 1.0000 0.5000 0.70420(3)
Br1_9 Br 1.0000 0.5000 0.62133(3)
N1_4 N 0.3616(4) 0.7167(5) 0.7743(2)
O1_3 O 0.8631(3) 0.5460(4) 0.70576(16)
O2_4 O 0.8607(4) 0.5520(4) 0.77848(16)
C1_6 C 0.8223(5) 0.5632(5) 0.7422(2)
C2_6 C 0.7151(4) 0.6037(5) 0.7403(2)
C3_6 C 0.6767(5) 0.6530(5) 0.7740(2)
H1_6 H 0.7170 0.6642 0.7988
C4_6 C 0.5767(5) 0.6885(6) 0.7728(2)
H2_6 H 0.5485 0.7227 0.7968
C5_6 C 0.5191(5) 0.6724(6) 0.7353(2)
C6_6 C 0.5564(5) 0.6168(6) 0.7011(2)
H3_6 H 0.5150 0.6016 0.6770
C7_6 C 0.6574(5) 0.5834(6) 0.7029(2)
H4_6 H 0.6863 0.5478 0.6794
C8_4 C 0.4140(6) 0.7150(7) 0.7324(3)
H5_4 H 0.3742 0.6740 0.7119
H6_4 H 0.4177 0.7846 0.7210
C9_4 C 0.3625(6) 0.8043(6) 0.7999(3)
H7_4 H 0.3941 0.8637 0.7895
C10_4 C 0.3209(6) 0.8050(6) 0.8375(3)
H8_4 H 0.3216 0.8652 0.8541
C11_4 C 0.2735(5) 0.7154(5) 0.8548(3)
C12_4 C 0.2745(5) 0.6278(6) 0.8297(2)
H9_4 H 0.2432 0.5675 0.8394
C13_4 C 0.3229(5) 0.6320(7) 0.7899(3)
H10_4 H 0.3283 0.5720 0.7734
N2_4 N 0.1384(4) 0.7167(5) 0.9757(2)
C22_4 C 0.1375(6) 0.8043(6) 0.9501(3)
H17_4 H 0.1059 0.8637 0.9605
C23_4 C 0.1791(6) 0.8050(6) 0.9125(3)
H18_4 H 0.1784 0.8652 0.8959
C24_4 C 0.2265(5) 0.7154(5) 0.8952(3)
C25_4 C 0.2255(5) 0.6278(6) 0.9203(2)
H19_4 H 0.2568 0.5675 0.9106
C26_4 C 0.1771(5) 0.6320(7) 0.9601(3)
H20_4 H 0.1717 0.5720 0.9766
Cu3_4 Cu 1.0000 0.5000 0.79580(3)
O7_2 O 0.9480(4) 0.3607(4) 0.72152(16)
O3_6 O 0.9540(4) 0.3631(3) 0.79424(16)
C14_6 C 0.9368(5) 0.3223(5) 0.7578(2)
C15_6 C 0.8963(5) 0.2151(4) 0.7597(2)
C16_6 C 0.8470(5) 0.1767(5) 0.7260(2)
H11_6 H 0.8358 0.2170 0.7012
C17_6 C 0.8115(6) 0.0767(5) 0.7272(2)
H12_6 H 0.7773 0.0485 0.7032
C18_6 C 0.8276(6) 0.0191(5) 0.7647(2)
C19_6 C 0.8832(6) 0.0564(5) 0.7989(2)
H13_6 H 0.8984 0.0150 0.8230
C20_6 C 0.9166(6) 0.1574(5) 0.7971(2)
H14_6 H 0.9522 0.1863 0.8206
Br1_10 Br 1.0000 0.5000 0.87867(3)
C21_4 C 0.9140(6) 0.2850(7) 0.0176(3)
H15_4 H 0.8742 0.3260 0.0381
H16_4 H 0.9177 0.2154 0.0290
Cu1_5 Cu 0.0000 0.0000 0.45420(3)
Br1_11 Br 0.0000 0.0000 0.37133(3)
Cu3_5 Cu 0.0000 0.0000 0.54580(3)
O6_3 O 0.1393(4) 0.0520(4) 0.47152(16)
N1_5 N 0.8616(4) 0.2167(5) 0.2743(2)
C8_5 C 0.9140(6) 0.2150(7) 0.2324(3)
H5_5 H 0.8742 0.1740 0.2119
H6_5 H 0.9177 0.2846 0.2210
C9_5 C 0.8625(6) 0.3043(6) 0.2999(3)
H7_5 H 0.8941 0.3637 0.2895
C10_5 C 0.8209(6) 0.3050(6) 0.3375(3)
H8_5 H 0.8216 0.3652 0.3541
C11_5 C 0.7735(5) 0.2154(5) 0.3548(3)
C12_5 C 0.7745(5) 0.1278(6) 0.3297(2)
H9_5 H 0.7432 0.0675 0.3394
C13_5 C 0.8229(5) 0.1320(7) 0.2899(3)
H10_5 H 0.8283 0.0720 0.2734
N2_5 N 0.6384(4) 0.2167(5) 0.4757(2)
O3_7 O 0.1369(3) 0.0460(4) 0.54424(16)
C14_7 C 0.1777(5) 0.0632(5) 0.5078(2)
C15_7 C 0.2849(4) 0.1037(5) 0.5097(2)
C16_7 C 0.3233(5) 0.1530(5) 0.4760(2)
H11_7 H 0.2830 0.1642 0.4512
C17_7 C 0.4233(5) 0.1885(6) 0.4772(2)
H12_7 H 0.4515 0.2227 0.4532
C18_7 C 0.4809(5) 0.1724(6) 0.5147(2)
C19_7 C 0.4436(5) 0.1168(6) 0.5489(2)
H13_7 H 0.4850 0.1016 0.5730
C20_7 C 0.3426(5) 0.0834(6) 0.5471(2)
H14_7 H 0.3137 0.0478 0.5706
C21_5 C 0.5860(6) 0.2150(7) 0.5176(3)
H15_5 H 0.6258 0.1740 0.5381
H16_5 H 0.5823 0.2846 0.5290
C22_5 C 0.6375(6) 0.3043(6) 0.4501(3)
H17_5 H 0.6059 0.3637 0.4605
C23_5 C 0.6791(6) 0.3050(6) 0.4125(3)
H18_5 H 0.6784 0.3652 0.3959
C24_5 C 0.7265(5) 0.2154(5) 0.3952(3)
C25_5 C 0.7255(5) 0.1278(6) 0.4203(2)
H19_5 H 0.7568 0.0675 0.4106
C26_5 C 0.6771(5) 0.1320(7) 0.4601(3)
H20_5 H 0.6717 0.0720 0.4766
Br1_12 Br -0.0000 0.0000 0.62867(3)
Cu1_6 Cu 0.0000 1.0000 0.45420(3)
Br1_13 Br 0.0000 1.0000 0.37133(3)
N1_6 N 0.2167(5) 0.3616(4) 0.5243(2)
O1_4 O 0.0460(4) 0.8631(3) 0.45576(16)
O2_5 O 0.0520(4) 0.8607(4) 0.52848(16)
C1_7 C 0.0632(5) 0.8223(5) 0.4922(2)
C2_7 C 0.1037(5) 0.7151(4) 0.4903(2)
C3_7 C 0.1530(5) 0.6767(5) 0.5240(2)
H1_7 H 0.1642 0.7170 0.5488
C4_7 C 0.1885(6) 0.5767(5) 0.5228(2)
H2_7 H 0.2227 0.5485 0.5468
C5_7 C 0.1724(6) 0.5191(5) 0.4853(2)
C6_7 C 0.1168(6) 0.5564(5) 0.4511(2)
H3_7 H 0.1016 0.5150 0.4270
C7_7 C 0.0834(6) 0.6574(5) 0.4529(2)
H4_7 H 0.0478 0.6863 0.4294
C8_6 C 0.2150(7) 0.4140(6) 0.4824(3)
H5_6 H 0.1740 0.3742 0.4619
H6_6 H 0.2846 0.4177 0.4710
C9_6 C 0.3043(6) 0.3625(6) 0.5499(3)
H7_6 H 0.3637 0.3941 0.5395
C10_6 C 0.3050(6) 0.3209(6) 0.5875(3)
H8_6 H 0.3652 0.3216 0.6041
C11_6 C 0.2154(5) 0.2735(5) 0.6048(3)
C12_6 C 0.1278(6) 0.2745(5) 0.5797(2)
H9_6 H 0.0675 0.2432 0.5894
C13_6 C 0.1320(7) 0.3229(5) 0.5399(3)
H10_6 H 0.0720 0.3283 0.5234
N2_6 N 0.2167(5) 0.1384(4) 0.7257(2)
C21_6 C 0.2150(7) 0.0860(6) 0.7676(3)
H15_6 H 0.1740 0.1258 0.7881
H16_6 H 0.2846 0.0823 0.7790
C22_6 C 0.3043(6) 0.1375(6) 0.7001(3)
H17_6 H 0.3637 0.1059 0.7105
C23_6 C 0.3050(6) 0.1791(6) 0.6625(3)
H18_6 H 0.3652 0.1784 0.6459
C24_6 C 0.2154(5) 0.2265(5) 0.6452(3)
C25_6 C 0.1278(6) 0.2255(5) 0.6703(2)
H19_6 H 0.0675 0.2568 0.6606
C26_6 C 0.1320(7) 0.1771(5) 0.7101(3)
H20_6 H 0.0720 0.1717 0.7266
Cu3_6 Cu 0.0000 1.0000 0.54580(3)
Br1_14 Br 0.0000 1.0000 0.62867(3)
Cu1_7 Cu 1.0000 0.0000 0.45420(3)
Br1_15 Br 1.0000 0.0000 0.37133(3)
Cu3_7 Cu 1.0000 0.0000 0.54580(3)
O5_4 O 0.9540(4) 0.1369(3) 0.45576(16)
N1_7 N 0.7833(5) 0.6384(4) 0.5243(2)
O2_6 O 0.9480(4) 0.1393(4) 0.52848(16)
C1_8 C 0.9368(5) 0.1777(5) 0.4922(2)
C2_8 C 0.8963(5) 0.2849(4) 0.4903(2)
C3_8 C 0.8470(5) 0.3233(5) 0.5240(2)
H1_8 H 0.8358 0.2830 0.5488
C4_8 C 0.8115(6) 0.4233(5) 0.5228(2)
H2_8 H 0.7773 0.4515 0.5468
C5_8 C 0.8276(6) 0.4809(5) 0.4853(2)
C6_8 C 0.8832(6) 0.4436(5) 0.4511(2)
H3_8 H 0.8984 0.4850 0.4270
C7_8 C 0.9166(6) 0.3426(5) 0.4529(2)
H4_8 H 0.9522 0.3137 0.4294
C8_7 C 0.7850(7) 0.5860(6) 0.4824(3)
H5_7 H 0.8260 0.6258 0.4619
H6_7 H 0.7154 0.5823 0.4710
C9_7 C 0.6957(6) 0.6375(6) 0.5499(3)
H7_7 H 0.6363 0.6059 0.5395
C10_7 C 0.6950(6) 0.6791(6) 0.5875(3)
H8_7 H 0.6348 0.6784 0.6041
C11_7 C 0.7846(5) 0.7265(5) 0.6048(3)
C12_7 C 0.8722(6) 0.7255(5) 0.5797(2)
H9_7 H 0.9325 0.7568 0.5894
C13_7 C 0.8680(7) 0.6771(5) 0.5399(3)
H10_7 H 0.9280 0.6717 0.5234
N2_7 N 0.7833(5) 0.8616(4) 0.7257(2)
C21_7 C 0.7850(7) 0.9140(6) 0.7676(3)
H15_7 H 0.8260 0.8742 0.7881
H16_7 H 0.7154 0.9177 0.7790
C22_7 C 0.6957(6) 0.8625(6) 0.7001(3)
H17_7 H 0.6363 0.8941 0.7105
C23_7 C 0.6950(6) 0.8209(6) 0.6625(3)
H18_7 H 0.6348 0.8216 0.6459
C24_7 C 0.7846(5) 0.7735(5) 0.6452(3)
C25_7 C 0.8722(6) 0.7745(5) 0.6703(2)
H19_7 H 0.9325 0.7432 0.6606
C26_7 C 0.8680(7) 0.8229(5) 0.7101(3)
H20_7 H 0.9280 0.8283 0.7266
Br1_16 Br 1.0000 0.0000 0.62867(3)
Cu1_8 Cu 1.0000 1.0000 0.45420(3)
Br1_17 Br 1.0000 1.0000 0.37133(3)
Cu3_8 Cu 1.0000 1.0000 0.54580(3)
O7_3 O 0.8607(4) 0.9480(4) 0.47152(16)
N1_8 N 0.1384(4) 0.7833(5) 0.2743(2)
C8_8 C 0.0860(6) 0.7850(7) 0.2324(3)
H5_8 H 0.1258 0.8260 0.2119
H6_8 H 0.0823 0.7154 0.2210
C9_8 C 0.1375(6) 0.6957(6) 0.2999(3)
H7_8 H 0.1059 0.6363 0.2895
C10_8 C 0.1791(6) 0.6950(6) 0.3375(3)
H8_8 H 0.1784 0.6348 0.3541
C11_8 C 0.2265(5) 0.7846(5) 0.3548(3)
C12_8 C 0.2255(5) 0.8722(6) 0.3297(2)
H9_8 H 0.2568 0.9325 0.3394
C13_8 C 0.1771(5) 0.8680(7) 0.2899(3)
H10_8 H 0.1717 0.9280 0.2734
N2_8 N 0.3616(4) 0.7833(5) 0.4757(2)
O3_8 O 0.8631(3) 0.9540(4) 0.54424(16)
C14_8 C 0.8223(5) 0.9368(5) 0.5078(2)
C15_8 C 0.7151(4) 0.8963(5) 0.5097(2)
C16_8 C 0.6767(5) 0.8470(5) 0.4760(2)
H11_8 H 0.7170 0.8358 0.4512
C17_8 C 0.5767(5) 0.8115(6) 0.4772(2)
H12_8 H 0.5485 0.7773 0.4532
C18_8 C 0.5191(5) 0.8276(6) 0.5147(2)
C19_8 C 0.5564(5) 0.8832(6) 0.5489(2)
H13_8 H 0.5150 0.8984 0.5730
C20_8 C 0.6574(5) 0.9166(6) 0.5471(2)
H14_8 H 0.6863 0.9522 0.5706
C21_8 C 0.4140(6) 0.7850(7) 0.5176(3)
H15_8 H 0.3742 0.8260 0.5381
H16_8 H 0.4177 0.7154 0.5290
C22_8 C 0.3625(6) 0.6957(6) 0.4501(3)
H17_8 H 0.3941 0.6363 0.4605
C23_8 C 0.3209(6) 0.6950(6) 0.4125(3)
H18_8 H 0.3216 0.6348 0.3959
C24_8 C 0.2735(5) 0.7846(5) 0.3952(3)
C25_8 C 0.2745(5) 0.8722(6) 0.4203(2)
H19_8 H 0.2432 0.9325 0.4106
C26_8 C 0.3229(5) 0.8680(7) 0.4601(3)
H20_8 H 0.3283 0.9280 0.4766
Br1_18 Br 1.0000 1.0000 0.62867(3)
loop_
_geom_bond_atom_site_label_1
_geom_bond_atom_site_label_2
_geom_bond_site_symmetry_1
_geom_bond_site_symmetry_2
Cu1 Br1 1_555 1_555
O5 Cu1 1_555 1_555
O6 Cu1 1_555 1_555
N1 C8 1_555 1_555
O2 C1 1_555 1_555
C1 O5 1_555 1_555
C2 C1 1_555 1_555
C3 C2 1_555 1_555
H1 C3 1_555 1_555
C4 C3 1_555 1_555
H2 C4 1_555 1_555
C5 C4 1_555 1_555
C6 C5 1_555 1_555
H3 C6 1_555 1_555
C7 C2 1_555 1_555
H4 C7 1_555 1_555
C8 C5 1_555 1_555
H5 C8 1_555 1_555
H6 C8 1_555 1_555
C9 N1 1_555 1_555
H7 C9 1_555 1_555
C10 C9 1_555 1_555
H8 C10 1_555 1_555
C11 C10 1_555 1_555
C12 C11 1_555 1_555
H9 C12 1_555 1_555
C13 N1 1_555 1_555
H10 C13 1_555 1_555
C22 N2 1_555 1_555
H17 C22 1_555 1_555
C23 C22 1_555 1_555
H18 C23 1_555 1_555
C24 C11 1_555 1_555
C25 C24 1_555 1_555
H19 C25 1_555 1_555
C26 N2 1_555 1_555
H20 C26 1_555 1_555
Cu3 O2 1_555 1_555
C6 C7 1_555 1_555
C12 C13 1_555 1_555
C23 C24 1_555 1_555
C25 C26 1_555 1_555
Cu3 Br1_2 1_555 1_555
O1 Cu3 1_555 1_555
O6 C1_2 1_555 1_555
C1_2 O1 1_555 1_555
C2_2 C1_2 1_555 1_555
C3_2 C2_2 1_555 1_555
H1_2 C3_2 1_555 1_555
C4_2 C3_2 1_555 1_555
H2_2 C4_2 1_555 1_555
C5_2 C4_2 1_555 1_555
C6_2 C5_2 1_555 1_555
H3_2 C6_2 1_555 1_555
C7_2 C2_2 1_555 1_555
H4_2 C7_2 1_555 1_555
C6_2 C7_2 1_555 1_555
Cu1_2 Br1_3 1_555 1_555
N1_2 C8_2 1_555 1_555
O1_2 Cu1_2 1_555 1_555
O2_2 C1_3 1_555 1_555
C1_3 O1_2 1_555 1_555
C2_3 C1_3 1_555 1_555
C3_3 C2_3 1_555 1_555
H1_3 C3_3 1_555 1_555
C4_3 C3_3 1_555 1_555
H2_3 C4_3 1_555 1_555
C5_3 C4_3 1_555 1_555
C6_3 C5_3 1_555 1_555
H3_3 C6_3 1_555 1_555
C7_3 C2_3 1_555 1_555
H4_3 C7_3 1_555 1_555
C8_2 C5_3 1_555 1_555
H5_2 C8_2 1_555 1_555
H6_2 C8_2 1_555 1_555
C9_2 N1_2 1_555 1_555
H7_2 C9_2 1_555 1_555
C10_2 C9_2 1_555 1_555
H8_2 C10_2 1_555 1_555
C11_2 C10_2 1_555 1_555
C12_2 C11_2 1_555 1_555
H9_2 C12_2 1_555 1_555
C13_2 N1_2 1_555 1_555
H10_2 C13_2 1_555 1_555
C22_2 N2_2 1_555 1_555
H17_2 C22_2 1_555 1_555
C23_2 C22_2 1_555 1_555
H18_2 C23_2 1_555 1_555
C24_2 C11_2 1_555 1_555
C25_2 C24_2 1_555 1_555
H19_2 C25_2 1_555 1_555
C26_2 N2_2 1_555 1_555
H20_2 C26_2 1_555 1_555
Cu3_2 O2_2 1_555 1_555
O7 Cu1_2 1_555 1_555
C6_3 C7_3 1_555 1_555
C12_2 C13_2 1_555 1_555
C23_2 C24_2 1_555 1_555
C25_2 C26_2 1_555 1_555
Cu3_2 Br1_4 1_555 1_555
O5_2 Cu3_2 1_555 1_555
O7 C1_4 1_555 1_555
C1_4 O5_2 1_555 1_555
C2_4 C1_4 1_555 1_555
C3_4 C2_4 1_555 1_555
H1_4 C3_4 1_555 1_555
C4_4 C3_4 1_555 1_555
H2_4 C4_4 1_555 1_555
C5_4 C4_4 1_555 1_555
C6_4 C5_4 1_555 1_555
H3_4 C6_4 1_555 1_555
C7_4 C2_4 1_555 1_555
H4_4 C7_4 1_555 1_555
C6_4 C7_4 1_555 1_555
H15 C21 1_555 1_555
H16 C21 1_555 1_555
C16 H11 1_555 1_555
C17 C16 1_555 1_555
H12 C17 1_555 1_555
Cu2 O4 1_555 1_555
C16_2 H11_2 1_555 1_555
C17_2 C16_2 1_555 1_555
H12_2 C17_2 1_555 1_555
Cu2 O4_2 1_555 1_555
O3 C14 1_555 1_555
C14 C15 1_555 1_555
C19 C18 1_555 1_555
H13 C19 1_555 1_555
C20 C15 1_555 1_555
H14 C20 1_555 1_555
Cu2 O3 1_555 1_555
C19 C20 1_555 1_555
O3_2 C14_2 1_555 1_555
C14_2 C15_2 1_555 1_555
C19_2 C18_2 1_555 1_555
H13_2 C19_2 1_555 1_555
C20_2 C15_2 1_555 1_555
H14_2 C20_2 1_555 1_555
Cu2 O3_2 1_555 1_555
C19_2 C20_2 1_555 1_555
Cu2 Br1_5 1_555 1_555
O3_3 C14_3 1_555 1_555
C14_3 C15_3 1_555 1_555
C19_3 C18_3 1_555 1_555
H13_3 C19_3 1_555 1_555
C20_3 C15_3 1_555 1_555
H14_3 C20_3 1_555 1_555
Cu4 O3_3 1_555 1_555
C19_3 C20_3 1_555 1_555
O3_4 C14_4 1_555 1_555
C14_4 C15_4 1_555 1_555
C19_4 C18_4 1_555 1_555
H13_4 C19_4 1_555 1_555
C20_4 C15_4 1_555 1_555
H14_4 C20_4 1_555 1_555
Cu4 O3_4 1_555 1_555
C19_4 C20_4 1_555 1_555
C16_3 H11_3 1_555 1_555
C17_3 C16_3 1_555 1_555
H12_3 C17_3 1_555 1_555
Cu4 O4_3 1_555 1_555
C16_4 H11_4 1_555 1_555
C17_4 C16_4 1_555 1_555
H12_4 C17_4 1_555 1_555
Cu4 O4_4 1_555 1_555
Cu4 Br1_6 1_555 1_555
H15_2 C21_2 1_555 1_555
H16_2 C21_2 1_555 1_555
Cu1_3 Br1_7 1_555 1_555
O5_3 Cu1_3 1_555 1_555
O6_2 Cu1_3 1_555 1_555
N1_3 C8_3 1_555 1_555
O2_3 C1_5 1_555 1_555
C1_5 O5_3 1_555 1_555
C2_5 C1_5 1_555 1_555
C3_5 C2_5 1_555 1_555
H1_5 C3_5 1_555 1_555
C4_5 C3_5 1_555 1_555
H2_5 C4_5 1_555 1_555
C5_5 C4_5 1_555 1_555
C6_5 C5_5 1_555 1_555
H3_5 C6_5 1_555 1_555
C7_5 C2_5 1_555 1_555
H4_5 C7_5 1_555 1_555
C8_3 C5_5 1_555 1_555
H5_3 C8_3 1_555 1_555
H6_3 C8_3 1_555 1_555
C9_3 N1_3 1_555 1_555
H7_3 C9_3 1_555 1_555
C10_3 C9_3 1_555 1_555
H8_3 C10_3 1_555 1_555
C11_3 C10_3 1_555 1_555
C12_3 C11_3 1_555 1_555
H9_3 C12_3 1_555 1_555
C13_3 N1_3 1_555 1_555
H10_3 C13_3 1_555 1_555
C22_3 N2_3 1_555 1_555
H17_3 C22_3 1_555 1_555
C23_3 C22_3 1_555 1_555
H18_3 C23_3 1_555 1_555
C24_3 C11_3 1_555 1_555
C25_3 C24_3 1_555 1_555
H19_3 C25_3 1_555 1_555
C26_3 N2_3 1_555 1_555
H20_3 C26_3 1_555 1_555
Cu3_3 O2_3 1_555 1_555
C6_5 C7_5 1_555 1_555
C12_3 C13_3 1_555 1_555
C23_3 C24_3 1_555 1_555
C25_3 C26_3 1_555 1_555
O3_5 C14_5 1_555 1_555
O6_2 C14_5 1_555 1_555
C14_5 C15_5 1_555 1_555
C15_5 C16_5 1_555 1_555
C16_5 H11_5 1_555 1_555
C17_5 C16_5 1_555 1_555
H12_5 C17_5 1_555 1_555
C18_5 C17_5 1_555 1_555
C19_5 C18_5 1_555 1_555
H13_5 C19_5 1_555 1_555
C20_5 C15_5 1_555 1_555
H14_5 C20_5 1_555 1_555
Cu3_3 O3_5 1_555 1_555
C19_5 C20_5 1_555 1_555
Cu3_3 Br1_8 1_555 1_555
H15_3 C21_3 1_555 1_555
H16_3 C21_3 1_555 1_555
Cu1_4 Br1_9 1_555 1_555
N1_4 C8_4 1_555 1_555
O1_3 Cu1_4 1_555 1_555
O2_4 C1_6 1_555 1_555
C1_6 O1_3 1_555 1_555
C2_6 C1_6 1_555 1_555
C3_6 C2_6 1_555 1_555
H1_6 C3_6 1_555 1_555
C4_6 C3_6 1_555 1_555
H2_6 C4_6 1_555 1_555
C5_6 C4_6 1_555 1_555
C6_6 C5_6 1_555 1_555
H3_6 C6_6 1_555 1_555
C7_6 C2_6 1_555 1_555
H4_6 C7_6 1_555 1_555
C8_4 C5_6 1_555 1_555
H5_4 C8_4 1_555 1_555
H6_4 C8_4 1_555 1_555
C9_4 N1_4 1_555 1_555
H7_4 C9_4 1_555 1_555
C10_4 C9_4 1_555 1_555
H8_4 C10_4 1_555 1_555
C11_4 C10_4 1_555 1_555
C12_4 C11_4 1_555 1_555
H9_4 C12_4 1_555 1_555
C13_4 N1_4 1_555 1_555
H10_4 C13_4 1_555 1_555
C22_4 N2_4 1_555 1_555
H17_4 C22_4 1_555 1_555
C23_4 C22_4 1_555 1_555
H18_4 C23_4 1_555 1_555
C24_4 C11_4 1_555 1_555
C25_4 C24_4 1_555 1_555
H19_4 C25_4 1_555 1_555
C26_4 N2_4 1_555 1_555
H20_4 C26_4 1_555 1_555
Cu3_4 O2_4 1_555 1_555
O7_2 Cu1_4 1_555 1_555
C6_6 C7_6 1_555 1_555
C12_4 C13_4 1_555 1_555
C23_4 C24_4 1_555 1_555
C25_4 C26_4 1_555 1_555
O3_6 C14_6 1_555 1_555
O7_2 C14_6 1_555 1_555
C14_6 C15_6 1_555 1_555
C15_6 C16_6 1_555 1_555
C16_6 H11_6 1_555 1_555
C17_6 C16_6 1_555 1_555
H12_6 C17_6 1_555 1_555
C18_6 C17_6 1_555 1_555
C19_6 C18_6 1_555 1_555
H13_6 C19_6 1_555 1_555
C20_6 C15_6 1_555 1_555
H14_6 C20_6 1_555 1_555
Cu3_4 O3_6 1_555 1_555
C19_6 C20_6 1_555 1_555
Cu3_4 Br1_10 1_555 1_555
H15_4 C21_4 1_555 1_555
H16_4 C21_4 1_555 1_555
Cu1_5 Br1_11 1_555 1_555
O6_3 Cu1_5 1_555 1_555
N1_5 C8_5 1_555 1_555
H5_5 C8_5 1_555 1_555
H6_5 C8_5 1_555 1_555
C9_5 N1_5 1_555 1_555
H7_5 C9_5 1_555 1_555
C10_5 C9_5 1_555 1_555
H8_5 C10_5 1_555 1_555
C11_5 C10_5 1_555 1_555
C12_5 C11_5 1_555 1_555
H9_5 C12_5 1_555 1_555
C13_5 N1_5 1_555 1_555
H10_5 C13_5 1_555 1_555
N2_5 C21_5 1_555 1_555
O3_7 C14_7 1_555 1_555
O6_3 C14_7 1_555 1_555
C14_7 C15_7 1_555 1_555
C15_7 C16_7 1_555 1_555
C16_7 H11_7 1_555 1_555
C17_7 C16_7 1_555 1_555
H12_7 C17_7 1_555 1_555
C18_7 C17_7 1_555 1_555
C19_7 C18_7 1_555 1_555
H13_7 C19_7 1_555 1_555
C20_7 C15_7 1_555 1_555
H14_7 C20_7 1_555 1_555
C21_5 C18_7 1_555 1_555
H15_5 C21_5 1_555 1_555
H16_5 C21_5 1_555 1_555
C22_5 N2_5 1_555 1_555
H17_5 C22_5 1_555 1_555
C23_5 C22_5 1_555 1_555
H18_5 C23_5 1_555 1_555
C24_5 C11_5 1_555 1_555
C25_5 C24_5 1_555 1_555
H19_5 C25_5 1_555 1_555
C26_5 N2_5 1_555 1_555
H20_5 C26_5 1_555 1_555
Cu3_5 O3_7 1_555 1_555
C12_5 C13_5 1_555 1_555
C19_7 C20_7 1_555 1_555
C23_5 C24_5 1_555 1_555
C25_5 C26_5 1_555 1_555
Cu3_5 Br1_12 1_555 1_555
Cu1_6 Br1_13 1_555 1_555
N1_6 C8_6 1_555 1_555
O1_4 Cu1_6 1_555 1_555
O2_5 C1_7 1_555 1_555
C1_7 O1_4 1_555 1_555
C2_7 C1_7 1_555 1_555
C3_7 C2_7 1_555 1_555
H1_7 C3_7 1_555 1_555
C4_7 C3_7 1_555 1_555
H2_7 C4_7 1_555 1_555
C5_7 C4_7 1_555 1_555
C6_7 C5_7 1_555 1_555
H3_7 C6_7 1_555 1_555
C7_7 C2_7 1_555 1_555
H4_7 C7_7 1_555 1_555
C8_6 C5_7 1_555 1_555
H5_6 C8_6 1_555 1_555
H6_6 C8_6 1_555 1_555
C9_6 N1_6 1_555 1_555
H7_6 C9_6 1_555 1_555
C10_6 C9_6 1_555 1_555
H8_6 C10_6 1_555 1_555
C11_6 C10_6 1_555 1_555
C12_6 C11_6 1_555 1_555
H9_6 C12_6 1_555 1_555
C13_6 N1_6 1_555 1_555
H10_6 C13_6 1_555 1_555
N2_6 C21_6 1_555 1_555
H15_6 C21_6 1_555 1_555
H16_6 C21_6 1_555 1_555
C22_6 N2_6 1_555 1_555
H17_6 C22_6 1_555 1_555
C23_6 C22_6 1_555 1_555
H18_6 C23_6 1_555 1_555
C24_6 C11_6 1_555 1_555
C25_6 C24_6 1_555 1_555
H19_6 C25_6 1_555 1_555
C26_6 N2_6 1_555 1_555
H20_6 C26_6 1_555 1_555
Cu3_6 O2_5 1_555 1_555
C6_7 C7_7 1_555 1_555
C12_6 C13_6 1_555 1_555
C23_6 C24_6 1_555 1_555
C25_6 C26_6 1_555 1_555
Cu3_6 Br1_14 1_555 1_555
Cu1_7 Br1_15 1_555 1_555
O5_4 Cu1_7 1_555 1_555
N1_7 C8_7 1_555 1_555
O2_6 C1_8 1_555 1_555
C1_8 O5_4 1_555 1_555
C2_8 C1_8 1_555 1_555
C3_8 C2_8 1_555 1_555
H1_8 C3_8 1_555 1_555
C4_8 C3_8 1_555 1_555
H2_8 C4_8 1_555 1_555
C5_8 C4_8 1_555 1_555
C6_8 C5_8 1_555 1_555
H3_8 C6_8 1_555 1_555
C7_8 C2_8 1_555 1_555
H4_8 C7_8 1_555 1_555
C8_7 C5_8 1_555 1_555
H5_7 C8_7 1_555 1_555
H6_7 C8_7 1_555 1_555
C9_7 N1_7 1_555 1_555
H7_7 C9_7 1_555 1_555
C10_7 C9_7 1_555 1_555
H8_7 C10_7 1_555 1_555
C11_7 C10_7 1_555 1_555
C12_7 C11_7 1_555 1_555
H9_7 C12_7 1_555 1_555
C13_7 N1_7 1_555 1_555
H10_7 C13_7 1_555 1_555
N2_7 C21_7 1_555 1_555
H15_7 C21_7 1_555 1_555
H16_7 C21_7 1_555 1_555
C22_7 N2_7 1_555 1_555
H17_7 C22_7 1_555 1_555
C23_7 C22_7 1_555 1_555
H18_7 C23_7 1_555 1_555
C24_7 C11_7 1_555 1_555
C25_7 C24_7 1_555 1_555
H19_7 C25_7 1_555 1_555
C26_7 N2_7 1_555 1_555
H20_7 C26_7 1_555 1_555
Cu3_7 O2_6 1_555 1_555
C6_8 C7_8 1_555 1_555
C12_7 C13_7 1_555 1_555
C23_7 C24_7 1_555 1_555
C25_7 C26_7 1_555 1_555
Cu3_7 Br1_16 1_555 1_555
Cu1_8 Br1_17 1_555 1_555
O7_3 Cu1_8 1_555 1_555
N1_8 C8_8 1_555 1_555
H5_8 C8_8 1_555 1_555
H6_8 C8_8 1_555 1_555
C9_8 N1_8 1_555 1_555
H7_8 C9_8 1_555 1_555
C10_8 C9_8 1_555 1_555
H8_8 C10_8 1_555 1_555
C11_8 C10_8 1_555 1_555
C12_8 C11_8 1_555 1_555
H9_8 C12_8 1_555 1_555
C13_8 N1_8 1_555 1_555
H10_8 C13_8 1_555 1_555
N2_8 C21_8 1_555 1_555
O3_8 C14_8 1_555 1_555
O7_3 C14_8 1_555 1_555
C14_8 C15_8 1_555 1_555
C15_8 C16_8 1_555 1_555
C16_8 H11_8 1_555 1_555
C17_8 C16_8 1_555 1_555
H12_8 C17_8 1_555 1_555
C18_8 C17_8 1_555 1_555
C19_8 C18_8 1_555 1_555
H13_8 C19_8 1_555 1_555
C20_8 C15_8 1_555 1_555
H14_8 C20_8 1_555 1_555
C21_8 C18_8 1_555 1_555
H15_8 C21_8 1_555 1_555
H16_8 C21_8 1_555 1_555
C22_8 N2_8 1_555 1_555
H17_8 C22_8 1_555 1_555
C23_8 C22_8 1_555 1_555
H18_8 C23_8 1_555 1_555
C24_8 C11_8 1_555 1_555
C25_8 C24_8 1_555 1_555
H19_8 C25_8 1_555 1_555
C26_8 N2_8 1_555 1_555
H20_8 C26_8 1_555 1_555
Cu3_8 O3_8 1_555 1_555
C12_8 C13_8 1_555 1_555
C19_8 C20_8 1_555 1_555
C23_8 C24_8 1_555 1_555
C25_8 C26_8 1_555 1_555
Cu3_8 Br1_18 1_555 1_555

#END
