
###############################################################################
#
# This file contains modified crystal structure data generated from the
# MOF subset of the Cambridge Structural Database (CSD) v543 
# hosted by the Cambridge Crystallographic Data Centre (CCDC).
#
# This work is licensed under the Creative Commons
# Attribution-NonCommercial-ShareAlike 4.0 International License.
# To view a copy of this license, visit
# http://creativecommons.org/licenses/by-nc-sa/4.0/
# or send a letter to
# Creative Commons, PO Box 1866, Mountain View, CA 94042, USA.
#
# CIF created using the CSD Python API on 29 September 2022
# The structure has been converted into the P1 space group
# The structure has a 3D framework
# The original CSD entry VACFOV01 is in the hexagonal crystal system
# The original CSD entry VACFOV01 is in a Sohncke space group
# The framework has been calculated to contain at least 10.0% void space
# The void calculation uses a probe of radius 1.32A, grid spacing 0.4
#
###############################################################################

data_VACFOV01
_chemical_formula_moiety         '(C48 H24 In5 O24)n'
_symmetry_cell_setting           triclinic
_symmetry_space_group_name_H-M   'P 1'
_symmetry_Int_Tables_number      1
_space_group_name_Hall           'P 1'
loop_
_symmetry_equiv_pos_site_id
_symmetry_equiv_pos_as_xyz
1 x,y,z
_cell_length_a                   14.682(6)
_cell_length_b                   14.682(6)
_cell_length_c                   12.178(7)
_cell_angle_alpha                90
_cell_angle_beta                 90
_cell_angle_gamma                120
_cell_volume                     2273.41
loop_
_atom_site_label
_atom_site_type_symbol
_atom_site_fract_x
_atom_site_fract_y
_atom_site_fract_z
In3 In 0.5000 0.0000 0.5000
C1 C 0.4079(5) 0.2320(5) 0.1221(4)
H1 H 0.3449 0.2194 0.0906
C2 C 0.5059(5) 0.3102(4) 0.0779(3)
C3 C 0.5980(5) 0.3281(4) 0.1227(4)
H2 H 0.6614 0.3801 0.0936
O3 O 0.4194(4) 0.0704(5) 0.4005(3)
O4 O 0.5872(3) 0.1288(4) 0.3749(3)
C5 C 0.4079(5) 0.1759(7) 0.2112(4)
H3 H 0.3449 0.1255 0.2427
C6 C 0.5059(5) 0.1957(6) 0.2554(3)
C7 C 0.5980(5) 0.2699(6) 0.2106(4)
H4 H 0.6614 0.2813 0.2397
C8 C 0.5065(5) 0.1289(6) 0.3504(3)
C9 C 0.5921(5) 0.7680(5) 0.1221(4)
H5 H 0.6551 0.7806 0.0906
C10 C 0.4941(5) 0.6898(4) 0.0779(3)
C11 C 0.4020(5) 0.6719(4) 0.1227(4)
H6 H 0.3386 0.6199 0.0936
O7 O 0.5806(4) 0.9296(5) 0.4005(3)
O8 O 0.4128(3) 0.8712(4) 0.3749(3)
C13 C 0.5921(5) 0.8241(7) 0.2112(4)
H7 H 0.6551 0.8745 0.2427
C14 C 0.4941(5) 0.8043(6) 0.2554(3)
C15 C 0.4020(5) 0.7301(6) 0.2106(4)
H8 H 0.3386 0.7187 0.2397
C16 C 0.4935(5) 0.8711(6) 0.3504(3)
In3_2 In 0.5000 1.0000 0.5000
O1 O 0.6510(3) 0.0704(5) 0.5995(3)
O2 O 0.5416(3) 0.1288(4) 0.6251(3)
C1_2 C 0.7680(5) 0.1759(7) 0.7888(4)
H1_2 H 0.7806 0.1255 0.7573
C2_2 C 0.6898(4) 0.1957(6) 0.7446(3)
C3_2 C 0.6719(4) 0.2699(6) 0.7894(4)
H2_2 H 0.6199 0.2813 0.7603
C4 C 0.6224(4) 0.1289(6) 0.6496(3)
C5_2 C 0.8241(7) 0.2320(9) 0.8779(4)
H3_2 H 0.8745 0.2194 0.9094
C6_2 C 0.8043(6) 0.3102(8) 0.9221(3)
C7_2 C 0.7301(6) 0.3281(8) 0.8773(4)
H4_2 H 0.7187 0.3801 0.9064
O5 O 0.3490(3) 0.9296(5) 0.5995(3)
O6 O 0.4584(3) 0.8712(4) 0.6251(3)
C9_2 C 0.2320(5) 0.8241(7) 0.7888(4)
H5_2 H 0.2194 0.8745 0.7573
C10_2 C 0.3102(4) 0.8043(6) 0.7446(3)
C11_2 C 0.3281(4) 0.7301(6) 0.7894(4)
H6_2 H 0.3801 0.7187 0.7603
C12 C 0.3776(4) 0.8711(6) 0.6496(3)
C13_2 C 0.1759(7) 0.7680(9) 0.8779(4)
H7_2 H 0.1255 0.7806 0.9094
C14_2 C 0.1957(6) 0.6898(8) 0.9221(3)
C15_2 C 0.2699(6) 0.6719(8) 0.8773(4)
H8_2 H 0.2813 0.6199 0.9064
In1 In 0.5000 0.5000 0.8333
O1_2 O 0.4194(4) 0.3490(3) 0.9328(3)
O2_2 O 0.5872(3) 0.4584(3) 0.9584(3)
C4_2 C 0.5065(5) 0.3776(4) 0.9829(3)
O5_2 O 0.5806(4) 0.6510(3) 0.9328(3)
O6_2 O 0.4128(3) 0.5416(3) 0.9584(3)
C12_2 C 0.4935(5) 0.6224(4) 0.9829(3)
O9 O 0.6510(3) 0.5806(4) 0.7339(3)
O10 O 0.3490(3) 0.4194(4) 0.7339(3)
O11 O 0.5416(3) 0.4128(3) 0.7083(3)
O12 O 0.4584(3) 0.5872(3) 0.7083(3)
In1_2 In 0.0000 0.5000 0.1666
O1_3 O 0.0704(5) 0.4194(4) 0.2661(3)
O2_3 O 0.1288(4) 0.5872(3) 0.2917(3)
C1_3 C 0.1759(7) 0.4079(5) 0.4554(4)
H1_3 H 0.1255 0.3449 0.4239
C2_3 C 0.1957(6) 0.5059(5) 0.4112(3)
C3_3 C 0.2699(6) 0.5980(5) 0.4560(4)
H2_3 H 0.2813 0.6614 0.4269
C4_3 C 0.1289(6) 0.5065(5) 0.3162(3)
C5_3 C 0.2320(9) 0.4079(5) 0.5446(4)
H3_3 H 0.2194 0.3449 0.5761
C6_3 C 0.3102(8) 0.5059(5) 0.5888(3)
C7_3 C 0.3281(8) 0.5980(5) 0.5440(4)
H4_3 H 0.3801 0.6614 0.5731
C8_2 C 0.3776(8) 0.5065(5) 0.6838(3)
O9_2 O 0.0704(5) 0.6510(3) 0.0672(3)
O11_2 O 0.1288(4) 0.5416(3) 0.0416(3)
In1_3 In 1.0000 0.5000 0.1666
O5_3 O 0.9296(5) 0.5806(4) 0.2661(3)
O6_3 O 0.8712(4) 0.4128(3) 0.2917(3)
C9_3 C 0.8241(7) 0.5921(5) 0.4554(4)
H5_3 H 0.8745 0.6551 0.4239
C10_3 C 0.8043(6) 0.4941(5) 0.4112(3)
C11_3 C 0.7301(6) 0.4020(5) 0.4560(4)
H6_3 H 0.7187 0.3386 0.4269
C12_3 C 0.8711(6) 0.4935(5) 0.3162(3)
C13_3 C 0.7680(9) 0.5921(5) 0.5446(4)
H7_3 H 0.7806 0.6551 0.5761
C14_3 C 0.6898(8) 0.4941(5) 0.5888(3)
C15_3 C 0.6719(8) 0.4020(5) 0.5440(4)
H8_3 H 0.6199 0.3386 0.5731
C16_2 C 0.6224(8) 0.4935(5) 0.6838(3)
O10_2 O 0.9296(5) 0.3490(3) 0.0672(3)
O12_2 O 0.8712(4) 0.4584(3) 0.0416(3)
C8_3 C 0.8711(6) 0.3776(8) 0.0171(3)
C16_3 C 0.1289(6) 0.6224(8) 0.0171(3)
loop_
_geom_bond_atom_site_label_1
_geom_bond_atom_site_label_2
_geom_bond_site_symmetry_1
_geom_bond_site_symmetry_2
C1 H1 1_555 1_555
C2 C1 1_555 1_555
C3 C2 1_555 1_555
H2 C3 1_555 1_555
O3 C8 1_555 1_555
O4 C8 1_555 1_555
C5 C1 1_555 1_555
H3 C5 1_555 1_555
C6 C5 1_555 1_555
C7 C3 1_555 1_555
H4 C7 1_555 1_555
C8 C6 1_555 1_555
C9 H5 1_555 1_555
C10 C9 1_555 1_555
C11 C10 1_555 1_555
H6 C11 1_555 1_555
O7 C16 1_555 1_555
O8 C16 1_555 1_555
C13 C9 1_555 1_555
H7 C13 1_555 1_555
C14 C13 1_555 1_555
C15 C11 1_555 1_555
H8 C15 1_555 1_555
C16 C14 1_555 1_555
In3 O3 1_555 1_555
In3_2 O7 1_555 1_555
O4 In3 1_555 1_555
C6 C7 1_555 1_555
O8 In3_2 1_555 1_555
C14 C15 1_555 1_555
In3 O1 1_555 1_555
O1 C4 1_555 1_555
O2 In3 1_555 1_555
C1_2 H1_2 1_555 1_555
C2_2 C1_2 1_555 1_555
C3_2 C2_2 1_555 1_555
H2_2 C3_2 1_555 1_555
C4 O2 1_555 1_555
C5_2 C1_2 1_555 1_555
H3_2 C5_2 1_555 1_555
C6_2 C5_2 1_555 1_555
C7_2 C3_2 1_555 1_555
H4_2 C7_2 1_555 1_555
C2_2 C4 1_555 1_555
C6_2 C7_2 1_555 1_555
O5 In3_2 1_555 1_555
O6 In3_2 1_555 1_555
C9_2 H5_2 1_555 1_555
C10_2 C9_2 1_555 1_555
C11_2 C10_2 1_555 1_555
H6_2 C11_2 1_555 1_555
C12 O5 1_555 1_555
C13_2 C9_2 1_555 1_555
H7_2 C13_2 1_555 1_555
C14_2 C13_2 1_555 1_555
C15_2 C11_2 1_555 1_555
H8_2 C15_2 1_555 1_555
O6 C12 1_555 1_555
C10_2 C12 1_555 1_555
C14_2 C15_2 1_555 1_555
In1 O1_2 1_555 1_555
O1_2 C4_2 1_555 1_555
O2_2 In1 1_555 1_555
C4_2 O2_2 1_555 1_555
O5_2 In1 1_555 1_555
O6_2 In1 1_555 1_555
C12_2 O5_2 1_555 1_555
O9 In1 1_555 1_555
O10 In1 1_555 1_555
O11 In1 1_555 1_555
O12 In1 1_555 1_555
O6_2 C12_2 1_555 1_555
In1_2 O1_3 1_555 1_555
O1_3 C4_3 1_555 1_555
O2_3 In1_2 1_555 1_555
C1_3 H1_3 1_555 1_555
C2_3 C1_3 1_555 1_555
C3_3 C2_3 1_555 1_555
H2_3 C3_3 1_555 1_555
C4_3 O2_3 1_555 1_555
O10 C8_2 1_555 1_555
O12 C8_2 1_555 1_555
C5_3 C1_3 1_555 1_555
H3_3 C5_3 1_555 1_555
C6_3 C5_3 1_555 1_555
C7_3 C3_3 1_555 1_555
H4_3 C7_3 1_555 1_555
C8_2 C6_3 1_555 1_555
O9_2 In1_2 1_555 1_555
O11_2 In1_2 1_555 1_555
C2_3 C4_3 1_555 1_555
C6_3 C7_3 1_555 1_555
O5_3 In1_3 1_555 1_555
O6_3 In1_3 1_555 1_555
C9_3 H5_3 1_555 1_555
C10_3 C9_3 1_555 1_555
C11_3 C10_3 1_555 1_555
H6_3 C11_3 1_555 1_555
C12_3 O5_3 1_555 1_555
O9 C16_2 1_555 1_555
O11 C16_2 1_555 1_555
C13_3 C9_3 1_555 1_555
H7_3 C13_3 1_555 1_555
C14_3 C13_3 1_555 1_555
C15_3 C11_3 1_555 1_555
H8_3 C15_3 1_555 1_555
C16_2 C14_3 1_555 1_555
O10_2 In1_3 1_555 1_555
O12_2 In1_3 1_555 1_555
O6_3 C12_3 1_555 1_555
C10_3 C12_3 1_555 1_555
C14_3 C15_3 1_555 1_555
O10_2 C8_3 1_555 1_555
O12_2 C8_3 1_555 1_555
O9_2 C16_3 1_555 1_555
O11_2 C16_3 1_555 1_555

#END
