
###############################################################################
#
# This file contains modified crystal structure data generated from the
# MOF subset of the Cambridge Structural Database (CSD) v543 
# hosted by the Cambridge Crystallographic Data Centre (CCDC).
#
# This work is licensed under the Creative Commons
# Attribution-NonCommercial-ShareAlike 4.0 International License.
# To view a copy of this license, visit
# http://creativecommons.org/licenses/by-nc-sa/4.0/
# or send a letter to
# Creative Commons, PO Box 1866, Mountain View, CA 94042, USA.
#
# CIF created using the CSD Python API on 29 September 2022
# The structure has been converted into the P1 space group
# The structure has a 3D framework
# The original CSD entry VACFUB01 is in the hexagonal crystal system
# The original CSD entry VACFUB01 is in a Sohncke space group
# The framework has been calculated to contain at least 10.0% void space
# The void calculation uses a probe of radius 1.32A, grid spacing 0.4
#
###############################################################################

data_VACFUB01
_chemical_formula_moiety         '(C36 H24 N6 O12 Zn3)n'
_symmetry_cell_setting           triclinic
_symmetry_space_group_name_H-M   'P 1'
_symmetry_Int_Tables_number      1
_space_group_name_Hall           'P 1'
loop_
_symmetry_equiv_pos_site_id
_symmetry_equiv_pos_as_xyz
1 x,y,z
_cell_length_a                   15.512(3)
_cell_length_b                   15.512(3)
_cell_length_c                   6.262(2)
_cell_angle_alpha                90
_cell_angle_beta                 90
_cell_angle_gamma                120
_cell_volume                     1304.91
loop_
_atom_site_label
_atom_site_type_symbol
_atom_site_fract_x
_atom_site_fract_y
_atom_site_fract_z
Zn1 Zn 0.5000 0.0000 0.14960(11)
N3 N 0.61831(19) 0.09490(18) 0.3296(5)
Zn2 Zn 1.0000 0.5000 0.81627(11)
O2 O 0.4404(4) 0.1415(3) 0.2362(5)
C1 C 0.4577(4) 0.1439(3) 0.0461(6)
H1 H 0.3981 0.2764 0.1179
N2 N 0.90510(32) 0.52341(26) 0.9963(5)
C11 C 0.8128(5) 0.4908(4) 0.9235(6)
H7 H 0.7961 0.4619 0.7887
H8 H 0.6789 0.4767 0.9827
O4 O 0.91458(19) 0.39519(31) 0.6166(4)
O2_2 O 0.8585(3) 0.2989(2) 0.9029(5)
C1_2 C 0.8561(3) 0.3138(3) 0.7128(6)
C2 C 0.7737(3) 0.2358(3) 0.5739(6)
C3 C 0.7130(3) 0.1399(2) 0.6498(7)
H1_2 H 0.7236 0.1217 0.7846
C4 C 0.6371(3) 0.0724(2) 0.5228(6)
H2 H 0.5971 0.0081 0.5739
C5 C 0.6780(3) 0.1872(3) 0.2568(6)
H3 H 0.6658 0.2039 0.1220
C6 C 0.7566(3) 0.2582(3) 0.3734(6)
H4 H 0.7978 0.3211 0.3160
O4_2 O 0.48061(25) 0.08542(19) 0.9499(4)
Zn3 Zn 0.5000 0.5000 0.48293(11)
N2_2 N 0.52341(26) 0.61831(19) 0.6629(5)
O3 O 0.51939(25) 0.91458(19) 0.9499(4)
C8 C 0.5379(4) 0.7737(3) 0.9072(6)
C9 C 0.5731(4) 0.7130(3) 0.9831(7)
C10 C 0.5647(4) 0.6371(3) 0.8561(6)
H6 H 0.5890 0.5971 0.9072
C11_2 C 0.4908(4) 0.6780(3) 0.5901(6)
H7_2 H 0.4619 0.6658 0.4553
C12 C 0.4984(4) 0.7566(3) 0.7067(6)
H8_2 H 0.4767 0.7978 0.6493
N1 N 0.47659(26) 0.38169(19) 0.6629(5)
C2_2 C 0.4621(4) 0.2263(3) 0.9072(6)
C3_2 C 0.4269(4) 0.2870(3) 0.9831(7)
C4_2 C 0.4353(4) 0.3629(3) 0.8561(6)
H2_2 H 0.4110 0.4029 0.9072
C5_2 C 0.5092(4) 0.3220(3) 0.5901(6)
H3_2 H 0.5381 0.3342 0.4553
C6_2 C 0.5016(4) 0.2434(3) 0.7067(6)
H4_2 H 0.5233 0.2022 0.6493
O3_2 O 0.60481(31) 0.51939(25) 0.2833(4)
O4_3 O 0.39519(31) 0.48061(25) 0.2833(4)
O5 O 0.7011(5) 0.5596(4) 0.5696(5)
C7 C 0.6862(5) 0.5423(4) 0.3795(6)
C8_2 C 0.7642(5) 0.5379(4) 0.2406(6)
C9_2 C 0.8601(5) 0.5731(4) 0.3165(7)
H5 H 0.8783 0.6019 0.4513
C10_2 C 0.9276(5) 0.5647(4) 0.1895(6)
H6_2 H 0.9919 0.5890 0.2406
C12_2 C 0.7418(5) 0.4984(4) 0.0401(6)
O2_3 O 0.2989(2) 0.4404(4) 0.5696(5)
C1_3 C 0.3138(3) 0.4577(4) 0.3795(6)
C2_3 C 0.2358(3) 0.4621(4) 0.2406(6)
C3_3 C 0.1399(2) 0.4269(4) 0.3165(7)
H1_3 H 0.1217 0.3981 0.4513
C4_3 C 0.0724(2) 0.4353(4) 0.1895(6)
H2_3 H 0.0081 0.4110 0.2406
C6_3 C 0.2582(3) 0.5016(4) 0.0401(6)
Zn1_2 Zn 0.5000 1.0000 0.14960(11)
N1_2 N 0.38169(19) 0.90510(18) 0.3296(5)
O1 O 0.08542(19) 0.60481(16) 0.6166(4)
O2_4 O 0.1415(3) 0.7011(2) 0.9029(5)
C1_4 C 0.1439(3) 0.6862(3) 0.7128(6)
C2_4 C 0.2263(3) 0.7642(3) 0.5739(6)
C3_4 C 0.2870(3) 0.8601(2) 0.6498(7)
H1_4 H 0.2764 0.8783 0.7846
C4_4 C 0.3629(3) 0.9276(2) 0.5228(6)
H2_4 H 0.4029 0.9919 0.5739
C5_3 C 0.3220(3) 0.8128(3) 0.2568(6)
H3_3 H 0.3342 0.7961 0.1220
C6_4 C 0.2434(3) 0.7418(3) 0.3734(6)
H4_3 H 0.2022 0.6789 0.3160
Zn2_2 Zn 0.0000 0.5000 0.81627(11)
O5_2 O 0.5596(4) 0.8585(3) 0.2362(5)
C7_2 C 0.5423(4) 0.8561(3) 0.0461(6)
H5_2 H 0.6019 0.7236 0.1179
N1_3 N 0.09490(18) 0.47659(26) 0.9963(5)
C5_4 C 0.1872(3) 0.5092(4) 0.9235(6)
H3_4 H 0.2039 0.5381 0.7887
H4_4 H 0.3211 0.5233 0.9827
loop_
_geom_bond_atom_site_label_1
_geom_bond_atom_site_label_2
_geom_bond_site_symmetry_1
_geom_bond_site_symmetry_2
N3 Zn1 1_555 1_555
O2 C1 1_555 1_555
Zn2 N2 1_555 1_555
C11 N2 1_555 1_555
H7 C11 1_555 1_555
O4 Zn2 1_555 1_555
N3 C4 1_555 1_555
O4 C1_2 1_555 1_555
O2_2 C1_2 1_555 1_555
C1_2 C2 1_555 1_555
C2 C3 1_555 1_555
C3 H1_2 1_555 1_555
C4 C3 1_555 1_555
H2 C4 1_555 1_555
C5 N3 1_555 1_555
H3 C5 1_555 1_555
C6 C2 1_555 1_555
H4 C6 1_555 1_555
C5 C6 1_555 1_555
Zn3 N2_2 1_555 1_555
N2_2 C10 1_555 1_555
C9 C8 1_555 1_555
C10 C9 1_555 1_555
H6 C10 1_555 1_555
C11_2 N2_2 1_555 1_555
H7_2 C11_2 1_555 1_555
C12 C8 1_555 1_555
H8_2 C12 1_555 1_555
C11_2 C12 1_555 1_555
Zn3 N1 1_555 1_555
N1 C4_2 1_555 1_555
C2_2 C3_2 1_555 1_555
C4_2 C3_2 1_555 1_555
H2_2 C4_2 1_555 1_555
C5_2 N1 1_555 1_555
H3_2 C5_2 1_555 1_555
C6_2 C2_2 1_555 1_555
H4_2 C6_2 1_555 1_555
O3_2 Zn3 1_555 1_555
O4_3 Zn3 1_555 1_555
O5 C7 1_555 1_555
C7 O3_2 1_555 1_555
C8_2 C7 1_555 1_555
C9_2 C8_2 1_555 1_555
H5 C9_2 1_555 1_555
C10_2 C9_2 1_555 1_555
H6_2 C10_2 1_555 1_555
C12_2 C8_2 1_555 1_555
C5_2 C6_2 1_555 1_555
O4_3 C1_3 1_555 1_555
O2_3 C1_3 1_555 1_555
C1_3 C2_3 1_555 1_555
C2_3 C3_3 1_555 1_555
C3_3 H1_3 1_555 1_555
C4_3 C3_3 1_555 1_555
H2_3 C4_3 1_555 1_555
C6_3 C2_3 1_555 1_555
Zn1_2 N1_2 1_555 1_555
N1_2 C4_4 1_555 1_555
O1 C1_4 1_555 1_555
O2_4 C1_4 1_555 1_555
C1_4 C2_4 1_555 1_555
C2_4 C3_4 1_555 1_555
C3_4 H1_4 1_555 1_555
C4_4 C3_4 1_555 1_555
H2_4 C4_4 1_555 1_555
C5_3 N1_2 1_555 1_555
H3_3 C5_3 1_555 1_555
C6_4 C2_4 1_555 1_555
H4_3 C6_4 1_555 1_555
Zn2_2 O1 1_555 1_555
O5_2 C7_2 1_555 1_555
C5_3 C6_4 1_555 1_555
Zn2_2 N1_3 1_555 1_555
C5_4 N1_3 1_555 1_555
H3_4 C5_4 1_555 1_555

#END
