
###############################################################################
#
# This file contains modified crystal structure data generated from the
# MOF subset of the Cambridge Structural Database (CSD) v543 
# hosted by the Cambridge Crystallographic Data Centre (CCDC).
#
# This work is licensed under the Creative Commons
# Attribution-NonCommercial-ShareAlike 4.0 International License.
# To view a copy of this license, visit
# http://creativecommons.org/licenses/by-nc-sa/4.0/
# or send a letter to
# Creative Commons, PO Box 1866, Mountain View, CA 94042, USA.
#
# CIF created using the CSD Python API on 29 September 2022
# The structure has been converted into the P1 space group
# The structure has a 3D framework
# The original CSD entry VACFUB is in the trigonal crystal system
# The original CSD entry VACFUB is in a Sohncke space group
# The framework has been calculated to contain at least 10.0% void space
# The void calculation uses a probe of radius 1.32A, grid spacing 0.4
# H atom positions have been added when not included in the experimental data
#
###############################################################################

data_VACFUB
_chemical_formula_moiety         '(C36 H24 N6 O12 Zn3)n'
_symmetry_cell_setting           triclinic
_symmetry_space_group_name_H-M   'P 1'
_symmetry_Int_Tables_number      1
_space_group_name_Hall           'P 1'
loop_
_symmetry_equiv_pos_site_id
_symmetry_equiv_pos_as_xyz
1 x,y,z
_cell_length_a                   15.526(5)
_cell_length_b                   15.526(5)
_cell_length_c                   6.258(3)
_cell_angle_alpha                90
_cell_angle_beta                 90
_cell_angle_gamma                120
_cell_volume                     1306.43
loop_
_atom_site_label
_atom_site_type_symbol
_atom_site_fract_x
_atom_site_fract_y
_atom_site_fract_z
N1 N 0.2382(5) 0.1910(5) 0.5354(10)
C1 C 0.0188(6) 0.2077(7) 0.1499(14)
C3 C 0.0975(5) 0.2047(6) 0.2921(11)
C4 C 0.1473(6) 0.1582(6) 0.6095(13)
C7 C 0.0721(6) 0.1635(7) 0.4924(13)
C9 C 0.1943(6) 0.2409(7) 0.2126(13)
C11 C 0.2633(6) 0.2320(6) 0.3405(13)
Zn2 Zn 0.33334(8) 0.16673(6) 0.71512(15)
H3 H 0.338378 0.258718 0.281004
H4 H 0.215046 0.275071 0.0550907
H6 H 0.129381 0.125461 0.76862
Zn1 Zn 0.83327(6) 0.16661(6) 0.04845(15)
O1 O 0.7288(4) 0.1480(4) 0.2481(8)
O2 O 0.9385(4) 0.1863(4) 0.2485(8)
N2 N 0.4278(5) 0.1419(5) 0.5350(9)
C2 C 0.6483(6) 0.1260(6) 0.1513(14)
C5 C 0.5691(5) 0.1275(6) 0.2907(12)
C6 C 0.4722(6) 0.0919(6) 0.2120(13)
C8 C 0.5934(6) 0.1693(7) 0.4922(13)
C10 C 0.5198(7) 0.1740(6) 0.6104(13)
C12 C 0.4054(6) 0.1021(6) 0.3392(13)
H1 H 0.667916 0.197751 0.556782
H2 H 0.450616 0.0572755 0.0550439
H5 H 0.330899 0.0765701 0.277449
H7 H 0.537749 0.205086 0.770978
H8 H 0.997926 0.136297 0.557838
H6_2 H 0.874539 0.0039206 0.101953
H7_2 H 0.794914 0.332663 0.104312
O1_2 O 0.4192(6) 0.2712(4) 0.9148(8)
O2_2 O 0.2478(6) 0.0615(4) 0.9152(8)
C2_2 C 0.4777(8) 0.3517(6) 0.8180(14)
O3 O 0.4759(8) 0.3681(5) 0.6267(9)
C5_2 C 0.5584(8) 0.4309(5) 0.9574(12)
C6_2 C 0.6197(8) 0.5278(6) 0.8787(13)
H2_2 H 0.606659 0.549384 0.721711
H5_2 H 0.745671 0.669101 0.944116
O4 O 0.0344(5) 0.2250(6) 0.9598(10)
O3_2 O 0.6319(5) 0.1078(6) 0.9600(9)
N3 N 0.8090(5) 0.0472(7) 0.8687(10)
N4 N 0.8581(5) 0.2859(7) 0.8683(9)
C11_2 C 0.7680(6) 0.0313(8) 0.6738(13)
H3_2 H 0.741282 0.07966 0.614337
Zn1_2 Zn 0.83339(6) 0.66666(8) 0.38178(15)
O1_3 O 0.8520(4) 0.5808(6) 0.5814(8)
O2_3 O 0.8137(4) 0.7522(6) 0.5818(8)
C1_2 C 0.7923(7) 0.8111(9) 0.4832(14)
C2_3 C 0.8740(6) 0.5223(8) 0.4846(14)
O3_3 O 0.8922(6) 0.5241(8) 0.2933(9)
C3_2 C 0.7953(6) 0.8928(8) 0.6254(11)
C4_2 C 0.8418(6) 0.9891(8) 0.9428(13)
O4_2 O 0.7750(6) 0.8094(8) 0.2931(10)
C5_3 C 0.8725(6) 0.4416(8) 0.6240(12)
C6_3 C 0.9081(6) 0.3803(8) 0.5453(13)
C7_2 C 0.8365(7) 0.9086(9) 0.8257(13)
C8_2 C 0.8307(7) 0.4241(9) 0.8255(13)
C9_2 C 0.7591(7) 0.9534(9) 0.5459(13)
C10_2 C 0.8260(6) 0.3458(9) 0.9437(13)
C12_2 C 0.8979(6) 0.3033(8) 0.6725(13)
N3_2 N 0.9528(7) 0.7618(9) 0.2021(10)
N4_2 N 0.7141(7) 0.5722(9) 0.2017(9)
H1_2 H 0.802249 0.470165 0.890115
H2_3 H 0.942725 0.393341 0.388377
H4_2 H 0.724929 0.939976 0.388424
H5_3 H 0.92343 0.254329 0.610782
H8_2 H 0.863703 0.861629 0.891171
C8_3 C 0.5759(9) 0.4066(6) 0.1589(13)
C10_3 C 0.6542(9) 0.4802(7) 0.2771(13)
C12_3 C 0.6967(8) 0.5946(6) 0.0059(13)
H1_3 H 0.529835 0.332084 0.223449
H7_3 H 0.667337 0.462251 0.437645
H8_3 H 0.138371 0.00207378 0.224504
C11_3 C 0.9687(8) 0.7367(6) 0.0072(13)
H6_3 H 0.996079 0.870619 0.435286
C4_3 C 0.0109(8) 0.8527(6) 0.2762(13)
C7_3 C 0.0914(9) 0.9279(6) 0.1591(13)
C1_3 C 0.1889(9) 0.9812(6) 0.8166(14)
C3_3 C 0.1072(8) 0.9025(5) 0.9588(11)
O4_3 O 0.1906(8) 0.9656(5) 0.6265(10)
C9_3 C 0.0466(9) 0.8057(6) 0.8793(13)
H4_3 H 0.0600243 0.784954 0.721757
H3_3 H 0.92034 0.661622 0.947671
loop_
_geom_bond_atom_site_label_1
_geom_bond_atom_site_label_2
_geom_bond_site_symmetry_1
_geom_bond_site_symmetry_2
N1 C4 1_555 1_555
C3 C1 1_555 1_555
C4 C7 1_555 1_555
C7 C3 1_555 1_555
C9 C3 1_555 1_555
C11 N1 1_555 1_555
Zn2 N1 1_555 1_555
C9 C11 1_555 1_555
C11 H3 1_555 1_555
C9 H4 1_555 1_555
C4 H6 1_555 1_555
Zn1 O1 1_555 1_555
O1 C2 1_555 1_555
O2 Zn1 1_555 1_555
N2 C10 1_555 1_555
C5 C2 1_555 1_555
C6 C5 1_555 1_555
C8 C5 1_555 1_555
C10 C8 1_555 1_555
C12 N2 1_555 1_555
Zn2 N2 1_555 1_555
C6 C12 1_555 1_555
C8 H1 1_555 1_555
C6 H2 1_555 1_555
C12 H5 1_555 1_555
C10 H7 1_555 1_555
Zn2 O1_2 1_555 1_555
O1_2 C2_2 1_555 1_555
O2_2 Zn2 1_555 1_555
C2_2 O3 1_555 1_555
C5_2 C2_2 1_555 1_555
C6_2 C5_2 1_555 1_555
C6_2 H2_2 1_555 1_555
C11_2 N3 1_555 1_555
C11_2 H3_2 1_555 1_555
Zn1_2 O1_3 1_555 1_555
O1_3 C2_3 1_555 1_555
O2_3 Zn1_2 1_555 1_555
N4 C10_2 1_555 1_555
C1_2 O2_3 1_555 1_555
C2_3 O3_3 1_555 1_555
C3_2 C1_2 1_555 1_555
C4_2 C7_2 1_555 1_555
O4_2 C1_2 1_555 1_555
C5_3 C2_3 1_555 1_555
C6_3 C5_3 1_555 1_555
C7_2 C3_2 1_555 1_555
C8_2 C5_3 1_555 1_555
C9_2 C3_2 1_555 1_555
C10_2 C8_2 1_555 1_555
C12_2 N4 1_555 1_555
N3_2 Zn1_2 1_555 1_555
N4_2 Zn1_2 1_555 1_555
C6_3 C12_2 1_555 1_555
C8_2 H1_2 1_555 1_555
C6_3 H2_3 1_555 1_555
C9_2 H4_2 1_555 1_555
C12_2 H5_3 1_555 1_555
C7_2 H8_2 1_555 1_555
N4_2 C10_3 1_555 1_555
C10_3 C8_3 1_555 1_555
C12_3 N4_2 1_555 1_555
C8_3 H1_3 1_555 1_555
C10_3 H7_3 1_555 1_555
C11_3 N3_2 1_555 1_555
C4_3 C7_3 1_555 1_555
C3_3 C1_3 1_555 1_555
O4_3 C1_3 1_555 1_555
C9_3 C3_3 1_555 1_555
C9_3 H4_3 1_555 1_555

#END
