
###############################################################################
#
# This file contains modified crystal structure data generated from the
# MOF subset of the Cambridge Structural Database (CSD) v543 
# hosted by the Cambridge Crystallographic Data Centre (CCDC).
#
# This work is licensed under the Creative Commons
# Attribution-NonCommercial-ShareAlike 4.0 International License.
# To view a copy of this license, visit
# http://creativecommons.org/licenses/by-nc-sa/4.0/
# or send a letter to
# Creative Commons, PO Box 1866, Mountain View, CA 94042, USA.
#
# CIF created using the CSD Python API on 29 September 2022
# The structure has been converted into the P1 space group
# The structure has a 3D framework
# The original CSD entry VACKUI is in the monoclinic crystal system
# The framework has been calculated to contain at least 10.0% void space
# The void calculation uses a probe of radius 1.32A, grid spacing 0.4
# The framework is charged, counterions have been retained in the structure
#
###############################################################################

data_VACKUI
_chemical_formula_moiety         '(C320 H192 Co13 N16 O64 8-)n'
_symmetry_cell_setting           triclinic
_symmetry_space_group_name_H-M   'P 1'
_symmetry_Int_Tables_number      1
_space_group_name_Hall           'P 1'
loop_
_symmetry_equiv_pos_site_id
_symmetry_equiv_pos_as_xyz
1 x,y,z
_cell_length_a                   40.2669(10)
_cell_length_b                   13.9032(5)
_cell_length_c                   25.9948(9)
_cell_angle_alpha                90
_cell_angle_beta                 104.201(3)
_cell_angle_gamma                90
_cell_volume                     14108.2
loop_
_atom_site_label
_atom_site_type_symbol
_atom_site_fract_x
_atom_site_fract_y
_atom_site_fract_z
Co9 Co 0.294246(7) 0.02614(2) 0.538034(13)
Co6 Co 0.7500 0.2500 0.0000
Co10 Co 0.794246(7) 0.47386(2) 0.038034(13)
Co1 Co 0.7500 0.7500 0.5000
Co2 Co 0.794246(7) 0.52614(2) 0.538034(13)
O1 O 0.30269(2) 0.17860(9) 0.51551(5)
O2 O 0.72977(3) 0.37814(10) 0.96317(7)
O3 O 0.33858(3) 0.11303(11) 0.58444(6)
O4 O 0.74125(4) 0.69880(12) 0.57148(6)
O5 O 0.31042(3) 0.88653(10) 0.57172(6)
O6 O 0.75969(3) 0.51221(10) 0.96760(5)
O7 O 0.76347(3) 0.54981(11) 0.59016(6)
O8 O 0.33936(3) 0.93775(11) 0.51564(7)
N1 N 0.40933(4) 0.52539(13) 0.58247(10)
N2 N 0.65931(3) 0.55971(15) 0.73845(7)
C1 C 0.71438(4) 0.48711(14) 0.89140(8)
C2 C 0.36340(4) 0.42854(15) 0.52971(10)
H1 H 0.3581 0.4794 0.5046
C3 C 0.39078(4) 0.61373(16) 0.57358(11)
C4 C 0.39051(4) 0.43767(15) 0.57378(11)
C5 C 0.44487(4) 0.52641(17) 0.60598(12)
C6 C 0.73661(4) 0.45703(15) 0.94541(8)
C7 C 0.67599(4) 0.53526(17) 0.79084(8)
C8 C 0.36176(4) 0.62470(15) 0.59143(9)
H2 H 0.3542 0.5738 0.6101
C9 C 0.72132(4) 0.60227(15) 0.63188(8)
C10 C 0.35411(4) 0.78376(15) 0.55620(9)
C11 C 0.72876(4) 0.53046(15) 0.67006(8)
H3 H 0.7483 0.4910 0.6724
C12 C 0.34390(4) 0.34533(15) 0.52208(9)
H4 H 0.3252 0.3393 0.4918
C13 C 0.68005(4) 0.57313(17) 0.70184(8)
C14 C 0.37967(4) 0.27984(16) 0.60197(10)
H5 H 0.3859 0.2281 0.6263
C15 C 0.62362(4) 0.54343(18) 0.71841(10)
C16 C 0.68746(4) 0.42931(15) 0.86566(9)
H6 H 0.6822 0.3725 0.8824
C17 C 0.38373(5) 0.77277(16) 0.53724(11)
H7 H 0.3910 0.8235 0.5181
C18 C 0.45910(4) 0.59660(16) 0.64181(11)
H8 H 0.4450 0.6452 0.6510
C19 C 0.72150(4) 0.57039(15) 0.86795(8)
H9 H 0.7397 0.6105 0.8860
C20 C 0.70853(4) 0.51549(15) 0.70426(8)
H10 H 0.7139 0.4655 0.7298
C21 C 0.35160(4) 0.27015(14) 0.55888(9)
C22 C 0.74355(5) 0.61882(18) 0.59426(8)
C23 C 0.70234(5) 0.59628(16) 0.81822(9)
H11 H 0.7069 0.6550 0.8026
C24 C 0.49429(4) 0.59656(16) 0.66469(10)
H12 H 0.5037 0.6462 0.6890
C25 C 0.39875(4) 0.36371(17) 0.61003(11)
H13 H 0.4174 0.3703 0.6403
C26 C 0.33013(4) 0.18362(15) 0.55290(9)
C27 C 0.34346(4) 0.70994(15) 0.58232(9)
H14 H 0.3232 0.7168 0.5945
C28 C 0.46592(5) 0.45594(18) 0.59331(13)
H15 H 0.4564 0.4069 0.5686
C29 C 0.67245(5) 0.64481(18) 0.66382(9)
H16 H 0.6528 0.6840 0.6613
C30 C 0.61098(5) 0.5060(2) 0.66855(11)
H17 H 0.6263 0.4853 0.6483
C31 C 0.40211(5) 0.68945(17) 0.54629(12)
H18 H 0.4224 0.6826 0.5343
C32 C 0.60142(5) 0.57097(18) 0.74917(10)
H19 H 0.6100 0.5944 0.7843
C33 C 0.69301(5) 0.65957(17) 0.63005(8)
H20 H 0.6878 0.7102 0.6048
C34 C 0.66802(4) 0.45426(16) 0.81512(9)
H21 H 0.6493 0.4150 0.7977
C35 C 0.51553(4) 0.52785(17) 0.65343(12)
C36 C 0.57546(5) 0.4982(2) 0.64738(12)
H22 H 0.5668 0.4725 0.6128
C37 C 0.33340(5) 0.87492(15) 0.54693(10)
C38 C 0.50056(5) 0.45687(18) 0.61650(13)
H23 H 0.5147 0.4083 0.6073
C39 C 0.55290(5) 0.52834(18) 0.67750(12)
C40 C 0.56636(5) 0.56337(18) 0.72723(11)
H24 H 0.5511 0.5835 0.7478
Co3 Co 0.205754(7) 0.47386(2) 0.461966(13)
O9 O 0.69731(2) 0.82140(9) 0.48449(5)
O10 O 0.27023(3) 0.62186(10) 0.03683(7)
O11 O 0.66142(3) 0.88697(11) 0.41556(6)
O12 O 0.25875(4) 0.30120(12) 0.42852(6)
O13 O 0.68958(3) 0.11347(10) 0.42828(6)
O14 O 0.24031(3) 0.48779(10) 0.03240(5)
O15 O 0.23653(3) 0.45019(11) 0.40984(6)
O16 O 0.66064(3) 0.06225(11) 0.48436(7)
N3 N 0.59067(4) 0.47461(13) 0.41753(10)
N4 N 0.34069(3) 0.44029(15) 0.26155(7)
C41 C 0.28562(4) 0.51289(14) 0.10860(8)
C42 C 0.63660(4) 0.57146(15) 0.47029(10)
H25 H 0.6419 0.5206 0.4954
C43 C 0.60922(4) 0.38627(16) 0.42642(11)
C44 C 0.60949(4) 0.56233(15) 0.42622(11)
C45 C 0.55513(4) 0.47359(17) 0.39402(12)
C46 C 0.26339(4) 0.54297(15) 0.05459(8)
C47 C 0.32401(4) 0.46474(17) 0.20916(8)
C48 C 0.63824(4) 0.37530(15) 0.40857(9)
H26 H 0.6458 0.4262 0.3899
C49 C 0.27868(4) 0.39773(15) 0.36812(8)
C50 C 0.64589(4) 0.21624(15) 0.44380(9)
C51 C 0.27124(4) 0.46954(15) 0.32994(8)
H27 H 0.2517 0.5090 0.3276
C52 C 0.65610(4) 0.65467(15) 0.47792(9)
H28 H 0.6748 0.6607 0.5082
C53 C 0.31995(4) 0.42687(17) 0.29816(8)
C54 C 0.62033(4) 0.72016(16) 0.39803(10)
H29 H 0.6141 0.7719 0.3737
C55 C 0.37638(4) 0.45657(18) 0.28159(10)
C56 C 0.31254(4) 0.57069(15) 0.13434(9)
H30 H 0.3178 0.6275 0.1176
C57 C 0.61627(5) 0.22723(16) 0.46276(11)
H31 H 0.6090 0.1765 0.4819
C58 C 0.54090(4) 0.40340(16) 0.35819(11)
H32 H 0.5550 0.3548 0.3490
C59 C 0.27850(4) 0.42961(15) 0.13205(8)
H33 H 0.2603 0.3895 0.1140
C60 C 0.29147(4) 0.48451(15) 0.29574(8)
H34 H 0.2861 0.5345 0.2702
C61 C 0.64840(4) 0.72985(14) 0.44112(9)
C62 C 0.25645(5) 0.38118(18) 0.40574(8)
C63 C 0.29766(5) 0.40372(16) 0.18178(9)
H35 H 0.2931 0.3450 0.1974
C64 C 0.50571(4) 0.40344(16) 0.33531(10)
H36 H 0.4963 0.3538 0.3110
C65 C 0.60125(4) 0.63629(17) 0.38997(11)
H37 H 0.5826 0.6297 0.3597
C66 C 0.66987(4) 0.81638(15) 0.44710(9)
C67 C 0.65654(4) 0.29006(15) 0.41768(9)
H38 H 0.6768 0.2832 0.4055
C68 C 0.53408(5) 0.54406(18) 0.40669(13)
H39 H 0.5436 0.5931 0.4314
C69 C 0.32755(5) 0.35519(18) 0.33618(9)
H40 H 0.3472 0.3160 0.3387
C70 C 0.38902(5) 0.4940(2) 0.33145(11)
H41 H 0.3737 0.5147 0.3517
C71 C 0.59789(5) 0.31055(17) 0.45371(12)
H42 H 0.5776 0.3174 0.4657
C72 C 0.39858(5) 0.42903(18) 0.25083(10)
H43 H 0.3900 0.4056 0.2157
C73 C 0.30699(5) 0.34043(17) 0.36995(8)
H44 H 0.3122 0.2898 0.3952
C74 C 0.33198(4) 0.54574(16) 0.18488(9)
H45 H 0.3507 0.5850 0.2023
C75 C 0.48447(4) 0.47215(17) 0.34657(12)
C76 C 0.42454(5) 0.5018(2) 0.35262(12)
H46 H 0.4332 0.5275 0.3872
C77 C 0.66660(5) 0.12508(15) 0.45307(10)
C78 C 0.49944(5) 0.54313(18) 0.38350(13)
H47 H 0.4853 0.5917 0.3927
C79 C 0.44710(5) 0.47166(18) 0.32250(12)
C80 C 0.43364(5) 0.43663(18) 0.27277(11)
H48 H 0.4489 0.4165 0.2522
Co4 Co 0.2500 0.7500 0.0000
Co5 Co 0.2500 0.2500 0.5000
Co6_2 Co 0.7500 0.2500 1.0000
Co12 Co 0.705754(7) 0.97386(2) 0.461966(13)
O17 O 0.80269(2) 0.67860(9) 0.51551(5)
O18 O 0.19731(2) 0.32140(9) 0.48449(5)
O19 O 0.77023(3) 0.87814(10) 0.53683(7)
O20 O 0.72977(3) 0.62186(10) 0.46317(7)
O21 O 0.83858(3) 0.61303(11) 0.58444(6)
O22 O 0.16142(3) 0.38697(11) 0.41556(6)
O23 O 0.75875(4) 0.80120(12) 0.42852(6)
O24 O 0.81042(3) 0.38653(10) 0.57172(6)
O25 O 0.18958(3) 0.61347(10) 0.42828(6)
O26 O 0.24031(3) 0.51221(10) 0.53240(5)
O27 O 0.75969(3) 0.48779(10) 0.46760(5)
O28 O 0.83936(3) 0.43775(11) 0.51564(7)
O29 O 0.16064(3) 0.56225(11) 0.48436(7)
Co4_2 Co 0.2500 0.7500 1.0000
Co7 Co 0.205754(7) 0.52614(2) 0.961966(13)
Co9_2 Co 0.705754(7) 0.02614(2) 0.961966(13)
H4_2 H 0.6748 0.3393 0.0082
O9_2 O 0.30269(2) 0.82140(9) 0.01551(5)
O11_2 O 0.33858(3) 0.88697(11) 0.08444(6)
O12_2 O 0.74125(4) 0.30120(12) 0.07148(6)
O13_2 O 0.31042(3) 0.11347(10) 0.07172(6)
O15_2 O 0.76347(3) 0.45019(11) 0.09016(6)
O16_2 O 0.33936(3) 0.06225(11) 0.01564(7)
N3_2 N 0.40933(4) 0.47461(13) 0.08247(10)
N4_2 N 0.65931(3) 0.44029(15) 0.23845(7)
C41_2 C 0.71438(4) 0.51289(14) 0.39140(8)
C42_2 C 0.36340(4) 0.57146(15) 0.02971(10)
H25_2 H 0.3581 0.5206 0.0046
C43_2 C 0.39078(4) 0.38627(16) 0.07358(11)
C44_2 C 0.39051(4) 0.56233(15) 0.07378(11)
C45_2 C 0.44487(4) 0.47359(17) 0.10598(12)
C46_2 C 0.73661(4) 0.54297(15) 0.44541(8)
C47_2 C 0.67599(4) 0.46474(17) 0.29084(8)
C48_2 C 0.36176(4) 0.37530(15) 0.09143(9)
H26_2 H 0.3542 0.4262 0.1101
C49_2 C 0.72132(4) 0.39773(15) 0.13188(8)
C50_2 C 0.35411(4) 0.21624(15) 0.05620(9)
C51_2 C 0.72876(4) 0.46954(15) 0.17006(8)
H27_2 H 0.7483 0.5090 0.1724
C52_2 C 0.34390(4) 0.65467(15) 0.02208(9)
C53_2 C 0.68005(4) 0.42687(17) 0.20184(8)
C54_2 C 0.37967(4) 0.72016(16) 0.10197(10)
H29_2 H 0.3859 0.7719 0.1263
C55_2 C 0.62362(4) 0.45657(18) 0.21841(10)
C56_2 C 0.68746(4) 0.57069(15) 0.36566(9)
H30_2 H 0.6822 0.6275 0.3824
C57_2 C 0.38373(5) 0.22723(16) 0.03724(11)
H31_2 H 0.3910 0.1765 0.0181
C58_2 C 0.45910(4) 0.40340(16) 0.14181(11)
H32_2 H 0.4450 0.3548 0.1510
C59_2 C 0.72150(4) 0.42961(15) 0.36795(8)
H33_2 H 0.7397 0.3895 0.3860
C60_2 C 0.70853(4) 0.48451(15) 0.20426(8)
H34_2 H 0.7139 0.5345 0.2298
C61_2 C 0.35160(4) 0.72985(14) 0.05888(9)
C62_2 C 0.74355(5) 0.38118(18) 0.09426(8)
C63_2 C 0.70234(5) 0.40372(16) 0.31822(9)
H35_2 H 0.7069 0.3450 0.3026
C64_2 C 0.49429(4) 0.40344(16) 0.16469(10)
H36_2 H 0.5037 0.3538 0.1890
C65_2 C 0.39875(4) 0.63629(17) 0.11003(11)
H37_2 H 0.4174 0.6297 0.1403
C66_2 C 0.33013(4) 0.81638(15) 0.05290(9)
C67_2 C 0.34346(4) 0.29006(15) 0.08232(9)
H38_2 H 0.3232 0.2832 0.0945
C68_2 C 0.46592(5) 0.54406(18) 0.09331(13)
H39_2 H 0.4564 0.5931 0.0686
C69_2 C 0.67245(5) 0.35519(18) 0.16382(9)
H40_2 H 0.6528 0.3160 0.1613
C70_2 C 0.61098(5) 0.4940(2) 0.16855(11)
H41_2 H 0.6263 0.5147 0.1483
C71_2 C 0.40211(5) 0.31055(17) 0.04629(12)
H42_2 H 0.4224 0.3174 0.0343
C72_2 C 0.60142(5) 0.42903(18) 0.24917(10)
H43_2 H 0.6100 0.4056 0.2843
C73_2 C 0.69301(5) 0.34043(17) 0.13005(8)
H44_2 H 0.6878 0.2898 0.1048
C74_2 C 0.66802(4) 0.54574(16) 0.31512(9)
H45_2 H 0.6493 0.5850 0.2977
C75_2 C 0.51553(4) 0.47215(17) 0.15343(12)
C76_2 C 0.57546(5) 0.5018(2) 0.14738(12)
H46_2 H 0.5668 0.5275 0.1128
C77_2 C 0.33340(5) 0.12508(15) 0.04693(10)
C78_2 C 0.50056(5) 0.54313(18) 0.11650(13)
H47_2 H 0.5147 0.5917 0.1073
C79_2 C 0.55290(5) 0.47166(18) 0.17750(12)
C80_2 C 0.56636(5) 0.43663(18) 0.22723(11)
H48_2 H 0.5511 0.4165 0.2478
Co12_2 Co 0.294246(7) 0.97386(2) 0.038034(13)
O18_2 O 0.80269(2) 0.32140(9) 0.01551(5)
O22_2 O 0.83858(3) 0.38697(11) 0.08444(6)
O23_2 O 0.24125(4) 0.80120(12) 0.07148(6)
O25_2 O 0.81042(3) 0.61347(10) 0.07172(6)
O29_2 O 0.83936(3) 0.56225(11) 0.01564(7)
O1_2 O 0.69731(2) 0.17860(9) 0.98449(5)
O2_2 O 0.27023(3) 0.37814(10) 0.53683(7)
O3_2 O 0.66142(3) 0.11303(11) 0.91556(6)
O4_2 O 0.25875(4) 0.69880(12) 0.92852(6)
O5_2 O 0.68958(3) 0.88653(10) 0.92828(6)
O7_2 O 0.23653(3) 0.54981(11) 0.90984(6)
O8_2 O 0.66064(3) 0.93775(11) 0.98436(7)
N1_2 N 0.59067(4) 0.52539(13) 0.91753(10)
N2_2 N 0.34069(3) 0.55971(15) 0.76155(7)
C1_2 C 0.28562(4) 0.48711(14) 0.60860(8)
C2_2 C 0.63660(4) 0.42854(15) 0.97029(10)
H1_2 H 0.6419 0.4794 0.9954
C3_2 C 0.60922(4) 0.61373(16) 0.92642(11)
C4_2 C 0.60949(4) 0.43767(15) 0.92622(11)
C5_2 C 0.55513(4) 0.52641(17) 0.89402(12)
C6_2 C 0.26339(4) 0.45703(15) 0.55459(8)
C7_2 C 0.32401(4) 0.53526(17) 0.70916(8)
C8_2 C 0.63824(4) 0.62470(15) 0.90857(9)
H2_2 H 0.6458 0.5738 0.8899
C9_2 C 0.27868(4) 0.60227(15) 0.86812(8)
C10_2 C 0.64589(4) 0.78376(15) 0.94380(9)
C11_2 C 0.27124(4) 0.53046(15) 0.82994(8)
H3_2 H 0.2517 0.4910 0.8276
C12_2 C 0.65610(4) 0.34533(15) 0.97792(9)
C13_2 C 0.31995(4) 0.57313(17) 0.79816(8)
C14_2 C 0.62033(4) 0.27984(16) 0.89803(10)
H5_2 H 0.6141 0.2281 0.8737
C15_2 C 0.37638(4) 0.54343(18) 0.78159(10)
C16_2 C 0.31254(4) 0.42931(15) 0.63434(9)
H6_2 H 0.3178 0.3725 0.6176
C17_2 C 0.61627(5) 0.77277(16) 0.96276(11)
H7_2 H 0.6090 0.8235 0.9819
C18_2 C 0.54090(4) 0.59660(16) 0.85819(11)
H8_2 H 0.5550 0.6452 0.8490
C19_2 C 0.27850(4) 0.57039(15) 0.63205(8)
H9_2 H 0.2603 0.6105 0.6140
C20_2 C 0.29147(4) 0.51549(15) 0.79574(8)
H10_2 H 0.2861 0.4655 0.7702
C21_2 C 0.64840(4) 0.27015(14) 0.94112(9)
C22_2 C 0.25645(5) 0.61882(18) 0.90574(8)
C23_2 C 0.29766(5) 0.59628(16) 0.68178(9)
H11_2 H 0.2931 0.6550 0.6974
C24_2 C 0.50571(4) 0.59656(16) 0.83531(10)
H12_2 H 0.4963 0.6462 0.8110
C25_2 C 0.60125(4) 0.36371(17) 0.88997(11)
H13_2 H 0.5826 0.3703 0.8597
C26_2 C 0.66987(4) 0.18362(15) 0.94710(9)
C27_2 C 0.65654(4) 0.70994(15) 0.91768(9)
H14_2 H 0.6768 0.7168 0.9055
C28_2 C 0.53408(5) 0.45594(18) 0.90669(13)
H15_2 H 0.5436 0.4069 0.9314
C29_2 C 0.32755(5) 0.64481(18) 0.83618(9)
H16_2 H 0.3472 0.6840 0.8387
C30_2 C 0.38902(5) 0.5060(2) 0.83145(11)
H17_2 H 0.3737 0.4853 0.8517
C31_2 C 0.59789(5) 0.68945(17) 0.95371(12)
H18_2 H 0.5776 0.6826 0.9657
C32_2 C 0.39858(5) 0.57097(18) 0.75083(10)
H19_2 H 0.3900 0.5944 0.7157
C33_2 C 0.30699(5) 0.65957(17) 0.86995(8)
H20_2 H 0.3122 0.7102 0.8952
C34_2 C 0.33198(4) 0.45426(16) 0.68488(9)
H21_2 H 0.3507 0.4150 0.7023
C35_2 C 0.48447(4) 0.52785(17) 0.84657(12)
C36_2 C 0.42454(5) 0.4982(2) 0.85262(12)
H22_2 H 0.4332 0.4725 0.8872
C37_2 C 0.66660(5) 0.87492(15) 0.95307(10)
C38_2 C 0.49944(5) 0.45687(18) 0.88350(13)
H23_2 H 0.4853 0.4083 0.8927
C39_2 C 0.44710(5) 0.52834(18) 0.82250(12)
C40_2 C 0.43364(5) 0.56337(18) 0.77277(11)
H24_2 H 0.4489 0.5835 0.7522
H28_2 H 0.3252 0.6607 0.9918
O17_2 O 0.19731(2) 0.67860(9) 0.98449(5)
O19_2 O 0.22977(3) 0.87814(10) 0.96317(7)
O21_2 O 0.16142(3) 0.61303(11) 0.91556(6)
O24_2 O 0.18958(3) 0.38653(10) 0.92828(6)
O28_2 O 0.16064(3) 0.43775(11) 0.98436(7)
O4_3 O 0.24125(4) 0.19880(12) 0.57148(6)
O6_2 O 0.25969(3) 0.01221(10) 0.96760(5)
O7_3 O 0.26347(3) 0.04981(11) 0.59016(6)
N2_3 N 0.15931(3) 0.05971(15) 0.73845(7)
C7_3 C 0.17599(4) 0.03526(17) 0.79084(8)
C9_3 C 0.22132(4) 0.10227(15) 0.63188(8)
C11_3 C 0.22876(4) 0.03046(15) 0.67006(8)
C13_3 C 0.18005(4) 0.07313(17) 0.70184(8)
C15_3 C 0.12362(4) 0.04343(18) 0.71841(10)
C19_3 C 0.22150(4) 0.07039(15) 0.86795(8)
H9_3 H 0.2397 0.1105 0.8860
C20_3 C 0.20853(4) 0.01549(15) 0.70426(8)
C22_3 C 0.24355(5) 0.11882(18) 0.59426(8)
C23_3 C 0.20234(5) 0.09628(16) 0.81822(9)
H11_3 H 0.2069 0.1550 0.8026
H12_3 H 0.0037 0.1462 0.6890
C29_3 C 0.17245(5) 0.14481(18) 0.66382(9)
H16_3 H 0.1528 0.1840 0.6613
C30_3 C 0.11098(5) 0.0060(2) 0.66855(11)
C32_3 C 0.10142(5) 0.07097(18) 0.74917(10)
H19_3 H 0.1100 0.0944 0.7843
C33_3 C 0.19301(5) 0.15957(17) 0.63005(8)
H20_3 H 0.1878 0.2102 0.6048
C35_3 C 0.01553(4) 0.02785(17) 0.65343(12)
C39_3 C 0.05290(5) 0.02834(18) 0.67750(12)
C40_3 C 0.06636(5) 0.06337(18) 0.72723(11)
H24_3 H 0.0511 0.0835 0.7478
C42_3 C 0.13660(4) 0.07146(15) 0.47029(10)
H25_3 H 0.1419 0.0206 0.4954
C44_3 C 0.10949(4) 0.06233(15) 0.42622(11)
C52_3 C 0.15610(4) 0.15467(15) 0.47792(9)
H28_3 H 0.1748 0.1607 0.5082
C54_3 C 0.12033(4) 0.22016(16) 0.39803(10)
H29_3 H 0.1141 0.2719 0.3737
C61_3 C 0.14840(4) 0.22985(14) 0.44112(9)
C65_3 C 0.10125(4) 0.13629(17) 0.38997(11)
H37_3 H 0.0826 0.1297 0.3597
C66_3 C 0.16987(4) 0.31638(15) 0.44710(9)
C68_3 C 0.03408(5) 0.04406(18) 0.40669(13)
H39_3 H 0.0436 0.0931 0.4314
O20_2 O 0.22977(3) 0.12186(10) 0.46317(7)
C1_3 C 0.21438(4) 0.98711(14) 0.89140(8)
C6_3 C 0.23661(4) 0.95703(15) 0.94541(8)
H3_3 H 0.2483 0.9910 0.6724
C16_3 C 0.18746(4) 0.92931(15) 0.86566(9)
H6_3 H 0.1822 0.8725 0.8824
H10_3 H 0.2139 0.9655 0.7298
H17_3 H 0.1263 0.9853 0.6483
C34_3 C 0.16802(4) 0.95426(16) 0.81512(9)
H21_3 H 0.1493 0.9150 0.7977
C36_3 C 0.07546(5) 0.9982(2) 0.64738(12)
H22_3 H 0.0668 0.9725 0.6128
C38_3 C 0.00056(5) 0.95687(18) 0.61650(13)
H23_3 H 0.0147 0.9083 0.6073
N3_3 N 0.09067(4) 0.97461(13) 0.41753(10)
C43_3 C 0.10922(4) 0.88627(16) 0.42642(11)
C45_3 C 0.05513(4) 0.97359(17) 0.39402(12)
C48_3 C 0.13824(4) 0.87530(15) 0.40857(9)
H26_3 H 0.1458 0.9262 0.3899
C50_3 C 0.14589(4) 0.71624(15) 0.44380(9)
C57_3 C 0.11627(5) 0.72723(16) 0.46276(11)
H31_3 H 0.1090 0.6765 0.4819
C58_3 C 0.04090(4) 0.90340(16) 0.35819(11)
H32_3 H 0.0550 0.8548 0.3490
C64_3 C 0.00571(4) 0.90344(16) 0.33531(10)
C67_3 C 0.15654(4) 0.79006(15) 0.41768(9)
H38_3 H 0.1768 0.7832 0.4055
C71_3 C 0.09789(5) 0.81055(17) 0.45371(12)
H42_3 H 0.0776 0.8174 0.4657
C77_3 C 0.16660(5) 0.62508(15) 0.45307(10)
O27_2 O 0.25969(3) 0.98779(10) 0.46760(5)
N1_3 N 0.90933(4) 0.02539(13) 0.58247(10)
C3_3 C 0.89078(4) 0.11373(16) 0.57358(11)
C5_3 C 0.94487(4) 0.02641(17) 0.60598(12)
C8_3 C 0.86176(4) 0.12470(15) 0.59143(9)
H2_3 H 0.8542 0.0738 0.6101
C10_3 C 0.85411(4) 0.28376(15) 0.55620(9)
C17_3 C 0.88373(5) 0.27277(16) 0.53724(11)
H7_3 H 0.8910 0.3235 0.5181
C18_3 C 0.95910(4) 0.09660(16) 0.64181(11)
H8_3 H 0.9450 0.1452 0.6510
C24_3 C 0.99429(4) 0.09656(16) 0.66469(10)
C27_3 C 0.84346(4) 0.20994(15) 0.58232(9)
H14_3 H 0.8232 0.2168 0.5945
C31_3 C 0.90211(5) 0.18945(17) 0.54629(12)
H18_3 H 0.9224 0.1826 0.5343
C37_3 C 0.83340(5) 0.37492(15) 0.54693(10)
O10_2 O 0.77023(3) 0.12186(10) 0.03683(7)
C41_3 C 0.78562(4) 0.01289(14) 0.10860(8)
C46_3 C 0.76339(4) 0.04297(15) 0.05459(8)
H27_3 H 0.7517 0.0090 0.3276
C56_3 C 0.81254(4) 0.07069(15) 0.13434(9)
H30_3 H 0.8178 0.1275 0.1176
H34_3 H 0.7861 0.0345 0.2702
H41_3 H 0.8737 0.0147 0.3517
C74_3 C 0.83198(4) 0.04574(16) 0.18488(9)
H45_3 H 0.8507 0.0850 0.2023
C76_3 C 0.92454(5) 0.0018(2) 0.35262(12)
H46_3 H 0.9332 0.0275 0.3872
C78_3 C 0.99944(5) 0.04313(18) 0.38350(13)
H47_3 H 0.9853 0.0917 0.3927
O26_2 O 0.74031(3) 0.01221(10) 0.53240(5)
C2_3 C 0.86340(4) 0.92854(15) 0.52971(10)
H1_3 H 0.8581 0.9794 0.5046
C4_3 C 0.89051(4) 0.93767(15) 0.57378(11)
C12_3 C 0.84390(4) 0.84533(15) 0.52208(9)
H4_3 H 0.8252 0.8393 0.4918
C14_3 C 0.87967(4) 0.77984(16) 0.60197(10)
H5_3 H 0.8859 0.7281 0.6263
C21_3 C 0.85160(4) 0.77015(14) 0.55888(9)
C25_3 C 0.89875(4) 0.86371(17) 0.61003(11)
H13_3 H 0.9174 0.8703 0.6403
C26_3 C 0.83013(4) 0.68362(15) 0.55290(9)
C28_3 C 0.96592(5) 0.95594(18) 0.59331(13)
H15_3 H 0.9564 0.9069 0.5686
O14_2 O 0.74031(3) 0.98779(10) 0.03240(5)
O15_3 O 0.73653(3) 0.95019(11) 0.40984(6)
N4_3 N 0.84069(3) 0.94029(15) 0.26155(7)
C47_3 C 0.82401(4) 0.96474(17) 0.20916(8)
C49_3 C 0.77868(4) 0.89773(15) 0.36812(8)
C51_3 C 0.77124(4) 0.96954(15) 0.32994(8)
C53_3 C 0.81995(4) 0.92687(17) 0.29816(8)
C55_3 C 0.87638(4) 0.95657(18) 0.28159(10)
C59_3 C 0.77850(4) 0.92961(15) 0.13205(8)
H33_3 H 0.7603 0.8895 0.1140
C60_3 C 0.79147(4) 0.98451(15) 0.29574(8)
C62_3 C 0.75645(5) 0.88118(18) 0.40574(8)
C63_3 C 0.79766(5) 0.90372(16) 0.18178(9)
H35_3 H 0.7931 0.8450 0.1974
H36_3 H 0.9963 0.8538 0.3110
C69_3 C 0.82755(5) 0.85519(18) 0.33618(9)
H40_3 H 0.8472 0.8160 0.3387
C70_3 C 0.88902(5) 0.9940(2) 0.33145(11)
C72_3 C 0.89858(5) 0.92903(18) 0.25083(10)
H43_3 H 0.8900 0.9056 0.2157
C73_3 C 0.80699(5) 0.84043(17) 0.36995(8)
H44_3 H 0.8122 0.7898 0.3952
C75_3 C 0.98447(4) 0.97215(17) 0.34657(12)
C79_3 C 0.94710(5) 0.97166(18) 0.32250(12)
C80_3 C 0.93364(5) 0.93663(18) 0.27277(11)
H48_3 H 0.9489 0.9165 0.2522
C41_4 C 0.21438(4) 0.01289(14) 0.39140(8)
C46_4 C 0.23661(4) 0.04297(15) 0.44541(8)
H27_4 H 0.2483 0.0090 0.1724
C56_4 C 0.18746(4) 0.07069(15) 0.36566(9)
H30_4 H 0.1822 0.1275 0.3824
H34_4 H 0.2139 0.0345 0.2298
H41_4 H 0.1263 0.0147 0.1483
C74_4 C 0.16802(4) 0.04574(16) 0.31512(9)
H45_4 H 0.1493 0.0850 0.2977
C76_4 C 0.07546(5) 0.0018(2) 0.14738(12)
H46_4 H 0.0668 0.0275 0.1128
C78_4 C 0.00056(5) 0.04313(18) 0.11650(13)
H47_4 H 0.0147 0.0917 0.1073
N1_4 N 0.09067(4) 0.02539(13) 0.91753(10)
C3_4 C 0.10922(4) 0.11373(16) 0.92642(11)
C5_4 C 0.05513(4) 0.02641(17) 0.89402(12)
C8_4 C 0.13824(4) 0.12470(15) 0.90857(9)
H2_4 H 0.1458 0.0738 0.8899
C10_4 C 0.14589(4) 0.28376(15) 0.94380(9)
C17_4 C 0.11627(5) 0.27277(16) 0.96276(11)
H7_4 H 0.1090 0.3235 0.9819
C18_4 C 0.04090(4) 0.09660(16) 0.85819(11)
H8_4 H 0.0550 0.1452 0.8490
C24_4 C 0.00571(4) 0.09656(16) 0.83531(10)
C27_4 C 0.15654(4) 0.20994(15) 0.91768(9)
H14_4 H 0.1768 0.2168 0.9055
C31_4 C 0.09789(5) 0.18945(17) 0.95371(12)
H18_4 H 0.0776 0.1826 0.9657
C37_4 C 0.16660(5) 0.37492(15) 0.95307(10)
H4_4 H 0.1748 0.8393 0.0082
O15_4 O 0.26347(3) 0.95019(11) 0.09016(6)
N4_4 N 0.15931(3) 0.94029(15) 0.23845(7)
C47_4 C 0.17599(4) 0.96474(17) 0.29084(8)
C49_4 C 0.22132(4) 0.89773(15) 0.13188(8)
C51_4 C 0.22876(4) 0.96954(15) 0.17006(8)
C53_4 C 0.18005(4) 0.92687(17) 0.20184(8)
C55_4 C 0.12362(4) 0.95657(18) 0.21841(10)
C59_4 C 0.22150(4) 0.92961(15) 0.36795(8)
H33_4 H 0.2397 0.8895 0.3860
C60_4 C 0.20853(4) 0.98451(15) 0.20426(8)
C62_4 C 0.24355(5) 0.88118(18) 0.09426(8)
C63_4 C 0.20234(5) 0.90372(16) 0.31822(9)
H35_4 H 0.2069 0.8450 0.3026
H36_4 H 0.0037 0.8538 0.1890
C69_4 C 0.17245(5) 0.85519(18) 0.16382(9)
H40_4 H 0.1528 0.8160 0.1613
C70_4 C 0.11098(5) 0.9940(2) 0.16855(11)
C72_4 C 0.10142(5) 0.92903(18) 0.24917(10)
H43_4 H 0.1100 0.9056 0.2843
C73_4 C 0.19301(5) 0.84043(17) 0.13005(8)
H44_4 H 0.1878 0.7898 0.1048
C75_4 C 0.01553(4) 0.97215(17) 0.15343(12)
C79_4 C 0.05290(5) 0.97166(18) 0.17750(12)
C80_4 C 0.06636(5) 0.93663(18) 0.22723(11)
H48_4 H 0.0511 0.9165 0.2478
C2_4 C 0.13660(4) 0.92854(15) 0.97029(10)
H1_4 H 0.1419 0.9794 0.9954
C4_4 C 0.10949(4) 0.93767(15) 0.92622(11)
C12_4 C 0.15610(4) 0.84533(15) 0.97792(9)
C14_4 C 0.12033(4) 0.77984(16) 0.89803(10)
H5_4 H 0.1141 0.7281 0.8737
C21_4 C 0.14840(4) 0.77015(14) 0.94112(9)
C25_4 C 0.10125(4) 0.86371(17) 0.88997(11)
H13_4 H 0.0826 0.8703 0.8597
C26_4 C 0.16987(4) 0.68362(15) 0.94710(9)
C28_4 C 0.03408(5) 0.95594(18) 0.90669(13)
H15_4 H 0.0436 0.9069 0.9314
C42_4 C 0.86340(4) 0.07146(15) 0.02971(10)
H25_4 H 0.8581 0.0206 0.0046
C44_4 C 0.89051(4) 0.06233(15) 0.07378(11)
C52_4 C 0.84390(4) 0.15467(15) 0.02208(9)
C54_4 C 0.87967(4) 0.22016(16) 0.10197(10)
H29_4 H 0.8859 0.2719 0.1263
C61_4 C 0.85160(4) 0.22985(14) 0.05888(9)
C65_4 C 0.89875(4) 0.13629(17) 0.11003(11)
H37_4 H 0.9174 0.1297 0.1403
C66_4 C 0.83013(4) 0.31638(15) 0.05290(9)
C68_4 C 0.96592(5) 0.04406(18) 0.09331(13)
H39_4 H 0.9564 0.0931 0.0686
O4_4 O 0.75875(4) 0.19880(12) 0.92852(6)
O7_4 O 0.73653(3) 0.04981(11) 0.90984(6)
N2_4 N 0.84069(3) 0.05971(15) 0.76155(7)
C7_4 C 0.82401(4) 0.03526(17) 0.70916(8)
C9_4 C 0.77868(4) 0.10227(15) 0.86812(8)
C11_4 C 0.77124(4) 0.03046(15) 0.82994(8)
C13_4 C 0.81995(4) 0.07313(17) 0.79816(8)
C15_4 C 0.87638(4) 0.04343(18) 0.78159(10)
C19_4 C 0.77850(4) 0.07039(15) 0.63205(8)
H9_4 H 0.7603 0.1105 0.6140
C20_4 C 0.79147(4) 0.01549(15) 0.79574(8)
C22_4 C 0.75645(5) 0.11882(18) 0.90574(8)
C23_4 C 0.79766(5) 0.09628(16) 0.68178(9)
H11_4 H 0.7931 0.1550 0.6974
H12_4 H 0.9963 0.1462 0.8110
C29_4 C 0.82755(5) 0.14481(18) 0.83618(9)
H16_4 H 0.8472 0.1840 0.8387
C30_4 C 0.88902(5) 0.0060(2) 0.83145(11)
C32_4 C 0.89858(5) 0.07097(18) 0.75083(10)
H19_4 H 0.8900 0.0944 0.7157
C33_4 C 0.80699(5) 0.15957(17) 0.86995(8)
H20_4 H 0.8122 0.2102 0.8952
C35_4 C 0.98447(4) 0.02785(17) 0.84657(12)
C39_4 C 0.94710(5) 0.02834(18) 0.82250(12)
C40_4 C 0.93364(5) 0.06337(18) 0.77277(11)
H24_4 H 0.9489 0.0835 0.7522
H28_4 H 0.8252 0.1607 0.9918
N3_4 N 0.90933(4) 0.97461(13) 0.08247(10)
C43_4 C 0.89078(4) 0.88627(16) 0.07358(11)
C45_4 C 0.94487(4) 0.97359(17) 0.10598(12)
C48_4 C 0.86176(4) 0.87530(15) 0.09143(9)
H26_4 H 0.8542 0.9262 0.1101
C50_4 C 0.85411(4) 0.71624(15) 0.05620(9)
C57_4 C 0.88373(5) 0.72723(16) 0.03724(11)
H31_4 H 0.8910 0.6765 0.0181
C58_4 C 0.95910(4) 0.90340(16) 0.14181(11)
H32_4 H 0.9450 0.8548 0.1510
C64_4 C 0.99429(4) 0.90344(16) 0.16469(10)
C67_4 C 0.84346(4) 0.79006(15) 0.08232(9)
H38_4 H 0.8232 0.7832 0.0945
C71_4 C 0.90211(5) 0.81055(17) 0.04629(12)
H42_4 H 0.9224 0.8174 0.0343
C77_4 C 0.83340(5) 0.62508(15) 0.04693(10)
C1_4 C 0.78562(4) 0.98711(14) 0.60860(8)
C6_4 C 0.76339(4) 0.95703(15) 0.55459(8)
H3_4 H 0.7517 0.9910 0.8276
C16_4 C 0.81254(4) 0.92931(15) 0.63434(9)
H6_4 H 0.8178 0.8725 0.6176
H10_4 H 0.7861 0.9655 0.7702
H17_4 H 0.8737 0.9853 0.8517
C34_4 C 0.83198(4) 0.95426(16) 0.68488(9)
H21_4 H 0.8507 0.9150 0.7023
C36_4 C 0.92454(5) 0.9982(2) 0.85262(12)
H22_4 H 0.9332 0.9725 0.8872
C38_4 C 0.99944(5) 0.95687(18) 0.88350(13)
H23_4 H 0.9853 0.9083 0.8927
loop_
_geom_bond_atom_site_label_1
_geom_bond_atom_site_label_2
_geom_bond_site_symmetry_1
_geom_bond_site_symmetry_2
Co1 O4 1_555 1_555
Co2 O7 1_555 1_555
O1 C26 1_555 1_555
O2 C6 1_555 1_555
O3 C26 1_555 1_555
O4 C22 1_555 1_555
O5 C37 1_555 1_555
O6 C6 1_555 1_555
O7 C22 1_555 1_555
O8 C37 1_555 1_555
N1 C3 1_555 1_555
N2 C7 1_555 1_555
C1 C6 1_555 1_555
C2 H1 1_555 1_555
C3 C8 1_555 1_555
C4 N1 1_555 1_555
C5 N1 1_555 1_555
C7 C23 1_555 1_555
C8 H2 1_555 1_555
C9 C11 1_555 1_555
C10 C17 1_555 1_555
C11 H3 1_555 1_555
C12 C2 1_555 1_555
H4 C12 1_555 1_555
C13 N2 1_555 1_555
C14 H5 1_555 1_555
C15 N2 1_555 1_555
C16 C1 1_555 1_555
H6 C16 1_555 1_555
C17 H7 1_555 1_555
C18 C5 1_555 1_555
H8 C18 1_555 1_555
C19 C1 1_555 1_555
H9 C19 1_555 1_555
C20 C11 1_555 1_555
H10 C20 1_555 1_555
C21 C12 1_555 1_555
C22 C9 1_555 1_555
C23 C19 1_555 1_555
H11 C23 1_555 1_555
C24 C18 1_555 1_555
H12 C24 1_555 1_555
C25 C4 1_555 1_555
H13 C25 1_555 1_555
C26 C21 1_555 1_555
C27 C8 1_555 1_555
H14 C27 1_555 1_555
C28 C5 1_555 1_555
H15 C28 1_555 1_555
C29 C13 1_555 1_555
H16 C29 1_555 1_555
C30 C15 1_555 1_555
H17 C30 1_555 1_555
C31 C3 1_555 1_555
H18 C31 1_555 1_555
C32 C15 1_555 1_555
H19 C32 1_555 1_555
C33 C9 1_555 1_555
H20 C33 1_555 1_555
C34 C7 1_555 1_555
H21 C34 1_555 1_555
C35 C24 1_555 1_555
C36 C30 1_555 1_555
H22 C36 1_555 1_555
C37 C10 1_555 1_555
C38 C28 1_555 1_555
H23 C38 1_555 1_555
C39 C35 1_555 1_555
C40 C32 1_555 1_555
H24 C40 1_555 1_555
Co3 O15 1_555 1_555
O9 Co1 1_555 1_555
O10 C46 1_555 1_555
O11 C66 1_555 1_555
O12 C62 1_555 1_555
O13 C77 1_555 1_555
O14 C46 1_555 1_555
O15 C62 1_555 1_555
O16 C77 1_555 1_555
N3 C43 1_555 1_555
N4 C47 1_555 1_555
C41 C46 1_555 1_555
C42 H25 1_555 1_555
C43 C48 1_555 1_555
C44 N3 1_555 1_555
C45 N3 1_555 1_555
C47 C63 1_555 1_555
C48 H26 1_555 1_555
C49 C51 1_555 1_555
C50 C57 1_555 1_555
C51 H27 1_555 1_555
C52 C42 1_555 1_555
H28 C52 1_555 1_555
C53 N4 1_555 1_555
C54 H29 1_555 1_555
C55 N4 1_555 1_555
C56 C41 1_555 1_555
H30 C56 1_555 1_555
C57 H31 1_555 1_555
C58 C45 1_555 1_555
H32 C58 1_555 1_555
C59 C41 1_555 1_555
H33 C59 1_555 1_555
C60 C51 1_555 1_555
H34 C60 1_555 1_555
C61 C52 1_555 1_555
C62 C49 1_555 1_555
C63 C59 1_555 1_555
H35 C63 1_555 1_555
C64 C58 1_555 1_555
H36 C64 1_555 1_555
C65 C44 1_555 1_555
H37 C65 1_555 1_555
C66 O9 1_555 1_555
C67 C48 1_555 1_555
H38 C67 1_555 1_555
C68 C45 1_555 1_555
H39 C68 1_555 1_555
C69 C53 1_555 1_555
H40 C69 1_555 1_555
C70 C55 1_555 1_555
H41 C70 1_555 1_555
C71 C43 1_555 1_555
H42 C71 1_555 1_555
C72 C55 1_555 1_555
H43 C72 1_555 1_555
C73 C49 1_555 1_555
H44 C73 1_555 1_555
C74 C47 1_555 1_555
H45 C74 1_555 1_555
C75 C64 1_555 1_555
C76 C70 1_555 1_555
H46 C76 1_555 1_555
C77 C50 1_555 1_555
C78 C68 1_555 1_555
H47 C78 1_555 1_555
C79 C75 1_555 1_555
C80 C72 1_555 1_555
H48 C80 1_555 1_555
Co4 O10 1_555 1_555
Co5 O1 1_555 1_555
Co6_2 O2 1_555 1_555
Co9 O1 1_555 1_555
Co12 O9 1_555 1_555
O17 Co1 1_555 1_555
O18 Co3 1_555 1_555
O19 Co1 1_555 1_555
O20 Co1 1_555 1_555
O21 Co2 1_555 1_555
O22 Co3 1_555 1_555
O23 Co1 1_555 1_555
O24 Co2 1_555 1_555
O25 Co3 1_555 1_555
O26 Co3 1_555 1_555
O27 Co2 1_555 1_555
O28 Co2 1_555 1_555
O29 Co3 1_555 1_555
Co2 O17 1_555 1_555
O3 Co9 1_555 1_555
C2 C4 1_555 1_555
C10 C27 1_555 1_555
C13 C20 1_555 1_555
C14 C21 1_555 1_555
C14 C25 1_555 1_555
C16 C34 1_555 1_555
C17 C31 1_555 1_555
C29 C33 1_555 1_555
C35 C38 1_555 1_555
C36 C39 1_555 1_555
C39 C40 1_555 1_555
O11 Co12 1_555 1_555
O12 Co5 1_555 1_555
C42 C44 1_555 1_555
C50 C67 1_555 1_555
C53 C60 1_555 1_555
C54 C61 1_555 1_555
C54 C65 1_555 1_555
C56 C74 1_555 1_555
C57 C71 1_555 1_555
C61 C66 1_555 1_555
C69 C73 1_555 1_555
C75 C78 1_555 1_555
C76 C79 1_555 1_555
C79 C80 1_555 1_555
Co5 O18 1_555 1_555
Co10 O15_2 1_555 1_555
O9_2 Co4 1_555 1_555
O20 C46_2 1_555 1_555
O11_2 C66_2 1_555 1_555
O12_2 C62_2 1_555 1_555
O13_2 C77_2 1_555 1_555
O27 C46_2 1_555 1_555
O15_2 C62_2 1_555 1_555
O16_2 C77_2 1_555 1_555
N3_2 C43_2 1_555 1_555
N4_2 C47_2 1_555 1_555
C41_2 C46_2 1_555 1_555
C42_2 H25_2 1_555 1_555
C43_2 C48_2 1_555 1_555
C44_2 N3_2 1_555 1_555
C45_2 N3_2 1_555 1_555
C47_2 C63_2 1_555 1_555
C48_2 H26_2 1_555 1_555
C49_2 C51_2 1_555 1_555
C50_2 C57_2 1_555 1_555
C51_2 H27_2 1_555 1_555
C52_2 C42_2 1_555 1_555
C53_2 N4_2 1_555 1_555
C54_2 H29_2 1_555 1_555
C55_2 N4_2 1_555 1_555
C56_2 C41_2 1_555 1_555
H30_2 C56_2 1_555 1_555
C57_2 H31_2 1_555 1_555
C58_2 C45_2 1_555 1_555
H32_2 C58_2 1_555 1_555
C59_2 C41_2 1_555 1_555
H33_2 C59_2 1_555 1_555
C60_2 C51_2 1_555 1_555
H34_2 C60_2 1_555 1_555
C61_2 C52_2 1_555 1_555
C62_2 C49_2 1_555 1_555
C63_2 C59_2 1_555 1_555
H35_2 C63_2 1_555 1_555
C64_2 C58_2 1_555 1_555
H36_2 C64_2 1_555 1_555
C65_2 C44_2 1_555 1_555
H37_2 C65_2 1_555 1_555
C66_2 O9_2 1_555 1_555
C67_2 C48_2 1_555 1_555
H38_2 C67_2 1_555 1_555
C68_2 C45_2 1_555 1_555
H39_2 C68_2 1_555 1_555
C69_2 C53_2 1_555 1_555
H40_2 C69_2 1_555 1_555
C70_2 C55_2 1_555 1_555
H41_2 C70_2 1_555 1_555
C71_2 C43_2 1_555 1_555
H42_2 C71_2 1_555 1_555
C72_2 C55_2 1_555 1_555
H43_2 C72_2 1_555 1_555
C73_2 C49_2 1_555 1_555
H44_2 C73_2 1_555 1_555
C74_2 C47_2 1_555 1_555
H45_2 C74_2 1_555 1_555
C75_2 C64_2 1_555 1_555
C76_2 C70_2 1_555 1_555
H46_2 C76_2 1_555 1_555
C77_2 C50_2 1_555 1_555
C78_2 C68_2 1_555 1_555
H47_2 C78_2 1_555 1_555
C79_2 C75_2 1_555 1_555
C80_2 C72_2 1_555 1_555
H48_2 C80_2 1_555 1_555
Co12_2 O9_2 1_555 1_555
O18_2 Co10 1_555 1_555
O22_2 Co10 1_555 1_555
O23_2 Co4 1_555 1_555
O25_2 Co10 1_555 1_555
O29_2 Co10 1_555 1_555
O11_2 Co12_2 1_555 1_555
O12_2 Co6 1_555 1_555
C42_2 C44_2 1_555 1_555
C50_2 C67_2 1_555 1_555
C53_2 C60_2 1_555 1_555
C54_2 C61_2 1_555 1_555
C54_2 C65_2 1_555 1_555
C56_2 C74_2 1_555 1_555
C57_2 C71_2 1_555 1_555
C61_2 C66_2 1_555 1_555
C69_2 C73_2 1_555 1_555
C75_2 C78_2 1_555 1_555
C76_2 C79_2 1_555 1_555
C79_2 C80_2 1_555 1_555
Co6 O18_2 1_555 1_555
Co4_2 O4_2 1_555 1_555
Co7 O7_2 1_555 1_555
O1_2 C26_2 1_555 1_555
O2_2 C6_2 1_555 1_555
O3_2 C26_2 1_555 1_555
O4_2 C22_2 1_555 1_555
O5_2 C37_2 1_555 1_555
O26 C6_2 1_555 1_555
O7_2 C22_2 1_555 1_555
O8_2 C37_2 1_555 1_555
N1_2 C3_2 1_555 1_555
N2_2 C7_2 1_555 1_555
C1_2 C6_2 1_555 1_555
C2_2 H1_2 1_555 1_555
C3_2 C8_2 1_555 1_555
C4_2 N1_2 1_555 1_555
C5_2 N1_2 1_555 1_555
C7_2 C23_2 1_555 1_555
C8_2 H2_2 1_555 1_555
C9_2 C11_2 1_555 1_555
C10_2 C17_2 1_555 1_555
C11_2 H3_2 1_555 1_555
C12_2 C2_2 1_555 1_555
C13_2 N2_2 1_555 1_555
C14_2 H5_2 1_555 1_555
C15_2 N2_2 1_555 1_555
C16_2 C1_2 1_555 1_555
H6_2 C16_2 1_555 1_555
C17_2 H7_2 1_555 1_555
C18_2 C5_2 1_555 1_555
H8_2 C18_2 1_555 1_555
C19_2 C1_2 1_555 1_555
H9_2 C19_2 1_555 1_555
C20_2 C11_2 1_555 1_555
H10_2 C20_2 1_555 1_555
C21_2 C12_2 1_555 1_555
C22_2 C9_2 1_555 1_555
C23_2 C19_2 1_555 1_555
H11_2 C23_2 1_555 1_555
C24_2 C18_2 1_555 1_555
H12_2 C24_2 1_555 1_555
C25_2 C4_2 1_555 1_555
H13_2 C25_2 1_555 1_555
C26_2 C21_2 1_555 1_555
C27_2 C8_2 1_555 1_555
H14_2 C27_2 1_555 1_555
C28_2 C5_2 1_555 1_555
H15_2 C28_2 1_555 1_555
C29_2 C13_2 1_555 1_555
H16_2 C29_2 1_555 1_555
C30_2 C15_2 1_555 1_555
H17_2 C30_2 1_555 1_555
C31_2 C3_2 1_555 1_555
H18_2 C31_2 1_555 1_555
C32_2 C15_2 1_555 1_555
H19_2 C32_2 1_555 1_555
C33_2 C9_2 1_555 1_555
H20_2 C33_2 1_555 1_555
C34_2 C7_2 1_555 1_555
H21_2 C34_2 1_555 1_555
C35_2 C24_2 1_555 1_555
C36_2 C30_2 1_555 1_555
H22_2 C36_2 1_555 1_555
C37_2 C10_2 1_555 1_555
C38_2 C28_2 1_555 1_555
H23_2 C38_2 1_555 1_555
C39_2 C35_2 1_555 1_555
C40_2 C32_2 1_555 1_555
H24_2 C40_2 1_555 1_555
Co6_2 O1_2 1_555 1_555
Co5 O2_2 1_555 1_555
Co9_2 O1_2 1_555 1_555
O17_2 Co4_2 1_555 1_555
O19_2 Co4_2 1_555 1_555
O21_2 Co7 1_555 1_555
O24_2 Co7 1_555 1_555
O28_2 Co7 1_555 1_555
Co7 O17_2 1_555 1_555
O3_2 Co9_2 1_555 1_555
C2_2 C4_2 1_555 1_555
C10_2 C27_2 1_555 1_555
C13_2 C20_2 1_555 1_555
C14_2 C21_2 1_555 1_555
C14_2 C25_2 1_555 1_555
C16_2 C34_2 1_555 1_555
C17_2 C31_2 1_555 1_555
C29_2 C33_2 1_555 1_555
C35_2 C38_2 1_555 1_555
C36_2 C39_2 1_555 1_555
C39_2 C40_2 1_555 1_555
Co5 O4_3 1_555 1_555
Co9 O7_3 1_555 1_555
O4_3 C22_3 1_555 1_555
O7_3 C22_3 1_555 1_555
N2_3 C7_3 1_555 1_555
C7_3 C23_3 1_555 1_555
C9_3 C11_3 1_555 1_555
C13_3 N2_3 1_555 1_555
C15_3 N2_3 1_555 1_555
H9_3 C19_3 1_555 1_555
C20_3 C11_3 1_555 1_555
C22_3 C9_3 1_555 1_555
C23_3 C19_3 1_555 1_555
H11_3 C23_3 1_555 1_555
C29_3 C13_3 1_555 1_555
H16_3 C29_3 1_555 1_555
C30_3 C15_3 1_555 1_555
C32_3 C15_3 1_555 1_555
H19_3 C32_3 1_555 1_555
C33_3 C9_3 1_555 1_555
H20_3 C33_3 1_555 1_555
C39_3 C35_3 1_555 1_555
C40_3 C32_3 1_555 1_555
H24_3 C40_3 1_555 1_555
O22 C66_3 1_555 1_555
C42_3 H25_3 1_555 1_555
C52_3 C42_3 1_555 1_555
H28_3 C52_3 1_555 1_555
C54_3 H29_3 1_555 1_555
C61_3 C52_3 1_555 1_555
C65_3 C44_3 1_555 1_555
H37_3 C65_3 1_555 1_555
C66_3 O18 1_555 1_555
H39_3 C68_3 1_555 1_555
O20_2 Co5 1_555 1_555
C13_3 C20_3 1_555 1_555
C29_3 C33_3 1_555 1_555
C39_3 C40_3 1_555 1_555
C42_3 C44_3 1_555 1_555
C54_3 C61_3 1_555 1_555
C54_3 C65_3 1_555 1_555
C61_3 C66_3 1_555 1_555
O19_2 C6_3 1_555 1_555
C1_3 C6_3 1_555 1_555
C16_3 C1_3 1_555 1_555
H6_3 C16_3 1_555 1_555
H21_3 C34_3 1_555 1_555
H22_3 C36_3 1_555 1_555
H23_3 C38_3 1_555 1_555
O25 C77_3 1_555 1_555
O29 C77_3 1_555 1_555
N3_3 C43_3 1_555 1_555
C43_3 C48_3 1_555 1_555
C45_3 N3_3 1_555 1_555
C48_3 H26_3 1_555 1_555
C50_3 C57_3 1_555 1_555
C57_3 H31_3 1_555 1_555
C58_3 C45_3 1_555 1_555
H32_3 C58_3 1_555 1_555
C64_3 C58_3 1_555 1_555
C67_3 C48_3 1_555 1_555
H38_3 C67_3 1_555 1_555
C71_3 C43_3 1_555 1_555
H42_3 C71_3 1_555 1_555
C77_3 C50_3 1_555 1_555
C16_3 C34_3 1_555 1_555
C50_3 C67_3 1_555 1_555
C57_3 C71_3 1_555 1_555
O24 C37_3 1_555 1_555
O28 C37_3 1_555 1_555
N1_3 C3_3 1_555 1_555
C3_3 C8_3 1_555 1_555
C5_3 N1_3 1_555 1_555
C8_3 H2_3 1_555 1_555
C10_3 C17_3 1_555 1_555
C17_3 H7_3 1_555 1_555
C18_3 C5_3 1_555 1_555
H8_3 C18_3 1_555 1_555
C24_3 C18_3 1_555 1_555
C27_3 C8_3 1_555 1_555
H14_3 C27_3 1_555 1_555
C31_3 C3_3 1_555 1_555
H18_3 C31_3 1_555 1_555
C37_3 C10_3 1_555 1_555
O10_2 C46_3 1_555 1_555
C41_3 C46_3 1_555 1_555
C56_3 C41_3 1_555 1_555
H30_3 C56_3 1_555 1_555
H45_3 C74_3 1_555 1_555
H46_3 C76_3 1_555 1_555
H47_3 C78_3 1_555 1_555
Co6 O10_2 1_555 1_555
C10_3 C27_3 1_555 1_555
C17_3 C31_3 1_555 1_555
C56_3 C74_3 1_555 1_555
O17 C26_3 1_555 1_555
O21 C26_3 1_555 1_555
C2_3 H1_3 1_555 1_555
C12_3 C2_3 1_555 1_555
H4_3 C12_3 1_555 1_555
C14_3 H5_3 1_555 1_555
C21_3 C12_3 1_555 1_555
C25_3 C4_3 1_555 1_555
H13_3 C25_3 1_555 1_555
C26_3 C21_3 1_555 1_555
H15_3 C28_3 1_555 1_555
Co12 O15_3 1_555 1_555
O23 C62_3 1_555 1_555
O15_3 C62_3 1_555 1_555
N4_3 C47_3 1_555 1_555
C47_3 C63_3 1_555 1_555
C49_3 C51_3 1_555 1_555
C53_3 N4_3 1_555 1_555
C55_3 N4_3 1_555 1_555
H33_3 C59_3 1_555 1_555
C60_3 C51_3 1_555 1_555
C62_3 C49_3 1_555 1_555
C63_3 C59_3 1_555 1_555
H35_3 C63_3 1_555 1_555
C69_3 C53_3 1_555 1_555
H40_3 C69_3 1_555 1_555
C70_3 C55_3 1_555 1_555
C72_3 C55_3 1_555 1_555
H43_3 C72_3 1_555 1_555
C73_3 C49_3 1_555 1_555
H44_3 C73_3 1_555 1_555
C79_3 C75_3 1_555 1_555
C80_3 C72_3 1_555 1_555
H48_3 C80_3 1_555 1_555
C2_3 C4_3 1_555 1_555
C14_3 C21_3 1_555 1_555
C14_3 C25_3 1_555 1_555
C53_3 C60_3 1_555 1_555
C69_3 C73_3 1_555 1_555
C79_3 C80_3 1_555 1_555
O20_2 C46_4 1_555 1_555
C41_4 C46_4 1_555 1_555
C56_4 C41_4 1_555 1_555
H30_4 C56_4 1_555 1_555
H45_4 C74_4 1_555 1_555
H46_4 C76_4 1_555 1_555
H47_4 C78_4 1_555 1_555
C56_4 C74_4 1_555 1_555
O24_2 C37_4 1_555 1_555
O28_2 C37_4 1_555 1_555
N1_4 C3_4 1_555 1_555
C3_4 C8_4 1_555 1_555
C5_4 N1_4 1_555 1_555
C8_4 H2_4 1_555 1_555
C10_4 C17_4 1_555 1_555
C17_4 H7_4 1_555 1_555
C18_4 C5_4 1_555 1_555
H8_4 C18_4 1_555 1_555
C24_4 C18_4 1_555 1_555
C27_4 C8_4 1_555 1_555
H14_4 C27_4 1_555 1_555
C31_4 C3_4 1_555 1_555
H18_4 C31_4 1_555 1_555
C37_4 C10_4 1_555 1_555
C10_4 C27_4 1_555 1_555
C17_4 C31_4 1_555 1_555
Co12_2 O15_4 1_555 1_555
O23_2 C62_4 1_555 1_555
O15_4 C62_4 1_555 1_555
N4_4 C47_4 1_555 1_555
C47_4 C63_4 1_555 1_555
C49_4 C51_4 1_555 1_555
C53_4 N4_4 1_555 1_555
C55_4 N4_4 1_555 1_555
H33_4 C59_4 1_555 1_555
C60_4 C51_4 1_555 1_555
C62_4 C49_4 1_555 1_555
C63_4 C59_4 1_555 1_555
H35_4 C63_4 1_555 1_555
C69_4 C53_4 1_555 1_555
H40_4 C69_4 1_555 1_555
C70_4 C55_4 1_555 1_555
C72_4 C55_4 1_555 1_555
H43_4 C72_4 1_555 1_555
C73_4 C49_4 1_555 1_555
H44_4 C73_4 1_555 1_555
C79_4 C75_4 1_555 1_555
C80_4 C72_4 1_555 1_555
H48_4 C80_4 1_555 1_555
C53_4 C60_4 1_555 1_555
C69_4 C73_4 1_555 1_555
C79_4 C80_4 1_555 1_555
O17_2 C26_4 1_555 1_555
O21_2 C26_4 1_555 1_555
C2_4 H1_4 1_555 1_555
C12_4 C2_4 1_555 1_555
C14_4 H5_4 1_555 1_555
C21_4 C12_4 1_555 1_555
C25_4 C4_4 1_555 1_555
H13_4 C25_4 1_555 1_555
C26_4 C21_4 1_555 1_555
H15_4 C28_4 1_555 1_555
C2_4 C4_4 1_555 1_555
C14_4 C21_4 1_555 1_555
C14_4 C25_4 1_555 1_555
O22_2 C66_4 1_555 1_555
C42_4 H25_4 1_555 1_555
C52_4 C42_4 1_555 1_555
C54_4 H29_4 1_555 1_555
C61_4 C52_4 1_555 1_555
C65_4 C44_4 1_555 1_555
H37_4 C65_4 1_555 1_555
C66_4 O18_2 1_555 1_555
H39_4 C68_4 1_555 1_555
C42_4 C44_4 1_555 1_555
C54_4 C61_4 1_555 1_555
C54_4 C65_4 1_555 1_555
C61_4 C66_4 1_555 1_555
Co6_2 O4_4 1_555 1_555
Co9_2 O7_4 1_555 1_555
O4_4 C22_4 1_555 1_555
O7_4 C22_4 1_555 1_555
N2_4 C7_4 1_555 1_555
C7_4 C23_4 1_555 1_555
C9_4 C11_4 1_555 1_555
C13_4 N2_4 1_555 1_555
C15_4 N2_4 1_555 1_555
H9_4 C19_4 1_555 1_555
C20_4 C11_4 1_555 1_555
C22_4 C9_4 1_555 1_555
C23_4 C19_4 1_555 1_555
H11_4 C23_4 1_555 1_555
C29_4 C13_4 1_555 1_555
H16_4 C29_4 1_555 1_555
C30_4 C15_4 1_555 1_555
C32_4 C15_4 1_555 1_555
H19_4 C32_4 1_555 1_555
C33_4 C9_4 1_555 1_555
H20_4 C33_4 1_555 1_555
C39_4 C35_4 1_555 1_555
C40_4 C32_4 1_555 1_555
H24_4 C40_4 1_555 1_555
C13_4 C20_4 1_555 1_555
C29_4 C33_4 1_555 1_555
C39_4 C40_4 1_555 1_555
O25_2 C77_4 1_555 1_555
O29_2 C77_4 1_555 1_555
N3_4 C43_4 1_555 1_555
C43_4 C48_4 1_555 1_555
C45_4 N3_4 1_555 1_555
C48_4 H26_4 1_555 1_555
C50_4 C57_4 1_555 1_555
C57_4 H31_4 1_555 1_555
C58_4 C45_4 1_555 1_555
H32_4 C58_4 1_555 1_555
C64_4 C58_4 1_555 1_555
C67_4 C48_4 1_555 1_555
H38_4 C67_4 1_555 1_555
C71_4 C43_4 1_555 1_555
H42_4 C71_4 1_555 1_555
C77_4 C50_4 1_555 1_555
C50_4 C67_4 1_555 1_555
C57_4 C71_4 1_555 1_555
O19 C6_4 1_555 1_555
C1_4 C6_4 1_555 1_555
C16_4 C1_4 1_555 1_555
H6_4 C16_4 1_555 1_555
H21_4 C34_4 1_555 1_555
H22_4 C36_4 1_555 1_555
H23_4 C38_4 1_555 1_555
C16_4 C34_4 1_555 1_555

#END
