
###############################################################################
#
# This file contains modified crystal structure data generated from the
# MOF subset of the Cambridge Structural Database (CSD) v543 
# hosted by the Cambridge Crystallographic Data Centre (CCDC).
#
# This work is licensed under the Creative Commons
# Attribution-NonCommercial-ShareAlike 4.0 International License.
# To view a copy of this license, visit
# http://creativecommons.org/licenses/by-nc-sa/4.0/
# or send a letter to
# Creative Commons, PO Box 1866, Mountain View, CA 94042, USA.
#
# CIF created using the CSD Python API on 29 September 2022
# The structure has been converted into the P1 space group
# The structure has a 3D framework
# The original CSD entry VACLAP is in the monoclinic crystal system
# The framework has been calculated to contain at least 10.0% void space
# The void calculation uses a probe of radius 1.32A, grid spacing 0.4
# The framework is charged, counterions have been retained in the structure
#
###############################################################################

data_VACLAP
_chemical_formula_moiety         '(C320 H192 Cd12 N16 O64 8-)n'
_symmetry_cell_setting           triclinic
_symmetry_space_group_name_H-M   'P 1'
_symmetry_Int_Tables_number      1
_space_group_name_Hall           'P 1'
loop_
_symmetry_equiv_pos_site_id
_symmetry_equiv_pos_as_xyz
1 x,y,z
_cell_length_a                   26.9364(7)
_cell_length_b                   22.1231(4)
_cell_length_c                   26.0462(8)
_cell_angle_alpha                90
_cell_angle_beta                 109.737(3)
_cell_angle_gamma                90
_cell_volume                     14609.5
loop_
_atom_site_label
_atom_site_type_symbol
_atom_site_fract_x
_atom_site_fract_y
_atom_site_fract_z
Cd1 Cd 0.25803(2) 0.639487(19) 0.54509(2)
Cd2 Cd 0.130160(19) 0.60138(2) 0.45634(2)
Cd3 Cd 0.39028(2) 0.61499(2) 0.63253(3)
C1 C 0.3534(4) 0.6069(4) 0.4707(3)
O1 O 0.2798(2) 0.7905(2) 0.1099(2)
O3 O 0.3410(2) 0.6485(2) 0.5408(2)
O5 O 0.2381(3) 0.5552(2) 0.4908(2)
C2 C 0.2410(3) 0.4615(3) 0.4504(3)
O8 O 0.3946(2) 0.5694(2) 0.5505(2)
O9 O 0.3581(2) 0.8150(3) 0.1716(3)
C3 C 0.3643(3) 0.6070(3) 0.5225(4)
O12 O 0.1625(2) 0.5156(2) 0.4385(3)
C5 C 0.2780(3) 0.1205(3) 0.1870(4)
H1 H 0.2923 0.1520 0.2125
C6 C 0.3170(3) 0.7838(3) 0.1550(3)
C8 C 0.2881(3) 0.0257(3) 0.1450(3)
N1 N 0.1927(3) 0.1708(3) 0.1583(4)
C10 C 0.3128(3) 0.7334(3) 0.1907(3)
C11 C 0.2407(3) 0.3675(3) 0.4034(4)
H2 H 0.2216 0.3359 0.3805
C12 C 0.1384(3) 0.1598(3) 0.1424(4)
C13 C 0.3027(4) 0.6437(3) 0.3734(4)
H3 H 0.2799 0.6739 0.3519
C14 C 0.2115(4) 0.5157(3) 0.4613(4)
C15 C 0.2141(3) 0.4157(3) 0.4150(3)
H4 H 0.1768 0.4178 0.3988
C17 C 0.3182(4) 0.6461(3) 0.4291(3)
H5 H 0.3037 0.6788 0.4430
C20 C 0.2266(3) 0.1220(3) 0.1543(4)
C21 C 0.2377(3) 0.0303(3) 0.1121(4)
C22 C 0.3092(3) 0.0727(3) 0.1828(4)
H8 H 0.3452 0.0713 0.2055
C23 C 0.2063(3) 0.0787(4) 0.1157(4)
H9 H 0.1710 0.0816 0.0914
C24 C 0.2122(3) 0.2302(3) 0.1773(4)
C25 C 0.2942(4) 0.3650(3) 0.4246(4)
C29 C 0.2595(5) 0.1450(3) 0.3649(4)
N2 N 0.3025(4) 0.5883(3) 0.2907(3)
C30 C 0.3210(4) 0.5953(3) 0.3480(4)
C31 C 0.3059(4) 0.6360(3) 0.2565(3)
C32 C 0.2952(3) 0.4585(3) 0.4717(4)
H12 H 0.3142 0.4895 0.4955
C33 C 0.2713(4) 0.6925(4) 0.1729(4)
H13 H 0.2450 0.6972 0.1381
C34 C 0.2688(5) 0.6431(4) 0.2075(4)
H14 H 0.2404 0.6152 0.1956
C35 C 0.2856(4) 0.5285(3) 0.2693(4)
C37 C 0.3502(4) 0.7246(4) 0.2399(4)
H16 H 0.3791 0.7520 0.2516
C38 C 0.2575(4) 0.4106(3) 0.2319(4)
C39 C 0.3568(4) 0.5554(4) 0.3827(4)
H17 H 0.3710 0.5239 0.3671
C40 C 0.3222(3) 0.4117(3) 0.4592(4)
H18 H 0.3596 0.4106 0.4738
C42 C 0.2878(4) 0.2402(4) 0.3418(5)
H19 H 0.2954 0.2656 0.3160
C44 C 0.2975(4) 0.2603(3) 0.3911(5)
N4 N 0.3218(3) 0.3182(3) 0.4093(5)
C46 C 0.2445(3) 0.4350(3) 0.2743(3)
H22 H 0.2242 0.4117 0.2906
C47 C 0.2433(3) 0.3474(3) 0.2149(4)
C48 C 0.2605(4) 0.4928(3) 0.2938(4)
H23 H 0.2534 0.5070 0.3250
C51 C 0.3721(4) 0.5595(4) 0.4379(4)
H26 H 0.3968 0.5303 0.4583
C52 C 0.1170(3) 0.1105(3) 0.1598(4)
H27 H 0.1401 0.0827 0.1843
C53 C 0.1863(4) 0.2618(4) 0.2091(5)
H28 H 0.1589 0.2428 0.2185
C54 C 0.1036(3) 0.2002(4) 0.1063(4)
H29 H 0.1173 0.2347 0.0939
C56 C 0.2502(4) 0.2596(4) 0.1628(5)
H30 H 0.2662 0.2404 0.1396
C57 C 0.2016(4) 0.3201(4) 0.2259(4)
H31 H 0.1832 0.3420 0.2452
C59 C 0.3481(4) 0.6761(4) 0.2747(4)
H33 H 0.3747 0.6711 0.3093
C60 C 0.2853(6) 0.2252(4) 0.4313(6)
H34 H 0.2898 0.2407 0.4666
C62 C 0.2975(6) 0.5057(4) 0.2264(5)
H36 H 0.3157 0.5304 0.2087
C63 C 0.2663(6) 0.1668(4) 0.4160(5)
H37 H 0.2580 0.1417 0.4416
C64 C 0.2838(6) 0.4482(4) 0.2081(5)
H38 H 0.2928 0.4338 0.1780
C65 C 0.2668(5) 0.1838(4) 0.3253(5)
H39 H 0.2577 0.1715 0.2883
C66 C 0.2401(5) 0.0826(3) 0.3483(4)
O15 O 0.5163(3) 0.4031(4) 0.3378(3)
C68 C 0.0290(3) 0.1398(3) 0.1062(3)
C69 C 0.0652(3) 0.1005(3) 0.1436(3)
H40 H 0.0523 0.0664 0.1574
O16 O 0.5457(3) 0.3186(3) 0.3793(4)
C70 C 0.0504(4) 0.1909(4) 0.0887(4)
H41 H 0.0275 0.2190 0.0645
C71 C 0.5090(4) 0.3570(5) 0.3620(5)
C72 C 0.3680(4) 0.3299(4) 0.3958(6)
C73 C 0.2650(5) 0.3166(4) 0.1817(5)
H42 H 0.2916 0.3361 0.1714
C74 C 0.4191(4) 0.3915(4) 0.3568(5)
H43 H 0.4229 0.4272 0.3382
C75 C 0.3738(3) 0.3815(4) 0.3704(5)
H44 H 0.3468 0.4113 0.3617
C76 C 0.2091(6) 0.0509(4) 0.3719(4)
H45 H 0.2002 0.0686 0.4009
C77 C 0.2526(5) 0.0543(4) 0.3074(5)
H46 H 0.2739 0.0752 0.2907
C78 C 0.4508(5) 0.2938(4) 0.3950(8)
H47 H 0.4761 0.2622 0.4024
C79 C 0.4070(5) 0.2856(4) 0.4075(8)
H48 H 0.4025 0.2492 0.4246
C80 C 0.4602(4) 0.3460(5) 0.3718(5)
Cd6 Cd 0.25803(2) 0.860513(19) 0.04509(2)
Cd10 Cd 0.60972(2) 0.38501(2) 0.36747(3)
Cd12 Cd 0.39028(2) 0.88501(2) 0.13253(3)
O17 O 0.2798(2) 0.7095(2) 0.6099(2)
O18 O 0.1728(2) 0.6360(2) 0.5467(2)
O19 O 0.2294(2) 0.7088(2) 0.4803(2)
O20 O 0.3707(2) 0.5279(2) 0.6674(3)
O21 O 0.1147(2) 0.5632(2) 0.5347(2)
O22 O 0.3581(2) 0.6850(3) 0.6716(3)
O23 O 0.3000(3) 0.5701(2) 0.6121(3)
O24 O 0.1641(3) 0.6651(2) 0.4115(2)
O25 O 0.0467(2) 0.5829(2) 0.3969(2)
O26 O 0.0575(2) 0.6647(2) 0.4472(3)
O27 O 0.4837(3) 0.5969(4) 0.6622(3)
O28 O 0.4543(3) 0.6814(3) 0.6207(4)
O2 O 0.1728(2) 0.8640(2) 0.0467(2)
O6 O 0.3707(2) 0.9721(2) 0.1674(3)
O7 O 0.1147(2) 0.9368(2) 0.0347(2)
O10 O 0.3000(3) 0.9299(2) 0.1121(3)
C4 C 0.1954(3) 0.7588(3) 0.3948(3)
C7 C 0.3223(4) 0.9744(3) 0.1420(4)
C9 C 0.1575(3) 0.8981(3) 0.1282(2)
C16 C 0.1476(3) 0.9003(3) 0.0660(3)
C18 C 0.1961(4) 0.7060(3) 0.4326(3)
C19 C 0.1878(4) 0.8549(3) 0.1592(4)
H6 H 0.2031 0.8241 0.1439
H7 H 0.2232 0.9996 0.0858
C26 C 0.1291(4) 0.9412(4) 0.1459(4)
H10 H 0.1059 0.9690 0.1217
C27 C 0.1716(5) 0.8999(3) 0.2342(3)
C28 C 0.1605(4) 0.7603(3) 0.3427(3)
H11 H 0.1382 0.7263 0.3297
C36 C 0.1958(4) 0.8573(3) 0.2129(3)
H15 H 0.2186 0.8287 0.2366
N3 N 0.1842(4) 0.9069(3) 0.2936(3)
C41 C 0.2068(6) 0.9657(3) 0.3141(3)
C43 C 0.2249(5) 0.8557(4) 0.3788(4)
H20 H 0.2472 0.8896 0.3920
C45 C 0.2288(4) 0.8062(3) 0.4124(4)
H21 H 0.2548 0.8055 0.4478
C49 C 0.2357(5) 0.9972(4) 0.2894(4)
H24 H 0.2441 0.9799 0.2600
C50 C 0.1370(5) 0.9406(3) 0.2013(4)
H25 H 0.1186 0.9682 0.2163
C55 C 0.1897(5) 0.8563(3) 0.3273(3)
C58 C 0.1903(6) 0.9922(4) 0.3530(4)
H32 H 0.1667 0.9717 0.3671
C61 C 0.1560(5) 0.8080(4) 0.3085(4)
H35 H 0.1306 0.8081 0.2728
Cd9 Cd 0.130160(19) 0.89862(2) 0.95634(2)
O13 O 0.9533(2) 0.0829(2) 0.1031(2)
O14 O 0.9425(2) 0.1647(2) 0.0528(3)
C67 C 0.9712(3) 0.1301(3) 0.0863(2)
Cd8 Cd 0.869840(19) 0.10138(2) 0.04366(2)
C67_2 C 0.0288(3) 0.6301(3) 0.4137(2)
C1_2 C 0.6466(4) 0.1069(4) 0.0293(3)
O1_2 O 0.7202(2) 0.2905(2) 0.3901(2)
O5_2 O 0.7619(3) 0.0552(2) 0.0092(2)
O9_2 O 0.6419(2) 0.3150(3) 0.3284(3)
O12_2 O 0.8375(2) 0.0156(2) 0.0615(3)
C6_2 C 0.6830(3) 0.2838(3) 0.3450(3)
C10_2 C 0.6872(3) 0.2334(3) 0.3093(3)
C13_2 C 0.6973(4) 0.1437(3) 0.1266(4)
H3_2 H 0.7201 0.1739 0.1481
C14_2 C 0.7885(4) 0.0157(3) 0.0387(4)
C17_2 C 0.6818(4) 0.1461(3) 0.0709(3)
H5_2 H 0.6963 0.1788 0.0570
N2_2 N 0.6975(4) 0.0883(3) 0.2093(3)
C30_2 C 0.6790(4) 0.0953(3) 0.1520(4)
C31_2 C 0.6941(4) 0.1360(3) 0.2435(3)
C33_2 C 0.7287(4) 0.1925(4) 0.3271(4)
H13_2 H 0.7550 0.1972 0.3619
C34_2 C 0.7312(5) 0.1431(4) 0.2925(4)
H14_2 H 0.7596 0.1152 0.3044
C35_2 C 0.7144(4) 0.0285(3) 0.2307(4)
C37_2 C 0.6498(4) 0.2246(4) 0.2601(4)
H16_2 H 0.6209 0.2520 0.2484
C39_2 C 0.6432(4) 0.0554(4) 0.1173(4)
H17_2 H 0.6290 0.0239 0.1329
H23_2 H 0.7466 0.0070 0.1750
C51_2 C 0.6279(4) 0.0595(4) 0.0621(4)
H26_2 H 0.6032 0.0303 0.0417
C59_2 C 0.6519(4) 0.1761(4) 0.2253(4)
H33_2 H 0.6253 0.1711 0.1907
C62_2 C 0.7025(6) 0.0057(4) 0.2736(5)
H36_2 H 0.6843 0.0304 0.2913
Cd6_2 Cd 0.74197(2) 0.360513(19) 0.45491(2)
O19_2 O 0.7706(2) 0.2088(2) 0.0197(2)
O24_2 O 0.8359(3) 0.1651(2) 0.0885(2)
Cd1_2 Cd 0.74197(2) 0.139487(19) 0.95491(2)
Cd3_2 Cd 0.60972(2) 0.11499(2) 0.86747(3)
O3_2 O 0.6590(2) 0.1485(2) 0.9592(2)
O8_2 O 0.6054(2) 0.0694(2) 0.9495(2)
C3_2 C 0.6357(3) 0.1070(3) 0.9775(4)
O17_2 O 0.7202(2) 0.2095(2) 0.8901(2)
O18_2 O 0.8272(2) 0.1360(2) 0.9533(2)
O20_2 O 0.6293(2) 0.0279(2) 0.8326(3)
O21_2 O 0.8853(2) 0.0632(2) 0.9653(2)
O22_2 O 0.6419(2) 0.1850(3) 0.8284(3)
O23_2 O 0.7000(3) 0.0701(2) 0.8879(3)
O27_2 O 0.5163(3) 0.0969(4) 0.8378(3)
O28_2 O 0.5457(3) 0.1814(3) 0.8793(4)
O2_2 O 0.8272(2) 0.3640(2) 0.4533(2)
O6_2 O 0.6293(2) 0.4721(2) 0.3326(3)
O7_2 O 0.8853(2) 0.4368(2) 0.4653(2)
C2_2 C 0.7590(3) 0.9615(3) 0.0496(3)
O10_2 O 0.7000(3) 0.4299(2) 0.3879(3)
C4_2 C 0.8046(3) 0.2588(3) 0.1052(3)
C5_2 C 0.7220(3) 0.6205(3) 0.3130(4)
H1_2 H 0.7077 0.6520 0.2875
C7_2 C 0.6777(4) 0.4744(3) 0.3580(4)
C8_2 C 0.7119(3) 0.5257(3) 0.3550(3)
C9_2 C 0.8425(3) 0.3981(3) 0.3718(2)
N1_2 N 0.8073(3) 0.6708(3) 0.3417(4)
C11_2 C 0.7593(3) 0.8675(3) 0.0966(4)
H2_2 H 0.7784 0.8359 0.1195
C12_2 C 0.8616(3) 0.6598(3) 0.3576(4)
C15_2 C 0.7859(3) 0.9157(3) 0.0850(3)
H4_2 H 0.8232 0.9178 0.1012
C16_2 C 0.8524(3) 0.4003(3) 0.4340(3)
C18_2 C 0.8039(4) 0.2060(3) 0.0674(3)
C19_2 C 0.8122(4) 0.3549(3) 0.3408(4)
H6_2 H 0.7969 0.3241 0.3561
C20_2 C 0.7734(3) 0.6220(3) 0.3457(4)
C21_2 C 0.7623(3) 0.5303(3) 0.3879(4)
H7_2 H 0.7768 0.4996 0.4142
C22_2 C 0.6908(3) 0.5727(3) 0.3172(4)
H8_2 H 0.6548 0.5713 0.2945
C23_2 C 0.7937(3) 0.5787(4) 0.3843(4)
H9_2 H 0.8290 0.5816 0.4086
C24_2 C 0.7878(3) 0.7302(3) 0.3227(4)
C25_2 C 0.7058(4) 0.8650(3) 0.0754(4)
C26_2 C 0.8709(4) 0.4412(4) 0.3541(4)
H10_2 H 0.8941 0.4690 0.3783
C27_2 C 0.8284(5) 0.3999(3) 0.2658(3)
C28_2 C 0.8395(4) 0.2603(3) 0.1573(3)
H11_2 H 0.8618 0.2263 0.1703
C29_2 C 0.7405(5) 0.6450(3) 0.1351(4)
C32_2 C 0.7048(3) 0.9585(3) 0.0283(4)
H12_2 H 0.6858 0.9895 0.0045
C36_2 C 0.8042(4) 0.3573(3) 0.2871(3)
H15_2 H 0.7814 0.3287 0.2634
N3_2 N 0.8158(4) 0.4069(3) 0.2064(3)
C38_2 C 0.7425(4) 0.9106(3) 0.2681(4)
C40_2 C 0.6778(3) 0.9117(3) 0.0408(4)
H18_2 H 0.6404 0.9106 0.0262
C41_2 C 0.7932(6) 0.4657(3) 0.1859(3)
C42_2 C 0.7122(4) 0.7402(4) 0.1582(5)
H19_2 H 0.7046 0.7656 0.1840
C43_2 C 0.7751(5) 0.3557(4) 0.1212(4)
H20_2 H 0.7528 0.3896 0.1080
C44_2 C 0.7025(4) 0.7603(3) 0.1089(5)
N4_2 N 0.6782(3) 0.8182(3) 0.0907(5)
C45_2 C 0.7712(4) 0.3062(3) 0.0876(4)
H21_2 H 0.7452 0.3055 0.0522
C46_2 C 0.7555(3) 0.9350(3) 0.2257(3)
H22_2 H 0.7758 0.9117 0.2094
C47_2 C 0.7567(3) 0.8474(3) 0.2851(4)
C48_2 C 0.7395(4) 0.9928(3) 0.2062(4)
C49_2 C 0.7643(5) 0.4972(4) 0.2106(4)
H24_2 H 0.7559 0.4799 0.2400
C50_2 C 0.8630(5) 0.4406(3) 0.2987(4)
H25_2 H 0.8814 0.4682 0.2837
C52_2 C 0.8830(3) 0.6105(3) 0.3402(4)
H27_2 H 0.8599 0.5827 0.3157
C53_2 C 0.8137(4) 0.7618(4) 0.2909(5)
H28_2 H 0.8411 0.7428 0.2815
C54_2 C 0.8964(3) 0.7002(4) 0.3937(4)
H29_2 H 0.8827 0.7347 0.4061
C55_2 C 0.8103(5) 0.3563(3) 0.1727(3)
C56_2 C 0.7498(4) 0.7596(4) 0.3372(5)
H30_2 H 0.7338 0.7404 0.3604
C57_2 C 0.7984(4) 0.8201(4) 0.2741(4)
H31_2 H 0.8168 0.8420 0.2548
C58_2 C 0.8097(6) 0.4922(4) 0.1470(4)
H32_2 H 0.8333 0.4717 0.1329
C60_2 C 0.7147(6) 0.7252(4) 0.0687(6)
H34_2 H 0.7102 0.7407 0.0334
C61_2 C 0.8440(5) 0.3080(4) 0.1915(4)
H35_2 H 0.8694 0.3081 0.2272
C63_2 C 0.7337(6) 0.6668(4) 0.0840(5)
H37_2 H 0.7420 0.6417 0.0584
C64_2 C 0.7162(6) 0.9482(4) 0.2919(5)
H38_2 H 0.7072 0.9338 0.3220
C65_2 C 0.7332(5) 0.6838(4) 0.1747(5)
H39_2 H 0.7423 0.6715 0.2117
C66_2 C 0.7599(5) 0.5826(3) 0.1517(4)
O15_2 O 0.4837(3) 0.9031(4) 0.1622(3)
C68_2 C 0.9710(3) 0.6398(3) 0.3938(3)
C69_2 C 0.9348(3) 0.6005(3) 0.3564(3)
H40_2 H 0.9477 0.5664 0.3426
O16_2 O 0.4543(3) 0.8186(3) 0.1207(4)
C70_2 C 0.9496(4) 0.6909(4) 0.4113(4)
H41_2 H 0.9725 0.7190 0.4355
C71_2 C 0.4910(4) 0.8570(5) 0.1380(5)
C72_2 C 0.6320(4) 0.8299(4) 0.1042(6)
C73_2 C 0.7350(5) 0.8166(4) 0.3183(5)
H42_2 H 0.7084 0.8361 0.3286
C74_2 C 0.5809(4) 0.8915(4) 0.1432(5)
H43_2 H 0.5771 0.9272 0.1618
C75_2 C 0.6262(3) 0.8815(4) 0.1296(5)
H44_2 H 0.6532 0.9113 0.1383
C76_2 C 0.7909(6) 0.5509(4) 0.1281(4)
H45_2 H 0.7998 0.5686 0.0991
C77_2 C 0.7474(5) 0.5543(4) 0.1926(5)
H46_2 H 0.7261 0.5752 0.2093
C78_2 C 0.5492(5) 0.7938(4) 0.1050(8)
H47_2 H 0.5239 0.7622 0.0976
C79_2 C 0.5930(5) 0.7856(4) 0.0925(8)
H48_2 H 0.5975 0.7492 0.0754
C80_2 C 0.5398(4) 0.8460(5) 0.1282(5)
Cd9_2 Cd 0.869840(19) 0.39862(2) 0.54366(2)
O13_2 O 0.0467(2) 0.9171(2) 0.8969(2)
O14_2 O 0.0575(2) 0.8353(2) 0.9472(3)
C67_3 C 0.0288(3) 0.8699(3) 0.9137(2)
O4 O 0.7706(2) 0.2912(2) 0.5197(2)
C4_3 C 0.8046(3) 0.2412(3) 0.6052(3)
O11 O 0.8359(3) 0.3349(2) 0.5885(2)
C7_3 C 0.6777(4) 0.0256(3) 0.8580(4)
C9_3 C 0.8425(3) 0.1019(3) 0.8718(2)
C16_3 C 0.8524(3) 0.0997(3) 0.9340(3)
C18_3 C 0.8039(4) 0.2940(3) 0.5674(3)
C19_3 C 0.8122(4) 0.1451(3) 0.8408(4)
H6_3 H 0.7969 0.1759 0.8561
H7_3 H 0.7768 0.0004 0.9142
C26_3 C 0.8709(4) 0.0588(4) 0.8541(4)
H10_3 H 0.8941 0.0310 0.8783
C27_3 C 0.8284(5) 0.1001(3) 0.7658(3)
C28_3 C 0.8395(4) 0.2397(3) 0.6573(3)
H11_3 H 0.8618 0.2737 0.6703
C36_3 C 0.8042(4) 0.1427(3) 0.7871(3)
H15_3 H 0.7814 0.1713 0.7634
N3_3 N 0.8158(4) 0.0931(3) 0.7064(3)
C41_3 C 0.7932(6) 0.0343(3) 0.6859(3)
C43_3 C 0.7751(5) 0.1443(4) 0.6212(4)
H20_3 H 0.7528 0.1104 0.6080
C45_3 C 0.7712(4) 0.1938(3) 0.5876(4)
H21_3 H 0.7452 0.1945 0.5522
C49_3 C 0.7643(5) 0.0028(4) 0.7106(4)
H24_3 H 0.7559 0.0201 0.7400
C50_3 C 0.8630(5) 0.0594(3) 0.7987(4)
H25_3 H 0.8814 0.0318 0.7837
C55_3 C 0.8103(5) 0.1437(3) 0.6727(3)
C58_3 C 0.8097(6) 0.0078(4) 0.6470(4)
H32_3 H 0.8333 0.0283 0.6329
C61_3 C 0.8440(5) 0.1920(4) 0.6915(4)
H35_3 H 0.8694 0.1919 0.7272
C1_3 C 0.6466(4) 0.3931(4) 0.5293(3)
O3_3 O 0.6590(2) 0.3515(2) 0.4592(2)
O5_3 O 0.7619(3) 0.4448(2) 0.5092(2)
C2_3 C 0.7590(3) 0.5385(3) 0.5496(3)
O8_3 O 0.6054(2) 0.4306(2) 0.4495(2)
C3_3 C 0.6357(3) 0.3930(3) 0.4775(4)
O12_3 O 0.8375(2) 0.4844(2) 0.5615(3)
C5_3 C 0.7220(3) 0.8795(3) 0.8130(4)
H1_3 H 0.7077 0.8480 0.7875
C6_3 C 0.6830(3) 0.2162(3) 0.8450(3)
C8_3 C 0.7119(3) 0.9743(3) 0.8550(3)
N1_3 N 0.8073(3) 0.8292(3) 0.8417(4)
C10_3 C 0.6872(3) 0.2666(3) 0.8093(3)
C11_3 C 0.7593(3) 0.6325(3) 0.5966(4)
H2_3 H 0.7784 0.6641 0.6195
C12_3 C 0.8616(3) 0.8402(3) 0.8576(4)
C13_3 C 0.6973(4) 0.3563(3) 0.6266(4)
H3_3 H 0.7201 0.3261 0.6481
C14_3 C 0.7885(4) 0.4843(3) 0.5387(4)
C15_3 C 0.7859(3) 0.5843(3) 0.5850(3)
H4_3 H 0.8232 0.5822 0.6012
C17_3 C 0.6818(4) 0.3539(3) 0.5709(3)
H5_3 H 0.6963 0.3212 0.5570
C20_3 C 0.7734(3) 0.8780(3) 0.8457(4)
C21_3 C 0.7623(3) 0.9697(3) 0.8879(4)
C22_3 C 0.6908(3) 0.9273(3) 0.8172(4)
H8_3 H 0.6548 0.9287 0.7945
C23_3 C 0.7937(3) 0.9213(4) 0.8843(4)
H9_3 H 0.8290 0.9184 0.9086
C24_3 C 0.7878(3) 0.7698(3) 0.8227(4)
C25_3 C 0.7058(4) 0.6350(3) 0.5754(4)
C29_3 C 0.7405(5) 0.8550(3) 0.6351(4)
N2_3 N 0.6975(4) 0.4117(3) 0.7093(3)
C30_3 C 0.6790(4) 0.4047(3) 0.6520(4)
C31_3 C 0.6941(4) 0.3640(3) 0.7435(3)
C32_3 C 0.7048(3) 0.5415(3) 0.5283(4)
H12_3 H 0.6858 0.5105 0.5045
C33_3 C 0.7287(4) 0.3075(4) 0.8271(4)
H13_3 H 0.7550 0.3028 0.8619
C34_3 C 0.7312(5) 0.3569(4) 0.7925(4)
H14_3 H 0.7596 0.3848 0.8044
C35_3 C 0.7144(4) 0.4715(3) 0.7307(4)
C37_3 C 0.6498(4) 0.2754(4) 0.7601(4)
H16_3 H 0.6209 0.2480 0.7484
C38_3 C 0.7425(4) 0.5894(3) 0.7681(4)
C39_3 C 0.6432(4) 0.4446(4) 0.6173(4)
H17_3 H 0.6290 0.4761 0.6329
C40_3 C 0.6778(3) 0.5883(3) 0.5408(4)
H18_3 H 0.6404 0.5894 0.5262
C42_3 C 0.7122(4) 0.7598(4) 0.6582(5)
H19_3 H 0.7046 0.7344 0.6840
C44_3 C 0.7025(4) 0.7397(3) 0.6089(5)
N4_3 N 0.6782(3) 0.6818(3) 0.5907(5)
C46_3 C 0.7555(3) 0.5650(3) 0.7257(3)
H22_3 H 0.7758 0.5883 0.7094
C47_3 C 0.7567(3) 0.6526(3) 0.7851(4)
C48_3 C 0.7395(4) 0.5072(3) 0.7062(4)
H23_3 H 0.7466 0.4930 0.6750
C51_3 C 0.6279(4) 0.4405(4) 0.5621(4)
H26_3 H 0.6032 0.4697 0.5417
C52_3 C 0.8830(3) 0.8895(3) 0.8402(4)
H27_3 H 0.8599 0.9173 0.8157
C53_3 C 0.8137(4) 0.7382(4) 0.7909(5)
H28_3 H 0.8411 0.7572 0.7815
C54_3 C 0.8964(3) 0.7998(4) 0.8937(4)
H29_3 H 0.8827 0.7653 0.9061
C56_3 C 0.7498(4) 0.7404(4) 0.8372(5)
H30_3 H 0.7338 0.7596 0.8604
C57_3 C 0.7984(4) 0.6799(4) 0.7741(4)
H31_3 H 0.8168 0.6580 0.7548
C59_3 C 0.6519(4) 0.3239(4) 0.7253(4)
H33_3 H 0.6253 0.3289 0.6907
C60_3 C 0.7147(6) 0.7748(4) 0.5687(6)
H34_3 H 0.7102 0.7593 0.5334
C62_3 C 0.7025(6) 0.4943(4) 0.7736(5)
H36_3 H 0.6843 0.4696 0.7913
C63_3 C 0.7337(6) 0.8332(4) 0.5840(5)
H37_3 H 0.7420 0.8583 0.5584
C64_3 C 0.7162(6) 0.5518(4) 0.7919(5)
H38_3 H 0.7072 0.5662 0.8220
C65_3 C 0.7332(5) 0.8162(4) 0.6747(5)
H39_3 H 0.7423 0.8285 0.7117
C66_3 C 0.7599(5) 0.9174(3) 0.6517(4)
C68_3 C 0.9710(3) 0.8602(3) 0.8938(3)
C69_3 C 0.9348(3) 0.8995(3) 0.8564(3)
H40_3 H 0.9477 0.9336 0.8426
C70_3 C 0.9496(4) 0.8091(4) 0.9113(4)
H41_3 H 0.9725 0.7810 0.9355
C71_3 C 0.4910(4) 0.6430(5) 0.6380(5)
C72_3 C 0.6320(4) 0.6701(4) 0.6042(6)
C73_3 C 0.7350(5) 0.6834(4) 0.8183(5)
H42_3 H 0.7084 0.6639 0.8286
C74_3 C 0.5809(4) 0.6085(4) 0.6432(5)
H43_3 H 0.5771 0.5728 0.6618
C75_3 C 0.6262(3) 0.6185(4) 0.6296(5)
H44_3 H 0.6532 0.5887 0.6383
C76_3 C 0.7909(6) 0.9491(4) 0.6281(4)
H45_3 H 0.7998 0.9314 0.5991
C77_3 C 0.7474(5) 0.9457(4) 0.6926(5)
H46_3 H 0.7261 0.9248 0.7093
C78_3 C 0.5492(5) 0.7062(4) 0.6050(8)
H47_3 H 0.5239 0.7378 0.5976
C79_3 C 0.5930(5) 0.7144(4) 0.5925(8)
H48_3 H 0.5975 0.7508 0.5754
C80_3 C 0.5398(4) 0.6540(5) 0.6282(5)
O25_2 O 0.9533(2) 0.4171(2) 0.6031(2)
O26_2 O 0.9425(2) 0.3353(2) 0.5528(3)
O4_2 O 0.2294(2) 0.7912(2) 0.9803(2)
C2_4 C 0.2410(3) 0.0385(3) 0.9504(3)
C4_4 C 0.1954(3) 0.7412(3) 0.8948(3)
O11_2 O 0.1641(3) 0.8349(2) 0.9115(2)
C5_4 C 0.2780(3) 0.3795(3) 0.6870(4)
H1_4 H 0.2923 0.3480 0.7125
C7_4 C 0.3223(4) 0.5256(3) 0.6420(4)
C8_4 C 0.2881(3) 0.4743(3) 0.6450(3)
C9_4 C 0.1575(3) 0.6019(3) 0.6282(2)
N1_4 N 0.1927(3) 0.3292(3) 0.6583(4)
C11_4 C 0.2407(3) 0.1325(3) 0.9034(4)
H2_4 H 0.2216 0.1641 0.8805
C12_4 C 0.1384(3) 0.3402(3) 0.6424(4)
C15_4 C 0.2141(3) 0.0843(3) 0.9150(3)
H4_4 H 0.1768 0.0822 0.8988
C16_4 C 0.1476(3) 0.5997(3) 0.5660(3)
C18_4 C 0.1961(4) 0.7940(3) 0.9326(3)
C19_4 C 0.1878(4) 0.6451(3) 0.6592(4)
H6_4 H 0.2031 0.6759 0.6439
C20_4 C 0.2266(3) 0.3780(3) 0.6543(4)
C21_4 C 0.2377(3) 0.4697(3) 0.6121(4)
H7_4 H 0.2232 0.5004 0.5858
C22_4 C 0.3092(3) 0.4273(3) 0.6828(4)
H8_4 H 0.3452 0.4287 0.7055
C23_4 C 0.2063(3) 0.4213(4) 0.6157(4)
H9_4 H 0.1710 0.4184 0.5914
C24_4 C 0.2122(3) 0.2698(3) 0.6773(4)
C25_4 C 0.2942(4) 0.1350(3) 0.9246(4)
C26_4 C 0.1291(4) 0.5588(4) 0.6459(4)
H10_4 H 0.1059 0.5310 0.6217
C27_4 C 0.1716(5) 0.6001(3) 0.7342(3)
C28_4 C 0.1605(4) 0.7397(3) 0.8427(3)
H11_4 H 0.1382 0.7737 0.8297
C29_4 C 0.2595(5) 0.3550(3) 0.8649(4)
C32_4 C 0.2952(3) 0.0415(3) 0.9717(4)
H12_4 H 0.3142 0.0105 0.9955
C36_4 C 0.1958(4) 0.6427(3) 0.7129(3)
H15_4 H 0.2186 0.6713 0.7366
N3_4 N 0.1842(4) 0.5931(3) 0.7936(3)
C38_4 C 0.2575(4) 0.0894(3) 0.7319(4)
C40_4 C 0.3222(3) 0.0883(3) 0.9592(4)
H18_4 H 0.3596 0.0894 0.9738
C41_4 C 0.2068(6) 0.5343(3) 0.8141(3)
C42_4 C 0.2878(4) 0.2598(4) 0.8418(5)
H19_4 H 0.2954 0.2344 0.8160
C43_4 C 0.2249(5) 0.6443(4) 0.8788(4)
H20_4 H 0.2472 0.6104 0.8920
C44_4 C 0.2975(4) 0.2397(3) 0.8911(5)
N4_4 N 0.3218(3) 0.1818(3) 0.9093(5)
C45_4 C 0.2288(4) 0.6938(3) 0.9124(4)
H21_4 H 0.2548 0.6945 0.9478
C46_4 C 0.2445(3) 0.0650(3) 0.7743(3)
H22_4 H 0.2242 0.0883 0.7906
C47_4 C 0.2433(3) 0.1526(3) 0.7149(4)
C48_4 C 0.2605(4) 0.0072(3) 0.7938(4)
C49_4 C 0.2357(5) 0.5028(4) 0.7894(4)
H24_4 H 0.2441 0.5201 0.7600
C50_4 C 0.1370(5) 0.5594(3) 0.7013(4)
H25_4 H 0.1186 0.5318 0.7163
C52_4 C 0.1170(3) 0.3895(3) 0.6598(4)
H27_4 H 0.1401 0.4173 0.6843
C53_4 C 0.1863(4) 0.2382(4) 0.7091(5)
H28_4 H 0.1589 0.2572 0.7185
C54_4 C 0.1036(3) 0.2998(4) 0.6063(4)
H29_4 H 0.1173 0.2653 0.5939
C55_4 C 0.1897(5) 0.6437(3) 0.8273(3)
C56_4 C 0.2502(4) 0.2404(4) 0.6628(5)
H30_4 H 0.2662 0.2596 0.6396
C57_4 C 0.2016(4) 0.1799(4) 0.7259(4)
H31_4 H 0.1832 0.1580 0.7452
C58_4 C 0.1903(6) 0.5078(4) 0.8530(4)
H32_4 H 0.1667 0.5283 0.8671
C60_4 C 0.2853(6) 0.2748(4) 0.9313(6)
H34_4 H 0.2898 0.2593 0.9666
C61_4 C 0.1560(5) 0.6920(4) 0.8085(4)
H35_4 H 0.1306 0.6919 0.7728
C63_4 C 0.2663(6) 0.3332(4) 0.9160(5)
H37_4 H 0.2580 0.3583 0.9416
C64_4 C 0.2838(6) 0.0518(4) 0.7081(5)
H38_4 H 0.2928 0.0662 0.6780
C65_4 C 0.2668(5) 0.3162(4) 0.8253(5)
H39_4 H 0.2577 0.3285 0.7883
C66_4 C 0.2401(5) 0.4174(3) 0.8483(4)
C68_4 C 0.0290(3) 0.3602(3) 0.6062(3)
C69_4 C 0.0652(3) 0.3995(3) 0.6436(3)
H40_4 H 0.0523 0.4336 0.6574
C70_4 C 0.0504(4) 0.3091(4) 0.5887(4)
H41_4 H 0.0275 0.2810 0.5645
C71_4 C 0.5090(4) 0.1430(5) 0.8620(5)
C72_4 C 0.3680(4) 0.1701(4) 0.8958(6)
C73_4 C 0.2650(5) 0.1834(4) 0.6817(5)
H42_4 H 0.2916 0.1639 0.6714
C74_4 C 0.4191(4) 0.1085(4) 0.8568(5)
H43_4 H 0.4229 0.0728 0.8382
C75_4 C 0.3738(3) 0.1185(4) 0.8704(5)
H44_4 H 0.3468 0.0887 0.8617
C76_4 C 0.2091(6) 0.4491(4) 0.8719(4)
H45_4 H 0.2002 0.4314 0.9009
C77_4 C 0.2526(5) 0.4457(4) 0.8074(5)
H46_4 H 0.2739 0.4248 0.7907
C78_4 C 0.4508(5) 0.2062(4) 0.8950(8)
H47_4 H 0.4761 0.2378 0.9024
C79_4 C 0.4070(5) 0.2144(4) 0.9075(8)
H48_4 H 0.4025 0.2508 0.9246
C80_4 C 0.4602(4) 0.1540(5) 0.8718(5)
O3_4 O 0.3410(2) 0.8515(2) 0.0408(2)
O8_4 O 0.3946(2) 0.9306(2) 0.0505(2)
C3_4 C 0.3643(3) 0.8930(3) 0.0225(4)
C1_4 C 0.3534(4) 0.8931(4) 0.9707(3)
O5_4 O 0.2381(3) 0.9448(2) 0.9908(2)
O12_4 O 0.1625(2) 0.9844(2) 0.9385(3)
C6_4 C 0.3170(3) 0.7162(3) 0.6550(3)
C10_4 C 0.3128(3) 0.7666(3) 0.6907(3)
C13_4 C 0.3027(4) 0.8563(3) 0.8734(4)
H3_4 H 0.2799 0.8261 0.8519
C14_4 C 0.2115(4) 0.9843(3) 0.9613(4)
C17_4 C 0.3182(4) 0.8539(3) 0.9291(3)
H5_4 H 0.3037 0.8212 0.9430
N2_4 N 0.3025(4) 0.9117(3) 0.7907(3)
C30_4 C 0.3210(4) 0.9047(3) 0.8480(4)
C31_4 C 0.3059(4) 0.8640(3) 0.7565(3)
C33_4 C 0.2713(4) 0.8075(4) 0.6729(4)
H13_4 H 0.2450 0.8028 0.6381
C34_4 C 0.2688(5) 0.8569(4) 0.7075(4)
H14_4 H 0.2404 0.8848 0.6956
C35_4 C 0.2856(4) 0.9715(3) 0.7693(4)
C37_4 C 0.3502(4) 0.7754(4) 0.7399(4)
H16_4 H 0.3791 0.7480 0.7516
C39_4 C 0.3568(4) 0.9446(4) 0.8827(4)
H17_4 H 0.3710 0.9761 0.8671
H23_4 H 0.2534 0.9930 0.8250
C51_4 C 0.3721(4) 0.9405(4) 0.9379(4)
H26_4 H 0.3968 0.9697 0.9583
C59_4 C 0.3481(4) 0.8239(4) 0.7747(4)
H33_4 H 0.3747 0.8289 0.8093
C62_4 C 0.2975(6) 0.9943(4) 0.7264(5)
H36_4 H 0.3157 0.9696 0.7087
C67_4 C 0.9712(3) 0.3699(3) 0.5863(2)
loop_
_geom_bond_atom_site_label_1
_geom_bond_atom_site_label_2
_geom_bond_site_symmetry_1
_geom_bond_site_symmetry_2
Cd1 O3 1_555 1_555
Cd2 O12 1_555 1_555
Cd3 O3 1_555 1_555
C1 C3 1_555 1_555
O1 C6 1_555 1_555
O3 C3 1_555 1_555
O5 Cd1 1_555 1_555
C2 C14 1_555 1_555
O8 Cd3 1_555 1_555
O9 C6 1_555 1_555
C3 O8 1_555 1_555
O12 C14 1_555 1_555
C5 H1 1_555 1_555
C6 C10 1_555 1_555
C8 C21 1_555 1_555
N1 C12 1_555 1_555
C10 C33 1_555 1_555
C11 H2 1_555 1_555
C12 C52 1_555 1_555
C13 H3 1_555 1_555
C14 O5 1_555 1_555
C15 C2 1_555 1_555
H4 C15 1_555 1_555
C17 C1 1_555 1_555
H5 C17 1_555 1_555
C20 C5 1_555 1_555
C22 C5 1_555 1_555
H8 C22 1_555 1_555
C23 C20 1_555 1_555
H9 C23 1_555 1_555
C24 N1 1_555 1_555
C25 C11 1_555 1_555
C29 C63 1_555 1_555
N2 C30 1_555 1_555
C30 C13 1_555 1_555
C31 N2 1_555 1_555
C32 C2 1_555 1_555
H12 C32 1_555 1_555
C33 H13 1_555 1_555
C34 C31 1_555 1_555
H14 C34 1_555 1_555
C35 N2 1_555 1_555
C37 C10 1_555 1_555
H16 C37 1_555 1_555
C38 C46 1_555 1_555
C39 C30 1_555 1_555
H17 C39 1_555 1_555
C40 C25 1_555 1_555
H18 C40 1_555 1_555
C42 H19 1_555 1_555
C44 C42 1_555 1_555
N4 C25 1_555 1_555
C46 H22 1_555 1_555
C47 C38 1_555 1_555
C48 C35 1_555 1_555
H23 C48 1_555 1_555
C51 C1 1_555 1_555
H26 C51 1_555 1_555
C52 H27 1_555 1_555
C53 C24 1_555 1_555
H28 C53 1_555 1_555
C54 C12 1_555 1_555
H29 C54 1_555 1_555
C56 C24 1_555 1_555
H30 C56 1_555 1_555
C57 C47 1_555 1_555
H31 C57 1_555 1_555
C59 C31 1_555 1_555
H33 C59 1_555 1_555
C60 C44 1_555 1_555
H34 C60 1_555 1_555
C62 C35 1_555 1_555
H36 C62 1_555 1_555
C63 C60 1_555 1_555
H37 C63 1_555 1_555
C64 C38 1_555 1_555
H38 C64 1_555 1_555
C65 C29 1_555 1_555
H39 C65 1_555 1_555
C66 C29 1_555 1_555
O15 C71 1_555 1_555
C68 C69 1_555 1_555
C69 C52 1_555 1_555
H40 C69 1_555 1_555
O16 C71 1_555 1_555
C70 C54 1_555 1_555
H41 C70 1_555 1_555
C71 C80 1_555 1_555
C72 N4 1_555 1_555
C73 C47 1_555 1_555
H42 C73 1_555 1_555
C74 H43 1_555 1_555
C75 C72 1_555 1_555
H44 C75 1_555 1_555
H45 C76 1_555 1_555
H46 C77 1_555 1_555
C78 H47 1_555 1_555
C79 C72 1_555 1_555
H48 C79 1_555 1_555
C80 C74 1_555 1_555
Cd6 O1 1_555 1_555
Cd10 O15 1_555 1_555
Cd12 O9 1_555 1_555
O17 Cd1 1_555 1_555
O18 Cd1 1_555 1_555
O19 Cd1 1_555 1_555
O20 Cd3 1_555 1_555
O21 Cd2 1_555 1_555
O22 Cd3 1_555 1_555
O23 Cd1 1_555 1_555
O24 Cd2 1_555 1_555
O25 Cd2 1_555 1_555
O26 Cd2 1_555 1_555
O27 Cd3 1_555 1_555
O28 Cd3 1_555 1_555
Cd2 O18 1_555 1_555
Cd3 O23 1_555 1_555
C8 C22 1_555 1_555
N1 C20 1_555 1_555
C11 C15 1_555 1_555
C13 C17 1_555 1_555
C21 C23 1_555 1_555
C32 C40 1_555 1_555
C33 C34 1_555 1_555
C37 C59 1_555 1_555
C39 C51 1_555 1_555
C42 C65 1_555 1_555
C44 N4 1_555 1_555
C46 C48 1_555 1_555
C53 C57 1_555 1_555
C56 C73 1_555 1_555
C62 C64 1_555 1_555
C66 C76 1_555 1_555
C66 C77 1_555 1_555
C68 C70 1_555 1_555
O16 Cd10 1_555 1_555
C74 C75 1_555 1_555
C78 C79 1_555 1_555
C78 C80 1_555 1_555
O2 C16 1_555 1_555
O19 C18 1_555 1_555
O6 C7 1_555 1_555
O7 C16 1_555 1_555
O10 C7 1_555 1_555
C4 C18 1_555 1_555
O24 C18 1_555 1_555
C9 C16 1_555 1_555
C19 C9 1_555 1_555
H6 C19 1_555 1_555
C26 C9 1_555 1_555
H10 C26 1_555 1_555
C27 C36 1_555 1_555
C28 C4 1_555 1_555
H11 C28 1_555 1_555
C36 C19 1_555 1_555
H15 C36 1_555 1_555
N3 C27 1_555 1_555
C41 N3 1_555 1_555
C43 H20 1_555 1_555
C45 C4 1_555 1_555
H21 C45 1_555 1_555
C49 C41 1_555 1_555
H24 C49 1_555 1_555
C50 C26 1_555 1_555
H25 C50 1_555 1_555
C55 N3 1_555 1_555
C58 C41 1_555 1_555
H32 C58 1_555 1_555
C61 C28 1_555 1_555
H35 C61 1_555 1_555
Cd6 O2 1_555 1_555
Cd12 O6 1_555 1_555
O10 Cd6 1_555 1_555
O10 Cd12 1_555 1_555
C27 C50 1_555 1_555
C43 C45 1_555 1_555
C43 C55 1_555 1_555
C55 C61 1_555 1_555
O13 C67 1_555 1_555
O14 C67 1_555 1_555
Cd8 O13 1_555 1_555
O14 Cd8 1_555 1_555
O25 C67_2 1_555 1_555
O26 C67_2 1_555 1_555
Cd8 O12_2 1_555 1_555
O1_2 C6_2 1_555 1_555
O9_2 C6_2 1_555 1_555
O12_2 C14_2 1_555 1_555
C6_2 C10_2 1_555 1_555
C10_2 C33_2 1_555 1_555
C13_2 H3_2 1_555 1_555
C14_2 O5_2 1_555 1_555
C17_2 C1_2 1_555 1_555
H5_2 C17_2 1_555 1_555
N2_2 C30_2 1_555 1_555
C30_2 C13_2 1_555 1_555
C31_2 N2_2 1_555 1_555
C33_2 H13_2 1_555 1_555
C34_2 C31_2 1_555 1_555
H14_2 C34_2 1_555 1_555
C35_2 N2_2 1_555 1_555
C37_2 C10_2 1_555 1_555
H16_2 C37_2 1_555 1_555
C39_2 C30_2 1_555 1_555
H17_2 C39_2 1_555 1_555
C51_2 C1_2 1_555 1_555
H26_2 C51_2 1_555 1_555
C59_2 C31_2 1_555 1_555
H33_2 C59_2 1_555 1_555
C62_2 C35_2 1_555 1_555
H36_2 C62_2 1_555 1_555
Cd6_2 O1_2 1_555 1_555
Cd10 O9_2 1_555 1_555
O24_2 Cd8 1_555 1_555
C13_2 C17_2 1_555 1_555
C33_2 C34_2 1_555 1_555
C37_2 C59_2 1_555 1_555
C39_2 C51_2 1_555 1_555
Cd1_2 O3_2 1_555 1_555
Cd3_2 O3_2 1_555 1_555
O3_2 C3_2 1_555 1_555
O8_2 Cd3_2 1_555 1_555
C3_2 O8_2 1_555 1_555
O17_2 Cd1_2 1_555 1_555
O18_2 Cd1_2 1_555 1_555
O20_2 Cd3_2 1_555 1_555
O22_2 Cd3_2 1_555 1_555
O23_2 Cd1_2 1_555 1_555
O27_2 Cd3_2 1_555 1_555
O28_2 Cd3_2 1_555 1_555
Cd3_2 O23_2 1_555 1_555
O2_2 C16_2 1_555 1_555
O19_2 C18_2 1_555 1_555
O6_2 C7_2 1_555 1_555
O7_2 C16_2 1_555 1_555
O10_2 C7_2 1_555 1_555
C4_2 C18_2 1_555 1_555
O24_2 C18_2 1_555 1_555
C5_2 H1_2 1_555 1_555
C7_2 C8_2 1_555 1_555
C8_2 C21_2 1_555 1_555
C9_2 C16_2 1_555 1_555
N1_2 C12_2 1_555 1_555
C11_2 H2_2 1_555 1_555
C12_2 C52_2 1_555 1_555
C15_2 C2_2 1_555 1_555
H4_2 C15_2 1_555 1_555
C19_2 C9_2 1_555 1_555
H6_2 C19_2 1_555 1_555
C20_2 C5_2 1_555 1_555
C21_2 H7_2 1_555 1_555
C22_2 C5_2 1_555 1_555
H8_2 C22_2 1_555 1_555
C23_2 C20_2 1_555 1_555
H9_2 C23_2 1_555 1_555
C24_2 N1_2 1_555 1_555
C25_2 C11_2 1_555 1_555
C26_2 C9_2 1_555 1_555
H10_2 C26_2 1_555 1_555
C27_2 C36_2 1_555 1_555
C28_2 C4_2 1_555 1_555
H11_2 C28_2 1_555 1_555
C29_2 C63_2 1_555 1_555
C32_2 C2_2 1_555 1_555
H12_2 C32_2 1_555 1_555
C36_2 C19_2 1_555 1_555
H15_2 C36_2 1_555 1_555
N3_2 C27_2 1_555 1_555
C38_2 C46_2 1_555 1_555
C40_2 C25_2 1_555 1_555
H18_2 C40_2 1_555 1_555
C41_2 N3_2 1_555 1_555
C42_2 H19_2 1_555 1_555
C43_2 H20_2 1_555 1_555
C44_2 C42_2 1_555 1_555
N4_2 C25_2 1_555 1_555
C45_2 C4_2 1_555 1_555
H21_2 C45_2 1_555 1_555
C46_2 H22_2 1_555 1_555
C47_2 C38_2 1_555 1_555
C49_2 C41_2 1_555 1_555
H24_2 C49_2 1_555 1_555
C50_2 C26_2 1_555 1_555
H25_2 C50_2 1_555 1_555
C52_2 H27_2 1_555 1_555
C53_2 C24_2 1_555 1_555
H28_2 C53_2 1_555 1_555
C54_2 C12_2 1_555 1_555
H29_2 C54_2 1_555 1_555
C55_2 N3_2 1_555 1_555
C56_2 C24_2 1_555 1_555
H30_2 C56_2 1_555 1_555
C57_2 C47_2 1_555 1_555
H31_2 C57_2 1_555 1_555
C58_2 C41_2 1_555 1_555
H32_2 C58_2 1_555 1_555
C60_2 C44_2 1_555 1_555
H34_2 C60_2 1_555 1_555
C61_2 C28_2 1_555 1_555
H35_2 C61_2 1_555 1_555
C63_2 C60_2 1_555 1_555
H37_2 C63_2 1_555 1_555
C64_2 C38_2 1_555 1_555
H38_2 C64_2 1_555 1_555
C65_2 C29_2 1_555 1_555
H39_2 C65_2 1_555 1_555
C66_2 C29_2 1_555 1_555
O15_2 C71_2 1_555 1_555
C68_2 C69_2 1_555 1_555
C69_2 C52_2 1_555 1_555
H40_2 C69_2 1_555 1_555
O16_2 C71_2 1_555 1_555
C70_2 C54_2 1_555 1_555
H41_2 C70_2 1_555 1_555
C71_2 C80_2 1_555 1_555
C72_2 N4_2 1_555 1_555
C73_2 C47_2 1_555 1_555
H42_2 C73_2 1_555 1_555
C74_2 H43_2 1_555 1_555
C75_2 C72_2 1_555 1_555
H44_2 C75_2 1_555 1_555
C76_2 C58_2 1_555 1_555
H45_2 C76_2 1_555 1_555
C77_2 C49_2 1_555 1_555
H46_2 C77_2 1_555 1_555
C78_2 H47_2 1_555 1_555
C79_2 C72_2 1_555 1_555
H48_2 C79_2 1_555 1_555
C80_2 C74_2 1_555 1_555
Cd6_2 O2_2 1_555 1_555
Cd9_2 O2_2 1_555 1_555
Cd12 O15_2 1_555 1_555
Cd10 O6_2 1_555 1_555
O7_2 Cd9_2 1_555 1_555
O10_2 Cd6_2 1_555 1_555
O10_2 Cd10 1_555 1_555
C8_2 C22_2 1_555 1_555
N1_2 C20_2 1_555 1_555
C11_2 C15_2 1_555 1_555
C21_2 C23_2 1_555 1_555
C27_2 C50_2 1_555 1_555
C32_2 C40_2 1_555 1_555
C42_2 C65_2 1_555 1_555
C43_2 C45_2 1_555 1_555
C43_2 C55_2 1_555 1_555
C44_2 N4_2 1_555 1_555
C46_2 C48_2 1_555 1_555
C53_2 C57_2 1_555 1_555
C55_2 C61_2 1_555 1_555
C56_2 C73_2 1_555 1_555
C66_2 C76_2 1_555 1_555
C66_2 C77_2 1_555 1_555
C68_2 C70_2 1_555 1_555
O16_2 Cd12 1_555 1_555
C74_2 C75_2 1_555 1_555
C78_2 C79_2 1_555 1_555
C78_2 C80_2 1_555 1_555
O13_2 C67_3 1_555 1_555
O14_2 C67_3 1_555 1_555
Cd9 O13_2 1_555 1_555
O14_2 Cd9 1_555 1_555
O18_2 C16_3 1_555 1_555
O4 C18_3 1_555 1_555
O20_2 C7_3 1_555 1_555
O21_2 C16_3 1_555 1_555
O23_2 C7_3 1_555 1_555
C4_3 C18_3 1_555 1_555
O11 C18_3 1_555 1_555
C9_3 C16_3 1_555 1_555
C19_3 C9_3 1_555 1_555
H6_3 C19_3 1_555 1_555
C26_3 C9_3 1_555 1_555
H10_3 C26_3 1_555 1_555
C27_3 C36_3 1_555 1_555
C28_3 C4_3 1_555 1_555
H11_3 C28_3 1_555 1_555
C36_3 C19_3 1_555 1_555
H15_3 C36_3 1_555 1_555
N3_3 C27_3 1_555 1_555
C41_3 N3_3 1_555 1_555
C43_3 H20_3 1_555 1_555
C45_3 C4_3 1_555 1_555
H21_3 C45_3 1_555 1_555
C49_3 C41_3 1_555 1_555
H24_3 C49_3 1_555 1_555
C50_3 C26_3 1_555 1_555
H25_3 C50_3 1_555 1_555
C55_3 N3_3 1_555 1_555
C58_3 C41_3 1_555 1_555
H32_3 C58_3 1_555 1_555
C61_3 C28_3 1_555 1_555
H35_3 C61_3 1_555 1_555
Cd6_2 O4 1_555 1_555
Cd9_2 O11 1_555 1_555
C27_3 C50_3 1_555 1_555
C43_3 C45_3 1_555 1_555
C43_3 C55_3 1_555 1_555
C55_3 C61_3 1_555 1_555
Cd6_2 O3_3 1_555 1_555
Cd9_2 O12_3 1_555 1_555
Cd10 O3_3 1_555 1_555
C1_3 C3_3 1_555 1_555
O17_2 C6_3 1_555 1_555
O3_3 C3_3 1_555 1_555
O5_3 Cd6_2 1_555 1_555
C2_3 C14_3 1_555 1_555
O8_3 Cd10 1_555 1_555
O22_2 C6_3 1_555 1_555
C3_3 O8_3 1_555 1_555
O12_3 C14_3 1_555 1_555
C5_3 H1_3 1_555 1_555
C6_3 C10_3 1_555 1_555
C8_3 C21_3 1_555 1_555
N1_3 C12_3 1_555 1_555
C10_3 C33_3 1_555 1_555
C11_3 H2_3 1_555 1_555
C12_3 C52_3 1_555 1_555
C13_3 H3_3 1_555 1_555
C14_3 O5_3 1_555 1_555
C15_3 C2_3 1_555 1_555
H4_3 C15_3 1_555 1_555
C17_3 C1_3 1_555 1_555
H5_3 C17_3 1_555 1_555
C20_3 C5_3 1_555 1_555
C22_3 C5_3 1_555 1_555
H8_3 C22_3 1_555 1_555
C23_3 C20_3 1_555 1_555
H9_3 C23_3 1_555 1_555
C24_3 N1_3 1_555 1_555
C25_3 C11_3 1_555 1_555
C29_3 C63_3 1_555 1_555
N2_3 C30_3 1_555 1_555
C30_3 C13_3 1_555 1_555
C31_3 N2_3 1_555 1_555
C32_3 C2_3 1_555 1_555
H12_3 C32_3 1_555 1_555
C33_3 H13_3 1_555 1_555
C34_3 C31_3 1_555 1_555
H14_3 C34_3 1_555 1_555
C35_3 N2_3 1_555 1_555
C37_3 C10_3 1_555 1_555
H16_3 C37_3 1_555 1_555
C38_3 C46_3 1_555 1_555
C39_3 C30_3 1_555 1_555
H17_3 C39_3 1_555 1_555
C40_3 C25_3 1_555 1_555
H18_3 C40_3 1_555 1_555
C42_3 H19_3 1_555 1_555
C44_3 C42_3 1_555 1_555
N4_3 C25_3 1_555 1_555
C46_3 H22_3 1_555 1_555
C47_3 C38_3 1_555 1_555
C48_3 C35_3 1_555 1_555
H23_3 C48_3 1_555 1_555
C51_3 C1_3 1_555 1_555
H26_3 C51_3 1_555 1_555
C52_3 H27_3 1_555 1_555
C53_3 C24_3 1_555 1_555
H28_3 C53_3 1_555 1_555
C54_3 C12_3 1_555 1_555
H29_3 C54_3 1_555 1_555
C56_3 C24_3 1_555 1_555
H30_3 C56_3 1_555 1_555
C57_3 C47_3 1_555 1_555
H31_3 C57_3 1_555 1_555
C59_3 C31_3 1_555 1_555
H33_3 C59_3 1_555 1_555
C60_3 C44_3 1_555 1_555
H34_3 C60_3 1_555 1_555
C62_3 C35_3 1_555 1_555
H36_3 C62_3 1_555 1_555
C63_3 C60_3 1_555 1_555
H37_3 C63_3 1_555 1_555
C64_3 C38_3 1_555 1_555
H38_3 C64_3 1_555 1_555
C65_3 C29_3 1_555 1_555
H39_3 C65_3 1_555 1_555
C66_3 C29_3 1_555 1_555
O27 C71_3 1_555 1_555
C68_3 C69_3 1_555 1_555
C69_3 C52_3 1_555 1_555
H40_3 C69_3 1_555 1_555
O28 C71_3 1_555 1_555
C70_3 C54_3 1_555 1_555
H41_3 C70_3 1_555 1_555
C71_3 C80_3 1_555 1_555
C72_3 N4_3 1_555 1_555
C73_3 C47_3 1_555 1_555
H42_3 C73_3 1_555 1_555
C74_3 H43_3 1_555 1_555
C75_3 C72_3 1_555 1_555
H44_3 C75_3 1_555 1_555
H45_3 C76_3 1_555 1_555
H46_3 C77_3 1_555 1_555
C78_3 H47_3 1_555 1_555
C79_3 C72_3 1_555 1_555
H48_3 C79_3 1_555 1_555
C80_3 C74_3 1_555 1_555
O25_2 Cd9_2 1_555 1_555
O26_2 Cd9_2 1_555 1_555
C8_3 C22_3 1_555 1_555
N1_3 C20_3 1_555 1_555
C11_3 C15_3 1_555 1_555
C13_3 C17_3 1_555 1_555
C21_3 C23_3 1_555 1_555
C32_3 C40_3 1_555 1_555
C33_3 C34_3 1_555 1_555
C37_3 C59_3 1_555 1_555
C39_3 C51_3 1_555 1_555
C42_3 C65_3 1_555 1_555
C44_3 N4_3 1_555 1_555
C46_3 C48_3 1_555 1_555
C53_3 C57_3 1_555 1_555
C56_3 C73_3 1_555 1_555
C62_3 C64_3 1_555 1_555
C66_3 C76_3 1_555 1_555
C66_3 C77_3 1_555 1_555
C68_3 C70_3 1_555 1_555
C74_3 C75_3 1_555 1_555
C78_3 C79_3 1_555 1_555
C78_3 C80_3 1_555 1_555
O18 C16_4 1_555 1_555
O4_2 C18_4 1_555 1_555
O20 C7_4 1_555 1_555
O21 C16_4 1_555 1_555
O23 C7_4 1_555 1_555
C4_4 C18_4 1_555 1_555
O11_2 C18_4 1_555 1_555
C5_4 H1_4 1_555 1_555
C7_4 C8_4 1_555 1_555
C8_4 C21_4 1_555 1_555
C9_4 C16_4 1_555 1_555
N1_4 C12_4 1_555 1_555
C11_4 H2_4 1_555 1_555
C12_4 C52_4 1_555 1_555
C15_4 C2_4 1_555 1_555
H4_4 C15_4 1_555 1_555
C19_4 C9_4 1_555 1_555
H6_4 C19_4 1_555 1_555
C20_4 C5_4 1_555 1_555
C21_4 H7_4 1_555 1_555
C22_4 C5_4 1_555 1_555
H8_4 C22_4 1_555 1_555
C23_4 C20_4 1_555 1_555
H9_4 C23_4 1_555 1_555
C24_4 N1_4 1_555 1_555
C25_4 C11_4 1_555 1_555
C26_4 C9_4 1_555 1_555
H10_4 C26_4 1_555 1_555
C27_4 C36_4 1_555 1_555
C28_4 C4_4 1_555 1_555
H11_4 C28_4 1_555 1_555
C29_4 C63_4 1_555 1_555
C32_4 C2_4 1_555 1_555
H12_4 C32_4 1_555 1_555
C36_4 C19_4 1_555 1_555
H15_4 C36_4 1_555 1_555
N3_4 C27_4 1_555 1_555
C38_4 C46_4 1_555 1_555
C40_4 C25_4 1_555 1_555
H18_4 C40_4 1_555 1_555
C41_4 N3_4 1_555 1_555
C42_4 H19_4 1_555 1_555
C43_4 H20_4 1_555 1_555
C44_4 C42_4 1_555 1_555
N4_4 C25_4 1_555 1_555
C45_4 C4_4 1_555 1_555
H21_4 C45_4 1_555 1_555
C46_4 H22_4 1_555 1_555
C47_4 C38_4 1_555 1_555
C49_4 C41_4 1_555 1_555
H24_4 C49_4 1_555 1_555
C50_4 C26_4 1_555 1_555
H25_4 C50_4 1_555 1_555
C52_4 H27_4 1_555 1_555
C53_4 C24_4 1_555 1_555
H28_4 C53_4 1_555 1_555
C54_4 C12_4 1_555 1_555
H29_4 C54_4 1_555 1_555
C55_4 N3_4 1_555 1_555
C56_4 C24_4 1_555 1_555
H30_4 C56_4 1_555 1_555
C57_4 C47_4 1_555 1_555
H31_4 C57_4 1_555 1_555
C58_4 C41_4 1_555 1_555
H32_4 C58_4 1_555 1_555
C60_4 C44_4 1_555 1_555
H34_4 C60_4 1_555 1_555
C61_4 C28_4 1_555 1_555
H35_4 C61_4 1_555 1_555
C63_4 C60_4 1_555 1_555
H37_4 C63_4 1_555 1_555
C64_4 C38_4 1_555 1_555
H38_4 C64_4 1_555 1_555
C65_4 C29_4 1_555 1_555
H39_4 C65_4 1_555 1_555
C66_4 C29_4 1_555 1_555
O27_2 C71_4 1_555 1_555
C68_4 C69_4 1_555 1_555
C69_4 C52_4 1_555 1_555
H40_4 C69_4 1_555 1_555
O28_2 C71_4 1_555 1_555
C70_4 C54_4 1_555 1_555
H41_4 C70_4 1_555 1_555
C71_4 C80_4 1_555 1_555
C72_4 N4_4 1_555 1_555
C73_4 C47_4 1_555 1_555
H42_4 C73_4 1_555 1_555
C74_4 H43_4 1_555 1_555
C75_4 C72_4 1_555 1_555
H44_4 C75_4 1_555 1_555
C76_4 C58_4 1_555 1_555
H45_4 C76_4 1_555 1_555
C77_4 C49_4 1_555 1_555
H46_4 C77_4 1_555 1_555
C78_4 H47_4 1_555 1_555
C79_4 C72_4 1_555 1_555
H48_4 C79_4 1_555 1_555
C80_4 C74_4 1_555 1_555
Cd9 O11_2 1_555 1_555
C8_4 C22_4 1_555 1_555
N1_4 C20_4 1_555 1_555
C11_4 C15_4 1_555 1_555
C21_4 C23_4 1_555 1_555
C27_4 C50_4 1_555 1_555
C32_4 C40_4 1_555 1_555
C42_4 C65_4 1_555 1_555
C43_4 C45_4 1_555 1_555
C43_4 C55_4 1_555 1_555
C44_4 N4_4 1_555 1_555
C46_4 C48_4 1_555 1_555
C53_4 C57_4 1_555 1_555
C55_4 C61_4 1_555 1_555
C56_4 C73_4 1_555 1_555
C66_4 C76_4 1_555 1_555
C66_4 C77_4 1_555 1_555
C68_4 C70_4 1_555 1_555
C74_4 C75_4 1_555 1_555
C78_4 C79_4 1_555 1_555
C78_4 C80_4 1_555 1_555
Cd6 O3_4 1_555 1_555
Cd12 O3_4 1_555 1_555
O3_4 C3_4 1_555 1_555
O8_4 Cd12 1_555 1_555
C3_4 O8_4 1_555 1_555
Cd9 O12_4 1_555 1_555
O17 C6_4 1_555 1_555
O22 C6_4 1_555 1_555
O12_4 C14_4 1_555 1_555
C6_4 C10_4 1_555 1_555
C10_4 C33_4 1_555 1_555
C13_4 H3_4 1_555 1_555
C14_4 O5_4 1_555 1_555
C17_4 C1_4 1_555 1_555
H5_4 C17_4 1_555 1_555
N2_4 C30_4 1_555 1_555
C30_4 C13_4 1_555 1_555
C31_4 N2_4 1_555 1_555
C33_4 H13_4 1_555 1_555
C34_4 C31_4 1_555 1_555
H14_4 C34_4 1_555 1_555
C35_4 N2_4 1_555 1_555
C37_4 C10_4 1_555 1_555
H16_4 C37_4 1_555 1_555
C39_4 C30_4 1_555 1_555
H17_4 C39_4 1_555 1_555
C51_4 C1_4 1_555 1_555
H26_4 C51_4 1_555 1_555
C59_4 C31_4 1_555 1_555
H33_4 C59_4 1_555 1_555
C62_4 C35_4 1_555 1_555
H36_4 C62_4 1_555 1_555
C13_4 C17_4 1_555 1_555
C33_4 C34_4 1_555 1_555
C37_4 C59_4 1_555 1_555
C39_4 C51_4 1_555 1_555
O25_2 C67_4 1_555 1_555
O26_2 C67_4 1_555 1_555

#END
