
###############################################################################
#
# This file contains modified crystal structure data generated from the
# MOF subset of the Cambridge Structural Database (CSD) v543 
# hosted by the Cambridge Crystallographic Data Centre (CCDC).
#
# This work is licensed under the Creative Commons
# Attribution-NonCommercial-ShareAlike 4.0 International License.
# To view a copy of this license, visit
# http://creativecommons.org/licenses/by-nc-sa/4.0/
# or send a letter to
# Creative Commons, PO Box 1866, Mountain View, CA 94042, USA.
#
# CIF created using the CSD Python API on 29 September 2022
# The structure has been converted into the P1 space group
# The structure has a 3D framework
# The original CSD entry VADWON is in the monoclinic crystal system
# The framework has been calculated to contain at least 10.0% void space
# The void calculation uses a probe of radius 1.32A, grid spacing 0.4
# The framework is charged, counterions have been retained in the structure
# H atom positions have been added when not included in the experimental data
#
###############################################################################

data_VADWON
_chemical_formula_moiety         '(C168 H184 Co9 N48 O14 4+)n'
_symmetry_cell_setting           triclinic
_symmetry_space_group_name_H-M   'P 1'
_symmetry_Int_Tables_number      1
_space_group_name_Hall           'P 1'
loop_
_symmetry_equiv_pos_site_id
_symmetry_equiv_pos_as_xyz
1 x,y,z
_cell_length_a                   9.334(2)
_cell_length_b                   25.458(5)
_cell_length_c                   19.822(4)
_cell_angle_alpha                90
_cell_angle_beta                 99.86(3)
_cell_angle_gamma                90
_cell_volume                     4640.63
loop_
_atom_site_label
_atom_site_type_symbol
_atom_site_fract_x
_atom_site_fract_y
_atom_site_fract_z
Co1 Co 0.0000 0.0000 0.0000
N1 N 0.1982(3) 0.04897(10) 0.02124(13)
N2 N 0.3497(3) 0.11378(10) 0.05792(14)
C1 C 0.2189(3) 0.09227(12) 0.05918(16)
H1 H 0.1510 0.1060 0.0836
C3 C 0.4177(4) 0.08300(14) 0.01698(19)
H3 H 0.5099 0.0882 0.0063
C4 C 0.3958(4) 0.16544(13) 0.08413(19)
H4 H 0.4998 0.1690 0.0857
H5 H 0.3767 0.1689 0.1305
C5 C 0.3177(4) 0.20901(13) 0.04013(17)
C7 C 0.2752(4) 0.25380(13) 0.07059(18)
H7 H 0.2923 0.2568 0.1181
C26 C 0.1753(3) 0.45673(13) 0.00518(19)
H22 H 0.1565 0.4838 0.0339
C28 C 0.2069(4) 0.29450(14) 0.03059(18)
H27 H 0.1775 0.3243 0.0516
Co2 Co 0.5000 0.5000 0.0000
Co1_2 Co 0.0000 -0.0000 1.0000
C2 C 0.3247(3) 0.04327(13) 0.99482(19)
H2 H 0.3435 0.0162 0.9661
C6 C 0.2931(4) 0.20550(14) 0.96941(18)
H6 H 0.3225 0.1757 0.9484
C22 C 0.2248(4) 0.24620(13) 0.92941(18)
C23 C 0.1823(4) 0.29099(13) 0.95987(17)
C24 C 0.1042(4) 0.33456(13) 0.91587(19)
N7 N 0.1503(3) 0.38622(10) 0.94208(14)
C25 C 0.2811(3) 0.40773(12) 0.94082(16)
N8 N 0.3018(3) 0.45103(10) 0.97876(13)
C27 C 0.0823(4) 0.41700(14) 0.98302(19)
H24 H 0.3490 0.3940 0.9164
H25 H 0.0002 0.3310 0.9143
H26 H 0.1233 0.3311 0.8695
H28 H 0.2077 0.2432 0.8819
Co2_2 Co 0.5000 0.5000 1.0000
Co1_3 Co 0.0000 1.0000 0.0000
N5 N 0.1070(3) 0.94067(10) 0.07009(13)
N6 N 0.1706(3) 0.86080(10) 0.10740(13)
C15 C 0.0617(4) 0.89262(12) 0.07907(16)
C16 C 0.2538(4) 0.93919(14) 0.09448(18)
H16 H 0.3162 0.9677 0.0953
C17 C 0.2949(4) 0.89038(14) 0.11721(19)
H17 H 0.3883 0.8793 0.1357
C18 C 0.1639(4) 0.80364(12) 0.11692(17)
H18 H 0.0659 0.7936 0.1217
H19 H 0.2289 0.7937 0.1585
C19 C 0.2076(4) 0.77481(12) 0.05586(16)
C21 C 0.3398(4) 0.74943(14) 0.06271(18)
H21 H 0.4008 0.7487 0.1050
C42 C 0.3825(4) 0.72478(13) 0.00655(17)
H41 H 0.4722 0.7080 0.0114
Co1_4 Co 0.0000 1.0000 1.0000
C20 C 0.1175(4) 0.77522(13) 0.99345(17)
H20 H 0.0278 0.7920 0.9886
C36 C 0.1602(4) 0.75057(14) 0.93729(18)
C37 C 0.2924(4) 0.72519(12) 0.94414(16)
C38 C 0.3361(4) 0.69636(12) 0.88308(17)
N11 N 0.3294(3) 0.63920(10) 0.89260(13)
C39 C 0.4383(4) 0.60738(12) 0.92093(16)
N12 N 0.3930(3) 0.55933(10) 0.92991(13)
C40 C 0.2462(4) 0.56081(14) 0.90552(18)
H36 H 0.1838 0.5323 0.9047
C41 C 0.2051(4) 0.60962(14) 0.88279(19)
H37 H 0.1117 0.6207 0.8643
H38 H 0.5345 0.6181 0.9328
H39 H 0.4341 0.7064 0.8783
H40 H 0.2711 0.7063 0.8415
H42 H 0.0992 0.7513 0.8950
N14 N 0.0910(3) 0.96187(10) 0.92119(13)
Co1_5 Co 1.0000 0.0000 0.0000
N3 N 0.9090(3) 0.03813(10) 0.07881(13)
N4 N 0.8390(3) 0.05066(13) 0.17780(14)
C8 C 0.8931(3) 0.01634(14) 0.13711(16)
C9 C 0.8614(4) 0.08899(14) 0.0827(2)
H9 H 0.8582 0.1141 0.0485
C10 C 0.8204(4) 0.09681(17) 0.1433(2)
H10 H 0.7856 0.1280 0.1588
C11 C 0.8094(4) 0.0390(2) 0.24654(18)
H11 H 0.8564 0.0652 0.2784
H12 H 0.8504 0.0051 0.2611
C12 C 0.6475(4) 0.03861(17) 0.24846(16)
C13 C 0.5734(4) 0.08576(16) 0.2499(2)
H13 H 0.6235 0.1174 0.2508
C29 C 0.4266(4) 0.08576(16) 0.2501(2)
C30 C 0.3525(4) 0.03861(17) 0.25154(16)
C31 C 0.1906(4) 0.0390(2) 0.25346(18)
N9 N 0.1610(3) 0.05066(13) 0.32220(14)
C32 C 0.1069(3) 0.01634(14) 0.36289(16)
N10 N 0.0910(3) 0.03813(10) 0.42119(13)
C33 C 0.1386(4) 0.08899(14) 0.4173(2)
H29 H 0.1418 0.1141 0.4515
C34 C 0.1796(4) 0.09681(17) 0.3567(2)
H30 H 0.2144 0.1280 0.3412
H32 H 0.1436 0.0652 0.2216
H33 H 0.1496 0.0051 0.2389
H35 H 0.3765 0.1174 0.2492
Co3 Co 0.0000 -0.0000 0.5000
Co1_6 Co 1.0000 -0.0000 1.0000
H23 H 0.9901 0.4118 0.9937
N15 N 0.8930(3) 0.05933(10) 0.92991(13)
Co1_7 Co 1.0000 1.0000 0.0000
H8 H 0.9163 0.9816 0.1488
C14 C 0.5730(5) 0.99161(16) 0.2487(2)
H14 H 0.6220 0.9600 0.2470
H15 H 0.9655 0.8819 0.0672
H31 H 0.0837 0.9816 0.3512
C35 C 0.4270(5) 0.99161(16) 0.2513(2)
H34 H 0.3780 0.9600 0.2530
Co3_2 Co 0.0000 1.0000 0.5000
Co1_8 Co 1.0000 1.0000 1.0000
N13 N 0.8018(3) 0.95103(10) 0.97876(13)
Co3_3 Co 1.0000 -0.0000 0.5000
Co3_4 Co 1.0000 1.0000 0.5000
H3_2 H 0.0099 0.5882 0.0063
H38_2 H 0.0345 0.1181 0.9328
N1_2 N 0.6982(3) 0.54897(10) 0.02124(13)
N2_2 N 0.8497(3) 0.61378(10) 0.05792(14)
N3_2 N 0.4090(3) 0.53813(10) 0.07881(13)
N4_2 N 0.3390(3) 0.55066(13) 0.17780(14)
N5_2 N 0.6070(3) 0.44067(10) 0.07009(13)
N6_2 N 0.6706(3) 0.36080(10) 0.10740(13)
C1_2 C 0.7189(3) 0.59227(12) 0.05918(16)
H1_2 H 0.6510 0.6060 0.0836
C3_2 C 0.9177(4) 0.58300(14) 0.01698(19)
C4_2 C 0.8958(4) 0.66544(13) 0.08413(19)
H4_2 H 0.9998 0.6690 0.0857
H5_2 H 0.8767 0.6689 0.1305
C5_2 C 0.8177(4) 0.70901(13) 0.04013(17)
C7_2 C 0.7752(4) 0.75380(13) 0.07059(18)
H7_2 H 0.7923 0.7568 0.1181
C8_2 C 0.3931(3) 0.51634(14) 0.13711(16)
H8_2 H 0.4163 0.4816 0.1488
C9_2 C 0.3614(4) 0.58899(14) 0.0827(2)
H9_2 H 0.3582 0.6141 0.0485
C10_2 C 0.3204(4) 0.59681(17) 0.1433(2)
H10_2 H 0.2856 0.6280 0.1588
C11_2 C 0.3094(4) 0.5390(2) 0.24654(18)
H11_2 H 0.3564 0.5652 0.2784
H12_2 H 0.3504 0.5051 0.2611
C12_2 C 0.1475(4) 0.53861(17) 0.24846(16)
C13_2 C 0.0734(4) 0.58576(16) 0.2499(2)
H13_2 H 0.1235 0.6174 0.2508
C14_2 C 0.0730(5) 0.49161(16) 0.2487(2)
H14_2 H 0.1220 0.4600 0.2470
C15_2 C 0.5617(4) 0.39262(12) 0.07907(16)
H15_2 H 0.4655 0.3819 0.0672
C16_2 C 0.7538(4) 0.43919(14) 0.09448(18)
H16_2 H 0.8162 0.4677 0.0953
C17_2 C 0.7949(4) 0.39038(14) 0.11721(19)
H17_2 H 0.8883 0.3793 0.1357
C18_2 C 0.6639(4) 0.30364(12) 0.11692(17)
H18_2 H 0.5659 0.2936 0.1217
H19_2 H 0.7289 0.2937 0.1585
C19_2 C 0.7076(4) 0.27481(12) 0.05586(16)
C21_2 C 0.8398(4) 0.24943(14) 0.06271(18)
H21_2 H 0.9008 0.2487 0.1050
C26_2 C 0.6753(3) 0.95673(13) 0.00518(19)
H22_2 H 0.6565 0.9838 0.0339
C28_2 C 0.7069(4) 0.79450(14) 0.03059(18)
H27_2 H 0.6775 0.8243 0.0516
C42_2 C 0.8825(4) 0.22478(13) 0.00655(17)
H41_2 H 0.9722 0.2080 0.0114
C2_2 C 0.8247(3) 0.54327(13) 0.99482(19)
H2_2 H 0.8435 0.5162 0.9661
C6_2 C 0.7931(4) 0.70550(14) 0.96941(18)
H6_2 H 0.8225 0.6757 0.9484
C20_2 C 0.6175(4) 0.27522(13) 0.99345(17)
H20_2 H 0.5278 0.2920 0.9886
C22_2 C 0.7248(4) 0.74620(13) 0.92941(18)
C23_2 C 0.6823(4) 0.79099(13) 0.95987(17)
C24_2 C 0.6042(4) 0.83456(13) 0.91587(19)
N7_2 N 0.6503(3) 0.88622(10) 0.94208(14)
C25_2 C 0.7811(3) 0.90773(12) 0.94082(16)
C27_2 C 0.5823(4) 0.91700(14) 0.98302(19)
H23_2 H 0.4901 0.9118 0.9937
H24_2 H 0.8490 0.8940 0.9164
H25_2 H 0.5002 0.8310 0.9143
H26_2 H 0.6233 0.8311 0.8695
H28_2 H 0.7077 0.7432 0.8819
C36_2 C 0.6602(4) 0.25057(14) 0.93729(18)
C37_2 C 0.7924(4) 0.22519(12) 0.94414(16)
C38_2 C 0.8361(4) 0.19636(12) 0.88308(17)
N11_2 N 0.8294(3) 0.13920(10) 0.89260(13)
C39_2 C 0.9383(4) 0.10738(12) 0.92093(16)
C40_2 C 0.7462(4) 0.06081(14) 0.90552(18)
H36_2 H 0.6838 0.0323 0.9047
C41_2 C 0.7051(4) 0.10962(14) 0.88279(19)
H37_2 H 0.6117 0.1207 0.8643
H39_2 H 0.9341 0.2064 0.8783
H40_2 H 0.7711 0.2063 0.8415
H42_2 H 0.5992 0.2513 0.8950
N14_2 N 0.5910(3) 0.46187(10) 0.92119(13)
C29_2 C 0.9266(4) 0.58576(16) 0.2501(2)
C30_2 C 0.8525(4) 0.53861(17) 0.25154(16)
C31_2 C 0.6906(4) 0.5390(2) 0.25346(18)
N9_2 N 0.6610(3) 0.55066(13) 0.32220(14)
C32_2 C 0.6069(3) 0.51634(14) 0.36289(16)
N10_2 N 0.5910(3) 0.53813(10) 0.42119(13)
C33_2 C 0.6386(4) 0.58899(14) 0.4173(2)
H29_2 H 0.6418 0.6141 0.4515
C34_2 C 0.6796(4) 0.59681(17) 0.3567(2)
H30_2 H 0.7144 0.6280 0.3412
H31_2 H 0.5837 0.4816 0.3512
H32_2 H 0.6436 0.5652 0.2216
H33_2 H 0.6496 0.5051 0.2389
C35_2 C 0.9270(5) 0.49161(16) 0.2513(2)
H34_2 H 0.8780 0.4600 0.2530
H35_2 H 0.8765 0.6174 0.2492
Co3_5 Co 0.5000 0.5000 0.5000
H23_3 H 0.0099 0.4118 0.5063
N15_2 N 0.1070(3) 0.05933(10) 0.57009(13)
H15_3 H 0.0345 0.8819 0.4328
N13_2 N 0.1982(3) 0.95103(10) 0.52124(13)
N1_3 N 0.8018(3) 0.04897(10) 0.47876(13)
N2_3 N 0.6503(3) 0.11378(10) 0.44208(14)
C1_3 C 0.7811(3) 0.09227(12) 0.44082(16)
H1_3 H 0.8490 0.1060 0.4164
C2_3 C 0.6753(3) 0.04327(13) 0.50518(19)
H2_3 H 0.6565 0.0162 0.5339
C3_3 C 0.5823(4) 0.08300(14) 0.48302(19)
H3_3 H 0.4901 0.0882 0.4937
C4_3 C 0.6042(4) 0.16544(13) 0.41587(19)
H4_3 H 0.5002 0.1690 0.4143
H5_3 H 0.6233 0.1689 0.3695
C5_3 C 0.6823(4) 0.20901(13) 0.45987(17)
C6_3 C 0.7069(4) 0.20550(14) 0.53059(18)
H6_3 H 0.6775 0.1757 0.5516
C7_3 C 0.7248(4) 0.25380(13) 0.42941(18)
H7_3 H 0.7077 0.2568 0.3819
C22_3 C 0.7752(4) 0.24620(13) 0.57059(18)
C23_3 C 0.8177(4) 0.29099(13) 0.54013(17)
C24_3 C 0.8958(4) 0.33456(13) 0.58413(19)
N7_3 N 0.8497(3) 0.38622(10) 0.55792(14)
C25_3 C 0.7189(3) 0.40773(12) 0.55918(16)
N8_2 N 0.6982(3) 0.45103(10) 0.52124(13)
C26_3 C 0.8247(3) 0.45673(13) 0.49482(19)
H22_3 H 0.8435 0.4838 0.4661
C27_3 C 0.9177(4) 0.41700(14) 0.51698(19)
H24_3 H 0.6510 0.3940 0.5836
H25_3 H 0.9998 0.3310 0.5857
H26_3 H 0.8767 0.3311 0.6305
C28_3 C 0.7931(4) 0.29450(14) 0.46941(18)
H27_3 H 0.8225 0.3243 0.4484
H28_3 H 0.7923 0.2432 0.6181
N5_3 N 0.8930(3) 0.94067(10) 0.42991(13)
N6_3 N 0.8294(3) 0.86080(10) 0.39260(13)
C15_3 C 0.9383(4) 0.89262(12) 0.42093(16)
C16_3 C 0.7462(4) 0.93919(14) 0.40552(18)
H16_3 H 0.6838 0.9677 0.4047
C17_3 C 0.7051(4) 0.89038(14) 0.38279(19)
H17_3 H 0.6117 0.8793 0.3643
C18_3 C 0.8361(4) 0.80364(12) 0.38308(17)
H18_3 H 0.9341 0.7936 0.3783
H19_3 H 0.7711 0.7937 0.3415
C19_3 C 0.7924(4) 0.77481(12) 0.44414(16)
C20_3 C 0.8825(4) 0.77522(13) 0.50655(17)
H20_3 H 0.9722 0.7920 0.5114
C21_3 C 0.6602(4) 0.74943(14) 0.43729(18)
H21_3 H 0.5992 0.7487 0.3950
C36_3 C 0.8398(4) 0.75057(14) 0.56271(18)
C37_3 C 0.7076(4) 0.72519(12) 0.55586(16)
C38_3 C 0.6639(4) 0.69636(12) 0.61692(17)
N11_3 N 0.6706(3) 0.63920(10) 0.60740(13)
C39_3 C 0.5617(4) 0.60738(12) 0.57907(16)
N12_2 N 0.6070(3) 0.55933(10) 0.57009(13)
C40_3 C 0.7538(4) 0.56081(14) 0.59448(18)
H36_3 H 0.8162 0.5323 0.5953
C41_3 C 0.7949(4) 0.60962(14) 0.61721(19)
H37_3 H 0.8883 0.6207 0.6357
H38_3 H 0.4655 0.6181 0.5672
H39_3 H 0.5659 0.7064 0.6217
H40_3 H 0.7289 0.7063 0.6585
C42_3 C 0.6175(4) 0.72478(13) 0.49345(17)
H41_3 H 0.5278 0.7080 0.4886
H42_3 H 0.9008 0.7513 0.6050
N14_3 N 0.9090(3) 0.96187(10) 0.57881(13)
N1_4 N 0.3018(3) 0.54897(10) 0.47876(13)
N2_4 N 0.1503(3) 0.61378(10) 0.44208(14)
N5_4 N 0.3930(3) 0.44067(10) 0.42991(13)
N6_4 N 0.3294(3) 0.36080(10) 0.39260(13)
C1_4 C 0.2811(3) 0.59227(12) 0.44082(16)
H1_4 H 0.3490 0.6060 0.4164
C2_4 C 0.1753(3) 0.54327(13) 0.50518(19)
H2_4 H 0.1565 0.5162 0.5339
C3_4 C 0.0823(4) 0.58300(14) 0.48302(19)
C4_4 C 0.1042(4) 0.66544(13) 0.41587(19)
H4_4 H 0.0002 0.6690 0.4143
H5_4 H 0.1233 0.6689 0.3695
C5_4 C 0.1823(4) 0.70901(13) 0.45987(17)
C6_4 C 0.2069(4) 0.70550(14) 0.53059(18)
H6_4 H 0.1775 0.6757 0.5516
C7_4 C 0.2248(4) 0.75380(13) 0.42941(18)
H7_4 H 0.2077 0.7568 0.3819
C15_4 C 0.4383(4) 0.39262(12) 0.42093(16)
H15_4 H 0.5345 0.3819 0.4328
C16_4 C 0.2462(4) 0.43919(14) 0.40552(18)
H16_4 H 0.1838 0.4677 0.4047
C17_4 C 0.2051(4) 0.39038(14) 0.38279(19)
H17_4 H 0.1117 0.3793 0.3643
C18_4 C 0.3361(4) 0.30364(12) 0.38308(17)
H18_4 H 0.4341 0.2936 0.3783
H19_4 H 0.2711 0.2937 0.3415
C19_4 C 0.2924(4) 0.27481(12) 0.44414(16)
C20_4 C 0.3825(4) 0.27522(13) 0.50655(17)
H20_4 H 0.4722 0.2920 0.5114
C21_4 C 0.1602(4) 0.24943(14) 0.43729(18)
H21_4 H 0.0992 0.2487 0.3950
C22_4 C 0.2752(4) 0.74620(13) 0.57059(18)
C23_4 C 0.3177(4) 0.79099(13) 0.54013(17)
C24_4 C 0.3958(4) 0.83456(13) 0.58413(19)
N7_4 N 0.3497(3) 0.88622(10) 0.55792(14)
C25_4 C 0.2189(3) 0.90773(12) 0.55918(16)
C26_4 C 0.3247(3) 0.95673(13) 0.49482(19)
H22_4 H 0.3435 0.9838 0.4661
C27_4 C 0.4177(4) 0.91700(14) 0.51698(19)
H23_4 H 0.5099 0.9118 0.5063
H24_4 H 0.1510 0.8940 0.5836
H25_4 H 0.4998 0.8310 0.5857
H26_4 H 0.3767 0.8311 0.6305
C28_4 C 0.2931(4) 0.79450(14) 0.46941(18)
H27_4 H 0.3225 0.8243 0.4484
H28_4 H 0.2923 0.7432 0.6181
C36_4 C 0.3398(4) 0.25057(14) 0.56271(18)
C37_4 C 0.2076(4) 0.22519(12) 0.55586(16)
C38_4 C 0.1639(4) 0.19636(12) 0.61692(17)
N11_4 N 0.1706(3) 0.13920(10) 0.60740(13)
C39_4 C 0.0617(4) 0.10738(12) 0.57907(16)
C40_4 C 0.2538(4) 0.06081(14) 0.59448(18)
H36_4 H 0.3162 0.0323 0.5953
C41_4 C 0.2949(4) 0.10962(14) 0.61721(19)
H37_4 H 0.3883 0.1207 0.6357
H39_4 H 0.0659 0.2064 0.6217
H40_4 H 0.2289 0.2063 0.6585
C42_4 C 0.1175(4) 0.22478(13) 0.49345(17)
H41_4 H 0.0278 0.2080 0.4886
H42_4 H 0.4008 0.2513 0.6050
N14_4 N 0.4090(3) 0.46187(10) 0.57881(13)
H3_4 H 0.9901 0.5882 0.4937
H38_4 H 0.9655 0.1181 0.5672
H8_3 H 0.0837 0.0184 0.8512
C14_3 C 0.4270(5) 0.00839(16) 0.7513(2)
H14_3 H 0.3780 0.0400 0.7530
H31_3 H 0.9163 0.0184 0.6488
C35_3 C 0.5730(5) 0.00839(16) 0.7487(2)
H34_3 H 0.6220 0.0400 0.7470
N4_3 N 0.1610(3) 0.94934(13) 0.82220(14)
C8_3 C 0.1069(3) 0.98366(14) 0.86289(16)
C9_3 C 0.1386(4) 0.91101(14) 0.9173(2)
H9_3 H 0.1418 0.8859 0.9515
C10_3 C 0.1796(4) 0.90319(17) 0.8567(2)
H10_3 H 0.2144 0.8720 0.8412
C11_3 C 0.1906(4) 0.9610(2) 0.75346(18)
H11_3 H 0.1436 0.9348 0.7216
H12_3 H 0.1496 0.9949 0.7389
C12_3 C 0.3525(4) 0.96139(17) 0.75154(16)
C13_3 C 0.4266(4) 0.91424(16) 0.7501(2)
H13_3 H 0.3765 0.8826 0.7492
C29_3 C 0.5734(4) 0.91424(16) 0.7499(2)
C30_3 C 0.6475(4) 0.96139(17) 0.74846(16)
C31_3 C 0.8094(4) 0.9610(2) 0.74654(18)
N9_3 N 0.8390(3) 0.94934(13) 0.67780(14)
C32_3 C 0.8931(3) 0.98366(14) 0.63711(16)
C33_3 C 0.8614(4) 0.91101(14) 0.5827(2)
H29_3 H 0.8582 0.8859 0.5485
C34_3 C 0.8204(4) 0.90319(17) 0.6433(2)
H30_3 H 0.7856 0.8720 0.6588
H32_3 H 0.8564 0.9348 0.7784
H33_3 H 0.8504 0.9949 0.7611
H35_3 H 0.6235 0.8826 0.7508
C29_4 C 0.0734(4) 0.41424(16) 0.7499(2)
C30_4 C 0.1475(4) 0.46139(17) 0.74846(16)
C31_4 C 0.3094(4) 0.4610(2) 0.74654(18)
N9_4 N 0.3390(3) 0.44934(13) 0.67780(14)
C32_4 C 0.3931(3) 0.48366(14) 0.63711(16)
C33_4 C 0.3614(4) 0.41101(14) 0.5827(2)
H29_4 H 0.3582 0.3859 0.5485
C34_4 C 0.3204(4) 0.40319(17) 0.6433(2)
H30_4 H 0.2856 0.3720 0.6588
H31_4 H 0.4163 0.5184 0.6488
H32_4 H 0.3564 0.4348 0.7784
H33_4 H 0.3504 0.4949 0.7611
C35_4 C 0.0730(5) 0.50839(16) 0.7487(2)
H34_4 H 0.1220 0.5400 0.7470
H35_4 H 0.1235 0.3826 0.7508
N4_4 N 0.6610(3) 0.44934(13) 0.82220(14)
C8_4 C 0.6069(3) 0.48366(14) 0.86289(16)
H8_4 H 0.5837 0.5184 0.8512
C9_4 C 0.6386(4) 0.41101(14) 0.9173(2)
H9_4 H 0.6418 0.3859 0.9515
C10_4 C 0.6796(4) 0.40319(17) 0.8567(2)
H10_4 H 0.7144 0.3720 0.8412
C11_4 C 0.6906(4) 0.4610(2) 0.75346(18)
H11_4 H 0.6436 0.4348 0.7216
H12_4 H 0.6496 0.4949 0.7389
C12_4 C 0.8525(4) 0.46139(17) 0.75154(16)
C13_4 C 0.9266(4) 0.41424(16) 0.7501(2)
H13_4 H 0.8765 0.3826 0.7492
C14_4 C 0.9270(5) 0.50839(16) 0.7513(2)
H14_4 H 0.8780 0.5400 0.7530
O1 O -0.0000 0.7438(3) 0.2500
H43 H 0.106385 0.7438 0.25
O1_2 O 1.0000 0.7438(3) 0.2500
H43_2 H 0.893615 0.7438 0.25
O1_3 O 0.5000 0.2438(3) 0.2500
H43_3 H 0.606385 0.2438 0.25
H43_4 H 0.393615 0.2438 0.25
O1_4 O 0.0000 0.2562(3) 0.7500
H43_5 H 0.106385 0.2562 0.75
O1_5 O 1.0000 0.2562(3) 0.7500
H43_6 H 0.893615 0.2562 0.75
O1_6 O 0.5000 0.7562(3) 0.7500
H43_7 H 0.393615 0.7562 0.75
H43_8 H 0.606385 0.7562 0.75
O2 O 0.5984(10) 0.8290(4) 0.2077(4)
H44 H 0.704785 0.829 0.2077
O2_2 O 0.0984(10) 0.3290(4) 0.2077(4)
H44_2 H 0.204785 0.329 0.2077
O2_3 O 0.4016(10) 0.8290(4) 0.2923(4)
H44_3 H 0.295215 0.829 0.2923
O2_4 O 0.9016(10) 0.3290(4) 0.2923(4)
H44_4 H 0.795215 0.329 0.2923
O2_5 O 0.4016(10) 0.1710(4) 0.7923(4)
H44_5 H 0.295215 0.171 0.7923
O2_6 O 0.9016(10) 0.6710(4) 0.7923(4)
H44_6 H 0.795215 0.671 0.7923
O2_7 O 0.5984(10) 0.1710(4) 0.7077(4)
H44_7 H 0.704785 0.171 0.7077
O2_8 O 0.0984(10) 0.6710(4) 0.7077(4)
H44_8 H 0.204785 0.671 0.7077
loop_
_geom_bond_atom_site_label_1
_geom_bond_atom_site_label_2
_geom_bond_site_symmetry_1
_geom_bond_site_symmetry_2
Co1 N1 1_555 1_555
N1 C1 1_555 1_555
N2 C1 1_555 1_555
C1 H1 1_555 1_555
C3 N2 1_555 1_555
H3 C3 1_555 1_555
C4 N2 1_555 1_555
H4 C4 1_555 1_555
H5 C4 1_555 1_555
C5 C4 1_555 1_555
C7 C5 1_555 1_555
H7 C7 1_555 1_555
H22 C26 1_555 1_555
C28 C7 1_555 1_555
H27 C28 1_555 1_555
H2 C2 1_555 1_555
H6 C6 1_555 1_555
C22 C6 1_555 1_555
C23 C22 1_555 1_555
C24 C23 1_555 1_555
N7 C24 1_555 1_555
C25 N7 1_555 1_555
N8 C25 1_555 1_555
C27 N7 1_555 1_555
H24 C25 1_555 1_555
H25 C24 1_555 1_555
H26 C24 1_555 1_555
H28 C22 1_555 1_555
Co2_2 N8 1_555 1_555
N5 Co1_3 1_555 1_555
N6 C15 1_555 1_555
C15 N5 1_555 1_555
C16 N5 1_555 1_555
H16 C16 1_555 1_555
C17 N6 1_555 1_555
H17 C17 1_555 1_555
C18 N6 1_555 1_555
H18 C18 1_555 1_555
H19 C18 1_555 1_555
C19 C18 1_555 1_555
C21 C19 1_555 1_555
H21 C21 1_555 1_555
C42 C21 1_555 1_555
H41 C42 1_555 1_555
C16 C17 1_555 1_555
H20 C20 1_555 1_555
C36 C20 1_555 1_555
C37 C36 1_555 1_555
C38 C37 1_555 1_555
N11 C38 1_555 1_555
C39 N11 1_555 1_555
N12 C39 1_555 1_555
C40 N12 1_555 1_555
H36 C40 1_555 1_555
C41 N11 1_555 1_555
H37 C41 1_555 1_555
H38 C39 1_555 1_555
H39 C38 1_555 1_555
H40 C38 1_555 1_555
H42 C36 1_555 1_555
N14 Co1_4 1_555 1_555
Co2_2 N12 1_555 1_555
C40 C41 1_555 1_555
N3 Co1_5 1_555 1_555
N4 C8 1_555 1_555
C8 N3 1_555 1_555
C9 N3 1_555 1_555
H9 C9 1_555 1_555
C10 N4 1_555 1_555
H10 C10 1_555 1_555
C11 N4 1_555 1_555
H11 C11 1_555 1_555
H12 C11 1_555 1_555
C12 C11 1_555 1_555
C13 C12 1_555 1_555
H13 C13 1_555 1_555
C29 C13 1_555 1_555
C30 C29 1_555 1_555
C31 C30 1_555 1_555
N9 C31 1_555 1_555
C32 N9 1_555 1_555
N10 C32 1_555 1_555
C33 N10 1_555 1_555
H29 C33 1_555 1_555
C34 N9 1_555 1_555
H30 C34 1_555 1_555
H32 C31 1_555 1_555
H33 C31 1_555 1_555
H35 C29 1_555 1_555
Co3 N10 1_555 1_555
C9 C10 1_555 1_555
C33 C34 1_555 1_555
N15 Co1_6 1_555 1_555
H14 C14 1_555 1_555
C35 C14 1_555 1_555
H34 C35 1_555 1_555
N13 Co1_8 1_555 1_555
Co2 N1_2 1_555 1_555
N1_2 C1_2 1_555 1_555
N2_2 C1_2 1_555 1_555
N3_2 Co2 1_555 1_555
N4_2 C8_2 1_555 1_555
N5_2 Co2 1_555 1_555
N6_2 C15_2 1_555 1_555
C1_2 H1_2 1_555 1_555
C3_2 N2_2 1_555 1_555
C4_2 N2_2 1_555 1_555
H4_2 C4_2 1_555 1_555
H5_2 C4_2 1_555 1_555
C5_2 C4_2 1_555 1_555
C7_2 C5_2 1_555 1_555
H7_2 C7_2 1_555 1_555
C8_2 N3_2 1_555 1_555
H8_2 C8_2 1_555 1_555
C9_2 N3_2 1_555 1_555
H9_2 C9_2 1_555 1_555
C10_2 N4_2 1_555 1_555
H10_2 C10_2 1_555 1_555
C11_2 N4_2 1_555 1_555
H11_2 C11_2 1_555 1_555
H12_2 C11_2 1_555 1_555
C12_2 C11_2 1_555 1_555
C13_2 C12_2 1_555 1_555
H13_2 C13_2 1_555 1_555
C14_2 C12_2 1_555 1_555
H14_2 C14_2 1_555 1_555
C15_2 N5_2 1_555 1_555
H15_2 C15_2 1_555 1_555
C16_2 N5_2 1_555 1_555
H16_2 C16_2 1_555 1_555
C17_2 N6_2 1_555 1_555
H17_2 C17_2 1_555 1_555
C18_2 N6_2 1_555 1_555
H18_2 C18_2 1_555 1_555
H19_2 C18_2 1_555 1_555
C19_2 C18_2 1_555 1_555
C21_2 C19_2 1_555 1_555
H21_2 C21_2 1_555 1_555
H22_2 C26_2 1_555 1_555
C28_2 C7_2 1_555 1_555
H27_2 C28_2 1_555 1_555
C42_2 C21_2 1_555 1_555
H41_2 C42_2 1_555 1_555
C9_2 C10_2 1_555 1_555
C16_2 C17_2 1_555 1_555
H2_2 C2_2 1_555 1_555
H6_2 C6_2 1_555 1_555
H20_2 C20_2 1_555 1_555
C22_2 C6_2 1_555 1_555
C23_2 C22_2 1_555 1_555
C24_2 C23_2 1_555 1_555
N7_2 C24_2 1_555 1_555
C25_2 N7_2 1_555 1_555
N13 C25_2 1_555 1_555
C27_2 N7_2 1_555 1_555
H23_2 C27_2 1_555 1_555
H24_2 C25_2 1_555 1_555
H25_2 C24_2 1_555 1_555
H26_2 C24_2 1_555 1_555
H28_2 C22_2 1_555 1_555
C36_2 C20_2 1_555 1_555
C37_2 C36_2 1_555 1_555
C38_2 C37_2 1_555 1_555
N11_2 C38_2 1_555 1_555
C39_2 N11_2 1_555 1_555
N15 C39_2 1_555 1_555
C40_2 N15 1_555 1_555
H36_2 C40_2 1_555 1_555
C41_2 N11_2 1_555 1_555
H37_2 C41_2 1_555 1_555
H39_2 C38_2 1_555 1_555
H40_2 C38_2 1_555 1_555
H42_2 C36_2 1_555 1_555
N14_2 Co2_2 1_555 1_555
C40_2 C41_2 1_555 1_555
C30_2 C29_2 1_555 1_555
C31_2 C30_2 1_555 1_555
N9_2 C31_2 1_555 1_555
C32_2 N9_2 1_555 1_555
N10_2 C32_2 1_555 1_555
C33_2 N10_2 1_555 1_555
H29_2 C33_2 1_555 1_555
C34_2 N9_2 1_555 1_555
H30_2 C34_2 1_555 1_555
H31_2 C32_2 1_555 1_555
H32_2 C31_2 1_555 1_555
H33_2 C31_2 1_555 1_555
H34_2 C35_2 1_555 1_555
H35_2 C29_2 1_555 1_555
Co3_5 N10_2 1_555 1_555
C30_2 C35_2 1_555 1_555
C33_2 C34_2 1_555 1_555
N15_2 Co3 1_555 1_555
N13_2 Co3_2 1_555 1_555
Co3_3 N1_3 1_555 1_555
N1_3 C1_3 1_555 1_555
N2_3 C1_3 1_555 1_555
C1_3 H1_3 1_555 1_555
C2_3 N1_3 1_555 1_555
H2_3 C2_3 1_555 1_555
C3_3 N2_3 1_555 1_555
H3_3 C3_3 1_555 1_555
C4_3 N2_3 1_555 1_555
H4_3 C4_3 1_555 1_555
H5_3 C4_3 1_555 1_555
C5_3 C4_3 1_555 1_555
C6_3 C5_3 1_555 1_555
H6_3 C6_3 1_555 1_555
C7_3 C5_3 1_555 1_555
H7_3 C7_3 1_555 1_555
C22_3 C6_3 1_555 1_555
C23_3 C22_3 1_555 1_555
C24_3 C23_3 1_555 1_555
N7_3 C24_3 1_555 1_555
C25_3 N7_3 1_555 1_555
N8_2 C25_3 1_555 1_555
C26_3 N8_2 1_555 1_555
H22_3 C26_3 1_555 1_555
C27_3 N7_3 1_555 1_555
H24_3 C25_3 1_555 1_555
H25_3 C24_3 1_555 1_555
H26_3 C24_3 1_555 1_555
C28_3 C7_3 1_555 1_555
H27_3 C28_3 1_555 1_555
H28_3 C22_3 1_555 1_555
Co3_5 N8_2 1_555 1_555
C2_3 C3_3 1_555 1_555
C23_3 C28_3 1_555 1_555
C26_3 C27_3 1_555 1_555
N5_3 Co3_4 1_555 1_555
N6_3 C15_3 1_555 1_555
C15_3 N5_3 1_555 1_555
C16_3 N5_3 1_555 1_555
H16_3 C16_3 1_555 1_555
C17_3 N6_3 1_555 1_555
H17_3 C17_3 1_555 1_555
C18_3 N6_3 1_555 1_555
H18_3 C18_3 1_555 1_555
H19_3 C18_3 1_555 1_555
C19_3 C18_3 1_555 1_555
C20_3 C19_3 1_555 1_555
H20_3 C20_3 1_555 1_555
C21_3 C19_3 1_555 1_555
H21_3 C21_3 1_555 1_555
C36_3 C20_3 1_555 1_555
C37_3 C36_3 1_555 1_555
C38_3 C37_3 1_555 1_555
N11_3 C38_3 1_555 1_555
C39_3 N11_3 1_555 1_555
N12_2 C39_3 1_555 1_555
C40_3 N12_2 1_555 1_555
H36_3 C40_3 1_555 1_555
C41_3 N11_3 1_555 1_555
H37_3 C41_3 1_555 1_555
H38_3 C39_3 1_555 1_555
H39_3 C38_3 1_555 1_555
H40_3 C38_3 1_555 1_555
C42_3 C21_3 1_555 1_555
H41_3 C42_3 1_555 1_555
H42_3 C36_3 1_555 1_555
N14_3 Co3_4 1_555 1_555
Co3_5 N12_2 1_555 1_555
C16_3 C17_3 1_555 1_555
C37_3 C42_3 1_555 1_555
C40_3 C41_3 1_555 1_555
Co3_5 N1_4 1_555 1_555
N1_4 C1_4 1_555 1_555
N2_4 C1_4 1_555 1_555
N5_4 Co3_5 1_555 1_555
N6_4 C15_4 1_555 1_555
C1_4 H1_4 1_555 1_555
C2_4 N1_4 1_555 1_555
H2_4 C2_4 1_555 1_555
C3_4 N2_4 1_555 1_555
C4_4 N2_4 1_555 1_555
H4_4 C4_4 1_555 1_555
H5_4 C4_4 1_555 1_555
C5_4 C4_4 1_555 1_555
C6_4 C5_4 1_555 1_555
H6_4 C6_4 1_555 1_555
C7_4 C5_4 1_555 1_555
H7_4 C7_4 1_555 1_555
C15_4 N5_4 1_555 1_555
H15_4 C15_4 1_555 1_555
C16_4 N5_4 1_555 1_555
H16_4 C16_4 1_555 1_555
C17_4 N6_4 1_555 1_555
H17_4 C17_4 1_555 1_555
C18_4 N6_4 1_555 1_555
H18_4 C18_4 1_555 1_555
H19_4 C18_4 1_555 1_555
C19_4 C18_4 1_555 1_555
C20_4 C19_4 1_555 1_555
H20_4 C20_4 1_555 1_555
C21_4 C19_4 1_555 1_555
H21_4 C21_4 1_555 1_555
C22_4 C6_4 1_555 1_555
C23_4 C22_4 1_555 1_555
C24_4 C23_4 1_555 1_555
N7_4 C24_4 1_555 1_555
C25_4 N7_4 1_555 1_555
N13_2 C25_4 1_555 1_555
C26_4 N13_2 1_555 1_555
H22_4 C26_4 1_555 1_555
C27_4 N7_4 1_555 1_555
H23_4 C27_4 1_555 1_555
H24_4 C25_4 1_555 1_555
H25_4 C24_4 1_555 1_555
H26_4 C24_4 1_555 1_555
C28_4 C7_4 1_555 1_555
H27_4 C28_4 1_555 1_555
H28_4 C22_4 1_555 1_555
C36_4 C20_4 1_555 1_555
C37_4 C36_4 1_555 1_555
C38_4 C37_4 1_555 1_555
N11_4 C38_4 1_555 1_555
C39_4 N11_4 1_555 1_555
N15_2 C39_4 1_555 1_555
C40_4 N15_2 1_555 1_555
H36_4 C40_4 1_555 1_555
C41_4 N11_4 1_555 1_555
H37_4 C41_4 1_555 1_555
H39_4 C38_4 1_555 1_555
H40_4 C38_4 1_555 1_555
C42_4 C21_4 1_555 1_555
H41_4 C42_4 1_555 1_555
H42_4 C36_4 1_555 1_555
N14_4 Co3_5 1_555 1_555
C2_4 C3_4 1_555 1_555
C16_4 C17_4 1_555 1_555
C23_4 C28_4 1_555 1_555
C26_4 C27_4 1_555 1_555
C37_4 C42_4 1_555 1_555
C40_4 C41_4 1_555 1_555
H14_3 C14_3 1_555 1_555
C35_3 C14_3 1_555 1_555
H34_3 C35_3 1_555 1_555
N4_3 C8_3 1_555 1_555
C8_3 N14 1_555 1_555
C9_3 N14 1_555 1_555
H9_3 C9_3 1_555 1_555
C10_3 N4_3 1_555 1_555
H10_3 C10_3 1_555 1_555
C11_3 N4_3 1_555 1_555
H11_3 C11_3 1_555 1_555
H12_3 C11_3 1_555 1_555
C12_3 C11_3 1_555 1_555
C13_3 C12_3 1_555 1_555
H13_3 C13_3 1_555 1_555
C29_3 C13_3 1_555 1_555
C30_3 C29_3 1_555 1_555
C31_3 C30_3 1_555 1_555
N9_3 C31_3 1_555 1_555
C32_3 N9_3 1_555 1_555
N14_3 C32_3 1_555 1_555
C33_3 N14_3 1_555 1_555
H29_3 C33_3 1_555 1_555
C34_3 N9_3 1_555 1_555
H30_3 C34_3 1_555 1_555
H32_3 C31_3 1_555 1_555
H33_3 C31_3 1_555 1_555
H35_3 C29_3 1_555 1_555
C9_3 C10_3 1_555 1_555
C33_3 C34_3 1_555 1_555
C30_4 C29_4 1_555 1_555
C31_4 C30_4 1_555 1_555
N9_4 C31_4 1_555 1_555
C32_4 N9_4 1_555 1_555
N14_4 C32_4 1_555 1_555
C33_4 N14_4 1_555 1_555
H29_4 C33_4 1_555 1_555
C34_4 N9_4 1_555 1_555
H30_4 C34_4 1_555 1_555
H31_4 C32_4 1_555 1_555
H32_4 C31_4 1_555 1_555
H33_4 C31_4 1_555 1_555
H34_4 C35_4 1_555 1_555
H35_4 C29_4 1_555 1_555
C30_4 C35_4 1_555 1_555
C33_4 C34_4 1_555 1_555
N4_4 C8_4 1_555 1_555
C8_4 N14_2 1_555 1_555
H8_4 C8_4 1_555 1_555
C9_4 N14_2 1_555 1_555
H9_4 C9_4 1_555 1_555
C10_4 N4_4 1_555 1_555
H10_4 C10_4 1_555 1_555
C11_4 N4_4 1_555 1_555
H11_4 C11_4 1_555 1_555
H12_4 C11_4 1_555 1_555
C12_4 C11_4 1_555 1_555
C13_4 C12_4 1_555 1_555
H13_4 C13_4 1_555 1_555
C14_4 C12_4 1_555 1_555
H14_4 C14_4 1_555 1_555
C9_4 C10_4 1_555 1_555
O1 H43 1_555 1_555
O1_2 H43_2 1_555 1_555
O1_3 H43_3 1_555 1_555
O1_3 H43_4 1_555 1_555
O1_4 H43_5 1_555 1_555
O1_5 H43_6 1_555 1_555
O1_6 H43_7 1_555 1_555
O1_6 H43_8 1_555 1_555
O2 H44 1_555 1_555
O2_2 H44_2 1_555 1_555
O2_3 H44_3 1_555 1_555
O2_4 H44_4 1_555 1_555
O2_5 H44_5 1_555 1_555
O2_6 H44_6 1_555 1_555
O2_7 H44_7 1_555 1_555
O2_8 H44_8 1_555 1_555

#END
