
###############################################################################
#
# This file contains modified crystal structure data generated from the
# MOF subset of the Cambridge Structural Database (CSD) v543 
# hosted by the Cambridge Crystallographic Data Centre (CCDC).
#
# This work is licensed under the Creative Commons
# Attribution-NonCommercial-ShareAlike 4.0 International License.
# To view a copy of this license, visit
# http://creativecommons.org/licenses/by-nc-sa/4.0/
# or send a letter to
# Creative Commons, PO Box 1866, Mountain View, CA 94042, USA.
#
# CIF created using the CSD Python API on 29 September 2022
# The structure has been converted into the P1 space group
# The structure has a 3D framework
# The original CSD entry VAGBUD is in the triclinic crystal system
# The framework has been calculated to contain at least 10.0% void space
# The void calculation uses a probe of radius 1.32A, grid spacing 0.4
#
###############################################################################

data_VAGBUD
_chemical_formula_moiety         '(C72 H56 Cu8 Gd2 I8 N6 O14)n'
_symmetry_cell_setting           triclinic
_symmetry_space_group_name_H-M   'P 1'
_symmetry_Int_Tables_number      1
_space_group_name_Hall           'P 1'
loop_
_symmetry_equiv_pos_site_id
_symmetry_equiv_pos_as_xyz
1 x,y,z
_cell_length_a                   9.6323(19)
_cell_length_b                   16.676(3)
_cell_length_c                   21.182(4)
_cell_angle_alpha                104.08(3)
_cell_angle_beta                 100.39(3)
_cell_angle_gamma                97.03(3)
_cell_volume                     3196.42
loop_
_atom_site_label
_atom_site_type_symbol
_atom_site_fract_x
_atom_site_fract_y
_atom_site_fract_z
Cu7 Cu 0.25496(8) 0.32682(5) 0.00169(4)
O2 O 0.0766(4) 0.0509(3) 0.4399(2)
O4 O 0.1704(4) 0.0914(3) 0.58677(18)
N3 N 0.0773(5) 0.2619(3) 0.9324(2)
C9 C 0.1206(6) 0.0776(4) 0.3179(3)
H10 H 0.1910 0.0562 0.3418
C10 C 0.1359(7) 0.0926(5) 0.2588(3)
H11 H 0.2172 0.0818 0.2426
C11 C 0.0308(7) 0.1240(5) 0.2224(3)
H12 H 0.0417 0.1325 0.1816
C16 C 0.0222(7) 0.4400(4) 0.8263(4)
H15 H 0.1210 0.4561 0.8410
C18 C 0.0623(6) 0.3047(4) 0.7569(3)
C19 C 0.0247(6) 0.2465(3) 0.6959(3)
C20 C 0.1186(6) 0.1945(3) 0.6719(3)
C21 C 0.2538(6) 0.2030(4) 0.7111(3)
H18 H 0.3173 0.1693 0.6957
C22 C 0.2961(6) 0.2616(4) 0.7735(3)
H19 H 0.3875 0.2676 0.7995
C23 C 0.1993(7) 0.3106(4) 0.7958(3)
H20 H 0.2259 0.3486 0.8379
C24 C 0.0760(5) 0.1324(3) 0.6050(3)
C25 C 0.0780(6) 0.1932(4) 0.8845(3)
H21 H 0.1653 0.1755 0.8821
Gd3 Gd 0.22336(2) 0.98650(2) 0.50269(2)
Gd1 Gd 0.77664(2) 0.01350(2) 0.49731(2)
Cu1 Cu 0.46200(8) 0.31722(6) 0.09884(4)
Cu2 Cu 0.51374(8) 0.44241(5) 0.04037(4)
Cu3 Cu 0.31938(9) 0.44455(6) 0.12205(5)
I1 I 0.58871(4) 0.47754(3) 0.17426(2)
I3 I 0.19593(4) 0.28844(3) 0.11258(2)
I4 I 0.26220(4) 0.48978(3) -0.00001(2)
O1 O 0.8593(4) 0.0836(3) 0.42211(18)
O3 O 0.9516(4) 0.1245(3) 0.57207(19)
O5 O 0.6694(4) 0.0432(3) 0.59008(18)
O7 O 0.7032(6) 0.1649(4) 0.5138(3)
H1 H 0.800(3) 0.1997(12) 0.528(4)
H2 H 0.662(8) 0.169(2) 0.553(3)
N1 N 0.5978(5) 0.2534(4) 0.1412(3)
N2 N 0.7920(6) 0.4741(3) 0.8316(3)
C1 C 0.5618(7) 0.1993(4) 0.1749(3)
H5 H 0.4658 0.1862 0.1759
C2 C 0.6596(6) 0.1616(4) 0.2086(3)
H6 H 0.6275 0.1232 0.2303
C3 C 0.8039(6) 0.1801(4) 0.2103(3)
C4 C 0.8355(7) 0.2335(5) 0.1730(4)
H7 H 0.9301 0.2465 0.1697
C5 C 0.7351(8) 0.2683(6) 0.1408(4)
H8 H 0.7647 0.3047 0.1169
C6 C 0.9092(6) 0.1430(4) 0.2462(3)
C7 C 0.8953(5) 0.1262(4) 0.3064(3)
H9 H 0.8140 0.1367 0.3227
C8 C 0.9984(5) 0.0944(3) 0.3424(3)
C12 C 0.9781(5) 0.0747(4) 0.4066(2)
C13 C 0.7380(7) 0.3990(4) 0.7890(3)
H13 H 0.6388 0.3842 0.7757
C14 C 0.8192(6) 0.3416(4) 0.7631(3)
H14 H 0.7749 0.2901 0.7336
C15 C 0.9658(6) 0.3615(3) 0.7815(3)
C17 C 0.9347(7) 0.4935(5) 0.8488(4)
H16 H 0.9764 0.5460 0.8775
H17 H 0.9340 0.2412 0.6696
C26 C 0.9601(6) 0.1476(4) 0.8391(3)
H22 H 0.9684 0.1011 0.8062
C27 C 0.8256(6) 0.1705(4) 0.8416(3)
C28 C 0.8239(6) 0.2416(4) 0.8917(3)
H23 H 0.7379 0.2599 0.8964
C29 C 0.9510(6) 0.2849(4) 0.9344(3)
H24 H 0.9478 0.3334 0.9666
C30 C 0.6933(5) 0.1227(4) 0.7953(3)
C31 C 0.6867(5) 0.0947(3) 0.7265(2)
H25 H 0.7680 0.1069 0.7103
C32 C 0.5625(5) 0.0497(3) 0.6825(2)
C33 C 0.4400(5) 0.0302(4) 0.7059(3)
H26 H 0.3557 0.0001 0.6765
C34 C 0.4460(6) 0.0566(4) 0.7743(3)
H27 H 0.3657 0.0427 0.7907
C35 C 0.5705(6) 0.1033(4) 0.8180(3)
H28 H 0.5717 0.1219 0.8632
C36 C 0.5570(5) 0.0235(4) 0.6089(2)
Cu6 Cu 0.68062(9) 0.55545(6) 0.87795(5)
I5 I 0.73780(4) 0.51022(3) 0.00001(2)
O11 O 0.5589(4) 0.0157(3) 0.42977(17)
N4 N 0.2080(6) 0.5259(3) 0.1684(3)
I2 I 0.48967(4) 0.27962(3) 0.97062(2)
I4_2 I 0.26220(4) 0.48978(3) 0.99999(2)
Cu5 Cu 0.48626(8) 0.55759(5) 0.95963(4)
I5_2 I 0.73780(4) 0.51022(3) 1.00001(2)
O6 O 0.4411(4) 0.9843(3) 0.57023(17)
O8 O 0.6156(5) 0.8816(3) 0.4870(3)
H3 H 0.522(3) 0.8869(17) 0.492(4)
H4 H 0.640(5) 0.8317(10) 0.469(4)
O9 O 0.9234(4) 0.9491(3) 0.5601(2)
O10 O 0.8296(4) 0.9086(3) 0.41323(18)
O8_2 O 0.3844(5) 0.1184(3) 0.5130(3)
H3_2 H 0.478(3) 0.1131(17) 0.508(4)
H4_2 H 0.360(5) 0.1683(10) 0.531(4)
I2_2 I 0.51033(4) 0.72038(3) 0.02938(2)
N5 N 0.9227(5) 0.7381(3) 0.0676(2)
Cu1_2 Cu 0.53800(8) 0.68278(6) 0.90116(4)
Cu4 Cu 0.74504(8) 0.67318(5) 0.99831(4)
I1_2 I 0.41129(4) 0.52246(3) 0.82574(2)
I3_2 I 0.80407(4) 0.71156(3) 0.88742(2)
O1_2 O 0.1407(4) 0.9164(3) 0.57789(18)
O3_2 O 0.0484(4) 0.8755(3) 0.42793(19)
O5_2 O 0.3306(4) 0.9568(3) 0.40992(18)
O7_2 O 0.2968(6) 0.8351(4) 0.4862(3)
H1_2 H 0.200(3) 0.8003(12) 0.472(4)
H2_2 H 0.338(8) 0.831(2) 0.447(3)
N1_2 N 0.4022(5) 0.7466(4) 0.8588(3)
C1_2 C 0.4382(7) 0.8007(4) 0.8251(3)
H5_2 H 0.5342 0.8138 0.8241
C2_2 C 0.3404(6) 0.8384(4) 0.7914(3)
H6_2 H 0.3725 0.8768 0.7697
C3_2 C 0.1961(6) 0.8199(4) 0.7897(3)
C4_2 C 0.1645(7) 0.7665(5) 0.8270(4)
H7_2 H 0.0699 0.7535 0.8303
C5_2 C 0.2649(8) 0.7317(6) 0.8592(4)
H8_2 H 0.2353 0.6953 0.8831
C6_2 C 0.0908(6) 0.8570(4) 0.7538(3)
C7_2 C 0.1047(5) 0.8738(4) 0.6936(3)
H9_2 H 0.1860 0.8633 0.6773
C8_2 C 0.0016(5) 0.9056(3) 0.6576(3)
C12_2 C 0.0219(5) 0.9253(4) 0.5934(2)
C13_2 C 0.2620(7) 0.6010(4) 0.2110(3)
H13_2 H 0.3612 0.6158 0.2243
C14_2 C 0.1808(6) 0.6584(4) 0.2369(3)
H14_2 H 0.2251 0.7099 0.2664
C15_2 C 0.0342(6) 0.6385(3) 0.2185(3)
C17_2 C 0.0653(7) 0.5065(5) 0.1512(4)
H16_2 H 0.0236 0.4540 0.1225
H17_2 H 0.0660 0.7588 0.3304
C26_2 C 0.0399(6) 0.8524(4) 0.1609(3)
H22_2 H 0.0316 0.8989 0.1938
C27_2 C 0.1744(6) 0.8295(4) 0.1584(3)
C28_2 C 0.1761(6) 0.7584(4) 0.1083(3)
H23_2 H 0.2621 0.7401 0.1036
C29_2 C 0.0490(6) 0.7151(4) 0.0656(3)
H24_2 H 0.0522 0.6666 0.0334
C30_2 C 0.3067(5) 0.8773(4) 0.2047(3)
C31_2 C 0.3133(5) 0.9053(3) 0.2735(2)
H25_2 H 0.2320 0.8931 0.2897
C32_2 C 0.4375(5) 0.9503(3) 0.3175(2)
C33_2 C 0.5600(5) 0.9698(4) 0.2941(3)
H26_2 H 0.6443 0.9999 0.3235
C34_2 C 0.5540(6) 0.9434(4) 0.2257(3)
H27_2 H 0.6343 0.9573 0.2093
C35_2 C 0.4295(6) 0.8967(4) 0.1820(3)
H28_2 H 0.4283 0.8781 0.1368
C36_2 C 0.4430(5) 0.9765(4) 0.3911(2)
C9_2 C 0.8794(6) 0.9224(4) 0.6821(3)
H10_2 H 0.8090 0.9438 0.6582
C10_2 C 0.8641(7) 0.9074(5) 0.7412(3)
H11_2 H 0.7828 0.9182 0.7574
C11_2 C 0.9692(7) 0.8760(5) 0.7776(3)
H12_2 H 0.9583 0.8675 0.8184
C16_2 C 0.9778(7) 0.5600(4) 0.1737(4)
H15_2 H 0.8790 0.5439 0.1590
C18_2 C 0.9377(6) 0.6953(4) 0.2431(3)
C19_2 C 0.9753(6) 0.7535(3) 0.3041(3)
C20_2 C 0.8814(6) 0.8055(3) 0.3281(3)
C21_2 C 0.7462(6) 0.7970(4) 0.2889(3)
H18_2 H 0.6827 0.8307 0.3043
C22_2 C 0.7039(6) 0.7384(4) 0.2265(3)
H19_2 H 0.6125 0.7324 0.2005
C23_2 C 0.8007(7) 0.6894(4) 0.2042(3)
H20_2 H 0.7741 0.6514 0.1621
C24_2 C 0.9240(5) 0.8676(3) 0.3950(3)
C25_2 C 0.9220(6) 0.8068(4) 0.1155(3)
H21_2 H 0.8347 0.8245 0.1179
loop_
_geom_bond_atom_site_label_1
_geom_bond_atom_site_label_2
_geom_bond_site_symmetry_1
_geom_bond_site_symmetry_2
O4 C24 1_555 1_555
N3 C25 1_555 1_555
H10 C9 1_555 1_555
C10 C9 1_555 1_555
H11 C10 1_555 1_555
H12 C11 1_555 1_555
H15 C16 1_555 1_555
C19 C18 1_555 1_555
C20 C19 1_555 1_555
C21 C20 1_555 1_555
H18 C21 1_555 1_555
C22 C21 1_555 1_555
H19 C22 1_555 1_555
C23 C18 1_555 1_555
H20 C23 1_555 1_555
C25 H21 1_555 1_555
C10 C11 1_555 1_555
C20 C24 1_555 1_555
C22 C23 1_555 1_555
Gd1 O1 1_555 1_555
Cu1 I1 1_555 1_555
Cu2 I1 1_555 1_555
Cu3 I1 1_555 1_555
I3 Cu1 1_555 1_555
I4 Cu2 1_555 1_555
O1 C12 1_555 1_555
O3 Gd1 1_555 1_555
O5 Gd1 1_555 1_555
O7 Gd1 1_555 1_555
H1 O7 1_555 1_555
H2 O7 1_555 1_555
N1 Cu1 1_555 1_555
N2 C13 1_555 1_555
C1 N1 1_555 1_555
H5 C1 1_555 1_555
C2 C1 1_555 1_555
H6 C2 1_555 1_555
C3 C2 1_555 1_555
C4 C3 1_555 1_555
H7 C4 1_555 1_555
C5 N1 1_555 1_555
H8 C5 1_555 1_555
C6 C3 1_555 1_555
C7 C6 1_555 1_555
H9 C7 1_555 1_555
C8 C7 1_555 1_555
C12 C8 1_555 1_555
C13 H13 1_555 1_555
C14 C13 1_555 1_555
H14 C14 1_555 1_555
C15 C14 1_555 1_555
C17 N2 1_555 1_555
H16 C17 1_555 1_555
H22 C26 1_555 1_555
C27 C26 1_555 1_555
C28 C27 1_555 1_555
H23 C28 1_555 1_555
H24 C29 1_555 1_555
C30 C27 1_555 1_555
C31 C30 1_555 1_555
H25 C31 1_555 1_555
C32 C31 1_555 1_555
C33 C32 1_555 1_555
H26 C33 1_555 1_555
C34 C33 1_555 1_555
H27 C34 1_555 1_555
C35 C30 1_555 1_555
H28 C35 1_555 1_555
C36 O5 1_555 1_555
Cu6 N2 1_555 1_555
I5 Cu2 1_555 1_555
O11 Gd1 1_555 1_555
N4 Cu3 1_555 1_555
Cu3 I3 1_555 1_555
Cu3 I4 1_555 1_555
Cu7 I3 1_555 1_555
Cu7 I4 1_555 1_555
C4 C5 1_555 1_555
C28 C29 1_555 1_555
C32 C36 1_555 1_555
C34 C35 1_555 1_555
Cu5 I4_2 1_555 1_555
Cu5 I5_2 1_555 1_555
H3 O8 1_555 1_555
H4 O8 1_555 1_555
Gd3 O6 1_555 1_555
H3_2 O8_2 1_555 1_555
H4_2 O8_2 1_555 1_555
Gd3 O1_2 1_555 1_555
Cu1_2 I1_2 1_555 1_555
Cu5 I1_2 1_555 1_555
Cu6 I1_2 1_555 1_555
I3_2 Cu1_2 1_555 1_555
O1_2 C12_2 1_555 1_555
O3_2 Gd3 1_555 1_555
O5_2 Gd3 1_555 1_555
O7_2 Gd3 1_555 1_555
H1_2 O7_2 1_555 1_555
H2_2 O7_2 1_555 1_555
N1_2 Cu1_2 1_555 1_555
N4 C13_2 1_555 1_555
C1_2 N1_2 1_555 1_555
H5_2 C1_2 1_555 1_555
C2_2 C1_2 1_555 1_555
H6_2 C2_2 1_555 1_555
C3_2 C2_2 1_555 1_555
C4_2 C3_2 1_555 1_555
H7_2 C4_2 1_555 1_555
C5_2 N1_2 1_555 1_555
H8_2 C5_2 1_555 1_555
C6_2 C3_2 1_555 1_555
C7_2 C6_2 1_555 1_555
H9_2 C7_2 1_555 1_555
C8_2 C7_2 1_555 1_555
C12_2 C8_2 1_555 1_555
C13_2 H13_2 1_555 1_555
C14_2 C13_2 1_555 1_555
H14_2 C14_2 1_555 1_555
C15_2 C14_2 1_555 1_555
C17_2 N4 1_555 1_555
H16_2 C17_2 1_555 1_555
H22_2 C26_2 1_555 1_555
C27_2 C26_2 1_555 1_555
C28_2 C27_2 1_555 1_555
H23_2 C28_2 1_555 1_555
H24_2 C29_2 1_555 1_555
C30_2 C27_2 1_555 1_555
C31_2 C30_2 1_555 1_555
H25_2 C31_2 1_555 1_555
C32_2 C31_2 1_555 1_555
C33_2 C32_2 1_555 1_555
H26_2 C33_2 1_555 1_555
C34_2 C33_2 1_555 1_555
H27_2 C34_2 1_555 1_555
C35_2 C30_2 1_555 1_555
H28_2 C35_2 1_555 1_555
C36_2 O5_2 1_555 1_555
Cu6 I3_2 1_555 1_555
Cu6 I5_2 1_555 1_555
Cu4 I3_2 1_555 1_555
Cu4 I5_2 1_555 1_555
C4_2 C5_2 1_555 1_555
C28_2 C29_2 1_555 1_555
C32_2 C36_2 1_555 1_555
C34_2 C35_2 1_555 1_555
O10 C24_2 1_555 1_555
N5 C25_2 1_555 1_555
H10_2 C9_2 1_555 1_555
C10_2 C9_2 1_555 1_555
H11_2 C10_2 1_555 1_555
H12_2 C11_2 1_555 1_555
H15_2 C16_2 1_555 1_555
C19_2 C18_2 1_555 1_555
C20_2 C19_2 1_555 1_555
C21_2 C20_2 1_555 1_555
H18_2 C21_2 1_555 1_555
C22_2 C21_2 1_555 1_555
H19_2 C22_2 1_555 1_555
C23_2 C18_2 1_555 1_555
H20_2 C23_2 1_555 1_555
C25_2 H21_2 1_555 1_555
C10_2 C11_2 1_555 1_555
C20_2 C24_2 1_555 1_555
C22_2 C23_2 1_555 1_555

#END
