
###############################################################################
#
# This file contains modified crystal structure data generated from the
# MOF subset of the Cambridge Structural Database (CSD) v543 
# hosted by the Cambridge Crystallographic Data Centre (CCDC).
#
# This work is licensed under the Creative Commons
# Attribution-NonCommercial-ShareAlike 4.0 International License.
# To view a copy of this license, visit
# http://creativecommons.org/licenses/by-nc-sa/4.0/
# or send a letter to
# Creative Commons, PO Box 1866, Mountain View, CA 94042, USA.
#
# CIF created using the CSD Python API on 29 September 2022
# The structure has been converted into the P1 space group
# The structure has a 3D framework
# The original CSD entry VAGMAT is in the orthorhombic crystal system
# The framework has been calculated to contain at least 10.0% void space
# The void calculation uses a probe of radius 1.32A, grid spacing 0.4
# H atom positions have been added when not included in the experimental data
# Generated hydrogen atom positions removed from atoms on special positions
#
###############################################################################

data_VAGMAT
_chemical_formula_moiety         '(C180 H144 N18 O40 Zn8)n'
_symmetry_cell_setting           triclinic
_symmetry_space_group_name_H-M   'P 1'
_symmetry_Int_Tables_number      1
_space_group_name_Hall           'P 1'
loop_
_symmetry_equiv_pos_site_id
_symmetry_equiv_pos_as_xyz
1 x,y,z
_cell_length_a                   35.965(7)
_cell_length_b                   23.273(5)
_cell_length_c                   17.219(3)
_cell_angle_alpha                90
_cell_angle_beta                 90
_cell_angle_gamma                90
_cell_volume                     14412.5
loop_
_atom_site_label
_atom_site_type_symbol
_atom_site_fract_x
_atom_site_fract_y
_atom_site_fract_z
O1 O 0.29964(7) 0.18903(9) 0.23422(16)
C1 C 0.28473(12) 0.17198(15) 0.1728(2)
C2 C 0.35583(12) 0.06134(18) 0.1129(3)
H1 H 0.3775 0.0452 0.1327
C3 C 0.34214(12) 0.04223(16) 0.0426(3)
C4 C 0.29116(11) 0.10675(16) 0.0574(3)
H2 H 0.2689 0.1215 0.0382
C5 C 0.30479(11) 0.12573(14) 0.1285(3)
C6 C 0.33798(12) 0.10410(17) 0.1546(3)
H3 H 0.3485 0.1181 0.2002
N1 N 0.36153(14) 0.00000 0.00000
C7 C 0.31022(13) 0.06681(17) 0.0160(2)
C8 C 0.40156(18) 0.00000 0.00000
C11 C 0.47907(14) 0.00000 0.00000
O2 O 0.25441(7) 0.18866(9) 0.14635(15)
O3 O 0.32069(11) 0.25000 0.3858(2)
Zn1 Zn 0.279998(14) 0.25000 0.30825(3)
O6 O 0.70036(7) 0.18903(9) 0.23422(16)
O7 O 0.70036(7) 0.31097(9) 0.23422(16)
O8 O 0.29964(7) 0.31097(9) 0.23422(16)
C14 C 0.71527(12) 0.17198(15) 0.1728(2)
C17 C 0.64417(12) 0.06134(18) 0.1129(3)
H9 H 0.6225 0.0452 0.1327
C20 C 0.65786(12) 0.04223(16) 0.0426(3)
C23 C 0.70884(11) 0.10675(16) 0.0574(3)
H12 H 0.7311 0.1215 0.0382
C26 C 0.69521(11) 0.12573(14) 0.1285(3)
C29 C 0.66202(12) 0.10410(17) 0.1546(3)
H15 H 0.6515 0.1181 0.2002
N2 N 0.63847(14) 0.00000 0.00000
C32 C 0.68978(13) 0.06681(17) 0.0160(2)
C33 C 0.59844(18) 0.00000 0.00000
C40 C 0.52093(14) 0.00000 0.00000
O11 O 0.74559(7) 0.18866(9) 0.14635(15)
O12 O 0.75441(7) 0.31134(9) 0.35365(15)
O13 O 0.24559(7) 0.18866(9) 0.35365(15)
O14 O 0.24559(7) 0.31134(9) 0.35365(15)
O15 O 0.75441(7) 0.18866(9) 0.35365(15)
O16 O 0.67931(11) 0.25000 0.3858(2)
Zn2 Zn 0.720002(14) 0.25000 0.30825(3)
Zn7 Zn 0.779998(14) 0.25000 0.19175(3)
Zn8 Zn 0.220002(14) 0.25000 0.19175(3)
N1_2 N 0.36153(14) 1.00000 1.00000
C8_2 C 0.40156(18) 1.00000 1.00000
C11_2 C 0.47907(14) 1.00000 1.00000
O4 O 0.29964(7) 0.81097(9) 0.76578(16)
O5 O 0.70036(7) 0.81097(9) 0.76578(16)
C12 C 0.28473(12) 0.82802(15) 0.8272(2)
C13 C 0.71527(12) 0.82802(15) 0.8272(2)
C15 C 0.35583(12) 0.93866(18) 0.8871(3)
C16 C 0.64417(12) 0.93866(18) 0.8871(3)
H7 H 0.3775 0.9548 0.8673
H8 H 0.6225 0.9548 0.8673
C18 C 0.34214(12) 0.95777(16) 0.9574(3)
C19 C 0.65786(12) 0.95777(16) 0.9574(3)
C21 C 0.29116(11) 0.89325(16) 0.9426(3)
C22 C 0.70884(11) 0.89325(16) 0.9426(3)
H10 H 0.2689 0.8785 0.9618
H11 H 0.7311 0.8785 0.9618
C24 C 0.30479(11) 0.87427(14) 0.8715(3)
C25 C 0.69521(11) 0.87427(14) 0.8715(3)
C27 C 0.33798(12) 0.89590(17) 0.8454(3)
C28 C 0.66202(12) 0.89590(17) 0.8454(3)
H13 H 0.3485 0.8819 0.7998
H14 H 0.6515 0.8819 0.7998
N2_2 N 0.63847(14) 1.00000 1.00000
C30 C 0.31022(13) 0.93319(17) 0.9840(2)
C31 C 0.68978(13) 0.93319(17) 0.9840(2)
C33_2 C 0.59844(18) 1.00000 1.00000
C40_2 C 0.52093(14) 1.00000 1.00000
O9 O 0.25441(7) 0.81134(9) 0.85365(15)
O10 O 0.74559(7) 0.81134(9) 0.85365(15)
Zn3 Zn 0.279998(14) 0.75000 0.69175(3)
Zn4 Zn 0.720002(14) 0.75000 0.69175(3)
Zn5 Zn 0.779998(14) 0.75000 0.80825(3)
Zn6 Zn 0.220002(14) 0.75000 0.80825(3)
C1_2 C 0.71527(12) 0.32802(15) 0.1728(2)
C2_2 C 0.64417(12) 0.43866(18) 0.1129(3)
H1_2 H 0.6225 0.4548 0.1327
C3_2 C 0.65786(12) 0.45777(16) 0.0426(3)
C4_2 C 0.70884(11) 0.39325(16) 0.0574(3)
H2_2 H 0.7311 0.3785 0.0382
C5_2 C 0.69521(11) 0.37427(14) 0.1285(3)
C6_2 C 0.66202(12) 0.39590(17) 0.1546(3)
H3_2 H 0.6515 0.3819 0.2002
N1_3 N 0.63847(14) 0.50000 0.00000
C7_2 C 0.68978(13) 0.43319(17) 0.0160(2)
C8_3 C 0.59844(18) 0.50000 0.00000
C9 C 0.57989(14) 0.54801(17) 0.0134(3)
H5 H 0.5929 0.5816 0.0243
C10 C 0.54071(13) 0.54933(16) 0.0114(3)
H6 H 0.5283 0.584 0.018
C11_3 C 0.52093(14) 0.50000 0.00000
O2_2 O 0.74559(7) 0.31134(9) 0.14635(15)
C14_2 C 0.28473(12) 0.32802(15) 0.1728(2)
C17_2 C 0.35583(12) 0.43866(18) 0.1129(3)
H9_2 H 0.3775 0.4548 0.1327
C20_2 C 0.34214(12) 0.45777(16) 0.0426(3)
C23_2 C 0.29116(11) 0.39325(16) 0.0574(3)
H12_2 H 0.2689 0.3785 0.0382
C26_2 C 0.30479(11) 0.37427(14) 0.1285(3)
C29_2 C 0.33798(12) 0.39590(17) 0.1546(3)
H15_2 H 0.3485 0.3819 0.2002
N2_3 N 0.36153(14) 0.50000 0.00000
C32_2 C 0.31022(13) 0.43319(17) 0.0160(2)
H16 H 0.6989 0.5558 0.0323
H17 H 0.3011 0.5558 0.0323
C33_3 C 0.40156(18) 0.50000 0.00000
C36 C 0.42011(14) 0.54801(17) 0.0134(3)
H21 H 0.4071 0.5816 0.0243
C39 C 0.45929(13) 0.54933(16) 0.0114(3)
H24 H 0.4717 0.584 0.018
C40_3 C 0.47907(14) 0.50000 0.00000
O11_2 O 0.25441(7) 0.31134(9) 0.14635(15)
N1_4 N 0.63847(14) 0.50000 1.00000
H4 H 0.6989 0.4442 0.9677
C8_4 C 0.59844(18) 0.50000 1.00000
C11_4 C 0.52093(14) 0.50000 1.00000
O4_2 O 0.70036(7) 0.68903(9) 0.76578(16)
O5_2 O 0.29964(7) 0.68903(9) 0.76578(16)
C12_2 C 0.71527(12) 0.67198(15) 0.8272(2)
C13_2 C 0.28473(12) 0.67198(15) 0.8272(2)
C15_2 C 0.64417(12) 0.56134(18) 0.8871(3)
C16_2 C 0.35583(12) 0.56134(18) 0.8871(3)
H7_2 H 0.6225 0.5452 0.8673
H8_2 H 0.3775 0.5452 0.8673
C18_2 C 0.65786(12) 0.54223(16) 0.9574(3)
C19_2 C 0.34214(12) 0.54223(16) 0.9574(3)
C21_2 C 0.70884(11) 0.60675(16) 0.9426(3)
C22_2 C 0.29116(11) 0.60675(16) 0.9426(3)
H10_2 H 0.7311 0.6215 0.9618
H11_2 H 0.2689 0.6215 0.9618
C24_2 C 0.69521(11) 0.62573(14) 0.8715(3)
C25_2 C 0.30479(11) 0.62573(14) 0.8715(3)
C27_2 C 0.66202(12) 0.60410(17) 0.8454(3)
C28_2 C 0.33798(12) 0.60410(17) 0.8454(3)
H13_2 H 0.6515 0.6181 0.7998
H14_2 H 0.3485 0.6181 0.7998
N2_4 N 0.36153(14) 0.50000 1.00000
C30_2 C 0.68978(13) 0.56681(17) 0.9840(2)
C31_2 C 0.31022(13) 0.56681(17) 0.9840(2)
H18 H 0.3011 0.4442 0.9677
C33_4 C 0.40156(18) 0.50000 1.00000
C34 C 0.57989(14) 0.45199(17) 0.9866(3)
C35 C 0.42011(14) 0.45199(17) 0.9866(3)
H19 H 0.5929 0.4184 0.9757
H20 H 0.4071 0.4184 0.9757
C37 C 0.54071(13) 0.45067(16) 0.9886(3)
C38 C 0.45929(13) 0.45067(16) 0.9886(3)
H22 H 0.5283 0.416 0.982
H23 H 0.4717 0.416 0.982
C40_4 C 0.47907(14) 0.50000 1.00000
O9_2 O 0.74559(7) 0.68866(9) 0.85365(15)
O10_2 O 0.25441(7) 0.68866(9) 0.85365(15)
O3_2 O 0.32069(11) 0.75000 0.6142(2)
O12_2 O 0.75441(7) 0.68866(9) 0.64635(15)
O13_2 O 0.24559(7) 0.81134(9) 0.64635(15)
O14_2 O 0.24559(7) 0.68866(9) 0.64635(15)
O15_2 O 0.75441(7) 0.81134(9) 0.64635(15)
O16_2 O 0.67931(11) 0.75000 0.6142(2)
O5_3 O 0.20036(7) 0.31097(9) 0.26578(16)
O6_2 O 0.20036(7) 0.68903(9) 0.73422(16)
O7_2 O 0.20036(7) 0.81097(9) 0.73422(16)
C13_3 C 0.21527(12) 0.32802(15) 0.3272(2)
C14_3 C 0.21527(12) 0.67198(15) 0.6728(2)
C16_3 C 0.14417(12) 0.43866(18) 0.3871(3)
C17_3 C 0.14417(12) 0.56134(18) 0.6129(3)
H8_3 H 0.1225 0.4548 0.3673
H9_3 H 0.1225 0.5452 0.6327
C19_3 C 0.15786(12) 0.45777(16) 0.4574(3)
C20_3 C 0.15786(12) 0.54223(16) 0.5426(3)
C22_3 C 0.20884(11) 0.39325(16) 0.4426(3)
C23_3 C 0.20884(11) 0.60675(16) 0.5574(3)
H11_3 H 0.2311 0.3785 0.4618
H12_3 H 0.2311 0.6215 0.5382
C25_3 C 0.19521(11) 0.37427(14) 0.3715(3)
C26_3 C 0.19521(11) 0.62573(14) 0.6285(3)
C28_3 C 0.16202(12) 0.39590(17) 0.3454(3)
C29_3 C 0.16202(12) 0.60410(17) 0.6546(3)
H14_3 H 0.1515 0.3819 0.2998
H15_3 H 0.1515 0.6181 0.7002
N2_5 N 0.13847(14) 0.50000 0.50000
C31_3 C 0.18978(13) 0.43319(17) 0.4840(2)
C32_3 C 0.18978(13) 0.56681(17) 0.5160(2)
H17_2 H 0.1989 0.4442 0.5323
H18_2 H 0.1989 0.5558 0.4677
C33_5 C 0.09844(18) 0.50000 0.50000
C35_2 C 0.07989(14) 0.54801(17) 0.4866(3)
C36_2 C 0.07989(14) 0.45199(17) 0.5134(3)
H20_2 H 0.0929 0.5816 0.4757
H21_2 H 0.0929 0.4184 0.5243
C38_2 C 0.04071(13) 0.54933(16) 0.4886(3)
C39_2 C 0.04071(13) 0.45067(16) 0.5114(3)
H23_2 H 0.0283 0.584 0.482
H24_2 H 0.0283 0.416 0.518
C40_5 C 0.02093(14) 0.50000 0.50000
O16_3 O 0.17931(11) 0.75000 0.8858(2)
O1_2 O 0.79964(7) 0.68903(9) 0.73422(16)
C1_3 C 0.78473(12) 0.67198(15) 0.6728(2)
C2_3 C 0.85583(12) 0.56134(18) 0.6129(3)
H1_3 H 0.8775 0.5452 0.6327
C3_3 C 0.84214(12) 0.54223(16) 0.5426(3)
C4_3 C 0.79116(11) 0.60675(16) 0.5574(3)
H2_3 H 0.7689 0.6215 0.5382
C5_3 C 0.80479(11) 0.62573(14) 0.6285(3)
C6_3 C 0.83798(12) 0.60410(17) 0.6546(3)
H3_3 H 0.8485 0.6181 0.7002
N1_5 N 0.86153(14) 0.50000 0.50000
C7_3 C 0.81022(13) 0.56681(17) 0.5160(2)
H4_2 H 0.8011 0.5558 0.4677
C8_5 C 0.90156(18) 0.50000 0.50000
C9_2 C 0.92011(14) 0.45199(17) 0.5134(3)
H5_2 H 0.9071 0.4184 0.5243
C10_2 C 0.95929(13) 0.45067(16) 0.5114(3)
H6_2 H 0.9717 0.416 0.518
C11_5 C 0.97907(14) 0.50000 0.50000
O3_3 O 0.82069(11) 0.75000 0.8858(2)
O4_3 O 0.79964(7) 0.31097(9) 0.26578(16)
O8_2 O 0.79964(7) 0.81097(9) 0.73422(16)
C12_3 C 0.78473(12) 0.32802(15) 0.3272(2)
C15_3 C 0.85583(12) 0.43866(18) 0.3871(3)
H7_3 H 0.8775 0.4548 0.3673
C18_3 C 0.84214(12) 0.45777(16) 0.4574(3)
C21_3 C 0.79116(11) 0.39325(16) 0.4426(3)
H10_3 H 0.7689 0.3785 0.4618
C24_3 C 0.80479(11) 0.37427(14) 0.3715(3)
C27_3 C 0.83798(12) 0.39590(17) 0.3454(3)
H13_3 H 0.8485 0.3819 0.2998
C30_3 C 0.81022(13) 0.43319(17) 0.4840(2)
H16_2 H 0.8011 0.4442 0.5323
C34_2 C 0.92011(14) 0.54801(17) 0.4866(3)
H19_2 H 0.9071 0.5816 0.4757
C37_2 C 0.95929(13) 0.54933(16) 0.4886(3)
H22_2 H 0.9717 0.584 0.482
N1_6 N 0.13847(14) 0.00000 0.50000
C8_6 C 0.09844(18) 0.00000 0.50000
C9_3 C 0.07989(14) 0.04801(17) 0.5134(3)
H5_3 H 0.0929 0.0816 0.5243
C10_3 C 0.04071(13) 0.04933(16) 0.5114(3)
H6_3 H 0.0283 0.084 0.518
C11_6 C 0.02093(14) 0.00000 0.50000
O4_4 O 0.20036(7) 0.18903(9) 0.26578(16)
C12_4 C 0.21527(12) 0.17198(15) 0.3272(2)
C15_4 C 0.14417(12) 0.06134(18) 0.3871(3)
H7_4 H 0.1225 0.0452 0.3673
C18_4 C 0.15786(12) 0.04223(16) 0.4574(3)
C21_4 C 0.20884(11) 0.10675(16) 0.4426(3)
H10_4 H 0.2311 0.1215 0.4618
C24_4 C 0.19521(11) 0.12573(14) 0.3715(3)
C27_4 C 0.16202(12) 0.10410(17) 0.3454(3)
H13_4 H 0.1515 0.1181 0.2998
C30_4 C 0.18978(13) 0.06681(17) 0.4840(2)
H16_3 H 0.1989 0.0558 0.5323
C1_4 C 0.21527(12) 0.82802(15) 0.6728(2)
C2_4 C 0.14417(12) 0.93866(18) 0.6129(3)
H1_4 H 0.1225 0.9548 0.6327
C3_4 C 0.15786(12) 0.95777(16) 0.5426(3)
C4_4 C 0.20884(11) 0.89325(16) 0.5574(3)
H2_4 H 0.2311 0.8785 0.5382
C5_4 C 0.19521(11) 0.87427(14) 0.6285(3)
C6_4 C 0.16202(12) 0.89590(17) 0.6546(3)
H3_4 H 0.1515 0.8819 0.7002
N1_7 N 0.13847(14) 1.00000 0.50000
C7_4 C 0.18978(13) 0.93319(17) 0.5160(2)
H4_3 H 0.1989 0.9442 0.4677
C8_7 C 0.09844(18) 1.00000 0.50000
C11_7 C 0.02093(14) 1.00000 0.50000
C34_3 C 0.07989(14) 0.95199(17) 0.4866(3)
H19_3 H 0.0929 0.9184 0.4757
C37_3 C 0.04071(13) 0.95067(16) 0.4886(3)
H22_3 H 0.0283 0.916 0.482
O5_4 O 0.79964(7) 0.18903(9) 0.26578(16)
C13_4 C 0.78473(12) 0.17198(15) 0.3272(2)
C16_4 C 0.85583(12) 0.06134(18) 0.3871(3)
H8_4 H 0.8775 0.0452 0.3673
C19_4 C 0.84214(12) 0.04223(16) 0.4574(3)
C22_4 C 0.79116(11) 0.10675(16) 0.4426(3)
H11_4 H 0.7689 0.1215 0.4618
C25_4 C 0.80479(11) 0.12573(14) 0.3715(3)
C28_4 C 0.83798(12) 0.10410(17) 0.3454(3)
H14_4 H 0.8485 0.1181 0.2998
N2_6 N 0.86153(14) 0.00000 0.50000
C31_4 C 0.81022(13) 0.06681(17) 0.4840(2)
H17_3 H 0.8011 0.0558 0.5323
C33_6 C 0.90156(18) 0.00000 0.50000
C36_3 C 0.92011(14) 0.04801(17) 0.5134(3)
H21_3 H 0.9071 0.0816 0.5243
C39_3 C 0.95929(13) 0.04933(16) 0.5114(3)
H24_3 H 0.9717 0.084 0.518
C40_6 C 0.97907(14) 0.00000 0.50000
C14_4 C 0.78473(12) 0.82802(15) 0.6728(2)
C17_4 C 0.85583(12) 0.93866(18) 0.6129(3)
H9_4 H 0.8775 0.9548 0.6327
C20_4 C 0.84214(12) 0.95777(16) 0.5426(3)
C23_4 C 0.79116(11) 0.89325(16) 0.5574(3)
H12_4 H 0.7689 0.8785 0.5382
C26_4 C 0.80479(11) 0.87427(14) 0.6285(3)
C29_4 C 0.83798(12) 0.89590(17) 0.6546(3)
H15_4 H 0.8485 0.8819 0.7002
N2_7 N 0.86153(14) 1.00000 0.50000
C32_4 C 0.81022(13) 0.93319(17) 0.5160(2)
H18_3 H 0.8011 0.9442 0.4677
C33_7 C 0.90156(18) 1.00000 0.50000
C35_3 C 0.92011(14) 0.95199(17) 0.4866(3)
H20_3 H 0.9071 0.9184 0.4757
C38_3 C 0.95929(13) 0.95067(16) 0.4886(3)
H23_3 H 0.9717 0.916 0.482
C40_7 C 0.97907(14) 1.00000 0.50000
O16_4 O 0.17931(11) 0.25000 0.1142(2)
O3_4 O 0.82069(11) 0.25000 0.1142(2)
N1_8 N 0.36153(14) 0.00000 1.00000
H4_4 H 0.3011 0.0558 0.9677
C8_8 C 0.40156(18) 0.00000 1.00000
C11_8 C 0.47907(14) 0.00000 1.00000
N2_8 N 0.63847(14) 0.00000 1.00000
H18_4 H 0.6989 0.0558 0.9677
C33_8 C 0.59844(18) 0.00000 1.00000
C34_4 C 0.42011(14) 0.04801(17) 0.9866(3)
C35_4 C 0.57989(14) 0.04801(17) 0.9866(3)
H19_4 H 0.4071 0.0816 0.9757
H20_4 H 0.5929 0.0816 0.9757
C37_4 C 0.45929(13) 0.04933(16) 0.9886(3)
C38_4 C 0.54071(13) 0.04933(16) 0.9886(3)
H22_4 H 0.4717 0.084 0.982
H23_4 H 0.5283 0.084 0.982
C40_8 C 0.52093(14) 0.00000 1.00000
N1_9 N 0.36153(14) 1.00000 0.00000
C8_9 C 0.40156(18) 1.00000 0.00000
C9_4 C 0.42011(14) 0.95199(17) 0.0134(3)
H5_4 H 0.4071 0.9184 0.0243
C10_4 C 0.45929(13) 0.95067(16) 0.0114(3)
H6_4 H 0.4717 0.916 0.018
C11_9 C 0.47907(14) 1.00000 0.00000
N2_9 N 0.63847(14) 1.00000 0.00000
H16_4 H 0.3011 0.9442 0.0323
H17_4 H 0.6989 0.9442 0.0323
C33_9 C 0.59844(18) 1.00000 0.00000
C36_4 C 0.57989(14) 0.95199(17) 0.0134(3)
H21_4 H 0.5929 0.9184 0.0243
C39_4 C 0.54071(13) 0.95067(16) 0.0114(3)
H24_4 H 0.5283 0.916 0.018
C40_9 C 0.52093(14) 1.00000 0.00000
loop_
_geom_bond_atom_site_label_1
_geom_bond_atom_site_label_2
_geom_bond_site_symmetry_1
_geom_bond_site_symmetry_2
O1 C1 1_555 1_555
C1 C5 1_555 1_555
C2 H1 1_555 1_555
C3 C2 1_555 1_555
C4 H2 1_555 1_555
C5 C4 1_555 1_555
C6 C2 1_555 1_555
H3 C6 1_555 1_555
N1 C3 1_555 1_555
C7 C3 1_555 1_555
C8 N1 1_555 1_555
O2 C1 1_555 1_555
O3 Zn1 1_555 1_555
Zn1 O1 1_555 1_555
O6 C14 1_555 1_555
O7 Zn2 1_555 1_555
O8 Zn1 1_555 1_555
C14 C26 1_555 1_555
C17 H9 1_555 1_555
C20 C17 1_555 1_555
C23 H12 1_555 1_555
C26 C23 1_555 1_555
C29 C17 1_555 1_555
H15 C29 1_555 1_555
C32 C20 1_555 1_555
C33 N2 1_555 1_555
C40 C11 1_555 1_555
O11 C14 1_555 1_555
O12 Zn2 1_555 1_555
O13 Zn1 1_555 1_555
O14 Zn1 1_555 1_555
O15 Zn2 1_555 1_555
O16 Zn2 1_555 1_555
Zn2 O6 1_555 1_555
Zn7 O11 1_555 1_555
Zn8 O2 1_555 1_555
C4 C7 1_555 1_555
C5 C6 1_555 1_555
C20 N2 1_555 1_555
C23 C32 1_555 1_555
C26 C29 1_555 1_555
C8_2 N1_2 1_555 1_555
O4 C12 1_555 1_555
O5 C13 1_555 1_555
C12 C24 1_555 1_555
C13 C25 1_555 1_555
C15 H7 1_555 1_555
C16 H8 1_555 1_555
C18 N1_2 1_555 1_555
C19 C16 1_555 1_555
C21 H10 1_555 1_555
C22 H11 1_555 1_555
C24 C21 1_555 1_555
C25 C22 1_555 1_555
C27 C15 1_555 1_555
C28 C16 1_555 1_555
H13 C27 1_555 1_555
H14 C28 1_555 1_555
N2_2 C19 1_555 1_555
C30 C18 1_555 1_555
C31 C19 1_555 1_555
C33_2 N2_2 1_555 1_555
C40_2 C11_2 1_555 1_555
O9 C12 1_555 1_555
O10 C13 1_555 1_555
Zn3 O4 1_555 1_555
Zn4 O5 1_555 1_555
Zn5 O10 1_555 1_555
Zn6 O9 1_555 1_555
C15 C18 1_555 1_555
C21 C30 1_555 1_555
C22 C31 1_555 1_555
C24 C27 1_555 1_555
C25 C28 1_555 1_555
O7 C1_2 1_555 1_555
C1_2 C5_2 1_555 1_555
C2_2 H1_2 1_555 1_555
C3_2 C2_2 1_555 1_555
C4_2 H2_2 1_555 1_555
C5_2 C4_2 1_555 1_555
C6_2 C2_2 1_555 1_555
H3_2 C6_2 1_555 1_555
N1_3 C3_2 1_555 1_555
C7_2 C3_2 1_555 1_555
C8_3 N1_3 1_555 1_555
C9 C8_3 1_555 1_555
H5 C9 1_555 1_555
C10 C9 1_555 1_555
H6 C10 1_555 1_555
C11_3 C10 1_555 1_555
O2_2 C1_2 1_555 1_555
O8 C14_2 1_555 1_555
C14_2 C26_2 1_555 1_555
C17_2 H9_2 1_555 1_555
C20_2 C17_2 1_555 1_555
C23_2 H12_2 1_555 1_555
C26_2 C23_2 1_555 1_555
C29_2 C17_2 1_555 1_555
H15_2 C29_2 1_555 1_555
C32_2 C20_2 1_555 1_555
C33_3 N2_3 1_555 1_555
C36 C33_3 1_555 1_555
H21 C36 1_555 1_555
C39 C36 1_555 1_555
H24 C39 1_555 1_555
C40_3 C11_3 1_555 1_555
O11_2 C14_2 1_555 1_555
Zn8 O11_2 1_555 1_555
Zn7 O2_2 1_555 1_555
C4_2 C7_2 1_555 1_555
C5_2 C6_2 1_555 1_555
C20_2 N2_3 1_555 1_555
C23_2 C32_2 1_555 1_555
C26_2 C29_2 1_555 1_555
C39 C40_3 1_555 1_555
C8_4 N1_4 1_555 1_555
O4_2 C12_2 1_555 1_555
O5_2 C13_2 1_555 1_555
C12_2 C24_2 1_555 1_555
C13_2 C25_2 1_555 1_555
C15_2 H7_2 1_555 1_555
C16_2 H8_2 1_555 1_555
C18_2 N1_4 1_555 1_555
C19_2 C16_2 1_555 1_555
C21_2 H10_2 1_555 1_555
C22_2 H11_2 1_555 1_555
C24_2 C21_2 1_555 1_555
C25_2 C22_2 1_555 1_555
C27_2 C15_2 1_555 1_555
C28_2 C16_2 1_555 1_555
H13_2 C27_2 1_555 1_555
H14_2 C28_2 1_555 1_555
N2_4 C19_2 1_555 1_555
C30_2 C18_2 1_555 1_555
C31_2 C19_2 1_555 1_555
C33_4 N2_4 1_555 1_555
C34 C8_4 1_555 1_555
C35 C33_4 1_555 1_555
H19 C34 1_555 1_555
H20 C35 1_555 1_555
C37 C11_4 1_555 1_555
C38 C35 1_555 1_555
H22 C37 1_555 1_555
H23 C38 1_555 1_555
C40_4 C11_4 1_555 1_555
O9_2 C12_2 1_555 1_555
O10_2 C13_2 1_555 1_555
Zn4 O4_2 1_555 1_555
Zn3 O5_2 1_555 1_555
Zn6 O10_2 1_555 1_555
Zn5 O9_2 1_555 1_555
C15_2 C18_2 1_555 1_555
C21_2 C30_2 1_555 1_555
C22_2 C31_2 1_555 1_555
C24_2 C27_2 1_555 1_555
C25_2 C28_2 1_555 1_555
C34 C37 1_555 1_555
C38 C40_4 1_555 1_555
O3_2 Zn3 1_555 1_555
O12_2 Zn4 1_555 1_555
O13_2 Zn3 1_555 1_555
O14_2 Zn3 1_555 1_555
O15_2 Zn4 1_555 1_555
O16_2 Zn4 1_555 1_555
O5_3 C13_3 1_555 1_555
O6_2 C14_3 1_555 1_555
O7_2 Zn6 1_555 1_555
C13_3 C25_3 1_555 1_555
C14_3 C26_3 1_555 1_555
C16_3 H8_3 1_555 1_555
C17_3 H9_3 1_555 1_555
C19_3 C16_3 1_555 1_555
C20_3 C17_3 1_555 1_555
C22_3 H11_3 1_555 1_555
C23_3 H12_3 1_555 1_555
C25_3 C22_3 1_555 1_555
C26_3 C23_3 1_555 1_555
C28_3 C16_3 1_555 1_555
C29_3 C17_3 1_555 1_555
H14_3 C28_3 1_555 1_555
H15_3 C29_3 1_555 1_555
N2_5 C19_3 1_555 1_555
C31_3 C19_3 1_555 1_555
C32_3 C20_3 1_555 1_555
H17_2 C31_3 1_555 1_555
H18_2 C32_3 1_555 1_555
C33_5 N2_5 1_555 1_555
C35_2 C33_5 1_555 1_555
C36_2 C33_5 1_555 1_555
H20_2 C35_2 1_555 1_555
H21_2 C36_2 1_555 1_555
C38_2 C35_2 1_555 1_555
C39_2 C36_2 1_555 1_555
H23_2 C38_2 1_555 1_555
H24_2 C39_2 1_555 1_555
O14 C13_3 1_555 1_555
O14_2 C14_3 1_555 1_555
O16_3 Zn6 1_555 1_555
Zn6 O6_2 1_555 1_555
Zn8 O5_3 1_555 1_555
C20_3 N2_5 1_555 1_555
C22_3 C31_3 1_555 1_555
C23_3 C32_3 1_555 1_555
C25_3 C28_3 1_555 1_555
C26_3 C29_3 1_555 1_555
C38_2 C40_5 1_555 1_555
C39_2 C40_5 1_555 1_555
O1_2 C1_3 1_555 1_555
C1_3 C5_3 1_555 1_555
C2_3 H1_3 1_555 1_555
C3_3 C2_3 1_555 1_555
C4_3 H2_3 1_555 1_555
C5_3 C4_3 1_555 1_555
C6_3 C2_3 1_555 1_555
H3_3 C6_3 1_555 1_555
N1_5 C3_3 1_555 1_555
C7_3 C3_3 1_555 1_555
H4_2 C7_3 1_555 1_555
C8_5 N1_5 1_555 1_555
C9_2 C8_5 1_555 1_555
H5_2 C9_2 1_555 1_555
C10_2 C9_2 1_555 1_555
H6_2 C10_2 1_555 1_555
C11_5 C10_2 1_555 1_555
O12_2 C1_3 1_555 1_555
O3_3 Zn5 1_555 1_555
Zn5 O1_2 1_555 1_555
O4_3 C12_3 1_555 1_555
O8_2 Zn5 1_555 1_555
C12_3 C24_3 1_555 1_555
C15_3 H7_3 1_555 1_555
C18_3 N1_5 1_555 1_555
C21_3 H10_3 1_555 1_555
C24_3 C21_3 1_555 1_555
C27_3 C15_3 1_555 1_555
H13_3 C27_3 1_555 1_555
C30_3 C18_3 1_555 1_555
H16_2 C30_3 1_555 1_555
C34_2 C8_5 1_555 1_555
H19_2 C34_2 1_555 1_555
C37_2 C11_5 1_555 1_555
H22_2 C37_2 1_555 1_555
O12 C12_3 1_555 1_555
Zn7 O4_3 1_555 1_555
C4_3 C7_3 1_555 1_555
C5_3 C6_3 1_555 1_555
C15_3 C18_3 1_555 1_555
C21_3 C30_3 1_555 1_555
C24_3 C27_3 1_555 1_555
C34_2 C37_2 1_555 1_555
C8_6 N1_6 1_555 1_555
C9_3 C8_6 1_555 1_555
H5_3 C9_3 1_555 1_555
C10_3 C9_3 1_555 1_555
H6_3 C10_3 1_555 1_555
C11_6 C10_3 1_555 1_555
O4_4 C12_4 1_555 1_555
C12_4 C24_4 1_555 1_555
C15_4 H7_4 1_555 1_555
C18_4 N1_6 1_555 1_555
C21_4 H10_4 1_555 1_555
C24_4 C21_4 1_555 1_555
C27_4 C15_4 1_555 1_555
H13_4 C27_4 1_555 1_555
C30_4 C18_4 1_555 1_555
H16_3 C30_4 1_555 1_555
O13 C12_4 1_555 1_555
Zn8 O4_4 1_555 1_555
C15_4 C18_4 1_555 1_555
C21_4 C30_4 1_555 1_555
C24_4 C27_4 1_555 1_555
O7_2 C1_4 1_555 1_555
C1_4 C5_4 1_555 1_555
C2_4 H1_4 1_555 1_555
C3_4 C2_4 1_555 1_555
C4_4 H2_4 1_555 1_555
C5_4 C4_4 1_555 1_555
C6_4 C2_4 1_555 1_555
H3_4 C6_4 1_555 1_555
N1_7 C3_4 1_555 1_555
C7_4 C3_4 1_555 1_555
H4_3 C7_4 1_555 1_555
C8_7 N1_7 1_555 1_555
O13_2 C1_4 1_555 1_555
C34_3 C8_7 1_555 1_555
H19_3 C34_3 1_555 1_555
C37_3 C11_7 1_555 1_555
H22_3 C37_3 1_555 1_555
C4_4 C7_4 1_555 1_555
C5_4 C6_4 1_555 1_555
C34_3 C37_3 1_555 1_555
O5_4 C13_4 1_555 1_555
C13_4 C25_4 1_555 1_555
C16_4 H8_4 1_555 1_555
C19_4 C16_4 1_555 1_555
C22_4 H11_4 1_555 1_555
C25_4 C22_4 1_555 1_555
C28_4 C16_4 1_555 1_555
H14_4 C28_4 1_555 1_555
N2_6 C19_4 1_555 1_555
C31_4 C19_4 1_555 1_555
H17_3 C31_4 1_555 1_555
C33_6 N2_6 1_555 1_555
C36_3 C33_6 1_555 1_555
H21_3 C36_3 1_555 1_555
C39_3 C36_3 1_555 1_555
H24_3 C39_3 1_555 1_555
O15 C13_4 1_555 1_555
Zn7 O5_4 1_555 1_555
C22_4 C31_4 1_555 1_555
C25_4 C28_4 1_555 1_555
C39_3 C40_6 1_555 1_555
O8_2 C14_4 1_555 1_555
C14_4 C26_4 1_555 1_555
C17_4 H9_4 1_555 1_555
C20_4 C17_4 1_555 1_555
C23_4 H12_4 1_555 1_555
C26_4 C23_4 1_555 1_555
C29_4 C17_4 1_555 1_555
H15_4 C29_4 1_555 1_555
C32_4 C20_4 1_555 1_555
H18_3 C32_4 1_555 1_555
C33_7 N2_7 1_555 1_555
C35_3 C33_7 1_555 1_555
H20_3 C35_3 1_555 1_555
C38_3 C35_3 1_555 1_555
H23_3 C38_3 1_555 1_555
O15_2 C14_4 1_555 1_555
C20_4 N2_7 1_555 1_555
C23_4 C32_4 1_555 1_555
C26_4 C29_4 1_555 1_555
C38_3 C40_7 1_555 1_555
O16_4 Zn8 1_555 1_555
O3_4 Zn7 1_555 1_555
C8_8 N1_8 1_555 1_555
C33_8 N2_8 1_555 1_555
C34_4 C8_8 1_555 1_555
C35_4 C33_8 1_555 1_555
H19_4 C34_4 1_555 1_555
H20_4 C35_4 1_555 1_555
C37_4 C11_8 1_555 1_555
C38_4 C35_4 1_555 1_555
H22_4 C37_4 1_555 1_555
H23_4 C38_4 1_555 1_555
C40_8 C11_8 1_555 1_555
C34_4 C37_4 1_555 1_555
C38_4 C40_8 1_555 1_555
C8_9 N1_9 1_555 1_555
C9_4 C8_9 1_555 1_555
H5_4 C9_4 1_555 1_555
C10_4 C9_4 1_555 1_555
H6_4 C10_4 1_555 1_555
C11_9 C10_4 1_555 1_555
C33_9 N2_9 1_555 1_555
C36_4 C33_9 1_555 1_555
H21_4 C36_4 1_555 1_555
C39_4 C36_4 1_555 1_555
H24_4 C39_4 1_555 1_555
C40_9 C11_9 1_555 1_555
C39_4 C40_9 1_555 1_555

#END
