
###############################################################################
#
# This file contains modified crystal structure data generated from the
# MOF subset of the Cambridge Structural Database (CSD) v543 
# hosted by the Cambridge Crystallographic Data Centre (CCDC).
#
# This work is licensed under the Creative Commons
# Attribution-NonCommercial-ShareAlike 4.0 International License.
# To view a copy of this license, visit
# http://creativecommons.org/licenses/by-nc-sa/4.0/
# or send a letter to
# Creative Commons, PO Box 1866, Mountain View, CA 94042, USA.
#
# CIF created using the CSD Python API on 29 September 2022
# The structure has been converted into the P1 space group
# The structure has a 3D framework
# The original CSD entry VAGMEX is in the orthorhombic crystal system
# The framework has been calculated to contain at least 10.0% void space
# The void calculation uses a probe of radius 1.32A, grid spacing 0.4
# H atom positions have been added when not included in the experimental data
# Generated hydrogen atom positions removed from atoms on special positions
#
###############################################################################

data_VAGMEX
_chemical_formula_moiety         '(C180 H144 N18 O40 Zn8)n'
_symmetry_cell_setting           triclinic
_symmetry_space_group_name_H-M   'P 1'
_symmetry_Int_Tables_number      1
_space_group_name_Hall           'P 1'
loop_
_symmetry_equiv_pos_site_id
_symmetry_equiv_pos_as_xyz
1 x,y,z
_cell_length_a                   34.583(7)
_cell_length_b                   22.915(5)
_cell_length_c                   18.833(4)
_cell_angle_alpha                90
_cell_angle_beta                 90
_cell_angle_gamma                90
_cell_volume                     14924.6
loop_
_atom_site_label
_atom_site_type_symbol
_atom_site_fract_x
_atom_site_fract_y
_atom_site_fract_z
O1 O 0.29630(9) 0.18575(12) 0.22269(19)
C1 C 0.28322(15) 0.1078(2) 0.0609(3)
H1 H 0.2601 0.1235 0.0445
C2 C 0.35011(16) 0.0590(2) 0.1060(4)
H2 H 0.3727 0.0422 0.1232
C3 C 0.27857(16) 0.1694(2) 0.1671(3)
C4 C 0.33557(18) 0.0412(2) 0.0411(4)
N1 N 0.3560(2) 0.00000 0.00000
C5 C 0.29795(15) 0.12483(19) 0.1235(3)
C6 C 0.33155(17) 0.1015(2) 0.1460(3)
H3 H 0.3424 0.114 0.1886
C7 C 0.30288(18) 0.0668(2) 0.0211(3)
C8 C 0.4788(2) 0.00000 0.00000
C9 C 0.3967(3) 0.00000 0.00000
O2 O 0.24598(9) 0.18740(11) 0.14798(16)
O3 O 0.33890(16) 0.25000 0.3443(3)
Zn1 Zn 0.283540(19) 0.25000 0.29797(4)
O6 O 0.70370(9) 0.18575(12) 0.22269(19)
O7 O 0.70370(9) 0.31425(12) 0.22269(19)
O8 O 0.29630(9) 0.31425(12) 0.22269(19)
C14 C 0.71678(15) 0.1078(2) 0.0609(3)
H9 H 0.7399 0.1235 0.0445
C17 C 0.64989(16) 0.0590(2) 0.1060(4)
H12 H 0.6273 0.0422 0.1232
C20 C 0.72143(16) 0.1694(2) 0.1671(3)
C23 C 0.66443(18) 0.0412(2) 0.0411(4)
N2 N 0.6440(2) 0.00000 0.00000
C26 C 0.70205(15) 0.12483(19) 0.1235(3)
C29 C 0.66845(17) 0.1015(2) 0.1460(3)
H15 H 0.6576 0.114 0.1886
C32 C 0.69712(18) 0.0668(2) 0.0211(3)
C33 C 0.5212(2) 0.00000 0.00000
C34 C 0.6033(3) 0.00000 0.00000
O11 O 0.75402(9) 0.18740(11) 0.14798(16)
O12 O 0.74598(9) 0.31260(11) 0.35202(16)
O13 O 0.25402(9) 0.18740(11) 0.35202(16)
O14 O 0.25402(9) 0.31260(11) 0.35202(16)
O15 O 0.74598(9) 0.18740(11) 0.35202(16)
O16 O 0.66110(16) 0.25000 0.3443(3)
Zn2 Zn 0.716460(19) 0.25000 0.29797(4)
Zn7 Zn 0.783540(19) 0.25000 0.20203(4)
Zn8 Zn 0.216460(19) 0.25000 0.20203(4)
N1_2 N 0.3560(2) 1.00000 1.00000
C8_2 C 0.4788(2) 1.00000 1.00000
C9_2 C 0.3967(3) 1.00000 1.00000
O4 O 0.29630(9) 0.81425(12) 0.77731(19)
O5 O 0.70370(9) 0.81425(12) 0.77731(19)
C12 C 0.28322(15) 0.8922(2) 0.9391(3)
C13 C 0.71678(15) 0.8922(2) 0.9391(3)
H7 H 0.2601 0.8765 0.9555
H8 H 0.7399 0.8765 0.9555
C15 C 0.35011(16) 0.9410(2) 0.8940(4)
C16 C 0.64989(16) 0.9410(2) 0.8940(4)
H10 H 0.3727 0.9578 0.8768
H11 H 0.6273 0.9578 0.8768
C18 C 0.27857(16) 0.8306(2) 0.8329(3)
C19 C 0.72143(16) 0.8306(2) 0.8329(3)
C21 C 0.33557(18) 0.9588(2) 0.9589(4)
C22 C 0.66443(18) 0.9588(2) 0.9589(4)
N2_2 N 0.6440(2) 1.00000 1.00000
C24 C 0.29795(15) 0.87517(19) 0.8765(3)
C25 C 0.70205(15) 0.87517(19) 0.8765(3)
C27 C 0.33155(17) 0.8985(2) 0.8540(3)
C28 C 0.66845(17) 0.8985(2) 0.8540(3)
H13 H 0.3424 0.886 0.8114
H14 H 0.6576 0.886 0.8114
C30 C 0.30288(18) 0.9332(2) 0.9789(3)
C31 C 0.69712(18) 0.9332(2) 0.9789(3)
C33_2 C 0.5212(2) 1.00000 1.00000
C34_2 C 0.6033(3) 1.00000 1.00000
O9 O 0.24598(9) 0.81260(11) 0.85202(16)
O10 O 0.75402(9) 0.81260(11) 0.85202(16)
Zn3 Zn 0.283540(19) 0.75000 0.70203(4)
Zn4 Zn 0.716460(19) 0.75000 0.70203(4)
Zn5 Zn 0.783540(19) 0.75000 0.79797(4)
Zn6 Zn 0.216460(19) 0.75000 0.79797(4)
C1_2 C 0.71678(15) 0.3922(2) 0.0609(3)
H1_2 H 0.7399 0.3765 0.0445
C2_2 C 0.64989(16) 0.4410(2) 0.1060(4)
H2_2 H 0.6273 0.4578 0.1232
C3_2 C 0.72143(16) 0.3306(2) 0.1671(3)
C4_2 C 0.66443(18) 0.4588(2) 0.0411(4)
N1_3 N 0.6440(2) 0.50000 0.00000
C5_2 C 0.70205(15) 0.37517(19) 0.1235(3)
C6_2 C 0.66845(17) 0.3985(2) 0.1460(3)
H3_2 H 0.6576 0.386 0.1886
C7_2 C 0.69712(18) 0.4332(2) 0.0211(3)
C8_3 C 0.5212(2) 0.50000 0.00000
C9_3 C 0.6033(3) 0.50000 0.00000
O2_2 O 0.75402(9) 0.31260(11) 0.14798(16)
C14_2 C 0.28322(15) 0.3922(2) 0.0609(3)
H9_2 H 0.2601 0.3765 0.0445
C17_2 C 0.35011(16) 0.4410(2) 0.1060(4)
H12_2 H 0.3727 0.4578 0.1232
C20_2 C 0.27857(16) 0.3306(2) 0.1671(3)
C23_2 C 0.33557(18) 0.4588(2) 0.0411(4)
N2_3 N 0.3560(2) 0.50000 0.00000
C26_2 C 0.29795(15) 0.37517(19) 0.1235(3)
C29_2 C 0.33155(17) 0.3985(2) 0.1460(3)
H15_2 H 0.3424 0.386 0.1886
C32_2 C 0.30288(18) 0.4332(2) 0.0211(3)
H16 H 0.7075 0.5565 0.0227
H17 H 0.2925 0.5565 0.0227
C33_3 C 0.4788(2) 0.50000 0.00000
C34_3 C 0.3967(3) 0.50000 0.00000
C35 C 0.5409(2) 0.5487(2) 0.0118(3)
C36 C 0.4591(2) 0.5487(2) 0.0118(3)
H19 H 0.5276 0.5836 0.0183
H20 H 0.4724 0.5836 0.0183
C38 C 0.5821(2) 0.5487(2) 0.0146(4)
C39 C 0.4179(2) 0.5487(2) 0.0146(4)
H22 H 0.5949 0.5829 0.0268
H23 H 0.4051 0.5829 0.0268
O11_2 O 0.24598(9) 0.31260(11) 0.14798(16)
N1_4 N 0.6440(2) 0.50000 1.00000
H4 H 0.7075 0.4435 0.9773
C8_4 C 0.5212(2) 0.50000 1.00000
C9_4 C 0.6033(3) 0.50000 1.00000
C10 C 0.5409(2) 0.4513(2) 0.9882(3)
H5 H 0.5276 0.4164 0.9817
C11 C 0.5821(2) 0.4513(2) 0.9854(4)
H6 H 0.5949 0.4171 0.9732
O4_2 O 0.70370(9) 0.68575(12) 0.77731(19)
O5_2 O 0.29630(9) 0.68575(12) 0.77731(19)
C12_2 C 0.71678(15) 0.6078(2) 0.9391(3)
C13_2 C 0.28322(15) 0.6078(2) 0.9391(3)
H7_2 H 0.7399 0.6235 0.9555
H8_2 H 0.2601 0.6235 0.9555
C15_2 C 0.64989(16) 0.5590(2) 0.8940(4)
C16_2 C 0.35011(16) 0.5590(2) 0.8940(4)
H10_2 H 0.6273 0.5422 0.8768
H11_2 H 0.3727 0.5422 0.8768
C18_2 C 0.72143(16) 0.6694(2) 0.8329(3)
C19_2 C 0.27857(16) 0.6694(2) 0.8329(3)
C21_2 C 0.66443(18) 0.5412(2) 0.9589(4)
C22_2 C 0.33557(18) 0.5412(2) 0.9589(4)
N2_4 N 0.3560(2) 0.50000 1.00000
C24_2 C 0.70205(15) 0.62483(19) 0.8765(3)
C25_2 C 0.29795(15) 0.62483(19) 0.8765(3)
C27_2 C 0.66845(17) 0.6015(2) 0.8540(3)
C28_2 C 0.33155(17) 0.6015(2) 0.8540(3)
H13_2 H 0.6576 0.614 0.8114
H14_2 H 0.3424 0.614 0.8114
C30_2 C 0.69712(18) 0.5668(2) 0.9789(3)
C31_2 C 0.30288(18) 0.5668(2) 0.9789(3)
H18 H 0.2925 0.4435 0.9773
C33_4 C 0.4788(2) 0.50000 1.00000
C34_4 C 0.3967(3) 0.50000 1.00000
C37 C 0.4591(2) 0.4513(2) 0.9882(3)
H21 H 0.4724 0.4164 0.9817
C40 C 0.4179(2) 0.4513(2) 0.9854(4)
H24 H 0.4051 0.4171 0.9732
O9_2 O 0.75402(9) 0.68740(11) 0.85202(16)
O10_2 O 0.24598(9) 0.68740(11) 0.85202(16)
O3_2 O 0.33890(16) 0.75000 0.6557(3)
O12_2 O 0.74598(9) 0.68740(11) 0.64798(16)
O13_2 O 0.25402(9) 0.81260(11) 0.64798(16)
O14_2 O 0.25402(9) 0.68740(11) 0.64798(16)
O15_2 O 0.74598(9) 0.81260(11) 0.64798(16)
O16_2 O 0.66110(16) 0.75000 0.6557(3)
O5_3 O 0.20370(9) 0.31425(12) 0.27731(19)
O6_2 O 0.20370(9) 0.68575(12) 0.72269(19)
O7_2 O 0.20370(9) 0.81425(12) 0.72269(19)
C13_3 C 0.21678(15) 0.3922(2) 0.4391(3)
C14_3 C 0.21678(15) 0.6078(2) 0.5609(3)
H8_3 H 0.2399 0.3765 0.4555
H9_3 H 0.2399 0.6235 0.5445
C16_3 C 0.14989(16) 0.4410(2) 0.3940(4)
C17_3 C 0.14989(16) 0.5590(2) 0.6060(4)
H11_3 H 0.1273 0.4578 0.3768
H12_3 H 0.1273 0.5422 0.6232
C19_3 C 0.22143(16) 0.3306(2) 0.3329(3)
C20_3 C 0.22143(16) 0.6694(2) 0.6671(3)
C22_3 C 0.16443(18) 0.4588(2) 0.4589(4)
C23_3 C 0.16443(18) 0.5412(2) 0.5411(4)
N2_5 N 0.1440(2) 0.50000 0.50000
C25_3 C 0.20205(15) 0.37517(19) 0.3765(3)
C26_3 C 0.20205(15) 0.62483(19) 0.6235(3)
C28_3 C 0.16845(17) 0.3985(2) 0.3540(3)
C29_3 C 0.16845(17) 0.6015(2) 0.6460(3)
H14_3 H 0.1576 0.386 0.3114
H15_3 H 0.1576 0.614 0.6886
C31_3 C 0.19712(18) 0.4332(2) 0.4789(3)
C32_3 C 0.19712(18) 0.5668(2) 0.5211(3)
H17_2 H 0.2075 0.4435 0.5227
H18_2 H 0.2075 0.5565 0.4773
C33_5 C 0.0212(2) 0.50000 0.50000
C34_5 C 0.1033(3) 0.50000 0.50000
C36_2 C 0.0409(2) 0.4513(2) 0.5118(3)
C37_2 C 0.0409(2) 0.5487(2) 0.4882(3)
H20_2 H 0.0276 0.4164 0.5183
H21_2 H 0.0276 0.5836 0.4817
C39_2 C 0.0821(2) 0.4513(2) 0.5146(4)
C40_2 C 0.0821(2) 0.5487(2) 0.4854(4)
H23_2 H 0.0949 0.4171 0.5268
H24_2 H 0.0949 0.5829 0.4732
O16_3 O 0.16110(16) 0.75000 0.8443(3)
O1_2 O 0.79630(9) 0.68575(12) 0.72269(19)
C1_3 C 0.78322(15) 0.6078(2) 0.5609(3)
H1_3 H 0.7601 0.6235 0.5445
C2_3 C 0.85011(16) 0.5590(2) 0.6060(4)
H2_3 H 0.8727 0.5422 0.6232
C3_3 C 0.77857(16) 0.6694(2) 0.6671(3)
C4_3 C 0.83557(18) 0.5412(2) 0.5411(4)
N1_5 N 0.8560(2) 0.50000 0.50000
C5_3 C 0.79795(15) 0.62483(19) 0.6235(3)
C6_3 C 0.83155(17) 0.6015(2) 0.6460(3)
H3_3 H 0.8424 0.614 0.6886
C7_3 C 0.80288(18) 0.5668(2) 0.5211(3)
H4_2 H 0.7925 0.5565 0.4773
C8_5 C 0.9788(2) 0.50000 0.50000
C9_5 C 0.8967(3) 0.50000 0.50000
C10_2 C 0.9591(2) 0.5487(2) 0.4882(3)
H5_2 H 0.9724 0.5836 0.4817
C11_2 C 0.9179(2) 0.5487(2) 0.4854(4)
H6_2 H 0.9051 0.5829 0.4732
O3_3 O 0.83890(16) 0.75000 0.8443(3)
O4_3 O 0.79630(9) 0.31425(12) 0.27731(19)
O8_2 O 0.79630(9) 0.81425(12) 0.72269(19)
C12_3 C 0.78322(15) 0.3922(2) 0.4391(3)
H7_3 H 0.7601 0.3765 0.4555
C15_3 C 0.85011(16) 0.4410(2) 0.3940(4)
H10_3 H 0.8727 0.4578 0.3768
C18_3 C 0.77857(16) 0.3306(2) 0.3329(3)
C21_3 C 0.83557(18) 0.4588(2) 0.4589(4)
C24_3 C 0.79795(15) 0.37517(19) 0.3765(3)
C27_3 C 0.83155(17) 0.3985(2) 0.3540(3)
H13_3 H 0.8424 0.386 0.3114
C30_3 C 0.80288(18) 0.4332(2) 0.4789(3)
H16_2 H 0.7925 0.4435 0.5227
C35_2 C 0.9591(2) 0.4513(2) 0.5118(3)
H19_2 H 0.9724 0.4164 0.5183
C38_2 C 0.9179(2) 0.4513(2) 0.5146(4)
H22_2 H 0.9051 0.4171 0.5268
N1_6 N 0.1440(2) 0.00000 0.50000
C8_6 C 0.0212(2) 0.00000 0.50000
C9_6 C 0.1033(3) 0.00000 0.50000
O4_4 O 0.20370(9) 0.18575(12) 0.27731(19)
C12_4 C 0.21678(15) 0.1078(2) 0.4391(3)
H7_4 H 0.2399 0.1235 0.4555
C15_4 C 0.14989(16) 0.0590(2) 0.3940(4)
H10_4 H 0.1273 0.0422 0.3768
C18_4 C 0.22143(16) 0.1694(2) 0.3329(3)
C21_4 C 0.16443(18) 0.0412(2) 0.4589(4)
C24_4 C 0.20205(15) 0.12483(19) 0.3765(3)
C27_4 C 0.16845(17) 0.1015(2) 0.3540(3)
H13_4 H 0.1576 0.114 0.3114
C30_4 C 0.19712(18) 0.0668(2) 0.4789(3)
H16_3 H 0.2075 0.0565 0.5227
C35_3 C 0.0409(2) 0.0487(2) 0.5118(3)
H19_3 H 0.0276 0.0836 0.5183
C38_3 C 0.0821(2) 0.0487(2) 0.5146(4)
H22_3 H 0.0949 0.0829 0.5268
C1_4 C 0.21678(15) 0.8922(2) 0.5609(3)
H1_4 H 0.2399 0.8765 0.5445
C2_4 C 0.14989(16) 0.9410(2) 0.6060(4)
H2_4 H 0.1273 0.9578 0.6232
C3_4 C 0.22143(16) 0.8306(2) 0.6671(3)
C4_4 C 0.16443(18) 0.9588(2) 0.5411(4)
N1_7 N 0.1440(2) 1.00000 0.50000
C5_4 C 0.20205(15) 0.87517(19) 0.6235(3)
C6_4 C 0.16845(17) 0.8985(2) 0.6460(3)
H3_4 H 0.1576 0.886 0.6886
C7_4 C 0.19712(18) 0.9332(2) 0.5211(3)
H4_3 H 0.2075 0.9435 0.4773
C8_7 C 0.0212(2) 1.00000 0.50000
C9_7 C 0.1033(3) 1.00000 0.50000
C10_3 C 0.0409(2) 0.9513(2) 0.4882(3)
H5_3 H 0.0276 0.9164 0.4817
C11_3 C 0.0821(2) 0.9513(2) 0.4854(4)
H6_3 H 0.0949 0.9171 0.4732
O5_4 O 0.79630(9) 0.18575(12) 0.27731(19)
C13_4 C 0.78322(15) 0.1078(2) 0.4391(3)
H8_4 H 0.7601 0.1235 0.4555
C16_4 C 0.85011(16) 0.0590(2) 0.3940(4)
H11_4 H 0.8727 0.0422 0.3768
C19_4 C 0.77857(16) 0.1694(2) 0.3329(3)
C22_4 C 0.83557(18) 0.0412(2) 0.4589(4)
N2_6 N 0.8560(2) 0.00000 0.50000
C25_4 C 0.79795(15) 0.12483(19) 0.3765(3)
C28_4 C 0.83155(17) 0.1015(2) 0.3540(3)
H14_4 H 0.8424 0.114 0.3114
C31_4 C 0.80288(18) 0.0668(2) 0.4789(3)
H17_3 H 0.7925 0.0565 0.5227
C33_6 C 0.9788(2) 0.00000 0.50000
C34_6 C 0.8967(3) 0.00000 0.50000
C36_3 C 0.9591(2) 0.0487(2) 0.5118(3)
H20_3 H 0.9724 0.0836 0.5183
C39_3 C 0.9179(2) 0.0487(2) 0.5146(4)
H23_3 H 0.9051 0.0829 0.5268
C14_4 C 0.78322(15) 0.8922(2) 0.5609(3)
H9_4 H 0.7601 0.8765 0.5445
C17_4 C 0.85011(16) 0.9410(2) 0.6060(4)
H12_4 H 0.8727 0.9578 0.6232
C20_4 C 0.77857(16) 0.8306(2) 0.6671(3)
C23_4 C 0.83557(18) 0.9588(2) 0.5411(4)
N2_7 N 0.8560(2) 1.00000 0.50000
C26_4 C 0.79795(15) 0.87517(19) 0.6235(3)
C29_4 C 0.83155(17) 0.8985(2) 0.6460(3)
H15_4 H 0.8424 0.886 0.6886
C32_4 C 0.80288(18) 0.9332(2) 0.5211(3)
H18_3 H 0.7925 0.9435 0.4773
C33_7 C 0.9788(2) 1.00000 0.50000
C34_7 C 0.8967(3) 1.00000 0.50000
C37_3 C 0.9591(2) 0.9513(2) 0.4882(3)
H21_3 H 0.9724 0.9164 0.4817
C40_3 C 0.9179(2) 0.9513(2) 0.4854(4)
H24_3 H 0.9051 0.9171 0.4732
O16_4 O 0.16110(16) 0.25000 0.1557(3)
O3_4 O 0.83890(16) 0.25000 0.1557(3)
N1_8 N 0.3560(2) 0.00000 1.00000
H4_4 H 0.2925 0.0565 0.9773
C8_8 C 0.4788(2) 0.00000 1.00000
C9_8 C 0.3967(3) 0.00000 1.00000
C10_4 C 0.4591(2) 0.0487(2) 0.9882(3)
H5_4 H 0.4724 0.0836 0.9817
C11_4 C 0.4179(2) 0.0487(2) 0.9854(4)
H6_4 H 0.4051 0.0829 0.9732
N2_8 N 0.6440(2) 0.00000 1.00000
H18_4 H 0.7075 0.0565 0.9773
C33_8 C 0.5212(2) 0.00000 1.00000
C34_8 C 0.6033(3) 0.00000 1.00000
C37_4 C 0.5409(2) 0.0487(2) 0.9882(3)
H21_4 H 0.5276 0.0836 0.9817
C40_4 C 0.5821(2) 0.0487(2) 0.9854(4)
H24_4 H 0.5949 0.0829 0.9732
N1_9 N 0.3560(2) 1.00000 0.00000
C8_9 C 0.4788(2) 1.00000 0.00000
C9_9 C 0.3967(3) 1.00000 0.00000
N2_9 N 0.6440(2) 1.00000 0.00000
H16_4 H 0.2925 0.9435 0.0227
H17_4 H 0.7075 0.9435 0.0227
C33_9 C 0.5212(2) 1.00000 0.00000
C34_9 C 0.6033(3) 1.00000 0.00000
C35_4 C 0.4591(2) 0.9513(2) 0.0118(3)
C36_4 C 0.5409(2) 0.9513(2) 0.0118(3)
H19_4 H 0.4724 0.9164 0.0183
H20_4 H 0.5276 0.9164 0.0183
C38_4 C 0.4179(2) 0.9513(2) 0.0146(4)
C39_4 C 0.5821(2) 0.9513(2) 0.0146(4)
H22_4 H 0.4051 0.9171 0.0268
H23_4 H 0.5949 0.9171 0.0268
loop_
_geom_bond_atom_site_label_1
_geom_bond_atom_site_label_2
_geom_bond_site_symmetry_1
_geom_bond_site_symmetry_2
O1 C3 1_555 1_555
C1 H1 1_555 1_555
C2 H2 1_555 1_555
C3 C5 1_555 1_555
C4 C2 1_555 1_555
N1 C4 1_555 1_555
C5 C1 1_555 1_555
C6 C2 1_555 1_555
H3 C6 1_555 1_555
C7 C1 1_555 1_555
C9 N1 1_555 1_555
O2 C3 1_555 1_555
O3 Zn1 1_555 1_555
Zn1 O1 1_555 1_555
O6 C20 1_555 1_555
O7 Zn2 1_555 1_555
O8 Zn1 1_555 1_555
C14 H9 1_555 1_555
C17 H12 1_555 1_555
C20 C26 1_555 1_555
C23 C17 1_555 1_555
C26 C14 1_555 1_555
C29 C17 1_555 1_555
H15 C29 1_555 1_555
C32 C14 1_555 1_555
C33 C8 1_555 1_555
C34 N2 1_555 1_555
O11 C20 1_555 1_555
O12 Zn2 1_555 1_555
O13 Zn1 1_555 1_555
O14 Zn1 1_555 1_555
O15 Zn2 1_555 1_555
O16 Zn2 1_555 1_555
Zn2 O6 1_555 1_555
Zn7 O11 1_555 1_555
Zn8 O2 1_555 1_555
C4 C7 1_555 1_555
C5 C6 1_555 1_555
C23 N2 1_555 1_555
C23 C32 1_555 1_555
C26 C29 1_555 1_555
C9_2 N1_2 1_555 1_555
O4 C18 1_555 1_555
O5 C19 1_555 1_555
C12 H7 1_555 1_555
C13 H8 1_555 1_555
C15 H10 1_555 1_555
C16 H11 1_555 1_555
C18 C24 1_555 1_555
C19 C25 1_555 1_555
C21 N1_2 1_555 1_555
C22 C16 1_555 1_555
N2_2 C22 1_555 1_555
C24 C12 1_555 1_555
C25 C13 1_555 1_555
C27 C15 1_555 1_555
C28 C16 1_555 1_555
H13 C27 1_555 1_555
H14 C28 1_555 1_555
C30 C12 1_555 1_555
C31 C13 1_555 1_555
C33_2 C8_2 1_555 1_555
C34_2 N2_2 1_555 1_555
O9 C18 1_555 1_555
O10 C19 1_555 1_555
Zn3 O4 1_555 1_555
Zn4 O5 1_555 1_555
Zn5 O10 1_555 1_555
Zn6 O9 1_555 1_555
C15 C21 1_555 1_555
C21 C30 1_555 1_555
C22 C31 1_555 1_555
C24 C27 1_555 1_555
C25 C28 1_555 1_555
O7 C3_2 1_555 1_555
C1_2 H1_2 1_555 1_555
C2_2 H2_2 1_555 1_555
C3_2 C5_2 1_555 1_555
C4_2 C2_2 1_555 1_555
N1_3 C4_2 1_555 1_555
C5_2 C1_2 1_555 1_555
C6_2 C2_2 1_555 1_555
H3_2 C6_2 1_555 1_555
C7_2 C1_2 1_555 1_555
C9_3 N1_3 1_555 1_555
O2_2 C3_2 1_555 1_555
O8 C20_2 1_555 1_555
C14_2 H9_2 1_555 1_555
C17_2 H12_2 1_555 1_555
C20_2 C26_2 1_555 1_555
C23_2 C17_2 1_555 1_555
C26_2 C14_2 1_555 1_555
C29_2 C17_2 1_555 1_555
H15_2 C29_2 1_555 1_555
C32_2 C14_2 1_555 1_555
C33_3 C8_3 1_555 1_555
C34_3 N2_3 1_555 1_555
C35 C8_3 1_555 1_555
C36 C33_3 1_555 1_555
H19 C35 1_555 1_555
H20 C36 1_555 1_555
C38 C9_3 1_555 1_555
C39 C34_3 1_555 1_555
H22 C38 1_555 1_555
H23 C39 1_555 1_555
O11_2 C20_2 1_555 1_555
Zn8 O11_2 1_555 1_555
Zn7 O2_2 1_555 1_555
C4_2 C7_2 1_555 1_555
C5_2 C6_2 1_555 1_555
C23_2 N2_3 1_555 1_555
C23_2 C32_2 1_555 1_555
C26_2 C29_2 1_555 1_555
C35 C38 1_555 1_555
C36 C39 1_555 1_555
C8_4 C10 1_555 1_555
C9_4 N1_4 1_555 1_555
C10 H5 1_555 1_555
C11 C9_4 1_555 1_555
H6 C11 1_555 1_555
O4_2 C18_2 1_555 1_555
O5_2 C19_2 1_555 1_555
C12_2 H7_2 1_555 1_555
C13_2 H8_2 1_555 1_555
C15_2 H10_2 1_555 1_555
C16_2 H11_2 1_555 1_555
C18_2 C24_2 1_555 1_555
C19_2 C25_2 1_555 1_555
C21_2 N1_4 1_555 1_555
C22_2 C16_2 1_555 1_555
N2_4 C22_2 1_555 1_555
C24_2 C12_2 1_555 1_555
C25_2 C13_2 1_555 1_555
C27_2 C15_2 1_555 1_555
C28_2 C16_2 1_555 1_555
H13_2 C27_2 1_555 1_555
H14_2 C28_2 1_555 1_555
C30_2 C12_2 1_555 1_555
C31_2 C13_2 1_555 1_555
C33_4 C8_4 1_555 1_555
C34_4 N2_4 1_555 1_555
C37 C33_4 1_555 1_555
H21 C37 1_555 1_555
C40 C34_4 1_555 1_555
H24 C40 1_555 1_555
O9_2 C18_2 1_555 1_555
O10_2 C19_2 1_555 1_555
Zn4 O4_2 1_555 1_555
Zn3 O5_2 1_555 1_555
Zn6 O10_2 1_555 1_555
Zn5 O9_2 1_555 1_555
C10 C11 1_555 1_555
C15_2 C21_2 1_555 1_555
C21_2 C30_2 1_555 1_555
C22_2 C31_2 1_555 1_555
C24_2 C27_2 1_555 1_555
C25_2 C28_2 1_555 1_555
C37 C40 1_555 1_555
O3_2 Zn3 1_555 1_555
O12_2 Zn4 1_555 1_555
O13_2 Zn3 1_555 1_555
O14_2 Zn3 1_555 1_555
O15_2 Zn4 1_555 1_555
O16_2 Zn4 1_555 1_555
O5_3 C19_3 1_555 1_555
O6_2 C20_3 1_555 1_555
O7_2 Zn6 1_555 1_555
C13_3 H8_3 1_555 1_555
C14_3 H9_3 1_555 1_555
C16_3 H11_3 1_555 1_555
C17_3 H12_3 1_555 1_555
C19_3 C25_3 1_555 1_555
C20_3 C26_3 1_555 1_555
C22_3 C16_3 1_555 1_555
C23_3 C17_3 1_555 1_555
N2_5 C22_3 1_555 1_555
C25_3 C13_3 1_555 1_555
C26_3 C14_3 1_555 1_555
C28_3 C16_3 1_555 1_555
C29_3 C17_3 1_555 1_555
H14_3 C28_3 1_555 1_555
H15_3 C29_3 1_555 1_555
C31_3 C13_3 1_555 1_555
C32_3 C14_3 1_555 1_555
H17_2 C31_3 1_555 1_555
H18_2 C32_3 1_555 1_555
C34_5 N2_5 1_555 1_555
C36_2 C33_5 1_555 1_555
C37_2 C33_5 1_555 1_555
H20_2 C36_2 1_555 1_555
H21_2 C37_2 1_555 1_555
C39_2 C34_5 1_555 1_555
C40_2 C34_5 1_555 1_555
H23_2 C39_2 1_555 1_555
H24_2 C40_2 1_555 1_555
O14 C19_3 1_555 1_555
O14_2 C20_3 1_555 1_555
O16_3 Zn6 1_555 1_555
Zn6 O6_2 1_555 1_555
Zn8 O5_3 1_555 1_555
C22_3 C31_3 1_555 1_555
C23_3 N2_5 1_555 1_555
C23_3 C32_3 1_555 1_555
C25_3 C28_3 1_555 1_555
C26_3 C29_3 1_555 1_555
C36_2 C39_2 1_555 1_555
C37_2 C40_2 1_555 1_555
O1_2 C3_3 1_555 1_555
C1_3 H1_3 1_555 1_555
C2_3 H2_3 1_555 1_555
C3_3 C5_3 1_555 1_555
C4_3 C2_3 1_555 1_555
N1_5 C4_3 1_555 1_555
C5_3 C1_3 1_555 1_555
C6_3 C2_3 1_555 1_555
H3_3 C6_3 1_555 1_555
C7_3 C1_3 1_555 1_555
H4_2 C7_3 1_555 1_555
C8_5 C10_2 1_555 1_555
C9_5 N1_5 1_555 1_555
C10_2 H5_2 1_555 1_555
C11_2 C9_5 1_555 1_555
H6_2 C11_2 1_555 1_555
O12_2 C3_3 1_555 1_555
O3_3 Zn5 1_555 1_555
Zn5 O1_2 1_555 1_555
O4_3 C18_3 1_555 1_555
O8_2 Zn5 1_555 1_555
C12_3 H7_3 1_555 1_555
C15_3 H10_3 1_555 1_555
C18_3 C24_3 1_555 1_555
C21_3 N1_5 1_555 1_555
C24_3 C12_3 1_555 1_555
C27_3 C15_3 1_555 1_555
H13_3 C27_3 1_555 1_555
C30_3 C12_3 1_555 1_555
H16_2 C30_3 1_555 1_555
C35_2 C8_5 1_555 1_555
H19_2 C35_2 1_555 1_555
C38_2 C9_5 1_555 1_555
H22_2 C38_2 1_555 1_555
O12 C18_3 1_555 1_555
Zn7 O4_3 1_555 1_555
C4_3 C7_3 1_555 1_555
C5_3 C6_3 1_555 1_555
C10_2 C11_2 1_555 1_555
C15_3 C21_3 1_555 1_555
C21_3 C30_3 1_555 1_555
C24_3 C27_3 1_555 1_555
C35_2 C38_2 1_555 1_555
C9_6 N1_6 1_555 1_555
O4_4 C18_4 1_555 1_555
C12_4 H7_4 1_555 1_555
C15_4 H10_4 1_555 1_555
C18_4 C24_4 1_555 1_555
C21_4 N1_6 1_555 1_555
C24_4 C12_4 1_555 1_555
C27_4 C15_4 1_555 1_555
H13_4 C27_4 1_555 1_555
C30_4 C12_4 1_555 1_555
H16_3 C30_4 1_555 1_555
C35_3 C8_6 1_555 1_555
H19_3 C35_3 1_555 1_555
C38_3 C9_6 1_555 1_555
H22_3 C38_3 1_555 1_555
O13 C18_4 1_555 1_555
Zn8 O4_4 1_555 1_555
C15_4 C21_4 1_555 1_555
C21_4 C30_4 1_555 1_555
C24_4 C27_4 1_555 1_555
C35_3 C38_3 1_555 1_555
O7_2 C3_4 1_555 1_555
C1_4 H1_4 1_555 1_555
C2_4 H2_4 1_555 1_555
C3_4 C5_4 1_555 1_555
C4_4 C2_4 1_555 1_555
N1_7 C4_4 1_555 1_555
C5_4 C1_4 1_555 1_555
C6_4 C2_4 1_555 1_555
H3_4 C6_4 1_555 1_555
C7_4 C1_4 1_555 1_555
H4_3 C7_4 1_555 1_555
C8_7 C10_3 1_555 1_555
C9_7 N1_7 1_555 1_555
C10_3 H5_3 1_555 1_555
C11_3 C9_7 1_555 1_555
H6_3 C11_3 1_555 1_555
O13_2 C3_4 1_555 1_555
C4_4 C7_4 1_555 1_555
C5_4 C6_4 1_555 1_555
C10_3 C11_3 1_555 1_555
O5_4 C19_4 1_555 1_555
C13_4 H8_4 1_555 1_555
C16_4 H11_4 1_555 1_555
C19_4 C25_4 1_555 1_555
C22_4 C16_4 1_555 1_555
N2_6 C22_4 1_555 1_555
C25_4 C13_4 1_555 1_555
C28_4 C16_4 1_555 1_555
H14_4 C28_4 1_555 1_555
C31_4 C13_4 1_555 1_555
H17_3 C31_4 1_555 1_555
C34_6 N2_6 1_555 1_555
C36_3 C33_6 1_555 1_555
H20_3 C36_3 1_555 1_555
C39_3 C34_6 1_555 1_555
H23_3 C39_3 1_555 1_555
O15 C19_4 1_555 1_555
Zn7 O5_4 1_555 1_555
C22_4 C31_4 1_555 1_555
C25_4 C28_4 1_555 1_555
C36_3 C39_3 1_555 1_555
O8_2 C20_4 1_555 1_555
C14_4 H9_4 1_555 1_555
C17_4 H12_4 1_555 1_555
C20_4 C26_4 1_555 1_555
C23_4 C17_4 1_555 1_555
C26_4 C14_4 1_555 1_555
C29_4 C17_4 1_555 1_555
H15_4 C29_4 1_555 1_555
C32_4 C14_4 1_555 1_555
H18_3 C32_4 1_555 1_555
C34_7 N2_7 1_555 1_555
C37_3 C33_7 1_555 1_555
H21_3 C37_3 1_555 1_555
C40_3 C34_7 1_555 1_555
H24_3 C40_3 1_555 1_555
O15_2 C20_4 1_555 1_555
C23_4 N2_7 1_555 1_555
C23_4 C32_4 1_555 1_555
C26_4 C29_4 1_555 1_555
C37_3 C40_3 1_555 1_555
O16_4 Zn8 1_555 1_555
O3_4 Zn7 1_555 1_555
C8_8 C10_4 1_555 1_555
C9_8 N1_8 1_555 1_555
C10_4 H5_4 1_555 1_555
C11_4 C9_8 1_555 1_555
H6_4 C11_4 1_555 1_555
C33_8 C8_8 1_555 1_555
C34_8 N2_8 1_555 1_555
C37_4 C33_8 1_555 1_555
H21_4 C37_4 1_555 1_555
C40_4 C34_8 1_555 1_555
H24_4 C40_4 1_555 1_555
C10_4 C11_4 1_555 1_555
C37_4 C40_4 1_555 1_555
C9_9 N1_9 1_555 1_555
C33_9 C8_9 1_555 1_555
C34_9 N2_9 1_555 1_555
C35_4 C8_9 1_555 1_555
C36_4 C33_9 1_555 1_555
H19_4 C35_4 1_555 1_555
H20_4 C36_4 1_555 1_555
C38_4 C9_9 1_555 1_555
C39_4 C34_9 1_555 1_555
H22_4 C38_4 1_555 1_555
H23_4 C39_4 1_555 1_555
C35_4 C38_4 1_555 1_555
C36_4 C39_4 1_555 1_555

#END
