
###############################################################################
#
# This file contains modified crystal structure data generated from the
# MOF subset of the Cambridge Structural Database (CSD) v543 
# hosted by the Cambridge Crystallographic Data Centre (CCDC).
#
# This work is licensed under the Creative Commons
# Attribution-NonCommercial-ShareAlike 4.0 International License.
# To view a copy of this license, visit
# http://creativecommons.org/licenses/by-nc-sa/4.0/
# or send a letter to
# Creative Commons, PO Box 1866, Mountain View, CA 94042, USA.
#
# CIF created using the CSD Python API on 29 September 2022
# The structure has been converted into the P1 space group
# The structure has a 3D framework
# The original CSD entry VAGMIB is in the orthorhombic crystal system
# The framework has been calculated to contain at least 10.0% void space
# The void calculation uses a probe of radius 1.32A, grid spacing 0.4
#
###############################################################################

data_VAGMIB
_chemical_formula_moiety         '(C228 H128 N42 O32 Zn8)n'
_symmetry_cell_setting           triclinic
_symmetry_space_group_name_H-M   'P 1'
_symmetry_Int_Tables_number      1
_space_group_name_Hall           'P 1'
loop_
_symmetry_equiv_pos_site_id
_symmetry_equiv_pos_as_xyz
1 x,y,z
_cell_length_a                   34.158(7)
_cell_length_b                   22.850(5)
_cell_length_c                   19.049(4)
_cell_angle_alpha                90
_cell_angle_beta                 90
_cell_angle_gamma                90
_cell_volume                     14867.9
loop_
_atom_site_label
_atom_site_type_symbol
_atom_site_fract_x
_atom_site_fract_y
_atom_site_fract_z
O1 O 0.29436(4) 0.18763(7) 0.22061(8)
C1 C 0.28151(7) 0.10691(11) 0.06058(14)
H1 H 0.2578 0.1226 0.0454
C2 C 0.27668(8) 0.17032(10) 0.16710(14)
C3 C 0.34995(8) 0.05879(12) 0.10433(16)
H2 H 0.3736 0.0431 0.1196
C4 C 0.29675(7) 0.12503(10) 0.12399(14)
N1 N 0.35445(9) 0.00000 0.00000
C5 C 0.33412(8) 0.04100(12) 0.04180(16)
C6 C 0.33056(8) 0.10042(12) 0.14507(14)
H3 H 0.3413 0.1115 0.1879
C7 C 0.30007(8) 0.06664(13) 0.01927(15)
N2 N 0.34024(8) 0.25000 0.33429(15)
C8 C 0.39692(12) 0.00000 0.00000
C9 C 0.47817(10) 0.00000 0.00000
C10 C 0.42030(14) 0.25000 0.3598(3)
C11 C 0.35985(9) 0.20145(13) 0.34020(17)
H5 H 0.3463 0.1665 0.3346
C14 C 0.46344(17) 0.25000 0.3722(4)
N3 N 0.47945(11) 0.20047(18) 0.3781(2)
C15 C 0.40045(10) 0.19837(15) 0.35452(18)
H8 H 0.4131 0.1626 0.3601
O2 O 0.24333(5) 0.18852(6) 0.14709(8)
Zn1 Zn 0.284209(9) 0.25000 0.296040(17)
O4 O 0.70564(4) 0.18763(7) 0.22061(8)
O6 O 0.29436(4) 0.31237(7) 0.22061(8)
O7 O 0.70564(4) 0.31237(7) 0.22061(8)
C17 C 0.71849(7) 0.10691(11) 0.06058(14)
H10 H 0.7422 0.1226 0.0454
C20 C 0.72332(8) 0.17032(10) 0.16710(14)
C23 C 0.65005(8) 0.05879(12) 0.10433(16)
H13 H 0.6264 0.0431 0.1196
C26 C 0.70325(7) 0.12503(10) 0.12399(14)
N4 N 0.64555(9) 0.00000 0.00000
C29 C 0.66588(8) 0.04100(12) 0.04180(16)
C32 C 0.66944(8) 0.10042(12) 0.14507(14)
H16 H 0.6587 0.1115 0.1879
C35 C 0.69993(8) 0.06664(13) 0.01927(15)
N5 N 0.65976(8) 0.25000 0.33429(15)
C37 C 0.60308(12) 0.00000 0.00000
C38 C 0.52183(10) 0.00000 0.00000
C39 C 0.57970(14) 0.25000 0.3598(3)
C40 C 0.64015(9) 0.20145(13) 0.34020(17)
C41 C 0.64015(9) 0.29855(13) 0.34020(17)
C42 C 0.35985(9) 0.29855(13) 0.34020(17)
H21 H 0.6537 0.3335 0.3346
H22 H 0.6537 0.1665 0.3346
H23 H 0.3463 0.3335 0.3346
C49 C 0.53656(17) 0.25000 0.3722(4)
N6 N 0.52055(11) 0.20047(18) 0.3781(2)
N7 N 0.52055(11) 0.29953(18) 0.3781(2)
N8 N 0.47945(11) 0.29953(18) 0.3781(2)
C50 C 0.59955(10) 0.19837(15) 0.35452(18)
C51 C 0.59955(10) 0.30163(15) 0.35452(18)
C52 C 0.40045(10) 0.30163(15) 0.35452(18)
H30 H 0.5869 0.3374 0.3601
H31 H 0.5869 0.1626 0.3601
H32 H 0.4131 0.3374 0.3601
O9 O 0.75667(5) 0.18852(6) 0.14709(8)
O11 O 0.25667(5) 0.18852(6) 0.35291(8)
O12 O 0.25667(5) 0.31148(6) 0.35291(8)
O13 O 0.74333(5) 0.31148(6) 0.35291(8)
O14 O 0.74333(5) 0.18852(6) 0.35291(8)
Zn3 Zn 0.215791(9) 0.25000 0.203960(17)
Zn5 Zn 0.715791(9) 0.25000 0.296040(17)
Zn6 Zn 0.784209(9) 0.25000 0.203960(17)
N1_2 N 0.35445(9) 1.00000 1.00000
C8_2 C 0.39692(12) 1.00000 1.00000
C9_2 C 0.47817(10) 1.00000 1.00000
O3 O 0.70564(4) 0.81237(7) 0.77939(8)
O5 O 0.29436(4) 0.81237(7) 0.77939(8)
C16 C 0.71849(7) 0.89309(11) 0.93942(14)
C18 C 0.28151(7) 0.89309(11) 0.93942(14)
H9 H 0.7422 0.8774 0.9546
H11 H 0.2578 0.8774 0.9546
C19 C 0.72332(8) 0.82968(10) 0.83290(14)
C21 C 0.27668(8) 0.82968(10) 0.83290(14)
C22 C 0.65005(8) 0.94121(12) 0.89567(16)
C24 C 0.34995(8) 0.94121(12) 0.89567(16)
H12 H 0.6264 0.9569 0.8804
H14 H 0.3736 0.9569 0.8804
C25 C 0.70325(7) 0.87497(10) 0.87601(14)
C27 C 0.29675(7) 0.87497(10) 0.87601(14)
N4_2 N 0.64555(9) 1.00000 1.00000
C28 C 0.66588(8) 0.95900(12) 0.95820(16)
C30 C 0.33412(8) 0.95900(12) 0.95820(16)
C31 C 0.66944(8) 0.89958(12) 0.85493(14)
C33 C 0.33056(8) 0.89958(12) 0.85493(14)
H15 H 0.6587 0.8885 0.8121
H17 H 0.3413 0.8885 0.8121
C34 C 0.69993(8) 0.93336(13) 0.98073(15)
C36 C 0.30007(8) 0.93336(13) 0.98073(15)
C37_2 C 0.60308(12) 1.00000 1.00000
C38_2 C 0.52183(10) 1.00000 1.00000
O8 O 0.75667(5) 0.81148(6) 0.85291(8)
O10 O 0.24333(5) 0.81148(6) 0.85291(8)
Zn2 Zn 0.715791(9) 0.75000 0.703960(17)
Zn4 Zn 0.784209(9) 0.75000 0.796040(17)
Zn7 Zn 0.284209(9) 0.75000 0.703960(17)
Zn8 Zn 0.215791(9) 0.75000 0.796040(17)
C1_2 C 0.71849(7) 0.39309(11) 0.06058(14)
H1_2 H 0.7422 0.3774 0.0454
C2_2 C 0.72332(8) 0.32968(10) 0.16710(14)
C3_2 C 0.65005(8) 0.44121(12) 0.10433(16)
H2_2 H 0.6264 0.4569 0.1196
C4_2 C 0.70325(7) 0.37497(10) 0.12399(14)
N1_3 N 0.64555(9) 0.50000 0.00000
C5_2 C 0.66588(8) 0.45900(12) 0.04180(16)
C6_2 C 0.66944(8) 0.39958(12) 0.14507(14)
H3_2 H 0.6587 0.3885 0.1879
C7_2 C 0.69993(8) 0.43336(13) 0.01927(15)
C8_3 C 0.60308(12) 0.50000 0.00000
C9_3 C 0.52183(10) 0.50000 0.00000
C12 C 0.58363(10) 0.55031(15) 0.0138(2)
H6 H 0.5971 0.5845 0.0245
C13 C 0.54245(9) 0.54957(14) 0.0115(2)
H7 H 0.5289 0.5845 0.018
O2_2 O 0.75667(5) 0.31148(6) 0.14709(8)
C17_2 C 0.28151(7) 0.39309(11) 0.06058(14)
H10_2 H 0.2578 0.3774 0.0454
C20_2 C 0.27668(8) 0.32968(10) 0.16710(14)
C23_2 C 0.34995(8) 0.44121(12) 0.10433(16)
H13_2 H 0.3736 0.4569 0.1196
C26_2 C 0.29675(7) 0.37497(10) 0.12399(14)
N4_3 N 0.35445(9) 0.50000 0.00000
C29_2 C 0.33412(8) 0.45900(12) 0.04180(16)
C32_2 C 0.33056(8) 0.39958(12) 0.14507(14)
H16_2 H 0.3413 0.3885 0.1879
C35_2 C 0.30007(8) 0.43336(13) 0.01927(15)
H18 H 0.2896 0.5566 0.0242
H20 H 0.7104 0.5566 0.0242
C37_3 C 0.39692(12) 0.50000 0.00000
C38_3 C 0.47817(10) 0.50000 0.00000
C44 C 0.41637(10) 0.55031(15) 0.0138(2)
H24 H 0.4029 0.5845 0.0245
C47 C 0.45755(9) 0.54957(14) 0.0115(2)
H27 H 0.4711 0.5845 0.018
O9_2 O 0.24333(5) 0.31148(6) 0.14709(8)
N1_4 N 0.64555(9) 0.50000 1.00000
H4 H 0.7104 0.4434 0.9758
C8_4 C 0.60308(12) 0.50000 1.00000
C9_4 C 0.52183(10) 0.50000 1.00000
O3_2 O 0.29436(4) 0.68763(7) 0.77939(8)
O5_2 O 0.70564(4) 0.68763(7) 0.77939(8)
C16_2 C 0.28151(7) 0.60691(11) 0.93942(14)
C18_2 C 0.71849(7) 0.60691(11) 0.93942(14)
H9_2 H 0.2578 0.6226 0.9546
H11_2 H 0.7422 0.6226 0.9546
C19_2 C 0.27668(8) 0.67032(10) 0.83290(14)
C21_2 C 0.72332(8) 0.67032(10) 0.83290(14)
C22_2 C 0.34995(8) 0.55879(12) 0.89567(16)
C24_2 C 0.65005(8) 0.55879(12) 0.89567(16)
H12_2 H 0.3736 0.5431 0.8804
H14_2 H 0.6264 0.5431 0.8804
C25_2 C 0.29675(7) 0.62503(10) 0.87601(14)
C27_2 C 0.70325(7) 0.62503(10) 0.87601(14)
N4_4 N 0.35445(9) 0.50000 1.00000
C28_2 C 0.33412(8) 0.54100(12) 0.95820(16)
C30_2 C 0.66588(8) 0.54100(12) 0.95820(16)
C31_2 C 0.33056(8) 0.60042(12) 0.85493(14)
C33_2 C 0.66944(8) 0.60042(12) 0.85493(14)
H15_2 H 0.3413 0.6115 0.8121
H17_2 H 0.6587 0.6115 0.8121
C34_2 C 0.30007(8) 0.56664(13) 0.98073(15)
C36_2 C 0.69993(8) 0.56664(13) 0.98073(15)
H19 H 0.2896 0.4434 0.9758
C37_4 C 0.39692(12) 0.50000 1.00000
C38_4 C 0.47817(10) 0.50000 1.00000
C43 C 0.41637(10) 0.44969(15) 0.9862(2)
C45 C 0.58363(10) 0.44969(15) 0.9862(2)
H25 H 0.4029 0.4155 0.9755
H26 H 0.5971 0.4155 0.9755
C46 C 0.45755(9) 0.45043(14) 0.9885(2)
C48 C 0.54245(9) 0.45043(14) 0.9885(2)
H28 H 0.4711 0.4155 0.982
H29 H 0.5289 0.4155 0.982
O8_2 O 0.24333(5) 0.68852(6) 0.85291(8)
O10_2 O 0.75667(5) 0.68852(6) 0.85291(8)
N2_2 N 0.34024(8) 0.75000 0.66571(15)
C10_2 C 0.42030(14) 0.75000 0.6402(3)
C11_2 C 0.35985(9) 0.79855(13) 0.65980(17)
H5_2 H 0.3463 0.8335 0.6654
C14_2 C 0.46344(17) 0.75000 0.6278(4)
N3_2 N 0.47945(11) 0.79953(18) 0.6219(2)
C15_2 C 0.40045(10) 0.80163(15) 0.64548(18)
H8_2 H 0.4131 0.8374 0.6399
N5_2 N 0.65976(8) 0.75000 0.66571(15)
C39_2 C 0.57970(14) 0.75000 0.6402(3)
C40_2 C 0.64015(9) 0.79855(13) 0.65980(17)
C41_2 C 0.64015(9) 0.70145(13) 0.65980(17)
C42_2 C 0.35985(9) 0.70145(13) 0.65980(17)
H21_2 H 0.6537 0.6665 0.6654
H22_2 H 0.6537 0.8335 0.6654
H23_2 H 0.3463 0.6665 0.6654
C49_2 C 0.53656(17) 0.75000 0.6278(4)
N6_2 N 0.52055(11) 0.79953(18) 0.6219(2)
N7_2 N 0.52055(11) 0.70047(18) 0.6219(2)
N8_2 N 0.47945(11) 0.70047(18) 0.6219(2)
C50_2 C 0.59955(10) 0.80163(15) 0.64548(18)
C51_2 C 0.59955(10) 0.69837(15) 0.64548(18)
C52_2 C 0.40045(10) 0.69837(15) 0.64548(18)
H30_2 H 0.5869 0.6626 0.6399
H31_2 H 0.5869 0.8374 0.6399
H32_2 H 0.4131 0.6626 0.6399
O11_2 O 0.25667(5) 0.81148(6) 0.64709(8)
O12_2 O 0.25667(5) 0.68852(6) 0.64709(8)
O13_2 O 0.74333(5) 0.68852(6) 0.64709(8)
O14_2 O 0.74333(5) 0.81148(6) 0.64709(8)
O3_3 O 0.20564(4) 0.31237(7) 0.27939(8)
O4_2 O 0.20564(4) 0.68763(7) 0.72061(8)
O7_2 O 0.20564(4) 0.81237(7) 0.72061(8)
C16_3 C 0.21849(7) 0.39309(11) 0.43942(14)
C17_3 C 0.21849(7) 0.60691(11) 0.56058(14)
H9_3 H 0.2422 0.3774 0.4546
H10_3 H 0.2422 0.6226 0.5454
C19_3 C 0.22332(8) 0.32968(10) 0.33290(14)
C20_3 C 0.22332(8) 0.67032(10) 0.66710(14)
C22_3 C 0.15005(8) 0.44121(12) 0.39567(16)
C23_3 C 0.15005(8) 0.55879(12) 0.60433(16)
H12_3 H 0.1264 0.4569 0.3804
H13_3 H 0.1264 0.5431 0.6196
C25_3 C 0.20325(7) 0.37497(10) 0.37601(14)
C26_3 C 0.20325(7) 0.62503(10) 0.62399(14)
N4_5 N 0.14555(9) 0.50000 0.50000
C28_3 C 0.16588(8) 0.45900(12) 0.45820(16)
C29_3 C 0.16588(8) 0.54100(12) 0.54180(16)
C31_3 C 0.16944(8) 0.39958(12) 0.35493(14)
C32_3 C 0.16944(8) 0.60042(12) 0.64507(14)
H15_3 H 0.1587 0.3885 0.3121
H16_3 H 0.1587 0.6115 0.6879
C34_3 C 0.19993(8) 0.43336(13) 0.48073(15)
C35_3 C 0.19993(8) 0.56664(13) 0.51927(15)
H18_2 H 0.2104 0.4434 0.5242
H19_2 H 0.2104 0.5566 0.4758
N5_3 N 0.15976(8) 0.75000 0.83429(15)
C37_5 C 0.10308(12) 0.50000 0.50000
C38_5 C 0.02183(10) 0.50000 0.50000
C39_3 C 0.07970(14) 0.75000 0.8598(3)
C40_3 C 0.14015(9) 0.70145(13) 0.84020(17)
C41_3 C 0.14015(9) 0.79855(13) 0.84020(17)
H21_3 H 0.1537 0.8335 0.8346
H22_3 H 0.1537 0.6665 0.8346
C43_2 C 0.08363(10) 0.55031(15) 0.4862(2)
C44_2 C 0.08363(10) 0.44969(15) 0.5138(2)
H24_2 H 0.0971 0.4155 0.5245
H25_2 H 0.0971 0.5845 0.4755
C46_2 C 0.04245(9) 0.54957(14) 0.4885(2)
C47_2 C 0.04245(9) 0.45043(14) 0.5115(2)
H27_2 H 0.0289 0.4155 0.518
H28_2 H 0.0289 0.5845 0.482
C49_3 C 0.03656(17) 0.75000 0.8722(4)
N6_3 N 0.02055(11) 0.70047(18) 0.8781(2)
N7_3 N 0.02055(11) 0.79953(18) 0.8781(2)
C50_3 C 0.09955(10) 0.69837(15) 0.85452(18)
C51_3 C 0.09955(10) 0.80163(15) 0.85452(18)
H30_3 H 0.0869 0.8374 0.8601
H31_3 H 0.0869 0.6626 0.8601
O1_2 O 0.79436(4) 0.68763(7) 0.72061(8)
C1_3 C 0.78151(7) 0.60691(11) 0.56058(14)
H1_3 H 0.7578 0.6226 0.5454
C2_3 C 0.77668(8) 0.67032(10) 0.66710(14)
C3_3 C 0.84995(8) 0.55879(12) 0.60433(16)
H2_3 H 0.8736 0.5431 0.6196
C4_3 C 0.79675(7) 0.62503(10) 0.62399(14)
N1_5 N 0.85445(9) 0.50000 0.50000
C5_3 C 0.83412(8) 0.54100(12) 0.54180(16)
C6_3 C 0.83056(8) 0.60042(12) 0.64507(14)
H3_3 H 0.8413 0.6115 0.6879
C7_3 C 0.80007(8) 0.56664(13) 0.51927(15)
H4_2 H 0.7896 0.5566 0.4758
N2_3 N 0.84024(8) 0.75000 0.83429(15)
C8_5 C 0.89692(12) 0.50000 0.50000
C9_5 C 0.97817(10) 0.50000 0.50000
C10_3 C 0.92030(14) 0.75000 0.8598(3)
C11_3 C 0.85985(9) 0.70145(13) 0.84020(17)
H5_3 H 0.8463 0.6665 0.8346
C12_2 C 0.91637(10) 0.44969(15) 0.5138(2)
H6_2 H 0.9029 0.4155 0.5245
C13_2 C 0.95755(9) 0.45043(14) 0.5115(2)
H7_2 H 0.9711 0.4155 0.518
C14_3 C 0.96344(17) 0.75000 0.8722(4)
N3_3 N 0.97945(11) 0.70047(18) 0.8781(2)
C15_3 C 0.90045(10) 0.69837(15) 0.85452(18)
H8_3 H 0.9131 0.6626 0.8601
O5_3 O 0.79436(4) 0.31237(7) 0.27939(8)
O6_2 O 0.79436(4) 0.81237(7) 0.72061(8)
C18_3 C 0.78151(7) 0.39309(11) 0.43942(14)
H11_3 H 0.7578 0.3774 0.4546
C21_3 C 0.77668(8) 0.32968(10) 0.33290(14)
C24_3 C 0.84995(8) 0.44121(12) 0.39567(16)
H14_3 H 0.8736 0.4569 0.3804
C27_3 C 0.79675(7) 0.37497(10) 0.37601(14)
C30_3 C 0.83412(8) 0.45900(12) 0.45820(16)
C33_3 C 0.83056(8) 0.39958(12) 0.35493(14)
H17_3 H 0.8413 0.3885 0.3121
C36_3 C 0.80007(8) 0.43336(13) 0.48073(15)
H20_2 H 0.7896 0.4434 0.5242
C42_3 C 0.85985(9) 0.79855(13) 0.84020(17)
H23_3 H 0.8463 0.8335 0.8346
C45_2 C 0.91637(10) 0.55031(15) 0.4862(2)
H26_2 H 0.9029 0.5845 0.4755
C48_2 C 0.95755(9) 0.54957(14) 0.4885(2)
H29_2 H 0.9711 0.5845 0.482
N8_3 N 0.97945(11) 0.79953(18) 0.8781(2)
C52_3 C 0.90045(10) 0.80163(15) 0.85452(18)
H32_3 H 0.9131 0.8374 0.8601
N1_6 N 0.14555(9) -0.00000 0.50000
C8_6 C 0.10308(12) -0.00000 0.50000
C9_6 C 0.02183(10) -0.00000 0.50000
C12_3 C 0.08363(10) 0.05031(15) 0.5138(2)
H6_3 H 0.0971 0.0845 0.5245
C13_3 C 0.04245(9) 0.04957(14) 0.5115(2)
H7_3 H 0.0289 0.0845 0.518
O5_4 O 0.20564(4) 0.18763(7) 0.27939(8)
C18_4 C 0.21849(7) 0.10691(11) 0.43942(14)
H11_4 H 0.2422 0.1226 0.4546
C21_4 C 0.22332(8) 0.17032(10) 0.33290(14)
C24_4 C 0.15005(8) 0.05879(12) 0.39567(16)
H14_4 H 0.1264 0.0431 0.3804
C27_4 C 0.20325(7) 0.12503(10) 0.37601(14)
C30_4 C 0.16588(8) 0.04100(12) 0.45820(16)
C33_4 C 0.16944(8) 0.10042(12) 0.35493(14)
H17_4 H 0.1587 0.1115 0.3121
C36_4 C 0.19993(8) 0.06664(13) 0.48073(15)
H20_3 H 0.2104 0.0566 0.5242
C1_4 C 0.21849(7) 0.89309(11) 0.56058(14)
H1_4 H 0.2422 0.8774 0.5454
C2_4 C 0.22332(8) 0.82968(10) 0.66710(14)
C3_4 C 0.15005(8) 0.94121(12) 0.60433(16)
H2_4 H 0.1264 0.9569 0.6196
C4_4 C 0.20325(7) 0.87497(10) 0.62399(14)
N1_7 N 0.14555(9) 1.00000 0.50000
C5_4 C 0.16588(8) 0.95900(12) 0.54180(16)
C6_4 C 0.16944(8) 0.89958(12) 0.64507(14)
H3_4 H 0.1587 0.8885 0.6879
C7_4 C 0.19993(8) 0.93336(13) 0.51927(15)
H4_3 H 0.2104 0.9434 0.4758
C8_7 C 0.10308(12) 1.00000 0.50000
C9_7 C 0.02183(10) 1.00000 0.50000
C45_3 C 0.08363(10) 0.94969(15) 0.4862(2)
H26_3 H 0.0971 0.9155 0.4755
C48_3 C 0.04245(9) 0.95043(14) 0.4885(2)
H29_3 H 0.0289 0.9155 0.482
O3_4 O 0.79436(4) 0.18763(7) 0.27939(8)
C16_4 C 0.78151(7) 0.10691(11) 0.43942(14)
H9_4 H 0.7578 0.1226 0.4546
C19_4 C 0.77668(8) 0.17032(10) 0.33290(14)
C22_4 C 0.84995(8) 0.05879(12) 0.39567(16)
H12_4 H 0.8736 0.0431 0.3804
C25_4 C 0.79675(7) 0.12503(10) 0.37601(14)
N4_6 N 0.85445(9) -0.00000 0.50000
C28_4 C 0.83412(8) 0.04100(12) 0.45820(16)
C31_4 C 0.83056(8) 0.10042(12) 0.35493(14)
H15_4 H 0.8413 0.1115 0.3121
C34_4 C 0.80007(8) 0.06664(13) 0.48073(15)
H18_3 H 0.7896 0.0566 0.5242
C37_6 C 0.89692(12) -0.00000 0.50000
C38_6 C 0.97817(10) -0.00000 0.50000
C44_3 C 0.91637(10) 0.05031(15) 0.5138(2)
H24_3 H 0.9029 0.0845 0.5245
C47_3 C 0.95755(9) 0.04957(14) 0.5115(2)
H27_3 H 0.9711 0.0845 0.518
C17_4 C 0.78151(7) 0.89309(11) 0.56058(14)
H10_4 H 0.7578 0.8774 0.5454
C20_4 C 0.77668(8) 0.82968(10) 0.66710(14)
C23_4 C 0.84995(8) 0.94121(12) 0.60433(16)
H13_4 H 0.8736 0.9569 0.6196
C26_4 C 0.79675(7) 0.87497(10) 0.62399(14)
N4_7 N 0.85445(9) 1.00000 0.50000
C29_4 C 0.83412(8) 0.95900(12) 0.54180(16)
C32_4 C 0.83056(8) 0.89958(12) 0.64507(14)
H16_4 H 0.8413 0.8885 0.6879
C35_4 C 0.80007(8) 0.93336(13) 0.51927(15)
H19_3 H 0.7896 0.9434 0.4758
C37_7 C 0.89692(12) 1.00000 0.50000
C38_7 C 0.97817(10) 1.00000 0.50000
C43_3 C 0.91637(10) 0.94969(15) 0.4862(2)
H25_3 H 0.9029 0.9155 0.4755
C46_3 C 0.95755(9) 0.95043(14) 0.4885(2)
H28_3 H 0.9711 0.9155 0.482
N5_4 N 0.15976(8) 0.25000 0.16571(15)
C39_4 C 0.07970(14) 0.25000 0.1402(3)
C40_4 C 0.14015(9) 0.29855(13) 0.15980(17)
C41_4 C 0.14015(9) 0.20145(13) 0.15980(17)
H21_4 H 0.1537 0.1665 0.1654
H22_4 H 0.1537 0.3335 0.1654
C49_4 C 0.03656(17) 0.25000 0.1278(4)
N6_4 N 0.02055(11) 0.29953(18) 0.1219(2)
N7_4 N 0.02055(11) 0.20047(18) 0.1219(2)
C50_4 C 0.09955(10) 0.30163(15) 0.14548(18)
C51_4 C 0.09955(10) 0.19837(15) 0.14548(18)
H30_4 H 0.0869 0.1626 0.1399
H31_4 H 0.0869 0.3374 0.1399
N2_4 N 0.84024(8) 0.25000 0.16571(15)
C10_4 C 0.92030(14) 0.25000 0.1402(3)
C11_4 C 0.85985(9) 0.29855(13) 0.15980(17)
H5_4 H 0.8463 0.3335 0.1654
C14_4 C 0.96344(17) 0.25000 0.1278(4)
N3_4 N 0.97945(11) 0.29953(18) 0.1219(2)
C15_4 C 0.90045(10) 0.30163(15) 0.14548(18)
H8_4 H 0.9131 0.3374 0.1399
C42_4 C 0.85985(9) 0.20145(13) 0.15980(17)
H23_4 H 0.8463 0.1665 0.1654
N8_4 N 0.97945(11) 0.20047(18) 0.1219(2)
C52_4 C 0.90045(10) 0.19837(15) 0.14548(18)
H32_4 H 0.9131 0.1626 0.1399
N1_8 N 0.35445(9) -0.00000 1.00000
H4_4 H 0.2896 0.0566 0.9758
C8_8 C 0.39692(12) -0.00000 1.00000
C9_8 C 0.47817(10) -0.00000 1.00000
N4_8 N 0.64555(9) -0.00000 1.00000
H19_4 H 0.7104 0.0566 0.9758
C37_8 C 0.60308(12) -0.00000 1.00000
C38_8 C 0.52183(10) -0.00000 1.00000
C43_4 C 0.58363(10) 0.05031(15) 0.9862(2)
C45_4 C 0.41637(10) 0.05031(15) 0.9862(2)
H25_4 H 0.5971 0.0845 0.9755
H26_4 H 0.4029 0.0845 0.9755
C46_4 C 0.54245(9) 0.04957(14) 0.9885(2)
C48_4 C 0.45755(9) 0.04957(14) 0.9885(2)
H28_4 H 0.5289 0.0845 0.982
H29_4 H 0.4711 0.0845 0.982
N1_9 N 0.35445(9) 1.00000 0.00000
C8_9 C 0.39692(12) 1.00000 0.00000
C9_9 C 0.47817(10) 1.00000 0.00000
C12_4 C 0.41637(10) 0.94969(15) 0.0138(2)
H6_4 H 0.4029 0.9155 0.0245
C13_4 C 0.45755(9) 0.95043(14) 0.0115(2)
H7_4 H 0.4711 0.9155 0.018
N4_9 N 0.64555(9) 1.00000 0.00000
H18_4 H 0.7104 0.9434 0.0242
H20_4 H 0.2896 0.9434 0.0242
C37_9 C 0.60308(12) 1.00000 0.00000
C38_9 C 0.52183(10) 1.00000 0.00000
C44_4 C 0.58363(10) 0.94969(15) 0.0138(2)
H24_4 H 0.5971 0.9155 0.0245
C47_4 C 0.54245(9) 0.95043(14) 0.0115(2)
H27_4 H 0.5289 0.9155 0.018
loop_
_geom_bond_atom_site_label_1
_geom_bond_atom_site_label_2
_geom_bond_site_symmetry_1
_geom_bond_site_symmetry_2
O1 C2 1_555 1_555
C1 H1 1_555 1_555
C2 C4 1_555 1_555
C3 H2 1_555 1_555
C4 C1 1_555 1_555
N1 C5 1_555 1_555
C5 C3 1_555 1_555
C6 C3 1_555 1_555
H3 C6 1_555 1_555
C7 C1 1_555 1_555
N2 C11 1_555 1_555
C8 N1 1_555 1_555
C10 C14 1_555 1_555
C11 H5 1_555 1_555
C14 N3 1_555 1_555
N3 N6 1_555 1_555
C15 C10 1_555 1_555
H8 C15 1_555 1_555
O2 C2 1_555 1_555
Zn1 O1 1_555 1_555
O4 C20 1_555 1_555
O6 Zn1 1_555 1_555
O7 Zn5 1_555 1_555
C17 H10 1_555 1_555
C20 C26 1_555 1_555
C23 H13 1_555 1_555
C26 C17 1_555 1_555
C29 C23 1_555 1_555
C32 C23 1_555 1_555
H16 C32 1_555 1_555
C35 C17 1_555 1_555
N5 C40 1_555 1_555
C37 N4 1_555 1_555
C38 C9 1_555 1_555
C39 C49 1_555 1_555
C40 H22 1_555 1_555
C41 N5 1_555 1_555
C42 N2 1_555 1_555
H21 C41 1_555 1_555
H23 C42 1_555 1_555
C49 N6 1_555 1_555
N7 C49 1_555 1_555
N8 C14 1_555 1_555
C50 C39 1_555 1_555
C51 C39 1_555 1_555
C52 C10 1_555 1_555
H30 C51 1_555 1_555
H31 C50 1_555 1_555
H32 C52 1_555 1_555
O9 C20 1_555 1_555
O11 Zn1 1_555 1_555
O12 Zn1 1_555 1_555
O13 Zn5 1_555 1_555
O14 Zn5 1_555 1_555
Zn3 O2 1_555 1_555
Zn5 O4 1_555 1_555
Zn6 O9 1_555 1_555
C4 C6 1_555 1_555
C5 C7 1_555 1_555
N2 Zn1 1_555 1_555
C11 C15 1_555 1_555
C26 C32 1_555 1_555
N4 C29 1_555 1_555
C29 C35 1_555 1_555
N5 Zn5 1_555 1_555
C40 C50 1_555 1_555
C41 C51 1_555 1_555
C42 C52 1_555 1_555
N7 N8 1_555 1_555
C8_2 N1_2 1_555 1_555
O3 C19 1_555 1_555
O5 C21 1_555 1_555
C16 H9 1_555 1_555
C18 H11 1_555 1_555
C19 C25 1_555 1_555
C21 C27 1_555 1_555
C22 H12 1_555 1_555
C24 H14 1_555 1_555
C25 C16 1_555 1_555
C27 C18 1_555 1_555
N4_2 C28 1_555 1_555
C28 C22 1_555 1_555
C30 N1_2 1_555 1_555
C31 C22 1_555 1_555
C33 C24 1_555 1_555
H15 C31 1_555 1_555
H17 C33 1_555 1_555
C34 C16 1_555 1_555
C36 C18 1_555 1_555
C37_2 N4_2 1_555 1_555
C38_2 C9_2 1_555 1_555
O8 C19 1_555 1_555
O10 C21 1_555 1_555
Zn2 O3 1_555 1_555
Zn4 O8 1_555 1_555
Zn7 O5 1_555 1_555
Zn8 O10 1_555 1_555
C24 C30 1_555 1_555
C25 C31 1_555 1_555
C27 C33 1_555 1_555
C28 C34 1_555 1_555
C30 C36 1_555 1_555
O7 C2_2 1_555 1_555
C1_2 H1_2 1_555 1_555
C2_2 C4_2 1_555 1_555
C3_2 H2_2 1_555 1_555
C4_2 C1_2 1_555 1_555
N1_3 C5_2 1_555 1_555
C5_2 C3_2 1_555 1_555
C6_2 C3_2 1_555 1_555
H3_2 C6_2 1_555 1_555
C7_2 C1_2 1_555 1_555
C8_3 N1_3 1_555 1_555
C9_3 C13 1_555 1_555
C12 C8_3 1_555 1_555
H6 C12 1_555 1_555
C13 C12 1_555 1_555
H7 C13 1_555 1_555
O2_2 C2_2 1_555 1_555
O6 C20_2 1_555 1_555
C17_2 H10_2 1_555 1_555
C20_2 C26_2 1_555 1_555
C23_2 H13_2 1_555 1_555
C26_2 C17_2 1_555 1_555
C29_2 C23_2 1_555 1_555
C32_2 C23_2 1_555 1_555
H16_2 C32_2 1_555 1_555
C35_2 C17_2 1_555 1_555
C37_3 N4_3 1_555 1_555
C38_3 C9_3 1_555 1_555
C44 C37_3 1_555 1_555
H24 C44 1_555 1_555
C47 C38_3 1_555 1_555
H27 C47 1_555 1_555
O9_2 C20_2 1_555 1_555
Zn6 O2_2 1_555 1_555
Zn3 O9_2 1_555 1_555
C4_2 C6_2 1_555 1_555
C5_2 C7_2 1_555 1_555
C26_2 C32_2 1_555 1_555
N4_3 C29_2 1_555 1_555
C29_2 C35_2 1_555 1_555
C44 C47 1_555 1_555
C8_4 N1_4 1_555 1_555
O3_2 C19_2 1_555 1_555
O5_2 C21_2 1_555 1_555
C16_2 H9_2 1_555 1_555
C18_2 H11_2 1_555 1_555
C19_2 C25_2 1_555 1_555
C21_2 C27_2 1_555 1_555
C22_2 H12_2 1_555 1_555
C24_2 H14_2 1_555 1_555
C25_2 C16_2 1_555 1_555
C27_2 C18_2 1_555 1_555
N4_4 C28_2 1_555 1_555
C28_2 C22_2 1_555 1_555
C30_2 N1_4 1_555 1_555
C31_2 C22_2 1_555 1_555
C33_2 C24_2 1_555 1_555
H15_2 C31_2 1_555 1_555
H17_2 C33_2 1_555 1_555
C34_2 C16_2 1_555 1_555
C36_2 C18_2 1_555 1_555
C37_4 N4_4 1_555 1_555
C38_4 C9_4 1_555 1_555
C43 C37_4 1_555 1_555
C45 C8_4 1_555 1_555
H25 C43 1_555 1_555
H26 C45 1_555 1_555
C46 C38_4 1_555 1_555
C48 C9_4 1_555 1_555
H28 C46 1_555 1_555
H29 C48 1_555 1_555
O8_2 C19_2 1_555 1_555
O10_2 C21_2 1_555 1_555
Zn7 O3_2 1_555 1_555
Zn8 O8_2 1_555 1_555
Zn2 O5_2 1_555 1_555
Zn4 O10_2 1_555 1_555
C24_2 C30_2 1_555 1_555
C25_2 C31_2 1_555 1_555
C27_2 C33_2 1_555 1_555
C28_2 C34_2 1_555 1_555
C30_2 C36_2 1_555 1_555
C43 C46 1_555 1_555
C45 C48 1_555 1_555
N2_2 C11_2 1_555 1_555
C10_2 C14_2 1_555 1_555
C11_2 H5_2 1_555 1_555
C14_2 N3_2 1_555 1_555
N3_2 N6_2 1_555 1_555
C15_2 C10_2 1_555 1_555
H8_2 C15_2 1_555 1_555
N5_2 C40_2 1_555 1_555
C39_2 C49_2 1_555 1_555
C40_2 H22_2 1_555 1_555
C41_2 N5_2 1_555 1_555
C42_2 N2_2 1_555 1_555
H21_2 C41_2 1_555 1_555
H23_2 C42_2 1_555 1_555
C49_2 N6_2 1_555 1_555
N7_2 C49_2 1_555 1_555
N8_2 C14_2 1_555 1_555
C50_2 C39_2 1_555 1_555
C51_2 C39_2 1_555 1_555
C52_2 C10_2 1_555 1_555
H30_2 C51_2 1_555 1_555
H31_2 C50_2 1_555 1_555
H32_2 C52_2 1_555 1_555
O11_2 Zn7 1_555 1_555
O12_2 Zn7 1_555 1_555
O13_2 Zn2 1_555 1_555
O14_2 Zn2 1_555 1_555
N2_2 Zn7 1_555 1_555
C11_2 C15_2 1_555 1_555
N5_2 Zn2 1_555 1_555
C40_2 C50_2 1_555 1_555
C41_2 C51_2 1_555 1_555
C42_2 C52_2 1_555 1_555
N7_2 N8_2 1_555 1_555
O3_3 C19_3 1_555 1_555
O4_2 C20_3 1_555 1_555
O7_2 Zn8 1_555 1_555
C16_3 H9_3 1_555 1_555
C17_3 H10_3 1_555 1_555
C19_3 C25_3 1_555 1_555
C20_3 C26_3 1_555 1_555
C22_3 H12_3 1_555 1_555
C23_3 H13_3 1_555 1_555
C25_3 C16_3 1_555 1_555
C26_3 C17_3 1_555 1_555
N4_5 C28_3 1_555 1_555
C28_3 C22_3 1_555 1_555
C29_3 C23_3 1_555 1_555
C31_3 C22_3 1_555 1_555
C32_3 C23_3 1_555 1_555
H15_3 C31_3 1_555 1_555
H16_3 C32_3 1_555 1_555
C34_3 C16_3 1_555 1_555
C35_3 C17_3 1_555 1_555
H18_2 C34_3 1_555 1_555
H19_2 C35_3 1_555 1_555
N5_3 C40_3 1_555 1_555
C37_5 N4_5 1_555 1_555
C39_3 C49_3 1_555 1_555
C40_3 H22_3 1_555 1_555
C41_3 N5_3 1_555 1_555
H21_3 C41_3 1_555 1_555
C43_2 C37_5 1_555 1_555
C44_2 C37_5 1_555 1_555
H24_2 C44_2 1_555 1_555
H25_2 C43_2 1_555 1_555
C46_2 C38_5 1_555 1_555
C47_2 C38_5 1_555 1_555
H27_2 C47_2 1_555 1_555
H28_2 C46_2 1_555 1_555
C49_3 N6_3 1_555 1_555
N7_3 C49_3 1_555 1_555
C50_3 C39_3 1_555 1_555
C51_3 C39_3 1_555 1_555
H30_3 C51_3 1_555 1_555
H31_3 C50_3 1_555 1_555
O12 C19_3 1_555 1_555
O12_2 C20_3 1_555 1_555
Zn3 O3_3 1_555 1_555
Zn8 O4_2 1_555 1_555
C25_3 C31_3 1_555 1_555
C26_3 C32_3 1_555 1_555
N4_5 C29_3 1_555 1_555
C28_3 C34_3 1_555 1_555
C29_3 C35_3 1_555 1_555
N5_3 Zn8 1_555 1_555
C40_3 C50_3 1_555 1_555
C41_3 C51_3 1_555 1_555
C43_2 C46_2 1_555 1_555
C44_2 C47_2 1_555 1_555
O1_2 C2_3 1_555 1_555
C1_3 H1_3 1_555 1_555
C2_3 C4_3 1_555 1_555
C3_3 H2_3 1_555 1_555
C4_3 C1_3 1_555 1_555
N1_5 C5_3 1_555 1_555
C5_3 C3_3 1_555 1_555
C6_3 C3_3 1_555 1_555
H3_3 C6_3 1_555 1_555
C7_3 C1_3 1_555 1_555
H4_2 C7_3 1_555 1_555
N2_3 C11_3 1_555 1_555
C8_5 N1_5 1_555 1_555
C9_5 C13_2 1_555 1_555
C10_3 C14_3 1_555 1_555
C11_3 H5_3 1_555 1_555
C12_2 C8_5 1_555 1_555
H6_2 C12_2 1_555 1_555
C13_2 C12_2 1_555 1_555
H7_2 C13_2 1_555 1_555
C14_3 N3_3 1_555 1_555
C15_3 C10_3 1_555 1_555
H8_3 C15_3 1_555 1_555
O13_2 C2_3 1_555 1_555
Zn4 O1_2 1_555 1_555
O5_3 C21_3 1_555 1_555
O6_2 Zn4 1_555 1_555
C18_3 H11_3 1_555 1_555
C21_3 C27_3 1_555 1_555
C24_3 H14_3 1_555 1_555
C27_3 C18_3 1_555 1_555
C30_3 N1_5 1_555 1_555
C33_3 C24_3 1_555 1_555
H17_3 C33_3 1_555 1_555
C36_3 C18_3 1_555 1_555
H20_2 C36_3 1_555 1_555
C42_3 N2_3 1_555 1_555
H23_3 C42_3 1_555 1_555
C45_2 C8_5 1_555 1_555
H26_2 C45_2 1_555 1_555
C48_2 C9_5 1_555 1_555
H29_2 C48_2 1_555 1_555
N8_3 C14_3 1_555 1_555
C52_3 C10_3 1_555 1_555
H32_3 C52_3 1_555 1_555
O13 C21_3 1_555 1_555
Zn6 O5_3 1_555 1_555
C4_3 C6_3 1_555 1_555
C5_3 C7_3 1_555 1_555
N2_3 Zn4 1_555 1_555
C11_3 C15_3 1_555 1_555
C24_3 C30_3 1_555 1_555
C27_3 C33_3 1_555 1_555
C30_3 C36_3 1_555 1_555
C42_3 C52_3 1_555 1_555
C45_2 C48_2 1_555 1_555
C8_6 N1_6 1_555 1_555
C9_6 C13_3 1_555 1_555
C12_3 C8_6 1_555 1_555
H6_3 C12_3 1_555 1_555
C13_3 C12_3 1_555 1_555
H7_3 C13_3 1_555 1_555
O5_4 C21_4 1_555 1_555
C18_4 H11_4 1_555 1_555
C21_4 C27_4 1_555 1_555
C24_4 H14_4 1_555 1_555
C27_4 C18_4 1_555 1_555
C30_4 N1_6 1_555 1_555
C33_4 C24_4 1_555 1_555
H17_4 C33_4 1_555 1_555
C36_4 C18_4 1_555 1_555
H20_3 C36_4 1_555 1_555
O11 C21_4 1_555 1_555
Zn3 O5_4 1_555 1_555
C24_4 C30_4 1_555 1_555
C27_4 C33_4 1_555 1_555
C30_4 C36_4 1_555 1_555
O7_2 C2_4 1_555 1_555
C1_4 H1_4 1_555 1_555
C2_4 C4_4 1_555 1_555
C3_4 H2_4 1_555 1_555
C4_4 C1_4 1_555 1_555
N1_7 C5_4 1_555 1_555
C5_4 C3_4 1_555 1_555
C6_4 C3_4 1_555 1_555
H3_4 C6_4 1_555 1_555
C7_4 C1_4 1_555 1_555
H4_3 C7_4 1_555 1_555
C8_7 N1_7 1_555 1_555
O11_2 C2_4 1_555 1_555
C45_3 C8_7 1_555 1_555
H26_3 C45_3 1_555 1_555
C48_3 C9_7 1_555 1_555
H29_3 C48_3 1_555 1_555
C4_4 C6_4 1_555 1_555
C5_4 C7_4 1_555 1_555
C45_3 C48_3 1_555 1_555
O3_4 C19_4 1_555 1_555
C16_4 H9_4 1_555 1_555
C19_4 C25_4 1_555 1_555
C22_4 H12_4 1_555 1_555
C25_4 C16_4 1_555 1_555
N4_6 C28_4 1_555 1_555
C28_4 C22_4 1_555 1_555
C31_4 C22_4 1_555 1_555
H15_4 C31_4 1_555 1_555
C34_4 C16_4 1_555 1_555
H18_3 C34_4 1_555 1_555
C37_6 N4_6 1_555 1_555
C44_3 C37_6 1_555 1_555
H24_3 C44_3 1_555 1_555
C47_3 C38_6 1_555 1_555
H27_3 C47_3 1_555 1_555
O14 C19_4 1_555 1_555
Zn6 O3_4 1_555 1_555
C25_4 C31_4 1_555 1_555
C28_4 C34_4 1_555 1_555
C44_3 C47_3 1_555 1_555
O6_2 C20_4 1_555 1_555
C17_4 H10_4 1_555 1_555
C20_4 C26_4 1_555 1_555
C23_4 H13_4 1_555 1_555
C26_4 C17_4 1_555 1_555
C29_4 C23_4 1_555 1_555
C32_4 C23_4 1_555 1_555
H16_4 C32_4 1_555 1_555
C35_4 C17_4 1_555 1_555
H19_3 C35_4 1_555 1_555
C37_7 N4_7 1_555 1_555
C43_3 C37_7 1_555 1_555
H25_3 C43_3 1_555 1_555
C46_3 C38_7 1_555 1_555
H28_3 C46_3 1_555 1_555
O14_2 C20_4 1_555 1_555
C26_4 C32_4 1_555 1_555
N4_7 C29_4 1_555 1_555
C29_4 C35_4 1_555 1_555
C43_3 C46_3 1_555 1_555
N5_4 C40_4 1_555 1_555
C39_4 C49_4 1_555 1_555
C40_4 H22_4 1_555 1_555
C41_4 N5_4 1_555 1_555
H21_4 C41_4 1_555 1_555
C49_4 N6_4 1_555 1_555
N7_4 C49_4 1_555 1_555
C50_4 C39_4 1_555 1_555
C51_4 C39_4 1_555 1_555
H30_4 C51_4 1_555 1_555
H31_4 C50_4 1_555 1_555
N5_4 Zn3 1_555 1_555
C40_4 C50_4 1_555 1_555
C41_4 C51_4 1_555 1_555
N2_4 C11_4 1_555 1_555
C10_4 C14_4 1_555 1_555
C11_4 H5_4 1_555 1_555
C14_4 N3_4 1_555 1_555
C15_4 C10_4 1_555 1_555
H8_4 C15_4 1_555 1_555
C42_4 N2_4 1_555 1_555
H23_4 C42_4 1_555 1_555
N8_4 C14_4 1_555 1_555
C52_4 C10_4 1_555 1_555
H32_4 C52_4 1_555 1_555
N2_4 Zn6 1_555 1_555
C11_4 C15_4 1_555 1_555
C42_4 C52_4 1_555 1_555
C8_8 N1_8 1_555 1_555
C37_8 N4_8 1_555 1_555
C38_8 C9_8 1_555 1_555
C43_4 C37_8 1_555 1_555
C45_4 C8_8 1_555 1_555
H25_4 C43_4 1_555 1_555
H26_4 C45_4 1_555 1_555
C46_4 C38_8 1_555 1_555
C48_4 C9_8 1_555 1_555
H28_4 C46_4 1_555 1_555
H29_4 C48_4 1_555 1_555
C43_4 C46_4 1_555 1_555
C45_4 C48_4 1_555 1_555
C8_9 N1_9 1_555 1_555
C9_9 C13_4 1_555 1_555
C12_4 C8_9 1_555 1_555
H6_4 C12_4 1_555 1_555
C13_4 C12_4 1_555 1_555
H7_4 C13_4 1_555 1_555
C37_9 N4_9 1_555 1_555
C38_9 C9_9 1_555 1_555
C44_4 C37_9 1_555 1_555
H24_4 C44_4 1_555 1_555
C47_4 C38_9 1_555 1_555
H27_4 C47_4 1_555 1_555
C44_4 C47_4 1_555 1_555

#END
