
###############################################################################
#
# This file contains modified crystal structure data generated from the
# MOF subset of the Cambridge Structural Database (CSD) v543 
# hosted by the Cambridge Crystallographic Data Centre (CCDC).
#
# This work is licensed under the Creative Commons
# Attribution-NonCommercial-ShareAlike 4.0 International License.
# To view a copy of this license, visit
# http://creativecommons.org/licenses/by-nc-sa/4.0/
# or send a letter to
# Creative Commons, PO Box 1866, Mountain View, CA 94042, USA.
#
# CIF created using the CSD Python API on 29 September 2022
# The structure has been converted into the P1 space group
# The structure has a 3D framework
# The original CSD entry VAGMIB01 is in the orthorhombic crystal system
# The framework has been calculated to contain at least 10.0% void space
# The void calculation uses a probe of radius 1.32A, grid spacing 0.4
#
###############################################################################

data_VAGMIB01
_chemical_formula_moiety         '(C228 H128 N42 O32 Zn8)n'
_symmetry_cell_setting           triclinic
_symmetry_space_group_name_H-M   'P 1'
_symmetry_Int_Tables_number      1
_space_group_name_Hall           'P 1'
loop_
_symmetry_equiv_pos_site_id
_symmetry_equiv_pos_as_xyz
1 x,y,z
_cell_length_a                   34.277(7)
_cell_length_b                   23.356(5)
_cell_length_c                   18.400(4)
_cell_angle_alpha                90
_cell_angle_beta                 90
_cell_angle_gamma                90
_cell_volume                     14730.6
loop_
_atom_site_label
_atom_site_type_symbol
_atom_site_fract_x
_atom_site_fract_y
_atom_site_fract_z
O1 O 0.29429(8) 0.31236(11) 0.22130(15)
C1 C 0.28234(11) 0.39340(16) 0.0590(2)
H1 H 0.2589 0.3786 0.042
C2 C 0.35019(13) 0.44010(18) 0.1048(3)
H2 H 0.374 0.454 0.1214
C3 C 0.29658(12) 0.37376(14) 0.1226(2)
C4 C 0.27796(12) 0.32934(14) 0.1645(2)
N1 N 0.35456(18) 0.50000 0.00000
C5 C 0.33495(14) 0.45988(18) 0.0423(3)
C6 C 0.32966(14) 0.39761(18) 0.1459(3)
H3 H 0.3398 0.3862 0.1905
C7 C 0.30139(14) 0.43503(18) 0.0176(3)
C8 C 0.47834(18) 0.50000 0.00000
C9 C 0.3963(3) 0.50000 0.00000
C10 C 0.45638(19) 0.5473(2) 0.0126(3)
H5 H 0.4693 0.5817 0.0211
C11 C 0.41505(18) 0.5476(2) 0.0136(4)
H6 H 0.4015 0.5811 0.0238
N2 N 0.34082(12) 0.25000 0.3387(2)
O2 O 0.24443(8) 0.31146(9) 0.14347(13)
C12 C 0.4210(3) 0.25000 0.3667(5)
C13 C 0.35904(17) 0.2044(2) 0.3479(4)
H7 H 0.3448 0.1705 0.3479
C14 C 0.4653(5) 0.25000 0.3730(8)
C15 C 0.4009(2) 0.2005(3) 0.3586(4)
H8 H 0.4135 0.1653 0.3598
N3 N 0.4761(3) 0.2086(3) 0.3837(5)
Zn1 Zn 0.283884(14) 0.25000 0.29897(3)
O4 O 0.70571(8) 0.31236(11) 0.22130(15)
O6 O 0.29429(8) 0.18764(11) 0.22130(15)
O7 O 0.70571(8) 0.18764(11) 0.22130(15)
C17 C 0.71766(11) 0.39340(16) 0.0590(2)
H10 H 0.7411 0.3786 0.042
C20 C 0.64981(13) 0.44010(18) 0.1048(3)
H13 H 0.626 0.454 0.1214
C23 C 0.70342(12) 0.37376(14) 0.1226(2)
C26 C 0.72204(12) 0.32934(14) 0.1645(2)
N4 N 0.64544(18) 0.50000 0.00000
C29 C 0.66505(14) 0.45988(18) 0.0423(3)
C32 C 0.67034(14) 0.39761(18) 0.1459(3)
H16 H 0.6602 0.3862 0.1905
C35 C 0.69861(14) 0.43503(18) 0.0176(3)
H18 H 0.7088 0.5541 0.0272
H20 H 0.2912 0.5541 0.0272
C37 C 0.52166(18) 0.50000 0.00000
C38 C 0.6037(3) 0.50000 0.00000
C40 C 0.54362(19) 0.5473(2) 0.0126(3)
H22 H 0.5307 0.5817 0.0211
C43 C 0.58495(18) 0.5476(2) 0.0136(4)
H24 H 0.5985 0.5811 0.0238
N5 N 0.65918(12) 0.25000 0.3387(2)
O9 O 0.75557(8) 0.31146(9) 0.14347(13)
O11 O 0.25557(8) 0.31146(9) 0.35653(13)
O12 O 0.25557(8) 0.18854(9) 0.35653(13)
O13 O 0.74443(8) 0.18854(9) 0.35653(13)
O14 O 0.74443(8) 0.31146(9) 0.35653(13)
C45 C 0.5790(3) 0.25000 0.3667(5)
C46 C 0.64096(17) 0.2044(2) 0.3479(4)
C47 C 0.64096(17) 0.2956(2) 0.3479(4)
C48 C 0.35904(17) 0.2956(2) 0.3479(4)
H27 H 0.6552 0.3295 0.3479
H28 H 0.6552 0.1705 0.3479
H29 H 0.3448 0.3295 0.3479
C49 C 0.5347(5) 0.25000 0.3730(8)
C50 C 0.5991(2) 0.2005(3) 0.3586(4)
C51 C 0.5991(2) 0.2995(3) 0.3586(4)
C52 C 0.4009(2) 0.2995(3) 0.3586(4)
H30 H 0.5865 0.3347 0.3598
H31 H 0.5865 0.1653 0.3598
H32 H 0.4135 0.3347 0.3598
N6 N 0.5239(3) 0.2086(3) 0.3837(5)
N7 N 0.5239(3) 0.2914(3) 0.3837(5)
N8 N 0.4761(3) 0.2914(3) 0.3837(5)
Zn3 Zn 0.216116(14) 0.25000 0.20103(3)
Zn5 Zn 0.716116(14) 0.25000 0.29897(3)
Zn6 Zn 0.783884(14) 0.25000 0.20103(3)
N1_2 N 0.35456(18) 0.50000 1.00000
H4 H 0.2912 0.4459 0.9728
C8_2 C 0.47834(18) 0.50000 1.00000
C9_2 C 0.3963(3) 0.50000 1.00000
O3 O 0.70571(8) 0.68764(11) 0.77870(15)
O5 O 0.29429(8) 0.68764(11) 0.77870(15)
C16 C 0.71766(11) 0.60660(16) 0.9410(2)
C18 C 0.28234(11) 0.60660(16) 0.9410(2)
H9 H 0.7411 0.6214 0.958
H11 H 0.2589 0.6214 0.958
C19 C 0.64981(13) 0.55990(18) 0.8952(3)
C21 C 0.35019(13) 0.55990(18) 0.8952(3)
H12 H 0.626 0.546 0.8786
H14 H 0.374 0.546 0.8786
C22 C 0.70342(12) 0.62624(14) 0.8774(2)
C24 C 0.29658(12) 0.62624(14) 0.8774(2)
C25 C 0.72204(12) 0.67066(14) 0.8355(2)
C27 C 0.27796(12) 0.67066(14) 0.8355(2)
N4_2 N 0.64544(18) 0.50000 1.00000
C28 C 0.66505(14) 0.54012(18) 0.9577(3)
C30 C 0.33495(14) 0.54012(18) 0.9577(3)
C31 C 0.67034(14) 0.60239(18) 0.8541(3)
C33 C 0.32966(14) 0.60239(18) 0.8541(3)
H15 H 0.6602 0.6138 0.8095
H17 H 0.3398 0.6138 0.8095
C34 C 0.69861(14) 0.56497(18) 0.9824(3)
C36 C 0.30139(14) 0.56497(18) 0.9824(3)
H19 H 0.7088 0.4459 0.9728
C37_2 C 0.52166(18) 0.50000 1.00000
C38_2 C 0.6037(3) 0.50000 1.00000
C39 C 0.54362(19) 0.4527(2) 0.9874(3)
C41 C 0.45638(19) 0.4527(2) 0.9874(3)
H21 H 0.5307 0.4183 0.9789
H23 H 0.4693 0.4183 0.9789
C42 C 0.58495(18) 0.4524(2) 0.9864(4)
C44 C 0.41505(18) 0.4524(2) 0.9864(4)
H25 H 0.5985 0.4189 0.9762
H26 H 0.4015 0.4189 0.9762
O8 O 0.75557(8) 0.68854(9) 0.85653(13)
O10 O 0.24443(8) 0.68854(9) 0.85653(13)
Zn2 Zn 0.716116(14) 0.75000 0.70103(3)
Zn4 Zn 0.783884(14) 0.75000 0.79897(3)
Zn7 Zn 0.283884(14) 0.75000 0.70103(3)
Zn8 Zn 0.216116(14) 0.75000 0.79897(3)
C1_2 C 0.71766(11) 0.10660(16) 0.0590(2)
H1_2 H 0.7411 0.1214 0.042
C2_2 C 0.64981(13) 0.05990(18) 0.1048(3)
H2_2 H 0.626 0.046 0.1214
C3_2 C 0.70342(12) 0.12624(14) 0.1226(2)
C4_2 C 0.72204(12) 0.17066(14) 0.1645(2)
N1_3 N 0.64544(18) 0.00000 0.00000
C5_2 C 0.66505(14) 0.04012(18) 0.0423(3)
C6_2 C 0.67034(14) 0.10239(18) 0.1459(3)
H3_2 H 0.6602 0.1138 0.1905
C7_2 C 0.69861(14) 0.06497(18) 0.0176(3)
C8_3 C 0.52166(18) 0.00000 0.00000
C9_3 C 0.6037(3) 0.00000 0.00000
O2_2 O 0.75557(8) 0.18854(9) 0.14347(13)
C17_2 C 0.28234(11) 0.10660(16) 0.0590(2)
H10_2 H 0.2589 0.1214 0.042
C20_2 C 0.35019(13) 0.05990(18) 0.1048(3)
H13_2 H 0.374 0.046 0.1214
C23_2 C 0.29658(12) 0.12624(14) 0.1226(2)
C26_2 C 0.27796(12) 0.17066(14) 0.1645(2)
N4_3 N 0.35456(18) 0.00000 0.00000
C29_2 C 0.33495(14) 0.04012(18) 0.0423(3)
C32_2 C 0.32966(14) 0.10239(18) 0.1459(3)
H16_2 H 0.3398 0.1138 0.1905
C35_2 C 0.30139(14) 0.06497(18) 0.0176(3)
C37_3 C 0.47834(18) 0.00000 0.00000
C38_3 C 0.3963(3) 0.00000 0.00000
O9_2 O 0.24443(8) 0.18854(9) 0.14347(13)
N1_4 N 0.64544(18) 1.00000 1.00000
C8_4 C 0.52166(18) 1.00000 1.00000
C9_4 C 0.6037(3) 1.00000 1.00000
O3_2 O 0.29429(8) 0.81236(11) 0.77870(15)
O5_2 O 0.70571(8) 0.81236(11) 0.77870(15)
C16_2 C 0.28234(11) 0.89340(16) 0.9410(2)
C18_2 C 0.71766(11) 0.89340(16) 0.9410(2)
H9_2 H 0.2589 0.8786 0.958
H11_2 H 0.7411 0.8786 0.958
C19_2 C 0.35019(13) 0.94010(18) 0.8952(3)
C21_2 C 0.64981(13) 0.94010(18) 0.8952(3)
H12_2 H 0.374 0.954 0.8786
H14_2 H 0.626 0.954 0.8786
C22_2 C 0.29658(12) 0.87376(14) 0.8774(2)
C24_2 C 0.70342(12) 0.87376(14) 0.8774(2)
C25_2 C 0.27796(12) 0.82934(14) 0.8355(2)
C27_2 C 0.72204(12) 0.82934(14) 0.8355(2)
N4_4 N 0.35456(18) 1.00000 1.00000
C28_2 C 0.33495(14) 0.95988(18) 0.9577(3)
C30_2 C 0.66505(14) 0.95988(18) 0.9577(3)
C31_2 C 0.32966(14) 0.89761(18) 0.8541(3)
C33_2 C 0.67034(14) 0.89761(18) 0.8541(3)
H15_2 H 0.3398 0.8862 0.8095
H17_2 H 0.6602 0.8862 0.8095
C34_2 C 0.30139(14) 0.93503(18) 0.9824(3)
C36_2 C 0.69861(14) 0.93503(18) 0.9824(3)
C37_4 C 0.47834(18) 1.00000 1.00000
C38_4 C 0.3963(3) 1.00000 1.00000
O8_2 O 0.24443(8) 0.81146(9) 0.85653(13)
O10_2 O 0.75557(8) 0.81146(9) 0.85653(13)
N2_2 N 0.34082(12) 0.75000 0.6613(2)
C12_2 C 0.4210(3) 0.75000 0.6333(5)
C13_2 C 0.35904(17) 0.7956(2) 0.6521(4)
H7_2 H 0.3448 0.8295 0.6521
C14_2 C 0.4653(5) 0.75000 0.6270(8)
C15_2 C 0.4009(2) 0.7995(3) 0.6414(4)
H8_2 H 0.4135 0.8347 0.6402
N3_2 N 0.4761(3) 0.7914(3) 0.6163(5)
N5_2 N 0.65918(12) 0.75000 0.6613(2)
O11_2 O 0.25557(8) 0.68854(9) 0.64347(13)
O12_2 O 0.25557(8) 0.81146(9) 0.64347(13)
O13_2 O 0.74443(8) 0.81146(9) 0.64347(13)
O14_2 O 0.74443(8) 0.68854(9) 0.64347(13)
C45_2 C 0.5790(3) 0.75000 0.6333(5)
C46_2 C 0.64096(17) 0.7956(2) 0.6521(4)
C47_2 C 0.64096(17) 0.7044(2) 0.6521(4)
C48_2 C 0.35904(17) 0.7044(2) 0.6521(4)
H27_2 H 0.6552 0.6705 0.6521
H28_2 H 0.6552 0.8295 0.6521
H29_2 H 0.3448 0.6705 0.6521
C49_2 C 0.5347(5) 0.75000 0.6270(8)
C50_2 C 0.5991(2) 0.7995(3) 0.6414(4)
C51_2 C 0.5991(2) 0.7005(3) 0.6414(4)
C52_2 C 0.4009(2) 0.7005(3) 0.6414(4)
H30_2 H 0.5865 0.6653 0.6402
H31_2 H 0.5865 0.8347 0.6402
H32_2 H 0.4135 0.6653 0.6402
N6_2 N 0.5239(3) 0.7914(3) 0.6163(5)
N7_2 N 0.5239(3) 0.7086(3) 0.6163(5)
N8_2 N 0.4761(3) 0.7086(3) 0.6163(5)
O3_3 O 0.20571(8) 0.18764(11) 0.27870(15)
C16_3 C 0.21766(11) 0.10660(16) 0.4410(2)
H9_3 H 0.2411 0.1214 0.458
C19_3 C 0.14981(13) 0.05990(18) 0.3952(3)
H12_3 H 0.126 0.046 0.3786
C22_3 C 0.20342(12) 0.12624(14) 0.3774(2)
C25_3 C 0.22204(12) 0.17066(14) 0.3355(2)
N4_5 N 0.14544(18) -0.00000 0.50000
C28_3 C 0.16505(14) 0.04012(18) 0.4577(3)
C31_3 C 0.17034(14) 0.10239(18) 0.3541(3)
H15_3 H 0.1602 0.1138 0.3095
C34_3 C 0.19861(14) 0.06497(18) 0.4824(3)
H18_2 H 0.2088 0.0541 0.5272
C37_5 C 0.02166(18) -0.00000 0.50000
C38_5 C 0.1037(3) -0.00000 0.50000
C40_2 C 0.04362(19) 0.0473(2) 0.5126(3)
H22_2 H 0.0307 0.0817 0.5211
C43_2 C 0.08495(18) 0.0476(2) 0.5136(4)
H24_2 H 0.0985 0.0811 0.5238
O4_2 O 0.20571(8) 0.81236(11) 0.72130(15)
O7_2 O 0.20571(8) 0.68764(11) 0.72130(15)
C17_3 C 0.21766(11) 0.89340(16) 0.5590(2)
H10_3 H 0.2411 0.8786 0.542
C20_3 C 0.14981(13) 0.94010(18) 0.6048(3)
H13_3 H 0.126 0.954 0.6214
C23_3 C 0.20342(12) 0.87376(14) 0.6226(2)
C26_3 C 0.22204(12) 0.82934(14) 0.6645(2)
N4_6 N 0.14544(18) 1.00000 0.50000
C29_3 C 0.16505(14) 0.95988(18) 0.5423(3)
C32_3 C 0.17034(14) 0.89761(18) 0.6459(3)
H16_3 H 0.1602 0.8862 0.6905
C35_3 C 0.19861(14) 0.93503(18) 0.5176(3)
H19_2 H 0.2088 0.9459 0.4728
C37_6 C 0.02166(18) 1.00000 0.50000
C38_6 C 0.1037(3) 1.00000 0.50000
C39_2 C 0.04362(19) 0.9527(2) 0.4874(3)
H21_2 H 0.0307 0.9183 0.4789
C42_2 C 0.08495(18) 0.9524(2) 0.4864(4)
H25_2 H 0.0985 0.9189 0.4762
N5_3 N 0.15918(12) 0.75000 0.8387(2)
C45_3 C 0.0790(3) 0.75000 0.8667(5)
C46_3 C 0.14096(17) 0.7044(2) 0.8479(4)
C47_3 C 0.14096(17) 0.7956(2) 0.8479(4)
H27_3 H 0.1552 0.8295 0.8479
H28_3 H 0.1552 0.6705 0.8479
C49_3 C 0.0347(5) 0.75000 0.8730(8)
C50_3 C 0.0991(2) 0.7005(3) 0.8586(4)
C51_3 C 0.0991(2) 0.7995(3) 0.8586(4)
H30_3 H 0.0865 0.8347 0.8598
H31_3 H 0.0865 0.6653 0.8598
N6_3 N 0.0239(3) 0.7086(3) 0.8837(5)
N7_3 N 0.0239(3) 0.7914(3) 0.8837(5)
N1_5 N 0.85456(18) -0.00000 0.50000
C8_5 C 0.97834(18) -0.00000 0.50000
C9_5 C 0.8963(3) -0.00000 0.50000
C10_2 C 0.95638(19) 0.0473(2) 0.5126(3)
H5_2 H 0.9693 0.0817 0.5211
C11_2 C 0.91505(18) 0.0476(2) 0.5136(4)
H6_2 H 0.9015 0.0811 0.5238
O5_3 O 0.79429(8) 0.18764(11) 0.27870(15)
C18_3 C 0.78234(11) 0.10660(16) 0.4410(2)
H11_3 H 0.7589 0.1214 0.458
C21_3 C 0.85019(13) 0.05990(18) 0.3952(3)
H14_3 H 0.874 0.046 0.3786
C24_3 C 0.79658(12) 0.12624(14) 0.3774(2)
C27_3 C 0.77796(12) 0.17066(14) 0.3355(2)
C30_3 C 0.83495(14) 0.04012(18) 0.4577(3)
C33_3 C 0.82966(14) 0.10239(18) 0.3541(3)
H17_3 H 0.8398 0.1138 0.3095
C36_3 C 0.80139(14) 0.06497(18) 0.4824(3)
H20_2 H 0.7912 0.0541 0.5272
O1_2 O 0.79429(8) 0.81236(11) 0.72130(15)
C1_3 C 0.78234(11) 0.89340(16) 0.5590(2)
H1_3 H 0.7589 0.8786 0.542
C2_3 C 0.85019(13) 0.94010(18) 0.6048(3)
H2_3 H 0.874 0.954 0.6214
C3_3 C 0.79658(12) 0.87376(14) 0.6226(2)
C4_3 C 0.77796(12) 0.82934(14) 0.6645(2)
N1_6 N 0.85456(18) 1.00000 0.50000
C5_3 C 0.83495(14) 0.95988(18) 0.5423(3)
C6_3 C 0.82966(14) 0.89761(18) 0.6459(3)
H3_3 H 0.8398 0.8862 0.6905
C7_3 C 0.80139(14) 0.93503(18) 0.5176(3)
H4_2 H 0.7912 0.9459 0.4728
C8_6 C 0.97834(18) 1.00000 0.50000
C9_6 C 0.8963(3) 1.00000 0.50000
N2_3 N 0.84082(12) 0.75000 0.8387(2)
C12_3 C 0.9210(3) 0.75000 0.8667(5)
C13_3 C 0.85904(17) 0.7044(2) 0.8479(4)
H7_3 H 0.8448 0.6705 0.8479
C14_3 C 0.9653(5) 0.75000 0.8730(8)
C15_3 C 0.9009(2) 0.7005(3) 0.8586(4)
H8_3 H 0.9135 0.6653 0.8598
N3_3 N 0.9761(3) 0.7086(3) 0.8837(5)
O6_2 O 0.79429(8) 0.68764(11) 0.72130(15)
C41_2 C 0.95638(19) 0.9527(2) 0.4874(3)
H23_2 H 0.9693 0.9183 0.4789
C44_2 C 0.91505(18) 0.9524(2) 0.4864(4)
H26_2 H 0.9015 0.9189 0.4762
C48_3 C 0.85904(17) 0.7956(2) 0.8479(4)
H29_3 H 0.8448 0.8295 0.8479
C52_3 C 0.9009(2) 0.7995(3) 0.8586(4)
H32_3 H 0.9135 0.8347 0.8598
N8_3 N 0.9761(3) 0.7914(3) 0.8837(5)
C1_4 C 0.21766(11) 0.60660(16) 0.5590(2)
H1_4 H 0.2411 0.6214 0.542
C2_4 C 0.14981(13) 0.55990(18) 0.6048(3)
H2_4 H 0.126 0.546 0.6214
C3_4 C 0.20342(12) 0.62624(14) 0.6226(2)
C4_4 C 0.22204(12) 0.67066(14) 0.6645(2)
N1_7 N 0.14544(18) 0.50000 0.50000
C5_4 C 0.16505(14) 0.54012(18) 0.5423(3)
C6_4 C 0.17034(14) 0.60239(18) 0.6459(3)
H3_4 H 0.1602 0.6138 0.6905
C7_4 C 0.19861(14) 0.56497(18) 0.5176(3)
H4_3 H 0.2088 0.5541 0.4728
C8_7 C 0.02166(18) 0.50000 0.50000
C9_7 C 0.1037(3) 0.50000 0.50000
C10_3 C 0.04362(19) 0.4527(2) 0.5126(3)
H5_3 H 0.0307 0.4183 0.5211
C11_3 C 0.08495(18) 0.4524(2) 0.5136(4)
H6_3 H 0.0985 0.4189 0.5238
O5_4 O 0.20571(8) 0.31236(11) 0.27870(15)
C18_4 C 0.21766(11) 0.39340(16) 0.4410(2)
H11_4 H 0.2411 0.3786 0.458
C21_4 C 0.14981(13) 0.44010(18) 0.3952(3)
H14_4 H 0.126 0.454 0.3786
C24_4 C 0.20342(12) 0.37376(14) 0.3774(2)
C27_4 C 0.22204(12) 0.32934(14) 0.3355(2)
C30_4 C 0.16505(14) 0.45988(18) 0.4577(3)
C33_4 C 0.17034(14) 0.39761(18) 0.3541(3)
H17_4 H 0.1602 0.3862 0.3095
C36_4 C 0.19861(14) 0.43503(18) 0.4824(3)
H20_3 H 0.2088 0.4459 0.5272
C41_3 C 0.04362(19) 0.5473(2) 0.4874(3)
H23_3 H 0.0307 0.5817 0.4789
C44_3 C 0.08495(18) 0.5476(2) 0.4864(4)
H26_3 H 0.0985 0.5811 0.4762
O3_4 O 0.79429(8) 0.31236(11) 0.27870(15)
C16_4 C 0.78234(11) 0.39340(16) 0.4410(2)
C17_4 C 0.78234(11) 0.60660(16) 0.5590(2)
H9_4 H 0.7589 0.3786 0.458
H10_4 H 0.7589 0.6214 0.542
C19_4 C 0.85019(13) 0.44010(18) 0.3952(3)
C20_4 C 0.85019(13) 0.55990(18) 0.6048(3)
H12_4 H 0.874 0.454 0.3786
H13_4 H 0.874 0.546 0.6214
C22_4 C 0.79658(12) 0.37376(14) 0.3774(2)
C23_4 C 0.79658(12) 0.62624(14) 0.6226(2)
C25_4 C 0.77796(12) 0.32934(14) 0.3355(2)
C26_4 C 0.77796(12) 0.67066(14) 0.6645(2)
N4_7 N 0.85456(18) 0.50000 0.50000
C28_4 C 0.83495(14) 0.45988(18) 0.4577(3)
C29_4 C 0.83495(14) 0.54012(18) 0.5423(3)
C31_4 C 0.82966(14) 0.39761(18) 0.3541(3)
C32_4 C 0.82966(14) 0.60239(18) 0.6459(3)
H15_4 H 0.8398 0.3862 0.3095
H16_4 H 0.8398 0.6138 0.6905
C34_4 C 0.80139(14) 0.43503(18) 0.4824(3)
C35_4 C 0.80139(14) 0.56497(18) 0.5176(3)
H18_3 H 0.7912 0.4459 0.5272
H19_3 H 0.7912 0.5541 0.4728
C37_7 C 0.97834(18) 0.50000 0.50000
C38_7 C 0.8963(3) 0.50000 0.50000
C39_3 C 0.95638(19) 0.5473(2) 0.4874(3)
C40_3 C 0.95638(19) 0.4527(2) 0.5126(3)
H21_3 H 0.9693 0.5817 0.4789
H22_3 H 0.9693 0.4183 0.5211
C42_3 C 0.91505(18) 0.5476(2) 0.4864(4)
C43_3 C 0.91505(18) 0.4524(2) 0.5136(4)
H24_3 H 0.9015 0.4189 0.5238
H25_3 H 0.9015 0.5811 0.4762
N5_4 N 0.15918(12) 0.25000 0.1613(2)
C45_4 C 0.0790(3) 0.25000 0.1333(5)
C46_4 C 0.14096(17) 0.2956(2) 0.1521(4)
C47_4 C 0.14096(17) 0.2044(2) 0.1521(4)
H27_4 H 0.1552 0.1705 0.1521
H28_4 H 0.1552 0.3295 0.1521
C49_4 C 0.0347(5) 0.25000 0.1270(8)
C50_4 C 0.0991(2) 0.2995(3) 0.1414(4)
C51_4 C 0.0991(2) 0.2005(3) 0.1414(4)
H30_4 H 0.0865 0.1653 0.1402
H31_4 H 0.0865 0.3347 0.1402
N6_4 N 0.0239(3) 0.2914(3) 0.1163(5)
N7_4 N 0.0239(3) 0.2086(3) 0.1163(5)
N2_4 N 0.84082(12) 0.25000 0.1613(2)
C12_4 C 0.9210(3) 0.25000 0.1333(5)
C13_4 C 0.85904(17) 0.2956(2) 0.1521(4)
H7_4 H 0.8448 0.3295 0.1521
C14_4 C 0.9653(5) 0.25000 0.1270(8)
C15_4 C 0.9009(2) 0.2995(3) 0.1414(4)
H8_4 H 0.9135 0.3347 0.1402
N3_4 N 0.9761(3) 0.2914(3) 0.1163(5)
C48_4 C 0.85904(17) 0.2044(2) 0.1521(4)
H29_4 H 0.8448 0.1705 0.1521
C52_4 C 0.9009(2) 0.2005(3) 0.1414(4)
H32_4 H 0.9135 0.1653 0.1402
N8_4 N 0.9761(3) 0.2086(3) 0.1163(5)
N1_8 N 0.64544(18) 0.00000 1.00000
H4_4 H 0.7088 0.0541 0.9728
C8_8 C 0.52166(18) 0.00000 1.00000
C9_8 C 0.6037(3) 0.00000 1.00000
N4_8 N 0.35456(18) 0.00000 1.00000
H19_4 H 0.2912 0.0541 0.9728
C37_8 C 0.47834(18) 0.00000 1.00000
C38_8 C 0.3963(3) 0.00000 1.00000
C39_4 C 0.45638(19) 0.0473(2) 0.9874(3)
C41_4 C 0.54362(19) 0.0473(2) 0.9874(3)
H21_4 H 0.4693 0.0817 0.9789
H23_4 H 0.5307 0.0817 0.9789
C42_4 C 0.41505(18) 0.0476(2) 0.9864(4)
C44_4 C 0.58495(18) 0.0476(2) 0.9864(4)
H25_4 H 0.4015 0.0811 0.9762
H26_4 H 0.5985 0.0811 0.9762
N1_9 N 0.64544(18) 1.00000 0.00000
C8_9 C 0.52166(18) 1.00000 0.00000
C9_9 C 0.6037(3) 1.00000 0.00000
C10_4 C 0.54362(19) 0.9527(2) 0.0126(3)
H5_4 H 0.5307 0.9183 0.0211
C11_4 C 0.58495(18) 0.9524(2) 0.0136(4)
H6_4 H 0.5985 0.9189 0.0238
N4_9 N 0.35456(18) 1.00000 0.00000
H18_4 H 0.2912 0.9459 0.0272
H20_4 H 0.7088 0.9459 0.0272
C37_9 C 0.47834(18) 1.00000 0.00000
C38_9 C 0.3963(3) 1.00000 0.00000
C40_4 C 0.45638(19) 0.9527(2) 0.0126(3)
H22_4 H 0.4693 0.9183 0.0211
C43_4 C 0.41505(18) 0.9524(2) 0.0136(4)
H24_4 H 0.4015 0.9189 0.0238
loop_
_geom_bond_atom_site_label_1
_geom_bond_atom_site_label_2
_geom_bond_site_symmetry_1
_geom_bond_site_symmetry_2
O1 C4 1_555 1_555
C1 H1 1_555 1_555
C2 H2 1_555 1_555
C3 C1 1_555 1_555
C4 C3 1_555 1_555
N1 C5 1_555 1_555
C5 C2 1_555 1_555
C6 C2 1_555 1_555
H3 C6 1_555 1_555
C7 C1 1_555 1_555
C8 C10 1_555 1_555
C9 N1 1_555 1_555
C10 H5 1_555 1_555
C11 C9 1_555 1_555
H6 C11 1_555 1_555
N2 C13 1_555 1_555
O2 C4 1_555 1_555
C12 C14 1_555 1_555
C13 H7 1_555 1_555
C14 N3 1_555 1_555
C15 C12 1_555 1_555
H8 C15 1_555 1_555
N3 N6 1_555 1_555
Zn1 O1 1_555 1_555
O4 C26 1_555 1_555
O6 Zn1 1_555 1_555
O7 Zn5 1_555 1_555
C17 H10 1_555 1_555
C20 H13 1_555 1_555
C23 C17 1_555 1_555
C26 C23 1_555 1_555
C29 C20 1_555 1_555
C32 C20 1_555 1_555
H16 C32 1_555 1_555
C35 C17 1_555 1_555
C37 C8 1_555 1_555
C38 N4 1_555 1_555
C40 C37 1_555 1_555
H22 C40 1_555 1_555
C43 C38 1_555 1_555
H24 C43 1_555 1_555
N5 C46 1_555 1_555
O9 C26 1_555 1_555
O11 Zn1 1_555 1_555
O12 Zn1 1_555 1_555
O13 Zn5 1_555 1_555
O14 Zn5 1_555 1_555
C45 C49 1_555 1_555
C46 H28 1_555 1_555
C47 N5 1_555 1_555
C48 N2 1_555 1_555
H27 C47 1_555 1_555
H29 C48 1_555 1_555
C49 N6 1_555 1_555
C50 C45 1_555 1_555
C51 C45 1_555 1_555
C52 C12 1_555 1_555
H30 C51 1_555 1_555
H31 C50 1_555 1_555
H32 C52 1_555 1_555
N7 C49 1_555 1_555
N8 C14 1_555 1_555
Zn3 O2 1_555 1_555
Zn5 O4 1_555 1_555
Zn6 O9 1_555 1_555
C3 C6 1_555 1_555
C5 C7 1_555 1_555
C10 C11 1_555 1_555
N2 Zn1 1_555 1_555
C13 C15 1_555 1_555
C23 C32 1_555 1_555
N4 C29 1_555 1_555
C29 C35 1_555 1_555
C40 C43 1_555 1_555
N5 Zn5 1_555 1_555
C46 C50 1_555 1_555
C47 C51 1_555 1_555
C48 C52 1_555 1_555
N7 N8 1_555 1_555
C9_2 N1_2 1_555 1_555
O3 C25 1_555 1_555
O5 C27 1_555 1_555
C16 H9 1_555 1_555
C18 H11 1_555 1_555
C19 H12 1_555 1_555
C21 H14 1_555 1_555
C22 C16 1_555 1_555
C24 C18 1_555 1_555
C25 C22 1_555 1_555
C27 C24 1_555 1_555
N4_2 C28 1_555 1_555
C28 C19 1_555 1_555
C30 N1_2 1_555 1_555
C31 C19 1_555 1_555
C33 C21 1_555 1_555
H15 C31 1_555 1_555
H17 C33 1_555 1_555
C34 C16 1_555 1_555
C36 C18 1_555 1_555
C37_2 C8_2 1_555 1_555
C38_2 N4_2 1_555 1_555
C39 C37_2 1_555 1_555
C41 C8_2 1_555 1_555
H21 C39 1_555 1_555
H23 C41 1_555 1_555
C42 C38_2 1_555 1_555
C44 C9_2 1_555 1_555
H25 C42 1_555 1_555
H26 C44 1_555 1_555
O8 C25 1_555 1_555
O10 C27 1_555 1_555
Zn2 O3 1_555 1_555
Zn4 O8 1_555 1_555
Zn7 O5 1_555 1_555
Zn8 O10 1_555 1_555
C21 C30 1_555 1_555
C22 C31 1_555 1_555
C24 C33 1_555 1_555
C28 C34 1_555 1_555
C30 C36 1_555 1_555
C39 C42 1_555 1_555
C41 C44 1_555 1_555
O7 C4_2 1_555 1_555
C1_2 H1_2 1_555 1_555
C2_2 H2_2 1_555 1_555
C3_2 C1_2 1_555 1_555
C4_2 C3_2 1_555 1_555
N1_3 C5_2 1_555 1_555
C5_2 C2_2 1_555 1_555
C6_2 C2_2 1_555 1_555
H3_2 C6_2 1_555 1_555
C7_2 C1_2 1_555 1_555
C9_3 N1_3 1_555 1_555
O2_2 C4_2 1_555 1_555
O6 C26_2 1_555 1_555
C17_2 H10_2 1_555 1_555
C20_2 H13_2 1_555 1_555
C23_2 C17_2 1_555 1_555
C26_2 C23_2 1_555 1_555
C29_2 C20_2 1_555 1_555
C32_2 C20_2 1_555 1_555
H16_2 C32_2 1_555 1_555
C35_2 C17_2 1_555 1_555
C37_3 C8_3 1_555 1_555
C38_3 N4_3 1_555 1_555
O9_2 C26_2 1_555 1_555
Zn6 O2_2 1_555 1_555
Zn3 O9_2 1_555 1_555
C3_2 C6_2 1_555 1_555
C5_2 C7_2 1_555 1_555
C23_2 C32_2 1_555 1_555
N4_3 C29_2 1_555 1_555
C29_2 C35_2 1_555 1_555
C9_4 N1_4 1_555 1_555
O3_2 C25_2 1_555 1_555
O5_2 C27_2 1_555 1_555
C16_2 H9_2 1_555 1_555
C18_2 H11_2 1_555 1_555
C19_2 H12_2 1_555 1_555
C21_2 H14_2 1_555 1_555
C22_2 C16_2 1_555 1_555
C24_2 C18_2 1_555 1_555
C25_2 C22_2 1_555 1_555
C27_2 C24_2 1_555 1_555
N4_4 C28_2 1_555 1_555
C28_2 C19_2 1_555 1_555
C30_2 N1_4 1_555 1_555
C31_2 C19_2 1_555 1_555
C33_2 C21_2 1_555 1_555
H15_2 C31_2 1_555 1_555
H17_2 C33_2 1_555 1_555
C34_2 C16_2 1_555 1_555
C36_2 C18_2 1_555 1_555
C37_4 C8_4 1_555 1_555
C38_4 N4_4 1_555 1_555
O8_2 C25_2 1_555 1_555
O10_2 C27_2 1_555 1_555
Zn7 O3_2 1_555 1_555
Zn8 O8_2 1_555 1_555
Zn2 O5_2 1_555 1_555
Zn4 O10_2 1_555 1_555
C21_2 C30_2 1_555 1_555
C22_2 C31_2 1_555 1_555
C24_2 C33_2 1_555 1_555
C28_2 C34_2 1_555 1_555
C30_2 C36_2 1_555 1_555
N2_2 C13_2 1_555 1_555
C12_2 C14_2 1_555 1_555
C13_2 H7_2 1_555 1_555
C14_2 N3_2 1_555 1_555
C15_2 C12_2 1_555 1_555
H8_2 C15_2 1_555 1_555
N3_2 N6_2 1_555 1_555
N5_2 C46_2 1_555 1_555
O11_2 Zn7 1_555 1_555
O12_2 Zn7 1_555 1_555
O13_2 Zn2 1_555 1_555
O14_2 Zn2 1_555 1_555
C45_2 C49_2 1_555 1_555
C46_2 H28_2 1_555 1_555
C47_2 N5_2 1_555 1_555
C48_2 N2_2 1_555 1_555
H27_2 C47_2 1_555 1_555
H29_2 C48_2 1_555 1_555
C49_2 N6_2 1_555 1_555
C50_2 C45_2 1_555 1_555
C51_2 C45_2 1_555 1_555
C52_2 C12_2 1_555 1_555
H30_2 C51_2 1_555 1_555
H31_2 C50_2 1_555 1_555
H32_2 C52_2 1_555 1_555
N7_2 C49_2 1_555 1_555
N8_2 C14_2 1_555 1_555
N2_2 Zn7 1_555 1_555
C13_2 C15_2 1_555 1_555
N5_2 Zn2 1_555 1_555
C46_2 C50_2 1_555 1_555
C47_2 C51_2 1_555 1_555
C48_2 C52_2 1_555 1_555
N7_2 N8_2 1_555 1_555
O3_3 C25_3 1_555 1_555
C16_3 H9_3 1_555 1_555
C19_3 H12_3 1_555 1_555
C22_3 C16_3 1_555 1_555
C25_3 C22_3 1_555 1_555
N4_5 C28_3 1_555 1_555
C28_3 C19_3 1_555 1_555
C31_3 C19_3 1_555 1_555
H15_3 C31_3 1_555 1_555
C34_3 C16_3 1_555 1_555
H18_2 C34_3 1_555 1_555
C38_5 N4_5 1_555 1_555
C40_2 C37_5 1_555 1_555
H22_2 C40_2 1_555 1_555
C43_2 C38_5 1_555 1_555
H24_2 C43_2 1_555 1_555
O12 C25_3 1_555 1_555
Zn3 O3_3 1_555 1_555
C22_3 C31_3 1_555 1_555
C28_3 C34_3 1_555 1_555
C40_2 C43_2 1_555 1_555
O4_2 C26_3 1_555 1_555
O7_2 Zn8 1_555 1_555
C17_3 H10_3 1_555 1_555
C20_3 H13_3 1_555 1_555
C23_3 C17_3 1_555 1_555
C26_3 C23_3 1_555 1_555
C29_3 C20_3 1_555 1_555
C32_3 C20_3 1_555 1_555
H16_3 C32_3 1_555 1_555
C35_3 C17_3 1_555 1_555
H19_2 C35_3 1_555 1_555
C38_6 N4_6 1_555 1_555
C39_2 C37_6 1_555 1_555
H21_2 C39_2 1_555 1_555
C42_2 C38_6 1_555 1_555
H25_2 C42_2 1_555 1_555
N5_3 C46_3 1_555 1_555
O12_2 C26_3 1_555 1_555
C45_3 C49_3 1_555 1_555
C46_3 H28_3 1_555 1_555
C47_3 N5_3 1_555 1_555
H27_3 C47_3 1_555 1_555
C49_3 N6_3 1_555 1_555
C50_3 C45_3 1_555 1_555
C51_3 C45_3 1_555 1_555
H30_3 C51_3 1_555 1_555
H31_3 C50_3 1_555 1_555
N7_3 C49_3 1_555 1_555
Zn8 O4_2 1_555 1_555
C23_3 C32_3 1_555 1_555
N4_6 C29_3 1_555 1_555
C29_3 C35_3 1_555 1_555
C39_2 C42_2 1_555 1_555
N5_3 Zn8 1_555 1_555
C46_3 C50_3 1_555 1_555
C47_3 C51_3 1_555 1_555
C8_5 C10_2 1_555 1_555
C9_5 N1_5 1_555 1_555
C10_2 H5_2 1_555 1_555
C11_2 C9_5 1_555 1_555
H6_2 C11_2 1_555 1_555
O5_3 C27_3 1_555 1_555
C18_3 H11_3 1_555 1_555
C21_3 H14_3 1_555 1_555
C24_3 C18_3 1_555 1_555
C27_3 C24_3 1_555 1_555
C30_3 N1_5 1_555 1_555
C33_3 C21_3 1_555 1_555
H17_3 C33_3 1_555 1_555
C36_3 C18_3 1_555 1_555
H20_2 C36_3 1_555 1_555
O13 C27_3 1_555 1_555
Zn6 O5_3 1_555 1_555
C10_2 C11_2 1_555 1_555
C21_3 C30_3 1_555 1_555
C24_3 C33_3 1_555 1_555
C30_3 C36_3 1_555 1_555
O1_2 C4_3 1_555 1_555
C1_3 H1_3 1_555 1_555
C2_3 H2_3 1_555 1_555
C3_3 C1_3 1_555 1_555
C4_3 C3_3 1_555 1_555
N1_6 C5_3 1_555 1_555
C5_3 C2_3 1_555 1_555
C6_3 C2_3 1_555 1_555
H3_3 C6_3 1_555 1_555
C7_3 C1_3 1_555 1_555
H4_2 C7_3 1_555 1_555
C9_6 N1_6 1_555 1_555
N2_3 C13_3 1_555 1_555
O13_2 C4_3 1_555 1_555
C12_3 C14_3 1_555 1_555
C13_3 H7_3 1_555 1_555
C14_3 N3_3 1_555 1_555
C15_3 C12_3 1_555 1_555
H8_3 C15_3 1_555 1_555
Zn4 O1_2 1_555 1_555
O6_2 Zn4 1_555 1_555
C41_2 C8_6 1_555 1_555
H23_2 C41_2 1_555 1_555
C44_2 C9_6 1_555 1_555
H26_2 C44_2 1_555 1_555
C48_3 N2_3 1_555 1_555
H29_3 C48_3 1_555 1_555
C52_3 C12_3 1_555 1_555
H32_3 C52_3 1_555 1_555
N8_3 C14_3 1_555 1_555
C3_3 C6_3 1_555 1_555
C5_3 C7_3 1_555 1_555
N2_3 Zn4 1_555 1_555
C13_3 C15_3 1_555 1_555
C41_2 C44_2 1_555 1_555
C48_3 C52_3 1_555 1_555
O7_2 C4_4 1_555 1_555
C1_4 H1_4 1_555 1_555
C2_4 H2_4 1_555 1_555
C3_4 C1_4 1_555 1_555
C4_4 C3_4 1_555 1_555
N1_7 C5_4 1_555 1_555
C5_4 C2_4 1_555 1_555
C6_4 C2_4 1_555 1_555
H3_4 C6_4 1_555 1_555
C7_4 C1_4 1_555 1_555
H4_3 C7_4 1_555 1_555
C8_7 C10_3 1_555 1_555
C9_7 N1_7 1_555 1_555
C10_3 H5_3 1_555 1_555
C11_3 C9_7 1_555 1_555
H6_3 C11_3 1_555 1_555
O11_2 C4_4 1_555 1_555
O5_4 C27_4 1_555 1_555
C18_4 H11_4 1_555 1_555
C21_4 H14_4 1_555 1_555
C24_4 C18_4 1_555 1_555
C27_4 C24_4 1_555 1_555
C30_4 N1_7 1_555 1_555
C33_4 C21_4 1_555 1_555
H17_4 C33_4 1_555 1_555
C36_4 C18_4 1_555 1_555
H20_3 C36_4 1_555 1_555
C41_3 C8_7 1_555 1_555
H23_3 C41_3 1_555 1_555
C44_3 C9_7 1_555 1_555
H26_3 C44_3 1_555 1_555
O11 C27_4 1_555 1_555
Zn3 O5_4 1_555 1_555
C3_4 C6_4 1_555 1_555
C5_4 C7_4 1_555 1_555
C10_3 C11_3 1_555 1_555
C21_4 C30_4 1_555 1_555
C24_4 C33_4 1_555 1_555
C30_4 C36_4 1_555 1_555
C41_3 C44_3 1_555 1_555
O3_4 C25_4 1_555 1_555
O6_2 C26_4 1_555 1_555
C16_4 H9_4 1_555 1_555
C17_4 H10_4 1_555 1_555
C19_4 H12_4 1_555 1_555
C20_4 H13_4 1_555 1_555
C22_4 C16_4 1_555 1_555
C23_4 C17_4 1_555 1_555
C25_4 C22_4 1_555 1_555
C26_4 C23_4 1_555 1_555
N4_7 C28_4 1_555 1_555
C28_4 C19_4 1_555 1_555
C29_4 C20_4 1_555 1_555
C31_4 C19_4 1_555 1_555
C32_4 C20_4 1_555 1_555
H15_4 C31_4 1_555 1_555
H16_4 C32_4 1_555 1_555
C34_4 C16_4 1_555 1_555
C35_4 C17_4 1_555 1_555
H18_3 C34_4 1_555 1_555
H19_3 C35_4 1_555 1_555
C38_7 N4_7 1_555 1_555
C39_3 C37_7 1_555 1_555
C40_3 C37_7 1_555 1_555
H21_3 C39_3 1_555 1_555
H22_3 C40_3 1_555 1_555
C42_3 C38_7 1_555 1_555
C43_3 C38_7 1_555 1_555
H24_3 C43_3 1_555 1_555
H25_3 C42_3 1_555 1_555
O14 C25_4 1_555 1_555
O14_2 C26_4 1_555 1_555
Zn6 O3_4 1_555 1_555
C22_4 C31_4 1_555 1_555
C23_4 C32_4 1_555 1_555
N4_7 C29_4 1_555 1_555
C28_4 C34_4 1_555 1_555
C29_4 C35_4 1_555 1_555
C39_3 C42_3 1_555 1_555
C40_3 C43_3 1_555 1_555
N5_4 C46_4 1_555 1_555
C45_4 C49_4 1_555 1_555
C46_4 H28_4 1_555 1_555
C47_4 N5_4 1_555 1_555
H27_4 C47_4 1_555 1_555
C49_4 N6_4 1_555 1_555
C50_4 C45_4 1_555 1_555
C51_4 C45_4 1_555 1_555
H30_4 C51_4 1_555 1_555
H31_4 C50_4 1_555 1_555
N7_4 C49_4 1_555 1_555
N5_4 Zn3 1_555 1_555
C46_4 C50_4 1_555 1_555
C47_4 C51_4 1_555 1_555
N2_4 C13_4 1_555 1_555
C12_4 C14_4 1_555 1_555
C13_4 H7_4 1_555 1_555
C14_4 N3_4 1_555 1_555
C15_4 C12_4 1_555 1_555
H8_4 C15_4 1_555 1_555
C48_4 N2_4 1_555 1_555
H29_4 C48_4 1_555 1_555
C52_4 C12_4 1_555 1_555
H32_4 C52_4 1_555 1_555
N8_4 C14_4 1_555 1_555
N2_4 Zn6 1_555 1_555
C13_4 C15_4 1_555 1_555
C48_4 C52_4 1_555 1_555
C9_8 N1_8 1_555 1_555
C37_8 C8_8 1_555 1_555
C38_8 N4_8 1_555 1_555
C39_4 C37_8 1_555 1_555
C41_4 C8_8 1_555 1_555
H21_4 C39_4 1_555 1_555
H23_4 C41_4 1_555 1_555
C42_4 C38_8 1_555 1_555
C44_4 C9_8 1_555 1_555
H25_4 C42_4 1_555 1_555
H26_4 C44_4 1_555 1_555
C39_4 C42_4 1_555 1_555
C41_4 C44_4 1_555 1_555
C8_9 C10_4 1_555 1_555
C9_9 N1_9 1_555 1_555
C10_4 H5_4 1_555 1_555
C11_4 C9_9 1_555 1_555
H6_4 C11_4 1_555 1_555
C37_9 C8_9 1_555 1_555
C38_9 N4_9 1_555 1_555
C40_4 C37_9 1_555 1_555
H22_4 C40_4 1_555 1_555
C43_4 C38_9 1_555 1_555
H24_4 C43_4 1_555 1_555
C10_4 C11_4 1_555 1_555
C40_4 C43_4 1_555 1_555

#END
