
###############################################################################
#
# This file contains modified crystal structure data generated from the
# MOF subset of the Cambridge Structural Database (CSD) v543 
# hosted by the Cambridge Crystallographic Data Centre (CCDC).
#
# This work is licensed under the Creative Commons
# Attribution-NonCommercial-ShareAlike 4.0 International License.
# To view a copy of this license, visit
# http://creativecommons.org/licenses/by-nc-sa/4.0/
# or send a letter to
# Creative Commons, PO Box 1866, Mountain View, CA 94042, USA.
#
# CIF created using the CSD Python API on 29 September 2022
# The structure has been converted into the P1 space group
# The structure has a 3D framework
# The original CSD entry VAGMOH is in the orthorhombic crystal system
# The framework has been calculated to contain at least 10.0% void space
# The void calculation uses a probe of radius 1.32A, grid spacing 0.4
#
###############################################################################

data_VAGMOH
_chemical_formula_moiety         '(C208 H128 N32 O26 Zn8)n'
_symmetry_cell_setting           triclinic
_symmetry_space_group_name_H-M   'P 1'
_symmetry_Int_Tables_number      1
_space_group_name_Hall           'P 1'
loop_
_symmetry_equiv_pos_site_id
_symmetry_equiv_pos_as_xyz
1 x,y,z
_cell_length_a                   34.103(7)
_cell_length_b                   23.758(5)
_cell_length_c                   17.033(3)
_cell_angle_alpha                90
_cell_angle_beta                 90
_cell_angle_gamma                90
_cell_volume                     13800.5
loop_
_atom_site_label
_atom_site_type_symbol
_atom_site_fract_x
_atom_site_fract_y
_atom_site_fract_z
Zn7 Zn 0.03378(2) 0.49436(4) 0.05195(8)
O8 O 0.00496(18) 0.0422(2) 0.3697(4)
O12 O 0.00594(16) 0.4264(2) 0.0994(4)
Zn3 Zn 0.03378(2) 0.99436(4) 0.44805(8)
O1 O 0.5436(3) 0.0483(3) 0.4647(7)
O2 O 0.49504(18) 0.0422(2) 0.3697(4)
N2 N 0.6046(4) 0.2197(5) 0.1841(8)
C1 C 0.7278(3) 0.2211(8) 0.1849(7)
C2 C 0.5301(4) 0.0605(6) 0.3959(11)
C3 C 0.5329(3) 0.1177(6) 0.2719(14)
H1 H 0.5083 0.1022 0.2568
C4 C 0.5838(4) 0.1240(5) 0.3638(6)
H2 H 0.5966 0.1152 0.4118
C5 C 0.6467(4) 0.2189(7) 0.1915(8)
C6 C 0.6660(5) 0.1750(6) 0.1680(7)
H3 H 0.6521 0.1424 0.1515
C7 C 0.5327(2) 0.3347(6) 0.1566(9)
H4 H 0.5091 0.3477 0.1801
C8 C 0.6646(4) 0.2636(7) 0.2107(7)
H5 H 0.65 0.2951 0.2285
C10 C 0.5467(4) 0.1002(7) 0.3396(13)
C11 C 0.5832(4) 0.2636(8) 0.1568(9)
C12 C 0.5843(5) 0.1836(7) 0.2383(11)
C13 C 0.5451(3) 0.3618(5) 0.0929(9)
C14 C 0.5493(4) 0.1555(6) 0.2199(7)
H6 H 0.5367 0.1626 0.1711
C15 C 0.7070(5) 0.2675(6) 0.2059(7)
H7 H 0.72 0.302 0.2174
C16 C 0.5510(4) 0.2899(6) 0.1915(6)
H8 H 0.5415 0.2764 0.2405
C18 C 0.7068(6) 0.1748(6) 0.1667(7)
H9 H 0.7202 0.1412 0.1527
C20 C 0.5993(3) 0.1637(6) 0.3052(15)
H11 H 0.6247 0.1779 0.3172
C24 C 0.5779(3) 0.3376(5) 0.0558(6)
H15 H 0.5878 0.3532 0.0085
C25 C 0.5961(3) 0.2892(5) 0.0902(10)
H16 H 0.6185 0.274 0.0649
O3 O 0.54136(15) 0.4348(3) 0.0099(4)
O4 O 0.49406(16) 0.4264(2) 0.0994(4)
C26 C 0.5275(3) 0.4119(6) 0.0633(7)
Zn4 Zn 0.53378(2) 0.00564(4) 0.55195(8)
Zn5 Zn 0.46622(2) 0.49436(4) 0.05195(8)
Zn6 Zn 0.96622(2) 0.00564(4) 0.55195(8)
O5 O 0.9564(3) 0.0483(3) 0.4647(7)
O6 O 0.5436(3) 0.5483(3) 0.0353(7)
O7 O 0.9564(3) 0.5483(3) 0.0353(7)
N6 N 0.8954(4) 0.2197(5) 0.1841(8)
C27 C 0.7722(3) 0.2211(8) 0.1849(7)
C28 C 0.9699(4) 0.0605(6) 0.3959(11)
C29 C 0.9671(3) 0.1177(6) 0.2719(14)
H17 H 0.9917 0.1022 0.2568
C30 C 0.9162(4) 0.1240(5) 0.3638(6)
H18 H 0.9034 0.1152 0.4118
C31 C 0.8533(4) 0.2189(7) 0.1915(8)
C32 C 0.8340(5) 0.1750(6) 0.1680(7)
H19 H 0.8479 0.1424 0.1515
C33 C 0.9673(2) 0.3347(6) 0.1566(9)
H20 H 0.9909 0.3477 0.1801
C34 C 0.8354(4) 0.2636(7) 0.2107(7)
H21 H 0.85 0.2951 0.2285
C36 C 0.9533(4) 0.1002(7) 0.3396(13)
C37 C 0.9168(4) 0.2636(8) 0.1568(9)
C38 C 0.9157(5) 0.1836(7) 0.2383(11)
C39 C 0.9549(3) 0.3618(5) 0.0929(9)
C40 C 0.9507(4) 0.1555(6) 0.2199(7)
H22 H 0.9633 0.1626 0.1711
C41 C 0.7930(5) 0.2675(6) 0.2059(7)
H23 H 0.78 0.302 0.2174
C42 C 0.9490(4) 0.2899(6) 0.1915(6)
H24 H 0.9585 0.2764 0.2405
C44 C 0.7932(6) 0.1748(6) 0.1667(7)
H25 H 0.7798 0.1412 0.1527
C46 C 0.9007(3) 0.1637(6) 0.3052(15)
H27 H 0.8753 0.1779 0.3172
C50 C 0.9221(3) 0.3376(5) 0.0558(6)
H31 H 0.9122 0.3532 0.0085
C51 C 0.9039(3) 0.2892(5) 0.0902(10)
H32 H 0.8815 0.274 0.0649
O11 O 0.95864(15) 0.4348(3) 0.0099(4)
C52 C 0.9725(3) 0.4119(6) 0.0633(7)
Zn1 Zn 0.53378(2) 0.50564(4) 0.94805(8)
N1 N 0.5883(2) 0.5120(6) 0.9042(5)
C9 C 0.6734(4) 0.5139(6) 0.8772(7)
N3 N 0.7297(2) 0.4649(4) 0.8474(5)
C17 C 0.7130(3) 0.5156(5) 0.8619(7)
N4 N 0.7298(2) 0.5615(4) 0.8607(6)
C19 C 0.6129(6) 0.5574(5) 0.9066(6)
H10 H 0.601 0.5924 0.9195
C21 C 0.6481(5) 0.5589(5) 0.8942(7)
H12 H 0.6599 0.5951 0.8964
C22 C 0.6103(6) 0.4644(6) 0.8828(7)
H13 H 0.5962 0.43 0.8805
C23 C 0.6486(5) 0.4610(6) 0.8653(7)
H14 H 0.6598 0.427 0.8462
Zn2 Zn 0.96622(2) 0.50564(4) 0.94805(8)
O9 O 0.99504(18) 0.4578(2) 0.8697(4)
O10 O 0.50496(18) 0.4578(2) 0.8697(4)
N5 N 0.9117(2) 0.5120(6) 0.9042(5)
C35 C 0.8266(4) 0.5139(6) 0.8772(7)
N7 N 0.7703(2) 0.4649(4) 0.8474(5)
C43 C 0.7870(3) 0.5156(5) 0.8619(7)
N8 N 0.7702(2) 0.5615(4) 0.8607(6)
C45 C 0.8871(6) 0.5574(5) 0.9066(6)
H26 H 0.899 0.5924 0.9195
C47 C 0.8519(5) 0.5589(5) 0.8942(7)
H28 H 0.8401 0.5951 0.8964
C48 C 0.8897(6) 0.4644(6) 0.8828(7)
H29 H 0.9038 0.43 0.8805
C49 C 0.8514(5) 0.4610(6) 0.8653(7)
H30 H 0.8402 0.427 0.8462
O13 O 0.50594(16) 0.5736(2) 0.9006(4)
O14 O 0.99406(16) 0.5736(2) 0.9006(4)
Zn8 Zn 0.46622(2) 0.99436(4) 0.44805(8)
O2_2 O 0.00496(18) 0.5422(2) 0.1303(4)
O4_2 O 0.00594(16) 0.9264(2) 0.4006(4)
N1_2 N 0.9117(2) 0.0120(6) 0.5958(5)
C9_2 C 0.8266(4) 0.0139(6) 0.6228(7)
C17_2 C 0.7870(3) 0.0156(5) 0.6381(7)
N4_2 N 0.7702(2) 0.0615(4) 0.6393(6)
C19_2 C 0.8871(6) 0.0574(5) 0.5934(6)
H10_2 H 0.899 0.0924 0.5805
C21_2 C 0.8519(5) 0.0589(5) 0.6058(7)
H12_2 H 0.8401 0.0951 0.6036
N5_2 N 0.5883(2) 0.0120(6) 0.5958(5)
C35_2 C 0.6734(4) 0.0139(6) 0.6228(7)
C43_2 C 0.7130(3) 0.0156(5) 0.6381(7)
N8_2 N 0.7298(2) 0.0615(4) 0.6393(6)
C45_2 C 0.6129(6) 0.0574(5) 0.5934(6)
H26_2 H 0.601 0.0924 0.5805
C47_2 C 0.6481(5) 0.0589(5) 0.6058(7)
H28_2 H 0.6599 0.0951 0.6036
O13_2 O 0.99406(16) 0.0736(2) 0.5994(4)
O14_2 O 0.50594(16) 0.0736(2) 0.5994(4)
N2_2 N 0.8954(4) 0.7197(5) 0.3159(8)
C1_2 C 0.7722(3) 0.7211(8) 0.3151(7)
C2_2 C 0.9699(4) 0.5605(6) 0.1041(11)
C3_2 C 0.9671(3) 0.6177(6) 0.2281(14)
H1_2 H 0.9917 0.6022 0.2432
C4_2 C 0.9162(4) 0.6240(5) 0.1362(6)
H2_2 H 0.9034 0.6152 0.0882
C5_2 C 0.8533(4) 0.7189(7) 0.3085(8)
C6_2 C 0.8340(5) 0.6750(6) 0.3320(7)
H3_2 H 0.8479 0.6424 0.3485
C7_2 C 0.9673(2) 0.8347(6) 0.3434(9)
H4_2 H 0.9909 0.8477 0.3199
C8_2 C 0.8354(4) 0.7636(7) 0.2893(7)
H5_2 H 0.85 0.7951 0.2715
C10_2 C 0.9533(4) 0.6002(7) 0.1604(13)
C11_2 C 0.9168(4) 0.7636(8) 0.3432(9)
C12_2 C 0.9157(5) 0.6836(7) 0.2617(11)
C13_2 C 0.9549(3) 0.8618(5) 0.4071(9)
C14_2 C 0.9507(4) 0.6555(6) 0.2801(7)
H6_2 H 0.9633 0.6626 0.3289
C15_2 C 0.7930(5) 0.7675(6) 0.2941(7)
H7_2 H 0.78 0.802 0.2826
C16_2 C 0.9490(4) 0.7899(6) 0.3085(6)
H8_2 H 0.9585 0.7764 0.2595
N3_2 N 0.7703(2) 0.9649(4) 0.6526(5)
C18_2 C 0.7932(6) 0.6748(6) 0.3333(7)
H9_2 H 0.7798 0.6412 0.3473
C20_2 C 0.9007(3) 0.6637(6) 0.1948(15)
H11_2 H 0.8753 0.6779 0.1828
C22_2 C 0.8897(6) 0.9644(6) 0.6172(7)
H13_2 H 0.9038 0.93 0.6195
C23_2 C 0.8514(5) 0.9610(6) 0.6347(7)
H14_2 H 0.8402 0.927 0.6538
C24_2 C 0.9221(3) 0.8376(5) 0.4442(6)
H15_2 H 0.9122 0.8532 0.4915
C25_2 C 0.9039(3) 0.7892(5) 0.4098(10)
H16_2 H 0.8815 0.774 0.4351
O3_2 O 0.95864(15) 0.9348(3) 0.4901(4)
C26_2 C 0.9725(3) 0.9119(6) 0.4367(7)
O8_2 O 0.49504(18) 0.5422(2) 0.1303(4)
O9_2 O 0.50496(18) 0.9578(2) 0.6303(4)
O10_2 O 0.99504(18) 0.9578(2) 0.6303(4)
N6_2 N 0.6046(4) 0.7197(5) 0.3159(8)
C27_2 C 0.7278(3) 0.7211(8) 0.3151(7)
C28_2 C 0.5301(4) 0.5605(6) 0.1041(11)
C29_2 C 0.5329(3) 0.6177(6) 0.2281(14)
H17_2 H 0.5083 0.6022 0.2432
C30_2 C 0.5838(4) 0.6240(5) 0.1362(6)
H18_2 H 0.5966 0.6152 0.0882
C31_2 C 0.6467(4) 0.7189(7) 0.3085(8)
C32_2 C 0.6660(5) 0.6750(6) 0.3320(7)
H19_2 H 0.6521 0.6424 0.3485
C33_2 C 0.5327(2) 0.8347(6) 0.3434(9)
H20_2 H 0.5091 0.8477 0.3199
C34_2 C 0.6646(4) 0.7636(7) 0.2893(7)
H21_2 H 0.65 0.7951 0.2715
C36_2 C 0.5467(4) 0.6002(7) 0.1604(13)
C37_2 C 0.5832(4) 0.7636(8) 0.3432(9)
C38_2 C 0.5843(5) 0.6836(7) 0.2617(11)
C39_2 C 0.5451(3) 0.8618(5) 0.4071(9)
C40_2 C 0.5493(4) 0.6555(6) 0.2801(7)
H22_2 H 0.5367 0.6626 0.3289
C41_2 C 0.7070(5) 0.7675(6) 0.2941(7)
H23_2 H 0.72 0.802 0.2826
C42_2 C 0.5510(4) 0.7899(6) 0.3085(6)
H24_2 H 0.5415 0.7764 0.2595
N7_2 N 0.7297(2) 0.9649(4) 0.6526(5)
C44_2 C 0.7068(6) 0.6748(6) 0.3333(7)
H25_2 H 0.7202 0.6412 0.3473
C46_2 C 0.5993(3) 0.6637(6) 0.1948(15)
H27_2 H 0.6247 0.6779 0.1828
C48_2 C 0.6103(6) 0.9644(6) 0.6172(7)
H29_2 H 0.5962 0.93 0.6195
C49_2 C 0.6486(5) 0.9610(6) 0.6347(7)
H30_2 H 0.6598 0.927 0.6538
C50_2 C 0.5779(3) 0.8376(5) 0.4442(6)
H31_2 H 0.5878 0.8532 0.4915
C51_2 C 0.5961(3) 0.7892(5) 0.4098(10)
H32_2 H 0.6185 0.774 0.4351
O11_2 O 0.54136(15) 0.9348(3) 0.4901(4)
O12_2 O 0.49406(16) 0.9264(2) 0.4006(4)
C52_2 C 0.5275(3) 0.9119(6) 0.4367(7)
N1_3 N 0.0883(2) 0.4880(6) 0.0958(5)
C9_3 C 0.1734(4) 0.4861(6) 0.1228(7)
N3_3 N 0.2297(2) 0.5351(4) 0.1526(5)
C17_3 C 0.2130(3) 0.4844(5) 0.1381(7)
N4_3 N 0.2298(2) 0.4385(4) 0.1393(6)
C19_3 C 0.1129(6) 0.4426(5) 0.0934(6)
H10_3 H 0.101 0.4076 0.0805
C21_3 C 0.1481(5) 0.4411(5) 0.1058(7)
H12_3 H 0.1599 0.4049 0.1036
C22_3 C 0.1103(6) 0.5356(6) 0.1172(7)
H13_3 H 0.0962 0.57 0.1195
C23_3 C 0.1486(5) 0.5390(6) 0.1347(7)
H14_3 H 0.1598 0.573 0.1538
N5_3 N 0.4117(2) 0.4880(6) 0.0958(5)
C35_3 C 0.3266(4) 0.4861(6) 0.1228(7)
N7_3 N 0.2703(2) 0.5351(4) 0.1526(5)
C43_3 C 0.2870(3) 0.4844(5) 0.1381(7)
N8_3 N 0.2702(2) 0.4385(4) 0.1393(6)
C45_3 C 0.3871(6) 0.4426(5) 0.0934(6)
H26_3 H 0.399 0.4076 0.0805
C47_3 C 0.3519(5) 0.4411(5) 0.1058(7)
H28_3 H 0.3401 0.4049 0.1036
C48_3 C 0.3897(6) 0.5356(6) 0.1172(7)
H29_3 H 0.4038 0.57 0.1195
C49_3 C 0.3514(5) 0.5390(6) 0.1347(7)
H30_3 H 0.3402 0.573 0.1538
O1_2 O 0.0436(3) 0.9517(3) 0.5353(7)
N2_3 N 0.1046(4) 0.7803(5) 0.8159(8)
C1_3 C 0.2278(3) 0.7789(8) 0.8151(7)
C2_3 C 0.0301(4) 0.9395(6) 0.6041(11)
C3_3 C 0.0329(3) 0.8823(6) 0.7281(14)
H1_3 H 0.0083 0.8978 0.7432
C4_3 C 0.0838(4) 0.8760(5) 0.6362(6)
H2_3 H 0.0966 0.8848 0.5882
C5_3 C 0.1467(4) 0.7811(7) 0.8085(8)
C6_3 C 0.1660(5) 0.8250(6) 0.8320(7)
H3_3 H 0.1521 0.8576 0.8485
C7_3 C 0.0327(2) 0.6653(6) 0.8434(9)
H4_3 H 0.0091 0.6523 0.8199
C8_3 C 0.1646(4) 0.7364(7) 0.7893(7)
H5_3 H 0.15 0.7049 0.7715
C10_3 C 0.0467(4) 0.8998(7) 0.6604(13)
C11_3 C 0.0832(4) 0.7364(8) 0.8432(9)
C12_3 C 0.0843(5) 0.8164(7) 0.7617(11)
C13_3 C 0.0451(3) 0.6382(5) 0.9071(9)
C14_3 C 0.0493(4) 0.8445(6) 0.7801(7)
H6_3 H 0.0367 0.8374 0.8289
C15_3 C 0.2070(5) 0.7325(6) 0.7941(7)
H7_3 H 0.22 0.698 0.7826
C16_3 C 0.0510(4) 0.7101(6) 0.8085(6)
H8_3 H 0.0415 0.7236 0.7595
C18_3 C 0.2068(6) 0.8252(6) 0.8333(7)
H9_3 H 0.2202 0.8588 0.8473
C20_3 C 0.0993(3) 0.8363(6) 0.6948(15)
H11_3 H 0.1247 0.8221 0.6828
C24_3 C 0.0779(3) 0.6624(5) 0.9442(6)
H15_3 H 0.0878 0.6468 0.9915
C25_3 C 0.0961(3) 0.7108(5) 0.9098(10)
H16_3 H 0.1185 0.726 0.9351
O3_3 O 0.04136(15) 0.5652(3) 0.9901(4)
C26_3 C 0.0275(3) 0.5881(6) 0.9367(7)
O5_2 O 0.4564(3) 0.9517(3) 0.5353(7)
O6_2 O 0.0436(3) 0.4517(3) 0.9647(7)
O7_2 O 0.4564(3) 0.4517(3) 0.9647(7)
N6_3 N 0.3954(4) 0.7803(5) 0.8159(8)
C27_3 C 0.2722(3) 0.7789(8) 0.8151(7)
C28_3 C 0.4699(4) 0.9395(6) 0.6041(11)
C29_3 C 0.4671(3) 0.8823(6) 0.7281(14)
H17_3 H 0.4917 0.8978 0.7432
C30_3 C 0.4162(4) 0.8760(5) 0.6362(6)
H18_3 H 0.4034 0.8848 0.5882
C31_3 C 0.3533(4) 0.7811(7) 0.8085(8)
C32_3 C 0.3340(5) 0.8250(6) 0.8320(7)
H19_3 H 0.3479 0.8576 0.8485
C33_3 C 0.4673(2) 0.6653(6) 0.8434(9)
H20_3 H 0.4909 0.6523 0.8199
C34_3 C 0.3354(4) 0.7364(7) 0.7893(7)
H21_3 H 0.35 0.7049 0.7715
C36_3 C 0.4533(4) 0.8998(7) 0.6604(13)
C37_3 C 0.4168(4) 0.7364(8) 0.8432(9)
C38_3 C 0.4157(5) 0.8164(7) 0.7617(11)
C39_3 C 0.4549(3) 0.6382(5) 0.9071(9)
C40_3 C 0.4507(4) 0.8445(6) 0.7801(7)
H22_3 H 0.4633 0.8374 0.8289
C41_3 C 0.2930(5) 0.7325(6) 0.7941(7)
H23_3 H 0.28 0.698 0.7826
C42_3 C 0.4490(4) 0.7101(6) 0.8085(6)
H24_3 H 0.4585 0.7236 0.7595
C44_3 C 0.2932(6) 0.8252(6) 0.8333(7)
H25_3 H 0.2798 0.8588 0.8473
C46_3 C 0.4007(3) 0.8363(6) 0.6948(15)
H27_3 H 0.3753 0.8221 0.6828
C50_3 C 0.4221(3) 0.6624(5) 0.9442(6)
H31_3 H 0.4122 0.6468 0.9915
C51_3 C 0.4039(3) 0.7108(5) 0.9098(10)
H32_3 H 0.3815 0.726 0.9351
O11_3 O 0.45864(15) 0.5652(3) 0.9901(4)
C52_3 C 0.4725(3) 0.5881(6) 0.9367(7)
N2_4 N 0.3954(4) 0.2803(5) 0.6841(8)
C1_4 C 0.2722(3) 0.2789(8) 0.6849(7)
C2_4 C 0.4699(4) 0.4395(6) 0.8959(11)
C3_4 C 0.4671(3) 0.3823(6) 0.7719(14)
H1_4 H 0.4917 0.3978 0.7568
C4_4 C 0.4162(4) 0.3760(5) 0.8638(6)
H2_4 H 0.4034 0.3848 0.9118
C5_4 C 0.3533(4) 0.2811(7) 0.6915(8)
C6_4 C 0.3340(5) 0.3250(6) 0.6680(7)
H3_4 H 0.3479 0.3576 0.6515
C7_4 C 0.4673(2) 0.1653(6) 0.6566(9)
H4_4 H 0.4909 0.1523 0.6801
C8_4 C 0.3354(4) 0.2364(7) 0.7107(7)
H5_4 H 0.35 0.2049 0.7285
C10_4 C 0.4533(4) 0.3998(7) 0.8396(13)
C11_4 C 0.4168(4) 0.2364(8) 0.6568(9)
C12_4 C 0.4157(5) 0.3164(7) 0.7383(11)
C13_4 C 0.4549(3) 0.1382(5) 0.5929(9)
C14_4 C 0.4507(4) 0.3445(6) 0.7199(7)
H6_4 H 0.4633 0.3374 0.6711
C15_4 C 0.2930(5) 0.2325(6) 0.7059(7)
H7_4 H 0.28 0.198 0.7174
C16_4 C 0.4490(4) 0.2101(6) 0.6915(6)
H8_4 H 0.4585 0.2236 0.7405
N3_4 N 0.2703(2) 0.0351(4) 0.3474(5)
C18_4 C 0.2932(6) 0.3252(6) 0.6667(7)
H9_4 H 0.2798 0.3588 0.6527
C20_4 C 0.4007(3) 0.3363(6) 0.8052(15)
H11_4 H 0.3753 0.3221 0.8172
C22_4 C 0.3897(6) 0.0356(6) 0.3828(7)
H13_4 H 0.4038 0.07 0.3805
C23_4 C 0.3514(5) 0.0390(6) 0.3653(7)
H14_4 H 0.3402 0.073 0.3462
C24_4 C 0.4221(3) 0.1624(5) 0.5558(6)
H15_4 H 0.4122 0.1468 0.5085
C25_4 C 0.4039(3) 0.2108(5) 0.5902(10)
H16_4 H 0.3815 0.226 0.5649
O3_4 O 0.45864(15) 0.0652(3) 0.5099(4)
C26_4 C 0.4725(3) 0.0881(6) 0.5633(7)
N6_4 N 0.1046(4) 0.2803(5) 0.6841(8)
C27_4 C 0.2278(3) 0.2789(8) 0.6849(7)
C28_4 C 0.0301(4) 0.4395(6) 0.8959(11)
C29_4 C 0.0329(3) 0.3823(6) 0.7719(14)
H17_4 H 0.0083 0.3978 0.7568
C30_4 C 0.0838(4) 0.3760(5) 0.8638(6)
H18_4 H 0.0966 0.3848 0.9118
C31_4 C 0.1467(4) 0.2811(7) 0.6915(8)
C32_4 C 0.1660(5) 0.3250(6) 0.6680(7)
H19_4 H 0.1521 0.3576 0.6515
C33_4 C 0.0327(2) 0.1653(6) 0.6566(9)
H20_4 H 0.0091 0.1523 0.6801
C34_4 C 0.1646(4) 0.2364(7) 0.7107(7)
H21_4 H 0.15 0.2049 0.7285
C36_4 C 0.0467(4) 0.3998(7) 0.8396(13)
C37_4 C 0.0832(4) 0.2364(8) 0.6568(9)
C38_4 C 0.0843(5) 0.3164(7) 0.7383(11)
C39_4 C 0.0451(3) 0.1382(5) 0.5929(9)
C40_4 C 0.0493(4) 0.3445(6) 0.7199(7)
H22_4 H 0.0367 0.3374 0.6711
C41_4 C 0.2070(5) 0.2325(6) 0.7059(7)
H23_4 H 0.22 0.198 0.7174
C42_4 C 0.0510(4) 0.2101(6) 0.6915(6)
H24_4 H 0.0415 0.2236 0.7405
N7_4 N 0.2297(2) 0.0351(4) 0.3474(5)
C44_4 C 0.2068(6) 0.3252(6) 0.6667(7)
H25_4 H 0.2202 0.3588 0.6527
C46_4 C 0.0993(3) 0.3363(6) 0.8052(15)
H27_4 H 0.1247 0.3221 0.8172
C48_4 C 0.1103(6) 0.0356(6) 0.3828(7)
H29_4 H 0.0962 0.07 0.3805
C49_4 C 0.1486(5) 0.0390(6) 0.3653(7)
H30_4 H 0.1598 0.073 0.3462
C50_4 C 0.0779(3) 0.1624(5) 0.5558(6)
H31_4 H 0.0878 0.1468 0.5085
C51_4 C 0.0961(3) 0.2108(5) 0.5902(10)
H32_4 H 0.1185 0.226 0.5649
O11_4 O 0.04136(15) 0.0652(3) 0.5099(4)
C52_4 C 0.0275(3) 0.0881(6) 0.5633(7)
N1_4 N 0.4117(2) 0.9880(6) 0.4042(5)
C9_4 C 0.3266(4) 0.9861(6) 0.3772(7)
C17_4 C 0.2870(3) 0.9844(5) 0.3619(7)
N4_4 N 0.2702(2) 0.9385(4) 0.3607(6)
C19_4 C 0.3871(6) 0.9426(5) 0.4066(6)
H10_4 H 0.399 0.9076 0.4195
C21_4 C 0.3519(5) 0.9411(5) 0.3942(7)
H12_4 H 0.3401 0.9049 0.3964
N5_4 N 0.0883(2) 0.9880(6) 0.4042(5)
C35_4 C 0.1734(4) 0.9861(6) 0.3772(7)
C43_4 C 0.2130(3) 0.9844(5) 0.3619(7)
N8_4 N 0.2298(2) 0.9385(4) 0.3607(6)
C45_4 C 0.1129(6) 0.9426(5) 0.4066(6)
H26_4 H 0.101 0.9076 0.4195
C47_4 C 0.1481(5) 0.9411(5) 0.3942(7)
H28_4 H 0.1599 0.9049 0.3964
loop_
_geom_bond_atom_site_label_1
_geom_bond_atom_site_label_2
_geom_bond_site_symmetry_1
_geom_bond_site_symmetry_2
Zn7 O12 1_555 1_555
O1 C2 1_555 1_555
O2 C2 1_555 1_555
N2 C5 1_555 1_555
C1 C15 1_555 1_555
C2 C10 1_555 1_555
C3 H1 1_555 1_555
C4 H2 1_555 1_555
C5 C6 1_555 1_555
C6 H3 1_555 1_555
C7 H4 1_555 1_555
C8 C5 1_555 1_555
H5 C8 1_555 1_555
C10 C3 1_555 1_555
C11 N2 1_555 1_555
C12 N2 1_555 1_555
C13 C7 1_555 1_555
C14 C3 1_555 1_555
H6 C14 1_555 1_555
C15 C8 1_555 1_555
H7 C15 1_555 1_555
C16 C7 1_555 1_555
H8 C16 1_555 1_555
C18 C1 1_555 1_555
H9 C18 1_555 1_555
C20 C4 1_555 1_555
H11 C20 1_555 1_555
C24 C13 1_555 1_555
H15 C24 1_555 1_555
C25 C11 1_555 1_555
H16 C25 1_555 1_555
O4 C26 1_555 1_555
C26 C13 1_555 1_555
Zn4 O1 1_555 1_555
Zn5 O4 1_555 1_555
Zn6 O5 1_555 1_555
O5 C28 1_555 1_555
N6 C31 1_555 1_555
C27 C1 1_555 1_555
C28 C36 1_555 1_555
C29 H17 1_555 1_555
C30 H18 1_555 1_555
C31 C32 1_555 1_555
C32 H19 1_555 1_555
C33 H20 1_555 1_555
C34 C31 1_555 1_555
H21 C34 1_555 1_555
C36 C29 1_555 1_555
C37 N6 1_555 1_555
C38 N6 1_555 1_555
C39 C33 1_555 1_555
C40 C29 1_555 1_555
H22 C40 1_555 1_555
C41 C27 1_555 1_555
H23 C41 1_555 1_555
C42 C33 1_555 1_555
H24 C42 1_555 1_555
C44 C27 1_555 1_555
H25 C44 1_555 1_555
C46 C30 1_555 1_555
H27 C46 1_555 1_555
C50 C39 1_555 1_555
H31 C50 1_555 1_555
C51 C37 1_555 1_555
H32 C51 1_555 1_555
C52 C39 1_555 1_555
C4 C10 1_555 1_555
C6 C18 1_555 1_555
C11 C16 1_555 1_555
C12 C14 1_555 1_555
C12 C20 1_555 1_555
C24 C25 1_555 1_555
O3 C26 1_555 1_555
C30 C36 1_555 1_555
C32 C44 1_555 1_555
C34 C41 1_555 1_555
C37 C42 1_555 1_555
C38 C40 1_555 1_555
C38 C46 1_555 1_555
C50 C51 1_555 1_555
O11 C52 1_555 1_555
Zn1 N1 1_555 1_555
N1 C19 1_555 1_555
C9 C17 1_555 1_555
N3 C17 1_555 1_555
C17 N4 1_555 1_555
N4 N8 1_555 1_555
C19 H10 1_555 1_555
C21 C9 1_555 1_555
H12 C21 1_555 1_555
C22 N1 1_555 1_555
H13 C22 1_555 1_555
C23 C9 1_555 1_555
H14 C23 1_555 1_555
O9 Zn2 1_555 1_555
O10 Zn1 1_555 1_555
N5 Zn2 1_555 1_555
C35 C43 1_555 1_555
N7 N3 1_555 1_555
C43 N7 1_555 1_555
N8 C43 1_555 1_555
C45 N5 1_555 1_555
H26 C45 1_555 1_555
C47 C35 1_555 1_555
H28 C47 1_555 1_555
C48 N5 1_555 1_555
H29 C48 1_555 1_555
C49 C35 1_555 1_555
H30 C49 1_555 1_555
O13 Zn1 1_555 1_555
O14 Zn2 1_555 1_555
C19 C21 1_555 1_555
C22 C23 1_555 1_555
C45 C47 1_555 1_555
C48 C49 1_555 1_555
Zn3 O4_2 1_555 1_555
Zn7 O2_2 1_555 1_555
Zn6 N1_2 1_555 1_555
N1_2 C19_2 1_555 1_555
C9_2 C17_2 1_555 1_555
C17_2 N4_2 1_555 1_555
N4_2 N8_2 1_555 1_555
C19_2 H10_2 1_555 1_555
C21_2 C9_2 1_555 1_555
H12_2 C21_2 1_555 1_555
N5_2 Zn4 1_555 1_555
C35_2 C43_2 1_555 1_555
N8_2 C43_2 1_555 1_555
C45_2 N5_2 1_555 1_555
H26_2 C45_2 1_555 1_555
C47_2 C35_2 1_555 1_555
H28_2 C47_2 1_555 1_555
O13_2 Zn6 1_555 1_555
O14_2 Zn4 1_555 1_555
C19_2 C21_2 1_555 1_555
C45_2 C47_2 1_555 1_555
O7 C2_2 1_555 1_555
N2_2 C5_2 1_555 1_555
C1_2 C15_2 1_555 1_555
C2_2 C10_2 1_555 1_555
C3_2 H1_2 1_555 1_555
C4_2 H2_2 1_555 1_555
C5_2 C6_2 1_555 1_555
C6_2 H3_2 1_555 1_555
C7_2 H4_2 1_555 1_555
C8_2 C5_2 1_555 1_555
H5_2 C8_2 1_555 1_555
C10_2 C3_2 1_555 1_555
C11_2 N2_2 1_555 1_555
C12_2 N2_2 1_555 1_555
C13_2 C7_2 1_555 1_555
C14_2 C3_2 1_555 1_555
H6_2 C14_2 1_555 1_555
C15_2 C8_2 1_555 1_555
H7_2 C15_2 1_555 1_555
C16_2 C7_2 1_555 1_555
H8_2 C16_2 1_555 1_555
C18_2 C1_2 1_555 1_555
H9_2 C18_2 1_555 1_555
C20_2 C4_2 1_555 1_555
H11_2 C20_2 1_555 1_555
H13_2 C22_2 1_555 1_555
H14_2 C23_2 1_555 1_555
C24_2 C13_2 1_555 1_555
H15_2 C24_2 1_555 1_555
C25_2 C11_2 1_555 1_555
H16_2 C25_2 1_555 1_555
C26_2 C13_2 1_555 1_555
Zn5 O8_2 1_555 1_555
Zn8 O12_2 1_555 1_555
O6 C28_2 1_555 1_555
O8_2 C28_2 1_555 1_555
N6_2 C31_2 1_555 1_555
C27_2 C1_2 1_555 1_555
C28_2 C36_2 1_555 1_555
C29_2 H17_2 1_555 1_555
C30_2 H18_2 1_555 1_555
C31_2 C32_2 1_555 1_555
C32_2 H19_2 1_555 1_555
C33_2 H20_2 1_555 1_555
C34_2 C31_2 1_555 1_555
H21_2 C34_2 1_555 1_555
C36_2 C29_2 1_555 1_555
C37_2 N6_2 1_555 1_555
C38_2 N6_2 1_555 1_555
C39_2 C33_2 1_555 1_555
C40_2 C29_2 1_555 1_555
H22_2 C40_2 1_555 1_555
C41_2 C27_2 1_555 1_555
H23_2 C41_2 1_555 1_555
C42_2 C33_2 1_555 1_555
H24_2 C42_2 1_555 1_555
N7_2 N3_2 1_555 1_555
C44_2 C27_2 1_555 1_555
H25_2 C44_2 1_555 1_555
C46_2 C30_2 1_555 1_555
H27_2 C46_2 1_555 1_555
H29_2 C48_2 1_555 1_555
H30_2 C49_2 1_555 1_555
C50_2 C39_2 1_555 1_555
H31_2 C50_2 1_555 1_555
C51_2 C37_2 1_555 1_555
H32_2 C51_2 1_555 1_555
O12_2 C52_2 1_555 1_555
C52_2 C39_2 1_555 1_555
C4_2 C10_2 1_555 1_555
C6_2 C18_2 1_555 1_555
C11_2 C16_2 1_555 1_555
C12_2 C14_2 1_555 1_555
C12_2 C20_2 1_555 1_555
C22_2 C23_2 1_555 1_555
C24_2 C25_2 1_555 1_555
O3_2 C26_2 1_555 1_555
C30_2 C36_2 1_555 1_555
C32_2 C44_2 1_555 1_555
C34_2 C41_2 1_555 1_555
C37_2 C42_2 1_555 1_555
C38_2 C40_2 1_555 1_555
C38_2 C46_2 1_555 1_555
C48_2 C49_2 1_555 1_555
C50_2 C51_2 1_555 1_555
O11_2 C52_2 1_555 1_555
Zn7 N1_3 1_555 1_555
N1_3 C19_3 1_555 1_555
C9_3 C17_3 1_555 1_555
N3_3 C17_3 1_555 1_555
C17_3 N4_3 1_555 1_555
N4_3 N8_3 1_555 1_555
C19_3 H10_3 1_555 1_555
C21_3 C9_3 1_555 1_555
H12_3 C21_3 1_555 1_555
C22_3 N1_3 1_555 1_555
H13_3 C22_3 1_555 1_555
C23_3 C9_3 1_555 1_555
H14_3 C23_3 1_555 1_555
N5_3 Zn5 1_555 1_555
C35_3 C43_3 1_555 1_555
N7_3 N3_3 1_555 1_555
C43_3 N7_3 1_555 1_555
N8_3 C43_3 1_555 1_555
C45_3 N5_3 1_555 1_555
H26_3 C45_3 1_555 1_555
C47_3 C35_3 1_555 1_555
H28_3 C47_3 1_555 1_555
C48_3 N5_3 1_555 1_555
H29_3 C48_3 1_555 1_555
C49_3 C35_3 1_555 1_555
H30_3 C49_3 1_555 1_555
C19_3 C21_3 1_555 1_555
C22_3 C23_3 1_555 1_555
C45_3 C47_3 1_555 1_555
C48_3 C49_3 1_555 1_555
O1_2 C2_3 1_555 1_555
N2_3 C5_3 1_555 1_555
C1_3 C15_3 1_555 1_555
C2_3 C10_3 1_555 1_555
C3_3 H1_3 1_555 1_555
C4_3 H2_3 1_555 1_555
C5_3 C6_3 1_555 1_555
C6_3 H3_3 1_555 1_555
C7_3 H4_3 1_555 1_555
C8_3 C5_3 1_555 1_555
H5_3 C8_3 1_555 1_555
C10_3 C3_3 1_555 1_555
C11_3 N2_3 1_555 1_555
C12_3 N2_3 1_555 1_555
C13_3 C7_3 1_555 1_555
C14_3 C3_3 1_555 1_555
H6_3 C14_3 1_555 1_555
C15_3 C8_3 1_555 1_555
H7_3 C15_3 1_555 1_555
C16_3 C7_3 1_555 1_555
H8_3 C16_3 1_555 1_555
C18_3 C1_3 1_555 1_555
H9_3 C18_3 1_555 1_555
C20_3 C4_3 1_555 1_555
H11_3 C20_3 1_555 1_555
C24_3 C13_3 1_555 1_555
H15_3 C24_3 1_555 1_555
C25_3 C11_3 1_555 1_555
H16_3 C25_3 1_555 1_555
C26_3 C13_3 1_555 1_555
Zn3 O1_2 1_555 1_555
Zn8 O5_2 1_555 1_555
O5_2 C28_3 1_555 1_555
O9_2 C28_3 1_555 1_555
N6_3 C31_3 1_555 1_555
C27_3 C1_3 1_555 1_555
C28_3 C36_3 1_555 1_555
C29_3 H17_3 1_555 1_555
C30_3 H18_3 1_555 1_555
C31_3 C32_3 1_555 1_555
C32_3 H19_3 1_555 1_555
C33_3 H20_3 1_555 1_555
C34_3 C31_3 1_555 1_555
H21_3 C34_3 1_555 1_555
C36_3 C29_3 1_555 1_555
C37_3 N6_3 1_555 1_555
C38_3 N6_3 1_555 1_555
C39_3 C33_3 1_555 1_555
C40_3 C29_3 1_555 1_555
H22_3 C40_3 1_555 1_555
C41_3 C27_3 1_555 1_555
H23_3 C41_3 1_555 1_555
C42_3 C33_3 1_555 1_555
H24_3 C42_3 1_555 1_555
C44_3 C27_3 1_555 1_555
H25_3 C44_3 1_555 1_555
C46_3 C30_3 1_555 1_555
H27_3 C46_3 1_555 1_555
C50_3 C39_3 1_555 1_555
H31_3 C50_3 1_555 1_555
C51_3 C37_3 1_555 1_555
H32_3 C51_3 1_555 1_555
O13 C52_3 1_555 1_555
C52_3 C39_3 1_555 1_555
C4_3 C10_3 1_555 1_555
C6_3 C18_3 1_555 1_555
C11_3 C16_3 1_555 1_555
C12_3 C14_3 1_555 1_555
C12_3 C20_3 1_555 1_555
C24_3 C25_3 1_555 1_555
O3_3 C26_3 1_555 1_555
C30_3 C36_3 1_555 1_555
C32_3 C44_3 1_555 1_555
C34_3 C41_3 1_555 1_555
C37_3 C42_3 1_555 1_555
C38_3 C40_3 1_555 1_555
C38_3 C46_3 1_555 1_555
C50_3 C51_3 1_555 1_555
O11_3 C52_3 1_555 1_555
O7_2 C2_4 1_555 1_555
O10 C2_4 1_555 1_555
N2_4 C5_4 1_555 1_555
C1_4 C15_4 1_555 1_555
C2_4 C10_4 1_555 1_555
C3_4 H1_4 1_555 1_555
C4_4 H2_4 1_555 1_555
C5_4 C6_4 1_555 1_555
C6_4 H3_4 1_555 1_555
C7_4 H4_4 1_555 1_555
C8_4 C5_4 1_555 1_555
H5_4 C8_4 1_555 1_555
C10_4 C3_4 1_555 1_555
C11_4 N2_4 1_555 1_555
C12_4 N2_4 1_555 1_555
C13_4 C7_4 1_555 1_555
C14_4 C3_4 1_555 1_555
H6_4 C14_4 1_555 1_555
C15_4 C8_4 1_555 1_555
H7_4 C15_4 1_555 1_555
C16_4 C7_4 1_555 1_555
H8_4 C16_4 1_555 1_555
C18_4 C1_4 1_555 1_555
H9_4 C18_4 1_555 1_555
C20_4 C4_4 1_555 1_555
H11_4 C20_4 1_555 1_555
H13_4 C22_4 1_555 1_555
H14_4 C23_4 1_555 1_555
C24_4 C13_4 1_555 1_555
H15_4 C24_4 1_555 1_555
C25_4 C11_4 1_555 1_555
H16_4 C25_4 1_555 1_555
O14_2 C26_4 1_555 1_555
C26_4 C13_4 1_555 1_555
O6_2 C28_4 1_555 1_555
N6_4 C31_4 1_555 1_555
C27_4 C1_4 1_555 1_555
C28_4 C36_4 1_555 1_555
C29_4 H17_4 1_555 1_555
C30_4 H18_4 1_555 1_555
C31_4 C32_4 1_555 1_555
C32_4 H19_4 1_555 1_555
C33_4 H20_4 1_555 1_555
C34_4 C31_4 1_555 1_555
H21_4 C34_4 1_555 1_555
C36_4 C29_4 1_555 1_555
C37_4 N6_4 1_555 1_555
C38_4 N6_4 1_555 1_555
C39_4 C33_4 1_555 1_555
C40_4 C29_4 1_555 1_555
H22_4 C40_4 1_555 1_555
C41_4 C27_4 1_555 1_555
H23_4 C41_4 1_555 1_555
C42_4 C33_4 1_555 1_555
H24_4 C42_4 1_555 1_555
N7_4 N3_4 1_555 1_555
C44_4 C27_4 1_555 1_555
H25_4 C44_4 1_555 1_555
C46_4 C30_4 1_555 1_555
H27_4 C46_4 1_555 1_555
H29_4 C48_4 1_555 1_555
H30_4 C49_4 1_555 1_555
C50_4 C39_4 1_555 1_555
H31_4 C50_4 1_555 1_555
C51_4 C37_4 1_555 1_555
H32_4 C51_4 1_555 1_555
C52_4 C39_4 1_555 1_555
C4_4 C10_4 1_555 1_555
C6_4 C18_4 1_555 1_555
C11_4 C16_4 1_555 1_555
C12_4 C14_4 1_555 1_555
C12_4 C20_4 1_555 1_555
C22_4 C23_4 1_555 1_555
C24_4 C25_4 1_555 1_555
O3_4 C26_4 1_555 1_555
C30_4 C36_4 1_555 1_555
C32_4 C44_4 1_555 1_555
C34_4 C41_4 1_555 1_555
C37_4 C42_4 1_555 1_555
C38_4 C40_4 1_555 1_555
C38_4 C46_4 1_555 1_555
C48_4 C49_4 1_555 1_555
C50_4 C51_4 1_555 1_555
O11_4 C52_4 1_555 1_555
Zn8 N1_4 1_555 1_555
N1_4 C19_4 1_555 1_555
C9_4 C17_4 1_555 1_555
C17_4 N4_4 1_555 1_555
N4_4 N8_4 1_555 1_555
C19_4 H10_4 1_555 1_555
C21_4 C9_4 1_555 1_555
H12_4 C21_4 1_555 1_555
N5_4 Zn3 1_555 1_555
C35_4 C43_4 1_555 1_555
N8_4 C43_4 1_555 1_555
C45_4 N5_4 1_555 1_555
H26_4 C45_4 1_555 1_555
C47_4 C35_4 1_555 1_555
H28_4 C47_4 1_555 1_555
C19_4 C21_4 1_555 1_555
C45_4 C47_4 1_555 1_555

#END
