
###############################################################################
#
# This file contains modified crystal structure data generated from the
# MOF subset of the Cambridge Structural Database (CSD) v543 
# hosted by the Cambridge Crystallographic Data Centre (CCDC).
#
# This work is licensed under the Creative Commons
# Attribution-NonCommercial-ShareAlike 4.0 International License.
# To view a copy of this license, visit
# http://creativecommons.org/licenses/by-nc-sa/4.0/
# or send a letter to
# Creative Commons, PO Box 1866, Mountain View, CA 94042, USA.
#
# CIF created using the CSD Python API on 29 September 2022
# The structure has been converted into the P1 space group
# The structure has a 3D framework
# The original CSD entry VAHPUT is in the triclinic crystal system
# The original CSD entry VAHPUT is in a Sohncke space group
# The framework has been calculated to contain at least 10.0% void space
# The void calculation uses a probe of radius 1.32A, grid spacing 0.4
# H atom positions have been added when not included in the experimental data
#
###############################################################################

data_VAHPUT
_chemical_formula_moiety         '(C100 H165 N4 Na7 O123 V12)n'
_symmetry_cell_setting           triclinic
_symmetry_space_group_name_H-M   'P 1'
_symmetry_Int_Tables_number      1
_space_group_name_Hall           'P 1'
loop_
_symmetry_equiv_pos_site_id
_symmetry_equiv_pos_as_xyz
1 x,y,z
_cell_length_a                   15.0644(7)
_cell_length_b                   15.4349(7)
_cell_length_c                   20.3117(9)
_cell_angle_alpha                99.714(2)
_cell_angle_beta                 100.044(3)
_cell_angle_gamma                97.530(3)
_cell_volume                     4520.68
loop_
_atom_site_label
_atom_site_type_symbol
_atom_site_fract_x
_atom_site_fract_y
_atom_site_fract_z
_atom_site_U_iso_or_equiv
_atom_site_thermal_displace_type
V1 V 0.68676(7) 0.02092(7) 0.72723(5) 0.0229 Uani
V2 V 0.60374(7) 0.12674(7) 0.60852(5) 0.0255 Uani
V6 V 0.80636(7) 0.06428(8) 0.61236(6) 0.0311 Uani
O2 O 0.6438(3) 0.1328(3) 0.7114(2) 0.0214 Uani
O4 O 0.8071(3) 0.0844(3) 0.7112(2) 0.0256 Uani
O5 O 0.7544(4) 0.0403(3) 0.5178(2) 0.0359 Uani
O7 O 0.7833(4) 0.3747(3) 0.8097(3) 0.0469 Uani
O9 O 0.7158(3) 0.0509(3) 0.8083(2) 0.0320 Uani
O12 O 0.5904(3) 0.0890(3) 0.5202(2) 0.0329 Uani
O13 O 0.6627(3) 0.0022(3) 0.6139(2) 0.0214 Uani
O15 O 0.7363(3) 0.1709(3) 0.6171(2) 0.0282 Uani
O16 O 0.5716(4) 0.2221(3) 0.6166(3) 0.0404 Uani
N1 N 0.8299(4) 0.3267(4) 0.7831(3) 0.0322 Uani
O18 O 0.4995(3) 0.0520(3) 0.6173(2) 0.0290 Uani
O20 O 0.9041(4) 0.1210(4) 0.6157(3) 0.0459 Uani
O21 O 0.9128(4) 0.3440(4) 0.7913(3) 0.0528 Uani
C1 C 0.6888(4) 0.2153(4) 0.7542(3) 0.0254 Uani
H1 H 0.694693 0.210549 0.802195 0.0300 Uiso
H2 H 0.653275 0.262642 0.746085 0.0300 Uiso
C2 C 0.8456(4) 0.1695(4) 0.7533(3) 0.0294 Uani
H3 H 0.906490 0.188843 0.744851 0.0350 Uiso
H4 H 0.851899 0.165244 0.801417 0.0350 Uiso
C6 C 0.7839(4) 0.2371(4) 0.7374(3) 0.0257 Uani
C8 C 0.7766(5) 0.2519(4) 0.6636(3) 0.0318 Uani
H11 H 0.739166 0.298111 0.656354 0.0380 Uiso
H12 H 0.837600 0.272120 0.655742 0.0380 Uiso
V3 V 0.63954(8) 0.98330(7) 0.50011(5) 0.0286 Uani
V4 V 0.52082(7) 0.94079(7) 0.61699(5) 0.0242 Uani
V5 V 0.72294(8) 0.87707(7) 0.61886(6) 0.0300 Uani
O1 O 0.6818(3) 0.8712(3) 0.5160(2) 0.0295 Uani
O3 O 0.5204(3) 0.9206(3) 0.5178(2) 0.0248 Uani
O6 O 0.5893(3) 0.8330(3) 0.6110(2) 0.0275 Uani
O8 O 0.5711(3) 0.9629(3) 0.7105(2) 0.0277 Uani
O10 O 0.7360(3) 0.9153(3) 0.7083(2) 0.0325 Uani
O11 O 0.6131(4) 0.9567(4) 0.4196(2) 0.0429 Uani
O14 O 0.4230(3) 0.8836(3) 0.6131(3) 0.0390 Uani
O17 O 0.8264(3) 0.9532(3) 0.6113(3) 0.0363 Uani
N2 N 0.4923(5) 0.6775(4) 0.4474(3) 0.0381 Uani
O19 O 0.7562(4) 0.7828(3) 0.6115(3) 0.0456 Uani
O22 O 0.4102(4) 0.6670(4) 0.4263(4) 0.0627 Uani
O23 O 0.5383(5) 0.6197(4) 0.4371(4) 0.0680 Uani
C3 C 0.4807(5) 0.8364(4) 0.4761(3) 0.0286 Uani
H5 H 0.474315 0.840693 0.427996 0.0340 Uiso
H6 H 0.419539 0.818498 0.484746 0.0340 Uiso
C4 C 0.5398(5) 0.7666(4) 0.4911(3) 0.0298 Uani
C5 C 0.6346(5) 0.7882(4) 0.4746(4) 0.0331 Uani
H7 H 0.669720 0.740649 0.482984 0.0400 Uiso
H8 H 0.628406 0.791736 0.426295 0.0400 Uiso
C7 C 0.5463(5) 0.7528(4) 0.5645(3) 0.0328 Uani
H9 H 0.484854 0.735033 0.572641 0.0400 Uiso
H10 H 0.581574 0.705078 0.571836 0.0400 Uiso
Na8 Na 0.2806(3) 0.2541(3) 0.07422(19) 0.0651 Uani
H148 H 0.028201 0.0369072 0.0625214 . .
O34 O 0.0409(3) 0.0477(4) 0.9445(3) 0.0442 Uani
O40 O 0.2438(4) 0.2120(4) 0.9484(3) 0.0438 Uani
O51 O 0.2037(3) 0.2684(3) 0.8207(2) 0.0336 Uani
O56 O 0.0424(3) 0.0763(3) 0.8361(3) 0.0355 Uani
O70 O 0.1012(3) 0.2978(3) 0.7304(2) 0.0327 Uani
O72 O 0.0874(4) 0.5333(3) 0.7243(3) 0.0435 Uani
O90 O 0.1432(4) 0.1606(4) 0.6413(3) 0.0463 Uani
O101 O 0.0568(5) 0.2920(4) 0.5885(3) 0.0539 Uani
C22 C 0.1628(5) 0.2447(5) 0.9240(3) 0.0391 Uani
H28 H 0.172997 0.309640 0.939027 0.0470 Uiso
H29 H 0.113322 0.219612 0.944267 0.0470 Uiso
C27 C 0.0607(5) 0.0166(5) 0.8806(4) 0.0421 Uani
H35 H 0.126207 0.011034 0.886633 0.0500 Uiso
C30 C 0.1330(5) 0.2221(5) 0.8469(3) 0.0319 Uani
H38 H 0.075570 0.245203 0.833646 0.0380 Uiso
O115 O 0.0946(5) 0.0167(4) 0.7110(3) 0.0563 Uani
C44 C 0.1682(5) 0.1656(5) 0.7131(3) 0.0337 Uani
H55 H 0.226899 0.143255 0.722606 0.0400 Uiso
C54 C 0.1186(4) 0.1225(4) 0.8159(3) 0.0299 Uani
H65 H 0.174333 0.097772 0.831150 0.0360 Uiso
C65 C 0.1771(7) 0.4844(6) 0.8149(4) 0.0509 Uani
H78 H 0.168564 0.538697 0.844192 0.0610 Uiso
H79 H 0.180205 0.437561 0.841920 0.0610 Uiso
O117 O 0.2598(5) 0.5005(5) 0.7910(4) 0.0697 Uani
C80 C 0.0166(5) 0.5187(5) 0.6667(4) 0.0403 Uani
H98 H 0.015647 0.574679 0.649156 0.0480 Uiso
C82 C 0.1826(5) 0.2627(5) 0.7499(3) 0.0324 Uani
H100 H 0.233751 0.297027 0.735772 0.0390 Uiso
C83 C 0.0977(5) 0.1088(5) 0.7387(4) 0.0354 Uani
H101 H 0.037101 0.125166 0.723732 0.0420 Uiso
C91 C 0.0977(5) 0.4561(5) 0.7555(4) 0.0374 Uani
H111 H 0.041763 0.439307 0.772957 0.0450 Uiso
C95 C 0.1094(5) 0.3774(5) 0.7033(4) 0.0328 Uani
H116 H 0.170671 0.388927 0.692016 0.0400 Uiso
C97 C 0.0372(6) 0.3609(5) 0.6386(4) 0.0404 Uani
Na4 Na 0.1812(7) 0.0693(8) 0.5439(5) 0.0901 Uani
C100 C 0.0338(5) 0.4467(5) 0.6114(4) 0.0406 Uani
H122 H 0.094201 0.465970 0.600891 0.0490 Uiso
O124 O 0.0557(15) 0.1166(15) 0.4607(10) 0.2301 Uani
O132 O 0.0451(3) 0.5558(4) 0.2209(2) 0.0351 Uani
O136 O 0.3095(5) 0.1011(5) 0.4702(5) 0.0799 Uani
O138 O 0.2229(9) 0.2519(16) 0.5399(8) 0.2031 Uani
H135 H 0.0570819 0.23616 0.606633 . .
H147 H 0.312012 0.518515 0.830464 . .
H152 H 0.0678351 0.182266 0.464642 . .
H153 H 0.0555881 0.0869418 0.413326 . .
O103 O 0.0192(6) 0.8961(5) 0.7799(4) 0.0778 Uani
C58 C 0.0022(6) 0.9241(5) 0.8469(5) 0.0514 Uani
H69 H 0.020172 0.880239 0.874948 0.0620 Uiso
O122 O 0.2495(8) 0.9803(12) 0.6370(11) 0.2523 Uani
O129 O 0.1847(3) 0.9416(3) 0.4459(3) 0.0386 Uani
H137 H 0.0849302 0.891701 0.783079 . .
H144 H 0.155402 0.999748 0.725103 . .
H156 H 0.200126 0.956687 0.659018 . .
H157 H 0.275615 0.930042 0.61465 . .
O28 O 0.4004(3) 0.1109(3) 0.3187(3) 0.0342 Uani
O71 O 0.5828(4) 0.1895(3) 0.3168(3) 0.0430 Uani
O84 O 0.2108(4) 0.0286(4) 0.1722(3) 0.0459 Uani
C15 C 0.3027(5) 0.0623(5) 0.2078(4) 0.0361 Uani
H20 H 0.321148 0.121223 0.196626 0.0430 Uiso
C20 C 0.3099(5) 0.0751(4) 0.2843(4) 0.0339 Uani
H26 H 0.268532 0.116403 0.298271 0.0410 Uiso
C31 C 0.5593(5) 0.1097(5) 0.3412(4) 0.0358 Uani
H39 H 0.556791 0.124852 0.389591 0.0430 Uiso
H40 H 0.606719 0.072392 0.336898 0.0430 Uiso
C37 C 0.3683(5) 0.0021(5) 0.1860(3) 0.0321 Uani
H52 H 0.197707 0.044598 0.354391 0.0400 Uiso
C47 C 0.4677(4) 0.0578(4) 0.3014(3) 0.0296 Uani
H58 H 0.456262 0.000748 0.317077 0.0350 Uiso
C61 C 0.3355(5) 0.0162(6) 0.4511(5) 0.0482 Uani
H73 H 0.386500 0.022516 0.427181 0.0580 Uiso
H108 H 0.610623 0.059817 0.187020 0.0470 Uiso
C94 C 0.4638(4) 0.0380(4) 0.2251(3) 0.0299 Uani
H115 H 0.487061 0.093193 0.210426 0.0360 Uiso
H126 H 0.207769 0.0225153 0.122369 . .
H128 H 0.386714 0.0566758 0.104831 . .
H163 H 0.643426 0.221504 0.343103 . .
O41 O 0.7270(3) 0.0094(3) 0.0040(2) 0.0326 Uani
O77 O 0.7358(4) 0.1952(3) 0.0502(3) 0.0438 Uani
C25 C 0.6547(5) 0.1355(5) 0.0165(3) 0.0351 Uani
H33 H 0.626143 0.110078 0.050313 0.0420 Uiso
O119 O 0.9633(7) 0.0436(8) 0.0613(4) 0.0997 Uani
C92 C 0.9359(7) 0.0968(7) 0.0125(5) 0.0657 Uani
H112 H 0.973711 0.156052 0.025601 0.0790 Uiso
H113 H 0.872027 0.104069 0.011523 0.0790 Uiso
O126 O 0.2121(3) 0.5256(3) 0.0076(2) 0.0327 Uani
O128 O 0.5680(3) 0.4670(3) 0.0841(2) 0.0369 Uani
O130 O 0.3729(3) 0.5252(4) 0.0886(3) 0.0385 Uani
O131 O 0.6543(4) 0.6315(4) 0.0582(3) 0.0461 Uani
H123 H 0.720914 0.242498 0.0841634 . .
V7 V 0.16722(7) 0.54003(7) 0.22491(5) 0.0262 Uani
V8 V 0.26756(7) 0.52554(7) 0.09303(5) 0.0265 Uani
V9 V 0.10706(7) 0.39254(7) 0.10138(6) 0.0280 Uani
V10 V 0.08989(8) 0.53983(8) 0.00246(5) 0.0314 Uani
V12 V 0.15066(8) 0.68974(7) 0.12733(6) 0.0325 Uani
O24 O 0.4898(3) 0.2982(3) 0.7949(2) 0.0287 Uani
O25 O 0.1252(3) 0.7930(3) 0.3948(2) 0.0306 Uani
O26 O 0.5639(3) 0.3842(3) 0.3023(2) 0.0298 Uani
O27 O 0.2807(3) 0.9900(3) 0.2990(3) 0.0329 Uani
Na2 Na 0.8724(3) 0.5518(2) 0.26874(18) 0.0570 Uani
O29 O 0.3297(3) 0.3704(3) 0.3329(2) 0.0259 Uani
O30 O 0.2866(3) 0.5403(3) 0.1962(2) 0.0222 Uani
O31 O 0.4523(3) 0.1498(3) 0.9159(2) 0.0293 Uani
O32 O 0.0889(4) 0.9551(4) 0.2450(3) 0.0438 Uani
O35 O 0.3013(3) 0.2813(3) 0.1962(2) 0.0334 Uani
O36 O 0.1395(3) 0.6309(3) 0.5077(2) 0.0345 Uani
O38 O 0.4003(3) 0.1403(3) 0.7071(2) 0.0354 Uani
O39 O 0.5044(3) 0.4508(3) 0.8332(2) 0.0362 Uani
O43 O 0.3208(3) 0.3811(3) 0.4473(2) 0.0322 Uani
O44 O 0.6533(3) 0.4987(3) 0.7141(3) 0.0363 Uani
O45 O 0.7373(3) 0.6526(3) 0.2409(2) 0.0319 Uani
O46 O 0.1927(3) 0.6725(3) 0.2221(2) 0.0272 Uani
O47 O 0.0625(3) 0.4094(3) 0.0067(2) 0.0274 Uani
O48 O 0.5442(3) 0.0511(3) 0.8746(2) 0.0281 Uani
O49 O 0.1399(3) 0.5162(3) 0.4179(2) 0.0303 Uani
O50 O 0.1379(3) 0.4217(3) 0.1958(2) 0.0307 Uani
O52 O 0.5426(3) 0.4734(3) 0.2206(2) 0.0274 Uani
O53 O 0.7688(4) 0.6220(3) 0.7500(3) 0.0427 Uani
O54 O 0.1289(3) 0.5399(3) 0.1139(2) 0.0218 Uani
O55 O 0.2769(3) 0.6593(3) 0.1165(2) 0.0274 Uani
O58 O 0.4396(4) 0.3321(3) 0.1250(2) 0.0410 Uani
O59 O 0.5014(3) 0.7202(4) 0.3080(3) 0.0449 Uani
O60 O 0.3654(3) 0.3069(4) 0.6784(3) 0.0399 Uani
O61 O 0.1807(4) 0.2395(3) 0.2945(3) 0.0431 Uani
Na3 Na 0.3474(3) 0.3378(3) 0.5596(2) 0.0240 Uani
O62 O 0.5407(3) 0.3197(3) 0.4198(2) 0.0361 Uani
O64 O 0.6469(3) 0.7373(3) 0.1834(3) 0.0346 Uani
O66 O 0.2078(3) 0.5543(4) 0.3044(2) 0.0372 Uani
O68 O 0.6275(4) 0.5305(4) 0.5804(3) 0.0530 Uani
N3 N 0.4408(4) 0.7538(4) 0.2795(3) 0.0282 Uani
O73 O 0.4817(4) 0.4312(4) 0.6257(3) 0.0491 Uani
O74 O 0.6751(3) 0.9802(3) 0.2377(3) 0.0417 Uani
O75 O 0.4002(4) 0.3209(4) 0.9448(3) 0.0474 Uani
O78 O 0.9304(3) 0.4919(3) 0.6814(3) 0.0402 Uani
O83 O 0.1182(3) 0.6590(3) 0.0328(3) 0.0396 Uani
O85 O 0.1809(4) 0.7957(3) 0.1421(3) 0.0475 Uani
O86 O 0.8067(4) 0.5000(5) 0.5603(3) 0.0558 Uani
O87 O 0.5183(3) 0.9711(3) 0.2083(2) 0.0326 Uani
O88 O 0.0349(3) 0.6735(3) 0.1390(3) 0.0379 Uani
C9 C 0.1290(4) 0.9201(4) 0.3009(4) 0.0322 Uani
H13 H 0.146141 0.861871 0.284102 0.0380 Uiso
O91 O 0.3677(4) 0.9963(4) 0.1136(3) 0.0483 Uani
O92 O 0.2218(3) 0.4058(3) 0.0888(2) 0.0316 Uani
O93 O 0.0758(4) 0.2866(3) 0.0875(3) 0.0464 Uani
O96 O 0.4431(4) 0.8337(4) 0.2871(4) 0.0611 Uani
O98 O 0.1823(6) 0.8125(5) 0.5719(3) 0.0705 Uani
O99 O 0.0512(3) 0.3450(4) 0.3514(3) 0.0469 Uani
O100 O 0.5259(5) 0.9569(4) 0.0702(3) 0.0539 Uani
C10 C 0.4498(4) 0.1396(4) 0.7736(3) 0.0290 Uani
H14 H 0.514245 0.134655 0.771748 0.0350 Uiso
C11 C 0.7158(4) 0.6827(5) 0.1794(4) 0.0330 Uani
H15 H 0.771170 0.717098 0.170424 0.0390 Uiso
O102 O 0.4417(4) 0.2514(4) 0.5068(3) 0.0422 Uani
C12 C 0.3651(4) 0.5972(4) 0.2385(3) 0.0239 Uani
H16 H 0.420432 0.581845 0.223453 0.0290 Uiso
H17 H 0.369333 0.589337 0.285794 0.0290 Uiso
C13 C 0.5075(5) 0.4115(5) 0.6921(3) 0.0341 Uani
H18 H 0.540520 0.360030 0.687875 0.0410 Uiso
C14 C 0.5895(5) 0.4720(5) 0.8119(4) 0.0360 Uani
H19 H 0.624146 0.421942 0.813550 0.0440 Uiso
C16 C 0.4460(4) 0.2264(4) 0.8207(3) 0.0250 Uani
H21 H 0.381406 0.232909 0.820423 0.0300 Uiso
O105 O 0.9665(5) 0.4335(5) 0.5505(3) 0.0557 Uani
C18 C 0.4927(4) 0.4083(4) 0.3368(3) 0.0260 Uani
H24 H 0.483723 0.469516 0.332114 0.0310 Uiso
C19 C 0.0612(5) 0.9084(5) 0.3471(4) 0.0369 Uani
H25 H 0.039968 0.965820 0.359534 0.0440 Uiso
O107 O 0.7609(4) 0.5397(4) 0.3339(3) 0.0526 Uani
C21 C 0.4217(5) 0.3854(5) 0.7198(4) 0.0353 Uani
H27 H 0.385844 0.434719 0.718904 0.0420 Uiso
O108 O 0.2852(5) 0.4719(5) 0.5672(3) 0.0630 Uani
C23 C 0.4048(4) 0.3446(4) 0.3042(3) 0.0239 Uani
H30 H 0.412096 0.283325 0.309841 0.0290 Uiso
C24 C 0.4467(5) 0.3751(4) 0.7931(3) 0.0304 Uani
H31 H 0.390111 0.365956 0.811242 0.0360 Uiso
H32 H 0.611665 0.168354 0.993308 0.0420 Uiso
C26 C 0.2545(5) 0.9526(5) 0.4048(4) 0.0359 Uani
H34 H 0.273369 0.894266 0.390966 0.0430 Uiso
C29 C 0.3004(4) 0.3244(4) 0.3821(3) 0.0274 Uani
H37 H 0.332147 0.272408 0.384188 0.0330 Uiso
O110 O 0.5918(6) 0.6261(4) 0.8625(4) 0.0729 Uani
O111 O 0.1783(6) 0.1247(6) 0.0698(4) 0.0849 Uani
C32 C 0.2752(4) 0.7244(4) 0.2617(3) 0.0284 Uani
H41 H 0.280404 0.717866 0.309352 0.0340 Uiso
H42 H 0.274747 0.787447 0.260075 0.0340 Uiso
C33 C 0.6786(5) 0.6021(5) 0.1213(3) 0.0331 Uani
H43 H 0.727284 0.565275 0.117342 0.0390 Uiso
O112 O 0.5896(6) 0.7908(5) 0.0578(3) 0.0694 Uani
O113 O 0.8337(4) 0.9175(5) 0.2842(5) 0.0765 Uani
O114 O 0.9538(5) 0.7021(5) 0.7938(5) 0.0835 Uani
C34 C 0.5699(5) 0.4889(5) 0.7395(4) 0.0357 Uani
H44 H 0.542195 0.543541 0.738930 0.0430 Uiso
C35 C 0.5464(4) 0.3860(4) 0.2321(3) 0.0287 Uani
H45 H 0.597230 0.364417 0.212717 0.0350 Uiso
C36 C 0.5269(5) 0.4074(5) 0.4120(3) 0.0323 Uani
H46 H 0.584567 0.448965 0.429239 0.0390 Uiso
H47 H 0.482099 0.426676 0.438493 0.0390 Uiso
H48 H 0.349160 0.941815 0.194582 0.0390 Uiso
C38 C 0.1979(5) 0.2920(4) 0.3601(4) 0.0350 Uani
H49 H 0.177595 0.255262 0.391983 0.0420 Uiso
C39 C 0.4079(4) 0.0631(4) 0.8015(3) 0.0296 Uani
H50 H 0.343418 0.069514 0.801824 0.0350 Uiso
C40 C 0.3791(4) 0.3472(4) 0.2293(3) 0.0248 Uani
H51 H 0.366258 0.407137 0.223768 0.0300 Uiso
C41 C 0.2140(4) 0.9849(5) 0.3412(4) 0.0331 Uani
C42 C 0.1058(5) 0.8812(4) 0.4124(4) 0.0337 Uani
H53 H 0.061658 0.880451 0.443190 0.0400 Uiso
C43 C 0.0888(4) 0.5541(4) 0.4632(3) 0.0285 Uani
H54 H 0.067978 0.509953 0.489665 0.0340 Uiso
C45 C 0.4947(4) 0.2258(4) 0.8933(3) 0.0280 Uani
H56 H 0.559512 0.220741 0.893222 0.0330 Uiso
C46 C 0.1743(4) 0.6983(5) 0.4741(3) 0.0329 Uani
H57 H 0.211665 0.672595 0.442708 0.0400 Uiso
C48 C 0.2814(4) 0.4623(4) 0.4475(3) 0.0297 Uani
H59 H 0.303412 0.494405 0.413635 0.0350 Uiso
C49 C 0.7093(5) 0.5680(5) 0.6302(4) 0.0411 Uani
H60 H 0.732928 0.626889 0.621197 0.0490 Uiso
C50 C 0.3575(4) 0.6941(4) 0.2343(3) 0.0250 Uani
C51 C 0.4553(4) 0.0661(4) 0.8754(3) 0.0307 Uani
H61 H 0.422630 0.018064 0.893224 0.0370 Uiso
C52 C 0.0055(4) 0.5776(5) 0.4179(3) 0.0304 Uani
C53 C 0.4907(5) 0.3071(5) 0.9448(3) 0.0338 Uani
H63 H 0.519259 0.299939 0.990367 0.0400 Uiso
H64 H 0.525588 0.359502 0.934433 0.0400 Uiso
C55 C 0.6882(5) 0.5817(5) 0.7020(4) 0.0379 Uani
H66 H 0.641601 0.621177 0.704511 0.0450 Uiso
C56 C 0.6737(5) 0.0601(4) 0.9644(3) 0.0281 Uani
H67 H 0.709451 0.085100 0.933432 0.0340 Uiso
C57 C 0.6227(4) 0.5221(4) 0.2059(3) 0.0258 Uani
H68 H 0.670393 0.483672 0.204852 0.0310 Uiso
O116 O 0.8283(5) 0.3987(5) 0.2252(4) 0.0680 Uani
C60 C 0.6890(5) 0.5903(5) 0.3309(4) 0.0361 Uani
H70 H 0.709570 0.647775 0.362415 0.0440 Uiso
H71 H 0.637110 0.558661 0.345128 0.0440 Uiso
H72 H 0.355749 0.992333 0.491896 0.0580 Uiso
C63 C 0.2341(6) 0.7729(6) 0.5274(4) 0.0480 Uani
H75 H 0.283328 0.749404 0.553500 0.0580 Uiso
H76 H 0.261943 0.817884 0.505078 0.0580 Uiso
C64 C 0.8676(5) 0.5524(5) 0.6820(4) 0.0368 Uani
H77 H 0.895582 0.609317 0.672252 0.0440 Uiso
O118 O 0.4077(9) 0.1542(6) 0.0543(4) 0.1027 Uani
C67 C 0.6594(4) 0.6056(4) 0.2602(3) 0.0269 Uani
H82 H 0.611574 0.643868 0.260549 0.0320 Uiso
C68 C 0.8413(5) 0.5688(5) 0.7509(4) 0.0372 Uani
H83 H 0.819242 0.510717 0.761935 0.0450 Uiso
C69 C 0.0929(4) 0.7290(4) 0.4325(3) 0.0280 Uani
H84 H 0.055494 0.755661 0.463454 0.0340 Uiso
C70 C 0.5966(4) 0.5453(4) 0.1356(3) 0.0311 Uani
H85 H 0.545895 0.580100 0.135761 0.0370 Uiso
C71 C 0.9459(5) 0.0532(5) 0.9433(4) 0.0390 Uani
H86 H 0.926721 0.091588 0.910832 0.0470 Uiso
C72 C 0.1478(4) 0.3715(4) 0.3616(3) 0.0301 Uani
H87 H 0.161035 0.402156 0.324511 0.0360 Uiso
C73 C 0.7815(5) 0.5105(5) 0.6259(4) 0.0378 Uani
H88 H 0.757824 0.451034 0.633750 0.0450 Uiso
C74 C 0.3164(6) 0.5179(5) 0.5181(4) 0.0413 Uani
H89 H 0.383417 0.529712 0.527669 0.0490 Uiso
H90 H 0.294535 0.575247 0.520940 0.0490 Uiso
C75 C 0.5913(6) 0.8434(5) 0.1237(4) 0.0430 Uani
H91 H 0.532386 0.825275 0.136903 0.0520 Uiso
C77 C 0.6661(5) 0.8282(5) 0.1770(4) 0.0387 Uani
H93 H 0.725448 0.839643 0.162840 0.0460 Uiso
C78 C 0.3552(5) 0.7111(4) 0.1616(3) 0.0313 Uani
H94 H 0.354259 0.774409 0.161535 0.0380 Uiso
H95 H 0.410377 0.695731 0.146328 0.0380 Uiso
C81 C 0.5852(4) 0.0024(4) 0.9234(3) 0.0274 Uani
C85 C 0.4584(5) 0.3252(4) 0.1950(3) 0.0293 Uani
H103 H 0.466014 0.263045 0.197432 0.0350 Uiso
C86 C 0.1779(4) 0.4376(4) 0.4286(3) 0.0296 Uani
H104 H 0.154192 0.413088 0.465351 0.0350 Uiso
C88 C 0.6413(7) 0.5535(6) 0.8628(5) 0.0546 Uani
H106 H 0.651715 0.539409 0.908520 0.0660 Uiso
H107 H 0.701006 0.570502 0.851526 0.0660 Uiso
C89 C 0.6025(5) 0.9958(5) 0.1894(4) 0.0390 Uani
C90 C 0.7496(5) 0.8851(6) 0.3009(5) 0.0490 Uani
H109 H 0.743396 0.921272 0.343911 0.0590 Uiso
H110 H 0.749373 0.823546 0.307384 0.0590 Uiso
C93 C 0.6696(5) 0.8881(5) 0.2454(4) 0.0361 Uani
H114 H 0.612454 0.870688 0.261097 0.0430 Uiso
C96 C 0.0355(4) 0.6510(4) 0.3820(3) 0.0298 Uani
H117 H 0.072571 0.627971 0.349283 0.0360 Uiso
H118 H 0.977010 0.341003 0.649117 0.0480 Uiso
C98 C 0.5987(6) 0.9401(5) 0.1190(4) 0.0452 Uani
H119 H 0.656848 0.957948 0.104741 0.0540 Uiso
C99 C 0.9176(7) 0.6173(7) 0.8064(5) 0.0599 Uani
H120 H 0.896047 0.626157 0.849454 0.0720 Uiso
H121 H 0.966411 0.581187 0.811083 0.0720 Uiso
Na5 Na 0.3451(9) 0.4783(8) 0.9252(6) 0.0651 Uani
Na6 Na 0.4489(11) 0.5042(9) 0.9702(6) 0.0754 Uani
O123 O 0.4077(12) 0.6233(18) 0.8605(18) 0.3957 Uani
Na7 Na 0.4977(11) 0.6110(11) 0.9653(9) 0.0905 Uani
O125 O 0.4382(7) 0.7787(10) 0.9569(6) 0.1264 Uani
O133 O 0.9562(3) 0.6771(3) 0.3447(3) 0.0391 Uani
O134 O 0.9578(3) 0.4999(3) 0.3700(3) 0.0419 Uani
O135 O 0.8848(4) 0.5577(5) 0.1423(3) 0.0536 Uani
H124 H 0.830705 0.559317 0.55187 . .
H125 H 0.0049138 0.78545 0.298488 . .
H130 H 0.48955 0.290984 0.492916 . .
H131 H 0.471113 0.217175 0.539223 . .
H132 H 0.154825 0.76701 0.594957 . .
H133 H 0.466657 0.938622 0.0831418 . .
H134 H 0.0367305 0.313579 0.388005 . .
H138 H 0.967514 0.489932 0.533102 . .
H139 H 0.126525 0.140535 0.0910447 . .
H140 H 0.154723 0.0944801 0.0215221 . .
H141 H 0.885023 0.913773 0.321066 . .
H142 H 0.904904 0.73938 0.789896 . .
H143 H 0.538051 0.801693 0.024162 . .
H145 H 0.809229 0.388368 0.174806 . .
H146 H 0.880592 0.367477 0.237419 . .
H149 H 0.395393 0.0992225 0.072788 . .
H150 H 0.406515 0.137846 0.0046921 . .
H154 H 0.402155 0.775616 0.910467 . .
H155 H 0.399557 0.791987 0.991045 . .
H158 H 0.402412 0.0841869 0.675688 . .
H159 H 0.033416 0.913185 0.218913 . .
H160 H 0.21362 0.18787 0.295168 . .
H161 H 0.586727 0.300702 0.393325 . .
H162 H 0.70918 0.666045 0.0483454 . .
H164 H 0.618766 0.43203 0.0832832 . .
H165 H 0.641699 0.523598 0.534043 . .
O76 O 0.0510(4) 0.5287(4) 0.9233(3) 0.0470 Uani
V11 V 0.98931(7) 0.55496(8) 0.13606(6) 0.0329 Uani
O63 O 0.9814(3) 0.4225(3) 0.1127(2) 0.0293 Uani
O79 O 0.9844(3) 0.8432(4) 0.3122(3) 0.0433 Uani
O82 O 0.9697(3) 0.5419(3) 0.0319(2) 0.0317 Uani
H62 H 0.963786 0.598924 0.447358 0.0360 Uiso
H81 H 0.835688 0.499012 0.006329 0.0430 Uiso
C79 C 0.9021(5) 0.3705(5) 0.0681(3) 0.0347 Uani
H96 H 0.847435 0.386230 0.084040 0.0420 Uiso
H97 H 0.902961 0.307189 0.068565 0.0420 Uiso
O33 O 0.7952(3) 0.9628(3) 0.9122(2) 0.0336 Uani
O81 O 0.4076(3) 0.9781(3) 0.7597(3) 0.0378 Uani
O97 O 0.5168(4) 0.8564(4) 0.8555(3) 0.0547 Uani
O104 O 0.6932(4) 0.7946(3) 0.8886(4) 0.0541 Uani
C28 C 0.7519(5) 0.9362(4) 0.9631(3) 0.0304 Uani
H36 H 0.793397 0.907025 0.992395 0.0370 Uiso
C62 C 0.8894(5) 0.9599(4) 0.9166(4) 0.0335 Uani
H74 H 0.909374 0.918267 0.946145 0.0400 Uiso
O120 O 0.8449(5) 0.8426(4) 0.8146(4) 0.0652 Uani
C76 C 0.6668(5) 0.8703(4) 0.9285(4) 0.0366 Uani
H92 H 0.636135 0.849809 0.963709 0.0440 Uiso
H99 H 0.543141 0.990191 0.954320 0.0330 Uiso
C84 C 0.9008(6) 0.9276(5) 0.8437(4) 0.0428 Uani
H102 H 0.882413 0.971398 0.815769 0.0510 Uiso
C87 C 0.6013(5) 0.9141(4) 0.8836(3) 0.0315 Uani
H105 H 0.629946 0.927398 0.845364 0.0370 Uiso
H127 H 0.471373 0.970494 0.756933 . .
H129 H 0.734459 0.766422 0.919071 . .
H136 H 0.487408 0.840581 0.892948 . .
H151 H 0.862396 0.798433 0.842707 . .
O67 O 0.8176(4) 0.2565(4) 0.9184(3) 0.0494 Uani
N4 N 0.8107(4) 0.3276(5) 0.9526(3) 0.0433 Uani
C17 C 0.9796(5) 0.3565(5) 0.9660(3) 0.0343 Uani
H22 H 0.980543 0.293303 0.966721 0.0410 Uiso
H23 H 0.973707 0.364368 0.918612 0.0410 Uiso
O109 O 0.7387(4) 0.3539(5) 0.9568(4) 0.0630 Uani
C59 C 0.8979(5) 0.3862(5) 0.9952(4) 0.0347 Uani
C66 C 0.8906(5) 0.4835(5) 0.9907(4) 0.0357 Uani
H80 H 0.885118 0.490535 0.943187 0.0430 Uiso
loop_
_atom_site_aniso_label
_atom_site_aniso_U_11
_atom_site_aniso_U_22
_atom_site_aniso_U_33
_atom_site_aniso_U_23
_atom_site_aniso_U_13
_atom_site_aniso_U_12
V1 0.0264 0.0218 0.0183 0.0048 0.0005 0.0006
V2 0.0289 0.021 0.0222 0.0015 -0.0054 0.006
V6 0.0235 0.0369 0.0296 -0.002 0.0096 -0.0014
O2 0.022 0.02 0.019 0.0001 0.0014 0.0008
O4 0.022 0.027 0.024 0.0007 -0.0001 0.0024
O5 0.042 0.037 0.028 0.003 0.015 -0.002
O7 0.05 0.025 0.057 -0.007 0.007 -0.001
O9 0.039 0.032 0.022 0.0089 -0.0003 -0.001
O12 0.045 0.025 0.024 0.0042 -0.004 0.004
O13 0.02 0.0215 0.0219 0.0034 0.0034 0.0024
O15 0.035 0.024 0.023 0.0026 0.0056 -0.0014
O16 0.046 0.029 0.038 0 -0.012 0.013
N1 0.037 0.027 0.027 0.003 0.003 -0.007
O18 0.019 0.032 0.03 -0.0051 -0.0012 0.0055
O20 0.03 0.054 0.047 -0.005 0.015 -0.008
O21 0.033 0.053 0.056 -0.011 0.005 -0.019
C1 0.028 0.022 0.023 0 0.002 0.002
C2 0.021 0.03 0.031 0 0 -0.003
C6 0.028 0.022 0.024 0.002 0.004 -0.002
C8 0.038 0.027 0.025 0.003 0.004 -0.008
V3 0.0368 0.028 0.0184 0.0022 0.0052 -0.0006
V4 0.0206 0.0244 0.0235 -0.0028 0.0032 0.0004
V5 0.0286 0.0253 0.0338 0.0009 0.0001 0.0106
O1 0.031 0.025 0.03 -0.0026 0.0082 0.0035
O3 0.026 0.023 0.022 -0.0011 0.0015 0.0032
O6 0.035 0.02 0.023 -0.0005 0.0004 0.0014
O8 0.03 0.027 0.021 0.0004 0.0044 -0.0073
O10 0.034 0.027 0.033 0.0069 -0.0049 0.0063
O11 0.063 0.039 0.021 0 0.007 -0.002
O14 0.028 0.04 0.04 -0.01 0.008 -0.005
O17 0.025 0.043 0.04 -0.001 0.009 0.011
N2 0.05 0.028 0.031 -0.004 0.01 -0.002
O19 0.047 0.032 0.056 -0.001 0.005 0.02
O22 0.045 0.047 0.076 -0.022 0.004 -0.01
O23 0.069 0.035 0.083 -0.023 0.002 0.01
C3 0.03 0.027 0.024 -0.004 0.003 0.002
C4 0.033 0.025 0.026 -0.004 0.004 0
C5 0.037 0.028 0.031 -0.006 0.009 0.006
C7 0.04 0.023 0.031 0.001 0.003 0
Na8 0.081 0.062 0.0427 0.0112 -0.0048 -0.0004
O34 0.031 0.057 0.043 0.021 0.001 -0.004
O40 0.042 0.054 0.038 0.019 0.005 0.008
O51 0.031 0.036 0.034 0.009 0.008 0.0011
O56 0.027 0.04 0.04 0.014 0.004 0.003
O70 0.027 0.04 0.036 0.016 0.0097 0.008
O72 0.042 0.036 0.056 0.016 0.014 0.004
O90 0.054 0.058 0.03 0.007 0.014 0.015
O101 0.071 0.052 0.04 0.006 0.007 0.024
C22 0.042 0.048 0.026 0.006 0.008 0.003
C27 0.033 0.037 0.061 0.02 0.012 0.006
C30 0.028 0.037 0.031 0.006 0.009 0.003
O115 0.068 0.044 0.054 -0.004 0.018 0.009
C44 0.03 0.045 0.03 0.008 0.01 0.014
C54 0.025 0.031 0.033 0.005 0.007 0.002
C65 0.068 0.049 0.04 0.007 0.019 0.017
O117 0.046 0.085 0.064 -0.013 -0.004 0.016
C80 0.04 0.036 0.054 0.021 0.021 0.008
C82 0.029 0.039 0.033 0.011 0.01 0.009
C83 0.035 0.038 0.032 0.004 0.006 0.006
C91 0.046 0.036 0.038 0.013 0.024 0.007
C95 0.031 0.035 0.036 0.012 0.014 0.002
C97 0.048 0.042 0.034 0.011 0.007 0.015
Na4 0.078 0.113 0.068 -0.033 0.02 0.034
C100 0.039 0.049 0.043 0.022 0.018 0.011
O124 0.23 0.24 0.169 -0.081 -0.021 0.093
O132 0.025 0.049 0.026 -0.002 0.0056 -0.001
O136 0.072 0.042 0.1 -0.009 -0.023 0.001
O138 0.111 0.42 0.151 0.171 0.087 0.076
O103 0.095 0.047 0.101 -0.005 0.07 0.004
C58 0.053 0.033 0.072 0.008 0.024 0.009
O122 0.081 0.216 0.338 -0.224 -0.015 0.022
O129 0.036 0.041 0.038 0.002 0.012 0.005
O28 0.029 0.028 0.046 0.003 0.01 0.0081
O71 0.04 0.034 0.053 0.008 0.009 0
O84 0.035 0.051 0.054 0.024 0.001 0.008
C15 0.027 0.034 0.052 0.021 0.005 0.01
C20 0.03 0.028 0.049 0.015 0.01 0.012
C31 0.031 0.037 0.037 0.003 0.003 0.008
C37 0.033 0.032 0.033 0.01 0.007 0.006
C47 0.028 0.027 0.038 0.011 0.007 0.013
C61 0.034 0.052 0.054 0.012 0.002 -0.002
C94 0.033 0.023 0.04 0.015 0.011 0.011
O41 0.041 0.03 0.027 0.0082 0.0039 0.007
O77 0.049 0.035 0.04 -0.003 0 0.006
C25 0.041 0.031 0.03 -0.002 0.006 0.006
O119 0.097 0.146 0.057 0.02 0.024 0.012
C92 0.057 0.055 0.066 -0.026 0.015 -0.014
O126 0.026 0.049 0.022 0.003 0.0097 0.001
O128 0.04 0.038 0.03 -0.001 0.007 0.007
O130 0.022 0.053 0.037 -0.002 0.008 0.005
O131 0.057 0.05 0.043 0.019 0.024 0.02
V7 0.0252 0.0327 0.0182 0.0048 0.0038 -0.003
V8 0.0202 0.0333 0.0236 -0.002 0.0055 0.0042
V9 0.0272 0.0232 0.0288 0.0031 -0.0034 0.0012
V10 0.0296 0.0419 0.0213 0.0107 0.0016 -0.0001
V12 0.032 0.0238 0.0393 0.0073 -0.0034 0.0087
O24 0.026 0.031 0.032 0.008 0.0122 0.0039
O25 0.03 0.033 0.034 0.0079 0.0143 0.0116
O26 0.024 0.033 0.036 0.0088 0.0102 0.009
O27 0.033 0.025 0.047 0.012 0.015 0.0121
Na2 0.055 0.056 0.0504 -0.0005 0.0033 -0.001
O29 0.025 0.028 0.029 0.0098 0.0081 0.0106
O30 0.021 0.0185 0.024 0.0009 0.0002 0.0023
O31 0.034 0.029 0.027 0.0055 0.0123 0.0047
O32 0.035 0.05 0.047 0.021 -0.002 0.008
O35 0.026 0.034 0.034 0.0016 -0.0003 -0.0019
O36 0.037 0.044 0.021 0.0057 0.0036 0.005
O38 0.035 0.042 0.026 0.0028 0.0017 0.006
O39 0.044 0.031 0.036 0.0043 0.018 0.004
O43 0.034 0.038 0.03 0.0143 0.0072 0.015
O44 0.039 0.028 0.05 0.013 0.024 0.008
O45 0.023 0.034 0.042 0.011 0.0117 0.0047
O46 0.022 0.028 0.028 -0.0014 0.0016 0.0049
O47 0.021 0.036 0.021 0.001 0.0003 0.0004
O48 0.025 0.03 0.031 0.009 0.0081 0.0038
O49 0.035 0.033 0.032 0.0145 0.016 0.016
O50 0.035 0.028 0.022 0.0068 -0.0048 -0.0082
O52 0.027 0.02 0.039 0.0076 0.0127 0.0069
O53 0.048 0.026 0.056 0.008 0.014 0.008
O54 0.0218 0.0246 0.0192 0.0041 0.0041 0.0051
O55 0.027 0.027 0.027 0.0073 0.003 0.0008
O58 0.053 0.041 0.026 0 0.01 0.003
O59 0.028 0.039 0.057 -0.007 -0.003 0.004
O60 0.029 0.055 0.035 0.009 0.005 0.006
O61 0.037 0.028 0.058 -0.001 0.003 0.004
Na3 0.027 0.029 0.016 0.0046 0.0021 0.0074
O62 0.038 0.033 0.037 0.012 0.003 0.004
O64 0.035 0.03 0.051 0.022 0.022 0.013
O66 0.035 0.051 0.022 0.008 0.0047 -0.006
O68 0.047 0.063 0.055 0.028 0.011 0.008
N3 0.027 0.025 0.029 0 0.004 0
O73 0.041 0.08 0.035 0.032 0.009 0.013
O74 0.03 0.027 0.071 0.011 0.017 0.0038
O75 0.05 0.037 0.055 -0.001 0.015 0.014
O78 0.038 0.035 0.058 0.024 0.021 0.009
O83 0.036 0.04 0.044 0.023 -0.002 0.005
O85 0.053 0.026 0.058 0.011 -0.006 0.006
O86 0.046 0.08 0.043 0.01 0.017 0.008
O87 0.034 0.029 0.042 0.012 0.018 0.0103
O88 0.03 0.034 0.045 -0.001 -0.002 0.012
C9 0.025 0.032 0.044 0.014 0.008 0.011
O91 0.044 0.068 0.034 0.011 0.007 0.013
O92 0.027 0.029 0.033 -0.0042 -0.0021 0.0077
O93 0.047 0.025 0.054 0.004 -0.014 -0.004
O96 0.056 0.027 0.082 0.007 -0.022 -0.006
O98 0.085 0.068 0.047 -0.013 0.013 0.003
O99 0.022 0.053 0.059 -0.001 0.004 0.003
O100 0.075 0.058 0.048 0.031 0.029 0.032
C10 0.02 0.033 0.032 0.004 0.005 0.001
C11 0.026 0.034 0.048 0.017 0.018 0.012
O102 0.042 0.045 0.037 0.015 -0.004 0.005
C12 0.021 0.022 0.027 0.002 0.003 0.003
C13 0.033 0.044 0.032 0.015 0.013 0.012
C14 0.038 0.033 0.039 0.007 0.016 0.002
C16 0.019 0.029 0.027 0.007 0.005 0.002
O105 0.064 0.072 0.04 0.024 0.012 0.024
C18 0.025 0.022 0.029 0.001 0.004 0.004
C19 0.028 0.028 0.057 0.008 0.011 0.01
O107 0.045 0.065 0.053 0.029 0.003 0.014
C21 0.031 0.042 0.037 0.012 0.01 0.011
O108 0.093 0.074 0.036 0.024 0.024 0.032
C23 0.023 0.023 0.026 0.004 0.005 0.006
C24 0.032 0.032 0.03 0.006 0.013 0.006
C26 0.028 0.041 0.041 0.009 0.012 0.006
C29 0.03 0.024 0.032 0.013 0.005 0.01
O110 0.097 0.03 0.093 0 0.046 -0.005
O111 0.082 0.079 0.079 0.034 -0.027 -0.006
C32 0.027 0.024 0.03 -0.004 0.001 0.007
C33 0.035 0.041 0.032 0.013 0.017 0.016
O112 0.13 0.058 0.04 0.024 0.034 0.046
O113 0.029 0.064 0.14 0.033 0.01 0.013
O114 0.061 0.048 0.124 0.003 -0.004 -0.006
C34 0.041 0.029 0.045 0.013 0.021 0.01
C35 0.029 0.025 0.033 0.004 0.008 0.007
C36 0.029 0.032 0.032 0.006 0 0
C38 0.034 0.026 0.047 0.014 0.008 0.004
C39 0.023 0.03 0.034 -0.001 0.009 0.003
C40 0.028 0.021 0.024 0.004 0.002 0.004
C41 0.023 0.037 0.042 0.007 0.012 0.008
C42 0.03 0.03 0.043 0.001 0.016 0.008
C43 0.027 0.035 0.027 0.01 0.01 0.007
C45 0.026 0.029 0.029 0.006 0.006 0.004
C46 0.026 0.041 0.031 0.007 0.004 0.005
C48 0.031 0.035 0.026 0.011 0.005 0.01
C49 0.045 0.035 0.047 0.02 0.011 0.002
C50 0.026 0.023 0.024 0.003 0.003 0.002
C51 0.032 0.028 0.032 0.005 0.012 -0.002
C52 0.024 0.038 0.028 0.001 0.005 0.008
C53 0.035 0.033 0.029 0.002 0.003 0
C55 0.034 0.034 0.052 0.017 0.014 0.01
C56 0.036 0.022 0.028 0.008 0.007 0.006
C57 0.023 0.023 0.036 0.009 0.012 0.008
O116 0.08 0.063 0.057 0.001 0.004 0.024
C60 0.046 0.029 0.032 0.001 0.013 0.001
C63 0.043 0.049 0.044 0.008 -0.007 0.001
C64 0.037 0.03 0.05 0.019 0.014 0.008
O118 0.185 0.09 0.06 0.026 0.051 0.07
C67 0.023 0.022 0.038 0.005 0.012 0.005
C68 0.04 0.027 0.05 0.016 0.015 0.006
C69 0.022 0.035 0.028 0.005 0.007 0.007
C70 0.029 0.033 0.035 0.008 0.011 0.011
C71 0.034 0.033 0.048 0.01 0.005 0
C72 0.022 0.034 0.038 0.01 0.009 0.01
C73 0.039 0.037 0.043 0.016 0.018 0.003
C74 0.047 0.047 0.028 0.006 0 0.013
C75 0.066 0.035 0.04 0.016 0.026 0.02
C77 0.041 0.031 0.056 0.016 0.031 0.011
C78 0.032 0.029 0.032 0.01 0.005 -0.001
C81 0.034 0.027 0.024 0.009 0.01 0.004
C85 0.037 0.022 0.031 0.006 0.01 0.007
C86 0.033 0.03 0.031 0.014 0.008 0.011
C88 0.062 0.045 0.052 0 0.021 -0.009
C89 0.036 0.024 0.066 0.017 0.024 0.008
C90 0.033 0.045 0.067 0.009 0.002 0.013
C93 0.028 0.033 0.051 0.013 0.012 0.007
C96 0.026 0.031 0.032 0.004 0.004 0.009
C98 0.055 0.044 0.056 0.031 0.032 0.023
C99 0.062 0.059 0.055 0.007 0.008 0.007
Na5 0.068 0.067 0.064 0.006 0.023 0.02
Na6 0.108 0.071 0.05 0.001 0.014 0.041
O123 0.128 0.33 0.58 -0.32 0.18 -0.115
Na7 0.085 0.082 0.091 0.003 0.007 -0.002
O125 0.085 0.195 0.097 0.031 0.033 -0.007
O133 0.032 0.036 0.045 0.004 -0.003 0.01
O134 0.03 0.033 0.054 -0.002 -0.003 0.003
O135 0.024 0.079 0.048 -0.013 0.004 0.011
O76 0.046 0.065 0.027 0.016 -0.001 0
V11 0.0197 0.0435 0.0316 -0.0045 0.0049 0.0074
O63 0.023 0.038 0.024 0.0045 0.0037 -0.002
O79 0.023 0.043 0.064 0.016 0.002 0.008
O82 0.023 0.038 0.032 0.006 0.0007 0.0056
C79 0.028 0.043 0.026 0.002 0 -0.006
O33 0.034 0.035 0.035 0.012 0.01 0.007
O81 0.041 0.03 0.036 -0.005 0.008 -0.003
O97 0.051 0.035 0.065 0 -0.001 -0.01
O104 0.064 0.019 0.082 0.003 0.029 0.006
C28 0.035 0.027 0.034 0.017 0.007 0.008
C62 0.032 0.025 0.043 0.007 0.01 -0.001
O120 0.075 0.045 0.067 -0.009 0.03 -0.016
C76 0.048 0.024 0.045 0.014 0.02 0.008
C84 0.046 0.036 0.042 -0.002 0.013 -0.002
C87 0.035 0.023 0.034 0.005 0.006 -0.002
O67 0.047 0.05 0.036 -0.007 -0.003 -0.011
N4 0.029 0.061 0.032 0.008 -0.003 -0.007
C17 0.031 0.04 0.024 -0.004 0.001 -0.003
O109 0.024 0.083 0.067 -0.006 -0.005 0.001
C59 0.023 0.046 0.03 0.001 0.001 0.001
C66 0.022 0.048 0.033 0.006 -0.003 0.005
loop_
_geom_bond_atom_site_label_1
_geom_bond_atom_site_label_2
_geom_bond_site_symmetry_1
_geom_bond_site_symmetry_2
V1 O2 1_555 1_555
V2 O2 1_555 1_555
V6 O4 1_555 1_555
O2 C1 1_555 1_555
O4 V1 1_555 1_555
O7 N1 1_555 1_555
O9 V1 1_555 1_555
O12 V2 1_555 1_555
O13 V1 1_555 1_555
O15 V2 1_555 1_555
O16 V2 1_555 1_555
N1 O21 1_555 1_555
O18 V2 1_555 1_555
O20 V6 1_555 1_555
C1 H1 1_555 1_555
H2 C1 1_555 1_555
C2 O4 1_555 1_555
H3 C2 1_555 1_555
H4 C2 1_555 1_555
C6 N1 1_555 1_555
C8 O15 1_555 1_555
H11 C8 1_555 1_555
H12 C8 1_555 1_555
V2 O13 1_555 1_555
V6 O5 1_555 1_555
V6 O13 1_555 1_555
V6 O15 1_555 1_555
C1 C6 1_555 1_555
C2 C6 1_555 1_555
C6 C8 1_555 1_555
V3 O1 1_555 1_555
V4 O3 1_555 1_555
V5 O1 1_555 1_555
O1 C5 1_555 1_555
O3 V3 1_555 1_555
O6 V4 1_555 1_555
O11 V3 1_555 1_555
O14 V4 1_555 1_555
O17 V5 1_555 1_555
N2 O22 1_555 1_555
O19 V5 1_555 1_555
O23 N2 1_555 1_555
C3 O3 1_555 1_555
H5 C3 1_555 1_555
H6 C3 1_555 1_555
C4 N2 1_555 1_555
C5 C4 1_555 1_555
H7 C5 1_555 1_555
H8 C5 1_555 1_555
C7 O6 1_555 1_555
H9 C7 1_555 1_555
H10 C7 1_555 1_555
V4 O8 1_555 1_555
V5 O6 1_555 1_555
V5 O10 1_555 1_555
C3 C4 1_555 1_555
C4 C7 1_555 1_555
O34 C27 1_555 1_555
O40 C22 1_555 1_555
O51 C30 1_555 1_555
O56 C27 1_555 1_555
O70 C82 1_555 1_555
O72 C80 1_555 1_555
O90 C44 1_555 1_555
O101 C97 1_555 1_555
C22 H28 1_555 1_555
H29 C22 1_555 1_555
C27 H35 1_555 1_555
C30 C22 1_555 1_555
H38 C30 1_555 1_555
O115 C83 1_555 1_555
C44 H55 1_555 1_555
C54 O56 1_555 1_555
H65 C54 1_555 1_555
C65 H78 1_555 1_555
H79 C65 1_555 1_555
O117 C65 1_555 1_555
H98 C80 1_555 1_555
C82 O51 1_555 1_555
H100 C82 1_555 1_555
C83 C44 1_555 1_555
H101 C83 1_555 1_555
C91 O72 1_555 1_555
H111 C91 1_555 1_555
C95 O70 1_555 1_555
H116 C95 1_555 1_555
C97 C95 1_555 1_555
Na4 O90 1_555 1_555
C100 C80 1_555 1_555
H122 C100 1_555 1_555
O124 Na4 1_555 1_555
O136 Na4 1_555 1_555
O138 Na4 1_555 1_555
C30 C54 1_555 1_555
C44 C82 1_555 1_555
C54 C83 1_555 1_555
C65 C91 1_555 1_555
C91 C95 1_555 1_555
C97 C100 1_555 1_555
O101 H135 1_555 1_555
O117 H147 1_555 1_555
O124 H152 1_555 1_555
O124 H153 1_555 1_555
O103 C58 1_555 1_555
H69 C58 1_555 1_555
O103 H137 1_555 1_555
O122 H156 1_555 1_555
O122 H157 1_555 1_555
O28 C20 1_555 1_555
O71 C31 1_555 1_555
O84 C15 1_555 1_555
C15 H20 1_555 1_555
O136 C61 1_555 1_555
C20 C15 1_555 1_555
H26 C20 1_555 1_555
C31 H39 1_555 1_555
H40 C31 1_555 1_555
C37 C15 1_555 1_555
C47 O28 1_555 1_555
H58 C47 1_555 1_555
H73 C61 1_555 1_555
H115 C94 1_555 1_555
C31 C47 1_555 1_555
C37 C94 1_555 1_555
C47 C94 1_555 1_555
O84 H126 1_555 1_555
O71 H163 1_555 1_555
O77 C25 1_555 1_555
H33 C25 1_555 1_555
O119 C92 1_555 1_555
H112 C92 1_555 1_555
H113 C92 1_555 1_555
O77 H123 1_555 1_555
V7 O30 1_555 1_555
V8 O30 1_555 1_555
V9 O47 1_555 1_555
V10 O126 1_555 1_555
V12 O46 1_555 1_555
O24 C16 1_555 1_555
O25 C42 1_555 1_555
O26 C18 1_555 1_555
Na8 O35 1_555 1_555
Na2 O45 1_555 1_555
O29 C23 1_555 1_555
O30 C12 1_555 1_555
O31 C45 1_555 1_555
O32 C9 1_555 1_555
O35 C40 1_555 1_555
O36 C43 1_555 1_555
O126 V8 1_555 1_555
O38 C10 1_555 1_555
O39 C14 1_555 1_555
O128 C70 1_555 1_555
O43 Na3 1_555 1_555
O44 C34 1_555 1_555
O45 C11 1_555 1_555
O46 V7 1_555 1_555
O47 V10 1_555 1_555
O48 C51 1_555 1_555
O49 C43 1_555 1_555
O50 V7 1_555 1_555
O52 C35 1_555 1_555
O53 C55 1_555 1_555
O54 V7 1_555 1_555
O55 V8 1_555 1_555
O129 C26 1_555 1_555
O58 Na8 1_555 1_555
O59 N3 1_555 1_555
O60 Na3 1_555 1_555
O61 C38 1_555 1_555
Na3 O73 1_555 1_555
O62 C36 1_555 1_555
O64 C11 1_555 1_555
O130 V8 1_555 1_555
O66 V7 1_555 1_555
O68 C49 1_555 1_555
O131 C33 1_555 1_555
N3 O96 1_555 1_555
O73 C13 1_555 1_555
O74 C89 1_555 1_555
O75 C53 1_555 1_555
O78 C64 1_555 1_555
O132 V7 1_555 1_555
O83 V10 1_555 1_555
O85 V12 1_555 1_555
O86 C73 1_555 1_555
O87 C89 1_555 1_555
C9 H13 1_555 1_555
O92 V8 1_555 1_555
O93 V9 1_555 1_555
O98 C63 1_555 1_555
O99 C72 1_555 1_555
O100 C98 1_555 1_555
C10 H14 1_555 1_555
C11 H15 1_555 1_555
O102 Na3 1_555 1_555
C12 H16 1_555 1_555
H17 C12 1_555 1_555
C13 H18 1_555 1_555
C14 H19 1_555 1_555
C16 C10 1_555 1_555
H21 C16 1_555 1_555
C18 H24 1_555 1_555
C19 C9 1_555 1_555
H25 C19 1_555 1_555
O107 Na2 1_555 1_555
C21 O60 1_555 1_555
H27 C21 1_555 1_555
O108 Na3 1_555 1_555
C23 C18 1_555 1_555
H30 C23 1_555 1_555
C24 O24 1_555 1_555
H31 C24 1_555 1_555
C26 H34 1_555 1_555
C29 O29 1_555 1_555
H37 C29 1_555 1_555
O110 C88 1_555 1_555
O111 Na8 1_555 1_555
C32 O46 1_555 1_555
H41 C32 1_555 1_555
H42 C32 1_555 1_555
C33 C11 1_555 1_555
H43 C33 1_555 1_555
O112 C75 1_555 1_555
O113 C90 1_555 1_555
O114 C99 1_555 1_555
C34 C13 1_555 1_555
H44 C34 1_555 1_555
C35 O26 1_555 1_555
H45 C35 1_555 1_555
C36 C18 1_555 1_555
H46 C36 1_555 1_555
H47 C36 1_555 1_555
C38 C29 1_555 1_555
H49 C38 1_555 1_555
C39 C10 1_555 1_555
H50 C39 1_555 1_555
C40 C23 1_555 1_555
H51 C40 1_555 1_555
C41 O27 1_555 1_555
C42 O129 1_555 1_555
H53 C42 1_555 1_555
C43 H54 1_555 1_555
C45 C16 1_555 1_555
H56 C45 1_555 1_555
C46 O36 1_555 1_555
H57 C46 1_555 1_555
C48 O43 1_555 1_555
H59 C48 1_555 1_555
C49 H60 1_555 1_555
C50 N3 1_555 1_555
C51 O31 1_555 1_555
H61 C51 1_555 1_555
C52 C43 1_555 1_555
C53 C45 1_555 1_555
H63 C53 1_555 1_555
H64 C53 1_555 1_555
C55 O44 1_555 1_555
H66 C55 1_555 1_555
H67 C56 1_555 1_555
C57 O52 1_555 1_555
H68 C57 1_555 1_555
O116 Na2 1_555 1_555
C60 O107 1_555 1_555
H70 C60 1_555 1_555
H71 C60 1_555 1_555
C63 C46 1_555 1_555
H75 C63 1_555 1_555
H76 C63 1_555 1_555
C64 H77 1_555 1_555
O118 Na8 1_555 1_555
C67 O45 1_555 1_555
H82 C67 1_555 1_555
C68 O53 1_555 1_555
H83 C68 1_555 1_555
C69 O25 1_555 1_555
H84 C69 1_555 1_555
C70 C33 1_555 1_555
H85 C70 1_555 1_555
H86 C71 1_555 1_555
C72 C38 1_555 1_555
H87 C72 1_555 1_555
C73 C49 1_555 1_555
H88 C73 1_555 1_555
C74 O108 1_555 1_555
H89 C74 1_555 1_555
H90 C74 1_555 1_555
C75 H91 1_555 1_555
C77 O64 1_555 1_555
H93 C77 1_555 1_555
C78 O55 1_555 1_555
H94 C78 1_555 1_555
H95 C78 1_555 1_555
C81 O48 1_555 1_555
C85 O58 1_555 1_555
H103 C85 1_555 1_555
C86 O49 1_555 1_555
H104 C86 1_555 1_555
C88 C14 1_555 1_555
H106 C88 1_555 1_555
H107 C88 1_555 1_555
C90 H109 1_555 1_555
H110 C90 1_555 1_555
C93 O74 1_555 1_555
H114 C93 1_555 1_555
C96 C52 1_555 1_555
H117 C96 1_555 1_555
C98 C75 1_555 1_555
H119 C98 1_555 1_555
C99 C68 1_555 1_555
H120 C99 1_555 1_555
H121 C99 1_555 1_555
O138 Na3 1_555 1_555
Na5 O75 1_555 1_555
Na6 O75 1_555 1_555
O123 Na5 1_555 1_555
Na7 O110 1_555 1_555
O125 Na7 1_555 1_555
O133 Na2 1_555 1_555
O134 Na2 1_555 1_555
O135 Na2 1_555 1_555
O117 Na5 1_555 1_555
V8 O54 1_555 1_555
V9 O50 1_555 1_555
V9 O54 1_555 1_555
V9 O92 1_555 1_555
V10 O54 1_555 1_555
V12 O54 1_555 1_555
V12 O55 1_555 1_555
V12 O83 1_555 1_555
V12 O88 1_555 1_555
Na8 O92 1_555 1_555
O39 C24 1_555 1_555
O43 C29 1_555 1_555
C9 C41 1_555 1_555
C12 C50 1_555 1_555
C13 C21 1_555 1_555
C14 C34 1_555 1_555
C19 C42 1_555 1_555
C21 C24 1_555 1_555
C26 C41 1_555 1_555
C32 C50 1_555 1_555
C35 C85 1_555 1_555
C39 C51 1_555 1_555
C40 C85 1_555 1_555
C46 C69 1_555 1_555
C48 C74 1_555 1_555
C48 C86 1_555 1_555
C49 C55 1_555 1_555
C50 C78 1_555 1_555
C56 C81 1_555 1_555
C57 C67 1_555 1_555
C57 C70 1_555 1_555
C60 C67 1_555 1_555
C64 C68 1_555 1_555
C64 C73 1_555 1_555
C69 C96 1_555 1_555
C72 C86 1_555 1_555
C75 C77 1_555 1_555
C77 C93 1_555 1_555
C89 C98 1_555 1_555
C90 C93 1_555 1_555
Na5 Na6 1_555 1_555
Na6 Na7 1_555 1_555
O123 Na7 1_555 1_555
O86 H124 1_555 1_555
O102 H130 1_555 1_555
O102 H131 1_555 1_555
O98 H132 1_555 1_555
O100 H133 1_555 1_555
O99 H134 1_555 1_555
O105 H138 1_555 1_555
O111 H139 1_555 1_555
O111 H140 1_555 1_555
O113 H141 1_555 1_555
O114 H142 1_555 1_555
O112 H143 1_555 1_555
O116 H145 1_555 1_555
O116 H146 1_555 1_555
O118 H149 1_555 1_555
O118 H150 1_555 1_555
O125 H154 1_555 1_555
O125 H155 1_555 1_555
O38 H158 1_555 1_555
O32 H159 1_555 1_555
O61 H160 1_555 1_555
O62 H161 1_555 1_555
O131 H162 1_555 1_555
O128 H164 1_555 1_555
O68 H165 1_555 1_555
O135 V11 1_555 1_555
C79 O63 1_555 1_555
H96 C79 1_555 1_555
H97 C79 1_555 1_555
V11 O63 1_555 1_555
V11 O82 1_555 1_555
O33 C28 1_555 1_555
O97 C87 1_555 1_555
O104 C76 1_555 1_555
C28 H36 1_555 1_555
C62 O33 1_555 1_555
H74 C62 1_555 1_555
O120 C84 1_555 1_555
C76 C28 1_555 1_555
H92 C76 1_555 1_555
H102 C84 1_555 1_555
C87 C76 1_555 1_555
H105 C87 1_555 1_555
C62 C84 1_555 1_555
O81 H127 1_555 1_555
O104 H129 1_555 1_555
O97 H136 1_555 1_555
O120 H151 1_555 1_555
O67 N4 1_555 1_555
N4 O109 1_555 1_555
H22 C17 1_555 1_555
H23 C17 1_555 1_555
C59 N4 1_555 1_555
H80 C66 1_555 1_555
C17 C59 1_555 1_555
C59 C66 1_555 1_555

#END
