
###############################################################################
#
# This file contains modified crystal structure data generated from the
# MOF subset of the Cambridge Structural Database (CSD) v543 
# hosted by the Cambridge Crystallographic Data Centre (CCDC).
#
# This work is licensed under the Creative Commons
# Attribution-NonCommercial-ShareAlike 4.0 International License.
# To view a copy of this license, visit
# http://creativecommons.org/licenses/by-nc-sa/4.0/
# or send a letter to
# Creative Commons, PO Box 1866, Mountain View, CA 94042, USA.
#
# CIF created using the CSD Python API on 29 September 2022
# The structure has been converted into the P1 space group
# The structure has a 3D framework
# The original CSD entry VAHTUW is in the orthorhombic crystal system
# The framework has been calculated to contain at least 10.0% void space
# The void calculation uses a probe of radius 1.32A, grid spacing 0.4
# H atom positions have been added when not included in the experimental data
# Generated hydrogen atom positions removed from atoms on special positions
#
###############################################################################

data_VAHTUW
_chemical_formula_moiety         '(C1344 H896 O181 Tb29)n'
_symmetry_cell_setting           triclinic
_symmetry_space_group_name_H-M   'P 1'
_symmetry_Int_Tables_number      1
_space_group_name_Hall           'P 1'
loop_
_symmetry_equiv_pos_site_id
_symmetry_equiv_pos_as_xyz
1 x,y,z
_cell_length_a                   88.79(4)
_cell_length_b                   13.988(6)
_cell_length_c                   27.888(13)
_cell_angle_alpha                90
_cell_angle_beta                 90
_cell_angle_gamma                90
_cell_volume                     34636.7
loop_
_atom_site_label
_atom_site_type_symbol
_atom_site_fract_x
_atom_site_fract_y
_atom_site_fract_z
C1 C 0.1395(2) 0.1292(14) 0.3918(8)
H1 H 0.1296 0.1249 0.4027
C2 C 0.1485(2) 0.0566(15) 0.3995(8)
C3 C 0.1647(2) 0.0639(15) 0.3914(8)
H3 H 0.1712 0.0166 0.4022
C4 C 0.1701(2) 0.1435(14) 0.3670(8)
H4 H 0.1802 0.1458 0.3588
C5 C 0.1826(2) 0.3196(15) 0.3284(10)
C6 C 0.1911(2) 0.2675(13) 0.2930(10)
H5 H 0.1862 0.2200 0.2756
C7 C 0.2062(2) 0.2848(14) 0.2832(10)
H6 H 0.2109 0.2541 0.2576
C8 C 0.2142(2) 0.3466(15) 0.3112(10)
C9 C 0.2061(2) 0.3988(14) 0.3504(9)
H7 H 0.2113 0.4421 0.3697
C10 C 0.1916(2) 0.3826(14) 0.3572(9)
H8 H 0.1868 0.4142 0.3824
C11 C 0.2298(2) 0.3681(15) 0.3018(9)
C12 C 0.2307(3) 0.4481(16) 0.1995(10)
O1 O 0.2685(2) 0.4680(14) 0.3369(10)
C13 C 0.2128(3) 0.4718(16) 0.1859(10)
C14 C 0.2056(3) 0.4318(16) 0.1548(10)
H9 H 0.2105 0.3839 0.1377
C15 C 0.1914(3) 0.4500(16) 0.1430(10)
H10 H 0.1873 0.4217 0.1158
C16 C 0.1824(3) 0.5128(16) 0.1715(10)
C17 C 0.1906(3) 0.5588(15) 0.2092(10)
H11 H 0.1854 0.5997 0.2296
C18 C 0.2055(3) 0.5465(16) 0.2170(10)
H12 H 0.2108 0.5814 0.2398
C19 C 0.1563(2) 0.4472(14) 0.1737(8)
C20 C 0.1403(2) 0.4591(14) 0.1593(8)
C21 C 0.1351(2) 0.5421(14) 0.1441(8)
C22 C 0.1446(2) 0.6217(13) 0.1369(8)
C23 C 0.1611(2) 0.6173(13) 0.1441(8)
C24 C 0.1660(2) 0.5236(13) 0.1642(8)
C25 C 0.1614(2) 0.3600(13) 0.1969(8)
H13 H 0.1712 0.3583 0.2084
C26 C 0.1529(2) 0.2824(14) 0.2029(8)
H14 H 0.1568 0.2256 0.2152
C27 C 0.1374(2) 0.2927(14) 0.1889(8)
H15 H 0.1311 0.2402 0.1929
C28 C 0.1313(2) 0.3742(13) 0.1703(8)
H16 H 0.1210 0.3760 0.1645
C29 C 0.1391(2) 0.7086(13) 0.1183(8)
H17 H 0.1289 0.7150 0.1127
C30 C 0.1486(2) 0.7858(14) 0.1080(8)
H18 H 0.1448 0.8434 0.0965
C31 C 0.1652(2) 0.7716(13) 0.1166(8)
H19 H 0.1719 0.8203 0.1084
C32 C 0.1705(2) 0.6925(13) 0.1352(7)
H20 H 0.1807 0.6875 0.1423
C33 C 0.1183(2) 0.5485(15) 0.1316(9)
C34 C 0.1072(2) 0.5560(15) 0.1711(9)
C35 C 0.0917(2) 0.5524(15) 0.1602(9)
C36 C 0.0862(2) 0.5435(15) 0.1112(9)
C37 C 0.0978(2) 0.5459(15) 0.0729(9)
C38 C 0.1129(2) 0.5457(15) 0.0887(9)
C39 C 0.1243(2) 0.5441(15) 0.0458(8)
H21 H 0.1346 0.5457 0.0512
C40 C 0.1188(2) 0.5403(14) 0.0007(9)
C42 C 0.0937(2) 0.5451(15) 0.0218(8)
H24 H 0.0836 0.5498 0.0136
C43 C 0.1113(2) 0.5614(15) 0.2213(9)
H25 H 0.1214 0.5592 0.2300
C44 C 0.1009(2) 0.5693(14) 0.2550(9)
H26 H 0.1036 0.5808 0.2866
C45 C 0.0859(2) 0.5606(14) 0.2430(9)
H27 H 0.0791 0.5554 0.2683
C46 C 0.0803(2) 0.5587(14) 0.2006(8)
H28 H 0.0700 0.5611 0.1951
C47 C 0.0703(2) 0.5334(16) 0.0971(9)
C48 C 0.0644(2) 0.4493(16) 0.0989(9)
H29 H 0.0700 0.3988 0.1114
C49 C 0.0499(2) 0.4327(16) 0.0826(9)
H30 H 0.0465 0.3701 0.0801
C50 C 0.0403(2) 0.5064(16) 0.0698(9)
C51 C 0.0471(2) 0.5965(16) 0.0699(9)
H31 H 0.0418 0.6485 0.0578
C52 C 0.0613(2) 0.6110(16) 0.0871(9)
H32 H 0.0649 0.6727 0.0920
C53 C 0.0247(2) 0.4867(15) 0.0532(9)
C54 C 0.1667(2) 0.3029(14) 0.3377(9)
C55 C 0.1606(2) 0.2218(14) 0.3541(9)
C56 C 0.1441(2) 0.2145(14) 0.3674(9)
C57 C 0.1351(2) 0.2906(15) 0.3596(9)
C58 C 0.1407(2) 0.3759(15) 0.3372(9)
C59 C 0.1576(2) 0.3860(15) 0.3277(8)
C60 C 0.1623(2) 0.4744(14) 0.3058(8)
H33 H 0.1722 0.4825 0.2957
C61 C 0.1523(2) 0.5441(15) 0.3001(8)
H34 H 0.1556 0.6000 0.2855
C62 C 0.1378(2) 0.5402(15) 0.3138(8)
H35 H 0.1317 0.5937 0.3100
C63 C 0.1323(2) 0.4648(14) 0.3320(8)
H36 H 0.1224 0.4662 0.3425
C64 C 0.1191(2) 0.2830(15) 0.3711(8)
C65 C 0.1143(2) 0.2848(16) 0.4215(8)
C66 C 0.0992(2) 0.2854(16) 0.4349(8)
C67 C 0.0881(2) 0.2835(16) 0.4003(8)
C68 C 0.0911(2) 0.2821(15) 0.3499(8)
C69 C 0.1074(2) 0.2843(16) 0.3391(8)
C70 C 0.1118(3) 0.276(2) 0.2887(10)
H37 H 0.1219 0.2723 0.2801
C71 C 0.0999(3) 0.2749(14) 0.2523(8)
H38 H 0.1025 0.2702 0.2200
C72 C 0.0850(2) 0.2805(15) 0.2658(8)
H39 H 0.0775 0.2846 0.2428
C73 C 0.0815(2) 0.2799(15) 0.3150(8)
H40 H 0.0713 0.2779 0.3231
C74 C 0.0949(2) 0.2868(16) 0.4834(8)
H41 H 0.0848 0.2821 0.4921
C75 C 0.1066(2) 0.2958(15) 0.5196(8)
H42 H 0.1043 0.3004 0.5521
C76 C 0.1220(2) 0.2972(15) 0.5030(8)
H43 H 0.1294 0.3008 0.5264
C77 C 0.1264(2) 0.2942(15) 0.4601(8)
H44 H 0.1366 0.2975 0.4523
C78 C 0.0709(2) 0.2909(16) 0.4158(9)
C79 C 0.0645(2) 0.2127(16) 0.4347(9)
H45 H 0.0697 0.1550 0.4366
C80 C 0.0494(2) 0.2219(16) 0.4518(9)
H46 H 0.0449 0.1701 0.4671
C81 C 0.0415(2) 0.3027(15) 0.4464(9)
C82 C 0.0491(2) 0.3783(16) 0.4243(9)
H47 H 0.0437 0.4335 0.4174
C83 C 0.0639(2) 0.3759(16) 0.4124(9)
H48 H 0.0690 0.4305 0.4023
C84 C 0.0253(2) 0.3151(15) 0.4645(9)
O2 O 0.2367(2) 0.5082(14) 0.2288(9)
O3 O 0.2346(2) 0.3698(15) 0.1819(9)
O4 O 0.0165(2) 0.5616(15) 0.0551(9)
O5 O 0.02026(19) 0.4124(14) 0.0452(10)
O6 O 0.01851(19) 0.3888(14) 0.4579(10)
O7 O 0.0199(2) 0.2428(14) 0.4865(9)
O8 O 0.2366(2) 0.4407(15) 0.3214(9)
O9 O 0.2375(2) 0.3149(14) 0.2758(9)
O10 O 0.2549(2) 0.6476(14) 0.2234(9)
O11 O 0.24818(19) 0.6032(14) 0.3755(9)
O12 O 0.2500 0.2500 0.1245(13)
Tb1 Tb 0.25101(2) 0.56192(11) 0.28702(8)
Tb2 Tb 0.2500 0.2500 0.20899(10)
C85 C 0.3605(2) 0.3708(14) 0.3918(8)
H49 H 0.3704 0.3751 0.4027
C86 C 0.3515(2) 0.4434(15) 0.3995(8)
H50 H 0.3554 0.5009 0.4104
C87 C 0.3353(2) 0.4361(15) 0.3914(8)
H51 H 0.3288 0.4834 0.4022
C88 C 0.3299(2) 0.3565(14) 0.3670(8)
H52 H 0.3198 0.3542 0.3588
C89 C 0.3174(2) 0.1804(15) 0.3284(10)
C90 C 0.3089(2) 0.2325(13) 0.2930(10)
H53 H 0.3138 0.2800 0.2756
C91 C 0.2938(2) 0.2152(14) 0.2832(10)
H54 H 0.2891 0.2459 0.2576
C92 C 0.2858(2) 0.1534(15) 0.3112(10)
C93 C 0.2939(2) 0.1012(14) 0.3504(9)
H55 H 0.2887 0.0579 0.3697
C94 C 0.3084(2) 0.1174(14) 0.3572(9)
H56 H 0.3132 0.0858 0.3824
C95 C 0.2702(2) 0.1319(15) 0.3018(9)
C96 C 0.2693(3) 0.0519(16) 0.1995(10)
O13 O 0.2315(2) 0.0320(14) 0.3369(10)
C97 C 0.2872(3) 0.0282(16) 0.1859(10)
C98 C 0.2944(3) 0.0682(16) 0.1548(10)
H57 H 0.2895 0.1161 0.1377
C99 C 0.3086(3) 0.0500(16) 0.1430(10)
H58 H 0.3127 0.0783 0.1158
C103 C 0.3437(2) 0.0528(14) 0.1737(8)
C104 C 0.3597(2) 0.0409(14) 0.1593(8)
C109 C 0.3386(2) 0.1400(13) 0.1969(8)
H61 H 0.3288 0.1417 0.2084
C110 C 0.3471(2) 0.2176(14) 0.2029(8)
H62 H 0.3432 0.2744 0.2152
C111 C 0.3626(2) 0.2073(14) 0.1889(8)
H63 H 0.3689 0.2598 0.1929
C112 C 0.3687(2) 0.1258(13) 0.1703(8)
H64 H 0.3790 0.1240 0.1645
C132 C 0.4356(2) 0.0507(16) 0.0989(9)
H77 H 0.4300 0.1012 0.1114
C133 C 0.4501(2) 0.0673(16) 0.0826(9)
H78 H 0.4535 0.1299 0.0801
C137 C 0.4753(2) 0.0133(15) 0.0532(9)
C138 C 0.3333(2) 0.1971(14) 0.3377(9)
C139 C 0.3394(2) 0.2782(14) 0.3541(9)
C140 C 0.3559(2) 0.2855(14) 0.3674(9)
C141 C 0.3649(2) 0.2094(15) 0.3596(9)
C142 C 0.3593(2) 0.1241(15) 0.3372(9)
C143 C 0.3424(2) 0.1140(15) 0.3277(8)
C144 C 0.3377(2) 0.0256(14) 0.3058(8)
H81 H 0.3278 0.0175 0.2957
C147 C 0.3677(2) 0.0352(14) 0.3320(8)
H84 H 0.3776 0.0338 0.3425
C148 C 0.3809(2) 0.2170(15) 0.3711(8)
C149 C 0.3857(2) 0.2152(16) 0.4215(8)
C150 C 0.4008(2) 0.2146(16) 0.4349(8)
C151 C 0.4119(2) 0.2165(16) 0.4003(8)
C152 C 0.4089(2) 0.2179(15) 0.3499(8)
C153 C 0.3926(2) 0.2157(16) 0.3391(8)
C154 C 0.3882(3) 0.224(2) 0.2887(10)
H85 H 0.3781 0.2277 0.2801
C155 C 0.4001(3) 0.2251(14) 0.2523(8)
H86 H 0.3975 0.2298 0.2200
C156 C 0.4150(2) 0.2195(15) 0.2658(8)
H87 H 0.4225 0.2154 0.2428
C157 C 0.4185(2) 0.2201(15) 0.3150(8)
H88 H 0.4287 0.2221 0.3231
C158 C 0.4051(2) 0.2132(16) 0.4834(8)
H89 H 0.4152 0.2179 0.4921
C159 C 0.3934(2) 0.2042(15) 0.5196(8)
H90 H 0.3957 0.1996 0.5521
C160 C 0.3780(2) 0.2028(15) 0.5030(8)
H91 H 0.3706 0.1992 0.5264
C161 C 0.3736(2) 0.2058(15) 0.4601(8)
H92 H 0.3634 0.2025 0.4523
C162 C 0.4291(2) 0.2091(16) 0.4158(9)
C163 C 0.4355(2) 0.2873(16) 0.4347(9)
H93 H 0.4303 0.3450 0.4366
C164 C 0.4506(2) 0.2781(16) 0.4518(9)
H94 H 0.4551 0.3299 0.4671
C165 C 0.4585(2) 0.1973(15) 0.4464(9)
C166 C 0.4509(2) 0.1217(16) 0.4243(9)
H95 H 0.4563 0.0665 0.4174
C167 C 0.4361(2) 0.1241(16) 0.4124(9)
H96 H 0.4310 0.0695 0.4023
C168 C 0.4747(2) 0.1849(15) 0.4645(9)
O15 O 0.2654(2) 0.1302(15) 0.1819(9)
O17 O 0.47974(19) 0.0876(14) 0.0452(10)
O18 O 0.48149(19) 0.1112(14) 0.4579(10)
O19 O 0.4801(2) 0.2572(14) 0.4865(9)
O20 O 0.2634(2) 0.0593(15) 0.3214(9)
O21 O 0.2625(2) 0.1851(14) 0.2758(9)
O25 O 0.2665(2) 0.6884(15) 0.3051(9)
O26 O 0.22974(19) 0.6624(14) 0.2952(10)
O28 O 0.23149(19) 0.1388(14) 0.2079(10)
O29 O 0.26851(19) 0.3612(14) 0.2079(10)
O31 O 0.2699(2) 0.5072(14) 0.2365(9)
Tb4 Tb 0.00101(2) 0.18808(11) 0.53702(8)
Tb6 Tb 0.00101(2) 0.68808(11) 0.03702(8)
Tb8 Tb 0.50101(2) 0.18808(11) 0.03702(8)
Tb9 Tb 0.49899(2) 0.31192(11) 0.53702(8)
Tb10 Tb -0.0000 0.5000 0.45899(10)
Tb11 Tb 0.5000 0.0000 0.45899(10)
H101 H 0.276234 0.437782 0.316121
H102 H 0.273497 0.510795 0.360436
H103 H 0.259123 0.606615 0.197623
H104 H 0.24523 0.675804 0.212454
H107 H 0.257901 0.627911 0.388001
H108 H 0.240272 0.652802 0.379363
H109 H 0.223766 0.0622185 0.316121
H2 H 0.1446 0.9991 0.4104
C100 C 0.3176(3) 0.9872(16) 0.1715(10)
C101 C 0.3094(3) 0.9412(15) 0.2092(10)
H59 H 0.3146 0.9003 0.2296
C102 C 0.2945(3) 0.9535(16) 0.2170(10)
H60 H 0.2892 0.9186 0.2398
C105 C 0.3649(2) 0.9579(14) 0.1441(8)
C106 C 0.3554(2) 0.8783(13) 0.1369(8)
C107 C 0.3389(2) 0.8827(13) 0.1441(8)
C108 C 0.3340(2) 0.9764(13) 0.1642(8)
C113 C 0.3609(2) 0.7914(13) 0.1183(8)
H65 H 0.3711 0.7850 0.1127
C114 C 0.3514(2) 0.7142(14) 0.1080(8)
H66 H 0.3552 0.6566 0.0965
C115 C 0.3348(2) 0.7284(13) 0.1166(8)
H67 H 0.3281 0.6797 0.1084
C116 C 0.3295(2) 0.8075(13) 0.1352(7)
H68 H 0.3193 0.8125 0.1423
C117 C 0.3817(2) 0.9515(15) 0.1316(9)
C118 C 0.3928(2) 0.9440(15) 0.1711(9)
C119 C 0.4083(2) 0.9476(15) 0.1602(9)
C120 C 0.4138(2) 0.9565(15) 0.1112(9)
C121 C 0.4022(2) 0.9541(15) 0.0729(9)
C122 C 0.3871(2) 0.9543(15) 0.0887(9)
C123 C 0.3757(2) 0.9559(15) 0.0458(8)
H69 H 0.3654 0.9543 0.0512
C124 C 0.3812(2) 0.9597(14) 0.0007(9)
C126 C 0.4063(2) 0.9549(15) 0.0218(8)
H72 H 0.4164 0.9502 0.0136
C127 C 0.3887(2) 0.9386(15) 0.2213(9)
H73 H 0.3786 0.9408 0.2300
C128 C 0.3991(2) 0.9307(14) 0.2550(9)
H74 H 0.3964 0.9192 0.2866
C129 C 0.4141(2) 0.9394(14) 0.2430(9)
H75 H 0.4209 0.9446 0.2683
C130 C 0.4197(2) 0.9413(14) 0.2006(8)
H76 H 0.4300 0.9389 0.1951
C131 C 0.4297(2) 0.9666(16) 0.0971(9)
C134 C 0.4597(2) 0.9936(16) 0.0698(9)
C135 C 0.4529(2) 0.9035(16) 0.0699(9)
H79 H 0.4582 0.8515 0.0578
C136 C 0.4387(2) 0.8890(16) 0.0871(9)
H80 H 0.4351 0.8273 0.0920
C145 C 0.3477(2) 0.9559(15) 0.3001(8)
H82 H 0.3444 0.9000 0.2855
C146 C 0.3622(2) 0.9598(15) 0.3138(8)
H83 H 0.3683 0.9063 0.3100
O14 O 0.2633(2) 0.9918(14) 0.2288(9)
O16 O 0.4835(2) 0.9384(15) 0.0551(9)
O22 O 0.2451(2) 0.8524(14) 0.2234(9)
O23 O 0.25182(19) 0.8968(14) 0.3755(9)
Tb3 Tb 0.24899(2) 0.93808(11) 0.28702(8)
O24 O 0.2335(2) 0.8116(15) 0.3051(9)
O27 O 0.27026(19) 0.8376(14) 0.2952(10)
O30 O 0.2301(2) 0.9928(14) 0.2365(9)
Tb7 Tb 0.49899(2) 0.81192(11) 0.03702(8)
Tb11_2 Tb 0.5000 1.0000 0.45899(10)
H97 H 0.242099 0.872089 0.388001
H98 H 0.259728 0.847198 0.379363
H99 H 0.240877 0.893385 0.197623
H100 H 0.25477 0.824196 0.212454
H110 H 0.226503 0.989205 0.360436
Tb5 Tb 0.99899(2) 0.31192(11) 0.03702(8)
Tb10_2 Tb 1.0000 0.5000 0.45899(10)
H2_2 H 0.8554 0.0009 0.4104
C100_2 C 0.6824(3) 0.0128(16) 0.1715(10)
C101_2 C 0.6906(3) 0.0588(15) 0.2092(10)
H59_2 H 0.6854 0.0997 0.2296
C102_2 C 0.7055(3) 0.0465(16) 0.2170(10)
H60_2 H 0.7108 0.0814 0.2398
C105_2 C 0.6351(2) 0.0421(14) 0.1441(8)
C106_2 C 0.6446(2) 0.1217(13) 0.1369(8)
C107_2 C 0.6611(2) 0.1173(13) 0.1441(8)
C108_2 C 0.6660(2) 0.0236(13) 0.1642(8)
C113_2 C 0.6391(2) 0.2086(13) 0.1183(8)
H65_2 H 0.6289 0.2150 0.1127
C114_2 C 0.6486(2) 0.2858(14) 0.1080(8)
H66_2 H 0.6448 0.3434 0.0965
C115_2 C 0.6652(2) 0.2716(13) 0.1166(8)
H67_2 H 0.6719 0.3203 0.1084
C116_2 C 0.6705(2) 0.1925(13) 0.1352(7)
H68_2 H 0.6807 0.1875 0.1423
C117_2 C 0.6183(2) 0.0485(15) 0.1316(9)
C118_2 C 0.6072(2) 0.0560(15) 0.1711(9)
C119_2 C 0.5917(2) 0.0524(15) 0.1602(9)
C120_2 C 0.5862(2) 0.0435(15) 0.1112(9)
C121_2 C 0.5978(2) 0.0459(15) 0.0729(9)
C122_2 C 0.6129(2) 0.0457(15) 0.0887(9)
C123_2 C 0.6243(2) 0.0441(15) 0.0458(8)
H69_2 H 0.6346 0.0457 0.0512
C124_2 C 0.6188(2) 0.0403(14) 0.0007(9)
C126_2 C 0.5937(2) 0.0451(15) 0.0218(8)
H72_2 H 0.5836 0.0498 0.0136
C127_2 C 0.6113(2) 0.0614(15) 0.2213(9)
H73_2 H 0.6214 0.0592 0.2300
C128_2 C 0.6009(2) 0.0693(14) 0.2550(9)
H74_2 H 0.6036 0.0808 0.2866
C129_2 C 0.5859(2) 0.0606(14) 0.2430(9)
H75_2 H 0.5791 0.0554 0.2683
C130_2 C 0.5803(2) 0.0587(14) 0.2006(8)
H76_2 H 0.5700 0.0611 0.1951
C131_2 C 0.5703(2) 0.0334(16) 0.0971(9)
C134_2 C 0.5403(2) 0.0064(16) 0.0698(9)
C135_2 C 0.5471(2) 0.0965(16) 0.0699(9)
H79_2 H 0.5418 0.1485 0.0578
C136_2 C 0.5613(2) 0.1110(16) 0.0871(9)
H80_2 H 0.5649 0.1727 0.0920
C145_2 C 0.6523(2) 0.0441(15) 0.3001(8)
H82_2 H 0.6556 0.1000 0.2855
C146_2 C 0.6378(2) 0.0402(15) 0.3138(8)
H83_2 H 0.6317 0.0937 0.3100
O14_2 O 0.7367(2) 0.0082(14) 0.2288(9)
O16_2 O 0.5165(2) 0.0616(15) 0.0551(9)
O22_2 O 0.7549(2) 0.1476(14) 0.2234(9)
O23_2 O 0.74818(19) 0.1032(14) 0.3755(9)
Tb3_2 Tb 0.75101(2) 0.06192(11) 0.28702(8)
O24_2 O 0.7665(2) 0.1884(15) 0.3051(9)
O27_2 O 0.72974(19) 0.1624(14) 0.2952(10)
O30_2 O 0.7699(2) 0.0072(14) 0.2365(9)
H97_2 H 0.757901 0.127911 0.388001
H98_2 H 0.740272 0.152802 0.379363
H99_2 H 0.759123 0.106615 0.197623
H100_2 H 0.74523 0.175804 0.212454
H110_2 H 0.773497 0.010795 0.360436
C1_2 C 0.8605(2) 0.8708(14) 0.3918(8)
H1_2 H 0.8704 0.8751 0.4027
C2_2 C 0.8515(2) 0.9434(15) 0.3995(8)
C3_2 C 0.8353(2) 0.9361(15) 0.3914(8)
H3_2 H 0.8288 0.9834 0.4022
C4_2 C 0.8299(2) 0.8565(14) 0.3670(8)
H4_2 H 0.8198 0.8542 0.3588
C5_2 C 0.8174(2) 0.6804(15) 0.3284(10)
C6_2 C 0.8089(2) 0.7325(13) 0.2930(10)
H5_2 H 0.8138 0.7800 0.2756
C7_2 C 0.7938(2) 0.7152(14) 0.2832(10)
H6_2 H 0.7891 0.7459 0.2576
C8_2 C 0.7858(2) 0.6534(15) 0.3112(10)
C9_2 C 0.7939(2) 0.6012(14) 0.3504(9)
H7_2 H 0.7887 0.5579 0.3697
C10_2 C 0.8084(2) 0.6174(14) 0.3572(9)
H8_2 H 0.8132 0.5858 0.3824
C11_2 C 0.7702(2) 0.6319(15) 0.3018(9)
C12_2 C 0.7693(3) 0.5519(16) 0.1995(10)
O1_2 O 0.7315(2) 0.5320(14) 0.3369(10)
C13_2 C 0.7872(3) 0.5282(16) 0.1859(10)
C14_2 C 0.7944(3) 0.5682(16) 0.1548(10)
H9_2 H 0.7895 0.6161 0.1377
C15_2 C 0.8086(3) 0.5500(16) 0.1430(10)
H10_2 H 0.8127 0.5783 0.1158
C16_2 C 0.8176(3) 0.4872(16) 0.1715(10)
C17_2 C 0.8094(3) 0.4412(15) 0.2092(10)
H11_2 H 0.8146 0.4003 0.2296
C18_2 C 0.7945(3) 0.4535(16) 0.2170(10)
H12_2 H 0.7892 0.4186 0.2398
C19_2 C 0.8437(2) 0.5528(14) 0.1737(8)
C20_2 C 0.8597(2) 0.5409(14) 0.1593(8)
C21_2 C 0.8649(2) 0.4579(14) 0.1441(8)
C22_2 C 0.8554(2) 0.3783(13) 0.1369(8)
C23_2 C 0.8389(2) 0.3827(13) 0.1441(8)
C24_2 C 0.8340(2) 0.4764(13) 0.1642(8)
C25_2 C 0.8386(2) 0.6400(13) 0.1969(8)
H13_2 H 0.8288 0.6417 0.2084
C26_2 C 0.8471(2) 0.7176(14) 0.2029(8)
H14_2 H 0.8432 0.7744 0.2152
C27_2 C 0.8626(2) 0.7073(14) 0.1889(8)
H15_2 H 0.8689 0.7598 0.1929
C28_2 C 0.8687(2) 0.6258(13) 0.1703(8)
H16_2 H 0.8790 0.6240 0.1645
C29_2 C 0.8609(2) 0.2914(13) 0.1183(8)
H17_2 H 0.8711 0.2850 0.1127
C30_2 C 0.8514(2) 0.2142(14) 0.1080(8)
H18_2 H 0.8552 0.1566 0.0965
C31_2 C 0.8348(2) 0.2284(13) 0.1166(8)
H19_2 H 0.8281 0.1797 0.1084
C32_2 C 0.8295(2) 0.3075(13) 0.1352(7)
H20_2 H 0.8193 0.3125 0.1423
C33_2 C 0.8817(2) 0.4515(15) 0.1316(9)
C34_2 C 0.8928(2) 0.4440(15) 0.1711(9)
C35_2 C 0.9083(2) 0.4476(15) 0.1602(9)
C36_2 C 0.9138(2) 0.4565(15) 0.1112(9)
C37_2 C 0.9022(2) 0.4541(15) 0.0729(9)
C38_2 C 0.8871(2) 0.4543(15) 0.0887(9)
C39_2 C 0.8757(2) 0.4559(15) 0.0458(8)
H21_2 H 0.8654 0.4543 0.0512
C40_2 C 0.8812(2) 0.4597(14) 0.0007(9)
C42_2 C 0.9063(2) 0.4549(15) 0.0218(8)
H24_2 H 0.9164 0.4502 0.0136
C43_2 C 0.8887(2) 0.4386(15) 0.2213(9)
H25_2 H 0.8786 0.4408 0.2300
C44_2 C 0.8991(2) 0.4307(14) 0.2550(9)
H26_2 H 0.8964 0.4192 0.2866
C45_2 C 0.9141(2) 0.4394(14) 0.2430(9)
H27_2 H 0.9209 0.4446 0.2683
C46_2 C 0.9197(2) 0.4413(14) 0.2006(8)
H28_2 H 0.9300 0.4389 0.1951
C47_2 C 0.9297(2) 0.4666(16) 0.0971(9)
C48_2 C 0.9356(2) 0.5507(16) 0.0989(9)
H29_2 H 0.9300 0.6012 0.1114
C49_2 C 0.9501(2) 0.5673(16) 0.0826(9)
H30_2 H 0.9535 0.6299 0.0801
C50_2 C 0.9597(2) 0.4936(16) 0.0698(9)
C51_2 C 0.9529(2) 0.4035(16) 0.0699(9)
H31_2 H 0.9582 0.3515 0.0578
C52_2 C 0.9387(2) 0.3890(16) 0.0871(9)
H32_2 H 0.9351 0.3273 0.0920
C53_2 C 0.9753(2) 0.5133(15) 0.0532(9)
C54_2 C 0.8333(2) 0.6971(14) 0.3377(9)
C55_2 C 0.8394(2) 0.7782(14) 0.3541(9)
C56_2 C 0.8559(2) 0.7855(14) 0.3674(9)
C57_2 C 0.8649(2) 0.7094(15) 0.3596(9)
C58_2 C 0.8593(2) 0.6241(15) 0.3372(9)
C59_2 C 0.8424(2) 0.6140(15) 0.3277(8)
C60_2 C 0.8377(2) 0.5256(14) 0.3058(8)
H33_2 H 0.8278 0.5175 0.2957
C61_2 C 0.8477(2) 0.4559(15) 0.3001(8)
H34_2 H 0.8444 0.4000 0.2855
C62_2 C 0.8622(2) 0.4598(15) 0.3138(8)
H35_2 H 0.8683 0.4063 0.3100
C63_2 C 0.8677(2) 0.5352(14) 0.3320(8)
H36_2 H 0.8776 0.5338 0.3425
C64_2 C 0.8809(2) 0.7170(15) 0.3711(8)
C65_2 C 0.8857(2) 0.7152(16) 0.4215(8)
C66_2 C 0.9008(2) 0.7146(16) 0.4349(8)
C67_2 C 0.9119(2) 0.7165(16) 0.4003(8)
C68_2 C 0.9089(2) 0.7179(15) 0.3499(8)
C69_2 C 0.8926(2) 0.7157(16) 0.3391(8)
C70_2 C 0.8882(3) 0.724(2) 0.2887(10)
H37_2 H 0.8781 0.7277 0.2801
C71_2 C 0.9001(3) 0.7251(14) 0.2523(8)
H38_2 H 0.8975 0.7298 0.2200
C72_2 C 0.9150(2) 0.7195(15) 0.2658(8)
H39_2 H 0.9225 0.7154 0.2428
C73_2 C 0.9185(2) 0.7201(15) 0.3150(8)
H40_2 H 0.9287 0.7221 0.3231
C74_2 C 0.9051(2) 0.7132(16) 0.4834(8)
H41_2 H 0.9152 0.7179 0.4921
C75_2 C 0.8934(2) 0.7042(15) 0.5196(8)
H42_2 H 0.8957 0.6996 0.5521
C76_2 C 0.8780(2) 0.7028(15) 0.5030(8)
H43_2 H 0.8706 0.6992 0.5264
C77_2 C 0.8736(2) 0.7058(15) 0.4601(8)
H44_2 H 0.8634 0.7025 0.4523
C78_2 C 0.9291(2) 0.7091(16) 0.4158(9)
C79_2 C 0.9355(2) 0.7873(16) 0.4347(9)
H45_2 H 0.9303 0.8450 0.4366
C80_2 C 0.9506(2) 0.7781(16) 0.4518(9)
H46_2 H 0.9551 0.8299 0.4671
C81_2 C 0.9585(2) 0.6973(15) 0.4464(9)
C82_2 C 0.9509(2) 0.6217(16) 0.4243(9)
H47_2 H 0.9563 0.5665 0.4174
C83_2 C 0.9361(2) 0.6241(16) 0.4124(9)
H48_2 H 0.9310 0.5695 0.4023
C84_2 C 0.9747(2) 0.6849(15) 0.4645(9)
O2_2 O 0.7633(2) 0.4918(14) 0.2288(9)
O3_2 O 0.7654(2) 0.6302(15) 0.1819(9)
O4_2 O 0.9835(2) 0.4384(15) 0.0551(9)
O5_2 O 0.97974(19) 0.5876(14) 0.0452(10)
O6_2 O 0.98149(19) 0.6112(14) 0.4579(10)
O7_2 O 0.9801(2) 0.7572(14) 0.4865(9)
O8_2 O 0.7634(2) 0.5593(15) 0.3214(9)
O9_2 O 0.7625(2) 0.6851(14) 0.2758(9)
O10_2 O 0.7451(2) 0.3524(14) 0.2234(9)
O11_2 O 0.75182(19) 0.3968(14) 0.3755(9)
O12_2 O 0.7500 0.7500 0.1245(13)
Tb1_2 Tb 0.74899(2) 0.43808(11) 0.28702(8)
Tb2_2 Tb 0.7500 0.7500 0.20899(10)
C85_2 C 0.6395(2) 0.6292(14) 0.3918(8)
H49_2 H 0.6296 0.6249 0.4027
C86_2 C 0.6485(2) 0.5566(15) 0.3995(8)
H50_2 H 0.6446 0.4991 0.4104
C87_2 C 0.6647(2) 0.5639(15) 0.3914(8)
H51_2 H 0.6712 0.5166 0.4022
C88_2 C 0.6701(2) 0.6435(14) 0.3670(8)
H52_2 H 0.6802 0.6458 0.3588
C89_2 C 0.6826(2) 0.8196(15) 0.3284(10)
C90_2 C 0.6911(2) 0.7675(13) 0.2930(10)
H53_2 H 0.6862 0.7200 0.2756
C91_2 C 0.7062(2) 0.7848(14) 0.2832(10)
H54_2 H 0.7109 0.7541 0.2576
C92_2 C 0.7142(2) 0.8466(15) 0.3112(10)
C93_2 C 0.7061(2) 0.8988(14) 0.3504(9)
H55_2 H 0.7113 0.9421 0.3697
C94_2 C 0.6916(2) 0.8826(14) 0.3572(9)
H56_2 H 0.6868 0.9142 0.3824
C95_2 C 0.7298(2) 0.8681(15) 0.3018(9)
C96_2 C 0.7307(3) 0.9481(16) 0.1995(10)
O13_2 O 0.7685(2) 0.9680(14) 0.3369(10)
C97_2 C 0.7128(3) 0.9718(16) 0.1859(10)
C98_2 C 0.7056(3) 0.9318(16) 0.1548(10)
H57_2 H 0.7105 0.8839 0.1377
C99_2 C 0.6914(3) 0.9500(16) 0.1430(10)
H58_2 H 0.6873 0.9217 0.1158
C103_2 C 0.6563(2) 0.9472(14) 0.1737(8)
C104_2 C 0.6403(2) 0.9591(14) 0.1593(8)
C109_2 C 0.6614(2) 0.8600(13) 0.1969(8)
H61_2 H 0.6712 0.8583 0.2084
C110_2 C 0.6529(2) 0.7824(14) 0.2029(8)
H62_2 H 0.6568 0.7256 0.2152
C111_2 C 0.6374(2) 0.7927(14) 0.1889(8)
H63_2 H 0.6311 0.7402 0.1929
C112_2 C 0.6313(2) 0.8742(13) 0.1703(8)
H64_2 H 0.6210 0.8760 0.1645
C132_2 C 0.5644(2) 0.9493(16) 0.0989(9)
H77_2 H 0.5700 0.8988 0.1114
C133_2 C 0.5499(2) 0.9327(16) 0.0826(9)
H78_2 H 0.5465 0.8701 0.0801
C137_2 C 0.5247(2) 0.9867(15) 0.0532(9)
C138_2 C 0.6667(2) 0.8029(14) 0.3377(9)
C139_2 C 0.6606(2) 0.7218(14) 0.3541(9)
C140_2 C 0.6441(2) 0.7145(14) 0.3674(9)
C141_2 C 0.6351(2) 0.7906(15) 0.3596(9)
C142_2 C 0.6407(2) 0.8759(15) 0.3372(9)
C143_2 C 0.6576(2) 0.8860(15) 0.3277(8)
C144_2 C 0.6623(2) 0.9744(14) 0.3058(8)
H81_2 H 0.6722 0.9825 0.2957
C147_2 C 0.6323(2) 0.9648(14) 0.3320(8)
H84_2 H 0.6224 0.9662 0.3425
C148_2 C 0.6191(2) 0.7830(15) 0.3711(8)
C149_2 C 0.6143(2) 0.7848(16) 0.4215(8)
C150_2 C 0.5992(2) 0.7854(16) 0.4349(8)
C151_2 C 0.5881(2) 0.7835(16) 0.4003(8)
C152_2 C 0.5911(2) 0.7821(15) 0.3499(8)
C153_2 C 0.6074(2) 0.7843(16) 0.3391(8)
C154_2 C 0.6118(3) 0.776(2) 0.2887(10)
H85_2 H 0.6219 0.7723 0.2801
C155_2 C 0.5999(3) 0.7749(14) 0.2523(8)
H86_2 H 0.6025 0.7702 0.2200
C156_2 C 0.5850(2) 0.7805(15) 0.2658(8)
H87_2 H 0.5775 0.7846 0.2428
C157_2 C 0.5815(2) 0.7799(15) 0.3150(8)
H88_2 H 0.5713 0.7779 0.3231
C158_2 C 0.5949(2) 0.7868(16) 0.4834(8)
H89_2 H 0.5848 0.7821 0.4921
C159_2 C 0.6066(2) 0.7958(15) 0.5196(8)
H90_2 H 0.6043 0.8004 0.5521
C160_2 C 0.6220(2) 0.7972(15) 0.5030(8)
H91_2 H 0.6294 0.8008 0.5264
C161_2 C 0.6264(2) 0.7942(15) 0.4601(8)
H92_2 H 0.6366 0.7975 0.4523
C162_2 C 0.5709(2) 0.7909(16) 0.4158(9)
C163_2 C 0.5645(2) 0.7127(16) 0.4347(9)
H93_2 H 0.5697 0.6550 0.4366
C164_2 C 0.5494(2) 0.7219(16) 0.4518(9)
H94_2 H 0.5449 0.6701 0.4671
C165_2 C 0.5415(2) 0.8027(15) 0.4464(9)
C166_2 C 0.5491(2) 0.8783(16) 0.4243(9)
H95_2 H 0.5437 0.9335 0.4174
C167_2 C 0.5639(2) 0.8759(16) 0.4124(9)
H96_2 H 0.5690 0.9305 0.4023
C168_2 C 0.5253(2) 0.8151(15) 0.4645(9)
O15_2 O 0.7346(2) 0.8698(15) 0.1819(9)
O17_2 O 0.52026(19) 0.9124(14) 0.0452(10)
O18_2 O 0.51851(19) 0.8888(14) 0.4579(10)
O19_2 O 0.5199(2) 0.7428(14) 0.4865(9)
O20_2 O 0.7366(2) 0.9407(15) 0.3214(9)
O21_2 O 0.7375(2) 0.8149(14) 0.2758(9)
O25_2 O 0.7335(2) 0.3116(15) 0.3051(9)
O26_2 O 0.77026(19) 0.3376(14) 0.2952(10)
O28_2 O 0.76851(19) 0.8612(14) 0.2079(10)
O29_2 O 0.73149(19) 0.6388(14) 0.2079(10)
O31_2 O 0.7301(2) 0.4928(14) 0.2365(9)
Tb4_2 Tb 0.99899(2) 0.81192(11) 0.53702(8)
Tb9_2 Tb 0.50101(2) 0.68808(11) 0.53702(8)
H101_2 H 0.723766 0.562218 0.316121
H102_2 H 0.726503 0.489205 0.360436
H103_2 H 0.740877 0.393385 0.197623
H104_2 H 0.75477 0.324196 0.212454
H107_2 H 0.742099 0.372089 0.388001
H108_2 H 0.759728 0.347198 0.379363
H109_2 H 0.776234 0.937782 0.316121
C1_3 C 0.1105(2) 0.3792(14) 0.6418(8)
H1_3 H 0.1204 0.3749 0.6527
C2_3 C 0.1015(2) 0.3066(15) 0.6495(8)
H2_3 H 0.1054 0.2491 0.6604
C3_3 C 0.0853(2) 0.3139(15) 0.6414(8)
H3_3 H 0.0788 0.2666 0.6522
C4_3 C 0.0799(2) 0.3935(14) 0.6170(8)
H4_3 H 0.0698 0.3958 0.6088
C5_3 C 0.0674(2) 0.5696(15) 0.5784(10)
C6_3 C 0.0589(2) 0.5175(13) 0.5430(10)
H5_3 H 0.0638 0.4700 0.5256
C7_3 C 0.0438(2) 0.5348(14) 0.5332(10)
H6_3 H 0.0391 0.5041 0.5076
C8_3 C 0.0358(2) 0.5966(15) 0.5612(10)
C9_3 C 0.0439(2) 0.6488(14) 0.6004(9)
H7_3 H 0.0387 0.6921 0.6197
C10_3 C 0.0584(2) 0.6326(14) 0.6072(9)
H8_3 H 0.0632 0.6642 0.6324
C11_3 C 0.0202(2) 0.6181(15) 0.5518(9)
C12_3 C 0.0193(3) 0.6981(16) 0.4495(10)
C13_3 C 0.0372(3) 0.7218(16) 0.4359(10)
C14_3 C 0.0444(3) 0.6818(16) 0.4048(10)
H9_3 H 0.0395 0.6339 0.3877
C15_3 C 0.0586(3) 0.7000(16) 0.3930(10)
H10_3 H 0.0627 0.6717 0.3658
C16_3 C 0.0676(3) 0.7628(16) 0.4215(10)
C17_3 C 0.0594(3) 0.8088(15) 0.4592(10)
H11_3 H 0.0646 0.8497 0.4796
C18_3 C 0.0445(3) 0.7965(16) 0.4670(10)
H12_3 H 0.0392 0.8314 0.4898
C19_3 C 0.0937(2) 0.6972(14) 0.4237(8)
C20_3 C 0.1097(2) 0.7091(14) 0.4093(8)
C21_3 C 0.1149(2) 0.7921(14) 0.3941(8)
C22_3 C 0.1054(2) 0.8717(13) 0.3869(8)
C23_3 C 0.0889(2) 0.8673(13) 0.3941(8)
C24_3 C 0.0840(2) 0.7736(13) 0.4142(8)
C25_3 C 0.0886(2) 0.6100(13) 0.4469(8)
H13_3 H 0.0788 0.6083 0.4584
C26_3 C 0.0971(2) 0.5324(14) 0.4529(8)
H14_3 H 0.0932 0.4756 0.4652
C27_3 C 0.1126(2) 0.5427(14) 0.4389(8)
H15_3 H 0.1189 0.4902 0.4429
C28_3 C 0.1187(2) 0.6242(13) 0.4203(8)
H16_3 H 0.1290 0.6260 0.4145
C29_3 C 0.1109(2) 0.9586(13) 0.3683(8)
H17_3 H 0.1211 0.9650 0.3627
C32_3 C 0.0795(2) 0.9425(13) 0.3852(7)
H20_3 H 0.0693 0.9375 0.3923
C33_3 C 0.1317(2) 0.7985(15) 0.3816(9)
C34_3 C 0.1428(2) 0.8060(15) 0.4211(9)
C35_3 C 0.1583(2) 0.8024(15) 0.4102(9)
C36_3 C 0.1638(2) 0.7935(15) 0.3612(9)
C37_3 C 0.1522(2) 0.7959(15) 0.3229(9)
C38_3 C 0.1371(2) 0.7957(15) 0.3387(9)
C39_3 C 0.1257(2) 0.7941(15) 0.2958(8)
H21_3 H 0.1154 0.7957 0.3012
C40_3 C 0.1312(2) 0.7903(14) 0.2507(9)
H22 H 0.1243 0.7890 0.2257
C41 C 0.1467(2) 0.7882(15) 0.2387(9)
H23 H 0.1497 0.7819 0.2069
C42_3 C 0.1563(2) 0.7951(15) 0.2718(8)
H24_3 H 0.1664 0.7998 0.2636
C43_3 C 0.1387(2) 0.8114(15) 0.4713(9)
H25_3 H 0.1286 0.8092 0.4800
C44_3 C 0.1491(2) 0.8193(14) 0.5050(9)
H26_3 H 0.1464 0.8308 0.5366
C45_3 C 0.1641(2) 0.8106(14) 0.4930(9)
H27_3 H 0.1709 0.8054 0.5183
C46_3 C 0.1697(2) 0.8087(14) 0.4506(8)
H28_3 H 0.1800 0.8111 0.4451
C47_3 C 0.1797(2) 0.7834(16) 0.3471(9)
C48_3 C 0.1856(2) 0.6993(16) 0.3489(9)
H29_3 H 0.1800 0.6488 0.3614
C49_3 C 0.2001(2) 0.6827(16) 0.3326(9)
H30_3 H 0.2035 0.6201 0.3301
C50_3 C 0.2097(2) 0.7564(16) 0.3198(9)
C51_3 C 0.2029(2) 0.8465(16) 0.3199(9)
H31_3 H 0.2082 0.8985 0.3078
C52_3 C 0.1887(2) 0.8610(16) 0.3371(9)
H32_3 H 0.1851 0.9227 0.3420
C53_3 C 0.2253(2) 0.7367(15) 0.3032(9)
C54_3 C 0.0833(2) 0.5529(14) 0.5877(9)
C55_3 C 0.0894(2) 0.4718(14) 0.6041(9)
C56_3 C 0.1059(2) 0.4645(14) 0.6174(9)
C57_3 C 0.1149(2) 0.5406(15) 0.6096(9)
C58_3 C 0.1093(2) 0.6259(15) 0.5872(9)
C59_3 C 0.0924(2) 0.6360(15) 0.5777(8)
C60_3 C 0.0877(2) 0.7244(14) 0.5558(8)
H33_3 H 0.0778 0.7325 0.5457
C61_3 C 0.0977(2) 0.7941(15) 0.5501(8)
H34_3 H 0.0944 0.8500 0.5355
C62_3 C 0.1122(2) 0.7902(15) 0.5638(8)
H35_3 H 0.1183 0.8437 0.5600
C63_3 C 0.1177(2) 0.7148(14) 0.5820(8)
H36_3 H 0.1276 0.7162 0.5925
C64_3 C 0.1309(2) 0.5330(15) 0.6211(8)
C65_3 C 0.1357(2) 0.5348(16) 0.6715(8)
C66_3 C 0.1508(2) 0.5354(16) 0.6849(8)
C67_3 C 0.1619(2) 0.5335(16) 0.6503(8)
C68_3 C 0.1589(2) 0.5321(15) 0.5999(8)
C69_3 C 0.1426(2) 0.5343(16) 0.5891(8)
C70_3 C 0.1382(3) 0.526(2) 0.5387(10)
H37_3 H 0.1281 0.5223 0.5301
C71_3 C 0.1501(3) 0.5249(14) 0.5023(8)
H38_3 H 0.1475 0.5202 0.4700
C72_3 C 0.1650(2) 0.5305(15) 0.5158(8)
H39_3 H 0.1725 0.5346 0.4928
C73_3 C 0.1685(2) 0.5299(15) 0.5650(8)
H40_3 H 0.1787 0.5279 0.5731
C74_3 C 0.1551(2) 0.5368(16) 0.7334(8)
H41_3 H 0.1652 0.5321 0.7421
C75_3 C 0.1434(2) 0.5458(15) 0.7696(8)
H42_3 H 0.1457 0.5504 0.8021
C76_3 C 0.1280(2) 0.5472(15) 0.7530(8)
H43_3 H 0.1206 0.5508 0.7764
C77_3 C 0.1236(2) 0.5442(15) 0.7101(8)
H44_3 H 0.1134 0.5475 0.7023
C78_3 C 0.1791(2) 0.5409(16) 0.6658(9)
C79_3 C 0.1855(2) 0.4627(16) 0.6847(9)
H45_3 H 0.1803 0.4050 0.6866
C80_3 C 0.2006(2) 0.4719(16) 0.7018(9)
H46_3 H 0.2051 0.4201 0.7171
C81_3 C 0.2085(2) 0.5527(15) 0.6964(9)
C82_3 C 0.2009(2) 0.6283(16) 0.6743(9)
H47_3 H 0.2063 0.6835 0.6674
C83_3 C 0.1861(2) 0.6259(16) 0.6624(9)
H48_3 H 0.1810 0.6805 0.6523
C84_3 C 0.2247(2) 0.5651(15) 0.7145(9)
O2_3 O 0.0133(2) 0.7582(14) 0.4788(9)
O3_3 O 0.0154(2) 0.6198(15) 0.4319(9)
O6_3 O 0.23149(19) 0.6388(14) 0.7079(10)
O7_3 O 0.2301(2) 0.4928(14) 0.7365(9)
O8_3 O 0.0134(2) 0.6907(15) 0.5714(9)
O9_3 O 0.0125(2) 0.5649(14) 0.5258(9)
O11_3 O 0.00182(19) 0.8532(14) 0.6255(9)
O12_3 O -0.0000 0.5000 0.3745(13)
O13_3 O 0.0185(2) 0.2820(14) 0.5869(10)
O22_3 O 0.0049(2) 0.1024(14) 0.4734(9)
O24_3 O 0.0165(2) 0.0616(15) 0.5551(9)
O26_3 O 0.02026(19) 0.9124(14) 0.5452(10)
Tb4_3 Tb 0.24899(2) 0.43808(11) 0.78702(8)
Tb10_3 Tb 0.2500 0.7500 0.70899(10)
H97_3 H 0.0079013 0.122089 0.638001
H99_3 H 0.00912302 0.143385 0.447623
H104_3 H 0.0047702 0.925804 0.462454
H108_3 H 0.00972811 0.902802 0.629363
H109_3 H 0.0262342 0.312218 0.566121
H110_3 H 0.0234973 0.239205 0.610436
O1_3 O 0.9815(2) 0.7180(14) 0.5869(10)
O10_3 O 0.9951(2) 0.8976(14) 0.4734(9)
O12_4 O 1.0000 0.5000 0.3745(13)
C85_3 C 0.8895(2) 0.6208(14) 0.6418(8)
H49_3 H 0.8796 0.6251 0.6527
C86_3 C 0.8985(2) 0.6934(15) 0.6495(8)
H50_3 H 0.8946 0.7509 0.6604
C87_3 C 0.9147(2) 0.6861(15) 0.6414(8)
H51_3 H 0.9212 0.7334 0.6522
C88_3 C 0.9201(2) 0.6065(14) 0.6170(8)
H52_3 H 0.9302 0.6042 0.6088
C89_3 C 0.9326(2) 0.4304(15) 0.5784(10)
C90_3 C 0.9411(2) 0.4825(13) 0.5430(10)
H53_3 H 0.9362 0.5300 0.5256
C91_3 C 0.9562(2) 0.4652(14) 0.5332(10)
H54_3 H 0.9609 0.4959 0.5076
C92_3 C 0.9642(2) 0.4034(15) 0.5612(10)
C93_3 C 0.9561(2) 0.3512(14) 0.6004(9)
H55_3 H 0.9613 0.3079 0.6197
C94_3 C 0.9416(2) 0.3674(14) 0.6072(9)
H56_3 H 0.9368 0.3358 0.6324
C95_3 C 0.9798(2) 0.3819(15) 0.5518(9)
C96_3 C 0.9807(3) 0.3019(16) 0.4495(10)
C97_3 C 0.9628(3) 0.2782(16) 0.4359(10)
C98_3 C 0.9556(3) 0.3182(16) 0.4048(10)
H57_3 H 0.9605 0.3661 0.3877
C99_3 C 0.9414(3) 0.3000(16) 0.3930(10)
H58_3 H 0.9373 0.3283 0.3658
C100_3 C 0.9324(3) 0.2372(16) 0.4215(10)
C101_3 C 0.9406(3) 0.1912(15) 0.4592(10)
H59_3 H 0.9354 0.1503 0.4796
C102_3 C 0.9555(3) 0.2035(16) 0.4670(10)
H60_3 H 0.9608 0.1686 0.4898
C103_3 C 0.9063(2) 0.3028(14) 0.4237(8)
C104_3 C 0.8903(2) 0.2909(14) 0.4093(8)
C105_3 C 0.8851(2) 0.2079(14) 0.3941(8)
C106_3 C 0.8946(2) 0.1283(13) 0.3869(8)
C107_3 C 0.9111(2) 0.1327(13) 0.3941(8)
C108_3 C 0.9160(2) 0.2264(13) 0.4142(8)
C109_3 C 0.9114(2) 0.3900(13) 0.4469(8)
H61_3 H 0.9212 0.3917 0.4584
C110_3 C 0.9029(2) 0.4676(14) 0.4529(8)
H62_3 H 0.9068 0.5244 0.4652
C111_3 C 0.8874(2) 0.4573(14) 0.4389(8)
H63_3 H 0.8811 0.5098 0.4429
C112_3 C 0.8813(2) 0.3758(13) 0.4203(8)
H64_3 H 0.8710 0.3740 0.4145
C113_3 C 0.8891(2) 0.0414(13) 0.3683(8)
H65_3 H 0.8789 0.0350 0.3627
C116_3 C 0.9205(2) 0.0575(13) 0.3852(7)
H68_3 H 0.9307 0.0625 0.3923
C117_3 C 0.8683(2) 0.2015(15) 0.3816(9)
C118_3 C 0.8572(2) 0.1940(15) 0.4211(9)
C119_3 C 0.8417(2) 0.1976(15) 0.4102(9)
C120_3 C 0.8362(2) 0.2065(15) 0.3612(9)
C121_3 C 0.8478(2) 0.2041(15) 0.3229(9)
C122_3 C 0.8629(2) 0.2043(15) 0.3387(9)
C123_3 C 0.8743(2) 0.2059(15) 0.2958(8)
H69_3 H 0.8846 0.2043 0.3012
C124_3 C 0.8688(2) 0.2097(14) 0.2507(9)
H70 H 0.8757 0.2110 0.2257
C125 C 0.8533(2) 0.2118(15) 0.2387(9)
H71 H 0.8503 0.2181 0.2069
C126_3 C 0.8437(2) 0.2049(15) 0.2718(8)
H72_3 H 0.8336 0.2002 0.2636
C127_3 C 0.8613(2) 0.1886(15) 0.4713(9)
H73_3 H 0.8714 0.1908 0.4800
C128_3 C 0.8509(2) 0.1807(14) 0.5050(9)
H74_3 H 0.8536 0.1692 0.5366
C129_3 C 0.8359(2) 0.1894(14) 0.4930(9)
H75_3 H 0.8291 0.1946 0.5183
C130_3 C 0.8303(2) 0.1913(14) 0.4506(8)
H76_3 H 0.8200 0.1889 0.4451
C131_3 C 0.8203(2) 0.2166(16) 0.3471(9)
C132_3 C 0.8144(2) 0.3007(16) 0.3489(9)
H77_3 H 0.8200 0.3512 0.3614
C133_3 C 0.7999(2) 0.3173(16) 0.3326(9)
H78_3 H 0.7965 0.3799 0.3301
C134_3 C 0.7903(2) 0.2436(16) 0.3198(9)
C135_3 C 0.7971(2) 0.1535(16) 0.3199(9)
H79_3 H 0.7918 0.1015 0.3078
C136_3 C 0.8113(2) 0.1390(16) 0.3371(9)
H80_3 H 0.8149 0.0773 0.3420
C137_3 C 0.7747(2) 0.2633(15) 0.3032(9)
C138_3 C 0.9167(2) 0.4471(14) 0.5877(9)
C139_3 C 0.9106(2) 0.5282(14) 0.6041(9)
C140_3 C 0.8941(2) 0.5355(14) 0.6174(9)
C141_3 C 0.8851(2) 0.4594(15) 0.6096(9)
C142_3 C 0.8907(2) 0.3741(15) 0.5872(9)
C143_3 C 0.9076(2) 0.3640(15) 0.5777(8)
C144_3 C 0.9123(2) 0.2756(14) 0.5558(8)
H81_3 H 0.9222 0.2675 0.5457
C145_3 C 0.9023(2) 0.2059(15) 0.5501(8)
H82_3 H 0.9056 0.1500 0.5355
C146_3 C 0.8878(2) 0.2098(15) 0.5638(8)
H83_3 H 0.8817 0.1563 0.5600
C147_3 C 0.8823(2) 0.2852(14) 0.5820(8)
H84_3 H 0.8724 0.2838 0.5925
C148_3 C 0.8691(2) 0.4670(15) 0.6211(8)
C149_3 C 0.8643(2) 0.4652(16) 0.6715(8)
C150_3 C 0.8492(2) 0.4646(16) 0.6849(8)
C151_3 C 0.8381(2) 0.4665(16) 0.6503(8)
C152_3 C 0.8411(2) 0.4679(15) 0.5999(8)
C153_3 C 0.8574(2) 0.4657(16) 0.5891(8)
C154_3 C 0.8618(3) 0.474(2) 0.5387(10)
H85_3 H 0.8719 0.4777 0.5301
C155_3 C 0.8499(3) 0.4751(14) 0.5023(8)
H86_3 H 0.8525 0.4798 0.4700
C156_3 C 0.8350(2) 0.4695(15) 0.5158(8)
H87_3 H 0.8275 0.4654 0.4928
C157_3 C 0.8315(2) 0.4701(15) 0.5650(8)
H88_3 H 0.8213 0.4721 0.5731
C158_3 C 0.8449(2) 0.4632(16) 0.7334(8)
H89_3 H 0.8348 0.4679 0.7421
C159_3 C 0.8566(2) 0.4542(15) 0.7696(8)
H90_3 H 0.8543 0.4496 0.8021
C160_3 C 0.8720(2) 0.4528(15) 0.7530(8)
H91_3 H 0.8794 0.4492 0.7764
C161_3 C 0.8764(2) 0.4558(15) 0.7101(8)
H92_3 H 0.8866 0.4525 0.7023
C162_3 C 0.8209(2) 0.4591(16) 0.6658(9)
C163_3 C 0.8145(2) 0.5373(16) 0.6847(9)
H93_3 H 0.8197 0.5950 0.6866
C164_3 C 0.7994(2) 0.5281(16) 0.7018(9)
H94_3 H 0.7949 0.5799 0.7171
C165_3 C 0.7915(2) 0.4473(15) 0.6964(9)
C166_3 C 0.7991(2) 0.3717(16) 0.6743(9)
H95_3 H 0.7937 0.3165 0.6674
C167_3 C 0.8139(2) 0.3741(16) 0.6624(9)
H96_3 H 0.8190 0.3195 0.6523
C168_3 C 0.7753(2) 0.4349(15) 0.7145(9)
O14_3 O 0.9867(2) 0.2418(14) 0.4788(9)
O15_3 O 0.9846(2) 0.3802(15) 0.4319(9)
O18_3 O 0.76851(19) 0.3612(14) 0.7079(10)
O19_3 O 0.7699(2) 0.5072(14) 0.7365(9)
O20_3 O 0.9866(2) 0.3093(15) 0.5714(9)
O21_3 O 0.9875(2) 0.4351(14) 0.5258(9)
O23_3 O 0.99818(19) 0.1468(14) 0.6255(9)
O25_3 O 0.9835(2) 0.9384(15) 0.5551(9)
O27_3 O 0.97974(19) 0.0876(14) 0.5452(10)
Tb9_3 Tb 0.75101(2) 0.56192(11) 0.78702(8)
Tb11_3 Tb 0.7500 0.2500 0.70899(10)
H98_3 H 0.990272 0.0971976 0.629363
H100_3 H 0.99523 0.074196 0.462454
H101_3 H 0.973766 0.687782 0.566121
H102_3 H 0.976503 0.760795 0.610436
H103_3 H 0.990877 0.856615 0.447623
H105 H 0.996258 0.562573 0.362631
H106 H 0.993334 0.448143 0.362631
H107_3 H 0.992099 0.877911 0.638001
H105_2 H 0.00374199 0.437427 0.362631
H106_2 H 0.00666607 0.551857 0.362631
C16_4 C 0.1824(3) 0.0128(16) 0.6715(10)
C17_4 C 0.1906(3) 0.0588(15) 0.7092(10)
H11_4 H 0.1854 0.0997 0.7296
C18_4 C 0.2055(3) 0.0465(16) 0.7170(10)
H12_4 H 0.2108 0.0814 0.7398
C21_4 C 0.1351(2) 0.0421(14) 0.6441(8)
C22_4 C 0.1446(2) 0.1217(13) 0.6369(8)
C23_4 C 0.1611(2) 0.1173(13) 0.6441(8)
C24_4 C 0.1660(2) 0.0236(13) 0.6642(8)
C29_4 C 0.1391(2) 0.2086(13) 0.6183(8)
H17_4 H 0.1289 0.2150 0.6127
C30_3 C 0.1486(2) 0.2858(14) 0.6080(8)
H18_3 H 0.1448 0.3434 0.5965
C31_3 C 0.1652(2) 0.2716(13) 0.6166(8)
H19_3 H 0.1719 0.3203 0.6084
C32_4 C 0.1705(2) 0.1925(13) 0.6352(7)
H20_4 H 0.1807 0.1875 0.6423
C33_4 C 0.1183(2) 0.0485(15) 0.6316(9)
C34_4 C 0.1072(2) 0.0560(15) 0.6711(9)
C35_4 C 0.0917(2) 0.0524(15) 0.6602(9)
C36_4 C 0.0862(2) 0.0435(15) 0.6112(9)
C37_4 C 0.0978(2) 0.0459(15) 0.5729(9)
C38_4 C 0.1129(2) 0.0457(15) 0.5887(9)
C39_4 C 0.1243(2) 0.0441(15) 0.5458(8)
H21_4 H 0.1346 0.0457 0.5512
C40_4 C 0.1188(2) 0.0403(14) 0.5007(9)
H22_2 H 0.1257 0.0390 0.4757
C41_2 C 0.1033(2) 0.0382(15) 0.4887(9)
H23_2 H 0.1003 0.0319 0.4569
C42_4 C 0.0937(2) 0.0451(15) 0.5218(8)
H24_4 H 0.0836 0.0498 0.5136
C43_4 C 0.1113(2) 0.0614(15) 0.7213(9)
H25_4 H 0.1214 0.0592 0.7300
C44_4 C 0.1009(2) 0.0693(14) 0.7550(9)
H26_4 H 0.1036 0.0808 0.7866
C45_4 C 0.0859(2) 0.0606(14) 0.7430(9)
H27_4 H 0.0791 0.0554 0.7683
C46_4 C 0.0803(2) 0.0587(14) 0.7006(8)
H28_4 H 0.0700 0.0611 0.6951
C47_4 C 0.0703(2) 0.0334(16) 0.5971(9)
C50_4 C 0.0403(2) 0.0064(16) 0.5698(9)
C51_4 C 0.0471(2) 0.0965(16) 0.5699(9)
H31_4 H 0.0418 0.1485 0.5578
C52_4 C 0.0613(2) 0.1110(16) 0.5871(9)
H32_4 H 0.0649 0.1727 0.5920
C61_4 C 0.1523(2) 0.0441(15) 0.8001(8)
H34_4 H 0.1556 0.1000 0.7855
C62_4 C 0.1378(2) 0.0402(15) 0.8138(8)
H35_4 H 0.1317 0.0937 0.8100
O2_4 O 0.2367(2) 0.0082(14) 0.7288(9)
O10_4 O 0.2549(2) 0.1476(14) 0.7234(9)
O11_4 O 0.24818(19) 0.1032(14) 0.8755(9)
Tb1_3 Tb 0.25101(2) 0.06192(11) 0.78702(8)
H50_4 H 0.3554 0.0009 0.9104
O25_4 O 0.2665(2) 0.1884(15) 0.8051(9)
O26_4 O 0.22974(19) 0.1624(14) 0.7952(10)
O31_3 O 0.2699(2) 0.0072(14) 0.7365(9)
Tb10_4 Tb -0.0000 -0.0000 0.95899(10)
H102_4 H 0.273497 0.010795 0.860436
H103_4 H 0.259123 0.106615 0.697623
H104_4 H 0.24523 0.175804 0.712454
H107_4 H 0.257901 0.127911 0.888001
H108_4 H 0.240272 0.152802 0.879363
C75_4 C 0.1066(2) 0.7958(15) 0.0196(8)
H42_4 H 0.1043 0.8004 0.0521
C76_4 C 0.1220(2) 0.7972(15) 0.0030(8)
H43_4 H 0.1294 0.8008 0.0264
C159_4 C 0.3934(2) 0.7042(15) 0.0196(8)
H90_4 H 0.3957 0.6996 0.0521
C160_4 C 0.3780(2) 0.7028(15) 0.0030(8)
H91_4 H 0.3706 0.6992 0.0264
C1_4 C 0.1395(2) 0.6292(14) 0.8918(8)
H1_4 H 0.1296 0.6249 0.9027
C2_4 C 0.1485(2) 0.5566(15) 0.8995(8)
H2_4 H 0.1446 0.4991 0.9104
C3_4 C 0.1647(2) 0.5639(15) 0.8914(8)
H3_4 H 0.1712 0.5166 0.9022
C4_4 C 0.1701(2) 0.6435(14) 0.8670(8)
H4_4 H 0.1802 0.6458 0.8588
C5_4 C 0.1826(2) 0.8196(15) 0.8284(10)
C6_4 C 0.1911(2) 0.7675(13) 0.7930(10)
H5_4 H 0.1862 0.7200 0.7756
C7_4 C 0.2062(2) 0.7848(14) 0.7832(10)
H6_4 H 0.2109 0.7541 0.7576
C8_4 C 0.2142(2) 0.8466(15) 0.8112(10)
C9_4 C 0.2061(2) 0.8988(14) 0.8504(9)
H7_4 H 0.2113 0.9421 0.8697
C10_4 C 0.1916(2) 0.8826(14) 0.8572(9)
H8_4 H 0.1868 0.9142 0.8824
C11_4 C 0.2298(2) 0.8681(15) 0.8018(9)
C12_4 C 0.2307(3) 0.9481(16) 0.6995(10)
O1_4 O 0.2685(2) 0.9680(14) 0.8369(10)
C13_4 C 0.2128(3) 0.9718(16) 0.6859(10)
C14_4 C 0.2056(3) 0.9318(16) 0.6548(10)
H9_4 H 0.2105 0.8839 0.6377
C15_4 C 0.1914(3) 0.9500(16) 0.6430(10)
H10_4 H 0.1873 0.9217 0.6158
C19_4 C 0.1563(2) 0.9472(14) 0.6737(8)
C20_4 C 0.1403(2) 0.9591(14) 0.6593(8)
C25_4 C 0.1614(2) 0.8600(13) 0.6969(8)
H13_4 H 0.1712 0.8583 0.7084
C26_4 C 0.1529(2) 0.7824(14) 0.7029(8)
H14_4 H 0.1568 0.7256 0.7152
C27_4 C 0.1374(2) 0.7927(14) 0.6889(8)
H15_4 H 0.1311 0.7402 0.6929
C28_4 C 0.1313(2) 0.8742(13) 0.6703(8)
H16_4 H 0.1210 0.8760 0.6645
C48_4 C 0.0644(2) 0.9493(16) 0.5989(9)
H29_4 H 0.0700 0.8988 0.6114
C49_4 C 0.0499(2) 0.9327(16) 0.5826(9)
H30_4 H 0.0465 0.8701 0.5801
C53_4 C 0.0247(2) 0.9867(15) 0.5532(9)
C54_4 C 0.1667(2) 0.8029(14) 0.8377(9)
C55_4 C 0.1606(2) 0.7218(14) 0.8541(9)
C56_4 C 0.1441(2) 0.7145(14) 0.8674(9)
C57_4 C 0.1351(2) 0.7906(15) 0.8596(9)
C58_4 C 0.1407(2) 0.8759(15) 0.8372(9)
C59_4 C 0.1576(2) 0.8860(15) 0.8277(8)
C60_4 C 0.1623(2) 0.9744(14) 0.8058(8)
H33_4 H 0.1722 0.9825 0.7957
C63_4 C 0.1323(2) 0.9648(14) 0.8320(8)
H36_4 H 0.1224 0.9662 0.8425
C64_4 C 0.1191(2) 0.7830(15) 0.8711(8)
C65_4 C 0.1143(2) 0.7848(16) 0.9215(8)
C66_4 C 0.0992(2) 0.7854(16) 0.9349(8)
C67_4 C 0.0881(2) 0.7835(16) 0.9003(8)
C68_4 C 0.0911(2) 0.7821(15) 0.8499(8)
C69_4 C 0.1074(2) 0.7843(16) 0.8391(8)
C70_4 C 0.1118(3) 0.776(2) 0.7887(10)
H37_4 H 0.1219 0.7723 0.7801
C71_4 C 0.0999(3) 0.7749(14) 0.7523(8)
H38_4 H 0.1025 0.7702 0.7200
C72_4 C 0.0850(2) 0.7805(15) 0.7658(8)
H39_4 H 0.0775 0.7846 0.7428
C73_4 C 0.0815(2) 0.7799(15) 0.8150(8)
H40_4 H 0.0713 0.7779 0.8231
C74_4 C 0.0949(2) 0.7868(16) 0.9834(8)
H41_4 H 0.0848 0.7821 0.9921
C77_4 C 0.1264(2) 0.7942(15) 0.9601(8)
H44_4 H 0.1366 0.7975 0.9523
C78_4 C 0.0709(2) 0.7909(16) 0.9158(9)
C79_4 C 0.0645(2) 0.7127(16) 0.9347(9)
H45_4 H 0.0697 0.6550 0.9366
C80_4 C 0.0494(2) 0.7219(16) 0.9518(9)
H46_4 H 0.0449 0.6701 0.9671
C81_4 C 0.0415(2) 0.8027(15) 0.9464(9)
C82_4 C 0.0491(2) 0.8783(16) 0.9243(9)
H47_4 H 0.0437 0.9335 0.9174
C83_4 C 0.0639(2) 0.8759(16) 0.9124(9)
H48_4 H 0.0690 0.9305 0.9023
C84_4 C 0.0253(2) 0.8151(15) 0.9645(9)
O3_4 O 0.2346(2) 0.8698(15) 0.6819(9)
O6_4 O 0.01851(19) 0.8888(14) 0.9579(10)
O7_4 O 0.0199(2) 0.7428(14) 0.9865(9)
O8_4 O 0.2366(2) 0.9407(15) 0.8214(9)
O9_4 O 0.2375(2) 0.8149(14) 0.7758(9)
O12_5 O 0.2500 0.7500 0.6245(13)
C85_4 C 0.3605(2) 0.8708(14) 0.8918(8)
H49_4 H 0.3704 0.8751 0.9027
C86_4 C 0.3515(2) 0.9434(15) 0.8995(8)
C87_4 C 0.3353(2) 0.9361(15) 0.8914(8)
H51_4 H 0.3288 0.9834 0.9022
C88_4 C 0.3299(2) 0.8565(14) 0.8670(8)
H52_4 H 0.3198 0.8542 0.8588
C89_4 C 0.3174(2) 0.6804(15) 0.8284(10)
C90_4 C 0.3089(2) 0.7325(13) 0.7930(10)
H53_4 H 0.3138 0.7800 0.7756
C91_4 C 0.2938(2) 0.7152(14) 0.7832(10)
H54_4 H 0.2891 0.7459 0.7576
C92_4 C 0.2858(2) 0.6534(15) 0.8112(10)
C93_4 C 0.2939(2) 0.6012(14) 0.8504(9)
H55_4 H 0.2887 0.5579 0.8697
C94_4 C 0.3084(2) 0.6174(14) 0.8572(9)
H56_4 H 0.3132 0.5858 0.8824
C95_4 C 0.2702(2) 0.6319(15) 0.8018(9)
C96_4 C 0.2693(3) 0.5519(16) 0.6995(10)
O13_4 O 0.2315(2) 0.5320(14) 0.8369(10)
C97_4 C 0.2872(3) 0.5282(16) 0.6859(10)
C98_4 C 0.2944(3) 0.5682(16) 0.6548(10)
H57_4 H 0.2895 0.6161 0.6377
C99_4 C 0.3086(3) 0.5500(16) 0.6430(10)
H58_4 H 0.3127 0.5783 0.6158
C100_4 C 0.3176(3) 0.4872(16) 0.6715(10)
C101_4 C 0.3094(3) 0.4412(15) 0.7092(10)
H59_4 H 0.3146 0.4003 0.7296
C102_4 C 0.2945(3) 0.4535(16) 0.7170(10)
H60_4 H 0.2892 0.4186 0.7398
C103_4 C 0.3437(2) 0.5528(14) 0.6737(8)
C104_4 C 0.3597(2) 0.5409(14) 0.6593(8)
C105_4 C 0.3649(2) 0.4579(14) 0.6441(8)
C106_4 C 0.3554(2) 0.3783(13) 0.6369(8)
C107_4 C 0.3389(2) 0.3827(13) 0.6441(8)
C108_4 C 0.3340(2) 0.4764(13) 0.6642(8)
C109_4 C 0.3386(2) 0.6400(13) 0.6969(8)
H61_4 H 0.3288 0.6417 0.7084
C110_4 C 0.3471(2) 0.7176(14) 0.7029(8)
H62_4 H 0.3432 0.7744 0.7152
C111_4 C 0.3626(2) 0.7073(14) 0.6889(8)
H63_4 H 0.3689 0.7598 0.6929
C112_4 C 0.3687(2) 0.6258(13) 0.6703(8)
H64_4 H 0.3790 0.6240 0.6645
C113_4 C 0.3609(2) 0.2914(13) 0.6183(8)
H65_4 H 0.3711 0.2850 0.6127
C114_3 C 0.3514(2) 0.2142(14) 0.6080(8)
H66_3 H 0.3552 0.1566 0.5965
C115_3 C 0.3348(2) 0.2284(13) 0.6166(8)
H67_3 H 0.3281 0.1797 0.6084
C116_4 C 0.3295(2) 0.3075(13) 0.6352(7)
H68_4 H 0.3193 0.3125 0.6423
C117_4 C 0.3817(2) 0.4515(15) 0.6316(9)
C118_4 C 0.3928(2) 0.4440(15) 0.6711(9)
C119_4 C 0.4083(2) 0.4476(15) 0.6602(9)
C120_4 C 0.4138(2) 0.4565(15) 0.6112(9)
C121_4 C 0.4022(2) 0.4541(15) 0.5729(9)
C122_4 C 0.3871(2) 0.4543(15) 0.5887(9)
C123_4 C 0.3757(2) 0.4559(15) 0.5458(8)
H69_4 H 0.3654 0.4543 0.5512
C124_4 C 0.3812(2) 0.4597(14) 0.5007(9)
H70_2 H 0.3743 0.4610 0.4757
C125_2 C 0.3967(2) 0.4618(15) 0.4887(9)
H71_2 H 0.3997 0.4681 0.4569
C126_4 C 0.4063(2) 0.4549(15) 0.5218(8)
H72_4 H 0.4164 0.4502 0.5136
C127_4 C 0.3887(2) 0.4386(15) 0.7213(9)
H73_4 H 0.3786 0.4408 0.7300
C128_4 C 0.3991(2) 0.4307(14) 0.7550(9)
H74_4 H 0.3964 0.4192 0.7866
C129_4 C 0.4141(2) 0.4394(14) 0.7430(9)
H75_4 H 0.4209 0.4446 0.7683
C130_4 C 0.4197(2) 0.4413(14) 0.7006(8)
H76_4 H 0.4300 0.4389 0.6951
C131_4 C 0.4297(2) 0.4666(16) 0.5971(9)
C132_4 C 0.4356(2) 0.5507(16) 0.5989(9)
H77_4 H 0.4300 0.6012 0.6114
C133_4 C 0.4501(2) 0.5673(16) 0.5826(9)
H78_4 H 0.4535 0.6299 0.5801
C134_4 C 0.4597(2) 0.4936(16) 0.5698(9)
C135_4 C 0.4529(2) 0.4035(16) 0.5699(9)
H79_4 H 0.4582 0.3515 0.5578
C136_4 C 0.4387(2) 0.3890(16) 0.5871(9)
H80_4 H 0.4351 0.3273 0.5920
C137_4 C 0.4753(2) 0.5133(15) 0.5532(9)
C138_4 C 0.3333(2) 0.6971(14) 0.8377(9)
C139_4 C 0.3394(2) 0.7782(14) 0.8541(9)
C140_4 C 0.3559(2) 0.7855(14) 0.8674(9)
C141_4 C 0.3649(2) 0.7094(15) 0.8596(9)
C142_4 C 0.3593(2) 0.6241(15) 0.8372(9)
C143_4 C 0.3424(2) 0.6140(15) 0.8277(8)
C144_4 C 0.3377(2) 0.5256(14) 0.8058(8)
H81_4 H 0.3278 0.5175 0.7957
C145_4 C 0.3477(2) 0.4559(15) 0.8001(8)
H82_4 H 0.3444 0.4000 0.7855
C146_4 C 0.3622(2) 0.4598(15) 0.8138(8)
H83_4 H 0.3683 0.4063 0.8100
C147_4 C 0.3677(2) 0.5352(14) 0.8320(8)
H84_4 H 0.3776 0.5338 0.8425
C148_4 C 0.3809(2) 0.7170(15) 0.8711(8)
C149_4 C 0.3857(2) 0.7152(16) 0.9215(8)
C150_4 C 0.4008(2) 0.7146(16) 0.9349(8)
C151_4 C 0.4119(2) 0.7165(16) 0.9003(8)
C152_4 C 0.4089(2) 0.7179(15) 0.8499(8)
C153_4 C 0.3926(2) 0.7157(16) 0.8391(8)
C154_4 C 0.3882(3) 0.724(2) 0.7887(10)
H85_4 H 0.3781 0.7277 0.7801
C155_4 C 0.4001(3) 0.7251(14) 0.7523(8)
H86_4 H 0.3975 0.7298 0.7200
C156_4 C 0.4150(2) 0.7195(15) 0.7658(8)
H87_4 H 0.4225 0.7154 0.7428
C157_4 C 0.4185(2) 0.7201(15) 0.8150(8)
H88_4 H 0.4287 0.7221 0.8231
C158_4 C 0.4051(2) 0.7132(16) 0.9834(8)
H89_4 H 0.4152 0.7179 0.9921
C161_4 C 0.3736(2) 0.7058(15) 0.9601(8)
H92_4 H 0.3634 0.7025 0.9523
C162_4 C 0.4291(2) 0.7091(16) 0.9158(9)
C163_4 C 0.4355(2) 0.7873(16) 0.9347(9)
H93_4 H 0.4303 0.8450 0.9366
C164_4 C 0.4506(2) 0.7781(16) 0.9518(9)
H94_4 H 0.4551 0.8299 0.9671
C165_4 C 0.4585(2) 0.6973(15) 0.9464(9)
C166_4 C 0.4509(2) 0.6217(16) 0.9243(9)
H95_4 H 0.4563 0.5665 0.9174
C167_4 C 0.4361(2) 0.6241(16) 0.9124(9)
H96_4 H 0.4310 0.5695 0.9023
C168_4 C 0.4747(2) 0.6849(15) 0.9645(9)
O14_4 O 0.2633(2) 0.4918(14) 0.7288(9)
O15_4 O 0.2654(2) 0.6302(15) 0.6819(9)
O16_3 O 0.4835(2) 0.4384(15) 0.5551(9)
O17_3 O 0.47974(19) 0.5876(14) 0.5452(10)
O18_4 O 0.48149(19) 0.6112(14) 0.9579(10)
O19_4 O 0.4801(2) 0.7572(14) 0.9865(9)
O20_4 O 0.2634(2) 0.5593(15) 0.8214(9)
O21_4 O 0.2625(2) 0.6851(14) 0.7758(9)
O22_4 O 0.2451(2) 0.3524(14) 0.7234(9)
O23_4 O 0.25182(19) 0.3968(14) 0.8755(9)
O24_4 O 0.2335(2) 0.3116(15) 0.8051(9)
O27_4 O 0.27026(19) 0.3376(14) 0.7952(10)
O29_3 O 0.26851(19) 0.8612(14) 0.7079(10)
Tb10_5 Tb -0.0000 1.0000 0.95899(10)
Tb11_4 Tb 0.5000 0.5000 0.95899(10)
H97_4 H 0.242099 0.372089 0.888001
H98_4 H 0.259728 0.347198 0.879363
H99_4 H 0.240877 0.393385 0.697623
H100_4 H 0.25477 0.324196 0.712454
H101_4 H 0.276234 0.937782 0.816121
H109_4 H 0.223766 0.562218 0.816121
H110_4 H 0.226503 0.489205 0.860436
Tb10_6 Tb 1.0000 -0.0000 0.95899(10)
Tb10_7 Tb 1.0000 1.0000 0.95899(10)
C75_5 C 0.8934(2) 0.2042(15) 0.0196(8)
H42_5 H 0.8957 0.1996 0.0521
C76_5 C 0.8780(2) 0.2028(15) 0.0030(8)
H43_5 H 0.8706 0.1992 0.0264
C159_5 C 0.6066(2) 0.2958(15) 0.0196(8)
H90_5 H 0.6043 0.3004 0.0521
C160_5 C 0.6220(2) 0.2972(15) 0.0030(8)
H91_5 H 0.6294 0.3008 0.0264
C1_5 C 0.8605(2) 0.3708(14) 0.8918(8)
H1_5 H 0.8704 0.3751 0.9027
C2_5 C 0.8515(2) 0.4434(15) 0.8995(8)
H2_5 H 0.8554 0.5009 0.9104
C3_5 C 0.8353(2) 0.4361(15) 0.8914(8)
H3_5 H 0.8288 0.4834 0.9022
C4_5 C 0.8299(2) 0.3565(14) 0.8670(8)
H4_5 H 0.8198 0.3542 0.8588
C5_5 C 0.8174(2) 0.1804(15) 0.8284(10)
C6_5 C 0.8089(2) 0.2325(13) 0.7930(10)
H5_5 H 0.8138 0.2800 0.7756
C7_5 C 0.7938(2) 0.2152(14) 0.7832(10)
H6_5 H 0.7891 0.2459 0.7576
C8_5 C 0.7858(2) 0.1534(15) 0.8112(10)
C9_5 C 0.7939(2) 0.1012(14) 0.8504(9)
H7_5 H 0.7887 0.0579 0.8697
C10_5 C 0.8084(2) 0.1174(14) 0.8572(9)
H8_5 H 0.8132 0.0858 0.8824
C11_5 C 0.7702(2) 0.1319(15) 0.8018(9)
C12_5 C 0.7693(3) 0.0519(16) 0.6995(10)
O1_5 O 0.7315(2) 0.0320(14) 0.8369(10)
C13_5 C 0.7872(3) 0.0282(16) 0.6859(10)
C14_5 C 0.7944(3) 0.0682(16) 0.6548(10)
H9_5 H 0.7895 0.1161 0.6377
C15_5 C 0.8086(3) 0.0500(16) 0.6430(10)
H10_5 H 0.8127 0.0783 0.6158
C19_5 C 0.8437(2) 0.0528(14) 0.6737(8)
C20_5 C 0.8597(2) 0.0409(14) 0.6593(8)
C25_5 C 0.8386(2) 0.1400(13) 0.6969(8)
H13_5 H 0.8288 0.1417 0.7084
C26_5 C 0.8471(2) 0.2176(14) 0.7029(8)
H14_5 H 0.8432 0.2744 0.7152
C27_5 C 0.8626(2) 0.2073(14) 0.6889(8)
H15_5 H 0.8689 0.2598 0.6929
C28_5 C 0.8687(2) 0.1258(13) 0.6703(8)
H16_5 H 0.8790 0.1240 0.6645
C48_5 C 0.9356(2) 0.0507(16) 0.5989(9)
H29_5 H 0.9300 0.1012 0.6114
C49_5 C 0.9501(2) 0.0673(16) 0.5826(9)
H30_5 H 0.9535 0.1299 0.5801
C53_5 C 0.9753(2) 0.0133(15) 0.5532(9)
C54_5 C 0.8333(2) 0.1971(14) 0.8377(9)
C55_5 C 0.8394(2) 0.2782(14) 0.8541(9)
C56_5 C 0.8559(2) 0.2855(14) 0.8674(9)
C57_5 C 0.8649(2) 0.2094(15) 0.8596(9)
C58_5 C 0.8593(2) 0.1241(15) 0.8372(9)
C59_5 C 0.8424(2) 0.1140(15) 0.8277(8)
C60_5 C 0.8377(2) 0.0256(14) 0.8058(8)
H33_5 H 0.8278 0.0175 0.7957
C63_5 C 0.8677(2) 0.0352(14) 0.8320(8)
H36_5 H 0.8776 0.0338 0.8425
C64_5 C 0.8809(2) 0.2170(15) 0.8711(8)
C65_5 C 0.8857(2) 0.2152(16) 0.9215(8)
C66_5 C 0.9008(2) 0.2146(16) 0.9349(8)
C67_5 C 0.9119(2) 0.2165(16) 0.9003(8)
C68_5 C 0.9089(2) 0.2179(15) 0.8499(8)
C69_5 C 0.8926(2) 0.2157(16) 0.8391(8)
C70_5 C 0.8882(3) 0.224(2) 0.7887(10)
H37_5 H 0.8781 0.2277 0.7801
C71_5 C 0.9001(3) 0.2251(14) 0.7523(8)
H38_5 H 0.8975 0.2298 0.7200
C72_5 C 0.9150(2) 0.2195(15) 0.7658(8)
H39_5 H 0.9225 0.2154 0.7428
C73_5 C 0.9185(2) 0.2201(15) 0.8150(8)
H40_5 H 0.9287 0.2221 0.8231
C74_5 C 0.9051(2) 0.2132(16) 0.9834(8)
H41_5 H 0.9152 0.2179 0.9921
C77_5 C 0.8736(2) 0.2058(15) 0.9601(8)
H44_5 H 0.8634 0.2025 0.9523
C78_5 C 0.9291(2) 0.2091(16) 0.9158(9)
C79_5 C 0.9355(2) 0.2873(16) 0.9347(9)
H45_5 H 0.9303 0.3450 0.9366
C80_5 C 0.9506(2) 0.2781(16) 0.9518(9)
H46_5 H 0.9551 0.3299 0.9671
C81_5 C 0.9585(2) 0.1973(15) 0.9464(9)
C82_5 C 0.9509(2) 0.1217(16) 0.9243(9)
H47_5 H 0.9563 0.0665 0.9174
C83_5 C 0.9361(2) 0.1241(16) 0.9124(9)
H48_5 H 0.9310 0.0695 0.9023
C84_5 C 0.9747(2) 0.1849(15) 0.9645(9)
O3_5 O 0.7654(2) 0.1302(15) 0.6819(9)
O6_5 O 0.98149(19) 0.1112(14) 0.9579(10)
O7_5 O 0.9801(2) 0.2572(14) 0.9865(9)
O8_5 O 0.7634(2) 0.0593(15) 0.8214(9)
O9_5 O 0.7625(2) 0.1851(14) 0.7758(9)
O12_6 O 0.7500 0.2500 0.6245(13)
C85_5 C 0.6395(2) 0.1292(14) 0.8918(8)
H49_5 H 0.6296 0.1249 0.9027
C86_5 C 0.6485(2) 0.0566(15) 0.8995(8)
C87_5 C 0.6647(2) 0.0639(15) 0.8914(8)
H51_5 H 0.6712 0.0166 0.9022
C88_5 C 0.6701(2) 0.1435(14) 0.8670(8)
H52_5 H 0.6802 0.1458 0.8588
C89_5 C 0.6826(2) 0.3196(15) 0.8284(10)
C90_5 C 0.6911(2) 0.2675(13) 0.7930(10)
H53_5 H 0.6862 0.2200 0.7756
C91_5 C 0.7062(2) 0.2848(14) 0.7832(10)
H54_5 H 0.7109 0.2541 0.7576
C92_5 C 0.7142(2) 0.3466(15) 0.8112(10)
C93_5 C 0.7061(2) 0.3988(14) 0.8504(9)
H55_5 H 0.7113 0.4421 0.8697
C94_5 C 0.6916(2) 0.3826(14) 0.8572(9)
H56_5 H 0.6868 0.4142 0.8824
C95_5 C 0.7298(2) 0.3681(15) 0.8018(9)
C96_5 C 0.7307(3) 0.4481(16) 0.6995(10)
O13_5 O 0.7685(2) 0.4680(14) 0.8369(10)
C97_5 C 0.7128(3) 0.4718(16) 0.6859(10)
C98_5 C 0.7056(3) 0.4318(16) 0.6548(10)
H57_5 H 0.7105 0.3839 0.6377
C99_5 C 0.6914(3) 0.4500(16) 0.6430(10)
H58_5 H 0.6873 0.4217 0.6158
C100_5 C 0.6824(3) 0.5128(16) 0.6715(10)
C101_5 C 0.6906(3) 0.5588(15) 0.7092(10)
H59_5 H 0.6854 0.5997 0.7296
C102_5 C 0.7055(3) 0.5465(16) 0.7170(10)
H60_5 H 0.7108 0.5814 0.7398
C103_5 C 0.6563(2) 0.4472(14) 0.6737(8)
C104_5 C 0.6403(2) 0.4591(14) 0.6593(8)
C105_5 C 0.6351(2) 0.5421(14) 0.6441(8)
C106_5 C 0.6446(2) 0.6217(13) 0.6369(8)
C107_5 C 0.6611(2) 0.6173(13) 0.6441(8)
C108_5 C 0.6660(2) 0.5236(13) 0.6642(8)
C109_5 C 0.6614(2) 0.3600(13) 0.6969(8)
H61_5 H 0.6712 0.3583 0.7084
C110_5 C 0.6529(2) 0.2824(14) 0.7029(8)
H62_5 H 0.6568 0.2256 0.7152
C111_5 C 0.6374(2) 0.2927(14) 0.6889(8)
H63_5 H 0.6311 0.2402 0.6929
C112_5 C 0.6313(2) 0.3742(13) 0.6703(8)
H64_5 H 0.6210 0.3760 0.6645
C113_5 C 0.6391(2) 0.7086(13) 0.6183(8)
H65_5 H 0.6289 0.7150 0.6127
C114_4 C 0.6486(2) 0.7858(14) 0.6080(8)
H66_4 H 0.6448 0.8434 0.5965
C115_4 C 0.6652(2) 0.7716(13) 0.6166(8)
H67_4 H 0.6719 0.8203 0.6084
C116_5 C 0.6705(2) 0.6925(13) 0.6352(7)
H68_5 H 0.6807 0.6875 0.6423
C117_5 C 0.6183(2) 0.5485(15) 0.6316(9)
C118_5 C 0.6072(2) 0.5560(15) 0.6711(9)
C119_5 C 0.5917(2) 0.5524(15) 0.6602(9)
C120_5 C 0.5862(2) 0.5435(15) 0.6112(9)
C121_5 C 0.5978(2) 0.5459(15) 0.5729(9)
C122_5 C 0.6129(2) 0.5457(15) 0.5887(9)
C123_5 C 0.6243(2) 0.5441(15) 0.5458(8)
H69_5 H 0.6346 0.5457 0.5512
C124_5 C 0.6188(2) 0.5403(14) 0.5007(9)
H70_3 H 0.6257 0.5390 0.4757
C125_3 C 0.6033(2) 0.5382(15) 0.4887(9)
H71_3 H 0.6003 0.5319 0.4569
C126_5 C 0.5937(2) 0.5451(15) 0.5218(8)
H72_5 H 0.5836 0.5498 0.5136
C127_5 C 0.6113(2) 0.5614(15) 0.7213(9)
H73_5 H 0.6214 0.5592 0.7300
C128_5 C 0.6009(2) 0.5693(14) 0.7550(9)
H74_5 H 0.6036 0.5808 0.7866
C129_5 C 0.5859(2) 0.5606(14) 0.7430(9)
H75_5 H 0.5791 0.5554 0.7683
C130_5 C 0.5803(2) 0.5587(14) 0.7006(8)
H76_5 H 0.5700 0.5611 0.6951
C131_5 C 0.5703(2) 0.5334(16) 0.5971(9)
C132_5 C 0.5644(2) 0.4493(16) 0.5989(9)
H77_5 H 0.5700 0.3988 0.6114
C133_5 C 0.5499(2) 0.4327(16) 0.5826(9)
H78_5 H 0.5465 0.3701 0.5801
C134_5 C 0.5403(2) 0.5064(16) 0.5698(9)
C135_5 C 0.5471(2) 0.5965(16) 0.5699(9)
H79_5 H 0.5418 0.6485 0.5578
C136_5 C 0.5613(2) 0.6110(16) 0.5871(9)
H80_5 H 0.5649 0.6727 0.5920
C137_5 C 0.5247(2) 0.4867(15) 0.5532(9)
C138_5 C 0.6667(2) 0.3029(14) 0.8377(9)
C139_5 C 0.6606(2) 0.2218(14) 0.8541(9)
C140_5 C 0.6441(2) 0.2145(14) 0.8674(9)
C141_5 C 0.6351(2) 0.2906(15) 0.8596(9)
C142_5 C 0.6407(2) 0.3759(15) 0.8372(9)
C143_5 C 0.6576(2) 0.3860(15) 0.8277(8)
C144_5 C 0.6623(2) 0.4744(14) 0.8058(8)
H81_5 H 0.6722 0.4825 0.7957
C145_5 C 0.6523(2) 0.5441(15) 0.8001(8)
H82_5 H 0.6556 0.6000 0.7855
C146_5 C 0.6378(2) 0.5402(15) 0.8138(8)
H83_5 H 0.6317 0.5937 0.8100
C147_5 C 0.6323(2) 0.4648(14) 0.8320(8)
H84_5 H 0.6224 0.4662 0.8425
C148_5 C 0.6191(2) 0.2830(15) 0.8711(8)
C149_5 C 0.6143(2) 0.2848(16) 0.9215(8)
C150_5 C 0.5992(2) 0.2854(16) 0.9349(8)
C151_5 C 0.5881(2) 0.2835(16) 0.9003(8)
C152_5 C 0.5911(2) 0.2821(15) 0.8499(8)
C153_5 C 0.6074(2) 0.2843(16) 0.8391(8)
C154_5 C 0.6118(3) 0.276(2) 0.7887(10)
H85_5 H 0.6219 0.2723 0.7801
C155_5 C 0.5999(3) 0.2749(14) 0.7523(8)
H86_5 H 0.6025 0.2702 0.7200
C156_5 C 0.5850(2) 0.2805(15) 0.7658(8)
H87_5 H 0.5775 0.2846 0.7428
C157_5 C 0.5815(2) 0.2799(15) 0.8150(8)
H88_5 H 0.5713 0.2779 0.8231
C158_5 C 0.5949(2) 0.2868(16) 0.9834(8)
H89_5 H 0.5848 0.2821 0.9921
C161_5 C 0.6264(2) 0.2942(15) 0.9601(8)
H92_5 H 0.6366 0.2975 0.9523
C162_5 C 0.5709(2) 0.2909(16) 0.9158(9)
C163_5 C 0.5645(2) 0.2127(16) 0.9347(9)
H93_5 H 0.5697 0.1550 0.9366
C164_5 C 0.5494(2) 0.2219(16) 0.9518(9)
H94_5 H 0.5449 0.1701 0.9671
C165_5 C 0.5415(2) 0.3027(15) 0.9464(9)
C166_5 C 0.5491(2) 0.3783(16) 0.9243(9)
H95_5 H 0.5437 0.4335 0.9174
C167_5 C 0.5639(2) 0.3759(16) 0.9124(9)
H96_5 H 0.5690 0.4305 0.9023
C168_5 C 0.5253(2) 0.3151(15) 0.9645(9)
O14_5 O 0.7367(2) 0.5082(14) 0.7288(9)
O15_5 O 0.7346(2) 0.3698(15) 0.6819(9)
O16_4 O 0.5165(2) 0.5616(15) 0.5551(9)
O17_4 O 0.52026(19) 0.4124(14) 0.5452(10)
O18_5 O 0.51851(19) 0.3888(14) 0.9579(10)
O19_5 O 0.5199(2) 0.2428(14) 0.9865(9)
O20_5 O 0.7366(2) 0.4407(15) 0.8214(9)
O21_5 O 0.7375(2) 0.3149(14) 0.7758(9)
O22_5 O 0.7549(2) 0.6476(14) 0.7234(9)
O23_5 O 0.74818(19) 0.6032(14) 0.8755(9)
O24_5 O 0.7665(2) 0.6884(15) 0.8051(9)
O27_5 O 0.72974(19) 0.6624(14) 0.7952(10)
O29_4 O 0.73149(19) 0.1388(14) 0.7079(10)
H97_5 H 0.757901 0.627911 0.888001
H98_5 H 0.740272 0.652802 0.879363
H99_5 H 0.759123 0.606615 0.697623
H100_5 H 0.74523 0.675804 0.712454
H101_5 H 0.723766 0.0622185 0.816121
H109_5 H 0.776234 0.437782 0.816121
H110_5 H 0.773497 0.510795 0.860436
C16_5 C 0.8176(3) 0.9872(16) 0.6715(10)
C17_5 C 0.8094(3) 0.9412(15) 0.7092(10)
H11_5 H 0.8146 0.9003 0.7296
C18_5 C 0.7945(3) 0.9535(16) 0.7170(10)
H12_5 H 0.7892 0.9186 0.7398
C21_5 C 0.8649(2) 0.9579(14) 0.6441(8)
C22_5 C 0.8554(2) 0.8783(13) 0.6369(8)
C23_5 C 0.8389(2) 0.8827(13) 0.6441(8)
C24_5 C 0.8340(2) 0.9764(13) 0.6642(8)
C29_5 C 0.8609(2) 0.7914(13) 0.6183(8)
H17_5 H 0.8711 0.7850 0.6127
C30_4 C 0.8514(2) 0.7142(14) 0.6080(8)
H18_4 H 0.8552 0.6566 0.5965
C31_4 C 0.8348(2) 0.7284(13) 0.6166(8)
H19_4 H 0.8281 0.6797 0.6084
C32_5 C 0.8295(2) 0.8075(13) 0.6352(7)
H20_5 H 0.8193 0.8125 0.6423
C33_5 C 0.8817(2) 0.9515(15) 0.6316(9)
C34_5 C 0.8928(2) 0.9440(15) 0.6711(9)
C35_5 C 0.9083(2) 0.9476(15) 0.6602(9)
C36_5 C 0.9138(2) 0.9565(15) 0.6112(9)
C37_5 C 0.9022(2) 0.9541(15) 0.5729(9)
C38_5 C 0.8871(2) 0.9543(15) 0.5887(9)
C39_5 C 0.8757(2) 0.9559(15) 0.5458(8)
H21_5 H 0.8654 0.9543 0.5512
C40_5 C 0.8812(2) 0.9597(14) 0.5007(9)
H22_3 H 0.8743 0.9610 0.4757
C41_3 C 0.8967(2) 0.9618(15) 0.4887(9)
H23_3 H 0.8997 0.9681 0.4569
C42_5 C 0.9063(2) 0.9549(15) 0.5218(8)
H24_5 H 0.9164 0.9502 0.5136
C43_5 C 0.8887(2) 0.9386(15) 0.7213(9)
H25_5 H 0.8786 0.9408 0.7300
C44_5 C 0.8991(2) 0.9307(14) 0.7550(9)
H26_5 H 0.8964 0.9192 0.7866
C45_5 C 0.9141(2) 0.9394(14) 0.7430(9)
H27_5 H 0.9209 0.9446 0.7683
C46_5 C 0.9197(2) 0.9413(14) 0.7006(8)
H28_5 H 0.9300 0.9389 0.6951
C47_5 C 0.9297(2) 0.9666(16) 0.5971(9)
C50_5 C 0.9597(2) 0.9936(16) 0.5698(9)
C51_5 C 0.9529(2) 0.9035(16) 0.5699(9)
H31_5 H 0.9582 0.8515 0.5578
C52_5 C 0.9387(2) 0.8890(16) 0.5871(9)
H32_5 H 0.9351 0.8273 0.5920
C61_5 C 0.8477(2) 0.9559(15) 0.8001(8)
H34_5 H 0.8444 0.9000 0.7855
C62_5 C 0.8622(2) 0.9598(15) 0.8138(8)
H35_5 H 0.8683 0.9063 0.8100
O2_5 O 0.7633(2) 0.9918(14) 0.7288(9)
O10_5 O 0.7451(2) 0.8524(14) 0.7234(9)
O11_5 O 0.75182(19) 0.8968(14) 0.8755(9)
Tb1_4 Tb 0.74899(2) 0.93808(11) 0.78702(8)
H50_5 H 0.6446 0.9991 0.9104
O25_5 O 0.7335(2) 0.8116(15) 0.8051(9)
O26_5 O 0.77026(19) 0.8376(14) 0.7952(10)
O31_4 O 0.7301(2) 0.9928(14) 0.7365(9)
H102_5 H 0.726503 0.989205 0.860436
H103_5 H 0.740877 0.893385 0.697623
H104_5 H 0.75477 0.824196 0.712454
H107_5 H 0.742099 0.872089 0.888001
H108_5 H 0.759728 0.847198 0.879363
C5_6 C 0.0674(2) 0.0696(15) 0.0784(10)
C6_6 C 0.0589(2) 0.0175(13) 0.0430(10)
C7_6 C 0.0438(2) 0.0348(14) 0.0332(10)
H6_6 H 0.0391 0.0041 0.0076
C8_6 C 0.0358(2) 0.0966(15) 0.0612(10)
C9_6 C 0.0439(2) 0.1488(14) 0.1004(9)
H7_6 H 0.0387 0.1921 0.1197
C10_6 C 0.0584(2) 0.1326(14) 0.1072(9)
H8_6 H 0.0632 0.1642 0.1324
C11_6 C 0.0202(2) 0.1181(15) 0.0518(9)
C44_6 C 0.1491(2) 0.3193(14) 0.0050(9)
H26_6 H 0.1464 0.3308 0.0366
H27_6 H 0.1709 0.3054 0.0183
C54_6 C 0.0833(2) 0.0529(14) 0.0877(9)
C57_6 C 0.1149(2) 0.0406(15) 0.1096(9)
C58_6 C 0.1093(2) 0.1259(15) 0.0872(9)
C59_6 C 0.0924(2) 0.1360(15) 0.0777(8)
C60_6 C 0.0877(2) 0.2244(14) 0.0558(8)
H33_6 H 0.0778 0.2325 0.0457
C61_6 C 0.0977(2) 0.2941(15) 0.0501(8)
H34_6 H 0.0944 0.3500 0.0355
C62_6 C 0.1122(2) 0.2902(15) 0.0638(8)
H35_6 H 0.1183 0.3437 0.0600
C63_6 C 0.1177(2) 0.2148(14) 0.0820(8)
H36_6 H 0.1276 0.2162 0.0925
C64_6 C 0.1309(2) 0.0330(15) 0.1211(8)
C65_6 C 0.1357(2) 0.0348(16) 0.1715(8)
C66_6 C 0.1508(2) 0.0354(16) 0.1849(8)
C67_6 C 0.1619(2) 0.0335(16) 0.1503(8)
C68_6 C 0.1589(2) 0.0321(15) 0.0999(8)
C69_6 C 0.1426(2) 0.0343(16) 0.0891(8)
C70_6 C 0.1382(3) 0.026(2) 0.0387(10)
H37_6 H 0.1281 0.0223 0.0301
C71_6 C 0.1501(3) 0.0249(14) 0.0023(8)
C72_6 C 0.1650(2) 0.0305(15) 0.0158(8)
C73_6 C 0.1685(2) 0.0299(15) 0.0650(8)
H40_6 H 0.1787 0.0279 0.0731
C74_6 C 0.1551(2) 0.0368(16) 0.2334(8)
H41_6 H 0.1652 0.0321 0.2421
C75_6 C 0.1434(2) 0.0458(15) 0.2696(8)
H42_6 H 0.1457 0.0504 0.3021
C76_6 C 0.1280(2) 0.0472(15) 0.2530(8)
H43_6 H 0.1206 0.0508 0.2764
C77_6 C 0.1236(2) 0.0442(15) 0.2101(8)
H44_6 H 0.1134 0.0475 0.2023
C78_6 C 0.1791(2) 0.0409(16) 0.1658(9)
C81_6 C 0.2085(2) 0.0527(15) 0.1964(9)
C82_6 C 0.2009(2) 0.1283(16) 0.1743(9)
H47_6 H 0.2063 0.1835 0.1674
C83_6 C 0.1861(2) 0.1259(16) 0.1624(9)
H48_6 H 0.1810 0.1805 0.1523
C84_6 C 0.2247(2) 0.0651(15) 0.2145(9)
O8_6 O 0.0134(2) 0.1907(15) 0.0714(9)
O9_6 O 0.0125(2) 0.0649(14) 0.0258(9)
O11_6 O 0.00182(19) 0.3532(14) 0.1255(9)
H108_6 H 0.00972811 0.402802 0.129363
C12_6 C 0.0193(3) 0.1981(16) 0.9495(10)
C13_6 C 0.0372(3) 0.2218(16) 0.9359(10)
C14_6 C 0.0444(3) 0.1818(16) 0.9048(10)
H9_6 H 0.0395 0.1339 0.8877
C15_6 C 0.0586(3) 0.2000(16) 0.8930(10)
H10_6 H 0.0627 0.1717 0.8658
C16_6 C 0.0676(3) 0.2628(16) 0.9215(10)
C17_6 C 0.0594(3) 0.3088(15) 0.9592(10)
H11_6 H 0.0646 0.3497 0.9796
C18_6 C 0.0445(3) 0.2965(16) 0.9670(10)
H12_6 H 0.0392 0.3314 0.9898
C19_6 C 0.0937(2) 0.1972(14) 0.9237(8)
C20_6 C 0.1097(2) 0.2091(14) 0.9093(8)
C21_6 C 0.1149(2) 0.2921(14) 0.8941(8)
C22_6 C 0.1054(2) 0.3717(13) 0.8869(8)
C23_6 C 0.0889(2) 0.3673(13) 0.8941(8)
C24_6 C 0.0840(2) 0.2736(13) 0.9142(8)
C25_6 C 0.0886(2) 0.1100(13) 0.9469(8)
H13_6 H 0.0788 0.1083 0.9584
C26_6 C 0.0971(2) 0.0324(14) 0.9529(8)
C27_6 C 0.1126(2) 0.0427(14) 0.9389(8)
C28_6 C 0.1187(2) 0.1242(13) 0.9203(8)
H16_6 H 0.1290 0.1260 0.9145
C29_6 C 0.1109(2) 0.4586(13) 0.8683(8)
H17_6 H 0.1211 0.4650 0.8627
C30_5 C 0.1014(2) 0.5358(14) 0.8580(8)
H18_5 H 0.1052 0.5934 0.8465
C31_5 C 0.0848(2) 0.5216(13) 0.8666(8)
H19_5 H 0.0781 0.5703 0.8584
C32_6 C 0.0795(2) 0.4425(13) 0.8852(7)
H20_6 H 0.0693 0.4375 0.8923
C33_6 C 0.1317(2) 0.2985(15) 0.8816(9)
C34_6 C 0.1428(2) 0.3060(15) 0.9211(9)
C35_6 C 0.1583(2) 0.3024(15) 0.9102(9)
C36_6 C 0.1638(2) 0.2935(15) 0.8612(9)
C37_6 C 0.1522(2) 0.2959(15) 0.8229(9)
C38_6 C 0.1371(2) 0.2957(15) 0.8387(9)
C39_6 C 0.1257(2) 0.2941(15) 0.7958(8)
H21_6 H 0.1154 0.2957 0.8012
C40_6 C 0.1312(2) 0.2903(14) 0.7507(9)
H22_4 H 0.1243 0.2890 0.7257
C41_4 C 0.1467(2) 0.2882(15) 0.7387(9)
H23_4 H 0.1497 0.2819 0.7069
C42_6 C 0.1563(2) 0.2951(15) 0.7718(8)
H24_6 H 0.1664 0.2998 0.7636
C43_6 C 0.1387(2) 0.3114(15) 0.9713(9)
H25_6 H 0.1286 0.3092 0.9800
C45_6 C 0.1641(2) 0.3106(14) 0.9930(9)
C46_6 C 0.1697(2) 0.3087(14) 0.9506(8)
H28_6 H 0.1800 0.3111 0.9451
C47_6 C 0.1797(2) 0.2834(16) 0.8471(9)
C48_6 C 0.1856(2) 0.1993(16) 0.8489(9)
H29_6 H 0.1800 0.1488 0.8614
C49_6 C 0.2001(2) 0.1827(16) 0.8326(9)
H30_6 H 0.2035 0.1201 0.8301
C50_6 C 0.2097(2) 0.2564(16) 0.8198(9)
C51_6 C 0.2029(2) 0.3465(16) 0.8199(9)
H31_6 H 0.2082 0.3985 0.8078
C52_6 C 0.1887(2) 0.3610(16) 0.8371(9)
H32_6 H 0.1851 0.4227 0.8420
C53_6 C 0.2253(2) 0.2367(15) 0.8032(9)
H38_6 H 0.1475 0.0202 0.9700
H39_6 H 0.1725 0.0346 0.9928
O2_6 O 0.0133(2) 0.2582(14) 0.9788(9)
O3_6 O 0.0154(2) 0.1198(15) 0.9319(9)
O12_7 O 0.0000 -0.0000 0.8745(13)
H104_6 H 0.0047702 0.425804 0.962454
C1_6 C 0.1105(2) 0.8792(14) 0.1418(8)
H1_6 H 0.1204 0.8749 0.1527
C2_6 C 0.1015(2) 0.8066(15) 0.1495(8)
H2_6 H 0.1054 0.7491 0.1604
C3_6 C 0.0853(2) 0.8139(15) 0.1414(8)
H3_6 H 0.0788 0.7666 0.1522
C4_6 C 0.0799(2) 0.8935(14) 0.1170(8)
H4_6 H 0.0698 0.8958 0.1088
H5_6 H 0.0638 0.9700 0.0256
C55_6 C 0.0894(2) 0.9718(14) 0.1041(9)
C56_6 C 0.1059(2) 0.9645(14) 0.1174(9)
C79_6 C 0.1855(2) 0.9627(16) 0.1847(9)
H45_6 H 0.1803 0.9050 0.1866
C80_6 C 0.2006(2) 0.9719(16) 0.2018(9)
H46_6 H 0.2051 0.9201 0.2171
O13_6 O 0.0185(2) 0.7820(14) 0.0869(10)
H97_6 H 0.0079013 0.622089 0.138001
H109_6 H 0.0262342 0.812218 0.0661213
H110_6 H 0.0234973 0.739205 0.110436
H14_6 H 0.0932 0.9756 0.9652
H15_6 H 0.1189 0.9902 0.9429
O12_8 O 0.0000 1.0000 0.8745(13)
O22_6 O 0.0049(2) 0.6024(14) 0.9734(9)
H99_6 H 0.00912302 0.643385 0.947623
O1_6 O 0.9815(2) 0.2180(14) 0.0869(10)
C85_6 C 0.8895(2) 0.1208(14) 0.1418(8)
H49_6 H 0.8796 0.1251 0.1527
C86_6 C 0.8985(2) 0.1934(15) 0.1495(8)
H50_6 H 0.8946 0.2509 0.1604
C87_6 C 0.9147(2) 0.1861(15) 0.1414(8)
H51_6 H 0.9212 0.2334 0.1522
C88_6 C 0.9201(2) 0.1065(14) 0.1170(8)
H52_6 H 0.9302 0.1042 0.1088
H53_6 H 0.9362 0.0300 0.0256
C139_6 C 0.9106(2) 0.0282(14) 0.1041(9)
C140_6 C 0.8941(2) 0.0355(14) 0.1174(9)
C163_6 C 0.8145(2) 0.0373(16) 0.1847(9)
H93_6 H 0.8197 0.0950 0.1866
C164_6 C 0.7994(2) 0.0281(16) 0.2018(9)
H94_6 H 0.7949 0.0799 0.2171
H101_6 H 0.973766 0.187782 0.0661213
H102_6 H 0.976503 0.260795 0.110436
H107_6 H 0.992099 0.377911 0.138001
O10_6 O 0.9951(2) 0.3976(14) 0.9734(9)
O12_9 O 1.0000 -0.0000 0.8745(13)
H62_6 H 0.9068 0.0244 0.9652
H63_6 H 0.8811 0.0098 0.9429
H103_6 H 0.990877 0.356615 0.947623
H105_3 H 0.996258 0.0625729 0.862631
C89_6 C 0.9326(2) 0.9304(15) 0.0784(10)
C90_6 C 0.9411(2) 0.9825(13) 0.0430(10)
C91_6 C 0.9562(2) 0.9652(14) 0.0332(10)
H54_6 H 0.9609 0.9959 0.0076
C92_6 C 0.9642(2) 0.9034(15) 0.0612(10)
C93_6 C 0.9561(2) 0.8512(14) 0.1004(9)
H55_6 H 0.9613 0.8079 0.1197
C94_6 C 0.9416(2) 0.8674(14) 0.1072(9)
H56_6 H 0.9368 0.8358 0.1324
C95_6 C 0.9798(2) 0.8819(15) 0.0518(9)
C128_6 C 0.8509(2) 0.6807(14) 0.0050(9)
H74_6 H 0.8536 0.6692 0.0366
H75_6 H 0.8291 0.6946 0.0183
C138_6 C 0.9167(2) 0.9471(14) 0.0877(9)
C141_6 C 0.8851(2) 0.9594(15) 0.1096(9)
C142_6 C 0.8907(2) 0.8741(15) 0.0872(9)
C143_6 C 0.9076(2) 0.8640(15) 0.0777(8)
C144_6 C 0.9123(2) 0.7756(14) 0.0558(8)
H81_6 H 0.9222 0.7675 0.0457
C145_6 C 0.9023(2) 0.7059(15) 0.0501(8)
H82_6 H 0.9056 0.6500 0.0355
C146_6 C 0.8878(2) 0.7098(15) 0.0638(8)
H83_6 H 0.8817 0.6563 0.0600
C147_6 C 0.8823(2) 0.7852(14) 0.0820(8)
H84_6 H 0.8724 0.7838 0.0925
C148_6 C 0.8691(2) 0.9670(15) 0.1211(8)
C149_6 C 0.8643(2) 0.9652(16) 0.1715(8)
C150_6 C 0.8492(2) 0.9646(16) 0.1849(8)
C151_6 C 0.8381(2) 0.9665(16) 0.1503(8)
C152_6 C 0.8411(2) 0.9679(15) 0.0999(8)
C153_6 C 0.8574(2) 0.9657(16) 0.0891(8)
C154_6 C 0.8618(3) 0.974(2) 0.0387(10)
H85_6 H 0.8719 0.9777 0.0301
C155_6 C 0.8499(3) 0.9751(14) 0.0023(8)
C156_6 C 0.8350(2) 0.9695(15) 0.0158(8)
C157_6 C 0.8315(2) 0.9701(15) 0.0650(8)
H88_6 H 0.8213 0.9721 0.0731
C158_6 C 0.8449(2) 0.9632(16) 0.2334(8)
H89_6 H 0.8348 0.9679 0.2421
C159_6 C 0.8566(2) 0.9542(15) 0.2696(8)
H90_6 H 0.8543 0.9496 0.3021
C160_6 C 0.8720(2) 0.9528(15) 0.2530(8)
H91_6 H 0.8794 0.9492 0.2764
C161_6 C 0.8764(2) 0.9558(15) 0.2101(8)
H92_6 H 0.8866 0.9525 0.2023
C162_6 C 0.8209(2) 0.9591(16) 0.1658(9)
C165_6 C 0.7915(2) 0.9473(15) 0.1964(9)
C166_6 C 0.7991(2) 0.8717(16) 0.1743(9)
H95_6 H 0.7937 0.8165 0.1674
C167_6 C 0.8139(2) 0.8741(16) 0.1624(9)
H96_6 H 0.8190 0.8195 0.1523
C168_6 C 0.7753(2) 0.9349(15) 0.2145(9)
O20_6 O 0.9866(2) 0.8093(15) 0.0714(9)
O21_6 O 0.9875(2) 0.9351(14) 0.0258(9)
O23_6 O 0.99818(19) 0.6468(14) 0.1255(9)
H98_6 H 0.990272 0.597198 0.129363
O12_10 O 1.0000 1.0000 0.8745(13)
C96_6 C 0.9807(3) 0.8019(16) 0.9495(10)
C97_6 C 0.9628(3) 0.7782(16) 0.9359(10)
C98_6 C 0.9556(3) 0.8182(16) 0.9048(10)
H57_6 H 0.9605 0.8661 0.8877
C99_6 C 0.9414(3) 0.8000(16) 0.8930(10)
H58_6 H 0.9373 0.8283 0.8658
C100_6 C 0.9324(3) 0.7372(16) 0.9215(10)
C101_6 C 0.9406(3) 0.6912(15) 0.9592(10)
H59_6 H 0.9354 0.6503 0.9796
C102_6 C 0.9555(3) 0.7035(16) 0.9670(10)
H60_6 H 0.9608 0.6686 0.9898
C103_6 C 0.9063(2) 0.8028(14) 0.9237(8)
C104_6 C 0.8903(2) 0.7909(14) 0.9093(8)
C105_6 C 0.8851(2) 0.7079(14) 0.8941(8)
C106_6 C 0.8946(2) 0.6283(13) 0.8869(8)
C107_6 C 0.9111(2) 0.6327(13) 0.8941(8)
C108_6 C 0.9160(2) 0.7264(13) 0.9142(8)
C109_6 C 0.9114(2) 0.8900(13) 0.9469(8)
H61_6 H 0.9212 0.8917 0.9584
C110_6 C 0.9029(2) 0.9676(14) 0.9529(8)
C111_6 C 0.8874(2) 0.9573(14) 0.9389(8)
C112_6 C 0.8813(2) 0.8758(13) 0.9203(8)
H64_6 H 0.8710 0.8740 0.9145
C113_6 C 0.8891(2) 0.5414(13) 0.8683(8)
H65_6 H 0.8789 0.5350 0.8627
C114_5 C 0.8986(2) 0.4642(14) 0.8580(8)
H66_5 H 0.8948 0.4066 0.8465
C115_5 C 0.9152(2) 0.4784(13) 0.8666(8)
H67_5 H 0.9219 0.4297 0.8584
C116_6 C 0.9205(2) 0.5575(13) 0.8852(7)
H68_6 H 0.9307 0.5625 0.8923
C117_6 C 0.8683(2) 0.7015(15) 0.8816(9)
C118_6 C 0.8572(2) 0.6940(15) 0.9211(9)
C119_6 C 0.8417(2) 0.6976(15) 0.9102(9)
C120_6 C 0.8362(2) 0.7065(15) 0.8612(9)
C121_6 C 0.8478(2) 0.7041(15) 0.8229(9)
C122_6 C 0.8629(2) 0.7043(15) 0.8387(9)
C123_6 C 0.8743(2) 0.7059(15) 0.7958(8)
H69_6 H 0.8846 0.7043 0.8012
C124_6 C 0.8688(2) 0.7097(14) 0.7507(9)
H70_4 H 0.8757 0.7110 0.7257
C125_4 C 0.8533(2) 0.7118(15) 0.7387(9)
H71_4 H 0.8503 0.7181 0.7069
C126_6 C 0.8437(2) 0.7049(15) 0.7718(8)
H72_6 H 0.8336 0.7002 0.7636
C127_6 C 0.8613(2) 0.6886(15) 0.9713(9)
H73_6 H 0.8714 0.6908 0.9800
C129_6 C 0.8359(2) 0.6894(14) 0.9930(9)
C130_6 C 0.8303(2) 0.6913(14) 0.9506(8)
H76_6 H 0.8200 0.6889 0.9451
C131_6 C 0.8203(2) 0.7166(16) 0.8471(9)
C132_6 C 0.8144(2) 0.8007(16) 0.8489(9)
H77_6 H 0.8200 0.8512 0.8614
C133_6 C 0.7999(2) 0.8173(16) 0.8326(9)
H78_6 H 0.7965 0.8799 0.8301
C134_6 C 0.7903(2) 0.7436(16) 0.8198(9)
C135_6 C 0.7971(2) 0.6535(16) 0.8199(9)
H79_6 H 0.7918 0.6015 0.8078
C136_6 C 0.8113(2) 0.6390(16) 0.8371(9)
H80_6 H 0.8149 0.5773 0.8420
C137_6 C 0.7747(2) 0.7633(15) 0.8032(9)
H86_6 H 0.8525 0.9798 0.9700
H87_6 H 0.8275 0.9654 0.9928
O14_6 O 0.9867(2) 0.7418(14) 0.9788(9)
O15_6 O 0.9846(2) 0.8802(15) 0.9319(9)
H100_6 H 0.99523 0.574196 0.962454
H106_3 H 0.993334 0.948143 0.862631
H106_4 H 0.00666607 0.0518568 0.862631
H105_4 H 0.00374199 0.937427 0.862631
C1_7 C 0.6105(2) 0.3792(14) 0.1418(8)
H1_7 H 0.6204 0.3749 0.1527
C2_7 C 0.6015(2) 0.3066(15) 0.1495(8)
H2_7 H 0.6054 0.2491 0.1604
C3_7 C 0.5853(2) 0.3139(15) 0.1414(8)
H3_7 H 0.5788 0.2666 0.1522
C4_7 C 0.5799(2) 0.3935(14) 0.1170(8)
H4_7 H 0.5698 0.3958 0.1088
C5_7 C 0.5674(2) 0.5696(15) 0.0784(10)
C6_7 C 0.5589(2) 0.5175(13) 0.0430(10)
H5_7 H 0.5638 0.4700 0.0256
C7_7 C 0.5438(2) 0.5348(14) 0.0332(10)
H6_7 H 0.5391 0.5041 0.0076
C8_7 C 0.5358(2) 0.5966(15) 0.0612(10)
C9_7 C 0.5439(2) 0.6488(14) 0.1004(9)
H7_7 H 0.5387 0.6921 0.1197
C10_7 C 0.5584(2) 0.6326(14) 0.1072(9)
H8_7 H 0.5632 0.6642 0.1324
C11_7 C 0.5202(2) 0.6181(15) 0.0518(9)
O1_7 O 0.4815(2) 0.7180(14) 0.0869(10)
C44_7 C 0.6491(2) 0.8193(14) 0.0050(9)
H26_7 H 0.6464 0.8308 0.0366
H27_7 H 0.6709 0.8054 0.0183
C54_7 C 0.5833(2) 0.5529(14) 0.0877(9)
C55_7 C 0.5894(2) 0.4718(14) 0.1041(9)
C56_7 C 0.6059(2) 0.4645(14) 0.1174(9)
C57_7 C 0.6149(2) 0.5406(15) 0.1096(9)
C58_7 C 0.6093(2) 0.6259(15) 0.0872(9)
C59_7 C 0.5924(2) 0.6360(15) 0.0777(8)
C60_7 C 0.5877(2) 0.7244(14) 0.0558(8)
H33_7 H 0.5778 0.7325 0.0457
C61_7 C 0.5977(2) 0.7941(15) 0.0501(8)
H34_7 H 0.5944 0.8500 0.0355
C62_7 C 0.6122(2) 0.7902(15) 0.0638(8)
H35_7 H 0.6183 0.8437 0.0600
C63_7 C 0.6177(2) 0.7148(14) 0.0820(8)
H36_7 H 0.6276 0.7162 0.0925
C64_7 C 0.6309(2) 0.5330(15) 0.1211(8)
C65_7 C 0.6357(2) 0.5348(16) 0.1715(8)
C66_7 C 0.6508(2) 0.5354(16) 0.1849(8)
C67_7 C 0.6619(2) 0.5335(16) 0.1503(8)
C68_7 C 0.6589(2) 0.5321(15) 0.0999(8)
C69_7 C 0.6426(2) 0.5343(16) 0.0891(8)
C70_7 C 0.6382(3) 0.526(2) 0.0387(10)
H37_7 H 0.6281 0.5223 0.0301
C71_7 C 0.6501(3) 0.5249(14) 0.0023(8)
C72_7 C 0.6650(2) 0.5305(15) 0.0158(8)
C73_7 C 0.6685(2) 0.5299(15) 0.0650(8)
H40_7 H 0.6787 0.5279 0.0731
C74_7 C 0.6551(2) 0.5368(16) 0.2334(8)
H41_7 H 0.6652 0.5321 0.2421
C75_7 C 0.6434(2) 0.5458(15) 0.2696(8)
H42_7 H 0.6457 0.5504 0.3021
C76_7 C 0.6280(2) 0.5472(15) 0.2530(8)
H43_7 H 0.6206 0.5508 0.2764
C77_7 C 0.6236(2) 0.5442(15) 0.2101(8)
H44_7 H 0.6134 0.5475 0.2023
C78_7 C 0.6791(2) 0.5409(16) 0.1658(9)
C79_7 C 0.6855(2) 0.4627(16) 0.1847(9)
H45_7 H 0.6803 0.4050 0.1866
C80_7 C 0.7006(2) 0.4719(16) 0.2018(9)
H46_7 H 0.7051 0.4201 0.2171
C81_7 C 0.7085(2) 0.5527(15) 0.1964(9)
C82_7 C 0.7009(2) 0.6283(16) 0.1743(9)
H47_7 H 0.7063 0.6835 0.1674
C83_7 C 0.6861(2) 0.6259(16) 0.1624(9)
H48_7 H 0.6810 0.6805 0.1523
C84_7 C 0.7247(2) 0.5651(15) 0.2145(9)
O8_7 O 0.5134(2) 0.6907(15) 0.0714(9)
O9_7 O 0.5125(2) 0.5649(14) 0.0258(9)
O11_7 O 0.50182(19) 0.8532(14) 0.1255(9)
C85_7 C 0.3895(2) 0.6208(14) 0.1418(8)
H49_7 H 0.3796 0.6251 0.1527
C86_7 C 0.3985(2) 0.6934(15) 0.1495(8)
H50_7 H 0.3946 0.7509 0.1604
C87_7 C 0.4147(2) 0.6861(15) 0.1414(8)
H51_7 H 0.4212 0.7334 0.1522
C88_7 C 0.4201(2) 0.6065(14) 0.1170(8)
H52_7 H 0.4302 0.6042 0.1088
C89_7 C 0.4326(2) 0.4304(15) 0.0784(10)
C90_7 C 0.4411(2) 0.4825(13) 0.0430(10)
H53_7 H 0.4362 0.5300 0.0256
C91_7 C 0.4562(2) 0.4652(14) 0.0332(10)
H54_7 H 0.4609 0.4959 0.0076
C92_7 C 0.4642(2) 0.4034(15) 0.0612(10)
C93_7 C 0.4561(2) 0.3512(14) 0.1004(9)
H55_7 H 0.4613 0.3079 0.1197
C94_7 C 0.4416(2) 0.3674(14) 0.1072(9)
H56_7 H 0.4368 0.3358 0.1324
C95_7 C 0.4798(2) 0.3819(15) 0.0518(9)
O13_7 O 0.5185(2) 0.2820(14) 0.0869(10)
C128_7 C 0.3509(2) 0.1807(14) 0.0050(9)
H74_7 H 0.3536 0.1692 0.0366
H75_7 H 0.3291 0.1946 0.0183
C138_7 C 0.4167(2) 0.4471(14) 0.0877(9)
C139_7 C 0.4106(2) 0.5282(14) 0.1041(9)
C140_7 C 0.3941(2) 0.5355(14) 0.1174(9)
C141_7 C 0.3851(2) 0.4594(15) 0.1096(9)
C142_7 C 0.3907(2) 0.3741(15) 0.0872(9)
C143_7 C 0.4076(2) 0.3640(15) 0.0777(8)
C144_7 C 0.4123(2) 0.2756(14) 0.0558(8)
H81_7 H 0.4222 0.2675 0.0457
C145_7 C 0.4023(2) 0.2059(15) 0.0501(8)
H82_7 H 0.4056 0.1500 0.0355
C146_7 C 0.3878(2) 0.2098(15) 0.0638(8)
H83_7 H 0.3817 0.1563 0.0600
C147_7 C 0.3823(2) 0.2852(14) 0.0820(8)
H84_7 H 0.3724 0.2838 0.0925
C148_7 C 0.3691(2) 0.4670(15) 0.1211(8)
C149_7 C 0.3643(2) 0.4652(16) 0.1715(8)
C150_7 C 0.3492(2) 0.4646(16) 0.1849(8)
C151_7 C 0.3381(2) 0.4665(16) 0.1503(8)
C152_7 C 0.3411(2) 0.4679(15) 0.0999(8)
C153_7 C 0.3574(2) 0.4657(16) 0.0891(8)
C154_7 C 0.3618(3) 0.474(2) 0.0387(10)
H85_7 H 0.3719 0.4777 0.0301
C155_7 C 0.3499(3) 0.4751(14) 0.0023(8)
C156_7 C 0.3350(2) 0.4695(15) 0.0158(8)
C157_7 C 0.3315(2) 0.4701(15) 0.0650(8)
H88_7 H 0.3213 0.4721 0.0731
C158_7 C 0.3449(2) 0.4632(16) 0.2334(8)
H89_7 H 0.3348 0.4679 0.2421
C159_7 C 0.3566(2) 0.4542(15) 0.2696(8)
H90_7 H 0.3543 0.4496 0.3021
C160_7 C 0.3720(2) 0.4528(15) 0.2530(8)
H91_7 H 0.3794 0.4492 0.2764
C161_7 C 0.3764(2) 0.4558(15) 0.2101(8)
H92_7 H 0.3866 0.4525 0.2023
C162_7 C 0.3209(2) 0.4591(16) 0.1658(9)
C163_7 C 0.3145(2) 0.5373(16) 0.1847(9)
H93_7 H 0.3197 0.5950 0.1866
C164_7 C 0.2994(2) 0.5281(16) 0.2018(9)
H94_7 H 0.2949 0.5799 0.2171
C165_7 C 0.2915(2) 0.4473(15) 0.1964(9)
C166_7 C 0.2991(2) 0.3717(16) 0.1743(9)
H95_7 H 0.2937 0.3165 0.1674
C167_7 C 0.3139(2) 0.3741(16) 0.1624(9)
H96_7 H 0.3190 0.3195 0.1523
C168_7 C 0.2753(2) 0.4349(15) 0.2145(9)
O20_7 O 0.4866(2) 0.3093(15) 0.0714(9)
O21_7 O 0.4875(2) 0.4351(14) 0.0258(9)
O23_7 O 0.49818(19) 0.1468(14) 0.1255(9)
H97_7 H 0.507901 0.122089 0.138001
H98_7 H 0.490272 0.0971976 0.129363
H101_7 H 0.473766 0.687782 0.0661213
H102_7 H 0.476503 0.760795 0.110436
H107_7 H 0.492099 0.877911 0.138001
H108_7 H 0.509728 0.902802 0.129363
H109_7 H 0.526234 0.312218 0.0661213
H110_7 H 0.523497 0.239205 0.110436
C12_7 C 0.5193(3) 0.6981(16) 0.9495(10)
C13_7 C 0.5372(3) 0.7218(16) 0.9359(10)
C14_7 C 0.5444(3) 0.6818(16) 0.9048(10)
H9_7 H 0.5395 0.6339 0.8877
C15_7 C 0.5586(3) 0.7000(16) 0.8930(10)
H10_7 H 0.5627 0.6717 0.8658
C16_7 C 0.5676(3) 0.7628(16) 0.9215(10)
C17_7 C 0.5594(3) 0.8088(15) 0.9592(10)
H11_7 H 0.5646 0.8497 0.9796
C18_7 C 0.5445(3) 0.7965(16) 0.9670(10)
H12_7 H 0.5392 0.8314 0.9898
C19_7 C 0.5937(2) 0.6972(14) 0.9237(8)
C20_7 C 0.6097(2) 0.7091(14) 0.9093(8)
C21_7 C 0.6149(2) 0.7921(14) 0.8941(8)
C22_7 C 0.6054(2) 0.8717(13) 0.8869(8)
C23_7 C 0.5889(2) 0.8673(13) 0.8941(8)
C24_7 C 0.5840(2) 0.7736(13) 0.9142(8)
C25_7 C 0.5886(2) 0.6100(13) 0.9469(8)
H13_7 H 0.5788 0.6083 0.9584
C26_7 C 0.5971(2) 0.5324(14) 0.9529(8)
H14_7 H 0.5932 0.4756 0.9652
C27_7 C 0.6126(2) 0.5427(14) 0.9389(8)
H15_7 H 0.6189 0.4902 0.9429
C28_7 C 0.6187(2) 0.6242(13) 0.9203(8)
H16_7 H 0.6290 0.6260 0.9145
C29_7 C 0.6109(2) 0.9586(13) 0.8683(8)
H17_7 H 0.6211 0.9650 0.8627
C32_7 C 0.5795(2) 0.9425(13) 0.8852(7)
H20_7 H 0.5693 0.9375 0.8923
C33_7 C 0.6317(2) 0.7985(15) 0.8816(9)
C34_7 C 0.6428(2) 0.8060(15) 0.9211(9)
C35_7 C 0.6583(2) 0.8024(15) 0.9102(9)
C36_7 C 0.6638(2) 0.7935(15) 0.8612(9)
C37_7 C 0.6522(2) 0.7959(15) 0.8229(9)
C38_7 C 0.6371(2) 0.7957(15) 0.8387(9)
C39_7 C 0.6257(2) 0.7941(15) 0.7958(8)
H21_7 H 0.6154 0.7957 0.8012
C40_7 C 0.6312(2) 0.7903(14) 0.7507(9)
H22_5 H 0.6243 0.7890 0.7257
C41_5 C 0.6467(2) 0.7882(15) 0.7387(9)
H23_5 H 0.6497 0.7819 0.7069
C42_7 C 0.6563(2) 0.7951(15) 0.7718(8)
H24_7 H 0.6664 0.7998 0.7636
C43_7 C 0.6387(2) 0.8114(15) 0.9713(9)
H25_7 H 0.6286 0.8092 0.9800
C45_7 C 0.6641(2) 0.8106(14) 0.9930(9)
C46_7 C 0.6697(2) 0.8087(14) 0.9506(8)
H28_7 H 0.6800 0.8111 0.9451
C47_7 C 0.6797(2) 0.7834(16) 0.8471(9)
C48_7 C 0.6856(2) 0.6993(16) 0.8489(9)
H29_7 H 0.6800 0.6488 0.8614
C49_7 C 0.7001(2) 0.6827(16) 0.8326(9)
H30_7 H 0.7035 0.6201 0.8301
C50_7 C 0.7097(2) 0.7564(16) 0.8198(9)
C51_7 C 0.7029(2) 0.8465(16) 0.8199(9)
H31_7 H 0.7082 0.8985 0.8078
C52_7 C 0.6887(2) 0.8610(16) 0.8371(9)
H32_7 H 0.6851 0.9227 0.8420
C53_7 C 0.7253(2) 0.7367(15) 0.8032(9)
H38_7 H 0.6475 0.5202 0.9700
H39_7 H 0.6725 0.5346 0.9928
O2_7 O 0.5133(2) 0.7582(14) 0.9788(9)
O3_7 O 0.5154(2) 0.6198(15) 0.9319(9)
O10_7 O 0.4951(2) 0.8976(14) 0.9734(9)
O12_11 O 0.5000 0.5000 0.8745(13)
C96_7 C 0.4807(3) 0.3019(16) 0.9495(10)
C97_7 C 0.4628(3) 0.2782(16) 0.9359(10)
C98_7 C 0.4556(3) 0.3182(16) 0.9048(10)
H57_7 H 0.4605 0.3661 0.8877
C99_7 C 0.4414(3) 0.3000(16) 0.8930(10)
H58_7 H 0.4373 0.3283 0.8658
C100_7 C 0.4324(3) 0.2372(16) 0.9215(10)
C101_7 C 0.4406(3) 0.1912(15) 0.9592(10)
H59_7 H 0.4354 0.1503 0.9796
C102_7 C 0.4555(3) 0.2035(16) 0.9670(10)
H60_7 H 0.4608 0.1686 0.9898
C103_7 C 0.4063(2) 0.3028(14) 0.9237(8)
C104_7 C 0.3903(2) 0.2909(14) 0.9093(8)
C105_7 C 0.3851(2) 0.2079(14) 0.8941(8)
C106_7 C 0.3946(2) 0.1283(13) 0.8869(8)
C107_7 C 0.4111(2) 0.1327(13) 0.8941(8)
C108_7 C 0.4160(2) 0.2264(13) 0.9142(8)
C109_7 C 0.4114(2) 0.3900(13) 0.9469(8)
H61_7 H 0.4212 0.3917 0.9584
C110_7 C 0.4029(2) 0.4676(14) 0.9529(8)
H62_7 H 0.4068 0.5244 0.9652
C111_7 C 0.3874(2) 0.4573(14) 0.9389(8)
H63_7 H 0.3811 0.5098 0.9429
C112_7 C 0.3813(2) 0.3758(13) 0.9203(8)
H64_7 H 0.3710 0.3740 0.9145
C113_7 C 0.3891(2) 0.0414(13) 0.8683(8)
H65_7 H 0.3789 0.0350 0.8627
C116_7 C 0.4205(2) 0.0575(13) 0.8852(7)
H68_7 H 0.4307 0.0625 0.8923
C117_7 C 0.3683(2) 0.2015(15) 0.8816(9)
C118_7 C 0.3572(2) 0.1940(15) 0.9211(9)
C119_7 C 0.3417(2) 0.1976(15) 0.9102(9)
C120_7 C 0.3362(2) 0.2065(15) 0.8612(9)
C121_7 C 0.3478(2) 0.2041(15) 0.8229(9)
C122_7 C 0.3629(2) 0.2043(15) 0.8387(9)
C123_7 C 0.3743(2) 0.2059(15) 0.7958(8)
H69_7 H 0.3846 0.2043 0.8012
C124_7 C 0.3688(2) 0.2097(14) 0.7507(9)
H70_5 H 0.3757 0.2110 0.7257
C125_5 C 0.3533(2) 0.2118(15) 0.7387(9)
H71_5 H 0.3503 0.2181 0.7069
C126_7 C 0.3437(2) 0.2049(15) 0.7718(8)
H72_7 H 0.3336 0.2002 0.7636
C127_7 C 0.3613(2) 0.1886(15) 0.9713(9)
H73_7 H 0.3714 0.1908 0.9800
C129_7 C 0.3359(2) 0.1894(14) 0.9930(9)
C130_7 C 0.3303(2) 0.1913(14) 0.9506(8)
H76_7 H 0.3200 0.1889 0.9451
C131_7 C 0.3203(2) 0.2166(16) 0.8471(9)
C132_7 C 0.3144(2) 0.3007(16) 0.8489(9)
H77_7 H 0.3200 0.3512 0.8614
C133_7 C 0.2999(2) 0.3173(16) 0.8326(9)
H78_7 H 0.2965 0.3799 0.8301
C134_7 C 0.2903(2) 0.2436(16) 0.8198(9)
C135_7 C 0.2971(2) 0.1535(16) 0.8199(9)
H79_7 H 0.2918 0.1015 0.8078
C136_7 C 0.3113(2) 0.1390(16) 0.8371(9)
H80_7 H 0.3149 0.0773 0.8420
C137_7 C 0.2747(2) 0.2633(15) 0.8032(9)
H86_7 H 0.3525 0.4798 0.9700
H87_7 H 0.3275 0.4654 0.9928
O14_7 O 0.4867(2) 0.2418(14) 0.9788(9)
O15_7 O 0.4846(2) 0.3802(15) 0.9319(9)
O22_7 O 0.5049(2) 0.1024(14) 0.9734(9)
H99_7 H 0.509123 0.143385 0.947623
H100_7 H 0.49523 0.074196 0.962454
H103_7 H 0.490877 0.856615 0.947623
H104_7 H 0.50477 0.925804 0.962454
C5_8 C 0.5674(2) 0.0696(15) 0.5784(10)
C6_8 C 0.5589(2) 0.0175(13) 0.5430(10)
C7_8 C 0.5438(2) 0.0348(14) 0.5332(10)
H6_8 H 0.5391 0.0041 0.5076
C8_8 C 0.5358(2) 0.0966(15) 0.5612(10)
C9_8 C 0.5439(2) 0.1488(14) 0.6004(9)
H7_8 H 0.5387 0.1921 0.6197
C10_8 C 0.5584(2) 0.1326(14) 0.6072(9)
H8_8 H 0.5632 0.1642 0.6324
C11_8 C 0.5202(2) 0.1181(15) 0.5518(9)
C12_8 C 0.5193(3) 0.1981(16) 0.4495(10)
O1_8 O 0.4815(2) 0.2180(14) 0.5869(10)
C13_8 C 0.5372(3) 0.2218(16) 0.4359(10)
C14_8 C 0.5444(3) 0.1818(16) 0.4048(10)
H9_8 H 0.5395 0.1339 0.3877
C15_8 C 0.5586(3) 0.2000(16) 0.3930(10)
H10_8 H 0.5627 0.1717 0.3658
C16_8 C 0.5676(3) 0.2628(16) 0.4215(10)
C17_8 C 0.5594(3) 0.3088(15) 0.4592(10)
H11_8 H 0.5646 0.3497 0.4796
C18_8 C 0.5445(3) 0.2965(16) 0.4670(10)
H12_8 H 0.5392 0.3314 0.4898
C19_8 C 0.5937(2) 0.1972(14) 0.4237(8)
C20_8 C 0.6097(2) 0.2091(14) 0.4093(8)
C21_8 C 0.6149(2) 0.2921(14) 0.3941(8)
C22_8 C 0.6054(2) 0.3717(13) 0.3869(8)
C23_8 C 0.5889(2) 0.3673(13) 0.3941(8)
C24_8 C 0.5840(2) 0.2736(13) 0.4142(8)
C25_8 C 0.5886(2) 0.1100(13) 0.4469(8)
H13_8 H 0.5788 0.1083 0.4584
C26_8 C 0.5971(2) 0.0324(14) 0.4529(8)
C27_8 C 0.6126(2) 0.0427(14) 0.4389(8)
C28_8 C 0.6187(2) 0.1242(13) 0.4203(8)
H16_8 H 0.6290 0.1260 0.4145
C29_8 C 0.6109(2) 0.4586(13) 0.3683(8)
H17_8 H 0.6211 0.4650 0.3627
C30_6 C 0.6014(2) 0.5358(14) 0.3580(8)
H18_6 H 0.6052 0.5934 0.3465
C31_6 C 0.5848(2) 0.5216(13) 0.3666(8)
H19_6 H 0.5781 0.5703 0.3584
C32_8 C 0.5795(2) 0.4425(13) 0.3852(7)
H20_8 H 0.5693 0.4375 0.3923
C33_8 C 0.6317(2) 0.2985(15) 0.3816(9)
C34_8 C 0.6428(2) 0.3060(15) 0.4211(9)
C35_8 C 0.6583(2) 0.3024(15) 0.4102(9)
C36_8 C 0.6638(2) 0.2935(15) 0.3612(9)
C37_8 C 0.6522(2) 0.2959(15) 0.3229(9)
C38_8 C 0.6371(2) 0.2957(15) 0.3387(9)
C39_8 C 0.6257(2) 0.2941(15) 0.2958(8)
H21_8 H 0.6154 0.2957 0.3012
C40_8 C 0.6312(2) 0.2903(14) 0.2507(9)
H22_6 H 0.6243 0.2890 0.2257
C41_6 C 0.6467(2) 0.2882(15) 0.2387(9)
H23_6 H 0.6497 0.2819 0.2069
C42_8 C 0.6563(2) 0.2951(15) 0.2718(8)
H24_8 H 0.6664 0.2998 0.2636
C43_8 C 0.6387(2) 0.3114(15) 0.4713(9)
H25_8 H 0.6286 0.3092 0.4800
C44_8 C 0.6491(2) 0.3193(14) 0.5050(9)
H26_8 H 0.6464 0.3308 0.5366
C45_8 C 0.6641(2) 0.3106(14) 0.4930(9)
H27_8 H 0.6709 0.3054 0.5183
C46_8 C 0.6697(2) 0.3087(14) 0.4506(8)
H28_8 H 0.6800 0.3111 0.4451
C47_8 C 0.6797(2) 0.2834(16) 0.3471(9)
C48_8 C 0.6856(2) 0.1993(16) 0.3489(9)
H29_8 H 0.6800 0.1488 0.3614
C49_8 C 0.7001(2) 0.1827(16) 0.3326(9)
H30_8 H 0.7035 0.1201 0.3301
C50_8 C 0.7097(2) 0.2564(16) 0.3198(9)
C51_8 C 0.7029(2) 0.3465(16) 0.3199(9)
H31_8 H 0.7082 0.3985 0.3078
C52_8 C 0.6887(2) 0.3610(16) 0.3371(9)
H32_8 H 0.6851 0.4227 0.3420
C53_8 C 0.7253(2) 0.2367(15) 0.3032(9)
C54_8 C 0.5833(2) 0.0529(14) 0.5877(9)
C57_8 C 0.6149(2) 0.0406(15) 0.6096(9)
C58_8 C 0.6093(2) 0.1259(15) 0.5872(9)
C59_8 C 0.5924(2) 0.1360(15) 0.5777(8)
C60_8 C 0.5877(2) 0.2244(14) 0.5558(8)
H33_8 H 0.5778 0.2325 0.5457
C61_8 C 0.5977(2) 0.2941(15) 0.5501(8)
H34_8 H 0.5944 0.3500 0.5355
C62_8 C 0.6122(2) 0.2902(15) 0.5638(8)
H35_8 H 0.6183 0.3437 0.5600
C63_8 C 0.6177(2) 0.2148(14) 0.5820(8)
H36_8 H 0.6276 0.2162 0.5925
C64_8 C 0.6309(2) 0.0330(15) 0.6211(8)
C65_8 C 0.6357(2) 0.0348(16) 0.6715(8)
C66_8 C 0.6508(2) 0.0354(16) 0.6849(8)
C67_8 C 0.6619(2) 0.0335(16) 0.6503(8)
C68_8 C 0.6589(2) 0.0321(15) 0.5999(8)
C69_8 C 0.6426(2) 0.0343(16) 0.5891(8)
C70_8 C 0.6382(3) 0.026(2) 0.5387(10)
H37_8 H 0.6281 0.0223 0.5301
C71_8 C 0.6501(3) 0.0249(14) 0.5023(8)
H38_8 H 0.6475 0.0202 0.4700
C72_8 C 0.6650(2) 0.0305(15) 0.5158(8)
H39_8 H 0.6725 0.0346 0.4928
C73_8 C 0.6685(2) 0.0299(15) 0.5650(8)
H40_8 H 0.6787 0.0279 0.5731
C74_8 C 0.6551(2) 0.0368(16) 0.7334(8)
H41_8 H 0.6652 0.0321 0.7421
C75_8 C 0.6434(2) 0.0458(15) 0.7696(8)
H42_8 H 0.6457 0.0504 0.8021
C76_8 C 0.6280(2) 0.0472(15) 0.7530(8)
H43_8 H 0.6206 0.0508 0.7764
C77_8 C 0.6236(2) 0.0442(15) 0.7101(8)
H44_8 H 0.6134 0.0475 0.7023
C78_8 C 0.6791(2) 0.0409(16) 0.6658(9)
C81_8 C 0.7085(2) 0.0527(15) 0.6964(9)
C82_8 C 0.7009(2) 0.1283(16) 0.6743(9)
H47_8 H 0.7063 0.1835 0.6674
C83_8 C 0.6861(2) 0.1259(16) 0.6624(9)
H48_8 H 0.6810 0.1805 0.6523
C84_8 C 0.7247(2) 0.0651(15) 0.7145(9)
O2_8 O 0.5133(2) 0.2582(14) 0.4788(9)
O3_8 O 0.5154(2) 0.1198(15) 0.4319(9)
O8_8 O 0.5134(2) 0.1907(15) 0.5714(9)
O9_8 O 0.5125(2) 0.0649(14) 0.5258(9)
O10_8 O 0.4951(2) 0.3976(14) 0.4734(9)
O11_8 O 0.50182(19) 0.3532(14) 0.6255(9)
O12_12 O 0.5000 -0.0000 0.3745(13)
C85_8 C 0.3895(2) 0.1208(14) 0.6418(8)
H49_8 H 0.3796 0.1251 0.6527
C86_8 C 0.3985(2) 0.1934(15) 0.6495(8)
H50_8 H 0.3946 0.2509 0.6604
C87_8 C 0.4147(2) 0.1861(15) 0.6414(8)
H51_8 H 0.4212 0.2334 0.6522
C88_8 C 0.4201(2) 0.1065(14) 0.6170(8)
H52_8 H 0.4302 0.1042 0.6088
H53_8 H 0.4362 0.0300 0.5256
H62_8 H 0.4068 0.0244 0.4652
H63_8 H 0.3811 0.0098 0.4429
C139_8 C 0.4106(2) 0.0282(14) 0.6041(9)
C140_8 C 0.3941(2) 0.0355(14) 0.6174(9)
C163_8 C 0.3145(2) 0.0373(16) 0.6847(9)
H93_8 H 0.3197 0.0950 0.6866
C164_8 C 0.2994(2) 0.0281(16) 0.7018(9)
H94_8 H 0.2949 0.0799 0.7171
H101_8 H 0.473766 0.187782 0.566121
H102_8 H 0.476503 0.260795 0.610436
H103_8 H 0.490877 0.356615 0.447623
H104_8 H 0.50477 0.425804 0.462454
H105_5 H 0.496258 0.0625729 0.362631
H107_8 H 0.492099 0.377911 0.638001
H108_8 H 0.509728 0.402802 0.629363
C1_8 C 0.6105(2) 0.8792(14) 0.6418(8)
H1_8 H 0.6204 0.8749 0.6527
C2_8 C 0.6015(2) 0.8066(15) 0.6495(8)
H2_8 H 0.6054 0.7491 0.6604
C3_8 C 0.5853(2) 0.8139(15) 0.6414(8)
H3_8 H 0.5788 0.7666 0.6522
C4_8 C 0.5799(2) 0.8935(14) 0.6170(8)
H4_8 H 0.5698 0.8958 0.6088
H5_8 H 0.5638 0.9700 0.5256
H14_8 H 0.5932 0.9756 0.4652
H15_8 H 0.6189 0.9902 0.4429
C55_8 C 0.5894(2) 0.9718(14) 0.6041(9)
C56_8 C 0.6059(2) 0.9645(14) 0.6174(9)
C79_8 C 0.6855(2) 0.9627(16) 0.6847(9)
H45_8 H 0.6803 0.9050 0.6866
C80_8 C 0.7006(2) 0.9719(16) 0.7018(9)
H46_8 H 0.7051 0.9201 0.7171
O12_13 O 0.5000 1.0000 0.3745(13)
C89_8 C 0.4326(2) 0.9304(15) 0.5784(10)
C90_8 C 0.4411(2) 0.9825(13) 0.5430(10)
C91_8 C 0.4562(2) 0.9652(14) 0.5332(10)
H54_8 H 0.4609 0.9959 0.5076
C92_8 C 0.4642(2) 0.9034(15) 0.5612(10)
C93_8 C 0.4561(2) 0.8512(14) 0.6004(9)
H55_8 H 0.4613 0.8079 0.6197
C94_8 C 0.4416(2) 0.8674(14) 0.6072(9)
H56_8 H 0.4368 0.8358 0.6324
C95_8 C 0.4798(2) 0.8819(15) 0.5518(9)
C96_8 C 0.4807(3) 0.8019(16) 0.4495(10)
O13_8 O 0.5185(2) 0.7820(14) 0.5869(10)
C97_8 C 0.4628(3) 0.7782(16) 0.4359(10)
C98_8 C 0.4556(3) 0.8182(16) 0.4048(10)
H57_8 H 0.4605 0.8661 0.3877
C99_8 C 0.4414(3) 0.8000(16) 0.3930(10)
H58_8 H 0.4373 0.8283 0.3658
C100_8 C 0.4324(3) 0.7372(16) 0.4215(10)
C101_8 C 0.4406(3) 0.6912(15) 0.4592(10)
H59_8 H 0.4354 0.6503 0.4796
C102_8 C 0.4555(3) 0.7035(16) 0.4670(10)
H60_8 H 0.4608 0.6686 0.4898
C103_8 C 0.4063(2) 0.8028(14) 0.4237(8)
C104_8 C 0.3903(2) 0.7909(14) 0.4093(8)
C105_8 C 0.3851(2) 0.7079(14) 0.3941(8)
C106_8 C 0.3946(2) 0.6283(13) 0.3869(8)
C107_8 C 0.4111(2) 0.6327(13) 0.3941(8)
C108_8 C 0.4160(2) 0.7264(13) 0.4142(8)
C109_8 C 0.4114(2) 0.8900(13) 0.4469(8)
H61_8 H 0.4212 0.8917 0.4584
C110_8 C 0.4029(2) 0.9676(14) 0.4529(8)
C111_8 C 0.3874(2) 0.9573(14) 0.4389(8)
C112_8 C 0.3813(2) 0.8758(13) 0.4203(8)
H64_8 H 0.3710 0.8740 0.4145
C113_8 C 0.3891(2) 0.5414(13) 0.3683(8)
H65_8 H 0.3789 0.5350 0.3627
C114_6 C 0.3986(2) 0.4642(14) 0.3580(8)
H66_6 H 0.3948 0.4066 0.3465
C115_6 C 0.4152(2) 0.4784(13) 0.3666(8)
H67_6 H 0.4219 0.4297 0.3584
C116_8 C 0.4205(2) 0.5575(13) 0.3852(7)
H68_8 H 0.4307 0.5625 0.3923
C117_8 C 0.3683(2) 0.7015(15) 0.3816(9)
C118_8 C 0.3572(2) 0.6940(15) 0.4211(9)
C119_8 C 0.3417(2) 0.6976(15) 0.4102(9)
C120_8 C 0.3362(2) 0.7065(15) 0.3612(9)
C121_8 C 0.3478(2) 0.7041(15) 0.3229(9)
C122_8 C 0.3629(2) 0.7043(15) 0.3387(9)
C123_8 C 0.3743(2) 0.7059(15) 0.2958(8)
H69_8 H 0.3846 0.7043 0.3012
C124_8 C 0.3688(2) 0.7097(14) 0.2507(9)
H70_6 H 0.3757 0.7110 0.2257
C125_6 C 0.3533(2) 0.7118(15) 0.2387(9)
H71_6 H 0.3503 0.7181 0.2069
C126_8 C 0.3437(2) 0.7049(15) 0.2718(8)
H72_8 H 0.3336 0.7002 0.2636
C127_8 C 0.3613(2) 0.6886(15) 0.4713(9)
H73_8 H 0.3714 0.6908 0.4800
C128_8 C 0.3509(2) 0.6807(14) 0.5050(9)
H74_8 H 0.3536 0.6692 0.5366
C129_8 C 0.3359(2) 0.6894(14) 0.4930(9)
H75_8 H 0.3291 0.6946 0.5183
C130_8 C 0.3303(2) 0.6913(14) 0.4506(8)
H76_8 H 0.3200 0.6889 0.4451
C131_8 C 0.3203(2) 0.7166(16) 0.3471(9)
C132_8 C 0.3144(2) 0.8007(16) 0.3489(9)
H77_8 H 0.3200 0.8512 0.3614
C133_8 C 0.2999(2) 0.8173(16) 0.3326(9)
H78_8 H 0.2965 0.8799 0.3301
C134_8 C 0.2903(2) 0.7436(16) 0.3198(9)
C135_8 C 0.2971(2) 0.6535(16) 0.3199(9)
H79_8 H 0.2918 0.6015 0.3078
C136_8 C 0.3113(2) 0.6390(16) 0.3371(9)
H80_8 H 0.3149 0.5773 0.3420
C137_8 C 0.2747(2) 0.7633(15) 0.3032(9)
C138_8 C 0.4167(2) 0.9471(14) 0.5877(9)
C141_8 C 0.3851(2) 0.9594(15) 0.6096(9)
C142_8 C 0.3907(2) 0.8741(15) 0.5872(9)
C143_8 C 0.4076(2) 0.8640(15) 0.5777(8)
C144_8 C 0.4123(2) 0.7756(14) 0.5558(8)
H81_8 H 0.4222 0.7675 0.5457
C145_8 C 0.4023(2) 0.7059(15) 0.5501(8)
H82_8 H 0.4056 0.6500 0.5355
C146_8 C 0.3878(2) 0.7098(15) 0.5638(8)
H83_8 H 0.3817 0.6563 0.5600
C147_8 C 0.3823(2) 0.7852(14) 0.5820(8)
H84_8 H 0.3724 0.7838 0.5925
C148_8 C 0.3691(2) 0.9670(15) 0.6211(8)
C149_8 C 0.3643(2) 0.9652(16) 0.6715(8)
C150_8 C 0.3492(2) 0.9646(16) 0.6849(8)
C151_8 C 0.3381(2) 0.9665(16) 0.6503(8)
C152_8 C 0.3411(2) 0.9679(15) 0.5999(8)
C153_8 C 0.3574(2) 0.9657(16) 0.5891(8)
C154_8 C 0.3618(3) 0.974(2) 0.5387(10)
H85_8 H 0.3719 0.9777 0.5301
C155_8 C 0.3499(3) 0.9751(14) 0.5023(8)
H86_8 H 0.3525 0.9798 0.4700
C156_8 C 0.3350(2) 0.9695(15) 0.5158(8)
H87_8 H 0.3275 0.9654 0.4928
C157_8 C 0.3315(2) 0.9701(15) 0.5650(8)
H88_8 H 0.3213 0.9721 0.5731
C158_8 C 0.3449(2) 0.9632(16) 0.7334(8)
H89_8 H 0.3348 0.9679 0.7421
C159_8 C 0.3566(2) 0.9542(15) 0.7696(8)
H90_8 H 0.3543 0.9496 0.8021
C160_8 C 0.3720(2) 0.9528(15) 0.7530(8)
H91_8 H 0.3794 0.9492 0.7764
C161_8 C 0.3764(2) 0.9558(15) 0.7101(8)
H92_8 H 0.3866 0.9525 0.7023
C162_8 C 0.3209(2) 0.9591(16) 0.6658(9)
C165_8 C 0.2915(2) 0.9473(15) 0.6964(9)
C166_8 C 0.2991(2) 0.8717(16) 0.6743(9)
H95_8 H 0.2937 0.8165 0.6674
C167_8 C 0.3139(2) 0.8741(16) 0.6624(9)
H96_8 H 0.3190 0.8195 0.6523
C168_8 C 0.2753(2) 0.9349(15) 0.7145(9)
O14_8 O 0.4867(2) 0.7418(14) 0.4788(9)
O15_8 O 0.4846(2) 0.8802(15) 0.4319(9)
O20_8 O 0.4866(2) 0.8093(15) 0.5714(9)
O21_8 O 0.4875(2) 0.9351(14) 0.5258(9)
O22_8 O 0.5049(2) 0.6024(14) 0.4734(9)
O23_8 O 0.49818(19) 0.6468(14) 0.6255(9)
H97_8 H 0.507901 0.622089 0.638001
H98_8 H 0.490272 0.597198 0.629363
H99_8 H 0.509123 0.643385 0.447623
H100_8 H 0.49523 0.574196 0.462454
H106_5 H 0.493334 0.948143 0.362631
H109_8 H 0.526234 0.812218 0.566121
H110_8 H 0.523497 0.739205 0.610436
H106_6 H 0.506666 0.0518568 0.362631
H105_6 H 0.503742 0.937427 0.362631
H22_7 H 0.1257 0.5390 0.9757
C41_7 C 0.1033(2) 0.5382(15) 0.9887(9)
H23_7 H 0.1003 0.5319 0.9569
H70_7 H 0.3743 0.9610 0.9757
C125_7 C 0.3967(2) 0.9618(15) 0.9887(9)
H71_7 H 0.3997 0.9681 0.9569
H70_8 H 0.6257 0.0390 0.9757
C125_8 C 0.6033(2) 0.0382(15) 0.9887(9)
H71_8 H 0.6003 0.0319 0.9569
H22_8 H 0.8743 0.4610 0.9757
C41_8 C 0.8967(2) 0.4618(15) 0.9887(9)
H23_8 H 0.8997 0.4681 0.9569
C30_7 C 0.1014(2) 0.0358(14) 0.3580(8)
H18_7 H 0.1052 0.0934 0.3465
C31_7 C 0.0848(2) 0.0216(13) 0.3666(8)
H19_7 H 0.0781 0.0703 0.3584
C114_7 C 0.8986(2) 0.9642(14) 0.3580(8)
H66_7 H 0.8948 0.9066 0.3465
C115_7 C 0.9152(2) 0.9784(13) 0.3666(8)
H67_7 H 0.9219 0.9297 0.3584
C30_8 C 0.6014(2) 0.0358(14) 0.8580(8)
H18_8 H 0.6052 0.0934 0.8465
C31_8 C 0.5848(2) 0.0216(13) 0.8666(8)
H19_8 H 0.5781 0.0703 0.8584
C114_8 C 0.3986(2) 0.9642(14) 0.8580(8)
H66_8 H 0.3948 0.9066 0.8465
C115_8 C 0.4152(2) 0.9784(13) 0.8666(8)
H67_8 H 0.4219 0.9297 0.8584
loop_
_geom_bond_atom_site_label_1
_geom_bond_atom_site_label_2
_geom_bond_site_symmetry_1
_geom_bond_site_symmetry_2
C1 H1 1_555 1_555
C2 C1 1_555 1_555
C3 C2 1_555 1_555
H3 C3 1_555 1_555
C4 C3 1_555 1_555
H4 C4 1_555 1_555
C5 C6 1_555 1_555
C6 H5 1_555 1_555
C7 C6 1_555 1_555
H6 C7 1_555 1_555
C8 C7 1_555 1_555
C9 C8 1_555 1_555
H7 C9 1_555 1_555
C10 C5 1_555 1_555
H8 C10 1_555 1_555
C11 C8 1_555 1_555
C12 C13 1_555 1_555
O1 Tb1 1_555 1_555
C13 C14 1_555 1_555
C14 H9 1_555 1_555
C15 C14 1_555 1_555
H10 C15 1_555 1_555
C16 C15 1_555 1_555
C17 C16 1_555 1_555
H11 C17 1_555 1_555
C18 C13 1_555 1_555
H12 C18 1_555 1_555
C19 C20 1_555 1_555
C20 C21 1_555 1_555
C21 C22 1_555 1_555
C22 C23 1_555 1_555
C23 C24 1_555 1_555
C24 C16 1_555 1_555
C25 C19 1_555 1_555
H13 C25 1_555 1_555
C26 C25 1_555 1_555
H14 C26 1_555 1_555
C27 C26 1_555 1_555
H15 C27 1_555 1_555
C28 C20 1_555 1_555
H16 C28 1_555 1_555
C29 C22 1_555 1_555
H17 C29 1_555 1_555
C30 C29 1_555 1_555
H18 C30 1_555 1_555
C31 C30 1_555 1_555
H19 C31 1_555 1_555
C32 C23 1_555 1_555
H20 C32 1_555 1_555
C33 C21 1_555 1_555
C34 C33 1_555 1_555
C35 C34 1_555 1_555
C36 C35 1_555 1_555
C37 C36 1_555 1_555
C38 C33 1_555 1_555
C39 C38 1_555 1_555
H21 C39 1_555 1_555
C40 C39 1_555 1_555
C42 C37 1_555 1_555
H24 C42 1_555 1_555
C43 C34 1_555 1_555
H25 C43 1_555 1_555
C44 C43 1_555 1_555
H26 C44 1_555 1_555
C45 C44 1_555 1_555
H27 C45 1_555 1_555
C46 C35 1_555 1_555
H28 C46 1_555 1_555
C47 C36 1_555 1_555
C48 C47 1_555 1_555
H29 C48 1_555 1_555
C49 C48 1_555 1_555
H30 C49 1_555 1_555
C50 C49 1_555 1_555
C51 C50 1_555 1_555
H31 C51 1_555 1_555
C52 C47 1_555 1_555
H32 C52 1_555 1_555
C53 C50 1_555 1_555
C54 C5 1_555 1_555
C55 C4 1_555 1_555
C56 C1 1_555 1_555
C57 C56 1_555 1_555
C58 C57 1_555 1_555
C59 C54 1_555 1_555
C60 C59 1_555 1_555
H33 C60 1_555 1_555
C61 C60 1_555 1_555
H34 C61 1_555 1_555
C62 C61 1_555 1_555
H35 C62 1_555 1_555
C63 C58 1_555 1_555
H36 C63 1_555 1_555
C64 C57 1_555 1_555
C65 C64 1_555 1_555
C66 C65 1_555 1_555
C67 C66 1_555 1_555
C68 C67 1_555 1_555
C69 C64 1_555 1_555
C70 C69 1_555 1_555
H37 C70 1_555 1_555
C71 C70 1_555 1_555
H38 C71 1_555 1_555
C72 C71 1_555 1_555
H39 C72 1_555 1_555
C73 C68 1_555 1_555
H40 C73 1_555 1_555
C74 C66 1_555 1_555
H41 C74 1_555 1_555
C75 C74 1_555 1_555
H42 C75 1_555 1_555
C76 C75 1_555 1_555
H43 C76 1_555 1_555
C77 C65 1_555 1_555
H44 C77 1_555 1_555
C78 C67 1_555 1_555
C79 C78 1_555 1_555
H45 C79 1_555 1_555
C80 C79 1_555 1_555
H46 C80 1_555 1_555
C81 C80 1_555 1_555
C82 C81 1_555 1_555
H47 C82 1_555 1_555
C83 C78 1_555 1_555
H48 C83 1_555 1_555
C84 C81 1_555 1_555
O2 C12 1_555 1_555
O3 C12 1_555 1_555
O4 C53 1_555 1_555
O5 C53 1_555 1_555
O6 C84 1_555 1_555
O7 C84 1_555 1_555
O8 C11 1_555 1_555
O9 C11 1_555 1_555
O10 Tb1 1_555 1_555
O11 Tb1 1_555 1_555
O12 Tb2 1_555 1_555
Tb1 O2 1_555 1_555
Tb2 O3 1_555 1_555
C85 H49 1_555 1_555
C86 C85 1_555 1_555
H50 C86 1_555 1_555
C87 C86 1_555 1_555
H51 C87 1_555 1_555
C88 C87 1_555 1_555
H52 C88 1_555 1_555
C89 C90 1_555 1_555
C90 H53 1_555 1_555
C91 C90 1_555 1_555
H54 C91 1_555 1_555
C92 C91 1_555 1_555
C93 C92 1_555 1_555
H55 C93 1_555 1_555
C94 C89 1_555 1_555
H56 C94 1_555 1_555
C95 C92 1_555 1_555
C96 C97 1_555 1_555
C97 C98 1_555 1_555
C98 H57 1_555 1_555
C99 C98 1_555 1_555
H58 C99 1_555 1_555
C103 C104 1_555 1_555
C109 C103 1_555 1_555
H61 C109 1_555 1_555
C110 C109 1_555 1_555
H62 C110 1_555 1_555
C111 C110 1_555 1_555
H63 C111 1_555 1_555
C112 C104 1_555 1_555
H64 C112 1_555 1_555
H77 C132 1_555 1_555
C133 C132 1_555 1_555
H78 C133 1_555 1_555
C138 C89 1_555 1_555
C139 C88 1_555 1_555
C140 C85 1_555 1_555
C141 C140 1_555 1_555
C142 C141 1_555 1_555
C143 C138 1_555 1_555
C144 C143 1_555 1_555
H81 C144 1_555 1_555
C147 C142 1_555 1_555
H84 C147 1_555 1_555
C148 C141 1_555 1_555
C149 C148 1_555 1_555
C150 C149 1_555 1_555
C151 C150 1_555 1_555
C152 C151 1_555 1_555
C153 C148 1_555 1_555
C154 C153 1_555 1_555
H85 C154 1_555 1_555
C155 C154 1_555 1_555
H86 C155 1_555 1_555
C156 C155 1_555 1_555
H87 C156 1_555 1_555
C157 C152 1_555 1_555
H88 C157 1_555 1_555
C158 C150 1_555 1_555
H89 C158 1_555 1_555
C159 C158 1_555 1_555
H90 C159 1_555 1_555
C160 C159 1_555 1_555
H91 C160 1_555 1_555
C161 C149 1_555 1_555
H92 C161 1_555 1_555
C162 C151 1_555 1_555
C163 C162 1_555 1_555
H93 C163 1_555 1_555
C164 C163 1_555 1_555
H94 C164 1_555 1_555
C165 C164 1_555 1_555
C166 C165 1_555 1_555
H95 C166 1_555 1_555
C167 C162 1_555 1_555
H96 C167 1_555 1_555
C168 C165 1_555 1_555
O15 Tb2 1_555 1_555
O17 C137 1_555 1_555
O18 C168 1_555 1_555
O19 C168 1_555 1_555
O20 C95 1_555 1_555
O21 Tb2 1_555 1_555
O25 Tb1 1_555 1_555
O26 Tb1 1_555 1_555
O28 Tb2 1_555 1_555
O29 Tb2 1_555 1_555
O31 Tb1 1_555 1_555
Tb4 O7 1_555 1_555
Tb6 O4 1_555 1_555
Tb8 O17 1_555 1_555
Tb9 O19 1_555 1_555
Tb10 O6 1_555 1_555
Tb11 O18 1_555 1_555
C9 C10 1_555 1_555
C17 C18 1_555 1_555
C19 C24 1_555 1_555
C27 C28 1_555 1_555
C31 C32 1_555 1_555
C37 C38 1_555 1_555
C45 C46 1_555 1_555
C51 C52 1_555 1_555
C54 C55 1_555 1_555
C55 C56 1_555 1_555
C58 C59 1_555 1_555
C62 C63 1_555 1_555
C68 C69 1_555 1_555
C72 C73 1_555 1_555
C76 C77 1_555 1_555
C82 C83 1_555 1_555
O8 Tb1 1_555 1_555
O9 Tb2 1_555 1_555
C93 C94 1_555 1_555
C95 O21 1_555 1_555
C96 O15 1_555 1_555
C111 C112 1_555 1_555
C138 C139 1_555 1_555
C139 C140 1_555 1_555
C142 C143 1_555 1_555
C152 C153 1_555 1_555
C156 C157 1_555 1_555
C160 C161 1_555 1_555
C166 C167 1_555 1_555
O1 H101 1_555 1_555
O1 H102 1_555 1_555
O10 H103 1_555 1_555
O10 H104 1_555 1_555
O11 H107 1_555 1_555
O11 H108 1_555 1_555
O13 H109 1_555 1_555
C101 C100 1_555 1_555
H59 C101 1_555 1_555
H60 C102 1_555 1_555
C105 C106 1_555 1_555
C106 C107 1_555 1_555
C107 C108 1_555 1_555
C108 C100 1_555 1_555
C113 C106 1_555 1_555
H65 C113 1_555 1_555
C114 C113 1_555 1_555
H66 C114 1_555 1_555
C115 C114 1_555 1_555
H67 C115 1_555 1_555
C116 C107 1_555 1_555
H68 C116 1_555 1_555
C117 C105 1_555 1_555
C118 C117 1_555 1_555
C119 C118 1_555 1_555
C120 C119 1_555 1_555
C121 C120 1_555 1_555
C122 C117 1_555 1_555
C123 C122 1_555 1_555
H69 C123 1_555 1_555
C124 C123 1_555 1_555
C126 C121 1_555 1_555
H72 C126 1_555 1_555
C127 C118 1_555 1_555
H73 C127 1_555 1_555
C128 C127 1_555 1_555
H74 C128 1_555 1_555
C129 C128 1_555 1_555
H75 C129 1_555 1_555
C130 C119 1_555 1_555
H76 C130 1_555 1_555
C131 C120 1_555 1_555
C135 C134 1_555 1_555
H79 C135 1_555 1_555
C136 C131 1_555 1_555
H80 C136 1_555 1_555
H82 C145 1_555 1_555
C146 C145 1_555 1_555
H83 C146 1_555 1_555
O22 Tb3 1_555 1_555
O23 Tb3 1_555 1_555
Tb3 O14 1_555 1_555
O24 Tb3 1_555 1_555
O27 Tb3 1_555 1_555
O30 Tb3 1_555 1_555
Tb7 O16 1_555 1_555
C101 C102 1_555 1_555
C115 C116 1_555 1_555
C121 C122 1_555 1_555
C129 C130 1_555 1_555
C135 C136 1_555 1_555
O23 H97 1_555 1_555
O23 H98 1_555 1_555
O22 H99 1_555 1_555
O22 H100 1_555 1_555
C101_2 C100_2 1_555 1_555
H59_2 C101_2 1_555 1_555
H60_2 C102_2 1_555 1_555
C105_2 C106_2 1_555 1_555
C106_2 C107_2 1_555 1_555
C107_2 C108_2 1_555 1_555
C108_2 C100_2 1_555 1_555
C113_2 C106_2 1_555 1_555
H65_2 C113_2 1_555 1_555
C114_2 C113_2 1_555 1_555
H66_2 C114_2 1_555 1_555
C115_2 C114_2 1_555 1_555
H67_2 C115_2 1_555 1_555
C116_2 C107_2 1_555 1_555
H68_2 C116_2 1_555 1_555
C117_2 C105_2 1_555 1_555
C118_2 C117_2 1_555 1_555
C119_2 C118_2 1_555 1_555
C120_2 C119_2 1_555 1_555
C121_2 C120_2 1_555 1_555
C122_2 C117_2 1_555 1_555
C123_2 C122_2 1_555 1_555
H69_2 C123_2 1_555 1_555
C124_2 C123_2 1_555 1_555
C126_2 C121_2 1_555 1_555
H72_2 C126_2 1_555 1_555
C127_2 C118_2 1_555 1_555
H73_2 C127_2 1_555 1_555
C128_2 C127_2 1_555 1_555
H74_2 C128_2 1_555 1_555
C129_2 C128_2 1_555 1_555
H75_2 C129_2 1_555 1_555
C130_2 C119_2 1_555 1_555
H76_2 C130_2 1_555 1_555
C131_2 C120_2 1_555 1_555
C135_2 C134_2 1_555 1_555
H79_2 C135_2 1_555 1_555
C136_2 C131_2 1_555 1_555
H80_2 C136_2 1_555 1_555
H82_2 C145_2 1_555 1_555
C146_2 C145_2 1_555 1_555
H83_2 C146_2 1_555 1_555
O22_2 Tb3_2 1_555 1_555
O23_2 Tb3_2 1_555 1_555
Tb3_2 O14_2 1_555 1_555
O24_2 Tb3_2 1_555 1_555
O27_2 Tb3_2 1_555 1_555
O30_2 Tb3_2 1_555 1_555
Tb8 O16_2 1_555 1_555
C101_2 C102_2 1_555 1_555
C115_2 C116_2 1_555 1_555
C121_2 C122_2 1_555 1_555
C129_2 C130_2 1_555 1_555
C135_2 C136_2 1_555 1_555
O23_2 H97_2 1_555 1_555
O23_2 H98_2 1_555 1_555
O22_2 H99_2 1_555 1_555
O22_2 H100_2 1_555 1_555
C1_2 H1_2 1_555 1_555
C2_2 C1_2 1_555 1_555
C3_2 C2_2 1_555 1_555
H3_2 C3_2 1_555 1_555
C4_2 C3_2 1_555 1_555
H4_2 C4_2 1_555 1_555
C5_2 C6_2 1_555 1_555
C6_2 H5_2 1_555 1_555
C7_2 C6_2 1_555 1_555
H6_2 C7_2 1_555 1_555
C8_2 C7_2 1_555 1_555
C9_2 C8_2 1_555 1_555
H7_2 C9_2 1_555 1_555
C10_2 C5_2 1_555 1_555
H8_2 C10_2 1_555 1_555
C11_2 C8_2 1_555 1_555
C12_2 C13_2 1_555 1_555
O1_2 Tb1_2 1_555 1_555
C13_2 C14_2 1_555 1_555
C14_2 H9_2 1_555 1_555
C15_2 C14_2 1_555 1_555
H10_2 C15_2 1_555 1_555
C16_2 C15_2 1_555 1_555
C17_2 C16_2 1_555 1_555
H11_2 C17_2 1_555 1_555
C18_2 C13_2 1_555 1_555
H12_2 C18_2 1_555 1_555
C19_2 C20_2 1_555 1_555
C20_2 C21_2 1_555 1_555
C21_2 C22_2 1_555 1_555
C22_2 C23_2 1_555 1_555
C23_2 C24_2 1_555 1_555
C24_2 C16_2 1_555 1_555
C25_2 C19_2 1_555 1_555
H13_2 C25_2 1_555 1_555
C26_2 C25_2 1_555 1_555
H14_2 C26_2 1_555 1_555
C27_2 C26_2 1_555 1_555
H15_2 C27_2 1_555 1_555
C28_2 C20_2 1_555 1_555
H16_2 C28_2 1_555 1_555
C29_2 C22_2 1_555 1_555
H17_2 C29_2 1_555 1_555
C30_2 C29_2 1_555 1_555
H18_2 C30_2 1_555 1_555
C31_2 C30_2 1_555 1_555
H19_2 C31_2 1_555 1_555
C32_2 C23_2 1_555 1_555
H20_2 C32_2 1_555 1_555
C33_2 C21_2 1_555 1_555
C34_2 C33_2 1_555 1_555
C35_2 C34_2 1_555 1_555
C36_2 C35_2 1_555 1_555
C37_2 C36_2 1_555 1_555
C38_2 C33_2 1_555 1_555
C39_2 C38_2 1_555 1_555
H21_2 C39_2 1_555 1_555
C40_2 C39_2 1_555 1_555
C42_2 C37_2 1_555 1_555
H24_2 C42_2 1_555 1_555
C43_2 C34_2 1_555 1_555
H25_2 C43_2 1_555 1_555
C44_2 C43_2 1_555 1_555
H26_2 C44_2 1_555 1_555
C45_2 C44_2 1_555 1_555
H27_2 C45_2 1_555 1_555
C46_2 C35_2 1_555 1_555
H28_2 C46_2 1_555 1_555
C47_2 C36_2 1_555 1_555
C48_2 C47_2 1_555 1_555
H29_2 C48_2 1_555 1_555
C49_2 C48_2 1_555 1_555
H30_2 C49_2 1_555 1_555
C50_2 C49_2 1_555 1_555
C51_2 C50_2 1_555 1_555
H31_2 C51_2 1_555 1_555
C52_2 C47_2 1_555 1_555
H32_2 C52_2 1_555 1_555
C53_2 C50_2 1_555 1_555
C54_2 C5_2 1_555 1_555
C55_2 C4_2 1_555 1_555
C56_2 C1_2 1_555 1_555
C57_2 C56_2 1_555 1_555
C58_2 C57_2 1_555 1_555
C59_2 C54_2 1_555 1_555
C60_2 C59_2 1_555 1_555
H33_2 C60_2 1_555 1_555
C61_2 C60_2 1_555 1_555
H34_2 C61_2 1_555 1_555
C62_2 C61_2 1_555 1_555
H35_2 C62_2 1_555 1_555
C63_2 C58_2 1_555 1_555
H36_2 C63_2 1_555 1_555
C64_2 C57_2 1_555 1_555
C65_2 C64_2 1_555 1_555
C66_2 C65_2 1_555 1_555
C67_2 C66_2 1_555 1_555
C68_2 C67_2 1_555 1_555
C69_2 C64_2 1_555 1_555
C70_2 C69_2 1_555 1_555
H37_2 C70_2 1_555 1_555
C71_2 C70_2 1_555 1_555
H38_2 C71_2 1_555 1_555
C72_2 C71_2 1_555 1_555
H39_2 C72_2 1_555 1_555
C73_2 C68_2 1_555 1_555
H40_2 C73_2 1_555 1_555
C74_2 C66_2 1_555 1_555
H41_2 C74_2 1_555 1_555
C75_2 C74_2 1_555 1_555
H42_2 C75_2 1_555 1_555
C76_2 C75_2 1_555 1_555
H43_2 C76_2 1_555 1_555
C77_2 C65_2 1_555 1_555
H44_2 C77_2 1_555 1_555
C78_2 C67_2 1_555 1_555
C79_2 C78_2 1_555 1_555
H45_2 C79_2 1_555 1_555
C80_2 C79_2 1_555 1_555
H46_2 C80_2 1_555 1_555
C81_2 C80_2 1_555 1_555
C82_2 C81_2 1_555 1_555
H47_2 C82_2 1_555 1_555
C83_2 C78_2 1_555 1_555
H48_2 C83_2 1_555 1_555
C84_2 C81_2 1_555 1_555
O2_2 C12_2 1_555 1_555
O3_2 C12_2 1_555 1_555
O4_2 C53_2 1_555 1_555
O5_2 C53_2 1_555 1_555
O6_2 C84_2 1_555 1_555
O7_2 C84_2 1_555 1_555
O8_2 C11_2 1_555 1_555
O9_2 C11_2 1_555 1_555
O10_2 Tb1_2 1_555 1_555
O11_2 Tb1_2 1_555 1_555
O12_2 Tb2_2 1_555 1_555
Tb1_2 O2_2 1_555 1_555
Tb2_2 O3_2 1_555 1_555
C85_2 H49_2 1_555 1_555
C86_2 C85_2 1_555 1_555
H50_2 C86_2 1_555 1_555
C87_2 C86_2 1_555 1_555
H51_2 C87_2 1_555 1_555
C88_2 C87_2 1_555 1_555
H52_2 C88_2 1_555 1_555
C89_2 C90_2 1_555 1_555
C90_2 H53_2 1_555 1_555
C91_2 C90_2 1_555 1_555
H54_2 C91_2 1_555 1_555
C92_2 C91_2 1_555 1_555
C93_2 C92_2 1_555 1_555
H55_2 C93_2 1_555 1_555
C94_2 C89_2 1_555 1_555
H56_2 C94_2 1_555 1_555
C95_2 C92_2 1_555 1_555
C96_2 C97_2 1_555 1_555
C97_2 C98_2 1_555 1_555
C98_2 H57_2 1_555 1_555
C99_2 C98_2 1_555 1_555
H58_2 C99_2 1_555 1_555
C103_2 C104_2 1_555 1_555
C109_2 C103_2 1_555 1_555
H61_2 C109_2 1_555 1_555
C110_2 C109_2 1_555 1_555
H62_2 C110_2 1_555 1_555
C111_2 C110_2 1_555 1_555
H63_2 C111_2 1_555 1_555
C112_2 C104_2 1_555 1_555
H64_2 C112_2 1_555 1_555
H77_2 C132_2 1_555 1_555
C133_2 C132_2 1_555 1_555
H78_2 C133_2 1_555 1_555
C138_2 C89_2 1_555 1_555
C139_2 C88_2 1_555 1_555
C140_2 C85_2 1_555 1_555
C141_2 C140_2 1_555 1_555
C142_2 C141_2 1_555 1_555
C143_2 C138_2 1_555 1_555
C144_2 C143_2 1_555 1_555
H81_2 C144_2 1_555 1_555
C147_2 C142_2 1_555 1_555
H84_2 C147_2 1_555 1_555
C148_2 C141_2 1_555 1_555
C149_2 C148_2 1_555 1_555
C150_2 C149_2 1_555 1_555
C151_2 C150_2 1_555 1_555
C152_2 C151_2 1_555 1_555
C153_2 C148_2 1_555 1_555
C154_2 C153_2 1_555 1_555
H85_2 C154_2 1_555 1_555
C155_2 C154_2 1_555 1_555
H86_2 C155_2 1_555 1_555
C156_2 C155_2 1_555 1_555
H87_2 C156_2 1_555 1_555
C157_2 C152_2 1_555 1_555
H88_2 C157_2 1_555 1_555
C158_2 C150_2 1_555 1_555
H89_2 C158_2 1_555 1_555
C159_2 C158_2 1_555 1_555
H90_2 C159_2 1_555 1_555
C160_2 C159_2 1_555 1_555
H91_2 C160_2 1_555 1_555
C161_2 C149_2 1_555 1_555
H92_2 C161_2 1_555 1_555
C162_2 C151_2 1_555 1_555
C163_2 C162_2 1_555 1_555
H93_2 C163_2 1_555 1_555
C164_2 C163_2 1_555 1_555
H94_2 C164_2 1_555 1_555
C165_2 C164_2 1_555 1_555
C166_2 C165_2 1_555 1_555
H95_2 C166_2 1_555 1_555
C167_2 C162_2 1_555 1_555
H96_2 C167_2 1_555 1_555
C168_2 C165_2 1_555 1_555
O15_2 Tb2_2 1_555 1_555
O17_2 C137_2 1_555 1_555
O18_2 C168_2 1_555 1_555
O19_2 C168_2 1_555 1_555
O20_2 C95_2 1_555 1_555
O21_2 Tb2_2 1_555 1_555
O25_2 Tb1_2 1_555 1_555
O26_2 Tb1_2 1_555 1_555
O28_2 Tb2_2 1_555 1_555
O29_2 Tb2_2 1_555 1_555
O31_2 Tb1_2 1_555 1_555
Tb4_2 O7_2 1_555 1_555
Tb5 O4_2 1_555 1_555
Tb7 O17_2 1_555 1_555
Tb9_2 O19_2 1_555 1_555
Tb10_2 O6_2 1_555 1_555
Tb11_2 O18_2 1_555 1_555
C9_2 C10_2 1_555 1_555
C17_2 C18_2 1_555 1_555
C19_2 C24_2 1_555 1_555
C27_2 C28_2 1_555 1_555
C31_2 C32_2 1_555 1_555
C37_2 C38_2 1_555 1_555
C45_2 C46_2 1_555 1_555
C51_2 C52_2 1_555 1_555
C54_2 C55_2 1_555 1_555
C55_2 C56_2 1_555 1_555
C58_2 C59_2 1_555 1_555
C62_2 C63_2 1_555 1_555
C68_2 C69_2 1_555 1_555
C72_2 C73_2 1_555 1_555
C76_2 C77_2 1_555 1_555
C82_2 C83_2 1_555 1_555
O8_2 Tb1_2 1_555 1_555
O9_2 Tb2_2 1_555 1_555
C93_2 C94_2 1_555 1_555
C95_2 O21_2 1_555 1_555
C96_2 O15_2 1_555 1_555
C111_2 C112_2 1_555 1_555
C138_2 C139_2 1_555 1_555
C139_2 C140_2 1_555 1_555
C142_2 C143_2 1_555 1_555
C152_2 C153_2 1_555 1_555
C156_2 C157_2 1_555 1_555
C160_2 C161_2 1_555 1_555
C166_2 C167_2 1_555 1_555
O1_2 H101_2 1_555 1_555
O1_2 H102_2 1_555 1_555
O10_2 H103_2 1_555 1_555
O10_2 H104_2 1_555 1_555
O11_2 H107_2 1_555 1_555
O11_2 H108_2 1_555 1_555
O13_2 H109_2 1_555 1_555
C1_3 H1_3 1_555 1_555
C2_3 C1_3 1_555 1_555
H2_3 C2_3 1_555 1_555
C3_3 C2_3 1_555 1_555
H3_3 C3_3 1_555 1_555
C4_3 C3_3 1_555 1_555
H4_3 C4_3 1_555 1_555
C5_3 C6_3 1_555 1_555
C6_3 H5_3 1_555 1_555
C7_3 C6_3 1_555 1_555
H6_3 C7_3 1_555 1_555
C8_3 C7_3 1_555 1_555
C9_3 C8_3 1_555 1_555
H7_3 C9_3 1_555 1_555
C10_3 C5_3 1_555 1_555
H8_3 C10_3 1_555 1_555
C11_3 C8_3 1_555 1_555
C12_3 C13_3 1_555 1_555
C13_3 C14_3 1_555 1_555
C14_3 H9_3 1_555 1_555
C15_3 C14_3 1_555 1_555
H10_3 C15_3 1_555 1_555
C16_3 C15_3 1_555 1_555
C17_3 C16_3 1_555 1_555
H11_3 C17_3 1_555 1_555
C18_3 C13_3 1_555 1_555
H12_3 C18_3 1_555 1_555
C19_3 C20_3 1_555 1_555
C20_3 C21_3 1_555 1_555
C21_3 C22_3 1_555 1_555
C22_3 C23_3 1_555 1_555
C23_3 C24_3 1_555 1_555
C24_3 C16_3 1_555 1_555
C25_3 C19_3 1_555 1_555
H13_3 C25_3 1_555 1_555
C26_3 C25_3 1_555 1_555
H14_3 C26_3 1_555 1_555
C27_3 C26_3 1_555 1_555
H15_3 C27_3 1_555 1_555
C28_3 C20_3 1_555 1_555
H16_3 C28_3 1_555 1_555
C29_3 C22_3 1_555 1_555
H17_3 C29_3 1_555 1_555
C32_3 C23_3 1_555 1_555
H20_3 C32_3 1_555 1_555
C33_3 C21_3 1_555 1_555
C34_3 C33_3 1_555 1_555
C35_3 C34_3 1_555 1_555
C36_3 C35_3 1_555 1_555
C37_3 C36_3 1_555 1_555
C38_3 C33_3 1_555 1_555
C39_3 C38_3 1_555 1_555
H21_3 C39_3 1_555 1_555
C40_3 C39_3 1_555 1_555
H22 C40_3 1_555 1_555
C41 C40_3 1_555 1_555
H23 C41 1_555 1_555
C42_3 C37_3 1_555 1_555
H24_3 C42_3 1_555 1_555
C43_3 C34_3 1_555 1_555
H25_3 C43_3 1_555 1_555
C44_3 C43_3 1_555 1_555
H26_3 C44_3 1_555 1_555
C45_3 C44_3 1_555 1_555
H27_3 C45_3 1_555 1_555
C46_3 C35_3 1_555 1_555
H28_3 C46_3 1_555 1_555
C47_3 C36_3 1_555 1_555
C48_3 C47_3 1_555 1_555
H29_3 C48_3 1_555 1_555
C49_3 C48_3 1_555 1_555
H30_3 C49_3 1_555 1_555
C50_3 C49_3 1_555 1_555
C51_3 C50_3 1_555 1_555
H31_3 C51_3 1_555 1_555
C52_3 C47_3 1_555 1_555
H32_3 C52_3 1_555 1_555
C53_3 C50_3 1_555 1_555
C54_3 C5_3 1_555 1_555
C55_3 C4_3 1_555 1_555
C56_3 C1_3 1_555 1_555
C57_3 C56_3 1_555 1_555
C58_3 C57_3 1_555 1_555
C59_3 C54_3 1_555 1_555
C60_3 C59_3 1_555 1_555
H33_3 C60_3 1_555 1_555
C61_3 C60_3 1_555 1_555
H34_3 C61_3 1_555 1_555
C62_3 C61_3 1_555 1_555
H35_3 C62_3 1_555 1_555
C63_3 C58_3 1_555 1_555
H36_3 C63_3 1_555 1_555
C64_3 C57_3 1_555 1_555
C65_3 C64_3 1_555 1_555
C66_3 C65_3 1_555 1_555
C67_3 C66_3 1_555 1_555
C68_3 C67_3 1_555 1_555
C69_3 C64_3 1_555 1_555
C70_3 C69_3 1_555 1_555
H37_3 C70_3 1_555 1_555
C71_3 C70_3 1_555 1_555
H38_3 C71_3 1_555 1_555
C72_3 C71_3 1_555 1_555
H39_3 C72_3 1_555 1_555
C73_3 C68_3 1_555 1_555
H40_3 C73_3 1_555 1_555
C74_3 C66_3 1_555 1_555
H41_3 C74_3 1_555 1_555
C75_3 C74_3 1_555 1_555
H42_3 C75_3 1_555 1_555
C76_3 C75_3 1_555 1_555
H43_3 C76_3 1_555 1_555
C77_3 C65_3 1_555 1_555
H44_3 C77_3 1_555 1_555
C78_3 C67_3 1_555 1_555
C79_3 C78_3 1_555 1_555
H45_3 C79_3 1_555 1_555
C80_3 C79_3 1_555 1_555
H46_3 C80_3 1_555 1_555
C81_3 C80_3 1_555 1_555
C82_3 C81_3 1_555 1_555
H47_3 C82_3 1_555 1_555
C83_3 C78_3 1_555 1_555
H48_3 C83_3 1_555 1_555
C84_3 C81_3 1_555 1_555
O2_3 C12_3 1_555 1_555
O3_3 C12_3 1_555 1_555
O24 C53_3 1_555 1_555
O26 C53_3 1_555 1_555
O6_3 C84_3 1_555 1_555
O7_3 C84_3 1_555 1_555
O8_3 C11_3 1_555 1_555
O9_3 C11_3 1_555 1_555
O12_3 Tb10 1_555 1_555
Tb10 O3_3 1_555 1_555
O13_3 Tb4 1_555 1_555
O22_3 Tb4 1_555 1_555
O24_3 Tb4 1_555 1_555
Tb4_3 O7_3 1_555 1_555
Tb10_3 O6_3 1_555 1_555
C9_3 C10_3 1_555 1_555
C17_3 C18_3 1_555 1_555
C19_3 C24_3 1_555 1_555
C27_3 C28_3 1_555 1_555
C37_3 C38_3 1_555 1_555
C41 C42_3 1_555 1_555
C45_3 C46_3 1_555 1_555
C51_3 C52_3 1_555 1_555
C54_3 C55_3 1_555 1_555
C55_3 C56_3 1_555 1_555
C58_3 C59_3 1_555 1_555
C62_3 C63_3 1_555 1_555
C68_3 C69_3 1_555 1_555
C72_3 C73_3 1_555 1_555
C76_3 C77_3 1_555 1_555
C82_3 C83_3 1_555 1_555
O9_3 Tb10 1_555 1_555
O22_3 H99_3 1_555 1_555
O11_3 H108_3 1_555 1_555
O13_3 H109_3 1_555 1_555
O13_3 H110_3 1_555 1_555
O1_3 Tb4_2 1_555 1_555
O10_3 Tb4_2 1_555 1_555
O12_4 Tb10_2 1_555 1_555
C85_3 H49_3 1_555 1_555
C86_3 C85_3 1_555 1_555
H50_3 C86_3 1_555 1_555
C87_3 C86_3 1_555 1_555
H51_3 C87_3 1_555 1_555
C88_3 C87_3 1_555 1_555
H52_3 C88_3 1_555 1_555
C89_3 C90_3 1_555 1_555
C90_3 H53_3 1_555 1_555
C91_3 C90_3 1_555 1_555
H54_3 C91_3 1_555 1_555
C92_3 C91_3 1_555 1_555
C93_3 C92_3 1_555 1_555
H55_3 C93_3 1_555 1_555
C94_3 C89_3 1_555 1_555
H56_3 C94_3 1_555 1_555
C95_3 C92_3 1_555 1_555
C96_3 C97_3 1_555 1_555
C97_3 C98_3 1_555 1_555
C98_3 H57_3 1_555 1_555
C99_3 C98_3 1_555 1_555
H58_3 C99_3 1_555 1_555
C100_3 C99_3 1_555 1_555
C101_3 C100_3 1_555 1_555
H59_3 C101_3 1_555 1_555
C102_3 C97_3 1_555 1_555
H60_3 C102_3 1_555 1_555
C103_3 C104_3 1_555 1_555
C104_3 C105_3 1_555 1_555
C105_3 C106_3 1_555 1_555
C106_3 C107_3 1_555 1_555
C107_3 C108_3 1_555 1_555
C108_3 C100_3 1_555 1_555
C109_3 C103_3 1_555 1_555
H61_3 C109_3 1_555 1_555
C110_3 C109_3 1_555 1_555
H62_3 C110_3 1_555 1_555
C111_3 C110_3 1_555 1_555
H63_3 C111_3 1_555 1_555
C112_3 C104_3 1_555 1_555
H64_3 C112_3 1_555 1_555
C113_3 C106_3 1_555 1_555
H65_3 C113_3 1_555 1_555
C116_3 C107_3 1_555 1_555
H68_3 C116_3 1_555 1_555
C117_3 C105_3 1_555 1_555
C118_3 C117_3 1_555 1_555
C119_3 C118_3 1_555 1_555
C120_3 C119_3 1_555 1_555
C121_3 C120_3 1_555 1_555
C122_3 C117_3 1_555 1_555
C123_3 C122_3 1_555 1_555
H69_3 C123_3 1_555 1_555
C124_3 C123_3 1_555 1_555
H70 C124_3 1_555 1_555
C125 C124_3 1_555 1_555
H71 C125 1_555 1_555
C126_3 C121_3 1_555 1_555
H72_3 C126_3 1_555 1_555
C127_3 C118_3 1_555 1_555
H73_3 C127_3 1_555 1_555
C128_3 C127_3 1_555 1_555
H74_3 C128_3 1_555 1_555
C129_3 C128_3 1_555 1_555
H75_3 C129_3 1_555 1_555
C130_3 C119_3 1_555 1_555
H76_3 C130_3 1_555 1_555
C131_3 C120_3 1_555 1_555
C132_3 C131_3 1_555 1_555
H77_3 C132_3 1_555 1_555
C133_3 C132_3 1_555 1_555
H78_3 C133_3 1_555 1_555
C134_3 C133_3 1_555 1_555
C135_3 C134_3 1_555 1_555
H79_3 C135_3 1_555 1_555
C136_3 C131_3 1_555 1_555
H80_3 C136_3 1_555 1_555
C137_3 C134_3 1_555 1_555
C138_3 C89_3 1_555 1_555
C139_3 C88_3 1_555 1_555
C140_3 C85_3 1_555 1_555
C141_3 C140_3 1_555 1_555
C142_3 C141_3 1_555 1_555
C143_3 C138_3 1_555 1_555
C144_3 C143_3 1_555 1_555
H81_3 C144_3 1_555 1_555
C145_3 C144_3 1_555 1_555
H82_3 C145_3 1_555 1_555
C146_3 C145_3 1_555 1_555
H83_3 C146_3 1_555 1_555
C147_3 C142_3 1_555 1_555
H84_3 C147_3 1_555 1_555
C148_3 C141_3 1_555 1_555
C149_3 C148_3 1_555 1_555
C150_3 C149_3 1_555 1_555
C151_3 C150_3 1_555 1_555
C152_3 C151_3 1_555 1_555
C153_3 C148_3 1_555 1_555
C154_3 C153_3 1_555 1_555
H85_3 C154_3 1_555 1_555
C155_3 C154_3 1_555 1_555
H86_3 C155_3 1_555 1_555
C156_3 C155_3 1_555 1_555
H87_3 C156_3 1_555 1_555
C157_3 C152_3 1_555 1_555
H88_3 C157_3 1_555 1_555
C158_3 C150_3 1_555 1_555
H89_3 C158_3 1_555 1_555
C159_3 C158_3 1_555 1_555
H90_3 C159_3 1_555 1_555
C160_3 C159_3 1_555 1_555
H91_3 C160_3 1_555 1_555
C161_3 C149_3 1_555 1_555
H92_3 C161_3 1_555 1_555
C162_3 C151_3 1_555 1_555
C163_3 C162_3 1_555 1_555
H93_3 C163_3 1_555 1_555
C164_3 C163_3 1_555 1_555
H94_3 C164_3 1_555 1_555
C165_3 C164_3 1_555 1_555
C166_3 C165_3 1_555 1_555
H95_3 C166_3 1_555 1_555
C167_3 C162_3 1_555 1_555
H96_3 C167_3 1_555 1_555
C168_3 C165_3 1_555 1_555
O14_3 C96_3 1_555 1_555
O15_3 Tb10_2 1_555 1_555
O24_2 C137_3 1_555 1_555
O26_2 C137_3 1_555 1_555
O18_3 C168_3 1_555 1_555
O19_3 C168_3 1_555 1_555
O20_3 C95_3 1_555 1_555
O21_3 Tb10_2 1_555 1_555
O25_3 Tb4_2 1_555 1_555
Tb9_3 O19_3 1_555 1_555
Tb11_3 O18_3 1_555 1_555
C93_3 C94_3 1_555 1_555
C95_3 O21_3 1_555 1_555
C96_3 O15_3 1_555 1_555
C101_3 C102_3 1_555 1_555
C103_3 C108_3 1_555 1_555
C111_3 C112_3 1_555 1_555
C121_3 C122_3 1_555 1_555
C125 C126_3 1_555 1_555
C129_3 C130_3 1_555 1_555
C135_3 C136_3 1_555 1_555
C138_3 C139_3 1_555 1_555
C139_3 C140_3 1_555 1_555
C142_3 C143_3 1_555 1_555
C146_3 C147_3 1_555 1_555
C152_3 C153_3 1_555 1_555
C156_3 C157_3 1_555 1_555
C160_3 C161_3 1_555 1_555
C166_3 C167_3 1_555 1_555
O23_3 H98_3 1_555 1_555
O1_3 H101_3 1_555 1_555
O1_3 H102_3 1_555 1_555
O10_3 H103_3 1_555 1_555
O12_4 H105 1_555 1_555
O12_4 H106 1_555 1_555
O12_3 H105_2 1_555 1_555
O12_3 H106_2 1_555 1_555
C17_4 C16_4 1_555 1_555
H11_4 C17_4 1_555 1_555
H12_4 C18_4 1_555 1_555
C21_4 C22_4 1_555 1_555
C22_4 C23_4 1_555 1_555
C23_4 C24_4 1_555 1_555
C24_4 C16_4 1_555 1_555
C29_4 C22_4 1_555 1_555
H17_4 C29_4 1_555 1_555
C30_3 C29_4 1_555 1_555
H18_3 C30_3 1_555 1_555
C31_3 C30_3 1_555 1_555
H19_3 C31_3 1_555 1_555
C32_4 C23_4 1_555 1_555
H20_4 C32_4 1_555 1_555
C33_4 C21_4 1_555 1_555
C34_4 C33_4 1_555 1_555
C35_4 C34_4 1_555 1_555
C36_4 C35_4 1_555 1_555
C37_4 C36_4 1_555 1_555
C38_4 C33_4 1_555 1_555
C39_4 C38_4 1_555 1_555
H21_4 C39_4 1_555 1_555
C40_4 C39_4 1_555 1_555
H22_2 C40_4 1_555 1_555
C41_2 C40_4 1_555 1_555
H23_2 C41_2 1_555 1_555
C42_4 C37_4 1_555 1_555
H24_4 C42_4 1_555 1_555
C43_4 C34_4 1_555 1_555
H25_4 C43_4 1_555 1_555
C44_4 C43_4 1_555 1_555
H26_4 C44_4 1_555 1_555
C45_4 C44_4 1_555 1_555
H27_4 C45_4 1_555 1_555
C46_4 C35_4 1_555 1_555
H28_4 C46_4 1_555 1_555
C47_4 C36_4 1_555 1_555
C51_4 C50_4 1_555 1_555
H31_4 C51_4 1_555 1_555
C52_4 C47_4 1_555 1_555
H32_4 C52_4 1_555 1_555
H34_4 C61_4 1_555 1_555
C62_4 C61_4 1_555 1_555
H35_4 C62_4 1_555 1_555
O10_4 Tb1_3 1_555 1_555
O11_4 Tb1_3 1_555 1_555
Tb1_3 O2_4 1_555 1_555
O25_4 Tb1_3 1_555 1_555
O26_4 Tb1_3 1_555 1_555
O31_3 Tb1_3 1_555 1_555
C17_4 C18_4 1_555 1_555
C31_3 C32_4 1_555 1_555
C37_4 C38_4 1_555 1_555
C41_2 C42_4 1_555 1_555
C45_4 C46_4 1_555 1_555
C51_4 C52_4 1_555 1_555
O10_4 H103_4 1_555 1_555
O10_4 H104_4 1_555 1_555
O11_4 H107_4 1_555 1_555
O11_4 H108_4 1_555 1_555
H42_4 C75_4 1_555 1_555
C76_4 C75_4 1_555 1_555
H43_4 C76_4 1_555 1_555
H90_4 C159_4 1_555 1_555
C160_4 C159_4 1_555 1_555
H91_4 C160_4 1_555 1_555
C1_4 H1_4 1_555 1_555
C2_4 C1_4 1_555 1_555
H2_4 C2_4 1_555 1_555
C3_4 C2_4 1_555 1_555
H3_4 C3_4 1_555 1_555
C4_4 C3_4 1_555 1_555
H4_4 C4_4 1_555 1_555
C5_4 C6_4 1_555 1_555
C6_4 H5_4 1_555 1_555
C7_4 C6_4 1_555 1_555
H6_4 C7_4 1_555 1_555
C8_4 C7_4 1_555 1_555
C9_4 C8_4 1_555 1_555
H7_4 C9_4 1_555 1_555
C10_4 C5_4 1_555 1_555
H8_4 C10_4 1_555 1_555
C11_4 C8_4 1_555 1_555
C12_4 C13_4 1_555 1_555
C13_4 C14_4 1_555 1_555
C14_4 H9_4 1_555 1_555
C15_4 C14_4 1_555 1_555
H10_4 C15_4 1_555 1_555
C19_4 C20_4 1_555 1_555
C25_4 C19_4 1_555 1_555
H13_4 C25_4 1_555 1_555
C26_4 C25_4 1_555 1_555
H14_4 C26_4 1_555 1_555
C27_4 C26_4 1_555 1_555
H15_4 C27_4 1_555 1_555
C28_4 C20_4 1_555 1_555
H16_4 C28_4 1_555 1_555
H29_4 C48_4 1_555 1_555
C49_4 C48_4 1_555 1_555
H30_4 C49_4 1_555 1_555
C54_4 C5_4 1_555 1_555
C55_4 C4_4 1_555 1_555
C56_4 C1_4 1_555 1_555
C57_4 C56_4 1_555 1_555
C58_4 C57_4 1_555 1_555
C59_4 C54_4 1_555 1_555
C60_4 C59_4 1_555 1_555
H33_4 C60_4 1_555 1_555
C63_4 C58_4 1_555 1_555
H36_4 C63_4 1_555 1_555
C64_4 C57_4 1_555 1_555
C65_4 C64_4 1_555 1_555
C66_4 C65_4 1_555 1_555
C67_4 C66_4 1_555 1_555
C68_4 C67_4 1_555 1_555
C69_4 C64_4 1_555 1_555
C70_4 C69_4 1_555 1_555
H37_4 C70_4 1_555 1_555
C71_4 C70_4 1_555 1_555
H38_4 C71_4 1_555 1_555
C72_4 C71_4 1_555 1_555
H39_4 C72_4 1_555 1_555
C73_4 C68_4 1_555 1_555
H40_4 C73_4 1_555 1_555
C74_4 C66_4 1_555 1_555
H41_4 C74_4 1_555 1_555
C77_4 C65_4 1_555 1_555
H44_4 C77_4 1_555 1_555
C78_4 C67_4 1_555 1_555
C79_4 C78_4 1_555 1_555
H45_4 C79_4 1_555 1_555
C80_4 C79_4 1_555 1_555
H46_4 C80_4 1_555 1_555
C81_4 C80_4 1_555 1_555
C82_4 C81_4 1_555 1_555
H47_4 C82_4 1_555 1_555
C83_4 C78_4 1_555 1_555
H48_4 C83_4 1_555 1_555
C84_4 C81_4 1_555 1_555
O3_4 C12_4 1_555 1_555
O26_3 C53_4 1_555 1_555
O6_4 C84_4 1_555 1_555
O7_4 C84_4 1_555 1_555
O8_4 C11_4 1_555 1_555
O9_4 C11_4 1_555 1_555
O12_5 Tb10_3 1_555 1_555
Tb10_3 O3_4 1_555 1_555
C85_4 H49_4 1_555 1_555
C86_4 C85_4 1_555 1_555
C87_4 C86_4 1_555 1_555
H51_4 C87_4 1_555 1_555
C88_4 C87_4 1_555 1_555
H52_4 C88_4 1_555 1_555
C89_4 C90_4 1_555 1_555
C90_4 H53_4 1_555 1_555
C91_4 C90_4 1_555 1_555
H54_4 C91_4 1_555 1_555
C92_4 C91_4 1_555 1_555
C93_4 C92_4 1_555 1_555
H55_4 C93_4 1_555 1_555
C94_4 C89_4 1_555 1_555
H56_4 C94_4 1_555 1_555
C95_4 C92_4 1_555 1_555
C96_4 C97_4 1_555 1_555
O13_4 Tb4_3 1_555 1_555
C97_4 C98_4 1_555 1_555
C98_4 H57_4 1_555 1_555
C99_4 C98_4 1_555 1_555
H58_4 C99_4 1_555 1_555
C100_4 C99_4 1_555 1_555
C101_4 C100_4 1_555 1_555
H59_4 C101_4 1_555 1_555
C102_4 C97_4 1_555 1_555
H60_4 C102_4 1_555 1_555
C103_4 C104_4 1_555 1_555
C104_4 C105_4 1_555 1_555
C105_4 C106_4 1_555 1_555
C106_4 C107_4 1_555 1_555
C107_4 C108_4 1_555 1_555
C108_4 C100_4 1_555 1_555
C109_4 C103_4 1_555 1_555
H61_4 C109_4 1_555 1_555
C110_4 C109_4 1_555 1_555
H62_4 C110_4 1_555 1_555
C111_4 C110_4 1_555 1_555
H63_4 C111_4 1_555 1_555
C112_4 C104_4 1_555 1_555
H64_4 C112_4 1_555 1_555
C113_4 C106_4 1_555 1_555
H65_4 C113_4 1_555 1_555
C114_3 C113_4 1_555 1_555
H66_3 C114_3 1_555 1_555
C115_3 C114_3 1_555 1_555
H67_3 C115_3 1_555 1_555
C116_4 C107_4 1_555 1_555
H68_4 C116_4 1_555 1_555
C117_4 C105_4 1_555 1_555
C118_4 C117_4 1_555 1_555
C119_4 C118_4 1_555 1_555
C120_4 C119_4 1_555 1_555
C121_4 C120_4 1_555 1_555
C122_4 C117_4 1_555 1_555
C123_4 C122_4 1_555 1_555
H69_4 C123_4 1_555 1_555
C124_4 C123_4 1_555 1_555
H70_2 C124_4 1_555 1_555
C125_2 C124_4 1_555 1_555
H71_2 C125_2 1_555 1_555
C126_4 C121_4 1_555 1_555
H72_4 C126_4 1_555 1_555
C127_4 C118_4 1_555 1_555
H73_4 C127_4 1_555 1_555
C128_4 C127_4 1_555 1_555
H74_4 C128_4 1_555 1_555
C129_4 C128_4 1_555 1_555
H75_4 C129_4 1_555 1_555
C130_4 C119_4 1_555 1_555
H76_4 C130_4 1_555 1_555
C131_4 C120_4 1_555 1_555
C132_4 C131_4 1_555 1_555
H77_4 C132_4 1_555 1_555
C133_4 C132_4 1_555 1_555
H78_4 C133_4 1_555 1_555
C134_4 C133_4 1_555 1_555
C135_4 C134_4 1_555 1_555
H79_4 C135_4 1_555 1_555
C136_4 C131_4 1_555 1_555
H80_4 C136_4 1_555 1_555
C137_4 C134_4 1_555 1_555
C138_4 C89_4 1_555 1_555
C139_4 C88_4 1_555 1_555
C140_4 C85_4 1_555 1_555
C141_4 C140_4 1_555 1_555
C142_4 C141_4 1_555 1_555
C143_4 C138_4 1_555 1_555
C144_4 C143_4 1_555 1_555
H81_4 C144_4 1_555 1_555
C145_4 C144_4 1_555 1_555
H82_4 C145_4 1_555 1_555
C146_4 C145_4 1_555 1_555
H83_4 C146_4 1_555 1_555
C147_4 C142_4 1_555 1_555
H84_4 C147_4 1_555 1_555
C148_4 C141_4 1_555 1_555
C149_4 C148_4 1_555 1_555
C150_4 C149_4 1_555 1_555
C151_4 C150_4 1_555 1_555
C152_4 C151_4 1_555 1_555
C153_4 C148_4 1_555 1_555
C154_4 C153_4 1_555 1_555
H85_4 C154_4 1_555 1_555
C155_4 C154_4 1_555 1_555
H86_4 C155_4 1_555 1_555
C156_4 C155_4 1_555 1_555
H87_4 C156_4 1_555 1_555
C157_4 C152_4 1_555 1_555
H88_4 C157_4 1_555 1_555
C158_4 C150_4 1_555 1_555
H89_4 C158_4 1_555 1_555
C161_4 C149_4 1_555 1_555
H92_4 C161_4 1_555 1_555
C162_4 C151_4 1_555 1_555
C163_4 C162_4 1_555 1_555
H93_4 C163_4 1_555 1_555
C164_4 C163_4 1_555 1_555
H94_4 C164_4 1_555 1_555
C165_4 C164_4 1_555 1_555
C166_4 C165_4 1_555 1_555
H95_4 C166_4 1_555 1_555
C167_4 C162_4 1_555 1_555
H96_4 C167_4 1_555 1_555
C168_4 C165_4 1_555 1_555
O14_4 C96_4 1_555 1_555
O15_4 Tb10_3 1_555 1_555
O16_3 C137_4 1_555 1_555
O17_3 C137_4 1_555 1_555
O18_4 C168_4 1_555 1_555
O19_4 C168_4 1_555 1_555
O20_4 C95_4 1_555 1_555
O21_4 Tb10_3 1_555 1_555
O22_4 Tb4_3 1_555 1_555
O23_4 Tb4_3 1_555 1_555
Tb4_3 O14_4 1_555 1_555
O24_4 Tb4_3 1_555 1_555
O27_4 Tb4_3 1_555 1_555
O29_3 Tb10_3 1_555 1_555
Tb9 O16_3 1_555 1_555
Tb9_2 O17_3 1_555 1_555
Tb10_5 O6_4 1_555 1_555
Tb11_4 O18_4 1_555 1_555
C9_4 C10_4 1_555 1_555
C27_4 C28_4 1_555 1_555
C54_4 C55_4 1_555 1_555
C55_4 C56_4 1_555 1_555
C58_4 C59_4 1_555 1_555
C68_4 C69_4 1_555 1_555
C72_4 C73_4 1_555 1_555
C82_4 C83_4 1_555 1_555
O9_4 Tb10_3 1_555 1_555
C93_4 C94_4 1_555 1_555
C95_4 O21_4 1_555 1_555
C96_4 O15_4 1_555 1_555
C101_4 C102_4 1_555 1_555
C103_4 C108_4 1_555 1_555
C111_4 C112_4 1_555 1_555
C115_3 C116_4 1_555 1_555
C121_4 C122_4 1_555 1_555
C125_2 C126_4 1_555 1_555
C129_4 C130_4 1_555 1_555
C135_4 C136_4 1_555 1_555
C138_4 C139_4 1_555 1_555
C139_4 C140_4 1_555 1_555
C142_4 C143_4 1_555 1_555
C146_4 C147_4 1_555 1_555
C152_4 C153_4 1_555 1_555
C156_4 C157_4 1_555 1_555
C166_4 C167_4 1_555 1_555
O20_4 Tb4_3 1_555 1_555
O23_4 H97_4 1_555 1_555
O23_4 H98_4 1_555 1_555
O22_4 H99_4 1_555 1_555
O22_4 H100_4 1_555 1_555
O1_4 H101_4 1_555 1_555
O13_4 H109_4 1_555 1_555
O13_4 H110_4 1_555 1_555
H42_5 C75_5 1_555 1_555
C76_5 C75_5 1_555 1_555
H43_5 C76_5 1_555 1_555
H90_5 C159_5 1_555 1_555
C160_5 C159_5 1_555 1_555
H91_5 C160_5 1_555 1_555
C1_5 H1_5 1_555 1_555
C2_5 C1_5 1_555 1_555
H2_5 C2_5 1_555 1_555
C3_5 C2_5 1_555 1_555
H3_5 C3_5 1_555 1_555
C4_5 C3_5 1_555 1_555
H4_5 C4_5 1_555 1_555
C5_5 C6_5 1_555 1_555
C6_5 H5_5 1_555 1_555
C7_5 C6_5 1_555 1_555
H6_5 C7_5 1_555 1_555
C8_5 C7_5 1_555 1_555
C9_5 C8_5 1_555 1_555
H7_5 C9_5 1_555 1_555
C10_5 C5_5 1_555 1_555
H8_5 C10_5 1_555 1_555
C11_5 C8_5 1_555 1_555
C12_5 C13_5 1_555 1_555
C13_5 C14_5 1_555 1_555
C14_5 H9_5 1_555 1_555
C15_5 C14_5 1_555 1_555
H10_5 C15_5 1_555 1_555
C19_5 C20_5 1_555 1_555
C25_5 C19_5 1_555 1_555
H13_5 C25_5 1_555 1_555
C26_5 C25_5 1_555 1_555
H14_5 C26_5 1_555 1_555
C27_5 C26_5 1_555 1_555
H15_5 C27_5 1_555 1_555
C28_5 C20_5 1_555 1_555
H16_5 C28_5 1_555 1_555
H29_5 C48_5 1_555 1_555
C49_5 C48_5 1_555 1_555
H30_5 C49_5 1_555 1_555
C54_5 C5_5 1_555 1_555
C55_5 C4_5 1_555 1_555
C56_5 C1_5 1_555 1_555
C57_5 C56_5 1_555 1_555
C58_5 C57_5 1_555 1_555
C59_5 C54_5 1_555 1_555
C60_5 C59_5 1_555 1_555
H33_5 C60_5 1_555 1_555
C63_5 C58_5 1_555 1_555
H36_5 C63_5 1_555 1_555
C64_5 C57_5 1_555 1_555
C65_5 C64_5 1_555 1_555
C66_5 C65_5 1_555 1_555
C67_5 C66_5 1_555 1_555
C68_5 C67_5 1_555 1_555
C69_5 C64_5 1_555 1_555
C70_5 C69_5 1_555 1_555
H37_5 C70_5 1_555 1_555
C71_5 C70_5 1_555 1_555
H38_5 C71_5 1_555 1_555
C72_5 C71_5 1_555 1_555
H39_5 C72_5 1_555 1_555
C73_5 C68_5 1_555 1_555
H40_5 C73_5 1_555 1_555
C74_5 C66_5 1_555 1_555
H41_5 C74_5 1_555 1_555
C77_5 C65_5 1_555 1_555
H44_5 C77_5 1_555 1_555
C78_5 C67_5 1_555 1_555
C79_5 C78_5 1_555 1_555
H45_5 C79_5 1_555 1_555
C80_5 C79_5 1_555 1_555
H46_5 C80_5 1_555 1_555
C81_5 C80_5 1_555 1_555
C82_5 C81_5 1_555 1_555
H47_5 C82_5 1_555 1_555
C83_5 C78_5 1_555 1_555
H48_5 C83_5 1_555 1_555
C84_5 C81_5 1_555 1_555
O3_5 C12_5 1_555 1_555
O27_3 C53_5 1_555 1_555
O6_5 C84_5 1_555 1_555
O7_5 C84_5 1_555 1_555
O8_5 C11_5 1_555 1_555
O9_5 C11_5 1_555 1_555
O12_6 Tb11_3 1_555 1_555
Tb11_3 O3_5 1_555 1_555
C85_5 H49_5 1_555 1_555
C86_5 C85_5 1_555 1_555
C87_5 C86_5 1_555 1_555
H51_5 C87_5 1_555 1_555
C88_5 C87_5 1_555 1_555
H52_5 C88_5 1_555 1_555
C89_5 C90_5 1_555 1_555
C90_5 H53_5 1_555 1_555
C91_5 C90_5 1_555 1_555
H54_5 C91_5 1_555 1_555
C92_5 C91_5 1_555 1_555
C93_5 C92_5 1_555 1_555
H55_5 C93_5 1_555 1_555
C94_5 C89_5 1_555 1_555
H56_5 C94_5 1_555 1_555
C95_5 C92_5 1_555 1_555
C96_5 C97_5 1_555 1_555
O13_5 Tb9_3 1_555 1_555
C97_5 C98_5 1_555 1_555
C98_5 H57_5 1_555 1_555
C99_5 C98_5 1_555 1_555
H58_5 C99_5 1_555 1_555
C100_5 C99_5 1_555 1_555
C101_5 C100_5 1_555 1_555
H59_5 C101_5 1_555 1_555
C102_5 C97_5 1_555 1_555
H60_5 C102_5 1_555 1_555
C103_5 C104_5 1_555 1_555
C104_5 C105_5 1_555 1_555
C105_5 C106_5 1_555 1_555
C106_5 C107_5 1_555 1_555
C107_5 C108_5 1_555 1_555
C108_5 C100_5 1_555 1_555
C109_5 C103_5 1_555 1_555
H61_5 C109_5 1_555 1_555
C110_5 C109_5 1_555 1_555
H62_5 C110_5 1_555 1_555
C111_5 C110_5 1_555 1_555
H63_5 C111_5 1_555 1_555
C112_5 C104_5 1_555 1_555
H64_5 C112_5 1_555 1_555
C113_5 C106_5 1_555 1_555
H65_5 C113_5 1_555 1_555
C114_4 C113_5 1_555 1_555
H66_4 C114_4 1_555 1_555
C115_4 C114_4 1_555 1_555
H67_4 C115_4 1_555 1_555
C116_5 C107_5 1_555 1_555
H68_5 C116_5 1_555 1_555
C117_5 C105_5 1_555 1_555
C118_5 C117_5 1_555 1_555
C119_5 C118_5 1_555 1_555
C120_5 C119_5 1_555 1_555
C121_5 C120_5 1_555 1_555
C122_5 C117_5 1_555 1_555
C123_5 C122_5 1_555 1_555
H69_5 C123_5 1_555 1_555
C124_5 C123_5 1_555 1_555
H70_3 C124_5 1_555 1_555
C125_3 C124_5 1_555 1_555
H71_3 C125_3 1_555 1_555
C126_5 C121_5 1_555 1_555
H72_5 C126_5 1_555 1_555
C127_5 C118_5 1_555 1_555
H73_5 C127_5 1_555 1_555
C128_5 C127_5 1_555 1_555
H74_5 C128_5 1_555 1_555
C129_5 C128_5 1_555 1_555
H75_5 C129_5 1_555 1_555
C130_5 C119_5 1_555 1_555
H76_5 C130_5 1_555 1_555
C131_5 C120_5 1_555 1_555
C132_5 C131_5 1_555 1_555
H77_5 C132_5 1_555 1_555
C133_5 C132_5 1_555 1_555
H78_5 C133_5 1_555 1_555
C134_5 C133_5 1_555 1_555
C135_5 C134_5 1_555 1_555
H79_5 C135_5 1_555 1_555
C136_5 C131_5 1_555 1_555
H80_5 C136_5 1_555 1_555
C137_5 C134_5 1_555 1_555
C138_5 C89_5 1_555 1_555
C139_5 C88_5 1_555 1_555
C140_5 C85_5 1_555 1_555
C141_5 C140_5 1_555 1_555
C142_5 C141_5 1_555 1_555
C143_5 C138_5 1_555 1_555
C144_5 C143_5 1_555 1_555
H81_5 C144_5 1_555 1_555
C145_5 C144_5 1_555 1_555
H82_5 C145_5 1_555 1_555
C146_5 C145_5 1_555 1_555
H83_5 C146_5 1_555 1_555
C147_5 C142_5 1_555 1_555
H84_5 C147_5 1_555 1_555
C148_5 C141_5 1_555 1_555
C149_5 C148_5 1_555 1_555
C150_5 C149_5 1_555 1_555
C151_5 C150_5 1_555 1_555
C152_5 C151_5 1_555 1_555
C153_5 C148_5 1_555 1_555
C154_5 C153_5 1_555 1_555
H85_5 C154_5 1_555 1_555
C155_5 C154_5 1_555 1_555
H86_5 C155_5 1_555 1_555
C156_5 C155_5 1_555 1_555
H87_5 C156_5 1_555 1_555
C157_5 C152_5 1_555 1_555
H88_5 C157_5 1_555 1_555
C158_5 C150_5 1_555 1_555
H89_5 C158_5 1_555 1_555
C161_5 C149_5 1_555 1_555
H92_5 C161_5 1_555 1_555
C162_5 C151_5 1_555 1_555
C163_5 C162_5 1_555 1_555
H93_5 C163_5 1_555 1_555
C164_5 C163_5 1_555 1_555
H94_5 C164_5 1_555 1_555
C165_5 C164_5 1_555 1_555
C166_5 C165_5 1_555 1_555
H95_5 C166_5 1_555 1_555
C167_5 C162_5 1_555 1_555
H96_5 C167_5 1_555 1_555
C168_5 C165_5 1_555 1_555
O14_5 C96_5 1_555 1_555
O15_5 Tb11_3 1_555 1_555
O16_4 C137_5 1_555 1_555
O17_4 C137_5 1_555 1_555
O18_5 C168_5 1_555 1_555
O19_5 C168_5 1_555 1_555
O20_5 C95_5 1_555 1_555
O21_5 Tb11_3 1_555 1_555
O22_5 Tb9_3 1_555 1_555
O23_5 Tb9_3 1_555 1_555
Tb9_3 O14_5 1_555 1_555
O24_5 Tb9_3 1_555 1_555
O27_5 Tb9_3 1_555 1_555
O29_4 Tb11_3 1_555 1_555
Tb9_2 O16_4 1_555 1_555
Tb9 O17_4 1_555 1_555
Tb10_6 O6_5 1_555 1_555
Tb11_4 O18_5 1_555 1_555
C9_5 C10_5 1_555 1_555
C27_5 C28_5 1_555 1_555
C54_5 C55_5 1_555 1_555
C55_5 C56_5 1_555 1_555
C58_5 C59_5 1_555 1_555
C68_5 C69_5 1_555 1_555
C72_5 C73_5 1_555 1_555
C82_5 C83_5 1_555 1_555
O9_5 Tb11_3 1_555 1_555
C93_5 C94_5 1_555 1_555
C95_5 O21_5 1_555 1_555
C96_5 O15_5 1_555 1_555
C101_5 C102_5 1_555 1_555
C103_5 C108_5 1_555 1_555
C111_5 C112_5 1_555 1_555
C115_4 C116_5 1_555 1_555
C121_5 C122_5 1_555 1_555
C125_3 C126_5 1_555 1_555
C129_5 C130_5 1_555 1_555
C135_5 C136_5 1_555 1_555
C138_5 C139_5 1_555 1_555
C139_5 C140_5 1_555 1_555
C142_5 C143_5 1_555 1_555
C146_5 C147_5 1_555 1_555
C152_5 C153_5 1_555 1_555
C156_5 C157_5 1_555 1_555
C166_5 C167_5 1_555 1_555
O20_5 Tb9_3 1_555 1_555
O23_5 H97_5 1_555 1_555
O23_5 H98_5 1_555 1_555
O22_5 H99_5 1_555 1_555
O22_5 H100_5 1_555 1_555
O1_5 H101_5 1_555 1_555
O13_5 H109_5 1_555 1_555
O13_5 H110_5 1_555 1_555
C17_5 C16_5 1_555 1_555
H11_5 C17_5 1_555 1_555
H12_5 C18_5 1_555 1_555
C21_5 C22_5 1_555 1_555
C22_5 C23_5 1_555 1_555
C23_5 C24_5 1_555 1_555
C24_5 C16_5 1_555 1_555
C29_5 C22_5 1_555 1_555
H17_5 C29_5 1_555 1_555
C30_4 C29_5 1_555 1_555
H18_4 C30_4 1_555 1_555
C31_4 C30_4 1_555 1_555
H19_4 C31_4 1_555 1_555
C32_5 C23_5 1_555 1_555
H20_5 C32_5 1_555 1_555
C33_5 C21_5 1_555 1_555
C34_5 C33_5 1_555 1_555
C35_5 C34_5 1_555 1_555
C36_5 C35_5 1_555 1_555
C37_5 C36_5 1_555 1_555
C38_5 C33_5 1_555 1_555
C39_5 C38_5 1_555 1_555
H21_5 C39_5 1_555 1_555
C40_5 C39_5 1_555 1_555
H22_3 C40_5 1_555 1_555
C41_3 C40_5 1_555 1_555
H23_3 C41_3 1_555 1_555
C42_5 C37_5 1_555 1_555
H24_5 C42_5 1_555 1_555
C43_5 C34_5 1_555 1_555
H25_5 C43_5 1_555 1_555
C44_5 C43_5 1_555 1_555
H26_5 C44_5 1_555 1_555
C45_5 C44_5 1_555 1_555
H27_5 C45_5 1_555 1_555
C46_5 C35_5 1_555 1_555
H28_5 C46_5 1_555 1_555
C47_5 C36_5 1_555 1_555
C51_5 C50_5 1_555 1_555
H31_5 C51_5 1_555 1_555
C52_5 C47_5 1_555 1_555
H32_5 C52_5 1_555 1_555
H34_5 C61_5 1_555 1_555
C62_5 C61_5 1_555 1_555
H35_5 C62_5 1_555 1_555
O10_5 Tb1_4 1_555 1_555
O11_5 Tb1_4 1_555 1_555
Tb1_4 O2_5 1_555 1_555
O25_5 Tb1_4 1_555 1_555
O26_5 Tb1_4 1_555 1_555
O31_4 Tb1_4 1_555 1_555
C17_5 C18_5 1_555 1_555
C31_4 C32_5 1_555 1_555
C37_5 C38_5 1_555 1_555
C41_3 C42_5 1_555 1_555
C45_5 C46_5 1_555 1_555
C51_5 C52_5 1_555 1_555
O10_5 H103_5 1_555 1_555
O10_5 H104_5 1_555 1_555
O11_5 H107_5 1_555 1_555
O11_5 H108_5 1_555 1_555
C5_6 C6_6 1_555 1_555
C7_6 C6_6 1_555 1_555
H6_6 C7_6 1_555 1_555
C8_6 C7_6 1_555 1_555
C9_6 C8_6 1_555 1_555
H7_6 C9_6 1_555 1_555
C10_6 C5_6 1_555 1_555
H8_6 C10_6 1_555 1_555
C11_6 C8_6 1_555 1_555
H26_6 C44_6 1_555 1_555
C54_6 C5_6 1_555 1_555
C58_6 C57_6 1_555 1_555
C59_6 C54_6 1_555 1_555
C60_6 C59_6 1_555 1_555
H33_6 C60_6 1_555 1_555
C61_6 C60_6 1_555 1_555
H34_6 C61_6 1_555 1_555
C62_6 C61_6 1_555 1_555
H35_6 C62_6 1_555 1_555
C63_6 C58_6 1_555 1_555
H36_6 C63_6 1_555 1_555
C64_6 C57_6 1_555 1_555
C65_6 C64_6 1_555 1_555
C66_6 C65_6 1_555 1_555
C67_6 C66_6 1_555 1_555
C68_6 C67_6 1_555 1_555
C69_6 C64_6 1_555 1_555
C70_6 C69_6 1_555 1_555
H37_6 C70_6 1_555 1_555
C71_6 C70_6 1_555 1_555
C72_6 C71_6 1_555 1_555
C73_6 C68_6 1_555 1_555
H40_6 C73_6 1_555 1_555
C74_6 C66_6 1_555 1_555
H41_6 C74_6 1_555 1_555
C75_6 C74_6 1_555 1_555
H42_6 C75_6 1_555 1_555
C76_6 C75_6 1_555 1_555
H43_6 C76_6 1_555 1_555
C77_6 C65_6 1_555 1_555
H44_6 C77_6 1_555 1_555
C78_6 C67_6 1_555 1_555
C82_6 C81_6 1_555 1_555
H47_6 C82_6 1_555 1_555
C83_6 C78_6 1_555 1_555
H48_6 C83_6 1_555 1_555
C84_6 C81_6 1_555 1_555
O28 C84_6 1_555 1_555
O8_6 C11_6 1_555 1_555
O9_6 C11_6 1_555 1_555
C9_6 C10_6 1_555 1_555
C58_6 C59_6 1_555 1_555
C62_6 C63_6 1_555 1_555
C68_6 C69_6 1_555 1_555
C72_6 C73_6 1_555 1_555
C76_6 C77_6 1_555 1_555
C82_6 C83_6 1_555 1_555
O11_6 H108_6 1_555 1_555
C12_6 C13_6 1_555 1_555
C13_6 C14_6 1_555 1_555
C14_6 H9_6 1_555 1_555
C15_6 C14_6 1_555 1_555
H10_6 C15_6 1_555 1_555
C16_6 C15_6 1_555 1_555
C17_6 C16_6 1_555 1_555
H11_6 C17_6 1_555 1_555
C18_6 C13_6 1_555 1_555
H12_6 C18_6 1_555 1_555
C19_6 C20_6 1_555 1_555
C20_6 C21_6 1_555 1_555
C21_6 C22_6 1_555 1_555
C22_6 C23_6 1_555 1_555
C23_6 C24_6 1_555 1_555
C24_6 C16_6 1_555 1_555
C25_6 C19_6 1_555 1_555
H13_6 C25_6 1_555 1_555
C26_6 C25_6 1_555 1_555
C27_6 C26_6 1_555 1_555
C28_6 C20_6 1_555 1_555
H16_6 C28_6 1_555 1_555
C29_6 C22_6 1_555 1_555
H17_6 C29_6 1_555 1_555
C30_5 C29_6 1_555 1_555
H18_5 C30_5 1_555 1_555
C31_5 C30_5 1_555 1_555
H19_5 C31_5 1_555 1_555
C32_6 C23_6 1_555 1_555
H20_6 C32_6 1_555 1_555
C33_6 C21_6 1_555 1_555
C34_6 C33_6 1_555 1_555
C35_6 C34_6 1_555 1_555
C36_6 C35_6 1_555 1_555
C37_6 C36_6 1_555 1_555
C38_6 C33_6 1_555 1_555
C39_6 C38_6 1_555 1_555
H21_6 C39_6 1_555 1_555
C40_6 C39_6 1_555 1_555
H22_4 C40_6 1_555 1_555
C41_4 C40_6 1_555 1_555
H23_4 C41_4 1_555 1_555
C42_6 C37_6 1_555 1_555
H24_6 C42_6 1_555 1_555
C43_6 C34_6 1_555 1_555
H25_6 C43_6 1_555 1_555
C46_6 C35_6 1_555 1_555
H28_6 C46_6 1_555 1_555
C47_6 C36_6 1_555 1_555
C48_6 C47_6 1_555 1_555
H29_6 C48_6 1_555 1_555
C49_6 C48_6 1_555 1_555
H30_6 C49_6 1_555 1_555
C50_6 C49_6 1_555 1_555
C51_6 C50_6 1_555 1_555
H31_6 C51_6 1_555 1_555
C52_6 C47_6 1_555 1_555
H32_6 C52_6 1_555 1_555
C53_6 C50_6 1_555 1_555
O2_6 C12_6 1_555 1_555
O3_6 C12_6 1_555 1_555
O24_4 C53_6 1_555 1_555
O26_4 C53_6 1_555 1_555
O12_7 Tb10_4 1_555 1_555
Tb10_4 O3_6 1_555 1_555
C17_6 C18_6 1_555 1_555
C19_6 C24_6 1_555 1_555
C27_6 C28_6 1_555 1_555
C31_5 C32_6 1_555 1_555
C37_6 C38_6 1_555 1_555
C41_4 C42_6 1_555 1_555
C45_6 C46_6 1_555 1_555
C51_6 C52_6 1_555 1_555
C1_6 H1_6 1_555 1_555
C2_6 C1_6 1_555 1_555
H2_6 C2_6 1_555 1_555
C3_6 C2_6 1_555 1_555
H3_6 C3_6 1_555 1_555
C4_6 C3_6 1_555 1_555
H4_6 C4_6 1_555 1_555
C55_6 C4_6 1_555 1_555
C56_6 C1_6 1_555 1_555
H45_6 C79_6 1_555 1_555
C80_6 C79_6 1_555 1_555
H46_6 C80_6 1_555 1_555
O13_6 Tb6 1_555 1_555
C55_6 C56_6 1_555 1_555
O13_6 H109_6 1_555 1_555
O13_6 H110_6 1_555 1_555
O12_8 Tb10_5 1_555 1_555
O22_6 H99_6 1_555 1_555
O1_6 Tb5 1_555 1_555
C85_6 H49_6 1_555 1_555
C86_6 C85_6 1_555 1_555
H50_6 C86_6 1_555 1_555
C87_6 C86_6 1_555 1_555
H51_6 C87_6 1_555 1_555
C88_6 C87_6 1_555 1_555
H52_6 C88_6 1_555 1_555
C139_6 C88_6 1_555 1_555
C140_6 C85_6 1_555 1_555
H93_6 C163_6 1_555 1_555
C164_6 C163_6 1_555 1_555
H94_6 C164_6 1_555 1_555
C139_6 C140_6 1_555 1_555
O1_6 H101_6 1_555 1_555
O1_6 H102_6 1_555 1_555
O12_9 Tb10_6 1_555 1_555
O10_6 H103_6 1_555 1_555
O12_9 H105_3 1_555 1_555
C89_6 C90_6 1_555 1_555
C91_6 C90_6 1_555 1_555
H54_6 C91_6 1_555 1_555
C92_6 C91_6 1_555 1_555
C93_6 C92_6 1_555 1_555
H55_6 C93_6 1_555 1_555
C94_6 C89_6 1_555 1_555
H56_6 C94_6 1_555 1_555
C95_6 C92_6 1_555 1_555
H74_6 C128_6 1_555 1_555
C138_6 C89_6 1_555 1_555
C142_6 C141_6 1_555 1_555
C143_6 C138_6 1_555 1_555
C144_6 C143_6 1_555 1_555
H81_6 C144_6 1_555 1_555
C145_6 C144_6 1_555 1_555
H82_6 C145_6 1_555 1_555
C146_6 C145_6 1_555 1_555
H83_6 C146_6 1_555 1_555
C147_6 C142_6 1_555 1_555
H84_6 C147_6 1_555 1_555
C148_6 C141_6 1_555 1_555
C149_6 C148_6 1_555 1_555
C150_6 C149_6 1_555 1_555
C151_6 C150_6 1_555 1_555
C152_6 C151_6 1_555 1_555
C153_6 C148_6 1_555 1_555
C154_6 C153_6 1_555 1_555
H85_6 C154_6 1_555 1_555
C155_6 C154_6 1_555 1_555
C156_6 C155_6 1_555 1_555
C157_6 C152_6 1_555 1_555
H88_6 C157_6 1_555 1_555
C158_6 C150_6 1_555 1_555
H89_6 C158_6 1_555 1_555
C159_6 C158_6 1_555 1_555
H90_6 C159_6 1_555 1_555
C160_6 C159_6 1_555 1_555
H91_6 C160_6 1_555 1_555
C161_6 C149_6 1_555 1_555
H92_6 C161_6 1_555 1_555
C162_6 C151_6 1_555 1_555
C166_6 C165_6 1_555 1_555
H95_6 C166_6 1_555 1_555
C167_6 C162_6 1_555 1_555
H96_6 C167_6 1_555 1_555
C168_6 C165_6 1_555 1_555
O28_2 C168_6 1_555 1_555
O20_6 C95_6 1_555 1_555
C93_6 C94_6 1_555 1_555
C95_6 O21_6 1_555 1_555
C142_6 C143_6 1_555 1_555
C146_6 C147_6 1_555 1_555
C152_6 C153_6 1_555 1_555
C156_6 C157_6 1_555 1_555
C160_6 C161_6 1_555 1_555
C166_6 C167_6 1_555 1_555
O23_6 H98_6 1_555 1_555
O12_10 Tb10_7 1_555 1_555
C96_6 C97_6 1_555 1_555
C97_6 C98_6 1_555 1_555
C98_6 H57_6 1_555 1_555
C99_6 C98_6 1_555 1_555
H58_6 C99_6 1_555 1_555
C100_6 C99_6 1_555 1_555
C101_6 C100_6 1_555 1_555
H59_6 C101_6 1_555 1_555
C102_6 C97_6 1_555 1_555
H60_6 C102_6 1_555 1_555
C103_6 C104_6 1_555 1_555
C104_6 C105_6 1_555 1_555
C105_6 C106_6 1_555 1_555
C106_6 C107_6 1_555 1_555
C107_6 C108_6 1_555 1_555
C108_6 C100_6 1_555 1_555
C109_6 C103_6 1_555 1_555
H61_6 C109_6 1_555 1_555
C110_6 C109_6 1_555 1_555
C111_6 C110_6 1_555 1_555
C112_6 C104_6 1_555 1_555
H64_6 C112_6 1_555 1_555
C113_6 C106_6 1_555 1_555
H65_6 C113_6 1_555 1_555
C114_5 C113_6 1_555 1_555
H66_5 C114_5 1_555 1_555
C115_5 C114_5 1_555 1_555
H67_5 C115_5 1_555 1_555
C116_6 C107_6 1_555 1_555
H68_6 C116_6 1_555 1_555
C117_6 C105_6 1_555 1_555
C118_6 C117_6 1_555 1_555
C119_6 C118_6 1_555 1_555
C120_6 C119_6 1_555 1_555
C121_6 C120_6 1_555 1_555
C122_6 C117_6 1_555 1_555
C123_6 C122_6 1_555 1_555
H69_6 C123_6 1_555 1_555
C124_6 C123_6 1_555 1_555
H70_4 C124_6 1_555 1_555
C125_4 C124_6 1_555 1_555
H71_4 C125_4 1_555 1_555
C126_6 C121_6 1_555 1_555
H72_6 C126_6 1_555 1_555
C127_6 C118_6 1_555 1_555
H73_6 C127_6 1_555 1_555
C130_6 C119_6 1_555 1_555
H76_6 C130_6 1_555 1_555
C131_6 C120_6 1_555 1_555
C132_6 C131_6 1_555 1_555
H77_6 C132_6 1_555 1_555
C133_6 C132_6 1_555 1_555
H78_6 C133_6 1_555 1_555
C134_6 C133_6 1_555 1_555
C135_6 C134_6 1_555 1_555
H79_6 C135_6 1_555 1_555
C136_6 C131_6 1_555 1_555
H80_6 C136_6 1_555 1_555
C137_6 C134_6 1_555 1_555
O14_6 C96_6 1_555 1_555
O15_6 Tb10_7 1_555 1_555
O24_5 C137_6 1_555 1_555
O26_5 C137_6 1_555 1_555
C96_6 O15_6 1_555 1_555
C101_6 C102_6 1_555 1_555
C103_6 C108_6 1_555 1_555
C111_6 C112_6 1_555 1_555
C115_5 C116_6 1_555 1_555
C121_6 C122_6 1_555 1_555
C125_4 C126_6 1_555 1_555
C129_6 C130_6 1_555 1_555
C135_6 C136_6 1_555 1_555
O12_10 H106_3 1_555 1_555
O12_7 H106_4 1_555 1_555
O12_8 H105_4 1_555 1_555
C1_7 H1_7 1_555 1_555
C2_7 C1_7 1_555 1_555
H2_7 C2_7 1_555 1_555
C3_7 C2_7 1_555 1_555
H3_7 C3_7 1_555 1_555
C4_7 C3_7 1_555 1_555
H4_7 C4_7 1_555 1_555
C5_7 C6_7 1_555 1_555
C6_7 H5_7 1_555 1_555
C7_7 C6_7 1_555 1_555
H6_7 C7_7 1_555 1_555
C8_7 C7_7 1_555 1_555
C9_7 C8_7 1_555 1_555
H7_7 C9_7 1_555 1_555
C10_7 C5_7 1_555 1_555
H8_7 C10_7 1_555 1_555
C11_7 C8_7 1_555 1_555
O1_7 Tb7 1_555 1_555
H26_7 C44_7 1_555 1_555
C54_7 C5_7 1_555 1_555
C55_7 C4_7 1_555 1_555
C56_7 C1_7 1_555 1_555
C57_7 C56_7 1_555 1_555
C58_7 C57_7 1_555 1_555
C59_7 C54_7 1_555 1_555
C60_7 C59_7 1_555 1_555
H33_7 C60_7 1_555 1_555
C61_7 C60_7 1_555 1_555
H34_7 C61_7 1_555 1_555
C62_7 C61_7 1_555 1_555
H35_7 C62_7 1_555 1_555
C63_7 C58_7 1_555 1_555
H36_7 C63_7 1_555 1_555
C64_7 C57_7 1_555 1_555
C65_7 C64_7 1_555 1_555
C66_7 C65_7 1_555 1_555
C67_7 C66_7 1_555 1_555
C68_7 C67_7 1_555 1_555
C69_7 C64_7 1_555 1_555
C70_7 C69_7 1_555 1_555
H37_7 C70_7 1_555 1_555
C71_7 C70_7 1_555 1_555
C72_7 C71_7 1_555 1_555
C73_7 C68_7 1_555 1_555
H40_7 C73_7 1_555 1_555
C74_7 C66_7 1_555 1_555
H41_7 C74_7 1_555 1_555
C75_7 C74_7 1_555 1_555
H42_7 C75_7 1_555 1_555
C76_7 C75_7 1_555 1_555
H43_7 C76_7 1_555 1_555
C77_7 C65_7 1_555 1_555
H44_7 C77_7 1_555 1_555
C78_7 C67_7 1_555 1_555
C79_7 C78_7 1_555 1_555
H45_7 C79_7 1_555 1_555
C80_7 C79_7 1_555 1_555
H46_7 C80_7 1_555 1_555
C81_7 C80_7 1_555 1_555
C82_7 C81_7 1_555 1_555
H47_7 C82_7 1_555 1_555
C83_7 C78_7 1_555 1_555
H48_7 C83_7 1_555 1_555
C84_7 C81_7 1_555 1_555
O29_2 C84_7 1_555 1_555
O31_2 C84_7 1_555 1_555
O8_7 C11_7 1_555 1_555
O9_7 C11_7 1_555 1_555
O11_7 Tb7 1_555 1_555
C85_7 H49_7 1_555 1_555
C86_7 C85_7 1_555 1_555
H50_7 C86_7 1_555 1_555
C87_7 C86_7 1_555 1_555
H51_7 C87_7 1_555 1_555
C88_7 C87_7 1_555 1_555
H52_7 C88_7 1_555 1_555
C89_7 C90_7 1_555 1_555
C90_7 H53_7 1_555 1_555
C91_7 C90_7 1_555 1_555
H54_7 C91_7 1_555 1_555
C92_7 C91_7 1_555 1_555
C93_7 C92_7 1_555 1_555
H55_7 C93_7 1_555 1_555
C94_7 C89_7 1_555 1_555
H56_7 C94_7 1_555 1_555
C95_7 C92_7 1_555 1_555
O13_7 Tb8 1_555 1_555
H74_7 C128_7 1_555 1_555
C138_7 C89_7 1_555 1_555
C139_7 C88_7 1_555 1_555
C140_7 C85_7 1_555 1_555
C141_7 C140_7 1_555 1_555
C142_7 C141_7 1_555 1_555
C143_7 C138_7 1_555 1_555
C144_7 C143_7 1_555 1_555
H81_7 C144_7 1_555 1_555
C145_7 C144_7 1_555 1_555
H82_7 C145_7 1_555 1_555
C146_7 C145_7 1_555 1_555
H83_7 C146_7 1_555 1_555
C147_7 C142_7 1_555 1_555
H84_7 C147_7 1_555 1_555
C148_7 C141_7 1_555 1_555
C149_7 C148_7 1_555 1_555
C150_7 C149_7 1_555 1_555
C151_7 C150_7 1_555 1_555
C152_7 C151_7 1_555 1_555
C153_7 C148_7 1_555 1_555
C154_7 C153_7 1_555 1_555
H85_7 C154_7 1_555 1_555
C155_7 C154_7 1_555 1_555
C156_7 C155_7 1_555 1_555
C157_7 C152_7 1_555 1_555
H88_7 C157_7 1_555 1_555
C158_7 C150_7 1_555 1_555
H89_7 C158_7 1_555 1_555
C159_7 C158_7 1_555 1_555
H90_7 C159_7 1_555 1_555
C160_7 C159_7 1_555 1_555
H91_7 C160_7 1_555 1_555
C161_7 C149_7 1_555 1_555
H92_7 C161_7 1_555 1_555
C162_7 C151_7 1_555 1_555
C163_7 C162_7 1_555 1_555
H93_7 C163_7 1_555 1_555
C164_7 C163_7 1_555 1_555
H94_7 C164_7 1_555 1_555
C165_7 C164_7 1_555 1_555
C166_7 C165_7 1_555 1_555
H95_7 C166_7 1_555 1_555
C167_7 C162_7 1_555 1_555
H96_7 C167_7 1_555 1_555
C168_7 C165_7 1_555 1_555
O29 C168_7 1_555 1_555
O31 C168_7 1_555 1_555
O20_7 C95_7 1_555 1_555
O23_7 Tb8 1_555 1_555
C9_7 C10_7 1_555 1_555
C54_7 C55_7 1_555 1_555
C55_7 C56_7 1_555 1_555
C58_7 C59_7 1_555 1_555
C62_7 C63_7 1_555 1_555
C68_7 C69_7 1_555 1_555
C72_7 C73_7 1_555 1_555
C76_7 C77_7 1_555 1_555
C82_7 C83_7 1_555 1_555
O8_7 Tb7 1_555 1_555
C93_7 C94_7 1_555 1_555
C95_7 O21_7 1_555 1_555
C138_7 C139_7 1_555 1_555
C139_7 C140_7 1_555 1_555
C142_7 C143_7 1_555 1_555
C146_7 C147_7 1_555 1_555
C152_7 C153_7 1_555 1_555
C156_7 C157_7 1_555 1_555
C160_7 C161_7 1_555 1_555
C166_7 C167_7 1_555 1_555
O20_7 Tb8 1_555 1_555
O23_7 H97_7 1_555 1_555
O23_7 H98_7 1_555 1_555
O1_7 H101_7 1_555 1_555
O1_7 H102_7 1_555 1_555
O11_7 H107_7 1_555 1_555
O11_7 H108_7 1_555 1_555
O13_7 H109_7 1_555 1_555
O13_7 H110_7 1_555 1_555
C12_7 C13_7 1_555 1_555
C13_7 C14_7 1_555 1_555
C14_7 H9_7 1_555 1_555
C15_7 C14_7 1_555 1_555
H10_7 C15_7 1_555 1_555
C16_7 C15_7 1_555 1_555
C17_7 C16_7 1_555 1_555
H11_7 C17_7 1_555 1_555
C18_7 C13_7 1_555 1_555
H12_7 C18_7 1_555 1_555
C19_7 C20_7 1_555 1_555
C20_7 C21_7 1_555 1_555
C21_7 C22_7 1_555 1_555
C22_7 C23_7 1_555 1_555
C23_7 C24_7 1_555 1_555
C24_7 C16_7 1_555 1_555
C25_7 C19_7 1_555 1_555
H13_7 C25_7 1_555 1_555
C26_7 C25_7 1_555 1_555
H14_7 C26_7 1_555 1_555
C27_7 C26_7 1_555 1_555
H15_7 C27_7 1_555 1_555
C28_7 C20_7 1_555 1_555
H16_7 C28_7 1_555 1_555
C29_7 C22_7 1_555 1_555
H17_7 C29_7 1_555 1_555
C32_7 C23_7 1_555 1_555
H20_7 C32_7 1_555 1_555
C33_7 C21_7 1_555 1_555
C34_7 C33_7 1_555 1_555
C35_7 C34_7 1_555 1_555
C36_7 C35_7 1_555 1_555
C37_7 C36_7 1_555 1_555
C38_7 C33_7 1_555 1_555
C39_7 C38_7 1_555 1_555
H21_7 C39_7 1_555 1_555
C40_7 C39_7 1_555 1_555
H22_5 C40_7 1_555 1_555
C41_5 C40_7 1_555 1_555
H23_5 C41_5 1_555 1_555
C42_7 C37_7 1_555 1_555
H24_7 C42_7 1_555 1_555
C43_7 C34_7 1_555 1_555
H25_7 C43_7 1_555 1_555
C46_7 C35_7 1_555 1_555
H28_7 C46_7 1_555 1_555
C47_7 C36_7 1_555 1_555
C48_7 C47_7 1_555 1_555
H29_7 C48_7 1_555 1_555
C49_7 C48_7 1_555 1_555
H30_7 C49_7 1_555 1_555
C50_7 C49_7 1_555 1_555
C51_7 C50_7 1_555 1_555
H31_7 C51_7 1_555 1_555
C52_7 C47_7 1_555 1_555
H32_7 C52_7 1_555 1_555
C53_7 C50_7 1_555 1_555
O2_7 C12_7 1_555 1_555
O3_7 C12_7 1_555 1_555
O25_5 C53_7 1_555 1_555
O27_5 C53_7 1_555 1_555
O12_11 Tb11_4 1_555 1_555
Tb11_4 O3_7 1_555 1_555
C96_7 C97_7 1_555 1_555
C97_7 C98_7 1_555 1_555
C98_7 H57_7 1_555 1_555
C99_7 C98_7 1_555 1_555
H58_7 C99_7 1_555 1_555
C100_7 C99_7 1_555 1_555
C101_7 C100_7 1_555 1_555
H59_7 C101_7 1_555 1_555
C102_7 C97_7 1_555 1_555
H60_7 C102_7 1_555 1_555
C103_7 C104_7 1_555 1_555
C104_7 C105_7 1_555 1_555
C105_7 C106_7 1_555 1_555
C106_7 C107_7 1_555 1_555
C107_7 C108_7 1_555 1_555
C108_7 C100_7 1_555 1_555
C109_7 C103_7 1_555 1_555
H61_7 C109_7 1_555 1_555
C110_7 C109_7 1_555 1_555
H62_7 C110_7 1_555 1_555
C111_7 C110_7 1_555 1_555
H63_7 C111_7 1_555 1_555
C112_7 C104_7 1_555 1_555
H64_7 C112_7 1_555 1_555
C113_7 C106_7 1_555 1_555
H65_7 C113_7 1_555 1_555
C116_7 C107_7 1_555 1_555
H68_7 C116_7 1_555 1_555
C117_7 C105_7 1_555 1_555
C118_7 C117_7 1_555 1_555
C119_7 C118_7 1_555 1_555
C120_7 C119_7 1_555 1_555
C121_7 C120_7 1_555 1_555
C122_7 C117_7 1_555 1_555
C123_7 C122_7 1_555 1_555
H69_7 C123_7 1_555 1_555
C124_7 C123_7 1_555 1_555
H70_5 C124_7 1_555 1_555
C125_5 C124_7 1_555 1_555
H71_5 C125_5 1_555 1_555
C126_7 C121_7 1_555 1_555
H72_7 C126_7 1_555 1_555
C127_7 C118_7 1_555 1_555
H73_7 C127_7 1_555 1_555
C130_7 C119_7 1_555 1_555
H76_7 C130_7 1_555 1_555
C131_7 C120_7 1_555 1_555
C132_7 C131_7 1_555 1_555
H77_7 C132_7 1_555 1_555
C133_7 C132_7 1_555 1_555
H78_7 C133_7 1_555 1_555
C134_7 C133_7 1_555 1_555
C135_7 C134_7 1_555 1_555
H79_7 C135_7 1_555 1_555
C136_7 C131_7 1_555 1_555
H80_7 C136_7 1_555 1_555
C137_7 C134_7 1_555 1_555
O14_7 C96_7 1_555 1_555
O15_7 Tb11_4 1_555 1_555
O25_4 C137_7 1_555 1_555
O27_4 C137_7 1_555 1_555
C17_7 C18_7 1_555 1_555
C19_7 C24_7 1_555 1_555
C27_7 C28_7 1_555 1_555
C37_7 C38_7 1_555 1_555
C41_5 C42_7 1_555 1_555
C45_7 C46_7 1_555 1_555
C51_7 C52_7 1_555 1_555
C96_7 O15_7 1_555 1_555
C101_7 C102_7 1_555 1_555
C103_7 C108_7 1_555 1_555
C111_7 C112_7 1_555 1_555
C121_7 C122_7 1_555 1_555
C125_5 C126_7 1_555 1_555
C129_7 C130_7 1_555 1_555
C135_7 C136_7 1_555 1_555
O22_7 H99_7 1_555 1_555
O22_7 H100_7 1_555 1_555
O10_7 H103_7 1_555 1_555
O10_7 H104_7 1_555 1_555
C5_8 C6_8 1_555 1_555
C7_8 C6_8 1_555 1_555
H6_8 C7_8 1_555 1_555
C8_8 C7_8 1_555 1_555
C9_8 C8_8 1_555 1_555
H7_8 C9_8 1_555 1_555
C10_8 C5_8 1_555 1_555
H8_8 C10_8 1_555 1_555
C11_8 C8_8 1_555 1_555
C12_8 C13_8 1_555 1_555
O1_8 Tb9 1_555 1_555
C13_8 C14_8 1_555 1_555
C14_8 H9_8 1_555 1_555
C15_8 C14_8 1_555 1_555
H10_8 C15_8 1_555 1_555
C16_8 C15_8 1_555 1_555
C17_8 C16_8 1_555 1_555
H11_8 C17_8 1_555 1_555
C18_8 C13_8 1_555 1_555
H12_8 C18_8 1_555 1_555
C19_8 C20_8 1_555 1_555
C20_8 C21_8 1_555 1_555
C21_8 C22_8 1_555 1_555
C22_8 C23_8 1_555 1_555
C23_8 C24_8 1_555 1_555
C24_8 C16_8 1_555 1_555
C25_8 C19_8 1_555 1_555
H13_8 C25_8 1_555 1_555
C26_8 C25_8 1_555 1_555
C27_8 C26_8 1_555 1_555
C28_8 C20_8 1_555 1_555
H16_8 C28_8 1_555 1_555
C29_8 C22_8 1_555 1_555
H17_8 C29_8 1_555 1_555
C30_6 C29_8 1_555 1_555
H18_6 C30_6 1_555 1_555
C31_6 C30_6 1_555 1_555
H19_6 C31_6 1_555 1_555
C32_8 C23_8 1_555 1_555
H20_8 C32_8 1_555 1_555
C33_8 C21_8 1_555 1_555
C34_8 C33_8 1_555 1_555
C35_8 C34_8 1_555 1_555
C36_8 C35_8 1_555 1_555
C37_8 C36_8 1_555 1_555
C38_8 C33_8 1_555 1_555
C39_8 C38_8 1_555 1_555
H21_8 C39_8 1_555 1_555
C40_8 C39_8 1_555 1_555
H22_6 C40_8 1_555 1_555
C41_6 C40_8 1_555 1_555
H23_6 C41_6 1_555 1_555
C42_8 C37_8 1_555 1_555
H24_8 C42_8 1_555 1_555
C43_8 C34_8 1_555 1_555
H25_8 C43_8 1_555 1_555
C44_8 C43_8 1_555 1_555
H26_8 C44_8 1_555 1_555
C45_8 C44_8 1_555 1_555
H27_8 C45_8 1_555 1_555
C46_8 C35_8 1_555 1_555
H28_8 C46_8 1_555 1_555
C47_8 C36_8 1_555 1_555
C48_8 C47_8 1_555 1_555
H29_8 C48_8 1_555 1_555
C49_8 C48_8 1_555 1_555
H30_8 C49_8 1_555 1_555
C50_8 C49_8 1_555 1_555
C51_8 C50_8 1_555 1_555
H31_8 C51_8 1_555 1_555
C52_8 C47_8 1_555 1_555
H32_8 C52_8 1_555 1_555
C53_8 C50_8 1_555 1_555
C54_8 C5_8 1_555 1_555
C58_8 C57_8 1_555 1_555
C59_8 C54_8 1_555 1_555
C60_8 C59_8 1_555 1_555
H33_8 C60_8 1_555 1_555
C61_8 C60_8 1_555 1_555
H34_8 C61_8 1_555 1_555
C62_8 C61_8 1_555 1_555
H35_8 C62_8 1_555 1_555
C63_8 C58_8 1_555 1_555
H36_8 C63_8 1_555 1_555
C64_8 C57_8 1_555 1_555
C65_8 C64_8 1_555 1_555
C66_8 C65_8 1_555 1_555
C67_8 C66_8 1_555 1_555
C68_8 C67_8 1_555 1_555
C69_8 C64_8 1_555 1_555
C70_8 C69_8 1_555 1_555
H37_8 C70_8 1_555 1_555
C71_8 C70_8 1_555 1_555
H38_8 C71_8 1_555 1_555
C72_8 C71_8 1_555 1_555
H39_8 C72_8 1_555 1_555
C73_8 C68_8 1_555 1_555
H40_8 C73_8 1_555 1_555
C74_8 C66_8 1_555 1_555
H41_8 C74_8 1_555 1_555
C75_8 C74_8 1_555 1_555
H42_8 C75_8 1_555 1_555
C76_8 C75_8 1_555 1_555
H43_8 C76_8 1_555 1_555
C77_8 C65_8 1_555 1_555
H44_8 C77_8 1_555 1_555
C78_8 C67_8 1_555 1_555
C82_8 C81_8 1_555 1_555
H47_8 C82_8 1_555 1_555
C83_8 C78_8 1_555 1_555
H48_8 C83_8 1_555 1_555
C84_8 C81_8 1_555 1_555
O2_8 C12_8 1_555 1_555
O3_8 C12_8 1_555 1_555
O25_2 C53_8 1_555 1_555
O27_2 C53_8 1_555 1_555
O29_4 C84_8 1_555 1_555
O8_8 C11_8 1_555 1_555
O9_8 C11_8 1_555 1_555
O10_8 Tb9 1_555 1_555
O11_8 Tb9 1_555 1_555
O12_12 Tb11 1_555 1_555
Tb9 O2_8 1_555 1_555
Tb11 O3_8 1_555 1_555
C85_8 H49_8 1_555 1_555
C86_8 C85_8 1_555 1_555
H50_8 C86_8 1_555 1_555
C87_8 C86_8 1_555 1_555
H51_8 C87_8 1_555 1_555
C88_8 C87_8 1_555 1_555
H52_8 C88_8 1_555 1_555
C139_8 C88_8 1_555 1_555
C140_8 C85_8 1_555 1_555
H93_8 C163_8 1_555 1_555
C164_8 C163_8 1_555 1_555
H94_8 C164_8 1_555 1_555
C9_8 C10_8 1_555 1_555
C17_8 C18_8 1_555 1_555
C19_8 C24_8 1_555 1_555
C27_8 C28_8 1_555 1_555
C31_6 C32_8 1_555 1_555
C37_8 C38_8 1_555 1_555
C41_6 C42_8 1_555 1_555
C45_8 C46_8 1_555 1_555
C51_8 C52_8 1_555 1_555
C58_8 C59_8 1_555 1_555
C62_8 C63_8 1_555 1_555
C68_8 C69_8 1_555 1_555
C72_8 C73_8 1_555 1_555
C76_8 C77_8 1_555 1_555
C82_8 C83_8 1_555 1_555
O8_8 Tb9 1_555 1_555
O9_8 Tb11 1_555 1_555
C139_8 C140_8 1_555 1_555
O1_8 H101_8 1_555 1_555
O1_8 H102_8 1_555 1_555
O10_8 H103_8 1_555 1_555
O10_8 H104_8 1_555 1_555
O12_12 H105_5 1_555 1_555
O11_8 H107_8 1_555 1_555
O11_8 H108_8 1_555 1_555
C1_8 H1_8 1_555 1_555
C2_8 C1_8 1_555 1_555
H2_8 C2_8 1_555 1_555
C3_8 C2_8 1_555 1_555
H3_8 C3_8 1_555 1_555
C4_8 C3_8 1_555 1_555
H4_8 C4_8 1_555 1_555
C55_8 C4_8 1_555 1_555
C56_8 C1_8 1_555 1_555
H45_8 C79_8 1_555 1_555
C80_8 C79_8 1_555 1_555
H46_8 C80_8 1_555 1_555
O12_13 Tb11_2 1_555 1_555
C89_8 C90_8 1_555 1_555
C91_8 C90_8 1_555 1_555
H54_8 C91_8 1_555 1_555
C92_8 C91_8 1_555 1_555
C93_8 C92_8 1_555 1_555
H55_8 C93_8 1_555 1_555
C94_8 C89_8 1_555 1_555
H56_8 C94_8 1_555 1_555
C95_8 C92_8 1_555 1_555
C96_8 C97_8 1_555 1_555
O13_8 Tb9_2 1_555 1_555
C97_8 C98_8 1_555 1_555
C98_8 H57_8 1_555 1_555
C99_8 C98_8 1_555 1_555
H58_8 C99_8 1_555 1_555
C100_8 C99_8 1_555 1_555
C101_8 C100_8 1_555 1_555
H59_8 C101_8 1_555 1_555
C102_8 C97_8 1_555 1_555
H60_8 C102_8 1_555 1_555
C103_8 C104_8 1_555 1_555
C104_8 C105_8 1_555 1_555
C105_8 C106_8 1_555 1_555
C106_8 C107_8 1_555 1_555
C107_8 C108_8 1_555 1_555
C108_8 C100_8 1_555 1_555
C109_8 C103_8 1_555 1_555
H61_8 C109_8 1_555 1_555
C110_8 C109_8 1_555 1_555
C111_8 C110_8 1_555 1_555
C112_8 C104_8 1_555 1_555
H64_8 C112_8 1_555 1_555
C113_8 C106_8 1_555 1_555
H65_8 C113_8 1_555 1_555
C114_6 C113_8 1_555 1_555
H66_6 C114_6 1_555 1_555
C115_6 C114_6 1_555 1_555
H67_6 C115_6 1_555 1_555
C116_8 C107_8 1_555 1_555
H68_8 C116_8 1_555 1_555
C117_8 C105_8 1_555 1_555
C118_8 C117_8 1_555 1_555
C119_8 C118_8 1_555 1_555
C120_8 C119_8 1_555 1_555
C121_8 C120_8 1_555 1_555
C122_8 C117_8 1_555 1_555
C123_8 C122_8 1_555 1_555
H69_8 C123_8 1_555 1_555
C124_8 C123_8 1_555 1_555
H70_6 C124_8 1_555 1_555
C125_6 C124_8 1_555 1_555
H71_6 C125_6 1_555 1_555
C126_8 C121_8 1_555 1_555
H72_8 C126_8 1_555 1_555
C127_8 C118_8 1_555 1_555
H73_8 C127_8 1_555 1_555
C128_8 C127_8 1_555 1_555
H74_8 C128_8 1_555 1_555
C129_8 C128_8 1_555 1_555
H75_8 C129_8 1_555 1_555
C130_8 C119_8 1_555 1_555
H76_8 C130_8 1_555 1_555
C131_8 C120_8 1_555 1_555
C132_8 C131_8 1_555 1_555
H77_8 C132_8 1_555 1_555
C133_8 C132_8 1_555 1_555
H78_8 C133_8 1_555 1_555
C134_8 C133_8 1_555 1_555
C135_8 C134_8 1_555 1_555
H79_8 C135_8 1_555 1_555
C136_8 C131_8 1_555 1_555
H80_8 C136_8 1_555 1_555
C137_8 C134_8 1_555 1_555
C138_8 C89_8 1_555 1_555
C142_8 C141_8 1_555 1_555
C143_8 C138_8 1_555 1_555
C144_8 C143_8 1_555 1_555
H81_8 C144_8 1_555 1_555
C145_8 C144_8 1_555 1_555
H82_8 C145_8 1_555 1_555
C146_8 C145_8 1_555 1_555
H83_8 C146_8 1_555 1_555
C147_8 C142_8 1_555 1_555
H84_8 C147_8 1_555 1_555
C148_8 C141_8 1_555 1_555
C149_8 C148_8 1_555 1_555
C150_8 C149_8 1_555 1_555
C151_8 C150_8 1_555 1_555
C152_8 C151_8 1_555 1_555
C153_8 C148_8 1_555 1_555
C154_8 C153_8 1_555 1_555
H85_8 C154_8 1_555 1_555
C155_8 C154_8 1_555 1_555
H86_8 C155_8 1_555 1_555
C156_8 C155_8 1_555 1_555
H87_8 C156_8 1_555 1_555
C157_8 C152_8 1_555 1_555
H88_8 C157_8 1_555 1_555
C158_8 C150_8 1_555 1_555
H89_8 C158_8 1_555 1_555
C159_8 C158_8 1_555 1_555
H90_8 C159_8 1_555 1_555
C160_8 C159_8 1_555 1_555
H91_8 C160_8 1_555 1_555
C161_8 C149_8 1_555 1_555
H92_8 C161_8 1_555 1_555
C162_8 C151_8 1_555 1_555
C166_8 C165_8 1_555 1_555
H95_8 C166_8 1_555 1_555
C167_8 C162_8 1_555 1_555
H96_8 C167_8 1_555 1_555
C168_8 C165_8 1_555 1_555
O14_8 C96_8 1_555 1_555
O15_8 Tb11_2 1_555 1_555
O25 C137_8 1_555 1_555
O27 C137_8 1_555 1_555
O29_3 C168_8 1_555 1_555
O20_8 C95_8 1_555 1_555
O21_8 Tb11_2 1_555 1_555
O22_8 Tb9_2 1_555 1_555
O23_8 Tb9_2 1_555 1_555
Tb9_2 O14_8 1_555 1_555
C55_8 C56_8 1_555 1_555
C93_8 C94_8 1_555 1_555
C95_8 O21_8 1_555 1_555
C96_8 O15_8 1_555 1_555
C101_8 C102_8 1_555 1_555
C103_8 C108_8 1_555 1_555
C111_8 C112_8 1_555 1_555
C115_6 C116_8 1_555 1_555
C121_8 C122_8 1_555 1_555
C125_6 C126_8 1_555 1_555
C129_8 C130_8 1_555 1_555
C135_8 C136_8 1_555 1_555
C142_8 C143_8 1_555 1_555
C146_8 C147_8 1_555 1_555
C152_8 C153_8 1_555 1_555
C156_8 C157_8 1_555 1_555
C160_8 C161_8 1_555 1_555
C166_8 C167_8 1_555 1_555
O20_8 Tb9_2 1_555 1_555
O23_8 H97_8 1_555 1_555
O23_8 H98_8 1_555 1_555
O22_8 H99_8 1_555 1_555
O22_8 H100_8 1_555 1_555
O12_13 H106_5 1_555 1_555
O13_8 H109_8 1_555 1_555
O13_8 H110_8 1_555 1_555
O12_12 H106_6 1_555 1_555
O12_13 H105_6 1_555 1_555
H23_7 C41_7 1_555 1_555
H71_7 C125_7 1_555 1_555
H71_8 C125_8 1_555 1_555
H23_8 C41_8 1_555 1_555
H18_7 C30_7 1_555 1_555
C31_7 C30_7 1_555 1_555
H19_7 C31_7 1_555 1_555
H66_7 C114_7 1_555 1_555
C115_7 C114_7 1_555 1_555
H67_7 C115_7 1_555 1_555
H18_8 C30_8 1_555 1_555
C31_8 C30_8 1_555 1_555
H19_8 C31_8 1_555 1_555
H66_8 C114_8 1_555 1_555
C115_8 C114_8 1_555 1_555
H67_8 C115_8 1_555 1_555

#END
