
###############################################################################
#
# This file contains modified crystal structure data generated from the
# MOF subset of the Cambridge Structural Database (CSD) v543 
# hosted by the Cambridge Crystallographic Data Centre (CCDC).
#
# This work is licensed under the Creative Commons
# Attribution-NonCommercial-ShareAlike 4.0 International License.
# To view a copy of this license, visit
# http://creativecommons.org/licenses/by-nc-sa/4.0/
# or send a letter to
# Creative Commons, PO Box 1866, Mountain View, CA 94042, USA.
#
# CIF created using the CSD Python API on 29 September 2022
# The structure has been converted into the P1 space group
# The structure has a 3D framework
# The original CSD entry VAHTOQ is in the monoclinic crystal system
# The framework has been calculated to contain at least 10.0% void space
# The void calculation uses a probe of radius 1.32A, grid spacing 0.4
#
###############################################################################

data_VAHTOQ
_chemical_formula_moiety         '(C384 H304 Cl4 N16 O48 Sr8)n'
_symmetry_cell_setting           triclinic
_symmetry_space_group_name_H-M   'P 1'
_symmetry_Int_Tables_number      1
_space_group_name_Hall           'P 1'
loop_
_symmetry_equiv_pos_site_id
_symmetry_equiv_pos_as_xyz
1 x,y,z
_cell_length_a                   40.592(7)
_cell_length_b                   16.616(3)
_cell_length_c                   12.998(2)
_cell_angle_alpha                90
_cell_angle_beta                 98.145(3)
_cell_angle_gamma                90
_cell_volume                     8678.41
loop_
_atom_site_label
_atom_site_type_symbol
_atom_site_fract_x
_atom_site_fract_y
_atom_site_fract_z
H42 H 0.0689 0.2067 0.0235
O6 O 0.21602(12) 0.0077(3) 0.4889(5)
O7 O 0.21627(11) 0.1415(3) 0.4592(4)
H32 H 0.0015 0.2847 0.6205
C62 C 0.01445(15) 0.1468(4) 0.7111(5)
C63 C 0.04363(15) 0.1546(4) 0.7833(5)
C64 C 0.07556(15) 0.1373(4) 0.7550(5)
C65 C 0.07803(16) 0.1159(4) 0.6499(5)
C66 C 0.04886(16) 0.1101(4) 0.5761(5)
C67 C 0.01681(16) 0.1227(4) 0.6068(5)
C70 C 0.02248(17) 0.0888(4) 0.3987(5)
H39 H 0.0241 0.0800 0.3290
C71 C 0.05032(17) 0.0929(4) 0.4701(5)
H40 H 0.0709 0.0842 0.4487
C72 C 0.04252(16) 0.1811(4) 0.8857(5)
H41 H 0.0220 0.1940 0.9055
C73 C 0.07041(15) 0.1885(4) 0.9566(5)
C74 C 0.10191(16) 0.1683(4) 0.9274(5)
H43 H 0.1209 0.1716 0.9763
C75 C 0.10443(15) 0.1444(4) 0.8301(5)
H44 H 0.1252 0.1325 0.8118
C76 C 0.11102(15) 0.1049(4) 0.6153(5)
C77 C 0.12324(16) 0.0282(4) 0.5946(6)
C78 C 0.15371(17) 0.0194(4) 0.5575(6)
C79 C 0.17207(16) 0.0870(4) 0.5374(5)
C80 C 0.16051(16) 0.1620(5) 0.5594(6)
H47 H 0.1727 0.2076 0.5473
C81 C 0.13088(16) 0.1701(4) 0.5993(5)
H48 H 0.1240 0.2212 0.6160
C82 C 0.20386(16) 0.0768(5) 0.4921(6)
H45 H 0.1109 0.9827 0.6057
H46 H 0.1618 0.9683 0.5461
Sr4 Sr 0.23613(2) 0.90463(4) 0.36661(4)
Sr1 Sr 0.76387(2) 0.40463(4) 0.13339(4)
O2 O 0.27066(11) 0.1422(3) 0.4009(4)
O3 O 0.27182(11) 0.0181(3) 0.3355(4)
O4 O 0.82047(10) 0.3489(3) 0.1130(3)
O11 O 0.80586(12) 0.4848(3) 0.2599(4)
N4 N 0.84522(17) 0.5802(4) 0.2435(5)
C1 C 0.65989(14) 0.3150(4) 0.0106(5)
C2 C 0.66736(15) 0.2922(4) 0.1148(5)
H1 H 0.6889 0.2977 0.1493
C3 C 0.64257(14) 0.2615(4) 0.1666(5)
H2 H 0.6477 0.2466 0.2360
C4 C 0.61020(14) 0.2526(4) 0.1164(5)
C5 C 0.60331(15) 0.2738(4) 0.0111(5)
C7 C 0.58231(14) 0.2235(4) 0.1711(5)
C8 C 0.56964(14) 0.1451(4) 0.1531(5)
C9 C 0.53964(15) 0.1213(4) 0.1922(5)
C10 C 0.52284(15) 0.1768(4) 0.2486(5)
C11 C 0.53693(14) 0.2530(4) 0.2732(5)
C12 C 0.56687(14) 0.2765(4) 0.2352(4)
C13 C 0.58019(15) 0.3542(4) 0.2628(5)
H5 H 0.5997 0.3699 0.2389
C14 C 0.56556(16) 0.4052(4) 0.3221(5)
H6 H 0.5747 0.4558 0.3377
C15 C 0.53602(15) 0.3820(4) 0.3608(5)
H7 H 0.5261 0.4167 0.4033
C16 C 0.52226(15) 0.3084(4) 0.3356(4)
H8 H 0.5026 0.2944 0.3602
C17 C 0.52750(15) 0.0418(4) 0.1701(5)
H9 H 0.5078 0.0258 0.1930
C19 C 0.57388(15) 0.0111(4) 0.0807(5)
C20 C 0.58617(15) 0.0877(4) 0.0974(5)
H12 H 0.6056 0.1023 0.0719
C21 C 0.48937(15) 0.1562(4) 0.2757(5)
C22 C 0.46138(15) 0.1634(4) 0.1983(5)
C23 C 0.42886(14) 0.1438(4) 0.2213(5)
C24 C 0.42465(16) 0.1206(4) 0.3235(5)
C25 C 0.45245(14) 0.1133(4) 0.3996(5)
C26 C 0.48526(15) 0.1302(4) 0.3762(5)
C27 C 0.51295(15) 0.1219(4) 0.4556(5)
H13 H 0.5343 0.1307 0.4401
C28 C 0.50853(16) 0.1012(4) 0.5550(5)
H14 H 0.5268 0.0978 0.6068
C29 C 0.47613(17) 0.0849(4) 0.5788(5)
H15 H 0.4733 0.0705 0.6461
C30 C 0.44902(16) 0.0901(4) 0.5038(5)
H16 H 0.4280 0.0784 0.5205
C31 C 0.40093(15) 0.1487(4) 0.1401(5)
H17 H 0.3799 0.1347 0.1543
C32 C 0.40484(16) 0.1736(4) 0.0425(5)
C33 C 0.43721(15) 0.1964(4) 0.0215(5)
C34 C 0.46424(15) 0.1904(4) 0.0959(5)
H20 H 0.4851 0.2042 0.0796
C35 C 0.39006(15) 0.1081(4) 0.3455(5)
C36 C 0.37050(15) 0.1752(4) 0.3580(5)
H21 H 0.3800 0.2262 0.3590
C37 C 0.33712(15) 0.1677(4) 0.3691(5)
H22 H 0.3246 0.2132 0.3793
C38 C 0.32223(14) 0.0911(4) 0.3649(5)
C39 C 0.34173(15) 0.0240(4) 0.3554(5)
C40 C 0.37535(15) 0.0325(4) 0.3477(5)
C41 C 0.28554(15) 0.0823(4) 0.3665(5)
C43 C 0.87378(14) 0.3023(4) 0.0140(5)
H25 H 0.8784 0.3205 0.0822
C89 C 0.83320(19) 0.5071(6) 0.2402(6)
H63 H 0.8470 0.4670 0.2205
C90 C 0.8775(2) 0.6006(6) 0.2161(7)
H64 H 0.8907 0.6258 0.2743
H65 H 0.8747 0.6370 0.1581
H66 H 0.8884 0.5525 0.1976
C91 C 0.8243(3) 0.6458(6) 0.2755(9)
H67 H 0.8248 0.6907 0.2294
H68 H 0.8326 0.6621 0.3452
H69 H 0.8018 0.6271 0.2727
O12 O 0.71425(10) 0.3685(3) 0.0058(3)
C96 C 0.81379(14) 0.3304(4) 0.0190(5)
Cl1 Cl 0.74879(4) 0.27038(16) 0.2557(2)
Sr5 Sr 0.74079(2) 0.10859(5) 0.32957(5)
O13 O 0.72818(11) 0.5181(3) 0.1645(4)
O14 O 0.78398(12) 0.5077(3) 0.0111(5)
Sr2 Sr 0.74079(2) 0.39141(5) 0.82957(5)
O1 O 0.68086(11) 0.3541(3) 0.8572(3)
O5 O 0.78440(10) 0.3362(3) 0.9693(3)
O8 O 0.78521(15) 0.4542(4) 0.7402(5)
O9 O 0.70705(15) 0.4188(4) 0.6484(5)
O10 O 0.72069(19) 0.5366(4) 0.8414(6)
N1 N 0.81616(15) 0.4274(4) 0.6092(5)
N2 N 0.68559(18) 0.4106(4) 0.4792(5)
N3 N 0.7259(3) 0.6729(6) 0.8411(7)
H3 H 0.5819 0.2673 0.9759
C6 C 0.62791(14) 0.3040(4) 0.9593(5)
H4 H 0.6230 0.3172 0.8893
H18 H 0.3867 0.1758 0.9903
H19 H 0.4398 0.2156 0.9559
C42 C 0.84137(15) 0.3020(4) 0.9636(5)
C44 C 0.89933(15) 0.2754(4) 0.9628(5)
H26 H 0.9211 0.2768 0.9966
C45 C 0.89307(14) 0.2464(4) 0.8621(5)
C46 C 0.86051(16) 0.2455(5) 0.8123(5)
H27 H 0.8559 0.2263 0.7446
C47 C 0.83460(15) 0.2729(4) 0.8626(5)
H28 H 0.8128 0.2718 0.8287
C48 C 0.92157(14) 0.2181(4) 0.8120(5)
C49 C 0.93429(15) 0.1394(4) 0.8334(5)
C50 C 0.96477(14) 0.1157(4) 0.7990(5)
C51 C 0.98141(15) 0.1686(4) 0.7401(5)
C52 C 0.96735(14) 0.2435(4) 0.7114(5)
C53 C 0.93710(14) 0.2695(4) 0.7488(4)
C54 C 0.92401(15) 0.3473(4) 0.7198(5)
H29 H 0.9050 0.3647 0.7454
C55 C 0.93825(16) 0.3959(4) 0.6568(5)
H30 H 0.9292 0.4463 0.6391
C56 C 0.96709(15) 0.3701(4) 0.6177(5)
H31 H 0.9763 0.4032 0.5717
C57 C 0.98183(15) 0.2985(4) 0.6450(5)
C58 C 0.91680(16) 0.0834(4) 0.8904(5)
H33 H 0.8970 0.0985 0.9131
C59 C 0.92937(16) 0.0081(4) 0.9111(5)
C61 C 0.97720(15) 0.0364(4) 0.8268(5)
H36 H 0.9974 0.0202 0.8079
C68 C 0.98794(15) 0.1133(4) 0.5319(5)
H37 H 0.9669 0.1177 0.5519
C69 C 0.99104(18) 0.0981(4) 0.4317(6)
H38 H 0.9720 0.0935 0.3832
C83 C 0.7027(2) 0.3862(6) 0.5637(6)
H49 H 0.7133 0.3368 0.5600
C84 C 0.6832(4) 0.3643(6) 0.3861(7)
H50 H 0.6844 0.3995 0.3282
H51 H 0.6624 0.3360 0.3761
H52 H 0.7012 0.3264 0.3915
C85 C 0.6649(2) 0.4838(6) 0.4700(8)
H53 H 0.6725 0.5198 0.4209
H54 H 0.6664 0.5097 0.5366
H55 H 0.6421 0.4694 0.4468
C86 C 0.8092(2) 0.4694(7) 0.6885(7)
H56 H 0.8226 0.5136 0.7089
C87 C 0.8441(2) 0.4469(8) 0.5576(8)
H57 H 0.8584 0.4009 0.5583
H58 H 0.8562 0.4909 0.5928
H59 H 0.8363 0.4620 0.4870
C88 C 0.7971(3) 0.3596(7) 0.5783(10)
H60 H 0.7870 0.3658 0.5074
H61 H 0.7801 0.3534 0.6219
H62 H 0.8112 0.3128 0.5844
C92 C 0.7354(3) 0.5908(9) 0.8294(9)
H70 H 0.7562 0.5822 0.8094
C93 C 0.7492(3) 0.7374(8) 0.8232(9)
H71 H 0.7546 0.7684 0.8856
H72 H 0.7390 0.7717 0.7683
H73 H 0.7691 0.7142 0.8039
C94 C 0.6945(3) 0.6943(8) 0.8757(8)
H74 H 0.6986 0.7312 0.9330
H75 H 0.6840 0.6467 0.8973
H76 H 0.6802 0.7193 0.8195
C95 C 0.68682(14) 0.3487(4) 0.9540(5)
Cl2 Cl 0.74879(4) 0.22962(16) 0.7557(2)
C18 C 0.54410(15) 0.9886(4) 0.1158(5)
H10 H 0.5356 0.9371 0.1021
H11 H 0.5854 0.9740 0.0459
H23 H 0.3323 0.9730 0.3542
H24 H 0.3883 0.9867 0.3440
O10_2 O 0.27931(19) 0.0366(4) 0.6586(6)
N3_2 N 0.2741(3) 0.1729(6) 0.6589(7)
N4_2 N 0.15478(17) 0.0802(4) 0.2565(5)
H54_2 H 0.3336 0.0097 0.9634
H56_2 H 0.1774 0.0136 0.7911
C89_2 C 0.16680(19) 0.0071(6) 0.2598(6)
C90_2 C 0.1225(2) 0.1006(6) 0.2839(7)
H64_2 H 0.1093 0.1258 0.2257
H65_2 H 0.1253 0.1370 0.3419
H66_2 H 0.1116 0.0525 0.3024
C91_2 C 0.1757(3) 0.1458(6) 0.2245(9)
H67_2 H 0.1752 0.1907 0.2706
H68_2 H 0.1674 0.1621 0.1548
H69_2 H 0.1982 0.1271 0.2273
C92_2 C 0.2646(3) 0.0908(9) 0.6706(9)
H70_2 H 0.2438 0.0822 0.6906
C93_2 C 0.2508(3) 0.2374(8) 0.6768(9)
H71_2 H 0.2454 0.2684 0.6144
H72_2 H 0.2610 0.2717 0.7317
H73_2 H 0.2309 0.2142 0.6961
C94_2 C 0.3055(3) 0.1943(8) 0.6243(8)
H74_2 H 0.3014 0.2312 0.5670
H75_2 H 0.3160 0.1467 0.6027
H76_2 H 0.3198 0.2193 0.6805
Sr2_2 Sr 0.25921(2) 0.89141(5) 0.67043(5)
O1_2 O 0.31914(11) 0.8541(3) 0.6428(3)
O2_2 O 0.72934(11) 0.6422(3) 0.0991(4)
O4_2 O 0.17953(10) 0.8489(3) 0.3870(3)
O5_2 O 0.21560(10) 0.8362(3) 0.5307(3)
O8_2 O 0.21479(15) 0.9542(4) 0.7598(5)
O9_2 O 0.29295(15) 0.9188(4) 0.8516(5)
O11_2 O 0.19414(12) 0.9848(3) 0.2401(4)
N1_2 N 0.18384(15) 0.9274(4) 0.8908(5)
C1_2 C 0.34011(14) 0.8150(4) 0.4894(5)
C2_2 C 0.33264(15) 0.7922(4) 0.3852(5)
H1_2 H 0.3111 0.7977 0.3507
C3_2 C 0.35743(14) 0.7615(4) 0.3334(5)
H2_2 H 0.3523 0.7466 0.2640
C4_2 C 0.38980(14) 0.7526(4) 0.3836(5)
C5_2 C 0.39669(15) 0.7738(4) 0.4889(5)
H3_2 H 0.4181 0.7673 0.5241
C6_2 C 0.37209(14) 0.8040(4) 0.5407(5)
H4_2 H 0.3770 0.8172 0.6107
C7_2 C 0.41769(14) 0.7235(4) 0.3289(5)
C8_2 C 0.43036(14) 0.6451(4) 0.3469(5)
C9_2 C 0.46036(15) 0.6213(4) 0.3078(5)
C10_2 C 0.47716(15) 0.6768(4) 0.2514(5)
C11_2 C 0.46307(14) 0.7530(4) 0.2268(5)
C12_2 C 0.43313(14) 0.7765(4) 0.2648(4)
C13_2 C 0.41981(15) 0.8542(4) 0.2372(5)
H5_2 H 0.4003 0.8699 0.2611
C14_2 C 0.43444(16) 0.9052(4) 0.1779(5)
H6_2 H 0.4253 0.9558 0.1623
C15_2 C 0.46398(15) 0.8820(4) 0.1392(5)
H7_2 H 0.4739 0.9167 0.0967
C16_2 C 0.47774(15) 0.8084(4) 0.1644(4)
H8_2 H 0.4974 0.7944 0.1398
C17_2 C 0.47250(15) 0.5418(4) 0.3299(5)
H9_2 H 0.4922 0.5258 0.3070
C18_2 C 0.45590(15) 0.4886(4) 0.3842(5)
H10_2 H 0.4644 0.4371 0.3979
C19_2 C 0.42612(15) 0.5111(4) 0.4193(5)
H11_2 H 0.4146 0.4740 0.4541
C20_2 C 0.41383(15) 0.5877(4) 0.4026(5)
H12_2 H 0.3944 0.6023 0.4281
C21_2 C 0.51063(15) 0.6562(4) 0.2243(5)
C22_2 C 0.53862(15) 0.6634(4) 0.3017(5)
C23_2 C 0.57114(14) 0.6438(4) 0.2787(5)
C24_2 C 0.57535(16) 0.6206(4) 0.1765(5)
C25_2 C 0.54755(14) 0.6133(4) 0.1004(5)
C26_2 C 0.51474(15) 0.6302(4) 0.1238(5)
C27_2 C 0.48705(15) 0.6219(4) 0.0444(5)
H13_2 H 0.4657 0.6307 0.0599
C31_2 C 0.59907(15) 0.6487(4) 0.3599(5)
H17_2 H 0.6201 0.6347 0.3457
C32_2 C 0.59516(16) 0.6736(4) 0.4575(5)
H18_2 H 0.6133 0.6758 0.5097
C33_2 C 0.56279(15) 0.6964(4) 0.4785(5)
H19_2 H 0.5602 0.7156 0.5441
C34_2 C 0.53576(15) 0.6904(4) 0.4041(5)
H20_2 H 0.5149 0.7042 0.4204
C35_2 C 0.60994(15) 0.6081(4) 0.1545(5)
C36_2 C 0.62950(15) 0.6752(4) 0.1420(5)
H21_2 H 0.6200 0.7262 0.1410
C37_2 C 0.66288(15) 0.6677(4) 0.1309(5)
H22_2 H 0.6754 0.7132 0.1207
C38_2 C 0.67777(14) 0.5911(4) 0.1351(5)
C39_2 C 0.65827(15) 0.5240(4) 0.1446(5)
H23_2 H 0.6677 0.4730 0.1458
C40_2 C 0.62465(15) 0.5325(4) 0.1523(5)
H24_2 H 0.6117 0.4867 0.1560
C41_2 C 0.71446(15) 0.5823(4) 0.1335(5)
C42_2 C 0.15863(15) 0.8020(4) 0.5364(5)
C43_2 C 0.12622(14) 0.8023(4) 0.4860(5)
H25_2 H 0.1216 0.8205 0.4178
C44_2 C 0.10067(15) 0.7754(4) 0.5372(5)
H26_2 H 0.0789 0.7768 0.5034
C45_2 C 0.10693(14) 0.7464(4) 0.6379(5)
C46_2 C 0.13949(16) 0.7455(5) 0.6877(5)
H27_2 H 0.1441 0.7263 0.7554
C47_2 C 0.16540(15) 0.7729(4) 0.6374(5)
H28_2 H 0.1872 0.7718 0.6713
C48_2 C 0.07843(14) 0.7181(4) 0.6880(5)
C49_2 C 0.06571(15) 0.6394(4) 0.6666(5)
C50_2 C 0.03523(14) 0.6157(4) 0.7010(5)
C51_2 C 0.01859(15) 0.6686(4) 0.7599(5)
C52_2 C 0.03265(14) 0.7435(4) 0.7886(5)
C53_2 C 0.06290(14) 0.7695(4) 0.7512(4)
C54_2 C 0.07599(15) 0.8473(4) 0.7802(5)
H29_2 H 0.0950 0.8647 0.7546
C55_2 C 0.06175(16) 0.8959(4) 0.8432(5)
H30_2 H 0.0708 0.9463 0.8609
C56_2 C 0.03291(15) 0.8701(4) 0.8823(5)
H31_2 H 0.0237 0.9032 0.9283
C57_2 C 0.01817(15) 0.7985(4) 0.8550(5)
C58_2 C 0.08320(16) 0.5834(4) 0.6096(5)
H33_2 H 0.1030 0.5985 0.5869
C59_2 C 0.07063(16) 0.5081(4) 0.5889(5)
H34 H 0.0825 0.4718 0.5538
C60 C 0.04039(16) 0.4841(4) 0.6191(5)
H35 H 0.0321 0.4327 0.6027
C61_2 C 0.02280(15) 0.5364(4) 0.6732(5)
H36_2 H 0.0026 0.5202 0.6921
C68_2 C 0.01206(15) 0.6133(4) 0.9681(5)
H37_2 H 0.0331 0.6177 0.9481
C83_2 C 0.2973(2) 0.8862(6) 0.9363(6)
H49_2 H 0.2867 0.8368 0.9400
C86_2 C 0.1908(2) 0.9694(7) 0.8115(7)
C87_2 C 0.1559(2) 0.9469(8) 0.9424(8)
H57_2 H 0.1416 0.9009 0.9417
H58_2 H 0.1438 0.9909 0.9072
C88_2 C 0.2029(3) 0.8596(7) 0.9217(10)
H60_2 H 0.2130 0.8658 0.9926
H61_2 H 0.2199 0.8534 0.8781
H62_2 H 0.1888 0.8128 0.9156
H63_2 H 0.1530 0.9670 0.2795
O12_2 O 0.28575(10) 0.8685(3) 0.4942(3)
C95_2 C 0.31318(14) 0.8487(4) 0.5460(5)
C96_2 C 0.18621(14) 0.8304(4) 0.4810(5)
Cl1_2 Cl 0.25121(4) 0.77038(16) 0.2443(2)
Sr5_2 Sr 0.25921(2) 0.60859(5) 0.17043(5)
Cl2_2 Cl 0.25121(4) 0.72962(16) 0.7443(2)
O7_2 O 0.78373(11) 0.6415(3) 0.0408(4)
C70_2 C 0.97752(17) 0.5888(4) 0.1013(5)
H39_2 H 0.9759 0.5800 0.1710
C71_2 C 0.94968(17) 0.5929(4) 0.0299(5)
H40_2 H 0.9291 0.5842 0.0513
C82_2 C 0.79614(16) 0.5768(5) 0.0079(6)
C18_3 C 0.45590(15) 0.0114(4) 0.8842(5)
H10_3 H 0.4644 0.0629 0.8979
H11_3 H 0.4146 0.0260 0.9541
H23_3 H 0.6677 0.0270 0.6458
H24_3 H 0.6117 0.0133 0.6560
Sr3 Sr 0.76387(2) 0.09537(4) 0.63339(4)
O1_3 O 0.31914(11) 0.6459(3) 0.1428(3)
O5_3 O 0.21560(10) 0.6638(3) 0.0307(3)
O8_3 O 0.21479(15) 0.5458(4) 0.2598(5)
O9_3 O 0.29295(15) 0.5812(4) 0.3516(5)
O10_3 O 0.27931(19) 0.4634(4) 0.1586(6)
N1_3 N 0.18384(15) 0.5726(4) 0.3908(5)
N2_2 N 0.31441(18) 0.5894(4) 0.5208(5)
N3_3 N 0.2741(3) 0.3271(6) 0.1589(7)
H3_3 H 0.4181 0.7327 0.0241
C6_3 C 0.37209(14) 0.6960(4) 0.0407(5)
H4_3 H 0.3770 0.6828 0.1107
H18_3 H 0.6133 0.8242 0.0097
H19_3 H 0.5602 0.7844 0.0441
C42_3 C 0.15863(15) 0.6980(4) 0.0364(5)
C44_3 C 0.10067(15) 0.7246(4) 0.0372(5)
H26_3 H 0.0789 0.7232 0.0034
C45_3 C 0.10693(14) 0.7536(4) 0.1379(5)
C46_3 C 0.13949(16) 0.7545(5) 0.1877(5)
H27_3 H 0.1441 0.7737 0.2554
C47_3 C 0.16540(15) 0.7271(4) 0.1374(5)
H28_3 H 0.1872 0.7282 0.1713
C48_3 C 0.07843(14) 0.7819(4) 0.1880(5)
C49_3 C 0.06571(15) 0.8606(4) 0.1666(5)
C50_3 C 0.03523(14) 0.8843(4) 0.2010(5)
C51_3 C 0.01859(15) 0.8314(4) 0.2599(5)
C52_3 C 0.03265(14) 0.7565(4) 0.2886(5)
C53_3 C 0.06290(14) 0.7305(4) 0.2512(4)
C54_3 C 0.07599(15) 0.6527(4) 0.2802(5)
H29_3 H 0.0950 0.6353 0.2546
C55_3 C 0.06175(16) 0.6041(4) 0.3432(5)
H30_3 H 0.0708 0.5537 0.3609
C56_3 C 0.03291(15) 0.6299(4) 0.3823(5)
H31_3 H 0.0237 0.5968 0.4283
C57_3 C 0.01817(15) 0.7015(4) 0.3550(5)
C58_3 C 0.08320(16) 0.9166(4) 0.1096(5)
H33_3 H 0.1030 0.9015 0.0869
C59_3 C 0.07063(16) 0.9919(4) 0.0889(5)
C61_3 C 0.02280(15) 0.9636(4) 0.1732(5)
H36_3 H 0.0026 0.9798 0.1921
C68_3 C 0.01206(15) 0.8867(4) 0.4681(5)
H37_3 H 0.0331 0.8823 0.4481
C69_2 C 0.00896(18) 0.9019(4) 0.5683(6)
H38_2 H 0.0280 0.9065 0.6168
C83_3 C 0.2973(2) 0.6138(6) 0.4363(6)
H49_3 H 0.2867 0.6632 0.4400
C84_2 C 0.3168(4) 0.6357(6) 0.6139(7)
H50_2 H 0.3156 0.6005 0.6718
H51_2 H 0.3376 0.6640 0.6239
H52_2 H 0.2988 0.6736 0.6085
C85_2 C 0.3351(2) 0.5162(6) 0.5300(8)
H53_2 H 0.3275 0.4802 0.5791
H54_3 H 0.3336 0.4903 0.4634
H55_2 H 0.3579 0.5306 0.5532
C86_3 C 0.1908(2) 0.5306(7) 0.3115(7)
H56_3 H 0.1774 0.4864 0.2911
C87_3 C 0.1559(2) 0.5531(8) 0.4424(8)
H57_3 H 0.1416 0.5991 0.4417
H58_3 H 0.1438 0.5091 0.4072
H59_2 H 0.1637 0.5380 0.5130
C88_3 C 0.2029(3) 0.6404(7) 0.4217(10)
H60_3 H 0.2130 0.6342 0.4926
H61_3 H 0.2199 0.6466 0.3781
H62_3 H 0.1888 0.6872 0.4156
C92_3 C 0.2646(3) 0.4092(9) 0.1706(9)
H70_3 H 0.2438 0.4178 0.1906
C93_3 C 0.2508(3) 0.2626(8) 0.1768(9)
H71_3 H 0.2454 0.2316 0.1144
H72_3 H 0.2610 0.2283 0.2317
H73_3 H 0.2309 0.2858 0.1961
C94_3 C 0.3055(3) 0.3057(8) 0.1243(8)
H74_3 H 0.3014 0.2688 0.0670
H75_3 H 0.3160 0.3533 0.1027
H76_3 H 0.3198 0.2807 0.1805
C95_3 C 0.31318(14) 0.6513(4) 0.0460(5)
Sr1_2 Sr 0.23613(2) 0.59537(4) 0.86661(4)
O2_3 O 0.72934(11) 0.8578(3) 0.5991(4)
O3_2 O 0.72818(11) 0.9819(3) 0.6645(4)
O4_3 O 0.17953(10) 0.6511(3) 0.8870(3)
O11_3 O 0.19414(12) 0.5152(3) 0.7401(4)
N4_3 N 0.15478(17) 0.4198(4) 0.7565(5)
C1_3 C 0.34011(14) 0.6850(4) 0.9894(5)
C2_3 C 0.33264(15) 0.7078(4) 0.8852(5)
H1_3 H 0.3111 0.7023 0.8507
C3_3 C 0.35743(14) 0.7385(4) 0.8334(5)
H2_3 H 0.3523 0.7534 0.7640
C4_3 C 0.38980(14) 0.7474(4) 0.8836(5)
C5_3 C 0.39669(15) 0.7262(4) 0.9889(5)
C7_3 C 0.41769(14) 0.7765(4) 0.8289(5)
C8_3 C 0.43036(14) 0.8549(4) 0.8469(5)
C9_3 C 0.46036(15) 0.8787(4) 0.8078(5)
C10_3 C 0.47716(15) 0.8232(4) 0.7514(5)
C11_3 C 0.46307(14) 0.7470(4) 0.7268(5)
C12_3 C 0.43313(14) 0.7235(4) 0.7648(4)
C13_3 C 0.41981(15) 0.6458(4) 0.7372(5)
H5_3 H 0.4003 0.6301 0.7611
C14_3 C 0.43444(16) 0.5948(4) 0.6779(5)
H6_3 H 0.4253 0.5442 0.6623
C15_3 C 0.46398(15) 0.6180(4) 0.6392(5)
H7_3 H 0.4739 0.5833 0.5967
C16_3 C 0.47774(15) 0.6916(4) 0.6644(4)
H8_3 H 0.4974 0.7056 0.6398
C17_3 C 0.47250(15) 0.9582(4) 0.8299(5)
H9_3 H 0.4922 0.9742 0.8070
C19_3 C 0.42612(15) 0.9889(4) 0.9193(5)
C20_3 C 0.41383(15) 0.9123(4) 0.9026(5)
H12_3 H 0.3944 0.8977 0.9281
C21_3 C 0.51063(15) 0.8438(4) 0.7243(5)
C22_3 C 0.53862(15) 0.8366(4) 0.8017(5)
C23_3 C 0.57114(14) 0.8562(4) 0.7787(5)
C24_3 C 0.57535(16) 0.8794(4) 0.6765(5)
C25_3 C 0.54755(14) 0.8867(4) 0.6004(5)
C26_3 C 0.51474(15) 0.8698(4) 0.6238(5)
C27_3 C 0.48705(15) 0.8781(4) 0.5444(5)
H13_3 H 0.4657 0.8693 0.5599
C28_2 C 0.49147(16) 0.8988(4) 0.4450(5)
H14_2 H 0.4732 0.9022 0.3932
C29_2 C 0.52387(17) 0.9151(4) 0.4212(5)
H15_2 H 0.5267 0.9295 0.3539
C30_2 C 0.55098(16) 0.9099(4) 0.4962(5)
H16_2 H 0.5720 0.9216 0.4795
C31_3 C 0.59907(15) 0.8513(4) 0.8599(5)
H17_3 H 0.6201 0.8653 0.8457
C32_3 C 0.59516(16) 0.8264(4) 0.9575(5)
C33_3 C 0.56279(15) 0.8036(4) 0.9785(5)
C34_3 C 0.53576(15) 0.8096(4) 0.9041(5)
H20_3 H 0.5149 0.7958 0.9204
C35_3 C 0.60994(15) 0.8919(4) 0.6545(5)
C36_3 C 0.62950(15) 0.8248(4) 0.6420(5)
H21_3 H 0.6200 0.7738 0.6410
C37_3 C 0.66288(15) 0.8323(4) 0.6309(5)
H22_3 H 0.6754 0.7868 0.6207
C38_3 C 0.67777(14) 0.9089(4) 0.6351(5)
C39_3 C 0.65827(15) 0.9760(4) 0.6446(5)
C40_3 C 0.62465(15) 0.9675(4) 0.6523(5)
C41_3 C 0.71446(15) 0.9177(4) 0.6335(5)
C43_3 C 0.12622(14) 0.6977(4) 0.9860(5)
H25_3 H 0.1216 0.6795 0.9178
C89_3 C 0.16680(19) 0.4929(6) 0.7598(6)
H63_3 H 0.1530 0.5330 0.7795
C90_3 C 0.1225(2) 0.3994(6) 0.7839(7)
H64_3 H 0.1093 0.3742 0.7257
H65_3 H 0.1253 0.3630 0.8419
H66_3 H 0.1116 0.4475 0.8024
C91_3 C 0.1757(3) 0.3542(6) 0.7245(9)
H67_3 H 0.1752 0.3093 0.7706
H68_3 H 0.1674 0.3379 0.6548
H69_3 H 0.1982 0.3729 0.7273
O12_3 O 0.28575(10) 0.6315(3) 0.9942(3)
C96_3 C 0.18621(14) 0.6696(4) 0.9810(5)
O13_2 O 0.27182(11) 0.4819(3) 0.8355(4)
O14_2 O 0.21602(12) 0.4923(3) 0.9889(5)
H45_2 H 0.8891 0.0173 0.3943
H46_2 H 0.8382 0.0317 0.4539
O6_2 O 0.78398(12) 0.9923(3) 0.5111(5)
O7_3 O 0.78373(11) 0.8585(3) 0.5408(4)
H32_2 H 0.9985 0.7153 0.3795
C62_2 C 0.98555(15) 0.8532(4) 0.2889(5)
C63_2 C 0.95637(15) 0.8454(4) 0.2167(5)
C64_2 C 0.92444(15) 0.8627(4) 0.2450(5)
C65_2 C 0.92197(16) 0.8841(4) 0.3501(5)
C66_2 C 0.95114(16) 0.8899(4) 0.4239(5)
C67_2 C 0.98319(16) 0.8773(4) 0.3932(5)
C70_3 C 0.97752(17) 0.9112(4) 0.6013(5)
H39_3 H 0.9759 0.9200 0.6710
C71_3 C 0.94968(17) 0.9071(4) 0.5299(5)
H40_3 H 0.9291 0.9158 0.5513
C72_2 C 0.95748(16) 0.8189(4) 0.1143(5)
H41_2 H 0.9780 0.8060 0.0945
C73_2 C 0.92959(15) 0.8115(4) 0.0434(5)
C74_2 C 0.89809(16) 0.8317(4) 0.0726(5)
H43_2 H 0.8791 0.8284 0.0237
C75_2 C 0.89557(15) 0.8556(4) 0.1699(5)
H44_2 H 0.8748 0.8675 0.1882
C76_2 C 0.88898(15) 0.8951(4) 0.3847(5)
C77_2 C 0.87676(16) 0.9718(4) 0.4054(6)
C78_2 C 0.84629(17) 0.9806(4) 0.4425(6)
C79_2 C 0.82793(16) 0.9130(4) 0.4626(5)
C80_2 C 0.83949(16) 0.8380(5) 0.4406(6)
H47_2 H 0.8273 0.7924 0.4527
C81_2 C 0.86912(16) 0.8299(4) 0.4007(5)
H48_2 H 0.8760 0.7788 0.3840
C82_3 C 0.79614(16) 0.9232(5) 0.5079(6)
O7_4 O 0.21627(11) 0.3585(3) 0.9592(4)
C70_4 C 0.02248(17) 0.4112(4) 0.8987(5)
H39_4 H 0.0241 0.4200 0.8290
C71_4 C 0.05032(17) 0.4071(4) 0.9701(5)
H40_4 H 0.0709 0.4158 0.9487
C82_4 C 0.20386(16) 0.4232(5) 0.9921(6)
O1_4 O 0.68086(11) 0.1459(3) 0.3572(3)
O2_4 O 0.27066(11) 0.3578(3) 0.9009(4)
O4_4 O 0.82047(10) 0.1511(3) 0.6130(3)
O5_4 O 0.78440(10) 0.1638(3) 0.4693(3)
O8_4 O 0.78521(15) 0.0458(4) 0.2402(5)
O9_4 O 0.70705(15) 0.0812(4) 0.1484(5)
O11_4 O 0.80586(12) 0.0152(3) 0.7599(4)
N1_4 N 0.81616(15) 0.0726(4) 0.1092(5)
C1_4 C 0.65989(14) 0.1850(4) 0.5106(5)
C2_4 C 0.66736(15) 0.2078(4) 0.6148(5)
H1_4 H 0.6889 0.2023 0.6493
C3_4 C 0.64257(14) 0.2385(4) 0.6666(5)
H2_4 H 0.6477 0.2534 0.7360
C4_4 C 0.61020(14) 0.2474(4) 0.6164(5)
C5_4 C 0.60331(15) 0.2262(4) 0.5111(5)
H3_4 H 0.5819 0.2327 0.4759
C6_4 C 0.62791(14) 0.1960(4) 0.4593(5)
H4_4 H 0.6230 0.1828 0.3893
C7_4 C 0.58231(14) 0.2765(4) 0.6711(5)
C8_4 C 0.56964(14) 0.3549(4) 0.6531(5)
C9_4 C 0.53964(15) 0.3787(4) 0.6922(5)
C10_4 C 0.52284(15) 0.3232(4) 0.7486(5)
C11_4 C 0.53693(14) 0.2470(4) 0.7732(5)
C12_4 C 0.56687(14) 0.2235(4) 0.7352(4)
C13_4 C 0.58019(15) 0.1458(4) 0.7628(5)
H5_4 H 0.5997 0.1301 0.7389
C14_4 C 0.56556(16) 0.0948(4) 0.8221(5)
H6_4 H 0.5747 0.0442 0.8377
C15_4 C 0.53602(15) 0.1180(4) 0.8608(5)
H7_4 H 0.5261 0.0833 0.9033
C16_4 C 0.52226(15) 0.1916(4) 0.8356(4)
H8_4 H 0.5026 0.2056 0.8602
C17_4 C 0.52750(15) 0.4582(4) 0.6701(5)
H9_4 H 0.5078 0.4742 0.6930
C18_4 C 0.54410(15) 0.5114(4) 0.6158(5)
H10_4 H 0.5356 0.5629 0.6021
C19_4 C 0.57388(15) 0.4889(4) 0.5807(5)
H11_4 H 0.5854 0.5260 0.5459
C20_4 C 0.58617(15) 0.4123(4) 0.5974(5)
H12_4 H 0.6056 0.3977 0.5719
C21_4 C 0.48937(15) 0.3438(4) 0.7757(5)
C22_4 C 0.46138(15) 0.3366(4) 0.6983(5)
C23_4 C 0.42886(14) 0.3562(4) 0.7213(5)
C24_4 C 0.42465(16) 0.3794(4) 0.8235(5)
C25_4 C 0.45245(14) 0.3867(4) 0.8996(5)
C26_4 C 0.48526(15) 0.3698(4) 0.8762(5)
C27_4 C 0.51295(15) 0.3781(4) 0.9556(5)
H13_4 H 0.5343 0.3693 0.9401
C31_4 C 0.40093(15) 0.3513(4) 0.6401(5)
H17_4 H 0.3799 0.3653 0.6543
C32_4 C 0.40484(16) 0.3264(4) 0.5425(5)
H18_4 H 0.3867 0.3242 0.4903
C33_4 C 0.43721(15) 0.3036(4) 0.5215(5)
H19_4 H 0.4398 0.2844 0.4559
C34_4 C 0.46424(15) 0.3096(4) 0.5959(5)
H20_4 H 0.4851 0.2958 0.5796
C35_4 C 0.39006(15) 0.3919(4) 0.8455(5)
C36_4 C 0.37050(15) 0.3248(4) 0.8580(5)
H21_4 H 0.3800 0.2738 0.8590
C37_4 C 0.33712(15) 0.3323(4) 0.8691(5)
H22_4 H 0.3246 0.2868 0.8793
C38_4 C 0.32223(14) 0.4089(4) 0.8649(5)
C39_4 C 0.34173(15) 0.4760(4) 0.8554(5)
H23_4 H 0.3323 0.5270 0.8542
C40_4 C 0.37535(15) 0.4675(4) 0.8477(5)
H24_4 H 0.3883 0.5133 0.8440
C41_4 C 0.28554(15) 0.4177(4) 0.8665(5)
C42_4 C 0.84137(15) 0.1980(4) 0.4636(5)
C43_4 C 0.87378(14) 0.1977(4) 0.5140(5)
H25_4 H 0.8784 0.1795 0.5822
C44_4 C 0.89933(15) 0.2246(4) 0.4628(5)
H26_4 H 0.9211 0.2232 0.4966
C45_4 C 0.89307(14) 0.2536(4) 0.3621(5)
C46_4 C 0.86051(16) 0.2545(5) 0.3123(5)
H27_4 H 0.8559 0.2737 0.2446
C47_4 C 0.83460(15) 0.2271(4) 0.3626(5)
H28_4 H 0.8128 0.2282 0.3287
C48_4 C 0.92157(14) 0.2819(4) 0.3120(5)
C49_4 C 0.93429(15) 0.3606(4) 0.3334(5)
C50_4 C 0.96477(14) 0.3843(4) 0.2990(5)
C51_4 C 0.98141(15) 0.3314(4) 0.2401(5)
C52_4 C 0.96735(14) 0.2565(4) 0.2114(5)
C53_4 C 0.93710(14) 0.2305(4) 0.2488(4)
C54_4 C 0.92401(15) 0.1527(4) 0.2198(5)
H29_4 H 0.9050 0.1353 0.2454
C55_4 C 0.93825(16) 0.1041(4) 0.1568(5)
H30_4 H 0.9292 0.0537 0.1391
C56_4 C 0.96709(15) 0.1299(4) 0.1177(5)
H31_4 H 0.9763 0.0968 0.0717
C57_4 C 0.98183(15) 0.2015(4) 0.1450(5)
C58_4 C 0.91680(16) 0.4166(4) 0.3904(5)
H33_4 H 0.8970 0.4015 0.4131
C59_4 C 0.92937(16) 0.4919(4) 0.4111(5)
H34_2 H 0.9175 0.5282 0.4462
C60_2 C 0.95961(16) 0.5159(4) 0.3809(5)
H35_2 H 0.9679 0.5673 0.3973
C61_4 C 0.97720(15) 0.4636(4) 0.3268(5)
H36_4 H 0.9974 0.4798 0.3079
C68_4 C 0.98794(15) 0.3867(4) 0.0319(5)
H37_4 H 0.9669 0.3823 0.0519
C83_4 C 0.7027(2) 0.1138(6) 0.0637(6)
H49_4 H 0.7133 0.1632 0.0600
C86_4 C 0.8092(2) 0.0306(7) 0.1885(7)
C87_4 C 0.8441(2) 0.0531(8) 0.0576(8)
H57_4 H 0.8584 0.0991 0.0583
H58_4 H 0.8562 0.0091 0.0928
C88_4 C 0.7971(3) 0.1404(7) 0.0783(10)
H60_4 H 0.7870 0.1342 0.0074
H61_4 H 0.7801 0.1466 0.1219
H62_4 H 0.8112 0.1872 0.0844
H63_4 H 0.8470 0.0330 0.7205
O12_4 O 0.71425(10) 0.1315(3) 0.5058(3)
C95_4 C 0.68682(14) 0.1513(4) 0.4540(5)
C96_4 C 0.81379(14) 0.1696(4) 0.5190(5)
O10_4 O 0.72069(19) 0.9634(4) 0.3414(6)
N3_4 N 0.7259(3) 0.8271(6) 0.3411(7)
N4_4 N 0.84522(17) 0.9198(4) 0.7435(5)
H54_4 H 0.6664 0.9903 0.0366
H56_4 H 0.8226 0.9864 0.2089
C89_4 C 0.83320(19) 0.9929(6) 0.7402(6)
C90_4 C 0.8775(2) 0.8994(6) 0.7161(7)
H64_4 H 0.8907 0.8742 0.7743
H65_4 H 0.8747 0.8630 0.6581
H66_4 H 0.8884 0.9475 0.6976
C91_4 C 0.8243(3) 0.8542(6) 0.7755(9)
H67_4 H 0.8248 0.8093 0.7294
H68_4 H 0.8326 0.8379 0.8452
H69_4 H 0.8018 0.8729 0.7727
C92_4 C 0.7354(3) 0.9092(9) 0.3294(9)
H70_4 H 0.7562 0.9178 0.3094
C93_4 C 0.7492(3) 0.7626(8) 0.3232(9)
H71_4 H 0.7546 0.7316 0.3856
H72_4 H 0.7390 0.7283 0.2683
H73_4 H 0.7691 0.7858 0.3039
C94_4 C 0.6945(3) 0.8057(8) 0.3757(8)
H74_4 H 0.6986 0.7688 0.4330
H75_4 H 0.6840 0.8533 0.3973
H76_4 H 0.6802 0.7807 0.3195
H34_3 H 0.9175 0.9718 0.9462
C60_3 C 0.95961(16) 0.9841(4) 0.8809(5)
H35_3 H 0.9679 0.9327 0.8973
H53_3 H 0.3275 0.0198 0.0791
N2_3 N 0.31441(18) 0.9106(4) 0.0208(5)
C69_3 C 0.00896(18) 0.5981(4) 0.0683(6)
H38_3 H 0.0280 0.5935 0.1168
C84_3 C 0.3168(4) 0.8643(6) 0.1139(7)
H50_3 H 0.3156 0.8995 0.1718
H51_3 H 0.3376 0.8360 0.1239
H52_3 H 0.2988 0.8264 0.1085
C85_3 C 0.3351(2) 0.9838(6) 0.0300(8)
H55_3 H 0.3579 0.9694 0.0532
H59_3 H 0.1637 0.9620 0.0130
C28_3 C 0.49147(16) 0.6012(4) 0.9450(5)
H14_3 H 0.4732 0.5978 0.8932
C29_3 C 0.52387(17) 0.5849(4) 0.9212(5)
H15_3 H 0.5267 0.5705 0.8539
C30_3 C 0.55098(16) 0.5901(4) 0.9962(5)
H16_3 H 0.5720 0.5784 0.9795
H32_3 H 0.9985 0.7847 0.8795
C62_3 C 0.98555(15) 0.6468(4) 0.7889(5)
C63_3 C 0.95637(15) 0.6546(4) 0.7167(5)
C64_3 C 0.92444(15) 0.6373(4) 0.7450(5)
C65_3 C 0.92197(16) 0.6159(4) 0.8501(5)
C66_3 C 0.95114(16) 0.6101(4) 0.9239(5)
C67_3 C 0.98319(16) 0.6227(4) 0.8932(5)
C72_3 C 0.95748(16) 0.6811(4) 0.6143(5)
H41_3 H 0.9780 0.6940 0.5945
C73_3 C 0.92959(15) 0.6885(4) 0.5434(5)
H42_2 H 0.9311 0.7067 0.4765
C74_3 C 0.89809(16) 0.6683(4) 0.5726(5)
H43_3 H 0.8791 0.6716 0.5237
C75_3 C 0.89557(15) 0.6444(4) 0.6699(5)
H44_3 H 0.8748 0.6325 0.6882
C76_3 C 0.88898(15) 0.6049(4) 0.8847(5)
C77_3 C 0.87676(16) 0.5282(4) 0.9054(6)
H45_3 H 0.8891 0.4827 0.8943
C78_3 C 0.84629(17) 0.5194(4) 0.9425(6)
H46_3 H 0.8382 0.4683 0.9539
C79_3 C 0.82793(16) 0.5870(4) 0.9626(5)
C80_3 C 0.83949(16) 0.6620(5) 0.9406(6)
H47_3 H 0.8273 0.7076 0.9527
C81_3 C 0.86912(16) 0.6701(4) 0.9007(5)
H48_3 H 0.8760 0.7212 0.8840
H34_4 H 0.0825 0.0282 0.0538
C60_4 C 0.04039(16) 0.0159(4) 0.1191(5)
H35_4 H 0.0321 0.0673 0.1027
H42_3 H 0.9311 0.7933 0.9765
H32_4 H 0.0015 0.2153 0.1205
C62_4 C 0.01445(15) 0.3532(4) 0.2111(5)
C63_4 C 0.04363(15) 0.3454(4) 0.2833(5)
C64_4 C 0.07556(15) 0.3627(4) 0.2550(5)
C65_4 C 0.07803(16) 0.3841(4) 0.1499(5)
C66_4 C 0.04886(16) 0.3899(4) 0.0761(5)
C67_4 C 0.01681(16) 0.3773(4) 0.1068(5)
C72_4 C 0.04252(16) 0.3189(4) 0.3857(5)
H41_4 H 0.0220 0.3060 0.4055
C73_4 C 0.07041(15) 0.3115(4) 0.4566(5)
H42_4 H 0.0689 0.2933 0.5235
C74_4 C 0.10191(16) 0.3317(4) 0.4274(5)
H43_4 H 0.1209 0.3284 0.4763
C75_4 C 0.10443(15) 0.3556(4) 0.3301(5)
H44_4 H 0.1252 0.3675 0.3118
C76_4 C 0.11102(15) 0.3951(4) 0.1153(5)
C77_4 C 0.12324(16) 0.4718(4) 0.0946(6)
H45_4 H 0.1109 0.5173 0.1057
C78_4 C 0.15371(17) 0.4806(4) 0.0575(6)
H46_4 H 0.1618 0.5317 0.0461
C79_4 C 0.17207(16) 0.4130(4) 0.0374(5)
C80_4 C 0.16051(16) 0.3380(5) 0.0594(6)
H47_4 H 0.1727 0.2924 0.0473
C81_4 C 0.13088(16) 0.3299(4) 0.0993(5)
H48_4 H 0.1240 0.2788 0.1160
C28_4 C 0.50853(16) 0.3988(4) 0.0550(5)
H14_4 H 0.5268 0.4022 0.1068
C29_4 C 0.47613(17) 0.4151(4) 0.0788(5)
H15_4 H 0.4733 0.4295 0.1461
C30_4 C 0.44902(16) 0.4099(4) 0.0038(5)
H16_4 H 0.4280 0.4216 0.0205
N2_4 N 0.68559(18) 0.0894(4) 0.9792(5)
C69_4 C 0.99104(18) 0.4019(4) 0.9317(6)
H38_4 H 0.9720 0.4065 0.8832
C84_4 C 0.6832(4) 0.1357(6) 0.8861(7)
H50_4 H 0.6844 0.1005 0.8282
H51_4 H 0.6624 0.1640 0.8761
H52_4 H 0.7012 0.1736 0.8915
C85_4 C 0.6649(2) 0.0162(6) 0.9700(8)
H55_4 H 0.6421 0.0306 0.9468
H59_4 H 0.8363 0.0380 0.9870
H53_4 H 0.6725 0.9802 0.9209
loop_
_geom_bond_atom_site_label_1
_geom_bond_atom_site_label_2
_geom_bond_site_symmetry_1
_geom_bond_site_symmetry_2
O6 C82 1_555 1_555
O7 C82 1_555 1_555
C63 C62 1_555 1_555
C64 C63 1_555 1_555
C65 C64 1_555 1_555
C66 C65 1_555 1_555
C67 C62 1_555 1_555
H39 C70 1_555 1_555
C71 C66 1_555 1_555
H40 C71 1_555 1_555
C72 C63 1_555 1_555
H41 C72 1_555 1_555
C73 C72 1_555 1_555
C74 C73 1_555 1_555
H43 C74 1_555 1_555
C75 C64 1_555 1_555
H44 C75 1_555 1_555
C76 C65 1_555 1_555
C77 C76 1_555 1_555
C78 C77 1_555 1_555
C79 C78 1_555 1_555
C80 C79 1_555 1_555
H47 C80 1_555 1_555
C81 C76 1_555 1_555
H48 C81 1_555 1_555
C82 C79 1_555 1_555
C66 C67 1_555 1_555
C70 C71 1_555 1_555
C74 C75 1_555 1_555
C80 C81 1_555 1_555
Sr1 O4 1_555 1_555
O2 C41 1_555 1_555
O3 C41 1_555 1_555
O4 C96 1_555 1_555
O11 Sr1 1_555 1_555
N4 C89 1_555 1_555
C1 C2 1_555 1_555
C2 H1 1_555 1_555
C3 C2 1_555 1_555
H2 C3 1_555 1_555
C4 C3 1_555 1_555
C5 C4 1_555 1_555
C7 C4 1_555 1_555
C8 C7 1_555 1_555
C9 C8 1_555 1_555
C10 C9 1_555 1_555
C11 C10 1_555 1_555
C12 C7 1_555 1_555
C13 C12 1_555 1_555
H5 C13 1_555 1_555
C14 C13 1_555 1_555
H6 C14 1_555 1_555
C15 C14 1_555 1_555
H7 C15 1_555 1_555
C16 C11 1_555 1_555
H8 C16 1_555 1_555
C17 C9 1_555 1_555
H9 C17 1_555 1_555
C20 C8 1_555 1_555
H12 C20 1_555 1_555
C21 C10 1_555 1_555
C22 C21 1_555 1_555
C23 C22 1_555 1_555
C24 C23 1_555 1_555
C25 C24 1_555 1_555
C26 C21 1_555 1_555
C27 C26 1_555 1_555
H13 C27 1_555 1_555
C28 C27 1_555 1_555
H14 C28 1_555 1_555
C29 C28 1_555 1_555
H15 C29 1_555 1_555
C30 C25 1_555 1_555
H16 C30 1_555 1_555
C31 C23 1_555 1_555
H17 C31 1_555 1_555
C32 C31 1_555 1_555
C33 C32 1_555 1_555
C34 C22 1_555 1_555
H20 C34 1_555 1_555
C35 C24 1_555 1_555
C36 C35 1_555 1_555
H21 C36 1_555 1_555
C37 C36 1_555 1_555
H22 C37 1_555 1_555
C38 C37 1_555 1_555
C39 C38 1_555 1_555
C40 C35 1_555 1_555
C41 C38 1_555 1_555
C43 H25 1_555 1_555
C89 O11 1_555 1_555
H63 C89 1_555 1_555
C90 N4 1_555 1_555
H64 C90 1_555 1_555
H65 C90 1_555 1_555
H66 C90 1_555 1_555
C91 N4 1_555 1_555
H67 C91 1_555 1_555
H68 C91 1_555 1_555
H69 C91 1_555 1_555
O12 Sr1 1_555 1_555
Cl1 Sr1 1_555 1_555
Sr5 Cl1 1_555 1_555
O13 Sr1 1_555 1_555
O14 Sr1 1_555 1_555
C11 C12 1_555 1_555
C15 C16 1_555 1_555
C19 C20 1_555 1_555
C25 C26 1_555 1_555
C29 C30 1_555 1_555
C33 C34 1_555 1_555
C39 C40 1_555 1_555
Sr2 O1 1_555 1_555
O1 C95 1_555 1_555
O8 Sr2 1_555 1_555
O9 Sr2 1_555 1_555
O10 Sr2 1_555 1_555
N1 C86 1_555 1_555
N2 C83 1_555 1_555
N3 C92 1_555 1_555
H4 C6 1_555 1_555
H26 C44 1_555 1_555
C45 C44 1_555 1_555
C46 C45 1_555 1_555
H27 C46 1_555 1_555
C47 C42 1_555 1_555
H28 C47 1_555 1_555
C48 C45 1_555 1_555
C49 C48 1_555 1_555
C50 C49 1_555 1_555
C51 C50 1_555 1_555
C52 C51 1_555 1_555
C53 C48 1_555 1_555
C54 C53 1_555 1_555
H29 C54 1_555 1_555
C55 C54 1_555 1_555
H30 C55 1_555 1_555
C56 C55 1_555 1_555
H31 C56 1_555 1_555
C57 C52 1_555 1_555
C58 C49 1_555 1_555
H33 C58 1_555 1_555
C59 C58 1_555 1_555
C61 C50 1_555 1_555
H36 C61 1_555 1_555
H37 C68 1_555 1_555
C69 C68 1_555 1_555
H38 C69 1_555 1_555
C83 O9 1_555 1_555
H49 C83 1_555 1_555
C84 N2 1_555 1_555
H50 C84 1_555 1_555
H51 C84 1_555 1_555
H52 C84 1_555 1_555
C85 N2 1_555 1_555
H53 C85 1_555 1_555
H54 C85 1_555 1_555
H55 C85 1_555 1_555
C86 O8 1_555 1_555
H56 C86 1_555 1_555
C87 N1 1_555 1_555
H57 C87 1_555 1_555
H58 C87 1_555 1_555
H59 C87 1_555 1_555
C88 N1 1_555 1_555
H60 C88 1_555 1_555
H61 C88 1_555 1_555
H62 C88 1_555 1_555
C92 O10 1_555 1_555
H70 C92 1_555 1_555
C93 N3 1_555 1_555
H71 C93 1_555 1_555
H72 C93 1_555 1_555
H73 C93 1_555 1_555
C94 N3 1_555 1_555
H74 C94 1_555 1_555
H75 C94 1_555 1_555
H76 C94 1_555 1_555
Cl2 Sr2 1_555 1_555
Sr2 O5 1_555 1_555
C46 C47 1_555 1_555
C52 C53 1_555 1_555
C56 C57 1_555 1_555
H10 C18 1_555 1_555
N3_2 C92_2 1_555 1_555
N4_2 C89_2 1_555 1_555
C90_2 N4_2 1_555 1_555
H64_2 C90_2 1_555 1_555
H65_2 C90_2 1_555 1_555
H66_2 C90_2 1_555 1_555
C91_2 N4_2 1_555 1_555
H67_2 C91_2 1_555 1_555
H68_2 C91_2 1_555 1_555
H69_2 C91_2 1_555 1_555
C92_2 O10_2 1_555 1_555
H70_2 C92_2 1_555 1_555
C93_2 N3_2 1_555 1_555
H71_2 C93_2 1_555 1_555
H72_2 C93_2 1_555 1_555
H73_2 C93_2 1_555 1_555
C94_2 N3_2 1_555 1_555
H74_2 C94_2 1_555 1_555
H75_2 C94_2 1_555 1_555
H76_2 C94_2 1_555 1_555
Sr4 O4_2 1_555 1_555
Sr2_2 O1_2 1_555 1_555
O1_2 C95_2 1_555 1_555
O2_2 C41_2 1_555 1_555
O13 C41_2 1_555 1_555
O4_2 C96_2 1_555 1_555
O5_2 Sr4 1_555 1_555
O8_2 Sr2_2 1_555 1_555
O9_2 Sr2_2 1_555 1_555
O11_2 Sr4 1_555 1_555
N1_2 C86_2 1_555 1_555
C1_2 C2_2 1_555 1_555
C2_2 H1_2 1_555 1_555
C3_2 C2_2 1_555 1_555
H2_2 C3_2 1_555 1_555
C4_2 C3_2 1_555 1_555
C5_2 C4_2 1_555 1_555
H3_2 C5_2 1_555 1_555
C6_2 C1_2 1_555 1_555
H4_2 C6_2 1_555 1_555
C7_2 C4_2 1_555 1_555
C8_2 C7_2 1_555 1_555
C9_2 C8_2 1_555 1_555
C10_2 C9_2 1_555 1_555
C11_2 C10_2 1_555 1_555
C12_2 C7_2 1_555 1_555
C13_2 C12_2 1_555 1_555
H5_2 C13_2 1_555 1_555
C14_2 C13_2 1_555 1_555
H6_2 C14_2 1_555 1_555
C15_2 C14_2 1_555 1_555
H7_2 C15_2 1_555 1_555
C16_2 C11_2 1_555 1_555
H8_2 C16_2 1_555 1_555
C17_2 C9_2 1_555 1_555
H9_2 C17_2 1_555 1_555
C18_2 C17_2 1_555 1_555
H10_2 C18_2 1_555 1_555
C19_2 C18_2 1_555 1_555
H11_2 C19_2 1_555 1_555
C20_2 C8_2 1_555 1_555
H12_2 C20_2 1_555 1_555
C21_2 C10_2 1_555 1_555
C22_2 C21_2 1_555 1_555
C23_2 C22_2 1_555 1_555
C24_2 C23_2 1_555 1_555
C25_2 C24_2 1_555 1_555
C26_2 C21_2 1_555 1_555
C27_2 C26_2 1_555 1_555
H13_2 C27_2 1_555 1_555
C31_2 C23_2 1_555 1_555
H17_2 C31_2 1_555 1_555
C32_2 C31_2 1_555 1_555
H18_2 C32_2 1_555 1_555
C33_2 C32_2 1_555 1_555
H19_2 C33_2 1_555 1_555
C34_2 C22_2 1_555 1_555
H20_2 C34_2 1_555 1_555
C35_2 C24_2 1_555 1_555
C36_2 C35_2 1_555 1_555
H21_2 C36_2 1_555 1_555
C37_2 C36_2 1_555 1_555
H22_2 C37_2 1_555 1_555
C38_2 C37_2 1_555 1_555
C39_2 C38_2 1_555 1_555
H23_2 C39_2 1_555 1_555
C40_2 C35_2 1_555 1_555
H24_2 C40_2 1_555 1_555
C41_2 C38_2 1_555 1_555
C42_2 C43_2 1_555 1_555
C43_2 H25_2 1_555 1_555
C44_2 C43_2 1_555 1_555
H26_2 C44_2 1_555 1_555
C45_2 C44_2 1_555 1_555
C46_2 C45_2 1_555 1_555
H27_2 C46_2 1_555 1_555
C47_2 C42_2 1_555 1_555
H28_2 C47_2 1_555 1_555
C48_2 C45_2 1_555 1_555
C49_2 C48_2 1_555 1_555
C50_2 C49_2 1_555 1_555
C51_2 C50_2 1_555 1_555
C52_2 C51_2 1_555 1_555
C53_2 C48_2 1_555 1_555
C54_2 C53_2 1_555 1_555
H29_2 C54_2 1_555 1_555
C55_2 C54_2 1_555 1_555
H30_2 C55_2 1_555 1_555
C56_2 C55_2 1_555 1_555
H31_2 C56_2 1_555 1_555
C57_2 C52_2 1_555 1_555
C58_2 C49_2 1_555 1_555
H33_2 C58_2 1_555 1_555
C59_2 C58_2 1_555 1_555
H34 C59_2 1_555 1_555
C60 C59_2 1_555 1_555
H35 C60 1_555 1_555
C61_2 C50_2 1_555 1_555
H36_2 C61_2 1_555 1_555
H37_2 C68_2 1_555 1_555
C83_2 O9_2 1_555 1_555
H49_2 C83_2 1_555 1_555
C86_2 O8_2 1_555 1_555
C87_2 N1_2 1_555 1_555
H57_2 C87_2 1_555 1_555
H58_2 C87_2 1_555 1_555
C88_2 N1_2 1_555 1_555
H60_2 C88_2 1_555 1_555
H61_2 C88_2 1_555 1_555
H62_2 C88_2 1_555 1_555
O12_2 Sr4 1_555 1_555
C95_2 C1_2 1_555 1_555
C96_2 O5_2 1_555 1_555
Cl1_2 Sr4 1_555 1_555
Sr5_2 Cl1_2 1_555 1_555
Cl2_2 Sr2_2 1_555 1_555
Sr2_2 O5_2 1_555 1_555
Sr2_2 O12_2 1_555 1_555
C5_2 C6_2 1_555 1_555
C11_2 C12_2 1_555 1_555
C15_2 C16_2 1_555 1_555
C19_2 C20_2 1_555 1_555
C25_2 C26_2 1_555 1_555
C33_2 C34_2 1_555 1_555
C39_2 C40_2 1_555 1_555
C42_2 C96_2 1_555 1_555
C46_2 C47_2 1_555 1_555
C52_2 C53_2 1_555 1_555
C56_2 C57_2 1_555 1_555
C60 C61_2 1_555 1_555
O12_2 C95_2 1_555 1_555
O14 C82_2 1_555 1_555
O7_2 C82_2 1_555 1_555
H39_2 C70_2 1_555 1_555
H40_2 C71_2 1_555 1_555
C70_2 C71_2 1_555 1_555
H10_3 C18_3 1_555 1_555
Sr5_2 O1_3 1_555 1_555
O1_3 C95_3 1_555 1_555
O8_3 Sr5_2 1_555 1_555
O9_3 Sr5_2 1_555 1_555
O10_3 Sr5_2 1_555 1_555
N1_3 C86_3 1_555 1_555
N2_2 C83_3 1_555 1_555
N3_3 C92_3 1_555 1_555
H4_3 C6_3 1_555 1_555
H26_3 C44_3 1_555 1_555
C45_3 C44_3 1_555 1_555
C46_3 C45_3 1_555 1_555
H27_3 C46_3 1_555 1_555
C47_3 C42_3 1_555 1_555
H28_3 C47_3 1_555 1_555
C48_3 C45_3 1_555 1_555
C49_3 C48_3 1_555 1_555
C50_3 C49_3 1_555 1_555
C51_3 C50_3 1_555 1_555
C52_3 C51_3 1_555 1_555
C53_3 C48_3 1_555 1_555
C54_3 C53_3 1_555 1_555
H29_3 C54_3 1_555 1_555
C55_3 C54_3 1_555 1_555
H30_3 C55_3 1_555 1_555
C56_3 C55_3 1_555 1_555
H31_3 C56_3 1_555 1_555
C57_3 C52_3 1_555 1_555
C58_3 C49_3 1_555 1_555
H33_3 C58_3 1_555 1_555
C59_3 C58_3 1_555 1_555
C61_3 C50_3 1_555 1_555
H36_3 C61_3 1_555 1_555
H37_3 C68_3 1_555 1_555
C69_2 C68_3 1_555 1_555
H38_2 C69_2 1_555 1_555
C83_3 O9_3 1_555 1_555
H49_3 C83_3 1_555 1_555
C84_2 N2_2 1_555 1_555
H50_2 C84_2 1_555 1_555
H51_2 C84_2 1_555 1_555
H52_2 C84_2 1_555 1_555
C85_2 N2_2 1_555 1_555
H53_2 C85_2 1_555 1_555
H54_3 C85_2 1_555 1_555
H55_2 C85_2 1_555 1_555
C86_3 O8_3 1_555 1_555
H56_3 C86_3 1_555 1_555
C87_3 N1_3 1_555 1_555
H57_3 C87_3 1_555 1_555
H58_3 C87_3 1_555 1_555
H59_2 C87_3 1_555 1_555
C88_3 N1_3 1_555 1_555
H60_3 C88_3 1_555 1_555
H61_3 C88_3 1_555 1_555
H62_3 C88_3 1_555 1_555
C92_3 O10_3 1_555 1_555
H70_3 C92_3 1_555 1_555
C93_3 N3_3 1_555 1_555
H71_3 C93_3 1_555 1_555
H72_3 C93_3 1_555 1_555
H73_3 C93_3 1_555 1_555
C94_3 N3_3 1_555 1_555
H74_3 C94_3 1_555 1_555
H75_3 C94_3 1_555 1_555
H76_3 C94_3 1_555 1_555
Sr5_2 O5_3 1_555 1_555
C46_3 C47_3 1_555 1_555
C52_3 C53_3 1_555 1_555
C56_3 C57_3 1_555 1_555
Sr1_2 O4_3 1_555 1_555
O2_3 C41_3 1_555 1_555
O3_2 C41_3 1_555 1_555
O4_3 C96_3 1_555 1_555
O11_3 Sr1_2 1_555 1_555
N4_3 C89_3 1_555 1_555
C1_3 C2_3 1_555 1_555
C2_3 H1_3 1_555 1_555
C3_3 C2_3 1_555 1_555
H2_3 C3_3 1_555 1_555
C4_3 C3_3 1_555 1_555
C5_3 C4_3 1_555 1_555
C7_3 C4_3 1_555 1_555
C8_3 C7_3 1_555 1_555
C9_3 C8_3 1_555 1_555
C10_3 C9_3 1_555 1_555
C11_3 C10_3 1_555 1_555
C12_3 C7_3 1_555 1_555
C13_3 C12_3 1_555 1_555
H5_3 C13_3 1_555 1_555
C14_3 C13_3 1_555 1_555
H6_3 C14_3 1_555 1_555
C15_3 C14_3 1_555 1_555
H7_3 C15_3 1_555 1_555
C16_3 C11_3 1_555 1_555
H8_3 C16_3 1_555 1_555
C17_3 C9_3 1_555 1_555
H9_3 C17_3 1_555 1_555
C20_3 C8_3 1_555 1_555
H12_3 C20_3 1_555 1_555
C21_3 C10_3 1_555 1_555
C22_3 C21_3 1_555 1_555
C23_3 C22_3 1_555 1_555
C24_3 C23_3 1_555 1_555
C25_3 C24_3 1_555 1_555
C26_3 C21_3 1_555 1_555
C27_3 C26_3 1_555 1_555
H13_3 C27_3 1_555 1_555
C28_2 C27_3 1_555 1_555
H14_2 C28_2 1_555 1_555
C29_2 C28_2 1_555 1_555
H15_2 C29_2 1_555 1_555
C30_2 C25_3 1_555 1_555
H16_2 C30_2 1_555 1_555
C31_3 C23_3 1_555 1_555
H17_3 C31_3 1_555 1_555
C32_3 C31_3 1_555 1_555
C33_3 C32_3 1_555 1_555
C34_3 C22_3 1_555 1_555
H20_3 C34_3 1_555 1_555
C35_3 C24_3 1_555 1_555
C36_3 C35_3 1_555 1_555
H21_3 C36_3 1_555 1_555
C37_3 C36_3 1_555 1_555
H22_3 C37_3 1_555 1_555
C38_3 C37_3 1_555 1_555
C39_3 C38_3 1_555 1_555
C40_3 C35_3 1_555 1_555
C41_3 C38_3 1_555 1_555
C43_3 H25_3 1_555 1_555
C89_3 O11_3 1_555 1_555
H63_3 C89_3 1_555 1_555
C90_3 N4_3 1_555 1_555
H64_3 C90_3 1_555 1_555
H65_3 C90_3 1_555 1_555
H66_3 C90_3 1_555 1_555
C91_3 N4_3 1_555 1_555
H67_3 C91_3 1_555 1_555
H68_3 C91_3 1_555 1_555
H69_3 C91_3 1_555 1_555
O12_3 Sr1_2 1_555 1_555
Cl2_2 Sr1_2 1_555 1_555
O13_2 Sr1_2 1_555 1_555
O14_2 Sr1_2 1_555 1_555
C11_3 C12_3 1_555 1_555
C15_3 C16_3 1_555 1_555
C19_3 C20_3 1_555 1_555
C25_3 C26_3 1_555 1_555
C29_2 C30_2 1_555 1_555
C33_3 C34_3 1_555 1_555
C39_3 C40_3 1_555 1_555
O6_2 C82_3 1_555 1_555
O7_3 C82_3 1_555 1_555
C63_2 C62_2 1_555 1_555
C64_2 C63_2 1_555 1_555
C65_2 C64_2 1_555 1_555
C66_2 C65_2 1_555 1_555
C67_2 C62_2 1_555 1_555
H39_3 C70_3 1_555 1_555
C71_3 C66_2 1_555 1_555
H40_3 C71_3 1_555 1_555
C72_2 C63_2 1_555 1_555
H41_2 C72_2 1_555 1_555
C73_2 C72_2 1_555 1_555
C74_2 C73_2 1_555 1_555
H43_2 C74_2 1_555 1_555
C75_2 C64_2 1_555 1_555
H44_2 C75_2 1_555 1_555
C76_2 C65_2 1_555 1_555
C77_2 C76_2 1_555 1_555
C78_2 C77_2 1_555 1_555
C79_2 C78_2 1_555 1_555
C80_2 C79_2 1_555 1_555
H47_2 C80_2 1_555 1_555
C81_2 C76_2 1_555 1_555
H48_2 C81_2 1_555 1_555
C82_3 C79_2 1_555 1_555
C66_2 C67_2 1_555 1_555
C70_3 C71_3 1_555 1_555
C74_2 C75_2 1_555 1_555
C80_2 C81_2 1_555 1_555
O14_2 C82_4 1_555 1_555
O7_4 C82_4 1_555 1_555
H39_4 C70_4 1_555 1_555
H40_4 C71_4 1_555 1_555
C70_4 C71_4 1_555 1_555
Sr3 O4_4 1_555 1_555
Sr5 O1_4 1_555 1_555
O1_4 C95_4 1_555 1_555
O2_4 C41_4 1_555 1_555
O13_2 C41_4 1_555 1_555
O4_4 C96_4 1_555 1_555
O5_4 Sr3 1_555 1_555
O8_4 Sr5 1_555 1_555
O9_4 Sr5 1_555 1_555
O11_4 Sr3 1_555 1_555
N1_4 C86_4 1_555 1_555
C1_4 C2_4 1_555 1_555
C2_4 H1_4 1_555 1_555
C3_4 C2_4 1_555 1_555
H2_4 C3_4 1_555 1_555
C4_4 C3_4 1_555 1_555
C5_4 C4_4 1_555 1_555
H3_4 C5_4 1_555 1_555
C6_4 C1_4 1_555 1_555
H4_4 C6_4 1_555 1_555
C7_4 C4_4 1_555 1_555
C8_4 C7_4 1_555 1_555
C9_4 C8_4 1_555 1_555
C10_4 C9_4 1_555 1_555
C11_4 C10_4 1_555 1_555
C12_4 C7_4 1_555 1_555
C13_4 C12_4 1_555 1_555
H5_4 C13_4 1_555 1_555
C14_4 C13_4 1_555 1_555
H6_4 C14_4 1_555 1_555
C15_4 C14_4 1_555 1_555
H7_4 C15_4 1_555 1_555
C16_4 C11_4 1_555 1_555
H8_4 C16_4 1_555 1_555
C17_4 C9_4 1_555 1_555
H9_4 C17_4 1_555 1_555
C18_4 C17_4 1_555 1_555
H10_4 C18_4 1_555 1_555
C19_4 C18_4 1_555 1_555
H11_4 C19_4 1_555 1_555
C20_4 C8_4 1_555 1_555
H12_4 C20_4 1_555 1_555
C21_4 C10_4 1_555 1_555
C22_4 C21_4 1_555 1_555
C23_4 C22_4 1_555 1_555
C24_4 C23_4 1_555 1_555
C25_4 C24_4 1_555 1_555
C26_4 C21_4 1_555 1_555
C27_4 C26_4 1_555 1_555
H13_4 C27_4 1_555 1_555
C31_4 C23_4 1_555 1_555
H17_4 C31_4 1_555 1_555
C32_4 C31_4 1_555 1_555
H18_4 C32_4 1_555 1_555
C33_4 C32_4 1_555 1_555
H19_4 C33_4 1_555 1_555
C34_4 C22_4 1_555 1_555
H20_4 C34_4 1_555 1_555
C35_4 C24_4 1_555 1_555
C36_4 C35_4 1_555 1_555
H21_4 C36_4 1_555 1_555
C37_4 C36_4 1_555 1_555
H22_4 C37_4 1_555 1_555
C38_4 C37_4 1_555 1_555
C39_4 C38_4 1_555 1_555
H23_4 C39_4 1_555 1_555
C40_4 C35_4 1_555 1_555
H24_4 C40_4 1_555 1_555
C41_4 C38_4 1_555 1_555
C42_4 C43_4 1_555 1_555
C43_4 H25_4 1_555 1_555
C44_4 C43_4 1_555 1_555
H26_4 C44_4 1_555 1_555
C45_4 C44_4 1_555 1_555
C46_4 C45_4 1_555 1_555
H27_4 C46_4 1_555 1_555
C47_4 C42_4 1_555 1_555
H28_4 C47_4 1_555 1_555
C48_4 C45_4 1_555 1_555
C49_4 C48_4 1_555 1_555
C50_4 C49_4 1_555 1_555
C51_4 C50_4 1_555 1_555
C52_4 C51_4 1_555 1_555
C53_4 C48_4 1_555 1_555
C54_4 C53_4 1_555 1_555
H29_4 C54_4 1_555 1_555
C55_4 C54_4 1_555 1_555
H30_4 C55_4 1_555 1_555
C56_4 C55_4 1_555 1_555
H31_4 C56_4 1_555 1_555
C57_4 C52_4 1_555 1_555
C58_4 C49_4 1_555 1_555
H33_4 C58_4 1_555 1_555
C59_4 C58_4 1_555 1_555
H34_2 C59_4 1_555 1_555
C60_2 C59_4 1_555 1_555
H35_2 C60_2 1_555 1_555
C61_4 C50_4 1_555 1_555
H36_4 C61_4 1_555 1_555
H37_4 C68_4 1_555 1_555
C83_4 O9_4 1_555 1_555
H49_4 C83_4 1_555 1_555
C86_4 O8_4 1_555 1_555
C87_4 N1_4 1_555 1_555
H57_4 C87_4 1_555 1_555
H58_4 C87_4 1_555 1_555
C88_4 N1_4 1_555 1_555
H60_4 C88_4 1_555 1_555
H61_4 C88_4 1_555 1_555
H62_4 C88_4 1_555 1_555
O12_4 Sr3 1_555 1_555
C95_4 C1_4 1_555 1_555
C96_4 O5_4 1_555 1_555
Cl2 Sr3 1_555 1_555
Sr5 O5_4 1_555 1_555
Sr5 O12_4 1_555 1_555
C5_4 C6_4 1_555 1_555
C11_4 C12_4 1_555 1_555
C15_4 C16_4 1_555 1_555
C19_4 C20_4 1_555 1_555
C25_4 C26_4 1_555 1_555
C33_4 C34_4 1_555 1_555
C39_4 C40_4 1_555 1_555
C42_4 C96_4 1_555 1_555
C46_4 C47_4 1_555 1_555
C52_4 C53_4 1_555 1_555
C56_4 C57_4 1_555 1_555
C60_2 C61_4 1_555 1_555
O12_4 C95_4 1_555 1_555
N3_4 C92_4 1_555 1_555
N4_4 C89_4 1_555 1_555
C90_4 N4_4 1_555 1_555
H64_4 C90_4 1_555 1_555
H65_4 C90_4 1_555 1_555
H66_4 C90_4 1_555 1_555
C91_4 N4_4 1_555 1_555
H67_4 C91_4 1_555 1_555
H68_4 C91_4 1_555 1_555
H69_4 C91_4 1_555 1_555
C92_4 O10_4 1_555 1_555
H70_4 C92_4 1_555 1_555
C93_4 N3_4 1_555 1_555
H71_4 C93_4 1_555 1_555
H72_4 C93_4 1_555 1_555
H73_4 C93_4 1_555 1_555
C94_4 N3_4 1_555 1_555
H74_4 C94_4 1_555 1_555
H75_4 C94_4 1_555 1_555
H76_4 C94_4 1_555 1_555
H35_3 C60_3 1_555 1_555
H38_3 C69_3 1_555 1_555
C84_3 N2_3 1_555 1_555
H50_3 C84_3 1_555 1_555
H51_3 C84_3 1_555 1_555
H52_3 C84_3 1_555 1_555
C85_3 N2_3 1_555 1_555
H55_3 C85_3 1_555 1_555
H14_3 C28_3 1_555 1_555
C29_3 C28_3 1_555 1_555
H15_3 C29_3 1_555 1_555
H16_3 C30_3 1_555 1_555
C29_3 C30_3 1_555 1_555
C63_3 C62_3 1_555 1_555
C64_3 C63_3 1_555 1_555
C65_3 C64_3 1_555 1_555
C66_3 C65_3 1_555 1_555
C67_3 C62_3 1_555 1_555
C72_3 C63_3 1_555 1_555
H41_3 C72_3 1_555 1_555
C73_3 C72_3 1_555 1_555
H42_2 C73_3 1_555 1_555
C74_3 C73_3 1_555 1_555
H43_3 C74_3 1_555 1_555
C75_3 C64_3 1_555 1_555
H44_3 C75_3 1_555 1_555
C76_3 C65_3 1_555 1_555
C77_3 C76_3 1_555 1_555
H45_3 C77_3 1_555 1_555
C78_3 C77_3 1_555 1_555
H46_3 C78_3 1_555 1_555
C79_3 C78_3 1_555 1_555
C80_3 C79_3 1_555 1_555
H47_3 C80_3 1_555 1_555
C81_3 C76_3 1_555 1_555
H48_3 C81_3 1_555 1_555
C66_3 C67_3 1_555 1_555
C74_3 C75_3 1_555 1_555
C80_3 C81_3 1_555 1_555
H35_4 C60_4 1_555 1_555
C63_4 C62_4 1_555 1_555
C64_4 C63_4 1_555 1_555
C65_4 C64_4 1_555 1_555
C66_4 C65_4 1_555 1_555
C67_4 C62_4 1_555 1_555
C72_4 C63_4 1_555 1_555
H41_4 C72_4 1_555 1_555
C73_4 C72_4 1_555 1_555
H42_4 C73_4 1_555 1_555
C74_4 C73_4 1_555 1_555
H43_4 C74_4 1_555 1_555
C75_4 C64_4 1_555 1_555
H44_4 C75_4 1_555 1_555
C76_4 C65_4 1_555 1_555
C77_4 C76_4 1_555 1_555
H45_4 C77_4 1_555 1_555
C78_4 C77_4 1_555 1_555
H46_4 C78_4 1_555 1_555
C79_4 C78_4 1_555 1_555
C80_4 C79_4 1_555 1_555
H47_4 C80_4 1_555 1_555
C81_4 C76_4 1_555 1_555
H48_4 C81_4 1_555 1_555
C66_4 C67_4 1_555 1_555
C74_4 C75_4 1_555 1_555
C80_4 C81_4 1_555 1_555
H14_4 C28_4 1_555 1_555
C29_4 C28_4 1_555 1_555
H15_4 C29_4 1_555 1_555
H16_4 C30_4 1_555 1_555
C29_4 C30_4 1_555 1_555
H38_4 C69_4 1_555 1_555
C84_4 N2_4 1_555 1_555
H50_4 C84_4 1_555 1_555
H51_4 C84_4 1_555 1_555
H52_4 C84_4 1_555 1_555
C85_4 N2_4 1_555 1_555
H55_4 C85_4 1_555 1_555

#END
