
###############################################################################
#
# This file contains modified crystal structure data generated from the
# MOF subset of the Cambridge Structural Database (CSD) v543 
# hosted by the Cambridge Crystallographic Data Centre (CCDC).
#
# This work is licensed under the Creative Commons
# Attribution-NonCommercial-ShareAlike 4.0 International License.
# To view a copy of this license, visit
# http://creativecommons.org/licenses/by-nc-sa/4.0/
# or send a letter to
# Creative Commons, PO Box 1866, Mountain View, CA 94042, USA.
#
# CIF created using the CSD Python API on 29 September 2022
# The structure has been converted into the P1 space group
# The structure has a 3D framework
# The original CSD entry VAJFOE is in the monoclinic crystal system
# The framework has been calculated to contain at least 10.0% void space
# The void calculation uses a probe of radius 1.32A, grid spacing 0.4
# The framework is charged, counterions have been retained in the structure
#
###############################################################################

data_VAJFOE
_chemical_formula_moiety         '(C120 H96 Cl2 Cu11 N24 O80 W26 3+)n'
_symmetry_cell_setting           triclinic
_symmetry_space_group_name_H-M   'P 1'
_symmetry_Int_Tables_number      1
_space_group_name_Hall           'P 1'
loop_
_symmetry_equiv_pos_site_id
_symmetry_equiv_pos_as_xyz
1 x,y,z
_cell_length_a                   20.0634(15)
_cell_length_b                   17.3159(12)
_cell_length_c                   15.642(2)
_cell_angle_alpha                90
_cell_angle_beta                 124.2110(10)
_cell_angle_gamma                90
_cell_volume                     4494
loop_
_atom_site_label
_atom_site_type_symbol
_atom_site_fract_x
_atom_site_fract_y
_atom_site_fract_z
W1 W 0.65236(3) 0.5000 0.50895(4)
W2 W 0.74094(4) 0.5000 0.76044(5)
W3 W 0.60809(2) 0.63364(2) 0.61634(3)
W4 W 0.56357(4) 0.5000 0.72392(4)
O1 O 0.5000 0.6279(5) 0.5000
O2 O 0.4580(5) 0.5000 0.6042(7)
O3 O 0.6097(5) 0.5000 0.6199(7)
O4 O 0.8388(6) 0.5000 0.8658(9)
O5 O 0.6428(4) 0.6077(4) 0.5281(5)
O6 O 0.6800(6) 0.5000 0.8194(7)
O7 O 0.5711(4) 0.6078(4) 0.7019(5)
O8 O 0.6193(4) 0.7320(4) 0.6293(6)
O9 O 0.7148(4) 0.6081(4) 0.7316(5)
O10 O 0.7507(6) 0.5000 0.6461(8)
O11 O 0.5428(7) 0.5000 0.8167(8)
O12 O 0.6977(6) 0.5000 0.4440(8)
W5 W 0.34764(3) 0.5000 0.49105(4)
W6 W 0.25906(4) 0.5000 0.23956(5)
W7 W 0.39191(2) 0.63364(2) 0.38366(3)
W8 W 0.43643(4) 0.5000 0.27608(4)
O13 O 0.5420(5) 0.5000 0.3958(7)
O14 O 0.3903(5) 0.5000 0.3801(7)
O15 O 0.1612(6) 0.5000 0.1342(9)
O16 O 0.3572(4) 0.6077(4) 0.4719(5)
O17 O 0.3200(6) 0.5000 0.1806(7)
O18 O 0.4289(4) 0.6078(4) 0.2981(5)
O19 O 0.3807(4) 0.7320(4) 0.3707(6)
O20 O 0.2852(4) 0.6081(4) 0.2684(5)
O21 O 0.2493(6) 0.5000 0.3539(8)
O22 O 0.4572(7) 0.5000 0.1833(8)
O23 O 0.3023(6) 0.5000 0.5560(8)
W9 W 0.39191(2) 0.36636(2) 0.38366(3)
O24 O 0.5000 0.3721(5) 0.5000
O25 O 0.3572(4) 0.3923(4) 0.4719(5)
O26 O 0.4289(4) 0.3922(4) 0.2981(5)
O27 O 0.3807(4) 0.2680(4) 0.3707(6)
O28 O 0.2852(4) 0.3919(4) 0.2684(5)
W10 W 0.60809(2) 0.36636(2) 0.61634(3)
O29 O 0.6428(4) 0.3923(4) 0.5281(5)
O30 O 0.5711(4) 0.3922(4) 0.7019(5)
O31 O 0.6193(4) 0.2680(4) 0.6293(6)
O32 O 0.7148(4) 0.3919(4) 0.7316(5)
W1_2 W 0.15236(3) -0.0000 0.50895(4)
W2_2 W 0.24094(4) -0.0000 0.76044(5)
W3_2 W 0.10809(2) 0.13364(2) 0.61634(3)
W4_2 W 0.06357(4) 0.0000 0.72392(4)
O1_2 O 0.0000 0.1279(5) 0.5000
O3_2 O 0.1097(5) 0.0000 0.6199(7)
O4_2 O 0.3388(6) 0.0000 0.8658(9)
O5_2 O 0.1428(4) 0.1077(4) 0.5281(5)
O6_2 O 0.1800(6) 0.0000 0.8194(7)
O7_2 O 0.0711(4) 0.1078(4) 0.7019(5)
O8_2 O 0.1193(4) 0.2320(4) 0.6293(6)
O9_2 O 0.2148(4) 0.1081(4) 0.7316(5)
O10_2 O 0.2507(6) 0.0000 0.6461(8)
O11_2 O 0.0428(7) 0.0000 0.8167(8)
O12_2 O 0.1977(6) -0.0000 0.4440(8)
O13_2 O 0.0420(5) -0.0000 0.3958(7)
W1_3 W 0.15236(3) 1.0000 0.50895(4)
W2_3 W 0.24094(4) 1.0000 0.76044(5)
W4_3 W 0.06357(4) 1.0000 0.72392(4)
O3_3 O 0.1097(5) 1.0000 0.6199(7)
O4_3 O 0.3388(6) 1.0000 0.8658(9)
O6_3 O 0.1800(6) 1.0000 0.8194(7)
O10_3 O 0.2507(6) 1.0000 0.6461(8)
O11_3 O 0.0428(7) 1.0000 0.8167(8)
O12_3 O 0.1977(6) 1.0000 0.4440(8)
O13_3 O 0.0420(5) 1.0000 0.3958(7)
O24_2 O 0.0000 0.8721(5) 0.5000
W10_2 W 0.10809(2) 0.86636(2) 0.61634(3)
O29_2 O 0.1428(4) 0.8923(4) 0.5281(5)
O30_2 O 0.0711(4) 0.8922(4) 0.7019(5)
O31_2 O 0.1193(4) 0.7680(4) 0.6293(6)
O32_2 O 0.2148(4) 0.8919(4) 0.7316(5)
O1_3 O 1.0000 0.1279(5) 0.5000
O2_2 O 0.9580(5) 0.0000 0.6042(7)
W5_2 W 0.84764(3) -0.0000 0.49105(4)
W6_2 W 0.75906(4) 0.0000 0.23956(5)
W7_2 W 0.89191(2) 0.13364(2) 0.38366(3)
W8_2 W 0.93643(4) 0.0000 0.27608(4)
O14_2 O 0.8903(5) -0.0000 0.3801(7)
O15_2 O 0.6612(6) 0.0000 0.1342(9)
O16_2 O 0.8572(4) 0.1077(4) 0.4719(5)
O17_2 O 0.8200(6) 0.0000 0.1806(7)
O18_2 O 0.9289(4) 0.1078(4) 0.2981(5)
O19_2 O 0.8807(4) 0.2320(4) 0.3707(6)
O20_2 O 0.7852(4) 0.1081(4) 0.2684(5)
O21_2 O 0.7493(6) -0.0000 0.3539(8)
O22_2 O 0.9572(7) 0.0000 0.1833(8)
O23_2 O 0.8023(6) -0.0000 0.5560(8)
O2_3 O 0.9580(5) 1.0000 0.6042(7)
W5_3 W 0.84764(3) 1.0000 0.49105(4)
W6_3 W 0.75906(4) 1.0000 0.23956(5)
W8_3 W 0.93643(4) 1.0000 0.27608(4)
O14_3 O 0.8903(5) 1.0000 0.3801(7)
O15_3 O 0.6612(6) 1.0000 0.1342(9)
O17_3 O 0.8200(6) 1.0000 0.1806(7)
O21_3 O 0.7493(6) 1.0000 0.3539(8)
O22_3 O 0.9572(7) 1.0000 0.1833(8)
O23_3 O 0.8023(6) 1.0000 0.5560(8)
W9_2 W 0.89191(2) 0.86636(2) 0.38366(3)
O24_3 O 1.0000 0.8721(5) 0.5000
O25_2 O 0.8572(4) 0.8923(4) 0.4719(5)
O26_2 O 0.9289(4) 0.8922(4) 0.2981(5)
O27_2 O 0.8807(4) 0.7680(4) 0.3707(6)
O28_2 O 0.7852(4) 0.8919(4) 0.2684(5)
Cu4 Cu 0.22346(11) 0.0000 0.19898(14)
Cu2 Cu 0.47161(11) 0.0000 0.55227(14)
Cl1 Cl 0.6226(8) -0.0000 0.6476(9)
Cu3 Cu 0.77654(11) -0.0000 0.80102(14)
Cu6 Cu 0.52839(11) 0.0000 0.44773(14)
N7 N 0.4356(6) 0.0965(6) 0.5875(9)
Cl2 Cl 0.3774(8) 0.0000 0.3524(9)
H9 H 0.3556 0.5626 0.0119
C12 C 0.3106(17) 0.6645(13) 0.0243(16)
H10 H 0.3520 0.6728 0.0952
C16 C 0.1871(14) 0.9017(10) 0.0271(14)
C18 C 0.2483(9) 0.7856(6) 0.0255(9)
C19 C 0.3051(12) 0.8017(12) 0.1236(15)
H15 H 0.3511 0.7694 0.1627
C20 C 0.2959(11) 0.8672(11) 0.1683(15)
H16 H 0.3354 0.8764 0.2396
N4 N 0.2377(7) 0.9159(5) 0.1199(7)
Cu4_2 Cu 0.22346(11) 1.0000 0.19898(14)
Cu1 Cu 0.27654(11) 0.5000 0.80102(14)
Cu2_2 Cu 0.47161(11) 1.0000 0.55227(14)
C1 C 0.2607(10) 0.6312(12) 0.6753(18)
H1 H 0.2054 0.6242 0.6490
C2 C 0.2819(11) 0.6918(12) 0.6374(18)
H2 H 0.2412 0.7232 0.5833
C3 C 0.3609(7) 0.7068(7) 0.6773(10)
C4 C 0.4141(8) 0.6547(7) 0.7452(11)
H3 H 0.4698 0.6588 0.7719
C5 C 0.3858(8) 0.5954(7) 0.7748(12)
H4 H 0.4245 0.5592 0.8226
C6 C 0.3720(12) 0.9021(3) 0.5871(18)
H5 H 0.3398 0.9474 0.5643
C7 C 0.3460(11) 0.8411(11) 0.617(2)
H6 H 0.2986 0.8459 0.6163
C8 C 0.3877(8) 0.7739(8) 0.6467(12)
C9 C 0.4498(7) 0.7724(6) 0.6357(9)
H7 H 0.4788 0.7257 0.6480
C10 C 0.4717(7) 0.8380(6) 0.6067(10)
H8 H 0.5161 0.8346 0.6007
C11 C 0.3129(14) 0.5983(10) 0.9729(14)
C13 C 0.2517(9) 0.7144(6) 0.9745(9)
C14 C 0.1949(12) 0.6983(12) 0.8764(15)
H11 H 0.1489 0.7306 0.8373
C15 C 0.2041(11) 0.6328(11) 0.8317(15)
H12 H 0.1646 0.6236 0.7604
N1 N 0.3123(6) 0.5840(4) 0.7442(7)
N2 N 0.4356(6) 0.9035(6) 0.5875(9)
N3 N 0.2623(7) 0.5841(5) 0.8801(7)
Cl1_2 Cl 0.6226(8) 1.0000 0.6476(9)
H13 H 0.1444 0.9374 0.9881
C17 C 0.1894(17) 0.8355(13) 0.9757(16)
H14 H 0.1480 0.8272 0.9048
C21 C 0.2607(10) 0.3688(12) 0.6753(18)
H17 H 0.2054 0.3758 0.6490
C22 C 0.2819(11) 0.3082(12) 0.6374(18)
H18 H 0.2412 0.2768 0.5833
C23 C 0.3609(7) 0.2932(7) 0.6773(10)
C24 C 0.4141(8) 0.3453(7) 0.7452(11)
H19 H 0.4698 0.3412 0.7719
C25 C 0.3858(8) 0.4046(7) 0.7748(12)
H20 H 0.4245 0.4408 0.8226
C26 C 0.3720(12) 0.0979(3) 0.5871(18)
H21 H 0.3398 0.0526 0.5643
C27 C 0.3460(11) 0.1589(11) 0.617(2)
H22 H 0.2986 0.1541 0.6163
C28 C 0.3877(8) 0.2261(8) 0.6467(12)
C29 C 0.4498(7) 0.2276(6) 0.6357(9)
H23 H 0.4788 0.2743 0.6480
C30 C 0.4717(7) 0.1620(6) 0.6067(10)
H24 H 0.5161 0.1654 0.6007
N5 N 0.3123(6) 0.4160(4) 0.7442(7)
Cu3_2 Cu 0.77654(11) 1.0000 0.80102(14)
Cu6_2 Cu 0.52839(11) 1.0000 0.44773(14)
N8 N 0.2623(7) 0.4159(5) 0.8801(7)
Cl2_2 Cl 0.3774(8) 1.0000 0.3524(9)
Cl3 Cl 0.1226(8) 0.5000 0.6476(9)
N7_2 N 0.5644(6) 0.0965(6) 0.4125(9)
Cu1_2 Cu 0.72346(11) 0.5000 0.19898(14)
C1_2 C 0.7393(10) 0.6312(12) 0.3247(18)
H1_2 H 0.7946 0.6242 0.3510
C2_2 C 0.7181(11) 0.6918(12) 0.3626(18)
H2_2 H 0.7588 0.7232 0.4167
C3_2 C 0.6391(7) 0.7068(7) 0.3227(10)
C4_2 C 0.5859(8) 0.6547(7) 0.2548(11)
H3_2 H 0.5302 0.6588 0.2281
C5_2 C 0.6142(8) 0.5954(7) 0.2252(12)
H4_2 H 0.5755 0.5592 0.1774
C6_2 C 0.6280(12) 0.9021(3) 0.4129(18)
H5_2 H 0.6602 0.9474 0.4357
C7_2 C 0.6540(11) 0.8411(11) 0.383(2)
H6_2 H 0.7014 0.8459 0.3837
C8_2 C 0.6123(8) 0.7739(8) 0.3533(12)
C9_2 C 0.5502(7) 0.7724(6) 0.3643(9)
H7_2 H 0.5212 0.7257 0.3520
C10_2 C 0.5283(7) 0.8380(6) 0.3933(10)
H8_2 H 0.4839 0.8346 0.3993
C11_2 C 0.6871(14) 0.5983(10) 0.0271(14)
C13_2 C 0.7483(9) 0.7144(6) 0.0255(9)
C14_2 C 0.8051(12) 0.6983(12) 0.1236(15)
H11_2 H 0.8511 0.7306 0.1627
C15_2 C 0.7959(11) 0.6328(11) 0.1683(15)
H12_2 H 0.8354 0.6236 0.2396
N1_2 N 0.6877(6) 0.5840(4) 0.2558(7)
N2_2 N 0.5644(6) 0.9035(6) 0.4125(9)
N3_2 N 0.7377(7) 0.5841(5) 0.1199(7)
H13_2 H 0.8556 0.9374 0.0119
C17_2 C 0.8106(17) 0.8355(13) 0.0243(16)
H14_2 H 0.8520 0.8272 0.0952
C21_2 C 0.7393(10) 0.3688(12) 0.3247(18)
H17_2 H 0.7946 0.3758 0.3510
C22_2 C 0.7181(11) 0.3082(12) 0.3626(18)
H18_2 H 0.7588 0.2768 0.4167
C23_2 C 0.6391(7) 0.2932(7) 0.3227(10)
C24_2 C 0.5859(8) 0.3453(7) 0.2548(11)
H19_2 H 0.5302 0.3412 0.2281
C25_2 C 0.6142(8) 0.4046(7) 0.2252(12)
H20_2 H 0.5755 0.4408 0.1774
C26_2 C 0.6280(12) 0.0979(3) 0.4129(18)
H21_2 H 0.6602 0.0526 0.4357
C27_2 C 0.6540(11) 0.1589(11) 0.383(2)
H22_2 H 0.7014 0.1541 0.3837
C28_2 C 0.6123(8) 0.2261(8) 0.3533(12)
C29_2 C 0.5502(7) 0.2276(6) 0.3643(9)
H23_2 H 0.5212 0.2743 0.3520
C30_2 C 0.5283(7) 0.1620(6) 0.3933(10)
H24_2 H 0.4839 0.1654 0.3993
N5_2 N 0.6877(6) 0.4160(4) 0.2558(7)
N8_2 N 0.7377(7) 0.4159(5) 0.1199(7)
Cl3_2 Cl 0.8774(8) 0.5000 0.3524(9)
H9_2 H 0.6444 0.5626 0.9881
C12_2 C 0.6894(17) 0.6645(13) 0.9757(16)
H10_2 H 0.6480 0.6728 0.9048
C16_2 C 0.8129(14) 0.9017(10) 0.9729(14)
C18_2 C 0.7517(9) 0.7856(6) 0.9745(9)
C19_2 C 0.6949(12) 0.8017(12) 0.8764(15)
H15_2 H 0.6489 0.7694 0.8373
C20_2 C 0.7041(11) 0.8672(11) 0.8317(15)
H16_2 H 0.6646 0.8764 0.7604
N4_2 N 0.7623(7) 0.9159(5) 0.8801(7)
H8_3 H 0.0161 0.3346 0.6007
Cu6_3 Cu 0.02839(11) 0.5000 0.44773(14)
H24_3 H 0.0161 0.6654 0.6007
H9_3 H 0.8556 0.0626 0.0119
C12_3 C 0.8106(17) 0.1645(13) 0.0243(16)
H10_3 H 0.8520 0.1728 0.0952
C16_3 C 0.6871(14) 0.4017(10) 0.0271(14)
C18_3 C 0.7483(9) 0.2856(6) 0.0255(9)
C19_3 C 0.8051(12) 0.3017(12) 0.1236(15)
H15_3 H 0.8511 0.2694 0.1627
C20_3 C 0.7959(11) 0.3672(11) 0.1683(15)
H16_3 H 0.8354 0.3764 0.2396
Cu2_3 Cu 0.97161(11) 0.5000 0.55227(14)
C1_3 C 0.7607(10) 0.1312(12) 0.6753(18)
H1_3 H 0.7054 0.1242 0.6490
C2_3 C 0.7819(11) 0.1918(12) 0.6374(18)
H2_3 H 0.7412 0.2232 0.5833
C3_3 C 0.8609(7) 0.2068(7) 0.6773(10)
C4_3 C 0.9141(8) 0.1547(7) 0.7452(11)
H3_3 H 0.9698 0.1588 0.7719
C5_3 C 0.8858(8) 0.0954(7) 0.7748(12)
H4_3 H 0.9245 0.0592 0.8226
C6_3 C 0.8720(12) 0.4021(3) 0.5871(18)
H5_3 H 0.8398 0.4474 0.5643
C7_3 C 0.8460(11) 0.3411(11) 0.617(2)
H6_3 H 0.7986 0.3459 0.6163
C8_3 C 0.8877(8) 0.2739(8) 0.6467(12)
C9_3 C 0.9498(7) 0.2724(6) 0.6357(9)
H7_3 H 0.9788 0.2257 0.6480
C10_3 C 0.9717(7) 0.3380(6) 0.6067(10)
C11_3 C 0.8129(14) 0.0983(10) 0.9729(14)
C13_3 C 0.7517(9) 0.2144(6) 0.9745(9)
C14_3 C 0.6949(12) 0.1983(12) 0.8764(15)
H11_3 H 0.6489 0.2306 0.8373
C15_3 C 0.7041(11) 0.1328(11) 0.8317(15)
H12_3 H 0.6646 0.1236 0.7604
N1_3 N 0.8123(6) 0.0840(4) 0.7442(7)
N2_3 N 0.9356(6) 0.4035(6) 0.5875(9)
N3_3 N 0.7623(7) 0.0841(5) 0.8801(7)
H13_3 H 0.6444 0.4374 0.9881
C17_3 C 0.6894(17) 0.3355(13) 0.9757(16)
H14_3 H 0.6480 0.3272 0.9048
N7_3 N 0.9356(6) 0.5965(6) 0.5875(9)
C21_3 C 0.7607(10) 0.8688(12) 0.6753(18)
H17_3 H 0.7054 0.8758 0.6490
C22_3 C 0.7819(11) 0.8082(12) 0.6374(18)
H18_3 H 0.7412 0.7768 0.5833
C23_3 C 0.8609(7) 0.7932(7) 0.6773(10)
C24_3 C 0.9141(8) 0.8453(7) 0.7452(11)
H19_3 H 0.9698 0.8412 0.7719
C25_3 C 0.8858(8) 0.9046(7) 0.7748(12)
H20_3 H 0.9245 0.9408 0.8226
C26_3 C 0.8720(12) 0.5979(3) 0.5871(18)
H21_3 H 0.8398 0.5526 0.5643
C27_3 C 0.8460(11) 0.6589(11) 0.617(2)
H22_3 H 0.7986 0.6541 0.6163
C28_3 C 0.8877(8) 0.7261(8) 0.6467(12)
C29_3 C 0.9498(7) 0.7276(6) 0.6357(9)
H23_3 H 0.9788 0.7743 0.6480
C30_3 C 0.9717(7) 0.6620(6) 0.6067(10)
N5_3 N 0.8123(6) 0.9160(4) 0.7442(7)
C1_4 C 0.2393(10) 0.1312(12) 0.3247(18)
H1_4 H 0.2946 0.1242 0.3510
C2_4 C 0.2181(11) 0.1918(12) 0.3626(18)
H2_4 H 0.2588 0.2232 0.4167
C3_4 C 0.1391(7) 0.2068(7) 0.3227(10)
C4_4 C 0.0859(8) 0.1547(7) 0.2548(11)
H3_4 H 0.0302 0.1588 0.2281
C5_4 C 0.1142(8) 0.0954(7) 0.2252(12)
H4_4 H 0.0755 0.0592 0.1774
C6_4 C 0.1280(12) 0.4021(3) 0.4129(18)
H5_4 H 0.1602 0.4474 0.4357
C7_4 C 0.1540(11) 0.3411(11) 0.383(2)
H6_4 H 0.2014 0.3459 0.3837
C8_4 C 0.1123(8) 0.2739(8) 0.3533(12)
C9_4 C 0.0502(7) 0.2724(6) 0.3643(9)
H7_4 H 0.0212 0.2257 0.3520
C10_4 C 0.0283(7) 0.3380(6) 0.3933(10)
C11_4 C 0.1871(14) 0.0983(10) 0.0271(14)
C13_4 C 0.2483(9) 0.2144(6) 0.0255(9)
C14_4 C 0.3051(12) 0.1983(12) 0.1236(15)
H11_4 H 0.3511 0.2306 0.1627
C15_4 C 0.2959(11) 0.1328(11) 0.1683(15)
H12_4 H 0.3354 0.1236 0.2396
N1_4 N 0.1877(6) 0.0840(4) 0.2558(7)
N2_4 N 0.0644(6) 0.4035(6) 0.4125(9)
N3_4 N 0.2377(7) 0.0841(5) 0.1199(7)
H13_4 H 0.3556 0.4374 0.0119
C17_4 C 0.3106(17) 0.3355(13) 0.0243(16)
H14_4 H 0.3520 0.3272 0.0952
N7_4 N 0.0644(6) 0.5965(6) 0.4125(9)
H9_4 H 0.1444 0.0626 0.9881
C12_4 C 0.1894(17) 0.1645(13) 0.9757(16)
H10_4 H 0.1480 0.1728 0.9048
C16_4 C 0.3129(14) 0.4017(10) 0.9729(14)
C18_4 C 0.2517(9) 0.2856(6) 0.9745(9)
C19_4 C 0.1949(12) 0.3017(12) 0.8764(15)
H15_4 H 0.1489 0.2694 0.8373
C20_4 C 0.2041(11) 0.3672(11) 0.8317(15)
H16_4 H 0.1646 0.3764 0.7604
C21_4 C 0.2393(10) 0.8688(12) 0.3247(18)
H17_4 H 0.2946 0.8758 0.3510
C22_4 C 0.2181(11) 0.8082(12) 0.3626(18)
H18_4 H 0.2588 0.7768 0.4167
C23_4 C 0.1391(7) 0.7932(7) 0.3227(10)
C24_4 C 0.0859(8) 0.8453(7) 0.2548(11)
H19_4 H 0.0302 0.8412 0.2281
C25_4 C 0.1142(8) 0.9046(7) 0.2252(12)
H20_4 H 0.0755 0.9408 0.1774
C26_4 C 0.1280(12) 0.5979(3) 0.4129(18)
H21_4 H 0.1602 0.5526 0.4357
C27_4 C 0.1540(11) 0.6589(11) 0.383(2)
H22_4 H 0.2014 0.6541 0.3837
C28_4 C 0.1123(8) 0.7261(8) 0.3533(12)
C29_4 C 0.0502(7) 0.7276(6) 0.3643(9)
H23_4 H 0.0212 0.7743 0.3520
C30_4 C 0.0283(7) 0.6620(6) 0.3933(10)
N5_4 N 0.1877(6) 0.9160(4) 0.2558(7)
H8_4 H 0.9839 0.3346 0.3993
H24_4 H 0.9839 0.6654 0.3993
loop_
_geom_bond_atom_site_label_1
_geom_bond_atom_site_label_2
_geom_bond_site_symmetry_1
_geom_bond_site_symmetry_2
W1 O3 1_555 1_555
W2 O3 1_555 1_555
W3 O1 1_555 1_555
W4 O2 1_555 1_555
O1 W7 1_555 1_555
O2 W5 1_555 1_555
O3 W3 1_555 1_555
O4 W2 1_555 1_555
O5 W1 1_555 1_555
O6 W2 1_555 1_555
O7 W3 1_555 1_555
O8 W3 1_555 1_555
O9 W2 1_555 1_555
O10 W1 1_555 1_555
O11 W4 1_555 1_555
O12 W1 1_555 1_555
W5 O14 1_555 1_555
W6 O14 1_555 1_555
W7 O14 1_555 1_555
W8 O13 1_555 1_555
O13 W1 1_555 1_555
O14 W8 1_555 1_555
O15 W6 1_555 1_555
O16 W5 1_555 1_555
O17 W6 1_555 1_555
O18 W7 1_555 1_555
O19 W7 1_555 1_555
O20 W6 1_555 1_555
O21 W5 1_555 1_555
O22 W8 1_555 1_555
O23 W5 1_555 1_555
W9 O14 1_555 1_555
O24 W9 1_555 1_555
O25 W5 1_555 1_555
O26 W8 1_555 1_555
O27 W9 1_555 1_555
O28 W6 1_555 1_555
W10 O3 1_555 1_555
O29 W1 1_555 1_555
O30 W4 1_555 1_555
O31 W10 1_555 1_555
O32 W2 1_555 1_555
W2 O10 1_555 1_555
W3 O5 1_555 1_555
W3 O9 1_555 1_555
W4 O3 1_555 1_555
W4 O6 1_555 1_555
W4 O7 1_555 1_555
W6 O21 1_555 1_555
W7 O16 1_555 1_555
W7 O20 1_555 1_555
W8 O17 1_555 1_555
W8 O18 1_555 1_555
W9 O25 1_555 1_555
W9 O26 1_555 1_555
W9 O28 1_555 1_555
O24 W10 1_555 1_555
W10 O29 1_555 1_555
W10 O30 1_555 1_555
W10 O32 1_555 1_555
W1_2 O3_2 1_555 1_555
W2_2 O3_2 1_555 1_555
W3_2 O1_2 1_555 1_555
O3_2 W3_2 1_555 1_555
O4_2 W2_2 1_555 1_555
O5_2 W1_2 1_555 1_555
O6_2 W2_2 1_555 1_555
O7_2 W3_2 1_555 1_555
O8_2 W3_2 1_555 1_555
O9_2 W2_2 1_555 1_555
O10_2 W1_2 1_555 1_555
O11_2 W4_2 1_555 1_555
O12_2 W1_2 1_555 1_555
O13_2 W1_2 1_555 1_555
W2_2 O10_2 1_555 1_555
W3_2 O5_2 1_555 1_555
W3_2 O9_2 1_555 1_555
W4_2 O3_2 1_555 1_555
W4_2 O6_2 1_555 1_555
W4_2 O7_2 1_555 1_555
W1_3 O3_3 1_555 1_555
W2_3 O3_3 1_555 1_555
O4_3 W2_3 1_555 1_555
O6_3 W2_3 1_555 1_555
O10_3 W1_3 1_555 1_555
O11_3 W4_3 1_555 1_555
O12_3 W1_3 1_555 1_555
O13_3 W1_3 1_555 1_555
W10_2 O3_3 1_555 1_555
O29_2 W1_3 1_555 1_555
O30_2 W4_3 1_555 1_555
O31_2 W10_2 1_555 1_555
O32_2 W2_3 1_555 1_555
W2_3 O10_3 1_555 1_555
W4_3 O3_3 1_555 1_555
W4_3 O6_3 1_555 1_555
O24_2 W10_2 1_555 1_555
W10_2 O29_2 1_555 1_555
W10_2 O30_2 1_555 1_555
W10_2 O32_2 1_555 1_555
O1_3 W7_2 1_555 1_555
O2_2 W5_2 1_555 1_555
W5_2 O14_2 1_555 1_555
W6_2 O14_2 1_555 1_555
W7_2 O14_2 1_555 1_555
O14_2 W8_2 1_555 1_555
O15_2 W6_2 1_555 1_555
O16_2 W5_2 1_555 1_555
O17_2 W6_2 1_555 1_555
O18_2 W7_2 1_555 1_555
O19_2 W7_2 1_555 1_555
O20_2 W6_2 1_555 1_555
O21_2 W5_2 1_555 1_555
O22_2 W8_2 1_555 1_555
O23_2 W5_2 1_555 1_555
W6_2 O21_2 1_555 1_555
W7_2 O16_2 1_555 1_555
W7_2 O20_2 1_555 1_555
W8_2 O17_2 1_555 1_555
W8_2 O18_2 1_555 1_555
O2_3 W5_3 1_555 1_555
W5_3 O14_3 1_555 1_555
W6_3 O14_3 1_555 1_555
O14_3 W8_3 1_555 1_555
O15_3 W6_3 1_555 1_555
O17_3 W6_3 1_555 1_555
O21_3 W5_3 1_555 1_555
O22_3 W8_3 1_555 1_555
O23_3 W5_3 1_555 1_555
W9_2 O14_3 1_555 1_555
O24_3 W9_2 1_555 1_555
O25_2 W5_3 1_555 1_555
O26_2 W8_3 1_555 1_555
O27_2 W9_2 1_555 1_555
O28_2 W6_3 1_555 1_555
W6_3 O21_3 1_555 1_555
W8_3 O17_3 1_555 1_555
W9_2 O25_2 1_555 1_555
W9_2 O26_2 1_555 1_555
W9_2 O28_2 1_555 1_555
Cl1 Cu2 1_555 1_555
Cu3 Cl1 1_555 1_555
Cu6 Cu2 1_555 1_555
N7 Cu2 1_555 1_555
Cl2 Cu2 1_555 1_555
Cl1 Cu6 1_555 1_555
Cu6 Cl2 1_555 1_555
H10 C12 1_555 1_555
C19 C18 1_555 1_555
H15 C19 1_555 1_555
C20 C19 1_555 1_555
H16 C20 1_555 1_555
N4 C16 1_555 1_555
Cu4_2 N4 1_555 1_555
C20 N4 1_555 1_555
Cu1 N1 1_555 1_555
Cu2_2 N2 1_555 1_555
C1 H1 1_555 1_555
C2 C1 1_555 1_555
H2 C2 1_555 1_555
C3 C2 1_555 1_555
C4 C3 1_555 1_555
H3 C4 1_555 1_555
C5 C4 1_555 1_555
H4 C5 1_555 1_555
C6 H5 1_555 1_555
C7 C6 1_555 1_555
H6 C7 1_555 1_555
C8 C3 1_555 1_555
C9 C8 1_555 1_555
H7 C9 1_555 1_555
C10 C9 1_555 1_555
H8 C10 1_555 1_555
C14 C13 1_555 1_555
H11 C14 1_555 1_555
C15 C14 1_555 1_555
H12 C15 1_555 1_555
N1 C1 1_555 1_555
N2 C6 1_555 1_555
N3 Cu1 1_555 1_555
Cl1_2 Cu2_2 1_555 1_555
H14 C17 1_555 1_555
C21 H17 1_555 1_555
C22 C21 1_555 1_555
H18 C22 1_555 1_555
C23 C22 1_555 1_555
C24 C23 1_555 1_555
H19 C24 1_555 1_555
C25 C24 1_555 1_555
H20 C25 1_555 1_555
C26 H21 1_555 1_555
C27 C26 1_555 1_555
H22 C27 1_555 1_555
C28 C23 1_555 1_555
C29 C28 1_555 1_555
H23 C29 1_555 1_555
C30 C29 1_555 1_555
H24 C30 1_555 1_555
N5 Cu1 1_555 1_555
N7 C26 1_555 1_555
Cu3_2 Cl1_2 1_555 1_555
Cu6_2 Cu2_2 1_555 1_555
N8 Cu1 1_555 1_555
Cl2_2 Cu2_2 1_555 1_555
Cl3 Cu1 1_555 1_555
C5 N1 1_555 1_555
C7 C8 1_555 1_555
C10 N2 1_555 1_555
C11 N3 1_555 1_555
C15 N3 1_555 1_555
Cl1_2 Cu6_2 1_555 1_555
C21 N5 1_555 1_555
C25 N5 1_555 1_555
C27 C28 1_555 1_555
C30 N7 1_555 1_555
Cu6_2 Cl2_2 1_555 1_555
Cu4 Cl2 1_555 1_555
N7_2 Cu6 1_555 1_555
Cu1_2 N1_2 1_555 1_555
Cu6_2 N2_2 1_555 1_555
C1_2 H1_2 1_555 1_555
C2_2 C1_2 1_555 1_555
H2_2 C2_2 1_555 1_555
C3_2 C2_2 1_555 1_555
C4_2 C3_2 1_555 1_555
H3_2 C4_2 1_555 1_555
C5_2 C4_2 1_555 1_555
H4_2 C5_2 1_555 1_555
C6_2 H5_2 1_555 1_555
C7_2 C6_2 1_555 1_555
H6_2 C7_2 1_555 1_555
C8_2 C3_2 1_555 1_555
C9_2 C8_2 1_555 1_555
H7_2 C9_2 1_555 1_555
C10_2 C9_2 1_555 1_555
H8_2 C10_2 1_555 1_555
C14_2 C13_2 1_555 1_555
H11_2 C14_2 1_555 1_555
C15_2 C14_2 1_555 1_555
H12_2 C15_2 1_555 1_555
N1_2 C1_2 1_555 1_555
N2_2 C6_2 1_555 1_555
N3_2 Cu1_2 1_555 1_555
H14_2 C17_2 1_555 1_555
C21_2 H17_2 1_555 1_555
C22_2 C21_2 1_555 1_555
H18_2 C22_2 1_555 1_555
C23_2 C22_2 1_555 1_555
C24_2 C23_2 1_555 1_555
H19_2 C24_2 1_555 1_555
C25_2 C24_2 1_555 1_555
H20_2 C25_2 1_555 1_555
C26_2 H21_2 1_555 1_555
C27_2 C26_2 1_555 1_555
H22_2 C27_2 1_555 1_555
C28_2 C23_2 1_555 1_555
C29_2 C28_2 1_555 1_555
H23_2 C29_2 1_555 1_555
C30_2 C29_2 1_555 1_555
H24_2 C30_2 1_555 1_555
N5_2 Cu1_2 1_555 1_555
N7_2 C26_2 1_555 1_555
Cu4_2 Cl2_2 1_555 1_555
N8_2 Cu1_2 1_555 1_555
Cl3_2 Cu1_2 1_555 1_555
C5_2 N1_2 1_555 1_555
C7_2 C8_2 1_555 1_555
C10_2 N2_2 1_555 1_555
C11_2 N3_2 1_555 1_555
C15_2 N3_2 1_555 1_555
C21_2 N5_2 1_555 1_555
C25_2 N5_2 1_555 1_555
C27_2 C28_2 1_555 1_555
C30_2 N7_2 1_555 1_555
H10_2 C12_2 1_555 1_555
C19_2 C18_2 1_555 1_555
H15_2 C19_2 1_555 1_555
C20_2 C19_2 1_555 1_555
H16_2 C20_2 1_555 1_555
N4_2 C16_2 1_555 1_555
Cu3_2 N4_2 1_555 1_555
C20_2 N4_2 1_555 1_555
Cl3 Cu6_3 1_555 1_555
H10_3 C12_3 1_555 1_555
C19_3 C18_3 1_555 1_555
H15_3 C19_3 1_555 1_555
C20_3 C19_3 1_555 1_555
H16_3 C20_3 1_555 1_555
N8_2 C16_3 1_555 1_555
C20_3 N8_2 1_555 1_555
Cu3 N1_3 1_555 1_555
Cu2_3 N2_3 1_555 1_555
C1_3 H1_3 1_555 1_555
C2_3 C1_3 1_555 1_555
H2_3 C2_3 1_555 1_555
C3_3 C2_3 1_555 1_555
C4_3 C3_3 1_555 1_555
H3_3 C4_3 1_555 1_555
C5_3 C4_3 1_555 1_555
H4_3 C5_3 1_555 1_555
C6_3 H5_3 1_555 1_555
C7_3 C6_3 1_555 1_555
H6_3 C7_3 1_555 1_555
C8_3 C3_3 1_555 1_555
C9_3 C8_3 1_555 1_555
H7_3 C9_3 1_555 1_555
C10_3 C9_3 1_555 1_555
C14_3 C13_3 1_555 1_555
H11_3 C14_3 1_555 1_555
C15_3 C14_3 1_555 1_555
H12_3 C15_3 1_555 1_555
N1_3 C1_3 1_555 1_555
N2_3 C6_3 1_555 1_555
N3_3 Cu3 1_555 1_555
H14_3 C17_3 1_555 1_555
N7_3 Cu2_3 1_555 1_555
Cl3_2 Cu2_3 1_555 1_555
C5_3 N1_3 1_555 1_555
C7_3 C8_3 1_555 1_555
C10_3 N2_3 1_555 1_555
C11_3 N3_3 1_555 1_555
C15_3 N3_3 1_555 1_555
C21_3 H17_3 1_555 1_555
C22_3 C21_3 1_555 1_555
H18_3 C22_3 1_555 1_555
C23_3 C22_3 1_555 1_555
C24_3 C23_3 1_555 1_555
H19_3 C24_3 1_555 1_555
C25_3 C24_3 1_555 1_555
H20_3 C25_3 1_555 1_555
C26_3 H21_3 1_555 1_555
C27_3 C26_3 1_555 1_555
H22_3 C27_3 1_555 1_555
C28_3 C23_3 1_555 1_555
C29_3 C28_3 1_555 1_555
H23_3 C29_3 1_555 1_555
C30_3 C29_3 1_555 1_555
N5_3 Cu3_2 1_555 1_555
N7_3 C26_3 1_555 1_555
C21_3 N5_3 1_555 1_555
C25_3 N5_3 1_555 1_555
C27_3 C28_3 1_555 1_555
C30_3 N7_3 1_555 1_555
Cu4 N1_4 1_555 1_555
Cu6_3 N2_4 1_555 1_555
C1_4 H1_4 1_555 1_555
C2_4 C1_4 1_555 1_555
H2_4 C2_4 1_555 1_555
C3_4 C2_4 1_555 1_555
C4_4 C3_4 1_555 1_555
H3_4 C4_4 1_555 1_555
C5_4 C4_4 1_555 1_555
H4_4 C5_4 1_555 1_555
C6_4 H5_4 1_555 1_555
C7_4 C6_4 1_555 1_555
H6_4 C7_4 1_555 1_555
C8_4 C3_4 1_555 1_555
C9_4 C8_4 1_555 1_555
H7_4 C9_4 1_555 1_555
C10_4 C9_4 1_555 1_555
C14_4 C13_4 1_555 1_555
H11_4 C14_4 1_555 1_555
C15_4 C14_4 1_555 1_555
H12_4 C15_4 1_555 1_555
N1_4 C1_4 1_555 1_555
N2_4 C6_4 1_555 1_555
N3_4 Cu4 1_555 1_555
H14_4 C17_4 1_555 1_555
N7_4 Cu6_3 1_555 1_555
C5_4 N1_4 1_555 1_555
C7_4 C8_4 1_555 1_555
C10_4 N2_4 1_555 1_555
C11_4 N3_4 1_555 1_555
C15_4 N3_4 1_555 1_555
H10_4 C12_4 1_555 1_555
C19_4 C18_4 1_555 1_555
H15_4 C19_4 1_555 1_555
C20_4 C19_4 1_555 1_555
H16_4 C20_4 1_555 1_555
N8 C16_4 1_555 1_555
C20_4 N8 1_555 1_555
C21_4 H17_4 1_555 1_555
C22_4 C21_4 1_555 1_555
H18_4 C22_4 1_555 1_555
C23_4 C22_4 1_555 1_555
C24_4 C23_4 1_555 1_555
H19_4 C24_4 1_555 1_555
C25_4 C24_4 1_555 1_555
H20_4 C25_4 1_555 1_555
C26_4 H21_4 1_555 1_555
C27_4 C26_4 1_555 1_555
H22_4 C27_4 1_555 1_555
C28_4 C23_4 1_555 1_555
C29_4 C28_4 1_555 1_555
H23_4 C29_4 1_555 1_555
C30_4 C29_4 1_555 1_555
N5_4 Cu4_2 1_555 1_555
N7_4 C26_4 1_555 1_555
C21_4 N5_4 1_555 1_555
C25_4 N5_4 1_555 1_555
C27_4 C28_4 1_555 1_555
C30_4 N7_4 1_555 1_555

#END
