
###############################################################################
#
# This file contains modified crystal structure data generated from the
# MOF subset of the Cambridge Structural Database (CSD) v543 
# hosted by the Cambridge Crystallographic Data Centre (CCDC).
#
# This work is licensed under the Creative Commons
# Attribution-NonCommercial-ShareAlike 4.0 International License.
# To view a copy of this license, visit
# http://creativecommons.org/licenses/by-nc-sa/4.0/
# or send a letter to
# Creative Commons, PO Box 1866, Mountain View, CA 94042, USA.
#
# CIF created using the CSD Python API on 29 September 2022
# The structure has been converted into the P1 space group
# The structure has a 3D framework
# The original CSD entry VAJHIA is in the monoclinic crystal system
# The framework has been calculated to contain at least 10.0% void space
# The void calculation uses a probe of radius 1.32A, grid spacing 0.4
#
###############################################################################

data_VAJHIA
_chemical_formula_moiety         '(C120 H80 N64 O36 Zn16)n'
_symmetry_cell_setting           triclinic
_symmetry_space_group_name_H-M   'P 1'
_symmetry_Int_Tables_number      1
_space_group_name_Hall           'P 1'
loop_
_symmetry_equiv_pos_site_id
_symmetry_equiv_pos_as_xyz
1 x,y,z
_cell_length_a                   20.909(15)
_cell_length_b                   11.364(8)
_cell_length_c                   17.699(13)
_cell_angle_alpha                90
_cell_angle_beta                 103.275(10)
_cell_angle_gamma                90
_cell_volume                     4093.08
loop_
_atom_site_label
_atom_site_type_symbol
_atom_site_fract_x
_atom_site_fract_y
_atom_site_fract_z
N3 N 0.1577(2) 0.0018(4) 0.4585(3)
N4 N 0.1945(2) 0.0142(4) 0.5281(3)
O2 O 0.01046(15) 0.0353(3) 0.3817(2)
H10 H 0.0357 0.0650 0.4211
N10 N 0.23261(19) 0.0713(3) 0.7375(3)
Zn1 Zn 0.05320(3) 0.86377(5) 0.35821(4)
Zn2 Zn 0.22820(3) 0.91726(5) 0.68576(4)
C1 C 0.1483(2) 0.8436(4) 0.5232(3)
C2 C 0.1315(2) 0.7220(4) 0.5426(3)
C3 C 0.1699(3) 0.6296(5) 0.5341(5)
H1 H 0.2086 0.6428 0.5179
C4 C 0.1528(3) 0.5151(5) 0.5491(5)
H2 H 0.1800 0.4529 0.5429
C5 C 0.0967(2) 0.4937(4) 0.5726(3)
C6 C 0.0593(3) 0.5865(5) 0.5844(4)
H3 H 0.0215 0.5736 0.6024
C7 C 0.0770(3) 0.7000(5) 0.5698(4)
H4 H 0.0510 0.7626 0.5788
C8 C 0.1027(3) 0.2741(5) 0.5588(4)
H5 H 0.1375 0.2691 0.5344
C9 C 0.0286(2) 0.3387(5) 0.6181(3)
H6 H 0.0039 0.3893 0.6413
N1 N 0.0201(2) 0.2249(3) 0.6141(3)
C10 C 0.3557(3) 0.8125(5) 0.6895(3)
C11 C 0.3143(2) 0.7222(4) 0.7161(3)
C12 C 0.3229(2) 0.6077(4) 0.7408(3)
C13 C 0.3769(2) 0.5226(5) 0.7510(3)
C14 C 0.2262(3) 0.6629(4) 0.7499(3)
H7 H 0.1843 0.6615 0.7594
N2 N 0.1277(2) 0.8937(4) 0.4535(3)
N5 N 0.1891(2) 0.9149(3) 0.5699(3)
N6 N 0.0777(2) 0.3751(3) 0.5846(3)
C15 C 0.0665(3) 0.1837(5) 0.5763(4)
H8 H 0.0721 0.1052 0.5645
N7 N 0.25191(19) 0.7564(3) 0.7224(3)
N8 N 0.26739(19) 0.5713(3) 0.7625(3)
O1 O 0.33046(17) 0.9147(3) 0.6801(2)
O3 O 0.41089(17) 0.7878(3) 0.6784(2)
O4 O 0.42964(16) 0.5457(3) 0.7311(2)
O5 O 0.36936(16) 0.4270(3) 0.7841(2)
Zn4 Zn 0.44680(3) 0.63623(5) 0.64179(4)
Zn5 Zn 0.27180(3) 0.41726(5) 0.81424(4)
O6 O 0.08911(17) 0.7122(3) 0.3216(2)
O7 O 0.07036(16) 0.9543(3) 0.2689(2)
O8 O 0.13064(16) 0.9270(3) 0.7159(2)
Zn3 Zn 0.94680(3) 0.13623(5) 0.64179(4)
N9 N 0.9799(2) 0.7751(3) 0.3859(3)
N9_2 N 0.0201(2) 0.7751(3) 0.1141(3)
Zn3_2 Zn 0.05320(3) 0.13623(5) 0.85821(4)
N4_2 N 0.8055(2) 0.0142(4) 0.9719(3)
N10_2 N 0.76739(19) 0.0713(3) 0.7625(3)
Zn1_2 Zn 0.94680(3) 0.86377(5) 0.14179(4)
N2_2 N 0.8723(2) 0.8937(4) 0.0465(3)
O6_2 O 0.91089(17) 0.7122(3) 0.1784(2)
O7_2 O 0.92964(16) 0.9543(3) 0.2311(2)
Zn2_2 Zn 0.77180(3) 0.91726(5) 0.81424(4)
C1_2 C 0.8517(2) 0.8436(4) 0.9768(3)
C2_2 C 0.8685(2) 0.7220(4) 0.9574(3)
C3_2 C 0.8301(3) 0.6296(5) 0.9659(5)
H1_2 H 0.7914 0.6428 0.9821
C4_2 C 0.8472(3) 0.5151(5) 0.9509(5)
H2_2 H 0.8200 0.4529 0.9571
C5_2 C 0.9033(2) 0.4937(4) 0.9274(3)
C6_2 C 0.9407(3) 0.5865(5) 0.9156(4)
H3_2 H 0.9785 0.5736 0.8976
C7_2 C 0.9230(3) 0.7000(5) 0.9302(4)
H4_2 H 0.9490 0.7626 0.9212
C8_2 C 0.8973(3) 0.2741(5) 0.9412(4)
H5_2 H 0.8625 0.2691 0.9656
C9_2 C 0.9714(2) 0.3387(5) 0.8819(3)
H6_2 H 0.9961 0.3893 0.8587
N1_2 N 0.9799(2) 0.2249(3) 0.8859(3)
C10_2 C 0.6443(3) 0.8125(5) 0.8105(3)
C11_2 C 0.6857(2) 0.7222(4) 0.7839(3)
C12_2 C 0.6771(2) 0.6077(4) 0.7592(3)
C13_2 C 0.6231(2) 0.5226(5) 0.7490(3)
C14_2 C 0.7738(3) 0.6629(4) 0.7501(3)
H7_2 H 0.8157 0.6615 0.7406
N5_2 N 0.8109(2) 0.9149(3) 0.9301(3)
N6_2 N 0.9223(2) 0.3751(3) 0.9154(3)
C15_2 C 0.9335(3) 0.1837(5) 0.9237(4)
H8_2 H 0.9279 0.1052 0.9355
N7_2 N 0.74809(19) 0.7564(3) 0.7776(3)
N8_2 N 0.73261(19) 0.5713(3) 0.7375(3)
O1_2 O 0.66954(17) 0.9147(3) 0.8199(2)
O3_2 O 0.58911(17) 0.7878(3) 0.8216(2)
O4_2 O 0.57036(16) 0.5457(3) 0.7689(2)
O5_2 O 0.63064(16) 0.4270(3) 0.7159(2)
Zn4_2 Zn 0.55320(3) 0.63623(5) 0.85821(4)
Zn5_2 Zn 0.72820(3) 0.41726(5) 0.68576(4)
O8_2 O 0.86936(16) 0.9270(3) 0.7841(2)
Zn1_3 Zn 0.55320(3) 0.36377(5) 0.35821(4)
C1_3 C 0.6483(2) 0.3436(4) 0.5232(3)
C2_3 C 0.6315(2) 0.2220(4) 0.5426(3)
C3_3 C 0.6699(3) 0.1296(5) 0.5341(5)
H1_3 H 0.7086 0.1428 0.5179
C4_3 C 0.6528(3) 0.0151(5) 0.5491(5)
C6_3 C 0.5593(3) 0.0865(5) 0.5844(4)
H3_3 H 0.5215 0.0736 0.6024
C7_3 C 0.5770(3) 0.2000(5) 0.5698(4)
H4_3 H 0.5510 0.2626 0.5788
C10_3 C 0.8557(3) 0.3125(5) 0.6895(3)
C11_3 C 0.8143(2) 0.2222(4) 0.7161(3)
C12_3 C 0.8229(2) 0.1077(4) 0.7408(3)
C13_3 C 0.8769(2) 0.0226(5) 0.7510(3)
C14_3 C 0.7262(3) 0.1629(4) 0.7499(3)
H7_3 H 0.6843 0.1615 0.7594
N2_3 N 0.6277(2) 0.3937(4) 0.4535(3)
N3_2 N 0.6577(2) 0.5018(4) 0.4585(3)
N4_3 N 0.6945(2) 0.5142(4) 0.5281(3)
N5_3 N 0.6891(2) 0.4149(3) 0.5699(3)
N7_3 N 0.75191(19) 0.2564(3) 0.7224(3)
O1_3 O 0.83046(17) 0.4147(3) 0.6801(2)
O2_2 O 0.51046(15) 0.5353(3) 0.3817(2)
H9 H 0.4798 0.5855 0.3645
H10_2 H 0.5357 0.5650 0.4211
O3_3 O 0.91089(17) 0.2878(3) 0.6784(2)
O4_3 O 0.92964(16) 0.0457(3) 0.7311(2)
N9_3 N 0.4799(2) 0.2751(3) 0.3859(3)
O6_3 O 0.58911(17) 0.2122(3) 0.3216(2)
O7_3 O 0.57036(16) 0.4543(3) 0.2689(2)
H2_3 H 0.6800 0.9529 0.5429
C5_3 C 0.5967(2) 0.9937(4) 0.5726(3)
C8_3 C 0.6027(3) 0.7741(5) 0.5588(4)
H5_3 H 0.6375 0.7691 0.5344
C9_3 C 0.5286(2) 0.8387(5) 0.6181(3)
H6_3 H 0.5039 0.8893 0.6413
N1_3 N 0.5201(2) 0.7249(3) 0.6141(3)
N6_3 N 0.5777(2) 0.8751(3) 0.5846(3)
C15_3 C 0.5665(3) 0.6837(5) 0.5763(4)
H8_3 H 0.5721 0.6052 0.5645
Zn1_4 Zn 0.44680(3) 0.36377(5) 0.14179(4)
N2_4 N 0.3723(2) 0.3937(4) 0.0465(3)
N3_3 N 0.3423(2) 0.5018(4) 0.0415(3)
O2_3 O 0.48954(15) 0.5353(3) 0.1183(2)
H9_2 H 0.5202 0.5855 0.1355
H10_3 H 0.4643 0.5650 0.0789
N9_4 N 0.5201(2) 0.2751(3) 0.1141(3)
O6_4 O 0.41089(17) 0.2122(3) 0.1784(2)
O7_4 O 0.42964(16) 0.4543(3) 0.2311(2)
C1_4 C 0.3517(2) 0.3436(4) 0.9768(3)
C2_4 C 0.3685(2) 0.2220(4) 0.9574(3)
C3_4 C 0.3301(3) 0.1296(5) 0.9659(5)
H1_4 H 0.2914 0.1428 0.9821
C4_4 C 0.3472(3) 0.0151(5) 0.9509(5)
C6_4 C 0.4407(3) 0.0865(5) 0.9156(4)
H3_4 H 0.4785 0.0736 0.8976
C7_4 C 0.4230(3) 0.2000(5) 0.9302(4)
H4_4 H 0.4490 0.2626 0.9212
C10_4 C 0.1443(3) 0.3125(5) 0.8105(3)
C11_4 C 0.1857(2) 0.2222(4) 0.7839(3)
C12_4 C 0.1771(2) 0.1077(4) 0.7592(3)
C13_4 C 0.1231(2) 0.0226(5) 0.7490(3)
C14_4 C 0.2738(3) 0.1629(4) 0.7501(3)
H7_4 H 0.3157 0.1615 0.7406
N4_4 N 0.3055(2) 0.5142(4) 0.9719(3)
N5_4 N 0.3109(2) 0.4149(3) 0.9301(3)
N7_4 N 0.24809(19) 0.2564(3) 0.7776(3)
O1_4 O 0.16954(17) 0.4147(3) 0.8199(2)
O3_4 O 0.08911(17) 0.2878(3) 0.8216(2)
O4_4 O 0.07036(16) 0.0457(3) 0.7689(2)
H2_4 H 0.3200 0.9529 0.9571
C5_4 C 0.4033(2) 0.9937(4) 0.9274(3)
C8_4 C 0.3973(3) 0.7741(5) 0.9412(4)
H5_4 H 0.3625 0.7691 0.9656
C9_4 C 0.4714(2) 0.8387(5) 0.8819(3)
H6_4 H 0.4961 0.8893 0.8587
N1_4 N 0.4799(2) 0.7249(3) 0.8859(3)
N6_4 N 0.4223(2) 0.8751(3) 0.9154(3)
C15_4 C 0.4335(3) 0.6837(5) 0.9237(4)
H8_4 H 0.4279 0.6052 0.9355
Zn2_3 Zn 0.77180(3) 0.08274(5) 0.31424(4)
C1_5 C 0.8517(2) 0.1564(4) 0.4768(3)
C2_5 C 0.8685(2) 0.2780(4) 0.4574(3)
C3_5 C 0.8301(3) 0.3704(5) 0.4659(5)
H1_5 H 0.7914 0.3572 0.4821
C4_5 C 0.8472(3) 0.4849(5) 0.4509(5)
H2_5 H 0.8200 0.5471 0.4571
C5_5 C 0.9033(2) 0.5063(4) 0.4274(3)
C6_5 C 0.9407(3) 0.4135(5) 0.4156(4)
H3_5 H 0.9785 0.4264 0.3976
C7_5 C 0.9230(3) 0.3000(5) 0.4302(4)
H4_5 H 0.9490 0.2374 0.4212
C8_5 C 0.8973(3) 0.7259(5) 0.4412(4)
H5_5 H 0.8625 0.7309 0.4656
C9_5 C 0.9714(2) 0.6613(5) 0.3819(3)
H6_5 H 0.9961 0.6107 0.3587
C10_5 C 0.6443(3) 0.1875(5) 0.3105(3)
C11_5 C 0.6857(2) 0.2778(4) 0.2839(3)
C12_5 C 0.6771(2) 0.3923(4) 0.2592(3)
C13_5 C 0.6231(2) 0.4774(5) 0.2490(3)
C14_5 C 0.7738(3) 0.3371(4) 0.2501(3)
H7_5 H 0.8157 0.3385 0.2406
N2_5 N 0.8723(2) 0.1063(4) 0.5465(3)
N5_5 N 0.8109(2) 0.0851(3) 0.4301(3)
N6_5 N 0.9223(2) 0.6249(3) 0.4154(3)
C15_5 C 0.9335(3) 0.8163(5) 0.4237(4)
H8_5 H 0.9279 0.8948 0.4355
N7_5 N 0.74809(19) 0.2436(3) 0.2776(3)
N8_3 N 0.73261(19) 0.4287(3) 0.2375(3)
O1_5 O 0.66954(17) 0.0853(3) 0.3199(2)
O5_3 O 0.63064(16) 0.5730(3) 0.2159(2)
Zn5_3 Zn 0.72820(3) 0.58274(5) 0.18576(4)
O8_3 O 0.86936(16) 0.0730(3) 0.2841(2)
N3_4 N 0.8423(2) 0.9982(4) 0.5415(3)
N4_5 N 0.8055(2) 0.9858(4) 0.4719(3)
O2_4 O 0.98954(15) 0.9647(3) 0.6183(2)
H10_4 H 0.9643 0.9350 0.5789
N10_3 N 0.76739(19) 0.9287(3) 0.2625(3)
Zn2_4 Zn 0.22820(3) 0.08274(5) 0.18576(4)
C1_6 C 0.1483(2) 0.1564(4) 0.0232(3)
C2_6 C 0.1315(2) 0.2780(4) 0.0426(3)
C3_6 C 0.1699(3) 0.3704(5) 0.0341(5)
H1_6 H 0.2086 0.3572 0.0179
C4_6 C 0.1528(3) 0.4849(5) 0.0491(5)
H2_6 H 0.1800 0.5471 0.0429
C5_6 C 0.0967(2) 0.5063(4) 0.0726(3)
C6_6 C 0.0593(3) 0.4135(5) 0.0844(4)
H3_6 H 0.0215 0.4264 0.1024
C7_6 C 0.0770(3) 0.3000(5) 0.0698(4)
H4_6 H 0.0510 0.2374 0.0788
C8_6 C 0.1027(3) 0.7259(5) 0.0588(4)
H5_6 H 0.1375 0.7309 0.0344
C9_6 C 0.0286(2) 0.6613(5) 0.1181(3)
H6_6 H 0.0039 0.6107 0.1413
C10_6 C 0.3557(3) 0.1875(5) 0.1895(3)
C11_6 C 0.3143(2) 0.2778(4) 0.2161(3)
C12_6 C 0.3229(2) 0.3923(4) 0.2408(3)
C13_6 C 0.3769(2) 0.4774(5) 0.2510(3)
C14_6 C 0.2262(3) 0.3371(4) 0.2499(3)
H7_6 H 0.1843 0.3385 0.2594
N5_6 N 0.1891(2) 0.0851(3) 0.0699(3)
N6_6 N 0.0777(2) 0.6249(3) 0.0846(3)
C15_6 C 0.0665(3) 0.8163(5) 0.0763(4)
H8_6 H 0.0721 0.8948 0.0645
N7_6 N 0.25191(19) 0.2436(3) 0.2224(3)
N8_4 N 0.26739(19) 0.4287(3) 0.2625(3)
O1_6 O 0.33046(17) 0.0853(3) 0.1801(2)
O5_4 O 0.36936(16) 0.5730(3) 0.2841(2)
Zn5_4 Zn 0.27180(3) 0.58274(5) 0.31424(4)
O8_4 O 0.13064(16) 0.0730(3) 0.2159(2)
N2_6 N 0.1277(2) 0.1063(4) 0.9535(3)
N4_6 N 0.1945(2) 0.9858(4) 0.0281(3)
N10_4 N 0.23261(19) 0.9287(3) 0.2375(3)
H2_7 H 0.3200 0.0471 0.4571
C5_7 C 0.4033(2) 0.0063(4) 0.4274(3)
C8_7 C 0.3973(3) 0.2259(5) 0.4412(4)
H5_7 H 0.3625 0.2309 0.4656
C9_7 C 0.4714(2) 0.1613(5) 0.3819(3)
H6_7 H 0.4961 0.1107 0.3587
N6_7 N 0.4223(2) 0.1249(3) 0.4154(3)
C15_7 C 0.4335(3) 0.3163(5) 0.4237(4)
H8_7 H 0.4279 0.3948 0.4355
C1_7 C 0.3517(2) 0.6564(4) 0.4768(3)
C2_7 C 0.3685(2) 0.7780(4) 0.4574(3)
C3_7 C 0.3301(3) 0.8704(5) 0.4659(5)
H1_7 H 0.2914 0.8572 0.4821
C4_7 C 0.3472(3) 0.9849(5) 0.4509(5)
C6_7 C 0.4407(3) 0.9135(5) 0.4156(4)
H3_7 H 0.4785 0.9264 0.3976
C7_7 C 0.4230(3) 0.8000(5) 0.4302(4)
H4_7 H 0.4490 0.7374 0.4212
C10_7 C 0.1443(3) 0.6875(5) 0.3105(3)
C11_7 C 0.1857(2) 0.7778(4) 0.2839(3)
C12_7 C 0.1771(2) 0.8923(4) 0.2592(3)
C13_7 C 0.1231(2) 0.9774(5) 0.2490(3)
C14_7 C 0.2738(3) 0.8371(4) 0.2501(3)
H7_7 H 0.3157 0.8385 0.2406
N2_7 N 0.3723(2) 0.6063(4) 0.5465(3)
N3_5 N 0.3423(2) 0.4982(4) 0.5415(3)
N4_7 N 0.3055(2) 0.4858(4) 0.4719(3)
N5_7 N 0.3109(2) 0.5851(3) 0.4301(3)
N7_7 N 0.24809(19) 0.7436(3) 0.2776(3)
O1_7 O 0.16954(17) 0.5853(3) 0.3199(2)
O2_5 O 0.48954(15) 0.4647(3) 0.6183(2)
H9_3 H 0.5202 0.4145 0.6355
H10_5 H 0.4643 0.4350 0.5789
H2_8 H 0.6800 0.0471 0.0429
C5_8 C 0.5967(2) 0.0063(4) 0.0726(3)
C8_8 C 0.6027(3) 0.2259(5) 0.0588(4)
H5_8 H 0.6375 0.2309 0.0344
C9_8 C 0.5286(2) 0.1613(5) 0.1181(3)
H6_8 H 0.5039 0.1107 0.1413
N6_8 N 0.5777(2) 0.1249(3) 0.0846(3)
C15_8 C 0.5665(3) 0.3163(5) 0.0763(4)
H8_8 H 0.5721 0.3948 0.0645
C1_8 C 0.6483(2) 0.6564(4) 0.0232(3)
C2_8 C 0.6315(2) 0.7780(4) 0.0426(3)
C3_8 C 0.6699(3) 0.8704(5) 0.0341(5)
H1_8 H 0.7086 0.8572 0.0179
C4_8 C 0.6528(3) 0.9849(5) 0.0491(5)
C6_8 C 0.5593(3) 0.9135(5) 0.0844(4)
H3_8 H 0.5215 0.9264 0.1024
C7_8 C 0.5770(3) 0.8000(5) 0.0698(4)
H4_8 H 0.5510 0.7374 0.0788
C10_8 C 0.8557(3) 0.6875(5) 0.1895(3)
C11_8 C 0.8143(2) 0.7778(4) 0.2161(3)
C12_8 C 0.8229(2) 0.8923(4) 0.2408(3)
C13_8 C 0.8769(2) 0.9774(5) 0.2510(3)
C14_8 C 0.7262(3) 0.8371(4) 0.2499(3)
H7_8 H 0.6843 0.8385 0.2594
N4_8 N 0.6945(2) 0.4858(4) 0.0281(3)
N5_8 N 0.6891(2) 0.5851(3) 0.0699(3)
N7_8 N 0.75191(19) 0.7436(3) 0.2224(3)
O1_8 O 0.83046(17) 0.5853(3) 0.1801(2)
N2_8 N 0.6277(2) 0.6063(4) 0.9535(3)
N3_6 N 0.6577(2) 0.4982(4) 0.9585(3)
O2_6 O 0.51046(15) 0.4647(3) 0.8817(2)
H9_4 H 0.4798 0.4145 0.8645
H10_6 H 0.5357 0.4350 0.9211
H9_5 H 0.9798 0.0855 0.3645
H9_6 H 0.0202 0.0855 0.1355
N3_7 N 0.8423(2) 0.0018(4) 0.0415(3)
O2_7 O 0.98954(15) 0.0353(3) 0.1183(2)
H10_7 H 0.9643 0.0650 0.0789
H9_7 H 0.0202 0.9145 0.6355
N3_8 N 0.1577(2) 0.9982(4) 0.9585(3)
O2_8 O 0.01046(15) 0.9647(3) 0.8817(2)
H10_8 H 0.0357 0.9350 0.9211
H9_8 H 0.9798 0.9145 0.8645
loop_
_geom_bond_atom_site_label_1
_geom_bond_atom_site_label_2
_geom_bond_site_symmetry_1
_geom_bond_site_symmetry_2
N4 N3 1_555 1_555
H10 O2 1_555 1_555
Zn1 N2 1_555 1_555
Zn2 N5 1_555 1_555
C1 C2 1_555 1_555
C2 C3 1_555 1_555
C3 H1 1_555 1_555
C4 C3 1_555 1_555
H2 C4 1_555 1_555
C5 C4 1_555 1_555
C6 C5 1_555 1_555
H3 C6 1_555 1_555
C7 C2 1_555 1_555
H4 C7 1_555 1_555
C8 H5 1_555 1_555
C9 H6 1_555 1_555
N1 C9 1_555 1_555
C10 C11 1_555 1_555
C11 C12 1_555 1_555
C12 C13 1_555 1_555
C13 O4 1_555 1_555
C14 H7 1_555 1_555
N2 C1 1_555 1_555
N5 C1 1_555 1_555
N6 C5 1_555 1_555
C15 C8 1_555 1_555
H8 C15 1_555 1_555
N7 Zn2 1_555 1_555
N8 C12 1_555 1_555
O1 Zn2 1_555 1_555
O3 C10 1_555 1_555
O4 Zn4 1_555 1_555
O5 C13 1_555 1_555
Zn4 O3 1_555 1_555
Zn5 N8 1_555 1_555
O6 Zn1 1_555 1_555
O7 Zn1 1_555 1_555
O8 Zn2 1_555 1_555
C6 C7 1_555 1_555
C8 N6 1_555 1_555
C9 N6 1_555 1_555
N1 C15 1_555 1_555
C10 O1 1_555 1_555
C11 N7 1_555 1_555
C14 N7 1_555 1_555
C14 N8 1_555 1_555
O5 Zn5 1_555 1_555
Zn1_2 N2_2 1_555 1_555
O6_2 Zn1_2 1_555 1_555
O7_2 Zn1_2 1_555 1_555
Zn2_2 N5_2 1_555 1_555
C1_2 C2_2 1_555 1_555
C2_2 C3_2 1_555 1_555
C3_2 H1_2 1_555 1_555
C4_2 C3_2 1_555 1_555
H2_2 C4_2 1_555 1_555
C5_2 C4_2 1_555 1_555
C6_2 C5_2 1_555 1_555
H3_2 C6_2 1_555 1_555
C7_2 C2_2 1_555 1_555
H4_2 C7_2 1_555 1_555
C8_2 H5_2 1_555 1_555
C9_2 H6_2 1_555 1_555
N1_2 C9_2 1_555 1_555
C10_2 C11_2 1_555 1_555
C11_2 C12_2 1_555 1_555
C12_2 C13_2 1_555 1_555
C13_2 O4_2 1_555 1_555
C14_2 H7_2 1_555 1_555
N5_2 C1_2 1_555 1_555
N6_2 C5_2 1_555 1_555
C15_2 C8_2 1_555 1_555
H8_2 C15_2 1_555 1_555
N7_2 Zn2_2 1_555 1_555
N8_2 C12_2 1_555 1_555
O1_2 Zn2_2 1_555 1_555
O3_2 C10_2 1_555 1_555
O4_2 Zn4_2 1_555 1_555
O5_2 C13_2 1_555 1_555
Zn4_2 O3_2 1_555 1_555
Zn5_2 N8_2 1_555 1_555
O8_2 Zn2_2 1_555 1_555
C6_2 C7_2 1_555 1_555
C8_2 N6_2 1_555 1_555
C9_2 N6_2 1_555 1_555
N1_2 C15_2 1_555 1_555
C10_2 O1_2 1_555 1_555
C11_2 N7_2 1_555 1_555
C14_2 N7_2 1_555 1_555
C14_2 N8_2 1_555 1_555
O5_2 Zn5_2 1_555 1_555
Zn1_3 N2_3 1_555 1_555
Zn5_2 N5_3 1_555 1_555
C1_3 C2_3 1_555 1_555
C2_3 C3_3 1_555 1_555
C3_3 H1_3 1_555 1_555
C4_3 C3_3 1_555 1_555
H3_3 C6_3 1_555 1_555
C7_3 C2_3 1_555 1_555
H4_3 C7_3 1_555 1_555
C10_3 C11_3 1_555 1_555
C11_3 C12_3 1_555 1_555
C12_3 C13_3 1_555 1_555
C13_3 O4_3 1_555 1_555
C14_3 H7_3 1_555 1_555
N2_3 C1_3 1_555 1_555
N3_2 N2_3 1_555 1_555
N4_3 N3_2 1_555 1_555
N5_3 C1_3 1_555 1_555
N7_3 Zn5_2 1_555 1_555
N10_2 C12_3 1_555 1_555
O1_3 Zn5_2 1_555 1_555
O2_2 Zn1_3 1_555 1_555
H9 O2_2 1_555 1_555
H10_2 O2_2 1_555 1_555
O3_3 C10_3 1_555 1_555
O4_3 Zn3 1_555 1_555
Zn3 O3_3 1_555 1_555
N9_3 Zn1_3 1_555 1_555
O6_3 Zn1_3 1_555 1_555
O7_3 Zn1_3 1_555 1_555
C6_3 C7_3 1_555 1_555
C10_3 O1_3 1_555 1_555
C11_3 N7_3 1_555 1_555
C14_3 N7_3 1_555 1_555
C14_3 N10_2 1_555 1_555
N4_3 N5_3 1_555 1_555
C8_3 H5_3 1_555 1_555
C9_3 H6_3 1_555 1_555
N1_3 C9_3 1_555 1_555
N6_3 C5_3 1_555 1_555
C15_3 C8_3 1_555 1_555
H8_3 C15_3 1_555 1_555
Zn4 N1_3 1_555 1_555
C8_3 N6_3 1_555 1_555
C9_3 N6_3 1_555 1_555
N1_3 C15_3 1_555 1_555
Zn1_4 N2_4 1_555 1_555
N3_3 N2_4 1_555 1_555
O2_3 Zn1_4 1_555 1_555
H9_2 O2_3 1_555 1_555
H10_3 O2_3 1_555 1_555
N9_4 Zn1_4 1_555 1_555
O6_4 Zn1_4 1_555 1_555
O7_4 Zn1_4 1_555 1_555
Zn5 N5_4 1_555 1_555
C1_4 C2_4 1_555 1_555
C2_4 C3_4 1_555 1_555
C3_4 H1_4 1_555 1_555
C4_4 C3_4 1_555 1_555
H3_4 C6_4 1_555 1_555
C7_4 C2_4 1_555 1_555
H4_4 C7_4 1_555 1_555
C10_4 C11_4 1_555 1_555
C11_4 C12_4 1_555 1_555
C12_4 C13_4 1_555 1_555
C13_4 O4_4 1_555 1_555
C14_4 H7_4 1_555 1_555
N5_4 C1_4 1_555 1_555
N7_4 Zn5 1_555 1_555
N10 C12_4 1_555 1_555
O1_4 Zn5 1_555 1_555
O3_4 C10_4 1_555 1_555
O4_4 Zn3_2 1_555 1_555
Zn3_2 O3_4 1_555 1_555
C6_4 C7_4 1_555 1_555
C10_4 O1_4 1_555 1_555
C11_4 N7_4 1_555 1_555
C14_4 N7_4 1_555 1_555
C14_4 N10 1_555 1_555
N4_4 N5_4 1_555 1_555
C8_4 H5_4 1_555 1_555
C9_4 H6_4 1_555 1_555
N1_4 C9_4 1_555 1_555
N6_4 C5_4 1_555 1_555
C15_4 C8_4 1_555 1_555
H8_4 C15_4 1_555 1_555
Zn4_2 N1_4 1_555 1_555
C8_4 N6_4 1_555 1_555
C9_4 N6_4 1_555 1_555
N1_4 C15_4 1_555 1_555
Zn3 N2_5 1_555 1_555
Zn2_3 N5_5 1_555 1_555
C1_5 C2_5 1_555 1_555
C2_5 C3_5 1_555 1_555
C3_5 H1_5 1_555 1_555
C4_5 C3_5 1_555 1_555
H2_5 C4_5 1_555 1_555
C5_5 C4_5 1_555 1_555
C6_5 C5_5 1_555 1_555
H3_5 C6_5 1_555 1_555
C7_5 C2_5 1_555 1_555
H4_5 C7_5 1_555 1_555
C8_5 H5_5 1_555 1_555
C9_5 H6_5 1_555 1_555
N9 C9_5 1_555 1_555
C10_5 C11_5 1_555 1_555
C11_5 C12_5 1_555 1_555
C12_5 C13_5 1_555 1_555
C13_5 O7_3 1_555 1_555
C14_5 H7_5 1_555 1_555
N2_5 C1_5 1_555 1_555
N5_5 C1_5 1_555 1_555
N6_5 C5_5 1_555 1_555
C15_5 C8_5 1_555 1_555
H8_5 C15_5 1_555 1_555
N7_5 Zn2_3 1_555 1_555
N8_3 C12_5 1_555 1_555
O1_5 Zn2_3 1_555 1_555
O6_3 C10_5 1_555 1_555
O5_3 C13_5 1_555 1_555
Zn5_3 N8_3 1_555 1_555
O8_3 Zn2_3 1_555 1_555
C6_5 C7_5 1_555 1_555
C8_5 N6_5 1_555 1_555
C9_5 N6_5 1_555 1_555
N9 C15_5 1_555 1_555
C10_5 O1_5 1_555 1_555
C11_5 N7_5 1_555 1_555
C14_5 N7_5 1_555 1_555
C14_5 N8_3 1_555 1_555
O5_3 Zn5_3 1_555 1_555
N4_5 N3_4 1_555 1_555
H10_4 O2_4 1_555 1_555
Zn2_4 N5_6 1_555 1_555
C1_6 C2_6 1_555 1_555
C2_6 C3_6 1_555 1_555
C3_6 H1_6 1_555 1_555
C4_6 C3_6 1_555 1_555
H2_6 C4_6 1_555 1_555
C5_6 C4_6 1_555 1_555
C6_6 C5_6 1_555 1_555
H3_6 C6_6 1_555 1_555
C7_6 C2_6 1_555 1_555
H4_6 C7_6 1_555 1_555
C8_6 H5_6 1_555 1_555
C9_6 H6_6 1_555 1_555
N9_2 C9_6 1_555 1_555
C10_6 C11_6 1_555 1_555
C11_6 C12_6 1_555 1_555
C12_6 C13_6 1_555 1_555
C13_6 O7_4 1_555 1_555
C14_6 H7_6 1_555 1_555
N5_6 C1_6 1_555 1_555
N6_6 C5_6 1_555 1_555
C15_6 C8_6 1_555 1_555
H8_6 C15_6 1_555 1_555
N7_6 Zn2_4 1_555 1_555
N8_4 C12_6 1_555 1_555
O1_6 Zn2_4 1_555 1_555
O6_4 C10_6 1_555 1_555
O5_4 C13_6 1_555 1_555
Zn5_4 N8_4 1_555 1_555
O8_4 Zn2_4 1_555 1_555
C6_6 C7_6 1_555 1_555
C8_6 N6_6 1_555 1_555
C9_6 N6_6 1_555 1_555
N9_2 C15_6 1_555 1_555
C10_6 O1_6 1_555 1_555
C11_6 N7_6 1_555 1_555
C14_6 N7_6 1_555 1_555
C14_6 N8_4 1_555 1_555
O5_4 Zn5_4 1_555 1_555
Zn3_2 N2_6 1_555 1_555
C8_7 H5_7 1_555 1_555
C9_7 H6_7 1_555 1_555
N9_3 C9_7 1_555 1_555
N6_7 C5_7 1_555 1_555
C15_7 C8_7 1_555 1_555
H8_7 C15_7 1_555 1_555
C8_7 N6_7 1_555 1_555
C9_7 N6_7 1_555 1_555
N9_3 C15_7 1_555 1_555
Zn4 N2_7 1_555 1_555
Zn5_4 N5_7 1_555 1_555
C1_7 C2_7 1_555 1_555
C2_7 C3_7 1_555 1_555
C3_7 H1_7 1_555 1_555
C4_7 C3_7 1_555 1_555
H3_7 C6_7 1_555 1_555
C7_7 C2_7 1_555 1_555
H4_7 C7_7 1_555 1_555
C10_7 C11_7 1_555 1_555
C11_7 C12_7 1_555 1_555
C12_7 C13_7 1_555 1_555
C13_7 O7 1_555 1_555
C14_7 H7_7 1_555 1_555
N2_7 C1_7 1_555 1_555
N3_5 N2_7 1_555 1_555
N4_7 N3_5 1_555 1_555
N5_7 C1_7 1_555 1_555
N7_7 Zn5_4 1_555 1_555
N10_4 C12_7 1_555 1_555
O1_7 Zn5_4 1_555 1_555
O2_5 Zn4 1_555 1_555
H9_3 O2_5 1_555 1_555
H10_5 O2_5 1_555 1_555
O6 C10_7 1_555 1_555
C6_7 C7_7 1_555 1_555
C10_7 O1_7 1_555 1_555
C11_7 N7_7 1_555 1_555
C14_7 N7_7 1_555 1_555
C14_7 N10_4 1_555 1_555
N4_7 N5_7 1_555 1_555
C8_8 H5_8 1_555 1_555
C9_8 H6_8 1_555 1_555
N9_4 C9_8 1_555 1_555
N6_8 C5_8 1_555 1_555
C15_8 C8_8 1_555 1_555
H8_8 C15_8 1_555 1_555
C8_8 N6_8 1_555 1_555
C9_8 N6_8 1_555 1_555
N9_4 C15_8 1_555 1_555
Zn5_3 N5_8 1_555 1_555
C1_8 C2_8 1_555 1_555
C2_8 C3_8 1_555 1_555
C3_8 H1_8 1_555 1_555
C4_8 C3_8 1_555 1_555
H3_8 C6_8 1_555 1_555
C7_8 C2_8 1_555 1_555
H4_8 C7_8 1_555 1_555
C10_8 C11_8 1_555 1_555
C11_8 C12_8 1_555 1_555
C12_8 C13_8 1_555 1_555
C13_8 O7_2 1_555 1_555
C14_8 H7_8 1_555 1_555
N5_8 C1_8 1_555 1_555
N7_8 Zn5_3 1_555 1_555
N10_3 C12_8 1_555 1_555
O1_8 Zn5_3 1_555 1_555
O6_2 C10_8 1_555 1_555
C6_8 C7_8 1_555 1_555
C10_8 O1_8 1_555 1_555
C11_8 N7_8 1_555 1_555
C14_8 N7_8 1_555 1_555
C14_8 N10_3 1_555 1_555
N4_8 N5_8 1_555 1_555
Zn4_2 N2_8 1_555 1_555
N3_6 N2_8 1_555 1_555
O2_6 Zn4_2 1_555 1_555
H9_4 O2_6 1_555 1_555
H10_6 O2_6 1_555 1_555
H10_7 O2_7 1_555 1_555
H10_8 O2_8 1_555 1_555

#END
