
###############################################################################
#
# This file contains modified crystal structure data generated from the
# MOF subset of the Cambridge Structural Database (CSD) v543 
# hosted by the Cambridge Crystallographic Data Centre (CCDC).
#
# This work is licensed under the Creative Commons
# Attribution-NonCommercial-ShareAlike 4.0 International License.
# To view a copy of this license, visit
# http://creativecommons.org/licenses/by-nc-sa/4.0/
# or send a letter to
# Creative Commons, PO Box 1866, Mountain View, CA 94042, USA.
#
# CIF created using the CSD Python API on 29 September 2022
# The structure has been converted into the P1 space group
# The structure has a 3D framework
# The original CSD entry VAJTUX is in the monoclinic crystal system
# The framework has been calculated to contain at least 10.0% void space
# The void calculation uses a probe of radius 1.32A, grid spacing 0.4
#
###############################################################################

data_VAJTUX
_chemical_formula_moiety         '(C44 H28 Cu3 N8 O14 S4)n'
_symmetry_cell_setting           triclinic
_symmetry_space_group_name_H-M   'P 1'
_symmetry_Int_Tables_number      1
_space_group_name_Hall           'P 1'
loop_
_symmetry_equiv_pos_site_id
_symmetry_equiv_pos_as_xyz
1 x,y,z
_cell_length_a                   8.522(9)
_cell_length_b                   10.180(11)
_cell_length_c                   17.534(19)
_cell_angle_alpha                90
_cell_angle_beta                 100.627(13)
_cell_angle_gamma                90
_cell_volume                     1495.05
loop_
_atom_site_label
_atom_site_type_symbol
_atom_site_fract_x
_atom_site_fract_y
_atom_site_fract_z
Cu2 Cu 0.01522(10) 0.67292(8) 0.09536(4)
N5 N 0.1877(6) 0.5395(6) 0.1219(3)
O6 O 0.0303(5) 0.7248(5) 0.2047(2)
O8 O 0.2092(7) 0.8535(5) 0.1655(3)
C10 C 0.2995(9) 0.0424(8) 0.0244(4)
H7 H 0.0823 0.1170 0.0228
C21 C 0.7005(9) 0.9576(8) 0.9756(4)
H14 H 0.9177 0.8830 0.9772
Cu1 Cu 0.98478(10) 0.32708(8) 0.90464(4)
N2 N 0.8123(6) 0.4605(6) 0.8781(3)
O1 O 0.5303(5) 0.7752(5) 0.7047(2)
O2 O 0.7092(7) 0.6465(5) 0.6655(3)
C1 C 0.7330(8) 0.4954(7) 0.9336(4)
C2 C 0.6198(8) 0.5916(7) 0.9235(4)
H1 H 0.5673 0.6136 0.9637
C3 C 0.5831(8) 0.6569(7) 0.8523(4)
H2 H 0.5055 0.7222 0.8438
C4 C 0.6670(8) 0.6208(7) 0.7943(3)
C5 C 0.6364(8) 0.6834(7) 0.7154(4)
C6 C 0.7812(8) 0.5247(7) 0.8103(3)
H3 H 0.8397 0.5030 0.7722
Cu3 Cu 0.51522(10) 0.82708(8) 0.59536(4)
Cu6 Cu 0.48478(10) 0.17292(8) 0.40464(4)
O5 O 0.9697(5) 0.2752(5) 0.7953(2)
O7 O 0.7908(7) 0.1465(5) 0.8345(3)
O9 O 0.6774(5) 0.0081(4) 0.4168(2)
C13 C 0.8802(8) 0.0916(7) 0.5765(4)
H8 H 0.9327 0.1136 0.5363
C14 C 0.9169(8) 0.1569(7) 0.6477(4)
H9 H 0.9945 0.2222 0.6562
C15 C 0.8330(8) 0.1208(7) 0.7057(3)
C16 C 0.8636(8) 0.1834(7) 0.7846(4)
C17 C 0.7188(8) 0.0247(7) 0.6897(3)
H10 H 0.6603 0.0030 0.7278
N4 N 0.6877(6) 0.9605(6) 0.6219(3)
O12 O 0.5666(6) 0.8345(5) 0.4902(2)
S2 S 0.7164(2) 0.90332(19) 0.47645(9)
C12 C 0.7670(8) 0.9954(7) 0.5664(4)
N1 N 0.3372(7) 0.7019(6) 0.5615(3)
C7 C 0.2155(10) 0.7027(8) 0.5975(4)
H4 H 0.2209 0.7576 0.6403
C8 C 0.0788(9) 0.6267(8) 0.5761(4)
C9 C 0.0717(8) 0.5421(7) 0.5132(4)
C10_2 C 0.2005(9) 0.5424(8) 0.4756(4)
H6 H 0.1995 0.4895 0.4323
C11 C 0.3306(9) 0.6211(8) 0.5022(4)
H7_2 H 0.4177 0.6170 0.4772
O10 O 0.3226(5) 0.9919(4) 0.5832(2)
H12 H 0.0053 0.3678 0.3970
H5 H 0.9947 0.6322 0.6030
N3 N 0.6628(7) 0.2981(6) 0.4385(3)
N5_2 N 0.3123(6) 0.0395(6) 0.3781(3)
O6_2 O 0.4697(5) 0.2248(5) 0.2953(2)
O8_2 O 0.2908(7) 0.3535(5) 0.3345(3)
O13 O 0.4334(6) 0.1655(5) 0.5098(2)
C18 C 0.7845(10) 0.2973(8) 0.4025(4)
H11 H 0.7791 0.2424 0.3597
C19 C 0.9212(9) 0.3733(8) 0.4239(4)
C20 C 0.9283(8) 0.4579(7) 0.4868(4)
C21_2 C 0.7995(9) 0.4576(8) 0.5244(4)
H13 H 0.8005 0.5105 0.5677
C22 C 0.6694(9) 0.3789(8) 0.4978(4)
H14_2 H 0.5823 0.3830 0.5228
S2_2 S 0.2836(2) 0.09668(19) 0.52355(9)
C12_2 C 0.2330(8) 0.0046(7) 0.4336(4)
C1_2 C 0.2670(8) 0.5046(7) 0.0664(4)
C2_2 C 0.3802(8) 0.4084(7) 0.0765(4)
H1_2 H 0.4327 0.3864 0.0363
C3_2 C 0.4169(8) 0.3431(7) 0.1477(4)
H2_2 H 0.4945 0.2778 0.1562
C4_2 C 0.3330(8) 0.3792(7) 0.2057(3)
C5_2 C 0.3636(8) 0.3166(7) 0.2846(4)
C6_2 C 0.2188(8) 0.4753(7) 0.1897(3)
H3_2 H 0.1603 0.4970 0.2278
C13_2 C 0.1198(8) 0.9084(7) 0.4235(4)
H8_2 H 0.0673 0.8864 0.4637
C14_2 C 0.0831(8) 0.8431(7) 0.3523(4)
H9_2 H 0.0055 0.7778 0.3438
C15_2 C 0.1670(8) 0.8792(7) 0.2943(3)
C16_2 C 0.1364(8) 0.8166(7) 0.2154(4)
C17_2 C 0.2812(8) 0.9753(7) 0.3103(3)
H10_2 H 0.3397 0.9970 0.2722
O13_2 O 0.0666(6) 0.6655(5) 0.9902(2)
N1_2 N 0.1628(7) 0.2019(6) 0.9385(3)
C7_2 C 0.2845(10) 0.2027(8) 0.9025(4)
H4_2 H 0.2791 0.2576 0.8597
C8_2 C 0.4212(9) 0.1267(8) 0.9239(4)
H5_2 H 0.5053 0.1322 0.8970
C9_2 C 0.4283(8) 0.0421(7) 0.9868(4)
C11_2 C 0.1694(9) 0.1211(8) 0.9978(4)
O10_2 O 0.1774(5) 0.4919(4) 0.9168(2)
H13_2 H 0.6995 0.0105 0.9323
S1 S 0.2164(2) 0.59668(19) 0.97645(9)
H6_2 H 0.3005 0.9895 0.0677
N3_2 N 0.8372(7) 0.7981(6) 0.0615(3)
O11 O 0.8226(5) 0.5081(4) 0.0832(2)
C18_2 C 0.7155(10) 0.7973(8) 0.0975(4)
H11_2 H 0.7209 0.7424 0.1403
C19_2 C 0.5788(9) 0.8733(8) 0.0761(4)
H12_2 H 0.4947 0.8678 0.1030
C20_2 C 0.5717(8) 0.9579(7) 0.0132(4)
C22_2 C 0.8306(9) 0.8789(8) 0.0022(4)
O4 O 0.9334(6) 0.3345(5) 0.0098(2)
S1_2 S 0.7836(2) 0.40332(19) 0.02355(9)
loop_
_geom_bond_atom_site_label_1
_geom_bond_atom_site_label_2
_geom_bond_site_symmetry_1
_geom_bond_site_symmetry_2
N5 Cu2 1_555 1_555
O6 Cu2 1_555 1_555
O8 Cu2 1_555 1_555
N2 Cu1 1_555 1_555
O1 C5 1_555 1_555
O2 C5 1_555 1_555
C1 N2 1_555 1_555
C2 C1 1_555 1_555
H1 C2 1_555 1_555
C3 C2 1_555 1_555
H2 C3 1_555 1_555
C4 C3 1_555 1_555
C5 C4 1_555 1_555
C6 N2 1_555 1_555
H3 C6 1_555 1_555
Cu3 O1 1_555 1_555
Cu6 O9 1_555 1_555
O5 Cu1 1_555 1_555
O7 Cu1 1_555 1_555
H8 C13 1_555 1_555
C14 C13 1_555 1_555
H9 C14 1_555 1_555
C15 C14 1_555 1_555
C16 O5 1_555 1_555
H10 C17 1_555 1_555
O2 Cu3 1_555 1_555
C4 C6 1_555 1_555
O7 C16 1_555 1_555
C15 C16 1_555 1_555
C15 C17 1_555 1_555
Cu3 N4 1_555 1_555
N4 C12 1_555 1_555
O12 Cu3 1_555 1_555
S2 O12 1_555 1_555
C12 S2 1_555 1_555
Cu3 N1 1_555 1_555
N1 C7 1_555 1_555
C7 H4 1_555 1_555
C8 C7 1_555 1_555
C9 C8 1_555 1_555
C10_2 C9 1_555 1_555
H6 C10_2 1_555 1_555
C11 N1 1_555 1_555
H7_2 C11 1_555 1_555
O10 Cu3 1_555 1_555
C10_2 C11 1_555 1_555
Cu6 N3 1_555 1_555
N3 C18 1_555 1_555
N5_2 Cu6 1_555 1_555
O6_2 Cu6 1_555 1_555
O8_2 Cu6 1_555 1_555
O13 Cu6 1_555 1_555
C18 H11 1_555 1_555
C19 C18 1_555 1_555
C21_2 C20 1_555 1_555
H13 C21_2 1_555 1_555
C22 N3 1_555 1_555
H14_2 C22 1_555 1_555
C19 C20 1_555 1_555
C21_2 C22 1_555 1_555
N5_2 C12_2 1_555 1_555
S2_2 O13 1_555 1_555
C12_2 S2_2 1_555 1_555
O6_2 C5_2 1_555 1_555
O8_2 C5_2 1_555 1_555
C1_2 N5 1_555 1_555
C2_2 C1_2 1_555 1_555
H1_2 C2_2 1_555 1_555
C3_2 C2_2 1_555 1_555
H2_2 C3_2 1_555 1_555
C4_2 C3_2 1_555 1_555
C5_2 C4_2 1_555 1_555
C6_2 N5 1_555 1_555
H3_2 C6_2 1_555 1_555
H8_2 C13_2 1_555 1_555
C14_2 C13_2 1_555 1_555
H9_2 C14_2 1_555 1_555
C15_2 C14_2 1_555 1_555
C16_2 O6 1_555 1_555
H10_2 C17_2 1_555 1_555
C4_2 C6_2 1_555 1_555
O8 C16_2 1_555 1_555
C15_2 C16_2 1_555 1_555
C15_2 C17_2 1_555 1_555
N1_2 C7_2 1_555 1_555
C7_2 H4_2 1_555 1_555
C8_2 C7_2 1_555 1_555
H5_2 C8_2 1_555 1_555
C9_2 C8_2 1_555 1_555
C11_2 N1_2 1_555 1_555
O10_2 S1 1_555 1_555
S1 O13_2 1_555 1_555
N3_2 C18_2 1_555 1_555
C18_2 H11_2 1_555 1_555
C19_2 C18_2 1_555 1_555
H12_2 C19_2 1_555 1_555
C22_2 N3_2 1_555 1_555
C19_2 C20_2 1_555 1_555
O11 S1_2 1_555 1_555
S1_2 O4 1_555 1_555

#END
