
###############################################################################
#
# This file contains modified crystal structure data generated from the
# MOF subset of the Cambridge Structural Database (CSD) v543 
# hosted by the Cambridge Crystallographic Data Centre (CCDC).
#
# This work is licensed under the Creative Commons
# Attribution-NonCommercial-ShareAlike 4.0 International License.
# To view a copy of this license, visit
# http://creativecommons.org/licenses/by-nc-sa/4.0/
# or send a letter to
# Creative Commons, PO Box 1866, Mountain View, CA 94042, USA.
#
# CIF created using the CSD Python API on 29 September 2022
# The structure has been converted into the P1 space group
# The structure has a 3D framework
# The original CSD entry VAKBIU is in the tetragonal crystal system
# The framework has been calculated to contain at least 10.0% void space
# The void calculation uses a probe of radius 1.32A, grid spacing 0.4
#
###############################################################################

data_VAKBIU
_chemical_formula_moiety         '(C240 H224 Mn16 N48 O64)n'
_symmetry_cell_setting           triclinic
_symmetry_space_group_name_H-M   'P 1'
_symmetry_Int_Tables_number      1
_space_group_name_Hall           'P 1'
loop_
_symmetry_equiv_pos_site_id
_symmetry_equiv_pos_as_xyz
1 x,y,z
_cell_length_a                   30.200(18)
_cell_length_b                   30.200(18)
_cell_length_c                   10.016(9)
_cell_angle_alpha                90
_cell_angle_beta                 90
_cell_angle_gamma                90
_cell_volume                     9134.99
loop_
_atom_site_label
_atom_site_type_symbol
_atom_site_fract_x
_atom_site_fract_y
_atom_site_fract_z
H12 H 0.4715 0.0148 0.2963
Mn3 Mn 0.518871(18) 0.047495(18) 0.02345(6)
H10 H 0.6189 0.0856 0.0099
H12_2 H 0.7648 0.2785 0.0463
H13 H 0.7229 0.2472 0.0207
H14 H 0.7173 0.2998 0.0161
N1 N 0.50327(10) 0.09204(11) 0.1600(3)
N2 N 0.46719(11) 0.11973(11) 0.1265(3)
O2 O 0.56933(9) 0.03102(9) 0.1271(3)
H2 H 0.7043 0.0038 0.2904
C2 C 0.62120(14) 0.02595(14) 0.3032(4)
C3 C 0.63454(15) 0.03725(16) 0.4294(5)
H4 H 0.6607 0.0245 0.4652
C4 C 0.61010(16) 0.06725(17) 0.5062(5)
H5 H 0.6196 0.0747 0.5938
C5 C 0.57280(16) 0.08567(16) 0.4554(4)
H6 H 0.5562 0.1060 0.5077
C6 C 0.55846(13) 0.07486(14) 0.3251(4)
C7 C 0.58151(13) 0.04389(13) 0.2477(4)
C8 C 0.52066(14) 0.09798(14) 0.2757(4)
H7 H 0.5074 0.1194 0.3326
C9 C 0.45275(13) 0.10839(12) 0.0097(4)
H8 H 0.4265 0.1906 0.0620
O1 O 0.35681(10) 0.00299(11) 0.7787(3)
C1 C 0.31612(18) 0.0205(2) 0.7291(6)
H1 H 0.3030 0.0401 0.7964
H3 H 0.3218 0.0374 0.6473
O5 O 0.52482(8) 0.00329(8) 0.8919(2)
N3 N 0.65158(11) 0.81435(11) 0.1589(3)
O3 O 0.53158(8) 0.92401(8) 0.0623(3)
O4 O 0.47518(8) 0.99671(8) 0.1081(2)
C10 C 0.58437(13) 0.86524(13) 0.0462(4)
C11 C 0.59140(14) 0.82226(14) 0.0057(4)
C12 C 0.62479(14) 0.79806(14) 0.0648(4)
H9 H 0.6290 0.7683 0.0372
C13 C 0.64516(14) 0.85649(14) 0.1948(4)
H10_2 H 0.6644 0.8689 0.2599
C14 C 0.61225(14) 0.88295(14) 0.1428(4)
H11 H 0.6087 0.9126 0.1723
C15 C 0.47489(18) 0.98720(16) 0.2458(4)
H13_2 H 0.5028 0.9729 0.2707
H14_2 H 0.4502 0.9673 0.2661
Mn2 Mn 0.702505(18) 0.768871(18) 0.27345(6)
N4 N 0.43565(11) 0.90158(11) 0.0911(3)
Mn1 Mn 0.018871(18) 0.047495(18) 0.47655(6)
N1_2 N 0.00327(10) 0.09204(11) 0.3400(3)
O2_2 O 0.06933(9) 0.03102(9) 0.3729(3)
O4_2 O 0.02482(8) 0.00329(8) 0.6081(2)
H2_2 H 0.2043 0.0038 0.2096
C2_2 C 0.12120(14) 0.02595(14) 0.1968(4)
C3_2 C 0.13454(15) 0.03725(16) 0.0706(5)
H4_2 H 0.1607 0.0245 0.0348
C5_2 C 0.07280(16) 0.08567(16) 0.0446(4)
C6_2 C 0.05846(13) 0.07486(14) 0.1749(4)
C7_2 C 0.08151(13) 0.04389(13) 0.2523(4)
C8_2 C 0.02066(14) 0.09798(14) 0.2243(4)
H7_2 H 0.0074 0.1194 0.1674
C15_2 C 0.02511(18) 0.01280(16) 0.7458(4)
H14_3 H 0.0498 0.0327 0.7661
N4_2 N 0.06435(11) 0.09842(11) 0.5911(3)
N2_2 N 0.96719(11) 0.11973(11) 0.3735(3)
N3_2 N 0.84842(11) 0.18565(11) 0.6589(3)
O3_2 O 0.96842(8) 0.07599(8) 0.5623(3)
C9_2 C 0.95275(13) 0.10839(12) 0.4903(4)
C10_2 C 0.91563(13) 0.13476(13) 0.5462(4)
C11_2 C 0.90860(14) 0.17774(14) 0.5057(4)
H8_2 H 0.9265 0.1906 0.4380
C12_2 C 0.87521(14) 0.20194(14) 0.5648(4)
H9_2 H 0.8710 0.2317 0.5372
C13_2 C 0.85484(14) 0.14351(14) 0.6948(4)
H10_3 H 0.8356 0.1311 0.7599
C14_2 C 0.88775(14) 0.11705(14) 0.6428(4)
H11_2 H 0.8913 0.0874 0.6723
H13_3 H 0.9972 0.0271 0.7707
Mn2_2 Mn 0.797495(18) 0.231129(18) 0.77345(6)
Mn3_2 Mn 0.981129(18) 0.952505(18) 0.52345(6)
O5_2 O 0.97518(8) 0.99671(8) 0.3919(2)
Mn1_2 Mn 0.797495(18) 0.731129(18) 0.22655(6)
N1_3 N 0.84204(11) 0.74673(10) 0.0900(3)
N2_3 N 0.86973(11) 0.78281(11) 0.1235(3)
N3_3 N 0.93565(11) 0.90158(11) 0.4089(3)
O1_2 O 0.74701(11) 0.60681(10) 0.0287(3)
O2_3 O 0.78102(9) 0.68067(9) 0.1229(3)
O3_3 O 0.82599(8) 0.78158(8) 0.3123(3)
O4_3 O 0.75329(8) 0.72518(8) 0.3581(2)
H1_2 H 0.7099 0.5530 0.0464
C7_3 C 0.79389(13) 0.66849(13) 0.0023(4)
C9_3 C 0.85839(12) 0.79725(13) 0.2403(4)
C10_3 C 0.88476(13) 0.83437(13) 0.2962(4)
C11_3 C 0.92774(14) 0.84140(14) 0.2557(4)
H8_3 H 0.9406 0.8235 0.1880
C12_3 C 0.95194(14) 0.87479(14) 0.3148(4)
H9_3 H 0.9817 0.8790 0.2872
C13_3 C 0.89351(14) 0.89516(14) 0.4448(4)
H10_4 H 0.8811 0.9144 0.5099
C14_3 C 0.86705(14) 0.86225(14) 0.3928(4)
H11_3 H 0.8374 0.8587 0.4223
C15_3 C 0.76280(16) 0.72489(18) 0.4958(4)
H12_3 H 0.7352 0.7215 0.5463
H13_4 H 0.7771 0.7528 0.5207
H14_4 H 0.7827 0.7002 0.5161
N4_3 N 0.84842(11) 0.68565(11) 0.3411(3)
O5_3 O 0.74671(8) 0.77482(8) 0.1419(2)
Mn1_3 Mn 0.702505(18) 0.268871(18) 0.72655(6)
N1_4 N 0.65796(11) 0.25327(10) 0.5900(3)
N2_4 N 0.63027(11) 0.21719(11) 0.6235(3)
N3_4 N 0.56435(11) 0.09842(11) 0.9089(3)
O1_3 O 0.75299(11) 0.39319(10) 0.5287(3)
O2_4 O 0.71898(9) 0.31933(9) 0.6229(3)
O3_4 O 0.67401(8) 0.21842(8) 0.8123(3)
O4_4 O 0.74671(8) 0.27482(8) 0.8581(2)
C1_2 C 0.7705(2) 0.43388(18) 0.4791(6)
H1_3 H 0.7901 0.4470 0.5464
H2_3 H 0.7462 0.4543 0.4596
H3_2 H 0.7874 0.4282 0.3973
C2_3 C 0.72405(14) 0.37120(14) 0.4468(4)
C3_3 C 0.71275(16) 0.38454(15) 0.3206(5)
H4_3 H 0.7255 0.4107 0.2848
C4_2 C 0.68275(17) 0.36010(16) 0.2438(5)
H5_2 H 0.6753 0.3696 0.1562
C5_3 C 0.66433(16) 0.32280(16) 0.2946(4)
H6_2 H 0.6440 0.3062 0.2423
C6_3 C 0.67514(14) 0.30846(13) 0.4249(4)
C7_4 C 0.70611(13) 0.33151(13) 0.5023(4)
C8_3 C 0.65202(14) 0.27066(14) 0.4743(4)
H7_3 H 0.6306 0.2574 0.4174
C9_4 C 0.64161(12) 0.20275(13) 0.7403(4)
C10_4 C 0.61524(13) 0.16563(13) 0.7962(4)
C11_4 C 0.57226(14) 0.15860(14) 0.7557(4)
H8_4 H 0.5594 0.1765 0.6880
C12_4 C 0.54806(14) 0.12521(14) 0.8148(4)
H9_4 H 0.5183 0.1210 0.7872
C13_4 C 0.60649(14) 0.10484(14) 0.9448(4)
C14_4 C 0.63295(14) 0.13775(14) 0.8928(4)
H11_4 H 0.6626 0.1413 0.9223
C15_4 C 0.73720(16) 0.27511(18) 0.9958(4)
N4_4 N 0.65158(11) 0.31435(11) 0.8411(3)
O5_4 O 0.75329(8) 0.22518(8) 0.6419(2)
N2_5 N 0.03281(11) 0.38027(11) 0.3735(3)
N3_5 N 0.15158(11) 0.31435(11) 0.6589(3)
O3_5 O 0.03158(8) 0.42401(8) 0.5623(3)
C9_5 C 0.04725(13) 0.39161(12) 0.4903(4)
C10_5 C 0.08437(13) 0.36524(13) 0.5462(4)
C11_5 C 0.09140(14) 0.32226(14) 0.5057(4)
H8_5 H 0.0735 0.3094 0.4380
C12_5 C 0.12479(14) 0.29806(14) 0.5648(4)
H9_5 H 0.1290 0.2683 0.5372
C13_5 C 0.14516(14) 0.35649(14) 0.6948(4)
H10_5 H 0.1644 0.3689 0.7599
C14_5 C 0.11225(14) 0.38295(14) 0.6428(4)
H11_5 H 0.1087 0.4126 0.6723
H13_5 H 0.0028 0.4729 0.7707
Mn2_3 Mn 0.202505(18) 0.268871(18) 0.77345(6)
Mn3_3 Mn 0.018871(18) 0.547495(18) 0.52345(6)
O5_5 O 0.02482(8) 0.50329(8) 0.3919(2)
Mn1_4 Mn 0.981129(18) 0.452505(18) 0.47655(6)
N1_5 N 0.99673(10) 0.40796(11) 0.3400(3)
O1_4 O 0.85681(10) 0.50299(11) 0.2787(3)
O2_5 O 0.93067(9) 0.46898(9) 0.3729(3)
O4_5 O 0.97518(8) 0.49671(8) 0.6081(2)
C1_3 C 0.81612(18) 0.5205(2) 0.2291(6)
H1_4 H 0.8030 0.5401 0.2964
H2_4 H 0.7957 0.4962 0.2096
H3_3 H 0.8218 0.5374 0.1473
C2_4 C 0.87880(14) 0.47405(14) 0.1968(4)
C3_4 C 0.86546(15) 0.46275(16) 0.0706(5)
H4_4 H 0.8393 0.4755 0.0348
C5_4 C 0.92720(16) 0.41433(16) 0.0446(4)
C6_4 C 0.94154(13) 0.42514(14) 0.1749(4)
C7_5 C 0.91849(13) 0.45611(13) 0.2523(4)
C8_4 C 0.97934(14) 0.40202(14) 0.2243(4)
H7_4 H 0.9926 0.3806 0.1674
C15_5 C 0.97489(18) 0.48720(16) 0.7458(4)
H12_4 H 0.9715 0.5148 0.7963
H14_5 H 0.9502 0.4673 0.7661
N4_5 N 0.93565(11) 0.40158(11) 0.5911(3)
N3_6 N 0.34842(11) 0.68565(11) 0.1589(3)
O3_6 O 0.46842(8) 0.57599(8) 0.0623(3)
O4_6 O 0.52482(8) 0.50329(8) 0.1081(2)
C10_6 C 0.41563(13) 0.63476(13) 0.0462(4)
C11_6 C 0.40860(14) 0.67774(14) 0.0057(4)
C12_6 C 0.37521(14) 0.70194(14) 0.0648(4)
H9_6 H 0.3710 0.7317 0.0372
C13_6 C 0.35484(14) 0.64351(14) 0.1948(4)
H10_6 H 0.3356 0.6311 0.2599
C14_6 C 0.38775(14) 0.61705(14) 0.1428(4)
H11_6 H 0.3913 0.5874 0.1723
C15_6 C 0.52511(18) 0.51280(16) 0.2458(4)
H12_5 H 0.5285 0.4852 0.2963
H13_6 H 0.4972 0.5271 0.2707
H14_6 H 0.5498 0.5327 0.2661
Mn2_4 Mn 0.297495(18) 0.731129(18) 0.27345(6)
Mn3_4 Mn 0.481129(18) 0.452505(18) 0.02345(6)
N4_6 N 0.56435(11) 0.59842(11) 0.0911(3)
Mn1_5 Mn 0.518871(18) 0.547495(18) 0.97655(6)
N1_6 N 0.50327(10) 0.59204(11) 0.8400(3)
N2_6 N 0.46719(11) 0.61973(11) 0.8735(3)
O1_5 O 0.64319(10) 0.49701(11) 0.7787(3)
O2_6 O 0.56933(9) 0.53102(9) 0.8729(3)
C1_4 C 0.68388(18) 0.4795(2) 0.7291(6)
H1_5 H 0.6970 0.4599 0.7964
H2_5 H 0.7043 0.5038 0.7096
H3_4 H 0.6782 0.4626 0.6473
C2_5 C 0.62120(14) 0.52595(14) 0.6968(4)
C3_5 C 0.63454(15) 0.53725(16) 0.5706(5)
H4_5 H 0.6607 0.5245 0.5348
C4_3 C 0.61010(16) 0.56725(17) 0.4938(5)
H5_3 H 0.6196 0.5747 0.4062
C5_5 C 0.57280(16) 0.58567(16) 0.5446(4)
H6_3 H 0.5562 0.6060 0.4923
C6_5 C 0.55846(13) 0.57486(14) 0.6749(4)
C7_6 C 0.58151(13) 0.54389(13) 0.7523(4)
C8_5 C 0.52066(14) 0.59798(14) 0.7243(4)
H7_5 H 0.5074 0.6194 0.6674
C9_6 C 0.45275(13) 0.60839(12) 0.9903(4)
H8_6 H 0.4265 0.6906 0.9380
O5_6 O 0.47518(8) 0.49671(8) 0.8919(2)
H10_7 H 0.3811 0.4144 0.0099
H12_6 H 0.2352 0.2215 0.0463
H13_7 H 0.2771 0.2528 0.0207
H14_7 H 0.2827 0.2002 0.0161
Mn1_6 Mn 0.297495(18) 0.231129(18) 0.72655(6)
N1_7 N 0.34204(11) 0.24673(10) 0.5900(3)
N2_7 N 0.36973(11) 0.28281(11) 0.6235(3)
N3_7 N 0.43565(11) 0.40158(11) 0.9089(3)
O1_6 O 0.24701(11) 0.10681(10) 0.5287(3)
O2_7 O 0.28102(9) 0.18067(9) 0.6229(3)
O3_7 O 0.32599(8) 0.28158(8) 0.8123(3)
O4_7 O 0.25329(8) 0.22518(8) 0.8581(2)
C1_5 C 0.2295(2) 0.06612(18) 0.4791(6)
H1_6 H 0.2099 0.0530 0.5464
H2_6 H 0.2538 0.0457 0.4596
H3_5 H 0.2126 0.0718 0.3973
C2_6 C 0.27595(14) 0.12880(14) 0.4468(4)
C3_6 C 0.28725(16) 0.11546(15) 0.3206(5)
H4_6 H 0.2745 0.0893 0.2848
C4_4 C 0.31725(17) 0.13990(16) 0.2438(5)
H5_4 H 0.3247 0.1304 0.1562
C5_6 C 0.33567(16) 0.17720(16) 0.2946(4)
H6_4 H 0.3560 0.1938 0.2423
C6_6 C 0.32486(14) 0.19154(13) 0.4249(4)
C7_7 C 0.29389(13) 0.16849(13) 0.5023(4)
C8_6 C 0.34798(14) 0.22934(14) 0.4743(4)
H7_6 H 0.3694 0.2426 0.4174
C9_7 C 0.35839(12) 0.29725(13) 0.7403(4)
C10_7 C 0.38476(13) 0.33437(13) 0.7962(4)
C11_7 C 0.42774(14) 0.34140(14) 0.7557(4)
H8_7 H 0.4406 0.3235 0.6880
C12_7 C 0.45194(14) 0.37479(14) 0.8148(4)
H9_7 H 0.4817 0.3790 0.7872
C13_7 C 0.39351(14) 0.39516(14) 0.9448(4)
C14_7 C 0.36705(14) 0.36225(14) 0.8928(4)
H11_7 H 0.3374 0.3587 0.9223
C15_7 C 0.26280(16) 0.22489(18) 0.9958(4)
N4_7 N 0.34842(11) 0.18565(11) 0.8411(3)
O5_7 O 0.24671(8) 0.27482(8) 0.6419(2)
Mn1_7 Mn 0.202505(18) 0.768871(18) 0.22655(6)
N1_8 N 0.15796(11) 0.75327(10) 0.0900(3)
N2_8 N 0.13027(11) 0.71719(11) 0.1235(3)
N3_8 N 0.06435(11) 0.59842(11) 0.4089(3)
O1_7 O 0.25299(11) 0.89319(10) 0.0287(3)
O2_8 O 0.21898(9) 0.81933(9) 0.1229(3)
O3_8 O 0.17401(8) 0.71842(8) 0.3123(3)
O4_8 O 0.24671(8) 0.77482(8) 0.3581(2)
H1_7 H 0.2901 0.9470 0.0464
C7_8 C 0.20611(13) 0.83151(13) 0.0023(4)
C9_8 C 0.14161(12) 0.70275(13) 0.2403(4)
C10_8 C 0.11524(13) 0.66563(13) 0.2962(4)
C11_8 C 0.07226(14) 0.65860(14) 0.2557(4)
H8_8 H 0.0594 0.6765 0.1880
C12_8 C 0.04806(14) 0.62521(14) 0.3148(4)
H9_8 H 0.0183 0.6210 0.2872
C13_8 C 0.10649(14) 0.60484(14) 0.4448(4)
H10_8 H 0.1189 0.5856 0.5099
C14_8 C 0.13295(14) 0.63775(14) 0.3928(4)
H11_8 H 0.1626 0.6413 0.4223
C15_8 C 0.23720(16) 0.77511(18) 0.4958(4)
H12_7 H 0.2648 0.7785 0.5463
H13_8 H 0.2229 0.7472 0.5207
H14_8 H 0.2173 0.7998 0.5161
N4_8 N 0.15158(11) 0.81435(11) 0.3411(3)
O5_8 O 0.25329(8) 0.72518(8) 0.1419(2)
O3_9 O 0.46842(8) 0.07599(8) 0.9377(3)
C10_9 C 0.41563(13) 0.13476(13) 0.9538(4)
C11_9 C 0.40860(14) 0.17774(14) 0.9943(4)
C12_9 C 0.37521(14) 0.20194(14) 0.9352(4)
H9_9 H 0.3710 0.2317 0.9628
C13_9 C 0.35484(14) 0.14351(14) 0.8052(4)
H10_9 H 0.3356 0.1311 0.7401
C14_9 C 0.38775(14) 0.11705(14) 0.8572(4)
H11_9 H 0.3913 0.0874 0.8277
C15_9 C 0.52511(18) 0.01280(16) 0.7542(4)
H13_9 H 0.4972 0.0271 0.7293
H14_9 H 0.5498 0.0327 0.7339
O1_8 O 0.64319(10) 0.99701(11) 0.2213(3)
C1_6 C 0.68388(18) 0.9795(2) 0.2709(6)
H1_8 H 0.6970 0.9599 0.2036
H3_6 H 0.6782 0.9626 0.3527
N2_9 N 0.03281(11) 0.88027(11) 0.6265(3)
O3_10 O 0.03158(8) 0.92401(8) 0.4377(3)
C9_9 C 0.04725(13) 0.89161(12) 0.5097(4)
C10_10 C 0.08437(13) 0.86524(13) 0.4538(4)
C11_10 C 0.09140(14) 0.82226(14) 0.4943(4)
H8_9 H 0.0735 0.8094 0.5620
C12_10 C 0.12479(14) 0.79806(14) 0.4352(4)
H9_10 H 0.1290 0.7683 0.4628
C13_10 C 0.14516(14) 0.85649(14) 0.3052(4)
H10_10 H 0.1644 0.8689 0.2401
C14_10 C 0.11225(14) 0.88295(14) 0.3572(4)
H11_10 H 0.1087 0.9126 0.3277
H13_10 H 0.0028 0.9729 0.2293
N1_9 N 0.99673(10) 0.90796(11) 0.6600(3)
O2_9 O 0.93067(9) 0.96898(9) 0.6271(3)
H2_7 H 0.7957 0.9962 0.7904
C2_7 C 0.87880(14) 0.97405(14) 0.8032(4)
C3_7 C 0.86546(15) 0.96275(16) 0.9294(5)
H4_7 H 0.8393 0.9755 0.9652
C5_7 C 0.92720(16) 0.91433(16) 0.9554(4)
C6_7 C 0.94154(13) 0.92514(14) 0.8251(4)
C7_9 C 0.91849(13) 0.95611(13) 0.7477(4)
C8_7 C 0.97934(14) 0.90202(14) 0.7757(4)
H7_7 H 0.9926 0.8806 0.8326
C15_10 C 0.97489(18) 0.98720(16) 0.2542(4)
H14_10 H 0.9502 0.9673 0.2339
N1_10 N 0.15796(11) 0.25327(10) 0.9100(3)
N2_10 N 0.13027(11) 0.21719(11) 0.8765(3)
O1_9 O 0.25299(11) 0.39319(10) 0.9713(3)
O2_10 O 0.21898(9) 0.31933(9) 0.8771(3)
O3_11 O 0.17401(8) 0.21842(8) 0.6877(3)
H1_9 H 0.2901 0.4470 0.9536
C7_10 C 0.20611(13) 0.33151(13) 0.9977(4)
C9_10 C 0.14161(12) 0.20275(13) 0.7597(4)
C10_11 C 0.11524(13) 0.16563(13) 0.7038(4)
C11_11 C 0.07226(14) 0.15860(14) 0.7443(4)
H8_10 H 0.0594 0.1765 0.8120
C12_11 C 0.04806(14) 0.12521(14) 0.6852(4)
H9_11 H 0.0183 0.1210 0.7128
C13_11 C 0.10649(14) 0.10484(14) 0.5552(4)
H10_11 H 0.1189 0.0856 0.4901
C14_11 C 0.13295(14) 0.13775(14) 0.6072(4)
H11_11 H 0.1626 0.1413 0.5777
C15_11 C 0.23720(16) 0.27511(18) 0.5042(4)
H12_8 H 0.2648 0.2785 0.4537
H13_11 H 0.2229 0.2472 0.4793
H14_11 H 0.2173 0.2998 0.4839
N1_11 N 0.34204(11) 0.74673(10) 0.4100(3)
N2_11 N 0.36973(11) 0.78281(11) 0.3765(3)
O1_10 O 0.24701(11) 0.60681(10) 0.4713(3)
O2_11 O 0.28102(9) 0.68067(9) 0.3771(3)
O3_12 O 0.32599(8) 0.78158(8) 0.1877(3)
C1_7 C 0.2295(2) 0.56612(18) 0.5209(6)
H1_10 H 0.2099 0.5530 0.4536
H2_8 H 0.2538 0.5457 0.5404
H3_7 H 0.2126 0.5718 0.6027
C2_8 C 0.27595(14) 0.62880(14) 0.5532(4)
C3_8 C 0.28725(16) 0.61546(15) 0.6794(5)
H4_8 H 0.2745 0.5893 0.7152
C4_5 C 0.31725(17) 0.63990(16) 0.7562(5)
H5_5 H 0.3247 0.6304 0.8438
C5_8 C 0.33567(16) 0.67720(16) 0.7054(4)
H6_5 H 0.3560 0.6938 0.7577
C6_8 C 0.32486(14) 0.69154(13) 0.5751(4)
C7_11 C 0.29389(13) 0.66849(13) 0.4977(4)
C8_8 C 0.34798(14) 0.72934(14) 0.5257(4)
H7_8 H 0.3694 0.7426 0.5826
C9_11 C 0.35839(12) 0.79725(13) 0.2597(4)
C10_12 C 0.38476(13) 0.83437(13) 0.2038(4)
C11_12 C 0.42774(14) 0.84140(14) 0.2443(4)
H8_11 H 0.4406 0.8235 0.3120
C12_12 C 0.45194(14) 0.87479(14) 0.1852(4)
H9_12 H 0.4817 0.8790 0.2128
C13_12 C 0.39351(14) 0.89516(14) 0.0552(4)
C14_12 C 0.36705(14) 0.86225(14) 0.1072(4)
H11_12 H 0.3374 0.8587 0.0777
C15_12 C 0.26280(16) 0.72489(18) 0.0042(4)
N1_12 N 0.00327(10) 0.59204(11) 0.6600(3)
O1_11 O 0.14319(10) 0.49701(11) 0.7213(3)
O2_12 O 0.06933(9) 0.53102(9) 0.6271(3)
C1_8 C 0.18388(18) 0.4795(2) 0.7709(6)
H1_11 H 0.1970 0.4599 0.7036
H2_9 H 0.2043 0.5038 0.7904
H3_8 H 0.1782 0.4626 0.8527
C2_9 C 0.12120(14) 0.52595(14) 0.8032(4)
C3_9 C 0.13454(15) 0.53725(16) 0.9294(5)
H4_9 H 0.1607 0.5245 0.9652
C5_9 C 0.07280(16) 0.58567(16) 0.9554(4)
C6_9 C 0.05846(13) 0.57486(14) 0.8251(4)
C7_12 C 0.08151(13) 0.54389(13) 0.7477(4)
C8_9 C 0.02066(14) 0.59798(14) 0.7757(4)
H7_9 H 0.0074 0.6194 0.8326
C15_13 C 0.02511(18) 0.51280(16) 0.2542(4)
H12_9 H 0.0285 0.4852 0.2037
H14_12 H 0.0498 0.5327 0.2339
N2_12 N 0.96719(11) 0.61973(11) 0.6265(3)
O3_13 O 0.96842(8) 0.57599(8) 0.4377(3)
C9_12 C 0.95275(13) 0.60839(12) 0.5097(4)
C10_13 C 0.91563(13) 0.63476(13) 0.4538(4)
C11_13 C 0.90860(14) 0.67774(14) 0.4943(4)
H8_12 H 0.9265 0.6906 0.5620
C12_13 C 0.87521(14) 0.70194(14) 0.4352(4)
H9_13 H 0.8710 0.7317 0.4628
C13_13 C 0.85484(14) 0.64351(14) 0.3052(4)
H10_12 H 0.8356 0.6311 0.2401
C14_13 C 0.88775(14) 0.61705(14) 0.3572(4)
H11_13 H 0.8913 0.5874 0.3277
H13_12 H 0.9972 0.5271 0.2293
N1_13 N 0.49673(10) 0.40796(11) 0.1600(3)
N2_13 N 0.53281(11) 0.38027(11) 0.1265(3)
O1_12 O 0.35681(10) 0.50299(11) 0.2213(3)
O2_13 O 0.43067(9) 0.46898(9) 0.1271(3)
C1_9 C 0.31612(18) 0.5205(2) 0.2709(6)
H1_12 H 0.3030 0.5401 0.2036
H2_10 H 0.2957 0.4962 0.2904
H3_9 H 0.3218 0.5374 0.3527
C2_10 C 0.37880(14) 0.47405(14) 0.3032(4)
C3_10 C 0.36546(15) 0.46275(16) 0.4294(5)
H4_10 H 0.3393 0.4755 0.4652
C4_6 C 0.38990(16) 0.43275(17) 0.5062(5)
H5_6 H 0.3804 0.4253 0.5938
C5_10 C 0.42720(16) 0.41433(16) 0.4554(4)
H6_6 H 0.4438 0.3940 0.5077
C6_10 C 0.44154(13) 0.42514(14) 0.3251(4)
C7_13 C 0.41849(13) 0.45611(13) 0.2477(4)
C8_10 C 0.47934(14) 0.40202(14) 0.2757(4)
H7_10 H 0.4926 0.3806 0.3326
C9_13 C 0.54725(13) 0.39161(12) 0.0097(4)
H8_13 H 0.5735 0.3094 0.0620
O3_14 O 0.53158(8) 0.42401(8) 0.9377(3)
C10_14 C 0.58437(13) 0.36524(13) 0.9538(4)
C11_14 C 0.59140(14) 0.32226(14) 0.9943(4)
C12_14 C 0.62479(14) 0.29806(14) 0.9352(4)
H9_14 H 0.6290 0.2683 0.9628
C13_14 C 0.64516(14) 0.35649(14) 0.8052(4)
H10_13 H 0.6644 0.3689 0.7401
C14_14 C 0.61225(14) 0.38295(14) 0.8572(4)
H11_14 H 0.6087 0.4126 0.8277
C15_14 C 0.47489(18) 0.48720(16) 0.7542(4)
H12_10 H 0.4715 0.5148 0.7037
H13_13 H 0.5028 0.4729 0.7293
H14_13 H 0.4502 0.4673 0.7339
N1_14 N 0.65796(11) 0.75327(10) 0.4100(3)
N2_14 N 0.63027(11) 0.71719(11) 0.3765(3)
O1_13 O 0.75299(11) 0.89319(10) 0.4713(3)
O2_14 O 0.71898(9) 0.81933(9) 0.3771(3)
O3_15 O 0.67401(8) 0.71842(8) 0.1877(3)
C1_10 C 0.7705(2) 0.93388(18) 0.5209(6)
H1_13 H 0.7901 0.9470 0.4536
H2_11 H 0.7462 0.9543 0.5404
H3_10 H 0.7874 0.9282 0.6027
C2_11 C 0.72405(14) 0.87120(14) 0.5532(4)
C3_11 C 0.71275(16) 0.88454(15) 0.6794(5)
H4_11 H 0.7255 0.9107 0.7152
C4_7 C 0.68275(17) 0.86010(16) 0.7562(5)
H5_7 H 0.6753 0.8696 0.8438
C5_11 C 0.66433(16) 0.82280(16) 0.7054(4)
H6_7 H 0.6440 0.8062 0.7577
C6_11 C 0.67514(14) 0.80846(13) 0.5751(4)
C7_14 C 0.70611(13) 0.83151(13) 0.4977(4)
C8_11 C 0.65202(14) 0.77066(14) 0.5257(4)
H7_11 H 0.6306 0.7574 0.5826
C9_14 C 0.64161(12) 0.70275(13) 0.2597(4)
C10_15 C 0.61524(13) 0.66563(13) 0.2038(4)
C11_15 C 0.57226(14) 0.65860(14) 0.2443(4)
H8_14 H 0.5594 0.6765 0.3120
C12_15 C 0.54806(14) 0.62521(14) 0.1852(4)
H9_15 H 0.5183 0.6210 0.2128
C13_15 C 0.60649(14) 0.60484(14) 0.0552(4)
C14_15 C 0.63295(14) 0.63775(14) 0.1072(4)
H11_15 H 0.6626 0.6413 0.0777
C15_15 C 0.73720(16) 0.77511(18) 0.0042(4)
H10_14 H 0.6189 0.5856 0.9901
H12_11 H 0.7648 0.7785 0.9537
H13_14 H 0.7229 0.7472 0.9793
H14_14 H 0.7173 0.7998 0.9839
N1_15 N 0.84204(11) 0.24673(10) 0.9100(3)
N2_15 N 0.86973(11) 0.28281(11) 0.8765(3)
O1_14 O 0.74701(11) 0.10681(10) 0.9713(3)
O2_15 O 0.78102(9) 0.18067(9) 0.8771(3)
O3_16 O 0.82599(8) 0.28158(8) 0.6877(3)
H1_14 H 0.7099 0.0530 0.9536
C7_15 C 0.79389(13) 0.16849(13) 0.9977(4)
C9_15 C 0.85839(12) 0.29725(13) 0.7597(4)
C10_16 C 0.88476(13) 0.33437(13) 0.7038(4)
C11_16 C 0.92774(14) 0.34140(14) 0.7443(4)
H8_15 H 0.9406 0.3235 0.8120
C12_16 C 0.95194(14) 0.37479(14) 0.6852(4)
H9_16 H 0.9817 0.3790 0.7128
C13_16 C 0.89351(14) 0.39516(14) 0.5552(4)
H10_15 H 0.8811 0.4144 0.4901
C14_16 C 0.86705(14) 0.36225(14) 0.6072(4)
H11_16 H 0.8374 0.3587 0.5777
C15_16 C 0.76280(16) 0.22489(18) 0.5042(4)
H12_12 H 0.7352 0.2215 0.4537
H13_15 H 0.7771 0.2528 0.4793
H14_15 H 0.7827 0.2002 0.4839
Mn1_8 Mn 0.481129(18) 0.952505(18) 0.97655(6)
N1_16 N 0.49673(10) 0.90796(11) 0.8400(3)
N2_16 N 0.53281(11) 0.88027(11) 0.8735(3)
O2_16 O 0.43067(9) 0.96898(9) 0.8729(3)
H2_12 H 0.2957 0.9962 0.7096
C2_12 C 0.37880(14) 0.97405(14) 0.6968(4)
C3_12 C 0.36546(15) 0.96275(16) 0.5706(5)
H4_12 H 0.3393 0.9755 0.5348
C4_8 C 0.38990(16) 0.93275(17) 0.4938(5)
H5_8 H 0.3804 0.9253 0.4062
C5_12 C 0.42720(16) 0.91433(16) 0.5446(4)
H6_8 H 0.4438 0.8940 0.4923
C6_12 C 0.44154(13) 0.92514(14) 0.6749(4)
C7_16 C 0.41849(13) 0.95611(13) 0.7523(4)
C8_12 C 0.47934(14) 0.90202(14) 0.7243(4)
H7_12 H 0.4926 0.8806 0.6674
C9_16 C 0.54725(13) 0.89161(12) 0.9903(4)
H8_16 H 0.5735 0.8094 0.9380
H12_13 H 0.5285 0.9852 0.7037
H10_16 H 0.3811 0.9144 0.9901
H12_14 H 0.2352 0.7215 0.9537
H13_16 H 0.2771 0.7528 0.9793
H14_16 H 0.2827 0.7002 0.9839
C4_9 C 0.11010(16) 0.06725(17) 0.9938(5)
H5_9 H 0.1196 0.0747 0.9062
H6_9 H 0.0562 0.1060 0.9923
O1_15 O 0.14319(10) 0.99701(11) 0.2787(3)
C1_11 C 0.18388(18) 0.9795(2) 0.2291(6)
H1_15 H 0.1970 0.9599 0.2964
H3_11 H 0.1782 0.9626 0.1473
H12_15 H 0.0285 0.9852 0.7963
C1_12 C 0.7295(2) 0.56612(18) 0.9791(6)
H2_13 H 0.7538 0.5457 0.9596
H3_12 H 0.7126 0.5718 0.8973
C2_13 C 0.77595(14) 0.62880(14) 0.9468(4)
C3_13 C 0.78725(16) 0.61546(15) 0.8206(5)
H4_13 H 0.7745 0.5893 0.7848
C4_10 C 0.81725(17) 0.63990(16) 0.7438(5)
H5_10 H 0.8247 0.6304 0.6562
C5_13 C 0.83567(16) 0.67720(16) 0.7946(4)
H6_10 H 0.8560 0.6938 0.7423
C6_13 C 0.82486(14) 0.69154(13) 0.9249(4)
C8_13 C 0.84798(14) 0.72934(14) 0.9743(4)
H7_13 H 0.8694 0.7426 0.9174
C4_11 C 0.88990(16) 0.43275(17) 0.9938(5)
H5_11 H 0.8804 0.4253 0.9062
H6_11 H 0.9438 0.3940 0.9923
C1_13 C 0.2705(2) 0.93388(18) 0.9791(6)
H2_14 H 0.2462 0.9543 0.9596
H3_13 H 0.2874 0.9282 0.8973
C2_14 C 0.22405(14) 0.87120(14) 0.9468(4)
C3_14 C 0.21275(16) 0.88454(15) 0.8206(5)
H4_14 H 0.2255 0.9107 0.7848
C4_12 C 0.18275(17) 0.86010(16) 0.7438(5)
H5_12 H 0.1753 0.8696 0.6562
C5_14 C 0.16433(16) 0.82280(16) 0.7946(4)
H6_12 H 0.1440 0.8062 0.7423
C6_14 C 0.17514(14) 0.80846(13) 0.9249(4)
C8_14 C 0.15202(14) 0.77066(14) 0.9743(4)
H7_14 H 0.1306 0.7574 0.9174
O1_16 O 0.85681(10) 0.00299(11) 0.7213(3)
C1_14 C 0.81612(18) 0.0205(2) 0.7709(6)
H1_16 H 0.8030 0.0401 0.7036
H3_14 H 0.8218 0.0374 0.8527
H12_16 H 0.9715 0.0148 0.2037
C4_13 C 0.88990(16) 0.93275(17) 0.0062(5)
H5_13 H 0.8804 0.9253 0.0938
H6_13 H 0.9438 0.8940 0.0077
C1_15 C 0.2705(2) 0.43388(18) 0.0209(6)
H2_15 H 0.2462 0.4543 0.0404
H3_15 H 0.2874 0.4282 0.1027
C2_15 C 0.22405(14) 0.37120(14) 0.0532(4)
C3_15 C 0.21275(16) 0.38454(15) 0.1794(5)
H4_15 H 0.2255 0.4107 0.2152
C4_14 C 0.18275(17) 0.36010(16) 0.2562(5)
H5_14 H 0.1753 0.3696 0.3438
C5_15 C 0.16433(16) 0.32280(16) 0.2054(4)
H6_14 H 0.1440 0.3062 0.2577
C6_15 C 0.17514(14) 0.30846(13) 0.0751(4)
C8_15 C 0.15202(14) 0.27066(14) 0.0257(4)
H7_15 H 0.1306 0.2574 0.0826
C4_15 C 0.11010(16) 0.56725(17) 0.0062(5)
H5_15 H 0.1196 0.5747 0.0938
H6_15 H 0.0562 0.6060 0.0077
C1_16 C 0.7295(2) 0.06612(18) 0.0209(6)
H2_16 H 0.7538 0.0457 0.0404
H3_16 H 0.7126 0.0718 0.1027
C2_16 C 0.77595(14) 0.12880(14) 0.0532(4)
C3_16 C 0.78725(16) 0.11546(15) 0.1794(5)
H4_16 H 0.7745 0.0893 0.2152
C4_16 C 0.81725(17) 0.13990(16) 0.2562(5)
H5_16 H 0.8247 0.1304 0.3438
C5_16 C 0.83567(16) 0.17720(16) 0.2054(4)
H6_16 H 0.8560 0.1938 0.2577
C6_16 C 0.82486(14) 0.19154(13) 0.0751(4)
C8_16 C 0.84798(14) 0.22934(14) 0.0257(4)
H7_16 H 0.8694 0.2426 0.0826
loop_
_geom_bond_atom_site_label_1
_geom_bond_atom_site_label_2
_geom_bond_site_symmetry_1
_geom_bond_site_symmetry_2
Mn3 N1 1_555 1_555
N1 N2 1_555 1_555
N2 C9 1_555 1_555
O2 Mn3 1_555 1_555
C3 C2 1_555 1_555
H4 C3 1_555 1_555
C4 C3 1_555 1_555
H5 C4 1_555 1_555
C5 C4 1_555 1_555
H6 C5 1_555 1_555
C6 C5 1_555 1_555
C7 O2 1_555 1_555
C8 N1 1_555 1_555
H7 C8 1_555 1_555
C2 C7 1_555 1_555
C6 C7 1_555 1_555
C6 C8 1_555 1_555
O1 C1 1_555 1_555
C1 H1 1_555 1_555
H3 C1 1_555 1_555
N3 C12 1_555 1_555
C11 C10 1_555 1_555
C12 C11 1_555 1_555
H9 C12 1_555 1_555
C13 N3 1_555 1_555
H10_2 C13 1_555 1_555
C14 C10 1_555 1_555
H11 C14 1_555 1_555
C15 O4 1_555 1_555
H13_2 C15 1_555 1_555
H14_2 C15 1_555 1_555
Mn2 N3 1_555 1_555
C13 C14 1_555 1_555
Mn1 N1_2 1_555 1_555
O2_2 Mn1 1_555 1_555
O4_2 Mn1 1_555 1_555
C3_2 C2_2 1_555 1_555
H4_2 C3_2 1_555 1_555
C6_2 C5_2 1_555 1_555
C7_2 O2_2 1_555 1_555
C8_2 N1_2 1_555 1_555
H7_2 C8_2 1_555 1_555
C15_2 O4_2 1_555 1_555
H14_3 C15_2 1_555 1_555
N4_2 Mn1 1_555 1_555
C2_2 C7_2 1_555 1_555
C6_2 C7_2 1_555 1_555
C6_2 C8_2 1_555 1_555
N2_2 C9_2 1_555 1_555
N3_2 C12_2 1_555 1_555
C9_2 O3_2 1_555 1_555
C10_2 C9_2 1_555 1_555
C11_2 C10_2 1_555 1_555
H8_2 C11_2 1_555 1_555
C12_2 C11_2 1_555 1_555
H9_2 C12_2 1_555 1_555
C13_2 N3_2 1_555 1_555
H10_3 C13_2 1_555 1_555
C14_2 C10_2 1_555 1_555
H11_2 C14_2 1_555 1_555
Mn2_2 N3_2 1_555 1_555
C13_2 C14_2 1_555 1_555
Mn3_2 O5_2 1_555 1_555
Mn1_2 N1_3 1_555 1_555
N1_3 N2_3 1_555 1_555
N2_3 C9_3 1_555 1_555
N3_3 C12_3 1_555 1_555
O2_3 Mn1_2 1_555 1_555
O3_3 Mn1_2 1_555 1_555
O4_3 Mn1_2 1_555 1_555
C7_3 O2_3 1_555 1_555
C9_3 O3_3 1_555 1_555
C10_3 C9_3 1_555 1_555
C11_3 C10_3 1_555 1_555
H8_3 C11_3 1_555 1_555
C12_3 C11_3 1_555 1_555
H9_3 C12_3 1_555 1_555
C13_3 N3_3 1_555 1_555
H10_4 C13_3 1_555 1_555
C14_3 C10_3 1_555 1_555
H11_3 C14_3 1_555 1_555
C15_3 O4_3 1_555 1_555
H12_3 C15_3 1_555 1_555
H13_4 C15_3 1_555 1_555
H14_4 C15_3 1_555 1_555
Mn3_2 N3_3 1_555 1_555
Mn2 O4_3 1_555 1_555
N4_3 Mn1_2 1_555 1_555
O5_3 Mn1_2 1_555 1_555
C13_3 C14_3 1_555 1_555
Mn2 O5_3 1_555 1_555
Mn1_3 N1_4 1_555 1_555
N1_4 N2_4 1_555 1_555
N2_4 C9_4 1_555 1_555
N3_4 C12_4 1_555 1_555
O1_3 C1_2 1_555 1_555
O2_4 Mn1_3 1_555 1_555
O3_4 Mn1_3 1_555 1_555
O4_4 Mn1_3 1_555 1_555
C1_2 H1_3 1_555 1_555
H2_3 C1_2 1_555 1_555
H3_2 C1_2 1_555 1_555
C2_3 O1_3 1_555 1_555
C3_3 C2_3 1_555 1_555
H4_3 C3_3 1_555 1_555
C4_2 C3_3 1_555 1_555
H5_2 C4_2 1_555 1_555
C5_3 C4_2 1_555 1_555
H6_2 C5_3 1_555 1_555
C6_3 C5_3 1_555 1_555
C7_4 O2_4 1_555 1_555
C8_3 N1_4 1_555 1_555
H7_3 C8_3 1_555 1_555
C9_4 O3_4 1_555 1_555
C10_4 C9_4 1_555 1_555
C11_4 C10_4 1_555 1_555
H8_4 C11_4 1_555 1_555
C12_4 C11_4 1_555 1_555
H9_4 C12_4 1_555 1_555
C13_4 N3_4 1_555 1_555
C14_4 C10_4 1_555 1_555
H11_4 C14_4 1_555 1_555
C15_4 O4_4 1_555 1_555
Mn2_2 O4_4 1_555 1_555
N4_4 Mn1_3 1_555 1_555
O5_4 Mn1_3 1_555 1_555
C2_3 C7_4 1_555 1_555
C6_3 C7_4 1_555 1_555
C6_3 C8_3 1_555 1_555
C13_4 C14_4 1_555 1_555
Mn2_2 O5_4 1_555 1_555
N2_5 C9_5 1_555 1_555
N3_5 C12_5 1_555 1_555
C9_5 O3_5 1_555 1_555
C10_5 C9_5 1_555 1_555
C11_5 C10_5 1_555 1_555
H8_5 C11_5 1_555 1_555
C12_5 C11_5 1_555 1_555
H9_5 C12_5 1_555 1_555
C13_5 N3_5 1_555 1_555
H10_5 C13_5 1_555 1_555
C14_5 C10_5 1_555 1_555
H11_5 C14_5 1_555 1_555
Mn2_3 N3_5 1_555 1_555
C13_5 C14_5 1_555 1_555
Mn3_3 O5_5 1_555 1_555
Mn1_4 N1_5 1_555 1_555
O1_4 C1_3 1_555 1_555
O2_5 Mn1_4 1_555 1_555
O4_5 Mn1_4 1_555 1_555
C1_3 H1_4 1_555 1_555
H2_4 C1_3 1_555 1_555
H3_3 C1_3 1_555 1_555
C2_4 O1_4 1_555 1_555
C3_4 C2_4 1_555 1_555
H4_4 C3_4 1_555 1_555
C6_4 C5_4 1_555 1_555
C7_5 O2_5 1_555 1_555
C8_4 N1_5 1_555 1_555
H7_4 C8_4 1_555 1_555
C15_5 O4_5 1_555 1_555
H12_4 C15_5 1_555 1_555
H14_5 C15_5 1_555 1_555
N4_5 Mn1_4 1_555 1_555
C2_4 C7_5 1_555 1_555
C6_4 C7_5 1_555 1_555
C6_4 C8_4 1_555 1_555
N3_6 C12_6 1_555 1_555
C11_6 C10_6 1_555 1_555
C12_6 C11_6 1_555 1_555
H9_6 C12_6 1_555 1_555
C13_6 N3_6 1_555 1_555
H10_6 C13_6 1_555 1_555
C14_6 C10_6 1_555 1_555
H11_6 C14_6 1_555 1_555
C15_6 O4_6 1_555 1_555
H12_5 C15_6 1_555 1_555
H13_6 C15_6 1_555 1_555
H14_6 C15_6 1_555 1_555
Mn2_4 N3_6 1_555 1_555
Mn3_4 O4_6 1_555 1_555
C13_6 C14_6 1_555 1_555
Mn1_5 N1_6 1_555 1_555
N1_6 N2_6 1_555 1_555
N2_6 C9_6 1_555 1_555
O1_5 C1_4 1_555 1_555
O2_6 Mn1_5 1_555 1_555
C1_4 H1_5 1_555 1_555
H2_5 C1_4 1_555 1_555
H3_4 C1_4 1_555 1_555
C2_5 O1_5 1_555 1_555
C3_5 C2_5 1_555 1_555
H4_5 C3_5 1_555 1_555
C4_3 C3_5 1_555 1_555
H5_3 C4_3 1_555 1_555
C5_5 C4_3 1_555 1_555
H6_3 C5_5 1_555 1_555
C6_5 C5_5 1_555 1_555
C7_6 O2_6 1_555 1_555
C8_5 N1_6 1_555 1_555
H7_5 C8_5 1_555 1_555
O5_6 Mn1_5 1_555 1_555
C2_5 C7_6 1_555 1_555
C6_5 C7_6 1_555 1_555
C6_5 C8_5 1_555 1_555
Mn1_6 N1_7 1_555 1_555
N1_7 N2_7 1_555 1_555
N2_7 C9_7 1_555 1_555
N3_7 C12_7 1_555 1_555
O1_6 C1_5 1_555 1_555
O2_7 Mn1_6 1_555 1_555
O3_7 Mn1_6 1_555 1_555
O4_7 Mn1_6 1_555 1_555
C1_5 H1_6 1_555 1_555
H2_6 C1_5 1_555 1_555
H3_5 C1_5 1_555 1_555
C2_6 O1_6 1_555 1_555
C3_6 C2_6 1_555 1_555
H4_6 C3_6 1_555 1_555
C4_4 C3_6 1_555 1_555
H5_4 C4_4 1_555 1_555
C5_6 C4_4 1_555 1_555
H6_4 C5_6 1_555 1_555
C6_6 C5_6 1_555 1_555
C7_7 O2_7 1_555 1_555
C8_6 N1_7 1_555 1_555
H7_6 C8_6 1_555 1_555
C9_7 O3_7 1_555 1_555
C10_7 C9_7 1_555 1_555
C11_7 C10_7 1_555 1_555
H8_7 C11_7 1_555 1_555
C12_7 C11_7 1_555 1_555
H9_7 C12_7 1_555 1_555
C13_7 N3_7 1_555 1_555
C14_7 C10_7 1_555 1_555
H11_7 C14_7 1_555 1_555
C15_7 O4_7 1_555 1_555
Mn2_3 O4_7 1_555 1_555
N4_7 Mn1_6 1_555 1_555
O5_7 Mn1_6 1_555 1_555
C2_6 C7_7 1_555 1_555
C6_6 C7_7 1_555 1_555
C6_6 C8_6 1_555 1_555
C13_7 C14_7 1_555 1_555
Mn2_3 O5_7 1_555 1_555
Mn1_7 N1_8 1_555 1_555
N1_8 N2_8 1_555 1_555
N2_8 C9_8 1_555 1_555
N3_8 C12_8 1_555 1_555
O2_8 Mn1_7 1_555 1_555
O3_8 Mn1_7 1_555 1_555
O4_8 Mn1_7 1_555 1_555
C7_8 O2_8 1_555 1_555
C9_8 O3_8 1_555 1_555
C10_8 C9_8 1_555 1_555
C11_8 C10_8 1_555 1_555
H8_8 C11_8 1_555 1_555
C12_8 C11_8 1_555 1_555
H9_8 C12_8 1_555 1_555
C13_8 N3_8 1_555 1_555
H10_8 C13_8 1_555 1_555
C14_8 C10_8 1_555 1_555
H11_8 C14_8 1_555 1_555
C15_8 O4_8 1_555 1_555
H12_7 C15_8 1_555 1_555
H13_8 C15_8 1_555 1_555
H14_8 C15_8 1_555 1_555
Mn3_3 N3_8 1_555 1_555
Mn2_4 O4_8 1_555 1_555
N4_8 Mn1_7 1_555 1_555
O5_8 Mn1_7 1_555 1_555
C13_8 C14_8 1_555 1_555
Mn2_4 O5_8 1_555 1_555
N4_7 C12_9 1_555 1_555
C11_9 C10_9 1_555 1_555
C12_9 C11_9 1_555 1_555
H9_9 C12_9 1_555 1_555
C13_9 N4_7 1_555 1_555
H10_9 C13_9 1_555 1_555
C14_9 C10_9 1_555 1_555
H11_9 C14_9 1_555 1_555
C15_9 O5 1_555 1_555
H13_9 C15_9 1_555 1_555
H14_9 C15_9 1_555 1_555
C13_9 C14_9 1_555 1_555
O1_8 C1_6 1_555 1_555
C1_6 H1_8 1_555 1_555
H3_6 C1_6 1_555 1_555
N2_9 C9_9 1_555 1_555
N4_8 C12_10 1_555 1_555
C9_9 O3_10 1_555 1_555
C10_10 C9_9 1_555 1_555
C11_10 C10_10 1_555 1_555
H8_9 C11_10 1_555 1_555
C12_10 C11_10 1_555 1_555
H9_10 C12_10 1_555 1_555
C13_10 N4_8 1_555 1_555
H10_10 C13_10 1_555 1_555
C14_10 C10_10 1_555 1_555
H11_10 C14_10 1_555 1_555
C13_10 C14_10 1_555 1_555
Mn3_2 N1_9 1_555 1_555
O2_9 Mn3_2 1_555 1_555
C3_7 C2_7 1_555 1_555
H4_7 C3_7 1_555 1_555
C6_7 C5_7 1_555 1_555
C7_9 O2_9 1_555 1_555
C8_7 N1_9 1_555 1_555
H7_7 C8_7 1_555 1_555
C15_10 O5_2 1_555 1_555
H14_10 C15_10 1_555 1_555
C2_7 C7_9 1_555 1_555
C6_7 C7_9 1_555 1_555
C6_7 C8_7 1_555 1_555
Mn2_3 N1_10 1_555 1_555
N1_10 N2_10 1_555 1_555
N2_10 C9_10 1_555 1_555
N4_2 C12_11 1_555 1_555
O2_10 Mn2_3 1_555 1_555
O3_11 Mn2_3 1_555 1_555
C7_10 O2_10 1_555 1_555
C9_10 O3_11 1_555 1_555
C10_11 C9_10 1_555 1_555
C11_11 C10_11 1_555 1_555
H8_10 C11_11 1_555 1_555
C12_11 C11_11 1_555 1_555
H9_11 C12_11 1_555 1_555
C13_11 N4_2 1_555 1_555
H10_11 C13_11 1_555 1_555
C14_11 C10_11 1_555 1_555
H11_11 C14_11 1_555 1_555
C15_11 O5_7 1_555 1_555
H12_8 C15_11 1_555 1_555
H13_11 C15_11 1_555 1_555
H14_11 C15_11 1_555 1_555
C13_11 C14_11 1_555 1_555
Mn2_4 N1_11 1_555 1_555
N1_11 N2_11 1_555 1_555
N2_11 C9_11 1_555 1_555
N4 C12_12 1_555 1_555
O1_10 C1_7 1_555 1_555
O2_11 Mn2_4 1_555 1_555
O3_12 Mn2_4 1_555 1_555
C1_7 H1_10 1_555 1_555
H2_8 C1_7 1_555 1_555
H3_7 C1_7 1_555 1_555
C2_8 O1_10 1_555 1_555
C3_8 C2_8 1_555 1_555
H4_8 C3_8 1_555 1_555
C4_5 C3_8 1_555 1_555
H5_5 C4_5 1_555 1_555
C5_8 C4_5 1_555 1_555
H6_5 C5_8 1_555 1_555
C6_8 C5_8 1_555 1_555
C7_11 O2_11 1_555 1_555
C8_8 N1_11 1_555 1_555
H7_8 C8_8 1_555 1_555
C9_11 O3_12 1_555 1_555
C10_12 C9_11 1_555 1_555
C11_12 C10_12 1_555 1_555
H8_11 C11_12 1_555 1_555
C12_12 C11_12 1_555 1_555
H9_12 C12_12 1_555 1_555
C13_12 N4 1_555 1_555
C14_12 C10_12 1_555 1_555
H11_12 C14_12 1_555 1_555
C15_12 O5_8 1_555 1_555
C2_8 C7_11 1_555 1_555
C6_8 C7_11 1_555 1_555
C6_8 C8_8 1_555 1_555
C13_12 C14_12 1_555 1_555
Mn3_3 N1_12 1_555 1_555
O1_11 C1_8 1_555 1_555
O2_12 Mn3_3 1_555 1_555
C1_8 H1_11 1_555 1_555
H2_9 C1_8 1_555 1_555
H3_8 C1_8 1_555 1_555
C2_9 O1_11 1_555 1_555
C3_9 C2_9 1_555 1_555
H4_9 C3_9 1_555 1_555
C6_9 C5_9 1_555 1_555
C7_12 O2_12 1_555 1_555
C8_9 N1_12 1_555 1_555
H7_9 C8_9 1_555 1_555
C15_13 O5_5 1_555 1_555
H12_9 C15_13 1_555 1_555
H14_12 C15_13 1_555 1_555
C2_9 C7_12 1_555 1_555
C6_9 C7_12 1_555 1_555
C6_9 C8_9 1_555 1_555
N2_12 C9_12 1_555 1_555
N4_3 C12_13 1_555 1_555
C9_12 O3_13 1_555 1_555
C10_13 C9_12 1_555 1_555
C11_13 C10_13 1_555 1_555
H8_12 C11_13 1_555 1_555
C12_13 C11_13 1_555 1_555
H9_13 C12_13 1_555 1_555
C13_13 N4_3 1_555 1_555
H10_12 C13_13 1_555 1_555
C14_13 C10_13 1_555 1_555
H11_13 C14_13 1_555 1_555
C13_13 C14_13 1_555 1_555
Mn3_4 N1_13 1_555 1_555
N1_13 N2_13 1_555 1_555
N2_13 C9_13 1_555 1_555
O1_12 C1_9 1_555 1_555
O2_13 Mn3_4 1_555 1_555
C1_9 H1_12 1_555 1_555
H2_10 C1_9 1_555 1_555
H3_9 C1_9 1_555 1_555
C2_10 O1_12 1_555 1_555
C3_10 C2_10 1_555 1_555
H4_10 C3_10 1_555 1_555
C4_6 C3_10 1_555 1_555
H5_6 C4_6 1_555 1_555
C5_10 C4_6 1_555 1_555
H6_6 C5_10 1_555 1_555
C6_10 C5_10 1_555 1_555
C7_13 O2_13 1_555 1_555
C8_10 N1_13 1_555 1_555
H7_10 C8_10 1_555 1_555
C2_10 C7_13 1_555 1_555
C6_10 C7_13 1_555 1_555
C6_10 C8_10 1_555 1_555
N4_4 C12_14 1_555 1_555
C11_14 C10_14 1_555 1_555
C12_14 C11_14 1_555 1_555
H9_14 C12_14 1_555 1_555
C13_14 N4_4 1_555 1_555
H10_13 C13_14 1_555 1_555
C14_14 C10_14 1_555 1_555
H11_14 C14_14 1_555 1_555
C15_14 O5_6 1_555 1_555
H12_10 C15_14 1_555 1_555
H13_13 C15_14 1_555 1_555
H14_13 C15_14 1_555 1_555
C13_14 C14_14 1_555 1_555
Mn2 N1_14 1_555 1_555
N1_14 N2_14 1_555 1_555
N2_14 C9_14 1_555 1_555
N4_6 C12_15 1_555 1_555
O1_13 C1_10 1_555 1_555
O2_14 Mn2 1_555 1_555
O3_15 Mn2 1_555 1_555
C1_10 H1_13 1_555 1_555
H2_11 C1_10 1_555 1_555
H3_10 C1_10 1_555 1_555
C2_11 O1_13 1_555 1_555
C3_11 C2_11 1_555 1_555
H4_11 C3_11 1_555 1_555
C4_7 C3_11 1_555 1_555
H5_7 C4_7 1_555 1_555
C5_11 C4_7 1_555 1_555
H6_7 C5_11 1_555 1_555
C6_11 C5_11 1_555 1_555
C7_14 O2_14 1_555 1_555
C8_11 N1_14 1_555 1_555
H7_11 C8_11 1_555 1_555
C9_14 O3_15 1_555 1_555
C10_15 C9_14 1_555 1_555
C11_15 C10_15 1_555 1_555
H8_14 C11_15 1_555 1_555
C12_15 C11_15 1_555 1_555
H9_15 C12_15 1_555 1_555
C13_15 N4_6 1_555 1_555
C14_15 C10_15 1_555 1_555
H11_15 C14_15 1_555 1_555
C15_15 O5_3 1_555 1_555
C2_11 C7_14 1_555 1_555
C6_11 C7_14 1_555 1_555
C6_11 C8_11 1_555 1_555
C13_15 C14_15 1_555 1_555
Mn2_2 N1_15 1_555 1_555
N1_15 N2_15 1_555 1_555
N2_15 C9_15 1_555 1_555
N4_5 C12_16 1_555 1_555
O2_15 Mn2_2 1_555 1_555
O3_16 Mn2_2 1_555 1_555
C7_15 O2_15 1_555 1_555
C9_15 O3_16 1_555 1_555
C10_16 C9_15 1_555 1_555
C11_16 C10_16 1_555 1_555
H8_15 C11_16 1_555 1_555
C12_16 C11_16 1_555 1_555
H9_16 C12_16 1_555 1_555
C13_16 N4_5 1_555 1_555
H10_15 C13_16 1_555 1_555
C14_16 C10_16 1_555 1_555
H11_16 C14_16 1_555 1_555
C15_16 O5_4 1_555 1_555
H12_12 C15_16 1_555 1_555
H13_15 C15_16 1_555 1_555
H14_15 C15_16 1_555 1_555
C13_16 C14_16 1_555 1_555
Mn1_8 N1_16 1_555 1_555
N1_16 N2_16 1_555 1_555
N2_16 C9_16 1_555 1_555
O2_16 Mn1_8 1_555 1_555
C3_12 C2_12 1_555 1_555
H4_12 C3_12 1_555 1_555
C4_8 C3_12 1_555 1_555
H5_8 C4_8 1_555 1_555
C5_12 C4_8 1_555 1_555
H6_8 C5_12 1_555 1_555
C6_12 C5_12 1_555 1_555
C7_16 O2_16 1_555 1_555
C8_12 N1_16 1_555 1_555
H7_12 C8_12 1_555 1_555
C2_12 C7_16 1_555 1_555
C6_12 C7_16 1_555 1_555
C6_12 C8_12 1_555 1_555
H5_9 C4_9 1_555 1_555
O1_15 C1_11 1_555 1_555
C1_11 H1_15 1_555 1_555
H3_11 C1_11 1_555 1_555
H2_13 C1_12 1_555 1_555
H3_12 C1_12 1_555 1_555
C3_13 C2_13 1_555 1_555
H4_13 C3_13 1_555 1_555
C4_10 C3_13 1_555 1_555
H5_10 C4_10 1_555 1_555
C5_13 C4_10 1_555 1_555
H6_10 C5_13 1_555 1_555
C6_13 C5_13 1_555 1_555
H7_13 C8_13 1_555 1_555
C6_13 C8_13 1_555 1_555
H5_11 C4_11 1_555 1_555
H2_14 C1_13 1_555 1_555
H3_13 C1_13 1_555 1_555
C3_14 C2_14 1_555 1_555
H4_14 C3_14 1_555 1_555
C4_12 C3_14 1_555 1_555
H5_12 C4_12 1_555 1_555
C5_14 C4_12 1_555 1_555
H6_12 C5_14 1_555 1_555
C6_14 C5_14 1_555 1_555
H7_14 C8_14 1_555 1_555
C6_14 C8_14 1_555 1_555
O1_16 C1_14 1_555 1_555
C1_14 H1_16 1_555 1_555
H3_14 C1_14 1_555 1_555
H5_13 C4_13 1_555 1_555
H2_15 C1_15 1_555 1_555
H3_15 C1_15 1_555 1_555
C3_15 C2_15 1_555 1_555
H4_15 C3_15 1_555 1_555
C4_14 C3_15 1_555 1_555
H5_14 C4_14 1_555 1_555
C5_15 C4_14 1_555 1_555
H6_14 C5_15 1_555 1_555
C6_15 C5_15 1_555 1_555
H7_15 C8_15 1_555 1_555
C6_15 C8_15 1_555 1_555
H5_15 C4_15 1_555 1_555
H2_16 C1_16 1_555 1_555
H3_16 C1_16 1_555 1_555
C3_16 C2_16 1_555 1_555
H4_16 C3_16 1_555 1_555
C4_16 C3_16 1_555 1_555
H5_16 C4_16 1_555 1_555
C5_16 C4_16 1_555 1_555
H6_16 C5_16 1_555 1_555
C6_16 C5_16 1_555 1_555
H7_16 C8_16 1_555 1_555
C6_16 C8_16 1_555 1_555

#END
