
###############################################################################
#
# This file contains modified crystal structure data generated from the
# MOF subset of the Cambridge Structural Database (CSD) v543 
# hosted by the Cambridge Crystallographic Data Centre (CCDC).
#
# This work is licensed under the Creative Commons
# Attribution-NonCommercial-ShareAlike 4.0 International License.
# To view a copy of this license, visit
# http://creativecommons.org/licenses/by-nc-sa/4.0/
# or send a letter to
# Creative Commons, PO Box 1866, Mountain View, CA 94042, USA.
#
# CIF created using the CSD Python API on 29 September 2022
# The structure has been converted into the P1 space group
# The structure has a 3D framework
# The original CSD entry VAKDOD is in the monoclinic crystal system
# The framework has been calculated to contain at least 10.0% void space
# The void calculation uses a probe of radius 1.32A, grid spacing 0.4
#
###############################################################################

data_VAKDOD
_chemical_formula_moiety         '(C192 H192 Cl24 N32 Pr8)n'
_symmetry_cell_setting           triclinic
_symmetry_space_group_name_H-M   'P 1'
_symmetry_Int_Tables_number      1
_space_group_name_Hall           'P 1'
loop_
_symmetry_equiv_pos_site_id
_symmetry_equiv_pos_as_xyz
1 x,y,z
_cell_length_a                   35.8284(17)
_cell_length_b                   9.2397(4)
_cell_length_c                   18.6155(9)
_cell_angle_alpha                90
_cell_angle_beta                 108.312(1)
_cell_angle_gamma                90
_cell_volume                     5850.47
loop_
_atom_site_label
_atom_site_type_symbol
_atom_site_fract_x
_atom_site_fract_y
_atom_site_fract_z
H11 H 0.08663(8) 0.0124(3) 0.32855(15)
C17 C 0.00834(9) 0.0279(3) 0.29383(15)
H15 H 0.02233(9) 0.1202(3) 0.31107(15)
H35 H 0.01368(9) 0.0215(3) 0.18485(15)
Pr5 Pr 0.365252(4) 0.936429(17) 0.115572(8)
Pr1 Pr 0.134748(4) 0.436429(17) 0.384428(8)
Cl1 Cl 0.07541(2) 0.31454(8) 0.42564(4)
Cl2 Cl 0.15025(2) 0.18411(8) 0.32472(4)
Cl3 Cl 0.18510(2) 0.59186(8) 0.33231(4)
N1 N 0.08811(7) 0.4488(3) 0.24371(12)
N2 N 0.16114(7) 0.6174(3) 0.50125(12)
N3 N 0.08793(7) 0.6669(3) 0.36213(12)
C1 C 0.03988(8) 0.4437(3) 0.09235(14)
C2 C 0.06733(8) 0.5531(3) 0.11920(15)
H1 H 0.07013(8) 0.6281(3) 0.08641(15)
C3 C 0.09061(8) 0.5514(3) 0.19442(15)
H2 H 0.10930(8) 0.6267(3) 0.21196(15)
C4 C 0.10087(8) 0.7998(3) 0.35367(15)
H3 H 0.12815(8) 0.8128(3) 0.36131(15)
N4 N 0.31902(8) 0.8070(3) 0.99329(13)
C5 C 0.15066(8) 0.5862(3) 0.56274(15)
H4 H 0.12943(8) 0.5211(3) 0.55735(15)
C6 C 0.03674(9) 0.3390(3) 0.14332(15)
H5 H 0.01798(9) 0.2634(3) 0.12748(15)
C7 C 0.02329(8) 0.7679(3) 0.33614(15)
C8 C 0.04935(8) 0.6533(3) 0.35374(14)
H7 H 0.03958(8) 0.5603(3) 0.36024(14)
C9 C 0.06113(9) 0.3453(3) 0.21761(16)
H8 H 0.05857(9) 0.2723(3) 0.25173(16)
C10 C 0.01481(8) 0.4380(3) 0.01030(14)
H10 H 0.00054(8) 0.3447(3) 0.00026(14)
C11 C 0.07621(8) 0.9201(3) 0.33420(15)
C12 C 0.20989(9) 0.7782(3) 0.57863(15)
H12 H 0.23011(9) 0.8468(3) 0.58181(15)
C13 C 0.03619(8) 0.9035(3) 0.32312(15)
C14 C 0.20006(8) 0.7419(3) 0.64275(14)
C15 C 0.16930(8) 0.6443(3) 0.63376(15)
H13 H 0.16115(8) 0.6177(3) 0.67583(15)
C16 C 0.27165(9) 0.7266(3) 0.84754(16)
C18 C 0.25729(9) 0.8125(4) 0.89354(16)
H16 H 0.23088(9) 0.8458(4) 0.87621(16)
C19 C 0.18999(9) 0.7139(3) 0.50967(15)
H17 H 0.19725(9) 0.7398(3) 0.46649(15)
C20 C 0.28150(10) 0.8499(4) 0.96509(16)
H18 H 0.27095(10) 0.9091(4) 0.99573(16)
C21 C 0.31022(10) 0.6796(4) 0.87732(19)
H19 H 0.32140(10) 0.6193(4) 0.84816(19)
C22 C 0.33241(11) 0.7209(4) 0.9497(2)
H20 H 0.35858(11) 0.6858(4) 0.9692(2)
C23 C 0.22297(8) 0.8004(3) 0.71951(14)
H21 H 0.24094(8) 0.8778(3) 0.71377(14)
H22 H 0.20465(8) 0.8428(3) 0.74398(14)
C24 C 0.24680(9) 0.6792(3) 0.76923(15)
H23 H 0.26426(9) 0.6357(3) 0.74313(15)
H24 H 0.22842(9) 0.6029(3) 0.77448(15)
H32 H 0.00344(8) 0.7536(3) 0.16701(15)
N11 N 0.18098(8) 0.3070(3) 0.50671(13)
H9 H 0.03200(8) 0.4429(3) 0.97784(14)
H6 H 0.99656(8) 0.7536(3) 0.33299(15)
H29 H 0.96800(8) 0.5571(3) 0.02216(14)
N6 N 0.91207(7) 0.6669(3) 0.13787(12)
C31 C 0.89913(8) 0.7998(3) 0.14633(15)
H31 H 0.87185(8) 0.8128(3) 0.13869(15)
C32 C 0.97671(8) 0.7679(3) 0.16386(15)
C33 C 0.95065(8) 0.6533(3) 0.14626(14)
H33 H 0.96042(8) 0.5603(3) 0.13976(14)
C34 C 0.92379(8) 0.9201(3) 0.16580(15)
C35 C 0.96381(8) 0.9035(3) 0.17688(15)
Pr2 Pr 0.865252(4) 0.436429(17) 0.115572(8)
Cl4 Cl 0.92459(2) 0.31454(8) 0.07436(4)
Cl5 Cl 0.84975(2) 0.18411(8) 0.17528(4)
Cl6 Cl 0.81490(2) 0.59186(8) 0.16769(4)
H41 H 0.80275(9) 0.7398(3) 0.03351(15)
N9 N 0.91189(7) 0.4488(3) 0.25629(12)
N5 N 0.91189(7) 0.5512(3) 0.75629(12)
C25 C 0.96012(8) 0.5563(3) 0.90765(14)
C26 C 0.93267(8) 0.4469(3) 0.88080(15)
H25 H 0.92987(8) 0.3719(3) 0.91359(15)
C27 C 0.90939(8) 0.4486(3) 0.80558(15)
H26 H 0.89070(8) 0.3733(3) 0.78804(15)
C28 C 0.96326(9) 0.6610(3) 0.85668(15)
H27 H 0.98202(9) 0.7366(3) 0.87252(15)
C29 C 0.93887(9) 0.6547(3) 0.78239(16)
H28 H 0.94143(9) 0.7277(3) 0.74827(16)
C30 C 0.98519(8) 0.5620(3) 0.98970(14)
H30 H 0.99946(8) 0.6553(3) 0.99974(14)
N7 N 0.83886(7) 0.6174(3) 0.99875(12)
N8 N 0.68098(8) 0.8070(3) 0.50671(13)
C37 C 0.84934(8) 0.5862(3) 0.93726(15)
H37 H 0.87057(8) 0.5211(3) 0.94265(15)
C38 C 0.79011(9) 0.7782(3) 0.92137(15)
H38 H 0.76989(9) 0.8468(3) 0.91819(15)
C39 C 0.79994(8) 0.7419(3) 0.85725(14)
C40 C 0.83070(8) 0.6443(3) 0.86624(15)
H39 H 0.83885(8) 0.6177(3) 0.82417(15)
C41 C 0.72835(9) 0.7266(3) 0.65246(16)
C42 C 0.74271(9) 0.8125(4) 0.60646(16)
H40 H 0.76912(9) 0.8458(4) 0.62379(16)
C43 C 0.81001(9) 0.7139(3) 0.99033(15)
C44 C 0.71850(10) 0.8499(4) 0.53491(16)
H42 H 0.72905(10) 0.9091(4) 0.50427(16)
C45 C 0.68978(10) 0.6796(4) 0.62268(19)
H43 H 0.67860(10) 0.6193(4) 0.65184(19)
C46 C 0.66759(11) 0.7209(4) 0.5503(2)
H44 H 0.64142(11) 0.6858(4) 0.5308(2)
C47 C 0.77703(8) 0.8004(3) 0.78049(14)
H45 H 0.75906(8) 0.8778(3) 0.78623(14)
H46 H 0.79535(8) 0.8428(3) 0.75602(14)
C48 C 0.75320(9) 0.6792(3) 0.73077(15)
H47 H 0.73574(9) 0.6357(3) 0.75687(15)
H48 H 0.77158(9) 0.6029(3) 0.72552(15)
Pr3 Pr 0.865252(4) 0.563571(17) 0.615572(8)
Pr4 Pr 0.634748(4) 0.936429(17) 0.384428(8)
N10 N 0.81902(8) 0.3070(3) 0.99329(13)
N5_2 N 0.08811(7) 0.5512(3) 0.74371(12)
C25_2 C 0.03988(8) 0.5563(3) 0.59235(14)
C26_2 C 0.06733(8) 0.4469(3) 0.61920(15)
H25_2 H 0.07013(8) 0.3719(3) 0.58641(15)
C27_2 C 0.09061(8) 0.4486(3) 0.69442(15)
H26_2 H 0.10930(8) 0.3733(3) 0.71196(15)
C28_2 C 0.03674(9) 0.6610(3) 0.64332(15)
H27_2 H 0.01798(9) 0.7366(3) 0.62748(15)
C29_2 C 0.06113(9) 0.6547(3) 0.71761(16)
H28_2 H 0.05857(9) 0.7277(3) 0.75173(16)
C30_2 C 0.01481(8) 0.5620(3) 0.51030(14)
H29_2 H 0.03200(8) 0.5571(3) 0.47784(14)
H30_2 H 0.00054(8) 0.6553(3) 0.50026(14)
Pr3_2 Pr 0.134748(4) 0.563571(17) 0.884428(8)
C1_2 C 0.96012(8) 0.4437(3) 0.40765(14)
C2_2 C 0.93267(8) 0.5531(3) 0.38080(15)
H1_2 H 0.92987(8) 0.6281(3) 0.41359(15)
C3_2 C 0.90939(8) 0.5514(3) 0.30558(15)
H2_2 H 0.89070(8) 0.6267(3) 0.28804(15)
C6_2 C 0.96326(9) 0.3390(3) 0.35668(15)
H5_2 H 0.98202(9) 0.2634(3) 0.37252(15)
C9_2 C 0.93887(9) 0.3453(3) 0.28239(16)
H8_2 H 0.94143(9) 0.2723(3) 0.24827(16)
C10_2 C 0.98519(8) 0.4380(3) 0.48970(14)
H9_2 H 0.96800(8) 0.4429(3) 0.52216(14)
H10_2 H 0.99946(8) 0.3447(3) 0.49974(14)
Cl3_2 Cl 0.68510(2) 0.09186(8) 0.33231(4)
N2_2 N 0.66114(7) 0.1174(3) 0.50125(12)
N3_2 N 0.58793(7) 0.1669(3) 0.36213(12)
C2_3 C 0.56733(8) 0.0531(3) 0.11920(15)
H1_3 H 0.57013(8) 0.1281(3) 0.08641(15)
C3_3 C 0.59061(8) 0.0514(3) 0.19442(15)
H2_3 H 0.60930(8) 0.1267(3) 0.21196(15)
C4_2 C 0.60087(8) 0.2998(3) 0.35367(15)
H3_2 H 0.62815(8) 0.3128(3) 0.36131(15)
C5_2 C 0.65066(8) 0.0862(3) 0.56274(15)
H4_2 H 0.62943(8) 0.0211(3) 0.55735(15)
C7_2 C 0.52329(8) 0.2679(3) 0.33614(15)
H6_2 H 0.49656(8) 0.2536(3) 0.33299(15)
C8_2 C 0.54935(8) 0.1533(3) 0.35374(14)
H7_2 H 0.53958(8) 0.0603(3) 0.36024(14)
C11_2 C 0.57621(8) 0.4201(3) 0.33420(15)
H11_2 H 0.58663(8) 0.5124(3) 0.32855(15)
C12_2 C 0.70989(9) 0.2782(3) 0.57863(15)
H12_2 H 0.73011(9) 0.3468(3) 0.58181(15)
C13_2 C 0.53619(8) 0.4035(3) 0.32312(15)
C14_2 C 0.70006(8) 0.2419(3) 0.64275(14)
C15_2 C 0.66930(8) 0.1443(3) 0.63376(15)
H13_2 H 0.66115(8) 0.1177(3) 0.67583(15)
C16_2 C 0.77165(9) 0.2266(3) 0.84754(16)
C17_2 C 0.50834(9) 0.5279(3) 0.29383(15)
H14 H 0.48632(9) 0.5215(3) 0.31515(15)
H15_2 H 0.52233(9) 0.6202(3) 0.31107(15)
C18_2 C 0.75729(9) 0.3125(4) 0.89354(16)
H16_2 H 0.73088(9) 0.3458(4) 0.87621(16)
C19_2 C 0.68999(9) 0.2139(3) 0.50967(15)
H17_2 H 0.69725(9) 0.2398(3) 0.46649(15)
C20_2 C 0.78150(10) 0.3499(4) 0.96509(16)
H18_2 H 0.77095(10) 0.4091(4) 0.99573(16)
C21_2 C 0.81022(10) 0.1796(4) 0.87732(19)
H19_2 H 0.82140(10) 0.1193(4) 0.84816(19)
C22_2 C 0.83241(11) 0.2209(4) 0.9497(2)
H20_2 H 0.85858(11) 0.1858(4) 0.9692(2)
C23_2 C 0.72297(8) 0.3004(3) 0.71951(14)
H21_2 H 0.74094(8) 0.3778(3) 0.71377(14)
H22_2 H 0.70465(8) 0.3428(3) 0.74398(14)
C24_2 C 0.74680(9) 0.1792(3) 0.76923(15)
H23_2 H 0.76426(9) 0.1357(3) 0.74313(15)
H24_2 H 0.72842(9) 0.1029(3) 0.77448(15)
H29_3 H 0.46800(8) 0.0571(3) 0.02216(14)
N6_2 N 0.41207(7) 0.1669(3) 0.13787(12)
C31_2 C 0.39913(8) 0.2998(3) 0.14633(15)
H31_2 H 0.37185(8) 0.3128(3) 0.13869(15)
C32_2 C 0.47671(8) 0.2679(3) 0.16386(15)
H32_2 H 0.50344(8) 0.2536(3) 0.16701(15)
C33_2 C 0.45065(8) 0.1533(3) 0.14626(14)
H33_2 H 0.46042(8) 0.0603(3) 0.13976(14)
C34_2 C 0.42379(8) 0.4201(3) 0.16580(15)
H34 H 0.41337(8) 0.5124(3) 0.17145(15)
C35_2 C 0.46381(8) 0.4035(3) 0.17688(15)
C36 C 0.49166(9) 0.5279(3) 0.20617(15)
H35_2 H 0.51368(9) 0.5215(3) 0.18485(15)
H36 H 0.47767(9) 0.6202(3) 0.18893(15)
Cl6_2 Cl 0.31490(2) 0.09186(8) 0.16769(4)
H41_2 H 0.30275(9) 0.2398(3) 0.03351(15)
N5_3 N 0.41189(7) 0.0512(3) 0.75629(12)
C25_3 C 0.46012(8) 0.0563(3) 0.90765(14)
C28_3 C 0.46326(9) 0.1610(3) 0.85668(15)
H27_3 H 0.48202(9) 0.2366(3) 0.87252(15)
C29_3 C 0.43887(9) 0.1547(3) 0.78239(16)
H28_3 H 0.44143(9) 0.2277(3) 0.74827(16)
C30_3 C 0.48519(8) 0.0620(3) 0.98970(14)
H30_3 H 0.49946(8) 0.1553(3) 0.99974(14)
N7_2 N 0.33886(7) 0.1174(3) 0.99875(12)
C37_2 C 0.34934(8) 0.0862(3) 0.93726(15)
H37_2 H 0.37057(8) 0.0211(3) 0.94265(15)
C38_2 C 0.29011(9) 0.2782(3) 0.92137(15)
H38_2 H 0.26989(9) 0.3468(3) 0.91819(15)
C39_2 C 0.29994(8) 0.2419(3) 0.85725(14)
C40_2 C 0.33070(8) 0.1443(3) 0.86624(15)
H39_2 H 0.33885(8) 0.1177(3) 0.82417(15)
C41_2 C 0.22835(9) 0.2266(3) 0.65246(16)
C42_2 C 0.24271(9) 0.3125(4) 0.60646(16)
H40_2 H 0.26912(9) 0.3458(4) 0.62379(16)
C43_2 C 0.31001(9) 0.2139(3) 0.99033(15)
C44_2 C 0.21850(10) 0.3499(4) 0.53491(16)
H42_2 H 0.22905(10) 0.4091(4) 0.50427(16)
C45_2 C 0.18978(10) 0.1796(4) 0.62268(19)
H43_2 H 0.17860(10) 0.1193(4) 0.65184(19)
C46_2 C 0.16759(11) 0.2209(4) 0.5503(2)
H44_2 H 0.14142(11) 0.1858(4) 0.5308(2)
C47_2 C 0.27703(8) 0.3004(3) 0.78049(14)
H45_2 H 0.25906(8) 0.3778(3) 0.78623(14)
H46_2 H 0.29535(8) 0.3428(3) 0.75602(14)
C48_2 C 0.25320(9) 0.1792(3) 0.73077(15)
H47_2 H 0.23574(9) 0.1357(3) 0.75687(15)
H48_2 H 0.27158(9) 0.1029(3) 0.72552(15)
Pr3_3 Pr 0.365252(4) 0.063571(17) 0.615572(8)
Cl1_2 Cl 0.57541(2) 0.81454(8) 0.42564(4)
Cl2_2 Cl 0.65025(2) 0.68411(8) 0.32472(4)
N1_2 N 0.58811(7) 0.9488(3) 0.24371(12)
C1_3 C 0.53988(8) 0.9437(3) 0.09235(14)
C6_3 C 0.53674(9) 0.8390(3) 0.14332(15)
H5_3 H 0.51798(9) 0.7634(3) 0.12748(15)
C9_3 C 0.56113(9) 0.8453(3) 0.21761(16)
H8_3 H 0.55857(9) 0.7723(3) 0.25173(16)
C10_3 C 0.51481(8) 0.9380(3) 0.01030(14)
H10_3 H 0.50054(8) 0.8447(3) 0.00026(14)
Cl4_2 Cl 0.42459(2) 0.81454(8) 0.07436(4)
Cl5_2 Cl 0.34975(2) 0.68411(8) 0.17528(4)
N9_2 N 0.41189(7) 0.9488(3) 0.25629(12)
H9_3 H 0.53200(8) 0.9429(3) 0.97784(14)
C26_3 C 0.43267(8) 0.9469(3) 0.88080(15)
H25_3 H 0.42987(8) 0.8719(3) 0.91359(15)
C27_3 C 0.40939(8) 0.9486(3) 0.80558(15)
H26_3 H 0.39070(8) 0.8733(3) 0.78804(15)
C2_4 C 0.43267(8) 0.0531(3) 0.38080(15)
H1_4 H 0.42987(8) 0.1281(3) 0.41359(15)
C3_4 C 0.40939(8) 0.0514(3) 0.30558(15)
H2_4 H 0.39070(8) 0.1267(3) 0.28804(15)
N5_4 N 0.58811(7) 0.0512(3) 0.74371(12)
C25_4 C 0.53988(8) 0.0563(3) 0.59235(14)
C28_4 C 0.53674(9) 0.1610(3) 0.64332(15)
H27_4 H 0.51798(9) 0.2366(3) 0.62748(15)
C29_4 C 0.56113(9) 0.1547(3) 0.71761(16)
H28_4 H 0.55857(9) 0.2277(3) 0.75173(16)
C30_4 C 0.51481(8) 0.0620(3) 0.51030(14)
H29_4 H 0.53200(8) 0.0571(3) 0.47784(14)
H30_4 H 0.50054(8) 0.1553(3) 0.50026(14)
Pr3_4 Pr 0.634748(4) 0.063571(17) 0.884428(8)
C1_4 C 0.46012(8) 0.9437(3) 0.40765(14)
C6_4 C 0.46326(9) 0.8390(3) 0.35668(15)
H5_4 H 0.48202(9) 0.7634(3) 0.37252(15)
C9_4 C 0.43887(9) 0.8453(3) 0.28239(16)
H8_4 H 0.44143(9) 0.7723(3) 0.24827(16)
C10_4 C 0.48519(8) 0.9380(3) 0.48970(14)
H9_4 H 0.46800(8) 0.9429(3) 0.52216(14)
H10_4 H 0.49946(8) 0.8447(3) 0.49974(14)
C26_4 C 0.56733(8) 0.9469(3) 0.61920(15)
H25_4 H 0.57013(8) 0.8719(3) 0.58641(15)
C27_4 C 0.59061(8) 0.9486(3) 0.69442(15)
H26_4 H 0.60930(8) 0.8733(3) 0.71196(15)
N7_3 N 0.16114(7) 0.3826(3) 0.00125(12)
N8_2 N 0.31902(8) 0.1930(3) 0.49329(13)
C37_3 C 0.15066(8) 0.4138(3) 0.06274(15)
H37_3 H 0.12943(8) 0.4789(3) 0.05735(15)
C38_3 C 0.20989(9) 0.2218(3) 0.07863(15)
H38_3 H 0.23011(9) 0.1532(3) 0.08181(15)
C39_3 C 0.20006(8) 0.2581(3) 0.14275(14)
C40_3 C 0.16930(8) 0.3557(3) 0.13376(15)
H39_3 H 0.16115(8) 0.3823(3) 0.17583(15)
C41_3 C 0.27165(9) 0.2734(3) 0.34754(16)
C42_3 C 0.25729(9) 0.1875(4) 0.39354(16)
H40_3 H 0.23088(9) 0.1542(4) 0.37621(16)
C43_3 C 0.18999(9) 0.2861(3) 0.00967(15)
C44_3 C 0.28150(10) 0.1501(4) 0.46509(16)
H42_3 H 0.27095(10) 0.0909(4) 0.49573(16)
C45_3 C 0.31022(10) 0.3204(4) 0.37732(19)
H43_3 H 0.32140(10) 0.3807(4) 0.34816(19)
C46_3 C 0.33241(11) 0.2791(4) 0.4497(2)
H44_3 H 0.35858(11) 0.3142(4) 0.4692(2)
C47_3 C 0.22297(8) 0.1996(3) 0.21951(14)
H45_3 H 0.24094(8) 0.1222(3) 0.21377(14)
H46_3 H 0.20465(8) 0.1572(3) 0.24398(14)
C48_3 C 0.24680(9) 0.3208(3) 0.26923(15)
H47_3 H 0.26426(9) 0.3643(3) 0.24313(15)
H48_3 H 0.22842(9) 0.3971(3) 0.27448(15)
N10_2 N 0.18098(8) 0.6930(3) 0.00671(13)
H6_3 H 0.00344(8) 0.2464(3) 0.66701(15)
N6_3 N 0.08793(7) 0.3331(3) 0.86213(12)
C31_3 C 0.10087(8) 0.2002(3) 0.85367(15)
H31_3 H 0.12815(8) 0.1872(3) 0.86131(15)
C32_3 C 0.02329(8) 0.2321(3) 0.83614(15)
C33_3 C 0.04935(8) 0.3467(3) 0.85374(14)
H33_3 H 0.03958(8) 0.4397(3) 0.86024(14)
C34_3 C 0.07621(8) 0.0799(3) 0.83420(15)
C35_3 C 0.03619(8) 0.0965(3) 0.82312(15)
Cl4_3 Cl 0.07541(2) 0.68546(8) 0.92564(4)
Cl5_3 Cl 0.15025(2) 0.81589(8) 0.82472(4)
Cl6_3 Cl 0.18510(2) 0.40814(8) 0.83231(4)
H41_3 H 0.19725(9) 0.2602(3) 0.96649(15)
Cl1_3 Cl 0.92459(2) 0.68546(8) 0.57436(4)
Cl2_3 Cl 0.84975(2) 0.81589(8) 0.67528(4)
Cl3_3 Cl 0.81490(2) 0.40814(8) 0.66769(4)
N2_3 N 0.83886(7) 0.3826(3) 0.49875(12)
N3_3 N 0.91207(7) 0.3331(3) 0.63787(12)
C4_3 C 0.89913(8) 0.2002(3) 0.64633(15)
H3_3 H 0.87185(8) 0.1872(3) 0.63869(15)
N4_2 N 0.68098(8) 0.1930(3) 0.00671(13)
C5_3 C 0.84934(8) 0.4138(3) 0.43726(15)
H4_3 H 0.87057(8) 0.4789(3) 0.44265(15)
C7_3 C 0.97671(8) 0.2321(3) 0.66386(15)
C8_3 C 0.95065(8) 0.3467(3) 0.64626(14)
H7_3 H 0.96042(8) 0.4397(3) 0.63976(14)
C11_3 C 0.92379(8) 0.0799(3) 0.66580(15)
C12_3 C 0.79011(9) 0.2218(3) 0.42137(15)
H12_3 H 0.76989(9) 0.1532(3) 0.41819(15)
C13_3 C 0.96381(8) 0.0965(3) 0.67688(15)
C14_3 C 0.79994(8) 0.2581(3) 0.35725(14)
C15_3 C 0.83070(8) 0.3557(3) 0.36624(15)
H13_3 H 0.83885(8) 0.3823(3) 0.32417(15)
C16_3 C 0.72835(9) 0.2734(3) 0.15246(16)
C18_3 C 0.74271(9) 0.1875(4) 0.10646(16)
H16_3 H 0.76912(9) 0.1542(4) 0.12379(16)
C19_3 C 0.81001(9) 0.2861(3) 0.49033(15)
H17_3 H 0.80275(9) 0.2602(3) 0.53351(15)
C20_3 C 0.71850(10) 0.1501(4) 0.03491(16)
H18_3 H 0.72905(10) 0.0909(4) 0.00427(16)
C21_3 C 0.68978(10) 0.3204(4) 0.12268(19)
H19_3 H 0.67860(10) 0.3807(4) 0.15184(19)
C22_3 C 0.66759(11) 0.2791(4) 0.0503(2)
H20_3 H 0.64142(11) 0.3142(4) 0.0308(2)
C23_3 C 0.77703(8) 0.1996(3) 0.28049(14)
H21_3 H 0.75906(8) 0.1222(3) 0.28623(14)
H22_3 H 0.79535(8) 0.1572(3) 0.25602(14)
C24_3 C 0.75320(9) 0.3208(3) 0.23077(15)
H23_3 H 0.73574(9) 0.3643(3) 0.25687(15)
H24_3 H 0.77158(9) 0.3971(3) 0.22552(15)
H32_3 H 0.99656(8) 0.2464(3) 0.83299(15)
N11_2 N 0.81902(8) 0.6930(3) 0.49329(13)
Cl1_4 Cl 0.42459(2) 0.18546(8) 0.57436(4)
Cl2_4 Cl 0.34975(2) 0.31589(8) 0.67528(4)
Cl4_4 Cl 0.57541(2) 0.18546(8) 0.92564(4)
Cl5_4 Cl 0.65025(2) 0.31589(8) 0.82472(4)
N7_4 N 0.66114(7) 0.8826(3) 0.00125(12)
C37_4 C 0.65066(8) 0.9138(3) 0.06274(15)
H37_4 H 0.62943(8) 0.9789(3) 0.05735(15)
C38_4 C 0.70989(9) 0.7218(3) 0.07863(15)
H38_4 H 0.73011(9) 0.6532(3) 0.08181(15)
C39_4 C 0.70006(8) 0.7581(3) 0.14275(14)
C40_4 C 0.66930(8) 0.8557(3) 0.13376(15)
H39_4 H 0.66115(8) 0.8823(3) 0.17583(15)
C41_4 C 0.77165(9) 0.7734(3) 0.34754(16)
C42_4 C 0.75729(9) 0.6875(4) 0.39354(16)
H40_4 H 0.73088(9) 0.6542(4) 0.37621(16)
C43_4 C 0.68999(9) 0.7861(3) 0.00967(15)
C44_4 C 0.78150(10) 0.6501(4) 0.46509(16)
H42_4 H 0.77095(10) 0.5909(4) 0.49573(16)
C45_4 C 0.81022(10) 0.8204(4) 0.37732(19)
H43_4 H 0.82140(10) 0.8807(4) 0.34816(19)
C46_4 C 0.83241(11) 0.7791(4) 0.4497(2)
H44_4 H 0.85858(11) 0.8142(4) 0.4692(2)
C47_4 C 0.72297(8) 0.6996(3) 0.21951(14)
H45_4 H 0.74094(8) 0.6222(3) 0.21377(14)
H46_4 H 0.70465(8) 0.6572(3) 0.24398(14)
C48_4 C 0.74680(9) 0.8208(3) 0.26923(15)
H47_4 H 0.76426(9) 0.8643(3) 0.24313(15)
H48_4 H 0.72842(9) 0.8971(3) 0.27448(15)
Cl3_4 Cl 0.31490(2) 0.90814(8) 0.66769(4)
N2_4 N 0.33886(7) 0.8826(3) 0.49875(12)
N3_4 N 0.41207(7) 0.8331(3) 0.63787(12)
C4_4 C 0.39913(8) 0.7002(3) 0.64633(15)
H3_4 H 0.37185(8) 0.6872(3) 0.63869(15)
C5_4 C 0.34934(8) 0.9138(3) 0.43726(15)
H4_4 H 0.37057(8) 0.9789(3) 0.44265(15)
C7_4 C 0.47671(8) 0.7321(3) 0.66386(15)
H6_4 H 0.50344(8) 0.7464(3) 0.66701(15)
C8_4 C 0.45065(8) 0.8467(3) 0.64626(14)
H7_4 H 0.46042(8) 0.9397(3) 0.63976(14)
C11_4 C 0.42379(8) 0.5799(3) 0.66580(15)
H11_3 H 0.41337(8) 0.4876(3) 0.67145(15)
C12_4 C 0.29011(9) 0.7218(3) 0.42137(15)
H12_4 H 0.26989(9) 0.6532(3) 0.41819(15)
C13_4 C 0.46381(8) 0.5965(3) 0.67688(15)
C14_4 C 0.29994(8) 0.7581(3) 0.35725(14)
C15_4 C 0.33070(8) 0.8557(3) 0.36624(15)
H13_4 H 0.33885(8) 0.8823(3) 0.32417(15)
C16_4 C 0.22835(9) 0.7734(3) 0.15246(16)
C17_3 C 0.49166(9) 0.4721(3) 0.70617(15)
H14_2 H 0.51368(9) 0.4785(3) 0.68485(15)
H15_3 H 0.47767(9) 0.3798(3) 0.68893(15)
C18_4 C 0.24271(9) 0.6875(4) 0.10646(16)
H16_4 H 0.26912(9) 0.6542(4) 0.12379(16)
C19_4 C 0.31001(9) 0.7861(3) 0.49033(15)
H17_4 H 0.30275(9) 0.7602(3) 0.53351(15)
C20_4 C 0.21850(10) 0.6501(4) 0.03491(16)
H18_4 H 0.22905(10) 0.5909(4) 0.00427(16)
C21_4 C 0.18978(10) 0.8204(4) 0.12268(19)
H19_4 H 0.17860(10) 0.8807(4) 0.15184(19)
C22_4 C 0.16759(11) 0.7791(4) 0.0503(2)
H20_4 H 0.14142(11) 0.8142(4) 0.0308(2)
C23_4 C 0.27703(8) 0.6996(3) 0.28049(14)
H21_4 H 0.25906(8) 0.6222(3) 0.28623(14)
H22_4 H 0.29535(8) 0.6572(3) 0.25602(14)
C24_4 C 0.25320(9) 0.8208(3) 0.23077(15)
H23_4 H 0.23574(9) 0.8643(3) 0.25687(15)
H24_4 H 0.27158(9) 0.8971(3) 0.22552(15)
N6_4 N 0.58793(7) 0.8331(3) 0.86213(12)
C31_4 C 0.60087(8) 0.7002(3) 0.85367(15)
H31_4 H 0.62815(8) 0.6872(3) 0.86131(15)
C32_4 C 0.52329(8) 0.7321(3) 0.83614(15)
H32_4 H 0.49656(8) 0.7464(3) 0.83299(15)
C33_4 C 0.54935(8) 0.8467(3) 0.85374(14)
H33_4 H 0.53958(8) 0.9397(3) 0.86024(14)
C34_4 C 0.57621(8) 0.5799(3) 0.83420(15)
H34_2 H 0.58663(8) 0.4876(3) 0.82855(15)
C35_4 C 0.53619(8) 0.5965(3) 0.82312(15)
C36_2 C 0.50834(9) 0.4721(3) 0.79383(15)
H35_3 H 0.48632(9) 0.4785(3) 0.81515(15)
H36_2 H 0.52233(9) 0.3798(3) 0.81107(15)
Cl6_4 Cl 0.68510(2) 0.90814(8) 0.83231(4)
H41_4 H 0.69725(9) 0.7602(3) 0.96649(15)
H14_3 H 0.98632(9) 0.0215(3) 0.31515(15)
H34_3 H 0.91337(8) 0.0124(3) 0.17145(15)
C36_3 C 0.99166(9) 0.0279(3) 0.20617(15)
H36_3 H 0.97767(9) 0.1202(3) 0.18893(15)
H14_4 H 0.01368(9) 0.9785(3) 0.68485(15)
H34_4 H 0.08663(8) 0.9876(3) 0.82855(15)
C36_4 C 0.00834(9) 0.9721(3) 0.79383(15)
H36_4 H 0.02233(9) 0.8798(3) 0.81107(15)
H11_4 H 0.91337(8) 0.9876(3) 0.67145(15)
C17_4 C 0.99166(9) 0.9721(3) 0.70617(15)
H15_4 H 0.97767(9) 0.8798(3) 0.68893(15)
H35_4 H 0.98632(9) 0.9785(3) 0.81515(15)
loop_
_geom_bond_atom_site_label_1
_geom_bond_atom_site_label_2
_geom_bond_site_symmetry_1
_geom_bond_site_symmetry_2
H15 C17 1_555 1_555
Pr1 Cl1 1_555 1_555
Cl2 Pr1 1_555 1_555
Cl3 Pr1 1_555 1_555
N1 Pr1 1_555 1_555
N2 Pr1 1_555 1_555
N3 Pr1 1_555 1_555
C1 C2 1_555 1_555
C2 H1 1_555 1_555
C3 N1 1_555 1_555
H2 C3 1_555 1_555
C4 N3 1_555 1_555
H3 C4 1_555 1_555
N4 C20 1_555 1_555
C5 N2 1_555 1_555
H4 C5 1_555 1_555
C6 C1 1_555 1_555
H5 C6 1_555 1_555
C8 N3 1_555 1_555
H7 C8 1_555 1_555
C9 N1 1_555 1_555
H8 C9 1_555 1_555
C10 C1 1_555 1_555
H10 C10 1_555 1_555
C11 C4 1_555 1_555
C12 H12 1_555 1_555
C13 C7 1_555 1_555
C14 C12 1_555 1_555
C15 C5 1_555 1_555
H13 C15 1_555 1_555
C16 C18 1_555 1_555
C18 H16 1_555 1_555
C19 N2 1_555 1_555
H17 C19 1_555 1_555
C20 C18 1_555 1_555
H18 C20 1_555 1_555
C21 C16 1_555 1_555
H19 C21 1_555 1_555
C22 N4 1_555 1_555
H20 C22 1_555 1_555
C23 C14 1_555 1_555
H21 C23 1_555 1_555
H22 C23 1_555 1_555
C24 C16 1_555 1_555
H23 C24 1_555 1_555
H24 C24 1_555 1_555
N11 Pr1 1_555 1_555
C2 C3 1_555 1_555
C6 C9 1_555 1_555
C7 C8 1_555 1_555
C11 C13 1_555 1_555
C12 C19 1_555 1_555
C14 C15 1_555 1_555
C21 C22 1_555 1_555
C23 C24 1_555 1_555
N6 C31 1_555 1_555
C31 H31 1_555 1_555
C33 N6 1_555 1_555
H33 C33 1_555 1_555
C34 C31 1_555 1_555
C35 C32 1_555 1_555
Pr2 N6 1_555 1_555
Cl4 Pr2 1_555 1_555
Cl5 Pr2 1_555 1_555
Cl6 Pr2 1_555 1_555
N9 Pr2 1_555 1_555
C32 C33 1_555 1_555
C34 C35 1_555 1_555
N5 C27 1_555 1_555
C25 C26 1_555 1_555
C26 H25 1_555 1_555
C27 C26 1_555 1_555
H26 C27 1_555 1_555
C28 C25 1_555 1_555
H27 C28 1_555 1_555
C29 N5 1_555 1_555
H28 C29 1_555 1_555
H30 C30 1_555 1_555
N8 C44 1_555 1_555
C37 N7 1_555 1_555
H37 C37 1_555 1_555
C38 H38 1_555 1_555
C39 C38 1_555 1_555
C40 C37 1_555 1_555
H39 C40 1_555 1_555
C41 C42 1_555 1_555
C42 H40 1_555 1_555
C43 N7 1_555 1_555
C44 C42 1_555 1_555
H42 C44 1_555 1_555
C45 C41 1_555 1_555
H43 C45 1_555 1_555
C46 N8 1_555 1_555
H44 C46 1_555 1_555
C47 C39 1_555 1_555
H45 C47 1_555 1_555
H46 C47 1_555 1_555
C48 C41 1_555 1_555
H47 C48 1_555 1_555
H48 C48 1_555 1_555
Pr3 N5 1_555 1_555
Pr4 N8 1_555 1_555
C25 C30 1_555 1_555
C28 C29 1_555 1_555
C38 C43 1_555 1_555
C39 C40 1_555 1_555
C45 C46 1_555 1_555
C47 C48 1_555 1_555
N5_2 C27_2 1_555 1_555
C25_2 C26_2 1_555 1_555
C26_2 H25_2 1_555 1_555
C27_2 C26_2 1_555 1_555
H26_2 C27_2 1_555 1_555
C28_2 C25_2 1_555 1_555
H27_2 C28_2 1_555 1_555
C29_2 N5_2 1_555 1_555
H28_2 C29_2 1_555 1_555
H29_2 C30_2 1_555 1_555
H30_2 C30_2 1_555 1_555
Pr3_2 N5_2 1_555 1_555
C25_2 C30_2 1_555 1_555
C28_2 C29_2 1_555 1_555
C1_2 C2_2 1_555 1_555
C2_2 H1_2 1_555 1_555
C3_2 N9 1_555 1_555
H2_2 C3_2 1_555 1_555
C6_2 C1_2 1_555 1_555
H5_2 C6_2 1_555 1_555
C9_2 N9 1_555 1_555
H8_2 C9_2 1_555 1_555
C10_2 C1_2 1_555 1_555
H9_2 C10_2 1_555 1_555
H10_2 C10_2 1_555 1_555
C2_2 C3_2 1_555 1_555
C6_2 C9_2 1_555 1_555
C2_3 H1_3 1_555 1_555
H2_3 C3_3 1_555 1_555
C4_2 N3_2 1_555 1_555
H3_2 C4_2 1_555 1_555
N10 C20_2 1_555 1_555
C5_2 N2_2 1_555 1_555
H4_2 C5_2 1_555 1_555
C7_2 H6_2 1_555 1_555
C8_2 N3_2 1_555 1_555
H7_2 C8_2 1_555 1_555
C11_2 C4_2 1_555 1_555
H11_2 C11_2 1_555 1_555
C12_2 H12_2 1_555 1_555
C13_2 C7_2 1_555 1_555
C14_2 C12_2 1_555 1_555
C15_2 C5_2 1_555 1_555
H13_2 C15_2 1_555 1_555
C16_2 C18_2 1_555 1_555
C17_2 C13_2 1_555 1_555
H14 C17_2 1_555 1_555
H15_2 C17_2 1_555 1_555
C18_2 H16_2 1_555 1_555
C19_2 N2_2 1_555 1_555
H17_2 C19_2 1_555 1_555
C20_2 C18_2 1_555 1_555
H18_2 C20_2 1_555 1_555
C21_2 C16_2 1_555 1_555
H19_2 C21_2 1_555 1_555
C22_2 N10 1_555 1_555
H20_2 C22_2 1_555 1_555
C23_2 C14_2 1_555 1_555
H21_2 C23_2 1_555 1_555
H22_2 C23_2 1_555 1_555
C24_2 C16_2 1_555 1_555
H23_2 C24_2 1_555 1_555
H24_2 C24_2 1_555 1_555
N6_2 C31_2 1_555 1_555
C31_2 H31_2 1_555 1_555
C32_2 H32_2 1_555 1_555
C33_2 N6_2 1_555 1_555
H33_2 C33_2 1_555 1_555
C34_2 C31_2 1_555 1_555
H34 C34_2 1_555 1_555
C35_2 C32_2 1_555 1_555
C36 C17_2 1_555 1_555
H35_2 C36 1_555 1_555
H36 C36 1_555 1_555
C2_3 C3_3 1_555 1_555
C7_2 C8_2 1_555 1_555
C11_2 C13_2 1_555 1_555
C12_2 C19_2 1_555 1_555
C14_2 C15_2 1_555 1_555
C21_2 C22_2 1_555 1_555
C23_2 C24_2 1_555 1_555
C32_2 C33_2 1_555 1_555
C34_2 C35_2 1_555 1_555
C35_2 C36 1_555 1_555
C28_3 C25_3 1_555 1_555
H27_3 C28_3 1_555 1_555
C29_3 N5_3 1_555 1_555
H28_3 C29_3 1_555 1_555
H30_3 C30_3 1_555 1_555
N11 C44_2 1_555 1_555
C37_2 N7_2 1_555 1_555
H37_2 C37_2 1_555 1_555
C38_2 H38_2 1_555 1_555
C39_2 C38_2 1_555 1_555
C40_2 C37_2 1_555 1_555
H39_2 C40_2 1_555 1_555
C41_2 C42_2 1_555 1_555
C42_2 H40_2 1_555 1_555
C43_2 N7_2 1_555 1_555
C44_2 C42_2 1_555 1_555
H42_2 C44_2 1_555 1_555
C45_2 C41_2 1_555 1_555
H43_2 C45_2 1_555 1_555
C46_2 N11 1_555 1_555
H44_2 C46_2 1_555 1_555
C47_2 C39_2 1_555 1_555
H45_2 C47_2 1_555 1_555
H46_2 C47_2 1_555 1_555
C48_2 C41_2 1_555 1_555
H47_2 C48_2 1_555 1_555
H48_2 C48_2 1_555 1_555
Pr3_3 N5_3 1_555 1_555
C25_3 C30_3 1_555 1_555
C28_3 C29_3 1_555 1_555
C38_2 C43_2 1_555 1_555
C39_2 C40_2 1_555 1_555
C45_2 C46_2 1_555 1_555
C47_2 C48_2 1_555 1_555
Pr4 Cl1_2 1_555 1_555
Cl2_2 Pr4 1_555 1_555
N1_2 Pr4 1_555 1_555
C6_3 C1_3 1_555 1_555
H5_3 C6_3 1_555 1_555
C9_3 N1_2 1_555 1_555
H8_3 C9_3 1_555 1_555
C10_3 C1_3 1_555 1_555
H10_3 C10_3 1_555 1_555
Cl4_2 Pr5 1_555 1_555
Cl5_2 Pr5 1_555 1_555
N9_2 Pr5 1_555 1_555
C6_3 C9_3 1_555 1_555
C26_3 H25_3 1_555 1_555
C27_3 C26_3 1_555 1_555
H26_3 C27_3 1_555 1_555
C2_4 H1_4 1_555 1_555
H2_4 C3_4 1_555 1_555
C28_4 C25_4 1_555 1_555
H27_4 C28_4 1_555 1_555
C29_4 N5_4 1_555 1_555
H28_4 C29_4 1_555 1_555
H29_4 C30_4 1_555 1_555
H30_4 C30_4 1_555 1_555
Pr3_4 N5_4 1_555 1_555
C2_4 C3_4 1_555 1_555
C25_4 C30_4 1_555 1_555
C28_4 C29_4 1_555 1_555
C6_4 C1_4 1_555 1_555
H5_4 C6_4 1_555 1_555
C9_4 N9_2 1_555 1_555
H8_4 C9_4 1_555 1_555
C10_4 C1_4 1_555 1_555
H9_4 C10_4 1_555 1_555
H10_4 C10_4 1_555 1_555
C26_4 H25_4 1_555 1_555
C27_4 C26_4 1_555 1_555
H26_4 C27_4 1_555 1_555
C6_4 C9_4 1_555 1_555
N8_2 C44_3 1_555 1_555
C37_3 N7_3 1_555 1_555
H37_3 C37_3 1_555 1_555
C38_3 H38_3 1_555 1_555
C39_3 C38_3 1_555 1_555
C40_3 C37_3 1_555 1_555
H39_3 C40_3 1_555 1_555
C41_3 C42_3 1_555 1_555
C42_3 H40_3 1_555 1_555
C43_3 N7_3 1_555 1_555
C44_3 C42_3 1_555 1_555
H42_3 C44_3 1_555 1_555
C45_3 C41_3 1_555 1_555
H43_3 C45_3 1_555 1_555
C46_3 N8_2 1_555 1_555
H44_3 C46_3 1_555 1_555
C47_3 C39_3 1_555 1_555
H45_3 C47_3 1_555 1_555
H46_3 C47_3 1_555 1_555
C48_3 C41_3 1_555 1_555
H47_3 C48_3 1_555 1_555
H48_3 C48_3 1_555 1_555
Pr3_3 N8_2 1_555 1_555
C38_3 C43_3 1_555 1_555
C39_3 C40_3 1_555 1_555
C45_3 C46_3 1_555 1_555
C47_3 C48_3 1_555 1_555
N6_3 C31_3 1_555 1_555
C31_3 H31_3 1_555 1_555
C33_3 N6_3 1_555 1_555
H33_3 C33_3 1_555 1_555
C34_3 C31_3 1_555 1_555
C35_3 C32_3 1_555 1_555
Pr3_2 N6_3 1_555 1_555
Cl4_3 Pr3_2 1_555 1_555
Cl5_3 Pr3_2 1_555 1_555
Cl6_3 Pr3_2 1_555 1_555
C32_3 C33_3 1_555 1_555
C34_3 C35_3 1_555 1_555
Pr3 Cl1_3 1_555 1_555
Cl2_3 Pr3 1_555 1_555
Cl3_3 Pr3 1_555 1_555
N2_3 Pr3 1_555 1_555
N3_3 Pr3 1_555 1_555
C4_3 N3_3 1_555 1_555
H3_3 C4_3 1_555 1_555
N4_2 C20_3 1_555 1_555
C5_3 N2_3 1_555 1_555
H4_3 C5_3 1_555 1_555
C8_3 N3_3 1_555 1_555
H7_3 C8_3 1_555 1_555
C11_3 C4_3 1_555 1_555
C12_3 H12_3 1_555 1_555
C13_3 C7_3 1_555 1_555
C14_3 C12_3 1_555 1_555
C15_3 C5_3 1_555 1_555
H13_3 C15_3 1_555 1_555
C16_3 C18_3 1_555 1_555
C18_3 H16_3 1_555 1_555
C19_3 N2_3 1_555 1_555
H17_3 C19_3 1_555 1_555
C20_3 C18_3 1_555 1_555
H18_3 C20_3 1_555 1_555
C21_3 C16_3 1_555 1_555
H19_3 C21_3 1_555 1_555
C22_3 N4_2 1_555 1_555
H20_3 C22_3 1_555 1_555
C23_3 C14_3 1_555 1_555
H21_3 C23_3 1_555 1_555
H22_3 C23_3 1_555 1_555
C24_3 C16_3 1_555 1_555
H23_3 C24_3 1_555 1_555
H24_3 C24_3 1_555 1_555
N11_2 Pr3 1_555 1_555
C7_3 C8_3 1_555 1_555
C11_3 C13_3 1_555 1_555
C12_3 C19_3 1_555 1_555
C14_3 C15_3 1_555 1_555
C21_3 C22_3 1_555 1_555
C23_3 C24_3 1_555 1_555
Pr3_3 Cl1_4 1_555 1_555
Cl2_4 Pr3_3 1_555 1_555
Cl4_4 Pr3_4 1_555 1_555
Cl5_4 Pr3_4 1_555 1_555
N11_2 C44_4 1_555 1_555
C37_4 N7_4 1_555 1_555
H37_4 C37_4 1_555 1_555
C38_4 H38_4 1_555 1_555
C39_4 C38_4 1_555 1_555
C40_4 C37_4 1_555 1_555
H39_4 C40_4 1_555 1_555
C41_4 C42_4 1_555 1_555
C42_4 H40_4 1_555 1_555
C43_4 N7_4 1_555 1_555
C44_4 C42_4 1_555 1_555
H42_4 C44_4 1_555 1_555
C45_4 C41_4 1_555 1_555
H43_4 C45_4 1_555 1_555
C46_4 N11_2 1_555 1_555
H44_4 C46_4 1_555 1_555
C47_4 C39_4 1_555 1_555
H45_4 C47_4 1_555 1_555
H46_4 C47_4 1_555 1_555
C48_4 C41_4 1_555 1_555
H47_4 C48_4 1_555 1_555
H48_4 C48_4 1_555 1_555
C38_4 C43_4 1_555 1_555
C39_4 C40_4 1_555 1_555
C45_4 C46_4 1_555 1_555
C47_4 C48_4 1_555 1_555
C4_4 N3_4 1_555 1_555
H3_4 C4_4 1_555 1_555
N10_2 C20_4 1_555 1_555
C5_4 N2_4 1_555 1_555
H4_4 C5_4 1_555 1_555
C7_4 H6_4 1_555 1_555
C8_4 N3_4 1_555 1_555
H7_4 C8_4 1_555 1_555
C11_4 C4_4 1_555 1_555
H11_3 C11_4 1_555 1_555
C12_4 H12_4 1_555 1_555
C13_4 C7_4 1_555 1_555
C14_4 C12_4 1_555 1_555
C15_4 C5_4 1_555 1_555
H13_4 C15_4 1_555 1_555
C16_4 C18_4 1_555 1_555
C17_3 C13_4 1_555 1_555
H14_2 C17_3 1_555 1_555
H15_3 C17_3 1_555 1_555
C18_4 H16_4 1_555 1_555
C19_4 N2_4 1_555 1_555
H17_4 C19_4 1_555 1_555
C20_4 C18_4 1_555 1_555
H18_4 C20_4 1_555 1_555
C21_4 C16_4 1_555 1_555
H19_4 C21_4 1_555 1_555
C22_4 N10_2 1_555 1_555
H20_4 C22_4 1_555 1_555
C23_4 C14_4 1_555 1_555
H21_4 C23_4 1_555 1_555
H22_4 C23_4 1_555 1_555
C24_4 C16_4 1_555 1_555
H23_4 C24_4 1_555 1_555
H24_4 C24_4 1_555 1_555
N6_4 C31_4 1_555 1_555
C31_4 H31_4 1_555 1_555
C32_4 H32_4 1_555 1_555
C33_4 N6_4 1_555 1_555
H33_4 C33_4 1_555 1_555
C34_4 C31_4 1_555 1_555
H34_2 C34_4 1_555 1_555
C35_4 C32_4 1_555 1_555
C36_2 C17_3 1_555 1_555
H35_3 C36_2 1_555 1_555
H36_2 C36_2 1_555 1_555
C7_4 C8_4 1_555 1_555
C11_4 C13_4 1_555 1_555
C12_4 C19_4 1_555 1_555
C14_4 C15_4 1_555 1_555
C21_4 C22_4 1_555 1_555
C23_4 C24_4 1_555 1_555
C32_4 C33_4 1_555 1_555
C34_4 C35_4 1_555 1_555
C35_4 C36_2 1_555 1_555
H36_3 C36_3 1_555 1_555
H36_4 C36_4 1_555 1_555
H15_4 C17_4 1_555 1_555

#END
