
###############################################################################
#
# This file contains modified crystal structure data generated from the
# MOF subset of the Cambridge Structural Database (CSD) v543 
# hosted by the Cambridge Crystallographic Data Centre (CCDC).
#
# This work is licensed under the Creative Commons
# Attribution-NonCommercial-ShareAlike 4.0 International License.
# To view a copy of this license, visit
# http://creativecommons.org/licenses/by-nc-sa/4.0/
# or send a letter to
# Creative Commons, PO Box 1866, Mountain View, CA 94042, USA.
#
# CIF created using the CSD Python API on 29 September 2022
# The structure has been converted into the P1 space group
# The structure has a 3D framework
# The original CSD entry VAKDIX is in the monoclinic crystal system
# The framework has been calculated to contain at least 10.0% void space
# The void calculation uses a probe of radius 1.32A, grid spacing 0.4
#
###############################################################################

data_VAKDIX
_chemical_formula_moiety         '(C192 H192 Ce8 Cl24 N32)n'
_symmetry_cell_setting           triclinic
_symmetry_space_group_name_H-M   'P 1'
_symmetry_Int_Tables_number      1
_space_group_name_Hall           'P 1'
loop_
_symmetry_equiv_pos_site_id
_symmetry_equiv_pos_as_xyz
1 x,y,z
_cell_length_a                   36.032(7)
_cell_length_b                   9.2604(19)
_cell_length_c                   18.688(4)
_cell_angle_alpha                90
_cell_angle_beta                 108.34(3)
_cell_angle_gamma                90
_cell_volume                     5918.91
loop_
_atom_site_label
_atom_site_type_symbol
_atom_site_fract_x
_atom_site_fract_y
_atom_site_fract_z
C17 C 0.00836(6) 0.0282(2) 0.29387(11)
H6 H 0.08644(6) 0.0129(2) 0.32757(11)
H24 H 0.02216(6) 0.1205(2) 0.31109(11)
H35 H 0.01349(6) 0.0211(2) 0.18482(11)
Ce5 Ce 0.365088(3) 0.935418(12) 0.115816(6)
Ce1 Ce 0.134912(3) 0.435418(12) 0.384184(6)
Cl1 Cl 0.075369(14) 0.31295(6) 0.42557(3)
Cl2 Cl 0.150487(14) 0.18111(6) 0.32415(3)
Cl3 Cl 0.185050(15) 0.59340(6) 0.33150(3)
N1 N 0.08813(5) 0.44847(19) 0.24273(9)
N2 N 0.16123(5) 0.6179(2) 0.50150(9)
N3 N 0.08798(5) 0.66731(19) 0.36160(9)
C1 C 0.03992(6) 0.4430(2) 0.09160(10)
C2 C 0.06744(6) 0.5525(2) 0.11842(11)
C3 C 0.09065(6) 0.5509(2) 0.19364(11)
C4 C 0.10062(6) 0.8010(2) 0.35275(11)
N4 N 0.31887(6) 0.8053(2) 0.99241(10)
C5 C 0.15097(6) 0.5869(2) 0.56300(11)
C6 C 0.03695(6) 0.3384(2) 0.14254(11)
C7 C 0.02345(6) 0.7681(2) 0.33579(11)
C8 C 0.04953(6) 0.6535(2) 0.35333(10)
C9 C 0.06139(6) 0.3447(3) 0.21666(11)
C10 C 0.01483(6) 0.4388(2) 0.01004(11)
C11 C 0.07612(6) 0.9208(2) 0.33343(11)
C12 C 0.20999(6) 0.7784(2) 0.57881(11)
C13 C 0.03627(6) 0.9042(2) 0.32279(10)
C14 C 0.20028(6) 0.7422(2) 0.64278(11)
C15 C 0.16948(6) 0.6446(2) 0.63385(11)
C16 C 0.27160(6) 0.7258(2) 0.84683(11)
C18 C 0.25719(7) 0.8115(3) 0.89311(12)
C19 C 0.19017(6) 0.7147(2) 0.51007(11)
C20 C 0.28159(7) 0.8482(3) 0.96455(12)
C21 C 0.31020(7) 0.6798(3) 0.87604(14)
C22 C 0.33238(8) 0.7202(3) 0.94868(15)
C23 C 0.22315(6) 0.8005(2) 0.71941(11)
C24 C 0.24694(6) 0.6792(2) 0.76875(11)
H1 H 0.16135(6) 0.6183(2) 0.67573(11)
H2 H 0.12988(6) 0.5219(2) 0.55770(11)
H3 H 0.23016(6) 0.8465(2) 0.58202(11)
H4 H 0.19738(6) 0.7408(2) 0.46708(11)
H5 H 0.12771(6) 0.8143(2) 0.36008(11)
H8 H 0.03987(6) 0.5607(2) 0.35987(10)
H9 H 0.05902(6) 0.2716(3) 0.25061(11)
H10 H 0.10922(6) 0.6261(2) 0.21115(11)
H11 H 0.07028(6) 0.6272(2) 0.08569(11)
H12 H 0.01831(6) 0.2628(2) 0.12687(11)
H13 H 0.23091(7) 0.8448(3) 0.87610(12)
H14 H 0.27125(7) 0.9071(3) 0.99535(12)
H15 H 0.35844(8) 0.6855(3) 0.96801(15)
H16 H 0.32137(7) 0.6209(3) 0.84655(14)
H19 H 0.26433(6) 0.6363(2) 0.74268(11)
H20 H 0.22870(6) 0.6027(2) 0.77377(11)
H21 H 0.24097(6) 0.8779(2) 0.71374(11)
H22 H 0.20494(6) 0.8425(2) 0.74391(11)
H33 H 0.00311(6) 0.7537(2) 0.16734(11)
N11 N 0.18113(6) 0.3053(2) 0.50759(10)
H17 H 0.03185(6) 0.4450(2) 0.97761(11)
H18 H 0.00082(6) 0.3453(2) 0.99964(11)
H7 H 0.99689(6) 0.7537(2) 0.33266(11)
H29 H 0.96815(6) 0.5550(2) 0.02239(11)
H30 H 0.99918(6) 0.6547(2) 0.00036(11)
N6 N 0.91202(5) 0.66731(19) 0.13840(9)
C31 C 0.89938(6) 0.8010(2) 0.14725(11)
C32 C 0.97655(6) 0.7681(2) 0.16421(11)
C33 C 0.95047(6) 0.6535(2) 0.14667(10)
C34 C 0.92388(6) 0.9208(2) 0.16657(11)
C35 C 0.96373(6) 0.9042(2) 0.17721(10)
H31 H 0.87229(6) 0.8143(2) 0.13992(11)
H34 H 0.96013(6) 0.5607(2) 0.14013(10)
Ce2 Ce 0.865088(3) 0.435418(12) 0.115816(6)
Cl4 Cl 0.924631(14) 0.31295(6) 0.07443(3)
Cl5 Cl 0.849513(14) 0.18111(6) 0.17585(3)
Cl6 Cl 0.814950(15) 0.59340(6) 0.16850(3)
H40 H 0.80262(6) 0.7408(2) 0.03292(11)
N9 N 0.91187(5) 0.44847(19) 0.25727(9)
N5 N 0.91187(5) 0.55153(19) 0.75727(9)
C25 C 0.96008(6) 0.5570(2) 0.90840(10)
C26 C 0.93256(6) 0.4475(2) 0.88158(11)
C27 C 0.90935(6) 0.4491(2) 0.80636(11)
C28 C 0.96305(6) 0.6616(2) 0.85746(11)
C29 C 0.93861(6) 0.6553(3) 0.78334(11)
C30 C 0.98517(6) 0.5612(2) 0.98996(11)
H25 H 0.94098(6) 0.7284(3) 0.74939(11)
H26 H 0.89078(6) 0.3739(2) 0.78885(11)
H27 H 0.92972(6) 0.3728(2) 0.91431(11)
H28 H 0.98169(6) 0.7372(2) 0.87313(11)
N7 N 0.83877(5) 0.6179(2) 0.99850(9)
N8 N 0.68113(6) 0.8053(2) 0.50759(10)
C37 C 0.84903(6) 0.5869(2) 0.93700(11)
C38 C 0.79001(6) 0.7784(2) 0.92119(11)
C39 C 0.79972(6) 0.7422(2) 0.85722(11)
C40 C 0.83052(6) 0.6446(2) 0.86615(11)
C41 C 0.72840(6) 0.7258(2) 0.65317(11)
C42 C 0.74281(7) 0.8115(3) 0.60689(12)
C43 C 0.80983(6) 0.7147(2) 0.98993(11)
C44 C 0.71841(7) 0.8482(3) 0.53545(12)
C45 C 0.68980(7) 0.6798(3) 0.62396(14)
C46 C 0.66762(8) 0.7202(3) 0.55132(15)
C47 C 0.77685(6) 0.8005(2) 0.78059(11)
C48 C 0.75306(6) 0.6792(2) 0.73125(11)
H37 H 0.83865(6) 0.6183(2) 0.82427(11)
H38 H 0.87012(6) 0.5219(2) 0.94230(11)
H39 H 0.76984(6) 0.8465(2) 0.91798(11)
H41 H 0.76909(7) 0.8448(3) 0.62390(12)
H42 H 0.72875(7) 0.9071(3) 0.50465(12)
H43 H 0.64156(8) 0.6855(3) 0.53199(15)
H44 H 0.67863(7) 0.6209(3) 0.65345(14)
H45 H 0.73567(6) 0.6363(2) 0.75732(11)
H46 H 0.77130(6) 0.6027(2) 0.72623(11)
H47 H 0.75903(6) 0.8779(2) 0.78626(11)
H48 H 0.79506(6) 0.8425(2) 0.75609(11)
Ce3 Ce 0.865088(3) 0.564582(12) 0.615816(6)
Ce4 Ce 0.634912(3) 0.935418(12) 0.384184(6)
N10 N 0.81887(6) 0.3053(2) 0.99241(10)
N5_2 N 0.08813(5) 0.55153(19) 0.74273(9)
C25_2 C 0.03992(6) 0.5570(2) 0.59160(10)
C26_2 C 0.06744(6) 0.4475(2) 0.61842(11)
C27_2 C 0.09065(6) 0.4491(2) 0.69364(11)
C28_2 C 0.03695(6) 0.6616(2) 0.64254(11)
C29_2 C 0.06139(6) 0.6553(3) 0.71666(11)
C30_2 C 0.01483(6) 0.5612(2) 0.51004(11)
H25_2 H 0.05902(6) 0.7284(3) 0.75061(11)
H26_2 H 0.10922(6) 0.3739(2) 0.71115(11)
H27_2 H 0.07028(6) 0.3728(2) 0.58569(11)
H28_2 H 0.01831(6) 0.7372(2) 0.62687(11)
H29_2 H 0.03185(6) 0.5550(2) 0.47761(11)
H30_2 H 0.00082(6) 0.6547(2) 0.49964(11)
Ce3_2 Ce 0.134912(3) 0.564582(12) 0.884184(6)
C1_2 C 0.96008(6) 0.4430(2) 0.40840(10)
C2_2 C 0.93256(6) 0.5525(2) 0.38158(11)
C3_2 C 0.90935(6) 0.5509(2) 0.30636(11)
C6_2 C 0.96305(6) 0.3384(2) 0.35746(11)
C9_2 C 0.93861(6) 0.3447(3) 0.28334(11)
C10_2 C 0.98517(6) 0.4388(2) 0.48996(11)
H9_2 H 0.94098(6) 0.2716(3) 0.24939(11)
H10_2 H 0.89078(6) 0.6261(2) 0.28885(11)
H11_2 H 0.92972(6) 0.6272(2) 0.41431(11)
H12_2 H 0.98169(6) 0.2628(2) 0.37313(11)
H17_2 H 0.96815(6) 0.4450(2) 0.52239(11)
H18_2 H 0.99918(6) 0.3453(2) 0.50036(11)
Cl3_2 Cl 0.685050(15) 0.09340(6) 0.33150(3)
N2_2 N 0.66123(5) 0.1179(2) 0.50150(9)
N3_2 N 0.58798(5) 0.16731(19) 0.36160(9)
C2_3 C 0.56744(6) 0.0525(2) 0.11842(11)
C3_3 C 0.59065(6) 0.0509(2) 0.19364(11)
C4_2 C 0.60062(6) 0.3010(2) 0.35275(11)
C5_2 C 0.65097(6) 0.0869(2) 0.56300(11)
C7_2 C 0.52345(6) 0.2681(2) 0.33579(11)
C8_2 C 0.54953(6) 0.1535(2) 0.35333(10)
C11_2 C 0.57612(6) 0.4208(2) 0.33343(11)
C12_2 C 0.70999(6) 0.2784(2) 0.57881(11)
C13_2 C 0.53627(6) 0.4042(2) 0.32279(10)
C14_2 C 0.70028(6) 0.2422(2) 0.64278(11)
C15_2 C 0.66948(6) 0.1446(2) 0.63385(11)
C16_2 C 0.77160(6) 0.2258(2) 0.84683(11)
C17_2 C 0.50836(6) 0.5282(2) 0.29387(11)
C18_2 C 0.75719(7) 0.3115(3) 0.89311(12)
C19_2 C 0.69017(6) 0.2147(2) 0.51007(11)
C20_2 C 0.78159(7) 0.3482(3) 0.96455(12)
C21_2 C 0.81020(7) 0.1798(3) 0.87604(14)
C22_2 C 0.83238(8) 0.2202(3) 0.94868(15)
C23_2 C 0.72315(6) 0.3005(2) 0.71941(11)
C24_2 C 0.74694(6) 0.1792(2) 0.76875(11)
H1_2 H 0.66135(6) 0.1183(2) 0.67573(11)
H2_2 H 0.62988(6) 0.0219(2) 0.55770(11)
H3_2 H 0.73016(6) 0.3465(2) 0.58202(11)
H4_2 H 0.69738(6) 0.2408(2) 0.46708(11)
H5_2 H 0.62771(6) 0.3143(2) 0.36008(11)
H6_2 H 0.58644(6) 0.5129(2) 0.32757(11)
H7_2 H 0.49689(6) 0.2537(2) 0.33266(11)
H8_2 H 0.53987(6) 0.0607(2) 0.35987(10)
H10_3 H 0.60922(6) 0.1261(2) 0.21115(11)
H11_3 H 0.57028(6) 0.1272(2) 0.08569(11)
H13_2 H 0.73091(7) 0.3448(3) 0.87610(12)
H14_2 H 0.77125(7) 0.4071(3) 0.99535(12)
H15_2 H 0.85844(8) 0.1855(3) 0.96801(15)
H16_2 H 0.82137(7) 0.1209(3) 0.84655(14)
H19_2 H 0.76433(6) 0.1363(2) 0.74268(11)
H20_2 H 0.72870(6) 0.1027(2) 0.77377(11)
H21_2 H 0.74097(6) 0.3779(2) 0.71374(11)
H22_2 H 0.70494(6) 0.3425(2) 0.74391(11)
H23 H 0.48651(6) 0.5211(2) 0.31518(11)
H24_2 H 0.52216(6) 0.6205(2) 0.31109(11)
H29_3 H 0.46815(6) 0.0550(2) 0.02239(11)
H30_3 H 0.49918(6) 0.1547(2) 0.00036(11)
N6_2 N 0.41202(5) 0.16731(19) 0.13840(9)
C31_2 C 0.39938(6) 0.3010(2) 0.14725(11)
C32_2 C 0.47655(6) 0.2681(2) 0.16421(11)
C33_2 C 0.45047(6) 0.1535(2) 0.14667(10)
C34_2 C 0.42388(6) 0.4208(2) 0.16657(11)
C35_2 C 0.46373(6) 0.4042(2) 0.17721(10)
C36 C 0.49164(6) 0.5282(2) 0.20613(11)
H31_2 H 0.37229(6) 0.3143(2) 0.13992(11)
H32 H 0.41356(6) 0.5129(2) 0.17243(11)
H33_2 H 0.50311(6) 0.2537(2) 0.16734(11)
H34_2 H 0.46013(6) 0.0607(2) 0.14013(10)
H35_2 H 0.51349(6) 0.5211(2) 0.18482(11)
H36 H 0.47784(6) 0.6205(2) 0.18891(11)
Cl6_2 Cl 0.314950(15) 0.09340(6) 0.16850(3)
H40_2 H 0.30262(6) 0.2408(2) 0.03292(11)
N5_3 N 0.41187(5) 0.05153(19) 0.75727(9)
C25_3 C 0.46008(6) 0.0570(2) 0.90840(10)
C28_3 C 0.46305(6) 0.1616(2) 0.85746(11)
C29_3 C 0.43861(6) 0.1553(3) 0.78334(11)
C30_3 C 0.48517(6) 0.0612(2) 0.98996(11)
H25_3 H 0.44098(6) 0.2284(3) 0.74939(11)
H28_3 H 0.48169(6) 0.2372(2) 0.87313(11)
N7_2 N 0.33877(5) 0.1179(2) 0.99850(9)
C37_2 C 0.34903(6) 0.0869(2) 0.93700(11)
C38_2 C 0.29001(6) 0.2784(2) 0.92119(11)
C39_2 C 0.29972(6) 0.2422(2) 0.85722(11)
C40_2 C 0.33052(6) 0.1446(2) 0.86615(11)
C41_2 C 0.22840(6) 0.2258(2) 0.65317(11)
C42_2 C 0.24281(7) 0.3115(3) 0.60689(12)
C43_2 C 0.30983(6) 0.2147(2) 0.98993(11)
C44_2 C 0.21841(7) 0.3482(3) 0.53545(12)
C45_2 C 0.18980(7) 0.1798(3) 0.62396(14)
C46_2 C 0.16762(8) 0.2202(3) 0.55132(15)
C47_2 C 0.27685(6) 0.3005(2) 0.78059(11)
C48_2 C 0.25306(6) 0.1792(2) 0.73125(11)
H37_2 H 0.33865(6) 0.1183(2) 0.82427(11)
H38_2 H 0.37012(6) 0.0219(2) 0.94230(11)
H39_2 H 0.26984(6) 0.3465(2) 0.91798(11)
H41_2 H 0.26909(7) 0.3448(3) 0.62390(12)
H42_2 H 0.22875(7) 0.4071(3) 0.50465(12)
H43_2 H 0.14156(8) 0.1855(3) 0.53199(15)
H44_2 H 0.17863(7) 0.1209(3) 0.65345(14)
H45_2 H 0.23567(6) 0.1363(2) 0.75732(11)
H46_2 H 0.27130(6) 0.1027(2) 0.72623(11)
H47_2 H 0.25903(6) 0.3779(2) 0.78626(11)
H48_2 H 0.29506(6) 0.3425(2) 0.75609(11)
Ce3_3 Ce 0.365088(3) 0.064582(12) 0.615816(6)
Cl1_2 Cl 0.575369(14) 0.81295(6) 0.42557(3)
Cl2_2 Cl 0.650487(14) 0.68111(6) 0.32415(3)
N1_2 N 0.58813(5) 0.94847(19) 0.24273(9)
C1_3 C 0.53992(6) 0.9430(2) 0.09160(10)
C6_3 C 0.53695(6) 0.8384(2) 0.14254(11)
C9_3 C 0.56139(6) 0.8447(3) 0.21666(11)
C10_3 C 0.51483(6) 0.9388(2) 0.01004(11)
H9_3 H 0.55902(6) 0.7716(3) 0.25061(11)
H12_3 H 0.51831(6) 0.7628(2) 0.12687(11)
Cl4_2 Cl 0.424631(14) 0.81295(6) 0.07443(3)
Cl5_2 Cl 0.349513(14) 0.68111(6) 0.17585(3)
N9_2 N 0.41187(5) 0.94847(19) 0.25727(9)
H17_3 H 0.53185(6) 0.9450(2) 0.97761(11)
H18_3 H 0.50082(6) 0.8453(2) 0.99964(11)
C26_3 C 0.43256(6) 0.9475(2) 0.88158(11)
C27_3 C 0.40935(6) 0.9491(2) 0.80636(11)
H26_3 H 0.39078(6) 0.8739(2) 0.78885(11)
H27_3 H 0.42972(6) 0.8728(2) 0.91431(11)
C2_4 C 0.43256(6) 0.0525(2) 0.38158(11)
C3_4 C 0.40935(6) 0.0509(2) 0.30636(11)
H10_4 H 0.39078(6) 0.1261(2) 0.28885(11)
H11_4 H 0.42972(6) 0.1272(2) 0.41431(11)
N5_4 N 0.58813(5) 0.05153(19) 0.74273(9)
C25_4 C 0.53992(6) 0.0570(2) 0.59160(10)
C28_4 C 0.53695(6) 0.1616(2) 0.64254(11)
C29_4 C 0.56139(6) 0.1553(3) 0.71666(11)
C30_4 C 0.51483(6) 0.0612(2) 0.51004(11)
H25_4 H 0.55902(6) 0.2284(3) 0.75061(11)
H28_4 H 0.51831(6) 0.2372(2) 0.62687(11)
H29_4 H 0.53185(6) 0.0550(2) 0.47761(11)
H30_4 H 0.50082(6) 0.1547(2) 0.49964(11)
Ce3_4 Ce 0.634912(3) 0.064582(12) 0.884184(6)
C1_4 C 0.46008(6) 0.9430(2) 0.40840(10)
C6_4 C 0.46305(6) 0.8384(2) 0.35746(11)
C9_4 C 0.43861(6) 0.8447(3) 0.28334(11)
C10_4 C 0.48517(6) 0.9388(2) 0.48996(11)
H9_4 H 0.44098(6) 0.7716(3) 0.24939(11)
H12_4 H 0.48169(6) 0.7628(2) 0.37313(11)
H17_4 H 0.46815(6) 0.9450(2) 0.52239(11)
H18_4 H 0.49918(6) 0.8453(2) 0.50036(11)
C26_4 C 0.56744(6) 0.9475(2) 0.61842(11)
C27_4 C 0.59065(6) 0.9491(2) 0.69364(11)
H26_4 H 0.60922(6) 0.8739(2) 0.71115(11)
H27_4 H 0.57028(6) 0.8728(2) 0.58569(11)
N7_3 N 0.16123(5) 0.3821(2) 0.00150(9)
N8_2 N 0.31887(6) 0.1947(2) 0.49241(10)
C37_3 C 0.15097(6) 0.4131(2) 0.06300(11)
C38_3 C 0.20999(6) 0.2216(2) 0.07881(11)
C39_3 C 0.20028(6) 0.2578(2) 0.14278(11)
C40_3 C 0.16948(6) 0.3554(2) 0.13385(11)
C41_3 C 0.27160(6) 0.2742(2) 0.34683(11)
C42_3 C 0.25719(7) 0.1885(3) 0.39311(12)
C43_3 C 0.19017(6) 0.2853(2) 0.01007(11)
C44_3 C 0.28159(7) 0.1518(3) 0.46455(12)
C45_3 C 0.31020(7) 0.3202(3) 0.37604(14)
C46_3 C 0.33238(8) 0.2798(3) 0.44868(15)
C47_3 C 0.22315(6) 0.1995(2) 0.21941(11)
C48_3 C 0.24694(6) 0.3208(2) 0.26875(11)
H37_3 H 0.16135(6) 0.3817(2) 0.17573(11)
H38_3 H 0.12988(6) 0.4781(2) 0.05770(11)
H39_3 H 0.23016(6) 0.1535(2) 0.08202(11)
H41_3 H 0.23091(7) 0.1552(3) 0.37610(12)
H42_3 H 0.27125(7) 0.0929(3) 0.49535(12)
H43_3 H 0.35844(8) 0.3145(3) 0.46801(15)
H44_3 H 0.32137(7) 0.3791(3) 0.34655(14)
H45_3 H 0.26433(6) 0.3637(2) 0.24268(11)
H46_3 H 0.22870(6) 0.3973(2) 0.27377(11)
H47_3 H 0.24097(6) 0.1221(2) 0.21374(11)
H48_3 H 0.20494(6) 0.1575(2) 0.24391(11)
N10_2 N 0.18113(6) 0.6947(2) 0.00759(10)
H7_3 H 0.00311(6) 0.2463(2) 0.66734(11)
N6_3 N 0.08798(5) 0.33269(19) 0.86160(9)
C31_3 C 0.10062(6) 0.1990(2) 0.85275(11)
C32_3 C 0.02345(6) 0.2319(2) 0.83579(11)
C33_3 C 0.04953(6) 0.3465(2) 0.85333(10)
C34_3 C 0.07612(6) 0.0792(2) 0.83343(11)
C35_3 C 0.03627(6) 0.0958(2) 0.82279(10)
H31_3 H 0.12771(6) 0.1857(2) 0.86008(11)
H34_3 H 0.03987(6) 0.4393(2) 0.85987(10)
Cl4_3 Cl 0.075369(14) 0.68705(6) 0.92557(3)
Cl5_3 Cl 0.150487(14) 0.81889(6) 0.82415(3)
Cl6_3 Cl 0.185050(15) 0.40660(6) 0.83150(3)
H40_3 H 0.19738(6) 0.2592(2) 0.96708(11)
Cl1_3 Cl 0.924631(14) 0.68705(6) 0.57443(3)
Cl2_3 Cl 0.849513(14) 0.81889(6) 0.67585(3)
Cl3_3 Cl 0.814950(15) 0.40660(6) 0.66850(3)
N2_3 N 0.83877(5) 0.3821(2) 0.49850(9)
N3_3 N 0.91202(5) 0.33269(19) 0.63840(9)
C4_3 C 0.89938(6) 0.1990(2) 0.64725(11)
N4_2 N 0.68113(6) 0.1947(2) 0.00759(10)
C5_3 C 0.84903(6) 0.4131(2) 0.43700(11)
C7_3 C 0.97655(6) 0.2319(2) 0.66421(11)
C8_3 C 0.95047(6) 0.3465(2) 0.64667(10)
C11_3 C 0.92388(6) 0.0792(2) 0.66657(11)
C12_3 C 0.79001(6) 0.2216(2) 0.42119(11)
C13_3 C 0.96373(6) 0.0958(2) 0.67721(10)
C14_3 C 0.79972(6) 0.2578(2) 0.35722(11)
C15_3 C 0.83052(6) 0.3554(2) 0.36615(11)
C16_3 C 0.72840(6) 0.2742(2) 0.15317(11)
C18_3 C 0.74281(7) 0.1885(3) 0.10689(12)
C19_3 C 0.80983(6) 0.2853(2) 0.48993(11)
C20_3 C 0.71841(7) 0.1518(3) 0.03545(12)
C21_3 C 0.68980(7) 0.3202(3) 0.12396(14)
C22_3 C 0.66762(8) 0.2798(3) 0.05132(15)
C23_3 C 0.77685(6) 0.1995(2) 0.28059(11)
C24_3 C 0.75306(6) 0.3208(2) 0.23125(11)
H1_3 H 0.83865(6) 0.3817(2) 0.32427(11)
H2_3 H 0.87012(6) 0.4781(2) 0.44230(11)
H3_3 H 0.76984(6) 0.1535(2) 0.41798(11)
H4_3 H 0.80262(6) 0.2592(2) 0.53292(11)
H5_3 H 0.87229(6) 0.1857(2) 0.63992(11)
H8_3 H 0.96013(6) 0.4393(2) 0.64013(10)
H13_3 H 0.76909(7) 0.1552(3) 0.12390(12)
H14_3 H 0.72875(7) 0.0929(3) 0.00465(12)
H15_3 H 0.64156(8) 0.3145(3) 0.03199(15)
H16_3 H 0.67863(7) 0.3791(3) 0.15345(14)
H19_3 H 0.73567(6) 0.3637(2) 0.25732(11)
H20_3 H 0.77130(6) 0.3973(2) 0.22623(11)
H21_3 H 0.75903(6) 0.1221(2) 0.28626(11)
H22_3 H 0.79506(6) 0.1575(2) 0.25609(11)
H33_3 H 0.99689(6) 0.2463(2) 0.83266(11)
N11_2 N 0.81887(6) 0.6947(2) 0.49241(10)
Cl1_4 Cl 0.424631(14) 0.18705(6) 0.57443(3)
Cl2_4 Cl 0.349513(14) 0.31889(6) 0.67585(3)
Cl4_4 Cl 0.575369(14) 0.18705(6) 0.92557(3)
Cl5_4 Cl 0.650487(14) 0.31889(6) 0.82415(3)
N7_4 N 0.66123(5) 0.8821(2) 0.00150(9)
C37_4 C 0.65097(6) 0.9131(2) 0.06300(11)
C38_4 C 0.70999(6) 0.7216(2) 0.07881(11)
C39_4 C 0.70028(6) 0.7578(2) 0.14278(11)
C40_4 C 0.66948(6) 0.8554(2) 0.13385(11)
C41_4 C 0.77160(6) 0.7742(2) 0.34683(11)
C42_4 C 0.75719(7) 0.6885(3) 0.39311(12)
C43_4 C 0.69017(6) 0.7853(2) 0.01007(11)
C44_4 C 0.78159(7) 0.6518(3) 0.46455(12)
C45_4 C 0.81020(7) 0.8202(3) 0.37604(14)
C46_4 C 0.83238(8) 0.7798(3) 0.44868(15)
C47_4 C 0.72315(6) 0.6995(2) 0.21941(11)
C48_4 C 0.74694(6) 0.8208(2) 0.26875(11)
H37_4 H 0.66135(6) 0.8817(2) 0.17573(11)
H38_4 H 0.62988(6) 0.9781(2) 0.05770(11)
H39_4 H 0.73016(6) 0.6535(2) 0.08202(11)
H41_4 H 0.73091(7) 0.6552(3) 0.37610(12)
H42_4 H 0.77125(7) 0.5929(3) 0.49535(12)
H43_4 H 0.85844(8) 0.8145(3) 0.46801(15)
H44_4 H 0.82137(7) 0.8791(3) 0.34655(14)
H45_4 H 0.76433(6) 0.8637(2) 0.24268(11)
H46_4 H 0.72870(6) 0.8973(2) 0.27377(11)
H47_4 H 0.74097(6) 0.6221(2) 0.21374(11)
H48_4 H 0.70494(6) 0.6575(2) 0.24391(11)
Cl3_4 Cl 0.314950(15) 0.90660(6) 0.66850(3)
N2_4 N 0.33877(5) 0.8821(2) 0.49850(9)
N3_4 N 0.41202(5) 0.83269(19) 0.63840(9)
C4_4 C 0.39938(6) 0.6990(2) 0.64725(11)
C5_4 C 0.34903(6) 0.9131(2) 0.43700(11)
C7_4 C 0.47655(6) 0.7319(2) 0.66421(11)
C8_4 C 0.45047(6) 0.8465(2) 0.64667(10)
C11_4 C 0.42388(6) 0.5792(2) 0.66657(11)
C12_4 C 0.29001(6) 0.7216(2) 0.42119(11)
C13_4 C 0.46373(6) 0.5958(2) 0.67721(10)
C14_4 C 0.29972(6) 0.7578(2) 0.35722(11)
C15_4 C 0.33052(6) 0.8554(2) 0.36615(11)
C16_4 C 0.22840(6) 0.7742(2) 0.15317(11)
C17_3 C 0.49164(6) 0.4718(2) 0.70613(11)
C18_4 C 0.24281(7) 0.6885(3) 0.10689(12)
C19_4 C 0.30983(6) 0.7853(2) 0.48993(11)
C20_4 C 0.21841(7) 0.6518(3) 0.03545(12)
C21_4 C 0.18980(7) 0.8202(3) 0.12396(14)
C22_4 C 0.16762(8) 0.7798(3) 0.05132(15)
C23_4 C 0.27685(6) 0.6995(2) 0.28059(11)
C24_4 C 0.25306(6) 0.8208(2) 0.23125(11)
H1_4 H 0.33865(6) 0.8817(2) 0.32427(11)
H2_4 H 0.37012(6) 0.9781(2) 0.44230(11)
H3_4 H 0.26984(6) 0.6535(2) 0.41798(11)
H4_4 H 0.30262(6) 0.7592(2) 0.53292(11)
H5_4 H 0.37229(6) 0.6857(2) 0.63992(11)
H6_3 H 0.41356(6) 0.4871(2) 0.67243(11)
H7_4 H 0.50311(6) 0.7463(2) 0.66734(11)
H8_4 H 0.46013(6) 0.9393(2) 0.64013(10)
H13_4 H 0.26909(7) 0.6552(3) 0.12390(12)
H14_4 H 0.22875(7) 0.5929(3) 0.00465(12)
H15_4 H 0.14156(8) 0.8145(3) 0.03199(15)
H16_4 H 0.17863(7) 0.8791(3) 0.15345(14)
H19_4 H 0.23567(6) 0.8637(2) 0.25732(11)
H20_4 H 0.27130(6) 0.8973(2) 0.22623(11)
H21_4 H 0.25903(6) 0.6221(2) 0.28626(11)
H22_4 H 0.29506(6) 0.6575(2) 0.25609(11)
H23_2 H 0.51349(6) 0.4789(2) 0.68482(11)
H24_3 H 0.47784(6) 0.3795(2) 0.68891(11)
N6_4 N 0.58798(5) 0.83269(19) 0.86160(9)
C31_4 C 0.60062(6) 0.6990(2) 0.85275(11)
C32_4 C 0.52345(6) 0.7319(2) 0.83579(11)
C33_4 C 0.54953(6) 0.8465(2) 0.85333(10)
C34_4 C 0.57612(6) 0.5792(2) 0.83343(11)
C35_4 C 0.53627(6) 0.5958(2) 0.82279(10)
C36_2 C 0.50836(6) 0.4718(2) 0.79387(11)
H31_4 H 0.62771(6) 0.6857(2) 0.86008(11)
H32_2 H 0.58644(6) 0.4871(2) 0.82757(11)
H33_4 H 0.49689(6) 0.7463(2) 0.83266(11)
H34_4 H 0.53987(6) 0.9393(2) 0.85987(10)
H35_3 H 0.48651(6) 0.4789(2) 0.81518(11)
H36_2 H 0.52216(6) 0.3795(2) 0.81109(11)
Cl6_4 Cl 0.685050(15) 0.90660(6) 0.83150(3)
H40_4 H 0.69738(6) 0.7592(2) 0.96708(11)
H23_3 H 0.98651(6) 0.0211(2) 0.31518(11)
C36_3 C 0.99164(6) 0.0282(2) 0.20613(11)
H32_3 H 0.91356(6) 0.0129(2) 0.17243(11)
H36_3 H 0.97784(6) 0.1205(2) 0.18891(11)
H23_4 H 0.01349(6) 0.9789(2) 0.68482(11)
C36_4 C 0.00836(6) 0.9718(2) 0.79387(11)
H32_4 H 0.08644(6) 0.9871(2) 0.82757(11)
H36_4 H 0.02216(6) 0.8795(2) 0.81109(11)
C17_4 C 0.99164(6) 0.9718(2) 0.70613(11)
H6_4 H 0.91356(6) 0.9871(2) 0.67243(11)
H24_4 H 0.97784(6) 0.8795(2) 0.68891(11)
H35_4 H 0.98651(6) 0.9789(2) 0.81518(11)
loop_
_geom_bond_atom_site_label_1
_geom_bond_atom_site_label_2
_geom_bond_site_symmetry_1
_geom_bond_site_symmetry_2
H24 C17 1_555 1_555
Ce1 Cl1 1_555 1_555
Cl2 Ce1 1_555 1_555
Cl3 Ce1 1_555 1_555
N1 Ce1 1_555 1_555
N2 Ce1 1_555 1_555
N3 Ce1 1_555 1_555
C1 C2 1_555 1_555
C2 C3 1_555 1_555
C3 N1 1_555 1_555
C4 N3 1_555 1_555
N4 C20 1_555 1_555
C5 N2 1_555 1_555
C6 C1 1_555 1_555
C7 C8 1_555 1_555
C8 N3 1_555 1_555
C9 N1 1_555 1_555
C10 C1 1_555 1_555
C11 C4 1_555 1_555
C12 C14 1_555 1_555
C13 C7 1_555 1_555
C14 C15 1_555 1_555
C15 C5 1_555 1_555
C16 C18 1_555 1_555
C18 C20 1_555 1_555
C19 N2 1_555 1_555
C20 H14 1_555 1_555
C21 C16 1_555 1_555
C22 N4 1_555 1_555
C23 C14 1_555 1_555
C24 C16 1_555 1_555
H1 C15 1_555 1_555
H2 C5 1_555 1_555
H3 C12 1_555 1_555
H4 C19 1_555 1_555
H5 C4 1_555 1_555
H8 C8 1_555 1_555
H9 C9 1_555 1_555
H10 C3 1_555 1_555
H11 C2 1_555 1_555
H12 C6 1_555 1_555
H13 C18 1_555 1_555
H15 C22 1_555 1_555
H16 C21 1_555 1_555
H19 C24 1_555 1_555
H20 C24 1_555 1_555
H21 C23 1_555 1_555
H22 C23 1_555 1_555
N11 Ce1 1_555 1_555
C6 C9 1_555 1_555
C11 C13 1_555 1_555
C12 C19 1_555 1_555
C21 C22 1_555 1_555
C23 C24 1_555 1_555
N6 C31 1_555 1_555
C31 C34 1_555 1_555
C32 C33 1_555 1_555
C33 N6 1_555 1_555
C34 C35 1_555 1_555
C35 C32 1_555 1_555
H31 C31 1_555 1_555
H34 C33 1_555 1_555
Ce2 N6 1_555 1_555
Cl4 Ce2 1_555 1_555
Cl5 Ce2 1_555 1_555
Cl6 Ce2 1_555 1_555
N9 Ce2 1_555 1_555
N5 C27 1_555 1_555
C25 C26 1_555 1_555
C26 C27 1_555 1_555
C27 H26 1_555 1_555
C28 C25 1_555 1_555
C29 N5 1_555 1_555
H25 C29 1_555 1_555
H27 C26 1_555 1_555
H28 C28 1_555 1_555
N8 C44 1_555 1_555
C37 N7 1_555 1_555
C38 C39 1_555 1_555
C39 C40 1_555 1_555
C40 C37 1_555 1_555
C41 C42 1_555 1_555
C42 C44 1_555 1_555
C43 N7 1_555 1_555
C44 H42 1_555 1_555
C45 C41 1_555 1_555
C46 N8 1_555 1_555
C47 C39 1_555 1_555
C48 C41 1_555 1_555
H37 C40 1_555 1_555
H38 C37 1_555 1_555
H39 C38 1_555 1_555
H41 C42 1_555 1_555
H43 C46 1_555 1_555
H44 C45 1_555 1_555
H45 C48 1_555 1_555
H46 C48 1_555 1_555
H47 C47 1_555 1_555
H48 C47 1_555 1_555
Ce3 N5 1_555 1_555
Ce4 N8 1_555 1_555
C25 C30 1_555 1_555
C28 C29 1_555 1_555
C38 C43 1_555 1_555
C45 C46 1_555 1_555
C47 C48 1_555 1_555
N5_2 C27_2 1_555 1_555
C25_2 C26_2 1_555 1_555
C26_2 C27_2 1_555 1_555
C27_2 H26_2 1_555 1_555
C28_2 C25_2 1_555 1_555
C29_2 N5_2 1_555 1_555
H25_2 C29_2 1_555 1_555
H27_2 C26_2 1_555 1_555
H28_2 C28_2 1_555 1_555
H29_2 C30_2 1_555 1_555
H30_2 C30_2 1_555 1_555
Ce3_2 N5_2 1_555 1_555
C25_2 C30_2 1_555 1_555
C28_2 C29_2 1_555 1_555
C1_2 C2_2 1_555 1_555
C2_2 C3_2 1_555 1_555
C3_2 N9 1_555 1_555
C6_2 C1_2 1_555 1_555
C9_2 N9 1_555 1_555
C10_2 C1_2 1_555 1_555
H9_2 C9_2 1_555 1_555
H10_2 C3_2 1_555 1_555
H11_2 C2_2 1_555 1_555
H12_2 C6_2 1_555 1_555
H17_2 C10_2 1_555 1_555
H18_2 C10_2 1_555 1_555
C6_2 C9_2 1_555 1_555
C2_3 C3_3 1_555 1_555
C4_2 N3_2 1_555 1_555
N10 C20_2 1_555 1_555
C5_2 N2_2 1_555 1_555
C7_2 C8_2 1_555 1_555
C8_2 N3_2 1_555 1_555
C11_2 C4_2 1_555 1_555
C12_2 C14_2 1_555 1_555
C13_2 C7_2 1_555 1_555
C14_2 C15_2 1_555 1_555
C15_2 C5_2 1_555 1_555
C16_2 C18_2 1_555 1_555
C17_2 C13_2 1_555 1_555
C18_2 C20_2 1_555 1_555
C19_2 N2_2 1_555 1_555
C20_2 H14_2 1_555 1_555
C21_2 C16_2 1_555 1_555
C22_2 N10 1_555 1_555
C23_2 C14_2 1_555 1_555
C24_2 C16_2 1_555 1_555
H1_2 C15_2 1_555 1_555
H2_2 C5_2 1_555 1_555
H3_2 C12_2 1_555 1_555
H4_2 C19_2 1_555 1_555
H5_2 C4_2 1_555 1_555
H6_2 C11_2 1_555 1_555
H7_2 C7_2 1_555 1_555
H8_2 C8_2 1_555 1_555
H10_3 C3_3 1_555 1_555
H11_3 C2_3 1_555 1_555
H13_2 C18_2 1_555 1_555
H15_2 C22_2 1_555 1_555
H16_2 C21_2 1_555 1_555
H19_2 C24_2 1_555 1_555
H20_2 C24_2 1_555 1_555
H21_2 C23_2 1_555 1_555
H22_2 C23_2 1_555 1_555
H23 C17_2 1_555 1_555
H24_2 C17_2 1_555 1_555
N6_2 C31_2 1_555 1_555
C31_2 C34_2 1_555 1_555
C32_2 C33_2 1_555 1_555
C33_2 N6_2 1_555 1_555
C34_2 C35_2 1_555 1_555
C35_2 C32_2 1_555 1_555
C36 C17_2 1_555 1_555
H31_2 C31_2 1_555 1_555
H32 C34_2 1_555 1_555
H33_2 C32_2 1_555 1_555
H34_2 C33_2 1_555 1_555
H35_2 C36 1_555 1_555
H36 C36 1_555 1_555
C11_2 C13_2 1_555 1_555
C12_2 C19_2 1_555 1_555
C21_2 C22_2 1_555 1_555
C23_2 C24_2 1_555 1_555
C35_2 C36 1_555 1_555
C28_3 C25_3 1_555 1_555
C29_3 N5_3 1_555 1_555
H25_3 C29_3 1_555 1_555
H28_3 C28_3 1_555 1_555
N11 C44_2 1_555 1_555
C37_2 N7_2 1_555 1_555
C38_2 C39_2 1_555 1_555
C39_2 C40_2 1_555 1_555
C40_2 C37_2 1_555 1_555
C41_2 C42_2 1_555 1_555
C42_2 C44_2 1_555 1_555
C43_2 N7_2 1_555 1_555
C44_2 H42_2 1_555 1_555
C45_2 C41_2 1_555 1_555
C46_2 N11 1_555 1_555
C47_2 C39_2 1_555 1_555
C48_2 C41_2 1_555 1_555
H37_2 C40_2 1_555 1_555
H38_2 C37_2 1_555 1_555
H39_2 C38_2 1_555 1_555
H41_2 C42_2 1_555 1_555
H43_2 C46_2 1_555 1_555
H44_2 C45_2 1_555 1_555
H45_2 C48_2 1_555 1_555
H46_2 C48_2 1_555 1_555
H47_2 C47_2 1_555 1_555
H48_2 C47_2 1_555 1_555
Ce3_3 N5_3 1_555 1_555
C25_3 C30_3 1_555 1_555
C28_3 C29_3 1_555 1_555
C38_2 C43_2 1_555 1_555
C45_2 C46_2 1_555 1_555
C47_2 C48_2 1_555 1_555
Ce4 Cl1_2 1_555 1_555
Cl2_2 Ce4 1_555 1_555
N1_2 Ce4 1_555 1_555
C6_3 C1_3 1_555 1_555
C9_3 N1_2 1_555 1_555
C10_3 C1_3 1_555 1_555
H9_3 C9_3 1_555 1_555
H12_3 C6_3 1_555 1_555
Cl4_2 Ce5 1_555 1_555
Cl5_2 Ce5 1_555 1_555
N9_2 Ce5 1_555 1_555
C6_3 C9_3 1_555 1_555
C26_3 C27_3 1_555 1_555
C27_3 H26_3 1_555 1_555
H27_3 C26_3 1_555 1_555
C2_4 C3_4 1_555 1_555
H10_4 C3_4 1_555 1_555
H11_4 C2_4 1_555 1_555
C28_4 C25_4 1_555 1_555
C29_4 N5_4 1_555 1_555
H25_4 C29_4 1_555 1_555
H28_4 C28_4 1_555 1_555
H29_4 C30_4 1_555 1_555
H30_4 C30_4 1_555 1_555
Ce3_4 N5_4 1_555 1_555
C25_4 C30_4 1_555 1_555
C28_4 C29_4 1_555 1_555
C6_4 C1_4 1_555 1_555
C9_4 N9_2 1_555 1_555
C10_4 C1_4 1_555 1_555
H9_4 C9_4 1_555 1_555
H12_4 C6_4 1_555 1_555
H17_4 C10_4 1_555 1_555
H18_4 C10_4 1_555 1_555
C26_4 C27_4 1_555 1_555
C27_4 H26_4 1_555 1_555
H27_4 C26_4 1_555 1_555
C6_4 C9_4 1_555 1_555
N8_2 C44_3 1_555 1_555
C37_3 N7_3 1_555 1_555
C38_3 C39_3 1_555 1_555
C39_3 C40_3 1_555 1_555
C40_3 C37_3 1_555 1_555
C41_3 C42_3 1_555 1_555
C42_3 C44_3 1_555 1_555
C43_3 N7_3 1_555 1_555
C44_3 H42_3 1_555 1_555
C45_3 C41_3 1_555 1_555
C46_3 N8_2 1_555 1_555
C47_3 C39_3 1_555 1_555
C48_3 C41_3 1_555 1_555
H37_3 C40_3 1_555 1_555
H38_3 C37_3 1_555 1_555
H39_3 C38_3 1_555 1_555
H41_3 C42_3 1_555 1_555
H43_3 C46_3 1_555 1_555
H44_3 C45_3 1_555 1_555
H45_3 C48_3 1_555 1_555
H46_3 C48_3 1_555 1_555
H47_3 C47_3 1_555 1_555
H48_3 C47_3 1_555 1_555
Ce3_3 N8_2 1_555 1_555
C38_3 C43_3 1_555 1_555
C45_3 C46_3 1_555 1_555
C47_3 C48_3 1_555 1_555
N6_3 C31_3 1_555 1_555
C31_3 C34_3 1_555 1_555
C32_3 C33_3 1_555 1_555
C33_3 N6_3 1_555 1_555
C34_3 C35_3 1_555 1_555
C35_3 C32_3 1_555 1_555
H31_3 C31_3 1_555 1_555
H34_3 C33_3 1_555 1_555
Ce3_2 N6_3 1_555 1_555
Cl4_3 Ce3_2 1_555 1_555
Cl5_3 Ce3_2 1_555 1_555
Cl6_3 Ce3_2 1_555 1_555
Ce3 Cl1_3 1_555 1_555
Cl2_3 Ce3 1_555 1_555
Cl3_3 Ce3 1_555 1_555
N2_3 Ce3 1_555 1_555
N3_3 Ce3 1_555 1_555
C4_3 N3_3 1_555 1_555
N4_2 C20_3 1_555 1_555
C5_3 N2_3 1_555 1_555
C7_3 C8_3 1_555 1_555
C8_3 N3_3 1_555 1_555
C11_3 C4_3 1_555 1_555
C12_3 C14_3 1_555 1_555
C13_3 C7_3 1_555 1_555
C14_3 C15_3 1_555 1_555
C15_3 C5_3 1_555 1_555
C16_3 C18_3 1_555 1_555
C18_3 C20_3 1_555 1_555
C19_3 N2_3 1_555 1_555
C20_3 H14_3 1_555 1_555
C21_3 C16_3 1_555 1_555
C22_3 N4_2 1_555 1_555
C23_3 C14_3 1_555 1_555
C24_3 C16_3 1_555 1_555
H1_3 C15_3 1_555 1_555
H2_3 C5_3 1_555 1_555
H3_3 C12_3 1_555 1_555
H4_3 C19_3 1_555 1_555
H5_3 C4_3 1_555 1_555
H8_3 C8_3 1_555 1_555
H13_3 C18_3 1_555 1_555
H15_3 C22_3 1_555 1_555
H16_3 C21_3 1_555 1_555
H19_3 C24_3 1_555 1_555
H20_3 C24_3 1_555 1_555
H21_3 C23_3 1_555 1_555
H22_3 C23_3 1_555 1_555
N11_2 Ce3 1_555 1_555
C11_3 C13_3 1_555 1_555
C12_3 C19_3 1_555 1_555
C21_3 C22_3 1_555 1_555
C23_3 C24_3 1_555 1_555
Ce3_3 Cl1_4 1_555 1_555
Cl2_4 Ce3_3 1_555 1_555
Cl4_4 Ce3_4 1_555 1_555
Cl5_4 Ce3_4 1_555 1_555
N11_2 C44_4 1_555 1_555
C37_4 N7_4 1_555 1_555
C38_4 C39_4 1_555 1_555
C39_4 C40_4 1_555 1_555
C40_4 C37_4 1_555 1_555
C41_4 C42_4 1_555 1_555
C42_4 C44_4 1_555 1_555
C43_4 N7_4 1_555 1_555
C44_4 H42_4 1_555 1_555
C45_4 C41_4 1_555 1_555
C46_4 N11_2 1_555 1_555
C47_4 C39_4 1_555 1_555
C48_4 C41_4 1_555 1_555
H37_4 C40_4 1_555 1_555
H38_4 C37_4 1_555 1_555
H39_4 C38_4 1_555 1_555
H41_4 C42_4 1_555 1_555
H43_4 C46_4 1_555 1_555
H44_4 C45_4 1_555 1_555
H45_4 C48_4 1_555 1_555
H46_4 C48_4 1_555 1_555
H47_4 C47_4 1_555 1_555
H48_4 C47_4 1_555 1_555
C38_4 C43_4 1_555 1_555
C45_4 C46_4 1_555 1_555
C47_4 C48_4 1_555 1_555
C4_4 N3_4 1_555 1_555
N10_2 C20_4 1_555 1_555
C5_4 N2_4 1_555 1_555
C7_4 C8_4 1_555 1_555
C8_4 N3_4 1_555 1_555
C11_4 C4_4 1_555 1_555
C12_4 C14_4 1_555 1_555
C13_4 C7_4 1_555 1_555
C14_4 C15_4 1_555 1_555
C15_4 C5_4 1_555 1_555
C16_4 C18_4 1_555 1_555
C17_3 C13_4 1_555 1_555
C18_4 C20_4 1_555 1_555
C19_4 N2_4 1_555 1_555
C20_4 H14_4 1_555 1_555
C21_4 C16_4 1_555 1_555
C22_4 N10_2 1_555 1_555
C23_4 C14_4 1_555 1_555
C24_4 C16_4 1_555 1_555
H1_4 C15_4 1_555 1_555
H2_4 C5_4 1_555 1_555
H3_4 C12_4 1_555 1_555
H4_4 C19_4 1_555 1_555
H5_4 C4_4 1_555 1_555
H6_3 C11_4 1_555 1_555
H7_4 C7_4 1_555 1_555
H8_4 C8_4 1_555 1_555
H13_4 C18_4 1_555 1_555
H15_4 C22_4 1_555 1_555
H16_4 C21_4 1_555 1_555
H19_4 C24_4 1_555 1_555
H20_4 C24_4 1_555 1_555
H21_4 C23_4 1_555 1_555
H22_4 C23_4 1_555 1_555
H23_2 C17_3 1_555 1_555
H24_3 C17_3 1_555 1_555
N6_4 C31_4 1_555 1_555
C31_4 C34_4 1_555 1_555
C32_4 C33_4 1_555 1_555
C33_4 N6_4 1_555 1_555
C34_4 C35_4 1_555 1_555
C35_4 C32_4 1_555 1_555
C36_2 C17_3 1_555 1_555
H31_4 C31_4 1_555 1_555
H32_2 C34_4 1_555 1_555
H33_4 C32_4 1_555 1_555
H34_4 C33_4 1_555 1_555
H35_3 C36_2 1_555 1_555
H36_2 C36_2 1_555 1_555
C11_4 C13_4 1_555 1_555
C12_4 C19_4 1_555 1_555
C21_4 C22_4 1_555 1_555
C23_4 C24_4 1_555 1_555
C35_4 C36_2 1_555 1_555
H36_3 C36_3 1_555 1_555
H36_4 C36_4 1_555 1_555
H24_4 C17_4 1_555 1_555

#END
