
###############################################################################
#
# This file contains modified crystal structure data generated from the
# MOF subset of the Cambridge Structural Database (CSD) v543 
# hosted by the Cambridge Crystallographic Data Centre (CCDC).
#
# This work is licensed under the Creative Commons
# Attribution-NonCommercial-ShareAlike 4.0 International License.
# To view a copy of this license, visit
# http://creativecommons.org/licenses/by-nc-sa/4.0/
# or send a letter to
# Creative Commons, PO Box 1866, Mountain View, CA 94042, USA.
#
# CIF created using the CSD Python API on 29 September 2022
# The structure has been converted into the P1 space group
# The structure has a 3D framework
# The original CSD entry VAKHIB is in the monoclinic crystal system
# The framework has been calculated to contain at least 10.0% void space
# The void calculation uses a probe of radius 1.32A, grid spacing 0.4
#
###############################################################################

data_VAKHIB
_chemical_formula_moiety         '(C192 H192 Cl24 N32 Yb8)n'
_symmetry_cell_setting           triclinic
_symmetry_space_group_name_H-M   'P 1'
_symmetry_Int_Tables_number      1
_space_group_name_Hall           'P 1'
loop_
_symmetry_equiv_pos_site_id
_symmetry_equiv_pos_as_xyz
1 x,y,z
_cell_length_a                   35.641(8)
_cell_length_b                   9.257(2)
_cell_length_c                   18.512(4)
_cell_angle_alpha                90
_cell_angle_beta                 109.781(7)
_cell_angle_gamma                90
_cell_volume                     5747.25
loop_
_atom_site_label
_atom_site_type_symbol
_atom_site_fract_x
_atom_site_fract_y
_atom_site_fract_z
H8 H 0.08674(16) 0.0659(6) 0.3328(3)
C15 C 0.0095(2) 0.0746(6) 0.2948(4)
H13 H 0.0239(2) 0.1667(6) 0.3117(4)
H29 H 0.0120(2) 0.0686(6) 0.1826(4)
H5 H 0.30832(14) 0.2758(5) 0.0238(2)
Yb1 Yb 0.134879(5) 0.49310(2) 0.385826(9)
Cl1 Cl 0.08003(3) 0.37415(12) 0.42886(6)
Cl2 Cl 0.18626(3) 0.63253(15) 0.34440(6)
Cl3 Cl 0.14434(3) 0.25057(14) 0.32323(6)
N1 N 0.18654(12) 0.3649(5) 0.4903(2)
N2 N 0.09186(12) 0.7167(4) 0.36486(19)
C1 C 0.05296(14) 0.7062(5) 0.3580(2)
H1 H 0.04334(14) 0.6148(5) 0.3673(2)
C2 C 0.09535(16) 0.5999(7) 0.1991(3)
H2 H 0.11891(16) 0.6568(7) 0.2142(3)
N3 N 0.08918(11) 0.5099(5) 0.2516(2)
C3 C 0.10405(16) 0.8500(6) 0.3537(3)
H3 H 0.13104(16) 0.8642(6) 0.3575(3)
C4 C 0.05606(15) 0.4323(9) 0.2288(3)
H4 H 0.05123(15) 0.3666(9) 0.2641(3)
N4 N 0.34245(10) 0.1388(4) 0.99273(19)
C5 C 0.31460(14) 0.2413(5) 0.9809(2)
C6 C 0.35111(14) 0.0962(6) 0.9314(3)
H6 H 0.37148(14) 0.0260(6) 0.9384(3)
C7 C 0.24960(14) 0.3565(6) 0.5918(3)
H7 H 0.27615(14) 0.3918(6) 0.6120(3)
C8 C 0.23654(13) 0.2527(5) 0.6311(2)
C9 C 0.07727(16) 0.9711(6) 0.3363(3)
C10 C 0.22386(14) 0.4094(6) 0.5227(3)
H9 H 0.23353(14) 0.4818(6) 0.4971(3)
C11 C 0.03876(17) 0.9472(6) 0.3250(3)
C12 C 0.02654(17) 0.8189(6) 0.3387(3)
C13 C 0.03458(15) 0.5377(9) 0.1021(3)
C14 C 0.06923(15) 0.6132(9) 0.1251(3)
H11 H 0.07551(15) 0.6755(9) 0.0900(3)
C16 C 0.02818(16) 0.4427(9) 0.1558(3)
H14 H 0.00469(16) 0.3854(9) 0.1420(3)
C17 C 0.30268(13) 0.2530(5) 0.8458(2)
C18 C 0.29446(14) 0.2995(5) 0.9096(2)
H15 H 0.27486(14) 0.3720(5) 0.9045(2)
C19 C 0.26226(14) 0.1948(5) 0.7083(2)
H16 H 0.24592(14) 0.1304(5) 0.7285(2)
H17 H 0.28403(14) 0.1361(5) 0.7014(2)
C20 C 0.33202(14) 0.1488(6) 0.8575(3)
H18 H 0.33905(14) 0.1135(6) 0.8156(3)
C21 C 0.00356(18) 0.5656(10) 0.0215(3)
C22 C 0.28039(14) 0.3130(5) 0.7671(2)
H21 H 0.25887(14) 0.3775(5) 0.7704(2)
H22 H 0.29889(14) 0.3716(5) 0.7495(2)
C23 C 0.19849(16) 0.2011(6) 0.5959(3)
H23 H 0.18828(16) 0.1270(6) 0.6196(3)
C24 C 0.17506(17) 0.2579(6) 0.5257(3)
H24 H 0.14931(17) 0.2177(6) 0.5016(3)
H28 H 0.00043(17) 0.8047(6) 0.1649(3)
N11 N 0.15755(10) 0.6388(4) 0.50727(19)
H20 H 0.01371(18) 0.6402(10) 0.9945(3)
H35 H 0.02164(18) 0.3988(10) 0.9735(3)
Yb5 Yb 0.365121(5) 0.99310(2) 0.114174(9)
H10 H 0.99957(17) 0.8047(6) 0.3351(3)
H19 H 0.97836(18) 0.6012(10) 0.0265(3)
N5 N 0.90814(12) 0.7167(4) 0.13514(19)
C25 C 0.94704(14) 0.7062(5) 0.1420(2)
H25 H 0.95666(14) 0.6148(5) 0.1327(2)
C26 C 0.89595(16) 0.8500(6) 0.1463(3)
H26 H 0.86896(16) 0.8642(6) 0.1425(3)
C27 C 0.92273(16) 0.9711(6) 0.1637(3)
C28 C 0.96124(17) 0.9472(6) 0.1750(3)
C29 C 0.97346(17) 0.8189(6) 0.1613(3)
H36 H 0.98629(18) 0.3598(10) 0.0055(3)
Yb2 Yb 0.865121(5) 0.49310(2) 0.114174(9)
Cl4 Cl 0.91997(3) 0.37415(12) 0.07114(6)
Cl5 Cl 0.81374(3) 0.63253(15) 0.15560(6)
Cl6 Cl 0.85566(3) 0.25057(14) 0.17677(6)
N7 N 0.81346(12) 0.3649(5) 0.0097(2)
H40 H 0.76647(14) 0.4818(6) 0.0029(3)
N9 N 0.91082(11) 0.5099(5) 0.2484(2)
C31 C 0.90465(16) 0.4001(7) 0.8009(3)
H31 H 0.88109(16) 0.3432(7) 0.7858(3)
N6 N 0.91082(11) 0.4901(5) 0.7484(2)
C32 C 0.94394(15) 0.5677(9) 0.7712(3)
H32 H 0.94877(15) 0.6334(9) 0.7359(3)
C33 C 0.96542(15) 0.4623(9) 0.8979(3)
C34 C 0.93077(15) 0.3868(9) 0.8749(3)
H33 H 0.92449(15) 0.3245(9) 0.9100(3)
C35 C 0.97182(16) 0.5573(9) 0.8442(3)
H34 H 0.99531(16) 0.6146(9) 0.8580(3)
C36 C 0.99644(18) 0.4344(10) 0.9785(3)
N8 N 0.65755(10) 0.1388(4) 0.50727(19)
C37 C 0.68540(14) 0.2413(5) 0.5191(2)
H37 H 0.69168(14) 0.2758(5) 0.4762(2)
C38 C 0.64889(14) 0.0962(6) 0.5686(3)
H38 H 0.62852(14) 0.0260(6) 0.5616(3)
C39 C 0.75040(14) 0.3565(6) 0.9082(3)
H39 H 0.72385(14) 0.3918(6) 0.8880(3)
C40 C 0.76346(13) 0.2527(5) 0.8689(2)
C41 C 0.77614(14) 0.4094(6) 0.9773(3)
C42 C 0.69732(13) 0.2530(5) 0.6542(2)
C43 C 0.70554(14) 0.2995(5) 0.5904(2)
H41 H 0.72514(14) 0.3720(5) 0.5955(2)
C44 C 0.73774(14) 0.1948(5) 0.7917(2)
H42 H 0.75408(14) 0.1304(5) 0.7715(2)
H43 H 0.71597(14) 0.1361(5) 0.7986(2)
C45 C 0.66798(14) 0.1488(6) 0.6425(3)
H44 H 0.66095(14) 0.1135(6) 0.6844(3)
C46 C 0.71961(14) 0.3130(5) 0.7329(2)
H45 H 0.74113(14) 0.3775(5) 0.7296(2)
H46 H 0.70111(14) 0.3716(5) 0.7505(2)
C47 C 0.80151(16) 0.2011(6) 0.9041(3)
H47 H 0.81172(16) 0.1270(6) 0.8804(3)
C48 C 0.82494(17) 0.2579(6) 0.9743(3)
H48 H 0.85069(17) 0.2177(6) 0.9984(3)
Yb3 Yb 0.865121(5) 0.50690(2) 0.614174(9)
N10 N 0.84245(10) 0.6388(4) 0.99273(19)
Yb4 Yb 0.634879(5) 0.99310(2) 0.385826(9)
H19_2 H 0.02164(18) 0.6012(10) 0.4735(3)
C31_2 C 0.09535(16) 0.4001(7) 0.6991(3)
H31_2 H 0.11891(16) 0.3432(7) 0.7142(3)
N6_2 N 0.08918(11) 0.4901(5) 0.7516(2)
C32_2 C 0.05606(15) 0.5677(9) 0.7288(3)
H32_2 H 0.05123(15) 0.6334(9) 0.7641(3)
C33_2 C 0.03458(15) 0.4623(9) 0.6021(3)
C34_2 C 0.06923(15) 0.3868(9) 0.6251(3)
H33_2 H 0.07551(15) 0.3245(9) 0.5900(3)
C35_2 C 0.02818(16) 0.5573(9) 0.6558(3)
H34_2 H 0.00469(16) 0.6146(9) 0.6420(3)
C36_2 C 0.00356(18) 0.4344(10) 0.5215(3)
H36_2 H 0.01371(18) 0.3598(10) 0.4945(3)
Yb3_2 Yb 0.134879(5) 0.50690(2) 0.885826(9)
C2_2 C 0.90465(16) 0.5999(7) 0.3009(3)
H2_2 H 0.88109(16) 0.6568(7) 0.2858(3)
C4_2 C 0.94394(15) 0.4323(9) 0.2712(3)
H4_2 H 0.94877(15) 0.3666(9) 0.2359(3)
C13_2 C 0.96542(15) 0.5377(9) 0.3979(3)
C14_2 C 0.93077(15) 0.6132(9) 0.3749(3)
H11_2 H 0.92449(15) 0.6755(9) 0.4100(3)
C16_2 C 0.97182(16) 0.4427(9) 0.3442(3)
H14_2 H 0.99531(16) 0.3854(9) 0.3580(3)
C21_2 C 0.99644(18) 0.5656(10) 0.4785(3)
H20_2 H 0.98629(18) 0.6402(10) 0.5055(3)
H35_2 H 0.97836(18) 0.3988(10) 0.5265(3)
Cl2_2 Cl 0.68626(3) 0.13253(15) 0.34440(6)
N2_2 N 0.59186(12) 0.2167(4) 0.36486(19)
C1_2 C 0.55296(14) 0.2062(5) 0.3580(2)
H1_2 H 0.54334(14) 0.1148(5) 0.3673(2)
C2_3 C 0.59535(16) 0.0999(7) 0.1991(3)
H2_3 H 0.61891(16) 0.1568(7) 0.2142(3)
N3_2 N 0.58918(11) 0.0099(5) 0.2516(2)
C3_2 C 0.60405(16) 0.3500(6) 0.3537(3)
H3_2 H 0.63104(16) 0.3642(6) 0.3575(3)
C9_2 C 0.57727(16) 0.4711(6) 0.3363(3)
H8_2 H 0.58674(16) 0.5659(6) 0.3328(3)
C11_2 C 0.53876(17) 0.4472(6) 0.3250(3)
C12_2 C 0.52654(17) 0.3189(6) 0.3387(3)
H10_2 H 0.49957(17) 0.3047(6) 0.3351(3)
C13_3 C 0.53458(15) 0.0377(9) 0.1021(3)
C14_3 C 0.56923(15) 0.1132(9) 0.1251(3)
H11_3 H 0.57551(15) 0.1755(9) 0.0900(3)
C15_2 C 0.5095(2) 0.5746(6) 0.2948(4)
H12 H 0.4880(2) 0.5686(6) 0.3174(4)
H13_2 H 0.5239(2) 0.6667(6) 0.3117(4)
C21_3 C 0.50356(18) 0.0656(10) 0.0215(3)
H19_3 H 0.47836(18) 0.1012(10) 0.0265(3)
N5_2 N 0.40814(12) 0.2167(4) 0.13514(19)
C25_2 C 0.44704(14) 0.2062(5) 0.1420(2)
H25_2 H 0.45666(14) 0.1148(5) 0.1327(2)
C26_2 C 0.39595(16) 0.3500(6) 0.1463(3)
H26_2 H 0.36896(16) 0.3642(6) 0.1425(3)
C27_2 C 0.42273(16) 0.4711(6) 0.1637(3)
H27 H 0.41326(16) 0.5659(6) 0.1672(3)
C28_2 C 0.46124(17) 0.4472(6) 0.1750(3)
C29_2 C 0.47346(17) 0.3189(6) 0.1613(3)
H28_2 H 0.50043(17) 0.3047(6) 0.1649(3)
C30 C 0.4905(2) 0.5746(6) 0.2052(4)
H29_2 H 0.5120(2) 0.5686(6) 0.1826(4)
H30 H 0.4761(2) 0.6667(6) 0.1883(4)
Cl5_2 Cl 0.31374(3) 0.13253(15) 0.15560(6)
N9_2 N 0.41082(11) 0.0099(5) 0.2484(2)
H20_3 H 0.51371(18) 0.1402(10) 0.9945(3)
C32_3 C 0.44394(15) 0.0677(9) 0.7712(3)
H32_3 H 0.44877(15) 0.1334(9) 0.7359(3)
C35_3 C 0.47182(16) 0.0573(9) 0.8442(3)
H34_3 H 0.49531(16) 0.1146(9) 0.8580(3)
Yb3_3 Yb 0.365121(5) 0.00690(2) 0.614174(9)
H5_2 H 0.80832(14) 0.7758(5) 0.0238(2)
Cl1_2 Cl 0.58003(3) 0.87415(12) 0.42886(6)
Cl3_2 Cl 0.64434(3) 0.75057(14) 0.32323(6)
N1_2 N 0.68654(12) 0.8649(5) 0.4903(2)
C4_3 C 0.55606(15) 0.9323(9) 0.2288(3)
H4_3 H 0.55123(15) 0.8666(9) 0.2641(3)
C5_2 C 0.81460(14) 0.7413(5) 0.9809(2)
C6_2 C 0.85111(14) 0.5962(6) 0.9314(3)
H6_2 H 0.87148(14) 0.5260(6) 0.9384(3)
C7_2 C 0.74960(14) 0.8565(6) 0.5918(3)
H7_2 H 0.77615(14) 0.8918(6) 0.6120(3)
C8_2 C 0.73654(13) 0.7527(5) 0.6311(2)
C10_2 C 0.72386(14) 0.9094(6) 0.5227(3)
H9_2 H 0.73353(14) 0.9818(6) 0.4971(3)
C16_3 C 0.52818(16) 0.9427(9) 0.1558(3)
H14_3 H 0.50469(16) 0.8854(9) 0.1420(3)
C17_2 C 0.80268(13) 0.7530(5) 0.8458(2)
C18_2 C 0.79446(14) 0.7995(5) 0.9096(2)
H15_2 H 0.77486(14) 0.8720(5) 0.9045(2)
C19_2 C 0.76226(14) 0.6948(5) 0.7083(2)
H16_2 H 0.74592(14) 0.6304(5) 0.7285(2)
H17_2 H 0.78403(14) 0.6361(5) 0.7014(2)
C20_2 C 0.83202(14) 0.6488(6) 0.8575(3)
H18_2 H 0.83905(14) 0.6135(6) 0.8156(3)
C22_2 C 0.78039(14) 0.8130(5) 0.7671(2)
H21_2 H 0.75887(14) 0.8775(5) 0.7704(2)
H22_2 H 0.79889(14) 0.8716(5) 0.7495(2)
C23_2 C 0.69849(16) 0.7011(6) 0.5959(3)
H23_2 H 0.68828(16) 0.6270(6) 0.6196(3)
C24_2 C 0.67506(17) 0.7579(6) 0.5257(3)
H24_2 H 0.64931(17) 0.7177(6) 0.5016(3)
H36_3 H 0.48629(18) 0.8598(10) 0.0055(3)
Cl4_2 Cl 0.41997(3) 0.87415(12) 0.07114(6)
Cl6_2 Cl 0.35566(3) 0.75057(14) 0.17677(6)
N7_2 N 0.31346(12) 0.8649(5) 0.0097(2)
H40_2 H 0.26647(14) 0.9818(6) 0.0029(3)
C31_3 C 0.40465(16) 0.9001(7) 0.8009(3)
H31_3 H 0.38109(16) 0.8432(7) 0.7858(3)
N6_3 N 0.41082(11) 0.9901(5) 0.7484(2)
C33_3 C 0.46542(15) 0.9623(9) 0.8979(3)
C34_3 C 0.43077(15) 0.8868(9) 0.8749(3)
H33_3 H 0.42449(15) 0.8245(9) 0.9100(3)
C36_3 C 0.49644(18) 0.9344(10) 0.9785(3)
H35_3 H 0.52164(18) 0.8988(10) 0.9735(3)
C37_2 C 0.18540(14) 0.7413(5) 0.5191(2)
H37_2 H 0.19168(14) 0.7758(5) 0.4762(2)
C38_2 C 0.14889(14) 0.5962(6) 0.5686(3)
H38_2 H 0.12852(14) 0.5260(6) 0.5616(3)
C39_2 C 0.25040(14) 0.8565(6) 0.9082(3)
H39_2 H 0.22385(14) 0.8918(6) 0.8880(3)
C40_2 C 0.26346(13) 0.7527(5) 0.8689(2)
C41_2 C 0.27614(14) 0.9094(6) 0.9773(3)
C42_2 C 0.19732(13) 0.7530(5) 0.6542(2)
C43_2 C 0.20554(14) 0.7995(5) 0.5904(2)
H41_2 H 0.22514(14) 0.8720(5) 0.5955(2)
C44_2 C 0.23774(14) 0.6948(5) 0.7917(2)
H42_2 H 0.25408(14) 0.6304(5) 0.7715(2)
H43_2 H 0.21597(14) 0.6361(5) 0.7986(2)
C45_2 C 0.16798(14) 0.6488(6) 0.6425(3)
H44_2 H 0.16095(14) 0.6135(6) 0.6844(3)
C46_2 C 0.21961(14) 0.8130(5) 0.7329(2)
H45_2 H 0.24113(14) 0.8775(5) 0.7296(2)
H46_2 H 0.20111(14) 0.8716(5) 0.7505(2)
C47_2 C 0.30151(16) 0.7011(6) 0.9041(3)
H47_2 H 0.31172(16) 0.6270(6) 0.8804(3)
C48_2 C 0.32494(17) 0.7579(6) 0.9743(3)
H48_2 H 0.35069(17) 0.7177(6) 0.9984(3)
C2_4 C 0.40465(16) 0.0999(7) 0.3009(3)
H2_4 H 0.38109(16) 0.1568(7) 0.2858(3)
C13_4 C 0.46542(15) 0.0377(9) 0.3979(3)
C14_4 C 0.43077(15) 0.1132(9) 0.3749(3)
H11_4 H 0.42449(15) 0.1755(9) 0.4100(3)
C21_4 C 0.49644(18) 0.0656(10) 0.4785(3)
H19_4 H 0.52164(18) 0.1012(10) 0.4735(3)
H20_4 H 0.48629(18) 0.1402(10) 0.5055(3)
C32_4 C 0.55606(15) 0.0677(9) 0.7288(3)
H32_4 H 0.55123(15) 0.1334(9) 0.7641(3)
C35_4 C 0.52818(16) 0.0573(9) 0.6558(3)
H34_4 H 0.50469(16) 0.1146(9) 0.6420(3)
Yb3_4 Yb 0.634879(5) 0.00690(2) 0.885826(9)
C4_4 C 0.44394(15) 0.9323(9) 0.2712(3)
H4_4 H 0.44877(15) 0.8666(9) 0.2359(3)
C16_4 C 0.47182(16) 0.9427(9) 0.3442(3)
H14_4 H 0.49531(16) 0.8854(9) 0.3580(3)
C31_4 C 0.59535(16) 0.9001(7) 0.6991(3)
H31_4 H 0.61891(16) 0.8432(7) 0.7142(3)
N6_4 N 0.58918(11) 0.9901(5) 0.7516(2)
C33_4 C 0.53458(15) 0.9623(9) 0.6021(3)
C34_4 C 0.56923(15) 0.8868(9) 0.6251(3)
H33_4 H 0.57551(15) 0.8245(9) 0.5900(3)
C36_4 C 0.50356(18) 0.9344(10) 0.5215(3)
H35_4 H 0.47836(18) 0.8988(10) 0.5265(3)
H36_4 H 0.51371(18) 0.8598(10) 0.4945(3)
N8_2 N 0.34245(10) 0.8612(4) 0.49273(19)
C37_3 C 0.31460(14) 0.7587(5) 0.4809(2)
H37_3 H 0.30832(14) 0.7242(5) 0.5238(2)
C38_3 C 0.35111(14) 0.9038(6) 0.4314(3)
H38_3 H 0.37148(14) 0.9740(6) 0.4384(3)
C39_3 C 0.24960(14) 0.6435(6) 0.0918(3)
H39_3 H 0.27615(14) 0.6082(6) 0.1120(3)
C40_3 C 0.23654(13) 0.7473(5) 0.1311(2)
C41_3 C 0.22386(14) 0.5906(6) 0.0227(3)
C42_3 C 0.30268(13) 0.7470(5) 0.3458(2)
C43_3 C 0.29446(14) 0.7005(5) 0.4096(2)
H41_3 H 0.27486(14) 0.6280(5) 0.4045(2)
C44_3 C 0.26226(14) 0.8052(5) 0.2083(2)
H42_3 H 0.24592(14) 0.8696(5) 0.2285(2)
H43_3 H 0.28403(14) 0.8639(5) 0.2014(2)
C45_3 C 0.33202(14) 0.8512(6) 0.3575(3)
H44_3 H 0.33905(14) 0.8865(6) 0.3156(3)
C46_3 C 0.28039(14) 0.6870(5) 0.2671(2)
H45_3 H 0.25887(14) 0.6225(5) 0.2704(2)
H46_3 H 0.29889(14) 0.6284(5) 0.2495(2)
C47_3 C 0.19849(16) 0.7989(6) 0.0959(3)
H47_3 H 0.18828(16) 0.8730(6) 0.1196(3)
C48_3 C 0.17506(17) 0.7421(6) 0.0257(3)
H48_3 H 0.14931(17) 0.7823(6) 0.0016(3)
N10_2 N 0.15755(10) 0.3612(4) 0.00727(19)
H10_3 H 0.00043(17) 0.1953(6) 0.6649(3)
N5_3 N 0.09186(12) 0.2833(4) 0.86486(19)
C25_3 C 0.05296(14) 0.2938(5) 0.8580(2)
H25_3 H 0.04334(14) 0.3852(5) 0.8673(2)
C26_3 C 0.10405(16) 0.1500(6) 0.8537(3)
H26_3 H 0.13104(16) 0.1358(6) 0.8575(3)
C27_3 C 0.07727(16) 0.0289(6) 0.8363(3)
C28_3 C 0.03876(17) 0.0528(6) 0.8250(3)
C29_3 C 0.02654(17) 0.1811(6) 0.8387(3)
Cl4_3 Cl 0.08003(3) 0.62585(12) 0.92886(6)
Cl5_3 Cl 0.18626(3) 0.36747(15) 0.84440(6)
Cl6_3 Cl 0.14434(3) 0.74943(14) 0.82323(6)
N7_3 N 0.18654(12) 0.6351(5) 0.9903(2)
H40_3 H 0.23353(14) 0.5182(6) 0.9971(3)
Cl1_3 Cl 0.91997(3) 0.62585(12) 0.57114(6)
Cl2_3 Cl 0.81374(3) 0.36747(15) 0.65560(6)
Cl3_3 Cl 0.85566(3) 0.74943(14) 0.67677(6)
N1_3 N 0.81346(12) 0.6351(5) 0.5097(2)
N2_3 N 0.90814(12) 0.2833(4) 0.63514(19)
C1_3 C 0.94704(14) 0.2938(5) 0.6420(2)
H1_3 H 0.95666(14) 0.3852(5) 0.6327(2)
C3_3 C 0.89595(16) 0.1500(6) 0.6463(3)
H3_3 H 0.86896(16) 0.1358(6) 0.6425(3)
N4_2 N 0.65755(10) 0.8612(4) 0.00727(19)
C5_3 C 0.68540(14) 0.7587(5) 0.0191(2)
C6_3 C 0.64889(14) 0.9038(6) 0.0686(3)
H6_3 H 0.62852(14) 0.9740(6) 0.0616(3)
C7_3 C 0.75040(14) 0.6435(6) 0.4082(3)
H7_3 H 0.72385(14) 0.6082(6) 0.3880(3)
C8_3 C 0.76346(13) 0.7473(5) 0.3689(2)
C9_3 C 0.92273(16) 0.0289(6) 0.6637(3)
C10_3 C 0.77614(14) 0.5906(6) 0.4773(3)
H9_3 H 0.76647(14) 0.5182(6) 0.5029(3)
C11_3 C 0.96124(17) 0.0528(6) 0.6750(3)
C12_3 C 0.97346(17) 0.1811(6) 0.6613(3)
C17_3 C 0.69732(13) 0.7470(5) 0.1542(2)
C18_3 C 0.70554(14) 0.7005(5) 0.0904(2)
H15_3 H 0.72514(14) 0.6280(5) 0.0955(2)
C19_3 C 0.73774(14) 0.8052(5) 0.2917(2)
H16_3 H 0.75408(14) 0.8696(5) 0.2715(2)
H17_3 H 0.71597(14) 0.8639(5) 0.2986(2)
C20_3 C 0.66798(14) 0.8512(6) 0.1425(3)
H18_3 H 0.66095(14) 0.8865(6) 0.1844(3)
C22_3 C 0.71961(14) 0.6870(5) 0.2329(2)
H21_3 H 0.74113(14) 0.6225(5) 0.2296(2)
H22_3 H 0.70111(14) 0.6284(5) 0.2505(2)
C23_3 C 0.80151(16) 0.7989(6) 0.4041(3)
H23_3 H 0.81172(16) 0.8730(6) 0.3804(3)
C24_3 C 0.82494(17) 0.7421(6) 0.4743(3)
H24_3 H 0.85069(17) 0.7823(6) 0.4984(3)
H28_3 H 0.99957(17) 0.1953(6) 0.8351(3)
N11_2 N 0.84245(10) 0.3612(4) 0.49273(19)
C37_4 C 0.81460(14) 0.2587(5) 0.4809(2)
H37_4 H 0.80832(14) 0.2242(5) 0.5238(2)
C38_4 C 0.85111(14) 0.4038(6) 0.4314(3)
H38_4 H 0.87148(14) 0.4740(6) 0.4384(3)
C39_4 C 0.74960(14) 0.1435(6) 0.0918(3)
H39_4 H 0.77615(14) 0.1082(6) 0.1120(3)
C40_4 C 0.73654(13) 0.2473(5) 0.1311(2)
C41_4 C 0.72386(14) 0.0906(6) 0.0227(3)
C42_4 C 0.80268(13) 0.2470(5) 0.3458(2)
C43_4 C 0.79446(14) 0.2005(5) 0.4096(2)
H41_4 H 0.77486(14) 0.1280(5) 0.4045(2)
C44_4 C 0.76226(14) 0.3052(5) 0.2083(2)
H42_4 H 0.74592(14) 0.3696(5) 0.2285(2)
H43_4 H 0.78403(14) 0.3639(5) 0.2014(2)
C45_4 C 0.83202(14) 0.3512(6) 0.3575(3)
H44_4 H 0.83905(14) 0.3865(6) 0.3156(3)
C46_4 C 0.78039(14) 0.1870(5) 0.2671(2)
H45_4 H 0.75887(14) 0.1225(5) 0.2704(2)
H46_4 H 0.79889(14) 0.1284(5) 0.2495(2)
C47_4 C 0.69849(16) 0.2989(6) 0.0959(3)
H47_4 H 0.68828(16) 0.3730(6) 0.1196(3)
C48_4 C 0.67506(17) 0.2421(6) 0.0257(3)
H48_4 H 0.64931(17) 0.2823(6) 0.0016(3)
Cl1_4 Cl 0.41997(3) 0.12585(12) 0.57114(6)
Cl3_4 Cl 0.35566(3) 0.24943(14) 0.67677(6)
N1_4 N 0.31346(12) 0.1351(5) 0.5097(2)
C5_4 C 0.18540(14) 0.2587(5) 0.0191(2)
C6_4 C 0.14889(14) 0.4038(6) 0.0686(3)
H6_4 H 0.12852(14) 0.4740(6) 0.0616(3)
C7_4 C 0.25040(14) 0.1435(6) 0.4082(3)
H7_4 H 0.22385(14) 0.1082(6) 0.3880(3)
C8_4 C 0.26346(13) 0.2473(5) 0.3689(2)
C10_4 C 0.27614(14) 0.0906(6) 0.4773(3)
H9_4 H 0.26647(14) 0.0182(6) 0.5029(3)
C17_4 C 0.19732(13) 0.2470(5) 0.1542(2)
C18_4 C 0.20554(14) 0.2005(5) 0.0904(2)
H15_4 H 0.22514(14) 0.1280(5) 0.0955(2)
C19_4 C 0.23774(14) 0.3052(5) 0.2917(2)
H16_4 H 0.25408(14) 0.3696(5) 0.2715(2)
H17_4 H 0.21597(14) 0.3639(5) 0.2986(2)
C20_4 C 0.16798(14) 0.3512(6) 0.1425(3)
H18_4 H 0.16095(14) 0.3865(6) 0.1844(3)
C22_4 C 0.21961(14) 0.1870(5) 0.2329(2)
H21_4 H 0.24113(14) 0.1225(5) 0.2296(2)
H22_4 H 0.20111(14) 0.1284(5) 0.2505(2)
C23_4 C 0.30151(16) 0.2989(6) 0.4041(3)
H23_4 H 0.31172(16) 0.3730(6) 0.3804(3)
C24_4 C 0.32494(17) 0.2421(6) 0.4743(3)
H24_4 H 0.35069(17) 0.2823(6) 0.4984(3)
Cl4_4 Cl 0.58003(3) 0.12585(12) 0.92886(6)
Cl6_4 Cl 0.64434(3) 0.24943(14) 0.82323(6)
N7_4 N 0.68654(12) 0.1351(5) 0.9903(2)
H40_4 H 0.73353(14) 0.0182(6) 0.9971(3)
H5_3 H 0.19168(14) 0.2242(5) 0.9762(2)
Cl2_4 Cl 0.31374(3) 0.86747(15) 0.65560(6)
N2_4 N 0.40814(12) 0.7833(4) 0.63514(19)
C1_4 C 0.44704(14) 0.7938(5) 0.6420(2)
H1_4 H 0.45666(14) 0.8852(5) 0.6327(2)
C3_4 C 0.39595(16) 0.6500(6) 0.6463(3)
H3_4 H 0.36896(16) 0.6358(6) 0.6425(3)
C9_4 C 0.42273(16) 0.5289(6) 0.6637(3)
H8_3 H 0.41326(16) 0.4341(6) 0.6672(3)
C11_4 C 0.46124(17) 0.5528(6) 0.6750(3)
C12_4 C 0.47346(17) 0.6811(6) 0.6613(3)
H10_4 H 0.50043(17) 0.6953(6) 0.6649(3)
C15_3 C 0.4905(2) 0.4254(6) 0.7052(4)
H12_2 H 0.5120(2) 0.4314(6) 0.6826(4)
H13_3 H 0.4761(2) 0.3333(6) 0.6883(4)
N5_4 N 0.59186(12) 0.7833(4) 0.86486(19)
C25_4 C 0.55296(14) 0.7938(5) 0.8580(2)
H25_4 H 0.54334(14) 0.8852(5) 0.8673(2)
C26_4 C 0.60405(16) 0.6500(6) 0.8537(3)
H26_4 H 0.63104(16) 0.6358(6) 0.8575(3)
C27_4 C 0.57727(16) 0.5289(6) 0.8363(3)
H27_2 H 0.58674(16) 0.4341(6) 0.8328(3)
C28_4 C 0.53876(17) 0.5528(6) 0.8250(3)
C29_4 C 0.52654(17) 0.6811(6) 0.8387(3)
H28_4 H 0.49957(17) 0.6953(6) 0.8351(3)
C30_2 C 0.5095(2) 0.4254(6) 0.7948(4)
H29_3 H 0.4880(2) 0.4314(6) 0.8174(4)
H30_2 H 0.5239(2) 0.3333(6) 0.8117(4)
Cl5_4 Cl 0.68626(3) 0.86747(15) 0.84440(6)
H12_3 H 0.9880(2) 0.0686(6) 0.3174(4)
H27_3 H 0.91326(16) 0.0659(6) 0.1672(3)
C30_3 C 0.9905(2) 0.0746(6) 0.2052(4)
H30_3 H 0.9761(2) 0.1667(6) 0.1883(4)
H12_4 H 0.0120(2) 0.9314(6) 0.6826(4)
H27_4 H 0.08674(16) 0.9341(6) 0.8328(3)
C30_4 C 0.0095(2) 0.9254(6) 0.7948(4)
H30_4 H 0.0239(2) 0.8333(6) 0.8117(4)
H5_4 H 0.69168(14) 0.7242(5) 0.9762(2)
H8_4 H 0.91326(16) 0.9341(6) 0.6672(3)
C15_4 C 0.9905(2) 0.9254(6) 0.7052(4)
H13_4 H 0.9761(2) 0.8333(6) 0.6883(4)
H29_4 H 0.9880(2) 0.9314(6) 0.8174(4)
loop_
_geom_bond_atom_site_label_1
_geom_bond_atom_site_label_2
_geom_bond_site_symmetry_1
_geom_bond_site_symmetry_2
H13 C15 1_555 1_555
Yb1 Cl1 1_555 1_555
Cl2 Yb1 1_555 1_555
Cl3 Yb1 1_555 1_555
N1 Yb1 1_555 1_555
N2 Yb1 1_555 1_555
C1 N2 1_555 1_555
H1 C1 1_555 1_555
C2 H2 1_555 1_555
N3 Yb1 1_555 1_555
C3 N2 1_555 1_555
H3 C3 1_555 1_555
C4 N3 1_555 1_555
H4 C4 1_555 1_555
N4 C5 1_555 1_555
C6 N4 1_555 1_555
H6 C6 1_555 1_555
C7 H7 1_555 1_555
C8 C7 1_555 1_555
C9 C3 1_555 1_555
C10 N1 1_555 1_555
H9 C10 1_555 1_555
C11 C9 1_555 1_555
C12 C1 1_555 1_555
C13 C14 1_555 1_555
C14 C2 1_555 1_555
H11 C14 1_555 1_555
C16 C4 1_555 1_555
H14 C16 1_555 1_555
C17 C18 1_555 1_555
C18 C5 1_555 1_555
H15 C18 1_555 1_555
C19 C8 1_555 1_555
H16 C19 1_555 1_555
H17 C19 1_555 1_555
C20 C6 1_555 1_555
H18 C20 1_555 1_555
C21 C13 1_555 1_555
C22 C17 1_555 1_555
H21 C22 1_555 1_555
H22 C22 1_555 1_555
C23 C8 1_555 1_555
H23 C23 1_555 1_555
C24 N1 1_555 1_555
H24 C24 1_555 1_555
N11 Yb1 1_555 1_555
C2 N3 1_555 1_555
C7 C10 1_555 1_555
C11 C12 1_555 1_555
C13 C16 1_555 1_555
C17 C20 1_555 1_555
C19 C22 1_555 1_555
C23 C24 1_555 1_555
N5 C25 1_555 1_555
C25 H25 1_555 1_555
C26 N5 1_555 1_555
H26 C26 1_555 1_555
C27 C26 1_555 1_555
C28 C27 1_555 1_555
C29 C25 1_555 1_555
Yb2 N5 1_555 1_555
Cl4 Yb2 1_555 1_555
Cl5 Yb2 1_555 1_555
Cl6 Yb2 1_555 1_555
N7 Yb2 1_555 1_555
N9 Yb2 1_555 1_555
C28 C29 1_555 1_555
C31 H31 1_555 1_555
N6 C31 1_555 1_555
C32 N6 1_555 1_555
H32 C32 1_555 1_555
C33 C34 1_555 1_555
C34 C31 1_555 1_555
H33 C34 1_555 1_555
C35 C32 1_555 1_555
H34 C35 1_555 1_555
N8 C37 1_555 1_555
C37 H37 1_555 1_555
C38 N8 1_555 1_555
H38 C38 1_555 1_555
C39 H39 1_555 1_555
C40 C39 1_555 1_555
C42 C43 1_555 1_555
C43 C37 1_555 1_555
H41 C43 1_555 1_555
C44 C40 1_555 1_555
H42 C44 1_555 1_555
H43 C44 1_555 1_555
C45 C38 1_555 1_555
H44 C45 1_555 1_555
C46 C42 1_555 1_555
H45 C46 1_555 1_555
H46 C46 1_555 1_555
C47 C40 1_555 1_555
H47 C47 1_555 1_555
H48 C48 1_555 1_555
Yb3 N6 1_555 1_555
C33 C35 1_555 1_555
C33 C36 1_555 1_555
C39 C41 1_555 1_555
C42 C45 1_555 1_555
C44 C46 1_555 1_555
C47 C48 1_555 1_555
C31_2 H31_2 1_555 1_555
N6_2 C31_2 1_555 1_555
C32_2 N6_2 1_555 1_555
H32_2 C32_2 1_555 1_555
C33_2 C34_2 1_555 1_555
C34_2 C31_2 1_555 1_555
H33_2 C34_2 1_555 1_555
C35_2 C32_2 1_555 1_555
H34_2 C35_2 1_555 1_555
H36_2 C36_2 1_555 1_555
Yb3_2 N6_2 1_555 1_555
C33_2 C35_2 1_555 1_555
C33_2 C36_2 1_555 1_555
C2_2 H2_2 1_555 1_555
C4_2 N9 1_555 1_555
H4_2 C4_2 1_555 1_555
C13_2 C14_2 1_555 1_555
C14_2 C2_2 1_555 1_555
H11_2 C14_2 1_555 1_555
C16_2 C4_2 1_555 1_555
H14_2 C16_2 1_555 1_555
C21_2 C13_2 1_555 1_555
H20_2 C21_2 1_555 1_555
C2_2 N9 1_555 1_555
C13_2 C16_2 1_555 1_555
C1_2 N2_2 1_555 1_555
H1_2 C1_2 1_555 1_555
C2_3 H2_3 1_555 1_555
C3_2 N2_2 1_555 1_555
H3_2 C3_2 1_555 1_555
C9_2 C3_2 1_555 1_555
H8_2 C9_2 1_555 1_555
C11_2 C9_2 1_555 1_555
C12_2 C1_2 1_555 1_555
H10_2 C12_2 1_555 1_555
C13_3 C14_3 1_555 1_555
C14_3 C2_3 1_555 1_555
H11_3 C14_3 1_555 1_555
C15_2 C11_2 1_555 1_555
H12 C15_2 1_555 1_555
H13_2 C15_2 1_555 1_555
C21_3 C13_3 1_555 1_555
H19_3 C21_3 1_555 1_555
N5_2 C25_2 1_555 1_555
C25_2 H25_2 1_555 1_555
C26_2 N5_2 1_555 1_555
H26_2 C26_2 1_555 1_555
C27_2 C26_2 1_555 1_555
H27 C27_2 1_555 1_555
C28_2 C27_2 1_555 1_555
C29_2 C25_2 1_555 1_555
H28_2 C29_2 1_555 1_555
C30 C15_2 1_555 1_555
H29_2 C30 1_555 1_555
H30 C30 1_555 1_555
C2_3 N3_2 1_555 1_555
C11_2 C12_2 1_555 1_555
C28_2 C29_2 1_555 1_555
C28_2 C30 1_555 1_555
H32_3 C32_3 1_555 1_555
C35_3 C32_3 1_555 1_555
H34_3 C35_3 1_555 1_555
Yb4 Cl1_2 1_555 1_555
Cl3_2 Yb4 1_555 1_555
N1_2 Yb4 1_555 1_555
H4_3 C4_3 1_555 1_555
N10 C5_2 1_555 1_555
C6_2 N10 1_555 1_555
H6_2 C6_2 1_555 1_555
C7_2 H7_2 1_555 1_555
C8_2 C7_2 1_555 1_555
C10_2 N1_2 1_555 1_555
H9_2 C10_2 1_555 1_555
C16_3 C4_3 1_555 1_555
H14_3 C16_3 1_555 1_555
C17_2 C18_2 1_555 1_555
C18_2 C5_2 1_555 1_555
H15_2 C18_2 1_555 1_555
C19_2 C8_2 1_555 1_555
H16_2 C19_2 1_555 1_555
H17_2 C19_2 1_555 1_555
C20_2 C6_2 1_555 1_555
H18_2 C20_2 1_555 1_555
C22_2 C17_2 1_555 1_555
H21_2 C22_2 1_555 1_555
H22_2 C22_2 1_555 1_555
C23_2 C8_2 1_555 1_555
H23_2 C23_2 1_555 1_555
C24_2 N1_2 1_555 1_555
H24_2 C24_2 1_555 1_555
Cl4_2 Yb5 1_555 1_555
Cl6_2 Yb5 1_555 1_555
N7_2 Yb5 1_555 1_555
C7_2 C10_2 1_555 1_555
C17_2 C20_2 1_555 1_555
C19_2 C22_2 1_555 1_555
C23_2 C24_2 1_555 1_555
C31_3 H31_3 1_555 1_555
N6_3 C31_3 1_555 1_555
C33_3 C34_3 1_555 1_555
C34_3 C31_3 1_555 1_555
H33_3 C34_3 1_555 1_555
H35_3 C36_3 1_555 1_555
N11 C37_2 1_555 1_555
C37_2 H37_2 1_555 1_555
C38_2 N11 1_555 1_555
H38_2 C38_2 1_555 1_555
C39_2 H39_2 1_555 1_555
C40_2 C39_2 1_555 1_555
C42_2 C43_2 1_555 1_555
C43_2 C37_2 1_555 1_555
H41_2 C43_2 1_555 1_555
C44_2 C40_2 1_555 1_555
H42_2 C44_2 1_555 1_555
H43_2 C44_2 1_555 1_555
C45_2 C38_2 1_555 1_555
H44_2 C45_2 1_555 1_555
C46_2 C42_2 1_555 1_555
H45_2 C46_2 1_555 1_555
H46_2 C46_2 1_555 1_555
C47_2 C40_2 1_555 1_555
H47_2 C47_2 1_555 1_555
H48_2 C48_2 1_555 1_555
C33_3 C36_3 1_555 1_555
C39_2 C41_2 1_555 1_555
C42_2 C45_2 1_555 1_555
C44_2 C46_2 1_555 1_555
C47_2 C48_2 1_555 1_555
C2_4 H2_4 1_555 1_555
C13_4 C14_4 1_555 1_555
C14_4 C2_4 1_555 1_555
H11_4 C14_4 1_555 1_555
C21_4 C13_4 1_555 1_555
H19_4 C21_4 1_555 1_555
H20_4 C21_4 1_555 1_555
H32_4 C32_4 1_555 1_555
C35_4 C32_4 1_555 1_555
H34_4 C35_4 1_555 1_555
C2_4 N9_2 1_555 1_555
H4_4 C4_4 1_555 1_555
C16_4 C4_4 1_555 1_555
H14_4 C16_4 1_555 1_555
C31_4 H31_4 1_555 1_555
N6_4 C31_4 1_555 1_555
C33_4 C34_4 1_555 1_555
C34_4 C31_4 1_555 1_555
H33_4 C34_4 1_555 1_555
H35_4 C36_4 1_555 1_555
H36_4 C36_4 1_555 1_555
C33_4 C36_4 1_555 1_555
N8_2 C37_3 1_555 1_555
C37_3 H37_3 1_555 1_555
C38_3 N8_2 1_555 1_555
H38_3 C38_3 1_555 1_555
C39_3 H39_3 1_555 1_555
C40_3 C39_3 1_555 1_555
C42_3 C43_3 1_555 1_555
C43_3 C37_3 1_555 1_555
H41_3 C43_3 1_555 1_555
C44_3 C40_3 1_555 1_555
H42_3 C44_3 1_555 1_555
H43_3 C44_3 1_555 1_555
C45_3 C38_3 1_555 1_555
H44_3 C45_3 1_555 1_555
C46_3 C42_3 1_555 1_555
H45_3 C46_3 1_555 1_555
H46_3 C46_3 1_555 1_555
C47_3 C40_3 1_555 1_555
H47_3 C47_3 1_555 1_555
H48_3 C48_3 1_555 1_555
C39_3 C41_3 1_555 1_555
C42_3 C45_3 1_555 1_555
C44_3 C46_3 1_555 1_555
C47_3 C48_3 1_555 1_555
N5_3 C25_3 1_555 1_555
C25_3 H25_3 1_555 1_555
C26_3 N5_3 1_555 1_555
H26_3 C26_3 1_555 1_555
C27_3 C26_3 1_555 1_555
C28_3 C27_3 1_555 1_555
C29_3 C25_3 1_555 1_555
Yb3_2 N5_3 1_555 1_555
Cl4_3 Yb3_2 1_555 1_555
Cl5_3 Yb3_2 1_555 1_555
Cl6_3 Yb3_2 1_555 1_555
N7_3 Yb3_2 1_555 1_555
C28_3 C29_3 1_555 1_555
Yb3 Cl1_3 1_555 1_555
Cl2_3 Yb3 1_555 1_555
Cl3_3 Yb3 1_555 1_555
N1_3 Yb3 1_555 1_555
N2_3 Yb3 1_555 1_555
C1_3 N2_3 1_555 1_555
H1_3 C1_3 1_555 1_555
C3_3 N2_3 1_555 1_555
H3_3 C3_3 1_555 1_555
N4_2 C5_3 1_555 1_555
C6_3 N4_2 1_555 1_555
H6_3 C6_3 1_555 1_555
C7_3 H7_3 1_555 1_555
C8_3 C7_3 1_555 1_555
C9_3 C3_3 1_555 1_555
C10_3 N1_3 1_555 1_555
H9_3 C10_3 1_555 1_555
C11_3 C9_3 1_555 1_555
C12_3 C1_3 1_555 1_555
C17_3 C18_3 1_555 1_555
C18_3 C5_3 1_555 1_555
H15_3 C18_3 1_555 1_555
C19_3 C8_3 1_555 1_555
H16_3 C19_3 1_555 1_555
H17_3 C19_3 1_555 1_555
C20_3 C6_3 1_555 1_555
H18_3 C20_3 1_555 1_555
C22_3 C17_3 1_555 1_555
H21_3 C22_3 1_555 1_555
H22_3 C22_3 1_555 1_555
C23_3 C8_3 1_555 1_555
H23_3 C23_3 1_555 1_555
C24_3 N1_3 1_555 1_555
H24_3 C24_3 1_555 1_555
N11_2 Yb3 1_555 1_555
C7_3 C10_3 1_555 1_555
C11_3 C12_3 1_555 1_555
C17_3 C20_3 1_555 1_555
C19_3 C22_3 1_555 1_555
C23_3 C24_3 1_555 1_555
N11_2 C37_4 1_555 1_555
C37_4 H37_4 1_555 1_555
C38_4 N11_2 1_555 1_555
H38_4 C38_4 1_555 1_555
C39_4 H39_4 1_555 1_555
C40_4 C39_4 1_555 1_555
C42_4 C43_4 1_555 1_555
C43_4 C37_4 1_555 1_555
H41_4 C43_4 1_555 1_555
C44_4 C40_4 1_555 1_555
H42_4 C44_4 1_555 1_555
H43_4 C44_4 1_555 1_555
C45_4 C38_4 1_555 1_555
H44_4 C45_4 1_555 1_555
C46_4 C42_4 1_555 1_555
H45_4 C46_4 1_555 1_555
H46_4 C46_4 1_555 1_555
C47_4 C40_4 1_555 1_555
H47_4 C47_4 1_555 1_555
H48_4 C48_4 1_555 1_555
C39_4 C41_4 1_555 1_555
C42_4 C45_4 1_555 1_555
C44_4 C46_4 1_555 1_555
C47_4 C48_4 1_555 1_555
Yb3_3 Cl1_4 1_555 1_555
Cl3_4 Yb3_3 1_555 1_555
N1_4 Yb3_3 1_555 1_555
N10_2 C5_4 1_555 1_555
C6_4 N10_2 1_555 1_555
H6_4 C6_4 1_555 1_555
C7_4 H7_4 1_555 1_555
C8_4 C7_4 1_555 1_555
C10_4 N1_4 1_555 1_555
H9_4 C10_4 1_555 1_555
C17_4 C18_4 1_555 1_555
C18_4 C5_4 1_555 1_555
H15_4 C18_4 1_555 1_555
C19_4 C8_4 1_555 1_555
H16_4 C19_4 1_555 1_555
H17_4 C19_4 1_555 1_555
C20_4 C6_4 1_555 1_555
H18_4 C20_4 1_555 1_555
C22_4 C17_4 1_555 1_555
H21_4 C22_4 1_555 1_555
H22_4 C22_4 1_555 1_555
C23_4 C8_4 1_555 1_555
H23_4 C23_4 1_555 1_555
C24_4 N1_4 1_555 1_555
H24_4 C24_4 1_555 1_555
Cl4_4 Yb3_4 1_555 1_555
Cl6_4 Yb3_4 1_555 1_555
N7_4 Yb3_4 1_555 1_555
C7_4 C10_4 1_555 1_555
C17_4 C20_4 1_555 1_555
C19_4 C22_4 1_555 1_555
C23_4 C24_4 1_555 1_555
C1_4 N2_4 1_555 1_555
H1_4 C1_4 1_555 1_555
C3_4 N2_4 1_555 1_555
H3_4 C3_4 1_555 1_555
C9_4 C3_4 1_555 1_555
H8_3 C9_4 1_555 1_555
C11_4 C9_4 1_555 1_555
C12_4 C1_4 1_555 1_555
H10_4 C12_4 1_555 1_555
C15_3 C11_4 1_555 1_555
H12_2 C15_3 1_555 1_555
H13_3 C15_3 1_555 1_555
N5_4 C25_4 1_555 1_555
C25_4 H25_4 1_555 1_555
C26_4 N5_4 1_555 1_555
H26_4 C26_4 1_555 1_555
C27_4 C26_4 1_555 1_555
H27_2 C27_4 1_555 1_555
C28_4 C27_4 1_555 1_555
C29_4 C25_4 1_555 1_555
H28_4 C29_4 1_555 1_555
C30_2 C15_3 1_555 1_555
H29_3 C30_2 1_555 1_555
H30_2 C30_2 1_555 1_555
C11_4 C12_4 1_555 1_555
C28_4 C29_4 1_555 1_555
C28_4 C30_2 1_555 1_555
H30_3 C30_3 1_555 1_555
H30_4 C30_4 1_555 1_555
H13_4 C15_4 1_555 1_555

#END
