
###############################################################################
#
# This file contains modified crystal structure data generated from the
# MOF subset of the Cambridge Structural Database (CSD) v543 
# hosted by the Cambridge Crystallographic Data Centre (CCDC).
#
# This work is licensed under the Creative Commons
# Attribution-NonCommercial-ShareAlike 4.0 International License.
# To view a copy of this license, visit
# http://creativecommons.org/licenses/by-nc-sa/4.0/
# or send a letter to
# Creative Commons, PO Box 1866, Mountain View, CA 94042, USA.
#
# CIF created using the CSD Python API on 29 September 2022
# The structure has been converted into the P1 space group
# The structure has a 3D framework
# The original CSD entry VAKNEE is in the monoclinic crystal system
# The framework has been calculated to contain at least 10.0% void space
# The void calculation uses a probe of radius 1.32A, grid spacing 0.4
# H atom positions have been added when not included in the experimental data
# Generated hydrogen atom positions removed from atoms on special positions
#
###############################################################################

data_VAKNEE
_chemical_formula_moiety         '(C248 H224 Cu14 N30 O96 P14)n'
_symmetry_cell_setting           triclinic
_symmetry_space_group_name_H-M   'P 1'
_symmetry_Int_Tables_number      1
_space_group_name_Hall           'P 1'
loop_
_symmetry_equiv_pos_site_id
_symmetry_equiv_pos_as_xyz
1 x,y,z
_cell_length_a                   16.6520(12)
_cell_length_b                   33.684(2)
_cell_length_c                   16.5376(12)
_cell_angle_alpha                90
_cell_angle_beta                 90.4980(10)
_cell_angle_gamma                90
_cell_volume                     9275.69
loop_
_atom_site_label
_atom_site_type_symbol
_atom_site_fract_x
_atom_site_fract_y
_atom_site_fract_z
O6 O 0.02691(11) 0.02920(6) 0.41700(12)
O9 O 0.02162(11) 0.12476(6) 0.40882(12)
O26 O 0.10652(12) 0.07238(6) 0.53529(14)
H43 H 0.0178811 0.0377069 0.360154
H44 H 0.0844153 0.0223529 0.425145
H46 H 0.0777349 0.133989 0.417035
O27 O 0.89348(12) 0.07238(6) 0.96471(14)
P2 P 0.5000 0.05194(3) 0.7500
O1 O 0.43369(10) 0.08393(6) 0.72697(12)
O10 O 0.08195(12) 0.02569(7) 0.62942(14)
C3 C 0.35973(15) 0.07291(8) 0.69238(18)
N4 N 0.52264(12) 0.02741(7) 0.67256(14)
C7 C 0.21025(16) 0.05655(9) 0.62753(19)
C11 C 0.30789(17) 0.04918(9) 0.7348(2)
H2 H 0.3224 0.0388 0.7850
H4 H 0.4041 0.0067 0.5031
C15 C 0.12684(17) 0.05035(9) 0.5954(2)
H6 H 0.2693 0.0025 0.4682
C19 C 0.34051(17) 0.08742(10) 0.61762(19)
H8 H 0.3775 0.1024 0.5889
C21 C 0.23238(17) 0.04102(9) 0.7003(2)
H10 H 0.1968 0.0247 0.7277
C24 C 0.26577(17) 0.07959(10) 0.58534(19)
H13 H 0.2520 0.0898 0.5348
O13 O 0.56631(10) 0.08393(6) 0.77303(12)
O20 O 0.91805(12) 0.02569(7) 0.87058(14)
C34 C 0.64027(15) 0.07291(8) 0.80762(18)
N5 N 0.47736(12) 0.02741(7) 0.82744(14)
C37 C 0.78975(16) 0.05655(9) 0.87247(19)
C39 C 0.69211(17) 0.04918(9) 0.7652(2)
H21 H 0.6776 0.0388 0.7150
H23 H 0.5959 0.0067 0.9969
C43 C 0.87316(17) 0.05035(9) 0.9046(2)
C47 C 0.65949(17) 0.08742(10) 0.88238(19)
H27 H 0.6225 0.1024 0.9111
C48 C 0.76762(17) 0.04102(9) 0.7997(2)
H28 H 0.8032 0.0247 0.7723
C49 C 0.73423(17) 0.07959(10) 0.91466(19)
H29 H 0.7480 0.0898 0.9652
Cu7 Cu 0.00291(2) 0.92655(2) 0.50827(2)
Cu6 Cu 0.7500 0.2500 0.0000
Cu1 Cu 0.2500 0.2500 0.5000
Cu2 Cu 0.99709(2) 0.07345(2) 0.49173(2)
P1 P 0.47134(4) 0.01937(2) 0.32762(4)
O2 O 0.27092(11) 0.20075(5) 0.44249(12)
O3 O 0.38047(10) 0.02921(6) 0.34714(12)
O4 O 0.88762(11) 0.07128(6) 0.44673(13)
N1 N 0.95869(13) 0.10826(7) 0.58338(14)
O7 O 0.51361(10) 0.03728(6) 0.40536(12)
O8 O 0.86739(11) 0.02489(6) 0.54022(13)
N2 N 0.79223(14) 0.22008(7) 0.90306(14)
C1 C 0.26628(16) 0.13650(8) 0.39137(16)
C2 C 0.59712(15) 0.03784(9) 0.41659(17)
N3 N 0.5000 0.04222(9) 0.2500
C4 C 0.34642(16) 0.06641(8) 0.35838(17)
C5 C 0.85718(17) 0.17800(8) 0.77333(17)
C6 C 0.75796(15) 0.04283(8) 0.45630(17)
C8 C 0.90089(18) 0.11366(9) 0.71428(18)
H1 H 0.8845 0.1008 0.7611
C9 C 0.89200(16) 0.15427(9) 0.70743(18)
C10 C 0.22468(17) 0.17378(8) 0.41591(18)
O11 O 0.15004(13) 0.17662(6) 0.40916(18)
C12 C 0.26535(17) 0.06846(9) 0.3468(2)
H3 H 0.2371 0.0464 0.3285
C13 C 0.62847(18) 0.01224(10) 0.47272(19)
C14 C 0.84359(16) 0.04614(8) 0.48261(18)
C16 C 0.72483(18) 0.06721(9) 0.3968(2)
H5 H 0.7575 0.0852 0.3700
C17 C 0.70908(17) 0.01469(10) 0.49326(18)
C18 C 0.22558(17) 0.10338(9) 0.3622(2)
H7 H 0.1705 0.1049 0.3531
C20 C 0.7638(2) 0.18569(10) 0.8817(2)
H9 H 0.7213 0.1752 0.9110
C22 C 0.93401(19) 0.09205(9) 0.65199(19)
H11 H 0.9393 0.0647 0.6584
C23 C 0.7933(2) 0.16387(10) 0.8178(2)
H12 H 0.7701 0.1396 0.8046
C25 C 0.34888(18) 0.13384(10) 0.4011(2)
H14 H 0.3775 0.1560 0.4187
C26 C 0.64434(18) 0.06513(10) 0.3770(2)
H15 H 0.6224 0.0818 0.3378
C27 C 0.8532(2) 0.23538(11) 0.8606(3)
H16 H 0.8741 0.2599 0.8756
C28 C 0.38934(19) 0.09928(10) 0.3852(3)
H17 H 0.4447 0.0979 0.3924
C29 C 0.8863(2) 0.21554(11) 0.7945(3)
H18 H 0.9273 0.2272 0.7649
C30 C 0.9520(3) 0.14774(11) 0.5769(2)
H19 H 0.9701 0.1598 0.5299
C31 C 0.9199(3) 0.17147(10) 0.6358(2)
H20 H 0.9167 0.1988 0.6283
O12 O 0.11232(15) 0.25291(7) 0.44663(17)
P3 P 0.52866(4) 0.01937(2) 0.17238(4)
O14 O 0.72908(11) 0.20075(5) 0.05751(12)
O15 O 0.61953(10) 0.02921(6) 0.15286(12)
O16 O 0.11238(11) 0.07128(6) 0.05327(13)
O18 O 0.48639(10) 0.03728(6) 0.09464(12)
C32 C 0.73372(16) 0.13650(8) 0.10863(16)
C33 C 0.40288(15) 0.03784(9) 0.08341(17)
C35 C 0.65358(16) 0.06641(8) 0.14162(17)
C36 C 0.24204(15) 0.04283(8) 0.04370(17)
C38 C 0.77532(17) 0.17378(8) 0.08409(18)
O21 O 0.84996(13) 0.17662(6) 0.09084(18)
C40 C 0.73465(17) 0.06846(9) 0.1532(2)
H22 H 0.7629 0.0464 0.1715
C41 C 0.37153(18) 0.01224(10) 0.02728(19)
C42 C 0.15641(16) 0.04614(8) 0.01739(18)
C44 C 0.27517(18) 0.06721(9) 0.1032(2)
H24 H 0.2425 0.0852 0.1300
C45 C 0.29092(17) 0.01469(10) 0.00674(18)
C46 C 0.77442(17) 0.10338(9) 0.1378(2)
H26 H 0.8295 0.1049 0.1469
C50 C 0.65112(18) 0.13384(10) 0.0989(2)
H30 H 0.6225 0.1560 0.0813
C51 C 0.35566(18) 0.06513(10) 0.1230(2)
H31 H 0.3776 0.0818 0.1622
C52 C 0.61066(19) 0.09928(10) 0.1148(3)
H32 H 0.5553 0.0979 0.1076
Cu3 Cu 0.00291(2) 0.07345(2) 0.00827(2)
O24 O 0.38768(15) 0.24709(7) 0.55337(17)
Cu6_2 Cu 0.7500 0.2500 1.0000
O25 O 0.22908(11) 0.29925(5) 0.55751(12)
N8 N 0.20777(14) 0.22008(7) 0.59694(14)
N9 N 0.29223(14) 0.27992(7) 0.40306(14)
H45 H 0.983976 0.146791 0.420947
H51 H 0.0160242 0.146791 0.0790532
O19 O 0.13261(11) 0.02489(6) 0.95978(13)
N6 N 0.04131(13) 0.10826(7) 0.91662(14)
C53 C 0.14282(17) 0.17800(8) 0.72667(17)
C54 C 0.09911(18) 0.11366(9) 0.78572(18)
H33 H 0.1155 0.1008 0.7389
C55 C 0.10800(16) 0.15427(9) 0.79257(18)
C56 C 0.2362(2) 0.18569(10) 0.6183(2)
H34 H 0.2787 0.1752 0.5890
C57 C 0.06599(19) 0.09205(9) 0.84801(19)
H35 H 0.0607 0.0647 0.8416
C58 C 0.2067(2) 0.16387(10) 0.6822(2)
H36 H 0.2299 0.1396 0.6954
C59 C 0.1468(2) 0.23538(11) 0.6394(3)
H37 H 0.1259 0.2599 0.6244
C60 C 0.1137(2) 0.21554(11) 0.7055(3)
H38 H 0.0727 0.2272 0.7351
C61 C 0.0480(3) 0.14774(11) 0.9231(2)
H39 H 0.0299 0.1598 0.9701
C62 C 0.0801(3) 0.17147(10) 0.8642(2)
H40 H 0.0833 0.1988 0.8717
Cu8 Cu 0.99709(2) 0.92655(2) 0.99173(2)
O12_2 O 0.88768(15) 0.25291(7) 0.05337(17)
N9_2 N 0.70777(14) 0.27992(7) 0.09694(14)
O24_2 O 0.61232(15) 0.24709(7) 0.94663(17)
O25_2 O 0.77092(11) 0.29925(5) 0.94249(12)
Cu6_3 Cu 0.2500 0.7500 0.0000
Cu2_2 Cu 0.49709(2) 0.57345(2) 0.49173(2)
P2_2 P 0.0000 0.44806(3) 0.2500
O1_2 O 0.06631(10) 0.41607(6) 0.27303(12)
O4_2 O 0.38762(11) 0.57128(6) 0.44673(13)
O5 O 0.39348(12) 0.42762(6) 0.46471(14)
O6_2 O 0.52691(11) 0.52920(6) 0.41700(12)
N1_2 N 0.45869(13) 0.60826(7) 0.58338(14)
O7_2 O 0.01361(10) 0.53728(6) 0.40536(12)
O8_2 O 0.36739(11) 0.52489(6) 0.54022(13)
O9_2 O 0.52162(11) 0.62476(6) 0.40882(12)
O10_2 O 0.41805(12) 0.47431(7) 0.37058(14)
N2_2 N 0.29223(14) 0.72008(7) 0.90306(14)
C2_2 C 0.09712(15) 0.53784(9) 0.41659(17)
C3_2 C 0.14027(15) 0.42709(8) 0.30762(18)
N3_2 N 0.0000 0.54222(9) 0.2500
C5_2 C 0.35718(17) 0.67800(8) 0.77333(17)
C6_2 C 0.25796(15) 0.54283(8) 0.45630(17)
C7_2 C 0.28975(16) 0.44345(9) 0.37247(19)
C8_2 C 0.40089(18) 0.61366(9) 0.71428(18)
H1_2 H 0.3845 0.6008 0.7611
C9_2 C 0.39200(16) 0.65427(9) 0.70743(18)
C11_2 C 0.19211(17) 0.45082(9) 0.2652(2)
H2_2 H 0.1776 0.4612 0.2150
C13_2 C 0.12847(18) 0.51224(10) 0.47272(19)
H4_2 H 0.0959 0.4933 0.4969
C14_2 C 0.34359(16) 0.54614(8) 0.48261(18)
C15_2 C 0.37316(17) 0.44965(9) 0.4046(2)
C16_2 C 0.22483(18) 0.56721(9) 0.3968(2)
H5_2 H 0.2575 0.5852 0.3700
C17_2 C 0.20908(17) 0.51469(10) 0.49326(18)
H6_2 H 0.2307 0.4975 0.5318
C19_2 C 0.15949(17) 0.41258(10) 0.38238(19)
H8_2 H 0.1225 0.3976 0.4111
C20_2 C 0.2638(2) 0.68569(10) 0.8817(2)
H9_2 H 0.2213 0.6752 0.9110
C21_2 C 0.26762(17) 0.45898(9) 0.2997(2)
H10_2 H 0.3032 0.4753 0.2723
C22_2 C 0.43401(19) 0.59205(9) 0.65199(19)
H11_2 H 0.4393 0.5647 0.6584
C23_2 C 0.2933(2) 0.66387(10) 0.8178(2)
H12_2 H 0.2701 0.6396 0.8046
C24_2 C 0.23423(17) 0.42041(10) 0.41466(19)
H13_2 H 0.2480 0.4102 0.4652
C26_2 C 0.14434(18) 0.56513(10) 0.3770(2)
H15_2 H 0.1224 0.5818 0.3378
C27_2 C 0.3532(2) 0.73538(11) 0.8606(3)
H16_2 H 0.3741 0.7599 0.8756
C29_2 C 0.3863(2) 0.71554(11) 0.7945(3)
H18_2 H 0.4273 0.7272 0.7649
C30_2 C 0.4520(3) 0.64774(11) 0.5769(2)
H19_2 H 0.4701 0.6598 0.5299
C31_2 C 0.4199(3) 0.67147(10) 0.6358(2)
H20_2 H 0.4167 0.6988 0.6283
P3_2 P 0.02866(4) 0.51937(2) 0.17238(4)
O14_2 O 0.22908(11) 0.70075(5) 0.05751(12)
O15_2 O 0.11953(10) 0.52921(6) 0.15286(12)
C32_2 C 0.23372(16) 0.63650(8) 0.10863(16)
C35_2 C 0.15358(16) 0.56641(8) 0.14162(17)
N5_2 N 0.02264(12) 0.47259(7) 0.17256(14)
C38_2 C 0.27532(17) 0.67378(8) 0.08409(18)
O21_2 O 0.34996(13) 0.67662(6) 0.09084(18)
C40_2 C 0.23465(17) 0.56846(9) 0.1532(2)
H22_2 H 0.2629 0.5464 0.1715
C46_2 C 0.27442(17) 0.60338(9) 0.1378(2)
H26_2 H 0.3295 0.6049 0.1469
C50_2 C 0.15112(18) 0.63384(10) 0.0989(2)
H30_2 H 0.1225 0.6560 0.0813
C52_2 C 0.11066(19) 0.59928(10) 0.1148(3)
H32_2 H 0.0553 0.5979 0.1076
Cu6_4 Cu 0.2500 0.7500 1.0000
Cu7_2 Cu 0.50291(2) 0.42655(2) 0.50827(2)
O26_2 O 0.60652(12) 0.57238(6) 0.53529(14)
H43_2 H 0.517881 0.537707 0.360154
H44_2 H 0.584415 0.522353 0.425145
H45_2 H 0.483976 0.646791 0.420947
H46_2 H 0.577735 0.633989 0.417035
Cu1_2 Cu 0.7500 0.7500 0.5000
P1_2 P 0.97134(4) 0.51937(2) 0.32762(4)
P2_3 P 1.0000 0.44806(3) 0.2500
O2_2 O 0.77092(11) 0.70075(5) 0.44249(12)
O3_2 O 0.88047(10) 0.52921(6) 0.34714(12)
C1_2 C 0.76628(16) 0.63650(8) 0.39137(16)
N3_3 N 1.0000 0.54222(9) 0.2500
C4_2 C 0.84642(16) 0.56641(8) 0.35838(17)
N4_2 N 0.97736(12) 0.47259(7) 0.32744(14)
C10_2 C 0.72468(17) 0.67378(8) 0.41591(18)
O11_2 O 0.65004(13) 0.67662(6) 0.40916(18)
C12_2 C 0.76535(17) 0.56846(9) 0.3468(2)
H3_2 H 0.7371 0.5464 0.3285
C18_2 C 0.72558(17) 0.60338(9) 0.3622(2)
H7_2 H 0.6705 0.6049 0.3531
C25_2 C 0.84888(18) 0.63384(10) 0.4011(2)
H14_2 H 0.8775 0.6560 0.4187
C28_2 C 0.88934(19) 0.59928(10) 0.3852(3)
H17_2 H 0.9447 0.5979 0.3924
O12_3 O 0.61232(15) 0.75291(7) 0.44663(17)
O13_2 O 0.93369(10) 0.41607(6) 0.22697(12)
O16_2 O 0.61238(11) 0.57128(6) 0.05327(13)
O17 O 0.60652(12) 0.42762(6) 0.03529(14)
O18_2 O 0.98639(10) 0.53728(6) 0.09464(12)
O20_2 O 0.58195(12) 0.47431(7) 0.12942(14)
C33_2 C 0.90288(15) 0.53784(9) 0.08341(17)
C34_2 C 0.85973(15) 0.42709(8) 0.19238(18)
C36_2 C 0.74204(15) 0.54283(8) 0.04370(17)
C37_2 C 0.71025(16) 0.44345(9) 0.12753(19)
C39_2 C 0.80789(17) 0.45082(9) 0.2348(2)
H21_2 H 0.8224 0.4612 0.2850
C41_2 C 0.87153(18) 0.51224(10) 0.02728(19)
H23_2 H 0.9041 0.4933 0.0031
C42_2 C 0.65641(16) 0.54614(8) 0.01739(18)
C43_2 C 0.62684(17) 0.44965(9) 0.0954(2)
C44_2 C 0.77517(18) 0.56721(9) 0.1032(2)
H24_2 H 0.7425 0.5852 0.1300
C45_2 C 0.79092(17) 0.51469(10) 0.00674(18)
C47_2 C 0.84051(17) 0.41258(10) 0.11762(19)
H27_2 H 0.8775 0.3976 0.0889
C48_2 C 0.73238(17) 0.45898(9) 0.2003(2)
H28_2 H 0.6968 0.4753 0.2277
C49_2 C 0.76577(17) 0.42041(10) 0.08534(19)
H29_2 H 0.7520 0.4102 0.0348
C51_2 C 0.85566(18) 0.56513(10) 0.1230(2)
H31_2 H 0.8776 0.5818 0.1622
Cu3_2 Cu 0.50291(2) 0.57345(2) 0.00827(2)
O22 O 0.47309(11) 0.52920(6) 0.08300(12)
O23 O 0.47838(11) 0.62476(6) 0.09118(12)
O24_3 O 0.88768(15) 0.74709(7) 0.55337(17)
O25_3 O 0.72908(11) 0.79925(5) 0.55751(12)
N8_2 N 0.70777(14) 0.72008(7) 0.59694(14)
N9_3 N 0.79223(14) 0.77992(7) 0.40306(14)
H49 H 0.482119 0.537707 0.139846
H50 H 0.415585 0.522353 0.0748555
H51_2 H 0.516024 0.646791 0.0790532
H52 H 0.422265 0.633989 0.0829648
O19_2 O 0.63261(11) 0.52489(6) 0.95978(13)
H25 H 0.7693 0.4975 0.9682
N6_2 N 0.54131(13) 0.60826(7) 0.91662(14)
C53_2 C 0.64282(17) 0.67800(8) 0.72667(17)
C54_2 C 0.59911(18) 0.61366(9) 0.78572(18)
H33_2 H 0.6155 0.6008 0.7389
C55_2 C 0.60800(16) 0.65427(9) 0.79257(18)
C56_2 C 0.7362(2) 0.68569(10) 0.6183(2)
H34_2 H 0.7787 0.6752 0.5890
C57_2 C 0.56599(19) 0.59205(9) 0.84801(19)
H35_2 H 0.5607 0.5647 0.8416
C58_2 C 0.7067(2) 0.66387(10) 0.6822(2)
H36_2 H 0.7299 0.6396 0.6954
C59_2 C 0.6468(2) 0.73538(11) 0.6394(3)
H37_2 H 0.6259 0.7599 0.6244
C60_2 C 0.6137(2) 0.71554(11) 0.7055(3)
H38_2 H 0.5727 0.7272 0.7351
C61_2 C 0.5480(3) 0.64774(11) 0.9231(2)
H39_2 H 0.5299 0.6598 0.9701
C62_2 C 0.5801(3) 0.67147(10) 0.8642(2)
H40_2 H 0.5833 0.6988 0.8717
Cu8_2 Cu 0.49709(2) 0.42655(2) 0.99173(2)
O27_2 O 0.39348(12) 0.57238(6) 0.96471(14)
O12_4 O 0.38768(15) 0.75291(7) 0.05337(17)
N9_4 N 0.20777(14) 0.77992(7) 0.09694(14)
O24_4 O 0.11232(15) 0.74709(7) 0.94663(17)
O25_4 O 0.27092(11) 0.79925(5) 0.94249(12)
O19_3 O 0.86739(11) 0.97511(6) 0.04022(13)
N6_3 N 0.95869(13) 0.89174(7) 0.08338(14)
C53_3 C 0.85718(17) 0.82200(8) 0.27333(17)
C54_3 C 0.90089(18) 0.88634(9) 0.21428(18)
H33_3 H 0.8845 0.8992 0.2611
C55_3 C 0.89200(16) 0.84573(9) 0.20743(18)
C56_3 C 0.7638(2) 0.81431(10) 0.3817(2)
H34_3 H 0.7213 0.8248 0.4110
C57_3 C 0.93401(19) 0.90795(9) 0.15199(19)
H35_3 H 0.9393 0.9353 0.1584
C58_3 C 0.7933(2) 0.83613(10) 0.3178(2)
H36_3 H 0.7701 0.8604 0.3046
C59_3 C 0.8532(2) 0.76462(11) 0.3606(3)
H37_3 H 0.8741 0.7401 0.3756
C60_3 C 0.8863(2) 0.78446(11) 0.2945(3)
H38_3 H 0.9273 0.7728 0.2649
C61_3 C 0.9520(3) 0.85226(11) 0.0769(2)
H39_3 H 0.9701 0.8402 0.0299
C62_3 C 0.9199(3) 0.82853(10) 0.1358(2)
H40_3 H 0.9167 0.8012 0.1283
P1_3 P 0.52866(4) 0.98063(2) 0.67238(4)
O3_3 O 0.61953(10) 0.97079(6) 0.65286(12)
O4_3 O 0.11238(11) 0.92872(6) 0.55327(13)
N1_3 N 0.04131(13) 0.89174(7) 0.41662(14)
O7_3 O 0.48639(10) 0.96272(6) 0.59464(12)
O8_3 O 0.13261(11) 0.97511(6) 0.45978(13)
C1_3 C 0.73372(16) 0.86350(8) 0.60863(16)
C2_3 C 0.40288(15) 0.96216(9) 0.58341(17)
N3_4 N 0.5000 0.95778(9) 0.7500
C4_3 C 0.65358(16) 0.93359(8) 0.64162(17)
C5_3 C 0.14282(17) 0.82200(8) 0.22667(17)
C6_3 C 0.24204(15) 0.95717(8) 0.54370(17)
C8_3 C 0.09911(18) 0.88634(9) 0.28572(18)
H1_3 H 0.1155 0.8992 0.2389
C9_3 C 0.10800(16) 0.84573(9) 0.29257(18)
C10_3 C 0.77532(17) 0.82622(8) 0.58409(18)
O11_3 O 0.84996(13) 0.82338(6) 0.59084(18)
C12_3 C 0.73465(17) 0.93154(9) 0.6532(2)
H3_3 H 0.7629 0.9536 0.6715
C13_3 C 0.37153(18) 0.98776(10) 0.52728(19)
C14_3 C 0.15641(16) 0.95386(8) 0.51739(18)
C16_3 C 0.27517(18) 0.93279(9) 0.6032(2)
H5_3 H 0.2425 0.9148 0.6300
C17_3 C 0.29092(17) 0.98531(10) 0.50674(18)
C18_3 C 0.77442(17) 0.89662(9) 0.6378(2)
H7_3 H 0.8295 0.8951 0.6469
C20_3 C 0.2362(2) 0.81431(10) 0.1183(2)
H9_3 H 0.2787 0.8248 0.0890
C22_3 C 0.06599(19) 0.90795(9) 0.34801(19)
H11_3 H 0.0607 0.9353 0.3416
C23_3 C 0.2067(2) 0.83613(10) 0.1822(2)
H12_3 H 0.2299 0.8604 0.1954
C25_3 C 0.65112(18) 0.86616(10) 0.5989(2)
H14_3 H 0.6225 0.8440 0.5813
C26_3 C 0.35566(18) 0.93487(10) 0.6230(2)
H15_3 H 0.3776 0.9182 0.6622
C27_3 C 0.1468(2) 0.76462(11) 0.1394(3)
H16_3 H 0.1259 0.7401 0.1244
C28_3 C 0.61066(19) 0.90072(10) 0.6148(3)
H17_3 H 0.5553 0.9021 0.6076
C29_3 C 0.1137(2) 0.78446(11) 0.2055(3)
H18_3 H 0.0727 0.7728 0.2351
C30_3 C 0.0480(3) 0.85226(11) 0.4231(2)
H19_3 H 0.0299 0.8402 0.4701
C31_3 C 0.0801(3) 0.82853(10) 0.3642(2)
H20_3 H 0.0833 0.8012 0.3717
P3_3 P 0.47134(4) 0.98063(2) 0.82762(4)
O15_3 O 0.38047(10) 0.97079(6) 0.84714(12)
O16_3 O 0.88762(11) 0.92872(6) 0.94673(13)
O18_3 O 0.51361(10) 0.96272(6) 0.90536(12)
C32_3 C 0.26628(16) 0.86350(8) 0.89137(16)
C33_3 C 0.59712(15) 0.96216(9) 0.91659(17)
C35_3 C 0.34642(16) 0.93359(8) 0.85838(17)
C36_3 C 0.75796(15) 0.95717(8) 0.95630(17)
C38_3 C 0.22468(17) 0.82622(8) 0.91591(18)
O21_3 O 0.15004(13) 0.82338(6) 0.90916(18)
C40_3 C 0.26535(17) 0.93154(9) 0.8468(2)
H22_3 H 0.2371 0.9536 0.8285
C41_3 C 0.62847(18) 0.98776(10) 0.97272(19)
C42_3 C 0.84359(16) 0.95386(8) 0.98261(18)
C44_3 C 0.72483(18) 0.93279(9) 0.8968(2)
H24_3 H 0.7575 0.9148 0.8700
C45_3 C 0.70908(17) 0.98531(10) 0.99326(18)
C46_3 C 0.22558(17) 0.89662(9) 0.8622(2)
H26_3 H 0.1705 0.8951 0.8531
C50_3 C 0.34888(18) 0.86616(10) 0.9011(2)
H30_3 H 0.3775 0.8440 0.9187
C51_3 C 0.64434(18) 0.93487(10) 0.8770(2)
H31_3 H 0.6224 0.9182 0.8378
C52_3 C 0.38934(19) 0.90072(10) 0.8852(3)
H32_3 H 0.4447 0.9021 0.8924
H45_3 H 0.0160242 0.853209 0.579053
H51_3 H 0.983976 0.853209 0.920947
O19_4 O 0.36739(11) 0.47511(6) 0.04022(13)
H25_2 H 0.2307 0.5025 0.0318
N6_4 N 0.45869(13) 0.39174(7) 0.08338(14)
C53_4 C 0.35718(17) 0.32200(8) 0.27333(17)
C54_4 C 0.40089(18) 0.38634(9) 0.21428(18)
H33_4 H 0.3845 0.3992 0.2611
C55_4 C 0.39200(16) 0.34573(9) 0.20743(18)
C56_4 C 0.2638(2) 0.31431(10) 0.3817(2)
H34_4 H 0.2213 0.3248 0.4110
C57_4 C 0.43401(19) 0.40795(9) 0.15199(19)
H35_4 H 0.4393 0.4353 0.1584
C58_4 C 0.2933(2) 0.33613(10) 0.3178(2)
H36_4 H 0.2701 0.3604 0.3046
C59_4 C 0.3532(2) 0.26462(11) 0.3606(3)
H37_4 H 0.3741 0.2401 0.3756
C60_4 C 0.3863(2) 0.28446(11) 0.2945(3)
H38_4 H 0.4273 0.2728 0.2649
C61_4 C 0.4520(3) 0.35226(11) 0.0769(2)
H39_4 H 0.4701 0.3402 0.0299
C62_4 C 0.4199(3) 0.32853(10) 0.1358(2)
H40_4 H 0.4167 0.3012 0.1283
P1_4 P 0.02866(4) 0.48063(2) 0.67238(4)
P2_4 P -0.0000 0.55194(3) 0.7500
O3_4 O 0.11953(10) 0.47079(6) 0.65286(12)
C1_4 C 0.23372(16) 0.36350(8) 0.60863(16)
N3_5 N 0.0000 0.45778(9) 0.7500
C4_4 C 0.15358(16) 0.43359(8) 0.64162(17)
N4_3 N 0.02264(12) 0.52741(7) 0.67256(14)
C10_4 C 0.27532(17) 0.32622(8) 0.58409(18)
O11_4 O 0.34996(13) 0.32338(6) 0.59084(18)
C12_4 C 0.23465(17) 0.43154(9) 0.6532(2)
H3_4 H 0.2629 0.4536 0.6715
C18_4 C 0.27442(17) 0.39662(9) 0.6378(2)
H7_4 H 0.3295 0.3951 0.6469
C25_4 C 0.15112(18) 0.36616(10) 0.5989(2)
H14_4 H 0.1225 0.3440 0.5813
C28_4 C 0.11066(19) 0.40072(10) 0.6148(3)
H17_4 H 0.0553 0.4021 0.6076
O13_3 O 0.06631(10) 0.58393(6) 0.77303(12)
O16_4 O 0.38762(11) 0.42872(6) 0.94673(13)
O18_4 O 0.01361(10) 0.46272(6) 0.90536(12)
O20_3 O 0.41805(12) 0.52569(7) 0.87058(14)
C33_4 C 0.09712(15) 0.46216(9) 0.91659(17)
C34_3 C 0.14027(15) 0.57291(8) 0.80762(18)
C36_4 C 0.25796(15) 0.45717(8) 0.95630(17)
C37_3 C 0.28975(16) 0.55655(9) 0.87247(19)
C39_3 C 0.19211(17) 0.54918(9) 0.7652(2)
H21_3 H 0.1776 0.5388 0.7150
C41_4 C 0.12847(18) 0.48776(10) 0.97272(19)
H23_3 H 0.0959 0.5067 0.9969
C42_4 C 0.34359(16) 0.45386(8) 0.98261(18)
C43_3 C 0.37316(17) 0.55035(9) 0.9046(2)
C44_4 C 0.22483(18) 0.43279(9) 0.8968(2)
H24_4 H 0.2575 0.4148 0.8700
C45_4 C 0.20908(17) 0.48531(10) 0.99326(18)
C47_3 C 0.15949(17) 0.58742(10) 0.88238(19)
H27_3 H 0.1225 0.6024 0.9111
C48_3 C 0.26762(17) 0.54102(9) 0.7997(2)
H28_3 H 0.3032 0.5247 0.7723
C49_3 C 0.23423(17) 0.57959(10) 0.91466(19)
H29_3 H 0.2480 0.5898 0.9652
C51_4 C 0.14434(18) 0.43487(10) 0.8770(2)
H31_4 H 0.1224 0.4182 0.8378
O22_2 O 0.52691(11) 0.47080(6) 0.91700(12)
O23_2 O 0.52162(11) 0.37524(6) 0.90882(12)
H49_2 H 0.517881 0.462293 0.860154
H50_2 H 0.584415 0.477647 0.925145
H51_4 H 0.483976 0.353209 0.920947
H52_2 H 0.577735 0.366011 0.917035
P2_5 P 1.0000 0.55194(3) 0.7500
O1_3 O 0.93369(10) 0.58393(6) 0.72697(12)
O4_4 O 0.61238(11) 0.42872(6) 0.55327(13)
O6_3 O 0.47309(11) 0.47080(6) 0.58300(12)
N1_4 N 0.54131(13) 0.39174(7) 0.41662(14)
O7_4 O 0.98639(10) 0.46272(6) 0.59464(12)
O8_4 O 0.63261(11) 0.47511(6) 0.45978(13)
O9_3 O 0.47838(11) 0.37524(6) 0.59118(12)
O10_3 O 0.58195(12) 0.52569(7) 0.62942(14)
C2_4 C 0.90288(15) 0.46216(9) 0.58341(17)
C3_3 C 0.85973(15) 0.57291(8) 0.69238(18)
N3_6 N 1.0000 0.45778(9) 0.7500
C5_4 C 0.64282(17) 0.32200(8) 0.22667(17)
C6_4 C 0.74204(15) 0.45717(8) 0.54370(17)
C7_3 C 0.71025(16) 0.55655(9) 0.62753(19)
C8_4 C 0.59911(18) 0.38634(9) 0.28572(18)
H1_4 H 0.6155 0.3992 0.2389
C9_4 C 0.60800(16) 0.34573(9) 0.29257(18)
C11_3 C 0.80789(17) 0.54918(9) 0.7348(2)
H2_3 H 0.8224 0.5388 0.7850
C13_4 C 0.87153(18) 0.48776(10) 0.52728(19)
H4_3 H 0.9041 0.5067 0.5031
C14_4 C 0.65641(16) 0.45386(8) 0.51739(18)
C15_3 C 0.62684(17) 0.55035(9) 0.5954(2)
C16_4 C 0.77517(18) 0.43279(9) 0.6032(2)
H5_4 H 0.7425 0.4148 0.6300
C17_4 C 0.79092(17) 0.48531(10) 0.50674(18)
H6_3 H 0.7693 0.5025 0.4682
C19_3 C 0.84051(17) 0.58742(10) 0.61762(19)
H8_3 H 0.8775 0.6024 0.5889
C20_4 C 0.7362(2) 0.31431(10) 0.1183(2)
H9_4 H 0.7787 0.3248 0.0890
C21_3 C 0.73238(17) 0.54102(9) 0.7003(2)
H10_3 H 0.6968 0.5247 0.7277
C22_4 C 0.56599(19) 0.40795(9) 0.34801(19)
H11_4 H 0.5607 0.4353 0.3416
C23_4 C 0.7067(2) 0.33613(10) 0.1822(2)
H12_4 H 0.7299 0.3604 0.1954
C24_3 C 0.76577(17) 0.57959(10) 0.58534(19)
H13_3 H 0.7520 0.5898 0.5348
C26_4 C 0.85566(18) 0.43487(10) 0.6230(2)
H15_4 H 0.8776 0.4182 0.6622
C27_4 C 0.6468(2) 0.26462(11) 0.1394(3)
H16_4 H 0.6259 0.2401 0.1244
C29_4 C 0.6137(2) 0.28446(11) 0.2055(3)
H18_4 H 0.5727 0.2728 0.2351
C30_4 C 0.5480(3) 0.35226(11) 0.4231(2)
H19_4 H 0.5299 0.3402 0.4701
C31_4 C 0.5801(3) 0.32853(10) 0.3642(2)
H20_4 H 0.5833 0.3012 0.3717
P3_4 P 0.97134(4) 0.48063(2) 0.82762(4)
O15_4 O 0.88047(10) 0.47079(6) 0.84714(12)
C32_4 C 0.76628(16) 0.36350(8) 0.89137(16)
C35_4 C 0.84642(16) 0.43359(8) 0.85838(17)
N5_3 N 0.97736(12) 0.52741(7) 0.82744(14)
C38_4 C 0.72468(17) 0.32622(8) 0.91591(18)
O21_4 O 0.65004(13) 0.32338(6) 0.90916(18)
C40_4 C 0.76535(17) 0.43154(9) 0.8468(2)
H22_4 H 0.7371 0.4536 0.8285
C46_4 C 0.72558(17) 0.39662(9) 0.8622(2)
H26_4 H 0.6705 0.3951 0.8531
C50_4 C 0.84888(18) 0.36616(10) 0.9011(2)
H30_4 H 0.8775 0.3440 0.9187
C52_4 C 0.88934(19) 0.40072(10) 0.8852(3)
H32_4 H 0.9447 0.4021 0.8924
H43_3 H 0.482119 0.462293 0.639846
H44_3 H 0.415585 0.477647 0.574855
H45_4 H 0.516024 0.353209 0.579053
H46_3 H 0.422265 0.366011 0.582965
P2_6 P 0.5000 0.94806(3) 0.2500
O1_4 O 0.56631(10) 0.91607(6) 0.27303(12)
O5_2 O 0.89348(12) 0.92762(6) 0.46471(14)
O10_4 O 0.91805(12) 0.97431(7) 0.37058(14)
C3_4 C 0.64027(15) 0.92709(8) 0.30762(18)
N4_4 N 0.47736(12) 0.97259(7) 0.32744(14)
C7_4 C 0.78975(16) 0.94345(9) 0.37247(19)
C11_4 C 0.69211(17) 0.95082(9) 0.2652(2)
H2_4 H 0.6776 0.9612 0.2150
H4_4 H 0.5959 0.9933 0.4969
C15_4 C 0.87316(17) 0.94965(9) 0.4046(2)
H6_4 H 0.7307 0.9975 0.5318
C19_4 C 0.65949(17) 0.91258(10) 0.38238(19)
H8_4 H 0.6225 0.8976 0.4111
C21_4 C 0.76762(17) 0.95898(9) 0.2997(2)
H10_4 H 0.8032 0.9753 0.2723
C24_4 C 0.73423(17) 0.92041(10) 0.41466(19)
H13_4 H 0.7480 0.9102 0.4652
O13_4 O 0.43369(10) 0.91607(6) 0.22697(12)
O17_2 O 0.10652(12) 0.92762(6) 0.03529(14)
O20_4 O 0.08195(12) 0.97431(7) 0.12942(14)
C34_4 C 0.35973(15) 0.92709(8) 0.19238(18)
N5_4 N 0.52264(12) 0.97259(7) 0.17256(14)
C37_4 C 0.21025(16) 0.94345(9) 0.12753(19)
C39_4 C 0.30789(17) 0.95082(9) 0.2348(2)
H21_4 H 0.3224 0.9612 0.2850
H23_4 H 0.4041 0.9933 0.0031
C43_4 C 0.12684(17) 0.94965(9) 0.0954(2)
C47_4 C 0.34051(17) 0.91258(10) 0.11762(19)
H27_4 H 0.3775 0.8976 0.0889
C48_4 C 0.23238(17) 0.95898(9) 0.2003(2)
H28_4 H 0.1968 0.9753 0.2277
C49_4 C 0.26577(17) 0.92041(10) 0.08534(19)
H29_4 H 0.2520 0.9102 0.0348
O6_4 O 0.97309(11) 0.97080(6) 0.58300(12)
O9_4 O 0.97838(11) 0.87524(6) 0.59118(12)
H43_4 H 0.982119 0.962293 0.639846
H44_4 H 0.915585 0.977647 0.574855
H46_4 H 0.922265 0.866011 0.582965
H25_3 H 0.2693 0.9975 0.9682
O22_3 O 0.97309(11) 0.02920(6) 0.08300(12)
O23_3 O 0.97838(11) 0.12476(6) 0.09118(12)
H49_3 H 0.982119 0.0377069 0.139846
H50_3 H 0.915585 0.0223529 0.0748555
H52_3 H 0.922265 0.133989 0.0829648
O22_4 O 0.02691(11) 0.97080(6) 0.91700(12)
O23_4 O 0.02162(11) 0.87524(6) 0.90882(12)
H49_4 H 0.0178811 0.962293 0.860154
H50_4 H 0.0844153 0.977647 0.925145
H52_4 H 0.0777349 0.866011 0.917035
H25_4 H 0.7307 0.0025 0.0318
loop_
_geom_bond_atom_site_label_1
_geom_bond_atom_site_label_2
_geom_bond_site_symmetry_1
_geom_bond_site_symmetry_2
O6 H43 1_555 1_555
O6 H44 1_555 1_555
O9 H46 1_555 1_555
P2 O1 1_555 1_555
O1 C3 1_555 1_555
O26 C15 1_555 1_555
O10 C15 1_555 1_555
C3 C11 1_555 1_555
C7 C15 1_555 1_555
C11 H2 1_555 1_555
C19 C3 1_555 1_555
H8 C19 1_555 1_555
C21 C7 1_555 1_555
H10 C21 1_555 1_555
C24 C7 1_555 1_555
H13 C24 1_555 1_555
O13 P2 1_555 1_555
O27 C43 1_555 1_555
O20 C43 1_555 1_555
C34 O13 1_555 1_555
N5 P2 1_555 1_555
C37 C43 1_555 1_555
C39 C34 1_555 1_555
H21 C39 1_555 1_555
C47 C34 1_555 1_555
H27 C47 1_555 1_555
C48 C37 1_555 1_555
H28 C48 1_555 1_555
C49 C37 1_555 1_555
H29 C49 1_555 1_555
P2 N4 1_555 1_555
C11 C21 1_555 1_555
C19 C24 1_555 1_555
C39 C48 1_555 1_555
C47 C49 1_555 1_555
Cu1 O2 1_555 1_555
Cu2 O4 1_555 1_555
P1 O3 1_555 1_555
O2 C10 1_555 1_555
O3 C4 1_555 1_555
O4 C14 1_555 1_555
N1 Cu2 1_555 1_555
O7 P1 1_555 1_555
O8 C14 1_555 1_555
N2 C20 1_555 1_555
C1 C10 1_555 1_555
C2 O7 1_555 1_555
N3 P1 1_555 1_555
C4 C12 1_555 1_555
C5 C9 1_555 1_555
C6 C14 1_555 1_555
C8 H1 1_555 1_555
C9 C8 1_555 1_555
C10 O11 1_555 1_555
C12 H3 1_555 1_555
C13 C2 1_555 1_555
C16 C6 1_555 1_555
H5 C16 1_555 1_555
C17 C6 1_555 1_555
C18 C1 1_555 1_555
H7 C18 1_555 1_555
C20 H9 1_555 1_555
C22 N1 1_555 1_555
H11 C22 1_555 1_555
C23 C5 1_555 1_555
H12 C23 1_555 1_555
C25 C1 1_555 1_555
H14 C25 1_555 1_555
C26 C2 1_555 1_555
H15 C26 1_555 1_555
C27 N2 1_555 1_555
H16 C27 1_555 1_555
C28 C4 1_555 1_555
H17 C28 1_555 1_555
C29 C5 1_555 1_555
H18 C29 1_555 1_555
C30 N1 1_555 1_555
H19 C30 1_555 1_555
C31 C9 1_555 1_555
H20 C31 1_555 1_555
O12 Cu1 1_555 1_555
P3 N3 1_555 1_555
O14 C38 1_555 1_555
O15 P3 1_555 1_555
O16 C42 1_555 1_555
O18 P3 1_555 1_555
C32 C38 1_555 1_555
C33 O18 1_555 1_555
C35 O15 1_555 1_555
C36 C42 1_555 1_555
C38 O21 1_555 1_555
C40 C35 1_555 1_555
H22 C40 1_555 1_555
C41 C33 1_555 1_555
C44 C36 1_555 1_555
H24 C44 1_555 1_555
C45 C36 1_555 1_555
C46 C32 1_555 1_555
H26 C46 1_555 1_555
C50 C32 1_555 1_555
H30 C50 1_555 1_555
C51 C33 1_555 1_555
H31 C51 1_555 1_555
C52 C35 1_555 1_555
H32 C52 1_555 1_555
Cu3 O16 1_555 1_555
O24 Cu1 1_555 1_555
Cu6 O14 1_555 1_555
Cu6_2 N2 1_555 1_555
O25 Cu1 1_555 1_555
N8 Cu1 1_555 1_555
N9 Cu1 1_555 1_555
C8 C22 1_555 1_555
C12 C18 1_555 1_555
C13 C17 1_555 1_555
C16 C26 1_555 1_555
C20 C23 1_555 1_555
C25 C28 1_555 1_555
C27 C29 1_555 1_555
C30 C31 1_555 1_555
C40 C46 1_555 1_555
C41 C45 1_555 1_555
C44 C51 1_555 1_555
C50 C52 1_555 1_555
N8 C56 1_555 1_555
C53 C55 1_555 1_555
C54 H33 1_555 1_555
C55 C54 1_555 1_555
C56 H34 1_555 1_555
C57 N6 1_555 1_555
H35 C57 1_555 1_555
C58 C53 1_555 1_555
H36 C58 1_555 1_555
C59 N8 1_555 1_555
H37 C59 1_555 1_555
C60 C53 1_555 1_555
H38 C60 1_555 1_555
C61 N6 1_555 1_555
H39 C61 1_555 1_555
C62 C55 1_555 1_555
H40 C62 1_555 1_555
C54 C57 1_555 1_555
C56 C58 1_555 1_555
C59 C60 1_555 1_555
C61 C62 1_555 1_555
O12_2 Cu6 1_555 1_555
N9_2 Cu6 1_555 1_555
O24_2 Cu6_2 1_555 1_555
O25_2 Cu6_2 1_555 1_555
Cu2_2 O4_2 1_555 1_555
P2_2 O1_2 1_555 1_555
O1_2 C3_2 1_555 1_555
O4_2 C14_2 1_555 1_555
O5 C15_2 1_555 1_555
O6_2 Cu2_2 1_555 1_555
N1_2 Cu2_2 1_555 1_555
O8_2 C14_2 1_555 1_555
O9_2 Cu2_2 1_555 1_555
O10_2 C15_2 1_555 1_555
N2_2 C20_2 1_555 1_555
C2_2 O7_2 1_555 1_555
C3_2 C11_2 1_555 1_555
C5_2 C9_2 1_555 1_555
C6_2 C14_2 1_555 1_555
C7_2 C15_2 1_555 1_555
C8_2 H1_2 1_555 1_555
C9_2 C8_2 1_555 1_555
C11_2 H2_2 1_555 1_555
C13_2 C2_2 1_555 1_555
H4_2 C13_2 1_555 1_555
C16_2 C6_2 1_555 1_555
H5_2 C16_2 1_555 1_555
C17_2 C6_2 1_555 1_555
H6_2 C17_2 1_555 1_555
C19_2 C3_2 1_555 1_555
H8_2 C19_2 1_555 1_555
C20_2 H9_2 1_555 1_555
C21_2 C7_2 1_555 1_555
H10_2 C21_2 1_555 1_555
C22_2 N1_2 1_555 1_555
H11_2 C22_2 1_555 1_555
C23_2 C5_2 1_555 1_555
H12_2 C23_2 1_555 1_555
C24_2 C7_2 1_555 1_555
H13_2 C24_2 1_555 1_555
C26_2 C2_2 1_555 1_555
H15_2 C26_2 1_555 1_555
C27_2 N2_2 1_555 1_555
H16_2 C27_2 1_555 1_555
C29_2 C5_2 1_555 1_555
H18_2 C29_2 1_555 1_555
C30_2 N1_2 1_555 1_555
H19_2 C30_2 1_555 1_555
C31_2 C9_2 1_555 1_555
H20_2 C31_2 1_555 1_555
P3_2 N3_2 1_555 1_555
O14_2 C38_2 1_555 1_555
O15_2 P3_2 1_555 1_555
C32_2 C38_2 1_555 1_555
C35_2 O15_2 1_555 1_555
N5_2 P2_2 1_555 1_555
C38_2 O21_2 1_555 1_555
C40_2 C35_2 1_555 1_555
H22_2 C40_2 1_555 1_555
C46_2 C32_2 1_555 1_555
H26_2 C46_2 1_555 1_555
C50_2 C32_2 1_555 1_555
H30_2 C50_2 1_555 1_555
C52_2 C35_2 1_555 1_555
H32_2 C52_2 1_555 1_555
Cu6_3 O14_2 1_555 1_555
Cu6_4 N2_2 1_555 1_555
Cu7_2 O5 1_555 1_555
O26_2 Cu2_2 1_555 1_555
C8_2 C22_2 1_555 1_555
C11_2 C21_2 1_555 1_555
C13_2 C17_2 1_555 1_555
C16_2 C26_2 1_555 1_555
C19_2 C24_2 1_555 1_555
C20_2 C23_2 1_555 1_555
C27_2 C29_2 1_555 1_555
C30_2 C31_2 1_555 1_555
P3_2 N5_2 1_555 1_555
C40_2 C46_2 1_555 1_555
C50_2 C52_2 1_555 1_555
O6_2 H43_2 1_555 1_555
O6_2 H44_2 1_555 1_555
O9_2 H45_2 1_555 1_555
O9_2 H46_2 1_555 1_555
Cu1_2 O2_2 1_555 1_555
P1_2 O3_2 1_555 1_555
O2_2 C10_2 1_555 1_555
O3_2 C4_2 1_555 1_555
C1_2 C10_2 1_555 1_555
N3_3 P1_2 1_555 1_555
C4_2 C12_2 1_555 1_555
N4_2 P1_2 1_555 1_555
C10_2 O11_2 1_555 1_555
C12_2 H3_2 1_555 1_555
C18_2 C1_2 1_555 1_555
H7_2 C18_2 1_555 1_555
C25_2 C1_2 1_555 1_555
H14_2 C25_2 1_555 1_555
C28_2 C4_2 1_555 1_555
H17_2 C28_2 1_555 1_555
O12_3 Cu1_2 1_555 1_555
O13_2 P2_3 1_555 1_555
O16_2 C42_2 1_555 1_555
O17 C43_2 1_555 1_555
O20_2 C43_2 1_555 1_555
C33_2 O18_2 1_555 1_555
C34_2 O13_2 1_555 1_555
C36_2 C42_2 1_555 1_555
C37_2 C43_2 1_555 1_555
C39_2 C34_2 1_555 1_555
H21_2 C39_2 1_555 1_555
C41_2 C33_2 1_555 1_555
H23_2 C41_2 1_555 1_555
C44_2 C36_2 1_555 1_555
H24_2 C44_2 1_555 1_555
C45_2 C36_2 1_555 1_555
C47_2 C34_2 1_555 1_555
H27_2 C47_2 1_555 1_555
C48_2 C37_2 1_555 1_555
H28_2 C48_2 1_555 1_555
C49_2 C37_2 1_555 1_555
H29_2 C49_2 1_555 1_555
C51_2 C33_2 1_555 1_555
H31_2 C51_2 1_555 1_555
Cu3_2 O16_2 1_555 1_555
O22 Cu3_2 1_555 1_555
O23 Cu3_2 1_555 1_555
O24_3 Cu1_2 1_555 1_555
O25_3 Cu1_2 1_555 1_555
N8_2 Cu1_2 1_555 1_555
N9_3 Cu1_2 1_555 1_555
P2_3 N4_2 1_555 1_555
C12_2 C18_2 1_555 1_555
C25_2 C28_2 1_555 1_555
C39_2 C48_2 1_555 1_555
C41_2 C45_2 1_555 1_555
C44_2 C51_2 1_555 1_555
C47_2 C49_2 1_555 1_555
O22 H49 1_555 1_555
O22 H50 1_555 1_555
O23 H51_2 1_555 1_555
O23 H52 1_555 1_555
N8_2 C56_2 1_555 1_555
C53_2 C55_2 1_555 1_555
C54_2 H33_2 1_555 1_555
C55_2 C54_2 1_555 1_555
C56_2 H34_2 1_555 1_555
C57_2 N6_2 1_555 1_555
H35_2 C57_2 1_555 1_555
C58_2 C53_2 1_555 1_555
H36_2 C58_2 1_555 1_555
C59_2 N8_2 1_555 1_555
H37_2 C59_2 1_555 1_555
C60_2 C53_2 1_555 1_555
H38_2 C60_2 1_555 1_555
C61_2 N6_2 1_555 1_555
H39_2 C61_2 1_555 1_555
C62_2 C55_2 1_555 1_555
H40_2 C62_2 1_555 1_555
C54_2 C57_2 1_555 1_555
C56_2 C58_2 1_555 1_555
C59_2 C60_2 1_555 1_555
C61_2 C62_2 1_555 1_555
O12_4 Cu6_3 1_555 1_555
N9_4 Cu6_3 1_555 1_555
O24_4 Cu6_4 1_555 1_555
O25_4 Cu6_4 1_555 1_555
N9_3 C56_3 1_555 1_555
C53_3 C55_3 1_555 1_555
C54_3 H33_3 1_555 1_555
C55_3 C54_3 1_555 1_555
C56_3 H34_3 1_555 1_555
C57_3 N6_3 1_555 1_555
H35_3 C57_3 1_555 1_555
C58_3 C53_3 1_555 1_555
H36_3 C58_3 1_555 1_555
C59_3 N9_3 1_555 1_555
H37_3 C59_3 1_555 1_555
C60_3 C53_3 1_555 1_555
H38_3 C60_3 1_555 1_555
C61_3 N6_3 1_555 1_555
H39_3 C61_3 1_555 1_555
C62_3 C55_3 1_555 1_555
H40_3 C62_3 1_555 1_555
C54_3 C57_3 1_555 1_555
C56_3 C58_3 1_555 1_555
C59_3 C60_3 1_555 1_555
C61_3 C62_3 1_555 1_555
Cu7 O4_3 1_555 1_555
P1_3 O3_3 1_555 1_555
O25_3 C10_3 1_555 1_555
O3_3 C4_3 1_555 1_555
O4_3 C14_3 1_555 1_555
N1_3 Cu7 1_555 1_555
O7_3 P1_3 1_555 1_555
O8_3 C14_3 1_555 1_555
N9_4 C20_3 1_555 1_555
C1_3 C10_3 1_555 1_555
C2_3 O7_3 1_555 1_555
N3_4 P1_3 1_555 1_555
C4_3 C12_3 1_555 1_555
C5_3 C9_3 1_555 1_555
C6_3 C14_3 1_555 1_555
C8_3 H1_3 1_555 1_555
C9_3 C8_3 1_555 1_555
C10_3 O11_3 1_555 1_555
C12_3 H3_3 1_555 1_555
C13_3 C2_3 1_555 1_555
C16_3 C6_3 1_555 1_555
H5_3 C16_3 1_555 1_555
C17_3 C6_3 1_555 1_555
C18_3 C1_3 1_555 1_555
H7_3 C18_3 1_555 1_555
C20_3 H9_3 1_555 1_555
C22_3 N1_3 1_555 1_555
H11_3 C22_3 1_555 1_555
C23_3 C5_3 1_555 1_555
H12_3 C23_3 1_555 1_555
C25_3 C1_3 1_555 1_555
H14_3 C25_3 1_555 1_555
C26_3 C2_3 1_555 1_555
H15_3 C26_3 1_555 1_555
C27_3 N9_4 1_555 1_555
H16_3 C27_3 1_555 1_555
C28_3 C4_3 1_555 1_555
H17_3 C28_3 1_555 1_555
C29_3 C5_3 1_555 1_555
H18_3 C29_3 1_555 1_555
C30_3 N1_3 1_555 1_555
H19_3 C30_3 1_555 1_555
C31_3 C9_3 1_555 1_555
H20_3 C31_3 1_555 1_555
P3_3 N3_4 1_555 1_555
O25_4 C38_3 1_555 1_555
O15_3 P3_3 1_555 1_555
O16_3 C42_3 1_555 1_555
O18_3 P3_3 1_555 1_555
C32_3 C38_3 1_555 1_555
C33_3 O18_3 1_555 1_555
C35_3 O15_3 1_555 1_555
C36_3 C42_3 1_555 1_555
C38_3 O21_3 1_555 1_555
C40_3 C35_3 1_555 1_555
H22_3 C40_3 1_555 1_555
C41_3 C33_3 1_555 1_555
C44_3 C36_3 1_555 1_555
H24_3 C44_3 1_555 1_555
C45_3 C36_3 1_555 1_555
C46_3 C32_3 1_555 1_555
H26_3 C46_3 1_555 1_555
C50_3 C32_3 1_555 1_555
H30_3 C50_3 1_555 1_555
C51_3 C33_3 1_555 1_555
H31_3 C51_3 1_555 1_555
C52_3 C35_3 1_555 1_555
H32_3 C52_3 1_555 1_555
Cu8 O16_3 1_555 1_555
C8_3 C22_3 1_555 1_555
C12_3 C18_3 1_555 1_555
C13_3 C17_3 1_555 1_555
C16_3 C26_3 1_555 1_555
C20_3 C23_3 1_555 1_555
C25_3 C28_3 1_555 1_555
C27_3 C29_3 1_555 1_555
C30_3 C31_3 1_555 1_555
C40_3 C46_3 1_555 1_555
C41_3 C45_3 1_555 1_555
C44_3 C51_3 1_555 1_555
C50_3 C52_3 1_555 1_555
N9 C56_4 1_555 1_555
C53_4 C55_4 1_555 1_555
C54_4 H33_4 1_555 1_555
C55_4 C54_4 1_555 1_555
C56_4 H34_4 1_555 1_555
C57_4 N6_4 1_555 1_555
H35_4 C57_4 1_555 1_555
C58_4 C53_4 1_555 1_555
H36_4 C58_4 1_555 1_555
C59_4 N9 1_555 1_555
H37_4 C59_4 1_555 1_555
C60_4 C53_4 1_555 1_555
H38_4 C60_4 1_555 1_555
C61_4 N6_4 1_555 1_555
H39_4 C61_4 1_555 1_555
C62_4 C55_4 1_555 1_555
H40_4 C62_4 1_555 1_555
C54_4 C57_4 1_555 1_555
C56_4 C58_4 1_555 1_555
C59_4 C60_4 1_555 1_555
C61_4 C62_4 1_555 1_555
P1_4 O3_4 1_555 1_555
O25 C10_4 1_555 1_555
O3_4 C4_4 1_555 1_555
C1_4 C10_4 1_555 1_555
N3_5 P1_4 1_555 1_555
C4_4 C12_4 1_555 1_555
N4_3 P1_4 1_555 1_555
C10_4 O11_4 1_555 1_555
C12_4 H3_4 1_555 1_555
C18_4 C1_4 1_555 1_555
H7_4 C18_4 1_555 1_555
C25_4 C1_4 1_555 1_555
H14_4 C25_4 1_555 1_555
C28_4 C4_4 1_555 1_555
H17_4 C28_4 1_555 1_555
O13_3 P2_4 1_555 1_555
O16_4 C42_4 1_555 1_555
O27_2 C43_3 1_555 1_555
O20_3 C43_3 1_555 1_555
C33_4 O18_4 1_555 1_555
C34_3 O13_3 1_555 1_555
C36_4 C42_4 1_555 1_555
C37_3 C43_3 1_555 1_555
C39_3 C34_3 1_555 1_555
H21_3 C39_3 1_555 1_555
C41_4 C33_4 1_555 1_555
H23_3 C41_4 1_555 1_555
C44_4 C36_4 1_555 1_555
H24_4 C44_4 1_555 1_555
C45_4 C36_4 1_555 1_555
C47_3 C34_3 1_555 1_555
H27_3 C47_3 1_555 1_555
C48_3 C37_3 1_555 1_555
H28_3 C48_3 1_555 1_555
C49_3 C37_3 1_555 1_555
H29_3 C49_3 1_555 1_555
C51_4 C33_4 1_555 1_555
H31_4 C51_4 1_555 1_555
Cu8_2 O16_4 1_555 1_555
O22_2 Cu8_2 1_555 1_555
O23_2 Cu8_2 1_555 1_555
P2_4 N4_3 1_555 1_555
C12_4 C18_4 1_555 1_555
C25_4 C28_4 1_555 1_555
C39_3 C48_3 1_555 1_555
C41_4 C45_4 1_555 1_555
C44_4 C51_4 1_555 1_555
C47_3 C49_3 1_555 1_555
O22_2 H49_2 1_555 1_555
O22_2 H50_2 1_555 1_555
O23_2 H51_4 1_555 1_555
O23_2 H52_2 1_555 1_555
Cu7_2 O4_4 1_555 1_555
P2_5 O1_3 1_555 1_555
O1_3 C3_3 1_555 1_555
O4_4 C14_4 1_555 1_555
O26_2 C15_3 1_555 1_555
O6_3 Cu7_2 1_555 1_555
N1_4 Cu7_2 1_555 1_555
O8_4 C14_4 1_555 1_555
O9_3 Cu7_2 1_555 1_555
O10_3 C15_3 1_555 1_555
N9_2 C20_4 1_555 1_555
C2_4 O7_4 1_555 1_555
C3_3 C11_3 1_555 1_555
C5_4 C9_4 1_555 1_555
C6_4 C14_4 1_555 1_555
C7_3 C15_3 1_555 1_555
C8_4 H1_4 1_555 1_555
C9_4 C8_4 1_555 1_555
C11_3 H2_3 1_555 1_555
C13_4 C2_4 1_555 1_555
H4_3 C13_4 1_555 1_555
C16_4 C6_4 1_555 1_555
H5_4 C16_4 1_555 1_555
C17_4 C6_4 1_555 1_555
H6_3 C17_4 1_555 1_555
C19_3 C3_3 1_555 1_555
H8_3 C19_3 1_555 1_555
C20_4 H9_4 1_555 1_555
C21_3 C7_3 1_555 1_555
H10_3 C21_3 1_555 1_555
C22_4 N1_4 1_555 1_555
H11_4 C22_4 1_555 1_555
C23_4 C5_4 1_555 1_555
H12_4 C23_4 1_555 1_555
C24_3 C7_3 1_555 1_555
H13_3 C24_3 1_555 1_555
C26_4 C2_4 1_555 1_555
H15_4 C26_4 1_555 1_555
C27_4 N9_2 1_555 1_555
H16_4 C27_4 1_555 1_555
C29_4 C5_4 1_555 1_555
H18_4 C29_4 1_555 1_555
C30_4 N1_4 1_555 1_555
H19_4 C30_4 1_555 1_555
C31_4 C9_4 1_555 1_555
H20_4 C31_4 1_555 1_555
P3_4 N3_6 1_555 1_555
O25_2 C38_4 1_555 1_555
O15_4 P3_4 1_555 1_555
C32_4 C38_4 1_555 1_555
C35_4 O15_4 1_555 1_555
N5_3 P2_5 1_555 1_555
C38_4 O21_4 1_555 1_555
C40_4 C35_4 1_555 1_555
H22_4 C40_4 1_555 1_555
C46_4 C32_4 1_555 1_555
H26_4 C46_4 1_555 1_555
C50_4 C32_4 1_555 1_555
H30_4 C50_4 1_555 1_555
C52_4 C35_4 1_555 1_555
H32_4 C52_4 1_555 1_555
C8_4 C22_4 1_555 1_555
C11_3 C21_3 1_555 1_555
C13_4 C17_4 1_555 1_555
C16_4 C26_4 1_555 1_555
C19_3 C24_3 1_555 1_555
C20_4 C23_4 1_555 1_555
C27_4 C29_4 1_555 1_555
C30_4 C31_4 1_555 1_555
P3_4 N5_3 1_555 1_555
C40_4 C46_4 1_555 1_555
C50_4 C52_4 1_555 1_555
O6_3 H43_3 1_555 1_555
O6_3 H44_3 1_555 1_555
O9_3 H45_4 1_555 1_555
O9_3 H46_3 1_555 1_555
P2_6 O1_4 1_555 1_555
O1_4 C3_4 1_555 1_555
O5_2 C15_4 1_555 1_555
O10_4 C15_4 1_555 1_555
C3_4 C11_4 1_555 1_555
C7_4 C15_4 1_555 1_555
C11_4 H2_4 1_555 1_555
C19_4 C3_4 1_555 1_555
H8_4 C19_4 1_555 1_555
C21_4 C7_4 1_555 1_555
H10_4 C21_4 1_555 1_555
C24_4 C7_4 1_555 1_555
H13_4 C24_4 1_555 1_555
O13_4 P2_6 1_555 1_555
O17_2 C43_4 1_555 1_555
O20_4 C43_4 1_555 1_555
C34_4 O13_4 1_555 1_555
N5_4 P2_6 1_555 1_555
C37_4 C43_4 1_555 1_555
C39_4 C34_4 1_555 1_555
H21_4 C39_4 1_555 1_555
C47_4 C34_4 1_555 1_555
H27_4 C47_4 1_555 1_555
C48_4 C37_4 1_555 1_555
H28_4 C48_4 1_555 1_555
C49_4 C37_4 1_555 1_555
H29_4 C49_4 1_555 1_555
P2_6 N4_4 1_555 1_555
C11_4 C21_4 1_555 1_555
C19_4 C24_4 1_555 1_555
C39_4 C48_4 1_555 1_555
C47_4 C49_4 1_555 1_555
O6_4 H43_4 1_555 1_555
O6_4 H44_4 1_555 1_555
O9_4 H46_4 1_555 1_555
O22_3 H49_3 1_555 1_555
O22_3 H50_3 1_555 1_555
O23_3 H52_3 1_555 1_555
O22_4 H49_4 1_555 1_555
O22_4 H50_4 1_555 1_555
O23_4 H52_4 1_555 1_555

#END
