
###############################################################################
#
# This file contains modified crystal structure data generated from the
# MOF subset of the Cambridge Structural Database (CSD) v543 
# hosted by the Cambridge Crystallographic Data Centre (CCDC).
#
# This work is licensed under the Creative Commons
# Attribution-NonCommercial-ShareAlike 4.0 International License.
# To view a copy of this license, visit
# http://creativecommons.org/licenses/by-nc-sa/4.0/
# or send a letter to
# Creative Commons, PO Box 1866, Mountain View, CA 94042, USA.
#
# CIF created using the CSD Python API on 29 September 2022
# The structure has been converted into the P1 space group
# The structure has a 3D framework
# The original CSD entry VAKNAA is in the trigonal crystal system
# The framework has been calculated to contain at least 10.0% void space
# The void calculation uses a probe of radius 1.32A, grid spacing 0.4
#
###############################################################################

data_VAKNAA
_chemical_formula_moiety         '(C372 H276 Cu18 N36 O156 P24)n'
_symmetry_cell_setting           triclinic
_symmetry_space_group_name_H-M   'P 1'
_symmetry_Int_Tables_number      1
_space_group_name_Hall           'P 1'
loop_
_symmetry_equiv_pos_site_id
_symmetry_equiv_pos_as_xyz
1 x,y,z
_cell_length_a                   18.3668(11)
_cell_length_b                   18.3668(11)
_cell_length_c                   49.803(3)
_cell_angle_alpha                90
_cell_angle_beta                 90
_cell_angle_gamma                120
_cell_volume                     14549.7
loop_
_atom_site_label
_atom_site_type_symbol
_atom_site_fract_x
_atom_site_fract_y
_atom_site_fract_z
O29 O 0.0507(4) 0.6861(6) 0.37660(12)
O31 O 0.0262(4) 0.7900(6) 0.36685(18)
C71 C 0.0043(6) 0.7140(10) 0.36823(19)
Cu7 Cu 0.16883(6) 0.76487(8) 0.38276(2)
O22 O 0.1525(6) 0.4370(4) 0.38983(11)
O24 O 0.0610(6) 0.3024(5) 0.38436(18)
C49 C 0.0078(7) 0.3885(5) 0.39750(17)
C52 C 0.0235(7) 0.4584(5) 0.41271(17)
H34 H 0.0786 0.4965 0.4177
C56 C 0.0778(9) 0.3749(7) 0.38971(17)
Cu9 Cu 0.23513(8) 0.40396(6) 0.38276(2)
Cu17 Cu 0.1992(3) 0.5805(2) 0.37165(8)
P2 P 0.73998(13) 0.31200(13) 0.29653(4)
O2 O 0.7976(3) 0.2927(3) 0.27786(9)
O3 O 0.7772(3) 0.3076(3) 0.32492(9)
O6 O 0.7811(4) 0.1833(3) 0.15579(11)
O8 O 0.7127(4) 0.2563(4) 0.15284(11)
N2 N 0.6462(4) 0.2415(4) 0.29288(12)
C1 C 0.7593(5) 0.2274(5) 0.33530(15)
C4 C 0.7834(5) 0.2779(5) 0.24991(16)
C6 C 0.7515(5) 0.2273(5) 0.16608(16)
C7 C 0.7795(5) 0.3343(5) 0.23291(14)
H1 H 0.7846 0.3839 0.2396
C9 C 0.7279(5) 0.0774(5) 0.35739(16)
C10 C 0.7624(5) 0.2445(5) 0.19613(16)
C11 C 0.7681(5) 0.3173(5) 0.20593(15)
H2 H 0.7643 0.3549 0.1943
C14 C 0.6897(6) 0.1849(5) 0.35188(16)
H5 H 0.6541 0.2060 0.3556
C16 C 0.6762(6) 0.1110(6) 0.36241(17)
H7 H 0.6300 0.0813 0.3736
C18 C 0.8159(5) 0.2011(6) 0.33008(19)
H8 H 0.8633 0.2325 0.3195
C20 C 0.7695(6) 0.1882(5) 0.21325(18)
H10 H 0.7695 0.1411 0.2065
C26 C 0.7981(6) 0.1245(6) 0.3415(2)
H14 H 0.8348 0.1043 0.3383
C27 C 0.7764(6) 0.2047(6) 0.24077(16)
H15 H 0.7763 0.1659 0.2528
P5 P 0.68800(13) 0.42798(18) 0.29653(4)
O26 O 0.7073(3) 0.5049(4) 0.27786(9)
O27 O 0.6924(3) 0.4696(4) 0.32492(9)
O28 O 0.8167(3) 0.5978(5) 0.15579(11)
O30 O 0.7437(4) 0.4564(6) 0.15284(11)
N6 N 0.7585(4) 0.4047(6) 0.29288(12)
C60 C 0.7726(5) 0.5319(7) 0.33530(15)
C61 C 0.7221(5) 0.5055(7) 0.24991(16)
C62 C 0.7727(5) 0.5242(7) 0.16608(16)
C63 C 0.6657(5) 0.4452(7) 0.23291(14)
H40 H 0.6161 0.4007 0.2396
C64 C 0.9226(5) 0.6505(7) 0.35739(16)
C65 C 0.7555(5) 0.5179(7) 0.19613(16)
C66 C 0.6827(5) 0.4508(7) 0.20593(15)
H41 H 0.6451 0.4094 0.1943
C67 C 0.8151(5) 0.5048(8) 0.35188(16)
H42 H 0.7940 0.4481 0.3556
C68 C 0.8890(6) 0.5652(8) 0.36241(17)
H43 H 0.9187 0.5487 0.3736
C69 C 0.7989(6) 0.6148(8) 0.33008(19)
H44 H 0.7675 0.6308 0.3195
C70 C 0.8118(5) 0.5813(8) 0.21325(18)
H45 H 0.8589 0.6284 0.2065
C72 C 0.8755(6) 0.6736(8) 0.3415(2)
H46 H 0.8957 0.7305 0.3383
C73 C 0.7953(6) 0.5717(8) 0.24077(16)
H47 H 0.8341 0.6104 0.2528
P6 P 0.57202(18) 0.26002(13) 0.29653(4)
O32 O 0.4951(4) 0.2024(3) 0.27786(9)
O33 O 0.5304(4) 0.2228(3) 0.32492(9)
O34 O 0.4022(5) 0.2189(4) 0.15579(11)
O35 O 0.3139(6) 0.3646(5) 0.37660(12)
O36 O 0.5436(6) 0.2873(4) 0.15284(11)
N7 N 0.5953(6) 0.3538(4) 0.29288(12)
C74 C 0.4681(7) 0.2407(5) 0.33530(15)
C75 C 0.4945(7) 0.2166(5) 0.24991(16)
O37 O 0.2100(6) 0.2362(5) 0.36685(18)
C76 C 0.4758(7) 0.2485(5) 0.16608(16)
C77 C 0.5548(7) 0.2205(5) 0.23291(14)
H48 H 0.5993 0.2154 0.2396
C78 C 0.3495(7) 0.2721(5) 0.35739(16)
C79 C 0.4821(7) 0.2376(5) 0.19613(16)
C80 C 0.5492(7) 0.2319(5) 0.20593(15)
H49 H 0.5906 0.2357 0.1943
C81 C 0.4952(8) 0.3103(6) 0.35188(16)
H50 H 0.5519 0.3459 0.3556
C82 C 0.4348(8) 0.3238(6) 0.36241(17)
H51 H 0.4513 0.3700 0.3736
C83 C 0.3852(8) 0.1841(5) 0.33008(19)
H52 H 0.3692 0.1367 0.3195
C84 C 0.4187(8) 0.2305(6) 0.21325(18)
H53 H 0.3716 0.2305 0.2065
C85 C 0.2860(10) 0.2903(8) 0.36823(19)
C86 C 0.3264(8) 0.2019(6) 0.3415(2)
H54 H 0.2695 0.1652 0.3383
C87 C 0.4283(8) 0.2236(6) 0.24077(16)
H55 H 0.3896 0.2237 0.2528
Cu10 Cu 0.83117(6) 0.59604(6) 0.11724(2)
Cu11 Cu 0.76487(8) 0.16883(6) 0.11724(2)
Cu12 Cu 0.40396(6) 0.23513(8) 0.11724(2)
Cu18 Cu 0.6187(2) 0.4195(2) 0.12835(8)
Cu19 Cu 0.8008(3) 0.3813(2) 0.12835(8)
Cu20 Cu 0.5805(2) 0.1992(3) 0.12835(8)
Cu1 Cu 0.59604(6) 0.83117(6) 0.38276(2)
P1 P 0.60497(12) 0.37020(12) 0.44921(4)
O1 O 0.5584(3) 0.3999(3) 0.46959(10)
O4 O 0.7354(4) 0.5831(4) 0.57838(11)
O5 O 0.5630(4) 0.7155(4) 0.38983(11)
O7 O 0.6354(5) 0.9493(4) 0.37660(12)
O9 O 0.6569(4) 0.4546(4) 0.59340(11)
N1 N 0.5709(3) 0.2733(3) 0.45187(12)
O10 O 0.6976(5) 0.7586(4) 0.38436(18)
C2 C 0.5898(5) 0.4272(5) 0.49557(13)
C3 C 0.6481(5) 0.4798(5) 0.54694(14)
C5 C 0.5857(5) 0.4645(5) 0.41388(15)
O11 O 0.7638(5) 0.9738(4) 0.36685(18)
C8 C 0.6115(5) 0.6193(5) 0.39750(17)
C12 C 0.6663(6) 0.5376(5) 0.52687(18)
H3 H 0.6983 0.5946 0.5309
C13 C 0.5979(5) 0.3966(5) 0.54120(16)
H4 H 0.5829 0.3580 0.5551
C15 C 0.5416(5) 0.5651(5) 0.41271(17)
H6 H 0.5035 0.5821 0.4177
C17 C 0.6828(5) 0.5072(6) 0.57467(16)
C19 C 0.5688(5) 0.3673(5) 0.51620(16)
H9 H 0.5362 0.3100 0.5128
C21 C 0.5270(5) 0.4866(5) 0.42059(17)
H11 H 0.4789 0.4501 0.4301
C22 C 0.7097(8) 0.9957(6) 0.36823(19)
C23 C 0.6251(7) 0.7029(6) 0.38971(17)
C24 C 0.6384(6) 0.5135(6) 0.50084(15)
H12 H 0.6513 0.5531 0.4873
O12 O 0.5219(6) 0.4341(7) 0.65696(19)
C25 C 0.6544(6) 0.5121(6) 0.39942(17)
H13 H 0.6919 0.4939 0.3950
C28 C 0.6679(6) 0.5922(6) 0.39097(19)
H16 H 0.7153 0.6271 0.3809
N3 N 0.5183(10) 0.5079(10) 0.6938(3)
C29 C 0.5511(8) 0.4967(9) 0.6706(4)
H17 H 0.6013 0.5422 0.6647
C30 C 0.4418(10) 0.4449(12) 0.7038(4)
H18 H 0.4493 0.4310 0.7217
H19 H 0.4214 0.3959 0.6926
H20 H 0.4019 0.4641 0.7038
C31 C 0.5658(14) 0.5895(15) 0.7069(4)
H21 H 0.6226 0.6174 0.7004
H22 H 0.5656 0.5818 0.7259
H23 H 0.5404 0.6229 0.7028
Cu2 Cu 0.5805(2) 0.3813(2) 0.62835(8)
O13 O 0.5705(3) 0.3839(3) 0.42166(10)
P3 P 0.62980(12) 0.23477(17) 0.44921(4)
O14 O 0.6001(3) 0.1585(4) 0.46959(10)
O15 O 0.4169(4) 0.1523(6) 0.57838(11)
O17 O 0.5454(4) 0.2023(6) 0.59340(11)
N4 N 0.7267(3) 0.2976(4) 0.45187(12)
C32 C 0.5728(5) 0.1626(7) 0.49557(13)
C33 C 0.5202(5) 0.1683(7) 0.54694(14)
C34 C 0.5355(5) 0.1212(7) 0.41388(15)
C36 C 0.4624(5) 0.1287(8) 0.52687(18)
H24 H 0.4054 0.1037 0.5309
C37 C 0.6034(5) 0.2013(7) 0.54120(16)
H25 H 0.6420 0.2249 0.5551
C39 C 0.4928(6) 0.1756(8) 0.57467(16)
C40 C 0.6327(5) 0.2015(7) 0.51620(16)
H27 H 0.6900 0.2262 0.5128
C41 C 0.5134(5) 0.0404(7) 0.42059(17)
H28 H 0.5499 0.0288 0.4301
C43 C 0.4865(6) 0.1249(8) 0.50084(15)
H29 H 0.4469 0.0982 0.4873
C44 C 0.4879(6) 0.1423(8) 0.39942(17)
H30 H 0.5061 0.1980 0.3950
C45 C 0.4078(6) 0.0757(8) 0.39097(19)
H31 H 0.3729 0.0882 0.3809
O19 O 0.6161(3) 0.1866(4) 0.42166(10)
P4 P 0.76523(17) 0.39503(12) 0.44921(4)
O20 O 0.8415(4) 0.4416(3) 0.46959(10)
O21 O 0.8477(6) 0.2646(4) 0.57838(11)
O23 O 0.7977(6) 0.3431(4) 0.59340(11)
N5 N 0.7024(4) 0.4291(3) 0.45187(12)
C46 C 0.8374(7) 0.4102(5) 0.49557(13)
C47 C 0.8317(7) 0.3519(5) 0.54694(14)
C48 C 0.8788(7) 0.4143(5) 0.41388(15)
C50 C 0.8713(8) 0.3337(6) 0.52687(18)
H32 H 0.8963 0.3017 0.5309
C51 C 0.7987(7) 0.4021(5) 0.54120(16)
H33 H 0.7751 0.4171 0.5551
C53 C 0.8244(8) 0.3172(5) 0.57467(16)
C54 C 0.7985(7) 0.4312(5) 0.51620(16)
H35 H 0.7738 0.4638 0.5128
C55 C 0.9596(7) 0.4730(5) 0.42059(17)
H36 H 0.9712 0.5211 0.4301
C57 C 0.8751(8) 0.3616(6) 0.50084(15)
H37 H 0.9018 0.3487 0.4873
C58 C 0.8577(8) 0.3456(6) 0.39942(17)
H38 H 0.8020 0.3081 0.3950
C59 C 0.9243(8) 0.3321(6) 0.39097(19)
H39 H 0.9118 0.2847 0.3809
O25 O 0.8134(4) 0.4295(3) 0.42166(10)
O38 O 0.5659(7) 0.0878(9) 0.65696(19)
N8 N 0.4921(10) 0.0104(14) 0.6938(3)
C88 C 0.5033(9) 0.0544(12) 0.6706(4)
H56 H 0.4578 0.0591 0.6647
H57 H 0.5690 0.0183 0.7217
H58 H 0.6041 0.0255 0.6926
H60 H 0.3826 0.0052 0.7004
Cu4 Cu 0.6187(2) 0.1992(3) 0.62835(8)
O39 O 0.4781(6) 0.5659(7) 0.34304(19)
N9 N 0.4817(10) 0.4921(10) 0.3062(3)
C91 C 0.4489(8) 0.5033(9) 0.3294(4)
H63 H 0.3987 0.4578 0.3353
C92 C 0.5582(10) 0.5551(12) 0.2962(4)
H64 H 0.5507 0.5690 0.2783
H65 H 0.5786 0.6041 0.3074
H66 H 0.5981 0.5359 0.2962
C93 C 0.4342(14) 0.4105(15) 0.2931(4)
H67 H 0.3774 0.3826 0.2996
H68 H 0.4344 0.4182 0.2741
H69 H 0.4596 0.3771 0.2972
Cu5 Cu 0.4195(2) 0.6187(2) 0.37165(8)
Cu6 Cu 0.76487(8) 0.59604(6) 0.61724(2)
Cu13 Cu 0.40396(6) 0.16883(6) 0.61724(2)
Cu14 Cu 0.83117(6) 0.23513(8) 0.61724(2)
O40 O 0.5831(4) 0.8477(6) 0.42162(11)
O42 O 0.4370(4) 0.2845(4) 0.61017(11)
O43 O 0.7155(4) 0.1525(6) 0.61017(11)
O44 O 0.8475(6) 0.5630(4) 0.61017(11)
O46 O 0.5978(5) 0.8167(3) 0.34421(11)
O47 O 0.7811(4) 0.5978(5) 0.65579(11)
O49 O 0.6861(6) 0.6354(5) 0.62340(12)
O50 O 0.4564(6) 0.7437(4) 0.34716(11)
O51 O 0.2873(4) 0.5436(6) 0.34716(11)
O52 O 0.7437(4) 0.2873(4) 0.65284(11)
O53 O 0.5436(6) 0.2563(4) 0.65284(11)
O54 O 0.7127(4) 0.4564(6) 0.65284(11)
O55 O 0.3431(4) 0.5454(4) 0.40660(11)
O56 O 0.4546(4) 0.7977(6) 0.40660(11)
O58 O 0.9390(6) 0.6976(5) 0.61564(18)
Cu15 Cu 0.8008(3) 0.4195(2) 0.62835(8)
O16 O 0.2845(4) 0.8475(6) 0.38983(11)
O18 O 0.2414(4) 0.9390(6) 0.38436(18)
C35 C 0.3807(5) 0.9922(7) 0.39750(17)
C38 C 0.4349(5) 0.9765(7) 0.41271(17)
H26 H 0.4179 0.9214 0.4177
C42 C 0.2971(6) 0.9222(9) 0.38971(17)
C89 C 0.5551(12) 0.9969(16) 0.7038(4)
H59 H 0.5359 0.9378 0.7038
C90 C 0.4105(15) 0.9763(21) 0.7069(4)
H61 H 0.4182 0.9838 0.7259
H62 H 0.3771 0.9175 0.7028
O41 O 0.1523(6) 0.7354(4) 0.42162(11)
O45 O 0.1833(3) 0.7811(4) 0.34421(11)
O57 O 0.2023(6) 0.6569(4) 0.40660(11)
Cu16 Cu 0.3813(2) 0.8008(3) 0.37165(8)
C89_2 C 0.0031(16) 0.5582(20) 0.7038(4)
H59_2 H 0.0622 0.5981 0.7038
C90_2 C 0.0237(21) 0.4342(26) 0.7069(4)
H61_2 H 0.0162 0.4344 0.7259
H62_2 H 0.0825 0.4596 0.7028
O41_2 O 0.2646(4) 0.4169(7) 0.42162(11)
O45_2 O 0.2189(4) 0.4022(5) 0.34421(11)
O38_2 O 0.9122(9) 0.4781(11) 0.65696(19)
N8_2 N 0.9896(14) 0.4817(17) 0.6938(3)
C88_2 C 0.9456(12) 0.4489(15) 0.6706(4)
H56_2 H 0.9409 0.3987 0.6647
H57_2 H 0.9817 0.5507 0.7217
H58_2 H 0.9745 0.5786 0.6926
H60_2 H 0.9948 0.3774 0.7004
C92_2 C 0.4449(12) 0.0031(16) 0.2962(4)
H66_2 H 0.4641 0.0622 0.2962
C93_2 C 0.5895(15) 0.0237(21) 0.2931(4)
H68_2 H 0.5818 0.0162 0.2741
H69_2 H 0.6229 0.0825 0.2972
O47_2 O 0.4022(5) 0.1833(6) 0.65579(11)
O49_2 O 0.3646(5) 0.0507(8) 0.62340(12)
O58_2 O 0.3024(5) 0.2414(8) 0.61564(18)
O39_2 O 0.4341(7) 0.9122(9) 0.34304(19)
N9_2 N 0.5079(10) 0.9896(14) 0.3062(3)
C91_2 C 0.4967(9) 0.9456(12) 0.3294(4)
H63_2 H 0.5422 0.9409 0.3353
H64_2 H 0.4310 0.9817 0.2783
H65_2 H 0.3959 0.9745 0.3074
H67_2 H 0.6174 0.9948 0.2996
O50_2 O 0.2563(4) 0.7127(7) 0.34716(11)
O39_3 O 0.0878(9) 0.5219(6) 0.34304(19)
N9_3 N 0.0104(14) 0.5183(10) 0.3062(3)
C91_3 C 0.0544(12) 0.5511(8) 0.3294(4)
H63_3 H 0.0591 0.6013 0.3353
H64_3 H 0.0183 0.4493 0.2783
H65_3 H 0.0255 0.4214 0.3074
H67_3 H 0.0052 0.6226 0.2996
C92_3 C 0.9969(16) 0.4418(10) 0.2962(4)
H66_3 H 0.9378 0.4019 0.2962
C93_3 C 0.9763(21) 0.5658(14) 0.2931(4)
H68_3 H 0.9838 0.5656 0.2741
H69_3 H 0.9175 0.5404 0.2972
O47_3 O 0.8167(6) 0.2189(4) 0.65579(11)
O49_3 O 0.9493(8) 0.3139(6) 0.62340(12)
O58_3 O 0.7586(8) 0.0610(6) 0.61564(18)
O29_2 O 0.6861(6) 0.0507(4) 0.12340(12)
O31_2 O 0.7900(6) 0.0262(4) 0.13315(18)
C71_2 C 0.7140(10) 0.0043(6) 0.13177(19)
P2_2 P 0.31200(13) 0.73998(13) 0.20347(4)
O2_2 O 0.2927(3) 0.7976(3) 0.22214(9)
O3_2 O 0.3076(3) 0.7772(3) 0.17508(9)
N2_2 N 0.2415(4) 0.6462(4) 0.20712(12)
C1_2 C 0.2274(5) 0.7593(5) 0.16470(15)
C4_2 C 0.2779(5) 0.7834(5) 0.25009(16)
C6_2 C 0.2273(5) 0.7515(5) 0.33392(16)
C7_2 C 0.3343(5) 0.7795(5) 0.26709(14)
H1_2 H 0.3839 0.7846 0.2604
C9_2 C 0.0774(5) 0.7279(5) 0.14261(16)
C10_2 C 0.2445(5) 0.7624(5) 0.30387(16)
C11_2 C 0.3173(5) 0.7681(5) 0.29407(15)
H2_2 H 0.3549 0.7643 0.3057
C14_2 C 0.1849(5) 0.6897(6) 0.14812(16)
H5_2 H 0.2060 0.6541 0.1444
C16_2 C 0.1110(6) 0.6762(6) 0.13759(17)
H7_2 H 0.0813 0.6300 0.1264
C18_2 C 0.2011(6) 0.8159(5) 0.16992(19)
H8_2 H 0.2325 0.8633 0.1805
C20_2 C 0.1882(5) 0.7695(6) 0.28675(18)
H10_2 H 0.1411 0.7695 0.2935
C26_2 C 0.1245(6) 0.7981(6) 0.1585(2)
H14_2 H 0.1043 0.8348 0.1617
C27_2 C 0.2047(6) 0.7764(6) 0.25923(16)
H15_2 H 0.1659 0.7763 0.2472
P5_2 P 0.42798(18) 0.68800(13) 0.20347(4)
O26_2 O 0.5049(4) 0.7073(3) 0.22214(9)
O27_2 O 0.4696(4) 0.6924(3) 0.17508(9)
N6_2 N 0.4047(6) 0.7585(4) 0.20712(12)
C60_2 C 0.5319(7) 0.7726(5) 0.16470(15)
C61_2 C 0.5055(7) 0.7221(5) 0.25009(16)
C62_2 C 0.5242(7) 0.7727(5) 0.33392(16)
C63_2 C 0.4452(7) 0.6657(5) 0.26709(14)
H40_2 H 0.4007 0.6161 0.2604
C64_2 C 0.6505(7) 0.9226(5) 0.14261(16)
C65_2 C 0.5179(7) 0.7555(5) 0.30387(16)
C66_2 C 0.4508(7) 0.6827(5) 0.29407(15)
H41_2 H 0.4094 0.6451 0.3057
C67_2 C 0.5048(8) 0.8151(5) 0.14812(16)
H42_2 H 0.4481 0.7940 0.1444
C68_2 C 0.5652(8) 0.8890(6) 0.13759(17)
H43_2 H 0.5487 0.9187 0.1264
C69_2 C 0.6148(8) 0.7989(6) 0.16992(19)
H44_2 H 0.6308 0.7675 0.1805
C70_2 C 0.5813(8) 0.8118(5) 0.28675(18)
H45_2 H 0.6284 0.8589 0.2935
C72_2 C 0.6736(8) 0.8755(6) 0.1585(2)
H46_2 H 0.7305 0.8957 0.1617
C73_2 C 0.5717(8) 0.7953(6) 0.25923(16)
H47_2 H 0.6104 0.8341 0.2472
P6_2 P 0.26002(13) 0.57202(18) 0.20347(4)
O32_2 O 0.2024(3) 0.4951(4) 0.22214(9)
O33_2 O 0.2228(3) 0.5304(4) 0.17508(9)
O35_2 O 0.3646(5) 0.3139(6) 0.12340(12)
N7_2 N 0.3538(4) 0.5953(6) 0.20712(12)
C74_2 C 0.2407(5) 0.4681(7) 0.16470(15)
C75_2 C 0.2166(5) 0.4945(7) 0.25009(16)
O37_2 O 0.2362(5) 0.2100(6) 0.13315(18)
C76_2 C 0.2485(5) 0.4758(7) 0.33392(16)
C77_2 C 0.2205(5) 0.5548(7) 0.26709(14)
H48_2 H 0.2154 0.5993 0.2604
C78_2 C 0.2721(5) 0.3495(7) 0.14261(16)
C79_2 C 0.2376(5) 0.4821(7) 0.30387(16)
C80_2 C 0.2319(5) 0.5492(7) 0.29407(15)
H49_2 H 0.2357 0.5906 0.3057
C81_2 C 0.3103(6) 0.4952(8) 0.14812(16)
H50_2 H 0.3459 0.5519 0.1444
C82_2 C 0.3238(6) 0.4348(8) 0.13759(17)
H51_2 H 0.3700 0.4513 0.1264
C83_2 C 0.1841(5) 0.3852(8) 0.16992(19)
H52_2 H 0.1367 0.3692 0.1805
C84_2 C 0.2305(6) 0.4187(8) 0.28675(18)
H53_2 H 0.2305 0.3716 0.2935
C85_2 C 0.2903(8) 0.2860(10) 0.13177(19)
C86_2 C 0.2019(6) 0.3264(8) 0.1585(2)
H54_2 H 0.1652 0.2695 0.1617
C87_2 C 0.2236(6) 0.4283(8) 0.25923(16)
H55_2 H 0.2237 0.3896 0.2472
O22_2 O 0.4370(4) 0.1525(6) 0.11017(11)
O24_2 O 0.3024(5) 0.0610(6) 0.11564(18)
C49_2 C 0.3885(5) 0.0078(7) 0.10250(17)
C52_2 C 0.4584(5) 0.0235(7) 0.08729(17)
H34_2 H 0.4965 0.0786 0.0823
C56_2 C 0.3749(7) 0.0778(9) 0.11029(17)
P1_2 P 0.37020(12) 0.60497(12) 0.05079(4)
O1_2 O 0.3999(3) 0.5584(3) 0.03041(10)
O5_2 O 0.7155(4) 0.5630(4) 0.11017(11)
O7_2 O 0.9493(4) 0.6354(5) 0.12340(12)
N1_2 N 0.2733(3) 0.5709(3) 0.04813(12)
O10_2 O 0.7586(4) 0.6976(5) 0.11564(18)
C2_2 C 0.4272(5) 0.5898(5) 0.00443(13)
C5_2 C 0.4645(5) 0.5857(5) 0.08612(15)
O11_2 O 0.9738(4) 0.7638(5) 0.13315(18)
C8_2 C 0.6193(5) 0.6115(5) 0.10250(17)
C15_2 C 0.5651(5) 0.5416(5) 0.08729(17)
H6_2 H 0.5821 0.5035 0.0823
C21_2 C 0.4866(5) 0.5270(5) 0.07941(17)
H11_2 H 0.4501 0.4789 0.0699
C22_2 C 0.9957(6) 0.7097(8) 0.13177(19)
C23_2 C 0.7029(6) 0.6251(7) 0.11029(17)
H12_2 H 0.5531 0.6513 0.0127
C25_2 C 0.5121(6) 0.6544(6) 0.10058(17)
H13_2 H 0.4939 0.6919 0.1050
C28_2 C 0.5922(6) 0.6679(6) 0.10903(19)
H16_2 H 0.6271 0.7153 0.1191
O13_2 O 0.3839(3) 0.5705(3) 0.07834(10)
P3_2 P 0.23477(17) 0.62980(12) 0.05079(4)
O14_2 O 0.1585(4) 0.6001(3) 0.03041(10)
N4_2 N 0.2976(4) 0.7267(3) 0.04813(12)
C32_2 C 0.1626(7) 0.5728(5) 0.00443(13)
C34_2 C 0.1212(7) 0.5355(5) 0.08612(15)
C41_2 C 0.0404(7) 0.5134(5) 0.07941(17)
H28_2 H 0.0288 0.5499 0.0699
H29_2 H 0.0982 0.4469 0.0127
C44_2 C 0.1423(8) 0.4879(6) 0.10058(17)
H30_2 H 0.1980 0.5061 0.1050
C45_2 C 0.0757(8) 0.4078(6) 0.10903(19)
H31_2 H 0.0882 0.3729 0.1191
O19_2 O 0.1866(4) 0.6161(3) 0.07834(10)
P4_2 P 0.39503(12) 0.76523(17) 0.05079(4)
O20_2 O 0.4416(3) 0.8415(4) 0.03041(10)
N5_2 N 0.4291(3) 0.7024(4) 0.04813(12)
C46_2 C 0.4102(5) 0.8374(7) 0.00443(13)
C48_2 C 0.4143(5) 0.8788(7) 0.08612(15)
C55_2 C 0.4730(5) 0.9596(7) 0.07941(17)
H36_2 H 0.5211 0.9712 0.0699
H37_2 H 0.3487 0.9018 0.0127
C58_2 C 0.3456(6) 0.8577(8) 0.10058(17)
H38_2 H 0.3081 0.8020 0.1050
C59_2 C 0.3321(6) 0.9243(8) 0.10903(19)
H39_2 H 0.2847 0.9118 0.1191
O25_2 O 0.4295(3) 0.8134(4) 0.07834(10)
O39_4 O 0.5659(7) 0.4781(6) 0.15696(19)
N9_4 N 0.4921(10) 0.4817(10) 0.1938(3)
C91_4 C 0.5033(9) 0.4489(8) 0.1706(4)
H63_4 H 0.4578 0.3987 0.1647
C92_4 C 0.5551(12) 0.5582(10) 0.2038(4)
H64_4 H 0.5690 0.5507 0.2217
H65_4 H 0.6041 0.5786 0.1926
H66_4 H 0.5359 0.5981 0.2038
C93_4 C 0.4105(15) 0.4342(14) 0.2069(4)
H67_4 H 0.3826 0.3774 0.2004
H68_4 H 0.4182 0.4344 0.2259
H69_4 H 0.3771 0.4596 0.2028
O40_2 O 0.8477(6) 0.5831(4) 0.07838(11)
O55_2 O 0.5454(4) 0.3431(4) 0.09340(11)
O56_2 O 0.7977(6) 0.4546(4) 0.09340(11)
O4_2 O 0.5831(4) 0.7354(4) 0.92162(11)
O9_2 O 0.4546(4) 0.6569(4) 0.90660(11)
C3_2 C 0.4798(5) 0.6481(5) 0.95306(14)
C12_2 C 0.5376(5) 0.6663(6) 0.97313(18)
H3_2 H 0.5946 0.6983 0.9691
C13_2 C 0.3966(5) 0.5979(5) 0.95880(16)
H4_2 H 0.3580 0.5829 0.9449
C17_2 C 0.5072(6) 0.6828(5) 0.92533(16)
C19_2 C 0.3673(5) 0.5688(5) 0.98380(16)
H9_2 H 0.3100 0.5362 0.9872
C24_2 C 0.5135(6) 0.6384(6) 0.99916(15)
O12_2 O 0.4341(7) 0.5219(6) 0.84304(19)
N3_2 N 0.5079(10) 0.5183(10) 0.8062(3)
C29_2 C 0.4967(9) 0.5511(8) 0.8294(4)
H17_2 H 0.5422 0.6013 0.8353
C30_2 C 0.4449(12) 0.4418(10) 0.7962(4)
H18_2 H 0.4310 0.4493 0.7783
H19_2 H 0.3959 0.4214 0.8074
H20_2 H 0.4641 0.4019 0.7962
C31_2 C 0.5895(15) 0.5658(14) 0.7931(4)
H21_2 H 0.6174 0.6226 0.7996
H22_2 H 0.5818 0.5656 0.7741
H23_2 H 0.6229 0.5404 0.7972
Cu2_2 Cu 0.3813(2) 0.5805(2) 0.87165(8)
O15_2 O 0.1523(6) 0.4169(4) 0.92162(11)
O17_2 O 0.2023(6) 0.5454(4) 0.90660(11)
C33_2 C 0.1683(7) 0.5202(5) 0.95306(14)
C36_2 C 0.1287(8) 0.4624(5) 0.97313(18)
H24_2 H 0.1037 0.4054 0.9691
C37_2 C 0.2013(7) 0.6034(5) 0.95880(16)
H25_2 H 0.2249 0.6420 0.9449
C39_2 C 0.1756(8) 0.4928(6) 0.92533(16)
C40_2 C 0.2015(7) 0.6327(5) 0.98380(16)
H27_2 H 0.2262 0.6900 0.9872
C43_2 C 0.1249(8) 0.4865(6) 0.99916(15)
O21_2 O 0.2646(4) 0.8477(6) 0.92162(11)
O23_2 O 0.3431(4) 0.7977(6) 0.90660(11)
C47_2 C 0.3519(5) 0.8317(7) 0.95306(14)
C50_2 C 0.3337(6) 0.8713(8) 0.97313(18)
H32_2 H 0.3017 0.8963 0.9691
C51_2 C 0.4021(5) 0.7987(7) 0.95880(16)
H33_2 H 0.4171 0.7751 0.9449
C53_2 C 0.3172(5) 0.8244(8) 0.92533(16)
C54_2 C 0.4312(5) 0.7985(7) 0.98380(16)
H35_2 H 0.4638 0.7738 0.9872
C57_2 C 0.3616(6) 0.8751(8) 0.99916(15)
O38_3 O 0.0878(9) 0.5659(7) 0.84304(19)
N8_3 N 0.0104(14) 0.4921(10) 0.8062(3)
C88_3 C 0.0544(12) 0.5033(9) 0.8294(4)
H56_3 H 0.0591 0.4578 0.8353
H57_3 H 0.0183 0.5690 0.7783
H58_3 H 0.0255 0.6041 0.8074
H60_3 H 0.0052 0.3826 0.7996
Cu4_2 Cu 0.1992(3) 0.6187(2) 0.87165(8)
Cu6_2 Cu 0.59604(6) 0.76487(8) 0.88276(2)
Cu13_2 Cu 0.16883(6) 0.40396(6) 0.88276(2)
Cu14_2 Cu 0.23513(8) 0.83117(6) 0.88276(2)
O42_2 O 0.2845(4) 0.4370(4) 0.88983(11)
O43_2 O 0.1525(6) 0.7155(4) 0.88983(11)
O44_2 O 0.5630(4) 0.8475(6) 0.88983(11)
O47_4 O 0.5978(5) 0.7811(4) 0.84421(11)
O49_4 O 0.6354(5) 0.6861(6) 0.87660(12)
O52_2 O 0.2873(4) 0.7437(4) 0.84716(11)
O53_2 O 0.2563(4) 0.5436(6) 0.84716(11)
O54_2 O 0.4564(6) 0.7127(4) 0.84716(11)
O58_4 O 0.6976(5) 0.9390(6) 0.88436(18)
Cu15_2 Cu 0.4195(2) 0.8008(3) 0.87165(8)
O16_2 O 0.8475(6) 0.2845(4) 0.11017(11)
O18_2 O 0.9390(6) 0.2414(4) 0.11564(18)
C35_2 C 0.9922(7) 0.3807(5) 0.10250(17)
C38_2 C 0.9765(7) 0.4349(5) 0.08729(17)
H26_2 H 0.9214 0.4179 0.0823
C42_2 C 0.9222(9) 0.2971(6) 0.11029(17)
O41_3 O 0.7354(4) 0.1523(6) 0.07838(11)
O57_2 O 0.6569(4) 0.2023(6) 0.09340(11)
C89_3 C 0.9969(16) 0.5551(12) 0.7962(4)
H59_3 H 0.9378 0.5359 0.7962
C90_3 C 0.9763(21) 0.4105(15) 0.7931(4)
H61_3 H 0.9838 0.4182 0.7741
H62_3 H 0.9175 0.3771 0.7972
O41_4 O 0.4169(7) 0.2646(4) 0.07838(11)
C89_4 C 0.5582(20) 0.0031(16) 0.7962(4)
H59_4 H 0.5981 0.0622 0.7962
C90_4 C 0.4342(26) 0.0237(21) 0.7931(4)
H61_4 H 0.4344 0.0162 0.7741
H62_4 H 0.4596 0.0825 0.7972
C92_5 C 0.0031(16) 0.4449(12) 0.2038(4)
H66_5 H 0.0622 0.4641 0.2038
C93_5 C 0.0237(21) 0.5895(15) 0.2069(4)
H68_5 H 0.0162 0.5818 0.2259
H69_5 H 0.0825 0.6229 0.2028
O38_4 O 0.4781(11) 0.9122(9) 0.84304(19)
N8_4 N 0.4817(17) 0.9896(14) 0.8062(3)
C88_4 C 0.4489(15) 0.9456(12) 0.8294(4)
H56_4 H 0.3987 0.9409 0.8353
H57_4 H 0.5507 0.9817 0.7783
H58_4 H 0.5786 0.9745 0.8074
H60_4 H 0.3774 0.9948 0.7996
O47_5 O 0.1833(6) 0.4022(5) 0.84421(11)
O49_5 O 0.0507(8) 0.3646(5) 0.87660(12)
O58_5 O 0.2414(8) 0.3024(5) 0.88436(18)
O39_5 O 0.9122(9) 0.4341(7) 0.15696(19)
N9_5 N 0.9896(14) 0.5079(10) 0.1938(3)
C91_5 C 0.9456(12) 0.4967(9) 0.1706(4)
H63_5 H 0.9409 0.5422 0.1647
H64_5 H 0.9817 0.4310 0.2217
H65_5 H 0.9745 0.3959 0.1926
H67_5 H 0.9948 0.6174 0.2004
O39_6 O 0.5219(6) 0.0878(9) 0.15696(19)
N9_6 N 0.5183(10) 0.0104(14) 0.1938(3)
C91_6 C 0.5511(8) 0.0544(12) 0.1706(4)
H63_6 H 0.6013 0.0591 0.1647
H64_6 H 0.4493 0.0183 0.2217
H65_6 H 0.4214 0.0255 0.1926
H67_6 H 0.6226 0.0052 0.2004
C92_6 C 0.4418(10) 0.9969(16) 0.2038(4)
H66_6 H 0.4019 0.9378 0.2038
C93_6 C 0.5658(14) 0.9763(21) 0.2069(4)
H68_6 H 0.5656 0.9838 0.2259
H69_6 H 0.5404 0.9175 0.2028
O47_6 O 0.2189(4) 0.8167(6) 0.84421(11)
O49_6 O 0.3139(6) 0.9493(8) 0.87660(12)
O58_6 O 0.0610(6) 0.7586(8) 0.88436(18)
C35_3 C 0.6193(5) 0.0078(7) 0.60250(17)
C38_3 C 0.5651(5) 0.0235(7) 0.58729(17)
H26_3 H 0.5821 0.0786 0.5823
C42_3 C 0.7029(6) 0.0778(9) 0.61029(17)
P1_3 P 0.39503(12) 0.62980(12) 0.55079(4)
O1_3 O 0.4416(3) 0.6001(3) 0.53041(10)
N1_3 N 0.4291(3) 0.7267(3) 0.54813(12)
C2_3 C 0.4102(5) 0.5728(5) 0.50443(13)
C3_3 C 0.3519(5) 0.5202(5) 0.45306(14)
C5_3 C 0.4143(5) 0.5355(5) 0.58612(15)
O11_3 O 0.2362(5) 0.0262(4) 0.63315(18)
C8_3 C 0.3885(5) 0.3807(5) 0.60250(17)
C12_3 C 0.3337(6) 0.4624(5) 0.47313(18)
H3_3 H 0.3017 0.4054 0.4691
C13_3 C 0.4021(5) 0.6034(5) 0.45880(16)
H4_3 H 0.4171 0.6420 0.4449
C15_3 C 0.4584(5) 0.4349(5) 0.58729(17)
H6_3 H 0.4965 0.4179 0.5823
C17_3 C 0.3172(5) 0.4928(6) 0.42533(16)
C19_3 C 0.4312(5) 0.6327(5) 0.48380(16)
H9_3 H 0.4638 0.6900 0.4872
C21_3 C 0.4730(5) 0.5134(5) 0.57941(17)
H11_3 H 0.5211 0.5499 0.5699
C22_3 C 0.2903(8) 0.0043(6) 0.63177(19)
C23_3 C 0.3749(7) 0.2971(6) 0.61029(17)
C24_3 C 0.3616(6) 0.4865(6) 0.49916(15)
H12_3 H 0.3487 0.4469 0.5127
C25_3 C 0.3456(6) 0.4879(6) 0.60058(17)
H13_3 H 0.3081 0.5061 0.6050
C28_3 C 0.3321(6) 0.4078(6) 0.60903(19)
H16_3 H 0.2847 0.3729 0.6191
O13_3 O 0.4295(3) 0.6161(3) 0.57834(10)
P3_3 P 0.37020(12) 0.76523(17) 0.55079(4)
O14_3 O 0.3999(3) 0.8415(4) 0.53041(10)
N4_3 N 0.2733(3) 0.7024(4) 0.54813(12)
C32_3 C 0.4272(5) 0.8374(7) 0.50443(13)
C33_3 C 0.4798(5) 0.8317(7) 0.45306(14)
C34_3 C 0.4645(5) 0.8788(7) 0.58612(15)
C36_3 C 0.5376(5) 0.8713(8) 0.47313(18)
H24_3 H 0.5946 0.8963 0.4691
C37_3 C 0.3966(5) 0.7987(7) 0.45880(16)
H25_3 H 0.3580 0.7751 0.4449
C39_3 C 0.5072(6) 0.8244(8) 0.42533(16)
C40_3 C 0.3673(5) 0.7985(7) 0.48380(16)
H27_3 H 0.3100 0.7738 0.4872
C41_3 C 0.4866(5) 0.9596(7) 0.57941(17)
H28_3 H 0.4501 0.9712 0.5699
C43_3 C 0.5135(6) 0.8751(8) 0.49916(15)
H29_3 H 0.5531 0.9018 0.5127
C44_3 C 0.5121(6) 0.8577(8) 0.60058(17)
H30_3 H 0.4939 0.8020 0.6050
C45_3 C 0.5922(6) 0.9243(8) 0.60903(19)
H31_3 H 0.6271 0.9118 0.6191
O19_3 O 0.3839(3) 0.8134(4) 0.57834(10)
P4_3 P 0.23477(17) 0.60497(12) 0.55079(4)
O20_3 O 0.1585(4) 0.5584(3) 0.53041(10)
N5_3 N 0.2976(4) 0.5709(3) 0.54813(12)
C46_3 C 0.1626(7) 0.5898(5) 0.50443(13)
C47_3 C 0.1683(7) 0.6481(5) 0.45306(14)
C48_3 C 0.1212(7) 0.5857(5) 0.58612(15)
C50_3 C 0.1287(8) 0.6663(6) 0.47313(18)
H32_3 H 0.1037 0.6983 0.4691
C51_3 C 0.2013(7) 0.5979(5) 0.45880(16)
H33_3 H 0.2249 0.5829 0.4449
C53_3 C 0.1756(8) 0.6828(5) 0.42533(16)
C54_3 C 0.2015(7) 0.5688(5) 0.48380(16)
H35_3 H 0.2262 0.5362 0.4872
C55_3 C 0.0404(7) 0.5270(5) 0.57941(17)
H36_3 H 0.0288 0.4789 0.5699
C57_3 C 0.1249(8) 0.6384(6) 0.49916(15)
H37_3 H 0.0982 0.6513 0.5127
C58_3 C 0.1423(8) 0.6544(6) 0.60058(17)
H38_3 H 0.1980 0.6919 0.6050
C59_3 C 0.0757(8) 0.6679(6) 0.60903(19)
H39_3 H 0.0882 0.7153 0.6191
O25_3 O 0.1866(4) 0.5705(3) 0.57834(10)
P2_3 P 0.26002(13) 0.68800(13) 0.70347(4)
O2_3 O 0.2024(3) 0.7073(3) 0.72214(9)
O3_3 O 0.2228(3) 0.6924(3) 0.67508(9)
N2_3 N 0.3538(4) 0.7585(4) 0.70712(12)
C1_3 C 0.2407(5) 0.7726(5) 0.66470(15)
C4_3 C 0.2166(5) 0.7221(5) 0.75009(16)
C6_3 C 0.2485(5) 0.7727(5) 0.83392(16)
C7_3 C 0.2205(5) 0.6657(5) 0.76709(14)
H1_3 H 0.2154 0.6161 0.7604
C9_3 C 0.2721(5) 0.9226(5) 0.64261(16)
C10_3 C 0.2376(5) 0.7555(5) 0.80387(16)
C11_3 C 0.2319(5) 0.6827(5) 0.79407(15)
H2_3 H 0.2357 0.6451 0.8057
C14_3 C 0.3103(6) 0.8151(5) 0.64812(16)
H5_3 H 0.3459 0.7940 0.6444
C16_3 C 0.3238(6) 0.8890(6) 0.63759(17)
H7_3 H 0.3700 0.9187 0.6264
C18_3 C 0.1841(5) 0.7989(6) 0.66992(19)
H8_3 H 0.1367 0.7675 0.6805
C20_3 C 0.2305(6) 0.8118(5) 0.78675(18)
H10_3 H 0.2305 0.8589 0.7935
C26_3 C 0.2019(6) 0.8755(6) 0.6585(2)
H14_3 H 0.1652 0.8957 0.6617
C27_3 C 0.2236(6) 0.7953(6) 0.75923(16)
H15_3 H 0.2237 0.8341 0.7472
P5_3 P 0.31200(13) 0.57202(18) 0.70347(4)
O26_3 O 0.2927(3) 0.4951(4) 0.72214(9)
O27_3 O 0.3076(3) 0.5304(4) 0.67508(9)
N6_3 N 0.2415(4) 0.5953(6) 0.70712(12)
C60_3 C 0.2274(5) 0.4681(7) 0.66470(15)
C61_3 C 0.2779(5) 0.4945(7) 0.75009(16)
C62_3 C 0.2273(5) 0.4758(7) 0.83392(16)
C63_3 C 0.3343(5) 0.5548(7) 0.76709(14)
H40_3 H 0.3839 0.5993 0.7604
C64_3 C 0.0774(5) 0.3495(7) 0.64261(16)
C65_3 C 0.2445(5) 0.4821(7) 0.80387(16)
C66_3 C 0.3173(5) 0.5492(7) 0.79407(15)
H41_3 H 0.3549 0.5906 0.8057
C67_3 C 0.1849(5) 0.4952(8) 0.64812(16)
H42_3 H 0.2060 0.5519 0.6444
C68_3 C 0.1110(6) 0.4348(8) 0.63759(17)
H43_3 H 0.0813 0.4513 0.6264
C69_3 C 0.2011(6) 0.3852(8) 0.66992(19)
H44_3 H 0.2325 0.3692 0.6805
C70_3 C 0.1882(5) 0.4187(8) 0.78675(18)
H45_3 H 0.1411 0.3716 0.7935
C72_3 C 0.1245(6) 0.3264(8) 0.6585(2)
H46_3 H 0.1043 0.2695 0.6617
C73_3 C 0.2047(6) 0.4283(8) 0.75923(16)
H47_3 H 0.1659 0.3896 0.7472
P6_3 P 0.42798(18) 0.73998(13) 0.70347(4)
O32_3 O 0.5049(4) 0.7976(3) 0.72214(9)
O33_3 O 0.4696(4) 0.7772(3) 0.67508(9)
N7_3 N 0.4047(6) 0.6462(4) 0.70712(12)
C74_3 C 0.5319(7) 0.7593(5) 0.66470(15)
C75_3 C 0.5055(7) 0.7834(5) 0.75009(16)
O37_3 O 0.7900(6) 0.7638(5) 0.63315(18)
C76_3 C 0.5242(7) 0.7515(5) 0.83392(16)
C77_3 C 0.4452(7) 0.7795(5) 0.76709(14)
H48_3 H 0.4007 0.7846 0.7604
C78_3 C 0.6505(7) 0.7279(5) 0.64261(16)
C79_3 C 0.5179(7) 0.7624(5) 0.80387(16)
C80_3 C 0.4508(7) 0.7681(5) 0.79407(15)
H49_3 H 0.4094 0.7643 0.8057
C81_3 C 0.5048(8) 0.6897(6) 0.64812(16)
H50_3 H 0.4481 0.6541 0.6444
C82_3 C 0.5652(8) 0.6762(6) 0.63759(17)
H51_3 H 0.5487 0.6300 0.6264
C83_3 C 0.6148(8) 0.8159(5) 0.66992(19)
H52_3 H 0.6308 0.8633 0.6805
C84_3 C 0.5813(8) 0.7695(6) 0.78675(18)
H53_3 H 0.6284 0.7695 0.7935
C85_3 C 0.7140(10) 0.7097(8) 0.63177(19)
C86_3 C 0.6736(8) 0.7981(6) 0.6585(2)
H54_3 H 0.7305 0.8348 0.6617
C87_3 C 0.5717(8) 0.7764(6) 0.75923(16)
H55_3 H 0.6104 0.7763 0.7472
C49_3 C 0.9922(7) 0.6115(5) 0.60250(17)
C52_3 C 0.9765(7) 0.5416(5) 0.58729(17)
H34_3 H 0.9214 0.5035 0.5823
C56_3 C 0.9222(9) 0.6251(7) 0.61029(17)
O31_3 O 0.9738(4) 0.2100(6) 0.63315(18)
C71_3 C 0.9957(6) 0.2860(10) 0.63177(19)
C35_4 C 0.0078(7) 0.6193(5) 0.89750(17)
C38_4 C 0.0235(7) 0.5651(5) 0.91271(17)
H26_4 H 0.0786 0.5821 0.9177
C42_4 C 0.0778(9) 0.7029(6) 0.88971(17)
C3_4 C 0.5202(5) 0.3519(5) 0.04694(14)
C12_4 C 0.4624(5) 0.3337(6) 0.02687(18)
H3_4 H 0.4054 0.3017 0.0309
C13_4 C 0.6034(5) 0.4021(5) 0.04120(16)
H4_4 H 0.6420 0.4171 0.0551
C17_4 C 0.4928(6) 0.3172(5) 0.07467(16)
C19_4 C 0.6327(5) 0.4312(5) 0.01620(16)
H9_4 H 0.6900 0.4638 0.0128
C24_4 C 0.4865(6) 0.3616(6) 0.00084(15)
C33_4 C 0.8317(7) 0.4798(5) 0.04694(14)
C36_4 C 0.8713(8) 0.5376(5) 0.02687(18)
H24_4 H 0.8963 0.5946 0.0309
C37_4 C 0.7987(7) 0.3966(5) 0.04120(16)
H25_4 H 0.7751 0.3580 0.0551
C39_4 C 0.8244(8) 0.5072(6) 0.07467(16)
C40_4 C 0.7985(7) 0.3673(5) 0.01620(16)
H27_4 H 0.7738 0.3100 0.0128
C43_4 C 0.8751(8) 0.5135(6) 0.00084(15)
C47_4 C 0.6481(5) 0.1683(7) 0.04694(14)
C50_4 C 0.6663(6) 0.1287(8) 0.02687(18)
H32_4 H 0.6983 0.1037 0.0309
C51_4 C 0.5979(5) 0.2013(7) 0.04120(16)
H33_4 H 0.5829 0.2249 0.0551
C53_4 C 0.6828(5) 0.1756(8) 0.07467(16)
C54_4 C 0.5688(5) 0.2015(7) 0.01620(16)
H35_4 H 0.5362 0.2262 0.0128
C57_4 C 0.6384(6) 0.1249(8) 0.00084(15)
P1_4 P 0.62980(12) 0.39503(12) 0.94921(4)
O1_4 O 0.6001(3) 0.4416(3) 0.96959(10)
N1_4 N 0.7267(3) 0.4291(3) 0.95187(12)
C2_4 C 0.5728(5) 0.4102(5) 0.99557(13)
C5_4 C 0.5355(5) 0.4143(5) 0.91388(15)
O11_4 O 0.0262(4) 0.2362(5) 0.86685(18)
C8_4 C 0.3807(5) 0.3885(5) 0.89750(17)
C15_4 C 0.4349(5) 0.4584(5) 0.91271(17)
H6_4 H 0.4179 0.4965 0.9177
C21_4 C 0.5134(5) 0.4730(5) 0.92059(17)
H11_4 H 0.5499 0.5211 0.9301
C22_4 C 0.0043(6) 0.2903(8) 0.86823(19)
C23_4 C 0.2971(6) 0.3749(7) 0.88971(17)
H12_4 H 0.4469 0.3487 0.9873
C25_4 C 0.4879(6) 0.3456(6) 0.89942(17)
H13_4 H 0.5061 0.3081 0.8950
C28_4 C 0.4078(6) 0.3321(6) 0.89097(19)
H16_4 H 0.3729 0.2847 0.8809
O13_4 O 0.6161(3) 0.4295(3) 0.92166(10)
P3_4 P 0.76523(17) 0.37020(12) 0.94921(4)
O14_4 O 0.8415(4) 0.3999(3) 0.96959(10)
N4_4 N 0.7024(4) 0.2733(3) 0.95187(12)
C32_4 C 0.8374(7) 0.4272(5) 0.99557(13)
C34_4 C 0.8788(7) 0.4645(5) 0.91388(15)
C41_4 C 0.9596(7) 0.4866(5) 0.92059(17)
H28_4 H 0.9712 0.4501 0.9301
H29_4 H 0.9018 0.5531 0.9873
C44_4 C 0.8577(8) 0.5121(6) 0.89942(17)
H30_4 H 0.8020 0.4939 0.8950
C45_4 C 0.9243(8) 0.5922(6) 0.89097(19)
H31_4 H 0.9118 0.6271 0.8809
O19_4 O 0.8134(4) 0.3839(3) 0.92166(10)
P4_4 P 0.60497(12) 0.23477(17) 0.94921(4)
O20_4 O 0.5584(3) 0.1585(4) 0.96959(10)
N5_4 N 0.5709(3) 0.2976(4) 0.95187(12)
C46_4 C 0.5898(5) 0.1626(7) 0.99557(13)
C48_4 C 0.5857(5) 0.1212(7) 0.91388(15)
C55_4 C 0.5270(5) 0.0404(7) 0.92059(17)
H36_4 H 0.4789 0.0288 0.9301
H37_4 H 0.6513 0.0982 0.9873
C58_4 C 0.6544(6) 0.1423(8) 0.89942(17)
H38_4 H 0.6919 0.1980 0.8950
C59_4 C 0.6679(6) 0.0757(8) 0.89097(19)
H39_4 H 0.7153 0.0882 0.8809
O25_4 O 0.5705(3) 0.1866(4) 0.92166(10)
C49_4 C 0.6115(5) 0.9922(7) 0.89750(17)
C52_4 C 0.5416(5) 0.9765(7) 0.91271(17)
H34_4 H 0.5035 0.9214 0.9177
C56_4 C 0.6251(7) 0.9222(9) 0.88971(17)
P2_4 P 0.68800(13) 0.26002(13) 0.79653(4)
O2_4 O 0.7073(3) 0.2024(3) 0.77786(9)
O3_4 O 0.6924(3) 0.2228(3) 0.82492(9)
N2_4 N 0.7585(4) 0.3538(4) 0.79288(12)
C1_4 C 0.7726(5) 0.2407(5) 0.83530(15)
C4_4 C 0.7221(5) 0.2166(5) 0.74991(16)
C6_4 C 0.7727(5) 0.2485(5) 0.66608(16)
C7_4 C 0.6657(5) 0.2205(5) 0.73291(14)
H1_4 H 0.6161 0.2154 0.7396
C9_4 C 0.9226(5) 0.2721(5) 0.85739(16)
C10_4 C 0.7555(5) 0.2376(5) 0.69613(16)
C11_4 C 0.6827(5) 0.2319(5) 0.70593(15)
H2_4 H 0.6451 0.2357 0.6943
C14_4 C 0.8151(5) 0.3103(6) 0.85188(16)
H5_4 H 0.7940 0.3459 0.8556
C16_4 C 0.8890(6) 0.3238(6) 0.86241(17)
H7_4 H 0.9187 0.3700 0.8736
C18_4 C 0.7989(6) 0.1841(5) 0.83008(19)
H8_4 H 0.7675 0.1367 0.8195
C20_4 C 0.8118(5) 0.2305(6) 0.71325(18)
H10_4 H 0.8589 0.2305 0.7065
C26_4 C 0.8755(6) 0.2019(6) 0.8415(2)
H14_4 H 0.8957 0.1652 0.8383
C27_4 C 0.7953(6) 0.2236(6) 0.74077(16)
H15_4 H 0.8341 0.2237 0.7528
P5_4 P 0.57202(18) 0.31200(13) 0.79653(4)
O26_4 O 0.4951(4) 0.2927(3) 0.77786(9)
O27_4 O 0.5304(4) 0.3076(3) 0.82492(9)
N6_4 N 0.5953(6) 0.2415(4) 0.79288(12)
C60_4 C 0.4681(7) 0.2274(5) 0.83530(15)
C61_4 C 0.4945(7) 0.2779(5) 0.74991(16)
C62_4 C 0.4758(7) 0.2273(5) 0.66608(16)
C63_4 C 0.5548(7) 0.3343(5) 0.73291(14)
H40_4 H 0.5993 0.3839 0.7396
C64_4 C 0.3495(7) 0.0774(5) 0.85739(16)
C65_4 C 0.4821(7) 0.2445(5) 0.69613(16)
C66_4 C 0.5492(7) 0.3173(5) 0.70593(15)
H41_4 H 0.5906 0.3549 0.6943
C67_4 C 0.4952(8) 0.1849(5) 0.85188(16)
H42_4 H 0.5519 0.2060 0.8556
C68_4 C 0.4348(8) 0.1110(6) 0.86241(17)
H43_4 H 0.4513 0.0813 0.8736
C69_4 C 0.3852(8) 0.2011(6) 0.83008(19)
H44_4 H 0.3692 0.2325 0.8195
C70_4 C 0.4187(8) 0.1882(5) 0.71325(18)
H45_4 H 0.3716 0.1411 0.7065
C72_4 C 0.3264(8) 0.1245(6) 0.8415(2)
H46_4 H 0.2695 0.1043 0.8383
C73_4 C 0.4283(8) 0.2047(6) 0.74077(16)
H47_4 H 0.3896 0.1659 0.7528
P6_4 P 0.73998(13) 0.42798(18) 0.79653(4)
O32_4 O 0.7976(3) 0.5049(4) 0.77786(9)
O33_4 O 0.7772(3) 0.4696(4) 0.82492(9)
N7_4 N 0.6462(4) 0.4047(6) 0.79288(12)
C74_4 C 0.7593(5) 0.5319(7) 0.83530(15)
C75_4 C 0.7834(5) 0.5055(7) 0.74991(16)
O37_4 O 0.7638(5) 0.7900(6) 0.86685(18)
C76_4 C 0.7515(5) 0.5242(7) 0.66608(16)
C77_4 C 0.7795(5) 0.4452(7) 0.73291(14)
H48_4 H 0.7846 0.4007 0.7396
C78_4 C 0.7279(5) 0.6505(7) 0.85739(16)
C79_4 C 0.7624(5) 0.5179(7) 0.69613(16)
C80_4 C 0.7681(5) 0.4508(7) 0.70593(15)
H49_4 H 0.7643 0.4094 0.6943
C81_4 C 0.6897(6) 0.5048(8) 0.85188(16)
H50_4 H 0.6541 0.4481 0.8556
C82_4 C 0.6762(6) 0.5652(8) 0.86241(17)
H51_4 H 0.6300 0.5487 0.8736
C83_4 C 0.8159(5) 0.6148(8) 0.83008(19)
H52_4 H 0.8633 0.6308 0.8195
C84_4 C 0.7695(6) 0.5813(8) 0.71325(18)
H53_4 H 0.7695 0.6284 0.7065
C85_4 C 0.7097(8) 0.7140(10) 0.86823(19)
C86_4 C 0.7981(6) 0.6736(8) 0.8415(2)
H54_4 H 0.8348 0.7305 0.8383
C87_4 C 0.7764(6) 0.5717(8) 0.74077(16)
H55_4 H 0.7763 0.6104 0.7528
O31_4 O 0.2100(6) 0.9738(4) 0.86685(18)
C71_4 C 0.2860(10) 0.9957(6) 0.86823(19)
loop_
_geom_bond_atom_site_label_1
_geom_bond_atom_site_label_2
_geom_bond_site_symmetry_1
_geom_bond_site_symmetry_2
O29 C71 1_555 1_555
O31 C71 1_555 1_555
Cu7 O29 1_555 1_555
O22 C56 1_555 1_555
O24 C56 1_555 1_555
C49 C52 1_555 1_555
C52 H34 1_555 1_555
C56 C49 1_555 1_555
Cu9 O22 1_555 1_555
Cu17 O22 1_555 1_555
O24 Cu9 1_555 1_555
P2 O2 1_555 1_555
O2 C4 1_555 1_555
O3 P2 1_555 1_555
O6 C6 1_555 1_555
O8 C6 1_555 1_555
N2 P2 1_555 1_555
C1 O3 1_555 1_555
C4 C7 1_555 1_555
C6 C10 1_555 1_555
C7 H1 1_555 1_555
C9 C16 1_555 1_555
C10 C11 1_555 1_555
C11 C7 1_555 1_555
H2 C11 1_555 1_555
C14 C1 1_555 1_555
H5 C14 1_555 1_555
C16 C14 1_555 1_555
H7 C16 1_555 1_555
C18 C1 1_555 1_555
H8 C18 1_555 1_555
C20 C10 1_555 1_555
H10 C20 1_555 1_555
C26 C9 1_555 1_555
H14 C26 1_555 1_555
C27 C4 1_555 1_555
H15 C27 1_555 1_555
P5 O26 1_555 1_555
O26 C61 1_555 1_555
O27 P5 1_555 1_555
O28 C62 1_555 1_555
O30 C62 1_555 1_555
N6 P2 1_555 1_555
C60 O27 1_555 1_555
C61 C63 1_555 1_555
C62 C65 1_555 1_555
C63 H40 1_555 1_555
C64 C68 1_555 1_555
C65 C66 1_555 1_555
C66 C63 1_555 1_555
H41 C66 1_555 1_555
C67 C60 1_555 1_555
H42 C67 1_555 1_555
C68 C67 1_555 1_555
H43 C68 1_555 1_555
C69 C60 1_555 1_555
H44 C69 1_555 1_555
C70 C65 1_555 1_555
H45 C70 1_555 1_555
C72 C64 1_555 1_555
H46 C72 1_555 1_555
C73 C61 1_555 1_555
H47 C73 1_555 1_555
P6 N2 1_555 1_555
O32 P6 1_555 1_555
O33 P6 1_555 1_555
O34 C76 1_555 1_555
O35 C85 1_555 1_555
O36 C76 1_555 1_555
N7 P5 1_555 1_555
C74 O33 1_555 1_555
C75 O32 1_555 1_555
O37 C85 1_555 1_555
C76 C79 1_555 1_555
C77 C75 1_555 1_555
H48 C77 1_555 1_555
C78 C82 1_555 1_555
C79 C80 1_555 1_555
C80 C77 1_555 1_555
H49 C80 1_555 1_555
C81 C74 1_555 1_555
H50 C81 1_555 1_555
C82 C81 1_555 1_555
H51 C82 1_555 1_555
C83 C74 1_555 1_555
H52 C83 1_555 1_555
C84 C79 1_555 1_555
H53 C84 1_555 1_555
C85 C78 1_555 1_555
C86 C78 1_555 1_555
H54 C86 1_555 1_555
C87 C75 1_555 1_555
H55 C87 1_555 1_555
Cu9 O35 1_555 1_555
Cu10 O28 1_555 1_555
Cu11 O6 1_555 1_555
Cu12 O34 1_555 1_555
Cu18 O30 1_555 1_555
Cu19 O8 1_555 1_555
Cu20 O8 1_555 1_555
C18 C26 1_555 1_555
C20 C27 1_555 1_555
P5 N6 1_555 1_555
O30 Cu19 1_555 1_555
C69 C72 1_555 1_555
C70 C73 1_555 1_555
P6 N7 1_555 1_555
O36 Cu18 1_555 1_555
O36 Cu20 1_555 1_555
C83 C86 1_555 1_555
C84 C87 1_555 1_555
Cu1 O5 1_555 1_555
P1 O1 1_555 1_555
O1 C2 1_555 1_555
O4 C17 1_555 1_555
O5 C23 1_555 1_555
O7 Cu1 1_555 1_555
O9 C17 1_555 1_555
N1 P1 1_555 1_555
O10 Cu1 1_555 1_555
C2 C19 1_555 1_555
C3 C12 1_555 1_555
C5 C21 1_555 1_555
O11 C22 1_555 1_555
C8 C15 1_555 1_555
C12 H3 1_555 1_555
C13 C3 1_555 1_555
H4 C13 1_555 1_555
C15 H6 1_555 1_555
C17 C3 1_555 1_555
C19 C13 1_555 1_555
H9 C19 1_555 1_555
C21 C15 1_555 1_555
H11 C21 1_555 1_555
C22 O7 1_555 1_555
C23 O10 1_555 1_555
C24 C2 1_555 1_555
H12 C24 1_555 1_555
O12 C29 1_555 1_555
C25 C5 1_555 1_555
H13 C25 1_555 1_555
C28 C8 1_555 1_555
H16 C28 1_555 1_555
N3 C29 1_555 1_555
C29 H17 1_555 1_555
C30 N3 1_555 1_555
H18 C30 1_555 1_555
H19 C30 1_555 1_555
H20 C30 1_555 1_555
C31 N3 1_555 1_555
H21 C31 1_555 1_555
H22 C31 1_555 1_555
H23 C31 1_555 1_555
Cu2 O9 1_555 1_555
O13 P1 1_555 1_555
P3 N1 1_555 1_555
O14 P3 1_555 1_555
O15 C39 1_555 1_555
O17 C39 1_555 1_555
N4 P3 1_555 1_555
C32 O14 1_555 1_555
C33 C36 1_555 1_555
C34 C41 1_555 1_555
C36 H24 1_555 1_555
C37 C33 1_555 1_555
H25 C37 1_555 1_555
C39 C33 1_555 1_555
C40 C32 1_555 1_555
H27 C40 1_555 1_555
H28 C41 1_555 1_555
C43 C32 1_555 1_555
H29 C43 1_555 1_555
C44 C34 1_555 1_555
H30 C44 1_555 1_555
H31 C45 1_555 1_555
O19 P3 1_555 1_555
P4 N4 1_555 1_555
O20 P4 1_555 1_555
O21 C53 1_555 1_555
O23 C53 1_555 1_555
N5 P1 1_555 1_555
C46 O20 1_555 1_555
C47 C50 1_555 1_555
C48 C55 1_555 1_555
C50 H32 1_555 1_555
C51 C47 1_555 1_555
H33 C51 1_555 1_555
C53 C47 1_555 1_555
C54 C46 1_555 1_555
H35 C54 1_555 1_555
H36 C55 1_555 1_555
C57 C46 1_555 1_555
H37 C57 1_555 1_555
C58 C48 1_555 1_555
H38 C58 1_555 1_555
H39 C59 1_555 1_555
O25 P4 1_555 1_555
O38 C88 1_555 1_555
N8 C88 1_555 1_555
C88 H56 1_555 1_555
Cu4 O17 1_555 1_555
O39 C91 1_555 1_555
N9 C91 1_555 1_555
C91 H63 1_555 1_555
C92 N9 1_555 1_555
H64 C92 1_555 1_555
H65 C92 1_555 1_555
H66 C92 1_555 1_555
C93 N9 1_555 1_555
H67 C93 1_555 1_555
H68 C93 1_555 1_555
H69 C93 1_555 1_555
Cu5 O5 1_555 1_555
Cu6 O4 1_555 1_555
Cu13 O15 1_555 1_555
Cu14 O21 1_555 1_555
O40 Cu1 1_555 1_555
O42 Cu2 1_555 1_555
O43 Cu4 1_555 1_555
O44 Cu6 1_555 1_555
O46 Cu1 1_555 1_555
O47 Cu6 1_555 1_555
O49 Cu6 1_555 1_555
O50 Cu5 1_555 1_555
O51 Cu5 1_555 1_555
O52 Cu4 1_555 1_555
O53 Cu2 1_555 1_555
O54 Cu2 1_555 1_555
O55 Cu5 1_555 1_555
O56 Cu1 1_555 1_555
O58 Cu6 1_555 1_555
Cu15 O23 1_555 1_555
O9 Cu6 1_555 1_555
C5 O13 1_555 1_555
C8 C23 1_555 1_555
C12 C24 1_555 1_555
O12 Cu2 1_555 1_555
C25 C28 1_555 1_555
O17 Cu13 1_555 1_555
C34 O19 1_555 1_555
C36 C43 1_555 1_555
C37 C40 1_555 1_555
C44 C45 1_555 1_555
P4 N5 1_555 1_555
O23 Cu14 1_555 1_555
C48 O25 1_555 1_555
C50 C57 1_555 1_555
C51 C54 1_555 1_555
C58 C59 1_555 1_555
O38 Cu4 1_555 1_555
Cu4 O53 1_555 1_555
O39 Cu5 1_555 1_555
Cu13 O42 1_555 1_555
Cu14 O43 1_555 1_555
O44 Cu15 1_555 1_555
O52 Cu15 1_555 1_555
O54 Cu15 1_555 1_555
O16 C42 1_555 1_555
O18 C42 1_555 1_555
C35 C38 1_555 1_555
C38 H26 1_555 1_555
C42 C35 1_555 1_555
Cu7 O16 1_555 1_555
H59 C89 1_555 1_555
H61 C90 1_555 1_555
H62 C90 1_555 1_555
O41 Cu7 1_555 1_555
O45 Cu7 1_555 1_555
O57 Cu7 1_555 1_555
Cu16 O16 1_555 1_555
O18 Cu7 1_555 1_555
H59_2 C89_2 1_555 1_555
H61_2 C90_2 1_555 1_555
H62_2 C90_2 1_555 1_555
O41_2 Cu9 1_555 1_555
O45_2 Cu9 1_555 1_555
O55 Cu9 1_555 1_555
O38_2 C88_2 1_555 1_555
N8_2 C88_2 1_555 1_555
C88_2 H56_2 1_555 1_555
H66_2 C92_2 1_555 1_555
H68_2 C93_2 1_555 1_555
H69_2 C93_2 1_555 1_555
O47_2 Cu13 1_555 1_555
O49_2 Cu13 1_555 1_555
O58_2 Cu13 1_555 1_555
O38_2 Cu15 1_555 1_555
O39_2 C91_2 1_555 1_555
N9_2 C91_2 1_555 1_555
C91_2 H63_2 1_555 1_555
O50_2 Cu16 1_555 1_555
O50 Cu16 1_555 1_555
O56 Cu16 1_555 1_555
O39_2 Cu16 1_555 1_555
O39_3 C91_3 1_555 1_555
N9_3 C91_3 1_555 1_555
C91_3 H63_3 1_555 1_555
O51 Cu17 1_555 1_555
O50_2 Cu17 1_555 1_555
O57 Cu17 1_555 1_555
O39_3 Cu17 1_555 1_555
H66_3 C92_3 1_555 1_555
H68_3 C93_3 1_555 1_555
H69_3 C93_3 1_555 1_555
O47_3 Cu14 1_555 1_555
O49_3 Cu14 1_555 1_555
O58_3 Cu14 1_555 1_555
O29_2 C71_2 1_555 1_555
O31_2 C71_2 1_555 1_555
Cu11 O29_2 1_555 1_555
P2_2 O2_2 1_555 1_555
O2_2 C4_2 1_555 1_555
O3_2 P2_2 1_555 1_555
O45 C6_2 1_555 1_555
O50_2 C6_2 1_555 1_555
N2_2 P2_2 1_555 1_555
C1_2 O3_2 1_555 1_555
C4_2 C7_2 1_555 1_555
C6_2 C10_2 1_555 1_555
C7_2 H1_2 1_555 1_555
C9_2 C16_2 1_555 1_555
C10_2 C11_2 1_555 1_555
C11_2 C7_2 1_555 1_555
H2_2 C11_2 1_555 1_555
C14_2 C1_2 1_555 1_555
H5_2 C14_2 1_555 1_555
C16_2 C14_2 1_555 1_555
H7_2 C16_2 1_555 1_555
C18_2 C1_2 1_555 1_555
H8_2 C18_2 1_555 1_555
C20_2 C10_2 1_555 1_555
H10_2 C20_2 1_555 1_555
C26_2 C9_2 1_555 1_555
H14_2 C26_2 1_555 1_555
C27_2 C4_2 1_555 1_555
H15_2 C27_2 1_555 1_555
P5_2 O26_2 1_555 1_555
O26_2 C61_2 1_555 1_555
O27_2 P5_2 1_555 1_555
O46 C62_2 1_555 1_555
O50 C62_2 1_555 1_555
N6_2 P2_2 1_555 1_555
C60_2 O27_2 1_555 1_555
C61_2 C63_2 1_555 1_555
C62_2 C65_2 1_555 1_555
C63_2 H40_2 1_555 1_555
C64_2 C68_2 1_555 1_555
C65_2 C66_2 1_555 1_555
C66_2 C63_2 1_555 1_555
H41_2 C66_2 1_555 1_555
C67_2 C60_2 1_555 1_555
H42_2 C67_2 1_555 1_555
C68_2 C67_2 1_555 1_555
H43_2 C68_2 1_555 1_555
C69_2 C60_2 1_555 1_555
H44_2 C69_2 1_555 1_555
C70_2 C65_2 1_555 1_555
H45_2 C70_2 1_555 1_555
C72_2 C64_2 1_555 1_555
H46_2 C72_2 1_555 1_555
C73_2 C61_2 1_555 1_555
H47_2 C73_2 1_555 1_555
P6_2 N2_2 1_555 1_555
O32_2 P6_2 1_555 1_555
O33_2 P6_2 1_555 1_555
O45_2 C76_2 1_555 1_555
O35_2 C85_2 1_555 1_555
O51 C76_2 1_555 1_555
N7_2 P5_2 1_555 1_555
C74_2 O33_2 1_555 1_555
C75_2 O32_2 1_555 1_555
O37_2 C85_2 1_555 1_555
C76_2 C79_2 1_555 1_555
C77_2 C75_2 1_555 1_555
H48_2 C77_2 1_555 1_555
C78_2 C82_2 1_555 1_555
C79_2 C80_2 1_555 1_555
C80_2 C77_2 1_555 1_555
H49_2 C80_2 1_555 1_555
C81_2 C74_2 1_555 1_555
H50_2 C81_2 1_555 1_555
C82_2 C81_2 1_555 1_555
H51_2 C82_2 1_555 1_555
C83_2 C74_2 1_555 1_555
H52_2 C83_2 1_555 1_555
C84_2 C79_2 1_555 1_555
H53_2 C84_2 1_555 1_555
C85_2 C78_2 1_555 1_555
C86_2 C78_2 1_555 1_555
H54_2 C86_2 1_555 1_555
C87_2 C75_2 1_555 1_555
H55_2 C87_2 1_555 1_555
Cu12 O35_2 1_555 1_555
C18_2 C26_2 1_555 1_555
C20_2 C27_2 1_555 1_555
P5_2 N6_2 1_555 1_555
C69_2 C72_2 1_555 1_555
C70_2 C73_2 1_555 1_555
P6_2 N7_2 1_555 1_555
C83_2 C86_2 1_555 1_555
C84_2 C87_2 1_555 1_555
O22_2 C56_2 1_555 1_555
O24_2 C56_2 1_555 1_555
C49_2 C52_2 1_555 1_555
C52_2 H34_2 1_555 1_555
C56_2 C49_2 1_555 1_555
Cu12 O22_2 1_555 1_555
Cu20 O22_2 1_555 1_555
O24_2 Cu12 1_555 1_555
Cu10 O5_2 1_555 1_555
P1_2 O1_2 1_555 1_555
O1_2 C2_2 1_555 1_555
O5_2 C23_2 1_555 1_555
O7_2 Cu10 1_555 1_555
N1_2 P1_2 1_555 1_555
O10_2 Cu10 1_555 1_555
C5_2 C21_2 1_555 1_555
O11_2 C22_2 1_555 1_555
C8_2 C15_2 1_555 1_555
C15_2 H6_2 1_555 1_555
C21_2 C15_2 1_555 1_555
H11_2 C21_2 1_555 1_555
C22_2 O7_2 1_555 1_555
C23_2 O10_2 1_555 1_555
C25_2 C5_2 1_555 1_555
H13_2 C25_2 1_555 1_555
C28_2 C8_2 1_555 1_555
H16_2 C28_2 1_555 1_555
O13_2 P1_2 1_555 1_555
P3_2 N1_2 1_555 1_555
O14_2 P3_2 1_555 1_555
N4_2 P3_2 1_555 1_555
C32_2 O14_2 1_555 1_555
C34_2 C41_2 1_555 1_555
H28_2 C41_2 1_555 1_555
C44_2 C34_2 1_555 1_555
H30_2 C44_2 1_555 1_555
H31_2 C45_2 1_555 1_555
O19_2 P3_2 1_555 1_555
P4_2 N4_2 1_555 1_555
O20_2 P4_2 1_555 1_555
N5_2 P1_2 1_555 1_555
C46_2 O20_2 1_555 1_555
C48_2 C55_2 1_555 1_555
H36_2 C55_2 1_555 1_555
C58_2 C48_2 1_555 1_555
H38_2 C58_2 1_555 1_555
H39_2 C59_2 1_555 1_555
O25_2 P4_2 1_555 1_555
O39_4 C91_4 1_555 1_555
N9_4 C91_4 1_555 1_555
C91_4 H63_4 1_555 1_555
C92_4 N9_4 1_555 1_555
H64_4 C92_4 1_555 1_555
H65_4 C92_4 1_555 1_555
H66_4 C92_4 1_555 1_555
C93_4 N9_4 1_555 1_555
H67_4 C93_4 1_555 1_555
H68_4 C93_4 1_555 1_555
H69_4 C93_4 1_555 1_555
Cu18 O5_2 1_555 1_555
O40_2 Cu10 1_555 1_555
O55_2 Cu18 1_555 1_555
O56_2 Cu10 1_555 1_555
C5_2 O13_2 1_555 1_555
C8_2 C23_2 1_555 1_555
C25_2 C28_2 1_555 1_555
C34_2 O19_2 1_555 1_555
C44_2 C45_2 1_555 1_555
P4_2 N5_2 1_555 1_555
C48_2 O25_2 1_555 1_555
C58_2 C59_2 1_555 1_555
O39_4 Cu18 1_555 1_555
O4_2 C17_2 1_555 1_555
O9_2 C17_2 1_555 1_555
C3_2 C12_2 1_555 1_555
C12_2 H3_2 1_555 1_555
C13_2 C3_2 1_555 1_555
H4_2 C13_2 1_555 1_555
C17_2 C3_2 1_555 1_555
C19_2 C13_2 1_555 1_555
H9_2 C19_2 1_555 1_555
O12_2 C29_2 1_555 1_555
N3_2 C29_2 1_555 1_555
C29_2 H17_2 1_555 1_555
C30_2 N3_2 1_555 1_555
H18_2 C30_2 1_555 1_555
H19_2 C30_2 1_555 1_555
H20_2 C30_2 1_555 1_555
C31_2 N3_2 1_555 1_555
H21_2 C31_2 1_555 1_555
H22_2 C31_2 1_555 1_555
H23_2 C31_2 1_555 1_555
Cu2_2 O9_2 1_555 1_555
O15_2 C39_2 1_555 1_555
O17_2 C39_2 1_555 1_555
C33_2 C36_2 1_555 1_555
C36_2 H24_2 1_555 1_555
C37_2 C33_2 1_555 1_555
H25_2 C37_2 1_555 1_555
C39_2 C33_2 1_555 1_555
H27_2 C40_2 1_555 1_555
O21_2 C53_2 1_555 1_555
O23_2 C53_2 1_555 1_555
C47_2 C50_2 1_555 1_555
C50_2 H32_2 1_555 1_555
C51_2 C47_2 1_555 1_555
H33_2 C51_2 1_555 1_555
C53_2 C47_2 1_555 1_555
H35_2 C54_2 1_555 1_555
O38_3 C88_3 1_555 1_555
N8_3 C88_3 1_555 1_555
C88_3 H56_3 1_555 1_555
Cu4_2 O17_2 1_555 1_555
Cu6_2 O4_2 1_555 1_555
Cu13_2 O15_2 1_555 1_555
Cu14_2 O21_2 1_555 1_555
O42_2 Cu2_2 1_555 1_555
O43_2 Cu4_2 1_555 1_555
O44_2 Cu6_2 1_555 1_555
O47_4 Cu6_2 1_555 1_555
O49_4 Cu6_2 1_555 1_555
O52_2 Cu4_2 1_555 1_555
O53_2 Cu2_2 1_555 1_555
O54_2 Cu2_2 1_555 1_555
O58_4 Cu6_2 1_555 1_555
Cu15_2 O23_2 1_555 1_555
O9_2 Cu6_2 1_555 1_555
C12_2 C24_2 1_555 1_555
O12_2 Cu2_2 1_555 1_555
O17_2 Cu13_2 1_555 1_555
C36_2 C43_2 1_555 1_555
C37_2 C40_2 1_555 1_555
O23_2 Cu14_2 1_555 1_555
C50_2 C57_2 1_555 1_555
C51_2 C54_2 1_555 1_555
O38_3 Cu4_2 1_555 1_555
Cu4_2 O53_2 1_555 1_555
Cu13_2 O42_2 1_555 1_555
Cu14_2 O43_2 1_555 1_555
O44_2 Cu15_2 1_555 1_555
O52_2 Cu15_2 1_555 1_555
O54_2 Cu15_2 1_555 1_555
O16_2 C42_2 1_555 1_555
O18_2 C42_2 1_555 1_555
C35_2 C38_2 1_555 1_555
C38_2 H26_2 1_555 1_555
C42_2 C35_2 1_555 1_555
Cu11 O16_2 1_555 1_555
O41_3 Cu11 1_555 1_555
O57_2 Cu11 1_555 1_555
Cu19 O16_2 1_555 1_555
O18_2 Cu11 1_555 1_555
H59_3 C89_3 1_555 1_555
H61_3 C90_3 1_555 1_555
H62_3 C90_3 1_555 1_555
O41_4 Cu12 1_555 1_555
O55_2 Cu12 1_555 1_555
H59_4 C89_4 1_555 1_555
H61_4 C90_4 1_555 1_555
H62_4 C90_4 1_555 1_555
H66_5 C92_5 1_555 1_555
H68_5 C93_5 1_555 1_555
H69_5 C93_5 1_555 1_555
O38_4 C88_4 1_555 1_555
N8_4 C88_4 1_555 1_555
C88_4 H56_4 1_555 1_555
O47_5 Cu13_2 1_555 1_555
O49_5 Cu13_2 1_555 1_555
O58_5 Cu13_2 1_555 1_555
O38_4 Cu15_2 1_555 1_555
O39_5 C91_5 1_555 1_555
N9_5 C91_5 1_555 1_555
C91_5 H63_5 1_555 1_555
O56_2 Cu19 1_555 1_555
O39_5 Cu19 1_555 1_555
O39_6 C91_6 1_555 1_555
N9_6 C91_6 1_555 1_555
C91_6 H63_6 1_555 1_555
O57_2 Cu20 1_555 1_555
O39_6 Cu20 1_555 1_555
H66_6 C92_6 1_555 1_555
H68_6 C93_6 1_555 1_555
H69_6 C93_6 1_555 1_555
O47_6 Cu14_2 1_555 1_555
O49_6 Cu14_2 1_555 1_555
O58_6 Cu14_2 1_555 1_555
O43 C42_3 1_555 1_555
O58_3 C42_3 1_555 1_555
C35_3 C38_3 1_555 1_555
C38_3 H26_3 1_555 1_555
C42_3 C35_3 1_555 1_555
P1_3 O1_3 1_555 1_555
O1_3 C2_3 1_555 1_555
O41_2 C17_3 1_555 1_555
O42 C23_3 1_555 1_555
O55 C17_3 1_555 1_555
N1_3 P1_3 1_555 1_555
C2_3 C19_3 1_555 1_555
C3_3 C12_3 1_555 1_555
C5_3 C21_3 1_555 1_555
O11_3 C22_3 1_555 1_555
C8_3 C15_3 1_555 1_555
C12_3 H3_3 1_555 1_555
C13_3 C3_3 1_555 1_555
H4_3 C13_3 1_555 1_555
C15_3 H6_3 1_555 1_555
C17_3 C3_3 1_555 1_555
C19_3 C13_3 1_555 1_555
H9_3 C19_3 1_555 1_555
C21_3 C15_3 1_555 1_555
H11_3 C21_3 1_555 1_555
C22_3 O49_2 1_555 1_555
C23_3 O58_2 1_555 1_555
C24_3 C2_3 1_555 1_555
H12_3 C24_3 1_555 1_555
C25_3 C5_3 1_555 1_555
H13_3 C25_3 1_555 1_555
C28_3 C8_3 1_555 1_555
H16_3 C28_3 1_555 1_555
O13_3 P1_3 1_555 1_555
P3_3 N1_3 1_555 1_555
O14_3 P3_3 1_555 1_555
O40 C39_3 1_555 1_555
O56 C39_3 1_555 1_555
N4_3 P3_3 1_555 1_555
C32_3 O14_3 1_555 1_555
C33_3 C36_3 1_555 1_555
C34_3 C41_3 1_555 1_555
C36_3 H24_3 1_555 1_555
C37_3 C33_3 1_555 1_555
H25_3 C37_3 1_555 1_555
C39_3 C33_3 1_555 1_555
C40_3 C32_3 1_555 1_555
H27_3 C40_3 1_555 1_555
H28_3 C41_3 1_555 1_555
C43_3 C32_3 1_555 1_555
H29_3 C43_3 1_555 1_555
C44_3 C34_3 1_555 1_555
H30_3 C44_3 1_555 1_555
H31_3 C45_3 1_555 1_555
O19_3 P3_3 1_555 1_555
P4_3 N4_3 1_555 1_555
O20_3 P4_3 1_555 1_555
O41 C53_3 1_555 1_555
O57 C53_3 1_555 1_555
N5_3 P1_3 1_555 1_555
C46_3 O20_3 1_555 1_555
C47_3 C50_3 1_555 1_555
C48_3 C55_3 1_555 1_555
C50_3 H32_3 1_555 1_555
C51_3 C47_3 1_555 1_555
H33_3 C51_3 1_555 1_555
C53_3 C47_3 1_555 1_555
C54_3 C46_3 1_555 1_555
H35_3 C54_3 1_555 1_555
H36_3 C55_3 1_555 1_555
C57_3 C46_3 1_555 1_555
H37_3 C57_3 1_555 1_555
C58_3 C48_3 1_555 1_555
H38_3 C58_3 1_555 1_555
H39_3 C59_3 1_555 1_555
O25_3 P4_3 1_555 1_555
C5_3 O13_3 1_555 1_555
C8_3 C23_3 1_555 1_555
C12_3 C24_3 1_555 1_555
C25_3 C28_3 1_555 1_555
C34_3 O19_3 1_555 1_555
C36_3 C43_3 1_555 1_555
C37_3 C40_3 1_555 1_555
C44_3 C45_3 1_555 1_555
P4_3 N5_3 1_555 1_555
C48_3 O25_3 1_555 1_555
C50_3 C57_3 1_555 1_555
C51_3 C54_3 1_555 1_555
C58_3 C59_3 1_555 1_555
P2_3 O2_3 1_555 1_555
O2_3 C4_3 1_555 1_555
O3_3 P2_3 1_555 1_555
O47_6 C6_3 1_555 1_555
O52_2 C6_3 1_555 1_555
N2_3 P2_3 1_555 1_555
C1_3 O3_3 1_555 1_555
C4_3 C7_3 1_555 1_555
C6_3 C10_3 1_555 1_555
C7_3 H1_3 1_555 1_555
C9_3 C16_3 1_555 1_555
C10_3 C11_3 1_555 1_555
C11_3 C7_3 1_555 1_555
H2_3 C11_3 1_555 1_555
C14_3 C1_3 1_555 1_555
H5_3 C14_3 1_555 1_555
C16_3 C14_3 1_555 1_555
H7_3 C16_3 1_555 1_555
C18_3 C1_3 1_555 1_555
H8_3 C18_3 1_555 1_555
C20_3 C10_3 1_555 1_555
H10_3 C20_3 1_555 1_555
C26_3 C9_3 1_555 1_555
H14_3 C26_3 1_555 1_555
C27_3 C4_3 1_555 1_555
H15_3 C27_3 1_555 1_555
P5_3 O26_3 1_555 1_555
O26_3 C61_3 1_555 1_555
O27_3 P5_3 1_555 1_555
O47_5 C62_3 1_555 1_555
O53_2 C62_3 1_555 1_555
N6_3 P2_3 1_555 1_555
C60_3 O27_3 1_555 1_555
C61_3 C63_3 1_555 1_555
C62_3 C65_3 1_555 1_555
C63_3 H40_3 1_555 1_555
C64_3 C68_3 1_555 1_555
C65_3 C66_3 1_555 1_555
C66_3 C63_3 1_555 1_555
H41_3 C66_3 1_555 1_555
C67_3 C60_3 1_555 1_555
H42_3 C67_3 1_555 1_555
C68_3 C67_3 1_555 1_555
H43_3 C68_3 1_555 1_555
C69_3 C60_3 1_555 1_555
H44_3 C69_3 1_555 1_555
C70_3 C65_3 1_555 1_555
H45_3 C70_3 1_555 1_555
C72_3 C64_3 1_555 1_555
H46_3 C72_3 1_555 1_555
C73_3 C61_3 1_555 1_555
H47_3 C73_3 1_555 1_555
P6_3 N2_3 1_555 1_555
O32_3 P6_3 1_555 1_555
O33_3 P6_3 1_555 1_555
O47_4 C76_3 1_555 1_555
O49 C85_3 1_555 1_555
O54_2 C76_3 1_555 1_555
N7_3 P5_3 1_555 1_555
C74_3 O33_3 1_555 1_555
C75_3 O32_3 1_555 1_555
O37_3 C85_3 1_555 1_555
C76_3 C79_3 1_555 1_555
C77_3 C75_3 1_555 1_555
H48_3 C77_3 1_555 1_555
C78_3 C82_3 1_555 1_555
C79_3 C80_3 1_555 1_555
C80_3 C77_3 1_555 1_555
H49_3 C80_3 1_555 1_555
C81_3 C74_3 1_555 1_555
H50_3 C81_3 1_555 1_555
C82_3 C81_3 1_555 1_555
H51_3 C82_3 1_555 1_555
C83_3 C74_3 1_555 1_555
H52_3 C83_3 1_555 1_555
C84_3 C79_3 1_555 1_555
H53_3 C84_3 1_555 1_555
C85_3 C78_3 1_555 1_555
C86_3 C78_3 1_555 1_555
H54_3 C86_3 1_555 1_555
C87_3 C75_3 1_555 1_555
H55_3 C87_3 1_555 1_555
C18_3 C26_3 1_555 1_555
C20_3 C27_3 1_555 1_555
P5_3 N6_3 1_555 1_555
C69_3 C72_3 1_555 1_555
C70_3 C73_3 1_555 1_555
P6_3 N7_3 1_555 1_555
C83_3 C86_3 1_555 1_555
C84_3 C87_3 1_555 1_555
O44 C56_3 1_555 1_555
O58 C56_3 1_555 1_555
C49_3 C52_3 1_555 1_555
C52_3 H34_3 1_555 1_555
C56_3 C49_3 1_555 1_555
O49_3 C71_3 1_555 1_555
O31_3 C71_3 1_555 1_555
O43_2 C42_4 1_555 1_555
O58_6 C42_4 1_555 1_555
C35_4 C38_4 1_555 1_555
C38_4 H26_4 1_555 1_555
C42_4 C35_4 1_555 1_555
O41_4 C17_4 1_555 1_555
O55_2 C17_4 1_555 1_555
C3_4 C12_4 1_555 1_555
C12_4 H3_4 1_555 1_555
C13_4 C3_4 1_555 1_555
H4_4 C13_4 1_555 1_555
C17_4 C3_4 1_555 1_555
C19_4 C13_4 1_555 1_555
H9_4 C19_4 1_555 1_555
O40_2 C39_4 1_555 1_555
O56_2 C39_4 1_555 1_555
C33_4 C36_4 1_555 1_555
C36_4 H24_4 1_555 1_555
C37_4 C33_4 1_555 1_555
H25_4 C37_4 1_555 1_555
C39_4 C33_4 1_555 1_555
H27_4 C40_4 1_555 1_555
O41_3 C53_4 1_555 1_555
O57_2 C53_4 1_555 1_555
C47_4 C50_4 1_555 1_555
C50_4 H32_4 1_555 1_555
C51_4 C47_4 1_555 1_555
H33_4 C51_4 1_555 1_555
C53_4 C47_4 1_555 1_555
H35_4 C54_4 1_555 1_555
C12_4 C24_4 1_555 1_555
C36_4 C43_4 1_555 1_555
C37_4 C40_4 1_555 1_555
C50_4 C57_4 1_555 1_555
C51_4 C54_4 1_555 1_555
P1_4 O1_4 1_555 1_555
O1_4 C2_4 1_555 1_555
O42_2 C23_4 1_555 1_555
N1_4 P1_4 1_555 1_555
C5_4 C21_4 1_555 1_555
O11_4 C22_4 1_555 1_555
C8_4 C15_4 1_555 1_555
C15_4 H6_4 1_555 1_555
C21_4 C15_4 1_555 1_555
H11_4 C21_4 1_555 1_555
C22_4 O49_5 1_555 1_555
C23_4 O58_5 1_555 1_555
C25_4 C5_4 1_555 1_555
H13_4 C25_4 1_555 1_555
C28_4 C8_4 1_555 1_555
H16_4 C28_4 1_555 1_555
O13_4 P1_4 1_555 1_555
P3_4 N1_4 1_555 1_555
O14_4 P3_4 1_555 1_555
N4_4 P3_4 1_555 1_555
C32_4 O14_4 1_555 1_555
C34_4 C41_4 1_555 1_555
H28_4 C41_4 1_555 1_555
C44_4 C34_4 1_555 1_555
H30_4 C44_4 1_555 1_555
H31_4 C45_4 1_555 1_555
O19_4 P3_4 1_555 1_555
P4_4 N4_4 1_555 1_555
O20_4 P4_4 1_555 1_555
N5_4 P1_4 1_555 1_555
C46_4 O20_4 1_555 1_555
C48_4 C55_4 1_555 1_555
H36_4 C55_4 1_555 1_555
C58_4 C48_4 1_555 1_555
H38_4 C58_4 1_555 1_555
H39_4 C59_4 1_555 1_555
O25_4 P4_4 1_555 1_555
C5_4 O13_4 1_555 1_555
C8_4 C23_4 1_555 1_555
C25_4 C28_4 1_555 1_555
C34_4 O19_4 1_555 1_555
C44_4 C45_4 1_555 1_555
P4_4 N5_4 1_555 1_555
C48_4 O25_4 1_555 1_555
C58_4 C59_4 1_555 1_555
O44_2 C56_4 1_555 1_555
O58_4 C56_4 1_555 1_555
C49_4 C52_4 1_555 1_555
C52_4 H34_4 1_555 1_555
C56_4 C49_4 1_555 1_555
P2_4 O2_4 1_555 1_555
O2_4 C4_4 1_555 1_555
O3_4 P2_4 1_555 1_555
O47_3 C6_4 1_555 1_555
O52 C6_4 1_555 1_555
N2_4 P2_4 1_555 1_555
C1_4 O3_4 1_555 1_555
C4_4 C7_4 1_555 1_555
C6_4 C10_4 1_555 1_555
C7_4 H1_4 1_555 1_555
C9_4 C16_4 1_555 1_555
C10_4 C11_4 1_555 1_555
C11_4 C7_4 1_555 1_555
H2_4 C11_4 1_555 1_555
C14_4 C1_4 1_555 1_555
H5_4 C14_4 1_555 1_555
C16_4 C14_4 1_555 1_555
H7_4 C16_4 1_555 1_555
C18_4 C1_4 1_555 1_555
H8_4 C18_4 1_555 1_555
C20_4 C10_4 1_555 1_555
H10_4 C20_4 1_555 1_555
C26_4 C9_4 1_555 1_555
H14_4 C26_4 1_555 1_555
C27_4 C4_4 1_555 1_555
H15_4 C27_4 1_555 1_555
P5_4 O26_4 1_555 1_555
O26_4 C61_4 1_555 1_555
O27_4 P5_4 1_555 1_555
O47_2 C62_4 1_555 1_555
O53 C62_4 1_555 1_555
N6_4 P2_4 1_555 1_555
C60_4 O27_4 1_555 1_555
C61_4 C63_4 1_555 1_555
C62_4 C65_4 1_555 1_555
C63_4 H40_4 1_555 1_555
C64_4 C68_4 1_555 1_555
C65_4 C66_4 1_555 1_555
C66_4 C63_4 1_555 1_555
H41_4 C66_4 1_555 1_555
C67_4 C60_4 1_555 1_555
H42_4 C67_4 1_555 1_555
C68_4 C67_4 1_555 1_555
H43_4 C68_4 1_555 1_555
C69_4 C60_4 1_555 1_555
H44_4 C69_4 1_555 1_555
C70_4 C65_4 1_555 1_555
H45_4 C70_4 1_555 1_555
C72_4 C64_4 1_555 1_555
H46_4 C72_4 1_555 1_555
C73_4 C61_4 1_555 1_555
H47_4 C73_4 1_555 1_555
P6_4 N2_4 1_555 1_555
O32_4 P6_4 1_555 1_555
O33_4 P6_4 1_555 1_555
O47 C76_4 1_555 1_555
O49_4 C85_4 1_555 1_555
O54 C76_4 1_555 1_555
N7_4 P5_4 1_555 1_555
C74_4 O33_4 1_555 1_555
C75_4 O32_4 1_555 1_555
O37_4 C85_4 1_555 1_555
C76_4 C79_4 1_555 1_555
C77_4 C75_4 1_555 1_555
H48_4 C77_4 1_555 1_555
C78_4 C82_4 1_555 1_555
C79_4 C80_4 1_555 1_555
C80_4 C77_4 1_555 1_555
H49_4 C80_4 1_555 1_555
C81_4 C74_4 1_555 1_555
H50_4 C81_4 1_555 1_555
C82_4 C81_4 1_555 1_555
H51_4 C82_4 1_555 1_555
C83_4 C74_4 1_555 1_555
H52_4 C83_4 1_555 1_555
C84_4 C79_4 1_555 1_555
H53_4 C84_4 1_555 1_555
C85_4 C78_4 1_555 1_555
C86_4 C78_4 1_555 1_555
H54_4 C86_4 1_555 1_555
C87_4 C75_4 1_555 1_555
H55_4 C87_4 1_555 1_555
C18_4 C26_4 1_555 1_555
C20_4 C27_4 1_555 1_555
P5_4 N6_4 1_555 1_555
C69_4 C72_4 1_555 1_555
C70_4 C73_4 1_555 1_555
P6_4 N7_4 1_555 1_555
C83_4 C86_4 1_555 1_555
C84_4 C87_4 1_555 1_555
O49_6 C71_4 1_555 1_555
O31_4 C71_4 1_555 1_555

#END
