
###############################################################################
#
# This file contains modified crystal structure data generated from the
# MOF subset of the Cambridge Structural Database (CSD) v543 
# hosted by the Cambridge Crystallographic Data Centre (CCDC).
#
# This work is licensed under the Creative Commons
# Attribution-NonCommercial-ShareAlike 4.0 International License.
# To view a copy of this license, visit
# http://creativecommons.org/licenses/by-nc-sa/4.0/
# or send a letter to
# Creative Commons, PO Box 1866, Mountain View, CA 94042, USA.
#
# CIF created using the CSD Python API on 29 September 2022
# The structure has been converted into the P1 space group
# The structure has a 3D framework
# The original CSD entry VAKREG is in the monoclinic crystal system
# The framework has been calculated to contain at least 10.0% void space
# The void calculation uses a probe of radius 1.32A, grid spacing 0.4
# The framework is charged, counterions have been retained in the structure
#
###############################################################################

data_VAKREG
_chemical_formula_moiety         '(C144 H128 Co11 N8 O60)n'
_symmetry_cell_setting           triclinic
_symmetry_space_group_name_H-M   'P 1'
_symmetry_Int_Tables_number      1
_space_group_name_Hall           'P 1'
loop_
_symmetry_equiv_pos_site_id
_symmetry_equiv_pos_as_xyz
1 x,y,z
_cell_length_a                   33.225(4)
_cell_length_b                   9.851(1)
_cell_length_c                   17.7341(19)
_cell_angle_alpha                90
_cell_angle_beta                 99.335(2)
_cell_angle_gamma                90
_cell_volume                     5727.49
loop_
_atom_site_label
_atom_site_type_symbol
_atom_site_fract_x
_atom_site_fract_y
_atom_site_fract_z
C11 C 0.2556(2) 0.1369(8) 0.0472(4)
H6 H 0.2594 0.0607 0.0785
C13 C 0.0333(3) 0.0632(12) 0.0439(6)
H7 H 0.0555 0.1057 0.0733
Co4 Co 0.2500 0.7500 0.0000
Co8 Co 0.35065(3) 0.67912(10) 0.03440(5)
O17 O 0.33090(17) 0.4818(6) 0.0885(3)
C25 C 0.2795(2) 0.2496(8) 0.0649(4)
H13 H 0.2992 0.2499 0.1087
C26 C 0.2745(2) 0.3636(7) 0.0178(4)
C28 C 0.3013(2) 0.4834(7) 0.0358(4)
O5 O 0.16910(17) 0.0182(6) 0.9115(3)
C9 C 0.2205(2) 0.2504(8) 0.9351(4)
H5 H 0.2008 0.2501 0.8913
C10 C 0.2255(2) 0.1364(7) 0.9822(4)
C12 C 0.1987(2) 0.0166(7) 0.9642(4)
Co4_2 Co 0.2500 0.7500 1.0000
Co5 Co 0.2500 0.2500 0.5000
Co6 Co 0.35065(3) 0.32088(10) 0.53440(5)
O9 O 0.34180(15) 0.2074(6) 0.6225(3)
O10 O 0.27351(15) 0.2110(5) 0.6114(3)
O14 O 0.35000(15) 0.1878(6) 0.4481(3)
O18 O 0.33090(17) 0.5182(6) 0.5885(3)
O19 O 0.29493(14) 0.5894(5) 0.9919(3)
O21 O 0.29493(14) 0.4106(5) 0.4919(3)
O23 O 0.38848(16) 0.4597(6) 0.4672(3)
O25 O 0.41257(17) 0.3412(7) 0.5683(3)
C17 C 0.3112(2) 0.1033(8) 0.7183(4)
C18 C 0.2769(2) 0.0873(8) 0.7526(4)
H9 H 0.2520 0.1228 0.7296
C19 C 0.2799(2) 0.0183(8) 0.8211(4)
H10 H 0.2570 0.0099 0.8445
C22 C 0.3478(2) 0.0475(9) 0.7527(4)
H12 H 0.3709 0.0574 0.7299
C23 C 0.3084(2) 0.1794(7) 0.6449(4)
C27 C 0.2444(2) 0.3631(8) 0.9528(4)
H14 H 0.2406 0.4393 0.9215
O6 O 0.20507(14) 0.9106(5) 0.0081(3)
O7 O 0.11152(16) 0.9597(6) 0.0328(3)
O11 O 0.27351(15) 0.7890(5) 0.1114(3)
O13 O 0.15000(15) 0.6878(6) 0.0519(3)
O16 O 0.21220(14) 0.6138(5) 0.0392(3)
Co2 Co 0.14935(3) 0.82088(10) 0.96560(5)
O1 O 0.15820(15) 0.7074(6) 0.8775(3)
O2 O 0.22649(15) 0.7110(5) 0.8886(3)
O3 O 0.15000(15) 0.3122(6) 0.5519(3)
O4 O 0.21220(14) 0.3862(5) 0.5392(3)
O8 O 0.08743(17) 0.8412(7) 0.9317(3)
C1 C 0.1888(2) 0.6033(8) 0.7817(4)
C2 C 0.2231(2) 0.5873(8) 0.7474(4)
H1 H 0.2480 0.6228 0.7704
C3 C 0.2201(2) 0.5183(8) 0.6789(4)
H2 H 0.2430 0.5099 0.6555
C4 C 0.1839(2) 0.4620(7) 0.6449(4)
C5 C 0.1496(2) 0.4775(9) 0.6795(4)
H3 H 0.1248 0.4406 0.6568
C6 C 0.1522(2) 0.5475(9) 0.7473(4)
H4 H 0.1291 0.5574 0.7701
C7 C 0.1916(2) 0.6794(7) 0.8551(4)
C8 C 0.1817(2) 0.3807(7) 0.5728(4)
C14 C 0.0394(3) 0.9615(11) 0.9926(5)
C15 C 0.0067(3) 0.8986(12) 0.9488(6)
H8 H 0.0110 0.8308 0.9145
C16 C 0.0820(2) 0.9201(10) 0.9855(5)
Co7 Co 0.14935(3) 0.17912(10) 0.46560(5)
O12 O 0.35000(15) 0.8122(6) 0.9481(3)
O15 O 0.28780(14) 0.8862(5) 0.9608(3)
C20 C 0.3161(2) 0.9620(7) 0.8551(4)
C21 C 0.3504(2) 0.9775(9) 0.8205(4)
H11 H 0.3752 0.9406 0.8432
C24 C 0.3183(2) 0.8807(7) 0.9272(4)
Co9 Co 0.85065(3) 0.17912(10) 0.03440(5)
O24 O 0.91257(17) 0.1588(7) 0.0683(3)
C30 C 0.9606(3) 0.0385(11) 0.0074(5)
C31 C 0.9933(3) 0.1014(12) 0.0512(6)
H16 H 0.9890 0.1692 0.0855
C32 C 0.9180(2) 0.0799(10) 0.0145(5)
O22 O 0.88848(16) 0.0403(6) 0.9672(3)
C29 C 0.9667(3) 0.9368(12) 0.9561(6)
H15 H 0.9445 0.8943 0.9267
O22_2 O 0.11152(16) 0.0403(6) 0.5328(3)
O24_2 O 0.08743(17) 0.1588(7) 0.4317(3)
C30_2 C 0.0394(3) 0.0385(11) 0.4926(5)
C31_2 C 0.0067(3) 0.1014(12) 0.4488(6)
H16_2 H 0.0110 0.1692 0.4145
C32_2 C 0.0820(2) 0.0799(10) 0.4855(5)
C29_2 C 0.0333(3) 0.9368(12) 0.5439(6)
H15_2 H 0.0555 0.8943 0.5733
Co5_2 Co 0.7500 0.2500 0.0000
O14_2 O 0.65000(15) 0.1878(6) 0.0519(3)
O21_2 O 0.70507(14) 0.4106(5) 0.0081(3)
O23_2 O 0.61152(16) 0.4597(6) 0.0328(3)
O5_2 O 0.83090(17) 0.0182(6) 0.5885(3)
C9_2 C 0.7795(2) 0.2504(8) 0.5649(4)
H5_2 H 0.7992 0.2501 0.6087
C10_2 C 0.7745(2) 0.1364(7) 0.5178(4)
C11_2 C 0.7444(2) 0.1369(8) 0.4528(4)
H6_2 H 0.7406 0.0607 0.4215
C12_2 C 0.8013(2) 0.0166(7) 0.5358(4)
C13_2 C 0.9667(3) 0.0632(12) 0.4561(6)
H7_2 H 0.9445 0.1057 0.4267
Co4_3 Co 0.7500 0.7500 0.5000
Co5_3 Co 0.7500 0.2500 1.0000
Co6_2 Co 0.64935(3) 0.32088(10) 0.96560(5)
Co8_2 Co 0.64935(3) 0.67912(10) 0.46560(5)
O9_2 O 0.65820(15) 0.2074(6) 0.8775(3)
O10_2 O 0.72649(15) 0.2110(5) 0.8886(3)
O17_2 O 0.66910(17) 0.4818(6) 0.4115(3)
O18_2 O 0.66910(17) 0.5182(6) 0.9115(3)
O19_2 O 0.70507(14) 0.5894(5) 0.5081(3)
O25_2 O 0.58743(17) 0.3412(7) 0.9317(3)
C17_2 C 0.6888(2) 0.1033(8) 0.7817(4)
C18_2 C 0.7231(2) 0.0873(8) 0.7474(4)
H9_2 H 0.7480 0.1228 0.7704
C19_2 C 0.7201(2) 0.0183(8) 0.6789(4)
H10_2 H 0.7430 0.0099 0.6555
C22_2 C 0.6522(2) 0.0475(9) 0.7473(4)
H12_2 H 0.6291 0.0574 0.7701
C23_2 C 0.6916(2) 0.1794(7) 0.8551(4)
C25_2 C 0.7205(2) 0.2496(8) 0.4351(4)
H13_2 H 0.7008 0.2499 0.3913
C26_2 C 0.7255(2) 0.3636(7) 0.4822(4)
C27_2 C 0.7556(2) 0.3631(8) 0.5472(4)
H14_2 H 0.7594 0.4393 0.5785
C28_2 C 0.6987(2) 0.4834(7) 0.4642(4)
Co2_2 Co 0.85065(3) 0.82088(10) 0.53440(5)
O1_2 O 0.84180(15) 0.7074(6) 0.6225(3)
O2_2 O 0.77351(15) 0.7110(5) 0.6114(3)
O3_2 O 0.85000(15) 0.3122(6) 0.9481(3)
O4_2 O 0.78780(14) 0.3862(5) 0.9608(3)
O6_2 O 0.79493(14) 0.9106(5) 0.4919(3)
O7_2 O 0.88848(16) 0.9597(6) 0.4672(3)
O8_2 O 0.91257(17) 0.8412(7) 0.5683(3)
C1_2 C 0.8112(2) 0.6033(8) 0.7183(4)
C2_2 C 0.7769(2) 0.5873(8) 0.7526(4)
H1_2 H 0.7520 0.6228 0.7296
C3_2 C 0.7799(2) 0.5183(8) 0.8211(4)
H2_2 H 0.7570 0.5099 0.8445
C4_2 C 0.8161(2) 0.4620(7) 0.8551(4)
C5_2 C 0.8504(2) 0.4775(9) 0.8205(4)
H3_2 H 0.8752 0.4406 0.8432
C6_2 C 0.8478(2) 0.5475(9) 0.7527(4)
H4_2 H 0.8709 0.5574 0.7299
C7_2 C 0.8084(2) 0.6794(7) 0.6449(4)
C8_2 C 0.8183(2) 0.3807(7) 0.9272(4)
C14_2 C 0.9606(3) 0.9615(11) 0.5074(5)
C15_2 C 0.9933(3) 0.8986(12) 0.5512(6)
H8_2 H 0.9890 0.8308 0.5855
C16_2 C 0.9180(2) 0.9201(10) 0.5145(5)
O11_2 O 0.72649(15) 0.7890(5) 0.3886(3)
O12_2 O 0.65000(15) 0.8122(6) 0.5519(3)
O13_2 O 0.85000(15) 0.6878(6) 0.4481(3)
O15_2 O 0.71220(14) 0.8862(5) 0.5392(3)
O16_2 O 0.78780(14) 0.6138(5) 0.4608(3)
C20_2 C 0.6839(2) 0.9620(7) 0.6449(4)
C21_2 C 0.6496(2) 0.9775(9) 0.6795(4)
H11_2 H 0.6248 0.9406 0.6568
C24_2 C 0.6817(2) 0.8807(7) 0.5728(4)
O19_3 O 0.79493(14) 0.0894(5) 0.9919(3)
C11_3 C 0.7556(2) 0.6369(8) 0.0472(4)
H6_3 H 0.7594 0.5607 0.0785
C13_3 C 0.5333(3) 0.5632(12) 0.0439(6)
H7_3 H 0.5555 0.6057 0.0733
O11_3 O 0.77351(15) 0.2890(5) 0.1114(3)
O16_3 O 0.71220(14) 0.1138(5) 0.0392(3)
O17_3 O 0.83090(17) 0.9818(6) 0.0885(3)
O24_3 O 0.41257(17) 0.6588(7) 0.0683(3)
C25_3 C 0.7795(2) 0.7496(8) 0.0649(4)
H13_3 H 0.7992 0.7499 0.1087
C26_3 C 0.7745(2) 0.8636(7) 0.0178(4)
C28_3 C 0.8013(2) 0.9834(7) 0.0358(4)
C30_3 C 0.4606(3) 0.5385(11) 0.0074(5)
C31_3 C 0.4933(3) 0.6014(12) 0.0512(6)
H16_3 H 0.4890 0.6692 0.0855
C32_3 C 0.4180(2) 0.5799(10) 0.0145(5)
C9_3 C 0.7205(2) 0.7504(8) 0.9351(4)
H5_3 H 0.7008 0.7501 0.8913
C10_3 C 0.7255(2) 0.6364(7) 0.9822(4)
C12_3 C 0.6987(2) 0.5166(7) 0.9642(4)
C14_3 C 0.5394(3) 0.4615(11) 0.9926(5)
C15_3 C 0.5067(3) 0.3986(12) 0.9488(6)
H8_3 H 0.5110 0.3308 0.9145
C16_3 C 0.5820(2) 0.4201(10) 0.9855(5)
O22_3 O 0.38848(16) 0.5403(6) 0.9672(3)
C27_3 C 0.7444(2) 0.8631(8) 0.9528(4)
H14_3 H 0.7406 0.9393 0.9215
C29_3 C 0.4667(3) 0.4368(12) 0.9561(6)
H15_3 H 0.4445 0.3943 0.9267
O19_4 O 0.20507(14) 0.0894(5) 0.5081(3)
C9_4 C 0.2795(2) 0.7504(8) 0.5649(4)
H5_4 H 0.2992 0.7501 0.6087
C10_4 C 0.2745(2) 0.6364(7) 0.5178(4)
C11_4 C 0.2444(2) 0.6369(8) 0.4528(4)
H6_4 H 0.2406 0.5607 0.4215
C12_4 C 0.3013(2) 0.5166(7) 0.5358(4)
C13_4 C 0.4667(3) 0.5632(12) 0.4561(6)
H7_4 H 0.4445 0.6057 0.4267
C14_4 C 0.4606(3) 0.4615(11) 0.5074(5)
C15_4 C 0.4933(3) 0.3986(12) 0.5512(6)
H8_4 H 0.4890 0.3308 0.5855
C16_4 C 0.4180(2) 0.4201(10) 0.5145(5)
O11_4 O 0.22649(15) 0.2890(5) 0.3886(3)
O16_4 O 0.28780(14) 0.1138(5) 0.4608(3)
O17_4 O 0.16910(17) 0.9818(6) 0.4115(3)
O22_4 O 0.61152(16) 0.5403(6) 0.5328(3)
O24_4 O 0.58743(17) 0.6588(7) 0.4317(3)
C25_4 C 0.2205(2) 0.7496(8) 0.4351(4)
H13_4 H 0.2008 0.7499 0.3913
C26_4 C 0.2255(2) 0.8636(7) 0.4822(4)
C27_4 C 0.2556(2) 0.8631(8) 0.5472(4)
H14_4 H 0.2594 0.9393 0.5785
C28_4 C 0.1987(2) 0.9834(7) 0.4642(4)
C29_4 C 0.5333(3) 0.4368(12) 0.5439(6)
H15_4 H 0.5555 0.3943 0.5733
C30_4 C 0.5394(3) 0.5385(11) 0.4926(5)
C31_4 C 0.5067(3) 0.6014(12) 0.4488(6)
H16_4 H 0.5110 0.6692 0.4145
C32_4 C 0.5820(2) 0.5799(10) 0.4855(5)
O1_3 O 0.84180(15) 0.2926(6) 0.1225(3)
C1_3 C 0.8112(2) 0.3967(8) 0.2183(4)
C2_3 C 0.7769(2) 0.4127(8) 0.2526(4)
H1_3 H 0.7520 0.3772 0.2296
C3_3 C 0.7799(2) 0.4817(8) 0.3211(4)
H2_3 H 0.7570 0.4901 0.3445
C4_3 C 0.8161(2) 0.5380(7) 0.3551(4)
C5_3 C 0.8504(2) 0.5225(9) 0.3205(4)
H3_3 H 0.8752 0.5594 0.3432
C6_3 C 0.8478(2) 0.4525(9) 0.2527(4)
H4_3 H 0.8709 0.4426 0.2299
C7_3 C 0.8084(2) 0.3206(7) 0.1449(4)
C8_3 C 0.8183(2) 0.6193(7) 0.4272(4)
C20_3 C 0.6839(2) 0.0380(7) 0.1449(4)
C21_3 C 0.6496(2) 0.0225(9) 0.1795(4)
H11_3 H 0.6248 0.0594 0.1568
C24_3 C 0.6817(2) 0.1193(7) 0.0728(4)
O9_3 O 0.65820(15) 0.7926(6) 0.3775(3)
C17_3 C 0.6888(2) 0.8967(8) 0.2817(4)
C18_3 C 0.7231(2) 0.9127(8) 0.2474(4)
H9_3 H 0.7480 0.8772 0.2704
C19_3 C 0.7201(2) 0.9817(8) 0.1789(4)
H10_3 H 0.7430 0.9901 0.1555
C22_3 C 0.6522(2) 0.9525(9) 0.2473(4)
H12_3 H 0.6291 0.9426 0.2701
C23_3 C 0.6916(2) 0.8206(7) 0.3551(4)
O1_4 O 0.15820(15) 0.2926(6) 0.3775(3)
C1_4 C 0.1888(2) 0.3967(8) 0.2817(4)
C2_4 C 0.2231(2) 0.4127(8) 0.2474(4)
H1_4 H 0.2480 0.3772 0.2704
C3_4 C 0.2201(2) 0.4817(8) 0.1789(4)
H2_4 H 0.2430 0.4901 0.1555
C4_4 C 0.1839(2) 0.5380(7) 0.1449(4)
C5_4 C 0.1496(2) 0.5225(9) 0.1795(4)
H3_4 H 0.1248 0.5594 0.1568
C6_4 C 0.1522(2) 0.4525(9) 0.2473(4)
H4_4 H 0.1291 0.4426 0.2701
C7_4 C 0.1916(2) 0.3206(7) 0.3551(4)
C8_4 C 0.1817(2) 0.6193(7) 0.0728(4)
C20_4 C 0.3161(2) 0.0380(7) 0.3551(4)
C21_4 C 0.3504(2) 0.0225(9) 0.3205(4)
H11_4 H 0.3752 0.0594 0.3432
C24_4 C 0.3183(2) 0.1193(7) 0.4272(4)
O9_4 O 0.34180(15) 0.7926(6) 0.1225(3)
C17_4 C 0.3112(2) 0.8967(8) 0.2183(4)
C18_4 C 0.2769(2) 0.9127(8) 0.2526(4)
H9_4 H 0.2520 0.8772 0.2296
C19_4 C 0.2799(2) 0.9817(8) 0.3211(4)
H10_4 H 0.2570 0.9901 0.3445
C22_4 C 0.3478(2) 0.9525(9) 0.2527(4)
H12_4 H 0.3709 0.9426 0.2299
C23_4 C 0.3084(2) 0.8206(7) 0.1449(4)
N1 N 0.0407(13) 0.510(4) 0.6767(19)
H17 H 0.0183 0.4943 0.6975
H18 H 0.0623 0.4789 0.7093
C33 C 0.0438(16) 0.657(4) 0.675(3)
H19 H 0.0456 0.6999 0.7236
H20 H 0.0681 0.6756 0.6536
H21 H 0.0205 0.6923 0.6409
C34 C 0.0383(15) 0.440(4) 0.601(2)
H22 H 0.0354 0.3452 0.6108
H23 H 0.0150 0.4713 0.5662
H24 H 0.0625 0.4546 0.5789
N1_2 N 0.9593(13) 0.510(4) 0.8233(19)
H17_2 H 0.9817 0.4943 0.8025
H18_2 H 0.9377 0.4789 0.7907
C33_2 C 0.9562(16) 0.657(4) 0.825(3)
H19_2 H 0.9544 0.6999 0.7764
H20_2 H 0.9319 0.6756 0.8464
H21_2 H 0.9795 0.6923 0.8591
C34_2 C 0.9617(15) 0.440(4) 0.899(2)
H22_2 H 0.9646 0.3452 0.8892
H23_2 H 0.9850 0.4713 0.9338
H24_2 H 0.9375 0.4546 0.9211
N1_3 N 0.5407(13) 0.010(4) 0.6767(19)
C33_3 C 0.5438(16) 0.157(4) 0.675(3)
H19_3 H 0.5456 0.1999 0.7236
H20_3 H 0.5681 0.1756 0.6536
H21_3 H 0.5205 0.1923 0.6409
H17_3 H 0.5183 0.9943 0.6975
H18_3 H 0.5623 0.9789 0.7093
C34_3 C 0.5383(15) 0.940(4) 0.601(2)
H22_3 H 0.5354 0.8452 0.6108
H23_3 H 0.5150 0.9713 0.5662
H24_3 H 0.5625 0.9546 0.5789
N1_4 N 0.4593(13) 0.010(4) 0.8233(19)
C33_4 C 0.4562(16) 0.157(4) 0.825(3)
H19_4 H 0.4544 0.1999 0.7764
H20_4 H 0.4319 0.1756 0.8464
H21_4 H 0.4795 0.1923 0.8591
H17_4 H 0.4817 0.9943 0.8025
H18_4 H 0.4377 0.9789 0.7907
C34_4 C 0.4617(15) 0.940(4) 0.899(2)
H22_4 H 0.4646 0.8452 0.8892
H23_4 H 0.4850 0.9713 0.9338
H24_4 H 0.4375 0.9546 0.9211
N1_5 N 0.9593(13) 0.490(4) 0.3233(19)
H17_5 H 0.9817 0.5057 0.3025
H18_5 H 0.9377 0.5211 0.2907
C33_5 C 0.9562(16) 0.343(4) 0.325(3)
H19_5 H 0.9544 0.3001 0.2764
H20_5 H 0.9319 0.3244 0.3464
H21_5 H 0.9795 0.3077 0.3591
C34_5 C 0.9617(15) 0.560(4) 0.399(2)
H22_5 H 0.9646 0.6548 0.3892
H23_5 H 0.9850 0.5287 0.4338
H24_5 H 0.9375 0.5454 0.4211
N1_6 N 0.0407(13) 0.490(4) 0.1767(19)
H17_6 H 0.0183 0.5057 0.1975
H18_6 H 0.0623 0.5211 0.2093
C33_6 C 0.0438(16) 0.343(4) 0.175(3)
H19_6 H 0.0456 0.3001 0.2236
H20_6 H 0.0681 0.3244 0.1536
H21_6 H 0.0205 0.3077 0.1409
C34_6 C 0.0383(15) 0.560(4) 0.101(2)
H22_6 H 0.0354 0.6548 0.1108
H23_6 H 0.0150 0.5287 0.0662
H24_6 H 0.0625 0.5454 0.0789
H17_7 H 0.4817 0.0057 0.3025
H18_7 H 0.4377 0.0211 0.2907
C34_7 C 0.4617(15) 0.060(4) 0.399(2)
H22_7 H 0.4646 0.1548 0.3892
H23_7 H 0.4850 0.0287 0.4338
H24_7 H 0.4375 0.0454 0.4211
N1_7 N 0.4593(13) 0.990(4) 0.3233(19)
C33_7 C 0.4562(16) 0.843(4) 0.325(3)
H19_7 H 0.4544 0.8001 0.2764
H20_7 H 0.4319 0.8244 0.3464
H21_7 H 0.4795 0.8077 0.3591
H17_8 H 0.5183 0.0057 0.1975
H18_8 H 0.5623 0.0211 0.2093
C34_8 C 0.5383(15) 0.060(4) 0.101(2)
H22_8 H 0.5354 0.1548 0.1108
H23_8 H 0.5150 0.0287 0.0662
H24_8 H 0.5625 0.0454 0.0789
N1_8 N 0.5407(13) 0.990(4) 0.1767(19)
C33_8 C 0.5438(16) 0.843(4) 0.175(3)
H19_8 H 0.5456 0.8001 0.2236
H20_8 H 0.5681 0.8244 0.1536
H21_8 H 0.5205 0.8077 0.1409
loop_
_geom_bond_atom_site_label_1
_geom_bond_atom_site_label_2
_geom_bond_site_symmetry_1
_geom_bond_site_symmetry_2
H6 C11 1_555 1_555
C13 H7 1_555 1_555
Co8 O17 1_555 1_555
O17 C28 1_555 1_555
C25 C11 1_555 1_555
H13 C25 1_555 1_555
C26 C25 1_555 1_555
C26 C28 1_555 1_555
C9 H5 1_555 1_555
C10 C9 1_555 1_555
C12 O5 1_555 1_555
Co4_2 O19 1_555 1_555
Co5 O10 1_555 1_555
Co6 O9 1_555 1_555
O9 C23 1_555 1_555
O10 C23 1_555 1_555
O14 Co6 1_555 1_555
O18 Co6 1_555 1_555
O21 Co5 1_555 1_555
O23 Co6 1_555 1_555
O25 Co6 1_555 1_555
C17 C18 1_555 1_555
C18 H9 1_555 1_555
C19 C18 1_555 1_555
H10 C19 1_555 1_555
C22 C17 1_555 1_555
H12 C22 1_555 1_555
C23 C17 1_555 1_555
C27 C9 1_555 1_555
H14 C27 1_555 1_555
C10 C12 1_555 1_555
Co6 O21 1_555 1_555
O6 Co4 1_555 1_555
O11 Co4 1_555 1_555
O16 Co4 1_555 1_555
Co4_2 O2 1_555 1_555
Co2 O1 1_555 1_555
O1 C7 1_555 1_555
O2 C7 1_555 1_555
O3 C8 1_555 1_555
O4 C8 1_555 1_555
O8 Co2 1_555 1_555
C1 C2 1_555 1_555
C2 H1 1_555 1_555
C3 C2 1_555 1_555
H2 C3 1_555 1_555
C4 C3 1_555 1_555
C5 C4 1_555 1_555
H3 C5 1_555 1_555
C6 C1 1_555 1_555
H4 C6 1_555 1_555
C7 C1 1_555 1_555
C8 C4 1_555 1_555
C15 C14 1_555 1_555
H8 C15 1_555 1_555
Co5 O4 1_555 1_555
Co7 O3 1_555 1_555
O12 C24 1_555 1_555
O15 Co4_2 1_555 1_555
C21 C20 1_555 1_555
H11 C21 1_555 1_555
C24 O15 1_555 1_555
O8 C16 1_555 1_555
C5 C6 1_555 1_555
C14 C16 1_555 1_555
C20 C24 1_555 1_555
O24 Co9 1_555 1_555
H16 C31 1_555 1_555
C32 O24 1_555 1_555
C30 C31 1_555 1_555
C30 C32 1_555 1_555
H15 C29 1_555 1_555
Co7 O22_2 1_555 1_555
O22_2 C32_2 1_555 1_555
O24_2 Co7 1_555 1_555
H16_2 C31_2 1_555 1_555
C32_2 O24_2 1_555 1_555
C30_2 C31_2 1_555 1_555
C30_2 C32_2 1_555 1_555
H15_2 C29_2 1_555 1_555
O21_2 Co5_2 1_555 1_555
C9_2 H5_2 1_555 1_555
C10_2 C9_2 1_555 1_555
C11_2 C10_2 1_555 1_555
H6_2 C11_2 1_555 1_555
C12_2 O5_2 1_555 1_555
C13_2 H7_2 1_555 1_555
Co4_3 O19_2 1_555 1_555
Co5_3 O10_2 1_555 1_555
Co6_2 O9_2 1_555 1_555
Co8_2 O17_2 1_555 1_555
O9_2 C23_2 1_555 1_555
O10_2 C23_2 1_555 1_555
O17_2 C28_2 1_555 1_555
O18_2 Co6_2 1_555 1_555
O19_2 Co8_2 1_555 1_555
O25_2 Co6_2 1_555 1_555
C17_2 C18_2 1_555 1_555
C18_2 H9_2 1_555 1_555
C19_2 C18_2 1_555 1_555
H10_2 C19_2 1_555 1_555
C22_2 C17_2 1_555 1_555
H12_2 C22_2 1_555 1_555
C23_2 C17_2 1_555 1_555
C25_2 C11_2 1_555 1_555
H13_2 C25_2 1_555 1_555
C26_2 C25_2 1_555 1_555
C27_2 C9_2 1_555 1_555
H14_2 C27_2 1_555 1_555
C28_2 O19_2 1_555 1_555
C10_2 C12_2 1_555 1_555
C26_2 C27_2 1_555 1_555
C26_2 C28_2 1_555 1_555
Co4_3 O2_2 1_555 1_555
Co2_2 O1_2 1_555 1_555
O1_2 C7_2 1_555 1_555
O2_2 C7_2 1_555 1_555
O3_2 C8_2 1_555 1_555
O4_2 C8_2 1_555 1_555
O6_2 Co4_3 1_555 1_555
O7_2 Co2_2 1_555 1_555
O8_2 Co2_2 1_555 1_555
C1_2 C2_2 1_555 1_555
C2_2 H1_2 1_555 1_555
C3_2 C2_2 1_555 1_555
H2_2 C3_2 1_555 1_555
C4_2 C3_2 1_555 1_555
C5_2 C4_2 1_555 1_555
H3_2 C5_2 1_555 1_555
C6_2 C1_2 1_555 1_555
H4_2 C6_2 1_555 1_555
C7_2 C1_2 1_555 1_555
C8_2 C4_2 1_555 1_555
C15_2 C14_2 1_555 1_555
H8_2 C15_2 1_555 1_555
C16_2 O7_2 1_555 1_555
Co5_3 O4_2 1_555 1_555
Co8_2 O12_2 1_555 1_555
O11_2 Co4_3 1_555 1_555
O12_2 C24_2 1_555 1_555
O13_2 Co2_2 1_555 1_555
O15_2 Co4_3 1_555 1_555
O16_2 Co4_3 1_555 1_555
C21_2 C20_2 1_555 1_555
H11_2 C21_2 1_555 1_555
C24_2 O15_2 1_555 1_555
Co2_2 O6_2 1_555 1_555
O8_2 C16_2 1_555 1_555
C5_2 C6_2 1_555 1_555
C14_2 C16_2 1_555 1_555
C20_2 C24_2 1_555 1_555
Co5_3 O19_3 1_555 1_555
H6_3 C11_3 1_555 1_555
C13_3 H7_3 1_555 1_555
O11_3 Co5_2 1_555 1_555
O16_3 Co5_2 1_555 1_555
O17_3 C28_3 1_555 1_555
O24_3 Co8 1_555 1_555
C25_3 C11_3 1_555 1_555
H13_3 C25_3 1_555 1_555
C26_3 C25_3 1_555 1_555
C31_3 C13_3 1_555 1_555
H16_3 C31_3 1_555 1_555
C32_3 O24_3 1_555 1_555
C26_3 C28_3 1_555 1_555
C30_3 C31_3 1_555 1_555
C30_3 C32_3 1_555 1_555
C9_3 H5_3 1_555 1_555
C10_3 C9_3 1_555 1_555
C12_3 O18_2 1_555 1_555
C15_3 C14_3 1_555 1_555
H8_3 C15_3 1_555 1_555
C27_3 C9_3 1_555 1_555
H14_3 C27_3 1_555 1_555
C29_3 C15_3 1_555 1_555
H15_3 C29_3 1_555 1_555
O25_2 C16_3 1_555 1_555
C10_3 C12_3 1_555 1_555
C14_3 C16_3 1_555 1_555
Co5 O19_4 1_555 1_555
O19_4 Co7 1_555 1_555
C9_4 H5_4 1_555 1_555
C10_4 C9_4 1_555 1_555
C11_4 C10_4 1_555 1_555
H6_4 C11_4 1_555 1_555
C12_4 O18 1_555 1_555
C13_4 H7_4 1_555 1_555
C14_4 C13_4 1_555 1_555
C15_4 C14_4 1_555 1_555
H8_4 C15_4 1_555 1_555
C16_4 O23 1_555 1_555
Co8_2 O22_4 1_555 1_555
O11_4 Co5 1_555 1_555
O16_4 Co5 1_555 1_555
O17_4 C28_4 1_555 1_555
O22_4 C32_4 1_555 1_555
O24_4 Co8_2 1_555 1_555
C25_4 C11_4 1_555 1_555
H13_4 C25_4 1_555 1_555
C26_4 C25_4 1_555 1_555
C27_4 C9_4 1_555 1_555
H14_4 C27_4 1_555 1_555
C29_4 C15_4 1_555 1_555
H15_4 C29_4 1_555 1_555
C30_4 C29_4 1_555 1_555
C31_4 C13_4 1_555 1_555
H16_4 C31_4 1_555 1_555
C32_4 O24_4 1_555 1_555
O21 C12_4 1_555 1_555
O25 C16_4 1_555 1_555
C10_4 C12_4 1_555 1_555
C14_4 C16_4 1_555 1_555
C26_4 C27_4 1_555 1_555
C26_4 C28_4 1_555 1_555
C30_4 C31_4 1_555 1_555
C30_4 C32_4 1_555 1_555
Co9 O1_3 1_555 1_555
O1_3 C7_3 1_555 1_555
O11_3 C7_3 1_555 1_555
O13_2 C8_3 1_555 1_555
O16_2 C8_3 1_555 1_555
C1_3 C2_3 1_555 1_555
C2_3 H1_3 1_555 1_555
C3_3 C2_3 1_555 1_555
H2_3 C3_3 1_555 1_555
C4_3 C3_3 1_555 1_555
C5_3 C4_3 1_555 1_555
H3_3 C5_3 1_555 1_555
C6_3 C1_3 1_555 1_555
H4_3 C6_3 1_555 1_555
C7_3 C1_3 1_555 1_555
C8_3 C4_3 1_555 1_555
O14_2 C24_3 1_555 1_555
C21_3 C20_3 1_555 1_555
H11_3 C21_3 1_555 1_555
C24_3 O16_3 1_555 1_555
C5_3 C6_3 1_555 1_555
C20_3 C24_3 1_555 1_555
Co8_2 O9_3 1_555 1_555
O9_3 C23_3 1_555 1_555
O11_2 C23_3 1_555 1_555
C17_3 C18_3 1_555 1_555
C18_3 H9_3 1_555 1_555
C19_3 C18_3 1_555 1_555
H10_3 C19_3 1_555 1_555
C22_3 C17_3 1_555 1_555
H12_3 C22_3 1_555 1_555
C23_3 C17_3 1_555 1_555
Co7 O1_4 1_555 1_555
O1_4 C7_4 1_555 1_555
O11_4 C7_4 1_555 1_555
O13 C8_4 1_555 1_555
O16 C8_4 1_555 1_555
C1_4 C2_4 1_555 1_555
C2_4 H1_4 1_555 1_555
C3_4 C2_4 1_555 1_555
H2_4 C3_4 1_555 1_555
C4_4 C3_4 1_555 1_555
C5_4 C4_4 1_555 1_555
H3_4 C5_4 1_555 1_555
C6_4 C1_4 1_555 1_555
H4_4 C6_4 1_555 1_555
C7_4 C1_4 1_555 1_555
C8_4 C4_4 1_555 1_555
O14 C24_4 1_555 1_555
C21_4 C20_4 1_555 1_555
H11_4 C21_4 1_555 1_555
C24_4 O16_4 1_555 1_555
C5_4 C6_4 1_555 1_555
C20_4 C24_4 1_555 1_555
Co8 O9_4 1_555 1_555
O9_4 C23_4 1_555 1_555
O11 C23_4 1_555 1_555
C17_4 C18_4 1_555 1_555
C18_4 H9_4 1_555 1_555
C19_4 C18_4 1_555 1_555
H10_4 C19_4 1_555 1_555
C22_4 C17_4 1_555 1_555
H12_4 C22_4 1_555 1_555
C23_4 C17_4 1_555 1_555
N1 H17 1_555 1_555
H18 N1 1_555 1_555
C33 N1 1_555 1_555
H19 C33 1_555 1_555
H20 C33 1_555 1_555
H21 C33 1_555 1_555
C34 N1 1_555 1_555
H22 C34 1_555 1_555
H23 C34 1_555 1_555
H24 C34 1_555 1_555
N1_2 H17_2 1_555 1_555
H18_2 N1_2 1_555 1_555
C33_2 N1_2 1_555 1_555
H19_2 C33_2 1_555 1_555
H20_2 C33_2 1_555 1_555
H21_2 C33_2 1_555 1_555
C34_2 N1_2 1_555 1_555
H22_2 C34_2 1_555 1_555
H23_2 C34_2 1_555 1_555
H24_2 C34_2 1_555 1_555
C33_3 N1_3 1_555 1_555
H19_3 C33_3 1_555 1_555
H20_3 C33_3 1_555 1_555
H21_3 C33_3 1_555 1_555
H22_3 C34_3 1_555 1_555
H23_3 C34_3 1_555 1_555
H24_3 C34_3 1_555 1_555
C33_4 N1_4 1_555 1_555
H19_4 C33_4 1_555 1_555
H20_4 C33_4 1_555 1_555
H21_4 C33_4 1_555 1_555
H22_4 C34_4 1_555 1_555
H23_4 C34_4 1_555 1_555
H24_4 C34_4 1_555 1_555
N1_5 H17_5 1_555 1_555
H18_5 N1_5 1_555 1_555
C33_5 N1_5 1_555 1_555
H19_5 C33_5 1_555 1_555
H20_5 C33_5 1_555 1_555
H21_5 C33_5 1_555 1_555
C34_5 N1_5 1_555 1_555
H22_5 C34_5 1_555 1_555
H23_5 C34_5 1_555 1_555
H24_5 C34_5 1_555 1_555
N1_6 H17_6 1_555 1_555
H18_6 N1_6 1_555 1_555
C33_6 N1_6 1_555 1_555
H19_6 C33_6 1_555 1_555
H20_6 C33_6 1_555 1_555
H21_6 C33_6 1_555 1_555
C34_6 N1_6 1_555 1_555
H22_6 C34_6 1_555 1_555
H23_6 C34_6 1_555 1_555
H24_6 C34_6 1_555 1_555
H22_7 C34_7 1_555 1_555
H23_7 C34_7 1_555 1_555
H24_7 C34_7 1_555 1_555
C33_7 N1_7 1_555 1_555
H19_7 C33_7 1_555 1_555
H20_7 C33_7 1_555 1_555
H21_7 C33_7 1_555 1_555
H22_8 C34_8 1_555 1_555
H23_8 C34_8 1_555 1_555
H24_8 C34_8 1_555 1_555
C33_8 N1_8 1_555 1_555
H19_8 C33_8 1_555 1_555
H20_8 C33_8 1_555 1_555
H21_8 C33_8 1_555 1_555

#END
