
###############################################################################
#
# This file contains modified crystal structure data generated from the
# MOF subset of the Cambridge Structural Database (CSD) v543 
# hosted by the Cambridge Crystallographic Data Centre (CCDC).
#
# This work is licensed under the Creative Commons
# Attribution-NonCommercial-ShareAlike 4.0 International License.
# To view a copy of this license, visit
# http://creativecommons.org/licenses/by-nc-sa/4.0/
# or send a letter to
# Creative Commons, PO Box 1866, Mountain View, CA 94042, USA.
#
# CIF created using the CSD Python API on 29 September 2022
# The structure has been converted into the P1 space group
# The structure has a 3D framework
# The original CSD entry VALVIQ is in the monoclinic crystal system
# The framework has been calculated to contain at least 10.0% void space
# The void calculation uses a probe of radius 1.32A, grid spacing 0.4
# H atom positions have been added when not included in the experimental data
# Generated hydrogen atom positions removed from atoms on special positions
#
###############################################################################

data_VALVIQ
_chemical_formula_moiety         '(C68 H48 Co8 Gd8 N16 O88)n'
_symmetry_cell_setting           triclinic
_symmetry_space_group_name_H-M   'P 1'
_symmetry_Int_Tables_number      1
_space_group_name_Hall           'P 1'
loop_
_symmetry_equiv_pos_site_id
_symmetry_equiv_pos_as_xyz
1 x,y,z
_cell_length_a                   22.149(6)
_cell_length_b                   9.779(2)
_cell_length_c                   19.376(4)
_cell_angle_alpha                90
_cell_angle_beta                 119.161(13)
_cell_angle_gamma                90
_cell_volume                     3664.83
loop_
_atom_site_label
_atom_site_type_symbol
_atom_site_fract_x
_atom_site_fract_y
_atom_site_fract_z
Gd1 Gd 0.011063(19) 0.30853(4) 0.45570(2)
O11 O 0.0492(3) 0.1349(6) 0.5626(4)
C8 C 0.0281(4) 0.0144(8) 0.5454(5)
Co2 Co 0.18025(5) 0.37106(12) 0.29498(7)
O14 O 0.0981(3) 0.3915(6) 0.1694(3)
O15 O 0.0564(3) 0.5352(6) 0.0668(3)
O16 O 0.2279(3) 0.8561(7) 0.0900(4)
O17 O 0.1346(3) 0.7252(7) 0.0185(4)
H3 H 0.106(5) 0.666(11) 0.017(9)
O18 O 0.1274(3) 0.4984(6) 0.3417(4)
O19 O 0.1183(3) 0.2251(7) 0.3159(4)
O20 O 0.0392(3) 0.2094(6) 0.3573(4)
O21 O 0.0576(3) 0.4782(6) 0.3989(4)
O22 O 0.0801(4) 0.2949(6) 0.0015(4)
N3 N 0.2142(3) 0.5427(7) 0.2581(4)
N4 N 0.2656(3) 0.7163(7) 0.2261(4)
C10 C 0.1049(4) 0.5000(8) 0.1359(4)
C11 C 0.1707(4) 0.5788(8) 0.1794(5)
C12 C 0.2026(4) 0.6849(8) 0.1589(5)
C13 C 0.2697(4) 0.6281(9) 0.2831(5)
H4 H 0.3069 0.6265 0.3341
C14 C 0.1854(4) 0.7589(8) 0.0833(5)
C15 C 0.0811(4) 0.2729(9) 0.3435(5)
C16 C 0.0898(4) 0.4326(10) 0.3625(5)
Co3 Co 0.31975(5) 0.87106(12) 0.20502(7)
O23 O 0.0564(3) 0.4648(6) 0.5668(3)
O25 O 0.2721(3) 0.3561(7) 0.4100(4)
O27 O 0.1346(3) 0.2748(7) 0.5185(4)
O29 O 0.0469(3) 0.0880(6) 0.0909(3)
N5 N 0.2344(3) 0.2163(7) 0.2739(4)
Gd5 Gd 0.011063(19) 0.69147(4) 0.95570(2)
H7 H 0.0825045 0.199948 0.984834
H8 H 0.0678271 0.358265 0.956537
O10 O 0.0469(3) 0.9120(6) 0.5909(3)
Co1 Co 0.81975(5) 0.37106(12) 0.20502(7)
O1 O 0.9019(3) 0.3915(6) 0.3306(3)
O2 O 0.9436(3) 0.5352(6) 0.4332(3)
O3 O 0.7721(3) 0.8561(7) 0.4100(4)
O4 O 0.8654(3) 0.7252(7) 0.4815(4)
H1 H 0.894(5) 0.666(11) 0.483(9)
O5 O 0.8726(3) 0.4984(6) 0.1583(4)
O6 O 0.8817(3) 0.2251(7) 0.1841(4)
O7 O 0.9608(3) 0.2094(6) 0.1427(4)
O8 O 0.9424(3) 0.4782(6) 0.1011(4)
O9 O 0.9199(4) 0.2949(6) 0.4985(4)
N1 N 0.7858(3) 0.5427(7) 0.2419(4)
N2 N 0.7344(3) 0.7163(7) 0.2739(4)
C1 C 0.8951(4) 0.5000(8) 0.3641(4)
C2 C 0.8293(4) 0.5788(8) 0.3206(5)
C3 C 0.7974(4) 0.6849(8) 0.3411(5)
C4 C 0.7303(4) 0.6281(9) 0.2169(5)
H2 H 0.6931 0.6265 0.1659
C5 C 0.8146(4) 0.7589(8) 0.4167(5)
C6 C 0.9189(4) 0.2729(9) 0.1565(5)
C7 C 0.9102(4) 0.4326(10) 0.1375(5)
O12 O 0.9531(3) 0.0880(6) 0.4091(3)
Gd2 Gd 0.988937(19) 0.30853(4) 0.04430(2)
Gd4 Gd 0.988937(19) 0.69147(4) 0.54430(2)
Co4 Co 0.68025(5) 0.87106(12) 0.29498(7)
O26 O 0.7279(3) 0.3561(7) 0.0900(4)
N6 N 0.7656(3) 0.2163(7) 0.2261(4)
O24 O 0.9436(3) 0.4648(6) 0.9332(3)
O28 O 0.8654(3) 0.2748(7) 0.9815(4)
O30 O 0.9508(3) 0.1349(6) 0.9374(4)
O13 O 0.9508(3) 0.8651(6) 0.4374(4)
C9 C 0.9719(4) 0.9856(8) 0.4546(5)
H5 H 0.117222 0.230951 0.0367239
H6 H 0.0587004 0.261302 0.946191
O13_2 O 0.0492(3) 0.8651(6) 0.0626(4)
C9_2 C 0.0281(4) 0.9856(8) 0.0454(5)
C8_2 C 0.9719(4) 0.0144(8) 0.9546(5)
O10_2 O 0.9531(3) 0.9120(6) 0.9091(3)
O2_2 O 0.4436(3) 0.0352(6) 0.4332(3)
O4_2 O 0.3654(3) 0.2252(7) 0.4815(4)
H1_2 H 0.394(5) 0.166(11) 0.483(9)
N1_2 N 0.2858(3) 0.0427(7) 0.2419(4)
C1_2 C 0.3951(4) 0.0000(8) 0.3641(4)
C2_2 C 0.3293(4) 0.0788(8) 0.3206(5)
C3_2 C 0.2974(4) 0.1849(8) 0.3411(5)
C4_2 C 0.2303(4) 0.1281(9) 0.2169(5)
H2_2 H 0.1931 0.1265 0.1659
C5_2 C 0.3146(4) 0.2589(8) 0.4167(5)
O15_2 O 0.5564(3) 0.0352(6) 0.0668(3)
O17_2 O 0.6346(3) 0.2252(7) 0.0185(4)
H3_2 H 0.606(5) 0.166(11) 0.017(9)
N3_2 N 0.7142(3) 0.0427(7) 0.2581(4)
C10_2 C 0.6049(4) 0.0000(8) 0.1359(4)
C11_2 C 0.6707(4) 0.0788(8) 0.1794(5)
C12_2 C 0.7026(4) 0.1849(8) 0.1589(5)
C13_2 C 0.7697(4) 0.1281(9) 0.2831(5)
H4_2 H 0.8069 0.1265 0.3341
C14_2 C 0.6854(4) 0.2589(8) 0.0833(5)
Gd4_2 Gd 0.488937(19) 0.19147(4) 0.54430(2)
Gd5_2 Gd 0.511063(19) 0.19147(4) 0.95570(2)
Gd1_2 Gd 0.511063(19) 0.80853(4) 0.45570(2)
O1_2 O 0.4019(3) 0.8915(6) 0.3306(3)
O5_2 O 0.3726(3) 0.9984(6) 0.1583(4)
O6_2 O 0.3817(3) 0.7251(7) 0.1841(4)
O7_2 O 0.4608(3) 0.7094(6) 0.1427(4)
O8_2 O 0.4424(3) 0.9782(6) 0.1011(4)
O9_2 O 0.4199(4) 0.7949(6) 0.4985(4)
O10_3 O 0.5469(3) 0.4120(6) 0.5909(3)
O11_2 O 0.5492(3) 0.6349(6) 0.5626(4)
C1_3 C 0.3951(4) 1.0000(8) 0.3641(4)
C6_2 C 0.4189(4) 0.7729(9) 0.1565(5)
C7_2 C 0.4102(4) 0.9326(10) 0.1375(5)
C8_3 C 0.5281(4) 0.5144(8) 0.5454(5)
O12_2 O 0.4531(3) 0.5880(6) 0.4091(3)
O13_3 O 0.4508(3) 0.3651(6) 0.4374(4)
C9_3 C 0.4719(4) 0.4856(8) 0.4546(5)
Gd2_2 Gd 0.488937(19) 0.80853(4) 0.04430(2)
O14_2 O 0.5981(3) 0.8915(6) 0.1694(3)
O18_2 O 0.6274(3) 0.9984(6) 0.3417(4)
O19_2 O 0.6183(3) 0.7251(7) 0.3159(4)
O20_2 O 0.5392(3) 0.7094(6) 0.3573(4)
O21_2 O 0.5576(3) 0.9782(6) 0.3989(4)
O22_2 O 0.5801(4) 0.7949(6) 0.0015(4)
C10_3 C 0.6049(4) 1.0000(8) 0.1359(4)
C15_2 C 0.5811(4) 0.7729(9) 0.3435(5)
C16_2 C 0.5898(4) 0.9326(10) 0.3625(5)
O23_2 O 0.5564(3) 0.9648(6) 0.5668(3)
O27_2 O 0.6346(3) 0.7748(7) 0.5185(4)
O29_2 O 0.5469(3) 0.5880(6) 0.0909(3)
O24_2 O 0.4436(3) 0.9648(6) 0.9332(3)
O28_2 O 0.3654(3) 0.7748(7) 0.9815(4)
O30_2 O 0.4508(3) 0.6349(6) 0.9374(4)
H7_2 H 0.582504 0.699948 0.984834
H8_2 H 0.567827 0.858265 0.956537
O13_4 O 0.5492(3) 0.3651(6) 0.0626(4)
C9_4 C 0.5281(4) 0.4856(8) 0.0454(5)
H5_2 H 0.617222 0.730951 0.0367239
O10_4 O 0.4531(3) 0.4120(6) 0.9091(3)
C8_4 C 0.4719(4) 0.5144(8) 0.9546(5)
H6_2 H 0.5587 0.761302 0.946191
Co1_2 Co 0.18025(5) 0.62894(12) 0.79498(7)
O1_3 O 0.0981(3) 0.6085(6) 0.6694(3)
O3_2 O 0.2279(3) 0.1439(7) 0.5900(4)
H1_3 H 0.106(5) 0.334(11) 0.517(9)
O5_3 O 0.1274(3) 0.5016(6) 0.8417(4)
O6_3 O 0.1183(3) 0.7749(7) 0.8159(4)
O7_3 O 0.0392(3) 0.7906(6) 0.8573(4)
O8_3 O 0.0576(3) 0.5218(6) 0.8989(4)
O9_3 O 0.0801(4) 0.7051(6) 0.5015(4)
N1_3 N 0.2142(3) 0.4573(7) 0.7581(4)
N2_2 N 0.2656(3) 0.2837(7) 0.7261(4)
C1_4 C 0.1049(4) 0.5000(8) 0.6359(4)
C2_3 C 0.1707(4) 0.4212(8) 0.6794(5)
C3_3 C 0.2026(4) 0.3151(8) 0.6589(5)
C4_3 C 0.2697(4) 0.3719(9) 0.7831(5)
H2_3 H 0.3069 0.3735 0.8341
C5_3 C 0.1854(4) 0.2411(8) 0.5833(5)
C6_3 C 0.0811(4) 0.7271(9) 0.8435(5)
C7_3 C 0.0898(4) 0.5674(10) 0.8625(5)
Co4_2 Co 0.31975(5) 0.12894(12) 0.70502(7)
O26_2 O 0.2721(3) 0.6439(7) 0.9100(4)
N6_2 N 0.2344(3) 0.7837(7) 0.7739(4)
H7_3 H 0.917496 0.800052 0.0151656
H8_3 H 0.932173 0.641735 0.0434627
Co2_2 Co 0.81975(5) 0.62894(12) 0.70502(7)
O14_3 O 0.9019(3) 0.6085(6) 0.8306(3)
O16_2 O 0.7721(3) 0.1439(7) 0.9100(4)
H3_3 H 0.894(5) 0.334(11) 0.983(9)
O18_3 O 0.8726(3) 0.5016(6) 0.6583(4)
O19_3 O 0.8817(3) 0.7749(7) 0.6841(4)
O20_3 O 0.9608(3) 0.7906(6) 0.6427(4)
O21_3 O 0.9424(3) 0.5218(6) 0.6011(4)
O22_3 O 0.9199(4) 0.7051(6) 0.9985(4)
N3_3 N 0.7858(3) 0.4573(7) 0.7419(4)
N4_2 N 0.7344(3) 0.2837(7) 0.7739(4)
C10_4 C 0.8951(4) 0.5000(8) 0.8641(4)
C11_3 C 0.8293(4) 0.4212(8) 0.8206(5)
C12_3 C 0.7974(4) 0.3151(8) 0.8411(5)
C13_3 C 0.7303(4) 0.3719(9) 0.7169(5)
H4_3 H 0.6931 0.3735 0.6659
C14_3 C 0.8146(4) 0.2411(8) 0.9167(5)
C15_3 C 0.9189(4) 0.7271(9) 0.6565(5)
C16_3 C 0.9102(4) 0.5674(10) 0.6375(5)
Co3_2 Co 0.68025(5) 0.12894(12) 0.79498(7)
O25_2 O 0.7279(3) 0.6439(7) 0.5900(4)
N5_2 N 0.7656(3) 0.7837(7) 0.7261(4)
H6_3 H 0.9413 0.738698 0.0538086
H5_3 H 0.882778 0.769049 0.963276
H7_4 H 0.417496 0.300052 0.0151656
H8_4 H 0.432173 0.141735 0.0434627
O1_4 O 0.5981(3) 0.1085(6) 0.6694(3)
O5_4 O 0.6274(3) 0.0016(6) 0.8417(4)
O6_4 O 0.6183(3) 0.2749(7) 0.8159(4)
O7_4 O 0.5392(3) 0.2906(6) 0.8573(4)
O8_4 O 0.5576(3) 0.0218(6) 0.8989(4)
O9_4 O 0.5801(4) 0.2051(6) 0.5015(4)
C1_5 C 0.6049(4) 0.0000(8) 0.6359(4)
C6_4 C 0.5811(4) 0.2271(9) 0.8435(5)
C7_4 C 0.5898(4) 0.0674(10) 0.8625(5)
O14_4 O 0.4019(3) 0.1085(6) 0.8306(3)
O18_4 O 0.3726(3) 0.0016(6) 0.6583(4)
O19_4 O 0.3817(3) 0.2749(7) 0.6841(4)
O20_4 O 0.4608(3) 0.2906(6) 0.6427(4)
O21_4 O 0.4424(3) 0.0218(6) 0.6011(4)
O22_4 O 0.4199(4) 0.2051(6) 0.9985(4)
C10_5 C 0.3951(4) 0.0000(8) 0.8641(4)
C15_4 C 0.4189(4) 0.2271(9) 0.6565(5)
C16_4 C 0.4102(4) 0.0674(10) 0.6375(5)
H1_4 H 0.606(5) 0.834(11) 0.517(9)
N1_4 N 0.7142(3) 0.9573(7) 0.7581(4)
C1_6 C 0.6049(4) 1.0000(8) 0.6359(4)
C2_4 C 0.6707(4) 0.9212(8) 0.6794(5)
C3_4 C 0.7026(4) 0.8151(8) 0.6589(5)
C4_4 C 0.7697(4) 0.8719(9) 0.7831(5)
H2_4 H 0.8069 0.8735 0.8341
C5_4 C 0.6854(4) 0.7411(8) 0.5833(5)
H3_4 H 0.394(5) 0.834(11) 0.983(9)
N3_4 N 0.2858(3) 0.9573(7) 0.7419(4)
C10_6 C 0.3951(4) 1.0000(8) 0.8641(4)
C11_4 C 0.3293(4) 0.9212(8) 0.8206(5)
C12_4 C 0.2974(4) 0.8151(8) 0.8411(5)
C13_4 C 0.2303(4) 0.8719(9) 0.7169(5)
H4_4 H 0.1931 0.8735 0.6659
C14_4 C 0.3146(4) 0.7411(8) 0.9167(5)
H6_4 H 0.4413 0.238698 0.0538086
H5_4 H 0.382778 0.269049 0.963276
loop_
_geom_bond_atom_site_label_1
_geom_bond_atom_site_label_2
_geom_bond_site_symmetry_1
_geom_bond_site_symmetry_2
O11 Gd1 1_555 1_555
C8 O11 1_555 1_555
Co2 O14 1_555 1_555
O16 C14 1_555 1_555
O17 H3 1_555 1_555
O18 Co2 1_555 1_555
O19 Co2 1_555 1_555
O20 Gd1 1_555 1_555
O21 Gd1 1_555 1_555
N3 Co2 1_555 1_555
N4 C12 1_555 1_555
C10 O14 1_555 1_555
C11 N3 1_555 1_555
C12 C11 1_555 1_555
C13 N3 1_555 1_555
H4 C13 1_555 1_555
C14 O17 1_555 1_555
C15 O19 1_555 1_555
C16 O18 1_555 1_555
Co3 O16 1_555 1_555
O23 Gd1 1_555 1_555
O25 Co2 1_555 1_555
O27 Gd1 1_555 1_555
N5 Co2 1_555 1_555
O15 C10 1_555 1_555
O20 C15 1_555 1_555
O21 C16 1_555 1_555
N4 C13 1_555 1_555
N4 Co3 1_555 1_555
C10 C11 1_555 1_555
C12 C14 1_555 1_555
C15 C16 1_555 1_555
Co1 O1 1_555 1_555
O1 C1 1_555 1_555
O3 C5 1_555 1_555
O4 H1 1_555 1_555
O5 Co1 1_555 1_555
O6 Co1 1_555 1_555
O7 C6 1_555 1_555
O8 C7 1_555 1_555
N1 Co1 1_555 1_555
N2 C3 1_555 1_555
C1 O2 1_555 1_555
C2 N1 1_555 1_555
C3 C2 1_555 1_555
C4 N1 1_555 1_555
H2 C4 1_555 1_555
C5 O4 1_555 1_555
C6 O6 1_555 1_555
C7 O5 1_555 1_555
Gd2 O7 1_555 1_555
Gd4 O2 1_555 1_555
Co4 O3 1_555 1_555
O26 Co1 1_555 1_555
N6 Co1 1_555 1_555
O4 Gd4 1_555 1_555
O8 Gd2 1_555 1_555
N2 C4 1_555 1_555
N2 Co4 1_555 1_555
C1 C2 1_555 1_555
C3 C5 1_555 1_555
C6 C7 1_555 1_555
O13 C9 1_555 1_555
O13 Gd4 1_555 1_555
O22 H5 1_555 1_555
O13_2 C9_2 1_555 1_555
C8_2 O30 1_555 1_555
O25 C5_2 1_555 1_555
O4_2 H1_2 1_555 1_555
N5 C3_2 1_555 1_555
C1_2 O2_2 1_555 1_555
C2_2 N1_2 1_555 1_555
C3_2 C2_2 1_555 1_555
C4_2 N1_2 1_555 1_555
H2_2 C4_2 1_555 1_555
C5_2 O4_2 1_555 1_555
O26 C14_2 1_555 1_555
O17_2 H3_2 1_555 1_555
N6 C12_2 1_555 1_555
C11_2 N3_2 1_555 1_555
C12_2 C11_2 1_555 1_555
C13_2 N3_2 1_555 1_555
H4_2 C13_2 1_555 1_555
C14_2 O17_2 1_555 1_555
Gd4_2 O2_2 1_555 1_555
O4_2 Gd4_2 1_555 1_555
N5 C4_2 1_555 1_555
C1_2 C2_2 1_555 1_555
C3_2 C5_2 1_555 1_555
O15_2 C10_2 1_555 1_555
N6 C13_2 1_555 1_555
C10_2 C11_2 1_555 1_555
C12_2 C14_2 1_555 1_555
Gd1_2 O1_2 1_555 1_555
Co3 O1_2 1_555 1_555
O1_2 C1_3 1_555 1_555
O5_2 Co3 1_555 1_555
O6_2 Co3 1_555 1_555
O7_2 C6_2 1_555 1_555
O8_2 C7_2 1_555 1_555
O9_2 Gd1_2 1_555 1_555
O10_3 C8_3 1_555 1_555
O11_2 Gd1_2 1_555 1_555
C6_2 O6_2 1_555 1_555
C7_2 O5_2 1_555 1_555
C8_3 O11_2 1_555 1_555
O12_2 Gd1_2 1_555 1_555
O13_3 C9_3 1_555 1_555
C9_3 C8_3 1_555 1_555
Gd2_2 O7_2 1_555 1_555
Co4 O14_2 1_555 1_555
O14_2 Gd2_2 1_555 1_555
O18_2 Co4 1_555 1_555
O19_2 Co4 1_555 1_555
O20_2 Gd1_2 1_555 1_555
O21_2 Gd1_2 1_555 1_555
O22_2 Gd2_2 1_555 1_555
C10_3 O14_2 1_555 1_555
C15_2 O19_2 1_555 1_555
C16_2 O18_2 1_555 1_555
Gd4_2 O10_3 1_555 1_555
O23_2 Gd1_2 1_555 1_555
O27_2 Gd1_2 1_555 1_555
O29_2 Gd2_2 1_555 1_555
O8_2 Gd2_2 1_555 1_555
C6_2 C7_2 1_555 1_555
O12_2 C9_3 1_555 1_555
O13_3 Gd4_2 1_555 1_555
O20_2 C15_2 1_555 1_555
O21_2 C16_2 1_555 1_555
C15_2 C16_2 1_555 1_555
O13_4 C9_4 1_555 1_555
O29_2 C9_4 1_555 1_555
O22_2 H5_2 1_555 1_555
O10_4 C8_4 1_555 1_555
C8_4 O30_2 1_555 1_555
Gd5_2 O10_4 1_555 1_555
Co1_2 O1_3 1_555 1_555
O1_3 C1_4 1_555 1_555
O3_2 C5_3 1_555 1_555
O27 H1_3 1_555 1_555
O5_3 Co1_2 1_555 1_555
O6_3 Co1_2 1_555 1_555
O7_3 C6_3 1_555 1_555
O8_3 C7_3 1_555 1_555
N1_3 Co1_2 1_555 1_555
N2_2 C3_3 1_555 1_555
C1_4 O23 1_555 1_555
C2_3 N1_3 1_555 1_555
C3_3 C2_3 1_555 1_555
C4_3 N1_3 1_555 1_555
H2_3 C4_3 1_555 1_555
C5_3 O27 1_555 1_555
C6_3 O6_3 1_555 1_555
C7_3 O5_3 1_555 1_555
Gd5 O7_3 1_555 1_555
Co4_2 O3_2 1_555 1_555
O26_2 Co1_2 1_555 1_555
N6_2 Co1_2 1_555 1_555
O8_3 Gd5 1_555 1_555
N2_2 C4_3 1_555 1_555
N2_2 Co4_2 1_555 1_555
C1_4 C2_3 1_555 1_555
C3_3 C5_3 1_555 1_555
C6_3 C7_3 1_555 1_555
Co2_2 O14_3 1_555 1_555
O16_2 C14_3 1_555 1_555
O28 H3_3 1_555 1_555
O18_3 Co2_2 1_555 1_555
O19_3 Co2_2 1_555 1_555
O20_3 Gd4 1_555 1_555
O21_3 Gd4 1_555 1_555
N3_3 Co2_2 1_555 1_555
N4_2 C12_3 1_555 1_555
C10_4 O14_3 1_555 1_555
C11_3 N3_3 1_555 1_555
C12_3 C11_3 1_555 1_555
C13_3 N3_3 1_555 1_555
H4_3 C13_3 1_555 1_555
C14_3 O28 1_555 1_555
C15_3 O19_3 1_555 1_555
C16_3 O18_3 1_555 1_555
Co3_2 O16_2 1_555 1_555
O25_2 Co2_2 1_555 1_555
N5_2 Co2_2 1_555 1_555
O24 C10_4 1_555 1_555
O20_3 C15_3 1_555 1_555
O21_3 C16_3 1_555 1_555
N4_2 C13_3 1_555 1_555
N4_2 Co3_2 1_555 1_555
C10_4 C11_3 1_555 1_555
C12_3 C14_3 1_555 1_555
C15_3 C16_3 1_555 1_555
O22_3 H5_3 1_555 1_555
Gd4_2 O1_4 1_555 1_555
Co3_2 O1_4 1_555 1_555
O1_4 C1_5 1_555 1_555
O5_4 Co3_2 1_555 1_555
O6_4 Co3_2 1_555 1_555
O7_4 C6_4 1_555 1_555
O8_4 C7_4 1_555 1_555
O9_4 Gd4_2 1_555 1_555
C6_4 O6_4 1_555 1_555
C7_4 O5_4 1_555 1_555
Gd5_2 O7_4 1_555 1_555
Co4_2 O14_4 1_555 1_555
O14_4 Gd5_2 1_555 1_555
O18_4 Co4_2 1_555 1_555
O19_4 Co4_2 1_555 1_555
O20_4 Gd4_2 1_555 1_555
O21_4 Gd4_2 1_555 1_555
O22_4 Gd5_2 1_555 1_555
C10_5 O14_4 1_555 1_555
C15_4 O19_4 1_555 1_555
C16_4 O18_4 1_555 1_555
O8_4 Gd5_2 1_555 1_555
C6_4 C7_4 1_555 1_555
O20_4 C15_4 1_555 1_555
O21_4 C16_4 1_555 1_555
C15_4 C16_4 1_555 1_555
O25_2 C5_4 1_555 1_555
O27_2 H1_4 1_555 1_555
N5_2 C3_4 1_555 1_555
C1_6 O23_2 1_555 1_555
C2_4 N1_4 1_555 1_555
C3_4 C2_4 1_555 1_555
C4_4 N1_4 1_555 1_555
H2_4 C4_4 1_555 1_555
C5_4 O27_2 1_555 1_555
O26_2 C14_4 1_555 1_555
O28_2 H3_4 1_555 1_555
N6_2 C12_4 1_555 1_555
C11_4 N3_4 1_555 1_555
C12_4 C11_4 1_555 1_555
C13_4 N3_4 1_555 1_555
H4_4 C13_4 1_555 1_555
C14_4 O28_2 1_555 1_555
N5_2 C4_4 1_555 1_555
C1_6 C2_4 1_555 1_555
C3_4 C5_4 1_555 1_555
O24_2 C10_6 1_555 1_555
N6_2 C13_4 1_555 1_555
C10_6 C11_4 1_555 1_555
C12_4 C14_4 1_555 1_555
O22_4 H5_4 1_555 1_555

#END
