
###############################################################################
#
# This file contains modified crystal structure data generated from the
# MOF subset of the Cambridge Structural Database (CSD) v543 
# hosted by the Cambridge Crystallographic Data Centre (CCDC).
#
# This work is licensed under the Creative Commons
# Attribution-NonCommercial-ShareAlike 4.0 International License.
# To view a copy of this license, visit
# http://creativecommons.org/licenses/by-nc-sa/4.0/
# or send a letter to
# Creative Commons, PO Box 1866, Mountain View, CA 94042, USA.
#
# CIF created using the CSD Python API on 29 September 2022
# The structure has been converted into the P1 space group
# The structure has a 3D framework
# The original CSD entry VAMQOS is in the rhombohedral crystal system
# The framework has been calculated to contain at least 10.0% void space
# The void calculation uses a probe of radius 1.32A, grid spacing 0.4
#
###############################################################################

data_VAMQOS
_chemical_formula_moiety         '(C72 H18 Co12 O54)n'
_symmetry_cell_setting           triclinic
_symmetry_space_group_name_H-M   'P 1'
_symmetry_Int_Tables_number      1
_space_group_name_Hall           'P 1'
loop_
_symmetry_equiv_pos_site_id
_symmetry_equiv_pos_as_xyz
1 x,y,z
_cell_length_a                   25.866(5)
_cell_length_b                   25.866(5)
_cell_length_c                   6.8457(12)
_cell_angle_alpha                90
_cell_angle_beta                 90
_cell_angle_gamma                120
_cell_volume                     3966.5
loop_
_atom_site_label
_atom_site_type_symbol
_atom_site_fract_x
_atom_site_fract_y
_atom_site_fract_z
O7 O 0.02201(10) 0.60776(14) 0.3384(3)
O11 O 0.03722(15) 0.69769(19) 0.0294(3)
C1 C 0.01033(15) 0.55561(14) 0.4228(4)
O5 O 0.00619(11) 0.37055(15) 0.3039(3)
O6 O 0.03162(11) 0.43740(10) 0.0678(3)
C6 C 0.00585(15) 0.45930(14) 0.3785(4)
C7 C 0.01595(16) 0.51453(15) 0.3073(4)
H2 H 0.0271 0.5242 0.1744
C8 C 0.01506(14) 0.42059(13) 0.2397(4)
Co4 Co 0.04880(2) 0.68587(3) 0.47634(6)
Co6 Co 0.02959(2) 0.38213(2) 0.85699(6)
Co7 Co 0.01921(3) 0.30374(2) 0.19032(6)
O10 O 0.08092(17) 0.35534(10) 0.9949(3)
O13 O 0.03103(19) 0.32714(11) 0.6372(3)
Co1 Co 0.97041(2) 0.61787(2) 0.14301(6)
O8 O 0.91908(17) 0.64466(10) 0.0051(3)
O12 O 0.96897(19) 0.67286(11) 0.3628(3)
O2 O 0.99381(11) 0.62945(15) 0.6961(3)
O3 O 0.96838(11) 0.56260(10) 0.9322(3)
C2 C 0.99415(15) 0.54070(14) 0.6215(4)
C3 C 0.98405(16) 0.48547(15) 0.6927(4)
H1 H 0.9729 0.4758 0.8256
C4 C 0.98494(14) 0.57941(13) 0.7603(4)
O4 O 0.97799(10) 0.39224(14) 0.6616(3)
C5 C 0.98967(15) 0.44439(14) 0.5772(4)
Co5 Co 0.98079(3) 0.69626(2) 0.80968(6)
Co8 Co 0.95120(2) 0.31413(3) 0.52366(6)
O14 O 0.96278(15) 0.30231(19) 0.9706(3)
Co1_2 Co 0.38213(2) 0.35254(3) 0.14301(6)
O7_2 O 0.39224(14) 0.41425(17) 0.3384(3)
O8_2 O 0.35534(10) 0.27443(20) 0.0051(3)
O11_2 O 0.30231(19) 0.33952(24) 0.0294(3)
O12_2 O 0.32714(11) 0.29612(22) 0.3628(3)
O2_2 O 0.37055(15) 0.36436(19) 0.6961(3)
O3_2 O 0.43740(10) 0.40578(15) 0.9322(3)
C1_2 C 0.44439(14) 0.45472(21) 0.4228(4)
C2_2 C 0.45930(14) 0.45345(21) 0.6215(4)
C3_2 C 0.51453(15) 0.49858(22) 0.6927(4)
H1_2 H 0.5242 0.4971 0.8256
C4_2 C 0.42059(13) 0.40553(19) 0.7603(4)
O4_2 O 0.60776(14) 0.58575(17) 0.6616(3)
O5_2 O 0.62945(15) 0.63564(19) 0.3039(3)
O6_2 O 0.56260(10) 0.59422(15) 0.0678(3)
C5_2 C 0.55561(14) 0.54528(21) 0.5772(4)
C6_2 C 0.54070(14) 0.54655(21) 0.3785(4)
C7_2 C 0.48547(15) 0.50142(22) 0.3073(4)
H2_2 H 0.4758 0.5029 0.1744
C8_2 C 0.57941(13) 0.59447(19) 0.2397(4)
Co4_2 Co 0.31413(3) 0.36292(4) 0.47634(6)
Co5_2 Co 0.30374(2) 0.28454(4) 0.80968(6)
Co6_2 Co 0.61787(2) 0.64746(3) 0.85699(6)
Co7_2 Co 0.69626(2) 0.71546(4) 0.19032(6)
Co8_2 Co 0.68587(3) 0.63708(4) 0.52366(6)
O10_2 O 0.64466(10) 0.72557(20) 0.9949(3)
O13_2 O 0.67286(11) 0.70388(22) 0.6372(3)
O14_2 O 0.69769(19) 0.66048(24) 0.9706(3)
Co1_3 Co 0.64746(3) 0.02959(2) 0.14301(6)
O8_3 O 0.72557(20) 0.08092(17) 0.0051(3)
O12_3 O 0.70388(22) 0.03103(19) 0.3628(3)
O2_3 O 0.63564(19) 0.00619(11) 0.6961(3)
O3_3 O 0.59422(15) 0.03162(11) 0.9322(3)
C2_3 C 0.54655(21) 0.00585(15) 0.6215(4)
C3_3 C 0.50142(22) 0.01595(16) 0.6927(4)
H1_3 H 0.5029 0.0271 0.8256
C4_3 C 0.59447(19) 0.01506(14) 0.7603(4)
O4_3 O 0.41425(17) 0.02201(10) 0.6616(3)
C5_3 C 0.45472(21) 0.01033(15) 0.5772(4)
Co5_3 Co 0.71546(4) 0.01921(3) 0.80968(6)
Co8_3 Co 0.36292(4) 0.04880(2) 0.52366(6)
O14_3 O 0.33952(24) 0.03722(15) 0.9706(3)
O7_3 O 0.58575(17) 0.97799(10) 0.3384(3)
O11_3 O 0.66048(24) 0.96278(15) 0.0294(3)
C1_3 C 0.54528(21) 0.98967(15) 0.4228(4)
O5_3 O 0.36436(19) 0.99381(11) 0.3039(3)
O6_3 O 0.40578(15) 0.96838(11) 0.0678(3)
C6_3 C 0.45345(21) 0.99415(15) 0.3785(4)
C7_3 C 0.49858(22) 0.98405(16) 0.3073(4)
H2_3 H 0.4971 0.9729 0.1744
C8_3 C 0.40553(19) 0.98494(14) 0.2397(4)
Co4_3 Co 0.63708(4) 0.95120(2) 0.47634(6)
Co6_3 Co 0.35254(3) 0.97041(2) 0.85699(6)
Co7_3 Co 0.28454(4) 0.98079(3) 0.19032(6)
O10_3 O 0.27443(20) 0.91908(17) 0.9949(3)
O13_3 O 0.29612(22) 0.96897(19) 0.6372(3)
O3_4 O 0.63505(11) 0.89593(10) 0.2655(3)
C3_4 C 0.65072(16) 0.81880(15) 0.0260(4)
H1_4 H 0.6396 0.8091 0.1589
C4_4 C 0.65161(14) 0.91274(13) 0.0936(4)
O7_4 O 0.68868(10) 0.94109(14) 0.6717(3)
C1_4 C 0.67700(15) 0.88894(14) 0.7561(4)
C2_4 C 0.66082(15) 0.87403(14) 0.9548(4)
O6_4 O 0.69829(11) 0.77073(10) 0.4011(3)
C5_4 C 0.65634(15) 0.77772(14) 0.9105(4)
C6_4 C 0.67252(15) 0.79263(14) 0.7118(4)
C7_4 C 0.68262(16) 0.84786(15) 0.6406(4)
H2_4 H 0.6938 0.8575 0.5077
C8_4 C 0.68173(14) 0.75392(13) 0.5730(4)
O10_4 O 0.74758(17) 0.68868(10) 0.3283(3)
O10_5 O 0.31132(10) 0.05891(20) 0.3283(3)
O3_5 O 0.10407(10) 0.73911(15) 0.2655(3)
C3_5 C 0.18120(15) 0.83191(22) 0.0260(4)
H1_5 H 0.1909 0.8304 0.1589
C4_5 C 0.08726(13) 0.73886(19) 0.0936(4)
O7_5 O 0.05891(14) 0.74758(17) 0.6717(3)
C1_5 C 0.11106(14) 0.78805(21) 0.7561(4)
C2_5 C 0.12597(14) 0.78678(21) 0.9548(4)
O6_5 O 0.22927(10) 0.92755(15) 0.4011(3)
C5_5 C 0.22228(14) 0.87861(21) 0.9105(4)
C6_5 C 0.20737(14) 0.87988(21) 0.7118(4)
C7_5 C 0.15214(15) 0.83475(22) 0.6406(4)
H2_5 H 0.1425 0.8362 0.5077
C8_5 C 0.24608(13) 0.92780(19) 0.5730(4)
O3_6 O 0.26089(15) 0.36495(11) 0.2655(3)
C3_6 C 0.16809(22) 0.34928(16) 0.0260(4)
H1_6 H 0.1696 0.3604 0.1589
C4_6 C 0.26114(19) 0.34839(14) 0.0936(4)
O7_6 O 0.25242(17) 0.31132(10) 0.6717(3)
C1_6 C 0.21195(21) 0.32300(15) 0.7561(4)
C2_6 C 0.21322(21) 0.33918(15) 0.9548(4)
O6_6 O 0.07245(15) 0.30171(11) 0.4011(3)
C5_6 C 0.12139(21) 0.34366(15) 0.9105(4)
C6_6 C 0.12012(21) 0.32748(15) 0.7118(4)
C7_6 C 0.16525(22) 0.31738(16) 0.6406(4)
H2_6 H 0.1638 0.3062 0.5077
C8_6 C 0.07220(19) 0.31827(14) 0.5730(4)
O10_6 O 0.94109(20) 0.25242(17) 0.3283(3)
O3_7 O 0.30171(11) 0.22927(10) 0.5989(3)
C1_7 C 0.34366(15) 0.22228(14) 0.0895(4)
C2_7 C 0.32748(15) 0.20737(14) 0.2882(4)
C3_7 C 0.31738(16) 0.15214(15) 0.3594(4)
H1_7 H 0.3062 0.1425 0.4923
C4_7 C 0.31827(14) 0.24608(13) 0.4270(4)
C5_7 C 0.32300(15) 0.11106(14) 0.2439(4)
C6_7 C 0.33918(15) 0.12597(14) 0.0452(4)
O6_7 O 0.36495(11) 0.10407(10) 0.7345(3)
C7_7 C 0.34928(16) 0.18120(15) 0.9740(4)
H2_7 H 0.3604 0.1909 0.8411
C8_7 C 0.34839(14) 0.08726(13) 0.9064(4)
O3_8 O 0.77073(10) 0.07245(15) 0.5989(3)
C1_8 C 0.77772(14) 0.12139(21) 0.0895(4)
C2_8 C 0.79263(14) 0.12012(21) 0.2882(4)
C3_8 C 0.84786(15) 0.16525(22) 0.3594(4)
H1_8 H 0.8575 0.1638 0.4923
C4_8 C 0.75392(13) 0.07220(19) 0.4270(4)
C5_8 C 0.88894(14) 0.21195(21) 0.2439(4)
C6_8 C 0.87403(14) 0.21322(21) 0.0452(4)
O6_8 O 0.89593(10) 0.26089(15) 0.7345(3)
C7_8 C 0.81880(15) 0.16809(22) 0.9740(4)
H2_8 H 0.8091 0.1696 0.8411
C8_8 C 0.91274(13) 0.26114(19) 0.9064(4)
O3_9 O 0.92755(15) 0.69829(11) 0.5989(3)
C1_9 C 0.87861(21) 0.65634(15) 0.0895(4)
C2_9 C 0.87988(21) 0.67252(15) 0.2882(4)
C3_9 C 0.83475(22) 0.68262(16) 0.3594(4)
H1_9 H 0.8362 0.6938 0.4923
C4_9 C 0.92780(19) 0.68173(14) 0.4270(4)
C5_9 C 0.78805(21) 0.67700(15) 0.2439(4)
C6_9 C 0.78678(21) 0.66082(15) 0.0452(4)
O6_9 O 0.73911(15) 0.63505(11) 0.7345(3)
C7_9 C 0.83191(22) 0.65072(16) 0.9740(4)
H2_9 H 0.8304 0.6396 0.8411
C8_9 C 0.73886(19) 0.65161(14) 0.9064(4)
loop_
_geom_bond_atom_site_label_1
_geom_bond_atom_site_label_2
_geom_bond_site_symmetry_1
_geom_bond_site_symmetry_2
O7 C1 1_555 1_555
O5 C8 1_555 1_555
O6 C8 1_555 1_555
C7 C1 1_555 1_555
H2 C7 1_555 1_555
C8 C6 1_555 1_555
Co4 O7 1_555 1_555
Co7 O5 1_555 1_555
C6 C7 1_555 1_555
O10 Co6 1_555 1_555
O13 Co6 1_555 1_555
O8 Co1 1_555 1_555
O12 Co1 1_555 1_555
O2 C4 1_555 1_555
O3 C4 1_555 1_555
C2 C3 1_555 1_555
C3 H1 1_555 1_555
C4 C2 1_555 1_555
O4 C5 1_555 1_555
C5 C3 1_555 1_555
Co5 O2 1_555 1_555
Co8 O4 1_555 1_555
O7_2 Co1_2 1_555 1_555
O8_2 Co1_2 1_555 1_555
O11_2 Co1_2 1_555 1_555
O12_2 Co1_2 1_555 1_555
O7_2 C1_2 1_555 1_555
O2_2 C4_2 1_555 1_555
O3_2 C4_2 1_555 1_555
C1_2 C2_2 1_555 1_555
C2_2 C3_2 1_555 1_555
C3_2 H1_2 1_555 1_555
C4_2 C2_2 1_555 1_555
O4_2 C5_2 1_555 1_555
O5_2 C8_2 1_555 1_555
O6_2 C8_2 1_555 1_555
C5_2 C3_2 1_555 1_555
C6_2 C5_2 1_555 1_555
C7_2 C1_2 1_555 1_555
H2_2 C7_2 1_555 1_555
C8_2 C6_2 1_555 1_555
Co4_2 O7_2 1_555 1_555
Co5_2 O2_2 1_555 1_555
Co6_2 O4_2 1_555 1_555
Co7_2 O5_2 1_555 1_555
Co8_2 O4_2 1_555 1_555
O2_2 Co4_2 1_555 1_555
O5_2 Co8_2 1_555 1_555
C6_2 C7_2 1_555 1_555
O10_2 Co6_2 1_555 1_555
O13_2 Co6_2 1_555 1_555
O14_2 Co6_2 1_555 1_555
O8_3 Co1_3 1_555 1_555
O12_3 Co1_3 1_555 1_555
O2_3 C4_3 1_555 1_555
O3_3 C4_3 1_555 1_555
C2_3 C3_3 1_555 1_555
C3_3 H1_3 1_555 1_555
C4_3 C2_3 1_555 1_555
O4_3 C5_3 1_555 1_555
C5_3 C3_3 1_555 1_555
Co5_3 O2_3 1_555 1_555
Co8_3 O4_3 1_555 1_555
O7_3 C1_3 1_555 1_555
O5_3 C8_3 1_555 1_555
O6_3 C8_3 1_555 1_555
C7_3 C1_3 1_555 1_555
H2_3 C7_3 1_555 1_555
C8_3 C6_3 1_555 1_555
Co4_3 O7_3 1_555 1_555
Co7_3 O5_3 1_555 1_555
C6_3 C7_3 1_555 1_555
O10_3 Co6_3 1_555 1_555
O13_3 Co6_3 1_555 1_555
Co4_3 O3_4 1_555 1_555
O11_3 C4_4 1_555 1_555
O3_4 C4_4 1_555 1_555
C3_4 H1_4 1_555 1_555
O7_4 Co4_3 1_555 1_555
O7_4 C1_4 1_555 1_555
C1_4 C2_4 1_555 1_555
O10_2 C5_4 1_555 1_555
O13_2 C8_4 1_555 1_555
O6_4 C8_4 1_555 1_555
C6_4 C5_4 1_555 1_555
C7_4 C1_4 1_555 1_555
H2_4 C7_4 1_555 1_555
C8_4 C6_4 1_555 1_555
Co7_2 O6_4 1_555 1_555
Co8_2 O13_2 1_555 1_555
O10_4 Co7_2 1_555 1_555
C6_4 C7_4 1_555 1_555
Co8_2 O10_4 1_555 1_555
Co8_3 O10_5 1_555 1_555
Co4 O3_5 1_555 1_555
O11 C4_5 1_555 1_555
O3_5 C4_5 1_555 1_555
C3_5 H1_5 1_555 1_555
O7_5 Co4 1_555 1_555
O7_5 C1_5 1_555 1_555
C1_5 C2_5 1_555 1_555
O10_3 C5_5 1_555 1_555
O13_3 C8_5 1_555 1_555
O6_5 C8_5 1_555 1_555
C6_5 C5_5 1_555 1_555
C7_5 C1_5 1_555 1_555
H2_5 C7_5 1_555 1_555
C8_5 C6_5 1_555 1_555
Co7_3 O6_5 1_555 1_555
C6_5 C7_5 1_555 1_555
Co4_2 O3_6 1_555 1_555
O11_2 C4_6 1_555 1_555
O3_6 C4_6 1_555 1_555
C3_6 H1_6 1_555 1_555
O7_6 Co4_2 1_555 1_555
O12_2 Co4_2 1_555 1_555
O7_6 C1_6 1_555 1_555
C1_6 C2_6 1_555 1_555
O10 C5_6 1_555 1_555
O13 C8_6 1_555 1_555
O6_6 C8_6 1_555 1_555
C6_6 C5_6 1_555 1_555
C7_6 C1_6 1_555 1_555
H2_6 C7_6 1_555 1_555
C8_6 C6_6 1_555 1_555
Co7 O6_6 1_555 1_555
Co5_2 O7_6 1_555 1_555
C6_6 C7_6 1_555 1_555
Co8 O10_6 1_555 1_555
Co5_2 O3_7 1_555 1_555
O8_2 C1_7 1_555 1_555
O12_2 C4_7 1_555 1_555
O3_7 C4_7 1_555 1_555
C1_7 C2_7 1_555 1_555
C2_7 C3_7 1_555 1_555
C3_7 H1_7 1_555 1_555
C4_7 C2_7 1_555 1_555
O10_5 C5_7 1_555 1_555
C5_7 C3_7 1_555 1_555
C6_7 C5_7 1_555 1_555
O14_3 C8_7 1_555 1_555
O6_7 C8_7 1_555 1_555
H2_7 C7_7 1_555 1_555
Co8_3 O6_7 1_555 1_555
Co5_3 O3_8 1_555 1_555
O8_3 C1_8 1_555 1_555
O12_3 C4_8 1_555 1_555
O3_8 C4_8 1_555 1_555
C1_8 C2_8 1_555 1_555
C2_8 C3_8 1_555 1_555
C3_8 H1_8 1_555 1_555
C4_8 C2_8 1_555 1_555
O10_6 C5_8 1_555 1_555
C5_8 C3_8 1_555 1_555
C6_8 C5_8 1_555 1_555
O14 C8_8 1_555 1_555
O6_8 C8_8 1_555 1_555
H2_8 C7_8 1_555 1_555
Co8 O6_8 1_555 1_555
Co5 O3_9 1_555 1_555
O8 C1_9 1_555 1_555
O12 C4_9 1_555 1_555
O3_9 C4_9 1_555 1_555
C1_9 C2_9 1_555 1_555
C2_9 C3_9 1_555 1_555
C3_9 H1_9 1_555 1_555
C4_9 C2_9 1_555 1_555
O10_4 C5_9 1_555 1_555
C5_9 C3_9 1_555 1_555
C6_9 C5_9 1_555 1_555
O14_2 C8_9 1_555 1_555
O6_9 C8_9 1_555 1_555
H2_9 C7_9 1_555 1_555
Co8_2 O6_9 1_555 1_555

#END
