
###############################################################################
#
# This file contains modified crystal structure data generated from the
# MOF subset of the Cambridge Structural Database (CSD) v543 
# hosted by the Cambridge Crystallographic Data Centre (CCDC).
#
# This work is licensed under the Creative Commons
# Attribution-NonCommercial-ShareAlike 4.0 International License.
# To view a copy of this license, visit
# http://creativecommons.org/licenses/by-nc-sa/4.0/
# or send a letter to
# Creative Commons, PO Box 1866, Mountain View, CA 94042, USA.
#
# CIF created using the CSD Python API on 29 September 2022
# The structure has been converted into the P1 space group
# The structure has a 3D framework
# The original CSD entry VAMREK is in the hexagonal crystal system
# The original CSD entry VAMREK is in a Sohncke space group
# The framework has been calculated to contain at least 10.0% void space
# The void calculation uses a probe of radius 1.32A, grid spacing 0.4
#
###############################################################################

data_VAMREK
_chemical_formula_moiety         '(C216 H108 Cu10 N36 O72)n'
_symmetry_cell_setting           triclinic
_symmetry_space_group_name_H-M   'P 1'
_symmetry_Int_Tables_number      1
_space_group_name_Hall           'P 1'
loop_
_symmetry_equiv_pos_site_id
_symmetry_equiv_pos_as_xyz
1 x,y,z
_cell_length_a                   9.5619(3)
_cell_length_b                   9.5619(3)
_cell_length_c                   107.217(5)
_cell_angle_alpha                90
_cell_angle_beta                 90
_cell_angle_gamma                120
_cell_volume                     8489.51
loop_
_atom_site_label
_atom_site_type_symbol
_atom_site_fract_x
_atom_site_fract_y
_atom_site_fract_z
Cu1 Cu 0.07369(7) 0.52864(7) 0.63993(2)
Cu3 Cu 0.07369(7) 0.54505(10) 0.52674(2)
O13 O 0.1834(4) 0.5501(6) 0.51116(2)
O14 O 0.1834(4) 0.6333(4) 0.65550(2)
N7 N 0.2849(4) 0.5558(5) 0.63292(3)
N8 N 0.2849(4) 0.7291(6) 0.53375(3)
N9 N 0.7585(5) 0.0720(5) 0.59057(3)
O1 O 0.6333(4) 0.1834(4) 0.67783(2)
C1 C 0.5398(6) 0.1953(5) 0.67002(3)
C2 C 0.6210(5) 0.3054(6) 0.65895(3)
C3 C 0.7814(5) 0.3631(5) 0.65603(3)
H1 H 0.841838 0.331701 0.660854
C4 C 0.5325(6) 0.3522(6) 0.65188(4)
H2 H 0.423827 0.311748 0.653665
C5 C 0.6036(6) 0.4595(7) 0.64204(4)
C6 C 0.7657(6) 0.5116(7) 0.63977(4)
H3 H 0.816978 0.584226 0.633288
C7 C 0.5156(6) 0.5206(6) 0.63444(4)
C8 C 0.3736(5) 0.5079(6) 0.63903(3)
H4 H 0.338875 0.462983 0.646908
C9 C 0.3341(5) 0.6213(5) 0.62151(3)
H5 H 0.271043 0.652735 0.617036
C10 C 0.4755(6) 0.6431(6) 0.61628(3)
C11 C 0.5659(6) 0.5905(6) 0.62272(4)
H6 H 0.660030 0.601723 0.619233
C12 C 0.5280(6) 0.7278(6) 0.60376(3)
N1 N 0.8513(4) 0.4627(5) 0.64642(3)
O2 O 0.3906(4) 0.1283(4) 0.67093(3)
O3 O 0.4390(5) 0.7680(6) 0.59847(3)
O4 O 0.6625(4) 0.7513(4) 0.59962(2)
O5 O 0.9154(10) 0.1936(7) 0.62722(4)
C13 C 0.9194(8) 0.2990(7) 0.62073(4)
C14 C 0.8611(7) 0.2626(6) 0.60734(4)
C15 C 0.8575(6) 0.3771(6) 0.59987(3)
H7 H 0.888408 0.479154 0.603023
C16 C 0.8077(6) 0.3401(5) 0.58762(3)
C17 C 0.7588(6) 0.1882(5) 0.58344(3)
H8 H 0.723863 0.163245 0.575222
C18 C 0.8062(6) 0.1097(6) 0.60236(4)
H9 H 0.802562 0.029759 0.607515
O6 O 0.9747(4) 0.4429(4) 0.62375(2)
Cu2 Cu 0.70714(11) 0.85357(6) 0.583333
O7 O 0.9154(10) 0.7218(12) 0.53945(4)
C19 C 0.9194(8) 0.6204(11) 0.54594(4)
C20 C 0.8611(7) 0.5985(9) 0.55933(4)
C21 C 0.8575(6) 0.4804(8) 0.56680(3)
H10 H 0.888408 0.409254 0.563644
C22 C 0.8077(6) 0.4676(8) 0.57905(3)
C23 C 0.7588(6) 0.5706(8) 0.58323(3)
H11 H 0.723863 0.560618 0.591445
C24 C 0.8062(6) 0.6965(8) 0.56431(4)
H12 H 0.802562 0.772803 0.559152
N4 N 0.7585(5) 0.6865(7) 0.57610(3)
O8 O 0.9747(4) 0.5318(6) 0.54292(2)
O9 O 0.6333(4) 0.4499(6) 0.48884(2)
C25 C 0.5398(6) 0.3445(8) 0.49665(3)
C26 C 0.6210(5) 0.3156(8) 0.50772(3)
C27 C 0.7814(5) 0.4183(7) 0.51064(3)
H13 H 0.841838 0.510137 0.505813
C28 C 0.5325(6) 0.1803(8) 0.51479(4)
H14 H 0.423827 0.112079 0.513002
C29 C 0.6036(6) 0.1441(9) 0.52463(4)
C30 C 0.7657(6) 0.2541(9) 0.52690(4)
H15 H 0.816978 0.232752 0.533379
H18 H 0.660030 0.058307 0.547434
N5 N 0.8513(4) 0.3886(6) 0.52025(3)
O10 O 0.3906(4) 0.2623(6) 0.49574(3)
O15 O 0.4390(5) 0.6710(8) 0.56820(3)
O16 O 0.6625(4) 0.9112(6) 0.56705(2)
Cu5 Cu 0.52864(7) 0.45495(10) 0.47326(2)
Cu6 Cu 0.52864(7) 0.07369(7) 0.69340(2)
C31 C 0.5156(6) 0.9950(8) 0.53223(4)
C32 C 0.3736(5) 0.8657(8) 0.52764(3)
H16 H 0.338875 0.875892 0.519759
C33 C 0.3341(5) 0.7128(7) 0.54516(3)
H17 H 0.271043 0.618308 0.549631
C34 C 0.4755(6) 0.8324(8) 0.55039(3)
C35 C 0.5659(6) 0.9754(8) 0.54395(4)
C36 C 0.5280(6) 0.8002(8) 0.56291(3)
C31_2 C 0.0050(8) 0.5206(10) 0.86556(4)
C32_2 C 0.1343(8) 0.5079(9) 0.86097(3)
H16_2 H 0.124108 0.462983 0.853092
C33_2 C 0.2872(7) 0.6213(9) 0.87849(3)
H17_2 H 0.381692 0.652735 0.882964
C34_2 C 0.1676(8) 0.6431(10) 0.88372(3)
C35_2 C 0.0246(8) 0.5905(10) 0.87728(4)
C36_2 C 0.1998(8) 0.7278(10) 0.89624(3)
N6 N 0.2709(6) 0.5558(7) 0.86708(3)
O11 O 0.3290(8) 0.7680(9) 0.90153(3)
O12 O 0.0888(6) 0.7513(7) 0.90038(2)
Cu7 Cu 0.45495(10) 0.52864(12) 0.86007(2)
Cu8 Cu 0.14643(6) 0.85357(13) 0.916666
O1_2 O 0.8166(4) 0.4499(6) 0.01116(2)
C1_2 C 0.8047(5) 0.3445(8) 0.00335(3)
O2_2 O 0.8717(4) 0.2623(6) 0.00426(3)
Cu6_2 Cu 0.92631(7) 0.45495(10) 0.02674(2)
C2_2 C 0.6946(6) 0.3156(8) 0.99228(3)
C3_2 C 0.6369(5) 0.4183(7) 0.98936(3)
H1_2 H 0.668299 0.510137 0.994187
C4_2 C 0.6478(6) 0.1803(8) 0.98521(4)
H2_2 H 0.688252 0.112079 0.986998
C5_2 C 0.5405(7) 0.1441(9) 0.97537(4)
C6_2 C 0.4884(7) 0.2541(9) 0.97310(4)
H3_2 H 0.415774 0.232752 0.966621
H6_2 H 0.398277 0.058307 0.952566
N1_2 N 0.5373(5) 0.3886(6) 0.97975(3)
O5_2 O 0.8064(7) 0.7218(12) 0.96055(4)
C13_2 C 0.7010(7) 0.6204(11) 0.95406(4)
C14_2 C 0.7374(6) 0.5985(9) 0.94067(4)
C15_2 C 0.6229(6) 0.4804(8) 0.93320(3)
H7_2 H 0.520846 0.409254 0.936356
C16_2 C 0.6599(5) 0.4676(8) 0.92095(3)
C17_2 C 0.8118(5) 0.5706(8) 0.91677(3)
H8_2 H 0.836755 0.560618 0.908555
C18_2 C 0.8903(6) 0.6965(8) 0.93569(4)
H9_2 H 0.970241 0.772803 0.940848
N3 N 0.9280(5) 0.6865(7) 0.92390(3)
O6_2 O 0.5571(4) 0.5318(6) 0.95708(2)
Cu1_2 Cu 0.47136(7) 0.54505(10) 0.97326(2)
O7_2 O 0.2782(12) 0.1936(16) 0.87278(4)
C19_2 C 0.3796(11) 0.2990(14) 0.87927(4)
C20_2 C 0.4015(9) 0.2626(11) 0.89266(4)
C21_2 C 0.5196(8) 0.3771(10) 0.90013(3)
H10_2 H 0.590746 0.479154 0.896977
C22_2 C 0.5324(8) 0.3401(10) 0.91238(3)
C23_2 C 0.4294(8) 0.1882(10) 0.91656(3)
H11_2 H 0.439382 0.163245 0.924778
C24_2 C 0.3035(8) 0.1097(10) 0.89764(4)
H12_2 H 0.227197 0.029759 0.892485
N4_2 N 0.3135(7) 0.0720(9) 0.90943(3)
O8_2 O 0.4682(6) 0.4429(7) 0.87625(2)
O9_2 O 0.5501(6) 0.1834(7) 0.82217(2)
C25_2 C 0.6555(8) 0.1953(10) 0.82998(3)
C26_2 C 0.6844(8) 0.3054(9) 0.84105(3)
C27_2 C 0.5817(7) 0.3631(9) 0.84397(3)
H13_2 H 0.489863 0.331701 0.839146
C28_2 C 0.8197(8) 0.3522(10) 0.84812(4)
H14_2 H 0.887921 0.311748 0.846335
C29_2 C 0.8559(9) 0.4595(11) 0.85796(4)
C30_2 C 0.7459(9) 0.5116(11) 0.86023(4)
H15_2 H 0.767248 0.584226 0.866712
H18_2 H 0.941693 0.601723 0.880767
N5_2 N 0.6114(6) 0.4627(7) 0.85358(3)
O10_2 O 0.7377(6) 0.1283(7) 0.82907(3)
O13_2 O 0.4499(6) 0.6333(7) 0.84450(2)
O14_2 O 0.3667(4) 0.5501(6) 0.98884(2)
N7_2 N 0.4442(5) 0.7291(6) 0.96625(3)
Cu5_2 Cu 0.54505(10) 0.07369(12) 0.80660(2)
C7_2 C 0.4794(6) 0.9950(8) 0.96777(4)
C8_2 C 0.4921(6) 0.8657(8) 0.97236(3)
H4_2 H 0.537017 0.875892 0.980241
C9_2 C 0.3787(5) 0.7128(7) 0.95484(3)
H5_2 H 0.347265 0.618308 0.950369
C10_2 C 0.3569(6) 0.8324(8) 0.94961(3)
C11_2 C 0.4095(6) 0.9754(8) 0.95605(4)
C12_2 C 0.2722(6) 0.8002(8) 0.93709(3)
O3_2 O 0.2320(6) 0.6710(8) 0.93180(3)
O4_2 O 0.2487(4) 0.9112(6) 0.93295(2)
C7_3 C 0.0050(8) 0.4844(6) 0.30111(4)
C8_3 C 0.1343(8) 0.6264(5) 0.30570(3)
H4_3 H 0.124108 0.661125 0.313575
C9_3 C 0.2872(7) 0.6659(5) 0.28818(3)
H5_3 H 0.381692 0.728957 0.283703
C10_3 C 0.1676(8) 0.5245(6) 0.28295(3)
C11_3 C 0.0246(8) 0.4341(6) 0.28939(4)
C12_3 C 0.1998(8) 0.4720(6) 0.27043(3)
N2 N 0.2709(6) 0.7151(4) 0.29959(3)
O3_3 O 0.3290(8) 0.5610(5) 0.26514(3)
O4_3 O 0.0888(6) 0.3375(4) 0.26629(2)
Cu2_2 Cu 0.14643(13) 0.29286(11) 0.250000
O15_2 O 0.2320(9) 0.5610(5) 0.23486(3)
O16_2 O 0.2487(7) 0.3375(4) 0.23371(2)
N9_2 N 0.3135(7) 0.2415(5) 0.25724(3)
Cu4 Cu 0.45495(10) 0.92631(7) 0.30660(2)
O1_3 O 0.5501(6) 0.3667(4) 0.34450(2)
C1_3 C 0.6555(8) 0.4602(6) 0.33669(3)
C2_3 C 0.6844(8) 0.3790(5) 0.32562(3)
C3_3 C 0.5817(7) 0.2186(5) 0.32270(3)
H1_3 H 0.489863 0.158162 0.327521
C4_3 C 0.8197(8) 0.4675(6) 0.31855(4)
H2_3 H 0.887921 0.576173 0.320332
C5_3 C 0.8559(9) 0.3964(6) 0.30871(4)
C6_3 C 0.7459(9) 0.2343(6) 0.30644(4)
H3_3 H 0.767248 0.183022 0.299955
H6_3 H 0.941693 0.339970 0.285900
N1_3 N 0.6114(6) 0.1487(4) 0.31309(3)
O2_3 O 0.7377(6) 0.6094(4) 0.33760(3)
O5_3 O 0.2782(12) 0.0846(10) 0.29389(4)
C13_3 C 0.3796(11) 0.0806(8) 0.28740(4)
C14_3 C 0.4015(9) 0.1389(7) 0.27401(4)
C15_3 C 0.5196(8) 0.1425(6) 0.26654(3)
H7_3 H 0.590746 0.111592 0.269690
C16_3 C 0.5324(8) 0.1923(6) 0.25429(3)
C17_3 C 0.4294(8) 0.2412(6) 0.25011(3)
H8_3 H 0.439382 0.276137 0.241889
C18_3 C 0.3035(8) 0.1938(6) 0.26903(4)
H9_3 H 0.227197 0.197438 0.274182
O6_3 O 0.4682(6) 0.0253(4) 0.29042(2)
O7_3 O 0.8064(16) 0.0846(10) 0.20611(4)
C19_3 C 0.7010(14) 0.0806(8) 0.21260(4)
C20_3 C 0.7374(11) 0.1389(7) 0.22599(4)
C21_3 C 0.6229(10) 0.1425(6) 0.23346(3)
H10_3 H 0.520846 0.111592 0.230310
C22_3 C 0.6599(10) 0.1923(6) 0.24571(3)
C23_3 C 0.8118(10) 0.2412(6) 0.24989(3)
H11_3 H 0.836755 0.276137 0.258111
C24_3 C 0.8903(10) 0.1938(6) 0.23097(4)
H12_3 H 0.970241 0.197438 0.225818
N4_3 N 0.9280(9) 0.2415(5) 0.24276(3)
O8_3 O 0.5571(7) 0.0253(4) 0.20958(2)
O9_3 O 0.8166(7) 0.3667(4) 0.15550(2)
C25_3 C 0.8047(10) 0.4602(6) 0.16331(3)
C26_3 C 0.6946(9) 0.3790(5) 0.17438(3)
C27_3 C 0.6369(9) 0.2186(5) 0.17730(3)
H13_3 H 0.668299 0.158162 0.172479
C28_3 C 0.6478(10) 0.4675(6) 0.18145(4)
H14_3 H 0.688252 0.576173 0.179668
C29_3 C 0.5405(11) 0.3964(6) 0.19129(4)
C30_3 C 0.4884(11) 0.2343(6) 0.19356(4)
H15_3 H 0.415774 0.183022 0.200045
C31_3 C 0.4794(10) 0.4844(6) 0.19889(4)
C32_3 C 0.4921(9) 0.6264(5) 0.19430(3)
H16_3 H 0.537017 0.661125 0.186425
C33_3 C 0.3787(9) 0.6659(5) 0.21182(3)
H17_3 H 0.347265 0.728957 0.216297
C34_3 C 0.3569(10) 0.5245(6) 0.21705(3)
C35_3 C 0.4095(10) 0.4341(6) 0.21061(4)
H18_3 H 0.398277 0.339970 0.214100
C36_3 C 0.2722(10) 0.4720(6) 0.22957(3)
N5_3 N 0.5373(7) 0.1487(4) 0.18691(3)
N6_2 N 0.4442(7) 0.7151(4) 0.20041(3)
O10_3 O 0.8717(7) 0.6094(4) 0.16240(3)
Cu5_3 Cu 0.92631(12) 0.47136(7) 0.13993(2)
Cu6_3 Cu 0.54505(10) 0.47136(7) 0.36007(2)
Cu7_2 Cu 0.47136(12) 0.92631(7) 0.19340(2)
O13_3 O 0.3667(7) 0.8166(4) 0.17783(2)
O14_3 O 0.4499(6) 0.8166(4) 0.32217(2)
C31_4 C 0.4844(6) 0.0050(8) 0.03223(4)
C32_4 C 0.6264(5) 0.1343(8) 0.02764(3)
H16_4 H 0.661125 0.124108 0.019759
C33_4 C 0.6659(5) 0.2872(7) 0.04516(3)
H17_4 H 0.728957 0.381692 0.049631
C34_4 C 0.5245(6) 0.1676(8) 0.05039(3)
C35_4 C 0.4341(6) 0.0246(8) 0.04395(4)
C36_4 C 0.4720(6) 0.1998(8) 0.06291(3)
N6_3 N 0.7151(4) 0.2709(6) 0.03375(3)
O11_2 O 0.5610(5) 0.3290(8) 0.06820(3)
O12_2 O 0.3375(4) 0.0888(6) 0.06705(2)
Cu8_2 Cu 0.29286(11) 0.14643(6) 0.083333
C1_4 C 0.4602(6) 0.8047(5) 0.17002(3)
C2_4 C 0.3790(5) 0.6946(6) 0.15895(3)
C3_4 C 0.2186(5) 0.6369(5) 0.15603(3)
H1_4 H 0.158162 0.668299 0.160854
C4_4 C 0.4675(6) 0.6478(6) 0.15188(4)
H2_4 H 0.576173 0.688252 0.153665
C5_4 C 0.3964(6) 0.5405(7) 0.14204(4)
C6_4 C 0.2343(6) 0.4884(7) 0.13977(4)
H3_4 H 0.183022 0.415774 0.133288
C7_4 C 0.4844(6) 0.4794(6) 0.13444(4)
C8_4 C 0.6264(5) 0.4921(6) 0.13903(3)
H4_4 H 0.661125 0.537017 0.146908
C9_4 C 0.6659(5) 0.3787(5) 0.12151(3)
H5_4 H 0.728957 0.347265 0.117036
C10_4 C 0.5245(6) 0.3569(6) 0.11628(3)
C11_4 C 0.4341(6) 0.4095(6) 0.12272(4)
H6_4 H 0.339970 0.398277 0.119233
C12_4 C 0.4720(6) 0.2722(6) 0.10376(3)
N1_4 N 0.1487(4) 0.5373(5) 0.14642(3)
N2_2 N 0.7151(4) 0.4442(5) 0.13292(3)
O2_4 O 0.6094(4) 0.8717(4) 0.17093(3)
O3_4 O 0.5610(5) 0.2320(6) 0.09847(3)
O4_4 O 0.3375(4) 0.2487(4) 0.09962(2)
O5_4 O 0.0846(10) 0.8064(7) 0.12722(4)
C13_4 C 0.0806(8) 0.7010(7) 0.12073(4)
C14_4 C 0.1389(7) 0.7374(6) 0.10734(4)
C15_4 C 0.1425(6) 0.6229(6) 0.09987(3)
H7_4 H 0.111592 0.520846 0.103023
C16_4 C 0.1923(6) 0.6599(5) 0.08762(3)
C17_4 C 0.2412(6) 0.8118(5) 0.08344(3)
H8_4 H 0.276137 0.836755 0.075222
C18_4 C 0.1938(6) 0.8903(6) 0.10236(4)
H9_4 H 0.197438 0.970241 0.107515
N3_2 N 0.2415(5) 0.9280(5) 0.09057(3)
O6_4 O 0.0253(4) 0.5571(4) 0.12375(2)
O7_4 O 0.0846(10) 0.2782(12) 0.03945(4)
C19_4 C 0.0806(8) 0.3796(11) 0.04594(4)
C20_4 C 0.1389(7) 0.4015(9) 0.05933(4)
C21_4 C 0.1425(6) 0.5196(8) 0.06680(3)
H10_4 H 0.111592 0.590746 0.063644
C22_4 C 0.1923(6) 0.5324(8) 0.07905(3)
C23_4 C 0.2412(6) 0.4294(8) 0.08323(3)
H11_4 H 0.276137 0.439382 0.091445
C24_4 C 0.1938(6) 0.3035(8) 0.06431(4)
H12_4 H 0.197438 0.227197 0.059152
N4_4 N 0.2415(5) 0.3135(7) 0.07610(3)
O8_4 O 0.0253(4) 0.4682(6) 0.04292(2)
C26_4 C 0.3790(5) 0.6844(8) 0.00772(3)
C27_4 C 0.2186(5) 0.5817(7) 0.01064(3)
H13_4 H 0.158162 0.489863 0.005813
C28_4 C 0.4675(6) 0.8197(8) 0.01479(4)
H14_4 H 0.576173 0.887921 0.013002
C29_4 C 0.3964(6) 0.8559(9) 0.02463(4)
C30_4 C 0.2343(6) 0.7459(9) 0.02690(4)
H15_4 H 0.183022 0.767248 0.033379
H18_4 H 0.339970 0.941693 0.047434
N5_4 N 0.1487(4) 0.6114(6) 0.02025(3)
C25_4 C 0.4602(6) 0.6555(8) 0.99665(3)
O10_4 O 0.6094(4) 0.7377(6) 0.99574(3)
N9_3 N 0.0720(5) 0.3135(7) 0.42390(3)
C7_5 C 0.5206(6) 0.0050(8) 0.46777(4)
C8_5 C 0.5079(6) 0.1343(8) 0.47236(3)
H4_5 H 0.462983 0.124108 0.480241
C9_5 C 0.6213(5) 0.2872(7) 0.45484(3)
H5_5 H 0.652735 0.381692 0.450369
C10_5 C 0.6431(6) 0.1676(8) 0.44961(3)
C11_5 C 0.5905(6) 0.0246(8) 0.45605(4)
C12_5 C 0.7278(6) 0.1998(8) 0.43709(3)
N2_3 N 0.5558(5) 0.2709(6) 0.46625(3)
O3_5 O 0.7680(6) 0.3290(8) 0.43180(3)
O4_5 O 0.7513(4) 0.0888(6) 0.43295(2)
Cu2_3 Cu 0.85357(6) 0.14643(13) 0.416666
O15_3 O 0.6710(8) 0.2320(9) 0.40153(3)
O16_3 O 0.9112(6) 0.2487(7) 0.40038(2)
C1_5 C 0.1953(5) 0.6555(8) 0.50335(3)
C2_5 C 0.3054(6) 0.6844(8) 0.49228(3)
C3_5 C 0.3631(5) 0.5817(7) 0.48936(3)
H1_5 H 0.331701 0.489863 0.494187
C4_5 C 0.3522(6) 0.8197(8) 0.48521(4)
H2_5 H 0.311748 0.887921 0.486998
C5_5 C 0.4595(7) 0.8559(9) 0.47537(4)
C6_5 C 0.5116(7) 0.7459(9) 0.47310(4)
H3_5 H 0.584226 0.767248 0.466621
H6_5 H 0.601723 0.941693 0.452566
N1_5 N 0.4627(5) 0.6114(6) 0.47975(3)
O2_5 O 0.1283(4) 0.7377(6) 0.50426(3)
O5_5 O 0.1936(7) 0.2782(12) 0.46055(4)
C13_5 C 0.2990(7) 0.3796(11) 0.45406(4)
C14_5 C 0.2626(6) 0.4015(9) 0.44067(4)
C15_5 C 0.3771(6) 0.5196(8) 0.43320(3)
H7_5 H 0.479154 0.590746 0.436356
C16_5 C 0.3401(5) 0.5324(8) 0.42095(3)
C17_5 C 0.1882(5) 0.4294(8) 0.41677(3)
H8_5 H 0.163245 0.439382 0.408555
C18_5 C 0.1097(6) 0.3035(8) 0.43569(4)
H9_5 H 0.029759 0.227197 0.440848
O6_5 O 0.4429(4) 0.4682(6) 0.45708(2)
O7_5 O 0.7218(12) 0.8064(16) 0.37278(4)
C19_5 C 0.6204(11) 0.7010(14) 0.37927(4)
C20_5 C 0.5985(9) 0.7374(11) 0.39266(4)
C21_5 C 0.4804(8) 0.6229(10) 0.40013(3)
H10_5 H 0.409254 0.520846 0.396977
C22_5 C 0.4676(8) 0.6599(10) 0.41238(3)
C23_5 C 0.5706(8) 0.8118(10) 0.41656(3)
H11_5 H 0.560618 0.836755 0.424778
C24_5 C 0.6965(8) 0.8903(10) 0.39764(4)
H12_5 H 0.772803 0.970241 0.392485
N4_5 N 0.6865(7) 0.9280(9) 0.40943(3)
O8_5 O 0.5318(6) 0.5571(7) 0.37625(2)
C25_5 C 0.3445(8) 0.8047(10) 0.32998(3)
C26_5 C 0.3156(8) 0.6946(9) 0.34105(3)
C27_5 C 0.4183(7) 0.6369(9) 0.34397(3)
H13_5 H 0.510137 0.668299 0.339146
C28_5 C 0.1803(8) 0.6478(10) 0.34812(4)
H14_5 H 0.112079 0.688252 0.346335
C29_5 C 0.1441(9) 0.5405(11) 0.35796(4)
C30_5 C 0.2541(9) 0.4884(11) 0.36023(4)
H15_5 H 0.232752 0.415774 0.366712
H18_5 H 0.058307 0.398277 0.380767
N5_5 N 0.3886(6) 0.5373(7) 0.35358(3)
O10_5 O 0.2623(6) 0.8717(7) 0.32907(3)
N8_2 N 0.7291(6) 0.4442(7) 0.36708(3)
C31_5 C 0.9950(8) 0.4794(10) 0.36556(4)
C32_5 C 0.8657(8) 0.4921(9) 0.36097(3)
H16_5 H 0.875892 0.537017 0.353092
C33_5 C 0.7128(7) 0.3787(9) 0.37849(3)
H17_5 H 0.618308 0.347265 0.382964
C34_5 C 0.8324(8) 0.3569(10) 0.38372(3)
C35_5 C 0.9754(8) 0.4095(10) 0.37728(4)
C36_5 C 0.8002(8) 0.2722(10) 0.39624(3)
N7_3 N 0.7291(6) 0.2849(4) 0.79959(3)
N8_3 N 0.5558(7) 0.2849(4) 0.70041(3)
C1_6 C 0.3445(8) 0.5398(6) 0.83669(3)
C2_6 C 0.3156(8) 0.6210(5) 0.82562(3)
C3_6 C 0.4183(7) 0.7814(5) 0.82270(3)
H1_6 H 0.510137 0.841838 0.827521
C4_6 C 0.1803(8) 0.5325(6) 0.81855(4)
H2_6 H 0.112079 0.423827 0.820332
C5_6 C 0.1441(9) 0.6036(6) 0.80871(4)
C6_6 C 0.2541(9) 0.7657(6) 0.80644(4)
H3_6 H 0.232752 0.816978 0.799955
H6_6 H 0.058307 0.660030 0.785900
N1_6 N 0.3886(6) 0.8513(4) 0.81309(3)
O2_6 O 0.2623(6) 0.3906(4) 0.83760(3)
O5_6 O 0.7218(12) 0.9154(10) 0.79389(4)
C13_6 C 0.6204(11) 0.9194(8) 0.78740(4)
C14_6 C 0.5985(9) 0.8611(7) 0.77401(4)
C15_6 C 0.4804(8) 0.8575(6) 0.76654(3)
H7_6 H 0.409254 0.888408 0.769690
C16_6 C 0.4676(8) 0.8077(6) 0.75429(3)
C17_6 C 0.5706(8) 0.7588(6) 0.75011(3)
H8_6 H 0.560618 0.723863 0.741889
C18_6 C 0.6965(8) 0.8062(6) 0.76903(4)
H9_6 H 0.772803 0.802562 0.774182
N3_3 N 0.6865(7) 0.7585(5) 0.75724(3)
O6_6 O 0.5318(6) 0.9747(4) 0.79042(2)
O7_6 O 0.1936(16) 0.9154(10) 0.70611(4)
C19_6 C 0.2990(14) 0.9194(8) 0.71260(4)
C20_6 C 0.2626(11) 0.8611(7) 0.72599(4)
C21_6 C 0.3771(10) 0.8575(6) 0.73346(3)
H10_6 H 0.479154 0.888408 0.730310
C22_6 C 0.3401(10) 0.8077(6) 0.74571(3)
C23_6 C 0.1882(10) 0.7588(6) 0.74989(3)
H11_6 H 0.163245 0.723863 0.758111
C24_6 C 0.1097(10) 0.8062(6) 0.73097(4)
H12_6 H 0.029759 0.802562 0.725818
N4_6 N 0.0720(9) 0.7585(5) 0.74276(3)
O8_6 O 0.4429(7) 0.9747(4) 0.70958(2)
C25_6 C 0.1953(10) 0.5398(6) 0.66331(3)
C26_6 C 0.3054(9) 0.6210(5) 0.67438(3)
C27_6 C 0.3631(9) 0.7814(5) 0.67730(3)
H13_6 H 0.331701 0.841838 0.672479
C28_6 C 0.3522(10) 0.5325(6) 0.68145(4)
H14_6 H 0.311748 0.423827 0.679668
C29_6 C 0.4595(11) 0.6036(6) 0.69129(4)
C30_6 C 0.5116(11) 0.7657(6) 0.69356(4)
H15_6 H 0.584226 0.816978 0.700045
C31_6 C 0.5206(10) 0.5156(6) 0.69889(4)
C32_6 C 0.5079(9) 0.3736(5) 0.69430(3)
H16_6 H 0.462983 0.338875 0.686425
C33_6 C 0.6213(9) 0.3341(5) 0.71182(3)
H17_6 H 0.652735 0.271043 0.716297
C34_6 C 0.6431(10) 0.4755(6) 0.71705(3)
C35_6 C 0.5905(10) 0.5659(6) 0.71061(4)
H18_6 H 0.601723 0.660030 0.714100
C36_6 C 0.7278(10) 0.5280(6) 0.72957(3)
N5_6 N 0.4627(7) 0.8513(4) 0.68691(3)
O10_6 O 0.1283(7) 0.3906(4) 0.66240(3)
O11_3 O 0.7680(9) 0.4390(5) 0.73486(3)
O12_3 O 0.7513(7) 0.6625(4) 0.73371(2)
Cu8_3 Cu 0.85357(13) 0.70714(11) 0.750000
C7_6 C 0.9950(8) 0.5156(6) 0.80111(4)
C8_6 C 0.8657(8) 0.3736(5) 0.80570(3)
H4_6 H 0.875892 0.338875 0.813575
C9_6 C 0.7128(7) 0.3341(5) 0.78818(3)
H5_6 H 0.618308 0.271043 0.783703
C10_6 C 0.8324(8) 0.4755(6) 0.78295(3)
C11_6 C 0.9754(8) 0.5659(6) 0.78939(4)
C12_6 C 0.8002(8) 0.5280(6) 0.77043(3)
O3_6 O 0.6710(8) 0.4390(5) 0.76514(3)
O4_6 O 0.9112(6) 0.6625(4) 0.76629(2)
loop_
_geom_bond_atom_site_label_1
_geom_bond_atom_site_label_2
_geom_bond_site_symmetry_1
_geom_bond_site_symmetry_2
O13 Cu3 1_555 1_555
O14 Cu1 1_555 1_555
N7 Cu1 1_555 1_555
N8 Cu3 1_555 1_555
O1 C1 1_555 1_555
C1 C2 1_555 1_555
C2 C3 1_555 1_555
C3 H1 1_555 1_555
C4 C2 1_555 1_555
H2 C4 1_555 1_555
C5 C4 1_555 1_555
C6 C5 1_555 1_555
H3 C6 1_555 1_555
C7 C5 1_555 1_555
C8 C7 1_555 1_555
H4 C8 1_555 1_555
C9 H5 1_555 1_555
C10 C9 1_555 1_555
C11 C7 1_555 1_555
H6 C11 1_555 1_555
C12 C10 1_555 1_555
N1 C3 1_555 1_555
N7 C8 1_555 1_555
O2 C1 1_555 1_555
O3 C12 1_555 1_555
O4 C12 1_555 1_555
O5 C13 1_555 1_555
C13 C14 1_555 1_555
C14 C15 1_555 1_555
C15 H7 1_555 1_555
C16 C15 1_555 1_555
C17 C16 1_555 1_555
H8 C17 1_555 1_555
C18 C14 1_555 1_555
H9 C18 1_555 1_555
N9 C17 1_555 1_555
O6 C13 1_555 1_555
Cu2 O3 1_555 1_555
O7 C19 1_555 1_555
C19 C20 1_555 1_555
C20 C21 1_555 1_555
C21 H10 1_555 1_555
C22 C16 1_555 1_555
C23 C22 1_555 1_555
H11 C23 1_555 1_555
C24 C20 1_555 1_555
H12 C24 1_555 1_555
N4 Cu2 1_555 1_555
O8 C19 1_555 1_555
O9 C25 1_555 1_555
C25 C26 1_555 1_555
C26 C27 1_555 1_555
C27 H13 1_555 1_555
C28 C26 1_555 1_555
H14 C28 1_555 1_555
C29 C28 1_555 1_555
C30 C29 1_555 1_555
H15 C30 1_555 1_555
N5 C27 1_555 1_555
O10 C25 1_555 1_555
O15 Cu2 1_555 1_555
O16 Cu2 1_555 1_555
Cu5 O9 1_555 1_555
Cu6 O1 1_555 1_555
C6 N1 1_555 1_555
C9 N7 1_555 1_555
C10 C11 1_555 1_555
O4 Cu2 1_555 1_555
C18 N9 1_555 1_555
C21 C22 1_555 1_555
C23 N4 1_555 1_555
C24 N4 1_555 1_555
C30 N5 1_555 1_555
C32 C31 1_555 1_555
H16 C32 1_555 1_555
C33 H17 1_555 1_555
C34 C33 1_555 1_555
C35 C31 1_555 1_555
C36 C34 1_555 1_555
N8 C32 1_555 1_555
O15 C36 1_555 1_555
O16 C36 1_555 1_555
C33 N8 1_555 1_555
C34 C35 1_555 1_555
C32_2 C31_2 1_555 1_555
H16_2 C32_2 1_555 1_555
C33_2 H17_2 1_555 1_555
C34_2 C33_2 1_555 1_555
C35_2 C31_2 1_555 1_555
C36_2 C34_2 1_555 1_555
N6 C32_2 1_555 1_555
O11 C36_2 1_555 1_555
O12 C36_2 1_555 1_555
Cu7 N6 1_555 1_555
C33_2 N6 1_555 1_555
C34_2 C35_2 1_555 1_555
O11 Cu8 1_555 1_555
O12 Cu8 1_555 1_555
O1_2 C1_2 1_555 1_555
O2_2 C1_2 1_555 1_555
Cu6_2 O1_2 1_555 1_555
C2_2 C3_2 1_555 1_555
C3_2 H1_2 1_555 1_555
C4_2 C2_2 1_555 1_555
H2_2 C4_2 1_555 1_555
C5_2 C4_2 1_555 1_555
C6_2 C5_2 1_555 1_555
H3_2 C6_2 1_555 1_555
N1_2 C3_2 1_555 1_555
O5_2 C13_2 1_555 1_555
C13_2 C14_2 1_555 1_555
C14_2 C15_2 1_555 1_555
C15_2 H7_2 1_555 1_555
C16_2 C15_2 1_555 1_555
C17_2 C16_2 1_555 1_555
H8_2 C17_2 1_555 1_555
C18_2 C14_2 1_555 1_555
H9_2 C18_2 1_555 1_555
N3 C17_2 1_555 1_555
O6_2 C13_2 1_555 1_555
Cu1_2 N1_2 1_555 1_555
O7_2 C19_2 1_555 1_555
C19_2 C20_2 1_555 1_555
C20_2 C21_2 1_555 1_555
C21_2 H10_2 1_555 1_555
C22_2 C16_2 1_555 1_555
C23_2 C22_2 1_555 1_555
H11_2 C23_2 1_555 1_555
C24_2 C20_2 1_555 1_555
H12_2 C24_2 1_555 1_555
O8_2 C19_2 1_555 1_555
O9_2 C25_2 1_555 1_555
C25_2 C26_2 1_555 1_555
C26_2 C27_2 1_555 1_555
C27_2 H13_2 1_555 1_555
C28_2 C26_2 1_555 1_555
H14_2 C28_2 1_555 1_555
C29_2 C28_2 1_555 1_555
C30_2 C29_2 1_555 1_555
H15_2 C30_2 1_555 1_555
N5_2 C27_2 1_555 1_555
O10_2 C25_2 1_555 1_555
Cu7 O8_2 1_555 1_555
O13_2 Cu7 1_555 1_555
O14_2 Cu1_2 1_555 1_555
N7_2 Cu1_2 1_555 1_555
Cu5_2 O9_2 1_555 1_555
C6_2 N1_2 1_555 1_555
C18_2 N3 1_555 1_555
O6_2 Cu1_2 1_555 1_555
C21_2 C22_2 1_555 1_555
C23_2 N4_2 1_555 1_555
C24_2 N4_2 1_555 1_555
C30_2 N5_2 1_555 1_555
N5_2 Cu7 1_555 1_555
C8_2 C7_2 1_555 1_555
H4_2 C8_2 1_555 1_555
C9_2 H5_2 1_555 1_555
C10_2 C9_2 1_555 1_555
C11_2 C7_2 1_555 1_555
C12_2 C10_2 1_555 1_555
N7_2 C8_2 1_555 1_555
O3_2 C12_2 1_555 1_555
O4_2 C12_2 1_555 1_555
Cu8 O3_2 1_555 1_555
C9_2 N7_2 1_555 1_555
C10_2 C11_2 1_555 1_555
O4_2 Cu8 1_555 1_555
C8_3 C7_3 1_555 1_555
H4_3 C8_3 1_555 1_555
C9_3 H5_3 1_555 1_555
C10_3 C9_3 1_555 1_555
C11_3 C7_3 1_555 1_555
C12_3 C10_3 1_555 1_555
N2 C8_3 1_555 1_555
O3_3 C12_3 1_555 1_555
O4_3 C12_3 1_555 1_555
Cu2_2 O3_3 1_555 1_555
O15_2 Cu2_2 1_555 1_555
O16_2 Cu2_2 1_555 1_555
N9_2 Cu2_2 1_555 1_555
Cu4 N2 1_555 1_555
C9_3 N2 1_555 1_555
C10_3 C11_3 1_555 1_555
O4_3 Cu2_2 1_555 1_555
O1_3 C1_3 1_555 1_555
C1_3 C2_3 1_555 1_555
C2_3 C3_3 1_555 1_555
C3_3 H1_3 1_555 1_555
C4_3 C2_3 1_555 1_555
H2_3 C4_3 1_555 1_555
C5_3 C4_3 1_555 1_555
C6_3 C5_3 1_555 1_555
H3_3 C6_3 1_555 1_555
N1_3 C3_3 1_555 1_555
O2_3 C1_3 1_555 1_555
O5_3 C13_3 1_555 1_555
C13_3 C14_3 1_555 1_555
C14_3 C15_3 1_555 1_555
C15_3 H7_3 1_555 1_555
C16_3 C15_3 1_555 1_555
C17_3 C16_3 1_555 1_555
H8_3 C17_3 1_555 1_555
C18_3 C14_3 1_555 1_555
H9_3 C18_3 1_555 1_555
N9_2 C17_3 1_555 1_555
O6_3 C13_3 1_555 1_555
O7_3 C19_3 1_555 1_555
C19_3 C20_3 1_555 1_555
C20_3 C21_3 1_555 1_555
C21_3 H10_3 1_555 1_555
C22_3 C16_3 1_555 1_555
C23_3 C22_3 1_555 1_555
H11_3 C23_3 1_555 1_555
C24_3 C20_3 1_555 1_555
H12_3 C24_3 1_555 1_555
O8_3 C19_3 1_555 1_555
O9_3 C25_3 1_555 1_555
C25_3 C26_3 1_555 1_555
C26_3 C27_3 1_555 1_555
C27_3 H13_3 1_555 1_555
C28_3 C26_3 1_555 1_555
H14_3 C28_3 1_555 1_555
C29_3 C28_3 1_555 1_555
C30_3 C29_3 1_555 1_555
H15_3 C30_3 1_555 1_555
C31_3 C29_3 1_555 1_555
C32_3 C31_3 1_555 1_555
H16_3 C32_3 1_555 1_555
C33_3 H17_3 1_555 1_555
C34_3 C33_3 1_555 1_555
C35_3 C31_3 1_555 1_555
H18_3 C35_3 1_555 1_555
C36_3 C34_3 1_555 1_555
N5_3 C27_3 1_555 1_555
N6_2 C32_3 1_555 1_555
O10_3 C25_3 1_555 1_555
O15_2 C36_3 1_555 1_555
O16_2 C36_3 1_555 1_555
Cu5_3 O9_3 1_555 1_555
Cu6_3 O1_3 1_555 1_555
Cu7_2 N6_2 1_555 1_555
C6_3 N1_3 1_555 1_555
C18_3 N9_2 1_555 1_555
C21_3 C22_3 1_555 1_555
C23_3 N4_3 1_555 1_555
C24_3 N4_3 1_555 1_555
C30_3 N5_3 1_555 1_555
C33_3 N6_2 1_555 1_555
C34_3 C35_3 1_555 1_555
O13_3 Cu7_2 1_555 1_555
O14_3 Cu4 1_555 1_555
C32_4 C31_4 1_555 1_555
H16_4 C32_4 1_555 1_555
C33_4 H17_4 1_555 1_555
C34_4 C33_4 1_555 1_555
C35_4 C31_4 1_555 1_555
C36_4 C34_4 1_555 1_555
N6_3 C32_4 1_555 1_555
O11_2 C36_4 1_555 1_555
O12_2 C36_4 1_555 1_555
Cu6_2 N6_3 1_555 1_555
C33_4 N6_3 1_555 1_555
C34_4 C35_4 1_555 1_555
O11_2 Cu8_2 1_555 1_555
O12_2 Cu8_2 1_555 1_555
O13_3 C1_4 1_555 1_555
C1_4 C2_4 1_555 1_555
C2_4 C3_4 1_555 1_555
C3_4 H1_4 1_555 1_555
C4_4 C2_4 1_555 1_555
H2_4 C4_4 1_555 1_555
C5_4 C4_4 1_555 1_555
C6_4 C5_4 1_555 1_555
H3_4 C6_4 1_555 1_555
C7_4 C5_4 1_555 1_555
C8_4 C7_4 1_555 1_555
H4_4 C8_4 1_555 1_555
C9_4 H5_4 1_555 1_555
C10_4 C9_4 1_555 1_555
C11_4 C7_4 1_555 1_555
H6_4 C11_4 1_555 1_555
C12_4 C10_4 1_555 1_555
N1_4 C3_4 1_555 1_555
N2_2 C8_4 1_555 1_555
O2_4 C1_4 1_555 1_555
O3_4 C12_4 1_555 1_555
O4_4 C12_4 1_555 1_555
O5_4 C13_4 1_555 1_555
C13_4 C14_4 1_555 1_555
C14_4 C15_4 1_555 1_555
C15_4 H7_4 1_555 1_555
C16_4 C15_4 1_555 1_555
C17_4 C16_4 1_555 1_555
H8_4 C17_4 1_555 1_555
C18_4 C14_4 1_555 1_555
H9_4 C18_4 1_555 1_555
N3_2 C17_4 1_555 1_555
O6_4 C13_4 1_555 1_555
Cu8_2 O3_4 1_555 1_555
O7_4 C19_4 1_555 1_555
C19_4 C20_4 1_555 1_555
C20_4 C21_4 1_555 1_555
C21_4 H10_4 1_555 1_555
C22_4 C16_4 1_555 1_555
C23_4 C22_4 1_555 1_555
H11_4 C23_4 1_555 1_555
C24_4 C20_4 1_555 1_555
H12_4 C24_4 1_555 1_555
N4_4 Cu8_2 1_555 1_555
O8_4 C19_4 1_555 1_555
C26_4 C27_4 1_555 1_555
C27_4 H13_4 1_555 1_555
C28_4 C26_4 1_555 1_555
H14_4 C28_4 1_555 1_555
C29_4 C28_4 1_555 1_555
C30_4 C29_4 1_555 1_555
H15_4 C30_4 1_555 1_555
N5_4 C27_4 1_555 1_555
Cu5_3 N2_2 1_555 1_555
C6_4 N1_4 1_555 1_555
C9_4 N2_2 1_555 1_555
C10_4 C11_4 1_555 1_555
O4_4 Cu8_2 1_555 1_555
C18_4 N3_2 1_555 1_555
C21_4 C22_4 1_555 1_555
C23_4 N4_4 1_555 1_555
C24_4 N4_4 1_555 1_555
C30_4 N5_4 1_555 1_555
O14_2 C25_4 1_555 1_555
O10_4 C25_4 1_555 1_555
C8_5 C7_5 1_555 1_555
H4_5 C8_5 1_555 1_555
C9_5 H5_5 1_555 1_555
C10_5 C9_5 1_555 1_555
C11_5 C7_5 1_555 1_555
C12_5 C10_5 1_555 1_555
N2_3 C8_5 1_555 1_555
O3_5 C12_5 1_555 1_555
O4_5 C12_5 1_555 1_555
Cu2_3 O3_5 1_555 1_555
O15_3 Cu2_3 1_555 1_555
O16_3 Cu2_3 1_555 1_555
Cu5 N2_3 1_555 1_555
C9_5 N2_3 1_555 1_555
C10_5 C11_5 1_555 1_555
O4_5 Cu2_3 1_555 1_555
O13 C1_5 1_555 1_555
C1_5 C2_5 1_555 1_555
C2_5 C3_5 1_555 1_555
C3_5 H1_5 1_555 1_555
C4_5 C2_5 1_555 1_555
H2_5 C4_5 1_555 1_555
C5_5 C4_5 1_555 1_555
C6_5 C5_5 1_555 1_555
H3_5 C6_5 1_555 1_555
N1_5 C3_5 1_555 1_555
O2_5 C1_5 1_555 1_555
O5_5 C13_5 1_555 1_555
C13_5 C14_5 1_555 1_555
C14_5 C15_5 1_555 1_555
C15_5 H7_5 1_555 1_555
C16_5 C15_5 1_555 1_555
C17_5 C16_5 1_555 1_555
H8_5 C17_5 1_555 1_555
C18_5 C14_5 1_555 1_555
H9_5 C18_5 1_555 1_555
N9_3 C17_5 1_555 1_555
O6_5 C13_5 1_555 1_555
Cu5 N1_5 1_555 1_555
O7_5 C19_5 1_555 1_555
C19_5 C20_5 1_555 1_555
C20_5 C21_5 1_555 1_555
C21_5 H10_5 1_555 1_555
C22_5 C16_5 1_555 1_555
C23_5 C22_5 1_555 1_555
H11_5 C23_5 1_555 1_555
C24_5 C20_5 1_555 1_555
H12_5 C24_5 1_555 1_555
O8_5 C19_5 1_555 1_555
O14_3 C25_5 1_555 1_555
C25_5 C26_5 1_555 1_555
C26_5 C27_5 1_555 1_555
C27_5 H13_5 1_555 1_555
C28_5 C26_5 1_555 1_555
H14_5 C28_5 1_555 1_555
C29_5 C28_5 1_555 1_555
C30_5 C29_5 1_555 1_555
H15_5 C30_5 1_555 1_555
N5_5 C27_5 1_555 1_555
O10_5 C25_5 1_555 1_555
Cu6_3 O8_5 1_555 1_555
N8_2 Cu6_3 1_555 1_555
C6_5 N1_5 1_555 1_555
C18_5 N9_3 1_555 1_555
O6_5 Cu5 1_555 1_555
C21_5 C22_5 1_555 1_555
C23_5 N4_5 1_555 1_555
C24_5 N4_5 1_555 1_555
C30_5 N5_5 1_555 1_555
N5_5 Cu6_3 1_555 1_555
C32_5 C31_5 1_555 1_555
H16_5 C32_5 1_555 1_555
C33_5 H17_5 1_555 1_555
C34_5 C33_5 1_555 1_555
C35_5 C31_5 1_555 1_555
C36_5 C34_5 1_555 1_555
N8_2 C32_5 1_555 1_555
O15_3 C36_5 1_555 1_555
O16_3 C36_5 1_555 1_555
C33_5 N8_2 1_555 1_555
C34_5 C35_5 1_555 1_555
N7_3 Cu5_2 1_555 1_555
N8_3 Cu6 1_555 1_555
O13_2 C1_6 1_555 1_555
C1_6 C2_6 1_555 1_555
C2_6 C3_6 1_555 1_555
C3_6 H1_6 1_555 1_555
C4_6 C2_6 1_555 1_555
H2_6 C4_6 1_555 1_555
C5_6 C4_6 1_555 1_555
C6_6 C5_6 1_555 1_555
H3_6 C6_6 1_555 1_555
N1_6 C3_6 1_555 1_555
O2_6 C1_6 1_555 1_555
O5_6 C13_6 1_555 1_555
C13_6 C14_6 1_555 1_555
C14_6 C15_6 1_555 1_555
C15_6 H7_6 1_555 1_555
C16_6 C15_6 1_555 1_555
C17_6 C16_6 1_555 1_555
H8_6 C17_6 1_555 1_555
C18_6 C14_6 1_555 1_555
H9_6 C18_6 1_555 1_555
N3_3 C17_6 1_555 1_555
O6_6 C13_6 1_555 1_555
O7_6 C19_6 1_555 1_555
C19_6 C20_6 1_555 1_555
C20_6 C21_6 1_555 1_555
C21_6 H10_6 1_555 1_555
C22_6 C16_6 1_555 1_555
C23_6 C22_6 1_555 1_555
H11_6 C23_6 1_555 1_555
C24_6 C20_6 1_555 1_555
H12_6 C24_6 1_555 1_555
O8_6 C19_6 1_555 1_555
O14 C25_6 1_555 1_555
C25_6 C26_6 1_555 1_555
C26_6 C27_6 1_555 1_555
C27_6 H13_6 1_555 1_555
C28_6 C26_6 1_555 1_555
H14_6 C28_6 1_555 1_555
C29_6 C28_6 1_555 1_555
C30_6 C29_6 1_555 1_555
H15_6 C30_6 1_555 1_555
C31_6 C29_6 1_555 1_555
C32_6 C31_6 1_555 1_555
H16_6 C32_6 1_555 1_555
C33_6 H17_6 1_555 1_555
C34_6 C33_6 1_555 1_555
C35_6 C31_6 1_555 1_555
H18_6 C35_6 1_555 1_555
C36_6 C34_6 1_555 1_555
N5_6 C27_6 1_555 1_555
N8_3 C32_6 1_555 1_555
O10_6 C25_6 1_555 1_555
O11_3 C36_6 1_555 1_555
O12_3 C36_6 1_555 1_555
Cu8_3 N3_3 1_555 1_555
C6_6 N1_6 1_555 1_555
C18_6 N3_3 1_555 1_555
C21_6 C22_6 1_555 1_555
C23_6 N4_6 1_555 1_555
C24_6 N4_6 1_555 1_555
C30_6 N5_6 1_555 1_555
C33_6 N8_3 1_555 1_555
C34_6 C35_6 1_555 1_555
O11_3 Cu8_3 1_555 1_555
O12_3 Cu8_3 1_555 1_555
C8_6 C7_6 1_555 1_555
H4_6 C8_6 1_555 1_555
C9_6 H5_6 1_555 1_555
C10_6 C9_6 1_555 1_555
C11_6 C7_6 1_555 1_555
C12_6 C10_6 1_555 1_555
N7_3 C8_6 1_555 1_555
O3_6 C12_6 1_555 1_555
O4_6 C12_6 1_555 1_555
Cu8_3 O3_6 1_555 1_555
C9_6 N7_3 1_555 1_555
C10_6 C11_6 1_555 1_555
O4_6 Cu8_3 1_555 1_555

#END
