
###############################################################################
#
# This file contains modified crystal structure data generated from the
# MOF subset of the Cambridge Structural Database (CSD) v543 
# hosted by the Cambridge Crystallographic Data Centre (CCDC).
#
# This work is licensed under the Creative Commons
# Attribution-NonCommercial-ShareAlike 4.0 International License.
# To view a copy of this license, visit
# http://creativecommons.org/licenses/by-nc-sa/4.0/
# or send a letter to
# Creative Commons, PO Box 1866, Mountain View, CA 94042, USA.
#
# CIF created using the CSD Python API on 29 September 2022
# The structure has been converted into the P1 space group
# The structure has a 3D framework
# The original CSD entry VAMXAK is in the monoclinic crystal system
# The framework has been calculated to contain at least 10.0% void space
# The void calculation uses a probe of radius 1.32A, grid spacing 0.4
#
###############################################################################

data_VAMXAK
_chemical_formula_moiety         '(C352 H256 N64 O60 Zn16)n'
_symmetry_cell_setting           triclinic
_symmetry_space_group_name_H-M   'P 1'
_symmetry_Int_Tables_number      1
_space_group_name_Hall           'P 1'
loop_
_symmetry_equiv_pos_site_id
_symmetry_equiv_pos_as_xyz
1 x,y,z
_cell_length_a                   31.7790(5)
_cell_length_b                   16.7618(3)
_cell_length_c                   23.1651(4)
_cell_angle_alpha                90
_cell_angle_beta                 116.4810(10)
_cell_angle_gamma                90
_cell_volume                     11044.8
loop_
_atom_site_label
_atom_site_type_symbol
_atom_site_fract_x
_atom_site_fract_y
_atom_site_fract_z
H34 H 0.2417 0.4511 0.0219
C53 C 0.18244(14) 0.3557(2) 0.02727(18)
H41 H 0.1900 0.3933 0.0599
C54 C 0.14793(14) 0.3021(2) 0.01578(18)
H42 H 0.1329 0.3035 0.0422
O18 O 0.0524(2) 0.0919(2) 0.0012(2)
O20 O 0.09469(14) 0.1834(4) 0.0598(2)
C35 C 0.13209(14) 0.0498(3) 0.3412(2)
H27 H 0.1527 0.0656 0.3828
C36 C 0.13172(14) 0.0901(3) 0.2903(2)
H28 H 0.1516 0.1336 0.2973
C37 C 0.10153(12) 0.0667(2) 0.22765(19)
C38 C 0.10127(16) 0.1065(3) 0.1720(3)
H29 H 0.1217 0.1489 0.1782
C39 C 0.07207(17) 0.0836(3) 0.1115(2)
C40 C 0.04085(18) 0.0204(3) 0.1032(2)
H30 H 0.0204 0.0047 0.0615
C42 C 0.07007(13) 0.0031(2) 0.21631(18)
C44 C 0.0741(2) 0.1227(4) 0.0539(3)
Zn3 Zn 0.078670(14) 0.17324(2) 0.954429(18)
Zn9 Zn 0.227114(13) 0.50913(2) 0.695530(18)
N9 N 0.27033(10) 0.40225(19) 0.97166(14)
H33 H 0.2970 0.3792 0.9932
N10 N 0.23966(11) 0.4098(2) 0.99873(14)
N11 N 0.23938(10) 0.47935(16) 0.78686(13)
C45 C 0.20799(13) 0.4837(2) 0.81012(18)
H35 H 0.1784 0.5038 0.7830
C46 C 0.21588(12) 0.4609(2) 0.87058(18)
H36 H 0.1924 0.4660 0.8838
C47 C 0.25916(12) 0.4304(2) 0.91174(17)
C48 C 0.29276(12) 0.4259(2) 0.88855(18)
H37 H 0.3228 0.4068 0.9148
C49 C 0.28133(13) 0.4495(2) 0.82763(19)
H38 H 0.3041 0.4448 0.8130
N13 N 0.13378(9) 0.24688(16) 0.96894(13)
C50 C 0.15754(13) 0.2458(2) 0.93407(16)
H39 H 0.1489 0.2078 0.9015
C51 C 0.19350(13) 0.2959(2) 0.94226(16)
H40 H 0.2090 0.2911 0.9166
C52 C 0.20657(12) 0.3542(2) 0.98973(16)
N15 N 0.01852(10) 0.23724(18) 0.90347(15)
O15 O 0.07236(9) 0.11226(16) 0.87870(11)
O16 O 0.13785(10) 0.04990(16) 0.94260(14)
C77 C 0.10460(15) 0.0613(2) 0.88914(19)
C78 C 0.10214(12) 0.0154(2) 0.83256(18)
C85 C 0.03922(15) 0.0192(2) 0.65388(19)
H63 H 0.0178 0.0604 0.6466
C87 C 0.07132(13) 0.0381(2) 0.77194(18)
H64 H 0.0509 0.0804 0.7662
Zn7 Zn 0.272886(13) 0.00913(2) 0.804470(18)
Zn1 Zn 0.078670(14) 0.82676(2) 0.454429(18)
Zn2 Zn 0.227114(13) 0.49087(2) 0.195530(18)
N1 N 0.27033(10) 0.59775(19) 0.47166(14)
H1 H 0.2970 0.6208 0.4932
N2 N 0.23966(11) 0.5902(2) 0.49873(14)
H2 H 0.2417 0.5489 0.5219
N3 N 0.23938(10) 0.52065(16) 0.28686(13)
C1 C 0.20799(13) 0.5163(2) 0.31012(18)
H3 H 0.1784 0.4962 0.2830
C2 C 0.21588(12) 0.5391(2) 0.37058(18)
H4 H 0.1924 0.5340 0.3838
C3 C 0.25916(12) 0.5696(2) 0.41174(17)
C4 C 0.29276(12) 0.5741(2) 0.38855(18)
H5 H 0.3228 0.5932 0.4148
C5 C 0.28133(13) 0.5505(2) 0.32763(19)
H6 H 0.3041 0.5552 0.3130
N4 N 0.13378(9) 0.75312(16) 0.46894(13)
C6 C 0.15754(13) 0.7542(2) 0.43407(16)
H7 H 0.1489 0.7922 0.4015
C7 C 0.19350(13) 0.7041(2) 0.44226(16)
H8 H 0.2090 0.7089 0.4166
C8 C 0.20657(12) 0.6458(2) 0.48973(16)
C9 C 0.18244(14) 0.6443(2) 0.52727(18)
H9 H 0.1900 0.6067 0.5599
C10 C 0.14793(14) 0.6979(2) 0.51578(18)
H10 H 0.1329 0.6965 0.5422
N5 N 0.01852(10) 0.76276(18) 0.40347(15)
C11 C 0.01475(15) 0.7183(3) 0.3544(2)
H11 H 0.0422 0.7061 0.3513
O1 O 0.25402(8) 0.59042(13) 0.17702(12)
O2 O 0.23505(10) 0.51570(16) 0.09156(12)
C21 C 0.24696(11) 0.5812(2) 0.11930(19)
C22 C 0.26916(12) 0.7246(2) 0.11592(17)
H21 H 0.2781 0.7282 0.1599
C23 C 0.25199(12) 0.6519(2) 0.08381(18)
C24 C 0.23850(12) 0.6470(2) 0.01905(18)
C26 C 0.27284(13) 0.7897(2) 0.08358(18)
H23 H 0.2846 0.8372 0.1057
O3 O 0.14880(9) 0.5773(2) 0.14115(14)
O4 O 0.16282(9) 0.44852(18) 0.14893(12)
C27 C 0.13543(14) 0.5072(3) 0.12735(19)
C28 C 0.06776(14) 0.4123(3) 0.0697(2)
H24 H 0.0876 0.3701 0.0910
C29 C 0.08480(13) 0.4915(3) 0.08181(18)
C30 C 0.05546(13) 0.5528(3) 0.05140(19)
H25 H 0.0667 0.6048 0.0606
C31 C 0.00833(12) 0.5398(2) 0.00618(18)
C32 C 0.02225(14) 0.3980(3) 0.0268(2)
H26 H 0.0113 0.3457 0.0193
O5 O 0.07236(9) 0.88774(16) 0.37870(11)
O6 O 0.13785(10) 0.95010(16) 0.44260(14)
C33 C 0.10460(15) 0.9387(2) 0.38914(19)
C34 C 0.10214(12) 0.9846(2) 0.33256(18)
C41 C 0.03922(15) 0.9808(2) 0.15388(19)
H31 H 0.0178 0.9396 0.1466
C43 C 0.07132(13) 0.9619(2) 0.27194(18)
H32 H 0.0509 0.9196 0.2662
Zn5 Zn 0.578670(14) 0.32676(2) 0.454429(18)
N14 N 0.51852(10) 0.26276(18) 0.40347(15)
C55 C 0.51475(15) 0.2183(3) 0.3544(2)
H43 H 0.5422 0.2061 0.3513
C56 C 0.47399(15) 0.1892(3) 0.3083(2)
H44 H 0.4741 0.1583 0.2750
C57 C 0.43209(14) 0.2052(2) 0.31068(19)
C58 C 0.43545(13) 0.2490(2) 0.3624(2)
H45 H 0.4086 0.2601 0.3675
C59 C 0.47859(15) 0.2766(2) 0.40697(19)
H46 H 0.4798 0.3067 0.4414
N16 N 0.39045(11) 0.17995(17) 0.26238(16)
H47 H 0.3901 0.1593 0.2282
N17 N 0.34924(10) 0.18678(17) 0.26738(15)
H48 H 0.3401 0.1478 0.2831
N18 N 0.26658(9) 0.38985(16) 0.21248(13)
C60 C 0.30549(13) 0.3838(2) 0.20432(16)
H49 H 0.3137 0.4269 0.1862
C61 C 0.33382(12) 0.3184(2) 0.22082(16)
H50 H 0.3604 0.3175 0.2138
C62 C 0.32281(12) 0.2534(2) 0.24805(16)
C63 C 0.28211(13) 0.2583(2) 0.25660(18)
H51 H 0.2729 0.2158 0.2741
C64 C 0.25630(12) 0.3264(2) 0.23881(19)
H52 H 0.2295 0.3291 0.2454
H54 H 0.2726 0.9012 0.0021
C69 C 0.25886(12) 0.78585(19) 0.01645(16)
C79 C 0.13209(14) 0.9502(3) 0.8412(2)
H59 H 0.1527 0.9344 0.8828
C80 C 0.13172(14) 0.9099(3) 0.7903(2)
H60 H 0.1516 0.8664 0.7973
C81 C 0.10153(12) 0.9333(2) 0.72765(19)
C82 C 0.10127(16) 0.8935(3) 0.6720(3)
H61 H 0.1217 0.8511 0.6782
C83 C 0.07207(17) 0.9164(3) 0.6115(2)
C84 C 0.04085(18) 0.9796(3) 0.6032(2)
H62 H 0.0204 0.9953 0.5615
C86 C 0.07007(13) 0.9969(2) 0.71631(18)
C88 C 0.0741(2) 0.8773(4) 0.5539(3)
O17 O 0.0524(2) 0.9081(2) 0.5012(2)
O19 O 0.09469(14) 0.8166(4) 0.5598(2)
H22 H 0.2274 0.5988 0.9979
C25 C 0.24114(12) 0.71415(19) 0.98355(16)
O9 O 0.24598(8) 0.90958(13) 0.82298(12)
O11 O 0.26495(10) 0.98430(16) 0.90844(12)
C65 C 0.25304(11) 0.9188(2) 0.88070(19)
C66 C 0.23084(12) 0.7754(2) 0.88408(17)
H53 H 0.2219 0.7718 0.8401
C67 C 0.24801(12) 0.8481(2) 0.91619(18)
C68 C 0.26150(12) 0.8530(2) 0.98095(18)
C70 C 0.22716(13) 0.7103(2) 0.91642(18)
H55 H 0.2154 0.6628 0.8943
N12 N 0.73938(10) 0.02065(16) 0.28686(13)
O10 O 0.75402(8) 0.09042(13) 0.17702(12)
C12 C 0.97399(15) 0.6892(3) 0.3083(2)
H12 H 0.9741 0.6583 0.2750
C13 C 0.93209(14) 0.7052(2) 0.31068(19)
C14 C 0.93545(13) 0.7490(2) 0.3624(2)
H13 H 0.9086 0.7601 0.3675
C15 C 0.97859(15) 0.7766(2) 0.40697(19)
H14 H 0.9798 0.8067 0.4414
N6 N 0.89045(11) 0.67995(17) 0.26238(16)
H15 H 0.8901 0.6593 0.2282
N7 N 0.84924(10) 0.68678(17) 0.26738(15)
H16 H 0.8401 0.6478 0.2831
N8 N 0.76658(9) 0.88985(16) 0.21248(13)
C16 C 0.80549(13) 0.8838(2) 0.20432(16)
H17 H 0.8137 0.9269 0.1862
C17 C 0.83382(12) 0.8184(2) 0.22082(16)
H18 H 0.8604 0.8175 0.2138
C18 C 0.82281(12) 0.7534(2) 0.24805(16)
C19 C 0.78211(13) 0.7583(2) 0.25660(18)
H19 H 0.7729 0.7158 0.2741
C20 C 0.75630(12) 0.8264(2) 0.23881(19)
H20 H 0.7295 0.8291 0.2454
Zn6 Zn 0.727114(13) 0.99087(2) 0.195530(18)
O14 O 0.66282(9) 0.94852(18) 0.14893(12)
Zn8 Zn 0.772886(13) 0.50913(2) 0.804470(18)
O12 O 0.85120(9) 0.4227(2) 0.85885(14)
O13 O 0.83718(9) 0.55148(18) 0.85107(12)
C71 C 0.86457(14) 0.4928(3) 0.87265(19)
C72 C 0.93224(14) 0.5877(3) 0.9303(2)
H56 H 0.9124 0.6299 0.9090
C73 C 0.91520(13) 0.5085(3) 0.91819(18)
C74 C 0.94454(13) 0.4472(3) 0.94860(19)
H57 H 0.9333 0.3952 0.9394
C75 C 0.99167(12) 0.4602(2) 0.99382(18)
C76 C 0.97775(14) 0.6020(3) 0.9732(2)
H58 H 0.9887 0.6543 0.9807
N12_2 N 0.26062(10) 0.02065(16) 0.21314(13)
O10_2 O 0.24598(8) 0.09042(13) 0.32298(12)
C12_2 C 0.02601(15) 0.6892(3) 0.1917(2)
H12_2 H 0.0259 0.6583 0.2250
C13_2 C 0.06791(14) 0.7052(2) 0.18932(19)
C14_2 C 0.06455(13) 0.7490(2) 0.1376(2)
H13_2 H 0.0914 0.7601 0.1325
C15_2 C 0.02141(15) 0.7766(2) 0.09303(19)
H14_2 H 0.0202 0.8067 0.0586
N6_2 N 0.10955(11) 0.67995(17) 0.23762(16)
H15_2 H 0.1099 0.6593 0.2718
N7_2 N 0.15076(10) 0.68678(17) 0.23262(15)
H16_2 H 0.1599 0.6478 0.2169
N8_2 N 0.23342(9) 0.88985(16) 0.28752(13)
C16_2 C 0.19451(13) 0.8838(2) 0.29568(16)
H17_2 H 0.1863 0.9269 0.3138
C17_2 C 0.16618(12) 0.8184(2) 0.27918(16)
H18_2 H 0.1396 0.8175 0.2862
C18_2 C 0.17719(12) 0.7534(2) 0.25195(16)
C19_2 C 0.21789(13) 0.7583(2) 0.24340(18)
H19_2 H 0.2271 0.7158 0.2259
C20_2 C 0.24370(12) 0.8264(2) 0.26119(19)
H20_2 H 0.2705 0.8291 0.2546
Zn6_2 Zn 0.272886(13) 0.99087(2) 0.304470(18)
O12_2 O 0.14880(9) 0.4227(2) 0.64115(14)
O13_2 O 0.16282(9) 0.55148(18) 0.64893(12)
O14_2 O 0.33718(9) 0.94852(18) 0.35107(12)
C71_2 C 0.13543(14) 0.4928(3) 0.62735(19)
C72_2 C 0.06776(14) 0.5877(3) 0.5697(2)
H56_2 H 0.0876 0.6299 0.5910
C73_2 C 0.08480(13) 0.5085(3) 0.58181(18)
C74_2 C 0.05546(13) 0.4472(3) 0.55140(19)
H57_2 H 0.0667 0.3952 0.5606
C75_2 C 0.00833(12) 0.4602(2) 0.50618(18)
C76_2 C 0.02225(14) 0.6020(3) 0.5268(2)
H58_2 H 0.0113 0.6543 0.5193
C35_2 C 0.86791(14) 0.0498(3) 0.1588(2)
H27_2 H 0.8473 0.0656 0.1172
C36_2 C 0.86828(14) 0.0901(3) 0.2097(2)
H28_2 H 0.8484 0.1336 0.2027
C37_2 C 0.89847(12) 0.0667(2) 0.27235(19)
C38_2 C 0.89873(16) 0.1065(3) 0.3280(3)
H29_2 H 0.8783 0.1489 0.3218
C39_2 C 0.92793(17) 0.0836(3) 0.3885(2)
C40_2 C 0.95915(18) 0.0204(3) 0.3968(2)
H30_2 H 0.9796 0.0047 0.4385
C42_2 C 0.92993(13) 0.0031(2) 0.28369(18)
C44_2 C 0.9259(2) 0.1227(4) 0.4461(3)
O7 O 0.9476(2) 0.0919(2) 0.4988(2)
O8 O 0.90531(14) 0.1834(4) 0.4402(2)
Zn4 Zn 0.921330(14) 0.17324(2) 0.545571(18)
Zn7_2 Zn 0.727114(13) 0.00913(2) 0.695530(18)
N9_2 N 0.72967(10) 0.40225(19) 0.52834(14)
H33_2 H 0.7030 0.3792 0.5068
N10_2 N 0.76034(11) 0.4098(2) 0.50127(14)
H34_2 H 0.7583 0.4511 0.4781
N11_2 N 0.76062(10) 0.47935(16) 0.71314(13)
C45_2 C 0.79201(13) 0.4837(2) 0.68988(18)
H35_2 H 0.8216 0.5038 0.7170
C46_2 C 0.78412(12) 0.4609(2) 0.62942(18)
H36_2 H 0.8076 0.4660 0.6162
C47_2 C 0.74084(12) 0.4304(2) 0.58826(17)
C48_2 C 0.70724(12) 0.4259(2) 0.61145(18)
H37_2 H 0.6772 0.4068 0.5852
C49_2 C 0.71867(13) 0.4495(2) 0.67237(19)
H38_2 H 0.6959 0.4448 0.6870
N13_2 N 0.86622(9) 0.24688(16) 0.53106(13)
C50_2 C 0.84246(13) 0.2458(2) 0.56593(16)
H39_2 H 0.8511 0.2078 0.5985
C51_2 C 0.80650(13) 0.2959(2) 0.55774(16)
H40_2 H 0.7910 0.2911 0.5834
C52_2 C 0.79343(12) 0.3542(2) 0.51027(16)
C53_2 C 0.81756(14) 0.3557(2) 0.47273(18)
H41_2 H 0.8100 0.3933 0.4401
C54_2 C 0.85207(14) 0.3021(2) 0.48422(18)
H42_2 H 0.8671 0.3035 0.4578
N15_2 N 0.98148(10) 0.23724(18) 0.59653(15)
O15_2 O 0.92764(9) 0.11226(16) 0.62130(11)
O16_2 O 0.86215(10) 0.04990(16) 0.55740(14)
C77_2 C 0.89540(15) 0.0613(2) 0.61086(19)
C78_2 C 0.89786(12) 0.0154(2) 0.66744(18)
C85_2 C 0.96078(15) 0.0192(2) 0.84612(19)
H63_2 H 0.9822 0.0604 0.8534
C87_2 C 0.92868(13) 0.0381(2) 0.72806(18)
H64_2 H 0.9491 0.0804 0.7338
Zn1_2 Zn 0.921330(14) 0.82676(2) 0.045571(18)
Zn2_2 Zn 0.772886(13) 0.49087(2) 0.304470(18)
N1_2 N 0.72967(10) 0.59775(19) 0.02834(14)
H1_2 H 0.7030 0.6208 0.0068
N2_2 N 0.76034(11) 0.5902(2) 0.00127(14)
N3_2 N 0.76062(10) 0.52065(16) 0.21314(13)
C1_2 C 0.79201(13) 0.5163(2) 0.18988(18)
H3_2 H 0.8216 0.4962 0.2170
C2_2 C 0.78412(12) 0.5391(2) 0.12942(18)
H4_2 H 0.8076 0.5340 0.1162
C3_2 C 0.74084(12) 0.5696(2) 0.08826(17)
C4_2 C 0.70724(12) 0.5741(2) 0.11145(18)
H5_2 H 0.6772 0.5932 0.0852
C5_2 C 0.71867(13) 0.5505(2) 0.17237(19)
H6_2 H 0.6959 0.5552 0.1870
N4_2 N 0.86622(9) 0.75312(16) 0.03106(13)
C6_2 C 0.84246(13) 0.7542(2) 0.06593(16)
H7_2 H 0.8511 0.7922 0.0985
C7_2 C 0.80650(13) 0.7041(2) 0.05774(16)
H8_2 H 0.7910 0.7089 0.0834
C8_2 C 0.79343(12) 0.6458(2) 0.01027(16)
N5_2 N 0.98148(10) 0.76276(18) 0.09653(15)
C11_2 C 0.98525(15) 0.7183(3) 0.1456(2)
H11_2 H 0.9578 0.7061 0.1487
O1_2 O 0.74598(8) 0.59042(13) 0.32298(12)
O2_2 O 0.76495(10) 0.51570(16) 0.40844(12)
C21_2 C 0.75304(11) 0.5812(2) 0.38070(19)
C22_2 C 0.73084(12) 0.7246(2) 0.38408(17)
H21_2 H 0.7219 0.7282 0.3401
C23_2 C 0.74801(12) 0.6519(2) 0.41619(18)
C24_2 C 0.76150(12) 0.6470(2) 0.48095(18)
H22_2 H 0.7726 0.5988 0.5021
C25_2 C 0.75886(12) 0.71415(19) 0.51645(16)
C26_2 C 0.72716(13) 0.7897(2) 0.41642(18)
H23_2 H 0.7154 0.8372 0.3943
O3_2 O 0.85120(9) 0.5773(2) 0.35885(14)
O4_2 O 0.83718(9) 0.44852(18) 0.35107(12)
C27_2 C 0.86457(14) 0.5072(3) 0.37265(19)
C28_2 C 0.93224(14) 0.4123(3) 0.4303(2)
H24_2 H 0.9124 0.3701 0.4090
C29_2 C 0.91520(13) 0.4915(3) 0.41819(18)
C30_2 C 0.94454(13) 0.5528(3) 0.44860(19)
H25_2 H 0.9333 0.6048 0.4394
C31_2 C 0.99167(12) 0.5398(2) 0.49382(18)
C32_2 C 0.97775(14) 0.3980(3) 0.4732(2)
H26_2 H 0.9887 0.3457 0.4807
O5_2 O 0.92764(9) 0.88774(16) 0.12130(11)
O6_2 O 0.86215(10) 0.95010(16) 0.05740(14)
C33_2 C 0.89540(15) 0.9387(2) 0.11086(19)
C34_2 C 0.89786(12) 0.9846(2) 0.16744(18)
C41_2 C 0.96078(15) 0.9808(2) 0.34612(19)
H31_2 H 0.9822 0.9396 0.3534
C43_2 C 0.92868(13) 0.9619(2) 0.22806(18)
H32_2 H 0.9491 0.9196 0.2338
Zn5_2 Zn 0.421330(14) 0.32676(2) 0.045571(18)
N14_2 N 0.48148(10) 0.26276(18) 0.09653(15)
C55_2 C 0.48525(15) 0.2183(3) 0.1456(2)
H43_2 H 0.4578 0.2061 0.1487
C56_2 C 0.52601(15) 0.1892(3) 0.1917(2)
H44_2 H 0.5259 0.1583 0.2250
C57_2 C 0.56791(14) 0.2052(2) 0.18932(19)
C58_2 C 0.56455(13) 0.2490(2) 0.1376(2)
H45_2 H 0.5914 0.2601 0.1325
C59_2 C 0.52141(15) 0.2766(2) 0.09303(19)
H46_2 H 0.5202 0.3067 0.0586
N16_2 N 0.60955(11) 0.17995(17) 0.23762(16)
H47_2 H 0.6099 0.1593 0.2718
N17_2 N 0.65076(10) 0.18678(17) 0.23262(15)
H48_2 H 0.6599 0.1478 0.2169
N18_2 N 0.73342(9) 0.38985(16) 0.28752(13)
C60_2 C 0.69451(13) 0.3838(2) 0.29568(16)
H49_2 H 0.6863 0.4269 0.3138
C61_2 C 0.66618(12) 0.3184(2) 0.27918(16)
H50_2 H 0.6396 0.3175 0.2862
C62_2 C 0.67719(12) 0.2534(2) 0.25195(16)
C63_2 C 0.71789(13) 0.2583(2) 0.24340(18)
H51_2 H 0.7271 0.2158 0.2259
C64_2 C 0.74370(12) 0.3264(2) 0.26119(19)
H52_2 H 0.7705 0.3291 0.2546
O9_2 O 0.75402(8) 0.90958(13) 0.67702(12)
O11_2 O 0.73505(10) 0.98430(16) 0.59156(12)
C65_2 C 0.74696(11) 0.9188(2) 0.61930(19)
C66_2 C 0.76916(12) 0.7754(2) 0.61592(17)
H53_2 H 0.7781 0.7718 0.6599
C67_2 C 0.75199(12) 0.8481(2) 0.58381(18)
C68_2 C 0.73850(12) 0.8530(2) 0.51905(18)
H54_2 H 0.7274 0.9012 0.4979
C69_2 C 0.74114(12) 0.78585(19) 0.48355(16)
C70_2 C 0.77284(13) 0.7103(2) 0.58358(18)
H55_2 H 0.7846 0.6628 0.6057
H2_2 H 0.7583 0.5489 0.9781
C9_2 C 0.81756(14) 0.6443(2) 0.97273(18)
H9_2 H 0.8100 0.6067 0.9401
C10_2 C 0.85207(14) 0.6979(2) 0.98422(18)
H10_2 H 0.8671 0.6965 0.9578
C79_2 C 0.86791(14) 0.9502(3) 0.6588(2)
H59_2 H 0.8473 0.9344 0.6172
C80_2 C 0.86828(14) 0.9099(3) 0.7097(2)
H60_2 H 0.8484 0.8664 0.7027
C81_2 C 0.89847(12) 0.9333(2) 0.77235(19)
C82_2 C 0.89873(16) 0.8935(3) 0.8280(3)
H61_2 H 0.8783 0.8511 0.8218
C83_2 C 0.92793(17) 0.9164(3) 0.8885(2)
C84_2 C 0.95915(18) 0.9796(3) 0.8968(2)
H62_2 H 0.9796 0.9953 0.9385
C86_2 C 0.92993(13) 0.9969(2) 0.78369(18)
C88_2 C 0.9259(2) 0.8773(4) 0.9461(3)
O17_2 O 0.9476(2) 0.9081(2) 0.9988(2)
O19_2 O 0.90531(14) 0.8166(4) 0.9402(2)
H35_3 H 0.6784 0.0038 0.7830
H34_3 H 0.7417 0.9511 0.0219
C53_3 C 0.68244(14) 0.8557(2) 0.02727(18)
H41_3 H 0.6900 0.8933 0.0599
C54_3 C 0.64793(14) 0.8021(2) 0.01578(18)
H42_3 H 0.6329 0.8035 0.0422
O18_2 O 0.5524(2) 0.5919(2) 0.0012(2)
O20_2 O 0.59469(14) 0.6834(4) 0.0598(2)
N1_3 N 0.77033(10) 0.09775(19) 0.47166(14)
H1_3 H 0.7970 0.1208 0.4932
N2_3 N 0.73966(11) 0.0902(2) 0.49873(14)
H2_3 H 0.7417 0.0489 0.5219
C1_3 C 0.70799(13) 0.0163(2) 0.31012(18)
C2_3 C 0.71588(12) 0.0391(2) 0.37058(18)
H4_3 H 0.6924 0.0340 0.3838
C3_3 C 0.75916(12) 0.0696(2) 0.41174(17)
C4_3 C 0.79276(12) 0.0741(2) 0.38855(18)
H5_3 H 0.8228 0.0932 0.4148
C5_3 C 0.78133(13) 0.0505(2) 0.32763(19)
H6_3 H 0.8041 0.0552 0.3130
N4_3 N 0.63378(9) 0.25312(16) 0.46894(13)
C6_3 C 0.65754(13) 0.2542(2) 0.43407(16)
H7_3 H 0.6489 0.2922 0.4015
C7_3 C 0.69350(13) 0.2041(2) 0.44226(16)
H8_3 H 0.7090 0.2089 0.4166
C8_3 C 0.70657(12) 0.1458(2) 0.48973(16)
C9_3 C 0.68244(14) 0.1443(2) 0.52727(18)
H9_3 H 0.6900 0.1067 0.5599
C10_3 C 0.64793(14) 0.1979(2) 0.51578(18)
H10_3 H 0.6329 0.1965 0.5422
O2_3 O 0.73505(10) 0.01570(16) 0.09156(12)
C21_3 C 0.74696(11) 0.0812(2) 0.11930(19)
C22_3 C 0.76916(12) 0.2246(2) 0.11592(17)
H21_3 H 0.7781 0.2282 0.1599
C23_3 C 0.75199(12) 0.1519(2) 0.08381(18)
C24_3 C 0.73850(12) 0.1470(2) 0.01905(18)
C26_3 C 0.77284(13) 0.2897(2) 0.08358(18)
H23_3 H 0.7846 0.3372 0.1057
O3_3 O 0.64880(9) 0.0773(2) 0.14115(14)
C27_3 C 0.63543(14) 0.0072(3) 0.12735(19)
C30_3 C 0.55546(13) 0.0528(3) 0.05140(19)
H25_3 H 0.5667 0.1048 0.0606
C31_3 C 0.50833(12) 0.0398(2) 0.00618(18)
O5_3 O 0.57236(9) 0.38774(16) 0.37870(11)
O6_3 O 0.63785(10) 0.45010(16) 0.44260(14)
C33_3 C 0.60460(15) 0.4387(2) 0.38914(19)
C34_3 C 0.60214(12) 0.4846(2) 0.33256(18)
C35_3 C 0.63209(14) 0.5498(3) 0.3412(2)
H27_3 H 0.6527 0.5656 0.3828
C36_3 C 0.63172(14) 0.5901(3) 0.2903(2)
H28_3 H 0.6516 0.6336 0.2973
C37_3 C 0.60153(12) 0.5667(2) 0.22765(19)
C38_3 C 0.60127(16) 0.6065(3) 0.1720(3)
H29_3 H 0.6217 0.6489 0.1782
C39_3 C 0.57207(17) 0.5836(3) 0.1115(2)
C40_3 C 0.54085(18) 0.5204(3) 0.1032(2)
H30_3 H 0.5204 0.5047 0.0615
C41_3 C 0.53922(15) 0.4808(2) 0.15388(19)
H31_3 H 0.5178 0.4396 0.1466
C42_3 C 0.57007(13) 0.5031(2) 0.21631(18)
C43_3 C 0.57132(13) 0.4619(2) 0.27194(18)
H32_3 H 0.5509 0.4196 0.2662
C44_3 C 0.5741(2) 0.6227(4) 0.0539(3)
Zn3_2 Zn 0.578670(14) 0.67324(2) 0.954429(18)
N9_3 N 0.77033(10) 0.90225(19) 0.97166(14)
H33_3 H 0.7970 0.8792 0.9932
N10_3 N 0.73966(11) 0.9098(2) 0.99873(14)
N11_3 N 0.73938(10) 0.97935(16) 0.78686(13)
C45_3 C 0.70799(13) 0.9837(2) 0.81012(18)
C46_3 C 0.71588(12) 0.9609(2) 0.87058(18)
H36_3 H 0.6924 0.9660 0.8838
C47_3 C 0.75916(12) 0.9304(2) 0.91174(17)
C48_3 C 0.79276(12) 0.9259(2) 0.88855(18)
H37_3 H 0.8228 0.9068 0.9148
C49_3 C 0.78133(13) 0.9495(2) 0.82763(19)
H38_3 H 0.8041 0.9448 0.8130
N13_3 N 0.63378(9) 0.74688(16) 0.96894(13)
C50_3 C 0.65754(13) 0.7458(2) 0.93407(16)
H39_3 H 0.6489 0.7078 0.9015
C51_3 C 0.69350(13) 0.7959(2) 0.94226(16)
H40_3 H 0.7090 0.7911 0.9166
C52_3 C 0.70657(12) 0.8542(2) 0.98973(16)
N15_3 N 0.51852(10) 0.73724(18) 0.90347(15)
H54_3 H 0.7726 0.4012 0.0021
C69_3 C 0.75886(12) 0.28585(19) 0.01645(16)
O15_3 O 0.57236(9) 0.61226(16) 0.87870(11)
O16_3 O 0.63785(10) 0.54990(16) 0.94260(14)
C77_3 C 0.60460(15) 0.5613(2) 0.88914(19)
C78_3 C 0.60214(12) 0.5154(2) 0.83256(18)
C79_3 C 0.63209(14) 0.4502(3) 0.8412(2)
H59_3 H 0.6527 0.4344 0.8828
C80_3 C 0.63172(14) 0.4099(3) 0.7903(2)
H60_3 H 0.6516 0.3664 0.7973
C81_3 C 0.60153(12) 0.4333(2) 0.72765(19)
C82_3 C 0.60127(16) 0.3935(3) 0.6720(3)
H61_3 H 0.6217 0.3511 0.6782
C83_3 C 0.57207(17) 0.4164(3) 0.6115(2)
C84_3 C 0.54085(18) 0.4796(3) 0.6032(2)
H62_3 H 0.5204 0.4953 0.5615
C85_3 C 0.53922(15) 0.5192(2) 0.65388(19)
H63_3 H 0.5178 0.5604 0.6466
C86_3 C 0.57007(13) 0.4969(2) 0.71631(18)
C87_3 C 0.57132(13) 0.5381(2) 0.77194(18)
H64_3 H 0.5509 0.5804 0.7662
C88_3 C 0.5741(2) 0.3773(4) 0.5539(3)
O17_3 O 0.5524(2) 0.4081(2) 0.5012(2)
O19_3 O 0.59469(14) 0.3166(4) 0.5598(2)
H22_3 H 0.7274 0.0988 0.9979
C25_3 C 0.74114(12) 0.21415(19) 0.98355(16)
O9_3 O 0.74598(8) 0.40958(13) 0.82298(12)
O11_3 O 0.76495(10) 0.48430(16) 0.90844(12)
C65_3 C 0.75304(11) 0.4188(2) 0.88070(19)
C66_3 C 0.73084(12) 0.2754(2) 0.88408(17)
H53_3 H 0.7219 0.2718 0.8401
C67_3 C 0.74801(12) 0.3481(2) 0.91619(18)
C68_3 C 0.76150(12) 0.3530(2) 0.98095(18)
C70_3 C 0.72716(13) 0.2103(2) 0.91642(18)
H55_3 H 0.7154 0.1628 0.8943
O13_3 O 0.33718(9) 0.05148(18) 0.85107(12)
C72_3 C 0.43224(14) 0.0877(3) 0.9303(2)
H56_3 H 0.4124 0.1299 0.9090
C73_3 C 0.41520(13) 0.0085(3) 0.91819(18)
C76_3 C 0.47775(14) 0.1020(3) 0.9732(2)
H58_3 H 0.4887 0.1543 0.9807
H3_3 H 0.6784 0.9962 0.2830
C28_3 C 0.56776(14) 0.9123(3) 0.0697(2)
H24_3 H 0.5876 0.8701 0.0910
C29_3 C 0.58480(13) 0.9915(3) 0.08181(18)
C32_3 C 0.52225(14) 0.8980(3) 0.0268(2)
H26_3 H 0.5113 0.8457 0.0193
O12_3 O 0.35120(9) 0.9227(2) 0.85885(14)
C71_3 C 0.36457(14) 0.9928(3) 0.87265(19)
C74_3 C 0.44454(13) 0.9472(3) 0.94860(19)
H57_3 H 0.4333 0.8952 0.9394
C75_3 C 0.49167(12) 0.9602(2) 0.99382(18)
H35_4 H 0.3216 0.0038 0.7170
N1_4 N 0.22967(10) 0.09775(19) 0.02834(14)
H1_4 H 0.2030 0.1208 0.0068
N2_4 N 0.26034(11) 0.0902(2) 0.00127(14)
C1_4 C 0.29201(13) 0.0163(2) 0.18988(18)
C2_4 C 0.28412(12) 0.0391(2) 0.12942(18)
H4_4 H 0.3076 0.0340 0.1162
C3_4 C 0.24084(12) 0.0696(2) 0.08826(17)
C4_4 C 0.20724(12) 0.0741(2) 0.11145(18)
H5_4 H 0.1772 0.0932 0.0852
C5_4 C 0.21867(13) 0.0505(2) 0.17237(19)
H6_4 H 0.1959 0.0552 0.1870
N4_4 N 0.36622(9) 0.25312(16) 0.03106(13)
C6_4 C 0.34246(13) 0.2542(2) 0.06593(16)
H7_4 H 0.3511 0.2922 0.0985
C7_4 C 0.30650(13) 0.2041(2) 0.05774(16)
H8_4 H 0.2910 0.2089 0.0834
C8_4 C 0.29343(12) 0.1458(2) 0.01027(16)
O2_4 O 0.26495(10) 0.01570(16) 0.40844(12)
C21_4 C 0.25304(11) 0.0812(2) 0.38070(19)
C22_4 C 0.23084(12) 0.2246(2) 0.38408(17)
H21_4 H 0.2219 0.2282 0.3401
C23_4 C 0.24801(12) 0.1519(2) 0.41619(18)
C24_4 C 0.26150(12) 0.1470(2) 0.48095(18)
H22_4 H 0.2726 0.0988 0.5021
C25_4 C 0.25886(12) 0.21415(19) 0.51645(16)
C26_4 C 0.22716(13) 0.2897(2) 0.41642(18)
H23_4 H 0.2154 0.3372 0.3943
O3_4 O 0.35120(9) 0.0773(2) 0.35885(14)
C27_4 C 0.36457(14) 0.0072(3) 0.37265(19)
C30_4 C 0.44454(13) 0.0528(3) 0.44860(19)
H25_4 H 0.4333 0.1048 0.4394
C31_4 C 0.49167(12) 0.0398(2) 0.49382(18)
O5_4 O 0.42764(9) 0.38774(16) 0.12130(11)
O6_4 O 0.36215(10) 0.45010(16) 0.05740(14)
C33_4 C 0.39540(15) 0.4387(2) 0.11086(19)
C34_4 C 0.39786(12) 0.4846(2) 0.16744(18)
C35_4 C 0.36791(14) 0.5498(3) 0.1588(2)
H27_4 H 0.3473 0.5656 0.1172
C36_4 C 0.36828(14) 0.5901(3) 0.2097(2)
H28_4 H 0.3484 0.6336 0.2027
C37_4 C 0.39847(12) 0.5667(2) 0.27235(19)
C38_4 C 0.39873(16) 0.6065(3) 0.3280(3)
H29_4 H 0.3783 0.6489 0.3218
C39_4 C 0.42793(17) 0.5836(3) 0.3885(2)
C40_4 C 0.45915(18) 0.5204(3) 0.3968(2)
H30_4 H 0.4796 0.5047 0.4385
C41_4 C 0.46078(15) 0.4808(2) 0.34612(19)
H31_4 H 0.4822 0.4396 0.3534
C42_4 C 0.42993(13) 0.5031(2) 0.28369(18)
C43_4 C 0.42868(13) 0.4619(2) 0.22806(18)
H32_4 H 0.4491 0.4196 0.2338
C44_4 C 0.4259(2) 0.6227(4) 0.4461(3)
O7_2 O 0.4476(2) 0.5919(2) 0.4988(2)
O8_2 O 0.40531(14) 0.6834(4) 0.4402(2)
Zn4_2 Zn 0.421330(14) 0.67324(2) 0.545571(18)
O9_4 O 0.25402(8) 0.40958(13) 0.67702(12)
O11_4 O 0.23505(10) 0.48430(16) 0.59156(12)
C65_4 C 0.24696(11) 0.4188(2) 0.61930(19)
C66_4 C 0.26916(12) 0.2754(2) 0.61592(17)
H53_4 H 0.2781 0.2718 0.6599
C67_4 C 0.25199(12) 0.3481(2) 0.58381(18)
C68_4 C 0.23850(12) 0.3530(2) 0.51905(18)
H54_4 H 0.2274 0.4012 0.4979
C69_4 C 0.24114(12) 0.28585(19) 0.48355(16)
C70_4 C 0.27284(13) 0.2103(2) 0.58358(18)
H55_4 H 0.2846 0.1628 0.6057
O13_4 O 0.66282(9) 0.05148(18) 0.64893(12)
C72_4 C 0.56776(14) 0.0877(3) 0.5697(2)
H56_4 H 0.5876 0.1299 0.5910
C73_4 C 0.58480(13) 0.0085(3) 0.58181(18)
C76_4 C 0.52225(14) 0.1020(3) 0.5268(2)
H58_4 H 0.5113 0.1543 0.5193
H2_4 H 0.2583 0.0489 0.9781
C9_4 C 0.31756(14) 0.1443(2) 0.97273(18)
H9_4 H 0.3100 0.1067 0.9401
C10_4 C 0.35207(14) 0.1979(2) 0.98422(18)
H10_4 H 0.3671 0.1965 0.9578
N9_4 N 0.22967(10) 0.90225(19) 0.52834(14)
H33_4 H 0.2030 0.8792 0.5068
N10_4 N 0.26034(11) 0.9098(2) 0.50127(14)
H34_4 H 0.2583 0.9511 0.4781
N11_4 N 0.26062(10) 0.97935(16) 0.71314(13)
C45_4 C 0.29201(13) 0.9837(2) 0.68988(18)
C46_4 C 0.28412(12) 0.9609(2) 0.62942(18)
H36_4 H 0.3076 0.9660 0.6162
C47_4 C 0.24084(12) 0.9304(2) 0.58826(17)
C48_4 C 0.20724(12) 0.9259(2) 0.61145(18)
H37_4 H 0.1772 0.9068 0.5852
C49_4 C 0.21867(13) 0.9495(2) 0.67237(19)
H38_4 H 0.1959 0.9448 0.6870
N13_4 N 0.36622(9) 0.74688(16) 0.53106(13)
C50_4 C 0.34246(13) 0.7458(2) 0.56593(16)
H39_4 H 0.3511 0.7078 0.5985
C51_4 C 0.30650(13) 0.7959(2) 0.55774(16)
H40_4 H 0.2910 0.7911 0.5834
C52_4 C 0.29343(12) 0.8542(2) 0.51027(16)
C53_4 C 0.31756(14) 0.8557(2) 0.47273(18)
H41_4 H 0.3100 0.8933 0.4401
C54_4 C 0.35207(14) 0.8021(2) 0.48422(18)
H42_4 H 0.3671 0.8035 0.4578
N15_4 N 0.48148(10) 0.73724(18) 0.59653(15)
O15_4 O 0.42764(9) 0.61226(16) 0.62130(11)
O16_4 O 0.36215(10) 0.54990(16) 0.55740(14)
C77_4 C 0.39540(15) 0.5613(2) 0.61086(19)
C78_4 C 0.39786(12) 0.5154(2) 0.66744(18)
C79_4 C 0.36791(14) 0.4502(3) 0.6588(2)
H59_4 H 0.3473 0.4344 0.6172
C80_4 C 0.36828(14) 0.4099(3) 0.7097(2)
H60_4 H 0.3484 0.3664 0.7027
C81_4 C 0.39847(12) 0.4333(2) 0.77235(19)
C82_4 C 0.39873(16) 0.3935(3) 0.8280(3)
H61_4 H 0.3783 0.3511 0.8218
C83_4 C 0.42793(17) 0.4164(3) 0.8885(2)
C84_4 C 0.45915(18) 0.4796(3) 0.8968(2)
H62_4 H 0.4796 0.4953 0.9385
C85_4 C 0.46078(15) 0.5192(2) 0.84612(19)
H63_4 H 0.4822 0.5604 0.8534
C86_4 C 0.42993(13) 0.4969(2) 0.78369(18)
C87_4 C 0.42868(13) 0.5381(2) 0.72806(18)
H64_4 H 0.4491 0.5804 0.7338
C88_4 C 0.4259(2) 0.3773(4) 0.9461(3)
O17_4 O 0.4476(2) 0.4081(2) 0.9988(2)
O19_4 O 0.40531(14) 0.3166(4) 0.9402(2)
H3_4 H 0.3216 0.9962 0.2170
C28_4 C 0.43224(14) 0.9123(3) 0.4303(2)
H24_4 H 0.4124 0.8701 0.4090
C29_4 C 0.41520(13) 0.9915(3) 0.41819(18)
C32_4 C 0.47775(14) 0.8980(3) 0.4732(2)
H26_4 H 0.4887 0.8457 0.4807
O12_4 O 0.64880(9) 0.9227(2) 0.64115(14)
C71_4 C 0.63543(14) 0.9928(3) 0.62735(19)
C74_4 C 0.55546(13) 0.9472(3) 0.55140(19)
H57_4 H 0.5667 0.8952 0.5606
C75_4 C 0.50833(12) 0.9602(2) 0.50618(18)
C12_3 C 0.02601(15) 0.3108(3) 0.6917(2)
H12_3 H 0.0259 0.3417 0.7250
C13_3 C 0.06791(14) 0.2948(2) 0.68932(19)
C14_3 C 0.06455(13) 0.2510(2) 0.6376(2)
H13_3 H 0.0914 0.2399 0.6325
C15_3 C 0.02141(15) 0.2234(2) 0.59303(19)
H14_3 H 0.0202 0.1933 0.5586
N6_3 N 0.10955(11) 0.32005(17) 0.73762(16)
H15_3 H 0.1099 0.3407 0.7718
N7_3 N 0.15076(10) 0.31322(17) 0.73262(15)
H16_3 H 0.1599 0.3522 0.7169
N8_3 N 0.23342(9) 0.11015(16) 0.78752(13)
C16_3 C 0.19451(13) 0.1162(2) 0.79568(16)
H17_3 H 0.1863 0.0731 0.8138
C17_3 C 0.16618(12) 0.1816(2) 0.77918(16)
H18_3 H 0.1396 0.1825 0.7862
C18_3 C 0.17719(12) 0.2466(2) 0.75195(16)
C19_3 C 0.21789(13) 0.2417(2) 0.74340(18)
H19_3 H 0.2271 0.2842 0.7259
C20_3 C 0.24370(12) 0.1736(2) 0.76119(19)
H20_3 H 0.2705 0.1709 0.7546
C11_3 C 0.98525(15) 0.2817(3) 0.6456(2)
H11_3 H 0.9578 0.2939 0.6487
C55_3 C 0.48525(15) 0.7817(3) 0.6456(2)
H43_3 H 0.4578 0.7939 0.6487
C56_3 C 0.52601(15) 0.8108(3) 0.6917(2)
H44_3 H 0.5259 0.8417 0.7250
C57_3 C 0.56791(14) 0.7948(2) 0.68932(19)
C58_3 C 0.56455(13) 0.7510(2) 0.6376(2)
H45_3 H 0.5914 0.7399 0.6325
C59_3 C 0.52141(15) 0.7234(2) 0.59303(19)
H46_3 H 0.5202 0.6933 0.5586
N16_3 N 0.60955(11) 0.82005(17) 0.73762(16)
H47_3 H 0.6099 0.8407 0.7718
N17_3 N 0.65076(10) 0.81322(17) 0.73262(15)
H48_3 H 0.6599 0.8522 0.7169
N18_3 N 0.73342(9) 0.61015(16) 0.78752(13)
C60_3 C 0.69451(13) 0.6162(2) 0.79568(16)
H49_3 H 0.6863 0.5731 0.8138
C61_3 C 0.66618(12) 0.6816(2) 0.77918(16)
H50_3 H 0.6396 0.6825 0.7862
C62_3 C 0.67719(12) 0.7466(2) 0.75195(16)
C63_3 C 0.71789(13) 0.7417(2) 0.74340(18)
H51_3 H 0.7271 0.7842 0.7259
C64_3 C 0.74370(12) 0.6736(2) 0.76119(19)
H52_3 H 0.7705 0.6709 0.7546
C11_4 C 0.01475(15) 0.2817(3) 0.8544(2)
H11_4 H 0.0422 0.2939 0.8513
C55_4 C 0.51475(15) 0.7817(3) 0.8544(2)
H43_4 H 0.5422 0.7939 0.8513
C56_4 C 0.47399(15) 0.8108(3) 0.8083(2)
H44_4 H 0.4741 0.8417 0.7750
C57_4 C 0.43209(14) 0.7948(2) 0.81068(19)
C58_4 C 0.43545(13) 0.7510(2) 0.8624(2)
H45_4 H 0.4086 0.7399 0.8675
C59_4 C 0.47859(15) 0.7234(2) 0.90697(19)
H46_4 H 0.4798 0.6933 0.9414
N16_4 N 0.39045(11) 0.82005(17) 0.76238(16)
H47_4 H 0.3901 0.8407 0.7282
N17_4 N 0.34924(10) 0.81322(17) 0.76738(15)
H48_4 H 0.3401 0.8522 0.7831
N18_4 N 0.26658(9) 0.61015(16) 0.71248(13)
C60_4 C 0.30549(13) 0.6162(2) 0.70432(16)
H49_4 H 0.3137 0.5731 0.6862
C61_4 C 0.33382(12) 0.6816(2) 0.72082(16)
H50_4 H 0.3604 0.6825 0.7138
C62_4 C 0.32281(12) 0.7466(2) 0.74805(16)
C63_4 C 0.28211(13) 0.7417(2) 0.75660(18)
H51_4 H 0.2729 0.7842 0.7741
C64_4 C 0.25630(12) 0.6736(2) 0.73881(19)
H52_4 H 0.2295 0.6709 0.7454
C12_4 C 0.97399(15) 0.3108(3) 0.8083(2)
H12_4 H 0.9741 0.3417 0.7750
C13_4 C 0.93209(14) 0.2948(2) 0.81068(19)
C14_4 C 0.93545(13) 0.2510(2) 0.8624(2)
H13_4 H 0.9086 0.2399 0.8675
C15_4 C 0.97859(15) 0.2234(2) 0.90697(19)
H14_4 H 0.9798 0.1933 0.9414
N6_4 N 0.89045(11) 0.32005(17) 0.76238(16)
H15_4 H 0.8901 0.3407 0.7282
N7_4 N 0.84924(10) 0.31322(17) 0.76738(15)
H16_4 H 0.8401 0.3522 0.7831
N8_4 N 0.76658(9) 0.11015(16) 0.71248(13)
C16_4 C 0.80549(13) 0.1162(2) 0.70432(16)
H17_4 H 0.8137 0.0731 0.6862
C17_4 C 0.83382(12) 0.1816(2) 0.72082(16)
H18_4 H 0.8604 0.1825 0.7138
C18_4 C 0.82281(12) 0.2466(2) 0.74805(16)
C19_4 C 0.78211(13) 0.2417(2) 0.75660(18)
H19_4 H 0.7729 0.2842 0.7741
C20_4 C 0.75630(12) 0.1736(2) 0.73881(19)
H20_4 H 0.7295 0.1709 0.7454
loop_
_geom_bond_atom_site_label_1
_geom_bond_atom_site_label_2
_geom_bond_site_symmetry_1
_geom_bond_site_symmetry_2
H41 C53 1_555 1_555
H42 C54 1_555 1_555
C53 C54 1_555 1_555
H27 C35 1_555 1_555
C36 C35 1_555 1_555
H28 C36 1_555 1_555
C37 C36 1_555 1_555
C38 C37 1_555 1_555
H29 C38 1_555 1_555
C39 C38 1_555 1_555
C40 C39 1_555 1_555
H30 C40 1_555 1_555
C42 C37 1_555 1_555
C44 C39 1_555 1_555
O18 C44 1_555 1_555
O20 C44 1_555 1_555
Zn3 N13 1_555 1_555
Zn9 N11 1_555 1_555
N9 H33 1_555 1_555
N10 N9 1_555 1_555
N11 C45 1_555 1_555
C45 H35 1_555 1_555
C46 C45 1_555 1_555
H36 C46 1_555 1_555
C47 N9 1_555 1_555
C48 C47 1_555 1_555
H37 C48 1_555 1_555
C49 N11 1_555 1_555
H38 C49 1_555 1_555
N13 C50 1_555 1_555
C50 H39 1_555 1_555
C51 C50 1_555 1_555
H40 C51 1_555 1_555
C52 N10 1_555 1_555
N15 Zn3 1_555 1_555
O15 Zn3 1_555 1_555
O16 C77 1_555 1_555
C77 O15 1_555 1_555
C78 C77 1_555 1_555
H63 C85 1_555 1_555
C87 C78 1_555 1_555
H64 C87 1_555 1_555
C46 C47 1_555 1_555
C48 C49 1_555 1_555
C51 C52 1_555 1_555
Zn1 N4 1_555 1_555
Zn2 N3 1_555 1_555
N1 H1 1_555 1_555
N2 N1 1_555 1_555
H2 N2 1_555 1_555
N3 C1 1_555 1_555
C1 H3 1_555 1_555
C2 C1 1_555 1_555
H4 C2 1_555 1_555
C3 N1 1_555 1_555
C4 C3 1_555 1_555
H5 C4 1_555 1_555
C5 N3 1_555 1_555
H6 C5 1_555 1_555
N4 C6 1_555 1_555
C6 H7 1_555 1_555
C7 C6 1_555 1_555
H8 C7 1_555 1_555
C8 N2 1_555 1_555
C9 C8 1_555 1_555
H9 C9 1_555 1_555
C10 N4 1_555 1_555
H10 C10 1_555 1_555
N5 Zn1 1_555 1_555
C11 N5 1_555 1_555
H11 C11 1_555 1_555
O1 Zn2 1_555 1_555
O2 C21 1_555 1_555
C21 O1 1_555 1_555
C22 H21 1_555 1_555
C23 C21 1_555 1_555
C24 C23 1_555 1_555
C26 C22 1_555 1_555
H23 C26 1_555 1_555
O3 C27 1_555 1_555
O4 Zn2 1_555 1_555
C27 O4 1_555 1_555
C28 H24 1_555 1_555
C29 C27 1_555 1_555
C30 C29 1_555 1_555
H25 C30 1_555 1_555
C31 C30 1_555 1_555
C32 C28 1_555 1_555
H26 C32 1_555 1_555
O5 Zn1 1_555 1_555
O6 C33 1_555 1_555
C33 O5 1_555 1_555
C34 C33 1_555 1_555
H31 C41 1_555 1_555
C43 C34 1_555 1_555
H32 C43 1_555 1_555
Zn5 N14 1_555 1_555
N14 C55 1_555 1_555
C55 H43 1_555 1_555
C56 C55 1_555 1_555
H44 C56 1_555 1_555
C57 C56 1_555 1_555
C58 C57 1_555 1_555
H45 C58 1_555 1_555
C59 N14 1_555 1_555
H46 C59 1_555 1_555
N16 C57 1_555 1_555
H47 N16 1_555 1_555
N17 N16 1_555 1_555
H48 N17 1_555 1_555
N18 Zn2 1_555 1_555
C60 N18 1_555 1_555
H49 C60 1_555 1_555
C61 C60 1_555 1_555
H50 C61 1_555 1_555
C62 N17 1_555 1_555
C63 C62 1_555 1_555
H51 C63 1_555 1_555
C64 N18 1_555 1_555
H52 C64 1_555 1_555
H59 C79 1_555 1_555
C80 C79 1_555 1_555
H60 C80 1_555 1_555
C81 C80 1_555 1_555
C82 C81 1_555 1_555
H61 C82 1_555 1_555
C83 C82 1_555 1_555
C84 C83 1_555 1_555
H62 C84 1_555 1_555
C86 C81 1_555 1_555
C88 C83 1_555 1_555
O17 Zn1 1_555 1_555
O19 Zn1 1_555 1_555
C2 C3 1_555 1_555
C4 C5 1_555 1_555
C7 C8 1_555 1_555
C9 C10 1_555 1_555
C22 C23 1_555 1_555
C26 C69 1_555 1_555
C28 C29 1_555 1_555
C58 C59 1_555 1_555
C61 C62 1_555 1_555
C63 C64 1_555 1_555
C88 O17 1_555 1_555
C88 O19 1_555 1_555
O9 C65 1_555 1_555
O11 C65 1_555 1_555
C65 C67 1_555 1_555
C66 H53 1_555 1_555
C67 C66 1_555 1_555
C68 C67 1_555 1_555
C70 C25 1_555 1_555
H55 C70 1_555 1_555
C66 C70 1_555 1_555
H12 C12 1_555 1_555
C13 C12 1_555 1_555
C14 C13 1_555 1_555
H13 C14 1_555 1_555
H14 C15 1_555 1_555
N6 C13 1_555 1_555
H15 N6 1_555 1_555
N7 N6 1_555 1_555
H16 N7 1_555 1_555
N8 C16 1_555 1_555
C16 H17 1_555 1_555
C17 C16 1_555 1_555
H18 C17 1_555 1_555
C18 N7 1_555 1_555
C19 C18 1_555 1_555
H19 C19 1_555 1_555
C20 N8 1_555 1_555
H20 C20 1_555 1_555
Zn6 N8 1_555 1_555
O14 Zn6 1_555 1_555
C14 C15 1_555 1_555
C17 C18 1_555 1_555
C19 C20 1_555 1_555
Zn8 O13 1_555 1_555
O12 C71 1_555 1_555
O13 C71 1_555 1_555
C71 C73 1_555 1_555
C72 H56 1_555 1_555
C73 C72 1_555 1_555
C74 C73 1_555 1_555
H57 C74 1_555 1_555
H58 C76 1_555 1_555
C72 C76 1_555 1_555
C74 C75 1_555 1_555
H12_2 C12_2 1_555 1_555
C13_2 C12_2 1_555 1_555
C14_2 C13_2 1_555 1_555
H13_2 C14_2 1_555 1_555
H14_2 C15_2 1_555 1_555
N6_2 C13_2 1_555 1_555
H15_2 N6_2 1_555 1_555
N7_2 N6_2 1_555 1_555
H16_2 N7_2 1_555 1_555
N8_2 C16_2 1_555 1_555
C16_2 H17_2 1_555 1_555
C17_2 C16_2 1_555 1_555
H18_2 C17_2 1_555 1_555
C18_2 N7_2 1_555 1_555
C19_2 C18_2 1_555 1_555
H19_2 C19_2 1_555 1_555
C20_2 N8_2 1_555 1_555
H20_2 C20_2 1_555 1_555
Zn6_2 N8_2 1_555 1_555
Zn9 O13_2 1_555 1_555
O12_2 C71_2 1_555 1_555
O13_2 C71_2 1_555 1_555
O14_2 Zn6_2 1_555 1_555
C71_2 C73_2 1_555 1_555
C72_2 H56_2 1_555 1_555
C73_2 C72_2 1_555 1_555
C74_2 C73_2 1_555 1_555
H57_2 C74_2 1_555 1_555
H58_2 C76_2 1_555 1_555
C14_2 C15_2 1_555 1_555
C17_2 C18_2 1_555 1_555
C19_2 C20_2 1_555 1_555
C72_2 C76_2 1_555 1_555
C74_2 C75_2 1_555 1_555
H27_2 C35_2 1_555 1_555
C36_2 C35_2 1_555 1_555
H28_2 C36_2 1_555 1_555
C37_2 C36_2 1_555 1_555
C38_2 C37_2 1_555 1_555
H29_2 C38_2 1_555 1_555
C39_2 C38_2 1_555 1_555
C40_2 C39_2 1_555 1_555
H30_2 C40_2 1_555 1_555
C42_2 C37_2 1_555 1_555
C44_2 C39_2 1_555 1_555
O7 C44_2 1_555 1_555
O8 C44_2 1_555 1_555
Zn4 O7 1_555 1_555
O8 Zn4 1_555 1_555
Zn4 N13_2 1_555 1_555
Zn8 N11_2 1_555 1_555
N9_2 H33_2 1_555 1_555
N10_2 N9_2 1_555 1_555
H34_2 N10_2 1_555 1_555
N11_2 C45_2 1_555 1_555
C45_2 H35_2 1_555 1_555
C46_2 C45_2 1_555 1_555
H36_2 C46_2 1_555 1_555
C47_2 N9_2 1_555 1_555
C48_2 C47_2 1_555 1_555
H37_2 C48_2 1_555 1_555
C49_2 N11_2 1_555 1_555
H38_2 C49_2 1_555 1_555
N13_2 C50_2 1_555 1_555
C50_2 H39_2 1_555 1_555
C51_2 C50_2 1_555 1_555
H40_2 C51_2 1_555 1_555
C52_2 N10_2 1_555 1_555
C53_2 C52_2 1_555 1_555
H41_2 C53_2 1_555 1_555
C54_2 N13_2 1_555 1_555
H42_2 C54_2 1_555 1_555
N15_2 Zn4 1_555 1_555
O15_2 Zn4 1_555 1_555
O16_2 C77_2 1_555 1_555
C77_2 O15_2 1_555 1_555
C78_2 C77_2 1_555 1_555
H63_2 C85_2 1_555 1_555
C87_2 C78_2 1_555 1_555
H64_2 C87_2 1_555 1_555
C46_2 C47_2 1_555 1_555
C48_2 C49_2 1_555 1_555
C51_2 C52_2 1_555 1_555
C53_2 C54_2 1_555 1_555
Zn1_2 N4_2 1_555 1_555
Zn2_2 N3_2 1_555 1_555
N1_2 H1_2 1_555 1_555
N2_2 N1_2 1_555 1_555
N3_2 C1_2 1_555 1_555
C1_2 H3_2 1_555 1_555
C2_2 C1_2 1_555 1_555
H4_2 C2_2 1_555 1_555
C3_2 N1_2 1_555 1_555
C4_2 C3_2 1_555 1_555
H5_2 C4_2 1_555 1_555
C5_2 N3_2 1_555 1_555
H6_2 C5_2 1_555 1_555
N4_2 C6_2 1_555 1_555
C6_2 H7_2 1_555 1_555
C7_2 C6_2 1_555 1_555
H8_2 C7_2 1_555 1_555
C8_2 N2_2 1_555 1_555
N5_2 Zn1_2 1_555 1_555
C11_2 N5_2 1_555 1_555
H11_2 C11_2 1_555 1_555
O1_2 Zn2_2 1_555 1_555
O2_2 C21_2 1_555 1_555
C21_2 O1_2 1_555 1_555
C22_2 H21_2 1_555 1_555
C23_2 C21_2 1_555 1_555
C24_2 C23_2 1_555 1_555
H22_2 C24_2 1_555 1_555
C25_2 C24_2 1_555 1_555
C26_2 C22_2 1_555 1_555
H23_2 C26_2 1_555 1_555
O3_2 C27_2 1_555 1_555
O4_2 Zn2_2 1_555 1_555
C27_2 O4_2 1_555 1_555
C28_2 H24_2 1_555 1_555
C29_2 C27_2 1_555 1_555
C30_2 C29_2 1_555 1_555
H25_2 C30_2 1_555 1_555
C31_2 C30_2 1_555 1_555
C32_2 C28_2 1_555 1_555
H26_2 C32_2 1_555 1_555
O5_2 Zn1_2 1_555 1_555
O6_2 C33_2 1_555 1_555
C33_2 O5_2 1_555 1_555
C34_2 C33_2 1_555 1_555
H31_2 C41_2 1_555 1_555
C43_2 C34_2 1_555 1_555
H32_2 C43_2 1_555 1_555
Zn5_2 N14_2 1_555 1_555
N14_2 C55_2 1_555 1_555
C55_2 H43_2 1_555 1_555
C56_2 C55_2 1_555 1_555
H44_2 C56_2 1_555 1_555
C57_2 C56_2 1_555 1_555
C58_2 C57_2 1_555 1_555
H45_2 C58_2 1_555 1_555
C59_2 N14_2 1_555 1_555
H46_2 C59_2 1_555 1_555
N16_2 C57_2 1_555 1_555
H47_2 N16_2 1_555 1_555
N17_2 N16_2 1_555 1_555
H48_2 N17_2 1_555 1_555
N18_2 Zn2_2 1_555 1_555
C60_2 N18_2 1_555 1_555
H49_2 C60_2 1_555 1_555
C61_2 C60_2 1_555 1_555
H50_2 C61_2 1_555 1_555
C62_2 N17_2 1_555 1_555
C63_2 C62_2 1_555 1_555
H51_2 C63_2 1_555 1_555
C64_2 N18_2 1_555 1_555
H52_2 C64_2 1_555 1_555
O9_2 C65_2 1_555 1_555
O11_2 C65_2 1_555 1_555
C65_2 C67_2 1_555 1_555
C66_2 H53_2 1_555 1_555
C67_2 C66_2 1_555 1_555
C68_2 C67_2 1_555 1_555
H54_2 C68_2 1_555 1_555
C69_2 C25_2 1_555 1_555
C70_2 C25_2 1_555 1_555
H55_2 C70_2 1_555 1_555
C2_2 C3_2 1_555 1_555
C4_2 C5_2 1_555 1_555
C7_2 C8_2 1_555 1_555
C22_2 C23_2 1_555 1_555
C26_2 C69_2 1_555 1_555
C28_2 C29_2 1_555 1_555
C58_2 C59_2 1_555 1_555
C61_2 C62_2 1_555 1_555
C63_2 C64_2 1_555 1_555
C66_2 C70_2 1_555 1_555
C68_2 C69_2 1_555 1_555
H9_2 C9_2 1_555 1_555
H10_2 C10_2 1_555 1_555
H59_2 C79_2 1_555 1_555
C80_2 C79_2 1_555 1_555
H60_2 C80_2 1_555 1_555
C81_2 C80_2 1_555 1_555
C82_2 C81_2 1_555 1_555
H61_2 C82_2 1_555 1_555
C83_2 C82_2 1_555 1_555
C84_2 C83_2 1_555 1_555
H62_2 C84_2 1_555 1_555
C86_2 C81_2 1_555 1_555
C88_2 C83_2 1_555 1_555
C9_2 C10_2 1_555 1_555
C88_2 O17_2 1_555 1_555
C88_2 O19_2 1_555 1_555
H41_3 C53_3 1_555 1_555
H42_3 C54_3 1_555 1_555
C53_3 C54_3 1_555 1_555
Zn5 N4_3 1_555 1_555
N1_3 H1_3 1_555 1_555
N2_3 N1_3 1_555 1_555
H2_3 N2_3 1_555 1_555
N12 C1_3 1_555 1_555
C2_3 C1_3 1_555 1_555
H4_3 C2_3 1_555 1_555
C3_3 N1_3 1_555 1_555
C4_3 C3_3 1_555 1_555
H5_3 C4_3 1_555 1_555
C5_3 N12 1_555 1_555
H6_3 C5_3 1_555 1_555
N4_3 C6_3 1_555 1_555
C6_3 H7_3 1_555 1_555
C7_3 C6_3 1_555 1_555
H8_3 C7_3 1_555 1_555
C8_3 N2_3 1_555 1_555
C9_3 C8_3 1_555 1_555
H9_3 C9_3 1_555 1_555
C10_3 N4_3 1_555 1_555
H10_3 C10_3 1_555 1_555
O2_3 C21_3 1_555 1_555
C21_3 O10 1_555 1_555
C22_3 H21_3 1_555 1_555
C23_3 C21_3 1_555 1_555
C24_3 C23_3 1_555 1_555
C26_3 C22_3 1_555 1_555
H23_3 C26_3 1_555 1_555
O3_3 C27_3 1_555 1_555
H25_3 C30_3 1_555 1_555
C31_3 C30_3 1_555 1_555
O5_3 Zn5 1_555 1_555
O6_3 C33_3 1_555 1_555
C33_3 O5_3 1_555 1_555
C34_3 C33_3 1_555 1_555
C35_3 C34_3 1_555 1_555
H27_3 C35_3 1_555 1_555
C36_3 C35_3 1_555 1_555
H28_3 C36_3 1_555 1_555
C37_3 C36_3 1_555 1_555
C38_3 C37_3 1_555 1_555
H29_3 C38_3 1_555 1_555
C39_3 C38_3 1_555 1_555
C40_3 C39_3 1_555 1_555
H30_3 C40_3 1_555 1_555
C41_3 C40_3 1_555 1_555
H31_3 C41_3 1_555 1_555
C42_3 C37_3 1_555 1_555
C43_3 C34_3 1_555 1_555
H32_3 C43_3 1_555 1_555
C44_3 C39_3 1_555 1_555
O18_2 C44_3 1_555 1_555
O20_2 C44_3 1_555 1_555
Zn3_2 N13_3 1_555 1_555
N9_3 H33_3 1_555 1_555
N10_3 N9_3 1_555 1_555
N11_3 C45_3 1_555 1_555
C46_3 C45_3 1_555 1_555
H36_3 C46_3 1_555 1_555
C47_3 N9_3 1_555 1_555
C48_3 C47_3 1_555 1_555
H37_3 C48_3 1_555 1_555
C49_3 N11_3 1_555 1_555
H38_3 C49_3 1_555 1_555
N13_3 C50_3 1_555 1_555
C50_3 H39_3 1_555 1_555
C51_3 C50_3 1_555 1_555
H40_3 C51_3 1_555 1_555
C52_3 N10_3 1_555 1_555
N15_3 Zn3_2 1_555 1_555
O15_3 Zn3_2 1_555 1_555
O16_3 C77_3 1_555 1_555
C77_3 O15_3 1_555 1_555
C78_3 C77_3 1_555 1_555
C79_3 C78_3 1_555 1_555
H59_3 C79_3 1_555 1_555
C80_3 C79_3 1_555 1_555
H60_3 C80_3 1_555 1_555
C81_3 C80_3 1_555 1_555
C82_3 C81_3 1_555 1_555
H61_3 C82_3 1_555 1_555
C83_3 C82_3 1_555 1_555
C84_3 C83_3 1_555 1_555
H62_3 C84_3 1_555 1_555
C85_3 C84_3 1_555 1_555
H63_3 C85_3 1_555 1_555
C86_3 C81_3 1_555 1_555
C87_3 C78_3 1_555 1_555
H64_3 C87_3 1_555 1_555
C88_3 C83_3 1_555 1_555
O17_3 Zn5 1_555 1_555
O19_3 Zn5 1_555 1_555
C2_3 C3_3 1_555 1_555
C4_3 C5_3 1_555 1_555
C7_3 C8_3 1_555 1_555
C9_3 C10_3 1_555 1_555
C22_3 C23_3 1_555 1_555
C26_3 C69_3 1_555 1_555
C41_3 C42_3 1_555 1_555
C42_3 C43_3 1_555 1_555
C46_3 C47_3 1_555 1_555
C48_3 C49_3 1_555 1_555
C51_3 C52_3 1_555 1_555
C85_3 C86_3 1_555 1_555
C86_3 C87_3 1_555 1_555
C88_3 O17_3 1_555 1_555
C88_3 O19_3 1_555 1_555
Zn8 O9_3 1_555 1_555
Zn7 O13_3 1_555 1_555
O9_3 C65_3 1_555 1_555
O11_3 C65_3 1_555 1_555
C65_3 C67_3 1_555 1_555
C66_3 H53_3 1_555 1_555
C67_3 C66_3 1_555 1_555
C68_3 C67_3 1_555 1_555
C70_3 C25_3 1_555 1_555
H55_3 C70_3 1_555 1_555
C72_3 H56_3 1_555 1_555
C73_3 C72_3 1_555 1_555
H58_3 C76_3 1_555 1_555
C66_3 C70_3 1_555 1_555
C72_3 C76_3 1_555 1_555
C28_3 H24_3 1_555 1_555
C32_3 C28_3 1_555 1_555
H26_3 C32_3 1_555 1_555
C28_3 C29_3 1_555 1_555
O12_3 C71_3 1_555 1_555
H57_3 C74_3 1_555 1_555
C74_3 C75_3 1_555 1_555
Zn5_2 N4_4 1_555 1_555
N1_4 H1_4 1_555 1_555
N2_4 N1_4 1_555 1_555
N12_2 C1_4 1_555 1_555
C2_4 C1_4 1_555 1_555
H4_4 C2_4 1_555 1_555
C3_4 N1_4 1_555 1_555
C4_4 C3_4 1_555 1_555
H5_4 C4_4 1_555 1_555
C5_4 N12_2 1_555 1_555
H6_4 C5_4 1_555 1_555
N4_4 C6_4 1_555 1_555
C6_4 H7_4 1_555 1_555
C7_4 C6_4 1_555 1_555
H8_4 C7_4 1_555 1_555
C8_4 N2_4 1_555 1_555
O2_4 C21_4 1_555 1_555
C21_4 O10_2 1_555 1_555
C22_4 H21_4 1_555 1_555
C23_4 C21_4 1_555 1_555
C24_4 C23_4 1_555 1_555
H22_4 C24_4 1_555 1_555
C25_4 C24_4 1_555 1_555
C26_4 C22_4 1_555 1_555
H23_4 C26_4 1_555 1_555
O3_4 C27_4 1_555 1_555
H25_4 C30_4 1_555 1_555
C31_4 C30_4 1_555 1_555
O5_4 Zn5_2 1_555 1_555
O6_4 C33_4 1_555 1_555
C33_4 O5_4 1_555 1_555
C34_4 C33_4 1_555 1_555
C35_4 C34_4 1_555 1_555
H27_4 C35_4 1_555 1_555
C36_4 C35_4 1_555 1_555
H28_4 C36_4 1_555 1_555
C37_4 C36_4 1_555 1_555
C38_4 C37_4 1_555 1_555
H29_4 C38_4 1_555 1_555
C39_4 C38_4 1_555 1_555
C40_4 C39_4 1_555 1_555
H30_4 C40_4 1_555 1_555
C41_4 C40_4 1_555 1_555
H31_4 C41_4 1_555 1_555
C42_4 C37_4 1_555 1_555
C43_4 C34_4 1_555 1_555
H32_4 C43_4 1_555 1_555
C44_4 C39_4 1_555 1_555
O7_2 C44_4 1_555 1_555
O8_2 C44_4 1_555 1_555
Zn4_2 O7_2 1_555 1_555
Zn9 O9_4 1_555 1_555
Zn7_2 O13_4 1_555 1_555
O9_4 C65_4 1_555 1_555
O11_4 C65_4 1_555 1_555
C65_4 C67_4 1_555 1_555
C66_4 H53_4 1_555 1_555
C67_4 C66_4 1_555 1_555
C68_4 C67_4 1_555 1_555
H54_4 C68_4 1_555 1_555
C69_4 C25_4 1_555 1_555
C70_4 C25_4 1_555 1_555
H55_4 C70_4 1_555 1_555
C72_4 H56_4 1_555 1_555
C73_4 C72_4 1_555 1_555
C76_4 C31_4 1_555 1_555
H58_4 C76_4 1_555 1_555
C2_4 C3_4 1_555 1_555
C4_4 C5_4 1_555 1_555
C7_4 C8_4 1_555 1_555
C22_4 C23_4 1_555 1_555
C26_4 C69_4 1_555 1_555
C41_4 C42_4 1_555 1_555
C42_4 C43_4 1_555 1_555
O8_2 Zn4_2 1_555 1_555
C66_4 C70_4 1_555 1_555
C68_4 C69_4 1_555 1_555
C72_4 C76_4 1_555 1_555
H9_4 C9_4 1_555 1_555
H10_4 C10_4 1_555 1_555
Zn4_2 N13_4 1_555 1_555
N9_4 H33_4 1_555 1_555
N10_4 N9_4 1_555 1_555
H34_4 N10_4 1_555 1_555
N11_4 C45_4 1_555 1_555
C46_4 C45_4 1_555 1_555
H36_4 C46_4 1_555 1_555
C47_4 N9_4 1_555 1_555
C48_4 C47_4 1_555 1_555
H37_4 C48_4 1_555 1_555
C49_4 N11_4 1_555 1_555
H38_4 C49_4 1_555 1_555
N13_4 C50_4 1_555 1_555
C50_4 H39_4 1_555 1_555
C51_4 C50_4 1_555 1_555
H40_4 C51_4 1_555 1_555
C52_4 N10_4 1_555 1_555
C53_4 C52_4 1_555 1_555
H41_4 C53_4 1_555 1_555
C54_4 N13_4 1_555 1_555
H42_4 C54_4 1_555 1_555
N15_4 Zn4_2 1_555 1_555
O15_4 Zn4_2 1_555 1_555
O16_4 C77_4 1_555 1_555
C77_4 O15_4 1_555 1_555
C78_4 C77_4 1_555 1_555
C79_4 C78_4 1_555 1_555
H59_4 C79_4 1_555 1_555
C80_4 C79_4 1_555 1_555
H60_4 C80_4 1_555 1_555
C81_4 C80_4 1_555 1_555
C82_4 C81_4 1_555 1_555
H61_4 C82_4 1_555 1_555
C83_4 C82_4 1_555 1_555
C84_4 C83_4 1_555 1_555
H62_4 C84_4 1_555 1_555
C85_4 C84_4 1_555 1_555
H63_4 C85_4 1_555 1_555
C86_4 C81_4 1_555 1_555
C87_4 C78_4 1_555 1_555
H64_4 C87_4 1_555 1_555
C88_4 C83_4 1_555 1_555
C9_4 C10_4 1_555 1_555
C46_4 C47_4 1_555 1_555
C48_4 C49_4 1_555 1_555
C51_4 C52_4 1_555 1_555
C53_4 C54_4 1_555 1_555
C85_4 C86_4 1_555 1_555
C86_4 C87_4 1_555 1_555
C88_4 O17_4 1_555 1_555
C88_4 O19_4 1_555 1_555
C28_4 H24_4 1_555 1_555
C32_4 C28_4 1_555 1_555
H26_4 C32_4 1_555 1_555
O12_4 C71_4 1_555 1_555
H57_4 C74_4 1_555 1_555
C28_4 C29_4 1_555 1_555
C32_4 C75_4 1_555 1_555
C74_4 C75_4 1_555 1_555
H12_3 C12_3 1_555 1_555
C13_3 C12_3 1_555 1_555
C14_3 C13_3 1_555 1_555
H13_3 C14_3 1_555 1_555
H14_3 C15_3 1_555 1_555
N6_3 C13_3 1_555 1_555
H15_3 N6_3 1_555 1_555
N7_3 N6_3 1_555 1_555
H16_3 N7_3 1_555 1_555
N8_3 C16_3 1_555 1_555
C16_3 H17_3 1_555 1_555
C17_3 C16_3 1_555 1_555
H18_3 C17_3 1_555 1_555
C18_3 N7_3 1_555 1_555
C19_3 C18_3 1_555 1_555
H19_3 C19_3 1_555 1_555
C20_3 N8_3 1_555 1_555
H20_3 C20_3 1_555 1_555
Zn7 N8_3 1_555 1_555
C14_3 C15_3 1_555 1_555
C17_3 C18_3 1_555 1_555
C19_3 C20_3 1_555 1_555
C11_3 N15_2 1_555 1_555
H11_3 C11_3 1_555 1_555
N15_4 C55_3 1_555 1_555
C55_3 H43_3 1_555 1_555
C56_3 C55_3 1_555 1_555
H44_3 C56_3 1_555 1_555
C57_3 C56_3 1_555 1_555
C58_3 C57_3 1_555 1_555
H45_3 C58_3 1_555 1_555
C59_3 N15_4 1_555 1_555
H46_3 C59_3 1_555 1_555
N16_3 C57_3 1_555 1_555
H47_3 N16_3 1_555 1_555
N17_3 N16_3 1_555 1_555
H48_3 N17_3 1_555 1_555
N18_3 Zn8 1_555 1_555
C60_3 N18_3 1_555 1_555
H49_3 C60_3 1_555 1_555
C61_3 C60_3 1_555 1_555
H50_3 C61_3 1_555 1_555
C62_3 N17_3 1_555 1_555
C63_3 C62_3 1_555 1_555
H51_3 C63_3 1_555 1_555
C64_3 N18_3 1_555 1_555
H52_3 C64_3 1_555 1_555
C58_3 C59_3 1_555 1_555
C61_3 C62_3 1_555 1_555
C63_3 C64_3 1_555 1_555
C11_4 N15 1_555 1_555
H11_4 C11_4 1_555 1_555
N15_3 C55_4 1_555 1_555
C55_4 H43_4 1_555 1_555
C56_4 C55_4 1_555 1_555
H44_4 C56_4 1_555 1_555
C57_4 C56_4 1_555 1_555
C58_4 C57_4 1_555 1_555
H45_4 C58_4 1_555 1_555
C59_4 N15_3 1_555 1_555
H46_4 C59_4 1_555 1_555
N16_4 C57_4 1_555 1_555
H47_4 N16_4 1_555 1_555
N17_4 N16_4 1_555 1_555
H48_4 N17_4 1_555 1_555
N18_4 Zn9 1_555 1_555
C60_4 N18_4 1_555 1_555
H49_4 C60_4 1_555 1_555
C61_4 C60_4 1_555 1_555
H50_4 C61_4 1_555 1_555
C62_4 N17_4 1_555 1_555
C63_4 C62_4 1_555 1_555
H51_4 C63_4 1_555 1_555
C64_4 N18_4 1_555 1_555
H52_4 C64_4 1_555 1_555
C58_4 C59_4 1_555 1_555
C61_4 C62_4 1_555 1_555
C63_4 C64_4 1_555 1_555
H12_4 C12_4 1_555 1_555
C13_4 C12_4 1_555 1_555
C14_4 C13_4 1_555 1_555
H13_4 C14_4 1_555 1_555
H14_4 C15_4 1_555 1_555
N6_4 C13_4 1_555 1_555
H15_4 N6_4 1_555 1_555
N7_4 N6_4 1_555 1_555
H16_4 N7_4 1_555 1_555
N8_4 C16_4 1_555 1_555
C16_4 H17_4 1_555 1_555
C17_4 C16_4 1_555 1_555
H18_4 C17_4 1_555 1_555
C18_4 N7_4 1_555 1_555
C19_4 C18_4 1_555 1_555
H19_4 C19_4 1_555 1_555
C20_4 N8_4 1_555 1_555
H20_4 C20_4 1_555 1_555
Zn7_2 N8_4 1_555 1_555
C14_4 C15_4 1_555 1_555
C17_4 C18_4 1_555 1_555
C19_4 C20_4 1_555 1_555

#END
