
###############################################################################
#
# This file contains modified crystal structure data generated from the
# MOF subset of the Cambridge Structural Database (CSD) v543 
# hosted by the Cambridge Crystallographic Data Centre (CCDC).
#
# This work is licensed under the Creative Commons
# Attribution-NonCommercial-ShareAlike 4.0 International License.
# To view a copy of this license, visit
# http://creativecommons.org/licenses/by-nc-sa/4.0/
# or send a letter to
# Creative Commons, PO Box 1866, Mountain View, CA 94042, USA.
#
# CIF created using the CSD Python API on 29 September 2022
# The structure has been converted into the P1 space group
# The structure has a 3D framework
# The original CSD entry VANHEA is in the monoclinic crystal system
# The framework has been calculated to contain at least 10.0% void space
# The void calculation uses a probe of radius 1.32A, grid spacing 0.4
#
###############################################################################

data_VANHEA
_chemical_formula_moiety         '(C296 H216 N16 O52 Zn10)n'
_symmetry_cell_setting           triclinic
_symmetry_space_group_name_H-M   'P 1'
_symmetry_Int_Tables_number      1
_space_group_name_Hall           'P 1'
loop_
_symmetry_equiv_pos_site_id
_symmetry_equiv_pos_as_xyz
1 x,y,z
_cell_length_a                   30.057(6)
_cell_length_b                   16.187(3)
_cell_length_c                   21.894(4)
_cell_angle_alpha                90
_cell_angle_beta                 114.478(3)
_cell_angle_gamma                90
_cell_volume                     9694.74
loop_
_atom_site_label
_atom_site_type_symbol
_atom_site_fract_x
_atom_site_fract_y
_atom_site_fract_z
O3 O 0.18156(11) 0.07630(17) 0.37863(11)
O4 O 0.23874(11) 0.17035(15) 0.41953(10)
C8 C 0.04619(9) 0.36007(16) 0.02401(12)
C9 C 0.06695(10) 0.31479(17) 0.08354(12)
H5 H 0.0476 0.2818 0.0976
C10 C 0.11695(9) 0.32004(16) 0.12113(11)
C11 C 0.14536(10) 0.37267(18) 0.09991(12)
H6 H 0.1789 0.3763 0.1256
C12 C 0.12424(10) 0.41886(18) 0.04170(12)
H7 H 0.1434 0.4535 0.0285
C13 C 0.07421(9) 0.41301(16) 0.00306(11)
C20 C 0.14030(10) 0.27133(17) 0.18449(11)
C21 C 0.11941(13) 0.19857(19) 0.19353(13)
H11 H 0.0912 0.1786 0.1589
C22 C 0.13993(13) 0.15518(19) 0.25331(14)
H12 H 0.1253 0.1066 0.2585
C23 C 0.18238(11) 0.18391(18) 0.30585(12)
C24 C 0.20340(12) 0.25410(18) 0.29680(13)
H13 H 0.2319 0.2732 0.3314
C25 C 0.18331(11) 0.29829(19) 0.23687(12)
H14 H 0.1987 0.3460 0.2317
C26 C 0.20199(14) 0.1409(2) 0.37243(13)
Zn3 Zn 0.298416(11) 0.451484(17) 0.525630(13)
O9 O 0.19373(12) 0.8012(2) 0.0165(2)
O12 O 0.23347(8) 0.46332(12) 0.45356(10)
O13 O 0.20304(9) 0.33395(13) 0.43842(10)
O14 O 0.31839(11) 0.56989(14) 0.53123(13)
N3 N 0.00291(8) 0.63576(15) 0.02191(10)
N4 N 0.3319(3) 0.7026(3) 0.5515(3)
C38 C 0.15537(11) 0.8325(2) 0.00898(16)
C39 C 0.11632(10) 0.78121(17) 0.01512(13)
C40 C 0.07309(11) 0.81651(18) 0.00952(16)
H28 H 0.0689 0.8733 0.0037
C41 C 0.03610(11) 0.76899(19) 0.01244(16)
H29 H 0.0072 0.7938 0.0087
C42 C 0.04173(9) 0.68446(17) 0.02090(11)
C43 C 0.08505(10) 0.64825(17) 0.02715(14)
H30 H 0.0892 0.5914 0.0330
C44 C 0.12214(10) 0.69634(18) 0.02478(14)
H31 H 0.1514 0.6717 0.0297
C54 C 0.04041(9) 0.50233(16) 0.17435(11)
C55 C 0.04682(10) 0.55773(17) 0.13030(12)
H37 H 0.0775 0.5795 0.1390
C56 C 0.00619(9) 0.57976(17) 0.07281(12)
C64 C 0.08230(9) 0.47923(17) 0.23840(11)
C65 C 0.08533(10) 0.39985(16) 0.26456(12)
H42 H 0.0614 0.3610 0.2415
C66 C 0.12372(10) 0.37821(16) 0.32475(12)
H43 H 0.1253 0.3251 0.3417
C67 C 0.15961(9) 0.43492(16) 0.35970(11)
C68 C 0.15672(10) 0.51413(17) 0.33489(13)
H44 H 0.1806 0.5528 0.3584
C69 C 0.11804(11) 0.53620(17) 0.27458(14)
H45 H 0.1162 0.5898 0.2584
C70 C 0.20243(10) 0.40812(16) 0.42231(12)
C71 C 0.2737(4) 0.6220(7) 0.5851(6)
H46 H 0.2866 0.6467 0.6288
H47 H 0.2439 0.6494 0.5568
H48 H 0.2672 0.5645 0.5887
C72 C 0.3111(3) 0.6303(3) 0.5543(3)
C73 C 0.3620(3) 0.7053(6) 0.5188(5)
H49 H 0.3454 0.7321 0.4762
H50 H 0.3910 0.7357 0.5454
H51 H 0.3706 0.6501 0.5120
C74 C 0.3302(5) 0.7791(7) 0.5828(6)
H52 H 0.3610 0.8069 0.5963
H53 H 0.3047 0.8131 0.5516
H54 H 0.3236 0.7687 0.6215
Zn4 Zn 0.2500 0.7500 0.0000
Zn5 Zn 0.2500 0.2500 0.5000
Zn7 Zn 0.201584(11) 0.048516(17) 0.474370(13)
O16 O 0.35120(9) 0.40750(16) 0.50273(13)
O20 O 0.31844(11) 0.42370(17) 0.62137(11)
C14 C 0.04083(10) 0.45131(15) 0.94146(12)
C15 C 0.04661(10) 0.50795(18) 0.89724(12)
H8 H 0.0772 0.5298 0.9057
C16 C 0.00596(10) 0.53107(18) 0.84067(13)
H9 H 0.0095 0.5699 0.8117
O8 O 0.14880(9) 0.90750(16) 0.99727(13)
Zn4_2 Zn 0.2500 0.7500 1.0000
Zn10 Zn 0.201584(11) 0.951484(17) 0.974370(13)
O1 O 0.85120(9) 0.09250(16) 0.00273(13)
C51 C 0.95917(10) 0.54869(15) 0.05854(12)
C52 C 0.95339(10) 0.49205(18) 0.10276(12)
H35 H 0.9228 0.4702 0.0943
C53 C 0.99404(10) 0.46893(18) 0.15933(13)
H36 H 0.9905 0.4301 0.1883
Zn6 Zn 0.7500 0.2500 0.0000
Zn8 Zn 0.798416(11) 0.048516(17) 0.025630(13)
Zn1 Zn 0.7500 0.7500 0.5000
Zn2 Zn 0.701584(11) 0.548516(17) 0.474370(13)
O2 O 0.80627(12) 0.1988(2) 0.9835(2)
O5 O 0.76653(8) 0.53668(12) 0.54644(10)
O6 O 0.79696(9) 0.66605(13) 0.56158(10)
O7 O 0.68161(11) 0.43011(14) 0.46877(13)
N1 N 0.99709(8) 0.36424(15) 0.97809(10)
N2 N 0.6681(3) 0.2974(3) 0.4485(3)
C1 C 0.84463(11) 0.1675(2) 0.99102(16)
C2 C 0.88368(10) 0.21879(17) 0.98488(13)
C3 C 0.92691(11) 0.18349(18) 0.99048(16)
H1 H 0.9311 0.1267 0.9963
C4 C 0.96390(11) 0.23101(19) 0.98756(16)
H2 H 0.9928 0.2062 0.9913
C5 C 0.95827(9) 0.31554(17) 0.97910(11)
C6 C 0.91495(10) 0.35175(17) 0.97285(14)
H3 H 0.9108 0.4086 0.9670
C7 C 0.87786(10) 0.30366(18) 0.97522(14)
H4 H 0.8486 0.3283 0.9703
C17 C 0.95959(9) 0.49767(16) 0.82565(11)
C18 C 0.95318(10) 0.44227(17) 0.86970(12)
H10 H 0.9225 0.4205 0.8610
C19 C 0.99381(9) 0.42024(17) 0.92719(12)
C27 C 0.91770(9) 0.52077(17) 0.76160(11)
C28 C 0.91467(10) 0.60015(16) 0.73544(12)
H15 H 0.9386 0.6390 0.7585
C29 C 0.87628(10) 0.62179(16) 0.67525(12)
H16 H 0.8747 0.6749 0.6583
C30 C 0.84039(9) 0.56508(16) 0.64030(11)
C31 C 0.84328(10) 0.48587(17) 0.66511(13)
H17 H 0.8194 0.4472 0.6416
C32 C 0.88196(11) 0.46380(17) 0.72542(14)
H18 H 0.8838 0.4102 0.7416
C33 C 0.79757(10) 0.59188(16) 0.57769(12)
C34 C 0.7263(4) 0.3780(7) 0.4149(6)
H19 H 0.7134 0.3533 0.3712
H20 H 0.7561 0.3506 0.4432
H21 H 0.7328 0.4355 0.4113
C35 C 0.6889(3) 0.3697(3) 0.4457(3)
C36 C 0.6380(3) 0.2947(6) 0.4812(5)
H22 H 0.6546 0.2679 0.5238
H23 H 0.6090 0.2643 0.4546
H24 H 0.6294 0.3499 0.4880
C37 C 0.6698(5) 0.2209(7) 0.4172(6)
H25 H 0.6390 0.1931 0.4037
H26 H 0.6953 0.1869 0.4484
H27 H 0.6764 0.2313 0.3785
O10 O 0.81844(11) 0.92370(17) 0.62137(11)
O11 O 0.76126(11) 0.82965(15) 0.58047(10)
C45 C 0.95381(9) 0.63993(16) 0.97599(12)
C46 C 0.93305(10) 0.68521(17) 0.91646(12)
H32 H 0.9524 0.7182 0.9024
C47 C 0.88305(9) 0.67996(16) 0.87887(11)
C48 C 0.85464(10) 0.62733(18) 0.90009(12)
H33 H 0.8211 0.6237 0.8744
C49 C 0.87576(10) 0.58114(18) 0.95830(12)
H34 H 0.8566 0.5465 0.9715
C50 C 0.92579(9) 0.58699(16) 0.99694(11)
C57 C 0.85970(10) 0.72867(17) 0.81551(11)
C58 C 0.88059(13) 0.80143(19) 0.80647(13)
H38 H 0.9088 0.8214 0.8411
C59 C 0.86007(13) 0.84482(19) 0.74669(14)
H39 H 0.8747 0.8934 0.7415
C60 C 0.81762(11) 0.81609(18) 0.69415(12)
C61 C 0.79660(12) 0.74590(18) 0.70320(13)
H40 H 0.7681 0.7268 0.6686
C62 C 0.81669(11) 0.70171(19) 0.76313(12)
H41 H 0.8013 0.6540 0.7683
C63 C 0.79801(14) 0.8591(2) 0.62757(13)
Zn6_2 Zn 0.7500 0.2500 1.0000
Zn9 Zn 0.798416(11) 0.951484(17) 0.525630(13)
O15 O 0.64880(9) 0.59250(16) 0.49727(13)
O17 O 0.69373(12) 0.6988(2) 0.5165(2)
O18 O 0.80627(12) 0.8012(2) 0.4835(2)
O19 O 0.68156(11) 0.57630(17) 0.37863(11)
O21 O 0.73874(11) 0.67035(15) 0.41953(10)
O22 O 0.70304(9) 0.83395(13) 0.43842(10)
Zn2_2 Zn 0.298416(11) 0.548516(17) 0.025630(13)
O7_2 O 0.31839(11) 0.43011(14) 0.03123(13)
N2_2 N 0.3319(3) 0.2974(3) 0.0515(3)
C34_2 C 0.2737(4) 0.3780(7) 0.0851(6)
H19_2 H 0.2866 0.3533 0.1288
H20_2 H 0.2439 0.3506 0.0568
H21_2 H 0.2672 0.4355 0.0887
C35_2 C 0.3111(3) 0.3697(3) 0.0543(3)
C36_2 C 0.3620(3) 0.2947(6) 0.0188(5)
H23_2 H 0.3910 0.2643 0.0454
H24_2 H 0.3706 0.3499 0.0120
C37_2 C 0.3302(5) 0.2209(7) 0.0828(6)
H25_2 H 0.3610 0.1931 0.0963
H26_2 H 0.3047 0.1869 0.0516
H27_2 H 0.3236 0.2313 0.1215
O15_2 O 0.35120(9) 0.59250(16) 0.00273(13)
O19_2 O 0.31844(11) 0.57630(17) 0.12137(11)
O21_2 O 0.26126(11) 0.67035(15) 0.08047(10)
O22_2 O 0.29696(9) 0.83395(13) 0.06158(10)
O1_2 O 0.14880(9) 0.09250(16) 0.49727(13)
O2_2 O 0.19373(12) 0.1988(2) 0.5165(2)
O5_2 O 0.23347(8) 0.53668(12) 0.95356(10)
O6_2 O 0.20304(9) 0.66605(13) 0.93842(10)
N1_2 N 0.00291(8) 0.36424(15) 0.52191(10)
C1_2 C 0.15537(11) 0.1675(2) 0.50898(16)
C2_2 C 0.11632(10) 0.21879(17) 0.51512(13)
C3_2 C 0.07309(11) 0.18349(18) 0.50952(16)
H1_2 H 0.0689 0.1267 0.5037
C4_2 C 0.03610(11) 0.23101(19) 0.51244(16)
H2_2 H 0.0072 0.2062 0.5087
C5_2 C 0.04173(9) 0.31554(17) 0.52090(11)
C6_2 C 0.08505(10) 0.35175(17) 0.52715(14)
H3_2 H 0.0892 0.4086 0.5330
C7_2 C 0.12214(10) 0.30366(18) 0.52478(14)
H4_2 H 0.1514 0.3283 0.5297
C17_2 C 0.04041(9) 0.49767(16) 0.67435(11)
C18_2 C 0.04682(10) 0.44227(17) 0.63030(12)
H10_2 H 0.0775 0.4205 0.6390
C19_2 C 0.00619(9) 0.42024(17) 0.57281(12)
C27_2 C 0.08230(9) 0.52077(17) 0.73840(11)
C28_2 C 0.08533(10) 0.60015(16) 0.76456(12)
H15_2 H 0.0614 0.6390 0.7415
C29_2 C 0.12372(10) 0.62179(16) 0.82475(12)
H16_2 H 0.1253 0.6749 0.8417
C30_2 C 0.15961(9) 0.56508(16) 0.85970(11)
C31_2 C 0.15672(10) 0.48587(17) 0.83489(13)
H17_2 H 0.1806 0.4472 0.8584
C32_2 C 0.11804(11) 0.46380(17) 0.77458(14)
H18_2 H 0.1162 0.4102 0.7584
C33_2 C 0.20243(10) 0.59188(16) 0.92231(12)
H22_2 H 0.3454 0.2679 0.9762
O10_2 O 0.18156(11) 0.92370(17) 0.87863(11)
O11_2 O 0.23874(11) 0.82965(15) 0.91953(10)
C45_2 C 0.04619(9) 0.63993(16) 0.52401(12)
C46_2 C 0.06695(10) 0.68521(17) 0.58354(12)
H32_2 H 0.0476 0.7182 0.5976
C47_2 C 0.11695(9) 0.67996(16) 0.62113(11)
C48_2 C 0.14536(10) 0.62733(18) 0.59991(12)
H33_2 H 0.1789 0.6237 0.6256
C49_2 C 0.12424(10) 0.58114(18) 0.54170(12)
H34_2 H 0.1434 0.5465 0.5285
C50_2 C 0.07421(9) 0.58699(16) 0.50306(11)
C51_2 C 0.04083(10) 0.54869(15) 0.44146(12)
C52_2 C 0.04661(10) 0.49205(18) 0.39724(12)
H35_2 H 0.0772 0.4702 0.4057
C53_2 C 0.00596(10) 0.46893(18) 0.34067(13)
H36_2 H 0.0095 0.4301 0.3117
C57_2 C 0.14030(10) 0.72867(17) 0.68449(11)
C58_2 C 0.11941(13) 0.80143(19) 0.69353(13)
H38_2 H 0.0912 0.8214 0.6589
C59_2 C 0.13993(13) 0.84482(19) 0.75331(14)
H39_2 H 0.1253 0.8934 0.7585
C60_2 C 0.18238(11) 0.81609(18) 0.80585(12)
C61_2 C 0.20340(12) 0.74590(18) 0.79680(13)
H40_2 H 0.2319 0.7268 0.8314
C62_2 C 0.18331(11) 0.70171(19) 0.73687(12)
H41_2 H 0.1987 0.6540 0.7317
C63_2 C 0.20199(14) 0.8591(2) 0.87243(13)
O17_2 O 0.30627(12) 0.6988(2) 0.9835(2)
O3_2 O 0.81844(11) 0.07630(17) 0.12137(11)
O4_2 O 0.76126(11) 0.17035(15) 0.08047(10)
C8_2 C 0.95381(9) 0.36007(16) 0.47599(12)
C9_2 C 0.93305(10) 0.31479(17) 0.41646(12)
H5_2 H 0.9524 0.2818 0.4024
C10_2 C 0.88305(9) 0.32004(16) 0.37887(11)
C11_2 C 0.85464(10) 0.37267(18) 0.40009(12)
H6_2 H 0.8211 0.3763 0.3744
C12_2 C 0.87576(10) 0.41886(18) 0.45830(12)
H7_2 H 0.8566 0.4535 0.4715
C13_2 C 0.92579(9) 0.41301(16) 0.49694(11)
C14_2 C 0.95917(10) 0.45131(15) 0.55854(12)
C15_2 C 0.95339(10) 0.50795(18) 0.60276(12)
H8_2 H 0.9228 0.5298 0.5943
C16_2 C 0.99404(10) 0.53107(18) 0.65933(13)
H9_2 H 0.9905 0.5699 0.6883
C20_2 C 0.85970(10) 0.27133(17) 0.31551(11)
C21_2 C 0.88059(13) 0.19857(19) 0.30647(13)
H11_2 H 0.9088 0.1786 0.3411
C22_2 C 0.86007(13) 0.15518(19) 0.24669(14)
H12_2 H 0.8747 0.1066 0.2415
C23_2 C 0.81762(11) 0.18391(18) 0.19415(12)
C24_2 C 0.79660(12) 0.25410(18) 0.20320(13)
H13_2 H 0.7681 0.2732 0.1686
C25_2 C 0.81669(11) 0.29829(19) 0.26313(12)
H14_2 H 0.8013 0.3460 0.2683
C26_2 C 0.79801(14) 0.1409(2) 0.12757(13)
O8_2 O 0.85120(9) 0.90750(16) 0.50273(13)
O12_2 O 0.76653(8) 0.46332(12) 0.04644(10)
O13_2 O 0.79696(9) 0.33395(13) 0.06158(10)
N3_2 N 0.99709(8) 0.63576(15) 0.47809(10)
C38_2 C 0.84463(11) 0.8325(2) 0.49102(16)
C39_2 C 0.88368(10) 0.78121(17) 0.48488(13)
C40_2 C 0.92691(11) 0.81651(18) 0.49048(16)
H28_2 H 0.9311 0.8733 0.4963
C41_2 C 0.96390(11) 0.76899(19) 0.48756(16)
H29_2 H 0.9928 0.7938 0.4913
C42_2 C 0.95827(9) 0.68446(17) 0.47910(11)
C43_2 C 0.91495(10) 0.64825(17) 0.47285(14)
H30_2 H 0.9108 0.5914 0.4670
C44_2 C 0.87786(10) 0.69634(18) 0.47522(14)
H31_2 H 0.8486 0.6717 0.4703
C54_2 C 0.95959(9) 0.50233(16) 0.32565(11)
C55_2 C 0.95318(10) 0.55773(17) 0.36970(12)
H37_2 H 0.9225 0.5795 0.3610
C56_2 C 0.99381(9) 0.57976(17) 0.42719(12)
C64_2 C 0.91770(9) 0.47923(17) 0.26160(11)
C65_2 C 0.91467(10) 0.39985(16) 0.23544(12)
H42_2 H 0.9386 0.3610 0.2585
C66_2 C 0.87628(10) 0.37821(16) 0.17525(12)
H43_2 H 0.8747 0.3251 0.1583
C67_2 C 0.84039(9) 0.43492(16) 0.14030(11)
C68_2 C 0.84328(10) 0.51413(17) 0.16511(13)
H44_2 H 0.8194 0.5528 0.1416
C69_2 C 0.88196(11) 0.53620(17) 0.22542(14)
H45_2 H 0.8838 0.5898 0.2416
C70_2 C 0.79757(10) 0.40812(16) 0.07769(12)
H49_2 H 0.6546 0.7321 0.0238
Zn3_2 Zn 0.701584(11) 0.451484(17) 0.974370(13)
O14_2 O 0.68161(11) 0.56989(14) 0.96877(13)
N4_2 N 0.6681(3) 0.7026(3) 0.9485(3)
C71_2 C 0.7263(4) 0.6220(7) 0.9149(6)
H46_2 H 0.7134 0.6467 0.8712
H47_2 H 0.7561 0.6494 0.9432
H48_2 H 0.7328 0.5645 0.9113
C72_2 C 0.6889(3) 0.6303(3) 0.9457(3)
C73_2 C 0.6380(3) 0.7053(6) 0.9812(5)
H50_2 H 0.6090 0.7357 0.9546
H51_2 H 0.6294 0.6501 0.9880
C74_2 C 0.6698(5) 0.7791(7) 0.9172(6)
H52_2 H 0.6390 0.8069 0.9037
H53_2 H 0.6953 0.8131 0.9484
H54_2 H 0.6764 0.7687 0.8785
O16_2 O 0.64880(9) 0.40750(16) 0.99727(13)
O20_2 O 0.68156(11) 0.42370(17) 0.87863(11)
O9_2 O 0.69373(12) 0.3012(2) 0.0165(2)
O14_3 O 0.81839(11) 0.06989(14) 0.53123(13)
N3_3 N 0.50291(8) 0.13576(15) 0.02191(10)
N4_3 N 0.8319(3) 0.2026(3) 0.5515(3)
C38_3 C 0.65537(11) 0.3325(2) 0.00898(16)
C39_3 C 0.61632(10) 0.28121(17) 0.01512(13)
C40_3 C 0.57309(11) 0.31651(18) 0.00952(16)
H28_3 H 0.5689 0.3733 0.0037
C41_3 C 0.53610(11) 0.26899(19) 0.01244(16)
H29_3 H 0.5072 0.2938 0.0087
C42_3 C 0.54173(9) 0.18446(17) 0.02090(11)
C43_3 C 0.58505(10) 0.14825(17) 0.02715(14)
H30_3 H 0.5892 0.0914 0.0330
C44_3 C 0.62214(10) 0.19634(18) 0.02478(14)
H31_3 H 0.6514 0.1717 0.0297
C51_3 C 0.45917(10) 0.04869(15) 0.05854(12)
C54_3 C 0.54041(9) 0.00233(16) 0.17435(11)
C55_3 C 0.54682(10) 0.05773(17) 0.13030(12)
H37_3 H 0.5775 0.0795 0.1390
C56_3 C 0.50619(9) 0.07976(17) 0.07281(12)
C68_3 C 0.65672(10) 0.01413(17) 0.33489(13)
H44_3 H 0.6806 0.0528 0.3584
C69_3 C 0.61804(11) 0.03620(17) 0.27458(14)
H45_3 H 0.6162 0.0898 0.2584
C71_3 C 0.7737(4) 0.1220(7) 0.5851(6)
H46_3 H 0.7866 0.1467 0.6288
H47_3 H 0.7439 0.1494 0.5568
H48_3 H 0.7672 0.0645 0.5887
C72_3 C 0.8111(3) 0.1303(3) 0.5543(3)
C73_3 C 0.8620(3) 0.2053(6) 0.5188(5)
H49_3 H 0.8454 0.2321 0.4762
H50_3 H 0.8910 0.2357 0.5454
H51_3 H 0.8706 0.1501 0.5120
C74_3 C 0.8302(5) 0.2791(7) 0.5828(6)
H52_3 H 0.8610 0.3069 0.5963
H53_3 H 0.8047 0.3131 0.5516
H54_3 H 0.8236 0.2687 0.6215
O5_3 O 0.26653(8) 0.03668(12) 0.54644(10)
O6_3 O 0.29696(9) 0.16605(13) 0.56158(10)
C15_3 C 0.54661(10) 0.00795(18) 0.89724(12)
H8_3 H 0.5772 0.0298 0.9057
C16_3 C 0.50596(10) 0.03107(18) 0.84067(13)
H9_3 H 0.5095 0.0699 0.8117
C27_3 C 0.41770(9) 0.02077(17) 0.76160(11)
C28_3 C 0.41467(10) 0.10015(16) 0.73544(12)
H15_3 H 0.4386 0.1390 0.7585
C29_3 C 0.37628(10) 0.12179(16) 0.67525(12)
H16_3 H 0.3747 0.1749 0.6583
C30_3 C 0.34039(9) 0.06508(16) 0.64030(11)
C33_3 C 0.29757(10) 0.09188(16) 0.57769(12)
O11_3 O 0.26126(11) 0.32965(15) 0.58047(10)
C45_3 C 0.45381(9) 0.13993(16) 0.97599(12)
C46_3 C 0.43305(10) 0.18521(17) 0.91646(12)
H32_3 H 0.4524 0.2182 0.9024
C47_3 C 0.38305(9) 0.17996(16) 0.87887(11)
C48_3 C 0.35464(10) 0.12733(18) 0.90009(12)
H33_3 H 0.3211 0.1237 0.8744
C49_3 C 0.37576(10) 0.08114(18) 0.95830(12)
H34_3 H 0.3566 0.0465 0.9715
C50_3 C 0.42579(9) 0.08699(16) 0.99694(11)
C57_3 C 0.35970(10) 0.22867(17) 0.81551(11)
C58_3 C 0.38059(13) 0.30143(19) 0.80647(13)
H38_3 H 0.4088 0.3214 0.8411
C59_3 C 0.36007(13) 0.34482(19) 0.74669(14)
H39_3 H 0.3747 0.3934 0.7415
C60_3 C 0.31762(11) 0.31609(18) 0.69415(12)
C61_3 C 0.29660(12) 0.24590(18) 0.70320(13)
H40_3 H 0.2681 0.2268 0.6686
C62_3 C 0.31669(11) 0.20171(19) 0.76313(12)
H41_3 H 0.3013 0.1540 0.7683
C63_3 C 0.29801(14) 0.3591(2) 0.62757(13)
O18_2 O 0.30627(12) 0.3012(2) 0.4835(2)
C8_3 C 0.54619(9) 0.86007(16) 0.02401(12)
C9_3 C 0.56695(10) 0.81479(17) 0.08354(12)
H5_3 H 0.5476 0.7818 0.0976
C10_3 C 0.61695(9) 0.82004(16) 0.12113(11)
C11_3 C 0.64536(10) 0.87267(18) 0.09991(12)
H6_3 H 0.6789 0.8763 0.1256
C12_3 C 0.62424(10) 0.91886(18) 0.04170(12)
H7_3 H 0.6434 0.9535 0.0285
C13_3 C 0.57421(9) 0.91301(16) 0.00306(11)
C20_3 C 0.64030(10) 0.77133(17) 0.18449(11)
C21_3 C 0.61941(13) 0.69857(19) 0.19353(13)
H11_3 H 0.5912 0.6786 0.1589
C22_3 C 0.63993(13) 0.65518(19) 0.25331(14)
H12_3 H 0.6253 0.6066 0.2585
C23_3 C 0.68238(11) 0.68391(18) 0.30585(12)
C24_3 C 0.70340(12) 0.75410(18) 0.29680(13)
H13_3 H 0.7319 0.7732 0.3314
C25_3 C 0.68331(11) 0.79829(19) 0.23687(12)
H14_3 H 0.6987 0.8460 0.2317
C26_3 C 0.70199(14) 0.6409(2) 0.37243(13)
O12_3 O 0.73347(8) 0.96332(12) 0.45356(10)
C52_3 C 0.45339(10) 0.99205(18) 0.10276(12)
H35_3 H 0.4228 0.9702 0.0943
C53_3 C 0.49404(10) 0.96893(18) 0.15933(13)
H36_3 H 0.4905 0.9301 0.1883
C64_3 C 0.58230(9) 0.97923(17) 0.23840(11)
C65_3 C 0.58533(10) 0.89985(16) 0.26456(12)
H42_3 H 0.5614 0.8610 0.2415
C66_3 C 0.62372(10) 0.87821(16) 0.32475(12)
H43_3 H 0.6253 0.8251 0.3417
C67_3 C 0.65961(9) 0.93492(16) 0.35970(11)
C70_3 C 0.70243(10) 0.90812(16) 0.42231(12)
O7_3 O 0.18161(11) 0.93011(14) 0.46877(13)
N1_3 N 0.49709(8) 0.86424(15) 0.97809(10)
N2_3 N 0.1681(3) 0.7974(3) 0.4485(3)
C1_3 C 0.34463(11) 0.6675(2) 0.99102(16)
C2_3 C 0.38368(10) 0.71879(17) 0.98488(13)
C3_3 C 0.42691(11) 0.68349(18) 0.99048(16)
H1_3 H 0.4311 0.6267 0.9963
C4_3 C 0.46390(11) 0.73101(19) 0.98756(16)
H2_3 H 0.4928 0.7062 0.9913
C5_3 C 0.45827(9) 0.81554(17) 0.97910(11)
C6_3 C 0.41495(10) 0.85175(17) 0.97285(14)
H3_3 H 0.4108 0.9086 0.9670
C7_3 C 0.37786(10) 0.80366(18) 0.97522(14)
H4_3 H 0.3486 0.8283 0.9703
C14_3 C 0.54083(10) 0.95131(15) 0.94146(12)
C17_3 C 0.45959(9) 0.99767(16) 0.82565(11)
C18_3 C 0.45318(10) 0.94227(17) 0.86970(12)
H10_3 H 0.4225 0.9205 0.8610
C19_3 C 0.49381(9) 0.92024(17) 0.92719(12)
C31_3 C 0.34328(10) 0.98587(17) 0.66511(13)
H17_3 H 0.3194 0.9472 0.6416
C32_3 C 0.38196(11) 0.96380(17) 0.72542(14)
H18_3 H 0.3838 0.9102 0.7416
C34_3 C 0.2263(4) 0.8780(7) 0.4149(6)
H19_3 H 0.2134 0.8533 0.3712
H20_3 H 0.2561 0.8506 0.4432
H21_3 H 0.2328 0.9355 0.4113
C35_3 C 0.1889(3) 0.8697(3) 0.4457(3)
C36_3 C 0.1380(3) 0.7947(6) 0.4812(5)
H22_3 H 0.1546 0.7679 0.5238
H23_3 H 0.1090 0.7643 0.4546
H24_3 H 0.1294 0.8499 0.4880
C37_3 C 0.1698(5) 0.7209(7) 0.4172(6)
H25_3 H 0.1390 0.6931 0.4037
H26_3 H 0.1953 0.6869 0.4484
H27_3 H 0.1764 0.7313 0.3785
O5_4 O 0.73347(8) 0.03668(12) 0.95356(10)
O6_4 O 0.70304(9) 0.16605(13) 0.93842(10)
C15_4 C 0.45339(10) 0.00795(18) 0.60276(12)
H8_4 H 0.4228 0.0298 0.5943
C16_4 C 0.49404(10) 0.03107(18) 0.65933(13)
H9_4 H 0.4905 0.0699 0.6883
C27_4 C 0.58230(9) 0.02077(17) 0.73840(11)
C28_4 C 0.58533(10) 0.10015(16) 0.76456(12)
H15_4 H 0.5614 0.1390 0.7415
C29_4 C 0.62372(10) 0.12179(16) 0.82475(12)
H16_4 H 0.6253 0.1749 0.8417
C30_4 C 0.65961(9) 0.06508(16) 0.85970(11)
C33_4 C 0.70243(10) 0.09188(16) 0.92231(12)
O11_4 O 0.73874(11) 0.32965(15) 0.91953(10)
N3_4 N 0.49709(8) 0.13576(15) 0.47809(10)
C38_4 C 0.34463(11) 0.3325(2) 0.49102(16)
C39_4 C 0.38368(10) 0.28121(17) 0.48488(13)
C40_4 C 0.42691(11) 0.31651(18) 0.49048(16)
H28_4 H 0.4311 0.3733 0.4963
C41_4 C 0.46390(11) 0.26899(19) 0.48756(16)
H29_4 H 0.4928 0.2938 0.4913
C42_4 C 0.45827(9) 0.18446(17) 0.47910(11)
C43_4 C 0.41495(10) 0.14825(17) 0.47285(14)
H30_4 H 0.4108 0.0914 0.4670
C44_4 C 0.37786(10) 0.19634(18) 0.47522(14)
H31_4 H 0.3486 0.1717 0.4703
C45_4 C 0.54619(9) 0.13993(16) 0.52401(12)
C46_4 C 0.56695(10) 0.18521(17) 0.58354(12)
H32_4 H 0.5476 0.2182 0.5976
C47_4 C 0.61695(9) 0.17996(16) 0.62113(11)
C48_4 C 0.64536(10) 0.12733(18) 0.59991(12)
H33_4 H 0.6789 0.1237 0.6256
C49_4 C 0.62424(10) 0.08114(18) 0.54170(12)
H34_4 H 0.6434 0.0465 0.5285
C50_4 C 0.57421(9) 0.08699(16) 0.50306(11)
C51_4 C 0.54083(10) 0.04869(15) 0.44146(12)
C54_4 C 0.45959(9) 0.00233(16) 0.32565(11)
C55_4 C 0.45318(10) 0.05773(17) 0.36970(12)
H37_4 H 0.4225 0.0795 0.3610
C56_4 C 0.49381(9) 0.07976(17) 0.42719(12)
C57_4 C 0.64030(10) 0.22867(17) 0.68449(11)
C58_4 C 0.61941(13) 0.30143(19) 0.69353(13)
H38_4 H 0.5912 0.3214 0.6589
C59_4 C 0.63993(13) 0.34482(19) 0.75331(14)
H39_4 H 0.6253 0.3934 0.7585
C60_4 C 0.68238(11) 0.31609(18) 0.80585(12)
C61_4 C 0.70340(12) 0.24590(18) 0.79680(13)
H40_4 H 0.7319 0.2268 0.8314
C62_4 C 0.68331(11) 0.20171(19) 0.73687(12)
H41_4 H 0.6987 0.1540 0.7317
C63_4 C 0.70199(14) 0.3591(2) 0.87243(13)
C68_4 C 0.34328(10) 0.01413(17) 0.16511(13)
H44_4 H 0.3194 0.0528 0.1416
C69_4 C 0.38196(11) 0.03620(17) 0.22542(14)
H45_4 H 0.3838 0.0898 0.2416
H49_4 H 0.1546 0.2321 0.0238
N1_4 N 0.50291(8) 0.86424(15) 0.52191(10)
C1_4 C 0.65537(11) 0.6675(2) 0.50898(16)
C2_4 C 0.61632(10) 0.71879(17) 0.51512(13)
C3_4 C 0.57309(11) 0.68349(18) 0.50952(16)
H1_4 H 0.5689 0.6267 0.5037
C4_4 C 0.53610(11) 0.73101(19) 0.51244(16)
H2_4 H 0.5072 0.7062 0.5087
C5_4 C 0.54173(9) 0.81554(17) 0.52090(11)
C6_4 C 0.58505(10) 0.85175(17) 0.52715(14)
H3_4 H 0.5892 0.9086 0.5330
C7_4 C 0.62214(10) 0.80366(18) 0.52478(14)
H4_4 H 0.6514 0.8283 0.5297
C8_4 C 0.45381(9) 0.86007(16) 0.47599(12)
C9_4 C 0.43305(10) 0.81479(17) 0.41646(12)
H5_4 H 0.4524 0.7818 0.4024
C10_4 C 0.38305(9) 0.82004(16) 0.37887(11)
C11_4 C 0.35464(10) 0.87267(18) 0.40009(12)
H6_4 H 0.3211 0.8763 0.3744
C12_4 C 0.37576(10) 0.91886(18) 0.45830(12)
H7_4 H 0.3566 0.9535 0.4715
C13_4 C 0.42579(9) 0.91301(16) 0.49694(11)
C14_4 C 0.45917(10) 0.95131(15) 0.55854(12)
C17_4 C 0.54041(9) 0.99767(16) 0.67435(11)
C18_4 C 0.54682(10) 0.94227(17) 0.63030(12)
H10_4 H 0.5775 0.9205 0.6390
C19_4 C 0.50619(9) 0.92024(17) 0.57281(12)
C20_4 C 0.35970(10) 0.77133(17) 0.31551(11)
C21_4 C 0.38059(13) 0.69857(19) 0.30647(13)
H11_4 H 0.4088 0.6786 0.3411
C22_4 C 0.36007(13) 0.65518(19) 0.24669(14)
H12_4 H 0.3747 0.6066 0.2415
C23_4 C 0.31762(11) 0.68391(18) 0.19415(12)
C24_4 C 0.29660(12) 0.75410(18) 0.20320(13)
H13_4 H 0.2681 0.7732 0.1686
C25_4 C 0.31669(11) 0.79829(19) 0.26313(12)
H14_4 H 0.3013 0.8460 0.2683
C26_4 C 0.29801(14) 0.6409(2) 0.12757(13)
C31_4 C 0.65672(10) 0.98587(17) 0.83489(13)
H17_4 H 0.6806 0.9472 0.8584
C32_4 C 0.61804(11) 0.96380(17) 0.77458(14)
H18_4 H 0.6162 0.9102 0.7584
H22_4 H 0.8454 0.7679 0.9762
O12_4 O 0.26653(8) 0.96332(12) 0.04644(10)
C52_4 C 0.54661(10) 0.99205(18) 0.39724(12)
H35_4 H 0.5772 0.9702 0.4057
C53_4 C 0.50596(10) 0.96893(18) 0.34067(13)
H36_4 H 0.5095 0.9301 0.3117
C64_4 C 0.41770(9) 0.97923(17) 0.26160(11)
C65_4 C 0.41467(10) 0.89985(16) 0.23544(12)
H42_4 H 0.4386 0.8610 0.2585
C66_4 C 0.37628(10) 0.87821(16) 0.17525(12)
H43_4 H 0.3747 0.8251 0.1583
C67_4 C 0.34039(9) 0.93492(16) 0.14030(11)
C70_4 C 0.29757(10) 0.90812(16) 0.07769(12)
O14_4 O 0.18161(11) 0.06989(14) 0.96877(13)
N4_4 N 0.1681(3) 0.2026(3) 0.9485(3)
C71_4 C 0.2263(4) 0.1220(7) 0.9149(6)
H46_4 H 0.2134 0.1467 0.8712
H47_4 H 0.2561 0.1494 0.9432
H48_4 H 0.2328 0.0645 0.9113
C72_4 C 0.1889(3) 0.1303(3) 0.9457(3)
C73_4 C 0.1380(3) 0.2053(6) 0.9812(5)
H50_4 H 0.1090 0.2357 0.9546
H51_4 H 0.1294 0.1501 0.9880
C74_4 C 0.1698(5) 0.2791(7) 0.9172(6)
H52_4 H 0.1390 0.3069 0.9037
H53_4 H 0.1953 0.3131 0.9484
H54_4 H 0.1764 0.2687 0.8785
O7_4 O 0.81839(11) 0.93011(14) 0.03123(13)
N2_4 N 0.8319(3) 0.7974(3) 0.0515(3)
C34_4 C 0.7737(4) 0.8780(7) 0.0851(6)
H19_4 H 0.7866 0.8533 0.1288
H20_4 H 0.7439 0.8506 0.0568
H21_4 H 0.7672 0.9355 0.0887
C35_4 C 0.8111(3) 0.8697(3) 0.0543(3)
C36_4 C 0.8620(3) 0.7947(6) 0.0188(5)
H23_4 H 0.8910 0.7643 0.0454
H24_4 H 0.8706 0.8499 0.0120
C37_4 C 0.8302(5) 0.7209(7) 0.0828(6)
H25_4 H 0.8610 0.6931 0.0963
H26_4 H 0.8047 0.6869 0.0516
H27_4 H 0.8236 0.7313 0.1215
loop_
_geom_bond_atom_site_label_1
_geom_bond_atom_site_label_2
_geom_bond_site_symmetry_1
_geom_bond_site_symmetry_2
O3 C26 1_555 1_555
O4 C26 1_555 1_555
C9 C8 1_555 1_555
H5 C9 1_555 1_555
C10 C9 1_555 1_555
C11 C10 1_555 1_555
H6 C11 1_555 1_555
C12 C11 1_555 1_555
H7 C12 1_555 1_555
C13 C8 1_555 1_555
C20 C10 1_555 1_555
C21 C20 1_555 1_555
H11 C21 1_555 1_555
C22 C21 1_555 1_555
H12 C22 1_555 1_555
C23 C22 1_555 1_555
C24 C23 1_555 1_555
H13 C24 1_555 1_555
C25 C20 1_555 1_555
H14 C25 1_555 1_555
C26 C23 1_555 1_555
Zn3 O12 1_555 1_555
O9 C38 1_555 1_555
O12 C70 1_555 1_555
O13 C70 1_555 1_555
O14 Zn3 1_555 1_555
N3 C42 1_555 1_555
N4 C72 1_555 1_555
C38 C39 1_555 1_555
C39 C40 1_555 1_555
C40 H28 1_555 1_555
C41 C40 1_555 1_555
H29 C41 1_555 1_555
C42 C41 1_555 1_555
C43 C42 1_555 1_555
H30 C43 1_555 1_555
C44 C39 1_555 1_555
H31 C44 1_555 1_555
C55 C54 1_555 1_555
H37 C55 1_555 1_555
C56 N3 1_555 1_555
C64 C54 1_555 1_555
C65 C64 1_555 1_555
H42 C65 1_555 1_555
C66 C65 1_555 1_555
H43 C66 1_555 1_555
C67 C66 1_555 1_555
C68 C67 1_555 1_555
H44 C68 1_555 1_555
C69 C64 1_555 1_555
H45 C69 1_555 1_555
C70 C67 1_555 1_555
C71 H46 1_555 1_555
H47 C71 1_555 1_555
H48 C71 1_555 1_555
C72 O14 1_555 1_555
C73 N4 1_555 1_555
H49 C73 1_555 1_555
H50 C73 1_555 1_555
H51 C73 1_555 1_555
C74 N4 1_555 1_555
H52 C74 1_555 1_555
H53 C74 1_555 1_555
H54 C74 1_555 1_555
Zn4 O9 1_555 1_555
Zn5 O4 1_555 1_555
Zn7 O3 1_555 1_555
O16 Zn3 1_555 1_555
O20 Zn3 1_555 1_555
C12 C13 1_555 1_555
C24 C25 1_555 1_555
O13 Zn5 1_555 1_555
C43 C44 1_555 1_555
C55 C56 1_555 1_555
C68 C69 1_555 1_555
C71 C72 1_555 1_555
C15 C14 1_555 1_555
H8 C15 1_555 1_555
C16 C15 1_555 1_555
H9 C16 1_555 1_555
Zn10 O8 1_555 1_555
C52 C51 1_555 1_555
H35 C52 1_555 1_555
C53 C52 1_555 1_555
H36 C53 1_555 1_555
Zn8 O1 1_555 1_555
Zn1 O6 1_555 1_555
Zn2 O5 1_555 1_555
O2 C1 1_555 1_555
O5 C33 1_555 1_555
O6 C33 1_555 1_555
O7 Zn2 1_555 1_555
N1 C5 1_555 1_555
N2 C35 1_555 1_555
C1 C2 1_555 1_555
C2 C3 1_555 1_555
C3 H1 1_555 1_555
C4 C3 1_555 1_555
H2 C4 1_555 1_555
C5 C4 1_555 1_555
C6 C5 1_555 1_555
H3 C6 1_555 1_555
C7 C2 1_555 1_555
H4 C7 1_555 1_555
C18 C17 1_555 1_555
H10 C18 1_555 1_555
C19 N1 1_555 1_555
C27 C17 1_555 1_555
C28 C27 1_555 1_555
H15 C28 1_555 1_555
C29 C28 1_555 1_555
H16 C29 1_555 1_555
C30 C29 1_555 1_555
C31 C30 1_555 1_555
H17 C31 1_555 1_555
C32 C27 1_555 1_555
H18 C32 1_555 1_555
C33 C30 1_555 1_555
C34 H19 1_555 1_555
H20 C34 1_555 1_555
H21 C34 1_555 1_555
C35 O7 1_555 1_555
C36 N2 1_555 1_555
H22 C36 1_555 1_555
H23 C36 1_555 1_555
H24 C36 1_555 1_555
C37 N2 1_555 1_555
H25 C37 1_555 1_555
H26 C37 1_555 1_555
H27 C37 1_555 1_555
O10 C63 1_555 1_555
O11 Zn1 1_555 1_555
C46 C45 1_555 1_555
H32 C46 1_555 1_555
C47 C46 1_555 1_555
C48 C47 1_555 1_555
H33 C48 1_555 1_555
C49 C48 1_555 1_555
H34 C49 1_555 1_555
C50 C45 1_555 1_555
C57 C47 1_555 1_555
C58 C57 1_555 1_555
H38 C58 1_555 1_555
C59 C58 1_555 1_555
H39 C59 1_555 1_555
C60 C59 1_555 1_555
C61 C60 1_555 1_555
H40 C61 1_555 1_555
C62 C57 1_555 1_555
H41 C62 1_555 1_555
C63 O11 1_555 1_555
Zn6_2 O2 1_555 1_555
Zn9 O10 1_555 1_555
O15 Zn2 1_555 1_555
O17 Zn1 1_555 1_555
O18 Zn1 1_555 1_555
O19 Zn2 1_555 1_555
O21 Zn1 1_555 1_555
O22 Zn1 1_555 1_555
C6 C7 1_555 1_555
C18 C19 1_555 1_555
C31 C32 1_555 1_555
C34 C35 1_555 1_555
C49 C50 1_555 1_555
C60 C63 1_555 1_555
C61 C62 1_555 1_555
O7_2 Zn2_2 1_555 1_555
N2_2 C35_2 1_555 1_555
C34_2 H19_2 1_555 1_555
H20_2 C34_2 1_555 1_555
H21_2 C34_2 1_555 1_555
C35_2 O7_2 1_555 1_555
C36_2 N2_2 1_555 1_555
H23_2 C36_2 1_555 1_555
H24_2 C36_2 1_555 1_555
C37_2 N2_2 1_555 1_555
H25_2 C37_2 1_555 1_555
H26_2 C37_2 1_555 1_555
H27_2 C37_2 1_555 1_555
O15_2 Zn2_2 1_555 1_555
O19_2 Zn2_2 1_555 1_555
O21_2 Zn4 1_555 1_555
O22_2 Zn4 1_555 1_555
C34_2 C35_2 1_555 1_555
Zn4_2 O6_2 1_555 1_555
O1_2 C1_2 1_555 1_555
O2_2 C1_2 1_555 1_555
O5_2 C33_2 1_555 1_555
O6_2 C33_2 1_555 1_555
N1_2 C5_2 1_555 1_555
C1_2 C2_2 1_555 1_555
C2_2 C3_2 1_555 1_555
C3_2 H1_2 1_555 1_555
C4_2 C3_2 1_555 1_555
H2_2 C4_2 1_555 1_555
C5_2 C4_2 1_555 1_555
C6_2 C5_2 1_555 1_555
H3_2 C6_2 1_555 1_555
C7_2 C2_2 1_555 1_555
H4_2 C7_2 1_555 1_555
C18_2 C17_2 1_555 1_555
H10_2 C18_2 1_555 1_555
C19_2 N1_2 1_555 1_555
C27_2 C17_2 1_555 1_555
C28_2 C27_2 1_555 1_555
H15_2 C28_2 1_555 1_555
C29_2 C28_2 1_555 1_555
H16_2 C29_2 1_555 1_555
C30_2 C29_2 1_555 1_555
C31_2 C30_2 1_555 1_555
H17_2 C31_2 1_555 1_555
C32_2 C27_2 1_555 1_555
H18_2 C32_2 1_555 1_555
C33_2 C30_2 1_555 1_555
O10_2 C63_2 1_555 1_555
O11_2 Zn4_2 1_555 1_555
C46_2 C45_2 1_555 1_555
H32_2 C46_2 1_555 1_555
C47_2 C46_2 1_555 1_555
C48_2 C47_2 1_555 1_555
H33_2 C48_2 1_555 1_555
C49_2 C48_2 1_555 1_555
H34_2 C49_2 1_555 1_555
C50_2 C45_2 1_555 1_555
C51_2 C50_2 1_555 1_555
C52_2 C51_2 1_555 1_555
H35_2 C52_2 1_555 1_555
C53_2 C52_2 1_555 1_555
H36_2 C53_2 1_555 1_555
C57_2 C47_2 1_555 1_555
C58_2 C57_2 1_555 1_555
H38_2 C58_2 1_555 1_555
C59_2 C58_2 1_555 1_555
H39_2 C59_2 1_555 1_555
C60_2 C59_2 1_555 1_555
C61_2 C60_2 1_555 1_555
H40_2 C61_2 1_555 1_555
C62_2 C57_2 1_555 1_555
H41_2 C62_2 1_555 1_555
C63_2 O11_2 1_555 1_555
Zn5 O2_2 1_555 1_555
Zn7 O1_2 1_555 1_555
Zn10 O10_2 1_555 1_555
O17_2 Zn4_2 1_555 1_555
C6_2 C7_2 1_555 1_555
C18_2 C19_2 1_555 1_555
C31_2 C32_2 1_555 1_555
C49_2 C50_2 1_555 1_555
C60_2 C63_2 1_555 1_555
C61_2 C62_2 1_555 1_555
O3_2 C26_2 1_555 1_555
O4_2 C26_2 1_555 1_555
C9_2 C8_2 1_555 1_555
H5_2 C9_2 1_555 1_555
C10_2 C9_2 1_555 1_555
C11_2 C10_2 1_555 1_555
H6_2 C11_2 1_555 1_555
C12_2 C11_2 1_555 1_555
H7_2 C12_2 1_555 1_555
C13_2 C8_2 1_555 1_555
C14_2 C13_2 1_555 1_555
C15_2 C14_2 1_555 1_555
H8_2 C15_2 1_555 1_555
C16_2 C15_2 1_555 1_555
H9_2 C16_2 1_555 1_555
C20_2 C10_2 1_555 1_555
C21_2 C20_2 1_555 1_555
H11_2 C21_2 1_555 1_555
C22_2 C21_2 1_555 1_555
H12_2 C22_2 1_555 1_555
C23_2 C22_2 1_555 1_555
C24_2 C23_2 1_555 1_555
H13_2 C24_2 1_555 1_555
C25_2 C20_2 1_555 1_555
H14_2 C25_2 1_555 1_555
C26_2 C23_2 1_555 1_555
O8_2 C38_2 1_555 1_555
O18 C38_2 1_555 1_555
O12_2 C70_2 1_555 1_555
O13_2 C70_2 1_555 1_555
N3_2 C42_2 1_555 1_555
C38_2 C39_2 1_555 1_555
C39_2 C40_2 1_555 1_555
C40_2 H28_2 1_555 1_555
C41_2 C40_2 1_555 1_555
H29_2 C41_2 1_555 1_555
C42_2 C41_2 1_555 1_555
C43_2 C42_2 1_555 1_555
H30_2 C43_2 1_555 1_555
C44_2 C39_2 1_555 1_555
H31_2 C44_2 1_555 1_555
C55_2 C54_2 1_555 1_555
H37_2 C55_2 1_555 1_555
C56_2 N3_2 1_555 1_555
C64_2 C54_2 1_555 1_555
C65_2 C64_2 1_555 1_555
H42_2 C65_2 1_555 1_555
C66_2 C65_2 1_555 1_555
H43_2 C66_2 1_555 1_555
C67_2 C66_2 1_555 1_555
C68_2 C67_2 1_555 1_555
H44_2 C68_2 1_555 1_555
C69_2 C64_2 1_555 1_555
H45_2 C69_2 1_555 1_555
C70_2 C67_2 1_555 1_555
Zn6 O4_2 1_555 1_555
Zn8 O3_2 1_555 1_555
Zn9 O8_2 1_555 1_555
C12_2 C13_2 1_555 1_555
C24_2 C25_2 1_555 1_555
O13_2 Zn6 1_555 1_555
C43_2 C44_2 1_555 1_555
C55_2 C56_2 1_555 1_555
C68_2 C69_2 1_555 1_555
O14_2 Zn3_2 1_555 1_555
N4_2 C72_2 1_555 1_555
C71_2 H46_2 1_555 1_555
H47_2 C71_2 1_555 1_555
H48_2 C71_2 1_555 1_555
C72_2 O14_2 1_555 1_555
C73_2 N4_2 1_555 1_555
H50_2 C73_2 1_555 1_555
H51_2 C73_2 1_555 1_555
C74_2 N4_2 1_555 1_555
H52_2 C74_2 1_555 1_555
H53_2 C74_2 1_555 1_555
H54_2 C74_2 1_555 1_555
O16_2 Zn3_2 1_555 1_555
O20_2 Zn3_2 1_555 1_555
C71_2 C72_2 1_555 1_555
O9_2 C38_3 1_555 1_555
N3_3 C42_3 1_555 1_555
N4_3 C72_3 1_555 1_555
C38_3 C39_3 1_555 1_555
C39_3 C40_3 1_555 1_555
C40_3 H28_3 1_555 1_555
C41_3 C40_3 1_555 1_555
H29_3 C41_3 1_555 1_555
C42_3 C41_3 1_555 1_555
C43_3 C42_3 1_555 1_555
H30_3 C43_3 1_555 1_555
C44_3 C39_3 1_555 1_555
H31_3 C44_3 1_555 1_555
C55_3 C54_3 1_555 1_555
H37_3 C55_3 1_555 1_555
C56_3 N3_3 1_555 1_555
H44_3 C68_3 1_555 1_555
H45_3 C69_3 1_555 1_555
C71_3 H46_3 1_555 1_555
H47_3 C71_3 1_555 1_555
H48_3 C71_3 1_555 1_555
C72_3 O14_3 1_555 1_555
C73_3 N4_3 1_555 1_555
H49_3 C73_3 1_555 1_555
H50_3 C73_3 1_555 1_555
H51_3 C73_3 1_555 1_555
C74_3 N4_3 1_555 1_555
H52_3 C74_3 1_555 1_555
H53_3 C74_3 1_555 1_555
H54_3 C74_3 1_555 1_555
Zn6 O9_2 1_555 1_555
C43_3 C44_3 1_555 1_555
C51_3 C56_3 1_555 1_555
C55_3 C56_3 1_555 1_555
C68_3 C69_3 1_555 1_555
C71_3 C72_3 1_555 1_555
Zn5 O6_3 1_555 1_555
Zn7 O5_3 1_555 1_555
O5_3 C33_3 1_555 1_555
O6_3 C33_3 1_555 1_555
H8_3 C15_3 1_555 1_555
C16_3 C15_3 1_555 1_555
H9_3 C16_3 1_555 1_555
C28_3 C27_3 1_555 1_555
H15_3 C28_3 1_555 1_555
C29_3 C28_3 1_555 1_555
H16_3 C29_3 1_555 1_555
C30_3 C29_3 1_555 1_555
C33_3 C30_3 1_555 1_555
O20 C63_3 1_555 1_555
O11_3 Zn5 1_555 1_555
C46_3 C45_3 1_555 1_555
H32_3 C46_3 1_555 1_555
C47_3 C46_3 1_555 1_555
C48_3 C47_3 1_555 1_555
H33_3 C48_3 1_555 1_555
C49_3 C48_3 1_555 1_555
H34_3 C49_3 1_555 1_555
C50_3 C45_3 1_555 1_555
C57_3 C47_3 1_555 1_555
C58_3 C57_3 1_555 1_555
H38_3 C58_3 1_555 1_555
C59_3 C58_3 1_555 1_555
H39_3 C59_3 1_555 1_555
C60_3 C59_3 1_555 1_555
C61_3 C60_3 1_555 1_555
H40_3 C61_3 1_555 1_555
C62_3 C57_3 1_555 1_555
H41_3 C62_3 1_555 1_555
C63_3 O11_3 1_555 1_555
O18_2 Zn5 1_555 1_555
C49_3 C50_3 1_555 1_555
C60_3 C63_3 1_555 1_555
C61_3 C62_3 1_555 1_555
O19 C26_3 1_555 1_555
O21 C26_3 1_555 1_555
C9_3 C8_3 1_555 1_555
H5_3 C9_3 1_555 1_555
C10_3 C9_3 1_555 1_555
C11_3 C10_3 1_555 1_555
H6_3 C11_3 1_555 1_555
C12_3 C11_3 1_555 1_555
H7_3 C12_3 1_555 1_555
C13_3 C8_3 1_555 1_555
C20_3 C10_3 1_555 1_555
C21_3 C20_3 1_555 1_555
H11_3 C21_3 1_555 1_555
C22_3 C21_3 1_555 1_555
H12_3 C22_3 1_555 1_555
C23_3 C22_3 1_555 1_555
C24_3 C23_3 1_555 1_555
H13_3 C24_3 1_555 1_555
C25_3 C20_3 1_555 1_555
H14_3 C25_3 1_555 1_555
C26_3 C23_3 1_555 1_555
Zn9 O12_3 1_555 1_555
O12_3 C70_3 1_555 1_555
O22 C70_3 1_555 1_555
H35_3 C52_3 1_555 1_555
C53_3 C52_3 1_555 1_555
H36_3 C53_3 1_555 1_555
C65_3 C64_3 1_555 1_555
H42_3 C65_3 1_555 1_555
C66_3 C65_3 1_555 1_555
H43_3 C66_3 1_555 1_555
C67_3 C66_3 1_555 1_555
C70_3 C67_3 1_555 1_555
C12_3 C13_3 1_555 1_555
C24_3 C25_3 1_555 1_555
O17_2 C1_3 1_555 1_555
N1_3 C5_3 1_555 1_555
N2_3 C35_3 1_555 1_555
C1_3 C2_3 1_555 1_555
C2_3 C3_3 1_555 1_555
C3_3 H1_3 1_555 1_555
C4_3 C3_3 1_555 1_555
H2_3 C4_3 1_555 1_555
C5_3 C4_3 1_555 1_555
C6_3 C5_3 1_555 1_555
H3_3 C6_3 1_555 1_555
C7_3 C2_3 1_555 1_555
H4_3 C7_3 1_555 1_555
C18_3 C17_3 1_555 1_555
H10_3 C18_3 1_555 1_555
C19_3 N1_3 1_555 1_555
H17_3 C31_3 1_555 1_555
H18_3 C32_3 1_555 1_555
C34_3 H19_3 1_555 1_555
H20_3 C34_3 1_555 1_555
H21_3 C34_3 1_555 1_555
C35_3 O7_3 1_555 1_555
C36_3 N2_3 1_555 1_555
H22_3 C36_3 1_555 1_555
H23_3 C36_3 1_555 1_555
H24_3 C36_3 1_555 1_555
C37_3 N2_3 1_555 1_555
H25_3 C37_3 1_555 1_555
H26_3 C37_3 1_555 1_555
H27_3 C37_3 1_555 1_555
C6_3 C7_3 1_555 1_555
C14_3 C19_3 1_555 1_555
C18_3 C19_3 1_555 1_555
C31_3 C32_3 1_555 1_555
C34_3 C35_3 1_555 1_555
Zn6_2 O6_4 1_555 1_555
O5_4 C33_4 1_555 1_555
O6_4 C33_4 1_555 1_555
H8_4 C15_4 1_555 1_555
C16_4 C15_4 1_555 1_555
H9_4 C16_4 1_555 1_555
C28_4 C27_4 1_555 1_555
H15_4 C28_4 1_555 1_555
C29_4 C28_4 1_555 1_555
H16_4 C29_4 1_555 1_555
C30_4 C29_4 1_555 1_555
C33_4 C30_4 1_555 1_555
O16 C38_4 1_555 1_555
O18_2 C38_4 1_555 1_555
O20_2 C63_4 1_555 1_555
O11_4 Zn6_2 1_555 1_555
N3_4 C42_4 1_555 1_555
C38_4 C39_4 1_555 1_555
C39_4 C40_4 1_555 1_555
C40_4 H28_4 1_555 1_555
C41_4 C40_4 1_555 1_555
H29_4 C41_4 1_555 1_555
C42_4 C41_4 1_555 1_555
C43_4 C42_4 1_555 1_555
H30_4 C43_4 1_555 1_555
C44_4 C39_4 1_555 1_555
H31_4 C44_4 1_555 1_555
C45_4 N3_4 1_555 1_555
C46_4 C45_4 1_555 1_555
H32_4 C46_4 1_555 1_555
C47_4 C46_4 1_555 1_555
C48_4 C47_4 1_555 1_555
H33_4 C48_4 1_555 1_555
C49_4 C48_4 1_555 1_555
H34_4 C49_4 1_555 1_555
C50_4 C45_4 1_555 1_555
C51_4 C50_4 1_555 1_555
C55_4 C54_4 1_555 1_555
H37_4 C55_4 1_555 1_555
C56_4 N3_4 1_555 1_555
C57_4 C47_4 1_555 1_555
C58_4 C57_4 1_555 1_555
H38_4 C58_4 1_555 1_555
C59_4 C58_4 1_555 1_555
H39_4 C59_4 1_555 1_555
C60_4 C59_4 1_555 1_555
C61_4 C60_4 1_555 1_555
H40_4 C61_4 1_555 1_555
C62_4 C57_4 1_555 1_555
H41_4 C62_4 1_555 1_555
C63_4 O11_4 1_555 1_555
H44_4 C68_4 1_555 1_555
H45_4 C69_4 1_555 1_555
C43_4 C44_4 1_555 1_555
C49_4 C50_4 1_555 1_555
C51_4 C56_4 1_555 1_555
C55_4 C56_4 1_555 1_555
C60_4 C63_4 1_555 1_555
C61_4 C62_4 1_555 1_555
C68_4 C69_4 1_555 1_555
O15 C1_4 1_555 1_555
O17 C1_4 1_555 1_555
O19_2 C26_4 1_555 1_555
O21_2 C26_4 1_555 1_555
N1_4 C5_4 1_555 1_555
C1_4 C2_4 1_555 1_555
C2_4 C3_4 1_555 1_555
C3_4 H1_4 1_555 1_555
C4_4 C3_4 1_555 1_555
H2_4 C4_4 1_555 1_555
C5_4 C4_4 1_555 1_555
C6_4 C5_4 1_555 1_555
H3_4 C6_4 1_555 1_555
C7_4 C2_4 1_555 1_555
H4_4 C7_4 1_555 1_555
C8_4 N1_4 1_555 1_555
C9_4 C8_4 1_555 1_555
H5_4 C9_4 1_555 1_555
C10_4 C9_4 1_555 1_555
C11_4 C10_4 1_555 1_555
H6_4 C11_4 1_555 1_555
C12_4 C11_4 1_555 1_555
H7_4 C12_4 1_555 1_555
C13_4 C8_4 1_555 1_555
C14_4 C13_4 1_555 1_555
C18_4 C17_4 1_555 1_555
H10_4 C18_4 1_555 1_555
C19_4 N1_4 1_555 1_555
C20_4 C10_4 1_555 1_555
C21_4 C20_4 1_555 1_555
H11_4 C21_4 1_555 1_555
C22_4 C21_4 1_555 1_555
H12_4 C22_4 1_555 1_555
C23_4 C22_4 1_555 1_555
C24_4 C23_4 1_555 1_555
H13_4 C24_4 1_555 1_555
C25_4 C20_4 1_555 1_555
H14_4 C25_4 1_555 1_555
C26_4 C23_4 1_555 1_555
H17_4 C31_4 1_555 1_555
H18_4 C32_4 1_555 1_555
O12_4 C70_4 1_555 1_555
O22_2 C70_4 1_555 1_555
H35_4 C52_4 1_555 1_555
C53_4 C52_4 1_555 1_555
H36_4 C53_4 1_555 1_555
C65_4 C64_4 1_555 1_555
H42_4 C65_4 1_555 1_555
C66_4 C65_4 1_555 1_555
H43_4 C66_4 1_555 1_555
C67_4 C66_4 1_555 1_555
C70_4 C67_4 1_555 1_555
C6_4 C7_4 1_555 1_555
C12_4 C13_4 1_555 1_555
C14_4 C19_4 1_555 1_555
C18_4 C19_4 1_555 1_555
C24_4 C25_4 1_555 1_555
C31_4 C32_4 1_555 1_555
N4_4 C72_4 1_555 1_555
C71_4 H46_4 1_555 1_555
H47_4 C71_4 1_555 1_555
H48_4 C71_4 1_555 1_555
C72_4 O14_4 1_555 1_555
C73_4 N4_4 1_555 1_555
H50_4 C73_4 1_555 1_555
H51_4 C73_4 1_555 1_555
C74_4 N4_4 1_555 1_555
H52_4 C74_4 1_555 1_555
H53_4 C74_4 1_555 1_555
H54_4 C74_4 1_555 1_555
C71_4 C72_4 1_555 1_555
N2_4 C35_4 1_555 1_555
C34_4 H19_4 1_555 1_555
H20_4 C34_4 1_555 1_555
H21_4 C34_4 1_555 1_555
C35_4 O7_4 1_555 1_555
C36_4 N2_4 1_555 1_555
H23_4 C36_4 1_555 1_555
H24_4 C36_4 1_555 1_555
C37_4 N2_4 1_555 1_555
H25_4 C37_4 1_555 1_555
H26_4 C37_4 1_555 1_555
H27_4 C37_4 1_555 1_555
C34_4 C35_4 1_555 1_555

#END
