
###############################################################################
#
# This file contains modified crystal structure data generated from the
# MOF subset of the Cambridge Structural Database (CSD) v543 
# hosted by the Cambridge Crystallographic Data Centre (CCDC).
#
# This work is licensed under the Creative Commons
# Attribution-NonCommercial-ShareAlike 4.0 International License.
# To view a copy of this license, visit
# http://creativecommons.org/licenses/by-nc-sa/4.0/
# or send a letter to
# Creative Commons, PO Box 1866, Mountain View, CA 94042, USA.
#
# CIF created using the CSD Python API on 29 September 2022
# The structure has been converted into the P1 space group
# The structure has a 3D framework
# The original CSD entry VANNIK is in the cubic crystal system
# The framework has been calculated to contain at least 10.0% void space
# The void calculation uses a probe of radius 1.32A, grid spacing 0.4
# The framework is charged, counterions have been retained in the structure
#
###############################################################################

data_VANNIK
_chemical_formula_moiety         '(C354 H192 O124 U16 12-)n'
_symmetry_cell_setting           triclinic
_symmetry_space_group_name_H-M   'P 1'
_symmetry_Int_Tables_number      1
_space_group_name_Hall           'P 1'
loop_
_symmetry_equiv_pos_site_id
_symmetry_equiv_pos_as_xyz
1 x,y,z
_cell_length_a                   32.0941(9)
_cell_length_b                   32.0941(9)
_cell_length_c                   32.0941(9)
_cell_angle_alpha                90
_cell_angle_beta                 90
_cell_angle_gamma                90
_cell_volume                     33057.9
loop_
_atom_site_label
_atom_site_type_symbol
_atom_site_fract_x
_atom_site_fract_y
_atom_site_fract_z
C30 C -0.0000 0.7500 0.6250
C32 C 0.0194(2) 0.7036(2) 0.56400(19)
H17 H 0.0437 0.7202 0.5612
C34 C 0.0128(2) 0.6713(2) 0.5374(2)
H18 H 0.0317 0.6666 0.5151
O13 O 0.1465(2) 0.7462(2) 0.7675(2)
O14 O 0.16371(18) 0.69098(17) 0.73141(19)
C38 C 0.0376(2) 0.74090(19) 0.65476(17)
C39 C 0.0464(2) 0.7694(2) 0.68600(19)
H21 H 0.0298 0.7937 0.6888
C40 C 0.1048(2) 0.7285(2) 0.7077(2)
C41 C 0.0787(2) 0.7628(2) 0.7126(2)
H22 H 0.0834 0.7817 0.7349
C42 C 0.0946(2) 0.7010(3) 0.6770(2)
H23 H 0.1104 0.6761 0.6747
C43 C 0.1417(3) 0.7209(2) 0.7379(3)
C44 C 0.0635(2) 0.7072(3) 0.6499(2)
H24 H 0.0594 0.6883 0.6274
O15 O 0.0038(2) 0.8965(2) 0.4825(2)
O16 O 0.05902(17) 0.91371(18) 0.51859(19)
C45 C 0.00910(19) 0.7876(2) 0.59524(17)
C47 C 0.0215(2) 0.8548(2) 0.5423(2)
C49 C 0.0490(3) 0.8446(2) 0.5730(2)
H27 H 0.0739 0.8604 0.5753
C50 C 0.0291(2) 0.8917(3) 0.5121(3)
C51 C 0.0428(3) 0.8135(2) 0.6001(2)
H28 H 0.0617 0.8094 0.6226
C59 C 0.1250 0.5000 0.2500
O20 O 0.01859(19) 0.55902(17) 0.41371(18)
C60 C 0.09524(17) 0.50910(19) 0.2876(2)
C61 C 0.06400(19) 0.4806(2) 0.2964(2)
H33 H 0.0612 0.4563 0.2798
C62 C 0.0423(2) 0.5215(2) 0.3548(2)
C63 C 0.0374(2) 0.4872(2) 0.3287(2)
H34 H 0.0151 0.4683 0.3334
C64 C 0.0730(2) 0.5490(3) 0.3446(2)
H35 H 0.0753 0.5739 0.3604
C65 C 0.0121(3) 0.5291(2) 0.3917(3)
C66 C 0.1001(2) 0.5428(3) 0.3135(2)
H36 H 0.1226 0.5617 0.3094
O21 O 0.2675(2) 0.3535(2) 0.2538(2)
O22 O 0.23141(19) 0.33629(18) 0.30902(17)
C67 C 0.15476(17) 0.4624(2) 0.25910(19)
C68 C 0.18600(19) 0.4536(2) 0.2306(2)
H37 H 0.1888 0.4702 0.2063
C69 C 0.2077(2) 0.3952(2) 0.2715(2)
C70 C 0.2126(2) 0.4213(2) 0.2372(2)
H38 H 0.2349 0.4166 0.2183
C71 C 0.1770(2) 0.4054(2) 0.2990(3)
H39 H 0.1747 0.3896 0.3239
C72 C 0.2379(3) 0.3583(3) 0.2791(2)
C73 C 0.1499(2) 0.4365(2) 0.2928(3)
H40 H 0.1274 0.4406 0.3117
O24 O 0.01859(19) 0.44098(17) 0.08629(18)
C74 C 0.09524(17) 0.49090(19) 0.2124(2)
C75 C 0.06400(19) 0.5194(2) 0.2036(2)
H41 H 0.0612 0.5437 0.2202
C76 C 0.0423(2) 0.4785(2) 0.1452(2)
C77 C 0.0374(2) 0.5128(2) 0.1713(2)
H42 H 0.0151 0.5317 0.1666
C78 C 0.0730(2) 0.4510(3) 0.1554(2)
H43 H 0.0753 0.4261 0.1396
C79 C 0.0121(3) 0.4709(2) 0.1083(3)
C80 C 0.1001(2) 0.4572(3) 0.1865(2)
H44 H 0.1226 0.4383 0.1906
O25 O 0.2675(2) 0.6465(2) 0.2462(2)
O26 O 0.23141(19) 0.66371(18) 0.19098(17)
C81 C 0.15476(17) 0.5376(2) 0.24090(19)
C82 C 0.18600(19) 0.5464(2) 0.2694(2)
H45 H 0.1888 0.5298 0.2937
C83 C 0.2077(2) 0.6048(2) 0.2285(2)
C84 C 0.2126(2) 0.5787(2) 0.2628(2)
H46 H 0.2349 0.5834 0.2817
C85 C 0.1770(2) 0.5946(2) 0.2010(3)
H47 H 0.1747 0.6104 0.1761
C86 C 0.2379(3) 0.6417(3) 0.2209(2)
C87 C 0.1499(2) 0.5635(2) 0.2072(3)
H48 H 0.1274 0.5594 0.1883
U2 U 0.29245(2) 0.29245(2) 0.29245(2)
O27 O 0.32289(14) 0.32289(14) 0.32289(14)
O28 O 0.26163(16) 0.26163(16) 0.26163(16)
O35 O 0.3535(2) 0.2538(2) 0.2675(2)
O36 O 0.2538(2) 0.2675(2) 0.3535(2)
U5 U 0.20755(2) 0.70755(2) 0.79245(2)
U6 U 0.04245(2) 0.95755(2) 0.45755(2)
U8 U 0.29245(2) 0.70755(2) 0.20755(2)
O41 O 0.33629(18) 0.30902(17) 0.23141(19)
O42 O 0.30902(17) 0.23141(19) 0.33629(18)
O1 O 0.8965(2) 0.5175(2) 0.4962(2)
U1 U 0.95755(2) 0.54245(2) 0.45755(2)
C1 C 0.7500 0.3750 0.5000
O2 O 0.91371(18) 0.48141(19) 0.44098(17)
C2 C 0.7876(2) 0.40476(17) 0.49090(19)
C3 C 0.7964(2) 0.43600(19) 0.5194(2)
H1 H 0.7798 0.4388 0.5437
O3 O 0.92711(14) 0.57289(14) 0.42711(14)
C4 C 0.8548(2) 0.4577(2) 0.4785(2)
C5 C 0.8287(2) 0.4626(2) 0.5128(2)
H2 H 0.8334 0.4849 0.5317
C6 C 0.8446(2) 0.4270(2) 0.4510(3)
H3 H 0.8604 0.4247 0.4261
C7 C 0.8917(3) 0.4879(3) 0.4709(2)
C8 C 0.8135(2) 0.3999(2) 0.4572(3)
H4 H 0.8094 0.3774 0.4383
O4 O 0.98837(16) 0.51163(16) 0.48837(16)
O5 O 0.7538(2) 0.2325(2) 0.6465(2)
O6 O 0.80902(17) 0.26859(19) 0.66371(18)
C9 C 0.75910(19) 0.34524(17) 0.5376(2)
C10 C 0.7306(2) 0.31400(19) 0.5464(2)
H5 H 0.7063 0.3112 0.5298
C11 C 0.7715(2) 0.2923(2) 0.6048(2)
C12 C 0.7372(2) 0.2874(2) 0.5787(2)
H6 H 0.7183 0.2651 0.5834
C13 C 0.7990(3) 0.3230(2) 0.5946(2)
H7 H 0.8239 0.3253 0.6104
C14 C 0.7791(2) 0.2621(3) 0.6417(3)
C15 C 0.7928(3) 0.3501(2) 0.5635(2)
H8 H 0.8117 0.3726 0.5594
O7 O 0.6035(2) 0.5175(2) 0.5038(2)
O8 O 0.58629(18) 0.48141(19) 0.55902(17)
C16 C 0.7124(2) 0.40476(17) 0.50910(19)
C17 C 0.7036(2) 0.43600(19) 0.4806(2)
H9 H 0.7202 0.4388 0.4563
C18 C 0.6452(2) 0.4577(2) 0.5215(2)
C19 C 0.6713(2) 0.4626(2) 0.4872(2)
H10 H 0.6666 0.4849 0.4683
C20 C 0.6554(2) 0.4270(2) 0.5490(3)
H11 H 0.6396 0.4247 0.5739
C21 C 0.6083(3) 0.4879(3) 0.5291(2)
C22 C 0.6865(2) 0.3999(2) 0.5428(3)
H12 H 0.6906 0.3774 0.5617
O9 O 0.7462(2) 0.2325(2) 0.3535(2)
O10 O 0.69098(17) 0.26859(19) 0.33629(18)
C23 C 0.74090(19) 0.34524(17) 0.4624(2)
C24 C 0.7694(2) 0.31400(19) 0.4536(2)
H13 H 0.7937 0.3112 0.4702
C25 C 0.7285(2) 0.2923(2) 0.3952(2)
C26 C 0.7628(2) 0.2874(2) 0.4213(2)
H14 H 0.7817 0.2651 0.4166
C27 C 0.7010(3) 0.3230(2) 0.4054(2)
H15 H 0.6761 0.3253 0.3896
C28 C 0.7209(2) 0.2621(3) 0.3583(3)
C29 C 0.7072(3) 0.3501(2) 0.4365(2)
H16 H 0.6883 0.3726 0.4406
O11 O 0.9962(2) 0.6035(2) 0.4825(2)
C30_2 C 1.0000 0.7500 0.6250
O12 O 0.94098(17) 0.58629(18) 0.51859(19)
C31 C 0.99090(19) 0.7124(2) 0.59524(17)
C33 C 0.9785(2) 0.6452(2) 0.5423(2)
C35 C 0.9510(3) 0.6554(2) 0.5730(2)
H19 H 0.9261 0.6396 0.5753
C36 C 0.9709(2) 0.6083(3) 0.5121(3)
C37 C 0.9572(3) 0.6865(2) 0.6001(2)
H20 H 0.9383 0.6906 0.6226
C46 C 0.9806(2) 0.7964(2) 0.56400(19)
H25 H 0.9563 0.7798 0.5612
C48 C 0.9872(2) 0.8287(2) 0.5374(2)
H26 H 0.9683 0.8334 0.5151
O17 O 0.8535(2) 0.7538(2) 0.7675(2)
O18 O 0.83629(18) 0.80902(17) 0.73141(19)
C52 C 0.9624(2) 0.75910(19) 0.65476(17)
C53 C 0.9536(2) 0.7306(2) 0.68600(19)
H29 H 0.9702 0.7063 0.6888
C54 C 0.8952(2) 0.7715(2) 0.7077(2)
C55 C 0.9213(2) 0.7372(2) 0.7126(2)
H30 H 0.9166 0.7183 0.7349
C56 C 0.9054(2) 0.7990(3) 0.6770(2)
H31 H 0.8896 0.8239 0.6747
C57 C 0.8583(3) 0.7791(2) 0.7379(3)
C58 C 0.9365(2) 0.7928(3) 0.6499(2)
H32 H 0.9406 0.8117 0.6274
O19 O 0.9825(2) 0.5038(2) 0.3965(2)
O23 O 0.9825(2) 0.4962(2) 0.1035(2)
U3 U 0.79245(2) 0.20755(2) 0.70755(2)
O29 O 0.82289(14) 0.17711(14) 0.67711(14)
O30 O 0.76163(16) 0.23837(16) 0.73837(16)
U4 U 0.54245(2) 0.54245(2) 0.54245(2)
O31 O 0.57289(14) 0.57289(14) 0.57289(14)
O32 O 0.51163(16) 0.51163(16) 0.51163(16)
O33 O 0.7675(2) 0.1465(2) 0.7462(2)
O34 O 0.8535(2) 0.2462(2) 0.7325(2)
O37 O 0.5038(2) 0.6035(2) 0.5175(2)
O38 O 0.5175(2) 0.5038(2) 0.6035(2)
U7 U 0.95755(2) 0.45755(2) 0.04245(2)
U9 U 0.79245(2) 0.79245(2) 0.79245(2)
U10 U 0.70755(2) 0.20755(2) 0.29245(2)
O39 O 0.73141(19) 0.16371(18) 0.69098(17)
O40 O 0.83629(18) 0.19098(17) 0.76859(19)
O43 O 0.55902(17) 0.58629(18) 0.48141(19)
O44 O 0.48141(19) 0.55902(17) 0.58629(18)
C1_2 C 0.7500 0.6250 -0.0000
C3_2 C 0.7036(2) 0.56400(19) 0.0194(2)
H1_2 H 0.7202 0.5612 0.0437
C5_2 C 0.6713(2) 0.5374(2) 0.0128(2)
H2_2 H 0.6666 0.5151 0.0317
O5_2 O 0.7462(2) 0.7675(2) 0.1465(2)
O6_2 O 0.69098(17) 0.73141(19) 0.16371(18)
C9_2 C 0.74090(19) 0.65476(17) 0.0376(2)
C10_2 C 0.7694(2) 0.68600(19) 0.0464(2)
H5_2 H 0.7937 0.6888 0.0298
C11_2 C 0.7285(2) 0.7077(2) 0.1048(2)
C12_2 C 0.7628(2) 0.7126(2) 0.0787(2)
H6_2 H 0.7817 0.7349 0.0834
C13_2 C 0.7010(3) 0.6770(2) 0.0946(2)
H7_2 H 0.6761 0.6747 0.1104
C14_2 C 0.7209(2) 0.7379(3) 0.1417(3)
C15_2 C 0.7072(3) 0.6499(2) 0.0635(2)
H8_2 H 0.6883 0.6274 0.0594
O7_2 O 0.8965(2) 0.4825(2) 0.0038(2)
O8_2 O 0.91371(18) 0.51859(19) 0.05902(17)
C16_2 C 0.7876(2) 0.59524(17) 0.00910(19)
C18_2 C 0.8548(2) 0.5423(2) 0.0215(2)
C20_2 C 0.8446(2) 0.5730(2) 0.0490(3)
H11_2 H 0.8604 0.5753 0.0739
C21_2 C 0.8917(3) 0.5121(3) 0.0291(2)
C22_2 C 0.8135(2) 0.6001(2) 0.0428(3)
H12_2 H 0.8094 0.6226 0.0617
C30_3 C 0.5000 0.2500 0.1250
O12_2 O 0.55902(17) 0.41371(18) 0.01859(19)
C31_2 C 0.50910(19) 0.2876(2) 0.09524(17)
C32_2 C 0.4806(2) 0.2964(2) 0.06400(19)
H17_2 H 0.4563 0.2798 0.0612
C33_2 C 0.5215(2) 0.3548(2) 0.0423(2)
C34_2 C 0.4872(2) 0.3287(2) 0.0374(2)
H18_2 H 0.4683 0.3334 0.0151
C35_2 C 0.5490(3) 0.3446(2) 0.0730(2)
H19_2 H 0.5739 0.3604 0.0753
C36_2 C 0.5291(2) 0.3917(3) 0.0121(3)
C37_2 C 0.5428(3) 0.3135(2) 0.1001(2)
H20_2 H 0.5617 0.3094 0.1226
C38_2 C 0.4624(2) 0.25910(19) 0.15476(17)
C39_2 C 0.4536(2) 0.2306(2) 0.18600(19)
H21_2 H 0.4702 0.2063 0.1888
C40_2 C 0.3952(2) 0.2715(2) 0.2077(2)
C41_2 C 0.4213(2) 0.2372(2) 0.2126(2)
H22_2 H 0.4166 0.2183 0.2349
C42_2 C 0.4054(2) 0.2990(3) 0.1770(2)
H23_2 H 0.3896 0.3239 0.1747
C43_2 C 0.3583(3) 0.2791(2) 0.2379(3)
C44_2 C 0.4365(2) 0.2928(3) 0.1499(2)
H24_2 H 0.4406 0.3117 0.1274
O16_2 O 0.44098(17) 0.08629(18) 0.01859(19)
C45_2 C 0.49090(19) 0.2124(2) 0.09524(17)
C46_2 C 0.5194(2) 0.2036(2) 0.06400(19)
H25_2 H 0.5437 0.2202 0.0612
C47_2 C 0.4785(2) 0.1452(2) 0.0423(2)
C48_2 C 0.5128(2) 0.1713(2) 0.0374(2)
H26_2 H 0.5317 0.1666 0.0151
C49_2 C 0.4510(3) 0.1554(2) 0.0730(2)
H27_2 H 0.4261 0.1396 0.0753
C50_2 C 0.4709(2) 0.1083(3) 0.0121(3)
C51_2 C 0.4572(3) 0.1865(2) 0.1001(2)
H28_2 H 0.4383 0.1906 0.1226
O17_2 O 0.6465(2) 0.2462(2) 0.2675(2)
O18_2 O 0.66371(18) 0.19098(17) 0.23141(19)
C52_2 C 0.5376(2) 0.24090(19) 0.15476(17)
C53_2 C 0.5464(2) 0.2694(2) 0.18600(19)
H29_2 H 0.5298 0.2937 0.1888
C54_2 C 0.6048(2) 0.2285(2) 0.2077(2)
C55_2 C 0.5787(2) 0.2628(2) 0.2126(2)
H30_2 H 0.5834 0.2817 0.2349
C56_2 C 0.5946(2) 0.2010(3) 0.1770(2)
H31_2 H 0.6104 0.1761 0.1747
C57_2 C 0.6417(3) 0.2209(2) 0.2379(3)
C58_2 C 0.5635(2) 0.2072(3) 0.1499(2)
H32_2 H 0.5594 0.1883 0.1274
U3_2 U 0.70755(2) 0.79245(2) 0.20755(2)
O29_2 O 0.67711(14) 0.82289(14) 0.17711(14)
O30_2 O 0.73837(16) 0.76163(16) 0.23837(16)
O31_2 O 0.92711(14) 0.42711(14) 0.07289(14)
O32_2 O 0.98837(16) 0.48837(16) 0.01163(16)
O33_2 O 0.7325(2) 0.8535(2) 0.2462(2)
O34_2 O 0.6465(2) 0.7538(2) 0.2325(2)
O37_2 O 0.9962(2) 0.3965(2) 0.0175(2)
O39_2 O 0.76859(19) 0.83629(18) 0.19098(17)
O40_2 O 0.66371(18) 0.80902(17) 0.26859(19)
O1_2 O 0.6035(2) 0.4825(2) 0.9962(2)
U1_2 U 0.54245(2) 0.45755(2) 0.95755(2)
C1_3 C 0.7500 0.6250 1.0000
O2_2 O 0.58629(18) 0.51859(19) 0.94098(17)
C2_2 C 0.7124(2) 0.59524(17) 0.99090(19)
O3_2 O 0.57289(14) 0.42711(14) 0.92711(14)
C4_2 C 0.6452(2) 0.5423(2) 0.9785(2)
C6_2 C 0.6554(2) 0.5730(2) 0.9510(3)
H3_2 H 0.6396 0.5753 0.9261
C7_2 C 0.6083(3) 0.5121(3) 0.9709(2)
C8_2 C 0.6865(2) 0.6001(2) 0.9572(3)
H4_2 H 0.6906 0.6226 0.9383
O4_2 O 0.51163(16) 0.48837(16) 0.98837(16)
C17_2 C 0.7964(2) 0.56400(19) 0.9806(2)
H9_2 H 0.7798 0.5612 0.9563
C19_2 C 0.8287(2) 0.5374(2) 0.9872(2)
H10_2 H 0.8334 0.5151 0.9683
O9_2 O 0.7538(2) 0.7675(2) 0.8535(2)
O10_2 O 0.80902(17) 0.73141(19) 0.83629(18)
C23_2 C 0.75910(19) 0.65476(17) 0.9624(2)
C24_2 C 0.7306(2) 0.68600(19) 0.9536(2)
H13_2 H 0.7063 0.6888 0.9702
C25_2 C 0.7715(2) 0.7077(2) 0.8952(2)
C26_2 C 0.7372(2) 0.7126(2) 0.9213(2)
H14_2 H 0.7183 0.7349 0.9166
C27_2 C 0.7990(3) 0.6770(2) 0.9054(2)
H15_2 H 0.8239 0.6747 0.8896
C28_2 C 0.7791(2) 0.7379(3) 0.8583(3)
C29_2 C 0.7928(3) 0.6499(2) 0.9365(2)
H16_2 H 0.8117 0.6274 0.9406
O11_2 O 0.5038(2) 0.3965(2) 0.9825(2)
O15_2 O 0.4962(2) 0.1035(2) 0.9825(2)
O19_2 O 0.5175(2) 0.4962(2) 0.8965(2)
C59_2 C 0.3750 0.5000 0.7500
O20_2 O 0.48141(19) 0.44098(17) 0.91371(18)
C60_2 C 0.40476(17) 0.49090(19) 0.7876(2)
C61_2 C 0.43600(19) 0.5194(2) 0.7964(2)
H33_2 H 0.4388 0.5437 0.7798
C62_2 C 0.4577(2) 0.4785(2) 0.8548(2)
C63_2 C 0.4626(2) 0.5128(2) 0.8287(2)
H34_2 H 0.4849 0.5317 0.8334
C64_2 C 0.4270(2) 0.4510(3) 0.8446(2)
H35_2 H 0.4247 0.4261 0.8604
C65_2 C 0.4879(3) 0.4709(2) 0.8917(3)
C66_2 C 0.3999(2) 0.4572(3) 0.8135(2)
H36_2 H 0.3774 0.4383 0.8094
O21_2 O 0.2325(2) 0.6465(2) 0.7538(2)
O22_2 O 0.26859(19) 0.66371(18) 0.80902(17)
C67_2 C 0.34524(17) 0.5376(2) 0.75910(19)
C68_2 C 0.31400(19) 0.5464(2) 0.7306(2)
H37_2 H 0.3112 0.5298 0.7063
C69_2 C 0.2923(2) 0.6048(2) 0.7715(2)
C70_2 C 0.2874(2) 0.5787(2) 0.7372(2)
H38_2 H 0.2651 0.5834 0.7183
C71_2 C 0.3230(2) 0.5946(2) 0.7990(3)
H39_2 H 0.3253 0.6104 0.8239
C72_2 C 0.2621(3) 0.6417(3) 0.7791(2)
C73_2 C 0.3501(2) 0.5635(2) 0.7928(3)
H40_2 H 0.3726 0.5594 0.8117
C74_2 C 0.40476(17) 0.50910(19) 0.7124(2)
C75_2 C 0.43600(19) 0.4806(2) 0.7036(2)
H41_2 H 0.4388 0.4563 0.7202
C76_2 C 0.4577(2) 0.5215(2) 0.6452(2)
C77_2 C 0.4626(2) 0.4872(2) 0.6713(2)
H42_2 H 0.4849 0.4683 0.6666
C78_2 C 0.4270(2) 0.5490(3) 0.6554(2)
H43_2 H 0.4247 0.5739 0.6396
C79_2 C 0.4879(3) 0.5291(2) 0.6083(3)
C80_2 C 0.3999(2) 0.5428(3) 0.6865(2)
H44_2 H 0.3774 0.5617 0.6906
O25_2 O 0.2325(2) 0.3535(2) 0.7462(2)
O26_2 O 0.26859(19) 0.33629(18) 0.69098(17)
C81_2 C 0.34524(17) 0.4624(2) 0.74090(19)
C82_2 C 0.31400(19) 0.4536(2) 0.7694(2)
H45_2 H 0.3112 0.4702 0.7937
C83_2 C 0.2923(2) 0.3952(2) 0.7285(2)
C84_2 C 0.2874(2) 0.4213(2) 0.7628(2)
H46_2 H 0.2651 0.4166 0.7817
C85_2 C 0.3230(2) 0.4054(2) 0.7010(3)
H47_2 H 0.3253 0.3896 0.6761
C86_2 C 0.2621(3) 0.3583(3) 0.7209(2)
C87_2 C 0.3501(2) 0.4365(2) 0.7072(3)
H48_2 H 0.3726 0.4406 0.6883
O27_2 O 0.17711(14) 0.67711(14) 0.82289(14)
O28_2 O 0.23837(16) 0.73837(16) 0.76163(16)
O36_2 O 0.2462(2) 0.7325(2) 0.8535(2)
U6_2 U 0.45755(2) 0.04245(2) 0.95755(2)
U8_2 U 0.20755(2) 0.29245(2) 0.70755(2)
O42_2 O 0.19098(17) 0.76859(19) 0.83629(18)
O43_2 O 0.94098(17) 0.41371(18) 0.98141(19)
O1_3 O 0.1035(2) 0.0175(2) 0.0038(2)
U1_3 U 0.04245(2) 0.04245(2) 0.04245(2)
O3_3 O 0.07289(14) 0.07289(14) 0.07289(14)
O4_3 O 0.01163(16) 0.01163(16) 0.01163(16)
O11_3 O 0.0038(2) 0.1035(2) 0.0175(2)
O19_3 O 0.0175(2) 0.0038(2) 0.1035(2)
O7_3 O 0.3965(2) 0.0175(2) 0.9962(2)
C30_4 C 0.0000 0.2500 0.8750
O12_3 O 0.05902(17) 0.08629(18) 0.98141(19)
C31_3 C 0.00910(19) 0.2124(2) 0.90476(17)
C33_3 C 0.0215(2) 0.1452(2) 0.9577(2)
C35_3 C 0.0490(3) 0.1554(2) 0.9270(2)
H19_3 H 0.0739 0.1396 0.9247
C36_3 C 0.0291(2) 0.1083(3) 0.9879(3)
C37_3 C 0.0428(3) 0.1865(2) 0.8999(2)
H20_3 H 0.0617 0.1906 0.8774
C46_3 C 0.0194(2) 0.2964(2) 0.93600(19)
H25_3 H 0.0437 0.2798 0.9388
C48_3 C 0.0128(2) 0.3287(2) 0.9626(2)
H26_3 H 0.0317 0.3334 0.9849
O17_3 O 0.1465(2) 0.2538(2) 0.7325(2)
O18_3 O 0.16371(18) 0.30902(17) 0.76859(19)
C52_3 C 0.0376(2) 0.25910(19) 0.84524(17)
C53_3 C 0.0464(2) 0.2306(2) 0.81400(19)
H29_3 H 0.0298 0.2063 0.8112
C54_3 C 0.1048(2) 0.2715(2) 0.7923(2)
C55_3 C 0.0787(2) 0.2372(2) 0.7874(2)
H30_3 H 0.0834 0.2183 0.7651
C56_3 C 0.0946(2) 0.2990(3) 0.8230(2)
H31_3 H 0.1104 0.3239 0.8253
C57_3 C 0.1417(3) 0.2791(2) 0.7621(3)
C58_3 C 0.0635(2) 0.2928(3) 0.8501(2)
H32_3 H 0.0594 0.3117 0.8726
O31_3 O 0.42711(14) 0.07289(14) 0.92711(14)
O32_3 O 0.48837(16) 0.01163(16) 0.98837(16)
O38_2 O 0.4825(2) 0.0038(2) 0.8965(2)
O44_2 O 0.51859(19) 0.05902(17) 0.91371(18)
C1_4 C 0.2500 0.8750 0.0000
O2_3 O 0.08629(18) 0.98141(19) 0.05902(17)
C2_3 C 0.2124(2) 0.90476(17) 0.00910(19)
C4_3 C 0.1452(2) 0.9577(2) 0.0215(2)
C6_3 C 0.1554(2) 0.9270(2) 0.0490(3)
H3_3 H 0.1396 0.9247 0.0739
C7_3 C 0.1083(3) 0.9879(3) 0.0291(2)
C8_3 C 0.1865(2) 0.8999(2) 0.0428(3)
H4_3 H 0.1906 0.8774 0.0617
C17_3 C 0.2964(2) 0.93600(19) 0.0194(2)
H9_3 H 0.2798 0.9388 0.0437
C19_3 C 0.3287(2) 0.9626(2) 0.0128(2)
H10_3 H 0.3334 0.9849 0.0317
O9_3 O 0.2538(2) 0.7325(2) 0.1465(2)
O10_3 O 0.30902(17) 0.76859(19) 0.16371(18)
C23_3 C 0.25910(19) 0.84524(17) 0.0376(2)
C24_3 C 0.2306(2) 0.81400(19) 0.0464(2)
H13_3 H 0.2063 0.8112 0.0298
C25_3 C 0.2715(2) 0.7923(2) 0.1048(2)
C26_3 C 0.2372(2) 0.7874(2) 0.0787(2)
H14_3 H 0.2183 0.7651 0.0834
C27_3 C 0.2990(3) 0.8230(2) 0.0946(2)
H15_3 H 0.3239 0.8253 0.1104
C28_3 C 0.2791(2) 0.7621(3) 0.1417(3)
C29_3 C 0.2928(3) 0.8501(2) 0.0635(2)
H16_3 H 0.3117 0.8726 0.0594
O23_2 O 0.0175(2) 0.9962(2) 0.3965(2)
C1_5 C 0.2500 0.8750 1.0000
C3_3 C 0.2036(2) 0.93600(19) 0.9806(2)
H1_3 H 0.2202 0.9388 0.9563
C5_3 C 0.1713(2) 0.9626(2) 0.9872(2)
H2_3 H 0.1666 0.9849 0.9683
C9_3 C 0.24090(19) 0.84524(17) 0.9624(2)
C10_3 C 0.2694(2) 0.81400(19) 0.9536(2)
H5_3 H 0.2937 0.8112 0.9702
C11_3 C 0.2285(2) 0.7923(2) 0.8952(2)
C12_3 C 0.2628(2) 0.7874(2) 0.9213(2)
H6_3 H 0.2817 0.7651 0.9166
C13_3 C 0.2010(3) 0.8230(2) 0.9054(2)
H7_3 H 0.1761 0.8253 0.8896
C14_3 C 0.2209(2) 0.7621(3) 0.8583(3)
C15_3 C 0.2072(3) 0.8501(2) 0.9365(2)
H8_3 H 0.1883 0.8726 0.9406
O8_3 O 0.41371(18) 0.98141(19) 0.94098(17)
C16_3 C 0.2876(2) 0.90476(17) 0.99090(19)
C18_3 C 0.3548(2) 0.9577(2) 0.9785(2)
C20_3 C 0.3446(2) 0.9270(2) 0.9510(3)
H11_3 H 0.3604 0.9247 0.9261
C21_3 C 0.3917(3) 0.9879(3) 0.9709(2)
C22_3 C 0.3135(2) 0.8999(2) 0.9572(3)
H12_3 H 0.3094 0.8774 0.9383
C59_3 C 0.8750 -0.0000 0.2500
O20_3 O 0.98141(19) 0.05902(17) 0.08629(18)
C60_3 C 0.90476(17) 0.00910(19) 0.2124(2)
C62_3 C 0.9577(2) 0.0215(2) 0.1452(2)
C64_3 C 0.9270(2) 0.0490(3) 0.1554(2)
H35_3 H 0.9247 0.0739 0.1396
C65_3 C 0.9879(3) 0.0291(2) 0.1083(3)
C66_3 C 0.8999(2) 0.0428(3) 0.1865(2)
H36_3 H 0.8774 0.0617 0.1906
C75_3 C 0.93600(19) 0.0194(2) 0.2964(2)
H41_3 H 0.9388 0.0437 0.2798
C77_3 C 0.9626(2) 0.0128(2) 0.3287(2)
H42_3 H 0.9849 0.0317 0.3334
O25_3 O 0.7325(2) 0.1465(2) 0.2538(2)
O26_3 O 0.76859(19) 0.16371(18) 0.30902(17)
C81_3 C 0.84524(17) 0.0376(2) 0.25910(19)
C82_3 C 0.81400(19) 0.0464(2) 0.2306(2)
H45_3 H 0.8112 0.0298 0.2063
C83_3 C 0.7923(2) 0.1048(2) 0.2715(2)
C84_3 C 0.7874(2) 0.0787(2) 0.2372(2)
H46_3 H 0.7651 0.0834 0.2183
C85_3 C 0.8230(2) 0.0946(2) 0.2990(3)
H47_3 H 0.8253 0.1104 0.3239
C86_3 C 0.7621(3) 0.1417(3) 0.2791(2)
C87_3 C 0.8501(2) 0.0635(2) 0.2928(3)
H48_3 H 0.8726 0.0594 0.3117
C30_5 C 1.0000 0.2500 0.8750
C32_3 C 0.9806(2) 0.2036(2) 0.93600(19)
H17_3 H 0.9563 0.2202 0.9388
C34_3 C 0.9872(2) 0.1713(2) 0.9626(2)
H18_3 H 0.9683 0.1666 0.9849
C38_3 C 0.9624(2) 0.24090(19) 0.84524(17)
C39_3 C 0.9536(2) 0.2694(2) 0.81400(19)
H21_3 H 0.9702 0.2937 0.8112
C40_3 C 0.8952(2) 0.2285(2) 0.7923(2)
C41_3 C 0.9213(2) 0.2628(2) 0.7874(2)
H22_3 H 0.9166 0.2817 0.7651
C42_3 C 0.9054(2) 0.2010(3) 0.8230(2)
H23_3 H 0.8896 0.1761 0.8253
C43_3 C 0.8583(3) 0.2209(2) 0.7621(3)
C44_3 C 0.9365(2) 0.2072(3) 0.8501(2)
H24_3 H 0.9406 0.1883 0.8726
C45_3 C 0.99090(19) 0.2876(2) 0.90476(17)
C47_3 C 0.9785(2) 0.3548(2) 0.9577(2)
C49_3 C 0.9510(3) 0.3446(2) 0.9270(2)
H27_3 H 0.9261 0.3604 0.9247
C50_3 C 0.9709(2) 0.3917(3) 0.9879(3)
C51_3 C 0.9572(3) 0.3135(2) 0.8999(2)
H28_3 H 0.9383 0.3094 0.8774
C59_4 C 0.8750 1.0000 0.2500
C61_3 C 0.93600(19) 0.9806(2) 0.2036(2)
H33_3 H 0.9388 0.9563 0.2202
C63_3 C 0.9626(2) 0.9872(2) 0.1713(2)
H34_3 H 0.9849 0.9683 0.1666
C67_3 C 0.84524(17) 0.9624(2) 0.24090(19)
C68_3 C 0.81400(19) 0.9536(2) 0.2694(2)
H37_3 H 0.8112 0.9702 0.2937
C69_3 C 0.7923(2) 0.8952(2) 0.2285(2)
C70_3 C 0.7874(2) 0.9213(2) 0.2628(2)
H38_3 H 0.7651 0.9166 0.2817
C71_3 C 0.8230(2) 0.9054(2) 0.2010(3)
H39_3 H 0.8253 0.8896 0.1761
C72_3 C 0.7621(3) 0.8583(3) 0.2209(2)
C73_3 C 0.8501(2) 0.9365(2) 0.2072(3)
H40_3 H 0.8726 0.9406 0.1883
O24_2 O 0.98141(19) 0.94098(17) 0.41371(18)
C74_3 C 0.90476(17) 0.99090(19) 0.2876(2)
C76_3 C 0.9577(2) 0.9785(2) 0.3548(2)
C78_3 C 0.9270(2) 0.9510(3) 0.3446(2)
H43_3 H 0.9247 0.9261 0.3604
C79_3 C 0.9879(3) 0.9709(2) 0.3917(3)
C80_3 C 0.8999(2) 0.9572(3) 0.3135(2)
H44_3 H 0.8774 0.9383 0.3094
C1_6 C 0.2500 0.1250 0.5000
O2_4 O 0.41371(18) 0.01859(19) 0.55902(17)
C2_4 C 0.2876(2) 0.09524(17) 0.50910(19)
C3_4 C 0.2964(2) 0.06400(19) 0.4806(2)
H1_4 H 0.2798 0.0612 0.4563
C4_4 C 0.3548(2) 0.0423(2) 0.5215(2)
C5_4 C 0.3287(2) 0.0374(2) 0.4872(2)
H2_4 H 0.3334 0.0151 0.4683
C6_4 C 0.3446(2) 0.0730(2) 0.5490(3)
H3_4 H 0.3604 0.0753 0.5739
C7_4 C 0.3917(3) 0.0121(3) 0.5291(2)
C8_4 C 0.3135(2) 0.1001(2) 0.5428(3)
H4_4 H 0.3094 0.1226 0.5617
C9_4 C 0.25910(19) 0.15476(17) 0.4624(2)
C10_4 C 0.2306(2) 0.18600(19) 0.4536(2)
H5_4 H 0.2063 0.1888 0.4702
C11_4 C 0.2715(2) 0.2077(2) 0.3952(2)
C12_4 C 0.2372(2) 0.2126(2) 0.4213(2)
H6_4 H 0.2183 0.2349 0.4166
C13_4 C 0.2990(3) 0.1770(2) 0.4054(2)
H7_4 H 0.3239 0.1747 0.3896
C14_4 C 0.2791(2) 0.2379(3) 0.3583(3)
C15_4 C 0.2928(3) 0.1499(2) 0.4365(2)
H8_4 H 0.3117 0.1274 0.4406
O8_4 O 0.08629(18) 0.01859(19) 0.44098(17)
C16_4 C 0.2124(2) 0.09524(17) 0.49090(19)
C17_4 C 0.2036(2) 0.06400(19) 0.5194(2)
H9_4 H 0.2202 0.0612 0.5437
C18_4 C 0.1452(2) 0.0423(2) 0.4785(2)
C19_4 C 0.1713(2) 0.0374(2) 0.5128(2)
H10_4 H 0.1666 0.0151 0.5317
C20_4 C 0.1554(2) 0.0730(2) 0.4510(3)
H11_4 H 0.1396 0.0753 0.4261
C21_4 C 0.1083(3) 0.0121(3) 0.4709(2)
C22_4 C 0.1865(2) 0.1001(2) 0.4572(3)
H12_4 H 0.1906 0.1226 0.4383
O9_4 O 0.2462(2) 0.2675(2) 0.6465(2)
O10_4 O 0.19098(17) 0.23141(19) 0.66371(18)
C23_4 C 0.24090(19) 0.15476(17) 0.5376(2)
C24_4 C 0.2694(2) 0.18600(19) 0.5464(2)
H13_4 H 0.2937 0.1888 0.5298
C25_4 C 0.2285(2) 0.2077(2) 0.6048(2)
C26_4 C 0.2628(2) 0.2126(2) 0.5787(2)
H14_4 H 0.2817 0.2349 0.5834
C27_4 C 0.2010(3) 0.1770(2) 0.5946(2)
H15_4 H 0.1761 0.1747 0.6104
C28_4 C 0.2209(2) 0.2379(3) 0.6417(3)
C29_4 C 0.2072(3) 0.1499(2) 0.5635(2)
H16_4 H 0.1883 0.1274 0.5594
C59_5 C 0.6250 0.0000 0.7500
C61_4 C 0.56400(19) 0.0194(2) 0.7036(2)
H33_4 H 0.5612 0.0437 0.7202
C63_4 C 0.5374(2) 0.0128(2) 0.6713(2)
H34_4 H 0.5151 0.0317 0.6666
C67_4 C 0.65476(17) 0.0376(2) 0.74090(19)
C68_4 C 0.68600(19) 0.0464(2) 0.7694(2)
H37_4 H 0.6888 0.0298 0.7937
C69_4 C 0.7077(2) 0.1048(2) 0.7285(2)
C70_4 C 0.7126(2) 0.0787(2) 0.7628(2)
H38_4 H 0.7349 0.0834 0.7817
C71_4 C 0.6770(2) 0.0946(2) 0.7010(3)
H39_4 H 0.6747 0.1104 0.6761
C72_4 C 0.7379(3) 0.1417(3) 0.7209(2)
C73_4 C 0.6499(2) 0.0635(2) 0.7072(3)
H40_4 H 0.6274 0.0594 0.6883
C74_4 C 0.59524(17) 0.00910(19) 0.7876(2)
C76_4 C 0.5423(2) 0.0215(2) 0.8548(2)
C78_4 C 0.5730(2) 0.0490(3) 0.8446(2)
H43_4 H 0.5753 0.0739 0.8604
C79_4 C 0.5121(3) 0.0291(2) 0.8917(3)
C80_4 C 0.6001(2) 0.0428(3) 0.8135(2)
H44_4 H 0.6226 0.0617 0.8094
O1_4 O 0.3965(2) 0.9825(2) 0.5038(2)
U1_4 U 0.45755(2) 0.95755(2) 0.54245(2)
O3_4 O 0.42711(14) 0.92711(14) 0.57289(14)
O4_4 O 0.48837(16) 0.98837(16) 0.51163(16)
O7_4 O 0.1035(2) 0.9825(2) 0.4962(2)
O11_4 O 0.4962(2) 0.8965(2) 0.5175(2)
C30_6 C 0.5000 0.7500 0.3750
O12_4 O 0.44098(17) 0.91371(18) 0.48141(19)
C31_4 C 0.49090(19) 0.7876(2) 0.40476(17)
C32_4 C 0.5194(2) 0.7964(2) 0.43600(19)
H17_4 H 0.5437 0.7798 0.4388
C33_4 C 0.4785(2) 0.8548(2) 0.4577(2)
C34_4 C 0.5128(2) 0.8287(2) 0.4626(2)
H18_4 H 0.5317 0.8334 0.4849
C35_4 C 0.4510(3) 0.8446(2) 0.4270(2)
H19_4 H 0.4261 0.8604 0.4247
C36_4 C 0.4709(2) 0.8917(3) 0.4879(3)
C37_4 C 0.4572(3) 0.8135(2) 0.3999(2)
H20_4 H 0.4383 0.8094 0.3774
C38_4 C 0.5376(2) 0.75910(19) 0.34524(17)
C39_4 C 0.5464(2) 0.7306(2) 0.31400(19)
H21_4 H 0.5298 0.7063 0.3112
C40_4 C 0.6048(2) 0.7715(2) 0.2923(2)
C41_4 C 0.5787(2) 0.7372(2) 0.2874(2)
H22_4 H 0.5834 0.7183 0.2651
C42_4 C 0.5946(2) 0.7990(3) 0.3230(2)
H23_4 H 0.6104 0.8239 0.3253
C43_4 C 0.6417(3) 0.7791(2) 0.2621(3)
C44_4 C 0.5635(2) 0.7928(3) 0.3501(2)
H24_4 H 0.5594 0.8117 0.3726
C45_4 C 0.50910(19) 0.7124(2) 0.40476(17)
C46_4 C 0.4806(2) 0.7036(2) 0.43600(19)
H25_4 H 0.4563 0.7202 0.4388
C47_4 C 0.5215(2) 0.6452(2) 0.4577(2)
C48_4 C 0.4872(2) 0.6713(2) 0.4626(2)
H26_4 H 0.4683 0.6666 0.4849
C49_4 C 0.5490(3) 0.6554(2) 0.4270(2)
H27_4 H 0.5739 0.6396 0.4247
C50_4 C 0.5291(2) 0.6083(3) 0.4879(3)
C51_4 C 0.5428(3) 0.6865(2) 0.3999(2)
H28_4 H 0.5617 0.6906 0.3774
O17_4 O 0.3535(2) 0.7462(2) 0.2325(2)
O18_4 O 0.33629(18) 0.69098(17) 0.26859(19)
C52_4 C 0.4624(2) 0.74090(19) 0.34524(17)
C53_4 C 0.4536(2) 0.7694(2) 0.31400(19)
H29_4 H 0.4702 0.7937 0.3112
C54_4 C 0.3952(2) 0.7285(2) 0.2923(2)
C55_4 C 0.4213(2) 0.7628(2) 0.2874(2)
H30_4 H 0.4166 0.7817 0.2651
C56_4 C 0.4054(2) 0.7010(3) 0.3230(2)
H31_4 H 0.3896 0.6761 0.3253
C57_4 C 0.3583(3) 0.7209(2) 0.2621(3)
C58_4 C 0.4365(2) 0.7072(3) 0.3501(2)
H32_4 H 0.4406 0.6883 0.3726
O19_4 O 0.4825(2) 0.9962(2) 0.6035(2)
C59_6 C 0.6250 1.0000 0.7500
O20_4 O 0.51859(19) 0.94098(17) 0.58629(18)
C60_4 C 0.59524(17) 0.99090(19) 0.7124(2)
C62_4 C 0.5423(2) 0.9785(2) 0.6452(2)
C64_4 C 0.5730(2) 0.9510(3) 0.6554(2)
H35_4 H 0.5753 0.9261 0.6396
C65_4 C 0.5121(3) 0.9709(2) 0.6083(3)
C66_4 C 0.6001(2) 0.9572(3) 0.6865(2)
H36_4 H 0.6226 0.9383 0.6906
C75_4 C 0.56400(19) 0.9806(2) 0.7964(2)
H41_4 H 0.5612 0.9563 0.7798
C77_4 C 0.5374(2) 0.9872(2) 0.8287(2)
H42_4 H 0.5151 0.9683 0.8334
O25_4 O 0.7675(2) 0.8535(2) 0.7538(2)
O26_4 O 0.73141(19) 0.83629(18) 0.80902(17)
C81_4 C 0.65476(17) 0.9624(2) 0.75910(19)
C82_4 C 0.68600(19) 0.9536(2) 0.7306(2)
H45_4 H 0.6888 0.9702 0.7063
C83_4 C 0.7077(2) 0.8952(2) 0.7715(2)
C84_4 C 0.7126(2) 0.9213(2) 0.7372(2)
H46_4 H 0.7349 0.9166 0.7183
C85_4 C 0.6770(2) 0.9054(2) 0.7990(3)
H47_4 H 0.6747 0.8896 0.8239
C86_4 C 0.7379(3) 0.8583(3) 0.7791(2)
C87_4 C 0.6499(2) 0.9365(2) 0.7928(3)
H48_4 H 0.6274 0.9406 0.8117
O31_4 O 0.07289(14) 0.92711(14) 0.42711(14)
O32_4 O 0.01163(16) 0.98837(16) 0.48837(16)
O31_5 O 0.82289(14) 0.82289(14) 0.82289(14)
O32_5 O 0.76163(16) 0.76163(16) 0.76163(16)
O31_6 O 0.67711(14) 0.17711(14) 0.32289(14)
O32_6 O 0.73837(16) 0.23837(16) 0.26163(16)
O31_7 O 0.32289(14) 0.67711(14) 0.17711(14)
O32_7 O 0.26163(16) 0.73837(16) 0.23837(16)
O31_8 O 0.17711(14) 0.32289(14) 0.67711(14)
O32_8 O 0.23837(16) 0.26163(16) 0.73837(16)
loop_
_geom_bond_atom_site_label_1
_geom_bond_atom_site_label_2
_geom_bond_site_symmetry_1
_geom_bond_site_symmetry_2
C32 H17 1_555 1_555
C34 C32 1_555 1_555
H18 C34 1_555 1_555
O13 C43 1_555 1_555
O14 C43 1_555 1_555
C38 C30 1_555 1_555
C39 C38 1_555 1_555
H21 C39 1_555 1_555
C40 C41 1_555 1_555
C41 C39 1_555 1_555
H22 C41 1_555 1_555
C42 C40 1_555 1_555
H23 C42 1_555 1_555
C43 C40 1_555 1_555
C44 C38 1_555 1_555
H24 C44 1_555 1_555
O15 C50 1_555 1_555
O16 C50 1_555 1_555
C45 C30 1_555 1_555
C49 C47 1_555 1_555
H27 C49 1_555 1_555
C50 C47 1_555 1_555
C51 C45 1_555 1_555
H28 C51 1_555 1_555
C59 C60 1_555 1_555
C60 C61 1_555 1_555
C61 H33 1_555 1_555
C62 C63 1_555 1_555
C63 C61 1_555 1_555
H34 C63 1_555 1_555
C64 C62 1_555 1_555
H35 C64 1_555 1_555
C66 C60 1_555 1_555
H36 C66 1_555 1_555
O21 C72 1_555 1_555
O22 C72 1_555 1_555
C67 C59 1_555 1_555
C68 C67 1_555 1_555
H37 C68 1_555 1_555
C69 C70 1_555 1_555
C70 C68 1_555 1_555
H38 C70 1_555 1_555
C71 C69 1_555 1_555
H39 C71 1_555 1_555
C72 C69 1_555 1_555
C73 C67 1_555 1_555
H40 C73 1_555 1_555
O24 C79 1_555 1_555
C74 C59 1_555 1_555
C75 C74 1_555 1_555
H41 C75 1_555 1_555
C76 C77 1_555 1_555
C77 C75 1_555 1_555
H42 C77 1_555 1_555
C78 C76 1_555 1_555
H43 C78 1_555 1_555
C79 C76 1_555 1_555
C80 C74 1_555 1_555
H44 C80 1_555 1_555
O25 C86 1_555 1_555
O26 C86 1_555 1_555
C81 C59 1_555 1_555
C82 C81 1_555 1_555
H45 C82 1_555 1_555
C83 C84 1_555 1_555
C84 C82 1_555 1_555
H46 C84 1_555 1_555
C85 C83 1_555 1_555
H47 C85 1_555 1_555
C86 C83 1_555 1_555
C87 C81 1_555 1_555
H48 C87 1_555 1_555
U2 O21 1_555 1_555
O27 U2 1_555 1_555
O28 U2 1_555 1_555
O35 U2 1_555 1_555
O36 U2 1_555 1_555
U5 O13 1_555 1_555
U6 O15 1_555 1_555
U8 O25 1_555 1_555
O41 U2 1_555 1_555
O42 U2 1_555 1_555
O14 U5 1_555 1_555
C42 C44 1_555 1_555
O16 U6 1_555 1_555
C49 C51 1_555 1_555
O20 C65 1_555 1_555
C62 C65 1_555 1_555
C64 C66 1_555 1_555
O22 U2 1_555 1_555
C71 C73 1_555 1_555
C78 C80 1_555 1_555
O26 U8 1_555 1_555
C85 C87 1_555 1_555
O1 U1 1_555 1_555
U1 O2 1_555 1_555
C1 C2 1_555 1_555
O2 C7 1_555 1_555
C2 C3 1_555 1_555
C3 H1 1_555 1_555
O3 U1 1_555 1_555
C4 C5 1_555 1_555
C5 C3 1_555 1_555
H2 C5 1_555 1_555
C6 C4 1_555 1_555
H3 C6 1_555 1_555
C7 O1 1_555 1_555
C8 C2 1_555 1_555
H4 C8 1_555 1_555
O4 U1 1_555 1_555
O5 C14 1_555 1_555
O6 C14 1_555 1_555
C9 C1 1_555 1_555
C10 C9 1_555 1_555
H5 C10 1_555 1_555
C11 C12 1_555 1_555
C12 C10 1_555 1_555
H6 C12 1_555 1_555
C13 C11 1_555 1_555
H7 C13 1_555 1_555
C14 C11 1_555 1_555
C15 C9 1_555 1_555
H8 C15 1_555 1_555
O7 C21 1_555 1_555
O8 C21 1_555 1_555
C16 C1 1_555 1_555
C17 C16 1_555 1_555
H9 C17 1_555 1_555
C18 C19 1_555 1_555
C19 C17 1_555 1_555
H10 C19 1_555 1_555
C20 C18 1_555 1_555
H11 C20 1_555 1_555
C21 C18 1_555 1_555
C22 C16 1_555 1_555
H12 C22 1_555 1_555
O9 C28 1_555 1_555
O10 C28 1_555 1_555
C23 C1 1_555 1_555
C24 C23 1_555 1_555
H13 C24 1_555 1_555
C25 C26 1_555 1_555
C26 C24 1_555 1_555
H14 C26 1_555 1_555
C27 C25 1_555 1_555
H15 C27 1_555 1_555
C28 C25 1_555 1_555
C29 C23 1_555 1_555
H16 C29 1_555 1_555
O11 U1 1_555 1_555
C30_2 C31 1_555 1_555
O12 U1 1_555 1_555
C35 C33 1_555 1_555
H19 C35 1_555 1_555
C36 O11 1_555 1_555
C37 C31 1_555 1_555
H20 C37 1_555 1_555
H25 C46 1_555 1_555
C48 C46 1_555 1_555
H26 C48 1_555 1_555
O17 C57 1_555 1_555
O18 C57 1_555 1_555
C52 C30_2 1_555 1_555
C53 C52 1_555 1_555
H29 C53 1_555 1_555
C54 C55 1_555 1_555
C55 C53 1_555 1_555
H30 C55 1_555 1_555
C56 C54 1_555 1_555
H31 C56 1_555 1_555
C57 C54 1_555 1_555
C58 C52 1_555 1_555
H32 C58 1_555 1_555
O19 U1 1_555 1_555
U3 O5 1_555 1_555
O29 U3 1_555 1_555
O30 U3 1_555 1_555
U4 O7 1_555 1_555
O31 U4 1_555 1_555
O32 U4 1_555 1_555
O33 U3 1_555 1_555
O34 U3 1_555 1_555
O37 U4 1_555 1_555
O38 U4 1_555 1_555
U7 O23 1_555 1_555
U9 O17 1_555 1_555
U10 O9 1_555 1_555
O39 U3 1_555 1_555
O40 U3 1_555 1_555
O43 U4 1_555 1_555
O44 U4 1_555 1_555
C4 C7 1_555 1_555
C6 C8 1_555 1_555
O6 U3 1_555 1_555
C13 C15 1_555 1_555
O8 U4 1_555 1_555
C20 C22 1_555 1_555
O10 U10 1_555 1_555
C27 C29 1_555 1_555
O12 C36 1_555 1_555
C33 C36 1_555 1_555
C35 C37 1_555 1_555
O18 U9 1_555 1_555
C56 C58 1_555 1_555
C3_2 H1_2 1_555 1_555
C5_2 C3_2 1_555 1_555
H2_2 C5_2 1_555 1_555
O5_2 C14_2 1_555 1_555
O6_2 C14_2 1_555 1_555
C9_2 C1_2 1_555 1_555
C10_2 C9_2 1_555 1_555
H5_2 C10_2 1_555 1_555
C11_2 C12_2 1_555 1_555
C12_2 C10_2 1_555 1_555
H6_2 C12_2 1_555 1_555
C13_2 C11_2 1_555 1_555
H7_2 C13_2 1_555 1_555
C14_2 C11_2 1_555 1_555
C15_2 C9_2 1_555 1_555
H8_2 C15_2 1_555 1_555
O7_2 C21_2 1_555 1_555
O8_2 C21_2 1_555 1_555
C16_2 C1_2 1_555 1_555
C20_2 C18_2 1_555 1_555
H11_2 C20_2 1_555 1_555
C21_2 C18_2 1_555 1_555
C22_2 C16_2 1_555 1_555
H12_2 C22_2 1_555 1_555
C30_3 C31_2 1_555 1_555
C31_2 C32_2 1_555 1_555
C32_2 H17_2 1_555 1_555
C33_2 C34_2 1_555 1_555
C34_2 C32_2 1_555 1_555
H18_2 C34_2 1_555 1_555
C35_2 C33_2 1_555 1_555
H19_2 C35_2 1_555 1_555
C37_2 C31_2 1_555 1_555
H20_2 C37_2 1_555 1_555
O35 C43_2 1_555 1_555
O41 C43_2 1_555 1_555
C38_2 C30_3 1_555 1_555
C39_2 C38_2 1_555 1_555
H21_2 C39_2 1_555 1_555
C40_2 C41_2 1_555 1_555
C41_2 C39_2 1_555 1_555
H22_2 C41_2 1_555 1_555
C42_2 C40_2 1_555 1_555
H23_2 C42_2 1_555 1_555
C43_2 C40_2 1_555 1_555
C44_2 C38_2 1_555 1_555
H24_2 C44_2 1_555 1_555
O16_2 C50_2 1_555 1_555
C45_2 C30_3 1_555 1_555
C46_2 C45_2 1_555 1_555
H25_2 C46_2 1_555 1_555
C47_2 C48_2 1_555 1_555
C48_2 C46_2 1_555 1_555
H26_2 C48_2 1_555 1_555
C49_2 C47_2 1_555 1_555
H27_2 C49_2 1_555 1_555
C50_2 C47_2 1_555 1_555
C51_2 C45_2 1_555 1_555
H28_2 C51_2 1_555 1_555
O17_2 C57_2 1_555 1_555
O18_2 C57_2 1_555 1_555
C52_2 C30_3 1_555 1_555
C53_2 C52_2 1_555 1_555
H29_2 C53_2 1_555 1_555
C54_2 C55_2 1_555 1_555
C55_2 C53_2 1_555 1_555
H30_2 C55_2 1_555 1_555
C56_2 C54_2 1_555 1_555
H31_2 C56_2 1_555 1_555
C57_2 C54_2 1_555 1_555
C58_2 C52_2 1_555 1_555
H32_2 C58_2 1_555 1_555
U3_2 O5_2 1_555 1_555
O29_2 U3_2 1_555 1_555
O30_2 U3_2 1_555 1_555
U7 O7_2 1_555 1_555
O31_2 U7 1_555 1_555
O32_2 U7 1_555 1_555
O33_2 U3_2 1_555 1_555
O34_2 U3_2 1_555 1_555
O37_2 U7 1_555 1_555
U10 O17_2 1_555 1_555
O39_2 U3_2 1_555 1_555
O40_2 U3_2 1_555 1_555
O6_2 U3_2 1_555 1_555
C13_2 C15_2 1_555 1_555
O8_2 U7 1_555 1_555
C20_2 C22_2 1_555 1_555
O12_2 C36_2 1_555 1_555
C33_2 C36_2 1_555 1_555
C35_2 C37_2 1_555 1_555
C42_2 C44_2 1_555 1_555
C49_2 C51_2 1_555 1_555
O18_2 U10 1_555 1_555
C56_2 C58_2 1_555 1_555
O1_2 U1_2 1_555 1_555
U1_2 O2_2 1_555 1_555
C1_3 C2_2 1_555 1_555
O2_2 C7_2 1_555 1_555
O3_2 U1_2 1_555 1_555
C6_2 C4_2 1_555 1_555
H3_2 C6_2 1_555 1_555
C7_2 O1_2 1_555 1_555
C8_2 C2_2 1_555 1_555
H4_2 C8_2 1_555 1_555
O4_2 U1_2 1_555 1_555
H9_2 C17_2 1_555 1_555
C19_2 C17_2 1_555 1_555
H10_2 C19_2 1_555 1_555
O9_2 C28_2 1_555 1_555
O10_2 C28_2 1_555 1_555
C23_2 C1_3 1_555 1_555
C24_2 C23_2 1_555 1_555
H13_2 C24_2 1_555 1_555
C25_2 C26_2 1_555 1_555
C26_2 C24_2 1_555 1_555
H14_2 C26_2 1_555 1_555
C27_2 C25_2 1_555 1_555
H15_2 C27_2 1_555 1_555
C28_2 C25_2 1_555 1_555
C29_2 C23_2 1_555 1_555
H16_2 C29_2 1_555 1_555
O11_2 U1_2 1_555 1_555
O19_2 U1_2 1_555 1_555
C59_2 C60_2 1_555 1_555
O20_2 U1_2 1_555 1_555
C60_2 C61_2 1_555 1_555
C61_2 H33_2 1_555 1_555
C62_2 C63_2 1_555 1_555
C63_2 C61_2 1_555 1_555
H34_2 C63_2 1_555 1_555
C64_2 C62_2 1_555 1_555
H35_2 C64_2 1_555 1_555
C65_2 O19_2 1_555 1_555
C66_2 C60_2 1_555 1_555
H36_2 C66_2 1_555 1_555
O21_2 C72_2 1_555 1_555
O22_2 C72_2 1_555 1_555
C67_2 C59_2 1_555 1_555
C68_2 C67_2 1_555 1_555
H37_2 C68_2 1_555 1_555
C69_2 C70_2 1_555 1_555
C70_2 C68_2 1_555 1_555
H38_2 C70_2 1_555 1_555
C71_2 C69_2 1_555 1_555
H39_2 C71_2 1_555 1_555
C72_2 C69_2 1_555 1_555
C73_2 C67_2 1_555 1_555
H40_2 C73_2 1_555 1_555
O38 C79_2 1_555 1_555
O44 C79_2 1_555 1_555
C74_2 C59_2 1_555 1_555
C75_2 C74_2 1_555 1_555
H41_2 C75_2 1_555 1_555
C76_2 C77_2 1_555 1_555
C77_2 C75_2 1_555 1_555
H42_2 C77_2 1_555 1_555
C78_2 C76_2 1_555 1_555
H43_2 C78_2 1_555 1_555
C79_2 C76_2 1_555 1_555
C80_2 C74_2 1_555 1_555
H44_2 C80_2 1_555 1_555
O25_2 C86_2 1_555 1_555
O26_2 C86_2 1_555 1_555
C81_2 C59_2 1_555 1_555
C82_2 C81_2 1_555 1_555
H45_2 C82_2 1_555 1_555
C83_2 C84_2 1_555 1_555
C84_2 C82_2 1_555 1_555
H46_2 C84_2 1_555 1_555
C85_2 C83_2 1_555 1_555
H47_2 C85_2 1_555 1_555
C86_2 C83_2 1_555 1_555
C87_2 C81_2 1_555 1_555
H48_2 C87_2 1_555 1_555
U5 O21_2 1_555 1_555
O27_2 U5 1_555 1_555
O28_2 U5 1_555 1_555
O36_2 U5 1_555 1_555
U6_2 O15_2 1_555 1_555
U8_2 O25_2 1_555 1_555
U9 O9_2 1_555 1_555
O42_2 U5 1_555 1_555
C4_2 C7_2 1_555 1_555
C6_2 C8_2 1_555 1_555
O10_2 U9 1_555 1_555
C27_2 C29_2 1_555 1_555
O20_2 C65_2 1_555 1_555
C62_2 C65_2 1_555 1_555
C64_2 C66_2 1_555 1_555
O22_2 U5 1_555 1_555
C71_2 C73_2 1_555 1_555
C78_2 C80_2 1_555 1_555
O26_2 U8_2 1_555 1_555
C85_2 C87_2 1_555 1_555
O1_3 U1_3 1_555 1_555
O3_3 U1_3 1_555 1_555
O4_3 U1_3 1_555 1_555
O11_3 U1_3 1_555 1_555
O19_3 U1_3 1_555 1_555
C30_4 C31_3 1_555 1_555
C35_3 C33_3 1_555 1_555
H19_3 C35_3 1_555 1_555
C37_3 C31_3 1_555 1_555
H20_3 C37_3 1_555 1_555
H25_3 C46_3 1_555 1_555
C48_3 C46_3 1_555 1_555
H26_3 C48_3 1_555 1_555
O17_3 C57_3 1_555 1_555
O18_3 C57_3 1_555 1_555
C52_3 C30_4 1_555 1_555
C53_3 C52_3 1_555 1_555
H29_3 C53_3 1_555 1_555
C54_3 C55_3 1_555 1_555
C55_3 C53_3 1_555 1_555
H30_3 C55_3 1_555 1_555
C56_3 C54_3 1_555 1_555
H31_3 C56_3 1_555 1_555
C57_3 C54_3 1_555 1_555
C58_3 C52_3 1_555 1_555
H32_3 C58_3 1_555 1_555
U6_2 O7_3 1_555 1_555
O31_3 U6_2 1_555 1_555
O32_3 U6_2 1_555 1_555
O38_2 U6_2 1_555 1_555
U8_2 O17_3 1_555 1_555
O44_2 U6_2 1_555 1_555
O12_3 C36_3 1_555 1_555
C33_3 C36_3 1_555 1_555
C35_3 C37_3 1_555 1_555
O18_3 U8_2 1_555 1_555
C56_3 C58_3 1_555 1_555
C1_4 C2_3 1_555 1_555
O2_3 C7_3 1_555 1_555
C6_3 C4_3 1_555 1_555
H3_3 C6_3 1_555 1_555
C8_3 C2_3 1_555 1_555
H4_3 C8_3 1_555 1_555
H9_3 C17_3 1_555 1_555
C19_3 C17_3 1_555 1_555
H10_3 C19_3 1_555 1_555
O9_3 C28_3 1_555 1_555
O10_3 C28_3 1_555 1_555
C23_3 C1_4 1_555 1_555
C24_3 C23_3 1_555 1_555
H13_3 C24_3 1_555 1_555
C25_3 C26_3 1_555 1_555
C26_3 C24_3 1_555 1_555
H14_3 C26_3 1_555 1_555
C27_3 C25_3 1_555 1_555
H15_3 C27_3 1_555 1_555
C28_3 C25_3 1_555 1_555
C29_3 C23_3 1_555 1_555
H16_3 C29_3 1_555 1_555
U6 O23_2 1_555 1_555
U8 O9_3 1_555 1_555
C4_3 C7_3 1_555 1_555
C6_3 C8_3 1_555 1_555
O10_3 U8 1_555 1_555
C27_3 C29_3 1_555 1_555
C3_3 H1_3 1_555 1_555
C5_3 C3_3 1_555 1_555
H2_3 C5_3 1_555 1_555
O36_2 C14_3 1_555 1_555
O42_2 C14_3 1_555 1_555
C9_3 C1_5 1_555 1_555
C10_3 C9_3 1_555 1_555
H5_3 C10_3 1_555 1_555
C11_3 C12_3 1_555 1_555
C12_3 C10_3 1_555 1_555
H6_3 C12_3 1_555 1_555
C13_3 C11_3 1_555 1_555
H7_3 C13_3 1_555 1_555
C14_3 C11_3 1_555 1_555
C15_3 C9_3 1_555 1_555
H8_3 C15_3 1_555 1_555
O8_3 C21_3 1_555 1_555
C16_3 C1_5 1_555 1_555
C20_3 C18_3 1_555 1_555
H11_3 C20_3 1_555 1_555
C21_3 C18_3 1_555 1_555
C22_3 C16_3 1_555 1_555
H12_3 C22_3 1_555 1_555
C13_3 C15_3 1_555 1_555
C20_3 C22_3 1_555 1_555
C59_3 C60_3 1_555 1_555
C64_3 C62_3 1_555 1_555
H35_3 C64_3 1_555 1_555
C66_3 C60_3 1_555 1_555
H36_3 C66_3 1_555 1_555
H41_3 C75_3 1_555 1_555
C77_3 C75_3 1_555 1_555
H42_3 C77_3 1_555 1_555
O25_3 C86_3 1_555 1_555
O26_3 C86_3 1_555 1_555
C81_3 C59_3 1_555 1_555
C82_3 C81_3 1_555 1_555
H45_3 C82_3 1_555 1_555
C83_3 C84_3 1_555 1_555
C84_3 C82_3 1_555 1_555
H46_3 C84_3 1_555 1_555
C85_3 C83_3 1_555 1_555
H47_3 C85_3 1_555 1_555
C86_3 C83_3 1_555 1_555
C87_3 C81_3 1_555 1_555
H48_3 C87_3 1_555 1_555
U10 O25_3 1_555 1_555
O20_3 C65_3 1_555 1_555
C62_3 C65_3 1_555 1_555
C64_3 C66_3 1_555 1_555
O26_3 U10 1_555 1_555
C85_3 C87_3 1_555 1_555
C32_3 H17_3 1_555 1_555
C34_3 C32_3 1_555 1_555
H18_3 C34_3 1_555 1_555
O34 C43_3 1_555 1_555
O40 C43_3 1_555 1_555
C38_3 C30_5 1_555 1_555
C39_3 C38_3 1_555 1_555
H21_3 C39_3 1_555 1_555
C40_3 C41_3 1_555 1_555
C41_3 C39_3 1_555 1_555
H22_3 C41_3 1_555 1_555
C42_3 C40_3 1_555 1_555
H23_3 C42_3 1_555 1_555
C43_3 C40_3 1_555 1_555
C44_3 C38_3 1_555 1_555
H24_3 C44_3 1_555 1_555
O43_2 C50_3 1_555 1_555
C45_3 C30_5 1_555 1_555
C49_3 C47_3 1_555 1_555
H27_3 C49_3 1_555 1_555
C50_3 C47_3 1_555 1_555
C51_3 C45_3 1_555 1_555
H28_3 C51_3 1_555 1_555
C42_3 C44_3 1_555 1_555
C49_3 C51_3 1_555 1_555
C61_3 H33_3 1_555 1_555
C63_3 C61_3 1_555 1_555
H34_3 C63_3 1_555 1_555
O33_2 C72_3 1_555 1_555
O39_2 C72_3 1_555 1_555
C67_3 C59_4 1_555 1_555
C68_3 C67_3 1_555 1_555
H37_3 C68_3 1_555 1_555
C69_3 C70_3 1_555 1_555
C70_3 C68_3 1_555 1_555
H38_3 C70_3 1_555 1_555
C71_3 C69_3 1_555 1_555
H39_3 C71_3 1_555 1_555
C72_3 C69_3 1_555 1_555
C73_3 C67_3 1_555 1_555
H40_3 C73_3 1_555 1_555
O24_2 C79_3 1_555 1_555
C74_3 C59_4 1_555 1_555
C78_3 C76_3 1_555 1_555
H43_3 C78_3 1_555 1_555
C79_3 C76_3 1_555 1_555
C80_3 C74_3 1_555 1_555
H44_3 C80_3 1_555 1_555
C71_3 C73_3 1_555 1_555
C78_3 C80_3 1_555 1_555
C1_6 C2_4 1_555 1_555
O2_4 C7_4 1_555 1_555
C2_4 C3_4 1_555 1_555
C3_4 H1_4 1_555 1_555
C4_4 C5_4 1_555 1_555
C5_4 C3_4 1_555 1_555
H2_4 C5_4 1_555 1_555
C6_4 C4_4 1_555 1_555
H3_4 C6_4 1_555 1_555
C8_4 C2_4 1_555 1_555
H4_4 C8_4 1_555 1_555
O36 C14_4 1_555 1_555
O42 C14_4 1_555 1_555
C9_4 C1_6 1_555 1_555
C10_4 C9_4 1_555 1_555
H5_4 C10_4 1_555 1_555
C11_4 C12_4 1_555 1_555
C12_4 C10_4 1_555 1_555
H6_4 C12_4 1_555 1_555
C13_4 C11_4 1_555 1_555
H7_4 C13_4 1_555 1_555
C14_4 C11_4 1_555 1_555
C15_4 C9_4 1_555 1_555
H8_4 C15_4 1_555 1_555
O8_4 C21_4 1_555 1_555
C16_4 C1_6 1_555 1_555
C17_4 C16_4 1_555 1_555
H9_4 C17_4 1_555 1_555
C18_4 C19_4 1_555 1_555
C19_4 C17_4 1_555 1_555
H10_4 C19_4 1_555 1_555
C20_4 C18_4 1_555 1_555
H11_4 C20_4 1_555 1_555
C21_4 C18_4 1_555 1_555
C22_4 C16_4 1_555 1_555
H12_4 C22_4 1_555 1_555
O9_4 C28_4 1_555 1_555
O10_4 C28_4 1_555 1_555
C23_4 C1_6 1_555 1_555
C24_4 C23_4 1_555 1_555
H13_4 C24_4 1_555 1_555
C25_4 C26_4 1_555 1_555
C26_4 C24_4 1_555 1_555
H14_4 C26_4 1_555 1_555
C27_4 C25_4 1_555 1_555
H15_4 C27_4 1_555 1_555
C28_4 C25_4 1_555 1_555
C29_4 C23_4 1_555 1_555
H16_4 C29_4 1_555 1_555
C61_4 H33_4 1_555 1_555
C63_4 C61_4 1_555 1_555
H34_4 C63_4 1_555 1_555
O33 C72_4 1_555 1_555
O39 C72_4 1_555 1_555
C67_4 C59_5 1_555 1_555
C68_4 C67_4 1_555 1_555
H37_4 C68_4 1_555 1_555
C69_4 C70_4 1_555 1_555
C70_4 C68_4 1_555 1_555
H38_4 C70_4 1_555 1_555
C71_4 C69_4 1_555 1_555
H39_4 C71_4 1_555 1_555
C72_4 C69_4 1_555 1_555
C73_4 C67_4 1_555 1_555
H40_4 C73_4 1_555 1_555
O38_2 C79_4 1_555 1_555
O44_2 C79_4 1_555 1_555
C74_4 C59_5 1_555 1_555
C78_4 C76_4 1_555 1_555
H43_4 C78_4 1_555 1_555
C79_4 C76_4 1_555 1_555
C80_4 C74_4 1_555 1_555
H44_4 C80_4 1_555 1_555
U8_2 O9_4 1_555 1_555
C4_4 C7_4 1_555 1_555
C6_4 C8_4 1_555 1_555
C13_4 C15_4 1_555 1_555
C20_4 C22_4 1_555 1_555
O10_4 U8_2 1_555 1_555
C27_4 C29_4 1_555 1_555
C71_4 C73_4 1_555 1_555
C78_4 C80_4 1_555 1_555
O1_4 U1_4 1_555 1_555
O3_4 U1_4 1_555 1_555
O4_4 U1_4 1_555 1_555
O11_4 U1_4 1_555 1_555
C30_6 C31_4 1_555 1_555
O12_4 U1_4 1_555 1_555
C31_4 C32_4 1_555 1_555
C32_4 H17_4 1_555 1_555
C33_4 C34_4 1_555 1_555
C34_4 C32_4 1_555 1_555
H18_4 C34_4 1_555 1_555
C35_4 C33_4 1_555 1_555
H19_4 C35_4 1_555 1_555
C36_4 O11_4 1_555 1_555
C37_4 C31_4 1_555 1_555
H20_4 C37_4 1_555 1_555
O34_2 C43_4 1_555 1_555
O40_2 C43_4 1_555 1_555
C38_4 C30_6 1_555 1_555
C39_4 C38_4 1_555 1_555
H21_4 C39_4 1_555 1_555
C40_4 C41_4 1_555 1_555
C41_4 C39_4 1_555 1_555
H22_4 C41_4 1_555 1_555
C42_4 C40_4 1_555 1_555
H23_4 C42_4 1_555 1_555
C43_4 C40_4 1_555 1_555
C44_4 C38_4 1_555 1_555
H24_4 C44_4 1_555 1_555
O37 C50_4 1_555 1_555
O43 C50_4 1_555 1_555
C45_4 C30_6 1_555 1_555
C46_4 C45_4 1_555 1_555
H25_4 C46_4 1_555 1_555
C47_4 C48_4 1_555 1_555
C48_4 C46_4 1_555 1_555
H26_4 C48_4 1_555 1_555
C49_4 C47_4 1_555 1_555
H27_4 C49_4 1_555 1_555
C50_4 C47_4 1_555 1_555
C51_4 C45_4 1_555 1_555
H28_4 C51_4 1_555 1_555
O17_4 C57_4 1_555 1_555
O18_4 C57_4 1_555 1_555
C52_4 C30_6 1_555 1_555
C53_4 C52_4 1_555 1_555
H29_4 C53_4 1_555 1_555
C54_4 C55_4 1_555 1_555
C55_4 C53_4 1_555 1_555
H30_4 C55_4 1_555 1_555
C56_4 C54_4 1_555 1_555
H31_4 C56_4 1_555 1_555
C57_4 C54_4 1_555 1_555
C58_4 C52_4 1_555 1_555
H32_4 C58_4 1_555 1_555
O19_4 U1_4 1_555 1_555
C59_6 C60_4 1_555 1_555
O20_4 U1_4 1_555 1_555
C64_4 C62_4 1_555 1_555
H35_4 C64_4 1_555 1_555
C65_4 O19_4 1_555 1_555
C66_4 C60_4 1_555 1_555
H36_4 C66_4 1_555 1_555
H41_4 C75_4 1_555 1_555
C77_4 C75_4 1_555 1_555
H42_4 C77_4 1_555 1_555
O25_4 C86_4 1_555 1_555
O26_4 C86_4 1_555 1_555
C81_4 C59_6 1_555 1_555
C82_4 C81_4 1_555 1_555
H45_4 C82_4 1_555 1_555
C83_4 C84_4 1_555 1_555
C84_4 C82_4 1_555 1_555
H46_4 C84_4 1_555 1_555
C85_4 C83_4 1_555 1_555
H47_4 C85_4 1_555 1_555
C86_4 C83_4 1_555 1_555
C87_4 C81_4 1_555 1_555
H48_4 C87_4 1_555 1_555
U6 O7_4 1_555 1_555
O31_4 U6 1_555 1_555
O32_4 U6 1_555 1_555
U9 O25_4 1_555 1_555
U8 O17_4 1_555 1_555
O12_4 C36_4 1_555 1_555
C33_4 C36_4 1_555 1_555
C35_4 C37_4 1_555 1_555
C42_4 C44_4 1_555 1_555
C49_4 C51_4 1_555 1_555
O18_4 U8 1_555 1_555
C56_4 C58_4 1_555 1_555
O20_4 C65_4 1_555 1_555
C62_4 C65_4 1_555 1_555
C64_4 C66_4 1_555 1_555
O26_4 U9 1_555 1_555
C85_4 C87_4 1_555 1_555
O31_5 U9 1_555 1_555
O32_5 U9 1_555 1_555
O31_6 U10 1_555 1_555
O32_6 U10 1_555 1_555
O31_7 U8 1_555 1_555
O32_7 U8 1_555 1_555
O31_8 U8_2 1_555 1_555
O32_8 U8_2 1_555 1_555

#END
