
###############################################################################
#
# This file contains modified crystal structure data generated from the
# MOF subset of the Cambridge Structural Database (CSD) v543 
# hosted by the Cambridge Crystallographic Data Centre (CCDC).
#
# This work is licensed under the Creative Commons
# Attribution-NonCommercial-ShareAlike 4.0 International License.
# To view a copy of this license, visit
# http://creativecommons.org/licenses/by-nc-sa/4.0/
# or send a letter to
# Creative Commons, PO Box 1866, Mountain View, CA 94042, USA.
#
# CIF created using the CSD Python API on 29 September 2022
# The structure has been converted into the P1 space group
# The structure has a 3D framework
# The original CSD entry VANPAD is in the monoclinic crystal system
# The framework has been calculated to contain at least 10.0% void space
# The void calculation uses a probe of radius 1.32A, grid spacing 0.4
#
###############################################################################

data_VANPAD
_chemical_formula_moiety         '(C150 H136 Cu8 N32 O38)n'
_symmetry_cell_setting           triclinic
_symmetry_space_group_name_H-M   'P 1'
_symmetry_Int_Tables_number      1
_space_group_name_Hall           'P 1'
loop_
_symmetry_equiv_pos_site_id
_symmetry_equiv_pos_as_xyz
1 x,y,z
_cell_length_a                   23.137(4)
_cell_length_b                   13.545(2)
_cell_length_c                   16.533(5)
_cell_angle_alpha                90
_cell_angle_beta                 128.672(2)
_cell_angle_gamma                90
_cell_volume                     4045.22
loop_
_atom_site_label
_atom_site_type_symbol
_atom_site_fract_x
_atom_site_fract_y
_atom_site_fract_z
C12 C 0.0004(3) 0.2208(5) 0.4391(5)
H6 H 0.0499 0.2203 0.4979
H7 H 0.0268 0.0480 0.3694
C14 C 0.0256(3) 0.0020(5) 0.4865(5)
H10 H 0.0687 0.0411 0.5384
H9 H 0.0425 0.9356 0.4891
Cu2 Cu 0.20019(3) 0.64402(4) 0.78137(4)
C28 C 0.1064(3) 0.8233(4) 0.7007(4)
H21 H 0.1437 0.8620 0.7557
C29 C 0.0466(3) 0.7035(5) 0.5954(4)
H22 H 0.0353 0.6420 0.5639
C31 C 0.0095(4) 0.9546(5) 0.6192(5)
H25 H 0.0499 0.9966 0.6721
N5 N 0.1150(2) 0.7314(3) 0.6858(3)
N6 N 0.0375(3) 0.8547(3) 0.6274(4)
N8 N 0.2588(2) 0.5423(3) 0.8890(3)
O7 O 0.24773(18) 0.7454(2) 0.8889(2)
O12 O 0.1638(3) 0.5577(3) 0.6652(3)
Cu6 Cu 0.29981(3) 0.14402(4) 0.71863(4)
C33 C 0.2035(3) 0.0516(4) 0.5074(4)
H28 H 0.1989 0.1102 0.4746
N7 N 0.2412(2) 0.0423(3) 0.6110(3)
C16 C 0.1740(3) 0.0335(4) 0.9594(4)
H12 H 0.1450 0.0453 0.8885
H15 H 0.1271 0.2169 0.9780
C19 C 0.2093(3) 0.2574(4) 0.9714(5)
H16 H 0.1824 0.2328 0.9013
H17 H 0.1994 0.3276 0.9671
C33_2 C 0.2965(3) 0.5516(4) 0.9926(4)
C35 C 0.2643(3) 0.4486(4) 0.8746(3)
H30 H 0.2428 0.4201 0.8103
C36 C 0.3199(3) 0.2934(4) 0.9790(4)
H31 H 0.2975 0.2632 0.9122
N9 N 0.3049(2) 0.3992(3) 0.9645(3)
H10_2 H 0.4313 0.5411 0.9616
C28_2 C 0.3936(3) 0.3233(4) 0.7993(4)
H21_2 H 0.3563 0.3620 0.7443
C29_2 C 0.4534(3) 0.2035(5) 0.9046(4)
H22_2 H 0.4647 0.1420 0.9361
C30 C 0.5004(3) 0.2792(5) 0.9391(5)
H23 H 0.5499 0.2797 0.9979
C31_2 C 0.4905(4) 0.4546(5) 0.8808(5)
H24 H 0.5268 0.4520 0.8694
H25_2 H 0.4501 0.4966 0.8279
C32 C 0.5256(3) 0.4980(5) 0.9865(5)
H26 H 0.5425 0.5644 0.9891
N5_2 N 0.3850(2) 0.2314(3) 0.8142(3)
N6_2 N 0.4625(3) 0.3547(3) 0.8726(4)
O7_2 O 0.25227(18) 0.2454(2) 0.6111(2)
O12_2 O 0.3362(3) 0.0577(3) 0.8348(3)
C9 C 0.3047(4) 0.0140(4) 0.8616(4)
O3 O 0.2367(3) 0.0126(4) 0.8096(3)
C1 C 0.3368(2) 0.8719(3) 0.9769(3)
C2 C 0.3545(3) 0.9652(4) 0.9674(3)
C8 C 0.2896(2) 0.8043(3) 0.8858(3)
O2 O 0.2938(2) 0.8036(3) 0.8154(3)
C7 C 0.0000 0.5394(5) 0.2500
O5 O -0.0000 0.6301(4) 0.2500
C20 C 0.1632(2) 0.3719(3) 0.5231(3)
C21 C 0.1455(3) 0.4652(4) 0.5326(3)
C22 C 0.0927(3) 0.5194(4) 0.4437(3)
H18 H 0.0803 0.5822 0.4511
C23 C 0.0581(3) 0.4830(3) 0.3448(3)
C24 C 0.0813(3) 0.3915(4) 0.3382(4)
H19 H 0.0620 0.3663 0.2735
C25 C 0.1320(3) 0.3371(4) 0.4250(3)
H20 H 0.1458 0.2753 0.4177
C26 C 0.2104(2) 0.3043(3) 0.6142(3)
C27 C 0.1953(4) 0.5140(4) 0.6384(4)
O8 O 0.2062(2) 0.3036(3) 0.6846(3)
O9 O 0.2633(3) 0.5126(4) 0.6904(3)
H28_2 H 0.8011 0.1102 0.0254
C3 C 0.9073(3) 0.5194(4) 0.0563(3)
H1 H 0.9197 0.5822 0.0489
C4 C 0.9419(3) 0.4830(3) 0.1552(3)
C5 C 0.9187(3) 0.3915(4) 0.1618(4)
H2 H 0.9380 0.3663 0.2265
C6 C 0.8680(3) 0.3371(4) 0.0750(3)
H3 H 0.8542 0.2753 0.0823
C7_2 C 1.0000 0.5394(5) 0.2500
O5_2 O 1.0000 0.6301(4) 0.2500
Cu6_2 Cu 0.70019(3) 0.14402(4) 0.78137(4)
C33_3 C 0.7965(3) 0.0516(4) 0.9926(4)
N7_2 N 0.7588(2) 0.0423(3) 0.8890(3)
C4_2 C 0.5581(3) 0.0170(3) 0.8448(3)
C5_2 C 0.5813(3) 0.1085(4) 0.8382(4)
H2_2 H 0.5620 0.1337 0.7735
C6_2 C 0.6320(3) 0.1629(4) 0.9250(3)
H3_2 H 0.6458 0.2247 0.9177
H11 H 0.6989 0.3898 0.9746
C16_2 C 0.6740(3) 0.5335(4) 0.9594(4)
H12_2 H 0.6450 0.5453 0.8885
H15_2 H 0.6271 0.7169 0.9780
C19_2 C 0.7093(3) 0.7574(4) 0.9714(5)
H16_2 H 0.6824 0.7328 0.9013
H17_2 H 0.6994 0.8276 0.9671
Cu4 Cu 0.20019(3) 0.35598(4) 0.28137(4)
C20_2 C 0.3368(2) 0.1281(3) 0.4769(3)
C21_2 C 0.3545(3) 0.0348(4) 0.4674(3)
C23_2 C 0.4419(3) 0.0170(3) 0.6552(3)
C24_2 C 0.4187(3) 0.1085(4) 0.6618(4)
H19_2 H 0.4380 0.1337 0.7265
C25_2 C 0.3680(3) 0.1629(4) 0.5750(3)
H20_2 H 0.3542 0.2247 0.5823
C26_2 C 0.2896(2) 0.1957(3) 0.3858(3)
C35_2 C 0.7643(3) 0.9486(4) 0.8746(3)
H30_2 H 0.7428 0.9201 0.8103
C36_2 C 0.8199(3) 0.7934(4) 0.9790(4)
H31_2 H 0.7975 0.7632 0.9122
N9_2 N 0.8049(2) 0.8992(3) 0.9645(3)
O6 O 0.24773(18) 0.2546(2) 0.3889(2)
O8_2 O 0.2938(2) 0.1964(3) 0.3154(3)
C3_2 C 0.5927(3) 0.9806(4) 0.9437(3)
H1_2 H 0.5803 0.9178 0.9511
C7_3 C 0.5000 0.9606(5) 0.7500
O5_3 O 0.5000 0.8699(4) 0.7500
Cu5 Cu 0.29981(3) 0.85598(4) 0.21863(4)
C22_2 C 0.4073(3) 0.9806(4) 0.5563(3)
H18_2 H 0.4197 0.9178 0.5489
C27_2 C 0.3047(4) 0.9860(4) 0.3616(4)
O9_2 O 0.2367(3) 0.9874(4) 0.3096(3)
O10 O 0.3362(3) 0.9423(3) 0.3348(3)
C10 C 0.1064(3) 0.1767(4) 0.2007(4)
H4 H 0.1437 0.1380 0.2557
C11 C 0.0466(3) 0.2965(5) 0.0954(4)
H5 H 0.0353 0.3580 0.0639
C13 C 0.0095(4) 0.0454(5) 0.1192(5)
H8 H 0.0499 0.0034 0.1721
C15 C 0.2965(3) 0.4484(4) 0.4926(4)
H11_2 H 0.3011 0.3898 0.5254
C16_3 C 0.3260(3) 0.5335(4) 0.5406(4)
H12_3 H 0.3550 0.5453 0.6115
C17 C 0.2643(3) 0.5514(4) 0.3746(3)
H13 H 0.2428 0.5799 0.3103
C18 C 0.3199(3) 0.7066(4) 0.4790(4)
H14 H 0.2975 0.7368 0.4122
H15_3 H 0.3729 0.7169 0.5220
C19_3 C 0.2907(3) 0.7574(4) 0.5286(5)
H16_3 H 0.3176 0.7328 0.5987
H17_3 H 0.3006 0.8276 0.5329
N1 N 0.1150(2) 0.2686(3) 0.1858(3)
N2 N 0.0375(3) 0.1453(3) 0.1274(4)
N3 N 0.2588(2) 0.4577(3) 0.3890(3)
N4 N 0.3049(2) 0.6008(3) 0.4645(3)
C34 C 0.1740(3) 0.9665(4) 0.4594(4)
H29 H 0.1450 0.9547 0.3885
C35_3 C 0.2357(3) 0.9486(4) 0.6254(3)
H30_3 H 0.2572 0.9201 0.6897
C36_3 C 0.1801(3) 0.7934(4) 0.5210(4)
H31_3 H 0.2025 0.7632 0.5878
H32 H 0.1271 0.7831 0.4780
C37 C 0.2093(3) 0.7426(4) 0.4714(5)
H33 H 0.1824 0.7672 0.4013
H34 H 0.1994 0.6724 0.4671
N9_3 N 0.1951(2) 0.8992(3) 0.5355(3)
O11 O 0.1638(3) 0.4423(3) 0.1652(3)
H27 H 0.0687 0.9589 0.0384
H10_3 H 0.9313 0.0411 0.9616
Cu2_2 Cu 0.79981(3) 0.64402(4) 0.71863(4)
C28_3 C 0.8936(3) 0.8233(4) 0.7993(4)
H21_3 H 0.8563 0.8620 0.7443
C29_3 C 0.9534(3) 0.7035(5) 0.9046(4)
H22_3 H 0.9647 0.6420 0.9361
C31_3 C 0.9905(4) 0.9546(5) 0.8808(5)
H25_3 H 0.9501 0.9966 0.8279
N5_3 N 0.8850(2) 0.7314(3) 0.8142(3)
N6_3 N 0.9625(3) 0.8547(3) 0.8726(4)
N8_2 N 0.7412(2) 0.5423(3) 0.6110(3)
O7_3 O 0.75227(18) 0.7454(2) 0.6111(2)
O12_3 O 0.8362(3) 0.5577(3) 0.8348(3)
C17_2 C 0.2357(3) 0.0514(4) 0.1254(3)
H13_2 H 0.2572 0.0799 0.1897
C18_2 C 0.1801(3) 0.2066(4) 0.0210(4)
H14_2 H 0.2025 0.2368 0.0878
N4_2 N 0.1951(2) 0.1008(3) 0.0355(3)
H28_3 H 0.3011 0.6102 0.0254
C34_2 C 0.3260(3) 0.4665(4) 0.0406(4)
H29_2 H 0.3550 0.4547 0.1115
H32_2 H 0.3729 0.2831 0.0220
C37_2 C 0.2907(3) 0.2426(4) 0.0286(5)
H33_2 H 0.3176 0.2672 0.0987
H34_2 H 0.3006 0.1724 0.0329
C1_2 C 0.1632(2) 0.6281(3) 0.0231(3)
C2_2 C 0.1455(3) 0.5348(4) 0.0326(3)
C8_2 C 0.2104(2) 0.6957(3) 0.1142(3)
C9_2 C 0.1953(4) 0.4860(4) 0.1384(4)
C10_2 C 0.3936(3) 0.6767(4) 0.2993(4)
H4_2 H 0.3563 0.6380 0.2443
C11_2 C 0.4534(3) 0.7965(5) 0.4046(4)
H5_2 H 0.4647 0.8580 0.4361
C12_2 C 0.5004(3) 0.7208(5) 0.4391(5)
H6_2 H 0.5499 0.7203 0.4979
C13_2 C 0.4905(4) 0.5454(5) 0.3808(5)
H7_2 H 0.5268 0.5480 0.3694
H8_2 H 0.4501 0.5034 0.3279
C14_2 C 0.5256(3) 0.5020(5) 0.4865(5)
H9_2 H 0.5425 0.4356 0.4891
H10_4 H 0.5687 0.5411 0.5384
C15_2 C 0.2035(3) 0.9484(4) 0.0074(4)
N1_2 N 0.3850(2) 0.7686(3) 0.3142(3)
N2_2 N 0.4625(3) 0.6453(3) 0.3726(4)
N3_2 N 0.2412(2) 0.9577(3) 0.1110(3)
O1 O 0.25227(18) 0.7546(2) 0.1111(2)
O2_2 O 0.2062(2) 0.6964(3) 0.1846(3)
O3_2 O 0.2633(3) 0.4874(4) 0.1904(3)
C28_4 C 0.6064(3) 0.3233(4) 0.7007(4)
H21_4 H 0.6437 0.3620 0.7557
C29_4 C 0.5466(3) 0.2035(5) 0.5954(4)
H22_4 H 0.5353 0.1420 0.5639
C30_2 C 0.4996(3) 0.2792(5) 0.5609(5)
H23_2 H 0.4501 0.2797 0.5021
C31_4 C 0.5095(4) 0.4546(5) 0.6192(5)
H24_2 H 0.4732 0.4520 0.6306
H25_4 H 0.5499 0.4966 0.6721
C32_2 C 0.4744(3) 0.4980(5) 0.5135(5)
H26_2 H 0.4575 0.5644 0.5109
H27_2 H 0.4313 0.4589 0.4616
N5_4 N 0.6150(2) 0.2314(3) 0.6858(3)
N6_4 N 0.5375(3) 0.3547(3) 0.6274(4)
O7_4 O 0.74773(18) 0.2454(2) 0.8889(2)
O12_4 O 0.6638(3) 0.0577(3) 0.6652(3)
C16_4 C 0.8260(3) 0.0335(4) 0.5406(4)
H12_4 H 0.8550 0.0453 0.6115
C17_3 C 0.7643(3) 0.0514(4) 0.3746(3)
H13_3 H 0.7428 0.0799 0.3103
C18_3 C 0.8199(3) 0.2066(4) 0.4790(4)
H14_3 H 0.7975 0.2368 0.4122
H15_4 H 0.8729 0.2169 0.5220
C19_4 C 0.7907(3) 0.2574(4) 0.5286(5)
H16_4 H 0.8176 0.2328 0.5987
H17_4 H 0.8006 0.3276 0.5329
N4_3 N 0.8049(2) 0.1008(3) 0.4645(3)
C33_4 C 0.7035(3) 0.5516(4) 0.5074(4)
H28_4 H 0.6989 0.6102 0.4746
C34_3 C 0.6740(3) 0.4665(4) 0.4594(4)
H29_3 H 0.6450 0.4547 0.3885
C35_4 C 0.7357(3) 0.4486(4) 0.6254(3)
H30_4 H 0.7572 0.4201 0.6897
C36_4 C 0.6801(3) 0.2934(4) 0.5210(4)
H31_4 H 0.7025 0.2632 0.5878
H32_3 H 0.6271 0.2831 0.4780
C37_3 C 0.7093(3) 0.2426(4) 0.4714(5)
H33_3 H 0.6824 0.2672 0.4013
H34_3 H 0.6994 0.1724 0.4671
N9_4 N 0.6951(2) 0.3992(3) 0.5355(3)
C3_3 C 0.4073(3) 0.0194(4) 0.0563(3)
H1_3 H 0.4197 0.0822 0.0489
C7_4 C 0.5000 0.0394(5) 0.2500
O5_4 O 0.5000 0.1301(4) 0.2500
C22_3 C 0.5927(3) 0.0194(4) 0.4437(3)
H18_3 H 0.5803 0.0822 0.4511
C27_3 C 0.6953(4) 0.0140(4) 0.6384(4)
O9_3 O 0.7633(3) 0.0126(4) 0.6904(3)
C4_3 C 0.4419(3) 0.9830(3) 0.1552(3)
C5_3 C 0.4187(3) 0.8915(4) 0.1618(4)
H2_3 H 0.4380 0.8663 0.2265
C6_3 C 0.3680(3) 0.8371(4) 0.0750(3)
H3_3 H 0.3542 0.7753 0.0823
C20_3 C 0.6632(2) 0.8719(3) 0.5231(3)
C21_3 C 0.6455(3) 0.9652(4) 0.5326(3)
C23_3 C 0.5581(3) 0.9830(3) 0.3448(3)
C24_3 C 0.5813(3) 0.8915(4) 0.3382(4)
H19_3 H 0.5620 0.8663 0.2735
C25_3 C 0.6320(3) 0.8371(4) 0.4250(3)
H20_3 H 0.6458 0.7753 0.4177
C26_3 C 0.7104(2) 0.8043(3) 0.6142(3)
O8_3 O 0.7062(2) 0.8036(3) 0.6846(3)
C1_3 C 0.8368(2) 0.3719(3) 0.9769(3)
C2_3 C 0.8545(3) 0.4652(4) 0.9674(3)
C8_3 C 0.7896(2) 0.3043(3) 0.8858(3)
C9_3 C 0.8047(4) 0.5140(4) 0.8616(4)
O2_3 O 0.7938(2) 0.3036(3) 0.8154(3)
O3_3 O 0.7367(3) 0.5126(4) 0.8096(3)
Cu1 Cu 0.79981(3) 0.35598(4) 0.21863(4)
C1_4 C 0.6632(2) 0.1281(3) 0.0231(3)
C2_4 C 0.6455(3) 0.0348(4) 0.0326(3)
C8_4 C 0.7104(2) 0.1957(3) 0.1142(3)
C10_3 C 0.8936(3) 0.1767(4) 0.2993(4)
H4_3 H 0.8563 0.1380 0.2443
C11_3 C 0.9534(3) 0.2965(5) 0.4046(4)
H5_3 H 0.9647 0.3580 0.4361
C13_3 C 0.9905(4) 0.0454(5) 0.3808(5)
H8_3 H 0.9501 0.0034 0.3279
C15_3 C 0.7035(3) 0.4484(4) 0.0074(4)
C17_4 C 0.7357(3) 0.5514(4) 0.1254(3)
H13_4 H 0.7572 0.5799 0.1897
C18_4 C 0.6801(3) 0.7066(4) 0.0210(4)
H14_4 H 0.7025 0.7368 0.0878
N1_3 N 0.8850(2) 0.2686(3) 0.3142(3)
N2_3 N 0.9625(3) 0.1453(3) 0.3726(4)
N3_3 N 0.7412(2) 0.4577(3) 0.1110(3)
N4_4 N 0.6951(2) 0.6008(3) 0.0355(3)
O1_2 O 0.75227(18) 0.2546(2) 0.1111(2)
O2_4 O 0.7062(2) 0.1964(3) 0.1846(3)
H26_3 H 0.9575 0.0644 0.5109
C34_4 C 0.8260(3) 0.9665(4) 0.0406(4)
H29_4 H 0.8550 0.9547 0.1115
H32_4 H 0.8729 0.7831 0.0220
C37_4 C 0.7907(3) 0.7426(4) 0.0286(5)
H33_4 H 0.8176 0.7672 0.0987
H34_4 H 0.8006 0.6724 0.0329
O11_2 O 0.8362(3) 0.4423(3) 0.3348(3)
C9_4 C 0.6953(4) 0.9860(4) 0.1384(4)
O3_4 O 0.7633(3) 0.9874(4) 0.1904(3)
O4 O 0.6638(3) 0.9423(3) 0.1652(3)
Cu3 Cu 0.70019(3) 0.85598(4) 0.28137(4)
C30_3 C 0.9996(3) 0.7792(5) 0.5609(5)
H23_3 H 0.9501 0.7797 0.5021
H24_3 H 0.9732 0.9520 0.6306
C32_3 C 0.9744(3) 0.9980(5) 0.5135(5)
H27_3 H 0.9313 0.9589 0.4616
C7_5 C 1.0000 0.4606(5) 0.7500
O5_5 O 1.0000 0.3699(4) 0.7500
C20_4 C 0.8368(2) 0.6281(3) 0.4769(3)
C21_4 C 0.8545(3) 0.5348(4) 0.4674(3)
C22_4 C 0.9073(3) 0.4806(4) 0.5563(3)
H18_4 H 0.9197 0.4178 0.5489
C23_4 C 0.9419(3) 0.5170(3) 0.6552(3)
C24_4 C 0.9187(3) 0.6085(4) 0.6618(4)
H19_4 H 0.9380 0.6337 0.7265
C25_4 C 0.8680(3) 0.6629(4) 0.5750(3)
H20_4 H 0.8542 0.7247 0.5823
C26_4 C 0.7896(2) 0.6957(3) 0.3858(3)
C27_4 C 0.8047(4) 0.4860(4) 0.3616(4)
O6_2 O 0.74773(18) 0.7546(2) 0.3889(2)
O8_4 O 0.7938(2) 0.6964(3) 0.3154(3)
O9_4 O 0.7367(3) 0.4874(4) 0.3096(3)
C10_4 C 0.6064(3) 0.6767(4) 0.2007(4)
H4_4 H 0.6437 0.6380 0.2557
C11_4 C 0.5466(3) 0.7965(5) 0.0954(4)
H5_4 H 0.5353 0.8580 0.0639
C12_3 C 0.4996(3) 0.7208(5) 0.0609(5)
H6_3 H 0.4501 0.7203 0.0021
C13_4 C 0.5095(4) 0.5454(5) 0.1192(5)
H7_3 H 0.4732 0.5480 0.1306
H8_4 H 0.5499 0.5034 0.1721
C14_3 C 0.4744(3) 0.5020(5) 0.0135(5)
H9_3 H 0.4575 0.4356 0.0109
C15_4 C 0.7965(3) 0.9484(4) 0.4926(4)
H11_3 H 0.8011 0.8898 0.5254
N1_4 N 0.6150(2) 0.7686(3) 0.1858(3)
N2_4 N 0.5375(3) 0.6453(3) 0.1274(4)
N3_4 N 0.7588(2) 0.9577(3) 0.3890(3)
H27_4 H 0.5687 0.4589 0.0384
H26_4 H 0.0425 0.0644 0.9891
C30_4 C 0.0004(3) 0.7792(5) 0.9391(5)
H23_4 H 0.0499 0.7797 0.9979
H24_4 H 0.0268 0.9520 0.8694
C32_4 C 0.0256(3) 0.9980(5) 0.9865(5)
C12_4 C 0.9996(3) 0.2208(5) 0.0609(5)
H6_4 H 0.9501 0.2203 0.0021
H7_4 H 0.9732 0.0480 0.1306
C14_4 C 0.9744(3) 0.0020(5) 0.0135(5)
H9_4 H 0.9575 0.9356 0.0109
C3_4 C 0.0927(3) 0.4806(4) 0.9437(3)
H1_4 H 0.0803 0.4178 0.9511
C4_4 C 0.0581(3) 0.5170(3) 0.8448(3)
C5_4 C 0.0813(3) 0.6085(4) 0.8382(4)
H2_4 H 0.0620 0.6337 0.7735
C6_4 C 0.1320(3) 0.6629(4) 0.9250(3)
H3_4 H 0.1458 0.7247 0.9177
C7_6 C -0.0000 0.4606(5) 0.7500
H11_4 H 0.1989 0.8898 0.9746
O5_6 O -0.0000 0.3699(4) 0.7500
loop_
_geom_bond_atom_site_label_1
_geom_bond_atom_site_label_2
_geom_bond_site_symmetry_1
_geom_bond_site_symmetry_2
H6 C12 1_555 1_555
H10 C14 1_555 1_555
Cu2 N5 1_555 1_555
C28 H21 1_555 1_555
C29 H22 1_555 1_555
H25 C31 1_555 1_555
N5 C28 1_555 1_555
N6 C28 1_555 1_555
N8 Cu2 1_555 1_555
O7 Cu2 1_555 1_555
O12 Cu2 1_555 1_555
C29 N5 1_555 1_555
C31 N6 1_555 1_555
Cu6 N7 1_555 1_555
C33 H28 1_555 1_555
N7 C33 1_555 1_555
H12 C16 1_555 1_555
H16 C19 1_555 1_555
H17 C19 1_555 1_555
C35 H30 1_555 1_555
C36 H31 1_555 1_555
N8 C33_2 1_555 1_555
C35 N8 1_555 1_555
C35 N9 1_555 1_555
C36 N9 1_555 1_555
Cu6 N5_2 1_555 1_555
C28_2 H21_2 1_555 1_555
C29_2 H22_2 1_555 1_555
C30 C29_2 1_555 1_555
H23 C30 1_555 1_555
C31_2 H24 1_555 1_555
H25_2 C31_2 1_555 1_555
H26 C32 1_555 1_555
N5_2 C28_2 1_555 1_555
N6_2 C28_2 1_555 1_555
O7_2 Cu6 1_555 1_555
O12_2 Cu6 1_555 1_555
C29_2 N5_2 1_555 1_555
C30 N6_2 1_555 1_555
C31_2 C32 1_555 1_555
C31_2 N6_2 1_555 1_555
O3 C9 1_555 1_555
O12_2 C9 1_555 1_555
C1 C2 1_555 1_555
C8 C1 1_555 1_555
O2 C8 1_555 1_555
C8 O7 1_555 1_555
O5 C7 1_555 1_555
C20 C21 1_555 1_555
C21 C22 1_555 1_555
C22 H18 1_555 1_555
C23 C7 1_555 1_555
C24 C23 1_555 1_555
H19 C24 1_555 1_555
C25 C20 1_555 1_555
H20 C25 1_555 1_555
C26 C20 1_555 1_555
C27 C21 1_555 1_555
O7_2 C26 1_555 1_555
O8 C26 1_555 1_555
O9 C27 1_555 1_555
O12 C27 1_555 1_555
C22 C23 1_555 1_555
C24 C25 1_555 1_555
C3 H1 1_555 1_555
C4 C3 1_555 1_555
C5 C4 1_555 1_555
H2 C5 1_555 1_555
H3 C6 1_555 1_555
C7_2 C4 1_555 1_555
O5_2 C7_2 1_555 1_555
C5 C6 1_555 1_555
Cu6_2 N7_2 1_555 1_555
N7_2 C33_3 1_555 1_555
C5_2 C4_2 1_555 1_555
H2_2 C5_2 1_555 1_555
H3_2 C6_2 1_555 1_555
H12_2 C16_2 1_555 1_555
H16_2 C19_2 1_555 1_555
H17_2 C19_2 1_555 1_555
Cu4 O6 1_555 1_555
C20_2 C21_2 1_555 1_555
C24_2 C23_2 1_555 1_555
H19_2 C24_2 1_555 1_555
C25_2 C20_2 1_555 1_555
H20_2 C25_2 1_555 1_555
C26_2 C20_2 1_555 1_555
C35_2 H30_2 1_555 1_555
C36_2 H31_2 1_555 1_555
O6 C26_2 1_555 1_555
O8_2 C26_2 1_555 1_555
C5_2 C6_2 1_555 1_555
C24_2 C25_2 1_555 1_555
C35_2 N9_2 1_555 1_555
C36_2 N9_2 1_555 1_555
C3_2 H1_2 1_555 1_555
O5_3 C7_3 1_555 1_555
Cu5 O10 1_555 1_555
C22_2 H18_2 1_555 1_555
O9_2 C27_2 1_555 1_555
O10 C27_2 1_555 1_555
Cu4 N1 1_555 1_555
C10 H4 1_555 1_555
C11 H5 1_555 1_555
H8 C13 1_555 1_555
C15 H11_2 1_555 1_555
C16_3 C15 1_555 1_555
H12_3 C16_3 1_555 1_555
C17 H13 1_555 1_555
C18 H14 1_555 1_555
H15_3 C18 1_555 1_555
C19_3 C18 1_555 1_555
H16_3 C19_3 1_555 1_555
H17_3 C19_3 1_555 1_555
N1 C10 1_555 1_555
N2 C10 1_555 1_555
N3 Cu4 1_555 1_555
N4 C16_3 1_555 1_555
H29 C34 1_555 1_555
C35_3 H30_3 1_555 1_555
C36_3 H31_3 1_555 1_555
H32 C36_3 1_555 1_555
C37 C19_3 1_555 1_555
H33 C37 1_555 1_555
H34 C37 1_555 1_555
N9_3 C34 1_555 1_555
O11 Cu4 1_555 1_555
C11 N1 1_555 1_555
C13 N2 1_555 1_555
C15 N3 1_555 1_555
C17 N3 1_555 1_555
C17 N4 1_555 1_555
C18 N4 1_555 1_555
C35_3 N9_3 1_555 1_555
C36_3 C37 1_555 1_555
C36_3 N9_3 1_555 1_555
Cu2_2 N5_3 1_555 1_555
C28_3 H21_3 1_555 1_555
C29_3 H22_3 1_555 1_555
H25_3 C31_3 1_555 1_555
N5_3 C28_3 1_555 1_555
N6_3 C28_3 1_555 1_555
N8_2 Cu2_2 1_555 1_555
O7_3 Cu2_2 1_555 1_555
O12_3 Cu2_2 1_555 1_555
C29_3 N5_3 1_555 1_555
C31_3 N6_3 1_555 1_555
C17_2 H13_2 1_555 1_555
C18_2 H14_2 1_555 1_555
H29_2 C34_2 1_555 1_555
H33_2 C37_2 1_555 1_555
H34_2 C37_2 1_555 1_555
C17_2 N4_2 1_555 1_555
C18_2 N4_2 1_555 1_555
Cu5 N1_2 1_555 1_555
C1_2 C2_2 1_555 1_555
C8_2 C1_2 1_555 1_555
C9_2 C2_2 1_555 1_555
C10_2 H4_2 1_555 1_555
C11_2 H5_2 1_555 1_555
C12_2 C11_2 1_555 1_555
H6_2 C12_2 1_555 1_555
C13_2 H7_2 1_555 1_555
H8_2 C13_2 1_555 1_555
C14_2 C13_2 1_555 1_555
H9_2 C14_2 1_555 1_555
H10_4 C14_2 1_555 1_555
N1_2 C10_2 1_555 1_555
N2_2 C10_2 1_555 1_555
N3_2 Cu5 1_555 1_555
O1 Cu5 1_555 1_555
O2_2 C8_2 1_555 1_555
O3_2 C9_2 1_555 1_555
O11 C9_2 1_555 1_555
Cu6_2 N5_4 1_555 1_555
C28_4 H21_4 1_555 1_555
C29_4 H22_4 1_555 1_555
C30_2 C29_4 1_555 1_555
H23_2 C30_2 1_555 1_555
C31_4 H24_2 1_555 1_555
H25_4 C31_4 1_555 1_555
C32_2 C14_2 1_555 1_555
H26_2 C32_2 1_555 1_555
H27_2 C32_2 1_555 1_555
N5_4 C28_4 1_555 1_555
N6_4 C28_4 1_555 1_555
O7_4 Cu6_2 1_555 1_555
O12_4 Cu6_2 1_555 1_555
C8_2 O1 1_555 1_555
C11_2 N1_2 1_555 1_555
C12_2 N2_2 1_555 1_555
C13_2 N2_2 1_555 1_555
C15_2 N3_2 1_555 1_555
C29_4 N5_4 1_555 1_555
C30_2 N6_4 1_555 1_555
C31_4 C32_2 1_555 1_555
C31_4 N6_4 1_555 1_555
H12_4 C16_4 1_555 1_555
C17_3 H13_3 1_555 1_555
C18_3 H14_3 1_555 1_555
H15_4 C18_3 1_555 1_555
C19_4 C18_3 1_555 1_555
H16_4 C19_4 1_555 1_555
H17_4 C19_4 1_555 1_555
N4_3 C16_4 1_555 1_555
C33_4 H28_4 1_555 1_555
C34_3 C33_4 1_555 1_555
H29_3 C34_3 1_555 1_555
C35_4 H30_4 1_555 1_555
C36_4 H31_4 1_555 1_555
H32_3 C36_4 1_555 1_555
C37_3 C19_4 1_555 1_555
H33_3 C37_3 1_555 1_555
H34_3 C37_3 1_555 1_555
N8_2 C33_4 1_555 1_555
N9_4 C34_3 1_555 1_555
C17_3 N4_3 1_555 1_555
C18_3 N4_3 1_555 1_555
C35_4 N8_2 1_555 1_555
C35_4 N9_4 1_555 1_555
C36_4 C37_3 1_555 1_555
C36_4 N9_4 1_555 1_555
C3_3 H1_3 1_555 1_555
O5_4 C7_4 1_555 1_555
C22_3 H18_3 1_555 1_555
O9_3 C27_3 1_555 1_555
O12_4 C27_3 1_555 1_555
C5_3 C4_3 1_555 1_555
H2_3 C5_3 1_555 1_555
H3_3 C6_3 1_555 1_555
C20_3 C21_3 1_555 1_555
C24_3 C23_3 1_555 1_555
H19_3 C24_3 1_555 1_555
C25_3 C20_3 1_555 1_555
H20_3 C25_3 1_555 1_555
C26_3 C20_3 1_555 1_555
O7_3 C26_3 1_555 1_555
O8_3 C26_3 1_555 1_555
C5_3 C6_3 1_555 1_555
C24_3 C25_3 1_555 1_555
C1_3 C2_3 1_555 1_555
C8_3 C1_3 1_555 1_555
C9_3 C2_3 1_555 1_555
O2_3 C8_3 1_555 1_555
O3_3 C9_3 1_555 1_555
O12_3 C9_3 1_555 1_555
C8_3 O7_4 1_555 1_555
Cu1 N1_3 1_555 1_555
C1_4 C2_4 1_555 1_555
C8_4 C1_4 1_555 1_555
C10_3 H4_3 1_555 1_555
C11_3 H5_3 1_555 1_555
H8_3 C13_3 1_555 1_555
C17_4 H13_4 1_555 1_555
C18_4 H14_4 1_555 1_555
N1_3 C10_3 1_555 1_555
N2_3 C10_3 1_555 1_555
N3_3 Cu1 1_555 1_555
O1_2 Cu1 1_555 1_555
O2_4 C8_4 1_555 1_555
H29_4 C34_4 1_555 1_555
H33_4 C37_4 1_555 1_555
H34_4 C37_4 1_555 1_555
O11_2 Cu1 1_555 1_555
C8_4 O1_2 1_555 1_555
C11_3 N1_3 1_555 1_555
C13_3 N2_3 1_555 1_555
C15_3 N3_3 1_555 1_555
C17_4 N3_3 1_555 1_555
C17_4 N4_4 1_555 1_555
C18_4 N4_4 1_555 1_555
O3_4 C9_4 1_555 1_555
O4 C9_4 1_555 1_555
Cu3 O4 1_555 1_555
H23_3 C30_3 1_555 1_555
H27_3 C32_3 1_555 1_555
O5_5 C7_5 1_555 1_555
Cu3 O6_2 1_555 1_555
C20_4 C21_4 1_555 1_555
C21_4 C22_4 1_555 1_555
C22_4 H18_4 1_555 1_555
C23_4 C7_5 1_555 1_555
C24_4 C23_4 1_555 1_555
H19_4 C24_4 1_555 1_555
C25_4 C20_4 1_555 1_555
H20_4 C25_4 1_555 1_555
C26_4 C20_4 1_555 1_555
C27_4 C21_4 1_555 1_555
O6_2 C26_4 1_555 1_555
O8_4 C26_4 1_555 1_555
O9_4 C27_4 1_555 1_555
O11_2 C27_4 1_555 1_555
C22_4 C23_4 1_555 1_555
C24_4 C25_4 1_555 1_555
Cu3 N1_4 1_555 1_555
C10_4 H4_4 1_555 1_555
C11_4 H5_4 1_555 1_555
C12_3 C11_4 1_555 1_555
H6_3 C12_3 1_555 1_555
C13_4 H7_3 1_555 1_555
H8_4 C13_4 1_555 1_555
C14_3 C13_4 1_555 1_555
H9_3 C14_3 1_555 1_555
C15_4 H11_3 1_555 1_555
N1_4 C10_4 1_555 1_555
N2_4 C10_4 1_555 1_555
N3_4 Cu3 1_555 1_555
C11_4 N1_4 1_555 1_555
C12_3 N2_4 1_555 1_555
C13_4 N2_4 1_555 1_555
C15_4 N3_4 1_555 1_555
H23_4 C30_4 1_555 1_555
H6_4 C12_4 1_555 1_555
C3_4 H1_4 1_555 1_555
C4_4 C3_4 1_555 1_555
C5_4 C4_4 1_555 1_555
H2_4 C5_4 1_555 1_555
H3_4 C6_4 1_555 1_555
C7_6 C4_4 1_555 1_555
O5_6 C7_6 1_555 1_555
C5_4 C6_4 1_555 1_555

#END
