
###############################################################################
#
# This file contains modified crystal structure data generated from the
# MOF subset of the Cambridge Structural Database (CSD) v543 
# hosted by the Cambridge Crystallographic Data Centre (CCDC).
#
# This work is licensed under the Creative Commons
# Attribution-NonCommercial-ShareAlike 4.0 International License.
# To view a copy of this license, visit
# http://creativecommons.org/licenses/by-nc-sa/4.0/
# or send a letter to
# Creative Commons, PO Box 1866, Mountain View, CA 94042, USA.
#
# CIF created using the CSD Python API on 29 September 2022
# The structure has been converted into the P1 space group
# The structure has a 3D framework
# The original CSD entry VAPBEV is in the monoclinic crystal system
# The original CSD entry VAPBEV is in a Sohncke space group
# The framework has been calculated to contain at least 10.0% void space
# The void calculation uses a probe of radius 1.32A, grid spacing 0.4
# The framework is charged, counterions have been retained in the structure
# H atom positions have been added when not included in the experimental data
#
###############################################################################

data_VAPBEV
_chemical_formula_moiety         '(C96 H136 Eu2 N22 O43 1+)n'
_symmetry_cell_setting           triclinic
_symmetry_space_group_name_H-M   'P 1'
_symmetry_Int_Tables_number      1
_space_group_name_Hall           'P 1'
loop_
_symmetry_equiv_pos_site_id
_symmetry_equiv_pos_as_xyz
1 x,y,z
_cell_length_a                   12.139(2)
_cell_length_b                   21.571(4)
_cell_length_c                   12.611(2)
_cell_angle_alpha                90
_cell_angle_beta                 90.351(4)
_cell_angle_gamma                90
_cell_volume                     3302.13
loop_
_atom_site_label
_atom_site_type_symbol
_atom_site_fract_x
_atom_site_fract_y
_atom_site_fract_z
Eu4 Eu 0.256925(16) 0.04237(3) 0.003875(14)
C1 C 0.3536(5) 0.3862(3) 0.3490(5)
H1 H 0.3567 0.4314 0.3627
H2 H 0.3764 0.3643 0.4145
C2 C 0.4287(5) 0.3701(3) 0.2614(5)
H3 H 0.4074 0.3934 0.1969
H4 H 0.4225 0.3252 0.2456
C3 C 0.2106(5) 0.3044(3) 0.3546(5)
H5 H 0.1680 0.3063 0.4212
H6 H 0.2787 0.2804 0.3680
C4 C 0.1428(5) 0.2735(3) 0.2685(5)
H7 H 0.1883 0.2686 0.2042
H8 H 0.0793 0.3003 0.2501
C5 C 0.1573(5) 0.4134(3) 0.3465(5)
H9 H 0.1797 0.4351 0.4123
H10 H 0.0854 0.3931 0.3589
C6 C 0.1472(6) 0.4593(3) 0.2563(5)
H11 H 0.1288 0.4372 0.1897
H12 H 0.2183 0.4810 0.2463
C7 C 0.2613(4) 0.3055(2) 0.6497(4)
H13 H 0.3029 0.3029 0.5826
H14 H 0.1893 0.2848 0.6392
C8 C 0.3255(5) 0.2733(2) 0.7383(4)
H15 H 0.3975 0.2942 0.7480
H16 H 0.2842 0.2771 0.8055
C9 C 0.1338(4) 0.3931(3) 0.6550(5)
H17 H 0.1056 0.3734 0.5893
H18 H 0.1353 0.4385 0.6442
C10 C 0.0599(5) 0.3772(3) 0.7468(5)
H19 H 0.0582 0.3316 0.7555
H20 H 0.0918 0.3952 0.8125
C11 C 0.3317(4) 0.4122(2) 0.6465(4)
H21 H 0.3101 0.4340 0.5806
H22 H 0.3997 0.3884 0.6325
C12 C 0.3525(5) 0.4590(2) 0.7349(4)
H23 H 0.2836 0.4820 0.7492
H24 H 0.3738 0.4367 0.8005
C13 C 0.6143(6) 0.3288(3) 0.3167(6)
H25 H 0.6916 0.3411 0.3308
H26 H 0.6138 0.3012 0.2540
C14 C 0.5717(5) 0.2935(3) 0.4107(5)
C15 C 0.5092(5) 0.2410(3) 0.3984(5)
H27 H 0.4914 0.2268 0.3290
C16 C 0.4715(5) 0.2080(3) 0.4857(5)
H28 H 0.4274 0.1721 0.4757
C17 C 0.4982(5) 0.2275(3) 0.5866(5)
C18 C 0.5641(5) 0.2812(3) 0.6002(5)
H29 H 0.5836 0.2950 0.6694
C19 C 0.5995(5) 0.3132(3) 0.5131(5)
H30 H 0.6435 0.3493 0.5223
C20 C 0.4612(6) 0.1916(3) 0.6829(5)
H31 H 0.4675 0.1467 0.6679
H32 H 0.5110 0.2012 0.7431
C29 C 0.1028(7) 0.5693(3) 0.3114(7)
H41 H 0.0410 0.5980 0.3258
H42 H 0.1440 0.5860 0.2502
C30 C 0.1787(5) 0.5683(3) 0.4073(5)
C31 C 0.1367(6) 0.5654(3) 0.5095(6)
H43 H 0.0593 0.5639 0.5201
C32 C 0.2076(6) 0.5646(3) 0.5956(6)
H44 H 0.1782 0.5624 0.6651
C33 C 0.3207(5) 0.5670(3) 0.5825(5)
C34 C 0.3639(5) 0.5692(3) 0.4789(5)
H45 H 0.4413 0.5700 0.4681
C35 C 0.2922(6) 0.5700(3) 0.3936(5)
H46 H 0.3211 0.5718 0.3238
C36 C 0.3988(6) 0.5678(3) 0.6760(6)
H47 H 0.3605 0.5861 0.7377
H48 H 0.4621 0.5949 0.6591
C37 C 0.6063(6) 0.4210(3) 0.2052(6)
H49 H 0.5921 0.4006 0.1362
H50 H 0.6868 0.4200 0.2187
C38 C 0.5681(5) 0.4876(3) 0.1996(5)
C39 C 0.1257(6) 0.1618(3) 0.2215(5)
H51 H 0.0801 0.1246 0.2354
H52 H 0.1056 0.1778 0.1504
C40 C 0.2434(7) 0.1439(4) 0.2223(5)
H53 H 0.0223 0.5222 0.1242
C43 C 0.3201(5) 0.1657(3) 0.8090(4)
H55 H 0.3568 0.1835 0.8723
H56 H 0.3515 0.1240 0.7968
C44 C 0.1982(4) 0.1595(2) 0.8306(4)
C47 C 0.5195(5) 0.5138(3) 0.7974(4)
H59 H 0.4765 0.5241 0.8615
H60 H 0.5678 0.5495 0.7816
C48 C 0.5911(5) 0.4573(3) 0.8209(4)
N1 N 0.2386(4) 0.3678(2) 0.3189(4)
N2 N 0.5482(5) 0.3857(3) 0.2917(5)
H61 H 0.5470 0.4105 0.3520
N3 N 0.1011(5) 0.2104(2) 0.3035(4)
H62 H 0.1382 0.1997 0.3656
N4 N 0.0561(6) 0.5069(2) 0.2815(6)
H63 H 0.0157 0.4920 0.3386
N5 N 0.2444(4) 0.3705(2) 0.6786(4)
N6 N 0.3442(4) 0.2060(2) 0.7144(3)
H64 H 0.2975 0.1944 0.6592
N8 N 0.4418(4) 0.5043(2) 0.7065(4)
H66 H 0.4812 0.4883 0.6497
O1 O 0.6227(4) 0.5208(2) 0.1335(4)
O2 O 0.4930(5) 0.5059(3) 0.2551(4)
O3 O 0.3094(5) 0.1698(3) 0.2821(5)
O4 O 0.2680(5) 0.1021(3) 0.1548(4)
O7 O 0.1301(4) 0.1870(2) 0.7768(4)
O8 O 0.1777(4) 0.12222(19) 0.9054(4)
O9 O 0.0258(5) 0.5145(3) 0.7782(6)
O11 O 0.5833(4) 0.4102(2) 0.7655(4)
O12 O 0.6571(4) 0.4644(2) 0.8994(3)
Eu6 Eu 0.743075(16) 0.54237(3) 0.996125(14)
O15 O 0.8362(6) 0.4675(3) 0.0956(5)
O16 O 0.8223(4) 0.62222(19) 0.0946(4)
H67 H 0.566664 0.629 0.054896
O13 O 0.5729(4) 0.6039(2) 0.9892(3)
O14 O 0.7320(5) 0.6021(3) 0.8452(4)
O17 O 0.9137(4) 0.5302(2) 0.9129(4)
H68 H 0.574751 0.631865 0.92669
C21 C 0.9809(6) 0.2116(3) 0.3266(5)
H33 H 0.9545 0.1685 0.3352
H34 H 0.9414 0.2299 0.2653
C22 C 0.9526(5) 0.2481(3) 0.4251(5)
C23 C 0.9115(5) 0.3080(3) 0.4168(6)
H35 H 0.9024 0.3266 0.3490
C24 C 0.8837(5) 0.3406(3) 0.5076(7)
H36 H 0.8572 0.3819 0.5010
C25 C 0.8935(5) 0.3147(3) 0.6068(6)
C26 C 0.9342(5) 0.2543(3) 0.6141(5)
H37 H 0.9417 0.2354 0.6818
C27 C 0.9639(5) 0.2216(3) 0.5246(5)
H38 H 0.9921 0.1807 0.5313
C28 C 0.8624(6) 0.3499(3) 0.7036(7)
H39 H 0.8560 0.3206 0.7636
H40 H 0.7891 0.3689 0.6920
C41 C 0.9788(7) 0.5159(4) 0.1895(7)
H54 H 0.9345 0.5538 0.2015
C42 C 0.9017(7) 0.4610(4) 0.1735(7)
C45 C 0.9048(8) 0.4321(4) 0.8309(10)
H57 H 0.9274 0.4081 0.8943
H58 H 0.8233 0.4347 0.8299
C46 C 0.9538(7) 0.4973(4) 0.8365(9)
N7 N 0.9436(5) 0.4005(3) 0.7338(6)
H65 H 0.9435 0.4295 0.6793
O5 O 0.9111(6) 0.4144(3) 0.2301(6)
C41_2 C 0.0212(7) 0.0159(4) 0.8105(7)
H54_2 H 0.0655 0.0538 0.7985
O10 O 0.0863(4) 0.0302(2) 0.0871(4)
C21_2 C 0.0191(6) 0.7116(3) 0.6734(5)
H33_2 H 0.0455 0.6685 0.6648
H34_2 H 0.0586 0.7299 0.7347
C22_2 C 0.0474(5) 0.7481(3) 0.5749(5)
C23_2 C 0.0885(5) 0.8080(3) 0.5832(6)
H35_2 H 0.0976 0.8266 0.6510
C24_2 C 0.1163(5) 0.8406(3) 0.4924(7)
H36_2 H 0.1428 0.8819 0.4990
C25_2 C 0.1065(5) 0.8147(3) 0.3932(6)
C26_2 C 0.0658(5) 0.7543(3) 0.3859(5)
H37_2 H 0.0583 0.7354 0.3182
C27_2 C 0.0361(5) 0.7216(3) 0.4754(5)
H38_2 H 0.0079 0.6807 0.4687
C28_2 C 0.1376(6) 0.8499(3) 0.2964(7)
H39_2 H 0.1440 0.8206 0.2364
H40_2 H 0.2109 0.8689 0.3080
C42_2 C 0.0983(7) 0.9610(4) 0.8265(7)
C45_2 C 0.0952(8) 0.9321(4) 0.1691(10)
H57_2 H 0.0726 0.9081 0.1057
H58_2 H 0.1767 0.9347 0.1701
C46_2 C 0.0462(7) 0.9973(4) 0.1635(9)
N7_2 N 0.0564(5) 0.9005(3) 0.2662(6)
H65_2 H 0.0565 0.9295 0.3207
O5_2 O 0.0889(6) 0.9144(3) 0.7699(6)
O6 O 0.1638(6) 0.9675(3) 0.9044(5)
O13_2 O 0.4271(4) 0.1039(2) 0.0108(3)
H68_2 H 0.425249 0.131865 0.0733099
C29_2 C 0.8972(7) 0.0693(3) 0.6886(7)
H41_2 H 0.9590 0.0980 0.6742
H42_2 H 0.8560 0.0860 0.7498
C30_2 C 0.8213(5) 0.0683(3) 0.5927(5)
C31_2 C 0.8633(6) 0.0654(3) 0.4905(6)
H43_2 H 0.9407 0.0639 0.4799
C32_2 C 0.7924(6) 0.0646(3) 0.4044(6)
H44_2 H 0.8218 0.0624 0.3349
C33_2 C 0.6793(5) 0.0670(3) 0.4175(5)
C34_2 C 0.6361(5) 0.0692(3) 0.5211(5)
H45_2 H 0.5587 0.0700 0.5319
C35_2 C 0.7078(6) 0.0700(3) 0.6064(5)
H46_2 H 0.6789 0.0718 0.6762
C36_2 C 0.6012(6) 0.0678(3) 0.3240(6)
H47_2 H 0.6395 0.0861 0.2623
H48_2 H 0.5379 0.0949 0.3409
H53_2 H 0.9777 0.0222 0.8758
C47_2 C 0.4805(5) 0.0138(3) 0.2026(4)
H59_2 H 0.5235 0.0241 0.1385
H60_2 H 0.4322 0.0495 0.2184
N4_2 N 0.9439(6) 0.0069(2) 0.7185(6)
N8_2 N 0.5582(4) 0.0043(2) 0.2935(4)
O1_2 O 0.3773(4) 0.0208(2) 0.8665(4)
O2_2 O 0.5070(5) 0.0059(3) 0.7449(4)
O9_2 O 0.9742(5) 0.0145(3) 0.2218(6)
H67_2 H 0.433336 0.129 0.945104
O18 O 0.3429(4) 0.9644(2) 0.1006(3)
C1_2 C 0.6464(5) 0.8862(3) 0.6510(5)
H1_2 H 0.6433 0.9314 0.6373
H2_2 H 0.6236 0.8643 0.5855
C2_2 C 0.5713(5) 0.8701(3) 0.7386(5)
H3_2 H 0.5926 0.8934 0.8031
H4_2 H 0.5775 0.8252 0.7544
C3_2 C 0.7894(5) 0.8044(3) 0.6454(5)
H5_2 H 0.8320 0.8063 0.5788
H6_2 H 0.7213 0.7804 0.6320
C4_2 C 0.8572(5) 0.7735(3) 0.7315(5)
H7_2 H 0.8117 0.7686 0.7958
H8_2 H 0.9207 0.8003 0.7499
C5_2 C 0.8427(5) 0.9134(3) 0.6535(5)
H9_2 H 0.8203 0.9351 0.5877
H10_2 H 0.9146 0.8931 0.6411
C6_2 C 0.8528(6) 0.9593(3) 0.7437(5)
H11_2 H 0.8712 0.9372 0.8103
H12_2 H 0.7817 0.9810 0.7537
C7_2 C 0.7387(4) 0.8055(2) 0.3503(4)
H13_2 H 0.6971 0.8029 0.4174
H14_2 H 0.8107 0.7848 0.3608
C8_2 C 0.6745(5) 0.7733(2) 0.2617(4)
H15_2 H 0.6025 0.7942 0.2520
H16_2 H 0.7158 0.7771 0.1945
C9_2 C 0.8662(4) 0.8931(3) 0.3450(5)
H17_2 H 0.8944 0.8734 0.4107
H18_2 H 0.8647 0.9385 0.3558
C10_2 C 0.9401(5) 0.8772(3) 0.2532(5)
H19_2 H 0.9418 0.8316 0.2445
H20_2 H 0.9082 0.8952 0.1875
C11_2 C 0.6683(4) 0.9122(2) 0.3535(4)
H21_2 H 0.6899 0.9340 0.4194
H22_2 H 0.6003 0.8884 0.3675
C12_2 C 0.6475(5) 0.9590(2) 0.2651(4)
H23_2 H 0.7164 0.9820 0.2508
H24_2 H 0.6262 0.9367 0.1995
C13_2 C 0.3857(6) 0.8288(3) 0.6833(6)
H25_2 H 0.3084 0.8411 0.6692
H26_2 H 0.3862 0.8012 0.7460
C14_2 C 0.4283(5) 0.7935(3) 0.5893(5)
C15_2 C 0.4908(5) 0.7410(3) 0.6016(5)
H27_2 H 0.5086 0.7268 0.6710
C16_2 C 0.5285(5) 0.7080(3) 0.5143(5)
H28_2 H 0.5726 0.6721 0.5243
C17_2 C 0.5018(5) 0.7275(3) 0.4134(5)
C18_2 C 0.4359(5) 0.7812(3) 0.3998(5)
H29_2 H 0.4164 0.7950 0.3306
C19_2 C 0.4005(5) 0.8132(3) 0.4869(5)
H30_2 H 0.3565 0.8493 0.4777
C20_2 C 0.5388(6) 0.6916(3) 0.3171(5)
H31_2 H 0.5325 0.6467 0.3321
H32_2 H 0.4890 0.7012 0.2569
C37_2 C 0.3937(6) 0.9210(3) 0.7948(6)
H49_2 H 0.4079 0.9006 0.8638
H50_2 H 0.3132 0.9200 0.7813
C38_2 C 0.4319(5) 0.9876(3) 0.8004(5)
C39_2 C 0.8743(6) 0.6618(3) 0.7785(5)
H51_2 H 0.9199 0.6246 0.7646
H52_2 H 0.8944 0.6778 0.8496
C40_2 C 0.7566(7) 0.6439(4) 0.7777(5)
C43_2 C 0.6799(5) 0.6657(3) 0.1910(4)
H55_2 H 0.6432 0.6835 0.1277
H56_2 H 0.6485 0.6240 0.2032
C44_2 C 0.8018(4) 0.6595(2) 0.1694(4)
C48_2 C 0.4089(5) 0.9573(3) 0.1791(4)
N1_2 N 0.7614(4) 0.8678(2) 0.6811(4)
N2_2 N 0.4518(5) 0.8857(3) 0.7083(5)
H61_2 H 0.4530 0.9105 0.6480
N3_2 N 0.8989(5) 0.7104(2) 0.6965(4)
H62_2 H 0.8618 0.6997 0.6344
H63_2 H 0.9843 0.9920 0.6614
N5_2 N 0.7556(4) 0.8705(2) 0.3214(4)
N6_2 N 0.6558(4) 0.7060(2) 0.2856(3)
H64_2 H 0.7025 0.6944 0.3408
H66_2 H 0.5188 0.9883 0.3503
O3_2 O 0.6906(5) 0.6698(3) 0.7179(5)
O7_2 O 0.8699(4) 0.6870(2) 0.2232(4)
O11_2 O 0.4167(4) 0.9102(2) 0.2345(4)
N9 N 0.6232(6) 0.4740(4) 0.5060(6)
O19 O 0.6510(8) 0.5093(4) 0.5757(6)
O20 O 0.6937(4) 0.4526(2) 0.4390(4)
O21 O 0.5306(4) 0.4573(3) 0.5023(4)
O19_2 O 0.3490(8) 0.0093(4) 0.4243(6)
N9_2 N 0.3768(6) 0.9740(4) 0.4940(6)
O20_2 O 0.3063(4) 0.9526(2) 0.5610(4)
O21_2 O 0.4694(4) 0.9573(3) 0.4977(4)
N10 N 0.1920(5) 0.1300(2) 0.5258(4)
O22 O 0.2165(4) 0.1852(2) 0.5174(4)
O23 O 0.1261(4) 0.1065(2) 0.4577(4)
O24 O 0.2313(7) 0.0996(3) 0.5974(5)
N10_2 N 0.8080(5) 0.6300(2) 0.4742(4)
O22_2 O 0.7835(4) 0.6852(2) 0.4826(4)
O23_2 O 0.8739(4) 0.6065(2) 0.5423(4)
O24_2 O 0.7687(7) 0.5996(3) 0.4026(5)
O25 O 0.1541(9) 0.4076(5) 0.0004(7)
N11 N 0.2340(7) 0.3733(5) 0.9973(5)
O26 O 0.3263(8) 0.3943(4) 0.9973(6)
O27 O 0.2210(7) 0.3160(4) 0.9973(4)
N11_2 N 0.7660(7) 0.8733(5) 0.0027(5)
O26_2 O 0.6737(8) 0.8943(4) 0.0027(6)
O27_2 O 0.7790(7) 0.8160(4) 0.0027(4)
O25_2 O 0.8459(9) 0.9076(5) 0.9996(7)
loop_
_geom_bond_atom_site_label_1
_geom_bond_atom_site_label_2
_geom_bond_site_symmetry_1
_geom_bond_site_symmetry_2
C1 H1 1_555 1_555
H2 C1 1_555 1_555
C2 C1 1_555 1_555
H3 C2 1_555 1_555
H4 C2 1_555 1_555
C3 H5 1_555 1_555
H6 C3 1_555 1_555
C4 C3 1_555 1_555
H7 C4 1_555 1_555
H8 C4 1_555 1_555
C5 H9 1_555 1_555
H10 C5 1_555 1_555
C6 C5 1_555 1_555
H11 C6 1_555 1_555
H12 C6 1_555 1_555
C7 H13 1_555 1_555
H14 C7 1_555 1_555
C8 C7 1_555 1_555
H15 C8 1_555 1_555
H16 C8 1_555 1_555
C9 H17 1_555 1_555
H18 C9 1_555 1_555
C10 C9 1_555 1_555
H19 C10 1_555 1_555
H20 C10 1_555 1_555
C11 H21 1_555 1_555
H22 C11 1_555 1_555
C12 C11 1_555 1_555
H23 C12 1_555 1_555
H24 C12 1_555 1_555
C13 H25 1_555 1_555
H26 C13 1_555 1_555
C14 C13 1_555 1_555
C15 C14 1_555 1_555
H27 C15 1_555 1_555
C16 C15 1_555 1_555
H28 C16 1_555 1_555
C17 C16 1_555 1_555
C18 C17 1_555 1_555
H29 C18 1_555 1_555
C19 C14 1_555 1_555
H30 C19 1_555 1_555
C20 C17 1_555 1_555
H31 C20 1_555 1_555
H32 C20 1_555 1_555
C29 H41 1_555 1_555
H42 C29 1_555 1_555
C30 C29 1_555 1_555
C31 C30 1_555 1_555
H43 C31 1_555 1_555
C32 C31 1_555 1_555
H44 C32 1_555 1_555
C33 C32 1_555 1_555
C34 C33 1_555 1_555
H45 C34 1_555 1_555
C35 C30 1_555 1_555
H46 C35 1_555 1_555
C36 C33 1_555 1_555
H47 C36 1_555 1_555
H48 C36 1_555 1_555
C37 H49 1_555 1_555
H50 C37 1_555 1_555
C38 C37 1_555 1_555
C39 H51 1_555 1_555
H52 C39 1_555 1_555
C40 C39 1_555 1_555
C43 H55 1_555 1_555
H56 C43 1_555 1_555
C44 C43 1_555 1_555
C47 H59 1_555 1_555
H60 C47 1_555 1_555
C48 C47 1_555 1_555
N1 C1 1_555 1_555
N2 C2 1_555 1_555
H61 N2 1_555 1_555
N3 C4 1_555 1_555
H62 N3 1_555 1_555
N4 C6 1_555 1_555
H63 N4 1_555 1_555
N5 C7 1_555 1_555
N6 C8 1_555 1_555
H64 N6 1_555 1_555
N8 C12 1_555 1_555
H66 N8 1_555 1_555
O1 C38 1_555 1_555
O2 C38 1_555 1_555
O3 C40 1_555 1_555
O4 C40 1_555 1_555
O7 C44 1_555 1_555
O8 C44 1_555 1_555
O11 C48 1_555 1_555
O12 C48 1_555 1_555
Eu4 O4 1_555 1_555
Eu6 O12 1_555 1_555
C3 N1 1_555 1_555
C5 N1 1_555 1_555
C9 N5 1_555 1_555
C11 N5 1_555 1_555
C13 N2 1_555 1_555
C18 C19 1_555 1_555
C20 N6 1_555 1_555
C29 N4 1_555 1_555
C34 C35 1_555 1_555
C36 N8 1_555 1_555
C37 N2 1_555 1_555
C39 N3 1_555 1_555
C43 N6 1_555 1_555
C47 N8 1_555 1_555
O13 Eu6 1_555 1_555
O14 Eu6 1_555 1_555
O17 Eu6 1_555 1_555
O13 H68 1_555 1_555
C21 H33 1_555 1_555
H34 C21 1_555 1_555
C22 C21 1_555 1_555
C23 C22 1_555 1_555
H35 C23 1_555 1_555
C24 C23 1_555 1_555
H36 C24 1_555 1_555
C25 C24 1_555 1_555
C26 C25 1_555 1_555
H37 C26 1_555 1_555
C27 C22 1_555 1_555
H38 C27 1_555 1_555
C28 C25 1_555 1_555
H39 C28 1_555 1_555
H40 C28 1_555 1_555
H54 C41 1_555 1_555
C42 C41 1_555 1_555
C45 H57 1_555 1_555
H58 C45 1_555 1_555
C46 C45 1_555 1_555
H65 N7 1_555 1_555
O5 C42 1_555 1_555
O15 C42 1_555 1_555
O17 C46 1_555 1_555
C26 C27 1_555 1_555
C28 N7 1_555 1_555
C45 N7 1_555 1_555
H54_2 C41_2 1_555 1_555
Eu4 O10 1_555 1_555
C21_2 H33_2 1_555 1_555
H34_2 C21_2 1_555 1_555
C22_2 C21_2 1_555 1_555
C23_2 C22_2 1_555 1_555
H35_2 C23_2 1_555 1_555
C24_2 C23_2 1_555 1_555
H36_2 C24_2 1_555 1_555
C25_2 C24_2 1_555 1_555
C26_2 C25_2 1_555 1_555
H37_2 C26_2 1_555 1_555
C27_2 C22_2 1_555 1_555
H38_2 C27_2 1_555 1_555
C28_2 C25_2 1_555 1_555
H39_2 C28_2 1_555 1_555
H40_2 C28_2 1_555 1_555
C45_2 H57_2 1_555 1_555
H58_2 C45_2 1_555 1_555
C46_2 C45_2 1_555 1_555
H65_2 N7_2 1_555 1_555
O5_2 C42_2 1_555 1_555
O6 C42_2 1_555 1_555
C26_2 C27_2 1_555 1_555
C28_2 N7_2 1_555 1_555
C45_2 N7_2 1_555 1_555
O13_2 Eu4 1_555 1_555
O13_2 H68_2 1_555 1_555
C29_2 H41_2 1_555 1_555
H42_2 C29_2 1_555 1_555
C30_2 C29_2 1_555 1_555
C31_2 C30_2 1_555 1_555
H43_2 C31_2 1_555 1_555
C32_2 C31_2 1_555 1_555
H44_2 C32_2 1_555 1_555
C33_2 C32_2 1_555 1_555
C34_2 C33_2 1_555 1_555
H45_2 C34_2 1_555 1_555
C35_2 C30_2 1_555 1_555
H46_2 C35_2 1_555 1_555
C36_2 C33_2 1_555 1_555
H47_2 C36_2 1_555 1_555
H48_2 C36_2 1_555 1_555
C47_2 H59_2 1_555 1_555
H60_2 C47_2 1_555 1_555
C29_2 N4_2 1_555 1_555
C34_2 C35_2 1_555 1_555
C36_2 N8_2 1_555 1_555
C47_2 N8_2 1_555 1_555
C1_2 H1_2 1_555 1_555
H2_2 C1_2 1_555 1_555
C2_2 C1_2 1_555 1_555
H3_2 C2_2 1_555 1_555
H4_2 C2_2 1_555 1_555
C3_2 H5_2 1_555 1_555
H6_2 C3_2 1_555 1_555
C4_2 C3_2 1_555 1_555
H7_2 C4_2 1_555 1_555
H8_2 C4_2 1_555 1_555
C5_2 H9_2 1_555 1_555
H10_2 C5_2 1_555 1_555
C6_2 C5_2 1_555 1_555
H11_2 C6_2 1_555 1_555
H12_2 C6_2 1_555 1_555
C7_2 H13_2 1_555 1_555
H14_2 C7_2 1_555 1_555
C8_2 C7_2 1_555 1_555
H15_2 C8_2 1_555 1_555
H16_2 C8_2 1_555 1_555
C9_2 H17_2 1_555 1_555
H18_2 C9_2 1_555 1_555
C10_2 C9_2 1_555 1_555
H19_2 C10_2 1_555 1_555
H20_2 C10_2 1_555 1_555
C11_2 H21_2 1_555 1_555
H22_2 C11_2 1_555 1_555
C12_2 C11_2 1_555 1_555
H23_2 C12_2 1_555 1_555
H24_2 C12_2 1_555 1_555
C13_2 H25_2 1_555 1_555
H26_2 C13_2 1_555 1_555
C14_2 C13_2 1_555 1_555
C15_2 C14_2 1_555 1_555
H27_2 C15_2 1_555 1_555
C16_2 C15_2 1_555 1_555
H28_2 C16_2 1_555 1_555
C17_2 C16_2 1_555 1_555
C18_2 C17_2 1_555 1_555
H29_2 C18_2 1_555 1_555
C19_2 C14_2 1_555 1_555
H30_2 C19_2 1_555 1_555
C20_2 C17_2 1_555 1_555
H31_2 C20_2 1_555 1_555
H32_2 C20_2 1_555 1_555
C37_2 H49_2 1_555 1_555
H50_2 C37_2 1_555 1_555
C38_2 C37_2 1_555 1_555
C39_2 H51_2 1_555 1_555
H52_2 C39_2 1_555 1_555
C40_2 C39_2 1_555 1_555
C43_2 H55_2 1_555 1_555
H56_2 C43_2 1_555 1_555
C44_2 C43_2 1_555 1_555
N1_2 C1_2 1_555 1_555
N2_2 C2_2 1_555 1_555
H61_2 N2_2 1_555 1_555
N3_2 C4_2 1_555 1_555
H62_2 N3_2 1_555 1_555
N5_2 C7_2 1_555 1_555
N6_2 C8_2 1_555 1_555
H64_2 N6_2 1_555 1_555
O3_2 C40_2 1_555 1_555
O14 C40_2 1_555 1_555
O7_2 C44_2 1_555 1_555
O16 C44_2 1_555 1_555
O11_2 C48_2 1_555 1_555
O18 C48_2 1_555 1_555
C3_2 N1_2 1_555 1_555
C5_2 N1_2 1_555 1_555
C9_2 N5_2 1_555 1_555
C11_2 N5_2 1_555 1_555
C13_2 N2_2 1_555 1_555
C18_2 C19_2 1_555 1_555
C20_2 N6_2 1_555 1_555
C37_2 N2_2 1_555 1_555
C39_2 N3_2 1_555 1_555
C43_2 N6_2 1_555 1_555
N9 O19 1_555 1_555
O20 N9 1_555 1_555
O21 N9 1_555 1_555
O20_2 N9_2 1_555 1_555
O21_2 N9_2 1_555 1_555
N10 O22 1_555 1_555
O23 N10 1_555 1_555
O24 N10 1_555 1_555
N10_2 O22_2 1_555 1_555
O23_2 N10_2 1_555 1_555
O24_2 N10_2 1_555 1_555
O26 N11 1_555 1_555
O27 N11 1_555 1_555
O26_2 N11_2 1_555 1_555
O27_2 N11_2 1_555 1_555

#END
