
###############################################################################
#
# This file contains modified crystal structure data generated from the
# MOF subset of the Cambridge Structural Database (CSD) v543 
# hosted by the Cambridge Crystallographic Data Centre (CCDC).
#
# This work is licensed under the Creative Commons
# Attribution-NonCommercial-ShareAlike 4.0 International License.
# To view a copy of this license, visit
# http://creativecommons.org/licenses/by-nc-sa/4.0/
# or send a letter to
# Creative Commons, PO Box 1866, Mountain View, CA 94042, USA.
#
# CIF created using the CSD Python API on 29 September 2022
# The structure has been converted into the P1 space group
# The structure has a 3D framework
# The original CSD entry VAPBIZ is in the monoclinic crystal system
# The original CSD entry VAPBIZ is in a Sohncke space group
# The framework has been calculated to contain at least 10.0% void space
# The void calculation uses a probe of radius 1.32A, grid spacing 0.4
# The framework is charged, counterions have been retained in the structure
# H atom positions have been added when not included in the experimental data
#
###############################################################################

data_VAPBIZ
_chemical_formula_moiety         '(C96 H136 Eu2 N22 O43 1+)n'
_symmetry_cell_setting           triclinic
_symmetry_space_group_name_H-M   'P 1'
_symmetry_Int_Tables_number      1
_space_group_name_Hall           'P 1'
loop_
_symmetry_equiv_pos_site_id
_symmetry_equiv_pos_as_xyz
1 x,y,z
_cell_length_a                   12.1858(8)
_cell_length_b                   21.5773(13)
_cell_length_c                   12.5587(7)
_cell_angle_alpha                90
_cell_angle_beta                 90.406(2)
_cell_angle_gamma                90
_cell_volume                     3302.06
loop_
_atom_site_label
_atom_site_type_symbol
_atom_site_fract_x
_atom_site_fract_y
_atom_site_fract_z
Eu3 Eu 0.25718(3) 0.45812(2) 0.00340(2)
C21 C 0.0143(9) 0.7893(5) 0.6750(8)
H33 H 0.0382 0.8327 0.6649
H34 H 0.0539 0.7726 0.7378
C22 C 0.0455(7) 0.7532(4) 0.5808(7)
C23 C 0.0893(7) 0.6949(5) 0.5902(8)
H35 H 0.0998 0.6775 0.6590
C24 C 0.1183(7) 0.6610(4) 0.5020(9)
H36 H 0.1469 0.6204 0.5107
C25 C 0.1062(6) 0.6856(4) 0.4007(7)
C26 C 0.0649(7) 0.7442(4) 0.3901(7)
H37 H 0.0577 0.7621 0.3212
C27 C 0.0334(7) 0.7782(4) 0.4796(6)
H38 H 0.0036 0.8186 0.4710
C28 C 0.1402(8) 0.6502(5) 0.3029(10)
H39 H 0.2145 0.6327 0.3145
H40 H 0.1438 0.6790 0.2416
C41 C 0.0260(10) 0.4834(5) 0.8031(9)
H53 H 0.0702 0.4457 0.7899
C42 C 0.1035(10) 0.5382(5) 0.8209(9)
C45 C 0.1037(12) 0.5652(6) 0.1778(14)
H57 H 0.1844 0.5606 0.1830
H58 H 0.0864 0.5902 0.1137
C46 C 0.0494(9) 0.5004(5) 0.1681(12)
N7 N 0.0606(6) 0.5978(4) 0.2769(9)
H65 H 0.0592 0.5700 0.3333
O5 O 0.0946(9) 0.5847(4) 0.7653(9)
O6 O 0.1653(7) 0.5327(4) 0.9025(7)
O10 O 0.0889(6) 0.4695(3) 0.0909(6)
O13 O 0.4263(6) 0.3964(3) 0.0101(6)
O14 O 0.2723(8) 0.3990(4) 0.1556(6)
O18 O 0.3445(5) 0.5363(2) 0.0980(4)
H67 H 0.490695 0.424516 0.0143453
H68 H 0.425247 0.369141 0.0737906
C1 C 0.6470(9) 0.6124(4) 0.6508(7)
H1 H 0.6252 0.6344 0.5848
H2 H 0.6440 0.5673 0.6368
C2 C 0.5700(7) 0.6285(4) 0.7378(7)
H3 H 0.5743 0.6734 0.7531
H4 H 0.5905 0.6056 0.8033
C3 C 0.7879(7) 0.6953(4) 0.6468(7)
H5 H 0.7195 0.7189 0.6337
H6 H 0.8304 0.6942 0.5799
C4 C 0.8541(8) 0.7256(4) 0.7334(7)
H7 H 0.9178 0.6991 0.7520
H8 H 0.8085 0.7304 0.7978
C5 C 0.8439(7) 0.5858(4) 0.6535(7)
H9 H 0.9150 0.6068 0.6414
H10 H 0.8222 0.5641 0.5872
C6 C 0.8544(9) 0.5403(4) 0.7434(7)
H11 H 0.7840 0.5183 0.7540
H12 H 0.8740 0.5621 0.8102
C7 C 0.7404(6) 0.6941(3) 0.3497(6)
H13 H 0.8117 0.7152 0.3608
H14 H 0.6982 0.6969 0.4166
C8 C 0.6775(7) 0.7255(3) 0.2605(6)
H15 H 0.7199 0.7222 0.1938
H16 H 0.6066 0.7040 0.2495
C9 C 0.8692(6) 0.6066(3) 0.3478(6)
H17 H 0.8673 0.5613 0.3598
H18 H 0.8966 0.6267 0.4137
C10 C 0.9448(7) 0.6216(4) 0.2555(7)
H19 H 0.9469 0.6670 0.2446
H20 H 0.9156 0.6023 0.1896
C11 C 0.6707(6) 0.5875(3) 0.3533(5)
H21 H 0.6029 0.6115 0.3667
H22 H 0.6912 0.5654 0.4195
C12 C 0.6505(6) 0.5408(3) 0.2635(5)
H23 H 0.6304 0.5633 0.1976
H24 H 0.7190 0.5175 0.2499
C13 C 0.3851(8) 0.6699(4) 0.6820(8)
H25 H 0.3084 0.6574 0.6674
H26 H 0.3855 0.6972 0.7454
C14 C 0.4292(6) 0.7050(4) 0.5878(7)
C15 C 0.4887(8) 0.7575(4) 0.6011(6)
H27 H 0.5035 0.7721 0.6711
C16 C 0.5290(7) 0.7911(4) 0.5136(6)
H28 H 0.5736 0.8267 0.5242
C17 C 0.5022(7) 0.7710(4) 0.4108(6)
C18 C 0.4382(7) 0.7175(4) 0.3967(7)
H29 H 0.4193 0.7038 0.3270
C19 C 0.4025(7) 0.6845(4) 0.4853(7)
H30 H 0.3598 0.6480 0.4761
C20 C 0.5429(8) 0.8076(4) 0.3153(8)
H31 H 0.4936 0.7992 0.2539
H32 H 0.5379 0.8523 0.3317
C29 C 0.8964(10) 0.4303(4) 0.6878(10)
H41 H 0.8529 0.4169 0.7499
H42 H 0.9553 0.3994 0.6769
C30 C 0.8225(7) 0.4309(4) 0.5902(8)
C31 C 0.8644(8) 0.4328(4) 0.4877(8)
H43 H 0.9415 0.4338 0.4773
C32 C 0.7938(8) 0.4333(4) 0.4004(7)
H44 H 0.8229 0.4343 0.3305
C33 C 0.6787(8) 0.4323(3) 0.4152(7)
C34 C 0.6404(7) 0.4299(4) 0.5181(7)
H45 H 0.5634 0.4291 0.5294
C35 C 0.7099(7) 0.4286(4) 0.6055(7)
H46 H 0.6808 0.4261 0.6754
C36 C 0.6046(9) 0.4323(4) 0.3212(7)
H47 H 0.5421 0.4043 0.3356
H48 H 0.6449 0.4152 0.2596
C37 C 0.3950(10) 0.5756(5) 0.7920(8)
H49 H 0.4080 0.5959 0.8616
H50 H 0.3151 0.5765 0.7771
C38 C 0.4319(9) 0.5109(5) 0.7977(8)
C39 C 0.8677(10) 0.8366(5) 0.7806(7)
H51 H 0.8876 0.8198 0.8515
H52 H 0.9133 0.8738 0.7682
C40 C 0.7502(10) 0.8552(5) 0.7813(8)
H54 H 0.9833 0.4764 0.8688
C43 C 0.6831(7) 0.8333(4) 0.1898(6)
H55 H 0.6477 0.8153 0.1257
H56 H 0.6509 0.8749 0.2012
C44 C 0.8025(6) 0.8406(3) 0.1690(6)
C47 C 0.4805(7) 0.4872(3) 0.1997(6)
H59 H 0.5224 0.4766 0.1350
H60 H 0.4317 0.4518 0.2158
C48 C 0.4107(7) 0.5433(4) 0.1767(6)
N1 N 0.7614(6) 0.6307(3) 0.6821(6)
N2 N 0.4554(9) 0.6117(4) 0.7050(8)
H61 H 0.4581 0.5875 0.6437
N3 N 0.8942(7) 0.7888(3) 0.6972(6)
H62 H 0.8570 0.7993 0.6349
N4 N 0.9484(8) 0.4923(3) 0.7126(9)
H63 H 0.9861 0.5066 0.6534
N5 N 0.7587(5) 0.6292(3) 0.3224(5)
N6 N 0.6562(5) 0.7931(3) 0.2843(5)
H64 H 0.7022 0.8048 0.3402
N8 N 0.5599(6) 0.4957(3) 0.2912(5)
H66 H 0.5216 0.5114 0.3490
O1 O 0.3754(7) 0.4776(3) 0.8637(6)
O2 O 0.5091(7) 0.4925(4) 0.7425(6)
O3 O 0.6873(9) 0.8300(5) 0.7180(9)
O4 O 0.7277(8) 0.8990(4) 0.8444(6)
O7 O 0.8714(5) 0.8126(3) 0.2241(6)
O8 O 0.8218(6) 0.8773(3) 0.0934(6)
O9 O 0.9796(8) 0.4828(4) 0.2305(9)
O11 O 0.4195(5) 0.5907(3) 0.2316(5)
Eu2 Eu 0.74282(3) 0.95812(2) 0.99660(2)
O16 O 0.1782(6) 0.3773(3) 0.9066(6)
C1_2 C 0.3530(9) 0.1124(4) 0.3492(7)
H1_2 H 0.3748 0.1344 0.4152
H2_2 H 0.3560 0.0673 0.3632
C2_2 C 0.4300(7) 0.1285(4) 0.2622(7)
H3_2 H 0.4257 0.1734 0.2469
H4_2 H 0.4095 0.1056 0.1967
C3_2 C 0.2121(7) 0.1953(4) 0.3532(7)
H5_2 H 0.2805 0.2189 0.3663
H6_2 H 0.1696 0.1942 0.4201
C4_2 C 0.1459(8) 0.2256(4) 0.2666(7)
H7_2 H 0.0822 0.1991 0.2480
H8_2 H 0.1915 0.2304 0.2022
C5_2 C 0.1561(7) 0.0858(4) 0.3465(7)
H9_2 H 0.0850 0.1068 0.3586
H10_2 H 0.1778 0.0641 0.4128
C6_2 C 0.1456(9) 0.0403(4) 0.2566(7)
H11_2 H 0.2160 0.0183 0.2460
H12_2 H 0.1260 0.0621 0.1898
C7_2 C 0.2596(6) 0.1941(3) 0.6503(6)
H13_2 H 0.1883 0.2152 0.6392
H14_2 H 0.3018 0.1969 0.5834
C8_2 C 0.3225(7) 0.2255(3) 0.7395(6)
H15_2 H 0.2801 0.2222 0.8062
H16_2 H 0.3934 0.2040 0.7505
C9_2 C 0.1308(6) 0.1066(3) 0.6522(6)
H17_2 H 0.1327 0.0613 0.6402
H18_2 H 0.1034 0.1267 0.5863
C10_2 C 0.0552(7) 0.1216(4) 0.7445(7)
H19_2 H 0.0531 0.1670 0.7554
H20_2 H 0.0844 0.1023 0.8104
C11_2 C 0.3293(6) 0.0875(3) 0.6467(5)
H21_2 H 0.3971 0.1115 0.6333
H22_2 H 0.3088 0.0654 0.5805
C12_2 C 0.3495(6) 0.0408(3) 0.7365(5)
H23_2 H 0.3696 0.0633 0.8024
H24_2 H 0.2810 0.0175 0.7501
C13_2 C 0.6149(8) 0.1699(4) 0.3180(8)
H25_2 H 0.6916 0.1574 0.3326
H26_2 H 0.6145 0.1972 0.2546
C14_2 C 0.5708(6) 0.2050(4) 0.4122(7)
C15_2 C 0.5113(8) 0.2575(4) 0.3989(6)
H27_2 H 0.4965 0.2721 0.3289
C16_2 C 0.4710(7) 0.2911(4) 0.4864(6)
H28_2 H 0.4264 0.3267 0.4758
C17_2 C 0.4978(7) 0.2710(4) 0.5892(6)
C18_2 C 0.5618(7) 0.2175(4) 0.6033(7)
H29_2 H 0.5807 0.2038 0.6730
C19_2 C 0.5975(7) 0.1845(4) 0.5147(7)
H30_2 H 0.6402 0.1480 0.5239
C20_2 C 0.4571(8) 0.3076(4) 0.6847(8)
H31_2 H 0.5064 0.2992 0.7461
H32_2 H 0.4621 0.3523 0.6683
C37_2 C 0.6050(10) 0.0756(5) 0.2080(8)
H49_2 H 0.5920 0.0959 0.1384
H50_2 H 0.6849 0.0765 0.2229
C38_2 C 0.5681(9) 0.0109(5) 0.2023(8)
C39_2 C 0.1323(10) 0.3366(5) 0.2194(7)
H51_2 H 0.1124 0.3198 0.1485
H52_2 H 0.0867 0.3738 0.2318
C40_2 C 0.2498(10) 0.3552(5) 0.2187(8)
C43_2 C 0.3169(7) 0.3333(4) 0.8102(6)
H55_2 H 0.3523 0.3153 0.8743
H56_2 H 0.3491 0.3749 0.7988
C44_2 C 0.1975(6) 0.3406(3) 0.8310(6)
C48_2 C 0.5893(7) 0.0433(4) 0.8233(6)
N1_2 N 0.2386(6) 0.1307(3) 0.3179(6)
N2_2 N 0.5446(9) 0.1117(4) 0.2950(8)
H61_2 H 0.5419 0.0875 0.3563
N3_2 N 0.1058(7) 0.2888(3) 0.3028(6)
H62_2 H 0.1430 0.2993 0.3651
H63_2 H 0.0139 0.0066 0.3466
N5_2 N 0.2413(5) 0.1292(3) 0.6776(5)
N6_2 N 0.3438(5) 0.2931(3) 0.7157(5)
H64_2 H 0.2978 0.3048 0.6598
H66_2 H 0.4784 0.0114 0.6510
O3_2 O 0.3127(9) 0.3300(5) 0.2820(9)
O7_2 O 0.1286(5) 0.3126(3) 0.7759(6)
O11_2 O 0.5805(5) 0.0907(3) 0.7684(5)
O12 O 0.6555(5) 0.0363(2) 0.9020(4)
O15 O 0.8347(7) 0.0327(4) 0.0975(7)
C29_2 C 0.1036(10) 0.9303(4) 0.3122(10)
H41_2 H 0.1471 0.9169 0.2501
H42_2 H 0.0447 0.8994 0.3231
C30_2 C 0.1775(7) 0.9309(4) 0.4098(8)
C31_2 C 0.1356(8) 0.9328(4) 0.5123(8)
H43_2 H 0.0585 0.9338 0.5227
C32_2 C 0.2062(8) 0.9333(4) 0.5996(7)
H44_2 H 0.1771 0.9343 0.6695
C33_2 C 0.3213(8) 0.9323(3) 0.5848(7)
C34_2 C 0.3596(7) 0.9299(4) 0.4819(7)
H45_2 H 0.4366 0.9291 0.4706
C35_2 C 0.2901(7) 0.9286(4) 0.3945(7)
H46_2 H 0.3192 0.9261 0.3246
C36_2 C 0.3954(9) 0.9323(4) 0.6788(7)
H47_2 H 0.4579 0.9043 0.6644
H48_2 H 0.3551 0.9152 0.7404
H54_2 H 0.0167 0.9764 0.1312
C47_2 C 0.5195(7) 0.9872(3) 0.8003(6)
H59_2 H 0.4776 0.9766 0.8650
H60_2 H 0.5683 0.9518 0.7842
N4_2 N 0.0516(8) 0.9923(3) 0.2874(9)
N8_2 N 0.4401(6) 0.9957(3) 0.7088(5)
O1_2 O 0.6246(7) 0.9776(3) 0.1363(6)
O2_2 O 0.4909(7) 0.9925(4) 0.2575(6)
O9_2 O 0.0204(8) 0.9828(4) 0.7695(9)
O13_2 O 0.5737(6) 0.8964(3) 0.9899(6)
O17 O 0.9111(6) 0.9695(3) 0.9091(6)
H67_2 H 0.509305 0.924516 0.985655
H68_2 H 0.574753 0.869141 0.926209
C21_2 C 0.9857(9) 0.2893(5) 0.3250(8)
H33_2 H 0.9618 0.3327 0.3351
H34_2 H 0.9461 0.2726 0.2622
C22_2 C 0.9545(7) 0.2532(4) 0.4192(7)
C23_2 C 0.9107(7) 0.1949(5) 0.4098(8)
H35_2 H 0.9002 0.1775 0.3410
C24_2 C 0.8817(7) 0.1610(4) 0.4980(9)
H36_2 H 0.8531 0.1204 0.4893
C25_2 C 0.8938(6) 0.1856(4) 0.5993(7)
C26_2 C 0.9351(7) 0.2442(4) 0.6099(7)
H37_2 H 0.9423 0.2621 0.6788
C27_2 C 0.9666(7) 0.2782(4) 0.5204(6)
H38_2 H 0.9964 0.3186 0.5290
C28_2 C 0.8598(8) 0.1502(5) 0.6971(10)
H39_2 H 0.7855 0.1327 0.6855
H40_2 H 0.8562 0.1790 0.7584
C42_2 C 0.8965(10) 0.0382(5) 0.1791(9)
C45_2 C 0.8963(12) 0.0652(6) 0.8222(14)
H57_2 H 0.8156 0.0606 0.8170
H58_2 H 0.9136 0.0902 0.8863
C46_2 C 0.9506(9) 0.0004(5) 0.8319(12)
N7_2 N 0.9394(6) 0.0978(4) 0.7231(9)
H65_2 H 0.9408 0.0700 0.6667
O5_2 O 0.9054(9) 0.0847(4) 0.2347(9)
C41_2 C 0.9740(10) 0.9834(5) 0.1969(9)
H53_2 H 0.9298 0.9457 0.2101
N9 N 0.3733(8) 0.5254(4) 0.4879(7)
O19 O 0.3435(11) 0.4907(6) 0.4184(9)
O20 O 0.3046(6) 0.5464(4) 0.5567(7)
O21 O 0.4683(6) 0.5399(4) 0.4950(6)
N9_2 N 0.6267(8) 0.0254(4) 0.5121(7)
O20_2 O 0.6954(6) 0.0464(4) 0.4433(7)
O21_2 O 0.5317(6) 0.0399(4) 0.5050(6)
O19_2 O 0.6565(11) 0.9907(6) 0.5816(9)
N10 N 0.8066(8) 0.8708(4) 0.4750(7)
O22 O 0.7807(6) 0.8165(3) 0.4830(5)
O23 O 0.8743(7) 0.8943(3) 0.5450(6)
O24 O 0.7745(10) 0.9011(4) 0.4011(7)
N10_2 N 0.1934(8) 0.3708(4) 0.5250(7)
O22_2 O 0.2193(6) 0.3165(3) 0.5170(5)
O23_2 O 0.1257(7) 0.3943(3) 0.4550(6)
O24_2 O 0.2255(10) 0.4011(4) 0.5989(7)
N11 N 0.7664(10) 0.6266(6) 0.0028(7)
O25 O 0.8442(12) 0.5908(6) 0.0031(9)
O26 O 0.6715(10) 0.6059(5) 0.0041(7)
O27 O 0.7777(9) 0.6840(5) 0.0041(7)
N11_2 N 0.2336(10) 0.1266(6) 0.9972(7)
O25_2 O 0.1558(12) 0.0908(6) 0.9969(9)
O26_2 O 0.3285(10) 0.1059(5) 0.9959(7)
O27_2 O 0.2223(9) 0.1840(5) 0.9959(7)
loop_
_geom_bond_atom_site_label_1
_geom_bond_atom_site_label_2
_geom_bond_site_symmetry_1
_geom_bond_site_symmetry_2
C21 H33 1_555 1_555
H34 C21 1_555 1_555
C22 C21 1_555 1_555
C23 C22 1_555 1_555
H35 C23 1_555 1_555
C24 C23 1_555 1_555
H36 C24 1_555 1_555
C25 C24 1_555 1_555
C26 C25 1_555 1_555
H37 C26 1_555 1_555
C27 C22 1_555 1_555
H38 C27 1_555 1_555
C28 C25 1_555 1_555
H39 C28 1_555 1_555
H40 C28 1_555 1_555
C41 H53 1_555 1_555
C42 C41 1_555 1_555
C45 H57 1_555 1_555
H58 C45 1_555 1_555
C46 C45 1_555 1_555
H65 N7 1_555 1_555
O5 C42 1_555 1_555
O6 C42 1_555 1_555
O10 C46 1_555 1_555
Eu3 O10 1_555 1_555
C26 C27 1_555 1_555
C28 N7 1_555 1_555
C45 N7 1_555 1_555
O13 Eu3 1_555 1_555
O14 Eu3 1_555 1_555
O18 Eu3 1_555 1_555
O13 H67 1_555 1_555
O13 H68 1_555 1_555
C1 H1 1_555 1_555
H2 C1 1_555 1_555
C2 C1 1_555 1_555
H3 C2 1_555 1_555
H4 C2 1_555 1_555
C3 H5 1_555 1_555
H6 C3 1_555 1_555
C4 C3 1_555 1_555
H7 C4 1_555 1_555
H8 C4 1_555 1_555
C5 H9 1_555 1_555
H10 C5 1_555 1_555
C6 C5 1_555 1_555
H11 C6 1_555 1_555
H12 C6 1_555 1_555
C7 H13 1_555 1_555
H14 C7 1_555 1_555
C8 C7 1_555 1_555
H15 C8 1_555 1_555
H16 C8 1_555 1_555
C9 H17 1_555 1_555
H18 C9 1_555 1_555
C10 C9 1_555 1_555
H19 C10 1_555 1_555
H20 C10 1_555 1_555
C11 H21 1_555 1_555
H22 C11 1_555 1_555
C12 C11 1_555 1_555
H23 C12 1_555 1_555
H24 C12 1_555 1_555
C13 H25 1_555 1_555
H26 C13 1_555 1_555
C14 C13 1_555 1_555
C15 C14 1_555 1_555
H27 C15 1_555 1_555
C16 C15 1_555 1_555
H28 C16 1_555 1_555
C17 C16 1_555 1_555
C18 C17 1_555 1_555
H29 C18 1_555 1_555
C19 C14 1_555 1_555
H30 C19 1_555 1_555
C20 C17 1_555 1_555
H31 C20 1_555 1_555
H32 C20 1_555 1_555
C29 H41 1_555 1_555
H42 C29 1_555 1_555
C30 C29 1_555 1_555
C31 C30 1_555 1_555
H43 C31 1_555 1_555
C32 C31 1_555 1_555
H44 C32 1_555 1_555
C33 C32 1_555 1_555
C34 C33 1_555 1_555
H45 C34 1_555 1_555
C35 C30 1_555 1_555
H46 C35 1_555 1_555
C36 C33 1_555 1_555
H47 C36 1_555 1_555
H48 C36 1_555 1_555
C37 H49 1_555 1_555
H50 C37 1_555 1_555
C38 C37 1_555 1_555
C39 H51 1_555 1_555
H52 C39 1_555 1_555
C40 C39 1_555 1_555
C43 H55 1_555 1_555
H56 C43 1_555 1_555
C44 C43 1_555 1_555
C47 H59 1_555 1_555
H60 C47 1_555 1_555
C48 C47 1_555 1_555
N1 C1 1_555 1_555
N2 C2 1_555 1_555
H61 N2 1_555 1_555
N3 C4 1_555 1_555
H62 N3 1_555 1_555
N4 C6 1_555 1_555
H63 N4 1_555 1_555
N5 C7 1_555 1_555
N6 C8 1_555 1_555
H64 N6 1_555 1_555
N8 C12 1_555 1_555
H66 N8 1_555 1_555
O1 C38 1_555 1_555
O2 C38 1_555 1_555
O3 C40 1_555 1_555
O4 C40 1_555 1_555
O7 C44 1_555 1_555
O8 C44 1_555 1_555
O11 C48 1_555 1_555
O18 C48 1_555 1_555
Eu2 O4 1_555 1_555
C3 N1 1_555 1_555
C5 N1 1_555 1_555
C9 N5 1_555 1_555
C11 N5 1_555 1_555
C13 N2 1_555 1_555
C18 C19 1_555 1_555
C20 N6 1_555 1_555
C29 N4 1_555 1_555
C34 C35 1_555 1_555
C36 N8 1_555 1_555
C37 N2 1_555 1_555
C39 N3 1_555 1_555
C43 N6 1_555 1_555
C47 N8 1_555 1_555
C1_2 H1_2 1_555 1_555
H2_2 C1_2 1_555 1_555
C2_2 C1_2 1_555 1_555
H3_2 C2_2 1_555 1_555
H4_2 C2_2 1_555 1_555
C3_2 H5_2 1_555 1_555
H6_2 C3_2 1_555 1_555
C4_2 C3_2 1_555 1_555
H7_2 C4_2 1_555 1_555
H8_2 C4_2 1_555 1_555
C5_2 H9_2 1_555 1_555
H10_2 C5_2 1_555 1_555
C6_2 C5_2 1_555 1_555
H11_2 C6_2 1_555 1_555
H12_2 C6_2 1_555 1_555
C7_2 H13_2 1_555 1_555
H14_2 C7_2 1_555 1_555
C8_2 C7_2 1_555 1_555
H15_2 C8_2 1_555 1_555
H16_2 C8_2 1_555 1_555
C9_2 H17_2 1_555 1_555
H18_2 C9_2 1_555 1_555
C10_2 C9_2 1_555 1_555
H19_2 C10_2 1_555 1_555
H20_2 C10_2 1_555 1_555
C11_2 H21_2 1_555 1_555
H22_2 C11_2 1_555 1_555
C12_2 C11_2 1_555 1_555
H23_2 C12_2 1_555 1_555
H24_2 C12_2 1_555 1_555
C13_2 H25_2 1_555 1_555
H26_2 C13_2 1_555 1_555
C14_2 C13_2 1_555 1_555
C15_2 C14_2 1_555 1_555
H27_2 C15_2 1_555 1_555
C16_2 C15_2 1_555 1_555
H28_2 C16_2 1_555 1_555
C17_2 C16_2 1_555 1_555
C18_2 C17_2 1_555 1_555
H29_2 C18_2 1_555 1_555
C19_2 C14_2 1_555 1_555
H30_2 C19_2 1_555 1_555
C20_2 C17_2 1_555 1_555
H31_2 C20_2 1_555 1_555
H32_2 C20_2 1_555 1_555
C37_2 H49_2 1_555 1_555
H50_2 C37_2 1_555 1_555
C38_2 C37_2 1_555 1_555
C39_2 H51_2 1_555 1_555
H52_2 C39_2 1_555 1_555
C40_2 C39_2 1_555 1_555
C43_2 H55_2 1_555 1_555
H56_2 C43_2 1_555 1_555
C44_2 C43_2 1_555 1_555
N1_2 C1_2 1_555 1_555
N2_2 C2_2 1_555 1_555
H61_2 N2_2 1_555 1_555
N3_2 C4_2 1_555 1_555
H62_2 N3_2 1_555 1_555
N5_2 C7_2 1_555 1_555
N6_2 C8_2 1_555 1_555
H64_2 N6_2 1_555 1_555
O3_2 C40_2 1_555 1_555
O14 C40_2 1_555 1_555
O7_2 C44_2 1_555 1_555
O16 C44_2 1_555 1_555
O11_2 C48_2 1_555 1_555
O12 C48_2 1_555 1_555
C3_2 N1_2 1_555 1_555
C5_2 N1_2 1_555 1_555
C9_2 N5_2 1_555 1_555
C11_2 N5_2 1_555 1_555
C13_2 N2_2 1_555 1_555
C18_2 C19_2 1_555 1_555
C20_2 N6_2 1_555 1_555
C37_2 N2_2 1_555 1_555
C39_2 N3_2 1_555 1_555
C43_2 N6_2 1_555 1_555
C29_2 H41_2 1_555 1_555
H42_2 C29_2 1_555 1_555
C30_2 C29_2 1_555 1_555
C31_2 C30_2 1_555 1_555
H43_2 C31_2 1_555 1_555
C32_2 C31_2 1_555 1_555
H44_2 C32_2 1_555 1_555
C33_2 C32_2 1_555 1_555
C34_2 C33_2 1_555 1_555
H45_2 C34_2 1_555 1_555
C35_2 C30_2 1_555 1_555
H46_2 C35_2 1_555 1_555
C36_2 C33_2 1_555 1_555
H47_2 C36_2 1_555 1_555
H48_2 C36_2 1_555 1_555
C47_2 H59_2 1_555 1_555
H60_2 C47_2 1_555 1_555
C29_2 N4_2 1_555 1_555
C34_2 C35_2 1_555 1_555
C36_2 N8_2 1_555 1_555
C47_2 N8_2 1_555 1_555
O13_2 Eu2 1_555 1_555
O17 Eu2 1_555 1_555
O13_2 H67_2 1_555 1_555
O13_2 H68_2 1_555 1_555
C21_2 H33_2 1_555 1_555
H34_2 C21_2 1_555 1_555
C22_2 C21_2 1_555 1_555
C23_2 C22_2 1_555 1_555
H35_2 C23_2 1_555 1_555
C24_2 C23_2 1_555 1_555
H36_2 C24_2 1_555 1_555
C25_2 C24_2 1_555 1_555
C26_2 C25_2 1_555 1_555
H37_2 C26_2 1_555 1_555
C27_2 C22_2 1_555 1_555
H38_2 C27_2 1_555 1_555
C28_2 C25_2 1_555 1_555
H39_2 C28_2 1_555 1_555
H40_2 C28_2 1_555 1_555
C45_2 H57_2 1_555 1_555
H58_2 C45_2 1_555 1_555
C46_2 C45_2 1_555 1_555
H65_2 N7_2 1_555 1_555
O5_2 C42_2 1_555 1_555
O15 C42_2 1_555 1_555
C26_2 C27_2 1_555 1_555
C28_2 N7_2 1_555 1_555
C45_2 N7_2 1_555 1_555
C41_2 H53_2 1_555 1_555
N9 O19 1_555 1_555
O20 N9 1_555 1_555
O21 N9 1_555 1_555
O20_2 N9_2 1_555 1_555
O21_2 N9_2 1_555 1_555
N10 O22 1_555 1_555
O23 N10 1_555 1_555
O24 N10 1_555 1_555
N10_2 O22_2 1_555 1_555
O23_2 N10_2 1_555 1_555
O24_2 N10_2 1_555 1_555
N11 O25 1_555 1_555
O26 N11 1_555 1_555
O27 N11 1_555 1_555
N11_2 O25_2 1_555 1_555
O26_2 N11_2 1_555 1_555
O27_2 N11_2 1_555 1_555

#END
