
###############################################################################
#
# This file contains modified crystal structure data generated from the
# MOF subset of the Cambridge Structural Database (CSD) v543 
# hosted by the Cambridge Crystallographic Data Centre (CCDC).
#
# This work is licensed under the Creative Commons
# Attribution-NonCommercial-ShareAlike 4.0 International License.
# To view a copy of this license, visit
# http://creativecommons.org/licenses/by-nc-sa/4.0/
# or send a letter to
# Creative Commons, PO Box 1866, Mountain View, CA 94042, USA.
#
# CIF created using the CSD Python API on 29 September 2022
# The structure has been converted into the P1 space group
# The structure has a 3D framework
# The original CSD entry VAPBAR is in the trigonal crystal system
# The original CSD entry VAPBAR is in a Sohncke space group
# The framework has been calculated to contain at least 10.0% void space
# The void calculation uses a probe of radius 1.32A, grid spacing 0.4
# The framework is charged, counterions have been retained in the structure
#
###############################################################################

data_VAPBAR
_chemical_formula_moiety         '(C48 H66 Eu3 N10 O18 7+)n'
_symmetry_cell_setting           triclinic
_symmetry_space_group_name_H-M   'P 1'
_symmetry_Int_Tables_number      1
_space_group_name_Hall           'P 1'
loop_
_symmetry_equiv_pos_site_id
_symmetry_equiv_pos_as_xyz
1 x,y,z
_cell_length_a                   12.488(4)
_cell_length_b                   12.488(4)
_cell_length_c                   12.336(7)
_cell_angle_alpha                90
_cell_angle_beta                 90
_cell_angle_gamma                120
_cell_volume                     1666.06
loop_
_atom_site_label
_atom_site_type_symbol
_atom_site_fract_x
_atom_site_fract_y
_atom_site_fract_z
Eu4 Eu -0.0000 0.0000 0.0000
Eu4_2 Eu -0.0000 0.0000 1.0000
Eu4_3 Eu -0.0000 1.0000 0.0000
Eu4_4 Eu -0.0000 1.0000 1.0000
Eu4_5 Eu 1.0000 0.0000 0.0000
Eu4_6 Eu 1.0000 0.0000 1.0000
C22 C 0.668(2) 0.060(2) 0.685(2)
C23 C 0.392(3) 0.060(2) 0.315(2)
H39 H 0.6378 0.0856 0.7474
H40 H 0.4478 0.0856 0.2526
H44 H 0.7546 0.1204 0.6769
H45 H 0.3658 0.1204 0.3231
C27 C 0.6024(17) 0.0671(15) 0.5889(15)
C28 C 0.4647(23) 0.0671(15) 0.4111(15)
C31 C 0.4943(19) 0.0696(15) 0.6018(16)
C32 C 0.5753(24) 0.0696(15) 0.3982(16)
H49 H 0.4675 0.0715 0.6717
H50 H 0.6040 0.0715 0.3283
C36 C 0.4263(24) 0.0696(17) 0.5184(16)
C37 C 0.6433(17) 0.0696(17) 0.4816(16)
H53 H 0.7175 0.0713 0.4691
H54 H 0.3538 0.0713 0.5309
H58 H 0.2104 0.0308 0.2110
H59 H 0.8204 0.0308 0.7890
Eu4_7 Eu 1.0000 1.0000 0.0000
O1 O 0.1340(11) 0.1569(11) 0.1124(9)
O2 O 0.2415(12) 0.2883(12) 0.2394(11)
N1 N 0.3333 0.6667 0.319(2)
N2 N 0.0615(16) 0.3431(14) 0.2881(14)
H1 H 0.0872 0.3190 0.3476
C1 C 0.2445(14) 0.5369(12) 0.3467(13)
H2 H 0.2896 0.4936 0.3600
H3 H 0.2021 0.5350 0.4131
C2 C 0.1538(15) 0.4726(14) 0.2630(13)
H4 H 0.1968 0.4739 0.1971
H5 H 0.1106 0.5176 0.2487
C7 C 0.1485(19) 0.2338(19) 0.1867(17)
C8 C 0.0446(16) 0.2575(16) 0.1986(14)
H11 H 0.0347 0.2919 0.1313
Eu4_8 Eu 1.0000 1.0000 1.0000
O3 O 0.1340(11) 0.9771(16) 0.8876(9)
O4 O 0.0229(16) 0.8660(11) 0.1124(9)
O5 O 0.8431(11) 0.8660(11) 0.8876(9)
O6 O 0.0229(16) 0.1569(11) 0.8876(9)
O7 O 0.8431(11) 0.9771(16) 0.1124(9)
O13 O 0.2415(12) 0.9532(17) 0.7606(11)
O14 O 0.0468(17) 0.7585(12) 0.2394(11)
O15 O 0.7117(12) 0.7585(12) 0.7606(11)
O16 O 0.0468(17) 0.2883(12) 0.7606(11)
O17 O 0.7117(12) 0.9532(17) 0.2394(11)
N3 N 0.3334 0.6667 0.681(2)
N4 N 0.6569(14) 0.7184(21) 0.2881(14)
N5 N 0.2816(21) 0.3431(14) 0.7119(14)
N6 N 0.0615(16) 0.7184(21) 0.7119(14)
N7 N 0.6569(14) 0.9385(16) 0.7119(14)
N8 N 0.2816(21) 0.9385(16) 0.2881(14)
H12 H 0.6810 0.7682 0.3476
H13 H 0.2318 0.3190 0.6524
H14 H 0.0872 0.7682 0.6524
H15 H 0.6810 0.9128 0.6524
H16 H 0.2318 0.9128 0.3476
C9 C 0.4631(12) 0.7076(18) 0.3467(13)
C10 C 0.2924(18) 0.5369(12) 0.6533(13)
C11 C 0.2445(14) 0.7076(18) 0.6533(13)
C12 C 0.4631(12) 0.7555(14) 0.6533(13)
C13 C 0.2924(18) 0.7555(14) 0.3467(13)
H17 H 0.5064 0.7960 0.3600
H18 H 0.2896 0.7960 0.6400
H19 H 0.5064 0.7104 0.6400
H20 H 0.2040 0.7104 0.3600
H21 H 0.2040 0.4936 0.6400
H22 H 0.4650 0.6671 0.4131
H23 H 0.2021 0.6671 0.5869
H24 H 0.4650 0.7979 0.5869
H25 H 0.3329 0.7979 0.4131
H26 H 0.3329 0.5350 0.5869
C14 C 0.5274(14) 0.6812(21) 0.2630(13)
C15 C 0.3188(21) 0.4726(14) 0.7370(13)
C16 C 0.1538(15) 0.6812(21) 0.7370(13)
C17 C 0.5274(14) 0.8462(15) 0.7370(13)
C18 C 0.3188(21) 0.8462(15) 0.2630(13)
H27 H 0.1968 0.7229 0.8029
H28 H 0.2771 0.8032 0.1971
H29 H 0.5261 0.8032 0.8029
H30 H 0.2771 0.4739 0.8029
H31 H 0.5261 0.7229 0.1971
H32 H 0.1106 0.5930 0.7513
H33 H 0.4070 0.8894 0.2487
H34 H 0.4824 0.8894 0.7513
H35 H 0.4070 0.5176 0.7513
H36 H 0.4824 0.5930 0.2487
C19 C 0.668(2) 0.608(3) 0.315(2)
C20 C 0.392(3) 0.332(2) 0.685(2)
H37 H 0.6378 0.5522 0.2526
H41 H 0.4478 0.3622 0.7474
H42 H 0.7546 0.6342 0.3231
H46 H 0.3658 0.2454 0.6769
C24 C 0.6024(17) 0.5353(23) 0.4111(15)
C25 C 0.4647(23) 0.3976(17) 0.5889(15)
C29 C 0.4943(19) 0.4247(24) 0.3982(16)
C33 C 0.5753(24) 0.5057(19) 0.6018(16)
H47 H 0.4675 0.3960 0.3283
H51 H 0.6040 0.5325 0.6717
C34 C 0.4263(24) 0.3567(17) 0.4816(16)
C38 C 0.6433(17) 0.5737(24) 0.5184(16)
H55 H 0.7175 0.6462 0.5309
H56 H 0.3538 0.2825 0.4691
C39 C 0.1485(19) 0.9147(27) 0.8133(17)
C40 C 0.0853(27) 0.8515(19) 0.1867(17)
C41 C 0.7662(19) 0.8515(19) 0.8133(17)
C42 C 0.0853(27) 0.2338(19) 0.8133(17)
C43 C 0.7662(19) 0.9147(27) 0.1867(17)
C44 C 0.0446(16) 0.7871(23) 0.8014(14)
C45 C 0.2129(23) 0.9554(16) 0.1986(14)
C46 C 0.7425(16) 0.9554(16) 0.8014(14)
C47 C 0.2129(23) 0.2575(16) 0.8014(14)
C48 C 0.7425(16) 0.7871(23) 0.1986(14)
H60 H 0.2104 0.1796 0.7890
H61 H 0.8204 0.7896 0.2110
H62 H 0.0347 0.7428 0.8687
H63 H 0.2572 0.9653 0.1313
H64 H 0.7081 0.9653 0.8687
H65 H 0.2572 0.2919 0.8687
H66 H 0.7081 0.7428 0.1313
C3 C 0.940(2) 0.332(2) 0.315(2)
H6 H 0.9144 0.3622 0.2526
H7 H 0.8796 0.2454 0.3231
C4 C 0.9329(15) 0.3976(17) 0.4111(15)
C5 C 0.9304(15) 0.5057(19) 0.3982(16)
H8 H 0.9285 0.5325 0.3283
C6 C 0.9304(17) 0.3567(17) 0.5184(16)
H9 H 0.9287 0.2825 0.5309
H10 H 0.9692 0.1796 0.2110
C21 C 0.940(2) 0.608(3) 0.685(2)
H38 H 0.9144 0.5522 0.7474
H43 H 0.8796 0.6342 0.6769
C26 C 0.9329(15) 0.5353(23) 0.5889(15)
C30 C 0.9304(15) 0.4247(24) 0.6018(16)
H48 H 0.9285 0.3960 0.6717
C35 C 0.9304(17) 0.5737(24) 0.4816(16)
H52 H 0.9287 0.6462 0.4691
H57 H 0.9692 0.7896 0.7890
N9 N 0.3333 0.6667 0.0000
O18 O 0.2751(5) 0.5501(9) 0.0000
O19 O 0.4499(9) 0.7250(10) 0.0000
O20 O 0.2750(10) 0.7249(5) 0.0000
N9_2 N 0.3333 0.6667 1.0000
O18_2 O 0.2751(5) 0.5501(9) 1.0000
O19_2 O 0.4499(9) 0.7250(10) 1.0000
O20_2 O 0.2750(10) 0.7249(5) 1.0000
loop_
_geom_bond_atom_site_label_1
_geom_bond_atom_site_label_2
_geom_bond_site_symmetry_1
_geom_bond_site_symmetry_2
H39 C22 1_555 1_555
H40 C23 1_555 1_555
H44 C22 1_555 1_555
H45 C23 1_555 1_555
C27 C22 1_555 1_555
C28 C23 1_555 1_555
C31 C27 1_555 1_555
C32 C28 1_555 1_555
H49 C31 1_555 1_555
H50 C32 1_555 1_555
C36 C28 1_555 1_555
C37 C27 1_555 1_555
H53 C37 1_555 1_555
H54 C36 1_555 1_555
C31 C36 1_555 1_555
C32 C37 1_555 1_555
Eu4 O1 1_555 1_555
O1 C7 1_555 1_555
O2 C7 1_555 1_555
N1 C1 1_555 1_555
N2 H1 1_555 1_555
C1 H2 1_555 1_555
H3 C1 1_555 1_555
C2 N2 1_555 1_555
H4 C2 1_555 1_555
H5 C2 1_555 1_555
C7 C8 1_555 1_555
C8 N2 1_555 1_555
H11 C8 1_555 1_555
Eu4_4 O3 1_555 1_555
Eu4_3 O4 1_555 1_555
Eu4_8 O5 1_555 1_555
Eu4_2 O6 1_555 1_555
Eu4_7 O7 1_555 1_555
O3 C39 1_555 1_555
O4 C40 1_555 1_555
O5 C41 1_555 1_555
O6 C42 1_555 1_555
O7 C43 1_555 1_555
O13 C39 1_555 1_555
O14 C40 1_555 1_555
O15 C41 1_555 1_555
O16 C42 1_555 1_555
O17 C43 1_555 1_555
N3 C10 1_555 1_555
N4 H12 1_555 1_555
N5 H13 1_555 1_555
N6 H14 1_555 1_555
N7 H15 1_555 1_555
N8 H16 1_555 1_555
C9 N1 1_555 1_555
C10 H21 1_555 1_555
C11 N3 1_555 1_555
C12 N3 1_555 1_555
C13 N1 1_555 1_555
H17 C9 1_555 1_555
H18 C11 1_555 1_555
H19 C12 1_555 1_555
H20 C13 1_555 1_555
H22 C9 1_555 1_555
H23 C11 1_555 1_555
H24 C12 1_555 1_555
H25 C13 1_555 1_555
H26 C10 1_555 1_555
C14 N4 1_555 1_555
C15 N5 1_555 1_555
C16 N6 1_555 1_555
C17 N7 1_555 1_555
C18 N8 1_555 1_555
H27 C16 1_555 1_555
H28 C18 1_555 1_555
H29 C17 1_555 1_555
H30 C15 1_555 1_555
H31 C14 1_555 1_555
H32 C16 1_555 1_555
H33 C18 1_555 1_555
H34 C17 1_555 1_555
H35 C15 1_555 1_555
H36 C14 1_555 1_555
C19 N4 1_555 1_555
C20 N5 1_555 1_555
H37 C19 1_555 1_555
H41 C20 1_555 1_555
H42 C19 1_555 1_555
H46 C20 1_555 1_555
C24 C19 1_555 1_555
C25 C20 1_555 1_555
C29 C24 1_555 1_555
C33 C25 1_555 1_555
H47 C29 1_555 1_555
H51 C33 1_555 1_555
C34 C25 1_555 1_555
C38 C24 1_555 1_555
H55 C38 1_555 1_555
H56 C34 1_555 1_555
C39 C44 1_555 1_555
C40 C45 1_555 1_555
C41 C46 1_555 1_555
C42 C47 1_555 1_555
C43 C48 1_555 1_555
C44 N6 1_555 1_555
C45 N8 1_555 1_555
C46 N7 1_555 1_555
C47 N5 1_555 1_555
C48 N4 1_555 1_555
H60 C47 1_555 1_555
H61 C48 1_555 1_555
H62 C44 1_555 1_555
H63 C45 1_555 1_555
H64 C46 1_555 1_555
H65 C47 1_555 1_555
H66 C48 1_555 1_555
C1 C2 1_555 1_555
C9 C14 1_555 1_555
C10 C15 1_555 1_555
C11 C16 1_555 1_555
C12 C17 1_555 1_555
C13 C18 1_555 1_555
C29 C34 1_555 1_555
C33 C38 1_555 1_555
H6 C3 1_555 1_555
H7 C3 1_555 1_555
C4 C3 1_555 1_555
C5 C4 1_555 1_555
H8 C5 1_555 1_555
C6 C4 1_555 1_555
H9 C6 1_555 1_555
H38 C21 1_555 1_555
H43 C21 1_555 1_555
C26 C21 1_555 1_555
C30 C6 1_555 1_555
H48 C30 1_555 1_555
C35 C5 1_555 1_555
H52 C35 1_555 1_555
C26 C30 1_555 1_555
C26 C35 1_555 1_555
N9 O18 1_555 1_555
O19 N9 1_555 1_555
O20 N9 1_555 1_555
N9_2 O18_2 1_555 1_555
O19_2 N9_2 1_555 1_555
O20_2 N9_2 1_555 1_555

#END
