
###############################################################################
#
# This file contains modified crystal structure data generated from the
# MOF subset of the Cambridge Structural Database (CSD) v543 
# hosted by the Cambridge Crystallographic Data Centre (CCDC).
#
# This work is licensed under the Creative Commons
# Attribution-NonCommercial-ShareAlike 4.0 International License.
# To view a copy of this license, visit
# http://creativecommons.org/licenses/by-nc-sa/4.0/
# or send a letter to
# Creative Commons, PO Box 1866, Mountain View, CA 94042, USA.
#
# CIF created using the CSD Python API on 29 September 2022
# The structure has been converted into the P1 space group
# The structure has a 3D framework
# The original CSD entry VAPDEZ is in the rhombohedral crystal system
# The framework has been calculated to contain at least 10.0% void space
# The void calculation uses a probe of radius 1.32A, grid spacing 0.4
#
###############################################################################

data_VAPDEZ
_chemical_formula_moiety         '(C324 H288 N18 Ni22 O144)n'
_symmetry_cell_setting           triclinic
_symmetry_space_group_name_H-M   'P 1'
_symmetry_Int_Tables_number      1
_space_group_name_Hall           'P 1'
loop_
_symmetry_equiv_pos_site_id
_symmetry_equiv_pos_as_xyz
1 x,y,z
_cell_length_a                   31.5090(4)
_cell_length_b                   31.5090(4)
_cell_length_c                   14.9723(2)
_cell_angle_alpha                90
_cell_angle_beta                 90
_cell_angle_gamma                120
_cell_volume                     12873.3
loop_
_atom_site_label
_atom_site_type_symbol
_atom_site_fract_x
_atom_site_fract_y
_atom_site_fract_z
Ni3 Ni 0.45660(2) 0.58220(3) 0.46930(4)
O9 O 0.51886(11) 0.60938(16) 0.4028(2)
O10 O 0.53362(8) 0.54670(12) 0.39256(15)
O13 O 0.86939(9) 0.81200(13) 0.13075(18)
O14 O 0.84128(8) 0.73796(11) 0.18466(15)
O15 O 0.46119(13) 0.64976(17) 0.4846(2)
O16 O 0.41911(16) 0.56984(22) 0.3493(2)
H17 H 0.4081 0.5903 0.3200
H18 H 0.4082 0.5424 0.3085
N2 N 0.5161(2) 0.72806(27) 0.5362(4)
C19 C 0.54033(12) 0.58781(18) 0.3711(2)
C20 C 0.57778(13) 0.61667(18) 0.3009(2)
C21 C 0.58333(16) 0.66122(22) 0.2713(3)
H19 H 0.5620 0.6715 0.2918
C22 C 0.61982(16) 0.69018(22) 0.2122(3)
H20 H 0.6225 0.7194 0.1923
C23 C 0.65301(13) 0.67607(18) 0.1817(2)
C24 C 0.64589(13) 0.63053(18) 0.2076(2)
H21 H 0.6663 0.6197 0.1852
C25 C 0.60865(13) 0.60137(18) 0.2664(2)
H22 H 0.6043 0.5710 0.2830
C26 C 0.69650(12) 0.71161(17) 0.1299(2)
C27 C 0.69267(12) 0.74128(17) 0.0641(2)
H23 H 0.6619 0.7360 0.0476
C28 C 0.73435(12) 0.77841(16) 0.0235(2)
C29 C 0.78045(12) 0.78686(17) 0.0498(2)
H24 H 0.8085 0.8125 0.0245
C30 C 0.78441(12) 0.75714(16) 0.1134(2)
C31 C 0.74276(13) 0.71888(18) 0.1521(2)
H25 H 0.7456 0.6981 0.1926
C33 C 0.83419(12) 0.76931(17) 0.1430(2)
C34 C 0.5050(2) 0.6861(3) 0.4968(3)
H26 H 0.5309 0.6825 0.4763
C35 C 0.4781(4) 0.7348(5) 0.5780(6)
H27 H 0.4474 0.7046 0.5753
H28 H 0.4752 0.7598 0.5470
H29 H 0.4865 0.7441 0.6393
C36 C 0.5664(3) 0.7672(4) 0.5444(5)
H30 H 0.5871 0.7599 0.5084
H31 H 0.5765 0.7704 0.6058
H32 H 0.5691 0.7975 0.5246
Ni5 Ni 0.91553(3) 0.79226(2) 0.19737(4)
Ni7 Ni 0.8333 0.6667 0.1667
Ni9 Ni 0.5001 0.5000 0.5000
O20 O 0.49081(13) 0.59637(10) 0.58780(17)
O21 O 0.39073(9) 0.53606(9) 0.53592(18)
O24 O 0.43666(8) 0.50795(8) 0.48201(15)
Ni1 Ni 0.79226(2) 0.87673(2) 0.80263(4)
O1 O 0.75718(11) 0.81447(11) 0.7361(2)
O2 O 0.67974(9) 0.79971(8) 0.72589(15)
O3 O 0.77737(8) 0.64368(9) 0.25788(16)
O4 O 0.73696(10) 0.56110(9) 0.25447(17)
O5 O 0.60927(9) 0.46394(9) 0.46408(18)
O6 O 0.56334(8) 0.49205(8) 0.51799(15)
O7 O 0.85523(11) 0.87214(13) 0.8179(2)
O8 O 0.81739(15) 0.91422(16) 0.6826(2)
H1 H 0.8488 0.9252 0.6533
H2 H 0.8008 0.9251 0.6418
N1 N 0.87859(18) 0.8172(2) 0.8695(4)
C1 C 0.71414(14) 0.79300(12) 0.7044(2)
C2 C 0.70555(13) 0.75555(13) 0.6342(2)
C3 C 0.74455(15) 0.75000(16) 0.6046(3)
H3 H 0.7761 0.7713 0.6251
C4 C 0.73702(15) 0.71351(16) 0.5455(3)
H4 H 0.7635 0.7108 0.5256
C5 C 0.68972(13) 0.68032(13) 0.5150(2)
C6 C 0.65130(13) 0.68744(13) 0.5409(2)
H5 H 0.6200 0.6670 0.5185
C7 C 0.65938(13) 0.72468(13) 0.5997(2)
H6 H 0.6333 0.7290 0.6163
C8 C 0.68177(12) 0.63683(12) 0.4632(2)
C9 C 0.71527(12) 0.64066(12) 0.3974(2)
H7 H 0.7407 0.6714 0.3809
C10 C 0.71072(11) 0.59898(12) 0.3568(2)
C11 C 0.67307(12) 0.55288(12) 0.3831(2)
H8 H 0.6706 0.5248 0.3578
C12 C 0.63939(11) 0.54892(12) 0.4467(2)
C13 C 0.64278(12) 0.59057(13) 0.4854(2)
H9 H 0.6191 0.5877 0.5259
C14 C 0.74485(12) 0.60203(12) 0.2835(2)
C15 C 0.60178(12) 0.49914(12) 0.4763(2)
C16 C 0.8477(2) 0.8283(2) 0.8301(3)
H10 H 0.8182 0.8024 0.8096
C17 C 0.9233(3) 0.8552(4) 0.9113(6)
H11 H 0.9238 0.8859 0.9086
H12 H 0.9512 0.8581 0.8803
H13 H 0.9242 0.8468 0.9726
C18 C 0.8674(3) 0.7669(3) 0.8777(5)
H14 H 0.8394 0.7462 0.8417
H15 H 0.8605 0.7568 0.9391
H16 H 0.8950 0.7642 0.8579
O11 O 0.68965(9) 0.80036(12) 0.92455(16)
O12 O 0.77223(9) 0.84253(13) 0.92114(17)
C32 C 0.73130(12) 0.80949(17) 0.9502(2)
Ni4 Ni 0.75114(3) 0.54107(2) 0.13596(4)
Ni6 Ni 0.54340(2) 0.41780(3) 0.53070(4)
Ni10 Ni 0.6666 0.8333 0.8334
O17 O 0.78664(12) 0.65359(9) 0.05922(15)
O18 O 0.88003(12) 0.67974(9) 0.27411(15)
O19 O 0.88930(8) 0.68965(9) 0.07545(16)
O22 O 0.81200(13) 0.94260(9) 0.86925(18)
O25 O 0.73796(11) 0.89667(8) 0.81534(15)
O26 O 0.82538(8) 0.59538(11) 0.14868(15)
O13_2 O 0.18800(13) 0.05740(16) 0.13075(18)
O14_2 O 0.26204(11) 0.10333(14) 0.18466(15)
C24_2 C 0.36947(18) 0.01537(22) 0.2076(2)
H21_2 H 0.3803 0.0467 0.1852
C25_2 C 0.39863(18) 0.00729(22) 0.2664(2)
H22_2 H 0.4290 0.0334 0.2830
C30_2 C 0.24286(16) 0.02728(20) 0.1134(2)
C31_2 C 0.28112(18) 0.02389(22) 0.1521(2)
H25_2 H 0.3019 0.0476 0.1926
C33_2 C 0.23069(17) 0.06489(21) 0.1430(2)
Ni5_2 Ni 0.20774(2) 0.12327(4) 0.19737(4)
Ni7_2 Ni 0.3333 0.1666 0.1667
Ni9_2 Ni 0.5000 0.0000 0.5000
O3_2 O 0.35632(9) 0.13369(12) 0.25788(16)
O4_2 O 0.43890(9) 0.17586(13) 0.25447(17)
O5_2 O 0.53606(9) 0.14533(13) 0.46408(18)
O6_2 O 0.50795(8) 0.07129(11) 0.51799(15)
N1_2 N 0.1828(2) 0.06139(27) 0.8695(4)
H3_2 H 0.2287 0.0048 0.6251
C4_2 C 0.28649(16) 0.02351(22) 0.5455(3)
H4_2 H 0.2892 0.0527 0.5256
C5_2 C 0.31968(13) 0.00940(18) 0.5150(2)
C8_2 C 0.36317(12) 0.04494(17) 0.4632(2)
C9_2 C 0.35934(12) 0.07461(17) 0.3974(2)
H7_2 H 0.3286 0.0693 0.3809
C10_2 C 0.40102(12) 0.11174(16) 0.3568(2)
C11_2 C 0.44712(12) 0.12019(17) 0.3831(2)
H8_2 H 0.4752 0.1458 0.3578
C12_2 C 0.45108(12) 0.09047(16) 0.4467(2)
C13_2 C 0.40943(13) 0.05221(18) 0.4854(2)
H9_2 H 0.4123 0.0314 0.5259
C14_2 C 0.39797(12) 0.14282(17) 0.2835(2)
C15_2 C 0.50086(12) 0.10264(17) 0.4763(2)
C16_2 C 0.1717(2) 0.0194(3) 0.8301(3)
H10_2 H 0.1976 0.0158 0.8096
C17_2 C 0.1448(4) 0.0681(5) 0.9113(6)
H11_2 H 0.1141 0.0379 0.9086
H12_2 H 0.1419 0.0931 0.8803
H13_2 H 0.1532 0.0774 0.9726
C18_2 C 0.2331(3) 0.1005(4) 0.8777(5)
H14_2 H 0.2538 0.0932 0.8417
H15_2 H 0.2432 0.1037 0.9391
H16_2 H 0.2358 0.1308 0.8579
Ni4_2 Ni 0.45893(2) 0.21006(4) 0.13596(4)
Ni6_2 Ni 0.58220(3) 0.12559(4) 0.53070(4)
O17_2 O 0.34641(9) 0.13304(15) 0.05922(15)
O18_2 O 0.32026(9) 0.20029(15) 0.27411(15)
O19_2 O 0.31035(9) 0.19964(12) 0.07545(16)
O26_2 O 0.40462(11) 0.23001(14) 0.14868(15)
Ni3_2 Ni 0.41780(3) 0.87441(4) 0.46930(4)
O9_2 O 0.39062(16) 0.90949(19) 0.4028(2)
O10_2 O 0.45330(12) 0.98693(14) 0.39256(15)
O15_2 O 0.35024(17) 0.81144(21) 0.4846(2)
O16_2 O 0.43016(22) 0.84928(27) 0.3493(2)
H17_2 H 0.4097 0.8179 0.3200
H18_2 H 0.4576 0.8659 0.3085
N2_2 N 0.27194(27) 0.78808(34) 0.5362(4)
C19_2 C 0.41219(18) 0.95253(22) 0.3711(2)
C20_2 C 0.38333(18) 0.96112(22) 0.3009(2)
C21_2 C 0.33878(22) 0.92212(27) 0.2713(3)
H19_2 H 0.3285 0.8906 0.2918
C22_2 C 0.30982(22) 0.92965(27) 0.2122(3)
H20_2 H 0.2806 0.9032 0.1923
C23_2 C 0.32393(18) 0.97695(22) 0.1817(2)
C26_2 C 0.28839(17) 0.98490(21) 0.1299(2)
C27_2 C 0.25872(17) 0.95140(21) 0.0641(2)
H23_2 H 0.2640 0.9260 0.0476
C28_2 C 0.22159(16) 0.95595(20) 0.0235(2)
C29_2 C 0.21314(17) 0.99360(21) 0.0498(2)
H24_2 H 0.1875 0.9961 0.0245
C34_2 C 0.3139(3) 0.8190(4) 0.4968(3)
H26_2 H 0.3175 0.8485 0.4763
C35_2 C 0.2652(5) 0.7434(6) 0.5780(6)
H27_2 H 0.2954 0.7429 0.5753
H28_2 H 0.2402 0.7155 0.5470
H29_2 H 0.2559 0.7425 0.6393
C36_2 C 0.2328(4) 0.7993(5) 0.5444(5)
H30_2 H 0.2401 0.8273 0.5084
H31_2 H 0.2296 0.8062 0.6058
H32_2 H 0.2025 0.7717 0.5246
O20_2 O 0.40363(10) 0.89443(16) 0.58780(17)
O21_2 O 0.46394(9) 0.85467(13) 0.53592(18)
O24_2 O 0.49205(8) 0.92871(11) 0.48201(15)
Ni1_2 Ni 0.12327(2) 0.91553(3) 0.80263(4)
O1_2 O 0.18553(11) 0.94271(16) 0.7361(2)
O2_2 O 0.20029(8) 0.88003(12) 0.72589(15)
O7_2 O 0.12786(13) 0.98309(17) 0.8179(2)
O8_2 O 0.08578(16) 0.90317(22) 0.6826(2)
H1_2 H 0.0748 0.9236 0.6533
H2_2 H 0.0749 0.8757 0.6418
C1_2 C 0.20700(12) 0.92114(18) 0.7044(2)
C2_2 C 0.24445(13) 0.95000(18) 0.6342(2)
C3_2 C 0.25000(16) 0.99455(22) 0.6046(3)
C6_2 C 0.31256(13) 0.96386(18) 0.5409(2)
H5_2 H 0.3330 0.9530 0.5185
C7_2 C 0.27532(13) 0.93470(18) 0.5997(2)
H6_2 H 0.2710 0.9043 0.6163
O11_2 O 0.19964(12) 0.88930(15) 0.92455(16)
O12_2 O 0.15747(13) 0.92971(16) 0.92114(17)
C32_2 C 0.19051(17) 0.92182(21) 0.9502(2)
Ni10_2 Ni 0.1667 0.8334 0.8334
O22_2 O 0.05740(9) 0.86939(16) 0.86925(18)
O25_2 O 0.10333(8) 0.84128(14) 0.81534(15)
Ni3_3 Ni 0.12559(4) 0.54340(2) 0.46930(4)
O9_3 O 0.09051(19) 0.48114(11) 0.4028(2)
O10_3 O 0.01307(14) 0.46638(8) 0.39256(15)
O15_3 O 0.18856(21) 0.53881(13) 0.4846(2)
O16_3 O 0.15072(27) 0.58089(16) 0.3493(2)
H17_3 H 0.1821 0.5919 0.3200
H18_3 H 0.1341 0.5918 0.3085
N2_3 N 0.21192(34) 0.4839(2) 0.5362(4)
C19_3 C 0.04747(22) 0.45967(12) 0.3711(2)
C20_3 C 0.03888(22) 0.42222(13) 0.3009(2)
C21_3 C 0.07788(27) 0.41667(16) 0.2713(3)
H19_3 H 0.1094 0.4380 0.2918
C22_3 C 0.07035(27) 0.38018(16) 0.2122(3)
H20_3 H 0.0968 0.3775 0.1923
C23_3 C 0.02305(22) 0.34699(13) 0.1817(2)
C26_3 C 0.01510(21) 0.30350(12) 0.1299(2)
C27_3 C 0.04860(21) 0.30733(12) 0.0641(2)
H23_3 H 0.0740 0.3381 0.0476
C28_3 C 0.04405(20) 0.26565(12) 0.0235(2)
C29_3 C 0.00640(21) 0.21955(12) 0.0498(2)
H24_3 H 0.0039 0.1915 0.0245
C34_3 C 0.1810(4) 0.4950(2) 0.4968(3)
H26_3 H 0.1515 0.4691 0.4763
C35_3 C 0.2566(6) 0.5219(4) 0.5780(6)
H27_3 H 0.2571 0.5526 0.5753
H28_3 H 0.2845 0.5248 0.5470
H29_3 H 0.2575 0.5135 0.6393
C36_3 C 0.2007(5) 0.4336(3) 0.5444(5)
H30_3 H 0.1727 0.4129 0.5084
H31_3 H 0.1938 0.4235 0.6058
H32_3 H 0.2283 0.4309 0.5246
O20_3 O 0.10557(16) 0.50919(13) 0.58780(17)
O21_3 O 0.14533(13) 0.60927(9) 0.53592(18)
O24_3 O 0.07129(11) 0.56334(8) 0.48201(15)
Ni1_3 Ni 0.08447(3) 0.20774(2) 0.80263(4)
O1_3 O 0.05729(16) 0.24282(11) 0.7361(2)
O2_3 O 0.11997(12) 0.32026(9) 0.72589(15)
O7_3 O 0.01691(17) 0.14477(11) 0.8179(2)
O8_3 O 0.09683(22) 0.18261(15) 0.6826(2)
H1_3 H 0.0764 0.1512 0.6533
H2_3 H 0.1243 0.1992 0.6418
C1_3 C 0.07886(18) 0.28586(14) 0.7044(2)
C2_3 C 0.05000(18) 0.29445(13) 0.6342(2)
C3_3 C 0.00545(22) 0.25545(15) 0.6046(3)
C6_3 C 0.03614(18) 0.34870(13) 0.5409(2)
H5_3 H 0.0470 0.3800 0.5185
C7_3 C 0.06530(18) 0.34062(13) 0.5997(2)
H6_3 H 0.0957 0.3667 0.6163
O11_3 O 0.11070(15) 0.31035(9) 0.92455(16)
O12_3 O 0.07029(16) 0.22777(9) 0.92114(17)
C32_3 C 0.07818(21) 0.26870(12) 0.9502(2)
Ni10_3 Ni 0.1666 0.3334 0.8334
O22_3 O 0.13061(16) 0.18800(13) 0.86925(18)
O25_3 O 0.15872(14) 0.26204(11) 0.81534(15)
O13_3 O 0.94260(16) 0.13061(9) 0.13075(18)
O14_3 O 0.89667(14) 0.15872(8) 0.18466(15)
C24_3 C 0.98463(22) 0.35411(13) 0.2076(2)
H21_3 H 0.9533 0.3337 0.1852
C25_3 C 0.99271(22) 0.39135(13) 0.2664(2)
H22_3 H 0.9666 0.3957 0.2830
C30_3 C 0.97272(20) 0.21559(12) 0.1134(2)
C31_3 C 0.97611(22) 0.25724(13) 0.1521(2)
H25_3 H 0.9524 0.2544 0.1926
C33_3 C 0.93511(21) 0.16581(12) 0.1430(2)
Ni5_3 Ni 0.87673(4) 0.08447(3) 0.19737(4)
Ni7_3 Ni 0.8334 0.1667 0.1667
Ni9_3 Ni 1.0000 0.4999 0.5000
O3_3 O 0.86631(12) 0.22263(8) 0.25788(16)
O4_3 O 0.82414(13) 0.26304(10) 0.25447(17)
O5_3 O 0.85467(13) 0.39073(9) 0.46408(18)
O6_3 O 0.92871(11) 0.43666(8) 0.51799(15)
N1_3 N 0.93861(27) 0.12141(18) 0.8695(4)
H3_3 H 0.9952 0.2239 0.6251
C4_3 C 0.97649(22) 0.26298(15) 0.5455(3)
H4_3 H 0.9473 0.2365 0.5256
C5_3 C 0.99060(18) 0.31028(13) 0.5150(2)
C8_3 C 0.95506(17) 0.31823(12) 0.4632(2)
C9_3 C 0.92539(17) 0.28473(12) 0.3974(2)
H7_3 H 0.9307 0.2593 0.3809
C10_3 C 0.88826(16) 0.28928(11) 0.3568(2)
C11_3 C 0.87981(17) 0.32693(12) 0.3831(2)
H8_3 H 0.8542 0.3294 0.3578
C12_3 C 0.90953(16) 0.36061(11) 0.4467(2)
C13_3 C 0.94779(18) 0.35722(12) 0.4854(2)
H9_3 H 0.9686 0.3809 0.5259
C14_3 C 0.85718(17) 0.25515(12) 0.2835(2)
C15_3 C 0.89736(17) 0.39822(12) 0.4763(2)
C16_3 C 0.9806(3) 0.1523(2) 0.8301(3)
H10_3 H 0.9842 0.1818 0.8096
C17_3 C 0.9319(5) 0.0767(3) 0.9113(6)
H11_3 H 0.9621 0.0762 0.9086
H12_3 H 0.9069 0.0488 0.8803
H13_3 H 0.9226 0.0758 0.9726
C18_3 C 0.8995(4) 0.1326(3) 0.8777(5)
H14_3 H 0.9068 0.1606 0.8417
H15_3 H 0.8963 0.1395 0.9391
H16_3 H 0.8692 0.1050 0.8579
Ni4_3 Ni 0.78994(4) 0.24886(3) 0.13596(4)
Ni6_3 Ni 0.87441(4) 0.45660(2) 0.53070(4)
O17_3 O 0.86696(15) 0.21336(12) 0.05922(15)
O18_3 O 0.79971(15) 0.11997(12) 0.27411(15)
O19_3 O 0.80036(12) 0.11070(8) 0.07545(16)
O26_3 O 0.76999(14) 0.17462(8) 0.14868(15)
O1_4 O 0.42385(11) 0.14780(11) 0.0694(2)
O7_4 O 0.52190(11) 0.20547(13) 0.1512(2)
O8_4 O 0.48406(15) 0.24755(16) 0.0159(2)
N1_4 N 0.54526(18) 0.1505(2) 0.2028(4)
C1_4 C 0.38081(14) 0.12633(12) 0.0377(2)
C16_4 C 0.5144(2) 0.1616(2) 0.1634(3)
H10_4 H 0.4849 0.1357 0.1429
C17_4 C 0.5900(3) 0.1885(4) 0.2446(6)
H11_4 H 0.5905 0.2192 0.2419
H12_4 H 0.6179 0.1914 0.2136
H13_4 H 0.5909 0.1801 0.3059
C18_4 C 0.5341(3) 0.1002(3) 0.2110(5)
H14_4 H 0.5061 0.0795 0.1750
H15_4 H 0.5272 0.0901 0.2724
H16_4 H 0.5617 0.0975 0.1912
O22_4 O 0.47866(13) 0.27594(9) 0.20259(18)
H1_4 H 0.5155 0.2585 0.9866
H2_4 H 0.4675 0.2584 0.9751
C2_4 C 0.37222(13) 0.08888(13) 0.9675(2)
C3_4 C 0.41122(15) 0.08333(16) 0.9379(3)
H3_4 H 0.4428 0.1046 0.9584
C4_4 C 0.40369(15) 0.04684(16) 0.8788(3)
H4_4 H 0.4302 0.0441 0.8589
C5_4 C 0.35639(13) 0.01365(13) 0.8483(2)
C6_4 C 0.31797(13) 0.02077(13) 0.8742(2)
H5_4 H 0.2867 0.0003 0.8518
C7_4 C 0.32605(13) 0.05801(13) 0.9330(2)
H6_4 H 0.3000 0.0623 0.9496
H7_4 H 0.4074 0.0047 0.7142
O18_4 O 0.54670(12) 0.01307(9) 0.60744(15)
O19_4 O 0.55596(8) 0.02299(9) 0.40879(16)
O3_4 O 0.44404(8) 0.97701(9) 0.59121(16)
O5_4 O 0.27594(9) 0.79727(9) 0.79741(18)
O6_4 O 0.23001(8) 0.82538(8) 0.85132(15)
C8_4 C 0.34844(12) 0.97016(12) 0.7965(2)
C9_4 C 0.38194(12) 0.97399(12) 0.7307(2)
C10_4 C 0.37739(11) 0.93231(12) 0.6901(2)
C11_4 C 0.33974(12) 0.88621(12) 0.7164(2)
H8_4 H 0.3373 0.8581 0.6911
C12_4 C 0.30606(11) 0.88225(12) 0.7800(2)
C13_4 C 0.30945(12) 0.92390(13) 0.8187(2)
H9_4 H 0.2858 0.9210 0.8592
C14_4 C 0.41152(12) 0.93536(12) 0.6168(2)
C15_4 C 0.26845(12) 0.83247(12) 0.8096(2)
Ni6_4 Ni 0.21006(2) 0.75114(3) 0.86404(4)
O3_5 O 0.02299(9) 0.46702(12) 0.59121(16)
O5_5 O 0.20273(9) 0.47866(13) 0.79741(18)
O6_5 O 0.17462(8) 0.40462(11) 0.85132(15)
C8_5 C 0.02984(12) 0.37827(17) 0.7965(2)
C9_5 C 0.02601(12) 0.40794(17) 0.7307(2)
C10_5 C 0.06769(12) 0.44507(16) 0.6901(2)
C11_5 C 0.11379(12) 0.45352(17) 0.7164(2)
H8_5 H 0.1419 0.4791 0.6911
C12_5 C 0.11775(12) 0.42380(16) 0.7800(2)
C13_5 C 0.07610(13) 0.38554(18) 0.8187(2)
H9_5 H 0.0790 0.3647 0.8592
C14_5 C 0.06464(12) 0.47615(17) 0.6168(2)
C15_5 C 0.16753(12) 0.43597(17) 0.8096(2)
Ni6_5 Ni 0.24886(3) 0.45893(4) 0.86404(4)
O1_5 O 0.85220(11) 0.27604(16) 0.0694(2)
O7_5 O 0.79453(13) 0.31642(17) 0.1512(2)
O8_5 O 0.75245(16) 0.23650(22) 0.0159(2)
N1_5 N 0.8495(2) 0.39472(27) 0.2028(4)
C1_5 C 0.87367(12) 0.25447(18) 0.0377(2)
C16_5 C 0.8384(2) 0.3527(3) 0.1634(3)
H10_5 H 0.8643 0.3491 0.1429
C17_5 C 0.8115(4) 0.4014(5) 0.2446(6)
H11_5 H 0.7808 0.3712 0.2419
H12_5 H 0.8086 0.4264 0.2136
H13_5 H 0.8199 0.4107 0.3059
C18_5 C 0.8998(3) 0.4338(4) 0.2110(5)
H14_5 H 0.9205 0.4265 0.1750
H15_5 H 0.9099 0.4370 0.2724
H16_5 H 0.9025 0.4641 0.1912
O22_5 O 0.72406(9) 0.20273(16) 0.20259(18)
H1_5 H 0.7415 0.2569 0.9866
H2_5 H 0.7416 0.2090 0.9751
C2_5 C 0.91112(13) 0.28333(18) 0.9675(2)
C3_5 C 0.91667(16) 0.32788(22) 0.9379(3)
H3_5 H 0.8954 0.3381 0.9584
C4_5 C 0.95316(16) 0.35684(22) 0.8788(3)
H4_5 H 0.9559 0.3860 0.8589
C5_5 C 0.98635(13) 0.34273(18) 0.8483(2)
C6_5 C 0.97923(13) 0.29719(18) 0.8742(2)
H5_5 H 0.9997 0.2863 0.8518
C7_5 C 0.94199(13) 0.26803(18) 0.9330(2)
H6_5 H 0.9377 0.2376 0.9496
H7_5 H 0.9953 0.4026 0.7142
O18_5 O 0.98693(9) 0.53362(15) 0.60744(15)
O19_5 O 0.97701(9) 0.53298(12) 0.40879(16)
O1_6 O 0.72396(16) 0.57615(11) 0.0694(2)
O7_6 O 0.68358(17) 0.47810(11) 0.1512(2)
O8_6 O 0.76350(22) 0.51594(15) 0.0159(2)
N1_6 N 0.60528(27) 0.45474(18) 0.2028(4)
C1_6 C 0.74553(18) 0.61919(14) 0.0377(2)
C16_6 C 0.6473(3) 0.4856(2) 0.1634(3)
H10_6 H 0.6509 0.5151 0.1429
C17_6 C 0.5986(5) 0.4100(3) 0.2446(6)
H11_6 H 0.6288 0.4095 0.2419
H12_6 H 0.5736 0.3821 0.2136
H13_6 H 0.5893 0.4091 0.3059
C18_6 C 0.5662(4) 0.4659(3) 0.2110(5)
H14_6 H 0.5735 0.4939 0.1750
H15_6 H 0.5630 0.4728 0.2724
H16_6 H 0.5359 0.4383 0.1912
O22_6 O 0.79727(16) 0.52134(13) 0.20259(18)
O3_6 O 0.53298(12) 0.55596(8) 0.59121(16)
O5_6 O 0.52134(13) 0.72406(9) 0.79741(18)
O6_6 O 0.59538(11) 0.76999(8) 0.85132(15)
H1_6 H 0.7431 0.4845 0.9866
H2_6 H 0.7910 0.5325 0.9751
C2_6 C 0.71667(18) 0.62778(13) 0.9675(2)
C3_6 C 0.67212(22) 0.58878(15) 0.9379(3)
H3_6 H 0.6619 0.5572 0.9584
C4_6 C 0.64316(22) 0.59631(15) 0.8788(3)
H4_6 H 0.6140 0.5698 0.8589
C5_6 C 0.65727(18) 0.64361(13) 0.8483(2)
C6_6 C 0.70281(18) 0.68203(13) 0.8742(2)
H5_6 H 0.7137 0.7133 0.8518
C7_6 C 0.73197(18) 0.67395(13) 0.9330(2)
H6_6 H 0.7624 0.7000 0.9496
C8_6 C 0.62173(17) 0.65156(12) 0.7965(2)
C9_6 C 0.59206(17) 0.61806(12) 0.7307(2)
H7_6 H 0.5974 0.5926 0.7142
C10_6 C 0.55493(16) 0.62261(11) 0.6901(2)
C11_6 C 0.54648(17) 0.66026(12) 0.7164(2)
H8_6 H 0.5209 0.6627 0.6911
C12_6 C 0.57620(16) 0.69394(11) 0.7800(2)
C13_6 C 0.61446(18) 0.69055(12) 0.8187(2)
H9_6 H 0.6353 0.7142 0.8592
C14_6 C 0.52385(17) 0.58848(12) 0.6168(2)
C15_6 C 0.56403(17) 0.73155(12) 0.8096(2)
Ni6_6 Ni 0.54107(4) 0.78994(2) 0.86404(4)
O18_6 O 0.46638(15) 0.45330(12) 0.60744(15)
O19_6 O 0.46702(12) 0.44404(8) 0.40879(16)
O18_7 O 0.21336(12) 0.34641(9) 0.94078(15)
O19_7 O 0.22263(8) 0.35632(9) 0.74212(16)
O18_8 O 0.65359(9) 0.86696(15) 0.94078(15)
O19_8 O 0.64368(9) 0.86631(12) 0.74212(16)
O18_9 O 0.13304(15) 0.78664(12) 0.94078(15)
O19_9 O 0.13369(12) 0.77737(8) 0.74212(16)
O1_7 O 0.24282(11) 0.18553(11) 0.2639(2)
O4_4 O 0.26304(10) 0.43890(9) 0.74553(17)
O7_7 O 0.14477(11) 0.12786(13) 0.1821(2)
O8_7 O 0.18261(15) 0.08578(16) 0.3174(2)
H1_7 H 0.1512 0.0748 0.3467
H2_7 H 0.1992 0.0749 0.3582
N1_7 N 0.12141(18) 0.1828(2) 0.1305(4)
C1_7 C 0.28586(14) 0.20700(12) 0.2956(2)
C2_7 C 0.29445(13) 0.24445(13) 0.3658(2)
C3_7 C 0.25545(15) 0.25000(16) 0.3954(3)
H3_7 H 0.2239 0.2287 0.3749
C4_7 C 0.26298(15) 0.28649(16) 0.4545(3)
H4_7 H 0.2365 0.2892 0.4744
C5_7 C 0.31028(13) 0.31968(13) 0.4850(2)
C6_7 C 0.34870(13) 0.31256(13) 0.4591(2)
H5_7 H 0.3800 0.3330 0.4815
C7_7 C 0.34062(13) 0.27532(13) 0.4003(2)
H6_7 H 0.3667 0.2710 0.3837
C8_7 C 0.31823(12) 0.36317(12) 0.5368(2)
C9_7 C 0.28473(12) 0.35934(12) 0.6026(2)
H7_7 H 0.2593 0.3286 0.6191
C10_7 C 0.28928(11) 0.40102(12) 0.6432(2)
C11_7 C 0.32693(12) 0.44712(12) 0.6169(2)
H8_7 H 0.3294 0.4752 0.6422
C12_7 C 0.36061(11) 0.45108(12) 0.5533(2)
C13_7 C 0.35722(12) 0.40943(13) 0.5146(2)
H9_7 H 0.3809 0.4123 0.4741
C14_7 C 0.25515(12) 0.39797(12) 0.7165(2)
C15_7 C 0.39822(12) 0.50086(12) 0.5237(2)
C16_7 C 0.1523(2) 0.1717(2) 0.1699(3)
H10_7 H 0.1818 0.1976 0.1904
C17_7 C 0.0767(3) 0.1448(4) 0.0887(6)
H11_7 H 0.0762 0.1141 0.0914
H12_7 H 0.0488 0.1419 0.1197
H13_7 H 0.0758 0.1532 0.0274
C18_7 C 0.1326(3) 0.2331(3) 0.1223(5)
H14_7 H 0.1606 0.2538 0.1583
H15_7 H 0.1395 0.2432 0.0609
H16_7 H 0.1050 0.2358 0.1421
O12_4 O 0.22777(9) 0.15747(13) 0.07886(17)
C32_4 C 0.26870(12) 0.19051(17) 0.0498(2)
O9_4 O 0.48114(11) 0.39062(16) 0.5972(2)
O15_4 O 0.53881(13) 0.35024(17) 0.5154(2)
O16_4 O 0.58089(16) 0.43016(22) 0.6507(2)
H17_4 H 0.5919 0.4097 0.6800
H18_4 H 0.5918 0.4576 0.6915
N2_4 N 0.4839(2) 0.27194(27) 0.4638(4)
C19_4 C 0.45967(12) 0.41219(18) 0.6289(2)
C20_4 C 0.42222(13) 0.38333(18) 0.6991(2)
C21_4 C 0.41667(16) 0.33878(22) 0.7287(3)
H19_4 H 0.4380 0.3285 0.7082
C22_4 C 0.38018(16) 0.30982(22) 0.7878(3)
H20_4 H 0.3775 0.2806 0.8077
C23_4 C 0.34699(13) 0.32393(18) 0.8183(2)
C24_4 C 0.35411(13) 0.36947(18) 0.7924(2)
H21_4 H 0.3337 0.3803 0.8148
C25_4 C 0.39135(13) 0.39863(18) 0.7336(2)
H22_4 H 0.3957 0.4290 0.7170
C26_4 C 0.30350(12) 0.28839(17) 0.8701(2)
C27_4 C 0.30733(12) 0.25872(17) 0.9359(2)
H23_4 H 0.3381 0.2640 0.9524
C28_4 C 0.26565(12) 0.22159(16) 0.9765(2)
C29_4 C 0.21955(12) 0.21314(17) 0.9502(2)
H24_4 H 0.1915 0.1875 0.9755
C30_4 C 0.21559(12) 0.24286(16) 0.8866(2)
C31_4 C 0.25724(13) 0.28112(18) 0.8479(2)
H25_4 H 0.2544 0.3019 0.8074
C33_4 C 0.16581(12) 0.23069(17) 0.8570(2)
C34_4 C 0.4950(2) 0.3139(3) 0.5032(3)
H26_4 H 0.4691 0.3175 0.5237
C35_4 C 0.5219(4) 0.2652(5) 0.4220(6)
H27_4 H 0.5526 0.2954 0.4247
H28_4 H 0.5248 0.2402 0.4530
H29_4 H 0.5135 0.2559 0.3607
C36_4 C 0.4336(3) 0.2328(4) 0.4556(5)
H30_4 H 0.4129 0.2401 0.4916
H31_4 H 0.4235 0.2296 0.3942
H32_4 H 0.4309 0.2025 0.4754
O20_4 O 0.50919(13) 0.40363(10) 0.41220(17)
O1_8 O 0.81447(11) 0.05729(16) 0.2639(2)
O7_8 O 0.87214(13) 0.01691(17) 0.1821(2)
O8_8 O 0.91422(16) 0.09683(22) 0.3174(2)
H1_8 H 0.9252 0.0764 0.3467
H2_8 H 0.9251 0.1243 0.3582
C1_8 C 0.79300(12) 0.07886(18) 0.2956(2)
C2_8 C 0.75555(13) 0.05000(18) 0.3658(2)
C3_8 C 0.75000(16) 0.00545(22) 0.3954(3)
C6_8 C 0.68744(13) 0.03614(18) 0.4591(2)
H5_8 H 0.6670 0.0470 0.4815
C7_8 C 0.72468(13) 0.06530(18) 0.4003(2)
H6_8 H 0.7290 0.0957 0.3837
O12_5 O 0.84253(13) 0.07029(16) 0.07886(17)
C32_5 C 0.80949(17) 0.07818(21) 0.0498(2)
O9_5 O 0.60938(16) 0.09051(19) 0.5972(2)
O15_5 O 0.64976(17) 0.18856(21) 0.5154(2)
O16_5 O 0.56984(22) 0.15072(27) 0.6507(2)
H17_5 H 0.5903 0.1821 0.6800
H18_5 H 0.5424 0.1341 0.6915
N2_5 N 0.72806(27) 0.21192(34) 0.4638(4)
C19_5 C 0.58781(18) 0.04747(22) 0.6289(2)
C20_5 C 0.61667(18) 0.03888(22) 0.6991(2)
C21_5 C 0.66122(22) 0.07788(27) 0.7287(3)
H19_5 H 0.6715 0.1094 0.7082
C22_5 C 0.69018(22) 0.07035(27) 0.7878(3)
H20_5 H 0.7194 0.0968 0.8077
C23_5 C 0.67607(18) 0.02305(22) 0.8183(2)
C26_5 C 0.71161(17) 0.01510(21) 0.8701(2)
C27_5 C 0.74128(17) 0.04860(21) 0.9359(2)
H23_5 H 0.7360 0.0740 0.9524
C28_5 C 0.77841(16) 0.04405(20) 0.9765(2)
C29_5 C 0.78686(17) 0.00640(21) 0.9502(2)
H24_5 H 0.8125 0.0039 0.9755
C34_5 C 0.6861(3) 0.1810(4) 0.5032(3)
H26_5 H 0.6825 0.1515 0.5237
C35_5 C 0.7348(5) 0.2566(6) 0.4220(6)
H27_5 H 0.7046 0.2571 0.4247
H28_5 H 0.7598 0.2845 0.4530
H29_5 H 0.7441 0.2575 0.3607
C36_5 C 0.7672(4) 0.2007(5) 0.4556(5)
H30_5 H 0.7599 0.1727 0.4916
H31_5 H 0.7704 0.1938 0.3942
H32_5 H 0.7975 0.2283 0.4754
O20_5 O 0.59637(10) 0.10557(16) 0.41220(17)
O4_5 O 0.56110(9) 0.82414(13) 0.74553(17)
N1_8 N 0.8172(2) 0.93861(27) 0.1305(4)
H3_8 H 0.7713 0.9952 0.3749
C4_8 C 0.71351(16) 0.97649(22) 0.4545(3)
H4_8 H 0.7108 0.9473 0.4744
C5_8 C 0.68032(13) 0.99060(18) 0.4850(2)
C8_8 C 0.63683(12) 0.95506(17) 0.5368(2)
C9_8 C 0.64066(12) 0.92539(17) 0.6026(2)
H7_8 H 0.6714 0.9307 0.6191
C10_8 C 0.59898(12) 0.88826(16) 0.6432(2)
C11_8 C 0.55288(12) 0.87981(17) 0.6169(2)
H8_8 H 0.5248 0.8542 0.6422
C12_8 C 0.54892(12) 0.90953(16) 0.5533(2)
C13_8 C 0.59057(13) 0.94779(18) 0.5146(2)
H9_8 H 0.5877 0.9686 0.4741
C14_8 C 0.60203(12) 0.85718(17) 0.7165(2)
C15_8 C 0.49914(12) 0.89736(17) 0.5237(2)
C16_8 C 0.8283(2) 0.9806(3) 0.1699(3)
H10_8 H 0.8024 0.9842 0.1904
C17_8 C 0.8552(4) 0.9319(5) 0.0887(6)
H11_8 H 0.8859 0.9621 0.0914
H12_8 H 0.8581 0.9069 0.1197
H13_8 H 0.8468 0.9226 0.0274
C18_8 C 0.7669(3) 0.8995(4) 0.1223(5)
H14_8 H 0.7462 0.9068 0.1583
H15_8 H 0.7568 0.8963 0.0609
H16_8 H 0.7642 0.8692 0.1421
Ni8 Ni 0.5000 1.0000 0.5000
C24_5 C 0.63053(18) 0.98463(22) 0.7924(2)
H21_5 H 0.6197 0.9533 0.8148
C25_5 C 0.60137(18) 0.99271(22) 0.7336(2)
H22_5 H 0.5710 0.9666 0.7170
C30_5 C 0.75714(16) 0.97272(20) 0.8866(2)
C31_5 C 0.71888(18) 0.97611(22) 0.8479(2)
H25_5 H 0.6981 0.9524 0.8074
C33_5 C 0.76931(17) 0.93511(21) 0.8570(2)
O4_6 O 0.17586(13) 0.73696(10) 0.74553(17)
N1_9 N 0.06139(27) 0.87859(18) 0.1305(4)
H3_9 H 0.0048 0.7761 0.3749
C4_9 C 0.02351(22) 0.73702(15) 0.4545(3)
H4_9 H 0.0527 0.7635 0.4744
C5_9 C 0.00940(18) 0.68972(13) 0.4850(2)
C8_9 C 0.04494(17) 0.68177(12) 0.5368(2)
C9_9 C 0.07461(17) 0.71527(12) 0.6026(2)
H7_9 H 0.0693 0.7407 0.6191
C10_9 C 0.11174(16) 0.71072(11) 0.6432(2)
C11_9 C 0.12019(17) 0.67307(12) 0.6169(2)
H8_9 H 0.1458 0.6706 0.6422
C12_9 C 0.09047(16) 0.63939(11) 0.5533(2)
C13_9 C 0.05221(18) 0.64278(12) 0.5146(2)
H9_9 H 0.0314 0.6191 0.4741
C14_9 C 0.14282(17) 0.74485(12) 0.7165(2)
C15_9 C 0.10264(17) 0.60178(12) 0.5237(2)
C16_9 C 0.0194(3) 0.8477(2) 0.1699(3)
H10_9 H 0.0158 0.8182 0.1904
C17_9 C 0.0681(5) 0.9233(3) 0.0887(6)
H11_9 H 0.0379 0.9238 0.0914
H12_9 H 0.0931 0.9512 0.1197
H13_9 H 0.0774 0.9242 0.0274
C18_9 C 0.1005(4) 0.8674(3) 0.1223(5)
H14_9 H 0.0932 0.8394 0.1583
H15_9 H 0.1037 0.8605 0.0609
H16_9 H 0.1308 0.8950 0.1421
Ni8_2 Ni 0.0000 0.5001 0.5000
C24_6 C 0.01537(22) 0.64589(13) 0.7924(2)
H21_6 H 0.0467 0.6663 0.8148
C25_6 C 0.00729(22) 0.60865(13) 0.7336(2)
H22_6 H 0.0334 0.6043 0.7170
C30_6 C 0.02728(20) 0.78441(12) 0.8866(2)
C31_6 C 0.02389(22) 0.74276(13) 0.8479(2)
H25_6 H 0.0476 0.7456 0.8074
C33_6 C 0.06489(21) 0.83419(12) 0.8570(2)
O1_9 O 0.94271(16) 0.75718(11) 0.2639(2)
O7_9 O 0.98309(17) 0.85523(11) 0.1821(2)
O8_9 O 0.90317(22) 0.81739(15) 0.3174(2)
H1_9 H 0.9236 0.8488 0.3467
H2_9 H 0.8757 0.8008 0.3582
C1_9 C 0.92114(18) 0.71414(14) 0.2956(2)
C2_9 C 0.95000(18) 0.70555(13) 0.3658(2)
C3_9 C 0.99455(22) 0.74455(15) 0.3954(3)
C6_9 C 0.96386(18) 0.65130(13) 0.4591(2)
H5_9 H 0.9530 0.6200 0.4815
C7_9 C 0.93470(18) 0.65938(13) 0.4003(2)
H6_9 H 0.9043 0.6333 0.3837
O12_6 O 0.92971(16) 0.77223(9) 0.07886(17)
C32_6 C 0.92182(21) 0.73130(12) 0.0498(2)
O9_6 O 0.90949(19) 0.51886(11) 0.5972(2)
O15_6 O 0.81144(21) 0.46119(13) 0.5154(2)
O16_6 O 0.84928(27) 0.41911(16) 0.6507(2)
H17_6 H 0.8179 0.4081 0.6800
H18_6 H 0.8659 0.4082 0.6915
N2_6 N 0.78808(34) 0.5161(2) 0.4638(4)
C19_6 C 0.95253(22) 0.54033(12) 0.6289(2)
C20_6 C 0.96112(22) 0.57778(13) 0.6991(2)
C21_6 C 0.92212(27) 0.58333(16) 0.7287(3)
H19_6 H 0.8906 0.5620 0.7082
C22_6 C 0.92965(27) 0.61982(16) 0.7878(3)
H20_6 H 0.9032 0.6225 0.8077
C23_6 C 0.97695(22) 0.65301(13) 0.8183(2)
C26_6 C 0.98490(21) 0.69650(12) 0.8701(2)
C27_6 C 0.95140(21) 0.69267(12) 0.9359(2)
H23_6 H 0.9260 0.6619 0.9524
C28_6 C 0.95595(20) 0.73435(12) 0.9765(2)
C29_6 C 0.99360(21) 0.78045(12) 0.9502(2)
H24_6 H 0.9961 0.8085 0.9755
C34_6 C 0.8190(4) 0.5050(2) 0.5032(3)
H26_6 H 0.8485 0.5309 0.5237
C35_6 C 0.7434(6) 0.4781(4) 0.4220(6)
H27_6 H 0.7429 0.4474 0.4247
H28_6 H 0.7155 0.4752 0.4530
H29_6 H 0.7425 0.4865 0.3607
C36_6 C 0.7993(5) 0.5664(3) 0.4556(5)
H30_6 H 0.8273 0.5871 0.4916
H31_6 H 0.8062 0.5765 0.3942
H32_6 H 0.7717 0.5691 0.4754
O20_6 O 0.89443(16) 0.49081(13) 0.41220(17)
C8_10 C 0.65156(12) 0.02984(12) 0.2035(2)
C9_10 C 0.61806(12) 0.02601(12) 0.2693(2)
C10_10 C 0.62261(11) 0.06769(12) 0.3099(2)
C11_10 C 0.66026(12) 0.11379(12) 0.2836(2)
H8_10 H 0.6627 0.1419 0.3089
C12_10 C 0.69394(11) 0.11775(12) 0.2200(2)
C13_10 C 0.69055(12) 0.07610(13) 0.1813(2)
H9_10 H 0.7142 0.0790 0.1408
C14_10 C 0.58848(12) 0.06464(12) 0.3832(2)
C15_10 C 0.73155(12) 0.16753(12) 0.1904(2)
H1_10 H 0.4845 0.7415 0.0134
H2_10 H 0.5325 0.7416 0.0249
C2_10 C 0.62778(13) 0.91112(13) 0.0325(2)
C3_10 C 0.58878(15) 0.91667(16) 0.0621(3)
H3_10 H 0.5572 0.8954 0.0416
C4_10 C 0.59631(15) 0.95316(16) 0.1212(3)
H4_10 H 0.5698 0.9559 0.1411
C5_10 C 0.64361(13) 0.98635(13) 0.1517(2)
C6_10 C 0.68203(13) 0.97923(13) 0.1258(2)
H5_10 H 0.7133 0.9997 0.1482
C7_10 C 0.67395(13) 0.94199(13) 0.0670(2)
H6_10 H 0.7000 0.9377 0.0504
H7_10 H 0.5926 0.9953 0.2858
O1_10 O 0.57615(11) 0.85220(11) 0.9306(2)
O7_10 O 0.47810(11) 0.79453(13) 0.8488(2)
O8_10 O 0.51594(15) 0.75245(16) 0.9841(2)
N1_10 N 0.45474(18) 0.8495(2) 0.7972(4)
C1_10 C 0.61919(14) 0.87367(12) 0.9623(2)
C16_10 C 0.4856(2) 0.8384(2) 0.8366(3)
H10_10 H 0.5151 0.8643 0.8571
C17_10 C 0.4100(3) 0.8115(4) 0.7554(6)
H11_10 H 0.4095 0.7808 0.7581
H12_10 H 0.3821 0.8086 0.7864
H13_10 H 0.4091 0.8199 0.6941
C18_10 C 0.4659(3) 0.8998(3) 0.7890(5)
H14_10 H 0.4939 0.9205 0.8250
H15_10 H 0.4728 0.9099 0.7276
H16_10 H 0.4383 0.9025 0.8088
H1_11 H 0.2585 0.7431 0.0134
H2_11 H 0.2584 0.7910 0.0249
C2_11 C 0.08888(13) 0.71667(18) 0.0325(2)
C3_11 C 0.08333(16) 0.67212(22) 0.0621(3)
H3_11 H 0.1046 0.6619 0.0416
C4_11 C 0.04684(16) 0.64316(22) 0.1212(3)
H4_11 H 0.0441 0.6140 0.1411
C5_11 C 0.01365(13) 0.65727(18) 0.1517(2)
C6_11 C 0.02077(13) 0.70281(18) 0.1258(2)
H5_11 H 0.0003 0.7137 0.1482
C7_11 C 0.05801(13) 0.73197(18) 0.0670(2)
H6_11 H 0.0623 0.7624 0.0504
H7_11 H 0.0047 0.5974 0.2858
O1_11 O 0.14780(11) 0.72396(16) 0.9306(2)
O7_11 O 0.20547(13) 0.68358(17) 0.8488(2)
O8_11 O 0.24755(16) 0.76350(22) 0.9841(2)
N1_11 N 0.1505(2) 0.60528(27) 0.7972(4)
C1_11 C 0.12633(12) 0.74553(18) 0.9623(2)
C16_11 C 0.1616(2) 0.6473(3) 0.8366(3)
H10_11 H 0.1357 0.6509 0.8571
C17_11 C 0.1885(4) 0.5986(5) 0.7554(6)
H11_11 H 0.2192 0.6288 0.7581
H12_11 H 0.1914 0.5736 0.7864
H13_11 H 0.1801 0.5893 0.6941
C18_11 C 0.1002(3) 0.5662(4) 0.7890(5)
H14_11 H 0.0795 0.5735 0.8250
H15_11 H 0.0901 0.5630 0.7276
H16_11 H 0.0975 0.5359 0.8088
C8_11 C 0.97016(12) 0.62173(17) 0.2035(2)
C9_11 C 0.97399(12) 0.59206(17) 0.2693(2)
C10_11 C 0.93231(12) 0.55493(16) 0.3099(2)
C11_11 C 0.88621(12) 0.54648(17) 0.2836(2)
H8_11 H 0.8581 0.5209 0.3089
C12_11 C 0.88225(12) 0.57620(16) 0.2200(2)
C13_11 C 0.92390(13) 0.61446(18) 0.1813(2)
H9_11 H 0.9210 0.6353 0.1408
C14_11 C 0.93536(12) 0.52385(17) 0.3832(2)
C15_11 C 0.83247(12) 0.56403(17) 0.1904(2)
H1_12 H 0.2569 0.5155 0.0134
H2_12 H 0.2090 0.4675 0.0249
C2_12 C 0.28333(18) 0.37222(13) 0.0325(2)
C3_12 C 0.32788(22) 0.41122(15) 0.0621(3)
H3_12 H 0.3381 0.4428 0.0416
C4_12 C 0.35684(22) 0.40369(15) 0.1212(3)
H4_12 H 0.3860 0.4302 0.1411
C5_12 C 0.34273(18) 0.35639(13) 0.1517(2)
C6_12 C 0.29719(18) 0.31797(13) 0.1258(2)
H5_12 H 0.2863 0.2867 0.1482
C7_12 C 0.26803(18) 0.32605(13) 0.0670(2)
H6_12 H 0.2376 0.3000 0.0504
C8_12 C 0.37827(17) 0.34844(12) 0.2035(2)
C9_12 C 0.40794(17) 0.38194(12) 0.2693(2)
H7_12 H 0.4026 0.4074 0.2858
C10_12 C 0.44507(16) 0.37739(11) 0.3099(2)
C11_12 C 0.45352(17) 0.33974(12) 0.2836(2)
H8_12 H 0.4791 0.3373 0.3089
C12_12 C 0.42380(16) 0.30606(11) 0.2200(2)
C13_12 C 0.38554(18) 0.30945(12) 0.1813(2)
H9_12 H 0.3647 0.2858 0.1408
C14_12 C 0.47615(17) 0.41152(12) 0.3832(2)
C15_12 C 0.43597(17) 0.26845(12) 0.1904(2)
O1_12 O 0.27604(16) 0.42385(11) 0.9306(2)
O7_12 O 0.31642(17) 0.52190(11) 0.8488(2)
O8_12 O 0.23650(22) 0.48406(15) 0.9841(2)
N1_12 N 0.39472(27) 0.54526(18) 0.7972(4)
C1_12 C 0.25447(18) 0.38081(14) 0.9623(2)
C16_12 C 0.3527(3) 0.5144(2) 0.8366(3)
H10_12 H 0.3491 0.4849 0.8571
C17_12 C 0.4014(5) 0.5900(3) 0.7554(6)
H11_12 H 0.3712 0.5905 0.7581
H12_12 H 0.4264 0.6179 0.7864
H13_12 H 0.4107 0.5909 0.6941
C18_12 C 0.4338(4) 0.5341(3) 0.7890(5)
H14_12 H 0.4265 0.5061 0.8250
H15_12 H 0.4370 0.5272 0.7276
H16_12 H 0.4641 0.5617 0.8088
loop_
_geom_bond_atom_site_label_1
_geom_bond_atom_site_label_2
_geom_bond_site_symmetry_1
_geom_bond_site_symmetry_2
Ni3 O9 1_555 1_555
O9 C19 1_555 1_555
O10 C19 1_555 1_555
O13 C33 1_555 1_555
O14 C33 1_555 1_555
O15 Ni3 1_555 1_555
O16 Ni3 1_555 1_555
H17 O16 1_555 1_555
H18 O16 1_555 1_555
N2 C34 1_555 1_555
C19 C20 1_555 1_555
C20 C21 1_555 1_555
C21 H19 1_555 1_555
C22 C21 1_555 1_555
H20 C22 1_555 1_555
C23 C22 1_555 1_555
C24 C23 1_555 1_555
H21 C24 1_555 1_555
C25 C20 1_555 1_555
H22 C25 1_555 1_555
C26 C23 1_555 1_555
C27 C26 1_555 1_555
H23 C27 1_555 1_555
C28 C27 1_555 1_555
C29 C28 1_555 1_555
H24 C29 1_555 1_555
C30 C29 1_555 1_555
C31 C26 1_555 1_555
H25 C31 1_555 1_555
C33 C30 1_555 1_555
C34 O15 1_555 1_555
H26 C34 1_555 1_555
C35 N2 1_555 1_555
H27 C35 1_555 1_555
H28 C35 1_555 1_555
H29 C35 1_555 1_555
C36 N2 1_555 1_555
H30 C36 1_555 1_555
H31 C36 1_555 1_555
H32 C36 1_555 1_555
Ni5 O13 1_555 1_555
Ni7 O14 1_555 1_555
Ni9 O10 1_555 1_555
O20 Ni3 1_555 1_555
O21 Ni3 1_555 1_555
O24 Ni3 1_555 1_555
O14 Ni5 1_555 1_555
C24 C25 1_555 1_555
C30 C31 1_555 1_555
Ni9 O24 1_555 1_555
Ni1 O1 1_555 1_555
Ni7 O3 1_555 1_555
O1 C1 1_555 1_555
O2 C1 1_555 1_555
O3 C14 1_555 1_555
O4 C14 1_555 1_555
O5 C15 1_555 1_555
O6 C15 1_555 1_555
O7 Ni1 1_555 1_555
O8 Ni1 1_555 1_555
H1 O8 1_555 1_555
H2 O8 1_555 1_555
N1 C16 1_555 1_555
C1 C2 1_555 1_555
C2 C3 1_555 1_555
C3 H3 1_555 1_555
C4 C3 1_555 1_555
H4 C4 1_555 1_555
C5 C4 1_555 1_555
C6 C5 1_555 1_555
H5 C6 1_555 1_555
C7 C2 1_555 1_555
H6 C7 1_555 1_555
C8 C5 1_555 1_555
C9 C8 1_555 1_555
H7 C9 1_555 1_555
C10 C9 1_555 1_555
C11 C10 1_555 1_555
H8 C11 1_555 1_555
C12 C11 1_555 1_555
C13 C8 1_555 1_555
H9 C13 1_555 1_555
C14 C10 1_555 1_555
C15 C12 1_555 1_555
C16 O7 1_555 1_555
H10 C16 1_555 1_555
C17 N1 1_555 1_555
H11 C17 1_555 1_555
H12 C17 1_555 1_555
H13 C17 1_555 1_555
C18 N1 1_555 1_555
H14 C18 1_555 1_555
H15 C18 1_555 1_555
H16 C18 1_555 1_555
O11 C32 1_555 1_555
O12 Ni1 1_555 1_555
C32 O12 1_555 1_555
Ni4 O4 1_555 1_555
Ni6 O5 1_555 1_555
Ni9 O6 1_555 1_555
Ni10 O2 1_555 1_555
O17 Ni7 1_555 1_555
O18 Ni7 1_555 1_555
O19 Ni7 1_555 1_555
O22 Ni1 1_555 1_555
O25 Ni1 1_555 1_555
O26 Ni7 1_555 1_555
O6 Ni6 1_555 1_555
C6 C7 1_555 1_555
C12 C13 1_555 1_555
O11 Ni10 1_555 1_555
Ni4 O26 1_555 1_555
Ni10 O25 1_555 1_555
O13_2 C33_2 1_555 1_555
O14_2 C33_2 1_555 1_555
H21_2 C24_2 1_555 1_555
H22_2 C25_2 1_555 1_555
H25_2 C31_2 1_555 1_555
C33_2 C30_2 1_555 1_555
Ni5_2 O13_2 1_555 1_555
Ni7_2 O14_2 1_555 1_555
O14_2 Ni5_2 1_555 1_555
C24_2 C25_2 1_555 1_555
C30_2 C31_2 1_555 1_555
Ni7_2 O3_2 1_555 1_555
O3_2 C14_2 1_555 1_555
O4_2 C14_2 1_555 1_555
O5_2 C15_2 1_555 1_555
O6_2 C15_2 1_555 1_555
N1_2 C16_2 1_555 1_555
H4_2 C4_2 1_555 1_555
C5_2 C4_2 1_555 1_555
C8_2 C5_2 1_555 1_555
C9_2 C8_2 1_555 1_555
H7_2 C9_2 1_555 1_555
C10_2 C9_2 1_555 1_555
C11_2 C10_2 1_555 1_555
H8_2 C11_2 1_555 1_555
C12_2 C11_2 1_555 1_555
C13_2 C8_2 1_555 1_555
H9_2 C13_2 1_555 1_555
C14_2 C10_2 1_555 1_555
C15_2 C12_2 1_555 1_555
H10_2 C16_2 1_555 1_555
C17_2 N1_2 1_555 1_555
H11_2 C17_2 1_555 1_555
H12_2 C17_2 1_555 1_555
H13_2 C17_2 1_555 1_555
C18_2 N1_2 1_555 1_555
H14_2 C18_2 1_555 1_555
H15_2 C18_2 1_555 1_555
H16_2 C18_2 1_555 1_555
Ni4_2 O4_2 1_555 1_555
Ni6_2 O5_2 1_555 1_555
Ni9_2 O6_2 1_555 1_555
O17_2 Ni7_2 1_555 1_555
O18_2 Ni7_2 1_555 1_555
O19_2 Ni7_2 1_555 1_555
O26_2 Ni7_2 1_555 1_555
O6_2 Ni6_2 1_555 1_555
C12_2 C13_2 1_555 1_555
Ni4_2 O26_2 1_555 1_555
Ni3_2 O9_2 1_555 1_555
O9_2 C19_2 1_555 1_555
O10_2 C19_2 1_555 1_555
O15_2 Ni3_2 1_555 1_555
O16_2 Ni3_2 1_555 1_555
H17_2 O16_2 1_555 1_555
H18_2 O16_2 1_555 1_555
N2_2 C34_2 1_555 1_555
C19_2 C20_2 1_555 1_555
C20_2 C21_2 1_555 1_555
C21_2 H19_2 1_555 1_555
C22_2 C21_2 1_555 1_555
H20_2 C22_2 1_555 1_555
C23_2 C22_2 1_555 1_555
C26_2 C23_2 1_555 1_555
C27_2 C26_2 1_555 1_555
H23_2 C27_2 1_555 1_555
C28_2 C27_2 1_555 1_555
C29_2 C28_2 1_555 1_555
H24_2 C29_2 1_555 1_555
C34_2 O15_2 1_555 1_555
H26_2 C34_2 1_555 1_555
C35_2 N2_2 1_555 1_555
H27_2 C35_2 1_555 1_555
H28_2 C35_2 1_555 1_555
H29_2 C35_2 1_555 1_555
C36_2 N2_2 1_555 1_555
H30_2 C36_2 1_555 1_555
H31_2 C36_2 1_555 1_555
H32_2 C36_2 1_555 1_555
O20_2 Ni3_2 1_555 1_555
O21_2 Ni3_2 1_555 1_555
O24_2 Ni3_2 1_555 1_555
Ni1_2 O1_2 1_555 1_555
O1_2 C1_2 1_555 1_555
O2_2 C1_2 1_555 1_555
O7_2 Ni1_2 1_555 1_555
O8_2 Ni1_2 1_555 1_555
H1_2 O8_2 1_555 1_555
H2_2 O8_2 1_555 1_555
C1_2 C2_2 1_555 1_555
C2_2 C3_2 1_555 1_555
H5_2 C6_2 1_555 1_555
C7_2 C2_2 1_555 1_555
H6_2 C7_2 1_555 1_555
O11_2 C32_2 1_555 1_555
O12_2 Ni1_2 1_555 1_555
C32_2 O12_2 1_555 1_555
Ni10_2 O2_2 1_555 1_555
O22_2 Ni1_2 1_555 1_555
O25_2 Ni1_2 1_555 1_555
C6_2 C7_2 1_555 1_555
O11_2 Ni10_2 1_555 1_555
Ni10_2 O25_2 1_555 1_555
Ni3_3 O9_3 1_555 1_555
O9_3 C19_3 1_555 1_555
O10_3 C19_3 1_555 1_555
O15_3 Ni3_3 1_555 1_555
O16_3 Ni3_3 1_555 1_555
H17_3 O16_3 1_555 1_555
H18_3 O16_3 1_555 1_555
N2_3 C34_3 1_555 1_555
C19_3 C20_3 1_555 1_555
C20_3 C21_3 1_555 1_555
C21_3 H19_3 1_555 1_555
C22_3 C21_3 1_555 1_555
H20_3 C22_3 1_555 1_555
C23_3 C22_3 1_555 1_555
C26_3 C23_3 1_555 1_555
C27_3 C26_3 1_555 1_555
H23_3 C27_3 1_555 1_555
C28_3 C27_3 1_555 1_555
C29_3 C28_3 1_555 1_555
H24_3 C29_3 1_555 1_555
C34_3 O15_3 1_555 1_555
H26_3 C34_3 1_555 1_555
C35_3 N2_3 1_555 1_555
H27_3 C35_3 1_555 1_555
H28_3 C35_3 1_555 1_555
H29_3 C35_3 1_555 1_555
C36_3 N2_3 1_555 1_555
H30_3 C36_3 1_555 1_555
H31_3 C36_3 1_555 1_555
H32_3 C36_3 1_555 1_555
O20_3 Ni3_3 1_555 1_555
O21_3 Ni3_3 1_555 1_555
O24_3 Ni3_3 1_555 1_555
Ni1_3 O1_3 1_555 1_555
O1_3 C1_3 1_555 1_555
O2_3 C1_3 1_555 1_555
O7_3 Ni1_3 1_555 1_555
O8_3 Ni1_3 1_555 1_555
H1_3 O8_3 1_555 1_555
H2_3 O8_3 1_555 1_555
C1_3 C2_3 1_555 1_555
C2_3 C3_3 1_555 1_555
H5_3 C6_3 1_555 1_555
C7_3 C2_3 1_555 1_555
H6_3 C7_3 1_555 1_555
O11_3 C32_3 1_555 1_555
O12_3 Ni1_3 1_555 1_555
C32_3 O12_3 1_555 1_555
Ni10_3 O2_3 1_555 1_555
O22_3 Ni1_3 1_555 1_555
O25_3 Ni1_3 1_555 1_555
C6_3 C7_3 1_555 1_555
O11_3 Ni10_3 1_555 1_555
Ni10_3 O25_3 1_555 1_555
O13_3 C33_3 1_555 1_555
O14_3 C33_3 1_555 1_555
H21_3 C24_3 1_555 1_555
H22_3 C25_3 1_555 1_555
H25_3 C31_3 1_555 1_555
C33_3 C30_3 1_555 1_555
Ni5_3 O13_3 1_555 1_555
Ni7_3 O14_3 1_555 1_555
O14_3 Ni5_3 1_555 1_555
C24_3 C25_3 1_555 1_555
C30_3 C31_3 1_555 1_555
Ni7_3 O3_3 1_555 1_555
O3_3 C14_3 1_555 1_555
O4_3 C14_3 1_555 1_555
O5_3 C15_3 1_555 1_555
O6_3 C15_3 1_555 1_555
N1_3 C16_3 1_555 1_555
H4_3 C4_3 1_555 1_555
C5_3 C4_3 1_555 1_555
C8_3 C5_3 1_555 1_555
C9_3 C8_3 1_555 1_555
H7_3 C9_3 1_555 1_555
C10_3 C9_3 1_555 1_555
C11_3 C10_3 1_555 1_555
H8_3 C11_3 1_555 1_555
C12_3 C11_3 1_555 1_555
C13_3 C8_3 1_555 1_555
H9_3 C13_3 1_555 1_555
C14_3 C10_3 1_555 1_555
C15_3 C12_3 1_555 1_555
H10_3 C16_3 1_555 1_555
C17_3 N1_3 1_555 1_555
H11_3 C17_3 1_555 1_555
H12_3 C17_3 1_555 1_555
H13_3 C17_3 1_555 1_555
C18_3 N1_3 1_555 1_555
H14_3 C18_3 1_555 1_555
H15_3 C18_3 1_555 1_555
H16_3 C18_3 1_555 1_555
Ni4_3 O4_3 1_555 1_555
Ni6_3 O5_3 1_555 1_555
Ni9_3 O6_3 1_555 1_555
O17_3 Ni7_3 1_555 1_555
O18_3 Ni7_3 1_555 1_555
O19_3 Ni7_3 1_555 1_555
O26_3 Ni7_3 1_555 1_555
O6_3 Ni6_3 1_555 1_555
C12_3 C13_3 1_555 1_555
Ni4_3 O26_3 1_555 1_555
Ni4_2 O1_4 1_555 1_555
O1_4 C1_4 1_555 1_555
O17_2 C1_4 1_555 1_555
O7_4 Ni4_2 1_555 1_555
O8_4 Ni4_2 1_555 1_555
N1_4 C16_4 1_555 1_555
C16_4 O7_4 1_555 1_555
H10_4 C16_4 1_555 1_555
C17_4 N1_4 1_555 1_555
H11_4 C17_4 1_555 1_555
H12_4 C17_4 1_555 1_555
H13_4 C17_4 1_555 1_555
C18_4 N1_4 1_555 1_555
H14_4 C18_4 1_555 1_555
H15_4 C18_4 1_555 1_555
H16_4 C18_4 1_555 1_555
O22_4 Ni4_2 1_555 1_555
C2_4 C3_4 1_555 1_555
C3_4 H3_4 1_555 1_555
C4_4 C3_4 1_555 1_555
H4_4 C4_4 1_555 1_555
C5_4 C4_4 1_555 1_555
C6_4 C5_4 1_555 1_555
H5_4 C6_4 1_555 1_555
C7_4 C2_4 1_555 1_555
H6_4 C7_4 1_555 1_555
O18_4 Ni9_2 1_555 1_555
O19_4 Ni9_2 1_555 1_555
C6_4 C7_4 1_555 1_555
O3_4 C14_4 1_555 1_555
O20_2 C14_4 1_555 1_555
O5_4 C15_4 1_555 1_555
O6_4 C15_4 1_555 1_555
C9_4 C8_4 1_555 1_555
C10_4 C9_4 1_555 1_555
C11_4 C10_4 1_555 1_555
H8_4 C11_4 1_555 1_555
C12_4 C11_4 1_555 1_555
C13_4 C8_4 1_555 1_555
H9_4 C13_4 1_555 1_555
C14_4 C10_4 1_555 1_555
C15_4 C12_4 1_555 1_555
Ni6_4 O5_4 1_555 1_555
Ni10_2 O6_4 1_555 1_555
O6_4 Ni6_4 1_555 1_555
C12_4 C13_4 1_555 1_555
O3_5 C14_5 1_555 1_555
O20_3 C14_5 1_555 1_555
O5_5 C15_5 1_555 1_555
O6_5 C15_5 1_555 1_555
C9_5 C8_5 1_555 1_555
C10_5 C9_5 1_555 1_555
C11_5 C10_5 1_555 1_555
H8_5 C11_5 1_555 1_555
C12_5 C11_5 1_555 1_555
C13_5 C8_5 1_555 1_555
H9_5 C13_5 1_555 1_555
C14_5 C10_5 1_555 1_555
C15_5 C12_5 1_555 1_555
Ni6_5 O5_5 1_555 1_555
Ni10_3 O6_5 1_555 1_555
O6_5 Ni6_5 1_555 1_555
C12_5 C13_5 1_555 1_555
Ni4_3 O1_5 1_555 1_555
O1_5 C1_5 1_555 1_555
O17_3 C1_5 1_555 1_555
O7_5 Ni4_3 1_555 1_555
O8_5 Ni4_3 1_555 1_555
N1_5 C16_5 1_555 1_555
C16_5 O7_5 1_555 1_555
H10_5 C16_5 1_555 1_555
C17_5 N1_5 1_555 1_555
H11_5 C17_5 1_555 1_555
H12_5 C17_5 1_555 1_555
H13_5 C17_5 1_555 1_555
C18_5 N1_5 1_555 1_555
H14_5 C18_5 1_555 1_555
H15_5 C18_5 1_555 1_555
H16_5 C18_5 1_555 1_555
O22_5 Ni4_3 1_555 1_555
C2_5 C3_5 1_555 1_555
C3_5 H3_5 1_555 1_555
C4_5 C3_5 1_555 1_555
H4_5 C4_5 1_555 1_555
C5_5 C4_5 1_555 1_555
C6_5 C5_5 1_555 1_555
H5_5 C6_5 1_555 1_555
C7_5 C2_5 1_555 1_555
H6_5 C7_5 1_555 1_555
O18_5 Ni9_3 1_555 1_555
O19_5 Ni9_3 1_555 1_555
C6_5 C7_5 1_555 1_555
Ni4 O1_6 1_555 1_555
O1_6 C1_6 1_555 1_555
O17 C1_6 1_555 1_555
O7_6 Ni4 1_555 1_555
O8_6 Ni4 1_555 1_555
N1_6 C16_6 1_555 1_555
C16_6 O7_6 1_555 1_555
H10_6 C16_6 1_555 1_555
C17_6 N1_6 1_555 1_555
H11_6 C17_6 1_555 1_555
H12_6 C17_6 1_555 1_555
H13_6 C17_6 1_555 1_555
C18_6 N1_6 1_555 1_555
H14_6 C18_6 1_555 1_555
H15_6 C18_6 1_555 1_555
H16_6 C18_6 1_555 1_555
O22_6 Ni4 1_555 1_555
Ni9 O3_6 1_555 1_555
O3_6 C14_6 1_555 1_555
O20 C14_6 1_555 1_555
O5_6 C15_6 1_555 1_555
O6_6 C15_6 1_555 1_555
C2_6 C3_6 1_555 1_555
C3_6 H3_6 1_555 1_555
C4_6 C3_6 1_555 1_555
H4_6 C4_6 1_555 1_555
C5_6 C4_6 1_555 1_555
C6_6 C5_6 1_555 1_555
H5_6 C6_6 1_555 1_555
C7_6 C2_6 1_555 1_555
H6_6 C7_6 1_555 1_555
C8_6 C5_6 1_555 1_555
C9_6 C8_6 1_555 1_555
H7_6 C9_6 1_555 1_555
C10_6 C9_6 1_555 1_555
C11_6 C10_6 1_555 1_555
H8_6 C11_6 1_555 1_555
C12_6 C11_6 1_555 1_555
C13_6 C8_6 1_555 1_555
H9_6 C13_6 1_555 1_555
C14_6 C10_6 1_555 1_555
C15_6 C12_6 1_555 1_555
Ni6_6 O5_6 1_555 1_555
Ni10 O6_6 1_555 1_555
O18_6 Ni9 1_555 1_555
O19_6 Ni9 1_555 1_555
O6_6 Ni6_6 1_555 1_555
C6_6 C7_6 1_555 1_555
C12_6 C13_6 1_555 1_555
O18_7 Ni10_3 1_555 1_555
O19_7 Ni10_3 1_555 1_555
O18_8 Ni10 1_555 1_555
O19_8 Ni10 1_555 1_555
O18_9 Ni10_2 1_555 1_555
O19_9 Ni10_2 1_555 1_555
Ni5_2 O1_7 1_555 1_555
O1_7 C1_7 1_555 1_555
O18_2 C1_7 1_555 1_555
O19_7 C14_7 1_555 1_555
O4_4 C14_7 1_555 1_555
O21 C15_7 1_555 1_555
O24 C15_7 1_555 1_555
O7_7 Ni5_2 1_555 1_555
O8_7 Ni5_2 1_555 1_555
H1_7 O8_7 1_555 1_555
H2_7 O8_7 1_555 1_555
N1_7 C16_7 1_555 1_555
C1_7 C2_7 1_555 1_555
C2_7 C3_7 1_555 1_555
C3_7 H3_7 1_555 1_555
C4_7 C3_7 1_555 1_555
H4_7 C4_7 1_555 1_555
C5_7 C4_7 1_555 1_555
C6_7 C5_7 1_555 1_555
H5_7 C6_7 1_555 1_555
C7_7 C2_7 1_555 1_555
H6_7 C7_7 1_555 1_555
C8_7 C5_7 1_555 1_555
C9_7 C8_7 1_555 1_555
H7_7 C9_7 1_555 1_555
C10_7 C9_7 1_555 1_555
C11_7 C10_7 1_555 1_555
H8_7 C11_7 1_555 1_555
C12_7 C11_7 1_555 1_555
C13_7 C8_7 1_555 1_555
H9_7 C13_7 1_555 1_555
C14_7 C10_7 1_555 1_555
C15_7 C12_7 1_555 1_555
C16_7 O7_7 1_555 1_555
H10_7 C16_7 1_555 1_555
C17_7 N1_7 1_555 1_555
H11_7 C17_7 1_555 1_555
H12_7 C17_7 1_555 1_555
H13_7 C17_7 1_555 1_555
C18_7 N1_7 1_555 1_555
H14_7 C18_7 1_555 1_555
H15_7 C18_7 1_555 1_555
H16_7 C18_7 1_555 1_555
O19_2 C32_4 1_555 1_555
O12_4 Ni5_2 1_555 1_555
C32_4 O12_4 1_555 1_555
Ni6_5 O4_4 1_555 1_555
C6_7 C7_7 1_555 1_555
C12_7 C13_7 1_555 1_555
Ni6 O9_4 1_555 1_555
O9_4 C19_4 1_555 1_555
O18_6 C19_4 1_555 1_555
O22_3 C33_4 1_555 1_555
O25_3 C33_4 1_555 1_555
O15_4 Ni6 1_555 1_555
O16_4 Ni6 1_555 1_555
H17_4 O16_4 1_555 1_555
H18_4 O16_4 1_555 1_555
N2_4 C34_4 1_555 1_555
C19_4 C20_4 1_555 1_555
C20_4 C21_4 1_555 1_555
C21_4 H19_4 1_555 1_555
C22_4 C21_4 1_555 1_555
H20_4 C22_4 1_555 1_555
C23_4 C22_4 1_555 1_555
C24_4 C23_4 1_555 1_555
H21_4 C24_4 1_555 1_555
C25_4 C20_4 1_555 1_555
H22_4 C25_4 1_555 1_555
C26_4 C23_4 1_555 1_555
C27_4 C26_4 1_555 1_555
H23_4 C27_4 1_555 1_555
C28_4 C27_4 1_555 1_555
C29_4 C28_4 1_555 1_555
H24_4 C29_4 1_555 1_555
C30_4 C29_4 1_555 1_555
C31_4 C26_4 1_555 1_555
H25_4 C31_4 1_555 1_555
C33_4 C30_4 1_555 1_555
C34_4 O15_4 1_555 1_555
H26_4 C34_4 1_555 1_555
C35_4 N2_4 1_555 1_555
H27_4 C35_4 1_555 1_555
H28_4 C35_4 1_555 1_555
H29_4 C35_4 1_555 1_555
C36_4 N2_4 1_555 1_555
H30_4 C36_4 1_555 1_555
H31_4 C36_4 1_555 1_555
H32_4 C36_4 1_555 1_555
O20_4 Ni6 1_555 1_555
C24_4 C25_4 1_555 1_555
C30_4 C31_4 1_555 1_555
Ni5_3 O1_8 1_555 1_555
O1_8 C1_8 1_555 1_555
O18_3 C1_8 1_555 1_555
O7_8 Ni5_3 1_555 1_555
O8_8 Ni5_3 1_555 1_555
H1_8 O8_8 1_555 1_555
H2_8 O8_8 1_555 1_555
C1_8 C2_8 1_555 1_555
C2_8 C3_8 1_555 1_555
H5_8 C6_8 1_555 1_555
C7_8 C2_8 1_555 1_555
H6_8 C7_8 1_555 1_555
O19_3 C32_5 1_555 1_555
O12_5 Ni5_3 1_555 1_555
C32_5 O12_5 1_555 1_555
C6_8 C7_8 1_555 1_555
Ni6_2 O9_5 1_555 1_555
O9_5 C19_5 1_555 1_555
O18_4 C19_5 1_555 1_555
O15_5 Ni6_2 1_555 1_555
O16_5 Ni6_2 1_555 1_555
H17_5 O16_5 1_555 1_555
H18_5 O16_5 1_555 1_555
N2_5 C34_5 1_555 1_555
C19_5 C20_5 1_555 1_555
C20_5 C21_5 1_555 1_555
C21_5 H19_5 1_555 1_555
C22_5 C21_5 1_555 1_555
H20_5 C22_5 1_555 1_555
C23_5 C22_5 1_555 1_555
C26_5 C23_5 1_555 1_555
C27_5 C26_5 1_555 1_555
H23_5 C27_5 1_555 1_555
C28_5 C27_5 1_555 1_555
C29_5 C28_5 1_555 1_555
H24_5 C29_5 1_555 1_555
C34_5 O15_5 1_555 1_555
H26_5 C34_5 1_555 1_555
C35_5 N2_5 1_555 1_555
H27_5 C35_5 1_555 1_555
H28_5 C35_5 1_555 1_555
H29_5 C35_5 1_555 1_555
C36_5 N2_5 1_555 1_555
H30_5 C36_5 1_555 1_555
H31_5 C36_5 1_555 1_555
H32_5 C36_5 1_555 1_555
O20_5 Ni6_2 1_555 1_555
O19_8 C14_8 1_555 1_555
O4_5 C14_8 1_555 1_555
O21_2 C15_8 1_555 1_555
O24_2 C15_8 1_555 1_555
N1_8 C16_8 1_555 1_555
H4_8 C4_8 1_555 1_555
C5_8 C4_8 1_555 1_555
C8_8 C5_8 1_555 1_555
C9_8 C8_8 1_555 1_555
H7_8 C9_8 1_555 1_555
C10_8 C9_8 1_555 1_555
C11_8 C10_8 1_555 1_555
H8_8 C11_8 1_555 1_555
C12_8 C11_8 1_555 1_555
C13_8 C8_8 1_555 1_555
H9_8 C13_8 1_555 1_555
C14_8 C10_8 1_555 1_555
C15_8 C12_8 1_555 1_555
H10_8 C16_8 1_555 1_555
C17_8 N1_8 1_555 1_555
H11_8 C17_8 1_555 1_555
H12_8 C17_8 1_555 1_555
H13_8 C17_8 1_555 1_555
C18_8 N1_8 1_555 1_555
H14_8 C18_8 1_555 1_555
H15_8 C18_8 1_555 1_555
H16_8 C18_8 1_555 1_555
Ni6_6 O4_5 1_555 1_555
Ni8 O24_2 1_555 1_555
C12_8 C13_8 1_555 1_555
O22 C33_5 1_555 1_555
O25 C33_5 1_555 1_555
H21_5 C24_5 1_555 1_555
H22_5 C25_5 1_555 1_555
H25_5 C31_5 1_555 1_555
C33_5 C30_5 1_555 1_555
C24_5 C25_5 1_555 1_555
C30_5 C31_5 1_555 1_555
O19_9 C14_9 1_555 1_555
O4_6 C14_9 1_555 1_555
O21_3 C15_9 1_555 1_555
O24_3 C15_9 1_555 1_555
N1_9 C16_9 1_555 1_555
H4_9 C4_9 1_555 1_555
C5_9 C4_9 1_555 1_555
C8_9 C5_9 1_555 1_555
C9_9 C8_9 1_555 1_555
H7_9 C9_9 1_555 1_555
C10_9 C9_9 1_555 1_555
C11_9 C10_9 1_555 1_555
H8_9 C11_9 1_555 1_555
C12_9 C11_9 1_555 1_555
C13_9 C8_9 1_555 1_555
H9_9 C13_9 1_555 1_555
C14_9 C10_9 1_555 1_555
C15_9 C12_9 1_555 1_555
H10_9 C16_9 1_555 1_555
C17_9 N1_9 1_555 1_555
H11_9 C17_9 1_555 1_555
H12_9 C17_9 1_555 1_555
H13_9 C17_9 1_555 1_555
C18_9 N1_9 1_555 1_555
H14_9 C18_9 1_555 1_555
H15_9 C18_9 1_555 1_555
H16_9 C18_9 1_555 1_555
Ni6_4 O4_6 1_555 1_555
Ni8_2 O24_3 1_555 1_555
C12_9 C13_9 1_555 1_555
O22_2 C33_6 1_555 1_555
O25_2 C33_6 1_555 1_555
H21_6 C24_6 1_555 1_555
H22_6 C25_6 1_555 1_555
H25_6 C31_6 1_555 1_555
C33_6 C30_6 1_555 1_555
C24_6 C25_6 1_555 1_555
C30_6 C31_6 1_555 1_555
Ni5 O1_9 1_555 1_555
O1_9 C1_9 1_555 1_555
O18 C1_9 1_555 1_555
O7_9 Ni5 1_555 1_555
O8_9 Ni5 1_555 1_555
H1_9 O8_9 1_555 1_555
H2_9 O8_9 1_555 1_555
C1_9 C2_9 1_555 1_555
C2_9 C3_9 1_555 1_555
H5_9 C6_9 1_555 1_555
C7_9 C2_9 1_555 1_555
H6_9 C7_9 1_555 1_555
O19 C32_6 1_555 1_555
O12_6 Ni5 1_555 1_555
C32_6 O12_6 1_555 1_555
C6_9 C7_9 1_555 1_555
Ni6_3 O9_6 1_555 1_555
O9_6 C19_6 1_555 1_555
O18_5 C19_6 1_555 1_555
O15_6 Ni6_3 1_555 1_555
O16_6 Ni6_3 1_555 1_555
H17_6 O16_6 1_555 1_555
H18_6 O16_6 1_555 1_555
N2_6 C34_6 1_555 1_555
C19_6 C20_6 1_555 1_555
C20_6 C21_6 1_555 1_555
C21_6 H19_6 1_555 1_555
C22_6 C21_6 1_555 1_555
H20_6 C22_6 1_555 1_555
C23_6 C22_6 1_555 1_555
C26_6 C23_6 1_555 1_555
C27_6 C26_6 1_555 1_555
H23_6 C27_6 1_555 1_555
C28_6 C27_6 1_555 1_555
C29_6 C28_6 1_555 1_555
H24_6 C29_6 1_555 1_555
C34_6 O15_6 1_555 1_555
H26_6 C34_6 1_555 1_555
C35_6 N2_6 1_555 1_555
H27_6 C35_6 1_555 1_555
H28_6 C35_6 1_555 1_555
H29_6 C35_6 1_555 1_555
C36_6 N2_6 1_555 1_555
H30_6 C36_6 1_555 1_555
H31_6 C36_6 1_555 1_555
H32_6 C36_6 1_555 1_555
O20_6 Ni6_3 1_555 1_555
O19_4 C14_10 1_555 1_555
O20_5 C14_10 1_555 1_555
O22_5 C15_10 1_555 1_555
O26_3 C15_10 1_555 1_555
C9_10 C8_10 1_555 1_555
C10_10 C9_10 1_555 1_555
C11_10 C10_10 1_555 1_555
H8_10 C11_10 1_555 1_555
C12_10 C11_10 1_555 1_555
C13_10 C8_10 1_555 1_555
H9_10 C13_10 1_555 1_555
C14_10 C10_10 1_555 1_555
C15_10 C12_10 1_555 1_555
C12_10 C13_10 1_555 1_555
C2_10 C3_10 1_555 1_555
C3_10 H3_10 1_555 1_555
C4_10 C3_10 1_555 1_555
H4_10 C4_10 1_555 1_555
C5_10 C4_10 1_555 1_555
C6_10 C5_10 1_555 1_555
H5_10 C6_10 1_555 1_555
C7_10 C2_10 1_555 1_555
H6_10 C7_10 1_555 1_555
O10_2 Ni8 1_555 1_555
O3_4 Ni8 1_555 1_555
C6_10 C7_10 1_555 1_555
Ni6_6 O1_10 1_555 1_555
O1_10 C1_10 1_555 1_555
O18_8 C1_10 1_555 1_555
O7_10 Ni6_6 1_555 1_555
O8_10 Ni6_6 1_555 1_555
N1_10 C16_10 1_555 1_555
C16_10 O7_10 1_555 1_555
H10_10 C16_10 1_555 1_555
C17_10 N1_10 1_555 1_555
H11_10 C17_10 1_555 1_555
H12_10 C17_10 1_555 1_555
H13_10 C17_10 1_555 1_555
C18_10 N1_10 1_555 1_555
H14_10 C18_10 1_555 1_555
H15_10 C18_10 1_555 1_555
H16_10 C18_10 1_555 1_555
C2_11 C3_11 1_555 1_555
C3_11 H3_11 1_555 1_555
C4_11 C3_11 1_555 1_555
H4_11 C4_11 1_555 1_555
C5_11 C4_11 1_555 1_555
C6_11 C5_11 1_555 1_555
H5_11 C6_11 1_555 1_555
C7_11 C2_11 1_555 1_555
H6_11 C7_11 1_555 1_555
O10_3 Ni8_2 1_555 1_555
O3_5 Ni8_2 1_555 1_555
C6_11 C7_11 1_555 1_555
Ni6_4 O1_11 1_555 1_555
O1_11 C1_11 1_555 1_555
O18_9 C1_11 1_555 1_555
O7_11 Ni6_4 1_555 1_555
O8_11 Ni6_4 1_555 1_555
N1_11 C16_11 1_555 1_555
C16_11 O7_11 1_555 1_555
H10_11 C16_11 1_555 1_555
C17_11 N1_11 1_555 1_555
H11_11 C17_11 1_555 1_555
H12_11 C17_11 1_555 1_555
H13_11 C17_11 1_555 1_555
C18_11 N1_11 1_555 1_555
H14_11 C18_11 1_555 1_555
H15_11 C18_11 1_555 1_555
H16_11 C18_11 1_555 1_555
O19_5 C14_11 1_555 1_555
O20_6 C14_11 1_555 1_555
O22_6 C15_11 1_555 1_555
O26 C15_11 1_555 1_555
C9_11 C8_11 1_555 1_555
C10_11 C9_11 1_555 1_555
C11_11 C10_11 1_555 1_555
H8_11 C11_11 1_555 1_555
C12_11 C11_11 1_555 1_555
C13_11 C8_11 1_555 1_555
H9_11 C13_11 1_555 1_555
C14_11 C10_11 1_555 1_555
C15_11 C12_11 1_555 1_555
C12_11 C13_11 1_555 1_555
O19_6 C14_12 1_555 1_555
O20_4 C14_12 1_555 1_555
O22_4 C15_12 1_555 1_555
O26_2 C15_12 1_555 1_555
C2_12 C3_12 1_555 1_555
C3_12 H3_12 1_555 1_555
C4_12 C3_12 1_555 1_555
H4_12 C4_12 1_555 1_555
C5_12 C4_12 1_555 1_555
C6_12 C5_12 1_555 1_555
H5_12 C6_12 1_555 1_555
C7_12 C2_12 1_555 1_555
H6_12 C7_12 1_555 1_555
C8_12 C5_12 1_555 1_555
C9_12 C8_12 1_555 1_555
H7_12 C9_12 1_555 1_555
C10_12 C9_12 1_555 1_555
C11_12 C10_12 1_555 1_555
H8_12 C11_12 1_555 1_555
C12_12 C11_12 1_555 1_555
C13_12 C8_12 1_555 1_555
H9_12 C13_12 1_555 1_555
C14_12 C10_12 1_555 1_555
C15_12 C12_12 1_555 1_555
C6_12 C7_12 1_555 1_555
C12_12 C13_12 1_555 1_555
Ni6_5 O1_12 1_555 1_555
O1_12 C1_12 1_555 1_555
O18_7 C1_12 1_555 1_555
O7_12 Ni6_5 1_555 1_555
O8_12 Ni6_5 1_555 1_555
N1_12 C16_12 1_555 1_555
C16_12 O7_12 1_555 1_555
H10_12 C16_12 1_555 1_555
C17_12 N1_12 1_555 1_555
H11_12 C17_12 1_555 1_555
H12_12 C17_12 1_555 1_555
H13_12 C17_12 1_555 1_555
C18_12 N1_12 1_555 1_555
H14_12 C18_12 1_555 1_555
H15_12 C18_12 1_555 1_555
H16_12 C18_12 1_555 1_555

#END
