
###############################################################################
#
# This file contains modified crystal structure data generated from the
# MOF subset of the Cambridge Structural Database (CSD) v543 
# hosted by the Cambridge Crystallographic Data Centre (CCDC).
#
# This work is licensed under the Creative Commons
# Attribution-NonCommercial-ShareAlike 4.0 International License.
# To view a copy of this license, visit
# http://creativecommons.org/licenses/by-nc-sa/4.0/
# or send a letter to
# Creative Commons, PO Box 1866, Mountain View, CA 94042, USA.
#
# CIF created using the CSD Python API on 29 September 2022
# The structure has been converted into the P1 space group
# The structure has a 3D framework
# The original CSD entry VAPDAV is in the rhombohedral crystal system
# The framework has been calculated to contain at least 10.0% void space
# The void calculation uses a probe of radius 1.32A, grid spacing 0.4
#
###############################################################################

data_VAPDAV
_chemical_formula_moiety         '(C324 H288 Fe12 N18 Ni18 O138)n'
_symmetry_cell_setting           triclinic
_symmetry_space_group_name_H-M   'P 1'
_symmetry_Int_Tables_number      1
_space_group_name_Hall           'P 1'
loop_
_symmetry_equiv_pos_site_id
_symmetry_equiv_pos_as_xyz
1 x,y,z
_cell_length_a                   31.3652(6)
_cell_length_b                   31.3652(6)
_cell_length_c                   15.1568(5)
_cell_angle_alpha                90
_cell_angle_beta                 90
_cell_angle_gamma                120
_cell_volume                     12913.2
loop_
_atom_site_label
_atom_site_type_symbol
_atom_site_fract_x
_atom_site_fract_y
_atom_site_fract_z
Fe1 Fe 0.5000 0.5000 0.0000
N1 N 0.5189(5) 0.7300(4) 0.0347(8)
C17 C 0.4789(7) 0.7370(8) 0.0804(16)
H11 H 0.4463 0.7094 0.0654
H12 H 0.4813 0.7679 0.0604
H13 H 0.4836 0.7382 0.1445
C18 C 0.5687(6) 0.7683(5) 0.0440(12)
H14 H 0.5787 0.7707 0.1059
H15 H 0.5718 0.7996 0.0253
H16 H 0.5899 0.7609 0.0073
Ni2 Ni 0.54326(5) 0.41625(5) 0.03077(9)
O9 O 0.4809(3) 0.3893(3) 0.0977(5)
O10 O 0.4655(2) 0.4513(2) 0.1054(4)
O11 O 0.3104(2) 0.1998(2) 0.5752(4)
O12 O 0.2273(2) 0.1586(3) 0.5803(4)
O13 O 0.1291(2) 0.1865(2) 0.3691(5)
O14 O 0.1580(2) 0.2604(2) 0.3133(4)
O15 O 0.5391(3) 0.3493(3) 0.0162(5)
O16 O 0.5816(3) 0.4296(3) 0.1502(5)
H17 H 0.6087 0.4282 0.1430
H18 H 0.5922 0.4602 0.1668
C19 C 0.4596(3) 0.4101(4) 0.1278(6)
C20 C 0.4219(3) 0.3818(3) 0.1996(6)
C21 C 0.4178(4) 0.3380(4) 0.2290(8)
H19 H 0.4397 0.3278 0.2075
C22 C 0.3814(4) 0.3086(4) 0.2904(8)
H20 H 0.3801 0.2799 0.3136
C23 C 0.3468(3) 0.3219(3) 0.3174(6)
C24 C 0.3524(3) 0.3666(3) 0.2909(6)
H21 H 0.3305 0.3770 0.3124
C25 C 0.3908(3) 0.3972(3) 0.2312(6)
H22 H 0.3948 0.4280 0.2134
C26 C 0.3028(3) 0.2864(3) 0.3689(6)
C27 C 0.3068(3) 0.2576(3) 0.4348(6)
H23 H 0.3383 0.2632 0.4521
C28 C 0.2650(3) 0.2208(3) 0.4750(6)
C29 C 0.2190(3) 0.2125(3) 0.4496(5)
H24 H 0.1903 0.1869 0.4769
C30 C 0.2144(3) 0.2412(3) 0.3847(6)
C31 C 0.2564(3) 0.2792(3) 0.3463(6)
H25 H 0.2537 0.3003 0.3046
C32 C 0.2684(3) 0.1905(3) 0.5499(6)
C33 C 0.1642(3) 0.2287(3) 0.3563(5)
C34 C 0.4939(6) 0.3131(4) 0.0065(11)
H26 H 0.4682 0.3173 0.0300
Ni3 Ni 0.08292(5) 0.20632(7) 0.30256(9)
Ni6 Ni 0.20632(7) 0.12341(5) 0.69744(9)
Fe2 Fe 0.1667 0.3333 0.3333
Fe5 Fe 0.3333 0.1667 0.6667
O17 O 0.5331(2) 0.5561(3) 0.0915(4)
O19 O 0.4919(3) 0.5980(4) 0.0864(4)
O22 O 0.3907(3) 0.5376(2) 0.0358(5)
O23 O 0.5643(3) 0.4913(2) 0.0200(4)
Ni1 Ni 0.45674(5) 0.58375(5) 0.96923(9)
Fe1_2 Fe 0.5000 0.5000 1.0000
O1 O 0.5191(3) 0.6107(3) 0.9023(5)
O2 O 0.5345(2) 0.5487(2) 0.8946(4)
O3 O 0.6896(2) 0.8002(2) 0.4248(4)
O4 O 0.7727(2) 0.8414(3) 0.4197(4)
O5 O 0.8709(2) 0.8135(2) 0.6309(5)
O6 O 0.8420(2) 0.7396(2) 0.6867(4)
O7 O 0.4609(3) 0.6507(3) 0.9838(5)
O8 O 0.4184(3) 0.5704(3) 0.8498(5)
H1 H 0.3913 0.5718 0.8570
H2 H 0.4078 0.5398 0.8332
C1 C 0.5404(3) 0.5899(4) 0.8722(6)
C2 C 0.5781(3) 0.6182(3) 0.8004(6)
C3 C 0.5822(4) 0.6620(4) 0.7710(8)
H3 H 0.5603 0.6722 0.7925
C4 C 0.6186(4) 0.6914(4) 0.7096(8)
H4 H 0.6199 0.7201 0.6864
C5 C 0.6532(3) 0.6781(3) 0.6826(6)
C6 C 0.6476(3) 0.6334(3) 0.7091(6)
H5 H 0.6695 0.6230 0.6876
C7 C 0.6092(3) 0.6028(3) 0.7688(6)
H6 H 0.6052 0.5720 0.7866
C8 C 0.6972(3) 0.7136(3) 0.6311(6)
C9 C 0.6932(3) 0.7424(3) 0.5652(6)
H7 H 0.6617 0.7368 0.5479
C10 C 0.7350(3) 0.7792(3) 0.5250(6)
C11 C 0.7810(3) 0.7875(3) 0.5504(5)
H8 H 0.8097 0.8131 0.5231
C12 C 0.7856(3) 0.7588(3) 0.6153(6)
C13 C 0.7436(3) 0.7208(3) 0.6537(6)
H9 H 0.7463 0.6997 0.6954
C14 C 0.7316(3) 0.8095(3) 0.4501(6)
C15 C 0.8358(3) 0.7713(3) 0.6437(5)
C16 C 0.5061(6) 0.6869(4) 0.9935(11)
H10 H 0.5318 0.6827 0.9700
N2 N 0.4811(5) 0.2700(4) 0.9653(8)
C35 C 0.5211(7) 0.2630(8) 0.9196(16)
H27 H 0.5537 0.2906 0.9346
H28 H 0.5187 0.2321 0.9396
H29 H 0.5164 0.2618 0.8555
C36 C 0.4313(6) 0.2317(5) 0.9560(12)
H30 H 0.4213 0.2293 0.8941
H31 H 0.4282 0.2004 0.9747
H32 H 0.4101 0.2391 0.9927
Ni4 Ni 0.79368(7) 0.87659(5) 0.30256(9)
Ni5 Ni 0.91708(5) 0.79368(7) 0.69744(9)
Fe3 Fe 0.6667 0.8333 0.3333
Fe4 Fe 0.8333 0.6667 0.6667
O18 O 0.4669(2) 0.4439(3) 0.9085(4)
O20 O 0.5081(3) 0.4020(4) 0.9136(4)
O21 O 0.6093(3) 0.4624(2) 0.9642(5)
O24 O 0.4357(3) 0.5087(2) 0.9800(4)
Fe1_3 Fe 0.5000 -0.0000 0.0000
Ni2_2 Ni 0.58375(5) 0.12701(7) 0.03077(9)
O9_2 O 0.6107(3) 0.0916(4) 0.0977(5)
O10_2 O 0.5487(2) 0.0142(3) 0.1054(4)
O11_2 O 0.8002(2) 0.1106(3) 0.5752(4)
O12_2 O 0.8414(3) 0.0687(4) 0.5803(4)
O15_2 O 0.6507(3) 0.1898(4) 0.0162(5)
O16_2 O 0.5704(3) 0.1520(4) 0.1502(5)
H17_2 H 0.5718 0.1805 0.1430
H18_2 H 0.5398 0.1320 0.1668
C19_2 C 0.5899(4) 0.0495(5) 0.1278(6)
C20_2 C 0.6182(3) 0.0401(4) 0.1996(6)
C21_2 C 0.6620(4) 0.0798(6) 0.2290(8)
H19_2 H 0.6722 0.1119 0.2075
C22_2 C 0.6914(4) 0.0728(6) 0.2904(8)
H20_2 H 0.7201 0.1002 0.3136
C23_2 C 0.6781(3) 0.0249(4) 0.3174(6)
C26_2 C 0.7136(3) 0.0164(4) 0.3689(6)
C27_2 C 0.7424(3) 0.0492(4) 0.4348(6)
H23_2 H 0.7368 0.0751 0.4521
C28_2 C 0.7792(3) 0.0442(4) 0.4750(6)
C29_2 C 0.7875(3) 0.0065(4) 0.4496(5)
H24_2 H 0.8131 0.0034 0.4769
C32_2 C 0.8095(3) 0.0779(4) 0.5499(6)
C34_2 C 0.6869(4) 0.1808(7) 0.0065(11)
H26_2 H 0.6827 0.1509 0.0300
Ni6_2 Ni 0.87659(5) 0.08292(9) 0.69744(9)
Fe5_2 Fe 0.8333 0.1667 0.6667
O23_2 O 0.5087(2) 0.0729(4) 0.0200(4)
Fe1_4 Fe 0.5000 0.0000 1.0000
O5_2 O 0.1865(2) 0.0574(3) 0.6309(5)
O6_2 O 0.2604(2) 0.1024(3) 0.6867(4)
C6_2 C 0.3666(3) 0.0142(4) 0.7091(6)
H5_2 H 0.3770 0.0465 0.6876
C7_2 C 0.3972(3) 0.0064(4) 0.7688(6)
H6_2 H 0.4280 0.0332 0.7866
C12_2 C 0.2412(3) 0.0268(4) 0.6153(6)
C13_2 C 0.2792(3) 0.0228(4) 0.6537(6)
H9_2 H 0.3003 0.0466 0.6954
C15_2 C 0.2287(3) 0.0645(4) 0.6437(5)
N2_2 N 0.7300(4) 0.2111(6) 0.9653(8)
C35_2 C 0.7370(8) 0.2581(11) 0.9196(16)
H27_2 H 0.7094 0.2631 0.9346
H28_2 H 0.7679 0.2866 0.9396
H29_2 H 0.7382 0.2546 0.8555
C36_2 C 0.7683(5) 0.1996(8) 0.9560(12)
H30_2 H 0.7707 0.1920 0.8941
H31_2 H 0.7996 0.2278 0.9747
H32_2 H 0.7609 0.1710 0.9927
O18_2 O 0.5561(3) 0.0229(4) 0.9085(4)
O20_2 O 0.5980(4) 0.1060(5) 0.9136(4)
O21_2 O 0.5376(2) 0.1468(4) 0.9642(5)
Fe1_5 Fe 0.5000 1.0000 0.0000
N1_2 N 0.2700(4) 0.7889(6) 0.0347(8)
C17_2 C 0.2630(8) 0.7419(11) 0.0804(16)
H11_2 H 0.2906 0.7369 0.0654
H12_2 H 0.2321 0.7134 0.0604
H13_2 H 0.2618 0.7454 0.1445
C18_2 C 0.2317(5) 0.8004(8) 0.0440(12)
H14_2 H 0.2293 0.8080 0.1059
H15_2 H 0.2004 0.7722 0.0253
H16_2 H 0.2391 0.8290 0.0073
O13_2 O 0.8135(2) 0.9426(3) 0.3691(5)
O14_2 O 0.7396(2) 0.8976(3) 0.3133(4)
C24_2 C 0.6334(3) 0.9858(4) 0.2909(6)
H21_2 H 0.6230 0.9535 0.3124
C25_2 C 0.6028(3) 0.9936(4) 0.2312(6)
H22_2 H 0.5720 0.9668 0.2134
C30_2 C 0.7588(3) 0.9732(4) 0.3847(6)
C31_2 C 0.7208(3) 0.9772(4) 0.3463(6)
H25_2 H 0.6997 0.9534 0.3046
C33_2 C 0.7713(3) 0.9355(4) 0.3563(5)
O17_2 O 0.4439(3) 0.9771(4) 0.0915(4)
O19_2 O 0.4020(4) 0.8940(5) 0.0864(4)
O22_2 O 0.4624(2) 0.8532(4) 0.0358(5)
Ni1_2 Ni 0.41625(5) 0.87299(7) 0.96923(9)
Fe1_6 Fe 0.5000 1.0000 1.0000
O1_2 O 0.3893(3) 0.9084(4) 0.9023(5)
O2_2 O 0.4513(2) 0.9858(3) 0.8946(4)
O3_2 O 0.1998(2) 0.8894(3) 0.4248(4)
O4_2 O 0.1586(3) 0.9313(4) 0.4197(4)
O7_2 O 0.3493(3) 0.8102(4) 0.9838(5)
O8_2 O 0.4296(3) 0.8480(4) 0.8498(5)
H1_2 H 0.4282 0.8195 0.8570
H2_2 H 0.4602 0.8680 0.8332
C1_2 C 0.4101(4) 0.9505(5) 0.8722(6)
C2_2 C 0.3818(3) 0.9599(4) 0.8004(6)
C3_2 C 0.3380(4) 0.9202(6) 0.7710(8)
H3_2 H 0.3278 0.8881 0.7925
C4_2 C 0.3086(4) 0.9272(6) 0.7096(8)
H4_2 H 0.2799 0.8998 0.6864
C5_2 C 0.3219(3) 0.9751(4) 0.6826(6)
C8_2 C 0.2864(3) 0.9836(4) 0.6311(6)
C9_2 C 0.2576(3) 0.9508(4) 0.5652(6)
H7_2 H 0.2632 0.9249 0.5479
C10_2 C 0.2208(3) 0.9558(4) 0.5250(6)
C11_2 C 0.2125(3) 0.9935(4) 0.5504(5)
H8_2 H 0.1869 0.9966 0.5231
C14_2 C 0.1905(3) 0.9221(4) 0.4501(6)
C16_2 C 0.3131(4) 0.8192(7) 0.9935(11)
H10_2 H 0.3173 0.8491 0.9700
Ni4_2 Ni 0.12341(5) 0.91708(9) 0.30256(9)
Fe3_2 Fe 0.1667 0.8333 0.3333
O24_2 O 0.4913(2) 0.9271(4) 0.9800(4)
Fe1_7 Fe -0.0000 0.5000 0.0000
N1_3 N 0.2111(6) 0.4811(5) 0.0347(8)
C17_3 C 0.2581(11) 0.5211(7) 0.0804(16)
H11_3 H 0.2631 0.5537 0.0654
H12_3 H 0.2866 0.5187 0.0604
H13_3 H 0.2546 0.5164 0.1445
C18_3 C 0.1996(8) 0.4313(6) 0.0440(12)
H14_3 H 0.1920 0.4213 0.1059
H15_3 H 0.2278 0.4282 0.0253
H16_3 H 0.1710 0.4101 0.0073
O13_3 O 0.0574(3) 0.8709(2) 0.3691(5)
O14_3 O 0.1024(3) 0.8420(2) 0.3133(4)
C24_3 C 0.0142(4) 0.6476(3) 0.2909(6)
H21_3 H 0.0465 0.6695 0.3124
C25_3 C 0.0064(4) 0.6092(3) 0.2312(6)
H22_3 H 0.0332 0.6052 0.2134
C30_3 C 0.0268(4) 0.7856(3) 0.3847(6)
C31_3 C 0.0228(4) 0.7436(3) 0.3463(6)
H25_3 H 0.0466 0.7463 0.3046
C33_3 C 0.0645(4) 0.8358(3) 0.3563(5)
O17_3 O 0.0229(4) 0.4669(2) 0.0915(4)
O19_3 O 0.1060(5) 0.5081(3) 0.0864(4)
O22_3 O 0.1468(4) 0.6093(3) 0.0358(5)
Ni1_3 Ni 0.12701(7) 0.54326(5) 0.96923(9)
Fe1_8 Fe -0.0000 0.5000 1.0000
O1_3 O 0.0916(4) 0.4809(3) 0.9023(5)
O2_3 O 0.0142(3) 0.4655(2) 0.8946(4)
O3_3 O 0.1106(3) 0.3104(2) 0.4248(4)
O4_3 O 0.0687(4) 0.2273(2) 0.4197(4)
O7_3 O 0.1898(4) 0.5391(3) 0.9838(5)
O8_3 O 0.1520(4) 0.5816(3) 0.8498(5)
H1_3 H 0.1805 0.6087 0.8570
H2_3 H 0.1320 0.5922 0.8332
C1_3 C 0.0495(5) 0.4596(3) 0.8722(6)
C2_3 C 0.0401(4) 0.4219(3) 0.8004(6)
C3_3 C 0.0798(6) 0.4178(4) 0.7710(8)
H3_3 H 0.1119 0.4397 0.7925
C4_3 C 0.0728(6) 0.3814(4) 0.7096(8)
H4_3 H 0.1002 0.3801 0.6864
C5_3 C 0.0249(4) 0.3468(3) 0.6826(6)
C8_3 C 0.0164(4) 0.3028(3) 0.6311(6)
C9_3 C 0.0492(4) 0.3068(3) 0.5652(6)
H7_3 H 0.0751 0.3383 0.5479
C10_3 C 0.0442(4) 0.2650(3) 0.5250(6)
C11_3 C 0.0065(4) 0.2190(3) 0.5504(5)
H8_3 H 0.0034 0.1903 0.5231
C14_3 C 0.0779(4) 0.2684(3) 0.4501(6)
C16_3 C 0.1808(7) 0.4939(6) 0.9935(11)
H10_3 H 0.1509 0.4682 0.9700
O24_3 O 0.0729(4) 0.5643(3) 0.9800(4)
Fe1_9 Fe 1.0000 0.5000 0.0000
Ni2_3 Ni 0.87299(7) 0.45674(5) 0.03077(9)
O9_3 O 0.9084(4) 0.5191(3) 0.0977(5)
O10_3 O 0.9858(3) 0.5345(2) 0.1054(4)
O11_3 O 0.8894(3) 0.6896(2) 0.5752(4)
O12_3 O 0.9313(4) 0.7727(2) 0.5803(4)
O15_3 O 0.8102(4) 0.4609(3) 0.0162(5)
O16_3 O 0.8480(4) 0.4184(3) 0.1502(5)
H17_3 H 0.8195 0.3913 0.1430
H18_3 H 0.8680 0.4078 0.1668
C19_3 C 0.9505(5) 0.5404(3) 0.1278(6)
C20_3 C 0.9599(4) 0.5781(3) 0.1996(6)
C21_3 C 0.9202(6) 0.5822(4) 0.2290(8)
H19_3 H 0.8881 0.5603 0.2075
C22_3 C 0.9272(6) 0.6186(4) 0.2904(8)
H20_3 H 0.8998 0.6199 0.3136
C23_3 C 0.9751(4) 0.6532(3) 0.3174(6)
C26_3 C 0.9836(4) 0.6972(3) 0.3689(6)
C27_3 C 0.9508(4) 0.6932(3) 0.4348(6)
H23_3 H 0.9249 0.6617 0.4521
C28_3 C 0.9558(4) 0.7350(3) 0.4750(6)
C29_3 C 0.9935(4) 0.7810(3) 0.4496(5)
H24_3 H 0.9966 0.8097 0.4769
C32_3 C 0.9221(4) 0.7316(3) 0.5499(6)
C34_3 C 0.8192(7) 0.5061(6) 0.0065(11)
H26_3 H 0.8491 0.5318 0.0300
O23_3 O 0.9271(4) 0.4357(3) 0.0200(4)
Fe1_10 Fe 1.0000 0.5000 1.0000
O5_3 O 0.9426(3) 0.1291(2) 0.6309(5)
O6_3 O 0.8976(3) 0.1580(2) 0.6867(4)
C6_3 C 0.9858(4) 0.3524(3) 0.7091(6)
H5_3 H 0.9535 0.3305 0.6876
C7_3 C 0.9936(4) 0.3908(3) 0.7688(6)
H6_3 H 0.9668 0.3948 0.7866
C12_3 C 0.9732(4) 0.2144(3) 0.6153(6)
C13_3 C 0.9772(4) 0.2564(3) 0.6537(6)
H9_3 H 0.9534 0.2537 0.6954
C15_3 C 0.9355(4) 0.1642(3) 0.6437(5)
N2_3 N 0.7889(6) 0.5189(5) 0.9653(8)
C35_3 C 0.7419(11) 0.4789(7) 0.9196(16)
H27_3 H 0.7369 0.4463 0.9346
H28_3 H 0.7134 0.4813 0.9396
H29_3 H 0.7454 0.4836 0.8555
C36_3 C 0.8004(8) 0.5687(6) 0.9560(12)
H30_3 H 0.8080 0.5787 0.8941
H31_3 H 0.7722 0.5718 0.9747
H32_3 H 0.8290 0.5899 0.9927
O18_3 O 0.9771(4) 0.5331(2) 0.9085(4)
O20_3 O 0.8940(5) 0.4919(3) 0.9136(4)
O21_3 O 0.8532(4) 0.3907(3) 0.9642(5)
N1_4 N 0.1856(5) 0.0633(4) 0.3680(8)
H3_4 H 0.2270 0.0055 0.1258
C4_4 C 0.2853(4) 0.0247(4) 0.0429(8)
H4_4 H 0.2866 0.0534 0.0197
C5_4 C 0.3199(3) 0.0114(3) 0.0159(6)
H9_4 H 0.4130 0.0330 0.0287
C16_4 C 0.1728(6) 0.0202(4) 0.3268(11)
H10_4 H 0.1985 0.0160 0.3033
C17_4 C 0.1456(7) 0.0703(8) 0.4137(16)
H11_4 H 0.1130 0.0427 0.3987
H12_4 H 0.1480 0.1012 0.3937
H13_4 H 0.1503 0.0715 0.4778
C18_4 C 0.2354(6) 0.1016(5) 0.3773(12)
H14_4 H 0.2454 0.1040 0.4392
H15_4 H 0.2385 0.1329 0.3586
H16_4 H 0.2566 0.0942 0.3406
O3_4 O 0.3563(2) 0.1335(2) 0.7581(4)
O4_4 O 0.4394(2) 0.1747(3) 0.7530(4)
C8_4 C 0.3639(3) 0.0469(3) 0.9644(6)
C9_4 C 0.3599(3) 0.0757(3) 0.8985(6)
H7_4 H 0.3284 0.0701 0.8812
C10_4 C 0.4017(3) 0.1125(3) 0.8583(6)
C11_4 C 0.4477(3) 0.1208(3) 0.8837(5)
H8_4 H 0.4764 0.1464 0.8564
C12_4 C 0.4523(3) 0.0921(3) 0.9486(6)
C13_4 C 0.4103(3) 0.0541(3) 0.9870(6)
C14_4 C 0.3983(3) 0.1428(3) 0.7834(6)
C15_4 C 0.5025(3) 0.1046(3) 0.9770(5)
Ni4_3 Ni 0.46034(7) 0.20993(5) 0.63590(9)
O1_4 O 0.1858(3) 0.9440(3) 0.2356(5)
O2_4 O 0.2012(2) 0.8820(2) 0.2279(4)
O7_4 O 0.1276(3) 0.9840(3) 0.3171(5)
O8_4 O 0.0851(3) 0.9037(3) 0.1831(5)
H1_4 H 0.0580 0.9051 0.1903
H2_4 H 0.0745 0.8731 0.1665
C1_4 C 0.2071(3) 0.9232(4) 0.2055(6)
C2_4 C 0.2448(3) 0.9515(3) 0.1337(6)
C3_4 C 0.2489(4) 0.9953(4) 0.1043(8)
C6_4 C 0.3143(3) 0.9667(3) 0.0424(6)
H5_4 H 0.3362 0.9563 0.0209
C7_4 C 0.2759(3) 0.9361(3) 0.1021(6)
H6_4 H 0.2719 0.9053 0.1199
Ni2_4 Ni 0.20993(5) 0.74958(5) 0.36410(9)
O9_4 O 0.1476(3) 0.7226(3) 0.4310(5)
O10_4 O 0.1322(2) 0.7846(2) 0.4387(4)
O15_4 O 0.2058(3) 0.6826(3) 0.3495(5)
O16_4 O 0.2483(3) 0.7629(3) 0.4835(5)
H17_4 H 0.2754 0.7615 0.4763
H18_4 H 0.2589 0.7935 0.5001
N2_4 N 0.1478(5) 0.6033(4) 0.2986(8)
C19_4 C 0.1263(3) 0.7434(4) 0.4611(6)
C20_4 C 0.0886(3) 0.7151(3) 0.5329(6)
C21_4 C 0.0845(4) 0.6713(4) 0.5623(8)
H19_4 H 0.1064 0.6611 0.5408
C22_4 C 0.0481(4) 0.6419(4) 0.6237(8)
H20_4 H 0.0468 0.6132 0.6469
C23_4 C 0.0135(3) 0.6552(3) 0.6507(6)
C24_4 C 0.0191(3) 0.6999(3) 0.6242(6)
C25_4 C 0.0575(3) 0.7305(3) 0.5645(6)
H22_4 H 0.0615 0.7613 0.5467
H23_4 H 0.0050 0.5965 0.7854
C34_4 C 0.1606(6) 0.6464(4) 0.3398(11)
H26_4 H 0.1349 0.6506 0.3633
C35_4 C 0.1878(7) 0.5963(8) 0.2529(16)
H27_4 H 0.2204 0.6239 0.2679
H28_4 H 0.1854 0.5654 0.2729
H29_4 H 0.1831 0.5951 0.1888
C36_4 C 0.0980(6) 0.5650(5) 0.2893(12)
H30_4 H 0.0880 0.5626 0.2274
H31_4 H 0.0949 0.5337 0.3080
H32_4 H 0.0768 0.5724 0.3260
O18_4 O 0.1335(2) 0.7773(3) 0.2419(4)
O20_4 O 0.1747(3) 0.7354(4) 0.2470(4)
O21_4 O 0.2759(3) 0.7958(2) 0.2976(5)
O23_4 O 0.2309(3) 0.8247(2) 0.3534(4)
O13_4 O 0.7958(2) 0.5198(2) 0.7024(5)
O14_4 O 0.8247(2) 0.5937(2) 0.6466(4)
H21_4 H 0.9972 0.7103 0.6457
C26_4 C 0.9695(3) 0.6197(3) 0.7022(6)
C27_4 C 0.9735(3) 0.5909(3) 0.7681(6)
C28_4 C 0.9317(3) 0.5541(3) 0.8083(6)
C29_4 C 0.8857(3) 0.5458(3) 0.7829(5)
H24_4 H 0.8570 0.5202 0.8102
C30_4 C 0.8811(3) 0.5745(3) 0.7180(6)
C31_4 C 0.9231(3) 0.6125(3) 0.6796(6)
H25_4 H 0.9204 0.6336 0.6379
C32_4 C 0.9351(3) 0.5238(3) 0.8832(6)
C33_4 C 0.8309(3) 0.5620(3) 0.6896(5)
Ni3_2 Ni 0.74958(5) 0.53966(7) 0.63590(9)
O1_5 O 0.0560(3) 0.2417(4) 0.2356(5)
O2_5 O 0.1180(2) 0.3191(3) 0.2279(4)
O7_5 O 0.0160(3) 0.1435(4) 0.3171(5)
O8_5 O 0.0963(3) 0.1813(4) 0.1831(5)
H1_5 H 0.0949 0.1528 0.1903
H2_5 H 0.1269 0.2013 0.1665
C1_5 C 0.0768(4) 0.2838(5) 0.2055(6)
C2_5 C 0.0485(3) 0.2932(4) 0.1337(6)
C3_5 C 0.0047(4) 0.2535(6) 0.1043(8)
C6_5 C 0.0333(3) 0.3475(4) 0.0424(6)
H5_5 H 0.0437 0.3798 0.0209
C7_5 C 0.0639(3) 0.3397(4) 0.1021(6)
H6_5 H 0.0947 0.3665 0.1199
Ni2_5 Ni 0.25042(5) 0.46034(7) 0.36410(9)
O9_5 O 0.2774(3) 0.4249(4) 0.4310(5)
O10_5 O 0.2154(2) 0.3475(3) 0.4387(4)
O13_5 O 0.4802(2) 0.2759(3) 0.7024(5)
O14_5 O 0.4063(2) 0.2309(3) 0.6466(4)
O15_5 O 0.3174(3) 0.5231(4) 0.3495(5)
O16_5 O 0.2371(3) 0.4853(4) 0.4835(5)
H17_5 H 0.2385 0.5138 0.4763
H18_5 H 0.2065 0.4653 0.5001
N2_5 N 0.3967(4) 0.5444(6) 0.2986(8)
C19_5 C 0.2566(4) 0.3828(5) 0.4611(6)
C20_5 C 0.2849(3) 0.3734(4) 0.5329(6)
C21_5 C 0.3287(4) 0.4131(6) 0.5623(8)
H19_5 H 0.3389 0.4452 0.5408
C22_5 C 0.3581(4) 0.4061(6) 0.6237(8)
H20_5 H 0.3868 0.4335 0.6469
C23_5 C 0.3448(3) 0.3582(4) 0.6507(6)
C24_5 C 0.3001(3) 0.3191(4) 0.6242(6)
H21_5 H 0.2897 0.2868 0.6457
C25_5 C 0.2695(3) 0.3269(4) 0.5645(6)
H22_5 H 0.2387 0.3001 0.5467
C26_5 C 0.3803(3) 0.3497(4) 0.7022(6)
C27_5 C 0.4091(3) 0.3825(4) 0.7681(6)
H23_5 H 0.4035 0.4084 0.7854
C28_5 C 0.4459(3) 0.3775(4) 0.8083(6)
C29_5 C 0.4542(3) 0.3398(4) 0.7829(5)
H24_5 H 0.4798 0.3367 0.8102
C30_5 C 0.4255(3) 0.3065(4) 0.7180(6)
C31_5 C 0.3875(3) 0.3105(4) 0.6796(6)
H25_5 H 0.3664 0.2867 0.6379
C32_5 C 0.4762(3) 0.4112(4) 0.8832(6)
C33_5 C 0.4380(3) 0.2688(4) 0.6896(5)
C34_5 C 0.3536(4) 0.5141(7) 0.3398(11)
H26_5 H 0.3494 0.4842 0.3633
C35_5 C 0.4037(8) 0.5914(11) 0.2529(16)
H27_5 H 0.3761 0.5964 0.2679
H28_5 H 0.4346 0.6199 0.2729
H29_5 H 0.4049 0.5879 0.1888
C36_5 C 0.4350(5) 0.5329(8) 0.2893(12)
H30_5 H 0.4374 0.5253 0.2274
H31_5 H 0.4663 0.5611 0.3080
H32_5 H 0.4276 0.5043 0.3260
O18_5 O 0.2227(3) 0.3563(4) 0.2419(4)
O20_5 O 0.2646(4) 0.4394(5) 0.2470(4)
O21_5 O 0.2042(2) 0.4802(4) 0.2976(5)
O23_5 O 0.1753(2) 0.4063(4) 0.3534(4)
N1_5 N 0.9367(4) 0.1222(6) 0.3680(8)
H3_5 H 0.9945 0.2214 0.1258
C4_5 C 0.9753(4) 0.2605(6) 0.0429(8)
H4_5 H 0.9466 0.2331 0.0197
C5_5 C 0.9886(3) 0.3084(4) 0.0159(6)
H9_5 H 0.9670 0.3799 0.0287
C16_5 C 0.9798(4) 0.1525(7) 0.3268(11)
H10_5 H 0.9840 0.1824 0.3033
C17_5 C 0.9297(8) 0.0752(11) 0.4137(16)
H11_5 H 0.9573 0.0702 0.3987
H12_5 H 0.8988 0.0467 0.3937
H13_5 H 0.9285 0.0787 0.4778
C18_5 C 0.8984(5) 0.1337(8) 0.3773(12)
H14_5 H 0.8960 0.1413 0.4392
H15_5 H 0.8671 0.1055 0.3586
H16_5 H 0.9058 0.1623 0.3406
O3_5 O 0.8665(2) 0.2227(3) 0.7581(4)
O4_5 O 0.8253(3) 0.2646(4) 0.7530(4)
C8_5 C 0.9531(3) 0.3169(4) 0.9644(6)
C9_5 C 0.9243(3) 0.2841(4) 0.8985(6)
H7_5 H 0.9299 0.2582 0.8812
C10_5 C 0.8875(3) 0.2891(4) 0.8583(6)
C11_5 C 0.8792(3) 0.3268(4) 0.8837(5)
H8_5 H 0.8536 0.3299 0.8564
C12_5 C 0.9079(3) 0.3601(4) 0.9486(6)
C13_5 C 0.9459(3) 0.3561(4) 0.9870(6)
C14_5 C 0.8572(3) 0.2554(4) 0.7834(6)
C15_5 C 0.8954(3) 0.3978(4) 0.9770(5)
Ni4_4 Ni 0.79007(5) 0.25042(9) 0.63590(9)
O13_6 O 0.7241(3) 0.2042(2) 0.7024(5)
O14_6 O 0.7691(3) 0.1753(2) 0.6466(4)
H21_6 H 0.7132 0.0028 0.6457
C26_6 C 0.6503(4) 0.0305(3) 0.7022(6)
C27_6 C 0.6175(4) 0.0265(3) 0.7681(6)
C28_6 C 0.6225(4) 0.0683(3) 0.8083(6)
C29_6 C 0.6602(4) 0.1143(3) 0.7829(5)
H24_6 H 0.6633 0.1430 0.8102
C30_6 C 0.6935(4) 0.1189(3) 0.7180(6)
C31_6 C 0.6895(4) 0.0769(3) 0.6796(6)
H25_6 H 0.7133 0.0796 0.6379
C32_6 C 0.5888(4) 0.0649(3) 0.8832(6)
C33_6 C 0.7312(4) 0.1691(3) 0.6896(5)
O1_6 O 0.7583(4) 0.8142(3) 0.2356(5)
O2_6 O 0.6809(3) 0.7988(2) 0.2279(4)
O7_6 O 0.8565(4) 0.8724(3) 0.3171(5)
O8_6 O 0.8187(4) 0.9149(3) 0.1831(5)
H1_6 H 0.8472 0.9420 0.1903
H2_6 H 0.7987 0.9255 0.1665
N1_6 N 0.8778(6) 0.8144(5) 0.3680(8)
C1_6 C 0.7162(5) 0.7929(3) 0.2055(6)
C2_6 C 0.7068(4) 0.7552(3) 0.1337(6)
C3_6 C 0.7465(6) 0.7511(4) 0.1043(8)
H3_6 H 0.7786 0.7730 0.1258
C4_6 C 0.7395(6) 0.7147(4) 0.0429(8)
H4_6 H 0.7669 0.7134 0.0197
C5_6 C 0.6916(4) 0.6801(3) 0.0159(6)
C6_6 C 0.6525(4) 0.6857(3) 0.0424(6)
H5_6 H 0.6202 0.6638 0.0209
C7_6 C 0.6603(4) 0.7241(3) 0.1021(6)
H6_6 H 0.6335 0.7281 0.1199
H9_6 H 0.6201 0.5870 0.0287
C16_6 C 0.8475(7) 0.8272(6) 0.3268(11)
H10_6 H 0.8176 0.8015 0.3033
C17_6 C 0.9248(11) 0.8544(7) 0.4137(16)
H11_6 H 0.9298 0.8870 0.3987
H12_6 H 0.9533 0.8520 0.3937
H13_6 H 0.9213 0.8497 0.4778
C18_6 C 0.8663(8) 0.7646(6) 0.3773(12)
H14_6 H 0.8587 0.7546 0.4392
H15_6 H 0.8945 0.7615 0.3586
H16_6 H 0.8377 0.7434 0.3406
Ni2_6 Ni 0.53966(7) 0.79007(5) 0.36410(9)
O9_6 O 0.5751(4) 0.8524(3) 0.4310(5)
O10_6 O 0.6525(3) 0.8678(2) 0.4387(4)
O15_6 O 0.4769(4) 0.7942(3) 0.3495(5)
O16_6 O 0.5147(4) 0.7517(3) 0.4835(5)
H17_6 H 0.4862 0.7246 0.4763
H18_6 H 0.5347 0.7411 0.5001
N2_6 N 0.4556(6) 0.8522(5) 0.2986(8)
C19_6 C 0.6172(5) 0.8737(3) 0.4611(6)
C20_6 C 0.6266(4) 0.9114(3) 0.5329(6)
C21_6 C 0.5869(6) 0.9155(4) 0.5623(8)
H19_6 H 0.5548 0.8936 0.5408
C22_6 C 0.5939(6) 0.9519(4) 0.6237(8)
H20_6 H 0.5665 0.9532 0.6469
C23_6 C 0.6418(4) 0.9865(3) 0.6507(6)
C24_6 C 0.6809(4) 0.9809(3) 0.6242(6)
C25_6 C 0.6731(4) 0.9425(3) 0.5645(6)
H22_6 H 0.6999 0.9385 0.5467
H23_6 H 0.5916 0.9950 0.7854
C34_6 C 0.4859(7) 0.8394(6) 0.3398(11)
H26_6 H 0.5158 0.8651 0.3633
C35_6 C 0.4086(11) 0.8122(7) 0.2529(16)
H27_6 H 0.4036 0.7796 0.2679
H28_6 H 0.3801 0.8146 0.2729
H29_6 H 0.4121 0.8169 0.1888
C36_6 C 0.4671(8) 0.9020(6) 0.2893(12)
H30_6 H 0.4747 0.9120 0.2274
H31_6 H 0.4389 0.9051 0.3080
H32_6 H 0.4957 0.9232 0.3260
O18_6 O 0.6437(4) 0.8665(2) 0.2419(4)
O20_6 O 0.5606(5) 0.8253(3) 0.2470(4)
O21_6 O 0.5198(4) 0.7241(3) 0.2976(5)
O23_6 O 0.5937(4) 0.7691(3) 0.3534(4)
O3_6 O 0.7773(3) 0.6437(2) 0.7581(4)
O4_6 O 0.7354(4) 0.5606(2) 0.7530(4)
C8_6 C 0.6831(4) 0.6361(3) 0.9644(6)
C9_6 C 0.7159(4) 0.6401(3) 0.8985(6)
H7_6 H 0.7418 0.6716 0.8812
C10_6 C 0.7109(4) 0.5983(3) 0.8583(6)
C11_6 C 0.6732(4) 0.5523(3) 0.8837(5)
H8_6 H 0.6701 0.5236 0.8564
C12_6 C 0.6399(4) 0.5477(3) 0.9486(6)
C13_6 C 0.6439(4) 0.5897(3) 0.9870(6)
C14_6 C 0.7446(4) 0.6017(3) 0.7834(6)
C15_6 C 0.6022(4) 0.4975(3) 0.9770(5)
H5_7 H 0.0028 0.2897 0.3543
C8_7 C 0.0305(3) 0.3803(3) 0.2978(6)
C9_7 C 0.0265(3) 0.4091(3) 0.2319(6)
C10_7 C 0.0683(3) 0.4459(3) 0.1917(6)
C11_7 C 0.1143(3) 0.4542(3) 0.2171(5)
H8_7 H 0.1430 0.4798 0.1898
C12_7 C 0.1189(3) 0.4255(3) 0.2820(6)
C13_7 C 0.0769(3) 0.3875(3) 0.3204(6)
H9_7 H 0.0796 0.3664 0.3621
C14_7 C 0.0649(3) 0.4762(3) 0.1168(6)
C15_7 C 0.1691(3) 0.4380(3) 0.3104(5)
O1_7 O 0.8524(3) 0.2774(3) 0.5690(5)
O2_7 O 0.8678(2) 0.2154(2) 0.5613(4)
O7_7 O 0.7942(3) 0.3174(3) 0.6505(5)
O8_7 O 0.7517(3) 0.2371(3) 0.5165(5)
H1_7 H 0.7246 0.2385 0.5237
H2_7 H 0.7411 0.2065 0.4999
N1_7 N 0.8522(5) 0.3967(4) 0.7014(8)
C1_7 C 0.8737(3) 0.2566(4) 0.5389(6)
C2_7 C 0.9114(3) 0.2849(3) 0.4671(6)
C3_7 C 0.9155(4) 0.3287(4) 0.4377(8)
H3_7 H 0.8936 0.3389 0.4592
C4_7 C 0.9519(4) 0.3581(4) 0.3763(8)
H4_7 H 0.9532 0.3868 0.3531
C5_7 C 0.9865(3) 0.3448(3) 0.3493(6)
C6_7 C 0.9809(3) 0.3001(3) 0.3758(6)
C7_7 C 0.9425(3) 0.2695(3) 0.4355(6)
H6_7 H 0.9385 0.2387 0.4533
H7_7 H 0.9950 0.4035 0.2146
C16_7 C 0.8394(6) 0.3536(4) 0.6602(11)
H10_7 H 0.8651 0.3494 0.6367
C17_7 C 0.8122(7) 0.4037(8) 0.7471(16)
H11_7 H 0.7796 0.3761 0.7321
H12_7 H 0.8146 0.4346 0.7271
H13_7 H 0.8169 0.4049 0.8112
C18_7 C 0.9020(6) 0.4350(5) 0.7107(12)
H14_7 H 0.9120 0.4374 0.7726
H15_7 H 0.9051 0.4663 0.6920
H16_7 H 0.9232 0.4276 0.6740
O9_7 O 0.8142(3) 0.0560(3) 0.7644(5)
O10_7 O 0.7988(2) 0.1180(2) 0.7721(4)
O15_7 O 0.8724(3) 0.0160(3) 0.6829(5)
O16_7 O 0.9149(3) 0.0963(3) 0.8169(5)
H17_7 H 0.9420 0.0949 0.8097
H18_7 H 0.9255 0.1269 0.8335
C19_7 C 0.7929(3) 0.0768(4) 0.7945(6)
C20_7 C 0.7552(3) 0.0485(3) 0.8663(6)
C21_7 C 0.7511(4) 0.0047(4) 0.8957(8)
C24_7 C 0.6857(3) 0.0333(3) 0.9576(6)
H21_7 H 0.6638 0.0437 0.9791
C25_7 C 0.7241(3) 0.0639(3) 0.8979(6)
H22_7 H 0.7281 0.0947 0.8801
C26_7 C 0.6361(3) 0.9531(3) 0.0356(6)
C27_7 C 0.6401(3) 0.9243(3) 0.1015(6)
H23_7 H 0.6716 0.9299 0.1188
C28_7 C 0.5983(3) 0.8875(3) 0.1417(6)
C29_7 C 0.5523(3) 0.8792(3) 0.1163(5)
H24_7 H 0.5236 0.8536 0.1436
C30_7 C 0.5477(3) 0.9079(3) 0.0514(6)
C31_7 C 0.5897(3) 0.9459(3) 0.0130(6)
C32_7 C 0.6017(3) 0.8572(3) 0.2166(6)
C33_7 C 0.4975(3) 0.8954(3) 0.0230(5)
N2_7 N 0.8144(5) 0.9367(4) 0.6320(8)
H19_7 H 0.7730 0.9945 0.8742
C22_7 C 0.7147(4) 0.9753(4) 0.9571(8)
H20_7 H 0.7134 0.9466 0.9803
C23_7 C 0.6801(3) 0.9886(3) 0.9841(6)
H25_7 H 0.5870 0.9670 0.9713
C34_7 C 0.8272(6) 0.9798(4) 0.6732(11)
H26_7 H 0.8015 0.9840 0.6967
C35_7 C 0.8544(7) 0.9297(8) 0.5863(16)
H27_7 H 0.8870 0.9573 0.6013
H28_7 H 0.8520 0.8988 0.6063
H29_7 H 0.8497 0.9285 0.5222
C36_7 C 0.7646(6) 0.8984(5) 0.6227(12)
H30_7 H 0.7546 0.8960 0.5608
H31_7 H 0.7615 0.8671 0.6414
H32_7 H 0.7434 0.9058 0.6594
C26_8 C 0.0469(3) 0.6831(4) 0.0356(6)
C27_8 C 0.0757(3) 0.7159(4) 0.1015(6)
H23_8 H 0.0701 0.7418 0.1188
C28_8 C 0.1125(3) 0.7109(4) 0.1417(6)
C29_8 C 0.1208(3) 0.6732(4) 0.1163(5)
H24_8 H 0.1464 0.6701 0.1436
C30_8 C 0.0921(3) 0.6399(4) 0.0514(6)
C31_8 C 0.0541(3) 0.6439(4) 0.0130(6)
C32_8 C 0.1428(3) 0.7446(4) 0.2166(6)
C33_8 C 0.1046(3) 0.6022(4) 0.0230(5)
N2_8 N 0.0633(4) 0.8778(6) 0.6320(8)
H19_8 H 0.0055 0.7786 0.8742
C22_8 C 0.0247(4) 0.7395(6) 0.9571(8)
H20_8 H 0.0534 0.7669 0.9803
C23_8 C 0.0114(3) 0.6916(4) 0.9841(6)
H25_8 H 0.0330 0.6201 0.9713
C34_8 C 0.0202(4) 0.8475(7) 0.6732(11)
H26_8 H 0.0160 0.8176 0.6967
C35_8 C 0.0703(8) 0.9248(11) 0.5863(16)
H27_8 H 0.0427 0.9298 0.6013
H28_8 H 0.1012 0.9533 0.6063
H29_8 H 0.0715 0.9213 0.5222
C36_8 C 0.1016(5) 0.8663(8) 0.6227(12)
H30_8 H 0.1040 0.8587 0.5608
H31_8 H 0.1329 0.8945 0.6414
H32_8 H 0.0942 0.8377 0.6594
O1_8 O 0.7226(3) 0.5751(4) 0.5690(5)
O2_8 O 0.7846(2) 0.6525(3) 0.5613(4)
O7_8 O 0.6826(3) 0.4769(4) 0.6505(5)
O8_8 O 0.7629(3) 0.5147(4) 0.5165(5)
H1_8 H 0.7615 0.4862 0.5237
H2_8 H 0.7935 0.5347 0.4999
N1_8 N 0.6033(4) 0.4556(6) 0.7014(8)
C1_8 C 0.7434(4) 0.6172(5) 0.5389(6)
C2_8 C 0.7151(3) 0.6266(4) 0.4671(6)
C3_8 C 0.6713(4) 0.5869(6) 0.4377(8)
H3_8 H 0.6611 0.5548 0.4592
C4_8 C 0.6419(4) 0.5939(6) 0.3763(8)
H4_8 H 0.6132 0.5665 0.3531
C5_8 C 0.6552(3) 0.6418(4) 0.3493(6)
C6_8 C 0.6999(3) 0.6809(4) 0.3758(6)
H5_8 H 0.7103 0.7132 0.3543
C7_8 C 0.7305(3) 0.6731(4) 0.4355(6)
H6_8 H 0.7613 0.6999 0.4533
C8_8 C 0.6197(3) 0.6503(4) 0.2978(6)
C9_8 C 0.5909(3) 0.6175(4) 0.2319(6)
H7_8 H 0.5965 0.5916 0.2146
C10_8 C 0.5541(3) 0.6225(4) 0.1917(6)
C11_8 C 0.5458(3) 0.6602(4) 0.2171(5)
H8_8 H 0.5202 0.6633 0.1898
C12_8 C 0.5745(3) 0.6935(4) 0.2820(6)
C13_8 C 0.6125(3) 0.6895(4) 0.3204(6)
H9_8 H 0.6336 0.7133 0.3621
C14_8 C 0.5238(3) 0.5888(4) 0.1168(6)
C15_8 C 0.5620(3) 0.7312(4) 0.3104(5)
C16_8 C 0.6464(4) 0.4859(7) 0.6602(11)
H10_8 H 0.6506 0.5158 0.6367
C17_8 C 0.5963(8) 0.4086(11) 0.7471(16)
H11_8 H 0.6239 0.4036 0.7321
H12_8 H 0.5654 0.3801 0.7271
H13_8 H 0.5951 0.4121 0.8112
C18_8 C 0.5650(5) 0.4671(8) 0.7107(12)
H14_8 H 0.5626 0.4747 0.7726
H15_8 H 0.5337 0.4389 0.6920
H16_8 H 0.5724 0.4957 0.6740
O9_8 O 0.9440(3) 0.7583(4) 0.7644(5)
O10_8 O 0.8820(2) 0.6809(3) 0.7721(4)
O15_8 O 0.9840(3) 0.8565(4) 0.6829(5)
O16_8 O 0.9037(3) 0.8187(4) 0.8169(5)
H17_8 H 0.9051 0.8472 0.8097
H18_8 H 0.8731 0.7987 0.8335
C19_8 C 0.9232(4) 0.7162(5) 0.7945(6)
C20_8 C 0.9515(3) 0.7068(4) 0.8663(6)
C21_8 C 0.9953(4) 0.7465(6) 0.8957(8)
C24_8 C 0.9667(3) 0.6525(4) 0.9576(6)
H21_8 H 0.9563 0.6202 0.9791
C25_8 C 0.9361(3) 0.6603(4) 0.8979(6)
H22_8 H 0.9053 0.6335 0.8801
C26_9 C 0.3169(4) 0.3639(3) 0.0356(6)
C27_9 C 0.2841(4) 0.3599(3) 0.1015(6)
H23_9 H 0.2582 0.3284 0.1188
C28_9 C 0.2891(4) 0.4017(3) 0.1417(6)
C29_9 C 0.3268(4) 0.4477(3) 0.1163(5)
H24_9 H 0.3299 0.4764 0.1436
C30_9 C 0.3601(4) 0.4523(3) 0.0514(6)
C31_9 C 0.3561(4) 0.4103(3) 0.0130(6)
C32_9 C 0.2554(4) 0.3983(3) 0.2166(6)
C33_9 C 0.3978(4) 0.5025(3) 0.0230(5)
O1_9 O 0.4249(4) 0.1476(3) 0.5690(5)
O2_9 O 0.3475(3) 0.1322(2) 0.5613(4)
O7_9 O 0.5231(4) 0.2058(3) 0.6505(5)
O8_9 O 0.4853(4) 0.2483(3) 0.5165(5)
H1_9 H 0.5138 0.2754 0.5237
H2_9 H 0.4653 0.2589 0.4999
N1_9 N 0.5444(6) 0.1478(5) 0.7014(8)
C1_9 C 0.3828(5) 0.1263(3) 0.5389(6)
C2_9 C 0.3734(4) 0.0886(3) 0.4671(6)
C3_9 C 0.4131(6) 0.0845(4) 0.4377(8)
H3_9 H 0.4452 0.1064 0.4592
C4_9 C 0.4061(6) 0.0481(4) 0.3763(8)
H4_9 H 0.4335 0.0468 0.3531
C5_9 C 0.3582(4) 0.0135(3) 0.3493(6)
C6_9 C 0.3191(4) 0.0191(3) 0.3758(6)
C7_9 C 0.3269(4) 0.0575(3) 0.4355(6)
H6_9 H 0.3001 0.0615 0.4533
H7_9 H 0.4084 0.0050 0.2146
C16_9 C 0.5141(7) 0.1606(6) 0.6602(11)
H10_9 H 0.4842 0.1349 0.6367
C17_9 C 0.5914(11) 0.1878(7) 0.7471(16)
H11_9 H 0.5964 0.2204 0.7321
H12_9 H 0.6199 0.1854 0.7271
H13_9 H 0.5879 0.1831 0.8112
C18_9 C 0.5329(8) 0.0980(6) 0.7107(12)
H14_9 H 0.5253 0.0880 0.7726
H15_9 H 0.5611 0.0949 0.6920
H16_9 H 0.5043 0.0768 0.6740
O9_9 O 0.2417(4) 0.1858(3) 0.7644(5)
O10_9 O 0.3191(3) 0.2012(2) 0.7721(4)
O15_9 O 0.1435(4) 0.1276(3) 0.6829(5)
O16_9 O 0.1813(4) 0.0851(3) 0.8169(5)
H17_9 H 0.1528 0.0580 0.8097
H18_9 H 0.2013 0.0745 0.8335
N2_9 N 0.1222(6) 0.1856(5) 0.6320(8)
C19_9 C 0.2838(5) 0.2071(3) 0.7945(6)
C20_9 C 0.2932(4) 0.2448(3) 0.8663(6)
C21_9 C 0.2535(6) 0.2489(4) 0.8957(8)
H19_9 H 0.2214 0.2270 0.8742
C22_9 C 0.2605(6) 0.2853(4) 0.9571(8)
H20_9 H 0.2331 0.2866 0.9803
C23_9 C 0.3084(4) 0.3199(3) 0.9841(6)
C24_9 C 0.3475(4) 0.3143(3) 0.9576(6)
H21_9 H 0.3798 0.3362 0.9791
C25_9 C 0.3397(4) 0.2759(3) 0.8979(6)
H22_9 H 0.3665 0.2719 0.8801
H25_9 H 0.3799 0.4130 0.9713
C34_9 C 0.1525(7) 0.1728(6) 0.6732(11)
H26_9 H 0.1824 0.1985 0.6967
C35_9 C 0.0752(11) 0.1456(7) 0.5863(16)
H27_9 H 0.0702 0.1130 0.6013
H28_9 H 0.0467 0.1480 0.6063
H29_9 H 0.0787 0.1503 0.5222
C36_9 C 0.1337(8) 0.2354(6) 0.6227(12)
H30_9 H 0.1413 0.2454 0.5608
H31_9 H 0.1055 0.2385 0.6414
H32_9 H 0.1623 0.2566 0.6594
H5_9 H 0.2868 0.9972 0.3543
C8_9 C 0.3497(4) 0.9695(3) 0.2978(6)
C9_9 C 0.3825(4) 0.9735(3) 0.2319(6)
C10_9 C 0.3775(4) 0.9317(3) 0.1917(6)
C11_9 C 0.3398(4) 0.8857(3) 0.2171(5)
H8_9 H 0.3367 0.8570 0.1898
C12_9 C 0.3065(4) 0.8811(3) 0.2820(6)
C13_9 C 0.3105(4) 0.9231(3) 0.3204(6)
H9_9 H 0.2867 0.9204 0.3621
C14_9 C 0.4112(4) 0.9351(3) 0.1168(6)
C15_9 C 0.2688(4) 0.8309(3) 0.3104(5)
loop_
_geom_bond_atom_site_label_1
_geom_bond_atom_site_label_2
_geom_bond_site_symmetry_1
_geom_bond_site_symmetry_2
C17 N1 1_555 1_555
H11 C17 1_555 1_555
H12 C17 1_555 1_555
H13 C17 1_555 1_555
C18 N1 1_555 1_555
H14 C18 1_555 1_555
H15 C18 1_555 1_555
H16 C18 1_555 1_555
Ni2 O9 1_555 1_555
O9 C19 1_555 1_555
O10 Fe1 1_555 1_555
O11 C32 1_555 1_555
O12 C32 1_555 1_555
O13 C33 1_555 1_555
O14 C33 1_555 1_555
O15 Ni2 1_555 1_555
O16 Ni2 1_555 1_555
H17 O16 1_555 1_555
H18 O16 1_555 1_555
C19 O10 1_555 1_555
C20 C19 1_555 1_555
C21 C20 1_555 1_555
H19 C21 1_555 1_555
C22 C21 1_555 1_555
H20 C22 1_555 1_555
C23 C22 1_555 1_555
C24 C23 1_555 1_555
H21 C24 1_555 1_555
C25 C20 1_555 1_555
H22 C25 1_555 1_555
C26 C23 1_555 1_555
C27 C26 1_555 1_555
H23 C27 1_555 1_555
C28 C27 1_555 1_555
C29 C28 1_555 1_555
H24 C29 1_555 1_555
C30 C29 1_555 1_555
C31 C26 1_555 1_555
H25 C31 1_555 1_555
C32 C28 1_555 1_555
C33 C30 1_555 1_555
C34 O15 1_555 1_555
H26 C34 1_555 1_555
Ni3 O13 1_555 1_555
Ni6 O12 1_555 1_555
Fe2 O14 1_555 1_555
Fe5 O11 1_555 1_555
O17 Fe1 1_555 1_555
O23 Fe1 1_555 1_555
Ni2 O23 1_555 1_555
O14 Ni3 1_555 1_555
C24 C25 1_555 1_555
C30 C31 1_555 1_555
Ni1 O1 1_555 1_555
Fe1_2 O2 1_555 1_555
O1 C1 1_555 1_555
O2 C1 1_555 1_555
O3 C14 1_555 1_555
O4 C14 1_555 1_555
O5 C15 1_555 1_555
O6 C15 1_555 1_555
O7 Ni1 1_555 1_555
O8 Ni1 1_555 1_555
H1 O8 1_555 1_555
H2 O8 1_555 1_555
C1 C2 1_555 1_555
C2 C3 1_555 1_555
C3 H3 1_555 1_555
C4 C3 1_555 1_555
H4 C4 1_555 1_555
C5 C4 1_555 1_555
C6 C5 1_555 1_555
H5 C6 1_555 1_555
C7 C2 1_555 1_555
H6 C7 1_555 1_555
C8 C5 1_555 1_555
C9 C8 1_555 1_555
H7 C9 1_555 1_555
C10 C9 1_555 1_555
C11 C10 1_555 1_555
H8 C11 1_555 1_555
C12 C11 1_555 1_555
C13 C8 1_555 1_555
H9 C13 1_555 1_555
C14 C10 1_555 1_555
C15 C12 1_555 1_555
C16 O7 1_555 1_555
H10 C16 1_555 1_555
C35 N2 1_555 1_555
H27 C35 1_555 1_555
H28 C35 1_555 1_555
H29 C35 1_555 1_555
C36 N2 1_555 1_555
H30 C36 1_555 1_555
H31 C36 1_555 1_555
H32 C36 1_555 1_555
Ni4 O4 1_555 1_555
Ni5 O5 1_555 1_555
Fe3 O3 1_555 1_555
Fe4 O6 1_555 1_555
O18 Fe1_2 1_555 1_555
O24 Ni1 1_555 1_555
Fe1_2 O24 1_555 1_555
O6 Ni5 1_555 1_555
C6 C7 1_555 1_555
C12 C13 1_555 1_555
Ni2_2 O9_2 1_555 1_555
O9_2 C19_2 1_555 1_555
O10_2 Fe1_3 1_555 1_555
O11_2 C32_2 1_555 1_555
O12_2 C32_2 1_555 1_555
O15_2 Ni2_2 1_555 1_555
O16_2 Ni2_2 1_555 1_555
H17_2 O16_2 1_555 1_555
H18_2 O16_2 1_555 1_555
C19_2 O10_2 1_555 1_555
C20_2 C19_2 1_555 1_555
C21_2 C20_2 1_555 1_555
H19_2 C21_2 1_555 1_555
C22_2 C21_2 1_555 1_555
H20_2 C22_2 1_555 1_555
C23_2 C22_2 1_555 1_555
C26_2 C23_2 1_555 1_555
C27_2 C26_2 1_555 1_555
H23_2 C27_2 1_555 1_555
C28_2 C27_2 1_555 1_555
C29_2 C28_2 1_555 1_555
H24_2 C29_2 1_555 1_555
C32_2 C28_2 1_555 1_555
C34_2 O15_2 1_555 1_555
H26_2 C34_2 1_555 1_555
Ni6_2 O12_2 1_555 1_555
Fe5_2 O11_2 1_555 1_555
O23_2 Fe1_3 1_555 1_555
Ni2_2 O23_2 1_555 1_555
O5_2 C15_2 1_555 1_555
O6_2 C15_2 1_555 1_555
H5_2 C6_2 1_555 1_555
H6_2 C7_2 1_555 1_555
H9_2 C13_2 1_555 1_555
C15_2 C12_2 1_555 1_555
C35_2 N2_2 1_555 1_555
H27_2 C35_2 1_555 1_555
H28_2 C35_2 1_555 1_555
H29_2 C35_2 1_555 1_555
C36_2 N2_2 1_555 1_555
H30_2 C36_2 1_555 1_555
H31_2 C36_2 1_555 1_555
H32_2 C36_2 1_555 1_555
Ni6 O5_2 1_555 1_555
Fe5 O6_2 1_555 1_555
O18_2 Fe1_4 1_555 1_555
O6_2 Ni6 1_555 1_555
C6_2 C7_2 1_555 1_555
C12_2 C13_2 1_555 1_555
C17_2 N1_2 1_555 1_555
H11_2 C17_2 1_555 1_555
H12_2 C17_2 1_555 1_555
H13_2 C17_2 1_555 1_555
C18_2 N1_2 1_555 1_555
H14_2 C18_2 1_555 1_555
H15_2 C18_2 1_555 1_555
H16_2 C18_2 1_555 1_555
O13_2 C33_2 1_555 1_555
O14_2 C33_2 1_555 1_555
H21_2 C24_2 1_555 1_555
H22_2 C25_2 1_555 1_555
H25_2 C31_2 1_555 1_555
C33_2 C30_2 1_555 1_555
Ni4 O13_2 1_555 1_555
Fe3 O14_2 1_555 1_555
O17_2 Fe1_5 1_555 1_555
O14_2 Ni4 1_555 1_555
C24_2 C25_2 1_555 1_555
C30_2 C31_2 1_555 1_555
Ni1_2 O1_2 1_555 1_555
Fe1_6 O2_2 1_555 1_555
O1_2 C1_2 1_555 1_555
O2_2 C1_2 1_555 1_555
O3_2 C14_2 1_555 1_555
O4_2 C14_2 1_555 1_555
O7_2 Ni1_2 1_555 1_555
O8_2 Ni1_2 1_555 1_555
H1_2 O8_2 1_555 1_555
H2_2 O8_2 1_555 1_555
C1_2 C2_2 1_555 1_555
C2_2 C3_2 1_555 1_555
C3_2 H3_2 1_555 1_555
C4_2 C3_2 1_555 1_555
H4_2 C4_2 1_555 1_555
C5_2 C4_2 1_555 1_555
C8_2 C5_2 1_555 1_555
C9_2 C8_2 1_555 1_555
H7_2 C9_2 1_555 1_555
C10_2 C9_2 1_555 1_555
C11_2 C10_2 1_555 1_555
H8_2 C11_2 1_555 1_555
C14_2 C10_2 1_555 1_555
C16_2 O7_2 1_555 1_555
H10_2 C16_2 1_555 1_555
Ni4_2 O4_2 1_555 1_555
Fe3_2 O3_2 1_555 1_555
O24_2 Ni1_2 1_555 1_555
Fe1_6 O24_2 1_555 1_555
C17_3 N1_3 1_555 1_555
H11_3 C17_3 1_555 1_555
H12_3 C17_3 1_555 1_555
H13_3 C17_3 1_555 1_555
C18_3 N1_3 1_555 1_555
H14_3 C18_3 1_555 1_555
H15_3 C18_3 1_555 1_555
H16_3 C18_3 1_555 1_555
O13_3 C33_3 1_555 1_555
O14_3 C33_3 1_555 1_555
H21_3 C24_3 1_555 1_555
H22_3 C25_3 1_555 1_555
H25_3 C31_3 1_555 1_555
C33_3 C30_3 1_555 1_555
Ni4_2 O13_3 1_555 1_555
Fe3_2 O14_3 1_555 1_555
O17_3 Fe1_7 1_555 1_555
O14_3 Ni4_2 1_555 1_555
C24_3 C25_3 1_555 1_555
C30_3 C31_3 1_555 1_555
Ni1_3 O1_3 1_555 1_555
Fe1_8 O2_3 1_555 1_555
O1_3 C1_3 1_555 1_555
O2_3 C1_3 1_555 1_555
O3_3 C14_3 1_555 1_555
O4_3 C14_3 1_555 1_555
O7_3 Ni1_3 1_555 1_555
O8_3 Ni1_3 1_555 1_555
H1_3 O8_3 1_555 1_555
H2_3 O8_3 1_555 1_555
C1_3 C2_3 1_555 1_555
C2_3 C3_3 1_555 1_555
C3_3 H3_3 1_555 1_555
C4_3 C3_3 1_555 1_555
H4_3 C4_3 1_555 1_555
C5_3 C4_3 1_555 1_555
C8_3 C5_3 1_555 1_555
C9_3 C8_3 1_555 1_555
H7_3 C9_3 1_555 1_555
C10_3 C9_3 1_555 1_555
C11_3 C10_3 1_555 1_555
H8_3 C11_3 1_555 1_555
C14_3 C10_3 1_555 1_555
C16_3 O7_3 1_555 1_555
H10_3 C16_3 1_555 1_555
Ni3 O4_3 1_555 1_555
Fe2 O3_3 1_555 1_555
O24_3 Ni1_3 1_555 1_555
Fe1_8 O24_3 1_555 1_555
Ni2_3 O9_3 1_555 1_555
O9_3 C19_3 1_555 1_555
O10_3 Fe1_9 1_555 1_555
O11_3 C32_3 1_555 1_555
O12_3 C32_3 1_555 1_555
O15_3 Ni2_3 1_555 1_555
O16_3 Ni2_3 1_555 1_555
H17_3 O16_3 1_555 1_555
H18_3 O16_3 1_555 1_555
C19_3 O10_3 1_555 1_555
C20_3 C19_3 1_555 1_555
C21_3 C20_3 1_555 1_555
H19_3 C21_3 1_555 1_555
C22_3 C21_3 1_555 1_555
H20_3 C22_3 1_555 1_555
C23_3 C22_3 1_555 1_555
C26_3 C23_3 1_555 1_555
C27_3 C26_3 1_555 1_555
H23_3 C27_3 1_555 1_555
C28_3 C27_3 1_555 1_555
C29_3 C28_3 1_555 1_555
H24_3 C29_3 1_555 1_555
C32_3 C28_3 1_555 1_555
C34_3 O15_3 1_555 1_555
H26_3 C34_3 1_555 1_555
Ni5 O12_3 1_555 1_555
Fe4 O11_3 1_555 1_555
O23_3 Fe1_9 1_555 1_555
Ni2_3 O23_3 1_555 1_555
O5_3 C15_3 1_555 1_555
O6_3 C15_3 1_555 1_555
H5_3 C6_3 1_555 1_555
H6_3 C7_3 1_555 1_555
H9_3 C13_3 1_555 1_555
C15_3 C12_3 1_555 1_555
C35_3 N2_3 1_555 1_555
H27_3 C35_3 1_555 1_555
H28_3 C35_3 1_555 1_555
H29_3 C35_3 1_555 1_555
C36_3 N2_3 1_555 1_555
H30_3 C36_3 1_555 1_555
H31_3 C36_3 1_555 1_555
H32_3 C36_3 1_555 1_555
Ni6_2 O5_3 1_555 1_555
Fe5_2 O6_3 1_555 1_555
O18_3 Fe1_10 1_555 1_555
O6_3 Ni6_2 1_555 1_555
C6_3 C7_3 1_555 1_555
C12_3 C13_3 1_555 1_555
N1_4 C16_4 1_555 1_555
H4_4 C4_4 1_555 1_555
C5_4 C4_4 1_555 1_555
H10_4 C16_4 1_555 1_555
C17_4 N1_4 1_555 1_555
H11_4 C17_4 1_555 1_555
H12_4 C17_4 1_555 1_555
H13_4 C17_4 1_555 1_555
C18_4 N1_4 1_555 1_555
H14_4 C18_4 1_555 1_555
H15_4 C18_4 1_555 1_555
H16_4 C18_4 1_555 1_555
O3_4 C14_4 1_555 1_555
O4_4 C14_4 1_555 1_555
O21_2 C15_4 1_555 1_555
C9_4 C8_4 1_555 1_555
H7_4 C9_4 1_555 1_555
C10_4 C9_4 1_555 1_555
C11_4 C10_4 1_555 1_555
H8_4 C11_4 1_555 1_555
C12_4 C11_4 1_555 1_555
C13_4 C8_4 1_555 1_555
C14_4 C10_4 1_555 1_555
C15_4 C12_4 1_555 1_555
Ni4_3 O4_4 1_555 1_555
Fe5 O3_4 1_555 1_555
C12_4 C13_4 1_555 1_555
Ni4_2 O1_4 1_555 1_555
Fe3_2 O2_4 1_555 1_555
O1_4 C1_4 1_555 1_555
O2_4 C1_4 1_555 1_555
O7_4 Ni4_2 1_555 1_555
O8_4 Ni4_2 1_555 1_555
H1_4 O8_4 1_555 1_555
H2_4 O8_4 1_555 1_555
C1_4 C2_4 1_555 1_555
C2_4 C3_4 1_555 1_555
H5_4 C6_4 1_555 1_555
C7_4 C2_4 1_555 1_555
H6_4 C7_4 1_555 1_555
Ni2_4 O9_4 1_555 1_555
O9_4 C19_4 1_555 1_555
O10_4 Fe3_2 1_555 1_555
O15_4 Ni2_4 1_555 1_555
O16_4 Ni2_4 1_555 1_555
H17_4 O16_4 1_555 1_555
H18_4 O16_4 1_555 1_555
N2_4 C34_4 1_555 1_555
C19_4 O10_4 1_555 1_555
C20_4 C19_4 1_555 1_555
C21_4 C20_4 1_555 1_555
H19_4 C21_4 1_555 1_555
C22_4 C21_4 1_555 1_555
H20_4 C22_4 1_555 1_555
C23_4 C22_4 1_555 1_555
C24_4 C23_4 1_555 1_555
C25_4 C20_4 1_555 1_555
H22_4 C25_4 1_555 1_555
C34_4 O15_4 1_555 1_555
H26_4 C34_4 1_555 1_555
C35_4 N2_4 1_555 1_555
H27_4 C35_4 1_555 1_555
H28_4 C35_4 1_555 1_555
H29_4 C35_4 1_555 1_555
C36_4 N2_4 1_555 1_555
H30_4 C36_4 1_555 1_555
H31_4 C36_4 1_555 1_555
H32_4 C36_4 1_555 1_555
O18_4 Fe3_2 1_555 1_555
O20_4 Ni2_4 1_555 1_555
O21_4 Ni2_4 1_555 1_555
O23_4 Fe3_2 1_555 1_555
C6_4 C7_4 1_555 1_555
Ni2_4 O23_4 1_555 1_555
C24_4 C25_4 1_555 1_555
O18_3 C32_4 1_555 1_555
O20_3 C32_4 1_555 1_555
O13_4 C33_4 1_555 1_555
O14_4 C33_4 1_555 1_555
C27_4 C26_4 1_555 1_555
C28_4 C27_4 1_555 1_555
C29_4 C28_4 1_555 1_555
H24_4 C29_4 1_555 1_555
C30_4 C29_4 1_555 1_555
C31_4 C26_4 1_555 1_555
H25_4 C31_4 1_555 1_555
C32_4 C28_4 1_555 1_555
C33_4 C30_4 1_555 1_555
Ni3_2 O13_4 1_555 1_555
Fe4 O14_4 1_555 1_555
O14_4 Ni3_2 1_555 1_555
C30_4 C31_4 1_555 1_555
Ni3 O1_5 1_555 1_555
Fe2 O2_5 1_555 1_555
O1_5 C1_5 1_555 1_555
O2_5 C1_5 1_555 1_555
O7_5 Ni3 1_555 1_555
O8_5 Ni3 1_555 1_555
H1_5 O8_5 1_555 1_555
H2_5 O8_5 1_555 1_555
C1_5 C2_5 1_555 1_555
C2_5 C3_5 1_555 1_555
H5_5 C6_5 1_555 1_555
C7_5 C2_5 1_555 1_555
H6_5 C7_5 1_555 1_555
Ni2_5 O9_5 1_555 1_555
O9_5 C19_5 1_555 1_555
O10_5 Fe2 1_555 1_555
O18 C32_5 1_555 1_555
O20 C32_5 1_555 1_555
O13_5 C33_5 1_555 1_555
O14_5 C33_5 1_555 1_555
O15_5 Ni2_5 1_555 1_555
O16_5 Ni2_5 1_555 1_555
H17_5 O16_5 1_555 1_555
H18_5 O16_5 1_555 1_555
N2_5 C34_5 1_555 1_555
C19_5 O10_5 1_555 1_555
C20_5 C19_5 1_555 1_555
C21_5 C20_5 1_555 1_555
H19_5 C21_5 1_555 1_555
C22_5 C21_5 1_555 1_555
H20_5 C22_5 1_555 1_555
C23_5 C22_5 1_555 1_555
C24_5 C23_5 1_555 1_555
H21_5 C24_5 1_555 1_555
C25_5 C20_5 1_555 1_555
H22_5 C25_5 1_555 1_555
C26_5 C23_5 1_555 1_555
C27_5 C26_5 1_555 1_555
H23_5 C27_5 1_555 1_555
C28_5 C27_5 1_555 1_555
C29_5 C28_5 1_555 1_555
H24_5 C29_5 1_555 1_555
C30_5 C29_5 1_555 1_555
C31_5 C26_5 1_555 1_555
H25_5 C31_5 1_555 1_555
C32_5 C28_5 1_555 1_555
C33_5 C30_5 1_555 1_555
C34_5 O15_5 1_555 1_555
H26_5 C34_5 1_555 1_555
C35_5 N2_5 1_555 1_555
H27_5 C35_5 1_555 1_555
H28_5 C35_5 1_555 1_555
H29_5 C35_5 1_555 1_555
C36_5 N2_5 1_555 1_555
H30_5 C36_5 1_555 1_555
H31_5 C36_5 1_555 1_555
H32_5 C36_5 1_555 1_555
Ni4_3 O13_5 1_555 1_555
Fe5 O14_5 1_555 1_555
O18_5 Fe2 1_555 1_555
O20_5 Ni2_5 1_555 1_555
O21_5 Ni2_5 1_555 1_555
O23_5 Fe2 1_555 1_555
C6_5 C7_5 1_555 1_555
Ni2_5 O23_5 1_555 1_555
O14_5 Ni4_3 1_555 1_555
C24_5 C25_5 1_555 1_555
C30_5 C31_5 1_555 1_555
N1_5 C16_5 1_555 1_555
H4_5 C4_5 1_555 1_555
C5_5 C4_5 1_555 1_555
H10_5 C16_5 1_555 1_555
C17_5 N1_5 1_555 1_555
H11_5 C17_5 1_555 1_555
H12_5 C17_5 1_555 1_555
H13_5 C17_5 1_555 1_555
C18_5 N1_5 1_555 1_555
H14_5 C18_5 1_555 1_555
H15_5 C18_5 1_555 1_555
H16_5 C18_5 1_555 1_555
O3_5 C14_5 1_555 1_555
O4_5 C14_5 1_555 1_555
O21_3 C15_5 1_555 1_555
C9_5 C8_5 1_555 1_555
H7_5 C9_5 1_555 1_555
C10_5 C9_5 1_555 1_555
C11_5 C10_5 1_555 1_555
H8_5 C11_5 1_555 1_555
C12_5 C11_5 1_555 1_555
C13_5 C8_5 1_555 1_555
C14_5 C10_5 1_555 1_555
C15_5 C12_5 1_555 1_555
Ni4_4 O4_5 1_555 1_555
Fe5_2 O3_5 1_555 1_555
C12_5 C13_5 1_555 1_555
O18_2 C32_6 1_555 1_555
O20_2 C32_6 1_555 1_555
O13_6 C33_6 1_555 1_555
O14_6 C33_6 1_555 1_555
C27_6 C26_6 1_555 1_555
C28_6 C27_6 1_555 1_555
C29_6 C28_6 1_555 1_555
H24_6 C29_6 1_555 1_555
C30_6 C29_6 1_555 1_555
C31_6 C26_6 1_555 1_555
H25_6 C31_6 1_555 1_555
C32_6 C28_6 1_555 1_555
C33_6 C30_6 1_555 1_555
Ni4_4 O13_6 1_555 1_555
Fe5_2 O14_6 1_555 1_555
O14_6 Ni4_4 1_555 1_555
C30_6 C31_6 1_555 1_555
Ni4 O1_6 1_555 1_555
Fe3 O2_6 1_555 1_555
O1_6 C1_6 1_555 1_555
O2_6 C1_6 1_555 1_555
O7_6 Ni4 1_555 1_555
O8_6 Ni4 1_555 1_555
H1_6 O8_6 1_555 1_555
H2_6 O8_6 1_555 1_555
N1_6 C16_6 1_555 1_555
C1_6 C2_6 1_555 1_555
C2_6 C3_6 1_555 1_555
C3_6 H3_6 1_555 1_555
C4_6 C3_6 1_555 1_555
H4_6 C4_6 1_555 1_555
C5_6 C4_6 1_555 1_555
C6_6 C5_6 1_555 1_555
H5_6 C6_6 1_555 1_555
C7_6 C2_6 1_555 1_555
H6_6 C7_6 1_555 1_555
C16_6 O7_6 1_555 1_555
H10_6 C16_6 1_555 1_555
C17_6 N1_6 1_555 1_555
H11_6 C17_6 1_555 1_555
H12_6 C17_6 1_555 1_555
H13_6 C17_6 1_555 1_555
C18_6 N1_6 1_555 1_555
H14_6 C18_6 1_555 1_555
H15_6 C18_6 1_555 1_555
H16_6 C18_6 1_555 1_555
Ni2_6 O9_6 1_555 1_555
O9_6 C19_6 1_555 1_555
O10_6 Fe3 1_555 1_555
O15_6 Ni2_6 1_555 1_555
O16_6 Ni2_6 1_555 1_555
H17_6 O16_6 1_555 1_555
H18_6 O16_6 1_555 1_555
N2_6 C34_6 1_555 1_555
C19_6 O10_6 1_555 1_555
C20_6 C19_6 1_555 1_555
C21_6 C20_6 1_555 1_555
H19_6 C21_6 1_555 1_555
C22_6 C21_6 1_555 1_555
H20_6 C22_6 1_555 1_555
C23_6 C22_6 1_555 1_555
C24_6 C23_6 1_555 1_555
C25_6 C20_6 1_555 1_555
H22_6 C25_6 1_555 1_555
C34_6 O15_6 1_555 1_555
H26_6 C34_6 1_555 1_555
C35_6 N2_6 1_555 1_555
H27_6 C35_6 1_555 1_555
H28_6 C35_6 1_555 1_555
H29_6 C35_6 1_555 1_555
C36_6 N2_6 1_555 1_555
H30_6 C36_6 1_555 1_555
H31_6 C36_6 1_555 1_555
H32_6 C36_6 1_555 1_555
O18_6 Fe3 1_555 1_555
O20_6 Ni2_6 1_555 1_555
O21_6 Ni2_6 1_555 1_555
O23_6 Fe3 1_555 1_555
C6_6 C7_6 1_555 1_555
Ni2_6 O23_6 1_555 1_555
C24_6 C25_6 1_555 1_555
O3_6 C14_6 1_555 1_555
O4_6 C14_6 1_555 1_555
O21 C15_6 1_555 1_555
C9_6 C8_6 1_555 1_555
H7_6 C9_6 1_555 1_555
C10_6 C9_6 1_555 1_555
C11_6 C10_6 1_555 1_555
H8_6 C11_6 1_555 1_555
C12_6 C11_6 1_555 1_555
C13_6 C8_6 1_555 1_555
C14_6 C10_6 1_555 1_555
C15_6 C12_6 1_555 1_555
Ni3_2 O4_6 1_555 1_555
Fe4 O3_6 1_555 1_555
C12_6 C13_6 1_555 1_555
O17_3 C14_7 1_555 1_555
O19_3 C14_7 1_555 1_555
O21_5 C15_7 1_555 1_555
O23_5 C15_7 1_555 1_555
C9_7 C8_7 1_555 1_555
C10_7 C9_7 1_555 1_555
C11_7 C10_7 1_555 1_555
H8_7 C11_7 1_555 1_555
C12_7 C11_7 1_555 1_555
C13_7 C8_7 1_555 1_555
H9_7 C13_7 1_555 1_555
C14_7 C10_7 1_555 1_555
C15_7 C12_7 1_555 1_555
C12_7 C13_7 1_555 1_555
Ni4_4 O1_7 1_555 1_555
Fe5_2 O2_7 1_555 1_555
O1_7 C1_7 1_555 1_555
O2_7 C1_7 1_555 1_555
O7_7 Ni4_4 1_555 1_555
O8_7 Ni4_4 1_555 1_555
H1_7 O8_7 1_555 1_555
H2_7 O8_7 1_555 1_555
N1_7 C16_7 1_555 1_555
C1_7 C2_7 1_555 1_555
C2_7 C3_7 1_555 1_555
C3_7 H3_7 1_555 1_555
C4_7 C3_7 1_555 1_555
H4_7 C4_7 1_555 1_555
C5_7 C4_7 1_555 1_555
C6_7 C5_7 1_555 1_555
C7_7 C2_7 1_555 1_555
H6_7 C7_7 1_555 1_555
C16_7 O7_7 1_555 1_555
H10_7 C16_7 1_555 1_555
C17_7 N1_7 1_555 1_555
H11_7 C17_7 1_555 1_555
H12_7 C17_7 1_555 1_555
H13_7 C17_7 1_555 1_555
C18_7 N1_7 1_555 1_555
H14_7 C18_7 1_555 1_555
H15_7 C18_7 1_555 1_555
H16_7 C18_7 1_555 1_555
Ni6_2 O9_7 1_555 1_555
O9_7 C19_7 1_555 1_555
O10_7 Fe5_2 1_555 1_555
O15_7 Ni6_2 1_555 1_555
O16_7 Ni6_2 1_555 1_555
H17_7 O16_7 1_555 1_555
H18_7 O16_7 1_555 1_555
C19_7 O10_7 1_555 1_555
C20_7 C19_7 1_555 1_555
C21_7 C20_7 1_555 1_555
H21_7 C24_7 1_555 1_555
C25_7 C20_7 1_555 1_555
H22_7 C25_7 1_555 1_555
C6_7 C7_7 1_555 1_555
C24_7 C25_7 1_555 1_555
O18_6 C32_7 1_555 1_555
O20_6 C32_7 1_555 1_555
O22_2 C33_7 1_555 1_555
C27_7 C26_7 1_555 1_555
H23_7 C27_7 1_555 1_555
C28_7 C27_7 1_555 1_555
C29_7 C28_7 1_555 1_555
H24_7 C29_7 1_555 1_555
C30_7 C29_7 1_555 1_555
C31_7 C26_7 1_555 1_555
C32_7 C28_7 1_555 1_555
C33_7 C30_7 1_555 1_555
C30_7 C31_7 1_555 1_555
N2_7 C34_7 1_555 1_555
H20_7 C22_7 1_555 1_555
C23_7 C22_7 1_555 1_555
H26_7 C34_7 1_555 1_555
C35_7 N2_7 1_555 1_555
H27_7 C35_7 1_555 1_555
H28_7 C35_7 1_555 1_555
H29_7 C35_7 1_555 1_555
C36_7 N2_7 1_555 1_555
H30_7 C36_7 1_555 1_555
H31_7 C36_7 1_555 1_555
H32_7 C36_7 1_555 1_555
O18_4 C32_8 1_555 1_555
O20_4 C32_8 1_555 1_555
O22_3 C33_8 1_555 1_555
C27_8 C26_8 1_555 1_555
H23_8 C27_8 1_555 1_555
C28_8 C27_8 1_555 1_555
C29_8 C28_8 1_555 1_555
H24_8 C29_8 1_555 1_555
C30_8 C29_8 1_555 1_555
C31_8 C26_8 1_555 1_555
C32_8 C28_8 1_555 1_555
C33_8 C30_8 1_555 1_555
C30_8 C31_8 1_555 1_555
N2_8 C34_8 1_555 1_555
H20_8 C22_8 1_555 1_555
C23_8 C22_8 1_555 1_555
H26_8 C34_8 1_555 1_555
C35_8 N2_8 1_555 1_555
H27_8 C35_8 1_555 1_555
H28_8 C35_8 1_555 1_555
H29_8 C35_8 1_555 1_555
C36_8 N2_8 1_555 1_555
H30_8 C36_8 1_555 1_555
H31_8 C36_8 1_555 1_555
H32_8 C36_8 1_555 1_555
Ni3_2 O1_8 1_555 1_555
Fe4 O2_8 1_555 1_555
O1_8 C1_8 1_555 1_555
O2_8 C1_8 1_555 1_555
O17 C14_8 1_555 1_555
O19 C14_8 1_555 1_555
O21_6 C15_8 1_555 1_555
O23_6 C15_8 1_555 1_555
O7_8 Ni3_2 1_555 1_555
O8_8 Ni3_2 1_555 1_555
H1_8 O8_8 1_555 1_555
H2_8 O8_8 1_555 1_555
N1_8 C16_8 1_555 1_555
C1_8 C2_8 1_555 1_555
C2_8 C3_8 1_555 1_555
C3_8 H3_8 1_555 1_555
C4_8 C3_8 1_555 1_555
H4_8 C4_8 1_555 1_555
C5_8 C4_8 1_555 1_555
C6_8 C5_8 1_555 1_555
H5_8 C6_8 1_555 1_555
C7_8 C2_8 1_555 1_555
H6_8 C7_8 1_555 1_555
C8_8 C5_8 1_555 1_555
C9_8 C8_8 1_555 1_555
H7_8 C9_8 1_555 1_555
C10_8 C9_8 1_555 1_555
C11_8 C10_8 1_555 1_555
H8_8 C11_8 1_555 1_555
C12_8 C11_8 1_555 1_555
C13_8 C8_8 1_555 1_555
H9_8 C13_8 1_555 1_555
C14_8 C10_8 1_555 1_555
C15_8 C12_8 1_555 1_555
C16_8 O7_8 1_555 1_555
H10_8 C16_8 1_555 1_555
C17_8 N1_8 1_555 1_555
H11_8 C17_8 1_555 1_555
H12_8 C17_8 1_555 1_555
H13_8 C17_8 1_555 1_555
C18_8 N1_8 1_555 1_555
H14_8 C18_8 1_555 1_555
H15_8 C18_8 1_555 1_555
H16_8 C18_8 1_555 1_555
Ni5 O9_8 1_555 1_555
O9_8 C19_8 1_555 1_555
O10_8 Fe4 1_555 1_555
O15_8 Ni5 1_555 1_555
O16_8 Ni5 1_555 1_555
H17_8 O16_8 1_555 1_555
H18_8 O16_8 1_555 1_555
C19_8 O10_8 1_555 1_555
C20_8 C19_8 1_555 1_555
C21_8 C20_8 1_555 1_555
H21_8 C24_8 1_555 1_555
C25_8 C20_8 1_555 1_555
H22_8 C25_8 1_555 1_555
C6_8 C7_8 1_555 1_555
C12_8 C13_8 1_555 1_555
C24_8 C25_8 1_555 1_555
O18_5 C32_9 1_555 1_555
O20_5 C32_9 1_555 1_555
O22 C33_9 1_555 1_555
C27_9 C26_9 1_555 1_555
H23_9 C27_9 1_555 1_555
C28_9 C27_9 1_555 1_555
C29_9 C28_9 1_555 1_555
H24_9 C29_9 1_555 1_555
C30_9 C29_9 1_555 1_555
C31_9 C26_9 1_555 1_555
C32_9 C28_9 1_555 1_555
C33_9 C30_9 1_555 1_555
C30_9 C31_9 1_555 1_555
Ni4_3 O1_9 1_555 1_555
Fe5 O2_9 1_555 1_555
O1_9 C1_9 1_555 1_555
O2_9 C1_9 1_555 1_555
O7_9 Ni4_3 1_555 1_555
O8_9 Ni4_3 1_555 1_555
H1_9 O8_9 1_555 1_555
H2_9 O8_9 1_555 1_555
N1_9 C16_9 1_555 1_555
C1_9 C2_9 1_555 1_555
C2_9 C3_9 1_555 1_555
C3_9 H3_9 1_555 1_555
C4_9 C3_9 1_555 1_555
H4_9 C4_9 1_555 1_555
C5_9 C4_9 1_555 1_555
C6_9 C5_9 1_555 1_555
C7_9 C2_9 1_555 1_555
H6_9 C7_9 1_555 1_555
C16_9 O7_9 1_555 1_555
H10_9 C16_9 1_555 1_555
C17_9 N1_9 1_555 1_555
H11_9 C17_9 1_555 1_555
H12_9 C17_9 1_555 1_555
H13_9 C17_9 1_555 1_555
C18_9 N1_9 1_555 1_555
H14_9 C18_9 1_555 1_555
H15_9 C18_9 1_555 1_555
H16_9 C18_9 1_555 1_555
Ni6 O9_9 1_555 1_555
O9_9 C19_9 1_555 1_555
O10_9 Fe5 1_555 1_555
O15_9 Ni6 1_555 1_555
O16_9 Ni6 1_555 1_555
H17_9 O16_9 1_555 1_555
H18_9 O16_9 1_555 1_555
N2_9 C34_9 1_555 1_555
C19_9 O10_9 1_555 1_555
C20_9 C19_9 1_555 1_555
C21_9 C20_9 1_555 1_555
H19_9 C21_9 1_555 1_555
C22_9 C21_9 1_555 1_555
H20_9 C22_9 1_555 1_555
C23_9 C22_9 1_555 1_555
C24_9 C23_9 1_555 1_555
H21_9 C24_9 1_555 1_555
C25_9 C20_9 1_555 1_555
H22_9 C25_9 1_555 1_555
C34_9 O15_9 1_555 1_555
H26_9 C34_9 1_555 1_555
C35_9 N2_9 1_555 1_555
H27_9 C35_9 1_555 1_555
H28_9 C35_9 1_555 1_555
H29_9 C35_9 1_555 1_555
C36_9 N2_9 1_555 1_555
H30_9 C36_9 1_555 1_555
H31_9 C36_9 1_555 1_555
H32_9 C36_9 1_555 1_555
C6_9 C7_9 1_555 1_555
C24_9 C25_9 1_555 1_555
O17_2 C14_9 1_555 1_555
O19_2 C14_9 1_555 1_555
O21_4 C15_9 1_555 1_555
O23_4 C15_9 1_555 1_555
C9_9 C8_9 1_555 1_555
C10_9 C9_9 1_555 1_555
C11_9 C10_9 1_555 1_555
H8_9 C11_9 1_555 1_555
C12_9 C11_9 1_555 1_555
C13_9 C8_9 1_555 1_555
H9_9 C13_9 1_555 1_555
C14_9 C10_9 1_555 1_555
C15_9 C12_9 1_555 1_555
C12_9 C13_9 1_555 1_555

#END
