
###############################################################################
#
# This file contains modified crystal structure data generated from the
# MOF subset of the Cambridge Structural Database (CSD) v543 
# hosted by the Cambridge Crystallographic Data Centre (CCDC).
#
# This work is licensed under the Creative Commons
# Attribution-NonCommercial-ShareAlike 4.0 International License.
# To view a copy of this license, visit
# http://creativecommons.org/licenses/by-nc-sa/4.0/
# or send a letter to
# Creative Commons, PO Box 1866, Mountain View, CA 94042, USA.
#
# CIF created using the CSD Python API on 29 September 2022
# The structure has been converted into the P1 space group
# The structure has a 3D framework
# The original CSD entry VAPFUP is in the triclinic crystal system
# The framework has been calculated to contain at least 10.0% void space
# The void calculation uses a probe of radius 1.32A, grid spacing 0.4
# H atom positions have been added when not included in the experimental data
# Generated hydrogen atom positions removed from atoms on special positions
#
###############################################################################

data_VAPFUP
_chemical_formula_moiety         '(C28 H28 N8 O10 Pt2 Sr2)n'
_symmetry_cell_setting           triclinic
_symmetry_space_group_name_H-M   'P 1'
_symmetry_Int_Tables_number      1
_space_group_name_Hall           'P 1'
loop_
_symmetry_equiv_pos_site_id
_symmetry_equiv_pos_as_xyz
1 x,y,z
_cell_length_a                   7.072(2)
_cell_length_b                   10.385(4)
_cell_length_c                   12.842(4)
_cell_angle_alpha                100.695(6)
_cell_angle_beta                 91.181(6)
_cell_angle_gamma                94.614(6)
_cell_volume                     923.156
loop_
_atom_site_label
_atom_site_type_symbol
_atom_site_fract_x
_atom_site_fract_y
_atom_site_fract_z
_atom_site_U_iso_or_equiv
_atom_site_thermal_displace_type
Sr8 Sr 0.2419(2) 0.46690(16) 0.39521(12) 0.0110 Uani
O9 O 0.1102(16) 0.6093(12) 0.5731(9) 0.0202 Uani
H16 H 0.125802 0.413102 0.658577 . .
Pt1 Pt 0.21679(10) 0.01481(7) 0.06046(5) 0.0134 Uani
N4 N 0.200(2) 0.2396(15) 0.2559(12) 0.0219 Uani
C14 C 0.205(2) 0.1564(18) 0.1845(14) 0.0153 Uani
H6 H 0.3029 0.3115 0.0549 0.0227 Uani
O3 O 0.5504(17) 0.3144(12) 0.6434(10) 0.0229 Uani
O4 O 0.6074(19) 0.4802(13) 0.7811(10) 0.0288 Uani
N2 N 0.3034(19) 0.1384(14) 0.9610(11) 0.0140 Uiso
C6 C 0.337(2) 0.0772(16) 0.8598(12) 0.0090 Uiso
C7 C 0.410(2) 0.1493(18) 0.7874(14) 0.0170 Uiso
C8 C 0.444(2) 0.2855(17) 0.8154(14) 0.0160 Uiso
C9 C 0.397(2) 0.3433(18) 0.9149(14) 0.0200 Uiso
C10 C 0.329(2) 0.2694(18) 0.9858(14) 0.0160 Uiso
C12 C 0.541(2) 0.367(2) 0.7369(15) 0.0220 Uiso
H4 H 0.4385 0.1068 0.7183 0.0217 Uani
H5 H 0.4103 0.4352 0.9331 0.0258 Uani
Sr5 Sr 0.7581(2) 0.53310(16) 0.60479(12) 0.0110 Uani
O1 O 0.4171(16) 0.5926(12) 0.5856(9) 0.0196 Uani
O5 O 0.9951(17) 0.3887(13) 0.6792(11) 0.0296 Uani
O6 O 0.7684(16) 0.7078(12) 0.4800(9) 0.0210 Uani
N1 N 0.2520(17) 0.8877(12) 0.9251(10) 0.0060 Uiso
C1 C 0.214(2) 0.7500(18) 0.9124(14) 0.0170 Uiso
C2 C 0.222(2) 0.6673(18) 0.8156(14) 0.0190 Uiso
C3 C 0.273(2) 0.7209(16) 0.7281(13) 0.0120 Uiso
C4 C 0.315(2) 0.8528(17) 0.7391(13) 0.0130 Uiso
C5 C 0.307(2) 0.9377(16) 0.8378(13) 0.0110 Uiso
C11 C 0.267(2) 0.6308(17) 0.6177(13) 0.0120 Uiso
H1 H 0.1803 0.7142 0.9733 0.0217 Uani
H2 H 0.1958 0.5756 0.8112 0.0248 Uani
H3 H 0.3483 0.8873 0.6781 0.0176 Uani
O7 O 0.5829(16) 0.4074(12) 0.4144(9) 0.0196 Uani
O8 O 0.8898(16) 0.3907(12) 0.4269(9) 0.0202 Uani
O13 O 0.4496(17) 0.6856(12) 0.3566(10) 0.0229 Uani
O16 O 0.3926(19) 0.5198(13) 0.2189(10) 0.0288 Uani
O17 O 0.0049(17) 0.6113(13) 0.3208(11) 0.0296 Uani
O18 O 0.2316(16) 0.2922(12) 0.5200(9) 0.0210 Uani
N5 N 0.7480(17) 0.1123(12) 0.0749(10) 0.0060 Uiso
N10 N 0.800(2) 0.7604(15) 0.7441(12) 0.0219 Uani
C15 C 0.786(2) 0.2500(18) 0.0876(14) 0.0170 Uiso
C16 C 0.778(2) 0.3327(18) 0.1844(14) 0.0190 Uiso
C17 C 0.727(2) 0.2791(16) 0.2719(13) 0.0120 Uiso
C18 C 0.685(2) 0.1472(17) 0.2609(13) 0.0130 Uiso
C19 C 0.693(2) 0.0623(16) 0.1622(13) 0.0110 Uiso
C25 C 0.733(2) 0.3692(17) 0.3823(13) 0.0120 Uiso
C28 C 0.459(2) 0.633(2) 0.2631(15) 0.0220 Uiso
H7 H 0.8197 0.2858 0.0267 0.0217 Uani
H8 H 0.8042 0.4244 0.1888 0.0248 Uani
H9 H 0.6517 0.1127 0.3219 0.0176 Uani
H15 H 0.959151 0.294407 0.649555 . .
H17 H 0.074385 0.693983 0.3089 . .
N6 N 0.6966(19) 0.8616(14) 0.0390(11) 0.0140 Uiso
C20 C 0.663(2) 0.9228(16) 0.1402(12) 0.0090 Uiso
C21 C 0.590(2) 0.8507(18) 0.2126(14) 0.0170 Uiso
C22 C 0.556(2) 0.7145(17) 0.1846(14) 0.0160 Uiso
C23 C 0.603(2) 0.6567(18) 0.0851(14) 0.0200 Uiso
C24 C 0.671(2) 0.7306(18) 0.0142(14) 0.0160 Uiso
H10 H 0.5615 0.8932 0.2817 0.0217 Uani
H11 H 0.5897 0.5648 0.0669 0.0258 Uani
Pt2 Pt 0.78321(10) 0.98519(7) 0.93954(5) 0.0134 Uani
C30 C 0.795(2) 0.8436(18) 0.8155(14) 0.0153 Uani
H12 H 0.6971 0.6885 0.9451 0.0227 Uani
H18 H 0.945857 0.562092 0.25265 . .
H18_2 H 0.0541431 0.437908 0.74735 . .
H15_2 H 0.0408493 0.705593 0.350445 . .
H17_2 H 0.925615 0.306017 0.6911 . .
H16_2 H 0.874198 0.586898 0.341423 . .
N3 N 0.094(2) 0.8137(17) 0.1999(13) 0.0336 Uani
C13 C 0.142(2) 0.8854(18) 0.1496(14) 0.0163 Uani
N7 N 0.906(2) 0.1863(17) 0.8001(13) 0.0336 Uani
C29 C 0.858(2) 0.1146(18) 0.8504(14) 0.0163 Uani
loop_
_atom_site_aniso_label
_atom_site_aniso_U_11
_atom_site_aniso_U_22
_atom_site_aniso_U_33
_atom_site_aniso_U_23
_atom_site_aniso_U_13
_atom_site_aniso_U_12
Sr8 0.015 0.0091 0.0085 0.001 0.0039 -0.0008
O9 0.012 0.021 0.02 -0.014 -0.011 0
Pt1 0.0176 0.0112 0.0108 0.0009 0.0032 -0.0007
N4 0.026 0.018 0.023 0.009 0.006 -0.004
C14 0.019 0.014 0.013 0.006 -0.011 -0.003
H6 0.0221 0.0221 0.0221 0 0 0
O3 0.031 0.016 0.022 0.007 0.008 -0.006
O4 0.044 0.019 0.023 0.007 0.012 -0.01
H4 0.0211 0.0211 0.0211 0 0 0
H5 0.0251 0.0251 0.0251 0 0 0
Sr5 0.015 0.0091 0.0085 0.001 0.0039 -0.0008
O1 0.015 0.021 0.016 -0.015 -0.008 0.005
O5 0.024 0.029 0.039 0.015 0.001 0.002
O6 0.016 0.031 0.021 0.015 0.009 0.006
H1 0.0211 0.0211 0.0211 0 0 0
H2 0.0241 0.0241 0.0241 0 0 0
H3 0.0171 0.0171 0.0171 0 0 0
O7 0.015 0.021 0.016 -0.015 -0.008 0.005
O8 0.012 0.021 0.02 -0.014 -0.011 0
O13 0.031 0.016 0.022 0.007 0.008 -0.006
O16 0.044 0.019 0.023 0.007 0.012 -0.01
O17 0.024 0.029 0.039 0.015 0.001 0.002
O18 0.016 0.031 0.021 0.015 0.009 0.006
N10 0.026 0.018 0.023 0.009 0.006 -0.004
H7 0.0211 0.0211 0.0211 0 0 0
H8 0.0241 0.0241 0.0241 0 0 0
H9 0.0171 0.0171 0.0171 0 0 0
H10 0.0211 0.0211 0.0211 0 0 0
H11 0.0251 0.0251 0.0251 0 0 0
Pt2 0.0176 0.0112 0.0108 0.0009 0.0032 -0.0007
C30 0.019 0.014 0.013 0.006 -0.011 -0.003
H12 0.0221 0.0221 0.0221 0 0 0
N3 0.049 0.031 0.026 0.013 0.003 0.017
C13 0.013 0.018 0.018 0.004 -0.006 0.003
N7 0.049 0.031 0.026 0.013 0.003 0.017
C29 0.013 0.018 0.018 0.004 -0.006 0.003
loop_
_geom_bond_atom_site_label_1
_geom_bond_atom_site_label_2
_geom_bond_site_symmetry_1
_geom_bond_site_symmetry_2
Sr8 O9 1_555 1_555
N4 C14 1_555 1_555
C14 Pt1 1_555 1_555
Sr8 N4 1_555 1_555
O3 C12 1_555 1_555
O4 C12 1_555 1_555
C6 N2 1_555 1_555
C7 C6 1_555 1_555
C8 C7 1_555 1_555
C9 C8 1_555 1_555
C10 N2 1_555 1_555
C12 C8 1_555 1_555
H4 C7 1_555 1_555
H5 C9 1_555 1_555
Sr5 O3 1_555 1_555
O4 Sr5 1_555 1_555
C9 C10 1_555 1_555
Sr5 O1 1_555 1_555
O1 C11 1_555 1_555
O9 C11 1_555 1_555
O5 Sr5 1_555 1_555
O6 Sr5 1_555 1_555
N1 C1 1_555 1_555
C1 C2 1_555 1_555
C2 C3 1_555 1_555
C3 C4 1_555 1_555
C4 C5 1_555 1_555
C5 N1 1_555 1_555
C11 C3 1_555 1_555
H1 C1 1_555 1_555
H2 C2 1_555 1_555
H3 C4 1_555 1_555
Sr8 O1 1_555 1_555
O7 Sr5 1_555 1_555
O8 Sr5 1_555 1_555
O13 Sr8 1_555 1_555
O16 Sr8 1_555 1_555
O17 Sr8 1_555 1_555
O18 Sr8 1_555 1_555
N5 C15 1_555 1_555
N10 Sr5 1_555 1_555
C15 C16 1_555 1_555
C16 C17 1_555 1_555
C17 C18 1_555 1_555
C18 C19 1_555 1_555
C19 N5 1_555 1_555
C25 O7 1_555 1_555
C28 O13 1_555 1_555
H7 C15 1_555 1_555
H8 C16 1_555 1_555
H9 C18 1_555 1_555
Sr8 O7 1_555 1_555
O8 C25 1_555 1_555
O16 C28 1_555 1_555
C17 C25 1_555 1_555
O5 H15 1_555 1_555
O17 H17 1_555 1_555
C20 N6 1_555 1_555
C21 C20 1_555 1_555
C22 C21 1_555 1_555
C23 C22 1_555 1_555
C24 N6 1_555 1_555
H10 C21 1_555 1_555
H11 C23 1_555 1_555
C22 C28 1_555 1_555
C23 C24 1_555 1_555
N10 C30 1_555 1_555
C30 Pt2 1_555 1_555
O17 H15_2 1_555 1_555
O5 H17_2 1_555 1_555
N3 C13 1_555 1_555
N7 C29 1_555 1_555

#END
