
###############################################################################
#
# This file contains modified crystal structure data generated from the
# MOF subset of the Cambridge Structural Database (CSD) v543 
# hosted by the Cambridge Crystallographic Data Centre (CCDC).
#
# This work is licensed under the Creative Commons
# Attribution-NonCommercial-ShareAlike 4.0 International License.
# To view a copy of this license, visit
# http://creativecommons.org/licenses/by-nc-sa/4.0/
# or send a letter to
# Creative Commons, PO Box 1866, Mountain View, CA 94042, USA.
#
# CIF created using the CSD Python API on 29 September 2022
# The structure has been converted into the P1 space group
# The structure has a 3D framework
# The original CSD entry VAPFOJ is in the monoclinic crystal system
# The framework has been calculated to contain at least 10.0% void space
# The void calculation uses a probe of radius 1.32A, grid spacing 0.4
# H atom positions have been added when not included in the experimental data
# Generated hydrogen atom positions removed from atoms on special positions
#
###############################################################################

data_VAPFOJ
_chemical_formula_moiety         '(C54 H56 Ba4 N16 O22 Pt4)n'
_symmetry_cell_setting           triclinic
_symmetry_space_group_name_H-M   'P 1'
_symmetry_Int_Tables_number      1
_space_group_name_Hall           'P 1'
loop_
_symmetry_equiv_pos_site_id
_symmetry_equiv_pos_as_xyz
1 x,y,z
_cell_length_a                   7.3068(19)
_cell_length_b                   17.634(5)
_cell_length_c                   15.226(4)
_cell_angle_alpha                90
_cell_angle_beta                 94.4477(11)
_cell_angle_gamma                90
_cell_volume                     1955.93
loop_
_atom_site_label
_atom_site_type_symbol
_atom_site_fract_x
_atom_site_fract_y
_atom_site_fract_z
Pt1 Pt 0.21189(4) 0.026412(16) 0.53509(2)
O1 O 0.1270(7) 0.0259(2) 0.0767(3)
N1 N 0.2343(8) 0.0298(3) 0.4016(4)
N3 N 0.0586(9) 0.1890(4) 0.5504(5)
N4 N 0.2097(9) 0.0016(4) 0.7364(4)
C1 C 0.1857(10) 0.0879(4) 0.3479(5)
C2 C 0.1971(11) 0.0841(4) 0.2585(5)
C3 C 0.2641(9) 0.0188(4) 0.2212(5)
C11 C 0.2696(10) 0.0090(4) 0.1243(5)
C13 C 0.1154(11) 0.1284(4) 0.5462(5)
C14 C 0.2070(9) 0.0142(4) 0.6624(5)
H1 H 0.1418 0.1332 0.3727
H2 H 0.1593 0.1260 0.2223
Ba7 Ba 0.75410(6) 0.04471(2) 0.07911(3)
O5 O 0.2053(8) 0.1116(3) 0.9061(3)
O10 O 0.5862(7) 0.0171(2) 0.9049(3)
O2 O 0.4138(7) 0.9829(2) 0.0951(3)
O3 O 0.5854(8) 0.6916(3) 0.3749(3)
O4 O 0.6053(7) 0.6643(2) 0.5177(3)
N2 N 0.3188(8) 0.9217(3) 0.5163(4)
C4 C 0.3213(10) 0.9589(4) 0.2774(5)
C5 C 0.3006(9) 0.9660(4) 0.3669(5)
C6 C 0.3517(9) 0.9047(4) 0.4304(5)
C7 C 0.4257(9) 0.8354(4) 0.4081(5)
C8 C 0.4712(10) 0.7821(4) 0.4734(5)
C9 C 0.4331(10) 0.8000(4) 0.5587(5)
C10 C 0.3582(11) 0.8692(4) 0.5777(5)
C12 C 0.5592(10) 0.7068(4) 0.4535(6)
H3 H 0.3732 0.9143 0.2547
H4 H 0.4450 0.8245 0.3484
H5 H 0.4590 0.7642 0.6046
H6 H 0.3337 0.8799 0.6368
Ba4 Ba 0.24590(6) 0.95529(2) 0.92089(3)
Ba8 Ba 0.74590(6) 0.54471(2) 0.42089(3)
O16 O 0.1053(7) 0.8357(2) 0.0177(3)
O6 O 0.5270(8) 0.8467(3) 0.9505(4)
O13 O 0.0854(8) 0.8084(3) 0.8749(3)
C28 C 0.0592(10) 0.7932(4) 0.9535(6)
O12 O 0.9146(8) 0.1916(3) 0.1251(3)
O18 O 0.4730(8) 0.1533(3) 0.0495(4)
C27 C 0.9408(10) 0.2068(4) 0.0465(6)
Ba5 Ba 0.25410(6) 0.45529(2) 0.57911(3)
O11 O 0.4146(8) 0.3084(3) 0.6251(3)
O14 O 0.3947(7) 0.3357(2) 0.4823(3)
O15 O 0.8947(7) 0.1643(2) 0.9823(3)
N6 N 0.6812(8) 0.0783(3) 0.4837(4)
C18 C 0.6787(10) 0.0411(4) 0.7226(5)
C19 C 0.6994(9) 0.0340(4) 0.6331(5)
C20 C 0.6483(9) 0.0953(4) 0.5696(5)
C21 C 0.5743(9) 0.1646(4) 0.5919(5)
C22 C 0.5288(10) 0.2179(4) 0.5266(5)
C23 C 0.5669(10) 0.2000(4) 0.4413(5)
C24 C 0.6418(11) 0.1308(4) 0.4223(5)
C26 C 0.4408(10) 0.2932(4) 0.5465(6)
H9 H 0.6268 0.0857 0.7453
H10 H 0.5550 0.1755 0.6516
H11 H 0.5410 0.2358 0.3954
H12 H 0.6663 0.1201 0.3632
H17 H 0.470041 0.171512 0.987694
O17 O 0.7947(8) 0.8884(3) 0.0939(3)
N10 N 0.7903(9) 0.9984(4) 0.2636(4)
Pt2 Pt 0.78811(4) 0.973588(16) 0.46491(2)
O7 O 0.8730(7) 0.9741(2) 0.9233(3)
N5 N 0.7657(8) 0.9702(3) 0.5984(4)
N7 N 0.9414(9) 0.8110(4) 0.4496(5)
C15 C 0.8143(10) 0.9121(4) 0.6521(5)
C16 C 0.8029(11) 0.9159(4) 0.7415(5)
C17 C 0.7359(9) 0.9812(4) 0.7788(5)
C25 C 0.7304(10) 0.9910(4) 0.8757(5)
C29 C 0.8846(11) 0.8716(4) 0.4538(5)
C30 C 0.7930(9) 0.9858(4) 0.3376(5)
H7 H 0.8582 0.8668 0.6273
H8 H 0.8407 0.8740 0.7777
O9 O 0.0862(7) 0.4829(2) 0.4049(3)
O18_2 O 0.0270(8) 0.6533(3) 0.4505(4)
Pt2_2 Pt 0.71189(4) 0.473588(16) 0.03509(2)
N6_2 N 0.8188(8) 0.5783(3) 0.0163(4)
N7_2 N 0.5586(9) 0.3110(4) 0.0504(5)
N8 N 0.7097(9) 0.4984(4) 0.2364(4)
C23_2 C 0.9331(10) 0.7000(4) 0.0587(5)
C24_2 C 0.8582(11) 0.6308(4) 0.0777(5)
C29_2 C 0.6154(11) 0.3716(4) 0.0462(5)
C30_2 C 0.7070(9) 0.4858(4) 0.1624(5)
H11_2 H 0.9590 0.7358 0.1046
H12_2 H 0.8337 0.6201 0.1368
O1_2 O 0.3730(7) 0.5259(2) 0.4233(3)
O5_2 O 0.2947(8) 0.6116(3) 0.5939(3)
N1_2 N 0.2657(8) 0.5298(3) 0.0984(4)
C1_2 C 0.3143(10) 0.5879(4) 0.1521(5)
C2_2 C 0.3029(11) 0.5841(4) 0.2415(5)
C3_2 C 0.2359(9) 0.5188(4) 0.2788(5)
C4_2 C 0.1787(10) 0.4589(4) 0.2226(5)
C5_2 C 0.1994(9) 0.4660(4) 0.1331(5)
C6_2 C 0.1483(9) 0.4047(4) 0.0696(5)
C7_2 C 0.0743(9) 0.3354(4) 0.0919(5)
C8_2 C 0.0288(10) 0.2821(4) 0.0266(5)
C11_2 C 0.2304(10) 0.5090(4) 0.3757(5)
H1_2 H 0.3582 0.6332 0.1273
H2_2 H 0.3407 0.6260 0.2777
H3_2 H 0.1268 0.4143 0.2453
H4_2 H 0.0550 0.3245 0.1516
O7_2 O 0.6270(7) 0.4741(2) 0.5767(3)
O8 O 0.9138(7) 0.5171(2) 0.5951(3)
O17_2 O 0.7053(8) 0.3884(3) 0.4061(3)
N5_2 N 0.7343(8) 0.4702(3) 0.9016(4)
N9 N 0.2903(9) 0.5016(4) 0.7636(4)
C15_2 C 0.6857(10) 0.4121(4) 0.8479(5)
C16_2 C 0.6971(11) 0.4159(4) 0.7585(5)
C17_2 C 0.7641(9) 0.4812(4) 0.7212(5)
C18_2 C 0.8213(10) 0.5411(4) 0.7774(5)
C19_2 C 0.8006(9) 0.5340(4) 0.8669(5)
C20_2 C 0.8517(9) 0.5953(4) 0.9304(5)
C21_2 C 0.9257(9) 0.6646(4) 0.9081(5)
C22_2 C 0.9712(10) 0.7179(4) 0.9734(5)
C25_2 C 0.7696(10) 0.4910(4) 0.6243(5)
H7_2 H 0.6418 0.3668 0.8727
H8_2 H 0.6593 0.3740 0.7223
H9_2 H 0.8732 0.5857 0.7547
H10_2 H 0.9450 0.6755 0.8484
H13 H 0.0159177 0.305247 0.512023
Pt1_2 Pt 0.28811(4) 0.526412(16) 0.96491(2)
N2_2 N 0.1812(8) 0.4217(3) 0.9837(4)
N3_2 N 0.4414(9) 0.6890(4) 0.9496(5)
C9_2 C 0.0669(10) 0.3000(4) 0.9413(5)
C10_2 C 0.1418(11) 0.3692(4) 0.9223(5)
C13_2 C 0.3846(11) 0.6284(4) 0.9538(5)
C14_2 C 0.2930(9) 0.5142(4) 0.8376(5)
H5_2 H 0.0410 0.2642 0.8954
H6_2 H 0.1663 0.3799 0.8632
O6_2 O 0.9730(8) 0.3467(3) 0.5495(4)
H17_2 H 0.529959 0.828488 0.0123063
H13_2 H 0.984082 0.694753 0.487977
loop_
_geom_bond_atom_site_label_1
_geom_bond_atom_site_label_2
_geom_bond_site_symmetry_1
_geom_bond_site_symmetry_2
Pt1 N1 1_555 1_555
O1 C11 1_555 1_555
N1 C1 1_555 1_555
N3 C13 1_555 1_555
N4 C14 1_555 1_555
C1 C2 1_555 1_555
C2 C3 1_555 1_555
C13 Pt1 1_555 1_555
C14 Pt1 1_555 1_555
H1 C1 1_555 1_555
H2 C2 1_555 1_555
C3 C11 1_555 1_555
O3 C12 1_555 1_555
O4 C12 1_555 1_555
C4 C5 1_555 1_555
C6 N2 1_555 1_555
C7 C6 1_555 1_555
C8 C7 1_555 1_555
C9 C8 1_555 1_555
C10 N2 1_555 1_555
C12 C8 1_555 1_555
H3 C4 1_555 1_555
H4 C7 1_555 1_555
H5 C9 1_555 1_555
H6 C10 1_555 1_555
Ba8 O3 1_555 1_555
O4 Ba8 1_555 1_555
C5 C6 1_555 1_555
C9 C10 1_555 1_555
O6 Ba4 1_555 1_555
O13 Ba4 1_555 1_555
C28 O13 1_555 1_555
O12 Ba7 1_555 1_555
O18 Ba7 1_555 1_555
C27 O12 1_555 1_555
Ba5 O11 1_555 1_555
O11 C26 1_555 1_555
O14 Ba5 1_555 1_555
C18 C19 1_555 1_555
C20 N6 1_555 1_555
C21 C20 1_555 1_555
C22 C21 1_555 1_555
C23 C22 1_555 1_555
C24 N6 1_555 1_555
C26 O14 1_555 1_555
H9 C18 1_555 1_555
H10 C21 1_555 1_555
H11 C23 1_555 1_555
H12 C24 1_555 1_555
C19 C20 1_555 1_555
C22 C26 1_555 1_555
C23 C24 1_555 1_555
Pt2 N5 1_555 1_555
N5 C15 1_555 1_555
N7 C29 1_555 1_555
N10 C30 1_555 1_555
C15 C16 1_555 1_555
C16 C17 1_555 1_555
C25 O7 1_555 1_555
C29 Pt2 1_555 1_555
C30 Pt2 1_555 1_555
H7 C15 1_555 1_555
H8 C16 1_555 1_555
C17 C25 1_555 1_555
Ba5 O9 1_555 1_555
Ba8 N8 1_555 1_555
N6_2 Pt2_2 1_555 1_555
N7_2 C29_2 1_555 1_555
N8 C30_2 1_555 1_555
C24_2 N6_2 1_555 1_555
C29_2 Pt2_2 1_555 1_555
C30_2 Pt2_2 1_555 1_555
H11_2 C23_2 1_555 1_555
H12_2 C24_2 1_555 1_555
C23_2 C24_2 1_555 1_555
Ba5 O1_2 1_555 1_555
O1_2 C11_2 1_555 1_555
O5_2 Ba5 1_555 1_555
N1_2 C1_2 1_555 1_555
C1_2 C2_2 1_555 1_555
C2_2 C3_2 1_555 1_555
C3_2 C4_2 1_555 1_555
C4_2 C5_2 1_555 1_555
C5_2 N1_2 1_555 1_555
C7_2 C6_2 1_555 1_555
C8_2 C7_2 1_555 1_555
C11_2 O9 1_555 1_555
H1_2 C1_2 1_555 1_555
H2_2 C2_2 1_555 1_555
H3_2 C4_2 1_555 1_555
H4_2 C7_2 1_555 1_555
Ba8 O1_2 1_555 1_555
O7_2 Ba5 1_555 1_555
O8 Ba8 1_555 1_555
O17_2 Ba8 1_555 1_555
N5_2 C15_2 1_555 1_555
N9 Ba5 1_555 1_555
C15_2 C16_2 1_555 1_555
C16_2 C17_2 1_555 1_555
C17_2 C18_2 1_555 1_555
C18_2 C19_2 1_555 1_555
C19_2 N5_2 1_555 1_555
C21_2 C20_2 1_555 1_555
C22_2 C21_2 1_555 1_555
C25_2 O7_2 1_555 1_555
H7_2 C15_2 1_555 1_555
H8_2 C16_2 1_555 1_555
H9_2 C18_2 1_555 1_555
H10_2 C21_2 1_555 1_555
C3_2 C11_2 1_555 1_555
C5_2 C6_2 1_555 1_555
Ba8 O7_2 1_555 1_555
O8 C25_2 1_555 1_555
C17_2 C25_2 1_555 1_555
C19_2 C20_2 1_555 1_555
N2_2 Pt1_2 1_555 1_555
N3_2 C13_2 1_555 1_555
N9 C14_2 1_555 1_555
C10_2 N2_2 1_555 1_555
C13_2 Pt1_2 1_555 1_555
C14_2 Pt1_2 1_555 1_555
H5_2 C9_2 1_555 1_555
H6_2 C10_2 1_555 1_555
C9_2 C10_2 1_555 1_555

#END
