
###############################################################################
#
# This file contains modified crystal structure data generated from the
# MOF subset of the Cambridge Structural Database (CSD) v543 
# hosted by the Cambridge Crystallographic Data Centre (CCDC).
#
# This work is licensed under the Creative Commons
# Attribution-NonCommercial-ShareAlike 4.0 International License.
# To view a copy of this license, visit
# http://creativecommons.org/licenses/by-nc-sa/4.0/
# or send a letter to
# Creative Commons, PO Box 1866, Mountain View, CA 94042, USA.
#
# CIF created using the CSD Python API on 29 September 2022
# The structure has been converted into the P1 space group
# The structure has a 3D framework
# The original CSD entry VAPZIZ is in the orthorhombic crystal system
# The framework has been calculated to contain at least 10.0% void space
# The void calculation uses a probe of radius 1.32A, grid spacing 0.4
# The framework is charged, counterions have been retained in the structure
#
###############################################################################

data_VAPZIZ
_chemical_formula_moiety         '(C184 H96 Cu14 O84 12-)n'
_symmetry_cell_setting           triclinic
_symmetry_space_group_name_H-M   'P 1'
_symmetry_Int_Tables_number      1
_space_group_name_Hall           'P 1'
loop_
_symmetry_equiv_pos_site_id
_symmetry_equiv_pos_as_xyz
1 x,y,z
_cell_length_a                   30.462(4)
_cell_length_b                   28.777(4)
_cell_length_c                   12.1091(17)
_cell_angle_alpha                90
_cell_angle_beta                 90
_cell_angle_gamma                90
_cell_volume                     10614.9
loop_
_atom_site_label
_atom_site_type_symbol
_atom_site_fract_x
_atom_site_fract_y
_atom_site_fract_z
Cu2 Cu 0.500000 0.02330(2) 0.59441(4)
O5 O 0.500000 0.06221(15) 0.7460(3)
H1 H 0.500000 0.050435 0.810340
H2 H 0.500000 0.091655 0.750820
O25 O 0.45492(7) 0.06096(7) 0.5202(2)
O27 O 0.54508(7) 0.06096(7) 0.5202(2)
Cu1 Cu 0.250000 0.750000 0.750000
O1 O 0.28950(7) 0.79714(6) 0.69233(17)
O2 O 0.31910(9) 0.80504(9) 0.8577(2)
O3 O 0.45471(7) 0.97854(7) 0.6408(2)
O4 O 0.45492(7) 0.93904(7) 0.4798(2)
O6 O 0.34709(19) 0.78711(15) 0.2084(3)
C1 C 0.41017(10) 0.91138(10) 0.6246(3)
C2 C 0.38946(12) 0.91938(11) 0.7254(3)
H3 H 0.394760 0.946751 0.763970
C3 C 0.36116(12) 0.88669(11) 0.7676(3)
H4 H 0.347992 0.891856 0.835748
C4 C 0.35181(10) 0.84577(10) 0.7097(3)
C5 C 0.37335(9) 0.83718(9) 0.6104(2)
C6 C 0.40208(10) 0.87122(10) 0.5691(3)
H5 H 0.415967 0.866119 0.501793
C7 C 0.44293(9) 0.94615(11) 0.5774(3)
C8 C 0.31761(11) 0.81335(10) 0.7581(3)
C9 C 0.37240(12) 0.750000 0.6053(3)
H6 H 0.376660 0.750001 0.681391
C10 C 0.36930(9) 0.79203(10) 0.5499(2)
C11 C 0.36372(10) 0.79188(12) 0.4355(3)
H7 H 0.361481 0.819852 0.397401
C12 C 0.36148(17) 0.750000 0.3781(4)
C13 C 0.3521(3) 0.750000 0.2523(5)
O7 O 0.28950(7) 0.70286(6) 0.69233(17)
O8 O 0.31910(9) 0.69496(9) 0.8577(2)
O9 O 0.45471(7) 0.52146(7) 0.6408(2)
O10 O 0.45492(7) 0.56096(7) 0.4798(2)
O11 O 0.34709(19) 0.71289(15) 0.2084(3)
C14 C 0.41017(10) 0.58862(10) 0.6246(3)
C15 C 0.38946(12) 0.58062(11) 0.7254(3)
H8 H 0.394760 0.553249 0.763970
C16 C 0.36116(12) 0.61331(11) 0.7676(3)
H9 H 0.347992 0.608144 0.835748
C17 C 0.35181(10) 0.65423(10) 0.7097(3)
C18 C 0.37335(9) 0.66282(9) 0.6104(2)
C19 C 0.40208(10) 0.62878(10) 0.5691(3)
H10 H 0.415967 0.633881 0.501793
C20 C 0.44293(9) 0.55385(11) 0.5774(3)
C21 C 0.31761(11) 0.68665(10) 0.7581(3)
C22 C 0.36930(9) 0.70797(10) 0.5499(2)
C23 C 0.36372(10) 0.70812(12) 0.4355(3)
H11 H 0.361481 0.680148 0.397401
Cu3 Cu 0.500000 0.47670(2) 0.59441(4)
O12 O 0.71050(7) 0.70286(6) 0.69233(17)
O13 O 0.68090(9) 0.69496(9) 0.8577(2)
O14 O 0.54529(7) 0.52146(7) 0.6408(2)
O15 O 0.54508(7) 0.56096(7) 0.4798(2)
O16 O 0.500000 0.43779(15) 0.7460(3)
H12 H 0.500000 0.449565 0.810340
H13 H 0.500000 0.408345 0.750820
O17 O 0.65291(19) 0.71289(15) 0.2084(3)
C24 C 0.58983(10) 0.58862(10) 0.6246(3)
C25 C 0.61054(12) 0.58062(11) 0.7254(3)
H14 H 0.605240 0.553249 0.763970
C26 C 0.63884(12) 0.61331(11) 0.7676(3)
H15 H 0.652008 0.608144 0.835748
C27 C 0.64819(10) 0.65423(10) 0.7097(3)
C28 C 0.62665(9) 0.66282(9) 0.6104(2)
C29 C 0.59792(10) 0.62878(10) 0.5691(3)
H16 H 0.584033 0.633881 0.501793
C30 C 0.55707(9) 0.55385(11) 0.5774(3)
C31 C 0.68239(11) 0.68665(10) 0.7581(3)
C32 C 0.62760(12) 0.750000 0.6053(3)
H17 H 0.623340 0.749999 0.681391
C33 C 0.63070(9) 0.70797(10) 0.5499(2)
C34 C 0.63628(10) 0.70812(12) 0.4355(3)
H18 H 0.638519 0.680148 0.397401
C35 C 0.63852(17) 0.750000 0.3781(4)
C36 C 0.6479(3) 0.750000 0.2523(5)
O18 O 0.71050(7) 0.79714(6) 0.69233(17)
O19 O 0.68090(9) 0.80504(9) 0.8577(2)
O20 O 0.54529(7) 0.97854(7) 0.6408(2)
O21 O 0.54508(7) 0.93904(7) 0.4798(2)
O22 O 0.65291(19) 0.78711(15) 0.2084(3)
C37 C 0.58983(10) 0.91138(10) 0.6246(3)
C38 C 0.61054(12) 0.91938(11) 0.7254(3)
H19 H 0.605240 0.946751 0.763970
C39 C 0.63884(12) 0.88669(11) 0.7676(3)
H20 H 0.652008 0.891856 0.835748
C40 C 0.64819(10) 0.84577(10) 0.7097(3)
C41 C 0.62665(9) 0.83718(9) 0.6104(2)
C42 C 0.59792(10) 0.87122(10) 0.5691(3)
H21 H 0.584033 0.866119 0.501793
C43 C 0.55707(9) 0.94615(11) 0.5774(3)
C44 C 0.68239(11) 0.81335(10) 0.7581(3)
C45 C 0.63070(9) 0.79203(10) 0.5499(2)
C46 C 0.63628(10) 0.79188(12) 0.4355(3)
H22 H 0.638519 0.819852 0.397401
Cu4 Cu 0.750000 0.750000 0.750000
Cu5 Cu 0.500000 0.97670(2) 0.40559(4)
Cu6 Cu 0.500000 0.52330(2) 0.40559(4)
O23 O 0.21050(7) 0.79714(6) 0.80767(17)
O24 O 0.21050(7) 0.70286(6) 0.80767(17)
O26 O 0.54508(7) 0.43904(7) 0.5202(2)
O28 O 0.45492(7) 0.43904(7) 0.5202(2)
O23_2 O 0.78950(7) 0.70286(6) 0.80767(17)
O24_2 O 0.78950(7) 0.79714(6) 0.80767(17)
Cu1_2 Cu 0.250000 0.250000 0.250000
O1_2 O 0.28950(7) 0.20286(6) 0.30767(17)
O2_2 O 0.31910(9) 0.19496(9) 0.1423(2)
O3_2 O 0.45471(7) 0.02146(7) 0.3592(2)
O6_2 O 0.34709(19) 0.21289(15) 0.7916(3)
C1_2 C 0.41017(10) 0.08862(10) 0.3754(3)
C2_2 C 0.38946(12) 0.08062(11) 0.2746(3)
H3_2 H 0.394760 0.053249 0.236030
C3_2 C 0.36116(12) 0.11331(11) 0.2324(3)
H4_2 H 0.347992 0.108144 0.164252
C4_2 C 0.35181(10) 0.15423(10) 0.2903(3)
C5_2 C 0.37335(9) 0.16282(9) 0.3896(2)
C6_2 C 0.40208(10) 0.12878(10) 0.4309(3)
H5_2 H 0.415967 0.133881 0.498207
C7_2 C 0.44293(9) 0.05385(11) 0.4226(3)
C8_2 C 0.31761(11) 0.18665(10) 0.2419(3)
C9_2 C 0.37240(12) 0.250000 0.3947(3)
H6_2 H 0.376660 0.249999 0.318609
C10_2 C 0.36930(9) 0.20797(10) 0.4501(2)
C11_2 C 0.36372(10) 0.20812(12) 0.5645(3)
H7_2 H 0.361481 0.180148 0.602599
C12_2 C 0.36148(17) 0.250000 0.6219(4)
C13_2 C 0.3521(3) 0.250000 0.7477(5)
O7_2 O 0.28950(7) 0.29714(6) 0.30767(17)
O8_2 O 0.31910(9) 0.30504(9) 0.1423(2)
O9_2 O 0.45471(7) 0.47854(7) 0.3592(2)
O11_2 O 0.34709(19) 0.28711(15) 0.7916(3)
C14_2 C 0.41017(10) 0.41138(10) 0.3754(3)
C15_2 C 0.38946(12) 0.41938(11) 0.2746(3)
H8_2 H 0.394760 0.446751 0.236030
C16_2 C 0.36116(12) 0.38669(11) 0.2324(3)
H9_2 H 0.347992 0.391856 0.164252
C17_2 C 0.35181(10) 0.34577(10) 0.2903(3)
C18_2 C 0.37335(9) 0.33718(9) 0.3896(2)
C19_2 C 0.40208(10) 0.37122(10) 0.4309(3)
H10_2 H 0.415967 0.366119 0.498207
C20_2 C 0.44293(9) 0.44615(11) 0.4226(3)
C21_2 C 0.31761(11) 0.31335(10) 0.2419(3)
C22_2 C 0.36930(9) 0.29203(10) 0.4501(2)
C23_2 C 0.36372(10) 0.29188(12) 0.5645(3)
H11_2 H 0.361481 0.319852 0.602599
O12_2 O 0.71050(7) 0.29714(6) 0.30767(17)
O13_2 O 0.68090(9) 0.30504(9) 0.1423(2)
O14_2 O 0.54529(7) 0.47854(7) 0.3592(2)
O16_2 O 0.500000 0.56221(15) 0.2540(3)
H12_2 H 0.500000 0.550435 0.189660
H13_2 H 0.500000 0.591655 0.249180
O17_2 O 0.65291(19) 0.28711(15) 0.7916(3)
C24_2 C 0.58983(10) 0.41138(10) 0.3754(3)
C25_2 C 0.61054(12) 0.41938(11) 0.2746(3)
H14_2 H 0.605240 0.446751 0.236030
C26_2 C 0.63884(12) 0.38669(11) 0.2324(3)
H15_2 H 0.652008 0.391856 0.164252
C27_2 C 0.64819(10) 0.34577(10) 0.2903(3)
C28_2 C 0.62665(9) 0.33718(9) 0.3896(2)
C29_2 C 0.59792(10) 0.37122(10) 0.4309(3)
H16_2 H 0.584033 0.366119 0.498207
C30_2 C 0.55707(9) 0.44615(11) 0.4226(3)
C31_2 C 0.68239(11) 0.31335(10) 0.2419(3)
C32_2 C 0.62760(12) 0.250000 0.3947(3)
H17_2 H 0.623340 0.250001 0.318609
C33_2 C 0.63070(9) 0.29203(10) 0.4501(2)
C34_2 C 0.63628(10) 0.29188(12) 0.5645(3)
H18_2 H 0.638519 0.319852 0.602599
C35_2 C 0.63852(17) 0.250000 0.6219(4)
C36_2 C 0.6479(3) 0.250000 0.7477(5)
O18_2 O 0.71050(7) 0.20286(6) 0.30767(17)
O19_2 O 0.68090(9) 0.19496(9) 0.1423(2)
O20_2 O 0.54529(7) 0.02146(7) 0.3592(2)
O22_2 O 0.65291(19) 0.21289(15) 0.7916(3)
C37_2 C 0.58983(10) 0.08862(10) 0.3754(3)
C38_2 C 0.61054(12) 0.08062(11) 0.2746(3)
H19_2 H 0.605240 0.053249 0.236030
C39_2 C 0.63884(12) 0.11331(11) 0.2324(3)
H20_2 H 0.652008 0.108144 0.164252
C40_2 C 0.64819(10) 0.15423(10) 0.2903(3)
C41_2 C 0.62665(9) 0.16282(9) 0.3896(2)
C42_2 C 0.59792(10) 0.12878(10) 0.4309(3)
H21_2 H 0.584033 0.133881 0.498207
C43_2 C 0.55707(9) 0.05385(11) 0.4226(3)
C44_2 C 0.68239(11) 0.18665(10) 0.2419(3)
C45_2 C 0.63070(9) 0.20797(10) 0.4501(2)
C46_2 C 0.63628(10) 0.20812(12) 0.5645(3)
H22_2 H 0.638519 0.180148 0.602599
Cu4_2 Cu 0.750000 0.250000 0.250000
O23_3 O 0.21050(7) 0.20286(6) 0.19233(17)
O24_3 O 0.21050(7) 0.29714(6) 0.19233(17)
O5_2 O 0.500000 0.93779(15) 0.2540(3)
H1_2 H 0.500000 0.949565 0.189660
H2_2 H 0.500000 0.908345 0.249180
O23_4 O 0.78950(7) 0.29714(6) 0.19233(17)
O24_4 O 0.78950(7) 0.20286(6) 0.19233(17)
Cu2_2 Cu -0.000000 0.52330(2) 0.09441(4)
O5_3 O 0.000000 0.56221(15) 0.2460(3)
H1_3 H -0.000000 0.550435 0.310340
H2_3 H -0.000000 0.591655 0.250820
O13_3 O 0.18090(9) 0.19496(9) 0.3577(2)
O14_3 O 0.04529(7) 0.02146(7) 0.1408(2)
C24_3 C 0.08983(10) 0.08862(10) 0.1246(3)
C25_3 C 0.11054(12) 0.08062(11) 0.2254(3)
H14_3 H 0.105240 0.053249 0.263970
C26_3 C 0.13884(12) 0.11331(11) 0.2676(3)
H15_3 H 0.152008 0.108144 0.335748
C27_3 C 0.14819(10) 0.15423(10) 0.2097(3)
C28_3 C 0.12665(9) 0.16282(9) 0.1104(2)
C29_3 C 0.09792(10) 0.12878(10) 0.0691(3)
H16_3 H 0.084033 0.133881 0.001793
C30_3 C 0.05707(9) 0.05385(11) 0.0774(3)
C31_3 C 0.18239(11) 0.18665(10) 0.2581(3)
C32_3 C 0.12760(12) 0.250000 0.1053(3)
H17_3 H 0.123340 0.249999 0.181391
C33_3 C 0.13070(9) 0.20797(10) 0.0499(2)
O19_3 O 0.18090(9) 0.30504(9) 0.3577(2)
O20_3 O 0.04529(7) 0.47854(7) 0.1408(2)
C37_3 C 0.08983(10) 0.41138(10) 0.1246(3)
C38_3 C 0.11054(12) 0.41938(11) 0.2254(3)
H19_3 H 0.105240 0.446751 0.263970
C39_3 C 0.13884(12) 0.38669(11) 0.2676(3)
H20_3 H 0.152008 0.391856 0.335748
C40_3 C 0.14819(10) 0.34577(10) 0.2097(3)
C41_3 C 0.12665(9) 0.33718(9) 0.1104(2)
C42_3 C 0.09792(10) 0.37122(10) 0.0691(3)
H21_3 H 0.084033 0.366119 0.001793
C43_3 C 0.05707(9) 0.44615(11) 0.0774(3)
C44_3 C 0.18239(11) 0.31335(10) 0.2581(3)
C45_3 C 0.13070(9) 0.29203(10) 0.0499(2)
O27_2 O 0.04508(7) 0.56096(7) 0.0202(2)
O15_2 O 0.04508(7) 0.06096(7) 0.9798(2)
O17_3 O 0.15291(19) 0.21289(15) 0.7084(3)
C34_3 C 0.13628(10) 0.20812(12) 0.9355(3)
H18_3 H 0.138519 0.180148 0.897401
C35_3 C 0.13852(17) 0.250000 0.8781(4)
C36_3 C 0.1479(3) 0.250000 0.7523(5)
O21_2 O 0.04508(7) 0.43904(7) 0.9798(2)
O22_3 O 0.15291(19) 0.28711(15) 0.7084(3)
C46_3 C 0.13628(10) 0.29188(12) 0.9355(3)
H22_3 H 0.138519 0.319852 0.897401
Cu5_2 Cu 0.000000 0.47670(2) 0.90559(4)
Cu6_2 Cu 0.000000 0.02330(2) 0.90559(4)
Cu3_2 Cu -0.000000 0.97670(2) 0.09441(4)
O16_3 O 0.000000 0.93779(15) 0.2460(3)
H12_3 H 0.000000 0.949565 0.310340
H13_3 H 0.000000 0.908345 0.250820
O26_2 O 0.04508(7) 0.93904(7) 0.0202(2)
Cu2_3 Cu 1.000000 0.52330(2) 0.09441(4)
O2_3 O 0.81910(9) 0.30504(9) 0.3577(2)
O3_3 O 0.95471(7) 0.47854(7) 0.1408(2)
O5_4 O 1.000000 0.56221(15) 0.2460(3)
H1_4 H 1.000000 0.550435 0.310340
H2_4 H 1.000000 0.591655 0.250820
C1_3 C 0.91017(10) 0.41138(10) 0.1246(3)
C2_3 C 0.88946(12) 0.41938(11) 0.2254(3)
H3_3 H 0.894760 0.446751 0.263970
C3_3 C 0.86116(12) 0.38669(11) 0.2676(3)
H4_3 H 0.847992 0.391856 0.335748
C4_3 C 0.85181(10) 0.34577(10) 0.2097(3)
C5_3 C 0.87335(9) 0.33718(9) 0.1104(2)
C6_3 C 0.90208(10) 0.37122(10) 0.0691(3)
H5_3 H 0.915967 0.366119 0.001793
C7_3 C 0.94293(9) 0.44615(11) 0.0774(3)
C8_3 C 0.81761(11) 0.31335(10) 0.2581(3)
C9_3 C 0.87240(12) 0.250000 0.1053(3)
H6_3 H 0.876660 0.250001 0.181391
C10_3 C 0.86930(9) 0.29203(10) 0.0499(2)
O8_3 O 0.81910(9) 0.19496(9) 0.3577(2)
O9_3 O 0.95471(7) 0.02146(7) 0.1408(2)
C14_3 C 0.91017(10) 0.08862(10) 0.1246(3)
C15_3 C 0.88946(12) 0.08062(11) 0.2254(3)
H8_3 H 0.894760 0.053249 0.263970
C16_3 C 0.86116(12) 0.11331(11) 0.2676(3)
H9_3 H 0.847992 0.108144 0.335748
C17_3 C 0.85181(10) 0.15423(10) 0.2097(3)
C18_3 C 0.87335(9) 0.16282(9) 0.1104(2)
C19_3 C 0.90208(10) 0.12878(10) 0.0691(3)
H10_3 H 0.915967 0.133881 0.001793
C20_3 C 0.94293(9) 0.05385(11) 0.0774(3)
C21_3 C 0.81761(11) 0.18665(10) 0.2581(3)
C22_3 C 0.86930(9) 0.20797(10) 0.0499(2)
O25_2 O 0.95492(7) 0.56096(7) 0.0202(2)
O4_2 O 0.95492(7) 0.43904(7) 0.9798(2)
O6_3 O 0.84709(19) 0.28711(15) 0.7084(3)
C11_3 C 0.86372(10) 0.29188(12) 0.9355(3)
H7_3 H 0.861481 0.319852 0.897401
C12_3 C 0.86148(17) 0.250000 0.8781(4)
C13_3 C 0.8521(3) 0.250000 0.7523(5)
O10_2 O 0.95492(7) 0.06096(7) 0.9798(2)
O11_3 O 0.84709(19) 0.21289(15) 0.7084(3)
C23_3 C 0.86372(10) 0.20812(12) 0.9355(3)
H11_3 H 0.861481 0.180148 0.897401
Cu5_3 Cu 1.000000 0.47670(2) 0.90559(4)
Cu6_3 Cu 1.000000 0.02330(2) 0.90559(4)
Cu3_3 Cu 1.000000 0.97670(2) 0.09441(4)
O16_4 O 1.000000 0.93779(15) 0.2460(3)
H12_4 H 1.000000 0.949565 0.310340
H13_4 H 1.000000 0.908345 0.250820
O28_2 O 0.95492(7) 0.93904(7) 0.0202(2)
O16_5 O 0.000000 0.06221(15) 0.7540(3)
H12_5 H 0.000000 0.050435 0.689660
H13_5 H 0.000000 0.091655 0.749180
O17_4 O 0.15291(19) 0.78711(15) 0.2916(3)
C34_4 C 0.13628(10) 0.79188(12) 0.0645(3)
H18_4 H 0.138519 0.819852 0.102599
C35_4 C 0.13852(17) 0.750000 0.1219(4)
C36_4 C 0.1479(3) 0.750000 0.2477(5)
O22_4 O 0.15291(19) 0.71289(15) 0.2916(3)
C46_4 C 0.13628(10) 0.70812(12) 0.0645(3)
H22_4 H 0.138519 0.680148 0.102599
O5_5 O 0.000000 0.43779(15) 0.7540(3)
H1_5 H 0.000000 0.449565 0.689660
H2_5 H 0.000000 0.408345 0.749180
O13_4 O 0.18090(9) 0.80504(9) 0.6423(2)
O14_4 O 0.04529(7) 0.97854(7) 0.8592(2)
C24_4 C 0.08983(10) 0.91138(10) 0.8754(3)
C25_4 C 0.11054(12) 0.91938(11) 0.7746(3)
H14_4 H 0.105240 0.946751 0.736030
C26_4 C 0.13884(12) 0.88669(11) 0.7324(3)
H15_4 H 0.152008 0.891856 0.664252
C27_4 C 0.14819(10) 0.84577(10) 0.7903(3)
C28_4 C 0.12665(9) 0.83718(9) 0.8896(2)
C29_4 C 0.09792(10) 0.87122(10) 0.9309(3)
H16_4 H 0.084033 0.866119 0.998207
C30_4 C 0.05707(9) 0.94615(11) 0.9226(3)
C31_4 C 0.18239(11) 0.81335(10) 0.7419(3)
C32_4 C 0.12760(12) 0.750000 0.8947(3)
H17_4 H 0.123340 0.750001 0.818609
C33_4 C 0.13070(9) 0.79203(10) 0.9501(2)
O19_4 O 0.18090(9) 0.69496(9) 0.6423(2)
O20_4 O 0.04529(7) 0.52146(7) 0.8592(2)
C37_4 C 0.08983(10) 0.58862(10) 0.8754(3)
C38_4 C 0.11054(12) 0.58062(11) 0.7746(3)
H19_4 H 0.105240 0.553249 0.736030
C39_4 C 0.13884(12) 0.61331(11) 0.7324(3)
H20_4 H 0.152008 0.608144 0.664252
C40_4 C 0.14819(10) 0.65423(10) 0.7903(3)
C41_4 C 0.12665(9) 0.66282(9) 0.8896(2)
C42_4 C 0.09792(10) 0.62878(10) 0.9309(3)
H21_4 H 0.084033 0.633881 0.998207
C43_4 C 0.05707(9) 0.55385(11) 0.9226(3)
C44_4 C 0.18239(11) 0.68665(10) 0.7419(3)
C45_4 C 0.13070(9) 0.70797(10) 0.9501(2)
O16_6 O 1.000000 0.06221(15) 0.7540(3)
H12_6 H 1.000000 0.050435 0.689660
H13_6 H 1.000000 0.091655 0.749180
O6_4 O 0.84709(19) 0.71289(15) 0.2916(3)
C11_4 C 0.86372(10) 0.70812(12) 0.0645(3)
H7_4 H 0.861481 0.680148 0.102599
C12_4 C 0.86148(17) 0.750000 0.1219(4)
C13_4 C 0.8521(3) 0.750000 0.2477(5)
O11_4 O 0.84709(19) 0.78711(15) 0.2916(3)
C23_4 C 0.86372(10) 0.79188(12) 0.0645(3)
H11_4 H 0.861481 0.819852 0.102599
O2_4 O 0.81910(9) 0.69496(9) 0.6423(2)
O3_4 O 0.95471(7) 0.52146(7) 0.8592(2)
O5_6 O 1.000000 0.43779(15) 0.7540(3)
H1_6 H 1.000000 0.449565 0.689660
H2_6 H 1.000000 0.408345 0.749180
C1_4 C 0.91017(10) 0.58862(10) 0.8754(3)
C2_4 C 0.88946(12) 0.58062(11) 0.7746(3)
H3_4 H 0.894760 0.553249 0.736030
C3_4 C 0.86116(12) 0.61331(11) 0.7324(3)
H4_4 H 0.847992 0.608144 0.664252
C4_4 C 0.85181(10) 0.65423(10) 0.7903(3)
C5_4 C 0.87335(9) 0.66282(9) 0.8896(2)
C6_4 C 0.90208(10) 0.62878(10) 0.9309(3)
H5_4 H 0.915967 0.633881 0.998207
C7_4 C 0.94293(9) 0.55385(11) 0.9226(3)
C8_4 C 0.81761(11) 0.68665(10) 0.7419(3)
C9_4 C 0.87240(12) 0.750000 0.8947(3)
H6_4 H 0.876660 0.749999 0.818609
C10_4 C 0.86930(9) 0.70797(10) 0.9501(2)
O8_4 O 0.81910(9) 0.80504(9) 0.6423(2)
O9_4 O 0.95471(7) 0.97854(7) 0.8592(2)
C14_4 C 0.91017(10) 0.91138(10) 0.8754(3)
C15_4 C 0.88946(12) 0.91938(11) 0.7746(3)
H8_4 H 0.894760 0.946751 0.736030
C16_4 C 0.86116(12) 0.88669(11) 0.7324(3)
H9_4 H 0.847992 0.891856 0.664252
C17_4 C 0.85181(10) 0.84577(10) 0.7903(3)
C18_4 C 0.87335(9) 0.83718(9) 0.8896(2)
C19_4 C 0.90208(10) 0.87122(10) 0.9309(3)
H10_4 H 0.915967 0.866119 0.998207
C20_4 C 0.94293(9) 0.94615(11) 0.9226(3)
C21_4 C 0.81761(11) 0.81335(10) 0.7419(3)
C22_4 C 0.86930(9) 0.79203(10) 0.9501(2)
loop_
_geom_bond_atom_site_label_1
_geom_bond_atom_site_label_2
_geom_bond_site_symmetry_1
_geom_bond_site_symmetry_2
O5 Cu2 1_555 1_555
H1 O5 1_555 1_555
H2 O5 1_555 1_555
O25 Cu2 1_555 1_555
O27 Cu2 1_555 1_555
Cu1 O1 1_555 1_555
O1 C8 1_555 1_555
O2 C8 1_555 1_555
O3 C7 1_555 1_555
O4 C7 1_555 1_555
O6 C13 1_555 1_555
C1 C2 1_555 1_555
C2 H3 1_555 1_555
C3 C2 1_555 1_555
H4 C3 1_555 1_555
C4 C3 1_555 1_555
C5 C4 1_555 1_555
C6 C1 1_555 1_555
H5 C6 1_555 1_555
C7 C1 1_555 1_555
C8 C4 1_555 1_555
C9 H6 1_555 1_555
C10 C5 1_555 1_555
C11 C10 1_555 1_555
H7 C11 1_555 1_555
C12 C11 1_555 1_555
C13 C12 1_555 1_555
O7 Cu1 1_555 1_555
O8 C21 1_555 1_555
O9 C20 1_555 1_555
O10 C20 1_555 1_555
O11 C13 1_555 1_555
C14 C15 1_555 1_555
C15 H8 1_555 1_555
C16 C15 1_555 1_555
H9 C16 1_555 1_555
C17 C16 1_555 1_555
C18 C17 1_555 1_555
C19 C14 1_555 1_555
H10 C19 1_555 1_555
C20 C14 1_555 1_555
C21 O7 1_555 1_555
C22 C9 1_555 1_555
C23 C12 1_555 1_555
H11 C23 1_555 1_555
Cu3 O9 1_555 1_555
O12 C31 1_555 1_555
O13 C31 1_555 1_555
O14 Cu3 1_555 1_555
O15 C30 1_555 1_555
O16 Cu3 1_555 1_555
H12 O16 1_555 1_555
H13 O16 1_555 1_555
O17 C36 1_555 1_555
C24 C25 1_555 1_555
C25 H14 1_555 1_555
C26 C25 1_555 1_555
H15 C26 1_555 1_555
C27 C26 1_555 1_555
C28 C27 1_555 1_555
C29 C24 1_555 1_555
H16 C29 1_555 1_555
C30 O14 1_555 1_555
C31 C27 1_555 1_555
C32 H17 1_555 1_555
C33 C28 1_555 1_555
C34 C33 1_555 1_555
H18 C34 1_555 1_555
C35 C34 1_555 1_555
C36 C35 1_555 1_555
O18 C44 1_555 1_555
O19 C44 1_555 1_555
O21 C43 1_555 1_555
O22 C36 1_555 1_555
C37 C38 1_555 1_555
C38 H19 1_555 1_555
C39 C38 1_555 1_555
H20 C39 1_555 1_555
C40 C39 1_555 1_555
C41 C40 1_555 1_555
C42 C37 1_555 1_555
H21 C42 1_555 1_555
C43 O20 1_555 1_555
C44 C40 1_555 1_555
C45 C32 1_555 1_555
C46 C35 1_555 1_555
H22 C46 1_555 1_555
Cu4 O12 1_555 1_555
Cu6 O10 1_555 1_555
O23 Cu1 1_555 1_555
O24 Cu1 1_555 1_555
O26 Cu3 1_555 1_555
O28 Cu3 1_555 1_555
O4 Cu5 1_555 1_555
C5 C6 1_555 1_555
C9 C10 1_555 1_555
C17 C21 1_555 1_555
C18 C19 1_555 1_555
C18 C22 1_555 1_555
C22 C23 1_555 1_555
Cu3 Cu6 1_555 1_555
O15 Cu6 1_555 1_555
C24 C30 1_555 1_555
C28 C29 1_555 1_555
C32 C33 1_555 1_555
O18 Cu4 1_555 1_555
O21 Cu5 1_555 1_555
C37 C43 1_555 1_555
C41 C42 1_555 1_555
C41 C45 1_555 1_555
C45 C46 1_555 1_555
O23_2 Cu4 1_555 1_555
O24_2 Cu4 1_555 1_555
Cu1_2 O1_2 1_555 1_555
O1_2 C8_2 1_555 1_555
O2_2 C8_2 1_555 1_555
O3_2 C7_2 1_555 1_555
O25 C7_2 1_555 1_555
O6_2 C13_2 1_555 1_555
C1_2 C2_2 1_555 1_555
C2_2 H3_2 1_555 1_555
C3_2 C2_2 1_555 1_555
H4_2 C3_2 1_555 1_555
C4_2 C3_2 1_555 1_555
C5_2 C4_2 1_555 1_555
C6_2 C1_2 1_555 1_555
H5_2 C6_2 1_555 1_555
C7_2 C1_2 1_555 1_555
C8_2 C4_2 1_555 1_555
C9_2 H6_2 1_555 1_555
C10_2 C5_2 1_555 1_555
C11_2 C10_2 1_555 1_555
H7_2 C11_2 1_555 1_555
C12_2 C11_2 1_555 1_555
C13_2 C12_2 1_555 1_555
O7_2 Cu1_2 1_555 1_555
O8_2 C21_2 1_555 1_555
O9_2 C20_2 1_555 1_555
O28 C20_2 1_555 1_555
O11_2 C13_2 1_555 1_555
C14_2 C15_2 1_555 1_555
C15_2 H8_2 1_555 1_555
C16_2 C15_2 1_555 1_555
H9_2 C16_2 1_555 1_555
C17_2 C16_2 1_555 1_555
C18_2 C17_2 1_555 1_555
C19_2 C14_2 1_555 1_555
H10_2 C19_2 1_555 1_555
C20_2 C14_2 1_555 1_555
C21_2 O7_2 1_555 1_555
C22_2 C9_2 1_555 1_555
C23_2 C12_2 1_555 1_555
H11_2 C23_2 1_555 1_555
Cu6 O9_2 1_555 1_555
O12_2 C31_2 1_555 1_555
O13_2 C31_2 1_555 1_555
O14_2 Cu6 1_555 1_555
O26 C30_2 1_555 1_555
O16_2 Cu6 1_555 1_555
H12_2 O16_2 1_555 1_555
H13_2 O16_2 1_555 1_555
O17_2 C36_2 1_555 1_555
C24_2 C25_2 1_555 1_555
C25_2 H14_2 1_555 1_555
C26_2 C25_2 1_555 1_555
H15_2 C26_2 1_555 1_555
C27_2 C26_2 1_555 1_555
C28_2 C27_2 1_555 1_555
C29_2 C24_2 1_555 1_555
H16_2 C29_2 1_555 1_555
C30_2 O14_2 1_555 1_555
C31_2 C27_2 1_555 1_555
C32_2 H17_2 1_555 1_555
C33_2 C28_2 1_555 1_555
C34_2 C33_2 1_555 1_555
H18_2 C34_2 1_555 1_555
C35_2 C34_2 1_555 1_555
C36_2 C35_2 1_555 1_555
O18_2 C44_2 1_555 1_555
O19_2 C44_2 1_555 1_555
O27 C43_2 1_555 1_555
O22_2 C36_2 1_555 1_555
C37_2 C38_2 1_555 1_555
C38_2 H19_2 1_555 1_555
C39_2 C38_2 1_555 1_555
H20_2 C39_2 1_555 1_555
C40_2 C39_2 1_555 1_555
C41_2 C40_2 1_555 1_555
C42_2 C37_2 1_555 1_555
H21_2 C42_2 1_555 1_555
C43_2 O20_2 1_555 1_555
C44_2 C40_2 1_555 1_555
C45_2 C32_2 1_555 1_555
C46_2 C35_2 1_555 1_555
H22_2 C46_2 1_555 1_555
Cu4_2 O12_2 1_555 1_555
O23_3 Cu1_2 1_555 1_555
O24_3 Cu1_2 1_555 1_555
C5_2 C6_2 1_555 1_555
C9_2 C10_2 1_555 1_555
C17_2 C21_2 1_555 1_555
C18_2 C19_2 1_555 1_555
C18_2 C22_2 1_555 1_555
C22_2 C23_2 1_555 1_555
C24_2 C30_2 1_555 1_555
C28_2 C29_2 1_555 1_555
C32_2 C33_2 1_555 1_555
O18_2 Cu4_2 1_555 1_555
C37_2 C43_2 1_555 1_555
C41_2 C42_2 1_555 1_555
C41_2 C45_2 1_555 1_555
C45_2 C46_2 1_555 1_555
O5_2 Cu5 1_555 1_555
H1_2 O5_2 1_555 1_555
H2_2 O5_2 1_555 1_555
O23_4 Cu4_2 1_555 1_555
O24_4 Cu4_2 1_555 1_555
O5_3 Cu2_2 1_555 1_555
H1_3 O5_3 1_555 1_555
H2_3 O5_3 1_555 1_555
O23_3 C31_3 1_555 1_555
O13_3 C31_3 1_555 1_555
C24_3 C25_3 1_555 1_555
C25_3 H14_3 1_555 1_555
C26_3 C25_3 1_555 1_555
H15_3 C26_3 1_555 1_555
C27_3 C26_3 1_555 1_555
C28_3 C27_3 1_555 1_555
C29_3 C24_3 1_555 1_555
H16_3 C29_3 1_555 1_555
C30_3 O14_3 1_555 1_555
C31_3 C27_3 1_555 1_555
C32_3 H17_3 1_555 1_555
C33_3 C28_3 1_555 1_555
O24_3 C44_3 1_555 1_555
O19_3 C44_3 1_555 1_555
O20_3 Cu2_2 1_555 1_555
C37_3 C38_3 1_555 1_555
C38_3 H19_3 1_555 1_555
C39_3 C38_3 1_555 1_555
H20_3 C39_3 1_555 1_555
C40_3 C39_3 1_555 1_555
C41_3 C40_3 1_555 1_555
C42_3 C37_3 1_555 1_555
H21_3 C42_3 1_555 1_555
C43_3 O20_3 1_555 1_555
C44_3 C40_3 1_555 1_555
C45_3 C32_3 1_555 1_555
O27_2 Cu2_2 1_555 1_555
C24_3 C30_3 1_555 1_555
C28_3 C29_3 1_555 1_555
C32_3 C33_3 1_555 1_555
C37_3 C43_3 1_555 1_555
C41_3 C42_3 1_555 1_555
C41_3 C45_3 1_555 1_555
O17_3 C36_3 1_555 1_555
H18_3 C34_3 1_555 1_555
C35_3 C34_3 1_555 1_555
C36_3 C35_3 1_555 1_555
O22_3 C36_3 1_555 1_555
C46_3 C35_3 1_555 1_555
H22_3 C46_3 1_555 1_555
O15_2 Cu6_2 1_555 1_555
O21_2 Cu5_2 1_555 1_555
O16_3 Cu3_2 1_555 1_555
H12_3 O16_3 1_555 1_555
H13_3 O16_3 1_555 1_555
O26_2 Cu3_2 1_555 1_555
Cu2_3 O3_3 1_555 1_555
O23_4 C8_3 1_555 1_555
O2_3 C8_3 1_555 1_555
O3_3 C7_3 1_555 1_555
O5_4 Cu2_3 1_555 1_555
H1_4 O5_4 1_555 1_555
H2_4 O5_4 1_555 1_555
C1_3 C2_3 1_555 1_555
C2_3 H3_3 1_555 1_555
C3_3 C2_3 1_555 1_555
H4_3 C3_3 1_555 1_555
C4_3 C3_3 1_555 1_555
C5_3 C4_3 1_555 1_555
C6_3 C1_3 1_555 1_555
H5_3 C6_3 1_555 1_555
C7_3 C1_3 1_555 1_555
C8_3 C4_3 1_555 1_555
C9_3 H6_3 1_555 1_555
C10_3 C5_3 1_555 1_555
O8_3 C21_3 1_555 1_555
O9_3 C20_3 1_555 1_555
C14_3 C15_3 1_555 1_555
C15_3 H8_3 1_555 1_555
C16_3 C15_3 1_555 1_555
H9_3 C16_3 1_555 1_555
C17_3 C16_3 1_555 1_555
C18_3 C17_3 1_555 1_555
C19_3 C14_3 1_555 1_555
H10_3 C19_3 1_555 1_555
C20_3 C14_3 1_555 1_555
C21_3 O24_4 1_555 1_555
C22_3 C9_3 1_555 1_555
O25_2 Cu2_3 1_555 1_555
C5_3 C6_3 1_555 1_555
C9_3 C10_3 1_555 1_555
C17_3 C21_3 1_555 1_555
C18_3 C19_3 1_555 1_555
C18_3 C22_3 1_555 1_555
O6_3 C13_3 1_555 1_555
H7_3 C11_3 1_555 1_555
C12_3 C11_3 1_555 1_555
C13_3 C12_3 1_555 1_555
O11_3 C13_3 1_555 1_555
C23_3 C12_3 1_555 1_555
H11_3 C23_3 1_555 1_555
Cu6_3 O10_2 1_555 1_555
O4_2 Cu5_3 1_555 1_555
O16_4 Cu3_3 1_555 1_555
H12_4 O16_4 1_555 1_555
H13_4 O16_4 1_555 1_555
O28_2 Cu3_3 1_555 1_555
O16_5 Cu6_2 1_555 1_555
H12_5 O16_5 1_555 1_555
H13_5 O16_5 1_555 1_555
O17_4 C36_4 1_555 1_555
H18_4 C34_4 1_555 1_555
C35_4 C34_4 1_555 1_555
C36_4 C35_4 1_555 1_555
O22_4 C36_4 1_555 1_555
C46_4 C35_4 1_555 1_555
H22_4 C46_4 1_555 1_555
O5_5 Cu5_2 1_555 1_555
H1_5 O5_5 1_555 1_555
H2_5 O5_5 1_555 1_555
O23 C31_4 1_555 1_555
O13_4 C31_4 1_555 1_555
C24_4 C25_4 1_555 1_555
C25_4 H14_4 1_555 1_555
C26_4 C25_4 1_555 1_555
H15_4 C26_4 1_555 1_555
C27_4 C26_4 1_555 1_555
C28_4 C27_4 1_555 1_555
C29_4 C24_4 1_555 1_555
H16_4 C29_4 1_555 1_555
C30_4 O14_4 1_555 1_555
C31_4 C27_4 1_555 1_555
C32_4 H17_4 1_555 1_555
C33_4 C28_4 1_555 1_555
O24 C44_4 1_555 1_555
O19_4 C44_4 1_555 1_555
O20_4 Cu5_2 1_555 1_555
C37_4 C38_4 1_555 1_555
C38_4 H19_4 1_555 1_555
C39_4 C38_4 1_555 1_555
H20_4 C39_4 1_555 1_555
C40_4 C39_4 1_555 1_555
C41_4 C40_4 1_555 1_555
C42_4 C37_4 1_555 1_555
H21_4 C42_4 1_555 1_555
C43_4 O20_4 1_555 1_555
C44_4 C40_4 1_555 1_555
C45_4 C32_4 1_555 1_555
C24_4 C30_4 1_555 1_555
C28_4 C29_4 1_555 1_555
C32_4 C33_4 1_555 1_555
C37_4 C43_4 1_555 1_555
C41_4 C42_4 1_555 1_555
C41_4 C45_4 1_555 1_555
O16_6 Cu6_3 1_555 1_555
H12_6 O16_6 1_555 1_555
H13_6 O16_6 1_555 1_555
O6_4 C13_4 1_555 1_555
H7_4 C11_4 1_555 1_555
C12_4 C11_4 1_555 1_555
C13_4 C12_4 1_555 1_555
O11_4 C13_4 1_555 1_555
C23_4 C12_4 1_555 1_555
H11_4 C23_4 1_555 1_555
Cu5_3 O3_4 1_555 1_555
O23_2 C8_4 1_555 1_555
O2_4 C8_4 1_555 1_555
O3_4 C7_4 1_555 1_555
O5_6 Cu5_3 1_555 1_555
H1_6 O5_6 1_555 1_555
H2_6 O5_6 1_555 1_555
C1_4 C2_4 1_555 1_555
C2_4 H3_4 1_555 1_555
C3_4 C2_4 1_555 1_555
H4_4 C3_4 1_555 1_555
C4_4 C3_4 1_555 1_555
C5_4 C4_4 1_555 1_555
C6_4 C1_4 1_555 1_555
H5_4 C6_4 1_555 1_555
C7_4 C1_4 1_555 1_555
C8_4 C4_4 1_555 1_555
C9_4 H6_4 1_555 1_555
C10_4 C5_4 1_555 1_555
O8_4 C21_4 1_555 1_555
O9_4 C20_4 1_555 1_555
C14_4 C15_4 1_555 1_555
C15_4 H8_4 1_555 1_555
C16_4 C15_4 1_555 1_555
H9_4 C16_4 1_555 1_555
C17_4 C16_4 1_555 1_555
C18_4 C17_4 1_555 1_555
C19_4 C14_4 1_555 1_555
H10_4 C19_4 1_555 1_555
C20_4 C14_4 1_555 1_555
C21_4 O24_2 1_555 1_555
C22_4 C9_4 1_555 1_555
C5_4 C6_4 1_555 1_555
C9_4 C10_4 1_555 1_555
C17_4 C21_4 1_555 1_555
C18_4 C19_4 1_555 1_555
C18_4 C22_4 1_555 1_555

#END
