
###############################################################################
#
# This file contains modified crystal structure data generated from the
# MOF subset of the Cambridge Structural Database (CSD) v543 
# hosted by the Cambridge Crystallographic Data Centre (CCDC).
#
# This work is licensed under the Creative Commons
# Attribution-NonCommercial-ShareAlike 4.0 International License.
# To view a copy of this license, visit
# http://creativecommons.org/licenses/by-nc-sa/4.0/
# or send a letter to
# Creative Commons, PO Box 1866, Mountain View, CA 94042, USA.
#
# CIF created using the CSD Python API on 29 September 2022
# The structure has been converted into the P1 space group
# The structure has a 3D framework
# The original CSD entry VAQLIK is in the tetragonal crystal system
# The framework has been calculated to contain at least 10.0% void space
# The void calculation uses a probe of radius 1.32A, grid spacing 0.4
# H atom positions have been added when not included in the experimental data
#
###############################################################################

data_VAQLIK
_chemical_formula_moiety         '(C160 H192 N32 O80 Zn12)n'
_symmetry_cell_setting           triclinic
_symmetry_space_group_name_H-M   'P 1'
_symmetry_Int_Tables_number      1
_space_group_name_Hall           'P 1'
loop_
_symmetry_equiv_pos_site_id
_symmetry_equiv_pos_as_xyz
1 x,y,z
_cell_length_a                   13.0598(11)
_cell_length_b                   13.0598(11)
_cell_length_c                   32.489(3)
_cell_angle_alpha                90
_cell_angle_beta                 90
_cell_angle_gamma                90
_cell_volume                     5541.27
loop_
_atom_site_label
_atom_site_type_symbol
_atom_site_fract_x
_atom_site_fract_y
_atom_site_fract_z
Zn1 Zn 0.30369(3) 0.46811(3) 0.251224(10)
C1 C 0.1373(3) 0.4516(3) 0.19053(10)
H1 H 0.1125 0.4328 0.1634
H2 H 0.0963 0.5084 0.2004
C2 C 0.1249(2) 0.3610(2) 0.21960(10)
C3 C 0.3069(3) 0.4116(3) 0.16275(11)
H3 H 0.3130 0.4378 0.1349
H4 H 0.2711 0.3466 0.1613
C4 C 0.4137(3) 0.3937(3) 0.18014(12)
C5 C 0.2558(3) 0.5904(3) 0.17170(10)
H5 H 0.3280 0.6063 0.1687
H6 H 0.2274 0.6373 0.1919
C6 C 0.2044(3) 0.6334(3) 0.05751(11)
H7 H 0.2421 0.6375 0.0333
C7 C 0.2557(3) 0.6126(4) 0.09443(11)
H8 H 0.3261 0.6017 0.0944
C8 C 0.2024(3) 0.6082(3) 0.13034(10)
C9 C 0.0983(3) 0.6245(3) 0.12874(11)
H9 H 0.0594 0.6232 0.1527
C10 C 0.0521(3) 0.6427(3) 0.09104(11)
N1 N 0.2454(2) 0.4840(2) 0.18744(8)
N2 N 0.1038(2) 0.6475(2) 0.05589(9)
O1 O 0.19645(18) 0.33909(19) 0.24347(7)
O2 O 0.03979(19) 0.31805(18) 0.21798(8)
O3 O 0.42368(18) 0.4036(2) 0.21837(8)
O4 O 0.4820(2) 0.3667(3) 0.15676(9)
O5 O 0.39388(18) 0.5989(2) 0.25686(8)
Zn2 Zn 0.03189(3) 0.69631(3) 0.001224(10)
N3 N 0.3525(2) 0.3962(2) 0.30589(9)
O6 O 0.18195(18) 0.53979(19) 0.28202(8)
H11 H 0.350706 0.660664 0.25279
H12 H 0.425073 0.600866 0.284723
H10 H 0.9815 0.6519 0.0903
Zn3 Zn 0.96811(3) 0.19631(3) 0.248776(10)
H10_2 H 0.0185 0.3481 0.0903
Zn3_2 Zn 0.03189(3) 0.80369(3) 0.248776(10)
Zn1_2 Zn 0.69631(3) 0.53189(3) 0.251224(10)
C1_2 C 0.8627(3) 0.5484(3) 0.19053(10)
H1_2 H 0.8875 0.5672 0.1634
H2_2 H 0.9037 0.4916 0.2004
C2_2 C 0.8751(2) 0.6390(2) 0.21960(10)
C3_2 C 0.6931(3) 0.5884(3) 0.16275(11)
H3_2 H 0.6870 0.5622 0.1349
H4_2 H 0.7289 0.6534 0.1613
C4_2 C 0.5863(3) 0.6063(3) 0.18014(12)
C5_2 C 0.7442(3) 0.4096(3) 0.17170(10)
H5_2 H 0.6720 0.3937 0.1687
H6_2 H 0.7726 0.3627 0.1919
C6_2 C 0.7956(3) 0.3666(3) 0.05751(11)
H7_2 H 0.7579 0.3625 0.0333
C7_2 C 0.7443(3) 0.3874(4) 0.09443(11)
H8_2 H 0.6739 0.3983 0.0944
C8_2 C 0.7976(3) 0.3918(3) 0.13034(10)
C9_2 C 0.9017(3) 0.3755(3) 0.12874(11)
H9_2 H 0.9406 0.3768 0.1527
C10_2 C 0.9479(3) 0.3573(3) 0.09104(11)
N1_2 N 0.7546(2) 0.5160(2) 0.18744(8)
N2_2 N 0.8962(2) 0.3525(2) 0.05589(9)
O1_2 O 0.80355(18) 0.66091(19) 0.24347(7)
O2_2 O 0.96021(19) 0.68195(18) 0.21798(8)
O3_2 O 0.57632(18) 0.5964(2) 0.21837(8)
O4_2 O 0.5180(2) 0.6333(3) 0.15676(9)
O5_2 O 0.60612(18) 0.4011(2) 0.25686(8)
Zn2_2 Zn 0.96811(3) 0.30369(3) 0.001224(10)
N3_2 N 0.6475(2) 0.6038(2) 0.30589(9)
O6_2 O 0.81805(18) 0.46021(19) 0.28202(8)
H11_2 H 0.649294 0.339336 0.25279
H12_2 H 0.574927 0.399134 0.284723
H10_3 H 0.6519 0.0185 0.9097
Zn3_3 Zn 0.19631(3) 0.03189(3) 0.751224(10)
Zn1_3 Zn 0.46811(3) 0.69631(3) 0.748776(10)
C1_3 C 0.4516(3) 0.8627(3) 0.80947(10)
H1_3 H 0.4328 0.8875 0.8366
H2_3 H 0.5084 0.9037 0.7996
C2_3 C 0.3610(2) 0.8751(2) 0.78040(10)
C3_3 C 0.4116(3) 0.6931(3) 0.83725(11)
H3_3 H 0.4378 0.6870 0.8651
H4_3 H 0.3466 0.7289 0.8387
C4_3 C 0.3937(3) 0.5863(3) 0.81986(12)
C5_3 C 0.5904(3) 0.7442(3) 0.82830(10)
H5_3 H 0.6063 0.6720 0.8313
H6_3 H 0.6373 0.7726 0.8081
C6_3 C 0.6334(3) 0.7956(3) 0.94249(11)
H7_3 H 0.6375 0.7579 0.9667
C7_3 C 0.6126(4) 0.7443(3) 0.90557(11)
H8_3 H 0.6017 0.6739 0.9056
C8_3 C 0.6082(3) 0.7976(3) 0.86966(10)
C9_3 C 0.6245(3) 0.9017(3) 0.87126(11)
H9_3 H 0.6232 0.9406 0.8473
C10_3 C 0.6427(3) 0.9479(3) 0.90896(11)
N1_3 N 0.4840(2) 0.7546(2) 0.81256(8)
N2_3 N 0.6475(2) 0.8962(2) 0.94411(9)
O1_3 O 0.33909(19) 0.80355(18) 0.75653(7)
O2_3 O 0.31805(18) 0.96021(19) 0.78202(8)
O3_3 O 0.4036(2) 0.57632(18) 0.78163(8)
O4_3 O 0.3667(3) 0.5180(2) 0.84324(9)
O5_3 O 0.5989(2) 0.60612(18) 0.74314(8)
Zn2_3 Zn 0.69631(3) 0.96811(3) 0.998776(10)
N3_3 N 0.3962(2) 0.6475(2) 0.69411(9)
O6_3 O 0.53979(19) 0.81805(18) 0.71798(8)
H11_3 H 0.660664 0.649294 0.74721
H12_3 H 0.600866 0.574927 0.715277
Zn1_4 Zn 0.53189(3) 0.30369(3) 0.748776(10)
C1_4 C 0.5484(3) 0.1373(3) 0.80947(10)
H1_4 H 0.5672 0.1125 0.8366
H2_4 H 0.4916 0.0963 0.7996
C2_4 C 0.6390(2) 0.1249(2) 0.78040(10)
C3_4 C 0.5884(3) 0.3069(3) 0.83725(11)
H3_4 H 0.5622 0.3130 0.8651
H4_4 H 0.6534 0.2711 0.8387
C4_4 C 0.6063(3) 0.4137(3) 0.81986(12)
C5_4 C 0.4096(3) 0.2558(3) 0.82830(10)
H5_4 H 0.3937 0.3280 0.8313
H6_4 H 0.3627 0.2274 0.8081
C6_4 C 0.3666(3) 0.2044(3) 0.94249(11)
H7_4 H 0.3625 0.2421 0.9667
C7_4 C 0.3874(4) 0.2557(3) 0.90557(11)
H8_4 H 0.3983 0.3261 0.9056
C8_4 C 0.3918(3) 0.2024(3) 0.86966(10)
C9_4 C 0.3755(3) 0.0983(3) 0.87126(11)
H9_4 H 0.3768 0.0594 0.8473
C10_4 C 0.3573(3) 0.0521(3) 0.90896(11)
N1_4 N 0.5160(2) 0.2454(2) 0.81256(8)
N2_4 N 0.3525(2) 0.1038(2) 0.94411(9)
O1_4 O 0.66091(19) 0.19645(18) 0.75653(7)
O2_4 O 0.68195(18) 0.03979(19) 0.78202(8)
O3_4 O 0.5964(2) 0.42368(18) 0.78163(8)
O4_4 O 0.6333(3) 0.4820(2) 0.84324(9)
O5_4 O 0.4011(2) 0.39388(18) 0.74314(8)
Zn2_4 Zn 0.30369(3) 0.03189(3) 0.998776(10)
N3_4 N 0.6038(2) 0.3525(2) 0.69411(9)
O6_4 O 0.46021(19) 0.18195(18) 0.71798(8)
H11_4 H 0.339336 0.350706 0.74721
H12_4 H 0.399134 0.425073 0.715277
H10_4 H 0.3481 0.9815 0.9097
Zn3_4 Zn 0.80369(3) 0.96811(3) 0.751224(10)
Zn1_5 Zn 0.19631(3) 0.46811(3) 0.498776(10)
C1_5 C 0.3627(3) 0.4516(3) 0.55947(10)
H1_5 H 0.3875 0.4328 0.5866
H2_5 H 0.4037 0.5084 0.5496
C2_5 C 0.3751(2) 0.3610(2) 0.53040(10)
C3_5 C 0.1931(3) 0.4116(3) 0.58725(11)
H3_5 H 0.1870 0.4378 0.6151
H4_5 H 0.2289 0.3466 0.5887
C4_5 C 0.0863(3) 0.3937(3) 0.56986(12)
C5_5 C 0.2442(3) 0.5904(3) 0.57830(10)
H5_5 H 0.1720 0.6063 0.5813
H6_5 H 0.2726 0.6373 0.5581
C6_5 C 0.2956(3) 0.6334(3) 0.69249(11)
H7_5 H 0.2579 0.6375 0.7167
C7_5 C 0.2443(3) 0.6126(4) 0.65557(11)
H8_5 H 0.1739 0.6017 0.6556
C8_5 C 0.2976(3) 0.6082(3) 0.61966(10)
C9_5 C 0.4017(3) 0.6245(3) 0.62126(11)
H9_5 H 0.4406 0.6232 0.5973
C10_5 C 0.4479(3) 0.6427(3) 0.65896(11)
H10_5 H 0.5185 0.6519 0.6597
N1_5 N 0.2546(2) 0.4840(2) 0.56256(8)
O1_5 O 0.30355(18) 0.33909(19) 0.50653(7)
O2_5 O 0.46021(19) 0.31805(18) 0.53202(8)
O3_5 O 0.07632(18) 0.4036(2) 0.53163(8)
O4_5 O 0.0180(2) 0.3667(3) 0.59324(9)
O5_5 O 0.10612(18) 0.5989(2) 0.49314(8)
Zn3_5 Zn 0.53189(3) 0.19631(3) 0.501224(10)
N3_5 N 0.1475(2) 0.3962(2) 0.44411(9)
O6_5 O 0.31805(18) 0.53979(19) 0.46798(8)
H11_5 H 0.149294 0.660664 0.49721
H12_5 H 0.0749273 0.600866 0.465277
Zn1_6 Zn 0.80369(3) 0.53189(3) 0.498776(10)
C1_6 C 0.6373(3) 0.5484(3) 0.55947(10)
H1_6 H 0.6125 0.5672 0.5866
H2_6 H 0.5963 0.4916 0.5496
C2_6 C 0.6249(2) 0.6390(2) 0.53040(10)
C3_6 C 0.8069(3) 0.5884(3) 0.58725(11)
H3_6 H 0.8130 0.5622 0.6151
H4_6 H 0.7711 0.6534 0.5887
C4_6 C 0.9137(3) 0.6063(3) 0.56986(12)
C5_6 C 0.7558(3) 0.4096(3) 0.57830(10)
H5_6 H 0.8280 0.3937 0.5813
H6_6 H 0.7274 0.3627 0.5581
C6_6 C 0.7044(3) 0.3666(3) 0.69249(11)
H7_6 H 0.7421 0.3625 0.7167
C7_6 C 0.7557(3) 0.3874(4) 0.65557(11)
H8_6 H 0.8261 0.3983 0.6556
C8_6 C 0.7024(3) 0.3918(3) 0.61966(10)
C9_6 C 0.5983(3) 0.3755(3) 0.62126(11)
H9_6 H 0.5594 0.3768 0.5973
C10_6 C 0.5521(3) 0.3573(3) 0.65896(11)
H10_6 H 0.4815 0.3481 0.6597
N1_6 N 0.7454(2) 0.5160(2) 0.56256(8)
O1_6 O 0.69645(18) 0.66091(19) 0.50653(7)
O2_6 O 0.53979(19) 0.68195(18) 0.53202(8)
O3_6 O 0.92368(18) 0.5964(2) 0.53163(8)
O4_6 O 0.9820(2) 0.6333(3) 0.59324(9)
O5_6 O 0.89388(18) 0.4011(2) 0.49314(8)
Zn3_6 Zn 0.46811(3) 0.80369(3) 0.501224(10)
N3_6 N 0.8525(2) 0.6038(2) 0.44411(9)
O6_6 O 0.68195(18) 0.46021(19) 0.46798(8)
H11_6 H 0.850706 0.339336 0.49721
H12_6 H 0.925073 0.399134 0.465277
H2_7 H 0.9916 0.9037 0.9504
C5_7 C 0.9096(3) 0.7442(3) 0.92170(10)
H5_7 H 0.8937 0.6720 0.9187
H6_7 H 0.8627 0.7726 0.9419
C6_7 C 0.8666(3) 0.7956(3) 0.80751(11)
H7_7 H 0.8625 0.7579 0.7833
C7_7 C 0.8874(4) 0.7443(3) 0.84443(11)
H8_7 H 0.8983 0.6739 0.8444
C8_7 C 0.8918(3) 0.7976(3) 0.88034(10)
C9_7 C 0.8755(3) 0.9017(3) 0.87874(11)
H9_7 H 0.8768 0.9406 0.9027
C10_7 C 0.8573(3) 0.9479(3) 0.84104(11)
N2_5 N 0.8525(2) 0.8962(2) 0.80589(9)
H2_8 H 0.0084 0.0963 0.9504
C5_8 C 0.0904(3) 0.2558(3) 0.92170(10)
H5_8 H 0.1063 0.3280 0.9187
H6_8 H 0.1373 0.2274 0.9419
C6_8 C 0.1334(3) 0.2044(3) 0.80751(11)
H7_8 H 0.1375 0.2421 0.7833
C7_8 C 0.1126(4) 0.2557(3) 0.84443(11)
H8_8 H 0.1017 0.3261 0.8444
C8_8 C 0.1082(3) 0.2024(3) 0.88034(10)
C9_8 C 0.1245(3) 0.0983(3) 0.87874(11)
H9_8 H 0.1232 0.0594 0.9027
C10_8 C 0.1427(3) 0.0521(3) 0.84104(11)
N2_6 N 0.1475(2) 0.1038(2) 0.80589(9)
H2_9 H 0.5963 0.0084 0.7004
C5_9 C 0.7558(3) 0.0904(3) 0.67170(10)
H5_9 H 0.8280 0.1063 0.6687
H6_9 H 0.7274 0.1373 0.6919
C6_9 C 0.7044(3) 0.1334(3) 0.55751(11)
H7_9 H 0.7421 0.1375 0.5333
C7_9 C 0.7557(3) 0.1126(4) 0.59443(11)
H8_9 H 0.8261 0.1017 0.5944
C8_9 C 0.7024(3) 0.1082(3) 0.63034(10)
C9_9 C 0.5983(3) 0.1245(3) 0.62874(11)
H9_9 H 0.5594 0.1232 0.6527
C10_9 C 0.5521(3) 0.1427(3) 0.59104(11)
H10_7 H 0.4815 0.1519 0.5903
N2_7 N 0.6038(2) 0.1475(2) 0.55589(9)
O5_7 O 0.89388(18) 0.0989(2) 0.75686(8)
H11_7 H 0.850706 0.160664 0.75279
H12_7 H 0.925073 0.100866 0.784723
C1_7 C 0.6373(3) 0.9516(3) 0.69053(10)
H1_7 H 0.6125 0.9328 0.6634
C2_7 C 0.6249(2) 0.8610(2) 0.71960(10)
C3_7 C 0.8069(3) 0.9116(3) 0.66275(11)
H3_7 H 0.8130 0.9378 0.6349
H4_7 H 0.7711 0.8466 0.6613
C4_7 C 0.9137(3) 0.8937(3) 0.68014(12)
N1_7 N 0.7454(2) 0.9840(2) 0.68744(8)
O1_7 O 0.69645(18) 0.83909(19) 0.74347(7)
O3_7 O 0.92368(18) 0.9036(2) 0.71837(8)
O4_7 O 0.9820(2) 0.8667(3) 0.65676(9)
C1_8 C 0.3627(3) 0.0484(3) 0.69053(10)
H1_8 H 0.3875 0.0672 0.6634
C2_8 C 0.3751(2) 0.1390(2) 0.71960(10)
C3_8 C 0.1931(3) 0.0884(3) 0.66275(11)
H3_8 H 0.1870 0.0622 0.6349
H4_8 H 0.2289 0.1534 0.6613
C4_8 C 0.0863(3) 0.1063(3) 0.68014(12)
N1_8 N 0.2546(2) 0.0160(2) 0.68744(8)
O1_8 O 0.30355(18) 0.16091(19) 0.74347(7)
O3_8 O 0.07632(18) 0.0964(2) 0.71837(8)
O4_8 O 0.0180(2) 0.1333(3) 0.65676(9)
H2_10 H 0.4037 0.9916 0.7004
C5_10 C 0.2442(3) 0.9096(3) 0.67170(10)
H5_10 H 0.1720 0.8937 0.6687
H6_10 H 0.2726 0.8627 0.6919
C6_10 C 0.2956(3) 0.8666(3) 0.55751(11)
H7_10 H 0.2579 0.8625 0.5333
C7_10 C 0.2443(3) 0.8874(4) 0.59443(11)
H8_10 H 0.1739 0.8983 0.5944
C8_10 C 0.2976(3) 0.8918(3) 0.63034(10)
C9_10 C 0.4017(3) 0.8755(3) 0.62874(11)
H9_10 H 0.4406 0.8768 0.6527
C10_10 C 0.4479(3) 0.8573(3) 0.59104(11)
H10_8 H 0.5185 0.8481 0.5903
N2_8 N 0.3962(2) 0.8525(2) 0.55589(9)
O5_8 O 0.10612(18) 0.9011(2) 0.75686(8)
H11_8 H 0.149294 0.839336 0.75279
H12_8 H 0.0749273 0.899134 0.784723
H2_11 H 0.0084 0.4037 0.2996
C5_11 C 0.0904(3) 0.2442(3) 0.32830(10)
H5_11 H 0.1063 0.1720 0.3313
H6_11 H 0.1373 0.2726 0.3081
C6_11 C 0.1334(3) 0.2956(3) 0.44249(11)
H7_11 H 0.1375 0.2579 0.4667
C7_11 C 0.1126(4) 0.2443(3) 0.40557(11)
H8_11 H 0.1017 0.1739 0.4056
C8_11 C 0.1082(3) 0.2976(3) 0.36966(10)
C9_11 C 0.1245(3) 0.4017(3) 0.37126(11)
H9_11 H 0.1232 0.4406 0.3473
C10_11 C 0.1427(3) 0.4479(3) 0.40896(11)
H10_9 H 0.1519 0.5185 0.4097
O5_9 O 0.0989(2) 0.10612(18) 0.24314(8)
H11_9 H 0.160664 0.149294 0.24721
H12_9 H 0.100866 0.0749273 0.215277
C1_9 C 0.9516(3) 0.3627(3) 0.30947(10)
H1_9 H 0.9328 0.3875 0.3366
C2_9 C 0.8610(2) 0.3751(2) 0.28040(10)
C3_9 C 0.9116(3) 0.1931(3) 0.33725(11)
H3_9 H 0.9378 0.1870 0.3651
H4_9 H 0.8466 0.2289 0.3387
C4_9 C 0.8937(3) 0.0863(3) 0.31986(12)
N1_9 N 0.9840(2) 0.2546(2) 0.31256(8)
O1_9 O 0.83909(19) 0.30355(18) 0.25653(7)
O3_9 O 0.9036(2) 0.07632(18) 0.28163(8)
O4_9 O 0.8667(3) 0.0180(2) 0.34324(9)
N3_7 N 0.8962(2) 0.1475(2) 0.19411(9)
C1_10 C 0.0484(3) 0.6373(3) 0.30947(10)
H1_10 H 0.0672 0.6125 0.3366
C2_10 C 0.1390(2) 0.6249(2) 0.28040(10)
C3_10 C 0.0884(3) 0.8069(3) 0.33725(11)
H3_10 H 0.0622 0.8130 0.3651
H4_10 H 0.1534 0.7711 0.3387
C4_10 C 0.1063(3) 0.9137(3) 0.31986(12)
N1_10 N 0.0160(2) 0.7454(2) 0.31256(8)
O1_10 O 0.16091(19) 0.69645(18) 0.25653(7)
O3_10 O 0.0964(2) 0.92368(18) 0.28163(8)
O4_10 O 0.1333(3) 0.9820(2) 0.34324(9)
N3_8 N 0.1038(2) 0.8525(2) 0.19411(9)
H2_12 H 0.9916 0.5963 0.2996
C5_12 C 0.9096(3) 0.7558(3) 0.32830(10)
H5_12 H 0.8937 0.8280 0.3313
H6_12 H 0.8627 0.7274 0.3081
C6_12 C 0.8666(3) 0.7044(3) 0.44249(11)
H7_12 H 0.8625 0.7421 0.4667
C7_12 C 0.8874(4) 0.7557(3) 0.40557(11)
H8_12 H 0.8983 0.8261 0.4056
C8_12 C 0.8918(3) 0.7024(3) 0.36966(10)
C9_12 C 0.8755(3) 0.5983(3) 0.37126(11)
H9_12 H 0.8768 0.5594 0.3473
C10_12 C 0.8573(3) 0.5521(3) 0.40896(11)
H10_10 H 0.8481 0.4815 0.4097
O5_10 O 0.9011(2) 0.89388(18) 0.24314(8)
H11_10 H 0.839336 0.850706 0.24721
H12_10 H 0.899134 0.925073 0.215277
H2_13 H 0.9037 0.0084 0.0496
C5_13 C 0.7442(3) 0.0904(3) 0.07830(10)
H5_13 H 0.6720 0.1063 0.0813
H6_13 H 0.7726 0.1373 0.0581
C6_13 C 0.7956(3) 0.1334(3) 0.19249(11)
H7_13 H 0.7579 0.1375 0.2167
C7_13 C 0.7443(3) 0.1126(4) 0.15557(11)
H8_13 H 0.6739 0.1017 0.1556
C8_13 C 0.7976(3) 0.1082(3) 0.11966(10)
C9_13 C 0.9017(3) 0.1245(3) 0.12126(11)
H9_13 H 0.9406 0.1232 0.0973
C10_13 C 0.9479(3) 0.1427(3) 0.15896(11)
H2_14 H 0.0963 0.9916 0.0496
C5_14 C 0.2558(3) 0.9096(3) 0.07830(10)
H5_14 H 0.3280 0.8937 0.0813
H6_14 H 0.2274 0.8627 0.0581
C6_14 C 0.2044(3) 0.8666(3) 0.19249(11)
H7_14 H 0.2421 0.8625 0.2167
C7_14 C 0.2557(3) 0.8874(4) 0.15557(11)
H8_14 H 0.3261 0.8983 0.1556
C8_14 C 0.2024(3) 0.8918(3) 0.11966(10)
C9_14 C 0.0983(3) 0.8755(3) 0.12126(11)
H9_14 H 0.0594 0.8768 0.0973
C10_14 C 0.0521(3) 0.8573(3) 0.15896(11)
C1_11 C 0.5484(3) 0.3627(3) 0.44053(10)
H1_11 H 0.5672 0.3875 0.4134
H2_15 H 0.4916 0.4037 0.4504
C2_11 C 0.6390(2) 0.3751(2) 0.46960(10)
C3_11 C 0.5884(3) 0.1931(3) 0.41275(11)
H3_11 H 0.5622 0.1870 0.3849
H4_11 H 0.6534 0.2289 0.4113
C4_11 C 0.6063(3) 0.0863(3) 0.43014(12)
C5_15 C 0.4096(3) 0.2442(3) 0.42170(10)
H5_15 H 0.3937 0.1720 0.4187
H6_15 H 0.3627 0.2726 0.4419
C6_15 C 0.3666(3) 0.2956(3) 0.30751(11)
H7_15 H 0.3625 0.2579 0.2833
C7_15 C 0.3874(4) 0.2443(3) 0.34443(11)
H8_15 H 0.3983 0.1739 0.3444
C8_15 C 0.3918(3) 0.2976(3) 0.38034(10)
C9_15 C 0.3755(3) 0.4017(3) 0.37874(11)
H9_15 H 0.3768 0.4406 0.4027
C10_15 C 0.3573(3) 0.4479(3) 0.34104(11)
H10_11 H 0.3481 0.5185 0.3403
N1_11 N 0.5160(2) 0.2546(2) 0.43744(8)
O1_11 O 0.66091(19) 0.30355(18) 0.49347(7)
O3_11 O 0.5964(2) 0.07632(18) 0.46837(8)
O4_11 O 0.6333(3) 0.0180(2) 0.40676(9)
O5_11 O 0.4011(2) 0.10612(18) 0.50686(8)
H11_11 H 0.339336 0.149294 0.50279
H12_11 H 0.399134 0.0749273 0.534723
C1_12 C 0.4516(3) 0.6373(3) 0.44053(10)
H1_12 H 0.4328 0.6125 0.4134
H2_16 H 0.5084 0.5963 0.4504
C2_12 C 0.3610(2) 0.6249(2) 0.46960(10)
C3_12 C 0.4116(3) 0.8069(3) 0.41275(11)
H3_12 H 0.4378 0.8130 0.3849
H4_12 H 0.3466 0.7711 0.4113
C4_12 C 0.3937(3) 0.9137(3) 0.43014(12)
C5_16 C 0.5904(3) 0.7558(3) 0.42170(10)
H5_16 H 0.6063 0.8280 0.4187
H6_16 H 0.6373 0.7274 0.4419
C6_16 C 0.6334(3) 0.7044(3) 0.30751(11)
H7_16 H 0.6375 0.7421 0.2833
C7_16 C 0.6126(4) 0.7557(3) 0.34443(11)
H8_16 H 0.6017 0.8261 0.3444
C8_16 C 0.6082(3) 0.7024(3) 0.38034(10)
C9_16 C 0.6245(3) 0.5983(3) 0.37874(11)
H9_16 H 0.6232 0.5594 0.4027
C10_16 C 0.6427(3) 0.5521(3) 0.34104(11)
H10_12 H 0.6519 0.4815 0.3403
N1_12 N 0.4840(2) 0.7454(2) 0.43744(8)
O1_12 O 0.33909(19) 0.69645(18) 0.49347(7)
O3_12 O 0.4036(2) 0.92368(18) 0.46837(8)
O4_12 O 0.3667(3) 0.9820(2) 0.40676(9)
O5_12 O 0.5989(2) 0.89388(18) 0.50686(8)
H11_12 H 0.660664 0.850706 0.50279
H12_12 H 0.600866 0.925073 0.534723
C1_13 C 0.0484(3) 0.8627(3) 0.94053(10)
H1_13 H 0.0672 0.8875 0.9134
C2_13 C 0.1390(2) 0.8751(2) 0.96960(10)
C3_13 C 0.0884(3) 0.6931(3) 0.91275(11)
H3_13 H 0.0622 0.6870 0.8849
H4_13 H 0.1534 0.7289 0.9113
C4_13 C 0.1063(3) 0.5863(3) 0.93014(12)
N1_13 N 0.0160(2) 0.7546(2) 0.93744(8)
O1_13 O 0.16091(19) 0.80355(18) 0.99347(7)
O2_7 O 0.18195(18) 0.96021(19) 0.96798(8)
O3_13 O 0.0964(2) 0.57632(18) 0.96837(8)
O4_13 O 0.1333(3) 0.5180(2) 0.90676(9)
O5_13 O 0.39388(18) 0.9011(2) 0.99314(8)
H11_13 H 0.350706 0.839336 0.99721
H12_13 H 0.425073 0.899134 0.965277
H10_13 H 0.8481 0.0185 0.8403
O5_14 O 0.9011(2) 0.60612(18) 0.00686(8)
O6_7 O 0.96021(19) 0.81805(18) 0.03202(8)
H11_14 H 0.839336 0.649294 0.00278994
H12_14 H 0.899134 0.574927 0.0347226
C1_14 C 0.8627(3) 0.9516(3) 0.05947(10)
H1_14 H 0.8875 0.9328 0.0866
C2_14 C 0.8751(2) 0.8610(2) 0.03040(10)
C3_14 C 0.6931(3) 0.9116(3) 0.08725(11)
H3_14 H 0.6870 0.9378 0.1151
H4_14 H 0.7289 0.8466 0.0887
C4_14 C 0.5863(3) 0.8937(3) 0.06986(12)
N1_14 N 0.7546(2) 0.9840(2) 0.06256(8)
O1_14 O 0.80355(18) 0.83909(19) 0.00653(7)
O3_14 O 0.57632(18) 0.9036(2) 0.03163(8)
O4_14 O 0.5180(2) 0.8667(3) 0.09324(9)
O5_15 O 0.0989(2) 0.39388(18) 0.00686(8)
O6_8 O 0.03979(19) 0.18195(18) 0.03202(8)
H11_15 H 0.160664 0.350706 0.00278994
H12_15 H 0.100866 0.425073 0.0347226
C1_15 C 0.1373(3) 0.0484(3) 0.05947(10)
H1_15 H 0.1125 0.0672 0.0866
C2_15 C 0.1249(2) 0.1390(2) 0.03040(10)
C3_15 C 0.3069(3) 0.0884(3) 0.08725(11)
H3_15 H 0.3130 0.0622 0.1151
H4_15 H 0.2711 0.1534 0.0887
C4_15 C 0.4137(3) 0.1063(3) 0.06986(12)
N1_15 N 0.2454(2) 0.0160(2) 0.06256(8)
O1_15 O 0.19645(18) 0.16091(19) 0.00653(7)
O3_15 O 0.42368(18) 0.0964(2) 0.03163(8)
O4_15 O 0.4820(2) 0.1333(3) 0.09324(9)
H10_14 H 0.1519 0.9815 0.8403
C1_16 C 0.9516(3) 0.1373(3) 0.94053(10)
H1_16 H 0.9328 0.1125 0.9134
C2_16 C 0.8610(2) 0.1249(2) 0.96960(10)
C3_16 C 0.9116(3) 0.3069(3) 0.91275(11)
H3_16 H 0.9378 0.3130 0.8849
H4_16 H 0.8466 0.2711 0.9113
C4_16 C 0.8937(3) 0.4137(3) 0.93014(12)
N1_16 N 0.9840(2) 0.2454(2) 0.93744(8)
O1_16 O 0.83909(19) 0.19645(18) 0.99347(7)
O2_8 O 0.81805(18) 0.03979(19) 0.96798(8)
O3_16 O 0.9036(2) 0.42368(18) 0.96837(8)
O4_16 O 0.8667(3) 0.4820(2) 0.90676(9)
O5_16 O 0.60612(18) 0.0989(2) 0.99314(8)
H11_16 H 0.649294 0.160664 0.99721
H12_16 H 0.574927 0.100866 0.965277
H10_15 H 0.0185 0.1519 0.1597
H10_16 H 0.9815 0.8481 0.1597
loop_
_geom_bond_atom_site_label_1
_geom_bond_atom_site_label_2
_geom_bond_site_symmetry_1
_geom_bond_site_symmetry_2
Zn1 N1 1_555 1_555
C1 H1 1_555 1_555
H2 C1 1_555 1_555
C2 C1 1_555 1_555
C3 H3 1_555 1_555
H4 C3 1_555 1_555
C4 C3 1_555 1_555
C5 H5 1_555 1_555
H6 C5 1_555 1_555
C6 H7 1_555 1_555
C7 C6 1_555 1_555
H8 C7 1_555 1_555
C8 C5 1_555 1_555
C9 C8 1_555 1_555
H9 C9 1_555 1_555
C10 C9 1_555 1_555
N1 C1 1_555 1_555
N2 C6 1_555 1_555
O1 Zn1 1_555 1_555
O2 C2 1_555 1_555
O3 Zn1 1_555 1_555
O4 C4 1_555 1_555
O5 Zn1 1_555 1_555
Zn2 N2 1_555 1_555
N3 Zn1 1_555 1_555
O6 Zn1 1_555 1_555
C2 O1 1_555 1_555
C3 N1 1_555 1_555
C4 O3 1_555 1_555
C5 N1 1_555 1_555
C7 C8 1_555 1_555
C10 N2 1_555 1_555
O5 H11 1_555 1_555
O5 H12 1_555 1_555
Zn1_2 N1_2 1_555 1_555
C1_2 H1_2 1_555 1_555
H2_2 C1_2 1_555 1_555
C2_2 C1_2 1_555 1_555
C3_2 H3_2 1_555 1_555
H4_2 C3_2 1_555 1_555
C4_2 C3_2 1_555 1_555
C5_2 H5_2 1_555 1_555
H6_2 C5_2 1_555 1_555
C6_2 H7_2 1_555 1_555
C7_2 C6_2 1_555 1_555
H8_2 C7_2 1_555 1_555
C8_2 C5_2 1_555 1_555
C9_2 C8_2 1_555 1_555
H9_2 C9_2 1_555 1_555
C10_2 C9_2 1_555 1_555
N1_2 C1_2 1_555 1_555
N2_2 C6_2 1_555 1_555
O1_2 Zn1_2 1_555 1_555
O2_2 C2_2 1_555 1_555
O3_2 Zn1_2 1_555 1_555
O4_2 C4_2 1_555 1_555
O5_2 Zn1_2 1_555 1_555
Zn2_2 N2_2 1_555 1_555
N3_2 Zn1_2 1_555 1_555
O6_2 Zn1_2 1_555 1_555
C2_2 O1_2 1_555 1_555
C3_2 N1_2 1_555 1_555
C4_2 O3_2 1_555 1_555
C5_2 N1_2 1_555 1_555
C7_2 C8_2 1_555 1_555
C10_2 N2_2 1_555 1_555
O5_2 H11_2 1_555 1_555
O5_2 H12_2 1_555 1_555
Zn1_3 N1_3 1_555 1_555
C1_3 H1_3 1_555 1_555
H2_3 C1_3 1_555 1_555
C2_3 C1_3 1_555 1_555
C3_3 H3_3 1_555 1_555
H4_3 C3_3 1_555 1_555
C4_3 C3_3 1_555 1_555
C5_3 H5_3 1_555 1_555
H6_3 C5_3 1_555 1_555
C6_3 H7_3 1_555 1_555
C7_3 C6_3 1_555 1_555
H8_3 C7_3 1_555 1_555
C8_3 C5_3 1_555 1_555
C9_3 C8_3 1_555 1_555
H9_3 C9_3 1_555 1_555
C10_3 C9_3 1_555 1_555
N1_3 C1_3 1_555 1_555
N2_3 C6_3 1_555 1_555
O1_3 Zn1_3 1_555 1_555
O2_3 C2_3 1_555 1_555
O3_3 Zn1_3 1_555 1_555
O4_3 C4_3 1_555 1_555
O5_3 Zn1_3 1_555 1_555
Zn2_3 N2_3 1_555 1_555
N3_3 Zn1_3 1_555 1_555
O6_3 Zn1_3 1_555 1_555
C2_3 O1_3 1_555 1_555
C3_3 N1_3 1_555 1_555
C4_3 O3_3 1_555 1_555
C5_3 N1_3 1_555 1_555
C7_3 C8_3 1_555 1_555
C10_3 N2_3 1_555 1_555
O5_3 H11_3 1_555 1_555
O5_3 H12_3 1_555 1_555
Zn1_4 N1_4 1_555 1_555
C1_4 H1_4 1_555 1_555
H2_4 C1_4 1_555 1_555
C2_4 C1_4 1_555 1_555
C3_4 H3_4 1_555 1_555
H4_4 C3_4 1_555 1_555
C4_4 C3_4 1_555 1_555
C5_4 H5_4 1_555 1_555
H6_4 C5_4 1_555 1_555
C6_4 H7_4 1_555 1_555
C7_4 C6_4 1_555 1_555
H8_4 C7_4 1_555 1_555
C8_4 C5_4 1_555 1_555
C9_4 C8_4 1_555 1_555
H9_4 C9_4 1_555 1_555
C10_4 C9_4 1_555 1_555
N1_4 C1_4 1_555 1_555
N2_4 C6_4 1_555 1_555
O1_4 Zn1_4 1_555 1_555
O2_4 C2_4 1_555 1_555
O3_4 Zn1_4 1_555 1_555
O4_4 C4_4 1_555 1_555
O5_4 Zn1_4 1_555 1_555
Zn2_4 N2_4 1_555 1_555
N3_4 Zn1_4 1_555 1_555
O6_4 Zn1_4 1_555 1_555
C2_4 O1_4 1_555 1_555
C3_4 N1_4 1_555 1_555
C4_4 O3_4 1_555 1_555
C5_4 N1_4 1_555 1_555
C7_4 C8_4 1_555 1_555
C10_4 N2_4 1_555 1_555
O5_4 H11_4 1_555 1_555
O5_4 H12_4 1_555 1_555
Zn1_5 N1_5 1_555 1_555
C1_5 H1_5 1_555 1_555
H2_5 C1_5 1_555 1_555
C2_5 C1_5 1_555 1_555
C3_5 H3_5 1_555 1_555
H4_5 C3_5 1_555 1_555
C4_5 C3_5 1_555 1_555
C5_5 H5_5 1_555 1_555
H6_5 C5_5 1_555 1_555
C6_5 H7_5 1_555 1_555
C7_5 C6_5 1_555 1_555
H8_5 C7_5 1_555 1_555
C8_5 C5_5 1_555 1_555
C9_5 C8_5 1_555 1_555
H9_5 C9_5 1_555 1_555
C10_5 C9_5 1_555 1_555
H10_5 C10_5 1_555 1_555
N1_5 C1_5 1_555 1_555
N3_3 C6_5 1_555 1_555
O1_5 Zn1_5 1_555 1_555
O2_5 C2_5 1_555 1_555
O3_5 Zn1_5 1_555 1_555
O4_5 C4_5 1_555 1_555
O5_5 Zn1_5 1_555 1_555
Zn3_5 O2_5 1_555 1_555
N3_5 Zn1_5 1_555 1_555
O6_5 Zn1_5 1_555 1_555
C2_5 O1_5 1_555 1_555
C3_5 N1_5 1_555 1_555
C4_5 O3_5 1_555 1_555
C5_5 N1_5 1_555 1_555
C7_5 C8_5 1_555 1_555
C10_5 N3_3 1_555 1_555
O5_5 H11_5 1_555 1_555
O5_5 H12_5 1_555 1_555
Zn1_6 N1_6 1_555 1_555
C1_6 H1_6 1_555 1_555
H2_6 C1_6 1_555 1_555
C2_6 C1_6 1_555 1_555
C3_6 H3_6 1_555 1_555
H4_6 C3_6 1_555 1_555
C4_6 C3_6 1_555 1_555
C5_6 H5_6 1_555 1_555
H6_6 C5_6 1_555 1_555
C6_6 H7_6 1_555 1_555
C7_6 C6_6 1_555 1_555
H8_6 C7_6 1_555 1_555
C8_6 C5_6 1_555 1_555
C9_6 C8_6 1_555 1_555
H9_6 C9_6 1_555 1_555
C10_6 C9_6 1_555 1_555
H10_6 C10_6 1_555 1_555
N1_6 C1_6 1_555 1_555
N3_4 C6_6 1_555 1_555
O1_6 Zn1_6 1_555 1_555
O2_6 C2_6 1_555 1_555
O3_6 Zn1_6 1_555 1_555
O4_6 C4_6 1_555 1_555
O5_6 Zn1_6 1_555 1_555
Zn3_6 O2_6 1_555 1_555
N3_6 Zn1_6 1_555 1_555
O6_6 Zn1_6 1_555 1_555
C2_6 O1_6 1_555 1_555
C3_6 N1_6 1_555 1_555
C4_6 O3_6 1_555 1_555
C5_6 N1_6 1_555 1_555
C7_6 C8_6 1_555 1_555
C10_6 N3_4 1_555 1_555
O5_6 H11_6 1_555 1_555
O5_6 H12_6 1_555 1_555
C5_7 H5_7 1_555 1_555
H6_7 C5_7 1_555 1_555
C6_7 H7_7 1_555 1_555
C7_7 C6_7 1_555 1_555
H8_7 C7_7 1_555 1_555
C8_7 C5_7 1_555 1_555
C9_7 C8_7 1_555 1_555
H9_7 C9_7 1_555 1_555
C10_7 C9_7 1_555 1_555
N2_5 C6_7 1_555 1_555
Zn3_4 N2_5 1_555 1_555
C7_7 C8_7 1_555 1_555
C10_7 N2_5 1_555 1_555
C5_8 H5_8 1_555 1_555
H6_8 C5_8 1_555 1_555
C6_8 H7_8 1_555 1_555
C7_8 C6_8 1_555 1_555
H8_8 C7_8 1_555 1_555
C8_8 C5_8 1_555 1_555
C9_8 C8_8 1_555 1_555
H9_8 C9_8 1_555 1_555
C10_8 C9_8 1_555 1_555
N2_6 C6_8 1_555 1_555
Zn3_3 N2_6 1_555 1_555
C7_8 C8_8 1_555 1_555
C10_8 N2_6 1_555 1_555
C5_9 H5_9 1_555 1_555
H6_9 C5_9 1_555 1_555
C6_9 H7_9 1_555 1_555
C7_9 C6_9 1_555 1_555
H8_9 C7_9 1_555 1_555
C8_9 C5_9 1_555 1_555
C9_9 C8_9 1_555 1_555
H9_9 C9_9 1_555 1_555
C10_9 C9_9 1_555 1_555
H10_7 C10_9 1_555 1_555
N2_7 C6_9 1_555 1_555
Zn3_5 N2_7 1_555 1_555
C7_9 C8_9 1_555 1_555
C10_9 N2_7 1_555 1_555
O5_7 H11_7 1_555 1_555
O5_7 H12_7 1_555 1_555
Zn3_4 N1_7 1_555 1_555
C1_7 H1_7 1_555 1_555
C2_7 C1_7 1_555 1_555
C3_7 H3_7 1_555 1_555
H4_7 C3_7 1_555 1_555
C4_7 C3_7 1_555 1_555
N1_7 C1_7 1_555 1_555
O1_7 Zn3_4 1_555 1_555
O6_3 C2_7 1_555 1_555
O3_7 Zn3_4 1_555 1_555
O4_7 C4_7 1_555 1_555
C2_7 O1_7 1_555 1_555
C3_7 N1_7 1_555 1_555
C4_7 O3_7 1_555 1_555
Zn3_3 N1_8 1_555 1_555
C1_8 H1_8 1_555 1_555
C2_8 C1_8 1_555 1_555
C3_8 H3_8 1_555 1_555
H4_8 C3_8 1_555 1_555
C4_8 C3_8 1_555 1_555
N1_8 C1_8 1_555 1_555
O1_8 Zn3_3 1_555 1_555
O6_4 C2_8 1_555 1_555
O3_8 Zn3_3 1_555 1_555
O4_8 C4_8 1_555 1_555
C2_8 O1_8 1_555 1_555
C3_8 N1_8 1_555 1_555
C4_8 O3_8 1_555 1_555
C5_10 H5_10 1_555 1_555
H6_10 C5_10 1_555 1_555
C6_10 H7_10 1_555 1_555
C7_10 C6_10 1_555 1_555
H8_10 C7_10 1_555 1_555
C8_10 C5_10 1_555 1_555
C9_10 C8_10 1_555 1_555
H9_10 C9_10 1_555 1_555
C10_10 C9_10 1_555 1_555
H10_8 C10_10 1_555 1_555
N2_8 C6_10 1_555 1_555
Zn3_6 N2_8 1_555 1_555
C7_10 C8_10 1_555 1_555
C10_10 N2_8 1_555 1_555
O5_8 H11_8 1_555 1_555
O5_8 H12_8 1_555 1_555
C5_11 H5_11 1_555 1_555
H6_11 C5_11 1_555 1_555
C6_11 H7_11 1_555 1_555
C7_11 C6_11 1_555 1_555
H8_11 C7_11 1_555 1_555
C8_11 C5_11 1_555 1_555
C9_11 C8_11 1_555 1_555
H9_11 C9_11 1_555 1_555
C10_11 C9_11 1_555 1_555
H10_9 C10_11 1_555 1_555
N3_5 C6_11 1_555 1_555
C7_11 C8_11 1_555 1_555
C10_11 N3_5 1_555 1_555
O5_9 H11_9 1_555 1_555
O5_9 H12_9 1_555 1_555
Zn3 N1_9 1_555 1_555
C1_9 H1_9 1_555 1_555
C2_9 C1_9 1_555 1_555
C3_9 H3_9 1_555 1_555
H4_9 C3_9 1_555 1_555
C4_9 C3_9 1_555 1_555
N1_9 C1_9 1_555 1_555
O1_9 Zn3 1_555 1_555
O6_2 C2_9 1_555 1_555
O3_9 Zn3 1_555 1_555
O4_9 C4_9 1_555 1_555
N3_7 Zn3 1_555 1_555
C2_9 O1_9 1_555 1_555
C3_9 N1_9 1_555 1_555
C4_9 O3_9 1_555 1_555
Zn3_2 N1_10 1_555 1_555
C1_10 H1_10 1_555 1_555
C2_10 C1_10 1_555 1_555
C3_10 H3_10 1_555 1_555
H4_10 C3_10 1_555 1_555
C4_10 C3_10 1_555 1_555
N1_10 C1_10 1_555 1_555
O1_10 Zn3_2 1_555 1_555
O6 C2_10 1_555 1_555
O3_10 Zn3_2 1_555 1_555
O4_10 C4_10 1_555 1_555
N3_8 Zn3_2 1_555 1_555
C2_10 O1_10 1_555 1_555
C3_10 N1_10 1_555 1_555
C4_10 O3_10 1_555 1_555
C5_12 H5_12 1_555 1_555
H6_12 C5_12 1_555 1_555
C6_12 H7_12 1_555 1_555
C7_12 C6_12 1_555 1_555
H8_12 C7_12 1_555 1_555
C8_12 C5_12 1_555 1_555
C9_12 C8_12 1_555 1_555
H9_12 C9_12 1_555 1_555
C10_12 C9_12 1_555 1_555
H10_10 C10_12 1_555 1_555
N3_6 C6_12 1_555 1_555
C7_12 C8_12 1_555 1_555
C10_12 N3_6 1_555 1_555
O5_10 H11_10 1_555 1_555
O5_10 H12_10 1_555 1_555
C5_13 H5_13 1_555 1_555
H6_13 C5_13 1_555 1_555
C6_13 H7_13 1_555 1_555
C7_13 C6_13 1_555 1_555
H8_13 C7_13 1_555 1_555
C8_13 C5_13 1_555 1_555
C9_13 C8_13 1_555 1_555
H9_13 C9_13 1_555 1_555
C10_13 C9_13 1_555 1_555
N3_7 C6_13 1_555 1_555
C7_13 C8_13 1_555 1_555
C10_13 N3_7 1_555 1_555
C5_14 H5_14 1_555 1_555
H6_14 C5_14 1_555 1_555
C6_14 H7_14 1_555 1_555
C7_14 C6_14 1_555 1_555
H8_14 C7_14 1_555 1_555
C8_14 C5_14 1_555 1_555
C9_14 C8_14 1_555 1_555
H9_14 C9_14 1_555 1_555
C10_14 C9_14 1_555 1_555
N3_8 C6_14 1_555 1_555
C7_14 C8_14 1_555 1_555
C10_14 N3_8 1_555 1_555
Zn3_5 N1_11 1_555 1_555
C1_11 H1_11 1_555 1_555
H2_15 C1_11 1_555 1_555
C2_11 C1_11 1_555 1_555
C3_11 H3_11 1_555 1_555
H4_11 C3_11 1_555 1_555
C4_11 C3_11 1_555 1_555
C5_15 H5_15 1_555 1_555
H6_15 C5_15 1_555 1_555
C6_15 H7_15 1_555 1_555
C7_15 C6_15 1_555 1_555
H8_15 C7_15 1_555 1_555
C8_15 C5_15 1_555 1_555
C9_15 C8_15 1_555 1_555
H9_15 C9_15 1_555 1_555
C10_15 C9_15 1_555 1_555
H10_11 C10_15 1_555 1_555
N1_11 C1_11 1_555 1_555
N3 C6_15 1_555 1_555
O1_11 Zn3_5 1_555 1_555
O6_6 C2_11 1_555 1_555
O3_11 Zn3_5 1_555 1_555
O4_11 C4_11 1_555 1_555
O5_11 Zn3_5 1_555 1_555
C2_11 O1_11 1_555 1_555
C3_11 N1_11 1_555 1_555
C4_11 O3_11 1_555 1_555
C5_15 N1_11 1_555 1_555
C7_15 C8_15 1_555 1_555
C10_15 N3 1_555 1_555
O5_11 H11_11 1_555 1_555
O5_11 H12_11 1_555 1_555
Zn3_6 N1_12 1_555 1_555
C1_12 H1_12 1_555 1_555
H2_16 C1_12 1_555 1_555
C2_12 C1_12 1_555 1_555
C3_12 H3_12 1_555 1_555
H4_12 C3_12 1_555 1_555
C4_12 C3_12 1_555 1_555
C5_16 H5_16 1_555 1_555
H6_16 C5_16 1_555 1_555
C6_16 H7_16 1_555 1_555
C7_16 C6_16 1_555 1_555
H8_16 C7_16 1_555 1_555
C8_16 C5_16 1_555 1_555
C9_16 C8_16 1_555 1_555
H9_16 C9_16 1_555 1_555
C10_16 C9_16 1_555 1_555
H10_12 C10_16 1_555 1_555
N1_12 C1_12 1_555 1_555
N3_2 C6_16 1_555 1_555
O1_12 Zn3_6 1_555 1_555
O6_5 C2_12 1_555 1_555
O3_12 Zn3_6 1_555 1_555
O4_12 C4_12 1_555 1_555
O5_12 Zn3_6 1_555 1_555
C2_12 O1_12 1_555 1_555
C3_12 N1_12 1_555 1_555
C4_12 O3_12 1_555 1_555
C5_16 N1_12 1_555 1_555
C7_16 C8_16 1_555 1_555
C10_16 N3_2 1_555 1_555
O5_12 H11_12 1_555 1_555
O5_12 H12_12 1_555 1_555
C1_13 H1_13 1_555 1_555
C2_13 C1_13 1_555 1_555
C3_13 H3_13 1_555 1_555
H4_13 C3_13 1_555 1_555
C4_13 C3_13 1_555 1_555
N1_13 C1_13 1_555 1_555
O2_7 C2_13 1_555 1_555
O4_13 C4_13 1_555 1_555
C2_13 O1_13 1_555 1_555
C3_13 N1_13 1_555 1_555
C4_13 O3_13 1_555 1_555
O5_13 H11_13 1_555 1_555
O5_13 H12_13 1_555 1_555
O5_14 H11_14 1_555 1_555
O5_14 H12_14 1_555 1_555
C1_14 H1_14 1_555 1_555
C2_14 C1_14 1_555 1_555
C3_14 H3_14 1_555 1_555
H4_14 C3_14 1_555 1_555
C4_14 C3_14 1_555 1_555
N1_14 C1_14 1_555 1_555
O6_7 C2_14 1_555 1_555
O4_14 C4_14 1_555 1_555
C2_14 O1_14 1_555 1_555
C3_14 N1_14 1_555 1_555
C4_14 O3_14 1_555 1_555
O5_15 H11_15 1_555 1_555
O5_15 H12_15 1_555 1_555
C1_15 H1_15 1_555 1_555
C2_15 C1_15 1_555 1_555
C3_15 H3_15 1_555 1_555
H4_15 C3_15 1_555 1_555
C4_15 C3_15 1_555 1_555
N1_15 C1_15 1_555 1_555
O6_8 C2_15 1_555 1_555
O4_15 C4_15 1_555 1_555
C2_15 O1_15 1_555 1_555
C3_15 N1_15 1_555 1_555
C4_15 O3_15 1_555 1_555
C1_16 H1_16 1_555 1_555
C2_16 C1_16 1_555 1_555
C3_16 H3_16 1_555 1_555
H4_16 C3_16 1_555 1_555
C4_16 C3_16 1_555 1_555
N1_16 C1_16 1_555 1_555
O2_8 C2_16 1_555 1_555
O4_16 C4_16 1_555 1_555
C2_16 O1_16 1_555 1_555
C3_16 N1_16 1_555 1_555
C4_16 O3_16 1_555 1_555
O5_16 H11_16 1_555 1_555
O5_16 H12_16 1_555 1_555

#END
