
###############################################################################
#
# This file contains modified crystal structure data generated from the
# MOF subset of the Cambridge Structural Database (CSD) v543 
# hosted by the Cambridge Crystallographic Data Centre (CCDC).
#
# This work is licensed under the Creative Commons
# Attribution-NonCommercial-ShareAlike 4.0 International License.
# To view a copy of this license, visit
# http://creativecommons.org/licenses/by-nc-sa/4.0/
# or send a letter to
# Creative Commons, PO Box 1866, Mountain View, CA 94042, USA.
#
# CIF created using the CSD Python API on 29 September 2022
# The structure has been converted into the P1 space group
# The structure has a 3D framework
# The original CSD entry VAQLEG is in the tetragonal crystal system
# The framework has been calculated to contain at least 10.0% void space
# The void calculation uses a probe of radius 1.32A, grid spacing 0.4
# H atom positions have been added when not included in the experimental data
#
###############################################################################

data_VAQLEG
_chemical_formula_moiety         '(C160 H192 Cd8 N32 O80)n'
_symmetry_cell_setting           triclinic
_symmetry_space_group_name_H-M   'P 1'
_symmetry_Int_Tables_number      1
_space_group_name_Hall           'P 1'
loop_
_symmetry_equiv_pos_site_id
_symmetry_equiv_pos_as_xyz
1 x,y,z
_cell_length_a                   13.415(2)
_cell_length_b                   13.415(2)
_cell_length_c                   33.719(5)
_cell_angle_alpha                90
_cell_angle_beta                 90
_cell_angle_gamma                90
_cell_volume                     6068.15
loop_
_atom_site_label
_atom_site_type_symbol
_atom_site_fract_x
_atom_site_fract_y
_atom_site_fract_z
Cd1 Cd 0.30021(2) 0.47674(2) 0.255183(8)
O1 O 0.1842(4) 0.5519(3) 0.29239(16)
O2 O 0.1478(4) 0.6819(4) 0.25649(14)
O3 O 0.0956(3) 0.9244(3) 0.28057(11)
O4 O 0.1352(5) 0.9835(5) 0.33934(16)
O5 O 0.4016(3) 0.6116(3) 0.25898(16)
N1 N 0.0131(3) 0.7516(3) 0.31297(11)
C1 C 0.0469(5) 0.6428(5) 0.3110(2)
H2 H 0.0626 0.6192 0.3381
C2 C 0.1369(4) 0.6295(4) 0.28507(18)
C3 C 0.0838(6) 0.8076(5) 0.3353(2)
H3 H 0.0600 0.8144 0.3629
H4 H 0.1480 0.7713 0.3358
C4 C 0.1009(5) 0.9159(4) 0.31677(18)
Cd2 Cd 0.02326(2) 0.80021(2) 0.244817(8)
O6 O 0.1819(4) 0.3522(4) 0.24351(14)
O7 O 0.4244(3) 0.4044(3) 0.21943(11)
N3 N 0.2516(3) 0.4869(3) 0.18703(11)
N4 N 0.3543(3) 0.3954(3) 0.31106(11)
H11 H 0.418183 0.625035 0.287179
H12 H 0.463841 0.598402 0.24393
N2 N 0.8543(3) 0.6046(3) 0.43894(11)
H1 H 0.9917 0.6014 0.3006
C5 C 0.9093(6) 0.7490(4) 0.32615(15)
H5 H 0.8842 0.8183 0.3277
H6 H 0.8693 0.7138 0.3058
C6 C 0.8650(5) 0.7026(5) 0.43601(15)
H7 H 0.8584 0.7416 0.4594
C7 C 0.8851(4) 0.7508(5) 0.40085(16)
H8 H 0.8943 0.8211 0.4008
C8 C 0.8919(4) 0.6988(4) 0.36600(13)
C9 C 0.8748(5) 0.6000(6) 0.36845(15)
H9 H 0.8735 0.5609 0.3450
C10 C 0.8588(5) 0.5541(6) 0.40556(17)
H10 H 0.8509 0.4838 0.4065
Cd3 Cd 0.80021(2) 0.52326(2) 0.494817(8)
N2_2 N 0.6046(3) 0.1457(3) 0.56106(11)
H1_2 H 0.6014 0.0083 0.6994
C5_2 C 0.7490(4) 0.0907(6) 0.67385(15)
H5_2 H 0.8183 0.1158 0.6723
H6_2 H 0.7138 0.1307 0.6942
C6_2 C 0.7026(5) 0.1350(5) 0.56399(15)
H7_2 H 0.7416 0.1416 0.5406
C7_2 C 0.7508(5) 0.1149(4) 0.59915(16)
H8_2 H 0.8211 0.1057 0.5992
C8_2 C 0.6988(4) 0.1081(4) 0.63400(13)
C9_2 C 0.6000(6) 0.1252(5) 0.63155(15)
H9_2 H 0.5609 0.1265 0.6550
C10_2 C 0.5541(6) 0.1412(5) 0.59444(17)
H10_2 H 0.4838 0.1491 0.5935
Cd3_2 Cd 0.52326(2) 0.19979(2) 0.505183(8)
Cd1_2 Cd 0.47674(2) 0.69979(2) 0.744817(8)
O1_2 O 0.5519(3) 0.8158(4) 0.70761(16)
O2_2 O 0.6819(4) 0.8522(4) 0.74351(14)
O3_2 O 0.9244(3) 0.9044(3) 0.71943(11)
O4_2 O 0.9835(5) 0.8648(5) 0.66066(16)
O5_2 O 0.6116(3) 0.5984(3) 0.74102(16)
N1_2 N 0.7516(3) 0.9869(3) 0.68703(11)
C1_2 C 0.6428(5) 0.9531(5) 0.6890(2)
H2_2 H 0.6192 0.9374 0.6619
C2_2 C 0.6295(4) 0.8631(4) 0.71493(18)
C3_2 C 0.8076(5) 0.9162(6) 0.6647(2)
H3_2 H 0.8144 0.9400 0.6371
H4_2 H 0.7713 0.8520 0.6642
C4_2 C 0.9159(4) 0.8991(5) 0.68323(18)
Cd2_2 Cd 0.80021(2) 0.97674(2) 0.755183(8)
O6_2 O 0.3522(4) 0.8181(4) 0.75649(14)
O7_2 O 0.4044(3) 0.5756(3) 0.78057(11)
N3_2 N 0.4869(3) 0.7484(3) 0.81297(11)
N4_2 N 0.3954(3) 0.6457(3) 0.68894(11)
H11_2 H 0.625035 0.581817 0.712821
H12_2 H 0.598402 0.536159 0.75607
N2_3 N 0.1457(3) 0.3954(3) 0.43894(11)
H1_3 H 0.0083 0.3986 0.3006
C5_3 C 0.0907(6) 0.2510(4) 0.32615(15)
H5_3 H 0.1158 0.1817 0.3277
H6_3 H 0.1307 0.2862 0.3058
C6_3 C 0.1350(5) 0.2974(5) 0.43601(15)
H7_3 H 0.1416 0.2584 0.4594
C7_3 C 0.1149(4) 0.2492(5) 0.40085(16)
H8_3 H 0.1057 0.1789 0.4008
C8_3 C 0.1081(4) 0.3012(4) 0.36600(13)
C9_3 C 0.1252(5) 0.4000(6) 0.36845(15)
H9_3 H 0.1265 0.4391 0.3450
C10_3 C 0.1412(5) 0.4459(6) 0.40556(17)
H10_3 H 0.1491 0.5162 0.4065
Cd3_3 Cd 0.19979(2) 0.47674(2) 0.494817(8)
Cd1_3 Cd 0.69979(2) 0.52326(2) 0.255183(8)
O1_3 O 0.8158(4) 0.4481(3) 0.29239(16)
O2_3 O 0.8522(4) 0.3181(4) 0.25649(14)
O3_3 O 0.9044(3) 0.0756(3) 0.28057(11)
O4_3 O 0.8648(5) 0.0165(5) 0.33934(16)
O5_3 O 0.5984(3) 0.3884(3) 0.25898(16)
N1_3 N 0.9869(3) 0.2484(3) 0.31297(11)
C1_3 C 0.9531(5) 0.3572(5) 0.3110(2)
H2_3 H 0.9374 0.3808 0.3381
C2_3 C 0.8631(4) 0.3705(4) 0.28507(18)
C3_3 C 0.9162(6) 0.1924(5) 0.3353(2)
H3_3 H 0.9400 0.1856 0.3629
H4_3 H 0.8520 0.2287 0.3358
C4_3 C 0.8991(5) 0.0841(4) 0.31677(18)
Cd2_3 Cd 0.97674(2) 0.19979(2) 0.244817(8)
O6_3 O 0.8181(4) 0.6478(4) 0.24351(14)
O7_3 O 0.5756(3) 0.5956(3) 0.21943(11)
N3_3 N 0.7484(3) 0.5131(3) 0.18703(11)
N4_3 N 0.6457(3) 0.6046(3) 0.31106(11)
H11_3 H 0.581817 0.374965 0.287179
H12_3 H 0.536159 0.401598 0.24393
Cd1_4 Cd 0.52326(2) 0.30021(2) 0.744817(8)
O1_4 O 0.4481(3) 0.1842(4) 0.70761(16)
O2_4 O 0.3181(4) 0.1478(4) 0.74351(14)
O3_4 O 0.0756(3) 0.0956(3) 0.71943(11)
O4_4 O 0.0165(5) 0.1352(5) 0.66066(16)
O5_4 O 0.3884(3) 0.4016(3) 0.74102(16)
N1_4 N 0.2484(3) 0.0131(3) 0.68703(11)
C1_4 C 0.3572(5) 0.0469(5) 0.6890(2)
H2_4 H 0.3808 0.0626 0.6619
C2_4 C 0.3705(4) 0.1369(4) 0.71493(18)
C3_4 C 0.1924(5) 0.0838(6) 0.6647(2)
H3_4 H 0.1856 0.0600 0.6371
H4_4 H 0.2287 0.1480 0.6642
C4_4 C 0.0841(4) 0.1009(5) 0.68323(18)
Cd2_4 Cd 0.19979(2) 0.02326(2) 0.755183(8)
O6_4 O 0.6478(4) 0.1819(4) 0.75649(14)
O7_4 O 0.5956(3) 0.4244(3) 0.78057(11)
N3_4 N 0.5131(3) 0.2516(3) 0.81297(11)
N4_4 N 0.6046(3) 0.3543(3) 0.68894(11)
H11_4 H 0.374965 0.418183 0.712821
H12_4 H 0.401598 0.463841 0.75607
N2_4 N 0.3954(3) 0.8543(3) 0.56106(11)
H1_4 H 0.3986 0.9917 0.6994
C5_4 C 0.2510(4) 0.9093(6) 0.67385(15)
H5_4 H 0.1817 0.8842 0.6723
H6_4 H 0.2862 0.8693 0.6942
C6_4 C 0.2974(5) 0.8650(5) 0.56399(15)
H7_4 H 0.2584 0.8584 0.5406
C7_4 C 0.2492(5) 0.8851(4) 0.59915(16)
H8_4 H 0.1789 0.8943 0.5992
C8_4 C 0.3012(4) 0.8919(4) 0.63400(13)
C9_4 C 0.4000(6) 0.8748(5) 0.63155(15)
H9_4 H 0.4391 0.8735 0.6550
C10_4 C 0.4459(6) 0.8588(5) 0.59444(17)
H10_4 H 0.5162 0.8509 0.5935
Cd3_4 Cd 0.47674(2) 0.80021(2) 0.505183(8)
O1_5 O 0.3158(4) 0.5519(3) 0.45761(16)
O2_5 O 0.3522(4) 0.6819(4) 0.49351(14)
O3_5 O 0.4044(3) 0.9244(3) 0.46943(11)
O4_5 O 0.3648(5) 0.9835(5) 0.41066(16)
O5_5 O 0.0984(3) 0.6116(3) 0.49102(16)
N1_5 N 0.4869(3) 0.7516(3) 0.43703(11)
C1_5 C 0.4531(5) 0.6428(5) 0.4390(2)
H1_5 H 0.5083 0.6014 0.4494
H2_5 H 0.4374 0.6192 0.4119
C2_5 C 0.3631(4) 0.6295(4) 0.46493(18)
C3_5 C 0.4162(6) 0.8076(5) 0.4147(2)
H3_5 H 0.4400 0.8144 0.3871
H4_5 H 0.3520 0.7713 0.4142
C4_5 C 0.3991(5) 0.9159(4) 0.43323(18)
C5_5 C 0.5907(6) 0.7490(4) 0.42385(15)
H5_5 H 0.6158 0.8183 0.4223
H6_5 H 0.6307 0.7138 0.4442
C6_5 C 0.6350(5) 0.7026(5) 0.31399(15)
H7_5 H 0.6416 0.7416 0.2906
C7_5 C 0.6149(4) 0.7508(5) 0.34915(16)
H8_5 H 0.6057 0.8211 0.3492
C8_5 C 0.6081(4) 0.6988(4) 0.38400(13)
C9_5 C 0.6252(5) 0.6000(6) 0.38155(15)
H9_5 H 0.6265 0.5609 0.4050
C10_5 C 0.6412(5) 0.5541(6) 0.34444(17)
H10_5 H 0.6491 0.4838 0.3435
O6_5 O 0.3181(4) 0.3522(4) 0.50649(14)
O7_5 O 0.0756(3) 0.4044(3) 0.53057(11)
N3_5 N 0.2484(3) 0.4869(3) 0.56297(11)
H11_5 H 0.0818167 0.625035 0.462821
H12_5 H 0.0361588 0.598402 0.50607
Cd1_5 Cd 0.02326(2) 0.69979(2) 0.005183(8)
N4_5 N 0.1046(3) 0.6457(3) 0.06106(11)
N2_5 N 0.8954(3) 0.1457(3) 0.18894(11)
H1_6 H 0.8986 0.0083 0.0506
C5_6 C 0.7510(4) 0.0907(6) 0.07615(15)
H5_6 H 0.6817 0.1158 0.0777
H6_6 H 0.7862 0.1307 0.0558
C6_6 C 0.7974(5) 0.1350(5) 0.18601(15)
H7_6 H 0.7584 0.1416 0.2094
C7_6 C 0.7492(5) 0.1149(4) 0.15085(16)
H8_6 H 0.6789 0.1057 0.1508
C8_6 C 0.8012(4) 0.1081(4) 0.11600(13)
C9_6 C 0.9000(6) 0.1252(5) 0.11845(15)
H9_6 H 0.9391 0.1265 0.0950
C10_6 C 0.9459(6) 0.1412(5) 0.15556(17)
Cd2_5 Cd 0.69979(2) 0.97674(2) 0.994817(8)
H12_6 H 0.901598 0.536159 0.99393
O1_6 O 0.6842(4) 0.4481(3) 0.45761(16)
O2_6 O 0.6478(4) 0.3181(4) 0.49351(14)
O3_6 O 0.5956(3) 0.0756(3) 0.46943(11)
O4_6 O 0.6352(5) 0.0165(5) 0.41066(16)
O5_6 O 0.9016(3) 0.3884(3) 0.49102(16)
N1_6 N 0.5131(3) 0.2484(3) 0.43703(11)
C1_6 C 0.5469(5) 0.3572(5) 0.4390(2)
H1_7 H 0.4917 0.3986 0.4494
H2_6 H 0.5626 0.3808 0.4119
C2_6 C 0.6369(4) 0.3705(4) 0.46493(18)
C3_6 C 0.5838(6) 0.1924(5) 0.4147(2)
H3_6 H 0.5600 0.1856 0.3871
H4_6 H 0.6480 0.2287 0.4142
C4_6 C 0.6009(5) 0.0841(4) 0.43323(18)
C5_7 C 0.4093(6) 0.2510(4) 0.42385(15)
H5_7 H 0.3842 0.1817 0.4223
H6_7 H 0.3693 0.2862 0.4442
C6_7 C 0.3650(5) 0.2974(5) 0.31399(15)
H7_7 H 0.3584 0.2584 0.2906
C7_7 C 0.3851(4) 0.2492(5) 0.34915(16)
H8_7 H 0.3943 0.1789 0.3492
C8_7 C 0.3919(4) 0.3012(4) 0.38400(13)
C9_7 C 0.3748(5) 0.4000(6) 0.38155(15)
H9_7 H 0.3735 0.4391 0.4050
C10_7 C 0.3588(5) 0.4459(6) 0.34444(17)
H10_6 H 0.3509 0.5162 0.3435
O6_6 O 0.6819(4) 0.6478(4) 0.50649(14)
O7_6 O 0.9244(3) 0.5956(3) 0.53057(11)
N3_6 N 0.7516(3) 0.5131(3) 0.56297(11)
H11_6 H 0.918183 0.374965 0.462821
H12_7 H 0.963841 0.401598 0.50607
Cd2_6 Cd 0.30021(2) 0.02326(2) 0.994817(8)
H12_8 H 0.0984017 0.463841 0.99393
N2_6 N 0.1046(3) 0.8543(3) 0.18894(11)
H1_8 H 0.1014 0.9917 0.0506
C5_8 C 0.2490(4) 0.9093(6) 0.07615(15)
H5_8 H 0.3183 0.8842 0.0777
H6_8 H 0.2138 0.8693 0.0558
C6_8 C 0.2026(5) 0.8650(5) 0.18601(15)
H7_8 H 0.2416 0.8584 0.2094
C7_8 C 0.2508(5) 0.8851(4) 0.15085(16)
H8_8 H 0.3211 0.8943 0.1508
C8_8 C 0.1988(4) 0.8919(4) 0.11600(13)
C9_8 C 0.1000(6) 0.8748(5) 0.11845(15)
H9_8 H 0.0609 0.8735 0.0950
C10_8 C 0.0541(6) 0.8588(5) 0.15556(17)
Cd1_6 Cd 0.97674(2) 0.30021(2) 0.005183(8)
N4_6 N 0.8954(3) 0.3543(3) 0.06106(11)
O1_7 O 0.6842(4) 0.0519(3) 0.79239(16)
O4_7 O 0.6352(5) 0.4835(5) 0.83934(16)
O5_7 O 0.9016(3) 0.1116(3) 0.75898(16)
N2_7 N 0.3543(3) 0.1046(3) 0.93894(11)
C1_7 C 0.5469(5) 0.1428(5) 0.8110(2)
H1_9 H 0.4917 0.1014 0.8006
H2_7 H 0.5626 0.1192 0.8381
C2_7 C 0.6369(4) 0.1295(4) 0.78507(18)
C3_7 C 0.5838(6) 0.3076(5) 0.8353(2)
H3_7 H 0.5600 0.3144 0.8629
H4_7 H 0.6480 0.2713 0.8358
C4_7 C 0.6009(5) 0.4159(4) 0.81677(18)
C5_9 C 0.4093(6) 0.2490(4) 0.82615(15)
H5_9 H 0.3842 0.3183 0.8277
H6_9 H 0.3693 0.2138 0.8058
C6_9 C 0.3650(5) 0.2026(5) 0.93601(15)
H7_9 H 0.3584 0.2416 0.9594
C7_9 C 0.3851(4) 0.2508(5) 0.90085(16)
H8_9 H 0.3943 0.3211 0.9008
C8_9 C 0.3919(4) 0.1988(4) 0.86600(13)
C9_9 C 0.3748(5) 0.1000(6) 0.86845(15)
H9_9 H 0.3735 0.0609 0.8450
C10_9 C 0.3588(5) 0.0541(6) 0.90556(17)
H11_7 H 0.918183 0.125035 0.787179
H12_9 H 0.963841 0.0984017 0.74393
H10_7 H 0.3509 0.9838 0.9065
N4_7 N 0.8543(3) 0.8954(3) 0.81106(11)
O1_8 O 0.0519(3) 0.3158(4) 0.20761(16)
O4_8 O 0.4835(5) 0.3648(5) 0.16066(16)
O5_8 O 0.1116(3) 0.0984(3) 0.24102(16)
C1_8 C 0.1428(5) 0.4531(5) 0.1890(2)
H1_10 H 0.1014 0.5083 0.1994
H2_8 H 0.1192 0.4374 0.1619
C2_8 C 0.1295(4) 0.3631(4) 0.21493(18)
C3_8 C 0.3076(5) 0.4162(6) 0.1647(2)
H3_8 H 0.3144 0.4400 0.1371
H4_8 H 0.2713 0.3520 0.1642
C4_8 C 0.4159(4) 0.3991(5) 0.18323(18)
C5_10 C 0.2490(4) 0.5907(6) 0.17385(15)
H5_10 H 0.3183 0.6158 0.1723
H6_10 H 0.2138 0.6307 0.1942
C6_10 C 0.2026(5) 0.6350(5) 0.06399(15)
H7_10 H 0.2416 0.6416 0.0406
C7_10 C 0.2508(5) 0.6149(4) 0.09915(16)
H8_10 H 0.3211 0.6057 0.0992
C8_10 C 0.1988(4) 0.6081(4) 0.13400(13)
C9_10 C 0.1000(6) 0.6252(5) 0.13155(15)
H9_10 H 0.0609 0.6265 0.1550
C10_10 C 0.0541(6) 0.6412(5) 0.09444(17)
H11_8 H 0.125035 0.0818167 0.212821
H12_10 H 0.0984017 0.0361588 0.25607
H10_8 H 0.9838 0.6491 0.0935
H10_9 H 0.6491 0.0162 0.9065
N4_8 N 0.1457(3) 0.1046(3) 0.81106(11)
O1_9 O 0.3158(4) 0.9481(3) 0.79239(16)
O4_9 O 0.3648(5) 0.5165(5) 0.83934(16)
O5_9 O 0.0984(3) 0.8884(3) 0.75898(16)
N2_8 N 0.6457(3) 0.8954(3) 0.93894(11)
C1_9 C 0.4531(5) 0.8572(5) 0.8110(2)
H1_11 H 0.5083 0.8986 0.8006
H2_9 H 0.4374 0.8808 0.8381
C2_9 C 0.3631(4) 0.8705(4) 0.78507(18)
C3_9 C 0.4162(6) 0.6924(5) 0.8353(2)
H3_9 H 0.4400 0.6856 0.8629
H4_9 H 0.3520 0.7287 0.8358
C4_9 C 0.3991(5) 0.5841(4) 0.81677(18)
C5_11 C 0.5907(6) 0.7510(4) 0.82615(15)
H5_11 H 0.6158 0.6817 0.8277
H6_11 H 0.6307 0.7862 0.8058
C6_11 C 0.6350(5) 0.7974(5) 0.93601(15)
H7_11 H 0.6416 0.7584 0.9594
C7_11 C 0.6149(4) 0.7492(5) 0.90085(16)
H8_11 H 0.6057 0.6789 0.9008
C8_11 C 0.6081(4) 0.8012(4) 0.86600(13)
C9_11 C 0.6252(5) 0.9000(6) 0.86845(15)
H9_11 H 0.6265 0.9391 0.8450
C10_11 C 0.6412(5) 0.9459(6) 0.90556(17)
H11_9 H 0.0818167 0.874965 0.787179
H12_11 H 0.0361588 0.901598 0.74393
H10_10 H 0.0162 0.3509 0.0935
O1_10 O 0.9481(3) 0.6842(4) 0.20761(16)
O4_10 O 0.5165(5) 0.6352(5) 0.16066(16)
O5_10 O 0.8884(3) 0.9016(3) 0.24102(16)
C1_10 C 0.8572(5) 0.5469(5) 0.1890(2)
H1_12 H 0.8986 0.4917 0.1994
H2_10 H 0.8808 0.5626 0.1619
C2_10 C 0.8705(4) 0.6369(4) 0.21493(18)
C3_10 C 0.6924(5) 0.5838(6) 0.1647(2)
H3_10 H 0.6856 0.5600 0.1371
H4_10 H 0.7287 0.6480 0.1642
C4_10 C 0.5841(4) 0.6009(5) 0.18323(18)
C5_12 C 0.7510(4) 0.4093(6) 0.17385(15)
H5_12 H 0.6817 0.3842 0.1723
H6_12 H 0.7862 0.3693 0.1942
C6_12 C 0.7974(5) 0.3650(5) 0.06399(15)
H7_12 H 0.7584 0.3584 0.0406
C7_12 C 0.7492(5) 0.3851(4) 0.09915(16)
H8_12 H 0.6789 0.3943 0.0992
C8_12 C 0.8012(4) 0.3919(4) 0.13400(13)
C9_12 C 0.9000(6) 0.3748(5) 0.13155(15)
H9_12 H 0.9391 0.3735 0.1550
C10_12 C 0.9459(6) 0.3588(5) 0.09444(17)
H11_10 H 0.874965 0.918183 0.212821
H12_12 H 0.901598 0.963841 0.25607
H1_13 H 0.0083 0.1014 0.9494
C5_13 C 0.0907(6) 0.2490(4) 0.92385(15)
H5_13 H 0.1158 0.3183 0.9223
H6_13 H 0.1307 0.2138 0.9442
C6_13 C 0.1350(5) 0.2026(5) 0.81399(15)
H7_13 H 0.1416 0.2416 0.7906
C7_13 C 0.1149(4) 0.2508(5) 0.84915(16)
H8_13 H 0.1057 0.3211 0.8492
C8_13 C 0.1081(4) 0.1988(4) 0.88400(13)
C9_13 C 0.1252(5) 0.1000(6) 0.88155(15)
H9_13 H 0.1265 0.0609 0.9050
C10_13 C 0.1412(5) 0.0541(6) 0.84444(17)
H12_13 H 0.536159 0.0984017 0.00607016
O1_11 O 0.4481(3) 0.3158(4) 0.54239(16)
O4_11 O 0.0165(5) 0.3648(5) 0.58934(16)
O5_11 O 0.3884(3) 0.0984(3) 0.50898(16)
C1_11 C 0.3572(5) 0.4531(5) 0.5610(2)
H1_14 H 0.3986 0.5083 0.5506
H2_11 H 0.3808 0.4374 0.5881
C2_11 C 0.3705(4) 0.3631(4) 0.53507(18)
C3_11 C 0.1924(5) 0.4162(6) 0.5853(2)
H3_11 H 0.1856 0.4400 0.6129
H4_11 H 0.2287 0.3520 0.5858
C4_11 C 0.0841(4) 0.3991(5) 0.56677(18)
C5_14 C 0.2510(4) 0.5907(6) 0.57615(15)
H5_14 H 0.1817 0.6158 0.5777
H6_14 H 0.2862 0.6307 0.5558
C6_14 C 0.2974(5) 0.6350(5) 0.68601(15)
H7_14 H 0.2584 0.6416 0.7094
C7_14 C 0.2492(5) 0.6149(4) 0.65085(16)
H8_14 H 0.1789 0.6057 0.6508
C8_14 C 0.3012(4) 0.6081(4) 0.61600(13)
C9_14 C 0.4000(6) 0.6252(5) 0.61845(15)
H9_14 H 0.4391 0.6265 0.5950
C10_14 C 0.4459(6) 0.6412(5) 0.65556(17)
H10_11 H 0.5162 0.6491 0.6565
H11_11 H 0.374965 0.0818167 0.537179
H12_14 H 0.401598 0.0361588 0.49393
H12_15 H 0.463841 0.901598 0.00607016
H1_15 H 0.9917 0.8986 0.9494
C5_15 C 0.9093(6) 0.7510(4) 0.92385(15)
H5_15 H 0.8842 0.6817 0.9223
H6_15 H 0.8693 0.7862 0.9442
C6_15 C 0.8650(5) 0.7974(5) 0.81399(15)
H7_15 H 0.8584 0.7584 0.7906
C7_15 C 0.8851(4) 0.7492(5) 0.84915(16)
H8_15 H 0.8943 0.6789 0.8492
C8_15 C 0.8919(4) 0.8012(4) 0.88400(13)
C9_15 C 0.8748(5) 0.9000(6) 0.88155(15)
H9_15 H 0.8735 0.9391 0.9050
C10_15 C 0.8588(5) 0.9459(6) 0.84444(17)
O1_12 O 0.5519(3) 0.6842(4) 0.54239(16)
O4_12 O 0.9835(5) 0.6352(5) 0.58934(16)
O5_12 O 0.6116(3) 0.9016(3) 0.50898(16)
C1_12 C 0.6428(5) 0.5469(5) 0.5610(2)
H1_16 H 0.6014 0.4917 0.5506
H2_12 H 0.6192 0.5626 0.5881
C2_12 C 0.6295(4) 0.6369(4) 0.53507(18)
C3_12 C 0.8076(5) 0.5838(6) 0.5853(2)
H3_12 H 0.8144 0.5600 0.6129
H4_12 H 0.7713 0.6480 0.5858
C4_12 C 0.9159(4) 0.6009(5) 0.56677(18)
C5_16 C 0.7490(4) 0.4093(6) 0.57615(15)
H5_16 H 0.8183 0.3842 0.5777
H6_16 H 0.7138 0.3693 0.5558
C6_16 C 0.7026(5) 0.3650(5) 0.68601(15)
H7_16 H 0.7416 0.3584 0.7094
C7_16 C 0.7508(5) 0.3851(4) 0.65085(16)
H8_16 H 0.8211 0.3943 0.6508
C8_16 C 0.6988(4) 0.3919(4) 0.61600(13)
C9_16 C 0.6000(6) 0.3748(5) 0.61845(15)
H9_16 H 0.5609 0.3735 0.5950
C10_16 C 0.5541(6) 0.3588(5) 0.65556(17)
H10_12 H 0.4838 0.3509 0.6565
H11_12 H 0.625035 0.918183 0.537179
H12_16 H 0.598402 0.963841 0.49393
H10_13 H 0.0162 0.1491 0.1565
O6_7 O 0.1478(4) 0.8181(4) 0.99351(14)
O7_7 O 0.0956(3) 0.5756(3) 0.96943(11)
N3_7 N 0.0131(3) 0.7484(3) 0.93703(11)
O1_13 O 0.1842(4) 0.9481(3) 0.95761(16)
O4_13 O 0.1352(5) 0.5165(5) 0.91066(16)
O5_13 O 0.4016(3) 0.8884(3) 0.99102(16)
C1_13 C 0.0469(5) 0.8572(5) 0.9390(2)
H2_13 H 0.0626 0.8808 0.9119
C2_13 C 0.1369(4) 0.8705(4) 0.96493(18)
C3_13 C 0.0838(6) 0.6924(5) 0.9147(2)
H3_13 H 0.0600 0.6856 0.8871
H4_13 H 0.1480 0.7287 0.9142
C4_13 C 0.1009(5) 0.5841(4) 0.93323(18)
H11_13 H 0.418183 0.874965 0.962821
O1_14 O 0.9481(3) 0.8158(4) 0.04239(16)
O2_7 O 0.8181(4) 0.8522(4) 0.00649(14)
O3_7 O 0.5756(3) 0.9044(3) 0.03057(11)
O4_14 O 0.5165(5) 0.8648(5) 0.08934(16)
O5_14 O 0.8884(3) 0.5984(3) 0.00898(16)
N1_7 N 0.7484(3) 0.9869(3) 0.06297(11)
C1_14 C 0.8572(5) 0.9531(5) 0.0610(2)
H2_14 H 0.8808 0.9374 0.0881
C2_14 C 0.8705(4) 0.8631(4) 0.03507(18)
C3_14 C 0.6924(5) 0.9162(6) 0.0853(2)
H3_14 H 0.6856 0.9400 0.1129
H4_14 H 0.7287 0.8520 0.0858
C4_14 C 0.5841(4) 0.8991(5) 0.06677(18)
H11_14 H 0.874965 0.581817 0.0371786
O1_15 O 0.0519(3) 0.1842(4) 0.04239(16)
O2_8 O 0.1819(4) 0.1478(4) 0.00649(14)
O3_8 O 0.4244(3) 0.0956(3) 0.03057(11)
O4_15 O 0.4835(5) 0.1352(5) 0.08934(16)
O5_15 O 0.1116(3) 0.4016(3) 0.00898(16)
N1_8 N 0.2516(3) 0.0131(3) 0.06297(11)
C1_15 C 0.1428(5) 0.0469(5) 0.0610(2)
H2_15 H 0.1192 0.0626 0.0881
C2_15 C 0.1295(4) 0.1369(4) 0.03507(18)
C3_15 C 0.3076(5) 0.0838(6) 0.0853(2)
H3_15 H 0.3144 0.0600 0.1129
H4_15 H 0.2713 0.1480 0.0858
C4_15 C 0.4159(4) 0.1009(5) 0.06677(18)
H11_15 H 0.125035 0.418183 0.0371786
O6_8 O 0.8522(4) 0.1819(4) 0.99351(14)
O7_8 O 0.9044(3) 0.4244(3) 0.96943(11)
N3_8 N 0.9869(3) 0.2516(3) 0.93703(11)
O1_16 O 0.8158(4) 0.0519(3) 0.95761(16)
O4_16 O 0.8648(5) 0.4835(5) 0.91066(16)
O5_16 O 0.5984(3) 0.1116(3) 0.99102(16)
C1_16 C 0.9531(5) 0.1428(5) 0.9390(2)
H2_16 H 0.9374 0.1192 0.9119
C2_16 C 0.8631(4) 0.1295(4) 0.96493(18)
C3_16 C 0.9162(6) 0.3076(5) 0.9147(2)
H3_16 H 0.9400 0.3144 0.8871
H4_16 H 0.8520 0.2713 0.9142
C4_16 C 0.8991(5) 0.4159(4) 0.93323(18)
H11_16 H 0.581817 0.125035 0.962821
H10_14 H 0.9838 0.8509 0.1565
H10_15 H 0.1491 0.9838 0.8435
H10_16 H 0.8509 0.0162 0.8435
loop_
_geom_bond_atom_site_label_1
_geom_bond_atom_site_label_2
_geom_bond_site_symmetry_1
_geom_bond_site_symmetry_2
Cd1 O1 1_555 1_555
O1 C2 1_555 1_555
O2 C2 1_555 1_555
O3 C4 1_555 1_555
O4 C4 1_555 1_555
O5 Cd1 1_555 1_555
N1 C1 1_555 1_555
H2 C1 1_555 1_555
C2 C1 1_555 1_555
C3 N1 1_555 1_555
H3 C3 1_555 1_555
H4 C3 1_555 1_555
C4 C3 1_555 1_555
Cd2 O2 1_555 1_555
O6 Cd1 1_555 1_555
O7 Cd1 1_555 1_555
N3 Cd1 1_555 1_555
N4 Cd1 1_555 1_555
O3 Cd2 1_555 1_555
N1 Cd2 1_555 1_555
O5 H11 1_555 1_555
O5 H12 1_555 1_555
N2 C6 1_555 1_555
H5 C5 1_555 1_555
H6 C5 1_555 1_555
C6 H7 1_555 1_555
C7 C6 1_555 1_555
H8 C7 1_555 1_555
C8 C5 1_555 1_555
C9 C8 1_555 1_555
H9 C9 1_555 1_555
C10 N2 1_555 1_555
H10 C10 1_555 1_555
Cd3 N2 1_555 1_555
C7 C8 1_555 1_555
C9 C10 1_555 1_555
N2_2 C6_2 1_555 1_555
H5_2 C5_2 1_555 1_555
H6_2 C5_2 1_555 1_555
C6_2 H7_2 1_555 1_555
C7_2 C6_2 1_555 1_555
H8_2 C7_2 1_555 1_555
C8_2 C5_2 1_555 1_555
C9_2 C8_2 1_555 1_555
H9_2 C9_2 1_555 1_555
C10_2 N2_2 1_555 1_555
H10_2 C10_2 1_555 1_555
Cd3_2 N2_2 1_555 1_555
C7_2 C8_2 1_555 1_555
C9_2 C10_2 1_555 1_555
Cd1_2 O1_2 1_555 1_555
O1_2 C2_2 1_555 1_555
O2_2 C2_2 1_555 1_555
O3_2 C4_2 1_555 1_555
O4_2 C4_2 1_555 1_555
O5_2 Cd1_2 1_555 1_555
N1_2 C1_2 1_555 1_555
H2_2 C1_2 1_555 1_555
C2_2 C1_2 1_555 1_555
C3_2 N1_2 1_555 1_555
H3_2 C3_2 1_555 1_555
H4_2 C3_2 1_555 1_555
C4_2 C3_2 1_555 1_555
Cd2_2 O2_2 1_555 1_555
O6_2 Cd1_2 1_555 1_555
O7_2 Cd1_2 1_555 1_555
N3_2 Cd1_2 1_555 1_555
N4_2 Cd1_2 1_555 1_555
O3_2 Cd2_2 1_555 1_555
N1_2 Cd2_2 1_555 1_555
O5_2 H11_2 1_555 1_555
O5_2 H12_2 1_555 1_555
N2_3 C6_3 1_555 1_555
H5_3 C5_3 1_555 1_555
H6_3 C5_3 1_555 1_555
C6_3 H7_3 1_555 1_555
C7_3 C6_3 1_555 1_555
H8_3 C7_3 1_555 1_555
C8_3 C5_3 1_555 1_555
C9_3 C8_3 1_555 1_555
H9_3 C9_3 1_555 1_555
C10_3 N2_3 1_555 1_555
H10_3 C10_3 1_555 1_555
Cd3_3 N2_3 1_555 1_555
C7_3 C8_3 1_555 1_555
C9_3 C10_3 1_555 1_555
Cd1_3 O1_3 1_555 1_555
O1_3 C2_3 1_555 1_555
O2_3 C2_3 1_555 1_555
O3_3 C4_3 1_555 1_555
O4_3 C4_3 1_555 1_555
O5_3 Cd1_3 1_555 1_555
N1_3 C1_3 1_555 1_555
H2_3 C1_3 1_555 1_555
C2_3 C1_3 1_555 1_555
C3_3 N1_3 1_555 1_555
H3_3 C3_3 1_555 1_555
H4_3 C3_3 1_555 1_555
C4_3 C3_3 1_555 1_555
Cd2_3 O2_3 1_555 1_555
O6_3 Cd1_3 1_555 1_555
O7_3 Cd1_3 1_555 1_555
N3_3 Cd1_3 1_555 1_555
N4_3 Cd1_3 1_555 1_555
O3_3 Cd2_3 1_555 1_555
N1_3 Cd2_3 1_555 1_555
O5_3 H11_3 1_555 1_555
O5_3 H12_3 1_555 1_555
Cd1_4 O1_4 1_555 1_555
O1_4 C2_4 1_555 1_555
O2_4 C2_4 1_555 1_555
O3_4 C4_4 1_555 1_555
O4_4 C4_4 1_555 1_555
O5_4 Cd1_4 1_555 1_555
N1_4 C1_4 1_555 1_555
H2_4 C1_4 1_555 1_555
C2_4 C1_4 1_555 1_555
C3_4 N1_4 1_555 1_555
H3_4 C3_4 1_555 1_555
H4_4 C3_4 1_555 1_555
C4_4 C3_4 1_555 1_555
Cd2_4 O2_4 1_555 1_555
O6_4 Cd1_4 1_555 1_555
O7_4 Cd1_4 1_555 1_555
N3_4 Cd1_4 1_555 1_555
N4_4 Cd1_4 1_555 1_555
O3_4 Cd2_4 1_555 1_555
N1_4 Cd2_4 1_555 1_555
O5_4 H11_4 1_555 1_555
O5_4 H12_4 1_555 1_555
N2_4 C6_4 1_555 1_555
H5_4 C5_4 1_555 1_555
H6_4 C5_4 1_555 1_555
C6_4 H7_4 1_555 1_555
C7_4 C6_4 1_555 1_555
H8_4 C7_4 1_555 1_555
C8_4 C5_4 1_555 1_555
C9_4 C8_4 1_555 1_555
H9_4 C9_4 1_555 1_555
C10_4 N2_4 1_555 1_555
H10_4 C10_4 1_555 1_555
Cd3_4 N2_4 1_555 1_555
C7_4 C8_4 1_555 1_555
C9_4 C10_4 1_555 1_555
Cd3_3 O1_5 1_555 1_555
O1_5 C2_5 1_555 1_555
O2_5 C2_5 1_555 1_555
O3_5 C4_5 1_555 1_555
O4_5 C4_5 1_555 1_555
O5_5 Cd3_3 1_555 1_555
N1_5 C1_5 1_555 1_555
N4_3 C6_5 1_555 1_555
C1_5 H1_5 1_555 1_555
H2_5 C1_5 1_555 1_555
C2_5 C1_5 1_555 1_555
C3_5 N1_5 1_555 1_555
H3_5 C3_5 1_555 1_555
H4_5 C3_5 1_555 1_555
C4_5 C3_5 1_555 1_555
C5_5 N1_5 1_555 1_555
H5_5 C5_5 1_555 1_555
H6_5 C5_5 1_555 1_555
C6_5 H7_5 1_555 1_555
C7_5 C6_5 1_555 1_555
H8_5 C7_5 1_555 1_555
C8_5 C5_5 1_555 1_555
C9_5 C8_5 1_555 1_555
H9_5 C9_5 1_555 1_555
C10_5 N4_3 1_555 1_555
H10_5 C10_5 1_555 1_555
Cd3_4 O2_5 1_555 1_555
O6_5 Cd3_3 1_555 1_555
O7_5 Cd3_3 1_555 1_555
N3_5 Cd3_3 1_555 1_555
O3_5 Cd3_4 1_555 1_555
N1_5 Cd3_4 1_555 1_555
C7_5 C8_5 1_555 1_555
C9_5 C10_5 1_555 1_555
O5_5 H11_5 1_555 1_555
O5_5 H12_5 1_555 1_555
N4_5 Cd1_5 1_555 1_555
N2_5 C6_6 1_555 1_555
H5_6 C5_6 1_555 1_555
H6_6 C5_6 1_555 1_555
C6_6 H7_6 1_555 1_555
C7_6 C6_6 1_555 1_555
H8_6 C7_6 1_555 1_555
C8_6 C5_6 1_555 1_555
C9_6 C8_6 1_555 1_555
H9_6 C9_6 1_555 1_555
C10_6 N2_5 1_555 1_555
Cd2_3 N2_5 1_555 1_555
C7_6 C8_6 1_555 1_555
C9_6 C10_6 1_555 1_555
Cd3 O1_6 1_555 1_555
O1_6 C2_6 1_555 1_555
O2_6 C2_6 1_555 1_555
O3_6 C4_6 1_555 1_555
O4_6 C4_6 1_555 1_555
O5_6 Cd3 1_555 1_555
N1_6 C1_6 1_555 1_555
N4 C6_7 1_555 1_555
C1_6 H1_7 1_555 1_555
H2_6 C1_6 1_555 1_555
C2_6 C1_6 1_555 1_555
C3_6 N1_6 1_555 1_555
H3_6 C3_6 1_555 1_555
H4_6 C3_6 1_555 1_555
C4_6 C3_6 1_555 1_555
C5_7 N1_6 1_555 1_555
H5_7 C5_7 1_555 1_555
H6_7 C5_7 1_555 1_555
C6_7 H7_7 1_555 1_555
C7_7 C6_7 1_555 1_555
H8_7 C7_7 1_555 1_555
C8_7 C5_7 1_555 1_555
C9_7 C8_7 1_555 1_555
H9_7 C9_7 1_555 1_555
C10_7 N4 1_555 1_555
H10_6 C10_7 1_555 1_555
Cd3_2 O2_6 1_555 1_555
O6_6 Cd3 1_555 1_555
O7_6 Cd3 1_555 1_555
N3_6 Cd3 1_555 1_555
O3_6 Cd3_2 1_555 1_555
N1_6 Cd3_2 1_555 1_555
C7_7 C8_7 1_555 1_555
C9_7 C10_7 1_555 1_555
O5_6 H11_6 1_555 1_555
O5_6 H12_7 1_555 1_555
N2_6 C6_8 1_555 1_555
H5_8 C5_8 1_555 1_555
H6_8 C5_8 1_555 1_555
C6_8 H7_8 1_555 1_555
C7_8 C6_8 1_555 1_555
H8_8 C7_8 1_555 1_555
C8_8 C5_8 1_555 1_555
C9_8 C8_8 1_555 1_555
H9_8 C9_8 1_555 1_555
C10_8 N2_6 1_555 1_555
Cd2 N2_6 1_555 1_555
C7_8 C8_8 1_555 1_555
C9_8 C10_8 1_555 1_555
N4_6 Cd1_6 1_555 1_555
O1_7 C2_7 1_555 1_555
O6_4 C2_7 1_555 1_555
O7_4 C4_7 1_555 1_555
O4_7 C4_7 1_555 1_555
N3_4 C1_7 1_555 1_555
N2_7 C6_9 1_555 1_555
C1_7 H1_9 1_555 1_555
H2_7 C1_7 1_555 1_555
C2_7 C1_7 1_555 1_555
C3_7 N3_4 1_555 1_555
H3_7 C3_7 1_555 1_555
H4_7 C3_7 1_555 1_555
C4_7 C3_7 1_555 1_555
C5_9 N3_4 1_555 1_555
H5_9 C5_9 1_555 1_555
H6_9 C5_9 1_555 1_555
C6_9 H7_9 1_555 1_555
C7_9 C6_9 1_555 1_555
H8_9 C7_9 1_555 1_555
C8_9 C5_9 1_555 1_555
C9_9 C8_9 1_555 1_555
H9_9 C9_9 1_555 1_555
C10_9 N2_7 1_555 1_555
Cd2_6 N2_7 1_555 1_555
C7_9 C8_9 1_555 1_555
C9_9 C10_9 1_555 1_555
O5_7 H11_7 1_555 1_555
O5_7 H12_9 1_555 1_555
N4_7 Cd2_2 1_555 1_555
O1_8 C2_8 1_555 1_555
O6 C2_8 1_555 1_555
O7 C4_8 1_555 1_555
O4_8 C4_8 1_555 1_555
N3 C1_8 1_555 1_555
N4_5 C6_10 1_555 1_555
C1_8 H1_10 1_555 1_555
H2_8 C1_8 1_555 1_555
C2_8 C1_8 1_555 1_555
C3_8 N3 1_555 1_555
H3_8 C3_8 1_555 1_555
H4_8 C3_8 1_555 1_555
C4_8 C3_8 1_555 1_555
C5_10 N3 1_555 1_555
H5_10 C5_10 1_555 1_555
H6_10 C5_10 1_555 1_555
C6_10 H7_10 1_555 1_555
C7_10 C6_10 1_555 1_555
H8_10 C7_10 1_555 1_555
C8_10 C5_10 1_555 1_555
C9_10 C8_10 1_555 1_555
H9_10 C9_10 1_555 1_555
C10_10 N4_5 1_555 1_555
C7_10 C8_10 1_555 1_555
C9_10 C10_10 1_555 1_555
O5_8 H11_8 1_555 1_555
O5_8 H12_10 1_555 1_555
N4_8 Cd2_4 1_555 1_555
O1_9 C2_9 1_555 1_555
O6_2 C2_9 1_555 1_555
O7_2 C4_9 1_555 1_555
O4_9 C4_9 1_555 1_555
N3_2 C1_9 1_555 1_555
N2_8 C6_11 1_555 1_555
C1_9 H1_11 1_555 1_555
H2_9 C1_9 1_555 1_555
C2_9 C1_9 1_555 1_555
C3_9 N3_2 1_555 1_555
H3_9 C3_9 1_555 1_555
H4_9 C3_9 1_555 1_555
C4_9 C3_9 1_555 1_555
C5_11 N3_2 1_555 1_555
H5_11 C5_11 1_555 1_555
H6_11 C5_11 1_555 1_555
C6_11 H7_11 1_555 1_555
C7_11 C6_11 1_555 1_555
H8_11 C7_11 1_555 1_555
C8_11 C5_11 1_555 1_555
C9_11 C8_11 1_555 1_555
H9_11 C9_11 1_555 1_555
C10_11 N2_8 1_555 1_555
Cd2_5 N2_8 1_555 1_555
C7_11 C8_11 1_555 1_555
C9_11 C10_11 1_555 1_555
O5_9 H11_9 1_555 1_555
O5_9 H12_11 1_555 1_555
O1_10 C2_10 1_555 1_555
O6_3 C2_10 1_555 1_555
O7_3 C4_10 1_555 1_555
O4_10 C4_10 1_555 1_555
N3_3 C1_10 1_555 1_555
N4_6 C6_12 1_555 1_555
C1_10 H1_12 1_555 1_555
H2_10 C1_10 1_555 1_555
C2_10 C1_10 1_555 1_555
C3_10 N3_3 1_555 1_555
H3_10 C3_10 1_555 1_555
H4_10 C3_10 1_555 1_555
C4_10 C3_10 1_555 1_555
C5_12 N3_3 1_555 1_555
H5_12 C5_12 1_555 1_555
H6_12 C5_12 1_555 1_555
C6_12 H7_12 1_555 1_555
C7_12 C6_12 1_555 1_555
H8_12 C7_12 1_555 1_555
C8_12 C5_12 1_555 1_555
C9_12 C8_12 1_555 1_555
H9_12 C9_12 1_555 1_555
C10_12 N4_6 1_555 1_555
C7_12 C8_12 1_555 1_555
C9_12 C10_12 1_555 1_555
O5_10 H11_10 1_555 1_555
O5_10 H12_12 1_555 1_555
N4_8 C6_13 1_555 1_555
H5_13 C5_13 1_555 1_555
H6_13 C5_13 1_555 1_555
C6_13 H7_13 1_555 1_555
C7_13 C6_13 1_555 1_555
H8_13 C7_13 1_555 1_555
C8_13 C5_13 1_555 1_555
C9_13 C8_13 1_555 1_555
H9_13 C9_13 1_555 1_555
C10_13 N4_8 1_555 1_555
C7_13 C8_13 1_555 1_555
C9_13 C10_13 1_555 1_555
Cd3_2 O1_11 1_555 1_555
O1_11 C2_11 1_555 1_555
O6_5 C2_11 1_555 1_555
O7_5 C4_11 1_555 1_555
O4_11 C4_11 1_555 1_555
O5_11 Cd3_2 1_555 1_555
N3_5 C1_11 1_555 1_555
N4_2 C6_14 1_555 1_555
C1_11 H1_14 1_555 1_555
H2_11 C1_11 1_555 1_555
C2_11 C1_11 1_555 1_555
C3_11 N3_5 1_555 1_555
H3_11 C3_11 1_555 1_555
H4_11 C3_11 1_555 1_555
C4_11 C3_11 1_555 1_555
C5_14 N3_5 1_555 1_555
H5_14 C5_14 1_555 1_555
H6_14 C5_14 1_555 1_555
C6_14 H7_14 1_555 1_555
C7_14 C6_14 1_555 1_555
H8_14 C7_14 1_555 1_555
C8_14 C5_14 1_555 1_555
C9_14 C8_14 1_555 1_555
H9_14 C9_14 1_555 1_555
C10_14 N4_2 1_555 1_555
H10_11 C10_14 1_555 1_555
C7_14 C8_14 1_555 1_555
C9_14 C10_14 1_555 1_555
O5_11 H11_11 1_555 1_555
O5_11 H12_14 1_555 1_555
N4_7 C6_15 1_555 1_555
H5_15 C5_15 1_555 1_555
H6_15 C5_15 1_555 1_555
C6_15 H7_15 1_555 1_555
C7_15 C6_15 1_555 1_555
H8_15 C7_15 1_555 1_555
C8_15 C5_15 1_555 1_555
C9_15 C8_15 1_555 1_555
H9_15 C9_15 1_555 1_555
C10_15 N4_7 1_555 1_555
C7_15 C8_15 1_555 1_555
C9_15 C10_15 1_555 1_555
Cd3_4 O1_12 1_555 1_555
O1_12 C2_12 1_555 1_555
O6_6 C2_12 1_555 1_555
O7_6 C4_12 1_555 1_555
O4_12 C4_12 1_555 1_555
O5_12 Cd3_4 1_555 1_555
N3_6 C1_12 1_555 1_555
N4_4 C6_16 1_555 1_555
C1_12 H1_16 1_555 1_555
H2_12 C1_12 1_555 1_555
C2_12 C1_12 1_555 1_555
C3_12 N3_6 1_555 1_555
H3_12 C3_12 1_555 1_555
H4_12 C3_12 1_555 1_555
C4_12 C3_12 1_555 1_555
C5_16 N3_6 1_555 1_555
H5_16 C5_16 1_555 1_555
H6_16 C5_16 1_555 1_555
C6_16 H7_16 1_555 1_555
C7_16 C6_16 1_555 1_555
H8_16 C7_16 1_555 1_555
C8_16 C5_16 1_555 1_555
C9_16 C8_16 1_555 1_555
H9_16 C9_16 1_555 1_555
C10_16 N4_4 1_555 1_555
H10_12 C10_16 1_555 1_555
C7_16 C8_16 1_555 1_555
C9_16 C10_16 1_555 1_555
O5_12 H11_12 1_555 1_555
O5_12 H12_16 1_555 1_555
O1_13 C2_13 1_555 1_555
O6_7 C2_13 1_555 1_555
O7_7 C4_13 1_555 1_555
O4_13 C4_13 1_555 1_555
N3_7 C1_13 1_555 1_555
H2_13 C1_13 1_555 1_555
C2_13 C1_13 1_555 1_555
C3_13 N3_7 1_555 1_555
H3_13 C3_13 1_555 1_555
H4_13 C3_13 1_555 1_555
C4_13 C3_13 1_555 1_555
O5_13 H11_13 1_555 1_555
O1_14 C2_14 1_555 1_555
O2_7 C2_14 1_555 1_555
O3_7 C4_14 1_555 1_555
O4_14 C4_14 1_555 1_555
N1_7 C1_14 1_555 1_555
H2_14 C1_14 1_555 1_555
C2_14 C1_14 1_555 1_555
C3_14 N1_7 1_555 1_555
H3_14 C3_14 1_555 1_555
H4_14 C3_14 1_555 1_555
C4_14 C3_14 1_555 1_555
O5_14 H11_14 1_555 1_555
O1_15 C2_15 1_555 1_555
O2_8 C2_15 1_555 1_555
O3_8 C4_15 1_555 1_555
O4_15 C4_15 1_555 1_555
N1_8 C1_15 1_555 1_555
H2_15 C1_15 1_555 1_555
C2_15 C1_15 1_555 1_555
C3_15 N1_8 1_555 1_555
H3_15 C3_15 1_555 1_555
H4_15 C3_15 1_555 1_555
C4_15 C3_15 1_555 1_555
O5_15 H11_15 1_555 1_555
O1_16 C2_16 1_555 1_555
O6_8 C2_16 1_555 1_555
O7_8 C4_16 1_555 1_555
O4_16 C4_16 1_555 1_555
N3_8 C1_16 1_555 1_555
H2_16 C1_16 1_555 1_555
C2_16 C1_16 1_555 1_555
C3_16 N3_8 1_555 1_555
H3_16 C3_16 1_555 1_555
H4_16 C3_16 1_555 1_555
C4_16 C3_16 1_555 1_555
O5_16 H11_16 1_555 1_555

#END
