
###############################################################################
#
# This file contains modified crystal structure data generated from the
# MOF subset of the Cambridge Structural Database (CSD) v543 
# hosted by the Cambridge Crystallographic Data Centre (CCDC).
#
# This work is licensed under the Creative Commons
# Attribution-NonCommercial-ShareAlike 4.0 International License.
# To view a copy of this license, visit
# http://creativecommons.org/licenses/by-nc-sa/4.0/
# or send a letter to
# Creative Commons, PO Box 1866, Mountain View, CA 94042, USA.
#
# CIF created using the CSD Python API on 29 September 2022
# The structure has been converted into the P1 space group
# The structure has a 3D framework
# The original CSD entry VAQLAC is in the orthorhombic crystal system
# The framework has been calculated to contain at least 10.0% void space
# The void calculation uses a probe of radius 1.32A, grid spacing 0.4
#
###############################################################################

data_VAQLAC
_chemical_formula_moiety         '(C40 H48 Cd4 N8 O17)n'
_symmetry_cell_setting           triclinic
_symmetry_space_group_name_H-M   'P 1'
_symmetry_Int_Tables_number      1
_space_group_name_Hall           'P 1'
loop_
_symmetry_equiv_pos_site_id
_symmetry_equiv_pos_as_xyz
1 x,y,z
_cell_length_a                   8.395(3)
_cell_length_b                   9.562(2)
_cell_length_c                   16.475(6)
_cell_angle_alpha                90
_cell_angle_beta                 90
_cell_angle_gamma                90
_cell_volume                     1322.5
loop_
_atom_site_label
_atom_site_type_symbol
_atom_site_fract_x
_atom_site_fract_y
_atom_site_fract_z
H2 H 0.675(4) 0.024(3) 0.0355(16)
O6 O 0.3850(2) 0.12038(19) 0.10359(14)
O2 O 0.3000(2) 0.33603(17) 0.08124(12)
C1 C 0.1776(3) 0.1530(2) 0.00570(14)
H4 H 0.0799 0.1237 0.0348
C2 C 0.2976(2) 0.20834(18) 0.0670(2)
N3 N 0.2386(2) 0.03367(17) 0.95818(10)
Cd1 Cd 0.385488(14) 0.895485(11) 0.061408(16)
O1 O 0.1150(2) 0.62038(19) 0.60359(14)
O2_2 O 0.2000(2) 0.83603(17) 0.58124(12)
O3 O 0.38818(16) 0.32931(17) 0.55498(18)
O4 O 0.59494(19) 0.29476(17) 0.47520(12)
O5 O 0.6262(2) 0.9691(2) 0.01004(13)
H1 H 0.688(4) 0.904(3) 0.003(2)
N1 N 0.2614(2) 0.53367(17) 0.45818(10)
N2 N 0.3532(2) 0.7895(2) 0.18538(12)
C1_2 C 0.3224(3) 0.6530(2) 0.50570(14)
H3 H 0.3520 0.7294 0.4680
H4_2 H 0.4201 0.6237 0.5348
C2_2 C 0.2024(2) 0.70834(18) 0.5670(2)
C3 C 0.3926(2) 0.4480(3) 0.42697(15)
H5 H 0.4776 0.5102 0.4061
H6 H 0.3535 0.3907 0.3811
C4 C 0.4624(2) 0.3519(2) 0.49152(13)
C5 C 0.1507(3) 0.5768(3) 0.39268(14)
H7 H 0.0682 0.6382 0.4167
H8 H 0.0961 0.4922 0.3720
C6 C 0.3417(3) 0.6497(3) 0.18820(14)
H9 H 0.3790 0.5972 0.1431
C7 C 0.2777(3) 0.5781(2) 0.25386(14)
H10 H 0.2701 0.4790 0.2530
C8 C 0.2251(3) 0.6530(2) 0.32082(14)
C9 C 0.2411(3) 0.7974(2) 0.31889(15)
H11 H 0.2096 0.8524 0.3642
C10 C 0.3037(3) 0.8609(3) 0.25006(15)
H12 H 0.3115 0.9600 0.2491
Cd2 Cd 0.114512(14) 0.395485(11) 0.561408(16)
Cd3 Cd 0.614512(14) 0.104515(11) 0.561408(16)
O7 O 0.11182(16) 0.82931(17) 0.05498(18)
O8 O 0.40506(19) 0.70524(17) 0.97520(12)
N2_2 N 0.1468(2) 0.2895(2) 0.68538(12)
H3_2 H 0.1480 0.2294 0.9680
H5_2 H 0.0224 0.0102 0.9061
C5_2 C 0.3493(3) 0.0768(3) 0.89268(14)
H7_2 H 0.4318 0.1382 0.9167
C6_2 C 0.1583(3) 0.1497(3) 0.68820(14)
H9_2 H 0.1210 0.0972 0.6431
C7_2 C 0.2223(3) 0.0781(2) 0.75386(14)
C8_2 C 0.2749(3) 0.1530(2) 0.82082(14)
C9_2 C 0.2589(3) 0.2974(2) 0.81889(15)
H11_2 H 0.2904 0.3524 0.8642
C10_2 C 0.1963(3) 0.3609(3) 0.75006(15)
H12_2 H 0.1885 0.4600 0.7491
O8_2 O 0.09494(19) 0.20524(17) 0.47520(12)
Cd3_2 Cd 0.885488(14) 0.604515(11) 0.061408(16)
O4_2 O 0.90506(19) 0.79476(17) 0.97520(12)
O3_2 O 0.88818(16) 0.17069(17) 0.55498(18)
C3_2 C 0.8926(2) 0.0520(3) 0.42697(15)
H6_2 H 0.8535 0.1093 0.3811
C4_2 C 0.9624(2) 0.1481(2) 0.49152(13)
H8_2 H 0.5961 0.0078 0.3720
H10_2 H 0.7701 0.0210 0.2530
O1_2 O 0.6150(2) 0.87962(19) 0.60359(14)
O2_3 O 0.7000(2) 0.66397(17) 0.58124(12)
N1_2 N 0.7614(2) 0.96633(17) 0.45818(10)
N2_3 N 0.8532(2) 0.7105(2) 0.18538(12)
C1_3 C 0.8224(3) 0.8470(2) 0.50570(14)
H3_3 H 0.8520 0.7706 0.4680
H4_3 H 0.9201 0.8763 0.5348
C2_3 C 0.7024(2) 0.79166(18) 0.5670(2)
H5_3 H 0.9776 0.9898 0.4061
C5_3 C 0.6507(3) 0.9232(3) 0.39268(14)
H7_3 H 0.5682 0.8618 0.4167
C6_3 C 0.8417(3) 0.8503(3) 0.18820(14)
H9_3 H 0.8790 0.9028 0.1431
C7_3 C 0.7777(3) 0.9219(2) 0.25386(14)
C8_3 C 0.7251(3) 0.8470(2) 0.32082(14)
C9_3 C 0.7411(3) 0.7026(2) 0.31889(15)
H11_3 H 0.7096 0.6476 0.3642
C10_3 C 0.8037(3) 0.6391(3) 0.25006(15)
H12_3 H 0.8115 0.5400 0.2491
O6_2 O 0.8850(2) 0.37962(19) 0.10359(14)
O7_2 O 0.61182(16) 0.67069(17) 0.05498(18)
N3_2 N 0.7386(2) 0.46633(17) 0.95818(10)
O2_4 O 0.8000(2) 0.16397(17) 0.08124(12)
C1_4 C 0.6776(3) 0.3470(2) 0.00570(14)
H4_4 H 0.5799 0.3763 0.0348
C2_4 C 0.7976(2) 0.29166(18) 0.0670(2)
O5_2 O 0.3738(2) 0.0309(2) 0.51004(13)
H1_2 H 0.312(4) 0.096(3) 0.503(2)
N2_4 N 0.6468(2) 0.2105(2) 0.68538(12)
H3_4 H 0.6480 0.2706 0.9680
C3_3 C 0.6074(2) 0.5520(3) 0.92697(15)
H5_4 H 0.5224 0.4898 0.9061
H6_3 H 0.6465 0.6093 0.8811
C4_3 C 0.5376(2) 0.6481(2) 0.99152(13)
C5_4 C 0.8493(3) 0.4232(3) 0.89268(14)
H7_4 H 0.9318 0.3618 0.9167
H8_3 H 0.9039 0.5078 0.8720
C6_4 C 0.6583(3) 0.3503(3) 0.68820(14)
H9_4 H 0.6210 0.4028 0.6431
C7_4 C 0.7223(3) 0.4219(2) 0.75386(14)
H10_3 H 0.7299 0.5210 0.7530
C8_4 C 0.7749(3) 0.3470(2) 0.82082(14)
C9_4 C 0.7589(3) 0.2026(2) 0.81889(15)
H11_4 H 0.7904 0.1476 0.8642
C10_4 C 0.6963(3) 0.1391(3) 0.75006(15)
H12_4 H 0.6885 0.0400 0.7491
H2_2 H 0.325(4) 0.976(3) 0.5355(16)
C3_4 C 0.1074(2) 0.9480(3) 0.92697(15)
H6_4 H 0.1465 0.8907 0.8811
C4_4 C 0.0376(2) 0.8519(2) 0.99152(13)
H8_4 H 0.4039 0.9922 0.8720
H10_4 H 0.2299 0.9790 0.7530
O5_3 O 0.8738(2) 0.4691(2) 0.51004(13)
H1_3 H 0.812(4) 0.404(3) 0.503(2)
H2_3 H 0.825(4) 0.524(3) 0.5355(16)
O5_4 O 0.1262(2) 0.5309(2) 0.01004(13)
H1_4 H 0.188(4) 0.596(3) 0.003(2)
H2_4 H 0.175(4) 0.476(3) 0.0355(16)
loop_
_geom_bond_atom_site_label_1
_geom_bond_atom_site_label_2
_geom_bond_site_symmetry_1
_geom_bond_site_symmetry_2
O6 C2 1_555 1_555
O2 C2 1_555 1_555
H4 C1 1_555 1_555
C2 C1 1_555 1_555
Cd1 O5 1_555 1_555
O1 C2_2 1_555 1_555
O2_2 C2_2 1_555 1_555
O3 C4 1_555 1_555
O4 C4 1_555 1_555
O5 H1 1_555 1_555
N1 C1_2 1_555 1_555
N2 Cd1 1_555 1_555
C1_2 H3 1_555 1_555
H4_2 C1_2 1_555 1_555
C2_2 C1_2 1_555 1_555
C3 N1 1_555 1_555
H5 C3 1_555 1_555
H6 C3 1_555 1_555
C4 C3 1_555 1_555
C5 N1 1_555 1_555
H7 C5 1_555 1_555
H8 C5 1_555 1_555
C6 N2 1_555 1_555
H9 C6 1_555 1_555
C7 C6 1_555 1_555
H10 C7 1_555 1_555
C8 C5 1_555 1_555
C9 C8 1_555 1_555
H11 C9 1_555 1_555
C10 N2 1_555 1_555
H12 C10 1_555 1_555
Cd2 O1 1_555 1_555
Cd3 O4 1_555 1_555
O7 Cd1 1_555 1_555
O3 Cd2 1_555 1_555
N1 Cd2 1_555 1_555
C7 C8 1_555 1_555
C9 C10 1_555 1_555
N2_2 Cd2 1_555 1_555
C5_2 N3 1_555 1_555
H7_2 C5_2 1_555 1_555
C6_2 N2_2 1_555 1_555
H9_2 C6_2 1_555 1_555
C7_2 C6_2 1_555 1_555
C8_2 C5_2 1_555 1_555
C9_2 C8_2 1_555 1_555
H11_2 C9_2 1_555 1_555
C10_2 N2_2 1_555 1_555
H12_2 C10_2 1_555 1_555
O8_2 Cd2 1_555 1_555
C7_2 C8_2 1_555 1_555
C9_2 C10_2 1_555 1_555
O3_2 C4_2 1_555 1_555
H6_2 C3_2 1_555 1_555
C4_2 C3_2 1_555 1_555
O3_2 Cd3 1_555 1_555
O1_2 C2_3 1_555 1_555
O2_3 C2_3 1_555 1_555
N1_2 C1_3 1_555 1_555
N2_3 Cd3_2 1_555 1_555
C1_3 H3_3 1_555 1_555
H4_3 C1_3 1_555 1_555
C2_3 C1_3 1_555 1_555
C5_3 N1_2 1_555 1_555
H7_3 C5_3 1_555 1_555
C6_3 N2_3 1_555 1_555
H9_3 C6_3 1_555 1_555
C7_3 C6_3 1_555 1_555
C8_3 C5_3 1_555 1_555
C9_3 C8_3 1_555 1_555
H11_3 C9_3 1_555 1_555
C10_3 N2_3 1_555 1_555
H12_3 C10_3 1_555 1_555
O6_2 Cd3_2 1_555 1_555
O7_2 Cd3_2 1_555 1_555
C7_3 C8_3 1_555 1_555
C9_3 C10_3 1_555 1_555
O6_2 C2_4 1_555 1_555
O2_4 C2_4 1_555 1_555
H4_4 C1_4 1_555 1_555
C2_4 C1_4 1_555 1_555
Cd3 O5_2 1_555 1_555
O8 C4_3 1_555 1_555
O5_2 H1_2 1_555 1_555
N2_4 Cd3 1_555 1_555
C3_3 N3_2 1_555 1_555
H5_4 C3_3 1_555 1_555
H6_3 C3_3 1_555 1_555
C4_3 C3_3 1_555 1_555
C5_4 N3_2 1_555 1_555
H7_4 C5_4 1_555 1_555
H8_3 C5_4 1_555 1_555
C6_4 N2_4 1_555 1_555
H9_4 C6_4 1_555 1_555
C7_4 C6_4 1_555 1_555
H10_3 C7_4 1_555 1_555
C8_4 C5_4 1_555 1_555
C9_4 C8_4 1_555 1_555
H11_4 C9_4 1_555 1_555
C10_4 N2_4 1_555 1_555
H12_4 C10_4 1_555 1_555
C7_4 C8_4 1_555 1_555
C9_4 C10_4 1_555 1_555
H6_4 C3_4 1_555 1_555
C4_4 C3_4 1_555 1_555
O5_3 H1_3 1_555 1_555
H2_3 O5_3 1_555 1_555
O5_4 H1_4 1_555 1_555
H2_4 O5_4 1_555 1_555

#END
