
###############################################################################
#
# This file contains modified crystal structure data generated from the
# MOF subset of the Cambridge Structural Database (CSD) v543 
# hosted by the Cambridge Crystallographic Data Centre (CCDC).
#
# This work is licensed under the Creative Commons
# Attribution-NonCommercial-ShareAlike 4.0 International License.
# To view a copy of this license, visit
# http://creativecommons.org/licenses/by-nc-sa/4.0/
# or send a letter to
# Creative Commons, PO Box 1866, Mountain View, CA 94042, USA.
#
# CIF created using the CSD Python API on 29 September 2022
# The structure has been converted into the P1 space group
# The structure has a 3D framework
# The original CSD entry VAQRAK is in the monoclinic crystal system
# The framework has been calculated to contain at least 10.0% void space
# The void calculation uses a probe of radius 1.32A, grid spacing 0.4
#
###############################################################################

data_VAQRAK
_chemical_formula_moiety         '(C248 H200 Co12 N24 O48)n'
_symmetry_cell_setting           triclinic
_symmetry_space_group_name_H-M   'P 1'
_symmetry_Int_Tables_number      1
_space_group_name_Hall           'P 1'
loop_
_symmetry_equiv_pos_site_id
_symmetry_equiv_pos_as_xyz
1 x,y,z
_cell_length_a                   26.608(5)
_cell_length_b                   10.5511(18)
_cell_length_c                   29.400(5)
_cell_angle_alpha                90
_cell_angle_beta                 115.862(3)
_cell_angle_gamma                90
_cell_volume                     7427.22
loop_
_atom_site_label
_atom_site_type_symbol
_atom_site_fract_x
_atom_site_fract_y
_atom_site_fract_z
Co7 Co -0.000000 0.500000 0.000000
Co5 Co -0.000000 0.500000 0.500000
Co7_2 Co -0.000000 0.500000 1.000000
O16 O 0.06591(15) 0.2167(4) 0.59942(14)
O18 O 0.05651(15) 0.3896(4) 0.55605(14)
N1 N 0.12168(17) 0.0582(4) 0.46978(16)
H4 H 0.063169 0.015133 0.492825
C9 C 0.1981(2) 0.2159(6) 0.4979(2)
C19 C 0.2014(3) 0.3058(6) 0.4659(2)
H12 H 0.169140 0.345423 0.442726
C21 C 0.1426(3) 0.1808(6) 0.4963(3)
H14 H 0.146396 0.174578 0.530586
H15 H 0.115726 0.247054 0.479136
C23 C 0.2468(3) 0.1618(6) 0.5319(2)
H17 H 0.245227 0.101385 0.554282
H21 H 0.163140 0.018044 0.425655
N4 N 0.37832(17) 0.4418(4) 0.53022(16)
N5 N 0.43189(17) 0.6105(4) 0.55597(15)
C32 C 0.4192(2) 0.5079(5) 0.5272(2)
H26 H 0.436831 0.484867 0.507175
C33 C 0.3019(2) 0.2841(6) 0.5021(2)
C34 C 0.2986(3) 0.1942(6) 0.5341(2)
H27 H 0.330860 0.154577 0.557274
C35 C 0.3574(3) 0.3192(6) 0.5037(3)
H28 H 0.353604 0.325422 0.469414
H29 H 0.384274 0.252946 0.520864
C36 C 0.2532(3) 0.3382(6) 0.4681(2)
H30 H 0.254773 0.398615 0.445718
C37 C 0.3637(3) 0.5055(6) 0.5637(3)
H31 H 0.336860 0.481956 0.574345
C38 C 0.3964(3) 0.6076(6) 0.5777(2)
H32 H 0.394907 0.669339 0.599660
Co12 Co 0.48370(3) 0.75115(6) 0.55476(2)
Co1 Co 0.500000 -0.000000 0.500000
Co2 Co 0.01630(3) 0.74885(6) 0.44524(2)
O1 O 0.03152(14) 0.4438(3) 0.45028(12)
O2 O 0.43409(15) 0.2833(4) 0.40058(14)
O3 O 0.03914(15) 0.6178(3) 0.41053(14)
O4 O 0.44349(15) 0.1104(4) 0.44395(14)
O5 O 0.01305(19) 0.1578(4) 0.00887(14)
O6 O 0.05529(16) 0.3414(4) 0.02353(16)
N2 N 0.06811(17) 0.8895(4) 0.44403(15)
N3 N 0.14172(17) 0.1856(5) 0.28667(16)
C1 C 0.0720(2) 0.2081(5) 0.09523(19)
C2 C 0.0690(2) 0.0860(5) 0.11003(18)
H1 H 0.050099 0.024704 0.085816
C3 C 0.1216(2) 0.1414(5) 0.19686(19)
C4 C 0.3291(2) 0.0736(5) 0.4055(2)
H2 H 0.352442 0.011341 0.426542
C5 C 0.4130(2) 0.1916(5) 0.41336(18)
C6 C 0.35136(19) 0.1783(5) 0.39232(17)
C7 C 0.2726(2) 0.0632(6) 0.3871(2)
C8 C 0.0808(2) 0.9921(5) 0.4728(2)
C10 C 0.0935(2) 0.0537(5) 0.16030(19)
C11 C 0.2363(2) 0.1543(6) 0.35563(19)
C12 C 0.04945(19) 0.4204(5) 0.37892(19)
C13 C 0.0391(2) 0.4989(5) 0.4164(2)
C14 C 0.0995(2) 0.2981(5) 0.1314(2)
H6 H 0.100287 0.381660 0.121684
C15 C 0.3164(2) 0.2700(5) 0.3617(2)
H7 H 0.331092 0.341375 0.353349
C16 C 0.2590(2) 0.2563(6) 0.3433(2)
H8 H 0.235641 0.318196 0.322002
C17 C 0.1258(3) 0.2658(5) 0.1818(2)
H9 H 0.146176 0.326229 0.205855
C18 C 0.1508(2) 0.1009(6) 0.25181(19)
H10 H 0.137920 0.016836 0.254943
H11 H 0.190593 0.095523 0.261658
C20 C 0.0481(2) 0.2172(6) 0.3412(2)
H13 H 0.039504 0.131281 0.338776
C22 C 0.0388(2) 0.2920(6) 0.3755(2)
H16 H 0.025106 0.254913 0.396529
C24 C 0.1747(2) 0.1416(7) 0.3388(2)
H18 H 0.165918 0.053406 0.341180
H19 H 0.164240 0.190162 0.361306
C25 C 0.0445(3) 0.2374(5) 0.0403(2)
C26 C 0.0698(3) 0.4731(6) 0.3472(2)
H20 H 0.076467 0.559836 0.348233
C27 C 0.0696(2) 0.2675(6) 0.3110(2)
C28 C 0.1363(3) 0.9945(6) 0.4363(3)
C29 C 0.1036(3) 0.8924(6) 0.4223(2)
H22 H 0.105093 0.830661 0.400340
C30 C 0.0820(2) 0.1874(7) 0.2747(2)
H23 H 0.069547 0.101316 0.275416
H24 H 0.061045 0.219902 0.240685
C31 C 0.0803(3) 0.3973(7) 0.3140(2)
H25 H 0.094759 0.433318 0.293305
H35 H 0.742202 0.007313 0.604041
H36 H 0.908908 0.029430 0.830348
Co9 Co 0.51630(3) 0.24885(6) 0.44524(2)
O14 O 0.46848(14) 0.0562(3) 0.54972(12)
O20 O 0.01305(19) 0.8422(4) 0.50887(14)
O23 O 0.05529(16) 0.6586(4) 0.52353(16)
O24 O 0.55529(16) 0.1586(4) 0.52353(16)
Co10 Co 0.01630(3) 0.25115(6) 0.94524(2)
Co7_3 Co 1.000000 0.500000 0.000000
Co8 Co 0.98370(3) 0.74885(6) 0.05476(2)
Co1_2 Co 0.500000 1.000000 0.500000
H3 H 0.257798 0.992687 0.395959
H5 H 0.091092 0.970570 0.169652
Co3 Co 0.98370(3) 0.25115(6) 0.55476(2)
O7 O 0.96848(14) 0.5562(3) 0.54972(12)
O8 O 0.56591(15) 0.7167(4) 0.59942(14)
O9 O 0.96086(15) 0.3822(3) 0.58947(14)
O10 O 0.55651(15) 0.8896(4) 0.55605(14)
O11 O 0.98695(19) 0.8422(4) 0.99113(14)
O12 O 0.94471(16) 0.6586(4) 0.97647(16)
N6 N 0.85828(17) 0.8144(5) 0.71333(16)
C39 C 0.9280(2) 0.7919(5) 0.90477(19)
C40 C 0.9310(2) 0.9140(5) 0.88997(18)
H33 H 0.949901 0.975296 0.914184
C41 C 0.8784(2) 0.8586(5) 0.80314(19)
C42 C 0.6709(2) 0.9264(5) 0.5945(2)
H34 H 0.647558 0.988659 0.573458
C43 C 0.5870(2) 0.8084(5) 0.58664(18)
C44 C 0.64864(19) 0.8217(5) 0.60768(17)
C45 C 0.7274(2) 0.9368(6) 0.6129(2)
C46 C 0.9065(2) 0.9463(5) 0.83970(19)
C47 C 0.7637(2) 0.8457(6) 0.64437(19)
C48 C 0.95055(19) 0.5796(5) 0.62108(19)
C49 C 0.9609(2) 0.5011(5) 0.5836(2)
C50 C 0.9005(2) 0.7019(5) 0.8686(2)
H37 H 0.899713 0.618340 0.878316
C51 C 0.6836(2) 0.7300(5) 0.6383(2)
H38 H 0.668908 0.658625 0.646651
C52 C 0.7410(2) 0.7437(6) 0.6567(2)
H39 H 0.764359 0.681804 0.677998
C53 C 0.8742(3) 0.7342(5) 0.8182(2)
H40 H 0.853824 0.673771 0.794145
C54 C 0.8492(2) 0.8991(6) 0.74819(19)
H41 H 0.862080 0.983164 0.745057
H42 H 0.809407 0.904477 0.738342
C55 C 0.9519(2) 0.7828(6) 0.6588(2)
H43 H 0.960496 0.868719 0.661224
C56 C 0.9612(2) 0.7080(6) 0.6245(2)
H44 H 0.974894 0.745087 0.603471
C57 C 0.8253(2) 0.8584(7) 0.6612(2)
H45 H 0.834082 0.946594 0.658820
H46 H 0.835760 0.809838 0.638694
C58 C 0.9555(3) 0.7626(5) 0.9597(2)
C59 C 0.9302(3) 0.5269(6) 0.6528(2)
H47 H 0.923533 0.440164 0.651767
C60 C 0.9304(2) 0.7325(6) 0.6890(2)
C61 C 0.9180(2) 0.8126(7) 0.7253(2)
H48 H 0.930453 0.898684 0.724584
H49 H 0.938955 0.780098 0.759315
C62 C 0.9197(3) 0.6027(7) 0.6860(2)
H50 H 0.905241 0.566682 0.706695
Co5_2 Co 1.000000 0.500000 0.500000
Co7_4 Co 1.000000 0.500000 1.000000
O13 O 0.53152(14) 0.9438(3) 0.45028(12)
O19 O 0.98695(19) 0.1578(4) 0.49113(14)
O21 O 0.94471(16) 0.3414(4) 0.47647(16)
O22 O 0.44471(16) 0.8414(4) 0.47647(16)
N7 N 0.93189(17) 0.1105(4) 0.55597(15)
O15 O 0.93409(15) 0.7833(4) 0.40058(14)
O17 O 0.94349(15) 0.6104(4) 0.44395(14)
O15_2 O 0.06591(15) 0.7833(4) 0.09942(14)
O17_2 O 0.05651(15) 0.6104(4) 0.05605(14)
N1_2 N 0.87832(17) 0.0582(4) 0.03022(16)
H4_2 H 0.936831 0.015133 0.007175
C9_2 C 0.8019(2) 0.2159(6) 0.0021(2)
C19_2 C 0.7986(3) 0.3058(6) 0.0341(2)
H12_2 H 0.830860 0.345423 0.057274
C21_2 C 0.8574(3) 0.1808(6) 0.0037(3)
H15_2 H 0.884274 0.247054 0.020864
H21_2 H 0.836860 0.018044 0.074345
H28_2 H 0.646396 0.325422 0.030586
C36_2 C 0.7468(3) 0.3382(6) 0.0319(2)
H30_2 H 0.745227 0.398615 0.054282
H14_2 H 0.853604 0.174578 0.969414
C23_2 C 0.7532(3) 0.1618(6) 0.9681(2)
H17_2 H 0.754773 0.101385 0.945718
N4_2 N 0.62168(17) 0.4418(4) 0.96978(16)
N5_2 N 0.56811(17) 0.6105(4) 0.94403(15)
C32_2 C 0.5808(2) 0.5079(5) 0.9728(2)
H26_2 H 0.563169 0.484867 0.992825
C33_2 C 0.6981(2) 0.2841(6) 0.9979(2)
C34_2 C 0.7014(3) 0.1942(6) 0.9659(2)
H27_2 H 0.669140 0.154577 0.942726
C35_2 C 0.6426(3) 0.3192(6) 0.9963(3)
H29_2 H 0.615726 0.252946 0.979136
C37_2 C 0.6363(3) 0.5055(6) 0.9363(3)
H31_2 H 0.663140 0.481956 0.925655
C38_2 C 0.6036(3) 0.6076(6) 0.9223(2)
H32_2 H 0.605093 0.669339 0.900340
Co12_2 Co 0.51630(3) 0.75115(6) 0.94524(2)
Co1_3 Co 0.500000 0.000000 -0.000000
O1_2 O 0.96848(14) 0.4438(3) 0.04972(12)
O2_2 O 0.56591(15) 0.2833(4) 0.09942(14)
O3_2 O 0.96086(15) 0.6178(3) 0.08947(14)
O4_2 O 0.55651(15) 0.1104(4) 0.05605(14)
N2_2 N 0.93189(17) 0.8895(4) 0.05597(15)
N3_2 N 0.85828(17) 0.1856(5) 0.21333(16)
C1_2 C 0.9280(2) 0.2081(5) 0.40477(19)
C2_2 C 0.9310(2) 0.0860(5) 0.38997(18)
H1_2 H 0.949901 0.024704 0.414184
C3_2 C 0.8784(2) 0.1414(5) 0.30314(19)
C4_2 C 0.6709(2) 0.0736(5) 0.0945(2)
H2_2 H 0.647558 0.011341 0.073458
C5_2 C 0.5870(2) 0.1916(5) 0.08664(18)
C6_2 C 0.64864(19) 0.1783(5) 0.10768(17)
C7_2 C 0.7274(2) 0.0632(6) 0.1129(2)
C8_2 C 0.9192(2) 0.9921(5) 0.0272(2)
C10_2 C 0.9065(2) 0.0537(5) 0.33970(19)
C11_2 C 0.7637(2) 0.1543(6) 0.14437(19)
C12_2 C 0.95055(19) 0.4204(5) 0.12108(19)
C13_2 C 0.9609(2) 0.4989(5) 0.0836(2)
C14_2 C 0.9005(2) 0.2981(5) 0.3686(2)
H6_2 H 0.899713 0.381660 0.378316
C15_2 C 0.6836(2) 0.2700(5) 0.1383(2)
H7_2 H 0.668908 0.341375 0.146651
C16_2 C 0.7410(2) 0.2563(6) 0.1567(2)
H8_2 H 0.764359 0.318196 0.177998
C17_2 C 0.8742(3) 0.2658(5) 0.3182(2)
H9_2 H 0.853824 0.326229 0.294145
C18_2 C 0.8492(2) 0.1009(6) 0.24819(19)
H10_2 H 0.862080 0.016836 0.245057
H11_2 H 0.809407 0.095523 0.238342
C20_2 C 0.9519(2) 0.2172(6) 0.1588(2)
H13_2 H 0.960496 0.131281 0.161224
C22_2 C 0.9612(2) 0.2920(6) 0.1245(2)
H16_2 H 0.974894 0.254913 0.103471
C24_2 C 0.8253(2) 0.1416(7) 0.1612(2)
H18_2 H 0.834082 0.053406 0.158820
H19_2 H 0.835760 0.190162 0.138694
C25_2 C 0.9555(3) 0.2374(5) 0.4597(2)
C26_2 C 0.9302(3) 0.4731(6) 0.1528(2)
H20_2 H 0.923533 0.559836 0.151767
C27_2 C 0.9304(2) 0.2675(6) 0.1890(2)
C28_2 C 0.8637(3) 0.9945(6) 0.0637(3)
C29_2 C 0.8964(3) 0.8924(6) 0.0777(2)
H22_2 H 0.894907 0.830661 0.099660
C30_2 C 0.9180(2) 0.1874(7) 0.2253(2)
H23_2 H 0.930453 0.101316 0.224584
H24_2 H 0.938955 0.219902 0.259315
C31_2 C 0.9197(3) 0.3973(7) 0.1860(2)
H25_2 H 0.905241 0.433318 0.206695
Co9_2 Co 0.48370(3) 0.24885(6) 0.05476(2)
Co1_4 Co 0.500000 -0.000000 1.000000
H35_2 H 0.257798 0.007313 0.895959
H36_2 H 0.091092 0.029430 0.669652
O14_2 O 0.53152(14) 0.0562(3) 0.95028(12)
O24_2 O 0.44471(16) 0.1586(4) 0.97647(16)
Co1_5 Co 0.500000 1.000000 -0.000000
H3_2 H 0.742202 0.992687 0.104041
H5_2 H 0.908908 0.970570 0.330348
O13_2 O 0.46848(14) 0.9438(3) 0.04972(12)
O22_2 O 0.55529(16) 0.8414(4) 0.02353(16)
Co1_6 Co 0.500000 1.000000 1.000000
O7_2 O 0.03152(14) 0.5562(3) 0.95028(12)
O8_2 O 0.43409(15) 0.7167(4) 0.90058(14)
O9_2 O 0.03914(15) 0.3822(3) 0.91053(14)
O10_2 O 0.44349(15) 0.8896(4) 0.94395(14)
N6_2 N 0.14172(17) 0.8144(5) 0.78667(16)
C39_2 C 0.0720(2) 0.7919(5) 0.59523(19)
C40_2 C 0.0690(2) 0.9140(5) 0.61003(18)
H33_2 H 0.050099 0.975296 0.585816
C41_2 C 0.1216(2) 0.8586(5) 0.69686(19)
C42_2 C 0.3291(2) 0.9264(5) 0.9055(2)
H34_2 H 0.352442 0.988659 0.926542
C43_2 C 0.4130(2) 0.8084(5) 0.91336(18)
C44_2 C 0.35136(19) 0.8217(5) 0.89232(17)
C45_2 C 0.2726(2) 0.9368(6) 0.8871(2)
C46_2 C 0.0935(2) 0.9463(5) 0.66030(19)
C47_2 C 0.2363(2) 0.8457(6) 0.85563(19)
C48_2 C 0.04945(19) 0.5796(5) 0.87892(19)
C49_2 C 0.0391(2) 0.5011(5) 0.9164(2)
C50_2 C 0.0995(2) 0.7019(5) 0.6314(2)
H37_2 H 0.100287 0.618340 0.621684
C51_2 C 0.3164(2) 0.7300(5) 0.8617(2)
H38_2 H 0.331092 0.658625 0.853349
C52_2 C 0.2590(2) 0.7437(6) 0.8433(2)
H39_2 H 0.235641 0.681804 0.822002
C53_2 C 0.1258(3) 0.7342(5) 0.6818(2)
H40_2 H 0.146176 0.673771 0.705855
C54_2 C 0.1508(2) 0.8991(6) 0.75181(19)
H41_2 H 0.137920 0.983164 0.754943
H42_2 H 0.190593 0.904477 0.761658
C55_2 C 0.0481(2) 0.7828(6) 0.8412(2)
H43_2 H 0.039504 0.868719 0.838776
C56_2 C 0.0388(2) 0.7080(6) 0.8755(2)
H44_2 H 0.025106 0.745087 0.896529
C57_2 C 0.1747(2) 0.8584(7) 0.8388(2)
H45_2 H 0.165918 0.946594 0.841180
H46_2 H 0.164240 0.809838 0.861306
C58_2 C 0.0445(3) 0.7626(5) 0.5403(2)
C59_2 C 0.0698(3) 0.5269(6) 0.8472(2)
H47_2 H 0.076467 0.440164 0.848233
C60_2 C 0.0696(2) 0.7325(6) 0.8110(2)
C61_2 C 0.0820(2) 0.8126(7) 0.7747(2)
H48_2 H 0.069547 0.898684 0.775416
H49_2 H 0.061045 0.780098 0.740685
C62_2 C 0.0803(3) 0.6027(7) 0.8140(2)
H50_2 H 0.094759 0.566682 0.793305
N7_2 N 0.06811(17) 0.1105(4) 0.94403(15)
O16_2 O 0.93409(15) 0.2167(4) 0.90058(14)
O18_2 O 0.94349(15) 0.3896(4) 0.94395(14)
O11_2 O 0.48695(19) 0.3422(4) 0.99113(14)
N6_3 N 0.35828(17) 0.3144(5) 0.71333(16)
C39_3 C 0.4280(2) 0.2919(5) 0.90477(19)
C40_3 C 0.4310(2) 0.4140(5) 0.88997(18)
H33_3 H 0.449901 0.475296 0.914184
C41_3 C 0.3784(2) 0.3586(5) 0.80314(19)
C42_3 C 0.1709(2) 0.4264(5) 0.5945(2)
H34_3 H 0.147558 0.488659 0.573458
C43_3 C 0.0870(2) 0.3084(5) 0.58664(18)
C44_3 C 0.14864(19) 0.3217(5) 0.60768(17)
C45_3 C 0.2274(2) 0.4368(6) 0.6129(2)
H35_3 H 0.242202 0.507313 0.604041
C46_3 C 0.4065(2) 0.4463(5) 0.83970(19)
H36_3 H 0.408908 0.529430 0.830348
C47_3 C 0.2637(2) 0.3457(6) 0.64437(19)
C48_3 C 0.45055(19) 0.0796(5) 0.62108(19)
C49_3 C 0.4609(2) 0.0011(5) 0.5836(2)
C50_3 C 0.4005(2) 0.2019(5) 0.8686(2)
H37_3 H 0.399713 0.118340 0.878316
C51_3 C 0.1836(2) 0.2300(5) 0.6383(2)
H38_3 H 0.168908 0.158625 0.646651
C52_3 C 0.2410(2) 0.2437(6) 0.6567(2)
H39_3 H 0.264359 0.181804 0.677998
C53_3 C 0.3742(3) 0.2342(5) 0.8182(2)
H40_3 H 0.353824 0.173771 0.794145
C54_3 C 0.3492(2) 0.3991(6) 0.74819(19)
H41_3 H 0.362080 0.483164 0.745057
H42_3 H 0.309407 0.404477 0.738342
C55_3 C 0.4519(2) 0.2828(6) 0.6588(2)
H43_3 H 0.460496 0.368719 0.661224
C56_3 C 0.4612(2) 0.2080(6) 0.6245(2)
H44_3 H 0.474894 0.245087 0.603471
C57_3 C 0.3253(2) 0.3584(7) 0.6612(2)
H45_3 H 0.334082 0.446594 0.658820
H46_3 H 0.335760 0.309838 0.638694
C58_3 C 0.4555(3) 0.2626(5) 0.9597(2)
C59_3 C 0.4302(3) 0.0269(6) 0.6528(2)
C60_3 C 0.4304(2) 0.2325(6) 0.6890(2)
C61_3 C 0.4180(2) 0.3126(7) 0.7253(2)
H48_3 H 0.430453 0.398684 0.724584
H49_3 H 0.438955 0.280098 0.759315
C62_3 C 0.4197(3) 0.1027(7) 0.6860(2)
H50_3 H 0.405241 0.066682 0.706695
O9_3 O 0.46086(15) 0.8822(3) 0.58947(14)
H47_3 H 0.423533 0.940164 0.651767
O19_2 O 0.48695(19) 0.6578(4) 0.49113(14)
C32_3 C 0.9192(2) 0.0079(5) 0.5272(2)
C37_3 C 0.8637(3) 0.0055(6) 0.5637(3)
C38_3 C 0.8964(3) 0.1076(6) 0.5777(2)
H32_3 H 0.894907 0.169339 0.599660
O3_3 O 0.53914(15) 0.1178(3) 0.41053(14)
N1_3 N 0.62168(17) 0.5582(4) 0.46978(16)
N2_3 N 0.56811(17) 0.3895(4) 0.44403(15)
C8_3 C 0.5808(2) 0.4921(5) 0.4728(2)
H4_3 H 0.563169 0.515133 0.492825
C9_3 C 0.6981(2) 0.7159(6) 0.4979(2)
C19_3 C 0.7014(3) 0.8058(6) 0.4659(2)
H12_3 H 0.669140 0.845423 0.442726
C21_3 C 0.6426(3) 0.6808(6) 0.4963(3)
H14_3 H 0.646396 0.674578 0.530586
H15_3 H 0.615726 0.747054 0.479136
C23_3 C 0.7468(3) 0.6618(6) 0.5319(2)
H17_3 H 0.745227 0.601385 0.554282
H20_3 H 0.576467 0.059836 0.348233
C28_3 C 0.6363(3) 0.4945(6) 0.4363(3)
H21_3 H 0.663140 0.518044 0.425655
C29_3 C 0.6036(3) 0.3924(6) 0.4223(2)
H22_3 H 0.605093 0.330661 0.400340
N4_3 N 0.87832(17) 0.9418(4) 0.53022(16)
H26_3 H 0.936831 0.984867 0.507175
C33_3 C 0.8019(2) 0.7841(6) 0.5021(2)
C34_3 C 0.7986(3) 0.6942(6) 0.5341(2)
H27_3 H 0.830860 0.654577 0.557274
C35_3 C 0.8574(3) 0.8192(6) 0.5037(3)
H28_3 H 0.853604 0.825422 0.469414
H29_3 H 0.884274 0.752946 0.520864
C36_3 C 0.7532(3) 0.8382(6) 0.4681(2)
H30_3 H 0.754773 0.898615 0.445718
H31_3 H 0.836860 0.981956 0.574345
O20_2 O 0.51305(19) 0.3422(4) 0.50887(14)
O5_2 O 0.51305(19) 0.6578(4) 0.00887(14)
N3_3 N 0.64172(17) 0.6856(5) 0.28667(16)
C1_3 C 0.5720(2) 0.7081(5) 0.09523(19)
C2_3 C 0.5690(2) 0.5860(5) 0.11003(18)
H1_3 H 0.550099 0.524704 0.085816
C3_3 C 0.6216(2) 0.6414(5) 0.19686(19)
C4_3 C 0.8291(2) 0.5736(5) 0.4055(2)
H2_3 H 0.852442 0.511341 0.426542
C5_3 C 0.9130(2) 0.6916(5) 0.41336(18)
C6_3 C 0.85136(19) 0.6783(5) 0.39232(17)
C7_3 C 0.7726(2) 0.5632(6) 0.3871(2)
H3_3 H 0.757798 0.492687 0.395959
C10_3 C 0.5935(2) 0.5537(5) 0.16030(19)
H5_3 H 0.591092 0.470570 0.169652
C11_3 C 0.7363(2) 0.6543(6) 0.35563(19)
C12_3 C 0.54945(19) 0.9204(5) 0.37892(19)
C13_3 C 0.5391(2) 0.9989(5) 0.4164(2)
C14_3 C 0.5995(2) 0.7981(5) 0.1314(2)
H6_3 H 0.600287 0.881660 0.121684
C15_3 C 0.8164(2) 0.7700(5) 0.3617(2)
H7_3 H 0.831092 0.841375 0.353349
C16_3 C 0.7590(2) 0.7563(6) 0.3433(2)
H8_3 H 0.735641 0.818196 0.322002
C17_3 C 0.6258(3) 0.7658(5) 0.1818(2)
H9_3 H 0.646176 0.826229 0.205855
C18_3 C 0.6508(2) 0.6009(6) 0.25181(19)
H10_3 H 0.637920 0.516836 0.254943
H11_3 H 0.690593 0.595523 0.261658
C20_3 C 0.5481(2) 0.7172(6) 0.3412(2)
H13_3 H 0.539504 0.631281 0.338776
C22_3 C 0.5388(2) 0.7920(6) 0.3755(2)
H16_3 H 0.525106 0.754913 0.396529
C24_3 C 0.6747(2) 0.6416(7) 0.3388(2)
H18_3 H 0.665918 0.553406 0.341180
H19_3 H 0.664240 0.690162 0.361306
C25_3 C 0.5445(3) 0.7374(5) 0.0403(2)
C26_3 C 0.5698(3) 0.9731(6) 0.3472(2)
C27_3 C 0.5696(2) 0.7675(6) 0.3110(2)
C30_3 C 0.5820(2) 0.6874(7) 0.2747(2)
H23_3 H 0.569547 0.601316 0.275416
H24_3 H 0.561045 0.719902 0.240685
C31_3 C 0.5803(3) 0.8973(7) 0.3140(2)
H25_3 H 0.594759 0.933318 0.293305
C32_4 C 0.0808(2) 0.0079(5) 0.9728(2)
C37_4 C 0.1363(3) 0.0055(6) 0.9363(3)
C38_4 C 0.1036(3) 0.1076(6) 0.9223(2)
H32_4 H 0.105093 0.169339 0.900340
O3_4 O 0.46086(15) 0.1178(3) 0.08947(14)
N1_4 N 0.37832(17) 0.5582(4) 0.03022(16)
N2_4 N 0.43189(17) 0.3895(4) 0.05597(15)
C8_4 C 0.4192(2) 0.4921(5) 0.0272(2)
H4_4 H 0.436831 0.515133 0.007175
C9_4 C 0.3019(2) 0.7159(6) 0.0021(2)
C19_4 C 0.2986(3) 0.8058(6) 0.0341(2)
H12_4 H 0.330860 0.845423 0.057274
C21_4 C 0.3574(3) 0.6808(6) 0.0037(3)
H15_4 H 0.384274 0.747054 0.020864
H20_4 H 0.423533 0.059836 0.151767
C28_4 C 0.3637(3) 0.4945(6) 0.0637(3)
H21_4 H 0.336860 0.518044 0.074345
C29_4 C 0.3964(3) 0.3924(6) 0.0777(2)
H22_4 H 0.394907 0.330661 0.099660
H28_4 H 0.146396 0.825422 0.030586
C36_4 C 0.2468(3) 0.8382(6) 0.0319(2)
H30_4 H 0.245227 0.898615 0.054282
H14_4 H 0.353604 0.674578 0.969414
C23_4 C 0.2532(3) 0.6618(6) 0.9681(2)
H17_4 H 0.254773 0.601385 0.945718
N4_4 N 0.12168(17) 0.9418(4) 0.96978(16)
H26_4 H 0.063169 0.984867 0.992825
C33_4 C 0.1981(2) 0.7841(6) 0.9979(2)
C34_4 C 0.2014(3) 0.6942(6) 0.9659(2)
H27_4 H 0.169140 0.654577 0.942726
C35_4 C 0.1426(3) 0.8192(6) 0.9963(3)
H29_4 H 0.115726 0.752946 0.979136
H31_4 H 0.163140 0.981956 0.925655
N3_4 N 0.35828(17) 0.6856(5) 0.21333(16)
C1_4 C 0.4280(2) 0.7081(5) 0.40477(19)
C2_4 C 0.4310(2) 0.5860(5) 0.38997(18)
H1_4 H 0.449901 0.524704 0.414184
C3_4 C 0.3784(2) 0.6414(5) 0.30314(19)
C4_4 C 0.1709(2) 0.5736(5) 0.0945(2)
H2_4 H 0.147558 0.511341 0.073458
C5_4 C 0.0870(2) 0.6916(5) 0.08664(18)
C6_4 C 0.14864(19) 0.6783(5) 0.10768(17)
C7_4 C 0.2274(2) 0.5632(6) 0.1129(2)
H3_4 H 0.242202 0.492687 0.104041
C10_4 C 0.4065(2) 0.5537(5) 0.33970(19)
H5_4 H 0.408908 0.470570 0.330348
C11_4 C 0.2637(2) 0.6543(6) 0.14437(19)
C12_4 C 0.45055(19) 0.9204(5) 0.12108(19)
C13_4 C 0.4609(2) 0.9989(5) 0.0836(2)
C14_4 C 0.4005(2) 0.7981(5) 0.3686(2)
H6_4 H 0.399713 0.881660 0.378316
C15_4 C 0.1836(2) 0.7700(5) 0.1383(2)
H7_4 H 0.168908 0.841375 0.146651
C16_4 C 0.2410(2) 0.7563(6) 0.1567(2)
H8_4 H 0.264359 0.818196 0.177998
C17_4 C 0.3742(3) 0.7658(5) 0.3182(2)
H9_4 H 0.353824 0.826229 0.294145
C18_4 C 0.3492(2) 0.6009(6) 0.24819(19)
H10_4 H 0.362080 0.516836 0.245057
H11_4 H 0.309407 0.595523 0.238342
C20_4 C 0.4519(2) 0.7172(6) 0.1588(2)
H13_4 H 0.460496 0.631281 0.161224
C22_4 C 0.4612(2) 0.7920(6) 0.1245(2)
H16_4 H 0.474894 0.754913 0.103471
C24_4 C 0.3253(2) 0.6416(7) 0.1612(2)
H18_4 H 0.334082 0.553406 0.158820
H19_4 H 0.335760 0.690162 0.138694
C25_4 C 0.4555(3) 0.7374(5) 0.4597(2)
C26_4 C 0.4302(3) 0.9731(6) 0.1528(2)
C27_4 C 0.4304(2) 0.7675(6) 0.1890(2)
C30_4 C 0.4180(2) 0.6874(7) 0.2253(2)
H23_4 H 0.430453 0.601316 0.224584
H24_4 H 0.438955 0.719902 0.259315
C31_4 C 0.4197(3) 0.8973(7) 0.1860(2)
H25_4 H 0.405241 0.933318 0.206695
N6_4 N 0.64172(17) 0.3144(5) 0.78667(16)
C39_4 C 0.5720(2) 0.2919(5) 0.59523(19)
C40_4 C 0.5690(2) 0.4140(5) 0.61003(18)
H33_4 H 0.550099 0.475296 0.585816
C41_4 C 0.6216(2) 0.3586(5) 0.69686(19)
C42_4 C 0.8291(2) 0.4264(5) 0.9055(2)
H34_4 H 0.852442 0.488659 0.926542
C43_4 C 0.9130(2) 0.3084(5) 0.91336(18)
C44_4 C 0.85136(19) 0.3217(5) 0.89232(17)
C45_4 C 0.7726(2) 0.4368(6) 0.8871(2)
H35_4 H 0.757798 0.507313 0.895959
C46_4 C 0.5935(2) 0.4463(5) 0.66030(19)
H36_4 H 0.591092 0.529430 0.669652
C47_4 C 0.7363(2) 0.3457(6) 0.85563(19)
C48_4 C 0.54945(19) 0.0796(5) 0.87892(19)
C49_4 C 0.5391(2) 0.0011(5) 0.9164(2)
C50_4 C 0.5995(2) 0.2019(5) 0.6314(2)
H37_4 H 0.600287 0.118340 0.621684
C51_4 C 0.8164(2) 0.2300(5) 0.8617(2)
H38_4 H 0.831092 0.158625 0.853349
C52_4 C 0.7590(2) 0.2437(6) 0.8433(2)
H39_4 H 0.735641 0.181804 0.822002
C53_4 C 0.6258(3) 0.2342(5) 0.6818(2)
H40_4 H 0.646176 0.173771 0.705855
C54_4 C 0.6508(2) 0.3991(6) 0.75181(19)
H41_4 H 0.637920 0.483164 0.754943
H42_4 H 0.690593 0.404477 0.761658
C55_4 C 0.5481(2) 0.2828(6) 0.8412(2)
H43_4 H 0.539504 0.368719 0.838776
C56_4 C 0.5388(2) 0.2080(6) 0.8755(2)
H44_4 H 0.525106 0.245087 0.896529
C57_4 C 0.6747(2) 0.3584(7) 0.8388(2)
H45_4 H 0.665918 0.446594 0.841180
H46_4 H 0.664240 0.309838 0.861306
C58_4 C 0.5445(3) 0.2626(5) 0.5403(2)
C59_4 C 0.5698(3) 0.0269(6) 0.8472(2)
C60_4 C 0.5696(2) 0.2325(6) 0.8110(2)
C61_4 C 0.5820(2) 0.3126(7) 0.7747(2)
H48_4 H 0.569547 0.398684 0.775416
H49_4 H 0.561045 0.280098 0.740685
C62_4 C 0.5803(3) 0.1027(7) 0.8140(2)
H50_4 H 0.594759 0.066682 0.793305
O9_4 O 0.53914(15) 0.8822(3) 0.91053(14)
H47_4 H 0.576467 0.940164 0.848233
loop_
_geom_bond_atom_site_label_1
_geom_bond_atom_site_label_2
_geom_bond_site_symmetry_1
_geom_bond_site_symmetry_2
Co5 O18 1_555 1_555
C9 C19 1_555 1_555
C19 H12 1_555 1_555
C21 N1 1_555 1_555
H14 C21 1_555 1_555
H15 C21 1_555 1_555
C23 C9 1_555 1_555
H17 C23 1_555 1_555
N4 C32 1_555 1_555
N5 C32 1_555 1_555
C32 H26 1_555 1_555
C33 C34 1_555 1_555
C34 C23 1_555 1_555
H27 C34 1_555 1_555
C35 N4 1_555 1_555
H28 C35 1_555 1_555
H29 C35 1_555 1_555
C36 C19 1_555 1_555
H30 C36 1_555 1_555
C37 N4 1_555 1_555
H31 C37 1_555 1_555
C38 N5 1_555 1_555
H32 C38 1_555 1_555
Co12 N5 1_555 1_555
C9 C21 1_555 1_555
C33 C35 1_555 1_555
C33 C36 1_555 1_555
C37 C38 1_555 1_555
Co1 O4 1_555 1_555
Co2 O3 1_555 1_555
O1 C13 1_555 1_555
O2 C5 1_555 1_555
O3 C13 1_555 1_555
O4 C5 1_555 1_555
O5 C25 1_555 1_555
O6 C25 1_555 1_555
N2 Co2 1_555 1_555
N3 C18 1_555 1_555
C1 C2 1_555 1_555
C2 H1 1_555 1_555
C3 C10 1_555 1_555
C4 H2 1_555 1_555
C5 C6 1_555 1_555
C6 C4 1_555 1_555
C7 C4 1_555 1_555
C8 N2 1_555 1_555
C10 C2 1_555 1_555
C11 C7 1_555 1_555
C12 C13 1_555 1_555
C14 C1 1_555 1_555
H6 C14 1_555 1_555
C15 C6 1_555 1_555
H7 C15 1_555 1_555
C16 C11 1_555 1_555
H8 C16 1_555 1_555
C17 C3 1_555 1_555
H9 C17 1_555 1_555
C18 C3 1_555 1_555
H10 C18 1_555 1_555
H11 C18 1_555 1_555
C20 H13 1_555 1_555
C22 C12 1_555 1_555
H16 C22 1_555 1_555
C24 N3 1_555 1_555
H18 C24 1_555 1_555
H19 C24 1_555 1_555
C25 C1 1_555 1_555
C26 C12 1_555 1_555
H20 C26 1_555 1_555
C27 C20 1_555 1_555
C29 N2 1_555 1_555
H22 C29 1_555 1_555
C30 N3 1_555 1_555
H23 C30 1_555 1_555
H24 C30 1_555 1_555
C31 C26 1_555 1_555
H25 C31 1_555 1_555
Co5 O1 1_555 1_555
Co7 O6 1_555 1_555
Co9 O2 1_555 1_555
O14 Co1 1_555 1_555
O20 Co2 1_555 1_555
O23 Co2 1_555 1_555
O24 Co1 1_555 1_555
O4 Co9 1_555 1_555
C11 C24 1_555 1_555
C14 C17 1_555 1_555
C15 C16 1_555 1_555
C20 C22 1_555 1_555
C27 C30 1_555 1_555
C27 C31 1_555 1_555
C28 C29 1_555 1_555
Co5 O23 1_555 1_555
Co9 O24 1_555 1_555
Co3 O9 1_555 1_555
O7 C49 1_555 1_555
O8 C43 1_555 1_555
O9 C49 1_555 1_555
O10 Co1_2 1_555 1_555
O11 C58 1_555 1_555
O12 C58 1_555 1_555
N6 C54 1_555 1_555
C39 C40 1_555 1_555
C40 H33 1_555 1_555
C41 C46 1_555 1_555
C42 H34 1_555 1_555
C43 O10 1_555 1_555
C44 C42 1_555 1_555
C45 C42 1_555 1_555
C46 C40 1_555 1_555
C47 C45 1_555 1_555
C48 C49 1_555 1_555
C50 C39 1_555 1_555
H37 C50 1_555 1_555
C51 C44 1_555 1_555
H38 C51 1_555 1_555
C52 C47 1_555 1_555
H39 C52 1_555 1_555
C53 C41 1_555 1_555
H40 C53 1_555 1_555
C54 C41 1_555 1_555
H41 C54 1_555 1_555
H42 C54 1_555 1_555
C55 H43 1_555 1_555
C56 C48 1_555 1_555
H44 C56 1_555 1_555
C57 N6 1_555 1_555
H45 C57 1_555 1_555
H46 C57 1_555 1_555
C58 C39 1_555 1_555
C59 C48 1_555 1_555
H47 C59 1_555 1_555
C60 C55 1_555 1_555
C61 N6 1_555 1_555
H48 C61 1_555 1_555
H49 C61 1_555 1_555
C62 C59 1_555 1_555
H50 C62 1_555 1_555
Co5_2 O7 1_555 1_555
Co7_4 O12 1_555 1_555
Co12 O8 1_555 1_555
O13 Co1_2 1_555 1_555
O19 Co3 1_555 1_555
O21 Co3 1_555 1_555
O22 Co1_2 1_555 1_555
N7 Co3 1_555 1_555
O10 Co12 1_555 1_555
C43 C44 1_555 1_555
C47 C57 1_555 1_555
C50 C53 1_555 1_555
C51 C52 1_555 1_555
C55 C56 1_555 1_555
C60 C61 1_555 1_555
C60 C62 1_555 1_555
Co5_2 O21 1_555 1_555
Co12 O22 1_555 1_555
Co5_2 O17 1_555 1_555
Co7 O17_2 1_555 1_555
C9_2 C19_2 1_555 1_555
C19_2 H12_2 1_555 1_555
C21_2 N1_2 1_555 1_555
H15_2 C21_2 1_555 1_555
C36_2 C19_2 1_555 1_555
H30_2 C36_2 1_555 1_555
C9_2 C21_2 1_555 1_555
H17_2 C23_2 1_555 1_555
N4_2 C32_2 1_555 1_555
N5_2 C32_2 1_555 1_555
C32_2 H26_2 1_555 1_555
C33_2 C34_2 1_555 1_555
C34_2 C23_2 1_555 1_555
H27_2 C34_2 1_555 1_555
C35_2 N4_2 1_555 1_555
H29_2 C35_2 1_555 1_555
C37_2 N4_2 1_555 1_555
H31_2 C37_2 1_555 1_555
C38_2 N5_2 1_555 1_555
H32_2 C38_2 1_555 1_555
Co12_2 N5_2 1_555 1_555
C33_2 C35_2 1_555 1_555
C37_2 C38_2 1_555 1_555
Co1_3 O4_2 1_555 1_555
Co8 O3_2 1_555 1_555
O1_2 C13_2 1_555 1_555
O2_2 C5_2 1_555 1_555
O3_2 C13_2 1_555 1_555
O4_2 C5_2 1_555 1_555
O19 C25_2 1_555 1_555
O21 C25_2 1_555 1_555
N2_2 Co8 1_555 1_555
N3_2 C18_2 1_555 1_555
C1_2 C2_2 1_555 1_555
C2_2 H1_2 1_555 1_555
C3_2 C10_2 1_555 1_555
C4_2 H2_2 1_555 1_555
C5_2 C6_2 1_555 1_555
C6_2 C4_2 1_555 1_555
C7_2 C4_2 1_555 1_555
C8_2 N2_2 1_555 1_555
C10_2 C2_2 1_555 1_555
C11_2 C7_2 1_555 1_555
C12_2 C13_2 1_555 1_555
C14_2 C1_2 1_555 1_555
H6_2 C14_2 1_555 1_555
C15_2 C6_2 1_555 1_555
H7_2 C15_2 1_555 1_555
C16_2 C11_2 1_555 1_555
H8_2 C16_2 1_555 1_555
C17_2 C3_2 1_555 1_555
H9_2 C17_2 1_555 1_555
C18_2 C3_2 1_555 1_555
H10_2 C18_2 1_555 1_555
H11_2 C18_2 1_555 1_555
C20_2 H13_2 1_555 1_555
C22_2 C12_2 1_555 1_555
H16_2 C22_2 1_555 1_555
C24_2 N3_2 1_555 1_555
H18_2 C24_2 1_555 1_555
H19_2 C24_2 1_555 1_555
C25_2 C1_2 1_555 1_555
C26_2 C12_2 1_555 1_555
H20_2 C26_2 1_555 1_555
C27_2 C20_2 1_555 1_555
C29_2 N2_2 1_555 1_555
H22_2 C29_2 1_555 1_555
C30_2 N3_2 1_555 1_555
H23_2 C30_2 1_555 1_555
H24_2 C30_2 1_555 1_555
C31_2 C26_2 1_555 1_555
H25_2 C31_2 1_555 1_555
Co7_3 O1_2 1_555 1_555
Co9_2 O2_2 1_555 1_555
O4_2 Co9_2 1_555 1_555
C11_2 C24_2 1_555 1_555
C14_2 C17_2 1_555 1_555
C15_2 C16_2 1_555 1_555
C20_2 C22_2 1_555 1_555
C27_2 C30_2 1_555 1_555
C27_2 C31_2 1_555 1_555
C28_2 C29_2 1_555 1_555
O14_2 Co1_4 1_555 1_555
O24_2 Co1_4 1_555 1_555
O13_2 Co1_5 1_555 1_555
O22_2 Co1_5 1_555 1_555
Co10 O9_2 1_555 1_555
O7_2 C49_2 1_555 1_555
O8_2 C43_2 1_555 1_555
O9_2 C49_2 1_555 1_555
O10_2 Co1_6 1_555 1_555
O20 C58_2 1_555 1_555
O23 C58_2 1_555 1_555
N6_2 C54_2 1_555 1_555
C39_2 C40_2 1_555 1_555
C40_2 H33_2 1_555 1_555
C41_2 C46_2 1_555 1_555
C42_2 H34_2 1_555 1_555
C43_2 O10_2 1_555 1_555
C44_2 C42_2 1_555 1_555
C45_2 C42_2 1_555 1_555
C46_2 C40_2 1_555 1_555
C47_2 C45_2 1_555 1_555
C48_2 C49_2 1_555 1_555
C50_2 C39_2 1_555 1_555
H37_2 C50_2 1_555 1_555
C51_2 C44_2 1_555 1_555
H38_2 C51_2 1_555 1_555
C52_2 C47_2 1_555 1_555
H39_2 C52_2 1_555 1_555
C53_2 C41_2 1_555 1_555
H40_2 C53_2 1_555 1_555
C54_2 C41_2 1_555 1_555
H41_2 C54_2 1_555 1_555
H42_2 C54_2 1_555 1_555
C55_2 H43_2 1_555 1_555
C56_2 C48_2 1_555 1_555
H44_2 C56_2 1_555 1_555
C57_2 N6_2 1_555 1_555
H45_2 C57_2 1_555 1_555
H46_2 C57_2 1_555 1_555
C58_2 C39_2 1_555 1_555
C59_2 C48_2 1_555 1_555
H47_2 C59_2 1_555 1_555
C60_2 C55_2 1_555 1_555
C61_2 N6_2 1_555 1_555
H48_2 C61_2 1_555 1_555
H49_2 C61_2 1_555 1_555
C62_2 C59_2 1_555 1_555
H50_2 C62_2 1_555 1_555
Co7_2 O7_2 1_555 1_555
Co12_2 O8_2 1_555 1_555
N7_2 Co10 1_555 1_555
O10_2 Co12_2 1_555 1_555
C43_2 C44_2 1_555 1_555
C47_2 C57_2 1_555 1_555
C50_2 C53_2 1_555 1_555
C51_2 C52_2 1_555 1_555
C55_2 C56_2 1_555 1_555
C60_2 C61_2 1_555 1_555
C60_2 C62_2 1_555 1_555
Co7_4 O18_2 1_555 1_555
O14 C49_3 1_555 1_555
O16 C43_3 1_555 1_555
O11_2 C58_3 1_555 1_555
O24_2 C58_3 1_555 1_555
N6_3 C54_3 1_555 1_555
C39_3 C40_3 1_555 1_555
C40_3 H33_3 1_555 1_555
C41_3 C46_3 1_555 1_555
C42_3 H34_3 1_555 1_555
C43_3 O18 1_555 1_555
C44_3 C42_3 1_555 1_555
C45_3 C42_3 1_555 1_555
H35_3 C45_3 1_555 1_555
C46_3 C40_3 1_555 1_555
H36_3 C46_3 1_555 1_555
C47_3 C45_3 1_555 1_555
C48_3 C49_3 1_555 1_555
C50_3 C39_3 1_555 1_555
H37_3 C50_3 1_555 1_555
C51_3 C44_3 1_555 1_555
H38_3 C51_3 1_555 1_555
C52_3 C47_3 1_555 1_555
H39_3 C52_3 1_555 1_555
C53_3 C41_3 1_555 1_555
H40_3 C53_3 1_555 1_555
C54_3 C41_3 1_555 1_555
H41_3 C54_3 1_555 1_555
H42_3 C54_3 1_555 1_555
C55_3 H43_3 1_555 1_555
C56_3 C48_3 1_555 1_555
H44_3 C56_3 1_555 1_555
C57_3 N6_3 1_555 1_555
H45_3 C57_3 1_555 1_555
H46_3 C57_3 1_555 1_555
C58_3 C39_3 1_555 1_555
C59_3 C48_3 1_555 1_555
C60_3 C55_3 1_555 1_555
C61_3 N6_3 1_555 1_555
H48_3 C61_3 1_555 1_555
H49_3 C61_3 1_555 1_555
C62_3 C59_3 1_555 1_555
H50_3 C62_3 1_555 1_555
C43_3 C44_3 1_555 1_555
C47_3 C57_3 1_555 1_555
C50_3 C53_3 1_555 1_555
C51_3 C52_3 1_555 1_555
C55_3 C56_3 1_555 1_555
C60_3 C61_3 1_555 1_555
C60_3 C62_3 1_555 1_555
Co12 O9_3 1_555 1_555
O19_2 Co12 1_555 1_555
N7 C32_3 1_555 1_555
C38_3 N7 1_555 1_555
H32_3 C38_3 1_555 1_555
C37_3 C38_3 1_555 1_555
Co9 O3_3 1_555 1_555
N1_3 C8_3 1_555 1_555
N2_3 Co9 1_555 1_555
C8_3 N2_3 1_555 1_555
H4_3 C8_3 1_555 1_555
C9_3 C19_3 1_555 1_555
C19_3 H12_3 1_555 1_555
C21_3 N1_3 1_555 1_555
H14_3 C21_3 1_555 1_555
H15_3 C21_3 1_555 1_555
C23_3 C9_3 1_555 1_555
H17_3 C23_3 1_555 1_555
C28_3 N1_3 1_555 1_555
H21_3 C28_3 1_555 1_555
C29_3 N2_3 1_555 1_555
H22_3 C29_3 1_555 1_555
C33_3 C34_3 1_555 1_555
C34_3 C23_3 1_555 1_555
H27_3 C34_3 1_555 1_555
C35_3 N4_3 1_555 1_555
H28_3 C35_3 1_555 1_555
H29_3 C35_3 1_555 1_555
C36_3 C19_3 1_555 1_555
H30_3 C36_3 1_555 1_555
O20_2 Co9 1_555 1_555
C9_3 C21_3 1_555 1_555
C28_3 C29_3 1_555 1_555
C33_3 C35_3 1_555 1_555
C33_3 C36_3 1_555 1_555
O13 C13_3 1_555 1_555
O15 C5_3 1_555 1_555
O17 C5_3 1_555 1_555
O5_2 C25_3 1_555 1_555
O22_2 C25_3 1_555 1_555
N3_3 C18_3 1_555 1_555
C1_3 C2_3 1_555 1_555
C2_3 H1_3 1_555 1_555
C3_3 C10_3 1_555 1_555
C4_3 H2_3 1_555 1_555
C5_3 C6_3 1_555 1_555
C6_3 C4_3 1_555 1_555
C7_3 C4_3 1_555 1_555
H3_3 C7_3 1_555 1_555
C10_3 C2_3 1_555 1_555
H5_3 C10_3 1_555 1_555
C11_3 C7_3 1_555 1_555
C12_3 C13_3 1_555 1_555
C14_3 C1_3 1_555 1_555
H6_3 C14_3 1_555 1_555
C15_3 C6_3 1_555 1_555
H7_3 C15_3 1_555 1_555
C16_3 C11_3 1_555 1_555
H8_3 C16_3 1_555 1_555
C17_3 C3_3 1_555 1_555
H9_3 C17_3 1_555 1_555
C18_3 C3_3 1_555 1_555
H10_3 C18_3 1_555 1_555
H11_3 C18_3 1_555 1_555
C20_3 H13_3 1_555 1_555
C22_3 C12_3 1_555 1_555
H16_3 C22_3 1_555 1_555
C24_3 N3_3 1_555 1_555
H18_3 C24_3 1_555 1_555
H19_3 C24_3 1_555 1_555
C25_3 C1_3 1_555 1_555
C26_3 C12_3 1_555 1_555
C27_3 C20_3 1_555 1_555
C30_3 N3_3 1_555 1_555
H23_3 C30_3 1_555 1_555
H24_3 C30_3 1_555 1_555
C31_3 C26_3 1_555 1_555
H25_3 C31_3 1_555 1_555
C11_3 C24_3 1_555 1_555
C14_3 C17_3 1_555 1_555
C15_3 C16_3 1_555 1_555
C20_3 C22_3 1_555 1_555
C27_3 C30_3 1_555 1_555
C27_3 C31_3 1_555 1_555
N7_2 C32_4 1_555 1_555
C38_4 N7_2 1_555 1_555
H32_4 C38_4 1_555 1_555
C37_4 C38_4 1_555 1_555
Co9_2 O3_4 1_555 1_555
N1_4 C8_4 1_555 1_555
N2_4 Co9_2 1_555 1_555
C8_4 N2_4 1_555 1_555
H4_4 C8_4 1_555 1_555
C9_4 C19_4 1_555 1_555
C19_4 H12_4 1_555 1_555
C21_4 N1_4 1_555 1_555
H15_4 C21_4 1_555 1_555
C28_4 N1_4 1_555 1_555
H21_4 C28_4 1_555 1_555
C29_4 N2_4 1_555 1_555
H22_4 C29_4 1_555 1_555
C36_4 C19_4 1_555 1_555
H30_4 C36_4 1_555 1_555
C9_4 C21_4 1_555 1_555
C28_4 C29_4 1_555 1_555
H17_4 C23_4 1_555 1_555
C33_4 C34_4 1_555 1_555
C34_4 C23_4 1_555 1_555
H27_4 C34_4 1_555 1_555
C35_4 N4_4 1_555 1_555
H29_4 C35_4 1_555 1_555
C33_4 C35_4 1_555 1_555
O13_2 C13_4 1_555 1_555
O15_2 C5_4 1_555 1_555
O17_2 C5_4 1_555 1_555
O19_2 C25_4 1_555 1_555
O22 C25_4 1_555 1_555
N3_4 C18_4 1_555 1_555
C1_4 C2_4 1_555 1_555
C2_4 H1_4 1_555 1_555
C3_4 C10_4 1_555 1_555
C4_4 H2_4 1_555 1_555
C5_4 C6_4 1_555 1_555
C6_4 C4_4 1_555 1_555
C7_4 C4_4 1_555 1_555
H3_4 C7_4 1_555 1_555
C10_4 C2_4 1_555 1_555
H5_4 C10_4 1_555 1_555
C11_4 C7_4 1_555 1_555
C12_4 C13_4 1_555 1_555
C14_4 C1_4 1_555 1_555
H6_4 C14_4 1_555 1_555
C15_4 C6_4 1_555 1_555
H7_4 C15_4 1_555 1_555
C16_4 C11_4 1_555 1_555
H8_4 C16_4 1_555 1_555
C17_4 C3_4 1_555 1_555
H9_4 C17_4 1_555 1_555
C18_4 C3_4 1_555 1_555
H10_4 C18_4 1_555 1_555
H11_4 C18_4 1_555 1_555
C20_4 H13_4 1_555 1_555
C22_4 C12_4 1_555 1_555
H16_4 C22_4 1_555 1_555
C24_4 N3_4 1_555 1_555
H18_4 C24_4 1_555 1_555
H19_4 C24_4 1_555 1_555
C25_4 C1_4 1_555 1_555
C26_4 C12_4 1_555 1_555
C27_4 C20_4 1_555 1_555
C30_4 N3_4 1_555 1_555
H23_4 C30_4 1_555 1_555
H24_4 C30_4 1_555 1_555
C31_4 C26_4 1_555 1_555
H25_4 C31_4 1_555 1_555
C11_4 C24_4 1_555 1_555
C14_4 C17_4 1_555 1_555
C15_4 C16_4 1_555 1_555
C20_4 C22_4 1_555 1_555
C27_4 C30_4 1_555 1_555
C27_4 C31_4 1_555 1_555
O14_2 C49_4 1_555 1_555
O16_2 C43_4 1_555 1_555
O20_2 C58_4 1_555 1_555
O24 C58_4 1_555 1_555
N6_4 C54_4 1_555 1_555
C39_4 C40_4 1_555 1_555
C40_4 H33_4 1_555 1_555
C41_4 C46_4 1_555 1_555
C42_4 H34_4 1_555 1_555
C43_4 O18_2 1_555 1_555
C44_4 C42_4 1_555 1_555
C45_4 C42_4 1_555 1_555
H35_4 C45_4 1_555 1_555
C46_4 C40_4 1_555 1_555
H36_4 C46_4 1_555 1_555
C47_4 C45_4 1_555 1_555
C48_4 C49_4 1_555 1_555
C50_4 C39_4 1_555 1_555
H37_4 C50_4 1_555 1_555
C51_4 C44_4 1_555 1_555
H38_4 C51_4 1_555 1_555
C52_4 C47_4 1_555 1_555
H39_4 C52_4 1_555 1_555
C53_4 C41_4 1_555 1_555
H40_4 C53_4 1_555 1_555
C54_4 C41_4 1_555 1_555
H41_4 C54_4 1_555 1_555
H42_4 C54_4 1_555 1_555
C55_4 H43_4 1_555 1_555
C56_4 C48_4 1_555 1_555
H44_4 C56_4 1_555 1_555
C57_4 N6_4 1_555 1_555
H45_4 C57_4 1_555 1_555
H46_4 C57_4 1_555 1_555
C58_4 C39_4 1_555 1_555
C59_4 C48_4 1_555 1_555
C60_4 C55_4 1_555 1_555
C61_4 N6_4 1_555 1_555
H48_4 C61_4 1_555 1_555
H49_4 C61_4 1_555 1_555
C62_4 C59_4 1_555 1_555
H50_4 C62_4 1_555 1_555
C43_4 C44_4 1_555 1_555
C47_4 C57_4 1_555 1_555
C50_4 C53_4 1_555 1_555
C51_4 C52_4 1_555 1_555
C55_4 C56_4 1_555 1_555
C60_4 C61_4 1_555 1_555
C60_4 C62_4 1_555 1_555
Co12_2 O9_4 1_555 1_555

#END
