
###############################################################################
#
# This file contains modified crystal structure data generated from the
# MOF subset of the Cambridge Structural Database (CSD) v543 
# hosted by the Cambridge Crystallographic Data Centre (CCDC).
#
# This work is licensed under the Creative Commons
# Attribution-NonCommercial-ShareAlike 4.0 International License.
# To view a copy of this license, visit
# http://creativecommons.org/licenses/by-nc-sa/4.0/
# or send a letter to
# Creative Commons, PO Box 1866, Mountain View, CA 94042, USA.
#
# CIF created using the CSD Python API on 29 September 2022
# The structure has been converted into the P1 space group
# The structure has a 3D framework
# The original CSD entry VAQSEO is in the monoclinic crystal system
# The framework has been calculated to contain at least 10.0% void space
# The void calculation uses a probe of radius 1.32A, grid spacing 0.4
#
###############################################################################

data_VAQSEO
_chemical_formula_moiety         '(C312 H204 Cd12 N32 O50)n'
_symmetry_cell_setting           triclinic
_symmetry_space_group_name_H-M   'P 1'
_symmetry_Int_Tables_number      1
_space_group_name_Hall           'P 1'
loop_
_symmetry_equiv_pos_site_id
_symmetry_equiv_pos_as_xyz
1 x,y,z
_cell_length_a                   21.230(5)
_cell_length_b                   32.113(5)
_cell_length_c                   14.917(5)
_cell_angle_alpha                90
_cell_angle_beta                 132.847(5)
_cell_angle_gamma                90
_cell_volume                     7456.21
loop_
_atom_site_label
_atom_site_type_symbol
_atom_site_fract_x
_atom_site_fract_y
_atom_site_fract_z
H4 H 0.0147 0.9653 0.0237
O7 O 0.1593(5) 0.01859(19) 0.2199(8)
O8 O 0.2293(4) 0.03228(16) 0.1644(5)
O9 O 0.2618(4) 0.3527(2) 0.7763(5)
O10 O 0.1395(4) 0.38554(18) 0.6525(5)
C28 C 0.1842(5) 0.0439(2) 0.1850(7)
C29 C 0.1615(5) 0.0895(2) 0.1736(7)
C30 C 0.1773(6) 0.1173(2) 0.1205(7)
H22 H 0.2008 0.1077 0.0897
C31 C 0.1586(5) 0.1593(2) 0.1123(7)
H23 H 0.1667 0.1774 0.0722
C32 C 0.1280(5) 0.1745(2) 0.1636(6)
C33 C 0.1145(5) 0.1462(2) 0.2208(7)
H24 H 0.0945 0.1558 0.2566
C34 C 0.1305(6) 0.1042(2) 0.2244(8)
H25 H 0.1204 0.0857 0.2613
C35 C 0.1083(4) 0.2194(2) 0.1570(6)
C36 C 0.0682(4) 0.2418(2) 0.0507(6)
C37 C 0.0488(5) 0.2841(2) 0.0422(6)
C38 C 0.0726(5) 0.3030(2) 0.1450(6)
H27 H 0.0607 0.3311 0.1408
C39 C 0.1137(4) 0.2819(2) 0.2549(6)
C40 C 0.1311(4) 0.2393(2) 0.2580(6)
H28 H 0.1585 0.2243 0.3295
C41 C 0.1354(4) 0.3021(2) 0.3615(6)
C42 C 0.0837(5) 0.3338(3) 0.3448(7)
H29 H 0.0367 0.3430 0.2662
C43 C 0.1020(5) 0.3520(3) 0.4450(7)
H30 H 0.0665 0.3730 0.4324
C44 C 0.1720(5) 0.3394(2) 0.5631(7)
C45 C 0.2240(5) 0.3088(2) 0.5806(7)
H31 H 0.2720 0.3005 0.6596
C46 C 0.2058(5) 0.2896(2) 0.4805(6)
H32 H 0.2411 0.2683 0.4939
C47 C 0.1931(5) 0.3591(2) 0.6716(7)
H33 H 0.0501 0.3635 0.0048
H46 H 0.4108 0.0223 0.3765
C70 C 0.5928(6) 0.0046(3) 0.5611(8)
C71 C 0.5924(7) 0.0465(4) 0.5481(13)
H47 H 0.5408 0.0606 0.4901
C72 C 0.6711(9) 0.0684(4) 0.6235(16)
H48 H 0.6717 0.0966 0.6105
C73 C 0.7449(6) 0.0486(3) 0.7139(12)
H49 H 0.7958 0.0636 0.7666
C74 C 0.7457(6) 0.0066(3) 0.7290(8)
H51 H 0.9279 0.0197 0.8808
Cd5 Cd 0.23141(3) 0.03191(2) 0.00656(4)
Cd8 Cd 0.22967(4) 0.40828(2) 0.85213(4)
Cd3 Cd 0.23267(3) 0.96273(2) 0.22703(4)
N5 N 0.3721(5) 0.9612(2) 0.3585(6)
N6 N 0.5068(4) 0.9394(2) 0.4899(6)
H3 H 0.5504 0.9230 0.5342
N7 N 0.8278(4) 0.9471(2) 0.8743(6)
N8 N 0.9595(6) 0.9658(3) 0.9725(8)
O5 O 0.2124(3) 0.88180(17) 0.1849(5)
O6 O 0.1158(3) 0.93098(17) 0.0689(5)
H20 H 0.1547 0.8122 0.0709
C27 C 0.1405(5) 0.8931(2) 0.0874(7)
C67 C 0.4237(5) 0.9275(3) 0.4153(7)
H45 H 0.4049 0.9002 0.4048
C68 C 0.4279(6) 0.9948(3) 0.4011(8)
C69 C 0.5106(5) 0.9815(3) 0.4838(7)
C75 C 0.6701(5) 0.9848(3) 0.6482(7)
H50 H 0.6713 0.9559 0.6527
C76 C 0.8262(5) 0.9846(3) 0.8290(7)
C77 C 0.9097(6) 0.9956(4) 0.8922(9)
C78 C 0.9100(6) 0.9367(4) 0.9607(8)
Cd6 Cd 0.72967(4) 0.90828(2) 0.85213(4)
O16 O 0.2520(5) 0.96410(17) 0.0594(7)
O20 O 0.2062(4) 0.92934(16) 0.3484(5)
Cd1 Cd 0.73141(3) 0.46809(2) 0.50656(4)
N1 N 0.5859(5) 0.4711(2) 0.3697(6)
N2 N 0.4543(4) 0.4503(2) 0.2226(6)
H1 H 0.4109 0.4339 0.1766
O11 O 0.7960(7) 0.3683(2) 0.4985(6)
O12 O 0.8382(4) 0.42221(17) 0.6214(5)
O13 O 0.7062(4) 0.42934(16) 0.3484(5)
H5 H 0.6768 0.4078 0.3323
H6 H 0.6788 0.4444 0.2846
C48 C 0.9998(5) 0.3082(2) 0.9272(6)
C50 C 0.9568(7) 0.3746(3) 0.8256(8)
H34 H 0.9631 0.4034 0.8324
C51 C 0.8973(6) 0.3571(2) 0.7134(7)
C52 C 0.8867(6) 0.3142(3) 0.7063(7)
H35 H 0.8454 0.3015 0.6304
C53 C 0.9369(6) 0.2900(2) 0.8110(7)
H36 H 0.9290 0.2613 0.8045
C54 C 0.8401(6) 0.3844(3) 0.6029(8)
C55 C 0.5355(5) 0.4390(3) 0.3186(7)
H37 H 0.5533 0.4117 0.3451
C56 C 0.5369(5) 0.5045(3) 0.3043(7)
H38 H 0.5568 0.5318 0.3200
C57 C 0.4529(5) 0.4925(2) 0.2107(7)
C58 C 0.3743(5) 0.5158(3) 0.1125(7)
C59 C 0.3788(7) 0.5575(3) 0.0954(11)
H39 H 0.4317 0.5710 0.1454
C60 C 0.3029(8) 0.5796(3) 0.0018(11)
C63 C 0.2949(5) 0.4965(2) 0.0348(7)
H42 H 0.2913 0.4686 0.0478
Cd9 Cd 0.73267(3) 0.46273(2) 0.22703(4)
O14 O 0.8267(5) 0.51520(18) 0.5171(7)
O15 O 0.7520(5) 0.53590(17) 0.5594(7)
O17 O 0.7293(4) 0.46772(16) 0.6644(5)
N3 N 0.1328(5) 0.4526(2) 0.8241(6)
N4 N 0.0029(6) 0.4757(4) 0.7183(8)
H40 H 0.3051 0.6081 0.9938
C61 C 0.2257(7) 0.5591(3) 0.9226(10)
H41 H 0.1766 0.5734 0.8577
C62 C 0.2205(5) 0.5173(3) 0.9384(7)
C64 C 0.1379(5) 0.4947(3) 0.8512(7)
C65 C 0.0566(7) 0.5092(5) 0.7837(10)
H43 H 0.0404 0.5363 0.7821
C66 C 0.0509(6) 0.4437(4) 0.7441(9)
H44 H 0.0291 0.4174 0.7094
O4 O 0.8268(4) 0.89277(17) 0.0611(4)
C1 C 0.8018(5) 0.5436(2) 0.5426(7)
C2 C 0.8274(5) 0.5878(2) 0.5514(7)
C3 C 0.8212(6) 0.6157(2) 0.6160(8)
H7 H 0.8048 0.6064 0.6566
C4 C 0.8395(6) 0.6574(2) 0.6203(8)
H8 H 0.8384 0.6755 0.6677
C5 C 0.8592(5) 0.6724(2) 0.5563(6)
C6 C 0.8655(6) 0.6447(2) 0.4923(7)
H9 H 0.8798 0.6544 0.4493
C7 C 0.8506(6) 0.6020(2) 0.4913(8)
H10 H 0.8565 0.5835 0.4496
C8 C 0.8772(4) 0.7176(2) 0.5614(6)
C9 C 0.9167(4) 0.7410(2) 0.6681(6)
H11 H 0.9322 0.7281 0.7365
C10 C 0.9325(4) 0.7830(2) 0.6715(6)
C11 C 0.9080(4) 0.8023(2) 0.5684(6)
H12 H 0.9176 0.8307 0.5707
C12 C 0.8690(4) 0.7800(2) 0.4609(6)
C13 C 0.8542(4) 0.7376(2) 0.4587(6)
H13 H 0.8287 0.7222 0.3883
C14 C 0.8477(5) 0.8011(2) 0.3548(6)
C15 C 0.8979(5) 0.8338(2) 0.3704(6)
H14 H 0.9466 0.8422 0.4488
C16 C 0.8762(5) 0.8536(2) 0.2717(7)
H15 H 0.9109 0.8750 0.2841
C17 C 0.8024(5) 0.8424(2) 0.1516(6)
C18 C 0.7535(5) 0.8094(3) 0.1360(7)
H16 H 0.7051 0.8009 0.0574
C19 C 0.7757(5) 0.7891(2) 0.2357(6)
H17 H 0.7422 0.7670 0.2232
C20 C 0.7772(6) 0.8652(2) 0.0441(7)
C21 C 0.9794(5) 0.8088(2) 0.7838(6)
C22 C 0.9530(5) 0.8493(2) 0.7755(7)
H18 H 0.9000 0.8584 0.7031
H19 H 0.9885 0.9040 0.8671
Cd10 Cd 0.73267(3) 0.53727(2) 0.72703(4)
O3 O 0.7086(4) 0.8558(2) 0.9404(5)
N9 N 0.6328(5) 0.9526(2) 0.8241(6)
O18 O 0.7618(4) 0.8527(2) 0.7763(5)
O19 O 0.6395(4) 0.88554(18) 0.6525(5)
Cd3_2 Cd 0.23267(3) 0.03727(2) 0.72703(4)
N5_2 N 0.3721(5) 0.0388(2) 0.8585(6)
N6_2 N 0.5068(4) 0.0606(2) 0.9899(6)
O5_2 O 0.2124(3) 0.11820(17) 0.6849(5)
O6_2 O 0.1158(3) 0.06902(17) 0.5689(5)
C23 C 0.0052(6) 0.1235(2) 0.3752(7)
C24 C 0.0809(5) 0.1374(2) 0.4846(7)
C25 C 0.1040(5) 0.1782(3) 0.4961(7)
H20_2 H 0.1547 0.1878 0.5709
C26 C 0.0526(5) 0.2059(2) 0.3969(7)
H21 H 0.0676 0.2339 0.4071
C27_2 C 0.1405(5) 0.1069(2) 0.5874(7)
C67_2 C 0.4237(5) 0.0725(3) 0.9153(7)
H45_2 H 0.4049 0.0998 0.9048
C68_2 C 0.4279(6) 0.0052(3) 0.9011(8)
C69_2 C 0.5106(5) 0.0185(3) 0.9838(7)
O16_2 O 0.2520(5) 0.03590(17) 0.5594(7)
O20_2 O 0.2062(4) 0.07066(16) 0.8484(5)
O9_2 O 0.2618(4) 0.6473(2) 0.2763(5)
O10_2 O 0.1395(4) 0.61446(18) 0.1525(5)
C44_2 C 0.1720(5) 0.6606(2) 0.0631(7)
C45_2 C 0.2240(5) 0.6912(2) 0.0806(7)
H31_2 H 0.2720 0.6995 0.1596
C47_2 C 0.1931(5) 0.6409(2) 0.1716(7)
C70_2 C 0.5928(6) 0.9954(3) 0.0611(8)
C71_2 C 0.5924(7) 0.9535(4) 0.0481(13)
C72_2 C 0.6711(9) 0.9316(4) 0.1235(16)
H48_2 H 0.6717 0.9034 0.1105
C73_2 C 0.7449(6) 0.9514(3) 0.2139(12)
H49_2 H 0.7958 0.9364 0.2666
C74_2 C 0.7457(6) 0.9934(3) 0.2290(8)
H51_2 H 0.9279 0.9803 0.3808
Cd8_2 Cd 0.22967(4) 0.59172(2) 0.35213(4)
O7_2 O 0.1593(5) 0.98141(19) 0.7199(8)
O8_2 O 0.2293(4) 0.96772(16) 0.6644(5)
C28_2 C 0.1842(5) 0.9561(2) 0.6850(7)
C29_2 C 0.1615(5) 0.9105(2) 0.6736(7)
C30_2 C 0.1773(6) 0.8827(2) 0.6205(7)
H22_2 H 0.2008 0.8923 0.5897
C31_2 C 0.1586(5) 0.8407(2) 0.6123(7)
H23_2 H 0.1667 0.8226 0.5722
C32_2 C 0.1280(5) 0.8255(2) 0.6636(6)
C33_2 C 0.1145(5) 0.8538(2) 0.7208(7)
H24_2 H 0.0945 0.8442 0.7566
C34_2 C 0.1305(6) 0.8958(2) 0.7244(8)
H25_2 H 0.1204 0.9143 0.7613
C35_2 C 0.1083(4) 0.7806(2) 0.6570(6)
C36_2 C 0.0682(4) 0.7582(2) 0.5507(6)
H26 H 0.0538 0.7716 0.4835
C37_2 C 0.0488(5) 0.7159(2) 0.5422(6)
C38_2 C 0.0726(5) 0.6970(2) 0.6450(6)
H27_2 H 0.0607 0.6689 0.6408
C39_2 C 0.1137(4) 0.7181(2) 0.7549(6)
C40_2 C 0.1311(4) 0.7607(2) 0.7580(6)
H28_2 H 0.1585 0.7757 0.8295
C41_2 C 0.1354(4) 0.6979(2) 0.8615(6)
C42_2 C 0.0837(5) 0.6662(3) 0.8448(7)
H29_2 H 0.0367 0.6570 0.7662
C43_2 C 0.1020(5) 0.6480(3) 0.9450(7)
H30_2 H 0.0665 0.6270 0.9324
C46_2 C 0.2058(5) 0.7104(2) 0.9805(6)
H32_2 H 0.2411 0.7317 0.9939
C49 C 0.0081(7) 0.6495(3) 0.4297(7)
H33_2 H 0.0501 0.6365 0.5048
H46_2 H 0.4108 0.9777 0.8765
H47_2 H 0.5408 0.9394 0.9901
Cd5_2 Cd 0.23141(3) 0.96809(2) 0.50656(4)
O1 O 0.8267(5) 0.48480(18) 0.0171(7)
O2 O 0.7520(5) 0.46410(17) 0.0594(7)
C1_2 C 0.8018(5) 0.4564(2) 0.0426(7)
C2_2 C 0.8274(5) 0.4122(2) 0.0514(7)
C3_2 C 0.8212(6) 0.3843(2) 0.1160(8)
H7_2 H 0.8048 0.3936 0.1566
C4_2 C 0.8395(6) 0.3426(2) 0.1203(8)
H8_2 H 0.8384 0.3245 0.1677
C5_2 C 0.8592(5) 0.3276(2) 0.0563(6)
C8_2 C 0.8772(4) 0.2824(2) 0.0614(6)
C9_2 C 0.9167(4) 0.2590(2) 0.1681(6)
H11_2 H 0.9322 0.2719 0.2365
C10_2 C 0.9325(4) 0.2170(2) 0.1715(6)
C11_2 C 0.9080(4) 0.1977(2) 0.0684(6)
H12_2 H 0.9176 0.1693 0.0707
C21_2 C 0.9794(5) 0.1912(2) 0.2838(6)
C22_2 C 0.9530(5) 0.1507(2) 0.2755(7)
H18_2 H 0.9000 0.1416 0.2031
H19_2 H 0.9885 0.0960 0.3671
Cd4 Cd 0.73141(3) 0.53191(2) 0.00656(4)
O12_2 O 0.8382(4) 0.57779(17) 0.1214(5)
C48_2 C 0.9998(5) 0.6918(2) 0.4272(6)
C50_2 C 0.9568(7) 0.6254(3) 0.3256(8)
H34_2 H 0.9631 0.5966 0.3324
C51_2 C 0.8973(6) 0.6429(2) 0.2134(7)
C52_2 C 0.8867(6) 0.6858(3) 0.2063(7)
H35_2 H 0.8454 0.6985 0.1304
C53_2 C 0.9369(6) 0.7100(2) 0.3110(7)
H36_2 H 0.9290 0.7387 0.3045
C54_2 C 0.8401(6) 0.6156(3) 0.1029(8)
O17_2 O 0.7293(4) 0.53228(16) 0.1644(5)
N1_2 N 0.5859(5) 0.5289(2) 0.8697(6)
N2_2 N 0.4543(4) 0.5497(2) 0.7226(6)
H1_2 H 0.4109 0.5661 0.6766
N3_2 N 0.1328(5) 0.5474(2) 0.3241(6)
N4_2 N 0.0029(6) 0.5243(4) 0.2183(8)
O11_2 O 0.7960(7) 0.6317(2) 0.9985(6)
O13_2 O 0.7062(4) 0.57066(16) 0.8484(5)
H5_2 H 0.6768 0.5922 0.8323
H6_2 H 0.6788 0.5556 0.7846
C55_2 C 0.5355(5) 0.5610(3) 0.8186(7)
H37_2 H 0.5533 0.5883 0.8451
C56_2 C 0.5369(5) 0.4955(3) 0.8043(7)
H38_2 H 0.5568 0.4682 0.8200
C57_2 C 0.4529(5) 0.5075(2) 0.7107(7)
C58_2 C 0.3743(5) 0.4842(3) 0.6125(7)
C59_2 C 0.3788(7) 0.4425(3) 0.5954(11)
H39_2 H 0.4317 0.4290 0.6454
C60_2 C 0.3029(8) 0.4204(3) 0.5018(11)
H40_2 H 0.3051 0.3919 0.4938
C61_2 C 0.2257(7) 0.4409(3) 0.4226(10)
H41_2 H 0.1766 0.4266 0.3577
C62_2 C 0.2205(5) 0.4827(3) 0.4384(7)
C63_2 C 0.2949(5) 0.5035(2) 0.5348(7)
H42_2 H 0.2913 0.5314 0.5478
C64_2 C 0.1379(5) 0.5053(3) 0.3512(7)
C65_2 C 0.0566(7) 0.4908(5) 0.2837(10)
H43_2 H 0.0404 0.4637 0.2821
C66_2 C 0.0509(6) 0.5563(4) 0.2441(9)
H44_2 H 0.0291 0.5826 0.2094
N6_3 N 0.0068(4) 0.4394(2) 0.4899(6)
H3_2 H 0.0504 0.4230 0.5342
N7_2 N 0.3278(4) 0.4471(2) 0.8743(6)
N8_2 N 0.4595(6) 0.4658(3) 0.9725(8)
C69_3 C 0.0106(5) 0.4815(3) 0.4838(7)
C70_3 C 0.0928(6) 0.5046(3) 0.5611(8)
C71_3 C 0.0924(7) 0.5465(4) 0.5481(13)
H47_3 H 0.0408 0.5606 0.4901
C72_3 C 0.1711(9) 0.5684(4) 0.6235(16)
H48_3 H 0.1717 0.5966 0.6105
C73_3 C 0.2449(6) 0.5486(3) 0.7139(12)
H49_3 H 0.2958 0.5636 0.7666
C74_3 C 0.2457(6) 0.5066(3) 0.7290(8)
C75_2 C 0.1701(5) 0.4848(3) 0.6482(7)
H50_2 H 0.1713 0.4559 0.6527
C76_2 C 0.3262(5) 0.4846(3) 0.8290(7)
C77_2 C 0.4097(6) 0.4956(4) 0.8922(9)
H51_3 H 0.4279 0.5197 0.8808
C78_2 C 0.4100(6) 0.4367(4) 0.9607(8)
C56_3 C 0.0369(5) 0.0045(3) 0.3043(7)
H38_3 H 0.0568 0.0318 0.3200
O14_2 O 0.3267(5) 0.01520(18) 0.5171(7)
N5_3 N 0.8721(5) 0.4612(2) 0.3585(6)
O5_3 O 0.7124(3) 0.38180(17) 0.1849(5)
O6_3 O 0.6158(3) 0.43098(17) 0.0689(5)
O7_3 O 0.6593(5) 0.51859(19) 0.2199(8)
H20_3 H 0.6547 0.3122 0.0709
C27_3 C 0.6405(5) 0.3931(2) 0.0874(7)
C28_3 C 0.6842(5) 0.5439(2) 0.1850(7)
C29_3 C 0.6615(5) 0.5895(2) 0.1736(7)
C30_3 C 0.6773(6) 0.6173(2) 0.1205(7)
H22_3 H 0.7008 0.6077 0.0897
C31_3 C 0.6586(5) 0.6593(2) 0.1123(7)
H23_3 H 0.6667 0.6774 0.0722
C32_3 C 0.6280(5) 0.6745(2) 0.1636(6)
C33_3 C 0.6145(5) 0.6462(2) 0.2208(7)
H24_3 H 0.5945 0.6558 0.2566
C34_3 C 0.6305(6) 0.6042(2) 0.2244(8)
H25_3 H 0.6204 0.5857 0.2613
C35_3 C 0.6083(4) 0.7194(2) 0.1570(6)
C36_3 C 0.5682(4) 0.7418(2) 0.0507(6)
C37_3 C 0.5488(5) 0.7841(2) 0.0422(6)
C38_3 C 0.5726(5) 0.8030(2) 0.1450(6)
H27_3 H 0.5607 0.8311 0.1408
C39_3 C 0.6137(4) 0.7819(2) 0.2549(6)
C40_3 C 0.6311(4) 0.7393(2) 0.2580(6)
H28_3 H 0.6585 0.7243 0.3295
C41_3 C 0.6354(4) 0.8021(2) 0.3615(6)
C42_3 C 0.5837(5) 0.8338(3) 0.3448(7)
H29_3 H 0.5367 0.8430 0.2662
C43_3 C 0.6020(5) 0.8520(3) 0.4450(7)
H30_3 H 0.5665 0.8730 0.4324
C44_3 C 0.6720(5) 0.8394(2) 0.5631(7)
C45_3 C 0.7240(5) 0.8088(2) 0.5806(7)
H31_3 H 0.7720 0.8005 0.6596
C46_3 C 0.7058(5) 0.7896(2) 0.4805(6)
H32_3 H 0.7411 0.7683 0.4939
C47_3 C 0.6931(5) 0.8591(2) 0.6716(7)
H33_3 H 0.5501 0.8635 0.0048
C67_3 C 0.9237(5) 0.4275(3) 0.4153(7)
H45_3 H 0.9049 0.4002 0.4048
C68_3 C 0.9279(6) 0.4948(3) 0.4011(8)
H46_3 H 0.9108 0.5223 0.3765
N1_3 N 0.0859(5) 0.9711(2) 0.3697(6)
O4_2 O 0.3268(4) 0.39277(17) 0.0611(4)
O11_3 O 0.2960(7) 0.8683(2) 0.4985(6)
O12_3 O 0.3382(4) 0.92221(17) 0.6214(5)
H5_3 H 0.1768 0.9078 0.3323
H6_3 H 0.1788 0.9444 0.2846
C1_3 C 0.3018(5) 0.0436(2) 0.5426(7)
C2_3 C 0.3274(5) 0.0878(2) 0.5514(7)
C3_3 C 0.3212(6) 0.1157(2) 0.6160(8)
H7_3 H 0.3048 0.1064 0.6566
C4_3 C 0.3395(6) 0.1574(2) 0.6203(8)
H8_3 H 0.3384 0.1755 0.6677
C5_3 C 0.3592(5) 0.1724(2) 0.5563(6)
C6_2 C 0.3655(6) 0.1447(2) 0.4923(7)
H9_2 H 0.3798 0.1544 0.4493
C7_2 C 0.3506(6) 0.1020(2) 0.4913(8)
H10_2 H 0.3565 0.0835 0.4496
C8_3 C 0.3772(4) 0.2176(2) 0.5614(6)
C9_3 C 0.4167(4) 0.2410(2) 0.6681(6)
H11_3 H 0.4322 0.2281 0.7365
C10_3 C 0.4325(4) 0.2830(2) 0.6715(6)
C11_3 C 0.4080(4) 0.3023(2) 0.5684(6)
H12_3 H 0.4176 0.3307 0.5707
C12_2 C 0.3690(4) 0.2800(2) 0.4609(6)
C13_2 C 0.3542(4) 0.2376(2) 0.4587(6)
H13_2 H 0.3287 0.2222 0.3883
C14_2 C 0.3477(5) 0.3011(2) 0.3548(6)
C15_2 C 0.3979(5) 0.3338(2) 0.3704(6)
H14_2 H 0.4466 0.3422 0.4488
C16_2 C 0.3762(5) 0.3536(2) 0.2717(7)
H15_2 H 0.4109 0.3750 0.2841
C17_2 C 0.3024(5) 0.3424(2) 0.1516(6)
C18_2 C 0.2535(5) 0.3094(3) 0.1360(7)
H16_2 H 0.2051 0.3009 0.0574
C19_2 C 0.2757(5) 0.2891(2) 0.2357(6)
H17_2 H 0.2422 0.2670 0.2232
C20_2 C 0.2772(6) 0.3652(2) 0.0441(7)
C21_3 C 0.4794(5) 0.3088(2) 0.7838(6)
C22_3 C 0.4530(5) 0.3493(2) 0.7755(7)
H18_3 H 0.4000 0.3584 0.7031
C23_2 C 0.5052(6) 0.3765(2) 0.8752(7)
H19_3 H 0.4885 0.4040 0.8671
C24_2 C 0.5809(5) 0.3626(2) 0.9846(7)
C25_2 C 0.6040(5) 0.3218(3) 0.9961(7)
C26_2 C 0.5526(5) 0.2941(2) 0.8969(7)
H21_2 H 0.5676 0.2661 0.9071
H26_2 H 0.5538 0.7284 0.9835
C48_3 C 0.4998(5) 0.8082(2) 0.9272(6)
C49_2 C 0.5081(7) 0.8505(3) 0.9297(7)
C50_3 C 0.4568(7) 0.8746(3) 0.8256(8)
H34_3 H 0.4631 0.9034 0.8324
C51_3 C 0.3973(6) 0.8571(2) 0.7134(7)
C52_3 C 0.3867(6) 0.8142(3) 0.7063(7)
H35_3 H 0.3454 0.8015 0.6304
C53_3 C 0.4369(6) 0.7900(2) 0.8110(7)
H36_3 H 0.4290 0.7613 0.8045
C54_3 C 0.3401(6) 0.8844(3) 0.6029(8)
C55_3 C 0.0355(5) 0.9390(3) 0.3186(7)
H37_3 H 0.0533 0.9117 0.3451
O3_2 O 0.2086(4) 0.3558(2) 0.9404(5)
N4_3 N 0.5029(6) 0.9757(4) 0.7183(8)
H2 H 0.4478 0.9759 0.6694
C64_3 C 0.6379(5) 0.9947(3) 0.8512(7)
C66_3 C 0.5509(6) 0.9437(4) 0.7441(9)
H44_3 H 0.5291 0.9174 0.7094
H3_3 H 0.0504 0.5770 0.0342
N7_3 N 0.3278(4) 0.5529(2) 0.3743(6)
N8_3 N 0.4595(6) 0.5342(3) 0.4725(8)
H4_2 H 0.5147 0.5347 0.5237
C70_4 C 0.0928(6) 0.4954(3) 0.0611(8)
C71_4 C 0.0924(7) 0.4535(4) 0.0481(13)
C72_4 C 0.1711(9) 0.4316(4) 0.1235(16)
H48_4 H 0.1717 0.4034 0.1105
C73_4 C 0.2449(6) 0.4514(3) 0.2139(12)
H49_4 H 0.2958 0.4364 0.2666
C74_4 C 0.2457(6) 0.4934(3) 0.2290(8)
C75_3 C 0.1701(5) 0.5152(3) 0.1482(7)
H50_3 H 0.1713 0.5441 0.1527
C76_3 C 0.3262(5) 0.5154(3) 0.3290(7)
C77_3 C 0.4097(6) 0.5044(4) 0.3922(9)
H51_4 H 0.4279 0.4803 0.3808
C78_3 C 0.4100(6) 0.5633(4) 0.4607(8)
H52 H 0.4300 0.5876 0.5068
N5_4 N 0.8721(5) 0.5388(2) 0.8585(6)
O1_2 O 0.3267(5) 0.98480(18) 0.0171(7)
O5_4 O 0.7124(3) 0.61820(17) 0.6849(5)
O6_4 O 0.6158(3) 0.56902(17) 0.5689(5)
O7_4 O 0.6593(5) 0.48141(19) 0.7199(8)
O12_4 O 0.3382(4) 0.07779(17) 0.1214(5)
C1_4 C 0.3018(5) 0.9564(2) 0.0426(7)
C2_4 C 0.3274(5) 0.9122(2) 0.0514(7)
C3_4 C 0.3212(6) 0.8843(2) 0.1160(8)
H7_4 H 0.3048 0.8936 0.1566
C4_4 C 0.3395(6) 0.8426(2) 0.1203(8)
H8_4 H 0.3384 0.8245 0.1677
C5_4 C 0.3592(5) 0.8276(2) 0.0563(6)
C8_4 C 0.3772(4) 0.7824(2) 0.0614(6)
C9_4 C 0.4167(4) 0.7590(2) 0.1681(6)
H11_4 H 0.4322 0.7719 0.2365
C10_4 C 0.4325(4) 0.7170(2) 0.1715(6)
C11_4 C 0.4080(4) 0.6977(2) 0.0684(6)
H12_4 H 0.4176 0.6693 0.0707
C21_4 C 0.4794(5) 0.6912(2) 0.2838(6)
C22_4 C 0.4530(5) 0.6507(2) 0.2755(7)
H18_4 H 0.4000 0.6416 0.2031
C23_3 C 0.5052(6) 0.6235(2) 0.3752(7)
H19_4 H 0.4885 0.5960 0.3671
C24_3 C 0.5809(5) 0.6374(2) 0.4846(7)
C25_3 C 0.6040(5) 0.6782(3) 0.4961(7)
H20_4 H 0.6547 0.6878 0.5709
C26_3 C 0.5526(5) 0.7059(2) 0.3969(7)
H21_3 H 0.5676 0.7339 0.4071
C27_4 C 0.6405(5) 0.6069(2) 0.5874(7)
C28_4 C 0.6842(5) 0.4561(2) 0.6850(7)
C29_4 C 0.6615(5) 0.4105(2) 0.6736(7)
C30_4 C 0.6773(6) 0.3827(2) 0.6205(7)
H22_4 H 0.7008 0.3923 0.5897
C31_4 C 0.6586(5) 0.3407(2) 0.6123(7)
H23_4 H 0.6667 0.3226 0.5722
C32_4 C 0.6280(5) 0.3255(2) 0.6636(6)
C33_4 C 0.6145(5) 0.3538(2) 0.7208(7)
H24_4 H 0.5945 0.3442 0.7566
C34_4 C 0.6305(6) 0.3958(2) 0.7244(8)
H25_4 H 0.6204 0.4143 0.7613
C35_4 C 0.6083(4) 0.2806(2) 0.6570(6)
C36_4 C 0.5682(4) 0.2582(2) 0.5507(6)
H26_3 H 0.5538 0.2716 0.4835
C37_4 C 0.5488(5) 0.2159(2) 0.5422(6)
C38_4 C 0.5726(5) 0.1970(2) 0.6450(6)
H27_4 H 0.5607 0.1689 0.6408
C39_4 C 0.6137(4) 0.2181(2) 0.7549(6)
C40_4 C 0.6311(4) 0.2607(2) 0.7580(6)
H28_4 H 0.6585 0.2757 0.8295
C41_4 C 0.6354(4) 0.1979(2) 0.8615(6)
C42_4 C 0.5837(5) 0.1662(3) 0.8448(7)
H29_4 H 0.5367 0.1570 0.7662
C43_4 C 0.6020(5) 0.1480(3) 0.9450(7)
H30_4 H 0.5665 0.1270 0.9324
C46_4 C 0.7058(5) 0.2104(2) 0.9805(6)
H32_4 H 0.7411 0.2317 0.9939
C48_4 C 0.4998(5) 0.1918(2) 0.4272(6)
C49_3 C 0.5081(7) 0.1495(3) 0.4297(7)
H33_4 H 0.5501 0.1365 0.5048
C50_4 C 0.4568(7) 0.1254(3) 0.3256(8)
H34_4 H 0.4631 0.0966 0.3324
C51_4 C 0.3973(6) 0.1429(2) 0.2134(7)
C52_4 C 0.3867(6) 0.1858(3) 0.2063(7)
H35_4 H 0.3454 0.1985 0.1304
C53_4 C 0.4369(6) 0.2100(2) 0.3110(7)
H36_4 H 0.4290 0.2387 0.3045
C54_4 C 0.3401(6) 0.1156(3) 0.1029(8)
C67_4 C 0.9237(5) 0.5725(3) 0.9153(7)
H45_4 H 0.9049 0.5998 0.9048
C68_4 C 0.9279(6) 0.5052(3) 0.9011(8)
H46_4 H 0.9108 0.4777 0.8765
N1_4 N 0.0859(5) 0.0289(2) 0.8697(6)
O3_3 O 0.2086(4) 0.6442(2) 0.4404(5)
O4_3 O 0.3268(4) 0.60723(17) 0.5611(4)
O11_4 O 0.2960(7) 0.1317(2) 0.9985(6)
H5_4 H 0.1768 0.0922 0.8323
H6_4 H 0.1788 0.0556 0.7846
C6_3 C 0.3655(6) 0.8553(2) 0.9923(7)
H9_3 H 0.3798 0.8456 0.9493
C7_3 C 0.3506(6) 0.8980(2) 0.9913(8)
H10_3 H 0.3565 0.9165 0.9496
C12_3 C 0.3690(4) 0.7200(2) 0.9609(6)
C13_3 C 0.3542(4) 0.7624(2) 0.9587(6)
H13_3 H 0.3287 0.7778 0.8883
C14_3 C 0.3477(5) 0.6989(2) 0.8548(6)
C15_3 C 0.3979(5) 0.6662(2) 0.8704(6)
H14_3 H 0.4466 0.6578 0.9488
C16_3 C 0.3762(5) 0.6464(2) 0.7717(7)
H15_3 H 0.4109 0.6250 0.7841
C17_3 C 0.3024(5) 0.6576(2) 0.6516(6)
C18_3 C 0.2535(5) 0.6906(3) 0.6360(7)
H16_3 H 0.2051 0.6991 0.5574
C19_3 C 0.2757(5) 0.7109(2) 0.7357(6)
H17_3 H 0.2422 0.7330 0.7232
C20_3 C 0.2772(6) 0.6348(2) 0.5441(7)
C55_4 C 0.0355(5) 0.0610(3) 0.8186(7)
H37_4 H 0.0533 0.0883 0.8451
H26_4 H 0.0538 0.2284 0.9835
C49_4 C 0.0081(7) 0.3505(3) 0.9297(7)
H52_2 H 0.9300 0.9124 0.0068
C23_4 C 0.0052(6) 0.8765(2) 0.8752(7)
C24_4 C 0.0809(5) 0.8626(2) 0.9846(7)
C25_4 C 0.1040(5) 0.8218(3) 0.9961(7)
C26_4 C 0.0526(5) 0.7941(2) 0.8969(7)
H21_4 H 0.0676 0.7661 0.9071
H2_2 H 0.9478 0.4759 0.6694
H4_3 H 0.0147 0.0347 0.5237
H3_4 H 0.5504 0.0770 0.0342
N7_4 N 0.8278(4) 0.0529(2) 0.3743(6)
N8_4 N 0.9595(6) 0.0342(3) 0.4725(8)
C75_4 C 0.6701(5) 0.0152(3) 0.1482(7)
H50_4 H 0.6713 0.0441 0.1527
C76_4 C 0.8262(5) 0.0154(3) 0.3290(7)
C77_4 C 0.9097(6) 0.0044(4) 0.3922(9)
C78_4 C 0.9100(6) 0.0633(4) 0.4607(8)
H52_3 H 0.9300 0.0876 0.5068
Cd6_2 Cd 0.72967(4) 0.09172(2) 0.35213(4)
O3_4 O 0.7086(4) 0.1442(2) 0.4404(5)
O4_4 O 0.8268(4) 0.10723(17) 0.5611(4)
C6_4 C 0.8655(6) 0.3553(2) 0.9923(7)
H9_4 H 0.8798 0.3456 0.9493
C7_4 C 0.8506(6) 0.3980(2) 0.9913(8)
H10_4 H 0.8565 0.4165 0.9496
C12_4 C 0.8690(4) 0.2200(2) 0.9609(6)
C13_4 C 0.8542(4) 0.2624(2) 0.9587(6)
H13_4 H 0.8287 0.2778 0.8883
C14_4 C 0.8477(5) 0.1989(2) 0.8548(6)
C15_4 C 0.8979(5) 0.1662(2) 0.8704(6)
H14_4 H 0.9466 0.1578 0.9488
C16_4 C 0.8762(5) 0.1464(2) 0.7717(7)
H15_4 H 0.9109 0.1250 0.7841
C17_4 C 0.8024(5) 0.1576(2) 0.6516(6)
C18_4 C 0.7535(5) 0.1906(3) 0.6360(7)
H16_4 H 0.7051 0.1991 0.5574
C19_4 C 0.7757(5) 0.2109(2) 0.7357(6)
H17_4 H 0.7422 0.2330 0.7232
C20_4 C 0.7772(6) 0.1348(2) 0.5441(7)
N9_2 N 0.6328(5) 0.0474(2) 0.3241(6)
O18_2 O 0.7618(4) 0.1473(2) 0.2763(5)
O19_2 O 0.6395(4) 0.11446(18) 0.1525(5)
C44_4 C 0.6720(5) 0.1606(2) 0.0631(7)
C45_4 C 0.7240(5) 0.1912(2) 0.0806(7)
H31_4 H 0.7720 0.1995 0.1596
C47_4 C 0.6931(5) 0.1409(2) 0.1716(7)
N2_3 N 0.9543(4) 0.0497(2) 0.7226(6)
H1_3 H 0.9109 0.0661 0.6766
N4_4 N 0.5029(6) 0.0243(4) 0.2183(8)
H2_3 H 0.4478 0.0241 0.1694
C57_3 C 0.9529(5) 0.0075(2) 0.7107(7)
C63_3 C 0.7949(5) 0.0035(2) 0.5348(7)
H42_3 H 0.7913 0.0314 0.5478
C64_4 C 0.6379(5) 0.0053(3) 0.3512(7)
C66_4 C 0.5509(6) 0.0563(4) 0.2441(9)
H44_4 H 0.5291 0.0826 0.2094
H2_4 H 0.9478 0.5241 0.1694
H4_4 H 0.5147 0.4653 0.0237
H52_4 H 0.4300 0.4124 0.0068
C58_3 C 0.8743(5) 0.0158(3) 0.1125(7)
C59_3 C 0.8788(7) 0.0575(3) 0.0954(11)
H39_3 H 0.9317 0.0710 0.1454
C60_3 C 0.8029(8) 0.0796(3) 0.0018(11)
H40_3 H 0.8051 0.1081 0.9938
C61_3 C 0.7257(7) 0.0591(3) 0.9226(10)
H41_3 H 0.6766 0.0734 0.8577
C62_3 C 0.7205(5) 0.0173(3) 0.9384(7)
C65_3 C 0.5566(7) 0.0092(5) 0.7837(10)
H43_3 H 0.5404 0.0363 0.7821
N2_4 N 0.9543(4) 0.9503(2) 0.2226(6)
H1_4 H 0.9109 0.9339 0.1766
C57_4 C 0.9529(5) 0.9925(2) 0.2107(7)
C63_4 C 0.7949(5) 0.9965(2) 0.0348(7)
H42_4 H 0.7913 0.9686 0.0478
N6_4 N 0.0068(4) 0.5606(2) 0.9899(6)
C69_4 C 0.0106(5) 0.5185(3) 0.9838(7)
H47_4 H 0.0408 0.4394 0.9901
C56_4 C 0.0369(5) 0.9955(3) 0.8043(7)
H38_4 H 0.0568 0.9682 0.8200
C58_4 C 0.8743(5) 0.9842(3) 0.6125(7)
C59_4 C 0.8788(7) 0.9425(3) 0.5954(11)
H39_4 H 0.9317 0.9290 0.6454
C60_4 C 0.8029(8) 0.9204(3) 0.5018(11)
H40_4 H 0.8051 0.8919 0.4938
C61_4 C 0.7257(7) 0.9409(3) 0.4226(10)
H41_4 H 0.6766 0.9266 0.3577
C62_4 C 0.7205(5) 0.9827(3) 0.4384(7)
C65_4 C 0.5566(7) 0.9908(5) 0.2837(10)
H43_4 H 0.5404 0.9637 0.2821
loop_
_geom_bond_atom_site_label_1
_geom_bond_atom_site_label_2
_geom_bond_site_symmetry_1
_geom_bond_site_symmetry_2
O9 C47 1_555 1_555
O10 C47 1_555 1_555
C28 O7 1_555 1_555
C29 C28 1_555 1_555
C30 C29 1_555 1_555
H22 C30 1_555 1_555
C31 C30 1_555 1_555
H23 C31 1_555 1_555
C32 C31 1_555 1_555
C33 C32 1_555 1_555
H24 C33 1_555 1_555
C34 C29 1_555 1_555
H25 C34 1_555 1_555
C35 C32 1_555 1_555
C36 C35 1_555 1_555
C37 C36 1_555 1_555
C38 C37 1_555 1_555
H27 C38 1_555 1_555
C39 C38 1_555 1_555
C40 C35 1_555 1_555
H28 C40 1_555 1_555
C41 C39 1_555 1_555
C42 C41 1_555 1_555
H29 C42 1_555 1_555
C43 C42 1_555 1_555
H30 C43 1_555 1_555
C44 C43 1_555 1_555
C45 C44 1_555 1_555
H31 C45 1_555 1_555
C46 C41 1_555 1_555
H32 C46 1_555 1_555
C47 C44 1_555 1_555
C71 C70 1_555 1_555
H47 C71 1_555 1_555
C72 C71 1_555 1_555
H48 C72 1_555 1_555
C73 C72 1_555 1_555
H49 C73 1_555 1_555
C74 C73 1_555 1_555
Cd5 O8 1_555 1_555
Cd8 O9 1_555 1_555
O8 C28 1_555 1_555
O10 Cd8 1_555 1_555
C33 C34 1_555 1_555
C39 C40 1_555 1_555
C45 C46 1_555 1_555
Cd3 N5 1_555 1_555
N5 C67 1_555 1_555
N6 H3 1_555 1_555
N7 C76 1_555 1_555
O5 Cd3 1_555 1_555
O6 Cd3 1_555 1_555
C27 O5 1_555 1_555
C67 N6 1_555 1_555
H45 C67 1_555 1_555
C68 N5 1_555 1_555
C69 N6 1_555 1_555
H50 C75 1_555 1_555
C77 N8 1_555 1_555
C78 N7 1_555 1_555
Cd6 N7 1_555 1_555
O16 Cd3 1_555 1_555
O20 Cd3 1_555 1_555
N8 C78 1_555 1_555
O6 C27 1_555 1_555
C68 C69 1_555 1_555
C76 C77 1_555 1_555
Cd1 N1 1_555 1_555
N1 C55 1_555 1_555
N2 H1 1_555 1_555
O11 C54 1_555 1_555
O12 Cd1 1_555 1_555
O13 Cd1 1_555 1_555
H5 O13 1_555 1_555
H6 O13 1_555 1_555
H34 C50 1_555 1_555
C51 C50 1_555 1_555
C52 C51 1_555 1_555
H35 C52 1_555 1_555
C53 C48 1_555 1_555
H36 C53 1_555 1_555
C54 O12 1_555 1_555
C55 N2 1_555 1_555
H37 C55 1_555 1_555
C56 N1 1_555 1_555
H38 C56 1_555 1_555
C57 N2 1_555 1_555
C58 C57 1_555 1_555
C59 C58 1_555 1_555
H39 C59 1_555 1_555
C60 C59 1_555 1_555
C63 C58 1_555 1_555
H42 C63 1_555 1_555
Cd9 O13 1_555 1_555
O14 Cd1 1_555 1_555
O15 Cd1 1_555 1_555
O17 Cd1 1_555 1_555
C51 C54 1_555 1_555
C52 C53 1_555 1_555
C56 C57 1_555 1_555
N3 C64 1_555 1_555
H41 C61 1_555 1_555
C62 C61 1_555 1_555
C64 C62 1_555 1_555
C65 N4 1_555 1_555
H43 C65 1_555 1_555
C66 N3 1_555 1_555
H44 C66 1_555 1_555
Cd8 N3 1_555 1_555
N4 C66 1_555 1_555
C64 C65 1_555 1_555
O14 C1 1_555 1_555
O15 C1 1_555 1_555
C1 C2 1_555 1_555
C2 C3 1_555 1_555
C3 H7 1_555 1_555
C4 C3 1_555 1_555
H8 C4 1_555 1_555
C5 C4 1_555 1_555
C6 C5 1_555 1_555
H9 C6 1_555 1_555
C7 C2 1_555 1_555
H10 C7 1_555 1_555
C8 C5 1_555 1_555
C9 C8 1_555 1_555
H11 C9 1_555 1_555
C10 C9 1_555 1_555
C11 C10 1_555 1_555
H12 C11 1_555 1_555
C12 C11 1_555 1_555
C13 C8 1_555 1_555
H13 C13 1_555 1_555
C14 C12 1_555 1_555
C15 C14 1_555 1_555
H14 C15 1_555 1_555
C16 C15 1_555 1_555
H15 C16 1_555 1_555
C17 C16 1_555 1_555
C18 C17 1_555 1_555
H16 C18 1_555 1_555
C19 C14 1_555 1_555
H17 C19 1_555 1_555
C20 O4 1_555 1_555
C21 C10 1_555 1_555
C22 C21 1_555 1_555
H18 C22 1_555 1_555
Cd10 O15 1_555 1_555
C6 C7 1_555 1_555
C12 C13 1_555 1_555
C17 C20 1_555 1_555
C18 C19 1_555 1_555
Cd6 O3 1_555 1_555
N9 Cd6 1_555 1_555
O18 Cd6 1_555 1_555
O19 Cd6 1_555 1_555
Cd3_2 N5_2 1_555 1_555
N5_2 C67_2 1_555 1_555
O5_2 Cd3_2 1_555 1_555
O6_2 Cd3_2 1_555 1_555
C24 C23 1_555 1_555
C25 C24 1_555 1_555
H20_2 C25 1_555 1_555
H21 C26 1_555 1_555
C27_2 O5_2 1_555 1_555
C67_2 N6_2 1_555 1_555
H45_2 C67_2 1_555 1_555
C68_2 N5_2 1_555 1_555
C69_2 N6_2 1_555 1_555
O16_2 Cd3_2 1_555 1_555
O20_2 Cd3_2 1_555 1_555
O6_2 C27_2 1_555 1_555
C24 C27_2 1_555 1_555
C25 C26 1_555 1_555
C68_2 C69_2 1_555 1_555
O9_2 C47_2 1_555 1_555
O10_2 C47_2 1_555 1_555
C45_2 C44_2 1_555 1_555
H31_2 C45_2 1_555 1_555
C47_2 C44_2 1_555 1_555
C71_2 C70_2 1_555 1_555
C72_2 C71_2 1_555 1_555
H48_2 C72_2 1_555 1_555
C73_2 C72_2 1_555 1_555
H49_2 C73_2 1_555 1_555
C74_2 C73_2 1_555 1_555
Cd8_2 O9_2 1_555 1_555
O10_2 Cd8_2 1_555 1_555
C28_2 O7_2 1_555 1_555
C29_2 C28_2 1_555 1_555
C30_2 C29_2 1_555 1_555
H22_2 C30_2 1_555 1_555
C31_2 C30_2 1_555 1_555
H23_2 C31_2 1_555 1_555
C32_2 C31_2 1_555 1_555
C33_2 C32_2 1_555 1_555
H24_2 C33_2 1_555 1_555
C34_2 C29_2 1_555 1_555
H25_2 C34_2 1_555 1_555
C35_2 C32_2 1_555 1_555
C36_2 C35_2 1_555 1_555
H26 C36_2 1_555 1_555
C37_2 C36_2 1_555 1_555
C38_2 C37_2 1_555 1_555
H27_2 C38_2 1_555 1_555
C39_2 C38_2 1_555 1_555
C40_2 C35_2 1_555 1_555
H28_2 C40_2 1_555 1_555
C41_2 C39_2 1_555 1_555
C42_2 C41_2 1_555 1_555
H29_2 C42_2 1_555 1_555
C43_2 C42_2 1_555 1_555
H30_2 C43_2 1_555 1_555
C46_2 C41_2 1_555 1_555
H32_2 C46_2 1_555 1_555
H33_2 C49 1_555 1_555
Cd5_2 O8_2 1_555 1_555
O8_2 C28_2 1_555 1_555
C33_2 C34_2 1_555 1_555
C39_2 C40_2 1_555 1_555
O1 C1_2 1_555 1_555
O2 C1_2 1_555 1_555
C1_2 C2_2 1_555 1_555
C2_2 C3_2 1_555 1_555
C3_2 H7_2 1_555 1_555
C4_2 C3_2 1_555 1_555
H8_2 C4_2 1_555 1_555
C5_2 C4_2 1_555 1_555
C8_2 C5_2 1_555 1_555
C9_2 C8_2 1_555 1_555
H11_2 C9_2 1_555 1_555
C10_2 C9_2 1_555 1_555
C11_2 C10_2 1_555 1_555
H12_2 C11_2 1_555 1_555
C21_2 C10_2 1_555 1_555
C22_2 C21_2 1_555 1_555
H18_2 C22_2 1_555 1_555
Cd4 O1 1_555 1_555
Cd9 O2 1_555 1_555
O2 Cd4 1_555 1_555
O12_2 Cd4 1_555 1_555
H34_2 C50_2 1_555 1_555
C51_2 C50_2 1_555 1_555
C52_2 C51_2 1_555 1_555
H35_2 C52_2 1_555 1_555
C53_2 C48_2 1_555 1_555
H36_2 C53_2 1_555 1_555
C54_2 O12_2 1_555 1_555
O17_2 Cd4 1_555 1_555
C51_2 C54_2 1_555 1_555
C52_2 C53_2 1_555 1_555
N1_2 C55_2 1_555 1_555
N2_2 H1_2 1_555 1_555
N3_2 C64_2 1_555 1_555
H5_2 O13_2 1_555 1_555
H6_2 O13_2 1_555 1_555
C55_2 N2_2 1_555 1_555
H37_2 C55_2 1_555 1_555
C56_2 N1_2 1_555 1_555
H38_2 C56_2 1_555 1_555
C57_2 N2_2 1_555 1_555
C58_2 C57_2 1_555 1_555
C59_2 C58_2 1_555 1_555
H39_2 C59_2 1_555 1_555
C60_2 C59_2 1_555 1_555
H40_2 C60_2 1_555 1_555
C61_2 C60_2 1_555 1_555
H41_2 C61_2 1_555 1_555
C62_2 C61_2 1_555 1_555
C63_2 C58_2 1_555 1_555
H42_2 C63_2 1_555 1_555
C64_2 C62_2 1_555 1_555
C65_2 N4_2 1_555 1_555
H43_2 C65_2 1_555 1_555
C66_2 N3_2 1_555 1_555
H44_2 C66_2 1_555 1_555
Cd8_2 N3_2 1_555 1_555
Cd10 O13_2 1_555 1_555
N4_2 C66_2 1_555 1_555
C56_2 C57_2 1_555 1_555
C62_2 C63_2 1_555 1_555
C64_2 C65_2 1_555 1_555
N6_3 H3_2 1_555 1_555
N7_2 C76_2 1_555 1_555
C69_3 N6_3 1_555 1_555
C70_3 C69_3 1_555 1_555
C71_3 C70_3 1_555 1_555
H47_3 C71_3 1_555 1_555
C72_3 C71_3 1_555 1_555
H48_3 C72_3 1_555 1_555
C73_3 C72_3 1_555 1_555
H49_3 C73_3 1_555 1_555
C74_3 C73_3 1_555 1_555
C75_2 C70_3 1_555 1_555
H50_2 C75_2 1_555 1_555
C76_2 C74_3 1_555 1_555
C77_2 N8_2 1_555 1_555
H51_3 C77_2 1_555 1_555
C78_2 N7_2 1_555 1_555
Cd8 N7_2 1_555 1_555
N8_2 C78_2 1_555 1_555
C74_3 C75_2 1_555 1_555
C76_2 C77_2 1_555 1_555
H38_3 C56_3 1_555 1_555
Cd9 N5_3 1_555 1_555
N5_3 C67_3 1_555 1_555
O5_3 Cd9 1_555 1_555
O6_3 Cd9 1_555 1_555
O7_3 Cd9 1_555 1_555
O17_2 Cd9 1_555 1_555
O18 C47_3 1_555 1_555
O19 C47_3 1_555 1_555
C27_3 O5_3 1_555 1_555
C28_3 O7_3 1_555 1_555
C29_3 C28_3 1_555 1_555
C30_3 C29_3 1_555 1_555
H22_3 C30_3 1_555 1_555
C31_3 C30_3 1_555 1_555
H23_3 C31_3 1_555 1_555
C32_3 C31_3 1_555 1_555
C33_3 C32_3 1_555 1_555
H24_3 C33_3 1_555 1_555
C34_3 C29_3 1_555 1_555
H25_3 C34_3 1_555 1_555
C35_3 C32_3 1_555 1_555
C36_3 C35_3 1_555 1_555
C37_3 C36_3 1_555 1_555
C38_3 C37_3 1_555 1_555
H27_3 C38_3 1_555 1_555
C39_3 C38_3 1_555 1_555
C40_3 C35_3 1_555 1_555
H28_3 C40_3 1_555 1_555
C41_3 C39_3 1_555 1_555
C42_3 C41_3 1_555 1_555
H29_3 C42_3 1_555 1_555
C43_3 C42_3 1_555 1_555
H30_3 C43_3 1_555 1_555
C44_3 C43_3 1_555 1_555
C45_3 C44_3 1_555 1_555
H31_3 C45_3 1_555 1_555
C46_3 C41_3 1_555 1_555
H32_3 C46_3 1_555 1_555
C47_3 C44_3 1_555 1_555
H45_3 C67_3 1_555 1_555
C68_3 N5_3 1_555 1_555
H46_3 C68_3 1_555 1_555
O6_3 C27_3 1_555 1_555
O17_2 C28_3 1_555 1_555
C33_3 C34_3 1_555 1_555
C39_3 C40_3 1_555 1_555
C45_3 C46_3 1_555 1_555
Cd5_2 N1_3 1_555 1_555
N1_3 C55_3 1_555 1_555
O14_2 C1_3 1_555 1_555
O16_2 C1_3 1_555 1_555
O11_3 C54_3 1_555 1_555
O12_3 Cd5_2 1_555 1_555
O20 Cd5_2 1_555 1_555
H5_3 O20 1_555 1_555
H6_3 O20 1_555 1_555
C1_3 C2_3 1_555 1_555
C2_3 C3_3 1_555 1_555
C3_3 H7_3 1_555 1_555
C4_3 C3_3 1_555 1_555
H8_3 C4_3 1_555 1_555
C5_3 C4_3 1_555 1_555
C6_2 C5_3 1_555 1_555
H9_2 C6_2 1_555 1_555
C7_2 C2_3 1_555 1_555
H10_2 C7_2 1_555 1_555
C8_3 C5_3 1_555 1_555
C9_3 C8_3 1_555 1_555
H11_3 C9_3 1_555 1_555
C10_3 C9_3 1_555 1_555
C11_3 C10_3 1_555 1_555
H12_3 C11_3 1_555 1_555
C12_2 C11_3 1_555 1_555
C13_2 C8_3 1_555 1_555
H13_2 C13_2 1_555 1_555
C14_2 C12_2 1_555 1_555
C15_2 C14_2 1_555 1_555
H14_2 C15_2 1_555 1_555
C16_2 C15_2 1_555 1_555
H15_2 C16_2 1_555 1_555
C17_2 C16_2 1_555 1_555
C18_2 C17_2 1_555 1_555
H16_2 C18_2 1_555 1_555
C19_2 C14_2 1_555 1_555
H17_2 C19_2 1_555 1_555
C20_2 O4_2 1_555 1_555
C21_3 C10_3 1_555 1_555
C22_3 C21_3 1_555 1_555
H18_3 C22_3 1_555 1_555
C23_2 C22_3 1_555 1_555
H19_3 C23_2 1_555 1_555
C24_2 C23_2 1_555 1_555
C25_2 C24_2 1_555 1_555
C26_2 C21_3 1_555 1_555
H21_2 C26_2 1_555 1_555
C49_2 C48_3 1_555 1_555
C50_3 C49_2 1_555 1_555
H34_3 C50_3 1_555 1_555
C51_3 C50_3 1_555 1_555
C52_3 C51_3 1_555 1_555
H35_3 C52_3 1_555 1_555
C53_3 C48_3 1_555 1_555
H36_3 C53_3 1_555 1_555
C54_3 O12_3 1_555 1_555
H37_3 C55_3 1_555 1_555
C6_2 C7_2 1_555 1_555
C12_2 C13_2 1_555 1_555
C17_2 C20_2 1_555 1_555
C18_2 C19_2 1_555 1_555
C25_2 C26_2 1_555 1_555
C51_3 C54_3 1_555 1_555
C52_3 C53_3 1_555 1_555
Cd8 O3_2 1_555 1_555
N9 C64_3 1_555 1_555
N4_3 H2 1_555 1_555
C66_3 N9 1_555 1_555
H44_3 C66_3 1_555 1_555
N4_3 C66_3 1_555 1_555
N7_3 C76_3 1_555 1_555
N8_3 H4_2 1_555 1_555
C71_4 C70_4 1_555 1_555
C72_4 C71_4 1_555 1_555
H48_4 C72_4 1_555 1_555
C73_4 C72_4 1_555 1_555
H49_4 C73_4 1_555 1_555
C74_4 C73_4 1_555 1_555
C75_3 C70_4 1_555 1_555
H50_3 C75_3 1_555 1_555
C76_3 C74_4 1_555 1_555
C77_3 N8_3 1_555 1_555
H51_4 C77_3 1_555 1_555
C78_3 N7_3 1_555 1_555
H52 C78_3 1_555 1_555
Cd8_2 N7_3 1_555 1_555
N8_3 C78_3 1_555 1_555
C74_4 C75_3 1_555 1_555
C76_3 C77_3 1_555 1_555
Cd10 N5_4 1_555 1_555
N5_4 C67_4 1_555 1_555
O1_2 C1_4 1_555 1_555
O16 C1_4 1_555 1_555
O5_4 Cd10 1_555 1_555
O6_4 Cd10 1_555 1_555
O7_4 Cd10 1_555 1_555
O17 Cd10 1_555 1_555
O12_4 Cd5 1_555 1_555
C1_4 C2_4 1_555 1_555
C2_4 C3_4 1_555 1_555
C3_4 H7_4 1_555 1_555
C4_4 C3_4 1_555 1_555
H8_4 C4_4 1_555 1_555
C5_4 C4_4 1_555 1_555
C8_4 C5_4 1_555 1_555
C9_4 C8_4 1_555 1_555
H11_4 C9_4 1_555 1_555
C10_4 C9_4 1_555 1_555
C11_4 C10_4 1_555 1_555
H12_4 C11_4 1_555 1_555
C21_4 C10_4 1_555 1_555
C22_4 C21_4 1_555 1_555
H18_4 C22_4 1_555 1_555
C23_3 C22_4 1_555 1_555
H19_4 C23_3 1_555 1_555
C24_3 C23_3 1_555 1_555
C25_3 C24_3 1_555 1_555
H20_4 C25_3 1_555 1_555
C26_3 C21_4 1_555 1_555
H21_3 C26_3 1_555 1_555
C27_4 O5_4 1_555 1_555
C28_4 O7_4 1_555 1_555
C29_4 C28_4 1_555 1_555
C30_4 C29_4 1_555 1_555
H22_4 C30_4 1_555 1_555
C31_4 C30_4 1_555 1_555
H23_4 C31_4 1_555 1_555
C32_4 C31_4 1_555 1_555
C33_4 C32_4 1_555 1_555
H24_4 C33_4 1_555 1_555
C34_4 C29_4 1_555 1_555
H25_4 C34_4 1_555 1_555
C35_4 C32_4 1_555 1_555
C36_4 C35_4 1_555 1_555
H26_3 C36_4 1_555 1_555
C37_4 C36_4 1_555 1_555
C38_4 C37_4 1_555 1_555
H27_4 C38_4 1_555 1_555
C39_4 C38_4 1_555 1_555
C40_4 C35_4 1_555 1_555
H28_4 C40_4 1_555 1_555
C41_4 C39_4 1_555 1_555
C42_4 C41_4 1_555 1_555
H29_4 C42_4 1_555 1_555
C43_4 C42_4 1_555 1_555
H30_4 C43_4 1_555 1_555
C46_4 C41_4 1_555 1_555
H32_4 C46_4 1_555 1_555
C48_4 C37_4 1_555 1_555
C49_3 C48_4 1_555 1_555
H33_4 C49_3 1_555 1_555
C50_4 C49_3 1_555 1_555
H34_4 C50_4 1_555 1_555
C51_4 C50_4 1_555 1_555
C52_4 C51_4 1_555 1_555
H35_4 C52_4 1_555 1_555
C53_4 C48_4 1_555 1_555
H36_4 C53_4 1_555 1_555
C54_4 O12_4 1_555 1_555
H45_4 C67_4 1_555 1_555
C68_4 N5_4 1_555 1_555
H46_4 C68_4 1_555 1_555
O6_4 C27_4 1_555 1_555
O17 C28_4 1_555 1_555
C24_3 C27_4 1_555 1_555
C25_3 C26_3 1_555 1_555
C33_4 C34_4 1_555 1_555
C39_4 C40_4 1_555 1_555
C51_4 C54_4 1_555 1_555
C52_4 C53_4 1_555 1_555
Cd8_2 O3_3 1_555 1_555
N1_4 C55_4 1_555 1_555
O3_3 C20_3 1_555 1_555
O4_3 Cd8_2 1_555 1_555
H5_4 O20_2 1_555 1_555
H6_4 O20_2 1_555 1_555
H9_3 C6_3 1_555 1_555
H10_3 C7_3 1_555 1_555
H13_3 C13_3 1_555 1_555
C14_3 C12_3 1_555 1_555
C15_3 C14_3 1_555 1_555
H14_3 C15_3 1_555 1_555
C16_3 C15_3 1_555 1_555
H15_3 C16_3 1_555 1_555
C17_3 C16_3 1_555 1_555
C18_3 C17_3 1_555 1_555
H16_3 C18_3 1_555 1_555
C19_3 C14_3 1_555 1_555
H17_3 C19_3 1_555 1_555
C20_3 O4_3 1_555 1_555
H37_4 C55_4 1_555 1_555
C6_3 C7_3 1_555 1_555
C12_3 C13_3 1_555 1_555
C17_3 C20_3 1_555 1_555
C18_3 C19_3 1_555 1_555
C24_4 C23_4 1_555 1_555
C25_4 C24_4 1_555 1_555
H21_4 C26_4 1_555 1_555
C25_4 C26_4 1_555 1_555
N7_4 C76_4 1_555 1_555
H50_4 C75_4 1_555 1_555
C77_4 N8_4 1_555 1_555
C78_4 N7_4 1_555 1_555
H52_3 C78_4 1_555 1_555
Cd6_2 N7_4 1_555 1_555
N8_4 C78_4 1_555 1_555
C76_4 C77_4 1_555 1_555
Cd6_2 O3_4 1_555 1_555
O3_4 C20_4 1_555 1_555
O4_4 Cd6_2 1_555 1_555
H9_4 C6_4 1_555 1_555
H10_4 C7_4 1_555 1_555
H13_4 C13_4 1_555 1_555
C14_4 C12_4 1_555 1_555
C15_4 C14_4 1_555 1_555
H14_4 C15_4 1_555 1_555
C16_4 C15_4 1_555 1_555
H15_4 C16_4 1_555 1_555
C17_4 C16_4 1_555 1_555
C18_4 C17_4 1_555 1_555
H16_4 C18_4 1_555 1_555
C19_4 C14_4 1_555 1_555
H17_4 C19_4 1_555 1_555
C20_4 O4_4 1_555 1_555
N9_2 Cd6_2 1_555 1_555
O18_2 Cd6_2 1_555 1_555
O19_2 Cd6_2 1_555 1_555
C6_4 C7_4 1_555 1_555
C12_4 C13_4 1_555 1_555
C17_4 C20_4 1_555 1_555
C18_4 C19_4 1_555 1_555
O18_2 C47_4 1_555 1_555
O19_2 C47_4 1_555 1_555
C45_4 C44_4 1_555 1_555
H31_4 C45_4 1_555 1_555
C47_4 C44_4 1_555 1_555
N2_3 H1_3 1_555 1_555
N9_2 C64_4 1_555 1_555
N4_4 H2_3 1_555 1_555
C57_3 N2_3 1_555 1_555
H42_3 C63_3 1_555 1_555
C66_4 N9_2 1_555 1_555
H44_4 C66_4 1_555 1_555
N4_4 C66_4 1_555 1_555
C59_3 C58_3 1_555 1_555
H39_3 C59_3 1_555 1_555
C60_3 C59_3 1_555 1_555
H41_3 C61_3 1_555 1_555
C62_3 C61_3 1_555 1_555
H43_3 C65_3 1_555 1_555
N2_4 H1_4 1_555 1_555
C57_4 N2_4 1_555 1_555
H42_4 C63_4 1_555 1_555
C69_4 N6_4 1_555 1_555
H38_4 C56_4 1_555 1_555
C59_4 C58_4 1_555 1_555
H39_4 C59_4 1_555 1_555
C60_4 C59_4 1_555 1_555
H40_4 C60_4 1_555 1_555
C61_4 C60_4 1_555 1_555
H41_4 C61_4 1_555 1_555
C62_4 C61_4 1_555 1_555
H43_4 C65_4 1_555 1_555

#END
