
###############################################################################
#
# This file contains modified crystal structure data generated from the
# MOF subset of the Cambridge Structural Database (CSD) v543 
# hosted by the Cambridge Crystallographic Data Centre (CCDC).
#
# This work is licensed under the Creative Commons
# Attribution-NonCommercial-ShareAlike 4.0 International License.
# To view a copy of this license, visit
# http://creativecommons.org/licenses/by-nc-sa/4.0/
# or send a letter to
# Creative Commons, PO Box 1866, Mountain View, CA 94042, USA.
#
# CIF created using the CSD Python API on 29 September 2022
# The structure has been converted into the P1 space group
# The structure has a 3D framework
# The original CSD entry VAQTUF is in the tetragonal crystal system
# The framework has been calculated to contain at least 10.0% void space
# The void calculation uses a probe of radius 1.32A, grid spacing 0.4
# H atom positions have been added when not included in the experimental data
#
###############################################################################

data_VAQTUF
_chemical_formula_moiety         '(C384 H208 Al12 N48 O104)n'
_symmetry_cell_setting           triclinic
_symmetry_space_group_name_H-M   'P 1'
_symmetry_Int_Tables_number      1
_space_group_name_Hall           'P 1'
loop_
_symmetry_equiv_pos_site_id
_symmetry_equiv_pos_as_xyz
1 x,y,z
_cell_length_a                   36.43783(99)
_cell_length_b                   36.43783(99)
_cell_length_c                   10.93731(91)
_cell_angle_alpha                90
_cell_angle_beta                 90
_cell_angle_gamma                90
_cell_volume                     14521.6
loop_
_atom_site_label
_atom_site_type_symbol
_atom_site_fract_x
_atom_site_fract_y
_atom_site_fract_z
_atom_site_U_iso_or_equiv
_atom_site_thermal_displace_type
N1 N 0.785914 0.502327 0.480891 0.0389 Uiso
N2 N 0.801383 0.468345 0.302225 0.0389 Uiso
N3 N 0.801849 0.533674 0.297396 0.0389 Uiso
C1 C 0.791381 0.534552 0.418116 0.0389 Uiso
C2 C 0.790915 0.469223 0.422945 0.0389 Uiso
C3 C 0.806850 0.500570 0.239451 0.0389 Uiso
C4 C 0.786326 0.568010 0.47668 0.0389 Uiso
C5 C 0.789460 0.600109 0.412108 0.0389 Uiso
C6 C 0.784472 0.633125 0.4699 0.0389 Uiso
C7 C 0.776350 0.634042 0.592265 0.0389 Uiso
C8 C 0.773215 0.601943 0.656838 0.0389 Uiso
C9 C 0.778203 0.568927 0.599045 0.0389 Uiso
C10 C 0.770893 0.670163 0.655491 0.0389 Uiso
C11 C 0.785389 0.436654 0.486391 0.0389 Uiso
C12 C 0.783268 0.436953 0.611546 0.0389 Uiso
C13 C 0.777815 0.404814 0.674155 0.0389 Uiso
C14 C 0.774484 0.372374 0.611609 0.0389 Uiso
C15 C 0.776605 0.372075 0.486453 0.0389 Uiso
C16 C 0.782058 0.404215 0.423844 0.0389 Uiso
C17 C 0.768519 0.337213 0.680104 0.0389 Uiso
C18 C 0.817430 0.499682 0.117441 0.0389 Uiso
C19 C 0.826235 0.466905 0.063302 0.0389 Uiso
C23 C 0.819067 0.531582 0.051178 0.0389 Uiso
O1 O 0.745259 0.673755 0.736419 0.0633 Uiso
O2 O 0.791821 0.697717 0.629083 0.0633 Uiso
O3 O 0.783114 0.307072 0.640879 0.0633 Uiso
O4 O 0.748779 0.337033 0.778393 0.0633 Uiso
Al1 Al 0.75331(32) 0.70776(22) 0.8641(13) 0.0253 Uiso
O7 O 0.75872(63) 0.74478(90) 0.7392(31) 0.0633 Uiso
O8 O 0.697717 0.708179 0.879083 0.0633 Uiso
O9 O 0.807072 0.716886 0.859121 0.0633 Uiso
O10 O 0.751221 0.662967 0.971607 0.0633 Uiso
Al2 Al 0.79224(22) 0.25331(32) 0.6359(13) 0.0253 Uiso
Al3 Al 0.74669(32) 0.29224(22) 0.8859(13) 0.0253 Uiso
Al4 Al 0.79224(22) 0.75331(32) 0.6141(13) 0.0253 Uiso
O11 O 0.74478(90) 0.74128(63) 0.9892(31) 0.0633 Uiso
H1 H 0.786961 0.65862 0.418612 . .
H2 H 0.795911 0.599381 0.314918 . .
H3 H 0.775713 0.543432 0.650332 . .
H4 H 0.766763 0.602671 0.754028 . .
H5 H 0.783743 0.403977 0.324438 . .
H6 H 0.785915 0.462718 0.661224 . .
H7 H 0.776129 0.405052 0.773561 . .
H8 H 0.773959 0.34631 0.436774 . .
H9 H 0.824936 0.441568 0.115932 . .
H10 H 0.812075 0.557615 0.0941781 . .
N2_2 N 0.198617 0.031655 0.947775 0.0389 Uiso
C2_2 C 0.209085 0.030777 0.827055 0.0389 Uiso
C11_2 C 0.214611 0.063346 0.763609 0.0389 Uiso
C12_2 C 0.216732 0.063047 0.638454 0.0389 Uiso
C13_2 C 0.222185 0.095186 0.575845 0.0389 Uiso
C14_2 C 0.225516 0.127626 0.638391 0.0389 Uiso
C15_2 C 0.223395 0.127925 0.763547 0.0389 Uiso
C16_2 C 0.217942 0.095785 0.826156 0.0389 Uiso
C17_2 C 0.231481 0.162787 0.569896 0.0389 Uiso
O3_2 O 0.216886 0.192928 0.609121 0.0633 Uiso
O4_2 O 0.251221 0.162967 0.471607 0.0633 Uiso
Al2_2 Al 0.20776(22) 0.24669(32) 0.6141(13) 0.0253 Uiso
Al3_2 Al 0.25331(32) 0.20776(22) 0.3641(13) 0.0253 Uiso
H5_2 H 0.216257 0.0960228 0.925562 . .
H6_2 H 0.214085 0.0372818 0.588776 . .
H7_2 H 0.223871 0.0949477 0.476439 . .
H8_2 H 0.226041 0.15369 0.813226 . .
N1_2 N 0.214086 0.997673 0.769109 0.0389 Uiso
N3_2 N 0.198151 0.966326 0.952604 0.0389 Uiso
C1_2 C 0.208619 0.965448 0.831884 0.0389 Uiso
C4_2 C 0.213674 0.931990 0.77332 0.0389 Uiso
C5_2 C 0.210540 0.899891 0.837892 0.0389 Uiso
C6_2 C 0.215528 0.866875 0.7801 0.0389 Uiso
C7_2 C 0.223650 0.865958 0.657735 0.0389 Uiso
C8_2 C 0.226785 0.898057 0.593162 0.0389 Uiso
C9_2 C 0.221797 0.931073 0.650955 0.0389 Uiso
C10_2 C 0.229107 0.829837 0.594509 0.0389 Uiso
O1_2 O 0.254741 0.826245 0.513581 0.0633 Uiso
O2_2 O 0.208179 0.802283 0.620917 0.0633 Uiso
Al1_2 Al 0.24669(32) 0.79224(22) 0.3859(13) 0.0253 Uiso
O7_2 O 0.24128(63) 0.75522(90) 0.5108(31) 0.0633 Uiso
O8_2 O 0.302283 0.791821 0.370917 0.0633 Uiso
O9_2 O 0.192928 0.783114 0.390879 0.0633 Uiso
O10_2 O 0.248779 0.837033 0.278393 0.0633 Uiso
Al4_2 Al 0.20776(22) 0.74669(32) 0.6359(13) 0.0253 Uiso
O11_2 O 0.25522(90) 0.75872(63) 0.2608(31) 0.0633 Uiso
H1_2 H 0.213039 0.84138 0.831388 . .
H2_2 H 0.204089 0.900619 0.935082 . .
H3_2 H 0.224287 0.956568 0.599668 . .
H4_2 H 0.233237 0.897329 0.495972 . .
C12_3 C 0.716732 0.063047 0.111546 0.0389 Uiso
C13_3 C 0.722185 0.095186 0.174155 0.0389 Uiso
C14_3 C 0.725516 0.127626 0.111609 0.0389 Uiso
C17_3 C 0.731481 0.162787 0.180104 0.0389 Uiso
O3_3 O 0.716886 0.192928 0.140879 0.0633 Uiso
O4_3 O 0.751221 0.162967 0.278393 0.0633 Uiso
Al2_3 Al 0.70776(22) 0.24669(32) 0.1359(13) 0.0253 Uiso
Al3_3 Al 0.75331(32) 0.20776(22) 0.3859(13) 0.0253 Uiso
H6_3 H 0.714085 0.0372818 0.161224 . .
H7_3 H 0.723871 0.0949477 0.273561 . .
C7_3 C 0.723650 0.865958 0.092265 0.0389 Uiso
C8_3 C 0.726785 0.898057 0.156838 0.0389 Uiso
C9_3 C 0.721797 0.931073 0.099045 0.0389 Uiso
C10_3 C 0.729107 0.829837 0.155491 0.0389 Uiso
O1_3 O 0.754741 0.826245 0.236419 0.0633 Uiso
O2_3 O 0.708179 0.802283 0.129083 0.0633 Uiso
Al1_3 Al 0.74669(32) 0.79224(22) 0.3641(13) 0.0253 Uiso
O7_3 O 0.74128(63) 0.75522(90) 0.2392(31) 0.0633 Uiso
O8_3 O 0.802283 0.791821 0.379083 0.0633 Uiso
O9_3 O 0.692928 0.783114 0.359121 0.0633 Uiso
O10_3 O 0.748779 0.837033 0.471607 0.0633 Uiso
Al4_3 Al 0.70776(22) 0.74669(32) 0.1141(13) 0.0253 Uiso
O11_3 O 0.75522(90) 0.75872(63) 0.4892(31) 0.0633 Uiso
H3_3 H 0.724287 0.956568 0.150332 . .
H4_3 H 0.733237 0.897329 0.254028 . .
O4_4 O 0.662967 0.248779 0.028393 0.0633 Uiso
Al1_4 Al 0.29224(22) 0.25331(32) 0.1141(13) 0.0253 Uiso
O8_4 O 0.291821 0.197717 0.129083 0.0633 Uiso
O9_4 O 0.283114 0.307072 0.109121 0.0633 Uiso
O10_4 O 0.337033 0.251221 0.221607 0.0633 Uiso
O11_4 O 0.25872(63) 0.24478(90) 0.2392(31) 0.0633 Uiso
H4_4 H 0.397329 0.266763 0.0040275 . .
H7_4 H 0.594948 0.276129 0.0235608 . .
N1_3 N 0.497673 0.285914 0.730891 0.0389 Uiso
N2_3 N 0.531655 0.301383 0.552225 0.0389 Uiso
N3_3 N 0.466326 0.301849 0.547396 0.0389 Uiso
C1_3 C 0.465448 0.291381 0.668116 0.0389 Uiso
C2_3 C 0.530777 0.290915 0.672945 0.0389 Uiso
C3_2 C 0.499430 0.306850 0.489451 0.0389 Uiso
C4_3 C 0.431990 0.286326 0.72668 0.0389 Uiso
C5_3 C 0.399891 0.289460 0.662108 0.0389 Uiso
C6_3 C 0.366875 0.284472 0.7199 0.0389 Uiso
C7_4 C 0.365958 0.276350 0.842265 0.0389 Uiso
C8_4 C 0.398057 0.273215 0.906838 0.0389 Uiso
C9_4 C 0.431073 0.278203 0.849045 0.0389 Uiso
C10_4 C 0.329837 0.270893 0.905491 0.0389 Uiso
C11_3 C 0.563346 0.285389 0.736391 0.0389 Uiso
C12_4 C 0.563047 0.283268 0.861546 0.0389 Uiso
C13_4 C 0.595186 0.277815 0.924155 0.0389 Uiso
C14_4 C 0.627626 0.274484 0.861609 0.0389 Uiso
C15_3 C 0.627925 0.276605 0.736453 0.0389 Uiso
C16_3 C 0.595785 0.282058 0.673844 0.0389 Uiso
C17_4 C 0.662787 0.268519 0.930104 0.0389 Uiso
C18_2 C 0.500318 0.317430 0.367441 0.0389 Uiso
C19_2 C 0.533095 0.326235 0.313302 0.0389 Uiso
C20 C 0.533971 0.336675 0.192901 0.0389 Uiso
C21 C 0.502071 0.338312 0.126638 0.0389 Uiso
C22 C 0.469295 0.329507 0.180777 0.0389 Uiso
C23_2 C 0.468418 0.319067 0.301178 0.0389 Uiso
O1_4 O 0.326245 0.245259 0.986419 0.0633 Uiso
O2_4 O 0.302283 0.291821 0.879083 0.0633 Uiso
O3_4 O 0.692928 0.283114 0.890879 0.0633 Uiso
O7_4 O 0.25522(90) 0.25872(63) 0.9892(31) 0.0633 Uiso
Al4_4 Al 0.24669(32) 0.29224(22) 0.8641(13) 0.0253 Uiso
H1_3 H 0.34138 0.286961 0.668612 . .
H2_3 H 0.400619 0.295911 0.564918 . .
H3_4 H 0.456568 0.275713 0.900332 . .
H5_3 H 0.596023 0.283743 0.574438 . .
H6_4 H 0.537282 0.285915 0.911224 . .
H8_3 H 0.65369 0.273959 0.686774 . .
H9_2 H 0.558432 0.324936 0.365932 . .
H10_2 H 0.442385 0.312075 0.344178 . .
H11 H 0.560004 0.343667 0.1499 . .
H13 H 0.443958 0.330806 0.128146 . .
C12_5 C 0.063047 0.283268 0.888454 0.0389 Uiso
C13_5 C 0.095186 0.277815 0.825845 0.0389 Uiso
C14_5 C 0.127626 0.274484 0.888391 0.0389 Uiso
C17_5 C 0.162787 0.268519 0.819896 0.0389 Uiso
O3_5 O 0.192928 0.283114 0.859121 0.0633 Uiso
O4_5 O 0.162967 0.248779 0.721607 0.0633 Uiso
H6_5 H 0.0372818 0.285915 0.838776 . .
H7_5 H 0.0949477 0.276129 0.726439 . .
C7_5 C 0.865958 0.276350 0.907735 0.0389 Uiso
C8_5 C 0.898057 0.273215 0.843162 0.0389 Uiso
C9_5 C 0.931073 0.278203 0.900955 0.0389 Uiso
C10_5 C 0.829837 0.270893 0.844509 0.0389 Uiso
O1_5 O 0.826245 0.245259 0.763581 0.0633 Uiso
O2_5 O 0.802283 0.291821 0.870917 0.0633 Uiso
O7_5 O 0.75522(90) 0.25872(63) 0.7608(31) 0.0633 Uiso
O8_5 O 0.791821 0.197717 0.620917 0.0633 Uiso
O10_5 O 0.837033 0.251221 0.528393 0.0633 Uiso
O11_5 O 0.75872(63) 0.24478(90) 0.5108(31) 0.0633 Uiso
H3_5 H 0.956568 0.275713 0.849668 . .
H4_5 H 0.897329 0.266763 0.745972 . .
N1_4 N 0.502327 0.214086 0.519109 0.0389 Uiso
N2_4 N 0.468345 0.198617 0.697775 0.0389 Uiso
N3_4 N 0.533674 0.198151 0.702604 0.0389 Uiso
C1_4 C 0.534552 0.208619 0.581884 0.0389 Uiso
C2_4 C 0.469223 0.209085 0.577055 0.0389 Uiso
C3_3 C 0.500570 0.193150 0.760549 0.0389 Uiso
C4_4 C 0.568010 0.213674 0.52332 0.0389 Uiso
C5_4 C 0.600109 0.210540 0.587892 0.0389 Uiso
C6_4 C 0.633125 0.215528 0.5301 0.0389 Uiso
C7_6 C 0.634042 0.223650 0.407735 0.0389 Uiso
C8_6 C 0.601943 0.226785 0.343162 0.0389 Uiso
C9_6 C 0.568927 0.221797 0.400955 0.0389 Uiso
C10_6 C 0.670163 0.229107 0.344509 0.0389 Uiso
C11_4 C 0.436654 0.214611 0.513609 0.0389 Uiso
C12_6 C 0.436953 0.216732 0.388454 0.0389 Uiso
C13_6 C 0.404814 0.222185 0.325845 0.0389 Uiso
C14_6 C 0.372374 0.225516 0.388391 0.0389 Uiso
C15_4 C 0.372075 0.223395 0.513547 0.0389 Uiso
C16_4 C 0.404215 0.217942 0.576156 0.0389 Uiso
C17_6 C 0.337213 0.231481 0.319896 0.0389 Uiso
C18_3 C 0.499682 0.182570 0.882559 0.0389 Uiso
C19_3 C 0.466905 0.173765 0.936698 0.0389 Uiso
C23_3 C 0.531582 0.180933 0.948822 0.0389 Uiso
O1_6 O 0.673755 0.254741 0.263581 0.0633 Uiso
O2_6 O 0.697717 0.208179 0.370917 0.0633 Uiso
O3_6 O 0.307072 0.216886 0.359121 0.0633 Uiso
O7_6 O 0.74478(90) 0.24128(63) 0.2608(31) 0.0633 Uiso
O8_6 O 0.708179 0.302283 0.120917 0.0633 Uiso
O11_6 O 0.74128(63) 0.25522(90) 0.0108(31) 0.0633 Uiso
H1_4 H 0.65862 0.213039 0.581388 . .
H2_4 H 0.599381 0.204089 0.685082 . .
H3_6 H 0.543432 0.224287 0.349668 . .
H4_6 H 0.602671 0.233237 0.245972 . .
H5_4 H 0.403977 0.216257 0.675562 . .
H6_6 H 0.462718 0.214085 0.338776 . .
H7_6 H 0.405052 0.223871 0.226439 . .
H8_4 H 0.34631 0.226041 0.563226 . .
H9_3 H 0.441568 0.175064 0.884068 . .
H10_3 H 0.557615 0.187925 0.905822 . .
N1_5 N 0.002327 0.214086 0.230891 0.0389 Uiso
N3_5 N 0.033674 0.198151 0.047396 0.0389 Uiso
C1_5 C 0.034552 0.208619 0.168116 0.0389 Uiso
C4_5 C 0.068010 0.213674 0.22668 0.0389 Uiso
C5_5 C 0.100109 0.210540 0.162108 0.0389 Uiso
C6_5 C 0.133125 0.215528 0.2199 0.0389 Uiso
C7_7 C 0.134042 0.223650 0.342265 0.0389 Uiso
C8_7 C 0.101943 0.226785 0.406838 0.0389 Uiso
C9_7 C 0.068927 0.221797 0.349045 0.0389 Uiso
C10_7 C 0.170163 0.229107 0.405491 0.0389 Uiso
O1_7 O 0.173755 0.254741 0.486419 0.0633 Uiso
O2_7 O 0.197717 0.208179 0.379083 0.0633 Uiso
O7_7 O 0.24478(90) 0.24128(63) 0.4892(31) 0.0633 Uiso
O8_7 O 0.208179 0.302283 0.629083 0.0633 Uiso
O11_7 O 0.24128(63) 0.25522(90) 0.7392(31) 0.0633 Uiso
H1_5 H 0.15862 0.213039 0.168612 . .
H2_5 H 0.0993808 0.204089 0.064918 . .
H3_7 H 0.0434317 0.224287 0.400332 . .
H4_7 H 0.102671 0.233237 0.504028 . .
N2_5 N 0.968345 0.198617 0.052225 0.0389 Uiso
C2_5 C 0.969223 0.209085 0.172945 0.0389 Uiso
C11_5 C 0.936654 0.214611 0.236391 0.0389 Uiso
C12_7 C 0.936953 0.216732 0.361546 0.0389 Uiso
C13_7 C 0.904814 0.222185 0.424155 0.0389 Uiso
C14_7 C 0.872374 0.225516 0.361609 0.0389 Uiso
C15_5 C 0.872075 0.223395 0.236453 0.0389 Uiso
C16_5 C 0.904215 0.217942 0.173844 0.0389 Uiso
C17_7 C 0.837213 0.231481 0.430104 0.0389 Uiso
O3_7 O 0.807072 0.216886 0.390879 0.0633 Uiso
H5_5 H 0.903977 0.216257 0.0744382 . .
H6_7 H 0.962718 0.214085 0.411224 . .
H7_7 H 0.905052 0.223871 0.523561 . .
H8_5 H 0.84631 0.226041 0.186774 . .
N1_6 N 0.285914 0.502327 0.269109 0.0389 Uiso
N2_6 N 0.301383 0.468345 0.447775 0.0389 Uiso
N3_6 N 0.301849 0.533674 0.452604 0.0389 Uiso
C1_6 C 0.291381 0.534552 0.331884 0.0389 Uiso
C2_6 C 0.290915 0.469223 0.327055 0.0389 Uiso
C3_4 C 0.306850 0.500570 0.510549 0.0389 Uiso
C4_6 C 0.286326 0.568010 0.27332 0.0389 Uiso
C5_6 C 0.289460 0.600109 0.337892 0.0389 Uiso
C6_6 C 0.284472 0.633125 0.2801 0.0389 Uiso
C7_8 C 0.276350 0.634042 0.157735 0.0389 Uiso
C8_8 C 0.273215 0.601943 0.093162 0.0389 Uiso
C9_8 C 0.278203 0.568927 0.150955 0.0389 Uiso
C10_8 C 0.270893 0.670163 0.094509 0.0389 Uiso
C11_6 C 0.285389 0.436654 0.263609 0.0389 Uiso
C12_8 C 0.283268 0.436953 0.138454 0.0389 Uiso
C13_8 C 0.277815 0.404814 0.075845 0.0389 Uiso
C14_8 C 0.274484 0.372374 0.138391 0.0389 Uiso
C15_6 C 0.276605 0.372075 0.263547 0.0389 Uiso
C16_6 C 0.282058 0.404215 0.326156 0.0389 Uiso
C17_8 C 0.268519 0.337213 0.069896 0.0389 Uiso
C18_4 C 0.317430 0.499682 0.632559 0.0389 Uiso
C19_4 C 0.326235 0.466905 0.686698 0.0389 Uiso
C20_2 C 0.336675 0.466029 0.807099 0.0389 Uiso
C21_2 C 0.338312 0.497929 0.873362 0.0389 Uiso
C22_2 C 0.329507 0.530705 0.819223 0.0389 Uiso
C23_4 C 0.319067 0.531582 0.698822 0.0389 Uiso
O1_8 O 0.245259 0.673755 0.013581 0.0633 Uiso
O2_8 O 0.291821 0.697717 0.120917 0.0633 Uiso
O7_8 O 0.25872(63) 0.74478(90) 0.0108(31) 0.0633 Uiso
Al4_5 Al 0.29224(22) 0.75331(32) 0.1359(13) 0.0253 Uiso
H1_6 H 0.286961 0.65862 0.331388 . .
H2_6 H 0.295911 0.599381 0.435082 . .
H3_8 H 0.275713 0.543432 0.0996678 . .
H5_6 H 0.283743 0.403977 0.425562 . .
H6_8 H 0.285915 0.462718 0.0887758 . .
H8_6 H 0.273959 0.34631 0.313226 . .
H9_4 H 0.324936 0.441568 0.634068 . .
H10_4 H 0.312075 0.557615 0.655822 . .
H11_2 H 0.343667 0.439996 0.8501 . .
H13_2 H 0.330806 0.556042 0.871854 . .
O4_6 O 0.248779 0.337033 0.971607 0.0633 Uiso
Al1_5 Al 0.25331(32) 0.70776(22) 0.8859(13) 0.0253 Uiso
O8_8 O 0.197717 0.708179 0.870917 0.0633 Uiso
O9_5 O 0.307072 0.716886 0.890879 0.0633 Uiso
O10_6 O 0.251221 0.662967 0.778393 0.0633 Uiso
O11_8 O 0.24478(90) 0.74128(63) 0.7608(31) 0.0633 Uiso
H4_8 H 0.266763 0.602671 0.995972 . .
H7_8 H 0.276129 0.405052 0.976439 . .
N1_7 N 0.714086 0.497673 0.269109 0.0389 Uiso
N2_7 N 0.698617 0.531655 0.447775 0.0389 Uiso
N3_7 N 0.698151 0.466326 0.452604 0.0389 Uiso
C1_7 C 0.708619 0.465448 0.331884 0.0389 Uiso
C2_7 C 0.709085 0.530777 0.327055 0.0389 Uiso
C3_5 C 0.693150 0.499430 0.510549 0.0389 Uiso
C4_7 C 0.713674 0.431990 0.27332 0.0389 Uiso
C5_7 C 0.710540 0.399891 0.337892 0.0389 Uiso
C6_7 C 0.715528 0.366875 0.2801 0.0389 Uiso
C7_9 C 0.723650 0.365958 0.157735 0.0389 Uiso
C8_9 C 0.726785 0.398057 0.093162 0.0389 Uiso
C9_9 C 0.721797 0.431073 0.150955 0.0389 Uiso
C10_9 C 0.729107 0.329837 0.094509 0.0389 Uiso
C11_7 C 0.714611 0.563346 0.263609 0.0389 Uiso
C12_9 C 0.716732 0.563047 0.138454 0.0389 Uiso
C13_9 C 0.722185 0.595186 0.075845 0.0389 Uiso
C14_9 C 0.725516 0.627626 0.138391 0.0389 Uiso
C15_7 C 0.723395 0.627925 0.263547 0.0389 Uiso
C16_7 C 0.717942 0.595785 0.326156 0.0389 Uiso
C17_9 C 0.731481 0.662787 0.069896 0.0389 Uiso
C18_5 C 0.682570 0.500318 0.632559 0.0389 Uiso
C19_5 C 0.673765 0.533095 0.686698 0.0389 Uiso
C20_3 C 0.663325 0.533971 0.807099 0.0389 Uiso
C21_3 C 0.661688 0.502071 0.873362 0.0389 Uiso
C22_3 C 0.670493 0.469295 0.819223 0.0389 Uiso
C23_5 C 0.680933 0.468418 0.698822 0.0389 Uiso
O1_9 O 0.754741 0.326245 0.013581 0.0633 Uiso
O3_8 O 0.716886 0.692928 0.109121 0.0633 Uiso
H1_7 H 0.713039 0.34138 0.331388 . .
H2_7 H 0.704089 0.400619 0.435082 . .
H3_9 H 0.724287 0.456568 0.0996678 . .
H5_7 H 0.716257 0.596023 0.425562 . .
H6_9 H 0.714085 0.537282 0.0887758 . .
H8_7 H 0.726041 0.65369 0.313226 . .
H9_5 H 0.675064 0.558432 0.634068 . .
H10_5 H 0.687925 0.442385 0.655822 . .
H11_3 H 0.656333 0.560004 0.8501 . .
H13_3 H 0.669194 0.443958 0.871854 . .
H4_9 H 0.733237 0.397329 0.995972 . .
H7_9 H 0.723871 0.594948 0.976439 . .
N1_8 N 0.214086 0.497673 0.480891 0.0389 Uiso
N2_8 N 0.198617 0.531655 0.302225 0.0389 Uiso
N3_8 N 0.198151 0.466326 0.297396 0.0389 Uiso
C1_8 C 0.208619 0.465448 0.418116 0.0389 Uiso
C2_8 C 0.209085 0.530777 0.422945 0.0389 Uiso
C3_6 C 0.193150 0.499430 0.239451 0.0389 Uiso
C4_8 C 0.213674 0.431990 0.47668 0.0389 Uiso
C5_8 C 0.210540 0.399891 0.412108 0.0389 Uiso
C6_8 C 0.215528 0.366875 0.4699 0.0389 Uiso
C7_10 C 0.223650 0.365958 0.592265 0.0389 Uiso
C8_10 C 0.226785 0.398057 0.656838 0.0389 Uiso
C9_10 C 0.221797 0.431073 0.599045 0.0389 Uiso
C10_10 C 0.229107 0.329837 0.655491 0.0389 Uiso
C11_8 C 0.214611 0.563346 0.486391 0.0389 Uiso
C12_10 C 0.216732 0.563047 0.611546 0.0389 Uiso
C13_10 C 0.222185 0.595186 0.674155 0.0389 Uiso
C14_10 C 0.225516 0.627626 0.611609 0.0389 Uiso
C15_8 C 0.223395 0.627925 0.486453 0.0389 Uiso
C16_8 C 0.217942 0.595785 0.423844 0.0389 Uiso
C17_10 C 0.231481 0.662787 0.680104 0.0389 Uiso
C18_6 C 0.182570 0.500318 0.117441 0.0389 Uiso
C19_6 C 0.173765 0.533095 0.063302 0.0389 Uiso
C23_6 C 0.180933 0.468418 0.051178 0.0389 Uiso
O1_10 O 0.254741 0.326245 0.736419 0.0633 Uiso
O3_9 O 0.216886 0.692928 0.640879 0.0633 Uiso
H1_8 H 0.213039 0.34138 0.418612 . .
H2_8 H 0.204089 0.400619 0.314918 . .
H3_10 H 0.224287 0.456568 0.650332 . .
H4_10 H 0.233237 0.397329 0.754028 . .
H5_8 H 0.216257 0.596023 0.324438 . .
H6_10 H 0.214085 0.537282 0.661224 . .
H7_10 H 0.223871 0.594948 0.773561 . .
H8_8 H 0.226041 0.65369 0.436774 . .
H9_6 H 0.175064 0.558432 0.115932 . .
H10_6 H 0.187925 0.442385 0.0941781 . .
N2_9 N 0.031655 0.801383 0.052225 0.0389 Uiso
C2_9 C 0.030777 0.790915 0.172945 0.0389 Uiso
C11_9 C 0.063346 0.785389 0.236391 0.0389 Uiso
C12_11 C 0.063047 0.783268 0.361546 0.0389 Uiso
C13_11 C 0.095186 0.777815 0.424155 0.0389 Uiso
C14_11 C 0.127626 0.774484 0.361609 0.0389 Uiso
C15_9 C 0.127925 0.776605 0.236453 0.0389 Uiso
C16_9 C 0.095785 0.782058 0.173844 0.0389 Uiso
C17_11 C 0.162787 0.768519 0.430104 0.0389 Uiso
O4_7 O 0.162967 0.748779 0.528393 0.0633 Uiso
H5_9 H 0.0960228 0.783743 0.0744382 . .
H6_11 H 0.0372818 0.785915 0.411224 . .
H7_11 H 0.0949477 0.776129 0.523561 . .
H8_9 H 0.15369 0.773959 0.186774 . .
N1_9 N 0.997673 0.785914 0.230891 0.0389 Uiso
N3_9 N 0.966326 0.801849 0.047396 0.0389 Uiso
C1_9 C 0.965448 0.791381 0.168116 0.0389 Uiso
C4_9 C 0.931990 0.786326 0.22668 0.0389 Uiso
C5_9 C 0.899891 0.789460 0.162108 0.0389 Uiso
C6_9 C 0.866875 0.784472 0.2199 0.0389 Uiso
C7_11 C 0.865958 0.776350 0.342265 0.0389 Uiso
C8_11 C 0.898057 0.773215 0.406838 0.0389 Uiso
C9_11 C 0.931073 0.778203 0.349045 0.0389 Uiso
C10_11 C 0.829837 0.770893 0.405491 0.0389 Uiso
O1_11 O 0.826245 0.745259 0.486419 0.0633 Uiso
O9_6 O 0.783114 0.807072 0.609121 0.0633 Uiso
O10_7 O 0.837033 0.751221 0.721607 0.0633 Uiso
H1_9 H 0.84138 0.786961 0.168612 . .
H2_9 H 0.900619 0.795911 0.064918 . .
H3_11 H 0.956568 0.775713 0.400332 . .
H4_11 H 0.897329 0.766763 0.504028 . .
N1_10 N 0.497673 0.785914 0.519109 0.0389 Uiso
N2_10 N 0.531655 0.801383 0.697775 0.0389 Uiso
N3_10 N 0.466326 0.801849 0.702604 0.0389 Uiso
C1_10 C 0.465448 0.791381 0.581884 0.0389 Uiso
C2_10 C 0.530777 0.790915 0.577055 0.0389 Uiso
C3_7 C 0.499430 0.806850 0.760549 0.0389 Uiso
C4_10 C 0.431990 0.786326 0.52332 0.0389 Uiso
C5_10 C 0.399891 0.789460 0.587892 0.0389 Uiso
C6_10 C 0.366875 0.784472 0.5301 0.0389 Uiso
C7_12 C 0.365958 0.776350 0.407735 0.0389 Uiso
C8_12 C 0.398057 0.773215 0.343162 0.0389 Uiso
C9_12 C 0.431073 0.778203 0.400955 0.0389 Uiso
C10_12 C 0.329837 0.770893 0.344509 0.0389 Uiso
C11_10 C 0.563346 0.785389 0.513609 0.0389 Uiso
C12_12 C 0.563047 0.783268 0.388454 0.0389 Uiso
C13_12 C 0.595186 0.777815 0.325845 0.0389 Uiso
C14_12 C 0.627626 0.774484 0.388391 0.0389 Uiso
C15_10 C 0.627925 0.776605 0.513547 0.0389 Uiso
C16_10 C 0.595785 0.782058 0.576156 0.0389 Uiso
C17_12 C 0.662787 0.768519 0.319896 0.0389 Uiso
C18_7 C 0.500318 0.817430 0.882559 0.0389 Uiso
C19_7 C 0.533095 0.826235 0.936698 0.0389 Uiso
C23_7 C 0.468418 0.819067 0.948822 0.0389 Uiso
O1_12 O 0.326245 0.745259 0.263581 0.0633 Uiso
O4_8 O 0.662967 0.748779 0.221607 0.0633 Uiso
O9_7 O 0.283114 0.807072 0.140879 0.0633 Uiso
O10_8 O 0.337033 0.751221 0.028393 0.0633 Uiso
H1_10 H 0.34138 0.786961 0.581388 . .
H2_10 H 0.400619 0.795911 0.685082 . .
H3_12 H 0.456568 0.775713 0.349668 . .
H4_12 H 0.397329 0.766763 0.245972 . .
H5_10 H 0.596023 0.783743 0.675562 . .
H6_12 H 0.537282 0.785915 0.338776 . .
H7_12 H 0.594948 0.776129 0.226439 . .
H8_10 H 0.65369 0.773959 0.563226 . .
H9_7 H 0.558432 0.824936 0.884068 . .
H10_7 H 0.442385 0.812075 0.905822 . .
C7_13 C 0.134042 0.723650 0.907735 0.0389 Uiso
C8_13 C 0.101943 0.726785 0.843162 0.0389 Uiso
C9_13 C 0.068927 0.721797 0.900955 0.0389 Uiso
C10_13 C 0.170163 0.729107 0.844509 0.0389 Uiso
O1_13 O 0.173755 0.754741 0.763581 0.0633 Uiso
H3_13 H 0.0434317 0.724287 0.849668 . .
H4_13 H 0.102671 0.733237 0.745972 . .
C12_13 C 0.936953 0.716732 0.888454 0.0389 Uiso
C13_13 C 0.904814 0.722185 0.825845 0.0389 Uiso
C14_13 C 0.872374 0.725516 0.888391 0.0389 Uiso
C17_13 C 0.837213 0.731481 0.819896 0.0389 Uiso
H6_13 H 0.962718 0.714085 0.838776 . .
H7_13 H 0.905052 0.723871 0.726439 . .
H4_14 H 0.602671 0.733237 0.0040275 . .
H7_14 H 0.405052 0.723871 0.0235608 . .
N1_11 N 0.502327 0.714086 0.730891 0.0389 Uiso
N2_11 N 0.468345 0.698617 0.552225 0.0389 Uiso
N3_11 N 0.533674 0.698151 0.547396 0.0389 Uiso
C1_11 C 0.534552 0.708619 0.668116 0.0389 Uiso
C2_11 C 0.469223 0.709085 0.672945 0.0389 Uiso
C3_8 C 0.500570 0.693150 0.489451 0.0389 Uiso
C4_11 C 0.568010 0.713674 0.72668 0.0389 Uiso
C5_11 C 0.600109 0.710540 0.662108 0.0389 Uiso
C6_11 C 0.633125 0.715528 0.7199 0.0389 Uiso
C7_14 C 0.634042 0.723650 0.842265 0.0389 Uiso
C8_14 C 0.601943 0.726785 0.906838 0.0389 Uiso
C9_14 C 0.568927 0.721797 0.849045 0.0389 Uiso
C10_14 C 0.670163 0.729107 0.905491 0.0389 Uiso
C11_11 C 0.436654 0.714611 0.736391 0.0389 Uiso
C12_14 C 0.436953 0.716732 0.861546 0.0389 Uiso
C13_14 C 0.404814 0.722185 0.924155 0.0389 Uiso
C14_14 C 0.372374 0.725516 0.861609 0.0389 Uiso
C15_11 C 0.372075 0.723395 0.736453 0.0389 Uiso
C16_11 C 0.404215 0.717942 0.673844 0.0389 Uiso
C17_14 C 0.337213 0.731481 0.930104 0.0389 Uiso
C18_8 C 0.499682 0.682570 0.367441 0.0389 Uiso
C19_8 C 0.466905 0.673765 0.313302 0.0389 Uiso
C20_4 C 0.466029 0.663325 0.192901 0.0389 Uiso
C21_4 C 0.497929 0.661688 0.126638 0.0389 Uiso
C22_4 C 0.530705 0.670493 0.180777 0.0389 Uiso
C23_8 C 0.531582 0.680933 0.301178 0.0389 Uiso
O1_14 O 0.673755 0.754741 0.986419 0.0633 Uiso
H1_11 H 0.65862 0.713039 0.668612 . .
H2_11 H 0.599381 0.704089 0.564918 . .
H3_14 H 0.543432 0.724287 0.900332 . .
H5_11 H 0.403977 0.716257 0.574438 . .
H6_14 H 0.462718 0.714085 0.911224 . .
H8_11 H 0.34631 0.726041 0.686774 . .
H9_8 H 0.441568 0.675064 0.365932 . .
H10_8 H 0.557615 0.687925 0.344178 . .
H11_4 H 0.439996 0.656333 0.1499 . .
H13_4 H 0.556042 0.669194 0.128146 . .
C7_15 C 0.276350 0.134042 0.092265 0.0389 Uiso
C8_15 C 0.273215 0.101943 0.156838 0.0389 Uiso
C9_15 C 0.278203 0.068927 0.099045 0.0389 Uiso
C10_15 C 0.270893 0.170163 0.155491 0.0389 Uiso
O1_15 O 0.245259 0.173755 0.236419 0.0633 Uiso
H3_15 H 0.275713 0.0434317 0.150332 . .
H4_15 H 0.266763 0.102671 0.254028 . .
C12_15 C 0.283268 0.936953 0.111546 0.0389 Uiso
C13_15 C 0.277815 0.904814 0.174155 0.0389 Uiso
C14_15 C 0.274484 0.872374 0.111609 0.0389 Uiso
C17_15 C 0.268519 0.837213 0.180104 0.0389 Uiso
H6_15 H 0.285915 0.962718 0.161224 . .
H7_15 H 0.276129 0.905052 0.273561 . .
N1_12 N 0.785914 0.002327 0.769109 0.0389 Uiso
N3_12 N 0.801849 0.033674 0.952604 0.0389 Uiso
C1_12 C 0.791381 0.034552 0.831884 0.0389 Uiso
C4_12 C 0.786326 0.068010 0.77332 0.0389 Uiso
C5_12 C 0.789460 0.100109 0.837892 0.0389 Uiso
C6_12 C 0.784472 0.133125 0.7801 0.0389 Uiso
C7_16 C 0.776350 0.134042 0.657735 0.0389 Uiso
C8_16 C 0.773215 0.101943 0.593162 0.0389 Uiso
C9_16 C 0.778203 0.068927 0.650955 0.0389 Uiso
C10_16 C 0.770893 0.170163 0.594509 0.0389 Uiso
O1_16 O 0.745259 0.173755 0.513581 0.0633 Uiso
H1_12 H 0.786961 0.15862 0.831388 . .
H2_12 H 0.795911 0.0993808 0.935082 . .
H3_16 H 0.775713 0.0434317 0.599668 . .
H4_16 H 0.766763 0.102671 0.495972 . .
N2_12 N 0.801383 0.968345 0.947775 0.0389 Uiso
C2_12 C 0.790915 0.969223 0.827055 0.0389 Uiso
C11_12 C 0.785389 0.936654 0.763609 0.0389 Uiso
C12_16 C 0.783268 0.936953 0.638454 0.0389 Uiso
C13_16 C 0.777815 0.904814 0.575845 0.0389 Uiso
C14_16 C 0.774484 0.872374 0.638391 0.0389 Uiso
C15_12 C 0.776605 0.872075 0.763547 0.0389 Uiso
C16_12 C 0.782058 0.904215 0.826156 0.0389 Uiso
C17_16 C 0.768519 0.837213 0.569896 0.0389 Uiso
H5_12 H 0.783743 0.903977 0.925562 . .
H6_16 H 0.785915 0.962718 0.588776 . .
H7_16 H 0.776129 0.905052 0.476439 . .
H8_12 H 0.773959 0.84631 0.813226 . .
C20_5 C 0.836675 0.466029 0.942901 0.0389 Uiso
C21_5 C 0.838312 0.497929 0.876638 0.0389 Uiso
C22_5 C 0.829507 0.530705 0.930777 0.0389 Uiso
C24 C 0.849734 0.496970 0.744917 0.0389 Uiso
O5 O 0.869947 0.470369 0.704955 0.0633 Uiso
O6 O 0.839371 0.522745 0.671295 0.0633 Uiso
H11_5 H 0.843667 0.439996 0.8999 . .
H12 H 0.848729 0.546714 0.701201 . .
H13_5 H 0.830806 0.556042 0.878146 . .
C18_9 C 0.182570 0.000318 0.132559 0.0389 Uiso
C19_9 C 0.173765 0.033095 0.186698 0.0389 Uiso
C20_6 C 0.163325 0.033971 0.307099 0.0389 Uiso
C21_6 C 0.161688 0.002071 0.373362 0.0389 Uiso
C24_2 C 0.150266 0.003030 0.505083 0.0389 Uiso
O5_2 O 0.130053 0.029631 0.545045 0.0633 Uiso
H9_9 H 0.175064 0.0584318 0.134068 . .
H11_6 H 0.156333 0.060004 0.3501 . .
C3_9 C 0.193150 0.999430 0.010549 0.0389 Uiso
C22_6 C 0.170493 0.969295 0.319223 0.0389 Uiso
C23_9 C 0.180933 0.968418 0.198822 0.0389 Uiso
O6_2 O 0.160629 0.977255 0.578705 0.0633 Uiso
H10_9 H 0.187925 0.942385 0.155822 . .
H12_2 H 0.151271 0.953286 0.548799 . .
H13_6 H 0.169194 0.943958 0.371854 . .
N2_13 N 0.698617 0.031655 0.802225 0.0389 Uiso
C2_13 C 0.709085 0.030777 0.922945 0.0389 Uiso
C11_13 C 0.714611 0.063346 0.986391 0.0389 Uiso
C15_13 C 0.723395 0.127925 0.986453 0.0389 Uiso
C16_13 C 0.717942 0.095785 0.923844 0.0389 Uiso
C18_10 C 0.682570 0.000318 0.617441 0.0389 Uiso
C19_10 C 0.673765 0.033095 0.563302 0.0389 Uiso
C20_7 C 0.663325 0.033971 0.442901 0.0389 Uiso
C21_7 C 0.661688 0.002071 0.376638 0.0389 Uiso
C24_3 C 0.650266 0.003030 0.244917 0.0389 Uiso
O5_3 O 0.630053 0.029631 0.204955 0.0633 Uiso
H5_13 H 0.716257 0.0960228 0.824438 . .
H8_13 H 0.726041 0.15369 0.936774 . .
H9_10 H 0.675064 0.0584318 0.615932 . .
H11_7 H 0.656333 0.060004 0.3999 . .
N1_13 N 0.714086 0.997673 0.980891 0.0389 Uiso
N3_13 N 0.698151 0.966326 0.797396 0.0389 Uiso
C1_13 C 0.708619 0.965448 0.918116 0.0389 Uiso
C3_10 C 0.693150 0.999430 0.739451 0.0389 Uiso
C4_13 C 0.713674 0.931990 0.97668 0.0389 Uiso
C5_13 C 0.710540 0.899891 0.912108 0.0389 Uiso
C6_13 C 0.715528 0.866875 0.9699 0.0389 Uiso
C22_7 C 0.670493 0.969295 0.430777 0.0389 Uiso
C23_10 C 0.680933 0.968418 0.551178 0.0389 Uiso
O6_3 O 0.660629 0.977255 0.171295 0.0633 Uiso
H1_13 H 0.713039 0.84138 0.918612 . .
H2_13 H 0.704089 0.900619 0.814918 . .
H10_10 H 0.687925 0.942385 0.594178 . .
H12_3 H 0.651271 0.953286 0.201201 . .
H13_7 H 0.669194 0.943958 0.378146 . .
C24_4 C 0.503030 0.349734 0.994917 0.0389 Uiso
O5_4 O 0.529631 0.369947 0.954955 0.0633 Uiso
O6_4 O 0.477255 0.339371 0.921295 0.0633 Uiso
H12_4 H 0.453286 0.348729 0.951201 . .
N2_14 N 0.031655 0.301383 0.197775 0.0389 Uiso
C2_14 C 0.030777 0.290915 0.077055 0.0389 Uiso
C11_14 C 0.063346 0.285389 0.013609 0.0389 Uiso
C15_14 C 0.127925 0.276605 0.013547 0.0389 Uiso
C16_14 C 0.095785 0.282058 0.076156 0.0389 Uiso
C18_11 C 0.000318 0.317430 0.382559 0.0389 Uiso
C19_11 C 0.033095 0.326235 0.436698 0.0389 Uiso
C20_8 C 0.033971 0.336675 0.557099 0.0389 Uiso
C21_8 C 0.002071 0.338312 0.623362 0.0389 Uiso
C24_5 C 0.003030 0.349734 0.755083 0.0389 Uiso
O5_5 O 0.029631 0.369947 0.795045 0.0633 Uiso
H5_14 H 0.0960228 0.283743 0.175562 . .
H8_14 H 0.15369 0.273959 0.0632258 . .
H9_11 H 0.0584318 0.324936 0.384068 . .
H11_8 H 0.060004 0.343667 0.6001 . .
N1_14 N 0.997673 0.285914 0.019109 0.0389 Uiso
N3_14 N 0.966326 0.301849 0.202604 0.0389 Uiso
C1_14 C 0.965448 0.291381 0.081884 0.0389 Uiso
C3_11 C 0.999430 0.306850 0.260549 0.0389 Uiso
C4_14 C 0.931990 0.286326 0.02332 0.0389 Uiso
C5_14 C 0.899891 0.289460 0.087892 0.0389 Uiso
C6_14 C 0.866875 0.284472 0.0301 0.0389 Uiso
C22_8 C 0.969295 0.329507 0.569223 0.0389 Uiso
C23_11 C 0.968418 0.319067 0.448822 0.0389 Uiso
O6_5 O 0.977255 0.339371 0.828705 0.0633 Uiso
H1_14 H 0.84138 0.286961 0.0813881 . .
H2_14 H 0.900619 0.295911 0.185082 . .
H10_11 H 0.942385 0.312075 0.405822 . .
H12_5 H 0.953286 0.348729 0.798799 . .
H13_8 H 0.943958 0.330806 0.621854 . .
C20_9 C 0.466029 0.163325 0.057099 0.0389 Uiso
C21_9 C 0.497929 0.161688 0.123362 0.0389 Uiso
C22_9 C 0.530705 0.170493 0.069223 0.0389 Uiso
C24_6 C 0.496970 0.150266 0.255083 0.0389 Uiso
O5_6 O 0.470369 0.130053 0.295045 0.0633 Uiso
O6_6 O 0.522745 0.160629 0.328705 0.0633 Uiso
H11_9 H 0.439996 0.156333 0.1001 . .
H12_6 H 0.546714 0.151271 0.298799 . .
H13_9 H 0.556042 0.169194 0.121854 . .
C3_12 C 0.000570 0.193150 0.989451 0.0389 Uiso
C22_10 C 0.030705 0.170493 0.680777 0.0389 Uiso
C23_12 C 0.031582 0.180933 0.801178 0.0389 Uiso
O6_7 O 0.022745 0.160629 0.421295 0.0633 Uiso
H10_12 H 0.0576152 0.187925 0.844178 . .
H12_7 H 0.0467141 0.151271 0.451201 . .
H13_10 H 0.0560416 0.169194 0.628146 . .
C18_12 C 0.999682 0.182570 0.867441 0.0389 Uiso
C19_12 C 0.966905 0.173765 0.813302 0.0389 Uiso
C20_10 C 0.966029 0.163325 0.692901 0.0389 Uiso
C21_10 C 0.997929 0.161688 0.626638 0.0389 Uiso
C24_7 C 0.996970 0.150266 0.494917 0.0389 Uiso
O5_7 O 0.970369 0.130053 0.454955 0.0633 Uiso
H9_12 H 0.941568 0.175064 0.865932 . .
H11_10 H 0.939996 0.156333 0.6499 . .
C24_8 C 0.349734 0.496970 0.005083 0.0389 Uiso
O5_8 O 0.369947 0.470369 0.045045 0.0633 Uiso
O6_8 O 0.339371 0.522745 0.078705 0.0633 Uiso
H12_8 H 0.348729 0.546714 0.0487994 . .
C24_9 C 0.650266 0.503030 0.005083 0.0389 Uiso
O5_9 O 0.630053 0.529631 0.045045 0.0633 Uiso
O6_9 O 0.660629 0.477255 0.078705 0.0633 Uiso
H12_9 H 0.651271 0.453286 0.0487994 . .
C20_11 C 0.163325 0.533971 0.942901 0.0389 Uiso
C21_11 C 0.161688 0.502071 0.876638 0.0389 Uiso
C22_11 C 0.170493 0.469295 0.930777 0.0389 Uiso
C24_10 C 0.150266 0.503030 0.744917 0.0389 Uiso
O5_10 O 0.130053 0.529631 0.704955 0.0633 Uiso
O6_10 O 0.160629 0.477255 0.671295 0.0633 Uiso
H11_11 H 0.156333 0.560004 0.8999 . .
H12_10 H 0.151271 0.453286 0.701201 . .
H13_11 H 0.169194 0.443958 0.878146 . .
C18_13 C 0.000318 0.817430 0.867441 0.0389 Uiso
C19_13 C 0.033095 0.826235 0.813302 0.0389 Uiso
C20_12 C 0.033971 0.836675 0.692901 0.0389 Uiso
C21_12 C 0.002071 0.838312 0.626638 0.0389 Uiso
C24_11 C 0.003030 0.849734 0.494917 0.0389 Uiso
O5_11 O 0.029631 0.869947 0.454955 0.0633 Uiso
H9_13 H 0.0584318 0.824936 0.865932 . .
H11_12 H 0.060004 0.843667 0.6499 . .
C3_13 C 0.999430 0.806850 0.989451 0.0389 Uiso
C22_12 C 0.969295 0.829507 0.680777 0.0389 Uiso
C23_13 C 0.968418 0.819067 0.801178 0.0389 Uiso
O6_11 O 0.977255 0.839371 0.421295 0.0633 Uiso
H10_13 H 0.942385 0.812075 0.844178 . .
H12_11 H 0.953286 0.848729 0.451201 . .
H13_12 H 0.943958 0.830806 0.628146 . .
C20_13 C 0.533971 0.836675 0.057099 0.0389 Uiso
C21_13 C 0.502071 0.838312 0.123362 0.0389 Uiso
C22_13 C 0.469295 0.829507 0.069223 0.0389 Uiso
C24_12 C 0.503030 0.849734 0.255083 0.0389 Uiso
O5_12 O 0.529631 0.869947 0.295045 0.0633 Uiso
O6_12 O 0.477255 0.839371 0.328705 0.0633 Uiso
H11_13 H 0.560004 0.843667 0.1001 . .
H12_12 H 0.453286 0.848729 0.298799 . .
H13_13 H 0.443958 0.830806 0.121854 . .
N1_15 N 0.002327 0.714086 0.019109 0.0389 Uiso
N3_15 N 0.033674 0.698151 0.202604 0.0389 Uiso
C1_15 C 0.034552 0.708619 0.081884 0.0389 Uiso
C3_14 C 0.000570 0.693150 0.260549 0.0389 Uiso
C4_15 C 0.068010 0.713674 0.02332 0.0389 Uiso
C5_15 C 0.100109 0.710540 0.087892 0.0389 Uiso
C6_15 C 0.133125 0.715528 0.0301 0.0389 Uiso
C22_14 C 0.030705 0.670493 0.569223 0.0389 Uiso
C23_14 C 0.031582 0.680933 0.448822 0.0389 Uiso
O6_13 O 0.022745 0.660629 0.828705 0.0633 Uiso
H1_15 H 0.15862 0.713039 0.0813881 . .
H2_15 H 0.0993808 0.704089 0.185082 . .
H10_14 H 0.0576152 0.687925 0.405822 . .
H12_13 H 0.0467141 0.651271 0.798799 . .
H13_14 H 0.0560416 0.669194 0.621854 . .
N2_15 N 0.968345 0.698617 0.197775 0.0389 Uiso
C2_15 C 0.969223 0.709085 0.077055 0.0389 Uiso
C11_15 C 0.936654 0.714611 0.013609 0.0389 Uiso
C15_15 C 0.872075 0.723395 0.013547 0.0389 Uiso
C16_15 C 0.904215 0.717942 0.076156 0.0389 Uiso
C18_14 C 0.999682 0.682570 0.382559 0.0389 Uiso
C19_14 C 0.966905 0.673765 0.436698 0.0389 Uiso
C20_14 C 0.966029 0.663325 0.557099 0.0389 Uiso
C21_14 C 0.997929 0.661688 0.623362 0.0389 Uiso
C24_13 C 0.996970 0.650266 0.755083 0.0389 Uiso
O5_13 O 0.970369 0.630053 0.795045 0.0633 Uiso
H5_15 H 0.903977 0.716257 0.175562 . .
H8_15 H 0.84631 0.726041 0.0632258 . .
H9_14 H 0.941568 0.675064 0.384068 . .
H11_14 H 0.939996 0.656333 0.6001 . .
C24_14 C 0.496970 0.650266 0.994917 0.0389 Uiso
O5_14 O 0.470369 0.630053 0.954955 0.0633 Uiso
O6_14 O 0.522745 0.660629 0.921295 0.0633 Uiso
H12_14 H 0.546714 0.651271 0.951201 . .
N1_16 N 0.285914 0.002327 0.980891 0.0389 Uiso
N3_16 N 0.301849 0.033674 0.797396 0.0389 Uiso
C1_16 C 0.291381 0.034552 0.918116 0.0389 Uiso
C3_15 C 0.306850 0.000570 0.739451 0.0389 Uiso
C4_16 C 0.286326 0.068010 0.97668 0.0389 Uiso
C5_16 C 0.289460 0.100109 0.912108 0.0389 Uiso
C6_16 C 0.284472 0.133125 0.9699 0.0389 Uiso
C22_15 C 0.329507 0.030705 0.430777 0.0389 Uiso
C23_15 C 0.319067 0.031582 0.551178 0.0389 Uiso
O6_15 O 0.339371 0.022745 0.171295 0.0633 Uiso
H1_16 H 0.286961 0.15862 0.918612 . .
H2_16 H 0.295911 0.0993808 0.814918 . .
H10_15 H 0.312075 0.0576152 0.594178 . .
H12_15 H 0.348729 0.0467141 0.201201 . .
H13_15 H 0.330806 0.0560416 0.378146 . .
N2_16 N 0.301383 0.968345 0.802225 0.0389 Uiso
C2_16 C 0.290915 0.969223 0.922945 0.0389 Uiso
C11_16 C 0.285389 0.936654 0.986391 0.0389 Uiso
C15_16 C 0.276605 0.872075 0.986453 0.0389 Uiso
C16_16 C 0.282058 0.904215 0.923844 0.0389 Uiso
C18_15 C 0.317430 0.999682 0.617441 0.0389 Uiso
C19_15 C 0.326235 0.966905 0.563302 0.0389 Uiso
C20_15 C 0.336675 0.966029 0.442901 0.0389 Uiso
C21_15 C 0.338312 0.997929 0.376638 0.0389 Uiso
C24_15 C 0.349734 0.996970 0.244917 0.0389 Uiso
O5_15 O 0.369947 0.970369 0.204955 0.0633 Uiso
H5_16 H 0.283743 0.903977 0.824438 . .
H8_16 H 0.273959 0.84631 0.936774 . .
H9_15 H 0.324936 0.941568 0.615932 . .
H11_15 H 0.343667 0.939996 0.3999 . .
C3_16 C 0.806850 0.000570 0.010549 0.0389 Uiso
C22_16 C 0.829507 0.030705 0.319223 0.0389 Uiso
C23_16 C 0.819067 0.031582 0.198822 0.0389 Uiso
O6_16 O 0.839371 0.022745 0.578705 0.0633 Uiso
H10_16 H 0.812075 0.0576152 0.155822 . .
H12_16 H 0.848729 0.0467141 0.548799 . .
H13_16 H 0.830806 0.0560416 0.371854 . .
C18_16 C 0.817430 0.999682 0.132559 0.0389 Uiso
C19_16 C 0.826235 0.966905 0.186698 0.0389 Uiso
C20_16 C 0.836675 0.966029 0.307099 0.0389 Uiso
C21_16 C 0.838312 0.997929 0.373362 0.0389 Uiso
C24_16 C 0.849734 0.996970 0.505083 0.0389 Uiso
O5_16 O 0.869947 0.970369 0.545045 0.0633 Uiso
H9_16 H 0.824936 0.941568 0.134068 . .
H11_16 H 0.843667 0.939996 0.3501 . .
loop_
_geom_bond_atom_site_label_1
_geom_bond_atom_site_label_2
_geom_bond_site_symmetry_1
_geom_bond_site_symmetry_2
N1 C1 1_555 1_555
N2 C2 1_555 1_555
N3 C1 1_555 1_555
C1 C4 1_555 1_555
C2 N1 1_555 1_555
C3 N2 1_555 1_555
C4 C5 1_555 1_555
C5 C6 1_555 1_555
C6 C7 1_555 1_555
C7 C8 1_555 1_555
C8 C9 1_555 1_555
C9 C4 1_555 1_555
C10 C7 1_555 1_555
C11 C2 1_555 1_555
C12 C11 1_555 1_555
C13 C12 1_555 1_555
C14 C13 1_555 1_555
C15 C14 1_555 1_555
C16 C11 1_555 1_555
C17 C14 1_555 1_555
C18 C3 1_555 1_555
C19 C18 1_555 1_555
C23 C18 1_555 1_555
O1 C10 1_555 1_555
O2 C10 1_555 1_555
O3 C17 1_555 1_555
O4 C17 1_555 1_555
Al1 O1 1_555 1_555
O7 Al1 1_555 1_555
O8 Al1 1_555 1_555
O9 Al1 1_555 1_555
O10 Al1 1_555 1_555
Al2 O3 1_555 1_555
Al3 O4 1_555 1_555
Al4 O2 1_555 1_555
O11 Al1 1_555 1_555
N3 C3 1_555 1_555
C15 C16 1_555 1_555
O7 Al4 1_555 1_555
C6 H1 1_555 1_555
C5 H2 1_555 1_555
C9 H3 1_555 1_555
C8 H4 1_555 1_555
C16 H5 1_555 1_555
C12 H6 1_555 1_555
C13 H7 1_555 1_555
C15 H8 1_555 1_555
C19 H9 1_555 1_555
C23 H10 1_555 1_555
N2_2 C2_2 1_555 1_555
C11_2 C2_2 1_555 1_555
C12_2 C11_2 1_555 1_555
C13_2 C12_2 1_555 1_555
C14_2 C13_2 1_555 1_555
C15_2 C14_2 1_555 1_555
C16_2 C11_2 1_555 1_555
C17_2 C14_2 1_555 1_555
O3_2 C17_2 1_555 1_555
O4_2 C17_2 1_555 1_555
Al2_2 O3_2 1_555 1_555
Al3_2 O4_2 1_555 1_555
C15_2 C16_2 1_555 1_555
C16_2 H5_2 1_555 1_555
C12_2 H6_2 1_555 1_555
C13_2 H7_2 1_555 1_555
C15_2 H8_2 1_555 1_555
N1_2 C1_2 1_555 1_555
N3_2 C1_2 1_555 1_555
C1_2 C4_2 1_555 1_555
C4_2 C5_2 1_555 1_555
C5_2 C6_2 1_555 1_555
C6_2 C7_2 1_555 1_555
C7_2 C8_2 1_555 1_555
C8_2 C9_2 1_555 1_555
C9_2 C4_2 1_555 1_555
C10_2 C7_2 1_555 1_555
O1_2 C10_2 1_555 1_555
O2_2 C10_2 1_555 1_555
Al1_2 O1_2 1_555 1_555
O7_2 Al1_2 1_555 1_555
O8_2 Al1_2 1_555 1_555
O9_2 Al1_2 1_555 1_555
O10_2 Al1_2 1_555 1_555
Al4_2 O2_2 1_555 1_555
O11_2 Al1_2 1_555 1_555
O7_2 Al4_2 1_555 1_555
C6_2 H1_2 1_555 1_555
C5_2 H2_2 1_555 1_555
C9_2 H3_2 1_555 1_555
C8_2 H4_2 1_555 1_555
C13_3 C12_3 1_555 1_555
C14_3 C13_3 1_555 1_555
C17_3 C14_3 1_555 1_555
O3_3 C17_3 1_555 1_555
O4_3 C17_3 1_555 1_555
Al2_3 O3_3 1_555 1_555
Al3_3 O4_3 1_555 1_555
C12_3 H6_3 1_555 1_555
C13_3 H7_3 1_555 1_555
C7_3 C8_3 1_555 1_555
C8_3 C9_3 1_555 1_555
C10_3 C7_3 1_555 1_555
O1_3 C10_3 1_555 1_555
O2_3 C10_3 1_555 1_555
Al1_3 O1_3 1_555 1_555
O7_3 Al1_3 1_555 1_555
O8_3 Al1_3 1_555 1_555
O9_3 Al1_3 1_555 1_555
O10_3 Al1_3 1_555 1_555
Al4_3 O2_3 1_555 1_555
O11_3 Al1_3 1_555 1_555
O7_3 Al4_3 1_555 1_555
C9_3 H3_3 1_555 1_555
C8_3 H4_3 1_555 1_555
O8_4 Al1_4 1_555 1_555
O9_4 Al1_4 1_555 1_555
O10_4 Al1_4 1_555 1_555
Al2_3 O4_4 1_555 1_555
O11_4 Al1_4 1_555 1_555
N1_3 C1_3 1_555 1_555
N2_3 C2_3 1_555 1_555
N3_3 C1_3 1_555 1_555
C1_3 C4_3 1_555 1_555
C2_3 N1_3 1_555 1_555
C3_2 N2_3 1_555 1_555
C4_3 C5_3 1_555 1_555
C5_3 C6_3 1_555 1_555
C6_3 C7_4 1_555 1_555
C7_4 C8_4 1_555 1_555
C8_4 C9_4 1_555 1_555
C9_4 C4_3 1_555 1_555
C10_4 C7_4 1_555 1_555
C11_3 C2_3 1_555 1_555
C12_4 C11_3 1_555 1_555
C13_4 C12_4 1_555 1_555
C14_4 C13_4 1_555 1_555
C15_3 C14_4 1_555 1_555
C16_3 C11_3 1_555 1_555
C17_4 C14_4 1_555 1_555
C18_2 C3_2 1_555 1_555
C19_2 C18_2 1_555 1_555
C20 C19_2 1_555 1_555
C21 C20 1_555 1_555
C22 C21 1_555 1_555
C23_2 C18_2 1_555 1_555
O1_4 C10_4 1_555 1_555
O2_4 C10_4 1_555 1_555
O3_4 C17_4 1_555 1_555
Al3 O3_4 1_555 1_555
Al4_4 O2_4 1_555 1_555
N3_3 C3_2 1_555 1_555
C15_3 C16_3 1_555 1_555
C22 C23_2 1_555 1_555
O7_4 Al4_4 1_555 1_555
C6_3 H1_3 1_555 1_555
C5_3 H2_3 1_555 1_555
C9_4 H3_4 1_555 1_555
C16_3 H5_3 1_555 1_555
C12_4 H6_4 1_555 1_555
C15_3 H8_3 1_555 1_555
C19_2 H9_2 1_555 1_555
C23_2 H10_2 1_555 1_555
C20 H11 1_555 1_555
C22 H13 1_555 1_555
C13_5 C12_5 1_555 1_555
C14_5 C13_5 1_555 1_555
C17_5 C14_5 1_555 1_555
O3_5 C17_5 1_555 1_555
O4_5 C17_5 1_555 1_555
Al4_4 O3_5 1_555 1_555
Al2_2 O4_5 1_555 1_555
C12_5 H6_5 1_555 1_555
C13_5 H7_5 1_555 1_555
C7_5 C8_5 1_555 1_555
C8_5 C9_5 1_555 1_555
C10_5 C7_5 1_555 1_555
O1_5 C10_5 1_555 1_555
O2_5 C10_5 1_555 1_555
Al2 O1_5 1_555 1_555
O7_5 Al2 1_555 1_555
O8_5 Al2 1_555 1_555
O10_5 Al2 1_555 1_555
Al3 O2_5 1_555 1_555
O11_5 Al2 1_555 1_555
O7_5 Al3 1_555 1_555
C9_5 H3_5 1_555 1_555
C8_5 H4_5 1_555 1_555
N1_4 C1_4 1_555 1_555
N2_4 C2_4 1_555 1_555
N3_4 C1_4 1_555 1_555
C1_4 C4_4 1_555 1_555
C2_4 N1_4 1_555 1_555
C3_3 N2_4 1_555 1_555
C4_4 C5_4 1_555 1_555
C5_4 C6_4 1_555 1_555
C6_4 C7_6 1_555 1_555
C7_6 C8_6 1_555 1_555
C8_6 C9_6 1_555 1_555
C9_6 C4_4 1_555 1_555
C10_6 C7_6 1_555 1_555
C11_4 C2_4 1_555 1_555
C12_6 C11_4 1_555 1_555
C13_6 C12_6 1_555 1_555
C14_6 C13_6 1_555 1_555
C15_4 C14_6 1_555 1_555
C16_4 C11_4 1_555 1_555
C17_6 C14_6 1_555 1_555
C18_3 C3_3 1_555 1_555
C19_3 C18_3 1_555 1_555
C23_3 C18_3 1_555 1_555
O1_6 C10_6 1_555 1_555
O2_6 C10_6 1_555 1_555
O3_6 C17_6 1_555 1_555
O10_4 C17_6 1_555 1_555
Al2_3 O1_6 1_555 1_555
O7_6 Al2_3 1_555 1_555
O8_6 Al2_3 1_555 1_555
Al3_2 O3_6 1_555 1_555
Al3_3 O2_6 1_555 1_555
O11_6 Al2_3 1_555 1_555
N3_4 C3_3 1_555 1_555
C15_4 C16_4 1_555 1_555
O7_6 Al3_3 1_555 1_555
C6_4 H1_4 1_555 1_555
C5_4 H2_4 1_555 1_555
C9_6 H3_6 1_555 1_555
C8_6 H4_6 1_555 1_555
C16_4 H5_4 1_555 1_555
C12_6 H6_6 1_555 1_555
C13_6 H7_6 1_555 1_555
C15_4 H8_4 1_555 1_555
C19_3 H9_3 1_555 1_555
C23_3 H10_3 1_555 1_555
N1_5 C1_5 1_555 1_555
N3_5 C1_5 1_555 1_555
C1_5 C4_5 1_555 1_555
C4_5 C5_5 1_555 1_555
C5_5 C6_5 1_555 1_555
C6_5 C7_7 1_555 1_555
C7_7 C8_7 1_555 1_555
C8_7 C9_7 1_555 1_555
C9_7 C4_5 1_555 1_555
C10_7 C7_7 1_555 1_555
O1_7 C10_7 1_555 1_555
O2_7 C10_7 1_555 1_555
Al2_2 O1_7 1_555 1_555
O7_7 Al2_2 1_555 1_555
O8_7 Al2_2 1_555 1_555
Al3_2 O2_7 1_555 1_555
O11_7 Al2_2 1_555 1_555
O7_7 Al3_2 1_555 1_555
C6_5 H1_5 1_555 1_555
C5_5 H2_5 1_555 1_555
C9_7 H3_7 1_555 1_555
C8_7 H4_7 1_555 1_555
N2_5 C2_5 1_555 1_555
C11_5 C2_5 1_555 1_555
C12_7 C11_5 1_555 1_555
C13_7 C12_7 1_555 1_555
C14_7 C13_7 1_555 1_555
C15_5 C14_7 1_555 1_555
C16_5 C11_5 1_555 1_555
C17_7 C14_7 1_555 1_555
O3_7 C17_7 1_555 1_555
O10_5 C17_7 1_555 1_555
Al3_3 O3_7 1_555 1_555
C15_5 C16_5 1_555 1_555
C16_5 H5_5 1_555 1_555
C12_7 H6_7 1_555 1_555
C13_7 H7_7 1_555 1_555
C15_5 H8_5 1_555 1_555
N1_6 C1_6 1_555 1_555
N2_6 C2_6 1_555 1_555
N3_6 C1_6 1_555 1_555
C1_6 C4_6 1_555 1_555
C2_6 N1_6 1_555 1_555
C3_4 N2_6 1_555 1_555
C4_6 C5_6 1_555 1_555
C5_6 C6_6 1_555 1_555
C6_6 C7_8 1_555 1_555
C7_8 C8_8 1_555 1_555
C8_8 C9_8 1_555 1_555
C9_8 C4_6 1_555 1_555
C10_8 C7_8 1_555 1_555
C11_6 C2_6 1_555 1_555
C12_8 C11_6 1_555 1_555
C13_8 C12_8 1_555 1_555
C14_8 C13_8 1_555 1_555
C15_6 C14_8 1_555 1_555
C16_6 C11_6 1_555 1_555
C17_8 C14_8 1_555 1_555
C18_4 C3_4 1_555 1_555
C19_4 C18_4 1_555 1_555
C20_2 C19_4 1_555 1_555
C21_2 C20_2 1_555 1_555
C22_2 C21_2 1_555 1_555
C23_4 C18_4 1_555 1_555
O1_8 C10_8 1_555 1_555
O2_8 C10_8 1_555 1_555
O9_4 C17_8 1_555 1_555
Al4_5 O2_8 1_555 1_555
N3_6 C3_4 1_555 1_555
C15_6 C16_6 1_555 1_555
C22_2 C23_4 1_555 1_555
O7_8 Al4_5 1_555 1_555
C6_6 H1_6 1_555 1_555
C5_6 H2_6 1_555 1_555
C9_8 H3_8 1_555 1_555
C16_6 H5_6 1_555 1_555
C12_8 H6_8 1_555 1_555
C15_6 H8_6 1_555 1_555
C19_4 H9_4 1_555 1_555
C23_4 H10_4 1_555 1_555
C20_2 H11_2 1_555 1_555
C22_2 H13_2 1_555 1_555
O8_8 Al1_5 1_555 1_555
O9_5 Al1_5 1_555 1_555
O10_6 Al1_5 1_555 1_555
Al4_4 O4_6 1_555 1_555
O11_8 Al1_5 1_555 1_555
N1_7 C1_7 1_555 1_555
N2_7 C2_7 1_555 1_555
N3_7 C1_7 1_555 1_555
C1_7 C4_7 1_555 1_555
C2_7 N1_7 1_555 1_555
C3_5 N2_7 1_555 1_555
C4_7 C5_7 1_555 1_555
C5_7 C6_7 1_555 1_555
C6_7 C7_9 1_555 1_555
C7_9 C8_9 1_555 1_555
C8_9 C9_9 1_555 1_555
C9_9 C4_7 1_555 1_555
C10_9 C7_9 1_555 1_555
C11_7 C2_7 1_555 1_555
C12_9 C11_7 1_555 1_555
C13_9 C12_9 1_555 1_555
C14_9 C13_9 1_555 1_555
C15_7 C14_9 1_555 1_555
C16_7 C11_7 1_555 1_555
C17_9 C14_9 1_555 1_555
C18_5 C3_5 1_555 1_555
C19_5 C18_5 1_555 1_555
C20_3 C19_5 1_555 1_555
C21_3 C20_3 1_555 1_555
C22_3 C21_3 1_555 1_555
C23_5 C18_5 1_555 1_555
O1_9 C10_9 1_555 1_555
O8_6 C10_9 1_555 1_555
O3_8 C17_9 1_555 1_555
Al4_3 O3_8 1_555 1_555
N3_7 C3_5 1_555 1_555
C15_7 C16_7 1_555 1_555
C22_3 C23_5 1_555 1_555
C6_7 H1_7 1_555 1_555
C5_7 H2_7 1_555 1_555
C9_9 H3_9 1_555 1_555
C16_7 H5_7 1_555 1_555
C12_9 H6_9 1_555 1_555
C15_7 H8_7 1_555 1_555
C19_5 H9_5 1_555 1_555
C23_5 H10_5 1_555 1_555
C20_3 H11_3 1_555 1_555
C22_3 H13_3 1_555 1_555
N1_8 C1_8 1_555 1_555
N2_8 C2_8 1_555 1_555
N3_8 C1_8 1_555 1_555
C1_8 C4_8 1_555 1_555
C2_8 N1_8 1_555 1_555
C3_6 N2_8 1_555 1_555
C4_8 C5_8 1_555 1_555
C5_8 C6_8 1_555 1_555
C6_8 C7_10 1_555 1_555
C7_10 C8_10 1_555 1_555
C8_10 C9_10 1_555 1_555
C9_10 C4_8 1_555 1_555
C10_10 C7_10 1_555 1_555
C11_8 C2_8 1_555 1_555
C12_10 C11_8 1_555 1_555
C13_10 C12_10 1_555 1_555
C14_10 C13_10 1_555 1_555
C15_8 C14_10 1_555 1_555
C16_8 C11_8 1_555 1_555
C17_10 C14_10 1_555 1_555
C18_6 C3_6 1_555 1_555
C19_6 C18_6 1_555 1_555
C23_6 C18_6 1_555 1_555
O1_10 C10_10 1_555 1_555
O8_7 C10_10 1_555 1_555
O3_9 C17_10 1_555 1_555
O10_6 C17_10 1_555 1_555
Al4_4 O1_10 1_555 1_555
O11_7 Al4_4 1_555 1_555
Al4_2 O3_9 1_555 1_555
N3_8 C3_6 1_555 1_555
C15_8 C16_8 1_555 1_555
C6_8 H1_8 1_555 1_555
C5_8 H2_8 1_555 1_555
C9_10 H3_10 1_555 1_555
C8_10 H4_10 1_555 1_555
C16_8 H5_8 1_555 1_555
C12_10 H6_10 1_555 1_555
C13_10 H7_10 1_555 1_555
C15_8 H8_8 1_555 1_555
C19_6 H9_6 1_555 1_555
C23_6 H10_6 1_555 1_555
N2_9 C2_9 1_555 1_555
C11_9 C2_9 1_555 1_555
C12_11 C11_9 1_555 1_555
C13_11 C12_11 1_555 1_555
C14_11 C13_11 1_555 1_555
C15_9 C14_11 1_555 1_555
C16_9 C11_9 1_555 1_555
C17_11 C14_11 1_555 1_555
O9_2 C17_11 1_555 1_555
O4_7 C17_11 1_555 1_555
Al4_2 O4_7 1_555 1_555
C15_9 C16_9 1_555 1_555
C16_9 H5_9 1_555 1_555
C12_11 H6_11 1_555 1_555
C13_11 H7_11 1_555 1_555
C15_9 H8_9 1_555 1_555
N1_9 C1_9 1_555 1_555
N3_9 C1_9 1_555 1_555
C1_9 C4_9 1_555 1_555
C4_9 C5_9 1_555 1_555
C5_9 C6_9 1_555 1_555
C6_9 C7_11 1_555 1_555
C7_11 C8_11 1_555 1_555
C8_11 C9_11 1_555 1_555
C9_11 C4_9 1_555 1_555
C10_11 C7_11 1_555 1_555
O1_11 C10_11 1_555 1_555
O8_3 C10_11 1_555 1_555
Al4 O1_11 1_555 1_555
O11_3 Al4 1_555 1_555
O9_6 Al4 1_555 1_555
O10_7 Al4 1_555 1_555
C6_9 H1_9 1_555 1_555
C5_9 H2_9 1_555 1_555
C9_11 H3_11 1_555 1_555
C8_11 H4_11 1_555 1_555
N1_10 C1_10 1_555 1_555
N2_10 C2_10 1_555 1_555
N3_10 C1_10 1_555 1_555
C1_10 C4_10 1_555 1_555
C2_10 N1_10 1_555 1_555
C3_7 N2_10 1_555 1_555
C4_10 C5_10 1_555 1_555
C5_10 C6_10 1_555 1_555
C6_10 C7_12 1_555 1_555
C7_12 C8_12 1_555 1_555
C8_12 C9_12 1_555 1_555
C9_12 C4_10 1_555 1_555
C10_12 C7_12 1_555 1_555
C11_10 C2_10 1_555 1_555
C12_12 C11_10 1_555 1_555
C13_12 C12_12 1_555 1_555
C14_12 C13_12 1_555 1_555
C15_10 C14_12 1_555 1_555
C16_10 C11_10 1_555 1_555
C17_12 C14_12 1_555 1_555
C18_7 C3_7 1_555 1_555
C19_7 C18_7 1_555 1_555
C23_7 C18_7 1_555 1_555
O1_12 C10_12 1_555 1_555
O8_2 C10_12 1_555 1_555
O9_3 C17_12 1_555 1_555
O4_8 C17_12 1_555 1_555
Al4_5 O1_12 1_555 1_555
O11_2 Al4_5 1_555 1_555
O9_7 Al4_5 1_555 1_555
O10_8 Al4_5 1_555 1_555
Al4_3 O4_8 1_555 1_555
N3_10 C3_7 1_555 1_555
C15_10 C16_10 1_555 1_555
C6_10 H1_10 1_555 1_555
C5_10 H2_10 1_555 1_555
C9_12 H3_12 1_555 1_555
C8_12 H4_12 1_555 1_555
C16_10 H5_10 1_555 1_555
C12_12 H6_12 1_555 1_555
C13_12 H7_12 1_555 1_555
C15_10 H8_10 1_555 1_555
C19_7 H9_7 1_555 1_555
C23_7 H10_7 1_555 1_555
C7_13 C8_13 1_555 1_555
C8_13 C9_13 1_555 1_555
C10_13 C7_13 1_555 1_555
O1_13 C10_13 1_555 1_555
O8_8 C10_13 1_555 1_555
Al4_2 O1_13 1_555 1_555
O11_8 Al4_2 1_555 1_555
C9_13 H3_13 1_555 1_555
C8_13 H4_13 1_555 1_555
C13_13 C12_13 1_555 1_555
C14_13 C13_13 1_555 1_555
C17_13 C14_13 1_555 1_555
O9 C17_13 1_555 1_555
O10_7 C17_13 1_555 1_555
C12_13 H6_13 1_555 1_555
C13_13 H7_13 1_555 1_555
N1_11 C1_11 1_555 1_555
N2_11 C2_11 1_555 1_555
N3_11 C1_11 1_555 1_555
C1_11 C4_11 1_555 1_555
C2_11 N1_11 1_555 1_555
C3_8 N2_11 1_555 1_555
C4_11 C5_11 1_555 1_555
C5_11 C6_11 1_555 1_555
C6_11 C7_14 1_555 1_555
C7_14 C8_14 1_555 1_555
C8_14 C9_14 1_555 1_555
C9_14 C4_11 1_555 1_555
C10_14 C7_14 1_555 1_555
C11_11 C2_11 1_555 1_555
C12_14 C11_11 1_555 1_555
C13_14 C12_14 1_555 1_555
C14_14 C13_14 1_555 1_555
C15_11 C14_14 1_555 1_555
C16_11 C11_11 1_555 1_555
C17_14 C14_14 1_555 1_555
C18_8 C3_8 1_555 1_555
C19_8 C18_8 1_555 1_555
C20_4 C19_8 1_555 1_555
C21_4 C20_4 1_555 1_555
C22_4 C21_4 1_555 1_555
C23_8 C18_8 1_555 1_555
O1_14 C10_14 1_555 1_555
O8 C10_14 1_555 1_555
O9_5 C17_14 1_555 1_555
N3_11 C3_8 1_555 1_555
C15_11 C16_11 1_555 1_555
C22_4 C23_8 1_555 1_555
C6_11 H1_11 1_555 1_555
C5_11 H2_11 1_555 1_555
C9_14 H3_14 1_555 1_555
C16_11 H5_11 1_555 1_555
C12_14 H6_14 1_555 1_555
C15_11 H8_11 1_555 1_555
C19_8 H9_8 1_555 1_555
C23_8 H10_8 1_555 1_555
C20_4 H11_4 1_555 1_555
C22_4 H13_4 1_555 1_555
C7_15 C8_15 1_555 1_555
C8_15 C9_15 1_555 1_555
C10_15 C7_15 1_555 1_555
O1_15 C10_15 1_555 1_555
O8_4 C10_15 1_555 1_555
Al3_2 O1_15 1_555 1_555
O11_4 Al3_2 1_555 1_555
C9_15 H3_15 1_555 1_555
C8_15 H4_15 1_555 1_555
C13_15 C12_15 1_555 1_555
C14_15 C13_15 1_555 1_555
C17_15 C14_15 1_555 1_555
O9_7 C17_15 1_555 1_555
O10_2 C17_15 1_555 1_555
C12_15 H6_15 1_555 1_555
C13_15 H7_15 1_555 1_555
N1_12 C1_12 1_555 1_555
N3_12 C1_12 1_555 1_555
C1_12 C4_12 1_555 1_555
C4_12 C5_12 1_555 1_555
C5_12 C6_12 1_555 1_555
C6_12 C7_16 1_555 1_555
C7_16 C8_16 1_555 1_555
C8_16 C9_16 1_555 1_555
C9_16 C4_12 1_555 1_555
C10_16 C7_16 1_555 1_555
O1_16 C10_16 1_555 1_555
O8_5 C10_16 1_555 1_555
Al3_3 O1_16 1_555 1_555
O11_5 Al3_3 1_555 1_555
C6_12 H1_12 1_555 1_555
C5_12 H2_12 1_555 1_555
C9_16 H3_16 1_555 1_555
C8_16 H4_16 1_555 1_555
N2_12 C2_12 1_555 1_555
C11_12 C2_12 1_555 1_555
C12_16 C11_12 1_555 1_555
C13_16 C12_16 1_555 1_555
C14_16 C13_16 1_555 1_555
C15_12 C14_16 1_555 1_555
C16_12 C11_12 1_555 1_555
C17_16 C14_16 1_555 1_555
O9_6 C17_16 1_555 1_555
O10_3 C17_16 1_555 1_555
C15_12 C16_12 1_555 1_555
C16_12 H5_12 1_555 1_555
C12_16 H6_16 1_555 1_555
C13_16 H7_16 1_555 1_555
C15_12 H8_12 1_555 1_555
C21_5 C20_5 1_555 1_555
C22_5 C21_5 1_555 1_555
C24 C21_5 1_555 1_555
O5 C24 1_555 1_555
O6 C24 1_555 1_555
C20_5 H11_5 1_555 1_555
O6 H12 1_555 1_555
C22_5 H13_5 1_555 1_555
C19_9 C18_9 1_555 1_555
C20_6 C19_9 1_555 1_555
C21_6 C20_6 1_555 1_555
C24_2 C21_6 1_555 1_555
O5_2 C24_2 1_555 1_555
C19_9 H9_9 1_555 1_555
C20_6 H11_6 1_555 1_555
C22_6 C23_9 1_555 1_555
C23_9 H10_9 1_555 1_555
O6_2 H12_2 1_555 1_555
C22_6 H13_6 1_555 1_555
N2_13 C2_13 1_555 1_555
C11_13 C2_13 1_555 1_555
C16_13 C11_13 1_555 1_555
C19_10 C18_10 1_555 1_555
C20_7 C19_10 1_555 1_555
C21_7 C20_7 1_555 1_555
C24_3 C21_7 1_555 1_555
O5_3 C24_3 1_555 1_555
C15_13 C16_13 1_555 1_555
C16_13 H5_13 1_555 1_555
C15_13 H8_13 1_555 1_555
C19_10 H9_10 1_555 1_555
C20_7 H11_7 1_555 1_555
N1_13 C1_13 1_555 1_555
N3_13 C1_13 1_555 1_555
C1_13 C4_13 1_555 1_555
C4_13 C5_13 1_555 1_555
C5_13 C6_13 1_555 1_555
N3_13 C3_10 1_555 1_555
C22_7 C23_10 1_555 1_555
C6_13 H1_13 1_555 1_555
C5_13 H2_13 1_555 1_555
C23_10 H10_10 1_555 1_555
O6_3 H12_3 1_555 1_555
C22_7 H13_7 1_555 1_555
O5_4 C24_4 1_555 1_555
O6_4 C24_4 1_555 1_555
O6_4 H12_4 1_555 1_555
N2_14 C2_14 1_555 1_555
C11_14 C2_14 1_555 1_555
C16_14 C11_14 1_555 1_555
C19_11 C18_11 1_555 1_555
C20_8 C19_11 1_555 1_555
C21_8 C20_8 1_555 1_555
C24_5 C21_8 1_555 1_555
O5_5 C24_5 1_555 1_555
C15_14 C16_14 1_555 1_555
C16_14 H5_14 1_555 1_555
C15_14 H8_14 1_555 1_555
C19_11 H9_11 1_555 1_555
C20_8 H11_8 1_555 1_555
N1_14 C1_14 1_555 1_555
N3_14 C1_14 1_555 1_555
C1_14 C4_14 1_555 1_555
C4_14 C5_14 1_555 1_555
C5_14 C6_14 1_555 1_555
N3_14 C3_11 1_555 1_555
C22_8 C23_11 1_555 1_555
C6_14 H1_14 1_555 1_555
C5_14 H2_14 1_555 1_555
C23_11 H10_11 1_555 1_555
O6_5 H12_5 1_555 1_555
C22_8 H13_8 1_555 1_555
C21_9 C20_9 1_555 1_555
C22_9 C21_9 1_555 1_555
C24_6 C21_9 1_555 1_555
O5_6 C24_6 1_555 1_555
O6_6 C24_6 1_555 1_555
C20_9 H11_9 1_555 1_555
O6_6 H12_6 1_555 1_555
C22_9 H13_9 1_555 1_555
C22_10 C23_12 1_555 1_555
C23_12 H10_12 1_555 1_555
O6_7 H12_7 1_555 1_555
C22_10 H13_10 1_555 1_555
C19_12 C18_12 1_555 1_555
C20_10 C19_12 1_555 1_555
C21_10 C20_10 1_555 1_555
C24_7 C21_10 1_555 1_555
O5_7 C24_7 1_555 1_555
C19_12 H9_12 1_555 1_555
C20_10 H11_10 1_555 1_555
O5_8 C24_8 1_555 1_555
O6_8 C24_8 1_555 1_555
O6_8 H12_8 1_555 1_555
O5_9 C24_9 1_555 1_555
O6_9 C24_9 1_555 1_555
O6_9 H12_9 1_555 1_555
C21_11 C20_11 1_555 1_555
C22_11 C21_11 1_555 1_555
C24_10 C21_11 1_555 1_555
O5_10 C24_10 1_555 1_555
O6_10 C24_10 1_555 1_555
C20_11 H11_11 1_555 1_555
O6_10 H12_10 1_555 1_555
C22_11 H13_11 1_555 1_555
C19_13 C18_13 1_555 1_555
C20_12 C19_13 1_555 1_555
C21_12 C20_12 1_555 1_555
C24_11 C21_12 1_555 1_555
O5_11 C24_11 1_555 1_555
C19_13 H9_13 1_555 1_555
C20_12 H11_12 1_555 1_555
C22_12 C23_13 1_555 1_555
C23_13 H10_13 1_555 1_555
O6_11 H12_11 1_555 1_555
C22_12 H13_12 1_555 1_555
C21_13 C20_13 1_555 1_555
C22_13 C21_13 1_555 1_555
C24_12 C21_13 1_555 1_555
O5_12 C24_12 1_555 1_555
O6_12 C24_12 1_555 1_555
C20_13 H11_13 1_555 1_555
O6_12 H12_12 1_555 1_555
C22_13 H13_13 1_555 1_555
N1_15 C1_15 1_555 1_555
N3_15 C1_15 1_555 1_555
C1_15 C4_15 1_555 1_555
C4_15 C5_15 1_555 1_555
C5_15 C6_15 1_555 1_555
N3_15 C3_14 1_555 1_555
C22_14 C23_14 1_555 1_555
C6_15 H1_15 1_555 1_555
C5_15 H2_15 1_555 1_555
C23_14 H10_14 1_555 1_555
O6_13 H12_13 1_555 1_555
C22_14 H13_14 1_555 1_555
N2_15 C2_15 1_555 1_555
C11_15 C2_15 1_555 1_555
C16_15 C11_15 1_555 1_555
C19_14 C18_14 1_555 1_555
C20_14 C19_14 1_555 1_555
C21_14 C20_14 1_555 1_555
C24_13 C21_14 1_555 1_555
O5_13 C24_13 1_555 1_555
C15_15 C16_15 1_555 1_555
C16_15 H5_15 1_555 1_555
C15_15 H8_15 1_555 1_555
C19_14 H9_14 1_555 1_555
C20_14 H11_14 1_555 1_555
O5_14 C24_14 1_555 1_555
O6_14 C24_14 1_555 1_555
O6_14 H12_14 1_555 1_555
N1_16 C1_16 1_555 1_555
N3_16 C1_16 1_555 1_555
C1_16 C4_16 1_555 1_555
C4_16 C5_16 1_555 1_555
C5_16 C6_16 1_555 1_555
N3_16 C3_15 1_555 1_555
C22_15 C23_15 1_555 1_555
C6_16 H1_16 1_555 1_555
C5_16 H2_16 1_555 1_555
C23_15 H10_15 1_555 1_555
O6_15 H12_15 1_555 1_555
C22_15 H13_15 1_555 1_555
N2_16 C2_16 1_555 1_555
C11_16 C2_16 1_555 1_555
C16_16 C11_16 1_555 1_555
C19_15 C18_15 1_555 1_555
C20_15 C19_15 1_555 1_555
C21_15 C20_15 1_555 1_555
C24_15 C21_15 1_555 1_555
O5_15 C24_15 1_555 1_555
C15_16 C16_16 1_555 1_555
C16_16 H5_16 1_555 1_555
C15_16 H8_16 1_555 1_555
C19_15 H9_15 1_555 1_555
C20_15 H11_15 1_555 1_555
C22_16 C23_16 1_555 1_555
C23_16 H10_16 1_555 1_555
O6_16 H12_16 1_555 1_555
C22_16 H13_16 1_555 1_555
C19_16 C18_16 1_555 1_555
C20_16 C19_16 1_555 1_555
C21_16 C20_16 1_555 1_555
C24_16 C21_16 1_555 1_555
O5_16 C24_16 1_555 1_555
C19_16 H9_16 1_555 1_555
C20_16 H11_16 1_555 1_555

#END
