
###############################################################################
#
# This file contains modified crystal structure data generated from the
# MOF subset of the Cambridge Structural Database (CSD) v543 
# hosted by the Cambridge Crystallographic Data Centre (CCDC).
#
# This work is licensed under the Creative Commons
# Attribution-NonCommercial-ShareAlike 4.0 International License.
# To view a copy of this license, visit
# http://creativecommons.org/licenses/by-nc-sa/4.0/
# or send a letter to
# Creative Commons, PO Box 1866, Mountain View, CA 94042, USA.
#
# CIF created using the CSD Python API on 29 September 2022
# The structure has been converted into the P1 space group
# The structure has a 3D framework
# The original CSD entry VARDAX is in the cubic crystal system
# The framework has been calculated to contain at least 10.0% void space
# The void calculation uses a probe of radius 1.32A, grid spacing 0.4
# The framework is charged, counterions have been retained in the structure
#
###############################################################################

data_VARDAX
_chemical_formula_moiety         '(C384 H192 O96 U4 24-)n'
_symmetry_cell_setting           triclinic
_symmetry_space_group_name_H-M   'P 1'
_symmetry_Int_Tables_number      1
_space_group_name_Hall           'P 1'
loop_
_symmetry_equiv_pos_site_id
_symmetry_equiv_pos_as_xyz
1 x,y,z
_cell_length_a                   23.2411(5)
_cell_length_b                   23.2411(5)
_cell_length_c                   23.2411(5)
_cell_angle_alpha                90
_cell_angle_beta                 90
_cell_angle_gamma                90
_cell_volume                     12553.7
loop_
_atom_site_label
_atom_site_type_symbol
_atom_site_fract_x
_atom_site_fract_y
_atom_site_fract_z
U1 U 0.750000 0.250000 0.250000
O1 O 0.79698(12) 0.34854(10) 0.25090(11)
C1 C 0.750000 0.3752(2) 0.250000
C2 C 0.750000 0.4399(2) 0.250000
C3 C 0.7240(2) 0.46910(18) 0.2956(2)
C4 C 0.6994(2) 0.4403(2) 0.3442(2)
H1 H 0.699441 0.400332 0.345244
C5 C 0.6761(3) 0.4698(2) 0.3883(2)
H2 H 0.659833 0.449962 0.419030
O2 O 0.70302(12) 0.34854(10) 0.24910(11)
C6 C 0.7760(2) 0.46910(18) 0.2044(2)
C7 C 0.8006(2) 0.4403(2) 0.1558(2)
H3 H 0.800559 0.400332 0.154756
C8 C 0.8239(3) 0.4698(2) 0.1117(2)
H4 H 0.840167 0.449962 0.080970
O3 O 0.79698(12) 0.65146(10) 0.25090(11)
C9 C 0.750000 0.6248(2) 0.250000
C10 C 0.750000 0.5601(2) 0.250000
C11 C 0.7240(2) 0.53090(18) 0.2956(2)
C12 C 0.6994(2) 0.5597(2) 0.3442(2)
H5 H 0.699441 0.599668 0.345244
C13 C 0.6761(3) 0.5302(2) 0.3883(2)
H6 H 0.659833 0.550038 0.419030
O4 O 0.70302(12) 0.65146(10) 0.24910(11)
C14 C 0.7760(2) 0.53090(18) 0.2044(2)
C15 C 0.8006(2) 0.5597(2) 0.1558(2)
H7 H 0.800559 0.599668 0.154756
C16 C 0.8239(3) 0.5302(2) 0.1117(2)
H8 H 0.840167 0.550038 0.080970
O5 O 0.74910(11) 0.20302(12) 0.34854(10)
C17 C 0.750000 0.250000 0.3752(2)
C18 C 0.750000 0.250000 0.4399(2)
C19 C 0.7044(2) 0.2760(2) 0.46910(18)
C20 C 0.6558(2) 0.3006(2) 0.4403(2)
H9 H 0.654756 0.300559 0.400332
C21 C 0.6117(2) 0.3239(3) 0.4698(2)
H10 H 0.580970 0.340167 0.449962
O6 O 0.75090(11) 0.29698(12) 0.34854(10)
C22 C 0.7956(2) 0.2240(2) 0.46910(18)
C23 C 0.8442(2) 0.1994(2) 0.4403(2)
H11 H 0.845244 0.199441 0.400332
C24 C 0.8883(2) 0.1761(3) 0.4698(2)
H12 H 0.919030 0.159833 0.449962
O7 O 0.74910(11) 0.20302(12) 0.65146(10)
C25 C 0.750000 0.250000 0.6248(2)
C26 C 0.750000 0.250000 0.5601(2)
C27 C 0.7044(2) 0.2760(2) 0.53090(18)
C28 C 0.6558(2) 0.3006(2) 0.5597(2)
H13 H 0.654756 0.300559 0.599668
C29 C 0.6117(2) 0.3239(3) 0.5302(2)
H14 H 0.580970 0.340167 0.550038
O8 O 0.75090(11) 0.29698(12) 0.65146(10)
C30 C 0.7956(2) 0.2240(2) 0.53090(18)
C31 C 0.8442(2) 0.1994(2) 0.5597(2)
H15 H 0.845244 0.199441 0.599668
C32 C 0.8883(2) 0.1761(3) 0.5302(2)
H16 H 0.919030 0.159833 0.550038
O9 O 0.65146(10) 0.25090(11) 0.20302(12)
C33 C 0.6248(2) 0.250000 0.250000
C34 C 0.5601(2) 0.250000 0.250000
C35 C 0.53090(18) 0.2956(2) 0.2760(2)
C36 C 0.5597(2) 0.3442(2) 0.3006(2)
H17 H 0.599668 0.345244 0.300559
C37 C 0.5302(2) 0.3883(2) 0.3239(3)
H18 H 0.550038 0.419030 0.340167
O10 O 0.65146(10) 0.24910(11) 0.29698(12)
C38 C 0.53090(18) 0.2044(2) 0.2240(2)
C39 C 0.5597(2) 0.1558(2) 0.1994(2)
H19 H 0.599668 0.154756 0.199441
C40 C 0.5302(2) 0.1117(2) 0.1761(3)
H20 H 0.550038 0.080970 0.159833
O11 O 0.34854(10) 0.25090(11) 0.20302(12)
C41 C 0.3752(2) 0.250000 0.250000
C42 C 0.4399(2) 0.250000 0.250000
C43 C 0.46910(18) 0.2956(2) 0.2760(2)
C44 C 0.4403(2) 0.3442(2) 0.3006(2)
H21 H 0.400332 0.345244 0.300559
C45 C 0.4698(2) 0.3883(2) 0.3239(3)
H22 H 0.449962 0.419030 0.340167
O12 O 0.34854(10) 0.24910(11) 0.29698(12)
C46 C 0.46910(18) 0.2044(2) 0.2240(2)
C47 C 0.4403(2) 0.1558(2) 0.1994(2)
H23 H 0.400332 0.154756 0.199441
C48 C 0.4698(2) 0.1117(2) 0.1761(3)
H24 H 0.449962 0.080970 0.159833
U2 U 0.750000 0.250000 0.750000
U3 U 0.750000 0.750000 0.250000
U4 U 0.250000 0.250000 0.250000
O13 O 0.79698(12) 0.15146(10) 0.24910(11)
O14 O 0.74910(11) 0.29698(12) 0.15146(10)
O15 O 0.75090(11) 0.20302(12) 0.15146(10)
O16 O 0.84854(10) 0.25090(11) 0.29698(12)
O17 O 0.70302(12) 0.15146(10) 0.25090(11)
O18 O 0.84854(10) 0.24910(11) 0.20302(12)
U1_2 U 0.250000 0.750000 0.250000
O1_2 O 0.20302(12) 0.65146(10) 0.25090(11)
C1_2 C 0.250000 0.6248(2) 0.250000
C2_2 C 0.250000 0.5601(2) 0.250000
C3_2 C 0.2760(2) 0.53090(18) 0.2956(2)
C4_2 C 0.3006(2) 0.5597(2) 0.3442(2)
H1_2 H 0.300559 0.599668 0.345244
C5_2 C 0.3239(3) 0.5302(2) 0.3883(2)
H2_2 H 0.340167 0.550038 0.419030
O2_2 O 0.29698(12) 0.65146(10) 0.24910(11)
C6_2 C 0.2240(2) 0.53090(18) 0.2044(2)
C7_2 C 0.1994(2) 0.5597(2) 0.1558(2)
H3_2 H 0.199441 0.599668 0.154756
C8_2 C 0.1761(3) 0.5302(2) 0.1117(2)
H4_2 H 0.159833 0.550038 0.080970
O3_2 O 0.20302(12) 0.34854(10) 0.25090(11)
C9_2 C 0.250000 0.3752(2) 0.250000
C10_2 C 0.250000 0.4399(2) 0.250000
C11_2 C 0.2760(2) 0.46910(18) 0.2956(2)
C12_2 C 0.3006(2) 0.4403(2) 0.3442(2)
H5_2 H 0.300559 0.400332 0.345244
C13_2 C 0.3239(3) 0.4698(2) 0.3883(2)
H6_2 H 0.340167 0.449962 0.419030
O4_2 O 0.29698(12) 0.34854(10) 0.24910(11)
C14_2 C 0.2240(2) 0.46910(18) 0.2044(2)
C15_2 C 0.1994(2) 0.4403(2) 0.1558(2)
H7_2 H 0.199441 0.400332 0.154756
C16_2 C 0.1761(3) 0.4698(2) 0.1117(2)
H8_2 H 0.159833 0.449962 0.080970
O5_2 O 0.25090(11) 0.79698(12) 0.34854(10)
C17_2 C 0.250000 0.750000 0.3752(2)
C18_2 C 0.250000 0.750000 0.4399(2)
C19_2 C 0.2956(2) 0.7240(2) 0.46910(18)
C20_2 C 0.3442(2) 0.6994(2) 0.4403(2)
H9_2 H 0.345244 0.699441 0.400332
C21_2 C 0.3883(2) 0.6761(3) 0.4698(2)
H10_2 H 0.419030 0.659833 0.449962
O6_2 O 0.24910(11) 0.70302(12) 0.34854(10)
C22_2 C 0.2044(2) 0.7760(2) 0.46910(18)
C23_2 C 0.1558(2) 0.8006(2) 0.4403(2)
H11_2 H 0.154756 0.800559 0.400332
C24_2 C 0.1117(2) 0.8239(3) 0.4698(2)
H12_2 H 0.080970 0.840167 0.449962
O7_2 O 0.25090(11) 0.79698(12) 0.65146(10)
C25_2 C 0.250000 0.750000 0.6248(2)
C26_2 C 0.250000 0.750000 0.5601(2)
C27_2 C 0.2956(2) 0.7240(2) 0.53090(18)
C28_2 C 0.3442(2) 0.6994(2) 0.5597(2)
H13_2 H 0.345244 0.699441 0.599668
C29_2 C 0.3883(2) 0.6761(3) 0.5302(2)
H14_2 H 0.419030 0.659833 0.550038
O8_2 O 0.24910(11) 0.70302(12) 0.65146(10)
C30_2 C 0.2044(2) 0.7760(2) 0.53090(18)
C31_2 C 0.1558(2) 0.8006(2) 0.5597(2)
H15_2 H 0.154756 0.800559 0.599668
C32_2 C 0.1117(2) 0.8239(3) 0.5302(2)
H16_2 H 0.080970 0.840167 0.550038
O9_2 O 0.34854(10) 0.74910(11) 0.20302(12)
C33_2 C 0.3752(2) 0.750000 0.250000
C34_2 C 0.4399(2) 0.750000 0.250000
C35_2 C 0.46910(18) 0.7044(2) 0.2760(2)
C36_2 C 0.4403(2) 0.6558(2) 0.3006(2)
H17_2 H 0.400332 0.654756 0.300559
C37_2 C 0.4698(2) 0.6117(2) 0.3239(3)
H18_2 H 0.449962 0.580970 0.340167
O10_2 O 0.34854(10) 0.75090(11) 0.29698(12)
C38_2 C 0.46910(18) 0.7956(2) 0.2240(2)
C39_2 C 0.4403(2) 0.8442(2) 0.1994(2)
H19_2 H 0.400332 0.845244 0.199441
C40_2 C 0.4698(2) 0.8883(2) 0.1761(3)
H20_2 H 0.449962 0.919030 0.159833
O11_2 O 0.65146(10) 0.74910(11) 0.20302(12)
C41_2 C 0.6248(2) 0.750000 0.250000
C42_2 C 0.5601(2) 0.750000 0.250000
C43_2 C 0.53090(18) 0.7044(2) 0.2760(2)
C44_2 C 0.5597(2) 0.6558(2) 0.3006(2)
H21_2 H 0.599668 0.654756 0.300559
C45_2 C 0.5302(2) 0.6117(2) 0.3239(3)
H22_2 H 0.550038 0.580970 0.340167
O12_2 O 0.65146(10) 0.75090(11) 0.29698(12)
C46_2 C 0.53090(18) 0.7956(2) 0.2240(2)
C47_2 C 0.5597(2) 0.8442(2) 0.1994(2)
H23_2 H 0.599668 0.845244 0.199441
C48_2 C 0.5302(2) 0.8883(2) 0.1761(3)
H24_2 H 0.550038 0.919030 0.159833
U2_2 U 0.250000 0.750000 0.750000
O13_2 O 0.20302(12) 0.84854(10) 0.24910(11)
O14_2 O 0.25090(11) 0.70302(12) 0.15146(10)
O15_2 O 0.24910(11) 0.79698(12) 0.15146(10)
O16_2 O 0.15146(10) 0.74910(11) 0.29698(12)
O17_2 O 0.29698(12) 0.84854(10) 0.25090(11)
O18_2 O 0.15146(10) 0.75090(11) 0.20302(12)
U1_3 U 0.250000 0.250000 0.750000
O1_3 O 0.20302(12) 0.34854(10) 0.74910(11)
C1_3 C 0.250000 0.3752(2) 0.750000
C2_3 C 0.250000 0.4399(2) 0.750000
C3_3 C 0.2760(2) 0.46910(18) 0.7044(2)
C4_3 C 0.3006(2) 0.4403(2) 0.6558(2)
H1_3 H 0.300559 0.400332 0.654756
C5_3 C 0.3239(3) 0.4698(2) 0.6117(2)
H2_3 H 0.340167 0.449962 0.580970
O2_3 O 0.29698(12) 0.34854(10) 0.75090(11)
C6_3 C 0.2240(2) 0.46910(18) 0.7956(2)
C7_3 C 0.1994(2) 0.4403(2) 0.8442(2)
H3_3 H 0.199441 0.400332 0.845244
C8_3 C 0.1761(3) 0.4698(2) 0.8883(2)
H4_3 H 0.159833 0.449962 0.919030
O3_3 O 0.20302(12) 0.65146(10) 0.74910(11)
C9_3 C 0.250000 0.6248(2) 0.750000
C10_3 C 0.250000 0.5601(2) 0.750000
C11_3 C 0.2760(2) 0.53090(18) 0.7044(2)
C12_3 C 0.3006(2) 0.5597(2) 0.6558(2)
H5_3 H 0.300559 0.599668 0.654756
C13_3 C 0.3239(3) 0.5302(2) 0.6117(2)
H6_3 H 0.340167 0.550038 0.580970
O4_3 O 0.29698(12) 0.65146(10) 0.75090(11)
C14_3 C 0.2240(2) 0.53090(18) 0.7956(2)
C15_3 C 0.1994(2) 0.5597(2) 0.8442(2)
H7_3 H 0.199441 0.599668 0.845244
C16_3 C 0.1761(3) 0.5302(2) 0.8883(2)
H8_3 H 0.159833 0.550038 0.919030
O5_3 O 0.25090(11) 0.20302(12) 0.65146(10)
C17_3 C 0.250000 0.250000 0.6248(2)
C18_3 C 0.250000 0.250000 0.5601(2)
C19_3 C 0.2956(2) 0.2760(2) 0.53090(18)
C20_3 C 0.3442(2) 0.3006(2) 0.5597(2)
H9_3 H 0.345244 0.300559 0.599668
C21_3 C 0.3883(2) 0.3239(3) 0.5302(2)
H10_3 H 0.419030 0.340167 0.550038
O6_3 O 0.24910(11) 0.29698(12) 0.65146(10)
C22_3 C 0.2044(2) 0.2240(2) 0.53090(18)
C23_3 C 0.1558(2) 0.1994(2) 0.5597(2)
H11_3 H 0.154756 0.199441 0.599668
C24_3 C 0.1117(2) 0.1761(3) 0.5302(2)
H12_3 H 0.080970 0.159833 0.550038
O7_3 O 0.25090(11) 0.20302(12) 0.34854(10)
C25_3 C 0.250000 0.250000 0.3752(2)
C26_3 C 0.250000 0.250000 0.4399(2)
C27_3 C 0.2956(2) 0.2760(2) 0.46910(18)
C28_3 C 0.3442(2) 0.3006(2) 0.4403(2)
H13_3 H 0.345244 0.300559 0.400332
C29_3 C 0.3883(2) 0.3239(3) 0.4698(2)
H14_3 H 0.419030 0.340167 0.449962
O8_3 O 0.24910(11) 0.29698(12) 0.34854(10)
C30_3 C 0.2044(2) 0.2240(2) 0.46910(18)
C31_3 C 0.1558(2) 0.1994(2) 0.4403(2)
H15_3 H 0.154756 0.199441 0.400332
C32_3 C 0.1117(2) 0.1761(3) 0.4698(2)
H16_3 H 0.080970 0.159833 0.449962
O9_3 O 0.34854(10) 0.25090(11) 0.79698(12)
C33_3 C 0.3752(2) 0.250000 0.750000
C34_3 C 0.4399(2) 0.250000 0.750000
C35_3 C 0.46910(18) 0.2956(2) 0.7240(2)
C36_3 C 0.4403(2) 0.3442(2) 0.6994(2)
H17_3 H 0.400332 0.345244 0.699441
C37_3 C 0.4698(2) 0.3883(2) 0.6761(3)
H18_3 H 0.449962 0.419030 0.659833
O10_3 O 0.34854(10) 0.24910(11) 0.70302(12)
C38_3 C 0.46910(18) 0.2044(2) 0.7760(2)
C39_3 C 0.4403(2) 0.1558(2) 0.8006(2)
H19_3 H 0.400332 0.154756 0.800559
C40_3 C 0.4698(2) 0.1117(2) 0.8239(3)
H20_3 H 0.449962 0.080970 0.840167
O11_3 O 0.65146(10) 0.25090(11) 0.79698(12)
C41_3 C 0.6248(2) 0.250000 0.750000
C42_3 C 0.5601(2) 0.250000 0.750000
C43_3 C 0.53090(18) 0.2956(2) 0.7240(2)
C44_3 C 0.5597(2) 0.3442(2) 0.6994(2)
H21_3 H 0.599668 0.345244 0.699441
C45_3 C 0.5302(2) 0.3883(2) 0.6761(3)
H22_3 H 0.550038 0.419030 0.659833
O12_3 O 0.65146(10) 0.24910(11) 0.70302(12)
C46_3 C 0.53090(18) 0.2044(2) 0.7760(2)
C47_3 C 0.5597(2) 0.1558(2) 0.8006(2)
H23_3 H 0.599668 0.154756 0.800559
C48_3 C 0.5302(2) 0.1117(2) 0.8239(3)
H24_3 H 0.550038 0.080970 0.840167
O13_3 O 0.20302(12) 0.15146(10) 0.75090(11)
O14_3 O 0.25090(11) 0.29698(12) 0.84854(10)
O15_3 O 0.24910(11) 0.20302(12) 0.84854(10)
O16_3 O 0.15146(10) 0.25090(11) 0.70302(12)
O17_3 O 0.29698(12) 0.15146(10) 0.74910(11)
O18_3 O 0.15146(10) 0.24910(11) 0.79698(12)
U1_4 U 0.750000 0.750000 0.750000
O1_4 O 0.79698(12) 0.65146(10) 0.74910(11)
C1_4 C 0.750000 0.6248(2) 0.750000
C2_4 C 0.750000 0.5601(2) 0.750000
C3_4 C 0.7240(2) 0.53090(18) 0.7044(2)
C4_4 C 0.6994(2) 0.5597(2) 0.6558(2)
H1_4 H 0.699441 0.599668 0.654756
C5_4 C 0.6761(3) 0.5302(2) 0.6117(2)
H2_4 H 0.659833 0.550038 0.580970
O2_4 O 0.70302(12) 0.65146(10) 0.75090(11)
C6_4 C 0.7760(2) 0.53090(18) 0.7956(2)
C7_4 C 0.8006(2) 0.5597(2) 0.8442(2)
H3_4 H 0.800559 0.599668 0.845244
C8_4 C 0.8239(3) 0.5302(2) 0.8883(2)
H4_4 H 0.840167 0.550038 0.919030
O3_4 O 0.79698(12) 0.34854(10) 0.74910(11)
C9_4 C 0.750000 0.3752(2) 0.750000
C10_4 C 0.750000 0.4399(2) 0.750000
C11_4 C 0.7240(2) 0.46910(18) 0.7044(2)
C12_4 C 0.6994(2) 0.4403(2) 0.6558(2)
H5_4 H 0.699441 0.400332 0.654756
C13_4 C 0.6761(3) 0.4698(2) 0.6117(2)
H6_4 H 0.659833 0.449962 0.580970
O4_4 O 0.70302(12) 0.34854(10) 0.75090(11)
C14_4 C 0.7760(2) 0.46910(18) 0.7956(2)
C15_4 C 0.8006(2) 0.4403(2) 0.8442(2)
H7_4 H 0.800559 0.400332 0.845244
C16_4 C 0.8239(3) 0.4698(2) 0.8883(2)
H8_4 H 0.840167 0.449962 0.919030
O5_4 O 0.74910(11) 0.79698(12) 0.65146(10)
C17_4 C 0.750000 0.750000 0.6248(2)
C18_4 C 0.750000 0.750000 0.5601(2)
C19_4 C 0.7044(2) 0.7240(2) 0.53090(18)
C20_4 C 0.6558(2) 0.6994(2) 0.5597(2)
H9_4 H 0.654756 0.699441 0.599668
C21_4 C 0.6117(2) 0.6761(3) 0.5302(2)
H10_4 H 0.580970 0.659833 0.550038
O6_4 O 0.75090(11) 0.70302(12) 0.65146(10)
C22_4 C 0.7956(2) 0.7760(2) 0.53090(18)
C23_4 C 0.8442(2) 0.8006(2) 0.5597(2)
H11_4 H 0.845244 0.800559 0.599668
C24_4 C 0.8883(2) 0.8239(3) 0.5302(2)
H12_4 H 0.919030 0.840167 0.550038
O7_4 O 0.74910(11) 0.79698(12) 0.34854(10)
C25_4 C 0.750000 0.750000 0.3752(2)
C26_4 C 0.750000 0.750000 0.4399(2)
C27_4 C 0.7044(2) 0.7240(2) 0.46910(18)
C28_4 C 0.6558(2) 0.6994(2) 0.4403(2)
H13_4 H 0.654756 0.699441 0.400332
C29_4 C 0.6117(2) 0.6761(3) 0.4698(2)
H14_4 H 0.580970 0.659833 0.449962
O8_4 O 0.75090(11) 0.70302(12) 0.34854(10)
C30_4 C 0.7956(2) 0.7760(2) 0.46910(18)
C31_4 C 0.8442(2) 0.8006(2) 0.4403(2)
H15_4 H 0.845244 0.800559 0.400332
C32_4 C 0.8883(2) 0.8239(3) 0.4698(2)
H16_4 H 0.919030 0.840167 0.449962
O9_4 O 0.65146(10) 0.74910(11) 0.79698(12)
C33_4 C 0.6248(2) 0.750000 0.750000
C34_4 C 0.5601(2) 0.750000 0.750000
C35_4 C 0.53090(18) 0.7044(2) 0.7240(2)
C36_4 C 0.5597(2) 0.6558(2) 0.6994(2)
H17_4 H 0.599668 0.654756 0.699441
C37_4 C 0.5302(2) 0.6117(2) 0.6761(3)
H18_4 H 0.550038 0.580970 0.659833
O10_4 O 0.65146(10) 0.75090(11) 0.70302(12)
C38_4 C 0.53090(18) 0.7956(2) 0.7760(2)
C39_4 C 0.5597(2) 0.8442(2) 0.8006(2)
H19_4 H 0.599668 0.845244 0.800559
C40_4 C 0.5302(2) 0.8883(2) 0.8239(3)
H20_4 H 0.550038 0.919030 0.840167
O11_4 O 0.34854(10) 0.74910(11) 0.79698(12)
C41_4 C 0.3752(2) 0.750000 0.750000
C42_4 C 0.4399(2) 0.750000 0.750000
C43_4 C 0.46910(18) 0.7044(2) 0.7240(2)
C44_4 C 0.4403(2) 0.6558(2) 0.6994(2)
H21_4 H 0.400332 0.654756 0.699441
C45_4 C 0.4698(2) 0.6117(2) 0.6761(3)
H22_4 H 0.449962 0.580970 0.659833
O12_4 O 0.34854(10) 0.75090(11) 0.70302(12)
C46_4 C 0.46910(18) 0.7956(2) 0.7760(2)
C47_4 C 0.4403(2) 0.8442(2) 0.8006(2)
H23_4 H 0.400332 0.845244 0.800559
C48_4 C 0.4698(2) 0.8883(2) 0.8239(3)
H24_4 H 0.449962 0.919030 0.840167
O13_4 O 0.79698(12) 0.84854(10) 0.75090(11)
O14_4 O 0.74910(11) 0.70302(12) 0.84854(10)
O15_4 O 0.75090(11) 0.79698(12) 0.84854(10)
O16_4 O 0.84854(10) 0.74910(11) 0.70302(12)
O17_4 O 0.70302(12) 0.84854(10) 0.74910(11)
O18_4 O 0.84854(10) 0.75090(11) 0.79698(12)
O3_5 O 0.79698(12) 0.15146(10) 0.75090(11)
C9_5 C 0.750000 0.1248(2) 0.750000
C10_5 C 0.750000 0.0601(2) 0.750000
C11_5 C 0.7240(2) 0.03090(18) 0.7956(2)
C12_5 C 0.6994(2) 0.0597(2) 0.8442(2)
H5_5 H 0.699441 0.099668 0.845244
C13_5 C 0.6761(3) 0.0302(2) 0.8883(2)
H6_5 H 0.659833 0.050038 0.919030
O4_5 O 0.70302(12) 0.15146(10) 0.74910(11)
C14_5 C 0.7760(2) 0.03090(18) 0.7044(2)
C15_5 C 0.8006(2) 0.0597(2) 0.6558(2)
H7_5 H 0.800559 0.099668 0.654756
C16_5 C 0.8239(3) 0.0302(2) 0.6117(2)
H8_5 H 0.840167 0.050038 0.580970
O7_5 O 0.74910(11) 0.70302(12) 0.15146(10)
C25_5 C 0.750000 0.750000 0.1248(2)
C26_5 C 0.750000 0.750000 0.0601(2)
C27_5 C 0.7044(2) 0.7760(2) 0.03090(18)
C28_5 C 0.6558(2) 0.8006(2) 0.0597(2)
H13_5 H 0.654756 0.800559 0.099668
C29_5 C 0.6117(2) 0.8239(3) 0.0302(2)
H14_5 H 0.580970 0.840167 0.050038
O8_5 O 0.75090(11) 0.79698(12) 0.15146(10)
C30_5 C 0.7956(2) 0.7240(2) 0.03090(18)
C31_5 C 0.8442(2) 0.6994(2) 0.0597(2)
H15_5 H 0.845244 0.699441 0.099668
C32_5 C 0.8883(2) 0.6761(3) 0.0302(2)
H16_5 H 0.919030 0.659833 0.050038
C1_5 C 0.750000 0.8752(2) 0.750000
C2_5 C 0.750000 0.9399(2) 0.750000
C3_5 C 0.7240(2) 0.96910(18) 0.7956(2)
C4_5 C 0.6994(2) 0.9403(2) 0.8442(2)
H1_5 H 0.699441 0.900332 0.845244
C5_5 C 0.6761(3) 0.9698(2) 0.8883(2)
H2_5 H 0.659833 0.949962 0.919030
C6_5 C 0.7760(2) 0.96910(18) 0.7044(2)
C7_5 C 0.8006(2) 0.9403(2) 0.6558(2)
H3_5 H 0.800559 0.900332 0.654756
C8_5 C 0.8239(3) 0.9698(2) 0.6117(2)
H4_5 H 0.840167 0.949962 0.580970
C17_5 C 0.750000 0.750000 0.8752(2)
C18_5 C 0.750000 0.750000 0.9399(2)
C19_5 C 0.7044(2) 0.7760(2) 0.96910(18)
C20_5 C 0.6558(2) 0.8006(2) 0.9403(2)
H9_5 H 0.654756 0.800559 0.900332
C21_5 C 0.6117(2) 0.8239(3) 0.9698(2)
H10_5 H 0.580970 0.840167 0.949962
C22_5 C 0.7956(2) 0.7240(2) 0.96910(18)
C23_5 C 0.8442(2) 0.6994(2) 0.9403(2)
H11_5 H 0.845244 0.699441 0.900332
C24_5 C 0.8883(2) 0.6761(3) 0.9698(2)
H12_5 H 0.919030 0.659833 0.949962
O7_6 O 0.25090(11) 0.29698(12) 0.15146(10)
C25_6 C 0.250000 0.250000 0.1248(2)
C26_6 C 0.250000 0.250000 0.0601(2)
C27_6 C 0.2956(2) 0.2240(2) 0.03090(18)
C28_6 C 0.3442(2) 0.1994(2) 0.0597(2)
H13_6 H 0.345244 0.199441 0.099668
C29_6 C 0.3883(2) 0.1761(3) 0.0302(2)
H14_6 H 0.419030 0.159833 0.050038
O8_6 O 0.24910(11) 0.20302(12) 0.15146(10)
C30_6 C 0.2044(2) 0.2760(2) 0.03090(18)
C31_6 C 0.1558(2) 0.3006(2) 0.0597(2)
H15_6 H 0.154756 0.300559 0.099668
C32_6 C 0.1117(2) 0.3239(3) 0.0302(2)
H16_6 H 0.080970 0.340167 0.050038
C1_6 C 0.250000 0.1248(2) 0.750000
C2_6 C 0.250000 0.0601(2) 0.750000
C3_6 C 0.2760(2) 0.03090(18) 0.7956(2)
C4_6 C 0.3006(2) 0.0597(2) 0.8442(2)
H1_6 H 0.300559 0.099668 0.845244
C5_6 C 0.3239(3) 0.0302(2) 0.8883(2)
H2_6 H 0.340167 0.050038 0.919030
C6_6 C 0.2240(2) 0.03090(18) 0.7044(2)
C7_6 C 0.1994(2) 0.0597(2) 0.6558(2)
H3_6 H 0.199441 0.099668 0.654756
C8_6 C 0.1761(3) 0.0302(2) 0.6117(2)
H4_6 H 0.159833 0.050038 0.580970
C17_6 C 0.250000 0.250000 0.8752(2)
C18_6 C 0.250000 0.250000 0.9399(2)
C19_6 C 0.2956(2) 0.2240(2) 0.96910(18)
C20_6 C 0.3442(2) 0.1994(2) 0.9403(2)
H9_6 H 0.345244 0.199441 0.900332
C21_6 C 0.3883(2) 0.1761(3) 0.9698(2)
H10_6 H 0.419030 0.159833 0.949962
C22_6 C 0.2044(2) 0.2760(2) 0.96910(18)
C23_6 C 0.1558(2) 0.3006(2) 0.9403(2)
H11_6 H 0.154756 0.300559 0.900332
C24_6 C 0.1117(2) 0.3239(3) 0.9698(2)
H12_6 H 0.080970 0.340167 0.949962
O3_6 O 0.20302(12) 0.84854(10) 0.75090(11)
C9_6 C 0.250000 0.8752(2) 0.750000
C10_6 C 0.250000 0.9399(2) 0.750000
C11_6 C 0.2760(2) 0.96910(18) 0.7956(2)
C12_6 C 0.3006(2) 0.9403(2) 0.8442(2)
H5_6 H 0.300559 0.900332 0.845244
C13_6 C 0.3239(3) 0.9698(2) 0.8883(2)
H6_6 H 0.340167 0.949962 0.919030
O4_6 O 0.29698(12) 0.84854(10) 0.74910(11)
C14_6 C 0.2240(2) 0.96910(18) 0.7044(2)
C15_6 C 0.1994(2) 0.9403(2) 0.6558(2)
H7_6 H 0.199441 0.900332 0.654756
C16_6 C 0.1761(3) 0.9698(2) 0.6117(2)
H8_6 H 0.159833 0.949962 0.580970
O3_7 O 0.20302(12) 0.15146(10) 0.24910(11)
C9_7 C 0.250000 0.1248(2) 0.250000
C10_7 C 0.250000 0.0601(2) 0.250000
C11_7 C 0.2760(2) 0.03090(18) 0.2044(2)
C12_7 C 0.3006(2) 0.0597(2) 0.1558(2)
H5_7 H 0.300559 0.099668 0.154756
C13_7 C 0.3239(3) 0.0302(2) 0.1117(2)
H6_7 H 0.340167 0.050038 0.080970
O4_7 O 0.29698(12) 0.15146(10) 0.25090(11)
C14_7 C 0.2240(2) 0.03090(18) 0.2956(2)
C15_7 C 0.1994(2) 0.0597(2) 0.3442(2)
H7_7 H 0.199441 0.099668 0.345244
C16_7 C 0.1761(3) 0.0302(2) 0.3883(2)
H8_7 H 0.159833 0.050038 0.419030
C1_7 C 0.250000 0.8752(2) 0.250000
C2_7 C 0.250000 0.9399(2) 0.250000
C3_7 C 0.2760(2) 0.96910(18) 0.2044(2)
C4_7 C 0.3006(2) 0.9403(2) 0.1558(2)
H1_7 H 0.300559 0.900332 0.154756
C5_7 C 0.3239(3) 0.9698(2) 0.1117(2)
H2_7 H 0.340167 0.949962 0.080970
C6_7 C 0.2240(2) 0.96910(18) 0.2956(2)
C7_7 C 0.1994(2) 0.9403(2) 0.3442(2)
H3_7 H 0.199441 0.900332 0.345244
C8_7 C 0.1761(3) 0.9698(2) 0.3883(2)
H4_7 H 0.159833 0.949962 0.419030
C17_7 C 0.250000 0.750000 0.1248(2)
C18_7 C 0.250000 0.750000 0.0601(2)
C19_7 C 0.2956(2) 0.7760(2) 0.03090(18)
C20_7 C 0.3442(2) 0.8006(2) 0.0597(2)
H9_7 H 0.345244 0.800559 0.099668
C21_7 C 0.3883(2) 0.8239(3) 0.0302(2)
H10_7 H 0.419030 0.840167 0.050038
C22_7 C 0.2044(2) 0.7240(2) 0.03090(18)
C23_7 C 0.1558(2) 0.6994(2) 0.0597(2)
H11_7 H 0.154756 0.699441 0.099668
C24_7 C 0.1117(2) 0.6761(3) 0.0302(2)
H12_7 H 0.080970 0.659833 0.050038
O7_7 O 0.25090(11) 0.70302(12) 0.84854(10)
C25_7 C 0.250000 0.750000 0.8752(2)
C26_7 C 0.250000 0.750000 0.9399(2)
C27_7 C 0.2956(2) 0.7760(2) 0.96910(18)
C28_7 C 0.3442(2) 0.8006(2) 0.9403(2)
H13_7 H 0.345244 0.800559 0.900332
C29_7 C 0.3883(2) 0.8239(3) 0.9698(2)
H14_7 H 0.419030 0.840167 0.949962
O8_7 O 0.24910(11) 0.79698(12) 0.84854(10)
C30_7 C 0.2044(2) 0.7240(2) 0.96910(18)
C31_7 C 0.1558(2) 0.6994(2) 0.9403(2)
H15_7 H 0.154756 0.699441 0.900332
C32_7 C 0.1117(2) 0.6761(3) 0.9698(2)
H16_7 H 0.080970 0.659833 0.949962
C1_8 C 0.750000 0.1248(2) 0.250000
C2_8 C 0.750000 0.0601(2) 0.250000
C3_8 C 0.7240(2) 0.03090(18) 0.2044(2)
C4_8 C 0.6994(2) 0.0597(2) 0.1558(2)
H1_8 H 0.699441 0.099668 0.154756
C5_8 C 0.6761(3) 0.0302(2) 0.1117(2)
H2_8 H 0.659833 0.050038 0.080970
C6_8 C 0.7760(2) 0.03090(18) 0.2956(2)
C7_8 C 0.8006(2) 0.0597(2) 0.3442(2)
H3_8 H 0.800559 0.099668 0.345244
C8_8 C 0.8239(3) 0.0302(2) 0.3883(2)
H4_8 H 0.840167 0.050038 0.419030
C17_8 C 0.750000 0.250000 0.1248(2)
C18_8 C 0.750000 0.250000 0.0601(2)
C19_8 C 0.7044(2) 0.2240(2) 0.03090(18)
C20_8 C 0.6558(2) 0.1994(2) 0.0597(2)
H9_8 H 0.654756 0.199441 0.099668
C21_8 C 0.6117(2) 0.1761(3) 0.0302(2)
H10_8 H 0.580970 0.159833 0.050038
C22_8 C 0.7956(2) 0.2760(2) 0.03090(18)
C23_8 C 0.8442(2) 0.3006(2) 0.0597(2)
H11_8 H 0.845244 0.300559 0.099668
C24_8 C 0.8883(2) 0.3239(3) 0.0302(2)
H12_8 H 0.919030 0.340167 0.050038
O7_8 O 0.74910(11) 0.29698(12) 0.84854(10)
C25_8 C 0.750000 0.250000 0.8752(2)
C26_8 C 0.750000 0.250000 0.9399(2)
C27_8 C 0.7044(2) 0.2240(2) 0.96910(18)
C28_8 C 0.6558(2) 0.1994(2) 0.9403(2)
H13_8 H 0.654756 0.199441 0.900332
C29_8 C 0.6117(2) 0.1761(3) 0.9698(2)
H14_8 H 0.580970 0.159833 0.949962
O8_8 O 0.75090(11) 0.20302(12) 0.84854(10)
C30_8 C 0.7956(2) 0.2760(2) 0.96910(18)
C31_8 C 0.8442(2) 0.3006(2) 0.9403(2)
H15_8 H 0.845244 0.300559 0.900332
C32_8 C 0.8883(2) 0.3239(3) 0.9698(2)
H16_8 H 0.919030 0.340167 0.949962
O3_8 O 0.79698(12) 0.84854(10) 0.24910(11)
C9_8 C 0.750000 0.8752(2) 0.250000
C10_8 C 0.750000 0.9399(2) 0.250000
C11_8 C 0.7240(2) 0.96910(18) 0.2044(2)
C12_8 C 0.6994(2) 0.9403(2) 0.1558(2)
H5_8 H 0.699441 0.900332 0.154756
C13_8 C 0.6761(3) 0.9698(2) 0.1117(2)
H6_8 H 0.659833 0.949962 0.080970
O4_8 O 0.70302(12) 0.84854(10) 0.25090(11)
C14_8 C 0.7760(2) 0.96910(18) 0.2956(2)
C15_8 C 0.8006(2) 0.9403(2) 0.3442(2)
H7_8 H 0.800559 0.900332 0.345244
C16_8 C 0.8239(3) 0.9698(2) 0.3883(2)
H8_8 H 0.840167 0.949962 0.419030
C33_5 C 0.1248(2) 0.250000 0.750000
C34_5 C 0.0601(2) 0.250000 0.750000
C35_5 C 0.03090(18) 0.2956(2) 0.7760(2)
C36_5 C 0.0597(2) 0.3442(2) 0.8006(2)
H17_5 H 0.099668 0.345244 0.800559
C37_5 C 0.0302(2) 0.3883(2) 0.8239(3)
H18_5 H 0.050038 0.419030 0.840167
C38_5 C 0.03090(18) 0.2044(2) 0.7240(2)
C39_5 C 0.0597(2) 0.1558(2) 0.6994(2)
H19_5 H 0.099668 0.154756 0.699441
C40_5 C 0.0302(2) 0.1117(2) 0.6761(3)
H20_5 H 0.050038 0.080970 0.659833
O11_5 O 0.84854(10) 0.25090(11) 0.70302(12)
C41_5 C 0.8752(2) 0.250000 0.750000
C42_5 C 0.9399(2) 0.250000 0.750000
C43_5 C 0.96910(18) 0.2956(2) 0.7760(2)
C44_5 C 0.9403(2) 0.3442(2) 0.8006(2)
H21_5 H 0.900332 0.345244 0.800559
C45_5 C 0.9698(2) 0.3883(2) 0.8239(3)
H22_5 H 0.949962 0.419030 0.840167
O12_5 O 0.84854(10) 0.24910(11) 0.79698(12)
C46_5 C 0.96910(18) 0.2044(2) 0.7240(2)
C47_5 C 0.9403(2) 0.1558(2) 0.6994(2)
H23_5 H 0.900332 0.154756 0.699441
C48_5 C 0.9698(2) 0.1117(2) 0.6761(3)
H24_5 H 0.949962 0.080970 0.659833
O11_6 O 0.15146(10) 0.74910(11) 0.70302(12)
C41_6 C 0.1248(2) 0.750000 0.750000
C42_6 C 0.0601(2) 0.750000 0.750000
C43_6 C 0.03090(18) 0.7044(2) 0.7760(2)
C44_6 C 0.0597(2) 0.6558(2) 0.8006(2)
H21_6 H 0.099668 0.654756 0.800559
C45_6 C 0.0302(2) 0.6117(2) 0.8239(3)
H22_6 H 0.050038 0.580970 0.840167
O12_6 O 0.15146(10) 0.75090(11) 0.79698(12)
C46_6 C 0.03090(18) 0.7956(2) 0.7240(2)
C47_6 C 0.0597(2) 0.8442(2) 0.6994(2)
H23_6 H 0.099668 0.845244 0.699441
C48_6 C 0.0302(2) 0.8883(2) 0.6761(3)
H24_6 H 0.050038 0.919030 0.659833
C33_6 C 0.8752(2) 0.750000 0.750000
C34_6 C 0.9399(2) 0.750000 0.750000
C35_6 C 0.96910(18) 0.7044(2) 0.7760(2)
C36_6 C 0.9403(2) 0.6558(2) 0.8006(2)
H17_6 H 0.900332 0.654756 0.800559
C37_6 C 0.9698(2) 0.6117(2) 0.8239(3)
H18_6 H 0.949962 0.580970 0.840167
C38_6 C 0.96910(18) 0.7956(2) 0.7240(2)
C39_6 C 0.9403(2) 0.8442(2) 0.6994(2)
H19_6 H 0.900332 0.845244 0.699441
C40_6 C 0.9698(2) 0.8883(2) 0.6761(3)
H20_6 H 0.949962 0.919030 0.659833
O11_7 O 0.15146(10) 0.25090(11) 0.29698(12)
C41_7 C 0.1248(2) 0.250000 0.250000
C42_7 C 0.0601(2) 0.250000 0.250000
C43_7 C 0.03090(18) 0.2956(2) 0.2240(2)
C44_7 C 0.0597(2) 0.3442(2) 0.1994(2)
H21_7 H 0.099668 0.345244 0.199441
C45_7 C 0.0302(2) 0.3883(2) 0.1761(3)
H22_7 H 0.050038 0.419030 0.159833
O12_7 O 0.15146(10) 0.24910(11) 0.20302(12)
C46_7 C 0.03090(18) 0.2044(2) 0.2760(2)
C47_7 C 0.0597(2) 0.1558(2) 0.3006(2)
H23_7 H 0.099668 0.154756 0.300559
C48_7 C 0.0302(2) 0.1117(2) 0.3239(3)
H24_7 H 0.050038 0.080970 0.340167
C33_7 C 0.8752(2) 0.250000 0.250000
C34_7 C 0.9399(2) 0.250000 0.250000
C35_7 C 0.96910(18) 0.2956(2) 0.2240(2)
C36_7 C 0.9403(2) 0.3442(2) 0.1994(2)
H17_7 H 0.900332 0.345244 0.199441
C37_7 C 0.9698(2) 0.3883(2) 0.1761(3)
H18_7 H 0.949962 0.419030 0.159833
C38_7 C 0.96910(18) 0.2044(2) 0.2760(2)
C39_7 C 0.9403(2) 0.1558(2) 0.3006(2)
H19_7 H 0.900332 0.154756 0.300559
C40_7 C 0.9698(2) 0.1117(2) 0.3239(3)
H20_7 H 0.949962 0.080970 0.340167
C33_8 C 0.1248(2) 0.750000 0.250000
C34_8 C 0.0601(2) 0.750000 0.250000
C35_8 C 0.03090(18) 0.7044(2) 0.2240(2)
C36_8 C 0.0597(2) 0.6558(2) 0.1994(2)
H17_8 H 0.099668 0.654756 0.199441
C37_8 C 0.0302(2) 0.6117(2) 0.1761(3)
H18_8 H 0.050038 0.580970 0.159833
C38_8 C 0.03090(18) 0.7956(2) 0.2760(2)
C39_8 C 0.0597(2) 0.8442(2) 0.3006(2)
H19_8 H 0.099668 0.845244 0.300559
C40_8 C 0.0302(2) 0.8883(2) 0.3239(3)
H20_8 H 0.050038 0.919030 0.340167
O11_8 O 0.84854(10) 0.74910(11) 0.29698(12)
C41_8 C 0.8752(2) 0.750000 0.250000
C42_8 C 0.9399(2) 0.750000 0.250000
C43_8 C 0.96910(18) 0.7044(2) 0.2240(2)
C44_8 C 0.9403(2) 0.6558(2) 0.1994(2)
H21_8 H 0.900332 0.654756 0.199441
C45_8 C 0.9698(2) 0.6117(2) 0.1761(3)
H22_8 H 0.949962 0.580970 0.159833
O12_8 O 0.84854(10) 0.75090(11) 0.20302(12)
C46_8 C 0.96910(18) 0.7956(2) 0.2760(2)
C47_8 C 0.9403(2) 0.8442(2) 0.3006(2)
H23_8 H 0.900332 0.845244 0.300559
C48_8 C 0.9698(2) 0.8883(2) 0.3239(3)
H24_8 H 0.949962 0.919030 0.340167
loop_
_geom_bond_atom_site_label_1
_geom_bond_atom_site_label_2
_geom_bond_site_symmetry_1
_geom_bond_site_symmetry_2
U1 O1 1_555 1_555
O1 C1 1_555 1_555
C1 C2 1_555 1_555
C2 C3 1_555 1_555
C3 C4 1_555 1_555
C4 H1 1_555 1_555
C5 C4 1_555 1_555
H2 C5 1_555 1_555
O2 U1 1_555 1_555
C6 C2 1_555 1_555
C7 C6 1_555 1_555
H3 C7 1_555 1_555
C8 C7 1_555 1_555
H4 C8 1_555 1_555
O3 C9 1_555 1_555
C9 C10 1_555 1_555
C10 C11 1_555 1_555
C11 C3 1_555 1_555
C12 C11 1_555 1_555
H5 C12 1_555 1_555
C13 C5 1_555 1_555
H6 C13 1_555 1_555
O4 C9 1_555 1_555
C14 C6 1_555 1_555
C15 C14 1_555 1_555
H7 C15 1_555 1_555
C16 C8 1_555 1_555
H8 C16 1_555 1_555
O5 U1 1_555 1_555
C17 O5 1_555 1_555
C18 C17 1_555 1_555
C19 C18 1_555 1_555
C20 C19 1_555 1_555
H9 C20 1_555 1_555
C21 C20 1_555 1_555
H10 C21 1_555 1_555
O6 U1 1_555 1_555
C22 C18 1_555 1_555
C23 C22 1_555 1_555
H11 C23 1_555 1_555
C24 C23 1_555 1_555
H12 C24 1_555 1_555
O7 C25 1_555 1_555
C25 C26 1_555 1_555
C26 C27 1_555 1_555
C27 C19 1_555 1_555
C28 C27 1_555 1_555
H13 C28 1_555 1_555
C29 C21 1_555 1_555
H14 C29 1_555 1_555
O8 C25 1_555 1_555
C30 C22 1_555 1_555
C31 C30 1_555 1_555
H15 C31 1_555 1_555
C32 C24 1_555 1_555
H16 C32 1_555 1_555
O9 U1 1_555 1_555
C33 O9 1_555 1_555
C34 C33 1_555 1_555
C35 C34 1_555 1_555
C36 C35 1_555 1_555
H17 C36 1_555 1_555
C37 C36 1_555 1_555
H18 C37 1_555 1_555
O10 U1 1_555 1_555
C38 C34 1_555 1_555
C39 C38 1_555 1_555
H19 C39 1_555 1_555
C40 C39 1_555 1_555
H20 C40 1_555 1_555
O11 C41 1_555 1_555
C41 C42 1_555 1_555
C42 C43 1_555 1_555
C43 C35 1_555 1_555
C44 C43 1_555 1_555
H21 C44 1_555 1_555
C45 C37 1_555 1_555
H22 C45 1_555 1_555
O12 C41 1_555 1_555
C46 C38 1_555 1_555
C47 C46 1_555 1_555
H23 C47 1_555 1_555
C48 C40 1_555 1_555
H24 C48 1_555 1_555
U2 O7 1_555 1_555
U3 O3 1_555 1_555
U4 O11 1_555 1_555
O13 U1 1_555 1_555
O14 U1 1_555 1_555
O15 U1 1_555 1_555
O16 U1 1_555 1_555
O17 U1 1_555 1_555
O18 U1 1_555 1_555
C1 O2 1_555 1_555
C10 C14 1_555 1_555
C12 C13 1_555 1_555
O4 U3 1_555 1_555
C15 C16 1_555 1_555
C17 O6 1_555 1_555
C26 C30 1_555 1_555
C28 C29 1_555 1_555
O8 U2 1_555 1_555
C31 C32 1_555 1_555
C33 O10 1_555 1_555
C42 C46 1_555 1_555
C44 C45 1_555 1_555
O12 U4 1_555 1_555
C47 C48 1_555 1_555
U1_2 O1_2 1_555 1_555
O1_2 C1_2 1_555 1_555
C1_2 C2_2 1_555 1_555
C2_2 C3_2 1_555 1_555
C3_2 C4_2 1_555 1_555
C4_2 H1_2 1_555 1_555
C5_2 C4_2 1_555 1_555
H2_2 C5_2 1_555 1_555
O2_2 U1_2 1_555 1_555
C6_2 C2_2 1_555 1_555
C7_2 C6_2 1_555 1_555
H3_2 C7_2 1_555 1_555
C8_2 C7_2 1_555 1_555
H4_2 C8_2 1_555 1_555
O3_2 C9_2 1_555 1_555
C9_2 C10_2 1_555 1_555
C10_2 C11_2 1_555 1_555
C11_2 C3_2 1_555 1_555
C12_2 C11_2 1_555 1_555
H5_2 C12_2 1_555 1_555
C13_2 C5_2 1_555 1_555
H6_2 C13_2 1_555 1_555
O4_2 C9_2 1_555 1_555
C14_2 C6_2 1_555 1_555
C15_2 C14_2 1_555 1_555
H7_2 C15_2 1_555 1_555
C16_2 C8_2 1_555 1_555
H8_2 C16_2 1_555 1_555
O5_2 U1_2 1_555 1_555
C17_2 O5_2 1_555 1_555
C18_2 C17_2 1_555 1_555
C19_2 C18_2 1_555 1_555
C20_2 C19_2 1_555 1_555
H9_2 C20_2 1_555 1_555
C21_2 C20_2 1_555 1_555
H10_2 C21_2 1_555 1_555
O6_2 U1_2 1_555 1_555
C22_2 C18_2 1_555 1_555
C23_2 C22_2 1_555 1_555
H11_2 C23_2 1_555 1_555
C24_2 C23_2 1_555 1_555
H12_2 C24_2 1_555 1_555
O7_2 C25_2 1_555 1_555
C25_2 C26_2 1_555 1_555
C26_2 C27_2 1_555 1_555
C27_2 C19_2 1_555 1_555
C28_2 C27_2 1_555 1_555
H13_2 C28_2 1_555 1_555
C29_2 C21_2 1_555 1_555
H14_2 C29_2 1_555 1_555
O8_2 C25_2 1_555 1_555
C30_2 C22_2 1_555 1_555
C31_2 C30_2 1_555 1_555
H15_2 C31_2 1_555 1_555
C32_2 C24_2 1_555 1_555
H16_2 C32_2 1_555 1_555
O9_2 U1_2 1_555 1_555
C33_2 O9_2 1_555 1_555
C34_2 C33_2 1_555 1_555
C35_2 C34_2 1_555 1_555
C36_2 C35_2 1_555 1_555
H17_2 C36_2 1_555 1_555
C37_2 C36_2 1_555 1_555
H18_2 C37_2 1_555 1_555
O10_2 U1_2 1_555 1_555
C38_2 C34_2 1_555 1_555
C39_2 C38_2 1_555 1_555
H19_2 C39_2 1_555 1_555
C40_2 C39_2 1_555 1_555
H20_2 C40_2 1_555 1_555
O11_2 C41_2 1_555 1_555
C41_2 C42_2 1_555 1_555
C42_2 C43_2 1_555 1_555
C43_2 C35_2 1_555 1_555
C44_2 C43_2 1_555 1_555
H21_2 C44_2 1_555 1_555
C45_2 C37_2 1_555 1_555
H22_2 C45_2 1_555 1_555
O12_2 C41_2 1_555 1_555
C46_2 C38_2 1_555 1_555
C47_2 C46_2 1_555 1_555
H23_2 C47_2 1_555 1_555
C48_2 C40_2 1_555 1_555
H24_2 C48_2 1_555 1_555
U2_2 O7_2 1_555 1_555
U4 O3_2 1_555 1_555
U3 O11_2 1_555 1_555
O13_2 U1_2 1_555 1_555
O14_2 U1_2 1_555 1_555
O15_2 U1_2 1_555 1_555
O16_2 U1_2 1_555 1_555
O17_2 U1_2 1_555 1_555
O18_2 U1_2 1_555 1_555
C1_2 O2_2 1_555 1_555
C10_2 C14_2 1_555 1_555
C12_2 C13_2 1_555 1_555
O4_2 U4 1_555 1_555
C15_2 C16_2 1_555 1_555
C17_2 O6_2 1_555 1_555
C26_2 C30_2 1_555 1_555
C28_2 C29_2 1_555 1_555
O8_2 U2_2 1_555 1_555
C31_2 C32_2 1_555 1_555
C33_2 O10_2 1_555 1_555
C42_2 C46_2 1_555 1_555
C44_2 C45_2 1_555 1_555
O12_2 U3 1_555 1_555
C47_2 C48_2 1_555 1_555
U1_3 O1_3 1_555 1_555
O1_3 C1_3 1_555 1_555
C1_3 C2_3 1_555 1_555
C2_3 C3_3 1_555 1_555
C3_3 C4_3 1_555 1_555
C4_3 H1_3 1_555 1_555
C5_3 C4_3 1_555 1_555
H2_3 C5_3 1_555 1_555
O2_3 U1_3 1_555 1_555
C6_3 C2_3 1_555 1_555
C7_3 C6_3 1_555 1_555
H3_3 C7_3 1_555 1_555
C8_3 C7_3 1_555 1_555
H4_3 C8_3 1_555 1_555
O3_3 C9_3 1_555 1_555
C9_3 C10_3 1_555 1_555
C10_3 C11_3 1_555 1_555
C11_3 C3_3 1_555 1_555
C12_3 C11_3 1_555 1_555
H5_3 C12_3 1_555 1_555
C13_3 C5_3 1_555 1_555
H6_3 C13_3 1_555 1_555
O4_3 C9_3 1_555 1_555
C14_3 C6_3 1_555 1_555
C15_3 C14_3 1_555 1_555
H7_3 C15_3 1_555 1_555
C16_3 C8_3 1_555 1_555
H8_3 C16_3 1_555 1_555
O5_3 U1_3 1_555 1_555
C17_3 O5_3 1_555 1_555
C18_3 C17_3 1_555 1_555
C19_3 C18_3 1_555 1_555
C20_3 C19_3 1_555 1_555
H9_3 C20_3 1_555 1_555
C21_3 C20_3 1_555 1_555
H10_3 C21_3 1_555 1_555
O6_3 U1_3 1_555 1_555
C22_3 C18_3 1_555 1_555
C23_3 C22_3 1_555 1_555
H11_3 C23_3 1_555 1_555
C24_3 C23_3 1_555 1_555
H12_3 C24_3 1_555 1_555
O7_3 C25_3 1_555 1_555
C25_3 C26_3 1_555 1_555
C26_3 C27_3 1_555 1_555
C27_3 C19_3 1_555 1_555
C28_3 C27_3 1_555 1_555
H13_3 C28_3 1_555 1_555
C29_3 C21_3 1_555 1_555
H14_3 C29_3 1_555 1_555
O8_3 C25_3 1_555 1_555
C30_3 C22_3 1_555 1_555
C31_3 C30_3 1_555 1_555
H15_3 C31_3 1_555 1_555
C32_3 C24_3 1_555 1_555
H16_3 C32_3 1_555 1_555
O9_3 U1_3 1_555 1_555
C33_3 O9_3 1_555 1_555
C34_3 C33_3 1_555 1_555
C35_3 C34_3 1_555 1_555
C36_3 C35_3 1_555 1_555
H17_3 C36_3 1_555 1_555
C37_3 C36_3 1_555 1_555
H18_3 C37_3 1_555 1_555
O10_3 U1_3 1_555 1_555
C38_3 C34_3 1_555 1_555
C39_3 C38_3 1_555 1_555
H19_3 C39_3 1_555 1_555
C40_3 C39_3 1_555 1_555
H20_3 C40_3 1_555 1_555
O11_3 C41_3 1_555 1_555
C41_3 C42_3 1_555 1_555
C42_3 C43_3 1_555 1_555
C43_3 C35_3 1_555 1_555
C44_3 C43_3 1_555 1_555
H21_3 C44_3 1_555 1_555
C45_3 C37_3 1_555 1_555
H22_3 C45_3 1_555 1_555
O12_3 C41_3 1_555 1_555
C46_3 C38_3 1_555 1_555
C47_3 C46_3 1_555 1_555
H23_3 C47_3 1_555 1_555
C48_3 C40_3 1_555 1_555
H24_3 C48_3 1_555 1_555
U4 O7_3 1_555 1_555
U2_2 O3_3 1_555 1_555
U2 O11_3 1_555 1_555
O13_3 U1_3 1_555 1_555
O14_3 U1_3 1_555 1_555
O15_3 U1_3 1_555 1_555
O16_3 U1_3 1_555 1_555
O17_3 U1_3 1_555 1_555
O18_3 U1_3 1_555 1_555
C1_3 O2_3 1_555 1_555
C10_3 C14_3 1_555 1_555
C12_3 C13_3 1_555 1_555
O4_3 U2_2 1_555 1_555
C15_3 C16_3 1_555 1_555
C17_3 O6_3 1_555 1_555
C26_3 C30_3 1_555 1_555
C28_3 C29_3 1_555 1_555
O8_3 U4 1_555 1_555
C31_3 C32_3 1_555 1_555
C33_3 O10_3 1_555 1_555
C42_3 C46_3 1_555 1_555
C44_3 C45_3 1_555 1_555
O12_3 U2 1_555 1_555
C47_3 C48_3 1_555 1_555
U1_4 O1_4 1_555 1_555
O1_4 C1_4 1_555 1_555
C1_4 C2_4 1_555 1_555
C2_4 C3_4 1_555 1_555
C3_4 C4_4 1_555 1_555
C4_4 H1_4 1_555 1_555
C5_4 C4_4 1_555 1_555
H2_4 C5_4 1_555 1_555
O2_4 U1_4 1_555 1_555
C6_4 C2_4 1_555 1_555
C7_4 C6_4 1_555 1_555
H3_4 C7_4 1_555 1_555
C8_4 C7_4 1_555 1_555
H4_4 C8_4 1_555 1_555
O3_4 C9_4 1_555 1_555
C9_4 C10_4 1_555 1_555
C10_4 C11_4 1_555 1_555
C11_4 C3_4 1_555 1_555
C12_4 C11_4 1_555 1_555
H5_4 C12_4 1_555 1_555
C13_4 C5_4 1_555 1_555
H6_4 C13_4 1_555 1_555
O4_4 C9_4 1_555 1_555
C14_4 C6_4 1_555 1_555
C15_4 C14_4 1_555 1_555
H7_4 C15_4 1_555 1_555
C16_4 C8_4 1_555 1_555
H8_4 C16_4 1_555 1_555
O5_4 U1_4 1_555 1_555
C17_4 O5_4 1_555 1_555
C18_4 C17_4 1_555 1_555
C19_4 C18_4 1_555 1_555
C20_4 C19_4 1_555 1_555
H9_4 C20_4 1_555 1_555
C21_4 C20_4 1_555 1_555
H10_4 C21_4 1_555 1_555
O6_4 U1_4 1_555 1_555
C22_4 C18_4 1_555 1_555
C23_4 C22_4 1_555 1_555
H11_4 C23_4 1_555 1_555
C24_4 C23_4 1_555 1_555
H12_4 C24_4 1_555 1_555
O7_4 C25_4 1_555 1_555
C25_4 C26_4 1_555 1_555
C26_4 C27_4 1_555 1_555
C27_4 C19_4 1_555 1_555
C28_4 C27_4 1_555 1_555
H13_4 C28_4 1_555 1_555
C29_4 C21_4 1_555 1_555
H14_4 C29_4 1_555 1_555
O8_4 C25_4 1_555 1_555
C30_4 C22_4 1_555 1_555
C31_4 C30_4 1_555 1_555
H15_4 C31_4 1_555 1_555
C32_4 C24_4 1_555 1_555
H16_4 C32_4 1_555 1_555
O9_4 U1_4 1_555 1_555
C33_4 O9_4 1_555 1_555
C34_4 C33_4 1_555 1_555
C35_4 C34_4 1_555 1_555
C36_4 C35_4 1_555 1_555
H17_4 C36_4 1_555 1_555
C37_4 C36_4 1_555 1_555
H18_4 C37_4 1_555 1_555
O10_4 U1_4 1_555 1_555
C38_4 C34_4 1_555 1_555
C39_4 C38_4 1_555 1_555
H19_4 C39_4 1_555 1_555
C40_4 C39_4 1_555 1_555
H20_4 C40_4 1_555 1_555
O11_4 C41_4 1_555 1_555
C41_4 C42_4 1_555 1_555
C42_4 C43_4 1_555 1_555
C43_4 C35_4 1_555 1_555
C44_4 C43_4 1_555 1_555
H21_4 C44_4 1_555 1_555
C45_4 C37_4 1_555 1_555
H22_4 C45_4 1_555 1_555
O12_4 C41_4 1_555 1_555
C46_4 C38_4 1_555 1_555
C47_4 C46_4 1_555 1_555
H23_4 C47_4 1_555 1_555
C48_4 C40_4 1_555 1_555
H24_4 C48_4 1_555 1_555
U3 O7_4 1_555 1_555
U2 O3_4 1_555 1_555
U2_2 O11_4 1_555 1_555
O13_4 U1_4 1_555 1_555
O14_4 U1_4 1_555 1_555
O15_4 U1_4 1_555 1_555
O16_4 U1_4 1_555 1_555
O17_4 U1_4 1_555 1_555
O18_4 U1_4 1_555 1_555
C1_4 O2_4 1_555 1_555
C10_4 C14_4 1_555 1_555
C12_4 C13_4 1_555 1_555
O4_4 U2 1_555 1_555
C15_4 C16_4 1_555 1_555
C17_4 O6_4 1_555 1_555
C26_4 C30_4 1_555 1_555
C28_4 C29_4 1_555 1_555
O8_4 U3 1_555 1_555
C31_4 C32_4 1_555 1_555
C33_4 O10_4 1_555 1_555
C42_4 C46_4 1_555 1_555
C44_4 C45_4 1_555 1_555
O12_4 U2_2 1_555 1_555
C47_4 C48_4 1_555 1_555
O3_5 C9_5 1_555 1_555
C9_5 C10_5 1_555 1_555
C10_5 C11_5 1_555 1_555
C12_5 C11_5 1_555 1_555
H5_5 C12_5 1_555 1_555
H6_5 C13_5 1_555 1_555
O4_5 C9_5 1_555 1_555
C15_5 C14_5 1_555 1_555
H7_5 C15_5 1_555 1_555
H8_5 C16_5 1_555 1_555
U2 O3_5 1_555 1_555
C10_5 C14_5 1_555 1_555
C12_5 C13_5 1_555 1_555
O4_5 U2 1_555 1_555
C15_5 C16_5 1_555 1_555
O7_5 C25_5 1_555 1_555
C25_5 C26_5 1_555 1_555
C26_5 C27_5 1_555 1_555
C28_5 C27_5 1_555 1_555
H13_5 C28_5 1_555 1_555
H14_5 C29_5 1_555 1_555
O8_5 C25_5 1_555 1_555
C31_5 C30_5 1_555 1_555
H15_5 C31_5 1_555 1_555
H16_5 C32_5 1_555 1_555
U3 O7_5 1_555 1_555
C26_5 C30_5 1_555 1_555
C28_5 C29_5 1_555 1_555
O8_5 U3 1_555 1_555
C31_5 C32_5 1_555 1_555
O13_4 C1_5 1_555 1_555
C1_5 C2_5 1_555 1_555
C2_5 C3_5 1_555 1_555
C3_5 C4_5 1_555 1_555
C4_5 H1_5 1_555 1_555
C5_5 C4_5 1_555 1_555
H2_5 C5_5 1_555 1_555
C6_5 C2_5 1_555 1_555
C7_5 C6_5 1_555 1_555
H3_5 C7_5 1_555 1_555
C8_5 C7_5 1_555 1_555
H4_5 C8_5 1_555 1_555
C17_5 O14_4 1_555 1_555
C18_5 C17_5 1_555 1_555
C19_5 C18_5 1_555 1_555
C20_5 C19_5 1_555 1_555
H9_5 C20_5 1_555 1_555
C21_5 C20_5 1_555 1_555
H10_5 C21_5 1_555 1_555
C22_5 C18_5 1_555 1_555
C23_5 C22_5 1_555 1_555
H11_5 C23_5 1_555 1_555
C24_5 C23_5 1_555 1_555
H12_5 C24_5 1_555 1_555
C1_5 O17_4 1_555 1_555
C17_5 O15_4 1_555 1_555
O7_6 C25_6 1_555 1_555
C25_6 C26_6 1_555 1_555
C26_6 C27_6 1_555 1_555
C28_6 C27_6 1_555 1_555
H13_6 C28_6 1_555 1_555
H14_6 C29_6 1_555 1_555
O8_6 C25_6 1_555 1_555
C31_6 C30_6 1_555 1_555
H15_6 C31_6 1_555 1_555
H16_6 C32_6 1_555 1_555
U4 O7_6 1_555 1_555
C26_6 C30_6 1_555 1_555
C28_6 C29_6 1_555 1_555
O8_6 U4 1_555 1_555
C31_6 C32_6 1_555 1_555
O13_3 C1_6 1_555 1_555
C1_6 C2_6 1_555 1_555
C2_6 C3_6 1_555 1_555
C3_6 C4_6 1_555 1_555
C4_6 H1_6 1_555 1_555
C5_6 C4_6 1_555 1_555
H2_6 C5_6 1_555 1_555
C6_6 C2_6 1_555 1_555
C7_6 C6_6 1_555 1_555
H3_6 C7_6 1_555 1_555
C8_6 C7_6 1_555 1_555
H4_6 C8_6 1_555 1_555
C17_6 O14_3 1_555 1_555
C18_6 C17_6 1_555 1_555
C19_6 C18_6 1_555 1_555
C20_6 C19_6 1_555 1_555
H9_6 C20_6 1_555 1_555
C21_6 C20_6 1_555 1_555
H10_6 C21_6 1_555 1_555
C22_6 C18_6 1_555 1_555
C23_6 C22_6 1_555 1_555
H11_6 C23_6 1_555 1_555
C24_6 C23_6 1_555 1_555
H12_6 C24_6 1_555 1_555
C1_6 O17_3 1_555 1_555
C17_6 O15_3 1_555 1_555
O3_6 C9_6 1_555 1_555
C9_6 C10_6 1_555 1_555
C10_6 C11_6 1_555 1_555
C12_6 C11_6 1_555 1_555
H5_6 C12_6 1_555 1_555
H6_6 C13_6 1_555 1_555
O4_6 C9_6 1_555 1_555
C15_6 C14_6 1_555 1_555
H7_6 C15_6 1_555 1_555
H8_6 C16_6 1_555 1_555
U2_2 O3_6 1_555 1_555
C10_6 C14_6 1_555 1_555
C12_6 C13_6 1_555 1_555
O4_6 U2_2 1_555 1_555
C15_6 C16_6 1_555 1_555
O3_7 C9_7 1_555 1_555
C9_7 C10_7 1_555 1_555
C10_7 C11_7 1_555 1_555
C12_7 C11_7 1_555 1_555
H5_7 C12_7 1_555 1_555
H6_7 C13_7 1_555 1_555
O4_7 C9_7 1_555 1_555
C15_7 C14_7 1_555 1_555
H7_7 C15_7 1_555 1_555
H8_7 C16_7 1_555 1_555
U4 O3_7 1_555 1_555
C10_7 C14_7 1_555 1_555
C12_7 C13_7 1_555 1_555
O4_7 U4 1_555 1_555
C15_7 C16_7 1_555 1_555
O13_2 C1_7 1_555 1_555
C1_7 C2_7 1_555 1_555
C2_7 C3_7 1_555 1_555
C3_7 C4_7 1_555 1_555
C4_7 H1_7 1_555 1_555
C5_7 C4_7 1_555 1_555
H2_7 C5_7 1_555 1_555
C6_7 C2_7 1_555 1_555
C7_7 C6_7 1_555 1_555
H3_7 C7_7 1_555 1_555
C8_7 C7_7 1_555 1_555
H4_7 C8_7 1_555 1_555
C17_7 O14_2 1_555 1_555
C18_7 C17_7 1_555 1_555
C19_7 C18_7 1_555 1_555
C20_7 C19_7 1_555 1_555
H9_7 C20_7 1_555 1_555
C21_7 C20_7 1_555 1_555
H10_7 C21_7 1_555 1_555
C22_7 C18_7 1_555 1_555
C23_7 C22_7 1_555 1_555
H11_7 C23_7 1_555 1_555
C24_7 C23_7 1_555 1_555
H12_7 C24_7 1_555 1_555
C1_7 O17_2 1_555 1_555
C17_7 O15_2 1_555 1_555
O7_7 C25_7 1_555 1_555
C25_7 C26_7 1_555 1_555
C26_7 C27_7 1_555 1_555
C28_7 C27_7 1_555 1_555
H13_7 C28_7 1_555 1_555
H14_7 C29_7 1_555 1_555
O8_7 C25_7 1_555 1_555
C31_7 C30_7 1_555 1_555
H15_7 C31_7 1_555 1_555
H16_7 C32_7 1_555 1_555
U2_2 O7_7 1_555 1_555
C26_7 C30_7 1_555 1_555
C28_7 C29_7 1_555 1_555
O8_7 U2_2 1_555 1_555
C31_7 C32_7 1_555 1_555
O13 C1_8 1_555 1_555
C1_8 C2_8 1_555 1_555
C2_8 C3_8 1_555 1_555
C3_8 C4_8 1_555 1_555
C4_8 H1_8 1_555 1_555
C5_8 C4_8 1_555 1_555
H2_8 C5_8 1_555 1_555
C6_8 C2_8 1_555 1_555
C7_8 C6_8 1_555 1_555
H3_8 C7_8 1_555 1_555
C8_8 C7_8 1_555 1_555
H4_8 C8_8 1_555 1_555
C17_8 O14 1_555 1_555
C18_8 C17_8 1_555 1_555
C19_8 C18_8 1_555 1_555
C20_8 C19_8 1_555 1_555
H9_8 C20_8 1_555 1_555
C21_8 C20_8 1_555 1_555
H10_8 C21_8 1_555 1_555
C22_8 C18_8 1_555 1_555
C23_8 C22_8 1_555 1_555
H11_8 C23_8 1_555 1_555
C24_8 C23_8 1_555 1_555
H12_8 C24_8 1_555 1_555
C1_8 O17 1_555 1_555
C17_8 O15 1_555 1_555
O7_8 C25_8 1_555 1_555
C25_8 C26_8 1_555 1_555
C26_8 C27_8 1_555 1_555
C28_8 C27_8 1_555 1_555
H13_8 C28_8 1_555 1_555
H14_8 C29_8 1_555 1_555
O8_8 C25_8 1_555 1_555
C31_8 C30_8 1_555 1_555
H15_8 C31_8 1_555 1_555
H16_8 C32_8 1_555 1_555
U2 O7_8 1_555 1_555
C26_8 C30_8 1_555 1_555
C28_8 C29_8 1_555 1_555
O8_8 U2 1_555 1_555
C31_8 C32_8 1_555 1_555
O3_8 C9_8 1_555 1_555
C9_8 C10_8 1_555 1_555
C10_8 C11_8 1_555 1_555
C12_8 C11_8 1_555 1_555
H5_8 C12_8 1_555 1_555
H6_8 C13_8 1_555 1_555
O4_8 C9_8 1_555 1_555
C15_8 C14_8 1_555 1_555
H7_8 C15_8 1_555 1_555
H8_8 C16_8 1_555 1_555
U3 O3_8 1_555 1_555
C10_8 C14_8 1_555 1_555
C12_8 C13_8 1_555 1_555
O4_8 U3 1_555 1_555
C15_8 C16_8 1_555 1_555
C33_5 O16_3 1_555 1_555
C34_5 C33_5 1_555 1_555
C35_5 C34_5 1_555 1_555
C36_5 C35_5 1_555 1_555
H17_5 C36_5 1_555 1_555
C37_5 C36_5 1_555 1_555
H18_5 C37_5 1_555 1_555
C38_5 C34_5 1_555 1_555
C39_5 C38_5 1_555 1_555
H19_5 C39_5 1_555 1_555
C40_5 C39_5 1_555 1_555
H20_5 C40_5 1_555 1_555
C33_5 O18_3 1_555 1_555
O11_5 C41_5 1_555 1_555
C41_5 C42_5 1_555 1_555
C42_5 C43_5 1_555 1_555
C44_5 C43_5 1_555 1_555
H21_5 C44_5 1_555 1_555
H22_5 C45_5 1_555 1_555
O12_5 C41_5 1_555 1_555
C47_5 C46_5 1_555 1_555
H23_5 C47_5 1_555 1_555
H24_5 C48_5 1_555 1_555
U2 O11_5 1_555 1_555
C42_5 C46_5 1_555 1_555
C44_5 C45_5 1_555 1_555
O12_5 U2 1_555 1_555
C47_5 C48_5 1_555 1_555
O11_6 C41_6 1_555 1_555
C41_6 C42_6 1_555 1_555
C42_6 C43_6 1_555 1_555
C44_6 C43_6 1_555 1_555
H21_6 C44_6 1_555 1_555
H22_6 C45_6 1_555 1_555
O12_6 C41_6 1_555 1_555
C47_6 C46_6 1_555 1_555
H23_6 C47_6 1_555 1_555
H24_6 C48_6 1_555 1_555
U2_2 O11_6 1_555 1_555
C42_6 C46_6 1_555 1_555
C44_6 C45_6 1_555 1_555
O12_6 U2_2 1_555 1_555
C47_6 C48_6 1_555 1_555
C33_6 O16_4 1_555 1_555
C34_6 C33_6 1_555 1_555
C35_6 C34_6 1_555 1_555
C36_6 C35_6 1_555 1_555
H17_6 C36_6 1_555 1_555
C37_6 C36_6 1_555 1_555
H18_6 C37_6 1_555 1_555
C38_6 C34_6 1_555 1_555
C39_6 C38_6 1_555 1_555
H19_6 C39_6 1_555 1_555
C40_6 C39_6 1_555 1_555
H20_6 C40_6 1_555 1_555
C33_6 O18_4 1_555 1_555
O11_7 C41_7 1_555 1_555
C41_7 C42_7 1_555 1_555
C42_7 C43_7 1_555 1_555
C44_7 C43_7 1_555 1_555
H21_7 C44_7 1_555 1_555
H22_7 C45_7 1_555 1_555
O12_7 C41_7 1_555 1_555
C47_7 C46_7 1_555 1_555
H23_7 C47_7 1_555 1_555
H24_7 C48_7 1_555 1_555
U4 O11_7 1_555 1_555
C42_7 C46_7 1_555 1_555
C44_7 C45_7 1_555 1_555
O12_7 U4 1_555 1_555
C47_7 C48_7 1_555 1_555
C33_7 O16 1_555 1_555
C34_7 C33_7 1_555 1_555
C35_7 C34_7 1_555 1_555
C36_7 C35_7 1_555 1_555
H17_7 C36_7 1_555 1_555
C37_7 C36_7 1_555 1_555
H18_7 C37_7 1_555 1_555
C38_7 C34_7 1_555 1_555
C39_7 C38_7 1_555 1_555
H19_7 C39_7 1_555 1_555
C40_7 C39_7 1_555 1_555
H20_7 C40_7 1_555 1_555
C33_7 O18 1_555 1_555
C33_8 O16_2 1_555 1_555
C34_8 C33_8 1_555 1_555
C35_8 C34_8 1_555 1_555
C36_8 C35_8 1_555 1_555
H17_8 C36_8 1_555 1_555
C37_8 C36_8 1_555 1_555
H18_8 C37_8 1_555 1_555
C38_8 C34_8 1_555 1_555
C39_8 C38_8 1_555 1_555
H19_8 C39_8 1_555 1_555
C40_8 C39_8 1_555 1_555
H20_8 C40_8 1_555 1_555
C33_8 O18_2 1_555 1_555
O11_8 C41_8 1_555 1_555
C41_8 C42_8 1_555 1_555
C42_8 C43_8 1_555 1_555
C44_8 C43_8 1_555 1_555
H21_8 C44_8 1_555 1_555
H22_8 C45_8 1_555 1_555
O12_8 C41_8 1_555 1_555
C47_8 C46_8 1_555 1_555
H23_8 C47_8 1_555 1_555
H24_8 C48_8 1_555 1_555
U3 O11_8 1_555 1_555
C42_8 C46_8 1_555 1_555
C44_8 C45_8 1_555 1_555
O12_8 U3 1_555 1_555
C47_8 C48_8 1_555 1_555

#END
