
###############################################################################
#
# This file contains modified crystal structure data generated from the
# MOF subset of the Cambridge Structural Database (CSD) v543 
# hosted by the Cambridge Crystallographic Data Centre (CCDC).
#
# This work is licensed under the Creative Commons
# Attribution-NonCommercial-ShareAlike 4.0 International License.
# To view a copy of this license, visit
# http://creativecommons.org/licenses/by-nc-sa/4.0/
# or send a letter to
# Creative Commons, PO Box 1866, Mountain View, CA 94042, USA.
#
# CIF created using the CSD Python API on 29 September 2022
# The structure has been converted into the P1 space group
# The structure has a 3D framework
# The original CSD entry VARJEF is in the tetragonal crystal system
# The framework has been calculated to contain at least 10.0% void space
# The void calculation uses a probe of radius 1.32A, grid spacing 0.4
#
###############################################################################

data_VARJEF
_chemical_formula_moiety         '(C196 H96 Fe17 N64)n'
_symmetry_cell_setting           triclinic
_symmetry_space_group_name_H-M   'P 1'
_symmetry_Int_Tables_number      1
_space_group_name_Hall           'P 1'
loop_
_symmetry_equiv_pos_site_id
_symmetry_equiv_pos_as_xyz
1 x,y,z
_cell_length_a                   17.2926(4)
_cell_length_b                   17.2926(4)
_cell_length_c                   22.8962(8)
_cell_angle_alpha                90
_cell_angle_beta                 90
_cell_angle_gamma                90
_cell_volume                     6846.74
loop_
_atom_site_label
_atom_site_type_symbol
_atom_site_fract_x
_atom_site_fract_y
_atom_site_fract_z
Fe1 Fe 0.0000 0.0000 0.0000
Fe3 Fe 0.5000 0.5000 0.0000
N3 N 0.12167(10) 0.47852(10) 0.05070(9)
N4 N 0.37685(11) 0.48569(11) 0.00071(8)
N5 N 0.0000 0.0000 0.09527(11)
N6 N 0.0000 0.0000 0.40400(11)
N7 N 0.5000 0.0000 0.04405(7)
N8 N 0.5000 0.0000 0.35368(7)
C5 C 0.18588(13) 0.20705(13) 0.01415(10)
C6 C 0.18561(13) 0.28645(13) 0.02422(12)
C7 C 0.25054(13) 0.32985(13) 0.01283(10)
C10 C 0.25068(14) 0.41625(13) 0.02211(11)
C11 C 0.31687(12) 0.45767(13) 0.01084(10)
C12 C 0.18162(13) 0.45320(12) 0.03749(9)
C15 C 0.0000 0.0000 0.21762(15)
C16 C 0.0000 0.0000 0.28213(13)
C19 C 0.46538(11) 0.05568(11) 0.07461(8)
C20 C 0.46374(12) 0.05860(12) 0.13498(8)
C21 C 0.5000 0.0000 0.16692(9)
C22 C 0.5000 -0.0000 0.23099(8)
C23 C 0.43997(11) 0.03299(12) 0.26293(8)
C24 C 0.44210(11) 0.03230(11) 0.32302(8)
H1 H 0.1401 0.1784 0.0218
H2 H 0.1402 0.3109 0.0386
H9 H 0.4404 0.0959 0.0536
H10 H 0.4382 0.0999 0.1545
H11 H 0.3976 0.0565 0.2434
H12 H 0.4007 0.0552 0.3441
Fe5 Fe 0.0000 0.5000 0.051560(10)
Fe6 Fe 0.5000 0.0000 0.448440(10)
Fe9 Fe 0.0000 0.0000 0.5000
N26 N 0.62315(11) 0.51431(11) 0.00071(8)
N30 N 0.5000 0.5000 0.09600(11)
Fe1_2 Fe 0.0000 0.0000 1.0000
Fe2 Fe 0.5000 0.0000 0.948440(10)
Fe3_2 Fe 0.5000 0.5000 1.0000
N1 N 0.12315(11) 0.01536(10) 0.99877(8)
N2 N 0.37786(10) 0.02357(10) 0.95011(9)
C1 C 0.18285(13) 0.04317(12) 0.99105(10)
C2 C 0.25135(12) 0.08525(13) 0.98309(10)
C3 C 0.31903(14) 0.04827(12) 0.96483(10)
C4 C 0.25080(14) 0.16801(14) 0.99330(12)
C8 C 0.31615(16) 0.29374(14) 0.99096(13)
C9 C 0.31707(14) 0.21521(15) 0.98195(14)
H3 H 0.3606 0.3236 0.9818
H4 H 0.3631 0.1915 0.9680
N20 N 0.52148(10) 0.12167(10) 0.94930(9)
N25 N 0.48569(11) 0.62315(11) 0.99929(8)
N27 N 0.51431(11) 0.37685(11) 0.99929(8)
N28 N 0.0000 0.0000 0.90473(11)
N29 N 0.0000 0.0000 0.59600(11)
N31 N 0.5000 0.5000 0.90400(11)
N32 N 0.5000 -0.0000 0.54405(7)
N34 N 0.5000 0.0000 0.85368(7)
C62 C 0.02891(15) 0.05929(15) 0.87464(10)
C65 C 0.03107(15) 0.06107(16) 0.81396(10)
C67 C 0.0000 0.0000 0.78238(15)
C68 C -0.0000 -0.0000 0.71787(13)
C70 C 0.05604(15) 0.04022(14) 0.68544(10)
C73 C 0.05333(15) 0.03899(14) 0.62616(10)
C76 C 0.44432(11) 0.03462(11) 0.57461(8)
C79 C 0.44140(12) 0.03626(12) 0.63498(8)
C81 C 0.5000 0.0000 0.66692(9)
C82 C 0.5000 0.0000 0.73099(8)
C84 C 0.46701(12) 0.06003(11) 0.76293(8)
C87 C 0.46770(11) 0.05790(11) 0.82302(8)
H26 H 0.0490 0.1021 0.8958
H29 H 0.0537 0.1039 0.7944
H32 H 0.0956 0.0682 0.7050
H35 H 0.0913 0.0675 0.6053
H38 H 0.4041 0.0596 0.5536
H41 H 0.4001 0.0618 0.6545
H44 H 0.4435 0.1024 0.7434
H47 H 0.4448 0.0993 0.8441
Fe1_3 Fe 0.0000 1.0000 0.0000
N5_2 N 0.0000 1.0000 0.09527(11)
N6_2 N 0.0000 1.0000 0.40400(11)
N7_2 N 0.5000 1.0000 0.04405(7)
N8_2 N 0.5000 1.0000 0.35368(7)
C15_2 C -0.0000 1.0000 0.21762(15)
C16_2 C -0.0000 1.0000 0.28213(13)
C21_2 C 0.5000 1.0000 0.16692(9)
C22_2 C 0.5000 1.0000 0.23099(8)
Fe6_2 Fe 0.5000 1.0000 0.448440(10)
Fe9_2 Fe 0.0000 1.0000 0.5000
N9 N 0.01536(10) 0.87685(11) 0.00123(8)
N12 N 0.02357(10) 0.62214(10) 0.04989(9)
N35 N 0.0000 0.5000 0.14632(7)
C25 C 0.04317(12) 0.81715(13) 0.00895(10)
C28 C 0.08525(13) 0.74865(12) 0.01691(10)
C31 C 0.04827(12) 0.68097(14) 0.03517(10)
C34 C 0.16801(14) 0.74920(14) 0.00670(12)
C46 C 0.29374(14) 0.68385(16) 0.00904(13)
C49 C 0.21521(15) 0.68293(14) 0.01805(14)
C61 C 0.05929(15) 0.97109(15) 0.12536(10)
C64 C 0.06107(16) 0.96893(15) 0.18604(10)
C69 C 0.04022(14) 0.94396(15) 0.31456(10)
C72 C 0.03899(14) 0.94667(15) 0.37384(10)
C75 C 0.53462(11) 0.94432(11) 0.07461(8)
C78 C 0.53626(12) 0.94140(12) 0.13498(8)
C83 C 0.56003(11) 0.96701(12) 0.26293(8)
C86 C 0.55790(11) 0.96770(11) 0.32302(8)
H19 H 0.3236 0.6394 0.0182
H22 H 0.1915 0.6369 0.0320
H25 H 0.1021 0.9510 0.1042
H28 H 0.1039 0.9463 0.2056
H31 H 0.0682 0.9044 0.2950
H34 H 0.0675 0.9087 0.3947
H37 H 0.5596 0.9041 0.0536
H40 H 0.5618 0.9001 0.1545
H43 H 0.6024 0.9435 0.2434
H46 H 0.5993 0.9448 0.3441
Fe1_4 Fe -0.0000 1.0000 1.0000
Fe2_2 Fe 0.5000 1.0000 0.948440(10)
N15 N 0.62214(10) 0.97643(10) 0.95011(9)
N17 N 0.47852(10) 0.87833(10) 0.94930(9)
N28_2 N 0.0000 1.0000 0.90473(11)
N29_2 N 0.0000 1.0000 0.59600(11)
N32_2 N 0.5000 1.0000 0.54405(7)
N33 N -0.0000 0.5000 0.95595(7)
N34_2 N 0.5000 1.0000 0.85368(7)
C37 C 0.20705(13) 0.81412(13) 0.98585(10)
C40 C 0.28645(13) 0.81439(13) 0.97578(12)
C43 C 0.32985(13) 0.74946(13) 0.98717(10)
C52 C 0.41625(13) 0.74932(14) 0.97789(11)
C55 C 0.45767(13) 0.68313(12) 0.98916(10)
C58 C 0.45320(12) 0.81838(13) 0.96251(9)
C67_2 C 0.0000 1.0000 0.78238(15)
C68_2 C -0.0000 1.0000 0.71787(13)
C77 C 0.55568(11) 0.96538(11) 0.57461(8)
C80 C 0.55860(12) 0.96374(12) 0.63498(8)
C81_2 C 0.5000 1.0000 0.66692(9)
C82_2 C 0.5000 1.0000 0.73099(8)
C85 C 0.53299(12) 0.93997(11) 0.76293(8)
C88 C 0.53230(11) 0.94210(11) 0.82302(8)
H13 H 0.1784 0.8599 0.9782
H16 H 0.3109 0.8598 0.9614
H39 H 0.5959 0.9404 0.5536
H42 H 0.5999 0.9382 0.6545
H45 H 0.5565 0.8976 0.7434
H48 H 0.5552 0.9007 0.8441
Fe1_5 Fe 1.0000 0.0000 0.0000
N5_3 N 1.0000 0.0000 0.09527(11)
N6_3 N 1.0000 0.0000 0.40400(11)
C13 C 0.94071(15) 0.02891(15) 0.12536(10)
C14 C 0.93893(16) 0.03107(15) 0.18604(10)
C15_3 C 1.0000 0.0000 0.21762(15)
C16_3 C 1.0000 0.0000 0.28213(13)
C17 C 0.95978(14) 0.05604(15) 0.31456(10)
C18 C 0.96101(14) 0.05333(15) 0.37384(10)
H5 H 0.8979 0.0490 0.1042
H6 H 0.8961 0.0537 0.2056
H7 H 0.9318 0.0956 0.2950
H8 H 0.9325 0.0913 0.3947
Fe5_2 Fe 1.0000 0.5000 0.051560(10)
Fe9_3 Fe 1.0000 0.0000 0.5000
N11 N 0.98464(10) 0.12315(11) 0.00123(8)
N14 N 0.97643(10) 0.37786(10) 0.04989(9)
C27 C 0.95683(12) 0.18285(13) 0.00895(10)
C30 C 0.91475(13) 0.25135(12) 0.01691(10)
C33 C 0.95173(12) 0.31903(14) 0.03517(10)
C36 C 0.83199(14) 0.25080(14) 0.00670(12)
C48 C 0.70626(14) 0.31615(16) 0.00904(13)
C51 C 0.78479(15) 0.31707(14) 0.01805(14)
H21 H 0.6764 0.3606 0.0182
H24 H 0.8085 0.3631 0.0320
Fe1_6 Fe 1.0000 0.0000 1.0000
N28_3 N 1.0000 0.0000 0.90473(11)
N29_3 N 1.0000 0.0000 0.59600(11)
C39 C 0.79295(13) 0.18588(13) 0.98585(10)
C42 C 0.71355(13) 0.18561(13) 0.97578(12)
C45 C 0.67015(13) 0.25054(13) 0.98717(10)
C54 C 0.58375(13) 0.25068(14) 0.97789(11)
C57 C 0.54233(13) 0.31687(12) 0.98916(10)
C60 C 0.54680(12) 0.18162(13) 0.96251(9)
C67_3 C 1.0000 0.0000 0.78238(15)
C68_3 C 1.0000 -0.0000 0.71787(13)
H15 H 0.8216 0.1401 0.9782
H18 H 0.6891 0.1402 0.9614
Fe1_7 Fe 1.0000 1.0000 0.0000
N5_4 N 1.0000 1.0000 0.09527(11)
N6_4 N 1.0000 1.0000 0.40400(11)
C15_4 C 1.0000 1.0000 0.21762(15)
C16_4 C 1.0000 1.0000 0.28213(13)
Fe9_4 Fe 1.0000 1.0000 0.5000
N18 N 0.87833(10) 0.52148(10) 0.05070(9)
N35_2 N 1.0000 0.5000 0.14632(7)
C38 C 0.81412(13) 0.79295(13) 0.01415(10)
C41 C 0.81439(13) 0.71355(13) 0.02422(12)
C44 C 0.74946(13) 0.67015(13) 0.01283(10)
C53 C 0.74932(14) 0.58375(13) 0.02211(11)
C56 C 0.68313(12) 0.54233(13) 0.01084(10)
C59 C 0.81838(13) 0.54680(12) 0.03749(9)
H14 H 0.8599 0.8216 0.0218
H17 H 0.8598 0.6891 0.0386
Fe1_8 Fe 1.0000 1.0000 1.0000
N10 N 0.87685(11) 0.98464(10) 0.99877(8)
N28_4 N 1.0000 1.0000 0.90473(11)
N29_4 N 1.0000 1.0000 0.59600(11)
N33_2 N 1.0000 0.5000 0.95595(7)
C26 C 0.81715(13) 0.95683(12) 0.99105(10)
C29 C 0.74865(12) 0.91475(13) 0.98309(10)
C32 C 0.68097(14) 0.95173(12) 0.96483(10)
C35 C 0.74920(14) 0.83199(14) 0.99330(12)
C47 C 0.68385(16) 0.70626(14) 0.99096(13)
C50 C 0.68293(14) 0.78479(15) 0.98195(14)
C63 C 0.97109(15) 0.94071(15) 0.87464(10)
C66 C 0.96893(15) 0.93893(16) 0.81396(10)
C67_4 C 1.0000 1.0000 0.78238(15)
C68_4 C 1.0000 1.0000 0.71787(13)
C71 C 0.94396(15) 0.95978(14) 0.68544(10)
C74 C 0.94667(15) 0.96101(14) 0.62616(10)
H20 H 0.6394 0.6764 0.9818
H23 H 0.6369 0.8085 0.9680
H27 H 0.9510 0.8979 0.8958
H30 H 0.9463 0.8961 0.7944
H33 H 0.9044 0.9318 0.7050
H36 H 0.9087 0.9325 0.6053
Fe8 Fe -0.0000 0.5000 0.551560(10)
N32_3 N -0.0000 0.5000 0.45595(7)
C76_2 C 0.03462(11) 0.55568(11) 0.42539(8)
C79_2 C 0.03626(12) 0.55860(12) 0.36502(8)
C81_3 C 0.0000 0.5000 0.33308(9)
C82_3 C -0.0000 0.5000 0.26901(8)
C84_2 C 0.06003(11) 0.53299(12) 0.23707(8)
C87_2 C 0.05790(11) 0.53230(11) 0.17698(8)
H38_2 H 0.0596 0.5959 0.4464
H41_2 H 0.0618 0.5999 0.3455
H44_2 H 0.1024 0.5565 0.2566
H47_2 H 0.0993 0.5552 0.1559
N8_3 N 0.0000 0.5000 0.64632(7)
C19_2 C 0.05568(11) 0.53462(11) 0.92539(8)
C20_2 C 0.05860(12) 0.53626(12) 0.86502(8)
C21_3 C 0.0000 0.5000 0.83308(9)
C22_3 C -0.0000 0.5000 0.76901(8)
C23_2 C 0.03299(12) 0.56003(11) 0.73707(8)
C24_2 C 0.03230(11) 0.55790(11) 0.67698(8)
H9_2 H 0.0959 0.5596 0.9464
H10_2 H 0.0999 0.5618 0.8455
H11_2 H 0.0565 0.6024 0.7566
H12_2 H 0.0552 0.5993 0.6559
Fe8_2 Fe 1.0000 0.5000 0.551560(10)
N32_4 N 1.0000 0.5000 0.45595(7)
C77_2 C 0.96538(11) 0.44432(11) 0.42539(8)
C80_2 C 0.96374(12) 0.44140(12) 0.36502(8)
C81_4 C 1.0000 0.5000 0.33308(9)
C82_4 C 1.0000 0.5000 0.26901(8)
C85_2 C 0.93997(11) 0.46701(12) 0.23707(8)
C88_2 C 0.94210(11) 0.46770(11) 0.17698(8)
H39_2 H 0.9404 0.4041 0.4464
H42_2 H 0.9382 0.4001 0.3455
H45_2 H 0.8976 0.4435 0.2566
H48_2 H 0.9007 0.4448 0.1559
N8_4 N 1.0000 0.5000 0.64632(7)
C21_4 C 1.0000 0.5000 0.83308(9)
C22_4 C 1.0000 0.5000 0.76901(8)
C75_2 C 0.94432(11) 0.46538(11) 0.92539(8)
C78_2 C 0.94140(12) 0.46374(12) 0.86502(8)
C83_2 C 0.96701(12) 0.43997(11) 0.73707(8)
C86_2 C 0.96770(11) 0.44210(11) 0.67698(8)
H37_2 H 0.9041 0.4404 0.9464
H40_2 H 0.9001 0.4382 0.8455
H43_2 H 0.9435 0.3976 0.7566
H46_2 H 0.9448 0.4007 0.6559
N25_2 N 0.01431(11) 0.12315(11) 0.50071(8)
Fe1_9 Fe 0.5000 0.5000 0.5000
N1_2 N 0.37685(11) 0.51536(10) 0.50123(8)
N2_2 N 0.12214(10) 0.52357(10) 0.54989(9)
N3_2 N 0.37833(10) 0.97852(10) 0.44930(9)
N4_2 N 0.12315(11) 0.98569(11) 0.49929(8)
N5_5 N 0.5000 0.5000 0.40473(11)
C1_2 C 0.31715(13) 0.54317(12) 0.50895(10)
C2_2 C 0.24865(12) 0.58525(13) 0.51691(10)
C3_2 C 0.18097(14) 0.54827(12) 0.53517(10)
C4_2 C 0.24920(14) 0.66801(14) 0.50670(12)
C5_2 C 0.31412(13) 0.70705(13) 0.48585(10)
C6_2 C 0.31439(13) 0.78645(13) 0.47578(12)
C7_2 C 0.24946(13) 0.82985(13) 0.48717(10)
C8_2 C 0.18385(16) 0.79374(14) 0.50904(13)
C9_2 C 0.18293(14) 0.71521(15) 0.51805(14)
C10_2 C 0.24932(14) 0.91625(13) 0.47789(11)
C11_2 C 0.18313(12) 0.95767(13) 0.48916(10)
C12_2 C 0.31838(13) 0.95320(12) 0.46251(9)
C13_2 C 0.55929(15) 0.52891(15) 0.37464(10)
C14_2 C 0.56107(16) 0.53107(15) 0.31396(10)
C15_5 C 0.5000 0.5000 0.28238(15)
C16_5 C 0.5000 0.5000 0.21787(13)
C17_2 C 0.54022(14) 0.55604(15) 0.18544(10)
C18_2 C 0.53899(14) 0.55333(15) 0.12616(10)
H1_2 H 0.3599 0.6784 0.4782
H2_2 H 0.3598 0.8109 0.4614
H3_2 H 0.1394 0.8236 0.5182
H4_2 H 0.1369 0.6915 0.5320
H5_2 H 0.6021 0.5490 0.3958
H6_2 H 0.6039 0.5537 0.2944
H7_2 H 0.5682 0.5956 0.2050
H8_2 H 0.5675 0.5913 0.1053
N9_2 N 0.48464(10) 0.37685(11) 0.49877(8)
N10_2 N 0.62315(11) 0.48464(10) 0.50123(8)
N11_2 N 0.51536(10) 0.62315(11) 0.49877(8)
N12_2 N 0.47643(10) 0.12214(10) 0.45011(9)
N13 N 0.87786(10) 0.47643(10) 0.54989(9)
N14_2 N 0.52357(10) 0.87786(10) 0.45011(9)
N17_2 N 0.02148(10) 0.37833(10) 0.55070(9)
N18_2 N 0.62167(10) 0.02148(10) 0.44930(9)
N19 N 0.97852(10) 0.62167(10) 0.55070(9)
N23 N 0.87685(11) 0.01431(11) 0.49929(8)
N24 N 0.98569(11) 0.87685(11) 0.50071(8)
N28_5 N 0.5000 0.5000 0.59527(11)
C25_2 C 0.45683(12) 0.31715(13) 0.49105(10)
C26_2 C 0.68285(13) 0.45683(12) 0.50895(10)
C27_2 C 0.54317(12) 0.68285(13) 0.49105(10)
C28_2 C 0.41475(13) 0.24865(12) 0.48309(10)
C29_2 C 0.75135(12) 0.41475(13) 0.51691(10)
C30_2 C 0.58525(13) 0.75135(12) 0.48309(10)
C31_2 C 0.45173(12) 0.18097(14) 0.46483(10)
C32_2 C 0.81903(14) 0.45173(12) 0.53517(10)
C33_2 C 0.54827(12) 0.81903(14) 0.46483(10)
C34_2 C 0.33199(14) 0.24920(14) 0.49330(12)
C35_2 C 0.75080(14) 0.33199(14) 0.50670(12)
C36_2 C 0.66801(14) 0.75080(14) 0.49330(12)
C37_2 C 0.29295(13) 0.31412(13) 0.51415(10)
C38_2 C 0.68588(13) 0.29295(13) 0.48585(10)
C39_2 C 0.70705(13) 0.68588(13) 0.51415(10)
C40_2 C 0.21355(13) 0.31439(13) 0.52422(12)
C41_2 C 0.68561(13) 0.21355(13) 0.47578(12)
C42_2 C 0.78645(13) 0.68561(13) 0.52422(12)
C43_2 C 0.17015(13) 0.24946(13) 0.51283(10)
C44_2 C 0.75054(13) 0.17015(13) 0.48717(10)
C45_2 C 0.82985(13) 0.75054(13) 0.51283(10)
C46_2 C 0.20626(14) 0.18385(16) 0.49096(13)
C47_2 C 0.81615(16) 0.20626(14) 0.50904(13)
C48_2 C 0.79374(14) 0.81615(16) 0.49096(13)
C49_2 C 0.28479(15) 0.18293(14) 0.48195(14)
C50_2 C 0.81707(14) 0.28479(15) 0.51805(14)
C51_2 C 0.71521(15) 0.81707(14) 0.48195(14)
C52_2 C 0.08375(13) 0.24932(14) 0.52211(11)
C53_2 C 0.75068(14) 0.08375(13) 0.47789(11)
C54_2 C 0.91625(13) 0.75068(14) 0.52211(11)
C55_2 C 0.04233(13) 0.18313(12) 0.51084(10)
C56_2 C 0.81687(12) 0.04233(13) 0.48916(10)
C57_2 C 0.95767(13) 0.81687(12) 0.51084(10)
C58_2 C 0.04680(12) 0.31838(13) 0.53749(9)
C59_2 C 0.68162(13) 0.04680(12) 0.46251(9)
C60_2 C 0.95320(12) 0.68162(13) 0.53749(9)
C61_2 C 0.44071(15) 0.47109(15) 0.37464(10)
C62_2 C 0.47109(15) 0.55929(15) 0.62536(10)
C63_2 C 0.52891(15) 0.44071(15) 0.62536(10)
C64_2 C 0.43893(16) 0.46893(15) 0.31396(10)
C65_2 C 0.46893(15) 0.56107(16) 0.68604(10)
C66_2 C 0.53107(15) 0.43893(16) 0.68604(10)
C67_5 C 0.5000 0.5000 0.71762(15)
C68_5 C 0.5000 0.5000 0.78213(13)
C69_2 C 0.45978(14) 0.44396(15) 0.18544(10)
C70_2 C 0.44396(15) 0.54022(14) 0.81456(10)
C71_2 C 0.55604(15) 0.45978(14) 0.81456(10)
C72_2 C 0.46101(14) 0.44667(15) 0.12616(10)
C73_2 C 0.44667(15) 0.53899(14) 0.87384(10)
C74_2 C 0.55333(15) 0.46101(14) 0.87384(10)
H13_2 H 0.3216 0.3599 0.5218
H14_2 H 0.6401 0.3216 0.4782
H15_2 H 0.6784 0.6401 0.5218
H16_2 H 0.1891 0.3598 0.5386
H17_2 H 0.6402 0.1891 0.4614
H18_2 H 0.8109 0.6402 0.5386
H19_2 H 0.1764 0.1394 0.4818
H20_2 H 0.8606 0.1764 0.5182
H21_2 H 0.8236 0.8606 0.4818
H22_2 H 0.3085 0.1369 0.4680
H23_2 H 0.8631 0.3085 0.5320
H24_2 H 0.6915 0.8631 0.4680
H25_2 H 0.3979 0.4510 0.3958
H26_2 H 0.4510 0.6021 0.6042
H27_2 H 0.5490 0.3979 0.6042
H28_2 H 0.3961 0.4463 0.2944
H29_2 H 0.4463 0.6039 0.7056
H30_2 H 0.5537 0.3961 0.7056
H31_2 H 0.4318 0.4044 0.2050
H32_2 H 0.4044 0.5682 0.7950
H33_2 H 0.5956 0.4318 0.7950
H34_2 H 0.4325 0.4087 0.1053
H35_2 H 0.4087 0.5675 0.8947
H36_2 H 0.5913 0.4325 0.8947
loop_
_geom_bond_atom_site_label_1
_geom_bond_atom_site_label_2
_geom_bond_site_symmetry_1
_geom_bond_site_symmetry_2
Fe3 N4 1_555 1_555
N3 C12 1_555 1_555
N4 C11 1_555 1_555
N5 Fe1 1_555 1_555
N8 C24 1_555 1_555
C6 C5 1_555 1_555
C7 C6 1_555 1_555
C10 C7 1_555 1_555
C11 C10 1_555 1_555
C12 C10 1_555 1_555
C16 C15 1_555 1_555
C19 N7 1_555 1_555
C20 C19 1_555 1_555
C21 C20 1_555 1_555
C22 C21 1_555 1_555
C23 C22 1_555 1_555
C24 C23 1_555 1_555
H1 C5 1_555 1_555
H2 C6 1_555 1_555
H9 C19 1_555 1_555
H10 C20 1_555 1_555
H11 C23 1_555 1_555
H12 C24 1_555 1_555
Fe5 N3 1_555 1_555
Fe6 N8 1_555 1_555
Fe9 N6 1_555 1_555
N26 Fe3 1_555 1_555
N30 Fe3 1_555 1_555
Fe1_2 N1 1_555 1_555
Fe2 N2 1_555 1_555
N1 C1 1_555 1_555
N2 C3 1_555 1_555
C1 C2 1_555 1_555
C2 C3 1_555 1_555
C4 C2 1_555 1_555
C9 C4 1_555 1_555
H3 C8 1_555 1_555
H4 C9 1_555 1_555
Fe6 N32 1_555 1_555
Fe9 N29 1_555 1_555
N20 Fe2 1_555 1_555
N25 Fe3_2 1_555 1_555
N27 Fe3_2 1_555 1_555
N28 Fe1_2 1_555 1_555
N29 C73 1_555 1_555
N31 Fe3_2 1_555 1_555
N32 C76 1_555 1_555
N34 Fe2 1_555 1_555
C62 N28 1_555 1_555
C65 C62 1_555 1_555
C67 C65 1_555 1_555
C68 C67 1_555 1_555
C70 C68 1_555 1_555
C73 C70 1_555 1_555
C76 C79 1_555 1_555
C79 C81 1_555 1_555
C82 C81 1_555 1_555
C84 C82 1_555 1_555
C87 N34 1_555 1_555
H26 C62 1_555 1_555
H29 C65 1_555 1_555
H32 C70 1_555 1_555
H35 C73 1_555 1_555
H38 C76 1_555 1_555
H41 C79 1_555 1_555
H44 C84 1_555 1_555
H47 C87 1_555 1_555
C8 C9 1_555 1_555
C84 C87 1_555 1_555
N5_2 Fe1_3 1_555 1_555
C16_2 C15_2 1_555 1_555
C22_2 C21_2 1_555 1_555
Fe5 N12 1_555 1_555
Fe6_2 N8_2 1_555 1_555
Fe9_2 N6_2 1_555 1_555
N9 Fe1_3 1_555 1_555
N12 C31 1_555 1_555
N35 Fe5 1_555 1_555
C25 N9 1_555 1_555
C28 C25 1_555 1_555
C31 C28 1_555 1_555
C34 C28 1_555 1_555
C49 C34 1_555 1_555
C61 N5_2 1_555 1_555
C64 C15_2 1_555 1_555
C69 C16_2 1_555 1_555
C72 N6_2 1_555 1_555
C75 N7_2 1_555 1_555
C78 C21_2 1_555 1_555
C83 C22_2 1_555 1_555
C86 N8_2 1_555 1_555
H19 C46 1_555 1_555
H22 C49 1_555 1_555
H25 C61 1_555 1_555
H28 C64 1_555 1_555
H31 C69 1_555 1_555
H34 C72 1_555 1_555
H37 C75 1_555 1_555
H40 C78 1_555 1_555
H43 C83 1_555 1_555
H46 C86 1_555 1_555
C46 C49 1_555 1_555
C61 C64 1_555 1_555
C69 C72 1_555 1_555
C75 C78 1_555 1_555
C83 C86 1_555 1_555
Fe6_2 N32_2 1_555 1_555
Fe9_2 N29_2 1_555 1_555
N15 Fe2_2 1_555 1_555
N17 Fe2_2 1_555 1_555
N25 C55 1_555 1_555
N28_2 Fe1_4 1_555 1_555
N34_2 Fe2_2 1_555 1_555
C40 C37 1_555 1_555
C43 C40 1_555 1_555
C52 C43 1_555 1_555
C55 C52 1_555 1_555
C58 N17 1_555 1_555
C68_2 C67_2 1_555 1_555
C77 N32_2 1_555 1_555
C80 C77 1_555 1_555
C81_2 C80 1_555 1_555
C82_2 C81_2 1_555 1_555
C85 C82_2 1_555 1_555
C88 N34_2 1_555 1_555
H13 C37 1_555 1_555
H16 C40 1_555 1_555
H39 C77 1_555 1_555
H42 C80 1_555 1_555
H45 C85 1_555 1_555
H48 C88 1_555 1_555
C52 C58 1_555 1_555
C85 C88 1_555 1_555
N5_3 Fe1_5 1_555 1_555
N6_3 C18 1_555 1_555
C13 N5_3 1_555 1_555
C14 C13 1_555 1_555
C15_3 C14 1_555 1_555
C16_3 C15_3 1_555 1_555
C17 C16_3 1_555 1_555
C18 C17 1_555 1_555
H5 C13 1_555 1_555
H6 C14 1_555 1_555
H7 C17 1_555 1_555
H8 C18 1_555 1_555
Fe9_3 N6_3 1_555 1_555
N11 Fe1_5 1_555 1_555
N14 Fe5_2 1_555 1_555
C27 N11 1_555 1_555
C30 C27 1_555 1_555
C33 N14 1_555 1_555
C36 C30 1_555 1_555
C51 C36 1_555 1_555
H21 C48 1_555 1_555
H24 C51 1_555 1_555
C30 C33 1_555 1_555
C48 C51 1_555 1_555
Fe9_3 N29_3 1_555 1_555
N27 C57 1_555 1_555
N28_3 Fe1_6 1_555 1_555
C42 C39 1_555 1_555
C45 C42 1_555 1_555
C54 C45 1_555 1_555
C57 C54 1_555 1_555
C60 N20 1_555 1_555
C68_3 C67_3 1_555 1_555
H15 C39 1_555 1_555
H18 C42 1_555 1_555
C54 C60 1_555 1_555
N5_4 Fe1_7 1_555 1_555
C16_4 C15_4 1_555 1_555
Fe9_4 N6_4 1_555 1_555
N18 Fe5_2 1_555 1_555
N26 C56 1_555 1_555
N35_2 Fe5_2 1_555 1_555
C41 C38 1_555 1_555
C44 C41 1_555 1_555
C53 C44 1_555 1_555
C56 C53 1_555 1_555
C59 N18 1_555 1_555
H14 C38 1_555 1_555
H17 C41 1_555 1_555
C53 C59 1_555 1_555
Fe9_4 N29_4 1_555 1_555
N10 Fe1_8 1_555 1_555
N15 C32 1_555 1_555
N28_4 Fe1_8 1_555 1_555
C26 N10 1_555 1_555
C29 C26 1_555 1_555
C32 C29 1_555 1_555
C35 C29 1_555 1_555
C50 C35 1_555 1_555
C63 N28_4 1_555 1_555
C66 C63 1_555 1_555
C68_4 C67_4 1_555 1_555
C71 C68_4 1_555 1_555
C74 N29_4 1_555 1_555
H20 C47 1_555 1_555
H23 C50 1_555 1_555
H27 C63 1_555 1_555
H30 C66 1_555 1_555
H33 C71 1_555 1_555
H36 C74 1_555 1_555
C47 C50 1_555 1_555
C66 C67_4 1_555 1_555
C71 C74 1_555 1_555
Fe8 N32_3 1_555 1_555
N32_3 C76_2 1_555 1_555
C76_2 C79_2 1_555 1_555
C79_2 C81_3 1_555 1_555
C82_3 C81_3 1_555 1_555
C84_2 C82_3 1_555 1_555
C87_2 N35 1_555 1_555
H38_2 C76_2 1_555 1_555
H41_2 C79_2 1_555 1_555
H44_2 C84_2 1_555 1_555
H47_2 C87_2 1_555 1_555
C84_2 C87_2 1_555 1_555
N8_3 C24_2 1_555 1_555
C19_2 N33 1_555 1_555
C20_2 C19_2 1_555 1_555
C21_3 C20_2 1_555 1_555
C22_3 C21_3 1_555 1_555
C23_2 C22_3 1_555 1_555
C24_2 C23_2 1_555 1_555
H9_2 C19_2 1_555 1_555
H10_2 C20_2 1_555 1_555
H11_2 C23_2 1_555 1_555
H12_2 C24_2 1_555 1_555
Fe8 N8_3 1_555 1_555
Fe8_2 N32_4 1_555 1_555
C77_2 N32_4 1_555 1_555
C80_2 C77_2 1_555 1_555
C81_4 C80_2 1_555 1_555
C82_4 C81_4 1_555 1_555
C85_2 C82_4 1_555 1_555
C88_2 N35_2 1_555 1_555
H39_2 C77_2 1_555 1_555
H42_2 C80_2 1_555 1_555
H45_2 C85_2 1_555 1_555
H48_2 C88_2 1_555 1_555
C85_2 C88_2 1_555 1_555
C22_4 C21_4 1_555 1_555
Fe8_2 N8_4 1_555 1_555
C75_2 N33_2 1_555 1_555
C78_2 C21_4 1_555 1_555
C83_2 C22_4 1_555 1_555
C86_2 N8_4 1_555 1_555
H37_2 C75_2 1_555 1_555
H40_2 C78_2 1_555 1_555
H43_2 C83_2 1_555 1_555
H46_2 C86_2 1_555 1_555
C75_2 C78_2 1_555 1_555
C83_2 C86_2 1_555 1_555
N25_2 Fe9 1_555 1_555
Fe1_9 N1_2 1_555 1_555
Fe8 N2_2 1_555 1_555
Fe9_2 N4_2 1_555 1_555
N1_2 C1_2 1_555 1_555
N2_2 C3_2 1_555 1_555
N3_2 C12_2 1_555 1_555
N4_2 C11_2 1_555 1_555
N5_5 Fe1_9 1_555 1_555
N30 C18_2 1_555 1_555
C1_2 C2_2 1_555 1_555
C2_2 C3_2 1_555 1_555
C4_2 C2_2 1_555 1_555
C5_2 C4_2 1_555 1_555
C6_2 C5_2 1_555 1_555
C7_2 C6_2 1_555 1_555
C8_2 C7_2 1_555 1_555
C9_2 C4_2 1_555 1_555
C10_2 C7_2 1_555 1_555
C11_2 C10_2 1_555 1_555
C12_2 C10_2 1_555 1_555
C13_2 N5_5 1_555 1_555
C14_2 C13_2 1_555 1_555
C15_5 C14_2 1_555 1_555
C16_5 C15_5 1_555 1_555
C17_2 C16_5 1_555 1_555
C18_2 C17_2 1_555 1_555
H1_2 C5_2 1_555 1_555
H2_2 C6_2 1_555 1_555
H3_2 C8_2 1_555 1_555
H4_2 C9_2 1_555 1_555
H5_2 C13_2 1_555 1_555
H6_2 C14_2 1_555 1_555
H7_2 C17_2 1_555 1_555
H8_2 C18_2 1_555 1_555
Fe6 N12_2 1_555 1_555
Fe6_2 N3_2 1_555 1_555
Fe8_2 N13 1_555 1_555
Fe9_3 N23 1_555 1_555
Fe9_4 N24 1_555 1_555
N9_2 Fe1_9 1_555 1_555
N10_2 Fe1_9 1_555 1_555
N11_2 Fe1_9 1_555 1_555
N12_2 C31_2 1_555 1_555
N13 C32_2 1_555 1_555
N14_2 Fe6_2 1_555 1_555
N17_2 Fe8 1_555 1_555
N18_2 Fe6 1_555 1_555
N19 Fe8_2 1_555 1_555
N25_2 C55_2 1_555 1_555
N23 C56_2 1_555 1_555
N24 C57_2 1_555 1_555
N28_5 Fe1_9 1_555 1_555
N31 C73_2 1_555 1_555
C25_2 N9_2 1_555 1_555
C26_2 N10_2 1_555 1_555
C27_2 N11_2 1_555 1_555
C28_2 C25_2 1_555 1_555
C29_2 C26_2 1_555 1_555
C30_2 C27_2 1_555 1_555
C31_2 C28_2 1_555 1_555
C32_2 C29_2 1_555 1_555
C33_2 N14_2 1_555 1_555
C34_2 C28_2 1_555 1_555
C35_2 C29_2 1_555 1_555
C36_2 C30_2 1_555 1_555
C37_2 C34_2 1_555 1_555
C38_2 C35_2 1_555 1_555
C39_2 C36_2 1_555 1_555
C40_2 C37_2 1_555 1_555
C41_2 C38_2 1_555 1_555
C42_2 C39_2 1_555 1_555
C43_2 C40_2 1_555 1_555
C44_2 C41_2 1_555 1_555
C45_2 C42_2 1_555 1_555
C46_2 C43_2 1_555 1_555
C47_2 C44_2 1_555 1_555
C48_2 C45_2 1_555 1_555
C49_2 C34_2 1_555 1_555
C50_2 C35_2 1_555 1_555
C51_2 C36_2 1_555 1_555
C52_2 C43_2 1_555 1_555
C53_2 C44_2 1_555 1_555
C54_2 C45_2 1_555 1_555
C55_2 C52_2 1_555 1_555
C56_2 C53_2 1_555 1_555
C57_2 C54_2 1_555 1_555
C58_2 N17_2 1_555 1_555
C59_2 N18_2 1_555 1_555
C60_2 N19 1_555 1_555
C61_2 N5_5 1_555 1_555
C62_2 N28_5 1_555 1_555
C63_2 N28_5 1_555 1_555
C64_2 C15_5 1_555 1_555
C65_2 C62_2 1_555 1_555
C66_2 C63_2 1_555 1_555
C67_5 C65_2 1_555 1_555
C68_5 C67_5 1_555 1_555
C69_2 C16_5 1_555 1_555
C70_2 C68_5 1_555 1_555
C71_2 C68_5 1_555 1_555
C72_2 N30 1_555 1_555
C73_2 C70_2 1_555 1_555
C74_2 N31 1_555 1_555
H13_2 C37_2 1_555 1_555
H14_2 C38_2 1_555 1_555
H15_2 C39_2 1_555 1_555
H16_2 C40_2 1_555 1_555
H17_2 C41_2 1_555 1_555
H18_2 C42_2 1_555 1_555
H19_2 C46_2 1_555 1_555
H20_2 C47_2 1_555 1_555
H21_2 C48_2 1_555 1_555
H22_2 C49_2 1_555 1_555
H23_2 C50_2 1_555 1_555
H24_2 C51_2 1_555 1_555
H25_2 C61_2 1_555 1_555
H26_2 C62_2 1_555 1_555
H27_2 C63_2 1_555 1_555
H28_2 C64_2 1_555 1_555
H29_2 C65_2 1_555 1_555
H30_2 C66_2 1_555 1_555
H31_2 C69_2 1_555 1_555
H32_2 C70_2 1_555 1_555
H33_2 C71_2 1_555 1_555
H34_2 C72_2 1_555 1_555
H35_2 C73_2 1_555 1_555
H36_2 C74_2 1_555 1_555
C8_2 C9_2 1_555 1_555
C30_2 C33_2 1_555 1_555
C46_2 C49_2 1_555 1_555
C47_2 C50_2 1_555 1_555
C48_2 C51_2 1_555 1_555
C52_2 C58_2 1_555 1_555
C53_2 C59_2 1_555 1_555
C54_2 C60_2 1_555 1_555
C61_2 C64_2 1_555 1_555
C66_2 C67_5 1_555 1_555
C69_2 C72_2 1_555 1_555
C71_2 C74_2 1_555 1_555

#END
