
###############################################################################
#
# This file contains modified crystal structure data generated from the
# MOF subset of the Cambridge Structural Database (CSD) v543 
# hosted by the Cambridge Crystallographic Data Centre (CCDC).
#
# This work is licensed under the Creative Commons
# Attribution-NonCommercial-ShareAlike 4.0 International License.
# To view a copy of this license, visit
# http://creativecommons.org/licenses/by-nc-sa/4.0/
# or send a letter to
# Creative Commons, PO Box 1866, Mountain View, CA 94042, USA.
#
# CIF created using the CSD Python API on 29 September 2022
# The structure has been converted into the P1 space group
# The structure has a 3D framework
# The original CSD entry VARQUE is in the cubic crystal system
# The framework has been calculated to contain at least 10.0% void space
# The void calculation uses a probe of radius 1.32A, grid spacing 0.4
# The framework is charged, counterions have been retained in the structure
#
###############################################################################

data_VARQUE
_chemical_formula_moiety         '(C384 H192 O96 Th4 8-)n'
_symmetry_cell_setting           triclinic
_symmetry_space_group_name_H-M   'P 1'
_symmetry_Int_Tables_number      1
_space_group_name_Hall           'P 1'
loop_
_symmetry_equiv_pos_site_id
_symmetry_equiv_pos_as_xyz
1 x,y,z
_cell_length_a                   23.3262(7)
_cell_length_b                   23.3262(7)
_cell_length_c                   23.3262(7)
_cell_angle_alpha                90
_cell_angle_beta                 90
_cell_angle_gamma                90
_cell_volume                     12692.1
loop_
_atom_site_label
_atom_site_type_symbol
_atom_site_fract_x
_atom_site_fract_y
_atom_site_fract_z
Th1 Th 0.750000 0.750000 0.750000
O1 O 0.75115(4) 0.65052(4) 0.70279(4)
C1 C 0.750000 0.62423(8) 0.750000
C2 C 0.750000 0.56002(8) 0.750000
C3 C 0.70485(7) 0.53078(6) 0.72309(7)
C4 C 0.65747(7) 0.56024(7) 0.69736(8)
H1 H 0.656600 0.600953 0.697425
C5 C 0.61371(8) 0.53044(7) 0.67284(9)
H2 H 0.582830 0.550579 0.655541
O2 O 0.74885(4) 0.65052(4) 0.79721(4)
C6 C 0.79515(7) 0.53078(6) 0.77691(7)
C7 C 0.84253(7) 0.56024(7) 0.80264(8)
H3 H 0.843400 0.600953 0.802575
C8 C 0.88629(8) 0.53044(7) 0.82716(9)
H4 H 0.917170 0.550579 0.844459
O3 O 0.75115(4) 0.34948(4) 0.70279(4)
C9 C 0.750000 0.37577(8) 0.750000
C10 C 0.750000 0.43998(8) 0.750000
C11 C 0.70485(7) 0.46922(6) 0.72309(7)
C12 C 0.65747(7) 0.43976(7) 0.69736(8)
H5 H 0.656600 0.399047 0.697425
C13 C 0.61371(8) 0.46956(7) 0.67284(9)
H6 H 0.582830 0.449421 0.655541
O4 O 0.74885(4) 0.34948(4) 0.79721(4)
C14 C 0.79515(7) 0.46922(6) 0.77691(7)
C15 C 0.84253(7) 0.43976(7) 0.80264(8)
H7 H 0.843400 0.399047 0.802575
C16 C 0.88629(8) 0.46956(7) 0.82716(9)
H8 H 0.917170 0.449421 0.844459
O5 O 0.70279(4) 0.75115(4) 0.65052(4)
C17 C 0.750000 0.750000 0.62423(8)
C18 C 0.750000 0.750000 0.56002(8)
C19 C 0.72309(7) 0.70485(7) 0.53078(6)
C20 C 0.69736(8) 0.65747(7) 0.56024(7)
H9 H 0.697425 0.656600 0.600953
C21 C 0.67284(9) 0.61371(8) 0.53044(7)
H10 H 0.655541 0.582830 0.550579
O6 O 0.79721(4) 0.74885(4) 0.65052(4)
C22 C 0.77691(7) 0.79515(7) 0.53078(6)
C23 C 0.80264(8) 0.84253(7) 0.56024(7)
H11 H 0.802575 0.843400 0.600953
C24 C 0.82716(9) 0.88629(8) 0.53044(7)
H12 H 0.844459 0.917170 0.550579
O7 O 0.70279(4) 0.75115(4) 0.34948(4)
C25 C 0.750000 0.750000 0.37577(8)
C26 C 0.750000 0.750000 0.43998(8)
C27 C 0.72309(7) 0.70485(7) 0.46922(6)
C28 C 0.69736(8) 0.65747(7) 0.43976(7)
H13 H 0.697425 0.656600 0.399047
C29 C 0.67284(9) 0.61371(8) 0.46956(7)
H14 H 0.655541 0.582830 0.449421
O8 O 0.79721(4) 0.74885(4) 0.34948(4)
C30 C 0.77691(7) 0.79515(7) 0.46922(6)
C31 C 0.80264(8) 0.84253(7) 0.43976(7)
H15 H 0.802575 0.843400 0.399047
C32 C 0.82716(9) 0.88629(8) 0.46956(7)
H16 H 0.844459 0.917170 0.449421
O9 O 0.65052(4) 0.70279(4) 0.75115(4)
C33 C 0.62423(8) 0.750000 0.750000
C34 C 0.56002(8) 0.750000 0.750000
C35 C 0.53078(6) 0.72309(7) 0.70485(7)
C36 C 0.56024(7) 0.69736(8) 0.65747(7)
H17 H 0.600953 0.697425 0.656600
C37 C 0.53044(7) 0.67284(9) 0.61371(8)
H18 H 0.550579 0.655541 0.582830
O10 O 0.65052(4) 0.79721(4) 0.74885(4)
C38 C 0.53078(6) 0.77691(7) 0.79515(7)
C39 C 0.56024(7) 0.80264(8) 0.84253(7)
H19 H 0.600953 0.802575 0.843400
C40 C 0.53044(7) 0.82716(9) 0.88629(8)
H20 H 0.550579 0.844459 0.917170
O11 O 0.34948(4) 0.70279(4) 0.75115(4)
C41 C 0.37577(8) 0.750000 0.750000
C42 C 0.43998(8) 0.750000 0.750000
C43 C 0.46922(6) 0.72309(7) 0.70485(7)
C44 C 0.43976(7) 0.69736(8) 0.65747(7)
H21 H 0.399047 0.697425 0.656600
C45 C 0.46956(7) 0.67284(9) 0.61371(8)
H22 H 0.449421 0.655541 0.582830
O12 O 0.34948(4) 0.79721(4) 0.74885(4)
C46 C 0.46922(6) 0.77691(7) 0.79515(7)
C47 C 0.43976(7) 0.80264(8) 0.84253(7)
H23 H 0.399047 0.802575 0.843400
C48 C 0.46956(7) 0.82716(9) 0.88629(8)
H24 H 0.449421 0.844459 0.917170
Th2 Th 0.750000 0.750000 0.250000
Th3 Th 0.750000 0.250000 0.750000
Th4 Th 0.250000 0.750000 0.750000
O13 O 0.75115(4) 0.84948(4) 0.79721(4)
O14 O 0.70279(4) 0.74885(4) 0.84948(4)
O15 O 0.79721(4) 0.75115(4) 0.84948(4)
O16 O 0.84948(4) 0.70279(4) 0.74885(4)
O17 O 0.74885(4) 0.84948(4) 0.70279(4)
O18 O 0.84948(4) 0.79721(4) 0.75115(4)
Th1_2 Th 0.250000 0.250000 0.750000
O1_2 O 0.24885(4) 0.34948(4) 0.70279(4)
C1_2 C 0.250000 0.37577(8) 0.750000
C2_2 C 0.250000 0.43998(8) 0.750000
C3_2 C 0.29515(7) 0.46922(6) 0.72309(7)
C4_2 C 0.34253(7) 0.43976(7) 0.69736(8)
H1_2 H 0.343400 0.399047 0.697425
C5_2 C 0.38629(8) 0.46956(7) 0.67284(9)
H2_2 H 0.417170 0.449421 0.655541
O2_2 O 0.25115(4) 0.34948(4) 0.79721(4)
C6_2 C 0.20485(7) 0.46922(6) 0.77691(7)
C7_2 C 0.15747(7) 0.43976(7) 0.80264(8)
H3_2 H 0.156600 0.399047 0.802575
C8_2 C 0.11371(8) 0.46956(7) 0.82716(9)
H4_2 H 0.082830 0.449421 0.844459
O3_2 O 0.24885(4) 0.65052(4) 0.70279(4)
C9_2 C 0.250000 0.62423(8) 0.750000
C10_2 C 0.250000 0.56002(8) 0.750000
C11_2 C 0.29515(7) 0.53078(6) 0.72309(7)
C12_2 C 0.34253(7) 0.56024(7) 0.69736(8)
H5_2 H 0.343400 0.600953 0.697425
C13_2 C 0.38629(8) 0.53044(7) 0.67284(9)
H6_2 H 0.417170 0.550579 0.655541
O4_2 O 0.25115(4) 0.65052(4) 0.79721(4)
C14_2 C 0.20485(7) 0.53078(6) 0.77691(7)
C15_2 C 0.15747(7) 0.56024(7) 0.80264(8)
H7_2 H 0.156600 0.600953 0.802575
C16_2 C 0.11371(8) 0.53044(7) 0.82716(9)
H8_2 H 0.082830 0.550579 0.844459
O5_2 O 0.29721(4) 0.24885(4) 0.65052(4)
C17_2 C 0.250000 0.250000 0.62423(8)
C18_2 C 0.250000 0.250000 0.56002(8)
C19_2 C 0.27691(7) 0.29515(7) 0.53078(6)
C20_2 C 0.30264(8) 0.34253(7) 0.56024(7)
H9_2 H 0.302575 0.343400 0.600953
C21_2 C 0.32716(9) 0.38629(8) 0.53044(7)
H10_2 H 0.344459 0.417170 0.550579
O6_2 O 0.20279(4) 0.25115(4) 0.65052(4)
C22_2 C 0.22309(7) 0.20485(7) 0.53078(6)
C23_2 C 0.19736(8) 0.15747(7) 0.56024(7)
H11_2 H 0.197425 0.156600 0.600953
C24_2 C 0.17284(9) 0.11371(8) 0.53044(7)
H12_2 H 0.155541 0.082830 0.550579
O7_2 O 0.29721(4) 0.24885(4) 0.34948(4)
C25_2 C 0.250000 0.250000 0.37577(8)
C26_2 C 0.250000 0.250000 0.43998(8)
C27_2 C 0.27691(7) 0.29515(7) 0.46922(6)
C28_2 C 0.30264(8) 0.34253(7) 0.43976(7)
H13_2 H 0.302575 0.343400 0.399047
C29_2 C 0.32716(9) 0.38629(8) 0.46956(7)
H14_2 H 0.344459 0.417170 0.449421
O8_2 O 0.20279(4) 0.25115(4) 0.34948(4)
C30_2 C 0.22309(7) 0.20485(7) 0.46922(6)
C31_2 C 0.19736(8) 0.15747(7) 0.43976(7)
H15_2 H 0.197425 0.156600 0.399047
C32_2 C 0.17284(9) 0.11371(8) 0.46956(7)
H16_2 H 0.155541 0.082830 0.449421
O9_2 O 0.34948(4) 0.29721(4) 0.75115(4)
C33_2 C 0.37577(8) 0.250000 0.750000
C34_2 C 0.43998(8) 0.250000 0.750000
C35_2 C 0.46922(6) 0.27691(7) 0.70485(7)
C36_2 C 0.43976(7) 0.30264(8) 0.65747(7)
H17_2 H 0.399047 0.302575 0.656600
C37_2 C 0.46956(7) 0.32716(9) 0.61371(8)
H18_2 H 0.449421 0.344459 0.582830
O10_2 O 0.34948(4) 0.20279(4) 0.74885(4)
C38_2 C 0.46922(6) 0.22309(7) 0.79515(7)
C39_2 C 0.43976(7) 0.19736(8) 0.84253(7)
H19_2 H 0.399047 0.197425 0.843400
C40_2 C 0.46956(7) 0.17284(9) 0.88629(8)
H20_2 H 0.449421 0.155541 0.917170
O11_2 O 0.65052(4) 0.29721(4) 0.75115(4)
C41_2 C 0.62423(8) 0.250000 0.750000
C42_2 C 0.56002(8) 0.250000 0.750000
C43_2 C 0.53078(6) 0.27691(7) 0.70485(7)
C44_2 C 0.56024(7) 0.30264(8) 0.65747(7)
H21_2 H 0.600953 0.302575 0.656600
C45_2 C 0.53044(7) 0.32716(9) 0.61371(8)
H22_2 H 0.550579 0.344459 0.582830
O12_2 O 0.65052(4) 0.20279(4) 0.74885(4)
C46_2 C 0.53078(6) 0.22309(7) 0.79515(7)
C47_2 C 0.56024(7) 0.19736(8) 0.84253(7)
H23_2 H 0.600953 0.197425 0.843400
C48_2 C 0.53044(7) 0.17284(9) 0.88629(8)
H24_2 H 0.550579 0.155541 0.917170
Th2_2 Th 0.250000 0.250000 0.250000
O13_2 O 0.24885(4) 0.15052(4) 0.79721(4)
O14_2 O 0.29721(4) 0.25115(4) 0.84948(4)
O15_2 O 0.20279(4) 0.24885(4) 0.84948(4)
O16_2 O 0.15052(4) 0.29721(4) 0.74885(4)
O17_2 O 0.25115(4) 0.15052(4) 0.70279(4)
O18_2 O 0.15052(4) 0.20279(4) 0.75115(4)
Th1_3 Th 0.250000 0.750000 0.250000
O1_3 O 0.24885(4) 0.65052(4) 0.29721(4)
C1_3 C 0.250000 0.62423(8) 0.250000
C2_3 C 0.250000 0.56002(8) 0.250000
C3_3 C 0.29515(7) 0.53078(6) 0.27691(7)
C4_3 C 0.34253(7) 0.56024(7) 0.30264(8)
H1_3 H 0.343400 0.600953 0.302575
C5_3 C 0.38629(8) 0.53044(7) 0.32716(9)
H2_3 H 0.417170 0.550579 0.344459
O2_3 O 0.25115(4) 0.65052(4) 0.20279(4)
C6_3 C 0.20485(7) 0.53078(6) 0.22309(7)
C7_3 C 0.15747(7) 0.56024(7) 0.19736(8)
H3_3 H 0.156600 0.600953 0.197425
C8_3 C 0.11371(8) 0.53044(7) 0.17284(9)
H4_3 H 0.082830 0.550579 0.155541
O3_3 O 0.24885(4) 0.34948(4) 0.29721(4)
C9_3 C 0.250000 0.37577(8) 0.250000
C10_3 C 0.250000 0.43998(8) 0.250000
C11_3 C 0.29515(7) 0.46922(6) 0.27691(7)
C12_3 C 0.34253(7) 0.43976(7) 0.30264(8)
H5_3 H 0.343400 0.399047 0.302575
C13_3 C 0.38629(8) 0.46956(7) 0.32716(9)
H6_3 H 0.417170 0.449421 0.344459
O4_3 O 0.25115(4) 0.34948(4) 0.20279(4)
C14_3 C 0.20485(7) 0.46922(6) 0.22309(7)
C15_3 C 0.15747(7) 0.43976(7) 0.19736(8)
H7_3 H 0.156600 0.399047 0.197425
C16_3 C 0.11371(8) 0.46956(7) 0.17284(9)
H8_3 H 0.082830 0.449421 0.155541
O5_3 O 0.29721(4) 0.75115(4) 0.34948(4)
C17_3 C 0.250000 0.750000 0.37577(8)
C18_3 C 0.250000 0.750000 0.43998(8)
C19_3 C 0.27691(7) 0.70485(7) 0.46922(6)
C20_3 C 0.30264(8) 0.65747(7) 0.43976(7)
H9_3 H 0.302575 0.656600 0.399047
C21_3 C 0.32716(9) 0.61371(8) 0.46956(7)
H10_3 H 0.344459 0.582830 0.449421
O6_3 O 0.20279(4) 0.74885(4) 0.34948(4)
C22_3 C 0.22309(7) 0.79515(7) 0.46922(6)
C23_3 C 0.19736(8) 0.84253(7) 0.43976(7)
H11_3 H 0.197425 0.843400 0.399047
C24_3 C 0.17284(9) 0.88629(8) 0.46956(7)
H12_3 H 0.155541 0.917170 0.449421
O7_3 O 0.29721(4) 0.75115(4) 0.65052(4)
C25_3 C 0.250000 0.750000 0.62423(8)
C26_3 C 0.250000 0.750000 0.56002(8)
C27_3 C 0.27691(7) 0.70485(7) 0.53078(6)
C28_3 C 0.30264(8) 0.65747(7) 0.56024(7)
H13_3 H 0.302575 0.656600 0.600953
C29_3 C 0.32716(9) 0.61371(8) 0.53044(7)
H14_3 H 0.344459 0.582830 0.550579
O8_3 O 0.20279(4) 0.74885(4) 0.65052(4)
C30_3 C 0.22309(7) 0.79515(7) 0.53078(6)
C31_3 C 0.19736(8) 0.84253(7) 0.56024(7)
H15_3 H 0.197425 0.843400 0.600953
C32_3 C 0.17284(9) 0.88629(8) 0.53044(7)
H16_3 H 0.155541 0.917170 0.550579
O9_3 O 0.34948(4) 0.70279(4) 0.24885(4)
C33_3 C 0.37577(8) 0.750000 0.250000
C34_3 C 0.43998(8) 0.750000 0.250000
C35_3 C 0.46922(6) 0.72309(7) 0.29515(7)
C36_3 C 0.43976(7) 0.69736(8) 0.34253(7)
H17_3 H 0.399047 0.697425 0.343400
C37_3 C 0.46956(7) 0.67284(9) 0.38629(8)
H18_3 H 0.449421 0.655541 0.417170
O10_3 O 0.34948(4) 0.79721(4) 0.25115(4)
C38_3 C 0.46922(6) 0.77691(7) 0.20485(7)
C39_3 C 0.43976(7) 0.80264(8) 0.15747(7)
H19_3 H 0.399047 0.802575 0.156600
C40_3 C 0.46956(7) 0.82716(9) 0.11371(8)
H20_3 H 0.449421 0.844459 0.082830
O11_3 O 0.65052(4) 0.70279(4) 0.24885(4)
C41_3 C 0.62423(8) 0.750000 0.250000
C42_3 C 0.56002(8) 0.750000 0.250000
C43_3 C 0.53078(6) 0.72309(7) 0.29515(7)
C44_3 C 0.56024(7) 0.69736(8) 0.34253(7)
H21_3 H 0.600953 0.697425 0.343400
C45_3 C 0.53044(7) 0.67284(9) 0.38629(8)
H22_3 H 0.550579 0.655541 0.417170
O12_3 O 0.65052(4) 0.79721(4) 0.25115(4)
C46_3 C 0.53078(6) 0.77691(7) 0.20485(7)
C47_3 C 0.56024(7) 0.80264(8) 0.15747(7)
H23_3 H 0.600953 0.802575 0.156600
C48_3 C 0.53044(7) 0.82716(9) 0.11371(8)
H24_3 H 0.550579 0.844459 0.082830
O13_3 O 0.24885(4) 0.84948(4) 0.20279(4)
O14_3 O 0.29721(4) 0.74885(4) 0.15052(4)
O15_3 O 0.20279(4) 0.75115(4) 0.15052(4)
O16_3 O 0.15052(4) 0.70279(4) 0.25115(4)
O17_3 O 0.25115(4) 0.84948(4) 0.29721(4)
O18_3 O 0.15052(4) 0.79721(4) 0.24885(4)
Th1_4 Th 0.750000 0.250000 0.250000
O1_4 O 0.75115(4) 0.34948(4) 0.29721(4)
C1_4 C 0.750000 0.37577(8) 0.250000
C2_4 C 0.750000 0.43998(8) 0.250000
C3_4 C 0.70485(7) 0.46922(6) 0.27691(7)
C4_4 C 0.65747(7) 0.43976(7) 0.30264(8)
H1_4 H 0.656600 0.399047 0.302575
C5_4 C 0.61371(8) 0.46956(7) 0.32716(9)
H2_4 H 0.582830 0.449421 0.344459
O2_4 O 0.74885(4) 0.34948(4) 0.20279(4)
C6_4 C 0.79515(7) 0.46922(6) 0.22309(7)
C7_4 C 0.84253(7) 0.43976(7) 0.19736(8)
H3_4 H 0.843400 0.399047 0.197425
C8_4 C 0.88629(8) 0.46956(7) 0.17284(9)
H4_4 H 0.917170 0.449421 0.155541
O3_4 O 0.75115(4) 0.65052(4) 0.29721(4)
C9_4 C 0.750000 0.62423(8) 0.250000
C10_4 C 0.750000 0.56002(8) 0.250000
C11_4 C 0.70485(7) 0.53078(6) 0.27691(7)
C12_4 C 0.65747(7) 0.56024(7) 0.30264(8)
H5_4 H 0.656600 0.600953 0.302575
C13_4 C 0.61371(8) 0.53044(7) 0.32716(9)
H6_4 H 0.582830 0.550579 0.344459
O4_4 O 0.74885(4) 0.65052(4) 0.20279(4)
C14_4 C 0.79515(7) 0.53078(6) 0.22309(7)
C15_4 C 0.84253(7) 0.56024(7) 0.19736(8)
H7_4 H 0.843400 0.600953 0.197425
C16_4 C 0.88629(8) 0.53044(7) 0.17284(9)
H8_4 H 0.917170 0.550579 0.155541
O5_4 O 0.70279(4) 0.24885(4) 0.34948(4)
C17_4 C 0.750000 0.250000 0.37577(8)
C18_4 C 0.750000 0.250000 0.43998(8)
C19_4 C 0.72309(7) 0.29515(7) 0.46922(6)
C20_4 C 0.69736(8) 0.34253(7) 0.43976(7)
H9_4 H 0.697425 0.343400 0.399047
C21_4 C 0.67284(9) 0.38629(8) 0.46956(7)
H10_4 H 0.655541 0.417170 0.449421
O6_4 O 0.79721(4) 0.25115(4) 0.34948(4)
C22_4 C 0.77691(7) 0.20485(7) 0.46922(6)
C23_4 C 0.80264(8) 0.15747(7) 0.43976(7)
H11_4 H 0.802575 0.156600 0.399047
C24_4 C 0.82716(9) 0.11371(8) 0.46956(7)
H12_4 H 0.844459 0.082830 0.449421
O7_4 O 0.70279(4) 0.24885(4) 0.65052(4)
C25_4 C 0.750000 0.250000 0.62423(8)
C26_4 C 0.750000 0.250000 0.56002(8)
C27_4 C 0.72309(7) 0.29515(7) 0.53078(6)
C28_4 C 0.69736(8) 0.34253(7) 0.56024(7)
H13_4 H 0.697425 0.343400 0.600953
C29_4 C 0.67284(9) 0.38629(8) 0.53044(7)
H14_4 H 0.655541 0.417170 0.550579
O8_4 O 0.79721(4) 0.25115(4) 0.65052(4)
C30_4 C 0.77691(7) 0.20485(7) 0.53078(6)
C31_4 C 0.80264(8) 0.15747(7) 0.56024(7)
H15_4 H 0.802575 0.156600 0.600953
C32_4 C 0.82716(9) 0.11371(8) 0.53044(7)
H16_4 H 0.844459 0.082830 0.550579
O9_4 O 0.65052(4) 0.29721(4) 0.24885(4)
C33_4 C 0.62423(8) 0.250000 0.250000
C34_4 C 0.56002(8) 0.250000 0.250000
C35_4 C 0.53078(6) 0.27691(7) 0.29515(7)
C36_4 C 0.56024(7) 0.30264(8) 0.34253(7)
H17_4 H 0.600953 0.302575 0.343400
C37_4 C 0.53044(7) 0.32716(9) 0.38629(8)
H18_4 H 0.550579 0.344459 0.417170
O10_4 O 0.65052(4) 0.20279(4) 0.25115(4)
C38_4 C 0.53078(6) 0.22309(7) 0.20485(7)
C39_4 C 0.56024(7) 0.19736(8) 0.15747(7)
H19_4 H 0.600953 0.197425 0.156600
C40_4 C 0.53044(7) 0.17284(9) 0.11371(8)
H20_4 H 0.550579 0.155541 0.082830
O11_4 O 0.34948(4) 0.29721(4) 0.24885(4)
C41_4 C 0.37577(8) 0.250000 0.250000
C42_4 C 0.43998(8) 0.250000 0.250000
C43_4 C 0.46922(6) 0.27691(7) 0.29515(7)
C44_4 C 0.43976(7) 0.30264(8) 0.34253(7)
H21_4 H 0.399047 0.302575 0.343400
C45_4 C 0.46956(7) 0.32716(9) 0.38629(8)
H22_4 H 0.449421 0.344459 0.417170
O12_4 O 0.34948(4) 0.20279(4) 0.25115(4)
C46_4 C 0.46922(6) 0.22309(7) 0.20485(7)
C47_4 C 0.43976(7) 0.19736(8) 0.15747(7)
H23_4 H 0.399047 0.197425 0.156600
C48_4 C 0.46956(7) 0.17284(9) 0.11371(8)
H24_4 H 0.449421 0.155541 0.082830
O13_4 O 0.75115(4) 0.15052(4) 0.20279(4)
O14_4 O 0.70279(4) 0.25115(4) 0.15052(4)
O15_4 O 0.79721(4) 0.24885(4) 0.15052(4)
O16_4 O 0.84948(4) 0.29721(4) 0.25115(4)
O17_4 O 0.74885(4) 0.15052(4) 0.29721(4)
O18_4 O 0.84948(4) 0.20279(4) 0.24885(4)
C1_5 C 0.750000 0.12423(8) 0.250000
C2_5 C 0.750000 0.06002(8) 0.250000
C3_5 C 0.70485(7) 0.03078(6) 0.22309(7)
C4_5 C 0.65747(7) 0.06024(7) 0.19736(8)
H1_5 H 0.656600 0.100953 0.197425
C5_5 C 0.61371(8) 0.03044(7) 0.17284(9)
H2_5 H 0.582830 0.050579 0.155541
C6_5 C 0.79515(7) 0.03078(6) 0.27691(7)
C7_5 C 0.84253(7) 0.06024(7) 0.30264(8)
H3_5 H 0.843400 0.100953 0.302575
C8_5 C 0.88629(8) 0.03044(7) 0.32716(9)
H4_5 H 0.917170 0.050579 0.344459
C17_5 C 0.750000 0.250000 0.12423(8)
C18_5 C 0.750000 0.250000 0.06002(8)
C19_5 C 0.72309(7) 0.20485(7) 0.03078(6)
C20_5 C 0.69736(8) 0.15747(7) 0.06024(7)
H9_5 H 0.697425 0.156600 0.100953
C21_5 C 0.67284(9) 0.11371(8) 0.03044(7)
H10_5 H 0.655541 0.082830 0.050579
C22_5 C 0.77691(7) 0.29515(7) 0.03078(6)
C23_5 C 0.80264(8) 0.34253(7) 0.06024(7)
H11_5 H 0.802575 0.343400 0.100953
C24_5 C 0.82716(9) 0.38629(8) 0.03044(7)
H12_5 H 0.844459 0.417170 0.050579
O7_5 O 0.70279(4) 0.25115(4) 0.84948(4)
C25_5 C 0.750000 0.250000 0.87577(8)
C26_5 C 0.750000 0.250000 0.93998(8)
C27_5 C 0.72309(7) 0.20485(7) 0.96922(6)
C28_5 C 0.69736(8) 0.15747(7) 0.93976(7)
H13_5 H 0.697425 0.156600 0.899047
C29_5 C 0.67284(9) 0.11371(8) 0.96956(7)
H14_5 H 0.655541 0.082830 0.949421
O8_5 O 0.79721(4) 0.24885(4) 0.84948(4)
C30_5 C 0.77691(7) 0.29515(7) 0.96922(6)
C31_5 C 0.80264(8) 0.34253(7) 0.93976(7)
H15_5 H 0.802575 0.343400 0.899047
C32_5 C 0.82716(9) 0.38629(8) 0.96956(7)
H16_5 H 0.844459 0.417170 0.949421
O3_5 O 0.75115(4) 0.84948(4) 0.20279(4)
C9_5 C 0.750000 0.87577(8) 0.250000
C10_5 C 0.750000 0.93998(8) 0.250000
C11_5 C 0.70485(7) 0.96922(6) 0.22309(7)
C12_5 C 0.65747(7) 0.93976(7) 0.19736(8)
H5_5 H 0.656600 0.899047 0.197425
C13_5 C 0.61371(8) 0.96956(7) 0.17284(9)
H6_5 H 0.582830 0.949421 0.155541
O4_5 O 0.74885(4) 0.84948(4) 0.29721(4)
C14_5 C 0.79515(7) 0.96922(6) 0.27691(7)
C15_5 C 0.84253(7) 0.93976(7) 0.30264(8)
H7_5 H 0.843400 0.899047 0.302575
C16_5 C 0.88629(8) 0.96956(7) 0.32716(9)
H8_5 H 0.917170 0.949421 0.344459
O3_6 O 0.24885(4) 0.15052(4) 0.20279(4)
C9_6 C 0.250000 0.12423(8) 0.250000
C10_6 C 0.250000 0.06002(8) 0.250000
C11_6 C 0.29515(7) 0.03078(6) 0.22309(7)
C12_6 C 0.34253(7) 0.06024(7) 0.19736(8)
H5_6 H 0.343400 0.100953 0.197425
C13_6 C 0.38629(8) 0.03044(7) 0.17284(9)
H6_6 H 0.417170 0.050579 0.155541
O4_6 O 0.25115(4) 0.15052(4) 0.29721(4)
C14_6 C 0.20485(7) 0.03078(6) 0.27691(7)
C15_6 C 0.15747(7) 0.06024(7) 0.30264(8)
H7_6 H 0.156600 0.100953 0.302575
C16_6 C 0.11371(8) 0.03044(7) 0.32716(9)
H8_6 H 0.082830 0.050579 0.344459
C1_6 C 0.250000 0.87577(8) 0.250000
C2_6 C 0.250000 0.93998(8) 0.250000
C3_6 C 0.29515(7) 0.96922(6) 0.22309(7)
C4_6 C 0.34253(7) 0.93976(7) 0.19736(8)
H1_6 H 0.343400 0.899047 0.197425
C5_6 C 0.38629(8) 0.96956(7) 0.17284(9)
H2_6 H 0.417170 0.949421 0.155541
C6_6 C 0.20485(7) 0.96922(6) 0.27691(7)
C7_6 C 0.15747(7) 0.93976(7) 0.30264(8)
H3_6 H 0.156600 0.899047 0.302575
C8_6 C 0.11371(8) 0.96956(7) 0.32716(9)
H4_6 H 0.082830 0.949421 0.344459
C17_6 C 0.250000 0.750000 0.12423(8)
C18_6 C 0.250000 0.750000 0.06002(8)
C19_6 C 0.27691(7) 0.79515(7) 0.03078(6)
C20_6 C 0.30264(8) 0.84253(7) 0.06024(7)
H9_6 H 0.302575 0.843400 0.100953
C21_6 C 0.32716(9) 0.88629(8) 0.03044(7)
H10_6 H 0.344459 0.917170 0.050579
C22_6 C 0.22309(7) 0.70485(7) 0.03078(6)
C23_6 C 0.19736(8) 0.65747(7) 0.06024(7)
H11_6 H 0.197425 0.656600 0.100953
C24_6 C 0.17284(9) 0.61371(8) 0.03044(7)
H12_6 H 0.155541 0.582830 0.050579
O7_6 O 0.29721(4) 0.74885(4) 0.84948(4)
C25_6 C 0.250000 0.750000 0.87577(8)
C26_6 C 0.250000 0.750000 0.93998(8)
C27_6 C 0.27691(7) 0.79515(7) 0.96922(6)
C28_6 C 0.30264(8) 0.84253(7) 0.93976(7)
H13_6 H 0.302575 0.843400 0.899047
C29_6 C 0.32716(9) 0.88629(8) 0.96956(7)
H14_6 H 0.344459 0.917170 0.949421
O8_6 O 0.20279(4) 0.75115(4) 0.84948(4)
C30_6 C 0.22309(7) 0.70485(7) 0.96922(6)
C31_6 C 0.19736(8) 0.65747(7) 0.93976(7)
H15_6 H 0.197425 0.656600 0.899047
C32_6 C 0.17284(9) 0.61371(8) 0.96956(7)
H16_6 H 0.155541 0.582830 0.949421
O7_7 O 0.29721(4) 0.25115(4) 0.15052(4)
C25_7 C 0.250000 0.250000 0.12423(8)
C26_7 C 0.250000 0.250000 0.06002(8)
C27_7 C 0.27691(7) 0.20485(7) 0.03078(6)
C28_7 C 0.30264(8) 0.15747(7) 0.06024(7)
H13_7 H 0.302575 0.156600 0.100953
C29_7 C 0.32716(9) 0.11371(8) 0.03044(7)
H14_7 H 0.344459 0.082830 0.050579
O8_7 O 0.20279(4) 0.24885(4) 0.15052(4)
C30_7 C 0.22309(7) 0.29515(7) 0.03078(6)
C31_7 C 0.19736(8) 0.34253(7) 0.06024(7)
H15_7 H 0.197425 0.343400 0.100953
C32_7 C 0.17284(9) 0.38629(8) 0.03044(7)
H16_7 H 0.155541 0.417170 0.050579
C1_7 C 0.250000 0.12423(8) 0.750000
C2_7 C 0.250000 0.06002(8) 0.750000
C3_7 C 0.29515(7) 0.03078(6) 0.77691(7)
C4_7 C 0.34253(7) 0.06024(7) 0.80264(8)
H1_7 H 0.343400 0.100953 0.802575
C5_7 C 0.38629(8) 0.03044(7) 0.82716(9)
H2_7 H 0.417170 0.050579 0.844459
C6_7 C 0.20485(7) 0.03078(6) 0.72309(7)
C7_7 C 0.15747(7) 0.06024(7) 0.69736(8)
H3_7 H 0.156600 0.100953 0.697425
C8_7 C 0.11371(8) 0.03044(7) 0.67284(9)
H4_7 H 0.082830 0.050579 0.655541
C17_7 C 0.250000 0.250000 0.87577(8)
C18_7 C 0.250000 0.250000 0.93998(8)
C19_7 C 0.27691(7) 0.20485(7) 0.96922(6)
C20_7 C 0.30264(8) 0.15747(7) 0.93976(7)
H9_7 H 0.302575 0.156600 0.899047
C21_7 C 0.32716(9) 0.11371(8) 0.96956(7)
H10_7 H 0.344459 0.082830 0.949421
C22_7 C 0.22309(7) 0.29515(7) 0.96922(6)
C23_7 C 0.19736(8) 0.34253(7) 0.93976(7)
H11_7 H 0.197425 0.343400 0.899047
C24_7 C 0.17284(9) 0.38629(8) 0.96956(7)
H12_7 H 0.155541 0.417170 0.949421
O3_7 O 0.24885(4) 0.84948(4) 0.79721(4)
C9_7 C 0.250000 0.87577(8) 0.750000
C10_7 C 0.250000 0.93998(8) 0.750000
C11_7 C 0.29515(7) 0.96922(6) 0.77691(7)
C12_7 C 0.34253(7) 0.93976(7) 0.80264(8)
H5_7 H 0.343400 0.899047 0.802575
C13_7 C 0.38629(8) 0.96956(7) 0.82716(9)
H6_7 H 0.417170 0.949421 0.844459
O4_7 O 0.25115(4) 0.84948(4) 0.70279(4)
C14_7 C 0.20485(7) 0.96922(6) 0.72309(7)
C15_7 C 0.15747(7) 0.93976(7) 0.69736(8)
H7_7 H 0.156600 0.899047 0.697425
C16_7 C 0.11371(8) 0.96956(7) 0.67284(9)
H8_7 H 0.082830 0.949421 0.655541
O3_8 O 0.75115(4) 0.15052(4) 0.79721(4)
C9_8 C 0.750000 0.12423(8) 0.750000
C10_8 C 0.750000 0.06002(8) 0.750000
C11_8 C 0.70485(7) 0.03078(6) 0.77691(7)
C12_8 C 0.65747(7) 0.06024(7) 0.80264(8)
H5_8 H 0.656600 0.100953 0.802575
C13_8 C 0.61371(8) 0.03044(7) 0.82716(9)
H6_8 H 0.582830 0.050579 0.844459
O4_8 O 0.74885(4) 0.15052(4) 0.70279(4)
C14_8 C 0.79515(7) 0.03078(6) 0.72309(7)
C15_8 C 0.84253(7) 0.06024(7) 0.69736(8)
H7_8 H 0.843400 0.100953 0.697425
C16_8 C 0.88629(8) 0.03044(7) 0.67284(9)
H8_8 H 0.917170 0.050579 0.655541
O7_8 O 0.70279(4) 0.74885(4) 0.15052(4)
C25_8 C 0.750000 0.750000 0.12423(8)
C26_8 C 0.750000 0.750000 0.06002(8)
C27_8 C 0.72309(7) 0.79515(7) 0.03078(6)
C28_8 C 0.69736(8) 0.84253(7) 0.06024(7)
H13_8 H 0.697425 0.843400 0.100953
C29_8 C 0.67284(9) 0.88629(8) 0.03044(7)
H14_8 H 0.655541 0.917170 0.050579
O8_8 O 0.79721(4) 0.75115(4) 0.15052(4)
C30_8 C 0.77691(7) 0.70485(7) 0.03078(6)
C31_8 C 0.80264(8) 0.65747(7) 0.06024(7)
H15_8 H 0.802575 0.656600 0.100953
C32_8 C 0.82716(9) 0.61371(8) 0.03044(7)
H16_8 H 0.844459 0.582830 0.050579
C1_8 C 0.750000 0.87577(8) 0.750000
C2_8 C 0.750000 0.93998(8) 0.750000
C3_8 C 0.70485(7) 0.96922(6) 0.77691(7)
C4_8 C 0.65747(7) 0.93976(7) 0.80264(8)
H1_8 H 0.656600 0.899047 0.802575
C5_8 C 0.61371(8) 0.96956(7) 0.82716(9)
H2_8 H 0.582830 0.949421 0.844459
C6_8 C 0.79515(7) 0.96922(6) 0.72309(7)
C7_8 C 0.84253(7) 0.93976(7) 0.69736(8)
H3_8 H 0.843400 0.899047 0.697425
C8_8 C 0.88629(8) 0.96956(7) 0.67284(9)
H4_8 H 0.917170 0.949421 0.655541
C17_8 C 0.750000 0.750000 0.87577(8)
C18_8 C 0.750000 0.750000 0.93998(8)
C19_8 C 0.72309(7) 0.79515(7) 0.96922(6)
C20_8 C 0.69736(8) 0.84253(7) 0.93976(7)
H9_8 H 0.697425 0.843400 0.899047
C21_8 C 0.67284(9) 0.88629(8) 0.96956(7)
H10_8 H 0.655541 0.917170 0.949421
C22_8 C 0.77691(7) 0.70485(7) 0.96922(6)
C23_8 C 0.80264(8) 0.65747(7) 0.93976(7)
H11_8 H 0.802575 0.656600 0.899047
C24_8 C 0.82716(9) 0.61371(8) 0.96956(7)
H12_8 H 0.844459 0.582830 0.949421
C33_5 C 0.12423(8) 0.750000 0.250000
C34_5 C 0.06002(8) 0.750000 0.250000
C35_5 C 0.03078(6) 0.72309(7) 0.20485(7)
C36_5 C 0.06024(7) 0.69736(8) 0.15747(7)
H17_5 H 0.100953 0.697425 0.156600
C37_5 C 0.03044(7) 0.67284(9) 0.11371(8)
H18_5 H 0.050579 0.655541 0.082830
C38_5 C 0.03078(6) 0.77691(7) 0.29515(7)
C39_5 C 0.06024(7) 0.80264(8) 0.34253(7)
H19_5 H 0.100953 0.802575 0.343400
C40_5 C 0.03044(7) 0.82716(9) 0.38629(8)
H20_5 H 0.050579 0.844459 0.417170
O11_5 O 0.84948(4) 0.70279(4) 0.25115(4)
C41_5 C 0.87577(8) 0.750000 0.250000
C42_5 C 0.93998(8) 0.750000 0.250000
C43_5 C 0.96922(6) 0.72309(7) 0.20485(7)
C44_5 C 0.93976(7) 0.69736(8) 0.15747(7)
H21_5 H 0.899047 0.697425 0.156600
C45_5 C 0.96956(7) 0.67284(9) 0.11371(8)
H22_5 H 0.949421 0.655541 0.082830
O12_5 O 0.84948(4) 0.79721(4) 0.24885(4)
C46_5 C 0.96922(6) 0.77691(7) 0.29515(7)
C47_5 C 0.93976(7) 0.80264(8) 0.34253(7)
H23_5 H 0.899047 0.802575 0.343400
C48_5 C 0.96956(7) 0.82716(9) 0.38629(8)
H24_5 H 0.949421 0.844459 0.417170
O11_6 O 0.15052(4) 0.29721(4) 0.25115(4)
C41_6 C 0.12423(8) 0.250000 0.250000
C42_6 C 0.06002(8) 0.250000 0.250000
C43_6 C 0.03078(6) 0.27691(7) 0.20485(7)
C44_6 C 0.06024(7) 0.30264(8) 0.15747(7)
H21_6 H 0.100953 0.302575 0.156600
C45_6 C 0.03044(7) 0.32716(9) 0.11371(8)
H22_6 H 0.050579 0.344459 0.082830
O12_6 O 0.15052(4) 0.20279(4) 0.24885(4)
C46_6 C 0.03078(6) 0.22309(7) 0.29515(7)
C47_6 C 0.06024(7) 0.19736(8) 0.34253(7)
H23_6 H 0.100953 0.197425 0.343400
C48_6 C 0.03044(7) 0.17284(9) 0.38629(8)
H24_6 H 0.050579 0.155541 0.417170
C33_6 C 0.87577(8) 0.250000 0.250000
C34_6 C 0.93998(8) 0.250000 0.250000
C35_6 C 0.96922(6) 0.27691(7) 0.20485(7)
C36_6 C 0.93976(7) 0.30264(8) 0.15747(7)
H17_6 H 0.899047 0.302575 0.156600
C37_6 C 0.96956(7) 0.32716(9) 0.11371(8)
H18_6 H 0.949421 0.344459 0.082830
C38_6 C 0.96922(6) 0.22309(7) 0.29515(7)
C39_6 C 0.93976(7) 0.19736(8) 0.34253(7)
H19_6 H 0.899047 0.197425 0.343400
C40_6 C 0.96956(7) 0.17284(9) 0.38629(8)
H20_6 H 0.949421 0.155541 0.417170
O11_7 O 0.15052(4) 0.70279(4) 0.74885(4)
C41_7 C 0.12423(8) 0.750000 0.750000
C42_7 C 0.06002(8) 0.750000 0.750000
C43_7 C 0.03078(6) 0.72309(7) 0.79515(7)
C44_7 C 0.06024(7) 0.69736(8) 0.84253(7)
H21_7 H 0.100953 0.697425 0.843400
C45_7 C 0.03044(7) 0.67284(9) 0.88629(8)
H22_7 H 0.050579 0.655541 0.917170
O12_7 O 0.15052(4) 0.79721(4) 0.75115(4)
C46_7 C 0.03078(6) 0.77691(7) 0.70485(7)
C47_7 C 0.06024(7) 0.80264(8) 0.65747(7)
H23_7 H 0.100953 0.802575 0.656600
C48_7 C 0.03044(7) 0.82716(9) 0.61371(8)
H24_7 H 0.050579 0.844459 0.582830
C33_7 C 0.87577(8) 0.750000 0.750000
C34_7 C 0.93998(8) 0.750000 0.750000
C35_7 C 0.96922(6) 0.72309(7) 0.79515(7)
C36_7 C 0.93976(7) 0.69736(8) 0.84253(7)
H17_7 H 0.899047 0.697425 0.843400
C37_7 C 0.96956(7) 0.67284(9) 0.88629(8)
H18_7 H 0.949421 0.655541 0.917170
C38_7 C 0.96922(6) 0.77691(7) 0.70485(7)
C39_7 C 0.93976(7) 0.80264(8) 0.65747(7)
H19_7 H 0.899047 0.802575 0.656600
C40_7 C 0.96956(7) 0.82716(9) 0.61371(8)
H20_7 H 0.949421 0.844459 0.582830
C33_8 C 0.12423(8) 0.250000 0.750000
C34_8 C 0.06002(8) 0.250000 0.750000
C35_8 C 0.03078(6) 0.27691(7) 0.79515(7)
C36_8 C 0.06024(7) 0.30264(8) 0.84253(7)
H17_8 H 0.100953 0.302575 0.843400
C37_8 C 0.03044(7) 0.32716(9) 0.88629(8)
H18_8 H 0.050579 0.344459 0.917170
C38_8 C 0.03078(6) 0.22309(7) 0.70485(7)
C39_8 C 0.06024(7) 0.19736(8) 0.65747(7)
H19_8 H 0.100953 0.197425 0.656600
C40_8 C 0.03044(7) 0.17284(9) 0.61371(8)
H20_8 H 0.050579 0.155541 0.582830
O11_8 O 0.84948(4) 0.29721(4) 0.74885(4)
C41_8 C 0.87577(8) 0.250000 0.750000
C42_8 C 0.93998(8) 0.250000 0.750000
C43_8 C 0.96922(6) 0.27691(7) 0.79515(7)
C44_8 C 0.93976(7) 0.30264(8) 0.84253(7)
H21_8 H 0.899047 0.302575 0.843400
C45_8 C 0.96956(7) 0.32716(9) 0.88629(8)
H22_8 H 0.949421 0.344459 0.917170
O12_8 O 0.84948(4) 0.20279(4) 0.75115(4)
C46_8 C 0.96922(6) 0.22309(7) 0.70485(7)
C47_8 C 0.93976(7) 0.19736(8) 0.65747(7)
H23_8 H 0.899047 0.197425 0.656600
C48_8 C 0.96956(7) 0.17284(9) 0.61371(8)
H24_8 H 0.949421 0.155541 0.582830
loop_
_geom_bond_atom_site_label_1
_geom_bond_atom_site_label_2
_geom_bond_site_symmetry_1
_geom_bond_site_symmetry_2
Th1 O1 1_555 1_555
O1 C1 1_555 1_555
C1 C2 1_555 1_555
C2 C3 1_555 1_555
C3 C4 1_555 1_555
C4 H1 1_555 1_555
C5 C4 1_555 1_555
H2 C5 1_555 1_555
O2 Th1 1_555 1_555
C6 C2 1_555 1_555
C7 C6 1_555 1_555
H3 C7 1_555 1_555
C8 C7 1_555 1_555
H4 C8 1_555 1_555
O3 C9 1_555 1_555
C9 C10 1_555 1_555
C10 C11 1_555 1_555
C11 C3 1_555 1_555
C12 C11 1_555 1_555
H5 C12 1_555 1_555
C13 C5 1_555 1_555
H6 C13 1_555 1_555
O4 C9 1_555 1_555
C14 C6 1_555 1_555
C15 C14 1_555 1_555
H7 C15 1_555 1_555
C16 C8 1_555 1_555
H8 C16 1_555 1_555
O5 Th1 1_555 1_555
C17 O5 1_555 1_555
C18 C17 1_555 1_555
C19 C18 1_555 1_555
C20 C19 1_555 1_555
H9 C20 1_555 1_555
C21 C20 1_555 1_555
H10 C21 1_555 1_555
O6 Th1 1_555 1_555
C22 C18 1_555 1_555
C23 C22 1_555 1_555
H11 C23 1_555 1_555
C24 C23 1_555 1_555
H12 C24 1_555 1_555
O7 C25 1_555 1_555
C25 C26 1_555 1_555
C26 C27 1_555 1_555
C27 C19 1_555 1_555
C28 C27 1_555 1_555
H13 C28 1_555 1_555
C29 C21 1_555 1_555
H14 C29 1_555 1_555
O8 C25 1_555 1_555
C30 C22 1_555 1_555
C31 C30 1_555 1_555
H15 C31 1_555 1_555
C32 C24 1_555 1_555
H16 C32 1_555 1_555
O9 Th1 1_555 1_555
C33 O9 1_555 1_555
C34 C33 1_555 1_555
C35 C34 1_555 1_555
C36 C35 1_555 1_555
H17 C36 1_555 1_555
C37 C36 1_555 1_555
H18 C37 1_555 1_555
O10 Th1 1_555 1_555
C38 C34 1_555 1_555
C39 C38 1_555 1_555
H19 C39 1_555 1_555
C40 C39 1_555 1_555
H20 C40 1_555 1_555
O11 C41 1_555 1_555
C41 C42 1_555 1_555
C42 C43 1_555 1_555
C43 C35 1_555 1_555
C44 C43 1_555 1_555
H21 C44 1_555 1_555
C45 C37 1_555 1_555
H22 C45 1_555 1_555
O12 C41 1_555 1_555
C46 C38 1_555 1_555
C47 C46 1_555 1_555
H23 C47 1_555 1_555
C48 C40 1_555 1_555
H24 C48 1_555 1_555
Th2 O7 1_555 1_555
Th3 O3 1_555 1_555
Th4 O11 1_555 1_555
O13 Th1 1_555 1_555
O14 Th1 1_555 1_555
O15 Th1 1_555 1_555
O16 Th1 1_555 1_555
O17 Th1 1_555 1_555
O18 Th1 1_555 1_555
C1 O2 1_555 1_555
C10 C14 1_555 1_555
C12 C13 1_555 1_555
O4 Th3 1_555 1_555
C15 C16 1_555 1_555
C17 O6 1_555 1_555
C26 C30 1_555 1_555
C28 C29 1_555 1_555
O8 Th2 1_555 1_555
C31 C32 1_555 1_555
C33 O10 1_555 1_555
C42 C46 1_555 1_555
C44 C45 1_555 1_555
O12 Th4 1_555 1_555
C47 C48 1_555 1_555
Th1_2 O1_2 1_555 1_555
O1_2 C1_2 1_555 1_555
C1_2 C2_2 1_555 1_555
C2_2 C3_2 1_555 1_555
C3_2 C4_2 1_555 1_555
C4_2 H1_2 1_555 1_555
C5_2 C4_2 1_555 1_555
H2_2 C5_2 1_555 1_555
O2_2 Th1_2 1_555 1_555
C6_2 C2_2 1_555 1_555
C7_2 C6_2 1_555 1_555
H3_2 C7_2 1_555 1_555
C8_2 C7_2 1_555 1_555
H4_2 C8_2 1_555 1_555
O3_2 C9_2 1_555 1_555
C9_2 C10_2 1_555 1_555
C10_2 C11_2 1_555 1_555
C11_2 C3_2 1_555 1_555
C12_2 C11_2 1_555 1_555
H5_2 C12_2 1_555 1_555
C13_2 C5_2 1_555 1_555
H6_2 C13_2 1_555 1_555
O4_2 C9_2 1_555 1_555
C14_2 C6_2 1_555 1_555
C15_2 C14_2 1_555 1_555
H7_2 C15_2 1_555 1_555
C16_2 C8_2 1_555 1_555
H8_2 C16_2 1_555 1_555
O5_2 Th1_2 1_555 1_555
C17_2 O5_2 1_555 1_555
C18_2 C17_2 1_555 1_555
C19_2 C18_2 1_555 1_555
C20_2 C19_2 1_555 1_555
H9_2 C20_2 1_555 1_555
C21_2 C20_2 1_555 1_555
H10_2 C21_2 1_555 1_555
O6_2 Th1_2 1_555 1_555
C22_2 C18_2 1_555 1_555
C23_2 C22_2 1_555 1_555
H11_2 C23_2 1_555 1_555
C24_2 C23_2 1_555 1_555
H12_2 C24_2 1_555 1_555
O7_2 C25_2 1_555 1_555
C25_2 C26_2 1_555 1_555
C26_2 C27_2 1_555 1_555
C27_2 C19_2 1_555 1_555
C28_2 C27_2 1_555 1_555
H13_2 C28_2 1_555 1_555
C29_2 C21_2 1_555 1_555
H14_2 C29_2 1_555 1_555
O8_2 C25_2 1_555 1_555
C30_2 C22_2 1_555 1_555
C31_2 C30_2 1_555 1_555
H15_2 C31_2 1_555 1_555
C32_2 C24_2 1_555 1_555
H16_2 C32_2 1_555 1_555
O9_2 Th1_2 1_555 1_555
C33_2 O9_2 1_555 1_555
C34_2 C33_2 1_555 1_555
C35_2 C34_2 1_555 1_555
C36_2 C35_2 1_555 1_555
H17_2 C36_2 1_555 1_555
C37_2 C36_2 1_555 1_555
H18_2 C37_2 1_555 1_555
O10_2 Th1_2 1_555 1_555
C38_2 C34_2 1_555 1_555
C39_2 C38_2 1_555 1_555
H19_2 C39_2 1_555 1_555
C40_2 C39_2 1_555 1_555
H20_2 C40_2 1_555 1_555
O11_2 C41_2 1_555 1_555
C41_2 C42_2 1_555 1_555
C42_2 C43_2 1_555 1_555
C43_2 C35_2 1_555 1_555
C44_2 C43_2 1_555 1_555
H21_2 C44_2 1_555 1_555
C45_2 C37_2 1_555 1_555
H22_2 C45_2 1_555 1_555
O12_2 C41_2 1_555 1_555
C46_2 C38_2 1_555 1_555
C47_2 C46_2 1_555 1_555
H23_2 C47_2 1_555 1_555
C48_2 C40_2 1_555 1_555
H24_2 C48_2 1_555 1_555
Th2_2 O7_2 1_555 1_555
Th4 O3_2 1_555 1_555
Th3 O11_2 1_555 1_555
O13_2 Th1_2 1_555 1_555
O14_2 Th1_2 1_555 1_555
O15_2 Th1_2 1_555 1_555
O16_2 Th1_2 1_555 1_555
O17_2 Th1_2 1_555 1_555
O18_2 Th1_2 1_555 1_555
C1_2 O2_2 1_555 1_555
C10_2 C14_2 1_555 1_555
C12_2 C13_2 1_555 1_555
O4_2 Th4 1_555 1_555
C15_2 C16_2 1_555 1_555
C17_2 O6_2 1_555 1_555
C26_2 C30_2 1_555 1_555
C28_2 C29_2 1_555 1_555
O8_2 Th2_2 1_555 1_555
C31_2 C32_2 1_555 1_555
C33_2 O10_2 1_555 1_555
C42_2 C46_2 1_555 1_555
C44_2 C45_2 1_555 1_555
O12_2 Th3 1_555 1_555
C47_2 C48_2 1_555 1_555
Th1_3 O1_3 1_555 1_555
O1_3 C1_3 1_555 1_555
C1_3 C2_3 1_555 1_555
C2_3 C3_3 1_555 1_555
C3_3 C4_3 1_555 1_555
C4_3 H1_3 1_555 1_555
C5_3 C4_3 1_555 1_555
H2_3 C5_3 1_555 1_555
O2_3 Th1_3 1_555 1_555
C6_3 C2_3 1_555 1_555
C7_3 C6_3 1_555 1_555
H3_3 C7_3 1_555 1_555
C8_3 C7_3 1_555 1_555
H4_3 C8_3 1_555 1_555
O3_3 C9_3 1_555 1_555
C9_3 C10_3 1_555 1_555
C10_3 C11_3 1_555 1_555
C11_3 C3_3 1_555 1_555
C12_3 C11_3 1_555 1_555
H5_3 C12_3 1_555 1_555
C13_3 C5_3 1_555 1_555
H6_3 C13_3 1_555 1_555
O4_3 C9_3 1_555 1_555
C14_3 C6_3 1_555 1_555
C15_3 C14_3 1_555 1_555
H7_3 C15_3 1_555 1_555
C16_3 C8_3 1_555 1_555
H8_3 C16_3 1_555 1_555
O5_3 Th1_3 1_555 1_555
C17_3 O5_3 1_555 1_555
C18_3 C17_3 1_555 1_555
C19_3 C18_3 1_555 1_555
C20_3 C19_3 1_555 1_555
H9_3 C20_3 1_555 1_555
C21_3 C20_3 1_555 1_555
H10_3 C21_3 1_555 1_555
O6_3 Th1_3 1_555 1_555
C22_3 C18_3 1_555 1_555
C23_3 C22_3 1_555 1_555
H11_3 C23_3 1_555 1_555
C24_3 C23_3 1_555 1_555
H12_3 C24_3 1_555 1_555
O7_3 C25_3 1_555 1_555
C25_3 C26_3 1_555 1_555
C26_3 C27_3 1_555 1_555
C27_3 C19_3 1_555 1_555
C28_3 C27_3 1_555 1_555
H13_3 C28_3 1_555 1_555
C29_3 C21_3 1_555 1_555
H14_3 C29_3 1_555 1_555
O8_3 C25_3 1_555 1_555
C30_3 C22_3 1_555 1_555
C31_3 C30_3 1_555 1_555
H15_3 C31_3 1_555 1_555
C32_3 C24_3 1_555 1_555
H16_3 C32_3 1_555 1_555
O9_3 Th1_3 1_555 1_555
C33_3 O9_3 1_555 1_555
C34_3 C33_3 1_555 1_555
C35_3 C34_3 1_555 1_555
C36_3 C35_3 1_555 1_555
H17_3 C36_3 1_555 1_555
C37_3 C36_3 1_555 1_555
H18_3 C37_3 1_555 1_555
O10_3 Th1_3 1_555 1_555
C38_3 C34_3 1_555 1_555
C39_3 C38_3 1_555 1_555
H19_3 C39_3 1_555 1_555
C40_3 C39_3 1_555 1_555
H20_3 C40_3 1_555 1_555
O11_3 C41_3 1_555 1_555
C41_3 C42_3 1_555 1_555
C42_3 C43_3 1_555 1_555
C43_3 C35_3 1_555 1_555
C44_3 C43_3 1_555 1_555
H21_3 C44_3 1_555 1_555
C45_3 C37_3 1_555 1_555
H22_3 C45_3 1_555 1_555
O12_3 C41_3 1_555 1_555
C46_3 C38_3 1_555 1_555
C47_3 C46_3 1_555 1_555
H23_3 C47_3 1_555 1_555
C48_3 C40_3 1_555 1_555
H24_3 C48_3 1_555 1_555
Th4 O7_3 1_555 1_555
Th2_2 O3_3 1_555 1_555
Th2 O11_3 1_555 1_555
O13_3 Th1_3 1_555 1_555
O14_3 Th1_3 1_555 1_555
O15_3 Th1_3 1_555 1_555
O16_3 Th1_3 1_555 1_555
O17_3 Th1_3 1_555 1_555
O18_3 Th1_3 1_555 1_555
C1_3 O2_3 1_555 1_555
C10_3 C14_3 1_555 1_555
C12_3 C13_3 1_555 1_555
O4_3 Th2_2 1_555 1_555
C15_3 C16_3 1_555 1_555
C17_3 O6_3 1_555 1_555
C26_3 C30_3 1_555 1_555
C28_3 C29_3 1_555 1_555
O8_3 Th4 1_555 1_555
C31_3 C32_3 1_555 1_555
C33_3 O10_3 1_555 1_555
C42_3 C46_3 1_555 1_555
C44_3 C45_3 1_555 1_555
O12_3 Th2 1_555 1_555
C47_3 C48_3 1_555 1_555
Th1_4 O1_4 1_555 1_555
O1_4 C1_4 1_555 1_555
C1_4 C2_4 1_555 1_555
C2_4 C3_4 1_555 1_555
C3_4 C4_4 1_555 1_555
C4_4 H1_4 1_555 1_555
C5_4 C4_4 1_555 1_555
H2_4 C5_4 1_555 1_555
O2_4 Th1_4 1_555 1_555
C6_4 C2_4 1_555 1_555
C7_4 C6_4 1_555 1_555
H3_4 C7_4 1_555 1_555
C8_4 C7_4 1_555 1_555
H4_4 C8_4 1_555 1_555
O3_4 C9_4 1_555 1_555
C9_4 C10_4 1_555 1_555
C10_4 C11_4 1_555 1_555
C11_4 C3_4 1_555 1_555
C12_4 C11_4 1_555 1_555
H5_4 C12_4 1_555 1_555
C13_4 C5_4 1_555 1_555
H6_4 C13_4 1_555 1_555
O4_4 C9_4 1_555 1_555
C14_4 C6_4 1_555 1_555
C15_4 C14_4 1_555 1_555
H7_4 C15_4 1_555 1_555
C16_4 C8_4 1_555 1_555
H8_4 C16_4 1_555 1_555
O5_4 Th1_4 1_555 1_555
C17_4 O5_4 1_555 1_555
C18_4 C17_4 1_555 1_555
C19_4 C18_4 1_555 1_555
C20_4 C19_4 1_555 1_555
H9_4 C20_4 1_555 1_555
C21_4 C20_4 1_555 1_555
H10_4 C21_4 1_555 1_555
O6_4 Th1_4 1_555 1_555
C22_4 C18_4 1_555 1_555
C23_4 C22_4 1_555 1_555
H11_4 C23_4 1_555 1_555
C24_4 C23_4 1_555 1_555
H12_4 C24_4 1_555 1_555
O7_4 C25_4 1_555 1_555
C25_4 C26_4 1_555 1_555
C26_4 C27_4 1_555 1_555
C27_4 C19_4 1_555 1_555
C28_4 C27_4 1_555 1_555
H13_4 C28_4 1_555 1_555
C29_4 C21_4 1_555 1_555
H14_4 C29_4 1_555 1_555
O8_4 C25_4 1_555 1_555
C30_4 C22_4 1_555 1_555
C31_4 C30_4 1_555 1_555
H15_4 C31_4 1_555 1_555
C32_4 C24_4 1_555 1_555
H16_4 C32_4 1_555 1_555
O9_4 Th1_4 1_555 1_555
C33_4 O9_4 1_555 1_555
C34_4 C33_4 1_555 1_555
C35_4 C34_4 1_555 1_555
C36_4 C35_4 1_555 1_555
H17_4 C36_4 1_555 1_555
C37_4 C36_4 1_555 1_555
H18_4 C37_4 1_555 1_555
O10_4 Th1_4 1_555 1_555
C38_4 C34_4 1_555 1_555
C39_4 C38_4 1_555 1_555
H19_4 C39_4 1_555 1_555
C40_4 C39_4 1_555 1_555
H20_4 C40_4 1_555 1_555
O11_4 C41_4 1_555 1_555
C41_4 C42_4 1_555 1_555
C42_4 C43_4 1_555 1_555
C43_4 C35_4 1_555 1_555
C44_4 C43_4 1_555 1_555
H21_4 C44_4 1_555 1_555
C45_4 C37_4 1_555 1_555
H22_4 C45_4 1_555 1_555
O12_4 C41_4 1_555 1_555
C46_4 C38_4 1_555 1_555
C47_4 C46_4 1_555 1_555
H23_4 C47_4 1_555 1_555
C48_4 C40_4 1_555 1_555
H24_4 C48_4 1_555 1_555
Th3 O7_4 1_555 1_555
Th2 O3_4 1_555 1_555
Th2_2 O11_4 1_555 1_555
O13_4 Th1_4 1_555 1_555
O14_4 Th1_4 1_555 1_555
O15_4 Th1_4 1_555 1_555
O16_4 Th1_4 1_555 1_555
O17_4 Th1_4 1_555 1_555
O18_4 Th1_4 1_555 1_555
C1_4 O2_4 1_555 1_555
C10_4 C14_4 1_555 1_555
C12_4 C13_4 1_555 1_555
O4_4 Th2 1_555 1_555
C15_4 C16_4 1_555 1_555
C17_4 O6_4 1_555 1_555
C26_4 C30_4 1_555 1_555
C28_4 C29_4 1_555 1_555
O8_4 Th3 1_555 1_555
C31_4 C32_4 1_555 1_555
C33_4 O10_4 1_555 1_555
C42_4 C46_4 1_555 1_555
C44_4 C45_4 1_555 1_555
O12_4 Th2_2 1_555 1_555
C47_4 C48_4 1_555 1_555
O13_4 C1_5 1_555 1_555
C1_5 C2_5 1_555 1_555
C2_5 C3_5 1_555 1_555
C3_5 C4_5 1_555 1_555
C4_5 H1_5 1_555 1_555
C5_5 C4_5 1_555 1_555
H2_5 C5_5 1_555 1_555
C6_5 C2_5 1_555 1_555
C7_5 C6_5 1_555 1_555
H3_5 C7_5 1_555 1_555
C8_5 C7_5 1_555 1_555
H4_5 C8_5 1_555 1_555
C17_5 O14_4 1_555 1_555
C18_5 C17_5 1_555 1_555
C19_5 C18_5 1_555 1_555
C20_5 C19_5 1_555 1_555
H9_5 C20_5 1_555 1_555
C21_5 C20_5 1_555 1_555
H10_5 C21_5 1_555 1_555
C22_5 C18_5 1_555 1_555
C23_5 C22_5 1_555 1_555
H11_5 C23_5 1_555 1_555
C24_5 C23_5 1_555 1_555
H12_5 C24_5 1_555 1_555
C1_5 O17_4 1_555 1_555
C17_5 O15_4 1_555 1_555
O7_5 C25_5 1_555 1_555
C25_5 C26_5 1_555 1_555
C26_5 C27_5 1_555 1_555
C28_5 C27_5 1_555 1_555
H13_5 C28_5 1_555 1_555
H14_5 C29_5 1_555 1_555
O8_5 C25_5 1_555 1_555
C31_5 C30_5 1_555 1_555
H15_5 C31_5 1_555 1_555
H16_5 C32_5 1_555 1_555
Th3 O7_5 1_555 1_555
C26_5 C30_5 1_555 1_555
C28_5 C29_5 1_555 1_555
O8_5 Th3 1_555 1_555
C31_5 C32_5 1_555 1_555
O3_5 C9_5 1_555 1_555
C9_5 C10_5 1_555 1_555
C10_5 C11_5 1_555 1_555
C12_5 C11_5 1_555 1_555
H5_5 C12_5 1_555 1_555
H6_5 C13_5 1_555 1_555
O4_5 C9_5 1_555 1_555
C15_5 C14_5 1_555 1_555
H7_5 C15_5 1_555 1_555
H8_5 C16_5 1_555 1_555
Th2 O3_5 1_555 1_555
C10_5 C14_5 1_555 1_555
C12_5 C13_5 1_555 1_555
O4_5 Th2 1_555 1_555
C15_5 C16_5 1_555 1_555
O3_6 C9_6 1_555 1_555
C9_6 C10_6 1_555 1_555
C10_6 C11_6 1_555 1_555
C12_6 C11_6 1_555 1_555
H5_6 C12_6 1_555 1_555
H6_6 C13_6 1_555 1_555
O4_6 C9_6 1_555 1_555
C15_6 C14_6 1_555 1_555
H7_6 C15_6 1_555 1_555
H8_6 C16_6 1_555 1_555
Th2_2 O3_6 1_555 1_555
C10_6 C14_6 1_555 1_555
C12_6 C13_6 1_555 1_555
O4_6 Th2_2 1_555 1_555
C15_6 C16_6 1_555 1_555
O13_3 C1_6 1_555 1_555
C1_6 C2_6 1_555 1_555
C2_6 C3_6 1_555 1_555
C3_6 C4_6 1_555 1_555
C4_6 H1_6 1_555 1_555
C5_6 C4_6 1_555 1_555
H2_6 C5_6 1_555 1_555
C6_6 C2_6 1_555 1_555
C7_6 C6_6 1_555 1_555
H3_6 C7_6 1_555 1_555
C8_6 C7_6 1_555 1_555
H4_6 C8_6 1_555 1_555
C17_6 O14_3 1_555 1_555
C18_6 C17_6 1_555 1_555
C19_6 C18_6 1_555 1_555
C20_6 C19_6 1_555 1_555
H9_6 C20_6 1_555 1_555
C21_6 C20_6 1_555 1_555
H10_6 C21_6 1_555 1_555
C22_6 C18_6 1_555 1_555
C23_6 C22_6 1_555 1_555
H11_6 C23_6 1_555 1_555
C24_6 C23_6 1_555 1_555
H12_6 C24_6 1_555 1_555
C1_6 O17_3 1_555 1_555
C17_6 O15_3 1_555 1_555
O7_6 C25_6 1_555 1_555
C25_6 C26_6 1_555 1_555
C26_6 C27_6 1_555 1_555
C28_6 C27_6 1_555 1_555
H13_6 C28_6 1_555 1_555
H14_6 C29_6 1_555 1_555
O8_6 C25_6 1_555 1_555
C31_6 C30_6 1_555 1_555
H15_6 C31_6 1_555 1_555
H16_6 C32_6 1_555 1_555
Th4 O7_6 1_555 1_555
C26_6 C30_6 1_555 1_555
C28_6 C29_6 1_555 1_555
O8_6 Th4 1_555 1_555
C31_6 C32_6 1_555 1_555
O7_7 C25_7 1_555 1_555
C25_7 C26_7 1_555 1_555
C26_7 C27_7 1_555 1_555
C28_7 C27_7 1_555 1_555
H13_7 C28_7 1_555 1_555
H14_7 C29_7 1_555 1_555
O8_7 C25_7 1_555 1_555
C31_7 C30_7 1_555 1_555
H15_7 C31_7 1_555 1_555
H16_7 C32_7 1_555 1_555
Th2_2 O7_7 1_555 1_555
C26_7 C30_7 1_555 1_555
C28_7 C29_7 1_555 1_555
O8_7 Th2_2 1_555 1_555
C31_7 C32_7 1_555 1_555
O13_2 C1_7 1_555 1_555
C1_7 C2_7 1_555 1_555
C2_7 C3_7 1_555 1_555
C3_7 C4_7 1_555 1_555
C4_7 H1_7 1_555 1_555
C5_7 C4_7 1_555 1_555
H2_7 C5_7 1_555 1_555
C6_7 C2_7 1_555 1_555
C7_7 C6_7 1_555 1_555
H3_7 C7_7 1_555 1_555
C8_7 C7_7 1_555 1_555
H4_7 C8_7 1_555 1_555
C17_7 O14_2 1_555 1_555
C18_7 C17_7 1_555 1_555
C19_7 C18_7 1_555 1_555
C20_7 C19_7 1_555 1_555
H9_7 C20_7 1_555 1_555
C21_7 C20_7 1_555 1_555
H10_7 C21_7 1_555 1_555
C22_7 C18_7 1_555 1_555
C23_7 C22_7 1_555 1_555
H11_7 C23_7 1_555 1_555
C24_7 C23_7 1_555 1_555
H12_7 C24_7 1_555 1_555
C1_7 O17_2 1_555 1_555
C17_7 O15_2 1_555 1_555
O3_7 C9_7 1_555 1_555
C9_7 C10_7 1_555 1_555
C10_7 C11_7 1_555 1_555
C12_7 C11_7 1_555 1_555
H5_7 C12_7 1_555 1_555
H6_7 C13_7 1_555 1_555
O4_7 C9_7 1_555 1_555
C15_7 C14_7 1_555 1_555
H7_7 C15_7 1_555 1_555
H8_7 C16_7 1_555 1_555
Th4 O3_7 1_555 1_555
C10_7 C14_7 1_555 1_555
C12_7 C13_7 1_555 1_555
O4_7 Th4 1_555 1_555
C15_7 C16_7 1_555 1_555
O3_8 C9_8 1_555 1_555
C9_8 C10_8 1_555 1_555
C10_8 C11_8 1_555 1_555
C12_8 C11_8 1_555 1_555
H5_8 C12_8 1_555 1_555
H6_8 C13_8 1_555 1_555
O4_8 C9_8 1_555 1_555
C15_8 C14_8 1_555 1_555
H7_8 C15_8 1_555 1_555
H8_8 C16_8 1_555 1_555
Th3 O3_8 1_555 1_555
C10_8 C14_8 1_555 1_555
C12_8 C13_8 1_555 1_555
O4_8 Th3 1_555 1_555
C15_8 C16_8 1_555 1_555
O7_8 C25_8 1_555 1_555
C25_8 C26_8 1_555 1_555
C26_8 C27_8 1_555 1_555
C28_8 C27_8 1_555 1_555
H13_8 C28_8 1_555 1_555
H14_8 C29_8 1_555 1_555
O8_8 C25_8 1_555 1_555
C31_8 C30_8 1_555 1_555
H15_8 C31_8 1_555 1_555
H16_8 C32_8 1_555 1_555
Th2 O7_8 1_555 1_555
C26_8 C30_8 1_555 1_555
C28_8 C29_8 1_555 1_555
O8_8 Th2 1_555 1_555
C31_8 C32_8 1_555 1_555
O13 C1_8 1_555 1_555
C1_8 C2_8 1_555 1_555
C2_8 C3_8 1_555 1_555
C3_8 C4_8 1_555 1_555
C4_8 H1_8 1_555 1_555
C5_8 C4_8 1_555 1_555
H2_8 C5_8 1_555 1_555
C6_8 C2_8 1_555 1_555
C7_8 C6_8 1_555 1_555
H3_8 C7_8 1_555 1_555
C8_8 C7_8 1_555 1_555
H4_8 C8_8 1_555 1_555
C17_8 O14 1_555 1_555
C18_8 C17_8 1_555 1_555
C19_8 C18_8 1_555 1_555
C20_8 C19_8 1_555 1_555
H9_8 C20_8 1_555 1_555
C21_8 C20_8 1_555 1_555
H10_8 C21_8 1_555 1_555
C22_8 C18_8 1_555 1_555
C23_8 C22_8 1_555 1_555
H11_8 C23_8 1_555 1_555
C24_8 C23_8 1_555 1_555
H12_8 C24_8 1_555 1_555
C1_8 O17 1_555 1_555
C17_8 O15 1_555 1_555
C33_5 O16_3 1_555 1_555
C34_5 C33_5 1_555 1_555
C35_5 C34_5 1_555 1_555
C36_5 C35_5 1_555 1_555
H17_5 C36_5 1_555 1_555
C37_5 C36_5 1_555 1_555
H18_5 C37_5 1_555 1_555
C38_5 C34_5 1_555 1_555
C39_5 C38_5 1_555 1_555
H19_5 C39_5 1_555 1_555
C40_5 C39_5 1_555 1_555
H20_5 C40_5 1_555 1_555
C33_5 O18_3 1_555 1_555
O11_5 C41_5 1_555 1_555
C41_5 C42_5 1_555 1_555
C42_5 C43_5 1_555 1_555
C44_5 C43_5 1_555 1_555
H21_5 C44_5 1_555 1_555
H22_5 C45_5 1_555 1_555
O12_5 C41_5 1_555 1_555
C47_5 C46_5 1_555 1_555
H23_5 C47_5 1_555 1_555
H24_5 C48_5 1_555 1_555
Th2 O11_5 1_555 1_555
C42_5 C46_5 1_555 1_555
C44_5 C45_5 1_555 1_555
O12_5 Th2 1_555 1_555
C47_5 C48_5 1_555 1_555
O11_6 C41_6 1_555 1_555
C41_6 C42_6 1_555 1_555
C42_6 C43_6 1_555 1_555
C44_6 C43_6 1_555 1_555
H21_6 C44_6 1_555 1_555
H22_6 C45_6 1_555 1_555
O12_6 C41_6 1_555 1_555
C47_6 C46_6 1_555 1_555
H23_6 C47_6 1_555 1_555
H24_6 C48_6 1_555 1_555
Th2_2 O11_6 1_555 1_555
C42_6 C46_6 1_555 1_555
C44_6 C45_6 1_555 1_555
O12_6 Th2_2 1_555 1_555
C47_6 C48_6 1_555 1_555
C33_6 O16_4 1_555 1_555
C34_6 C33_6 1_555 1_555
C35_6 C34_6 1_555 1_555
C36_6 C35_6 1_555 1_555
H17_6 C36_6 1_555 1_555
C37_6 C36_6 1_555 1_555
H18_6 C37_6 1_555 1_555
C38_6 C34_6 1_555 1_555
C39_6 C38_6 1_555 1_555
H19_6 C39_6 1_555 1_555
C40_6 C39_6 1_555 1_555
H20_6 C40_6 1_555 1_555
C33_6 O18_4 1_555 1_555
O11_7 C41_7 1_555 1_555
C41_7 C42_7 1_555 1_555
C42_7 C43_7 1_555 1_555
C44_7 C43_7 1_555 1_555
H21_7 C44_7 1_555 1_555
H22_7 C45_7 1_555 1_555
O12_7 C41_7 1_555 1_555
C47_7 C46_7 1_555 1_555
H23_7 C47_7 1_555 1_555
H24_7 C48_7 1_555 1_555
Th4 O11_7 1_555 1_555
C42_7 C46_7 1_555 1_555
C44_7 C45_7 1_555 1_555
O12_7 Th4 1_555 1_555
C47_7 C48_7 1_555 1_555
C33_7 O16 1_555 1_555
C34_7 C33_7 1_555 1_555
C35_7 C34_7 1_555 1_555
C36_7 C35_7 1_555 1_555
H17_7 C36_7 1_555 1_555
C37_7 C36_7 1_555 1_555
H18_7 C37_7 1_555 1_555
C38_7 C34_7 1_555 1_555
C39_7 C38_7 1_555 1_555
H19_7 C39_7 1_555 1_555
C40_7 C39_7 1_555 1_555
H20_7 C40_7 1_555 1_555
C33_7 O18 1_555 1_555
C33_8 O16_2 1_555 1_555
C34_8 C33_8 1_555 1_555
C35_8 C34_8 1_555 1_555
C36_8 C35_8 1_555 1_555
H17_8 C36_8 1_555 1_555
C37_8 C36_8 1_555 1_555
H18_8 C37_8 1_555 1_555
C38_8 C34_8 1_555 1_555
C39_8 C38_8 1_555 1_555
H19_8 C39_8 1_555 1_555
C40_8 C39_8 1_555 1_555
H20_8 C40_8 1_555 1_555
C33_8 O18_2 1_555 1_555
O11_8 C41_8 1_555 1_555
C41_8 C42_8 1_555 1_555
C42_8 C43_8 1_555 1_555
C44_8 C43_8 1_555 1_555
H21_8 C44_8 1_555 1_555
H22_8 C45_8 1_555 1_555
O12_8 C41_8 1_555 1_555
C47_8 C46_8 1_555 1_555
H23_8 C47_8 1_555 1_555
H24_8 C48_8 1_555 1_555
Th3 O11_8 1_555 1_555
C42_8 C46_8 1_555 1_555
C44_8 C45_8 1_555 1_555
O12_8 Th3 1_555 1_555
C47_8 C48_8 1_555 1_555

#END
