
###############################################################################
#
# This file contains modified crystal structure data generated from the
# MOF subset of the Cambridge Structural Database (CSD) v543 
# hosted by the Cambridge Crystallographic Data Centre (CCDC).
#
# This work is licensed under the Creative Commons
# Attribution-NonCommercial-ShareAlike 4.0 International License.
# To view a copy of this license, visit
# http://creativecommons.org/licenses/by-nc-sa/4.0/
# or send a letter to
# Creative Commons, PO Box 1866, Mountain View, CA 94042, USA.
#
# CIF created using the CSD Python API on 29 September 2022
# The structure has been converted into the P1 space group
# The structure has a 3D framework
# The original CSD entry VARREL is in the hexagonal crystal system
# The framework has been calculated to contain at least 10.0% void space
# The void calculation uses a probe of radius 1.32A, grid spacing 0.4
#
###############################################################################

data_VARREL
_chemical_formula_moiety         '(C24 H36 Gd9 La2 O45)n'
_symmetry_cell_setting           triclinic
_symmetry_space_group_name_H-M   'P 1'
_symmetry_Int_Tables_number      1
_space_group_name_Hall           'P 1'
loop_
_symmetry_equiv_pos_site_id
_symmetry_equiv_pos_as_xyz
1 x,y,z
_cell_length_a                   9.272(1)
_cell_length_b                   9.272(1)
_cell_length_c                   17.716(2)
_cell_angle_alpha                90
_cell_angle_beta                 90
_cell_angle_gamma                120
_cell_volume                     1318.99
loop_
_atom_site_label
_atom_site_type_symbol
_atom_site_fract_x
_atom_site_fract_y
_atom_site_fract_z
Gd2 Gd 0.0000 0.0000 0.0000
Gd2_2 Gd 0.0000 -0.0000 1.0000
H3 H 0.0795(72) 0.4160(79) 0.2500
H4 H 0.0290(79) 0.5545(73) 0.2500
Gd2_3 Gd 0.0000 1.0000 0.0000
Gd2_4 Gd -0.0000 1.0000 1.0000
Gd2_5 Gd 1.0000 0.0000 0.0000
Gd2_6 Gd 1.0000 -0.0000 1.0000
C1 C 0.3428(4) 0.1841(10) 0.1047(2)
C2 C 0.3968(5) 0.0925(6) 0.0522(2)
H1 H 0.4265(5) 0.0263(6) 0.0819(2)
H2 H 0.4905(5) 0.1681(6) 0.0235(2)
O1 O 0.2045(3) 0.1724(3) 0.09287(15)
O2 O 0.4410(3) 0.2681(3) 0.15585(15)
O3 O 0.2683(4) 0.0000 0.0000
La1 La 0.6667 0.3333 0.2500
O4 O 0.9916(6) 0.4395(7) 0.2500
O7 O 0.7319(3) 0.1729(4) 0.15585(15)
C5 C 0.8413(11) 0.6572(4) 0.1047(2)
C6 C 0.6957(8) 0.6032(5) 0.0522(2)
H7 H 0.5998(8) 0.5735(5) 0.0819(2)
H8 H 0.6776(8) 0.5095(5) 0.0235(2)
O8 O 0.9679(4) 0.7955(3) 0.09287(15)
O9 O 0.8271(4) 0.5590(3) 0.15585(15)
O10 O 0.7317(4) 0.7317(4) 0.0000
O13 O 0.4410(3) 0.2681(3) 0.34415(15)
O14 O 0.7319(3) 0.1729(4) 0.34415(15)
O15 O 0.8271(4) 0.5590(3) 0.34415(15)
O16 O 0.5605(7) 0.5521(9) 0.2500
H11 H 0.5840(79) 0.664(11) 0.2500
H12 H 0.4455(73) 0.475(11) 0.2500
O17 O 0.4479(9) 0.0084(6) 0.2500
Gd2_7 Gd 1.0000 1.0000 0.0000
O20 O -0.0000 0.2683(4) 0.0000
O3_2 O 0.2683(4) -0.0000 1.0000
O10_2 O 0.7317(4) 0.7317(4) 1.0000
C7 C 0.6032(5) 0.6957(8) 0.9478(2)
C8 C 0.6572(4) 0.8413(11) 0.8953(2)
O11 O 0.7955(3) 0.9679(4) 0.90713(15)
O12 O 0.5590(3) 0.8271(4) 0.84415(15)
H9 H 0.5735(5) 0.5998(8) 0.9181(2)
H10 H 0.5095(5) 0.6776(8) 0.9765(2)
La3 La 0.3333 0.6666 0.7500
Gd2_8 Gd 1.0000 1.0000 1.0000
O20_2 O -0.0000 0.2683(4) 1.0000
C11 C 0.0925(6) 0.3968(5) 0.9478(2)
C12 C 0.1841(10) 0.3428(4) 0.8953(2)
O21 O 0.1724(3) 0.2045(3) 0.90713(15)
O22 O 0.2681(3) 0.4410(3) 0.84415(15)
H17 H 0.0263(6) 0.4265(5) 0.9181(2)
H18 H 0.1681(6) 0.4905(5) 0.9765(2)
O3_3 O 0.2683(4) 1.0000 0.0000
H13 H 0.336(11) 0.9205(72) 0.2500
H14 H 0.525(11) 0.9710(79) 0.2500
O3_4 O 0.2683(4) 1.0000 1.0000
C3 C 0.3043(8) 0.9075(6) 0.9478(2)
C4 C 0.1587(11) 0.8159(10) 0.8953(2)
O5 O 0.0321(4) 0.8276(3) 0.90713(15)
O6 O 0.1729(4) 0.7319(3) 0.84415(15)
H5 H 0.4002(8) 0.9737(6) 0.9181(2)
H6 H 0.3224(8) 0.8319(6) 0.9765(2)
C9 C 0.8159(10) 0.1587(11) 0.1047(2)
C10 C 0.9075(6) 0.3043(8) 0.0522(2)
H15 H 0.9737(6) 0.4002(8) 0.0819(2)
H16 H 0.8319(6) 0.3224(8) 0.0235(2)
O18 O 0.8276(3) 0.0321(4) 0.09287(15)
O20_3 O 1.0000 0.2683(4) 0.0000
O20_4 O 1.0000 0.2683(4) 1.0000
Gd2_9 Gd 0.0000 -0.0000 0.5000
Gd2_10 Gd 0.0000 1.0000 0.5000
Gd2_11 Gd 1.0000 -0.0000 0.5000
C1_2 C 0.3428(4) 0.1841(10) 0.3953(2)
C2_2 C 0.3968(5) 0.0925(6) 0.4478(2)
H1_2 H 0.4265(5) 0.0263(6) 0.4181(2)
H2_2 H 0.4905(5) 0.1681(6) 0.4765(2)
O1_2 O 0.2045(3) 0.1724(3) 0.40713(15)
O3_5 O 0.2683(4) -0.0000 0.5000
C5_2 C 0.8413(11) 0.6572(4) 0.3953(2)
C6_2 C 0.6957(8) 0.6032(5) 0.4478(2)
H7_2 H 0.5998(8) 0.5735(5) 0.4181(2)
H8_2 H 0.6776(8) 0.5095(5) 0.4765(2)
O8_2 O 0.9679(4) 0.7955(3) 0.40713(15)
O10_3 O 0.7317(4) 0.7317(4) 0.5000
C7_2 C 0.6032(5) 0.6957(8) 0.5522(2)
C8_2 C 0.6572(4) 0.8413(11) 0.6047(2)
O11_2 O 0.7955(3) 0.9679(4) 0.59287(15)
O12_2 O 0.5590(3) 0.8271(4) 0.65585(15)
H9_2 H 0.5735(5) 0.5998(8) 0.5819(2)
H10_2 H 0.5095(5) 0.6776(8) 0.5235(2)
Gd2_12 Gd 1.0000 1.0000 0.5000
O20_5 O -0.0000 0.2683(4) 0.5000
C11_2 C 0.0925(6) 0.3968(5) 0.5522(2)
C12_2 C 0.1841(10) 0.3428(4) 0.6047(2)
O21_2 O 0.1724(3) 0.2045(3) 0.59287(15)
O22_2 O 0.2681(3) 0.4410(3) 0.65585(15)
H17_2 H 0.0263(6) 0.4265(5) 0.5819(2)
H18_2 H 0.1681(6) 0.4905(5) 0.5235(2)
O3_6 O 0.2683(4) 1.0000 0.5000
C3_2 C 0.3043(8) 0.9075(6) 0.5522(2)
C4_2 C 0.1587(11) 0.8159(10) 0.6047(2)
O5_2 O 0.0321(4) 0.8276(3) 0.59287(15)
O6_2 O 0.1729(4) 0.7319(3) 0.65585(15)
H5_2 H 0.4002(8) 0.9737(6) 0.5819(2)
H6_2 H 0.3224(8) 0.8319(6) 0.5235(2)
C9_2 C 0.8159(10) 0.1587(11) 0.3953(2)
C10_2 C 0.9075(6) 0.3043(8) 0.4478(2)
H15_2 H 0.9737(6) 0.4002(8) 0.4181(2)
H16_2 H 0.8319(6) 0.3224(8) 0.4765(2)
O18_2 O 0.8276(3) 0.0321(4) 0.40713(15)
O20_6 O 1.0000 0.2683(4) 0.5000
H3_2 H 0.4160(79) 0.0795(72) 0.7500
H4_2 H 0.5545(73) 0.0290(79) 0.7500
O4_2 O 0.4395(7) 0.9916(6) 0.7500
O16_2 O 0.5521(9) 0.5605(7) 0.7500
H11_2 H 0.664(11) 0.5840(79) 0.7500
H12_2 H 0.475(11) 0.4455(73) 0.7500
O17_2 O 0.0084(6) 0.4479(9) 0.7500
H13_2 H 0.9205(72) 0.336(11) 0.7500
H14_2 H 0.9710(79) 0.525(11) 0.7500
loop_
_geom_bond_atom_site_label_1
_geom_bond_atom_site_label_2
_geom_bond_site_symmetry_1
_geom_bond_site_symmetry_2
C1 C2 1_555 1_555
C2 H1 1_555 1_555
H2 C2 1_555 1_555
O1 C1 1_555 1_555
O2 C1 1_555 1_555
O3 C2 1_555 1_555
La1 O2 1_555 1_555
Gd2 O1 1_555 1_555
O4 La1 1_555 1_555
O7 La1 1_555 1_555
C5 C6 1_555 1_555
C6 H7 1_555 1_555
H8 C6 1_555 1_555
O8 C5 1_555 1_555
O9 La1 1_555 1_555
O10 C6 1_555 1_555
O13 La1 1_555 1_555
O14 La1 1_555 1_555
O15 La1 1_555 1_555
O16 La1 1_555 1_555
H11 O16 1_555 1_555
H12 O16 1_555 1_555
O17 La1 1_555 1_555
Gd2_7 O8 1_555 1_555
O20 Gd2 1_555 1_555
O3 Gd2 1_555 1_555
C5 O9 1_555 1_555
O10 Gd2_7 1_555 1_555
C7 O10_2 1_555 1_555
C8 C7 1_555 1_555
O11 C8 1_555 1_555
O12 C8 1_555 1_555
H9 C7 1_555 1_555
H10 C7 1_555 1_555
La3 O12 1_555 1_555
O20_2 Gd2_2 1_555 1_555
C11 O20_2 1_555 1_555
C12 C11 1_555 1_555
O21 Gd2_2 1_555 1_555
O22 La3 1_555 1_555
H17 C11 1_555 1_555
H18 C11 1_555 1_555
O3_2 Gd2_2 1_555 1_555
O10_2 Gd2_8 1_555 1_555
O11 Gd2_8 1_555 1_555
C12 O21 1_555 1_555
C12 O22 1_555 1_555
O3_3 Gd2_3 1_555 1_555
C3 O3_4 1_555 1_555
C4 C3 1_555 1_555
O5 Gd2_4 1_555 1_555
O6 C4 1_555 1_555
H5 C3 1_555 1_555
H6 C3 1_555 1_555
La3 O6 1_555 1_555
O3_4 Gd2_4 1_555 1_555
C4 O5 1_555 1_555
C9 C10 1_555 1_555
C10 H15 1_555 1_555
H16 C10 1_555 1_555
O18 Gd2_5 1_555 1_555
O7 C9 1_555 1_555
O20_3 Gd2_5 1_555 1_555
C9 O18 1_555 1_555
C10 O20_3 1_555 1_555
O20_4 Gd2_6 1_555 1_555
C1_2 C2_2 1_555 1_555
C2_2 H1_2 1_555 1_555
H2_2 C2_2 1_555 1_555
O1_2 C1_2 1_555 1_555
O13 C1_2 1_555 1_555
O3_5 C2_2 1_555 1_555
Gd2_9 O1_2 1_555 1_555
C5_2 C6_2 1_555 1_555
C6_2 H7_2 1_555 1_555
H8_2 C6_2 1_555 1_555
O8_2 C5_2 1_555 1_555
O10_3 C6_2 1_555 1_555
C7_2 O10_3 1_555 1_555
C8_2 C7_2 1_555 1_555
O11_2 C8_2 1_555 1_555
O12_2 C8_2 1_555 1_555
H9_2 C7_2 1_555 1_555
H10_2 C7_2 1_555 1_555
La3 O12_2 1_555 1_555
Gd2_12 O8_2 1_555 1_555
O20_5 Gd2_9 1_555 1_555
C11_2 O20_5 1_555 1_555
C12_2 C11_2 1_555 1_555
O21_2 Gd2_9 1_555 1_555
O22_2 La3 1_555 1_555
H17_2 C11_2 1_555 1_555
H18_2 C11_2 1_555 1_555
O3_5 Gd2_9 1_555 1_555
C5_2 O15 1_555 1_555
O10_3 Gd2_12 1_555 1_555
O11_2 Gd2_12 1_555 1_555
C12_2 O21_2 1_555 1_555
C12_2 O22_2 1_555 1_555
C3_2 O3_6 1_555 1_555
C4_2 C3_2 1_555 1_555
O5_2 Gd2_10 1_555 1_555
O6_2 C4_2 1_555 1_555
H5_2 C3_2 1_555 1_555
H6_2 C3_2 1_555 1_555
La3 O6_2 1_555 1_555
O3_6 Gd2_10 1_555 1_555
C4_2 O5_2 1_555 1_555
C9_2 C10_2 1_555 1_555
C10_2 H15_2 1_555 1_555
H16_2 C10_2 1_555 1_555
O18_2 Gd2_11 1_555 1_555
O14 C9_2 1_555 1_555
O20_6 Gd2_11 1_555 1_555
C9_2 O18_2 1_555 1_555
C10_2 O20_6 1_555 1_555
O4_2 La3 1_555 1_555
O16_2 La3 1_555 1_555
H11_2 O16_2 1_555 1_555
H12_2 O16_2 1_555 1_555
O17_2 La3 1_555 1_555

#END
