
###############################################################################
#
# This file contains modified crystal structure data generated from the
# MOF subset of the Cambridge Structural Database (CSD) v543 
# hosted by the Cambridge Crystallographic Data Centre (CCDC).
#
# This work is licensed under the Creative Commons
# Attribution-NonCommercial-ShareAlike 4.0 International License.
# To view a copy of this license, visit
# http://creativecommons.org/licenses/by-nc-sa/4.0/
# or send a letter to
# Creative Commons, PO Box 1866, Mountain View, CA 94042, USA.
#
# CIF created using the CSD Python API on 29 September 2022
# The structure has been converted into the P1 space group
# The structure has a 3D framework
# The original CSD entry VARWUI is in the orthorhombic crystal system
# The original CSD entry VARWUI is in a Sohncke space group
# The framework has been calculated to contain at least 10.0% void space
# The void calculation uses a probe of radius 1.32A, grid spacing 0.4
# The framework is charged, counterions have been retained in the structure
# H atom positions have been added when not included in the experimental data
#
###############################################################################

data_VARWUI
_chemical_formula_moiety         '(C48 H168 Cl20 Gd16 N12 O182)n'
_symmetry_cell_setting           triclinic
_symmetry_space_group_name_H-M   'P 1'
_symmetry_Int_Tables_number      1
_space_group_name_Hall           'P 1'
loop_
_symmetry_equiv_pos_site_id
_symmetry_equiv_pos_as_xyz
1 x,y,z
_cell_length_a                   11.5377(2)
_cell_length_b                   20.7238(5)
_cell_length_c                   23.5844(5)
_cell_angle_alpha                90
_cell_angle_beta                 90
_cell_angle_gamma                90
_cell_volume                     5639.15
loop_
_atom_site_label
_atom_site_type_symbol
_atom_site_fract_x
_atom_site_fract_y
_atom_site_fract_z
H28 H 0.153733 0.00488065 0.221795
H30 H 0.128875 0.0231554 0.318742
C9 C 0.0670(7) 0.6363(3) 0.2575(3)
C10 C 0.0162(7) 0.6961(3) 0.2297(3)
H16 H 0.0666 0.7080 0.1979
C11 C 0.0088(7) 0.7538(3) 0.2694(3)
H18 H 0.0853 0.7617 0.2849
O13 O 0.0232(5) 0.5833(2) 0.2430(3)
O14 O 0.1498(5) 0.6445(2) 0.2887(2)
O19 O 0.0990(5) 0.9719(3) 0.2071(3)
O20 O 0.0818(5) 0.9853(3) 0.3304(3)
Gd6 Gd 0.08356(3) 0.473180(14) 0.234372(14)
Gd10 Gd 0.26442(3) 0.566778(13) 0.342730(12)
H27 H 0.0797795 0.981734 0.166979
H29 H 0.1304 0.945787 0.328988
C3 C 0.7511(8) 0.0192(3) 0.4714(2)
H8 H 0.8180 0.0425 0.4573
H9 H 0.6825 0.0403 0.4565
Gd4 Gd 0.73558(3) 0.066778(13) 0.157270(12)
C4 C 0.7492(7) 0.0246(3) 0.5356(2)
O2 O 0.7434(4) 0.03340(17) 0.25634(16)
H20 H 0.7412 0.0703 0.2823
O7 O 0.7447(6) 0.0799(2) 0.55682(18)
O21 O 0.9253(6) 0.0949(3) 0.1076(3)
O22 O 0.7156(6) 0.1757(3) 0.1125(3)
O23 O 0.5472(5) 0.0816(3) 0.0981(3)
Gd7 Gd 0.74378(3) 0.122841(12) 0.652202(11)
O28 O 0.7458(6) 0.0272(2) 0.06317(17)
O29 O 0.5876(5) 0.1243(2) 0.2078(2)
O30 O 0.5038(5) 0.0714(3) 0.2791(3)
O31 O 0.9768(5) 0.0833(2) 0.2570(3)
O32 O 0.8502(5) 0.1445(2) 0.2113(2)
H33 H 0.497662 0.114974 0.11614
H34 H 0.567634 0.0954136 0.0590425
H37 H 0.97741 0.0567679 0.108012
H38 H 0.909102 0.107551 0.0677706
H39 H 0.781586 0.20341 0.12424
H40 H 0.715573 0.171097 0.0705906
Gd1 Gd 0.58132(3) 0.964301(14) 0.268255(14)
C1 C 0.7558(8) 0.9555(3) 0.3838(2)
N1 N 0.8610(7) 0.9177(4) 0.4685(3)
H1 H 0.8596 0.9151 0.5062
H2 H 0.9232 0.9399 0.4576
H3 H 0.8640 0.8782 0.4538
Gd2 Gd 0.91644(3) 0.973180(14) 0.265628(14)
C2 C 0.7552(8) 0.9508(3) 0.4484(2)
H4 H 0.6865 0.9269 0.4609
N2 N 0.3801(8) 0.7544(4) 0.2778(5)
H5 H 0.3496 0.7183 0.2918
H6 H 0.3391 0.7672 0.2479
H7 H 0.3788 0.7851 0.3042
Gd3 Gd 0.75622(3) 0.877159(12) 0.152202(11)
N3 N 0.8968(6) 0.6798(3) 0.2056(3)
H10 H 0.8666 0.7147 0.1893
H11 H 0.8505 0.6667 0.2336
H12 H 0.9036 0.6485 0.1800
C5 C 0.5545(7) 0.8044(3) 0.2364(4)
C6 C 0.5026(7) 0.7420(3) 0.2602(4)
H13 H 0.5465 0.7306 0.2943
C7 C 0.5087(7) 0.6860(4) 0.2208(3)
H14 H 0.5881 0.6814 0.2079
H15 H 0.4613 0.6954 0.1878
C8 C 0.4694(6) 0.6218(3) 0.2459(3)
H17 H 0.9583 0.7426 0.3007
C12 C 0.9652(6) 0.8158(3) 0.2435(3)
O1 O 0.7536(5) 0.90511(17) 0.25095(15)
H19 H 0.7576 0.8665 0.2749
O3 O 0.8618(4) 0.9754(2) 0.16925(19)
H21 H 0.9297 0.9786 0.1445
O4 O 0.6258(4) 0.9685(2) 0.17074(19)
H22 H 0.5561 0.9672 0.1470
O5 O 0.8531(5) 0.9576(3) 0.3598(2)
O6 O 0.6592(5) 0.9589(3) 0.3608(2)
O8 O 0.7542(6) 0.9728(2) 0.56317(17)
O9 O 0.5134(5) 0.8568(3) 0.2559(3)
O10 O 0.6330(5) 0.7985(3) 0.2017(3)
O11 O 0.4124(5) 0.6243(2) 0.2922(2)
O12 O 0.4962(5) 0.5714(3) 0.2209(3)
O15 O 0.9941(5) 0.8671(2) 0.2668(3)
O16 O 0.8975(5) 0.8112(3) 0.2017(2)
O17 O 0.3894(5) 0.9687(3) 0.2196(3)
O18 O 0.4262(5) 0.9479(3) 0.3407(3)
O24 O 0.9489(5) 0.8654(3) 0.1011(3)
O25 O 0.7661(7) 0.7724(3) 0.1024(3)
O26 O 0.5664(5) 0.8576(3) 0.0998(3)
Gd5 Gd 0.41868(3) 0.464301(14) 0.231745(14)
Gd8 Gd 0.76442(3) 0.933222(13) 0.657270(12)
O27 O 0.7553(6) 0.9201(2) 0.05682(18)
H23 H 0.460377 0.950891 0.379253
H24 H 0.365804 0.981645 0.336165
H25 H 0.353324 0.9252 0.220097
H26 H 0.338176 0.999757 0.239601
H31 H 0.995347 0.830955 0.119549
H32 H 0.934782 0.853789 0.0608389
H35 H 0.698263 0.745592 0.113194
H36 H 0.765393 0.779811 0.060804
H41 H 0.518066 0.897206 0.101362
H42 H 0.583019 0.846615 0.0596319
N2_2 N 0.1199(8) 0.2456(4) 0.7778(5)
H5_2 H 0.1504 0.2817 0.7918
H6_2 H 0.1609 0.2328 0.7479
H7_2 H 0.1212 0.2149 0.8042
H15_2 H 0.0387 0.3046 0.6878
C8_2 C 0.0306(6) 0.3782(3) 0.7459(3)
O11_2 O 0.0876(5) 0.3757(2) 0.7922(2)
O12_2 O 0.0038(5) 0.4286(3) 0.7209(3)
O17_2 O 0.1106(5) 0.0313(3) 0.7196(3)
O18_2 O 0.0738(5) 0.0521(3) 0.8407(3)
Gd5_2 Gd 0.08132(3) 0.535699(14) 0.731745(14)
Gd9 Gd 0.23558(3) 0.433222(13) 0.842730(12)
H23_2 H 0.0396228 0.0491093 0.879253
H24_2 H 0.134196 0.0183555 0.836165
H25_2 H 0.146676 0.0747995 0.720097
H26_2 H 0.161824 0.000242987 0.739601
H1_2 H 0.6404 0.0849 0.0062
Gd1_2 Gd 0.91868(3) 0.035699(14) 0.768255(14)
C1_2 C 0.7442(8) 0.0445(3) 0.8838(2)
N1_2 N 0.6390(7) 0.0823(4) 0.9685(3)
H2_2 H 0.5768 0.0601 0.9576
H3_2 H 0.6360 0.1218 0.9538
Gd2_2 Gd 0.58356(3) 0.026820(14) 0.765628(14)
C2_2 C 0.7448(8) 0.0492(3) 0.9484(2)
H4_2 H 0.8135 0.0731 0.9609
N3_2 N 0.6032(6) 0.3202(3) 0.7056(3)
H10_2 H 0.6334 0.2853 0.6893
H11_2 H 0.6495 0.3333 0.7336
H12_2 H 0.5964 0.3515 0.6800
C5_2 C 0.9455(7) 0.1956(3) 0.7364(4)
C6_2 C 0.9974(7) 0.2580(3) 0.7602(4)
H13_2 H 0.9535 0.2694 0.7943
C7_2 C 0.9913(7) 0.3140(4) 0.7208(3)
H14_2 H 0.9119 0.3186 0.7079
C9_2 C 0.4330(7) 0.3637(3) 0.7575(3)
C10_2 C 0.4838(7) 0.3039(3) 0.7297(3)
H16_2 H 0.4334 0.2920 0.6979
C11_2 C 0.4912(7) 0.2462(3) 0.7694(3)
H17_2 H 0.5417 0.2574 0.8007
H18_2 H 0.4147 0.2383 0.7849
C12_2 C 0.5348(6) 0.1842(3) 0.7435(3)
O1_2 O 0.7464(5) 0.09489(17) 0.75095(15)
H19_2 H 0.7424 0.1335 0.7749
O3_2 O 0.6382(4) 0.0246(2) 0.66925(19)
H21_2 H 0.5703 0.0214 0.6445
O4_2 O 0.8742(4) 0.0315(2) 0.67074(19)
H22_2 H 0.9439 0.0328 0.6470
O5_2 O 0.6469(5) 0.0424(3) 0.8598(2)
O6_2 O 0.8408(5) 0.0411(3) 0.8608(2)
O9_2 O 0.9866(5) 0.1432(3) 0.7559(3)
O10_2 O 0.8670(5) 0.2015(3) 0.7017(3)
O13_2 O 0.4768(5) 0.4167(2) 0.7430(3)
O14_2 O 0.3502(5) 0.3555(2) 0.7887(2)
O15_2 O 0.5059(5) 0.1329(2) 0.7668(3)
O16_2 O 0.6025(5) 0.1888(3) 0.7017(2)
O19_2 O 0.4010(5) 0.0281(3) 0.7071(3)
O20_2 O 0.4182(5) 0.0147(3) 0.8304(3)
O24_2 O 0.5511(5) 0.1346(3) 0.6011(3)
O25_2 O 0.7339(7) 0.2276(3) 0.6024(3)
O26_2 O 0.9336(5) 0.1424(3) 0.5998(3)
Gd6_2 Gd 0.41644(3) 0.526820(14) 0.734372(14)
H27_2 H 0.420221 0.018266 0.666979
H29_2 H 0.3696 0.0542126 0.828988
H31_2 H 0.504653 0.169045 0.619549
H32_2 H 0.565218 0.146211 0.560839
H35_2 H 0.801737 0.254408 0.613194
H36_2 H 0.734607 0.220189 0.560804
H41_2 H 0.981934 0.102794 0.601362
H42_2 H 0.916981 0.153385 0.559632
C4_2 C 0.7508(7) 0.9754(3) 0.0356(2)
C3_2 C 0.7489(8) 0.9808(3) 0.9714(2)
H8_2 H 0.6820 0.9575 0.9573
H9_2 H 0.8175 0.9597 0.9565
O2_2 O 0.7566(4) 0.96660(17) 0.75634(16)
H20_2 H 0.7588 0.9297 0.7823
O21_2 O 0.5747(6) 0.9051(3) 0.6076(3)
O22_2 O 0.7844(6) 0.8243(3) 0.6125(3)
O23_2 O 0.9528(5) 0.9184(3) 0.5981(3)
O29_2 O 0.9124(5) 0.8757(2) 0.7078(2)
O30_2 O 0.9962(5) 0.9286(3) 0.7791(3)
O31_2 O 0.5232(5) 0.9167(2) 0.7570(3)
O32_2 O 0.6498(5) 0.8555(2) 0.7113(2)
H28_2 H 0.346267 0.995119 0.721795
H30_2 H 0.371125 0.976845 0.818742
H34_2 H 0.932366 0.904586 0.559042
H37_2 H 0.52259 0.943232 0.608012
H38_2 H 0.590898 0.892449 0.567771
H39_2 H 0.718414 0.79659 0.62424
H40_2 H 0.784427 0.828903 0.570591
C1_3 C 0.2558(8) 0.5445(3) 0.6162(2)
N1_3 N 0.3610(7) 0.5823(4) 0.5315(3)
H1_3 H 0.3596 0.5849 0.4938
H2_3 H 0.4232 0.5601 0.5424
H3_3 H 0.3640 0.6218 0.5462
C2_3 C 0.2552(8) 0.5492(3) 0.5516(2)
H4_3 H 0.1865 0.5731 0.5391
Gd3_2 Gd 0.25622(3) 0.622841(12) 0.847798(11)
C3_3 C 0.2511(8) 0.4808(3) 0.5286(2)
H8_3 H 0.3180 0.4575 0.5427
H9_3 H 0.1825 0.4597 0.5435
N3_3 N 0.3968(6) 0.8202(3) 0.7944(3)
H10_3 H 0.3666 0.7853 0.8107
H11_3 H 0.3505 0.8333 0.7664
H12_3 H 0.4036 0.8515 0.8200
C4_3 C 0.2492(7) 0.4754(3) 0.4644(2)
C5_3 C 0.0545(7) 0.6956(3) 0.7636(4)
C6_3 C 0.0026(7) 0.7580(3) 0.7398(4)
H13_3 H 0.0465 0.7694 0.7057
C7_3 C 0.0087(7) 0.8140(4) 0.7792(3)
H14_3 H 0.0881 0.8186 0.7921
C9_3 C 0.5670(7) 0.8637(3) 0.7425(3)
C10_3 C 0.5162(7) 0.8039(3) 0.7703(3)
H16_3 H 0.5666 0.7920 0.8021
C11_3 C 0.5088(7) 0.7462(3) 0.7306(3)
H17_3 H 0.4583 0.7574 0.6993
H18_3 H 0.5853 0.7383 0.7151
C12_3 C 0.4652(6) 0.6842(3) 0.7565(3)
O1_3 O 0.2536(5) 0.59489(17) 0.74905(15)
H19_3 H 0.2576 0.6335 0.7251
O2_3 O 0.2434(4) 0.46660(17) 0.74366(16)
H20_3 H 0.2412 0.4297 0.7177
O3_3 O 0.3618(4) 0.5246(2) 0.83075(19)
H21_3 H 0.4297 0.5214 0.8555
O4_3 O 0.1258(4) 0.5315(2) 0.82926(19)
H22_3 H 0.0561 0.5328 0.8530
O5_3 O 0.3531(5) 0.5424(3) 0.6402(2)
O6_3 O 0.1592(5) 0.5411(3) 0.6392(2)
O7_2 O 0.2447(6) 0.4201(2) 0.44318(18)
O8_2 O 0.2542(6) 0.5272(2) 0.43683(17)
O9_3 O 0.0134(5) 0.6432(3) 0.7441(3)
O10_3 O 0.1330(5) 0.7015(3) 0.7983(3)
O15_3 O 0.4941(5) 0.6329(2) 0.7332(3)
O16_3 O 0.3975(5) 0.6888(3) 0.7983(2)
O19_3 O 0.5990(5) 0.5281(3) 0.7929(3)
O20_3 O 0.5818(5) 0.5147(3) 0.6696(3)
O21_3 O 0.4253(6) 0.4051(3) 0.8924(3)
O22_3 O 0.2156(6) 0.3243(3) 0.8875(3)
O23_3 O 0.0472(5) 0.4184(3) 0.9019(3)
O24_3 O 0.4489(5) 0.6346(3) 0.8989(3)
O25_3 O 0.2661(7) 0.7276(3) 0.8976(3)
O26_3 O 0.0664(5) 0.6424(3) 0.9002(3)
Gd7_2 Gd 0.24378(3) 0.377159(12) 0.347798(11)
O27_2 O 0.2553(6) 0.5799(2) 0.94318(18)
O28_2 O 0.2458(6) 0.4728(2) 0.93683(17)
H27_3 H 0.579779 0.518266 0.833021
H28_3 H 0.653733 0.495119 0.778205
H29_3 H 0.6304 0.554213 0.671012
H30_3 H 0.628875 0.476845 0.681258
H31_3 H 0.495347 0.669045 0.880451
H32_3 H 0.434782 0.646211 0.939161
H34_3 H 0.067634 0.404586 0.940958
H35_3 H 0.198263 0.754408 0.886806
H36_3 H 0.265393 0.720189 0.939196
H37_3 H 0.47741 0.443232 0.891988
H38_3 H 0.409102 0.392449 0.932229
H39_3 H 0.281586 0.29659 0.87576
H40_3 H 0.215573 0.328903 0.929409
H41_3 H 0.0180658 0.602794 0.898638
H42_3 H 0.0830194 0.653385 0.940368
N2_3 N 0.8801(8) 0.7456(4) 0.7222(5)
H5_3 H 0.8496 0.7817 0.7082
H6_3 H 0.8391 0.7328 0.7521
H7_3 H 0.8788 0.7149 0.6958
H15_3 H 0.9613 0.8046 0.8122
C8_3 C 0.9694(6) 0.8782(3) 0.7541(3)
O17_3 O 0.8894(5) 0.5313(3) 0.7804(3)
O18_3 O 0.9262(5) 0.5521(3) 0.6593(3)
H23_3 H 0.960377 0.549109 0.620747
H24_3 H 0.865804 0.518355 0.663835
H25_3 H 0.853324 0.5748 0.779903
H26_3 H 0.838176 0.500243 0.760399
H33_2 H 0.997662 0.385026 0.88386
C1_4 C 0.2442(8) 0.4555(3) 0.1162(2)
N1_4 N 0.1390(7) 0.4177(4) 0.0315(3)
H2_4 H 0.0768 0.4399 0.0424
H3_4 H 0.1360 0.3782 0.0462
C2_4 C 0.2448(8) 0.4508(3) 0.0516(2)
H4_4 H 0.3135 0.4269 0.0391
N2_4 N 0.6199(8) 0.2544(4) 0.2222(5)
H5_4 H 0.6504 0.2183 0.2082
H6_4 H 0.6609 0.2672 0.2521
H7_4 H 0.6212 0.2851 0.1958
C3_4 C 0.2489(8) 0.5192(3) 0.0286(2)
H8_4 H 0.1820 0.5425 0.0427
H9_4 H 0.3175 0.5403 0.0435
N3_4 N 0.1032(6) 0.1798(3) 0.2944(3)
H10_4 H 0.1334 0.2147 0.3107
H11_4 H 0.1495 0.1667 0.2664
H12_4 H 0.0964 0.1485 0.3200
C5_4 C 0.4455(7) 0.3044(3) 0.2636(4)
C6_4 C 0.4974(7) 0.2420(3) 0.2398(4)
H13_4 H 0.4535 0.2306 0.2057
C7_4 C 0.4913(7) 0.1860(4) 0.2792(3)
H14_4 H 0.4119 0.1814 0.2921
H15_4 H 0.5387 0.1954 0.3122
C8_4 C 0.5306(6) 0.1218(3) 0.2541(3)
H17_4 H 0.0417 0.2426 0.1993
C12_4 C 0.0348(6) 0.3158(3) 0.2565(3)
O1_4 O 0.2464(5) 0.40511(17) 0.24905(15)
H19_4 H 0.2424 0.3665 0.2251
O2_4 O 0.2566(4) 0.53340(17) 0.24366(16)
H20_4 H 0.2588 0.5703 0.2177
O3_4 O 0.1382(4) 0.4754(2) 0.33075(19)
H21_4 H 0.0703 0.4786 0.3555
O4_4 O 0.3742(4) 0.4685(2) 0.32926(19)
H22_4 H 0.4439 0.4672 0.3530
O5_4 O 0.1469(5) 0.4576(3) 0.1402(2)
O6_4 O 0.3408(5) 0.4589(3) 0.1392(2)
O9_4 O 0.4866(5) 0.3568(3) 0.2441(3)
O10_4 O 0.3670(5) 0.2985(3) 0.2983(3)
O15_4 O 0.0059(5) 0.3671(2) 0.2332(3)
O16_4 O 0.1025(5) 0.3112(3) 0.2983(2)
O17_4 O 0.6106(5) 0.4687(3) 0.2804(3)
O18_4 O 0.5738(5) 0.4479(3) 0.1593(3)
O21_4 O 0.0747(6) 0.5949(3) 0.3924(3)
O22_4 O 0.2844(6) 0.6757(3) 0.3875(3)
O23_4 O 0.4528(5) 0.5816(3) 0.4019(3)
O24_4 O 0.0511(5) 0.3654(3) 0.3989(3)
O25_4 O 0.2339(7) 0.2724(3) 0.3976(3)
O26_4 O 0.4336(5) 0.3576(3) 0.4002(3)
H23_4 H 0.539623 0.450891 0.120747
H24_4 H 0.634196 0.481645 0.163835
H25_4 H 0.646676 0.4252 0.279903
H26_4 H 0.661824 0.499757 0.260399
H31_4 H 0.00465267 0.330955 0.380451
H32_4 H 0.0652185 0.353789 0.439161
H33_3 H 0.502338 0.614974 0.38386
H34_4 H 0.432366 0.595414 0.440958
H35_4 H 0.301737 0.245592 0.386806
H36_4 H 0.234607 0.279811 0.439196
H37_4 H 0.0225904 0.556768 0.391988
H38_4 H 0.0908981 0.607551 0.432229
H39_4 H 0.218414 0.70341 0.37576
H40_4 H 0.284427 0.671097 0.429409
H41_4 H 0.481934 0.397206 0.398638
H42_4 H 0.416981 0.346615 0.440368
H1_4 H 0.1404 0.4151 0.9938
C4_4 C 0.2508(7) 0.5246(3) 0.9644(2)
C9_4 C 0.9330(7) 0.1363(3) 0.2425(3)
C10_4 C 0.9838(7) 0.1961(3) 0.2703(3)
H16_4 H 0.9334 0.2080 0.3021
C11_4 C 0.9912(7) 0.2538(3) 0.2306(3)
H18_4 H 0.9147 0.2617 0.2151
O19_4 O 0.9010(5) 0.4719(3) 0.2929(3)
O20_4 O 0.9182(5) 0.4853(3) 0.1696(3)
H27_4 H 0.920221 0.481734 0.333021
H28_4 H 0.846267 0.504881 0.278205
H29_4 H 0.8696 0.445787 0.171012
H30_4 H 0.871125 0.523155 0.181258
H33_4 H 0.0023381 0.885026 0.61614
Cl1 Cl 0.5102(3) 0.78668(17) 0.45040(16)
O33 O 0.4532(12) 0.8140(6) 0.4990(5)
O34 O 0.4806(13) 0.8134(6) 0.3966(5)
O35 O 0.6331(9) 0.7948(7) 0.4574(6)
O36 O 0.4840(13) 0.7193(5) 0.4515(6)
O33_2 O 0.0468(12) 0.1860(6) 0.9990(5)
O34_2 O 0.0194(13) 0.1866(6) 0.8966(5)
O36_2 O 0.0160(13) 0.2807(5) 0.9515(6)
Cl1_2 Cl 0.9898(3) 0.21332(17) 0.95040(16)
O35_2 O 0.8669(9) 0.2052(7) 0.9574(6)
Cl1_3 Cl 0.0102(3) 0.71332(17) 0.54960(16)
O35_3 O 0.1331(9) 0.7052(7) 0.5426(6)
O33_3 O 0.9532(12) 0.6860(6) 0.5010(5)
O34_3 O 0.9806(13) 0.6866(6) 0.6034(5)
O36_3 O 0.9840(13) 0.7807(5) 0.5485(6)
Cl1_4 Cl 0.4898(3) 0.28668(17) 0.04960(16)
O33_4 O 0.5468(12) 0.3140(6) 0.0010(5)
O34_4 O 0.5194(13) 0.3134(6) 0.1034(5)
O35_4 O 0.3669(9) 0.2948(7) 0.0426(6)
O36_4 O 0.5160(13) 0.2193(5) 0.0485(6)
Cl2 Cl 0.2459(2) 0.12844(11) 0.15488(9)
O37 O 0.2528(13) 0.0617(4) 0.1479(5)
O38 O 0.3300(9) 0.1539(7) 0.1185(5)
O39 O 0.1376(8) 0.1529(7) 0.1426(6)
O40 O 0.2796(11) 0.1437(6) 0.2104(4)
Cl2_2 Cl 0.2541(2) 0.87156(11) 0.65488(9)
O37_2 O 0.2472(13) 0.9383(4) 0.6479(5)
O38_2 O 0.1700(9) 0.8461(7) 0.6185(5)
O39_2 O 0.3624(8) 0.8471(7) 0.6426(6)
O40_2 O 0.2204(11) 0.8563(6) 0.7104(4)
Cl2_3 Cl 0.7459(2) 0.37156(11) 0.84512(9)
O37_3 O 0.7528(13) 0.4383(4) 0.8521(5)
O38_3 O 0.8300(9) 0.3461(7) 0.8815(5)
O39_3 O 0.6376(8) 0.3471(7) 0.8574(6)
O40_3 O 0.7796(11) 0.3563(6) 0.7896(4)
Cl2_4 Cl 0.7541(2) 0.62844(11) 0.34512(9)
O37_4 O 0.7472(13) 0.5617(4) 0.3521(5)
O38_4 O 0.6700(9) 0.6539(7) 0.3815(5)
O39_4 O 0.8624(8) 0.6529(7) 0.3574(6)
O40_4 O 0.7204(11) 0.6437(6) 0.2896(4)
Cl3 Cl 0.2530(2) 0.82041(11) 0.13835(11)
O41 O 0.3606(8) 0.7900(6) 0.1370(6)
O42 O 0.235(3) 0.8143(14) 0.0796(5)
O43 O 0.1457(16) 0.8029(16) 0.1611(15)
O44 O 0.2532(13) 0.8876(4) 0.1440(5)
Cl3_2 Cl 0.2470(2) 0.17959(11) 0.63835(11)
O41_2 O 0.1394(8) 0.2100(6) 0.6370(6)
O42_2 O 0.265(3) 0.1857(14) 0.5796(5)
O43_2 O 0.3543(16) 0.1971(16) 0.6611(15)
O44_2 O 0.2468(13) 0.1124(4) 0.6440(5)
Cl3_3 Cl 0.7530(2) 0.67959(11) 0.86165(11)
O41_3 O 0.8606(8) 0.7100(6) 0.8630(6)
O42_3 O 0.735(3) 0.6857(14) 0.9204(5)
O43_3 O 0.6457(16) 0.6971(16) 0.8389(15)
O44_3 O 0.7532(13) 0.6124(4) 0.8560(5)
Cl3_4 Cl 0.7470(2) 0.32041(11) 0.36165(11)
O41_4 O 0.6394(8) 0.2900(6) 0.3630(6)
O42_4 O 0.765(3) 0.3143(14) 0.4204(5)
O43_4 O 0.8543(16) 0.3029(16) 0.3389(15)
O44_4 O 0.7468(13) 0.3876(4) 0.3560(5)
O46 O 0.0119(17) 0.6238(11) 0.1043(5)
O48 O 0.013(3) 0.6074(13) 0.0085(8)
Cl4 Cl 0.9729(4) 0.64988(19) 0.05204(14)
O45 O 0.8579(11) 0.6251(9) 0.0591(7)
O47 O 0.933(3) 0.7066(12) 0.0238(10)
Cl4_2 Cl 0.5271(4) 0.35012(19) 0.55204(14)
O45_2 O 0.6421(11) 0.3749(9) 0.5591(7)
O46_2 O 0.4881(17) 0.3762(11) 0.6043(5)
O47_2 O 0.567(3) 0.2934(12) 0.5238(10)
O48_2 O 0.487(3) 0.3926(13) 0.5085(8)
Cl4_3 Cl 0.4729(4) 0.85012(19) 0.94796(14)
O45_3 O 0.3579(11) 0.8749(9) 0.9409(7)
O46_3 O 0.5119(17) 0.8762(11) 0.8957(5)
O47_3 O 0.433(3) 0.7934(12) 0.9762(10)
O48_3 O 0.513(3) 0.8926(13) 0.9915(8)
Cl4_4 Cl 0.0271(4) 0.14988(19) 0.44796(14)
O45_4 O 0.1421(11) 0.1251(9) 0.4409(7)
O47_4 O 0.067(3) 0.2066(12) 0.4762(10)
O46_4 O 0.9881(17) 0.1238(11) 0.3957(5)
O48_4 O 0.987(3) 0.1074(13) 0.4915(8)
O49 O 0.0245(19) 0.0388(11) 0.9875(14)
Cl5 Cl 0.0940(3) 0.98600(17) 0.00111(17)
O50 O 0.0195(18) 0.9349(12) 0.0126(14)
O51 O 0.175(2) 0.9958(14) 0.0436(10)
O52 O 0.1560(19) 0.9822(13) 0.9503(8)
Cl5_2 Cl 0.4060(3) 0.01400(17) 0.50111(17)
O50_2 O 0.4805(18) 0.0651(12) 0.5126(14)
O51_2 O 0.325(2) 0.0042(14) 0.5436(10)
O52_2 O 0.3440(19) 0.0178(13) 0.4503(8)
O49_2 O 0.4755(19) 0.9612(11) 0.4875(14)
O49_3 O 0.5245(19) 0.4612(11) 0.0125(14)
O52_3 O 0.6560(19) 0.5178(13) 0.0497(8)
Cl5_3 Cl 0.5940(3) 0.51400(17) 0.99889(17)
O50_3 O 0.5195(18) 0.5651(12) 0.9874(14)
O51_3 O 0.675(2) 0.5042(14) 0.9564(10)
Cl5_4 Cl 0.9060(3) 0.48600(17) 0.49889(17)
O49_4 O 0.9755(19) 0.5388(11) 0.5125(14)
O50_4 O 0.9805(18) 0.4349(12) 0.4874(14)
O51_4 O 0.825(2) 0.4958(14) 0.4564(10)
O52_4 O 0.8440(19) 0.4822(13) 0.5497(8)
loop_
_geom_bond_atom_site_label_1
_geom_bond_atom_site_label_2
_geom_bond_site_symmetry_1
_geom_bond_site_symmetry_2
C9 C10 1_555 1_555
H16 C10 1_555 1_555
C11 C10 1_555 1_555
H18 C11 1_555 1_555
O13 C9 1_555 1_555
O14 C9 1_555 1_555
Gd6 O13 1_555 1_555
Gd10 O14 1_555 1_555
O19 H27 1_555 1_555
O20 H29 1_555 1_555
H8 C3 1_555 1_555
H9 C3 1_555 1_555
Gd4 O2 1_555 1_555
C4 C3 1_555 1_555
H20 O2 1_555 1_555
O7 C4 1_555 1_555
O21 Gd4 1_555 1_555
O22 Gd4 1_555 1_555
O23 Gd4 1_555 1_555
Gd7 O7 1_555 1_555
O28 Gd4 1_555 1_555
O29 Gd4 1_555 1_555
O32 Gd4 1_555 1_555
O23 H33 1_555 1_555
O23 H34 1_555 1_555
O21 H37 1_555 1_555
O21 H38 1_555 1_555
O22 H39 1_555 1_555
O22 H40 1_555 1_555
Gd1 O1 1_555 1_555
C1 C2 1_555 1_555
N1 H1 1_555 1_555
H2 N1 1_555 1_555
H3 N1 1_555 1_555
Gd2 O1 1_555 1_555
C2 N1 1_555 1_555
H4 C2 1_555 1_555
N2 H5 1_555 1_555
H6 N2 1_555 1_555
H7 N2 1_555 1_555
Gd3 O1 1_555 1_555
N3 H10 1_555 1_555
H11 N3 1_555 1_555
H12 N3 1_555 1_555
C5 C6 1_555 1_555
C6 N2 1_555 1_555
H13 C6 1_555 1_555
C7 C6 1_555 1_555
H14 C7 1_555 1_555
H15 C7 1_555 1_555
C8 C7 1_555 1_555
O1 H19 1_555 1_555
O3 Gd2 1_555 1_555
H21 O3 1_555 1_555
O4 Gd1 1_555 1_555
H22 O4 1_555 1_555
O5 C1 1_555 1_555
O6 Gd1 1_555 1_555
O9 Gd1 1_555 1_555
O10 Gd3 1_555 1_555
O11 C8 1_555 1_555
O12 C8 1_555 1_555
O15 Gd2 1_555 1_555
O16 Gd3 1_555 1_555
O17 Gd1 1_555 1_555
O18 Gd1 1_555 1_555
O24 Gd3 1_555 1_555
O25 Gd3 1_555 1_555
O26 Gd3 1_555 1_555
Gd5 O12 1_555 1_555
Gd8 O8 1_555 1_555
Gd10 O11 1_555 1_555
O27 Gd3 1_555 1_555
C1 O6 1_555 1_555
Gd2 O5 1_555 1_555
Gd3 O3 1_555 1_555
Gd3 O4 1_555 1_555
C5 O9 1_555 1_555
C5 O10 1_555 1_555
C12 O15 1_555 1_555
C12 O16 1_555 1_555
O18 H23 1_555 1_555
O18 H24 1_555 1_555
O17 H25 1_555 1_555
O17 H26 1_555 1_555
O24 H31 1_555 1_555
O24 H32 1_555 1_555
O25 H35 1_555 1_555
O25 H36 1_555 1_555
O26 H41 1_555 1_555
O26 H42 1_555 1_555
N2_2 H5_2 1_555 1_555
H6_2 N2_2 1_555 1_555
H7_2 N2_2 1_555 1_555
O11_2 C8_2 1_555 1_555
O12_2 C8_2 1_555 1_555
Gd5_2 O12_2 1_555 1_555
Gd9 O11_2 1_555 1_555
O18_2 H23_2 1_555 1_555
O18_2 H24_2 1_555 1_555
O17_2 H25_2 1_555 1_555
O17_2 H26_2 1_555 1_555
Gd1_2 O1_2 1_555 1_555
C1_2 C2_2 1_555 1_555
H2_2 N1_2 1_555 1_555
H3_2 N1_2 1_555 1_555
Gd2_2 O1_2 1_555 1_555
C2_2 N1_2 1_555 1_555
H4_2 C2_2 1_555 1_555
Gd7 O1_2 1_555 1_555
N3_2 H10_2 1_555 1_555
H11_2 N3_2 1_555 1_555
H12_2 N3_2 1_555 1_555
C5_2 C6_2 1_555 1_555
H13_2 C6_2 1_555 1_555
C7_2 C6_2 1_555 1_555
H14_2 C7_2 1_555 1_555
C9_2 C10_2 1_555 1_555
C10_2 N3_2 1_555 1_555
H16_2 C10_2 1_555 1_555
C11_2 C10_2 1_555 1_555
H17_2 C11_2 1_555 1_555
H18_2 C11_2 1_555 1_555
C12_2 C11_2 1_555 1_555
O1_2 H19_2 1_555 1_555
O3_2 Gd2_2 1_555 1_555
H21_2 O3_2 1_555 1_555
O4_2 Gd1_2 1_555 1_555
H22_2 O4_2 1_555 1_555
O5_2 C1_2 1_555 1_555
O6_2 Gd1_2 1_555 1_555
O9_2 Gd1_2 1_555 1_555
O10_2 Gd7 1_555 1_555
O13_2 C9_2 1_555 1_555
O14_2 C9_2 1_555 1_555
O15_2 Gd2_2 1_555 1_555
O16_2 Gd7 1_555 1_555
O19_2 Gd2_2 1_555 1_555
O20_2 Gd2_2 1_555 1_555
O24_2 Gd7 1_555 1_555
O25_2 Gd7 1_555 1_555
O26_2 Gd7 1_555 1_555
Gd6_2 O13_2 1_555 1_555
Gd9 O14_2 1_555 1_555
C1_2 O6_2 1_555 1_555
Gd2_2 O5_2 1_555 1_555
Gd7 O3_2 1_555 1_555
Gd7 O4_2 1_555 1_555
C5_2 O9_2 1_555 1_555
C5_2 O10_2 1_555 1_555
C12_2 O15_2 1_555 1_555
C12_2 O16_2 1_555 1_555
O19_2 H27_2 1_555 1_555
O20_2 H29_2 1_555 1_555
O24_2 H31_2 1_555 1_555
O24_2 H32_2 1_555 1_555
O25_2 H35_2 1_555 1_555
O25_2 H36_2 1_555 1_555
O26_2 H41_2 1_555 1_555
O26_2 H42_2 1_555 1_555
O27 C4_2 1_555 1_555
H8_2 C3_2 1_555 1_555
H9_2 C3_2 1_555 1_555
Gd8 O2_2 1_555 1_555
H20_2 O2_2 1_555 1_555
O21_2 Gd8 1_555 1_555
O22_2 Gd8 1_555 1_555
O23_2 Gd8 1_555 1_555
O29_2 Gd8 1_555 1_555
O32_2 Gd8 1_555 1_555
O23_2 H34_2 1_555 1_555
O21_2 H37_2 1_555 1_555
O21_2 H38_2 1_555 1_555
O22_2 H39_2 1_555 1_555
O22_2 H40_2 1_555 1_555
Gd5_2 O1_3 1_555 1_555
C1_3 C2_3 1_555 1_555
N1_3 H1_3 1_555 1_555
H2_3 N1_3 1_555 1_555
H3_3 N1_3 1_555 1_555
Gd6_2 O1_3 1_555 1_555
C2_3 N1_3 1_555 1_555
H4_3 C2_3 1_555 1_555
Gd3_2 O1_3 1_555 1_555
C3_3 C2_3 1_555 1_555
H8_3 C3_3 1_555 1_555
H9_3 C3_3 1_555 1_555
N3_3 H10_3 1_555 1_555
H11_3 N3_3 1_555 1_555
H12_3 N3_3 1_555 1_555
Gd9 O2_3 1_555 1_555
C4_3 C3_3 1_555 1_555
C5_3 C6_3 1_555 1_555
H13_3 C6_3 1_555 1_555
C7_3 C6_3 1_555 1_555
H14_3 C7_3 1_555 1_555
C9_3 C10_3 1_555 1_555
C10_3 N3_3 1_555 1_555
H16_3 C10_3 1_555 1_555
C11_3 C10_3 1_555 1_555
H17_3 C11_3 1_555 1_555
H18_3 C11_3 1_555 1_555
C12_3 C11_3 1_555 1_555
O1_3 H19_3 1_555 1_555
O2_3 Gd5_2 1_555 1_555
H20_3 O2_3 1_555 1_555
O3_3 Gd6_2 1_555 1_555
H21_3 O3_3 1_555 1_555
O4_3 Gd5_2 1_555 1_555
H22_3 O4_3 1_555 1_555
O5_3 C1_3 1_555 1_555
O6_3 Gd5_2 1_555 1_555
O7_2 C4_3 1_555 1_555
O8_2 C4_3 1_555 1_555
O9_3 Gd5_2 1_555 1_555
O10_3 Gd3_2 1_555 1_555
O31_2 C9_3 1_555 1_555
O32_2 C9_3 1_555 1_555
O15_3 Gd6_2 1_555 1_555
O16_3 Gd3_2 1_555 1_555
O19_3 Gd6_2 1_555 1_555
O20_3 Gd6_2 1_555 1_555
O21_3 Gd9 1_555 1_555
O22_3 Gd9 1_555 1_555
O23_3 Gd9 1_555 1_555
O24_3 Gd3_2 1_555 1_555
O25_3 Gd3_2 1_555 1_555
O26_3 Gd3_2 1_555 1_555
Gd7_2 O7_2 1_555 1_555
Gd10 O8_2 1_555 1_555
O27_2 Gd3_2 1_555 1_555
O28_2 Gd9 1_555 1_555
C1_3 O6_3 1_555 1_555
Gd6_2 O2_3 1_555 1_555
Gd6_2 O5_3 1_555 1_555
Gd3_2 O3_3 1_555 1_555
Gd3_2 O4_3 1_555 1_555
Gd9 O3_3 1_555 1_555
Gd9 O4_3 1_555 1_555
C5_3 O9_3 1_555 1_555
C5_3 O10_3 1_555 1_555
C12_3 O15_3 1_555 1_555
C12_3 O16_3 1_555 1_555
O19_3 H27_3 1_555 1_555
O19_3 H28_3 1_555 1_555
O20_3 H29_3 1_555 1_555
O20_3 H30_3 1_555 1_555
O24_3 H31_3 1_555 1_555
O24_3 H32_3 1_555 1_555
O23_3 H34_3 1_555 1_555
O25_3 H35_3 1_555 1_555
O25_3 H36_3 1_555 1_555
O21_3 H37_3 1_555 1_555
O21_3 H38_3 1_555 1_555
O22_3 H39_3 1_555 1_555
O22_3 H40_3 1_555 1_555
O26_3 H41_3 1_555 1_555
O26_3 H42_3 1_555 1_555
N2_3 H5_3 1_555 1_555
H6_3 N2_3 1_555 1_555
H7_3 N2_3 1_555 1_555
O29_2 C8_3 1_555 1_555
O30_2 C8_3 1_555 1_555
O18_3 H23_3 1_555 1_555
O18_3 H24_3 1_555 1_555
O17_3 H25_3 1_555 1_555
O17_3 H26_3 1_555 1_555
Gd5 O1_4 1_555 1_555
C1_4 C2_4 1_555 1_555
H2_4 N1_4 1_555 1_555
H3_4 N1_4 1_555 1_555
Gd6 O1_4 1_555 1_555
C2_4 N1_4 1_555 1_555
H4_4 C2_4 1_555 1_555
N2_4 H5_4 1_555 1_555
H6_4 N2_4 1_555 1_555
H7_4 N2_4 1_555 1_555
Gd7_2 O1_4 1_555 1_555
C3_4 C2_4 1_555 1_555
H8_4 C3_4 1_555 1_555
H9_4 C3_4 1_555 1_555
N3_4 H10_4 1_555 1_555
H11_4 N3_4 1_555 1_555
H12_4 N3_4 1_555 1_555
Gd10 O2_4 1_555 1_555
C5_4 C6_4 1_555 1_555
C6_4 N2_4 1_555 1_555
H13_4 C6_4 1_555 1_555
C7_4 C6_4 1_555 1_555
H14_4 C7_4 1_555 1_555
H15_4 C7_4 1_555 1_555
C8_4 C7_4 1_555 1_555
O1_4 H19_4 1_555 1_555
O2_4 Gd5 1_555 1_555
H20_4 O2_4 1_555 1_555
O3_4 Gd6 1_555 1_555
H21_4 O3_4 1_555 1_555
O4_4 Gd5 1_555 1_555
H22_4 O4_4 1_555 1_555
O5_4 C1_4 1_555 1_555
O6_4 Gd5 1_555 1_555
O9_4 Gd5 1_555 1_555
O10_4 Gd7_2 1_555 1_555
O29 C8_4 1_555 1_555
O30 C8_4 1_555 1_555
O15_4 Gd6 1_555 1_555
O16_4 Gd7_2 1_555 1_555
O17_4 Gd5 1_555 1_555
O18_4 Gd5 1_555 1_555
O21_4 Gd10 1_555 1_555
O22_4 Gd10 1_555 1_555
O23_4 Gd10 1_555 1_555
O24_4 Gd7_2 1_555 1_555
O25_4 Gd7_2 1_555 1_555
O26_4 Gd7_2 1_555 1_555
C1_4 O6_4 1_555 1_555
Gd6 O2_4 1_555 1_555
Gd6 O5_4 1_555 1_555
Gd7_2 O3_4 1_555 1_555
Gd7_2 O4_4 1_555 1_555
Gd10 O3_4 1_555 1_555
Gd10 O4_4 1_555 1_555
C5_4 O9_4 1_555 1_555
C5_4 O10_4 1_555 1_555
C12_4 O15_4 1_555 1_555
C12_4 O16_4 1_555 1_555
O18_4 H23_4 1_555 1_555
O18_4 H24_4 1_555 1_555
O17_4 H25_4 1_555 1_555
O17_4 H26_4 1_555 1_555
O24_4 H31_4 1_555 1_555
O24_4 H32_4 1_555 1_555
O23_4 H33_3 1_555 1_555
O23_4 H34_4 1_555 1_555
O25_4 H35_4 1_555 1_555
O25_4 H36_4 1_555 1_555
O21_4 H37_4 1_555 1_555
O21_4 H38_4 1_555 1_555
O22_4 H39_4 1_555 1_555
O22_4 H40_4 1_555 1_555
O26_4 H41_4 1_555 1_555
O26_4 H42_4 1_555 1_555
O27_2 C4_4 1_555 1_555
O28_2 C4_4 1_555 1_555
C9_4 C10_4 1_555 1_555
H16_4 C10_4 1_555 1_555
C11_4 C10_4 1_555 1_555
H18_4 C11_4 1_555 1_555
O31 C9_4 1_555 1_555
O32 C9_4 1_555 1_555
O19_4 H27_4 1_555 1_555
O19_4 H28_4 1_555 1_555
O20_4 H29_4 1_555 1_555
O20_4 H30_4 1_555 1_555
Cl1 O33 1_555 1_555
O34 Cl1 1_555 1_555
O35 Cl1 1_555 1_555
O36 Cl1 1_555 1_555
O35_2 Cl1_2 1_555 1_555
O35_3 Cl1_3 1_555 1_555
Cl1_4 O33_4 1_555 1_555
O34_4 Cl1_4 1_555 1_555
O35_4 Cl1_4 1_555 1_555
O36_4 Cl1_4 1_555 1_555
Cl2 O37 1_555 1_555
O38 Cl2 1_555 1_555
O39 Cl2 1_555 1_555
O40 Cl2 1_555 1_555
Cl2_2 O37_2 1_555 1_555
O38_2 Cl2_2 1_555 1_555
O39_2 Cl2_2 1_555 1_555
O40_2 Cl2_2 1_555 1_555
Cl2_3 O37_3 1_555 1_555
O38_3 Cl2_3 1_555 1_555
O39_3 Cl2_3 1_555 1_555
O40_3 Cl2_3 1_555 1_555
Cl2_4 O37_4 1_555 1_555
O38_4 Cl2_4 1_555 1_555
O39_4 Cl2_4 1_555 1_555
O40_4 Cl2_4 1_555 1_555
Cl3 O41 1_555 1_555
O42 Cl3 1_555 1_555
O43 Cl3 1_555 1_555
O44 Cl3 1_555 1_555
Cl3_2 O41_2 1_555 1_555
O42_2 Cl3_2 1_555 1_555
O43_2 Cl3_2 1_555 1_555
O44_2 Cl3_2 1_555 1_555
Cl3_3 O41_3 1_555 1_555
O42_3 Cl3_3 1_555 1_555
O43_3 Cl3_3 1_555 1_555
O44_3 Cl3_3 1_555 1_555
Cl3_4 O41_4 1_555 1_555
O42_4 Cl3_4 1_555 1_555
O43_4 Cl3_4 1_555 1_555
O44_4 Cl3_4 1_555 1_555
Cl4 O45 1_555 1_555
O47 Cl4 1_555 1_555
Cl4_2 O45_2 1_555 1_555
O46_2 Cl4_2 1_555 1_555
O47_2 Cl4_2 1_555 1_555
O48_2 Cl4_2 1_555 1_555
Cl4_3 O45_3 1_555 1_555
O46_3 Cl4_3 1_555 1_555
O47_3 Cl4_3 1_555 1_555
O48_3 Cl4_3 1_555 1_555
Cl4_4 O45_4 1_555 1_555
O47_4 Cl4_4 1_555 1_555
O50 Cl5 1_555 1_555
O51 Cl5 1_555 1_555
O50_2 Cl5_2 1_555 1_555
O51_2 Cl5_2 1_555 1_555
O52_2 Cl5_2 1_555 1_555
O50_3 Cl5_3 1_555 1_555
O51_3 Cl5_3 1_555 1_555
Cl5_4 O49_4 1_555 1_555
O50_4 Cl5_4 1_555 1_555
O51_4 Cl5_4 1_555 1_555
O52_4 Cl5_4 1_555 1_555

#END
