
###############################################################################
#
# This file contains modified crystal structure data generated from the
# MOF subset of the Cambridge Structural Database (CSD) v543 
# hosted by the Cambridge Crystallographic Data Centre (CCDC).
#
# This work is licensed under the Creative Commons
# Attribution-NonCommercial-ShareAlike 4.0 International License.
# To view a copy of this license, visit
# http://creativecommons.org/licenses/by-nc-sa/4.0/
# or send a letter to
# Creative Commons, PO Box 1866, Mountain View, CA 94042, USA.
#
# CIF created using the CSD Python API on 29 September 2022
# The structure has been converted into the P1 space group
# The structure has a 3D framework
# The original CSD entry VARWIW is in the orthorhombic crystal system
# The original CSD entry VARWIW is in a Sohncke space group
# The framework has been calculated to contain at least 10.0% void space
# The void calculation uses a probe of radius 1.32A, grid spacing 0.4
# The framework is charged, counterions have been retained in the structure
# H atom positions have been added when not included in the experimental data
#
###############################################################################

data_VARWIW
_chemical_formula_moiety         '(C48 H168 Cl20 N12 O184 Sm16)n'
_symmetry_cell_setting           triclinic
_symmetry_space_group_name_H-M   'P 1'
_symmetry_Int_Tables_number      1
_space_group_name_Hall           'P 1'
loop_
_symmetry_equiv_pos_site_id
_symmetry_equiv_pos_as_xyz
1 x,y,z
_cell_length_a                   11.5610(2)
_cell_length_b                   20.8211(7)
_cell_length_c                   23.6909(6)
_cell_angle_alpha                90
_cell_angle_beta                 90
_cell_angle_gamma                90
_cell_volume                     5702.7
loop_
_atom_site_label
_atom_site_type_symbol
_atom_site_fract_x
_atom_site_fract_y
_atom_site_fract_z
N3 N 0.1366(6) 0.0811(3) 0.4689(2)
H10 H 0.1377 0.0838 0.5064
H11 H 0.0758 0.0579 0.4581
H12 H 0.1316 0.1203 0.4542
Sm4 Sm 0.23458(2) 0.067341(11) 0.656908(10)
C9 C 0.2432(6) 0.0457(3) 0.3842(2)
C10 C 0.2448(6) 0.0496(3) 0.44887(19)
H16 H 0.3126 0.0738 0.4617
O2 O 0.2421(3) 0.03354(14) 0.75642(14)
H20 H 0.2396 0.0703 0.7823
O13 O 0.1458(4) 0.0443(3) 0.36021(18)
O14 O 0.3397(4) 0.0415(3) 0.36149(18)
O15 O 0.2457(4) 0.02673(17) 0.56239(15)
O24 O 0.4248(5) 0.0961(3) 0.6070(2)
O25 O 0.2134(4) 0.1775(2) 0.6130(2)
O26 O 0.0452(4) 0.0821(2) 0.5970(2)
Sm5 Sm 0.41987(2) 0.036012(11) 0.268795(11)
Sm7 Sm 0.08224(2) 0.026507(12) 0.265670(11)
O27 O 0.4790(4) 0.08407(19) 0.7553(2)
O28 O 0.3491(4) 0.1454(2) 0.71126(19)
O29 O 0.0012(4) 0.0717(2) 0.7795(2)
O30 O 0.0851(4) 0.1239(2) 0.70820(18)
H24 H 0.0659016 0.0959948 0.558197
H27 H 0.477108 0.0582734 0.6073
H28 H 0.408385 0.108739 0.567386
H32 H 0.631714 0.0232825 0.818841
H33 H 0.278869 0.205148 0.625071
H34 H 0.213654 0.1735 0.571233
H38 H 0.655281 0.00500651 0.721207
Sm1 Sm 0.08013(2) 0.963988(11) 0.768795(11)
C1 C 0.5677(5) 0.6368(2) 0.7571(2)
N1 N 0.3983(5) 0.6809(3) 0.7056(3)
H1 H 0.4042 0.6475 0.6823
H2 H 0.3712 0.7147 0.6867
H3 H 0.3501 0.6712 0.7336
Sm2 Sm 0.41776(2) 0.973493(12) 0.765670(11)
C2 C 0.5156(5) 0.6967(3) 0.7294(3)
H4 H 0.5657 0.7087 0.6978
Sm3 Sm 0.25614(2) 0.876862(11) 0.651618(9)
C3 C 0.5091(5) 0.7537(3) 0.7692(3)
H8 H 0.4589 0.7424 0.8005
H9 H 0.5857 0.7612 0.7846
C4 C 0.4661(5) 0.8155(3) 0.7439(3)
C5 C 0.0537(5) 0.8041(3) 0.7364(3)
C6 C 0.0028(6) 0.7418(3) 0.7604(3)
H13 H 0.0462 0.7305 0.7945
C7 C 0.0089(6) 0.6857(3) 0.7204(3)
H14 H 0.0877 0.6815 0.7069
C11 C 0.2493(6) 0.9812(3) 0.4713(2)
H17 H 0.1831 0.9578 0.4568
H18 H 0.3184 0.9605 0.4567
C12 C 0.2498(5) 0.9758(2) 0.53488(19)
O1 O 0.2529(3) 0.90502(14) 0.75093(12)
H19 H 0.2571 0.8666 0.7747
O3 O 0.3620(3) 0.97586(18) 0.66874(15)
H21 H 0.4297 0.9791 0.6440
O4 O 0.1248(3) 0.96821(18) 0.67036(15)
H22 H 0.0552 0.9668 0.6468
O5 O 0.5210(4) 0.58407(19) 0.7447(2)
O6 O 0.6509(4) 0.6454(2) 0.78874(19)
O7 O 0.3999(4) 0.8118(2) 0.70155(19)
O8 O 0.4959(4) 0.8669(2) 0.7669(2)
O9 O 0.0124(4) 0.8560(2) 0.7552(2)
O10 O 0.1323(4) 0.7981(2) 0.7017(2)
O16 O 0.2559(5) 0.92043(18) 0.55547(15)
O19 O 0.6004(4) 0.9723(3) 0.7066(2)
O20 O 0.5848(4) 0.9856(2) 0.8305(2)
O21 O 0.0663(4) 0.8570(3) 0.5987(2)
O22 O 0.2670(5) 0.7709(2) 0.6031(2)
O23 O 0.4488(4) 0.8650(3) 0.6003(2)
Sm8 Sm 0.58224(2) 0.473493(12) 0.734330(11)
Sm10 Sm 0.76542(2) 0.567341(11) 0.843092(10)
O31 O 0.3542(4) 0.9557(3) 0.86021(18)
O32 O 0.1603(4) 0.9585(3) 0.86149(18)
H25 H 0.495214 0.830709 0.618618
H26 H 0.434458 0.853423 0.560246
H29 H 0.199392 0.744287 0.614114
H30 H 0.266502 0.777541 0.561594
H31 H 0.633278 0.946268 0.828991
H35 H 0.0178682 0.896354 0.600123
H36 H 0.0833514 0.846074 0.558757
H37 H 0.58083 0.982288 0.666743
N2 N 0.8793(6) 0.7540(3) 0.7770(4)
H5 H 0.8487 0.7181 0.7909
H6 H 0.8392 0.7663 0.7468
H7 H 0.8769 0.7847 0.8030
H15 H 0.9602 0.6947 0.6880
C8 C 0.9711(5) 0.6219(3) 0.7465(3)
O11 O 0.9988(4) 0.5717(2) 0.7205(2)
O12 O 0.9149(4) 0.6239(2) 0.79180(18)
O17 O 0.8856(4) 0.9676(3) 0.7200(2)
O18 O 0.9244(4) 0.9474(3) 0.8425(2)
Sm6 Sm 0.91987(2) 0.463988(11) 0.731205(11)
H39 H 0.850067 0.924187 0.720677
H40 H 0.834283 0.998416 0.739906
H41 H 0.95908 0.950515 0.880749
H42 H 0.863909 0.980894 0.838144
N1_2 N 0.1017(5) 0.3191(3) 0.2056(3)
H1_2 H 0.0958 0.3525 0.1823
H2_2 H 0.1288 0.2853 0.1867
H3_2 H 0.1499 0.3288 0.2336
N2_2 N 0.6207(6) 0.2460(3) 0.2770(4)
H5_2 H 0.6513 0.2819 0.2909
H6_2 H 0.6608 0.2337 0.2468
H7_2 H 0.6231 0.2153 0.3030
Sm3_2 Sm 0.24386(2) 0.123138(11) 0.151618(9)
H8_2 H 0.0411 0.2576 0.3005
C4_2 C 0.0339(5) 0.1845(3) 0.2439(3)
C5_2 C 0.4463(5) 0.1959(3) 0.2364(3)
C6_2 C 0.4972(6) 0.2582(3) 0.2604(3)
H13_2 H 0.4538 0.2695 0.2945
C7_2 C 0.4911(6) 0.3143(3) 0.2204(3)
H14_2 H 0.4123 0.3185 0.2069
H15_2 H 0.5398 0.3053 0.1880
C8_2 C 0.5289(5) 0.3781(3) 0.2465(3)
C12_2 C 0.2502(5) 0.0242(2) 0.03488(19)
O1_2 O 0.2471(3) 0.09498(14) 0.25093(12)
H19_2 H 0.2429 0.1334 0.2747
O3_2 O 0.1380(3) 0.02414(18) 0.16874(15)
H21_2 H 0.0703 0.0209 0.1440
O4_2 O 0.3752(3) 0.03179(18) 0.17036(15)
H22_2 H 0.4448 0.0332 0.1468
O7_2 O 0.1001(4) 0.1882(2) 0.20155(19)
O8_2 O 0.0041(4) 0.1331(2) 0.2669(2)
O9_2 O 0.4876(4) 0.1440(2) 0.2552(2)
O10_2 O 0.3677(4) 0.2019(2) 0.2017(2)
O11_2 O 0.5012(4) 0.4283(2) 0.2205(2)
O12_2 O 0.5851(4) 0.3761(2) 0.29180(18)
O16_2 O 0.2441(5) 0.07957(18) 0.05547(15)
O17_2 O 0.6144(4) 0.0324(3) 0.2200(2)
O18_2 O 0.5756(4) 0.0526(3) 0.3425(2)
O21_2 O 0.4337(4) 0.1430(3) 0.0987(2)
O22_2 O 0.2330(5) 0.2291(2) 0.1031(2)
O23_2 O 0.0512(4) 0.1350(3) 0.1003(2)
Sm6_2 Sm 0.58013(2) 0.536012(11) 0.231205(11)
Sm9 Sm 0.73458(2) 0.432659(11) 0.343092(10)
H25_2 H 0.00478588 0.169291 0.118618
H26_2 H 0.0655419 0.146577 0.0602457
H29_2 H 0.300608 0.255713 0.114114
H30_2 H 0.233498 0.222459 0.0615942
H35_2 H 0.482132 0.103646 0.100123
H36_2 H 0.416649 0.153926 0.0587574
H39_2 H 0.649933 0.0758126 0.220677
H40_2 H 0.665717 0.00158387 0.239906
H41_2 H 0.54092 0.0494852 0.380749
H42_2 H 0.636091 0.0191065 0.338144
H10_2 H 0.3623 0.9162 0.0064
Sm4_2 Sm 0.26542(2) 0.932659(11) 0.156908(10)
O2_2 O 0.2579(3) 0.96646(14) 0.25642(14)
H20_2 H 0.2604 0.9297 0.2823
O15_2 O 0.2543(4) 0.97327(17) 0.06239(15)
O24_2 O 0.0752(5) 0.9039(3) 0.1070(2)
O25_2 O 0.2866(4) 0.8225(2) 0.1130(2)
O26_2 O 0.4548(4) 0.9179(2) 0.0970(2)
O27_2 O 0.0210(4) 0.91593(19) 0.2553(2)
O28_2 O 0.1509(4) 0.8546(2) 0.21126(19)
O29_2 O 0.4988(4) 0.9283(2) 0.2795(2)
O30_2 O 0.4149(4) 0.8761(2) 0.20820(18)
H23 H 0.504593 0.884816 0.114917
H24_2 H 0.434098 0.904005 0.058197
H27_2 H 0.0228922 0.941727 0.1073
H28_2 H 0.0916151 0.891261 0.0673856
H33_2 H 0.221131 0.794852 0.125071
H34_2 H 0.286346 0.8265 0.071233
N3_2 N 0.3634(6) 0.9189(3) 0.9689(2)
H11_2 H 0.4242 0.9421 0.9581
H12_2 H 0.3684 0.8797 0.9542
C9_2 C 0.2568(6) 0.9543(3) 0.8842(2)
C10_2 C 0.2552(6) 0.9504(3) 0.94887(19)
H16_2 H 0.1874 0.9262 0.9617
C1_2 C 0.9323(5) 0.3632(2) 0.2571(2)
C2_2 C 0.9844(5) 0.3033(3) 0.2294(3)
H4_2 H 0.9343 0.2913 0.1978
C3_2 C 0.9909(5) 0.2463(3) 0.2692(3)
H9_2 H 0.9143 0.2388 0.2846
O5_2 O 0.9790(4) 0.41593(19) 0.2447(2)
O6_2 O 0.8491(4) 0.3546(2) 0.28874(19)
O19_2 O 0.8996(4) 0.0277(3) 0.2066(2)
O20_2 O 0.9152(4) 0.0144(2) 0.3305(2)
Sm8_2 Sm 0.91776(2) 0.526507(12) 0.234330(11)
H31_2 H 0.866722 0.0537322 0.328991
H37_2 H 0.91917 0.0177116 0.166743
C1_3 C 0.0677(5) 0.8632(2) 0.2429(2)
C2_3 C 0.0156(5) 0.8033(3) 0.2706(3)
H4_3 H 0.0657 0.7913 0.3022
C3_3 C 0.0091(5) 0.7463(3) 0.2308(3)
H9_3 H 0.0857 0.7388 0.2154
O19_3 O 0.1004(4) 0.5277(3) 0.2934(2)
O20_3 O 0.0848(4) 0.5144(2) 0.1695(2)
H31_3 H 0.133278 0.553732 0.171009
H32_2 H 0.131714 0.476717 0.181159
H37_3 H 0.0808299 0.517712 0.333257
H38_2 H 0.155281 0.494993 0.278793
N1_3 N 0.8983(5) 0.8191(3) 0.2944(3)
H1_3 H 0.9042 0.8525 0.3177
H2_3 H 0.8712 0.7853 0.3133
H3_3 H 0.8501 0.8288 0.2664
N2_3 N 0.3793(6) 0.7460(3) 0.2230(4)
H5_3 H 0.3487 0.7819 0.2091
H6_3 H 0.3392 0.7337 0.2532
H7_3 H 0.3769 0.7153 0.1970
Sm3_3 Sm 0.75614(2) 0.623138(11) 0.348382(9)
H8_3 H 0.9589 0.7576 0.1995
N3_3 N 0.6366(6) 0.4189(3) 0.5311(2)
H10_3 H 0.6377 0.4162 0.4936
H11_3 H 0.5758 0.4421 0.5419
H12_3 H 0.6316 0.3797 0.5458
C4_3 C 0.9661(5) 0.6845(3) 0.2561(3)
C5_3 C 0.5537(5) 0.6959(3) 0.2636(3)
C6_3 C 0.5028(6) 0.7582(3) 0.2396(3)
H13_3 H 0.5462 0.7695 0.2055
C7_3 C 0.5089(6) 0.8143(3) 0.2796(3)
H14_3 H 0.5877 0.8185 0.2931
H15_3 H 0.4602 0.8053 0.3120
C8_3 C 0.4711(5) 0.8781(3) 0.2535(3)
C9_3 C 0.7432(6) 0.4543(3) 0.6158(2)
C10_3 C 0.7448(6) 0.4504(3) 0.55113(19)
H16_3 H 0.8126 0.4262 0.5383
C11_2 C 0.7493(6) 0.5188(3) 0.5287(2)
H17_2 H 0.6831 0.5422 0.5432
H18_2 H 0.8184 0.5395 0.5433
C12_3 C 0.7498(5) 0.5242(2) 0.46512(19)
O1_3 O 0.7529(3) 0.59498(14) 0.24907(12)
H19_3 H 0.7571 0.6334 0.2253
O2_3 O 0.7421(3) 0.46646(14) 0.24358(14)
H20_3 H 0.7396 0.4297 0.2177
O3_3 O 0.8620(3) 0.52414(18) 0.33126(15)
H21_3 H 0.9297 0.5209 0.3560
O4_3 O 0.6248(3) 0.53179(18) 0.32964(15)
H22_3 H 0.5552 0.5332 0.3532
O7_3 O 0.8999(4) 0.6882(2) 0.29845(19)
O8_3 O 0.9959(4) 0.6331(2) 0.2331(2)
O9_3 O 0.5124(4) 0.6440(2) 0.2448(2)
O10_3 O 0.6323(4) 0.7019(2) 0.2983(2)
O13_2 O 0.6458(4) 0.4557(3) 0.63979(18)
O14_2 O 0.8397(4) 0.4585(3) 0.63851(18)
O15_3 O 0.7457(4) 0.47327(17) 0.43761(15)
O16_3 O 0.7559(5) 0.57957(18) 0.44453(15)
O17_3 O 0.3856(4) 0.5324(3) 0.2800(2)
O18_3 O 0.4244(4) 0.5526(3) 0.1575(2)
O21_3 O 0.5663(4) 0.6430(3) 0.4013(2)
O22_3 O 0.7670(5) 0.7291(2) 0.3969(2)
O23_3 O 0.9488(4) 0.6350(3) 0.3997(2)
O24_3 O 0.9248(5) 0.4039(3) 0.3930(2)
O25_3 O 0.7134(4) 0.3225(2) 0.3870(2)
O26_3 O 0.5452(4) 0.4179(2) 0.4030(2)
O31_2 O 0.8542(4) 0.5443(3) 0.13979(18)
O32_2 O 0.6603(4) 0.5415(3) 0.13851(18)
H23_2 H 0.495407 0.384816 0.385083
H24_3 H 0.565902 0.404005 0.441803
H25_3 H 0.995214 0.669291 0.381382
H26_3 H 0.934458 0.646577 0.439754
H27_3 H 0.977108 0.441727 0.3927
H28_3 H 0.908385 0.391261 0.432614
H29_3 H 0.699392 0.755713 0.385886
H30_3 H 0.766502 0.722459 0.438406
H33_3 H 0.778869 0.294852 0.374929
H34_3 H 0.713654 0.3265 0.428767
H35_3 H 0.517868 0.603646 0.399877
H36_3 H 0.583351 0.653926 0.441243
H39_3 H 0.350067 0.575813 0.279323
H40_3 H 0.334283 0.501584 0.260094
H41_3 H 0.45908 0.549485 0.119251
H42_3 H 0.363909 0.519106 0.161856
N2_4 N 0.1207(6) 0.2540(3) 0.7230(4)
H5_4 H 0.1513 0.2181 0.7091
H6_4 H 0.1608 0.2663 0.7532
H7_4 H 0.1231 0.2847 0.6970
H15_4 H 0.0398 0.1947 0.8120
C8_4 C 0.0289(5) 0.1219(3) 0.7535(3)
O17_4 O 0.1144(4) 0.4676(3) 0.7800(2)
O18_4 O 0.0756(4) 0.4474(3) 0.6575(2)
H23_3 H 0.00459302 0.615184 0.885083
H39_4 H 0.149933 0.424187 0.779323
H40_4 H 0.165717 0.498416 0.760094
H41_4 H 0.0409199 0.450515 0.619251
H42_4 H 0.136091 0.480894 0.661856
N3_4 N 0.8634(6) 0.5811(3) 0.0311(2)
H11_4 H 0.9242 0.5579 0.0419
H12_4 H 0.8684 0.6203 0.0458
C9_4 C 0.7568(6) 0.5457(3) 0.1158(2)
C10_4 C 0.7552(6) 0.5496(3) 0.05113(19)
H16_4 H 0.6874 0.5738 0.0383
C11_3 C 0.7507(6) 0.4812(3) 0.0287(2)
H17_3 H 0.8169 0.4578 0.0432
H18_3 H 0.6816 0.4605 0.0433
C1_4 C 0.4323(5) 0.1368(2) 0.7429(2)
N1_4 N 0.6017(5) 0.1809(3) 0.7944(3)
H1_4 H 0.5958 0.1475 0.8177
H2_4 H 0.6288 0.2147 0.8133
H3_4 H 0.6499 0.1712 0.7664
C2_4 C 0.4844(5) 0.1967(3) 0.7706(3)
H4_4 H 0.4343 0.2087 0.8022
Sm3_4 Sm 0.74386(2) 0.376862(11) 0.848382(9)
C3_4 C 0.4909(5) 0.2537(3) 0.7308(3)
H8_4 H 0.5411 0.2424 0.6995
H9_4 H 0.4143 0.2612 0.7154
H10_4 H 0.8623 0.5838 0.9936
C4_4 C 0.5339(5) 0.3155(3) 0.7561(3)
C5_4 C 0.9463(5) 0.3041(3) 0.7636(3)
C6_4 C 0.9972(6) 0.2418(3) 0.7396(3)
H13_4 H 0.9538 0.2305 0.7055
C7_4 C 0.9911(6) 0.1857(3) 0.7796(3)
H14_4 H 0.9123 0.1815 0.7931
C12_4 C 0.7502(5) 0.4758(2) 0.96512(19)
O1_4 O 0.7471(3) 0.40502(14) 0.74907(12)
H19_4 H 0.7429 0.3666 0.7253
O2_4 O 0.7579(3) 0.53354(14) 0.74358(14)
H20_4 H 0.7604 0.5703 0.7177
O3_4 O 0.6380(3) 0.47586(18) 0.83126(15)
H21_4 H 0.5703 0.4791 0.8560
O4_4 O 0.8752(3) 0.46821(18) 0.82964(15)
H22_4 H 0.9448 0.4668 0.8532
O7_4 O 0.6001(4) 0.3118(2) 0.79845(19)
O8_4 O 0.5041(4) 0.3669(2) 0.7331(2)
O9_4 O 0.9876(4) 0.3560(2) 0.7448(2)
O10_4 O 0.8677(4) 0.2981(2) 0.7983(2)
O15_4 O 0.7543(4) 0.52673(17) 0.93761(15)
O16_4 O 0.7441(5) 0.42043(18) 0.94453(15)
O19_4 O 0.3996(4) 0.4723(3) 0.7934(2)
O20_4 O 0.4152(4) 0.4856(2) 0.6695(2)
O21_4 O 0.9337(4) 0.3570(3) 0.9013(2)
O22_4 O 0.7330(5) 0.2709(2) 0.8969(2)
O23_4 O 0.5512(4) 0.3650(3) 0.8997(2)
O24_4 O 0.5752(5) 0.5961(3) 0.8930(2)
O25_4 O 0.7866(4) 0.6775(2) 0.8870(2)
O26_4 O 0.9548(4) 0.5821(2) 0.9030(2)
H24_4 H 0.934098 0.595995 0.941803
H25_4 H 0.504786 0.330709 0.881382
H26_4 H 0.565542 0.353423 0.939754
H27_4 H 0.522892 0.558273 0.8927
H28_4 H 0.591615 0.608739 0.932614
H29_4 H 0.800608 0.244287 0.885886
H30_4 H 0.733498 0.277541 0.938406
H31_4 H 0.366722 0.446268 0.671009
H32_3 H 0.368286 0.523283 0.681159
H33_4 H 0.721131 0.705148 0.874929
H34_4 H 0.786346 0.6735 0.928767
H35_4 H 0.982132 0.396354 0.899877
H36_4 H 0.916649 0.346074 0.941243
H37_4 H 0.41917 0.482288 0.833257
H38_3 H 0.344719 0.505007 0.778793
H23_4 H 0.995407 0.115184 0.614917
C11_4 C 0.2507(6) 0.0188(3) 0.9713(2)
H17_4 H 0.3169 0.0422 0.9568
H18_4 H 0.1816 0.0395 0.9567
H32_4 H 0.868286 0.976717 0.318841
H38_4 H 0.844719 0.994993 0.221207
Cl1 Cl 0.25390(15) 0.62912(8) 0.84467(7)
O33 O 0.2484(9) 0.5620(3) 0.8503(4)
O34 O 0.2168(15) 0.6309(8) 0.7871(4)
O35 O 0.3616(7) 0.6532(4) 0.8580(5)
O36 O 0.1698(7) 0.6553(4) 0.8807(4)
Cl1_2 Cl 0.24610(15) 0.37088(8) 0.34467(7)
O33_2 O 0.2516(9) 0.4380(3) 0.3503(4)
O34_2 O 0.2832(15) 0.3691(8) 0.2871(4)
O35_2 O 0.1384(7) 0.3468(4) 0.3580(5)
O36_2 O 0.3302(7) 0.3447(4) 0.3807(4)
Cl1_3 Cl 0.75390(15) 0.87088(8) 0.15533(7)
O33_3 O 0.7484(9) 0.9380(3) 0.1497(4)
O34_3 O 0.7168(15) 0.8691(8) 0.2129(4)
O35_3 O 0.8616(7) 0.8468(4) 0.1420(5)
O36_3 O 0.6698(7) 0.8447(4) 0.1193(4)
Cl1_4 Cl 0.74610(15) 0.12912(8) 0.65533(7)
O33_4 O 0.7516(9) 0.0620(3) 0.6497(4)
O34_4 O 0.7832(15) 0.1309(8) 0.7129(4)
O35_4 O 0.6384(7) 0.1532(4) 0.6420(5)
O36_4 O 0.8302(7) 0.1553(4) 0.6193(4)
Cl2 Cl 0.75307(18) 0.81927(9) 0.63873(9)
O37 O 0.7528(10) 0.8862(3) 0.6450(5)
O38 O 0.8596(7) 0.7891(5) 0.6358(5)
O39 O 0.7312(18) 0.7940(8) 0.6930(5)
O40 O 0.6655(14) 0.7883(9) 0.6087(10)
Cl2_2 Cl 0.74693(18) 0.18073(9) 0.13873(9)
O37_2 O 0.7472(10) 0.1138(3) 0.1450(5)
O38_2 O 0.6404(7) 0.2109(5) 0.1358(5)
O39_2 O 0.7688(18) 0.2060(8) 0.1930(5)
O40_2 O 0.8345(14) 0.2117(9) 0.1087(10)
Cl2_3 Cl 0.25307(18) 0.68073(9) 0.36127(9)
O37_3 O 0.2528(10) 0.6138(3) 0.3550(5)
O38_3 O 0.3596(7) 0.7109(5) 0.3642(5)
O39_3 O 0.2312(18) 0.7060(8) 0.3070(5)
O40_3 O 0.1655(14) 0.7117(9) 0.3913(10)
Cl2_4 Cl 0.24693(18) 0.31927(9) 0.86127(9)
O37_4 O 0.2472(10) 0.3862(3) 0.8550(5)
O38_4 O 0.1404(7) 0.2891(5) 0.8642(5)
O39_4 O 0.2688(18) 0.2940(8) 0.8070(5)
O40_4 O 0.3345(14) 0.2883(9) 0.8913(10)
Cl3 Cl 0.0114(3) 0.78702(13) 0.95014(12)
O44 O 0.1320(7) 0.7966(5) 0.9557(5)
O41 O 0.9827(10) 0.8137(5) 0.8980(4)
O42 O 0.9838(10) 0.7211(4) 0.9495(5)
O43 O 0.9566(10) 0.8134(5) 0.9982(4)
Cl3_2 Cl 0.4886(3) 0.21298(13) 0.45014(12)
O41_2 O 0.5173(10) 0.1863(5) 0.3980(4)
O42_2 O 0.5162(10) 0.2789(4) 0.4495(5)
O43_2 O 0.5434(10) 0.1866(5) 0.4982(4)
O44_2 O 0.3680(7) 0.2034(5) 0.4557(5)
Cl3_3 Cl 0.5114(3) 0.71298(13) 0.04986(12)
O41_3 O 0.4827(10) 0.6863(5) 0.1020(4)
O42_3 O 0.4838(10) 0.7789(4) 0.0505(5)
O43_3 O 0.4566(10) 0.6866(5) 0.0018(4)
O44_3 O 0.6320(7) 0.7034(5) 0.0443(5)
O41_4 O 0.0173(10) 0.3137(5) 0.6020(4)
O42_4 O 0.0162(10) 0.2211(4) 0.5505(5)
O43_4 O 0.0434(10) 0.3134(5) 0.5018(4)
Cl3_4 Cl 0.9886(3) 0.28702(13) 0.54986(12)
O44_4 O 0.8680(7) 0.2966(5) 0.5443(5)
O48 O 0.5235(15) 0.0382(8) 0.4921(11)
Cl4 Cl 0.5946(2) 0.98604(14) 0.50234(14)
O45 O 0.6572(15) 0.9750(10) 0.4516(6)
O46 O 0.6805(15) 0.9927(11) 0.5421(8)
O47 O 0.5231(15) 0.9334(8) 0.5113(11)
Cl4_2 Cl 0.9054(2) 0.01396(14) 0.00234(14)
O46_2 O 0.8195(15) 0.0073(11) 0.0421(8)
O47_2 O 0.9769(15) 0.0666(8) 0.0113(11)
O45_2 O 0.8428(15) 0.0250(10) 0.9516(6)
O48_2 O 0.9765(15) 0.9618(8) 0.9921(11)
Cl4_3 Cl 0.0946(2) 0.51396(14) 0.49766(14)
O45_3 O 0.1572(15) 0.5250(10) 0.5484(6)
O46_3 O 0.1805(15) 0.5073(11) 0.4579(8)
O47_3 O 0.0231(15) 0.5666(8) 0.4887(11)
O48_3 O 0.0235(15) 0.4618(8) 0.5079(11)
O45_4 O 0.3428(15) 0.4750(10) 0.0484(6)
O48_4 O 0.4765(15) 0.5382(8) 0.0079(11)
Cl4_4 Cl 0.4054(2) 0.48604(14) 0.99766(14)
O46_4 O 0.3195(15) 0.4927(11) 0.9579(8)
O47_4 O 0.4769(15) 0.4334(8) 0.9887(11)
Cl5 Cl 0.5288(3) 0.14805(16) 0.94756(11)
O49 O 0.4861(12) 0.1235(8) 0.8950(5)
O50 O 0.6451(9) 0.1235(8) 0.9401(6)
O51 O 0.5248(17) 0.2160(6) 0.9371(8)
O52 O 0.4895(18) 0.1028(9) 0.9896(7)
O49_2 O 0.0139(12) 0.8765(8) 0.3950(5)
O52_2 O 0.0105(18) 0.8972(9) 0.4896(7)
Cl5_2 Cl 0.9712(3) 0.85195(16) 0.44756(11)
O50_2 O 0.8549(9) 0.8765(8) 0.4401(6)
O51_2 O 0.9752(17) 0.7840(6) 0.4371(8)
Cl5_3 Cl 0.0288(3) 0.35195(16) 0.05244(11)
O50_3 O 0.1451(9) 0.3765(8) 0.0599(6)
O51_3 O 0.0248(17) 0.2840(6) 0.0629(8)
O49_3 O 0.9861(12) 0.3765(8) 0.1050(5)
O52_3 O 0.9895(18) 0.3972(9) 0.0104(7)
Cl5_4 Cl 0.4712(3) 0.64805(16) 0.55244(11)
O49_4 O 0.5139(12) 0.6235(8) 0.6050(5)
O50_4 O 0.3549(9) 0.6235(8) 0.5599(6)
O51_4 O 0.4752(17) 0.7160(6) 0.5629(8)
O52_4 O 0.5105(18) 0.6028(9) 0.5104(7)
loop_
_geom_bond_atom_site_label_1
_geom_bond_atom_site_label_2
_geom_bond_site_symmetry_1
_geom_bond_site_symmetry_2
N3 H10 1_555 1_555
H11 N3 1_555 1_555
H12 N3 1_555 1_555
Sm4 O2 1_555 1_555
C9 C10 1_555 1_555
C10 N3 1_555 1_555
H16 C10 1_555 1_555
H20 O2 1_555 1_555
O13 C9 1_555 1_555
O14 C9 1_555 1_555
O15 Sm4 1_555 1_555
O24 Sm4 1_555 1_555
O25 Sm4 1_555 1_555
O26 Sm4 1_555 1_555
Sm5 O14 1_555 1_555
Sm7 O13 1_555 1_555
O28 Sm4 1_555 1_555
O30 Sm4 1_555 1_555
O26 H24 1_555 1_555
O24 H27 1_555 1_555
O24 H28 1_555 1_555
O25 H33 1_555 1_555
O25 H34 1_555 1_555
Sm1 O1 1_555 1_555
C1 C2 1_555 1_555
N1 H1 1_555 1_555
H2 N1 1_555 1_555
H3 N1 1_555 1_555
Sm2 O1 1_555 1_555
C2 N1 1_555 1_555
H4 C2 1_555 1_555
Sm3 O1 1_555 1_555
C3 C2 1_555 1_555
H8 C3 1_555 1_555
H9 C3 1_555 1_555
C4 C3 1_555 1_555
C5 C6 1_555 1_555
H13 C6 1_555 1_555
C7 C6 1_555 1_555
H14 C7 1_555 1_555
H17 C11 1_555 1_555
H18 C11 1_555 1_555
C12 C11 1_555 1_555
O1 H19 1_555 1_555
O3 Sm2 1_555 1_555
H21 O3 1_555 1_555
O4 Sm1 1_555 1_555
H22 O4 1_555 1_555
O5 C1 1_555 1_555
O6 C1 1_555 1_555
O7 Sm3 1_555 1_555
O8 Sm2 1_555 1_555
O9 Sm1 1_555 1_555
O10 Sm3 1_555 1_555
O16 Sm3 1_555 1_555
O19 Sm2 1_555 1_555
O20 Sm2 1_555 1_555
O21 Sm3 1_555 1_555
O22 Sm3 1_555 1_555
O23 Sm3 1_555 1_555
Sm8 O5 1_555 1_555
Sm10 O6 1_555 1_555
O31 Sm2 1_555 1_555
O32 Sm1 1_555 1_555
Sm3 O3 1_555 1_555
Sm3 O4 1_555 1_555
C4 O7 1_555 1_555
C4 O8 1_555 1_555
C5 O9 1_555 1_555
C5 O10 1_555 1_555
C12 O16 1_555 1_555
O23 H25 1_555 1_555
O23 H26 1_555 1_555
O22 H29 1_555 1_555
O22 H30 1_555 1_555
O20 H31 1_555 1_555
O21 H35 1_555 1_555
O21 H36 1_555 1_555
O19 H37 1_555 1_555
N2 H5 1_555 1_555
H6 N2 1_555 1_555
H7 N2 1_555 1_555
O11 C8 1_555 1_555
O12 C8 1_555 1_555
Sm6 O11 1_555 1_555
Sm10 O12 1_555 1_555
O17 H39 1_555 1_555
O17 H40 1_555 1_555
O18 H41 1_555 1_555
O18 H42 1_555 1_555
Sm5 O1_2 1_555 1_555
N1_2 H1_2 1_555 1_555
H2_2 N1_2 1_555 1_555
H3_2 N1_2 1_555 1_555
Sm7 O1_2 1_555 1_555
N2_2 H5_2 1_555 1_555
H6_2 N2_2 1_555 1_555
H7_2 N2_2 1_555 1_555
Sm3_2 O1_2 1_555 1_555
C5_2 C6_2 1_555 1_555
C6_2 N2_2 1_555 1_555
H13_2 C6_2 1_555 1_555
C7_2 C6_2 1_555 1_555
H14_2 C7_2 1_555 1_555
H15_2 C7_2 1_555 1_555
C8_2 C7_2 1_555 1_555
O1_2 H19_2 1_555 1_555
O3_2 Sm7 1_555 1_555
H21_2 O3_2 1_555 1_555
O4_2 Sm5 1_555 1_555
H22_2 O4_2 1_555 1_555
O7_2 Sm3_2 1_555 1_555
O8_2 Sm7 1_555 1_555
O9_2 Sm5 1_555 1_555
O10_2 Sm3_2 1_555 1_555
O11_2 C8_2 1_555 1_555
O12_2 C8_2 1_555 1_555
O16_2 Sm3_2 1_555 1_555
O17_2 Sm5 1_555 1_555
O18_2 Sm5 1_555 1_555
O21_2 Sm3_2 1_555 1_555
O22_2 Sm3_2 1_555 1_555
O23_2 Sm3_2 1_555 1_555
Sm6_2 O11_2 1_555 1_555
Sm9 O12_2 1_555 1_555
Sm3_2 O3_2 1_555 1_555
Sm3_2 O4_2 1_555 1_555
C4_2 O7_2 1_555 1_555
C4_2 O8_2 1_555 1_555
C5_2 O9_2 1_555 1_555
C5_2 O10_2 1_555 1_555
C12_2 O16_2 1_555 1_555
O23_2 H25_2 1_555 1_555
O23_2 H26_2 1_555 1_555
O22_2 H29_2 1_555 1_555
O22_2 H30_2 1_555 1_555
O21_2 H35_2 1_555 1_555
O21_2 H36_2 1_555 1_555
O17_2 H39_2 1_555 1_555
O17_2 H40_2 1_555 1_555
O18_2 H41_2 1_555 1_555
O18_2 H42_2 1_555 1_555
Sm4_2 O2_2 1_555 1_555
H20_2 O2_2 1_555 1_555
O15_2 Sm4_2 1_555 1_555
O24_2 Sm4_2 1_555 1_555
O25_2 Sm4_2 1_555 1_555
O26_2 Sm4_2 1_555 1_555
O28_2 Sm4_2 1_555 1_555
O30_2 Sm4_2 1_555 1_555
O26_2 H23 1_555 1_555
O26_2 H24_2 1_555 1_555
O24_2 H27_2 1_555 1_555
O24_2 H28_2 1_555 1_555
O25_2 H33_2 1_555 1_555
O25_2 H34_2 1_555 1_555
H11_2 N3_2 1_555 1_555
H12_2 N3_2 1_555 1_555
C9_2 C10_2 1_555 1_555
C10_2 N3_2 1_555 1_555
H16_2 C10_2 1_555 1_555
O31 C9_2 1_555 1_555
O32 C9_2 1_555 1_555
C1_2 C2_2 1_555 1_555
H4_2 C2_2 1_555 1_555
C3_2 C2_2 1_555 1_555
H9_2 C3_2 1_555 1_555
O5_2 C1_2 1_555 1_555
O6_2 C1_2 1_555 1_555
Sm8_2 O5_2 1_555 1_555
Sm9 O6_2 1_555 1_555
O20_2 H31_2 1_555 1_555
O19_2 H37_2 1_555 1_555
C1_3 C2_3 1_555 1_555
H4_3 C2_3 1_555 1_555
C3_3 C2_3 1_555 1_555
H9_3 C3_3 1_555 1_555
O27_2 C1_3 1_555 1_555
O28_2 C1_3 1_555 1_555
O20_3 H31_3 1_555 1_555
O20_3 H32_2 1_555 1_555
O19_3 H37_3 1_555 1_555
O19_3 H38_2 1_555 1_555
Sm6_2 O1_3 1_555 1_555
N1_3 H1_3 1_555 1_555
H2_3 N1_3 1_555 1_555
H3_3 N1_3 1_555 1_555
Sm8_2 O1_3 1_555 1_555
N2_3 H5_3 1_555 1_555
H6_3 N2_3 1_555 1_555
H7_3 N2_3 1_555 1_555
Sm3_3 O1_3 1_555 1_555
N3_3 H10_3 1_555 1_555
H11_3 N3_3 1_555 1_555
H12_3 N3_3 1_555 1_555
Sm9 O2_3 1_555 1_555
C5_3 C6_3 1_555 1_555
C6_3 N2_3 1_555 1_555
H13_3 C6_3 1_555 1_555
C7_3 C6_3 1_555 1_555
H14_3 C7_3 1_555 1_555
H15_3 C7_3 1_555 1_555
C8_3 C7_3 1_555 1_555
C9_3 C10_3 1_555 1_555
C10_3 N3_3 1_555 1_555
H16_3 C10_3 1_555 1_555
C11_2 C10_3 1_555 1_555
H17_2 C11_2 1_555 1_555
H18_2 C11_2 1_555 1_555
C12_3 C11_2 1_555 1_555
O1_3 H19_3 1_555 1_555
O2_3 Sm6_2 1_555 1_555
H20_3 O2_3 1_555 1_555
O3_3 Sm8_2 1_555 1_555
H21_3 O3_3 1_555 1_555
O4_3 Sm6_2 1_555 1_555
H22_3 O4_3 1_555 1_555
O7_3 Sm3_3 1_555 1_555
O8_3 Sm8_2 1_555 1_555
O9_3 Sm6_2 1_555 1_555
O10_3 Sm3_3 1_555 1_555
O29_2 C8_3 1_555 1_555
O30_2 C8_3 1_555 1_555
O13_2 C9_3 1_555 1_555
O14_2 C9_3 1_555 1_555
O15_3 Sm9 1_555 1_555
O16_3 Sm3_3 1_555 1_555
O17_3 Sm6_2 1_555 1_555
O18_3 Sm6_2 1_555 1_555
O21_3 Sm3_3 1_555 1_555
O22_3 Sm3_3 1_555 1_555
O23_3 Sm3_3 1_555 1_555
O24_3 Sm9 1_555 1_555
O25_3 Sm9 1_555 1_555
O26_3 Sm9 1_555 1_555
Sm6 O14_2 1_555 1_555
Sm8 O13_2 1_555 1_555
O31_2 Sm8_2 1_555 1_555
O32_2 Sm6_2 1_555 1_555
Sm8_2 O2_3 1_555 1_555
Sm3_3 O3_3 1_555 1_555
Sm3_3 O4_3 1_555 1_555
Sm9 O3_3 1_555 1_555
Sm9 O4_3 1_555 1_555
C4_3 O7_3 1_555 1_555
C4_3 O8_3 1_555 1_555
C5_3 O9_3 1_555 1_555
C5_3 O10_3 1_555 1_555
C12_3 O15_3 1_555 1_555
C12_3 O16_3 1_555 1_555
O26_3 H23_2 1_555 1_555
O26_3 H24_3 1_555 1_555
O23_3 H25_3 1_555 1_555
O23_3 H26_3 1_555 1_555
O24_3 H27_3 1_555 1_555
O24_3 H28_3 1_555 1_555
O22_3 H29_3 1_555 1_555
O22_3 H30_3 1_555 1_555
O25_3 H33_3 1_555 1_555
O25_3 H34_3 1_555 1_555
O21_3 H35_3 1_555 1_555
O21_3 H36_3 1_555 1_555
O17_3 H39_3 1_555 1_555
O17_3 H40_3 1_555 1_555
O18_3 H41_3 1_555 1_555
O18_3 H42_3 1_555 1_555
N2_4 H5_4 1_555 1_555
H6_4 N2_4 1_555 1_555
H7_4 N2_4 1_555 1_555
O29 C8_4 1_555 1_555
O30 C8_4 1_555 1_555
O17_4 H39_4 1_555 1_555
O17_4 H40_4 1_555 1_555
O18_4 H41_4 1_555 1_555
O18_4 H42_4 1_555 1_555
H11_4 N3_4 1_555 1_555
H12_4 N3_4 1_555 1_555
C9_4 C10_4 1_555 1_555
C10_4 N3_4 1_555 1_555
H16_4 C10_4 1_555 1_555
C11_3 C10_4 1_555 1_555
H17_3 C11_3 1_555 1_555
H18_3 C11_3 1_555 1_555
O31_2 C9_4 1_555 1_555
O32_2 C9_4 1_555 1_555
Sm6 O1_4 1_555 1_555
C1_4 C2_4 1_555 1_555
N1_4 H1_4 1_555 1_555
H2_4 N1_4 1_555 1_555
H3_4 N1_4 1_555 1_555
Sm8 O1_4 1_555 1_555
C2_4 N1_4 1_555 1_555
H4_4 C2_4 1_555 1_555
Sm3_4 O1_4 1_555 1_555
C3_4 C2_4 1_555 1_555
H8_4 C3_4 1_555 1_555
H9_4 C3_4 1_555 1_555
Sm10 O2_4 1_555 1_555
C4_4 C3_4 1_555 1_555
C5_4 C6_4 1_555 1_555
H13_4 C6_4 1_555 1_555
C7_4 C6_4 1_555 1_555
H14_4 C7_4 1_555 1_555
O1_4 H19_4 1_555 1_555
O2_4 Sm6 1_555 1_555
H20_4 O2_4 1_555 1_555
O3_4 Sm8 1_555 1_555
H21_4 O3_4 1_555 1_555
O4_4 Sm6 1_555 1_555
H22_4 O4_4 1_555 1_555
O27 C1_4 1_555 1_555
O28 C1_4 1_555 1_555
O7_4 Sm3_4 1_555 1_555
O8_4 Sm8 1_555 1_555
O9_4 Sm6 1_555 1_555
O10_4 Sm3_4 1_555 1_555
O15_4 Sm10 1_555 1_555
O16_4 Sm3_4 1_555 1_555
O19_4 Sm8 1_555 1_555
O20_4 Sm8 1_555 1_555
O21_4 Sm3_4 1_555 1_555
O22_4 Sm3_4 1_555 1_555
O23_4 Sm3_4 1_555 1_555
O24_4 Sm10 1_555 1_555
O25_4 Sm10 1_555 1_555
O26_4 Sm10 1_555 1_555
Sm8 O2_4 1_555 1_555
Sm3_4 O3_4 1_555 1_555
Sm3_4 O4_4 1_555 1_555
Sm10 O3_4 1_555 1_555
Sm10 O4_4 1_555 1_555
C4_4 O7_4 1_555 1_555
C4_4 O8_4 1_555 1_555
C5_4 O9_4 1_555 1_555
C5_4 O10_4 1_555 1_555
C12_4 O15_4 1_555 1_555
C12_4 O16_4 1_555 1_555
O26_4 H24_4 1_555 1_555
O23_4 H25_4 1_555 1_555
O23_4 H26_4 1_555 1_555
O24_4 H27_4 1_555 1_555
O24_4 H28_4 1_555 1_555
O22_4 H29_4 1_555 1_555
O22_4 H30_4 1_555 1_555
O20_4 H31_4 1_555 1_555
O20_4 H32_3 1_555 1_555
O25_4 H33_4 1_555 1_555
O25_4 H34_4 1_555 1_555
O21_4 H35_4 1_555 1_555
O21_4 H36_4 1_555 1_555
O19_4 H37_4 1_555 1_555
O19_4 H38_3 1_555 1_555
H17_4 C11_4 1_555 1_555
H18_4 C11_4 1_555 1_555
Cl1 O33 1_555 1_555
O34 Cl1 1_555 1_555
O35 Cl1 1_555 1_555
O36 Cl1 1_555 1_555
Cl1_2 O33_2 1_555 1_555
O34_2 Cl1_2 1_555 1_555
O35_2 Cl1_2 1_555 1_555
O36_2 Cl1_2 1_555 1_555
Cl1_3 O33_3 1_555 1_555
O34_3 Cl1_3 1_555 1_555
O35_3 Cl1_3 1_555 1_555
O36_3 Cl1_3 1_555 1_555
Cl1_4 O33_4 1_555 1_555
O34_4 Cl1_4 1_555 1_555
O35_4 Cl1_4 1_555 1_555
O36_4 Cl1_4 1_555 1_555
Cl2 O37 1_555 1_555
O38 Cl2 1_555 1_555
O39 Cl2 1_555 1_555
O40 Cl2 1_555 1_555
Cl2_2 O37_2 1_555 1_555
O38_2 Cl2_2 1_555 1_555
O39_2 Cl2_2 1_555 1_555
O40_2 Cl2_2 1_555 1_555
Cl2_3 O37_3 1_555 1_555
O38_3 Cl2_3 1_555 1_555
O39_3 Cl2_3 1_555 1_555
O40_3 Cl2_3 1_555 1_555
Cl2_4 O37_4 1_555 1_555
O38_4 Cl2_4 1_555 1_555
O39_4 Cl2_4 1_555 1_555
O40_4 Cl2_4 1_555 1_555
O44 Cl3 1_555 1_555
Cl3_2 O41_2 1_555 1_555
O42_2 Cl3_2 1_555 1_555
O43_2 Cl3_2 1_555 1_555
O44_2 Cl3_2 1_555 1_555
Cl3_3 O41_3 1_555 1_555
O42_3 Cl3_3 1_555 1_555
O43_3 Cl3_3 1_555 1_555
O44_3 Cl3_3 1_555 1_555
O44_4 Cl3_4 1_555 1_555
Cl4 O45 1_555 1_555
O46 Cl4 1_555 1_555
O47 Cl4 1_555 1_555
O46_2 Cl4_2 1_555 1_555
O47_2 Cl4_2 1_555 1_555
Cl4_3 O45_3 1_555 1_555
O46_3 Cl4_3 1_555 1_555
O47_3 Cl4_3 1_555 1_555
O48_3 Cl4_3 1_555 1_555
O46_4 Cl4_4 1_555 1_555
O47_4 Cl4_4 1_555 1_555
Cl5 O49 1_555 1_555
O50 Cl5 1_555 1_555
O51 Cl5 1_555 1_555
O52 Cl5 1_555 1_555
O50_2 Cl5_2 1_555 1_555
O51_2 Cl5_2 1_555 1_555
O50_3 Cl5_3 1_555 1_555
O51_3 Cl5_3 1_555 1_555
Cl5_4 O49_4 1_555 1_555
O50_4 Cl5_4 1_555 1_555
O51_4 Cl5_4 1_555 1_555
O52_4 Cl5_4 1_555 1_555

#END
