
###############################################################################
#
# This file contains modified crystal structure data generated from the
# MOF subset of the Cambridge Structural Database (CSD) v543 
# hosted by the Cambridge Crystallographic Data Centre (CCDC).
#
# This work is licensed under the Creative Commons
# Attribution-NonCommercial-ShareAlike 4.0 International License.
# To view a copy of this license, visit
# http://creativecommons.org/licenses/by-nc-sa/4.0/
# or send a letter to
# Creative Commons, PO Box 1866, Mountain View, CA 94042, USA.
#
# CIF created using the CSD Python API on 29 September 2022
# The structure has been converted into the P1 space group
# The structure has a 3D framework
# The original CSD entry VARWOC is in the orthorhombic crystal system
# The original CSD entry VARWOC is in a Sohncke space group
# The framework has been calculated to contain at least 10.0% void space
# The void calculation uses a probe of radius 1.32A, grid spacing 0.4
# The framework is charged, counterions have been retained in the structure
# H atom positions have been added when not included in the experimental data
#
###############################################################################

data_VARWOC
_chemical_formula_moiety         '(C48 H168 Cl20 Eu16 N12 O182)n'
_symmetry_cell_setting           triclinic
_symmetry_space_group_name_H-M   'P 1'
_symmetry_Int_Tables_number      1
_space_group_name_Hall           'P 1'
loop_
_symmetry_equiv_pos_site_id
_symmetry_equiv_pos_as_xyz
1 x,y,z
_cell_length_a                   11.561(5)
_cell_length_b                   20.816(8)
_cell_length_c                   23.676(9)
_cell_angle_alpha                90
_cell_angle_beta                 90
_cell_angle_gamma                90
_cell_volume                     5697.72
loop_
_atom_site_label
_atom_site_type_symbol
_atom_site_fract_x
_atom_site_fract_y
_atom_site_fract_z
N1 N 0.1009(11) 0.1812(6) 0.2940(6)
H2 H 0.1308 0.2163 0.3098
H3 H 0.1470 0.1679 0.2662
H4 H 0.0947 0.1504 0.3199
H12 H 0.0430 0.2414 0.1999
C4 C 0.0352(10) 0.3160(6) 0.2558(6)
O7 O 0.1004(9) 0.3132(5) 0.2973(5)
O8 O 0.0072(9) 0.3671(5) 0.2324(6)
Eu6 Eu 0.08275(5) 0.47328(3) 0.23424(3)
Eu7 Eu 0.24366(6) 0.37699(2) 0.34807(2)
H23 H 0.133945 0.01665 0.208554
Eu4 Eu 0.73532(6) 0.06703(2) 0.15705(2)
O1 O 0.7409(8) 0.0330(3) 0.2563(3)
H1 H 0.7382 0.0697 0.2821
C1 C 0.9313(12) 0.1362(5) 0.2445(6)
C2 C 0.9841(13) 0.1963(6) 0.2706(6)
H6 H 0.9347 0.2090 0.3023
C3 C 0.9921(12) 0.2531(6) 0.2308(6)
H11 H 0.9160 0.2605 0.2149
O5 O 0.9776(8) 0.0841(4) 0.2575(5)
O6 O 0.8486(11) 0.1460(5) 0.2120(5)
C7 C 0.7492(15) 0.0185(6) 0.4713(5)
H18 H 0.8134 0.0430 0.4562
H19 H 0.6784 0.0379 0.4573
C8 C 0.7508(13) 0.0241(5) 0.5350(5)
O11 O 0.7438(11) 0.0795(4) 0.5556(3)
O24 O 0.9254(12) 0.0944(7) 0.1077(6)
O25 O 0.7107(11) 0.1766(5) 0.1125(6)
O26 O 0.5451(11) 0.0816(5) 0.0980(5)
Eu8 Eu 0.74366(6) 0.12301(2) 0.65193(2)
O30 O 0.7452(10) 0.0263(4) 0.0629(4)
O31 O 0.5860(10) 0.1246(4) 0.2085(4)
O32 O 0.5038(8) 0.0712(4) 0.2790(5)
H29 H 0.495458 0.11458 0.116185
H30 H 0.565055 0.0956069 0.0591096
H31 H 0.774407 0.205242 0.125038
H32 H 0.712695 0.172401 0.070733
H33 H 0.976828 0.0561939 0.108001
H34 H 0.909505 0.10725 0.0680619
Eu1 Eu 0.58077(5) 0.96420(3) 0.26840(3)
Eu2 Eu 0.91725(5) 0.97328(3) 0.26576(3)
Eu3 Eu 0.75634(6) 0.87699(2) 0.15193(2)
O2 O 0.8622(8) 0.9760(4) 0.1693(4)
H5 H 0.9301 0.9793 0.1447
N2 N 0.8609(13) 0.9176(7) 0.4687(5)
H7 H 0.8598 0.9154 0.5062
H8 H 0.9231 0.9394 0.4576
H9 H 0.8632 0.8781 0.4544
O3 O 0.7524(9) 0.9051(3) 0.2513(3)
H10 H 0.7563 0.8667 0.2752
N3 N 0.3813(14) 0.7552(7) 0.2787(9)
H13 H 0.3506 0.7194 0.2928
H14 H 0.3399 0.7681 0.2491
H15 H 0.3810 0.7858 0.3049
O4 O 0.6240(8) 0.9679(4) 0.1706(4)
H16 H 0.5544 0.9665 0.1470
C5 C 0.7540(14) 0.9552(6) 0.3839(4)
C6 C 0.7569(13) 0.9503(6) 0.4489(4)
H17 H 0.6889 0.9262 0.4617
O9 O 0.6573(10) 0.9596(6) 0.3620(4)
C9 C 0.5532(13) 0.8047(6) 0.2372(7)
O10 O 0.8509(10) 0.9564(6) 0.3602(4)
C10 C 0.5020(13) 0.7424(6) 0.2606(7)
H20 H 0.5462 0.7311 0.2945
C11 C 0.5072(13) 0.6854(6) 0.2210(6)
H21 H 0.5858 0.6810 0.2073
H22 H 0.4581 0.6942 0.1886
O12 O 0.7548(10) 0.9737(4) 0.5629(4)
C12 C 0.4700(12) 0.6220(6) 0.2470(6)
O13 O 0.5124(10) 0.8564(4) 0.2556(5)
O14 O 0.6325(10) 0.7983(4) 0.2014(4)
O15 O 0.4140(10) 0.6246(4) 0.2915(4)
O16 O 0.4962(8) 0.5712(4) 0.2210(5)
O17 O 0.3873(11) 0.9675(6) 0.2185(6)
O18 O 0.4267(10) 0.9473(5) 0.3409(5)
O21 O 0.5685(13) 0.8577(6) 0.0989(6)
O22 O 0.9469(11) 0.8654(6) 0.1017(6)
O23 O 0.7689(12) 0.7718(6) 0.1032(5)
Eu5 Eu 0.41923(5) 0.46420(3) 0.23160(3)
Eu9 Eu 0.76468(6) 0.93297(2) 0.65705(2)
Eu10 Eu 0.26468(6) 0.56703(2) 0.34295(2)
O27 O 0.8996(9) 0.8132(5) 0.2027(5)
O28 O 0.9928(9) 0.8671(5) 0.2676(6)
O29 O 0.7562(11) 0.9205(4) 0.0556(3)
H25 H 0.38102 0.987383 0.345326
H26 H 0.37488 0.911914 0.328617
H28 H 0.950186 0.822922 0.0826818
H35 H 0.577437 0.871853 0.0590856
H36 H 0.549388 0.811204 0.0998282
H37 H 0.399272 0.962291 0.177222
H38 H 0.337574 0.932124 0.232717
H41 H 0.835991 0.747323 0.118123
H42 H 0.696733 0.747095 0.109945
N3_2 N 0.1187(14) 0.2448(7) 0.7787(9)
H13_2 H 0.1494 0.2806 0.7928
H14_2 H 0.1601 0.2319 0.7491
H15_2 H 0.1190 0.2142 0.8049
H22_2 H 0.0419 0.3058 0.6886
C12_2 C 0.0300(12) 0.3780(6) 0.7470(6)
O15_2 O 0.0860(10) 0.3754(4) 0.7915(4)
O16_2 O 0.0038(8) 0.4288(4) 0.7210(5)
O17_2 O 0.1127(11) 0.0325(6) 0.7185(6)
O18_2 O 0.0733(10) 0.0527(5) 0.8409(5)
Eu5_2 Eu 0.08077(5) 0.53580(3) 0.73160(3)
Eu10_2 Eu 0.23532(6) 0.43297(2) 0.84295(2)
H25_2 H 0.11898 0.012617 0.845326
H26_2 H 0.12512 0.0880859 0.828617
H37_2 H 0.100728 0.0377094 0.677222
H38_2 H 0.162426 0.0678757 0.732717
H7_2 H 0.6402 0.0846 0.0062
Eu1_2 Eu 0.91923(5) 0.03580(3) 0.76840(3)
Eu2_2 Eu 0.58275(5) 0.02672(3) 0.76576(3)
O2_2 O 0.6378(8) 0.0240(4) 0.6693(4)
H5_2 H 0.5699 0.0207 0.6447
N2_2 N 0.6391(13) 0.0824(7) 0.9687(5)
H8_2 H 0.5769 0.0606 0.9576
H9_2 H 0.6368 0.1219 0.9544
O3_2 O 0.7476(9) 0.0949(3) 0.7513(3)
H10_2 H 0.7437 0.1333 0.7752
O4_2 O 0.8760(8) 0.0321(4) 0.6706(4)
H16_2 H 0.9456 0.0335 0.6470
C5_2 C 0.7460(14) 0.0448(6) 0.8839(4)
C6_2 C 0.7431(13) 0.0497(6) 0.9489(4)
H17_2 H 0.8111 0.0738 0.9617
O9_2 O 0.8427(10) 0.0404(6) 0.8620(4)
C9_2 C 0.9468(13) 0.1953(6) 0.7372(7)
O10_2 O 0.6491(10) 0.0436(6) 0.8602(4)
C10_2 C 0.9980(13) 0.2576(6) 0.7606(7)
H20_2 H 0.9538 0.2689 0.7945
C11_2 C 0.9928(13) 0.3146(6) 0.7210(6)
H21_2 H 0.9142 0.3190 0.7073
O13_2 O 0.9876(10) 0.1436(4) 0.7556(5)
O14_2 O 0.8675(10) 0.2017(4) 0.7014(4)
O19 O 0.4199(10) 0.0149(6) 0.8308(5)
O20 O 0.4007(11) 0.0270(6) 0.7083(6)
O21_2 O 0.9315(13) 0.1423(6) 0.5989(6)
O22_2 O 0.5531(11) 0.1346(6) 0.6017(6)
O23_2 O 0.7311(12) 0.2282(6) 0.6032(5)
O27_2 O 0.6004(9) 0.1868(5) 0.7027(5)
O28_2 O 0.5072(9) 0.1329(5) 0.7676(6)
H24 H 0.345008 0.0581364 0.724735
H27 H 0.489043 0.13131 0.62949
H28_2 H 0.549814 0.177078 0.582682
H35_2 H 0.922563 0.128147 0.559086
H36_2 H 0.950612 0.188796 0.599828
H39 H 0.447649 0.0198348 0.870254
H40 H 0.361062 0.0483686 0.82257
H41_2 H 0.664009 0.252677 0.618123
H42_2 H 0.803267 0.252905 0.609945
C8_2 C 0.7492(13) 0.9759(5) 0.0350(5)
O1_2 O 0.7591(8) 0.9670(3) 0.7563(3)
H1_2 H 0.7618 0.9303 0.7821
N1_2 N 0.3991(11) 0.8188(6) 0.7940(6)
H2_2 H 0.3692 0.7837 0.8098
H3_2 H 0.3530 0.8321 0.7662
H4_2 H 0.4053 0.8496 0.8199
C1_2 C 0.5687(12) 0.8638(5) 0.7445(6)
C2_2 C 0.5159(13) 0.8037(6) 0.7706(6)
H6_2 H 0.5653 0.7910 0.8023
C3_2 C 0.5079(12) 0.7469(6) 0.7308(6)
H11_2 H 0.5840 0.7395 0.7149
H12_2 H 0.4570 0.7586 0.6999
C4_2 C 0.4648(10) 0.6840(6) 0.7558(6)
O5_2 O 0.5224(8) 0.9159(4) 0.7575(5)
O6_2 O 0.6514(11) 0.8540(5) 0.7120(5)
O7_2 O 0.3996(9) 0.6868(5) 0.7973(5)
C7_2 C 0.7508(15) 0.9815(6) 0.9713(5)
H18_2 H 0.6866 0.9570 0.9562
H19_2 H 0.8216 0.9621 0.9573
O8_2 O 0.4928(9) 0.6329(5) 0.7324(6)
O24_2 O 0.5746(12) 0.9056(7) 0.6077(6)
O25_2 O 0.7893(11) 0.8234(5) 0.6125(6)
O26_2 O 0.9549(11) 0.9184(5) 0.5980(5)
Eu6_2 Eu 0.41725(5) 0.52672(3) 0.73424(3)
Eu7_2 Eu 0.25634(6) 0.62301(2) 0.84807(2)
O31_2 O 0.9140(10) 0.8754(4) 0.7085(4)
O32_2 O 0.9962(8) 0.9288(4) 0.7790(5)
H23_2 H 0.366055 0.98335 0.708554
H30_2 H 0.934945 0.904393 0.55911
H31_2 H 0.725593 0.794758 0.625038
H32_2 H 0.787305 0.827599 0.570733
H33_2 H 0.523172 0.943806 0.608001
H34_2 H 0.590495 0.89275 0.568062
O1_3 O 0.2409(8) 0.4670(3) 0.7437(3)
H1_3 H 0.2382 0.4303 0.7179
N1_3 N 0.6009(11) 0.3188(6) 0.7060(6)
H2_3 H 0.6308 0.2837 0.6902
H3_3 H 0.6470 0.3321 0.7338
H4_3 H 0.5947 0.3496 0.6801
C1_3 C 0.4313(12) 0.3638(5) 0.7555(6)
O2_3 O 0.3622(8) 0.5240(4) 0.8307(4)
H5_3 H 0.4301 0.5207 0.8553
C2_3 C 0.4841(13) 0.3037(6) 0.7294(6)
H6_3 H 0.4347 0.2910 0.6977
N2_3 N 0.3609(13) 0.5824(7) 0.5313(5)
H7_3 H 0.3598 0.5846 0.4938
H8_3 H 0.4231 0.5606 0.5424
H9_3 H 0.3632 0.6219 0.5456
O3_3 O 0.2524(9) 0.5949(3) 0.7487(3)
H10_3 H 0.2563 0.6333 0.7248
C3_3 C 0.4921(12) 0.2469(6) 0.7692(6)
H11_3 H 0.4160 0.2395 0.7851
H12_3 H 0.5430 0.2586 0.8001
O4_3 O 0.1240(8) 0.5321(4) 0.8294(4)
H16_3 H 0.0544 0.5335 0.8530
C4_3 C 0.5352(10) 0.1840(6) 0.7442(6)
O5_3 O 0.4776(8) 0.4159(4) 0.7425(5)
C5_3 C 0.2540(14) 0.5448(6) 0.6161(4)
C6_3 C 0.2569(13) 0.5497(6) 0.5511(4)
H17_3 H 0.1889 0.5738 0.5383
O6_3 O 0.3486(11) 0.3540(5) 0.7880(5)
C7_3 C 0.2492(15) 0.4815(6) 0.5287(5)
H18_3 H 0.3134 0.4570 0.5438
H19_3 H 0.1784 0.4621 0.5427
C8_3 C 0.2508(13) 0.4759(5) 0.4650(5)
O9_3 O 0.1573(10) 0.5404(6) 0.6380(4)
C9_3 C 0.0532(13) 0.6953(6) 0.7628(7)
O10_3 O 0.3509(10) 0.5436(6) 0.6398(4)
C10_3 C 0.0020(13) 0.7576(6) 0.7394(7)
H20_3 H 0.0462 0.7689 0.7055
O11_2 O 0.2438(11) 0.4205(4) 0.4444(3)
C11_3 C 0.0072(13) 0.8146(6) 0.7790(6)
H21_3 H 0.0858 0.8190 0.7927
O12_2 O 0.2548(10) 0.5263(4) 0.4371(4)
O13_3 O 0.0124(10) 0.6436(4) 0.7444(5)
O14_3 O 0.1325(10) 0.7017(4) 0.7986(4)
O19_2 O 0.5801(10) 0.5149(6) 0.6692(5)
O20_2 O 0.5993(11) 0.5270(6) 0.7917(6)
O21_3 O 0.0685(13) 0.6423(6) 0.9011(6)
O22_3 O 0.4469(11) 0.6346(6) 0.8983(6)
O23_3 O 0.2689(12) 0.7282(6) 0.8968(5)
O24_3 O 0.4254(12) 0.4056(7) 0.8923(6)
O25_3 O 0.2107(11) 0.3234(5) 0.8875(6)
O26_3 O 0.0451(11) 0.4184(5) 0.9020(5)
O29_2 O 0.2562(11) 0.5795(4) 0.9444(3)
O30_2 O 0.2452(10) 0.4737(4) 0.9371(4)
H23_3 H 0.633945 0.48335 0.791446
H24_2 H 0.654992 0.558136 0.775265
H27_2 H 0.510957 0.63131 0.87051
H28_3 H 0.450186 0.677078 0.917318
H30_3 H 0.0650553 0.404393 0.94089
H31_3 H 0.274407 0.294758 0.874962
H32_3 H 0.212695 0.327599 0.929267
H33_3 H 0.476828 0.443806 0.891999
H34_3 H 0.409505 0.39275 0.931938
H35_3 H 0.0774366 0.628147 0.940914
H36_3 H 0.0493881 0.688796 0.900172
H39_2 H 0.552351 0.519835 0.629746
H40_2 H 0.638938 0.548369 0.67743
H41_3 H 0.335991 0.752677 0.881877
H42_3 H 0.196733 0.752905 0.890055
N3_3 N 0.8813(14) 0.7448(7) 0.7213(9)
H13_3 H 0.8506 0.7806 0.7072
H14_3 H 0.8399 0.7319 0.7509
H15_3 H 0.8810 0.7142 0.6951
H22_3 H 0.9581 0.8058 0.8114
C12_3 C 0.9700(12) 0.8780(6) 0.7530(6)
O17_3 O 0.8873(11) 0.5325(6) 0.7815(6)
O18_3 O 0.9267(10) 0.5527(5) 0.6591(5)
H25_3 H 0.88102 0.512617 0.654674
H26_3 H 0.87488 0.588086 0.671383
H29_2 H 0.995458 0.38542 0.883815
H37_3 H 0.899272 0.537709 0.822778
H38_3 H 0.837574 0.567876 0.767283
O1_4 O 0.2591(8) 0.5330(3) 0.2437(3)
H1_4 H 0.2618 0.5697 0.2179
C1_4 C 0.0687(12) 0.6362(5) 0.2555(6)
O2_4 O 0.1378(8) 0.4760(4) 0.3307(4)
H5_4 H 0.0699 0.4793 0.3553
C2_4 C 0.0159(13) 0.6963(6) 0.2294(6)
H6_4 H 0.0653 0.7090 0.1977
N2_4 N 0.1391(13) 0.4176(7) 0.0313(5)
H8_4 H 0.0769 0.4394 0.0424
H9_4 H 0.1368 0.3781 0.0456
O3_4 O 0.2476(9) 0.4051(3) 0.2487(3)
H10_4 H 0.2437 0.3667 0.2248
C3_4 C 0.0079(12) 0.7531(6) 0.2692(6)
H11_4 H 0.0840 0.7605 0.2851
N3_4 N 0.6187(14) 0.2552(7) 0.2213(9)
H13_4 H 0.6494 0.2194 0.2072
H14_4 H 0.6601 0.2681 0.2509
H15_4 H 0.6190 0.2858 0.1951
O4_4 O 0.3760(8) 0.4679(4) 0.3294(4)
H16_4 H 0.4456 0.4665 0.3530
O5_4 O 0.0224(8) 0.5841(4) 0.2425(5)
C5_4 C 0.2460(14) 0.4552(6) 0.1161(4)
C6_4 C 0.2431(13) 0.4503(6) 0.0511(4)
H17_4 H 0.3111 0.4262 0.0383
O6_4 O 0.1514(11) 0.6460(5) 0.2880(5)
C7_4 C 0.2508(15) 0.5185(6) 0.0287(5)
H18_4 H 0.1866 0.5430 0.0438
H19_4 H 0.3216 0.5379 0.0427
O9_4 O 0.3427(10) 0.4596(6) 0.1380(4)
C9_4 C 0.4468(13) 0.3047(6) 0.2628(7)
O10_4 O 0.1491(10) 0.4564(6) 0.1398(4)
C10_4 C 0.4980(13) 0.2424(6) 0.2394(7)
H20_4 H 0.4538 0.2311 0.2055
C11_4 C 0.4928(13) 0.1854(6) 0.2790(6)
H21_4 H 0.4142 0.1810 0.2927
H22_4 H 0.5419 0.1942 0.3114
C12_4 C 0.5300(12) 0.1220(6) 0.2530(6)
O13_4 O 0.4876(10) 0.3564(4) 0.2444(5)
O14_4 O 0.3675(10) 0.2983(4) 0.2986(4)
O17_4 O 0.6127(11) 0.4675(6) 0.2815(6)
O18_4 O 0.5733(10) 0.4473(5) 0.1591(5)
O21_4 O 0.4315(13) 0.3577(6) 0.4011(6)
O22_4 O 0.0531(11) 0.3654(6) 0.3983(6)
O23_4 O 0.2311(12) 0.2718(6) 0.3968(5)
O24_4 O 0.0746(12) 0.5944(7) 0.3923(6)
O25_4 O 0.2893(11) 0.6766(5) 0.3875(6)
O26_4 O 0.4549(11) 0.5816(5) 0.4020(5)
H25_4 H 0.61898 0.487383 0.154674
H26_4 H 0.62512 0.411914 0.171383
H28_4 H 0.0498137 0.322922 0.417318
H29_3 H 0.504542 0.61458 0.383815
H30_4 H 0.434945 0.595607 0.44089
H31_4 H 0.225593 0.705242 0.374962
H32_4 H 0.287305 0.672401 0.429267
H33_4 H 0.0231721 0.556194 0.391999
H34_4 H 0.0904946 0.60725 0.431938
H35_4 H 0.422563 0.371853 0.440914
H36_4 H 0.450612 0.311204 0.400172
H37_4 H 0.600728 0.462291 0.322778
H38_4 H 0.662426 0.432124 0.267283
H41_4 H 0.164009 0.247323 0.381877
H42_4 H 0.303267 0.247095 0.390055
H7_4 H 0.1402 0.4154 0.9938
C8_4 C 0.2492(13) 0.5241(5) 0.9650(5)
N1_4 N 0.8991(11) 0.6812(6) 0.2060(6)
H2_4 H 0.8692 0.7163 0.1902
H3_4 H 0.8530 0.6679 0.2338
H4_4 H 0.9053 0.6504 0.1801
H12_4 H 0.9570 0.7414 0.3001
C4_4 C 0.9648(10) 0.8160(6) 0.2442(6)
O19_3 O 0.9199(10) 0.4851(6) 0.1692(5)
O20_3 O 0.9007(11) 0.4730(6) 0.2917(6)
H23_4 H 0.866055 0.51665 0.291446
H24_3 H 0.845008 0.441864 0.275265
H27_3 H 0.989043 0.36869 0.37051
H39_3 H 0.947649 0.480165 0.129746
H40_3 H 0.861062 0.451631 0.17743
O19_4 O 0.0801(10) 0.9851(6) 0.3308(5)
O20_4 O 0.0993(11) 0.9730(6) 0.2083(6)
H24_4 H 0.154992 0.941864 0.224735
H27_4 H 0.0109575 0.86869 0.12949
H39_4 H 0.0523511 0.980165 0.370254
H40_4 H 0.138938 0.951631 0.32257
H29_4 H 0.00454234 0.88542 0.616185
Cl1 Cl 0.2460(4) 0.12871(19) 0.15485(16)
O33 O 0.3326(14) 0.1538(9) 0.1183(8)
O34 O 0.1411(11) 0.1535(9) 0.1409(9)
O35 O 0.2765(18) 0.1443(12) 0.2102(6)
O36 O 0.247(2) 0.0617(6) 0.1483(9)
Cl1_2 Cl 0.2540(4) 0.87129(19) 0.65485(16)
O33_2 O 0.1674(14) 0.8462(9) 0.6183(8)
O34_2 O 0.3589(11) 0.8465(9) 0.6409(9)
O35_2 O 0.2235(18) 0.8557(12) 0.7102(6)
O36_2 O 0.253(2) 0.9383(6) 0.6483(9)
Cl1_3 Cl 0.7460(4) 0.37129(19) 0.84515(16)
O33_3 O 0.8326(14) 0.3462(9) 0.8817(8)
O34_3 O 0.6411(11) 0.3465(9) 0.8591(9)
O35_3 O 0.7765(18) 0.3557(12) 0.7898(6)
O36_3 O 0.747(2) 0.4383(6) 0.8517(9)
Cl1_4 Cl 0.7540(4) 0.62871(19) 0.34515(16)
O33_4 O 0.6674(14) 0.6538(9) 0.3817(8)
O34_4 O 0.8589(11) 0.6535(9) 0.3591(9)
O35_4 O 0.7235(18) 0.6443(12) 0.2898(6)
O36_4 O 0.753(2) 0.5617(6) 0.3517(9)
Cl2 Cl 0.5110(6) 0.7865(3) 0.4497(3)
O37 O 0.6299(13) 0.7971(10) 0.4522(10)
O38 O 0.465(2) 0.8127(10) 0.4003(8)
O39 O 0.4886(19) 0.7198(7) 0.4509(10)
O40 O 0.4575(19) 0.8149(10) 0.4972(8)
O38_2 O 0.035(2) 0.1873(10) 0.9003(8)
O39_2 O 0.0114(19) 0.2802(7) 0.9509(10)
O40_2 O 0.0425(19) 0.1851(10) 0.9972(8)
Cl2_2 Cl 0.9890(6) 0.2135(3) 0.9497(3)
O37_2 O 0.8701(13) 0.2029(10) 0.9522(10)
Cl2_3 Cl 0.0110(6) 0.7135(3) 0.5503(3)
O37_3 O 0.1299(13) 0.7029(10) 0.5478(10)
O38_3 O 0.965(2) 0.6873(10) 0.5997(8)
O39_3 O 0.9886(19) 0.7802(7) 0.5491(10)
O40_3 O 0.9575(19) 0.6851(10) 0.5028(8)
Cl2_4 Cl 0.4890(6) 0.2865(3) 0.0503(3)
O37_4 O 0.3701(13) 0.2971(10) 0.0478(10)
O38_4 O 0.535(2) 0.3127(10) 0.0997(8)
O39_4 O 0.5114(19) 0.2198(7) 0.0491(10)
O40_4 O 0.5425(19) 0.3149(10) 0.0028(8)
Cl3 Cl 0.2528(4) 0.8200(2) 0.1386(2)
O41 O 0.2649(19) 0.8862(7) 0.1407(10)
O42 O 0.3588(14) 0.7904(10) 0.1347(10)
O43 O 0.1981(18) 0.7999(10) 0.1891(8)
O44 O 0.1829(17) 0.8029(10) 0.0936(8)
Cl3_2 Cl 0.2472(4) 0.1800(2) 0.6386(2)
O41_2 O 0.2351(19) 0.1138(7) 0.6407(10)
O42_2 O 0.1412(14) 0.2096(10) 0.6347(10)
O43_2 O 0.3019(18) 0.2001(10) 0.6891(8)
O44_2 O 0.3171(17) 0.1971(10) 0.5936(8)
Cl3_3 Cl 0.7528(4) 0.6800(2) 0.8614(2)
O41_3 O 0.7649(19) 0.6138(7) 0.8593(10)
O42_3 O 0.8588(14) 0.7096(10) 0.8653(10)
O43_3 O 0.6981(18) 0.7001(10) 0.8109(8)
O44_3 O 0.6829(17) 0.6971(10) 0.9064(8)
Cl3_4 Cl 0.7472(4) 0.3200(2) 0.3614(2)
O41_4 O 0.7351(19) 0.3862(7) 0.3593(10)
O42_4 O 0.6412(14) 0.2904(10) 0.3653(10)
O43_4 O 0.8019(18) 0.2999(10) 0.3109(8)
O44_4 O 0.8171(17) 0.3029(10) 0.4064(8)
Cl4 Cl 0.4727(6) 0.8507(3) 0.9470(3)
O45 O 0.3654 0.8749 0.9504(10)
O46 O 0.4691(14) 0.7843(7) 0.9463(11)
O47 O 0.521(2) 0.8700(14) 0.8951(7)
O48 O 0.5419 0.8714 0.9892(8)
Cl4_2 Cl 0.0273(6) 0.1493(3) 0.4470(3)
O45_2 O 0.1346 0.1251 0.4504(10)
O46_2 O 0.0309(14) 0.2157(7) 0.4463(11)
O47_2 O 0.979(2) 0.1300(14) 0.3951(7)
O48_2 O 0.9581 0.1286 0.4892(8)
O47_3 O 0.021(2) 0.6300(14) 0.1049(7)
O48_3 O 0.0419 0.6286 0.0108(8)
Cl4_3 Cl 0.9727(6) 0.6493(3) 0.0530(3)
O45_3 O 0.8654 0.6251 0.0496(10)
O46_3 O 0.9691(14) 0.7157(7) 0.0537(11)
Cl4_4 Cl 0.5273(6) 0.3507(3) 0.5530(3)
O45_4 O 0.6346 0.3749 0.5496(10)
O46_4 O 0.5309(14) 0.2843(7) 0.5537(11)
O47_4 O 0.479(2) 0.3700(14) 0.6049(7)
O48_4 O 0.4581 0.3714 0.5108(8)
O49 O 0.0147 0.0139 0.0390
O50 O 0.0918 0.0213 0.9502(3)
Cl5 Cl 0.0933(4) 0.9859(2) 0.0005(2)
O51 O 0.2049 0.9867 0.0238
O52 O 0.0596 0.9221 0.9907(4)
Cl5_2 Cl 0.4067(4) 0.0141(2) 0.5005(2)
O51_2 O 0.2951 0.0133 0.5238
O52_2 O 0.4404 0.0779 0.4907(4)
O49_2 O 0.4853 0.9861 0.5390
O50_2 O 0.4082 0.9787 0.4502(3)
O50_3 O 0.5918 0.4787 0.0498(3)
O52_3 O 0.5596 0.5779 0.0093(4)
Cl5_3 Cl 0.5933(4) 0.5141(2) 0.9995(2)
O49_3 O 0.5147 0.4861 0.9610
O51_3 O 0.7049 0.5133 0.9762
Cl5_4 Cl 0.9067(4) 0.4859(2) 0.4995(2)
O49_4 O 0.9853 0.5139 0.4610
O50_4 O 0.9082 0.5213 0.5498(3)
O51_4 O 0.7951 0.4867 0.4762
O52_4 O 0.9404 0.4221 0.5093(4)
loop_
_geom_bond_atom_site_label_1
_geom_bond_atom_site_label_2
_geom_bond_site_symmetry_1
_geom_bond_site_symmetry_2
N1 H2 1_555 1_555
H3 N1 1_555 1_555
H4 N1 1_555 1_555
O7 C4 1_555 1_555
O8 C4 1_555 1_555
Eu6 O8 1_555 1_555
Eu7 O7 1_555 1_555
Eu4 O1 1_555 1_555
O1 H1 1_555 1_555
C1 C2 1_555 1_555
H6 C2 1_555 1_555
C3 C2 1_555 1_555
H11 C3 1_555 1_555
O6 Eu4 1_555 1_555
H18 C7 1_555 1_555
H19 C7 1_555 1_555
C8 C7 1_555 1_555
O11 C8 1_555 1_555
O24 Eu4 1_555 1_555
O25 Eu4 1_555 1_555
O26 Eu4 1_555 1_555
Eu8 O11 1_555 1_555
O30 Eu4 1_555 1_555
O31 Eu4 1_555 1_555
C1 O5 1_555 1_555
C1 O6 1_555 1_555
O26 H29 1_555 1_555
O26 H30 1_555 1_555
O25 H31 1_555 1_555
O25 H32 1_555 1_555
O24 H33 1_555 1_555
O24 H34 1_555 1_555
Eu3 O2 1_555 1_555
O2 Eu2 1_555 1_555
H5 O2 1_555 1_555
N2 H7 1_555 1_555
H8 N2 1_555 1_555
H9 N2 1_555 1_555
O3 Eu1 1_555 1_555
H10 O3 1_555 1_555
N3 H13 1_555 1_555
H14 N3 1_555 1_555
H15 N3 1_555 1_555
O4 Eu1 1_555 1_555
H16 O4 1_555 1_555
C5 C6 1_555 1_555
C6 N2 1_555 1_555
H17 C6 1_555 1_555
O9 Eu1 1_555 1_555
C9 C10 1_555 1_555
O10 Eu2 1_555 1_555
C10 N3 1_555 1_555
H20 C10 1_555 1_555
C11 C10 1_555 1_555
H21 C11 1_555 1_555
H22 C11 1_555 1_555
C12 C11 1_555 1_555
O13 Eu1 1_555 1_555
O14 Eu3 1_555 1_555
O15 C12 1_555 1_555
O16 C12 1_555 1_555
O17 Eu1 1_555 1_555
O18 Eu1 1_555 1_555
O21 Eu3 1_555 1_555
O22 Eu3 1_555 1_555
O23 Eu3 1_555 1_555
Eu5 O16 1_555 1_555
Eu9 O12 1_555 1_555
Eu10 O15 1_555 1_555
O27 Eu3 1_555 1_555
O28 Eu2 1_555 1_555
O29 Eu3 1_555 1_555
Eu2 O3 1_555 1_555
Eu3 O3 1_555 1_555
Eu3 O4 1_555 1_555
C5 O9 1_555 1_555
C5 O10 1_555 1_555
C9 O13 1_555 1_555
C9 O14 1_555 1_555
O18 H25 1_555 1_555
O18 H26 1_555 1_555
O22 H28 1_555 1_555
O21 H35 1_555 1_555
O21 H36 1_555 1_555
O17 H37 1_555 1_555
O17 H38 1_555 1_555
O23 H41 1_555 1_555
O23 H42 1_555 1_555
N3_2 H13_2 1_555 1_555
H14_2 N3_2 1_555 1_555
H15_2 N3_2 1_555 1_555
O15_2 C12_2 1_555 1_555
O16_2 C12_2 1_555 1_555
Eu5_2 O16_2 1_555 1_555
Eu10_2 O15_2 1_555 1_555
O18_2 H25_2 1_555 1_555
O18_2 H26_2 1_555 1_555
O17_2 H37_2 1_555 1_555
O17_2 H38_2 1_555 1_555
Eu8 O2_2 1_555 1_555
O2_2 Eu2_2 1_555 1_555
H5_2 O2_2 1_555 1_555
H8_2 N2_2 1_555 1_555
H9_2 N2_2 1_555 1_555
O3_2 Eu1_2 1_555 1_555
H10_2 O3_2 1_555 1_555
O4_2 Eu1_2 1_555 1_555
H16_2 O4_2 1_555 1_555
C5_2 C6_2 1_555 1_555
C6_2 N2_2 1_555 1_555
H17_2 C6_2 1_555 1_555
O9_2 Eu1_2 1_555 1_555
C9_2 C10_2 1_555 1_555
O10_2 Eu2_2 1_555 1_555
H20_2 C10_2 1_555 1_555
C11_2 C10_2 1_555 1_555
H21_2 C11_2 1_555 1_555
O13_2 Eu1_2 1_555 1_555
O14_2 Eu8 1_555 1_555
O19 Eu2_2 1_555 1_555
O20 Eu2_2 1_555 1_555
O21_2 Eu8 1_555 1_555
O22_2 Eu8 1_555 1_555
O23_2 Eu8 1_555 1_555
O27_2 Eu8 1_555 1_555
O28_2 Eu2_2 1_555 1_555
Eu2_2 O3_2 1_555 1_555
Eu8 O3_2 1_555 1_555
Eu8 O4_2 1_555 1_555
C5_2 O9_2 1_555 1_555
C5_2 O10_2 1_555 1_555
C9_2 O13_2 1_555 1_555
C9_2 O14_2 1_555 1_555
O20 H24 1_555 1_555
O22_2 H27 1_555 1_555
O22_2 H28_2 1_555 1_555
O21_2 H35_2 1_555 1_555
O21_2 H36_2 1_555 1_555
O19 H39 1_555 1_555
O19 H40 1_555 1_555
O23_2 H41_2 1_555 1_555
O23_2 H42_2 1_555 1_555
O29 C8_2 1_555 1_555
Eu9 O1_2 1_555 1_555
O1_2 H1_2 1_555 1_555
N1_2 H2_2 1_555 1_555
H3_2 N1_2 1_555 1_555
H4_2 N1_2 1_555 1_555
C1_2 C2_2 1_555 1_555
C2_2 N1_2 1_555 1_555
H6_2 C2_2 1_555 1_555
C3_2 C2_2 1_555 1_555
H11_2 C3_2 1_555 1_555
H12_2 C3_2 1_555 1_555
C4_2 C3_2 1_555 1_555
O6_2 Eu9 1_555 1_555
O7_2 C4_2 1_555 1_555
H18_2 C7_2 1_555 1_555
H19_2 C7_2 1_555 1_555
O8_2 C4_2 1_555 1_555
O24_2 Eu9 1_555 1_555
O25_2 Eu9 1_555 1_555
O26_2 Eu9 1_555 1_555
Eu6_2 O8_2 1_555 1_555
Eu7_2 O7_2 1_555 1_555
O31_2 Eu9 1_555 1_555
C1_2 O5_2 1_555 1_555
C1_2 O6_2 1_555 1_555
O26_2 H30_2 1_555 1_555
O25_2 H31_2 1_555 1_555
O25_2 H32_2 1_555 1_555
O24_2 H33_2 1_555 1_555
O24_2 H34_2 1_555 1_555
Eu5_2 O1_3 1_555 1_555
Eu6_2 O1_3 1_555 1_555
Eu7_2 O2_3 1_555 1_555
Eu10_2 O1_3 1_555 1_555
O1_3 H1_3 1_555 1_555
N1_3 H2_3 1_555 1_555
H3_3 N1_3 1_555 1_555
H4_3 N1_3 1_555 1_555
C1_3 C2_3 1_555 1_555
O2_3 Eu6_2 1_555 1_555
H5_3 O2_3 1_555 1_555
C2_3 N1_3 1_555 1_555
H6_3 C2_3 1_555 1_555
N2_3 H7_3 1_555 1_555
H8_3 N2_3 1_555 1_555
H9_3 N2_3 1_555 1_555
O3_3 Eu5_2 1_555 1_555
H10_3 O3_3 1_555 1_555
C3_3 C2_3 1_555 1_555
H11_3 C3_3 1_555 1_555
H12_3 C3_3 1_555 1_555
O4_3 Eu5_2 1_555 1_555
H16_3 O4_3 1_555 1_555
C4_3 C3_3 1_555 1_555
O5_3 Eu6_2 1_555 1_555
C5_3 C6_3 1_555 1_555
C6_3 N2_3 1_555 1_555
H17_3 C6_3 1_555 1_555
O6_3 Eu10_2 1_555 1_555
O27_2 C4_3 1_555 1_555
C7_3 C6_3 1_555 1_555
H18_3 C7_3 1_555 1_555
H19_3 C7_3 1_555 1_555
O28_2 C4_3 1_555 1_555
C8_3 C7_3 1_555 1_555
O9_3 Eu5_2 1_555 1_555
C9_3 C10_3 1_555 1_555
O10_3 Eu6_2 1_555 1_555
H20_3 C10_3 1_555 1_555
O11_2 C8_3 1_555 1_555
C11_3 C10_3 1_555 1_555
H21_3 C11_3 1_555 1_555
O12_2 C8_3 1_555 1_555
O13_3 Eu5_2 1_555 1_555
O14_3 Eu7_2 1_555 1_555
O19_2 Eu6_2 1_555 1_555
O20_2 Eu6_2 1_555 1_555
O21_3 Eu7_2 1_555 1_555
O22_3 Eu7_2 1_555 1_555
O23_3 Eu7_2 1_555 1_555
O24_3 Eu10_2 1_555 1_555
O25_3 Eu10_2 1_555 1_555
O26_3 Eu10_2 1_555 1_555
Eu7 O11_2 1_555 1_555
Eu10 O12_2 1_555 1_555
O29_2 Eu7_2 1_555 1_555
O30_2 Eu10_2 1_555 1_555
Eu6_2 O3_3 1_555 1_555
Eu7_2 O3_3 1_555 1_555
Eu7_2 O4_3 1_555 1_555
Eu10_2 O2_3 1_555 1_555
Eu10_2 O4_3 1_555 1_555
C1_3 O5_3 1_555 1_555
C1_3 O6_3 1_555 1_555
C5_3 O9_3 1_555 1_555
C5_3 O10_3 1_555 1_555
C9_3 O13_3 1_555 1_555
C9_3 O14_3 1_555 1_555
O20_2 H23_3 1_555 1_555
O20_2 H24_2 1_555 1_555
O22_3 H27_2 1_555 1_555
O22_3 H28_3 1_555 1_555
O26_3 H30_3 1_555 1_555
O25_3 H31_3 1_555 1_555
O25_3 H32_3 1_555 1_555
O24_3 H33_3 1_555 1_555
O24_3 H34_3 1_555 1_555
O21_3 H35_3 1_555 1_555
O21_3 H36_3 1_555 1_555
O19_2 H39_2 1_555 1_555
O19_2 H40_2 1_555 1_555
O23_3 H41_3 1_555 1_555
O23_3 H42_3 1_555 1_555
N3_3 H13_3 1_555 1_555
H14_3 N3_3 1_555 1_555
H15_3 N3_3 1_555 1_555
O31_2 C12_3 1_555 1_555
O32_2 C12_3 1_555 1_555
O18_3 H25_3 1_555 1_555
O18_3 H26_3 1_555 1_555
O17_3 H37_3 1_555 1_555
O17_3 H38_3 1_555 1_555
Eu5 O1_4 1_555 1_555
Eu6 O1_4 1_555 1_555
Eu7 O2_4 1_555 1_555
Eu10 O1_4 1_555 1_555
O1_4 H1_4 1_555 1_555
C1_4 C2_4 1_555 1_555
O2_4 Eu6 1_555 1_555
H5_4 O2_4 1_555 1_555
H6_4 C2_4 1_555 1_555
H8_4 N2_4 1_555 1_555
H9_4 N2_4 1_555 1_555
O3_4 Eu5 1_555 1_555
H10_4 O3_4 1_555 1_555
C3_4 C2_4 1_555 1_555
H11_4 C3_4 1_555 1_555
N3_4 H13_4 1_555 1_555
H14_4 N3_4 1_555 1_555
H15_4 N3_4 1_555 1_555
O4_4 Eu5 1_555 1_555
H16_4 O4_4 1_555 1_555
O5_4 Eu6 1_555 1_555
C5_4 C6_4 1_555 1_555
C6_4 N2_4 1_555 1_555
H17_4 C6_4 1_555 1_555
O6_4 Eu10 1_555 1_555
C7_4 C6_4 1_555 1_555
H18_4 C7_4 1_555 1_555
H19_4 C7_4 1_555 1_555
O9_4 Eu5 1_555 1_555
C9_4 C10_4 1_555 1_555
O10_4 Eu6 1_555 1_555
C10_4 N3_4 1_555 1_555
H20_4 C10_4 1_555 1_555
C11_4 C10_4 1_555 1_555
H21_4 C11_4 1_555 1_555
H22_4 C11_4 1_555 1_555
C12_4 C11_4 1_555 1_555
O13_4 Eu5 1_555 1_555
O14_4 Eu7 1_555 1_555
O31 C12_4 1_555 1_555
O32 C12_4 1_555 1_555
O17_4 Eu5 1_555 1_555
O18_4 Eu5 1_555 1_555
O21_4 Eu7 1_555 1_555
O22_4 Eu7 1_555 1_555
O23_4 Eu7 1_555 1_555
O24_4 Eu10 1_555 1_555
O25_4 Eu10 1_555 1_555
O26_4 Eu10 1_555 1_555
Eu6 O3_4 1_555 1_555
Eu7 O3_4 1_555 1_555
Eu7 O4_4 1_555 1_555
Eu10 O2_4 1_555 1_555
Eu10 O4_4 1_555 1_555
C1_4 O5_4 1_555 1_555
C1_4 O6_4 1_555 1_555
C5_4 O9_4 1_555 1_555
C5_4 O10_4 1_555 1_555
C9_4 O13_4 1_555 1_555
C9_4 O14_4 1_555 1_555
O18_4 H25_4 1_555 1_555
O18_4 H26_4 1_555 1_555
O22_4 H28_4 1_555 1_555
O26_4 H29_3 1_555 1_555
O26_4 H30_4 1_555 1_555
O25_4 H31_4 1_555 1_555
O25_4 H32_4 1_555 1_555
O24_4 H33_4 1_555 1_555
O24_4 H34_4 1_555 1_555
O21_4 H35_4 1_555 1_555
O21_4 H36_4 1_555 1_555
O17_4 H37_4 1_555 1_555
O17_4 H38_4 1_555 1_555
O23_4 H41_4 1_555 1_555
O23_4 H42_4 1_555 1_555
O29_2 C8_4 1_555 1_555
O30_2 C8_4 1_555 1_555
N1_4 H2_4 1_555 1_555
H3_4 N1_4 1_555 1_555
H4_4 N1_4 1_555 1_555
O27 C4_4 1_555 1_555
O28 C4_4 1_555 1_555
O20_3 H23_4 1_555 1_555
O20_3 H24_3 1_555 1_555
O19_3 H39_3 1_555 1_555
O19_3 H40_3 1_555 1_555
O20_4 H24_4 1_555 1_555
O19_4 H39_4 1_555 1_555
O19_4 H40_4 1_555 1_555
Cl1 O33 1_555 1_555
O34 Cl1 1_555 1_555
O35 Cl1 1_555 1_555
O36 Cl1 1_555 1_555
Cl1_2 O33_2 1_555 1_555
O34_2 Cl1_2 1_555 1_555
O35_2 Cl1_2 1_555 1_555
O36_2 Cl1_2 1_555 1_555
Cl1_3 O33_3 1_555 1_555
O34_3 Cl1_3 1_555 1_555
O35_3 Cl1_3 1_555 1_555
O36_3 Cl1_3 1_555 1_555
Cl1_4 O33_4 1_555 1_555
O34_4 Cl1_4 1_555 1_555
O35_4 Cl1_4 1_555 1_555
O36_4 Cl1_4 1_555 1_555
Cl2 O37 1_555 1_555
O38 Cl2 1_555 1_555
O39 Cl2 1_555 1_555
O40 Cl2 1_555 1_555
Cl2_2 O37_2 1_555 1_555
Cl2_3 O37_3 1_555 1_555
Cl2_4 O37_4 1_555 1_555
O38_4 Cl2_4 1_555 1_555
O39_4 Cl2_4 1_555 1_555
O40_4 Cl2_4 1_555 1_555
Cl3 O41 1_555 1_555
O42 Cl3 1_555 1_555
O43 Cl3 1_555 1_555
O44 Cl3 1_555 1_555
Cl3_2 O41_2 1_555 1_555
O42_2 Cl3_2 1_555 1_555
O43_2 Cl3_2 1_555 1_555
O44_2 Cl3_2 1_555 1_555
Cl3_3 O41_3 1_555 1_555
O42_3 Cl3_3 1_555 1_555
O43_3 Cl3_3 1_555 1_555
O44_3 Cl3_3 1_555 1_555
Cl3_4 O41_4 1_555 1_555
O42_4 Cl3_4 1_555 1_555
O43_4 Cl3_4 1_555 1_555
O44_4 Cl3_4 1_555 1_555
Cl4 O45 1_555 1_555
O46 Cl4 1_555 1_555
O47 Cl4 1_555 1_555
O48 Cl4 1_555 1_555
Cl4_2 O45_2 1_555 1_555
O46_2 Cl4_2 1_555 1_555
Cl4_3 O45_3 1_555 1_555
O46_3 Cl4_3 1_555 1_555
Cl4_4 O45_4 1_555 1_555
O46_4 Cl4_4 1_555 1_555
O47_4 Cl4_4 1_555 1_555
O48_4 Cl4_4 1_555 1_555
O51 Cl5 1_555 1_555
O51_2 Cl5_2 1_555 1_555
O52_2 Cl5_2 1_555 1_555
Cl5_3 O49_3 1_555 1_555
O51_3 Cl5_3 1_555 1_555
Cl5_4 O49_4 1_555 1_555
O50_4 Cl5_4 1_555 1_555
O51_4 Cl5_4 1_555 1_555
O52_4 Cl5_4 1_555 1_555

#END
