
###############################################################################
#
# This file contains modified crystal structure data generated from the
# MOF subset of the Cambridge Structural Database (CSD) v543 
# hosted by the Cambridge Crystallographic Data Centre (CCDC).
#
# This work is licensed under the Creative Commons
# Attribution-NonCommercial-ShareAlike 4.0 International License.
# To view a copy of this license, visit
# http://creativecommons.org/licenses/by-nc-sa/4.0/
# or send a letter to
# Creative Commons, PO Box 1866, Mountain View, CA 94042, USA.
#
# CIF created using the CSD Python API on 29 September 2022
# The structure has been converted into the P1 space group
# The structure has a 3D framework
# The original CSD entry VARWES is in the orthorhombic crystal system
# The original CSD entry VARWES is in a Sohncke space group
# The framework has been calculated to contain at least 10.0% void space
# The void calculation uses a probe of radius 1.32A, grid spacing 0.4
# The framework is charged, counterions have been retained in the structure
# H atom positions have been added when not included in the experimental data
#
###############################################################################

data_VARWES
_chemical_formula_moiety         '(C48 H168 Cl20 N12 Nd16 O184)n'
_symmetry_cell_setting           triclinic
_symmetry_space_group_name_H-M   'P 1'
_symmetry_Int_Tables_number      1
_space_group_name_Hall           'P 1'
loop_
_symmetry_equiv_pos_site_id
_symmetry_equiv_pos_as_xyz
1 x,y,z
_cell_length_a                   11.5675(4)
_cell_length_b                   20.9240(7)
_cell_length_c                   23.7993(8)
_cell_angle_alpha                90
_cell_angle_beta                 90
_cell_angle_gamma                90
_cell_volume                     5760.34
loop_
_atom_site_label
_atom_site_type_symbol
_atom_site_fract_x
_atom_site_fract_y
_atom_site_fract_z
N2 N 0.1021(7) 0.1807(3) 0.2932(3)
H4 H 0.0972 0.1474 0.3163
H5 H 0.1297 0.2143 0.3119
H6 H 0.1494 0.1713 0.2649
H14 H 0.0446 0.2433 0.2006
C8 C 0.0313(6) 0.3151(3) 0.2572(3)
O11 O 0.0012(5) 0.3662(3) 0.2351(3)
O12 O 0.0979(5) 0.3113(3) 0.2989(2)
Nd8 Nd 0.24365(3) 0.376195(15) 0.349515(12)
Nd10 Nd 0.08007(3) 0.473647(17) 0.234178(15)
H27 H 0.137938 0.015907 0.204483
C1 C 0.5278(6) 0.1218(4) 0.2540(3)
N1 N 0.6195(8) 0.2530(4) 0.2225(5)
H1 H 0.6499 0.2170 0.2091
H2 H 0.6606 0.2663 0.2519
H3 H 0.6206 0.2828 0.1958
C2 C 0.4911(7) 0.1860(4) 0.2792(3)
H7 H 0.4123 0.1821 0.2927
H8 H 0.5399 0.1950 0.3114
C3 C 0.4970(7) 0.2410(4) 0.2404(4)
H9 H 0.4524 0.2300 0.2068
H10 H 0.6354 0.0830 0.0068
Nd4 Nd 0.73431(3) 0.067762(15) 0.155988(13)
C4 C 0.4484(7) 0.3034(3) 0.2638(3)
C5 C 0.9333(7) 0.1368(3) 0.2421(3)
C6 C 0.9837(7) 0.1964(3) 0.2704(3)
H13 H 0.9336 0.2080 0.3020
C7 C 0.9918(7) 0.2539(3) 0.2308(4)
H15 H 0.9163 0.2610 0.2142
O1 O 0.7425(4) 0.03327(18) 0.25616(17)
H19 H 0.7399 0.0698 0.2819
O5 O 0.4992(4) 0.0726(3) 0.2794(3)
O6 O 0.5810(5) 0.1235(3) 0.2082(2)
O7 O 0.4891(5) 0.3544(3) 0.2458(3)
O8 O 0.3688(6) 0.2976(3) 0.2989(3)
O9 O 0.8494(6) 0.1459(3) 0.2109(2)
O10 O 0.9786(6) 0.0847(3) 0.2537(3)
O13 O 0.7450(6) 0.0261(2) 0.06163(19)
O24 O 0.5434(5) 0.0829(3) 0.0960(3)
O25 O 0.7118(6) 0.1800(3) 0.1126(3)
O26 O 0.9245(6) 0.0962(4) 0.1051(3)
Nd6 Nd 0.42159(3) 0.463605(16) 0.231017(15)
H35 H 0.976461 0.0584239 0.105022
H36 H 0.907306 0.108951 0.0657887
H37 H 0.777122 0.207481 0.124812
H38 H 0.71186 0.176561 0.0709858
H41 H 0.493703 0.115758 0.11397
H42 H 0.564035 0.0968923 0.057413
N3 N 0.6341(7) 0.0813(4) 0.9694(3)
H11 H 0.5733 0.0586 0.9583
H12 H 0.6293 0.1207 0.9556
C11 C 0.7435(8) 0.0500(3) 0.9486(2)
H18 H 0.8111 0.0742 0.9613
C12 C 0.7411(8) 0.0471(3) 0.8846(3)
O15 O 0.8393(5) 0.0417(3) 0.8615(2)
O16 O 0.6458(5) 0.0464(4) 0.8611(2)
Nd5 Nd 0.92159(3) 0.036395(16) 0.768983(15)
Nd9 Nd 0.58007(3) 0.026353(17) 0.765822(15)
Nd1 Nd 0.57841(3) 0.963605(16) 0.268983(15)
Nd2 Nd 0.75635(3) 0.876195(15) 0.150485(12)
Nd3 Nd 0.91993(3) 0.973647(17) 0.265822(15)
C9 C 0.7501(7) 0.9756(3) 0.0334(3)
O2 O 0.7536(5) 0.90470(19) 0.25040(16)
H20 H 0.7581 0.8664 0.2740
O3 O 0.8638(4) 0.9758(2) 0.16824(19)
H21 H 0.9315 0.9791 0.1437
O4 O 0.6239(4) 0.9681(2) 0.16978(19)
H22 H 0.5543 0.9666 0.1463
O14 O 0.7574(6) 0.9201(2) 0.0534(2)
O17 O 0.3830(6) 0.9671(3) 0.2197(3)
O18 O 0.4215(6) 0.9457(3) 0.3437(3)
O19 O 0.7668(7) 0.7694(3) 0.1019(3)
O20 O 0.5657(6) 0.8563(3) 0.0974(3)
O21 O 0.9503(6) 0.8635(3) 0.0985(3)
O27 O 0.5109(5) 0.8544(3) 0.2542(3)
O28 O 0.6312(6) 0.7976(3) 0.2011(3)
O29 O 0.9988(5) 0.8662(3) 0.2649(3)
O30 O 0.9021(5) 0.8113(3) 0.2011(2)
O31 O 0.6607(5) 0.9583(3) 0.3615(2)
O32 O 0.8542(5) 0.9536(4) 0.3611(2)
H23 H 0.376174 0.985601 0.348692
H24 H 0.369259 0.91074 0.331395
H25 H 0.699198 0.743015 0.112997
H26 H 0.766146 0.775875 0.0605675
H29 H 0.39432 0.961846 0.178599
H30 H 0.333366 0.931992 0.234058
H31 H 0.996452 0.829247 0.116688
H32 H 0.935494 0.851961 0.0586731
H33 H 0.517333 0.895478 0.0987348
H34 H 0.582852 0.845361 0.0576648
C2_2 C 0.0089(7) 0.8140(4) 0.7792(3)
H7_2 H 0.0877 0.8179 0.7927
C3_2 C 0.0030(7) 0.7590(4) 0.7404(4)
H9_2 H 0.0476 0.7700 0.7068
C4_2 C 0.0516(7) 0.6966(3) 0.7638(3)
O5_2 O 0.0008(4) 0.9274(3) 0.7794(3)
O7_2 O 0.0109(5) 0.6456(3) 0.7458(3)
O8_2 O 0.1312(6) 0.7024(3) 0.7989(3)
Nd6_2 Nd 0.07841(3) 0.536395(16) 0.731017(15)
Nd7 Nd 0.25635(3) 0.623805(15) 0.849515(12)
H41_2 H 0.00629693 0.884242 0.61397
Nd2_2 Nd 0.74365(3) 0.123805(15) 0.650485(12)
C9_2 C 0.7499(7) 0.0244(3) 0.5334(3)
C10 C 0.7500(9) 0.0178(4) 0.4700(3)
H16 H 0.6803 0.0374 0.4553
H17 H 0.8153 0.0414 0.4551
O2_2 O 0.7464(5) 0.09530(19) 0.75040(16)
H20_2 H 0.7419 0.1336 0.7740
O3_2 O 0.6362(4) 0.0242(2) 0.66824(19)
H21_2 H 0.5685 0.0209 0.6437
O4_2 O 0.8761(4) 0.0319(2) 0.66978(19)
H22_2 H 0.9457 0.0334 0.6463
O14_2 O 0.7426(6) 0.0799(2) 0.5534(2)
O19_2 O 0.7332(7) 0.2306(3) 0.6019(3)
O20_2 O 0.9343(6) 0.1437(3) 0.5974(3)
O21_2 O 0.5497(6) 0.1365(3) 0.5985(3)
O22 O 0.3963(5) 0.0276(4) 0.7054(3)
O23 O 0.4109(6) 0.0141(3) 0.8311(3)
O27_2 O 0.9891(5) 0.1456(3) 0.7542(3)
O28_2 O 0.8688(6) 0.2024(3) 0.7011(3)
O29_2 O 0.5012(5) 0.1338(3) 0.7649(3)
O30_2 O 0.5979(5) 0.1887(3) 0.7011(2)
H25_2 H 0.800802 0.256985 0.612997
H26_2 H 0.733854 0.224125 0.560567
H28 H 0.339667 0.0580304 0.721753
H31_2 H 0.503548 0.170753 0.616688
H32_2 H 0.564506 0.148039 0.558673
H33_2 H 0.982667 0.104522 0.598735
H34_2 H 0.917148 0.154639 0.557665
H39 H 0.437616 0.0184253 0.870569
H40 H 0.352732 0.0477169 0.822851
C1_2 C 0.9722(6) 0.8782(4) 0.7540(3)
N1_2 N 0.8805(8) 0.7470(4) 0.7225(5)
H1_2 H 0.8501 0.7830 0.7091
H2_2 H 0.8394 0.7337 0.7519
H3_2 H 0.8794 0.7172 0.6958
N2_2 N 0.3979(7) 0.8193(3) 0.7932(3)
H4_2 H 0.4028 0.8526 0.8163
H5_2 H 0.3703 0.7857 0.8119
H6_2 H 0.3506 0.8287 0.7649
H8_2 H 0.9601 0.8050 0.8114
N3_2 N 0.8659(7) 0.9187(4) 0.4694(3)
H10_2 H 0.8646 0.9170 0.5068
H11_2 H 0.9267 0.9414 0.4583
H12_2 H 0.8707 0.8793 0.4556
Nd4_2 Nd 0.76569(3) 0.932238(15) 0.655988(13)
C5_2 C 0.5667(7) 0.8632(3) 0.7421(3)
C6_2 C 0.5163(7) 0.8036(3) 0.7704(3)
H13_2 H 0.5664 0.7920 0.8020
C7_2 C 0.5082(7) 0.7461(3) 0.7308(4)
H14_2 H 0.4554 0.7567 0.7006
H15_2 H 0.5837 0.7390 0.7142
C8_2 C 0.4687(6) 0.6849(3) 0.7572(3)
C11_2 C 0.7565(8) 0.9500(3) 0.4486(2)
H18_2 H 0.6889 0.9258 0.4613
C12_2 C 0.7589(8) 0.9529(3) 0.3846(3)
O1_2 O 0.7575(4) 0.96673(18) 0.75616(17)
H19_2 H 0.7601 0.9302 0.7819
O6_2 O 0.9190(5) 0.8765(3) 0.7082(2)
O9_2 O 0.6506(6) 0.8541(3) 0.7109(2)
O10_2 O 0.5214(6) 0.9153(3) 0.7537(3)
O11_2 O 0.4988(5) 0.6338(3) 0.7351(3)
O12_2 O 0.4021(5) 0.6887(3) 0.7989(2)
O13_2 O 0.7550(6) 0.9739(2) 0.56163(19)
O24_2 O 0.9566(5) 0.9171(3) 0.5960(3)
O25_2 O 0.7882(6) 0.8200(3) 0.6126(3)
O26_2 O 0.5755(6) 0.9038(4) 0.6051(3)
Nd10_2 Nd 0.41993(3) 0.526353(17) 0.734178(15)
H27_2 H 0.362062 0.984093 0.704483
H35_2 H 0.523539 0.941576 0.605022
H36_2 H 0.592694 0.891049 0.565789
H37_2 H 0.722878 0.792519 0.624812
H38_2 H 0.78814 0.823439 0.570986
H42_2 H 0.935965 0.903108 0.557413
N3_3 N 0.1341(7) 0.4187(4) 0.0306(3)
H11_3 H 0.0733 0.4414 0.0417
H12_3 H 0.1293 0.3793 0.0444
C10_2 C 0.2500(9) 0.5178(4) 0.0300(3)
H16_2 H 0.3197 0.5374 0.0447
H17_2 H 0.1847 0.5414 0.0449
C11_3 C 0.2435(8) 0.4500(3) 0.0514(2)
H18_3 H 0.3111 0.4258 0.0387
C12_3 C 0.2411(8) 0.4529(3) 0.1154(3)
O15_2 O 0.3393(5) 0.4583(3) 0.1385(2)
O16_2 O 0.1458(5) 0.4536(4) 0.1389(2)
C1_3 C 0.0278(6) 0.3782(4) 0.7460(3)
N1_3 N 0.1195(8) 0.2470(4) 0.7775(5)
H1_3 H 0.1499 0.2830 0.7909
H2_3 H 0.1606 0.2337 0.7481
H3_3 H 0.1206 0.2172 0.8042
N2_3 N 0.6021(7) 0.3193(3) 0.7068(3)
H4_3 H 0.5972 0.3526 0.6837
H5_3 H 0.6297 0.2857 0.6881
H6_3 H 0.6494 0.3287 0.7351
H8_3 H 0.0399 0.3050 0.6886
H10_3 H 0.1354 0.4170 0.9932
Nd4_3 Nd 0.23431(3) 0.432238(15) 0.844012(13)
C5_3 C 0.4333(7) 0.3632(3) 0.7579(3)
C6_3 C 0.4837(7) 0.3036(3) 0.7296(3)
H13_3 H 0.4336 0.2920 0.6980
C7_3 C 0.4918(7) 0.2461(3) 0.7692(4)
H14_3 H 0.5446 0.2567 0.7994
H15_3 H 0.4163 0.2390 0.7858
C8_3 C 0.5313(6) 0.1849(3) 0.7428(3)
C9_3 C 0.2501(7) 0.5244(3) 0.9666(3)
O1_3 O 0.2425(4) 0.46673(18) 0.74384(17)
H19_3 H 0.2399 0.4302 0.7181
O2_3 O 0.2536(5) 0.59530(19) 0.74960(16)
H20_3 H 0.2581 0.6336 0.7260
O3_3 O 0.3638(4) 0.5242(2) 0.83176(19)
H21_3 H 0.4315 0.5209 0.8563
O4_3 O 0.1239(4) 0.5319(2) 0.83022(19)
H22_3 H 0.0543 0.5334 0.8537
O6_3 O 0.0810(5) 0.3765(3) 0.7918(2)
O9_3 O 0.3494(6) 0.3541(3) 0.7891(2)
O10_3 O 0.4786(6) 0.4153(3) 0.7463(3)
O13_3 O 0.2450(6) 0.4739(2) 0.93837(19)
O14_3 O 0.2574(6) 0.5799(2) 0.9466(2)
O19_3 O 0.2668(7) 0.7306(3) 0.8981(3)
O20_3 O 0.0657(6) 0.6437(3) 0.9026(3)
O21_3 O 0.4503(6) 0.6365(3) 0.9015(3)
O22_2 O 0.6037(5) 0.5276(4) 0.7946(3)
O23_2 O 0.5891(6) 0.5141(3) 0.6689(3)
O24_3 O 0.0434(5) 0.4171(3) 0.9040(3)
O25_3 O 0.2118(6) 0.3200(3) 0.8874(3)
O26_3 O 0.4245(6) 0.4038(4) 0.8949(3)
O31_2 O 0.1607(5) 0.5417(3) 0.6385(2)
O32_2 O 0.3542(5) 0.5464(4) 0.6389(2)
H25_3 H 0.199198 0.756985 0.887003
H26_3 H 0.266146 0.724125 0.939433
H27_3 H 0.637938 0.484093 0.795517
H28_2 H 0.660333 0.55803 0.778247
H31_3 H 0.496452 0.670753 0.883312
H32_3 H 0.435494 0.648039 0.941327
H33_3 H 0.0173327 0.604522 0.901265
H34_3 H 0.082852 0.654639 0.942335
H35_3 H 0.476461 0.441576 0.894978
H36_3 H 0.407306 0.391049 0.934211
H37_3 H 0.277122 0.292519 0.875188
H38_3 H 0.21186 0.323439 0.929014
H39_2 H 0.562384 0.518425 0.629431
H40_2 H 0.647268 0.547717 0.677149
H42_3 H 0.064035 0.403108 0.942587
C2_3 C 0.9911(7) 0.3140(4) 0.7208(3)
H7_3 H 0.9123 0.3179 0.7073
C3_3 C 0.9970(7) 0.2590(4) 0.7596(4)
H9_3 H 0.9524 0.2700 0.7932
C4_3 C 0.9484(7) 0.1966(3) 0.7362(3)
O5_3 O 0.9992(4) 0.4274(3) 0.7206(3)
O17_2 O 0.8830(6) 0.5329(3) 0.7803(3)
O18_2 O 0.9215(6) 0.5543(3) 0.6563(3)
H23_2 H 0.876174 0.514399 0.651308
H24_2 H 0.869259 0.58926 0.668605
H29_2 H 0.89432 0.538154 0.821401
H30_2 H 0.833366 0.568008 0.765942
H41_3 H 0.993703 0.384242 0.88603
C1_4 C 0.4722(6) 0.6218(4) 0.2460(3)
N1_4 N 0.3805(8) 0.7530(4) 0.2775(5)
H1_4 H 0.3501 0.7170 0.2909
H2_4 H 0.3394 0.7663 0.2481
H3_4 H 0.3794 0.7828 0.3042
C2_4 C 0.5089(7) 0.6860(4) 0.2208(3)
H7_4 H 0.5877 0.6821 0.2073
H8_4 H 0.4601 0.6950 0.1886
C3_4 C 0.5030(7) 0.7410(4) 0.2596(4)
H9_4 H 0.5476 0.7300 0.2932
N3_4 N 0.3659(7) 0.5813(4) 0.5306(3)
H10_4 H 0.3646 0.5830 0.4932
H11_4 H 0.4267 0.5586 0.5417
H12_4 H 0.3707 0.6207 0.5444
Nd4_4 Nd 0.26569(3) 0.567762(15) 0.344012(13)
C4_4 C 0.5516(7) 0.8034(3) 0.2362(3)
C5_4 C 0.0667(7) 0.6368(3) 0.2579(3)
C6_4 C 0.0163(7) 0.6964(3) 0.2296(3)
H13_4 H 0.0664 0.7080 0.1980
C7_4 C 0.0082(7) 0.7539(3) 0.2692(4)
H15_4 H 0.0837 0.7610 0.2858
C9_4 C 0.2499(7) 0.4756(3) 0.4666(3)
C10_3 C 0.2500(9) 0.4822(4) 0.5300(3)
H16_3 H 0.1803 0.4626 0.5447
H17_3 H 0.3153 0.4586 0.5449
C11_4 C 0.2565(8) 0.5500(3) 0.5514(2)
H18_4 H 0.1889 0.5742 0.5387
C12_4 C 0.2589(8) 0.5471(3) 0.6154(3)
O1_4 O 0.2575(4) 0.53327(18) 0.24384(17)
H19_4 H 0.2601 0.5698 0.2181
O2_4 O 0.2464(5) 0.40470(19) 0.24960(16)
H20_4 H 0.2419 0.3664 0.2260
O3_4 O 0.1362(4) 0.4758(2) 0.33176(19)
H21_4 H 0.0685 0.4791 0.3563
O4_4 O 0.3761(4) 0.4681(2) 0.33022(19)
H22_4 H 0.4457 0.4666 0.3537
O5_4 O 0.5008(4) 0.5726(3) 0.2206(3)
O6_4 O 0.4190(5) 0.6235(3) 0.2918(2)
O9_4 O 0.1506(6) 0.6459(3) 0.2891(2)
O10_4 O 0.0214(6) 0.5847(3) 0.2463(3)
O13_4 O 0.2550(6) 0.5261(2) 0.43837(19)
O14_4 O 0.2426(6) 0.4201(2) 0.4466(2)
O17_3 O 0.6170(6) 0.4671(3) 0.2803(3)
O18_3 O 0.5785(6) 0.4457(3) 0.1563(3)
O19_4 O 0.2332(7) 0.2694(3) 0.3981(3)
O20_4 O 0.4343(6) 0.3563(3) 0.4026(3)
O21_4 O 0.0497(6) 0.3635(3) 0.4015(3)
O24_4 O 0.4566(5) 0.5829(3) 0.4040(3)
O25_4 O 0.2882(6) 0.6800(3) 0.3874(3)
O26_4 O 0.0755(6) 0.5962(4) 0.3949(3)
H23_3 H 0.623826 0.485601 0.151308
H24_3 H 0.630741 0.41074 0.168605
H25_4 H 0.300802 0.243015 0.387003
H26_4 H 0.233854 0.275875 0.439433
H29_3 H 0.60568 0.461846 0.321401
H30_3 H 0.666634 0.431992 0.265942
H31_4 H 0.00354766 0.329247 0.383312
H32_4 H 0.0645059 0.351961 0.441327
H33_4 H 0.482667 0.395478 0.401265
H34_4 H 0.417148 0.345361 0.442335
H35_4 H 0.023539 0.558424 0.394978
H36_4 H 0.0926939 0.608951 0.434211
H37_4 H 0.222878 0.707481 0.375188
H38_4 H 0.28814 0.676561 0.429014
H41_4 H 0.506297 0.615758 0.38603
H42_4 H 0.435965 0.596892 0.442587
N2_4 N 0.8979(7) 0.6807(3) 0.2068(3)
H4_4 H 0.9028 0.6474 0.1837
H5_4 H 0.8703 0.7143 0.1881
H6_4 H 0.8506 0.6713 0.2351
H14_4 H 0.9554 0.7433 0.2994
C8_4 C 0.9687(6) 0.8151(3) 0.2428(3)
O22_3 O 0.8963(5) 0.4724(4) 0.2946(3)
O23_3 O 0.9109(6) 0.4859(3) 0.1689(3)
H27_4 H 0.862062 0.515907 0.295517
H28_3 H 0.839667 0.44197 0.278247
H39_3 H 0.937616 0.481575 0.129431
H40_3 H 0.852732 0.452283 0.177149
O22_4 O 0.1037(5) 0.9724(4) 0.2054(3)
O23_4 O 0.0891(6) 0.9859(3) 0.3311(3)
H28_4 H 0.160333 0.94197 0.221753
H39_4 H 0.0623839 0.981575 0.370569
H40_4 H 0.147268 0.952283 0.322851
C10_4 C 0.7500(9) 0.9822(4) 0.9700(3)
H16_4 H 0.8197 0.9626 0.9553
H17_4 H 0.6847 0.9586 0.9551
O17_4 O 0.1170(6) 0.0329(3) 0.7197(3)
O18_4 O 0.0785(6) 0.0543(3) 0.8437(3)
H23_4 H 0.123826 0.0143992 0.848692
H24_4 H 0.130741 0.0892605 0.831395
H29_4 H 0.10568 0.0381541 0.678599
H30_4 H 0.166634 0.068008 0.734058
Cl1 Cl 0.5123(4) 0.78781(17) 0.44979(16)
O33 O 0.4878(14) 0.8127(7) 0.3972(5)
O34 O 0.4853(14) 0.7227(5) 0.4513(7)
O35 O 0.6310(9) 0.7965(7) 0.4569(7)
O36 O 0.4577(13) 0.8158(7) 0.4961(5)
O33_2 O 0.0122(14) 0.1873(7) 0.8972(5)
O34_2 O 0.0147(14) 0.2773(5) 0.9513(7)
O36_2 O 0.0423(13) 0.1842(7) 0.9961(5)
Cl1_2 Cl 0.9877(4) 0.21219(17) 0.94979(16)
O35_2 O 0.8690(9) 0.2035(7) 0.9569(7)
Cl1_3 Cl 0.0123(4) 0.71219(17) 0.55021(16)
O35_3 O 0.1310(9) 0.7035(7) 0.5431(7)
O33_3 O 0.9878(14) 0.6873(7) 0.6028(5)
O34_3 O 0.9853(14) 0.7773(5) 0.5487(7)
O36_3 O 0.9577(13) 0.6842(7) 0.5039(5)
Cl1_4 Cl 0.4877(4) 0.28781(17) 0.05021(16)
O33_4 O 0.5122(14) 0.3127(7) 0.1028(5)
O34_4 O 0.5147(14) 0.2227(5) 0.0487(7)
O35_4 O 0.3690(9) 0.2965(7) 0.0431(7)
O36_4 O 0.5423(13) 0.3158(7) 0.0039(5)
Cl2 Cl 0.2535(2) 0.81754(12) 0.13918(12)
O37 O 0.2513(15) 0.8840(4) 0.1435(7)
O38 O 0.2139(13) 0.7956(7) 0.1911(5)
O39 O 0.211(2) 0.8057(12) 0.0853(6)
O40 O 0.3601(9) 0.7896(7) 0.1315(8)
Cl2_2 Cl 0.2465(2) 0.18246(12) 0.63918(12)
O37_2 O 0.2487(15) 0.1160(4) 0.6435(7)
O38_2 O 0.2861(13) 0.2044(7) 0.6911(5)
O39_2 O 0.289(2) 0.1943(12) 0.5853(6)
O40_2 O 0.1399(9) 0.2104(7) 0.6315(8)
Cl2_3 Cl 0.7535(2) 0.68246(12) 0.86082(12)
O37_3 O 0.7513(15) 0.6160(4) 0.8565(7)
O38_3 O 0.7139(13) 0.7044(7) 0.8089(5)
O39_3 O 0.711(2) 0.6943(12) 0.9147(6)
O40_3 O 0.8601(9) 0.7104(7) 0.8685(8)
Cl2_4 Cl 0.7465(2) 0.31754(12) 0.36082(12)
O37_4 O 0.7487(15) 0.3840(4) 0.3565(7)
O38_4 O 0.7861(13) 0.2956(7) 0.3089(5)
O39_4 O 0.789(2) 0.3057(12) 0.4147(6)
O40_4 O 0.6399(9) 0.2896(7) 0.3685(8)
Cl3 Cl 0.2461(2) 0.12965(11) 0.15475(9)
O41 O 0.2533(12) 0.0635(4) 0.1479(5)
O42 O 0.1388(9) 0.1533(7) 0.1401(7)
O43 O 0.2748(11) 0.1484(7) 0.2093(4)
O44 O 0.3341(12) 0.1557(6) 0.1214(8)
Cl3_2 Cl 0.2539(2) 0.87035(11) 0.65475(9)
O41_2 O 0.2467(12) 0.9365(4) 0.6479(5)
O42_2 O 0.3612(9) 0.8467(7) 0.6401(7)
O43_2 O 0.2252(11) 0.8516(7) 0.7093(4)
O44_2 O 0.1659(12) 0.8443(6) 0.6214(8)
Cl3_3 Cl 0.7461(2) 0.37035(11) 0.84525(9)
O41_3 O 0.7533(12) 0.4365(4) 0.8521(5)
O42_3 O 0.6388(9) 0.3467(7) 0.8599(7)
O43_3 O 0.7748(11) 0.3516(7) 0.7907(4)
O44_3 O 0.8341(12) 0.3443(6) 0.8786(8)
Cl3_4 Cl 0.7539(2) 0.62965(11) 0.34525(9)
O41_4 O 0.7467(12) 0.5635(4) 0.3521(5)
O42_4 O 0.8612(9) 0.6533(7) 0.3599(7)
O43_4 O 0.7252(11) 0.6484(7) 0.2907(4)
O44_4 O 0.6659(12) 0.6557(6) 0.3786(8)
O45 O 0.015(2) 0.0364(11) 0.9935(16)
Cl4 Cl 0.0941(3) 0.98596(18) 0.00275(19)
O46 O 0.016(2) 0.9354(12) 0.0133(15)
O48 O 0.194(2) 0.9947(17) 0.0362(13)
O47 O 0.154(2) 0.9816(16) 0.9506(8)
Cl4_2 Cl 0.4059(3) 0.01404(18) 0.50275(19)
O46_2 O 0.484(2) 0.0646(12) 0.5133(15)
O47_2 O 0.346(2) 0.0184(16) 0.4506(8)
O48_2 O 0.306(2) 0.0053(17) 0.5362(13)
O45_2 O 0.485(2) 0.9636(11) 0.4935(16)
O45_3 O 0.515(2) 0.4636(11) 0.0065(16)
O47_3 O 0.654(2) 0.5184(16) 0.0494(8)
Cl4_3 Cl 0.5941(3) 0.51404(18) 0.99725(19)
O46_3 O 0.516(2) 0.5646(12) 0.9867(15)
O48_3 O 0.694(2) 0.5053(17) 0.9638(13)
Cl4_4 Cl 0.9059(3) 0.48596(18) 0.49725(19)
O45_4 O 0.985(2) 0.5364(11) 0.5065(16)
O46_4 O 0.984(2) 0.4354(12) 0.4867(15)
O47_4 O 0.846(2) 0.4816(16) 0.5494(8)
O48_4 O 0.806(2) 0.4947(17) 0.4638(13)
Cl5 Cl 0.0314(4) 0.1466(2) 0.44732(15)
O51 O 0.076(3) 0.2011(11) 0.4750(10)
O52 O 0.1437(14) 0.1201(14) 0.4397(11)
O49 O 0.9872(15) 0.1258(10) 0.3951(5)
O50 O 0.9908(18) 0.1016(8) 0.4876(6)
Cl5_2 Cl 0.4686(4) 0.8534(2) 0.94732(15)
O49_2 O 0.5128(15) 0.8742(10) 0.8951(5)
O50_2 O 0.5092(18) 0.8984(8) 0.9876(6)
O51_2 O 0.424(3) 0.7989(11) 0.9750(10)
O52_2 O 0.3563(14) 0.8799(14) 0.9397(11)
Cl5_3 Cl 0.5314(4) 0.3534(2) 0.55268(15)
O49_3 O 0.4872(15) 0.3742(10) 0.6049(5)
O50_3 O 0.4908(18) 0.3984(8) 0.5124(6)
O51_3 O 0.576(3) 0.2989(11) 0.5250(10)
O52_3 O 0.6437(14) 0.3799(14) 0.5603(11)
O49_4 O 0.0128(15) 0.6258(10) 0.1049(5)
O50_4 O 0.0092(18) 0.6016(8) 0.0124(6)
Cl5_4 Cl 0.9686(4) 0.6466(2) 0.05268(15)
O51_4 O 0.924(3) 0.7011(11) 0.0250(10)
O52_4 O 0.8563(14) 0.6201(14) 0.0603(11)
loop_
_geom_bond_atom_site_label_1
_geom_bond_atom_site_label_2
_geom_bond_site_symmetry_1
_geom_bond_site_symmetry_2
N2 H4 1_555 1_555
H5 N2 1_555 1_555
H6 N2 1_555 1_555
O11 C8 1_555 1_555
O12 C8 1_555 1_555
Nd8 O12 1_555 1_555
Nd10 O11 1_555 1_555
C1 C2 1_555 1_555
N1 H1 1_555 1_555
H2 N1 1_555 1_555
H3 N1 1_555 1_555
C2 H7 1_555 1_555
H8 C2 1_555 1_555
C3 N1 1_555 1_555
H9 C3 1_555 1_555
Nd4 O1 1_555 1_555
C4 C3 1_555 1_555
C5 C6 1_555 1_555
H13 C6 1_555 1_555
C7 C6 1_555 1_555
H15 C7 1_555 1_555
O1 H19 1_555 1_555
O6 C1 1_555 1_555
O7 C4 1_555 1_555
O8 C4 1_555 1_555
O9 Nd4 1_555 1_555
O13 Nd4 1_555 1_555
O24 Nd4 1_555 1_555
O25 Nd4 1_555 1_555
O26 Nd4 1_555 1_555
Nd6 O7 1_555 1_555
Nd8 O8 1_555 1_555
C1 O5 1_555 1_555
C2 C3 1_555 1_555
Nd4 O6 1_555 1_555
C5 O9 1_555 1_555
C5 O10 1_555 1_555
O26 H35 1_555 1_555
O26 H36 1_555 1_555
O25 H37 1_555 1_555
O25 H38 1_555 1_555
O24 H41 1_555 1_555
O24 H42 1_555 1_555
H11 N3 1_555 1_555
H12 N3 1_555 1_555
C11 N3 1_555 1_555
H18 C11 1_555 1_555
C12 C11 1_555 1_555
O15 C12 1_555 1_555
O16 C12 1_555 1_555
Nd5 O15 1_555 1_555
Nd9 O16 1_555 1_555
Nd2 O2 1_555 1_555
O2 Nd1 1_555 1_555
H20 O2 1_555 1_555
O3 Nd2 1_555 1_555
H21 O3 1_555 1_555
O4 Nd1 1_555 1_555
H22 O4 1_555 1_555
O14 Nd2 1_555 1_555
O17 Nd1 1_555 1_555
O18 Nd1 1_555 1_555
O19 Nd2 1_555 1_555
O20 Nd2 1_555 1_555
O21 Nd2 1_555 1_555
O27 Nd1 1_555 1_555
O28 Nd2 1_555 1_555
O29 Nd3 1_555 1_555
O30 Nd2 1_555 1_555
O31 Nd1 1_555 1_555
O32 Nd3 1_555 1_555
Nd2 O4 1_555 1_555
Nd3 O2 1_555 1_555
Nd3 O3 1_555 1_555
C9 O14 1_555 1_555
O18 H23 1_555 1_555
O18 H24 1_555 1_555
O19 H25 1_555 1_555
O19 H26 1_555 1_555
O17 H29 1_555 1_555
O17 H30 1_555 1_555
O21 H31 1_555 1_555
O21 H32 1_555 1_555
O20 H33 1_555 1_555
O20 H34 1_555 1_555
C2_2 H7_2 1_555 1_555
H9_2 C3_2 1_555 1_555
C4_2 C3_2 1_555 1_555
O7_2 C4_2 1_555 1_555
O8_2 C4_2 1_555 1_555
Nd6_2 O7_2 1_555 1_555
Nd7 O8_2 1_555 1_555
C2_2 C3_2 1_555 1_555
Nd2_2 O2_2 1_555 1_555
C9_2 C10 1_555 1_555
C10 H16 1_555 1_555
H17 C10 1_555 1_555
O2_2 Nd5 1_555 1_555
H20_2 O2_2 1_555 1_555
O3_2 Nd2_2 1_555 1_555
H21_2 O3_2 1_555 1_555
O4_2 Nd5 1_555 1_555
H22_2 O4_2 1_555 1_555
O14_2 Nd2_2 1_555 1_555
O19_2 Nd2_2 1_555 1_555
O20_2 Nd2_2 1_555 1_555
O21_2 Nd2_2 1_555 1_555
O22 Nd9 1_555 1_555
O23 Nd9 1_555 1_555
O27_2 Nd5 1_555 1_555
O28_2 Nd2_2 1_555 1_555
O29_2 Nd9 1_555 1_555
O30_2 Nd2_2 1_555 1_555
Nd2_2 O4_2 1_555 1_555
Nd9 O2_2 1_555 1_555
Nd9 O3_2 1_555 1_555
C9_2 O14_2 1_555 1_555
O19_2 H25_2 1_555 1_555
O19_2 H26_2 1_555 1_555
O22 H28 1_555 1_555
O21_2 H31_2 1_555 1_555
O21_2 H32_2 1_555 1_555
O20_2 H33_2 1_555 1_555
O20_2 H34_2 1_555 1_555
O23 H39 1_555 1_555
O23 H40 1_555 1_555
N1_2 H1_2 1_555 1_555
H2_2 N1_2 1_555 1_555
H3_2 N1_2 1_555 1_555
N2_2 H4_2 1_555 1_555
H5_2 N2_2 1_555 1_555
H6_2 N2_2 1_555 1_555
N3_2 H10_2 1_555 1_555
H11_2 N3_2 1_555 1_555
H12_2 N3_2 1_555 1_555
Nd4_2 O1_2 1_555 1_555
C5_2 C6_2 1_555 1_555
C6_2 N2_2 1_555 1_555
H13_2 C6_2 1_555 1_555
C7_2 C6_2 1_555 1_555
H14_2 C7_2 1_555 1_555
H15_2 C7_2 1_555 1_555
C8_2 C7_2 1_555 1_555
C11_2 N3_2 1_555 1_555
H18_2 C11_2 1_555 1_555
C12_2 C11_2 1_555 1_555
O1_2 H19_2 1_555 1_555
O6_2 C1_2 1_555 1_555
O9_2 Nd4_2 1_555 1_555
O11_2 C8_2 1_555 1_555
O12_2 C8_2 1_555 1_555
O13_2 Nd4_2 1_555 1_555
O31 C12_2 1_555 1_555
O32 C12_2 1_555 1_555
O24_2 Nd4_2 1_555 1_555
O25_2 Nd4_2 1_555 1_555
O26_2 Nd4_2 1_555 1_555
Nd7 O12_2 1_555 1_555
Nd10_2 O11_2 1_555 1_555
Nd4_2 O6_2 1_555 1_555
C5_2 O9_2 1_555 1_555
C5_2 O10_2 1_555 1_555
O26_2 H35_2 1_555 1_555
O26_2 H36_2 1_555 1_555
O25_2 H37_2 1_555 1_555
O25_2 H38_2 1_555 1_555
O24_2 H42_2 1_555 1_555
H11_3 N3_3 1_555 1_555
H12_3 N3_3 1_555 1_555
C10_2 H16_2 1_555 1_555
H17_2 C10_2 1_555 1_555
C11_3 N3_3 1_555 1_555
H18_3 C11_3 1_555 1_555
C12_3 C11_3 1_555 1_555
O15_2 C12_3 1_555 1_555
O16_2 C12_3 1_555 1_555
Nd6 O15_2 1_555 1_555
Nd10 O16_2 1_555 1_555
C10_2 C11_3 1_555 1_555
Nd6_2 O1_3 1_555 1_555
N1_3 H1_3 1_555 1_555
H2_3 N1_3 1_555 1_555
H3_3 N1_3 1_555 1_555
Nd7 O2_3 1_555 1_555
N2_3 H4_3 1_555 1_555
H5_3 N2_3 1_555 1_555
H6_3 N2_3 1_555 1_555
Nd10_2 O1_3 1_555 1_555
Nd4_3 O1_3 1_555 1_555
C5_3 C6_3 1_555 1_555
C6_3 N2_3 1_555 1_555
H13_3 C6_3 1_555 1_555
C7_3 C6_3 1_555 1_555
H14_3 C7_3 1_555 1_555
H15_3 C7_3 1_555 1_555
C8_3 C7_3 1_555 1_555
O1_3 H19_3 1_555 1_555
O2_3 Nd6_2 1_555 1_555
H20_3 O2_3 1_555 1_555
O3_3 Nd7 1_555 1_555
H21_3 O3_3 1_555 1_555
O4_3 Nd6_2 1_555 1_555
H22_3 O4_3 1_555 1_555
O6_3 C1_3 1_555 1_555
O9_3 Nd4_3 1_555 1_555
O10_3 Nd10_2 1_555 1_555
O29_2 C8_3 1_555 1_555
O30_2 C8_3 1_555 1_555
O13_3 Nd4_3 1_555 1_555
O14_3 Nd7 1_555 1_555
O19_3 Nd7 1_555 1_555
O20_3 Nd7 1_555 1_555
O21_3 Nd7 1_555 1_555
O22_2 Nd10_2 1_555 1_555
O23_2 Nd10_2 1_555 1_555
O24_3 Nd4_3 1_555 1_555
O25_3 Nd4_3 1_555 1_555
O26_3 Nd4_3 1_555 1_555
O31_2 Nd6_2 1_555 1_555
O32_2 Nd10_2 1_555 1_555
Nd7 O4_3 1_555 1_555
Nd10_2 O2_3 1_555 1_555
Nd10_2 O3_3 1_555 1_555
Nd4_3 O3_3 1_555 1_555
Nd4_3 O4_3 1_555 1_555
Nd4_3 O6_3 1_555 1_555
C5_3 O9_3 1_555 1_555
C5_3 O10_3 1_555 1_555
C9_3 O13_3 1_555 1_555
C9_3 O14_3 1_555 1_555
O19_3 H25_3 1_555 1_555
O19_3 H26_3 1_555 1_555
O22_2 H27_3 1_555 1_555
O22_2 H28_2 1_555 1_555
O21_3 H31_3 1_555 1_555
O21_3 H32_3 1_555 1_555
O20_3 H33_3 1_555 1_555
O20_3 H34_3 1_555 1_555
O26_3 H35_3 1_555 1_555
O26_3 H36_3 1_555 1_555
O25_3 H37_3 1_555 1_555
O25_3 H38_3 1_555 1_555
O23_2 H39_2 1_555 1_555
O23_2 H40_2 1_555 1_555
O24_3 H42_3 1_555 1_555
C2_3 H7_3 1_555 1_555
H9_3 C3_3 1_555 1_555
C4_3 C3_3 1_555 1_555
O27_2 C4_3 1_555 1_555
O28_2 C4_3 1_555 1_555
C2_3 C3_3 1_555 1_555
O18_2 H23_2 1_555 1_555
O18_2 H24_2 1_555 1_555
O17_2 H29_2 1_555 1_555
O17_2 H30_2 1_555 1_555
Nd6 O1_4 1_555 1_555
C1_4 C2_4 1_555 1_555
N1_4 H1_4 1_555 1_555
H2_4 N1_4 1_555 1_555
H3_4 N1_4 1_555 1_555
Nd8 O2_4 1_555 1_555
C2_4 H7_4 1_555 1_555
H8_4 C2_4 1_555 1_555
Nd10 O1_4 1_555 1_555
C3_4 N1_4 1_555 1_555
H9_4 C3_4 1_555 1_555
N3_4 H10_4 1_555 1_555
H11_4 N3_4 1_555 1_555
H12_4 N3_4 1_555 1_555
Nd4_4 O1_4 1_555 1_555
C4_4 C3_4 1_555 1_555
C5_4 C6_4 1_555 1_555
H13_4 C6_4 1_555 1_555
C7_4 C6_4 1_555 1_555
H15_4 C7_4 1_555 1_555
C9_4 C10_3 1_555 1_555
C10_3 H16_3 1_555 1_555
H17_3 C10_3 1_555 1_555
C11_4 N3_4 1_555 1_555
H18_4 C11_4 1_555 1_555
C12_4 C11_4 1_555 1_555
O1_4 H19_4 1_555 1_555
O2_4 Nd6 1_555 1_555
H20_4 O2_4 1_555 1_555
O3_4 Nd8 1_555 1_555
H21_4 O3_4 1_555 1_555
O4_4 Nd6 1_555 1_555
H22_4 O4_4 1_555 1_555
O5_4 Nd6 1_555 1_555
O6_4 C1_4 1_555 1_555
O27 C4_4 1_555 1_555
O28 C4_4 1_555 1_555
O9_4 Nd4_4 1_555 1_555
O10_4 Nd10 1_555 1_555
O13_4 Nd4_4 1_555 1_555
O14_4 Nd8 1_555 1_555
O31_2 C12_4 1_555 1_555
O32_2 C12_4 1_555 1_555
O17_3 Nd6 1_555 1_555
O18_3 Nd6 1_555 1_555
O19_4 Nd8 1_555 1_555
O20_4 Nd8 1_555 1_555
O21_4 Nd8 1_555 1_555
O24_4 Nd4_4 1_555 1_555
O25_4 Nd4_4 1_555 1_555
O26_4 Nd4_4 1_555 1_555
C1_4 O5_4 1_555 1_555
Nd8 O4_4 1_555 1_555
C2_4 C3_4 1_555 1_555
Nd10 O2_4 1_555 1_555
Nd10 O3_4 1_555 1_555
Nd4_4 O3_4 1_555 1_555
Nd4_4 O4_4 1_555 1_555
Nd4_4 O6_4 1_555 1_555
C5_4 O9_4 1_555 1_555
C5_4 O10_4 1_555 1_555
C9_4 O13_4 1_555 1_555
C9_4 O14_4 1_555 1_555
C10_3 C11_4 1_555 1_555
O18_3 H23_3 1_555 1_555
O18_3 H24_3 1_555 1_555
O19_4 H25_4 1_555 1_555
O19_4 H26_4 1_555 1_555
O17_3 H29_3 1_555 1_555
O17_3 H30_3 1_555 1_555
O21_4 H31_4 1_555 1_555
O21_4 H32_4 1_555 1_555
O20_4 H33_4 1_555 1_555
O20_4 H34_4 1_555 1_555
O26_4 H35_4 1_555 1_555
O26_4 H36_4 1_555 1_555
O25_4 H37_4 1_555 1_555
O25_4 H38_4 1_555 1_555
O24_4 H41_4 1_555 1_555
O24_4 H42_4 1_555 1_555
N2_4 H4_4 1_555 1_555
H5_4 N2_4 1_555 1_555
H6_4 N2_4 1_555 1_555
O29 C8_4 1_555 1_555
O30 C8_4 1_555 1_555
O22_3 H27_4 1_555 1_555
O22_3 H28_3 1_555 1_555
O23_3 H39_3 1_555 1_555
O23_3 H40_3 1_555 1_555
O22_4 H28_4 1_555 1_555
O23_4 H39_4 1_555 1_555
O23_4 H40_4 1_555 1_555
C10_4 H16_4 1_555 1_555
H17_4 C10_4 1_555 1_555
O18_4 H23_4 1_555 1_555
O18_4 H24_4 1_555 1_555
O17_4 H29_4 1_555 1_555
O17_4 H30_4 1_555 1_555
Cl1 O33 1_555 1_555
O34 Cl1 1_555 1_555
O35 Cl1 1_555 1_555
O36 Cl1 1_555 1_555
O35_2 Cl1_2 1_555 1_555
O35_3 Cl1_3 1_555 1_555
Cl1_4 O33_4 1_555 1_555
O34_4 Cl1_4 1_555 1_555
O35_4 Cl1_4 1_555 1_555
O36_4 Cl1_4 1_555 1_555
Cl2 O37 1_555 1_555
O38 Cl2 1_555 1_555
O39 Cl2 1_555 1_555
O40 Cl2 1_555 1_555
Cl2_2 O37_2 1_555 1_555
O38_2 Cl2_2 1_555 1_555
O39_2 Cl2_2 1_555 1_555
O40_2 Cl2_2 1_555 1_555
Cl2_3 O37_3 1_555 1_555
O38_3 Cl2_3 1_555 1_555
O39_3 Cl2_3 1_555 1_555
O40_3 Cl2_3 1_555 1_555
Cl2_4 O37_4 1_555 1_555
O38_4 Cl2_4 1_555 1_555
O39_4 Cl2_4 1_555 1_555
O40_4 Cl2_4 1_555 1_555
Cl3 O41 1_555 1_555
O42 Cl3 1_555 1_555
O43 Cl3 1_555 1_555
O44 Cl3 1_555 1_555
Cl3_2 O41_2 1_555 1_555
O42_2 Cl3_2 1_555 1_555
O43_2 Cl3_2 1_555 1_555
O44_2 Cl3_2 1_555 1_555
Cl3_3 O41_3 1_555 1_555
O42_3 Cl3_3 1_555 1_555
O43_3 Cl3_3 1_555 1_555
O44_3 Cl3_3 1_555 1_555
Cl3_4 O41_4 1_555 1_555
O42_4 Cl3_4 1_555 1_555
O43_4 Cl3_4 1_555 1_555
O44_4 Cl3_4 1_555 1_555
O46 Cl4 1_555 1_555
O48 Cl4 1_555 1_555
O46_2 Cl4_2 1_555 1_555
O47_2 Cl4_2 1_555 1_555
O48_2 Cl4_2 1_555 1_555
O46_3 Cl4_3 1_555 1_555
O48_3 Cl4_3 1_555 1_555
Cl4_4 O45_4 1_555 1_555
O46_4 Cl4_4 1_555 1_555
O47_4 Cl4_4 1_555 1_555
O48_4 Cl4_4 1_555 1_555
O51 Cl5 1_555 1_555
O52 Cl5 1_555 1_555
Cl5_2 O49_2 1_555 1_555
O50_2 Cl5_2 1_555 1_555
O51_2 Cl5_2 1_555 1_555
O52_2 Cl5_2 1_555 1_555
Cl5_3 O49_3 1_555 1_555
O50_3 Cl5_3 1_555 1_555
O51_3 Cl5_3 1_555 1_555
O52_3 Cl5_3 1_555 1_555
O51_4 Cl5_4 1_555 1_555
O52_4 Cl5_4 1_555 1_555

#END
