
###############################################################################
#
# This file contains modified crystal structure data generated from the
# MOF subset of the Cambridge Structural Database (CSD) v543 
# hosted by the Cambridge Crystallographic Data Centre (CCDC).
#
# This work is licensed under the Creative Commons
# Attribution-NonCommercial-ShareAlike 4.0 International License.
# To view a copy of this license, visit
# http://creativecommons.org/licenses/by-nc-sa/4.0/
# or send a letter to
# Creative Commons, PO Box 1866, Mountain View, CA 94042, USA.
#
# CIF created using the CSD Python API on 29 September 2022
# The structure has been converted into the P1 space group
# The structure has a 3D framework
# The original CSD entry VASGUU is in the monoclinic crystal system
# The framework has been calculated to contain at least 10.0% void space
# The void calculation uses a probe of radius 1.32A, grid spacing 0.4
#
###############################################################################

data_VASGUU
_chemical_formula_moiety         '(C144 H140 In19 O58)n'
_symmetry_cell_setting           triclinic
_symmetry_space_group_name_H-M   'P 1'
_symmetry_Int_Tables_number      1
_space_group_name_Hall           'P 1'
loop_
_symmetry_equiv_pos_site_id
_symmetry_equiv_pos_as_xyz
1 x,y,z
_cell_length_a                   15.6729(2)
_cell_length_b                   23.5990(3)
_cell_length_c                   18.2174(2)
_cell_angle_alpha                90
_cell_angle_beta                 105.4460(10)
_cell_angle_gamma                90
_cell_volume                     6494.61
loop_
_atom_site_label
_atom_site_type_symbol
_atom_site_fract_x
_atom_site_fract_y
_atom_site_fract_z
In1 In 0.5000 0.5000 0.0000
O6 O 0.4259(2) 0.56429(16) 0.0401(2)
O7 O 0.2814(3) 0.89653(15) 0.3391(2)
O8 O 0.1799(3) 0.89870(15) 0.2270(2)
O9 O 0.0099(3) 0.54520(17) 0.4007(2)
C1 C 0.3429(3) 0.5679(2) 0.0286(3)
C2 C 0.3117(4) 0.6032(2) 0.0829(3)
H6 H 0.3529 0.6249 0.1179
C3 C 0.2282(4) 0.6055(2) 0.0842(3)
H7 H 0.1862 0.5873 0.0455
C4 C 0.1978(4) 0.6356(2) 0.1443(3)
C5 C 0.2018(4) 0.6944(2) 0.1521(3)
C6 C 0.1804(4) 0.7197(2) 0.2148(3)
C7 C 0.1497(4) 0.6869(2) 0.2661(3)
C8 C 0.1403(4) 0.6281(2) 0.2544(3)
C9 C 0.1640(4) 0.6020(2) 0.1937(3)
C10 C 0.2329(5) 0.7313(3) 0.0968(4)
H8 H 0.2311 0.7703 0.1111
H9 H 0.2924 0.7211 0.0975
H10 H 0.1949 0.7258 0.0464
C11 C 0.1232(5) 0.7122(3) 0.3329(4)
H11 H 0.1041 0.6826 0.3611
H12 H 0.1729 0.7316 0.3655
H13 H 0.0756 0.7386 0.3147
C12 C 0.1599(5) 0.5384(3) 0.1830(4)
H14 H 0.1786 0.5287 0.1385
H15 H 0.1981 0.5205 0.2268
H16 H 0.1002 0.5257 0.1768
C13 C 0.1870(4) 0.7816(2) 0.2221(3)
H17 H 0.1557 0.8025 0.1803
C14 C 0.2318(4) 0.8107(2) 0.2807(3)
H18 H 0.2651 0.7914 0.3233
C15 C 0.2315(4) 0.8732(2) 0.2817(3)
C16 C 0.0987(4) 0.5955(2) 0.3049(3)
H19 H 0.1256 0.5957 0.3570
C17 C 0.0252(4) 0.5661(3) 0.2794(3)
In13 In 0.29002(2) 0.98621(2) 0.36563(2)
In19 In 0.19078(2) 0.96962(2) 0.15546(2)
In21 In 0.0000 0.5000 0.5000
O33 O 0.5713(2) 0.48477(15) 0.1119(2)
O46 O 0.4081(2) 0.43302(14) 0.0083(2)
In1_2 In 0.5000 0.5000 1.0000
In2 In 0.29002(2) 0.51379(2) 0.86563(2)
In3 In 0.19078(2) 0.53038(2) 0.65546(2)
O1 O 0.4287(2) 0.51523(15) 0.8881(2)
H1 H 0.4567 0.5223 0.8499
O2 O 0.2744(2) 0.49181(16) 0.75143(19)
H2 H 0.3083 0.4616 0.7424
O3 O 0.0904(2) 0.55866(14) 0.56365(19)
H3 H 0.0857 0.5969 0.5509
O4 O 0.1482(3) 0.50614(17) 0.8500(2)
H4 H 0.1359 0.5136 0.8917
H5 H 0.1216 0.5294 0.8160
O5 O 0.2865(2) 0.54365(16) 0.9761(2)
O11 O 0.2051(3) 0.45299(18) 0.5973(2)
O12 O 0.1073(3) 0.44578(19) 0.4850(2)
O13 O 0.7793(4) 0.3871(3) 0.4823(4)
O14 O 0.7045(3) 0.4291(3) 0.3772(3)
O15 O 0.4081(2) 0.06698(14) 0.5083(2)
O16 O 0.2969(3) 0.07435(15) 0.4023(2)
C19 C 0.1792(3) 0.4345(2) 0.5317(3)
C20 C 0.2373(4) 0.3929(3) 0.5063(4)
H21 H 0.2163 0.3748 0.4597
C21 C 0.3167(4) 0.3814(2) 0.5479(3)
H22 H 0.3347 0.4000 0.5945
C22 C 0.3819(3) 0.3418(2) 0.5293(3)
C23 C 0.4579(4) 0.3640(2) 0.5149(4)
C24 C 0.5242(4) 0.3271(3) 0.5052(4)
C25 C 0.5124(4) 0.2689(3) 0.5065(4)
C26 C 0.4332(4) 0.2471(2) 0.5159(3)
C27 C 0.3695(3) 0.2834(2) 0.5308(3)
C28 C 0.4670(6) 0.4283(3) 0.5107(6)
H23 H 0.5224 0.4374 0.5005
H24 H 0.4193 0.4430 0.4706
H25 H 0.4649 0.4449 0.5583
C29 C 0.5805(5) 0.2288(3) 0.4906(6)
H26 H 0.5616 0.1904 0.4939
H27 H 0.5869 0.2357 0.4404
H28 H 0.6363 0.2348 0.5274
C30 C 0.2907(4) 0.2593(3) 0.5534(5)
H29 H 0.2924 0.2186 0.5514
H30 H 0.2927 0.2711 0.6042
H31 H 0.2371 0.2727 0.5189
C31 C 0.6102(5) 0.3489(3) 0.4962(5)
H32 H 0.6606 0.3396 0.5344
C32 C 0.6215(6) 0.3786(4) 0.4423(5)
H33 H 0.5715 0.3887 0.4041
C33 C 0.7103(5) 0.3994(3) 0.4346(4)
C34 C 0.4202(4) 0.1848(2) 0.5114(3)
H34 H 0.4630 0.1630 0.5445
C35 C 0.3551(4) 0.1577(2) 0.4656(4)
H35 H 0.3078 0.1784 0.4361
C36 C 0.3532(4) 0.0946(2) 0.4587(3)
In9 In 0.5000 0.0000 0.5000
In18 In 0.80922(2) 0.46962(2) 0.34454(2)
O34 O 0.5741(2) 0.43571(16) 0.9599(2)
O36 O 0.2814(3) 0.60347(15) 0.8391(2)
O38 O 0.1799(3) 0.60130(15) 0.7270(2)
O42 O 0.0834(2) 0.49475(16) 0.6998(2)
O44 O 0.2955(3) 0.5709(3) 0.6228(3)
O45 O 0.5919(2) 0.56698(14) 0.9917(2)
O48 O 0.2969(3) 0.42565(15) 0.9023(2)
H55 H 0.0001 0.4361 0.7728
C54 C 0.0185(3) 0.4634(2) 0.6688(3)
In9_2 In 0.5000 1.0000 0.5000
In11 In 0.70998(2) 0.01379(2) 0.63437(2)
O10 O 0.9166(2) 0.50525(16) 0.3002(2)
H20 H 0.9999 0.5639 0.2272
C18 C 0.9815(3) 0.5366(2) 0.3312(3)
In21_2 In 1.0000 0.5000 0.5000
In5 In 0.70998(2) 0.48621(2) 0.13437(2)
H36 H 0.5433 0.4777 0.1501
O18 O 0.7256(2) 0.50819(16) 0.24857(19)
H37 H 0.6917 0.5384 0.2576
O19 O 0.9096(2) 0.44134(14) 0.43635(19)
H38 H 0.9143 0.4031 0.4491
O20 O 0.8518(3) 0.49386(17) 0.1500(2)
H39 H 0.8641 0.4864 0.1083
H40 H 0.8784 0.4706 0.1840
O21 O 0.7135(2) 0.45635(16) 0.0239(2)
O27 O 0.7949(3) 0.54701(18) 0.4027(2)
O28 O 0.8927(3) 0.55422(19) 0.5150(2)
O29 O 0.2207(4) 0.6129(3) 0.5177(4)
O31 O 0.5919(2) 0.93302(14) 0.4917(2)
O32 O 0.7031(3) 0.92565(15) 0.5977(2)
C55 C 0.8208(3) 0.5655(2) 0.4683(3)
C56 C 0.7627(4) 0.6071(3) 0.4937(4)
H56 H 0.7837 0.6252 0.5403
C57 C 0.6833(4) 0.6186(2) 0.4521(3)
H57 H 0.6653 0.6000 0.4055
C58 C 0.6181(3) 0.6582(2) 0.4707(3)
C59 C 0.5421(4) 0.6360(2) 0.4851(4)
C60 C 0.4758(4) 0.6729(3) 0.4948(4)
C61 C 0.4876(4) 0.7311(3) 0.4935(4)
C62 C 0.5668(4) 0.7529(2) 0.4841(3)
C63 C 0.6305(3) 0.7166(2) 0.4692(3)
C64 C 0.5330(6) 0.5717(3) 0.4893(6)
H58 H 0.4776 0.5626 0.4995
H59 H 0.5807 0.5570 0.5294
H60 H 0.5351 0.5551 0.4417
C65 C 0.4195(5) 0.7712(3) 0.5094(6)
H61 H 0.4384 0.8096 0.5061
H62 H 0.4131 0.7643 0.5596
H63 H 0.3637 0.7652 0.4726
C66 C 0.7093(4) 0.7407(3) 0.4466(5)
H64 H 0.7076 0.7814 0.4486
H65 H 0.7073 0.7289 0.3958
H66 H 0.7629 0.7273 0.4811
C67 C 0.3898(5) 0.6511(3) 0.5038(5)
H67 H 0.3394 0.6604 0.4656
C68 C 0.3785(6) 0.6214(4) 0.5577(5)
H68 H 0.4285 0.6113 0.5959
C69 C 0.2897(5) 0.6006(3) 0.5654(4)
C70 C 0.5798(4) 0.8152(2) 0.4886(3)
H69 H 0.5370 0.8370 0.4555
C71 C 0.6449(4) 0.8423(2) 0.5344(4)
H70 H 0.6922 0.8216 0.5639
C72 C 0.6468(4) 0.9054(2) 0.5413(3)
O35 O 0.7186(3) 0.39653(15) 0.1609(2)
O37 O 0.8201(3) 0.39870(15) 0.2730(2)
O40 O 0.9901(3) 0.45480(17) 0.5993(2)
O47 O 0.7031(3) 0.57435(15) 0.0977(2)
O23 O 0.7186(3) 0.10347(15) 0.6609(2)
O24 O 0.8201(3) 0.10130(15) 0.7730(2)
C37 C 0.6571(3) 0.4321(2) 0.9714(3)
C38 C 0.6883(4) 0.3968(2) 0.9171(3)
H41 H 0.6471 0.3751 0.8821
C39 C 0.7718(4) 0.3945(2) 0.9158(3)
H42 H 0.8138 0.4127 0.9545
C40 C 0.8022(4) 0.3644(2) 0.8557(3)
C41 C 0.7982(4) 0.3056(2) 0.8479(3)
C42 C 0.8196(4) 0.2803(2) 0.7852(3)
C43 C 0.8503(4) 0.3131(2) 0.7339(3)
C44 C 0.8597(4) 0.3719(2) 0.7456(3)
C45 C 0.8360(4) 0.3980(2) 0.8063(3)
C46 C 0.7671(5) 0.2687(3) 0.9032(4)
H43 H 0.7689 0.2297 0.8889
H44 H 0.7076 0.2789 0.9025
H45 H 0.8051 0.2742 0.9536
C47 C 0.8768(5) 0.2878(3) 0.6671(4)
H46 H 0.8959 0.3174 0.6389
H47 H 0.8271 0.2684 0.6345
H48 H 0.9244 0.2614 0.6853
C48 C 0.8401(5) 0.4616(3) 0.8170(4)
H49 H 0.8214 0.4713 0.8615
H50 H 0.8019 0.4795 0.7732
H51 H 0.8998 0.4743 0.8232
C49 C 0.8130(4) 0.2184(2) 0.7779(3)
H52 H 0.8443 0.1975 0.8197
C50 C 0.7682(4) 0.1893(2) 0.7193(3)
H53 H 0.7349 0.2086 0.6767
C51 C 0.7685(4) 0.1268(2) 0.7183(3)
C52 C 0.9013(4) 0.4045(2) 0.6951(3)
H54 H 0.8744 0.4043 0.6430
C53 C 0.9748(4) 0.4339(3) 0.7206(3)
In16 In 0.80922(2) 0.03038(2) 0.84454(2)
In20 In 0.0000 0.0000 0.0000
O18_2 O 0.2744(2) 0.00819(16) 0.25143(19)
H37_2 H 0.3083 0.0384 0.2424
O27_2 O 0.2051(3) 0.04701(18) 0.0973(2)
C55_2 C 0.1792(3) 0.0655(2) 0.0317(3)
C56_2 C 0.2373(4) 0.1071(3) 0.0063(4)
C57_2 C 0.3167(4) 0.1186(2) 0.0479(3)
H57_2 H 0.3347 0.1000 0.0945
C58_2 C 0.3819(3) 0.1582(2) 0.0293(3)
C59_2 C 0.4579(4) 0.1360(2) 0.0149(4)
C60_2 C 0.5242(4) 0.1729(3) 0.0052(4)
C61_2 C 0.5124(4) 0.2311(3) 0.0065(4)
C62_2 C 0.4332(4) 0.2529(2) 0.0159(3)
C63_2 C 0.3695(3) 0.2166(2) 0.0308(3)
C64_2 C 0.4670(6) 0.0717(3) 0.0107(6)
H58_2 H 0.5224 0.0626 0.0005
H60_2 H 0.4649 0.0551 0.0583
H63_2 H 0.6363 0.2652 0.0274
C66_2 C 0.2907(4) 0.2407(3) 0.0534(5)
H64_2 H 0.2924 0.2814 0.0514
H65_2 H 0.2927 0.2289 0.1042
H66_2 H 0.2371 0.2273 0.0189
H67_2 H 0.6606 0.1604 0.0344
C70_2 C 0.4202(4) 0.3152(2) 0.0114(3)
H69_2 H 0.4630 0.3370 0.0445
In20_2 In 0.0000 0.0000 1.0000
O41 O 0.0834(2) 0.00525(16) 0.1998(2)
H20_2 H 0.0001 0.0639 0.2728
C18_2 C 0.0185(3) 0.0366(2) 0.1688(3)
O28_2 O 0.1073(3) 0.05422(19) 0.9850(2)
O29_2 O 0.7793(4) 0.1129(3) 0.9823(4)
O30 O 0.7045(3) 0.0709(3) 0.8772(3)
H56_2 H 0.2163 0.1252 0.9597
H59_2 H 0.4193 0.0570 0.9706
C65_2 C 0.5805(5) 0.2712(3) 0.9906(6)
H61_2 H 0.5616 0.3096 0.9939
H62_2 H 0.5869 0.2643 0.9404
C67_2 C 0.6102(5) 0.1511(3) 0.9962(5)
C68_2 C 0.6215(6) 0.1214(4) 0.9423(5)
H68_2 H 0.5715 0.1113 0.9041
C69_2 C 0.7103(5) 0.1006(3) 0.9346(4)
C71_2 C 0.3551(4) 0.3423(2) 0.9656(4)
H70_2 H 0.3078 0.3216 0.9361
C72_2 C 0.3532(4) 0.4054(2) 0.9587(3)
In20_3 In 0.0000 1.0000 0.0000
O17 O 0.4287(2) 0.98477(15) 0.3881(2)
H36_2 H 0.4567 0.9777 0.3499
O19_2 O 0.0904(2) 0.94134(14) 0.06365(19)
H38_2 H 0.0857 0.9031 0.0509
O20_2 O 0.1482(3) 0.99386(17) 0.3500(2)
H39_2 H 0.1359 0.9864 0.3917
H40_2 H 0.1216 0.9706 0.3160
O21_2 O 0.2865(2) 0.95635(16) 0.4761(2)
O22 O 0.4259(2) 0.93571(16) 0.5401(2)
O25 O 0.0099(3) 0.95480(17) 0.9007(2)
C37_2 C 0.3429(3) 0.9321(2) 0.5286(3)
C38_2 C 0.3117(4) 0.8968(2) 0.5829(3)
H41_2 H 0.3529 0.8751 0.6179
C39_2 C 0.2282(4) 0.8945(2) 0.5842(3)
H42_2 H 0.1862 0.9127 0.5455
C40_2 C 0.1978(4) 0.8644(2) 0.6443(3)
C41_2 C 0.2018(4) 0.8056(2) 0.6521(3)
C42_2 C 0.1804(4) 0.7803(2) 0.7148(3)
C43_2 C 0.1497(4) 0.8131(2) 0.7661(3)
C44_2 C 0.1403(4) 0.8719(2) 0.7544(3)
C45_2 C 0.1640(4) 0.8980(2) 0.6937(3)
C46_2 C 0.2329(5) 0.7687(3) 0.5968(4)
H43_2 H 0.2311 0.7297 0.6111
H44_2 H 0.2924 0.7789 0.5975
H45_2 H 0.1949 0.7742 0.5464
C47_2 C 0.1232(5) 0.7878(3) 0.8329(4)
H46_2 H 0.1041 0.8174 0.8611
H47_2 H 0.1729 0.7684 0.8655
H48_2 H 0.0756 0.7614 0.8147
C48_2 C 0.1599(5) 0.9616(3) 0.6830(4)
H49_2 H 0.1786 0.9713 0.6385
H50_2 H 0.1981 0.9795 0.7268
H51_2 H 0.1002 0.9743 0.6768
C49_2 C 0.1870(4) 0.7184(2) 0.7221(3)
H52_2 H 0.1557 0.6975 0.6803
C50_2 C 0.2318(4) 0.6893(2) 0.7807(3)
H53_2 H 0.2651 0.7086 0.8233
C51_2 C 0.2315(4) 0.6268(2) 0.7817(3)
C52_2 C 0.0987(4) 0.9045(2) 0.8049(3)
H54_2 H 0.1256 0.9043 0.8570
C53_2 C 0.0252(4) 0.9339(3) 0.7794(3)
In20_4 In 0.0000 1.0000 1.0000
O43 O 0.2955(3) 0.9291(3) 0.1228(3)
In20_5 In 1.0000 0.0000 0.0000
In20_6 In 1.0000 0.0000 1.0000
O39 O 0.9901(3) 0.04520(17) 0.0993(2)
O1_2 O 0.5713(2) 0.01523(15) 0.6119(2)
H1_2 H 0.5433 0.0223 0.6501
O3_2 O 0.9096(2) 0.05866(14) 0.93635(19)
H3_2 H 0.9143 0.0969 0.9491
O4_2 O 0.8518(3) 0.00614(17) 0.6500(2)
H4_2 H 0.8641 0.0136 0.6083
H5_2 H 0.8784 0.0294 0.6840
O5_2 O 0.7135(2) 0.04365(16) 0.5239(2)
O6_2 O 0.5741(2) 0.06429(16) 0.4599(2)
C1_2 C 0.6571(3) 0.0679(2) 0.4714(3)
C2_2 C 0.6883(4) 0.1032(2) 0.4171(3)
H6_2 H 0.6471 0.1249 0.3821
C3_2 C 0.7718(4) 0.1055(2) 0.4158(3)
H7_2 H 0.8138 0.0873 0.4545
C4_2 C 0.8022(4) 0.1356(2) 0.3557(3)
C5_2 C 0.7982(4) 0.1944(2) 0.3479(3)
C6_2 C 0.8196(4) 0.2197(2) 0.2852(3)
C7_2 C 0.8503(4) 0.1869(2) 0.2339(3)
C8_2 C 0.8597(4) 0.1281(2) 0.2456(3)
C9_2 C 0.8360(4) 0.1020(2) 0.3063(3)
C10_2 C 0.7671(5) 0.2313(3) 0.4032(4)
H8_2 H 0.7689 0.2703 0.3889
H9_2 H 0.7076 0.2211 0.4025
H10_2 H 0.8051 0.2258 0.4536
C11_2 C 0.8768(5) 0.2122(3) 0.1671(4)
H11_2 H 0.8959 0.1826 0.1389
H12_2 H 0.8271 0.2316 0.1345
H13_2 H 0.9244 0.2386 0.1853
C12_2 C 0.8401(5) 0.0384(3) 0.3170(4)
H14_2 H 0.8214 0.0287 0.3615
H15_2 H 0.8019 0.0205 0.2732
H16_2 H 0.8998 0.0257 0.3232
C13_2 C 0.8130(4) 0.2816(2) 0.2779(3)
H17_2 H 0.8443 0.3025 0.3197
C14_2 C 0.7682(4) 0.3107(2) 0.2193(3)
H18_2 H 0.7349 0.2914 0.1767
C15_2 C 0.7685(4) 0.3732(2) 0.2183(3)
C16_2 C 0.9013(4) 0.0955(2) 0.1951(3)
H19_2 H 0.8744 0.0957 0.1430
C17_2 C 0.9748(4) 0.0661(3) 0.2206(3)
In20_7 In 1.0000 1.0000 0.0000
O12_2 O 0.8927(3) 0.94578(19) 0.0150(2)
O13_2 O 0.2207(4) 0.8871(3) 0.0177(4)
H21_2 H 0.7837 0.8748 0.0403
H24_2 H 0.5807 0.9430 0.0294
C29_2 C 0.4195(5) 0.7288(3) 0.0094(6)
H26_2 H 0.4384 0.6904 0.0061
H27_2 H 0.4131 0.7357 0.0596
C31_2 C 0.3898(5) 0.8489(3) 0.0038(5)
C32_2 C 0.3785(6) 0.8786(4) 0.0577(5)
H33_2 H 0.4285 0.8887 0.0959
C33_2 C 0.2897(5) 0.8994(3) 0.0654(4)
C35_2 C 0.6449(4) 0.6577(2) 0.0344(4)
H35_2 H 0.6922 0.6784 0.0639
C36_2 C 0.6468(4) 0.5946(2) 0.0413(3)
O26 O 0.9166(2) 0.99475(16) 0.8002(2)
H55_2 H 0.9999 0.9361 0.7272
C54_2 C 0.9815(3) 0.9634(2) 0.8312(3)
In20_8 In 1.0000 1.0000 1.0000
O2_2 O 0.7256(2) 0.99181(16) 0.74857(19)
H2_2 H 0.6917 0.9616 0.7576
O11_2 O 0.7949(3) 0.95299(18) 0.9027(2)
C19_2 C 0.8208(3) 0.9345(2) 0.9683(3)
C20_2 C 0.7627(4) 0.8929(3) 0.9937(4)
C21_2 C 0.6833(4) 0.8814(2) 0.9521(3)
H22_2 H 0.6653 0.9000 0.9055
C22_2 C 0.6181(3) 0.8418(2) 0.9707(3)
C23_2 C 0.5421(4) 0.8640(2) 0.9851(4)
C24_2 C 0.4758(4) 0.8271(3) 0.9948(4)
C25_2 C 0.4876(4) 0.7689(3) 0.9935(4)
C26_2 C 0.5668(4) 0.7471(2) 0.9841(3)
C27_2 C 0.6305(3) 0.7834(2) 0.9692(3)
C28_2 C 0.5330(6) 0.9283(3) 0.9893(6)
H23_2 H 0.4776 0.9374 0.9995
H25_2 H 0.5351 0.9449 0.9417
H28_2 H 0.3637 0.7348 0.9726
C30_2 C 0.7093(4) 0.7593(3) 0.9466(5)
H29_2 H 0.7076 0.7186 0.9486
H30_2 H 0.7073 0.7711 0.8958
H31_2 H 0.7629 0.7727 0.9811
H32_2 H 0.3394 0.8396 0.9656
C34_2 C 0.5798(4) 0.6848(2) 0.9886(3)
H34_2 H 0.5370 0.6630 0.9555
loop_
_geom_bond_atom_site_label_1
_geom_bond_atom_site_label_2
_geom_bond_site_symmetry_1
_geom_bond_site_symmetry_2
O6 In1 1_555 1_555
O7 C15 1_555 1_555
O8 C15 1_555 1_555
C2 C1 1_555 1_555
H6 C2 1_555 1_555
C3 C2 1_555 1_555
H7 C3 1_555 1_555
C4 C3 1_555 1_555
C5 C4 1_555 1_555
C6 C5 1_555 1_555
C7 C6 1_555 1_555
C8 C7 1_555 1_555
C9 C4 1_555 1_555
C10 C5 1_555 1_555
H8 C10 1_555 1_555
H9 C10 1_555 1_555
H10 C10 1_555 1_555
C11 C7 1_555 1_555
H11 C11 1_555 1_555
H12 C11 1_555 1_555
H13 C11 1_555 1_555
C12 C9 1_555 1_555
H14 C12 1_555 1_555
H15 C12 1_555 1_555
H16 C12 1_555 1_555
C13 C6 1_555 1_555
H17 C13 1_555 1_555
C14 C13 1_555 1_555
H18 C14 1_555 1_555
C15 C14 1_555 1_555
C16 C8 1_555 1_555
H19 C16 1_555 1_555
C17 C16 1_555 1_555
In13 O7 1_555 1_555
In19 O8 1_555 1_555
In21 O9 1_555 1_555
O33 In1 1_555 1_555
O46 In1 1_555 1_555
O6 C1 1_555 1_555
C8 C9 1_555 1_555
In1_2 O1 1_555 1_555
In2 O1 1_555 1_555
In3 O2 1_555 1_555
In21 O3 1_555 1_555
O1 H1 1_555 1_555
O2 In2 1_555 1_555
H2 O2 1_555 1_555
O3 In3 1_555 1_555
H3 O3 1_555 1_555
O4 In2 1_555 1_555
H4 O4 1_555 1_555
H5 O4 1_555 1_555
O5 In2 1_555 1_555
O11 In3 1_555 1_555
O12 In21 1_555 1_555
O13 C33 1_555 1_555
O14 C33 1_555 1_555
O15 C36 1_555 1_555
O16 C36 1_555 1_555
C19 O11 1_555 1_555
C20 C19 1_555 1_555
H21 C20 1_555 1_555
C21 C20 1_555 1_555
H22 C21 1_555 1_555
C22 C21 1_555 1_555
C23 C22 1_555 1_555
C24 C23 1_555 1_555
C25 C24 1_555 1_555
C26 C25 1_555 1_555
C27 C22 1_555 1_555
C28 C23 1_555 1_555
H23 C28 1_555 1_555
H24 C28 1_555 1_555
H25 C28 1_555 1_555
C29 C25 1_555 1_555
H26 C29 1_555 1_555
H27 C29 1_555 1_555
H28 C29 1_555 1_555
C30 C27 1_555 1_555
H29 C30 1_555 1_555
H30 C30 1_555 1_555
H31 C30 1_555 1_555
C31 C24 1_555 1_555
H32 C31 1_555 1_555
C32 C31 1_555 1_555
H33 C32 1_555 1_555
C33 C32 1_555 1_555
C34 C26 1_555 1_555
H34 C34 1_555 1_555
C35 C34 1_555 1_555
H35 C35 1_555 1_555
C36 C35 1_555 1_555
In9 O15 1_555 1_555
In18 O14 1_555 1_555
O34 In1_2 1_555 1_555
O36 In2 1_555 1_555
O38 In3 1_555 1_555
O42 In3 1_555 1_555
O44 In3 1_555 1_555
O45 In1_2 1_555 1_555
O48 In2 1_555 1_555
O12 C19 1_555 1_555
C26 C27 1_555 1_555
O42 C54 1_555 1_555
O10 C18 1_555 1_555
In18 O10 1_555 1_555
In5 O33 1_555 1_555
In18 O18 1_555 1_555
O33 H36 1_555 1_555
O18 In5 1_555 1_555
H37 O18 1_555 1_555
O19 In21_2 1_555 1_555
H38 O19 1_555 1_555
O20 In5 1_555 1_555
H39 O20 1_555 1_555
H40 O20 1_555 1_555
O21 In5 1_555 1_555
O27 In18 1_555 1_555
O28 In21_2 1_555 1_555
O29 C69 1_555 1_555
O44 C69 1_555 1_555
O31 C72 1_555 1_555
O32 C72 1_555 1_555
C55 O27 1_555 1_555
C56 C55 1_555 1_555
H56 C56 1_555 1_555
C57 C56 1_555 1_555
H57 C57 1_555 1_555
C58 C57 1_555 1_555
C59 C58 1_555 1_555
C60 C59 1_555 1_555
C61 C60 1_555 1_555
C62 C61 1_555 1_555
C63 C58 1_555 1_555
C64 C59 1_555 1_555
H58 C64 1_555 1_555
H59 C64 1_555 1_555
H60 C64 1_555 1_555
C65 C61 1_555 1_555
H61 C65 1_555 1_555
H62 C65 1_555 1_555
H63 C65 1_555 1_555
C66 C63 1_555 1_555
H64 C66 1_555 1_555
H65 C66 1_555 1_555
H66 C66 1_555 1_555
C67 C60 1_555 1_555
H67 C67 1_555 1_555
C68 C67 1_555 1_555
H68 C68 1_555 1_555
C69 C68 1_555 1_555
C70 C62 1_555 1_555
H69 C70 1_555 1_555
C71 C70 1_555 1_555
H70 C71 1_555 1_555
C72 C71 1_555 1_555
In9_2 O31 1_555 1_555
O35 In5 1_555 1_555
O37 In18 1_555 1_555
O40 In21_2 1_555 1_555
O47 In5 1_555 1_555
In18 O19 1_555 1_555
O28 C55 1_555 1_555
C62 C63 1_555 1_555
O34 C37 1_555 1_555
O23 C51 1_555 1_555
O24 C51 1_555 1_555
C38 C37 1_555 1_555
H41 C38 1_555 1_555
C39 C38 1_555 1_555
H42 C39 1_555 1_555
C40 C39 1_555 1_555
C41 C40 1_555 1_555
C42 C41 1_555 1_555
C43 C42 1_555 1_555
C44 C43 1_555 1_555
C45 C40 1_555 1_555
C46 C41 1_555 1_555
H43 C46 1_555 1_555
H44 C46 1_555 1_555
H45 C46 1_555 1_555
C47 C43 1_555 1_555
H46 C47 1_555 1_555
H47 C47 1_555 1_555
H48 C47 1_555 1_555
C48 C45 1_555 1_555
H49 C48 1_555 1_555
H50 C48 1_555 1_555
H51 C48 1_555 1_555
C49 C42 1_555 1_555
H52 C49 1_555 1_555
C50 C49 1_555 1_555
H53 C50 1_555 1_555
C51 C50 1_555 1_555
C52 C44 1_555 1_555
H54 C52 1_555 1_555
C53 C52 1_555 1_555
In11 O23 1_555 1_555
In16 O24 1_555 1_555
C44 C45 1_555 1_555
H37_2 O18_2 1_555 1_555
C55_2 O27_2 1_555 1_555
C56_2 C55_2 1_555 1_555
C57_2 C56_2 1_555 1_555
H57_2 C57_2 1_555 1_555
C58_2 C57_2 1_555 1_555
C59_2 C58_2 1_555 1_555
C60_2 C59_2 1_555 1_555
C61_2 C60_2 1_555 1_555
C62_2 C61_2 1_555 1_555
C63_2 C58_2 1_555 1_555
C64_2 C59_2 1_555 1_555
H58_2 C64_2 1_555 1_555
H60_2 C64_2 1_555 1_555
C66_2 C63_2 1_555 1_555
H64_2 C66_2 1_555 1_555
H65_2 C66_2 1_555 1_555
H66_2 C66_2 1_555 1_555
C70_2 C62_2 1_555 1_555
H69_2 C70_2 1_555 1_555
C62_2 C63_2 1_555 1_555
O41 C18_2 1_555 1_555
O28_2 In20_2 1_555 1_555
O29_2 C69_2 1_555 1_555
O30 C69_2 1_555 1_555
O48 C72_2 1_555 1_555
H61_2 C65_2 1_555 1_555
H62_2 C65_2 1_555 1_555
C68_2 C67_2 1_555 1_555
H68_2 C68_2 1_555 1_555
C69_2 C68_2 1_555 1_555
H70_2 C71_2 1_555 1_555
C72_2 C71_2 1_555 1_555
In16 O30 1_555 1_555
In13 O17 1_555 1_555
O17 H36_2 1_555 1_555
O19_2 In20_3 1_555 1_555
H38_2 O19_2 1_555 1_555
O20_2 In13 1_555 1_555
H39_2 O20_2 1_555 1_555
H40_2 O20_2 1_555 1_555
O21_2 In13 1_555 1_555
O22 C37_2 1_555 1_555
O36 C51_2 1_555 1_555
O38 C51_2 1_555 1_555
C37_2 O21_2 1_555 1_555
C38_2 C37_2 1_555 1_555
H41_2 C38_2 1_555 1_555
C39_2 C38_2 1_555 1_555
H42_2 C39_2 1_555 1_555
C40_2 C39_2 1_555 1_555
C41_2 C40_2 1_555 1_555
C42_2 C41_2 1_555 1_555
C43_2 C42_2 1_555 1_555
C44_2 C43_2 1_555 1_555
C45_2 C40_2 1_555 1_555
C46_2 C41_2 1_555 1_555
H43_2 C46_2 1_555 1_555
H44_2 C46_2 1_555 1_555
H45_2 C46_2 1_555 1_555
C47_2 C43_2 1_555 1_555
H46_2 C47_2 1_555 1_555
H47_2 C47_2 1_555 1_555
H48_2 C47_2 1_555 1_555
C48_2 C45_2 1_555 1_555
H49_2 C48_2 1_555 1_555
H50_2 C48_2 1_555 1_555
H51_2 C48_2 1_555 1_555
C49_2 C42_2 1_555 1_555
H52_2 C49_2 1_555 1_555
C50_2 C49_2 1_555 1_555
H53_2 C50_2 1_555 1_555
C51_2 C50_2 1_555 1_555
C52_2 C44_2 1_555 1_555
H54_2 C52_2 1_555 1_555
C53_2 C52_2 1_555 1_555
In9_2 O17 1_555 1_555
In20_4 O25 1_555 1_555
O43 In19 1_555 1_555
In19 O19_2 1_555 1_555
O22 In9_2 1_555 1_555
C44_2 C45_2 1_555 1_555
O39 In20_5 1_555 1_555
In9 O1_2 1_555 1_555
In11 O1_2 1_555 1_555
In20_6 O3_2 1_555 1_555
O1_2 H1_2 1_555 1_555
O3_2 In16 1_555 1_555
H3_2 O3_2 1_555 1_555
O4_2 In11 1_555 1_555
H4_2 O4_2 1_555 1_555
H5_2 O4_2 1_555 1_555
O5_2 In11 1_555 1_555
O6_2 In9 1_555 1_555
O35 C15_2 1_555 1_555
O37 C15_2 1_555 1_555
C1_2 O5_2 1_555 1_555
C2_2 C1_2 1_555 1_555
H6_2 C2_2 1_555 1_555
C3_2 C2_2 1_555 1_555
H7_2 C3_2 1_555 1_555
C4_2 C3_2 1_555 1_555
C5_2 C4_2 1_555 1_555
C6_2 C5_2 1_555 1_555
C7_2 C6_2 1_555 1_555
C8_2 C7_2 1_555 1_555
C9_2 C4_2 1_555 1_555
C10_2 C5_2 1_555 1_555
H8_2 C10_2 1_555 1_555
H9_2 C10_2 1_555 1_555
H10_2 C10_2 1_555 1_555
C11_2 C7_2 1_555 1_555
H11_2 C11_2 1_555 1_555
H12_2 C11_2 1_555 1_555
H13_2 C11_2 1_555 1_555
C12_2 C9_2 1_555 1_555
H14_2 C12_2 1_555 1_555
H15_2 C12_2 1_555 1_555
H16_2 C12_2 1_555 1_555
C13_2 C6_2 1_555 1_555
H17_2 C13_2 1_555 1_555
C14_2 C13_2 1_555 1_555
H18_2 C14_2 1_555 1_555
C15_2 C14_2 1_555 1_555
C16_2 C8_2 1_555 1_555
H19_2 C16_2 1_555 1_555
C17_2 C16_2 1_555 1_555
O6_2 C1_2 1_555 1_555
C8_2 C9_2 1_555 1_555
O12_2 In20_7 1_555 1_555
O13_2 C33_2 1_555 1_555
O43 C33_2 1_555 1_555
O47 C36_2 1_555 1_555
H26_2 C29_2 1_555 1_555
H27_2 C29_2 1_555 1_555
C32_2 C31_2 1_555 1_555
H33_2 C32_2 1_555 1_555
C33_2 C32_2 1_555 1_555
H35_2 C35_2 1_555 1_555
C36_2 C35_2 1_555 1_555
O26 C54_2 1_555 1_555
H2_2 O2_2 1_555 1_555
C19_2 O11_2 1_555 1_555
C20_2 C19_2 1_555 1_555
C21_2 C20_2 1_555 1_555
H22_2 C21_2 1_555 1_555
C22_2 C21_2 1_555 1_555
C23_2 C22_2 1_555 1_555
C24_2 C23_2 1_555 1_555
C25_2 C24_2 1_555 1_555
C26_2 C25_2 1_555 1_555
C27_2 C22_2 1_555 1_555
C28_2 C23_2 1_555 1_555
H23_2 C28_2 1_555 1_555
H25_2 C28_2 1_555 1_555
C30_2 C27_2 1_555 1_555
H29_2 C30_2 1_555 1_555
H30_2 C30_2 1_555 1_555
H31_2 C30_2 1_555 1_555
C34_2 C26_2 1_555 1_555
H34_2 C34_2 1_555 1_555
C26_2 C27_2 1_555 1_555

#END
