
###############################################################################
#
# This file contains modified crystal structure data generated from the
# MOF subset of the Cambridge Structural Database (CSD) v543 
# hosted by the Cambridge Crystallographic Data Centre (CCDC).
#
# This work is licensed under the Creative Commons
# Attribution-NonCommercial-ShareAlike 4.0 International License.
# To view a copy of this license, visit
# http://creativecommons.org/licenses/by-nc-sa/4.0/
# or send a letter to
# Creative Commons, PO Box 1866, Mountain View, CA 94042, USA.
#
# CIF created using the CSD Python API on 29 September 2022
# The structure has been converted into the P1 space group
# The structure has a 3D framework
# The original CSD entry VASGII is in the monoclinic crystal system
# The framework has been calculated to contain at least 10.0% void space
# The void calculation uses a probe of radius 1.32A, grid spacing 0.4
#
###############################################################################

data_VASGII
_chemical_formula_moiety         '(C144 H132 In20 O59)n'
_symmetry_cell_setting           triclinic
_symmetry_space_group_name_H-M   'P 1'
_symmetry_Int_Tables_number      1
_space_group_name_Hall           'P 1'
loop_
_symmetry_equiv_pos_site_id
_symmetry_equiv_pos_as_xyz
1 x,y,z
_cell_length_a                   14.7359(2)
_cell_length_b                   24.2569(4)
_cell_length_c                   18.6902(3)
_cell_angle_alpha                90
_cell_angle_beta                 104.883(2)
_cell_angle_gamma                90
_cell_volume                     6456.64
loop_
_atom_site_label
_atom_site_type_symbol
_atom_site_fract_x
_atom_site_fract_y
_atom_site_fract_z
In8 In 0.0000 0.0000 0.0000
In8_2 In 0.0000 0.0000 1.0000
In4 In 0.5000 0.5000 0.0000
O5 O 0.3707(3) 0.53856(19) 0.0095(2)
H4 H 0.2402 0.5998 0.0270
H13 H 0.0169 0.5490 0.0226
H15 H 0.0302 0.8194 0.0147
In8_3 In -0.0000 1.0000 0.0000
O31 O 0.5751(3) 0.55940(17) 0.0736(2)
O42 O 0.4961(3) 0.44705(17) 0.0889(2)
In1 In 0.0000 0.5000 0.5000
In2 In 0.11569(2) 0.46685(2) 0.68894(2)
In3 In 0.32801(2) 0.47062(2) 0.83286(2)
In4_2 In 0.5000 0.5000 1.0000
O1 O 0.4249(3) 0.44060(17) 0.9264(2)
H1 H 0.4343 0.4030 0.9350
O2 O 0.2392(3) 0.50835(17) 0.7406(2)
H2 H 0.2541 0.5422 0.7232
O3 O 0.1256(3) 0.48541(16) 0.5812(2)
H3 H 0.1835 0.4871 0.5700
O4 O 0.2897(3) 0.54143(17) 0.8895(2)
O6 O 0.0071(3) 0.91900(17) 0.8570(2)
O7 O 0.0444(3) 0.91728(17) 0.9815(2)
O11 O 0.0362(3) 0.54059(17) 0.6878(2)
C1 C 0.3028(4) 0.5545(2) 0.9567(3)
C2 C 0.2330(4) 0.5921(3) 0.9772(3)
C3 C 0.1627(4) 0.6145(2) 0.9292(3)
H5 H 0.1563 0.6078 0.8792
C4 C 0.0917(4) 0.6506(2) 0.9508(3)
C5 C 0.0975(4) 0.7080(2) 0.9478(3)
C6 C 0.0313(4) 0.7406(2) 0.9718(3)
C9 C 0.0202(4) 0.6249(2) 0.9767(3)
C10 C 0.1767(5) 0.7338(3) 0.9213(4)
H6 H 0.1715 0.7732 0.9222
H7 H 0.2358 0.7226 0.9532
H8 H 0.1729 0.7218 0.8716
C12 C 0.0110(5) 0.5631(2) 0.9736(4)
H12 H 0.0594 0.5477 0.9538
C13 C 0.0339(4) 0.8017(2) 0.9714(3)
C14 C 0.0410(4) 0.8337(2) 0.9155(3)
H16 H 0.0524 0.8178 0.8734
C15 C 0.0311(4) 0.8943(2) 0.9192(3)
O25 O 0.0685(3) 0.46116(17) 0.4227(2)
O28 O 0.5556(3) 0.48923(18) 0.1976(2)
O29 O 0.3371(3) 0.10311(17) 0.2714(2)
O30 O 0.1922(3) 0.10868(17) 0.1938(2)
H43 H 0.1697 0.2584 0.0010
H47 H 0.0494 0.4468 0.0576
C55 C 0.0404(4) 0.4469(2) 0.3560(3)
C56 C 0.1045(4) 0.4121(3) 0.3254(3)
H52 H 0.1587 0.3983 0.3576
C57 C 0.0873(4) 0.4001(2) 0.2546(3)
H53 H 0.0307 0.4121 0.2237
C58 C 0.1524(4) 0.3687(2) 0.2206(3)
C59 C 0.2186(4) 0.3987(2) 0.1944(3)
C60 C 0.2838(4) 0.3693(2) 0.1663(3)
C61 C 0.2808(4) 0.3115(2) 0.1611(3)
C62 C 0.2141(4) 0.2826(2) 0.1873(3)
C63 C 0.1487(4) 0.3115(2) 0.2166(3)
C64 C 0.2178(5) 0.4608(3) 0.1962(4)
H54 H 0.2673 0.4748 0.1765
H55 H 0.2272 0.4731 0.2464
H56 H 0.1585 0.4741 0.1670
C65 C 0.3501(5) 0.2827(3) 0.1269(4)
H57 H 0.3898 0.3096 0.1124
H58 H 0.3168 0.2623 0.0842
H59 H 0.3879 0.2579 0.1624
C66 C 0.0755(4) 0.2801(3) 0.2442(4)
H60 H 0.0829 0.2413 0.2373
H61 H 0.0139 0.2914 0.2169
H62 H 0.0834 0.2877 0.2959
C67 C 0.3591(4) 0.3990(2) 0.1421(3)
H63 H 0.3592 0.3963 0.0925
C68 C 0.4268(4) 0.4295(3) 0.1862(3)
H64 H 0.4294 0.4330 0.2362
C69 C 0.4966(4) 0.4573(2) 0.1554(3)
C70 C 0.2108(4) 0.2216(2) 0.1888(3)
H65 H 0.1549 0.2046 0.1645
C71 C 0.2827(4) 0.1892(3) 0.2227(3)
H66 H 0.3416 0.2047 0.2422
C72 C 0.2699(4) 0.1291(2) 0.2295(3)
In8_4 In 0.0000 1.0000 1.0000
In12 In 0.11569(2) 0.03315(2) 0.18894(2)
In17 In 0.67199(2) 0.52938(2) 0.16714(2)
In18 In 0.32801(2) 0.02938(2) 0.33286(2)
O32 O 0.6293(3) 0.46144(19) 0.9905(2)
O34 O 0.0071(3) 0.58100(17) 0.3570(2)
O36 O 0.0444(3) 0.58272(17) 0.4815(2)
O38 O 0.2209(3) 0.42532(17) 0.8734(2)
O40 O 0.0860(3) 0.4491(2) 0.7933(2)
O41 O 0.5039(3) 0.55295(17) 0.9111(2)
O43 O 0.4444(3) 0.51077(18) 0.8024(2)
O45 O 0.3371(3) 0.39689(17) 0.7714(2)
O47 O 0.1922(3) 0.39132(17) 0.6938(2)
C43 C 0.0377(4) 0.2850(2) 0.9994(3)
C44 C 0.0428(4) 0.3428(2) 0.9963(3)
C47 C 0.1072(5) 0.2500(3) 0.9726(4)
H42 H 0.0942 0.2117 0.9785
H44 H 0.1017 0.2576 0.9213
C52 C 0.1072(4) 0.3696(2) 0.9575(3)
H50 H 0.1717 0.3663 0.9772
C53 C 0.0754(4) 0.3982(3) 0.8957(3)
H51 H 0.0106 0.4012 0.8778
C54 C 0.1348(4) 0.4261(2) 0.8520(3)
In8_5 In 1.0000 0.0000 0.0000
In8_6 In 1.0000 0.0000 1.0000
O8 O 0.7791(3) 0.57468(17) 0.1266(2)
O9 O 0.9140(3) 0.5509(2) 0.2067(2)
C7 C 0.9623(4) 0.7150(2) 0.0006(3)
C8 C 0.9572(4) 0.6572(2) 0.0037(3)
C11 C 0.8928(5) 0.7500(3) 0.0274(4)
H9 H 0.9058 0.7883 0.0215
H11 H 0.8983 0.7424 0.0787
C16 C 0.8928(4) 0.6304(2) 0.0425(3)
H17 H 0.8283 0.6337 0.0228
C17 C 0.9246(4) 0.6018(3) 0.1043(3)
H18 H 0.9894 0.5988 0.1222
C18 C 0.8652(4) 0.5739(2) 0.1480(3)
In8_7 In 1.0000 1.0000 0.0000
In11 In 0.88431(2) 0.53315(2) 0.31106(2)
In1_2 In 1.0000 0.5000 0.5000
O10 O 0.9315(3) 0.53884(17) 0.5773(2)
O14 O 0.6629(3) 0.89689(17) 0.7286(2)
O15 O 0.8078(3) 0.89132(17) 0.8062(2)
H10 H 0.8303 0.7416 0.9990
H14 H 0.9506 0.5532 0.9424
C19 C 0.9596(4) 0.5531(2) 0.6440(3)
C20 C 0.8955(4) 0.5879(3) 0.6746(3)
H19 H 0.8413 0.6017 0.6424
C21 C 0.9127(4) 0.5999(2) 0.7454(3)
H20 H 0.9693 0.5879 0.7763
C22 C 0.8476(4) 0.6313(2) 0.7794(3)
C23 C 0.7814(4) 0.6013(2) 0.8056(3)
C24 C 0.7162(4) 0.6307(2) 0.8337(3)
C25 C 0.7192(4) 0.6885(2) 0.8389(3)
C26 C 0.7859(4) 0.7174(2) 0.8127(3)
C27 C 0.8513(4) 0.6885(2) 0.7834(3)
C28 C 0.7822(5) 0.5392(3) 0.8038(4)
H21 H 0.7327 0.5252 0.8235
H22 H 0.7728 0.5269 0.7536
H23 H 0.8415 0.5259 0.8330
C29 C 0.6499(5) 0.7173(3) 0.8731(4)
H24 H 0.6102 0.6904 0.8876
H25 H 0.6832 0.7377 0.9158
H26 H 0.6121 0.7421 0.8376
C30 C 0.9245(4) 0.7199(3) 0.7558(4)
H27 H 0.9171 0.7587 0.7627
H28 H 0.9861 0.7086 0.7831
H29 H 0.9166 0.7123 0.7041
C31 C 0.6409(4) 0.6010(2) 0.8579(3)
H30 H 0.6408 0.6037 0.9075
C32 C 0.5732(4) 0.5705(3) 0.8138(3)
H31 H 0.5706 0.5670 0.7638
C33 C 0.5034(4) 0.5427(2) 0.8446(3)
C34 C 0.7892(4) 0.7784(2) 0.8112(3)
H32 H 0.8451 0.7954 0.8355
C35 C 0.7173(4) 0.8108(3) 0.7773(3)
H33 H 0.6584 0.7953 0.7578
C36 C 0.7301(4) 0.8709(2) 0.7705(3)
H34 H 0.5657 0.5970 0.0650
O17 O 0.7608(3) 0.49165(17) 0.2594(2)
H35 H 0.7459 0.4578 0.2768
O18 O 0.8744(3) 0.51459(16) 0.4188(2)
H36 H 0.8165 0.5129 0.4300
O19 O 0.7103(3) 0.45857(17) 0.1105(2)
O21 O 0.9929(3) 0.08100(17) 0.1430(2)
O22 O 0.9556(3) 0.08272(17) 0.0185(2)
O26 O 0.9638(3) 0.45941(17) 0.3122(2)
C37 C 0.6972(4) 0.4455(2) 0.0433(3)
C38 C 0.7670(4) 0.4079(3) 0.0228(3)
C39 C 0.8373(4) 0.3855(2) 0.0708(3)
H38 H 0.8437 0.3922 0.1208
C40 C 0.9083(4) 0.3494(2) 0.0492(3)
C41 C 0.9025(4) 0.2920(2) 0.0522(3)
C42 C 0.9687(4) 0.2594(2) 0.0282(3)
C45 C 0.9798(4) 0.3751(2) 0.0233(3)
C46 C 0.8233(5) 0.2662(3) 0.0787(4)
H39 H 0.8285 0.2268 0.0778
H40 H 0.7642 0.2774 0.0468
H41 H 0.8271 0.2782 0.1284
C48 C 0.9890(5) 0.4369(2) 0.0264(4)
H45 H 0.9406 0.4523 0.0462
C49 C 0.9661(4) 0.1983(2) 0.0286(3)
C50 C 0.9590(4) 0.1663(2) 0.0845(3)
H49 H 0.9476 0.1822 0.1266
C51 C 0.9689(4) 0.1057(2) 0.0808(3)
In8_8 In 1.0000 1.0000 1.0000
In10 In 0.88431(2) 0.96685(2) 0.81106(2)
In15 In 0.67199(2) 0.97062(2) 0.66714(2)
O33 O 0.9929(3) 0.41900(17) 0.6430(2)
O35 O 0.9556(3) 0.41728(17) 0.5185(2)
O46 O 0.6629(3) 0.60311(17) 0.2286(2)
O48 O 0.8078(3) 0.60868(17) 0.3062(2)
H37 H 0.7598 0.4002 0.9730
H46 H 0.9831 0.4510 0.9774
H48 H 0.9698 0.1806 0.9853
O16 O 0.4249(3) 0.05940(17) 0.4264(2)
H34_2 H 0.4343 0.0970 0.4350
O18_2 O 0.1256(3) 0.01459(16) 0.0812(2)
H36_2 H 0.1835 0.0129 0.0700
In19 In 0.5000 0.0000 0.5000
O37 O 0.2209(3) 0.07468(17) 0.3734(2)
O39 O 0.0860(3) 0.0509(2) 0.2933(2)
O10_2 O 0.0685(3) 0.03884(17) 0.9227(2)
O12 O 0.4961(3) 0.05295(17) 0.5889(2)
O13 O 0.5556(3) 0.01077(18) 0.6976(2)
C7_2 C 0.0377(4) 0.2150(2) 0.4994(3)
C8_2 C 0.0428(4) 0.1572(2) 0.4963(3)
C11_2 C 0.1072(5) 0.2500(3) 0.4726(4)
H9_2 H 0.0942 0.2883 0.4785
H10_2 H 0.1697 0.2416 0.5010
H11_2 H 0.1017 0.2424 0.4213
H14_2 H 0.0494 0.0532 0.5576
C16_2 C 0.1072(4) 0.1304(2) 0.4575(3)
H17_2 H 0.1717 0.1337 0.4772
C17_2 C 0.0754(4) 0.1018(3) 0.3957(3)
H18_2 H 0.0106 0.0988 0.3778
C18_2 C 0.1348(4) 0.0739(2) 0.3520(3)
C19_2 C 0.0404(4) 0.0531(2) 0.8560(3)
C20_2 C 0.1045(4) 0.0879(3) 0.8254(3)
H19_2 H 0.1587 0.1017 0.8576
C21_2 C 0.0873(4) 0.0999(2) 0.7546(3)
H20_2 H 0.0307 0.0879 0.7237
C22_2 C 0.1524(4) 0.1313(2) 0.7206(3)
C23_2 C 0.2186(4) 0.1013(2) 0.6944(3)
C24_2 C 0.2838(4) 0.1307(2) 0.6663(3)
C25_2 C 0.2808(4) 0.1885(2) 0.6611(3)
C26_2 C 0.2141(4) 0.2174(2) 0.6873(3)
C27_2 C 0.1487(4) 0.1885(2) 0.7166(3)
C28_2 C 0.2178(5) 0.0392(3) 0.6962(4)
H21_2 H 0.2673 0.0252 0.6765
H22_2 H 0.2272 0.0269 0.7464
H23_2 H 0.1585 0.0259 0.6670
C29_2 C 0.3501(5) 0.2173(3) 0.6269(4)
H24_2 H 0.3898 0.1904 0.6124
H25_2 H 0.3168 0.2377 0.5842
H26_2 H 0.3879 0.2421 0.6624
C30_2 C 0.0755(4) 0.2199(3) 0.7442(4)
H27_2 H 0.0829 0.2587 0.7373
H28_2 H 0.0139 0.2086 0.7169
H29_2 H 0.0834 0.2123 0.7959
C31_2 C 0.3591(4) 0.1010(2) 0.6421(3)
H30_2 H 0.3592 0.1037 0.5925
C32_2 C 0.4268(4) 0.0705(3) 0.6862(3)
H31_2 H 0.4294 0.0670 0.7362
C33_2 C 0.4966(4) 0.0427(2) 0.6554(3)
C34_2 C 0.2108(4) 0.2784(2) 0.6888(3)
H32_2 H 0.1549 0.2954 0.6645
C35_2 C 0.2827(4) 0.3108(3) 0.7227(3)
H33_2 H 0.3416 0.2953 0.7422
C36_2 C 0.2699(4) 0.3709(2) 0.7295(3)
O17_2 O 0.2392(3) 0.99165(17) 0.2406(2)
H35_2 H 0.2541 0.9578 0.2232
O19_2 O 0.2897(3) 0.95857(17) 0.3895(2)
O20 O 0.3707(3) 0.96144(19) 0.5095(2)
O26_2 O 0.0362(3) 0.95941(17) 0.1878(2)
C37_2 C 0.3028(4) 0.9455(2) 0.4567(3)
C38_2 C 0.2330(4) 0.9079(3) 0.4772(3)
H37_2 H 0.2402 0.9002 0.5270
C39_2 C 0.1627(4) 0.8855(2) 0.4292(3)
H38_2 H 0.1563 0.8922 0.3792
C40_2 C 0.0917(4) 0.8494(2) 0.4508(3)
C41_2 C 0.0975(4) 0.7920(2) 0.4478(3)
C42_2 C 0.0313(4) 0.7594(2) 0.4718(3)
C45_2 C 0.0202(4) 0.8751(2) 0.4767(3)
C46_2 C 0.1767(5) 0.7662(3) 0.4213(4)
H39_2 H 0.1715 0.7268 0.4222
H40_2 H 0.2358 0.7774 0.4532
H41_2 H 0.1729 0.7782 0.3716
C48_2 C 0.0110(5) 0.9369(2) 0.4736(4)
H45_2 H 0.0594 0.9523 0.4538
H46_2 H 0.0169 0.9510 0.5226
C49_2 C 0.0339(4) 0.6983(2) 0.4714(3)
H48_2 H 0.0302 0.6806 0.5147
C50_2 C 0.0410(4) 0.6663(2) 0.4155(3)
H49_2 H 0.0524 0.6822 0.3734
C51_2 C 0.0311(4) 0.6057(2) 0.4192(3)
In19_2 In 0.5000 1.0000 0.5000
O44 O 0.4444(3) 0.98923(18) 0.3024(2)
O2_2 O 0.7608(3) 0.00835(17) 0.7594(2)
H2_2 H 0.7459 0.0422 0.7768
O4_2 O 0.7103(3) 0.04143(17) 0.6105(2)
O5_2 O 0.6293(3) 0.03856(19) 0.4905(2)
O11_2 O 0.9638(3) 0.04059(17) 0.8122(2)
C1_2 C 0.6972(4) 0.0545(2) 0.5433(3)
C2_2 C 0.7670(4) 0.0921(3) 0.5228(3)
H4_2 H 0.7598 0.0998 0.4730
C3_2 C 0.8373(4) 0.1145(2) 0.5708(3)
H5_2 H 0.8437 0.1078 0.6208
C4_2 C 0.9083(4) 0.1506(2) 0.5492(3)
C5_2 C 0.9025(4) 0.2080(2) 0.5522(3)
C6_2 C 0.9687(4) 0.2406(2) 0.5282(3)
C9_2 C 0.9798(4) 0.1249(2) 0.5233(3)
C10_2 C 0.8233(5) 0.2338(3) 0.5787(4)
H6_2 H 0.8285 0.2732 0.5778
H7_2 H 0.7642 0.2226 0.5468
H8_2 H 0.8271 0.2218 0.6284
C12_2 C 0.9890(5) 0.0631(2) 0.5264(4)
H12_2 H 0.9406 0.0477 0.5462
H13_2 H 0.9831 0.0490 0.4774
C13_2 C 0.9661(4) 0.3017(2) 0.5286(3)
H15_2 H 0.9698 0.3194 0.4853
C14_2 C 0.9590(4) 0.3337(2) 0.5845(3)
H16_2 H 0.9476 0.3178 0.6266
C15_2 C 0.9689(4) 0.3943(2) 0.5808(3)
O23 O 0.7791(3) 0.92532(17) 0.6266(2)
O24 O 0.9140(3) 0.9491(2) 0.7067(2)
O25_2 O 0.9315(3) 0.96116(17) 0.0773(2)
O27 O 0.5039(3) 0.94705(17) 0.4111(2)
C43_2 C 0.9623(4) 0.7850(2) 0.5006(3)
C44_2 C 0.9572(4) 0.8428(2) 0.5037(3)
C47_2 C 0.8928(5) 0.7500(3) 0.5274(4)
H42_2 H 0.9058 0.7117 0.5215
H43_2 H 0.8303 0.7584 0.4990
H44_2 H 0.8983 0.7576 0.5787
H47_2 H 0.9506 0.9468 0.4424
C52_2 C 0.8928(4) 0.8696(2) 0.5425(3)
H50_2 H 0.8283 0.8663 0.5228
C53_2 C 0.9246(4) 0.8982(3) 0.6043(3)
H51_2 H 0.9894 0.9012 0.6222
C54_2 C 0.8652(4) 0.9261(2) 0.6480(3)
C55_2 C 0.9596(4) 0.9469(2) 0.1440(3)
C56_2 C 0.8955(4) 0.9121(3) 0.1746(3)
H52_2 H 0.8413 0.8983 0.1424
C57_2 C 0.9127(4) 0.9001(2) 0.2454(3)
H53_2 H 0.9693 0.9121 0.2763
C58_2 C 0.8476(4) 0.8687(2) 0.2794(3)
C59_2 C 0.7814(4) 0.8987(2) 0.3056(3)
C60_2 C 0.7162(4) 0.8693(2) 0.3337(3)
C61_2 C 0.7192(4) 0.8115(2) 0.3389(3)
C62_2 C 0.7859(4) 0.7826(2) 0.3127(3)
C63_2 C 0.8513(4) 0.8115(2) 0.2834(3)
C64_2 C 0.7822(5) 0.9608(3) 0.3038(4)
H54_2 H 0.7327 0.9748 0.3235
H55_2 H 0.7728 0.9731 0.2536
H56_2 H 0.8415 0.9741 0.3330
C65_2 C 0.6499(5) 0.7827(3) 0.3731(4)
H57_2 H 0.6102 0.8096 0.3876
H58_2 H 0.6832 0.7623 0.4158
H59_2 H 0.6121 0.7579 0.3376
C66_2 C 0.9245(4) 0.7801(3) 0.2558(4)
H60_2 H 0.9171 0.7413 0.2627
H61_2 H 0.9861 0.7914 0.2831
H62_2 H 0.9166 0.7877 0.2041
C67_2 C 0.6409(4) 0.8990(2) 0.3579(3)
H63_2 H 0.6408 0.8963 0.4075
C68_2 C 0.5732(4) 0.9295(3) 0.3138(3)
H64_2 H 0.5706 0.9330 0.2638
C69_2 C 0.5034(4) 0.9573(2) 0.3446(3)
C70_2 C 0.7892(4) 0.7216(2) 0.3112(3)
H65_2 H 0.8451 0.7046 0.3355
C71_2 C 0.7173(4) 0.6892(3) 0.2773(3)
H66_2 H 0.6584 0.7047 0.2578
C72_2 C 0.7301(4) 0.6291(2) 0.2705(3)
O1_2 O 0.5751(3) 0.94060(17) 0.5736(2)
H1_2 H 0.5657 0.9030 0.5650
O3_2 O 0.8744(3) 0.98541(16) 0.9188(2)
H3_2 H 0.8165 0.9871 0.9300
loop_
_geom_bond_atom_site_label_1
_geom_bond_atom_site_label_2
_geom_bond_site_symmetry_1
_geom_bond_site_symmetry_2
O5 In4 1_555 1_555
O31 In4 1_555 1_555
O42 In4 1_555 1_555
In1 O3 1_555 1_555
In2 O2 1_555 1_555
In3 O1 1_555 1_555
In4_2 O1 1_555 1_555
O1 H1 1_555 1_555
O2 In3 1_555 1_555
H2 O2 1_555 1_555
O3 In2 1_555 1_555
H3 O3 1_555 1_555
O4 In3 1_555 1_555
O6 C15 1_555 1_555
O7 C15 1_555 1_555
O11 In2 1_555 1_555
C1 O4 1_555 1_555
C2 C1 1_555 1_555
C3 C2 1_555 1_555
H5 C3 1_555 1_555
C4 C3 1_555 1_555
C5 C4 1_555 1_555
C6 C5 1_555 1_555
C9 C4 1_555 1_555
C10 C5 1_555 1_555
H6 C10 1_555 1_555
H7 C10 1_555 1_555
H8 C10 1_555 1_555
C12 C9 1_555 1_555
H12 C12 1_555 1_555
C13 C6 1_555 1_555
C14 C13 1_555 1_555
H16 C14 1_555 1_555
C15 C14 1_555 1_555
O25 In1 1_555 1_555
O42 C69 1_555 1_555
O28 C69 1_555 1_555
O29 C72 1_555 1_555
O30 C72 1_555 1_555
C55 O25 1_555 1_555
C56 C55 1_555 1_555
H52 C56 1_555 1_555
C57 C56 1_555 1_555
H53 C57 1_555 1_555
C58 C57 1_555 1_555
C59 C58 1_555 1_555
C60 C59 1_555 1_555
C61 C60 1_555 1_555
C62 C61 1_555 1_555
C63 C58 1_555 1_555
C64 C59 1_555 1_555
H54 C64 1_555 1_555
H55 C64 1_555 1_555
H56 C64 1_555 1_555
C65 C61 1_555 1_555
H57 C65 1_555 1_555
H58 C65 1_555 1_555
H59 C65 1_555 1_555
C66 C63 1_555 1_555
H60 C66 1_555 1_555
H61 C66 1_555 1_555
H62 C66 1_555 1_555
C67 C60 1_555 1_555
H63 C67 1_555 1_555
C68 C67 1_555 1_555
H64 C68 1_555 1_555
C69 C68 1_555 1_555
C70 C62 1_555 1_555
H65 C70 1_555 1_555
C71 C70 1_555 1_555
H66 C71 1_555 1_555
C72 C71 1_555 1_555
In8_4 O7 1_555 1_555
In17 O28 1_555 1_555
In18 O29 1_555 1_555
O32 In4_2 1_555 1_555
O36 In1 1_555 1_555
O38 In3 1_555 1_555
O40 In2 1_555 1_555
O41 In4_2 1_555 1_555
O43 In3 1_555 1_555
O45 In3 1_555 1_555
O47 In2 1_555 1_555
O30 In12 1_555 1_555
C62 C63 1_555 1_555
O38 C54 1_555 1_555
O40 C54 1_555 1_555
C44 C43 1_555 1_555
C47 C43 1_555 1_555
H42 C47 1_555 1_555
H44 C47 1_555 1_555
C52 C44 1_555 1_555
H50 C52 1_555 1_555
C53 C52 1_555 1_555
H51 C53 1_555 1_555
C54 C53 1_555 1_555
O8 C18 1_555 1_555
O9 C18 1_555 1_555
C8 C7 1_555 1_555
C11 C7 1_555 1_555
H9 C11 1_555 1_555
H11 C11 1_555 1_555
C16 C8 1_555 1_555
H17 C16 1_555 1_555
C17 C16 1_555 1_555
H18 C17 1_555 1_555
C18 C17 1_555 1_555
In11 O9 1_555 1_555
In17 O8 1_555 1_555
O10 In1_2 1_555 1_555
O41 C33 1_555 1_555
O43 C33 1_555 1_555
O14 C36 1_555 1_555
O15 C36 1_555 1_555
C19 O10 1_555 1_555
C20 C19 1_555 1_555
H19 C20 1_555 1_555
C21 C20 1_555 1_555
H20 C21 1_555 1_555
C22 C21 1_555 1_555
C23 C22 1_555 1_555
C24 C23 1_555 1_555
C25 C24 1_555 1_555
C26 C25 1_555 1_555
C27 C22 1_555 1_555
C28 C23 1_555 1_555
H21 C28 1_555 1_555
H22 C28 1_555 1_555
H23 C28 1_555 1_555
C29 C25 1_555 1_555
H24 C29 1_555 1_555
H25 C29 1_555 1_555
H26 C29 1_555 1_555
C30 C27 1_555 1_555
H27 C30 1_555 1_555
H28 C30 1_555 1_555
H29 C30 1_555 1_555
C31 C24 1_555 1_555
H30 C31 1_555 1_555
C32 C31 1_555 1_555
H31 C32 1_555 1_555
C33 C32 1_555 1_555
C34 C26 1_555 1_555
H32 C34 1_555 1_555
C35 C34 1_555 1_555
H33 C35 1_555 1_555
C36 C35 1_555 1_555
In11 O17 1_555 1_555
In17 O31 1_555 1_555
O31 H34 1_555 1_555
O17 In17 1_555 1_555
H35 O17 1_555 1_555
O18 In1_2 1_555 1_555
H36 O18 1_555 1_555
O19 In17 1_555 1_555
O21 C51 1_555 1_555
O22 C51 1_555 1_555
O26 In11 1_555 1_555
C37 O19 1_555 1_555
C38 C37 1_555 1_555
C39 C38 1_555 1_555
H38 C39 1_555 1_555
C40 C39 1_555 1_555
C41 C40 1_555 1_555
C42 C41 1_555 1_555
C45 C40 1_555 1_555
C46 C41 1_555 1_555
H39 C46 1_555 1_555
H40 C46 1_555 1_555
H41 C46 1_555 1_555
C48 C45 1_555 1_555
H45 C48 1_555 1_555
C49 C42 1_555 1_555
C50 C49 1_555 1_555
H49 C50 1_555 1_555
C51 C50 1_555 1_555
In8_5 O22 1_555 1_555
In15 O14 1_555 1_555
O35 In1_2 1_555 1_555
O46 In17 1_555 1_555
O48 In11 1_555 1_555
O15 In10 1_555 1_555
C26 C27 1_555 1_555
In11 O18 1_555 1_555
In18 O16 1_555 1_555
O16 H34_2 1_555 1_555
O18_2 In8 1_555 1_555
H36_2 O18_2 1_555 1_555
In19 O16 1_555 1_555
O37 In18 1_555 1_555
O39 In12 1_555 1_555
In12 O18_2 1_555 1_555
O37 C18_2 1_555 1_555
O39 C18_2 1_555 1_555
O10_2 In8_2 1_555 1_555
O12 C33_2 1_555 1_555
O13 C33_2 1_555 1_555
O45 C36_2 1_555 1_555
O47 C36_2 1_555 1_555
C8_2 C7_2 1_555 1_555
C11_2 C7_2 1_555 1_555
H9_2 C11_2 1_555 1_555
H10_2 C11_2 1_555 1_555
H11_2 C11_2 1_555 1_555
C16_2 C8_2 1_555 1_555
H17_2 C16_2 1_555 1_555
C17_2 C16_2 1_555 1_555
H18_2 C17_2 1_555 1_555
C18_2 C17_2 1_555 1_555
C19_2 O10_2 1_555 1_555
C20_2 C19_2 1_555 1_555
H19_2 C20_2 1_555 1_555
C21_2 C20_2 1_555 1_555
H20_2 C21_2 1_555 1_555
C22_2 C21_2 1_555 1_555
C23_2 C22_2 1_555 1_555
C24_2 C23_2 1_555 1_555
C25_2 C24_2 1_555 1_555
C26_2 C25_2 1_555 1_555
C27_2 C22_2 1_555 1_555
C28_2 C23_2 1_555 1_555
H21_2 C28_2 1_555 1_555
H22_2 C28_2 1_555 1_555
H23_2 C28_2 1_555 1_555
C29_2 C25_2 1_555 1_555
H24_2 C29_2 1_555 1_555
H25_2 C29_2 1_555 1_555
H26_2 C29_2 1_555 1_555
C30_2 C27_2 1_555 1_555
H27_2 C30_2 1_555 1_555
H28_2 C30_2 1_555 1_555
H29_2 C30_2 1_555 1_555
C31_2 C24_2 1_555 1_555
H30_2 C31_2 1_555 1_555
C32_2 C31_2 1_555 1_555
H31_2 C32_2 1_555 1_555
C33_2 C32_2 1_555 1_555
C34_2 C26_2 1_555 1_555
H32_2 C34_2 1_555 1_555
C35_2 C34_2 1_555 1_555
H33_2 C35_2 1_555 1_555
C36_2 C35_2 1_555 1_555
In19 O12 1_555 1_555
C26_2 C27_2 1_555 1_555
H35_2 O17_2 1_555 1_555
O20 C37_2 1_555 1_555
O34 C51_2 1_555 1_555
O36 C51_2 1_555 1_555
C37_2 O19_2 1_555 1_555
C38_2 C37_2 1_555 1_555
H37_2 C38_2 1_555 1_555
C39_2 C38_2 1_555 1_555
H38_2 C39_2 1_555 1_555
C40_2 C39_2 1_555 1_555
C41_2 C40_2 1_555 1_555
C42_2 C41_2 1_555 1_555
C45_2 C40_2 1_555 1_555
C46_2 C41_2 1_555 1_555
H39_2 C46_2 1_555 1_555
H40_2 C46_2 1_555 1_555
H41_2 C46_2 1_555 1_555
C48_2 C45_2 1_555 1_555
H45_2 C48_2 1_555 1_555
H46_2 C48_2 1_555 1_555
C49_2 C42_2 1_555 1_555
H48_2 C49_2 1_555 1_555
C50_2 C49_2 1_555 1_555
H49_2 C50_2 1_555 1_555
C51_2 C50_2 1_555 1_555
O20 In19_2 1_555 1_555
H2_2 O2_2 1_555 1_555
O5_2 In19 1_555 1_555
O33 C15_2 1_555 1_555
O35 C15_2 1_555 1_555
C1_2 O4_2 1_555 1_555
C2_2 C1_2 1_555 1_555
H4_2 C2_2 1_555 1_555
C3_2 C2_2 1_555 1_555
H5_2 C3_2 1_555 1_555
C4_2 C3_2 1_555 1_555
C5_2 C4_2 1_555 1_555
C6_2 C5_2 1_555 1_555
C9_2 C4_2 1_555 1_555
C10_2 C5_2 1_555 1_555
H6_2 C10_2 1_555 1_555
H7_2 C10_2 1_555 1_555
H8_2 C10_2 1_555 1_555
C12_2 C9_2 1_555 1_555
H12_2 C12_2 1_555 1_555
H13_2 C12_2 1_555 1_555
C13_2 C6_2 1_555 1_555
H15_2 C13_2 1_555 1_555
C14_2 C13_2 1_555 1_555
H16_2 C14_2 1_555 1_555
C15_2 C14_2 1_555 1_555
O5_2 C1_2 1_555 1_555
O23 C54_2 1_555 1_555
O24 C54_2 1_555 1_555
O25_2 In8_7 1_555 1_555
O27 C69_2 1_555 1_555
O44 C69_2 1_555 1_555
O46 C72_2 1_555 1_555
O48 C72_2 1_555 1_555
C44_2 C43_2 1_555 1_555
C47_2 C43_2 1_555 1_555
H42_2 C47_2 1_555 1_555
H43_2 C47_2 1_555 1_555
H44_2 C47_2 1_555 1_555
C52_2 C44_2 1_555 1_555
H50_2 C52_2 1_555 1_555
C53_2 C52_2 1_555 1_555
H51_2 C53_2 1_555 1_555
C54_2 C53_2 1_555 1_555
C55_2 O25_2 1_555 1_555
C56_2 C55_2 1_555 1_555
H52_2 C56_2 1_555 1_555
C57_2 C56_2 1_555 1_555
H53_2 C57_2 1_555 1_555
C58_2 C57_2 1_555 1_555
C59_2 C58_2 1_555 1_555
C60_2 C59_2 1_555 1_555
C61_2 C60_2 1_555 1_555
C62_2 C61_2 1_555 1_555
C63_2 C58_2 1_555 1_555
C64_2 C59_2 1_555 1_555
H54_2 C64_2 1_555 1_555
H55_2 C64_2 1_555 1_555
H56_2 C64_2 1_555 1_555
C65_2 C61_2 1_555 1_555
H57_2 C65_2 1_555 1_555
H58_2 C65_2 1_555 1_555
H59_2 C65_2 1_555 1_555
C66_2 C63_2 1_555 1_555
H60_2 C66_2 1_555 1_555
H61_2 C66_2 1_555 1_555
H62_2 C66_2 1_555 1_555
C67_2 C60_2 1_555 1_555
H63_2 C67_2 1_555 1_555
C68_2 C67_2 1_555 1_555
H64_2 C68_2 1_555 1_555
C69_2 C68_2 1_555 1_555
C70_2 C62_2 1_555 1_555
H65_2 C70_2 1_555 1_555
C71_2 C70_2 1_555 1_555
H66_2 C71_2 1_555 1_555
C72_2 C71_2 1_555 1_555
In10 O24 1_555 1_555
In15 O23 1_555 1_555
In19_2 O27 1_555 1_555
C62_2 C63_2 1_555 1_555
In8_8 O3_2 1_555 1_555
In15 O1_2 1_555 1_555
In19_2 O1_2 1_555 1_555
O1_2 H1_2 1_555 1_555
O3_2 In10 1_555 1_555
H3_2 O3_2 1_555 1_555

#END
