
###############################################################################
#
# This file contains modified crystal structure data generated from the
# MOF subset of the Cambridge Structural Database (CSD) v543 
# hosted by the Cambridge Crystallographic Data Centre (CCDC).
#
# This work is licensed under the Creative Commons
# Attribution-NonCommercial-ShareAlike 4.0 International License.
# To view a copy of this license, visit
# http://creativecommons.org/licenses/by-nc-sa/4.0/
# or send a letter to
# Creative Commons, PO Box 1866, Mountain View, CA 94042, USA.
#
# CIF created using the CSD Python API on 29 September 2022
# The structure has been converted into the P1 space group
# The structure has a 3D framework
# The original CSD entry VASPUE is in the monoclinic crystal system
# The framework has been calculated to contain at least 10.0% void space
# The void calculation uses a probe of radius 1.32A, grid spacing 0.4
#
###############################################################################

data_VASPUE
_chemical_formula_moiety         '(C116 H144 N88 O132 S16 Zn30)n'
_symmetry_cell_setting           triclinic
_symmetry_space_group_name_H-M   'P 1'
_symmetry_Int_Tables_number      1
_space_group_name_Hall           'P 1'
loop_
_symmetry_equiv_pos_site_id
_symmetry_equiv_pos_as_xyz
1 x,y,z
_cell_length_a                   24.841(5)
_cell_length_b                   14.724(3)
_cell_length_c                   20.723(4)
_cell_angle_alpha                90
_cell_angle_beta                 102.79(3)
_cell_angle_gamma                90
_cell_volume                     7391.56
loop_
_atom_site_label
_atom_site_type_symbol
_atom_site_fract_x
_atom_site_fract_y
_atom_site_fract_z
Zn5 Zn 0.86686(3) 0.39443(5) 0.00176(4)
Zn6 Zn 0.63169(2) 0.39542(5) 0.01578(4)
Zn7 Zn 0.48423(3) 0.24854(4) 0.00186(4)
S4 S 0.60139(6) 0.24144(10) 0.10421(8)
O18 O 0.8701(2) 0.5593(4) 0.0781(3)
O19 O 0.9165(2) 0.6850(3) 0.0776(3)
O24 O 0.60451(16) 0.3398(3) 0.0893(2)
O25 O 0.54454(15) 0.2091(3) 0.0744(2)
O26 O 0.64078(15) 0.1914(3) 0.0731(2)
O27 O 0.6137(2) 0.2255(3) 0.1738(2)
N16 N 0.9006(2) 0.6105(4) 0.0552(3)
N17 N 0.80203(18) 0.3796(4) 0.0424(3)
N18 N 0.71309(17) 0.3843(3) 0.0468(3)
N20 N 0.46075(19) 0.3679(3) 0.0287(3)
N21 N 0.41861(18) 0.5040(3) 0.0228(3)
C23 C 0.7514(2) 0.4065(4) 0.0142(3)
C24 C 0.7418(2) 0.3406(5) 0.1021(3)
H33 H 0.726583 0.317079 0.136926
C25 C 0.7961(2) 0.3366(5) 0.0987(3)
H34 H 0.824878 0.308511 0.130254
C27 C 0.4586(2) 0.5012(4) 0.0787(3)
H35 H 0.467197 0.548552 0.110485
C28 C 0.4847(3) 0.4188(4) 0.0820(3)
H36 H 0.514834 0.400219 0.116204
Zn13 Zn 0.98423(3) 0.74854(4) 0.00186(4)
O36 O 0.92414(15) 0.3422(3) 0.0771(2)
Zn1 Zn 0.13314(3) 0.39443(5) 0.49824(4)
Zn2 Zn 0.36831(2) 0.39542(5) 0.48422(4)
Zn3 Zn 0.51577(3) 0.24854(4) 0.49814(4)
Zn4 Zn 0.500000 0.26853(8) 0.750000
S1 S 0.43170(6) 0.25352(9) 0.59394(8)
S2 S 0.39861(6) 0.24144(10) 0.39579(8)
O1 O 0.1299(2) 0.5593(4) 0.4219(3)
O2 O 0.0835(2) 0.6850(3) 0.4224(3)
O3 O 0.22189(18) 0.4714(4) 0.5724(3)
O4 O 0.30921(18) 0.4789(4) 0.5682(3)
O5 O 0.60740(19) 0.3216(3) 0.5869(3)
O6 O 0.6473(2) 0.4540(3) 0.5939(3)
O7 O 0.39549(16) 0.3398(3) 0.4107(2)
O8 O 0.45546(15) 0.2091(3) 0.4256(2)
O9 O 0.35922(15) 0.1914(3) 0.4269(2)
O10 O 0.3863(2) 0.2255(3) 0.3262(2)
O11 O 0.48262(15) 0.2852(3) 0.5752(2)
O12 O 0.38389(15) 0.3052(3) 0.5581(2)
O13 O 0.42414(15) 0.1578(3) 0.5771(2)
O14 O 0.43663(18) 0.2678(3) 0.6640(2)
O15 O 0.500000 0.1303(7) 0.750000
O16 O 0.500000 0.4112(7) 0.750000
O17 O 0.4389(2) 0.2747(5) 0.8005(3)
H1 H 0.440511 0.227805 0.829033
H2 H 0.405622 0.266420 0.772979
N1 N 0.09494(18) 0.4998(3) 0.5306(3)
N2 N 0.05155(18) 0.6318(3) 0.5316(3)
N3 N 0.0994(2) 0.6105(4) 0.4448(3)
N4 N 0.19797(18) 0.3796(4) 0.4576(3)
N5 N 0.28691(17) 0.3843(3) 0.4532(3)
N6 N 0.2604(2) 0.4550(4) 0.5453(3)
N7 N 0.53925(19) 0.3679(3) 0.4713(3)
N8 N 0.58139(18) 0.5040(3) 0.4772(3)
N9 N 0.6125(2) 0.3980(4) 0.5662(3)
N11 N 0.5519(8) 0.5464(7) 0.7475(5)
C1 C 0.0817(2) 0.5796(4) 0.5018(3)
C2 C 0.0450(2) 0.5816(4) 0.5847(3)
H3 H 0.025645 0.600019 0.617240
C3 C 0.0710(2) 0.5002(4) 0.5828(3)
H4 H 0.071993 0.451755 0.613356
C4 C 0.2486(2) 0.4065(4) 0.4858(3)
C5 C 0.2582(2) 0.3406(5) 0.3979(3)
H5 H 0.273417 0.317079 0.363074
C6 C 0.2039(2) 0.3366(5) 0.4013(3)
H6 H 0.175122 0.308511 0.369746
C7 C 0.5781(2) 0.4234(4) 0.5055(3)
C8 C 0.5414(2) 0.5012(4) 0.4213(3)
H7 H 0.532803 0.548552 0.389515
C9 C 0.5153(3) 0.4188(4) 0.4180(3)
H8 H 0.485166 0.400219 0.383796
C10 C 0.500000 0.0456(10) 0.750000
C12 C 0.4004(4) 0.0302(8) 0.7359(5)
H12 H 0.396806 0.080611 0.765551
H13 H 0.391726 0.051593 0.690019
C13 C 0.500000 0.4990(10) 0.750000
C14 C 0.5266(18) 0.6445(11) 0.7515(15)
H14 H 0.545603 0.673504 0.793530
H15 H 0.534089 0.681874 0.714757
C15 C 0.6149(11) 0.505(2) 0.7590(10)
H16 H 0.640674 0.553116 0.754100
H17 H 0.625670 0.478651 0.803567
H18 H 0.615815 0.457002 0.726156
C17 C 0.5996(4) 0.0302(8) 0.7641(5)
H22 H 0.603194 0.080611 0.734449
H23 H 0.608274 0.051593 0.809981
N13 N 0.4481(8) 0.5464(7) 0.7525(5)
C18 C 0.4734(18) 0.6445(11) 0.7485(15)
H24 H 0.454397 0.673504 0.706470
H25 H 0.465911 0.681874 0.785243
C19 C 0.3851(11) 0.505(2) 0.7410(10)
H26 H 0.359326 0.553116 0.745900
H27 H 0.374330 0.478651 0.696433
H28 H 0.384185 0.457002 0.773844
S3 S 0.56830(6) 0.25352(9) 0.90606(8)
O20 O 0.77811(18) 0.4714(4) 0.9276(3)
O21 O 0.69079(18) 0.4789(4) 0.9318(3)
O22 O 0.39260(19) 0.3216(3) 0.9131(3)
O23 O 0.3527(2) 0.4540(3) 0.9061(3)
O28 O 0.51738(15) 0.2852(3) 0.9248(2)
O29 O 0.61611(15) 0.3052(3) 0.9419(2)
O30 O 0.57586(15) 0.1578(3) 0.9229(2)
O31 O 0.56337(18) 0.2678(3) 0.8360(2)
O32 O 0.5611(2) 0.2747(5) 0.6995(3)
H29 H 0.559489 0.227805 0.670967
H30 H 0.594378 0.266420 0.727021
N14 N 0.90506(18) 0.4998(3) 0.9694(3)
N15 N 0.94845(18) 0.6318(3) 0.9684(3)
N19 N 0.7396(2) 0.4550(4) 0.9547(3)
N22 N 0.3875(2) 0.3980(4) 0.9338(3)
C20 C 0.9183(2) 0.5796(4) 0.9982(3)
C21 C 0.9550(2) 0.5816(4) 0.9153(3)
H31 H 0.974355 0.600019 0.882760
C22 C 0.9290(2) 0.5002(4) 0.9172(3)
H32 H 0.928007 0.451755 0.886644
C26 C 0.4219(2) 0.4234(4) 0.9945(3)
Zn8 Zn 0.36686(3) 0.10557(5) 0.50176(4)
Zn9 Zn 0.63314(3) 0.10557(5) 0.99824(4)
Zn10 Zn 0.63169(2) 0.60458(5) 0.51578(4)
Zn11 Zn 0.36831(2) 0.60458(5) 0.98422(4)
Zn12 Zn 0.01577(3) 0.74854(4) 0.49814(4)
O33 O 0.14078(15) 0.3086(3) 0.5731(2)
O34 O 0.85922(15) 0.3086(3) 0.9269(2)
O35 O 0.07586(15) 0.3422(3) 0.4229(2)
N23 N 0.55155(18) 0.1318(3) 0.5316(3)
N24 N 0.44845(18) 0.1318(3) 0.9684(3)
N25 N 0.41861(18) 0.4960(3) 0.5228(3)
N26 N 0.58139(18) 0.4960(3) 0.9772(3)
O18_2 O 0.3701(2) 0.0593(4) 0.0781(3)
O19_2 O 0.4165(2) 0.1850(3) 0.0776(3)
N16_2 N 0.4006(2) 0.1105(4) 0.0552(3)
N8_2 N 0.08139(18) 0.0040(3) 0.4772(3)
N11_2 N 0.0519(8) 0.0464(7) 0.7475(5)
C8_2 C 0.0414(2) 0.0012(4) 0.4213(3)
H7_2 H 0.032803 0.048552 0.389515
C14_2 C 0.0266(18) 0.1445(11) 0.7515(15)
H14_2 H 0.045603 0.173504 0.793530
H15_2 H 0.034089 0.181874 0.714757
C15_2 C 0.1149(11) 0.005(2) 0.7590(10)
H16_2 H 0.140674 0.053116 0.754100
C20_2 C 0.4183(2) 0.0796(4) 0.9982(3)
C21_2 C 0.4550(2) 0.0816(4) 0.9153(3)
H31_2 H 0.474355 0.100019 0.882760
C22_2 C 0.4290(2) 0.0002(4) 0.9172(3)
Zn10_2 Zn 0.13169(2) 0.10458(5) 0.51578(4)
Zn5_2 Zn 0.36686(3) 0.89443(5) 0.00176(4)
Zn6_2 Zn 0.13169(2) 0.89542(5) 0.01578(4)
S4_2 S 0.10139(6) 0.74144(10) 0.10421(8)
O24_2 O 0.10451(16) 0.8398(3) 0.0893(2)
O25_2 O 0.04454(15) 0.7091(3) 0.0744(2)
O26_2 O 0.14078(15) 0.6914(3) 0.0731(2)
O27_2 O 0.1137(2) 0.7255(3) 0.1738(2)
N17_2 N 0.30203(18) 0.8796(4) 0.0424(3)
N18_2 N 0.21309(17) 0.8843(3) 0.0468(3)
C23_2 C 0.2514(2) 0.9065(4) 0.0142(3)
C24_2 C 0.2418(2) 0.8406(5) 0.1021(3)
H33_2 H 0.226583 0.817079 0.136926
C25_2 C 0.2961(2) 0.8366(5) 0.0987(3)
H34_2 H 0.324878 0.808511 0.130254
H36_2 H 0.014834 0.900219 0.116204
O36_2 O 0.42414(15) 0.8422(3) 0.0771(2)
Zn4_2 Zn -0.000000 0.76853(8) 0.750000
O5_2 O 0.10740(19) 0.8216(3) 0.5869(3)
O6_2 O 0.1473(2) 0.9540(3) 0.5939(3)
O15_2 O -0.000000 0.6303(7) 0.750000
O16_2 O -0.000000 0.9112(7) 0.750000
N7_2 N 0.03925(19) 0.8679(3) 0.4713(3)
N9_2 N 0.1125(2) 0.8980(4) 0.5662(3)
C7_2 C 0.0781(2) 0.9234(4) 0.5055(3)
C9_2 C 0.0153(3) 0.9188(4) 0.4180(3)
C10_2 C -0.000000 0.5456(10) 0.750000
C13_2 C -0.000000 0.9990(10) 0.750000
H17_2 H 0.125670 0.978651 0.803567
H18_2 H 0.115815 0.957002 0.726156
N12 N 0.0442(3) 0.4962(5) 0.7478(4)
C16 C 0.0310(4) 0.4002(6) 0.7566(5)
H19 H 0.047330 0.379174 0.802061
H20 H 0.044331 0.360928 0.724600
C17_2 C 0.0996(4) 0.5302(8) 0.7641(5)
H21 H 0.125274 0.481563 0.758878
H22_2 H 0.103194 0.580611 0.734449
H23_2 H 0.108274 0.551593 0.809981
S3_2 S 0.06830(6) 0.75352(9) 0.90606(8)
O20_2 O 0.27811(18) 0.9714(4) 0.9276(3)
O21_2 O 0.19079(18) 0.9789(4) 0.9318(3)
O28_2 O 0.01738(15) 0.7852(3) 0.9248(2)
O29_2 O 0.11611(15) 0.8052(3) 0.9419(2)
O30_2 O 0.07586(15) 0.6578(3) 0.9229(2)
O31_2 O 0.06337(18) 0.7678(3) 0.8360(2)
O32_2 O 0.0611(2) 0.7747(5) 0.6995(3)
H29_2 H 0.059489 0.727805 0.670967
H30_2 H 0.094378 0.766420 0.727021
N14_2 N 0.40506(18) 0.9998(3) 0.9694(3)
N19_2 N 0.2396(2) 0.9550(4) 0.9547(3)
H32_2 H 0.428007 0.951755 0.886644
Zn9_2 Zn 0.13314(3) 0.60557(5) 0.99824(4)
O34_2 O 0.35922(15) 0.8086(3) 0.9269(2)
N26_2 N 0.08139(18) 0.9960(3) 0.9772(3)
N21_2 N 0.91861(18) 0.0040(3) 0.0228(3)
C27_2 C 0.9586(2) 0.0012(4) 0.0787(3)
H35_2 H 0.967197 0.048552 0.110485
O1_2 O 0.6299(2) 0.0593(4) 0.4219(3)
O2_2 O 0.5835(2) 0.1850(3) 0.4224(3)
N3_2 N 0.5994(2) 0.1105(4) 0.4448(3)
C1_2 C 0.5817(2) 0.0796(4) 0.5018(3)
C2_2 C 0.5450(2) 0.0816(4) 0.5847(3)
H3_2 H 0.525645 0.100019 0.617240
C3_2 C 0.5710(2) 0.0002(4) 0.5828(3)
N13_2 N 0.9481(8) 0.0464(7) 0.7525(5)
C18_2 C 0.9734(18) 0.1445(11) 0.7485(15)
H24_2 H 0.954397 0.173504 0.706470
H25_2 H 0.965911 0.181874 0.785243
C19_2 C 0.8851(11) 0.005(2) 0.7410(10)
H26_2 H 0.859326 0.053116 0.745900
Zn11_2 Zn 0.86831(2) 0.10458(5) 0.98422(4)
N20_2 N 0.96075(19) 0.8679(3) 0.0287(3)
C28_2 C 0.9847(3) 0.9188(4) 0.0820(3)
Zn1_2 Zn 0.63314(3) 0.89443(5) 0.49824(4)
Zn2_2 Zn 0.86831(2) 0.89542(5) 0.48422(4)
Zn4_3 Zn 1.000000 0.76853(8) 0.750000
S1_2 S 0.93170(6) 0.75352(9) 0.59394(8)
S2_2 S 0.89861(6) 0.74144(10) 0.39579(8)
O3_2 O 0.72189(18) 0.9714(4) 0.5724(3)
O4_2 O 0.80921(18) 0.9789(4) 0.5682(3)
O7_2 O 0.89549(16) 0.8398(3) 0.4107(2)
O8_2 O 0.95546(15) 0.7091(3) 0.4256(2)
O9_2 O 0.85922(15) 0.6914(3) 0.4269(2)
O10_2 O 0.8863(2) 0.7255(3) 0.3262(2)
O11_2 O 0.98262(15) 0.7852(3) 0.5752(2)
O12_2 O 0.88389(15) 0.8052(3) 0.5581(2)
O13_2 O 0.92414(15) 0.6578(3) 0.5771(2)
O14_2 O 0.93663(18) 0.7678(3) 0.6640(2)
O15_3 O 1.000000 0.6303(7) 0.750000
O16_3 O 1.000000 0.9112(7) 0.750000
O17_2 O 0.9389(2) 0.7747(5) 0.8005(3)
H1_2 H 0.940511 0.727805 0.829033
H2_2 H 0.905622 0.766420 0.772979
N1_2 N 0.59494(18) 0.9998(3) 0.5306(3)
N4_2 N 0.69797(18) 0.8796(4) 0.4576(3)
N5_2 N 0.78691(17) 0.8843(3) 0.4532(3)
N6_2 N 0.7604(2) 0.9550(4) 0.5453(3)
N10 N 0.9558(3) 0.4962(5) 0.7522(4)
H4_2 H 0.571993 0.951755 0.613356
C4_2 C 0.7486(2) 0.9065(4) 0.4858(3)
C5_2 C 0.7582(2) 0.8406(5) 0.3979(3)
H5_2 H 0.773417 0.817079 0.363074
C6_2 C 0.7039(2) 0.8366(5) 0.4013(3)
H6_2 H 0.675122 0.808511 0.369746
H8_2 H 0.985166 0.900219 0.383796
C10_3 C 1.000000 0.5456(10) 0.750000
C11 C 0.9690(4) 0.4002(6) 0.7434(5)
H9 H 0.952670 0.379174 0.697939
H10 H 0.955669 0.360928 0.775400
C12_2 C 0.9004(4) 0.5302(8) 0.7359(5)
H11 H 0.874726 0.481563 0.741122
H12_2 H 0.896806 0.580611 0.765551
H13_2 H 0.891726 0.551593 0.690019
C13_3 C 1.000000 0.9990(10) 0.750000
H27_2 H 0.874330 0.978651 0.696433
H28_2 H 0.884185 0.957002 0.773844
O22_2 O 0.89260(19) 0.8216(3) 0.9131(3)
O23_2 O 0.8527(2) 0.9540(3) 0.9061(3)
N22_2 N 0.8875(2) 0.8980(4) 0.9338(3)
C26_2 C 0.9219(2) 0.9234(4) 0.9945(3)
Zn8_2 Zn 0.86686(3) 0.60557(5) 0.50176(4)
O33_2 O 0.64078(15) 0.8086(3) 0.5731(2)
O35_2 O 0.57586(15) 0.8422(3) 0.4229(2)
N25_2 N 0.91861(18) 0.9960(3) 0.5228(3)
Zn3_2 Zn 0.48423(3) 0.75146(4) 0.50186(4)
Zn4_4 Zn 0.500000 0.73147(8) 0.250000
S1_3 S 0.56830(6) 0.74648(9) 0.40606(8)
S2_3 S 0.60139(6) 0.75856(10) 0.60421(8)
O1_3 O 0.8701(2) 0.4407(4) 0.5781(3)
O2_3 O 0.9165(2) 0.3150(3) 0.5776(3)
O3_3 O 0.77811(18) 0.5286(4) 0.4276(3)
O4_3 O 0.69079(18) 0.5211(4) 0.4318(3)
O5_3 O 0.39260(19) 0.6784(3) 0.4131(3)
O6_3 O 0.3527(2) 0.5460(3) 0.4061(3)
O7_3 O 0.60451(16) 0.6602(3) 0.5893(2)
O8_3 O 0.54454(15) 0.7909(3) 0.5744(2)
O10_3 O 0.6137(2) 0.7745(3) 0.6738(2)
O11_3 O 0.51738(15) 0.7148(3) 0.4248(2)
O12_3 O 0.61611(15) 0.6948(3) 0.4419(2)
O14_3 O 0.56337(18) 0.7322(3) 0.3360(2)
O15_4 O 0.500000 0.8697(7) 0.250000
O16_4 O 0.500000 0.5888(7) 0.250000
O17_3 O 0.5611(2) 0.7253(5) 0.1995(3)
H1_3 H 0.559489 0.772195 0.170967
H2_3 H 0.594378 0.733580 0.227021
N1_3 N 0.90506(18) 0.5002(3) 0.4694(3)
N2_2 N 0.94845(18) 0.3682(3) 0.4684(3)
N3_3 N 0.9006(2) 0.3895(4) 0.5552(3)
N4_3 N 0.80203(18) 0.6204(4) 0.5424(3)
N5_3 N 0.71309(17) 0.6157(3) 0.5468(3)
N6_3 N 0.7396(2) 0.5450(4) 0.4547(3)
N7_3 N 0.46075(19) 0.6321(3) 0.5287(3)
N9_3 N 0.3875(2) 0.6020(4) 0.4338(3)
N11_3 N 0.4481(8) 0.4536(7) 0.2525(5)
C1_3 C 0.9183(2) 0.4204(4) 0.4982(3)
C2_3 C 0.9550(2) 0.4184(4) 0.4153(3)
H3_3 H 0.974355 0.399981 0.382760
C3_3 C 0.9290(2) 0.4998(4) 0.4172(3)
H4_3 H 0.928007 0.548245 0.386644
C4_3 C 0.7514(2) 0.5935(4) 0.5142(3)
C5_3 C 0.7418(2) 0.6594(5) 0.6021(3)
H5_3 H 0.726583 0.682921 0.636926
C6_3 C 0.7961(2) 0.6634(5) 0.5987(3)
H6_3 H 0.824878 0.691489 0.630254
C7_3 C 0.4219(2) 0.5766(4) 0.4945(3)
C8_3 C 0.4586(2) 0.4988(4) 0.5787(3)
H7_3 H 0.467197 0.451448 0.610485
C9_3 C 0.4847(3) 0.5812(4) 0.5820(3)
H8_3 H 0.514834 0.599781 0.616204
C10_4 C 0.500000 0.9544(10) 0.250000
C12_3 C 0.5996(4) 0.9698(8) 0.2641(5)
H12_3 H 0.603194 0.919389 0.234449
H13_3 H 0.608274 0.948407 0.309981
C13_4 C 0.500000 0.5010(10) 0.250000
C14_3 C 0.4734(18) 0.3555(11) 0.2485(15)
H14_3 H 0.454397 0.326496 0.206470
H15_3 H 0.465911 0.318126 0.285243
C15_3 C 0.3851(11) 0.495(2) 0.2410(10)
H16_3 H 0.359326 0.446884 0.245900
H17_3 H 0.374330 0.521349 0.196433
H18_3 H 0.384185 0.542998 0.273844
C17_3 C 0.4004(4) 0.9698(8) 0.2359(5)
H22_3 H 0.396806 0.919389 0.265551
H23_3 H 0.391726 0.948407 0.190019
N13_3 N 0.5519(8) 0.4536(7) 0.2475(5)
C18_3 C 0.5266(18) 0.3555(11) 0.2515(15)
H24_3 H 0.545603 0.326496 0.293530
H25_3 H 0.534089 0.318126 0.214757
C19_3 C 0.6149(11) 0.495(2) 0.2590(10)
H26_3 H 0.640674 0.446884 0.254100
H27_3 H 0.625670 0.521349 0.303567
H28_3 H 0.615815 0.542998 0.226156
S3_3 S 0.43170(6) 0.74648(9) 0.09394(8)
O20_3 O 0.22189(18) 0.5286(4) 0.0724(3)
O21_3 O 0.30921(18) 0.5211(4) 0.0682(3)
O22_3 O 0.60740(19) 0.6784(3) 0.0869(3)
O23_3 O 0.6473(2) 0.5460(3) 0.0939(3)
O28_3 O 0.48262(15) 0.7148(3) 0.0752(2)
O29_3 O 0.38389(15) 0.6948(3) 0.0581(2)
O31_3 O 0.43663(18) 0.7322(3) 0.1640(2)
O32_3 O 0.4389(2) 0.7253(5) 0.3005(3)
H29_3 H 0.440511 0.772195 0.329033
H30_3 H 0.405622 0.733580 0.272979
N14_3 N 0.09494(18) 0.5002(3) 0.0306(3)
N15_2 N 0.05155(18) 0.3682(3) 0.0316(3)
N19_3 N 0.2604(2) 0.5450(4) 0.0453(3)
N22_3 N 0.6125(2) 0.6020(4) 0.0662(3)
C20_3 C 0.0817(2) 0.4204(4) 0.0018(3)
C21_3 C 0.0450(2) 0.4184(4) 0.0847(3)
H31_3 H 0.025645 0.399981 0.117240
C22_3 C 0.0710(2) 0.4998(4) 0.0828(3)
H32_3 H 0.071993 0.548245 0.113356
C26_3 C 0.5781(2) 0.5766(4) 0.0055(3)
Zn12_2 Zn 0.98423(3) 0.25146(4) 0.50186(4)
N23_2 N 0.44845(18) 0.8682(3) 0.4684(3)
N24_2 N 0.55155(18) 0.8682(3) 0.0316(3)
Zn7_2 Zn 0.51577(3) 0.75146(4) 0.99814(4)
S4_3 S 0.39861(6) 0.75856(10) 0.89579(8)
O18_3 O 0.1299(2) 0.4407(4) 0.9219(3)
O19_3 O 0.0835(2) 0.3150(3) 0.9224(3)
O24_3 O 0.39549(16) 0.6602(3) 0.9107(2)
O25_3 O 0.45546(15) 0.7909(3) 0.9256(2)
O27_3 O 0.3863(2) 0.7745(3) 0.8262(2)
N16_3 N 0.0994(2) 0.3895(4) 0.9448(3)
N17_3 N 0.19797(18) 0.6204(4) 0.9576(3)
N18_3 N 0.28691(17) 0.6157(3) 0.9532(3)
N20_3 N 0.53925(19) 0.6321(3) 0.9713(3)
C23_3 C 0.2486(2) 0.5935(4) 0.9858(3)
C24_3 C 0.2582(2) 0.6594(5) 0.8979(3)
H33_3 H 0.273417 0.682921 0.863074
C25_3 C 0.2039(2) 0.6634(5) 0.9013(3)
H34_3 H 0.175122 0.691489 0.869746
C27_3 C 0.5414(2) 0.4988(4) 0.9213(3)
H35_3 H 0.532803 0.451448 0.889515
C28_3 C 0.5153(3) 0.5812(4) 0.9180(3)
H36_3 H 0.485166 0.599781 0.883796
Zn13_2 Zn 0.01577(3) 0.25146(4) 0.99814(4)
Zn4_5 Zn 0.000000 0.23147(8) 0.250000
S1_4 S 0.06830(6) 0.24648(9) 0.40606(8)
S2_4 S 0.10139(6) 0.25856(10) 0.60421(8)
O3_4 O 0.27811(18) 0.0286(4) 0.4276(3)
O4_4 O 0.19079(18) 0.0211(4) 0.4318(3)
O7_4 O 0.10451(16) 0.1602(3) 0.5893(2)
O8_4 O 0.04454(15) 0.2909(3) 0.5744(2)
O10_4 O 0.1137(2) 0.2745(3) 0.6738(2)
O11_4 O 0.01738(15) 0.2148(3) 0.4248(2)
O12_4 O 0.11611(15) 0.1948(3) 0.4419(2)
O14_4 O 0.06337(18) 0.2322(3) 0.3360(2)
O15_5 O 0.000000 0.3697(7) 0.250000
O16_5 O 0.000000 0.0888(7) 0.250000
O17_4 O 0.0611(2) 0.2253(5) 0.1995(3)
H1_4 H 0.059489 0.272195 0.170967
H2_4 H 0.094378 0.233580 0.227021
N1_4 N 0.40506(18) 0.0002(3) 0.4694(3)
N4_4 N 0.30203(18) 0.1204(4) 0.5424(3)
N5_4 N 0.21309(17) 0.1157(3) 0.5468(3)
N6_4 N 0.2396(2) 0.0450(4) 0.4547(3)
N10_2 N 0.0442(3) 0.5038(5) 0.2478(4)
H4_4 H 0.428007 0.048245 0.386644
C4_4 C 0.2514(2) 0.0935(4) 0.5142(3)
C5_4 C 0.2418(2) 0.1594(5) 0.6021(3)
H5_4 H 0.226583 0.182921 0.636926
C6_4 C 0.2961(2) 0.1634(5) 0.5987(3)
H6_4 H 0.324878 0.191489 0.630254
H8_4 H 0.014834 0.099781 0.616204
C10_5 C 0.000000 0.4544(10) 0.250000
C11_2 C 0.0310(4) 0.5998(6) 0.2566(5)
H9_2 H 0.047330 0.620826 0.302061
H10_2 H 0.044331 0.639072 0.224600
C12_4 C 0.0996(4) 0.4698(8) 0.2641(5)
H11_2 H 0.125274 0.518437 0.258878
H12_4 H 0.103194 0.419389 0.234449
H13_4 H 0.108274 0.448407 0.309981
C13_5 C 0.000000 0.0010(10) 0.250000
H27_4 H 0.125670 0.021349 0.303567
H28_4 H 0.115815 0.042998 0.226156
O22_4 O 0.10740(19) 0.1784(3) 0.0869(3)
O23_4 O 0.1473(2) 0.0460(3) 0.0939(3)
N22_4 N 0.1125(2) 0.1020(4) 0.0662(3)
C26_4 C 0.0781(2) 0.0766(4) 0.0055(3)
N20_4 N 0.03925(19) 0.1321(3) 0.9713(3)
C28_4 C 0.0153(3) 0.0812(4) 0.9180(3)
O1_4 O 0.3701(2) 0.9407(4) 0.5781(3)
O2_4 O 0.4165(2) 0.8150(3) 0.5776(3)
N3_4 N 0.4006(2) 0.8895(4) 0.5552(3)
C1_4 C 0.4183(2) 0.9204(4) 0.4982(3)
C2_4 C 0.4550(2) 0.9184(4) 0.4153(3)
H3_4 H 0.474355 0.899981 0.382760
C3_4 C 0.4290(2) 0.9998(4) 0.4172(3)
N13_4 N 0.0519(8) 0.9536(7) 0.2475(5)
C18_4 C 0.0266(18) 0.8555(11) 0.2515(15)
H24_4 H 0.045603 0.826496 0.293530
H25_4 H 0.034089 0.818126 0.214757
C19_4 C 0.1149(11) 0.995(2) 0.2590(10)
H26_4 H 0.140674 0.946884 0.254100
C27_4 C 0.0414(2) 0.9988(4) 0.9213(3)
H35_4 H 0.032803 0.951448 0.889515
Zn4_6 Zn 1.000000 0.23147(8) 0.250000
O5_4 O 0.89260(19) 0.1784(3) 0.4131(3)
O6_4 O 0.8527(2) 0.0460(3) 0.4061(3)
O15_6 O 1.000000 0.3697(7) 0.250000
O16_6 O 1.000000 0.0888(7) 0.250000
N7_4 N 0.96075(19) 0.1321(3) 0.5287(3)
N9_4 N 0.8875(2) 0.1020(4) 0.4338(3)
C7_4 C 0.9219(2) 0.0766(4) 0.4945(3)
C9_4 C 0.9847(3) 0.0812(4) 0.5820(3)
C10_6 C 1.000000 0.4544(10) 0.250000
C13_6 C 1.000000 0.0010(10) 0.250000
H17_4 H 0.874330 0.021349 0.196433
H18_4 H 0.884185 0.042998 0.273844
N12_2 N 0.9558(3) 0.5038(5) 0.2522(4)
C16_2 C 0.9690(4) 0.5998(6) 0.2434(5)
H19_2 H 0.952670 0.620826 0.197939
H20_2 H 0.955669 0.639072 0.275400
C17_4 C 0.9004(4) 0.4698(8) 0.2359(5)
H21_2 H 0.874726 0.518437 0.241122
H22_4 H 0.896806 0.419389 0.265551
H23_4 H 0.891726 0.448407 0.190019
S3_4 S 0.93170(6) 0.24648(9) 0.09394(8)
O20_4 O 0.72189(18) 0.0286(4) 0.0724(3)
O21_4 O 0.80921(18) 0.0211(4) 0.0682(3)
O28_4 O 0.98262(15) 0.2148(3) 0.0752(2)
O29_4 O 0.88389(15) 0.1948(3) 0.0581(2)
O31_4 O 0.93663(18) 0.2322(3) 0.1640(2)
O32_4 O 0.9389(2) 0.2253(5) 0.3005(3)
H29_4 H 0.940511 0.272195 0.329033
H30_4 H 0.905622 0.233580 0.272979
N14_4 N 0.59494(18) 0.0002(3) 0.0306(3)
N19_4 N 0.7604(2) 0.0450(4) 0.0453(3)
H32_4 H 0.571993 0.048245 0.113356
S4_4 S 0.89861(6) 0.25856(10) 0.89579(8)
O24_4 O 0.89549(16) 0.1602(3) 0.9107(2)
O25_4 O 0.95546(15) 0.2909(3) 0.9256(2)
O27_4 O 0.8863(2) 0.2745(3) 0.8262(2)
N17_4 N 0.69797(18) 0.1204(4) 0.9576(3)
N18_4 N 0.78691(17) 0.1157(3) 0.9532(3)
C23_4 C 0.7486(2) 0.0935(4) 0.9858(3)
C24_4 C 0.7582(2) 0.1594(5) 0.8979(3)
H33_4 H 0.773417 0.182921 0.863074
C25_4 C 0.7039(2) 0.1634(5) 0.9013(3)
H34_4 H 0.675122 0.191489 0.869746
H36_4 H 0.985166 0.099781 0.883796
N11_4 N 0.9481(8) 0.9536(7) 0.2525(5)
C8_4 C 0.9586(2) 0.9988(4) 0.5787(3)
H7_4 H 0.967197 0.951448 0.610485
C14_4 C 0.9734(18) 0.8555(11) 0.2485(15)
H14_4 H 0.954397 0.826496 0.206470
H15_4 H 0.965911 0.818126 0.285243
C15_4 C 0.8851(11) 0.995(2) 0.2410(10)
H16_4 H 0.859326 0.946884 0.245900
C20_4 C 0.5817(2) 0.9204(4) 0.0018(3)
C21_4 C 0.5450(2) 0.9184(4) 0.0847(3)
H31_4 H 0.525645 0.899981 0.117240
C22_4 C 0.5710(2) 0.9998(4) 0.0828(3)
O18_4 O 0.6299(2) 0.9407(4) 0.9219(3)
O19_4 O 0.5835(2) 0.8150(3) 0.9224(3)
N16_4 N 0.5994(2) 0.8895(4) 0.9448(3)
N10_3 N 0.4558(3) 0.9962(5) 0.7522(4)
C11_3 C 0.4690(4) 0.9002(6) 0.7434(5)
H9_3 H 0.452670 0.879174 0.697939
H10_3 H 0.455669 0.860928 0.775400
H11_3 H 0.374726 0.981563 0.741122
N12_3 N 0.5442(3) 0.9962(5) 0.7478(4)
C16_3 C 0.5310(4) 0.9002(6) 0.7566(5)
H19_3 H 0.547330 0.879174 0.802061
H20_3 H 0.544331 0.860928 0.724600
H21_3 H 0.625274 0.981563 0.758878
N10_4 N 0.5442(3) 0.0038(5) 0.2478(4)
C11_4 C 0.5310(4) 0.0998(6) 0.2566(5)
H9_4 H 0.547330 0.120826 0.302061
H10_4 H 0.544331 0.139072 0.224600
H11_4 H 0.625274 0.018437 0.258878
N12_4 N 0.4558(3) 0.0038(5) 0.2522(4)
C16_4 C 0.4690(4) 0.0998(6) 0.2434(5)
H19_4 H 0.452670 0.120826 0.197939
H20_4 H 0.455669 0.139072 0.275400
H21_4 H 0.374726 0.018437 0.241122
loop_
_geom_bond_atom_site_label_1
_geom_bond_atom_site_label_2
_geom_bond_site_symmetry_1
_geom_bond_site_symmetry_2
Zn6 O24 1_555 1_555
Zn7 O25 1_555 1_555
S4 O24 1_555 1_555
O18 N16 1_555 1_555
O19 N16 1_555 1_555
O25 S4 1_555 1_555
O26 S4 1_555 1_555
O27 S4 1_555 1_555
N17 Zn5 1_555 1_555
N18 Zn6 1_555 1_555
N20 Zn7 1_555 1_555
C23 N17 1_555 1_555
C24 N18 1_555 1_555
H33 C24 1_555 1_555
C25 N17 1_555 1_555
H34 C25 1_555 1_555
C27 N21 1_555 1_555
H35 C27 1_555 1_555
C28 N20 1_555 1_555
H36 C28 1_555 1_555
O36 Zn5 1_555 1_555
N18 C23 1_555 1_555
C24 C25 1_555 1_555
C27 C28 1_555 1_555
Zn1 N1 1_555 1_555
Zn2 O7 1_555 1_555
Zn3 O8 1_555 1_555
Zn4 O14 1_555 1_555
S1 O11 1_555 1_555
S2 O7 1_555 1_555
O1 N3 1_555 1_555
O2 N3 1_555 1_555
O3 N6 1_555 1_555
O4 N6 1_555 1_555
O5 N9 1_555 1_555
O6 N9 1_555 1_555
O8 S2 1_555 1_555
O9 S2 1_555 1_555
O10 S2 1_555 1_555
O11 Zn3 1_555 1_555
O12 Zn2 1_555 1_555
O13 S1 1_555 1_555
O14 S1 1_555 1_555
O15 Zn4 1_555 1_555
O16 Zn4 1_555 1_555
O17 Zn4 1_555 1_555
H1 O17 1_555 1_555
H2 O17 1_555 1_555
N1 C1 1_555 1_555
N2 C1 1_555 1_555
N3 C1 1_555 1_555
N4 Zn1 1_555 1_555
N5 Zn2 1_555 1_555
N6 C4 1_555 1_555
N7 Zn3 1_555 1_555
N8 C7 1_555 1_555
N9 C7 1_555 1_555
N11 C13 1_555 1_555
C2 N2 1_555 1_555
H3 C2 1_555 1_555
C3 N1 1_555 1_555
H4 C3 1_555 1_555
C4 N4 1_555 1_555
C5 N5 1_555 1_555
H5 C5 1_555 1_555
C6 N4 1_555 1_555
H6 C6 1_555 1_555
C7 N7 1_555 1_555
C8 N8 1_555 1_555
H7 C8 1_555 1_555
C9 N7 1_555 1_555
H8 C9 1_555 1_555
C10 O15 1_555 1_555
H12 C12 1_555 1_555
H13 C12 1_555 1_555
C13 O16 1_555 1_555
C14 N11 1_555 1_555
H14 C14 1_555 1_555
H15 C14 1_555 1_555
C15 N11 1_555 1_555
H16 C15 1_555 1_555
H17 C15 1_555 1_555
H18 C15 1_555 1_555
H22 C17 1_555 1_555
H23 C17 1_555 1_555
N13 C13 1_555 1_555
C18 C14 1_555 1_555
H24 C18 1_555 1_555
H25 C18 1_555 1_555
C19 N13 1_555 1_555
H26 C19 1_555 1_555
H27 C19 1_555 1_555
H28 C19 1_555 1_555
S3 O28 1_555 1_555
O20 N19 1_555 1_555
O21 N19 1_555 1_555
O22 N22 1_555 1_555
O23 N22 1_555 1_555
O30 S3 1_555 1_555
O31 Zn4 1_555 1_555
O32 Zn4 1_555 1_555
H29 O32 1_555 1_555
H30 O32 1_555 1_555
N14 C20 1_555 1_555
N15 C20 1_555 1_555
N22 C26 1_555 1_555
C21 N15 1_555 1_555
H31 C21 1_555 1_555
C22 N14 1_555 1_555
H32 C22 1_555 1_555
Zn8 O9 1_555 1_555
Zn10 N8 1_555 1_555
Zn12 N2 1_555 1_555
O33 Zn1 1_555 1_555
O35 Zn1 1_555 1_555
N23 Zn3 1_555 1_555
N25 Zn2 1_555 1_555
S1 O12 1_555 1_555
O13 Zn8 1_555 1_555
N5 C4 1_555 1_555
C2 C3 1_555 1_555
C5 C6 1_555 1_555
C8 C9 1_555 1_555
N13 C18 1_555 1_555
S3 O29 1_555 1_555
S3 O31 1_555 1_555
O30 Zn9 1_555 1_555
C21 C22 1_555 1_555
O18_2 N16_2 1_555 1_555
O19_2 N16_2 1_555 1_555
C8_2 N8_2 1_555 1_555
H7_2 C8_2 1_555 1_555
C14_2 N11_2 1_555 1_555
H14_2 C14_2 1_555 1_555
H15_2 C14_2 1_555 1_555
C15_2 N11_2 1_555 1_555
H16_2 C15_2 1_555 1_555
N24 C20_2 1_555 1_555
C21_2 N24 1_555 1_555
H31_2 C21_2 1_555 1_555
Zn10_2 N8_2 1_555 1_555
C21_2 C22_2 1_555 1_555
Zn6_2 O24_2 1_555 1_555
S4_2 O24_2 1_555 1_555
O25_2 S4_2 1_555 1_555
O26_2 S4_2 1_555 1_555
O27_2 S4_2 1_555 1_555
N17_2 Zn5_2 1_555 1_555
N18_2 Zn6_2 1_555 1_555
C23_2 N17_2 1_555 1_555
C24_2 N18_2 1_555 1_555
H33_2 C24_2 1_555 1_555
C25_2 N17_2 1_555 1_555
H34_2 C25_2 1_555 1_555
O36_2 Zn5_2 1_555 1_555
N18_2 C23_2 1_555 1_555
C24_2 C25_2 1_555 1_555
O5_2 N9_2 1_555 1_555
O6_2 N9_2 1_555 1_555
O15_2 Zn4_2 1_555 1_555
O16_2 Zn4_2 1_555 1_555
N7_2 Zn12 1_555 1_555
N9_2 C7_2 1_555 1_555
C7_2 N7_2 1_555 1_555
C9_2 N7_2 1_555 1_555
C10_2 O15_2 1_555 1_555
C13_2 O16_2 1_555 1_555
N12 C10_2 1_555 1_555
H19 C16 1_555 1_555
H20 C16 1_555 1_555
C17_2 N12 1_555 1_555
H21 C17_2 1_555 1_555
H22_2 C17_2 1_555 1_555
H23_2 C17_2 1_555 1_555
S3_2 O28_2 1_555 1_555
O20_2 N19_2 1_555 1_555
O21_2 N19_2 1_555 1_555
O30_2 S3_2 1_555 1_555
O31_2 Zn4_2 1_555 1_555
O32_2 Zn4_2 1_555 1_555
H29_2 O32_2 1_555 1_555
H30_2 O32_2 1_555 1_555
N12 C16 1_555 1_555
S3_2 O29_2 1_555 1_555
S3_2 O31_2 1_555 1_555
O30_2 Zn9_2 1_555 1_555
C27_2 N21_2 1_555 1_555
H35_2 C27_2 1_555 1_555
O1_2 N3_2 1_555 1_555
O2_2 N3_2 1_555 1_555
N23 C1_2 1_555 1_555
N3_2 C1_2 1_555 1_555
C2_2 N23 1_555 1_555
H3_2 C2_2 1_555 1_555
H24_2 C18_2 1_555 1_555
H25_2 C18_2 1_555 1_555
C19_2 N13_2 1_555 1_555
H26_2 C19_2 1_555 1_555
C2_2 C3_2 1_555 1_555
N13_2 C18_2 1_555 1_555
N20_2 Zn13 1_555 1_555
C28_2 N20_2 1_555 1_555
Zn1_2 N1_2 1_555 1_555
Zn2_2 O7_2 1_555 1_555
Zn4_3 O14_2 1_555 1_555
S1_2 O11_2 1_555 1_555
S2_2 O7_2 1_555 1_555
O3_2 N6_2 1_555 1_555
O4_2 N6_2 1_555 1_555
O8_2 S2_2 1_555 1_555
O9_2 S2_2 1_555 1_555
O10_2 S2_2 1_555 1_555
O12_2 Zn2_2 1_555 1_555
O13_2 S1_2 1_555 1_555
O14_2 S1_2 1_555 1_555
O15_3 Zn4_3 1_555 1_555
O16_3 Zn4_3 1_555 1_555
O17_2 Zn4_3 1_555 1_555
H1_2 O17_2 1_555 1_555
H2_2 O17_2 1_555 1_555
N4_2 Zn1_2 1_555 1_555
N5_2 Zn2_2 1_555 1_555
N6_2 C4_2 1_555 1_555
N10 C10_3 1_555 1_555
C4_2 N4_2 1_555 1_555
C5_2 N5_2 1_555 1_555
H5_2 C5_2 1_555 1_555
C6_2 N4_2 1_555 1_555
H6_2 C6_2 1_555 1_555
C10_3 O15_3 1_555 1_555
C11 N10 1_555 1_555
H9 C11 1_555 1_555
H10 C11 1_555 1_555
C12_2 N10 1_555 1_555
H11 C12_2 1_555 1_555
H12_2 C12_2 1_555 1_555
H13_2 C12_2 1_555 1_555
C13_3 O16_3 1_555 1_555
O22_2 N22_2 1_555 1_555
O23_2 N22_2 1_555 1_555
N22_2 C26_2 1_555 1_555
Zn8_2 O9_2 1_555 1_555
O33_2 Zn1_2 1_555 1_555
O35_2 Zn1_2 1_555 1_555
N25_2 Zn2_2 1_555 1_555
S1_2 O12_2 1_555 1_555
O13_2 Zn8_2 1_555 1_555
N5_2 C4_2 1_555 1_555
C5_2 C6_2 1_555 1_555
Zn8_2 N1_3 1_555 1_555
Zn10 O7_3 1_555 1_555
Zn3_2 O8_3 1_555 1_555
Zn4_4 O14_3 1_555 1_555
S1_3 O11_3 1_555 1_555
S2_3 O7_3 1_555 1_555
O1_3 N3_3 1_555 1_555
O2_3 N3_3 1_555 1_555
O3_3 N6_3 1_555 1_555
O4_3 N6_3 1_555 1_555
O5_3 N9_3 1_555 1_555
O6_3 N9_3 1_555 1_555
O8_3 S2_3 1_555 1_555
O33_2 S2_3 1_555 1_555
O10_3 S2_3 1_555 1_555
O11_3 Zn3_2 1_555 1_555
O12_3 Zn10 1_555 1_555
O35_2 S1_3 1_555 1_555
O14_3 S1_3 1_555 1_555
O15_4 Zn4_4 1_555 1_555
O16_4 Zn4_4 1_555 1_555
O17_3 Zn4_4 1_555 1_555
H1_3 O17_3 1_555 1_555
H2_3 O17_3 1_555 1_555
N1_3 C1_3 1_555 1_555
N2_2 C1_3 1_555 1_555
N3_3 C1_3 1_555 1_555
N4_3 Zn8_2 1_555 1_555
N5_3 Zn10 1_555 1_555
N6_3 C4_3 1_555 1_555
N7_3 Zn3_2 1_555 1_555
N25 C7_3 1_555 1_555
N9_3 C7_3 1_555 1_555
N11_3 C13_4 1_555 1_555
C2_3 N2_2 1_555 1_555
H3_3 C2_3 1_555 1_555
C3_3 N1_3 1_555 1_555
H4_3 C3_3 1_555 1_555
C4_3 N4_3 1_555 1_555
C5_3 N5_3 1_555 1_555
H5_3 C5_3 1_555 1_555
C6_3 N4_3 1_555 1_555
H6_3 C6_3 1_555 1_555
C7_3 N7_3 1_555 1_555
C8_3 N25 1_555 1_555
H7_3 C8_3 1_555 1_555
C9_3 N7_3 1_555 1_555
H8_3 C9_3 1_555 1_555
C10_4 O15_4 1_555 1_555
H12_3 C12_3 1_555 1_555
H13_3 C12_3 1_555 1_555
C13_4 O16_4 1_555 1_555
C14_3 N11_3 1_555 1_555
H14_3 C14_3 1_555 1_555
H15_3 C14_3 1_555 1_555
C15_3 N11_3 1_555 1_555
H16_3 C15_3 1_555 1_555
H17_3 C15_3 1_555 1_555
H18_3 C15_3 1_555 1_555
H22_3 C17_3 1_555 1_555
H23_3 C17_3 1_555 1_555
N13_3 C13_4 1_555 1_555
C18_3 C14_3 1_555 1_555
H24_3 C18_3 1_555 1_555
H25_3 C18_3 1_555 1_555
C19_3 N13_3 1_555 1_555
H26_3 C19_3 1_555 1_555
H27_3 C19_3 1_555 1_555
H28_3 C19_3 1_555 1_555
S3_3 O28_3 1_555 1_555
O20_3 N19_3 1_555 1_555
O21_3 N19_3 1_555 1_555
O22_3 N22_3 1_555 1_555
O23_3 N22_3 1_555 1_555
O36_2 S3_3 1_555 1_555
O31_3 Zn4_4 1_555 1_555
O32_3 Zn4_4 1_555 1_555
H29_3 O32_3 1_555 1_555
H30_3 O32_3 1_555 1_555
N14_3 C20_3 1_555 1_555
N15_2 C20_3 1_555 1_555
N22_3 C26_3 1_555 1_555
C21_3 N15_2 1_555 1_555
H31_3 C21_3 1_555 1_555
C22_3 N14_3 1_555 1_555
H32_3 C22_3 1_555 1_555
Zn12_2 N2_2 1_555 1_555
N23_2 Zn3_2 1_555 1_555
S1_3 O12_3 1_555 1_555
N5_3 C4_3 1_555 1_555
C2_3 C3_3 1_555 1_555
C5_3 C6_3 1_555 1_555
C8_3 C9_3 1_555 1_555
N13_3 C18_3 1_555 1_555
S3_3 O29_3 1_555 1_555
S3_3 O31_3 1_555 1_555
C21_3 C22_3 1_555 1_555
Zn11 O24_3 1_555 1_555
Zn7_2 O25_3 1_555 1_555
S4_3 O24_3 1_555 1_555
O18_3 N16_3 1_555 1_555
O19_3 N16_3 1_555 1_555
O25_3 S4_3 1_555 1_555
O34_2 S4_3 1_555 1_555
O27_3 S4_3 1_555 1_555
N17_3 Zn9_2 1_555 1_555
N18_3 Zn11 1_555 1_555
N20_3 Zn7_2 1_555 1_555
C23_3 N17_3 1_555 1_555
C24_3 N18_3 1_555 1_555
H33_3 C24_3 1_555 1_555
C25_3 N17_3 1_555 1_555
H34_3 C25_3 1_555 1_555
C27_3 N26 1_555 1_555
H35_3 C27_3 1_555 1_555
C28_3 N20_3 1_555 1_555
H36_3 C28_3 1_555 1_555
N18_3 C23_3 1_555 1_555
C24_3 C25_3 1_555 1_555
C27_3 C28_3 1_555 1_555
Zn8 N1_4 1_555 1_555
Zn10_2 O7_4 1_555 1_555
Zn4_5 O14_4 1_555 1_555
S1_4 O11_4 1_555 1_555
S2_4 O7_4 1_555 1_555
O3_4 N6_4 1_555 1_555
O4_4 N6_4 1_555 1_555
O8_4 S2_4 1_555 1_555
O33 S2_4 1_555 1_555
O10_4 S2_4 1_555 1_555
O12_4 Zn10_2 1_555 1_555
O35 S1_4 1_555 1_555
O14_4 S1_4 1_555 1_555
O15_5 Zn4_5 1_555 1_555
O16_5 Zn4_5 1_555 1_555
O17_4 Zn4_5 1_555 1_555
H1_4 O17_4 1_555 1_555
H2_4 O17_4 1_555 1_555
N4_4 Zn8 1_555 1_555
N5_4 Zn10_2 1_555 1_555
N6_4 C4_4 1_555 1_555
N10_2 C10_5 1_555 1_555
C4_4 N4_4 1_555 1_555
C5_4 N5_4 1_555 1_555
H5_4 C5_4 1_555 1_555
C6_4 N4_4 1_555 1_555
H6_4 C6_4 1_555 1_555
C10_5 O15_5 1_555 1_555
C11_2 N10_2 1_555 1_555
H9_2 C11_2 1_555 1_555
H10_2 C11_2 1_555 1_555
C12_4 N10_2 1_555 1_555
H11_2 C12_4 1_555 1_555
H12_4 C12_4 1_555 1_555
H13_4 C12_4 1_555 1_555
C13_5 O16_5 1_555 1_555
O22_4 N22_4 1_555 1_555
O23_4 N22_4 1_555 1_555
N22_4 C26_4 1_555 1_555
S1_4 O12_4 1_555 1_555
N5_4 C4_4 1_555 1_555
C5_4 C6_4 1_555 1_555
N20_4 Zn13_2 1_555 1_555
C28_4 N20_4 1_555 1_555
O1_4 N3_4 1_555 1_555
O2_4 N3_4 1_555 1_555
N23_2 C1_4 1_555 1_555
N3_4 C1_4 1_555 1_555
C2_4 N23_2 1_555 1_555
H3_4 C2_4 1_555 1_555
H24_4 C18_4 1_555 1_555
H25_4 C18_4 1_555 1_555
C19_4 N13_4 1_555 1_555
H26_4 C19_4 1_555 1_555
C2_4 C3_4 1_555 1_555
N13_4 C18_4 1_555 1_555
C27_4 N26_2 1_555 1_555
H35_4 C27_4 1_555 1_555
O5_4 N9_4 1_555 1_555
O6_4 N9_4 1_555 1_555
O15_6 Zn4_6 1_555 1_555
O16_6 Zn4_6 1_555 1_555
N7_4 Zn12_2 1_555 1_555
N9_4 C7_4 1_555 1_555
C7_4 N7_4 1_555 1_555
C9_4 N7_4 1_555 1_555
C10_6 O15_6 1_555 1_555
C13_6 O16_6 1_555 1_555
N12_2 C10_6 1_555 1_555
H19_2 C16_2 1_555 1_555
H20_2 C16_2 1_555 1_555
C17_4 N12_2 1_555 1_555
H21_2 C17_4 1_555 1_555
H22_4 C17_4 1_555 1_555
H23_4 C17_4 1_555 1_555
S3_4 O28_4 1_555 1_555
O20_4 N19_4 1_555 1_555
O21_4 N19_4 1_555 1_555
O36 S3_4 1_555 1_555
O31_4 Zn4_6 1_555 1_555
O32_4 Zn4_6 1_555 1_555
H29_4 O32_4 1_555 1_555
H30_4 O32_4 1_555 1_555
N12_2 C16_2 1_555 1_555
S3_4 O29_4 1_555 1_555
S3_4 O31_4 1_555 1_555
Zn11_2 O24_4 1_555 1_555
S4_4 O24_4 1_555 1_555
O25_4 S4_4 1_555 1_555
O34 S4_4 1_555 1_555
O27_4 S4_4 1_555 1_555
N17_4 Zn9 1_555 1_555
N18_4 Zn11_2 1_555 1_555
C23_4 N17_4 1_555 1_555
C24_4 N18_4 1_555 1_555
H33_4 C24_4 1_555 1_555
C25_4 N17_4 1_555 1_555
H34_4 C25_4 1_555 1_555
N18_4 C23_4 1_555 1_555
C24_4 C25_4 1_555 1_555
C8_4 N25_2 1_555 1_555
H7_4 C8_4 1_555 1_555
C14_4 N11_4 1_555 1_555
H14_4 C14_4 1_555 1_555
H15_4 C14_4 1_555 1_555
C15_4 N11_4 1_555 1_555
H16_4 C15_4 1_555 1_555
N24_2 C20_4 1_555 1_555
C21_4 N24_2 1_555 1_555
H31_4 C21_4 1_555 1_555
C21_4 C22_4 1_555 1_555
O18_4 N16_4 1_555 1_555
O19_4 N16_4 1_555 1_555
C11_3 N10_3 1_555 1_555
H9_3 C11_3 1_555 1_555
H10_3 C11_3 1_555 1_555
C16_3 C11_3 1_555 1_555
H19_3 C16_3 1_555 1_555
H20_3 C16_3 1_555 1_555
N12_3 C16_3 1_555 1_555
C11_4 N10_4 1_555 1_555
H9_4 C11_4 1_555 1_555
H10_4 C11_4 1_555 1_555
C16_4 C11_4 1_555 1_555
H19_4 C16_4 1_555 1_555
H20_4 C16_4 1_555 1_555
N12_4 C16_4 1_555 1_555

#END
