
###############################################################################
#
# This file contains modified crystal structure data generated from the
# MOF subset of the Cambridge Structural Database (CSD) v543 
# hosted by the Cambridge Crystallographic Data Centre (CCDC).
#
# This work is licensed under the Creative Commons
# Attribution-NonCommercial-ShareAlike 4.0 International License.
# To view a copy of this license, visit
# http://creativecommons.org/licenses/by-nc-sa/4.0/
# or send a letter to
# Creative Commons, PO Box 1866, Mountain View, CA 94042, USA.
#
# CIF created using the CSD Python API on 29 September 2022
# The structure has been converted into the P1 space group
# The structure has a 3D framework
# The original CSD entry VASQAL is in the orthorhombic crystal system
# The framework has been calculated to contain at least 10.0% void space
# The void calculation uses a probe of radius 1.32A, grid spacing 0.4
# The framework is charged, counterions have been retained in the structure
# H atom positions have been added when not included in the experimental data
# Generated hydrogen atom positions removed from atoms on special positions
#
###############################################################################

data_VASQAL
_chemical_formula_moiety         '(C128 H144 Eu2 N8 O64 S8 2+)n'
_symmetry_cell_setting           triclinic
_symmetry_space_group_name_H-M   'P 1'
_symmetry_Int_Tables_number      1
_space_group_name_Hall           'P 1'
loop_
_symmetry_equiv_pos_site_id
_symmetry_equiv_pos_as_xyz
1 x,y,z
_cell_length_a                   14.1306(15)
_cell_length_b                   17.0415(18)
_cell_length_c                   22.636(2)
_cell_angle_alpha                90
_cell_angle_beta                 90
_cell_angle_gamma                90
_cell_volume                     5450.9
loop_
_atom_site_label
_atom_site_type_symbol
_atom_site_fract_x
_atom_site_fract_y
_atom_site_fract_z
O1 O 0.091(2) 0.217(2) 0.5076(17)
O1_2 O 0.409(2) 0.283(2) 0.5076(17)
H1 H 0.421336 0.259632 0.009806
H2 H 0.366876 0.192683 0.012406
O1_3 O 0.409(2) 0.217(2) 0.9924(17)
H3 H 0.458487 0.188744 0.990188
H1_2 H 0.078664 0.240368 0.009806
H2_2 H 0.133124 0.307317 0.012406
O1_4 O 0.091(2) 0.283(2) 0.9924(17)
H3_2 H 0.041513 0.311256 0.990188
O1_5 O 0.909(2) 0.783(2) 0.4924(17)
O1_6 O 0.591(2) 0.717(2) 0.4924(17)
O1_7 O 0.591(2) 0.783(2) 0.0076(17)
H3_3 H 0.541513 0.811256 0.009812
H1_3 H 0.578664 0.740368 0.990194
H2_3 H 0.633124 0.807317 0.987594
O1_8 O 0.909(2) 0.717(2) 0.0076(17)
H3_4 H 0.958487 0.688744 0.009812
H1_4 H 0.921336 0.759632 0.990194
H2_4 H 0.866876 0.692683 0.987594
N1 N 0.0687(8) 0.5850(6) 0.1629(4)
H4 H 0.036578 0.623981 0.179597
H5 H 0.067118 0.591781 0.123646
C1 C 0.0227(12) 0.5122(10) 0.1833(10)
H6 H 0.057326 0.490936 0.216066
H7 H 0.021693 0.474663 0.151634
C2 C 0.1669(9) 0.5921(10) 0.1831(9)
H9 H 0.183439 0.546910 0.206213
H10 H 0.173372 0.638518 0.206863
H11 H 0.208168 0.595677 0.149554
H8 H 0.958992 0.523480 0.195379
H6_2 H 0.442674 0.009064 0.216066
H7_2 H 0.478307 0.025337 0.151634
N1_2 N 0.4313(8) 0.9150(6) 0.1629(4)
H4_2 H 0.463422 0.876019 0.179597
H5_2 H 0.432882 0.908219 0.123646
C1_2 C 0.4773(12) 0.9878(10) 0.1833(10)
H8_2 H 0.541008 0.976520 0.195379
C2_2 C 0.3331(9) 0.9079(10) 0.1831(9)
H9_2 H 0.316561 0.953090 0.206213
H10_2 H 0.326628 0.861482 0.206863
H11_2 H 0.291832 0.904323 0.149554
N1_3 N 0.4313(8) 0.5850(6) 0.3371(4)
H4_3 H 0.463422 0.623981 0.320403
H5_3 H 0.432882 0.591781 0.376354
C1_3 C 0.4773(12) 0.5122(10) 0.3167(10)
H6_3 H 0.442674 0.490936 0.283934
H7_3 H 0.478307 0.474663 0.348366
H8_3 H 0.541008 0.523480 0.304621
C2_3 C 0.3331(9) 0.5921(10) 0.3169(9)
H9_3 H 0.316561 0.546910 0.293787
H10_3 H 0.326628 0.638518 0.293137
H11_3 H 0.291832 0.595677 0.350446
H6_4 H 0.057326 0.009064 0.283934
H7_4 H 0.021693 0.025337 0.348366
N1_4 N 0.0687(8) 0.9150(6) 0.3371(4)
H4_4 H 0.036578 0.876019 0.320403
H5_4 H 0.067118 0.908219 0.376354
C1_4 C 0.0227(12) 0.9878(10) 0.3167(10)
C2_4 C 0.1669(9) 0.9079(10) 0.3169(9)
H9_4 H 0.183439 0.953090 0.293787
H10_4 H 0.173372 0.861482 0.293137
H11_4 H 0.208168 0.904323 0.350446
H8_4 H 0.958992 0.976520 0.304621
H8_5 H 0.041008 0.476520 0.804621
N1_5 N 0.9313(8) 0.4150(6) 0.8371(4)
H4_5 H 0.963422 0.376019 0.820403
H5_5 H 0.932882 0.408219 0.876354
C1_5 C 0.9773(12) 0.4878(10) 0.8167(10)
H6_5 H 0.942674 0.509064 0.783934
H7_5 H 0.978307 0.525337 0.848366
C2_5 C 0.8331(9) 0.4079(10) 0.8169(9)
H9_5 H 0.816561 0.453090 0.793787
H10_5 H 0.826628 0.361482 0.793137
H11_5 H 0.791832 0.404323 0.850446
N1_6 N 0.5687(8) 0.0850(6) 0.8371(4)
H4_6 H 0.536578 0.123981 0.820403
H5_6 H 0.567118 0.091781 0.876354
C1_6 C 0.5227(12) 0.0122(10) 0.8167(10)
H8_6 H 0.458992 0.023480 0.804621
C2_6 C 0.6669(9) 0.0921(10) 0.8169(9)
H9_6 H 0.683439 0.046910 0.793787
H10_6 H 0.673372 0.138518 0.793137
H11_6 H 0.708168 0.095677 0.850446
H6_6 H 0.557326 0.990936 0.783934
H7_6 H 0.521693 0.974663 0.848366
N1_7 N 0.5687(8) 0.4150(6) 0.6629(4)
H4_7 H 0.536578 0.376019 0.679597
H5_7 H 0.567118 0.408219 0.623646
C1_7 C 0.5227(12) 0.4878(10) 0.6833(10)
H6_7 H 0.557326 0.509064 0.716066
H7_7 H 0.521693 0.525337 0.651634
H8_7 H 0.458992 0.476520 0.695379
C2_7 C 0.6669(9) 0.4079(10) 0.6831(9)
H9_7 H 0.683439 0.453090 0.706213
H10_7 H 0.673372 0.361482 0.706863
H11_7 H 0.708168 0.404323 0.649554
H8_8 H 0.041008 0.023480 0.695379
N1_8 N 0.9313(8) 0.0850(6) 0.6629(4)
H4_8 H 0.963422 0.123981 0.679597
H5_8 H 0.932882 0.091781 0.623646
C1_8 C 0.9773(12) 0.0122(10) 0.6833(10)
C2_8 C 0.8331(9) 0.0921(10) 0.6831(9)
H9_8 H 0.816561 0.046910 0.706213
H10_8 H 0.826628 0.138518 0.706863
H11_8 H 0.791832 0.095677 0.649554
H6_8 H 0.942674 0.990936 0.716066
H7_8 H 0.978307 0.974663 0.651634
Eu1 Eu 0.39861(3) 0.250000 0.750000
S1 S 0.1388(8) 0.4009(6) 0.3896(5)
O2 O 0.3529(4) 0.3499(3) 0.6800(2)
O3 O 0.1986(4) 0.3241(3) 0.6896(2)
O4 O 0.0171(4) 0.7471(3) 0.3306(3)
O5 O 0.0059(3) 0.6401(3) 0.2772(2)
O6 O 0.1246(15) 0.3874(14) 0.3275(7)
O7 O 0.2259(15) 0.366(2) 0.4102(12)
O8 O 0.0585(16) 0.372(2) 0.4233(11)
C3 C 0.2674(5) 0.3569(5) 0.6641(3)
C4 C 0.2459(4) 0.4068(6) 0.6129(4)
C5 C 0.3153(5) 0.4473(5) 0.5801(4)
H12 H 0.378250 0.443302 0.591699
C6 C 0.2936(6) 0.4921(6) 0.5321(4)
C7 C 0.2036(7) 0.4977(6) 0.5131(4)
C8 C 0.1359(8) 0.4596(6) 0.5434(5)
H13 H 0.073702 0.463459 0.530299
C9 C 0.1542(7) 0.4152(6) 0.5929(4)
H14 H 0.104799 0.390888 0.612885
C10 C 0.1704(6) 0.5456(7) 0.4610(4)
C11 C 0.1380(7) 0.5089(6) 0.4101(4)
C12 C 0.0958(6) 0.5504(7) 0.3628(4)
H15 H 0.073710 0.524468 0.329415
C13 C 0.0884(5) 0.6321(6) 0.3683(4)
C14 C 0.1250(7) 0.6677(6) 0.4178(4)
H16 H 0.120747 0.721984 0.420991
C15 C 0.1672(7) 0.6271(7) 0.4623(4)
H17 H 0.194135 0.654061 0.493876
C16 C 0.0352(5) 0.6751(5) 0.3216(3)
S2 S 0.3612(8) 0.0991(6) 0.3896(5)
O9 O 0.1471(4) 0.1501(3) 0.6800(2)
O10 O 0.3014(4) 0.1759(3) 0.6896(2)
O13 O 0.3754(15) 0.1126(14) 0.3275(7)
O14 O 0.2741(15) 0.134(2) 0.4102(12)
O15 O 0.4415(16) 0.128(2) 0.4233(11)
C17 C 0.2326(5) 0.1431(5) 0.6641(3)
C18 C 0.2541(4) 0.0932(6) 0.6129(4)
C19 C 0.1847(5) 0.0527(5) 0.5801(4)
H18 H 0.121750 0.056698 0.591699
C20 C 0.2064(6) 0.0079(6) 0.5321(4)
C21 C 0.2964(7) 0.0023(6) 0.5131(4)
C22 C 0.3641(8) 0.0404(6) 0.5434(5)
H19 H 0.426298 0.036541 0.530299
C23 C 0.3458(7) 0.0848(6) 0.5929(4)
H20 H 0.395201 0.109112 0.612885
Eu2 Eu 0.10139(3) 0.250000 0.750000
O16 O 0.3529(4) 0.1501(3) 0.8200(2)
O17 O 0.3014(4) 0.3241(3) 0.8104(2)
O18 O 0.5171(4) 0.2471(3) 0.6694(3)
O19 O 0.5171(4) 0.2529(3) 0.8306(3)
O20 O 0.5059(3) 0.1401(3) 0.7228(2)
O21 O 0.5059(3) 0.3599(3) 0.7772(2)
H24 H 0.349479 0.52359 0.508955
O16_2 O 0.1471(4) 0.3499(3) 0.8200(2)
O17_2 O 0.1986(4) 0.1759(3) 0.8104(2)
C3_2 C 0.2326(5) 0.3569(5) 0.8359(3)
C4_2 C 0.2541(4) 0.4068(6) 0.8871(4)
C5_2 C 0.1847(5) 0.4473(5) 0.9199(4)
H12_2 H 0.121750 0.443302 0.908301
C6_2 C 0.2064(6) 0.4921(6) 0.9679(4)
C7_2 C 0.2964(7) 0.4977(6) 0.9869(4)
C8_2 C 0.3641(8) 0.4596(6) 0.9566(5)
H13_2 H 0.426298 0.463459 0.969701
C9_2 C 0.3458(7) 0.4152(6) 0.9071(4)
H14_2 H 0.395201 0.390888 0.887115
C17_2 C 0.2674(5) 0.1431(5) 0.8359(3)
C18_2 C 0.2459(4) 0.0932(6) 0.8871(4)
C19_2 C 0.3153(5) 0.0527(5) 0.9199(4)
H18_2 H 0.378250 0.056698 0.908301
C20_2 C 0.2936(6) 0.0079(6) 0.9679(4)
C21_2 C 0.2036(7) 0.0023(6) 0.9869(4)
C22_2 C 0.1359(8) 0.0404(6) 0.9566(5)
H19_2 H 0.073702 0.036541 0.969701
C23_2 C 0.1542(7) 0.0848(6) 0.9071(4)
H20_2 H 0.104799 0.109112 0.887115
H24_2 H 0.150521 0.52359 0.991045
O11 O 0.0171(4) 0.7529(3) 0.1694(3)
O12 O 0.0059(3) 0.8599(3) 0.2228(2)
C24 C 0.1704(6) 0.9544(7) 0.0390(4)
C25 C 0.1380(7) 0.9911(6) 0.0899(4)
C26 C 0.0958(6) 0.9496(7) 0.1372(4)
H21 H 0.073710 0.975532 0.170585
C27 C 0.0884(5) 0.8679(6) 0.1317(4)
C28 C 0.1250(7) 0.8323(6) 0.0822(4)
H22 H 0.120747 0.778016 0.079009
C29 C 0.1672(7) 0.8729(7) 0.0377(4)
H23 H 0.194135 0.845939 0.006124
C30 C 0.0352(5) 0.8249(5) 0.1784(3)
C24_2 C 0.6704(6) 0.0456(7) 0.5390(4)
C25_2 C 0.6380(7) 0.0089(6) 0.5899(4)
C26_2 C 0.5958(6) 0.0504(7) 0.6372(4)
H21_2 H 0.573710 0.024468 0.670585
C27_2 C 0.5884(5) 0.1321(6) 0.6317(4)
C28_2 C 0.6250(7) 0.1677(6) 0.5822(4)
H22_2 H 0.620747 0.221984 0.579009
C29_2 C 0.6672(7) 0.1271(7) 0.5377(4)
H23_2 H 0.694135 0.154061 0.506124
C30_2 C 0.5352(5) 0.1751(5) 0.6784(3)
H25 H 0.849479 0.0235896 0.491045
S1_2 S 0.6388(8) 0.5991(6) 0.8896(5)
O6_2 O 0.6246(15) 0.6126(14) 0.8275(7)
O7_2 O 0.7259(15) 0.634(2) 0.9102(12)
O8_2 O 0.5585(16) 0.628(2) 0.9233(11)
C10_2 C 0.6704(6) 0.4544(7) 0.9610(4)
C11_2 C 0.6380(7) 0.4911(6) 0.9101(4)
C12_2 C 0.5958(6) 0.4496(7) 0.8628(4)
H15_2 H 0.573710 0.475532 0.829415
C13_2 C 0.5884(5) 0.3679(6) 0.8683(4)
C14_2 C 0.6250(7) 0.3323(6) 0.9178(4)
H16_2 H 0.620747 0.278016 0.920991
C15_2 C 0.6672(7) 0.3729(7) 0.9623(4)
H17_2 H 0.694135 0.345939 0.993876
C16_2 C 0.5352(5) 0.3249(5) 0.8216(3)
S2_2 S 0.8612(8) 0.9009(6) 0.8896(5)
O13_2 O 0.8754(15) 0.8874(14) 0.8275(7)
O14_2 O 0.7741(15) 0.866(2) 0.9102(12)
O15_2 O 0.9415(16) 0.872(2) 0.9233(11)
O11_2 O 0.4829(4) 0.7529(3) 0.3306(3)
O12_2 O 0.4941(3) 0.8599(3) 0.2772(2)
C24_3 C 0.3296(6) 0.9544(7) 0.4610(4)
C25_3 C 0.3620(7) 0.9911(6) 0.4101(4)
C26_3 C 0.4042(6) 0.9496(7) 0.3628(4)
H21_3 H 0.426290 0.975532 0.329415
C27_3 C 0.4116(5) 0.8679(6) 0.3683(4)
C28_3 C 0.3750(7) 0.8323(6) 0.4178(4)
H22_3 H 0.379253 0.778016 0.420991
C29_3 C 0.3328(7) 0.8729(7) 0.4623(4)
H23_3 H 0.305865 0.845939 0.493876
C30_3 C 0.4648(5) 0.8249(5) 0.3216(3)
Eu3 Eu 0.60139(3) 0.750000 0.250000
H25_2 H 0.150521 0.97641 0.508955
Eu4 Eu 0.89861(3) 0.750000 0.250000
O18_2 O 0.9829(4) 0.2529(3) 0.6694(3)
O19_2 O 0.9829(4) 0.2471(3) 0.8306(3)
O20_2 O 0.9941(3) 0.3599(3) 0.7228(2)
O21_2 O 0.9941(3) 0.1401(3) 0.7772(2)
S1_3 S 0.3612(8) 0.4009(6) 0.1104(5)
O4_2 O 0.4829(4) 0.7471(3) 0.1694(3)
O5_2 O 0.4941(3) 0.6401(3) 0.2228(2)
O6_3 O 0.3754(15) 0.3874(14) 0.1725(7)
O7_3 O 0.2741(15) 0.366(2) 0.0898(12)
O8_3 O 0.4415(16) 0.372(2) 0.0767(11)
C10_3 C 0.3296(6) 0.5456(7) 0.0390(4)
C11_3 C 0.3620(7) 0.5089(6) 0.0899(4)
C12_3 C 0.4042(6) 0.5504(7) 0.1372(4)
H15_3 H 0.426290 0.524468 0.170585
C13_3 C 0.4116(5) 0.6321(6) 0.1317(4)
C14_3 C 0.3750(7) 0.6677(6) 0.0822(4)
H16_3 H 0.379253 0.721984 0.079009
C15_3 C 0.3328(7) 0.6271(7) 0.0377(4)
H17_3 H 0.305865 0.654061 0.006124
C16_3 C 0.4648(5) 0.6751(5) 0.1784(3)
S2_3 S 0.1388(8) 0.0991(6) 0.1104(5)
O13_3 O 0.1246(15) 0.1126(14) 0.1725(7)
O14_3 O 0.2259(15) 0.134(2) 0.0898(12)
O15_3 O 0.0585(16) 0.128(2) 0.0767(11)
S1_4 S 0.8612(8) 0.5991(6) 0.6104(5)
O2_2 O 0.6471(4) 0.6501(3) 0.3200(2)
O3_2 O 0.8014(4) 0.6759(3) 0.3104(2)
O6_4 O 0.8754(15) 0.6126(14) 0.6725(7)
O7_4 O 0.7741(15) 0.634(2) 0.5898(12)
O8_4 O 0.9415(16) 0.628(2) 0.5767(11)
C3_3 C 0.7326(5) 0.6431(5) 0.3359(3)
C4_3 C 0.7541(4) 0.5932(6) 0.3871(4)
C5_3 C 0.6847(5) 0.5527(5) 0.4199(4)
H12_3 H 0.621750 0.556698 0.408301
C6_3 C 0.7064(6) 0.5079(6) 0.4679(4)
C7_3 C 0.7964(7) 0.5023(6) 0.4869(4)
C8_3 C 0.8641(8) 0.5404(6) 0.4566(5)
H13_3 H 0.926298 0.536541 0.469701
C9_3 C 0.8458(7) 0.5848(6) 0.4071(4)
H14_3 H 0.895201 0.609112 0.387115
C10_4 C 0.8296(6) 0.4544(7) 0.5390(4)
C11_4 C 0.8620(7) 0.4911(6) 0.5899(4)
C12_4 C 0.9042(6) 0.4496(7) 0.6372(4)
H15_4 H 0.926290 0.475532 0.670585
C13_4 C 0.9116(5) 0.3679(6) 0.6317(4)
C14_4 C 0.8750(7) 0.3323(6) 0.5822(4)
H16_4 H 0.879253 0.278016 0.579009
C15_4 C 0.8328(7) 0.3729(7) 0.5377(4)
H17_4 H 0.805865 0.345939 0.506124
C16_4 C 0.9648(5) 0.3249(5) 0.6784(3)
S2_4 S 0.6388(8) 0.9009(6) 0.6104(5)
O9_2 O 0.8529(4) 0.8499(3) 0.3200(2)
O10_2 O 0.6986(4) 0.8241(3) 0.3104(2)
O13_4 O 0.6246(15) 0.8874(14) 0.6725(7)
O14_4 O 0.7259(15) 0.866(2) 0.5898(12)
O15_4 O 0.5585(16) 0.872(2) 0.5767(11)
C17_3 C 0.7674(5) 0.8569(5) 0.3359(3)
C18_3 C 0.7459(4) 0.9068(6) 0.3871(4)
C19_3 C 0.8153(5) 0.9473(5) 0.4199(4)
H18_3 H 0.878250 0.943302 0.408301
C20_3 C 0.7936(6) 0.9921(6) 0.4679(4)
C21_3 C 0.7036(7) 0.9977(6) 0.4869(4)
C22_3 C 0.6359(8) 0.9596(6) 0.4566(5)
H19_3 H 0.573702 0.963459 0.469701
C23_3 C 0.6542(7) 0.9152(6) 0.4071(4)
H20_3 H 0.604799 0.890888 0.387115
O16_3 O 0.6471(4) 0.8499(3) 0.1800(2)
O17_3 O 0.6986(4) 0.6759(3) 0.1896(2)
H24_3 H 0.650521 0.47641 0.491045
O16_4 O 0.8529(4) 0.6501(3) 0.1800(2)
O17_4 O 0.8014(4) 0.8241(3) 0.1896(2)
C24_4 C 0.8296(6) 0.0456(7) 0.9610(4)
C25_4 C 0.8620(7) 0.0089(6) 0.9101(4)
C26_4 C 0.9042(6) 0.0504(7) 0.8628(4)
H21_4 H 0.926290 0.024468 0.829415
C27_4 C 0.9116(5) 0.1321(6) 0.8683(4)
C28_4 C 0.8750(7) 0.1677(6) 0.9178(4)
H22_4 H 0.879253 0.221984 0.920991
C29_4 C 0.8328(7) 0.1271(7) 0.9623(4)
H23_4 H 0.805865 0.154061 0.993876
C30_4 C 0.9648(5) 0.1751(5) 0.8216(3)
C3_4 C 0.7674(5) 0.6431(5) 0.1641(3)
C4_4 C 0.7459(4) 0.5932(6) 0.1129(4)
C5_4 C 0.8153(5) 0.5527(5) 0.0801(4)
H12_4 H 0.878250 0.556698 0.091699
C6_4 C 0.7936(6) 0.5079(6) 0.0321(4)
C7_4 C 0.7036(7) 0.5023(6) 0.0131(4)
C8_4 C 0.6359(8) 0.5404(6) 0.0434(5)
H13_4 H 0.573702 0.536541 0.030299
C9_4 C 0.6542(7) 0.5848(6) 0.0929(4)
H14_4 H 0.604799 0.609112 0.112885
C17_4 C 0.7326(5) 0.8569(5) 0.1641(3)
C18_4 C 0.7541(4) 0.9068(6) 0.1129(4)
C19_4 C 0.6847(5) 0.9473(5) 0.0801(4)
H18_4 H 0.621750 0.943302 0.091699
C20_4 C 0.7064(6) 0.9921(6) 0.0321(4)
C21_4 C 0.7964(7) 0.9977(6) 0.0131(4)
C22_4 C 0.8641(8) 0.9596(6) 0.0434(5)
H19_4 H 0.926298 0.963459 0.030299
C23_4 C 0.8458(7) 0.9152(6) 0.0929(4)
H20_4 H 0.895201 0.890888 0.112885
H24_4 H 0.849479 0.47641 0.00895499
H25_3 H 0.349479 0.97641 0.991045
H25_4 H 0.650521 0.0235896 0.00895499
loop_
_geom_bond_atom_site_label_1
_geom_bond_atom_site_label_2
_geom_bond_site_symmetry_1
_geom_bond_site_symmetry_2
H3 O1_3 1_555 1_555
H3_2 O1_4 1_555 1_555
H3_3 O1_7 1_555 1_555
H3_4 O1_8 1_555 1_555
N1 H4 1_555 1_555
H5 N1 1_555 1_555
C1 N1 1_555 1_555
H6 C1 1_555 1_555
H7 C1 1_555 1_555
C2 N1 1_555 1_555
H9 C2 1_555 1_555
H10 C2 1_555 1_555
H11 C2 1_555 1_555
N1_2 H4_2 1_555 1_555
H5_2 N1_2 1_555 1_555
C1_2 N1_2 1_555 1_555
H8_2 C1_2 1_555 1_555
C2_2 N1_2 1_555 1_555
H9_2 C2_2 1_555 1_555
H10_2 C2_2 1_555 1_555
H11_2 C2_2 1_555 1_555
N1_3 H4_3 1_555 1_555
H5_3 N1_3 1_555 1_555
C1_3 N1_3 1_555 1_555
H6_3 C1_3 1_555 1_555
H7_3 C1_3 1_555 1_555
H8_3 C1_3 1_555 1_555
C2_3 N1_3 1_555 1_555
H9_3 C2_3 1_555 1_555
H10_3 C2_3 1_555 1_555
H11_3 C2_3 1_555 1_555
N1_4 H4_4 1_555 1_555
H5_4 N1_4 1_555 1_555
C1_4 N1_4 1_555 1_555
C2_4 N1_4 1_555 1_555
H9_4 C2_4 1_555 1_555
H10_4 C2_4 1_555 1_555
H11_4 C2_4 1_555 1_555
N1_5 H4_5 1_555 1_555
H5_5 N1_5 1_555 1_555
C1_5 N1_5 1_555 1_555
H6_5 C1_5 1_555 1_555
H7_5 C1_5 1_555 1_555
C2_5 N1_5 1_555 1_555
H9_5 C2_5 1_555 1_555
H10_5 C2_5 1_555 1_555
H11_5 C2_5 1_555 1_555
N1_6 H4_6 1_555 1_555
H5_6 N1_6 1_555 1_555
C1_6 N1_6 1_555 1_555
H8_6 C1_6 1_555 1_555
C2_6 N1_6 1_555 1_555
H9_6 C2_6 1_555 1_555
H10_6 C2_6 1_555 1_555
H11_6 C2_6 1_555 1_555
N1_7 H4_7 1_555 1_555
H5_7 N1_7 1_555 1_555
C1_7 N1_7 1_555 1_555
H6_7 C1_7 1_555 1_555
H7_7 C1_7 1_555 1_555
H8_7 C1_7 1_555 1_555
C2_7 N1_7 1_555 1_555
H9_7 C2_7 1_555 1_555
H10_7 C2_7 1_555 1_555
H11_7 C2_7 1_555 1_555
N1_8 H4_8 1_555 1_555
H5_8 N1_8 1_555 1_555
C1_8 N1_8 1_555 1_555
C2_8 N1_8 1_555 1_555
H9_8 C2_8 1_555 1_555
H10_8 C2_8 1_555 1_555
H11_8 C2_8 1_555 1_555
Eu1 O2 1_555 1_555
S1 O6 1_555 1_555
O2 C3 1_555 1_555
O3 C3 1_555 1_555
O4 C16 1_555 1_555
O5 C16 1_555 1_555
O7 S1 1_555 1_555
O8 S1 1_555 1_555
C3 C4 1_555 1_555
C4 C5 1_555 1_555
C5 H12 1_555 1_555
C6 C5 1_555 1_555
C7 C6 1_555 1_555
C8 C7 1_555 1_555
H13 C8 1_555 1_555
C9 C4 1_555 1_555
H14 C9 1_555 1_555
C10 C7 1_555 1_555
C11 S1 1_555 1_555
C12 C11 1_555 1_555
H15 C12 1_555 1_555
C13 C12 1_555 1_555
C14 C13 1_555 1_555
H16 C14 1_555 1_555
C15 C10 1_555 1_555
H17 C15 1_555 1_555
C16 C13 1_555 1_555
S2 O13 1_555 1_555
O9 C17 1_555 1_555
O10 Eu1 1_555 1_555
O14 S2 1_555 1_555
O15 S2 1_555 1_555
C17 O10 1_555 1_555
C18 C17 1_555 1_555
C19 C18 1_555 1_555
H18 C19 1_555 1_555
C20 C19 1_555 1_555
C21 C20 1_555 1_555
C22 C21 1_555 1_555
H19 C22 1_555 1_555
C23 C18 1_555 1_555
H20 C23 1_555 1_555
Eu2 O3 1_555 1_555
O16 Eu1 1_555 1_555
O17 Eu1 1_555 1_555
O18 Eu1 1_555 1_555
O19 Eu1 1_555 1_555
O20 Eu1 1_555 1_555
O21 Eu1 1_555 1_555
C8 C9 1_555 1_555
C10 C11 1_555 1_555
C14 C15 1_555 1_555
O9 Eu2 1_555 1_555
C22 C23 1_555 1_555
C6 H24 1_555 1_555
O16_2 Eu2 1_555 1_555
O17_2 Eu2 1_555 1_555
O16_2 C3_2 1_555 1_555
O17 C3_2 1_555 1_555
C3_2 C4_2 1_555 1_555
C4_2 C5_2 1_555 1_555
C5_2 H12_2 1_555 1_555
C6_2 C5_2 1_555 1_555
C7_2 C6_2 1_555 1_555
C8_2 C7_2 1_555 1_555
H13_2 C8_2 1_555 1_555
C9_2 C4_2 1_555 1_555
H14_2 C9_2 1_555 1_555
O16 C17_2 1_555 1_555
C17_2 O17_2 1_555 1_555
C18_2 C17_2 1_555 1_555
C19_2 C18_2 1_555 1_555
H18_2 C19_2 1_555 1_555
C20_2 C19_2 1_555 1_555
C21_2 C20_2 1_555 1_555
C22_2 C21_2 1_555 1_555
H19_2 C22_2 1_555 1_555
C23_2 C18_2 1_555 1_555
H20_2 C23_2 1_555 1_555
C8_2 C9_2 1_555 1_555
C22_2 C23_2 1_555 1_555
C6_2 H24_2 1_555 1_555
O11 C30 1_555 1_555
O12 C30 1_555 1_555
C26 C25 1_555 1_555
H21 C26 1_555 1_555
C27 C26 1_555 1_555
C28 C27 1_555 1_555
H22 C28 1_555 1_555
C29 C24 1_555 1_555
H23 C29 1_555 1_555
C30 C27 1_555 1_555
C24 C25 1_555 1_555
C28 C29 1_555 1_555
O18 C30_2 1_555 1_555
O20 C30_2 1_555 1_555
C26_2 C25_2 1_555 1_555
H21_2 C26_2 1_555 1_555
C27_2 C26_2 1_555 1_555
C28_2 C27_2 1_555 1_555
H22_2 C28_2 1_555 1_555
C29_2 C24_2 1_555 1_555
H23_2 C29_2 1_555 1_555
C30_2 C27_2 1_555 1_555
C24_2 C25_2 1_555 1_555
C28_2 C29_2 1_555 1_555
S1_2 O6_2 1_555 1_555
O19 C16_2 1_555 1_555
O21 C16_2 1_555 1_555
O7_2 S1_2 1_555 1_555
O8_2 S1_2 1_555 1_555
C11_2 S1_2 1_555 1_555
C12_2 C11_2 1_555 1_555
H15_2 C12_2 1_555 1_555
C13_2 C12_2 1_555 1_555
C14_2 C13_2 1_555 1_555
H16_2 C14_2 1_555 1_555
C15_2 C10_2 1_555 1_555
H17_2 C15_2 1_555 1_555
C16_2 C13_2 1_555 1_555
S2_2 O13_2 1_555 1_555
O14_2 S2_2 1_555 1_555
O15_2 S2_2 1_555 1_555
C10_2 C11_2 1_555 1_555
C14_2 C15_2 1_555 1_555
O11_2 C30_3 1_555 1_555
O12_2 C30_3 1_555 1_555
C26_3 C25_3 1_555 1_555
H21_3 C26_3 1_555 1_555
C27_3 C26_3 1_555 1_555
C28_3 C27_3 1_555 1_555
H22_3 C28_3 1_555 1_555
C29_3 C24_3 1_555 1_555
H23_3 C29_3 1_555 1_555
C30_3 C27_3 1_555 1_555
Eu3 O11_2 1_555 1_555
O12_2 Eu3 1_555 1_555
C24_3 C25_3 1_555 1_555
C28_3 C29_3 1_555 1_555
S1_3 O6_3 1_555 1_555
O4_2 C16_3 1_555 1_555
O5_2 C16_3 1_555 1_555
O7_3 S1_3 1_555 1_555
O8_3 S1_3 1_555 1_555
C11_3 S1_3 1_555 1_555
C12_3 C11_3 1_555 1_555
H15_3 C12_3 1_555 1_555
C13_3 C12_3 1_555 1_555
C14_3 C13_3 1_555 1_555
H16_3 C14_3 1_555 1_555
C15_3 C10_3 1_555 1_555
H17_3 C15_3 1_555 1_555
C16_3 C13_3 1_555 1_555
S2_3 O13_3 1_555 1_555
O14_3 S2_3 1_555 1_555
O15_3 S2_3 1_555 1_555
Eu3 O4_2 1_555 1_555
O5_2 Eu3 1_555 1_555
C10_3 C11_3 1_555 1_555
C14_3 C15_3 1_555 1_555
Eu3 O2_2 1_555 1_555
S1_4 O6_4 1_555 1_555
O2_2 C3_3 1_555 1_555
O3_2 C3_3 1_555 1_555
O18_2 C16_4 1_555 1_555
O20_2 C16_4 1_555 1_555
O7_4 S1_4 1_555 1_555
O8_4 S1_4 1_555 1_555
C3_3 C4_3 1_555 1_555
C4_3 C5_3 1_555 1_555
C5_3 H12_3 1_555 1_555
C6_3 C5_3 1_555 1_555
C7_3 C6_3 1_555 1_555
C8_3 C7_3 1_555 1_555
H13_3 C8_3 1_555 1_555
C9_3 C4_3 1_555 1_555
H14_3 C9_3 1_555 1_555
C10_4 C7_3 1_555 1_555
C11_4 S1_4 1_555 1_555
C12_4 C11_4 1_555 1_555
H15_4 C12_4 1_555 1_555
C13_4 C12_4 1_555 1_555
C14_4 C13_4 1_555 1_555
H16_4 C14_4 1_555 1_555
C15_4 C10_4 1_555 1_555
H17_4 C15_4 1_555 1_555
C16_4 C13_4 1_555 1_555
S2_4 O13_4 1_555 1_555
O9_2 C17_3 1_555 1_555
O10_2 Eu3 1_555 1_555
O14_4 S2_4 1_555 1_555
O15_4 S2_4 1_555 1_555
C17_3 O10_2 1_555 1_555
C18_3 C17_3 1_555 1_555
C19_3 C18_3 1_555 1_555
H18_3 C19_3 1_555 1_555
C20_3 C19_3 1_555 1_555
C21_3 C20_3 1_555 1_555
C22_3 C21_3 1_555 1_555
H19_3 C22_3 1_555 1_555
C23_3 C18_3 1_555 1_555
H20_3 C23_3 1_555 1_555
Eu4 O3_2 1_555 1_555
O16_3 Eu3 1_555 1_555
O17_3 Eu3 1_555 1_555
C8_3 C9_3 1_555 1_555
C10_4 C11_4 1_555 1_555
C14_4 C15_4 1_555 1_555
O9_2 Eu4 1_555 1_555
C22_3 C23_3 1_555 1_555
C6_3 H24_3 1_555 1_555
O16_4 Eu4 1_555 1_555
O17_4 Eu4 1_555 1_555
O19_2 C30_4 1_555 1_555
O21_2 C30_4 1_555 1_555
C26_4 C25_4 1_555 1_555
H21_4 C26_4 1_555 1_555
C27_4 C26_4 1_555 1_555
C28_4 C27_4 1_555 1_555
H22_4 C28_4 1_555 1_555
C29_4 C24_4 1_555 1_555
H23_4 C29_4 1_555 1_555
C30_4 C27_4 1_555 1_555
C24_4 C25_4 1_555 1_555
C28_4 C29_4 1_555 1_555
O16_4 C3_4 1_555 1_555
O17_3 C3_4 1_555 1_555
C3_4 C4_4 1_555 1_555
C4_4 C5_4 1_555 1_555
C5_4 H12_4 1_555 1_555
C6_4 C5_4 1_555 1_555
C7_4 C6_4 1_555 1_555
C8_4 C7_4 1_555 1_555
H13_4 C8_4 1_555 1_555
C9_4 C4_4 1_555 1_555
H14_4 C9_4 1_555 1_555
O16_3 C17_4 1_555 1_555
C17_4 O17_4 1_555 1_555
C18_4 C17_4 1_555 1_555
C19_4 C18_4 1_555 1_555
H18_4 C19_4 1_555 1_555
C20_4 C19_4 1_555 1_555
C21_4 C20_4 1_555 1_555
C22_4 C21_4 1_555 1_555
H19_4 C22_4 1_555 1_555
C23_4 C18_4 1_555 1_555
H20_4 C23_4 1_555 1_555
C8_4 C9_4 1_555 1_555
C22_4 C23_4 1_555 1_555
C6_4 H24_4 1_555 1_555

#END
