
###############################################################################
#
# This file contains modified crystal structure data generated from the
# MOF subset of the Cambridge Structural Database (CSD) v543 
# hosted by the Cambridge Crystallographic Data Centre (CCDC).
#
# This work is licensed under the Creative Commons
# Attribution-NonCommercial-ShareAlike 4.0 International License.
# To view a copy of this license, visit
# http://creativecommons.org/licenses/by-nc-sa/4.0/
# or send a letter to
# Creative Commons, PO Box 1866, Mountain View, CA 94042, USA.
#
# CIF created using the CSD Python API on 29 September 2022
# The structure has been converted into the P1 space group
# The structure has a 3D framework
# The original CSD entry VASQEP is in the orthorhombic crystal system
# The framework has been calculated to contain at least 10.0% void space
# The void calculation uses a probe of radius 1.32A, grid spacing 0.4
# The framework is charged, counterions have been retained in the structure
# H atom positions have been added when not included in the experimental data
# Generated hydrogen atom positions removed from atoms on special positions
#
###############################################################################

data_VASQEP
_chemical_formula_moiety         '(C128 H144 N8 O64 S8 Tb2 2+)n'
_symmetry_cell_setting           triclinic
_symmetry_space_group_name_H-M   'P 1'
_symmetry_Int_Tables_number      1
_space_group_name_Hall           'P 1'
loop_
_symmetry_equiv_pos_site_id
_symmetry_equiv_pos_as_xyz
1 x,y,z
_cell_length_a                   14.1106(8)
_cell_length_b                   17.1352(9)
_cell_length_c                   22.4486(12)
_cell_angle_alpha                90
_cell_angle_beta                 90
_cell_angle_gamma                90
_cell_volume                     5427.8
loop_
_atom_site_label
_atom_site_type_symbol
_atom_site_fract_x
_atom_site_fract_y
_atom_site_fract_z
O1 O 0.091(2) 0.223(3) 0.502(2)
O1_2 O 0.409(2) 0.277(3) 0.502(2)
H1 H 0.421882 0.265745 0.015511
H2 H 0.367421 0.198795 0.018111
O1_3 O 0.409(2) 0.223(3) 0.998(2)
H3 H 0.459032 0.194855 0.995891
H1_2 H 0.078118 0.234255 0.015511
H2_2 H 0.132579 0.301205 0.018111
O1_4 O 0.091(2) 0.277(3) 0.998(2)
H3_2 H 0.040968 0.305145 0.995891
O1_5 O 0.909(2) 0.777(3) 0.498(2)
O1_6 O 0.591(2) 0.723(3) 0.498(2)
O1_7 O 0.591(2) 0.777(3) 0.002(2)
H3_3 H 0.540968 0.805145 0.004109
H1_3 H 0.578118 0.734255 0.984489
H2_3 H 0.632579 0.801205 0.981889
O1_8 O 0.909(2) 0.723(3) 0.002(2)
H3_4 H 0.959032 0.694855 0.004109
H1_4 H 0.921882 0.765745 0.984489
H2_4 H 0.867421 0.698795 0.981889
N1 N 0.0641(7) 0.5887(5) 0.1621(3)
H4 H 0.031984 0.627741 0.178786
H5 H 0.062524 0.595541 0.122835
C1 C 0.0178(13) 0.5161(10) 0.1817(10)
H6 H 0.046869 0.498210 0.217891
H7 H 0.024650 0.477014 0.151408
C2 C 0.1633(9) 0.5926(11) 0.1826(9)
H9 H 0.177196 0.547745 0.206664
H10 H 0.172351 0.639139 0.205780
H11 H 0.204821 0.593569 0.148769
H8 H 0.951705 0.525808 0.188653
H6_2 H 0.453131 0.001790 0.217891
H7_2 H 0.475350 0.022986 0.151408
N1_2 N 0.4359(7) 0.9113(5) 0.1621(3)
H4_2 H 0.468016 0.872259 0.178786
H5_2 H 0.437476 0.904459 0.122835
C1_2 C 0.4822(13) 0.9839(10) 0.1817(10)
H8_2 H 0.548295 0.974192 0.188653
C2_2 C 0.3367(9) 0.9074(11) 0.1826(9)
H9_2 H 0.322804 0.952255 0.206664
H10_2 H 0.327649 0.860861 0.205780
H11_2 H 0.295179 0.906431 0.148769
N1_3 N 0.4359(7) 0.5887(5) 0.3379(3)
H4_3 H 0.468016 0.627741 0.321214
H5_3 H 0.437476 0.595541 0.377165
C1_3 C 0.4822(13) 0.5161(10) 0.3183(10)
H6_3 H 0.453131 0.498210 0.282109
H7_3 H 0.475350 0.477014 0.348592
H8_3 H 0.548295 0.525808 0.311347
C2_3 C 0.3367(9) 0.5926(11) 0.3174(9)
H9_3 H 0.322804 0.547745 0.293336
H10_3 H 0.327649 0.639139 0.294220
H11_3 H 0.295179 0.593569 0.351231
H6_4 H 0.046869 0.001790 0.282109
H7_4 H 0.024650 0.022986 0.348592
N1_4 N 0.0641(7) 0.9113(5) 0.3379(3)
H4_4 H 0.031984 0.872259 0.321214
H5_4 H 0.062524 0.904459 0.377165
C1_4 C 0.0178(13) 0.9839(10) 0.3183(10)
C2_4 C 0.1633(9) 0.9074(11) 0.3174(9)
H9_4 H 0.177196 0.952255 0.293336
H10_4 H 0.172351 0.860861 0.294220
H11_4 H 0.204821 0.906431 0.351231
H8_4 H 0.951705 0.974192 0.311347
H8_5 H 0.048295 0.474192 0.811347
N1_5 N 0.9359(7) 0.4113(5) 0.8379(3)
H4_5 H 0.968016 0.372259 0.821214
H5_5 H 0.937476 0.404459 0.877165
C1_5 C 0.9822(13) 0.4839(10) 0.8183(10)
H6_5 H 0.953131 0.501790 0.782109
H7_5 H 0.975350 0.522986 0.848592
C2_5 C 0.8367(9) 0.4074(11) 0.8174(9)
H9_5 H 0.822804 0.452255 0.793336
H10_5 H 0.827649 0.360861 0.794220
H11_5 H 0.795179 0.406431 0.851231
N1_6 N 0.5641(7) 0.0887(5) 0.8379(3)
H4_6 H 0.531984 0.127741 0.821214
H5_6 H 0.562524 0.095541 0.877165
C1_6 C 0.5178(13) 0.0161(10) 0.8183(10)
H8_6 H 0.451705 0.025808 0.811347
C2_6 C 0.6633(9) 0.0926(11) 0.8174(9)
H9_6 H 0.677196 0.047745 0.793336
H10_6 H 0.672351 0.139139 0.794220
H11_6 H 0.704821 0.093569 0.851231
H6_6 H 0.546869 0.998210 0.782109
H7_6 H 0.524650 0.977014 0.848592
N1_7 N 0.5641(7) 0.4113(5) 0.6621(3)
H4_7 H 0.531984 0.372259 0.678786
H5_7 H 0.562524 0.404459 0.622835
C1_7 C 0.5178(13) 0.4839(10) 0.6817(10)
H6_7 H 0.546869 0.501790 0.717891
H7_7 H 0.524650 0.522986 0.651408
H8_7 H 0.451705 0.474192 0.688653
C2_7 C 0.6633(9) 0.4074(11) 0.6826(9)
H9_7 H 0.677196 0.452255 0.706664
H10_7 H 0.672351 0.360861 0.705780
H11_7 H 0.704821 0.406431 0.648769
H8_8 H 0.048295 0.025808 0.688653
N1_8 N 0.9359(7) 0.0887(5) 0.6621(3)
H4_8 H 0.968016 0.127741 0.678786
H5_8 H 0.937476 0.095541 0.622835
C1_8 C 0.9822(13) 0.0161(10) 0.6817(10)
C2_8 C 0.8367(9) 0.0926(11) 0.6826(9)
H9_8 H 0.822804 0.047745 0.706664
H10_8 H 0.827649 0.139139 0.705780
H11_8 H 0.795179 0.093569 0.648769
H6_8 H 0.953131 0.998210 0.717891
H7_8 H 0.975350 0.977014 0.651408
Tb1 Tb 0.39889(3) 0.250000 0.750000
O2 O 0.0039(3) 0.6408(3) 0.2762(2)
O3 O 0.0169(4) 0.7463(3) 0.3303(3)
O4 O 0.1974(4) 0.3229(3) 0.6897(2)
O5 O 0.3522(4) 0.3470(3) 0.6805(2)
C3 C 0.0345(5) 0.6744(5) 0.3211(3)
C4 C 0.0885(5) 0.6306(6) 0.3670(4)
C5 C 0.0943(6) 0.5500(7) 0.3628(4)
H12 H 0.070308 0.524238 0.329566
C6 C 0.1369(7) 0.5078(7) 0.4092(5)
C7 C 0.1692(7) 0.5436(7) 0.4598(4)
C8 C 0.1680(8) 0.6236(7) 0.4616(5)
H13 H 0.197006 0.649224 0.493235
C9 C 0.1241(7) 0.6674(6) 0.4167(4)
H14 H 0.119072 0.721322 0.420493
C10 C 0.2034(8) 0.4960(6) 0.5121(4)
C11 C 0.2938(7) 0.4904(7) 0.5315(5)
C12 C 0.3127(6) 0.4450(6) 0.5799(4)
H15 H 0.375511 0.440919 0.592010
C13 C 0.2462(4) 0.4051(6) 0.6121(4)
C14 C 0.1547(7) 0.4130(7) 0.5928(5)
H16 H 0.105275 0.390487 0.614150
C15 C 0.1360(9) 0.4551(7) 0.5408(5)
H17 H 0.074789 0.454897 0.525433
C16 C 0.2663(5) 0.3551(5) 0.6646(4)
S1 S 0.1398(9) 0.4000(6) 0.3856(5)
O6 O 0.122(2) 0.385(2) 0.3228(8)
O7 O 0.2277(16) 0.365(2) 0.4079(13)
O8 O 0.262(4) 0.378(5) 0.331(4)
O11 O 0.3026(4) 0.1771(3) 0.6897(2)
O12 O 0.1478(4) 0.1530(3) 0.6805(2)
C24 C 0.2966(8) 0.0040(6) 0.5121(4)
C25 C 0.2062(7) 0.0096(7) 0.5315(5)
C26 C 0.1873(6) 0.0550(6) 0.5799(4)
H21 H 0.124489 0.059081 0.592010
C27 C 0.2538(4) 0.0949(6) 0.6121(4)
C28 C 0.3453(7) 0.0870(7) 0.5928(5)
H22 H 0.394725 0.109513 0.614150
C29 C 0.3640(9) 0.0449(7) 0.5408(5)
H23 H 0.425211 0.045103 0.525433
C30 C 0.2337(5) 0.1449(5) 0.6646(4)
S2 S 0.3602(9) 0.1000(6) 0.3856(5)
O13 O 0.378(2) 0.115(2) 0.3228(8)
O14 O 0.2723(16) 0.135(2) 0.4079(13)
O15 O 0.238(4) 0.122(5) 0.331(4)
Tb2 Tb 0.10111(3) 0.250000 0.750000
O16 O 0.5039(3) 0.1408(3) 0.7238(2)
O17 O 0.5039(3) 0.3592(3) 0.7762(2)
O18 O 0.5169(4) 0.2463(3) 0.6697(3)
O19 O 0.5169(4) 0.2537(3) 0.8303(3)
O20 O 0.3026(4) 0.3229(3) 0.8103(2)
O21 O 0.3522(4) 0.1530(3) 0.8195(2)
H25 H 0.35055 0.521621 0.508852
O20_2 O 0.1974(4) 0.1771(3) 0.8103(2)
O21_2 O 0.1478(4) 0.3470(3) 0.8195(2)
C10_2 C 0.2966(8) 0.4960(6) 0.9879(4)
C11_2 C 0.2062(7) 0.4904(7) 0.9685(5)
C12_2 C 0.1873(6) 0.4450(6) 0.9201(4)
H15_2 H 0.124489 0.440919 0.907990
C13_2 C 0.2538(4) 0.4051(6) 0.8879(4)
C14_2 C 0.3453(7) 0.4130(7) 0.9072(5)
H16_2 H 0.394725 0.390487 0.885850
C15_2 C 0.3640(9) 0.4551(7) 0.9592(5)
H17_2 H 0.425211 0.454897 0.974567
C16_2 C 0.2337(5) 0.3551(5) 0.8354(4)
C24_2 C 0.2034(8) 0.0040(6) 0.9879(4)
C25_2 C 0.2938(7) 0.0096(7) 0.9685(5)
C26_2 C 0.3127(6) 0.0550(6) 0.9201(4)
H21_2 H 0.375511 0.059081 0.907990
C27_2 C 0.2462(4) 0.0949(6) 0.8879(4)
C28_2 C 0.1547(7) 0.0870(7) 0.9072(5)
H22_2 H 0.105275 0.109513 0.885850
C29_2 C 0.1360(9) 0.0449(7) 0.9592(5)
H23_2 H 0.074789 0.045103 0.974567
C30_2 C 0.2663(5) 0.1449(5) 0.8354(4)
H25_2 H 0.14945 0.521621 0.991148
O9 O 0.0039(3) 0.8592(3) 0.2238(2)
O10 O 0.0169(4) 0.7537(3) 0.1697(3)
C17 C 0.0345(5) 0.8256(5) 0.1789(3)
C18 C 0.0885(5) 0.8694(6) 0.1330(4)
C19 C 0.0943(6) 0.9500(7) 0.1372(4)
H18 H 0.070308 0.975762 0.170434
C20 C 0.1369(7) 0.9922(7) 0.0908(5)
C21 C 0.1692(7) 0.9564(7) 0.0402(4)
C22 C 0.1680(8) 0.8764(7) 0.0384(5)
H19 H 0.197006 0.850776 0.006765
C23 C 0.1241(7) 0.8326(6) 0.0833(4)
H20 H 0.119072 0.778678 0.079507
C17_2 C 0.5345(5) 0.1744(5) 0.6789(3)
C18_2 C 0.5885(5) 0.1306(6) 0.6330(4)
C19_2 C 0.5943(6) 0.0500(7) 0.6372(4)
H18_2 H 0.570308 0.024238 0.670434
C20_2 C 0.6369(7) 0.0078(7) 0.5908(5)
C21_2 C 0.6692(7) 0.0436(7) 0.5402(4)
C22_2 C 0.6680(8) 0.1236(7) 0.5384(5)
H19_2 H 0.697006 0.149224 0.506765
C23_2 C 0.6241(7) 0.1674(6) 0.5833(4)
H20_2 H 0.619072 0.221322 0.579507
H24 H 0.85055 0.0216207 0.491148
C3_2 C 0.5345(5) 0.3256(5) 0.8211(3)
C4_2 C 0.5885(5) 0.3694(6) 0.8670(4)
C5_2 C 0.5943(6) 0.4500(7) 0.8628(4)
H12_2 H 0.570308 0.475762 0.829566
C6_2 C 0.6369(7) 0.4922(7) 0.9092(5)
C7_2 C 0.6692(7) 0.4564(7) 0.9598(4)
C8_2 C 0.6680(8) 0.3764(7) 0.9616(5)
H13_2 H 0.697006 0.350776 0.993235
C9_2 C 0.6241(7) 0.3326(6) 0.9167(4)
H14_2 H 0.619072 0.278678 0.920493
S1_2 S 0.6398(9) 0.6000(6) 0.8856(5)
O6_2 O 0.622(2) 0.615(2) 0.8228(8)
O7_2 O 0.7277(16) 0.635(2) 0.9079(13)
O8_2 O 0.762(4) 0.622(5) 0.831(4)
S2_2 S 0.8602(9) 0.9000(6) 0.8856(5)
O13_2 O 0.878(2) 0.885(2) 0.8228(8)
O14_2 O 0.7723(16) 0.865(2) 0.9079(13)
O15_2 O 0.738(4) 0.878(5) 0.831(4)
O9_2 O 0.4961(3) 0.8592(3) 0.2762(2)
O10_2 O 0.4831(4) 0.7537(3) 0.3303(3)
C17_3 C 0.4655(5) 0.8256(5) 0.3211(3)
C18_3 C 0.4115(5) 0.8694(6) 0.3670(4)
C19_3 C 0.4057(6) 0.9500(7) 0.3628(4)
H18_3 H 0.429692 0.975762 0.329566
C20_3 C 0.3631(7) 0.9922(7) 0.4092(5)
C21_3 C 0.3308(7) 0.9564(7) 0.4598(4)
C22_3 C 0.3320(8) 0.8764(7) 0.4616(5)
H19_3 H 0.302994 0.850776 0.493235
C23_3 C 0.3759(7) 0.8326(6) 0.4167(4)
H20_3 H 0.380928 0.778678 0.420493
Tb3 Tb 0.60111(3) 0.750000 0.250000
H24_2 H 0.14945 0.978379 0.508852
Tb4 Tb 0.89889(3) 0.750000 0.250000
O16_2 O 0.9961(3) 0.3592(3) 0.7238(2)
O17_2 O 0.9961(3) 0.1408(3) 0.7762(2)
O18_2 O 0.9831(4) 0.2537(3) 0.6697(3)
O19_2 O 0.9831(4) 0.2463(3) 0.8303(3)
O2_2 O 0.4961(3) 0.6408(3) 0.2238(2)
O3_2 O 0.4831(4) 0.7463(3) 0.1697(3)
C3_3 C 0.4655(5) 0.6744(5) 0.1789(3)
C4_3 C 0.4115(5) 0.6306(6) 0.1330(4)
C5_3 C 0.4057(6) 0.5500(7) 0.1372(4)
H12_3 H 0.429692 0.524238 0.170434
C6_3 C 0.3631(7) 0.5078(7) 0.0908(5)
C7_3 C 0.3308(7) 0.5436(7) 0.0402(4)
C8_3 C 0.3320(8) 0.6236(7) 0.0384(5)
H13_3 H 0.302994 0.649224 0.006765
C9_3 C 0.3759(7) 0.6674(6) 0.0833(4)
H14_3 H 0.380928 0.721322 0.079507
S1_3 S 0.3602(9) 0.4000(6) 0.1144(5)
O6_3 O 0.378(2) 0.385(2) 0.1772(8)
O7_3 O 0.2723(16) 0.365(2) 0.0921(13)
O8_3 O 0.238(4) 0.378(5) 0.169(4)
S2_3 S 0.1398(9) 0.1000(6) 0.1144(5)
O13_3 O 0.122(2) 0.115(2) 0.1772(8)
O14_3 O 0.2277(16) 0.135(2) 0.0921(13)
O15_3 O 0.262(4) 0.122(5) 0.169(4)
O4_2 O 0.8026(4) 0.6771(3) 0.3103(2)
O5_2 O 0.6478(4) 0.6530(3) 0.3195(2)
C3_4 C 0.9655(5) 0.3256(5) 0.6789(3)
C4_4 C 0.9115(5) 0.3694(6) 0.6330(4)
C5_4 C 0.9057(6) 0.4500(7) 0.6372(4)
H12_4 H 0.929692 0.475762 0.670434
C6_4 C 0.8631(7) 0.4922(7) 0.5908(5)
C7_4 C 0.8308(7) 0.4564(7) 0.5402(4)
C8_4 C 0.8320(8) 0.3764(7) 0.5384(5)
H13_4 H 0.802994 0.350776 0.506765
C9_4 C 0.8759(7) 0.3326(6) 0.5833(4)
H14_4 H 0.880928 0.278678 0.579507
C10_3 C 0.7966(8) 0.5040(6) 0.4879(4)
C11_3 C 0.7062(7) 0.5096(7) 0.4685(5)
C12_3 C 0.6873(6) 0.5550(6) 0.4201(4)
H15_3 H 0.624489 0.559081 0.407990
C13_3 C 0.7538(4) 0.5949(6) 0.3879(4)
C14_3 C 0.8453(7) 0.5870(7) 0.4072(5)
H16_3 H 0.894725 0.609513 0.385850
C15_3 C 0.8640(9) 0.5449(7) 0.4592(5)
H17_3 H 0.925211 0.545103 0.474567
C16_3 C 0.7337(5) 0.6449(5) 0.3354(4)
S1_4 S 0.8602(9) 0.6000(6) 0.6144(5)
O6_4 O 0.878(2) 0.615(2) 0.6772(8)
O7_4 O 0.7723(16) 0.635(2) 0.5921(13)
O8_4 O 0.738(4) 0.622(5) 0.669(4)
O11_2 O 0.6974(4) 0.8229(3) 0.3103(2)
O12_2 O 0.8522(4) 0.8470(3) 0.3195(2)
C24_3 C 0.7034(8) 0.9960(6) 0.4879(4)
C25_3 C 0.7938(7) 0.9904(7) 0.4685(5)
C26_3 C 0.8127(6) 0.9450(6) 0.4201(4)
H21_3 H 0.875511 0.940919 0.407990
C27_3 C 0.7462(4) 0.9051(6) 0.3879(4)
C28_3 C 0.6547(7) 0.9130(7) 0.4072(5)
H22_3 H 0.605275 0.890487 0.385850
C29_3 C 0.6360(9) 0.9551(7) 0.4592(5)
H23_3 H 0.574789 0.954897 0.474567
C30_3 C 0.7663(5) 0.8551(5) 0.3354(4)
S2_4 S 0.6398(9) 0.9000(6) 0.6144(5)
O13_4 O 0.622(2) 0.885(2) 0.6772(8)
O14_4 O 0.7277(16) 0.865(2) 0.5921(13)
O15_4 O 0.762(4) 0.878(5) 0.669(4)
O20_3 O 0.6974(4) 0.6771(3) 0.1897(2)
O21_3 O 0.6478(4) 0.8470(3) 0.1805(2)
H25_3 H 0.64945 0.478379 0.491148
O20_4 O 0.8026(4) 0.8229(3) 0.1897(2)
O21_4 O 0.8522(4) 0.6530(3) 0.1805(2)
C17_4 C 0.9655(5) 0.1744(5) 0.8211(3)
C18_4 C 0.9115(5) 0.1306(6) 0.8670(4)
C19_4 C 0.9057(6) 0.0500(7) 0.8628(4)
H18_4 H 0.929692 0.024238 0.829566
C20_4 C 0.8631(7) 0.0078(7) 0.9092(5)
C21_4 C 0.8308(7) 0.0436(7) 0.9598(4)
C22_4 C 0.8320(8) 0.1236(7) 0.9616(5)
H19_4 H 0.802994 0.149224 0.993235
C23_4 C 0.8759(7) 0.1674(6) 0.9167(4)
H20_4 H 0.880928 0.221322 0.920493
C10_4 C 0.7034(8) 0.5040(6) 0.0121(4)
C11_4 C 0.7938(7) 0.5096(7) 0.0315(5)
C12_4 C 0.8127(6) 0.5550(6) 0.0799(4)
H15_4 H 0.875511 0.559081 0.092010
C13_4 C 0.7462(4) 0.5949(6) 0.1121(4)
C14_4 C 0.6547(7) 0.5870(7) 0.0928(5)
H16_4 H 0.605275 0.609513 0.114150
C15_4 C 0.6360(9) 0.5449(7) 0.0408(5)
H17_4 H 0.574789 0.545103 0.025433
C16_4 C 0.7663(5) 0.6449(5) 0.1646(4)
C24_4 C 0.7966(8) 0.9960(6) 0.0121(4)
C25_4 C 0.7062(7) 0.9904(7) 0.0315(5)
C26_4 C 0.6873(6) 0.9450(6) 0.0799(4)
H21_4 H 0.624489 0.940919 0.092010
C27_4 C 0.7538(4) 0.9051(6) 0.1121(4)
C28_4 C 0.8453(7) 0.9130(7) 0.0928(5)
H22_4 H 0.894725 0.890487 0.114150
C29_4 C 0.8640(9) 0.9551(7) 0.0408(5)
H23_4 H 0.925211 0.954897 0.025433
C30_4 C 0.7337(5) 0.8551(5) 0.1646(4)
H25_4 H 0.85055 0.478379 0.00885228
H24_3 H 0.35055 0.978379 0.991148
H24_4 H 0.64945 0.0216207 0.00885228
loop_
_geom_bond_atom_site_label_1
_geom_bond_atom_site_label_2
_geom_bond_site_symmetry_1
_geom_bond_site_symmetry_2
H3 O1_3 1_555 1_555
H3_2 O1_4 1_555 1_555
H3_3 O1_7 1_555 1_555
H3_4 O1_8 1_555 1_555
N1 H4 1_555 1_555
H5 N1 1_555 1_555
C1 N1 1_555 1_555
H6 C1 1_555 1_555
H7 C1 1_555 1_555
C2 N1 1_555 1_555
H9 C2 1_555 1_555
H10 C2 1_555 1_555
H11 C2 1_555 1_555
N1_2 H4_2 1_555 1_555
H5_2 N1_2 1_555 1_555
C1_2 N1_2 1_555 1_555
H8_2 C1_2 1_555 1_555
C2_2 N1_2 1_555 1_555
H9_2 C2_2 1_555 1_555
H10_2 C2_2 1_555 1_555
H11_2 C2_2 1_555 1_555
N1_3 H4_3 1_555 1_555
H5_3 N1_3 1_555 1_555
C1_3 N1_3 1_555 1_555
H6_3 C1_3 1_555 1_555
H7_3 C1_3 1_555 1_555
H8_3 C1_3 1_555 1_555
C2_3 N1_3 1_555 1_555
H9_3 C2_3 1_555 1_555
H10_3 C2_3 1_555 1_555
H11_3 C2_3 1_555 1_555
N1_4 H4_4 1_555 1_555
H5_4 N1_4 1_555 1_555
C1_4 N1_4 1_555 1_555
C2_4 N1_4 1_555 1_555
H9_4 C2_4 1_555 1_555
H10_4 C2_4 1_555 1_555
H11_4 C2_4 1_555 1_555
N1_5 H4_5 1_555 1_555
H5_5 N1_5 1_555 1_555
C1_5 N1_5 1_555 1_555
H6_5 C1_5 1_555 1_555
H7_5 C1_5 1_555 1_555
C2_5 N1_5 1_555 1_555
H9_5 C2_5 1_555 1_555
H10_5 C2_5 1_555 1_555
H11_5 C2_5 1_555 1_555
N1_6 H4_6 1_555 1_555
H5_6 N1_6 1_555 1_555
C1_6 N1_6 1_555 1_555
H8_6 C1_6 1_555 1_555
C2_6 N1_6 1_555 1_555
H9_6 C2_6 1_555 1_555
H10_6 C2_6 1_555 1_555
H11_6 C2_6 1_555 1_555
N1_7 H4_7 1_555 1_555
H5_7 N1_7 1_555 1_555
C1_7 N1_7 1_555 1_555
H6_7 C1_7 1_555 1_555
H7_7 C1_7 1_555 1_555
H8_7 C1_7 1_555 1_555
C2_7 N1_7 1_555 1_555
H9_7 C2_7 1_555 1_555
H10_7 C2_7 1_555 1_555
H11_7 C2_7 1_555 1_555
N1_8 H4_8 1_555 1_555
H5_8 N1_8 1_555 1_555
C1_8 N1_8 1_555 1_555
C2_8 N1_8 1_555 1_555
H9_8 C2_8 1_555 1_555
H10_8 C2_8 1_555 1_555
H11_8 C2_8 1_555 1_555
Tb1 O5 1_555 1_555
O2 C3 1_555 1_555
O3 C3 1_555 1_555
O4 C16 1_555 1_555
O5 C16 1_555 1_555
C3 C4 1_555 1_555
C4 C5 1_555 1_555
C5 H12 1_555 1_555
C6 C5 1_555 1_555
C7 C6 1_555 1_555
C8 C7 1_555 1_555
H13 C8 1_555 1_555
C9 C4 1_555 1_555
H14 C9 1_555 1_555
C10 C7 1_555 1_555
C11 C10 1_555 1_555
C12 C11 1_555 1_555
H15 C12 1_555 1_555
C13 C12 1_555 1_555
C14 C13 1_555 1_555
H16 C14 1_555 1_555
C15 C10 1_555 1_555
H17 C15 1_555 1_555
C16 C13 1_555 1_555
S1 C6 1_555 1_555
O6 S1 1_555 1_555
O7 S1 1_555 1_555
O8 S1 1_555 1_555
O11 Tb1 1_555 1_555
O12 C30 1_555 1_555
C25 C24 1_555 1_555
C26 C25 1_555 1_555
H21 C26 1_555 1_555
C27 C26 1_555 1_555
C28 C27 1_555 1_555
H22 C28 1_555 1_555
C29 C24 1_555 1_555
H23 C29 1_555 1_555
C30 O11 1_555 1_555
O13 S2 1_555 1_555
O14 S2 1_555 1_555
O15 S2 1_555 1_555
Tb2 O4 1_555 1_555
O16 Tb1 1_555 1_555
O17 Tb1 1_555 1_555
O18 Tb1 1_555 1_555
O19 Tb1 1_555 1_555
O20 Tb1 1_555 1_555
O21 Tb1 1_555 1_555
C8 C9 1_555 1_555
C14 C15 1_555 1_555
O12 Tb2 1_555 1_555
C27 C30 1_555 1_555
C28 C29 1_555 1_555
C11 H25 1_555 1_555
O20_2 Tb2 1_555 1_555
O21_2 Tb2 1_555 1_555
O20 C16_2 1_555 1_555
O21_2 C16_2 1_555 1_555
C11_2 C10_2 1_555 1_555
C12_2 C11_2 1_555 1_555
H15_2 C12_2 1_555 1_555
C13_2 C12_2 1_555 1_555
C14_2 C13_2 1_555 1_555
H16_2 C14_2 1_555 1_555
C15_2 C10_2 1_555 1_555
H17_2 C15_2 1_555 1_555
C16_2 C13_2 1_555 1_555
O21 C30_2 1_555 1_555
C25_2 C24_2 1_555 1_555
C26_2 C25_2 1_555 1_555
H21_2 C26_2 1_555 1_555
C27_2 C26_2 1_555 1_555
C28_2 C27_2 1_555 1_555
H22_2 C28_2 1_555 1_555
C29_2 C24_2 1_555 1_555
H23_2 C29_2 1_555 1_555
C30_2 O20_2 1_555 1_555
C14_2 C15_2 1_555 1_555
C27_2 C30_2 1_555 1_555
C28_2 C29_2 1_555 1_555
C11_2 H25_2 1_555 1_555
O9 C17 1_555 1_555
O10 C17 1_555 1_555
C17 C18 1_555 1_555
C18 C19 1_555 1_555
C19 H18 1_555 1_555
C20 C19 1_555 1_555
C21 C20 1_555 1_555
C22 C21 1_555 1_555
H19 C22 1_555 1_555
C23 C18 1_555 1_555
H20 C23 1_555 1_555
C22 C23 1_555 1_555
O16 C17_2 1_555 1_555
O18 C17_2 1_555 1_555
C17_2 C18_2 1_555 1_555
C18_2 C19_2 1_555 1_555
C19_2 H18_2 1_555 1_555
C20_2 C19_2 1_555 1_555
C21_2 C20_2 1_555 1_555
C22_2 C21_2 1_555 1_555
H19_2 C22_2 1_555 1_555
C23_2 C18_2 1_555 1_555
H20_2 C23_2 1_555 1_555
C22_2 C23_2 1_555 1_555
O17 C3_2 1_555 1_555
O19 C3_2 1_555 1_555
C3_2 C4_2 1_555 1_555
C4_2 C5_2 1_555 1_555
C5_2 H12_2 1_555 1_555
C6_2 C5_2 1_555 1_555
C7_2 C6_2 1_555 1_555
C8_2 C7_2 1_555 1_555
H13_2 C8_2 1_555 1_555
C9_2 C4_2 1_555 1_555
H14_2 C9_2 1_555 1_555
S1_2 C6_2 1_555 1_555
O6_2 S1_2 1_555 1_555
O7_2 S1_2 1_555 1_555
O8_2 S1_2 1_555 1_555
O13_2 S2_2 1_555 1_555
O14_2 S2_2 1_555 1_555
O15_2 S2_2 1_555 1_555
C8_2 C9_2 1_555 1_555
O9_2 C17_3 1_555 1_555
O10_2 C17_3 1_555 1_555
C17_3 C18_3 1_555 1_555
C18_3 C19_3 1_555 1_555
C19_3 H18_3 1_555 1_555
C20_3 C19_3 1_555 1_555
C21_3 C20_3 1_555 1_555
C22_3 C21_3 1_555 1_555
H19_3 C22_3 1_555 1_555
C23_3 C18_3 1_555 1_555
H20_3 C23_3 1_555 1_555
Tb3 O9_2 1_555 1_555
O10_2 Tb3 1_555 1_555
C22_3 C23_3 1_555 1_555
O2_2 C3_3 1_555 1_555
O3_2 C3_3 1_555 1_555
C3_3 C4_3 1_555 1_555
C4_3 C5_3 1_555 1_555
C5_3 H12_3 1_555 1_555
C6_3 C5_3 1_555 1_555
C7_3 C6_3 1_555 1_555
C8_3 C7_3 1_555 1_555
H13_3 C8_3 1_555 1_555
C9_3 C4_3 1_555 1_555
H14_3 C9_3 1_555 1_555
S1_3 C6_3 1_555 1_555
O6_3 S1_3 1_555 1_555
O7_3 S1_3 1_555 1_555
O8_3 S1_3 1_555 1_555
O13_3 S2_3 1_555 1_555
O14_3 S2_3 1_555 1_555
O15_3 S2_3 1_555 1_555
Tb3 O2_2 1_555 1_555
O3_2 Tb3 1_555 1_555
C8_3 C9_3 1_555 1_555
Tb3 O5_2 1_555 1_555
O16_2 C3_4 1_555 1_555
O18_2 C3_4 1_555 1_555
O4_2 C16_3 1_555 1_555
O5_2 C16_3 1_555 1_555
C3_4 C4_4 1_555 1_555
C4_4 C5_4 1_555 1_555
C5_4 H12_4 1_555 1_555
C6_4 C5_4 1_555 1_555
C7_4 C6_4 1_555 1_555
C8_4 C7_4 1_555 1_555
H13_4 C8_4 1_555 1_555
C9_4 C4_4 1_555 1_555
H14_4 C9_4 1_555 1_555
C10_3 C7_4 1_555 1_555
C11_3 C10_3 1_555 1_555
C12_3 C11_3 1_555 1_555
H15_3 C12_3 1_555 1_555
C13_3 C12_3 1_555 1_555
C14_3 C13_3 1_555 1_555
H16_3 C14_3 1_555 1_555
C15_3 C10_3 1_555 1_555
H17_3 C15_3 1_555 1_555
C16_3 C13_3 1_555 1_555
S1_4 C6_4 1_555 1_555
O6_4 S1_4 1_555 1_555
O7_4 S1_4 1_555 1_555
O8_4 S1_4 1_555 1_555
O11_2 Tb3 1_555 1_555
O12_2 C30_3 1_555 1_555
C25_3 C24_3 1_555 1_555
C26_3 C25_3 1_555 1_555
H21_3 C26_3 1_555 1_555
C27_3 C26_3 1_555 1_555
C28_3 C27_3 1_555 1_555
H22_3 C28_3 1_555 1_555
C29_3 C24_3 1_555 1_555
H23_3 C29_3 1_555 1_555
C30_3 O11_2 1_555 1_555
O13_4 S2_4 1_555 1_555
O14_4 S2_4 1_555 1_555
O15_4 S2_4 1_555 1_555
Tb4 O4_2 1_555 1_555
O20_3 Tb3 1_555 1_555
O21_3 Tb3 1_555 1_555
C8_4 C9_4 1_555 1_555
C14_3 C15_3 1_555 1_555
O12_2 Tb4 1_555 1_555
C27_3 C30_3 1_555 1_555
C28_3 C29_3 1_555 1_555
C11_3 H25_3 1_555 1_555
O20_4 Tb4 1_555 1_555
O21_4 Tb4 1_555 1_555
O17_2 C17_4 1_555 1_555
O19_2 C17_4 1_555 1_555
C17_4 C18_4 1_555 1_555
C18_4 C19_4 1_555 1_555
C19_4 H18_4 1_555 1_555
C20_4 C19_4 1_555 1_555
C21_4 C20_4 1_555 1_555
C22_4 C21_4 1_555 1_555
H19_4 C22_4 1_555 1_555
C23_4 C18_4 1_555 1_555
H20_4 C23_4 1_555 1_555
C22_4 C23_4 1_555 1_555
O20_3 C16_4 1_555 1_555
O21_4 C16_4 1_555 1_555
C11_4 C10_4 1_555 1_555
C12_4 C11_4 1_555 1_555
H15_4 C12_4 1_555 1_555
C13_4 C12_4 1_555 1_555
C14_4 C13_4 1_555 1_555
H16_4 C14_4 1_555 1_555
C15_4 C10_4 1_555 1_555
H17_4 C15_4 1_555 1_555
C16_4 C13_4 1_555 1_555
O21_3 C30_4 1_555 1_555
C25_4 C24_4 1_555 1_555
C26_4 C25_4 1_555 1_555
H21_4 C26_4 1_555 1_555
C27_4 C26_4 1_555 1_555
C28_4 C27_4 1_555 1_555
H22_4 C28_4 1_555 1_555
C29_4 C24_4 1_555 1_555
H23_4 C29_4 1_555 1_555
C30_4 O20_4 1_555 1_555
C14_4 C15_4 1_555 1_555
C27_4 C30_4 1_555 1_555
C28_4 C29_4 1_555 1_555
C11_4 H25_4 1_555 1_555

#END
