
###############################################################################
#
# This file contains modified crystal structure data generated from the
# MOF subset of the Cambridge Structural Database (CSD) v543 
# hosted by the Cambridge Crystallographic Data Centre (CCDC).
#
# This work is licensed under the Creative Commons
# Attribution-NonCommercial-ShareAlike 4.0 International License.
# To view a copy of this license, visit
# http://creativecommons.org/licenses/by-nc-sa/4.0/
# or send a letter to
# Creative Commons, PO Box 1866, Mountain View, CA 94042, USA.
#
# CIF created using the CSD Python API on 29 September 2022
# The structure has been converted into the P1 space group
# The structure has a 3D framework
# The original CSD entry VATNOX is in the rhombohedral crystal system
# The framework has been calculated to contain at least 10.0% void space
# The void calculation uses a probe of radius 1.32A, grid spacing 0.4
# H atom positions have been added when not included in the experimental data
# Generated hydrogen atom positions removed from atoms on special positions
#
###############################################################################

data_VATNOX
_chemical_formula_moiety         '(C756 H612 O258 Sc58)n'
_symmetry_cell_setting           triclinic
_symmetry_space_group_name_H-M   'P 1'
_symmetry_Int_Tables_number      1
_space_group_name_Hall           'P 1'
loop_
_symmetry_equiv_pos_site_id
_symmetry_equiv_pos_as_xyz
1 x,y,z
_cell_length_a                   27.3771(12)
_cell_length_b                   27.3771(12)
_cell_length_c                   75.509(6)
_cell_angle_alpha                90
_cell_angle_beta                 90
_cell_angle_gamma                120
_cell_volume                     49012.2
loop_
_atom_site_label
_atom_site_type_symbol
_atom_site_fract_x
_atom_site_fract_y
_atom_site_fract_z
Sc2 Sc 0.68233(7) 0.0000 0.2500
O2 O 0.5329(3) 0.0086(2) 0.27680(6)
O3 O 0.6094(2) 0.0000 0.2500
O5 O 0.40401(19) 0.0841(2) 0.38184(6)
O8 O 0.7612(3) 0.0000 0.2500
C10 C 0.4274(3) 0.0291(3) 0.33169(9)
H5 H 0.4513 0.0546 0.3229
C17 C 0.3932(3) 0.0128(3) 0.36159(9)
C18 C 0.4238(3) 0.0496(3) 0.34848(10)
H11 H 0.4427 0.0891 0.3506
C21 C 0.3880(3) 0.0332(3) 0.37910(10)
Sc6 Sc 0.60473(7) 0.06359(5) 0.261663(16)
Sc7 Sc 0.39692(5) 0.12553(5) 0.405004(16)
O24 O 0.7271(2) 0.0838(2) 0.23937(6)
O26 O 0.7031(4) 0.0329(2) 0.27549(6)
H26 H 0.791597 0.0366122 0.245356
Sc1 Sc 0.54114(5) 0.93641(5) 0.238337(16)
Sc2_2 Sc 0.68233(7) 1.0000 0.2500
O1 O 0.12160(19) 0.67770(28) 0.25113(6)
O3_2 O 0.6094(2) 1.0000 0.2500
O4 O 0.48700(19) 0.93607(19) 0.25863(6)
O6 O 0.4668(2) 0.8673(2) 0.22727(6)
O7 O 0.0838(2) 0.7271(2) 0.26063(6)
O8_2 O 0.7612(3) 1.0000 0.2500
C1 C 0.4436(3) 0.9692(3) 0.29998(9)
H1 H 0.4789 0.9985 0.3041
C2 C 0.4387(3) 0.9442(3) 0.28318(9)
O9 O 0.3662(2) 0.9964(3) 0.39118(6)
C3 C 0.3441(3) 0.9075(3) 0.30361(11)
H2 H 0.3112 0.8943 0.3107
C4 C 0.3946(3) 0.9494(3) 0.31031(10)
C5 C 0.4895(3) 0.9649(3) 0.27227(9)
C6 C 0.2831(3) 0.8405(3) 0.27989(10)
C7 C 0.3387(3) 0.8839(3) 0.28722(10)
C8 C 0.2786(3) 0.7954(3) 0.27015(11)
H3 H 0.3107 0.7916 0.2680
C9 C 0.3880(3) 0.9024(3) 0.27708(10)
H4 H 0.3859 0.8856 0.2659
C11 C 0.2355(3) 0.8447(4) 0.28297(11)
H6 H 0.2388 0.8750 0.2900
C12 C 0.3967(3) 0.9729(3) 0.32800(10)
C13 C 0.3660(4) 0.9363(4) 0.34208(11)
H7 H 0.3461 0.8967 0.3401
C14 C 0.3645(3) 0.9566(3) 0.35819(10)
H8 H 0.3428 0.9311 0.3673
C15 C 0.2258(3) 0.7559(3) 0.26369(11)
H9 H 0.2217 0.7242 0.2573
C16 C 0.1836(3) 0.8064(3) 0.27621(10)
H10 H 0.1518 0.8108 0.2783
C19 C 0.1784(3) 0.7620(3) 0.26645(10)
C20 C 0.1240(3) 0.7197(3) 0.25904(9)
Sc3 Sc 0.06359(5) 0.60473(7) 0.238337(16)
O10 O 0.32230(28) 0.44390(34) 0.25113(6)
O12 O 0.06393(19) 0.55093(27) 0.25863(6)
O14 O 0.1327(2) 0.5995(3) 0.22727(6)
O15 O 0.2729(2) 0.3567(3) 0.26063(6)
C22 C 0.0308(3) 0.4744(4) 0.29998(9)
H12 H 0.0015 0.4804 0.3041
C23 C 0.0558(3) 0.4945(4) 0.28318(9)
O16 O 0.0036(3) 0.3698(4) 0.39118(6)
C24 C 0.0925(3) 0.4366(4) 0.30361(11)
H13 H 0.1057 0.4169 0.3107
C25 C 0.0506(3) 0.4452(4) 0.31031(10)
C26 C 0.0351(3) 0.5246(4) 0.27227(9)
C27 C 0.1595(3) 0.4426(4) 0.27989(10)
C28 C 0.1161(3) 0.4548(4) 0.28722(10)
C29 C 0.2046(3) 0.4832(4) 0.27015(11)
H14 H 0.2084 0.5191 0.2680
C30 C 0.0976(3) 0.4856(4) 0.27708(10)
H15 H 0.1144 0.5003 0.2659
C32 C 0.1553(4) 0.3908(5) 0.28297(11)
H17 H 0.1250 0.3638 0.2900
C33 C 0.0271(3) 0.4238(4) 0.32800(10)
C34 C 0.0637(4) 0.4297(6) 0.34208(11)
H18 H 0.1033 0.4494 0.3401
C35 C 0.0434(3) 0.4079(4) 0.35819(10)
H19 H 0.0689 0.4117 0.3673
C36 C 0.2441(3) 0.4699(4) 0.26369(11)
H20 H 0.2758 0.4975 0.2573
C37 C 0.1936(3) 0.3772(4) 0.27621(10)
H21 H 0.1892 0.3410 0.2783
C40 C 0.2380(3) 0.4164(4) 0.26645(10)
C41 C 0.2803(3) 0.4043(4) 0.25904(9)
Sc4 Sc 0.39527(7) 0.45886(5) 0.238337(16)
Sc9 Sc 0.0000 0.68233(7) 0.2500
Sc10 Sc 0.31767(7) 0.31767(7) 0.2500
Sc11 Sc 0.3333 0.98434(7) 0.4167
Sc12 Sc 0.01566(7) 0.34900(7) 0.4167
O17 O 0.55610(34) 0.87840(19) 0.25113(6)
O18 O 0.0086(2) 0.5329(3) 0.22320(6)
O19 O 0.5243(4) 0.9914(2) 0.22320(6)
O20 O -0.0000 0.6094(2) 0.2500
O21 O 0.5826(2) 0.92932(19) 0.21517(6)
O22 O 0.07068(19) 0.65324(28) 0.21517(6)
O23 O 0.6433(3) 0.9162(2) 0.26063(6)
O25 O 0.6703(3) 0.9671(2) 0.22451(6)
H25 H 0.757733 0.968885 0.242366
O11 O 0.9914(2) 0.5243(4) 0.27680(6)
O13 O 0.9159(2) 0.31991(28) 0.38184(6)
C31 C 0.9709(3) 0.3983(4) 0.33169(9)
H16 H 0.9454 0.3967 0.3229
C38 C 0.9872(3) 0.3804(4) 0.36159(9)
C39 C 0.9504(3) 0.3742(4) 0.34848(10)
H22 H 0.9109 0.3536 0.3506
C42 C 0.9668(3) 0.3548(4) 0.37910(10)
Sc5 Sc 0.93641(5) 0.54114(5) 0.261663(16)
Sc8 Sc 0.87447(5) 0.27140(7) 0.405004(16)
Sc9_2 Sc 1.0000 0.68233(7) 0.2500
O20_2 O 1.0000 0.6094(2) 0.2500
O8_3 O -0.0000 0.7612(3) 0.2500
O11_2 O 0.4757(4) 0.4671(4) 0.27680(6)
O12_2 O 0.44907(27) 0.51300(33) 0.25863(6)
O13_2 O 0.68009(28) 0.59599(34) 0.38184(6)
O14_2 O 0.4005(3) 0.5332(4) 0.22727(6)
C22_2 C 0.5256(4) 0.5564(5) 0.29998(9)
H12_2 H 0.5196 0.5211 0.3041
C23_2 C 0.5055(4) 0.5613(5) 0.28318(9)
O16_2 O 0.6302(4) 0.6338(5) 0.39118(6)
C24_2 C 0.5634(4) 0.6559(5) 0.30361(11)
H13_2 H 0.5831 0.6888 0.3107
C25_2 C 0.5548(4) 0.6054(5) 0.31031(10)
C26_2 C 0.4754(4) 0.5105(5) 0.27227(9)
C27_2 C 0.5574(4) 0.7169(5) 0.27989(10)
C28_2 C 0.5452(4) 0.6613(5) 0.28722(10)
C29_2 C 0.5168(4) 0.7214(5) 0.27015(11)
H14_2 H 0.4809 0.6893 0.2680
C30_2 C 0.5144(4) 0.6120(5) 0.27708(10)
H15_2 H 0.4997 0.6141 0.2659
C31_2 C 0.6017(4) 0.5726(5) 0.33169(9)
H16_2 H 0.6033 0.5487 0.3229
C32_2 C 0.6092(5) 0.7645(6) 0.28297(11)
H17_2 H 0.6362 0.7612 0.2900
C33_2 C 0.5762(4) 0.6033(5) 0.32800(10)
C34_2 C 0.5703(6) 0.6340(7) 0.34208(11)
H18_2 H 0.5506 0.6539 0.3401
C35_2 C 0.5921(4) 0.6355(5) 0.35819(10)
H19_2 H 0.5883 0.6572 0.3673
C36_2 C 0.5301(4) 0.7742(5) 0.26369(11)
H20_2 H 0.5025 0.7783 0.2573
C37_2 C 0.6228(4) 0.8164(5) 0.27621(10)
H21_2 H 0.6590 0.8482 0.2783
C38_2 C 0.6196(4) 0.6068(5) 0.36159(9)
C39_2 C 0.6258(4) 0.5762(5) 0.34848(10)
H22_2 H 0.6464 0.5573 0.3506
C40_2 C 0.5836(4) 0.8216(5) 0.26645(10)
C41_2 C 0.5957(4) 0.8760(5) 0.25904(9)
C42_2 C 0.6452(4) 0.6120(5) 0.37910(10)
Sc5_2 Sc 0.45886(5) 0.39527(7) 0.261663(16)
Sc8_2 Sc 0.72860(7) 0.60308(9) 0.405004(16)
Sc12_2 Sc 0.65100(7) 0.66667(10) 0.4167
O18_2 O 0.4671(3) 0.4757(4) 0.22320(6)
O20_3 O 0.3906(2) 0.3906(2) 0.2500
O22_2 O 0.34676(28) 0.41743(34) 0.21517(6)
O25_2 O 0.0329(2) 0.7031(4) 0.22451(6)
H25_2 H 0.0311155 0.788848 0.242366
O8_4 O 1.0000 0.7612(3) 0.2500
O24_2 O 0.9162(2) 0.6433(3) 0.23937(6)
O26_2 O 0.9671(2) 0.6703(4) 0.27549(6)
H26_2 H 0.963388 0.754984 0.245356
O8_5 O 0.2388(3) 0.2388(3) 0.2500
O24_3 O 0.3567(3) 0.2729(2) 0.23937(6)
O25_3 O 0.2969(4) 0.3297(3) 0.22451(6)
O26_3 O 0.3297(4) 0.2969(4) 0.27549(6)
O5_2 O 0.0841(2) 0.40401(19) 0.11816(6)
C10_2 C 0.0291(3) 0.4274(3) 0.16831(9)
H5_2 H 0.0546 0.4513 0.1771
C17_2 C 0.0128(3) 0.3932(3) 0.13841(9)
C18_2 C 0.0496(3) 0.4238(3) 0.15152(10)
H11_2 H 0.0891 0.4427 0.1494
C21_2 C 0.0332(3) 0.3880(3) 0.12090(10)
Sc7_2 Sc 0.12553(5) 0.39692(5) 0.094996(16)
H26_3 H 0.0366122 0.791597 0.254644
O1_2 O 0.67770(28) 0.12160(19) 0.24887(6)
O4_2 O 0.93607(19) 0.48700(19) 0.24137(6)
O6_2 O 0.8673(2) 0.4668(2) 0.27273(6)
C1_2 C 0.9692(3) 0.4436(3) 0.20002(9)
H1_2 H 0.9985 0.4789 0.1959
C2_2 C 0.9442(3) 0.4387(3) 0.21682(9)
O9_2 O 0.9964(3) 0.3662(2) 0.10882(6)
C3_2 C 0.9075(3) 0.3441(3) 0.19639(11)
H2_2 H 0.8943 0.3112 0.1893
C4_2 C 0.9494(3) 0.3946(3) 0.18969(10)
C5_2 C 0.9649(3) 0.4895(3) 0.22773(9)
C6_2 C 0.8405(3) 0.2831(3) 0.22011(10)
C7_2 C 0.8839(3) 0.3387(3) 0.21278(10)
C8_2 C 0.7954(3) 0.2786(3) 0.22985(11)
H3_2 H 0.7916 0.3107 0.2320
C9_2 C 0.9024(3) 0.3880(3) 0.22292(10)
H4_2 H 0.8856 0.3859 0.2341
C11_2 C 0.8447(4) 0.2355(3) 0.21703(11)
H6_2 H 0.8750 0.2388 0.2100
C12_2 C 0.9729(3) 0.3967(3) 0.17200(10)
C13_2 C 0.9363(4) 0.3660(4) 0.15792(11)
H7_2 H 0.8967 0.3461 0.1599
C14_2 C 0.9566(3) 0.3645(3) 0.14181(10)
H8_2 H 0.9311 0.3428 0.1327
C15_2 C 0.7559(3) 0.2258(3) 0.23631(11)
H9_2 H 0.7242 0.2217 0.2427
C16_2 C 0.8064(3) 0.1836(3) 0.22379(10)
H10_2 H 0.8108 0.1518 0.2217
C19_2 C 0.7620(3) 0.1784(3) 0.23355(10)
C20_2 C 0.7197(3) 0.1240(3) 0.24096(9)
O10_2 O 0.44390(34) 0.32230(28) 0.24887(6)
O12_3 O 0.55093(27) 0.06393(19) 0.24137(6)
O14_3 O 0.5995(3) 0.1327(2) 0.27273(6)
C22_3 C 0.4744(4) 0.0308(3) 0.20002(9)
H12_3 H 0.4804 0.0015 0.1959
C23_3 C 0.4945(4) 0.0558(3) 0.21682(9)
O16_3 O 0.3698(4) 0.0036(3) 0.10882(6)
C24_3 C 0.4366(4) 0.0925(3) 0.19639(11)
H13_3 H 0.4169 0.1057 0.1893
C25_3 C 0.4452(4) 0.0506(3) 0.18969(10)
C26_3 C 0.5246(4) 0.0351(3) 0.22773(9)
C27_3 C 0.4426(4) 0.1595(3) 0.22011(10)
C28_3 C 0.4548(4) 0.1161(3) 0.21278(10)
C29_3 C 0.4832(4) 0.2046(3) 0.22985(11)
H14_3 H 0.5191 0.2084 0.2320
C30_3 C 0.4856(4) 0.0976(3) 0.22292(10)
H15_3 H 0.5003 0.1144 0.2341
C32_3 C 0.3908(5) 0.1553(4) 0.21703(11)
H17_3 H 0.3638 0.1250 0.2100
C33_3 C 0.4238(4) 0.0271(3) 0.17200(10)
C34_3 C 0.4297(6) 0.0637(4) 0.15792(11)
H18_3 H 0.4494 0.1033 0.1599
C35_3 C 0.4079(4) 0.0434(3) 0.14181(10)
H19_3 H 0.4117 0.0689 0.1327
C36_3 C 0.4699(4) 0.2441(3) 0.23631(11)
H20_3 H 0.4975 0.2758 0.2427
C37_3 C 0.3772(4) 0.1936(3) 0.22379(10)
H21_3 H 0.3410 0.1892 0.2217
C40_3 C 0.4164(4) 0.2380(3) 0.23355(10)
C41_3 C 0.4043(4) 0.2803(3) 0.24096(9)
Sc11_2 Sc 0.98434(7) 0.3333 0.0833
Sc12_3 Sc 0.34900(7) 0.01566(7) 0.0833
O17_2 O 0.87840(19) 0.55610(34) 0.24887(6)
O21_2 O 0.92932(19) 0.5826(2) 0.28483(6)
O22_3 O 0.65324(28) 0.07068(19) 0.28483(6)
H25_3 H 0.968885 0.757733 0.257634
O13_3 O 0.31991(28) 0.9159(2) 0.11816(6)
C31_3 C 0.3983(4) 0.9709(3) 0.16831(9)
H16_3 H 0.3967 0.9454 0.1771
C38_3 C 0.3804(4) 0.9872(3) 0.13841(9)
C39_3 C 0.3742(4) 0.9504(3) 0.15152(10)
H22_3 H 0.3536 0.9109 0.1494
C42_3 C 0.3548(4) 0.9668(3) 0.12090(10)
Sc8_3 Sc 0.27140(7) 0.87447(5) 0.094996(16)
O12_4 O 0.51300(33) 0.44907(27) 0.24137(6)
O13_4 O 0.59599(34) 0.68009(28) 0.11816(6)
O14_4 O 0.5332(4) 0.4005(3) 0.27273(6)
C22_4 C 0.5564(5) 0.5256(4) 0.20002(9)
H12_4 H 0.5211 0.5196 0.1959
C23_4 C 0.5613(5) 0.5055(4) 0.21682(9)
O16_4 O 0.6338(5) 0.6302(4) 0.10882(6)
C24_4 C 0.6559(5) 0.5634(4) 0.19639(11)
H13_4 H 0.6888 0.5831 0.1893
C25_4 C 0.6054(5) 0.5548(4) 0.18969(10)
C26_4 C 0.5105(5) 0.4754(4) 0.22773(9)
C27_4 C 0.7169(5) 0.5574(4) 0.22011(10)
C28_4 C 0.6613(5) 0.5452(4) 0.21278(10)
C29_4 C 0.7214(5) 0.5168(4) 0.22985(11)
H14_4 H 0.6893 0.4809 0.2320
C30_4 C 0.6120(5) 0.5144(4) 0.22292(10)
H15_4 H 0.6141 0.4997 0.2341
C31_4 C 0.5726(5) 0.6017(4) 0.16831(9)
H16_4 H 0.5487 0.6033 0.1771
C32_4 C 0.7645(6) 0.6092(5) 0.21703(11)
H17_4 H 0.7612 0.6362 0.2100
C33_4 C 0.6033(5) 0.5762(4) 0.17200(10)
C34_4 C 0.6340(7) 0.5703(6) 0.15792(11)
H18_4 H 0.6539 0.5506 0.1599
C35_4 C 0.6355(5) 0.5921(4) 0.14181(10)
H19_4 H 0.6572 0.5883 0.1327
C36_4 C 0.7742(5) 0.5301(4) 0.23631(11)
H20_4 H 0.7783 0.5025 0.2427
C37_4 C 0.8164(5) 0.6228(4) 0.22379(10)
H21_4 H 0.8482 0.6590 0.2217
C38_4 C 0.6068(5) 0.6196(4) 0.13841(9)
C39_4 C 0.5762(5) 0.6258(4) 0.15152(10)
H22_4 H 0.5573 0.6464 0.1494
C40_4 C 0.8216(5) 0.5836(4) 0.23355(10)
C41_4 C 0.8760(5) 0.5957(4) 0.24096(9)
C42_4 C 0.6120(5) 0.6452(4) 0.12090(10)
Sc8_4 Sc 0.60308(9) 0.72860(7) 0.094996(16)
Sc12_4 Sc 0.66667(10) 0.65100(7) 0.0833
O22_4 O 0.41743(34) 0.34676(28) 0.28483(6)
H25_4 H 0.788848 0.0311155 0.257634
H26_4 H 0.754984 0.963388 0.254644
Sc1_2 Sc 0.20781(5) 0.26974(5) 0.571670(16)
Sc2_3 Sc 0.34900(7) 0.3333 0.5833
O2_2 O 0.1996(3) 0.3419(2) 0.61013(6)
O3_3 O 0.2761(2) 0.3333 0.5833
O4_3 O 0.15367(19) 0.26940(19) 0.59196(6)
O5_3 O 0.07068(19) 0.4174(2) 0.71517(6)
O6_3 O 0.1335(2) 0.2006(2) 0.56060(6)
O8_6 O 0.4279(3) 0.3333 0.5833
C1_3 C 0.1103(3) 0.3025(3) 0.63331(9)
H1_3 H 0.1456 0.3318 0.6374
C2_3 C 0.1054(3) 0.2775(3) 0.61651(9)
O9_3 O 0.0329(2) 0.3297(3) 0.72451(6)
C3_3 C 0.0108(3) 0.2408(3) 0.63694(11)
C4_3 C 0.0613(3) 0.2827(3) 0.64364(10)
C5_3 C 0.1562(3) 0.2982(3) 0.60560(9)
C7_3 C 0.0054(3) 0.2172(3) 0.62055(10)
C9_3 C 0.0547(3) 0.2357(3) 0.61041(10)
H4_3 H 0.0526 0.2189 0.5992
C10_3 C 0.0941(3) 0.3624(3) 0.66502(9)
H5_3 H 0.1180 0.3879 0.6562
C12_3 C 0.0634(3) 0.3062(3) 0.66133(10)
C13_3 C 0.0327(4) 0.2696(4) 0.67541(11)
H7_3 H 0.0128 0.2300 0.6734
C14_3 C 0.0312(3) 0.2899(3) 0.69152(10)
H8_3 H 0.0095 0.2644 0.7006
C17_3 C 0.0599(3) 0.3461(3) 0.69492(9)
C18_3 C 0.0905(3) 0.3829(3) 0.68181(10)
H11_3 H 0.1094 0.4224 0.6839
C21_3 C 0.0547(3) 0.3665(3) 0.71243(10)
Sc6_2 Sc 0.27140(7) 0.39692(5) 0.594996(16)
Sc7_3 Sc 0.06359(5) 0.45886(5) 0.738337(16)
Sc11_3 Sc -0.0000 0.31767(7) 0.7500
O17_3 O 0.22277(34) 0.21173(19) 0.58446(6)
O19_2 O 0.1910(4) 0.3247(2) 0.55653(6)
O21_3 O 0.2492(2) 0.26266(19) 0.54851(6)
O23_2 O 0.3100(3) 0.2495(2) 0.59396(6)
O24_4 O 0.3938(2) 0.4171(2) 0.57270(6)
O25_4 O 0.3369(3) 0.3005(2) 0.55785(6)
O26_4 O 0.3698(4) 0.3662(2) 0.60882(6)
Sc4_2 Sc 0.06194(7) 0.79219(5) 0.571670(16)
O1_3 O 0.78827(19) 0.01103(28) 0.58446(6)
O7_2 O 0.7505(2) 0.0604(2) 0.59396(6)
H2_3 H 0.9779 0.2276 0.6440
C6_3 C 0.9498(3) 0.1738(3) 0.61322(10)
C8_3 C 0.9453(3) 0.1287(3) 0.60348(11)
H3_3 H 0.9774 0.1249 0.6013
C11_3 C 0.9022(3) 0.1780(4) 0.61630(11)
H6_3 H 0.9055 0.2083 0.6233
C15_3 C 0.8925(3) 0.0892(3) 0.59702(11)
H9_3 H 0.8884 0.0575 0.5906
C16_3 C 0.8503(3) 0.1397(3) 0.60954(10)
H10_3 H 0.8185 0.1441 0.6116
C19_3 C 0.8451(3) 0.0953(3) 0.59978(10)
C20_3 C 0.7907(3) 0.0530(3) 0.59237(9)
Sc9_3 Sc 0.6667 0.01566(7) 0.5833
Sc11_4 Sc 1.0000 0.31767(7) 0.7500
Sc3_2 Sc 0.73026(5) 0.93806(7) 0.571670(16)
O10_3 O 0.98897(28) 0.77723(34) 0.58446(6)
O11_3 O 0.6581(2) 0.8576(4) 0.61013(6)
O12_5 O 0.73060(19) 0.88426(27) 0.59196(6)
O13_5 O 0.5826(2) 0.65324(28) 0.71517(6)
O14_5 O 0.7994(2) 0.9328(3) 0.56060(6)
O15_2 O 0.9396(2) 0.6900(3) 0.59396(6)
C22_5 C 0.6975(3) 0.8077(4) 0.63331(9)
H12_5 H 0.6682 0.8137 0.6374
C23_5 C 0.7225(3) 0.8278(4) 0.61651(9)
O16_5 O 0.6703(3) 0.7031(4) 0.72451(6)
C24_5 C 0.7592(3) 0.7699(4) 0.63694(11)
H13_5 H 0.7724 0.7502 0.6440
C25_5 C 0.7173(3) 0.7785(4) 0.64364(10)
C26_5 C 0.7018(3) 0.8579(4) 0.60560(9)
C27_5 C 0.8262(3) 0.7759(4) 0.61322(10)
C28_5 C 0.7828(3) 0.7881(4) 0.62055(10)
C29_5 C 0.8713(3) 0.8165(4) 0.60348(11)
H14_5 H 0.8751 0.8524 0.6013
C30_5 C 0.7643(3) 0.8189(4) 0.61041(10)
H15_5 H 0.7811 0.8336 0.5992
C31_5 C 0.6376(3) 0.7316(4) 0.66502(9)
H16_5 H 0.6121 0.7300 0.6562
C32_5 C 0.8220(4) 0.7241(5) 0.61630(11)
H17_5 H 0.7917 0.6971 0.6233
C33_5 C 0.6938(3) 0.7571(4) 0.66133(10)
C34_5 C 0.7304(4) 0.7630(6) 0.67541(11)
H18_5 H 0.7700 0.7827 0.6734
C35_5 C 0.7101(3) 0.7412(4) 0.69152(10)
H19_5 H 0.7356 0.7450 0.7006
C36_5 C 0.9108(3) 0.8032(4) 0.59702(11)
H20_5 H 0.9425 0.8308 0.5906
C37_5 C 0.8603(3) 0.7105(4) 0.60954(10)
H21_5 H 0.8559 0.6743 0.6116
C38_5 C 0.6539(3) 0.7137(4) 0.69492(9)
C39_5 C 0.6171(3) 0.7075(4) 0.68181(10)
H22_5 H 0.5776 0.6869 0.6839
C40_5 C 0.9047(3) 0.7497(4) 0.59978(10)
C41_5 C 0.9470(3) 0.7376(4) 0.59237(9)
C42_5 C 0.6335(3) 0.6881(4) 0.71243(10)
Sc5_3 Sc 0.60308(5) 0.87447(5) 0.594996(16)
Sc8_5 Sc 0.54114(5) 0.60473(7) 0.738337(16)
Sc10_2 Sc 0.98434(7) 0.65100(7) 0.5833
Sc12_5 Sc 0.68233(7) 0.68233(7) 0.7500
O18_3 O 0.6753(2) 0.8662(3) 0.55653(6)
O20_4 O 0.6667 0.9427(2) 0.5833
O22_5 O 0.73734(19) 0.98658(28) 0.54851(6)
H13_6 H 0.2498 0.0221 0.6440
C27_6 C 0.2241(4) 0.0502(5) 0.61322(10)
C29_6 C 0.1835(4) 0.0547(5) 0.60348(11)
H14_6 H 0.1476 0.0226 0.6013
C32_6 C 0.2759(5) 0.0978(6) 0.61630(11)
H17_6 H 0.3029 0.0945 0.6233
C36_6 C 0.1968(4) 0.1075(5) 0.59702(11)
H20_6 H 0.1692 0.1116 0.5906
C37_6 C 0.2895(4) 0.1497(5) 0.60954(10)
H21_6 H 0.3257 0.1815 0.6116
C40_6 C 0.2503(4) 0.1549(5) 0.59978(10)
C41_6 C 0.2624(4) 0.2093(5) 0.59237(9)
Sc12_6 Sc 0.31767(7) -0.00000(10) 0.7500
O11_4 O 0.1424(4) 0.8004(4) 0.61013(6)
O12_6 O 0.11574(27) 0.84633(33) 0.59196(6)
O13_6 O 0.34676(28) 0.92932(34) 0.71517(6)
O14_6 O 0.0672(3) 0.8665(4) 0.56060(6)
C22_6 C 0.1923(4) 0.8897(5) 0.63331(9)
H12_6 H 0.1863 0.8544 0.6374
C23_6 C 0.1722(4) 0.8946(5) 0.61651(9)
O16_6 O 0.2969(4) 0.9671(5) 0.72451(6)
C24_6 C 0.2301(4) 0.9892(5) 0.63694(11)
C25_6 C 0.2215(4) 0.9387(5) 0.64364(10)
C26_6 C 0.1421(4) 0.8438(5) 0.60560(9)
C28_6 C 0.2119(4) 0.9946(5) 0.62055(10)
C30_6 C 0.1811(4) 0.9453(5) 0.61041(10)
H15_6 H 0.1664 0.9474 0.5992
C31_6 C 0.2684(4) 0.9059(5) 0.66502(9)
H16_6 H 0.2700 0.8820 0.6562
C33_6 C 0.2429(4) 0.9366(5) 0.66133(10)
C34_6 C 0.2370(6) 0.9673(7) 0.67541(11)
H18_6 H 0.2173 0.9872 0.6734
C35_6 C 0.2588(4) 0.9688(5) 0.69152(10)
H19_6 H 0.2550 0.9905 0.7006
C38_6 C 0.2863(4) 0.9401(5) 0.69492(9)
C39_6 C 0.2925(4) 0.9095(5) 0.68181(10)
H22_6 H 0.3131 0.8906 0.6839
C42_6 C 0.3119(4) 0.9453(5) 0.71243(10)
Sc5_4 Sc 0.12553(5) 0.72860(7) 0.594996(16)
Sc8_6 Sc 0.39527(7) 0.93641(9) 0.738337(16)
Sc12_7 Sc 0.31767(7) 1.00000(10) 0.7500
O18_4 O 0.1338(3) 0.8090(4) 0.55653(6)
O20_5 O 0.0573(2) 0.7239(2) 0.5833
O22_6 O 0.01342(28) 0.75077(34) 0.54851(6)
O8_7 O 0.6667 0.0945(3) 0.5833
O25_5 O 0.6995(2) 0.0365(4) 0.55785(6)
O26_5 O 0.6338(2) 0.0036(4) 0.60882(6)
O24_5 O 0.5829(2) 0.9766(3) 0.57270(6)
O24_6 O 0.0234(3) 0.6062(2) 0.57270(6)
O8_8 O 0.9055(3) 0.5721(3) 0.5833
O25_6 O 0.9635(4) 0.6631(3) 0.55785(6)
O26_6 O 0.9964(4) 0.6302(4) 0.60882(6)
O1_4 O 0.34437(28) 0.45493(19) 0.58220(6)
O4_4 O 0.60274(19) 0.82033(19) 0.57470(6)
O5_4 O 0.7508(2) 0.73734(19) 0.45149(6)
O6_4 O 0.5340(2) 0.8001(2) 0.60606(6)
C1_4 C 0.6359(3) 0.7769(3) 0.53335(9)
H1_4 H 0.6652 0.8122 0.5292
C2_4 C 0.6109(3) 0.7720(3) 0.55015(9)
O9_4 O 0.6631(3) 0.6995(2) 0.44215(6)
C3_4 C 0.5742(3) 0.6774(3) 0.52972(11)
H2_4 H 0.5610 0.6445 0.5226
C4_4 C 0.6161(3) 0.7279(3) 0.52302(10)
C5_4 C 0.6316(3) 0.8228(3) 0.56106(9)
C6_4 C 0.5072(3) 0.6164(3) 0.55344(10)
C7_4 C 0.5506(3) 0.6720(3) 0.54611(10)
C8_4 C 0.4621(3) 0.6119(3) 0.56318(11)
H3_4 H 0.4583 0.6440 0.5653
C9_4 C 0.5691(3) 0.7213(3) 0.55625(10)
H4_4 H 0.5523 0.7192 0.5674
C10_4 C 0.6958(3) 0.7607(3) 0.50164(9)
H5_4 H 0.7213 0.7846 0.5104
C11_4 C 0.5114(4) 0.5688(3) 0.55036(11)
H6_4 H 0.5417 0.5721 0.5433
C12_4 C 0.6396(3) 0.7300(3) 0.50533(10)
C13_4 C 0.6030(4) 0.6993(4) 0.49125(11)
H7_4 H 0.5634 0.6794 0.4932
C14_4 C 0.6233(3) 0.6978(3) 0.47514(10)
H8_4 H 0.5978 0.6761 0.4660
C15_4 C 0.4226(3) 0.5591(3) 0.56964(11)
H9_4 H 0.3909 0.5550 0.5760
C16_4 C 0.4731(3) 0.5169(3) 0.55712(10)
H10_4 H 0.4775 0.4851 0.5550
C17_4 C 0.6795(3) 0.7265(3) 0.47174(9)
C18_4 C 0.7163(3) 0.7571(3) 0.48485(10)
H11_4 H 0.7558 0.7760 0.4827
C19_4 C 0.4287(3) 0.5117(3) 0.56688(10)
C20_4 C 0.3864(3) 0.4573(3) 0.57429(9)
C21_4 C 0.6999(3) 0.7213(3) 0.45423(10)
O10_4 O 0.11057(34) 0.65563(28) 0.58220(6)
O12_7 O 0.21760(27) 0.39726(19) 0.57470(6)
O14_7 O 0.2662(3) 0.4660(2) 0.60606(6)
C22_7 C 0.1411(4) 0.3641(3) 0.53335(9)
H12_7 H 0.1471 0.3348 0.5292
C23_7 C 0.1612(4) 0.3891(3) 0.55015(9)
O16_7 O 0.0365(4) 0.3369(3) 0.44215(6)
C24_7 C 0.1033(4) 0.4258(3) 0.52972(11)
H13_7 H 0.0836 0.4390 0.5226
C25_7 C 0.1119(4) 0.3839(3) 0.52302(10)
C26_7 C 0.1913(4) 0.3684(3) 0.56106(9)
C27_7 C 0.1093(4) 0.4928(3) 0.55344(10)
C28_7 C 0.1215(4) 0.4494(3) 0.54611(10)
C29_7 C 0.1499(4) 0.5379(3) 0.56318(11)
H14_7 H 0.1858 0.5417 0.5653
C30_7 C 0.1523(4) 0.4309(3) 0.55625(10)
H15_7 H 0.1670 0.4477 0.5674
C31_7 C 0.0650(4) 0.3042(3) 0.50164(9)
H16_7 H 0.0634 0.2787 0.5104
C32_7 C 0.0575(5) 0.4886(4) 0.55036(11)
H17_7 H 0.0305 0.4583 0.5433
C33_7 C 0.0905(4) 0.3604(3) 0.50533(10)
C34_7 C 0.0964(6) 0.3970(4) 0.49125(11)
H18_7 H 0.1161 0.4366 0.4932
C35_7 C 0.0746(4) 0.3767(3) 0.47514(10)
H19_7 H 0.0784 0.4022 0.4660
C36_7 C 0.1366(4) 0.5774(3) 0.56964(11)
H20_7 H 0.1642 0.6091 0.5760
C37_7 C 0.0439(4) 0.5269(3) 0.55712(10)
H21_7 H 0.0077 0.5225 0.5550
C38_7 C 0.0471(4) 0.3205(3) 0.47174(9)
C39_7 C 0.0409(4) 0.2837(3) 0.48485(10)
H22_7 H 0.0203 0.2442 0.4827
C40_7 C 0.0831(4) 0.5713(3) 0.56688(10)
C41_7 C 0.0710(4) 0.6136(3) 0.57429(9)
C42_7 C 0.0215(4) 0.3001(3) 0.45423(10)
Sc7_4 Sc 0.79219(5) 0.73026(5) 0.428330(16)
O17_4 O 0.54507(19) 0.88943(34) 0.58220(6)
O21_4 O 0.59599(19) 0.9159(2) 0.61816(6)
O22_7 O 0.31991(28) 0.40401(19) 0.61816(6)
O13_7 O 0.98658(28) 0.2492(2) 0.45149(6)
Sc8_7 Sc 0.93806(7) 0.20781(5) 0.428330(16)
O13_8 O 0.26266(34) 0.01342(28) 0.45149(6)
Sc8_8 Sc 0.26974(9) 0.06194(7) 0.428330(16)
O12_8 O 0.17967(33) 0.78240(27) 0.57470(6)
O14_8 O 0.1999(4) 0.7338(3) 0.60606(6)
C22_8 C 0.2231(5) 0.8589(4) 0.53335(9)
H12_8 H 0.1878 0.8529 0.5292
C23_8 C 0.2280(5) 0.8388(4) 0.55015(9)
O16_8 O 0.3005(5) 0.9635(4) 0.44215(6)
C24_8 C 0.3226(5) 0.8967(4) 0.52972(11)
H13_8 H 0.3555 0.9164 0.5226
C25_8 C 0.2721(5) 0.8881(4) 0.52302(10)
C26_8 C 0.1772(5) 0.8087(4) 0.56106(9)
C27_8 C 0.3836(5) 0.8907(4) 0.55344(10)
C28_8 C 0.3280(5) 0.8785(4) 0.54611(10)
C29_8 C 0.3881(5) 0.8501(4) 0.56318(11)
H14_8 H 0.3560 0.8142 0.5653
C30_8 C 0.2787(5) 0.8477(4) 0.55625(10)
H15_8 H 0.2808 0.8330 0.5674
C31_8 C 0.2393(5) 0.9350(4) 0.50164(9)
H16_8 H 0.2154 0.9366 0.5104
C32_8 C 0.4312(6) 0.9425(5) 0.55036(11)
H17_8 H 0.4279 0.9695 0.5433
C33_8 C 0.2700(5) 0.9095(4) 0.50533(10)
C34_8 C 0.3007(7) 0.9036(6) 0.49125(11)
H18_8 H 0.3206 0.8839 0.4932
C35_8 C 0.3022(5) 0.9254(4) 0.47514(10)
H19_8 H 0.3239 0.9216 0.4660
C36_8 C 0.4409(5) 0.8634(4) 0.56964(11)
H20_8 H 0.4450 0.8358 0.5760
C37_8 C 0.4831(5) 0.9561(4) 0.55712(10)
H21_8 H 0.5149 0.9923 0.5550
C38_8 C 0.2735(5) 0.9529(4) 0.47174(9)
C39_8 C 0.2429(5) 0.9591(4) 0.48485(10)
H22_8 H 0.2240 0.9797 0.4827
C40_8 C 0.4883(5) 0.9169(4) 0.56688(10)
C41_8 C 0.5427(5) 0.9290(4) 0.57429(9)
C42_8 C 0.2787(5) 0.9785(4) 0.45423(10)
O22_8 O 0.08410(34) 0.68009(28) 0.61816(6)
Sc2_4 Sc 0.01566(7) 0.6667 0.9167
O8_9 O 0.0945(3) 0.6667 0.9167
O24_7 O 0.0604(2) 0.7505(2) 0.90604(6)
O25_7 O 0.0036(3) 0.6338(2) 0.89118(6)
O26_7 O 0.0365(4) 0.6995(2) 0.94215(6)
O5_5 O 0.73734(19) 0.7508(2) 0.04851(6)
O9_5 O 0.6995(2) 0.6631(3) 0.05785(6)
C13_5 C 0.6993(4) 0.6030(4) 0.00875(11)
H7_5 H 0.6794 0.5634 0.0068
C14_5 C 0.6978(3) 0.6233(3) 0.02486(10)
H8_5 H 0.6761 0.5978 0.0340
C17_5 C 0.7265(3) 0.6795(3) 0.02826(9)
C18_5 C 0.7571(3) 0.7163(3) 0.01515(10)
H11_5 H 0.7760 0.7558 0.0173
C21_5 C 0.7213(3) 0.6999(3) 0.04577(10)
O16_9 O 0.3369(3) 0.0365(4) 0.05785(6)
C34_9 C 0.3970(4) 0.0964(6) 0.00875(11)
H18_9 H 0.4366 0.1161 0.0068
C35_9 C 0.3767(3) 0.0746(4) 0.02486(10)
H19_9 H 0.4022 0.0784 0.0340
C38_9 C 0.3205(3) 0.0471(4) 0.02826(9)
C39_9 C 0.2837(3) 0.0409(4) 0.01515(10)
H22_9 H 0.2442 0.0203 0.0173
C42_9 C 0.3001(3) 0.0215(4) 0.04577(10)
Sc7_5 Sc 0.73026(5) 0.79219(5) 0.071670(16)
Sc1_3 Sc 0.87447(5) 0.60308(5) 0.905004(16)
O1_5 O 0.45493(19) 0.34437(28) 0.91780(6)
O2_3 O 0.8662(3) 0.6753(2) 0.94347(6)
O3_4 O 0.9427(2) 0.6667 0.9167
O4_5 O 0.82033(19) 0.60274(19) 0.92530(6)
O6_5 O 0.8001(2) 0.5340(2) 0.89394(6)
O7_3 O 0.4171(2) 0.3938(2) 0.92730(6)
C1_5 C 0.7769(3) 0.6359(3) 0.96665(9)
H1_5 H 0.8122 0.6652 0.9708
C2_5 C 0.7720(3) 0.6109(3) 0.94985(9)
C3_5 C 0.6774(3) 0.5742(3) 0.97028(11)
H2_5 H 0.6445 0.5610 0.9774
C4_5 C 0.7279(3) 0.6161(3) 0.97698(10)
C5_5 C 0.8228(3) 0.6316(3) 0.93894(9)
C6_5 C 0.6164(3) 0.5072(3) 0.94656(10)
C7_5 C 0.6720(3) 0.5506(3) 0.95389(10)
C8_5 C 0.6119(3) 0.4621(3) 0.93682(11)
H3_5 H 0.6440 0.4583 0.9347
C9_5 C 0.7213(3) 0.5691(3) 0.94375(10)
H4_5 H 0.7192 0.5523 0.9326
C10_5 C 0.7607(3) 0.6958(3) 0.99836(9)
H5_5 H 0.7846 0.7213 0.9896
C11_5 C 0.5688(3) 0.5114(4) 0.94964(11)
H6_5 H 0.5721 0.5417 0.9567
C12_5 C 0.7300(3) 0.6396(3) 0.99467(10)
C15_5 C 0.5591(3) 0.4226(3) 0.93036(11)
H9_5 H 0.5550 0.3909 0.9240
C16_5 C 0.5169(3) 0.4731(3) 0.94288(10)
H10_5 H 0.4851 0.4775 0.9450
C19_5 C 0.5117(3) 0.4287(3) 0.93312(10)
C20_5 C 0.4573(3) 0.3864(3) 0.92571(9)
Sc3_3 Sc 0.39692(5) 0.27140(7) 0.905004(16)
O10_5 O 0.65563(28) 0.11057(34) 0.91780(6)
O11_5 O 0.3247(2) 0.1910(4) 0.94347(6)
O12_9 O 0.39726(19) 0.21760(27) 0.92530(6)
O14_9 O 0.4660(2) 0.2662(3) 0.89394(6)
O15_3 O 0.6062(2) 0.0234(3) 0.92730(6)
C22_9 C 0.3641(3) 0.1411(4) 0.96665(9)
H12_9 H 0.3348 0.1471 0.9708
C23_9 C 0.3891(3) 0.1612(4) 0.94985(9)
C24_9 C 0.4258(3) 0.1033(4) 0.97028(11)
H13_9 H 0.4390 0.0836 0.9774
C25_9 C 0.3839(3) 0.1119(4) 0.97698(10)
C26_9 C 0.3684(3) 0.1913(4) 0.93894(9)
C27_9 C 0.4928(3) 0.1093(4) 0.94656(10)
C28_9 C 0.4494(3) 0.1215(4) 0.95389(10)
C29_9 C 0.5379(3) 0.1499(4) 0.93682(11)
H14_9 H 0.5417 0.1858 0.9347
C30_9 C 0.4309(3) 0.1523(4) 0.94375(10)
H15_9 H 0.4477 0.1670 0.9326
C31_9 C 0.3042(3) 0.0650(4) 0.99836(9)
H16_9 H 0.2787 0.0634 0.9896
C32_9 C 0.4886(4) 0.0575(5) 0.94964(11)
H17_9 H 0.4583 0.0305 0.9567
C33_9 C 0.3604(3) 0.0905(4) 0.99467(10)
C36_9 C 0.5774(3) 0.1366(4) 0.93036(11)
H20_9 H 0.6091 0.1642 0.9240
C37_9 C 0.5269(3) 0.0439(4) 0.94288(10)
H21_9 H 0.5225 0.0077 0.9450
C40_9 C 0.5713(3) 0.0831(4) 0.93312(10)
C41_9 C 0.6136(3) 0.0710(4) 0.92571(9)
Sc4_3 Sc 0.72860(7) 0.12553(5) 0.905004(16)
Sc5_5 Sc 0.26974(5) 0.20781(5) 0.928330(16)
Sc6_3 Sc 0.93806(7) 0.73026(5) 0.928330(16)
Sc9_4 Sc 0.3333 0.34900(7) 0.9167
O17_5 O 0.88943(34) 0.54507(19) 0.91780(6)
O18_5 O 0.3419(2) 0.1996(3) 0.88987(6)
O19_3 O 0.8576(4) 0.6581(2) 0.88987(6)
O20_6 O 0.3333 0.2761(2) 0.9167
O21_5 O 0.9159(2) 0.59599(19) 0.88184(6)
O22_9 O 0.40401(19) 0.31991(28) 0.88184(6)
O23_3 O 0.9766(3) 0.5829(2) 0.92730(6)
O13_9 O 0.2492(2) 0.98658(28) 0.04851(6)
Sc8_9 Sc 0.20781(5) 0.93806(7) 0.071670(16)
Sc10_3 Sc 0.65100(7) 0.98434(7) 0.9167
O13_10 O 0.01342(28) 0.26266(34) 0.04851(6)
Sc8_10 Sc 0.06194(7) 0.26974(9) 0.071670(16)
O16_10 O 0.9635(4) 0.3005(5) 0.05785(6)
C34_10 C 0.9036(6) 0.3007(7) 0.00875(11)
H18_10 H 0.8839 0.3206 0.0068
C35_10 C 0.9254(4) 0.3022(5) 0.02486(10)
H19_10 H 0.9216 0.3239 0.0340
C38_10 C 0.9529(4) 0.2735(5) 0.02826(9)
C39_10 C 0.9591(4) 0.2429(5) 0.01515(10)
H22_10 H 0.9797 0.2240 0.0173
C42_10 C 0.9785(4) 0.2787(5) 0.04577(10)
O8_10 O 0.3333 0.4279(3) 0.9167
O11_6 O 0.8090(4) 0.1338(4) 0.94347(6)
O12_10 O 0.78240(27) 0.17967(33) 0.92530(6)
O14_10 O 0.7338(3) 0.1999(4) 0.89394(6)
C22_10 C 0.8589(4) 0.2231(5) 0.96665(9)
H12_10 H 0.8529 0.1878 0.9708
C23_10 C 0.8388(4) 0.2280(5) 0.94985(9)
C24_10 C 0.8967(4) 0.3226(5) 0.97028(11)
H13_10 H 0.9164 0.3555 0.9774
C25_10 C 0.8881(4) 0.2721(5) 0.97698(10)
C26_10 C 0.8087(4) 0.1772(5) 0.93894(9)
C27_10 C 0.8907(4) 0.3836(5) 0.94656(10)
C28_10 C 0.8785(4) 0.3280(5) 0.95389(10)
C29_10 C 0.8501(4) 0.3881(5) 0.93682(11)
H14_10 H 0.8142 0.3560 0.9347
C30_10 C 0.8477(4) 0.2787(5) 0.94375(10)
H15_10 H 0.8330 0.2808 0.9326
C31_10 C 0.9350(4) 0.2393(5) 0.99836(9)
H16_10 H 0.9366 0.2154 0.9896
C32_10 C 0.9425(5) 0.4312(6) 0.94964(11)
H17_10 H 0.9695 0.4279 0.9567
C33_10 C 0.9095(4) 0.2700(5) 0.99467(10)
C36_10 C 0.8634(4) 0.4409(5) 0.93036(11)
H20_10 H 0.8358 0.4450 0.9240
C37_10 C 0.9561(4) 0.4831(5) 0.94288(10)
H21_10 H 0.9923 0.5149 0.9450
C40_10 C 0.9169(4) 0.4883(5) 0.93312(10)
C41_10 C 0.9290(4) 0.5427(5) 0.92571(9)
Sc5_6 Sc 0.79219(5) 0.06194(7) 0.928330(16)
O18_6 O 0.8004(3) 0.1424(4) 0.88987(6)
O20_7 O 0.7239(2) 0.0573(2) 0.9167
O22_10 O 0.68009(28) 0.08410(34) 0.88184(6)
O24_8 O 0.2495(2) 0.3100(3) 0.90604(6)
O25_8 O 0.3662(2) 0.3698(4) 0.89118(6)
O26_8 O 0.3005(2) 0.3369(4) 0.94215(6)
O8_11 O 0.5721(3) 0.9055(3) 0.9167
O24_9 O 0.6900(3) 0.9396(2) 0.90604(6)
O25_9 O 0.6302(4) 0.9964(3) 0.89118(6)
O26_9 O 0.6631(4) 0.9635(4) 0.94215(6)
O4_6 O 0.26940(19) 0.15367(19) 0.90804(6)
O5_6 O 0.4174(2) 0.07068(19) 0.78483(6)
O6_6 O 0.2006(2) 0.1335(2) 0.93940(6)
C1_6 C 0.3025(3) 0.1103(3) 0.86669(9)
H1_6 H 0.3318 0.1456 0.8626
C2_6 C 0.2775(3) 0.1054(3) 0.88349(9)
O9_6 O 0.3297(3) 0.0329(2) 0.77549(6)
C3_6 C 0.2408(3) 0.0108(3) 0.86306(11)
C4_6 C 0.2827(3) 0.0613(3) 0.85636(10)
C5_6 C 0.2982(3) 0.1562(3) 0.89440(9)
C7_6 C 0.2172(3) 0.0054(3) 0.87945(10)
C9_6 C 0.2357(3) 0.0547(3) 0.88959(10)
H4_6 H 0.2189 0.0526 0.9008
C10_6 C 0.3624(3) 0.0941(3) 0.83498(9)
H5_6 H 0.3879 0.1180 0.8438
C12_6 C 0.3062(3) 0.0634(3) 0.83867(10)
C13_6 C 0.2696(4) 0.0327(4) 0.82459(11)
H7_6 H 0.2300 0.0128 0.8266
C14_6 C 0.2899(3) 0.0312(3) 0.80848(10)
H8_6 H 0.2644 0.0095 0.7994
C17_6 C 0.3461(3) 0.0599(3) 0.80508(9)
C18_6 C 0.3829(3) 0.0905(3) 0.81819(10)
H11_6 H 0.4224 0.1094 0.8161
C21_6 C 0.3665(3) 0.0547(3) 0.78757(10)
Sc7_6 Sc 0.45886(5) 0.06359(5) 0.761663(16)
O17_6 O 0.21173(19) 0.22277(34) 0.91554(6)
O21_6 O 0.26266(19) 0.2492(2) 0.95149(6)
O1_6 O 0.01103(28) 0.78827(19) 0.91554(6)
H2_6 H 0.2276 0.9779 0.8560
C6_6 C 0.1738(3) 0.9498(3) 0.88678(10)
C8_6 C 0.1287(3) 0.9453(3) 0.89652(11)
H3_6 H 0.1249 0.9774 0.8987
C11_6 C 0.1780(4) 0.9022(3) 0.88370(11)
H6_6 H 0.2083 0.9055 0.8767
C15_6 C 0.0892(3) 0.8925(3) 0.90298(11)
H9_6 H 0.0575 0.8884 0.9094
C16_6 C 0.1397(3) 0.8503(3) 0.89046(10)
H10_6 H 0.1441 0.8185 0.8884
C19_6 C 0.0953(3) 0.8451(3) 0.90022(10)
C20_6 C 0.0530(3) 0.7907(3) 0.90763(9)
O10_6 O 0.77723(34) 0.98897(28) 0.91554(6)
O12_11 O 0.88426(27) 0.73060(19) 0.90804(6)
O13_11 O 0.65324(28) 0.5826(2) 0.78483(6)
O14_11 O 0.9328(3) 0.7994(2) 0.93940(6)
C22_11 C 0.8077(4) 0.6975(3) 0.86669(9)
H12_11 H 0.8137 0.6682 0.8626
C23_11 C 0.8278(4) 0.7225(3) 0.88349(9)
O16_11 O 0.7031(4) 0.6703(3) 0.77549(6)
C24_11 C 0.7699(4) 0.7592(3) 0.86306(11)
H13_11 H 0.7502 0.7724 0.8560
C25_11 C 0.7785(4) 0.7173(3) 0.85636(10)
C26_11 C 0.8579(4) 0.7018(3) 0.89440(9)
C27_11 C 0.7759(4) 0.8262(3) 0.88678(10)
C28_11 C 0.7881(4) 0.7828(3) 0.87945(10)
C29_11 C 0.8165(4) 0.8713(3) 0.89652(11)
H14_11 H 0.8524 0.8751 0.8987
C30_11 C 0.8189(4) 0.7643(3) 0.88959(10)
H15_11 H 0.8336 0.7811 0.9008
C31_11 C 0.7316(4) 0.6376(3) 0.83498(9)
H16_11 H 0.7300 0.6121 0.8438
C32_11 C 0.7241(5) 0.8220(4) 0.88370(11)
H17_11 H 0.6971 0.7917 0.8767
C33_11 C 0.7571(4) 0.6938(3) 0.83867(10)
C34_11 C 0.7630(6) 0.7304(4) 0.82459(11)
H18_11 H 0.7827 0.7700 0.8266
C35_11 C 0.7412(4) 0.7101(3) 0.80848(10)
H19_11 H 0.7450 0.7356 0.7994
C36_11 C 0.8032(4) 0.9108(3) 0.90298(11)
H20_11 H 0.8308 0.9425 0.9094
C37_11 C 0.7105(4) 0.8603(3) 0.89046(10)
H21_11 H 0.6743 0.8559 0.8884
C38_11 C 0.7137(4) 0.6539(3) 0.80508(9)
C39_11 C 0.7075(4) 0.6171(3) 0.81819(10)
H22_11 H 0.6869 0.5776 0.8161
C40_11 C 0.7497(4) 0.9047(3) 0.90022(10)
C41_11 C 0.7376(4) 0.9470(3) 0.90763(9)
C42_11 C 0.6881(4) 0.6335(3) 0.78757(10)
Sc8_11 Sc 0.60473(7) 0.54114(5) 0.761663(16)
O22_11 O 0.98658(28) 0.73734(19) 0.95149(6)
H13_12 H 0.0221 0.2498 0.8560
C27_12 C 0.0502(5) 0.2241(4) 0.88678(10)
C29_12 C 0.0547(5) 0.1835(4) 0.89652(11)
H14_12 H 0.0226 0.1476 0.8987
C32_12 C 0.0978(6) 0.2759(5) 0.88370(11)
H17_12 H 0.0945 0.3029 0.8767
C36_12 C 0.1075(5) 0.1968(4) 0.90298(11)
H20_12 H 0.1116 0.1692 0.9094
C37_12 C 0.1497(5) 0.2895(4) 0.89046(10)
H21_12 H 0.1815 0.3257 0.8884
C40_12 C 0.1549(5) 0.2503(4) 0.90022(10)
C41_12 C 0.2093(5) 0.2624(4) 0.90763(9)
O12_12 O 0.84633(33) 0.11574(27) 0.90804(6)
O13_12 O 0.92932(34) 0.34676(28) 0.78483(6)
O14_12 O 0.8665(4) 0.0672(3) 0.93940(6)
C22_12 C 0.8897(5) 0.1923(4) 0.86669(9)
H12_12 H 0.8544 0.1863 0.8626
C23_12 C 0.8946(5) 0.1722(4) 0.88349(9)
O16_12 O 0.9671(5) 0.2969(4) 0.77549(6)
C24_12 C 0.9892(5) 0.2301(4) 0.86306(11)
C25_12 C 0.9387(5) 0.2215(4) 0.85636(10)
C26_12 C 0.8438(5) 0.1421(4) 0.89440(9)
C28_12 C 0.9946(5) 0.2119(4) 0.87945(10)
C30_12 C 0.9453(5) 0.1811(4) 0.88959(10)
H15_12 H 0.9474 0.1664 0.9008
C31_12 C 0.9059(5) 0.2684(4) 0.83498(9)
H16_12 H 0.8820 0.2700 0.8438
C33_12 C 0.9366(5) 0.2429(4) 0.83867(10)
C34_12 C 0.9673(7) 0.2370(6) 0.82459(11)
H18_12 H 0.9872 0.2173 0.8266
C35_12 C 0.9688(5) 0.2588(4) 0.80848(10)
H19_12 H 0.9905 0.2550 0.7994
C38_12 C 0.9401(5) 0.2863(4) 0.80508(9)
C39_12 C 0.9095(5) 0.2925(4) 0.81819(10)
H22_12 H 0.8906 0.3131 0.8161
C42_12 C 0.9453(5) 0.3119(4) 0.78757(10)
Sc8_12 Sc 0.93641(9) 0.39527(7) 0.761663(16)
O22_12 O 0.75077(34) 0.01342(28) 0.95149(6)
O11_7 O 0.0086(2) 0.4757(4) 0.72320(6)
C31_13 C 0.0291(3) 0.6017(4) 0.66831(9)
H16_13 H 0.0546 0.6033 0.6771
C38_13 C 0.0128(3) 0.6196(4) 0.63841(9)
C39_13 C 0.0496(3) 0.6258(4) 0.65152(10)
H22_13 H 0.0891 0.6464 0.6494
C42_13 C 0.0332(3) 0.6452(4) 0.62090(10)
O20_8 O -0.0000 0.3906(2) 0.7500
O1_7 O 0.87840(19) 0.32230(28) 0.74887(6)
O3_5 O 0.3906(2) 0.0000 0.7500
O4_7 O 0.51300(19) 0.06393(19) 0.74137(6)
O6_7 O 0.5332(2) 0.1327(2) 0.77273(6)
O7_4 O 0.9162(2) 0.2729(2) 0.73937(6)
O8_12 O 0.2388(3) 0.0000 0.7500
C1_7 C 0.5564(3) 0.0308(3) 0.70002(9)
H1_7 H 0.5211 0.0015 0.6959
C2_7 C 0.5613(3) 0.0558(3) 0.71682(9)
C3_7 C 0.6559(3) 0.0925(3) 0.69639(11)
H2_7 H 0.6888 0.1057 0.6893
C4_7 C 0.6054(3) 0.0506(3) 0.68969(10)
C5_7 C 0.5105(3) 0.0351(3) 0.72773(9)
C6_7 C 0.7169(3) 0.1595(3) 0.72011(10)
C7_7 C 0.6613(3) 0.1161(3) 0.71278(10)
C8_7 C 0.7214(3) 0.2046(3) 0.72985(11)
H3_7 H 0.6893 0.2084 0.7320
C9_7 C 0.6120(3) 0.0976(3) 0.72292(10)
H4_7 H 0.6141 0.1144 0.7341
C11_7 C 0.7645(3) 0.1553(4) 0.71703(11)
H6_7 H 0.7612 0.1250 0.7100
C12_7 C 0.6033(3) 0.0271(3) 0.67200(10)
C13_7 C 0.6340(4) 0.0637(4) 0.65792(11)
H7_7 H 0.6539 0.1033 0.6599
C14_7 C 0.6355(3) 0.0434(3) 0.64181(10)
H8_7 H 0.6572 0.0689 0.6327
C15_7 C 0.7742(3) 0.2441(3) 0.73631(11)
H9_7 H 0.7783 0.2758 0.7427
C16_7 C 0.8164(3) 0.1936(3) 0.72379(10)
H10_7 H 0.8482 0.1892 0.7217
C19_7 C 0.8216(3) 0.2380(3) 0.73355(10)
C20_7 C 0.8760(3) 0.2803(3) 0.74096(9)
O10_7 O 0.67770(28) 0.55610(34) 0.74887(6)
O12_13 O 0.93607(19) 0.44907(27) 0.74137(6)
O14_13 O 0.8673(2) 0.4005(3) 0.77273(6)
O15_4 O 0.7271(2) 0.6433(3) 0.73937(6)
C22_13 C 0.9692(3) 0.5256(4) 0.70002(9)
H12_13 H 0.9985 0.5196 0.6959
C23_13 C 0.9442(3) 0.5055(4) 0.71682(9)
C24_13 C 0.9075(3) 0.5634(4) 0.69639(11)
H13_13 H 0.8943 0.5831 0.6893
C25_13 C 0.9494(3) 0.5548(4) 0.68969(10)
C26_13 C 0.9649(3) 0.4754(4) 0.72773(9)
C27_13 C 0.8405(3) 0.5574(4) 0.72011(10)
C28_13 C 0.8839(3) 0.5452(4) 0.71278(10)
C29_13 C 0.7954(3) 0.5168(4) 0.72985(11)
H14_13 H 0.7916 0.4809 0.7320
C30_13 C 0.9024(3) 0.5144(4) 0.72292(10)
H15_13 H 0.8856 0.4997 0.7341
C32_13 C 0.8447(4) 0.6092(5) 0.71703(11)
H17_13 H 0.8750 0.6362 0.7100
C33_13 C 0.9729(3) 0.5762(4) 0.67200(10)
C34_13 C 0.9363(4) 0.5703(6) 0.65792(11)
H18_13 H 0.8967 0.5506 0.6599
C35_13 C 0.9566(3) 0.5921(4) 0.64181(10)
H19_13 H 0.9311 0.5883 0.6327
C36_13 C 0.7559(3) 0.5301(4) 0.73631(11)
H20_13 H 0.7242 0.5025 0.7427
C37_13 C 0.8064(3) 0.6228(4) 0.72379(10)
H21_13 H 0.8108 0.6590 0.7217
C40_13 C 0.7620(3) 0.5836(4) 0.73355(10)
C41_13 C 0.7197(3) 0.5957(4) 0.74096(9)
O17_7 O 0.44390(34) 0.12160(19) 0.74887(6)
O18_7 O 0.9914(2) 0.4671(3) 0.77680(6)
O19_4 O 0.4757(4) 0.0086(2) 0.77680(6)
O20_9 O 1.0000 0.3906(2) 0.7500
O23_4 O 0.3567(3) 0.0838(2) 0.73937(6)
H25_5 H 0.242267 0.0311155 0.757634
O2_4 O 0.4671(3) 0.9914(2) 0.72320(6)
O3_6 O 0.3906(2) 1.0000 0.7500
O8_13 O 0.2388(3) 1.0000 0.7500
C10_7 C 0.5726(3) 0.9709(3) 0.66831(9)
H5_7 H 0.5487 0.9454 0.6771
C17_7 C 0.6068(3) 0.9872(3) 0.63841(9)
C18_7 C 0.5762(3) 0.9504(3) 0.65152(10)
H11_7 H 0.5573 0.9109 0.6494
C21_7 C 0.6120(3) 0.9668(3) 0.62090(10)
O24_10 O 0.2729(2) 0.9162(2) 0.76063(6)
H26_5 H 0.208403 0.963388 0.754644
O8_14 O -0.0000 0.2388(3) 0.7500
O24_11 O 0.0838(2) 0.3567(3) 0.76063(6)
H26_6 H 0.0366122 0.245016 0.754644
O8_15 O 1.0000 0.2388(3) 0.7500
O11_8 O 0.5243(4) 0.5329(4) 0.72320(6)
O12_14 O 0.55093(27) 0.48700(33) 0.74137(6)
O14_14 O 0.5995(3) 0.4668(4) 0.77273(6)
C22_14 C 0.4744(4) 0.4436(5) 0.70002(9)
H12_14 H 0.4804 0.4789 0.6959
C23_14 C 0.4945(4) 0.4387(5) 0.71682(9)
C24_14 C 0.4366(4) 0.3441(5) 0.69639(11)
H13_14 H 0.4169 0.3112 0.6893
C25_14 C 0.4452(4) 0.3946(5) 0.68969(10)
C26_14 C 0.5246(4) 0.4895(5) 0.72773(9)
C27_14 C 0.4426(4) 0.2831(5) 0.72011(10)
C28_14 C 0.4548(4) 0.3387(5) 0.71278(10)
C29_14 C 0.4832(4) 0.2786(5) 0.72985(11)
H14_14 H 0.5191 0.3107 0.7320
C30_14 C 0.4856(4) 0.3880(5) 0.72292(10)
H15_14 H 0.5003 0.3859 0.7341
C31_14 C 0.3983(4) 0.4274(5) 0.66831(9)
H16_14 H 0.3967 0.4513 0.6771
C32_14 C 0.3908(5) 0.2355(6) 0.71703(11)
H17_14 H 0.3638 0.2388 0.7100
C33_14 C 0.4238(4) 0.3967(5) 0.67200(10)
C34_14 C 0.4297(6) 0.3660(7) 0.65792(11)
H18_14 H 0.4494 0.3461 0.6599
C35_14 C 0.4079(4) 0.3645(5) 0.64181(10)
H19_14 H 0.4117 0.3428 0.6327
C36_14 C 0.4699(4) 0.2258(5) 0.73631(11)
H20_14 H 0.4975 0.2217 0.7427
C37_14 C 0.3772(4) 0.1836(5) 0.72379(10)
H21_14 H 0.3410 0.1518 0.7217
C38_14 C 0.3804(4) 0.3932(5) 0.63841(9)
C39_14 C 0.3742(4) 0.4238(5) 0.65152(10)
H22_14 H 0.3536 0.4427 0.6494
C40_14 C 0.4164(4) 0.1784(5) 0.73355(10)
C41_14 C 0.4043(4) 0.1240(5) 0.74096(9)
C42_14 C 0.3548(4) 0.3880(5) 0.62090(10)
O18_8 O 0.5329(3) 0.5243(4) 0.77680(6)
O20_10 O 0.6094(2) 0.6094(2) 0.7500
H25_6 H 0.968885 0.211152 0.757634
O8_16 O 0.7612(3) 0.7612(3) 0.7500
O24_12 O 0.6433(3) 0.7271(2) 0.76063(6)
C31_15 C 0.6017(4) 0.0291(3) 0.83169(9)
H16_15 H 0.6033 0.0546 0.8229
C38_15 C 0.6196(4) 0.0128(3) 0.86159(9)
C39_15 C 0.6258(4) 0.0496(3) 0.84848(10)
H22_15 H 0.6464 0.0891 0.8506
C42_15 C 0.6452(4) 0.0332(3) 0.87910(10)
O1_8 O 0.32230(28) 0.87840(19) 0.75113(6)
O4_8 O 0.06393(19) 0.51300(19) 0.75863(6)
O6_8 O 0.1327(2) 0.5332(2) 0.72727(6)
C1_8 C 0.0308(3) 0.5564(3) 0.79998(9)
H1_8 H 0.0015 0.5211 0.8041
C2_8 C 0.0558(3) 0.5613(3) 0.78318(9)
C3_8 C 0.0925(3) 0.6559(3) 0.80361(11)
H2_8 H 0.1057 0.6888 0.8107
C4_8 C 0.0506(3) 0.6054(3) 0.81031(10)
C5_8 C 0.0351(3) 0.5105(3) 0.77227(9)
C6_8 C 0.1595(3) 0.7169(3) 0.77989(10)
C7_8 C 0.1161(3) 0.6613(3) 0.78722(10)
C8_8 C 0.2046(3) 0.7214(3) 0.77015(11)
H3_8 H 0.2084 0.6893 0.7680
C9_8 C 0.0976(3) 0.6120(3) 0.77708(10)
H4_8 H 0.1144 0.6141 0.7659
C11_8 C 0.1553(4) 0.7645(3) 0.78297(11)
H6_8 H 0.1250 0.7612 0.7900
C12_8 C 0.0271(3) 0.6033(3) 0.82800(10)
C13_8 C 0.0637(4) 0.6340(4) 0.84208(11)
H7_8 H 0.1033 0.6539 0.8401
C14_8 C 0.0434(3) 0.6355(3) 0.85819(10)
H8_8 H 0.0689 0.6572 0.8673
C15_8 C 0.2441(3) 0.7742(3) 0.76369(11)
H9_8 H 0.2758 0.7783 0.7573
C16_8 C 0.1936(3) 0.8164(3) 0.77621(10)
H10_8 H 0.1892 0.8482 0.7783
C19_8 C 0.2380(3) 0.8216(3) 0.76645(10)
C20_8 C 0.2803(3) 0.8760(3) 0.75904(9)
O10_8 O 0.55610(34) 0.67770(28) 0.75113(6)
O12_15 O 0.44907(27) 0.93607(19) 0.75863(6)
O14_15 O 0.4005(3) 0.8673(2) 0.72727(6)
C22_15 C 0.5256(4) 0.9692(3) 0.79998(9)
H12_15 H 0.5196 0.9985 0.8041
C23_15 C 0.5055(4) 0.9442(3) 0.78318(9)
C24_15 C 0.5634(4) 0.9075(3) 0.80361(11)
H13_15 H 0.5831 0.8943 0.8107
C25_15 C 0.5548(4) 0.9494(3) 0.81031(10)
C26_15 C 0.4754(4) 0.9649(3) 0.77227(9)
C27_15 C 0.5574(4) 0.8405(3) 0.77989(10)
C28_15 C 0.5452(4) 0.8839(3) 0.78722(10)
C29_15 C 0.5168(4) 0.7954(3) 0.77015(11)
H14_15 H 0.4809 0.7916 0.7680
C30_15 C 0.5144(4) 0.9024(3) 0.77708(10)
H15_15 H 0.4997 0.8856 0.7659
C32_15 C 0.6092(5) 0.8447(4) 0.78297(11)
H17_15 H 0.6362 0.8750 0.7900
C33_15 C 0.5762(4) 0.9729(3) 0.82800(10)
C34_15 C 0.5703(6) 0.9363(4) 0.84208(11)
H18_15 H 0.5506 0.8967 0.8401
C35_15 C 0.5921(4) 0.9566(3) 0.85819(10)
H19_15 H 0.5883 0.9311 0.8673
C36_15 C 0.5301(4) 0.7559(3) 0.76369(11)
H20_15 H 0.5025 0.7242 0.7573
C37_15 C 0.6228(4) 0.8064(3) 0.77621(10)
H21_15 H 0.6590 0.8108 0.7783
C40_15 C 0.5836(4) 0.7620(3) 0.76645(10)
C41_15 C 0.5957(4) 0.7197(3) 0.75904(9)
O17_8 O 0.12160(19) 0.44390(34) 0.75113(6)
H25_7 H 0.0311155 0.242267 0.742366
C10_8 C 0.9709(3) 0.5726(3) 0.83169(9)
H5_8 H 0.9454 0.5487 0.8229
C17_8 C 0.9872(3) 0.6068(3) 0.86159(9)
C18_8 C 0.9504(3) 0.5762(3) 0.84848(10)
H11_8 H 0.9109 0.5573 0.8506
C21_8 C 0.9668(3) 0.6120(3) 0.87910(10)
H26_7 H 0.963388 0.208403 0.745356
H26_8 H 0.245016 0.0366122 0.745356
O12_16 O 0.48700(33) 0.55093(27) 0.75863(6)
O14_16 O 0.4668(4) 0.5995(3) 0.72727(6)
C22_16 C 0.4436(5) 0.4744(4) 0.79998(9)
H12_16 H 0.4789 0.4804 0.8041
C23_16 C 0.4387(5) 0.4945(4) 0.78318(9)
C24_16 C 0.3441(5) 0.4366(4) 0.80361(11)
H13_16 H 0.3112 0.4169 0.8107
C25_16 C 0.3946(5) 0.4452(4) 0.81031(10)
C26_16 C 0.4895(5) 0.5246(4) 0.77227(9)
C27_16 C 0.2831(5) 0.4426(4) 0.77989(10)
C28_16 C 0.3387(5) 0.4548(4) 0.78722(10)
C29_16 C 0.2786(5) 0.4832(4) 0.77015(11)
H14_16 H 0.3107 0.5191 0.7680
C30_16 C 0.3880(5) 0.4856(4) 0.77708(10)
H15_16 H 0.3859 0.5003 0.7659
C31_16 C 0.4274(5) 0.3983(4) 0.83169(9)
H16_16 H 0.4513 0.3967 0.8229
C32_16 C 0.2355(6) 0.3908(5) 0.78297(11)
H17_16 H 0.2388 0.3638 0.7900
C33_16 C 0.3967(5) 0.4238(4) 0.82800(10)
C34_16 C 0.3660(7) 0.4297(6) 0.84208(11)
H18_16 H 0.3461 0.4494 0.8401
C35_16 C 0.3645(5) 0.4079(4) 0.85819(10)
H19_16 H 0.3428 0.4117 0.8673
C36_16 C 0.2258(5) 0.4699(4) 0.76369(11)
H20_16 H 0.2217 0.4975 0.7573
C37_16 C 0.1836(5) 0.3772(4) 0.77621(10)
H21_16 H 0.1518 0.3410 0.7783
C38_16 C 0.3932(5) 0.3804(4) 0.86159(9)
C39_16 C 0.4238(5) 0.3742(4) 0.84848(10)
H22_16 H 0.4427 0.3536 0.8506
C40_16 C 0.1784(5) 0.4164(4) 0.76645(10)
C41_16 C 0.1240(5) 0.4043(4) 0.75904(9)
C42_16 C 0.3880(5) 0.3548(4) 0.87910(10)
H25_8 H 0.211152 0.968885 0.742366
O10_9 O 0.01103(28) 0.22277(34) 0.41554(6)
O11_9 O 0.3419(2) 0.1424(4) 0.38987(6)
O12_17 O 0.26940(19) 0.11574(27) 0.40804(6)
O14_17 O 0.2006(2) 0.0672(3) 0.43940(6)
O15_5 O 0.0604(2) 0.3100(3) 0.40604(6)
C22_17 C 0.3025(3) 0.1923(4) 0.36669(9)
H12_17 H 0.3318 0.1863 0.3626
C23_17 C 0.2775(3) 0.1722(4) 0.38349(9)
C24_17 C 0.2408(3) 0.2301(4) 0.36306(11)
H13_17 H 0.2276 0.2498 0.3560
C25_17 C 0.2827(3) 0.2215(4) 0.35636(10)
C26_17 C 0.2982(3) 0.1421(4) 0.39440(9)
C27_17 C 0.1738(3) 0.2241(4) 0.38678(10)
C28_17 C 0.2172(3) 0.2119(4) 0.37945(10)
C29_17 C 0.1287(3) 0.1835(4) 0.39652(11)
H14_17 H 0.1249 0.1476 0.3987
C30_17 C 0.2357(3) 0.1811(4) 0.38959(10)
H15_17 H 0.2189 0.1664 0.4008
C31_17 C 0.3624(3) 0.2684(4) 0.33498(9)
H16_17 H 0.3879 0.2700 0.3438
C32_17 C 0.1780(4) 0.2759(5) 0.38370(11)
H17_17 H 0.2083 0.3029 0.3767
C33_17 C 0.3062(3) 0.2429(4) 0.33867(10)
C34_17 C 0.2696(4) 0.2370(6) 0.32459(11)
H18_17 H 0.2300 0.2173 0.3266
C35_17 C 0.2899(3) 0.2588(4) 0.30848(10)
H19_17 H 0.2644 0.2550 0.2994
C36_17 C 0.0892(3) 0.1968(4) 0.40298(11)
H20_17 H 0.0575 0.1692 0.4094
C37_17 C 0.1397(3) 0.2895(4) 0.39046(10)
H21_17 H 0.1441 0.3257 0.3884
C38_17 C 0.3461(3) 0.2863(4) 0.30508(9)
C39_17 C 0.3829(3) 0.2925(4) 0.31819(10)
H22_17 H 0.4224 0.3131 0.3161
C40_17 C 0.0953(3) 0.2503(4) 0.40022(10)
C41_17 C 0.0530(3) 0.2624(4) 0.40763(9)
C42_17 C 0.3665(3) 0.3119(4) 0.28757(10)
O18_9 O 0.3247(2) 0.1338(3) 0.44347(6)
O20_11 O 0.3333 0.0573(2) 0.4167
O1_9 O 0.21173(19) 0.98897(28) 0.41554(6)
O7_5 O 0.2495(2) 0.9396(2) 0.40604(6)
H2_9 H 0.0221 0.7724 0.3560
C6_9 C 0.0502(3) 0.8262(3) 0.38678(10)
C8_9 C 0.0547(3) 0.8713(3) 0.39652(11)
H3_9 H 0.0226 0.8751 0.3987
C11_9 C 0.0978(3) 0.8220(4) 0.38370(11)
H6_9 H 0.0945 0.7917 0.3767
C15_9 C 0.1075(3) 0.9108(3) 0.40298(11)
H9_9 H 0.1116 0.9425 0.4094
C16_9 C 0.1497(3) 0.8603(3) 0.39046(10)
H10_9 H 0.1815 0.8559 0.3884
C19_9 C 0.1549(3) 0.9047(3) 0.40022(10)
C20_9 C 0.2093(3) 0.9470(3) 0.40763(9)
O2_5 O 0.8004(3) 0.6581(2) 0.38987(6)
O3_7 O 0.7239(2) 0.6667 0.4167
O4_9 O 0.84633(19) 0.73060(19) 0.40804(6)
O6_9 O 0.8665(2) 0.7994(2) 0.43940(6)
O8_17 O 0.5721(3) 0.6667 0.4167
C1_9 C 0.8897(3) 0.6975(3) 0.36669(9)
H1_9 H 0.8544 0.6682 0.3626
C2_9 C 0.8946(3) 0.7225(3) 0.38349(9)
C3_9 C 0.9892(3) 0.7592(3) 0.36306(11)
C4_9 C 0.9387(3) 0.7173(3) 0.35636(10)
C5_9 C 0.8438(3) 0.7018(3) 0.39440(9)
C7_9 C 0.9946(3) 0.7828(3) 0.37945(10)
C9_9 C 0.9453(3) 0.7643(3) 0.38959(10)
H4_9 H 0.9474 0.7811 0.4008
C10_9 C 0.9059(3) 0.6376(3) 0.33498(9)
H5_9 H 0.8820 0.6121 0.3438
C12_9 C 0.9366(3) 0.6938(3) 0.33867(10)
C13_9 C 0.9673(4) 0.7304(4) 0.32459(11)
H7_9 H 0.9872 0.7700 0.3266
C14_9 C 0.9688(3) 0.7101(3) 0.30848(10)
H8_9 H 0.9905 0.7356 0.2994
C17_9 C 0.9401(3) 0.6539(3) 0.30508(9)
C18_9 C 0.9095(3) 0.6171(3) 0.31819(10)
H11_9 H 0.8906 0.5776 0.3161
C21_9 C 0.9453(3) 0.6335(3) 0.28757(10)
O17_9 O 0.77723(34) 0.78827(19) 0.41554(6)
O19_5 O 0.8090(4) 0.6753(2) 0.44347(6)
O23_5 O 0.6900(3) 0.7505(2) 0.40604(6)
O24_13 O 0.6062(2) 0.5829(2) 0.42730(6)
O24_14 O 0.4171(2) 0.0234(3) 0.42730(6)
O8_18 O 0.3333 0.9055(3) 0.4167
O11_10 O 0.8576(4) 0.1996(4) 0.38987(6)
O12_18 O 0.88426(27) 0.15367(33) 0.40804(6)
O14_18 O 0.9328(3) 0.1335(4) 0.43940(6)
C22_18 C 0.8077(4) 0.1103(5) 0.36669(9)
H12_18 H 0.8137 0.1456 0.3626
C23_18 C 0.8278(4) 0.1054(5) 0.38349(9)
C24_18 C 0.7699(4) 0.0108(5) 0.36306(11)
C25_18 C 0.7785(4) 0.0613(5) 0.35636(10)
C26_18 C 0.8579(4) 0.1562(5) 0.39440(9)
C28_18 C 0.7881(4) 0.0054(5) 0.37945(10)
C30_18 C 0.8189(4) 0.0547(5) 0.38959(10)
H15_18 H 0.8336 0.0526 0.4008
C31_18 C 0.7316(4) 0.0941(5) 0.33498(9)
H16_18 H 0.7300 0.1180 0.3438
C33_18 C 0.7571(4) 0.0634(5) 0.33867(10)
C34_18 C 0.7630(6) 0.0327(7) 0.32459(11)
H18_18 H 0.7827 0.0128 0.3266
C35_18 C 0.7412(4) 0.0312(5) 0.30848(10)
H19_18 H 0.7450 0.0095 0.2994
C38_18 C 0.7137(4) 0.0599(5) 0.30508(9)
C39_18 C 0.7075(4) 0.0905(5) 0.31819(10)
H22_18 H 0.6869 0.1094 0.3161
C42_18 C 0.6881(4) 0.0547(5) 0.28757(10)
O18_10 O 0.8662(3) 0.1910(4) 0.44347(6)
O20_12 O 0.9427(2) 0.2761(2) 0.4167
H13_18 H 0.7502 0.9779 0.3560
C27_18 C 0.7759(4) 0.9498(5) 0.38678(10)
C29_18 C 0.8165(4) 0.9453(5) 0.39652(11)
H14_18 H 0.8524 0.9774 0.3987
C32_18 C 0.7241(5) 0.9022(6) 0.38370(11)
H17_18 H 0.6971 0.9055 0.3767
C36_18 C 0.8032(4) 0.8925(5) 0.40298(11)
H20_18 H 0.8308 0.8884 0.4094
C37_18 C 0.7105(4) 0.8503(5) 0.39046(10)
H21_18 H 0.6743 0.8185 0.3884
C40_18 C 0.7497(4) 0.8451(5) 0.40022(10)
C41_18 C 0.7376(4) 0.7907(5) 0.40763(9)
O8_19 O 0.0945(3) 0.4279(3) 0.4167
O24_15 O 0.9766(3) 0.3938(2) 0.42730(6)
O1_10 O 0.65563(28) 0.54507(19) 0.41780(6)
O4_10 O 0.39726(19) 0.17967(19) 0.42530(6)
O6_10 O 0.4660(2) 0.1999(2) 0.39394(6)
C1_10 C 0.3641(3) 0.2231(3) 0.46665(9)
H1_10 H 0.3348 0.1878 0.4708
C2_10 C 0.3891(3) 0.2280(3) 0.44985(9)
C3_10 C 0.4258(3) 0.3226(3) 0.47028(11)
H2_10 H 0.4390 0.3555 0.4774
C4_10 C 0.3839(3) 0.2721(3) 0.47698(10)
C5_10 C 0.3684(3) 0.1772(3) 0.43894(9)
C6_10 C 0.4928(3) 0.3836(3) 0.44656(10)
C7_10 C 0.4494(3) 0.3280(3) 0.45389(10)
C8_10 C 0.5379(3) 0.3881(3) 0.43682(11)
H3_10 H 0.5417 0.3560 0.4347
C9_10 C 0.4309(3) 0.2787(3) 0.44375(10)
H4_10 H 0.4477 0.2808 0.4326
C10_10 C 0.3042(3) 0.2393(3) 0.49836(9)
H5_10 H 0.2787 0.2154 0.4896
C11_10 C 0.4886(4) 0.4312(3) 0.44964(11)
H6_10 H 0.4583 0.4279 0.4567
C12_10 C 0.3604(3) 0.2700(3) 0.49467(10)
C13_10 C 0.3970(4) 0.3007(4) 0.50875(11)
H7_10 H 0.4366 0.3206 0.5068
C14_10 C 0.3767(3) 0.3022(3) 0.52486(10)
H8_10 H 0.4022 0.3239 0.5340
C15_10 C 0.5774(3) 0.4409(3) 0.43036(11)
H9_10 H 0.6091 0.4450 0.4240
C16_10 C 0.5269(3) 0.4831(3) 0.44288(10)
H10_10 H 0.5225 0.5149 0.4450
C17_10 C 0.3205(3) 0.2735(3) 0.52826(9)
C18_10 C 0.2837(3) 0.2429(3) 0.51515(10)
H11_10 H 0.2442 0.2240 0.5173
C19_10 C 0.5713(3) 0.4883(3) 0.43312(10)
C20_10 C 0.6136(3) 0.5427(3) 0.42571(9)
C21_10 C 0.3001(3) 0.2787(3) 0.54577(10)
O10_10 O 0.88943(34) 0.34437(28) 0.41780(6)
O12_19 O 0.78240(27) 0.60274(19) 0.42530(6)
O14_19 O 0.7338(3) 0.5340(2) 0.39394(6)
C22_19 C 0.8589(4) 0.6359(3) 0.46665(9)
H12_19 H 0.8529 0.6652 0.4708
C23_19 C 0.8388(4) 0.6109(3) 0.44985(9)
C24_19 C 0.8967(4) 0.5742(3) 0.47028(11)
H13_19 H 0.9164 0.5610 0.4774
C25_19 C 0.8881(4) 0.6161(3) 0.47698(10)
C26_19 C 0.8087(4) 0.6316(3) 0.43894(9)
C27_19 C 0.8907(4) 0.5072(3) 0.44656(10)
C28_19 C 0.8785(4) 0.5506(3) 0.45389(10)
C29_19 C 0.8501(4) 0.4621(3) 0.43682(11)
H14_19 H 0.8142 0.4583 0.4347
C30_19 C 0.8477(4) 0.5691(3) 0.44375(10)
H15_19 H 0.8330 0.5523 0.4326
C31_19 C 0.9350(4) 0.6958(3) 0.49836(9)
H16_19 H 0.9366 0.7213 0.4896
C32_19 C 0.9425(5) 0.5114(4) 0.44964(11)
H17_19 H 0.9695 0.5417 0.4567
C33_19 C 0.9095(4) 0.6396(3) 0.49467(10)
C34_19 C 0.9036(6) 0.6030(4) 0.50875(11)
H18_19 H 0.8839 0.5634 0.5068
C35_19 C 0.9254(4) 0.6233(3) 0.52486(10)
H19_19 H 0.9216 0.5978 0.5340
C36_19 C 0.8634(4) 0.4226(3) 0.43036(11)
H20_19 H 0.8358 0.3909 0.4240
C37_19 C 0.9561(4) 0.4731(3) 0.44288(10)
H21_19 H 0.9923 0.4775 0.4450
C38_19 C 0.9529(4) 0.6795(3) 0.52826(9)
C39_19 C 0.9591(4) 0.7163(3) 0.51515(10)
H22_19 H 0.9797 0.7558 0.5173
C40_19 C 0.9169(4) 0.4287(3) 0.43312(10)
C41_19 C 0.9290(4) 0.3864(3) 0.42571(9)
C42_19 C 0.9785(4) 0.6999(3) 0.54577(10)
O17_10 O 0.45493(19) 0.11057(34) 0.41780(6)
O12_20 O 0.82033(33) 0.21760(27) 0.42530(6)
O14_20 O 0.8001(4) 0.2662(3) 0.39394(6)
C22_20 C 0.7769(5) 0.1411(4) 0.46665(9)
H12_20 H 0.8122 0.1471 0.4708
C23_20 C 0.7720(5) 0.1612(4) 0.44985(9)
C24_20 C 0.6774(5) 0.1033(4) 0.47028(11)
H13_20 H 0.6445 0.0836 0.4774
C25_20 C 0.7279(5) 0.1119(4) 0.47698(10)
C26_20 C 0.8228(5) 0.1913(4) 0.43894(9)
C27_20 C 0.6164(5) 0.1093(4) 0.44656(10)
C28_20 C 0.6720(5) 0.1215(4) 0.45389(10)
C29_20 C 0.6119(5) 0.1499(4) 0.43682(11)
H14_20 H 0.6440 0.1858 0.4347
C30_20 C 0.7213(5) 0.1523(4) 0.44375(10)
H15_20 H 0.7192 0.1670 0.4326
C31_20 C 0.7607(5) 0.0650(4) 0.49836(9)
H16_20 H 0.7846 0.0634 0.4896
C32_20 C 0.5688(6) 0.0575(5) 0.44964(11)
H17_20 H 0.5721 0.0305 0.4567
C33_20 C 0.7300(5) 0.0905(4) 0.49467(10)
C34_20 C 0.6993(7) 0.0964(6) 0.50875(11)
H18_20 H 0.6794 0.1161 0.5068
C35_20 C 0.6978(5) 0.0746(4) 0.52486(10)
H19_20 H 0.6761 0.0784 0.5340
C36_20 C 0.5591(5) 0.1366(4) 0.43036(11)
H20_20 H 0.5550 0.1642 0.4240
C37_20 C 0.5169(5) 0.0439(4) 0.44288(10)
H21_20 H 0.4851 0.0077 0.4450
C38_20 C 0.7265(5) 0.0471(4) 0.52826(9)
C39_20 C 0.7571(5) 0.0409(4) 0.51515(10)
H22_20 H 0.7760 0.0203 0.5173
C40_20 C 0.5117(5) 0.0831(4) 0.43312(10)
C41_20 C 0.4573(5) 0.0710(4) 0.42571(9)
C42_20 C 0.7213(5) 0.0215(4) 0.54577(10)
O1_11 O 0.54507(19) 0.65563(28) 0.08220(6)
O2_6 O 0.1338(3) 0.3247(2) 0.05653(6)
O3_8 O 0.0573(2) 0.3333 0.0833
O4_11 O 0.17967(19) 0.39726(19) 0.07470(6)
O6_11 O 0.1999(2) 0.4660(2) 0.10606(6)
O7_6 O 0.5829(2) 0.6062(2) 0.07270(6)
C1_11 C 0.2231(3) 0.3641(3) 0.03335(9)
H1_11 H 0.1878 0.3348 0.0292
C2_11 C 0.2280(3) 0.3891(3) 0.05015(9)
C3_11 C 0.3226(3) 0.4258(3) 0.02972(11)
H2_11 H 0.3555 0.4390 0.0226
C4_11 C 0.2721(3) 0.3839(3) 0.02302(10)
C5_11 C 0.1772(3) 0.3684(3) 0.06106(9)
C6_11 C 0.3836(3) 0.4928(3) 0.05344(10)
C7_11 C 0.3280(3) 0.4494(3) 0.04611(10)
C8_11 C 0.3881(3) 0.5379(3) 0.06318(11)
H3_11 H 0.3560 0.5417 0.0653
C9_11 C 0.2787(3) 0.4309(3) 0.05625(10)
H4_11 H 0.2808 0.4477 0.0674
C10_11 C 0.2393(3) 0.3042(3) 0.00164(9)
H5_11 H 0.2154 0.2787 0.0104
C11_11 C 0.4312(3) 0.4886(4) 0.05036(11)
H6_11 H 0.4279 0.4583 0.0433
C12_11 C 0.2700(3) 0.3604(3) 0.00533(10)
C15_11 C 0.4409(3) 0.5774(3) 0.06964(11)
H9_11 H 0.4450 0.6091 0.0760
C16_11 C 0.4831(3) 0.5269(3) 0.05712(10)
H10_11 H 0.5149 0.5225 0.0550
C19_11 C 0.4883(3) 0.5713(3) 0.06688(10)
C20_11 C 0.5427(3) 0.6136(3) 0.07429(9)
O10_11 O 0.34437(28) 0.88943(34) 0.08220(6)
O11_11 O 0.6753(2) 0.8090(4) 0.05653(6)
O12_21 O 0.60274(19) 0.78240(27) 0.07470(6)
O14_21 O 0.5340(2) 0.7338(3) 0.10606(6)
O15_6 O 0.3938(2) 0.9766(3) 0.07270(6)
C22_21 C 0.6359(3) 0.8589(4) 0.03335(9)
H12_21 H 0.6652 0.8529 0.0292
C23_21 C 0.6109(3) 0.8388(4) 0.05015(9)
C24_21 C 0.5742(3) 0.8967(4) 0.02972(11)
H13_21 H 0.5610 0.9164 0.0226
C25_21 C 0.6161(3) 0.8881(4) 0.02302(10)
C26_21 C 0.6316(3) 0.8087(4) 0.06106(9)
C27_21 C 0.5072(3) 0.8907(4) 0.05344(10)
C28_21 C 0.5506(3) 0.8785(4) 0.04611(10)
C29_21 C 0.4621(3) 0.8501(4) 0.06318(11)
H14_21 H 0.4583 0.8142 0.0653
C30_21 C 0.5691(3) 0.8477(4) 0.05625(10)
H15_21 H 0.5523 0.8330 0.0674
C31_21 C 0.6958(3) 0.9350(4) 0.00164(9)
H16_21 H 0.7213 0.9366 0.0104
C32_21 C 0.5114(4) 0.9425(5) 0.05036(11)
H17_21 H 0.5417 0.9695 0.0433
C33_21 C 0.6396(3) 0.9095(4) 0.00533(10)
C36_21 C 0.4226(3) 0.8634(4) 0.06964(11)
H20_21 H 0.3909 0.8358 0.0760
C37_21 C 0.4731(3) 0.9561(4) 0.05712(10)
H21_21 H 0.4775 0.9923 0.0550
C40_21 C 0.4287(3) 0.9169(4) 0.06688(10)
C41_21 C 0.3864(3) 0.9290(4) 0.07429(9)
O17_11 O 0.11057(34) 0.45493(19) 0.08220(6)
O18_11 O 0.6581(2) 0.8004(3) 0.11013(6)
O19_6 O 0.1424(4) 0.3419(2) 0.11013(6)
O20_13 O 0.6667 0.7239(2) 0.0833
O23_6 O 0.0234(3) 0.4171(2) 0.07270(6)
C13_11 C 0.3007(4) 0.3970(4) 0.99125(11)
H7_11 H 0.3206 0.4366 0.9932
C14_11 C 0.3022(3) 0.3767(3) 0.97514(10)
H8_11 H 0.3239 0.4022 0.9660
C17_11 C 0.2735(3) 0.3205(3) 0.97174(9)
C18_11 C 0.2429(3) 0.2837(3) 0.98485(10)
H11_11 H 0.2240 0.2442 0.9827
C21_11 C 0.2787(3) 0.3001(3) 0.95423(10)
C34_21 C 0.6030(4) 0.9036(6) 0.99125(11)
H18_21 H 0.5634 0.8839 0.9932
C35_21 C 0.6233(3) 0.9254(4) 0.97514(10)
H19_21 H 0.5978 0.9216 0.9660
C38_21 C 0.6795(3) 0.9529(4) 0.97174(9)
C39_21 C 0.7163(3) 0.9591(4) 0.98485(10)
H22_21 H 0.7558 0.9797 0.9827
C42_21 C 0.6999(3) 0.9785(4) 0.95423(10)
O8_20 O 0.9055(3) 0.3333 0.0833
O24_16 O 0.9396(2) 0.2495(2) 0.09396(6)
O8_21 O 0.6667 0.5721(3) 0.0833
O11_12 O 0.1910(4) 0.8662(4) 0.05653(6)
O12_22 O 0.21760(27) 0.82033(33) 0.07470(6)
O14_22 O 0.2662(3) 0.8001(4) 0.10606(6)
C22_22 C 0.1411(4) 0.7769(5) 0.03335(9)
H12_22 H 0.1471 0.8122 0.0292
C23_22 C 0.1612(4) 0.7720(5) 0.05015(9)
C24_22 C 0.1033(4) 0.6774(5) 0.02972(11)
H13_22 H 0.0836 0.6445 0.0226
C25_22 C 0.1119(4) 0.7279(5) 0.02302(10)
C26_22 C 0.1913(4) 0.8228(5) 0.06106(9)
C27_22 C 0.1093(4) 0.6164(5) 0.05344(10)
C28_22 C 0.1215(4) 0.6720(5) 0.04611(10)
C29_22 C 0.1499(4) 0.6119(5) 0.06318(11)
H14_22 H 0.1858 0.6440 0.0653
C30_22 C 0.1523(4) 0.7213(5) 0.05625(10)
H15_22 H 0.1670 0.7192 0.0674
C31_22 C 0.0650(4) 0.7607(5) 0.00164(9)
H16_22 H 0.0634 0.7846 0.0104
C32_22 C 0.0575(5) 0.5688(6) 0.05036(11)
H17_22 H 0.0305 0.5721 0.0433
C33_22 C 0.0905(4) 0.7300(5) 0.00533(10)
C36_22 C 0.1366(4) 0.5591(5) 0.06964(11)
H20_22 H 0.1642 0.5550 0.0760
C37_22 C 0.0439(4) 0.5169(5) 0.05712(10)
H21_22 H 0.0077 0.4851 0.0550
C40_22 C 0.0831(4) 0.5117(5) 0.06688(10)
C41_22 C 0.0710(4) 0.4573(5) 0.07429(9)
O18_12 O 0.1996(3) 0.8576(4) 0.11013(6)
O20_14 O 0.2761(2) 0.9427(2) 0.0833
O24_17 O 0.7505(2) 0.6900(3) 0.09396(6)
C34_22 C 0.0964(6) 0.6993(7) 0.99125(11)
H18_22 H 0.1161 0.6794 0.9932
C35_22 C 0.0746(4) 0.6978(5) 0.97514(10)
H19_22 H 0.0784 0.6761 0.9660
C38_22 C 0.0471(4) 0.7265(5) 0.97174(9)
C39_22 C 0.0409(4) 0.7571(5) 0.98485(10)
H22_22 H 0.0203 0.7760 0.9827
C42_22 C 0.0215(4) 0.7213(5) 0.95423(10)
O8_22 O 0.4279(3) 0.0945(3) 0.0833
O24_18 O 0.3100(3) 0.0604(2) 0.09396(6)
O10_12 O 0.22277(34) 0.01103(28) 0.08446(6)
O12_23 O 0.11574(27) 0.26940(19) 0.09196(6)
O14_23 O 0.0672(3) 0.2006(2) 0.06060(6)
C22_23 C 0.1923(4) 0.3025(3) 0.13331(9)
H12_23 H 0.1863 0.3318 0.1374
C23_23 C 0.1722(4) 0.2775(3) 0.11651(9)
C24_23 C 0.2301(4) 0.2408(3) 0.13694(11)
H13_23 H 0.2498 0.2276 0.1440
C25_23 C 0.2215(4) 0.2827(3) 0.14364(10)
C26_23 C 0.1421(4) 0.2982(3) 0.10560(9)
C27_23 C 0.2241(4) 0.1738(3) 0.11322(10)
C28_23 C 0.2119(4) 0.2172(3) 0.12055(10)
C29_23 C 0.1835(4) 0.1287(3) 0.10348(11)
H14_23 H 0.1476 0.1249 0.1013
C30_23 C 0.1811(4) 0.2357(3) 0.11041(10)
H15_23 H 0.1664 0.2189 0.0992
C31_23 C 0.2684(4) 0.3624(3) 0.16502(9)
H16_23 H 0.2700 0.3879 0.1562
C32_23 C 0.2759(5) 0.1780(4) 0.11630(11)
H17_23 H 0.3029 0.2083 0.1233
C33_23 C 0.2429(4) 0.3062(3) 0.16133(10)
C34_23 C 0.2370(6) 0.2696(4) 0.17541(11)
H18_23 H 0.2173 0.2300 0.1734
C35_23 C 0.2588(4) 0.2899(3) 0.19152(10)
H19_23 H 0.2550 0.2644 0.2006
C36_23 C 0.1968(4) 0.0892(3) 0.09702(11)
H20_23 H 0.1692 0.0575 0.0906
C37_23 C 0.2895(4) 0.1397(3) 0.10954(10)
H21_23 H 0.3257 0.1441 0.1116
C38_23 C 0.2863(4) 0.3461(3) 0.19492(9)
C39_23 C 0.2925(4) 0.3829(3) 0.18181(10)
H22_23 H 0.3131 0.4224 0.1839
C40_23 C 0.2503(4) 0.0953(3) 0.09978(10)
C41_23 C 0.2624(4) 0.0530(3) 0.09237(9)
C42_23 C 0.3119(4) 0.3665(3) 0.21243(10)
O1_12 O 0.98897(28) 0.21173(19) 0.08446(6)
H2_12 H 0.7724 0.0221 0.1440
C6_12 C 0.8262(3) 0.0502(3) 0.11322(10)
C8_12 C 0.8713(3) 0.0547(3) 0.10348(11)
H3_12 H 0.8751 0.0226 0.1013
C11_12 C 0.8220(4) 0.0978(3) 0.11630(11)
H6_12 H 0.7917 0.0945 0.1233
C15_12 C 0.9108(3) 0.1075(3) 0.09702(11)
H9_12 H 0.9425 0.1116 0.0906
C16_12 C 0.8603(3) 0.1497(3) 0.10954(10)
H10_12 H 0.8559 0.1815 0.1116
C19_12 C 0.9047(3) 0.1549(3) 0.09978(10)
C20_12 C 0.9470(3) 0.2093(3) 0.09237(9)
O4_12 O 0.73060(19) 0.84633(19) 0.09196(6)
O6_12 O 0.7994(2) 0.8665(2) 0.06060(6)
C1_12 C 0.6975(3) 0.8897(3) 0.13331(9)
H1_12 H 0.6682 0.8544 0.1374
C2_12 C 0.7225(3) 0.8946(3) 0.11651(9)
C3_12 C 0.7592(3) 0.9892(3) 0.13694(11)
C4_12 C 0.7173(3) 0.9387(3) 0.14364(10)
C5_12 C 0.7018(3) 0.8438(3) 0.10560(9)
C7_12 C 0.7828(3) 0.9946(3) 0.12055(10)
C9_12 C 0.7643(3) 0.9453(3) 0.11041(10)
H4_12 H 0.7811 0.9474 0.0992
C10_12 C 0.6376(3) 0.9059(3) 0.16502(9)
H5_12 H 0.6121 0.8820 0.1562
C12_12 C 0.6938(3) 0.9366(3) 0.16133(10)
C13_12 C 0.7304(4) 0.9673(4) 0.17541(11)
H7_12 H 0.7700 0.9872 0.1734
C14_12 C 0.7101(3) 0.9688(3) 0.19152(10)
H8_12 H 0.7356 0.9905 0.2006
C17_12 C 0.6539(3) 0.9401(3) 0.19492(9)
C18_12 C 0.6171(3) 0.9095(3) 0.18181(10)
H11_12 H 0.5776 0.8906 0.1839
C21_12 C 0.6335(3) 0.9453(3) 0.21243(10)
O17_12 O 0.78827(19) 0.77723(34) 0.08446(6)
O12_24 O 0.15367(33) 0.88426(27) 0.09196(6)
O14_24 O 0.1335(4) 0.9328(3) 0.06060(6)
C22_24 C 0.1103(5) 0.8077(4) 0.13331(9)
H12_24 H 0.1456 0.8137 0.1374
C23_24 C 0.1054(5) 0.8278(4) 0.11651(9)
C24_24 C 0.0108(5) 0.7699(4) 0.13694(11)
C25_24 C 0.0613(5) 0.7785(4) 0.14364(10)
C26_24 C 0.1562(5) 0.8579(4) 0.10560(9)
C28_24 C 0.0054(5) 0.7881(4) 0.12055(10)
C30_24 C 0.0547(5) 0.8189(4) 0.11041(10)
H15_24 H 0.0526 0.8336 0.0992
C31_24 C 0.0941(5) 0.7316(4) 0.16502(9)
H16_24 H 0.1180 0.7300 0.1562
C33_24 C 0.0634(5) 0.7571(4) 0.16133(10)
C34_24 C 0.0327(7) 0.7630(6) 0.17541(11)
H18_24 H 0.0128 0.7827 0.1734
C35_24 C 0.0312(5) 0.7412(4) 0.19152(10)
H19_24 H 0.0095 0.7450 0.2006
C38_24 C 0.0599(5) 0.7137(4) 0.19492(9)
C39_24 C 0.0905(5) 0.7075(4) 0.18181(10)
H22_24 H 0.1094 0.6869 0.1839
C42_24 C 0.0547(5) 0.6881(4) 0.21243(10)
H13_24 H 0.9779 0.7502 0.1440
C27_24 C 0.9498(5) 0.7759(4) 0.11322(10)
C29_24 C 0.9453(5) 0.8165(4) 0.10348(11)
H14_24 H 0.9774 0.8524 0.1013
C32_24 C 0.9022(6) 0.7241(5) 0.11630(11)
H17_24 H 0.9055 0.6971 0.1233
C36_24 C 0.8925(5) 0.8032(4) 0.09702(11)
H20_24 H 0.8884 0.8308 0.0906
C37_24 C 0.8503(5) 0.7105(4) 0.10954(10)
H21_24 H 0.8185 0.6743 0.1116
C40_24 C 0.8451(5) 0.7497(4) 0.09978(10)
C41_24 C 0.7907(5) 0.7376(4) 0.09237(9)
loop_
_geom_bond_atom_site_label_1
_geom_bond_atom_site_label_2
_geom_bond_site_symmetry_1
_geom_bond_site_symmetry_2
Sc2 O3 1_555 1_555
O3 Sc6 1_555 1_555
O5 C21 1_555 1_555
O8 Sc2 1_555 1_555
C10 H5 1_555 1_555
C18 C10 1_555 1_555
H11 C18 1_555 1_555
C21 C17 1_555 1_555
Sc6 O2 1_555 1_555
Sc7 O5 1_555 1_555
O24 Sc2 1_555 1_555
O26 Sc2 1_555 1_555
C17 C18 1_555 1_555
O8 H26 1_555 1_555
Sc1 O3_2 1_555 1_555
Sc2_2 O3_2 1_555 1_555
O1 C20 1_555 1_555
O4 Sc1 1_555 1_555
O6 Sc1 1_555 1_555
O7 C20 1_555 1_555
O8_2 Sc2_2 1_555 1_555
C1 H1 1_555 1_555
C2 C1 1_555 1_555
C3 H2 1_555 1_555
C4 C1 1_555 1_555
C5 O4 1_555 1_555
C6 C7 1_555 1_555
C7 C3 1_555 1_555
C8 C6 1_555 1_555
H3 C8 1_555 1_555
C9 C2 1_555 1_555
H4 C9 1_555 1_555
C11 C6 1_555 1_555
H6 C11 1_555 1_555
C12 C4 1_555 1_555
C13 C12 1_555 1_555
H7 C13 1_555 1_555
C14 C13 1_555 1_555
H8 C14 1_555 1_555
C15 C8 1_555 1_555
H9 C15 1_555 1_555
C16 C11 1_555 1_555
H10 C16 1_555 1_555
C19 C15 1_555 1_555
C20 C19 1_555 1_555
Sc3 O1 1_555 1_555
O10 C41 1_555 1_555
O12 Sc3 1_555 1_555
O14 Sc3 1_555 1_555
O15 C41 1_555 1_555
C22 H12 1_555 1_555
C23 C22 1_555 1_555
C24 H13 1_555 1_555
C25 C22 1_555 1_555
C26 O12 1_555 1_555
C27 C28 1_555 1_555
C28 C24 1_555 1_555
C29 C27 1_555 1_555
H14 C29 1_555 1_555
C30 C23 1_555 1_555
H15 C30 1_555 1_555
C32 C27 1_555 1_555
H17 C32 1_555 1_555
C33 C25 1_555 1_555
C34 C33 1_555 1_555
H18 C34 1_555 1_555
C35 C34 1_555 1_555
H19 C35 1_555 1_555
C36 C29 1_555 1_555
H20 C36 1_555 1_555
C37 C32 1_555 1_555
H21 C37 1_555 1_555
C40 C36 1_555 1_555
C41 C40 1_555 1_555
Sc4 O10 1_555 1_555
Sc9 O7 1_555 1_555
Sc10 O15 1_555 1_555
Sc11 O9 1_555 1_555
Sc12 O16 1_555 1_555
O17 Sc1 1_555 1_555
O18 Sc3 1_555 1_555
O19 Sc1 1_555 1_555
O20 Sc3 1_555 1_555
O21 Sc1 1_555 1_555
O22 Sc3 1_555 1_555
O23 Sc2_2 1_555 1_555
O25 Sc2_2 1_555 1_555
C2 C5 1_555 1_555
C3 C4 1_555 1_555
C7 C9 1_555 1_555
C16 C19 1_555 1_555
C23 C26 1_555 1_555
C24 C25 1_555 1_555
C28 C30 1_555 1_555
C37 C40 1_555 1_555
Sc9 O20 1_555 1_555
O8_2 H25 1_555 1_555
O13 C42 1_555 1_555
C31 H16 1_555 1_555
C39 C31 1_555 1_555
H22 C39 1_555 1_555
C42 C38 1_555 1_555
Sc5 O11 1_555 1_555
Sc8 O13 1_555 1_555
C38 C39 1_555 1_555
Sc5 O20_2 1_555 1_555
Sc9_2 O20_2 1_555 1_555
O8_3 Sc9 1_555 1_555
O17 C41_2 1_555 1_555
O11_2 C26_2 1_555 1_555
O12_2 Sc4 1_555 1_555
O13_2 C42_2 1_555 1_555
O14_2 Sc4 1_555 1_555
O23 C41_2 1_555 1_555
C22_2 H12_2 1_555 1_555
C23_2 C22_2 1_555 1_555
O16_2 C42_2 1_555 1_555
C24_2 H13_2 1_555 1_555
C25_2 C22_2 1_555 1_555
C26_2 O12_2 1_555 1_555
C27_2 C28_2 1_555 1_555
C28_2 C24_2 1_555 1_555
C29_2 C27_2 1_555 1_555
H14_2 C29_2 1_555 1_555
C30_2 C23_2 1_555 1_555
H15_2 C30_2 1_555 1_555
C31_2 H16_2 1_555 1_555
C32_2 C27_2 1_555 1_555
H17_2 C32_2 1_555 1_555
C33_2 C25_2 1_555 1_555
C34_2 C33_2 1_555 1_555
H18_2 C34_2 1_555 1_555
C35_2 C34_2 1_555 1_555
H19_2 C35_2 1_555 1_555
C36_2 C29_2 1_555 1_555
H20_2 C36_2 1_555 1_555
C37_2 C32_2 1_555 1_555
H21_2 C37_2 1_555 1_555
C38_2 C35_2 1_555 1_555
C39_2 C31_2 1_555 1_555
H22_2 C39_2 1_555 1_555
C40_2 C36_2 1_555 1_555
C41_2 C40_2 1_555 1_555
C42_2 C38_2 1_555 1_555
Sc5_2 O11_2 1_555 1_555
Sc8_2 O13_2 1_555 1_555
Sc12_2 O16_2 1_555 1_555
O18_2 Sc4 1_555 1_555
O20_3 Sc4 1_555 1_555
O22_2 Sc4 1_555 1_555
O25_2 Sc9 1_555 1_555
C23_2 C26_2 1_555 1_555
C24_2 C25_2 1_555 1_555
C28_2 C30_2 1_555 1_555
C31_2 C33_2 1_555 1_555
C37_2 C40_2 1_555 1_555
C38_2 C39_2 1_555 1_555
Sc5_2 O20_3 1_555 1_555
Sc10 O20_3 1_555 1_555
O8_3 H25_2 1_555 1_555
O8_4 Sc9_2 1_555 1_555
O24_2 Sc9_2 1_555 1_555
O26_2 Sc9_2 1_555 1_555
O8_4 H26_2 1_555 1_555
O8_5 Sc10 1_555 1_555
O24_3 Sc10 1_555 1_555
O25_3 Sc10 1_555 1_555
O26_3 Sc10 1_555 1_555
O5_2 C21_2 1_555 1_555
C10_2 H5_2 1_555 1_555
C18_2 C10_2 1_555 1_555
H11_2 C18_2 1_555 1_555
C21_2 C17_2 1_555 1_555
Sc7_2 O5_2 1_555 1_555
C17_2 C18_2 1_555 1_555
O8_3 H26_3 1_555 1_555
O1_2 C20_2 1_555 1_555
O4_2 Sc5 1_555 1_555
O6_2 Sc5 1_555 1_555
O24 C20_2 1_555 1_555
C1_2 H1_2 1_555 1_555
C2_2 C1_2 1_555 1_555
C3_2 H2_2 1_555 1_555
C4_2 C1_2 1_555 1_555
C5_2 O4_2 1_555 1_555
C6_2 C7_2 1_555 1_555
C7_2 C3_2 1_555 1_555
C8_2 C6_2 1_555 1_555
H3_2 C8_2 1_555 1_555
C9_2 C2_2 1_555 1_555
H4_2 C9_2 1_555 1_555
C11_2 C6_2 1_555 1_555
H6_2 C11_2 1_555 1_555
C12_2 C4_2 1_555 1_555
C13_2 C12_2 1_555 1_555
H7_2 C13_2 1_555 1_555
C14_2 C13_2 1_555 1_555
H8_2 C14_2 1_555 1_555
C15_2 C8_2 1_555 1_555
H9_2 C15_2 1_555 1_555
C16_2 C11_2 1_555 1_555
H10_2 C16_2 1_555 1_555
C19_2 C15_2 1_555 1_555
C20_2 C19_2 1_555 1_555
Sc6 O1_2 1_555 1_555
O10_2 C41_3 1_555 1_555
O12_3 Sc6 1_555 1_555
O14_3 Sc6 1_555 1_555
O24_3 C41_3 1_555 1_555
C22_3 H12_3 1_555 1_555
C23_3 C22_3 1_555 1_555
C24_3 H13_3 1_555 1_555
C25_3 C22_3 1_555 1_555
C26_3 O12_3 1_555 1_555
C27_3 C28_3 1_555 1_555
C28_3 C24_3 1_555 1_555
C29_3 C27_3 1_555 1_555
H14_3 C29_3 1_555 1_555
C30_3 C23_3 1_555 1_555
H15_3 C30_3 1_555 1_555
C32_3 C27_3 1_555 1_555
H17_3 C32_3 1_555 1_555
C33_3 C25_3 1_555 1_555
C34_3 C33_3 1_555 1_555
H18_3 C34_3 1_555 1_555
C35_3 C34_3 1_555 1_555
H19_3 C35_3 1_555 1_555
C36_3 C29_3 1_555 1_555
H20_3 C36_3 1_555 1_555
C37_3 C32_3 1_555 1_555
H21_3 C37_3 1_555 1_555
C40_3 C36_3 1_555 1_555
C41_3 C40_3 1_555 1_555
Sc5_2 O10_2 1_555 1_555
Sc11_2 O9_2 1_555 1_555
Sc12_3 O16_3 1_555 1_555
O17_2 Sc5 1_555 1_555
O21_2 Sc5 1_555 1_555
O22_3 Sc6 1_555 1_555
C2_2 C5_2 1_555 1_555
C3_2 C4_2 1_555 1_555
C7_2 C9_2 1_555 1_555
C16_2 C19_2 1_555 1_555
C23_3 C26_3 1_555 1_555
C24_3 C25_3 1_555 1_555
C28_3 C30_3 1_555 1_555
C37_3 C40_3 1_555 1_555
O8_4 H25_3 1_555 1_555
O13_3 C42_3 1_555 1_555
C31_3 H16_3 1_555 1_555
C39_3 C31_3 1_555 1_555
H22_3 C39_3 1_555 1_555
C42_3 C38_3 1_555 1_555
Sc8_3 O13_3 1_555 1_555
C38_3 C39_3 1_555 1_555
O17_2 C41_4 1_555 1_555
O18_2 C26_4 1_555 1_555
O12_4 Sc5_2 1_555 1_555
O13_4 C42_4 1_555 1_555
O14_4 Sc5_2 1_555 1_555
O24_2 C41_4 1_555 1_555
C22_4 H12_4 1_555 1_555
C23_4 C22_4 1_555 1_555
O16_4 C42_4 1_555 1_555
C24_4 H13_4 1_555 1_555
C25_4 C22_4 1_555 1_555
C26_4 O12_4 1_555 1_555
C27_4 C28_4 1_555 1_555
C28_4 C24_4 1_555 1_555
C29_4 C27_4 1_555 1_555
H14_4 C29_4 1_555 1_555
C30_4 C23_4 1_555 1_555
H15_4 C30_4 1_555 1_555
C31_4 H16_4 1_555 1_555
C32_4 C27_4 1_555 1_555
H17_4 C32_4 1_555 1_555
C33_4 C25_4 1_555 1_555
C34_4 C33_4 1_555 1_555
H18_4 C34_4 1_555 1_555
C35_4 C34_4 1_555 1_555
H19_4 C35_4 1_555 1_555
C36_4 C29_4 1_555 1_555
H20_4 C36_4 1_555 1_555
C37_4 C32_4 1_555 1_555
H21_4 C37_4 1_555 1_555
C38_4 C35_4 1_555 1_555
C39_4 C31_4 1_555 1_555
H22_4 C39_4 1_555 1_555
C40_4 C36_4 1_555 1_555
C41_4 C40_4 1_555 1_555
C42_4 C38_4 1_555 1_555
Sc8_4 O13_4 1_555 1_555
Sc12_4 O16_4 1_555 1_555
O22_4 Sc5_2 1_555 1_555
C23_4 C26_4 1_555 1_555
C24_4 C25_4 1_555 1_555
C28_4 C30_4 1_555 1_555
C31_4 C33_4 1_555 1_555
C37_4 C40_4 1_555 1_555
C38_4 C39_4 1_555 1_555
O8 H25_4 1_555 1_555
O8_2 H26_4 1_555 1_555
Sc1_2 O3_3 1_555 1_555
Sc2_3 O3_3 1_555 1_555
O2_2 C5_3 1_555 1_555
O3_3 Sc6_2 1_555 1_555
O4_3 Sc1_2 1_555 1_555
O5_3 C21_3 1_555 1_555
O6_3 Sc1_2 1_555 1_555
O8_6 Sc2_3 1_555 1_555
C1_3 H1_3 1_555 1_555
C2_3 C1_3 1_555 1_555
O9_3 C21_3 1_555 1_555
C4_3 C1_3 1_555 1_555
C5_3 O4_3 1_555 1_555
C7_3 C3_3 1_555 1_555
C9_3 C2_3 1_555 1_555
H4_3 C9_3 1_555 1_555
C10_3 H5_3 1_555 1_555
C12_3 C4_3 1_555 1_555
C13_3 C12_3 1_555 1_555
H7_3 C13_3 1_555 1_555
C14_3 C13_3 1_555 1_555
H8_3 C14_3 1_555 1_555
C17_3 C14_3 1_555 1_555
C18_3 C10_3 1_555 1_555
H11_3 C18_3 1_555 1_555
C21_3 C17_3 1_555 1_555
Sc6_2 O2_2 1_555 1_555
Sc7_3 O5_3 1_555 1_555
Sc11_3 O9_3 1_555 1_555
O17_3 Sc1_2 1_555 1_555
O19_2 Sc1_2 1_555 1_555
O21_3 Sc1_2 1_555 1_555
O23_2 Sc2_3 1_555 1_555
O24_4 Sc2_3 1_555 1_555
O25_4 Sc2_3 1_555 1_555
O26_4 Sc2_3 1_555 1_555
C2_3 C5_3 1_555 1_555
C3_3 C4_3 1_555 1_555
C7_3 C9_3 1_555 1_555
C10_3 C12_3 1_555 1_555
C17_3 C18_3 1_555 1_555
O1_3 C20_3 1_555 1_555
O7_2 C20_3 1_555 1_555
C8_3 C6_3 1_555 1_555
H3_3 C8_3 1_555 1_555
C11_3 C6_3 1_555 1_555
H6_3 C11_3 1_555 1_555
C15_3 C8_3 1_555 1_555
H9_3 C15_3 1_555 1_555
C16_3 C11_3 1_555 1_555
H10_3 C16_3 1_555 1_555
C19_3 C15_3 1_555 1_555
C20_3 C19_3 1_555 1_555
Sc9_3 O7_2 1_555 1_555
C16_3 C19_3 1_555 1_555
O10_3 C41_5 1_555 1_555
O11_3 C26_5 1_555 1_555
O12_5 Sc3_2 1_555 1_555
O13_5 C42_5 1_555 1_555
O14_5 Sc3_2 1_555 1_555
O15_2 C41_5 1_555 1_555
C22_5 H12_5 1_555 1_555
C23_5 C22_5 1_555 1_555
O16_5 C42_5 1_555 1_555
C24_5 H13_5 1_555 1_555
C25_5 C22_5 1_555 1_555
C26_5 O12_5 1_555 1_555
C27_5 C28_5 1_555 1_555
C28_5 C24_5 1_555 1_555
C29_5 C27_5 1_555 1_555
H14_5 C29_5 1_555 1_555
C30_5 C23_5 1_555 1_555
H15_5 C30_5 1_555 1_555
C31_5 H16_5 1_555 1_555
C32_5 C27_5 1_555 1_555
H17_5 C32_5 1_555 1_555
C33_5 C25_5 1_555 1_555
C34_5 C33_5 1_555 1_555
H18_5 C34_5 1_555 1_555
C35_5 C34_5 1_555 1_555
H19_5 C35_5 1_555 1_555
C36_5 C29_5 1_555 1_555
H20_5 C36_5 1_555 1_555
C37_5 C32_5 1_555 1_555
H21_5 C37_5 1_555 1_555
C38_5 C35_5 1_555 1_555
C39_5 C31_5 1_555 1_555
H22_5 C39_5 1_555 1_555
C40_5 C36_5 1_555 1_555
C41_5 C40_5 1_555 1_555
C42_5 C38_5 1_555 1_555
Sc5_3 O11_3 1_555 1_555
Sc8_5 O13_5 1_555 1_555
Sc10_2 O15_2 1_555 1_555
Sc12_5 O16_5 1_555 1_555
O18_3 Sc3_2 1_555 1_555
O20_4 Sc3_2 1_555 1_555
O22_5 Sc3_2 1_555 1_555
C23_5 C26_5 1_555 1_555
C24_5 C25_5 1_555 1_555
C28_5 C30_5 1_555 1_555
C31_5 C33_5 1_555 1_555
C37_5 C40_5 1_555 1_555
C38_5 C39_5 1_555 1_555
Sc5_3 O20_4 1_555 1_555
O17_3 C41_6 1_555 1_555
O23_2 C41_6 1_555 1_555
C29_6 C27_6 1_555 1_555
H14_6 C29_6 1_555 1_555
C32_6 C27_6 1_555 1_555
H17_6 C32_6 1_555 1_555
C36_6 C29_6 1_555 1_555
H20_6 C36_6 1_555 1_555
C37_6 C32_6 1_555 1_555
H21_6 C37_6 1_555 1_555
C40_6 C36_6 1_555 1_555
C41_6 C40_6 1_555 1_555
C37_6 C40_6 1_555 1_555
O11_4 C26_6 1_555 1_555
O12_6 Sc4_2 1_555 1_555
O13_6 C42_6 1_555 1_555
O14_6 Sc4_2 1_555 1_555
C22_6 H12_6 1_555 1_555
C23_6 C22_6 1_555 1_555
O16_6 C42_6 1_555 1_555
C25_6 C22_6 1_555 1_555
C26_6 O12_6 1_555 1_555
C28_6 C24_6 1_555 1_555
C30_6 C23_6 1_555 1_555
H15_6 C30_6 1_555 1_555
C31_6 H16_6 1_555 1_555
C33_6 C25_6 1_555 1_555
C34_6 C33_6 1_555 1_555
H18_6 C34_6 1_555 1_555
C35_6 C34_6 1_555 1_555
H19_6 C35_6 1_555 1_555
C38_6 C35_6 1_555 1_555
C39_6 C31_6 1_555 1_555
H22_6 C39_6 1_555 1_555
C42_6 C38_6 1_555 1_555
Sc5_4 O11_4 1_555 1_555
Sc8_6 O13_6 1_555 1_555
Sc12_7 O16_6 1_555 1_555
O18_4 Sc4_2 1_555 1_555
O20_5 Sc4_2 1_555 1_555
O22_6 Sc4_2 1_555 1_555
C23_6 C26_6 1_555 1_555
C24_6 C25_6 1_555 1_555
C28_6 C30_6 1_555 1_555
C31_6 C33_6 1_555 1_555
C38_6 C39_6 1_555 1_555
Sc5_4 O20_5 1_555 1_555
O8_7 Sc9_3 1_555 1_555
O25_5 Sc9_3 1_555 1_555
O26_5 Sc9_3 1_555 1_555
O8_8 Sc10_2 1_555 1_555
O25_6 Sc10_2 1_555 1_555
O26_6 Sc10_2 1_555 1_555
O1_4 C20_4 1_555 1_555
O18_3 C5_4 1_555 1_555
O4_4 Sc5_3 1_555 1_555
O5_4 C21_4 1_555 1_555
O6_4 Sc5_3 1_555 1_555
O24_4 C20_4 1_555 1_555
C1_4 H1_4 1_555 1_555
C2_4 C1_4 1_555 1_555
O9_4 C21_4 1_555 1_555
C3_4 H2_4 1_555 1_555
C4_4 C1_4 1_555 1_555
C5_4 O4_4 1_555 1_555
C6_4 C7_4 1_555 1_555
C7_4 C3_4 1_555 1_555
C8_4 C6_4 1_555 1_555
H3_4 C8_4 1_555 1_555
C9_4 C2_4 1_555 1_555
H4_4 C9_4 1_555 1_555
C10_4 H5_4 1_555 1_555
C11_4 C6_4 1_555 1_555
H6_4 C11_4 1_555 1_555
C12_4 C4_4 1_555 1_555
C13_4 C12_4 1_555 1_555
H7_4 C13_4 1_555 1_555
C14_4 C13_4 1_555 1_555
H8_4 C14_4 1_555 1_555
C15_4 C8_4 1_555 1_555
H9_4 C15_4 1_555 1_555
C16_4 C11_4 1_555 1_555
H10_4 C16_4 1_555 1_555
C17_4 C14_4 1_555 1_555
C18_4 C10_4 1_555 1_555
H11_4 C18_4 1_555 1_555
C19_4 C15_4 1_555 1_555
C20_4 C19_4 1_555 1_555
C21_4 C17_4 1_555 1_555
Sc6_2 O1_4 1_555 1_555
O10_4 C41_7 1_555 1_555
O19_2 C26_7 1_555 1_555
O12_7 Sc6_2 1_555 1_555
O14_7 Sc6_2 1_555 1_555
O24_6 C41_7 1_555 1_555
C22_7 H12_7 1_555 1_555
C23_7 C22_7 1_555 1_555
O16_7 C42_7 1_555 1_555
C24_7 H13_7 1_555 1_555
C25_7 C22_7 1_555 1_555
C26_7 O12_7 1_555 1_555
C27_7 C28_7 1_555 1_555
C28_7 C24_7 1_555 1_555
C29_7 C27_7 1_555 1_555
H14_7 C29_7 1_555 1_555
C30_7 C23_7 1_555 1_555
H15_7 C30_7 1_555 1_555
C31_7 H16_7 1_555 1_555
C32_7 C27_7 1_555 1_555
H17_7 C32_7 1_555 1_555
C33_7 C25_7 1_555 1_555
C34_7 C33_7 1_555 1_555
H18_7 C34_7 1_555 1_555
C35_7 C34_7 1_555 1_555
H19_7 C35_7 1_555 1_555
C36_7 C29_7 1_555 1_555
H20_7 C36_7 1_555 1_555
C37_7 C32_7 1_555 1_555
H21_7 C37_7 1_555 1_555
C38_7 C35_7 1_555 1_555
C39_7 C31_7 1_555 1_555
H22_7 C39_7 1_555 1_555
C40_7 C36_7 1_555 1_555
C41_7 C40_7 1_555 1_555
C42_7 C38_7 1_555 1_555
Sc5_4 O10_4 1_555 1_555
Sc7_4 O5_4 1_555 1_555
Sc12_2 O9_4 1_555 1_555
Sc12 O16_7 1_555 1_555
O17_4 Sc5_3 1_555 1_555
O21_4 Sc5_3 1_555 1_555
O22_7 Sc6_2 1_555 1_555
C2_4 C5_4 1_555 1_555
C3_4 C4_4 1_555 1_555
C7_4 C9_4 1_555 1_555
C10_4 C12_4 1_555 1_555
C16_4 C19_4 1_555 1_555
C17_4 C18_4 1_555 1_555
C23_7 C26_7 1_555 1_555
C24_7 C25_7 1_555 1_555
C28_7 C30_7 1_555 1_555
C31_7 C33_7 1_555 1_555
C37_7 C40_7 1_555 1_555
C38_7 C39_7 1_555 1_555
Sc8_7 O13_7 1_555 1_555
Sc8_8 O13_8 1_555 1_555
O17_4 C41_8 1_555 1_555
O18_4 C26_8 1_555 1_555
O12_8 Sc5_4 1_555 1_555
O14_8 Sc5_4 1_555 1_555
O24_5 C41_8 1_555 1_555
C22_8 H12_8 1_555 1_555
C23_8 C22_8 1_555 1_555
O16_8 C42_8 1_555 1_555
C24_8 H13_8 1_555 1_555
C25_8 C22_8 1_555 1_555
C26_8 O12_8 1_555 1_555
C27_8 C28_8 1_555 1_555
C28_8 C24_8 1_555 1_555
C29_8 C27_8 1_555 1_555
H14_8 C29_8 1_555 1_555
C30_8 C23_8 1_555 1_555
H15_8 C30_8 1_555 1_555
C31_8 H16_8 1_555 1_555
C32_8 C27_8 1_555 1_555
H17_8 C32_8 1_555 1_555
C33_8 C25_8 1_555 1_555
C34_8 C33_8 1_555 1_555
H18_8 C34_8 1_555 1_555
C35_8 C34_8 1_555 1_555
H19_8 C35_8 1_555 1_555
C36_8 C29_8 1_555 1_555
H20_8 C36_8 1_555 1_555
C37_8 C32_8 1_555 1_555
H21_8 C37_8 1_555 1_555
C38_8 C35_8 1_555 1_555
C39_8 C31_8 1_555 1_555
H22_8 C39_8 1_555 1_555
C40_8 C36_8 1_555 1_555
C41_8 C40_8 1_555 1_555
C42_8 C38_8 1_555 1_555
Sc11 O16_8 1_555 1_555
O22_8 Sc5_4 1_555 1_555
C23_8 C26_8 1_555 1_555
C24_8 C25_8 1_555 1_555
C28_8 C30_8 1_555 1_555
C31_8 C33_8 1_555 1_555
C37_8 C40_8 1_555 1_555
C38_8 C39_8 1_555 1_555
O8_9 Sc2_4 1_555 1_555
O24_7 Sc2_4 1_555 1_555
O25_7 Sc2_4 1_555 1_555
O26_7 Sc2_4 1_555 1_555
O5_5 C21_5 1_555 1_555
O9_5 C21_5 1_555 1_555
H7_5 C13_5 1_555 1_555
C14_5 C13_5 1_555 1_555
H8_5 C14_5 1_555 1_555
C17_5 C14_5 1_555 1_555
H11_5 C18_5 1_555 1_555
C21_5 C17_5 1_555 1_555
O16_9 C42_9 1_555 1_555
H18_9 C34_9 1_555 1_555
C35_9 C34_9 1_555 1_555
H19_9 C35_9 1_555 1_555
C38_9 C35_9 1_555 1_555
H22_9 C39_9 1_555 1_555
C42_9 C38_9 1_555 1_555
Sc7_5 O5_5 1_555 1_555
Sc12_4 O9_5 1_555 1_555
Sc12_3 O16_9 1_555 1_555
C17_5 C18_5 1_555 1_555
C38_9 C39_9 1_555 1_555
Sc1_3 O3_4 1_555 1_555
O1_5 C20_5 1_555 1_555
O2_3 C5_5 1_555 1_555
O3_4 Sc6_3 1_555 1_555
O4_5 Sc1_3 1_555 1_555
O6_5 Sc1_3 1_555 1_555
O7_3 C20_5 1_555 1_555
C1_5 H1_5 1_555 1_555
C2_5 C1_5 1_555 1_555
C3_5 H2_5 1_555 1_555
C4_5 C1_5 1_555 1_555
C5_5 O4_5 1_555 1_555
C6_5 C7_5 1_555 1_555
C7_5 C3_5 1_555 1_555
C8_5 C6_5 1_555 1_555
H3_5 C8_5 1_555 1_555
C9_5 C2_5 1_555 1_555
H4_5 C9_5 1_555 1_555
C10_5 H5_5 1_555 1_555
C11_5 C6_5 1_555 1_555
H6_5 C11_5 1_555 1_555
C12_5 C4_5 1_555 1_555
C15_5 C8_5 1_555 1_555
H9_5 C15_5 1_555 1_555
C16_5 C11_5 1_555 1_555
H10_5 C16_5 1_555 1_555
C19_5 C15_5 1_555 1_555
C20_5 C19_5 1_555 1_555
Sc3_3 O1_5 1_555 1_555
O10_5 C41_9 1_555 1_555
O11_5 C26_9 1_555 1_555
O12_9 Sc3_3 1_555 1_555
O14_9 Sc3_3 1_555 1_555
O15_3 C41_9 1_555 1_555
C22_9 H12_9 1_555 1_555
C23_9 C22_9 1_555 1_555
C24_9 H13_9 1_555 1_555
C25_9 C22_9 1_555 1_555
C26_9 O12_9 1_555 1_555
C27_9 C28_9 1_555 1_555
C28_9 C24_9 1_555 1_555
C29_9 C27_9 1_555 1_555
H14_9 C29_9 1_555 1_555
C30_9 C23_9 1_555 1_555
H15_9 C30_9 1_555 1_555
C31_9 H16_9 1_555 1_555
C32_9 C27_9 1_555 1_555
H17_9 C32_9 1_555 1_555
C33_9 C25_9 1_555 1_555
C36_9 C29_9 1_555 1_555
H20_9 C36_9 1_555 1_555
C37_9 C32_9 1_555 1_555
H21_9 C37_9 1_555 1_555
C40_9 C36_9 1_555 1_555
C41_9 C40_9 1_555 1_555
Sc4_3 O10_5 1_555 1_555
Sc5_5 O11_5 1_555 1_555
Sc6_3 O2_3 1_555 1_555
Sc9_4 O7_3 1_555 1_555
O17_5 Sc1_3 1_555 1_555
O18_5 Sc3_3 1_555 1_555
O19_3 Sc1_3 1_555 1_555
O20_6 Sc3_3 1_555 1_555
O21_5 Sc1_3 1_555 1_555
O22_9 Sc3_3 1_555 1_555
C2_5 C5_5 1_555 1_555
C3_5 C4_5 1_555 1_555
C7_5 C9_5 1_555 1_555
C10_5 C12_5 1_555 1_555
C16_5 C19_5 1_555 1_555
C23_9 C26_9 1_555 1_555
C24_9 C25_9 1_555 1_555
C28_9 C30_9 1_555 1_555
C31_9 C33_9 1_555 1_555
C37_9 C40_9 1_555 1_555
Sc5_5 O20_6 1_555 1_555
Sc9_4 O20_6 1_555 1_555
Sc8_9 O13_9 1_555 1_555
Sc8_10 O13_10 1_555 1_555
O16_10 C42_10 1_555 1_555
H18_10 C34_10 1_555 1_555
C35_10 C34_10 1_555 1_555
H19_10 C35_10 1_555 1_555
C38_10 C35_10 1_555 1_555
H22_10 C39_10 1_555 1_555
C42_10 C38_10 1_555 1_555
Sc11_2 O16_10 1_555 1_555
C38_10 C39_10 1_555 1_555
O8_10 Sc9_4 1_555 1_555
O17_5 C41_10 1_555 1_555
O11_6 C26_10 1_555 1_555
O12_10 Sc4_3 1_555 1_555
O14_10 Sc4_3 1_555 1_555
O23_3 C41_10 1_555 1_555
C22_10 H12_10 1_555 1_555
C23_10 C22_10 1_555 1_555
C24_10 H13_10 1_555 1_555
C25_10 C22_10 1_555 1_555
C26_10 O12_10 1_555 1_555
C27_10 C28_10 1_555 1_555
C28_10 C24_10 1_555 1_555
C29_10 C27_10 1_555 1_555
H14_10 C29_10 1_555 1_555
C30_10 C23_10 1_555 1_555
H15_10 C30_10 1_555 1_555
C31_10 H16_10 1_555 1_555
C32_10 C27_10 1_555 1_555
H17_10 C32_10 1_555 1_555
C33_10 C25_10 1_555 1_555
C36_10 C29_10 1_555 1_555
H20_10 C36_10 1_555 1_555
C37_10 C32_10 1_555 1_555
H21_10 C37_10 1_555 1_555
C40_10 C36_10 1_555 1_555
C41_10 C40_10 1_555 1_555
Sc5_6 O11_6 1_555 1_555
O18_6 Sc4_3 1_555 1_555
O20_7 Sc4_3 1_555 1_555
O22_10 Sc4_3 1_555 1_555
O24_8 Sc9_4 1_555 1_555
O25_8 Sc9_4 1_555 1_555
O26_8 Sc9_4 1_555 1_555
C23_10 C26_10 1_555 1_555
C24_10 C25_10 1_555 1_555
C28_10 C30_10 1_555 1_555
C31_10 C33_10 1_555 1_555
C37_10 C40_10 1_555 1_555
Sc5_6 O20_7 1_555 1_555
O8_11 Sc10_3 1_555 1_555
O24_9 Sc10_3 1_555 1_555
O25_9 Sc10_3 1_555 1_555
O26_9 Sc10_3 1_555 1_555
O18_5 C5_6 1_555 1_555
O4_6 Sc5_5 1_555 1_555
O5_6 C21_6 1_555 1_555
O6_6 Sc5_5 1_555 1_555
C1_6 H1_6 1_555 1_555
C2_6 C1_6 1_555 1_555
O9_6 C21_6 1_555 1_555
C4_6 C1_6 1_555 1_555
C5_6 O4_6 1_555 1_555
C7_6 C3_6 1_555 1_555
C9_6 C2_6 1_555 1_555
H4_6 C9_6 1_555 1_555
C10_6 H5_6 1_555 1_555
C12_6 C4_6 1_555 1_555
C13_6 C12_6 1_555 1_555
H7_6 C13_6 1_555 1_555
C14_6 C13_6 1_555 1_555
H8_6 C14_6 1_555 1_555
C17_6 C14_6 1_555 1_555
C18_6 C10_6 1_555 1_555
H11_6 C18_6 1_555 1_555
C21_6 C17_6 1_555 1_555
Sc7_6 O5_6 1_555 1_555
Sc12_6 O9_6 1_555 1_555
O17_6 Sc5_5 1_555 1_555
O21_6 Sc5_5 1_555 1_555
C2_6 C5_6 1_555 1_555
C3_6 C4_6 1_555 1_555
C7_6 C9_6 1_555 1_555
C10_6 C12_6 1_555 1_555
C17_6 C18_6 1_555 1_555
O1_6 C20_6 1_555 1_555
O24_7 C20_6 1_555 1_555
C8_6 C6_6 1_555 1_555
H3_6 C8_6 1_555 1_555
C11_6 C6_6 1_555 1_555
H6_6 C11_6 1_555 1_555
C15_6 C8_6 1_555 1_555
H9_6 C15_6 1_555 1_555
C16_6 C11_6 1_555 1_555
H10_6 C16_6 1_555 1_555
C19_6 C15_6 1_555 1_555
C20_6 C19_6 1_555 1_555
C16_6 C19_6 1_555 1_555
O10_6 C41_11 1_555 1_555
O19_3 C26_11 1_555 1_555
O12_11 Sc6_3 1_555 1_555
O13_11 C42_11 1_555 1_555
O14_11 Sc6_3 1_555 1_555
O24_9 C41_11 1_555 1_555
C22_11 H12_11 1_555 1_555
C23_11 C22_11 1_555 1_555
O16_11 C42_11 1_555 1_555
C24_11 H13_11 1_555 1_555
C25_11 C22_11 1_555 1_555
C26_11 O12_11 1_555 1_555
C27_11 C28_11 1_555 1_555
C28_11 C24_11 1_555 1_555
C29_11 C27_11 1_555 1_555
H14_11 C29_11 1_555 1_555
C30_11 C23_11 1_555 1_555
H15_11 C30_11 1_555 1_555
C31_11 H16_11 1_555 1_555
C32_11 C27_11 1_555 1_555
H17_11 C32_11 1_555 1_555
C33_11 C25_11 1_555 1_555
C34_11 C33_11 1_555 1_555
H18_11 C34_11 1_555 1_555
C35_11 C34_11 1_555 1_555
H19_11 C35_11 1_555 1_555
C36_11 C29_11 1_555 1_555
H20_11 C36_11 1_555 1_555
C37_11 C32_11 1_555 1_555
H21_11 C37_11 1_555 1_555
C38_11 C35_11 1_555 1_555
C39_11 C31_11 1_555 1_555
H22_11 C39_11 1_555 1_555
C40_11 C36_11 1_555 1_555
C41_11 C40_11 1_555 1_555
C42_11 C38_11 1_555 1_555
Sc8_11 O13_11 1_555 1_555
Sc12_5 O16_11 1_555 1_555
O22_11 Sc6_3 1_555 1_555
C23_11 C26_11 1_555 1_555
C24_11 C25_11 1_555 1_555
C28_11 C30_11 1_555 1_555
C31_11 C33_11 1_555 1_555
C37_11 C40_11 1_555 1_555
C38_11 C39_11 1_555 1_555
O17_6 C41_12 1_555 1_555
O24_8 C41_12 1_555 1_555
C29_12 C27_12 1_555 1_555
H14_12 C29_12 1_555 1_555
C32_12 C27_12 1_555 1_555
H17_12 C32_12 1_555 1_555
C36_12 C29_12 1_555 1_555
H20_12 C36_12 1_555 1_555
C37_12 C32_12 1_555 1_555
H21_12 C37_12 1_555 1_555
C40_12 C36_12 1_555 1_555
C41_12 C40_12 1_555 1_555
C37_12 C40_12 1_555 1_555
O18_6 C26_12 1_555 1_555
O12_12 Sc5_6 1_555 1_555
O13_12 C42_12 1_555 1_555
O14_12 Sc5_6 1_555 1_555
C22_12 H12_12 1_555 1_555
C23_12 C22_12 1_555 1_555
O16_12 C42_12 1_555 1_555
C25_12 C22_12 1_555 1_555
C26_12 O12_12 1_555 1_555
C28_12 C24_12 1_555 1_555
C30_12 C23_12 1_555 1_555
H15_12 C30_12 1_555 1_555
C31_12 H16_12 1_555 1_555
C33_12 C25_12 1_555 1_555
C34_12 C33_12 1_555 1_555
H18_12 C34_12 1_555 1_555
C35_12 C34_12 1_555 1_555
H19_12 C35_12 1_555 1_555
C38_12 C35_12 1_555 1_555
C39_12 C31_12 1_555 1_555
H22_12 C39_12 1_555 1_555
C42_12 C38_12 1_555 1_555
Sc8_12 O13_12 1_555 1_555
Sc11_4 O16_12 1_555 1_555
O22_12 Sc5_6 1_555 1_555
C23_12 C26_12 1_555 1_555
C24_12 C25_12 1_555 1_555
C28_12 C30_12 1_555 1_555
C31_12 C33_12 1_555 1_555
C38_12 C39_12 1_555 1_555
O22_8 C42_13 1_555 1_555
C31_13 H16_13 1_555 1_555
C39_13 C31_13 1_555 1_555
H22_13 C39_13 1_555 1_555
C42_13 C38_13 1_555 1_555
Sc7_3 O11_7 1_555 1_555
C38_13 C39_13 1_555 1_555
Sc7_3 O20_8 1_555 1_555
Sc11_3 O20_8 1_555 1_555
Sc7_6 O3_5 1_555 1_555
Sc12_6 O3_5 1_555 1_555
O1_7 C20_7 1_555 1_555
O4_7 Sc7_6 1_555 1_555
O6_7 Sc7_6 1_555 1_555
O7_4 C20_7 1_555 1_555
O8_12 Sc12_6 1_555 1_555
C1_7 H1_7 1_555 1_555
C2_7 C1_7 1_555 1_555
C3_7 H2_7 1_555 1_555
C4_7 C1_7 1_555 1_555
C5_7 O4_7 1_555 1_555
C6_7 C7_7 1_555 1_555
C7_7 C3_7 1_555 1_555
C8_7 C6_7 1_555 1_555
H3_7 C8_7 1_555 1_555
C9_7 C2_7 1_555 1_555
H4_7 C9_7 1_555 1_555
C11_7 C6_7 1_555 1_555
H6_7 C11_7 1_555 1_555
C12_7 C4_7 1_555 1_555
C13_7 C12_7 1_555 1_555
H7_7 C13_7 1_555 1_555
C14_7 C13_7 1_555 1_555
H8_7 C14_7 1_555 1_555
C15_7 C8_7 1_555 1_555
H9_7 C15_7 1_555 1_555
C16_7 C11_7 1_555 1_555
H10_7 C16_7 1_555 1_555
C19_7 C15_7 1_555 1_555
C20_7 C19_7 1_555 1_555
Sc8_12 O1_7 1_555 1_555
O10_7 C41_13 1_555 1_555
O12_13 Sc8_12 1_555 1_555
O14_13 Sc8_12 1_555 1_555
O15_4 C41_13 1_555 1_555
C22_13 H12_13 1_555 1_555
C23_13 C22_13 1_555 1_555
C24_13 H13_13 1_555 1_555
C25_13 C22_13 1_555 1_555
C26_13 O12_13 1_555 1_555
C27_13 C28_13 1_555 1_555
C28_13 C24_13 1_555 1_555
C29_13 C27_13 1_555 1_555
H14_13 C29_13 1_555 1_555
C30_13 C23_13 1_555 1_555
H15_13 C30_13 1_555 1_555
C32_13 C27_13 1_555 1_555
H17_13 C32_13 1_555 1_555
C33_13 C25_13 1_555 1_555
C34_13 C33_13 1_555 1_555
H18_13 C34_13 1_555 1_555
C35_13 C34_13 1_555 1_555
H19_13 C35_13 1_555 1_555
C36_13 C29_13 1_555 1_555
H20_13 C36_13 1_555 1_555
C37_13 C32_13 1_555 1_555
H21_13 C37_13 1_555 1_555
C40_13 C36_13 1_555 1_555
C41_13 C40_13 1_555 1_555
Sc8_11 O10_7 1_555 1_555
Sc11_4 O7_4 1_555 1_555
Sc12_5 O15_4 1_555 1_555
O17_7 Sc7_6 1_555 1_555
O18_7 Sc8_12 1_555 1_555
O19_4 Sc7_6 1_555 1_555
O20_9 Sc8_12 1_555 1_555
O23_4 Sc12_6 1_555 1_555
C2_7 C5_7 1_555 1_555
C3_7 C4_7 1_555 1_555
C7_7 C9_7 1_555 1_555
C16_7 C19_7 1_555 1_555
C23_13 C26_13 1_555 1_555
C24_13 C25_13 1_555 1_555
C28_13 C30_13 1_555 1_555
C37_13 C40_13 1_555 1_555
Sc11_4 O20_9 1_555 1_555
O8_12 H25_5 1_555 1_555
Sc12_7 O3_6 1_555 1_555
O3_6 Sc8_6 1_555 1_555
O21_4 C21_7 1_555 1_555
O8_13 Sc12_7 1_555 1_555
C10_7 H5_7 1_555 1_555
C18_7 C10_7 1_555 1_555
H11_7 C18_7 1_555 1_555
C21_7 C17_7 1_555 1_555
Sc8_6 O2_4 1_555 1_555
O24_10 Sc12_7 1_555 1_555
C17_7 C18_7 1_555 1_555
O8_13 H26_5 1_555 1_555
O8_14 Sc11_3 1_555 1_555
O24_11 Sc11_3 1_555 1_555
O8_14 H26_6 1_555 1_555
O8_15 Sc11_4 1_555 1_555
O17_7 C41_14 1_555 1_555
O11_8 C26_14 1_555 1_555
O12_14 Sc8_11 1_555 1_555
O22_7 C42_14 1_555 1_555
O14_14 Sc8_11 1_555 1_555
O23_4 C41_14 1_555 1_555
C22_14 H12_14 1_555 1_555
C23_14 C22_14 1_555 1_555
O26_4 C42_14 1_555 1_555
C24_14 H13_14 1_555 1_555
C25_14 C22_14 1_555 1_555
C26_14 O12_14 1_555 1_555
C27_14 C28_14 1_555 1_555
C28_14 C24_14 1_555 1_555
C29_14 C27_14 1_555 1_555
H14_14 C29_14 1_555 1_555
C30_14 C23_14 1_555 1_555
H15_14 C30_14 1_555 1_555
C31_14 H16_14 1_555 1_555
C32_14 C27_14 1_555 1_555
H17_14 C32_14 1_555 1_555
C33_14 C25_14 1_555 1_555
C34_14 C33_14 1_555 1_555
H18_14 C34_14 1_555 1_555
C35_14 C34_14 1_555 1_555
H19_14 C35_14 1_555 1_555
C36_14 C29_14 1_555 1_555
H20_14 C36_14 1_555 1_555
C37_14 C32_14 1_555 1_555
H21_14 C37_14 1_555 1_555
C38_14 C35_14 1_555 1_555
C39_14 C31_14 1_555 1_555
H22_14 C39_14 1_555 1_555
C40_14 C36_14 1_555 1_555
C41_14 C40_14 1_555 1_555
C42_14 C38_14 1_555 1_555
Sc8_5 O11_8 1_555 1_555
O18_8 Sc8_11 1_555 1_555
O20_10 Sc8_11 1_555 1_555
C23_14 C26_14 1_555 1_555
C24_14 C25_14 1_555 1_555
C28_14 C30_14 1_555 1_555
C31_14 C33_14 1_555 1_555
C37_14 C40_14 1_555 1_555
C38_14 C39_14 1_555 1_555
Sc8_5 O20_10 1_555 1_555
Sc12_5 O20_10 1_555 1_555
O8_15 H25_6 1_555 1_555
O8_16 Sc12_5 1_555 1_555
O24_12 Sc12_5 1_555 1_555
O22_10 C42_15 1_555 1_555
C31_15 H16_15 1_555 1_555
C39_15 C31_15 1_555 1_555
H22_15 C39_15 1_555 1_555
C42_15 C38_15 1_555 1_555
C38_15 C39_15 1_555 1_555
O1_8 C20_8 1_555 1_555
O4_8 Sc7_3 1_555 1_555
O6_8 Sc7_3 1_555 1_555
O24_10 C20_8 1_555 1_555
C1_8 H1_8 1_555 1_555
C2_8 C1_8 1_555 1_555
C3_8 H2_8 1_555 1_555
C4_8 C1_8 1_555 1_555
C5_8 O4_8 1_555 1_555
C6_8 C7_8 1_555 1_555
C7_8 C3_8 1_555 1_555
C8_8 C6_8 1_555 1_555
H3_8 C8_8 1_555 1_555
C9_8 C2_8 1_555 1_555
H4_8 C9_8 1_555 1_555
C11_8 C6_8 1_555 1_555
H6_8 C11_8 1_555 1_555
C12_8 C4_8 1_555 1_555
C13_8 C12_8 1_555 1_555
H7_8 C13_8 1_555 1_555
C14_8 C13_8 1_555 1_555
H8_8 C14_8 1_555 1_555
C15_8 C8_8 1_555 1_555
H9_8 C15_8 1_555 1_555
C16_8 C11_8 1_555 1_555
H10_8 C16_8 1_555 1_555
C19_8 C15_8 1_555 1_555
C20_8 C19_8 1_555 1_555
Sc8_6 O1_8 1_555 1_555
O10_8 C41_15 1_555 1_555
O12_15 Sc8_6 1_555 1_555
O14_15 Sc8_6 1_555 1_555
O24_12 C41_15 1_555 1_555
C22_15 H12_15 1_555 1_555
C23_15 C22_15 1_555 1_555
C24_15 H13_15 1_555 1_555
C25_15 C22_15 1_555 1_555
C26_15 O12_15 1_555 1_555
C27_15 C28_15 1_555 1_555
C28_15 C24_15 1_555 1_555
C29_15 C27_15 1_555 1_555
H14_15 C29_15 1_555 1_555
C30_15 C23_15 1_555 1_555
H15_15 C30_15 1_555 1_555
C32_15 C27_15 1_555 1_555
H17_15 C32_15 1_555 1_555
C33_15 C25_15 1_555 1_555
C34_15 C33_15 1_555 1_555
H18_15 C34_15 1_555 1_555
C35_15 C34_15 1_555 1_555
H19_15 C35_15 1_555 1_555
C36_15 C29_15 1_555 1_555
H20_15 C36_15 1_555 1_555
C37_15 C32_15 1_555 1_555
H21_15 C37_15 1_555 1_555
C40_15 C36_15 1_555 1_555
C41_15 C40_15 1_555 1_555
Sc8_5 O10_8 1_555 1_555
O17_8 Sc7_3 1_555 1_555
C2_8 C5_8 1_555 1_555
C3_8 C4_8 1_555 1_555
C7_8 C9_8 1_555 1_555
C16_8 C19_8 1_555 1_555
C23_15 C26_15 1_555 1_555
C24_15 C25_15 1_555 1_555
C28_15 C30_15 1_555 1_555
C37_15 C40_15 1_555 1_555
O8_14 H25_7 1_555 1_555
O21_5 C21_8 1_555 1_555
C10_8 H5_8 1_555 1_555
C18_8 C10_8 1_555 1_555
H11_8 C18_8 1_555 1_555
C21_8 C17_8 1_555 1_555
C17_8 C18_8 1_555 1_555
O8_15 H26_7 1_555 1_555
O8_12 H26_8 1_555 1_555
O17_8 C41_16 1_555 1_555
O18_8 C26_16 1_555 1_555
O12_16 Sc8_5 1_555 1_555
O22_9 C42_16 1_555 1_555
O14_16 Sc8_5 1_555 1_555
O24_11 C41_16 1_555 1_555
C22_16 H12_16 1_555 1_555
C23_16 C22_16 1_555 1_555
O25_8 C42_16 1_555 1_555
C24_16 H13_16 1_555 1_555
C25_16 C22_16 1_555 1_555
C26_16 O12_16 1_555 1_555
C27_16 C28_16 1_555 1_555
C28_16 C24_16 1_555 1_555
C29_16 C27_16 1_555 1_555
H14_16 C29_16 1_555 1_555
C30_16 C23_16 1_555 1_555
H15_16 C30_16 1_555 1_555
C31_16 H16_16 1_555 1_555
C32_16 C27_16 1_555 1_555
H17_16 C32_16 1_555 1_555
C33_16 C25_16 1_555 1_555
C34_16 C33_16 1_555 1_555
H18_16 C34_16 1_555 1_555
C35_16 C34_16 1_555 1_555
H19_16 C35_16 1_555 1_555
C36_16 C29_16 1_555 1_555
H20_16 C36_16 1_555 1_555
C37_16 C32_16 1_555 1_555
H21_16 C37_16 1_555 1_555
C38_16 C35_16 1_555 1_555
C39_16 C31_16 1_555 1_555
H22_16 C39_16 1_555 1_555
C40_16 C36_16 1_555 1_555
C41_16 C40_16 1_555 1_555
C42_16 C38_16 1_555 1_555
C23_16 C26_16 1_555 1_555
C24_16 C25_16 1_555 1_555
C28_16 C30_16 1_555 1_555
C31_16 C33_16 1_555 1_555
C37_16 C40_16 1_555 1_555
C38_16 C39_16 1_555 1_555
O8_13 H25_8 1_555 1_555
O10_9 C41_17 1_555 1_555
O11_9 C26_17 1_555 1_555
O12_17 Sc8_8 1_555 1_555
O22_4 C42_17 1_555 1_555
O14_17 Sc8_8 1_555 1_555
O15_5 C41_17 1_555 1_555
C22_17 H12_17 1_555 1_555
C23_17 C22_17 1_555 1_555
O26_3 C42_17 1_555 1_555
C24_17 H13_17 1_555 1_555
C25_17 C22_17 1_555 1_555
C26_17 O12_17 1_555 1_555
C27_17 C28_17 1_555 1_555
C28_17 C24_17 1_555 1_555
C29_17 C27_17 1_555 1_555
H14_17 C29_17 1_555 1_555
C30_17 C23_17 1_555 1_555
H15_17 C30_17 1_555 1_555
C31_17 H16_17 1_555 1_555
C32_17 C27_17 1_555 1_555
H17_17 C32_17 1_555 1_555
C33_17 C25_17 1_555 1_555
C34_17 C33_17 1_555 1_555
H18_17 C34_17 1_555 1_555
C35_17 C34_17 1_555 1_555
H19_17 C35_17 1_555 1_555
C36_17 C29_17 1_555 1_555
H20_17 C36_17 1_555 1_555
C37_17 C32_17 1_555 1_555
H21_17 C37_17 1_555 1_555
C38_17 C35_17 1_555 1_555
C39_17 C31_17 1_555 1_555
H22_17 C39_17 1_555 1_555
C40_17 C36_17 1_555 1_555
C41_17 C40_17 1_555 1_555
C42_17 C38_17 1_555 1_555
Sc7 O11_9 1_555 1_555
Sc12 O15_5 1_555 1_555
O18_9 Sc8_8 1_555 1_555
O20_11 Sc8_8 1_555 1_555
C23_17 C26_17 1_555 1_555
C24_17 C25_17 1_555 1_555
C28_17 C30_17 1_555 1_555
C31_17 C33_17 1_555 1_555
C37_17 C40_17 1_555 1_555
C38_17 C39_17 1_555 1_555
Sc7 O20_11 1_555 1_555
O1_9 C20_9 1_555 1_555
O7_5 C20_9 1_555 1_555
C8_9 C6_9 1_555 1_555
H3_9 C8_9 1_555 1_555
C11_9 C6_9 1_555 1_555
H6_9 C11_9 1_555 1_555
C15_9 C8_9 1_555 1_555
H9_9 C15_9 1_555 1_555
C16_9 C11_9 1_555 1_555
H10_9 C16_9 1_555 1_555
C19_9 C15_9 1_555 1_555
C20_9 C19_9 1_555 1_555
Sc11 O7_5 1_555 1_555
C16_9 C19_9 1_555 1_555
Sc7_4 O3_7 1_555 1_555
Sc12_2 O3_7 1_555 1_555
O2_5 C5_9 1_555 1_555
O3_7 Sc8_2 1_555 1_555
O4_9 Sc7_4 1_555 1_555
O21_2 C21_9 1_555 1_555
O6_9 Sc7_4 1_555 1_555
O8_17 Sc12_2 1_555 1_555
C1_9 H1_9 1_555 1_555
C2_9 C1_9 1_555 1_555
O26_2 C21_9 1_555 1_555
C4_9 C1_9 1_555 1_555
C5_9 O4_9 1_555 1_555
C7_9 C3_9 1_555 1_555
C9_9 C2_9 1_555 1_555
H4_9 C9_9 1_555 1_555
C10_9 H5_9 1_555 1_555
C12_9 C4_9 1_555 1_555
C13_9 C12_9 1_555 1_555
H7_9 C13_9 1_555 1_555
C14_9 C13_9 1_555 1_555
H8_9 C14_9 1_555 1_555
C17_9 C14_9 1_555 1_555
C18_9 C10_9 1_555 1_555
H11_9 C18_9 1_555 1_555
C21_9 C17_9 1_555 1_555
Sc8_2 O2_5 1_555 1_555
O17_9 Sc7_4 1_555 1_555
O19_5 Sc7_4 1_555 1_555
O23_5 Sc12_2 1_555 1_555
O24_13 Sc12_2 1_555 1_555
C2_9 C5_9 1_555 1_555
C3_9 C4_9 1_555 1_555
C7_9 C9_9 1_555 1_555
C10_9 C12_9 1_555 1_555
C17_9 C18_9 1_555 1_555
O8_18 Sc11 1_555 1_555
O11_10 C26_18 1_555 1_555
O12_18 Sc8_7 1_555 1_555
O22_3 C42_18 1_555 1_555
O14_18 Sc8_7 1_555 1_555
C22_18 H12_18 1_555 1_555
C23_18 C22_18 1_555 1_555
O26 C42_18 1_555 1_555
C25_18 C22_18 1_555 1_555
C26_18 O12_18 1_555 1_555
C28_18 C24_18 1_555 1_555
C30_18 C23_18 1_555 1_555
H15_18 C30_18 1_555 1_555
C31_18 H16_18 1_555 1_555
C33_18 C25_18 1_555 1_555
C34_18 C33_18 1_555 1_555
H18_18 C34_18 1_555 1_555
C35_18 C34_18 1_555 1_555
H19_18 C35_18 1_555 1_555
C38_18 C35_18 1_555 1_555
C39_18 C31_18 1_555 1_555
H22_18 C39_18 1_555 1_555
C42_18 C38_18 1_555 1_555
Sc8 O11_10 1_555 1_555
O18_10 Sc8_7 1_555 1_555
O20_12 Sc8_7 1_555 1_555
C23_18 C26_18 1_555 1_555
C24_18 C25_18 1_555 1_555
C28_18 C30_18 1_555 1_555
C31_18 C33_18 1_555 1_555
C38_18 C39_18 1_555 1_555
Sc8 O20_12 1_555 1_555
O17_9 C41_18 1_555 1_555
O23_5 C41_18 1_555 1_555
C29_18 C27_18 1_555 1_555
H14_18 C29_18 1_555 1_555
C32_18 C27_18 1_555 1_555
H17_18 C32_18 1_555 1_555
C36_18 C29_18 1_555 1_555
H20_18 C36_18 1_555 1_555
C37_18 C32_18 1_555 1_555
H21_18 C37_18 1_555 1_555
C40_18 C36_18 1_555 1_555
C41_18 C40_18 1_555 1_555
C37_18 C40_18 1_555 1_555
O8_19 Sc12 1_555 1_555
O1_10 C20_10 1_555 1_555
O18_9 C5_10 1_555 1_555
O4_10 Sc7 1_555 1_555
O21_3 C21_10 1_555 1_555
O6_10 Sc7 1_555 1_555
O24_13 C20_10 1_555 1_555
C1_10 H1_10 1_555 1_555
C2_10 C1_10 1_555 1_555
O25_4 C21_10 1_555 1_555
C3_10 H2_10 1_555 1_555
C4_10 C1_10 1_555 1_555
C5_10 O4_10 1_555 1_555
C6_10 C7_10 1_555 1_555
C7_10 C3_10 1_555 1_555
C8_10 C6_10 1_555 1_555
H3_10 C8_10 1_555 1_555
C9_10 C2_10 1_555 1_555
H4_10 C9_10 1_555 1_555
C10_10 H5_10 1_555 1_555
C11_10 C6_10 1_555 1_555
H6_10 C11_10 1_555 1_555
C12_10 C4_10 1_555 1_555
C13_10 C12_10 1_555 1_555
H7_10 C13_10 1_555 1_555
C14_10 C13_10 1_555 1_555
H8_10 C14_10 1_555 1_555
C15_10 C8_10 1_555 1_555
H9_10 C15_10 1_555 1_555
C16_10 C11_10 1_555 1_555
H10_10 C16_10 1_555 1_555
C17_10 C14_10 1_555 1_555
C18_10 C10_10 1_555 1_555
H11_10 C18_10 1_555 1_555
C19_10 C15_10 1_555 1_555
C20_10 C19_10 1_555 1_555
C21_10 C17_10 1_555 1_555
Sc8_2 O1_10 1_555 1_555
O10_10 C41_19 1_555 1_555
O19_5 C26_19 1_555 1_555
O12_19 Sc8_2 1_555 1_555
O14_19 Sc8_2 1_555 1_555
O24_15 C41_19 1_555 1_555
C22_19 H12_19 1_555 1_555
C23_19 C22_19 1_555 1_555
O25_6 C42_19 1_555 1_555
C24_19 H13_19 1_555 1_555
C25_19 C22_19 1_555 1_555
C26_19 O12_19 1_555 1_555
C27_19 C28_19 1_555 1_555
C28_19 C24_19 1_555 1_555
C29_19 C27_19 1_555 1_555
H14_19 C29_19 1_555 1_555
C30_19 C23_19 1_555 1_555
H15_19 C30_19 1_555 1_555
C31_19 H16_19 1_555 1_555
C32_19 C27_19 1_555 1_555
H17_19 C32_19 1_555 1_555
C33_19 C25_19 1_555 1_555
C34_19 C33_19 1_555 1_555
H18_19 C34_19 1_555 1_555
C35_19 C34_19 1_555 1_555
H19_19 C35_19 1_555 1_555
C36_19 C29_19 1_555 1_555
H20_19 C36_19 1_555 1_555
C37_19 C32_19 1_555 1_555
H21_19 C37_19 1_555 1_555
C38_19 C35_19 1_555 1_555
C39_19 C31_19 1_555 1_555
H22_19 C39_19 1_555 1_555
C40_19 C36_19 1_555 1_555
C41_19 C40_19 1_555 1_555
C42_19 C38_19 1_555 1_555
Sc8 O10_10 1_555 1_555
O17_10 Sc7 1_555 1_555
C2_10 C5_10 1_555 1_555
C3_10 C4_10 1_555 1_555
C7_10 C9_10 1_555 1_555
C10_10 C12_10 1_555 1_555
C16_10 C19_10 1_555 1_555
C17_10 C18_10 1_555 1_555
C23_19 C26_19 1_555 1_555
C24_19 C25_19 1_555 1_555
C28_19 C30_19 1_555 1_555
C31_19 C33_19 1_555 1_555
C37_19 C40_19 1_555 1_555
C38_19 C39_19 1_555 1_555
O17_10 C41_20 1_555 1_555
O18_10 C26_20 1_555 1_555
O12_20 Sc8 1_555 1_555
O14_20 Sc8 1_555 1_555
O24_14 C41_20 1_555 1_555
C22_20 H12_20 1_555 1_555
C23_20 C22_20 1_555 1_555
O25_5 C42_20 1_555 1_555
C24_20 H13_20 1_555 1_555
C25_20 C22_20 1_555 1_555
C26_20 O12_20 1_555 1_555
C27_20 C28_20 1_555 1_555
C28_20 C24_20 1_555 1_555
C29_20 C27_20 1_555 1_555
H14_20 C29_20 1_555 1_555
C30_20 C23_20 1_555 1_555
H15_20 C30_20 1_555 1_555
C31_20 H16_20 1_555 1_555
C32_20 C27_20 1_555 1_555
H17_20 C32_20 1_555 1_555
C33_20 C25_20 1_555 1_555
C34_20 C33_20 1_555 1_555
H18_20 C34_20 1_555 1_555
C35_20 C34_20 1_555 1_555
H19_20 C35_20 1_555 1_555
C36_20 C29_20 1_555 1_555
H20_20 C36_20 1_555 1_555
C37_20 C32_20 1_555 1_555
H21_20 C37_20 1_555 1_555
C38_20 C35_20 1_555 1_555
C39_20 C31_20 1_555 1_555
H22_20 C39_20 1_555 1_555
C40_20 C36_20 1_555 1_555
C41_20 C40_20 1_555 1_555
C42_20 C38_20 1_555 1_555
C23_20 C26_20 1_555 1_555
C24_20 C25_20 1_555 1_555
C28_20 C30_20 1_555 1_555
C31_20 C33_20 1_555 1_555
C37_20 C40_20 1_555 1_555
C38_20 C39_20 1_555 1_555
Sc7_2 O3_8 1_555 1_555
O1_11 C20_11 1_555 1_555
O2_6 C5_11 1_555 1_555
O3_8 Sc8_10 1_555 1_555
O4_11 Sc7_2 1_555 1_555
O6_11 Sc7_2 1_555 1_555
O7_6 C20_11 1_555 1_555
C1_11 H1_11 1_555 1_555
C2_11 C1_11 1_555 1_555
C3_11 H2_11 1_555 1_555
C4_11 C1_11 1_555 1_555
C5_11 O4_11 1_555 1_555
C6_11 C7_11 1_555 1_555
C7_11 C3_11 1_555 1_555
C8_11 C6_11 1_555 1_555
H3_11 C8_11 1_555 1_555
C9_11 C2_11 1_555 1_555
H4_11 C9_11 1_555 1_555
C10_11 H5_11 1_555 1_555
C11_11 C6_11 1_555 1_555
H6_11 C11_11 1_555 1_555
C12_11 C4_11 1_555 1_555
C15_11 C8_11 1_555 1_555
H9_11 C15_11 1_555 1_555
C16_11 C11_11 1_555 1_555
H10_11 C16_11 1_555 1_555
C19_11 C15_11 1_555 1_555
C20_11 C19_11 1_555 1_555
Sc8_4 O1_11 1_555 1_555
O10_11 C41_21 1_555 1_555
O11_11 C26_21 1_555 1_555
O12_21 Sc8_4 1_555 1_555
O14_21 Sc8_4 1_555 1_555
O15_6 C41_21 1_555 1_555
C22_21 H12_21 1_555 1_555
C23_21 C22_21 1_555 1_555
C24_21 H13_21 1_555 1_555
C25_21 C22_21 1_555 1_555
C26_21 O12_21 1_555 1_555
C27_21 C28_21 1_555 1_555
C28_21 C24_21 1_555 1_555
C29_21 C27_21 1_555 1_555
H14_21 C29_21 1_555 1_555
C30_21 C23_21 1_555 1_555
H15_21 C30_21 1_555 1_555
C31_21 H16_21 1_555 1_555
C32_21 C27_21 1_555 1_555
H17_21 C32_21 1_555 1_555
C33_21 C25_21 1_555 1_555
C36_21 C29_21 1_555 1_555
H20_21 C36_21 1_555 1_555
C37_21 C32_21 1_555 1_555
H21_21 C37_21 1_555 1_555
C40_21 C36_21 1_555 1_555
C41_21 C40_21 1_555 1_555
Sc8_3 O10_11 1_555 1_555
Sc7_5 O11_11 1_555 1_555
Sc8_10 O2_6 1_555 1_555
Sc12_4 O7_6 1_555 1_555
O17_11 Sc7_2 1_555 1_555
O18_11 Sc8_4 1_555 1_555
O19_6 Sc7_2 1_555 1_555
O20_13 Sc8_4 1_555 1_555
C2_11 C5_11 1_555 1_555
C3_11 C4_11 1_555 1_555
C7_11 C9_11 1_555 1_555
C10_11 C12_11 1_555 1_555
C16_11 C19_11 1_555 1_555
C23_21 C26_21 1_555 1_555
C24_21 C25_21 1_555 1_555
C28_21 C30_21 1_555 1_555
C31_21 C33_21 1_555 1_555
C37_21 C40_21 1_555 1_555
Sc7_5 O20_13 1_555 1_555
Sc12_4 O20_13 1_555 1_555
O21_6 C21_11 1_555 1_555
O26_8 C21_11 1_555 1_555
H7_11 C13_11 1_555 1_555
C14_11 C13_11 1_555 1_555
H8_11 C14_11 1_555 1_555
C17_11 C14_11 1_555 1_555
H11_11 C18_11 1_555 1_555
C21_11 C17_11 1_555 1_555
O26_9 C42_21 1_555 1_555
H18_21 C34_21 1_555 1_555
C35_21 C34_21 1_555 1_555
H19_21 C35_21 1_555 1_555
C38_21 C35_21 1_555 1_555
H22_21 C39_21 1_555 1_555
C42_21 C38_21 1_555 1_555
C17_11 C18_11 1_555 1_555
C38_21 C39_21 1_555 1_555
O8_20 Sc11_2 1_555 1_555
O24_16 Sc11_2 1_555 1_555
O8_21 Sc12_4 1_555 1_555
O17_11 C41_22 1_555 1_555
O11_12 C26_22 1_555 1_555
O12_22 Sc8_3 1_555 1_555
O14_22 Sc8_3 1_555 1_555
O23_6 C41_22 1_555 1_555
C22_22 H12_22 1_555 1_555
C23_22 C22_22 1_555 1_555
C24_22 H13_22 1_555 1_555
C25_22 C22_22 1_555 1_555
C26_22 O12_22 1_555 1_555
C27_22 C28_22 1_555 1_555
C28_22 C24_22 1_555 1_555
C29_22 C27_22 1_555 1_555
H14_22 C29_22 1_555 1_555
C30_22 C23_22 1_555 1_555
H15_22 C30_22 1_555 1_555
C31_22 H16_22 1_555 1_555
C32_22 C27_22 1_555 1_555
H17_22 C32_22 1_555 1_555
C33_22 C25_22 1_555 1_555
C36_22 C29_22 1_555 1_555
H20_22 C36_22 1_555 1_555
C37_22 C32_22 1_555 1_555
H21_22 C37_22 1_555 1_555
C40_22 C36_22 1_555 1_555
C41_22 C40_22 1_555 1_555
Sc8_9 O11_12 1_555 1_555
O18_12 Sc8_3 1_555 1_555
O20_14 Sc8_3 1_555 1_555
O24_17 Sc12_4 1_555 1_555
C23_22 C26_22 1_555 1_555
C24_22 C25_22 1_555 1_555
C28_22 C30_22 1_555 1_555
C31_22 C33_22 1_555 1_555
C37_22 C40_22 1_555 1_555
Sc8_9 O20_14 1_555 1_555
O26_7 C42_22 1_555 1_555
H18_22 C34_22 1_555 1_555
C35_22 C34_22 1_555 1_555
H19_22 C35_22 1_555 1_555
C38_22 C35_22 1_555 1_555
H22_22 C39_22 1_555 1_555
C42_22 C38_22 1_555 1_555
C38_22 C39_22 1_555 1_555
O8_22 Sc12_3 1_555 1_555
O24_18 Sc12_3 1_555 1_555
O10_12 C41_23 1_555 1_555
O19_6 C26_23 1_555 1_555
O12_23 Sc8_10 1_555 1_555
O22_2 C42_23 1_555 1_555
O14_23 Sc8_10 1_555 1_555
O24_18 C41_23 1_555 1_555
C22_23 H12_23 1_555 1_555
C23_23 C22_23 1_555 1_555
O25_3 C42_23 1_555 1_555
C24_23 H13_23 1_555 1_555
C25_23 C22_23 1_555 1_555
C26_23 O12_23 1_555 1_555
C27_23 C28_23 1_555 1_555
C28_23 C24_23 1_555 1_555
C29_23 C27_23 1_555 1_555
H14_23 C29_23 1_555 1_555
C30_23 C23_23 1_555 1_555
H15_23 C30_23 1_555 1_555
C31_23 H16_23 1_555 1_555
C32_23 C27_23 1_555 1_555
H17_23 C32_23 1_555 1_555
C33_23 C25_23 1_555 1_555
C34_23 C33_23 1_555 1_555
H18_23 C34_23 1_555 1_555
C35_23 C34_23 1_555 1_555
H19_23 C35_23 1_555 1_555
C36_23 C29_23 1_555 1_555
H20_23 C36_23 1_555 1_555
C37_23 C32_23 1_555 1_555
H21_23 C37_23 1_555 1_555
C38_23 C35_23 1_555 1_555
C39_23 C31_23 1_555 1_555
H22_23 C39_23 1_555 1_555
C40_23 C36_23 1_555 1_555
C41_23 C40_23 1_555 1_555
C42_23 C38_23 1_555 1_555
C23_23 C26_23 1_555 1_555
C24_23 C25_23 1_555 1_555
C28_23 C30_23 1_555 1_555
C31_23 C33_23 1_555 1_555
C37_23 C40_23 1_555 1_555
C38_23 C39_23 1_555 1_555
O1_12 C20_12 1_555 1_555
O24_16 C20_12 1_555 1_555
C8_12 C6_12 1_555 1_555
H3_12 C8_12 1_555 1_555
C11_12 C6_12 1_555 1_555
H6_12 C11_12 1_555 1_555
C15_12 C8_12 1_555 1_555
H9_12 C15_12 1_555 1_555
C16_12 C11_12 1_555 1_555
H10_12 C16_12 1_555 1_555
C19_12 C15_12 1_555 1_555
C20_12 C19_12 1_555 1_555
C16_12 C19_12 1_555 1_555
O18_11 C5_12 1_555 1_555
O4_12 Sc7_5 1_555 1_555
O21 C21_12 1_555 1_555
O6_12 Sc7_5 1_555 1_555
C1_12 H1_12 1_555 1_555
C2_12 C1_12 1_555 1_555
O25 C21_12 1_555 1_555
C4_12 C1_12 1_555 1_555
C5_12 O4_12 1_555 1_555
C7_12 C3_12 1_555 1_555
C9_12 C2_12 1_555 1_555
H4_12 C9_12 1_555 1_555
C10_12 H5_12 1_555 1_555
C12_12 C4_12 1_555 1_555
C13_12 C12_12 1_555 1_555
H7_12 C13_12 1_555 1_555
C14_12 C13_12 1_555 1_555
H8_12 C14_12 1_555 1_555
C17_12 C14_12 1_555 1_555
C18_12 C10_12 1_555 1_555
H11_12 C18_12 1_555 1_555
C21_12 C17_12 1_555 1_555
O17_12 Sc7_5 1_555 1_555
C2_12 C5_12 1_555 1_555
C3_12 C4_12 1_555 1_555
C7_12 C9_12 1_555 1_555
C10_12 C12_12 1_555 1_555
C17_12 C18_12 1_555 1_555
O18_12 C26_24 1_555 1_555
O12_24 Sc8_9 1_555 1_555
O22 C42_24 1_555 1_555
O14_24 Sc8_9 1_555 1_555
C22_24 H12_24 1_555 1_555
C23_24 C22_24 1_555 1_555
O25_2 C42_24 1_555 1_555
C25_24 C22_24 1_555 1_555
C26_24 O12_24 1_555 1_555
C28_24 C24_24 1_555 1_555
C30_24 C23_24 1_555 1_555
H15_24 C30_24 1_555 1_555
C31_24 H16_24 1_555 1_555
C33_24 C25_24 1_555 1_555
C34_24 C33_24 1_555 1_555
H18_24 C34_24 1_555 1_555
C35_24 C34_24 1_555 1_555
H19_24 C35_24 1_555 1_555
C38_24 C35_24 1_555 1_555
C39_24 C31_24 1_555 1_555
H22_24 C39_24 1_555 1_555
C42_24 C38_24 1_555 1_555
C23_24 C26_24 1_555 1_555
C24_24 C25_24 1_555 1_555
C28_24 C30_24 1_555 1_555
C31_24 C33_24 1_555 1_555
C38_24 C39_24 1_555 1_555
O17_12 C41_24 1_555 1_555
O24_17 C41_24 1_555 1_555
C29_24 C27_24 1_555 1_555
H14_24 C29_24 1_555 1_555
C32_24 C27_24 1_555 1_555
H17_24 C32_24 1_555 1_555
C36_24 C29_24 1_555 1_555
H20_24 C36_24 1_555 1_555
C37_24 C32_24 1_555 1_555
H21_24 C37_24 1_555 1_555
C40_24 C36_24 1_555 1_555
C41_24 C40_24 1_555 1_555
C37_24 C40_24 1_555 1_555

#END
