
###############################################################################
#
# This file contains modified crystal structure data generated from the
# MOF subset of the Cambridge Structural Database (CSD) v543 
# hosted by the Cambridge Crystallographic Data Centre (CCDC).
#
# This work is licensed under the Creative Commons
# Attribution-NonCommercial-ShareAlike 4.0 International License.
# To view a copy of this license, visit
# http://creativecommons.org/licenses/by-nc-sa/4.0/
# or send a letter to
# Creative Commons, PO Box 1866, Mountain View, CA 94042, USA.
#
# CIF created using the CSD Python API on 29 September 2022
# The structure has been converted into the P1 space group
# The structure has a 3D framework
# The original CSD entry VATVIY is in the monoclinic crystal system
# The original CSD entry VATVIY is in a Sohncke space group
# The framework has been calculated to contain at least 10.0% void space
# The void calculation uses a probe of radius 1.32A, grid spacing 0.4
# H atom positions have been added when not included in the experimental data
#
###############################################################################

data_VATVIY
_chemical_formula_moiety         '(C148 H128 Cd8 N32 O40)n'
_symmetry_cell_setting           triclinic
_symmetry_space_group_name_H-M   'P 1'
_symmetry_Int_Tables_number      1
_space_group_name_Hall           'P 1'
loop_
_symmetry_equiv_pos_site_id
_symmetry_equiv_pos_as_xyz
1 x,y,z
_cell_length_a                   12.7050(3)
_cell_length_b                   24.2253(6)
_cell_length_c                   15.0542(3)
_cell_angle_alpha                90
_cell_angle_beta                 92.802(2)
_cell_angle_gamma                90
_cell_volume                     4627.88
loop_
_atom_site_label
_atom_site_type_symbol
_atom_site_fract_x
_atom_site_fract_y
_atom_site_fract_z
Cd7 Cd 0.03730(3) 0.40468(2) 0.94574(2)
N3 N 0.1708(5) 0.3436(3) 0.9449(4)
N5 N 0.3536(4) 0.3458(3) 0.4688(4)
N9 N 0.2480(4) 0.2629(3) 0.9262(3)
C10 C 0.2509(5) 0.3563(3) 0.4607(6)
H4 H 0.2214 0.3906 0.4724
C12 C 0.2746(5) 0.3474(3) 0.9713(5)
H6 H 0.3070 0.3792 0.9939
N11 N 0.1761(4) 0.0510(2) 0.3280(4)
C18 C 0.1994(5) 0.1067(3) 0.3525(4)
C19 C 0.1770(5) 0.1719(3) 0.8991(4)
H9 H 0.1130 0.1850 0.9180
C22 C 0.1948(6) 0.3124(3) 0.4341(7)
H12 H 0.1221 0.3105 0.4237
C23 C 0.0844(5) 0.0245(3) 0.3404(5)
H13 H 0.0266 0.0411 0.3648
C26 C 0.3844(5) 0.0144(3) 0.8132(5)
H15 H 0.4499 0.0281 0.8327
C31 C 0.3225(5) 0.1810(3) 0.3717(5)
H18 H 0.3903 0.1946 0.3660
C33 C 0.1431(6) 0.1954(3) 0.4020(6)
H19 H 0.0895 0.2185 0.4198
N13 N 0.2944(4) 0.0432(2) 0.8148(4)
N15 N 0.2658(4) 0.2704(2) 0.4250(4)
C35 C 0.2825(5) 0.0986(3) 0.8434(4)
C38 C 0.2182(6) 0.0078(3) 0.7808(5)
H24 H 0.1467 0.0154 0.7724
C39 C 0.2383(6) 0.0143(3) 0.2889(5)
H25 H 0.3056 0.0208 0.2696
C41 C 0.3561(5) 0.1881(3) 0.8737(5)
H27 H 0.4135 0.2120 0.8745
C47 C 0.3004(5) 0.1271(3) 0.3522(5)
H31 H 0.3550 0.1036 0.3384
C52 C 0.3597(5) 0.2940(3) 0.4471(5)
H36 H 0.4232 0.2748 0.4467
C53 C 0.2608(5) 0.2065(3) 0.8985(4)
C56 C 0.3675(5) 0.1340(3) 0.8473(5)
H39 H 0.4332 0.1213 0.8319
C57 C 0.1852(5) 0.1173(3) 0.8721(5)
H40 H 0.1275 0.0937 0.8729
C62 C 0.1572(5) 0.2927(3) 0.9185(5)
H46 H 0.0930 0.2785 0.8969
C63 C 0.2436(5) 0.2151(3) 0.4000(4)
C67 C 0.1211(5) 0.1430(4) 0.3786(6)
H50 H 0.0520 0.1305 0.3798
C71 C 0.7043(7) 0.0095(4) 0.6491(6)
H56 H 0.7413 0.0323 0.6924
H57 H 0.6659 0.0324 0.6068
C73 C 0.3232(5) 0.2994(3) 0.9605(5)
H60 H 0.3940 0.2919 0.9735
Cd10 Cd 0.48854(3) 0.40574(2) 0.49110(3)
Cd3 Cd 0.49720(3) 0.899167(19) 0.78125(3)
Cd4 Cd 0.51146(3) 0.90574(2) 0.50890(3)
N1 N 0.0854(5) 0.9727(3) 0.3142(4)
N2 N 0.6350(5) 0.8388(3) 0.7897(4)
O1 O 0.0729(5) 0.8370(2) 0.3027(4)
O2 O 0.4001(4) 0.8347(2) 0.5429(4)
O3 O 0.6233(4) 0.9740(2) 0.7790(4)
O5 O 0.0421(4) 0.8554(2) 0.9426(3)
O6 O 0.0087(3) 0.8922(2) 0.4735(3)
N6 N 0.9037(4) 0.4659(2) 0.9429(4)
C1 C 0.6286(5) 0.9726(3) 0.6950(5)
N7 N 0.3691(4) 0.9648(2) 0.7809(4)
C3 C 0.3027(5) 0.8115(3) 0.1420(4)
O9 O 0.5734(3) 0.9398(2) 0.6484(3)
N10 N 0.8181(4) 0.5445(2) 0.9246(4)
O10 O 0.6241(3) 0.9698(2) 0.4343(3)
C5 C 0.9078(5) 0.5170(3) 0.9184(5)
H1 H 0.9685 0.5331 0.8981
C6 C 0.4702(4) 0.9037(4) 0.2912(4)
O12 O 0.2254(4) 0.7710(2) 0.1461(3)
C8 C 0.1143(5) 0.8447(3) 0.6194(4)
H3 H 0.1367 0.8353 0.5635
C13 C 0.6694(5) 0.6738(3) 0.8770(6)
H7 H 0.6005 0.6868 0.8759
C14 C 0.0464(4) 0.8706(3) 0.7852(4)
O13 O 0.5278(4) 0.9457(2) 0.2821(3)
C16 C 0.1532(5) 0.8166(3) 0.6931(4)
C17 C 0.0086(4) 0.9011(4) 0.7116(3)
C21 C 0.1606(5) 0.7705(3) 0.2224(4)
H11 H 0.2059 0.7681 0.2768
N12 N 0.7238(4) 0.7633(2) 0.8268(4)
C25 C 0.3662(5) 0.8233(3) 0.6173(5)
C27 C 0.7949(5) 0.5998(3) 0.9015(4)
C29 C 0.4146(5) 0.8621(3) 0.0511(4)
C30 C 0.2908(5) 0.7727(3) 0.6167(4)
H17 H 0.2473 0.7726 0.5611
C32 C 0.0101(5) 0.8855(3) 0.8773(4)
O17 O 0.2247(3) 0.77299(19) 0.6891(3)
O18 O 0.4545(3) 0.8816(2) 0.3651(3)
C36 C 0.3442(5) 0.8393(3) 0.2169(4)
H20 H 0.3190 0.8316 0.2725
C37 C 0.0933(5) 0.7196(3) 0.2143(5)
H21 H 0.1376 0.6876 0.2124
H22 H 0.0493 0.7216 0.1607
H23 H 0.0499 0.7172 0.2646
C40 C 0.1183(5) 0.8291(3) 0.7776(4)
H26 H 0.1434 0.8096 0.8274
C42 C 0.0412(5) 0.8876(3) 0.6276(4)
O19 O 0.3874(4) 0.8452(2) 0.6896(3)
C43 C 0.4226(4) 0.8781(3) 0.2086(4)
C44 C 0.4576(4) 0.8902(3) 0.1252(4)
H28 H 0.5093 0.9168 0.1186
C45 C 0.6288(5) 0.7856(3) 0.8102(4)
H29 H 0.5658 0.7662 0.8128
C49 C 0.8504(6) 0.6889(3) 0.8512(6)
H33 H 0.9045 0.7118 0.8339
C50 C 0.3355(5) 0.8235(3) 0.0594(4)
H34 H 0.3052 0.8061 0.0094
C54 C 0.7971(6) 0.8050(3) 0.8181(6)
H37 H 0.8698 0.8019 0.8266
C55 C 0.8084(6) 0.4590(3) 0.9706(6)
H38 H 0.7828 0.4263 0.9935
C58 C 0.3542(7) 0.7205(3) 0.6226(6)
H41 H 0.3075 0.6893 0.6210
H42 H 0.3963 0.7202 0.6773
H43 H 0.3993 0.7186 0.5734
C59 C 0.7416(6) 0.8516(4) 0.7948(6)
H44 H 0.7704 0.8861 0.7842
C60 C 0.6921(6) 0.6201(3) 0.9034(6)
H45 H 0.6385 0.5975 0.9225
C61 C 0.7499(5) 0.7079(3) 0.8523(4)
C64 C 0.8707(5) 0.6344(3) 0.8765(6)
H47 H 0.9396 0.6215 0.8762
C65 C 0.7528(6) 0.5062(4) 0.9613(6)
H48 H 0.6836 0.5119 0.9767
C69 C 0.2654(5) 0.9611(3) 0.7621(5)
H54 H 0.2313 0.9299 0.7390
H58 H 0.7539 0.9872 0.6190
C72 C 0.1846(5) 0.9660(3) 0.2828(5)
H59 H 0.2108 0.9332 0.2608
O20 O 0.0616(4) 0.8429(2) 0.1540(4)
C74 C 0.0921(4) 0.8220(3) 0.2259(4)
N18 N 0.3816(5) 0.9691(3) 0.5251(4)
N19 N 0.6464(4) 0.8458(3) 0.5312(4)
N20 N 0.0963(4) 0.9659(2) 0.0571(4)
O22 O 0.4216(4) 0.8460(3) 0.8957(3)
O23 O 0.5090(4) 0.9176(3) 0.9493(3)
H61 H 0.582735 0.988579 0.385456
H62 H 0.652131 0.997729 0.47756
C15 C 0.4524(6) 0.8770(4) 0.9597(4)
Cd5 Cd 0.96270(3) 0.90468(2) 0.05426(2)
Cd2 Cd 0.95768(3) 0.90977(2) 0.32649(3)
N4 N 0.6184(5) 0.4691(3) 0.4749(4)
O4 O 0.8368(4) 0.9784(2) 0.0607(4)
N8 N 0.8253(4) 0.8465(2) 0.3151(4)
C2 C 0.8337(5) 0.9765(3) 0.1444(5)
O8 O 0.8454(3) 0.9787(2) 0.4029(3)
C4 C 0.9977(4) 0.9161(3) 0.5455(4)
C7 C 0.7263(6) 0.8505(3) 0.2800(5)
H2 H 0.6962 0.8818 0.2536
C9 C 0.7349(5) 0.7105(3) 0.3554(5)
C11 C 0.8173(5) 0.6742(3) 0.3577(5)
H5 H 0.8834 0.6861 0.3420
O14 O 0.8908(3) 0.9435(2) 0.1894(3)
H8 H 0.9620 0.9302 0.7188
C20 C 0.6070(5) 0.5198(3) 0.4463(5)
H10 H 0.5415 0.5360 0.4341
O15 O 0.9512(4) 0.9614(2) 0.5546(3)
C24 C 0.7245(5) 0.4619(3) 0.4867(5)
H14 H 0.7585 0.4302 0.5078
C28 C 0.8034(6) 0.6194(3) 0.3832(5)
H16 H 0.8600 0.5951 0.3830
O16 O 0.9519(4) 0.9260(2) 0.8875(3)
N14 N 0.7477(4) 0.7658(2) 0.3311(4)
C34 C 0.7090(5) 0.6011(3) 0.4081(4)
N16 N 0.6951(4) 0.5452(2) 0.4365(4)
C46 C 0.6388(5) 0.6922(3) 0.3798(5)
H30 H 0.5820 0.7164 0.3808
C48 C 0.7718(5) 0.5095(3) 0.4622(5)
H32 H 0.8440 0.5162 0.4631
C51 C 0.6768(6) 0.8006(3) 0.2899(5)
H35 H 0.6077 0.7921 0.2717
C66 C 0.6265(5) 0.6367(3) 0.4033(5)
H49 H 0.5599 0.6239 0.4160
H53 H 0.7089 0.9902 0.2203
C70 C 0.8369(6) 0.7963(3) 0.3468(5)
H55 H 0.8980 0.7831 0.3761
N17 N 0.8292(5) 0.8436(3) 0.0551(4)
H64 H 0.777872 0.961096 0.417671
O24 O 0.0481(4) 0.4260(2) 0.1125(3)
Cd2_2 Cd 0.04232(3) 0.40977(2) 0.67351(3)
O4_2 O 0.1632(4) 0.4784(2) 0.9393(4)
N8_2 N 0.1747(4) 0.3465(2) 0.6849(4)
C2_2 C 0.1663(5) 0.4765(3) 0.8556(5)
O8_2 O 0.1546(3) 0.4787(2) 0.5971(3)
C4_2 C 0.0023(4) 0.4161(3) 0.4545(4)
C7_2 C 0.2737(6) 0.3505(3) 0.7200(5)
H2_2 H 0.3038 0.3818 0.7464
C9_2 C 0.2651(5) 0.2105(3) 0.6446(5)
C11_2 C 0.1827(5) 0.1742(3) 0.6423(5)
H5_2 H 0.1166 0.1861 0.6580
O14_2 O 0.1092(3) 0.4435(2) 0.8106(3)
H8_2 H 0.0380 0.4302 0.2812
C20_2 C 0.3930(5) 0.0198(3) 0.5537(5)
H10_2 H 0.4585 0.0360 0.5659
O15_2 O 0.0488(4) 0.4614(2) 0.4454(3)
C28_2 C 0.1966(6) 0.1194(3) 0.6168(5)
H16_2 H 0.1400 0.0951 0.6170
N14_2 N 0.2523(4) 0.2658(2) 0.6689(4)
C34_2 C 0.2910(5) 0.1011(3) 0.5919(4)
N16_2 N 0.3049(4) 0.0452(2) 0.5635(4)
C46_2 C 0.3612(5) 0.1922(3) 0.6202(5)
H30_2 H 0.4180 0.2164 0.6192
C48_2 C 0.2282(5) 0.0095(3) 0.5378(5)
H32_2 H 0.1560 0.0162 0.5369
C51_2 C 0.3232(6) 0.3006(3) 0.7101(5)
H35_2 H 0.3923 0.2921 0.7283
C66_2 C 0.3735(5) 0.1367(3) 0.5967(5)
H49_2 H 0.4401 0.1239 0.5840
C68 C 0.2421(7) 0.5127(4) 0.8101(6)
H51 H 0.2799 0.5352 0.8535
H52 H 0.2042 0.5360 0.7680
H53_2 H 0.2911 0.4902 0.7797
C70_2 C 0.1631(6) 0.2963(3) 0.6532(5)
H55_2 H 0.1020 0.2831 0.6239
H63 H 0.169166 0.510651 0.637154
H64_2 H 0.222128 0.461096 0.582329
C24_2 C 0.2755(5) 0.9619(3) 0.5133(5)
H14_2 H 0.2415 0.9302 0.4922
O7 O 0.5784(4) 0.3460(3) 0.1043(3)
O11 O 0.4910(4) 0.4176(3) 0.0507(3)
C15_2 C 0.5476(6) 0.3770(4) 0.0403(4)
Cd8 Cd 0.50280(3) 0.399167(19) 0.21875(3)
O21 O 0.9579(4) 0.3554(2) 0.0574(3)
N1_2 N 0.9146(5) 0.4727(3) 0.6858(4)
N2_2 N 0.3650(5) 0.3388(3) 0.2103(4)
O1_2 O 0.9271(5) 0.3370(2) 0.6973(4)
O2_2 O 0.5999(4) 0.3347(2) 0.4571(4)
O3_2 O 0.3767(4) 0.4740(2) 0.2210(4)
O6_2 O 0.9913(3) 0.3922(2) 0.5265(3)
C1_2 C 0.3714(5) 0.4726(3) 0.3050(5)
N7_2 N 0.6309(4) 0.4648(2) 0.2191(4)
N9_2 N 0.7520(4) 0.7629(3) 0.0738(3)
C3_2 C 0.6973(5) 0.3115(3) 0.8580(4)
O9_2 O 0.4266(3) 0.4398(2) 0.3516(3)
N10_2 N 0.1819(4) 0.0445(2) 0.0754(4)
O10_2 O 0.3759(3) 0.4698(2) 0.5657(3)
C5_2 C 0.0922(5) 0.0170(3) 0.0816(5)
H1_2 H 0.0315 0.0331 0.1019
C6_2 C 0.5298(4) 0.4037(4) 0.7088(4)
O12_2 O 0.7746(4) 0.2710(2) 0.8539(3)
C8_2 C 0.8857(5) 0.3447(3) 0.3806(4)
H3_2 H 0.8633 0.3353 0.4365
C10_2 C 0.7491(5) 0.8563(3) 0.5393(6)
H4_2 H 0.7786 0.8906 0.5276
C12_2 C 0.7254(5) 0.8474(3) 0.0287(5)
H6_2 H 0.6930 0.8792 0.0061
N11_2 N 0.8239(4) 0.5510(2) 0.6720(4)
C13_2 C 0.3306(5) 0.1738(3) 0.1230(6)
H7_2 H 0.3995 0.1868 0.1241
C14_2 C 0.9536(4) 0.3706(3) 0.2148(4)
O13_2 O 0.4722(4) 0.4457(2) 0.7179(3)
C16_2 C 0.8468(5) 0.3166(3) 0.3069(4)
C17_2 C 0.9914(4) 0.4011(4) 0.2884(3)
C18_2 C 0.8006(5) 0.6067(3) 0.6475(4)
C19_2 C 0.8230(5) 0.6719(3) 0.1009(4)
H9_2 H 0.8870 0.6850 0.0820
C21_2 C 0.8394(5) 0.2705(3) 0.7776(4)
H11_2 H 0.7941 0.2681 0.7232
C22_2 C 0.8052(6) 0.8124(3) 0.5659(7)
H12_2 H 0.8779 0.8105 0.5763
C23_2 C 0.9156(5) 0.5245(3) 0.6596(5)
H13_2 H 0.9734 0.5411 0.6352
N12_2 N 0.2762(4) 0.2633(2) 0.1732(4)
C25_2 C 0.6338(5) 0.3233(3) 0.3827(5)
C26_2 C 0.6156(5) 0.5144(3) 0.1868(5)
H15_2 H 0.5501 0.5281 0.1673
C27_2 C 0.2051(5) 0.0998(3) 0.0985(4)
C29_2 C 0.5854(5) 0.3621(3) 0.9489(4)
C30_2 C 0.7092(5) 0.2727(3) 0.3833(4)
H17_2 H 0.7527 0.2726 0.4389
C31_2 C 0.6775(5) 0.6810(3) 0.6283(5)
H18_2 H 0.6097 0.6946 0.6340
C32_2 C 0.9899(5) 0.3855(3) 0.1227(4)
C33_2 C 0.8569(6) 0.6954(3) 0.5980(6)
H19_2 H 0.9105 0.7185 0.5802
O17_2 O 0.7753(3) 0.27299(19) 0.3109(3)
N13_2 N 0.7056(4) 0.5432(2) 0.1852(4)
O18_2 O 0.5455(3) 0.3816(2) 0.6349(3)
N15_2 N 0.7342(4) 0.7704(2) 0.5750(4)
C35_2 C 0.7175(5) 0.5986(3) 0.1566(4)
C36_2 C 0.6558(5) 0.3393(3) 0.7831(4)
H20_2 H 0.6810 0.3316 0.7275
C37_2 C 0.9067(5) 0.2196(3) 0.7857(5)
H21_2 H 0.8624 0.1876 0.7876
H22_2 H 0.9507 0.2216 0.8393
H23_2 H 0.9501 0.2172 0.7354
C38_2 C 0.7818(6) 0.5078(3) 0.2192(5)
H24_2 H 0.8533 0.5154 0.2276
C39_2 C 0.7617(6) 0.5143(3) 0.7111(5)
H25_2 H 0.6944 0.5208 0.7304
C40_2 C 0.8817(5) 0.3291(3) 0.2224(4)
H26_2 H 0.8566 0.3096 0.1726
C41_2 C 0.6439(5) 0.6881(3) 0.1263(5)
H27_2 H 0.5865 0.7120 0.1255
C42_2 C 0.9588(5) 0.3876(3) 0.3724(4)
O19_2 O 0.6126(4) 0.3452(2) 0.3104(3)
C43_2 C 0.5774(4) 0.3781(3) 0.7914(4)
C44_2 C 0.5424(4) 0.3902(3) 0.8748(4)
H28_2 H 0.4907 0.4168 0.8814
C45_2 C 0.3712(5) 0.2856(3) 0.1898(4)
H29_2 H 0.4342 0.2662 0.1872
C47_2 C 0.6996(5) 0.6271(3) 0.6478(5)
H31_2 H 0.6450 0.6036 0.6616
C49_2 C 0.1496(6) 0.1889(3) 0.1488(6)
H33_2 H 0.0955 0.2118 0.1661
C50_2 C 0.6645(5) 0.3235(3) 0.9406(4)
H34_2 H 0.6948 0.3061 0.9906
C52_2 C 0.6403(5) 0.7940(3) 0.5529(5)
H36_2 H 0.5768 0.7748 0.5533
C53_2 C 0.7392(5) 0.7065(3) 0.1015(4)
C54_2 C 0.2029(6) 0.3050(3) 0.1819(6)
H37_2 H 0.1302 0.3019 0.1734
C56_2 C 0.6325(5) 0.6340(3) 0.1527(5)
H39_2 H 0.5668 0.6213 0.1681
C57_2 C 0.8148(5) 0.6173(3) 0.1279(5)
H40_2 H 0.8725 0.5937 0.1271
C58_2 C 0.6458(7) 0.2205(3) 0.3774(6)
H41_2 H 0.6925 0.1893 0.3790
H42_2 H 0.6037 0.2202 0.3227
H43_2 H 0.6007 0.2186 0.4266
C59_2 C 0.2584(6) 0.3516(4) 0.2052(6)
H44_2 H 0.2296 0.3861 0.2158
C60_2 C 0.3079(6) 0.1201(3) 0.0966(6)
H45_2 H 0.3615 0.0975 0.0775
C61_2 C 0.2501(5) 0.2079(3) 0.1477(4)
C62_2 C 0.8428(5) 0.7927(3) 0.0815(5)
H46_2 H 0.9070 0.7785 0.1031
C63_2 C 0.7564(5) 0.7151(3) 0.6000(4)
C64_2 C 0.1293(5) 0.1344(3) 0.1235(6)
H47_2 H 0.0604 0.1215 0.1238
C65_2 C 0.2472(6) 0.0062(4) 0.0387(6)
H48_2 H 0.3164 0.0119 0.0233
C67_2 C 0.8789(5) 0.6430(4) 0.6214(6)
H50_2 H 0.9480 0.6305 0.6202
C69_2 C 0.7346(5) 0.4611(3) 0.2379(5)
H54_2 H 0.7687 0.4299 0.2610
C71_2 C 0.2957(7) 0.5095(4) 0.3509(6)
H56_2 H 0.2587 0.5323 0.3076
H57_2 H 0.3341 0.5324 0.3932
H58_2 H 0.2461 0.4872 0.3810
C72_2 C 0.8154(5) 0.4660(3) 0.7172(5)
H59_2 H 0.7892 0.4332 0.7392
C73_2 C 0.6768(5) 0.7994(3) 0.0395(5)
H60_2 H 0.6060 0.7919 0.0265
O20_2 O 0.9384(4) 0.3429(2) 0.8460(4)
C74_2 C 0.9079(4) 0.3220(3) 0.7741(4)
H61_2 H 0.417265 0.488579 0.614544
H62_2 H 0.347869 0.497729 0.52244
C55_2 C 0.1916(6) 0.9590(3) 0.0294(6)
H38_2 H 0.2172 0.9263 0.0065
C68_2 C 0.7579(7) 0.0127(4) 0.1899(6)
H51_2 H 0.7201 0.0352 0.1465
H52_2 H 0.7958 0.0360 0.2320
H63_2 H 0.830834 0.0106512 0.362846
loop_
_geom_bond_atom_site_label_1
_geom_bond_atom_site_label_2
_geom_bond_site_symmetry_1
_geom_bond_site_symmetry_2
N3 C12 1_555 1_555
N5 C10 1_555 1_555
N9 C53 1_555 1_555
C10 H4 1_555 1_555
C12 H6 1_555 1_555
N11 C18 1_555 1_555
C18 C47 1_555 1_555
C19 H9 1_555 1_555
C22 C10 1_555 1_555
H12 C22 1_555 1_555
C23 N11 1_555 1_555
H13 C23 1_555 1_555
H15 C26 1_555 1_555
C31 H18 1_555 1_555
C33 H19 1_555 1_555
N13 C26 1_555 1_555
N15 C22 1_555 1_555
C35 N13 1_555 1_555
C38 N13 1_555 1_555
H24 C38 1_555 1_555
C39 N11 1_555 1_555
H25 C39 1_555 1_555
C41 H27 1_555 1_555
C47 C31 1_555 1_555
H31 C47 1_555 1_555
C52 N5 1_555 1_555
H36 C52 1_555 1_555
C53 C19 1_555 1_555
C56 C35 1_555 1_555
H39 C56 1_555 1_555
C57 C19 1_555 1_555
H40 C57 1_555 1_555
C62 N3 1_555 1_555
H46 C62 1_555 1_555
C63 C31 1_555 1_555
C67 C18 1_555 1_555
H50 C67 1_555 1_555
H56 C71 1_555 1_555
H57 C71 1_555 1_555
C73 N9 1_555 1_555
H60 C73 1_555 1_555
Cd7 N3 1_555 1_555
Cd10 N5 1_555 1_555
N9 C62 1_555 1_555
C12 C73 1_555 1_555
C33 C63 1_555 1_555
C33 C67 1_555 1_555
N15 C52 1_555 1_555
N15 C63 1_555 1_555
C35 C57 1_555 1_555
C41 C53 1_555 1_555
C41 C56 1_555 1_555
Cd3 N2 1_555 1_555
Cd4 O2 1_555 1_555
N2 C45 1_555 1_555
O2 C25 1_555 1_555
O3 Cd3 1_555 1_555
O5 C32 1_555 1_555
N6 C5 1_555 1_555
C1 O3 1_555 1_555
N7 Cd3 1_555 1_555
C3 O12 1_555 1_555
O9 Cd3 1_555 1_555
N10 C5 1_555 1_555
O10 Cd4 1_555 1_555
C5 H1 1_555 1_555
C6 O13 1_555 1_555
O12 C21 1_555 1_555
C8 H3 1_555 1_555
C13 H7 1_555 1_555
C14 C17 1_555 1_555
C16 C8 1_555 1_555
C21 H11 1_555 1_555
N12 C45 1_555 1_555
C25 C30 1_555 1_555
C27 N10 1_555 1_555
C29 C44 1_555 1_555
C30 H17 1_555 1_555
C32 C14 1_555 1_555
O17 C16 1_555 1_555
O18 Cd4 1_555 1_555
C36 C3 1_555 1_555
H20 C36 1_555 1_555
C37 C21 1_555 1_555
H21 C37 1_555 1_555
H22 C37 1_555 1_555
H23 C37 1_555 1_555
C40 C14 1_555 1_555
H26 C40 1_555 1_555
O19 Cd3 1_555 1_555
C43 C6 1_555 1_555
C44 C43 1_555 1_555
H28 C44 1_555 1_555
C45 H29 1_555 1_555
C49 H33 1_555 1_555
C50 C3 1_555 1_555
H34 C50 1_555 1_555
C54 N12 1_555 1_555
H37 C54 1_555 1_555
C55 N6 1_555 1_555
H38 C55 1_555 1_555
C58 C30 1_555 1_555
H41 C58 1_555 1_555
H42 C58 1_555 1_555
H43 C58 1_555 1_555
C59 N2 1_555 1_555
H44 C59 1_555 1_555
C60 C13 1_555 1_555
H45 C60 1_555 1_555
C61 C13 1_555 1_555
C64 C27 1_555 1_555
H47 C64 1_555 1_555
C65 N10 1_555 1_555
H48 C65 1_555 1_555
C69 N7 1_555 1_555
H54 C69 1_555 1_555
C72 N1 1_555 1_555
H59 C72 1_555 1_555
C74 O1 1_555 1_555
N18 Cd4 1_555 1_555
N19 Cd4 1_555 1_555
O22 Cd3 1_555 1_555
O23 Cd3 1_555 1_555
Cd4 O9 1_555 1_555
C1 O9 1_555 1_555
C6 O18 1_555 1_555
C8 C42 1_555 1_555
C16 C40 1_555 1_555
C17 C42 1_555 1_555
C21 C74 1_555 1_555
N12 C61 1_555 1_555
C25 O19 1_555 1_555
C27 C60 1_555 1_555
C29 C50 1_555 1_555
C30 O17 1_555 1_555
C36 C43 1_555 1_555
C49 C61 1_555 1_555
C49 C64 1_555 1_555
C54 C59 1_555 1_555
C55 C65 1_555 1_555
O20 C74 1_555 1_555
O10 H61 1_555 1_555
O10 H62 1_555 1_555
O22 C15 1_555 1_555
O23 C15 1_555 1_555
Cd5 O4 1_555 1_555
N4 C20 1_555 1_555
O4 C2 1_555 1_555
N8 Cd2 1_555 1_555
C2 O14 1_555 1_555
O8 Cd2 1_555 1_555
C7 N8 1_555 1_555
H2 C7 1_555 1_555
C9 C11 1_555 1_555
C11 H5 1_555 1_555
O14 Cd5 1_555 1_555
C20 H10 1_555 1_555
O15 C4 1_555 1_555
C24 N4 1_555 1_555
H14 C24 1_555 1_555
C28 C11 1_555 1_555
H16 C28 1_555 1_555
N14 C9 1_555 1_555
C34 C28 1_555 1_555
N16 C20 1_555 1_555
C46 C9 1_555 1_555
H30 C46 1_555 1_555
C48 C24 1_555 1_555
H32 C48 1_555 1_555
C51 C7 1_555 1_555
H35 C51 1_555 1_555
C66 C34 1_555 1_555
H49 C66 1_555 1_555
C70 N8 1_555 1_555
H55 C70 1_555 1_555
Cd10 N4 1_555 1_555
N17 Cd5 1_555 1_555
Cd2 O14 1_555 1_555
N14 C51 1_555 1_555
N14 C70 1_555 1_555
C34 N16 1_555 1_555
N16 C48 1_555 1_555
C46 C66 1_555 1_555
O8 H64 1_555 1_555
Cd7 O4_2 1_555 1_555
O4_2 C2_2 1_555 1_555
N8_2 Cd2_2 1_555 1_555
C2_2 O14_2 1_555 1_555
O8_2 Cd2_2 1_555 1_555
C7_2 N8_2 1_555 1_555
H2_2 C7_2 1_555 1_555
C9_2 C11_2 1_555 1_555
C11_2 H5_2 1_555 1_555
O14_2 Cd7 1_555 1_555
C20_2 H10_2 1_555 1_555
O15_2 C4_2 1_555 1_555
C28_2 C11_2 1_555 1_555
H16_2 C28_2 1_555 1_555
N14_2 C9_2 1_555 1_555
C34_2 C28_2 1_555 1_555
N16_2 C20_2 1_555 1_555
C46_2 C9_2 1_555 1_555
H30_2 C46_2 1_555 1_555
H32_2 C48_2 1_555 1_555
C51_2 C7_2 1_555 1_555
H35_2 C51_2 1_555 1_555
C66_2 C34_2 1_555 1_555
H49_2 C66_2 1_555 1_555
C68 C2_2 1_555 1_555
H51 C68 1_555 1_555
H52 C68 1_555 1_555
H53_2 C68 1_555 1_555
C70_2 N8_2 1_555 1_555
H55_2 C70_2 1_555 1_555
Cd2_2 O14_2 1_555 1_555
N14_2 C51_2 1_555 1_555
N14_2 C70_2 1_555 1_555
C34_2 N16_2 1_555 1_555
N16_2 C48_2 1_555 1_555
C46_2 C66_2 1_555 1_555
O8_2 H63 1_555 1_555
O8_2 H64_2 1_555 1_555
C24_2 N18 1_555 1_555
H14_2 C24_2 1_555 1_555
O7 C15_2 1_555 1_555
O11 C15_2 1_555 1_555
Cd8 O7 1_555 1_555
O11 Cd8 1_555 1_555
Cd8 N2_2 1_555 1_555
Cd10 O2_2 1_555 1_555
N1_2 C23_2 1_555 1_555
N2_2 C45_2 1_555 1_555
N17 C12_2 1_555 1_555
O2_2 C25_2 1_555 1_555
O3_2 Cd8 1_555 1_555
N19 C10_2 1_555 1_555
O21 C32_2 1_555 1_555
C1_2 O3_2 1_555 1_555
N7_2 Cd8 1_555 1_555
N9_2 C53_2 1_555 1_555
C3_2 O12_2 1_555 1_555
O9_2 Cd8 1_555 1_555
N10_2 C5_2 1_555 1_555
O10_2 Cd10 1_555 1_555
C5_2 H1_2 1_555 1_555
C6_2 O13_2 1_555 1_555
O12_2 C21_2 1_555 1_555
C8_2 H3_2 1_555 1_555
C10_2 H4_2 1_555 1_555
C12_2 H6_2 1_555 1_555
N11_2 C18_2 1_555 1_555
C13_2 H7_2 1_555 1_555
C14_2 C17_2 1_555 1_555
C16_2 C8_2 1_555 1_555
C18_2 C47_2 1_555 1_555
C19_2 H9_2 1_555 1_555
C21_2 H11_2 1_555 1_555
C22_2 C10_2 1_555 1_555
H12_2 C22_2 1_555 1_555
C23_2 N11_2 1_555 1_555
H13_2 C23_2 1_555 1_555
N12_2 C45_2 1_555 1_555
C25_2 C30_2 1_555 1_555
C26_2 N7_2 1_555 1_555
H15_2 C26_2 1_555 1_555
C27_2 N10_2 1_555 1_555
C29_2 C44_2 1_555 1_555
C30_2 H17_2 1_555 1_555
C31_2 H18_2 1_555 1_555
C32_2 C14_2 1_555 1_555
C33_2 H19_2 1_555 1_555
O17_2 C16_2 1_555 1_555
N13_2 C26_2 1_555 1_555
O18_2 Cd10 1_555 1_555
N15_2 C22_2 1_555 1_555
C35_2 N13_2 1_555 1_555
C36_2 C3_2 1_555 1_555
H20_2 C36_2 1_555 1_555
C37_2 C21_2 1_555 1_555
H21_2 C37_2 1_555 1_555
H22_2 C37_2 1_555 1_555
H23_2 C37_2 1_555 1_555
C38_2 N13_2 1_555 1_555
H24_2 C38_2 1_555 1_555
C39_2 N11_2 1_555 1_555
H25_2 C39_2 1_555 1_555
C40_2 C14_2 1_555 1_555
H26_2 C40_2 1_555 1_555
C41_2 H27_2 1_555 1_555
O19_2 Cd8 1_555 1_555
C43_2 C6_2 1_555 1_555
C44_2 C43_2 1_555 1_555
H28_2 C44_2 1_555 1_555
C45_2 H29_2 1_555 1_555
C47_2 C31_2 1_555 1_555
H31_2 C47_2 1_555 1_555
C49_2 H33_2 1_555 1_555
C50_2 C3_2 1_555 1_555
H34_2 C50_2 1_555 1_555
C52_2 N19 1_555 1_555
H36_2 C52_2 1_555 1_555
C53_2 C19_2 1_555 1_555
C54_2 N12_2 1_555 1_555
H37_2 C54_2 1_555 1_555
C56_2 C35_2 1_555 1_555
H39_2 C56_2 1_555 1_555
C57_2 C19_2 1_555 1_555
H40_2 C57_2 1_555 1_555
C58_2 C30_2 1_555 1_555
H41_2 C58_2 1_555 1_555
H42_2 C58_2 1_555 1_555
H43_2 C58_2 1_555 1_555
C59_2 N2_2 1_555 1_555
H44_2 C59_2 1_555 1_555
C60_2 C13_2 1_555 1_555
H45_2 C60_2 1_555 1_555
C61_2 C13_2 1_555 1_555
C62_2 N17 1_555 1_555
H46_2 C62_2 1_555 1_555
C63_2 C31_2 1_555 1_555
C64_2 C27_2 1_555 1_555
H47_2 C64_2 1_555 1_555
C65_2 N10_2 1_555 1_555
H48_2 C65_2 1_555 1_555
C67_2 C18_2 1_555 1_555
H50_2 C67_2 1_555 1_555
C69_2 N7_2 1_555 1_555
H54_2 C69_2 1_555 1_555
C71_2 C1_2 1_555 1_555
H56_2 C71_2 1_555 1_555
H57_2 C71_2 1_555 1_555
H58_2 C71_2 1_555 1_555
C72_2 N1_2 1_555 1_555
H59_2 C72_2 1_555 1_555
C73_2 N9_2 1_555 1_555
H60_2 C73_2 1_555 1_555
C74_2 O1_2 1_555 1_555
Cd10 O9_2 1_555 1_555
C1_2 O9_2 1_555 1_555
N9_2 C62_2 1_555 1_555
C6_2 O18_2 1_555 1_555
C8_2 C42_2 1_555 1_555
C12_2 C73_2 1_555 1_555
C16_2 C40_2 1_555 1_555
C17_2 C42_2 1_555 1_555
C21_2 C74_2 1_555 1_555
N12_2 C61_2 1_555 1_555
C25_2 O19_2 1_555 1_555
C27_2 C60_2 1_555 1_555
C29_2 C50_2 1_555 1_555
C30_2 O17_2 1_555 1_555
C33_2 C63_2 1_555 1_555
C33_2 C67_2 1_555 1_555
N15_2 C52_2 1_555 1_555
N15_2 C63_2 1_555 1_555
C35_2 C57_2 1_555 1_555
C36_2 C43_2 1_555 1_555
C38_2 C69_2 1_555 1_555
C39_2 C72_2 1_555 1_555
C41_2 C53_2 1_555 1_555
C41_2 C56_2 1_555 1_555
C49_2 C61_2 1_555 1_555
C49_2 C64_2 1_555 1_555
C54_2 C59_2 1_555 1_555
O20_2 C74_2 1_555 1_555
O10_2 H61_2 1_555 1_555
O10_2 H62_2 1_555 1_555
C55_2 N20 1_555 1_555
H38_2 C55_2 1_555 1_555
H51_2 C68_2 1_555 1_555
H52_2 C68_2 1_555 1_555

#END
