
###############################################################################
#
# This file contains modified crystal structure data generated from the
# MOF subset of the Cambridge Structural Database (CSD) v543 
# hosted by the Cambridge Crystallographic Data Centre (CCDC).
#
# This work is licensed under the Creative Commons
# Attribution-NonCommercial-ShareAlike 4.0 International License.
# To view a copy of this license, visit
# http://creativecommons.org/licenses/by-nc-sa/4.0/
# or send a letter to
# Creative Commons, PO Box 1866, Mountain View, CA 94042, USA.
#
# CIF created using the CSD Python API on 29 September 2022
# The structure has been converted into the P1 space group
# The structure has a 3D framework
# The original CSD entry VATVOE is in the monoclinic crystal system
# The original CSD entry VATVOE is in a Sohncke space group
# The framework has been calculated to contain at least 10.0% void space
# The void calculation uses a probe of radius 1.32A, grid spacing 0.4
# H atom positions have been added when not included in the experimental data
#
###############################################################################

data_VATVOE
_chemical_formula_moiety         '(C148 H128 Cd8 N32 O38)n'
_symmetry_cell_setting           triclinic
_symmetry_space_group_name_H-M   'P 1'
_symmetry_Int_Tables_number      1
_space_group_name_Hall           'P 1'
loop_
_symmetry_equiv_pos_site_id
_symmetry_equiv_pos_as_xyz
1 x,y,z
_cell_length_a                   12.711(5)
_cell_length_b                   24.300(8)
_cell_length_c                   15.085(5)
_cell_angle_alpha                90
_cell_angle_beta                 92.506(5)
_cell_angle_gamma                90
_cell_volume                     4654.96
loop_
_atom_site_label
_atom_site_type_symbol
_atom_site_fract_x
_atom_site_fract_y
_atom_site_fract_z
Cd10 Cd 0.04162(2) 0.629732(11) 0.173184(16)
N2 N 0.1705(3) 0.69578(16) 0.4459(3)
N7 N 0.1720(3) 0.69283(16) 0.1849(3)
N8 N 0.2480(3) 0.77648(15) 0.4268(2)
C7 C 0.2714(4) 0.6893(2) 0.2196(3)
H2 H 0.3010 0.6581 0.2461
N9 N 0.2489(3) 0.77375(14) 0.1697(2)
N10 N 0.2942(3) 0.99565(15) 0.3149(2)
C20 C 0.2607(4) 0.83186(18) 0.3991(3)
N12 N 0.3035(3) 0.99398(14) 0.0627(2)
C25 C 0.2836(4) 0.94048(17) 0.3438(3)
C27 C 0.1752(4) 0.8674(2) 0.3995(3)
H10 H 0.1107 0.8550 0.4183
C28 C 0.2648(4) 0.83030(18) 0.1448(3)
C31 C 0.3693(4) 0.9057(2) 0.3477(4)
H13 H 0.4347 0.9185 0.3317
C36 C 0.1863(4) 0.9220(2) 0.3716(3)
H20 H 0.1291 0.9459 0.3715
C38 C 0.2909(4) 0.93863(18) 0.0922(3)
C41 C 0.2757(4) 0.6915(2) 0.4729(3)
H23 H 0.3080 0.6598 0.4956
C47 C 0.3227(4) 0.73857(19) 0.2100(3)
H27 H 0.3922 0.7467 0.2269
C50 C 0.1945(4) 0.9209(2) 0.1168(4)
H30 H 0.1379 0.9452 0.1167
C51 C 0.1578(4) 0.74671(18) 0.4188(3)
H31 H 0.0940 0.7609 0.3965
C52 C 0.3620(4) 0.8488(2) 0.1225(4)
H32 H 0.4197 0.8252 0.1258
C54 C 0.3245(4) 0.7404(2) 0.4611(3)
H34 H 0.3952 0.7483 0.4734
C60 C 0.3582(4) 0.8513(2) 0.3755(3)
H40 H 0.4164 0.8280 0.3782
C62 C 0.1813(4) 0.8658(2) 0.1421(4)
H42 H 0.1152 0.8534 0.1572
C66 C 0.3739(4) 0.90236(19) 0.0954(3)
H48 H 0.4397 0.9143 0.0788
C72 C 0.1598(4) 0.74479(19) 0.1545(3)
H54 H 0.0985 0.7586 0.1270
Cd6 Cd 0.03719(2) 0.634160(12) 0.445152(15)
O3 O 0.1648(3) 0.56033(17) 0.4372(2)
O6 O 0.1550(2) 0.56177(13) 0.0985(2)
C14 C 0.1668(3) 0.56289(19) 0.3536(3)
O19 O 0.1081(2) 0.59588(13) 0.30961(19)
C74 C 0.2405(6) 0.5256(3) 0.3087(5)
H58 H 0.2788 0.5038 0.3523
H59 H 0.2890 0.5471 0.2760
H60 H 0.2012 0.5018 0.2687
O22 O 0.0483(3) 0.61277(13) 0.61163(19)
H63 H 0.202204 0.581427 0.0583891
H64 H 0.198041 0.541206 0.143939
C1 C 0.0028(3) 0.62382(19) 0.9543(2)
H3 H 0.0405 0.6100 0.7805
O15 O 0.0514(3) 0.57848(14) 0.9449(2)
Cd11 Cd 0.510268(19) 0.133873(11) 0.006642(16)
Cd2 Cd 0.49703(2) 0.139707(11) 0.278982(16)
N1 N 0.9125(3) 0.56670(16) 0.1857(3)
O1 O 0.0738(3) 0.20195(15) 0.8027(3)
N3 N 0.3814(3) 0.07087(16) 0.0228(3)
O2 O 0.3983(3) 0.20482(14) 0.0413(2)
O4 O 0.6262(3) 0.06480(16) 0.2755(2)
N6 N 0.6457(3) 0.19427(15) 0.0299(2)
O7 O 0.5095(3) 0.12218(17) 0.44649(19)
C2 C 0.6293(3) 0.06654(19) 0.1921(3)
O9 O 0.4200(3) 0.19211(16) 0.3939(2)
C3 C 0.7548(3) 0.32439(18) 0.0997(3)
C4 C 0.3648(3) 0.21617(16) 0.1159(3)
C6 C 0.4498(4) 0.1621(2) 0.4563(3)
C8 C 0.4717(3) 0.1363(2) 0.7892(2)
C9 C 0.7997(3) 0.43236(17) 0.1478(3)
O11 O 0.0432(3) 0.18320(13) 0.44290(18)
C10 C 0.0077(3) 0.1383(2) 0.2126(2)
C11 C 0.4223(3) 0.16188(18) 0.7066(3)
C12 C 0.1539(3) 0.22237(17) 0.1936(3)
O12 O 0.0601(3) 0.19602(15) 0.6534(3)
C13 C 0.6380(4) 0.24656(18) 0.0510(3)
H4 H 0.5748 0.2658 0.0503
O13 O 0.5721(2) 0.09900(13) 0.1471(2)
C15 C 0.3847(3) 0.02399(19) 0.3114(3)
H5 H 0.4502 0.0099 0.3295
C16 C 0.0105(3) 0.15297(18) 0.3785(3)
C18 C 0.3014(3) 0.22759(18) 0.6396(3)
O14 O 0.4555(3) 0.15765(13) 0.86302(18)
C19 C 0.7482(4) 0.1823(2) 0.0397(4)
H6 H 0.7767 0.1477 0.0298
C21 C 0.3938(3) 0.02004(18) 0.0515(3)
H7 H 0.4594 0.0039 0.0627
N11 N 0.3704(3) 0.07375(15) 0.2797(2)
C22 C 0.4585(3) 0.1489(2) 0.6226(2)
H8 H 0.5110 0.1226 0.6164
C23 C 0.0930(3) 0.21717(17) 0.7253(3)
C24 C 0.1148(3) 0.19416(18) 0.1195(3)
H9 H 0.1375 0.2035 0.0637
O16 O 0.3878(3) 0.19398(16) 0.1873(2)
O17 O 0.2245(2) 0.26506(12) 0.1893(2)
O18 O 0.2246(2) 0.26780(13) 0.64384(19)
N14 N 0.7332(3) 0.26928(15) 0.0741(2)
C26 C 0.0461(3) 0.16745(18) 0.2871(3)
C29 C 0.2908(3) 0.26616(17) 0.1156(3)
H11 H 0.2473 0.2665 0.0604
C32 C 0.8545(4) 0.3446(2) 0.0968(4)
H14 H 0.9076 0.3220 0.0771
O20 O 0.5286(3) 0.09388(15) 0.7802(2)
C33 C 0.0937(4) 0.32014(18) 0.7145(3)
H15 H 0.1387 0.3518 0.7116
H16 H 0.0520 0.3228 0.7658
H17 H 0.0483 0.3186 0.6620
C34 C 0.6990(4) 0.41243(19) 0.1493(4)
H18 H 0.6448 0.4356 0.1652
C35 C 0.1607(3) 0.26829(17) 0.7208(3)
H19 H 0.2069 0.2703 0.7744
N16 N 0.8225(3) 0.48826(14) 0.1723(2)
C37 C 0.1186(3) 0.20959(17) 0.2776(3)
H21 H 0.1437 0.2293 0.3270
C39 C 0.3432(3) 0.20004(18) 0.7146(3)
H22 H 0.3174 0.2075 0.7701
C40 C 0.0407(3) 0.15127(17) 0.1278(2)
C42 C 0.4142(3) 0.1762(2) 0.5482(3)
C45 C 0.6772(4) 0.3591(2) 0.1277(4)
H25 H 0.6089 0.3458 0.1319
C46 C 0.2162(4) 0.0302(2) 0.2813(4)
H26 H 0.1445 0.0226 0.2746
C48 C 0.9147(3) 0.51464(17) 0.1597(3)
H28 H 0.9729 0.4981 0.1357
C49 C 0.3367(3) 0.21560(19) 0.5572(3)
H29 H 0.3087 0.2339 0.5074
C53 C 0.2656(4) 0.0775(2) 0.2599(4)
H33 H 0.2322 0.1082 0.2351
C55 C 0.2729(4) 0.0777(2) 0.0121(3)
C56 C 0.2257(4) 0.0306(2) 0.0372(4)
H36 H 0.1535 0.0241 0.0371
C57 C 0.7590(4) 0.5254(2) 0.2094(4)
H37 H 0.6907 0.5192 0.2268
C63 C 0.3553(5) 0.31850(19) 0.1222(4)
H43 H 0.3090 0.3497 0.1218
H44 H 0.4000 0.3207 0.0727
H45 H 0.3978 0.3182 0.1764
C68 C 0.8126(4) 0.5733(2) 0.2169(3)
H50 H 0.7862 0.6059 0.2395
C70 C 0.8784(4) 0.3972(2) 0.1221(5)
H52 H 0.9477 0.4095 0.1220
C71 C 0.8056(4) 0.2272(2) 0.0661(5)
H53 H 0.8782 0.2292 0.0766
C73 C 0.7073(6) 0.0287(3) 0.1472(5)
H55 H 0.7442 0.0067 0.1913
H56 H 0.7569 0.0507 0.1164
H57 H 0.6698 0.0052 0.1056
N19 N 0.6345(3) 0.20008(17) 0.2880(3)
N5 N 0.0961(3) 0.07233(15) 0.5582(3)
O5 O 0.6231(2) 0.06970(13) 0.9323(2)
O8 O 0.0084(2) 0.14700(13) 0.97306(17)
C30 C 0.0918(4) 0.02103(19) 0.5838(3)
H12 H 0.0318 0.0050 0.6056
H35 H 0.2386 0.1093 0.9913
C61 C 0.1930(4) 0.0792(2) 0.5303(4)
H41 H 0.2187 0.1118 0.5073
C67 C 0.2493(4) 0.0316(2) 0.5402(4)
H49 H 0.3188 0.0259 0.5258
N17 N 0.0875(3) 0.06670(16) 0.8143(3)
H61 H 0.586255 0.0561885 0.877115
H62 H 0.689274 0.0885515 0.917193
N4 N 0.3655(3) 0.70008(17) 0.7120(3)
C5 C 0.3714(3) 0.75267(19) 0.6906(3)
H1 H 0.4344 0.7719 0.6872
C17 C 0.2508(3) 0.83079(17) 0.6482(3)
N13 N 0.2757(3) 0.77536(14) 0.6742(2)
N15 N 0.1826(3) 0.99392(14) 0.5755(2)
C43 C 0.2065(3) 0.93886(18) 0.6002(3)
C44 C 0.3303(4) 0.8652(2) 0.6218(4)
H24 H 0.3986 0.8519 0.6189
C58 C 0.2027(4) 0.7335(2) 0.6839(5)
H38 H 0.1298 0.7362 0.6773
C59 C 0.2599(4) 0.6876(2) 0.7052(4)
H39 H 0.2316 0.6528 0.7139
C64 C 0.3088(4) 0.9193(2) 0.5997(4)
H46 H 0.3632 0.9426 0.5845
C65 C 0.1279(4) 0.9040(2) 0.6231(4)
H47 H 0.0587 0.9165 0.6222
C69 C 0.1504(4) 0.8500(2) 0.6479(4)
H51 H 0.0963 0.8269 0.6644
Cd7 Cd 0.50297(2) 0.639707(11) 0.721018(16)
C1_2 C 0.9972(3) 0.12382(19) 0.0457(2)
O10 O 0.9517(3) 0.11277(13) 0.38837(19)
H3_2 H 0.9595 0.1100 0.2195
O15_2 O 0.9486(3) 0.07848(14) 0.0551(2)
Cd5 Cd 0.96281(2) 0.134160(12) 0.554848(15)
Cd8 Cd 0.95838(2) 0.129732(11) 0.826816(16)
O3_2 O 0.8352(3) 0.06033(17) 0.5628(2)
O6_2 O 0.8450(2) 0.06177(13) 0.9015(2)
C14_2 C 0.8332(3) 0.06289(19) 0.6464(3)
O19_2 O 0.8919(2) 0.09588(13) 0.69039(19)
C74_2 C 0.7595(6) 0.0256(3) 0.6913(5)
H58_2 H 0.7212 0.0038 0.6477
H59_2 H 0.7110 0.0471 0.7240
H60_2 H 0.7988 0.0018 0.7313
N18 N 0.8295(3) 0.19578(16) 0.5541(3)
N20 N 0.8280(3) 0.19283(16) 0.8151(3)
H63_2 H 0.797796 0.0814274 0.941611
H64_2 H 0.801959 0.0412064 0.856061
C48_2 C 0.0853(3) 0.01464(17) 0.8403(3)
C57_2 C 0.2410(4) 0.0254(2) 0.7906(4)
H37_2 H 0.3093 0.0192 0.7732
C68_2 C 0.1874(4) 0.0733(2) 0.7831(3)
H50_2 H 0.2138 0.1059 0.7605
N5_2 N 0.9039(3) 0.57233(15) 0.4418(3)
O5_2 O 0.3769(2) 0.56970(13) 0.0677(2)
O8_2 O 0.9916(2) 0.64700(13) 0.02694(17)
C5_2 C 0.6286(3) 0.25267(19) 0.3094(3)
H1_2 H 0.5656 0.2719 0.3128
C17_2 C 0.7492(3) 0.33079(17) 0.3518(3)
N13_2 N 0.7243(3) 0.27536(14) 0.3258(2)
C30_2 C 0.9082(4) 0.52103(19) 0.4162(3)
H12_2 H 0.9682 0.5050 0.3944
N15_2 N 0.8174(3) 0.49392(14) 0.4245(2)
C43_2 C 0.7935(3) 0.43886(18) 0.3998(3)
C44_2 C 0.6697(4) 0.3652(2) 0.3782(4)
H24_2 H 0.6014 0.3519 0.3811
H35_2 H 0.7614 0.6093 0.0087
C58_2 C 0.7973(4) 0.2335(2) 0.3161(5)
H38_2 H 0.8702 0.2362 0.3227
C59_2 C 0.7401(4) 0.1876(2) 0.2948(4)
H39_2 H 0.7684 0.1528 0.2861
C61_2 C 0.8070(4) 0.5792(2) 0.4697(4)
H41_2 H 0.7813 0.6118 0.4927
C64_2 C 0.6912(4) 0.4193(2) 0.4003(4)
H46_2 H 0.6368 0.4426 0.4155
C65_2 C 0.8721(4) 0.4040(2) 0.3769(4)
H47_2 H 0.9413 0.4165 0.3778
C67_2 C 0.7507(4) 0.5316(2) 0.4598(4)
H49_2 H 0.6812 0.5259 0.4742
C69_2 C 0.8496(4) 0.3500(2) 0.3521(4)
H51_2 H 0.9037 0.3269 0.3356
O21 O 0.9262(3) 0.70195(15) 0.1973(3)
O23 O 0.9568(3) 0.68320(13) 0.55710(18)
O24 O 0.9399(3) 0.69602(15) 0.3466(3)
O25 O 0.5445(3) 0.65765(13) 0.13698(18)
H61_2 H 0.413745 0.556188 0.122885
H62_2 H 0.310726 0.588552 0.0828069
Cd4 Cd 0.489732(19) 0.633873(11) 0.993358(16)
N3_2 N 0.6186(3) 0.57087(16) 0.9772(3)
O2_2 O 0.6017(3) 0.70482(14) 0.9587(2)
O4_2 O 0.3738(3) 0.56480(16) 0.7245(2)
N6_2 N 0.3543(3) 0.69427(15) 0.9701(2)
O7_2 O 0.4905(3) 0.62218(17) 0.55351(19)
N8_2 N 0.7520(3) 0.27648(15) 0.5732(2)
C2_2 C 0.3707(3) 0.56654(19) 0.8079(3)
O9_2 O 0.5800(3) 0.69211(16) 0.6061(2)
C3_2 C 0.2452(3) 0.82439(18) 0.9003(3)
C4_2 C 0.6352(3) 0.71617(16) 0.8841(3)
C6_2 C 0.5502(4) 0.6621(2) 0.5437(3)
C7_2 C 0.7286(4) 0.1893(2) 0.7804(3)
H2_2 H 0.6990 0.1581 0.7539
C8_2 C 0.5283(3) 0.6363(2) 0.2108(2)
N9_2 N 0.7511(3) 0.27375(14) 0.8303(2)
C9_2 C 0.2003(3) 0.93236(17) 0.8522(3)
C10_2 C 0.9923(3) 0.6383(2) 0.7874(2)
C11_2 C 0.5777(3) 0.66188(18) 0.2934(3)
C12_2 C 0.8461(3) 0.72237(17) 0.8064(3)
C13_2 C 0.3620(4) 0.74656(18) 0.9490(3)
H4_2 H 0.4252 0.7658 0.9497
O13_2 O 0.4279(2) 0.59900(13) 0.8529(2)
N10_2 N 0.7058(3) 0.49565(15) 0.6851(2)
C15_2 C 0.6153(3) 0.52399(19) 0.6886(3)
H5_2 H 0.5498 0.5099 0.6705
C16_2 C 0.9895(3) 0.65297(18) 0.6215(3)
C18_2 C 0.6986(3) 0.72759(18) 0.3604(3)
C19_2 C 0.2518(4) 0.6823(2) 0.9603(4)
H6_2 H 0.2233 0.6477 0.9702
C20_2 C 0.7393(4) 0.33186(18) 0.6009(3)
C21_2 C 0.6062(3) 0.52004(18) 0.9485(3)
H7_2 H 0.5406 0.5039 0.9373
N11_2 N 0.6296(3) 0.57375(15) 0.7203(2)
N12_2 N 0.6965(3) 0.49398(14) 0.9373(2)
C22_2 C 0.5415(3) 0.6489(2) 0.3774(2)
H8_2 H 0.4890 0.6226 0.3836
C23_2 C 0.9070(3) 0.71717(17) 0.2747(3)
C24_2 C 0.8852(3) 0.69416(18) 0.8805(3)
H9_2 H 0.8625 0.7035 0.9363
O16_2 O 0.6122(3) 0.69398(16) 0.8127(2)
O17_2 O 0.7755(2) 0.76506(12) 0.8107(2)
O18_2 O 0.7754(2) 0.76780(13) 0.35616(19)
C25_2 C 0.7164(4) 0.44048(17) 0.6562(3)
N14_2 N 0.2668(3) 0.76928(15) 0.9259(2)
C26_2 C 0.9539(3) 0.66745(18) 0.7129(3)
C27_2 C 0.8248(4) 0.3674(2) 0.6005(3)
H10_2 H 0.8893 0.3550 0.5817
C28_2 C 0.7352(4) 0.33030(18) 0.8552(3)
C29_2 C 0.7092(3) 0.76616(17) 0.8844(3)
H11_2 H 0.7527 0.7665 0.9396
C31_2 C 0.6307(4) 0.4057(2) 0.6523(4)
H13_2 H 0.5653 0.4185 0.6683
C32_2 C 0.1455(4) 0.8446(2) 0.9032(4)
H14_2 H 0.0924 0.8220 0.9229
O20_2 O 0.4714(3) 0.59388(15) 0.2198(2)
C33_2 C 0.9063(4) 0.82014(18) 0.2855(3)
H15_2 H 0.8613 0.8518 0.2884
H16_2 H 0.9480 0.8228 0.2342
H17_2 H 0.9517 0.8186 0.3380
C34_2 C 0.3010(4) 0.91243(19) 0.8507(4)
H18_2 H 0.3552 0.9356 0.8348
C35_2 C 0.8393(3) 0.76829(17) 0.2792(3)
H19_2 H 0.7931 0.7703 0.2256
C36_2 C 0.8137(4) 0.4220(2) 0.6284(3)
H20_2 H 0.8709 0.4459 0.6285
N16_2 N 0.1775(3) 0.98826(14) 0.8277(2)
C37_2 C 0.8814(3) 0.70959(17) 0.7224(3)
H21_2 H 0.8563 0.7293 0.6730
C38_2 C 0.7091(4) 0.43863(18) 0.9078(3)
C39_2 C 0.6568(3) 0.70004(18) 0.2854(3)
H22_2 H 0.6826 0.7075 0.2299
C40_2 C 0.9593(3) 0.65127(17) 0.8722(2)
C41_2 C 0.7243(4) 0.1915(2) 0.5271(3)
H23_2 H 0.6920 0.1598 0.5044
C42_2 C 0.5858(3) 0.6762(2) 0.4518(3)
C45_2 C 0.3228(4) 0.8591(2) 0.8723(4)
H25_2 H 0.3911 0.8458 0.8681
C46_2 C 0.7838(4) 0.5302(2) 0.7187(4)
H26_2 H 0.8555 0.5226 0.7254
C47_2 C 0.6773(4) 0.23857(19) 0.7900(3)
H27_2 H 0.6078 0.2467 0.7731
H28_2 H 0.0271 0.9981 0.8643
C49_2 C 0.6633(3) 0.71560(19) 0.4428(3)
H29_2 H 0.6913 0.7339 0.4926
C50_2 C 0.8055(4) 0.4209(2) 0.8832(4)
H30_2 H 0.8621 0.4452 0.8833
C51_2 C 0.8422(4) 0.24671(18) 0.5812(3)
H31_2 H 0.9060 0.2609 0.6035
C52_2 C 0.6380(4) 0.3488(2) 0.8775(4)
H32_2 H 0.5803 0.3252 0.8742
C53_2 C 0.7344(4) 0.5775(2) 0.7401(4)
H33_2 H 0.7678 0.6082 0.7649
C54_2 C 0.6755(4) 0.2404(2) 0.5389(3)
H34_2 H 0.6048 0.2483 0.5266
C55_2 C 0.7271(4) 0.5777(2) 0.9879(3)
C56_2 C 0.7743(4) 0.5306(2) 0.9628(4)
H36_2 H 0.8465 0.5241 0.9629
C60_2 C 0.6418(4) 0.3513(2) 0.6245(3)
H40_2 H 0.5836 0.3280 0.6218
C62_2 C 0.8187(4) 0.3658(2) 0.8579(4)
H42_2 H 0.8848 0.3534 0.8428
C63_2 C 0.6447(5) 0.81850(19) 0.8778(4)
H43_2 H 0.6910 0.8497 0.8782
H44_2 H 0.6000 0.8207 0.9273
H45_2 H 0.6022 0.8182 0.8236
C66_2 C 0.6261(4) 0.40236(19) 0.9046(3)
H48_2 H 0.5603 0.4143 0.9212
C70_2 C 0.1216(4) 0.8972(2) 0.8779(5)
H52_2 H 0.0523 0.9095 0.8780
C71_2 C 0.1944(4) 0.7272(2) 0.9339(5)
H53_2 H 0.1218 0.7292 0.9234
C72_2 C 0.8402(4) 0.24479(19) 0.8455(3)
H54_2 H 0.9015 0.2586 0.8730
C73_2 C 0.2927(6) 0.5287(3) 0.8528(5)
H55_2 H 0.2558 0.5067 0.8087
H56_2 H 0.2431 0.5507 0.8836
H57_2 H 0.3302 0.5052 0.8944
loop_
_geom_bond_atom_site_label_1
_geom_bond_atom_site_label_2
_geom_bond_site_symmetry_1
_geom_bond_site_symmetry_2
N2 C41 1_555 1_555
N7 C7 1_555 1_555
N8 C20 1_555 1_555
C7 H2 1_555 1_555
N9 C28 1_555 1_555
C20 C27 1_555 1_555
C25 N10 1_555 1_555
C27 H10 1_555 1_555
C28 C52 1_555 1_555
C31 C25 1_555 1_555
H13 C31 1_555 1_555
C36 C25 1_555 1_555
H20 C36 1_555 1_555
C38 N12 1_555 1_555
C41 H23 1_555 1_555
C47 C7 1_555 1_555
H27 C47 1_555 1_555
C50 C38 1_555 1_555
H30 C50 1_555 1_555
C51 N2 1_555 1_555
H31 C51 1_555 1_555
C52 H32 1_555 1_555
C54 N8 1_555 1_555
H34 C54 1_555 1_555
C60 C20 1_555 1_555
H40 C60 1_555 1_555
C62 C28 1_555 1_555
H42 C62 1_555 1_555
C66 C38 1_555 1_555
H48 C66 1_555 1_555
C72 N7 1_555 1_555
H54 C72 1_555 1_555
Cd6 N2 1_555 1_555
Cd10 N7 1_555 1_555
N8 C51 1_555 1_555
N9 C47 1_555 1_555
N9 C72 1_555 1_555
C27 C36 1_555 1_555
C31 C60 1_555 1_555
C41 C54 1_555 1_555
C50 C62 1_555 1_555
C52 C66 1_555 1_555
Cd6 O3 1_555 1_555
Cd10 O6 1_555 1_555
O3 C14 1_555 1_555
C14 O19 1_555 1_555
O19 Cd6 1_555 1_555
C74 C14 1_555 1_555
H58 C74 1_555 1_555
H59 C74 1_555 1_555
H60 C74 1_555 1_555
O22 Cd6 1_555 1_555
Cd10 O19 1_555 1_555
O6 H63 1_555 1_555
O6 H64 1_555 1_555
O15 C1 1_555 1_555
Cd2 O4 1_555 1_555
Cd11 N3 1_555 1_555
N1 C48 1_555 1_555
O1 C23 1_555 1_555
N3 C21 1_555 1_555
O2 Cd11 1_555 1_555
O4 C2 1_555 1_555
N6 Cd11 1_555 1_555
O7 Cd2 1_555 1_555
C2 O13 1_555 1_555
O9 Cd2 1_555 1_555
C3 N14 1_555 1_555
C4 O2 1_555 1_555
C6 O7 1_555 1_555
C8 C11 1_555 1_555
C9 C34 1_555 1_555
O11 C16 1_555 1_555
C11 C22 1_555 1_555
C12 C24 1_555 1_555
O12 C23 1_555 1_555
C13 N6 1_555 1_555
H4 C13 1_555 1_555
O13 Cd2 1_555 1_555
C15 H5 1_555 1_555
C16 C26 1_555 1_555
C18 O18 1_555 1_555
O14 C8 1_555 1_555
C19 N6 1_555 1_555
H6 C19 1_555 1_555
C21 H7 1_555 1_555
N11 Cd2 1_555 1_555
C22 H8 1_555 1_555
C23 C35 1_555 1_555
C24 H9 1_555 1_555
O16 Cd2 1_555 1_555
O17 C12 1_555 1_555
O18 C35 1_555 1_555
N14 C13 1_555 1_555
C26 C10 1_555 1_555
C29 C4 1_555 1_555
H11 C29 1_555 1_555
C32 C3 1_555 1_555
H14 C32 1_555 1_555
O20 C8 1_555 1_555
C33 H15 1_555 1_555
H16 C33 1_555 1_555
H17 C33 1_555 1_555
C34 H18 1_555 1_555
C35 C33 1_555 1_555
H19 C35 1_555 1_555
N16 C9 1_555 1_555
C37 C12 1_555 1_555
H21 C37 1_555 1_555
C39 C11 1_555 1_555
H22 C39 1_555 1_555
C42 C6 1_555 1_555
C45 C3 1_555 1_555
H25 C45 1_555 1_555
H26 C46 1_555 1_555
C48 N16 1_555 1_555
H28 C48 1_555 1_555
C49 C18 1_555 1_555
H29 C49 1_555 1_555
C53 N11 1_555 1_555
H33 C53 1_555 1_555
C55 N3 1_555 1_555
H36 C56 1_555 1_555
C57 N16 1_555 1_555
H37 C57 1_555 1_555
C63 C29 1_555 1_555
H43 C63 1_555 1_555
H44 C63 1_555 1_555
H45 C63 1_555 1_555
C68 N1 1_555 1_555
H50 C68 1_555 1_555
C70 C9 1_555 1_555
H52 C70 1_555 1_555
C71 C19 1_555 1_555
H53 C71 1_555 1_555
C73 C2 1_555 1_555
H55 C73 1_555 1_555
H56 C73 1_555 1_555
H57 C73 1_555 1_555
N19 Cd2 1_555 1_555
Cd11 O13 1_555 1_555
O9 C6 1_555 1_555
C4 O16 1_555 1_555
C10 C40 1_555 1_555
C15 N11 1_555 1_555
C18 C39 1_555 1_555
C22 C42 1_555 1_555
C24 C40 1_555 1_555
O17 C29 1_555 1_555
N14 C71 1_555 1_555
C26 C37 1_555 1_555
C32 C70 1_555 1_555
C34 C45 1_555 1_555
C42 C49 1_555 1_555
C46 C53 1_555 1_555
C55 C56 1_555 1_555
C57 C68 1_555 1_555
C30 N5 1_555 1_555
H12 C30 1_555 1_555
C61 N5 1_555 1_555
H41 C61 1_555 1_555
H49 C67 1_555 1_555
C61 C67 1_555 1_555
O5 H61 1_555 1_555
O5 H62 1_555 1_555
N4 C5 1_555 1_555
C5 H1 1_555 1_555
C17 N13 1_555 1_555
N13 C5 1_555 1_555
C43 N15 1_555 1_555
C44 C17 1_555 1_555
H24 C44 1_555 1_555
C58 N13 1_555 1_555
H38 C58 1_555 1_555
C59 N4 1_555 1_555
H39 C59 1_555 1_555
C64 C43 1_555 1_555
H46 C64 1_555 1_555
C65 C43 1_555 1_555
H47 C65 1_555 1_555
C69 C17 1_555 1_555
H51 C69 1_555 1_555
Cd7 N4 1_555 1_555
C44 C64 1_555 1_555
C58 C59 1_555 1_555
C65 C69 1_555 1_555
O15_2 C1_2 1_555 1_555
Cd5 O10 1_555 1_555
Cd5 O3_2 1_555 1_555
Cd8 O6_2 1_555 1_555
O3_2 C14_2 1_555 1_555
C14_2 O19_2 1_555 1_555
O19_2 Cd5 1_555 1_555
C74_2 C14_2 1_555 1_555
H58_2 C74_2 1_555 1_555
H59_2 C74_2 1_555 1_555
H60_2 C74_2 1_555 1_555
N18 Cd5 1_555 1_555
N20 Cd8 1_555 1_555
Cd8 O19_2 1_555 1_555
O6_2 H63_2 1_555 1_555
O6_2 H64_2 1_555 1_555
N17 C48_2 1_555 1_555
H37_2 C57_2 1_555 1_555
C68_2 N17 1_555 1_555
H50_2 C68_2 1_555 1_555
C57_2 C68_2 1_555 1_555
N19 C5_2 1_555 1_555
C5_2 H1_2 1_555 1_555
C17_2 N13_2 1_555 1_555
N13_2 C5_2 1_555 1_555
C30_2 N5_2 1_555 1_555
H12_2 C30_2 1_555 1_555
N15_2 C30_2 1_555 1_555
C43_2 N15_2 1_555 1_555
C44_2 C17_2 1_555 1_555
H24_2 C44_2 1_555 1_555
C58_2 N13_2 1_555 1_555
H38_2 C58_2 1_555 1_555
C59_2 N19 1_555 1_555
H39_2 C59_2 1_555 1_555
C61_2 N5_2 1_555 1_555
H41_2 C61_2 1_555 1_555
C64_2 C43_2 1_555 1_555
H46_2 C64_2 1_555 1_555
C65_2 C43_2 1_555 1_555
H47_2 C65_2 1_555 1_555
C67_2 N15_2 1_555 1_555
H49_2 C67_2 1_555 1_555
C69_2 C17_2 1_555 1_555
H51_2 C69_2 1_555 1_555
C44_2 C64_2 1_555 1_555
C58_2 C59_2 1_555 1_555
C61_2 C67_2 1_555 1_555
C65_2 C69_2 1_555 1_555
O5_2 H61_2 1_555 1_555
O5_2 H62_2 1_555 1_555
Cd7 O4_2 1_555 1_555
Cd4 N3_2 1_555 1_555
O21 C23_2 1_555 1_555
N18 C41_2 1_555 1_555
N3_2 C21_2 1_555 1_555
O2_2 Cd4 1_555 1_555
O4_2 C2_2 1_555 1_555
N6_2 Cd4 1_555 1_555
N20 C7_2 1_555 1_555
O7_2 Cd7 1_555 1_555
N8_2 C20_2 1_555 1_555
C2_2 O13_2 1_555 1_555
O9_2 Cd7 1_555 1_555
C3_2 N14_2 1_555 1_555
C4_2 O2_2 1_555 1_555
C6_2 O7_2 1_555 1_555
C7_2 H2_2 1_555 1_555
C8_2 C11_2 1_555 1_555
N9_2 C28_2 1_555 1_555
C9_2 C34_2 1_555 1_555
O23 C16_2 1_555 1_555
C11_2 C22_2 1_555 1_555
C12_2 C24_2 1_555 1_555
O24 C23_2 1_555 1_555
C13_2 N6_2 1_555 1_555
H4_2 C13_2 1_555 1_555
O13_2 Cd7 1_555 1_555
N10_2 C15_2 1_555 1_555
C15_2 H5_2 1_555 1_555
C16_2 C26_2 1_555 1_555
C18_2 O18_2 1_555 1_555
O25 C8_2 1_555 1_555
C19_2 N6_2 1_555 1_555
H6_2 C19_2 1_555 1_555
C20_2 C27_2 1_555 1_555
C21_2 H7_2 1_555 1_555
N11_2 Cd7 1_555 1_555
N12_2 C21_2 1_555 1_555
C22_2 H8_2 1_555 1_555
C23_2 C35_2 1_555 1_555
C24_2 H9_2 1_555 1_555
O16_2 Cd7 1_555 1_555
O17_2 C12_2 1_555 1_555
O18_2 C35_2 1_555 1_555
C25_2 N10_2 1_555 1_555
N14_2 C13_2 1_555 1_555
C26_2 C10_2 1_555 1_555
C27_2 H10_2 1_555 1_555
C28_2 C52_2 1_555 1_555
C29_2 C4_2 1_555 1_555
H11_2 C29_2 1_555 1_555
C31_2 C25_2 1_555 1_555
H13_2 C31_2 1_555 1_555
C32_2 C3_2 1_555 1_555
H14_2 C32_2 1_555 1_555
O20_2 C8_2 1_555 1_555
C33_2 H15_2 1_555 1_555
H16_2 C33_2 1_555 1_555
H17_2 C33_2 1_555 1_555
C34_2 H18_2 1_555 1_555
C35_2 C33_2 1_555 1_555
H19_2 C35_2 1_555 1_555
C36_2 C25_2 1_555 1_555
H20_2 C36_2 1_555 1_555
N16_2 C9_2 1_555 1_555
C37_2 C12_2 1_555 1_555
H21_2 C37_2 1_555 1_555
C38_2 N12_2 1_555 1_555
C39_2 C11_2 1_555 1_555
H22_2 C39_2 1_555 1_555
C41_2 H23_2 1_555 1_555
C42_2 C6_2 1_555 1_555
C45_2 C3_2 1_555 1_555
H25_2 C45_2 1_555 1_555
C46_2 N10_2 1_555 1_555
H26_2 C46_2 1_555 1_555
C47_2 C7_2 1_555 1_555
H27_2 C47_2 1_555 1_555
C49_2 C18_2 1_555 1_555
H29_2 C49_2 1_555 1_555
C50_2 C38_2 1_555 1_555
H30_2 C50_2 1_555 1_555
C51_2 N18 1_555 1_555
H31_2 C51_2 1_555 1_555
C52_2 H32_2 1_555 1_555
C53_2 N11_2 1_555 1_555
H33_2 C53_2 1_555 1_555
C54_2 N8_2 1_555 1_555
H34_2 C54_2 1_555 1_555
C55_2 N3_2 1_555 1_555
C56_2 N12_2 1_555 1_555
H36_2 C56_2 1_555 1_555
C60_2 C20_2 1_555 1_555
H40_2 C60_2 1_555 1_555
C62_2 C28_2 1_555 1_555
H42_2 C62_2 1_555 1_555
C63_2 C29_2 1_555 1_555
H43_2 C63_2 1_555 1_555
H44_2 C63_2 1_555 1_555
H45_2 C63_2 1_555 1_555
C66_2 C38_2 1_555 1_555
H48_2 C66_2 1_555 1_555
C70_2 C9_2 1_555 1_555
H52_2 C70_2 1_555 1_555
C71_2 C19_2 1_555 1_555
H53_2 C71_2 1_555 1_555
C72_2 N20 1_555 1_555
H54_2 C72_2 1_555 1_555
C73_2 C2_2 1_555 1_555
H55_2 C73_2 1_555 1_555
H56_2 C73_2 1_555 1_555
H57_2 C73_2 1_555 1_555
Cd4 O13_2 1_555 1_555
N8_2 C51_2 1_555 1_555
O9_2 C6_2 1_555 1_555
C4_2 O16_2 1_555 1_555
N9_2 C47_2 1_555 1_555
N9_2 C72_2 1_555 1_555
C10_2 C40_2 1_555 1_555
C15_2 N11_2 1_555 1_555
C18_2 C39_2 1_555 1_555
C22_2 C42_2 1_555 1_555
C24_2 C40_2 1_555 1_555
O17_2 C29_2 1_555 1_555
N14_2 C71_2 1_555 1_555
C26_2 C37_2 1_555 1_555
C27_2 C36_2 1_555 1_555
C31_2 C60_2 1_555 1_555
C32_2 C70_2 1_555 1_555
C34_2 C45_2 1_555 1_555
C41_2 C54_2 1_555 1_555
C42_2 C49_2 1_555 1_555
C46_2 C53_2 1_555 1_555
C50_2 C62_2 1_555 1_555
C52_2 C66_2 1_555 1_555
C55_2 C56_2 1_555 1_555

#END
