
###############################################################################
#
# This file contains modified crystal structure data generated from the
# MOF subset of the Cambridge Structural Database (CSD) v543 
# hosted by the Cambridge Crystallographic Data Centre (CCDC).
#
# This work is licensed under the Creative Commons
# Attribution-NonCommercial-ShareAlike 4.0 International License.
# To view a copy of this license, visit
# http://creativecommons.org/licenses/by-nc-sa/4.0/
# or send a letter to
# Creative Commons, PO Box 1866, Mountain View, CA 94042, USA.
#
# CIF created using the CSD Python API on 29 September 2022
# The structure has been converted into the P1 space group
# The structure has a 3D framework
# The original CSD entry VATYEV is in the triclinic crystal system
# The framework has been calculated to contain at least 10.0% void space
# The void calculation uses a probe of radius 1.32A, grid spacing 0.4
# The framework is charged, counterions have been retained in the structure
# H atom positions have been added when not included in the experimental data
# Generated hydrogen atom positions removed from atoms on special positions
#
###############################################################################

data_VATYEV
_chemical_formula_moiety         '(C8 H18 Gd2 N4 O16)n'
_symmetry_cell_setting           triclinic
_symmetry_space_group_name_H-M   'P 1'
_symmetry_Int_Tables_number      1
_space_group_name_Hall           'P 1'
loop_
_symmetry_equiv_pos_site_id
_symmetry_equiv_pos_as_xyz
1 x,y,z
_cell_length_a                   8.52(3)
_cell_length_b                   9.51(3)
_cell_length_c                   10.14(3)
_cell_angle_alpha                62.11(4)
_cell_angle_beta                 76.15(5)
_cell_angle_gamma                73.73(5)
_cell_volume                     691.379
loop_
_atom_site_label
_atom_site_type_symbol
_atom_site_fract_x
_atom_site_fract_y
_atom_site_fract_z
_atom_site_U_iso_or_equiv
_atom_site_thermal_displace_type
O1 O 0.0811(7) 0.3042(7) 0.0156(7) 0.0375 Uani
Gd4 Gd 0.66706(4) 0.62803(4) 0.15990(4) 0.0267 Uani
O15 O 0.4626(8) 0.4801(7) 0.1850(6) 0.0393 Uani
O20 O 0.3409(7) 0.3910(8) 0.0735(6) 0.0394 Uani
C6 C 0.5733(10) 0.0231(10) 0.0146(9) 0.0292 Uani
C8 C 0.4421(10) 0.4623(10) 0.0750(9) 0.0333 Uani
Gd1 Gd 0.33294(4) 0.37197(4) 0.84010(4) 0.0267 Uani
O2 O 0.3173(7) 0.0920(7) 0.9218(7) 0.0362 Uani
O3 O 0.5277(7) 0.3066(7) 0.6498(6) 0.0368 Uani
O4 O 0.5374(8) 0.5199(7) 0.8150(6) 0.0393 Uani
O7 O 0.6591(7) 0.6090(8) 0.9265(6) 0.0394 Uani
O8 O 0.6518(7) 0.3962(7) 0.4112(6) 0.0370 Uani
O9 O 0.1343(8) 0.3790(8) 0.6963(7) 0.0482 Uani
C3 C 0.5523(10) 0.4132(10) 0.5169(9) 0.0307 Uani
C4 C 0.5579(10) 0.5377(10) 0.9250(9) 0.0333 Uani
O13 O 0.4723(7) 0.6934(7) 0.3502(6) 0.0368 Uani
O17 O 0.5672(7) 0.1710(7) 0.9681(7) 0.0396 Uani
O19 O 0.1331(7) 0.6079(7) 0.8473(6) 0.0388 Uani
O22 O 0.3482(7) 0.6038(7) 0.5888(6) 0.0370 Uani
C5 C 0.0134(10) 0.5873(10) 0.9517(9) 0.0305 Uani
C7 C 0.4477(10) 0.5868(10) 0.4831(9) 0.0307 Uani
O5 O 0.4328(7) 0.8290(7) 0.0319(7) 0.0396 Uani
O11 O 0.6827(7) 0.9080(7) 0.0782(7) 0.0362 Uani
C2 C 0.4267(10) 0.9769(10) 0.9854(9) 0.0292 Uani
O6 O 0.8669(7) 0.3921(7) 0.1527(6) 0.0388 Uani
C1 C 0.9866(10) 0.4127(10) 0.0483(9) 0.0305 Uani
O24 O 0.8657(8) 0.6210(8) 0.3037(7) 0.0482 Uani
O10 O 0.9189(7) 0.6958(7) 0.9844(7) 0.0375 Uani
H7 H 0.0198289 0.148334 0.83356 . .
N1 N 0.874(7) 0.133(7) 0.730(7) 0.2300 Uiso
N2 N 0.901(2) 0.191(2) 0.812(2) 0.0660 Uiso
H5 H 0.880129 0.313923 0.757051 . .
H6 H 0.82444 0.156709 0.910375 . .
H8 H 0.95056 0.167291 0.631625 . .
H9 H 0.894871 0.0100767 0.784949 . .
N1_2 N 0.126(7) 0.867(7) 0.270(7) 0.2300 Uiso
N2_2 N 0.099(2) 0.809(2) 0.188(2) 0.0660 Uiso
H5_2 H 0.119871 0.686077 0.242949 . .
H6_2 H 0.17556 0.843291 0.0896246 . .
H8_2 H 0.0494401 0.832709 0.368375 . .
H9_2 H 0.105129 0.989923 0.215051 . .
H7_2 H 0.980171 0.851666 0.16644 . .
loop_
_atom_site_aniso_label
_atom_site_aniso_U_11
_atom_site_aniso_U_22
_atom_site_aniso_U_33
_atom_site_aniso_U_23
_atom_site_aniso_U_13
_atom_site_aniso_U_12
O1 0.027 0.036 0.045 -0.021 0.013 -0.008
Gd4 0.0242 0.0293 0.0249 -0.0135 0.00475 -0.0061
O15 0.048 0.045 0.028 -0.019 0.005 -0.016
O20 0.038 0.058 0.034 -0.026 0.01 -0.028
C6 0.025 0.037 0.029 -0.017 0.005 -0.013
C8 0.031 0.03 0.032 -0.014 0.005 -0.002
Gd1 0.0242 0.0293 0.0249 -0.0135 0.00475 -0.0061
O2 0.03 0.03 0.05 -0.016 -0.011 -0.005
O3 0.044 0.031 0.026 -0.011 0.009 -0.007
O4 0.048 0.045 0.028 -0.019 0.005 -0.016
O7 0.038 0.058 0.034 -0.026 0.01 -0.028
O8 0.037 0.037 0.024 -0.012 0.008 0
O9 0.043 0.062 0.042 -0.021 -0.008 -0.014
C3 0.027 0.038 0.032 -0.022 0 -0.004
C4 0.031 0.03 0.032 -0.014 0.005 -0.002
O13 0.044 0.031 0.026 -0.011 0.009 -0.007
O17 0.036 0.027 0.056 -0.016 -0.013 -0.004
O19 0.034 0.035 0.036 -0.015 0.014 -0.006
O22 0.037 0.037 0.024 -0.012 0.008 0
C5 0.024 0.035 0.031 -0.015 0 -0.005
C7 0.027 0.038 0.032 -0.022 0 -0.004
O5 0.036 0.027 0.056 -0.016 -0.013 -0.004
O11 0.03 0.03 0.05 -0.016 -0.011 -0.005
C2 0.025 0.037 0.029 -0.017 0.005 -0.013
O6 0.034 0.035 0.036 -0.015 0.014 -0.006
C1 0.024 0.035 0.031 -0.015 0 -0.005
O24 0.043 0.062 0.042 -0.021 -0.008 -0.014
O10 0.027 0.036 0.045 -0.021 0.013 -0.008
loop_
_geom_bond_atom_site_label_1
_geom_bond_atom_site_label_2
_geom_bond_site_symmetry_1
_geom_bond_site_symmetry_2
O15 Gd4 1_555 1_555
O15 C8 1_555 1_555
O20 C8 1_555 1_555
O2 Gd1 1_555 1_555
O3 Gd1 1_555 1_555
O4 Gd1 1_555 1_555
O7 C4 1_555 1_555
O8 C3 1_555 1_555
O9 Gd1 1_555 1_555
C3 O3 1_555 1_555
C4 O4 1_555 1_555
Gd4 O8 1_555 1_555
O13 Gd4 1_555 1_555
O17 Gd1 1_555 1_555
O19 Gd1 1_555 1_555
O22 Gd1 1_555 1_555
C7 C3 1_555 1_555
O13 C7 1_555 1_555
O19 C5 1_555 1_555
O22 C7 1_555 1_555
Gd4 O5 1_555 1_555
O11 Gd4 1_555 1_555
O6 C1 1_555 1_555
Gd4 O6 1_555 1_555
O24 Gd4 1_555 1_555
N1 N2 1_555 1_555
N2 H5 1_555 1_555
N2 H6 1_555 1_555
N1 H8 1_555 1_555
N1 H9 1_555 1_555
N1_2 N2_2 1_555 1_555
N2_2 H5_2 1_555 1_555
N2_2 H6_2 1_555 1_555
N1_2 H8_2 1_555 1_555
N1_2 H9_2 1_555 1_555

#END
