
###############################################################################
#
# This file contains modified crystal structure data generated from the
# MOF subset of the Cambridge Structural Database (CSD) v543 
# hosted by the Cambridge Crystallographic Data Centre (CCDC).
#
# This work is licensed under the Creative Commons
# Attribution-NonCommercial-ShareAlike 4.0 International License.
# To view a copy of this license, visit
# http://creativecommons.org/licenses/by-nc-sa/4.0/
# or send a letter to
# Creative Commons, PO Box 1866, Mountain View, CA 94042, USA.
#
# CIF created using the CSD Python API on 29 September 2022
# The structure has been converted into the P1 space group
# The structure has a 3D framework
# The original CSD entry VAXJOW is in the orthorhombic crystal system
# The framework has been calculated to contain at least 10.0% void space
# The void calculation uses a probe of radius 1.32A, grid spacing 0.4
#
###############################################################################

data_VAXJOW
_chemical_formula_moiety         '(C264 H144 N8 O96 Zn32)n'
_symmetry_cell_setting           triclinic
_symmetry_space_group_name_H-M   'P 1'
_symmetry_Int_Tables_number      1
_space_group_name_Hall           'P 1'
loop_
_symmetry_equiv_pos_site_id
_symmetry_equiv_pos_as_xyz
1 x,y,z
_cell_length_a                   25.0348(14)
_cell_length_b                   25.7282(8)
_cell_length_c                   33.134(2)
_cell_angle_alpha                90
_cell_angle_beta                 90
_cell_angle_gamma                90
_cell_volume                     21341.6
loop_
_atom_site_label
_atom_site_type_symbol
_atom_site_fract_x
_atom_site_fract_y
_atom_site_fract_z
Zn1 Zn 0.16766(2) 0.53843(2) 0.39405(2)
Zn2 Zn 0.25792(2) 0.45856(2) 0.36828(2)
Zn3 Zn 0.21161(2) 0.45669(2) 0.45830(2)
Zn4 Zn 0.28436(2) 0.55080(2) 0.42913(2)
O1 O 0.22984(5) 0.49969(6) 0.41243(4)
O2 O 0.35024(8) 0.47991(9) 0.83925(6)
O3 O 0.10500(7) 0.52403(9) 0.42700(7)
O4 O 0.28061(8) 0.52815(9) 0.81774(5)
O5 O 0.13790(8) 0.47029(9) 0.47519(6)
O6 O 0.66685(7) 0.53246(9) 0.64407(7)
O7 O 0.25036(10) 0.38420(9) 0.37938(7)
O8 O 0.17341(9) 0.61475(8) 0.39449(6)
O9 O 0.25292(9) 0.46985(10) 0.50656(7)
O10 O 0.21937(11) 0.38402(9) 0.44368(8)
N1 N 0.41245(8) 0.50651(14) 0.65457(7)
C1 C 0.32378(11) 0.50392(14) 0.81243(9)
C2 C 0.34588(10) 0.50493(14) 0.77135(8)
O11 O 0.65021(9) 0.46660(13) 0.59955(8)
O12 O 0.30462(11) 0.53612(14) 0.48386(8)
C3 C 0.10185(11) 0.49758(15) 0.45934(11)
C4 C 0.04926(10) 0.49863(14) 0.48038(9)
C5 C 0.39006(10) 0.50453(16) 0.69372(9)
C6 C 0.39392(12) 0.47949(15) 0.76238(9)
H1 H 0.4117 0.4624 0.7832
C7 C 0.32119(12) 0.52865(13) 0.73991(9)
H2 H 0.2885 0.5448 0.7443
C8 C 0.23543(15) 0.36193(17) 0.41043(13)
C9 C 0.46888(10) 0.50409(18) 0.64888(9)
C10 C 0.34267(12) 0.52969(15) 0.70169(9)
H3 H 0.3251 0.5475 0.6812
C11 C 0.23440(14) 0.30420(14) 0.41147(11)
C12 C 0.57830(11) 0.50123(16) 0.63395(9)
C13 C 0.38036(11) 0.50640(18) 0.61984(9)
C14 C 0.41604(12) 0.47839(15) 0.72480(9)
H4 H 0.4477 0.4606 0.7200
O13 O 0.25733(14) 0.61753(10) 0.41897(12)
C15 C 0.63653(13) 0.5020(2) 0.62521(11)
C16 C 0.17053(14) 0.72249(12) 0.39315(10)
H5 H 0.1405 0.7047 0.3841
C17 C 0.50263(12) 0.53436(14) 0.66967(10)
H6 H 0.4893 0.5567 0.6893
C18 C 0.00772(13) 0.52668(15) 0.46522(10)
H7 H 0.0123 0.5451 0.4413
C19 C 0.32028(11) 0.50479(17) 0.54894(9)
C20 C 0.55691(12) 0.53277(14) 0.66228(10)
H8 H 0.5794 0.5541 0.6773
C21 C 0.39285(13) 0.53807(18) 0.58899(11)
H9 H 0.4217 0.5607 0.5913
C23 C 0.21359(14) 0.69538(14) 0.40607(12)
C24 C 0.28999(13) 0.5031(2) 0.51037(10)
C25 C 0.21350(18) 0.63904(16) 0.40547(14)
C26 C 0.33752(13) 0.47347(16) 0.61633(10)
H11 H 0.3284 0.4513 0.6374
C27 C 0.48956(13) 0.47169(17) 0.62114(11)
H12 H 0.4669 0.4499 0.6068
C28 C 0.21881(19) 0.27593(12) 0.44454(13)
H13 H 0.2079 0.2935 0.4677
C29 C 0.54418(13) 0.47010(16) 0.61343(10)
H14 H 0.5574 0.4474 0.5940
C30 C 0.30714(13) 0.47350(17) 0.58006(10)
H15 H 0.2777 0.4516 0.5778
C31 C 0.36253(15) 0.53734(18) 0.55296(10)
H16 H 0.3717 0.5594 0.5318
C32 C 0.24977(18) 0.27727(12) 0.37855(12)
H17 H 0.2605 0.2951 0.3555
C33 C 0.2553(2) 0.72342(14) 0.4186(2)
H18 H 0.2856 0.7061 0.4277
C37 C 0.04147(12) 0.47165(15) 0.51518(10)
H20 H 0.0692 0.4520 0.5260
O16 O 0.25036(10) 0.11580(9) 0.37938(7)
O17 O 0.21937(11) 0.11598(9) 0.44368(8)
C38 C 0.23543(15) 0.13807(17) 0.41043(13)
C39 C 0.23440(14) 0.19580(14) 0.41147(11)
C40 C 0.21881(19) 0.22407(12) 0.44454(13)
H21 H 0.2079 0.2065 0.4677
C41 C 0.24977(18) 0.22273(12) 0.37855(12)
H22 H 0.2605 0.2049 0.3555
O18 O 0.17341(9) 0.88525(8) 0.39449(6)
O19 O 0.25733(14) 0.88247(10) 0.41897(12)
C42 C 0.17053(14) 0.77751(12) 0.39315(10)
H23 H 0.1405 0.7953 0.3841
C43 C 0.21359(14) 0.80462(14) 0.40607(12)
C44 C 0.21350(18) 0.86096(16) 0.40547(14)
C45 C 0.2553(2) 0.77658(14) 0.4186(2)
H24 H 0.2856 0.7939 0.4277
Zn9 Zn 0.33234(2) 0.46157(2) 0.89405(2)
Zn11 Zn 0.16766(2) 0.96157(2) 0.39405(2)
Zn13 Zn 0.24208(2) 0.54144(2) 0.86828(2)
Zn14 Zn 0.74208(2) 0.54144(2) 0.63172(2)
Zn16 Zn 0.25792(2) 0.04144(2) 0.36828(2)
Zn17 Zn 0.21161(2) 0.04331(2) 0.45830(2)
Zn19 Zn 0.71564(2) 0.44920(2) 0.57087(2)
Zn20 Zn 0.28436(2) 0.94920(2) 0.42913(2)
O27 O 0.14976(8) 0.52009(9) 0.33925(6)
O29 O 0.21939(8) 0.47185(9) 0.31774(5)
O32 O 0.33315(7) 0.46754(9) 0.35593(7)
O37 O 0.34979(9) 0.53340(13) 0.40045(8)
C22 C 0.95853(12) 0.52835(15) 0.48482(10)
H10 H 0.9308 0.5480 0.4740
O14 O 0.89500(7) 0.47597(9) 0.57300(7)
O15 O 0.86210(8) 0.52971(9) 0.52481(6)
C34 C 0.89815(11) 0.50242(15) 0.54066(11)
C35 C 0.95074(10) 0.50137(14) 0.51962(9)
C36 C 0.99228(13) 0.47332(15) 0.53478(10)
H19 H 0.9877 0.4549 0.5587
Zn5 Zn 0.83234(2) 0.46157(2) 0.60595(2)
Zn7 Zn 0.78839(2) 0.54331(2) 0.54170(2)
O20 O 0.77016(5) 0.50031(6) 0.58757(4)
O21 O 0.64976(8) 0.52009(9) 0.16075(6)
O22 O 0.71939(8) 0.47185(9) 0.18226(5)
O24 O 0.74708(9) 0.53015(10) 0.49344(7)
N2 N 0.58755(8) 0.49349(14) 0.34543(7)
C46 C 0.67622(11) 0.49608(14) 0.18757(9)
C47 C 0.65412(10) 0.49507(14) 0.22865(8)
O26 O 0.69538(11) 0.46388(14) 0.51614(8)
C48 C 0.60994(10) 0.49547(16) 0.30628(9)
C49 C 0.60608(12) 0.52051(15) 0.23762(9)
H25 H 0.5883 0.5376 0.2168
C50 C 0.67881(12) 0.47135(13) 0.26009(9)
H26 H 0.7115 0.4552 0.2557
C51 C 0.53112(10) 0.49591(18) 0.35112(9)
C52 C 0.65733(12) 0.47031(15) 0.29831(9)
H27 H 0.6749 0.4525 0.3188
C53 C 0.42170(11) 0.49877(16) 0.36605(9)
C54 C 0.61964(11) 0.49360(18) 0.38016(9)
C55 C 0.58396(12) 0.52161(15) 0.27520(9)
H28 H 0.5523 0.5394 0.2800
C56 C 0.36347(13) 0.4980(2) 0.37479(11)
C57 C 0.49737(12) 0.46564(14) 0.33033(10)
H29 H 0.5107 0.4433 0.3107
C58 C 0.67972(11) 0.49521(17) 0.45106(9)
C59 C 0.44309(12) 0.46723(14) 0.33772(10)
H30 H 0.4206 0.4459 0.3227
C60 C 0.60715(13) 0.46193(18) 0.41101(11)
H31 H 0.5783 0.4393 0.4087
C61 C 0.71001(13) 0.4969(2) 0.48963(10)
C62 C 0.66248(13) 0.52653(16) 0.38367(10)
H32 H 0.6716 0.5487 0.3626
C63 C 0.51044(13) 0.52831(17) 0.37886(11)
H33 H 0.5331 0.5501 0.3932
C64 C 0.45582(13) 0.52990(16) 0.38657(10)
H34 H 0.4426 0.5526 0.4060
C65 C 0.69286(13) 0.52650(17) 0.41994(10)
H35 H 0.7223 0.5484 0.4222
C66 C 0.63747(15) 0.46266(18) 0.44704(10)
H36 H 0.6283 0.4406 0.4682
Zn10 Zn 0.66766(2) 0.53843(2) 0.10595(2)
Zn15 Zn 0.75792(2) 0.45856(2) 0.13172(2)
O28 O 0.85024(8) 0.47991(9) 0.66075(6)
O30 O 0.78061(8) 0.52815(9) 0.68226(5)
O33 O 0.74964(10) 0.61580(9) 0.62062(7)
O34 O 0.82659(9) 0.38525(8) 0.60551(6)
O35 O 0.78063(11) 0.61598(9) 0.55632(8)
O38 O 0.74267(14) 0.38247(10) 0.58103(12)
O23 O 0.16685(7) 0.53246(9) 0.85593(7)
O25 O 0.15021(9) 0.46660(13) 0.90045(8)
C53_2 C 0.07830(11) 0.50123(16) 0.86605(9)
C56_2 C 0.13653(13) 0.5020(2) 0.87479(11)
C57_2 C 0.00263(12) 0.53436(14) 0.83033(10)
C59_2 C 0.05691(12) 0.53277(14) 0.83772(10)
H30_2 H 0.0794 0.5541 0.8227
C64_2 C 0.04418(13) 0.47010(16) 0.88657(10)
H34_2 H 0.0574 0.4474 0.9060
Zn18 Zn 0.21564(2) 0.44920(2) 0.92913(2)
O9_2 O 0.24708(9) 0.53015(10) 0.00656(7)
N1_2 N 0.08755(8) 0.49349(14) 0.15457(7)
C1_2 C 0.17622(11) 0.49608(14) 0.31243(9)
C2_2 C 0.15412(10) 0.49507(14) 0.27135(8)
C5_2 C 0.10994(10) 0.49547(16) 0.19372(9)
C6_2 C 0.10608(12) 0.52051(15) 0.26238(9)
H1_2 H 0.0883 0.5376 0.2832
C7_2 C 0.17881(12) 0.47135(13) 0.23991(9)
H2_2 H 0.2115 0.4552 0.2443
C9_2 C 0.03112(10) 0.49591(18) 0.14888(9)
C10_2 C 0.15733(12) 0.47031(15) 0.20169(9)
H3_2 H 0.1749 0.4525 0.1812
C13_2 C 0.11964(11) 0.49360(18) 0.11984(9)
C14_2 C 0.08396(12) 0.52161(15) 0.22480(9)
H4_2 H 0.0523 0.5394 0.2200
H6_2 H 0.0107 0.4433 0.1893
C19_2 C 0.17972(11) 0.49521(17) 0.04894(9)
C21_2 C 0.10715(13) 0.46193(18) 0.08899(11)
H9_2 H 0.0783 0.4393 0.0913
C24_2 C 0.21001(13) 0.4969(2) 0.01037(10)
C26_2 C 0.16248(13) 0.52653(16) 0.11633(10)
H11_2 H 0.1716 0.5487 0.1374
C27_2 C 0.01044(13) 0.52831(17) 0.12114(11)
H12_2 H 0.0331 0.5501 0.1068
C30_2 C 0.19286(13) 0.52650(17) 0.08006(10)
H15_2 H 0.2223 0.5484 0.0778
C31_2 C 0.13747(15) 0.46266(18) 0.05296(10)
H16_2 H 0.1283 0.4406 0.0318
O14_2 O 0.60500(7) 0.52403(9) 0.07300(7)
O15_2 O 0.63790(8) 0.47029(9) 0.02481(6)
C34_2 C 0.60185(11) 0.49758(15) 0.04066(11)
C35_2 C 0.54926(10) 0.49863(14) 0.01962(9)
C36_2 C 0.50772(13) 0.52668(15) 0.03478(10)
H19_2 H 0.5123 0.5451 0.0587
C37_2 C 0.45853(12) 0.52835(15) 0.01518(10)
H20_2 H 0.4308 0.5480 0.0260
Zn7_2 Zn 0.71161(2) 0.45669(2) 0.04170(2)
Zn8 Zn 0.78436(2) 0.55080(2) 0.07087(2)
O20_2 O 0.72984(5) 0.49969(6) 0.08757(4)
O26_2 O 0.80462(11) 0.53612(14) 0.01614(8)
O31 O 0.83315(7) 0.46754(9) 0.14407(7)
O33_2 O 0.75036(10) 0.38420(9) 0.12062(7)
O34_2 O 0.67341(9) 0.61475(8) 0.10551(6)
O35_2 O 0.71937(11) 0.38402(9) 0.05632(8)
O36 O 0.84979(9) 0.53340(13) 0.09955(8)
O38_2 O 0.75733(14) 0.61753(10) 0.08103(12)
Zn3_2 Zn 0.28839(2) 0.54331(2) 0.95830(2)
O1_2 O 0.27016(5) 0.50031(6) 0.91243(4)
O3_2 O 0.39500(7) 0.47597(9) 0.92700(7)
O5_2 O 0.36210(8) 0.52971(9) 0.97519(6)
O7_2 O 0.24964(10) 0.61580(9) 0.87938(7)
O8_2 O 0.32659(9) 0.38525(8) 0.89449(6)
O10_2 O 0.28063(11) 0.61598(9) 0.94368(8)
O12_2 O 0.19538(11) 0.46388(14) 0.98386(8)
C3_2 C 0.39815(11) 0.50242(15) 0.95934(11)
C4_2 C 0.45074(10) 0.50137(14) 0.98038(9)
C8_2 C 0.26457(15) 0.63807(17) 0.91043(13)
C11_2 C 0.26560(14) 0.69580(14) 0.91147(11)
O13_2 O 0.24267(14) 0.38247(10) 0.91897(12)
C16_2 C 0.32947(14) 0.27751(12) 0.89315(10)
H5_2 H 0.3595 0.2953 0.8841
C18_2 C 0.49228(13) 0.47332(15) 0.96522(10)
H7_2 H 0.4877 0.4549 0.9413
C22_2 C 0.54147(12) 0.47165(15) 0.98482(10)
H10_2 H 0.5692 0.4520 0.9740
C23_2 C 0.28641(14) 0.30462(14) 0.90607(12)
C25_2 C 0.28650(18) 0.36096(16) 0.90547(14)
C28_2 C 0.28119(19) 0.72407(12) 0.94454(13)
H13_2 H 0.2921 0.7065 0.9677
C32_2 C 0.25023(18) 0.72273(12) 0.87855(12)
H17_2 H 0.2395 0.7049 0.8555
C33_2 C 0.2447(2) 0.27658(14) 0.9186(2)
H18_2 H 0.2144 0.2939 0.9277
O16_2 O 0.24964(10) 0.88420(9) 0.87938(7)
O17_2 O 0.28063(11) 0.88402(9) 0.94368(8)
C38_2 C 0.26457(15) 0.86193(17) 0.91043(13)
C39_2 C 0.26560(14) 0.80420(14) 0.91147(11)
C40_2 C 0.28119(19) 0.77593(12) 0.94454(13)
H21_2 H 0.2921 0.7935 0.9677
C41_2 C 0.25023(18) 0.77727(12) 0.87855(12)
H22_2 H 0.2395 0.7951 0.8555
O18_2 O 0.32659(9) 0.11475(8) 0.89449(6)
O19_2 O 0.24267(14) 0.11753(10) 0.91897(12)
C42_2 C 0.32947(14) 0.22249(12) 0.89315(10)
H23_2 H 0.3595 0.2047 0.8841
C43_2 C 0.28641(14) 0.19538(14) 0.90607(12)
C44_2 C 0.28650(18) 0.13904(16) 0.90547(14)
C45_2 C 0.2447(2) 0.22342(14) 0.9186(2)
H24_2 H 0.2144 0.2061 0.9277
O24_2 O 0.75292(9) 0.46985(10) 0.99344(7)
N2_2 N 0.91245(8) 0.50651(14) 0.84543(7)
C46_2 C 0.82378(11) 0.50392(14) 0.68757(9)
C47_2 C 0.84588(10) 0.50493(14) 0.72865(8)
C48_2 C 0.89006(10) 0.50453(16) 0.80628(9)
C49_2 C 0.89392(12) 0.47949(15) 0.73762(9)
H25_2 H 0.9117 0.4624 0.7168
C50_2 C 0.82119(12) 0.52865(13) 0.76009(9)
H26_2 H 0.7885 0.5448 0.7557
C51_2 C 0.96888(10) 0.50409(18) 0.85112(9)
C52_2 C 0.84267(12) 0.52969(15) 0.79831(9)
H27_2 H 0.8251 0.5475 0.8188
C54_2 C 0.88036(11) 0.50640(18) 0.88016(9)
C55_2 C 0.91604(12) 0.47839(15) 0.77520(9)
H28_2 H 0.9477 0.4606 0.7800
H29_2 H 0.9893 0.5567 0.8107
C58_2 C 0.82028(11) 0.50479(17) 0.95106(9)
C60_2 C 0.89285(13) 0.53807(18) 0.91101(11)
H31_2 H 0.9217 0.5607 0.9087
C61_2 C 0.78999(13) 0.5031(2) 0.98963(10)
C62_2 C 0.83752(13) 0.47347(16) 0.88367(10)
H32_2 H 0.8284 0.4513 0.8626
C63_2 C 0.98956(13) 0.47169(17) 0.87886(11)
H33_2 H 0.9669 0.4499 0.8932
C65_2 C 0.80714(13) 0.47350(17) 0.91994(10)
H35_2 H 0.7777 0.4516 0.9222
C66_2 C 0.86253(15) 0.53734(18) 0.94704(10)
H36_2 H 0.8717 0.5594 0.9682
Zn11_2 Zn 0.33234(2) 0.03843(2) 0.89405(2)
Zn16_2 Zn 0.24208(2) 0.95856(2) 0.86828(2)
Zn17_2 Zn 0.28839(2) 0.95669(2) 0.95830(2)
Zn20_2 Zn 0.21564(2) 0.05080(2) 0.92913(2)
C12_2 C 0.92170(11) 0.49877(16) 0.13395(9)
C15_2 C 0.86347(13) 0.4980(2) 0.12521(11)
C17_2 C 0.99737(12) 0.46564(14) 0.16967(10)
C20_2 C 0.94309(12) 0.46723(14) 0.16228(10)
H8_2 H 0.9206 0.4459 0.1773
C29_2 C 0.95582(13) 0.52990(16) 0.11343(10)
H14_2 H 0.9426 0.5526 0.0940
C22_3 C 0.04147(12) 0.02835(15) 0.51518(10)
H10_3 H 0.0692 0.0480 0.5260
O15_3 O 0.13790(8) 0.02971(9) 0.47519(6)
C34_3 C 0.10185(11) 0.00242(15) 0.45934(11)
C35_3 C 0.04926(10) 0.00137(14) 0.48038(9)
O20_3 O 0.22984(5) 0.00031(6) 0.41243(4)
O21_2 O 0.35024(8) 0.02009(9) 0.83925(6)
O24_3 O 0.25292(9) 0.03015(10) 0.50656(7)
O25_2 O 0.65021(9) 0.03340(13) 0.59955(8)
C49_3 C 0.39392(12) 0.02051(15) 0.76238(9)
H25_3 H 0.4117 0.0376 0.7832
C55_3 C 0.41604(12) 0.02161(15) 0.72480(9)
H28_3 H 0.4477 0.0394 0.7200
C62_3 C 0.33752(13) 0.02653(16) 0.61633(10)
H32_3 H 0.3284 0.0487 0.6374
C63_3 C 0.48956(13) 0.02831(17) 0.62114(11)
H33_3 H 0.4669 0.0501 0.6068
C64_3 C 0.54418(13) 0.02990(16) 0.61343(10)
H34_3 H 0.5574 0.0526 0.5940
C65_3 C 0.30714(13) 0.02650(17) 0.58006(10)
H35_3 H 0.2777 0.0484 0.5778
Zn18_2 Zn 0.71564(2) 0.05080(2) 0.57087(2)
O30_2 O 0.21939(8) 0.02815(9) 0.31774(5)
O31_2 O 0.33315(7) 0.03246(9) 0.35593(7)
O14_3 O 0.10500(7) 0.97597(9) 0.42700(7)
C36_3 C 0.00772(13) 0.97332(15) 0.46522(10)
H19_3 H 0.0123 0.9549 0.4413
O22_2 O 0.28061(8) 0.97185(9) 0.81774(5)
O23_2 O 0.66685(7) 0.96754(9) 0.64407(7)
N2_3 N 0.41245(8) 0.99349(14) 0.65457(7)
C46_3 C 0.32378(11) 0.99608(14) 0.81243(9)
C47_3 C 0.34588(10) 0.99507(14) 0.77135(8)
O26_3 O 0.30462(11) 0.96388(14) 0.48386(8)
C48_3 C 0.39006(10) 0.99547(16) 0.69372(9)
C50_3 C 0.32119(12) 0.97135(13) 0.73991(9)
H26_3 H 0.2885 0.9552 0.7443
C51_3 C 0.46888(10) 0.99591(18) 0.64888(9)
C52_3 C 0.34267(12) 0.97031(15) 0.70169(9)
H27_3 H 0.3251 0.9525 0.6812
C53_3 C 0.57830(11) 0.99877(16) 0.63395(9)
C54_3 C 0.38036(11) 0.99360(18) 0.61984(9)
C56_3 C 0.63653(13) 0.9980(2) 0.62521(11)
C57_3 C 0.50263(12) 0.96564(14) 0.66967(10)
H29_3 H 0.4893 0.9433 0.6893
C58_3 C 0.32028(11) 0.99521(17) 0.54894(9)
C59_3 C 0.55691(12) 0.96723(14) 0.66228(10)
H30_3 H 0.5794 0.9459 0.6773
C60_3 C 0.39285(13) 0.96193(18) 0.58899(11)
H31_3 H 0.4217 0.9393 0.5913
C61_3 C 0.28999(13) 0.9969(2) 0.51037(10)
C66_3 C 0.36253(15) 0.96266(18) 0.55296(10)
H36_3 H 0.3717 0.9406 0.5318
Zn12 Zn 0.74208(2) 0.95856(2) 0.63172(2)
O28_2 O 0.14976(8) 0.97991(9) 0.33925(6)
O36_2 O 0.34979(9) 0.96660(13) 0.40045(8)
Zn1_2 Zn 0.83234(2) 0.03843(2) 0.60595(2)
O3_3 O 0.89500(7) 0.02403(9) 0.57300(7)
O4_2 O 0.71939(8) 0.02815(9) 0.18226(5)
O8_3 O 0.82659(9) 0.11475(8) 0.60551(6)
N1_3 N 0.58755(8) 0.00651(14) 0.34543(7)
C1_3 C 0.67622(11) 0.00392(14) 0.18757(9)
C2_3 C 0.65412(10) 0.00493(14) 0.22865(8)
O12_3 O 0.69538(11) 0.03612(14) 0.51614(8)
C5_3 C 0.60994(10) 0.00453(16) 0.30628(9)
C7_3 C 0.67881(12) 0.02865(13) 0.26009(9)
H2_3 H 0.7115 0.0448 0.2557
C9_3 C 0.53112(10) 0.00409(18) 0.35112(9)
C10_3 C 0.65733(12) 0.02969(15) 0.29831(9)
H3_3 H 0.6749 0.0475 0.3188
C12_3 C 0.42170(11) 0.00123(16) 0.36605(9)
C13_3 C 0.61964(11) 0.00640(18) 0.38016(9)
O13_3 O 0.74267(14) 0.11753(10) 0.58103(12)
C15_3 C 0.36347(13) 0.0020(2) 0.37479(11)
C16_3 C 0.82947(14) 0.22249(12) 0.60685(10)
H5_3 H 0.8595 0.2047 0.6159
C17_3 C 0.49737(12) 0.03436(14) 0.33033(10)
H6_3 H 0.5107 0.0567 0.3107
C18_3 C 0.99228(13) 0.02668(15) 0.53478(10)
H7_3 H 0.9877 0.0451 0.5587
C19_3 C 0.67972(11) 0.00479(17) 0.45106(9)
C20_3 C 0.44309(12) 0.03277(14) 0.33772(10)
H8_3 H 0.4206 0.0541 0.3227
C21_3 C 0.60715(13) 0.03807(18) 0.41101(11)
H9_3 H 0.5783 0.0607 0.4087
C23_3 C 0.78641(14) 0.19538(14) 0.59393(12)
C24_3 C 0.71001(13) 0.0031(2) 0.48963(10)
C25_3 C 0.78650(18) 0.13904(16) 0.59453(14)
C31_3 C 0.63747(15) 0.03734(18) 0.44704(10)
H16_3 H 0.6283 0.0594 0.4682
C33_3 C 0.7447(2) 0.22342(14) 0.5814(2)
H18_3 H 0.7144 0.2061 0.5723
C42_3 C 0.82947(14) 0.27751(12) 0.60685(10)
H23_3 H 0.8595 0.2953 0.6159
C43_3 C 0.78641(14) 0.30462(14) 0.59393(12)
C44_3 C 0.78650(18) 0.36096(16) 0.59453(14)
C45_3 C 0.7447(2) 0.27658(14) 0.5814(2)
H24_3 H 0.7144 0.2939 0.5723
Zn13_2 Zn 0.75792(2) 0.04144(2) 0.13172(2)
O27_2 O 0.85024(8) 0.02009(9) 0.66075(6)
Zn3_3 Zn 0.78839(2) 0.95669(2) 0.54170(2)
O1_3 O 0.77016(5) 0.99969(6) 0.58757(4)
O2_2 O 0.64976(8) 0.97991(9) 0.16075(6)
O5_3 O 0.86210(8) 0.97029(9) 0.52481(6)
O7_3 O 0.74964(10) 0.88420(9) 0.62062(7)
O9_3 O 0.74708(9) 0.96985(10) 0.49344(7)
O10_3 O 0.78063(11) 0.88402(9) 0.55632(8)
C3_3 C 0.89815(11) 0.99758(15) 0.54066(11)
C4_3 C 0.95074(10) 0.99863(14) 0.51962(9)
C6_3 C 0.60608(12) 0.97949(15) 0.23762(9)
H1_3 H 0.5883 0.9624 0.2168
C8_3 C 0.76457(15) 0.86193(17) 0.58957(13)
C11_3 C 0.76560(14) 0.80420(14) 0.58853(11)
C14_3 C 0.58396(12) 0.97839(15) 0.27520(9)
H4_3 H 0.5523 0.9606 0.2800
C26_3 C 0.66248(13) 0.97347(16) 0.38367(10)
H11_3 H 0.6716 0.9513 0.3626
C27_3 C 0.51044(13) 0.97169(17) 0.37886(11)
H12_3 H 0.5331 0.9499 0.3932
C28_3 C 0.78119(19) 0.77593(12) 0.55546(13)
H13_3 H 0.7921 0.7935 0.5323
C29_3 C 0.45582(13) 0.97010(16) 0.38657(10)
H14_3 H 0.4426 0.9474 0.4060
C30_3 C 0.69286(13) 0.97350(17) 0.41994(10)
H15_3 H 0.7223 0.9516 0.4222
C32_3 C 0.75023(18) 0.77727(12) 0.62145(12)
H17_3 H 0.7395 0.7951 0.6445
C37_3 C 0.95853(12) 0.97165(15) 0.48482(10)
H20_3 H 0.9308 0.9520 0.4740
C38_3 C 0.76457(15) 0.63807(17) 0.58957(13)
C39_3 C 0.76560(14) 0.69580(14) 0.58853(11)
C40_3 C 0.78119(19) 0.72407(12) 0.55546(13)
H21_3 H 0.7921 0.7065 0.5323
C41_3 C 0.75023(18) 0.72273(12) 0.62145(12)
H22_3 H 0.7395 0.7049 0.6445
Zn9_2 Zn 0.66766(2) 0.96157(2) 0.10595(2)
O29_2 O 0.78061(8) 0.97185(9) 0.68226(5)
O11_2 O 0.15021(9) 0.03340(13) 0.90045(8)
C29_4 C 0.04418(13) 0.02990(16) 0.88657(10)
H14_4 H 0.0574 0.0526 0.9060
O6_2 O 0.16685(7) 0.96754(9) 0.85593(7)
C12_4 C 0.07830(11) 0.99877(16) 0.86605(9)
C15_4 C 0.13653(13) 0.9980(2) 0.87479(11)
C17_4 C 0.00263(12) 0.96564(14) 0.83033(10)
C20_4 C 0.05691(12) 0.96723(14) 0.83772(10)
H8_4 H 0.0794 0.9459 0.8227
Zn3_4 Zn 0.71161(2) 0.04331(2) 0.04170(2)
O1_4 O 0.72984(5) 0.00031(6) 0.08757(4)
O5_4 O 0.63790(8) 0.02971(9) 0.02481(6)
O7_4 O 0.75036(10) 0.11580(9) 0.12062(7)
O10_4 O 0.71937(11) 0.11598(9) 0.05632(8)
C3_4 C 0.60185(11) 0.00242(15) 0.04066(11)
C4_4 C 0.54926(10) 0.00137(14) 0.01962(9)
C8_4 C 0.73543(15) 0.13807(17) 0.08957(13)
C11_4 C 0.73440(14) 0.19580(14) 0.08853(11)
C28_4 C 0.71881(19) 0.22407(12) 0.05546(13)
H13_4 H 0.7079 0.2065 0.0323
C32_4 C 0.74977(18) 0.22273(12) 0.12145(12)
H17_4 H 0.7605 0.2049 0.1445
C38_4 C 0.73543(15) 0.36193(17) 0.08957(13)
C39_4 C 0.73440(14) 0.30420(14) 0.08853(11)
C40_4 C 0.71881(19) 0.27593(12) 0.05546(13)
H21_4 H 0.7079 0.2935 0.0323
C41_4 C 0.74977(18) 0.27727(12) 0.12145(12)
H22_4 H 0.7605 0.2951 0.1445
N2_4 N 0.08755(8) 0.00651(14) 0.15457(7)
C46_4 C 0.17622(11) 0.00392(14) 0.31243(9)
C47_4 C 0.15412(10) 0.00493(14) 0.27135(8)
C48_4 C 0.10994(10) 0.00453(16) 0.19372(9)
C50_4 C 0.17881(12) 0.02865(13) 0.23991(9)
H26_4 H 0.2115 0.0448 0.2443
C51_4 C 0.03112(10) 0.00409(18) 0.14888(9)
C52_4 C 0.15733(12) 0.02969(15) 0.20169(9)
H27_4 H 0.1749 0.0475 0.1812
C54_4 C 0.11964(11) 0.00640(18) 0.11984(9)
H29_4 H 0.0107 0.0567 0.1893
C58_4 C 0.17972(11) 0.00479(17) 0.04894(9)
C60_4 C 0.10715(13) 0.03807(18) 0.08899(11)
H31_4 H 0.0783 0.0607 0.0913
C61_4 C 0.21001(13) 0.0031(2) 0.01037(10)
C66_4 C 0.13747(15) 0.03734(18) 0.05296(10)
H36_4 H 0.1283 0.0594 0.0318
O32_2 O 0.83315(7) 0.03246(9) 0.14407(7)
O9_4 O 0.75292(9) 0.03015(10) 0.99344(7)
C6_4 C 0.89392(12) 0.02051(15) 0.73762(9)
H1_4 H 0.9117 0.0376 0.7168
C14_4 C 0.91604(12) 0.02161(15) 0.77520(9)
H4_4 H 0.9477 0.0394 0.7800
C26_4 C 0.83752(13) 0.02653(16) 0.88367(10)
H11_4 H 0.8284 0.0487 0.8626
C27_4 C 0.98956(13) 0.02831(17) 0.87886(11)
H12_4 H 0.9669 0.0501 0.8932
C30_4 C 0.80714(13) 0.02650(17) 0.91994(10)
H15_4 H 0.7777 0.0484 0.9222
O14_4 O 0.39500(7) 0.02403(9) 0.92700(7)
C36_4 C 0.49228(13) 0.02668(15) 0.96522(10)
H19_4 H 0.4877 0.0451 0.9413
C37_4 C 0.54147(12) 0.02835(15) 0.98482(10)
H20_4 H 0.5692 0.0480 0.9740
O26_4 O 0.19538(11) 0.03612(14) 0.98386(8)
Zn4_2 Zn 0.78436(2) 0.94920(2) 0.07087(2)
O3_4 O 0.60500(7) 0.97597(9) 0.07300(7)
O8_4 O 0.67341(9) 0.88525(8) 0.10551(6)
O12_4 O 0.80462(11) 0.96388(14) 0.01614(8)
O13_4 O 0.75733(14) 0.88247(10) 0.08103(12)
C16_4 C 0.67053(14) 0.77751(12) 0.10685(10)
H5_4 H 0.6405 0.7953 0.1159
C18_4 C 0.50772(13) 0.97332(15) 0.03478(10)
H7_4 H 0.5123 0.9549 0.0587
C22_4 C 0.45853(12) 0.97165(15) 0.01518(10)
H10_4 H 0.4308 0.9520 0.0260
C23_4 C 0.71359(14) 0.80462(14) 0.09393(12)
C25_4 C 0.71350(18) 0.86096(16) 0.09453(14)
C33_4 C 0.7553(2) 0.77658(14) 0.0814(2)
H18_4 H 0.7856 0.7939 0.0723
C42_4 C 0.67053(14) 0.72249(12) 0.10685(10)
H23_4 H 0.6405 0.7047 0.1159
C43_4 C 0.71359(14) 0.69538(14) 0.09393(12)
C44_4 C 0.71350(18) 0.63904(16) 0.09453(14)
C45_4 C 0.7553(2) 0.72342(14) 0.0814(2)
H24_4 H 0.7856 0.7061 0.0723
O24_4 O 0.24708(9) 0.96985(10) 0.00656(7)
C49_4 C 0.10608(12) 0.97949(15) 0.26238(9)
H25_4 H 0.0883 0.9624 0.2832
C55_4 C 0.08396(12) 0.97839(15) 0.22480(9)
H28_4 H 0.0523 0.9606 0.2200
C62_4 C 0.16248(13) 0.97347(16) 0.11633(10)
H32_4 H 0.1716 0.9513 0.1374
C63_4 C 0.01044(13) 0.97169(17) 0.12114(11)
H33_4 H 0.0331 0.9499 0.1068
C65_4 C 0.19286(13) 0.97350(17) 0.08006(10)
H35_4 H 0.2223 0.9516 0.0778
O37_2 O 0.84979(9) 0.96660(13) 0.09955(8)
N1_4 N 0.91245(8) 0.99349(14) 0.84543(7)
C1_4 C 0.82378(11) 0.99608(14) 0.68757(9)
C2_4 C 0.84588(10) 0.99507(14) 0.72865(8)
C5_4 C 0.89006(10) 0.99547(16) 0.80628(9)
C7_4 C 0.82119(12) 0.97135(13) 0.76009(9)
H2_4 H 0.7885 0.9552 0.7557
C9_4 C 0.96888(10) 0.99591(18) 0.85112(9)
C10_4 C 0.84267(12) 0.97031(15) 0.79831(9)
H3_4 H 0.8251 0.9525 0.8188
C13_4 C 0.88036(11) 0.99360(18) 0.88016(9)
H6_4 H 0.9893 0.9433 0.8107
C19_4 C 0.82028(11) 0.99521(17) 0.95106(9)
C21_4 C 0.89285(13) 0.96193(18) 0.91101(11)
H9_4 H 0.9217 0.9393 0.9087
C24_4 C 0.78999(13) 0.9969(2) 0.98963(10)
C31_4 C 0.86253(15) 0.96266(18) 0.94704(10)
H16_4 H 0.8717 0.9406 0.9682
O15_4 O 0.36210(8) 0.97029(9) 0.97519(6)
C34_4 C 0.39815(11) 0.99758(15) 0.95934(11)
C35_4 C 0.45074(10) 0.99863(14) 0.98038(9)
O20_4 O 0.27016(5) 0.99969(6) 0.91243(4)
C53_4 C 0.92170(11) 0.00123(16) 0.13395(9)
C56_4 C 0.86347(13) 0.0020(2) 0.12521(11)
C57_4 C 0.99737(12) 0.03436(14) 0.16967(10)
C59_4 C 0.94309(12) 0.03277(14) 0.16228(10)
H30_4 H 0.9206 0.0541 0.1773
C64_4 C 0.95582(13) 0.97010(16) 0.11343(10)
H34_4 H 0.9426 0.9474 0.0940
loop_
_geom_bond_atom_site_label_1
_geom_bond_atom_site_label_2
_geom_bond_site_symmetry_1
_geom_bond_site_symmetry_2
Zn1 O1 1_555 1_555
Zn2 O1 1_555 1_555
Zn3 O1 1_555 1_555
Zn4 O1 1_555 1_555
O2 C1 1_555 1_555
O3 Zn1 1_555 1_555
O4 C1 1_555 1_555
O5 Zn3 1_555 1_555
O6 C15 1_555 1_555
O7 Zn2 1_555 1_555
O8 Zn1 1_555 1_555
O9 Zn3 1_555 1_555
O10 Zn3 1_555 1_555
N1 C5 1_555 1_555
C1 C2 1_555 1_555
C2 C6 1_555 1_555
O11 C15 1_555 1_555
O12 Zn4 1_555 1_555
C3 O3 1_555 1_555
C4 C3 1_555 1_555
C5 C10 1_555 1_555
C6 H1 1_555 1_555
C7 C2 1_555 1_555
H2 C7 1_555 1_555
C8 O7 1_555 1_555
C9 N1 1_555 1_555
C10 C7 1_555 1_555
H3 C10 1_555 1_555
C11 C8 1_555 1_555
C12 C15 1_555 1_555
C13 N1 1_555 1_555
C14 C5 1_555 1_555
H4 C14 1_555 1_555
O13 Zn4 1_555 1_555
C16 H5 1_555 1_555
C17 C9 1_555 1_555
H6 C17 1_555 1_555
C18 C4 1_555 1_555
H7 C18 1_555 1_555
C19 C24 1_555 1_555
C20 C12 1_555 1_555
H8 C20 1_555 1_555
C21 C13 1_555 1_555
H9 C21 1_555 1_555
C23 C16 1_555 1_555
C24 O9 1_555 1_555
C25 O8 1_555 1_555
C26 C13 1_555 1_555
H11 C26 1_555 1_555
C27 C9 1_555 1_555
H12 C27 1_555 1_555
C28 C11 1_555 1_555
H13 C28 1_555 1_555
C29 C12 1_555 1_555
H14 C29 1_555 1_555
C30 C19 1_555 1_555
H15 C30 1_555 1_555
C31 C19 1_555 1_555
H16 C31 1_555 1_555
C32 C11 1_555 1_555
H17 C32 1_555 1_555
C33 C23 1_555 1_555
H18 C33 1_555 1_555
C37 C4 1_555 1_555
H20 C37 1_555 1_555
O16 C38 1_555 1_555
O17 C38 1_555 1_555
C38 C39 1_555 1_555
C39 C40 1_555 1_555
C40 C28 1_555 1_555
H21 C40 1_555 1_555
C41 C32 1_555 1_555
H22 C41 1_555 1_555
O18 C44 1_555 1_555
O19 C44 1_555 1_555
C42 C16 1_555 1_555
H23 C42 1_555 1_555
C43 C42 1_555 1_555
C44 C43 1_555 1_555
C45 C33 1_555 1_555
H24 C45 1_555 1_555
Zn9 O2 1_555 1_555
Zn11 O18 1_555 1_555
Zn13 O4 1_555 1_555
Zn14 O6 1_555 1_555
Zn16 O16 1_555 1_555
Zn17 O17 1_555 1_555
Zn19 O11 1_555 1_555
Zn20 O19 1_555 1_555
O27 Zn1 1_555 1_555
O29 Zn2 1_555 1_555
O32 Zn2 1_555 1_555
O37 Zn4 1_555 1_555
O5 C3 1_555 1_555
O10 C8 1_555 1_555
O12 C24 1_555 1_555
C6 C14 1_555 1_555
O13 C25 1_555 1_555
C17 C20 1_555 1_555
C21 C31 1_555 1_555
C23 C25 1_555 1_555
C26 C30 1_555 1_555
C27 C29 1_555 1_555
C39 C41 1_555 1_555
C43 C45 1_555 1_555
H10 C22 1_555 1_555
O14 C34 1_555 1_555
O15 C34 1_555 1_555
C34 C35 1_555 1_555
C35 C22 1_555 1_555
C36 C35 1_555 1_555
H19 C36 1_555 1_555
Zn5 O14 1_555 1_555
Zn14 O20 1_555 1_555
Zn7 O15 1_555 1_555
Zn19 O20 1_555 1_555
O20 Zn5 1_555 1_555
O21 C46 1_555 1_555
O22 C46 1_555 1_555
O32 C56 1_555 1_555
O24 Zn7 1_555 1_555
N2 C48 1_555 1_555
C46 C47 1_555 1_555
C47 C49 1_555 1_555
O37 C56 1_555 1_555
O26 Zn19 1_555 1_555
C48 C52 1_555 1_555
C49 H25 1_555 1_555
C50 C47 1_555 1_555
H26 C50 1_555 1_555
C51 N2 1_555 1_555
C52 C50 1_555 1_555
H27 C52 1_555 1_555
C53 C56 1_555 1_555
C54 N2 1_555 1_555
C55 C48 1_555 1_555
H28 C55 1_555 1_555
C57 C51 1_555 1_555
H29 C57 1_555 1_555
C58 C61 1_555 1_555
C59 C53 1_555 1_555
H30 C59 1_555 1_555
C60 C54 1_555 1_555
H31 C60 1_555 1_555
C61 O24 1_555 1_555
C62 C54 1_555 1_555
H32 C62 1_555 1_555
C63 C51 1_555 1_555
H33 C63 1_555 1_555
C64 C53 1_555 1_555
H34 C64 1_555 1_555
C65 C58 1_555 1_555
H35 C65 1_555 1_555
C66 C58 1_555 1_555
H36 C66 1_555 1_555
Zn10 O21 1_555 1_555
Zn15 O22 1_555 1_555
O28 Zn5 1_555 1_555
O30 Zn14 1_555 1_555
O33 Zn14 1_555 1_555
O34 Zn5 1_555 1_555
O35 Zn7 1_555 1_555
O38 Zn19 1_555 1_555
Zn7 O20 1_555 1_555
O26 C61 1_555 1_555
C49 C55 1_555 1_555
C57 C59 1_555 1_555
C60 C66 1_555 1_555
C62 C65 1_555 1_555
C63 C64 1_555 1_555
O23 C56_2 1_555 1_555
O25 C56_2 1_555 1_555
C53_2 C56_2 1_555 1_555
C59_2 C53_2 1_555 1_555
H30_2 C59_2 1_555 1_555
C64_2 C53_2 1_555 1_555
H34_2 C64_2 1_555 1_555
Zn13 O23 1_555 1_555
Zn18 O25 1_555 1_555
C57_2 C59_2 1_555 1_555
O27 C1_2 1_555 1_555
O29 C1_2 1_555 1_555
N1_2 C5_2 1_555 1_555
C1_2 C2_2 1_555 1_555
C2_2 C6_2 1_555 1_555
C5_2 C10_2 1_555 1_555
C6_2 H1_2 1_555 1_555
C7_2 C2_2 1_555 1_555
H2_2 C7_2 1_555 1_555
C9_2 N1_2 1_555 1_555
C10_2 C7_2 1_555 1_555
H3_2 C10_2 1_555 1_555
C13_2 N1_2 1_555 1_555
C14_2 C5_2 1_555 1_555
H4_2 C14_2 1_555 1_555
C19_2 C24_2 1_555 1_555
C21_2 C13_2 1_555 1_555
H9_2 C21_2 1_555 1_555
C24_2 O9_2 1_555 1_555
C26_2 C13_2 1_555 1_555
H11_2 C26_2 1_555 1_555
C27_2 C9_2 1_555 1_555
H12_2 C27_2 1_555 1_555
C30_2 C19_2 1_555 1_555
H15_2 C30_2 1_555 1_555
C31_2 C19_2 1_555 1_555
H16_2 C31_2 1_555 1_555
O14_2 C34_2 1_555 1_555
O15_2 C34_2 1_555 1_555
C34_2 C35_2 1_555 1_555
C36_2 C35_2 1_555 1_555
H19_2 C36_2 1_555 1_555
H20_2 C37_2 1_555 1_555
Zn10 O14_2 1_555 1_555
Zn15 O20_2 1_555 1_555
Zn7_2 O15_2 1_555 1_555
Zn8 O20_2 1_555 1_555
O20_2 Zn10 1_555 1_555
O26_2 Zn8 1_555 1_555
O31 Zn15 1_555 1_555
O33_2 Zn15 1_555 1_555
O34_2 Zn10 1_555 1_555
O35_2 Zn7_2 1_555 1_555
O36 Zn8 1_555 1_555
O38_2 Zn8 1_555 1_555
C6_2 C14_2 1_555 1_555
C21_2 C31_2 1_555 1_555
C26_2 C30_2 1_555 1_555
C36_2 C37_2 1_555 1_555
Zn7_2 O20_2 1_555 1_555
Zn9 O1_2 1_555 1_555
Zn13 O1_2 1_555 1_555
Zn3_2 O1_2 1_555 1_555
Zn18 O1_2 1_555 1_555
O3_2 Zn9 1_555 1_555
O5_2 Zn3_2 1_555 1_555
O7_2 Zn13 1_555 1_555
O8_2 Zn9 1_555 1_555
O10_2 Zn3_2 1_555 1_555
O12_2 Zn18 1_555 1_555
C3_2 O3_2 1_555 1_555
C4_2 C3_2 1_555 1_555
C8_2 O7_2 1_555 1_555
C11_2 C8_2 1_555 1_555
O13_2 Zn18 1_555 1_555
C16_2 H5_2 1_555 1_555
C18_2 C4_2 1_555 1_555
H7_2 C18_2 1_555 1_555
C22_2 C18_2 1_555 1_555
H10_2 C22_2 1_555 1_555
C23_2 C16_2 1_555 1_555
C25_2 O8_2 1_555 1_555
C28_2 C11_2 1_555 1_555
H13_2 C28_2 1_555 1_555
C32_2 C11_2 1_555 1_555
H17_2 C32_2 1_555 1_555
C33_2 C23_2 1_555 1_555
H18_2 C33_2 1_555 1_555
O16_2 C38_2 1_555 1_555
O17_2 C38_2 1_555 1_555
C38_2 C39_2 1_555 1_555
C39_2 C40_2 1_555 1_555
C40_2 C28_2 1_555 1_555
H21_2 C40_2 1_555 1_555
C41_2 C32_2 1_555 1_555
H22_2 C41_2 1_555 1_555
O18_2 C44_2 1_555 1_555
O19_2 C44_2 1_555 1_555
C42_2 C16_2 1_555 1_555
H23_2 C42_2 1_555 1_555
C43_2 C42_2 1_555 1_555
C44_2 C43_2 1_555 1_555
C45_2 C33_2 1_555 1_555
H24_2 C45_2 1_555 1_555
O28 C46_2 1_555 1_555
O30 C46_2 1_555 1_555
N2_2 C48_2 1_555 1_555
C46_2 C47_2 1_555 1_555
C47_2 C49_2 1_555 1_555
C48_2 C52_2 1_555 1_555
C49_2 H25_2 1_555 1_555
C50_2 C47_2 1_555 1_555
H26_2 C50_2 1_555 1_555
C51_2 N2_2 1_555 1_555
C52_2 C50_2 1_555 1_555
H27_2 C52_2 1_555 1_555
C54_2 N2_2 1_555 1_555
C55_2 C48_2 1_555 1_555
H28_2 C55_2 1_555 1_555
C58_2 C61_2 1_555 1_555
C60_2 C54_2 1_555 1_555
H31_2 C60_2 1_555 1_555
C61_2 O24_2 1_555 1_555
C62_2 C54_2 1_555 1_555
H32_2 C62_2 1_555 1_555
C63_2 C51_2 1_555 1_555
H33_2 C63_2 1_555 1_555
C65_2 C58_2 1_555 1_555
H35_2 C65_2 1_555 1_555
C66_2 C58_2 1_555 1_555
H36_2 C66_2 1_555 1_555
Zn11_2 O18_2 1_555 1_555
Zn16_2 O16_2 1_555 1_555
Zn17_2 O17_2 1_555 1_555
Zn20_2 O19_2 1_555 1_555
O5_2 C3_2 1_555 1_555
O10_2 C8_2 1_555 1_555
O13_2 C25_2 1_555 1_555
C23_2 C25_2 1_555 1_555
C39_2 C41_2 1_555 1_555
C43_2 C45_2 1_555 1_555
C49_2 C55_2 1_555 1_555
C60_2 C66_2 1_555 1_555
C62_2 C65_2 1_555 1_555
O31 C15_2 1_555 1_555
O36 C15_2 1_555 1_555
C12_2 C15_2 1_555 1_555
C20_2 C12_2 1_555 1_555
H8_2 C20_2 1_555 1_555
C29_2 C12_2 1_555 1_555
H14_2 C29_2 1_555 1_555
C17_2 C20_2 1_555 1_555
H10_3 C22_3 1_555 1_555
O15_3 C34_3 1_555 1_555
C34_3 C35_3 1_555 1_555
C35_3 C22_3 1_555 1_555
Zn16 O20_3 1_555 1_555
Zn17 O15_3 1_555 1_555
O24_3 Zn17 1_555 1_555
C49_3 H25_3 1_555 1_555
H28_3 C55_3 1_555 1_555
H32_3 C62_3 1_555 1_555
H33_3 C63_3 1_555 1_555
H34_3 C64_3 1_555 1_555
H35_3 C65_3 1_555 1_555
Zn11_2 O21_2 1_555 1_555
Zn18_2 O25_2 1_555 1_555
O30_2 Zn16 1_555 1_555
O31_2 Zn16 1_555 1_555
Zn17 O20_3 1_555 1_555
C49_3 C55_3 1_555 1_555
C62_3 C65_3 1_555 1_555
C63_3 C64_3 1_555 1_555
H19_3 C36_3 1_555 1_555
Zn11 O14_3 1_555 1_555
O22_2 C46_3 1_555 1_555
O23_2 C56_3 1_555 1_555
N2_3 C48_3 1_555 1_555
C46_3 C47_3 1_555 1_555
O26_3 Zn20 1_555 1_555
C48_3 C52_3 1_555 1_555
C50_3 C47_3 1_555 1_555
H26_3 C50_3 1_555 1_555
C51_3 N2_3 1_555 1_555
C52_3 C50_3 1_555 1_555
H27_3 C52_3 1_555 1_555
C53_3 C56_3 1_555 1_555
C54_3 N2_3 1_555 1_555
C57_3 C51_3 1_555 1_555
H29_3 C57_3 1_555 1_555
C58_3 C61_3 1_555 1_555
C59_3 C53_3 1_555 1_555
H30_3 C59_3 1_555 1_555
C60_3 C54_3 1_555 1_555
H31_3 C60_3 1_555 1_555
C66_3 C58_3 1_555 1_555
H36_3 C66_3 1_555 1_555
Zn12 O23_2 1_555 1_555
Zn16_2 O22_2 1_555 1_555
O28_2 Zn11 1_555 1_555
O36_2 Zn20 1_555 1_555
O26_3 C61_3 1_555 1_555
C57_3 C59_3 1_555 1_555
C60_3 C66_3 1_555 1_555
O3_3 Zn1_2 1_555 1_555
O4_2 C1_3 1_555 1_555
O31_2 C15_3 1_555 1_555
O8_3 Zn1_2 1_555 1_555
N1_3 C5_3 1_555 1_555
C1_3 C2_3 1_555 1_555
O12_3 Zn18_2 1_555 1_555
C5_3 C10_3 1_555 1_555
C7_3 C2_3 1_555 1_555
H2_3 C7_3 1_555 1_555
C9_3 N1_3 1_555 1_555
C10_3 C7_3 1_555 1_555
H3_3 C10_3 1_555 1_555
C12_3 C15_3 1_555 1_555
C13_3 N1_3 1_555 1_555
O13_3 Zn18_2 1_555 1_555
C16_3 H5_3 1_555 1_555
C17_3 C9_3 1_555 1_555
H6_3 C17_3 1_555 1_555
H7_3 C18_3 1_555 1_555
C19_3 C24_3 1_555 1_555
C20_3 C12_3 1_555 1_555
H8_3 C20_3 1_555 1_555
C21_3 C13_3 1_555 1_555
H9_3 C21_3 1_555 1_555
C23_3 C16_3 1_555 1_555
C25_3 O8_3 1_555 1_555
C31_3 C19_3 1_555 1_555
H16_3 C31_3 1_555 1_555
C33_3 C23_3 1_555 1_555
H18_3 C33_3 1_555 1_555
O34 C44_3 1_555 1_555
O38 C44_3 1_555 1_555
C42_3 C16_3 1_555 1_555
H23_3 C42_3 1_555 1_555
C43_3 C42_3 1_555 1_555
C44_3 C43_3 1_555 1_555
C45_3 C33_3 1_555 1_555
H24_3 C45_3 1_555 1_555
Zn13_2 O4_2 1_555 1_555
O27_2 Zn1_2 1_555 1_555
O12_3 C24_3 1_555 1_555
O13_3 C25_3 1_555 1_555
C17_3 C20_3 1_555 1_555
C21_3 C31_3 1_555 1_555
C23_3 C25_3 1_555 1_555
C43_3 C45_3 1_555 1_555
Zn12 O1_3 1_555 1_555
Zn3_3 O1_3 1_555 1_555
O5_3 Zn3_3 1_555 1_555
O7_3 Zn12 1_555 1_555
O9_3 Zn3_3 1_555 1_555
O10_3 Zn3_3 1_555 1_555
C4_3 C3_3 1_555 1_555
C6_3 H1_3 1_555 1_555
C8_3 O7_3 1_555 1_555
C11_3 C8_3 1_555 1_555
H4_3 C14_3 1_555 1_555
H11_3 C26_3 1_555 1_555
H12_3 C27_3 1_555 1_555
C28_3 C11_3 1_555 1_555
H13_3 C28_3 1_555 1_555
H14_3 C29_3 1_555 1_555
H15_3 C30_3 1_555 1_555
C32_3 C11_3 1_555 1_555
H17_3 C32_3 1_555 1_555
C37_3 C4_3 1_555 1_555
H20_3 C37_3 1_555 1_555
O33 C38_3 1_555 1_555
O35 C38_3 1_555 1_555
C38_3 C39_3 1_555 1_555
C39_3 C40_3 1_555 1_555
C40_3 C28_3 1_555 1_555
H21_3 C40_3 1_555 1_555
C41_3 C32_3 1_555 1_555
H22_3 C41_3 1_555 1_555
Zn9_2 O2_2 1_555 1_555
O29_2 Zn12 1_555 1_555
O5_3 C3_3 1_555 1_555
O10_3 C8_3 1_555 1_555
C6_3 C14_3 1_555 1_555
C26_3 C30_3 1_555 1_555
C27_3 C29_3 1_555 1_555
C39_3 C41_3 1_555 1_555
H14_4 C29_4 1_555 1_555
Zn20_2 O11_2 1_555 1_555
O6_2 C15_4 1_555 1_555
C12_4 C15_4 1_555 1_555
C20_4 C12_4 1_555 1_555
H8_4 C20_4 1_555 1_555
Zn16_2 O6_2 1_555 1_555
C17_4 C20_4 1_555 1_555
Zn13_2 O1_4 1_555 1_555
Zn3_4 O1_4 1_555 1_555
O5_4 Zn3_4 1_555 1_555
O7_4 Zn13_2 1_555 1_555
O10_4 Zn3_4 1_555 1_555
C4_4 C3_4 1_555 1_555
C8_4 O7_4 1_555 1_555
C11_4 C8_4 1_555 1_555
C28_4 C11_4 1_555 1_555
H13_4 C28_4 1_555 1_555
C32_4 C11_4 1_555 1_555
H17_4 C32_4 1_555 1_555
O33_2 C38_4 1_555 1_555
O35_2 C38_4 1_555 1_555
C38_4 C39_4 1_555 1_555
C39_4 C40_4 1_555 1_555
C40_4 C28_4 1_555 1_555
H21_4 C40_4 1_555 1_555
C41_4 C32_4 1_555 1_555
H22_4 C41_4 1_555 1_555
O30_2 C46_4 1_555 1_555
N2_4 C48_4 1_555 1_555
C46_4 C47_4 1_555 1_555
C48_4 C52_4 1_555 1_555
C50_4 C47_4 1_555 1_555
H26_4 C50_4 1_555 1_555
C51_4 N2_4 1_555 1_555
C52_4 C50_4 1_555 1_555
H27_4 C52_4 1_555 1_555
C54_4 N2_4 1_555 1_555
C58_4 C61_4 1_555 1_555
C60_4 C54_4 1_555 1_555
H31_4 C60_4 1_555 1_555
C66_4 C58_4 1_555 1_555
H36_4 C66_4 1_555 1_555
O32_2 Zn13_2 1_555 1_555
O5_4 C3_4 1_555 1_555
O10_4 C8_4 1_555 1_555
C39_4 C41_4 1_555 1_555
C60_4 C66_4 1_555 1_555
C6_4 H1_4 1_555 1_555
H4_4 C14_4 1_555 1_555
H11_4 C26_4 1_555 1_555
H12_4 C27_4 1_555 1_555
H15_4 C30_4 1_555 1_555
H19_4 C36_4 1_555 1_555
H20_4 C37_4 1_555 1_555
Zn11_2 O14_4 1_555 1_555
O26_4 Zn20_2 1_555 1_555
C6_4 C14_4 1_555 1_555
C26_4 C30_4 1_555 1_555
C36_4 C37_4 1_555 1_555
O3_4 Zn9_2 1_555 1_555
O8_4 Zn9_2 1_555 1_555
O12_4 Zn4_2 1_555 1_555
O13_4 Zn4_2 1_555 1_555
C16_4 H5_4 1_555 1_555
H7_4 C18_4 1_555 1_555
C22_4 C18_4 1_555 1_555
H10_4 C22_4 1_555 1_555
C23_4 C16_4 1_555 1_555
C25_4 O8_4 1_555 1_555
C33_4 C23_4 1_555 1_555
H18_4 C33_4 1_555 1_555
O34_2 C44_4 1_555 1_555
O38_2 C44_4 1_555 1_555
C42_4 C16_4 1_555 1_555
H23_4 C42_4 1_555 1_555
C43_4 C42_4 1_555 1_555
C44_4 C43_4 1_555 1_555
C45_4 C33_4 1_555 1_555
H24_4 C45_4 1_555 1_555
C49_4 H25_4 1_555 1_555
H28_4 C55_4 1_555 1_555
H32_4 C62_4 1_555 1_555
H33_4 C63_4 1_555 1_555
H35_4 C65_4 1_555 1_555
O37_2 Zn4_2 1_555 1_555
O13_4 C25_4 1_555 1_555
C23_4 C25_4 1_555 1_555
C43_4 C45_4 1_555 1_555
C49_4 C55_4 1_555 1_555
C62_4 C65_4 1_555 1_555
O29_2 C1_4 1_555 1_555
N1_4 C5_4 1_555 1_555
C1_4 C2_4 1_555 1_555
C5_4 C10_4 1_555 1_555
C7_4 C2_4 1_555 1_555
H2_4 C7_4 1_555 1_555
C9_4 N1_4 1_555 1_555
C10_4 C7_4 1_555 1_555
H3_4 C10_4 1_555 1_555
C13_4 N1_4 1_555 1_555
C19_4 C24_4 1_555 1_555
C21_4 C13_4 1_555 1_555
H9_4 C21_4 1_555 1_555
C31_4 C19_4 1_555 1_555
H16_4 C31_4 1_555 1_555
O15_4 C34_4 1_555 1_555
C34_4 C35_4 1_555 1_555
Zn16_2 O20_4 1_555 1_555
Zn17_2 O15_4 1_555 1_555
C21_4 C31_4 1_555 1_555
Zn17_2 O20_4 1_555 1_555
O32_2 C56_4 1_555 1_555
C53_4 C56_4 1_555 1_555
C59_4 C53_4 1_555 1_555
H30_4 C59_4 1_555 1_555
C57_4 C59_4 1_555 1_555
H34_4 C64_4 1_555 1_555

#END
