
###############################################################################
#
# This file contains modified crystal structure data generated from the
# MOF subset of the Cambridge Structural Database (CSD) v543 
# hosted by the Cambridge Crystallographic Data Centre (CCDC).
#
# This work is licensed under the Creative Commons
# Attribution-NonCommercial-ShareAlike 4.0 International License.
# To view a copy of this license, visit
# http://creativecommons.org/licenses/by-nc-sa/4.0/
# or send a letter to
# Creative Commons, PO Box 1866, Mountain View, CA 94042, USA.
#
# CIF created using the CSD Python API on 29 September 2022
# The structure has been converted into the P1 space group
# The structure has a 3D framework
# The original CSD entry VAXTEV is in the monoclinic crystal system
# The framework has been calculated to contain at least 10.0% void space
# The void calculation uses a probe of radius 1.32A, grid spacing 0.4
# H atom positions have been added when not included in the experimental data
#
###############################################################################

data_VAXTEV
_chemical_formula_moiety         '(C304 H336 Cd8 N16 O76)n'
_symmetry_cell_setting           triclinic
_symmetry_space_group_name_H-M   'P 1'
_symmetry_Int_Tables_number      1
_space_group_name_Hall           'P 1'
loop_
_symmetry_equiv_pos_site_id
_symmetry_equiv_pos_as_xyz
1 x,y,z
_cell_length_a                   23.681(2)
_cell_length_b                   9.6928(7)
_cell_length_c                   35.389(3)
_cell_angle_alpha                90
_cell_angle_beta                 92.7890(10)
_cell_angle_gamma                90
_cell_volume                     8113.4
loop_
_atom_site_label
_atom_site_type_symbol
_atom_site_fract_x
_atom_site_fract_y
_atom_site_fract_z
O10 O 0.12003(16) 0.1234(5) 0.33123(12)
N1 N 0.0352(2) 0.2140(6) 0.32402(19)
C34 C 0.0744(3) 0.1131(8) 0.3211(2)
C35 C 0.0465(4) 0.3350(9) 0.3427(3)
H28 H 0.0837 0.3309 0.3547
H29 H 0.0192 0.3490 0.3615
H30 H 0.0446 0.4101 0.3250
O12 O 0.20438(14) 0.0460(4) 0.26451(9)
O13 O 0.24462(15) 0.0610(4) 0.36988(12)
H42 H 0.0609048 0.0159068 0.308134
O3 O 0.62449(15) 0.7456(4) 0.45212(10)
O4 O 0.6362(2) 0.6048(5) 0.76623(11)
O5 O 0.70438(14) 0.4540(4) 0.76451(9)
O6 O 0.61810(18) 0.4630(4) 0.59112(10)
O9 O 0.48921(12) 0.1934(3) 0.44336(9)
C1 C 0.6206(2) 0.5104(5) 0.46961(14)
C2 C 0.6457(2) 0.4802(5) 0.50576(14)
C3 C 0.6208(2) 0.3831(5) 0.52895(13)
C4 C 0.5697(2) 0.3183(5) 0.51646(13)
C5 C 0.54285(19) 0.3559(5) 0.48227(12)
C6 C 0.5682(2) 0.4499(5) 0.45837(12)
C7 C 0.6486(2) 0.6109(5) 0.44372(15)
H1 H 0.6892 0.6114 0.4487
H2 H 0.6406 0.5866 0.4174
C8 C 0.7005(3) 0.5570(7) 0.51885(19)
H3 H 0.7324 0.4967 0.5166
H4 H 0.6982 0.5846 0.5448
H5 H 0.7051 0.6371 0.5034
C9 C 0.6440(2) 0.3580(6) 0.56865(14)
H6 H 0.6340 0.2665 0.5772
H7 H 0.6849 0.3670 0.5701
C10 C 0.5440(3) 0.2037(6) 0.54111(17)
H8 H 0.5165 0.1522 0.5261
H9 H 0.5261 0.2452 0.5621
H10 H 0.5734 0.1428 0.5504
C11 C 0.48425(19) 0.2997(5) 0.47144(14)
H11 H 0.4672 0.2621 0.4936
H12 H 0.4602 0.3734 0.4614
C12 C 0.5408(2) 0.4883(6) 0.41995(14)
H13 H 0.5016 0.4627 0.4191
H14 H 0.5596 0.4404 0.4004
H15 H 0.5440 0.5860 0.4161
C16 C 0.6090(3) 0.9748(6) 0.43428(17)
H17 H 0.5817 0.9775 0.4523
C17 C 0.6392(2) 0.8555(5) 0.42953(14)
C18 C 0.6797(2) 0.8532(5) 0.40331(14)
H18 H 0.7008 0.7737 0.3999
C19 C 0.6893(2) 0.9690(5) 0.38203(14)
H19 H 0.7174 0.9668 0.3646
C20 C 0.6654(2) 0.5223(6) 0.74886(14)
C21 C 0.6525(2) 0.5012(6) 0.70663(15)
C22 C 0.6748(2) 0.3917(5) 0.68748(14)
H20 H 0.6974 0.3281 0.7008
C23 C 0.6643(2) 0.3739(6) 0.64913(14)
H21 H 0.6789 0.2976 0.6370
C24 C 0.6322(2) 0.4698(6) 0.62889(14)
C25 C 0.6096(3) 0.5802(6) 0.64746(16)
H22 H 0.5873 0.6443 0.6340
C26 C 0.6198(3) 0.5958(6) 0.68592(16)
H23 H 0.6045 0.6710 0.6982
C27 C 0.2920(2) 0.0224(5) 0.35831(16)
C28 C 0.3445(2) 0.0640(5) 0.38255(14)
C29 C 0.3984(2) 0.0378(5) 0.37016(15)
C30 C 0.4446(2) 0.0824(5) 0.39168(15)
H25 H 0.4805 0.0657 0.3831
C31 C 0.43986(19) 0.1504(5) 0.42515(14)
C32 C 0.3872(2) 0.1727(6) 0.43820(15)
H26 H 0.3828 0.2163 0.4613
C33 C 0.3406(2) 0.1286(7) 0.41620(17)
H27 H 0.3048 0.1444 0.4250
Cd2 Cd 0.690550(14) 0.54821(4) 0.824920(9)
O6_2 O 0.11810(18) 0.0370(4) 0.09112(10)
C2_2 C 0.1457(2) 0.0198(5) 0.00576(14)
C3_2 C 0.1208(2) 0.1169(5) 0.02895(13)
C4_2 C 0.0697(2) 0.1817(5) 0.01646(13)
H3_2 H 0.2324 0.0033 0.0166
C9_2 C 0.1440(2) 0.1420(6) 0.06865(14)
H6_2 H 0.1340 0.2335 0.0772
H7_2 H 0.1849 0.1330 0.0701
C10_2 C 0.0440(3) 0.2963(6) 0.04111(17)
H8_2 H 0.0165 0.3478 0.0261
H9_2 H 0.0261 0.2548 0.0621
H10_2 H 0.0734 0.3572 0.0504
C22_2 C 0.1748(2) 0.1083(5) 0.18748(14)
H20_2 H 0.1974 0.1719 0.2008
C23_2 C 0.1643(2) 0.1261(6) 0.14913(14)
H21_2 H 0.1789 0.2024 0.1370
C24_2 C 0.1322(2) 0.0302(6) 0.12889(14)
O7 O 0.74462(15) 0.4390(4) 0.86988(12)
O8 O 0.79606(15) 0.5464(4) 0.82943(11)
O9_2 O 0.98921(12) 0.3066(3) 0.94336(9)
C11_2 C 0.98425(19) 0.2003(5) 0.97144(14)
H11_2 H 0.9672 0.2379 0.9936
H12_2 H 0.9602 0.1266 0.9614
C27_2 C 0.7920(2) 0.4776(5) 0.85831(16)
C28_2 C 0.8445(2) 0.4360(5) 0.88255(14)
C29_2 C 0.8984(2) 0.4622(5) 0.87016(15)
H24 H 0.9030 0.5092 0.8476
C30_2 C 0.9446(2) 0.4176(5) 0.89168(15)
H25_2 H 0.9805 0.4343 0.8831
C31_2 C 0.93986(19) 0.3496(5) 0.92515(14)
C32_2 C 0.8872(2) 0.3273(6) 0.93820(15)
H26_2 H 0.8828 0.2837 0.9613
C33_2 C 0.8406(2) 0.3714(7) 0.91620(17)
H27_2 H 0.8048 0.3556 0.9250
O1 O 0.64278(17) 0.6781(4) 0.86826(11)
O2 O 0.69834(15) 0.7986(4) 0.83325(9)
C13 C 0.6667(2) 0.7896(5) 0.86151(14)
C14 C 0.6585(2) 0.9126(5) 0.88583(14)
C15 C 0.6184(2) 0.9094(6) 0.91293(17)
H16 H 0.5979 0.8292 0.9167
O10_2 O 0.62003(16) 0.3766(5) 0.83123(12)
N1_2 N 0.5352(2) 0.2860(6) 0.82402(19)
C34_2 C 0.5744(3) 0.3869(8) 0.8211(2)
C35_2 C 0.5465(4) 0.1650(9) 0.8427(3)
H28_2 H 0.5837 0.1691 0.8547
H29_2 H 0.5192 0.1510 0.8615
H30_2 H 0.5446 0.0899 0.8250
C36 C 0.4770(4) 0.2974(12) 0.8080(4)
H31 H 0.4728 0.3824 0.7942
H32 H 0.4690 0.2212 0.7912
H33 H 0.4512 0.2961 0.8281
H42_2 H 0.560905 0.484093 0.808134
Cd1 Cd 0.190550(14) 0.95179(4) 0.324920(9)
O1_2 O 0.14278(17) 0.8219(4) 0.36826(11)
O2_2 O 0.19834(15) 0.7014(4) 0.33325(9)
O3_2 O 0.12449(15) 0.2456(4) 0.45212(10)
O4_2 O 0.1362(2) 0.1048(5) 0.76623(11)
C1_2 C 0.1206(2) 0.0104(5) 0.46961(14)
C7_2 C 0.1486(2) 0.1109(5) 0.44372(15)
H1_2 H 0.1892 0.1114 0.4487
H2_2 H 0.1406 0.0866 0.4174
C8_2 C 0.2005(3) 0.0570(7) 0.51885(19)
H4_2 H 0.1982 0.0846 0.5448
H5_2 H 0.2051 0.1371 0.5034
H15_2 H 0.0440 0.0860 0.4161
C13_2 C 0.1667(2) 0.7104(5) 0.36151(14)
C14_2 C 0.1585(2) 0.5874(5) 0.38583(14)
C15_2 C 0.1184(2) 0.5906(6) 0.41293(17)
H16_2 H 0.0979 0.6708 0.4167
C16_2 C 0.1090(3) 0.4748(6) 0.43428(17)
H17_2 H 0.0817 0.4775 0.4523
C17_2 C 0.1392(2) 0.3555(5) 0.42953(14)
C18_2 C 0.1797(2) 0.3532(5) 0.40331(14)
H18_2 H 0.2008 0.2737 0.3999
C19_2 C 0.1893(2) 0.4690(5) 0.38203(14)
H19_2 H 0.2174 0.4668 0.3646
C20_2 C 0.1654(2) 0.0223(6) 0.74886(14)
C21_2 C 0.1525(2) 0.0012(6) 0.70663(15)
C25_2 C 0.1096(3) 0.0802(6) 0.64746(16)
H22_2 H 0.0873 0.1443 0.6340
C26_2 C 0.1198(3) 0.0958(6) 0.68592(16)
H23_2 H 0.1045 0.1710 0.6982
Cd2_2 Cd 0.190550(14) 0.04821(4) 0.824920(9)
O11 O 0.1362(2) 0.8952(5) 0.26623(11)
O14 O 0.29606(15) 0.9536(4) 0.32943(11)
H24_2 H 0.4030 0.9908 0.3476
C8_3 C 0.2005(3) 0.9430(7) 0.01885(19)
H4_3 H 0.1982 0.9154 0.0448
H5_3 H 0.2051 0.8629 0.0034
C20_3 C 0.1654(2) 0.9777(6) 0.24886(14)
C21_3 C 0.1525(2) 0.9988(6) 0.20663(15)
C25_3 C 0.1096(3) 0.9198(6) 0.14746(16)
H22_3 H 0.0873 0.8557 0.1340
C26_3 C 0.1198(3) 0.9042(6) 0.18592(16)
H23_3 H 0.1045 0.8290 0.1982
O1_3 O 0.14278(17) 0.1781(4) 0.86826(11)
O2_3 O 0.19834(15) 0.2986(4) 0.83325(9)
O3_3 O 0.12449(15) 0.7544(4) 0.95212(10)
C1_3 C 0.1206(2) 0.9896(5) 0.96961(14)
C7_3 C 0.1486(2) 0.8891(5) 0.94372(15)
H1_3 H 0.1892 0.8886 0.9487
H2_3 H 0.1406 0.9134 0.9174
H15_3 H 0.0440 0.9140 0.9161
C13_3 C 0.1667(2) 0.2896(5) 0.86151(14)
C14_3 C 0.1585(2) 0.4126(5) 0.88583(14)
C15_3 C 0.1184(2) 0.4094(6) 0.91293(17)
H16_3 H 0.0979 0.3292 0.9167
C16_3 C 0.1090(3) 0.5252(6) 0.93428(17)
H17_3 H 0.0817 0.5225 0.9523
C17_3 C 0.1392(2) 0.6445(5) 0.92953(14)
C18_3 C 0.1797(2) 0.6468(5) 0.90331(14)
H18_3 H 0.2008 0.7263 0.8999
C19_3 C 0.1893(2) 0.5310(5) 0.88203(14)
H19_3 H 0.2174 0.5332 0.8646
O14_2 O 0.29606(15) 0.0464(4) 0.82943(11)
H24_3 H 0.4030 0.0092 0.8476
O5_2 O 0.20438(14) 0.9540(4) 0.76451(9)
O6_3 O 0.11810(18) 0.9630(4) 0.59112(10)
C2_3 C 0.1457(2) 0.9802(5) 0.50576(14)
C3_3 C 0.1208(2) 0.8831(5) 0.52895(13)
C4_3 C 0.0697(2) 0.8183(5) 0.51646(13)
C5_2 C 0.04285(19) 0.8559(5) 0.48227(12)
C6_2 C 0.0682(2) 0.9499(5) 0.45837(12)
H3_3 H 0.2324 0.9967 0.5166
C9_3 C 0.1440(2) 0.8580(6) 0.56865(14)
H6_3 H 0.1340 0.7665 0.5772
H7_3 H 0.1849 0.8670 0.5701
C10_3 C 0.0440(3) 0.7037(6) 0.54111(17)
H8_3 H 0.0165 0.6522 0.5261
H9_3 H 0.0261 0.7452 0.5621
H10_3 H 0.0734 0.6428 0.5504
C12_2 C 0.0408(2) 0.9883(6) 0.41995(14)
H13_2 H 0.0016 0.9627 0.4191
H14_2 H 0.0596 0.9404 0.4004
C22_3 C 0.1748(2) 0.8917(5) 0.68748(14)
H20_3 H 0.1974 0.8281 0.7008
C23_3 C 0.1643(2) 0.8739(6) 0.64913(14)
H21_3 H 0.1789 0.7976 0.6370
C24_3 C 0.1322(2) 0.9698(6) 0.62889(14)
O10_3 O 0.12003(16) 0.8766(5) 0.83123(12)
N1_3 N 0.0352(2) 0.7860(6) 0.82402(19)
C34_3 C 0.0744(3) 0.8869(8) 0.8211(2)
C35_3 C 0.0465(4) 0.6650(9) 0.8427(3)
H28_3 H 0.0837 0.6691 0.8547
H29_3 H 0.0192 0.6510 0.8615
H30_3 H 0.0446 0.5899 0.8250
O13_2 O 0.24462(15) 0.9390(4) 0.86988(12)
H42_3 H 0.0609048 0.984093 0.808134
O3_4 O 0.62449(15) 0.2544(4) 0.95212(10)
O9_3 O 0.48921(12) 0.8066(3) 0.94336(9)
C1_4 C 0.6206(2) 0.4896(5) 0.96961(14)
C5_3 C 0.54285(19) 0.6441(5) 0.98227(12)
C6_3 C 0.5682(2) 0.5501(5) 0.95837(12)
C7_4 C 0.6486(2) 0.3891(5) 0.94372(15)
H1_4 H 0.6892 0.3886 0.9487
H2_4 H 0.6406 0.4134 0.9174
C11_3 C 0.48425(19) 0.7003(5) 0.97144(14)
H11_3 H 0.4672 0.7379 0.9936
H12_3 H 0.4602 0.6266 0.9614
C12_3 C 0.5408(2) 0.5117(6) 0.91995(14)
H13_3 H 0.5016 0.5373 0.9191
H14_3 H 0.5596 0.5596 0.9004
H15_4 H 0.5440 0.4140 0.9161
C16_4 C 0.6090(3) 0.0252(6) 0.93428(17)
H17_4 H 0.5817 0.0225 0.9523
C17_4 C 0.6392(2) 0.1445(5) 0.92953(14)
C18_4 C 0.6797(2) 0.1468(5) 0.90331(14)
H18_4 H 0.7008 0.2263 0.8999
C19_4 C 0.6893(2) 0.0310(5) 0.88203(14)
H19_4 H 0.7174 0.0332 0.8646
C27_3 C 0.2920(2) 0.9776(5) 0.85831(16)
C28_3 C 0.3445(2) 0.9360(5) 0.88255(14)
C29_3 C 0.3984(2) 0.9622(5) 0.87016(15)
C30_3 C 0.4446(2) 0.9176(5) 0.89168(15)
H25_3 H 0.4805 0.9343 0.8831
C31_3 C 0.43986(19) 0.8496(5) 0.92515(14)
C32_3 C 0.3872(2) 0.8273(6) 0.93820(15)
H26_3 H 0.3828 0.7837 0.9613
C33_3 C 0.3406(2) 0.8714(7) 0.91620(17)
H27_3 H 0.3048 0.8556 0.9250
C36_2 C 0.9770(4) 0.2026(12) 0.3080(4)
H31_2 H 0.9728 0.1176 0.2942
H32_2 H 0.9690 0.2788 0.2912
H33_2 H 0.9512 0.2039 0.3281
O7_2 O 0.74462(15) 0.5610(4) 0.36988(12)
O8_2 O 0.79606(15) 0.4536(4) 0.32943(11)
O9_4 O 0.98921(12) 0.6934(3) 0.44336(9)
C11_4 C 0.98425(19) 0.7997(5) 0.47144(14)
H11_4 H 0.9672 0.7621 0.4936
H12_4 H 0.9602 0.8734 0.4614
C27_4 C 0.7920(2) 0.5224(5) 0.35831(16)
C28_4 C 0.8445(2) 0.5640(5) 0.38255(14)
C29_4 C 0.8984(2) 0.5378(5) 0.37016(15)
H24_4 H 0.9030 0.4908 0.3476
C30_4 C 0.9446(2) 0.5824(5) 0.39168(15)
H25_4 H 0.9805 0.5657 0.3831
C31_4 C 0.93986(19) 0.6504(5) 0.42515(14)
C32_4 C 0.8872(2) 0.6727(6) 0.43820(15)
H26_4 H 0.8828 0.7163 0.4613
C33_4 C 0.8406(2) 0.6286(7) 0.41620(17)
H27_4 H 0.8048 0.6444 0.4250
Cd3 Cd 0.690550(14) 0.45179(4) 0.324920(9)
O1_4 O 0.64278(17) 0.3219(4) 0.36826(11)
O2_4 O 0.69834(15) 0.2014(4) 0.33325(9)
C13_4 C 0.6667(2) 0.2104(5) 0.36151(14)
C14_4 C 0.6585(2) 0.0874(5) 0.38583(14)
C15_4 C 0.6184(2) 0.0906(6) 0.41293(17)
H16_4 H 0.5979 0.1708 0.4167
O10_4 O 0.62003(16) 0.6234(5) 0.33123(12)
N1_4 N 0.5352(2) 0.7140(6) 0.32402(19)
C34_4 C 0.5744(3) 0.6131(8) 0.3211(2)
C35_4 C 0.5465(4) 0.8350(9) 0.3427(3)
H28_4 H 0.5837 0.8309 0.3547
H29_4 H 0.5192 0.8490 0.3615
H30_4 H 0.5446 0.9101 0.3250
C36_3 C 0.4770(4) 0.7026(12) 0.3080(4)
H31_3 H 0.4728 0.6176 0.2942
H32_3 H 0.4690 0.7788 0.2912
H33_3 H 0.4512 0.7039 0.3281
O11_2 O 0.6362(2) 0.3952(5) 0.26623(11)
O12_2 O 0.70438(14) 0.5460(4) 0.26451(9)
H42_4 H 0.560905 0.515907 0.308134
O6_4 O 0.61810(18) 0.5370(4) 0.09112(10)
C2_4 C 0.6457(2) 0.5198(5) 0.00576(14)
C3_4 C 0.6208(2) 0.6169(5) 0.02895(13)
C4_4 C 0.5697(2) 0.6817(5) 0.01646(13)
C8_4 C 0.7005(3) 0.4430(7) 0.01885(19)
H3_4 H 0.7324 0.5033 0.0166
H4_4 H 0.6982 0.4154 0.0448
H5_4 H 0.7051 0.3629 0.0034
C9_4 C 0.6440(2) 0.6420(6) 0.06865(14)
H6_4 H 0.6340 0.7335 0.0772
H7_4 H 0.6849 0.6330 0.0701
C10_4 C 0.5440(3) 0.7963(6) 0.04111(17)
H8_4 H 0.5165 0.8478 0.0261
H9_4 H 0.5261 0.7548 0.0621
H10_4 H 0.5734 0.8572 0.0504
C20_4 C 0.6654(2) 0.4777(6) 0.24886(14)
C21_4 C 0.6525(2) 0.4988(6) 0.20663(15)
C22_4 C 0.6748(2) 0.6083(5) 0.18748(14)
H20_4 H 0.6974 0.6719 0.2008
C23_4 C 0.6643(2) 0.6261(6) 0.14913(14)
H21_4 H 0.6789 0.7024 0.1370
C24_4 C 0.6322(2) 0.5302(6) 0.12889(14)
C25_4 C 0.6096(3) 0.4198(6) 0.14746(16)
H22_4 H 0.5873 0.3557 0.1340
C26_4 C 0.6198(3) 0.4042(6) 0.18592(16)
H23_4 H 0.6045 0.3290 0.1982
C36_4 C 0.0230(4) 0.2026(12) 0.1920(4)
H31_4 H 0.0272 0.1176 0.2058
H32_4 H 0.0310 0.2788 0.2088
H33_4 H 0.0488 0.2039 0.1719
O7_3 O 0.25538(15) 0.5610(4) 0.13012(12)
O8_3 O 0.20394(15) 0.4536(4) 0.17057(11)
O9_5 O 0.01079(12) 0.6934(3) 0.05664(9)
C11_5 C 0.01575(19) 0.7997(5) 0.02856(14)
H11_5 H 0.0328 0.7621 0.0064
H12_5 H 0.0398 0.8734 0.0386
C27_5 C 0.2080(2) 0.5224(5) 0.14169(16)
C28_5 C 0.1555(2) 0.5640(5) 0.11745(14)
C29_5 C 0.1016(2) 0.5378(5) 0.12984(15)
H24_5 H 0.0970 0.4908 0.1524
C30_5 C 0.0554(2) 0.5824(5) 0.10832(15)
H25_5 H 0.0195 0.5657 0.1169
C31_5 C 0.06014(19) 0.6504(5) 0.07485(14)
C32_5 C 0.1128(2) 0.6727(6) 0.06180(15)
H26_5 H 0.1172 0.7163 0.0387
C33_5 C 0.1594(2) 0.6286(7) 0.08380(17)
H27_5 H 0.1952 0.6444 0.0750
Cd3_2 Cd 0.309450(14) 0.45179(4) 0.175080(9)
O5_3 O 0.79562(14) 0.9540(4) 0.73549(9)
O6_5 O 0.88190(18) 0.9630(4) 0.90888(10)
C2_5 C 0.8543(2) 0.9802(5) 0.99424(14)
C3_5 C 0.8792(2) 0.8831(5) 0.97105(13)
C4_5 C 0.9303(2) 0.8183(5) 0.98354(13)
H3_5 H 0.7676 0.9967 0.9834
C9_5 C 0.8560(2) 0.8580(6) 0.93135(14)
H6_5 H 0.8660 0.7665 0.9228
H7_5 H 0.8151 0.8670 0.9299
C10_5 C 0.9560(3) 0.7037(6) 0.95889(17)
H8_5 H 0.9835 0.6522 0.9739
H9_5 H 0.9739 0.7452 0.9379
H10_5 H 0.9266 0.6428 0.9496
C22_5 C 0.8252(2) 0.8917(5) 0.81252(14)
H20_5 H 0.8026 0.8281 0.7992
C23_5 C 0.8357(2) 0.8739(6) 0.85087(14)
H21_5 H 0.8211 0.7976 0.8630
C24_5 C 0.8678(2) 0.9698(6) 0.87111(14)
O1_5 O 0.35722(17) 0.3219(4) 0.13174(11)
O2_5 O 0.30166(15) 0.2014(4) 0.16675(9)
C13_5 C 0.3333(2) 0.2104(5) 0.13849(14)
C14_5 C 0.3415(2) 0.0874(5) 0.11417(14)
C15_5 C 0.3816(2) 0.0906(6) 0.08707(17)
H16_5 H 0.4021 0.1708 0.0833
O10_5 O 0.37997(16) 0.6234(5) 0.16877(12)
N1_5 N 0.4648(2) 0.7140(6) 0.17598(19)
C34_5 C 0.4256(3) 0.6131(8) 0.1789(2)
C35_5 C 0.4535(4) 0.8350(9) 0.1573(3)
H28_5 H 0.4163 0.8309 0.1453
H29_5 H 0.4808 0.8490 0.1385
H30_5 H 0.4554 0.9101 0.1750
C36_5 C 0.5230(4) 0.7026(12) 0.1920(4)
H31_5 H 0.5272 0.6176 0.2058
H32_5 H 0.5310 0.7788 0.2088
H33_5 H 0.5488 0.7039 0.1719
O11_3 O 0.3638(2) 0.3952(5) 0.23377(11)
O12_3 O 0.29562(14) 0.5460(4) 0.23549(9)
H42_5 H 0.439095 0.515907 0.191866
O10_6 O 0.87997(16) 0.8766(5) 0.66877(12)
N1_6 N 0.9648(2) 0.7860(6) 0.67598(19)
C34_6 C 0.9256(3) 0.8869(8) 0.6789(2)
C35_6 C 0.9535(4) 0.6650(9) 0.6573(3)
H28_6 H 0.9163 0.6691 0.6453
H29_6 H 0.9808 0.6510 0.6385
H30_6 H 0.9554 0.5899 0.6750
O13_3 O 0.75538(15) 0.9390(4) 0.63012(12)
H42_6 H 0.939095 0.984093 0.691866
O3_5 O 0.37551(15) 0.2544(4) 0.54788(10)
O6_6 O 0.38190(18) 0.5370(4) 0.40888(10)
O9_6 O 0.51079(12) 0.8066(3) 0.55664(9)
C1_5 C 0.3794(2) 0.4896(5) 0.53039(14)
C2_6 C 0.3543(2) 0.5198(5) 0.49424(14)
C3_6 C 0.3792(2) 0.6169(5) 0.47105(13)
C4_6 C 0.4303(2) 0.6817(5) 0.48354(13)
C5_4 C 0.45715(19) 0.6441(5) 0.51773(12)
C6_4 C 0.4318(2) 0.5501(5) 0.54163(12)
C7_5 C 0.3514(2) 0.3891(5) 0.55628(15)
H1_5 H 0.3108 0.3886 0.5513
H2_5 H 0.3594 0.4134 0.5826
C8_5 C 0.2995(3) 0.4430(7) 0.48115(19)
H3_6 H 0.2676 0.5033 0.4834
H4_5 H 0.3018 0.4154 0.4552
H5_5 H 0.2949 0.3629 0.4966
C9_6 C 0.3560(2) 0.6420(6) 0.43135(14)
H6_6 H 0.3660 0.7335 0.4228
H7_6 H 0.3151 0.6330 0.4299
C10_6 C 0.4560(3) 0.7963(6) 0.45889(17)
H8_6 H 0.4835 0.8478 0.4739
H9_6 H 0.4739 0.7548 0.4379
H10_6 H 0.4266 0.8572 0.4496
C11_6 C 0.51575(19) 0.7003(5) 0.52856(14)
H11_6 H 0.5328 0.7379 0.5064
H12_6 H 0.5398 0.6266 0.5386
C12_4 C 0.4592(2) 0.5117(6) 0.58005(14)
H13_4 H 0.4984 0.5373 0.5809
H14_4 H 0.4404 0.5596 0.5996
H15_5 H 0.4560 0.4140 0.5839
C16_5 C 0.3910(3) 0.0252(6) 0.56572(17)
H17_5 H 0.4183 0.0225 0.5477
C17_5 C 0.3608(2) 0.1445(5) 0.57047(14)
C18_5 C 0.3203(2) 0.1468(5) 0.59669(14)
H18_5 H 0.2992 0.2263 0.6001
C19_5 C 0.3107(2) 0.0310(5) 0.61797(14)
H19_5 H 0.2826 0.0332 0.6354
C20_5 C 0.3346(2) 0.4777(6) 0.25114(14)
C21_5 C 0.3475(2) 0.4988(6) 0.29337(15)
C22_6 C 0.3252(2) 0.6083(5) 0.31252(14)
H20_6 H 0.3026 0.6719 0.2992
C23_6 C 0.3357(2) 0.6261(6) 0.35087(14)
H21_6 H 0.3211 0.7024 0.3630
C24_6 C 0.3678(2) 0.5302(6) 0.37111(14)
C25_5 C 0.3904(3) 0.4198(6) 0.35254(16)
H22_5 H 0.4127 0.3557 0.3660
C26_5 C 0.3802(3) 0.4042(6) 0.31408(16)
H23_5 H 0.3955 0.3290 0.3018
C27_6 C 0.7080(2) 0.9776(5) 0.64169(16)
C28_6 C 0.6555(2) 0.9360(5) 0.61745(14)
C29_6 C 0.6016(2) 0.9622(5) 0.62984(15)
C30_6 C 0.5554(2) 0.9176(5) 0.60832(15)
H25_6 H 0.5195 0.9343 0.6169
C31_6 C 0.56014(19) 0.8496(5) 0.57485(14)
C32_6 C 0.6128(2) 0.8273(6) 0.56180(15)
H26_6 H 0.6172 0.7837 0.5387
C33_6 C 0.6594(2) 0.8714(7) 0.58380(17)
H27_6 H 0.6952 0.8556 0.5750
O10_7 O 0.87997(16) 0.1234(5) 0.16877(12)
N1_7 N 0.9648(2) 0.2140(6) 0.17598(19)
C34_7 C 0.9256(3) 0.1131(8) 0.1789(2)
C35_7 C 0.9535(4) 0.3350(9) 0.1573(3)
H28_7 H 0.9163 0.3309 0.1453
H29_7 H 0.9808 0.3490 0.1385
H30_7 H 0.9554 0.4101 0.1750
O12_4 O 0.79562(14) 0.0460(4) 0.23549(9)
O13_4 O 0.75538(15) 0.0610(4) 0.13012(12)
H42_7 H 0.939095 0.0159068 0.191866
O3_6 O 0.37551(15) 0.7456(4) 0.04788(10)
O9_7 O 0.51079(12) 0.1934(3) 0.05664(9)
C1_6 C 0.3794(2) 0.5104(5) 0.03039(14)
C5_5 C 0.45715(19) 0.3559(5) 0.01773(12)
C6_5 C 0.4318(2) 0.4499(5) 0.04163(12)
C7_6 C 0.3514(2) 0.6109(5) 0.05628(15)
H1_6 H 0.3108 0.6114 0.0513
H2_6 H 0.3594 0.5866 0.0826
C11_7 C 0.51575(19) 0.2997(5) 0.02856(14)
H11_7 H 0.5328 0.2621 0.0064
H12_7 H 0.5398 0.3734 0.0386
C12_5 C 0.4592(2) 0.4883(6) 0.08005(14)
H13_5 H 0.4984 0.4627 0.0809
H14_5 H 0.4404 0.4404 0.0996
H15_6 H 0.4560 0.5860 0.0839
C16_6 C 0.3910(3) 0.9748(6) 0.06572(17)
H17_6 H 0.4183 0.9775 0.0477
C17_6 C 0.3608(2) 0.8555(5) 0.07047(14)
C18_6 C 0.3203(2) 0.8532(5) 0.09669(14)
H18_6 H 0.2992 0.7737 0.1001
C19_6 C 0.3107(2) 0.9690(5) 0.11797(14)
H19_6 H 0.2826 0.9668 0.1354
C27_7 C 0.7080(2) 0.0224(5) 0.14169(16)
C28_7 C 0.6555(2) 0.0640(5) 0.11745(14)
C29_7 C 0.6016(2) 0.0378(5) 0.12984(15)
C30_7 C 0.5554(2) 0.0824(5) 0.10832(15)
H25_7 H 0.5195 0.0657 0.1169
C31_7 C 0.56014(19) 0.1504(5) 0.07485(14)
C32_7 C 0.6128(2) 0.1727(6) 0.06180(15)
H26_7 H 0.6172 0.2163 0.0387
C33_7 C 0.6594(2) 0.1286(7) 0.08380(17)
H27_7 H 0.6952 0.1444 0.0750
O6_7 O 0.88190(18) 0.0370(4) 0.40888(10)
C2_7 C 0.8543(2) 0.0198(5) 0.49424(14)
C3_7 C 0.8792(2) 0.1169(5) 0.47105(13)
C4_7 C 0.9303(2) 0.1817(5) 0.48354(13)
C5_6 C 0.95715(19) 0.1441(5) 0.51773(12)
C6_6 C 0.9318(2) 0.0501(5) 0.54163(12)
H3_7 H 0.7676 0.0033 0.4834
C9_7 C 0.8560(2) 0.1420(6) 0.43135(14)
H6_7 H 0.8660 0.2335 0.4228
H7_7 H 0.8151 0.1330 0.4299
C10_7 C 0.9560(3) 0.2963(6) 0.45889(17)
H8_7 H 0.9835 0.3478 0.4739
H9_7 H 0.9739 0.2548 0.4379
H10_7 H 0.9266 0.3572 0.4496
C12_6 C 0.9592(2) 0.0117(6) 0.58005(14)
H13_6 H 0.9984 0.0373 0.5809
H14_6 H 0.9404 0.0596 0.5996
C22_7 C 0.8252(2) 0.1083(5) 0.31252(14)
H20_7 H 0.8026 0.1719 0.2992
C23_7 C 0.8357(2) 0.1261(6) 0.35087(14)
H21_7 H 0.8211 0.2024 0.3630
C24_7 C 0.8678(2) 0.0302(6) 0.37111(14)
Cd1_2 Cd 0.809450(14) 0.95179(4) 0.175080(9)
O1_6 O 0.85722(17) 0.8219(4) 0.13174(11)
O2_6 O 0.80166(15) 0.7014(4) 0.16675(9)
O3_7 O 0.87551(15) 0.2456(4) 0.04788(10)
C1_7 C 0.8794(2) 0.0104(5) 0.03039(14)
C7_7 C 0.8514(2) 0.1109(5) 0.05628(15)
H1_7 H 0.8108 0.1114 0.0513
H2_7 H 0.8594 0.0866 0.0826
H15_7 H 0.9560 0.0860 0.0839
C13_6 C 0.8333(2) 0.7104(5) 0.13849(14)
C14_6 C 0.8415(2) 0.5874(5) 0.11417(14)
C15_6 C 0.8816(2) 0.5906(6) 0.08707(17)
H16_6 H 0.9021 0.6708 0.0833
C16_7 C 0.8910(3) 0.4748(6) 0.06572(17)
H17_7 H 0.9183 0.4775 0.0477
C17_7 C 0.8608(2) 0.3555(5) 0.07047(14)
C18_7 C 0.8203(2) 0.3532(5) 0.09669(14)
H18_7 H 0.7992 0.2737 0.1001
C19_7 C 0.8107(2) 0.4690(5) 0.11797(14)
H19_7 H 0.7826 0.4668 0.1354
O11_4 O 0.8638(2) 0.8952(5) 0.23377(11)
O14_3 O 0.70394(15) 0.9536(4) 0.17057(11)
O4_3 O 0.8638(2) 0.1048(5) 0.73377(11)
C8_6 C 0.7995(3) 0.0570(7) 0.98115(19)
H4_6 H 0.8018 0.0846 0.9552
H5_6 H 0.7949 0.1371 0.9966
C20_6 C 0.8346(2) 0.0223(6) 0.75114(14)
C21_6 C 0.8475(2) 0.0012(6) 0.79337(15)
C25_6 C 0.8904(3) 0.0802(6) 0.85254(16)
H22_6 H 0.9127 0.1443 0.8660
C26_6 C 0.8802(3) 0.0958(6) 0.81408(16)
H23_6 H 0.8955 0.1710 0.8018
Cd2_3 Cd 0.809450(14) 0.04821(4) 0.675080(9)
H24_6 H 0.5970 0.9908 0.1524
O1_7 O 0.85722(17) 0.1781(4) 0.63174(11)
O2_7 O 0.80166(15) 0.2986(4) 0.66675(9)
O3_8 O 0.87551(15) 0.7544(4) 0.54788(10)
C1_8 C 0.8794(2) 0.9896(5) 0.53039(14)
C7_8 C 0.8514(2) 0.8891(5) 0.55628(15)
H1_8 H 0.8108 0.8886 0.5513
H2_8 H 0.8594 0.9134 0.5826
C8_7 C 0.7995(3) 0.9430(7) 0.48115(19)
H4_7 H 0.8018 0.9154 0.4552
H5_7 H 0.7949 0.8629 0.4966
H15_8 H 0.9560 0.9140 0.5839
C13_7 C 0.8333(2) 0.2896(5) 0.63849(14)
C14_7 C 0.8415(2) 0.4126(5) 0.61417(14)
C15_7 C 0.8816(2) 0.4094(6) 0.58707(17)
H16_7 H 0.9021 0.3292 0.5833
C16_8 C 0.8910(3) 0.5252(6) 0.56572(17)
H17_8 H 0.9183 0.5225 0.5477
C17_8 C 0.8608(2) 0.6445(5) 0.57047(14)
C18_8 C 0.8203(2) 0.6468(5) 0.59669(14)
H18_8 H 0.7992 0.7263 0.6001
C19_8 C 0.8107(2) 0.5310(5) 0.61797(14)
H19_8 H 0.7826 0.5332 0.6354
C20_7 C 0.8346(2) 0.9777(6) 0.25114(14)
C21_7 C 0.8475(2) 0.9988(6) 0.29337(15)
C25_7 C 0.8904(3) 0.9198(6) 0.35254(16)
H22_7 H 0.9127 0.8557 0.3660
C26_7 C 0.8802(3) 0.9042(6) 0.31408(16)
H23_7 H 0.8955 0.8290 0.3018
O14_4 O 0.70394(15) 0.0464(4) 0.67057(11)
H24_7 H 0.5970 0.0092 0.6524
C5_7 C 0.95715(19) 0.8559(5) 0.01773(12)
C6_7 C 0.9318(2) 0.9499(5) 0.04163(12)
C12_7 C 0.9592(2) 0.9883(6) 0.08005(14)
H13_7 H 0.9984 0.9627 0.0809
H14_7 H 0.9404 0.9404 0.0996
O4_4 O 0.3638(2) 0.6048(5) 0.73377(11)
O5_4 O 0.29562(14) 0.4540(4) 0.73549(9)
O6_8 O 0.38190(18) 0.4630(4) 0.90888(10)
C2_8 C 0.3543(2) 0.4802(5) 0.99424(14)
C3_8 C 0.3792(2) 0.3831(5) 0.97105(13)
C4_8 C 0.4303(2) 0.3183(5) 0.98354(13)
C8_8 C 0.2995(3) 0.5570(7) 0.98115(19)
H3_8 H 0.2676 0.4967 0.9834
H4_8 H 0.3018 0.5846 0.9552
H5_8 H 0.2949 0.6371 0.9966
C9_8 C 0.3560(2) 0.3580(6) 0.93135(14)
H6_8 H 0.3660 0.2665 0.9228
H7_8 H 0.3151 0.3670 0.9299
C10_8 C 0.4560(3) 0.2037(6) 0.95889(17)
H8_8 H 0.4835 0.1522 0.9739
H9_8 H 0.4739 0.2452 0.9379
H10_8 H 0.4266 0.1428 0.9496
C20_8 C 0.3346(2) 0.5223(6) 0.75114(14)
C21_8 C 0.3475(2) 0.5012(6) 0.79337(15)
C22_8 C 0.3252(2) 0.3917(5) 0.81252(14)
H20_8 H 0.3026 0.3281 0.7992
C23_8 C 0.3357(2) 0.3739(6) 0.85087(14)
H21_8 H 0.3211 0.2976 0.8630
C24_8 C 0.3678(2) 0.4698(6) 0.87111(14)
C25_8 C 0.3904(3) 0.5802(6) 0.85254(16)
H22_8 H 0.4127 0.6443 0.8660
C26_8 C 0.3802(3) 0.5958(6) 0.81408(16)
H23_8 H 0.3955 0.6710 0.8018
Cd2_4 Cd 0.309450(14) 0.54821(4) 0.675080(9)
O7_4 O 0.25538(15) 0.4390(4) 0.63012(12)
O8_4 O 0.20394(15) 0.5464(4) 0.67057(11)
O9_8 O 0.01079(12) 0.3066(3) 0.55664(9)
C11_8 C 0.01575(19) 0.2003(5) 0.52856(14)
H11_8 H 0.0328 0.2379 0.5064
H12_8 H 0.0398 0.1266 0.5386
C27_8 C 0.2080(2) 0.4776(5) 0.64169(16)
C28_8 C 0.1555(2) 0.4360(5) 0.61745(14)
C29_8 C 0.1016(2) 0.4622(5) 0.62984(15)
H24_8 H 0.0970 0.5092 0.6524
C30_8 C 0.0554(2) 0.4176(5) 0.60832(15)
H25_8 H 0.0195 0.4343 0.6169
C31_8 C 0.06014(19) 0.3496(5) 0.57485(14)
C32_8 C 0.1128(2) 0.3273(6) 0.56180(15)
H26_8 H 0.1172 0.2837 0.5387
C33_8 C 0.1594(2) 0.3714(7) 0.58380(17)
H27_8 H 0.1952 0.3556 0.5750
O1_8 O 0.35722(17) 0.6781(4) 0.63174(11)
O2_8 O 0.30166(15) 0.7986(4) 0.66675(9)
C13_8 C 0.3333(2) 0.7896(5) 0.63849(14)
C14_8 C 0.3415(2) 0.9126(5) 0.61417(14)
C15_8 C 0.3816(2) 0.9094(6) 0.58707(17)
H16_8 H 0.4021 0.8292 0.5833
O10_8 O 0.37997(16) 0.3766(5) 0.66877(12)
N1_8 N 0.4648(2) 0.2860(6) 0.67598(19)
C34_8 C 0.4256(3) 0.3869(8) 0.6789(2)
C35_8 C 0.4535(4) 0.1650(9) 0.6573(3)
H28_8 H 0.4163 0.1691 0.6453
H29_8 H 0.4808 0.1510 0.6385
H30_8 H 0.4554 0.0899 0.6750
C36_6 C 0.5230(4) 0.2974(12) 0.6920(4)
H31_6 H 0.5272 0.3824 0.7058
H32_6 H 0.5310 0.2212 0.7088
H33_6 H 0.5488 0.2961 0.6719
H42_8 H 0.439095 0.484093 0.691866
C36_7 C 0.0230(4) 0.7974(12) 0.6920(4)
H31_7 H 0.0272 0.8824 0.7058
H32_7 H 0.0310 0.7212 0.7088
H33_7 H 0.0488 0.7961 0.6719
C5_8 C 0.04285(19) 0.1441(5) 0.98227(12)
C6_8 C 0.0682(2) 0.0501(5) 0.95837(12)
C12_8 C 0.0408(2) 0.0117(6) 0.91995(14)
H13_8 H 0.0016 0.0373 0.9191
H14_8 H 0.0596 0.0596 0.9004
C36_8 C 0.9770(4) 0.7974(12) 0.8080(4)
H31_8 H 0.9728 0.8824 0.7942
H32_8 H 0.9690 0.7212 0.7912
H33_8 H 0.9512 0.7961 0.8281
C37 C 0.2975(3) 0.1335(7) 0.7187(2)
H36 H 0.2629 0.1478 0.7040
H37 H 0.3288 0.1647 0.7047
H38 H 0.2965 0.1846 0.7419
H40 H 0.3555 0.0023 0.7740
N2 N 0.3044(2) 0.9835(5) 0.72741(15)
H34 H 0.2742 0.9542 0.7397
H35 H 0.3051 0.9363 0.7055
C38 C 0.3561(3) 0.9525(9) 0.7506(2)
H39 H 0.3578 0.8553 0.7557
H41 H 0.3885 0.9796 0.7371
C37_2 C 0.7025(3) 0.1335(7) 0.7813(2)
H36_2 H 0.7371 0.1478 0.7960
H37_2 H 0.6712 0.1647 0.7953
H38_2 H 0.7035 0.1846 0.7581
H40_2 H 0.6445 0.0023 0.7260
N2_2 N 0.6956(2) 0.9835(5) 0.77259(15)
H34_2 H 0.7258 0.9542 0.7603
H35_2 H 0.6949 0.9363 0.7945
C38_2 C 0.6439(3) 0.9525(9) 0.7494(2)
H39_2 H 0.6422 0.8553 0.7443
H41_2 H 0.6115 0.9796 0.7629
N2_3 N 0.8044(2) 0.4835(5) 0.72741(15)
H34_3 H 0.7742 0.4542 0.7397
H35_3 H 0.8051 0.4363 0.7055
C37_3 C 0.7975(3) 0.6335(7) 0.7187(2)
H36_3 H 0.7629 0.6478 0.7040
H37_3 H 0.8288 0.6647 0.7047
H38_3 H 0.7965 0.6846 0.7419
C38_3 C 0.8561(3) 0.4525(9) 0.7506(2)
H39_3 H 0.8578 0.3553 0.7557
H40_3 H 0.8555 0.5023 0.7740
H41_3 H 0.8885 0.4796 0.7371
N2_4 N 0.1956(2) 0.4835(5) 0.77259(15)
H34_4 H 0.2258 0.4542 0.7603
H35_4 H 0.1949 0.4363 0.7945
C37_4 C 0.2025(3) 0.6335(7) 0.7813(2)
H36_4 H 0.2371 0.6478 0.7960
H37_4 H 0.1712 0.6647 0.7953
H38_4 H 0.2035 0.6846 0.7581
C38_4 C 0.1439(3) 0.4525(9) 0.7494(2)
H39_4 H 0.1422 0.3553 0.7443
H40_4 H 0.1445 0.5023 0.7260
H41_4 H 0.1115 0.4796 0.7629
N2_5 N 0.6956(2) 0.0165(5) 0.27259(15)
H34_5 H 0.7258 0.0458 0.2603
H35_5 H 0.6949 0.0637 0.2945
C38_5 C 0.6439(3) 0.0475(9) 0.2494(2)
H39_5 H 0.6422 0.1447 0.2443
H41_5 H 0.6115 0.0204 0.2629
C37_5 C 0.7025(3) 0.8665(7) 0.2813(2)
H36_5 H 0.7371 0.8522 0.2960
H37_5 H 0.6712 0.8353 0.2953
H38_5 H 0.7035 0.8154 0.2581
H40_5 H 0.6445 0.9977 0.2260
N2_6 N 0.3044(2) 0.0165(5) 0.22741(15)
H34_6 H 0.2742 0.0458 0.2397
H35_6 H 0.3051 0.0637 0.2055
C38_6 C 0.3561(3) 0.0475(9) 0.2506(2)
H39_6 H 0.3578 0.1447 0.2557
H41_6 H 0.3885 0.0204 0.2371
C37_6 C 0.2975(3) 0.8665(7) 0.2187(2)
H36_6 H 0.2629 0.8522 0.2040
H37_6 H 0.3288 0.8353 0.2047
H38_6 H 0.2965 0.8154 0.2419
H40_6 H 0.3555 0.9977 0.2740
N2_7 N 0.1956(2) 0.5165(5) 0.27259(15)
H34_7 H 0.2258 0.5458 0.2603
H35_7 H 0.1949 0.5637 0.2945
C37_7 C 0.2025(3) 0.3665(7) 0.2813(2)
H36_7 H 0.2371 0.3522 0.2960
H37_7 H 0.1712 0.3353 0.2953
H38_7 H 0.2035 0.3154 0.2581
C38_7 C 0.1439(3) 0.5475(9) 0.2494(2)
H39_7 H 0.1422 0.6447 0.2443
H40_7 H 0.1445 0.4977 0.2260
H41_7 H 0.1115 0.5204 0.2629
N2_8 N 0.8044(2) 0.5165(5) 0.22741(15)
H34_8 H 0.7742 0.5458 0.2397
H35_8 H 0.8051 0.5637 0.2055
C37_8 C 0.7975(3) 0.3665(7) 0.2187(2)
H36_8 H 0.7629 0.3522 0.2040
H37_8 H 0.8288 0.3353 0.2047
H38_8 H 0.7965 0.3154 0.2419
C38_8 C 0.8561(3) 0.5475(9) 0.2506(2)
H39_8 H 0.8578 0.6447 0.2557
H40_8 H 0.8555 0.4977 0.2740
H41_8 H 0.8885 0.5204 0.2371
loop_
_geom_bond_atom_site_label_1
_geom_bond_atom_site_label_2
_geom_bond_site_symmetry_1
_geom_bond_site_symmetry_2
N1 C34 1_555 1_555
C34 O10 1_555 1_555
C35 N1 1_555 1_555
H28 C35 1_555 1_555
H29 C35 1_555 1_555
H30 C35 1_555 1_555
C34 H42 1_555 1_555
O3 C7 1_555 1_555
O4 C20 1_555 1_555
O5 C20 1_555 1_555
O6 C9 1_555 1_555
O13 C27 1_555 1_555
O9 C11 1_555 1_555
C1 C2 1_555 1_555
C2 C3 1_555 1_555
C3 C4 1_555 1_555
C4 C5 1_555 1_555
C5 C6 1_555 1_555
C6 C1 1_555 1_555
C7 C1 1_555 1_555
H1 C7 1_555 1_555
H2 C7 1_555 1_555
C8 C2 1_555 1_555
H3 C8 1_555 1_555
H4 C8 1_555 1_555
H5 C8 1_555 1_555
C9 C3 1_555 1_555
H6 C9 1_555 1_555
H7 C9 1_555 1_555
C10 C4 1_555 1_555
H8 C10 1_555 1_555
H9 C10 1_555 1_555
H10 C10 1_555 1_555
C11 C5 1_555 1_555
H11 C11 1_555 1_555
H12 C11 1_555 1_555
C12 C6 1_555 1_555
H13 C12 1_555 1_555
H14 C12 1_555 1_555
H15 C12 1_555 1_555
H17 C16 1_555 1_555
C17 O3 1_555 1_555
C18 C17 1_555 1_555
H18 C18 1_555 1_555
H19 C19 1_555 1_555
C20 C21 1_555 1_555
C21 C22 1_555 1_555
C22 H20 1_555 1_555
C23 C22 1_555 1_555
H21 C23 1_555 1_555
C24 O6 1_555 1_555
C25 C24 1_555 1_555
H22 C25 1_555 1_555
C26 C21 1_555 1_555
H23 C26 1_555 1_555
C27 C28 1_555 1_555
C28 C29 1_555 1_555
C30 C29 1_555 1_555
H25 C30 1_555 1_555
C31 O9 1_555 1_555
C32 C31 1_555 1_555
H26 C32 1_555 1_555
C33 C28 1_555 1_555
H27 C33 1_555 1_555
Cd2 O4 1_555 1_555
O5 Cd2 1_555 1_555
C16 C17 1_555 1_555
C18 C19 1_555 1_555
C23 C24 1_555 1_555
C25 C26 1_555 1_555
C30 C31 1_555 1_555
C32 C33 1_555 1_555
O6_2 C9_2 1_555 1_555
C2_2 C3_2 1_555 1_555
C3_2 C4_2 1_555 1_555
C9_2 C3_2 1_555 1_555
H6_2 C9_2 1_555 1_555
H7_2 C9_2 1_555 1_555
C10_2 C4_2 1_555 1_555
H8_2 C10_2 1_555 1_555
H9_2 C10_2 1_555 1_555
H10_2 C10_2 1_555 1_555
C22_2 H20_2 1_555 1_555
C23_2 C22_2 1_555 1_555
H21_2 C23_2 1_555 1_555
C24_2 O6_2 1_555 1_555
C23_2 C24_2 1_555 1_555
O7 C27_2 1_555 1_555
O8 C27_2 1_555 1_555
O9_2 C11_2 1_555 1_555
H11_2 C11_2 1_555 1_555
H12_2 C11_2 1_555 1_555
C27_2 C28_2 1_555 1_555
C28_2 C29_2 1_555 1_555
C29_2 H24 1_555 1_555
C30_2 C29_2 1_555 1_555
H25_2 C30_2 1_555 1_555
C31_2 O9_2 1_555 1_555
C32_2 C31_2 1_555 1_555
H26_2 C32_2 1_555 1_555
C33_2 C28_2 1_555 1_555
H27_2 C33_2 1_555 1_555
Cd2 O7 1_555 1_555
O8 Cd2 1_555 1_555
C30_2 C31_2 1_555 1_555
C32_2 C33_2 1_555 1_555
Cd2 O1 1_555 1_555
O1 C13 1_555 1_555
O2 Cd2 1_555 1_555
C13 O2 1_555 1_555
C14 C13 1_555 1_555
C15 C14 1_555 1_555
H16 C15 1_555 1_555
O10_2 Cd2 1_555 1_555
N1_2 C34_2 1_555 1_555
C34_2 O10_2 1_555 1_555
C35_2 N1_2 1_555 1_555
H28_2 C35_2 1_555 1_555
H29_2 C35_2 1_555 1_555
H30_2 C35_2 1_555 1_555
C36 N1_2 1_555 1_555
H31 C36 1_555 1_555
H32 C36 1_555 1_555
H33 C36 1_555 1_555
C34_2 H42_2 1_555 1_555
Cd1 O1_2 1_555 1_555
O1_2 C13_2 1_555 1_555
O2_2 Cd1 1_555 1_555
O3_2 C7_2 1_555 1_555
O4_2 C20_2 1_555 1_555
C7_2 C1_2 1_555 1_555
H1_2 C7_2 1_555 1_555
H2_2 C7_2 1_555 1_555
H4_2 C8_2 1_555 1_555
H5_2 C8_2 1_555 1_555
C13_2 O2_2 1_555 1_555
C14_2 C13_2 1_555 1_555
C15_2 C14_2 1_555 1_555
H16_2 C15_2 1_555 1_555
C16_2 C15_2 1_555 1_555
H17_2 C16_2 1_555 1_555
C17_2 O3_2 1_555 1_555
C18_2 C17_2 1_555 1_555
H18_2 C18_2 1_555 1_555
C19_2 C14_2 1_555 1_555
H19_2 C19_2 1_555 1_555
C20_2 C21_2 1_555 1_555
H22_2 C25_2 1_555 1_555
C26_2 C21_2 1_555 1_555
H23_2 C26_2 1_555 1_555
Cd2_2 O4_2 1_555 1_555
O11 Cd1 1_555 1_555
O14 Cd1 1_555 1_555
C16_2 C17_2 1_555 1_555
C18_2 C19_2 1_555 1_555
C25_2 C26_2 1_555 1_555
O11 C20_3 1_555 1_555
H4_3 C8_3 1_555 1_555
H5_3 C8_3 1_555 1_555
C20_3 C21_3 1_555 1_555
H22_3 C25_3 1_555 1_555
C26_3 C21_3 1_555 1_555
H23_3 C26_3 1_555 1_555
C25_3 C26_3 1_555 1_555
Cd2_2 O1_3 1_555 1_555
O1_3 C13_3 1_555 1_555
O2_3 Cd2_2 1_555 1_555
O3_3 C7_3 1_555 1_555
C7_3 C1_3 1_555 1_555
H1_3 C7_3 1_555 1_555
H2_3 C7_3 1_555 1_555
C13_3 O2_3 1_555 1_555
C14_3 C13_3 1_555 1_555
C15_3 C14_3 1_555 1_555
H16_3 C15_3 1_555 1_555
C16_3 C15_3 1_555 1_555
H17_3 C16_3 1_555 1_555
C17_3 O3_3 1_555 1_555
C18_3 C17_3 1_555 1_555
H18_3 C18_3 1_555 1_555
C19_3 C14_3 1_555 1_555
H19_3 C19_3 1_555 1_555
O14_2 Cd2_2 1_555 1_555
C16_3 C17_3 1_555 1_555
C18_3 C19_3 1_555 1_555
O6_3 C9_3 1_555 1_555
C2_3 C3_3 1_555 1_555
C3_3 C4_3 1_555 1_555
C4_3 C5_2 1_555 1_555
C5_2 C6_2 1_555 1_555
C9_3 C3_3 1_555 1_555
H6_3 C9_3 1_555 1_555
H7_3 C9_3 1_555 1_555
C10_3 C4_3 1_555 1_555
H8_3 C10_3 1_555 1_555
H9_3 C10_3 1_555 1_555
H10_3 C10_3 1_555 1_555
C12_2 C6_2 1_555 1_555
H13_2 C12_2 1_555 1_555
H14_2 C12_2 1_555 1_555
C22_3 H20_3 1_555 1_555
C23_3 C22_3 1_555 1_555
H21_3 C23_3 1_555 1_555
C24_3 O6_3 1_555 1_555
C23_3 C24_3 1_555 1_555
N1_3 C34_3 1_555 1_555
C34_3 O10_3 1_555 1_555
C35_3 N1_3 1_555 1_555
H28_3 C35_3 1_555 1_555
H29_3 C35_3 1_555 1_555
H30_3 C35_3 1_555 1_555
C34_3 H42_3 1_555 1_555
O3_4 C7_4 1_555 1_555
O13_2 C27_3 1_555 1_555
O9_3 C11_3 1_555 1_555
C5_3 C6_3 1_555 1_555
C6_3 C1_4 1_555 1_555
C7_4 C1_4 1_555 1_555
H1_4 C7_4 1_555 1_555
H2_4 C7_4 1_555 1_555
C11_3 C5_3 1_555 1_555
H11_3 C11_3 1_555 1_555
H12_3 C11_3 1_555 1_555
C12_3 C6_3 1_555 1_555
H13_3 C12_3 1_555 1_555
H14_3 C12_3 1_555 1_555
H15_4 C12_3 1_555 1_555
H17_4 C16_4 1_555 1_555
C17_4 O3_4 1_555 1_555
C18_4 C17_4 1_555 1_555
H18_4 C18_4 1_555 1_555
H19_4 C19_4 1_555 1_555
C27_3 C28_3 1_555 1_555
C28_3 C29_3 1_555 1_555
C30_3 C29_3 1_555 1_555
H25_3 C30_3 1_555 1_555
C31_3 O9_3 1_555 1_555
C32_3 C31_3 1_555 1_555
H26_3 C32_3 1_555 1_555
C33_3 C28_3 1_555 1_555
H27_3 C33_3 1_555 1_555
C16_4 C17_4 1_555 1_555
C18_4 C19_4 1_555 1_555
C30_3 C31_3 1_555 1_555
C32_3 C33_3 1_555 1_555
H31_2 C36_2 1_555 1_555
H32_2 C36_2 1_555 1_555
H33_2 C36_2 1_555 1_555
O7_2 C27_4 1_555 1_555
O8_2 C27_4 1_555 1_555
O9_4 C11_4 1_555 1_555
H11_4 C11_4 1_555 1_555
H12_4 C11_4 1_555 1_555
C27_4 C28_4 1_555 1_555
C28_4 C29_4 1_555 1_555
C29_4 H24_4 1_555 1_555
C30_4 C29_4 1_555 1_555
H25_4 C30_4 1_555 1_555
C31_4 O9_4 1_555 1_555
C32_4 C31_4 1_555 1_555
H26_4 C32_4 1_555 1_555
C33_4 C28_4 1_555 1_555
H27_4 C33_4 1_555 1_555
Cd3 O7_2 1_555 1_555
O8_2 Cd3 1_555 1_555
C30_4 C31_4 1_555 1_555
C32_4 C33_4 1_555 1_555
Cd3 O1_4 1_555 1_555
O1_4 C13_4 1_555 1_555
O2_4 Cd3 1_555 1_555
C13_4 O2_4 1_555 1_555
C14_4 C13_4 1_555 1_555
C15_4 C14_4 1_555 1_555
H16_4 C15_4 1_555 1_555
O10_4 Cd3 1_555 1_555
N1_4 C34_4 1_555 1_555
C34_4 O10_4 1_555 1_555
C35_4 N1_4 1_555 1_555
H28_4 C35_4 1_555 1_555
H29_4 C35_4 1_555 1_555
H30_4 C35_4 1_555 1_555
C36_3 N1_4 1_555 1_555
H31_3 C36_3 1_555 1_555
H32_3 C36_3 1_555 1_555
H33_3 C36_3 1_555 1_555
O11_2 Cd3 1_555 1_555
O12_2 Cd3 1_555 1_555
C34_4 H42_4 1_555 1_555
O11_2 C20_4 1_555 1_555
O12_2 C20_4 1_555 1_555
O6_4 C9_4 1_555 1_555
C2_4 C3_4 1_555 1_555
C3_4 C4_4 1_555 1_555
C8_4 C2_4 1_555 1_555
H3_4 C8_4 1_555 1_555
H4_4 C8_4 1_555 1_555
H5_4 C8_4 1_555 1_555
C9_4 C3_4 1_555 1_555
H6_4 C9_4 1_555 1_555
H7_4 C9_4 1_555 1_555
C10_4 C4_4 1_555 1_555
H8_4 C10_4 1_555 1_555
H9_4 C10_4 1_555 1_555
H10_4 C10_4 1_555 1_555
C20_4 C21_4 1_555 1_555
C21_4 C22_4 1_555 1_555
C22_4 H20_4 1_555 1_555
C23_4 C22_4 1_555 1_555
H21_4 C23_4 1_555 1_555
C24_4 O6_4 1_555 1_555
C25_4 C24_4 1_555 1_555
H22_4 C25_4 1_555 1_555
C26_4 C21_4 1_555 1_555
H23_4 C26_4 1_555 1_555
C23_4 C24_4 1_555 1_555
C25_4 C26_4 1_555 1_555
H31_4 C36_4 1_555 1_555
H32_4 C36_4 1_555 1_555
H33_4 C36_4 1_555 1_555
O7_3 C27_5 1_555 1_555
O8_3 C27_5 1_555 1_555
O9_5 C11_5 1_555 1_555
H11_5 C11_5 1_555 1_555
H12_5 C11_5 1_555 1_555
C27_5 C28_5 1_555 1_555
C28_5 C29_5 1_555 1_555
C29_5 H24_5 1_555 1_555
C30_5 C29_5 1_555 1_555
H25_5 C30_5 1_555 1_555
C31_5 O9_5 1_555 1_555
C32_5 C31_5 1_555 1_555
H26_5 C32_5 1_555 1_555
C33_5 C28_5 1_555 1_555
H27_5 C33_5 1_555 1_555
Cd3_2 O7_3 1_555 1_555
O8_3 Cd3_2 1_555 1_555
C30_5 C31_5 1_555 1_555
C32_5 C33_5 1_555 1_555
O6_5 C9_5 1_555 1_555
C2_5 C3_5 1_555 1_555
C3_5 C4_5 1_555 1_555
C9_5 C3_5 1_555 1_555
H6_5 C9_5 1_555 1_555
H7_5 C9_5 1_555 1_555
C10_5 C4_5 1_555 1_555
H8_5 C10_5 1_555 1_555
H9_5 C10_5 1_555 1_555
H10_5 C10_5 1_555 1_555
C22_5 H20_5 1_555 1_555
C23_5 C22_5 1_555 1_555
H21_5 C23_5 1_555 1_555
C24_5 O6_5 1_555 1_555
C23_5 C24_5 1_555 1_555
Cd3_2 O1_5 1_555 1_555
O1_5 C13_5 1_555 1_555
O2_5 Cd3_2 1_555 1_555
C13_5 O2_5 1_555 1_555
C14_5 C13_5 1_555 1_555
C15_5 C14_5 1_555 1_555
H16_5 C15_5 1_555 1_555
O10_5 Cd3_2 1_555 1_555
N1_5 C34_5 1_555 1_555
C34_5 O10_5 1_555 1_555
C35_5 N1_5 1_555 1_555
H28_5 C35_5 1_555 1_555
H29_5 C35_5 1_555 1_555
H30_5 C35_5 1_555 1_555
C36_5 N1_5 1_555 1_555
H31_5 C36_5 1_555 1_555
H32_5 C36_5 1_555 1_555
H33_5 C36_5 1_555 1_555
O11_3 Cd3_2 1_555 1_555
O12_3 Cd3_2 1_555 1_555
C34_5 H42_5 1_555 1_555
N1_6 C34_6 1_555 1_555
C34_6 O10_6 1_555 1_555
C35_6 N1_6 1_555 1_555
H28_6 C35_6 1_555 1_555
H29_6 C35_6 1_555 1_555
H30_6 C35_6 1_555 1_555
C34_6 H42_6 1_555 1_555
O3_5 C7_5 1_555 1_555
O11_3 C20_5 1_555 1_555
O12_3 C20_5 1_555 1_555
O6_6 C9_6 1_555 1_555
O13_3 C27_6 1_555 1_555
O9_6 C11_6 1_555 1_555
C1_5 C2_6 1_555 1_555
C2_6 C3_6 1_555 1_555
C3_6 C4_6 1_555 1_555
C4_6 C5_4 1_555 1_555
C5_4 C6_4 1_555 1_555
C6_4 C1_5 1_555 1_555
C7_5 C1_5 1_555 1_555
H1_5 C7_5 1_555 1_555
H2_5 C7_5 1_555 1_555
C8_5 C2_6 1_555 1_555
H3_6 C8_5 1_555 1_555
H4_5 C8_5 1_555 1_555
H5_5 C8_5 1_555 1_555
C9_6 C3_6 1_555 1_555
H6_6 C9_6 1_555 1_555
H7_6 C9_6 1_555 1_555
C10_6 C4_6 1_555 1_555
H8_6 C10_6 1_555 1_555
H9_6 C10_6 1_555 1_555
H10_6 C10_6 1_555 1_555
C11_6 C5_4 1_555 1_555
H11_6 C11_6 1_555 1_555
H12_6 C11_6 1_555 1_555
C12_4 C6_4 1_555 1_555
H13_4 C12_4 1_555 1_555
H14_4 C12_4 1_555 1_555
H15_5 C12_4 1_555 1_555
H17_5 C16_5 1_555 1_555
C17_5 O3_5 1_555 1_555
C18_5 C17_5 1_555 1_555
H18_5 C18_5 1_555 1_555
H19_5 C19_5 1_555 1_555
C20_5 C21_5 1_555 1_555
C21_5 C22_6 1_555 1_555
C22_6 H20_6 1_555 1_555
C23_6 C22_6 1_555 1_555
H21_6 C23_6 1_555 1_555
C24_6 O6_6 1_555 1_555
C25_5 C24_6 1_555 1_555
H22_5 C25_5 1_555 1_555
C26_5 C21_5 1_555 1_555
H23_5 C26_5 1_555 1_555
C27_6 C28_6 1_555 1_555
C28_6 C29_6 1_555 1_555
C30_6 C29_6 1_555 1_555
H25_6 C30_6 1_555 1_555
C31_6 O9_6 1_555 1_555
C32_6 C31_6 1_555 1_555
H26_6 C32_6 1_555 1_555
C33_6 C28_6 1_555 1_555
H27_6 C33_6 1_555 1_555
C16_5 C17_5 1_555 1_555
C18_5 C19_5 1_555 1_555
C23_6 C24_6 1_555 1_555
C25_5 C26_5 1_555 1_555
C30_6 C31_6 1_555 1_555
C32_6 C33_6 1_555 1_555
N1_7 C34_7 1_555 1_555
C34_7 O10_7 1_555 1_555
C35_7 N1_7 1_555 1_555
H28_7 C35_7 1_555 1_555
H29_7 C35_7 1_555 1_555
H30_7 C35_7 1_555 1_555
C34_7 H42_7 1_555 1_555
O3_6 C7_6 1_555 1_555
O13_4 C27_7 1_555 1_555
O9_7 C11_7 1_555 1_555
C5_5 C6_5 1_555 1_555
C6_5 C1_6 1_555 1_555
C7_6 C1_6 1_555 1_555
H1_6 C7_6 1_555 1_555
H2_6 C7_6 1_555 1_555
C11_7 C5_5 1_555 1_555
H11_7 C11_7 1_555 1_555
H12_7 C11_7 1_555 1_555
C12_5 C6_5 1_555 1_555
H13_5 C12_5 1_555 1_555
H14_5 C12_5 1_555 1_555
H15_6 C12_5 1_555 1_555
H17_6 C16_6 1_555 1_555
C17_6 O3_6 1_555 1_555
C18_6 C17_6 1_555 1_555
H18_6 C18_6 1_555 1_555
H19_6 C19_6 1_555 1_555
C27_7 C28_7 1_555 1_555
C28_7 C29_7 1_555 1_555
C30_7 C29_7 1_555 1_555
H25_7 C30_7 1_555 1_555
C31_7 O9_7 1_555 1_555
C32_7 C31_7 1_555 1_555
H26_7 C32_7 1_555 1_555
C33_7 C28_7 1_555 1_555
H27_7 C33_7 1_555 1_555
C16_6 C17_6 1_555 1_555
C18_6 C19_6 1_555 1_555
C30_7 C31_7 1_555 1_555
C32_7 C33_7 1_555 1_555
O6_7 C9_7 1_555 1_555
C2_7 C3_7 1_555 1_555
C3_7 C4_7 1_555 1_555
C4_7 C5_6 1_555 1_555
C5_6 C6_6 1_555 1_555
C9_7 C3_7 1_555 1_555
H6_7 C9_7 1_555 1_555
H7_7 C9_7 1_555 1_555
C10_7 C4_7 1_555 1_555
H8_7 C10_7 1_555 1_555
H9_7 C10_7 1_555 1_555
H10_7 C10_7 1_555 1_555
C12_6 C6_6 1_555 1_555
H13_6 C12_6 1_555 1_555
H14_6 C12_6 1_555 1_555
C22_7 H20_7 1_555 1_555
C23_7 C22_7 1_555 1_555
H21_7 C23_7 1_555 1_555
C24_7 O6_7 1_555 1_555
C23_7 C24_7 1_555 1_555
Cd1_2 O1_6 1_555 1_555
O1_6 C13_6 1_555 1_555
O2_6 Cd1_2 1_555 1_555
O3_7 C7_7 1_555 1_555
C7_7 C1_7 1_555 1_555
H1_7 C7_7 1_555 1_555
H2_7 C7_7 1_555 1_555
C13_6 O2_6 1_555 1_555
C14_6 C13_6 1_555 1_555
C15_6 C14_6 1_555 1_555
H16_6 C15_6 1_555 1_555
C16_7 C15_6 1_555 1_555
H17_7 C16_7 1_555 1_555
C17_7 O3_7 1_555 1_555
C18_7 C17_7 1_555 1_555
H18_7 C18_7 1_555 1_555
C19_7 C14_6 1_555 1_555
H19_7 C19_7 1_555 1_555
O11_4 Cd1_2 1_555 1_555
O14_3 Cd1_2 1_555 1_555
C16_7 C17_7 1_555 1_555
C18_7 C19_7 1_555 1_555
O4_3 C20_6 1_555 1_555
H4_6 C8_6 1_555 1_555
H5_6 C8_6 1_555 1_555
C20_6 C21_6 1_555 1_555
H22_6 C25_6 1_555 1_555
C26_6 C21_6 1_555 1_555
H23_6 C26_6 1_555 1_555
Cd2_3 O4_3 1_555 1_555
C25_6 C26_6 1_555 1_555
Cd2_3 O1_7 1_555 1_555
O1_7 C13_7 1_555 1_555
O2_7 Cd2_3 1_555 1_555
O3_8 C7_8 1_555 1_555
O11_4 C20_7 1_555 1_555
C7_8 C1_8 1_555 1_555
H1_8 C7_8 1_555 1_555
H2_8 C7_8 1_555 1_555
H4_7 C8_7 1_555 1_555
H5_7 C8_7 1_555 1_555
C13_7 O2_7 1_555 1_555
C14_7 C13_7 1_555 1_555
C15_7 C14_7 1_555 1_555
H16_7 C15_7 1_555 1_555
C16_8 C15_7 1_555 1_555
H17_8 C16_8 1_555 1_555
C17_8 O3_8 1_555 1_555
C18_8 C17_8 1_555 1_555
H18_8 C18_8 1_555 1_555
C19_8 C14_7 1_555 1_555
H19_8 C19_8 1_555 1_555
C20_7 C21_7 1_555 1_555
H22_7 C25_7 1_555 1_555
C26_7 C21_7 1_555 1_555
H23_7 C26_7 1_555 1_555
O14_4 Cd2_3 1_555 1_555
C16_8 C17_8 1_555 1_555
C18_8 C19_8 1_555 1_555
C25_7 C26_7 1_555 1_555
C5_7 C6_7 1_555 1_555
C12_7 C6_7 1_555 1_555
H13_7 C12_7 1_555 1_555
H14_7 C12_7 1_555 1_555
O4_4 C20_8 1_555 1_555
O5_4 C20_8 1_555 1_555
O6_8 C9_8 1_555 1_555
C2_8 C3_8 1_555 1_555
C3_8 C4_8 1_555 1_555
C8_8 C2_8 1_555 1_555
H3_8 C8_8 1_555 1_555
H4_8 C8_8 1_555 1_555
H5_8 C8_8 1_555 1_555
C9_8 C3_8 1_555 1_555
H6_8 C9_8 1_555 1_555
H7_8 C9_8 1_555 1_555
C10_8 C4_8 1_555 1_555
H8_8 C10_8 1_555 1_555
H9_8 C10_8 1_555 1_555
H10_8 C10_8 1_555 1_555
C20_8 C21_8 1_555 1_555
C21_8 C22_8 1_555 1_555
C22_8 H20_8 1_555 1_555
C23_8 C22_8 1_555 1_555
H21_8 C23_8 1_555 1_555
C24_8 O6_8 1_555 1_555
C25_8 C24_8 1_555 1_555
H22_8 C25_8 1_555 1_555
C26_8 C21_8 1_555 1_555
H23_8 C26_8 1_555 1_555
Cd2_4 O4_4 1_555 1_555
O5_4 Cd2_4 1_555 1_555
C23_8 C24_8 1_555 1_555
C25_8 C26_8 1_555 1_555
O7_4 C27_8 1_555 1_555
O8_4 C27_8 1_555 1_555
O9_8 C11_8 1_555 1_555
H11_8 C11_8 1_555 1_555
H12_8 C11_8 1_555 1_555
C27_8 C28_8 1_555 1_555
C28_8 C29_8 1_555 1_555
C29_8 H24_8 1_555 1_555
C30_8 C29_8 1_555 1_555
H25_8 C30_8 1_555 1_555
C31_8 O9_8 1_555 1_555
C32_8 C31_8 1_555 1_555
H26_8 C32_8 1_555 1_555
C33_8 C28_8 1_555 1_555
H27_8 C33_8 1_555 1_555
Cd2_4 O7_4 1_555 1_555
O8_4 Cd2_4 1_555 1_555
C30_8 C31_8 1_555 1_555
C32_8 C33_8 1_555 1_555
Cd2_4 O1_8 1_555 1_555
O1_8 C13_8 1_555 1_555
O2_8 Cd2_4 1_555 1_555
C13_8 O2_8 1_555 1_555
C14_8 C13_8 1_555 1_555
C15_8 C14_8 1_555 1_555
H16_8 C15_8 1_555 1_555
O10_8 Cd2_4 1_555 1_555
N1_8 C34_8 1_555 1_555
C34_8 O10_8 1_555 1_555
C35_8 N1_8 1_555 1_555
H28_8 C35_8 1_555 1_555
H29_8 C35_8 1_555 1_555
H30_8 C35_8 1_555 1_555
C36_6 N1_8 1_555 1_555
H31_6 C36_6 1_555 1_555
H32_6 C36_6 1_555 1_555
H33_6 C36_6 1_555 1_555
C34_8 H42_8 1_555 1_555
H31_7 C36_7 1_555 1_555
H32_7 C36_7 1_555 1_555
H33_7 C36_7 1_555 1_555
C5_8 C6_8 1_555 1_555
C12_8 C6_8 1_555 1_555
H13_8 C12_8 1_555 1_555
H14_8 C12_8 1_555 1_555
H31_8 C36_8 1_555 1_555
H32_8 C36_8 1_555 1_555
H33_8 C36_8 1_555 1_555
H36 C37 1_555 1_555
H37 C37 1_555 1_555
H38 C37 1_555 1_555
N2 H34 1_555 1_555
H35 N2 1_555 1_555
C38 N2 1_555 1_555
H39 C38 1_555 1_555
H41 C38 1_555 1_555
H36_2 C37_2 1_555 1_555
H37_2 C37_2 1_555 1_555
H38_2 C37_2 1_555 1_555
N2_2 H34_2 1_555 1_555
H35_2 N2_2 1_555 1_555
C38_2 N2_2 1_555 1_555
H39_2 C38_2 1_555 1_555
H41_2 C38_2 1_555 1_555
N2_3 H34_3 1_555 1_555
H35_3 N2_3 1_555 1_555
C37_3 N2_3 1_555 1_555
H36_3 C37_3 1_555 1_555
H37_3 C37_3 1_555 1_555
H38_3 C37_3 1_555 1_555
C38_3 N2_3 1_555 1_555
H39_3 C38_3 1_555 1_555
H40_3 C38_3 1_555 1_555
H41_3 C38_3 1_555 1_555
N2_4 H34_4 1_555 1_555
H35_4 N2_4 1_555 1_555
C37_4 N2_4 1_555 1_555
H36_4 C37_4 1_555 1_555
H37_4 C37_4 1_555 1_555
H38_4 C37_4 1_555 1_555
C38_4 N2_4 1_555 1_555
H39_4 C38_4 1_555 1_555
H40_4 C38_4 1_555 1_555
H41_4 C38_4 1_555 1_555
N2_5 H34_5 1_555 1_555
H35_5 N2_5 1_555 1_555
C38_5 N2_5 1_555 1_555
H39_5 C38_5 1_555 1_555
H41_5 C38_5 1_555 1_555
H36_5 C37_5 1_555 1_555
H37_5 C37_5 1_555 1_555
H38_5 C37_5 1_555 1_555
N2_6 H34_6 1_555 1_555
H35_6 N2_6 1_555 1_555
C38_6 N2_6 1_555 1_555
H39_6 C38_6 1_555 1_555
H41_6 C38_6 1_555 1_555
H36_6 C37_6 1_555 1_555
H37_6 C37_6 1_555 1_555
H38_6 C37_6 1_555 1_555
N2_7 H34_7 1_555 1_555
H35_7 N2_7 1_555 1_555
C37_7 N2_7 1_555 1_555
H36_7 C37_7 1_555 1_555
H37_7 C37_7 1_555 1_555
H38_7 C37_7 1_555 1_555
C38_7 N2_7 1_555 1_555
H39_7 C38_7 1_555 1_555
H40_7 C38_7 1_555 1_555
H41_7 C38_7 1_555 1_555
N2_8 H34_8 1_555 1_555
H35_8 N2_8 1_555 1_555
C37_8 N2_8 1_555 1_555
H36_8 C37_8 1_555 1_555
H37_8 C37_8 1_555 1_555
H38_8 C37_8 1_555 1_555
C38_8 N2_8 1_555 1_555
H39_8 C38_8 1_555 1_555
H40_8 C38_8 1_555 1_555
H41_8 C38_8 1_555 1_555

#END
