
###############################################################################
#
# This file contains modified crystal structure data generated from the
# MOF subset of the Cambridge Structural Database (CSD) v543 
# hosted by the Cambridge Crystallographic Data Centre (CCDC).
#
# This work is licensed under the Creative Commons
# Attribution-NonCommercial-ShareAlike 4.0 International License.
# To view a copy of this license, visit
# http://creativecommons.org/licenses/by-nc-sa/4.0/
# or send a letter to
# Creative Commons, PO Box 1866, Mountain View, CA 94042, USA.
#
# CIF created using the CSD Python API on 29 September 2022
# The structure has been converted into the P1 space group
# The structure has a 3D framework
# The original CSD entry VAYDOQ is in the orthorhombic crystal system
# The framework has been calculated to contain at least 10.0% void space
# The void calculation uses a probe of radius 1.32A, grid spacing 0.4
#
###############################################################################

data_VAYDOQ
_chemical_formula_moiety         '(C24 H40 Li14 O44 S8)n'
_symmetry_cell_setting           triclinic
_symmetry_space_group_name_H-M   'P 1'
_symmetry_Int_Tables_number      1
_space_group_name_Hall           'P 1'
loop_
_symmetry_equiv_pos_site_id
_symmetry_equiv_pos_as_xyz
1 x,y,z
_cell_length_a                   13.552(3)
_cell_length_b                   15.623(3)
_cell_length_c                   7.5203(15)
_cell_angle_alpha                90
_cell_angle_beta                 90
_cell_angle_gamma                90
_cell_volume                     1592.22
loop_
_atom_site_label
_atom_site_type_symbol
_atom_site_fract_x
_atom_site_fract_y
_atom_site_fract_z
Li2 Li 0.4818(3) 0.0171(2) 0.6628(5)
S1 S 0.32970(3) 0.07763(2) 0.33200(5)
O1 O 0.31830(10) 0.03564(8) 0.50428(17)
O3 O 0.23446(9) 0.10070(8) 0.25464(18)
O4 O 0.42831(11) 0.07818(10) 0.8663(2)
H3 H 0.4136 0.0646 0.9682
H4 H 0.4781 0.0517 0.8378
O5 O 0.38948(9) 0.02440(7) 0.21291(17)
O6 O 0.53376(8) 0.09667(7) 0.47165(17)
C1 C 0.34511(17) 0.2500 0.3343(3)
H5 H 0.2815 0.2500 0.2880
C2 C 0.39201(11) 0.17312(9) 0.3687(2)
C3 C 0.48969(12) 0.17076(10) 0.4381(2)
C4 C 0.53560(17) 0.2500 0.4697(4)
H6 H 0.5997 0.2500 0.5138
Li3 Li 0.3245(2) 0.58893(19) 0.5221(4)
Li4 Li 0.1755(2) 0.08893(19) 0.0221(4)
Li5 Li 0.6755(2) 0.08893(19) 0.4779(4)
Li6 Li 0.1755(2) 0.41107(19) 0.0221(4)
Li7 Li 0.6755(2) 0.41107(19) 0.4779(4)
Li8 Li 0.4818(3) 0.4829(2) 0.6628(5)
Li10 Li 0.5182(3) 0.5171(2) 0.3372(5)
S2 S 0.32970(3) 0.42237(2) 0.33200(5)
O7 O 0.31830(10) 0.46436(8) 0.50428(17)
O8 O 0.25795(11) 0.65664(9) 0.33179(19)
H7 H 0.2055 0.6309 0.3220
H8 H 0.2882 0.6529 0.2377
O9 O 0.23446(9) 0.39930(8) 0.25464(18)
O11 O 0.26554(9) 0.60070(8) 0.75464(18)
O12 O 0.42831(11) 0.42182(10) 0.8663(2)
H9 H 0.4136 0.4354 0.9682
H10 H 0.4781 0.4483 0.8378
O13 O 0.38948(9) 0.47560(7) 0.21291(17)
O15 O 0.61052(9) 0.52440(7) 0.78709(17)
O16 O 0.53376(8) 0.40333(7) 0.47165(17)
O18 O 0.46624(8) 0.59667(7) 0.52835(17)
C5 C 0.39201(11) 0.32688(9) 0.3687(2)
C6 C 0.48969(12) 0.32924(10) 0.4381(2)
Li1 Li 0.3245(2) 0.91107(19) 0.5221(4)
O2 O 0.25795(11) 0.84336(9) 0.33179(19)
H1 H 0.2055 0.8691 0.3220
H2 H 0.2882 0.8471 0.2377
Li9 Li 0.5182(3) 0.9829(2) 0.3372(5)
O10 O 0.26554(9) 0.89930(8) 0.75464(18)
O14 O 0.61052(9) 0.97560(7) 0.78709(17)
O17 O 0.46624(8) 0.90333(7) 0.52835(17)
O17_2 O 0.03376(8) 0.09667(7) 0.02835(17)
Li2_2 Li 0.0182(3) 0.9829(2) 0.1628(5)
O1_2 O 0.18170(10) 0.96436(8) 0.00428(17)
O4_2 O 0.07169(11) 0.92182(10) 0.3663(2)
H3_2 H 0.0864 0.9354 0.4682
H4_2 H 0.0219 0.9483 0.3378
Li8_2 Li 0.0182(3) 0.5171(2) 0.1628(5)
O7_2 O 0.18170(10) 0.53564(8) 0.00428(17)
O12_2 O 0.07169(11) 0.57818(10) 0.3663(2)
H9_2 H 0.0864 0.5646 0.4682
H10_2 H 0.0219 0.5517 0.3378
O18_2 O 0.03376(8) 0.40333(7) 0.02835(17)
S1_2 S 0.17030(3) 0.92237(2) 0.83200(5)
O5_2 O 0.11052(9) 0.97560(7) 0.71291(17)
C1_2 C 0.15489(17) 0.7500 0.8343(3)
H5_2 H 0.2185 0.7500 0.7880
C2_2 C 0.10799(11) 0.82688(9) 0.8687(2)
C3_2 C 0.01031(12) 0.82924(10) 0.9381(2)
S2_2 S 0.17030(3) 0.57763(2) 0.83200(5)
O8_2 O 0.24205(11) 0.34336(9) 0.83179(19)
H7_2 H 0.2945 0.3691 0.8220
H8_2 H 0.2118 0.3471 0.7377
O13_2 O 0.11052(9) 0.52440(7) 0.71291(17)
C5_2 C 0.10799(11) 0.67312(9) 0.8687(2)
C6_2 C 0.01031(12) 0.67076(10) 0.9381(2)
O14_2 O 0.88948(9) 0.02440(7) 0.28709(17)
Li9_2 Li 0.9818(3) 0.0171(2) 0.8372(5)
H6_2 H 0.9003 0.7500 0.0138
O15_2 O 0.88948(9) 0.47560(7) 0.28709(17)
O6_2 O 0.96624(8) 0.90333(7) 0.97165(17)
C4_2 C 0.96440(17) 0.7500 0.9697(4)
Li5_2 Li 0.8245(2) 0.91107(19) 0.9779(4)
Li7_2 Li 0.8245(2) 0.58893(19) 0.9779(4)
Li10_2 Li 0.9818(3) 0.4829(2) 0.8372(5)
O16_2 O 0.96624(8) 0.59667(7) 0.97165(17)
C4_3 C 0.03560(17) 0.2500 0.0303(4)
H6_3 H 0.0997 0.2500 0.9862
S1_3 S 0.82970(3) 0.42237(2) 0.16800(5)
O2_2 O 0.75795(11) 0.65664(9) 0.16821(19)
H1_2 H 0.7055 0.6309 0.1780
H2_2 H 0.7882 0.6529 0.2623
O3_2 O 0.73446(9) 0.39930(8) 0.24536(18)
C1_3 C 0.84511(17) 0.2500 0.1657(3)
H5_3 H 0.7815 0.2500 0.2120
C2_3 C 0.89201(11) 0.32688(9) 0.1313(2)
C3_3 C 0.98969(12) 0.32924(10) 0.0619(2)
S2_3 S 0.82970(3) 0.07763(2) 0.16800(5)
O9_2 O 0.73446(9) 0.10070(8) 0.24536(18)
C5_3 C 0.89201(11) 0.17312(9) 0.1313(2)
C6_3 C 0.98969(12) 0.17076(10) 0.0619(2)
O1_3 O 0.81830(10) 0.46436(8) 0.99572(17)
O4_3 O 0.92831(11) 0.42182(10) 0.6337(2)
H3_3 H 0.9136 0.4354 0.5318
H4_3 H 0.9781 0.4483 0.6622
O7_3 O 0.81830(10) 0.03564(8) 0.99572(17)
O10_2 O 0.76554(9) 0.60070(8) 0.74536(18)
O12_3 O 0.92831(11) 0.07818(10) 0.6337(2)
H9_3 H 0.9136 0.0646 0.5318
H10_3 H 0.9781 0.0517 0.6622
O11_2 O 0.76554(9) 0.89930(8) 0.74536(18)
O8_3 O 0.74205(11) 0.15664(9) 0.66821(19)
H7_3 H 0.7945 0.1309 0.6780
H8_3 H 0.7118 0.1529 0.7623
S1_4 S 0.67030(3) 0.57763(2) 0.66800(5)
O1_4 O 0.68170(10) 0.53564(8) 0.49572(17)
O2_3 O 0.74205(11) 0.34336(9) 0.66821(19)
H1_3 H 0.7945 0.3691 0.6780
H2_3 H 0.7118 0.3471 0.7623
O4_4 O 0.57169(11) 0.57818(10) 0.1337(2)
H3_4 H 0.5864 0.5646 0.0318
H4_4 H 0.5219 0.5517 0.1622
C1_4 C 0.65489(17) 0.7500 0.6657(3)
H5_4 H 0.7185 0.7500 0.7120
C2_4 C 0.60799(11) 0.67312(9) 0.6313(2)
C3_4 C 0.51031(12) 0.67076(10) 0.5619(2)
C4_4 C 0.46440(17) 0.7500 0.5303(4)
H6_4 H 0.4003 0.7500 0.4862
S2_4 S 0.67030(3) 0.92237(2) 0.66800(5)
O7_4 O 0.68170(10) 0.96436(8) 0.49572(17)
O12_4 O 0.57169(11) 0.92182(10) 0.1337(2)
H9_4 H 0.5864 0.9354 0.0318
H10_4 H 0.5219 0.9483 0.1622
C5_4 C 0.60799(11) 0.82688(9) 0.6313(2)
C6_4 C 0.51031(12) 0.82924(10) 0.5619(2)
O2_4 O 0.24205(11) 0.15664(9) 0.83179(19)
H1_4 H 0.2945 0.1309 0.8220
H2_4 H 0.2118 0.1529 0.7377
O8_4 O 0.75795(11) 0.84336(9) 0.16821(19)
H7_4 H 0.7055 0.8691 0.1780
H8_4 H 0.7882 0.8471 0.2623
loop_
_geom_bond_atom_site_label_1
_geom_bond_atom_site_label_2
_geom_bond_site_symmetry_1
_geom_bond_site_symmetry_2
Li2 O1 1_555 1_555
S1 O1 1_555 1_555
O3 S1 1_555 1_555
O4 Li2 1_555 1_555
H3 O4 1_555 1_555
H4 O4 1_555 1_555
O5 S1 1_555 1_555
O6 Li2 1_555 1_555
C1 H5 1_555 1_555
C2 S1 1_555 1_555
C3 O6 1_555 1_555
C4 C3 1_555 1_555
H6 C4 1_555 1_555
Li3 O7 1_555 1_555
Li4 O3 1_555 1_555
Li5 O6 1_555 1_555
Li6 O9 1_555 1_555
Li7 O16 1_555 1_555
Li8 O7 1_555 1_555
Li10 O13 1_555 1_555
S2 O7 1_555 1_555
O8 Li3 1_555 1_555
H7 O8 1_555 1_555
H8 O8 1_555 1_555
O9 S2 1_555 1_555
O11 Li3 1_555 1_555
O12 Li8 1_555 1_555
H9 O12 1_555 1_555
H10 O12 1_555 1_555
O13 S2 1_555 1_555
O15 Li8 1_555 1_555
O16 Li8 1_555 1_555
O18 Li3 1_555 1_555
C5 C1 1_555 1_555
C6 C4 1_555 1_555
C1 C2 1_555 1_555
C2 C3 1_555 1_555
Li8 O18 1_555 1_555
Li10 O16 1_555 1_555
Li10 O18 1_555 1_555
S2 C5 1_555 1_555
O16 C6 1_555 1_555
C5 C6 1_555 1_555
O2 Li1 1_555 1_555
H1 O2 1_555 1_555
H2 O2 1_555 1_555
O10 Li1 1_555 1_555
O17 Li1 1_555 1_555
Li9 O17 1_555 1_555
O17_2 Li4 1_555 1_555
Li2_2 O1_2 1_555 1_555
O4_2 Li2_2 1_555 1_555
H3_2 O4_2 1_555 1_555
H4_2 O4_2 1_555 1_555
Li6 O7_2 1_555 1_555
Li8_2 O7_2 1_555 1_555
O12_2 Li8_2 1_555 1_555
H9_2 O12_2 1_555 1_555
H10_2 O12_2 1_555 1_555
O18_2 Li6 1_555 1_555
Li8_2 O18_2 1_555 1_555
O10 S1_2 1_555 1_555
O5_2 S1_2 1_555 1_555
C1_2 H5_2 1_555 1_555
C2_2 S1_2 1_555 1_555
H7_2 O8_2 1_555 1_555
H8_2 O8_2 1_555 1_555
O11 S2_2 1_555 1_555
O13_2 S2_2 1_555 1_555
C5_2 C1_2 1_555 1_555
C1_2 C2_2 1_555 1_555
C2_2 C3_2 1_555 1_555
S2_2 C5_2 1_555 1_555
C5_2 C6_2 1_555 1_555
Li5_2 O6_2 1_555 1_555
Li7_2 O16_2 1_555 1_555
Li10_2 O16_2 1_555 1_555
H1_2 O2_2 1_555 1_555
H2_2 O2_2 1_555 1_555
O3_2 S1_3 1_555 1_555
O15_2 S1_3 1_555 1_555
C1_3 H5_3 1_555 1_555
C2_3 S1_3 1_555 1_555
Li7 O3_2 1_555 1_555
Li5 O9_2 1_555 1_555
O9_2 S2_3 1_555 1_555
O14_2 S2_3 1_555 1_555
C5_3 C1_3 1_555 1_555
C1_3 C2_3 1_555 1_555
C2_3 C3_3 1_555 1_555
S2_3 C5_3 1_555 1_555
C5_3 C6_3 1_555 1_555
Li7_2 O1_3 1_555 1_555
Li10_2 O1_3 1_555 1_555
O4_3 Li10_2 1_555 1_555
H3_3 O4_3 1_555 1_555
H4_3 O4_3 1_555 1_555
Li9_2 O7_3 1_555 1_555
O10_2 Li7_2 1_555 1_555
O12_3 Li9_2 1_555 1_555
H9_3 O12_3 1_555 1_555
H10_3 O12_3 1_555 1_555
O11_2 Li5_2 1_555 1_555
O8_3 Li5 1_555 1_555
H7_3 O8_3 1_555 1_555
H8_3 O8_3 1_555 1_555
Li7 O1_4 1_555 1_555
Li10 O1_4 1_555 1_555
S1_4 O1_4 1_555 1_555
O2_3 Li7 1_555 1_555
H1_3 O2_3 1_555 1_555
H2_3 O2_3 1_555 1_555
O10_2 S1_4 1_555 1_555
O4_4 Li10 1_555 1_555
H3_4 O4_4 1_555 1_555
H4_4 O4_4 1_555 1_555
O15 S1_4 1_555 1_555
C1_4 H5_4 1_555 1_555
C2_4 S1_4 1_555 1_555
C3_4 O18 1_555 1_555
C4_4 C3_4 1_555 1_555
H6_4 C4_4 1_555 1_555
Li9 O7_4 1_555 1_555
S2_4 O7_4 1_555 1_555
O11_2 S2_4 1_555 1_555
O12_4 Li9 1_555 1_555
H9_4 O12_4 1_555 1_555
H10_4 O12_4 1_555 1_555
O14 S2_4 1_555 1_555
C5_4 C1_4 1_555 1_555
C6_4 C4_4 1_555 1_555
C1_4 C2_4 1_555 1_555
C2_4 C3_4 1_555 1_555
S2_4 C5_4 1_555 1_555
O17 C6_4 1_555 1_555
C5_4 C6_4 1_555 1_555
H1_4 O2_4 1_555 1_555
H2_4 O2_4 1_555 1_555
H7_4 O8_4 1_555 1_555
H8_4 O8_4 1_555 1_555

#END
