
###############################################################################
#
# This file contains modified crystal structure data generated from the
# MOF subset of the Cambridge Structural Database (CSD) v543 
# hosted by the Cambridge Crystallographic Data Centre (CCDC).
#
# This work is licensed under the Creative Commons
# Attribution-NonCommercial-ShareAlike 4.0 International License.
# To view a copy of this license, visit
# http://creativecommons.org/licenses/by-nc-sa/4.0/
# or send a letter to
# Creative Commons, PO Box 1866, Mountain View, CA 94042, USA.
#
# CIF created using the CSD Python API on 29 September 2022
# The structure has been converted into the P1 space group
# The structure has a 3D framework
# The original CSD entry VAYWEZ is in the monoclinic crystal system
# The framework has been calculated to contain at least 10.0% void space
# The void calculation uses a probe of radius 1.32A, grid spacing 0.4
# The framework is charged, counterions have been retained in the structure
#
###############################################################################

data_VAYWEZ
_chemical_formula_moiety         '(C56 H80 Ag10 N48 10+)n'
_symmetry_cell_setting           triclinic
_symmetry_space_group_name_H-M   'P 1'
_symmetry_Int_Tables_number      1
_space_group_name_Hall           'P 1'
loop_
_symmetry_equiv_pos_site_id
_symmetry_equiv_pos_as_xyz
1 x,y,z
_cell_length_a                   13.119(1)
_cell_length_b                   22.809(1)
_cell_length_c                   11.840(2)
_cell_angle_alpha                90
_cell_angle_beta                 91.946(1)
_cell_angle_gamma                90
_cell_volume                     3540.85
loop_
_atom_site_label
_atom_site_type_symbol
_atom_site_fract_x
_atom_site_fract_y
_atom_site_fract_z
Ag6 Ag 0.11671(9) 0.79831(5) 0.39026(9)
N15 N 0.2096(8) 0.7680(5) 0.5702(10)
N18 N 0.1961(8) 0.7621(5) 0.2476(10)
Ag1 Ag 0.5000 1.0000 0.0000
Ag4 Ag 0.75972(9) 0.78670(6) 0.72493(11)
N13 N 0.8505(8) 0.8196(5) 0.5912(10)
N20 N 0.8584(8) 0.8759(5) 0.5521(8)
N21 N 0.9906(9) 0.8302(5) 0.4932(10)
C15 C 0.4465(8) 0.9504(8) 0.2388(10)
H21 H 0.3788 0.9433 0.2172
N22 N 0.4871(8) 0.9437(8) 0.3402(10)
N23 N 0.5834(8) 0.9580(7) 0.3370(9)
C16 C 0.6023(8) 0.9734(8) 0.2336(9)
H22 H 0.6650 0.9856 0.2077
N24 N 0.5177(8) 0.9687(7) 0.1728(9)
C17 C 0.6449(16) 0.9686(9) 0.4420(17)
H23 H 0.6014 0.9784 0.5038
C18 C 0.6991(12) 0.9134(8) 0.4646(16)
H25 H 0.7325 0.9009 0.3969
H26 H 0.6503 0.8833 0.4838
C19 C 0.9335(11) 0.7952(6) 0.5551(12)
H27 H 0.9512 0.7565 0.5714
C22 C 0.7792(11) 0.9196(7) 0.5620(14)
H32 H 0.8092 0.9584 0.5602
H33 H 0.7466 0.9149 0.6337
C25 C 0.9425(11) 0.8810(6) 0.4929(12)
H36 H 0.9638 0.9150 0.4571
N28 N 0.6559(9) 0.7628(6) 0.8514(11)
N14 N 0.2096(8) 0.7320(5) 0.0702(10)
N19 N 0.2625(8) 0.6959(5) 0.1394(9)
C20 C 0.3203(11) 0.6477(6) 0.0961(15)
H28 H 0.2845 0.6319 0.0299
H29 H 0.3249 0.6170 0.1527
C21 C 0.4283(11) 0.6658(7) 0.0642(14)
H30 H 0.4624 0.6844 0.1287
H31 H 0.4668 0.6311 0.0455
C23 C 0.2543(10) 0.7143(6) 0.2449(12)
H34 H 0.2848 0.6963 0.3080
C24 C 0.1695(10) 0.7696(6) 0.1397(11)
H35 H 0.1257 0.7993 0.1150
N26 N 0.5807(11) 0.7595(7) 0.0193(12)
Ag3 Ag 0.11671(9) 0.70169(5) 0.89026(9)
N17 N 0.1961(8) 0.7379(5) 0.7476(10)
C26 C 0.4274(12) 0.7068(9) 0.9669(18)
H37 H 0.3995 0.6863 0.9010
H38 H 0.3814 0.7389 0.9827
N25 N 0.5241(10) 0.7311(7) 0.9389(12)
C27 C 0.5699(12) 0.7342(8) 0.8405(14)
H39 H 0.5442 0.7182 0.7731
C28 C 0.6588(13) 0.7771(8) 0.9608(16)
H40 H 0.7127 0.7982 0.9938
Ag2 Ag 0.75972(9) 0.71330(6) 0.22493(11)
N1 N 0.8505(8) 0.6804(5) 0.0912(10)
N4 N 0.2625(8) 0.8041(5) 0.6394(9)
N5 N 0.8584(8) 0.6241(5) 0.0521(8)
H3 H 0.6014 0.5216 0.0038
C5 C 0.9335(11) 0.7048(6) 0.0551(12)
H7 H 0.9512 0.7435 0.0714
C6 C 0.3203(11) 0.8523(6) 0.5961(15)
H8 H 0.2845 0.8681 0.5299
H9 H 0.3249 0.8830 0.6527
C7 C 0.4283(11) 0.8342(7) 0.5642(14)
H10 H 0.4624 0.8156 0.6287
H11 H 0.4668 0.8689 0.5455
C8 C 0.7792(11) 0.5804(7) 0.0620(14)
H12 H 0.8092 0.5416 0.0602
H13 H 0.7466 0.5851 0.1337
C9 C 0.2543(10) 0.7857(6) 0.7449(12)
H14 H 0.2848 0.8037 0.8080
C10 C 0.1695(10) 0.7304(6) 0.6397(11)
H15 H 0.1257 0.7007 0.6150
C12 C 0.4274(12) 0.7932(9) 0.4669(18)
H17 H 0.3995 0.8137 0.4010
H18 H 0.3814 0.7611 0.4827
N10 N 0.5241(10) 0.7689(7) 0.4389(12)
N11 N 0.5807(11) 0.7405(7) 0.5193(12)
C13 C 0.5699(12) 0.7658(8) 0.3405(14)
H19 H 0.5442 0.7818 0.2731
C14 C 0.6588(13) 0.7229(8) 0.4608(16)
H20 H 0.7127 0.7018 0.4938
N12 N 0.6559(9) 0.7372(6) 0.3514(11)
Ag1_2 Ag 0.5000 0.0000 0.0000
H24 H 0.6927 0.0004 0.4317
Ag1_3 Ag 0.5000 0.0000 1.0000
Ag2_2 Ag 0.24028(9) 0.21330(6) 0.27507(11)
N1_2 N 0.1495(8) 0.1804(5) 0.4088(10)
N5_2 N 0.1416(8) 0.1241(5) 0.4479(8)
N6 N 0.0094(9) 0.1698(5) 0.5068(10)
C1 C 0.5535(8) 0.0496(8) 0.7612(10)
H1 H 0.6212 0.0567 0.7828
N7 N 0.5129(8) 0.0563(8) 0.6598(10)
N8 N 0.4166(8) 0.0420(7) 0.6630(9)
C2 C 0.3977(8) 0.0266(8) 0.7664(9)
H2 H 0.3350 0.0144 0.7923
N9 N 0.4823(8) 0.0313(7) 0.8272(9)
C3 C 0.3551(16) 0.0314(9) 0.5580(17)
H3_2 H 0.3986 0.0216 0.4962
C4 C 0.3009(12) 0.0866(8) 0.5354(16)
H5 H 0.2675 0.0991 0.6031
H6 H 0.3497 0.1167 0.5162
C5_2 C 0.0665(11) 0.2048(6) 0.4449(12)
H7_2 H 0.0488 0.2435 0.4286
C8_2 C 0.2208(11) 0.0804(7) 0.4380(14)
H12_2 H 0.1908 0.0416 0.4398
H13_2 H 0.2534 0.0851 0.3663
C11 C 0.0575(11) 0.1190(6) 0.5071(12)
H16 H 0.0362 0.0850 0.5429
C12_2 C 0.5726(12) 0.2932(9) 0.0331(18)
H17_2 H 0.6005 0.3137 0.0990
H18_2 H 0.6186 0.2611 0.0173
N10_2 N 0.4759(10) 0.2689(7) 0.0611(12)
C13_2 C 0.4301(12) 0.2658(8) 0.1595(14)
H19_2 H 0.4558 0.2818 0.2269
C14_2 C 0.3412(13) 0.2229(8) 0.0392(16)
H20_2 H 0.2873 0.2018 0.0062
N12_2 N 0.3441(9) 0.2372(6) 0.1486(11)
Ag7 Ag 0.88329(9) 0.29831(5) 0.10974(9)
N2 N 0.7904(8) 0.2680(5) 0.9298(10)
N3 N 0.8039(8) 0.2379(5) 0.7524(10)
N4_2 N 0.7375(8) 0.3041(5) 0.8606(9)
C6_2 C 0.6797(11) 0.3523(6) 0.9039(15)
H8_2 H 0.7155 0.3681 0.9701
H9_2 H 0.6751 0.3830 0.8473
C7_2 C 0.5717(11) 0.3342(7) 0.9358(14)
H10_2 H 0.5376 0.3156 0.8713
H11_2 H 0.5332 0.3689 0.9545
C9_2 C 0.7457(10) 0.2857(6) 0.7551(12)
H14_2 H 0.7152 0.3037 0.6920
C10_2 C 0.8305(10) 0.2304(6) 0.8603(11)
H15_2 H 0.8743 0.2007 0.8850
N11_2 N 0.4193(11) 0.2405(7) 0.9807(12)
Ag8 Ag 0.88329(9) 0.20169(5) 0.60974(9)
Ag5 Ag 0.24028(9) 0.28670(6) 0.77507(11)
N14_2 N 0.7904(8) 0.2320(5) 0.4298(10)
N16 N 0.8039(8) 0.2621(5) 0.2524(10)
N19_2 N 0.7375(8) 0.1959(5) 0.3606(9)
C20_2 C 0.6797(11) 0.1477(6) 0.4039(15)
H28_2 H 0.7155 0.1319 0.4701
H29_2 H 0.6751 0.1170 0.3473
C21_2 C 0.5717(11) 0.1658(7) 0.4358(14)
H30_2 H 0.5376 0.1844 0.3713
H31_2 H 0.5332 0.1311 0.4545
C23_2 C 0.7457(10) 0.2143(6) 0.2551(12)
H34_2 H 0.7152 0.1963 0.1920
C24_2 C 0.8305(10) 0.2696(6) 0.3603(11)
H35_2 H 0.8743 0.2993 0.3850
C26_2 C 0.5726(12) 0.2068(9) 0.5331(18)
H37_2 H 0.6005 0.1863 0.5990
H38_2 H 0.6186 0.2389 0.5173
N25_2 N 0.4759(10) 0.2311(7) 0.5611(12)
N26_2 N 0.4193(11) 0.2595(7) 0.4807(12)
C27_2 C 0.4301(12) 0.2342(8) 0.6595(14)
H39_2 H 0.4558 0.2182 0.7269
C28_2 C 0.3412(13) 0.2771(8) 0.5392(16)
H40_2 H 0.2873 0.2982 0.5062
N27 N 0.3441(9) 0.2628(6) 0.6486(11)
N13_2 N 0.1495(8) 0.3196(5) 0.9088(10)
N20_2 N 0.1416(8) 0.3759(5) 0.9479(8)
H23_2 H 0.3986 0.4784 0.9962
C19_2 C 0.0665(11) 0.2952(6) 0.9449(12)
H27_2 H 0.0488 0.2565 0.9286
C22_2 C 0.2208(11) 0.4196(7) 0.9380(14)
H32_2 H 0.1908 0.4584 0.9398
H33_2 H 0.2534 0.4149 0.8663
Ag1_4 Ag 0.5000 1.0000 1.0000
H4 H 0.3073 0.9996 0.5683
Ag1_5 Ag 0.5000 0.5000 0.5000
N6_2 N 0.9906(9) 0.6698(5) 0.9932(10)
C1_2 C 0.4465(8) 0.5496(8) 0.7388(10)
H1_2 H 0.3788 0.5567 0.7172
N7_2 N 0.4871(8) 0.5563(8) 0.8402(10)
N8_2 N 0.5834(8) 0.5420(7) 0.8370(9)
C2_2 C 0.6023(8) 0.5266(8) 0.7336(9)
H2_2 H 0.6650 0.5144 0.7077
N9_2 N 0.5177(8) 0.5313(7) 0.6728(9)
C3_2 C 0.6449(16) 0.5314(9) 0.9420(17)
H4_2 H 0.6927 0.4996 0.9317
C4_2 C 0.6991(12) 0.5866(8) 0.9646(16)
H5_2 H 0.7325 0.5991 0.8969
H6_2 H 0.6503 0.6167 0.9838
C11_2 C 0.9425(11) 0.6190(6) 0.9929(12)
H16_2 H 0.9638 0.5850 0.9571
N21_2 N 0.0094(9) 0.3302(5) 0.0068(10)
C15_2 C 0.5535(8) 0.4504(8) 0.2612(10)
H21_2 H 0.6212 0.4433 0.2828
N22_2 N 0.5129(8) 0.4437(8) 0.1598(10)
N23_2 N 0.4166(8) 0.4580(7) 0.1630(9)
C16_2 C 0.3977(8) 0.4734(8) 0.2664(9)
H22_2 H 0.3350 0.4856 0.2923
N24_2 N 0.4823(8) 0.4687(7) 0.3272(9)
C17_2 C 0.3551(16) 0.4686(9) 0.0580(17)
H24_2 H 0.3073 0.5004 0.0683
C18_2 C 0.3009(12) 0.4134(8) 0.0354(16)
H25_2 H 0.2675 0.4009 0.1031
H26_2 H 0.3497 0.3833 0.0162
C25_2 C 0.0575(11) 0.3810(6) 0.0071(12)
H36_2 H 0.0362 0.4150 0.0429
loop_
_geom_bond_atom_site_label_1
_geom_bond_atom_site_label_2
_geom_bond_site_symmetry_1
_geom_bond_site_symmetry_2
Ag6 N15 1_555 1_555
N18 Ag6 1_555 1_555
Ag4 N13 1_555 1_555
N13 N20 1_555 1_555
N20 C22 1_555 1_555
C15 H21 1_555 1_555
N22 C15 1_555 1_555
N23 N22 1_555 1_555
C16 N23 1_555 1_555
H22 C16 1_555 1_555
N24 Ag1 1_555 1_555
C17 N23 1_555 1_555
H23 C17 1_555 1_555
C18 C17 1_555 1_555
H25 C18 1_555 1_555
H26 C18 1_555 1_555
C19 N13 1_555 1_555
H27 C19 1_555 1_555
C22 C18 1_555 1_555
H32 C22 1_555 1_555
H33 C22 1_555 1_555
C25 N20 1_555 1_555
H36 C25 1_555 1_555
N28 Ag4 1_555 1_555
N21 C19 1_555 1_555
N21 C25 1_555 1_555
C15 N24 1_555 1_555
C16 N24 1_555 1_555
N18 C23 1_555 1_555
N19 N14 1_555 1_555
C20 N19 1_555 1_555
H28 C20 1_555 1_555
H29 C20 1_555 1_555
C21 C20 1_555 1_555
H30 C21 1_555 1_555
H31 C21 1_555 1_555
C23 N19 1_555 1_555
H34 C23 1_555 1_555
C24 N14 1_555 1_555
H35 C24 1_555 1_555
N18 C24 1_555 1_555
N17 Ag3 1_555 1_555
H37 C26 1_555 1_555
H38 C26 1_555 1_555
N25 C26 1_555 1_555
C27 N25 1_555 1_555
H39 C27 1_555 1_555
H40 C28 1_555 1_555
N28 C27 1_555 1_555
C28 N28 1_555 1_555
Ag2 N1 1_555 1_555
N1 N5 1_555 1_555
N15 N4 1_555 1_555
N17 C9 1_555 1_555
N4 C6 1_555 1_555
N5 C8 1_555 1_555
C5 N1 1_555 1_555
H7 C5 1_555 1_555
C6 H8 1_555 1_555
H9 C6 1_555 1_555
C7 C6 1_555 1_555
H10 C7 1_555 1_555
H11 C7 1_555 1_555
H12 C8 1_555 1_555
H13 C8 1_555 1_555
C9 N4 1_555 1_555
H14 C9 1_555 1_555
C10 N15 1_555 1_555
H15 C10 1_555 1_555
C12 C7 1_555 1_555
H17 C12 1_555 1_555
H18 C12 1_555 1_555
N10 C12 1_555 1_555
N11 N10 1_555 1_555
C13 N10 1_555 1_555
H19 C13 1_555 1_555
C14 N11 1_555 1_555
H20 C14 1_555 1_555
N12 Ag2 1_555 1_555
N17 C10 1_555 1_555
C13 N12 1_555 1_555
C14 N12 1_555 1_555
Ag1_3 N9 1_555 1_555
Ag2_2 N1_2 1_555 1_555
N1_2 N5_2 1_555 1_555
N5_2 C8_2 1_555 1_555
N6 C5_2 1_555 1_555
C1 H1 1_555 1_555
N7 C1 1_555 1_555
N8 N7 1_555 1_555
C2 N8 1_555 1_555
H2 C2 1_555 1_555
N9 C1 1_555 1_555
C3 N8 1_555 1_555
H3_2 C3 1_555 1_555
C4 C3 1_555 1_555
H5 C4 1_555 1_555
H6 C4 1_555 1_555
C5_2 N1_2 1_555 1_555
H7_2 C5_2 1_555 1_555
C8_2 C4 1_555 1_555
H12_2 C8_2 1_555 1_555
H13_2 C8_2 1_555 1_555
C11 N5_2 1_555 1_555
H16 C11 1_555 1_555
H17_2 C12_2 1_555 1_555
H18_2 C12_2 1_555 1_555
N10_2 C12_2 1_555 1_555
C13_2 N10_2 1_555 1_555
H19_2 C13_2 1_555 1_555
H20_2 C14_2 1_555 1_555
N12_2 Ag2_2 1_555 1_555
N6 C11 1_555 1_555
C2 N9 1_555 1_555
C13_2 N12_2 1_555 1_555
C14_2 N12_2 1_555 1_555
N2 N4_2 1_555 1_555
N3 C9_2 1_555 1_555
N4_2 C6_2 1_555 1_555
C6_2 H8_2 1_555 1_555
H9_2 C6_2 1_555 1_555
C7_2 C6_2 1_555 1_555
H10_2 C7_2 1_555 1_555
H11_2 C7_2 1_555 1_555
C9_2 N4_2 1_555 1_555
H14_2 C9_2 1_555 1_555
C10_2 N2 1_555 1_555
H15_2 C10_2 1_555 1_555
Ag8 N3 1_555 1_555
N3 C10_2 1_555 1_555
Ag5 N27 1_555 1_555
Ag7 N16 1_555 1_555
N14_2 Ag8 1_555 1_555
N16 C23_2 1_555 1_555
N19_2 N14_2 1_555 1_555
C20_2 N19_2 1_555 1_555
H28_2 C20_2 1_555 1_555
H29_2 C20_2 1_555 1_555
C21_2 C20_2 1_555 1_555
H30_2 C21_2 1_555 1_555
H31_2 C21_2 1_555 1_555
C23_2 N19_2 1_555 1_555
H34_2 C23_2 1_555 1_555
C24_2 N14_2 1_555 1_555
H35_2 C24_2 1_555 1_555
C26_2 C21_2 1_555 1_555
H37_2 C26_2 1_555 1_555
H38_2 C26_2 1_555 1_555
N25_2 C26_2 1_555 1_555
N26_2 N25_2 1_555 1_555
C27_2 N25_2 1_555 1_555
H39_2 C27_2 1_555 1_555
C28_2 N26_2 1_555 1_555
H40_2 C28_2 1_555 1_555
N27 C27_2 1_555 1_555
N16 C24_2 1_555 1_555
C28_2 N27 1_555 1_555
Ag5 N13_2 1_555 1_555
N13_2 N20_2 1_555 1_555
N20_2 C22_2 1_555 1_555
C19_2 N13_2 1_555 1_555
H27_2 C19_2 1_555 1_555
H32_2 C22_2 1_555 1_555
H33_2 C22_2 1_555 1_555
Ag1_5 N9_2 1_555 1_555
C1_2 H1_2 1_555 1_555
N7_2 C1_2 1_555 1_555
N8_2 N7_2 1_555 1_555
C2_2 N8_2 1_555 1_555
H2_2 C2_2 1_555 1_555
N9_2 C1_2 1_555 1_555
C3_2 N8_2 1_555 1_555
H4_2 C3_2 1_555 1_555
C4_2 C3_2 1_555 1_555
H5_2 C4_2 1_555 1_555
H6_2 C4_2 1_555 1_555
H16_2 C11_2 1_555 1_555
C15_2 H21_2 1_555 1_555
N22_2 C15_2 1_555 1_555
N23_2 N22_2 1_555 1_555
C16_2 N23_2 1_555 1_555
H22_2 C16_2 1_555 1_555
N24_2 Ag1_5 1_555 1_555
C17_2 N23_2 1_555 1_555
H24_2 C17_2 1_555 1_555
C18_2 C17_2 1_555 1_555
H25_2 C18_2 1_555 1_555
H26_2 C18_2 1_555 1_555
H36_2 C25_2 1_555 1_555
N6_2 C11_2 1_555 1_555
C2_2 N9_2 1_555 1_555
N21_2 C25_2 1_555 1_555
C15_2 N24_2 1_555 1_555
C16_2 N24_2 1_555 1_555

#END
