
###############################################################################
#
# This file contains modified crystal structure data generated from the
# MOF subset of the Cambridge Structural Database (CSD) v543 
# hosted by the Cambridge Crystallographic Data Centre (CCDC).
#
# This work is licensed under the Creative Commons
# Attribution-NonCommercial-ShareAlike 4.0 International License.
# To view a copy of this license, visit
# http://creativecommons.org/licenses/by-nc-sa/4.0/
# or send a letter to
# Creative Commons, PO Box 1866, Mountain View, CA 94042, USA.
#
# CIF created using the CSD Python API on 29 September 2022
# The structure has been converted into the P1 space group
# The structure has a 3D framework
# The original CSD entry VAYWID is in the monoclinic crystal system
# The framework has been calculated to contain at least 10.0% void space
# The void calculation uses a probe of radius 1.32A, grid spacing 0.4
# The framework is charged, counterions have been retained in the structure
#
###############################################################################

data_VAYWID
_chemical_formula_moiety         '(C56 H80 Ag9 N48 9+)n'
_symmetry_cell_setting           triclinic
_symmetry_space_group_name_H-M   'P 1'
_symmetry_Int_Tables_number      1
_space_group_name_Hall           'P 1'
loop_
_symmetry_equiv_pos_site_id
_symmetry_equiv_pos_as_xyz
1 x,y,z
_cell_length_a                   13.056(1)
_cell_length_b                   22.964(1)
_cell_length_c                   11.808(1)
_cell_angle_alpha                90
_cell_angle_beta                 91.941(5)
_cell_angle_gamma                90
_cell_volume                     3538.22
loop_
_atom_site_label
_atom_site_type_symbol
_atom_site_fract_x
_atom_site_fract_y
_atom_site_fract_z
Ag6 Ag 0.11678(9) 0.70108(6) 0.39013(10)
N20 N 0.2108(9) 0.7313(6) 0.5695(11)
N24 N 0.1947(9) 0.7405(6) 0.2480(10)
Ag1 Ag 0.5000 0.5000 0.0000
H5 H 0.3872 0.5597 0.2214
H6 H 0.6924 0.5009 0.4308
H7 H 0.6007 0.5238 0.5019
C6 C 0.6008(15) 0.5263(9) 0.2324(18)
H9 H 0.6643 0.5139 0.2085
Ag9 Ag 0.75966(10) 0.71140(6) 0.72693(11)
N13 N 0.5213(11) 0.5290(7) 0.1692(12)
N14 N 0.5837(12) 0.5429(8) 0.3338(14)
N15 N 0.4871(13) 0.5572(8) 0.3450(15)
N16 N 0.8582(9) 0.6245(5) 0.5522(10)
N17 N 0.9927(10) 0.6712(6) 0.4937(10)
N18 N 0.8502(9) 0.6792(5) 0.5948(10)
C15 C 0.7777(11) 0.5797(7) 0.5633(13)
H21 H 0.8082 0.5412 0.5629
H22 H 0.7435 0.5848 0.6342
C16 C 0.7003(12) 0.5860(9) 0.4634(15)
H23 H 0.7363 0.5974 0.3964
H24 H 0.6519 0.6166 0.4802
C17 C 0.4543(16) 0.5504(10) 0.244(2)
C18 C 0.6452(16) 0.5330(9) 0.4401(18)
C19 C 0.9424(12) 0.6199(8) 0.4926(12)
H28 H 0.9635 0.5863 0.4558
C21 C 0.9309(12) 0.7044(7) 0.5572(13)
H30 H 0.9457 0.7433 0.5730
N28 N 0.6565(8) 0.7378(5) 0.8553(9)
N7 N 0.2108(9) 0.7687(6) 0.0695(11)
N8 N 0.2637(8) 0.8053(5) 0.1426(11)
C10 C 0.3224(10) 0.8547(6) 0.1008(13)
C11 C 0.4295(12) 0.8366(7) 0.0651(15)
N11 N 0.5851(10) 0.7420(5) 0.0168(8)
C22 C 0.1724(11) 0.7319(7) 0.1376(14)
H31 H 0.1316 0.7010 0.1120
C23 C 0.2532(11) 0.7872(8) 0.2451(14)
H32 H 0.2832 0.8050 0.3088
H33 H 0.3288 0.8840 0.1598
H34 H 0.2856 0.8719 0.0365
H35 H 0.4668 0.8709 0.0419
H36 H 0.4666 0.8196 0.1296
Ag2 Ag 0.11678(9) 0.79892(6) 0.89013(10)
C12 C 0.4255(12) 0.7944(9) 0.9718(15)
N10 N 0.5258(7) 0.7705(5) 0.9417(10)
C13 C 0.6659(9) 0.7218(5) 0.9634(11)
N22 N 0.1947(9) 0.7595(6) 0.7480(10)
H37 H 0.3945 0.8131 0.9054
H38 H 0.3812 0.7624 0.9923
H39 H 0.7195 0.7002 0.9960
C28 C 0.5699(9) 0.7679(5) 0.8419(9)
H40 H 0.5446 0.7842 0.7745
Ag3 Ag 0.75966(10) 0.78860(6) 0.22693(11)
N4 N 0.8582(9) 0.8755(5) 0.0522(10)
N6 N 0.8502(9) 0.8208(5) 0.0948(10)
C1 C 0.7777(11) 0.9203(7) 0.0633(13)
H1 H 0.8082 0.9588 0.0629
H2 H 0.7435 0.9152 0.1342
C7 C 0.9309(12) 0.7956(7) 0.0572(13)
H10 H 0.9457 0.7567 0.0730
C8 C 0.1724(11) 0.7681(7) 0.6376(14)
H11 H 0.1316 0.7990 0.6120
C9 C 0.2532(11) 0.7128(8) 0.7451(14)
H12 H 0.2832 0.6950 0.8088
H13 H 0.3288 0.6160 0.6598
H14 H 0.2856 0.6281 0.5365
H15 H 0.4668 0.6291 0.5419
H16 H 0.4666 0.6804 0.6296
H17 H 0.3945 0.6869 0.4054
H18 H 0.3812 0.7376 0.4923
H19 H 0.7195 0.7998 0.4960
C14 C 0.5699(9) 0.7321(5) 0.3419(9)
H20 H 0.5446 0.7158 0.2745
N21 N 0.2637(8) 0.6947(5) 0.6426(11)
H27 H 0.6007 0.9762 0.0019
C24 C 0.3224(10) 0.6453(6) 0.6008(13)
C25 C 0.4295(12) 0.6634(7) 0.5651(15)
C26 C 0.4255(12) 0.7056(9) 0.4718(15)
N25 N 0.5258(7) 0.7295(5) 0.4417(10)
N26 N 0.5851(10) 0.7580(5) 0.5168(8)
C27 C 0.6659(9) 0.7782(5) 0.4634(11)
N27 N 0.6565(8) 0.7622(5) 0.3553(9)
Ag1_2 Ag 0.5000 0.5000 1.0000
Ag3_2 Ag 0.24034(10) 0.28860(6) 0.27307(11)
N1 N 0.4787(11) 0.4710(7) 0.8308(12)
N2 N 0.4163(12) 0.4571(8) 0.6662(14)
N3 N 0.5129(13) 0.4428(8) 0.6550(15)
N4_2 N 0.1418(9) 0.3755(5) 0.4478(10)
N5 N 0.0073(10) 0.3288(6) 0.5063(10)
N6_2 N 0.1498(9) 0.3208(5) 0.4052(10)
C1_2 C 0.2223(11) 0.4203(7) 0.4367(13)
H1_2 H 0.1918 0.4588 0.4371
H2_2 H 0.2565 0.4152 0.3658
C2 C 0.2997(12) 0.4140(9) 0.5366(15)
H3 H 0.2637 0.4026 0.6036
H4 H 0.3481 0.3834 0.5198
C3 C 0.5457(16) 0.4496(10) 0.756(2)
C4 C 0.3548(16) 0.4670(9) 0.5599(18)
C5 C 0.0576(12) 0.3801(8) 0.5074(12)
H8 H 0.0365 0.4137 0.5442
C7_2 C 0.0691(12) 0.2956(7) 0.4428(13)
H10_2 H 0.0543 0.2567 0.4270
H17_2 H 0.6055 0.1869 0.0946
H18_2 H 0.6188 0.2376 0.0077
H19_2 H 0.2805 0.2998 0.0040
C14_2 C 0.4301(9) 0.2321(5) 0.1581(9)
H20_2 H 0.4554 0.2158 0.2255
Ag4 Ag 0.88322(9) 0.20108(6) 0.10987(10)
H25 H 0.6128 0.4403 0.7786
H26 H 0.3076 0.4991 0.5692
H27_2 H 0.3993 0.4762 0.4981
C20 C 0.3992(15) 0.4737(9) 0.7676(18)
H29 H 0.3357 0.4861 0.7915
C26_2 C 0.5745(12) 0.2056(9) 0.0282(15)
N25_2 N 0.4742(7) 0.2295(5) 0.0583(10)
C27_2 C 0.3341(9) 0.2782(5) 0.0366(11)
N27_2 N 0.3435(8) 0.2622(5) 0.1447(9)
C8_2 C 0.8276(11) 0.2681(7) 0.8624(14)
H11_2 H 0.8684 0.2990 0.8880
C9_2 C 0.7468(11) 0.2128(8) 0.7549(14)
H12_2 H 0.7168 0.1950 0.6912
H13_2 H 0.6712 0.1160 0.8402
H14_2 H 0.7144 0.1281 0.9635
H15_2 H 0.5332 0.1291 0.9581
H16_2 H 0.5334 0.1804 0.8704
N9 N 0.8053(9) 0.2595(6) 0.7520(10)
Ag5 Ag 0.88322(9) 0.29892(6) 0.60987(10)
N19 N 0.7892(9) 0.2313(6) 0.9305(11)
N21_2 N 0.7363(8) 0.1947(5) 0.8574(11)
C24_2 C 0.6776(10) 0.1453(6) 0.8992(13)
C25_2 C 0.5705(12) 0.1634(7) 0.9349(15)
N26_2 N 0.4149(10) 0.2580(5) 0.9832(8)
N7_2 N 0.7892(9) 0.2687(6) 0.4305(11)
N8_2 N 0.7363(8) 0.3053(5) 0.3574(11)
C10_2 C 0.6776(10) 0.3547(6) 0.3992(13)
C11_2 C 0.5705(12) 0.3366(7) 0.4349(15)
C12_2 C 0.5745(12) 0.2944(9) 0.5282(15)
N10_2 N 0.4742(7) 0.2705(5) 0.5583(10)
N11_2 N 0.4149(10) 0.2420(5) 0.4832(8)
C13_2 C 0.3341(9) 0.2218(5) 0.5366(11)
N12 N 0.3435(8) 0.2378(5) 0.6447(9)
Ag8 Ag 0.24034(10) 0.21140(6) 0.77307(11)
C22_2 C 0.8276(11) 0.2319(7) 0.3624(14)
H31_2 H 0.8684 0.2010 0.3880
C23_2 C 0.7468(11) 0.2872(8) 0.2549(14)
H32_2 H 0.7168 0.3050 0.1912
H33_2 H 0.6712 0.3840 0.3402
H34_2 H 0.7144 0.3719 0.4635
H35_2 H 0.5332 0.3709 0.4581
H36_2 H 0.5334 0.3196 0.3704
N23 N 0.8053(9) 0.2405(6) 0.2520(10)
H37_2 H 0.6055 0.3131 0.5946
H38_2 H 0.6188 0.2624 0.5077
H39_2 H 0.2805 0.2002 0.5040
C28_2 C 0.4301(9) 0.2679(5) 0.6581(9)
H40_2 H 0.4554 0.2842 0.7255
H7_2 H 0.3993 0.0238 0.9981
N16_2 N 0.1418(9) 0.1245(5) 0.9478(10)
N18_2 N 0.1498(9) 0.1792(5) 0.9052(10)
C15_2 C 0.2223(11) 0.0797(7) 0.9367(13)
H21_2 H 0.1918 0.0412 0.9371
H22_2 H 0.2565 0.0848 0.8658
C21_2 C 0.0691(12) 0.2044(7) 0.9428(13)
H30_2 H 0.0543 0.2433 0.9270
Ag1_3 Ag 0.5000 -0.0000 0.5000
H5_2 H 0.6128 0.0597 0.2786
H6_2 H 0.3076 0.0009 0.0692
C6_2 C 0.3992(15) 0.0263(9) 0.2676(18)
H9_2 H 0.3357 0.0139 0.2915
N13_2 N 0.4787(11) 0.0290(7) 0.3308(12)
N14_2 N 0.4163(12) 0.0429(8) 0.1662(14)
N15_2 N 0.5129(13) 0.0572(8) 0.1550(15)
N17_2 N 0.0073(10) 0.1712(6) 0.0063(10)
C16_2 C 0.2997(12) 0.0860(9) 0.0366(15)
H23_2 H 0.2637 0.0974 0.1036
H24_2 H 0.3481 0.1166 0.0198
C17_2 C 0.5457(16) 0.0504(10) 0.256(2)
C18_2 C 0.3548(16) 0.0330(9) 0.0599(18)
C19_2 C 0.0576(12) 0.1199(8) 0.0074(12)
H28_2 H 0.0365 0.0863 0.0442
Ag1_4 Ag 0.5000 1.0000 0.5000
N1_2 N 0.5213(11) 0.9710(7) 0.6692(12)
N2_2 N 0.5837(12) 0.9571(8) 0.8338(14)
N3_2 N 0.4871(13) 0.9428(8) 0.8450(15)
N5_2 N 0.9927(10) 0.8288(6) 0.9937(10)
C2_2 C 0.7003(12) 0.9140(9) 0.9634(15)
H3_2 H 0.7363 0.9026 0.8964
H4_2 H 0.6519 0.8834 0.9802
C3_2 C 0.4543(16) 0.9496(10) 0.744(2)
C4_2 C 0.6452(16) 0.9670(9) 0.9401(18)
C5_2 C 0.9424(12) 0.8801(8) 0.9926(12)
H8_2 H 0.9635 0.9137 0.9558
H25_2 H 0.3872 0.9403 0.7214
H26_2 H 0.6924 0.9991 0.9308
C20_2 C 0.6008(15) 0.9737(9) 0.7324(18)
H29_2 H 0.6643 0.9861 0.7085
loop_
_geom_bond_atom_site_label_1
_geom_bond_atom_site_label_2
_geom_bond_site_symmetry_1
_geom_bond_site_symmetry_2
N20 Ag6 1_555 1_555
N24 Ag6 1_555 1_555
H5 C17 1_555 1_555
H6 C18 1_555 1_555
H7 C18 1_555 1_555
C6 H9 1_555 1_555
Ag9 N18 1_555 1_555
N13 Ag1 1_555 1_555
N14 C6 1_555 1_555
N15 N14 1_555 1_555
N16 N18 1_555 1_555
N17 C19 1_555 1_555
N18 C21 1_555 1_555
C15 N16 1_555 1_555
H21 C15 1_555 1_555
H22 C15 1_555 1_555
C16 C15 1_555 1_555
H23 C16 1_555 1_555
H24 C16 1_555 1_555
C17 N13 1_555 1_555
C18 N14 1_555 1_555
C19 N16 1_555 1_555
H28 C19 1_555 1_555
C21 N17 1_555 1_555
H30 C21 1_555 1_555
N28 Ag9 1_555 1_555
C6 N13 1_555 1_555
N15 C17 1_555 1_555
C16 C18 1_555 1_555
N8 N7 1_555 1_555
C10 N8 1_555 1_555
C11 C10 1_555 1_555
C22 N7 1_555 1_555
H31 C22 1_555 1_555
C23 N8 1_555 1_555
H32 C23 1_555 1_555
H33 C10 1_555 1_555
H34 C10 1_555 1_555
H35 C11 1_555 1_555
H36 C11 1_555 1_555
N24 C22 1_555 1_555
C23 N24 1_555 1_555
N10 C12 1_555 1_555
N28 C13 1_555 1_555
N22 Ag2 1_555 1_555
H37 C12 1_555 1_555
H38 C12 1_555 1_555
H39 C13 1_555 1_555
C28 N10 1_555 1_555
H40 C28 1_555 1_555
N28 C28 1_555 1_555
Ag3 N6 1_555 1_555
N4 N6 1_555 1_555
N6 C7 1_555 1_555
C1 N4 1_555 1_555
H1 C1 1_555 1_555
H2 C1 1_555 1_555
H10 C7 1_555 1_555
C8 H11 1_555 1_555
C9 H12 1_555 1_555
H13 C24 1_555 1_555
H14 C24 1_555 1_555
H15 C25 1_555 1_555
H16 C25 1_555 1_555
N22 C8 1_555 1_555
H17 C26 1_555 1_555
H18 C26 1_555 1_555
H19 C27 1_555 1_555
C14 H20 1_555 1_555
N20 C8 1_555 1_555
N21 C9 1_555 1_555
C24 N21 1_555 1_555
C25 C24 1_555 1_555
C26 C25 1_555 1_555
N25 C14 1_555 1_555
N26 N25 1_555 1_555
C27 N26 1_555 1_555
N27 Ag3 1_555 1_555
C9 N22 1_555 1_555
C14 N27 1_555 1_555
N20 N21 1_555 1_555
C26 N25 1_555 1_555
C27 N27 1_555 1_555
Ag1_2 N1 1_555 1_555
Ag3_2 N6_2 1_555 1_555
N1 C3 1_555 1_555
N2 N3 1_555 1_555
N3 C3 1_555 1_555
N4_2 N6_2 1_555 1_555
N5 C5 1_555 1_555
N6_2 C7_2 1_555 1_555
C1_2 N4_2 1_555 1_555
H1_2 C1_2 1_555 1_555
H2_2 C1_2 1_555 1_555
C2 C1_2 1_555 1_555
H3 C2 1_555 1_555
H4 C2 1_555 1_555
C3 H25 1_555 1_555
C4 N2 1_555 1_555
C5 N4_2 1_555 1_555
H8 C5 1_555 1_555
C7_2 N5 1_555 1_555
H10_2 C7_2 1_555 1_555
H17_2 C26_2 1_555 1_555
H18_2 C26_2 1_555 1_555
H19_2 C27_2 1_555 1_555
C14_2 H20_2 1_555 1_555
H26 C4 1_555 1_555
H27_2 C4 1_555 1_555
C20 N1 1_555 1_555
H29 C20 1_555 1_555
N25_2 C14_2 1_555 1_555
N27_2 Ag3_2 1_555 1_555
N2 C20 1_555 1_555
C2 C4 1_555 1_555
C14_2 N27_2 1_555 1_555
C26_2 N25_2 1_555 1_555
C27_2 N27_2 1_555 1_555
C8_2 H11_2 1_555 1_555
C9_2 H12_2 1_555 1_555
H13_2 C24_2 1_555 1_555
H14_2 C24_2 1_555 1_555
H15_2 C25_2 1_555 1_555
H16_2 C25_2 1_555 1_555
N9 C8_2 1_555 1_555
Ag5 N9 1_555 1_555
N19 C8_2 1_555 1_555
N21_2 C9_2 1_555 1_555
C24_2 N21_2 1_555 1_555
C25_2 C24_2 1_555 1_555
C9_2 N9 1_555 1_555
N19 N21_2 1_555 1_555
N7_2 Ag5 1_555 1_555
N8_2 N7_2 1_555 1_555
C10_2 N8_2 1_555 1_555
C11_2 C10_2 1_555 1_555
C12_2 C11_2 1_555 1_555
N10_2 C12_2 1_555 1_555
N11_2 N10_2 1_555 1_555
C13_2 N11_2 1_555 1_555
N12 C13_2 1_555 1_555
Ag4 N23 1_555 1_555
Ag8 N12 1_555 1_555
C22_2 N7_2 1_555 1_555
H31_2 C22_2 1_555 1_555
C23_2 N8_2 1_555 1_555
H32_2 C23_2 1_555 1_555
H33_2 C10_2 1_555 1_555
H34_2 C10_2 1_555 1_555
H35_2 C11_2 1_555 1_555
H36_2 C11_2 1_555 1_555
N23 C22_2 1_555 1_555
H37_2 C12_2 1_555 1_555
H38_2 C12_2 1_555 1_555
H39_2 C13_2 1_555 1_555
C28_2 N10_2 1_555 1_555
H40_2 C28_2 1_555 1_555
N12 C28_2 1_555 1_555
C23_2 N23 1_555 1_555
Ag8 N18_2 1_555 1_555
N16_2 N18_2 1_555 1_555
N18_2 C21_2 1_555 1_555
C15_2 N16_2 1_555 1_555
H21_2 C15_2 1_555 1_555
H22_2 C15_2 1_555 1_555
H30_2 C21_2 1_555 1_555
H5_2 C17_2 1_555 1_555
H6_2 C18_2 1_555 1_555
C6_2 H9_2 1_555 1_555
N13_2 Ag1_3 1_555 1_555
N14_2 C6_2 1_555 1_555
N15_2 N14_2 1_555 1_555
N17_2 C19_2 1_555 1_555
H23_2 C16_2 1_555 1_555
H24_2 C16_2 1_555 1_555
C17_2 N13_2 1_555 1_555
C18_2 N14_2 1_555 1_555
H28_2 C19_2 1_555 1_555
C6_2 N13_2 1_555 1_555
N15_2 C17_2 1_555 1_555
C16_2 C18_2 1_555 1_555
Ag1_4 N1_2 1_555 1_555
N1_2 C3_2 1_555 1_555
N2_2 N3_2 1_555 1_555
N3_2 C3_2 1_555 1_555
N5_2 C5_2 1_555 1_555
H3_2 C2_2 1_555 1_555
H4_2 C2_2 1_555 1_555
C3_2 H25_2 1_555 1_555
C4_2 N2_2 1_555 1_555
H8_2 C5_2 1_555 1_555
H26_2 C4_2 1_555 1_555
C20_2 N1_2 1_555 1_555
H29_2 C20_2 1_555 1_555
N2_2 C20_2 1_555 1_555
C2_2 C4_2 1_555 1_555

#END
