
###############################################################################
#
# This file contains modified crystal structure data generated from the
# MOF subset of the Cambridge Structural Database (CSD) v543 
# hosted by the Cambridge Crystallographic Data Centre (CCDC).
#
# This work is licensed under the Creative Commons
# Attribution-NonCommercial-ShareAlike 4.0 International License.
# To view a copy of this license, visit
# http://creativecommons.org/licenses/by-nc-sa/4.0/
# or send a letter to
# Creative Commons, PO Box 1866, Mountain View, CA 94042, USA.
#
# CIF created using the CSD Python API on 29 September 2022
# The structure has been converted into the P1 space group
# The structure has a 3D framework
# The original CSD entry VAZHEN is in the cubic crystal system
# The framework has been calculated to contain at least 10.0% void space
# The void calculation uses a probe of radius 1.32A, grid spacing 0.4
# H atom positions have been added when not included in the experimental data
# Generated hydrogen atom positions removed from atoms on special positions
#
###############################################################################

data_VAZHEN
_chemical_formula_moiety         '(C960 H672 Fe83 N144 O337)n'
_symmetry_cell_setting           triclinic
_symmetry_space_group_name_H-M   'P 1'
_symmetry_Int_Tables_number      1
_space_group_name_Hall           'P 1'
loop_
_symmetry_equiv_pos_site_id
_symmetry_equiv_pos_as_xyz
1 x,y,z
_cell_length_a                   37.7080(7)
_cell_length_b                   37.7080(7)
_cell_length_c                   37.7080(7)
_cell_angle_alpha                90
_cell_angle_beta                 90
_cell_angle_gamma                90
_cell_volume                     53616.8
loop_
_atom_site_label
_atom_site_type_symbol
_atom_site_fract_x
_atom_site_fract_y
_atom_site_fract_z
Fe1 Fe 0.7500 0.29283(5) 0.0000
Fe2 Fe 0.76296(3) 0.37000(3) 0.04103(3)
O1 O 0.7500 0.34583(19) 0.0000
O2 O 0.7500 0.2384(2) 0.0000
O3 O 0.71943(16) 0.29162(16) 0.04590(17)
O4 O 0.73783(15) 0.33921(17) 0.07564(15)
O5 O 0.54117(16) 0.23354(16) 0.34136(15)
O6 O 0.52936(17) 0.29118(17) 0.34685(18)
O7 O 0.79668(16) 0.28813(16) 0.03047(18)
O8 O 0.80901(14) 0.34388(17) 0.04941(15)
N1 N 0.6389(3) 0.2729(3) 0.1932(3)
N2 N 0.6314(4) 0.2979(3) 0.2136(3)
N3 N 0.91068(19) 0.27788(17) 0.09981(19)
C1 C 0.7208(2) 0.3096(3) 0.0734(3)
C2 C 0.6985(3) 0.3003(3) 0.1044(3)
C3 C 0.6986(4) 0.3228(4) 0.1319(3)
H1 H 0.7124 0.3432 0.1314
C4 C 0.6773(5) 0.3146(4) 0.1618(4)
H2 H 0.6766 0.3302 0.1809
C5 C 0.6585(4) 0.2856(4) 0.1629(3)
C6 C 0.6605(4) 0.2603(4) 0.1329(4)
H3 H 0.6485 0.2387 0.1333
C7 C 0.6811(4) 0.2704(4) 0.1040(3)
H4 H 0.6825 0.2557 0.0843
C8 C 0.6098(5) 0.2869(4) 0.2428(4)
C9 C 0.5974(5) 0.3146(4) 0.2639(5)
H5 H 0.6038 0.3379 0.2587
C10 C 0.5755(4) 0.3077(3) 0.2923(3)
H6 H 0.5654 0.3266 0.3045
C11 C 0.5684(3) 0.2743(3) 0.3031(3)
C12 C 0.5839(4) 0.2472(4) 0.2844(4)
H7 H 0.5800 0.2241 0.2922
C13 C 0.6050(4) 0.2520(4) 0.2542(4)
H8 H 0.6154 0.2329 0.2425
C14 C 0.5446(2) 0.2662(3) 0.3324(2)
C15 C 0.8157(3) 0.3102(3) 0.0464(2)
C16 C 0.8494(2) 0.2992(3) 0.0643(2)
C17 C 0.8550(2) 0.2637(2) 0.0716(2)
H9 H 0.8390 0.2464 0.0644
C18 C 0.8860(2) 0.2548(3) 0.0905(3)
H10 H 0.8893 0.2312 0.0968
C19 C 0.9050(2) 0.3128(3) 0.0908(3)
H11 H 0.9222 0.3295 0.0964
C20 C 0.8740(2) 0.3241(2) 0.0735(2)
H12 H 0.8704 0.3479 0.0685
Fe3 Fe 0.48704(3) 0.70897(3) 0.12000(3)
O9 O 0.53057(16) 0.70410(17) 0.04162(16)
O10 O 0.51217(15) 0.67436(15) 0.08921(17)
O12 O 0.72064(17) 0.40315(18) 0.04118(17)
O13 O 0.45332(16) 0.71953(18) 0.03813(16)
O14 O 0.44099(14) 0.70059(15) 0.09388(17)
N4 N 0.6111(3) 0.5568(3) 0.0229(3)
N5 N 0.6186(4) 0.5364(3) 0.0479(3)
N6 N 0.33932(19) 0.65019(19) 0.02788(17)
C21 C 0.5292(2) 0.6766(3) 0.0596(3)
C22 C 0.5515(3) 0.6456(3) 0.0503(3)
C23 C 0.5514(4) 0.6181(3) 0.0728(4)
H13 H 0.5376 0.6186 0.0932
C24 C 0.5727(5) 0.5882(4) 0.0646(4)
H14 H 0.5734 0.5691 0.0802
C25 C 0.5915(4) 0.5871(3) 0.0356(4)
C26 C 0.5895(4) 0.6171(4) 0.0103(4)
C27 C 0.5689(4) 0.6460(3) 0.0204(4)
H16 H 0.5675 0.6657 0.0057
C28 C 0.6402(5) 0.5072(4) 0.0369(4)
C29 C 0.6526(5) 0.4861(5) 0.0646(4)
H17 H 0.6462 0.4913 0.0879
C30 C 0.6745(4) 0.4577(3) 0.0577(3)
H18 H 0.6846 0.4455 0.0766
C31 C 0.6816(3) 0.4469(3) 0.0243(3)
C33 C 0.6450(4) 0.4958(4) 0.0020(4)
C34 C 0.7054(2) 0.4176(2) 0.0162(3)
C35 C 0.4343(3) 0.7036(2) 0.0602(3)
C36 C 0.4006(2) 0.6857(2) 0.0492(3)
C37 C 0.3950(2) 0.6784(2) 0.0137(2)
C38 C 0.3640(2) 0.6595(3) 0.0048(3)
C39 C 0.3450(2) 0.6592(3) 0.0628(3)
H23 H 0.3278 0.6536 0.0795
C40 C 0.3760(2) 0.6765(2) 0.0741(2)
H24 H 0.3796 0.6815 0.0979
Fe4 Fe 0.5000 0.7500 0.04283(5)
Fe5 Fe 0.95897(3) 0.26296(3) 0.13000(3)
Fe7 Fe 0.51296(3) 0.20897(3) 0.38000(3)
Fe8 Fe 0.48704(3) 0.29103(3) 0.38000(3)
Fe9 Fe 0.29103(3) 0.62000(3) 0.01296(3)
O15 O 0.5000 0.7500 0.09583(19)
O17 O 0.45883(16) 0.73354(16) 0.15864(15)
O18 O 0.79117(16) 0.40864(15) 0.01646(16)
O19 O 0.52936(17) 0.70882(17) 0.15315(18)
N7 N 0.47212(17) 0.66068(19) 0.15019(19)
N8 N 0.77788(17) 0.40019(19) 0.08932(19)
Fe1_2 Fe 0.7500 0.29283(5) 1.0000
O1_2 O 0.7500 0.34583(19) 1.0000
O2_2 O 0.7500 0.2384(2) 1.0000
O11 O 0.70883(16) 0.40864(15) 0.98354(16)
H15 H 0.6015 0.6167 0.9887
C32 C 0.6661(4) 0.4656(4) 0.9972(4)
H19 H 0.6700 0.4578 0.9741
H20 H 0.6346 0.5075 0.9829
H21 H 0.4110 0.6856 0.9964
H22 H 0.3607 0.6532 0.9812
Fe6 Fe 0.73704(3) 0.37000(3) 0.95897(3)
O16 O 0.78057(16) 0.29162(16) 0.95410(17)
O20 O 0.70332(16) 0.28813(16) 0.96953(18)
H25 H 0.725223 0.229622 0.998413
H26 H 0.763763 0.229622 0.979336
Fe4_2 Fe 0.0000 0.2500 0.20717(5)
O15_2 O -0.0000 0.2500 0.15417(19)
Fe1_3 Fe 0.54283(5) -0.0000 0.2500
O1_3 O 0.59583(19) -0.0000 0.2500
O2_3 O 0.4884(2) -0.0000 0.2500
O3_2 O 0.54162(16) 0.03057(16) 0.20410(17)
O4_2 O 0.58921(17) 0.01217(15) 0.17436(15)
N1_2 N 0.5229(3) 0.1111(3) 0.0568(3)
N2_2 N 0.5479(3) 0.1186(4) 0.0364(3)
C1_2 C 0.5596(3) 0.0292(2) 0.1766(3)
C2_2 C 0.5503(3) 0.0515(3) 0.1456(3)
C3_2 C 0.5728(4) 0.0514(4) 0.1181(3)
H1_2 H 0.5932 0.0376 0.1186
C4_2 C 0.5646(4) 0.0727(5) 0.0882(4)
H2_2 H 0.5802 0.0734 0.0691
C5_2 C 0.5356(4) 0.0915(4) 0.0871(3)
C6_2 C 0.5103(4) 0.0895(4) 0.1171(4)
H3_2 H 0.4887 0.1015 0.1167
C7_2 C 0.5204(4) 0.0689(4) 0.1460(3)
H4_2 H 0.5057 0.0675 0.1657
C8_2 C 0.5369(4) 0.1402(5) 0.0072(4)
H8_2 H 0.4829 0.1346 0.0075
O9_2 O 0.95410(17) 0.21943(16) 0.20838(16)
O10_2 O 0.92436(15) 0.23783(15) 0.16079(17)
O11_2 O 0.65864(15) 0.04117(16) 0.26646(16)
O12_2 O 0.65315(18) 0.02936(17) 0.20882(17)
O13_2 O 0.96953(18) 0.29668(16) 0.21187(16)
O14_2 O 0.95059(15) 0.30901(14) 0.15612(17)
N4_2 N 0.8068(3) 0.1389(3) 0.2271(3)
N5_2 N 0.7864(3) 0.1314(4) 0.2021(3)
N6_2 N 0.90019(19) 0.41068(19) 0.22212(17)
C21_2 C 0.9266(3) 0.2208(2) 0.1904(3)
C22_2 C 0.8956(3) 0.1985(3) 0.1997(3)
C23_2 C 0.8681(3) 0.1986(4) 0.1772(4)
H13_2 H 0.8686 0.2124 0.1568
C24_2 C 0.8382(4) 0.1773(5) 0.1854(4)
H14_2 H 0.8191 0.1766 0.1698
C25_2 C 0.8371(3) 0.1585(4) 0.2144(4)
C26_2 C 0.8671(4) 0.1605(4) 0.2397(4)
H15_2 H 0.8667 0.1485 0.2613
C27_2 C 0.8960(3) 0.1811(4) 0.2296(4)
H16_2 H 0.9157 0.1825 0.2443
C28_2 C 0.7572(4) 0.1098(5) 0.2131(4)
C29_2 C 0.7361(5) 0.0974(5) 0.1854(4)
H17_2 H 0.7413 0.1038 0.1621
C30_2 C 0.7077(3) 0.0755(4) 0.1923(3)
H18_2 H 0.6955 0.0654 0.1734
C31_2 C 0.6969(3) 0.0684(3) 0.2257(3)
C32_2 C 0.7156(4) 0.0839(4) 0.2528(4)
H19_2 H 0.7078 0.0800 0.2759
C33_2 C 0.7458(4) 0.1050(4) 0.2480(4)
H20_2 H 0.7575 0.1154 0.2671
C34_2 C 0.6676(2) 0.0446(2) 0.2338(3)
C35_2 C 0.9536(2) 0.3157(3) 0.1898(3)
C36_2 C 0.9357(2) 0.3494(2) 0.2008(3)
C37_2 C 0.9284(2) 0.3550(2) 0.2363(2)
H21_2 H 0.9356 0.3390 0.2536
C38_2 C 0.9095(3) 0.3860(2) 0.2452(3)
H22_2 H 0.9032 0.3893 0.2688
C39_2 C 0.9092(3) 0.4050(2) 0.1872(3)
H23_2 H 0.9036 0.4222 0.1705
C40_2 C 0.9265(2) 0.3740(2) 0.1759(2)
H24_2 H 0.9315 0.3704 0.1521
Fe4_3 Fe 1.0000 0.2500 0.20717(5)
Fe6_2 Fe 0.62000(3) 0.01296(3) 0.29103(3)
Fe9_2 Fe 0.87000(3) 0.45897(3) 0.23704(3)
O15_3 O 1.0000 0.2500 0.15417(19)
O17_2 O 0.98354(16) 0.29117(16) 0.09136(15)
O19_2 O 0.95882(17) 0.22064(17) 0.09685(18)
O20_2 O 0.53813(16) 0.04668(16) 0.28047(18)
H25_2 H 0.479622 0.0247771 0.251587
O5_2 O 0.48354(16) 0.20883(16) 0.90864(15)
O6_2 O 0.54118(17) 0.22064(17) 0.90315(18)
C9_2 C 0.5646(4) 0.1526(5) 0.9861(5)
H5_2 H 0.5879 0.1462 0.9913
C10_2 C 0.5577(3) 0.1745(4) 0.9577(3)
H6_2 H 0.5766 0.1846 0.9455
C11_2 C 0.5243(3) 0.1816(3) 0.9469(3)
C12_2 C 0.4972(4) 0.1661(4) 0.9656(4)
H7_2 H 0.4741 0.1700 0.9578
C13_2 C 0.5020(4) 0.1450(4) 0.9958(4)
C14_2 C 0.5162(3) 0.2054(2) 0.9176(2)
Fe7_2 Fe 0.45897(3) 0.23704(3) 0.87000(3)
Fe8_2 Fe 0.54103(3) 0.26296(3) 0.87000(3)
Fe1_4 Fe 0.54283(5) 1.0000 0.2500
Fe2_2 Fe 0.62000(3) 0.98704(3) 0.20897(3)
O1_4 O 0.59583(19) 1.0000 0.2500
O2_4 O 0.4884(2) 1.0000 0.2500
O7_2 O 0.53813(16) 0.95332(16) 0.21953(18)
O8_2 O 0.59388(17) 0.94099(14) 0.20059(15)
N3_2 N 0.52788(17) 0.83932(19) 0.15019(19)
C15_2 C 0.5602(3) 0.9343(3) 0.2036(2)
C16_2 C 0.5492(3) 0.9006(2) 0.1857(2)
C17_2 C 0.5137(2) 0.8950(2) 0.1784(2)
H9_2 H 0.4964 0.9110 0.1856
C18_2 C 0.5048(3) 0.8640(2) 0.1595(3)
H10_2 H 0.4812 0.8607 0.1532
C19_2 C 0.5628(3) 0.8450(2) 0.1592(3)
H11_2 H 0.5795 0.8278 0.1536
C20_2 C 0.5741(2) 0.8760(2) 0.1765(2)
H12_2 H 0.5979 0.8796 0.1815
Fe5_2 Fe 0.51296(3) 0.79103(3) 0.12000(3)
O16_2 O 0.54162(16) 0.96943(16) 0.29590(17)
O18_2 O 0.65864(15) 0.95883(16) 0.23354(16)
N8_2 N 0.65019(19) 0.97212(17) 0.16068(19)
H26_2 H 0.479622 0.986237 0.270664
Fe1_5 Fe 0.2500 0.20717(5) 0.0000
Fe2_3 Fe 0.23704(3) 0.13000(3) 0.04103(3)
O1_5 O 0.2500 0.15417(19) 0.0000
O2_5 O 0.2500 0.2616(2) 0.0000
O3_3 O 0.28057(16) 0.20838(16) 0.04590(17)
O4_3 O 0.26217(15) 0.16079(17) 0.07564(15)
O5_3 O 0.45883(16) 0.26646(16) 0.34136(15)
O6_3 O 0.47064(17) 0.20882(17) 0.34685(18)
O7_3 O 0.20332(16) 0.21187(16) 0.03047(18)
O8_3 O 0.19099(14) 0.15612(17) 0.04941(15)
N1_3 N 0.3611(3) 0.2271(3) 0.1932(3)
N2_3 N 0.3686(4) 0.2021(3) 0.2136(3)
N3_3 N 0.08932(19) 0.22212(17) 0.09981(19)
C1_3 C 0.2792(2) 0.1904(3) 0.0734(3)
C2_3 C 0.3015(3) 0.1997(3) 0.1044(3)
C3_3 C 0.3014(4) 0.1772(4) 0.1319(3)
H1_3 H 0.2876 0.1568 0.1314
C4_3 C 0.3227(5) 0.1854(4) 0.1618(4)
H2_3 H 0.3234 0.1698 0.1809
C5_3 C 0.3415(4) 0.2144(4) 0.1629(3)
C6_3 C 0.3395(4) 0.2397(4) 0.1329(4)
H3_3 H 0.3515 0.2613 0.1333
C7_3 C 0.3189(4) 0.2296(4) 0.1040(3)
H4_3 H 0.3175 0.2443 0.0843
C8_3 C 0.3902(5) 0.2131(4) 0.2428(4)
C9_3 C 0.4026(5) 0.1854(4) 0.2639(5)
H5_3 H 0.3962 0.1621 0.2587
C10_3 C 0.4245(4) 0.1923(3) 0.2923(3)
H6_3 H 0.4346 0.1734 0.3045
C11_3 C 0.4316(3) 0.2257(3) 0.3031(3)
C12_3 C 0.4161(4) 0.2528(4) 0.2844(4)
H7_3 H 0.4200 0.2759 0.2922
C13_3 C 0.3950(4) 0.2480(4) 0.2542(4)
H8_3 H 0.3846 0.2671 0.2425
C14_3 C 0.4554(2) 0.2338(3) 0.3324(2)
C15_3 C 0.1843(3) 0.1898(3) 0.0464(2)
C16_3 C 0.1506(2) 0.2008(3) 0.0643(2)
C17_3 C 0.1450(2) 0.2363(2) 0.0716(2)
H9_3 H 0.1610 0.2536 0.0644
C18_3 C 0.1140(2) 0.2452(3) 0.0905(3)
H10_3 H 0.1107 0.2688 0.0968
C19_3 C 0.0950(2) 0.1872(3) 0.0908(3)
H11_3 H 0.0778 0.1705 0.0964
C20_3 C 0.1260(2) 0.1759(2) 0.0735(2)
H12_3 H 0.1296 0.1521 0.0685
O12_3 O 0.27936(17) 0.09685(18) 0.04118(17)
C29_3 C 0.3474(5) 0.0139(5) 0.0646(4)
H17_3 H 0.3538 0.0087 0.0879
C30_3 C 0.3255(4) 0.0423(3) 0.0577(3)
H18_3 H 0.3154 0.0545 0.0766
C31_3 C 0.3184(3) 0.0531(3) 0.0243(3)
C33_3 C 0.3550(4) 0.0042(4) 0.0020(4)
C34_3 C 0.2946(2) 0.0824(2) 0.0162(3)
Fe5_3 Fe 0.04103(3) 0.23704(3) 0.13000(3)
O18_3 O 0.20883(16) 0.09136(15) 0.01646(16)
N8_3 N 0.22212(17) 0.09981(19) 0.08932(19)
Fe1_6 Fe 0.2500 0.20717(5) 1.0000
O1_6 O 0.2500 0.15417(19) 1.0000
O2_6 O 0.2500 0.2616(2) 1.0000
O11_3 O 0.29117(16) 0.09136(15) 0.98354(16)
C32_3 C 0.3339(4) 0.0344(4) 0.9972(4)
H19_3 H 0.3300 0.0422 0.9741
Fe6_3 Fe 0.26296(3) 0.13000(3) 0.95897(3)
O16_3 O 0.21943(16) 0.20838(16) 0.95410(17)
O20_3 O 0.29668(16) 0.21187(16) 0.96953(18)
H25_3 H 0.274777 0.270378 0.998413
H26_3 H 0.236237 0.270378 0.979336
O9_3 O 0.46943(16) 0.79590(17) 0.04162(16)
O10_3 O 0.48783(15) 0.82564(15) 0.08921(17)
O13_3 O 0.54668(16) 0.78047(18) 0.03813(16)
O14_3 O 0.55901(14) 0.79941(15) 0.09388(17)
N4_3 N 0.3889(3) 0.9432(3) 0.0229(3)
N5_3 N 0.3814(4) 0.9636(3) 0.0479(3)
N6_3 N 0.66068(19) 0.84981(19) 0.02788(17)
C21_3 C 0.4708(2) 0.8234(3) 0.0596(3)
C22_3 C 0.4485(3) 0.8544(3) 0.0503(3)
C23_3 C 0.4486(4) 0.8819(3) 0.0728(4)
H13_3 H 0.4624 0.8814 0.0932
C24_3 C 0.4273(5) 0.9118(4) 0.0646(4)
H14_3 H 0.4266 0.9309 0.0802
C25_3 C 0.4085(4) 0.9129(3) 0.0356(4)
C26_3 C 0.4105(4) 0.8829(4) 0.0103(4)
C27_3 C 0.4311(4) 0.8540(3) 0.0204(4)
H16_3 H 0.4325 0.8343 0.0057
C28_3 C 0.3598(5) 0.9928(4) 0.0369(4)
C35_3 C 0.5657(3) 0.7964(2) 0.0602(3)
C36_3 C 0.5994(2) 0.8143(2) 0.0492(3)
C37_3 C 0.6050(2) 0.8216(2) 0.0137(2)
C38_3 C 0.6360(2) 0.8405(3) 0.0048(3)
C39_3 C 0.6550(2) 0.8408(3) 0.0628(3)
H23_3 H 0.6722 0.8464 0.0795
C40_3 C 0.6240(2) 0.8235(2) 0.0741(2)
H24_3 H 0.6204 0.8185 0.0979
Fe9_3 Fe 0.70897(3) 0.88000(3) 0.01296(3)
O17_3 O 0.54117(16) 0.76646(16) 0.15864(15)
O19_3 O 0.47064(17) 0.79118(17) 0.15315(18)
H15_3 H 0.3985 0.8833 0.9887
H20_3 H 0.3654 0.9925 0.9829
H21_3 H 0.5890 0.8144 0.9964
H22_3 H 0.6393 0.8468 0.9812
Fe1_7 Fe 0.45717(5) 0.5000 0.2500
Fe2_4 Fe 0.38000(3) 0.51296(3) 0.20897(3)
O1_7 O 0.40417(19) 0.5000 0.2500
O2_7 O 0.5116(2) 0.5000 0.2500
O3_4 O 0.45838(16) 0.46943(16) 0.20410(17)
O4_4 O 0.41079(17) 0.48783(15) 0.17436(15)
O7_4 O 0.46187(16) 0.54668(16) 0.21953(18)
O8_4 O 0.40612(17) 0.55901(14) 0.20059(15)
N1_4 N 0.4771(3) 0.3889(3) 0.0568(3)
N2_4 N 0.4521(3) 0.3814(4) 0.0364(3)
C1_4 C 0.4404(3) 0.4708(2) 0.1766(3)
C2_4 C 0.4497(3) 0.4485(3) 0.1456(3)
C3_4 C 0.4272(4) 0.4486(4) 0.1181(3)
H1_4 H 0.4068 0.4624 0.1186
C4_4 C 0.4354(4) 0.4273(5) 0.0882(4)
H2_4 H 0.4198 0.4266 0.0691
C5_4 C 0.4644(4) 0.4085(4) 0.0871(3)
C6_4 C 0.4897(4) 0.4105(4) 0.1171(4)
H3_4 H 0.5113 0.3985 0.1167
C7_4 C 0.4796(4) 0.4311(4) 0.1460(3)
H4_4 H 0.4943 0.4325 0.1657
C8_4 C 0.4631(4) 0.3598(5) 0.0072(4)
H8_4 H 0.5171 0.3654 0.0075
C15_4 C 0.4398(3) 0.5657(3) 0.2036(2)
C16_4 C 0.4508(3) 0.5994(2) 0.1857(2)
C17_4 C 0.4863(2) 0.6050(2) 0.1784(2)
H9_4 H 0.5036 0.5890 0.1856
C18_4 C 0.4952(3) 0.6360(2) 0.1595(3)
H10_4 H 0.5188 0.6393 0.1532
C19_4 C 0.4372(3) 0.6550(2) 0.1592(3)
H11_4 H 0.4205 0.6722 0.1536
C20_4 C 0.4259(2) 0.6240(2) 0.1765(2)
H12_4 H 0.4021 0.6204 0.1815
O9_4 O 0.04590(17) 0.28057(16) 0.20838(16)
O10_4 O 0.07564(15) 0.26217(15) 0.16079(17)
O11_4 O 0.34136(15) 0.45883(16) 0.26646(16)
O12_4 O 0.34685(18) 0.47064(17) 0.20882(17)
O13_4 O 0.03047(18) 0.20332(16) 0.21187(16)
O14_4 O 0.04941(15) 0.19099(14) 0.15612(17)
N4_4 N 0.1932(3) 0.3611(3) 0.2271(3)
N5_4 N 0.2136(3) 0.3686(4) 0.2021(3)
N6_4 N 0.09981(19) 0.08932(19) 0.22212(17)
C21_4 C 0.0734(3) 0.2792(2) 0.1904(3)
C22_4 C 0.1044(3) 0.3015(3) 0.1997(3)
C23_4 C 0.1319(3) 0.3014(4) 0.1772(4)
H13_4 H 0.1314 0.2876 0.1568
C24_4 C 0.1618(4) 0.3227(5) 0.1854(4)
H14_4 H 0.1809 0.3234 0.1698
C25_4 C 0.1629(3) 0.3415(4) 0.2144(4)
C26_4 C 0.1329(4) 0.3395(4) 0.2397(4)
H15_4 H 0.1333 0.3515 0.2613
C27_4 C 0.1040(3) 0.3189(4) 0.2296(4)
H16_4 H 0.0843 0.3175 0.2443
C28_4 C 0.2428(4) 0.3902(5) 0.2131(4)
C29_4 C 0.2639(5) 0.4026(5) 0.1854(4)
H17_4 H 0.2587 0.3962 0.1621
C30_4 C 0.2923(3) 0.4245(4) 0.1923(3)
H18_4 H 0.3045 0.4346 0.1734
C31_4 C 0.3031(3) 0.4316(3) 0.2257(3)
C32_4 C 0.2844(4) 0.4161(4) 0.2528(4)
H19_4 H 0.2922 0.4200 0.2759
C33_4 C 0.2542(4) 0.3950(4) 0.2480(4)
H20_4 H 0.2425 0.3846 0.2671
C34_4 C 0.3324(2) 0.4554(2) 0.2338(3)
C35_4 C 0.0464(2) 0.1843(3) 0.1898(3)
C36_4 C 0.0643(2) 0.1506(2) 0.2008(3)
C37_4 C 0.0716(2) 0.1450(2) 0.2363(2)
H21_4 H 0.0644 0.1610 0.2536
C38_4 C 0.0905(3) 0.1140(2) 0.2452(3)
H22_4 H 0.0968 0.1107 0.2688
C39_4 C 0.0908(3) 0.0950(2) 0.1872(3)
H23_4 H 0.0964 0.0778 0.1705
C40_4 C 0.0735(2) 0.1260(2) 0.1759(2)
H24_4 H 0.0685 0.1296 0.1521
Fe6_4 Fe 0.38000(3) 0.48704(3) 0.29103(3)
Fe9_4 Fe 0.13000(3) 0.04103(3) 0.23704(3)
O16_4 O 0.45838(16) 0.53057(16) 0.29590(17)
O17_4 O 0.01646(16) 0.20883(16) 0.09136(15)
O18_4 O 0.34136(15) 0.54117(16) 0.23354(16)
O19_4 O 0.04118(17) 0.27936(17) 0.09685(18)
O20_4 O 0.46187(16) 0.45332(16) 0.28047(18)
N8_4 N 0.34981(19) 0.52788(17) 0.16068(19)
O5_4 O 0.51646(16) 0.29117(16) 0.90864(15)
O6_4 O 0.45882(17) 0.27936(17) 0.90315(18)
C9_4 C 0.4354(4) 0.3474(5) 0.9861(5)
H5_4 H 0.4121 0.3538 0.9913
C10_4 C 0.4423(3) 0.3255(4) 0.9577(3)
H6_4 H 0.4234 0.3154 0.9455
C11_4 C 0.4757(3) 0.3184(3) 0.9469(3)
C12_4 C 0.5028(4) 0.3339(4) 0.9656(4)
H7_4 H 0.5259 0.3300 0.9578
C13_4 C 0.4980(4) 0.3550(4) 0.9958(4)
C14_4 C 0.4838(3) 0.2946(2) 0.9176(2)
Fe1_8 Fe 0.7500 0.70717(5) 0.5000
Fe2_5 Fe 0.76296(3) 0.63000(3) 0.45897(3)
O1_8 O 0.7500 0.65417(19) 0.5000
O2_8 O 0.7500 0.7616(2) 0.5000
O3_5 O 0.71943(16) 0.70838(16) 0.45410(17)
O4_5 O 0.73783(15) 0.66079(17) 0.42436(15)
O7_5 O 0.79668(16) 0.71187(16) 0.46953(18)
O8_5 O 0.80901(14) 0.65612(17) 0.45059(15)
N1_5 N 0.6389(3) 0.7271(3) 0.3068(3)
N2_5 N 0.6314(4) 0.7021(3) 0.2864(3)
N3_4 N 0.91068(19) 0.72212(17) 0.40019(19)
C1_5 C 0.7208(2) 0.6904(3) 0.4266(3)
C2_5 C 0.6985(3) 0.6997(3) 0.3956(3)
C3_5 C 0.6986(4) 0.6772(4) 0.3681(3)
H1_5 H 0.7124 0.6568 0.3686
C4_5 C 0.6773(5) 0.6854(4) 0.3382(4)
H2_5 H 0.6766 0.6698 0.3191
C5_5 C 0.6585(4) 0.7144(4) 0.3371(3)
C6_5 C 0.6605(4) 0.7397(4) 0.3671(4)
H3_5 H 0.6485 0.7613 0.3667
C7_5 C 0.6811(4) 0.7296(4) 0.3960(3)
H4_5 H 0.6825 0.7443 0.4157
C8_5 C 0.6098(5) 0.7131(4) 0.2572(4)
C9_5 C 0.5974(5) 0.6854(4) 0.2361(5)
H5_5 H 0.6038 0.6621 0.2413
C10_5 C 0.5755(4) 0.6923(3) 0.2077(3)
H6_5 H 0.5654 0.6734 0.1955
C11_5 C 0.5684(3) 0.7257(3) 0.1969(3)
C12_5 C 0.5839(4) 0.7528(4) 0.2156(4)
H7_5 H 0.5800 0.7759 0.2078
C13_5 C 0.6050(4) 0.7480(4) 0.2458(4)
H8_5 H 0.6154 0.7671 0.2575
C14_5 C 0.5446(2) 0.7338(3) 0.1676(2)
C15_5 C 0.8157(3) 0.6898(3) 0.4536(2)
C16_5 C 0.8494(2) 0.7008(3) 0.4357(2)
C17_5 C 0.8550(2) 0.7363(2) 0.4284(2)
H9_5 H 0.8390 0.7536 0.4356
C18_5 C 0.8860(2) 0.7452(3) 0.4095(3)
H10_5 H 0.8893 0.7688 0.4032
C19_5 C 0.9050(2) 0.6872(3) 0.4092(3)
H11_5 H 0.9222 0.6705 0.4036
C20_5 C 0.8740(2) 0.6759(2) 0.4265(2)
H12_5 H 0.8704 0.6521 0.4315
O9_5 O 0.53057(16) 0.29590(17) 0.45838(16)
O10_5 O 0.51217(15) 0.32564(15) 0.41079(17)
O11_5 O 0.70883(16) 0.59136(15) 0.51646(16)
O12_5 O 0.72064(17) 0.59685(18) 0.45882(17)
O13_5 O 0.45332(16) 0.28047(18) 0.46187(16)
O14_5 O 0.44099(14) 0.29941(15) 0.40612(17)
N4_5 N 0.6111(3) 0.4432(3) 0.4771(3)
N5_5 N 0.6186(4) 0.4636(3) 0.4521(3)
N6_5 N 0.33932(19) 0.34981(19) 0.47212(17)
C21_5 C 0.5292(2) 0.3234(3) 0.4404(3)
C22_5 C 0.5515(3) 0.3544(3) 0.4497(3)
C23_5 C 0.5514(4) 0.3819(3) 0.4272(4)
H13_5 H 0.5376 0.3814 0.4068
C24_5 C 0.5727(5) 0.4118(4) 0.4354(4)
H14_5 H 0.5734 0.4309 0.4198
C25_5 C 0.5915(4) 0.4129(3) 0.4644(4)
C26_5 C 0.5895(4) 0.3829(4) 0.4897(4)
H15_5 H 0.6015 0.3833 0.5113
C27_5 C 0.5689(4) 0.3540(3) 0.4796(4)
H16_5 H 0.5675 0.3343 0.4943
C28_5 C 0.6402(5) 0.4928(4) 0.4631(4)
C29_5 C 0.6526(5) 0.5139(5) 0.4354(4)
H17_5 H 0.6462 0.5087 0.4121
C30_5 C 0.6745(4) 0.5423(3) 0.4423(3)
H18_5 H 0.6846 0.5545 0.4234
C31_5 C 0.6816(3) 0.5531(3) 0.4757(3)
C32_5 C 0.6661(4) 0.5344(4) 0.5028(4)
H19_5 H 0.6700 0.5422 0.5259
C33_5 C 0.6450(4) 0.5042(4) 0.4980(4)
H20_5 H 0.6346 0.4925 0.5171
C34_5 C 0.7054(2) 0.5824(2) 0.4838(3)
C35_5 C 0.4343(3) 0.2964(2) 0.4398(3)
C36_5 C 0.4006(2) 0.3143(2) 0.4508(3)
C37_5 C 0.3950(2) 0.3216(2) 0.4863(2)
H21_5 H 0.4110 0.3144 0.5036
C38_5 C 0.3640(2) 0.3405(3) 0.4952(3)
H22_5 H 0.3607 0.3468 0.5188
C39_5 C 0.3450(2) 0.3408(3) 0.4372(3)
H23_5 H 0.3278 0.3464 0.4205
C40_5 C 0.3760(2) 0.3235(2) 0.4259(2)
H24_5 H 0.3796 0.3185 0.4021
Fe4_4 Fe 0.5000 0.2500 0.45717(5)
Fe5_4 Fe 0.95897(3) 0.73704(3) 0.37000(3)
Fe6_5 Fe 0.73704(3) 0.63000(3) 0.54103(3)
Fe9_5 Fe 0.29103(3) 0.38000(3) 0.48704(3)
O15_4 O 0.5000 0.2500 0.40417(19)
O16_5 O 0.78057(16) 0.70838(16) 0.54590(17)
O18_5 O 0.79117(16) 0.59136(15) 0.48354(16)
O20_5 O 0.70332(16) 0.71187(16) 0.53047(18)
N7_2 N 0.47212(17) 0.33932(19) 0.34981(19)
N8_5 N 0.77788(17) 0.59981(19) 0.41068(19)
C12_6 C 0.0028(4) 0.1661(4) 0.0344(4)
H7_6 H 0.0259 0.1700 0.0422
O2_9 O 0.0116(2) 1.0000 0.7500
H9_6 H 0.0036 0.9110 0.8144
H10_6 H 0.0188 0.8607 0.8468
H26_4 H 0.020378 0.986237 0.729336
C9_6 C 0.9354(4) 0.1526(5) 0.0139(5)
H5_6 H 0.9121 0.1462 0.0087
C10_6 C 0.9423(3) 0.1745(4) 0.0423(3)
H6_6 H 0.9234 0.1846 0.0545
C11_6 C 0.9757(3) 0.1816(3) 0.0531(3)
C13_6 C 0.9980(4) 0.1450(4) 0.0042(4)
C14_6 C 0.9838(3) 0.2054(2) 0.0824(2)
Fe1_9 Fe 0.95717(5) -0.0000 0.7500
O1_9 O 0.90417(19) -0.0000 0.7500
O3_6 O 0.95838(16) 0.03057(16) 0.79590(17)
O4_6 O 0.91079(17) 0.01217(15) 0.82564(15)
N1_6 N 0.9771(3) 0.1111(3) 0.9432(3)
N2_6 N 0.9521(3) 0.1186(4) 0.9636(3)
C1_6 C 0.9404(3) 0.0292(2) 0.8234(3)
C2_6 C 0.9497(3) 0.0515(3) 0.8544(3)
C3_6 C 0.9272(4) 0.0514(4) 0.8819(3)
H1_6 H 0.9068 0.0376 0.8814
C4_6 C 0.9354(4) 0.0727(5) 0.9118(4)
H2_6 H 0.9198 0.0734 0.9309
C5_6 C 0.9644(4) 0.0915(4) 0.9129(3)
C6_6 C 0.9897(4) 0.0895(4) 0.8829(4)
C7_6 C 0.9796(4) 0.0689(4) 0.8540(3)
H4_6 H 0.9943 0.0675 0.8343
C8_6 C 0.9631(4) 0.1402(5) 0.9928(4)
O9_6 O 0.54590(17) 0.21943(16) 0.79162(16)
O10_6 O 0.57564(15) 0.23783(15) 0.83921(17)
O11_6 O 0.84136(15) 0.04117(16) 0.73354(16)
O12_6 O 0.84685(18) 0.02936(17) 0.79118(17)
O13_6 O 0.53047(18) 0.29668(16) 0.78813(16)
O14_6 O 0.54941(15) 0.30901(14) 0.84388(17)
N4_6 N 0.6932(3) 0.1389(3) 0.7729(3)
N5_6 N 0.7136(3) 0.1314(4) 0.7979(3)
N6_6 N 0.59981(19) 0.41068(19) 0.77788(17)
C21_6 C 0.5734(3) 0.2208(2) 0.8096(3)
C22_6 C 0.6044(3) 0.1985(3) 0.8003(3)
C23_6 C 0.6319(3) 0.1986(4) 0.8228(4)
H13_6 H 0.6314 0.2124 0.8432
C24_6 C 0.6618(4) 0.1773(5) 0.8146(4)
H14_6 H 0.6809 0.1766 0.8302
C25_6 C 0.6629(3) 0.1585(4) 0.7856(4)
C26_6 C 0.6329(4) 0.1605(4) 0.7603(4)
H15_6 H 0.6333 0.1485 0.7387
C27_6 C 0.6040(3) 0.1811(4) 0.7704(4)
H16_6 H 0.5843 0.1825 0.7557
C28_6 C 0.7428(4) 0.1098(5) 0.7869(4)
C29_6 C 0.7639(5) 0.0974(5) 0.8146(4)
H17_6 H 0.7587 0.1038 0.8379
C30_6 C 0.7923(3) 0.0755(4) 0.8077(3)
H18_6 H 0.8045 0.0654 0.8266
C31_6 C 0.8031(3) 0.0684(3) 0.7743(3)
C32_6 C 0.7844(4) 0.0839(4) 0.7472(4)
H19_6 H 0.7922 0.0800 0.7241
C33_6 C 0.7542(4) 0.1050(4) 0.7520(4)
H20_6 H 0.7425 0.1154 0.7329
C34_6 C 0.8324(2) 0.0446(2) 0.7662(3)
C35_6 C 0.5464(2) 0.3157(3) 0.8102(3)
C36_6 C 0.5643(2) 0.3494(2) 0.7992(3)
C37_6 C 0.5716(2) 0.3550(2) 0.7637(2)
H21_6 H 0.5644 0.3390 0.7464
C38_6 C 0.5905(3) 0.3860(2) 0.7548(3)
H22_6 H 0.5968 0.3893 0.7312
C39_6 C 0.5908(3) 0.4050(2) 0.8128(3)
H23_6 H 0.5964 0.4222 0.8295
C40_6 C 0.5735(2) 0.3740(2) 0.8241(2)
H24_6 H 0.5685 0.3704 0.8479
Fe4_5 Fe 0.5000 0.2500 0.79283(5)
Fe6_6 Fe 0.88000(3) 0.01296(3) 0.70897(3)
Fe9_6 Fe 0.63000(3) 0.45897(3) 0.76296(3)
O15_5 O 0.5000 0.2500 0.84583(19)
O20_6 O 0.96187(16) 0.04668(16) 0.71953(18)
N7_3 N 0.58932(19) 0.27788(17) 0.90019(19)
Fe1_10 Fe 0.95717(5) 1.0000 0.7500
Fe2_6 Fe 0.88000(3) 0.98704(3) 0.79103(3)
O1_10 O 0.90417(19) 1.0000 0.7500
O7_6 O 0.96187(16) 0.95332(16) 0.78047(18)
O8_6 O 0.90612(17) 0.94099(14) 0.79941(15)
N3_5 N 0.97212(17) 0.83932(19) 0.84981(19)
C15_6 C 0.9398(3) 0.9343(3) 0.7964(2)
C16_6 C 0.9508(3) 0.9006(2) 0.8143(2)
C17_6 C 0.9863(2) 0.8950(2) 0.8216(2)
C18_6 C 0.9952(3) 0.8640(2) 0.8405(3)
C19_6 C 0.9372(3) 0.8450(2) 0.8408(3)
H11_6 H 0.9205 0.8278 0.8464
C20_6 C 0.9259(2) 0.8760(2) 0.8235(2)
H12_6 H 0.9021 0.8796 0.8185
Fe5_5 Fe 0.98704(3) 0.79103(3) 0.88000(3)
O16_6 O 0.95838(16) 0.96943(16) 0.70410(17)
O18_6 O 0.84136(15) 0.95883(16) 0.76646(16)
N8_6 N 0.84981(19) 0.97212(17) 0.83932(19)
O9_7 O 0.46943(16) 0.20410(17) 0.45838(16)
O10_7 O 0.48783(15) 0.17436(15) 0.41079(17)
O13_7 O 0.54668(16) 0.21953(18) 0.46187(16)
O14_7 O 0.55901(14) 0.20059(15) 0.40612(17)
N4_7 N 0.3889(3) 0.0568(3) 0.4771(3)
N5_7 N 0.3814(4) 0.0364(3) 0.4521(3)
N6_7 N 0.66068(19) 0.15019(19) 0.47212(17)
C21_7 C 0.4708(2) 0.1766(3) 0.4404(3)
C22_7 C 0.4485(3) 0.1456(3) 0.4497(3)
C23_7 C 0.4486(4) 0.1181(3) 0.4272(4)
H13_7 H 0.4624 0.1186 0.4068
C24_7 C 0.4273(5) 0.0882(4) 0.4354(4)
H14_7 H 0.4266 0.0691 0.4198
C25_7 C 0.4085(4) 0.0871(3) 0.4644(4)
C26_7 C 0.4105(4) 0.1171(4) 0.4897(4)
H15_7 H 0.3985 0.1167 0.5113
C27_7 C 0.4311(4) 0.1460(3) 0.4796(4)
H16_7 H 0.4325 0.1657 0.4943
C28_7 C 0.3598(5) 0.0072(4) 0.4631(4)
H20_7 H 0.3654 0.0075 0.5171
C35_7 C 0.5657(3) 0.2036(2) 0.4398(3)
C36_7 C 0.5994(2) 0.1857(2) 0.4508(3)
C37_7 C 0.6050(2) 0.1784(2) 0.4863(2)
H21_7 H 0.5890 0.1856 0.5036
C38_7 C 0.6360(2) 0.1595(3) 0.4952(3)
H22_7 H 0.6393 0.1532 0.5188
C39_7 C 0.6550(2) 0.1592(3) 0.4372(3)
H23_7 H 0.6722 0.1536 0.4205
C40_7 C 0.6240(2) 0.1765(2) 0.4259(2)
H24_7 H 0.6204 0.1815 0.4021
Fe9_7 Fe 0.70897(3) 0.12000(3) 0.48704(3)
N7_4 N 0.52788(17) 0.16068(19) 0.34981(19)
Fe1_11 Fe 0.2500 0.79283(5) 0.5000
Fe2_7 Fe 0.23704(3) 0.87000(3) 0.45897(3)
O1_11 O 0.2500 0.84583(19) 0.5000
O2_10 O 0.2500 0.7384(2) 0.5000
O3_7 O 0.28057(16) 0.79162(16) 0.45410(17)
O4_7 O 0.26217(15) 0.83921(17) 0.42436(15)
O7_7 O 0.20332(16) 0.78813(16) 0.46953(18)
O8_7 O 0.19099(14) 0.84388(17) 0.45059(15)
N1_7 N 0.3611(3) 0.7729(3) 0.3068(3)
N2_7 N 0.3686(4) 0.7979(3) 0.2864(3)
N3_6 N 0.08932(19) 0.77788(17) 0.40019(19)
C1_7 C 0.2792(2) 0.8096(3) 0.4266(3)
C2_7 C 0.3015(3) 0.8003(3) 0.3956(3)
C3_7 C 0.3014(4) 0.8228(4) 0.3681(3)
H1_7 H 0.2876 0.8432 0.3686
C4_7 C 0.3227(5) 0.8146(4) 0.3382(4)
H2_7 H 0.3234 0.8302 0.3191
C5_7 C 0.3415(4) 0.7856(4) 0.3371(3)
C6_7 C 0.3395(4) 0.7603(4) 0.3671(4)
H3_6 H 0.3515 0.7387 0.3667
C7_7 C 0.3189(4) 0.7704(4) 0.3960(3)
H4_7 H 0.3175 0.7557 0.4157
C8_7 C 0.3902(5) 0.7869(4) 0.2572(4)
C9_7 C 0.4026(5) 0.8146(4) 0.2361(5)
H5_7 H 0.3962 0.8379 0.2413
C10_7 C 0.4245(4) 0.8077(3) 0.2077(3)
H6_7 H 0.4346 0.8266 0.1955
C11_7 C 0.4316(3) 0.7743(3) 0.1969(3)
C12_7 C 0.4161(4) 0.7472(4) 0.2156(4)
H7_7 H 0.4200 0.7241 0.2078
C13_7 C 0.3950(4) 0.7520(4) 0.2458(4)
H8_6 H 0.3846 0.7329 0.2575
C14_7 C 0.4554(2) 0.7662(3) 0.1676(2)
C15_7 C 0.1843(3) 0.8102(3) 0.4536(2)
C16_7 C 0.1506(2) 0.7992(3) 0.4357(2)
C17_7 C 0.1450(2) 0.7637(2) 0.4284(2)
H9_7 H 0.1610 0.7464 0.4356
C18_7 C 0.1140(2) 0.7548(3) 0.4095(3)
H10_7 H 0.1107 0.7312 0.4032
C19_7 C 0.0950(2) 0.8128(3) 0.4092(3)
H11_7 H 0.0778 0.8295 0.4036
C20_7 C 0.1260(2) 0.8241(2) 0.4265(2)
H12_7 H 0.1296 0.8479 0.4315
O11_7 O 0.29117(16) 0.90864(15) 0.51646(16)
O12_7 O 0.27936(17) 0.90315(18) 0.45882(17)
C29_7 C 0.3474(5) 0.9861(5) 0.4354(4)
H17_7 H 0.3538 0.9913 0.4121
C30_7 C 0.3255(4) 0.9577(3) 0.4423(3)
H18_7 H 0.3154 0.9455 0.4234
C31_7 C 0.3184(3) 0.9469(3) 0.4757(3)
C32_7 C 0.3339(4) 0.9656(4) 0.5028(4)
H19_7 H 0.3300 0.9578 0.5259
C33_7 C 0.3550(4) 0.9958(4) 0.4980(4)
C34_7 C 0.2946(2) 0.9176(2) 0.4838(3)
Fe5_6 Fe 0.04103(3) 0.76296(3) 0.37000(3)
Fe6_7 Fe 0.26296(3) 0.87000(3) 0.54103(3)
O16_7 O 0.21943(16) 0.79162(16) 0.54590(17)
O18_7 O 0.20883(16) 0.90864(15) 0.48354(16)
O20_7 O 0.29668(16) 0.78813(16) 0.53047(18)
N8_7 N 0.22212(17) 0.90019(19) 0.41068(19)
C9_8 C 0.0646(4) 0.3474(5) 0.0139(5)
H5_8 H 0.0879 0.3538 0.0087
C10_8 C 0.0577(3) 0.3255(4) 0.0423(3)
H6_8 H 0.0766 0.3154 0.0545
C11_8 C 0.0243(3) 0.3184(3) 0.0531(3)
C13_8 C 0.0020(4) 0.3550(4) 0.0042(4)
C14_8 C 0.0162(3) 0.2946(2) 0.0824(2)
Fe1_12 Fe 0.04283(5) 0.5000 0.7500
Fe2_8 Fe 0.12000(3) 0.51296(3) 0.79103(3)
O1_12 O 0.09583(19) 0.5000 0.7500
O3_8 O 0.04162(16) 0.46943(16) 0.79590(17)
O4_8 O 0.08921(17) 0.48783(15) 0.82564(15)
O7_8 O 0.03813(16) 0.54668(16) 0.78047(18)
O8_8 O 0.09388(17) 0.55901(14) 0.79941(15)
N1_8 N 0.0229(3) 0.3889(3) 0.9432(3)
N2_8 N 0.0479(3) 0.3814(4) 0.9636(3)
N3_7 N 0.02788(17) 0.66068(19) 0.84981(19)
C1_8 C 0.0596(3) 0.4708(2) 0.8234(3)
C2_8 C 0.0503(3) 0.4485(3) 0.8544(3)
C3_8 C 0.0728(4) 0.4486(4) 0.8819(3)
H1_8 H 0.0932 0.4624 0.8814
C4_8 C 0.0646(4) 0.4273(5) 0.9118(4)
H2_8 H 0.0802 0.4266 0.9309
C5_8 C 0.0356(4) 0.4085(4) 0.9129(3)
C6_8 C 0.0103(4) 0.4105(4) 0.8829(4)
C7_8 C 0.0204(4) 0.4311(4) 0.8540(3)
H4_8 H 0.0057 0.4325 0.8343
C8_8 C 0.0369(4) 0.3598(5) 0.9928(4)
C15_8 C 0.0602(3) 0.5657(3) 0.7964(2)
C16_8 C 0.0492(3) 0.5994(2) 0.8143(2)
C17_8 C 0.0137(2) 0.6050(2) 0.8216(2)
C18_8 C 0.0048(3) 0.6360(2) 0.8405(3)
C19_8 C 0.0628(3) 0.6550(2) 0.8408(3)
H11_8 H 0.0795 0.6722 0.8464
C20_8 C 0.0741(2) 0.6240(2) 0.8235(2)
H12_8 H 0.0979 0.6204 0.8185
O9_8 O 0.45410(17) 0.28057(16) 0.79162(16)
O10_8 O 0.42436(15) 0.26217(15) 0.83921(17)
O11_8 O 0.15864(15) 0.45883(16) 0.73354(16)
O12_8 O 0.15315(18) 0.47064(17) 0.79118(17)
O13_8 O 0.46953(18) 0.20332(16) 0.78813(16)
O14_8 O 0.45059(15) 0.19099(14) 0.84388(17)
N4_8 N 0.3068(3) 0.3611(3) 0.7729(3)
N5_8 N 0.2864(3) 0.3686(4) 0.7979(3)
N6_8 N 0.40019(19) 0.08932(19) 0.77788(17)
C21_8 C 0.4266(3) 0.2792(2) 0.8096(3)
C22_8 C 0.3956(3) 0.3015(3) 0.8003(3)
C23_8 C 0.3681(3) 0.3014(4) 0.8228(4)
H13_8 H 0.3686 0.2876 0.8432
C24_8 C 0.3382(4) 0.3227(5) 0.8146(4)
H14_8 H 0.3191 0.3234 0.8302
C25_8 C 0.3371(3) 0.3415(4) 0.7856(4)
C26_8 C 0.3671(4) 0.3395(4) 0.7603(4)
H15_8 H 0.3667 0.3515 0.7387
C27_8 C 0.3960(3) 0.3189(4) 0.7704(4)
H16_8 H 0.4157 0.3175 0.7557
C28_8 C 0.2572(4) 0.3902(5) 0.7869(4)
C29_8 C 0.2361(5) 0.4026(5) 0.8146(4)
H17_8 H 0.2413 0.3962 0.8379
C30_8 C 0.2077(3) 0.4245(4) 0.8077(3)
H18_8 H 0.1955 0.4346 0.8266
C31_8 C 0.1969(3) 0.4316(3) 0.7743(3)
C32_8 C 0.2156(4) 0.4161(4) 0.7472(4)
H19_8 H 0.2078 0.4200 0.7241
C33_8 C 0.2458(4) 0.3950(4) 0.7520(4)
H20_8 H 0.2575 0.3846 0.7329
C34_8 C 0.1676(2) 0.4554(2) 0.7662(3)
C35_8 C 0.4536(2) 0.1843(3) 0.8102(3)
C36_8 C 0.4357(2) 0.1506(2) 0.7992(3)
C37_8 C 0.4284(2) 0.1450(2) 0.7637(2)
H21_8 H 0.4356 0.1610 0.7464
C38_8 C 0.4095(3) 0.1140(2) 0.7548(3)
H22_8 H 0.4032 0.1107 0.7312
C39_8 C 0.4092(3) 0.0950(2) 0.8128(3)
H23_8 H 0.4036 0.0778 0.8295
C40_8 C 0.4265(2) 0.1260(2) 0.8241(2)
H24_8 H 0.4315 0.1296 0.8479
Fe5_7 Fe 0.01296(3) 0.70897(3) 0.88000(3)
Fe6_8 Fe 0.12000(3) 0.48704(3) 0.70897(3)
Fe9_8 Fe 0.37000(3) 0.04103(3) 0.76296(3)
O16_8 O 0.04162(16) 0.53057(16) 0.70410(17)
O18_8 O 0.15864(15) 0.54117(16) 0.76646(16)
O20_8 O 0.03813(16) 0.45332(16) 0.71953(18)
N7_5 N 0.41068(19) 0.22212(17) 0.90019(19)
N8_8 N 0.15019(19) 0.52788(17) 0.83932(19)
C12_8 C 0.9972(4) 0.3339(4) 0.0344(4)
H7_8 H 0.9741 0.3300 0.0422
O2_11 O 0.9884(2) 0.5000 0.7500
H3_7 H 0.9887 0.3985 0.8833
H8_7 H 0.9829 0.3654 0.9925
H9_8 H 0.9964 0.5890 0.8144
H10_8 H 0.9812 0.6393 0.8468
Fe1_13 Fe -0.0000 0.7500 0.29283(5)
O1_13 O -0.0000 0.7500 0.34583(19)
O2_12 O -0.0000 0.7500 0.2384(2)
O3_9 O 0.04590(17) 0.71943(16) 0.29162(16)
O4_9 O 0.07564(15) 0.73783(15) 0.33921(17)
O6_5 O 0.34685(18) 0.52936(17) 0.29118(17)
O7_9 O 0.03047(18) 0.79668(16) 0.28813(16)
O8_9 O 0.04941(15) 0.80901(14) 0.34388(17)
N1_9 N 0.1932(3) 0.6389(3) 0.2729(3)
N2_9 N 0.2136(3) 0.6314(4) 0.2979(3)
N3_8 N 0.09981(19) 0.91068(19) 0.27788(17)
C1_9 C 0.0734(3) 0.7208(2) 0.3096(3)
C2_9 C 0.1044(3) 0.6985(3) 0.3003(3)
C3_9 C 0.1319(3) 0.6986(4) 0.3228(4)
H1_9 H 0.1314 0.7124 0.3432
C4_9 C 0.1618(4) 0.6773(5) 0.3146(4)
H2_9 H 0.1809 0.6766 0.3302
C5_9 C 0.1629(3) 0.6585(4) 0.2856(4)
C6_9 C 0.1329(4) 0.6605(4) 0.2603(4)
H3_8 H 0.1333 0.6485 0.2387
C7_9 C 0.1040(3) 0.6811(4) 0.2704(4)
H4_9 H 0.0843 0.6825 0.2557
C8_9 C 0.2428(4) 0.6098(5) 0.2869(4)
C9_9 C 0.2639(5) 0.5974(5) 0.3146(4)
H5_9 H 0.2587 0.6038 0.3379
C10_9 C 0.2923(3) 0.5755(4) 0.3077(3)
H6_9 H 0.3045 0.5654 0.3266
C11_9 C 0.3031(3) 0.5684(3) 0.2743(3)
C12_9 C 0.2844(4) 0.5839(4) 0.2472(4)
H7_9 H 0.2922 0.5800 0.2241
C13_9 C 0.2542(4) 0.6050(4) 0.2520(4)
H8_8 H 0.2425 0.6154 0.2329
C14_9 C 0.3324(2) 0.5446(2) 0.2662(3)
C15_9 C 0.0464(2) 0.8157(3) 0.3102(3)
C16_9 C 0.0643(2) 0.8494(2) 0.2992(3)
C17_9 C 0.0716(2) 0.8550(2) 0.2637(2)
H9_9 H 0.0644 0.8390 0.2464
C18_9 C 0.0905(3) 0.8860(2) 0.2548(3)
H10_9 H 0.0968 0.8893 0.2312
C19_9 C 0.0908(3) 0.9050(2) 0.3128(3)
H11_9 H 0.0964 0.9222 0.3295
C20_9 C 0.0735(2) 0.8740(2) 0.3241(2)
H12_9 H 0.0685 0.8704 0.3479
O10_9 O 0.08921(17) 0.51217(15) 0.67436(15)
O12_9 O 0.04118(17) 0.72064(17) 0.40315(18)
O14_9 O 0.09388(17) 0.44099(14) 0.70059(15)
N4_9 N 0.0229(3) 0.6111(3) 0.5568(3)
N5_9 N 0.0479(3) 0.6186(4) 0.5364(3)
N6_9 N 0.02788(17) 0.33932(19) 0.65019(19)
C21_9 C 0.0596(3) 0.5292(2) 0.6766(3)
C22_9 C 0.0503(3) 0.5515(3) 0.6456(3)
C23_9 C 0.0728(4) 0.5514(4) 0.6181(3)
H13_9 H 0.0932 0.5376 0.6186
C24_9 C 0.0646(4) 0.5727(5) 0.5882(4)
H14_9 H 0.0802 0.5734 0.5691
C25_9 C 0.0356(4) 0.5915(4) 0.5871(3)
C26_9 C 0.0103(4) 0.5895(4) 0.6171(4)
C27_9 C 0.0204(4) 0.5689(4) 0.6460(3)
H16_9 H 0.0057 0.5675 0.6657
C28_9 C 0.0369(4) 0.6402(5) 0.5072(4)
C29_9 C 0.0646(4) 0.6526(5) 0.4861(5)
H17_9 H 0.0879 0.6462 0.4913
C30_9 C 0.0577(3) 0.6745(4) 0.4577(3)
H18_9 H 0.0766 0.6846 0.4455
C31_9 C 0.0243(3) 0.6816(3) 0.4469(3)
C33_9 C 0.0020(4) 0.6450(4) 0.4958(4)
C34_9 C 0.0162(3) 0.7054(2) 0.4176(2)
C35_9 C 0.0602(3) 0.4343(3) 0.7036(2)
C36_9 C 0.0492(3) 0.4006(2) 0.6857(2)
C37_9 C 0.0137(2) 0.3950(2) 0.6784(2)
C38_9 C 0.0048(3) 0.3640(2) 0.6595(3)
C39_9 C 0.0628(3) 0.3450(2) 0.6592(3)
H23_9 H 0.0795 0.3278 0.6536
C40_9 C 0.0741(2) 0.3760(2) 0.6765(2)
H24_9 H 0.0979 0.3796 0.6815
Fe5_8 Fe 0.13000(3) 0.95897(3) 0.26296(3)
Fe9_9 Fe 0.01296(3) 0.29103(3) 0.62000(3)
O18_9 O 0.01646(16) 0.79117(16) 0.40864(15)
O19_5 O 0.15315(18) 0.52936(17) 0.70882(17)
N7_6 N 0.15019(19) 0.47212(17) 0.66068(19)
Fe1_14 Fe 1.0000 0.7500 0.29283(5)
O1_14 O 1.0000 0.7500 0.34583(19)
O2_13 O 1.0000 0.7500 0.2384(2)
O11_9 O 0.98354(16) 0.70883(16) 0.40864(15)
H15_9 H 0.9887 0.6015 0.6167
C32_9 C 0.9972(4) 0.6661(4) 0.4656(4)
H19_9 H 0.9741 0.6700 0.4578
H20_9 H 0.9829 0.6346 0.5075
H21_9 H 0.9964 0.4110 0.6856
H22_9 H 0.9812 0.3607 0.6532
O16_9 O 0.95410(17) 0.78057(16) 0.29162(16)
O20_9 O 0.96953(18) 0.70332(16) 0.28813(16)
H25_4 H 0.998413 0.725223 0.229622
H26_5 H 0.979336 0.763763 0.229622
Fe1_15 Fe -0.0000 0.7500 0.95717(5)
O1_15 O -0.0000 0.7500 0.90417(19)
O7_10 O 0.04668(16) 0.71953(18) 0.96187(16)
O8_10 O 0.05901(14) 0.70059(15) 0.90612(17)
N3_9 N 0.16068(19) 0.65019(19) 0.97212(17)
C15_10 C 0.0657(3) 0.7036(2) 0.9398(3)
C16_10 C 0.0994(2) 0.6857(2) 0.9508(3)
C17_10 C 0.1050(2) 0.6784(2) 0.9863(2)
C18_10 C 0.1360(2) 0.6595(3) 0.9952(3)
C19_10 C 0.1550(2) 0.6592(3) 0.9372(3)
H11_10 H 0.1722 0.6536 0.9205
C20_10 C 0.1240(2) 0.6765(2) 0.9259(2)
H12_10 H 0.1204 0.6815 0.9021
Fe5_9 Fe 0.20897(3) 0.62000(3) 0.98704(3)
O16_10 O 0.03057(16) 0.79590(17) 0.95838(16)
O18_10 O 0.04117(16) 0.73354(16) 0.84136(15)
O2_14 O 1.0000 0.7500 0.0116(2)
H3_9 H 0.8985 0.6167 0.0113
C12_10 C 0.8339(4) 0.4656(4) 0.0028(4)
H7_10 H 0.8300 0.4578 0.0259
H8_9 H 0.8654 0.5075 0.0171
H25_5 H 0.975223 0.751587 0.020378
Fe1_16 Fe 1.0000 0.7500 0.95717(5)
O1_16 O 1.0000 0.7500 0.90417(19)
O3_10 O 0.96943(16) 0.70410(17) 0.95838(16)
O4_10 O 0.98783(15) 0.67436(15) 0.91079(17)
O6_6 O 0.77936(17) 0.40315(18) 0.95882(17)
N1_10 N 0.8889(3) 0.5568(3) 0.9771(3)
N2_10 N 0.8814(4) 0.5364(3) 0.9521(3)
C1_10 C 0.9708(2) 0.6766(3) 0.9404(3)
C2_10 C 0.9485(3) 0.6456(3) 0.9497(3)
C3_10 C 0.9486(4) 0.6181(3) 0.9272(4)
H1_10 H 0.9624 0.6186 0.9068
C4_10 C 0.9273(5) 0.5882(4) 0.9354(4)
H2_10 H 0.9266 0.5691 0.9198
C5_10 C 0.9085(4) 0.5871(3) 0.9644(4)
C6_10 C 0.9105(4) 0.6171(4) 0.9897(4)
C7_10 C 0.9311(4) 0.6460(3) 0.9796(4)
H4_10 H 0.9325 0.6657 0.9943
C8_10 C 0.8598(5) 0.5072(4) 0.9631(4)
C9_10 C 0.8474(5) 0.4861(5) 0.9354(4)
H5_10 H 0.8538 0.4913 0.9121
C10_10 C 0.8255(4) 0.4577(3) 0.9423(3)
H6_10 H 0.8154 0.4455 0.9234
C11_10 C 0.8184(3) 0.4469(3) 0.9757(3)
C13_10 C 0.8550(4) 0.4958(4) 0.9980(4)
C14_10 C 0.7946(2) 0.4176(2) 0.9838(3)
O10_10 O 0.76217(15) 0.66079(17) 0.57564(15)
O11_10 O 0.95883(16) 0.76646(16) 0.84136(15)
O12_10 O 0.97064(17) 0.70882(17) 0.84685(18)
O14_10 O 0.69099(14) 0.65612(17) 0.54941(15)
N4_10 N 0.8611(3) 0.7271(3) 0.6932(3)
N5_10 N 0.8686(4) 0.7021(3) 0.7136(3)
N6_10 N 0.58932(19) 0.72212(17) 0.59981(19)
C21_10 C 0.7792(2) 0.6904(3) 0.5734(3)
C22_10 C 0.8015(3) 0.6997(3) 0.6044(3)
C23_10 C 0.8014(4) 0.6772(4) 0.6319(3)
H13_10 H 0.7876 0.6568 0.6314
C24_10 C 0.8227(5) 0.6854(4) 0.6618(4)
H14_10 H 0.8234 0.6698 0.6809
C25_10 C 0.8415(4) 0.7144(4) 0.6629(3)
C26_10 C 0.8395(4) 0.7397(4) 0.6329(4)
H15_10 H 0.8515 0.7613 0.6333
C27_10 C 0.8189(4) 0.7296(4) 0.6040(3)
H16_10 H 0.8175 0.7443 0.5843
C28_10 C 0.8902(5) 0.7131(4) 0.7428(4)
C29_10 C 0.9026(5) 0.6854(4) 0.7639(5)
H17_10 H 0.8962 0.6621 0.7587
C30_10 C 0.9245(4) 0.6923(3) 0.7923(3)
H18_10 H 0.9346 0.6734 0.8045
C31_10 C 0.9316(3) 0.7257(3) 0.8031(3)
C32_10 C 0.9161(4) 0.7528(4) 0.7844(4)
H19_10 H 0.9200 0.7759 0.7922
C33_10 C 0.8950(4) 0.7480(4) 0.7542(4)
H20_10 H 0.8846 0.7671 0.7425
C34_10 C 0.9554(2) 0.7338(3) 0.8324(2)
C35_10 C 0.6843(3) 0.6898(3) 0.5464(2)
C36_10 C 0.6506(2) 0.7008(3) 0.5643(2)
C37_10 C 0.6450(2) 0.7363(2) 0.5716(2)
H21_10 H 0.6610 0.7536 0.5644
C38_10 C 0.6140(2) 0.7452(3) 0.5905(3)
H22_10 H 0.6107 0.7688 0.5968
C39_10 C 0.5950(2) 0.6872(3) 0.5908(3)
H23_10 H 0.5778 0.6705 0.5964
C40_10 C 0.6260(2) 0.6759(2) 0.5735(2)
H24_10 H 0.6296 0.6521 0.5685
Fe9_10 Fe 0.54103(3) 0.73704(3) 0.63000(3)
O19_6 O 0.77936(17) 0.59685(18) 0.54118(17)
O20_10 O 0.95332(16) 0.78047(18) 0.96187(16)
N7_7 N 0.72212(17) 0.59981(19) 0.58932(19)
H15_11 H 0.0113 0.8985 0.6167
C32_11 C 0.0028(4) 0.8339(4) 0.4656(4)
H19_11 H 0.0259 0.8300 0.4578
H20_11 H 0.0171 0.8654 0.5075
H25_6 H 0.00158669 0.774777 0.229622
H26_6 H 0.0206643 0.736237 0.229622
O14_11 O 0.90612(17) 0.05901(14) 0.70059(15)
N6_11 N 0.97212(17) 0.16068(19) 0.65019(19)
C35_11 C 0.9398(3) 0.0657(3) 0.7036(2)
C36_11 C 0.9508(3) 0.0994(2) 0.6857(2)
C37_11 C 0.9863(2) 0.1050(2) 0.6784(2)
C38_11 C 0.9952(3) 0.1360(2) 0.6595(3)
C39_11 C 0.9372(3) 0.1550(2) 0.6592(3)
H23_11 H 0.9205 0.1722 0.6536
C40_11 C 0.9259(2) 0.1240(2) 0.6765(2)
H24_11 H 0.9021 0.1204 0.6815
Fe9_11 Fe 0.98704(3) 0.20897(3) 0.62000(3)
N7_8 N 0.84981(19) 0.02788(17) 0.66068(19)
O4_11 O 0.92436(15) 0.76217(15) 0.33921(17)
O6_7 O 0.65315(18) 0.97064(17) 0.29118(17)
O8_11 O 0.95059(15) 0.69099(14) 0.34388(17)
N1_11 N 0.8068(3) 0.8611(3) 0.2729(3)
N2_11 N 0.7864(3) 0.8686(4) 0.2979(3)
N3_10 N 0.90019(19) 0.58932(19) 0.27788(17)
C1_11 C 0.9266(3) 0.7792(2) 0.3096(3)
C2_11 C 0.8956(3) 0.8015(3) 0.3003(3)
C3_11 C 0.8681(3) 0.8014(4) 0.3228(4)
H1_11 H 0.8686 0.7876 0.3432
C4_11 C 0.8382(4) 0.8227(5) 0.3146(4)
H2_11 H 0.8191 0.8234 0.3302
C5_11 C 0.8371(3) 0.8415(4) 0.2856(4)
C6_11 C 0.8671(4) 0.8395(4) 0.2603(4)
H3_10 H 0.8667 0.8515 0.2387
C7_11 C 0.8960(3) 0.8189(4) 0.2704(4)
H4_11 H 0.9157 0.8175 0.2557
C8_11 C 0.7572(4) 0.8902(5) 0.2869(4)
C9_11 C 0.7361(5) 0.9026(5) 0.3146(4)
H5_11 H 0.7413 0.8962 0.3379
C10_11 C 0.7077(3) 0.9245(4) 0.3077(3)
H6_11 H 0.6955 0.9346 0.3266
C11_11 C 0.6969(3) 0.9316(3) 0.2743(3)
C12_11 C 0.7156(4) 0.9161(4) 0.2472(4)
H7_11 H 0.7078 0.9200 0.2241
C13_11 C 0.7458(4) 0.8950(4) 0.2520(4)
H8_10 H 0.7575 0.8846 0.2329
C14_11 C 0.6676(2) 0.9554(2) 0.2662(3)
C15_11 C 0.9536(2) 0.6843(3) 0.3102(3)
C16_11 C 0.9357(2) 0.6506(2) 0.2992(3)
C17_11 C 0.9284(2) 0.6450(2) 0.2637(2)
H9_10 H 0.9356 0.6610 0.2464
C18_11 C 0.9095(3) 0.6140(2) 0.2548(3)
H10_10 H 0.9032 0.6107 0.2312
C19_11 C 0.9092(3) 0.5950(2) 0.3128(3)
H11_11 H 0.9036 0.5778 0.3295
C20_11 C 0.9265(2) 0.6260(2) 0.3241(2)
H12_11 H 0.9315 0.6296 0.3479
O10_11 O 0.91079(17) 0.98783(15) 0.67436(15)
O12_11 O 0.95882(17) 0.77936(17) 0.40315(18)
N4_11 N 0.9771(3) 0.8889(3) 0.5568(3)
N5_11 N 0.9521(3) 0.8814(4) 0.5364(3)
C21_11 C 0.9404(3) 0.9708(2) 0.6766(3)
C22_11 C 0.9497(3) 0.9485(3) 0.6456(3)
C23_11 C 0.9272(4) 0.9486(4) 0.6181(3)
H13_11 H 0.9068 0.9624 0.6186
C24_11 C 0.9354(4) 0.9273(5) 0.5882(4)
H14_11 H 0.9198 0.9266 0.5691
C25_11 C 0.9644(4) 0.9085(4) 0.5871(3)
C26_11 C 0.9897(4) 0.9105(4) 0.6171(4)
C27_11 C 0.9796(4) 0.9311(4) 0.6460(3)
H16_11 H 0.9943 0.9325 0.6657
C28_11 C 0.9631(4) 0.8598(5) 0.5072(4)
C29_11 C 0.9354(4) 0.8474(5) 0.4861(5)
H17_11 H 0.9121 0.8538 0.4913
C30_11 C 0.9423(3) 0.8255(4) 0.4577(3)
H18_11 H 0.9234 0.8154 0.4455
C31_11 C 0.9757(3) 0.8184(3) 0.4469(3)
C33_11 C 0.9980(4) 0.8550(4) 0.4958(4)
C34_11 C 0.9838(3) 0.7946(2) 0.4176(2)
Fe5_10 Fe 0.87000(3) 0.54103(3) 0.26296(3)
O19_7 O 0.84685(18) 0.97064(17) 0.70882(17)
C12_12 C 0.1661(4) 0.0344(4) 0.0028(4)
H7_12 H 0.1700 0.0422 0.0259
O6_8 O 0.22064(17) 0.09685(18) 0.95882(17)
C9_12 C 0.1526(5) 0.0139(5) 0.9354(4)
H5_12 H 0.1462 0.0087 0.9121
C10_12 C 0.1745(4) 0.0423(3) 0.9423(3)
H6_12 H 0.1846 0.0545 0.9234
C11_12 C 0.1816(3) 0.0531(3) 0.9757(3)
C13_12 C 0.1450(4) 0.0042(4) 0.9980(4)
C14_12 C 0.2054(2) 0.0824(2) 0.9838(3)
O4_12 O 0.01217(15) 0.82564(15) 0.91079(17)
N1_12 N 0.1111(3) 0.9432(3) 0.9771(3)
N2_12 N 0.1186(4) 0.9636(3) 0.9521(3)
C1_12 C 0.0292(2) 0.8234(3) 0.9404(3)
C2_12 C 0.0515(3) 0.8544(3) 0.9497(3)
C3_12 C 0.0514(4) 0.8819(3) 0.9272(4)
H1_12 H 0.0376 0.8814 0.9068
C4_12 C 0.0727(5) 0.9118(4) 0.9354(4)
H2_12 H 0.0734 0.9309 0.9198
C5_12 C 0.0915(4) 0.9129(3) 0.9644(4)
C6_12 C 0.0895(4) 0.8829(4) 0.9897(4)
C7_12 C 0.0689(4) 0.8540(3) 0.9796(4)
H4_12 H 0.0675 0.8343 0.9943
C8_12 C 0.1402(5) 0.9928(4) 0.9631(4)
O10_12 O 0.23783(15) 0.83921(17) 0.57564(15)
O12_12 O 0.02936(17) 0.79118(17) 0.84685(18)
O14_12 O 0.30901(14) 0.84388(17) 0.54941(15)
N4_12 N 0.1389(3) 0.7729(3) 0.6932(3)
N5_12 N 0.1314(4) 0.7979(3) 0.7136(3)
N6_12 N 0.41068(19) 0.77788(17) 0.59981(19)
C21_12 C 0.2208(2) 0.8096(3) 0.5734(3)
C22_12 C 0.1985(3) 0.8003(3) 0.6044(3)
C23_12 C 0.1986(4) 0.8228(4) 0.6319(3)
H13_12 H 0.2124 0.8432 0.6314
C24_12 C 0.1773(5) 0.8146(4) 0.6618(4)
H14_12 H 0.1766 0.8302 0.6809
C25_12 C 0.1585(4) 0.7856(4) 0.6629(3)
C26_12 C 0.1605(4) 0.7603(4) 0.6329(4)
H15_12 H 0.1485 0.7387 0.6333
C27_12 C 0.1811(4) 0.7704(4) 0.6040(3)
H16_12 H 0.1825 0.7557 0.5843
C28_12 C 0.1098(5) 0.7869(4) 0.7428(4)
C29_12 C 0.0974(5) 0.8146(4) 0.7639(5)
H17_12 H 0.1038 0.8379 0.7587
C30_12 C 0.0755(4) 0.8077(3) 0.7923(3)
H18_12 H 0.0654 0.8266 0.8045
C31_12 C 0.0684(3) 0.7743(3) 0.8031(3)
C32_12 C 0.0839(4) 0.7472(4) 0.7844(4)
H19_12 H 0.0800 0.7241 0.7922
C33_12 C 0.1050(4) 0.7520(4) 0.7542(4)
H20_12 H 0.1154 0.7329 0.7425
C34_12 C 0.0446(2) 0.7662(3) 0.8324(2)
C35_12 C 0.3157(3) 0.8102(3) 0.5464(2)
C36_12 C 0.3494(2) 0.7992(3) 0.5643(2)
C37_12 C 0.3550(2) 0.7637(2) 0.5716(2)
H21_11 H 0.3390 0.7464 0.5644
C38_12 C 0.3860(2) 0.7548(3) 0.5905(3)
H22_11 H 0.3893 0.7312 0.5968
C39_12 C 0.4050(2) 0.8128(3) 0.5908(3)
H23_12 H 0.4222 0.8295 0.5964
C40_12 C 0.3740(2) 0.8241(2) 0.5735(2)
H24_12 H 0.3704 0.8479 0.5685
Fe9_12 Fe 0.45897(3) 0.76296(3) 0.63000(3)
O19_8 O 0.22064(17) 0.90315(18) 0.54118(17)
N7_9 N 0.27788(17) 0.90019(19) 0.58932(19)
H9_11 H 0.9110 0.8144 0.0036
H10_11 H 0.8607 0.8468 0.0188
H26_7 H 0.986237 0.729336 0.020378
O8_12 O 0.94099(14) 0.79941(15) 0.90612(17)
N3_11 N 0.83932(19) 0.84981(19) 0.97212(17)
C15_12 C 0.9343(3) 0.7964(2) 0.9398(3)
C16_12 C 0.9006(2) 0.8143(2) 0.9508(3)
C17_12 C 0.8950(2) 0.8216(2) 0.9863(2)
C18_12 C 0.8640(2) 0.8405(3) 0.9952(3)
C19_12 C 0.8450(2) 0.8408(3) 0.9372(3)
H11_12 H 0.8278 0.8464 0.9205
C20_12 C 0.8760(2) 0.8235(2) 0.9259(2)
H12_12 H 0.8796 0.8185 0.9021
Fe5_11 Fe 0.79103(3) 0.88000(3) 0.98704(3)
O2_15 O -0.0000 0.2500 0.2616(2)
O2_16 O 1.0000 0.2500 0.2616(2)
H25_7 H 0.998413 0.274777 0.270378
H26_8 H 0.979336 0.236237 0.270378
O2_17 O 0.5000 0.7500 0.9884(2)
H25_8 H 0.00158669 0.225223 0.270378
H26_9 H 0.0206643 0.263763 0.270378
Fe1_17 Fe 0.29283(5) -0.0000 0.7500
O1_17 O 0.34583(19) -0.0000 0.7500
O2_18 O 0.2384(2) -0.0000 0.7500
O3_11 O 0.29162(16) 0.04590(17) 0.71943(16)
O4_13 O 0.33921(17) 0.07564(15) 0.73783(15)
O5_5 O 0.23354(16) 0.34136(15) 0.54117(16)
O6_9 O 0.29118(17) 0.34685(18) 0.52936(17)
O7_11 O 0.28813(16) 0.03047(18) 0.79668(16)
O8_13 O 0.34388(17) 0.04941(15) 0.80901(14)
N1_13 N 0.2729(3) 0.1932(3) 0.6389(3)
N2_13 N 0.2979(3) 0.2136(3) 0.6314(4)
N3_12 N 0.27788(17) 0.09981(19) 0.91068(19)
C1_13 C 0.3096(3) 0.0734(3) 0.7208(2)
C2_13 C 0.3003(3) 0.1044(3) 0.6985(3)
C3_13 C 0.3228(4) 0.1319(3) 0.6986(4)
H1_13 H 0.3432 0.1314 0.7124
C4_13 C 0.3146(4) 0.1618(4) 0.6773(5)
H2_13 H 0.3302 0.1809 0.6766
C5_13 C 0.2856(4) 0.1629(3) 0.6585(4)
C6_13 C 0.2603(4) 0.1329(4) 0.6605(4)
H3_11 H 0.2387 0.1333 0.6485
C7_13 C 0.2704(4) 0.1040(3) 0.6811(4)
H4_13 H 0.2557 0.0843 0.6825
C8_13 C 0.2869(4) 0.2428(4) 0.6098(5)
C9_13 C 0.3146(4) 0.2639(5) 0.5974(5)
H5_13 H 0.3379 0.2587 0.6038
C10_13 C 0.3077(3) 0.2923(3) 0.5755(4)
H6_13 H 0.3266 0.3045 0.5654
C11_13 C 0.2743(3) 0.3031(3) 0.5684(3)
C12_13 C 0.2472(4) 0.2844(4) 0.5839(4)
H7_13 H 0.2241 0.2922 0.5800
C13_13 C 0.2520(4) 0.2542(4) 0.6050(4)
H8_11 H 0.2329 0.2425 0.6154
C14_13 C 0.2662(3) 0.3324(2) 0.5446(2)
C15_13 C 0.3102(3) 0.0464(2) 0.8157(3)
C16_13 C 0.2992(3) 0.0643(2) 0.8494(2)
C17_13 C 0.2637(2) 0.0716(2) 0.8550(2)
H9_12 H 0.2464 0.0644 0.8390
C18_13 C 0.2548(3) 0.0905(3) 0.8860(2)
H10_12 H 0.2312 0.0968 0.8893
C19_13 C 0.3128(3) 0.0908(3) 0.9050(2)
H11_13 H 0.3295 0.0964 0.9222
C20_13 C 0.3241(2) 0.0735(2) 0.8740(2)
H12_13 H 0.3479 0.0685 0.8704
O9_9 O 0.70410(17) 0.04162(16) 0.53057(16)
O10_13 O 0.67436(15) 0.08921(17) 0.51217(15)
O12_13 O 0.40315(18) 0.04118(17) 0.72064(17)
O13_9 O 0.71953(18) 0.03813(16) 0.45332(16)
O14_13 O 0.70059(15) 0.09388(17) 0.44099(14)
N4_13 N 0.5568(3) 0.0229(3) 0.6111(3)
N5_13 N 0.5364(3) 0.0479(3) 0.6186(4)
N6_13 N 0.65019(19) 0.02788(17) 0.33932(19)
C21_13 C 0.6766(3) 0.0596(3) 0.5292(2)
C22_13 C 0.6456(3) 0.0503(3) 0.5515(3)
C23_13 C 0.6181(3) 0.0728(4) 0.5514(4)
H13_13 H 0.6186 0.0932 0.5376
C24_13 C 0.5882(4) 0.0646(4) 0.5727(5)
H14_13 H 0.5691 0.0802 0.5734
C25_13 C 0.5871(3) 0.0356(4) 0.5915(4)
C26_13 C 0.6171(4) 0.0103(4) 0.5895(4)
C27_13 C 0.6460(3) 0.0204(4) 0.5689(4)
H16_13 H 0.6657 0.0057 0.5675
C28_13 C 0.5072(4) 0.0369(4) 0.6402(5)
C29_13 C 0.4861(5) 0.0646(4) 0.6526(5)
H17_13 H 0.4913 0.0879 0.6462
C30_13 C 0.4577(3) 0.0577(3) 0.6745(4)
H18_13 H 0.4455 0.0766 0.6846
C31_13 C 0.4469(3) 0.0243(3) 0.6816(3)
C33_13 C 0.4958(4) 0.0020(4) 0.6450(4)
C34_13 C 0.4176(2) 0.0162(3) 0.7054(2)
C35_13 C 0.7036(2) 0.0602(3) 0.4343(3)
C36_13 C 0.6857(2) 0.0492(3) 0.4006(2)
C37_13 C 0.6784(2) 0.0137(2) 0.3950(2)
C38_13 C 0.6595(3) 0.0048(3) 0.3640(2)
C39_13 C 0.6592(3) 0.0628(3) 0.3450(2)
H23_13 H 0.6536 0.0795 0.3278
C40_13 C 0.6765(2) 0.0741(2) 0.3760(2)
H24_13 H 0.6815 0.0979 0.3796
Fe4_6 Fe 0.7500 0.04283(5) 0.5000
Fe7_3 Fe 0.20897(3) 0.38000(3) 0.51296(3)
O15_6 O 0.7500 0.09583(19) 0.5000
O17_5 O 0.73354(16) 0.15864(15) 0.45883(16)
O18_11 O 0.40864(15) 0.01646(16) 0.79117(16)
O19_9 O 0.70882(17) 0.15315(18) 0.52936(17)
Fe1_18 Fe 0.29283(5) 1.0000 0.7500
O1_18 O 0.34583(19) 1.0000 0.7500
O2_19 O 0.2384(2) 1.0000 0.7500
O11_11 O 0.40864(15) 0.98354(16) 0.70883(16)
H15_13 H 0.6167 0.9887 0.6015
C32_13 C 0.4656(4) 0.9972(4) 0.6661(4)
H19_13 H 0.4578 0.9741 0.6700
H20_13 H 0.5075 0.9829 0.6346
H21_12 H 0.6856 0.9964 0.4110
H22_12 H 0.6532 0.9812 0.3607
Fe6_9 Fe 0.37000(3) 0.95897(3) 0.73704(3)
O16_11 O 0.29162(16) 0.95410(17) 0.78057(16)
O20_11 O 0.28813(16) 0.96953(18) 0.70332(16)
H25_9 H 0.229622 0.998413 0.725223
H26_10 H 0.229622 0.979336 0.763763
O6_10 O 0.09685(18) 0.04118(17) 0.27936(17)
C9_14 C 0.0139(5) 0.0646(4) 0.3474(5)
H5_14 H 0.0087 0.0879 0.3538
C10_14 C 0.0423(3) 0.0577(3) 0.3255(4)
H6_14 H 0.0545 0.0766 0.3154
C11_14 C 0.0531(3) 0.0243(3) 0.3184(3)
C13_14 C 0.0042(4) 0.0020(4) 0.3550(4)
C14_14 C 0.0824(2) 0.0162(3) 0.2946(2)
O5_6 O 0.09136(15) 0.98354(16) 0.29117(16)
C12_14 C 0.0344(4) 0.9972(4) 0.3339(4)
H7_14 H 0.0422 0.9741 0.3300
Fe2_9 Fe 0.79103(3) 0.12000(3) 0.51296(3)
O3_12 O 0.79590(17) 0.04162(16) 0.46943(16)
O4_14 O 0.82564(15) 0.08921(17) 0.48783(15)
O7_12 O 0.78047(18) 0.03813(16) 0.54668(16)
O8_14 O 0.79941(15) 0.09388(17) 0.55901(14)
N1_14 N 0.9432(3) 0.0229(3) 0.3889(3)
N2_14 N 0.9636(3) 0.0479(3) 0.3814(4)
C1_14 C 0.8234(3) 0.0596(3) 0.4708(2)
C2_14 C 0.8544(3) 0.0503(3) 0.4485(3)
C3_14 C 0.8819(3) 0.0728(4) 0.4486(4)
H1_14 H 0.8814 0.0932 0.4624
C4_14 C 0.9118(4) 0.0646(4) 0.4273(5)
H2_14 H 0.9309 0.0802 0.4266
C5_14 C 0.9129(3) 0.0356(4) 0.4085(4)
C6_14 C 0.8829(4) 0.0103(4) 0.4105(4)
C7_14 C 0.8540(3) 0.0204(4) 0.4311(4)
H4_14 H 0.8343 0.0057 0.4325
C8_14 C 0.9928(4) 0.0369(4) 0.3598(5)
C15_14 C 0.7964(2) 0.0602(3) 0.5657(3)
C16_14 C 0.8143(2) 0.0492(3) 0.5994(2)
C17_14 C 0.8216(2) 0.0137(2) 0.6050(2)
C18_14 C 0.8405(3) 0.0048(3) 0.6360(2)
C19_14 C 0.8408(3) 0.0628(3) 0.6550(2)
H11_14 H 0.8464 0.0795 0.6722
C20_14 C 0.8235(2) 0.0741(2) 0.6240(2)
H12_14 H 0.8185 0.0979 0.6204
O9_10 O 0.79162(16) 0.45410(17) 0.28057(16)
O10_14 O 0.83921(17) 0.42436(15) 0.26217(15)
O12_14 O 0.79118(17) 0.15315(18) 0.47064(17)
O13_10 O 0.78813(16) 0.46953(18) 0.20332(16)
O14_14 O 0.84388(17) 0.45059(15) 0.19099(14)
N4_14 N 0.7729(3) 0.3068(3) 0.3611(3)
N5_14 N 0.7979(3) 0.2864(3) 0.3686(4)
C21_14 C 0.8096(3) 0.4266(3) 0.2792(2)
C22_14 C 0.8003(3) 0.3956(3) 0.3015(3)
C23_14 C 0.8228(4) 0.3681(3) 0.3014(4)
H13_14 H 0.8432 0.3686 0.2876
C24_14 C 0.8146(4) 0.3382(4) 0.3227(5)
H14_14 H 0.8302 0.3191 0.3234
C25_14 C 0.7856(4) 0.3371(3) 0.3415(4)
C26_14 C 0.7603(4) 0.3671(4) 0.3395(4)
H15_14 H 0.7387 0.3667 0.3515
C27_14 C 0.7704(4) 0.3960(3) 0.3189(4)
H16_14 H 0.7557 0.4157 0.3175
C28_14 C 0.7869(4) 0.2572(4) 0.3902(5)
C29_14 C 0.8146(4) 0.2361(5) 0.4026(5)
H17_14 H 0.8379 0.2413 0.3962
C30_14 C 0.8077(3) 0.2077(3) 0.4245(4)
H18_14 H 0.8266 0.1955 0.4346
C31_14 C 0.7743(3) 0.1969(3) 0.4316(3)
C32_14 C 0.7472(4) 0.2156(4) 0.4161(4)
H19_14 H 0.7241 0.2078 0.4200
C33_14 C 0.7520(4) 0.2458(4) 0.3950(4)
H20_14 H 0.7329 0.2575 0.3846
C34_14 C 0.7662(3) 0.1676(2) 0.4554(2)
C35_14 C 0.8102(3) 0.4536(2) 0.1843(3)
C36_14 C 0.7992(3) 0.4357(2) 0.1506(2)
C37_14 C 0.7637(2) 0.4284(2) 0.1450(2)
H21_13 H 0.7464 0.4356 0.1610
C38_14 C 0.7548(3) 0.4095(3) 0.1140(2)
H22_13 H 0.7312 0.4032 0.1107
C39_14 C 0.8128(3) 0.4092(3) 0.0950(2)
H23_14 H 0.8295 0.4036 0.0778
C40_14 C 0.8241(2) 0.4265(2) 0.1260(2)
H24_14 H 0.8479 0.4315 0.1296
Fe4_7 Fe 0.79283(5) 0.5000 0.2500
O15_7 O 0.84583(19) 0.5000 0.2500
O17_6 O 0.90864(15) 0.48354(16) 0.20883(16)
O18_12 O 0.76646(16) 0.15864(15) 0.54117(16)
O19_10 O 0.90315(18) 0.45882(17) 0.27936(17)
N8_9 N 0.83932(19) 0.15019(19) 0.52788(17)
O2_20 O 0.7500 0.9884(2) 0.5000
H3_12 H 0.8833 0.9887 0.3985
H8_12 H 0.9925 0.9829 0.3654
H9_13 H 0.8144 0.9964 0.5890
H10_13 H 0.8468 0.9812 0.6393
O5_7 O 0.09136(15) 0.01646(16) 0.20883(16)
C12_15 C 0.0344(4) 0.0028(4) 0.1661(4)
H7_15 H 0.0422 0.0259 0.1700
O6_11 O 0.09685(18) 0.95882(17) 0.22064(17)
C9_15 C 0.0139(5) 0.9354(4) 0.1526(5)
H5_15 H 0.0087 0.9121 0.1462
C10_15 C 0.0423(3) 0.9423(3) 0.1745(4)
H6_15 H 0.0545 0.9234 0.1846
C11_15 C 0.0531(3) 0.9757(3) 0.1816(3)
C13_15 C 0.0042(4) 0.9980(4) 0.1450(4)
C14_15 C 0.0824(2) 0.9838(3) 0.2054(2)
O2_21 O 0.7500 0.0116(2) 1.0000
H9_14 H 0.8144 0.0036 0.9110
H10_14 H 0.8468 0.0188 0.8607
H26_11 H 0.729336 0.020378 0.986237
Fe1_19 Fe 0.7500 0.95717(5) 0.0000
O1_19 O 0.7500 0.90417(19) 0.0000
O3_13 O 0.79590(17) 0.95838(16) 0.03057(16)
O4_15 O 0.82564(15) 0.91079(17) 0.01217(15)
N1_15 N 0.9432(3) 0.9771(3) 0.1111(3)
N2_15 N 0.9636(3) 0.9521(3) 0.1186(4)
C1_15 C 0.8234(3) 0.9404(3) 0.0292(2)
C2_15 C 0.8544(3) 0.9497(3) 0.0515(3)
C3_15 C 0.8819(3) 0.9272(4) 0.0514(4)
H1_15 H 0.8814 0.9068 0.0376
C4_15 C 0.9118(4) 0.9354(4) 0.0727(5)
H2_15 H 0.9309 0.9198 0.0734
C5_15 C 0.9129(3) 0.9644(4) 0.0915(4)
C6_15 C 0.8829(4) 0.9897(4) 0.0895(4)
C7_15 C 0.8540(3) 0.9796(4) 0.0689(4)
H4_15 H 0.8343 0.9943 0.0675
C8_15 C 0.9928(4) 0.9631(4) 0.1402(5)
O9_11 O 0.79162(16) 0.54590(17) 0.21943(16)
O10_15 O 0.83921(17) 0.57564(15) 0.23783(15)
O11_12 O 0.73354(16) 0.84136(15) 0.04117(16)
O12_15 O 0.79118(17) 0.84685(18) 0.02936(17)
O13_11 O 0.78813(16) 0.53047(18) 0.29668(16)
O14_15 O 0.84388(17) 0.54941(15) 0.30901(14)
N4_15 N 0.7729(3) 0.6932(3) 0.1389(3)
N5_15 N 0.7979(3) 0.7136(3) 0.1314(4)
C21_15 C 0.8096(3) 0.5734(3) 0.2208(2)
C22_15 C 0.8003(3) 0.6044(3) 0.1985(3)
C23_15 C 0.8228(4) 0.6319(3) 0.1986(4)
H13_15 H 0.8432 0.6314 0.2124
C24_15 C 0.8146(4) 0.6618(4) 0.1773(5)
H14_15 H 0.8302 0.6809 0.1766
C25_15 C 0.7856(4) 0.6629(3) 0.1585(4)
C26_15 C 0.7603(4) 0.6329(4) 0.1605(4)
H15_15 H 0.7387 0.6333 0.1485
C27_15 C 0.7704(4) 0.6040(3) 0.1811(4)
H16_15 H 0.7557 0.5843 0.1825
C28_15 C 0.7869(4) 0.7428(4) 0.1098(5)
C29_15 C 0.8146(4) 0.7639(5) 0.0974(5)
H17_15 H 0.8379 0.7587 0.1038
C30_15 C 0.8077(3) 0.7923(3) 0.0755(4)
H18_15 H 0.8266 0.8045 0.0654
C31_15 C 0.7743(3) 0.8031(3) 0.0684(3)
C32_15 C 0.7472(4) 0.7844(4) 0.0839(4)
H19_15 H 0.7241 0.7922 0.0800
C33_15 C 0.7520(4) 0.7542(4) 0.1050(4)
H20_15 H 0.7329 0.7425 0.1154
C34_15 C 0.7662(3) 0.8324(2) 0.0446(2)
C35_15 C 0.8102(3) 0.5464(2) 0.3157(3)
C36_15 C 0.7992(3) 0.5643(2) 0.3494(2)
C37_15 C 0.7637(2) 0.5716(2) 0.3550(2)
H21_14 H 0.7464 0.5644 0.3390
C38_15 C 0.7548(3) 0.5905(3) 0.3860(2)
H22_14 H 0.7312 0.5968 0.3893
C39_15 C 0.8128(3) 0.5908(3) 0.4050(2)
H23_15 H 0.8295 0.5964 0.4222
C40_15 C 0.8241(2) 0.5735(2) 0.3740(2)
H24_15 H 0.8479 0.5685 0.3704
O17_7 O 0.90864(15) 0.51646(16) 0.29117(16)
O19_11 O 0.90315(18) 0.54118(17) 0.22064(17)
O20_12 O 0.71953(18) 0.96187(16) 0.04668(16)
Fe1_20 Fe 0.7500 0.95717(5) 1.0000
O1_20 O 0.7500 0.90417(19) 1.0000
O7_13 O 0.78047(18) 0.96187(16) 0.95332(16)
O8_15 O 0.79941(15) 0.90612(17) 0.94099(14)
C15_15 C 0.7964(2) 0.9398(3) 0.9343(3)
C16_15 C 0.8143(2) 0.9508(3) 0.9006(2)
C17_15 C 0.8216(2) 0.9863(2) 0.8950(2)
C18_15 C 0.8405(3) 0.9952(3) 0.8640(2)
C19_15 C 0.8408(3) 0.9372(3) 0.8450(2)
H11_15 H 0.8464 0.9205 0.8278
C20_15 C 0.8235(2) 0.9259(2) 0.8760(2)
H12_15 H 0.8185 0.9021 0.8796
O16_12 O 0.70410(17) 0.95838(16) 0.96943(16)
O18_13 O 0.76646(16) 0.84136(15) 0.95883(16)
Fe1_21 Fe 0.2500 0.45717(5) 0.5000
O1_21 O 0.2500 0.40417(19) 0.5000
O2_22 O 0.2500 0.5116(2) 0.5000
O3_14 O 0.20410(17) 0.45838(16) 0.46943(16)
O4_16 O 0.17436(15) 0.41079(17) 0.48783(15)
O7_14 O 0.21953(18) 0.46187(16) 0.54668(16)
O8_16 O 0.20059(15) 0.40612(17) 0.55901(14)
N1_16 N 0.0568(3) 0.4771(3) 0.3889(3)
N2_16 N 0.0364(3) 0.4521(3) 0.3814(4)
C1_16 C 0.1766(3) 0.4404(3) 0.4708(2)
C2_16 C 0.1456(3) 0.4497(3) 0.4485(3)
C3_16 C 0.1181(3) 0.4272(4) 0.4486(4)
H1_16 H 0.1186 0.4068 0.4624
C4_16 C 0.0882(4) 0.4354(4) 0.4273(5)
H2_16 H 0.0691 0.4198 0.4266
C5_16 C 0.0871(3) 0.4644(4) 0.4085(4)
C6_16 C 0.1171(4) 0.4897(4) 0.4105(4)
H3_13 H 0.1167 0.5113 0.3985
C7_16 C 0.1460(3) 0.4796(4) 0.4311(4)
H4_16 H 0.1657 0.4943 0.4325
C8_16 C 0.0072(4) 0.4631(4) 0.3598(5)
H8_13 H 0.0075 0.5171 0.3654
C15_16 C 0.2036(2) 0.4398(3) 0.5657(3)
C16_16 C 0.1857(2) 0.4508(3) 0.5994(2)
C17_16 C 0.1784(2) 0.4863(2) 0.6050(2)
H9_15 H 0.1856 0.5036 0.5890
C18_16 C 0.1595(3) 0.4952(3) 0.6360(2)
H10_15 H 0.1532 0.5188 0.6393
C19_16 C 0.1592(3) 0.4372(3) 0.6550(2)
H11_16 H 0.1536 0.4205 0.6722
C20_16 C 0.1765(2) 0.4259(2) 0.6240(2)
H12_16 H 0.1815 0.4021 0.6204
O9_12 O 0.20838(16) 0.04590(17) 0.28057(16)
O10_16 O 0.16079(17) 0.07564(15) 0.26217(15)
O11_13 O 0.26646(16) 0.34136(15) 0.45883(16)
O12_16 O 0.20882(17) 0.34685(18) 0.47064(17)
O13_12 O 0.21187(16) 0.03047(18) 0.20332(16)
O14_16 O 0.15612(17) 0.04941(15) 0.19099(14)
N4_16 N 0.2271(3) 0.1932(3) 0.3611(3)
N5_16 N 0.2021(3) 0.2136(3) 0.3686(4)
C21_16 C 0.1904(3) 0.0734(3) 0.2792(2)
C22_16 C 0.1997(3) 0.1044(3) 0.3015(3)
C23_16 C 0.1772(4) 0.1319(3) 0.3014(4)
H13_16 H 0.1568 0.1314 0.2876
C24_16 C 0.1854(4) 0.1618(4) 0.3227(5)
H14_16 H 0.1698 0.1809 0.3234
C25_16 C 0.2144(4) 0.1629(3) 0.3415(4)
C26_16 C 0.2397(4) 0.1329(4) 0.3395(4)
H15_16 H 0.2613 0.1333 0.3515
C27_16 C 0.2296(4) 0.1040(3) 0.3189(4)
H16_16 H 0.2443 0.0843 0.3175
C28_16 C 0.2131(4) 0.2428(4) 0.3902(5)
C29_16 C 0.1854(4) 0.2639(5) 0.4026(5)
H17_16 H 0.1621 0.2587 0.3962
C30_16 C 0.1923(3) 0.2923(3) 0.4245(4)
H18_16 H 0.1734 0.3045 0.4346
C31_16 C 0.2257(3) 0.3031(3) 0.4316(3)
C32_16 C 0.2528(4) 0.2844(4) 0.4161(4)
H19_16 H 0.2759 0.2922 0.4200
C33_16 C 0.2480(4) 0.2542(4) 0.3950(4)
H20_16 H 0.2671 0.2425 0.3846
C34_16 C 0.2338(3) 0.3324(2) 0.4554(2)
C35_16 C 0.1898(3) 0.0464(2) 0.1843(3)
C36_16 C 0.2008(3) 0.0643(2) 0.1506(2)
C37_16 C 0.2363(2) 0.0716(2) 0.1450(2)
H21_15 H 0.2536 0.0644 0.1610
C38_16 C 0.2452(3) 0.0905(3) 0.1140(2)
H22_15 H 0.2688 0.0968 0.1107
C39_16 C 0.1872(3) 0.0908(3) 0.0950(2)
H23_16 H 0.1705 0.0964 0.0778
C40_16 C 0.1759(2) 0.0735(2) 0.1260(2)
H24_16 H 0.1521 0.0685 0.1296
Fe4_8 Fe 0.20717(5) -0.0000 0.2500
O15_8 O 0.15417(19) -0.0000 0.2500
O16_13 O 0.29590(17) 0.45838(16) 0.53057(16)
O20_13 O 0.28047(18) 0.46187(16) 0.45332(16)
N8_10 N 0.16068(19) 0.34981(19) 0.52788(17)
Fe4_9 Fe 0.20717(5) 1.0000 0.2500
O15_9 O 0.15417(19) 1.0000 0.2500
C9_16 C 0.9861(5) 0.4354(4) 0.3474(5)
H5_16 H 0.9913 0.4121 0.3538
C10_16 C 0.9577(3) 0.4423(3) 0.3255(4)
H6_16 H 0.9455 0.4234 0.3154
C11_16 C 0.9469(3) 0.4757(3) 0.3184(3)
C12_16 C 0.9656(4) 0.5028(4) 0.3339(4)
H7_16 H 0.9578 0.5259 0.3300
C13_16 C 0.9958(4) 0.4980(4) 0.3550(4)
C14_16 C 0.9176(2) 0.4838(3) 0.2946(2)
Fe1_22 Fe 0.2500 0.54283(5) 0.0000
O1_22 O 0.2500 0.59583(19) 0.0000
O2_23 O 0.2500 0.4884(2) 0.0000
O3_15 O 0.20410(17) 0.54162(16) 0.03057(16)
O4_17 O 0.17436(15) 0.58921(17) 0.01217(15)
N1_17 N 0.0568(3) 0.5229(3) 0.1111(3)
N2_17 N 0.0364(3) 0.5479(3) 0.1186(4)
C1_17 C 0.1766(3) 0.5596(3) 0.0292(2)
C2_17 C 0.1456(3) 0.5503(3) 0.0515(3)
C3_17 C 0.1181(3) 0.5728(4) 0.0514(4)
H1_17 H 0.1186 0.5932 0.0376
C4_17 C 0.0882(4) 0.5646(4) 0.0727(5)
H2_17 H 0.0691 0.5802 0.0734
C5_17 C 0.0871(3) 0.5356(4) 0.0915(4)
C6_17 C 0.1171(4) 0.5103(4) 0.0895(4)
H3_14 H 0.1167 0.4887 0.1015
C7_17 C 0.1460(3) 0.5204(4) 0.0689(4)
H4_17 H 0.1657 0.5057 0.0675
C8_17 C 0.0072(4) 0.5369(4) 0.1402(5)
H8_14 H 0.0075 0.4829 0.1346
O9_13 O 0.20838(16) 0.95410(17) 0.21943(16)
O10_17 O 0.16079(17) 0.92436(15) 0.23783(15)
O11_14 O 0.26646(16) 0.65864(15) 0.04117(16)
O12_17 O 0.20882(17) 0.65315(18) 0.02936(17)
O13_13 O 0.21187(16) 0.96953(18) 0.29668(16)
O14_17 O 0.15612(17) 0.95059(15) 0.30901(14)
N4_17 N 0.2271(3) 0.8068(3) 0.1389(3)
N5_17 N 0.2021(3) 0.7864(3) 0.1314(4)
C21_17 C 0.1904(3) 0.9266(3) 0.2208(2)
C22_17 C 0.1997(3) 0.8956(3) 0.1985(3)
C23_17 C 0.1772(4) 0.8681(3) 0.1986(4)
H13_17 H 0.1568 0.8686 0.2124
C24_17 C 0.1854(4) 0.8382(4) 0.1773(5)
H14_17 H 0.1698 0.8191 0.1766
C25_17 C 0.2144(4) 0.8371(3) 0.1585(4)
C26_17 C 0.2397(4) 0.8671(4) 0.1605(4)
H15_17 H 0.2613 0.8667 0.1485
C27_17 C 0.2296(4) 0.8960(3) 0.1811(4)
H16_17 H 0.2443 0.9157 0.1825
C28_17 C 0.2131(4) 0.7572(4) 0.1098(5)
C29_17 C 0.1854(4) 0.7361(5) 0.0974(5)
H17_17 H 0.1621 0.7413 0.1038
C30_17 C 0.1923(3) 0.7077(3) 0.0755(4)
H18_17 H 0.1734 0.6955 0.0654
C31_17 C 0.2257(3) 0.6969(3) 0.0684(3)
C32_17 C 0.2528(4) 0.7156(4) 0.0839(4)
H19_17 H 0.2759 0.7078 0.0800
C33_17 C 0.2480(4) 0.7458(4) 0.1050(4)
H20_17 H 0.2671 0.7575 0.1154
C34_17 C 0.2338(3) 0.6676(2) 0.0446(2)
C35_17 C 0.1898(3) 0.9536(2) 0.3157(3)
C36_17 C 0.2008(3) 0.9357(2) 0.3494(2)
C37_17 C 0.2363(2) 0.9284(2) 0.3550(2)
H21_16 H 0.2536 0.9356 0.3390
C38_17 C 0.2452(3) 0.9095(3) 0.3860(2)
H22_16 H 0.2688 0.9032 0.3893
C39_17 C 0.1872(3) 0.9092(3) 0.4050(2)
H23_17 H 0.1705 0.9036 0.4222
C40_17 C 0.1759(2) 0.9265(2) 0.3740(2)
H24_17 H 0.1521 0.9315 0.3704
O20_14 O 0.28047(18) 0.53813(16) 0.04668(16)
H25_10 H 0.251587 0.479622 0.0247771
Fe1_23 Fe 0.2500 0.54283(5) 1.0000
O1_23 O 0.2500 0.59583(19) 1.0000
O2_24 O 0.2500 0.4884(2) 1.0000
O7_15 O 0.21953(18) 0.53813(16) 0.95332(16)
O8_17 O 0.20059(15) 0.59388(17) 0.94099(14)
C15_17 C 0.2036(2) 0.5602(3) 0.9343(3)
C16_17 C 0.1857(2) 0.5492(3) 0.9006(2)
C17_17 C 0.1784(2) 0.5137(2) 0.8950(2)
H9_16 H 0.1856 0.4964 0.9110
C18_17 C 0.1595(3) 0.5048(3) 0.8640(2)
H10_16 H 0.1532 0.4812 0.8607
C19_17 C 0.1592(3) 0.5628(3) 0.8450(2)
H11_17 H 0.1536 0.5795 0.8278
C20_17 C 0.1765(2) 0.5741(2) 0.8760(2)
H12_17 H 0.1815 0.5979 0.8796
O16_14 O 0.29590(17) 0.54162(16) 0.96943(16)
O18_14 O 0.23354(16) 0.65864(15) 0.95883(16)
H26_12 H 0.270664 0.479622 0.986237
C9_17 C 0.9861(5) 0.5646(4) 0.1526(5)
H5_17 H 0.9913 0.5879 0.1462
C10_17 C 0.9577(3) 0.5577(3) 0.1745(4)
H6_17 H 0.9455 0.5766 0.1846
C11_17 C 0.9469(3) 0.5243(3) 0.1816(3)
C12_17 C 0.9656(4) 0.4972(4) 0.1661(4)
H7_17 H 0.9578 0.4741 0.1700
C13_17 C 0.9958(4) 0.5020(4) 0.1450(4)
C14_17 C 0.9176(2) 0.5162(3) 0.2054(2)
H15_18 H 0.6167 0.0113 0.8985
C32_18 C 0.4656(4) 0.0028(4) 0.8339(4)
H19_18 H 0.4578 0.0259 0.8300
H20_18 H 0.5075 0.0171 0.8654
H25_11 H 0.229622 0.00158669 0.774777
H26_13 H 0.229622 0.0206643 0.736237
O14_18 O 0.70059(15) 0.90612(17) 0.05901(14)
C35_18 C 0.7036(2) 0.9398(3) 0.0657(3)
C36_18 C 0.6857(2) 0.9508(3) 0.0994(2)
C37_18 C 0.6784(2) 0.9863(2) 0.1050(2)
C38_18 C 0.6595(3) 0.9952(3) 0.1360(2)
C39_18 C 0.6592(3) 0.9372(3) 0.1550(2)
H23_18 H 0.6536 0.9205 0.1722
C40_18 C 0.6765(2) 0.9259(2) 0.1240(2)
H24_18 H 0.6815 0.9021 0.1204
O4_18 O 0.33921(17) 0.92436(15) 0.76217(15)
O6_12 O 0.29118(17) 0.65315(18) 0.97064(17)
O8_18 O 0.34388(17) 0.95059(15) 0.69099(14)
N1_18 N 0.2729(3) 0.8068(3) 0.8611(3)
N2_18 N 0.2979(3) 0.7864(3) 0.8686(4)
C1_18 C 0.3096(3) 0.9266(3) 0.7792(2)
C2_18 C 0.3003(3) 0.8956(3) 0.8015(3)
C3_18 C 0.3228(4) 0.8681(3) 0.8014(4)
H1_18 H 0.3432 0.8686 0.7876
C4_18 C 0.3146(4) 0.8382(4) 0.8227(5)
H2_18 H 0.3302 0.8191 0.8234
C5_18 C 0.2856(4) 0.8371(3) 0.8415(4)
C6_18 C 0.2603(4) 0.8671(4) 0.8395(4)
H3_15 H 0.2387 0.8667 0.8515
C7_18 C 0.2704(4) 0.8960(3) 0.8189(4)
H4_18 H 0.2557 0.9157 0.8175
C8_18 C 0.2869(4) 0.7572(4) 0.8902(5)
C9_18 C 0.3146(4) 0.7361(5) 0.9026(5)
H5_18 H 0.3379 0.7413 0.8962
C10_18 C 0.3077(3) 0.7077(3) 0.9245(4)
H6_18 H 0.3266 0.6955 0.9346
C11_18 C 0.2743(3) 0.6969(3) 0.9316(3)
C12_18 C 0.2472(4) 0.7156(4) 0.9161(4)
H7_18 H 0.2241 0.7078 0.9200
C13_18 C 0.2520(4) 0.7458(4) 0.8950(4)
H8_15 H 0.2329 0.7575 0.8846
C14_18 C 0.2662(3) 0.6676(2) 0.9554(2)
C15_18 C 0.3102(3) 0.9536(2) 0.6843(3)
C16_18 C 0.2992(3) 0.9357(2) 0.6506(2)
C17_18 C 0.2637(2) 0.9284(2) 0.6450(2)
H9_17 H 0.2464 0.9356 0.6610
C18_18 C 0.2548(3) 0.9095(3) 0.6140(2)
H10_17 H 0.2312 0.9032 0.6107
C19_18 C 0.3128(3) 0.9092(3) 0.5950(2)
H11_18 H 0.3295 0.9036 0.5778
C20_18 C 0.3241(2) 0.9265(2) 0.6260(2)
H12_18 H 0.3479 0.9315 0.6296
O10_18 O 0.67436(15) 0.91079(17) 0.98783(15)
O12_18 O 0.40315(18) 0.95882(17) 0.77936(17)
N4_18 N 0.5568(3) 0.9771(3) 0.8889(3)
N5_18 N 0.5364(3) 0.9521(3) 0.8814(4)
C21_18 C 0.6766(3) 0.9404(3) 0.9708(2)
C22_18 C 0.6456(3) 0.9497(3) 0.9485(3)
C23_18 C 0.6181(3) 0.9272(4) 0.9486(4)
H13_18 H 0.6186 0.9068 0.9624
C24_18 C 0.5882(4) 0.9354(4) 0.9273(5)
H14_18 H 0.5691 0.9198 0.9266
C25_18 C 0.5871(3) 0.9644(4) 0.9085(4)
C26_18 C 0.6171(4) 0.9897(4) 0.9105(4)
C27_18 C 0.6460(3) 0.9796(4) 0.9311(4)
H16_18 H 0.6657 0.9943 0.9325
C28_18 C 0.5072(4) 0.9631(4) 0.8598(5)
C29_18 C 0.4861(5) 0.9354(4) 0.8474(5)
H17_18 H 0.4913 0.9121 0.8538
C30_18 C 0.4577(3) 0.9423(3) 0.8255(4)
H18_18 H 0.4455 0.9234 0.8154
C31_18 C 0.4469(3) 0.9757(3) 0.8184(3)
C33_18 C 0.4958(4) 0.9980(4) 0.8550(4)
C34_18 C 0.4176(2) 0.9838(3) 0.7946(2)
O19_12 O 0.70882(17) 0.84685(18) 0.97064(17)
N8_11 N 0.40019(19) 0.91068(19) 0.72212(17)
O2_25 O 0.2616(2) -0.0000 0.2500
H25_12 H 0.270378 0.00158669 0.225223
H26_14 H 0.270378 0.0206643 0.263763
O2_26 O 0.2616(2) 1.0000 0.2500
O14_19 O 0.29941(15) 0.59388(17) 0.05901(14)
C35_19 C 0.2964(2) 0.5602(3) 0.0657(3)
C36_19 C 0.3143(2) 0.5492(3) 0.0994(2)
C37_19 C 0.3216(2) 0.5137(2) 0.1050(2)
H21_17 H 0.3144 0.4964 0.0890
C38_19 C 0.3405(3) 0.5048(3) 0.1360(2)
H22_17 H 0.3468 0.4812 0.1393
C39_19 C 0.3408(3) 0.5628(3) 0.1550(2)
H23_19 H 0.3464 0.5795 0.1722
C40_19 C 0.3235(2) 0.5741(2) 0.1240(2)
H24_19 H 0.3185 0.5979 0.1204
Fe1_24 Fe 0.70717(5) 0.5000 0.7500
Fe2_10 Fe 0.63000(3) 0.54103(3) 0.73704(3)
O1_24 O 0.65417(19) 0.5000 0.7500
O2_27 O 0.7616(2) 0.5000 0.7500
O3_16 O 0.70838(16) 0.54590(17) 0.78057(16)
O4_19 O 0.66079(17) 0.57564(15) 0.76217(15)
O7_16 O 0.71187(16) 0.53047(18) 0.70332(16)
O8_19 O 0.65612(17) 0.54941(15) 0.69099(14)
N1_19 N 0.7271(3) 0.6932(3) 0.8611(3)
N2_19 N 0.7021(3) 0.7136(3) 0.8686(4)
C1_19 C 0.6904(3) 0.5734(3) 0.7792(2)
C2_19 C 0.6997(3) 0.6044(3) 0.8015(3)
C3_19 C 0.6772(4) 0.6319(3) 0.8014(4)
H1_19 H 0.6568 0.6314 0.7876
C4_19 C 0.6854(4) 0.6618(4) 0.8227(5)
H2_19 H 0.6698 0.6809 0.8234
C5_19 C 0.7144(4) 0.6629(3) 0.8415(4)
C6_19 C 0.7397(4) 0.6329(4) 0.8395(4)
H3_16 H 0.7613 0.6333 0.8515
C7_19 C 0.7296(4) 0.6040(3) 0.8189(4)
H4_19 H 0.7443 0.5843 0.8175
C8_19 C 0.7131(4) 0.7428(4) 0.8902(5)
C9_19 C 0.6854(4) 0.7639(5) 0.9026(5)
H5_19 H 0.6621 0.7587 0.8962
C10_19 C 0.6923(3) 0.7923(3) 0.9245(4)
H6_19 H 0.6734 0.8045 0.9346
C11_19 C 0.7257(3) 0.8031(3) 0.9316(3)
C12_19 C 0.7528(4) 0.7844(4) 0.9161(4)
H7_19 H 0.7759 0.7922 0.9200
C13_19 C 0.7480(4) 0.7542(4) 0.8950(4)
H8_16 H 0.7671 0.7425 0.8846
C14_19 C 0.7338(3) 0.8324(2) 0.9554(2)
C15_19 C 0.6898(3) 0.5464(2) 0.6843(3)
C16_19 C 0.7008(3) 0.5643(2) 0.6506(2)
C17_19 C 0.7363(2) 0.5716(2) 0.6450(2)
H9_18 H 0.7536 0.5644 0.6610
C18_19 C 0.7452(3) 0.5905(3) 0.6140(2)
H10_18 H 0.7688 0.5968 0.6107
C19_19 C 0.6872(3) 0.5908(3) 0.5950(2)
H11_19 H 0.6705 0.5964 0.5778
C20_19 C 0.6759(2) 0.5735(2) 0.6260(2)
H12_19 H 0.6521 0.5685 0.6296
O10_19 O 0.32564(15) 0.58921(17) 0.98783(15)
O11_15 O 0.59136(15) 0.48354(16) 0.79117(16)
O12_19 O 0.59685(18) 0.54118(17) 0.77936(17)
N4_19 N 0.4432(3) 0.5229(3) 0.8889(3)
N5_19 N 0.4636(3) 0.5479(3) 0.8814(4)
C21_19 C 0.3234(3) 0.5596(3) 0.9708(2)
C22_19 C 0.3544(3) 0.5503(3) 0.9485(3)
C23_19 C 0.3819(3) 0.5728(4) 0.9486(4)
H13_19 H 0.3814 0.5932 0.9624
C24_19 C 0.4118(4) 0.5646(4) 0.9273(5)
H14_19 H 0.4309 0.5802 0.9266
C25_19 C 0.4129(3) 0.5356(4) 0.9085(4)
C26_19 C 0.3829(4) 0.5103(4) 0.9105(4)
H15_19 H 0.3833 0.4887 0.8985
C27_19 C 0.3540(3) 0.5204(4) 0.9311(4)
H16_19 H 0.3343 0.5057 0.9325
C28_19 C 0.4928(4) 0.5369(4) 0.8598(5)
C29_19 C 0.5139(5) 0.5646(4) 0.8474(5)
H17_19 H 0.5087 0.5879 0.8538
C30_19 C 0.5423(3) 0.5577(3) 0.8255(4)
H18_19 H 0.5545 0.5766 0.8154
C31_19 C 0.5531(3) 0.5243(3) 0.8184(3)
C32_19 C 0.5344(4) 0.4972(4) 0.8339(4)
H19_19 H 0.5422 0.4741 0.8300
C33_19 C 0.5042(4) 0.5020(4) 0.8550(4)
H20_19 H 0.4925 0.4829 0.8654
C34_19 C 0.5824(2) 0.5162(3) 0.7946(2)
O16_15 O 0.70838(16) 0.45410(17) 0.71943(16)
O18_15 O 0.59136(15) 0.51646(16) 0.70883(16)
O20_15 O 0.71187(16) 0.46953(18) 0.79668(16)
N8_12 N 0.59981(19) 0.58932(19) 0.72212(17)
O9_14 O 0.03057(16) 0.20410(17) 0.54162(16)
O10_20 O 0.01217(15) 0.17436(15) 0.58921(17)
N4_20 N 0.1111(3) 0.0568(3) 0.5229(3)
N5_20 N 0.1186(4) 0.0364(3) 0.5479(3)
C21_20 C 0.0292(2) 0.1766(3) 0.5596(3)
C22_20 C 0.0515(3) 0.1456(3) 0.5503(3)
C23_20 C 0.0514(4) 0.1181(3) 0.5728(4)
H13_20 H 0.0376 0.1186 0.5932
C24_20 C 0.0727(5) 0.0882(4) 0.5646(4)
H14_20 H 0.0734 0.0691 0.5802
C25_20 C 0.0915(4) 0.0871(3) 0.5356(4)
C26_20 C 0.0895(4) 0.1171(4) 0.5103(4)
H15_20 H 0.1015 0.1167 0.4887
C27_20 C 0.0689(4) 0.1460(3) 0.5204(4)
H16_20 H 0.0675 0.1657 0.5057
C28_20 C 0.1402(5) 0.0072(4) 0.5369(4)
H20_20 H 0.1346 0.0075 0.4829
Fe4_10 Fe -0.0000 0.2500 0.54283(5)
O15_10 O -0.0000 0.2500 0.59583(19)
O19_13 O 0.02936(17) 0.20882(17) 0.65315(18)
C29_20 C 0.1526(5) 0.9861(5) 0.5646(4)
H17_20 H 0.1462 0.9913 0.5879
C30_20 C 0.1745(4) 0.9577(3) 0.5577(3)
H18_20 H 0.1846 0.9455 0.5766
C31_20 C 0.1816(3) 0.9469(3) 0.5243(3)
C32_20 C 0.1661(4) 0.9656(4) 0.4972(4)
H19_20 H 0.1700 0.9578 0.4741
C33_20 C 0.1450(4) 0.9958(4) 0.5020(4)
C34_20 C 0.2054(2) 0.9176(2) 0.5162(3)
O13_14 O 0.95332(16) 0.21953(18) 0.53813(16)
O14_20 O 0.94099(14) 0.20059(15) 0.59388(17)
C35_20 C 0.9343(3) 0.2036(2) 0.5602(3)
C36_20 C 0.9006(2) 0.1857(2) 0.5492(3)
C37_20 C 0.8950(2) 0.1784(2) 0.5137(2)
H21_18 H 0.9110 0.1856 0.4964
C38_20 C 0.8640(2) 0.1595(3) 0.5048(3)
H22_18 H 0.8607 0.1532 0.4812
C39_20 C 0.8450(2) 0.1592(3) 0.5628(3)
H23_20 H 0.8278 0.1536 0.5795
C40_20 C 0.8760(2) 0.1765(2) 0.5741(2)
H24_20 H 0.8796 0.1815 0.5979
Fe4_11 Fe 1.0000 0.2500 0.54283(5)
O15_11 O 1.0000 0.2500 0.59583(19)
O17_8 O 0.95883(16) 0.23354(16) 0.65864(15)
O9_15 O 0.45410(17) 0.71943(16) 0.70838(16)
O10_21 O 0.42436(15) 0.73783(15) 0.66079(17)
O13_15 O 0.46953(18) 0.79668(16) 0.71187(16)
O14_21 O 0.45059(15) 0.80901(14) 0.65612(17)
N4_21 N 0.3068(3) 0.6389(3) 0.7271(3)
N5_21 N 0.2864(3) 0.6314(4) 0.7021(3)
C21_21 C 0.4266(3) 0.7208(2) 0.6904(3)
C22_21 C 0.3956(3) 0.6985(3) 0.6997(3)
C23_21 C 0.3681(3) 0.6986(4) 0.6772(4)
H13_21 H 0.3686 0.7124 0.6568
C24_21 C 0.3382(4) 0.6773(5) 0.6854(4)
H14_21 H 0.3191 0.6766 0.6698
C25_21 C 0.3371(3) 0.6585(4) 0.7144(4)
C26_21 C 0.3671(4) 0.6605(4) 0.7397(4)
H15_21 H 0.3667 0.6485 0.7613
C27_21 C 0.3960(3) 0.6811(4) 0.7296(4)
H16_21 H 0.4157 0.6825 0.7443
C28_21 C 0.2572(4) 0.6098(5) 0.7131(4)
C29_21 C 0.2361(5) 0.5974(5) 0.6854(4)
H17_21 H 0.2413 0.6038 0.6621
C30_21 C 0.2077(3) 0.5755(4) 0.6923(3)
H18_21 H 0.1955 0.5654 0.6734
C31_21 C 0.1969(3) 0.5684(3) 0.7257(3)
C32_21 C 0.2156(4) 0.5839(4) 0.7528(4)
H19_21 H 0.2078 0.5800 0.7759
C33_21 C 0.2458(4) 0.6050(4) 0.7480(4)
H20_21 H 0.2575 0.6154 0.7671
C34_21 C 0.1676(2) 0.5446(2) 0.7338(3)
C35_21 C 0.4536(2) 0.8157(3) 0.6898(3)
C36_21 C 0.4357(2) 0.8494(2) 0.7008(3)
C37_21 C 0.4284(2) 0.8550(2) 0.7363(2)
H21_19 H 0.4356 0.8390 0.7536
C38_21 C 0.4095(3) 0.8860(2) 0.7452(3)
H22_19 H 0.4032 0.8893 0.7688
C39_21 C 0.4092(3) 0.9050(2) 0.6872(3)
H23_21 H 0.4036 0.9222 0.6705
C40_21 C 0.4265(2) 0.8740(2) 0.6759(2)
H24_21 H 0.4315 0.8704 0.6521
Fe4_12 Fe 0.5000 0.7500 0.70717(5)
O15_12 O 0.5000 0.7500 0.65417(19)
O17_9 O 0.48354(16) 0.79117(16) 0.59136(15)
O19_14 O 0.45882(17) 0.72064(17) 0.59685(18)
O13_16 O 0.04668(16) 0.28047(18) 0.53813(16)
O14_22 O 0.05901(14) 0.29941(15) 0.59388(17)
C35_22 C 0.0657(3) 0.2964(2) 0.5602(3)
C36_22 C 0.0994(2) 0.3143(2) 0.5492(3)
C37_22 C 0.1050(2) 0.3216(2) 0.5137(2)
H21_20 H 0.0890 0.3144 0.4964
C38_22 C 0.1360(2) 0.3405(3) 0.5048(3)
H22_20 H 0.1393 0.3468 0.4812
C39_22 C 0.1550(2) 0.3408(3) 0.5628(3)
H23_22 H 0.1722 0.3464 0.5795
C40_22 C 0.1240(2) 0.3235(2) 0.5741(2)
H24_22 H 0.1204 0.3185 0.5979
O17_10 O 0.04117(16) 0.26646(16) 0.65864(15)
O9_16 O 0.96943(16) 0.29590(17) 0.54162(16)
O10_22 O 0.98783(15) 0.32564(15) 0.58921(17)
N4_22 N 0.8889(3) 0.4432(3) 0.5229(3)
N5_22 N 0.8814(4) 0.4636(3) 0.5479(3)
C21_22 C 0.9708(2) 0.3234(3) 0.5596(3)
C22_22 C 0.9485(3) 0.3544(3) 0.5503(3)
C23_22 C 0.9486(4) 0.3819(3) 0.5728(4)
H13_22 H 0.9624 0.3814 0.5932
C24_22 C 0.9273(5) 0.4118(4) 0.5646(4)
H14_22 H 0.9266 0.4309 0.5802
C25_22 C 0.9085(4) 0.4129(3) 0.5356(4)
C26_22 C 0.9105(4) 0.3829(4) 0.5103(4)
H15_22 H 0.8985 0.3833 0.4887
C27_22 C 0.9311(4) 0.3540(3) 0.5204(4)
H16_22 H 0.9325 0.3343 0.5057
C28_22 C 0.8598(5) 0.4928(4) 0.5369(4)
C29_22 C 0.8474(5) 0.5139(5) 0.5646(4)
H17_22 H 0.8538 0.5087 0.5879
C30_22 C 0.8255(4) 0.5423(3) 0.5577(3)
H18_22 H 0.8154 0.5545 0.5766
C31_22 C 0.8184(3) 0.5531(3) 0.5243(3)
C32_22 C 0.8339(4) 0.5344(4) 0.4972(4)
H19_22 H 0.8300 0.5422 0.4741
C33_22 C 0.8550(4) 0.5042(4) 0.5020(4)
H20_22 H 0.8654 0.4925 0.4829
C34_22 C 0.7946(2) 0.5824(2) 0.5162(3)
O19_15 O 0.97064(17) 0.29118(17) 0.65315(18)
H25_13 H 0.020378 0.975223 0.751587
O9_17 O 0.54590(17) 0.78057(16) 0.70838(16)
O10_23 O 0.57564(15) 0.76217(15) 0.66079(17)
O13_17 O 0.53047(18) 0.70332(16) 0.71187(16)
O14_23 O 0.54941(15) 0.69099(14) 0.65612(17)
N4_23 N 0.6932(3) 0.8611(3) 0.7271(3)
N5_23 N 0.7136(3) 0.8686(4) 0.7021(3)
C21_23 C 0.5734(3) 0.7792(2) 0.6904(3)
C22_23 C 0.6044(3) 0.8015(3) 0.6997(3)
C23_23 C 0.6319(3) 0.8014(4) 0.6772(4)
H13_23 H 0.6314 0.7876 0.6568
C24_23 C 0.6618(4) 0.8227(5) 0.6854(4)
H14_23 H 0.6809 0.8234 0.6698
C25_23 C 0.6629(3) 0.8415(4) 0.7144(4)
C26_23 C 0.6329(4) 0.8395(4) 0.7397(4)
H15_23 H 0.6333 0.8515 0.7613
C27_23 C 0.6040(3) 0.8189(4) 0.7296(4)
H16_23 H 0.5843 0.8175 0.7443
C28_23 C 0.7428(4) 0.8902(5) 0.7131(4)
C29_23 C 0.7639(5) 0.9026(5) 0.6854(4)
H17_23 H 0.7587 0.8962 0.6621
C30_23 C 0.7923(3) 0.9245(4) 0.6923(3)
H18_23 H 0.8045 0.9346 0.6734
C31_23 C 0.8031(3) 0.9316(3) 0.7257(3)
C32_23 C 0.7844(4) 0.9161(4) 0.7528(4)
H19_23 H 0.7922 0.9200 0.7759
C33_23 C 0.7542(4) 0.8950(4) 0.7480(4)
H20_23 H 0.7425 0.8846 0.7671
C34_23 C 0.8324(2) 0.9554(2) 0.7338(3)
C35_23 C 0.5464(2) 0.6843(3) 0.6898(3)
C36_23 C 0.5643(2) 0.6506(2) 0.7008(3)
C37_23 C 0.5716(2) 0.6450(2) 0.7363(2)
H21_21 H 0.5644 0.6610 0.7536
C38_23 C 0.5905(3) 0.6140(2) 0.7452(3)
H22_21 H 0.5968 0.6107 0.7688
C39_23 C 0.5908(3) 0.5950(2) 0.6872(3)
H23_23 H 0.5964 0.5778 0.6705
C40_23 C 0.5735(2) 0.6260(2) 0.6759(2)
H24_23 H 0.5685 0.6296 0.6521
O17_11 O 0.51646(16) 0.70883(16) 0.59136(15)
O19_16 O 0.54118(17) 0.77936(17) 0.59685(18)
H25_14 H 0.225223 0.270378 0.00158669
H26_15 H 0.263763 0.270378 0.0206643
O4_20 O 0.23783(15) 0.16079(17) 0.92436(15)
O8_20 O 0.30901(14) 0.15612(17) 0.95059(15)
N1_20 N 0.1389(3) 0.2271(3) 0.8068(3)
N2_20 N 0.1314(4) 0.2021(3) 0.7864(3)
C1_20 C 0.2208(2) 0.1904(3) 0.9266(3)
C2_20 C 0.1985(3) 0.1997(3) 0.8956(3)
C3_20 C 0.1986(4) 0.1772(4) 0.8681(3)
H1_20 H 0.2124 0.1568 0.8686
C4_20 C 0.1773(5) 0.1854(4) 0.8382(4)
H2_20 H 0.1766 0.1698 0.8191
C5_20 C 0.1585(4) 0.2144(4) 0.8371(3)
C6_20 C 0.1605(4) 0.2397(4) 0.8671(4)
H3_17 H 0.1485 0.2613 0.8667
C7_20 C 0.1811(4) 0.2296(4) 0.8960(3)
H4_20 H 0.1825 0.2443 0.9157
C8_20 C 0.1098(5) 0.2131(4) 0.7572(4)
C9_20 C 0.0974(5) 0.1854(4) 0.7361(5)
H5_20 H 0.1038 0.1621 0.7413
C10_20 C 0.0755(4) 0.1923(3) 0.7077(3)
H6_20 H 0.0654 0.1734 0.6955
C11_20 C 0.0684(3) 0.2257(3) 0.6969(3)
C12_20 C 0.0839(4) 0.2528(4) 0.7156(4)
H7_20 H 0.0800 0.2759 0.7078
C13_20 C 0.1050(4) 0.2480(4) 0.7458(4)
H8_17 H 0.1154 0.2671 0.7575
C14_20 C 0.0446(2) 0.2338(3) 0.6676(2)
C15_20 C 0.3157(3) 0.1898(3) 0.9536(2)
C16_20 C 0.3494(2) 0.2008(3) 0.9357(2)
C17_20 C 0.3550(2) 0.2363(2) 0.9284(2)
H9_19 H 0.3390 0.2536 0.9356
C18_20 C 0.3860(2) 0.2452(3) 0.9095(3)
H10_19 H 0.3893 0.2688 0.9032
C19_20 C 0.4050(2) 0.1872(3) 0.9092(3)
H11_20 H 0.4222 0.1705 0.9036
C20_20 C 0.3740(2) 0.1759(2) 0.9265(2)
H12_20 H 0.3704 0.1521 0.9315
O4_21 O 0.41079(17) 0.51217(15) 0.32564(15)
O8_21 O 0.40612(17) 0.44099(14) 0.29941(15)
N1_21 N 0.4771(3) 0.6111(3) 0.4432(3)
N2_21 N 0.4521(3) 0.6186(4) 0.4636(3)
C1_21 C 0.4404(3) 0.5292(2) 0.3234(3)
C2_21 C 0.4497(3) 0.5515(3) 0.3544(3)
C3_21 C 0.4272(4) 0.5514(4) 0.3819(3)
H1_21 H 0.4068 0.5376 0.3814
C4_21 C 0.4354(4) 0.5727(5) 0.4118(4)
H2_21 H 0.4198 0.5734 0.4309
C5_21 C 0.4644(4) 0.5915(4) 0.4129(3)
C6_21 C 0.4897(4) 0.5895(4) 0.3829(4)
H3_18 H 0.5113 0.6015 0.3833
C7_21 C 0.4796(4) 0.5689(4) 0.3540(3)
H4_21 H 0.4943 0.5675 0.3343
C8_21 C 0.4631(4) 0.6402(5) 0.4928(4)
C9_21 C 0.4354(4) 0.6526(5) 0.5139(5)
H5_21 H 0.4121 0.6462 0.5087
C10_21 C 0.4423(3) 0.6745(4) 0.5423(3)
H6_21 H 0.4234 0.6846 0.5545
C11_21 C 0.4757(3) 0.6816(3) 0.5531(3)
C12_21 C 0.5028(4) 0.6661(4) 0.5344(4)
H7_21 H 0.5259 0.6700 0.5422
C13_21 C 0.4980(4) 0.6450(4) 0.5042(4)
H8_18 H 0.5171 0.6346 0.4925
C14_21 C 0.4838(3) 0.7054(2) 0.5824(2)
C15_21 C 0.4398(3) 0.4343(3) 0.2964(2)
C16_21 C 0.4508(3) 0.4006(2) 0.3143(2)
C17_21 C 0.4863(2) 0.3950(2) 0.3216(2)
H9_20 H 0.5036 0.4110 0.3144
C18_21 C 0.4952(3) 0.3640(2) 0.3405(3)
H10_20 H 0.5188 0.3607 0.3468
C19_21 C 0.4372(3) 0.3450(2) 0.3408(3)
H11_21 H 0.4205 0.3278 0.3464
C20_21 C 0.4259(2) 0.3760(2) 0.3235(2)
H12_21 H 0.4021 0.3796 0.3185
N8_13 N 0.34981(19) 0.47212(17) 0.33932(19)
H25_15 H 0.774777 0.229622 0.00158669
H26_16 H 0.736237 0.229622 0.0206643
O4_22 O 0.76217(15) 0.33921(17) 0.92436(15)
O8_22 O 0.69099(14) 0.34388(17) 0.95059(15)
N1_22 N 0.8611(3) 0.2729(3) 0.8068(3)
N2_22 N 0.8686(4) 0.2979(3) 0.7864(3)
C1_22 C 0.7792(2) 0.3096(3) 0.9266(3)
C2_22 C 0.8015(3) 0.3003(3) 0.8956(3)
C3_22 C 0.8014(4) 0.3228(4) 0.8681(3)
H1_22 H 0.7876 0.3432 0.8686
C4_22 C 0.8227(5) 0.3146(4) 0.8382(4)
H2_22 H 0.8234 0.3302 0.8191
C5_22 C 0.8415(4) 0.2856(4) 0.8371(3)
C6_22 C 0.8395(4) 0.2603(4) 0.8671(4)
H3_19 H 0.8515 0.2387 0.8667
C7_22 C 0.8189(4) 0.2704(4) 0.8960(3)
H4_22 H 0.8175 0.2557 0.9157
C8_22 C 0.8902(5) 0.2869(4) 0.7572(4)
C9_22 C 0.9026(5) 0.3146(4) 0.7361(5)
H5_22 H 0.8962 0.3379 0.7413
C10_22 C 0.9245(4) 0.3077(3) 0.7077(3)
H6_22 H 0.9346 0.3266 0.6955
C11_22 C 0.9316(3) 0.2743(3) 0.6969(3)
C12_22 C 0.9161(4) 0.2472(4) 0.7156(4)
H7_22 H 0.9200 0.2241 0.7078
C13_22 C 0.8950(4) 0.2520(4) 0.7458(4)
H8_19 H 0.8846 0.2329 0.7575
C14_22 C 0.9554(2) 0.2662(3) 0.6676(2)
C15_22 C 0.6843(3) 0.3102(3) 0.9536(2)
C16_22 C 0.6506(2) 0.2992(3) 0.9357(2)
C17_22 C 0.6450(2) 0.2637(2) 0.9284(2)
H9_21 H 0.6610 0.2464 0.9356
C18_22 C 0.6140(2) 0.2548(3) 0.9095(3)
H10_21 H 0.6107 0.2312 0.9032
C19_22 C 0.5950(2) 0.3128(3) 0.9092(3)
H11_22 H 0.5778 0.3295 0.9036
C20_22 C 0.6260(2) 0.3241(2) 0.9265(2)
H12_22 H 0.6296 0.3479 0.9315
N8_14 N 0.72212(17) 0.40019(19) 0.91068(19)
O8_23 O 0.59388(17) 0.05901(14) 0.29941(15)
C15_23 C 0.5602(3) 0.0657(3) 0.2964(2)
C16_23 C 0.5492(3) 0.0994(2) 0.3143(2)
C17_23 C 0.5137(2) 0.1050(2) 0.3216(2)
H9_22 H 0.4964 0.0890 0.3144
C18_23 C 0.5048(3) 0.1360(2) 0.3405(3)
H10_22 H 0.4812 0.1393 0.3468
C19_23 C 0.5628(3) 0.1550(2) 0.3408(3)
H11_23 H 0.5795 0.1722 0.3464
C20_23 C 0.5741(2) 0.1240(2) 0.3235(2)
H12_23 H 0.5979 0.1204 0.3185
H26_17 H 0.479622 0.0137627 0.229336
O4_23 O 0.58921(17) 0.98783(15) 0.32564(15)
N1_23 N 0.5229(3) 0.8889(3) 0.4432(3)
N2_23 N 0.5479(3) 0.8814(4) 0.4636(3)
C1_23 C 0.5596(3) 0.9708(2) 0.3234(3)
C2_23 C 0.5503(3) 0.9485(3) 0.3544(3)
C3_23 C 0.5728(4) 0.9486(4) 0.3819(3)
H1_23 H 0.5932 0.9624 0.3814
C4_23 C 0.5646(4) 0.9273(5) 0.4118(4)
H2_23 H 0.5802 0.9266 0.4309
C5_23 C 0.5356(4) 0.9085(4) 0.4129(3)
C6_23 C 0.5103(4) 0.9105(4) 0.3829(4)
H3_20 H 0.4887 0.8985 0.3833
C7_23 C 0.5204(4) 0.9311(4) 0.3540(3)
H4_23 H 0.5057 0.9325 0.3343
C8_23 C 0.5369(4) 0.8598(5) 0.4928(4)
C9_23 C 0.5646(4) 0.8474(5) 0.5139(5)
H5_23 H 0.5879 0.8538 0.5087
C10_23 C 0.5577(3) 0.8255(4) 0.5423(3)
H6_23 H 0.5766 0.8154 0.5545
C11_23 C 0.5243(3) 0.8184(3) 0.5531(3)
C12_23 C 0.4972(4) 0.8339(4) 0.5344(4)
H7_23 H 0.4741 0.8300 0.5422
C13_23 C 0.5020(4) 0.8550(4) 0.5042(4)
H8_20 H 0.4829 0.8654 0.4925
C14_23 C 0.5162(3) 0.7946(2) 0.5824(2)
H25_16 H 0.479622 0.975223 0.248413
O2_28 O 0.5000 0.2500 0.7384(2)
O2_29 O 0.5000 0.2500 0.5116(2)
O2_30 O 0.5000 0.7500 0.7616(2)
O2_31 O -0.0000 0.2500 0.4884(2)
H25_17 H 0.0247771 0.251587 0.479622
O2_32 O 1.0000 0.2500 0.4884(2)
H26_18 H 0.986237 0.270664 0.479622
H26_19 H 0.0137627 0.229336 0.479622
H25_18 H 0.975223 0.248413 0.479622
O2_33 O 0.7384(2) 0.5000 0.2500
H26_20 H 0.229336 0.479622 0.0137627
H25_19 H 0.248413 0.479622 0.975223
O4_24 O 0.32564(15) 0.41079(17) 0.51217(15)
O6_13 O 0.59685(18) 0.45882(17) 0.72064(17)
O8_24 O 0.29941(15) 0.40612(17) 0.44099(14)
N1_24 N 0.4432(3) 0.4771(3) 0.6111(3)
N2_24 N 0.4636(3) 0.4521(3) 0.6186(4)
C1_24 C 0.3234(3) 0.4404(3) 0.5292(2)
C2_24 C 0.3544(3) 0.4497(3) 0.5515(3)
C3_24 C 0.3819(3) 0.4272(4) 0.5514(4)
H1_24 H 0.3814 0.4068 0.5376
C4_24 C 0.4118(4) 0.4354(4) 0.5727(5)
H2_24 H 0.4309 0.4198 0.5734
C5_24 C 0.4129(3) 0.4644(4) 0.5915(4)
C6_24 C 0.3829(4) 0.4897(4) 0.5895(4)
H3_21 H 0.3833 0.5113 0.6015
C7_24 C 0.3540(3) 0.4796(4) 0.5689(4)
H4_24 H 0.3343 0.4943 0.5675
C8_24 C 0.4928(4) 0.4631(4) 0.6402(5)
C9_24 C 0.5139(5) 0.4354(4) 0.6526(5)
H5_24 H 0.5087 0.4121 0.6462
C10_24 C 0.5423(3) 0.4423(3) 0.6745(4)
H6_24 H 0.5545 0.4234 0.6846
C11_24 C 0.5531(3) 0.4757(3) 0.6816(3)
C12_24 C 0.5344(4) 0.5028(4) 0.6661(4)
H7_24 H 0.5422 0.5259 0.6700
C13_24 C 0.5042(4) 0.4980(4) 0.6450(4)
H8_21 H 0.4925 0.5171 0.6346
C14_24 C 0.5824(2) 0.4838(3) 0.7054(2)
C15_24 C 0.2964(2) 0.4398(3) 0.4343(3)
C16_24 C 0.3143(2) 0.4508(3) 0.4006(2)
C17_24 C 0.3216(2) 0.4863(2) 0.3950(2)
H9_23 H 0.3144 0.5036 0.4110
C18_24 C 0.3405(3) 0.4952(3) 0.3640(2)
H10_23 H 0.3468 0.5188 0.3607
C19_24 C 0.3408(3) 0.4372(3) 0.3450(2)
H11_24 H 0.3464 0.4205 0.3278
C20_24 C 0.3235(2) 0.4259(2) 0.3760(2)
H12_24 H 0.3185 0.4021 0.3796
H25_20 H 0.751587 0.020378 0.975223
O10_24 O 0.66079(17) 0.42436(15) 0.73783(15)
O14_24 O 0.65612(17) 0.45059(15) 0.80901(14)
N4_24 N 0.7271(3) 0.3068(3) 0.6389(3)
N5_24 N 0.7021(3) 0.2864(3) 0.6314(4)
C21_24 C 0.6904(3) 0.4266(3) 0.7208(2)
C22_24 C 0.6997(3) 0.3956(3) 0.6985(3)
C23_24 C 0.6772(4) 0.3681(3) 0.6986(4)
H13_24 H 0.6568 0.3686 0.7124
C24_24 C 0.6854(4) 0.3382(4) 0.6773(5)
H14_24 H 0.6698 0.3191 0.6766
C25_24 C 0.7144(4) 0.3371(3) 0.6585(4)
C26_24 C 0.7397(4) 0.3671(4) 0.6605(4)
H15_24 H 0.7613 0.3667 0.6485
C27_24 C 0.7296(4) 0.3960(3) 0.6811(4)
H16_24 H 0.7443 0.4157 0.6825
C28_24 C 0.7131(4) 0.2572(4) 0.6098(5)
C29_24 C 0.6854(4) 0.2361(5) 0.5974(5)
H17_24 H 0.6621 0.2413 0.6038
C30_24 C 0.6923(3) 0.2077(3) 0.5755(4)
H18_24 H 0.6734 0.1955 0.5654
C31_24 C 0.7257(3) 0.1969(3) 0.5684(3)
C32_24 C 0.7528(4) 0.2156(4) 0.5839(4)
H19_24 H 0.7759 0.2078 0.5800
C33_24 C 0.7480(4) 0.2458(4) 0.6050(4)
H20_24 H 0.7671 0.2575 0.6154
C34_24 C 0.7338(3) 0.1676(2) 0.5446(2)
C35_24 C 0.6898(3) 0.4536(2) 0.8157(3)
C36_24 C 0.7008(3) 0.4357(2) 0.8494(2)
C37_24 C 0.7363(2) 0.4284(2) 0.8550(2)
H21_22 H 0.7536 0.4356 0.8390
C38_24 C 0.7452(3) 0.4095(3) 0.8860(2)
H22_22 H 0.7688 0.4032 0.8893
C39_24 C 0.6872(3) 0.4092(3) 0.9050(2)
H23_24 H 0.6705 0.4036 0.9222
C40_24 C 0.6759(2) 0.4265(2) 0.8740(2)
H24_24 H 0.6521 0.4315 0.8704
H25_21 H 0.270378 0.998413 0.274777
H26_21 H 0.270378 0.979336 0.236237
O2_34 O 0.0116(2) -0.0000 0.7500
H3_22 H 0.0113 0.1015 0.8833
H8_22 H 0.0171 0.1346 0.9925
H25_22 H 0.020378 0.0247771 0.748413
H21_23 H 0.0036 0.0890 0.6856
H22_23 H 0.0188 0.1393 0.6532
H26_22 H 0.020378 0.0137627 0.770664
O2_35 O -0.0000 0.7500 0.0116(2)
H9_24 H 0.0890 0.6856 0.0036
H10_24 H 0.1393 0.6532 0.0188
H26_23 H 0.0137627 0.770664 0.020378
H3_23 H 0.1015 0.8833 0.0113
H8_23 H 0.1346 0.9925 0.0171
H25_23 H 0.0247771 0.748413 0.020378
O2_36 O 0.7500 0.0116(2) 0.0000
H3_24 H 0.8833 0.0113 0.1015
H8_24 H 0.9925 0.0171 0.1346
H25_24 H 0.748413 0.020378 0.0247771
H21_24 H 0.6856 0.0036 0.0890
H22_24 H 0.6532 0.0188 0.1393
H26_24 H 0.770664 0.020378 0.0137627
loop_
_geom_bond_atom_site_label_1
_geom_bond_atom_site_label_2
_geom_bond_site_symmetry_1
_geom_bond_site_symmetry_2
Fe1 O1 1_555 1_555
Fe2 O1 1_555 1_555
O2 Fe1 1_555 1_555
O3 Fe1 1_555 1_555
O4 Fe2 1_555 1_555
O5 C14 1_555 1_555
O6 C14 1_555 1_555
O7 Fe1 1_555 1_555
O8 Fe2 1_555 1_555
N1 N2 1_555 1_555
N2 C8 1_555 1_555
N3 C18 1_555 1_555
C1 O3 1_555 1_555
C2 C1 1_555 1_555
C3 C2 1_555 1_555
H1 C3 1_555 1_555
C4 C3 1_555 1_555
H2 C4 1_555 1_555
C5 N1 1_555 1_555
C6 C5 1_555 1_555
H3 C6 1_555 1_555
C7 C2 1_555 1_555
H4 C7 1_555 1_555
C8 C9 1_555 1_555
C9 H5 1_555 1_555
C10 C9 1_555 1_555
H6 C10 1_555 1_555
C11 C10 1_555 1_555
C12 C11 1_555 1_555
H7 C12 1_555 1_555
C13 C8 1_555 1_555
H8 C13 1_555 1_555
C14 C11 1_555 1_555
C15 O7 1_555 1_555
C16 C15 1_555 1_555
C17 C16 1_555 1_555
H9 C17 1_555 1_555
C18 C17 1_555 1_555
H10 C18 1_555 1_555
C19 N3 1_555 1_555
H11 C19 1_555 1_555
C20 C16 1_555 1_555
H12 C20 1_555 1_555
Fe3 O10 1_555 1_555
O9 C21 1_555 1_555
O10 C21 1_555 1_555
O12 Fe2 1_555 1_555
O13 C35 1_555 1_555
O14 Fe3 1_555 1_555
N4 N5 1_555 1_555
N5 C28 1_555 1_555
N6 C38 1_555 1_555
C21 C22 1_555 1_555
C22 C23 1_555 1_555
C23 H13 1_555 1_555
C24 C23 1_555 1_555
H14 C24 1_555 1_555
C25 N4 1_555 1_555
C26 C25 1_555 1_555
C27 C22 1_555 1_555
H16 C27 1_555 1_555
C28 C29 1_555 1_555
C29 H17 1_555 1_555
C30 C29 1_555 1_555
H18 C30 1_555 1_555
C31 C30 1_555 1_555
C33 C28 1_555 1_555
C34 O12 1_555 1_555
C35 O14 1_555 1_555
C36 C35 1_555 1_555
C37 C36 1_555 1_555
C38 C37 1_555 1_555
C39 N6 1_555 1_555
H23 C39 1_555 1_555
C40 C36 1_555 1_555
H24 C40 1_555 1_555
Fe4 O9 1_555 1_555
Fe5 N3 1_555 1_555
Fe7 O5 1_555 1_555
Fe8 O6 1_555 1_555
Fe9 N6 1_555 1_555
O15 Fe3 1_555 1_555
O17 Fe3 1_555 1_555
O18 Fe2 1_555 1_555
O19 Fe3 1_555 1_555
N7 Fe3 1_555 1_555
N8 Fe2 1_555 1_555
O4 C1 1_555 1_555
O8 C15 1_555 1_555
C4 C5 1_555 1_555
C6 C7 1_555 1_555
C12 C13 1_555 1_555
C19 C20 1_555 1_555
O13 Fe4 1_555 1_555
C24 C25 1_555 1_555
C26 C27 1_555 1_555
C31 C34 1_555 1_555
C39 C40 1_555 1_555
Fe4 O15 1_555 1_555
Fe1_2 O1_2 1_555 1_555
O1_2 Fe6 1_555 1_555
O2_2 Fe1_2 1_555 1_555
H19 C32 1_555 1_555
Fe6 O11 1_555 1_555
O16 Fe1_2 1_555 1_555
O20 Fe1_2 1_555 1_555
O2_2 H25 1_555 1_555
O2_2 H26 1_555 1_555
Fe4_2 O15_2 1_555 1_555
Fe1_3 O1_3 1_555 1_555
O1_3 Fe6_2 1_555 1_555
O2_3 Fe1_3 1_555 1_555
O3_2 Fe1_3 1_555 1_555
N1_2 N2_2 1_555 1_555
N2_2 C8_2 1_555 1_555
C1_2 O3_2 1_555 1_555
C2_2 C1_2 1_555 1_555
C3_2 C2_2 1_555 1_555
H1_2 C3_2 1_555 1_555
C4_2 C3_2 1_555 1_555
H2_2 C4_2 1_555 1_555
C5_2 N1_2 1_555 1_555
C6_2 C5_2 1_555 1_555
H3_2 C6_2 1_555 1_555
C7_2 C2_2 1_555 1_555
H4_2 C7_2 1_555 1_555
Fe5 O10_2 1_555 1_555
O9_2 C21_2 1_555 1_555
O10_2 C21_2 1_555 1_555
O11_2 C34_2 1_555 1_555
O13_2 C35_2 1_555 1_555
O14_2 Fe5 1_555 1_555
N4_2 N5_2 1_555 1_555
N5_2 C28_2 1_555 1_555
N6_2 C38_2 1_555 1_555
C21_2 C22_2 1_555 1_555
C22_2 C23_2 1_555 1_555
C23_2 H13_2 1_555 1_555
C24_2 C23_2 1_555 1_555
H14_2 C24_2 1_555 1_555
C25_2 N4_2 1_555 1_555
C26_2 C25_2 1_555 1_555
H15_2 C26_2 1_555 1_555
C27_2 C22_2 1_555 1_555
H16_2 C27_2 1_555 1_555
C28_2 C29_2 1_555 1_555
C29_2 H17_2 1_555 1_555
C30_2 C29_2 1_555 1_555
H18_2 C30_2 1_555 1_555
C31_2 C30_2 1_555 1_555
C32_2 C31_2 1_555 1_555
H19_2 C32_2 1_555 1_555
C33_2 C28_2 1_555 1_555
H20_2 C33_2 1_555 1_555
C34_2 O12_2 1_555 1_555
C35_2 O14_2 1_555 1_555
C36_2 C35_2 1_555 1_555
C37_2 C36_2 1_555 1_555
H21_2 C37_2 1_555 1_555
C38_2 C37_2 1_555 1_555
H22_2 C38_2 1_555 1_555
C39_2 N6_2 1_555 1_555
H23_2 C39_2 1_555 1_555
C40_2 C36_2 1_555 1_555
H24_2 C40_2 1_555 1_555
Fe4_3 O9_2 1_555 1_555
Fe6_2 O11_2 1_555 1_555
Fe9_2 N6_2 1_555 1_555
O15_3 Fe5 1_555 1_555
O17_2 Fe5 1_555 1_555
O19_2 Fe5 1_555 1_555
O20_2 Fe1_3 1_555 1_555
O4_2 C1_2 1_555 1_555
C4_2 C5_2 1_555 1_555
C6_2 C7_2 1_555 1_555
O13_2 Fe4_3 1_555 1_555
C24_2 C25_2 1_555 1_555
C26_2 C27_2 1_555 1_555
C31_2 C34_2 1_555 1_555
C32_2 C33_2 1_555 1_555
C39_2 C40_2 1_555 1_555
Fe4_3 O15_3 1_555 1_555
O2_3 H25_2 1_555 1_555
O5_2 C14_2 1_555 1_555
O6_2 C14_2 1_555 1_555
C9_2 H5_2 1_555 1_555
C10_2 C9_2 1_555 1_555
H6_2 C10_2 1_555 1_555
C11_2 C10_2 1_555 1_555
C12_2 C11_2 1_555 1_555
H7_2 C12_2 1_555 1_555
C14_2 C11_2 1_555 1_555
Fe7_2 O5_2 1_555 1_555
Fe8_2 O6_2 1_555 1_555
C12_2 C13_2 1_555 1_555
Fe1_4 O1_4 1_555 1_555
Fe2_2 O1_4 1_555 1_555
O2_4 Fe1_4 1_555 1_555
O7_2 Fe1_4 1_555 1_555
O8_2 Fe2_2 1_555 1_555
N3_2 C18_2 1_555 1_555
C15_2 O7_2 1_555 1_555
C16_2 C15_2 1_555 1_555
C17_2 C16_2 1_555 1_555
H9_2 C17_2 1_555 1_555
C18_2 C17_2 1_555 1_555
H10_2 C18_2 1_555 1_555
C19_2 N3_2 1_555 1_555
H11_2 C19_2 1_555 1_555
C20_2 C16_2 1_555 1_555
H12_2 C20_2 1_555 1_555
Fe5_2 N3_2 1_555 1_555
O16_2 Fe1_4 1_555 1_555
O18_2 Fe2_2 1_555 1_555
N8_2 Fe2_2 1_555 1_555
O8_2 C15_2 1_555 1_555
C19_2 C20_2 1_555 1_555
O2_4 H26_2 1_555 1_555
Fe1_5 O1_5 1_555 1_555
Fe2_3 O1_5 1_555 1_555
O2_5 Fe1_5 1_555 1_555
O3_3 Fe1_5 1_555 1_555
O4_3 Fe2_3 1_555 1_555
O5_3 C14_3 1_555 1_555
O6_3 C14_3 1_555 1_555
O7_3 Fe1_5 1_555 1_555
O8_3 Fe2_3 1_555 1_555
N1_3 N2_3 1_555 1_555
N2_3 C8_3 1_555 1_555
N3_3 C18_3 1_555 1_555
C1_3 O3_3 1_555 1_555
C2_3 C1_3 1_555 1_555
C3_3 C2_3 1_555 1_555
H1_3 C3_3 1_555 1_555
C4_3 C3_3 1_555 1_555
H2_3 C4_3 1_555 1_555
C5_3 N1_3 1_555 1_555
C6_3 C5_3 1_555 1_555
H3_3 C6_3 1_555 1_555
C7_3 C2_3 1_555 1_555
H4_3 C7_3 1_555 1_555
C8_3 C9_3 1_555 1_555
C9_3 H5_3 1_555 1_555
C10_3 C9_3 1_555 1_555
H6_3 C10_3 1_555 1_555
C11_3 C10_3 1_555 1_555
C12_3 C11_3 1_555 1_555
H7_3 C12_3 1_555 1_555
C13_3 C8_3 1_555 1_555
H8_3 C13_3 1_555 1_555
C14_3 C11_3 1_555 1_555
C15_3 O7_3 1_555 1_555
C16_3 C15_3 1_555 1_555
C17_3 C16_3 1_555 1_555
H9_3 C17_3 1_555 1_555
C18_3 C17_3 1_555 1_555
H10_3 C18_3 1_555 1_555
C19_3 N3_3 1_555 1_555
H11_3 C19_3 1_555 1_555
C20_3 C16_3 1_555 1_555
H12_3 C20_3 1_555 1_555
O12_3 Fe2_3 1_555 1_555
C29_3 H17_3 1_555 1_555
C30_3 C29_3 1_555 1_555
H18_3 C30_3 1_555 1_555
C31_3 C30_3 1_555 1_555
C34_3 O12_3 1_555 1_555
Fe5_3 N3_3 1_555 1_555
Fe8 O5_3 1_555 1_555
Fe7 O6_3 1_555 1_555
O18_3 Fe2_3 1_555 1_555
N8_3 Fe2_3 1_555 1_555
O4_3 C1_3 1_555 1_555
O8_3 C15_3 1_555 1_555
C4_3 C5_3 1_555 1_555
C6_3 C7_3 1_555 1_555
C12_3 C13_3 1_555 1_555
C19_3 C20_3 1_555 1_555
C31_3 C34_3 1_555 1_555
Fe1_6 O1_6 1_555 1_555
O1_6 Fe6_3 1_555 1_555
O2_6 Fe1_6 1_555 1_555
H19_3 C32_3 1_555 1_555
Fe6_3 O11_3 1_555 1_555
O16_3 Fe1_6 1_555 1_555
O20_3 Fe1_6 1_555 1_555
O2_6 H25_3 1_555 1_555
O2_6 H26_3 1_555 1_555
Fe5_2 O10_3 1_555 1_555
O9_3 C21_3 1_555 1_555
O10_3 C21_3 1_555 1_555
O13_3 C35_3 1_555 1_555
O14_3 Fe5_2 1_555 1_555
N4_3 N5_3 1_555 1_555
N5_3 C28_3 1_555 1_555
N6_3 C38_3 1_555 1_555
C21_3 C22_3 1_555 1_555
C22_3 C23_3 1_555 1_555
C23_3 H13_3 1_555 1_555
C24_3 C23_3 1_555 1_555
H14_3 C24_3 1_555 1_555
C25_3 N4_3 1_555 1_555
C26_3 C25_3 1_555 1_555
C27_3 C22_3 1_555 1_555
H16_3 C27_3 1_555 1_555
C35_3 O14_3 1_555 1_555
C36_3 C35_3 1_555 1_555
C37_3 C36_3 1_555 1_555
C38_3 C37_3 1_555 1_555
C39_3 N6_3 1_555 1_555
H23_3 C39_3 1_555 1_555
C40_3 C36_3 1_555 1_555
H24_3 C40_3 1_555 1_555
Fe4 O9_3 1_555 1_555
Fe9_3 N6_3 1_555 1_555
O15 Fe5_2 1_555 1_555
O17_3 Fe5_2 1_555 1_555
O19_3 Fe5_2 1_555 1_555
O13_3 Fe4 1_555 1_555
C24_3 C25_3 1_555 1_555
C26_3 C27_3 1_555 1_555
C39_3 C40_3 1_555 1_555
Fe1_7 O1_7 1_555 1_555
Fe2_4 O1_7 1_555 1_555
O1_7 Fe6_4 1_555 1_555
O2_7 Fe1_7 1_555 1_555
O3_4 Fe1_7 1_555 1_555
O4_4 Fe2_4 1_555 1_555
O7_4 Fe1_7 1_555 1_555
O8_4 Fe2_4 1_555 1_555
N1_4 N2_4 1_555 1_555
N2_4 C8_4 1_555 1_555
N7 C18_4 1_555 1_555
C1_4 O3_4 1_555 1_555
C2_4 C1_4 1_555 1_555
C3_4 C2_4 1_555 1_555
H1_4 C3_4 1_555 1_555
C4_4 C3_4 1_555 1_555
H2_4 C4_4 1_555 1_555
C5_4 N1_4 1_555 1_555
C6_4 C5_4 1_555 1_555
H3_4 C6_4 1_555 1_555
C7_4 C2_4 1_555 1_555
H4_4 C7_4 1_555 1_555
C15_4 O7_4 1_555 1_555
C16_4 C15_4 1_555 1_555
C17_4 C16_4 1_555 1_555
H9_4 C17_4 1_555 1_555
C18_4 C17_4 1_555 1_555
H10_4 C18_4 1_555 1_555
C19_4 N7 1_555 1_555
H11_4 C19_4 1_555 1_555
C20_4 C16_4 1_555 1_555
H12_4 C20_4 1_555 1_555
Fe5_3 O10_4 1_555 1_555
O9_4 C21_4 1_555 1_555
O10_4 C21_4 1_555 1_555
O11_4 C34_4 1_555 1_555
O12_4 Fe2_4 1_555 1_555
O13_4 C35_4 1_555 1_555
O14_4 Fe5_3 1_555 1_555
N4_4 N5_4 1_555 1_555
N5_4 C28_4 1_555 1_555
N6_4 C38_4 1_555 1_555
C21_4 C22_4 1_555 1_555
C22_4 C23_4 1_555 1_555
C23_4 H13_4 1_555 1_555
C24_4 C23_4 1_555 1_555
H14_4 C24_4 1_555 1_555
C25_4 N4_4 1_555 1_555
C26_4 C25_4 1_555 1_555
H15_4 C26_4 1_555 1_555
C27_4 C22_4 1_555 1_555
H16_4 C27_4 1_555 1_555
C28_4 C29_4 1_555 1_555
C29_4 H17_4 1_555 1_555
C30_4 C29_4 1_555 1_555
H18_4 C30_4 1_555 1_555
C31_4 C30_4 1_555 1_555
C32_4 C31_4 1_555 1_555
H19_4 C32_4 1_555 1_555
C33_4 C28_4 1_555 1_555
H20_4 C33_4 1_555 1_555
C34_4 O12_4 1_555 1_555
C35_4 O14_4 1_555 1_555
C36_4 C35_4 1_555 1_555
C37_4 C36_4 1_555 1_555
H21_4 C37_4 1_555 1_555
C38_4 C37_4 1_555 1_555
H22_4 C38_4 1_555 1_555
C39_4 N6_4 1_555 1_555
H23_4 C39_4 1_555 1_555
C40_4 C36_4 1_555 1_555
H24_4 C40_4 1_555 1_555
Fe4_2 O9_4 1_555 1_555
Fe6_4 O11_4 1_555 1_555
Fe9_4 N6_4 1_555 1_555
O15_2 Fe5_3 1_555 1_555
O16_4 Fe1_7 1_555 1_555
O17_4 Fe5_3 1_555 1_555
O18_4 Fe2_4 1_555 1_555
O19_4 Fe5_3 1_555 1_555
O20_4 Fe1_7 1_555 1_555
N8_4 Fe2_4 1_555 1_555
O4_4 C1_4 1_555 1_555
O8_4 C15_4 1_555 1_555
C4_4 C5_4 1_555 1_555
C6_4 C7_4 1_555 1_555
C19_4 C20_4 1_555 1_555
O13_4 Fe4_2 1_555 1_555
C24_4 C25_4 1_555 1_555
C26_4 C27_4 1_555 1_555
C31_4 C34_4 1_555 1_555
C32_4 C33_4 1_555 1_555
C39_4 C40_4 1_555 1_555
O5_4 C14_4 1_555 1_555
O6_4 C14_4 1_555 1_555
C9_4 H5_4 1_555 1_555
C10_4 C9_4 1_555 1_555
H6_4 C10_4 1_555 1_555
C11_4 C10_4 1_555 1_555
C12_4 C11_4 1_555 1_555
H7_4 C12_4 1_555 1_555
C14_4 C11_4 1_555 1_555
Fe8_2 O5_4 1_555 1_555
Fe7_2 O6_4 1_555 1_555
C12_4 C13_4 1_555 1_555
Fe1_8 O1_8 1_555 1_555
Fe2_5 O1_8 1_555 1_555
O1_8 Fe6_5 1_555 1_555
O2_8 Fe1_8 1_555 1_555
O3_5 Fe1_8 1_555 1_555
O4_5 Fe2_5 1_555 1_555
O17_3 C14_5 1_555 1_555
O19 C14_5 1_555 1_555
O7_5 Fe1_8 1_555 1_555
O8_5 Fe2_5 1_555 1_555
N1_5 N2_5 1_555 1_555
N2_5 C8_5 1_555 1_555
N3_4 C18_5 1_555 1_555
C1_5 O3_5 1_555 1_555
C2_5 C1_5 1_555 1_555
C3_5 C2_5 1_555 1_555
H1_5 C3_5 1_555 1_555
C4_5 C3_5 1_555 1_555
H2_5 C4_5 1_555 1_555
C5_5 N1_5 1_555 1_555
C6_5 C5_5 1_555 1_555
H3_5 C6_5 1_555 1_555
C7_5 C2_5 1_555 1_555
H4_5 C7_5 1_555 1_555
C8_5 C9_5 1_555 1_555
C9_5 H5_5 1_555 1_555
C10_5 C9_5 1_555 1_555
H6_5 C10_5 1_555 1_555
C11_5 C10_5 1_555 1_555
C12_5 C11_5 1_555 1_555
H7_5 C12_5 1_555 1_555
C13_5 C8_5 1_555 1_555
H8_5 C13_5 1_555 1_555
C14_5 C11_5 1_555 1_555
C15_5 O7_5 1_555 1_555
C16_5 C15_5 1_555 1_555
C17_5 C16_5 1_555 1_555
H9_5 C17_5 1_555 1_555
C18_5 C17_5 1_555 1_555
H10_5 C18_5 1_555 1_555
C19_5 N3_4 1_555 1_555
H11_5 C19_5 1_555 1_555
C20_5 C16_5 1_555 1_555
H12_5 C20_5 1_555 1_555
Fe8 O10_5 1_555 1_555
O9_5 C21_5 1_555 1_555
O10_5 C21_5 1_555 1_555
O11_5 C34_5 1_555 1_555
O12_5 Fe2_5 1_555 1_555
O13_5 C35_5 1_555 1_555
O14_5 Fe8 1_555 1_555
N4_5 N5_5 1_555 1_555
N5_5 C28_5 1_555 1_555
N6_5 C38_5 1_555 1_555
C21_5 C22_5 1_555 1_555
C22_5 C23_5 1_555 1_555
C23_5 H13_5 1_555 1_555
C24_5 C23_5 1_555 1_555
H14_5 C24_5 1_555 1_555
C25_5 N4_5 1_555 1_555
C26_5 C25_5 1_555 1_555
H15_5 C26_5 1_555 1_555
C27_5 C22_5 1_555 1_555
H16_5 C27_5 1_555 1_555
C28_5 C29_5 1_555 1_555
C29_5 H17_5 1_555 1_555
C30_5 C29_5 1_555 1_555
H18_5 C30_5 1_555 1_555
C31_5 C30_5 1_555 1_555
C32_5 C31_5 1_555 1_555
H19_5 C32_5 1_555 1_555
C33_5 C28_5 1_555 1_555
H20_5 C33_5 1_555 1_555
C34_5 O12_5 1_555 1_555
C35_5 O14_5 1_555 1_555
C36_5 C35_5 1_555 1_555
C37_5 C36_5 1_555 1_555
H21_5 C37_5 1_555 1_555
C38_5 C37_5 1_555 1_555
H22_5 C38_5 1_555 1_555
C39_5 N6_5 1_555 1_555
H23_5 C39_5 1_555 1_555
C40_5 C36_5 1_555 1_555
H24_5 C40_5 1_555 1_555
Fe4_4 O9_5 1_555 1_555
Fe5_4 N3_4 1_555 1_555
Fe6_5 O11_5 1_555 1_555
Fe9_5 N6_5 1_555 1_555
O15_4 Fe8 1_555 1_555
O16_5 Fe1_8 1_555 1_555
O18_5 Fe2_5 1_555 1_555
O20_5 Fe1_8 1_555 1_555
N7_2 Fe8 1_555 1_555
N8_5 Fe2_5 1_555 1_555
O4_5 C1_5 1_555 1_555
O8_5 C15_5 1_555 1_555
C4_5 C5_5 1_555 1_555
C6_5 C7_5 1_555 1_555
C12_5 C13_5 1_555 1_555
C19_5 C20_5 1_555 1_555
O13_5 Fe4_4 1_555 1_555
C24_5 C25_5 1_555 1_555
C26_5 C27_5 1_555 1_555
C31_5 C34_5 1_555 1_555
C32_5 C33_5 1_555 1_555
C39_5 C40_5 1_555 1_555
Fe4_4 O15_4 1_555 1_555
H7_6 C12_6 1_555 1_555
O2_9 H26_4 1_555 1_555
O19_2 C14_6 1_555 1_555
C9_6 H5_6 1_555 1_555
C10_6 C9_6 1_555 1_555
H6_6 C10_6 1_555 1_555
C11_6 C10_6 1_555 1_555
C14_6 C11_6 1_555 1_555
Fe1_9 O1_9 1_555 1_555
O1_9 Fe6_6 1_555 1_555
O3_6 Fe1_9 1_555 1_555
N1_6 N2_6 1_555 1_555
N2_6 C8_6 1_555 1_555
C1_6 O3_6 1_555 1_555
C2_6 C1_6 1_555 1_555
C3_6 C2_6 1_555 1_555
H1_6 C3_6 1_555 1_555
C4_6 C3_6 1_555 1_555
H2_6 C4_6 1_555 1_555
C5_6 N1_6 1_555 1_555
C6_6 C5_6 1_555 1_555
C7_6 C2_6 1_555 1_555
H4_6 C7_6 1_555 1_555
Fe8_2 O10_6 1_555 1_555
O9_6 C21_6 1_555 1_555
O10_6 C21_6 1_555 1_555
O11_6 C34_6 1_555 1_555
O13_6 C35_6 1_555 1_555
O14_6 Fe8_2 1_555 1_555
N4_6 N5_6 1_555 1_555
N5_6 C28_6 1_555 1_555
N6_6 C38_6 1_555 1_555
C21_6 C22_6 1_555 1_555
C22_6 C23_6 1_555 1_555
C23_6 H13_6 1_555 1_555
C24_6 C23_6 1_555 1_555
H14_6 C24_6 1_555 1_555
C25_6 N4_6 1_555 1_555
C26_6 C25_6 1_555 1_555
H15_6 C26_6 1_555 1_555
C27_6 C22_6 1_555 1_555
H16_6 C27_6 1_555 1_555
C28_6 C29_6 1_555 1_555
C29_6 H17_6 1_555 1_555
C30_6 C29_6 1_555 1_555
H18_6 C30_6 1_555 1_555
C31_6 C30_6 1_555 1_555
C32_6 C31_6 1_555 1_555
H19_6 C32_6 1_555 1_555
C33_6 C28_6 1_555 1_555
H20_6 C33_6 1_555 1_555
C34_6 O12_6 1_555 1_555
C35_6 O14_6 1_555 1_555
C36_6 C35_6 1_555 1_555
C37_6 C36_6 1_555 1_555
H21_6 C37_6 1_555 1_555
C38_6 C37_6 1_555 1_555
H22_6 C38_6 1_555 1_555
C39_6 N6_6 1_555 1_555
H23_6 C39_6 1_555 1_555
C40_6 C36_6 1_555 1_555
H24_6 C40_6 1_555 1_555
Fe4_5 O9_6 1_555 1_555
Fe6_6 O11_6 1_555 1_555
Fe9_6 N6_6 1_555 1_555
O15_5 Fe8_2 1_555 1_555
O20_6 Fe1_9 1_555 1_555
N7_3 Fe8_2 1_555 1_555
O4_6 C1_6 1_555 1_555
C4_6 C5_6 1_555 1_555
C6_6 C7_6 1_555 1_555
O13_6 Fe4_5 1_555 1_555
C24_6 C25_6 1_555 1_555
C26_6 C27_6 1_555 1_555
C31_6 C34_6 1_555 1_555
C32_6 C33_6 1_555 1_555
C39_6 C40_6 1_555 1_555
Fe4_5 O15_5 1_555 1_555
Fe1_10 O1_10 1_555 1_555
Fe2_6 O1_10 1_555 1_555
O7_6 Fe1_10 1_555 1_555
O8_6 Fe2_6 1_555 1_555
N3_5 C18_6 1_555 1_555
C15_6 O7_6 1_555 1_555
C16_6 C15_6 1_555 1_555
C17_6 C16_6 1_555 1_555
C18_6 C17_6 1_555 1_555
C19_6 N3_5 1_555 1_555
H11_6 C19_6 1_555 1_555
C20_6 C16_6 1_555 1_555
H12_6 C20_6 1_555 1_555
Fe5_5 N3_5 1_555 1_555
O16_6 Fe1_10 1_555 1_555
O18_6 Fe2_6 1_555 1_555
N8_6 Fe2_6 1_555 1_555
O8_6 C15_6 1_555 1_555
C19_6 C20_6 1_555 1_555
Fe7 O10_7 1_555 1_555
O9_7 C21_7 1_555 1_555
O10_7 C21_7 1_555 1_555
O13_7 C35_7 1_555 1_555
O14_7 Fe7 1_555 1_555
N4_7 N5_7 1_555 1_555
N5_7 C28_7 1_555 1_555
N6_7 C38_7 1_555 1_555
C21_7 C22_7 1_555 1_555
C22_7 C23_7 1_555 1_555
C23_7 H13_7 1_555 1_555
C24_7 C23_7 1_555 1_555
H14_7 C24_7 1_555 1_555
C25_7 N4_7 1_555 1_555
C26_7 C25_7 1_555 1_555
H15_7 C26_7 1_555 1_555
C27_7 C22_7 1_555 1_555
H16_7 C27_7 1_555 1_555
C35_7 O14_7 1_555 1_555
C36_7 C35_7 1_555 1_555
C37_7 C36_7 1_555 1_555
H21_7 C37_7 1_555 1_555
C38_7 C37_7 1_555 1_555
H22_7 C38_7 1_555 1_555
C39_7 N6_7 1_555 1_555
H23_7 C39_7 1_555 1_555
C40_7 C36_7 1_555 1_555
H24_7 C40_7 1_555 1_555
Fe4_4 O9_7 1_555 1_555
Fe9_7 N6_7 1_555 1_555
O15_4 Fe7 1_555 1_555
N7_4 Fe7 1_555 1_555
O13_7 Fe4_4 1_555 1_555
C24_7 C25_7 1_555 1_555
C26_7 C27_7 1_555 1_555
C39_7 C40_7 1_555 1_555
Fe1_11 O1_11 1_555 1_555
Fe2_7 O1_11 1_555 1_555
O1_11 Fe6_7 1_555 1_555
O2_10 Fe1_11 1_555 1_555
O3_7 Fe1_11 1_555 1_555
O4_7 Fe2_7 1_555 1_555
O17 C14_7 1_555 1_555
O19_3 C14_7 1_555 1_555
O7_7 Fe1_11 1_555 1_555
O8_7 Fe2_7 1_555 1_555
N1_7 N2_7 1_555 1_555
N2_7 C8_7 1_555 1_555
N3_6 C18_7 1_555 1_555
C1_7 O3_7 1_555 1_555
C2_7 C1_7 1_555 1_555
C3_7 C2_7 1_555 1_555
H1_7 C3_7 1_555 1_555
C4_7 C3_7 1_555 1_555
H2_7 C4_7 1_555 1_555
C5_7 N1_7 1_555 1_555
C6_7 C5_7 1_555 1_555
H3_6 C6_7 1_555 1_555
C7_7 C2_7 1_555 1_555
H4_7 C7_7 1_555 1_555
C8_7 C9_7 1_555 1_555
C9_7 H5_7 1_555 1_555
C10_7 C9_7 1_555 1_555
H6_7 C10_7 1_555 1_555
C11_7 C10_7 1_555 1_555
C12_7 C11_7 1_555 1_555
H7_7 C12_7 1_555 1_555
C13_7 C8_7 1_555 1_555
H8_6 C13_7 1_555 1_555
C14_7 C11_7 1_555 1_555
C15_7 O7_7 1_555 1_555
C16_7 C15_7 1_555 1_555
C17_7 C16_7 1_555 1_555
H9_7 C17_7 1_555 1_555
C18_7 C17_7 1_555 1_555
H10_7 C18_7 1_555 1_555
C19_7 N3_6 1_555 1_555
H11_7 C19_7 1_555 1_555
C20_7 C16_7 1_555 1_555
H12_7 C20_7 1_555 1_555
O11_7 C34_7 1_555 1_555
O12_7 Fe2_7 1_555 1_555
C29_7 H17_7 1_555 1_555
C30_7 C29_7 1_555 1_555
H18_7 C30_7 1_555 1_555
C31_7 C30_7 1_555 1_555
C32_7 C31_7 1_555 1_555
H19_7 C32_7 1_555 1_555
C34_7 O12_7 1_555 1_555
Fe5_6 N3_6 1_555 1_555
Fe6_7 O11_7 1_555 1_555
O16_7 Fe1_11 1_555 1_555
O18_7 Fe2_7 1_555 1_555
O20_7 Fe1_11 1_555 1_555
N8_7 Fe2_7 1_555 1_555
O4_7 C1_7 1_555 1_555
O8_7 C15_7 1_555 1_555
C4_7 C5_7 1_555 1_555
C6_7 C7_7 1_555 1_555
C12_7 C13_7 1_555 1_555
C19_7 C20_7 1_555 1_555
C31_7 C34_7 1_555 1_555
C32_7 C33_7 1_555 1_555
O19_4 C14_8 1_555 1_555
C9_8 H5_8 1_555 1_555
C10_8 C9_8 1_555 1_555
H6_8 C10_8 1_555 1_555
C11_8 C10_8 1_555 1_555
C14_8 C11_8 1_555 1_555
Fe1_12 O1_12 1_555 1_555
Fe2_8 O1_12 1_555 1_555
O1_12 Fe6_8 1_555 1_555
O3_8 Fe1_12 1_555 1_555
O4_8 Fe2_8 1_555 1_555
O7_8 Fe1_12 1_555 1_555
O8_8 Fe2_8 1_555 1_555
N1_8 N2_8 1_555 1_555
N2_8 C8_8 1_555 1_555
N3_7 C18_8 1_555 1_555
C1_8 O3_8 1_555 1_555
C2_8 C1_8 1_555 1_555
C3_8 C2_8 1_555 1_555
H1_8 C3_8 1_555 1_555
C4_8 C3_8 1_555 1_555
H2_8 C4_8 1_555 1_555
C5_8 N1_8 1_555 1_555
C6_8 C5_8 1_555 1_555
C7_8 C2_8 1_555 1_555
H4_8 C7_8 1_555 1_555
C15_8 O7_8 1_555 1_555
C16_8 C15_8 1_555 1_555
C17_8 C16_8 1_555 1_555
C18_8 C17_8 1_555 1_555
C19_8 N3_7 1_555 1_555
H11_8 C19_8 1_555 1_555
C20_8 C16_8 1_555 1_555
H12_8 C20_8 1_555 1_555
Fe7_2 O10_8 1_555 1_555
O9_8 C21_8 1_555 1_555
O10_8 C21_8 1_555 1_555
O11_8 C34_8 1_555 1_555
O12_8 Fe2_8 1_555 1_555
O13_8 C35_8 1_555 1_555
O14_8 Fe7_2 1_555 1_555
N4_8 N5_8 1_555 1_555
N5_8 C28_8 1_555 1_555
N6_8 C38_8 1_555 1_555
C21_8 C22_8 1_555 1_555
C22_8 C23_8 1_555 1_555
C23_8 H13_8 1_555 1_555
C24_8 C23_8 1_555 1_555
H14_8 C24_8 1_555 1_555
C25_8 N4_8 1_555 1_555
C26_8 C25_8 1_555 1_555
H15_8 C26_8 1_555 1_555
C27_8 C22_8 1_555 1_555
H16_8 C27_8 1_555 1_555
C28_8 C29_8 1_555 1_555
C29_8 H17_8 1_555 1_555
C30_8 C29_8 1_555 1_555
H18_8 C30_8 1_555 1_555
C31_8 C30_8 1_555 1_555
C32_8 C31_8 1_555 1_555
H19_8 C32_8 1_555 1_555
C33_8 C28_8 1_555 1_555
H20_8 C33_8 1_555 1_555
C34_8 O12_8 1_555 1_555
C35_8 O14_8 1_555 1_555
C36_8 C35_8 1_555 1_555
C37_8 C36_8 1_555 1_555
H21_8 C37_8 1_555 1_555
C38_8 C37_8 1_555 1_555
H22_8 C38_8 1_555 1_555
C39_8 N6_8 1_555 1_555
H23_8 C39_8 1_555 1_555
C40_8 C36_8 1_555 1_555
H24_8 C40_8 1_555 1_555
Fe4_5 O9_8 1_555 1_555
Fe5_7 N3_7 1_555 1_555
Fe6_8 O11_8 1_555 1_555
Fe9_8 N6_8 1_555 1_555
O15_5 Fe7_2 1_555 1_555
O16_8 Fe1_12 1_555 1_555
O18_8 Fe2_8 1_555 1_555
O20_8 Fe1_12 1_555 1_555
N7_5 Fe7_2 1_555 1_555
N8_8 Fe2_8 1_555 1_555
O4_8 C1_8 1_555 1_555
O8_8 C15_8 1_555 1_555
C4_8 C5_8 1_555 1_555
C6_8 C7_8 1_555 1_555
C19_8 C20_8 1_555 1_555
O13_8 Fe4_5 1_555 1_555
C24_8 C25_8 1_555 1_555
C26_8 C27_8 1_555 1_555
C31_8 C34_8 1_555 1_555
C32_8 C33_8 1_555 1_555
C39_8 C40_8 1_555 1_555
H7_8 C12_8 1_555 1_555
Fe1_13 O1_13 1_555 1_555
Fe5_6 O1_13 1_555 1_555
O2_12 Fe1_13 1_555 1_555
O3_9 Fe1_13 1_555 1_555
O4_9 Fe5_6 1_555 1_555
O18_4 C14_9 1_555 1_555
O6_5 C14_9 1_555 1_555
O7_9 Fe1_13 1_555 1_555
O8_9 Fe5_6 1_555 1_555
N1_9 N2_9 1_555 1_555
N2_9 C8_9 1_555 1_555
N3_8 C18_9 1_555 1_555
C1_9 O3_9 1_555 1_555
C2_9 C1_9 1_555 1_555
C3_9 C2_9 1_555 1_555
H1_9 C3_9 1_555 1_555
C4_9 C3_9 1_555 1_555
H2_9 C4_9 1_555 1_555
C5_9 N1_9 1_555 1_555
C6_9 C5_9 1_555 1_555
H3_8 C6_9 1_555 1_555
C7_9 C2_9 1_555 1_555
H4_9 C7_9 1_555 1_555
C8_9 C9_9 1_555 1_555
C9_9 H5_9 1_555 1_555
C10_9 C9_9 1_555 1_555
H6_9 C10_9 1_555 1_555
C11_9 C10_9 1_555 1_555
C12_9 C11_9 1_555 1_555
H7_9 C12_9 1_555 1_555
C13_9 C8_9 1_555 1_555
H8_8 C13_9 1_555 1_555
C14_9 C11_9 1_555 1_555
C15_9 O7_9 1_555 1_555
C16_9 C15_9 1_555 1_555
C17_9 C16_9 1_555 1_555
H9_9 C17_9 1_555 1_555
C18_9 C17_9 1_555 1_555
H10_9 C18_9 1_555 1_555
C19_9 N3_8 1_555 1_555
H11_9 C19_9 1_555 1_555
C20_9 C16_9 1_555 1_555
H12_9 C20_9 1_555 1_555
Fe6_8 O10_9 1_555 1_555
O16_8 C21_9 1_555 1_555
O10_9 C21_9 1_555 1_555
O12_9 Fe5_6 1_555 1_555
O20_8 C35_9 1_555 1_555
O14_9 Fe6_8 1_555 1_555
N4_9 N5_9 1_555 1_555
N5_9 C28_9 1_555 1_555
N6_9 C38_9 1_555 1_555
C21_9 C22_9 1_555 1_555
C22_9 C23_9 1_555 1_555
C23_9 H13_9 1_555 1_555
C24_9 C23_9 1_555 1_555
H14_9 C24_9 1_555 1_555
C25_9 N4_9 1_555 1_555
C26_9 C25_9 1_555 1_555
C27_9 C22_9 1_555 1_555
H16_9 C27_9 1_555 1_555
C28_9 C29_9 1_555 1_555
C29_9 H17_9 1_555 1_555
C30_9 C29_9 1_555 1_555
H18_9 C30_9 1_555 1_555
C31_9 C30_9 1_555 1_555
C33_9 C28_9 1_555 1_555
C34_9 O12_9 1_555 1_555
C35_9 O14_9 1_555 1_555
C36_9 C35_9 1_555 1_555
C37_9 C36_9 1_555 1_555
C38_9 C37_9 1_555 1_555
C39_9 N6_9 1_555 1_555
H23_9 C39_9 1_555 1_555
C40_9 C36_9 1_555 1_555
H24_9 C40_9 1_555 1_555
Fe5_8 N3_8 1_555 1_555
Fe6_4 O6_5 1_555 1_555
Fe9_9 N6_9 1_555 1_555
O18_9 Fe5_6 1_555 1_555
O19_5 Fe6_8 1_555 1_555
N7_6 Fe6_8 1_555 1_555
O4_9 C1_9 1_555 1_555
O8_9 C15_9 1_555 1_555
C4_9 C5_9 1_555 1_555
C6_9 C7_9 1_555 1_555
C12_9 C13_9 1_555 1_555
C19_9 C20_9 1_555 1_555
C24_9 C25_9 1_555 1_555
C26_9 C27_9 1_555 1_555
C31_9 C34_9 1_555 1_555
C39_9 C40_9 1_555 1_555
Fe1_14 O1_14 1_555 1_555
O1_14 Fe5_4 1_555 1_555
O2_13 Fe1_14 1_555 1_555
H19_9 C32_9 1_555 1_555
Fe5_4 O11_9 1_555 1_555
O16_9 Fe1_14 1_555 1_555
O20_9 Fe1_14 1_555 1_555
O2_13 H25_4 1_555 1_555
O2_13 H26_5 1_555 1_555
Fe1_15 O1_15 1_555 1_555
Fe5_7 O1_15 1_555 1_555
O7_10 Fe1_15 1_555 1_555
O8_10 Fe5_7 1_555 1_555
N3_9 C18_10 1_555 1_555
C15_10 O7_10 1_555 1_555
C16_10 C15_10 1_555 1_555
C17_10 C16_10 1_555 1_555
C18_10 C17_10 1_555 1_555
C19_10 N3_9 1_555 1_555
H11_10 C19_10 1_555 1_555
C20_10 C16_10 1_555 1_555
H12_10 C20_10 1_555 1_555
Fe5_9 N3_9 1_555 1_555
O16_10 Fe1_15 1_555 1_555
O18_10 Fe5_7 1_555 1_555
O8_10 C15_10 1_555 1_555
C19_10 C20_10 1_555 1_555
H7_10 C12_10 1_555 1_555
O2_14 H25_5 1_555 1_555
Fe1_16 O1_16 1_555 1_555
O1_16 Fe5_5 1_555 1_555
O3_10 Fe1_16 1_555 1_555
O6_6 C14_10 1_555 1_555
N1_10 N2_10 1_555 1_555
N2_10 C8_10 1_555 1_555
C1_10 O3_10 1_555 1_555
C2_10 C1_10 1_555 1_555
C3_10 C2_10 1_555 1_555
H1_10 C3_10 1_555 1_555
C4_10 C3_10 1_555 1_555
H2_10 C4_10 1_555 1_555
C5_10 N1_10 1_555 1_555
C6_10 C5_10 1_555 1_555
C7_10 C2_10 1_555 1_555
H4_10 C7_10 1_555 1_555
C8_10 C9_10 1_555 1_555
C9_10 H5_10 1_555 1_555
C10_10 C9_10 1_555 1_555
H6_10 C10_10 1_555 1_555
C11_10 C10_10 1_555 1_555
C13_10 C8_10 1_555 1_555
C14_10 C11_10 1_555 1_555
Fe6_5 O10_10 1_555 1_555
O16_5 C21_10 1_555 1_555
O10_10 C21_10 1_555 1_555
O11_10 C34_10 1_555 1_555
O20_5 C35_10 1_555 1_555
O14_10 Fe6_5 1_555 1_555
N4_10 N5_10 1_555 1_555
N5_10 C28_10 1_555 1_555
N6_10 C38_10 1_555 1_555
C21_10 C22_10 1_555 1_555
C22_10 C23_10 1_555 1_555
C23_10 H13_10 1_555 1_555
C24_10 C23_10 1_555 1_555
H14_10 C24_10 1_555 1_555
C25_10 N4_10 1_555 1_555
C26_10 C25_10 1_555 1_555
H15_10 C26_10 1_555 1_555
C27_10 C22_10 1_555 1_555
H16_10 C27_10 1_555 1_555
C28_10 C29_10 1_555 1_555
C29_10 H17_10 1_555 1_555
C30_10 C29_10 1_555 1_555
H18_10 C30_10 1_555 1_555
C31_10 C30_10 1_555 1_555
C32_10 C31_10 1_555 1_555
H19_10 C32_10 1_555 1_555
C33_10 C28_10 1_555 1_555
H20_10 C33_10 1_555 1_555
C34_10 O12_10 1_555 1_555
C35_10 O14_10 1_555 1_555
C36_10 C35_10 1_555 1_555
C37_10 C36_10 1_555 1_555
H21_10 C37_10 1_555 1_555
C38_10 C37_10 1_555 1_555
H22_10 C38_10 1_555 1_555
C39_10 N6_10 1_555 1_555
H23_10 C39_10 1_555 1_555
C40_10 C36_10 1_555 1_555
H24_10 C40_10 1_555 1_555
Fe5_5 O11_10 1_555 1_555
Fe6 O6_6 1_555 1_555
Fe9_10 N6_10 1_555 1_555
O19_6 Fe6_5 1_555 1_555
O20_10 Fe1_16 1_555 1_555
N7_7 Fe6_5 1_555 1_555
O4_10 C1_10 1_555 1_555
C4_10 C5_10 1_555 1_555
C6_10 C7_10 1_555 1_555
C24_10 C25_10 1_555 1_555
C26_10 C27_10 1_555 1_555
C31_10 C34_10 1_555 1_555
C32_10 C33_10 1_555 1_555
C39_10 C40_10 1_555 1_555
H19_11 C32_11 1_555 1_555
O2_12 H25_6 1_555 1_555
O2_12 H26_6 1_555 1_555
O20_6 C35_11 1_555 1_555
O14_11 Fe6_6 1_555 1_555
N6_11 C38_11 1_555 1_555
C35_11 O14_11 1_555 1_555
C36_11 C35_11 1_555 1_555
C37_11 C36_11 1_555 1_555
C38_11 C37_11 1_555 1_555
C39_11 N6_11 1_555 1_555
H23_11 C39_11 1_555 1_555
C40_11 C36_11 1_555 1_555
H24_11 C40_11 1_555 1_555
Fe9_11 N6_11 1_555 1_555
N7_8 Fe6_6 1_555 1_555
C39_11 C40_11 1_555 1_555
O4_11 Fe5_4 1_555 1_555
O18_2 C14_11 1_555 1_555
O6_7 C14_11 1_555 1_555
O8_11 Fe5_4 1_555 1_555
N1_11 N2_11 1_555 1_555
N2_11 C8_11 1_555 1_555
N3_10 C18_11 1_555 1_555
C1_11 O16_9 1_555 1_555
C2_11 C1_11 1_555 1_555
C3_11 C2_11 1_555 1_555
H1_11 C3_11 1_555 1_555
C4_11 C3_11 1_555 1_555
H2_11 C4_11 1_555 1_555
C5_11 N1_11 1_555 1_555
C6_11 C5_11 1_555 1_555
H3_10 C6_11 1_555 1_555
C7_11 C2_11 1_555 1_555
H4_11 C7_11 1_555 1_555
C8_11 C9_11 1_555 1_555
C9_11 H5_11 1_555 1_555
C10_11 C9_11 1_555 1_555
H6_11 C10_11 1_555 1_555
C11_11 C10_11 1_555 1_555
C12_11 C11_11 1_555 1_555
H7_11 C12_11 1_555 1_555
C13_11 C8_11 1_555 1_555
H8_10 C13_11 1_555 1_555
C14_11 C11_11 1_555 1_555
C15_11 O20_9 1_555 1_555
C16_11 C15_11 1_555 1_555
C17_11 C16_11 1_555 1_555
H9_10 C17_11 1_555 1_555
C18_11 C17_11 1_555 1_555
H10_10 C18_11 1_555 1_555
C19_11 N3_10 1_555 1_555
H11_11 C19_11 1_555 1_555
C20_11 C16_11 1_555 1_555
H12_11 C20_11 1_555 1_555
O16_6 C21_11 1_555 1_555
O10_11 C21_11 1_555 1_555
O12_11 Fe5_4 1_555 1_555
N4_11 N5_11 1_555 1_555
N5_11 C28_11 1_555 1_555
C21_11 C22_11 1_555 1_555
C22_11 C23_11 1_555 1_555
C23_11 H13_11 1_555 1_555
C24_11 C23_11 1_555 1_555
H14_11 C24_11 1_555 1_555
C25_11 N4_11 1_555 1_555
C26_11 C25_11 1_555 1_555
C27_11 C22_11 1_555 1_555
H16_11 C27_11 1_555 1_555
C28_11 C29_11 1_555 1_555
C29_11 H17_11 1_555 1_555
C30_11 C29_11 1_555 1_555
H18_11 C30_11 1_555 1_555
C31_11 C30_11 1_555 1_555
C33_11 C28_11 1_555 1_555
C34_11 O12_11 1_555 1_555
Fe5_10 N3_10 1_555 1_555
O4_11 C1_11 1_555 1_555
O8_11 C15_11 1_555 1_555
C4_11 C5_11 1_555 1_555
C6_11 C7_11 1_555 1_555
C12_11 C13_11 1_555 1_555
C19_11 C20_11 1_555 1_555
C24_11 C25_11 1_555 1_555
C26_11 C27_11 1_555 1_555
C31_11 C34_11 1_555 1_555
H7_12 C12_12 1_555 1_555
O6_8 C14_12 1_555 1_555
C9_12 H5_12 1_555 1_555
C10_12 C9_12 1_555 1_555
H6_12 C10_12 1_555 1_555
C11_12 C10_12 1_555 1_555
C14_12 C11_12 1_555 1_555
Fe6_3 O6_8 1_555 1_555
N1_12 N2_12 1_555 1_555
N2_12 C8_12 1_555 1_555
C1_12 O16_10 1_555 1_555
C2_12 C1_12 1_555 1_555
C3_12 C2_12 1_555 1_555
H1_12 C3_12 1_555 1_555
C4_12 C3_12 1_555 1_555
H2_12 C4_12 1_555 1_555
C5_12 N1_12 1_555 1_555
C6_12 C5_12 1_555 1_555
C7_12 C2_12 1_555 1_555
H4_12 C7_12 1_555 1_555
Fe6_7 O10_12 1_555 1_555
O16_7 C21_12 1_555 1_555
O10_12 C21_12 1_555 1_555
O18_10 C34_12 1_555 1_555
O20_7 C35_12 1_555 1_555
O14_12 Fe6_7 1_555 1_555
N4_12 N5_12 1_555 1_555
N5_12 C28_12 1_555 1_555
N6_12 C38_12 1_555 1_555
C21_12 C22_12 1_555 1_555
C22_12 C23_12 1_555 1_555
C23_12 H13_12 1_555 1_555
C24_12 C23_12 1_555 1_555
H14_12 C24_12 1_555 1_555
C25_12 N4_12 1_555 1_555
C26_12 C25_12 1_555 1_555
H15_12 C26_12 1_555 1_555
C27_12 C22_12 1_555 1_555
H16_12 C27_12 1_555 1_555
C28_12 C29_12 1_555 1_555
C29_12 H17_12 1_555 1_555
C30_12 C29_12 1_555 1_555
H18_12 C30_12 1_555 1_555
C31_12 C30_12 1_555 1_555
C32_12 C31_12 1_555 1_555
H19_12 C32_12 1_555 1_555
C33_12 C28_12 1_555 1_555
H20_12 C33_12 1_555 1_555
C34_12 O12_12 1_555 1_555
C35_12 O14_12 1_555 1_555
C36_12 C35_12 1_555 1_555
C37_12 C36_12 1_555 1_555
H21_11 C37_12 1_555 1_555
C38_12 C37_12 1_555 1_555
H22_11 C38_12 1_555 1_555
C39_12 N6_12 1_555 1_555
H23_12 C39_12 1_555 1_555
C40_12 C36_12 1_555 1_555
H24_12 C40_12 1_555 1_555
Fe9_12 N6_12 1_555 1_555
O19_8 Fe6_7 1_555 1_555
N7_9 Fe6_7 1_555 1_555
O4_12 C1_12 1_555 1_555
C4_12 C5_12 1_555 1_555
C6_12 C7_12 1_555 1_555
C24_12 C25_12 1_555 1_555
C26_12 C27_12 1_555 1_555
C31_12 C34_12 1_555 1_555
C32_12 C33_12 1_555 1_555
C39_12 C40_12 1_555 1_555
O2_14 H26_7 1_555 1_555
O8_12 Fe5_5 1_555 1_555
N3_11 C18_12 1_555 1_555
C15_12 O20_10 1_555 1_555
C16_12 C15_12 1_555 1_555
C17_12 C16_12 1_555 1_555
C18_12 C17_12 1_555 1_555
C19_12 N3_11 1_555 1_555
H11_12 C19_12 1_555 1_555
C20_12 C16_12 1_555 1_555
H12_12 C20_12 1_555 1_555
Fe5_11 N3_11 1_555 1_555
O8_12 C15_12 1_555 1_555
C19_12 C20_12 1_555 1_555
O2_15 Fe4_2 1_555 1_555
O2_16 Fe4_3 1_555 1_555
O2_16 H25_7 1_555 1_555
O2_16 H26_8 1_555 1_555
O2_15 H25_8 1_555 1_555
O2_15 H26_9 1_555 1_555
Fe1_17 O1_17 1_555 1_555
Fe9_8 O1_17 1_555 1_555
O2_18 Fe1_17 1_555 1_555
O3_11 Fe1_17 1_555 1_555
O4_13 Fe9_8 1_555 1_555
O5_5 C14_13 1_555 1_555
O6_9 C14_13 1_555 1_555
O7_11 Fe1_17 1_555 1_555
O8_13 Fe9_8 1_555 1_555
N1_13 N2_13 1_555 1_555
N2_13 C8_13 1_555 1_555
N3_12 C18_13 1_555 1_555
C1_13 O3_11 1_555 1_555
C2_13 C1_13 1_555 1_555
C3_13 C2_13 1_555 1_555
H1_13 C3_13 1_555 1_555
C4_13 C3_13 1_555 1_555
H2_13 C4_13 1_555 1_555
C5_13 N1_13 1_555 1_555
C6_13 C5_13 1_555 1_555
H3_11 C6_13 1_555 1_555
C7_13 C2_13 1_555 1_555
H4_13 C7_13 1_555 1_555
C8_13 C9_13 1_555 1_555
C9_13 H5_13 1_555 1_555
C10_13 C9_13 1_555 1_555
H6_13 C10_13 1_555 1_555
C11_13 C10_13 1_555 1_555
C12_13 C11_13 1_555 1_555
H7_13 C12_13 1_555 1_555
C13_13 C8_13 1_555 1_555
H8_11 C13_13 1_555 1_555
C14_13 C11_13 1_555 1_555
C15_13 O7_11 1_555 1_555
C16_13 C15_13 1_555 1_555
C17_13 C16_13 1_555 1_555
H9_12 C17_13 1_555 1_555
C18_13 C17_13 1_555 1_555
H10_12 C18_13 1_555 1_555
C19_13 N3_12 1_555 1_555
H11_13 C19_13 1_555 1_555
C20_13 C16_13 1_555 1_555
H12_13 C20_13 1_555 1_555
Fe9_7 O10_13 1_555 1_555
O9_9 C21_13 1_555 1_555
O10_13 C21_13 1_555 1_555
O12_13 Fe9_8 1_555 1_555
O13_9 C35_13 1_555 1_555
O14_13 Fe9_7 1_555 1_555
N4_13 N5_13 1_555 1_555
N5_13 C28_13 1_555 1_555
N6_13 C38_13 1_555 1_555
C21_13 C22_13 1_555 1_555
C22_13 C23_13 1_555 1_555
C23_13 H13_13 1_555 1_555
C24_13 C23_13 1_555 1_555
H14_13 C24_13 1_555 1_555
C25_13 N4_13 1_555 1_555
C26_13 C25_13 1_555 1_555
C27_13 C22_13 1_555 1_555
H16_13 C27_13 1_555 1_555
C28_13 C29_13 1_555 1_555
C29_13 H17_13 1_555 1_555
C30_13 C29_13 1_555 1_555
H18_13 C30_13 1_555 1_555
C31_13 C30_13 1_555 1_555
C33_13 C28_13 1_555 1_555
C34_13 O12_13 1_555 1_555
C35_13 O14_13 1_555 1_555
C36_13 C35_13 1_555 1_555
C37_13 C36_13 1_555 1_555
C38_13 C37_13 1_555 1_555
C39_13 N6_13 1_555 1_555
H23_13 C39_13 1_555 1_555
C40_13 C36_13 1_555 1_555
H24_13 C40_13 1_555 1_555
Fe4_6 O9_9 1_555 1_555
Fe6_3 N3_12 1_555 1_555
Fe7_3 O5_5 1_555 1_555
Fe9_5 O6_9 1_555 1_555
Fe6_2 N6_13 1_555 1_555
O15_6 Fe9_7 1_555 1_555
O17_5 Fe9_7 1_555 1_555
O18_11 Fe9_8 1_555 1_555
O19_9 Fe9_7 1_555 1_555
O4_13 C1_13 1_555 1_555
O8_13 C15_13 1_555 1_555
C4_13 C5_13 1_555 1_555
C6_13 C7_13 1_555 1_555
C12_13 C13_13 1_555 1_555
C19_13 C20_13 1_555 1_555
O13_9 Fe4_6 1_555 1_555
C24_13 C25_13 1_555 1_555
C26_13 C27_13 1_555 1_555
C31_13 C34_13 1_555 1_555
C39_13 C40_13 1_555 1_555
Fe4_6 O15_6 1_555 1_555
Fe1_18 O1_18 1_555 1_555
O1_18 Fe6_9 1_555 1_555
O2_19 Fe1_18 1_555 1_555
H19_13 C32_13 1_555 1_555
Fe6_9 O11_11 1_555 1_555
O16_11 Fe1_18 1_555 1_555
O20_11 Fe1_18 1_555 1_555
O2_19 H25_9 1_555 1_555
O2_19 H26_10 1_555 1_555
O6_10 C14_14 1_555 1_555
C9_14 H5_14 1_555 1_555
C10_14 C9_14 1_555 1_555
H6_14 C10_14 1_555 1_555
C11_14 C10_14 1_555 1_555
C14_14 C11_14 1_555 1_555
Fe9_4 O6_10 1_555 1_555
H7_14 C12_14 1_555 1_555
Fe5_8 O5_6 1_555 1_555
Fe2_9 O15_6 1_555 1_555
O3_12 Fe4_6 1_555 1_555
O4_14 Fe2_9 1_555 1_555
O7_12 Fe4_6 1_555 1_555
O8_14 Fe2_9 1_555 1_555
N1_14 N2_14 1_555 1_555
N2_14 C8_14 1_555 1_555
N7_8 C18_14 1_555 1_555
C1_14 O3_12 1_555 1_555
C2_14 C1_14 1_555 1_555
C3_14 C2_14 1_555 1_555
H1_14 C3_14 1_555 1_555
C4_14 C3_14 1_555 1_555
H2_14 C4_14 1_555 1_555
C5_14 N1_14 1_555 1_555
C6_14 C5_14 1_555 1_555
C7_14 C2_14 1_555 1_555
H4_14 C7_14 1_555 1_555
C15_14 O7_12 1_555 1_555
C16_14 C15_14 1_555 1_555
C17_14 C16_14 1_555 1_555
C18_14 C17_14 1_555 1_555
C19_14 N7_8 1_555 1_555
H11_14 C19_14 1_555 1_555
C20_14 C16_14 1_555 1_555
H12_14 C20_14 1_555 1_555
Fe9_2 O10_14 1_555 1_555
O9_10 C21_14 1_555 1_555
O10_14 C21_14 1_555 1_555
O17_5 C34_14 1_555 1_555
O12_14 Fe2_9 1_555 1_555
O13_10 C35_14 1_555 1_555
O14_14 Fe9_2 1_555 1_555
N4_14 N5_14 1_555 1_555
N5_14 C28_14 1_555 1_555
N8 C38_14 1_555 1_555
C21_14 C22_14 1_555 1_555
C22_14 C23_14 1_555 1_555
C23_14 H13_14 1_555 1_555
C24_14 C23_14 1_555 1_555
H14_14 C24_14 1_555 1_555
C25_14 N4_14 1_555 1_555
C26_14 C25_14 1_555 1_555
H15_14 C26_14 1_555 1_555
C27_14 C22_14 1_555 1_555
H16_14 C27_14 1_555 1_555
C28_14 C29_14 1_555 1_555
C29_14 H17_14 1_555 1_555
C30_14 C29_14 1_555 1_555
H18_14 C30_14 1_555 1_555
C31_14 C30_14 1_555 1_555
C32_14 C31_14 1_555 1_555
H19_14 C32_14 1_555 1_555
C33_14 C28_14 1_555 1_555
H20_14 C33_14 1_555 1_555
C34_14 O12_14 1_555 1_555
C35_14 O14_14 1_555 1_555
C36_14 C35_14 1_555 1_555
C37_14 C36_14 1_555 1_555
H21_13 C37_14 1_555 1_555
C38_14 C37_14 1_555 1_555
H22_13 C38_14 1_555 1_555
C39_14 N8 1_555 1_555
H23_14 C39_14 1_555 1_555
C40_14 C36_14 1_555 1_555
H24_14 C40_14 1_555 1_555
Fe4_7 O9_10 1_555 1_555
O15_7 Fe9_2 1_555 1_555
O17_6 Fe9_2 1_555 1_555
O18_12 Fe2_9 1_555 1_555
O19_10 Fe9_2 1_555 1_555
N8_9 Fe2_9 1_555 1_555
O4_14 C1_14 1_555 1_555
O8_14 C15_14 1_555 1_555
C4_14 C5_14 1_555 1_555
C6_14 C7_14 1_555 1_555
C19_14 C20_14 1_555 1_555
O13_10 Fe4_7 1_555 1_555
C24_14 C25_14 1_555 1_555
C26_14 C27_14 1_555 1_555
C31_14 C34_14 1_555 1_555
C32_14 C33_14 1_555 1_555
C39_14 C40_14 1_555 1_555
Fe4_7 O15_7 1_555 1_555
H7_15 C12_15 1_555 1_555
Fe9_4 O5_7 1_555 1_555
O6_11 C14_15 1_555 1_555
C9_15 H5_15 1_555 1_555
C10_15 C9_15 1_555 1_555
H6_15 C10_15 1_555 1_555
C11_15 C10_15 1_555 1_555
C14_15 C11_15 1_555 1_555
Fe5_8 O6_11 1_555 1_555
O2_21 H26_11 1_555 1_555
Fe1_19 O1_19 1_555 1_555
O1_19 Fe9_3 1_555 1_555
O3_13 Fe1_19 1_555 1_555
N1_15 N2_15 1_555 1_555
N2_15 C8_15 1_555 1_555
C1_15 O3_13 1_555 1_555
C2_15 C1_15 1_555 1_555
C3_15 C2_15 1_555 1_555
H1_15 C3_15 1_555 1_555
C4_15 C3_15 1_555 1_555
H2_15 C4_15 1_555 1_555
C5_15 N1_15 1_555 1_555
C6_15 C5_15 1_555 1_555
C7_15 C2_15 1_555 1_555
H4_15 C7_15 1_555 1_555
Fe5_10 O10_15 1_555 1_555
O9_11 C21_15 1_555 1_555
O10_15 C21_15 1_555 1_555
O11_12 C34_15 1_555 1_555
O13_11 C35_15 1_555 1_555
O14_15 Fe5_10 1_555 1_555
N4_15 N5_15 1_555 1_555
N5_15 C28_15 1_555 1_555
N8_5 C38_15 1_555 1_555
C21_15 C22_15 1_555 1_555
C22_15 C23_15 1_555 1_555
C23_15 H13_15 1_555 1_555
C24_15 C23_15 1_555 1_555
H14_15 C24_15 1_555 1_555
C25_15 N4_15 1_555 1_555
C26_15 C25_15 1_555 1_555
H15_15 C26_15 1_555 1_555
C27_15 C22_15 1_555 1_555
H16_15 C27_15 1_555 1_555
C28_15 C29_15 1_555 1_555
C29_15 H17_15 1_555 1_555
C30_15 C29_15 1_555 1_555
H18_15 C30_15 1_555 1_555
C31_15 C30_15 1_555 1_555
C32_15 C31_15 1_555 1_555
H19_15 C32_15 1_555 1_555
C33_15 C28_15 1_555 1_555
H20_15 C33_15 1_555 1_555
C34_15 O12_15 1_555 1_555
C35_15 O14_15 1_555 1_555
C36_15 C35_15 1_555 1_555
C37_15 C36_15 1_555 1_555
H21_14 C37_15 1_555 1_555
C38_15 C37_15 1_555 1_555
H22_14 C38_15 1_555 1_555
C39_15 N8_5 1_555 1_555
H23_15 C39_15 1_555 1_555
C40_15 C36_15 1_555 1_555
H24_15 C40_15 1_555 1_555
Fe4_7 O9_11 1_555 1_555
Fe9_3 O11_12 1_555 1_555
O15_7 Fe5_10 1_555 1_555
O17_7 Fe5_10 1_555 1_555
O19_11 Fe5_10 1_555 1_555
O20_12 Fe1_19 1_555 1_555
O4_15 C1_15 1_555 1_555
C4_15 C5_15 1_555 1_555
C6_15 C7_15 1_555 1_555
O13_11 Fe4_7 1_555 1_555
C24_15 C25_15 1_555 1_555
C26_15 C27_15 1_555 1_555
C31_15 C34_15 1_555 1_555
C32_15 C33_15 1_555 1_555
C39_15 C40_15 1_555 1_555
Fe1_20 O1_20 1_555 1_555
Fe5_11 O1_20 1_555 1_555
O7_13 Fe1_20 1_555 1_555
O8_15 Fe5_11 1_555 1_555
N8_6 C18_15 1_555 1_555
C15_15 O7_13 1_555 1_555
C16_15 C15_15 1_555 1_555
C17_15 C16_15 1_555 1_555
C18_15 C17_15 1_555 1_555
C19_15 N8_6 1_555 1_555
H11_15 C19_15 1_555 1_555
C20_15 C16_15 1_555 1_555
H12_15 C20_15 1_555 1_555
O16_12 Fe1_20 1_555 1_555
O18_13 Fe5_11 1_555 1_555
O8_15 C15_15 1_555 1_555
C19_15 C20_15 1_555 1_555
Fe1_21 O1_21 1_555 1_555
Fe7_3 O1_21 1_555 1_555
O1_21 Fe9_5 1_555 1_555
O2_22 Fe1_21 1_555 1_555
O3_14 Fe1_21 1_555 1_555
O4_16 Fe7_3 1_555 1_555
O7_14 Fe1_21 1_555 1_555
O8_16 Fe7_3 1_555 1_555
N1_16 N2_16 1_555 1_555
N2_16 C8_16 1_555 1_555
N7_6 C18_16 1_555 1_555
C1_16 O3_14 1_555 1_555
C2_16 C1_16 1_555 1_555
C3_16 C2_16 1_555 1_555
H1_16 C3_16 1_555 1_555
C4_16 C3_16 1_555 1_555
H2_16 C4_16 1_555 1_555
C5_16 N1_16 1_555 1_555
C6_16 C5_16 1_555 1_555
H3_13 C6_16 1_555 1_555
C7_16 C2_16 1_555 1_555
H4_16 C7_16 1_555 1_555
C15_16 O7_14 1_555 1_555
C16_16 C15_16 1_555 1_555
C17_16 C16_16 1_555 1_555
H9_15 C17_16 1_555 1_555
C18_16 C17_16 1_555 1_555
H10_15 C18_16 1_555 1_555
C19_16 N7_6 1_555 1_555
H11_16 C19_16 1_555 1_555
C20_16 C16_16 1_555 1_555
H12_16 C20_16 1_555 1_555
Fe9_4 O10_16 1_555 1_555
O9_12 C21_16 1_555 1_555
O10_16 C21_16 1_555 1_555
O11_13 C34_16 1_555 1_555
O12_16 Fe7_3 1_555 1_555
O13_12 C35_16 1_555 1_555
O14_16 Fe9_4 1_555 1_555
N4_16 N5_16 1_555 1_555
N5_16 C28_16 1_555 1_555
N8_3 C38_16 1_555 1_555
C21_16 C22_16 1_555 1_555
C22_16 C23_16 1_555 1_555
C23_16 H13_16 1_555 1_555
C24_16 C23_16 1_555 1_555
H14_16 C24_16 1_555 1_555
C25_16 N4_16 1_555 1_555
C26_16 C25_16 1_555 1_555
H15_16 C26_16 1_555 1_555
C27_16 C22_16 1_555 1_555
H16_16 C27_16 1_555 1_555
C28_16 C29_16 1_555 1_555
C29_16 H17_16 1_555 1_555
C30_16 C29_16 1_555 1_555
H18_16 C30_16 1_555 1_555
C31_16 C30_16 1_555 1_555
C32_16 C31_16 1_555 1_555
H19_16 C32_16 1_555 1_555
C33_16 C28_16 1_555 1_555
H20_16 C33_16 1_555 1_555
C34_16 O12_16 1_555 1_555
C35_16 O14_16 1_555 1_555
C36_16 C35_16 1_555 1_555
C37_16 C36_16 1_555 1_555
H21_15 C37_16 1_555 1_555
C38_16 C37_16 1_555 1_555
H22_15 C38_16 1_555 1_555
C39_16 N8_3 1_555 1_555
H23_16 C39_16 1_555 1_555
C40_16 C36_16 1_555 1_555
H24_16 C40_16 1_555 1_555
Fe4_8 O9_12 1_555 1_555
Fe9_5 O11_13 1_555 1_555
O15_8 Fe9_4 1_555 1_555
O16_13 Fe1_21 1_555 1_555
O20_13 Fe1_21 1_555 1_555
N8_10 Fe7_3 1_555 1_555
O4_16 C1_16 1_555 1_555
O8_16 C15_16 1_555 1_555
C4_16 C5_16 1_555 1_555
C6_16 C7_16 1_555 1_555
C19_16 C20_16 1_555 1_555
O13_12 Fe4_8 1_555 1_555
C24_16 C25_16 1_555 1_555
C26_16 C27_16 1_555 1_555
C31_16 C34_16 1_555 1_555
C32_16 C33_16 1_555 1_555
C39_16 C40_16 1_555 1_555
Fe4_8 O15_8 1_555 1_555
Fe4_9 O15_9 1_555 1_555
O17_7 C14_16 1_555 1_555
O19_10 C14_16 1_555 1_555
C9_16 H5_16 1_555 1_555
C10_16 C9_16 1_555 1_555
H6_16 C10_16 1_555 1_555
C11_16 C10_16 1_555 1_555
C12_16 C11_16 1_555 1_555
H7_16 C12_16 1_555 1_555
C14_16 C11_16 1_555 1_555
C12_16 C13_16 1_555 1_555
Fe1_22 O1_22 1_555 1_555
O1_22 Fe9 1_555 1_555
O2_23 Fe1_22 1_555 1_555
O3_15 Fe1_22 1_555 1_555
N1_17 N2_17 1_555 1_555
N2_17 C8_17 1_555 1_555
C1_17 O3_15 1_555 1_555
C2_17 C1_17 1_555 1_555
C3_17 C2_17 1_555 1_555
H1_17 C3_17 1_555 1_555
C4_17 C3_17 1_555 1_555
H2_17 C4_17 1_555 1_555
C5_17 N1_17 1_555 1_555
C6_17 C5_17 1_555 1_555
H3_14 C6_17 1_555 1_555
C7_17 C2_17 1_555 1_555
H4_17 C7_17 1_555 1_555
Fe5_8 O10_17 1_555 1_555
O9_13 C21_17 1_555 1_555
O10_17 C21_17 1_555 1_555
O11_14 C34_17 1_555 1_555
O13_13 C35_17 1_555 1_555
O14_17 Fe5_8 1_555 1_555
N4_17 N5_17 1_555 1_555
N5_17 C28_17 1_555 1_555
N8_7 C38_17 1_555 1_555
C21_17 C22_17 1_555 1_555
C22_17 C23_17 1_555 1_555
C23_17 H13_17 1_555 1_555
C24_17 C23_17 1_555 1_555
H14_17 C24_17 1_555 1_555
C25_17 N4_17 1_555 1_555
C26_17 C25_17 1_555 1_555
H15_17 C26_17 1_555 1_555
C27_17 C22_17 1_555 1_555
H16_17 C27_17 1_555 1_555
C28_17 C29_17 1_555 1_555
C29_17 H17_17 1_555 1_555
C30_17 C29_17 1_555 1_555
H18_17 C30_17 1_555 1_555
C31_17 C30_17 1_555 1_555
C32_17 C31_17 1_555 1_555
H19_17 C32_17 1_555 1_555
C33_17 C28_17 1_555 1_555
H20_17 C33_17 1_555 1_555
C34_17 O12_17 1_555 1_555
C35_17 O14_17 1_555 1_555
C36_17 C35_17 1_555 1_555
C37_17 C36_17 1_555 1_555
H21_16 C37_17 1_555 1_555
C38_17 C37_17 1_555 1_555
H22_16 C38_17 1_555 1_555
C39_17 N8_7 1_555 1_555
H23_17 C39_17 1_555 1_555
C40_17 C36_17 1_555 1_555
H24_17 C40_17 1_555 1_555
Fe4_9 O9_13 1_555 1_555
Fe9 O11_14 1_555 1_555
O15_9 Fe5_8 1_555 1_555
O20_14 Fe1_22 1_555 1_555
O4_17 C1_17 1_555 1_555
C4_17 C5_17 1_555 1_555
C6_17 C7_17 1_555 1_555
O13_13 Fe4_9 1_555 1_555
C24_17 C25_17 1_555 1_555
C26_17 C27_17 1_555 1_555
C31_17 C34_17 1_555 1_555
C32_17 C33_17 1_555 1_555
C39_17 C40_17 1_555 1_555
O2_23 H25_10 1_555 1_555
Fe1_23 O1_23 1_555 1_555
Fe5_9 O1_23 1_555 1_555
O2_24 Fe1_23 1_555 1_555
O7_15 Fe1_23 1_555 1_555
O8_17 Fe5_9 1_555 1_555
N8_8 C18_17 1_555 1_555
C15_17 O7_15 1_555 1_555
C16_17 C15_17 1_555 1_555
C17_17 C16_17 1_555 1_555
H9_16 C17_17 1_555 1_555
C18_17 C17_17 1_555 1_555
H10_16 C18_17 1_555 1_555
C19_17 N8_8 1_555 1_555
H11_17 C19_17 1_555 1_555
C20_17 C16_17 1_555 1_555
H12_17 C20_17 1_555 1_555
O16_14 Fe1_23 1_555 1_555
O18_14 Fe5_9 1_555 1_555
O8_17 C15_17 1_555 1_555
C19_17 C20_17 1_555 1_555
O2_24 H26_12 1_555 1_555
O17_6 C14_17 1_555 1_555
O19_11 C14_17 1_555 1_555
C9_17 H5_17 1_555 1_555
C10_17 C9_17 1_555 1_555
H6_17 C10_17 1_555 1_555
C11_17 C10_17 1_555 1_555
C12_17 C11_17 1_555 1_555
H7_17 C12_17 1_555 1_555
C14_17 C11_17 1_555 1_555
C12_17 C13_17 1_555 1_555
H19_18 C32_18 1_555 1_555
O2_18 H25_11 1_555 1_555
O2_18 H26_13 1_555 1_555
O20_12 C35_18 1_555 1_555
O14_18 Fe9_3 1_555 1_555
N8_2 C38_18 1_555 1_555
C35_18 O14_18 1_555 1_555
C36_18 C35_18 1_555 1_555
C37_18 C36_18 1_555 1_555
C38_18 C37_18 1_555 1_555
C39_18 N8_2 1_555 1_555
H23_18 C39_18 1_555 1_555
C40_18 C36_18 1_555 1_555
H24_18 C40_18 1_555 1_555
C39_18 C40_18 1_555 1_555
O4_18 Fe6_9 1_555 1_555
O18_14 C14_18 1_555 1_555
O6_12 C14_18 1_555 1_555
O8_18 Fe6_9 1_555 1_555
N1_18 N2_18 1_555 1_555
N2_18 C8_18 1_555 1_555
N7_9 C18_18 1_555 1_555
C1_18 O16_11 1_555 1_555
C2_18 C1_18 1_555 1_555
C3_18 C2_18 1_555 1_555
H1_18 C3_18 1_555 1_555
C4_18 C3_18 1_555 1_555
H2_18 C4_18 1_555 1_555
C5_18 N1_18 1_555 1_555
C6_18 C5_18 1_555 1_555
H3_15 C6_18 1_555 1_555
C7_18 C2_18 1_555 1_555
H4_18 C7_18 1_555 1_555
C8_18 C9_18 1_555 1_555
C9_18 H5_18 1_555 1_555
C10_18 C9_18 1_555 1_555
H6_18 C10_18 1_555 1_555
C11_18 C10_18 1_555 1_555
C12_18 C11_18 1_555 1_555
H7_18 C12_18 1_555 1_555
C13_18 C8_18 1_555 1_555
H8_15 C13_18 1_555 1_555
C14_18 C11_18 1_555 1_555
C15_18 O20_11 1_555 1_555
C16_18 C15_18 1_555 1_555
C17_18 C16_18 1_555 1_555
H9_17 C17_18 1_555 1_555
C18_18 C17_18 1_555 1_555
H10_17 C18_18 1_555 1_555
C19_18 N7_9 1_555 1_555
H11_18 C19_18 1_555 1_555
C20_18 C16_18 1_555 1_555
H12_18 C20_18 1_555 1_555
O16_12 C21_18 1_555 1_555
O10_18 C21_18 1_555 1_555
O12_18 Fe6_9 1_555 1_555
N4_18 N5_18 1_555 1_555
N5_18 C28_18 1_555 1_555
C21_18 C22_18 1_555 1_555
C22_18 C23_18 1_555 1_555
C23_18 H13_18 1_555 1_555
C24_18 C23_18 1_555 1_555
H14_18 C24_18 1_555 1_555
C25_18 N4_18 1_555 1_555
C26_18 C25_18 1_555 1_555
C27_18 C22_18 1_555 1_555
H16_18 C27_18 1_555 1_555
C28_18 C29_18 1_555 1_555
C29_18 H17_18 1_555 1_555
C30_18 C29_18 1_555 1_555
H18_18 C30_18 1_555 1_555
C31_18 C30_18 1_555 1_555
C33_18 C28_18 1_555 1_555
C34_18 O12_18 1_555 1_555
N8_11 Fe6_9 1_555 1_555
O4_18 C1_18 1_555 1_555
O8_18 C15_18 1_555 1_555
C4_18 C5_18 1_555 1_555
C6_18 C7_18 1_555 1_555
C12_18 C13_18 1_555 1_555
C19_18 C20_18 1_555 1_555
C24_18 C25_18 1_555 1_555
C26_18 C27_18 1_555 1_555
C31_18 C34_18 1_555 1_555
O2_25 Fe4_8 1_555 1_555
O2_25 H25_12 1_555 1_555
O2_25 H26_14 1_555 1_555
O2_26 Fe4_9 1_555 1_555
O20_14 C35_19 1_555 1_555
O14_19 Fe9 1_555 1_555
N8_4 C38_19 1_555 1_555
C35_19 O14_19 1_555 1_555
C36_19 C35_19 1_555 1_555
C37_19 C36_19 1_555 1_555
H21_17 C37_19 1_555 1_555
C38_19 C37_19 1_555 1_555
H22_17 C38_19 1_555 1_555
C39_19 N8_4 1_555 1_555
H23_19 C39_19 1_555 1_555
C40_19 C36_19 1_555 1_555
H24_19 C40_19 1_555 1_555
C39_19 C40_19 1_555 1_555
Fe1_24 O1_24 1_555 1_555
Fe2_10 O1_24 1_555 1_555
O1_24 Fe9_6 1_555 1_555
O2_27 Fe1_24 1_555 1_555
O3_16 Fe1_24 1_555 1_555
O4_19 Fe2_10 1_555 1_555
O18_13 C14_19 1_555 1_555
O19_12 C14_19 1_555 1_555
O7_16 Fe1_24 1_555 1_555
O8_19 Fe2_10 1_555 1_555
N1_19 N2_19 1_555 1_555
N2_19 C8_19 1_555 1_555
N7_7 C18_19 1_555 1_555
C1_19 O3_16 1_555 1_555
C2_19 C1_19 1_555 1_555
C3_19 C2_19 1_555 1_555
H1_19 C3_19 1_555 1_555
C4_19 C3_19 1_555 1_555
H2_19 C4_19 1_555 1_555
C5_19 N1_19 1_555 1_555
C6_19 C5_19 1_555 1_555
H3_16 C6_19 1_555 1_555
C7_19 C2_19 1_555 1_555
H4_19 C7_19 1_555 1_555
C8_19 C9_19 1_555 1_555
C9_19 H5_19 1_555 1_555
C10_19 C9_19 1_555 1_555
H6_19 C10_19 1_555 1_555
C11_19 C10_19 1_555 1_555
C12_19 C11_19 1_555 1_555
H7_19 C12_19 1_555 1_555
C13_19 C8_19 1_555 1_555
H8_16 C13_19 1_555 1_555
C14_19 C11_19 1_555 1_555
C15_19 O7_16 1_555 1_555
C16_19 C15_19 1_555 1_555
C17_19 C16_19 1_555 1_555
H9_18 C17_19 1_555 1_555
C18_19 C17_19 1_555 1_555
H10_18 C18_19 1_555 1_555
C19_19 N7_7 1_555 1_555
H11_19 C19_19 1_555 1_555
C20_19 C16_19 1_555 1_555
H12_19 C20_19 1_555 1_555
O16_14 C21_19 1_555 1_555
O10_19 C21_19 1_555 1_555
O11_15 C34_19 1_555 1_555
O12_19 Fe2_10 1_555 1_555
N4_19 N5_19 1_555 1_555
N5_19 C28_19 1_555 1_555
C21_19 C22_19 1_555 1_555
C22_19 C23_19 1_555 1_555
C23_19 H13_19 1_555 1_555
C24_19 C23_19 1_555 1_555
H14_19 C24_19 1_555 1_555
C25_19 N4_19 1_555 1_555
C26_19 C25_19 1_555 1_555
H15_19 C26_19 1_555 1_555
C27_19 C22_19 1_555 1_555
H16_19 C27_19 1_555 1_555
C28_19 C29_19 1_555 1_555
C29_19 H17_19 1_555 1_555
C30_19 C29_19 1_555 1_555
H18_19 C30_19 1_555 1_555
C31_19 C30_19 1_555 1_555
C32_19 C31_19 1_555 1_555
H19_19 C32_19 1_555 1_555
C33_19 C28_19 1_555 1_555
H20_19 C33_19 1_555 1_555
C34_19 O12_19 1_555 1_555
Fe9_6 O11_15 1_555 1_555
O16_15 Fe1_24 1_555 1_555
O18_15 Fe2_10 1_555 1_555
O20_15 Fe1_24 1_555 1_555
N8_12 Fe2_10 1_555 1_555
O4_19 C1_19 1_555 1_555
O8_19 C15_19 1_555 1_555
C4_19 C5_19 1_555 1_555
C6_19 C7_19 1_555 1_555
C12_19 C13_19 1_555 1_555
C19_19 C20_19 1_555 1_555
C24_19 C25_19 1_555 1_555
C26_19 C27_19 1_555 1_555
C31_19 C34_19 1_555 1_555
C32_19 C33_19 1_555 1_555
O9_14 C21_20 1_555 1_555
O10_20 C21_20 1_555 1_555
N4_20 N5_20 1_555 1_555
N5_20 C28_20 1_555 1_555
C21_20 C22_20 1_555 1_555
C22_20 C23_20 1_555 1_555
C23_20 H13_20 1_555 1_555
C24_20 C23_20 1_555 1_555
H14_20 C24_20 1_555 1_555
C25_20 N4_20 1_555 1_555
C26_20 C25_20 1_555 1_555
H15_20 C26_20 1_555 1_555
C27_20 C22_20 1_555 1_555
H16_20 C27_20 1_555 1_555
Fe4_10 O9_14 1_555 1_555
C24_20 C25_20 1_555 1_555
C26_20 C27_20 1_555 1_555
Fe4_10 O15_10 1_555 1_555
O18_7 C34_20 1_555 1_555
C29_20 H17_20 1_555 1_555
C30_20 C29_20 1_555 1_555
H18_20 C30_20 1_555 1_555
C31_20 C30_20 1_555 1_555
C32_20 C31_20 1_555 1_555
H19_20 C32_20 1_555 1_555
C34_20 O19_8 1_555 1_555
C31_20 C34_20 1_555 1_555
C32_20 C33_20 1_555 1_555
O13_14 C35_20 1_555 1_555
O14_20 Fe9_11 1_555 1_555
N8_9 C38_20 1_555 1_555
C35_20 O14_20 1_555 1_555
C36_20 C35_20 1_555 1_555
C37_20 C36_20 1_555 1_555
H21_18 C37_20 1_555 1_555
C38_20 C37_20 1_555 1_555
H22_18 C38_20 1_555 1_555
C39_20 N8_9 1_555 1_555
H23_20 C39_20 1_555 1_555
C40_20 C36_20 1_555 1_555
H24_20 C40_20 1_555 1_555
O15_11 Fe9_11 1_555 1_555
O17_8 Fe9_11 1_555 1_555
O13_14 Fe4_11 1_555 1_555
C39_20 C40_20 1_555 1_555
Fe4_11 O15_11 1_555 1_555
Fe9_12 O10_21 1_555 1_555
O9_15 C21_21 1_555 1_555
O10_21 C21_21 1_555 1_555
O18_8 C34_21 1_555 1_555
O13_15 C35_21 1_555 1_555
O14_21 Fe9_12 1_555 1_555
N4_21 N5_21 1_555 1_555
N5_21 C28_21 1_555 1_555
N8_11 C38_21 1_555 1_555
C21_21 C22_21 1_555 1_555
C22_21 C23_21 1_555 1_555
C23_21 H13_21 1_555 1_555
C24_21 C23_21 1_555 1_555
H14_21 C24_21 1_555 1_555
C25_21 N4_21 1_555 1_555
C26_21 C25_21 1_555 1_555
H15_21 C26_21 1_555 1_555
C27_21 C22_21 1_555 1_555
H16_21 C27_21 1_555 1_555
C28_21 C29_21 1_555 1_555
C29_21 H17_21 1_555 1_555
C30_21 C29_21 1_555 1_555
H18_21 C30_21 1_555 1_555
C31_21 C30_21 1_555 1_555
C32_21 C31_21 1_555 1_555
H19_21 C32_21 1_555 1_555
C33_21 C28_21 1_555 1_555
H20_21 C33_21 1_555 1_555
C34_21 O19_5 1_555 1_555
C35_21 O14_21 1_555 1_555
C36_21 C35_21 1_555 1_555
C37_21 C36_21 1_555 1_555
H21_19 C37_21 1_555 1_555
C38_21 C37_21 1_555 1_555
H22_19 C38_21 1_555 1_555
C39_21 N8_11 1_555 1_555
H23_21 C39_21 1_555 1_555
C40_21 C36_21 1_555 1_555
H24_21 C40_21 1_555 1_555
Fe4_12 O9_15 1_555 1_555
O15_12 Fe9_12 1_555 1_555
O17_9 Fe9_12 1_555 1_555
O19_14 Fe9_12 1_555 1_555
O13_15 Fe4_12 1_555 1_555
C24_21 C25_21 1_555 1_555
C26_21 C27_21 1_555 1_555
C31_21 C34_21 1_555 1_555
C32_21 C33_21 1_555 1_555
C39_21 C40_21 1_555 1_555
Fe4_12 O15_12 1_555 1_555
O13_16 C35_22 1_555 1_555
O14_22 Fe9_9 1_555 1_555
N8_10 C38_22 1_555 1_555
C35_22 O14_22 1_555 1_555
C36_22 C35_22 1_555 1_555
C37_22 C36_22 1_555 1_555
H21_20 C37_22 1_555 1_555
C38_22 C37_22 1_555 1_555
H22_20 C38_22 1_555 1_555
C39_22 N8_10 1_555 1_555
H23_22 C39_22 1_555 1_555
C40_22 C36_22 1_555 1_555
H24_22 C40_22 1_555 1_555
O15_10 Fe9_9 1_555 1_555
O17_10 Fe9_9 1_555 1_555
O13_16 Fe4_10 1_555 1_555
C39_22 C40_22 1_555 1_555
O9_16 C21_22 1_555 1_555
O10_22 C21_22 1_555 1_555
O18_5 C34_22 1_555 1_555
N4_22 N5_22 1_555 1_555
N5_22 C28_22 1_555 1_555
C21_22 C22_22 1_555 1_555
C22_22 C23_22 1_555 1_555
C23_22 H13_22 1_555 1_555
C24_22 C23_22 1_555 1_555
H14_22 C24_22 1_555 1_555
C25_22 N4_22 1_555 1_555
C26_22 C25_22 1_555 1_555
H15_22 C26_22 1_555 1_555
C27_22 C22_22 1_555 1_555
H16_22 C27_22 1_555 1_555
C28_22 C29_22 1_555 1_555
C29_22 H17_22 1_555 1_555
C30_22 C29_22 1_555 1_555
H18_22 C30_22 1_555 1_555
C31_22 C30_22 1_555 1_555
C32_22 C31_22 1_555 1_555
H19_22 C32_22 1_555 1_555
C33_22 C28_22 1_555 1_555
H20_22 C33_22 1_555 1_555
C34_22 O19_6 1_555 1_555
Fe4_11 O9_16 1_555 1_555
C24_22 C25_22 1_555 1_555
C26_22 C27_22 1_555 1_555
C31_22 C34_22 1_555 1_555
C32_22 C33_22 1_555 1_555
O2_9 H25_13 1_555 1_555
Fe9_10 O10_23 1_555 1_555
O9_17 C21_23 1_555 1_555
O10_23 C21_23 1_555 1_555
O18_6 C34_23 1_555 1_555
O13_17 C35_23 1_555 1_555
O14_23 Fe9_10 1_555 1_555
N4_23 N5_23 1_555 1_555
N5_23 C28_23 1_555 1_555
N8_12 C38_23 1_555 1_555
C21_23 C22_23 1_555 1_555
C22_23 C23_23 1_555 1_555
C23_23 H13_23 1_555 1_555
C24_23 C23_23 1_555 1_555
H14_23 C24_23 1_555 1_555
C25_23 N4_23 1_555 1_555
C26_23 C25_23 1_555 1_555
H15_23 C26_23 1_555 1_555
C27_23 C22_23 1_555 1_555
H16_23 C27_23 1_555 1_555
C28_23 C29_23 1_555 1_555
C29_23 H17_23 1_555 1_555
C30_23 C29_23 1_555 1_555
H18_23 C30_23 1_555 1_555
C31_23 C30_23 1_555 1_555
C32_23 C31_23 1_555 1_555
H19_23 C32_23 1_555 1_555
C33_23 C28_23 1_555 1_555
H20_23 C33_23 1_555 1_555
C34_23 O19_7 1_555 1_555
C35_23 O14_23 1_555 1_555
C36_23 C35_23 1_555 1_555
C37_23 C36_23 1_555 1_555
H21_21 C37_23 1_555 1_555
C38_23 C37_23 1_555 1_555
H22_21 C38_23 1_555 1_555
C39_23 N8_12 1_555 1_555
H23_23 C39_23 1_555 1_555
C40_23 C36_23 1_555 1_555
H24_23 C40_23 1_555 1_555
Fe4_12 O9_17 1_555 1_555
O15_12 Fe9_10 1_555 1_555
O17_11 Fe9_10 1_555 1_555
O19_16 Fe9_10 1_555 1_555
O13_17 Fe4_12 1_555 1_555
C24_23 C25_23 1_555 1_555
C26_23 C27_23 1_555 1_555
C31_23 C34_23 1_555 1_555
C32_23 C33_23 1_555 1_555
C39_23 C40_23 1_555 1_555
O2_5 H25_14 1_555 1_555
O2_5 H26_15 1_555 1_555
O4_20 Fe6_3 1_555 1_555
O17_10 C14_20 1_555 1_555
O19_13 C14_20 1_555 1_555
O8_20 Fe6_3 1_555 1_555
N1_20 N2_20 1_555 1_555
N2_20 C8_20 1_555 1_555
N7_5 C18_20 1_555 1_555
C1_20 O16_3 1_555 1_555
C2_20 C1_20 1_555 1_555
C3_20 C2_20 1_555 1_555
H1_20 C3_20 1_555 1_555
C4_20 C3_20 1_555 1_555
H2_20 C4_20 1_555 1_555
C5_20 N1_20 1_555 1_555
C6_20 C5_20 1_555 1_555
H3_17 C6_20 1_555 1_555
C7_20 C2_20 1_555 1_555
H4_20 C7_20 1_555 1_555
C8_20 C9_20 1_555 1_555
C9_20 H5_20 1_555 1_555
C10_20 C9_20 1_555 1_555
H6_20 C10_20 1_555 1_555
C11_20 C10_20 1_555 1_555
C12_20 C11_20 1_555 1_555
H7_20 C12_20 1_555 1_555
C13_20 C8_20 1_555 1_555
H8_17 C13_20 1_555 1_555
C14_20 C11_20 1_555 1_555
C15_20 O20_3 1_555 1_555
C16_20 C15_20 1_555 1_555
C17_20 C16_20 1_555 1_555
H9_19 C17_20 1_555 1_555
C18_20 C17_20 1_555 1_555
H10_19 C18_20 1_555 1_555
C19_20 N7_5 1_555 1_555
H11_20 C19_20 1_555 1_555
C20_20 C16_20 1_555 1_555
H12_20 C20_20 1_555 1_555
O4_20 C1_20 1_555 1_555
O8_20 C15_20 1_555 1_555
C4_20 C5_20 1_555 1_555
C6_20 C7_20 1_555 1_555
C12_20 C13_20 1_555 1_555
C19_20 C20_20 1_555 1_555
O4_21 Fe6_4 1_555 1_555
O17_11 C14_21 1_555 1_555
O19_14 C14_21 1_555 1_555
O8_21 Fe6_4 1_555 1_555
N1_21 N2_21 1_555 1_555
N2_21 C8_21 1_555 1_555
N7_2 C18_21 1_555 1_555
C1_21 O16_4 1_555 1_555
C2_21 C1_21 1_555 1_555
C3_21 C2_21 1_555 1_555
H1_21 C3_21 1_555 1_555
C4_21 C3_21 1_555 1_555
H2_21 C4_21 1_555 1_555
C5_21 N1_21 1_555 1_555
C6_21 C5_21 1_555 1_555
H3_18 C6_21 1_555 1_555
C7_21 C2_21 1_555 1_555
H4_21 C7_21 1_555 1_555
C8_21 C9_21 1_555 1_555
C9_21 H5_21 1_555 1_555
C10_21 C9_21 1_555 1_555
H6_21 C10_21 1_555 1_555
C11_21 C10_21 1_555 1_555
C12_21 C11_21 1_555 1_555
H7_21 C12_21 1_555 1_555
C13_21 C8_21 1_555 1_555
H8_18 C13_21 1_555 1_555
C14_21 C11_21 1_555 1_555
C15_21 O20_4 1_555 1_555
C16_21 C15_21 1_555 1_555
C17_21 C16_21 1_555 1_555
H9_20 C17_21 1_555 1_555
C18_21 C17_21 1_555 1_555
H10_20 C18_21 1_555 1_555
C19_21 N7_2 1_555 1_555
H11_21 C19_21 1_555 1_555
C20_21 C16_21 1_555 1_555
H12_21 C20_21 1_555 1_555
N8_13 Fe6_4 1_555 1_555
O4_21 C1_21 1_555 1_555
O8_21 C15_21 1_555 1_555
C4_21 C5_21 1_555 1_555
C6_21 C7_21 1_555 1_555
C12_21 C13_21 1_555 1_555
C19_21 C20_21 1_555 1_555
O2 H25_15 1_555 1_555
O2 H26_16 1_555 1_555
O4_22 Fe6 1_555 1_555
O17_8 C14_22 1_555 1_555
O19_15 C14_22 1_555 1_555
O8_22 Fe6 1_555 1_555
N1_22 N2_22 1_555 1_555
N2_22 C8_22 1_555 1_555
N7_3 C18_22 1_555 1_555
C1_22 O16 1_555 1_555
C2_22 C1_22 1_555 1_555
C3_22 C2_22 1_555 1_555
H1_22 C3_22 1_555 1_555
C4_22 C3_22 1_555 1_555
H2_22 C4_22 1_555 1_555
C5_22 N1_22 1_555 1_555
C6_22 C5_22 1_555 1_555
H3_19 C6_22 1_555 1_555
C7_22 C2_22 1_555 1_555
H4_22 C7_22 1_555 1_555
C8_22 C9_22 1_555 1_555
C9_22 H5_22 1_555 1_555
C10_22 C9_22 1_555 1_555
H6_22 C10_22 1_555 1_555
C11_22 C10_22 1_555 1_555
C12_22 C11_22 1_555 1_555
H7_22 C12_22 1_555 1_555
C13_22 C8_22 1_555 1_555
H8_19 C13_22 1_555 1_555
C14_22 C11_22 1_555 1_555
C15_22 O20 1_555 1_555
C16_22 C15_22 1_555 1_555
C17_22 C16_22 1_555 1_555
H9_21 C17_22 1_555 1_555
C18_22 C17_22 1_555 1_555
H10_21 C18_22 1_555 1_555
C19_22 N7_3 1_555 1_555
H11_22 C19_22 1_555 1_555
C20_22 C16_22 1_555 1_555
H12_22 C20_22 1_555 1_555
N8_14 Fe6 1_555 1_555
O4_22 C1_22 1_555 1_555
O8_22 C15_22 1_555 1_555
C4_22 C5_22 1_555 1_555
C6_22 C7_22 1_555 1_555
C12_22 C13_22 1_555 1_555
C19_22 C20_22 1_555 1_555
O8_23 Fe6_2 1_555 1_555
N7_4 C18_23 1_555 1_555
C15_23 O20_2 1_555 1_555
C16_23 C15_23 1_555 1_555
C17_23 C16_23 1_555 1_555
H9_22 C17_23 1_555 1_555
C18_23 C17_23 1_555 1_555
H10_22 C18_23 1_555 1_555
C19_23 N7_4 1_555 1_555
H11_23 C19_23 1_555 1_555
C20_23 C16_23 1_555 1_555
H12_23 C20_23 1_555 1_555
O8_23 C15_23 1_555 1_555
C19_23 C20_23 1_555 1_555
O2_3 H26_17 1_555 1_555
O17_9 C14_23 1_555 1_555
O19_16 C14_23 1_555 1_555
N1_23 N2_23 1_555 1_555
N2_23 C8_23 1_555 1_555
C1_23 O16_2 1_555 1_555
C2_23 C1_23 1_555 1_555
C3_23 C2_23 1_555 1_555
H1_23 C3_23 1_555 1_555
C4_23 C3_23 1_555 1_555
H2_23 C4_23 1_555 1_555
C5_23 N1_23 1_555 1_555
C6_23 C5_23 1_555 1_555
H3_20 C6_23 1_555 1_555
C7_23 C2_23 1_555 1_555
H4_23 C7_23 1_555 1_555
C8_23 C9_23 1_555 1_555
C9_23 H5_23 1_555 1_555
C10_23 C9_23 1_555 1_555
H6_23 C10_23 1_555 1_555
C11_23 C10_23 1_555 1_555
C12_23 C11_23 1_555 1_555
H7_23 C12_23 1_555 1_555
C13_23 C8_23 1_555 1_555
H8_20 C13_23 1_555 1_555
C14_23 C11_23 1_555 1_555
O4_23 C1_23 1_555 1_555
C4_23 C5_23 1_555 1_555
C6_23 C7_23 1_555 1_555
C12_23 C13_23 1_555 1_555
O2_4 H25_16 1_555 1_555
O2_28 Fe4_5 1_555 1_555
O2_29 Fe4_4 1_555 1_555
O2_30 Fe4_12 1_555 1_555
O2_31 Fe4_10 1_555 1_555
O2_31 H25_17 1_555 1_555
O2_32 Fe4_11 1_555 1_555
O2_32 H26_18 1_555 1_555
O2_31 H26_19 1_555 1_555
O2_32 H25_18 1_555 1_555
O2_33 Fe4_7 1_555 1_555
O2_23 H26_20 1_555 1_555
O2_24 H25_19 1_555 1_555
O4_24 Fe9_5 1_555 1_555
O18_15 C14_24 1_555 1_555
O6_13 C14_24 1_555 1_555
O8_24 Fe9_5 1_555 1_555
N1_24 N2_24 1_555 1_555
N2_24 C8_24 1_555 1_555
N8_13 C18_24 1_555 1_555
C1_24 O16_13 1_555 1_555
C2_24 C1_24 1_555 1_555
C3_24 C2_24 1_555 1_555
H1_24 C3_24 1_555 1_555
C4_24 C3_24 1_555 1_555
H2_24 C4_24 1_555 1_555
C5_24 N1_24 1_555 1_555
C6_24 C5_24 1_555 1_555
H3_21 C6_24 1_555 1_555
C7_24 C2_24 1_555 1_555
H4_24 C7_24 1_555 1_555
C8_24 C9_24 1_555 1_555
C9_24 H5_24 1_555 1_555
C10_24 C9_24 1_555 1_555
H6_24 C10_24 1_555 1_555
C11_24 C10_24 1_555 1_555
C12_24 C11_24 1_555 1_555
H7_24 C12_24 1_555 1_555
C13_24 C8_24 1_555 1_555
H8_21 C13_24 1_555 1_555
C14_24 C11_24 1_555 1_555
C15_24 O20_13 1_555 1_555
C16_24 C15_24 1_555 1_555
C17_24 C16_24 1_555 1_555
H9_23 C17_24 1_555 1_555
C18_24 C17_24 1_555 1_555
H10_23 C18_24 1_555 1_555
C19_24 N8_13 1_555 1_555
H11_24 C19_24 1_555 1_555
C20_24 C16_24 1_555 1_555
H12_24 C20_24 1_555 1_555
Fe9_6 O6_13 1_555 1_555
O4_24 C1_24 1_555 1_555
O8_24 C15_24 1_555 1_555
C4_24 C5_24 1_555 1_555
C6_24 C7_24 1_555 1_555
C12_24 C13_24 1_555 1_555
C19_24 C20_24 1_555 1_555
O2_21 H25_20 1_555 1_555
Fe9_6 O10_24 1_555 1_555
O16_15 C21_24 1_555 1_555
O10_24 C21_24 1_555 1_555
O18_12 C34_24 1_555 1_555
O20_15 C35_24 1_555 1_555
O14_24 Fe9_6 1_555 1_555
N4_24 N5_24 1_555 1_555
N5_24 C28_24 1_555 1_555
N8_14 C38_24 1_555 1_555
C21_24 C22_24 1_555 1_555
C22_24 C23_24 1_555 1_555
C23_24 H13_24 1_555 1_555
C24_24 C23_24 1_555 1_555
H14_24 C24_24 1_555 1_555
C25_24 N4_24 1_555 1_555
C26_24 C25_24 1_555 1_555
H15_24 C26_24 1_555 1_555
C27_24 C22_24 1_555 1_555
H16_24 C27_24 1_555 1_555
C28_24 C29_24 1_555 1_555
C29_24 H17_24 1_555 1_555
C30_24 C29_24 1_555 1_555
H18_24 C30_24 1_555 1_555
C31_24 C30_24 1_555 1_555
C32_24 C31_24 1_555 1_555
H19_24 C32_24 1_555 1_555
C33_24 C28_24 1_555 1_555
H20_24 C33_24 1_555 1_555
C34_24 O19_9 1_555 1_555
C35_24 O14_24 1_555 1_555
C36_24 C35_24 1_555 1_555
C37_24 C36_24 1_555 1_555
H21_22 C37_24 1_555 1_555
C38_24 C37_24 1_555 1_555
H22_22 C38_24 1_555 1_555
C39_24 N8_14 1_555 1_555
H23_24 C39_24 1_555 1_555
C40_24 C36_24 1_555 1_555
H24_24 C40_24 1_555 1_555
C24_24 C25_24 1_555 1_555
C26_24 C27_24 1_555 1_555
C31_24 C34_24 1_555 1_555
C32_24 C33_24 1_555 1_555
C39_24 C40_24 1_555 1_555
O2_26 H25_21 1_555 1_555
O2_26 H26_21 1_555 1_555
O2_34 H25_22 1_555 1_555
O2_34 H26_22 1_555 1_555
O2_35 H26_23 1_555 1_555
O2_35 H25_23 1_555 1_555
O2_36 H25_24 1_555 1_555
O2_36 H26_24 1_555 1_555

#END
