
###############################################################################
#
# This file contains modified crystal structure data generated from the
# MOF subset of the Cambridge Structural Database (CSD) v543 
# hosted by the Cambridge Crystallographic Data Centre (CCDC).
#
# This work is licensed under the Creative Commons
# Attribution-NonCommercial-ShareAlike 4.0 International License.
# To view a copy of this license, visit
# http://creativecommons.org/licenses/by-nc-sa/4.0/
# or send a letter to
# Creative Commons, PO Box 1866, Mountain View, CA 94042, USA.
#
# CIF created using the CSD Python API on 29 September 2022
# The structure has been converted into the P1 space group
# The structure has a 3D framework
# The original CSD entry VAZHOW is in the monoclinic crystal system
# The framework has been calculated to contain at least 10.0% void space
# The void calculation uses a probe of radius 1.32A, grid spacing 0.4
#
###############################################################################

data_VAZHOW
_chemical_formula_moiety         '(C240 H144 N8 O30 Zn8)n'
_symmetry_cell_setting           triclinic
_symmetry_space_group_name_H-M   'P 1'
_symmetry_Int_Tables_number      1
_space_group_name_Hall           'P 1'
loop_
_symmetry_equiv_pos_site_id
_symmetry_equiv_pos_as_xyz
1 x,y,z
_cell_length_a                   16.1310(12)
_cell_length_b                   26.921(2)
_cell_length_c                   15.634(2)
_cell_angle_alpha                90
_cell_angle_beta                 94.473(2)
_cell_angle_gamma                90
_cell_volume                     6768.58
loop_
_atom_site_label
_atom_site_type_symbol
_atom_site_fract_x
_atom_site_fract_y
_atom_site_fract_z
Zn5 Zn 0.05765(2) 0.99536(2) 0.43270(2)
Zn6 Zn 0.55765(2) 0.50464(2) 0.93270(2)
O10 O 0.38394(14) 0.46092(9) 0.96376(14)
C11 C 0.9473(2) 0.61363(15) 0.3714(2)
H6 H 0.9479 0.6384 0.3281
C12 C 0.8896(2) 0.61691(15) 0.4352(2)
H7 H 0.8518 0.6440 0.4346
C13 C 0.8878(2) 0.58178(14) 0.4968(2)
H8 H 0.8488 0.5846 0.5391
C14 C 0.94340(19) 0.54058(13) 0.4995(2)
N2 N 0.65013(15) 0.51112(9) 0.85288(15)
C31 C 0.7217(2) 0.48728(13) 0.8723(2)
H19 H 0.7290 0.4702 0.9255
C32 C 0.7854(2) 0.48643(14) 0.8186(2)
H20 H 0.8356 0.4691 0.8344
C33 C 0.7747(2) 0.51146(13) 0.7406(2)
C34 C 0.7008(2) 0.53555(13) 0.7206(2)
H21 H 0.6916 0.5530 0.6679
C35 C 0.63987(19) 0.53414(12) 0.7778(2)
H22 H 0.5884 0.5503 0.7627
C36 C 0.8363(2) 0.50945(14) 0.6801(2)
C37 C 0.8845(2) 0.50669(13) 0.6270(2)
C38 C 0.94287(19) 0.50329(13) 0.56313(19)
C39 C 0.9983(2) 0.46284(13) 0.56482(19)
C40 C 0.9984(2) 0.42482(14) 0.6279(2)
H23 H 0.9596 0.4264 0.6705
O5 O 0.47096(13) 0.46537(8) 0.86050(14)
O7 O 0.09441(14) 0.06156(8) 0.48848(15)
O8 O 0.00897(14) 0.06798(8) 0.59334(15)
C45 C 0.40627(18) 0.45011(10) 0.89152(19)
C46 C 0.35200(18) 0.41454(10) 0.8384(2)
C47 C 0.3763(2) 0.39611(11) 0.7611(2)
H27 H 0.4240 0.4092 0.7370
C48 C 0.3304(2) 0.35830(12) 0.7193(2)
H28 H 0.3475 0.3455 0.6669
C49 C 0.2601(2) 0.33901(12) 0.7529(3)
C50 C 0.2333(2) 0.36047(13) 0.8269(3)
H29 H 0.1829 0.3495 0.8482
C51 C 0.2788(2) 0.39738(12) 0.8698(2)
H30 H 0.2601 0.4112 0.9208
C52 C 0.2140(3) 0.29525(14) 0.7179(3)
H31 H 0.1610 0.2895 0.7385
C53 C 0.2381(3) 0.26348(14) 0.6616(3)
H32 H 0.2884 0.2704 0.6363
C54 C 0.1932(3) 0.21767(13) 0.6345(3)
C55 C 0.2207(3) 0.19004(14) 0.5677(3)
H33 H 0.2684 0.2006 0.5406
C56 C 0.1794(2) 0.14691(13) 0.5398(2)
H34 H 0.1984 0.1287 0.4931
C57 C 0.1103(2) 0.13018(11) 0.5799(2)
C58 C 0.0843(3) 0.15693(13) 0.6486(2)
H35 H 0.0382 0.1456 0.6774
C59 C 0.1252(3) 0.20042(15) 0.6757(3)
H36 H 0.1066 0.2185 0.7228
C60 C 0.06749(17) 0.08286(10) 0.55153(18)
O11 O 0.59441(14) 0.43844(8) 0.98848(15)
O14 O 0.49103(14) 0.56798(8) 0.90666(15)
O5_2 O 0.02904(13) 0.96537(8) 0.63950(14)
O6 O 0.11606(14) 0.96092(9) 0.53624(14)
C45_2 C 0.09373(18) 0.95011(10) 0.60848(19)
C46_2 C 0.14800(18) 0.91454(10) 0.6616(2)
C47_2 C 0.1237(2) 0.89611(11) 0.7389(2)
H27_2 H 0.0760 0.9092 0.7630
C48_2 C 0.1696(2) 0.85830(12) 0.7807(2)
H28_2 H 0.1525 0.8455 0.8331
C49_2 C 0.2399(2) 0.83901(12) 0.7471(3)
C50_2 C 0.2667(2) 0.86047(13) 0.6731(3)
H29_2 H 0.3171 0.8495 0.6518
C51_2 C 0.2212(2) 0.89738(12) 0.6302(2)
H30_2 H 0.2399 0.9112 0.5792
C52_2 C 0.2860(3) 0.79525(14) 0.7821(3)
H31_2 H 0.3390 0.7895 0.7615
C53_2 C 0.2619(3) 0.76348(14) 0.8384(3)
H32_2 H 0.2116 0.7704 0.8637
C54_2 C 0.3068(3) 0.71767(13) 0.8655(3)
C55_2 C 0.2793(3) 0.69004(14) 0.9323(3)
H33_2 H 0.2316 0.7006 0.9594
C56_2 C 0.3206(2) 0.64691(13) 0.9602(2)
C57_2 C 0.3897(2) 0.63018(11) 0.9201(2)
C58_2 C 0.4157(3) 0.65693(13) 0.8514(2)
H35_2 H 0.4618 0.6456 0.8226
C59_2 C 0.3748(3) 0.70042(15) 0.8243(3)
H36_2 H 0.3934 0.7185 0.7772
C60_2 C 0.43251(17) 0.58286(10) 0.94847(18)
C1 C 0.2217(2) 0.01272(13) 0.3723(2)
H1 H 0.2290 0.0298 0.4255
C2 C 0.2854(2) 0.01357(14) 0.3186(2)
H2 H 0.3356 0.0309 0.3344
C9 C 0.4983(2) 0.03716(13) 0.06482(19)
C10 C 0.4984(2) 0.07518(14) 0.1279(2)
H5 H 0.4596 0.0736 0.1705
C11_2 C 0.5527(2) 0.11363(15) 0.1286(2)
H6_2 H 0.5521 0.1384 0.1719
C12_2 C 0.6104(2) 0.11691(15) 0.0648(2)
H7_2 H 0.6482 0.1440 0.0654
C13_2 C 0.6122(2) 0.08178(14) 0.0032(2)
C14_2 C 0.55660(19) 0.04058(13) 0.0005(2)
N1 N 0.15013(15) 0.98888(9) 0.35288(15)
C3 C 0.2747(2) 0.98854(13) 0.2406(2)
C4 C 0.2008(2) 0.96445(13) 0.2206(2)
H3 H 0.1916 0.9470 0.1679
C5 C 0.13987(19) 0.96586(12) 0.2778(2)
H4 H 0.0884 0.9497 0.2627
C6 C 0.3363(2) 0.99055(14) 0.1801(2)
C7 C 0.3845(2) 0.99331(13) 0.1270(2)
C8 C 0.44287(19) 0.99671(13) 0.06313(19)
H26 H 0.3488 0.9154 0.0391
H16 H 0.6984 0.3713 0.9931
Zn8 Zn 0.94235(2) 0.00464(2) 0.56730(2)
Zn1 Zn 0.44235(2) 0.49536(2) 0.06730(2)
O1 O 0.52904(13) 0.53463(8) 0.13950(14)
O2 O 0.61606(14) 0.53908(9) 0.03624(14)
O3 O 0.90559(14) 0.93844(8) 0.51152(15)
O4 O 0.99103(14) 0.93202(8) 0.40666(15)
N1_2 N 0.34987(15) 0.48888(9) 0.14712(15)
C1_2 C 0.2783(2) 0.51272(13) 0.1277(2)
H1_2 H 0.2710 0.5298 0.0745
C2_2 C 0.2146(2) 0.51357(14) 0.1814(2)
H2_2 H 0.1644 0.5309 0.1656
C3_2 C 0.2253(2) 0.48854(13) 0.2594(2)
C4_2 C 0.2992(2) 0.46445(13) 0.2794(2)
H3_2 H 0.3084 0.4470 0.3321
C5_2 C 0.36013(19) 0.46586(12) 0.2222(2)
H4_2 H 0.4116 0.4497 0.2373
C6_2 C 0.1637(2) 0.49055(14) 0.3199(2)
C7_2 C 0.1155(2) 0.49331(13) 0.3730(2)
C8_2 C 0.05713(19) 0.49671(13) 0.43687(19)
C9_2 C 0.0017(2) 0.53716(13) 0.43518(19)
C10_2 C 0.0016(2) 0.57518(14) 0.3721(2)
H5_2 H 0.0404 0.5736 0.3295
C15 C 0.59373(18) 0.54989(10) 0.10848(19)
C16 C 0.64800(18) 0.58546(10) 0.1616(2)
C17 C 0.6237(2) 0.60389(11) 0.2389(2)
H9 H 0.5760 0.5908 0.2630
C18 C 0.6696(2) 0.64170(12) 0.2807(2)
H10 H 0.6525 0.6545 0.3331
C19 C 0.7399(2) 0.66099(12) 0.2471(3)
C20 C 0.7667(2) 0.63953(13) 0.1731(3)
H11 H 0.8171 0.6505 0.1518
C21 C 0.7212(2) 0.60262(12) 0.1302(2)
H12 H 0.7399 0.5888 0.0792
C22 C 0.7860(3) 0.70475(14) 0.2821(3)
H13 H 0.8390 0.7105 0.2615
C23 C 0.7619(3) 0.73652(14) 0.3384(3)
H14 H 0.7116 0.7296 0.3637
C24 C 0.8068(3) 0.78233(13) 0.3655(3)
C25 C 0.7793(3) 0.80996(14) 0.4323(3)
H15 H 0.7316 0.7994 0.4594
C26 C 0.8206(2) 0.85309(13) 0.4602(2)
H16_2 H 0.8016 0.8713 0.5069
C27 C 0.8897(2) 0.86982(11) 0.4201(2)
C28 C 0.9157(3) 0.84307(13) 0.3514(2)
H17 H 0.9618 0.8544 0.3226
C29 C 0.8748(3) 0.79958(15) 0.3243(3)
H18 H 0.8934 0.7815 0.2772
C30 C 0.93251(17) 0.91714(10) 0.44847(18)
C41 C 0.0527(2) 0.38637(15) 0.6286(2)
H24 H 0.0521 0.3616 0.6719
C42 C 0.1104(2) 0.38309(15) 0.5648(2)
H25 H 0.1482 0.3560 0.5654
C43 C 0.1122(2) 0.41822(14) 0.5032(2)
H26_2 H 0.1512 0.4154 0.4609
C44 C 0.05660(19) 0.45942(13) 0.5005(2)
O12 O 0.40559(14) 0.56156(8) 0.01152(15)
O13 O 0.50897(14) 0.43202(8) 0.09334(15)
H34_2 H 0.3016 0.6287 0.0069
H8_2 H 0.6512 0.0846 0.9609
N2_2 N 0.84987(15) 0.01112(9) 0.64712(15)
C33_2 C 0.7253(2) 0.01146(13) 0.7594(2)
C34_2 C 0.7992(2) 0.03555(13) 0.7794(2)
H21_2 H 0.8084 0.0530 0.8321
C35_2 C 0.86013(19) 0.03414(12) 0.7222(2)
H22_2 H 0.9116 0.0503 0.7373
C36_2 C 0.6637(2) 0.00945(14) 0.8199(2)
C37_2 C 0.6155(2) 0.00669(13) 0.8730(2)
C38_2 C 0.55713(19) 0.00329(13) 0.93687(19)
O9 O 0.88394(14) 0.03908(9) 0.46376(14)
C31_2 C 0.7783(2) 0.98728(13) 0.6277(2)
H19_2 H 0.7710 0.9702 0.5745
C32_2 C 0.7146(2) 0.98643(14) 0.6814(2)
H20_2 H 0.6644 0.9691 0.6656
C39_2 C 0.5017(2) 0.96284(13) 0.93518(19)
C40_2 C 0.5016(2) 0.92482(14) 0.8721(2)
H23_2 H 0.5404 0.9264 0.8295
C41_2 C 0.4473(2) 0.88637(15) 0.8714(2)
H24_2 H 0.4479 0.8616 0.8281
C42_2 C 0.3896(2) 0.88309(15) 0.9352(2)
H25_2 H 0.3518 0.8560 0.9346
C43_2 C 0.3878(2) 0.91822(14) 0.9968(2)
C44_2 C 0.44340(19) 0.95942(13) 0.9995(2)
O1_2 O 0.97096(13) 0.03463(8) 0.36050(14)
C15_2 C 0.90627(18) 0.04989(10) 0.39152(19)
C16_2 C 0.85200(18) 0.08546(10) 0.3384(2)
C17_2 C 0.8763(2) 0.10389(11) 0.2611(2)
H9_2 H 0.9240 0.0908 0.2370
C18_2 C 0.8304(2) 0.14170(12) 0.2193(2)
H10_2 H 0.8475 0.1545 0.1669
C19_2 C 0.7601(2) 0.16099(12) 0.2529(3)
C20_2 C 0.7333(2) 0.13953(13) 0.3269(3)
H11_2 H 0.6829 0.1505 0.3482
C21_2 C 0.7788(2) 0.10262(12) 0.3698(2)
H12_2 H 0.7601 0.0888 0.4208
C22_2 C 0.7140(3) 0.20475(14) 0.2179(3)
H13_2 H 0.6610 0.2105 0.2385
C23_2 C 0.7381(3) 0.23652(14) 0.1616(3)
H14_2 H 0.7884 0.2296 0.1363
C24_2 C 0.6932(3) 0.28233(13) 0.1345(3)
C25_2 C 0.7207(3) 0.30996(14) 0.0677(3)
H15_2 H 0.7684 0.2994 0.0406
C26_2 C 0.6794(2) 0.35309(13) 0.0398(2)
C27_2 C 0.6103(2) 0.36982(11) 0.0799(2)
C28_2 C 0.5843(3) 0.34307(13) 0.1486(2)
H17_2 H 0.5382 0.3544 0.1774
C29_2 C 0.6252(3) 0.29958(15) 0.1757(3)
H18_2 H 0.6066 0.2815 0.2228
C30_2 C 0.56749(17) 0.41714(10) 0.05153(18)
Zn7 Zn 0.05765(2) 0.00464(2) 0.93270(2)
C11_3 C 0.0527(2) 0.61363(15) 0.1286(2)
H6_3 H 0.0521 0.6384 0.1719
C12_3 C 0.1104(2) 0.61691(15) 0.0648(2)
H7_3 H 0.1482 0.6440 0.0654
C13_3 C 0.1122(2) 0.58178(14) 0.0032(2)
C14_3 C 0.05660(19) 0.54058(13) 0.0005(2)
O7_2 O 0.90559(14) 0.06156(8) 0.01152(15)
H34_3 H 0.8016 0.1287 0.0069
C1_3 C 0.7783(2) 0.01272(13) 0.1277(2)
H1_3 H 0.7710 0.0298 0.0745
C2_3 C 0.7146(2) 0.01357(14) 0.1814(2)
H2_3 H 0.6644 0.0309 0.1656
C9_3 C 0.5017(2) 0.03716(13) 0.43518(19)
C10_3 C 0.5016(2) 0.07518(14) 0.3721(2)
H5_3 H 0.5404 0.0736 0.3295
C11_4 C 0.4473(2) 0.11363(15) 0.3714(2)
H6_4 H 0.4479 0.1384 0.3281
C12_4 C 0.3896(2) 0.11691(15) 0.4352(2)
H7_4 H 0.3518 0.1440 0.4346
C13_4 C 0.3878(2) 0.08178(14) 0.4968(2)
H8_3 H 0.3488 0.0846 0.5391
C14_4 C 0.44340(19) 0.04058(13) 0.4995(2)
N2_3 N 0.15013(15) 0.01112(9) 0.85288(15)
C33_3 C 0.2747(2) 0.01146(13) 0.7406(2)
C34_3 C 0.2008(2) 0.03555(13) 0.7206(2)
H21_3 H 0.1916 0.0530 0.6679
C35_3 C 0.13987(19) 0.03414(12) 0.7778(2)
H22_3 H 0.0884 0.0503 0.7627
C36_3 C 0.3363(2) 0.00945(14) 0.6801(2)
C37_3 C 0.3845(2) 0.00669(13) 0.6270(2)
C38_3 C 0.44287(19) 0.00329(13) 0.56313(19)
H8_4 H 0.1512 0.5846 0.9609
N2_4 N 0.34987(15) 0.51112(9) 0.64712(15)
C31_3 C 0.2783(2) 0.48728(13) 0.6277(2)
H19_3 H 0.2710 0.4702 0.5745
C32_3 C 0.2146(2) 0.48643(14) 0.6814(2)
H20_3 H 0.1644 0.4691 0.6656
C33_4 C 0.2253(2) 0.51146(13) 0.7594(2)
C34_4 C 0.2992(2) 0.53555(13) 0.7794(2)
H21_4 H 0.3084 0.5530 0.8321
C35_4 C 0.36013(19) 0.53414(12) 0.7222(2)
H22_4 H 0.4116 0.5503 0.7373
C36_4 C 0.1637(2) 0.50945(14) 0.8199(2)
C37_4 C 0.1155(2) 0.50669(13) 0.8730(2)
C38_4 C 0.05713(19) 0.50329(13) 0.93687(19)
C39_3 C 0.0017(2) 0.46284(13) 0.93518(19)
C40_3 C 0.0016(2) 0.42482(14) 0.8721(2)
H23_3 H 0.0404 0.4264 0.8295
Zn2 Zn 0.44235(2) 0.50464(2) 0.56730(2)
O5_3 O 0.52904(13) 0.46537(8) 0.63950(14)
O6_2 O 0.61606(14) 0.46092(9) 0.53624(14)
O8_2 O 0.99103(14) 0.06798(8) 0.90666(15)
C45_3 C 0.59373(18) 0.45011(10) 0.60848(19)
C46_3 C 0.64800(18) 0.41454(10) 0.6616(2)
C47_3 C 0.6237(2) 0.39611(11) 0.7389(2)
H27_3 H 0.5760 0.4092 0.7630
C48_3 C 0.6696(2) 0.35830(12) 0.7807(2)
H28_3 H 0.6525 0.3455 0.8331
C49_3 C 0.7399(2) 0.33901(12) 0.7471(3)
C50_3 C 0.7667(2) 0.36047(13) 0.6731(3)
H29_3 H 0.8171 0.3495 0.6518
C51_3 C 0.7212(2) 0.39738(12) 0.6302(2)
H30_3 H 0.7399 0.4112 0.5792
C52_3 C 0.7860(3) 0.29525(14) 0.7821(3)
H31_3 H 0.8390 0.2895 0.7615
C53_3 C 0.7619(3) 0.26348(14) 0.8384(3)
H32_3 H 0.7116 0.2704 0.8637
C54_3 C 0.8068(3) 0.21767(13) 0.8655(3)
C55_3 C 0.7793(3) 0.19004(14) 0.9323(3)
H33_3 H 0.7316 0.2006 0.9594
C56_3 C 0.8206(2) 0.14691(13) 0.9602(2)
C57_3 C 0.8897(2) 0.13018(11) 0.9201(2)
C58_3 C 0.9157(3) 0.15693(13) 0.8514(2)
H35_3 H 0.9618 0.1456 0.8226
C59_3 C 0.8748(3) 0.20042(15) 0.8243(3)
H36_3 H 0.8934 0.2185 0.7772
C60_3 C 0.93251(17) 0.08286(10) 0.94847(18)
Zn3 Zn 0.55765(2) 0.49536(2) 0.43270(2)
O9_2 O 0.38394(14) 0.53908(9) 0.46376(14)
O11_2 O 0.40559(14) 0.43844(8) 0.51152(15)
O14_2 O 0.50897(14) 0.56798(8) 0.59334(15)
O1_3 O 0.47096(13) 0.53463(8) 0.36050(14)
O4_2 O 0.00897(14) 0.93202(8) 0.09334(15)
N1_3 N 0.65013(15) 0.48888(9) 0.35288(15)
C1_4 C 0.7217(2) 0.51272(13) 0.3723(2)
H1_4 H 0.7290 0.5298 0.4255
C2_4 C 0.7854(2) 0.51357(14) 0.3186(2)
H2_4 H 0.8356 0.5309 0.3344
C3_3 C 0.7747(2) 0.48854(13) 0.2406(2)
C4_3 C 0.7008(2) 0.46445(13) 0.2206(2)
H3_3 H 0.6916 0.4470 0.1679
C5_3 C 0.63987(19) 0.46586(12) 0.2778(2)
H4_3 H 0.5884 0.4497 0.2627
C6_3 C 0.8363(2) 0.49055(14) 0.1801(2)
C7_3 C 0.8845(2) 0.49331(13) 0.1270(2)
C8_3 C 0.94287(19) 0.49671(13) 0.06313(19)
C9_4 C 0.9983(2) 0.53716(13) 0.06482(19)
C10_4 C 0.9984(2) 0.57518(14) 0.1279(2)
H5_4 H 0.9596 0.5736 0.1705
C15_3 C 0.40627(18) 0.54989(10) 0.39152(19)
C16_3 C 0.35200(18) 0.58546(10) 0.3384(2)
C17_3 C 0.3763(2) 0.60389(11) 0.2611(2)
H9_3 H 0.4240 0.5908 0.2370
C18_3 C 0.3304(2) 0.64170(12) 0.2193(2)
H10_3 H 0.3475 0.6545 0.1669
C19_3 C 0.2601(2) 0.66099(12) 0.2529(3)
C20_3 C 0.2333(2) 0.63953(13) 0.3269(3)
H11_3 H 0.1829 0.6505 0.3482
C21_3 C 0.2788(2) 0.60262(12) 0.3698(2)
H12_3 H 0.2601 0.5888 0.4208
C22_3 C 0.2140(3) 0.70475(14) 0.2179(3)
H13_3 H 0.1610 0.7105 0.2385
C23_3 C 0.2381(3) 0.73652(14) 0.1616(3)
H14_3 H 0.2884 0.7296 0.1363
C24_3 C 0.1932(3) 0.78233(13) 0.1345(3)
C25_3 C 0.2207(3) 0.80996(14) 0.0677(3)
H15_3 H 0.2684 0.7994 0.0406
C26_3 C 0.1794(2) 0.85309(13) 0.0398(2)
C27_3 C 0.1103(2) 0.86982(11) 0.0799(2)
C28_3 C 0.0843(3) 0.84307(13) 0.1486(2)
H17_3 H 0.0382 0.8544 0.1774
C29_3 C 0.1252(3) 0.79958(15) 0.1757(3)
H18_3 H 0.1066 0.7815 0.2228
C30_3 C 0.06749(17) 0.91714(10) 0.05153(18)
H26_3 H 0.8488 0.4154 0.0391
O12_2 O 0.59441(14) 0.56156(8) 0.48848(15)
O13_2 O 0.49103(14) 0.43202(8) 0.40666(15)
O1_4 O 0.02904(13) 0.03463(8) 0.13950(14)
O2_2 O 0.11606(14) 0.03908(9) 0.03624(14)
C15_4 C 0.09373(18) 0.04989(10) 0.10848(19)
C16_4 C 0.14800(18) 0.08546(10) 0.1616(2)
C17_4 C 0.1237(2) 0.10389(11) 0.2389(2)
H9_4 H 0.0760 0.0908 0.2630
C18_4 C 0.1696(2) 0.14170(12) 0.2807(2)
H10_4 H 0.1525 0.1545 0.3331
C19_4 C 0.2399(2) 0.16099(12) 0.2471(3)
C20_4 C 0.2667(2) 0.13953(13) 0.1731(3)
H11_4 H 0.3171 0.1505 0.1518
C21_4 C 0.2212(2) 0.10262(12) 0.1302(2)
H12_4 H 0.2399 0.0888 0.0792
C22_4 C 0.2860(3) 0.20475(14) 0.2821(3)
H13_4 H 0.3390 0.2105 0.2615
C23_4 C 0.2619(3) 0.23652(14) 0.3384(3)
H14_4 H 0.2116 0.2296 0.3637
C24_4 C 0.3068(3) 0.28233(13) 0.3655(3)
C25_4 C 0.2793(3) 0.30996(14) 0.4323(3)
H15_4 H 0.2316 0.2994 0.4594
C26_4 C 0.3206(2) 0.35309(13) 0.4602(2)
H16_3 H 0.3016 0.3713 0.5069
C27_4 C 0.3897(2) 0.36982(11) 0.4201(2)
C28_4 C 0.4157(3) 0.34307(13) 0.3514(2)
H17_4 H 0.4618 0.3544 0.3226
C29_4 C 0.3748(3) 0.29958(15) 0.3243(3)
H18_4 H 0.3934 0.2815 0.2772
C30_4 C 0.43251(17) 0.41714(10) 0.44847(18)
O10_2 O 0.88394(14) 0.96092(9) 0.96376(14)
O5_4 O 0.97096(13) 0.96537(8) 0.86050(14)
C45_4 C 0.90627(18) 0.95011(10) 0.89152(19)
C46_4 C 0.85200(18) 0.91454(10) 0.8384(2)
C47_4 C 0.8763(2) 0.89611(11) 0.7611(2)
H27_4 H 0.9240 0.9092 0.7370
C48_4 C 0.8304(2) 0.85830(12) 0.7193(2)
H28_4 H 0.8475 0.8455 0.6669
C49_4 C 0.7601(2) 0.83901(12) 0.7529(3)
C50_4 C 0.7333(2) 0.86047(13) 0.8269(3)
H29_4 H 0.6829 0.8495 0.8482
C51_4 C 0.7788(2) 0.89738(12) 0.8698(2)
H30_4 H 0.7601 0.9112 0.9208
C52_4 C 0.7140(3) 0.79525(14) 0.7179(3)
H31_4 H 0.6610 0.7895 0.7385
C53_4 C 0.7381(3) 0.76348(14) 0.6616(3)
H32_4 H 0.7884 0.7704 0.6363
C54_4 C 0.6932(3) 0.71767(13) 0.6345(3)
C55_4 C 0.7207(3) 0.69004(14) 0.5677(3)
H33_4 H 0.7684 0.7006 0.5406
C56_4 C 0.6794(2) 0.64691(13) 0.5398(2)
H34_4 H 0.6984 0.6287 0.4931
C57_4 C 0.6103(2) 0.63018(11) 0.5799(2)
C58_4 C 0.5843(3) 0.65693(13) 0.6486(2)
H35_4 H 0.5382 0.6456 0.6774
C59_4 C 0.6252(3) 0.70042(15) 0.6757(3)
H36_4 H 0.6066 0.7185 0.7228
C60_4 C 0.56749(17) 0.58286(10) 0.55153(18)
Zn4 Zn 0.94235(2) 0.99536(2) 0.06730(2)
O3_2 O 0.09441(14) 0.93844(8) 0.98848(15)
H16_4 H 0.1984 0.8713 0.9931
C41_3 C 0.9473(2) 0.38637(15) 0.8714(2)
H24_3 H 0.9479 0.3616 0.8281
C42_3 C 0.8896(2) 0.38309(15) 0.9352(2)
H25_3 H 0.8518 0.3560 0.9346
C43_3 C 0.8878(2) 0.41822(14) 0.9968(2)
C44_3 C 0.94340(19) 0.45942(13) 0.9995(2)
N1_4 N 0.84987(15) 0.98888(9) 0.14712(15)
C3_4 C 0.7253(2) 0.98854(13) 0.2594(2)
C4_4 C 0.7992(2) 0.96445(13) 0.2794(2)
H3_4 H 0.8084 0.9470 0.3321
C5_4 C 0.86013(19) 0.96586(12) 0.2222(2)
H4_4 H 0.9116 0.9497 0.2373
C6_4 C 0.6637(2) 0.99055(14) 0.3199(2)
C7_4 C 0.6155(2) 0.99331(13) 0.3730(2)
C8_4 C 0.55713(19) 0.99671(13) 0.43687(19)
C31_4 C 0.2217(2) 0.98728(13) 0.8723(2)
H19_4 H 0.2290 0.9702 0.9255
C32_4 C 0.2854(2) 0.98643(14) 0.8186(2)
H20_4 H 0.3356 0.9691 0.8344
C39_4 C 0.4983(2) 0.96284(13) 0.56482(19)
C40_4 C 0.4984(2) 0.92482(14) 0.6279(2)
H23_4 H 0.4596 0.9264 0.6705
C41_4 C 0.5527(2) 0.88637(15) 0.6286(2)
H24_4 H 0.5521 0.8616 0.6719
C42_4 C 0.6104(2) 0.88309(15) 0.5648(2)
H25_4 H 0.6482 0.8560 0.5654
C43_4 C 0.6122(2) 0.91822(14) 0.5032(2)
H26_4 H 0.6512 0.9154 0.4609
C44_4 C 0.55660(19) 0.95942(13) 0.5005(2)
loop_
_geom_bond_atom_site_label_1
_geom_bond_atom_site_label_2
_geom_bond_site_symmetry_1
_geom_bond_site_symmetry_2
H6 C11 1_555 1_555
C12 C11 1_555 1_555
H7 C12 1_555 1_555
C13 C12 1_555 1_555
H8 C13 1_555 1_555
N2 C31 1_555 1_555
C31 H19 1_555 1_555
C32 C31 1_555 1_555
H20 C32 1_555 1_555
C33 C32 1_555 1_555
C34 C33 1_555 1_555
H21 C34 1_555 1_555
C35 N2 1_555 1_555
H22 C35 1_555 1_555
C36 C33 1_555 1_555
C37 C36 1_555 1_555
C38 C14 1_555 1_555
C39 C38 1_555 1_555
C40 C39 1_555 1_555
H23 C40 1_555 1_555
Zn6 N2 1_555 1_555
O5 Zn6 1_555 1_555
O10 C45 1_555 1_555
O7 C60 1_555 1_555
O8 C60 1_555 1_555
C45 O5 1_555 1_555
C46 C45 1_555 1_555
C47 C46 1_555 1_555
H27 C47 1_555 1_555
C48 C47 1_555 1_555
H28 C48 1_555 1_555
C49 C48 1_555 1_555
C50 C49 1_555 1_555
H29 C50 1_555 1_555
C51 C46 1_555 1_555
H30 C51 1_555 1_555
C52 C49 1_555 1_555
H31 C52 1_555 1_555
C53 C52 1_555 1_555
H32 C53 1_555 1_555
C54 C53 1_555 1_555
C55 C54 1_555 1_555
H33 C55 1_555 1_555
C56 C55 1_555 1_555
H34 C56 1_555 1_555
C57 C56 1_555 1_555
C58 C57 1_555 1_555
H35 C58 1_555 1_555
C59 C54 1_555 1_555
H36 C59 1_555 1_555
C60 C57 1_555 1_555
O11 Zn6 1_555 1_555
O14 Zn6 1_555 1_555
C13 C14 1_555 1_555
C34 C35 1_555 1_555
C37 C38 1_555 1_555
C50 C51 1_555 1_555
C58 C59 1_555 1_555
O6 C45_2 1_555 1_555
O14 C60_2 1_555 1_555
C45_2 O5_2 1_555 1_555
C46_2 C45_2 1_555 1_555
C47_2 C46_2 1_555 1_555
H27_2 C47_2 1_555 1_555
C48_2 C47_2 1_555 1_555
H28_2 C48_2 1_555 1_555
C49_2 C48_2 1_555 1_555
C50_2 C49_2 1_555 1_555
H29_2 C50_2 1_555 1_555
C51_2 C46_2 1_555 1_555
H30_2 C51_2 1_555 1_555
C52_2 C49_2 1_555 1_555
H31_2 C52_2 1_555 1_555
C53_2 C52_2 1_555 1_555
H32_2 C53_2 1_555 1_555
C54_2 C53_2 1_555 1_555
C55_2 C54_2 1_555 1_555
H33_2 C55_2 1_555 1_555
C56_2 C55_2 1_555 1_555
C57_2 C56_2 1_555 1_555
C58_2 C57_2 1_555 1_555
H35_2 C58_2 1_555 1_555
C59_2 C54_2 1_555 1_555
H36_2 C59_2 1_555 1_555
C60_2 C57_2 1_555 1_555
Zn5 O6 1_555 1_555
C50_2 C51_2 1_555 1_555
C58_2 C59_2 1_555 1_555
H1 C1 1_555 1_555
C2 C1 1_555 1_555
H2 C2 1_555 1_555
C10 C9 1_555 1_555
H5 C10 1_555 1_555
C11_2 C10 1_555 1_555
H6_2 C11_2 1_555 1_555
C12_2 C11_2 1_555 1_555
H7_2 C12_2 1_555 1_555
C13_2 C12_2 1_555 1_555
C14_2 C9 1_555 1_555
C13_2 C14_2 1_555 1_555
N1 Zn5 1_555 1_555
C4 C3 1_555 1_555
H3 C4 1_555 1_555
C5 N1 1_555 1_555
H4 C5 1_555 1_555
C6 C3 1_555 1_555
C7 C6 1_555 1_555
C8 C7 1_555 1_555
C4 C5 1_555 1_555
Zn1 O1 1_555 1_555
O1 C15 1_555 1_555
O2 C15 1_555 1_555
O3 C30 1_555 1_555
O4 C30 1_555 1_555
N1_2 Zn1 1_555 1_555
C1_2 N1_2 1_555 1_555
H1_2 C1_2 1_555 1_555
C2_2 C1_2 1_555 1_555
H2_2 C2_2 1_555 1_555
C3_2 C2_2 1_555 1_555
C4_2 C3_2 1_555 1_555
H3_2 C4_2 1_555 1_555
C5_2 N1_2 1_555 1_555
H4_2 C5_2 1_555 1_555
C6_2 C3_2 1_555 1_555
C7_2 C6_2 1_555 1_555
C8_2 C7_2 1_555 1_555
C9_2 C8_2 1_555 1_555
C10_2 C9_2 1_555 1_555
H5_2 C10_2 1_555 1_555
C15 C16 1_555 1_555
C16 C17 1_555 1_555
C17 H9 1_555 1_555
C18 C17 1_555 1_555
H10 C18 1_555 1_555
C19 C18 1_555 1_555
C20 C19 1_555 1_555
H11 C20 1_555 1_555
C21 C16 1_555 1_555
H12 C21 1_555 1_555
C22 C19 1_555 1_555
H13 C22 1_555 1_555
C23 C22 1_555 1_555
H14 C23 1_555 1_555
C24 C23 1_555 1_555
C25 C24 1_555 1_555
H15 C25 1_555 1_555
C26 C25 1_555 1_555
H16_2 C26 1_555 1_555
C27 C26 1_555 1_555
C28 C27 1_555 1_555
H17 C28 1_555 1_555
C29 C24 1_555 1_555
H18 C29 1_555 1_555
C30 C27 1_555 1_555
H24 C41 1_555 1_555
C42 C41 1_555 1_555
H25 C42 1_555 1_555
C43 C42 1_555 1_555
H26_2 C43 1_555 1_555
C44 C8_2 1_555 1_555
O12 Zn1 1_555 1_555
O13 Zn1 1_555 1_555
C4_2 C5_2 1_555 1_555
C20 C21 1_555 1_555
C28 C29 1_555 1_555
C43 C44 1_555 1_555
C34_2 C33_2 1_555 1_555
H21_2 C34_2 1_555 1_555
C35_2 N2_2 1_555 1_555
H22_2 C35_2 1_555 1_555
C36_2 C33_2 1_555 1_555
C37_2 C36_2 1_555 1_555
Zn8 N2_2 1_555 1_555
O9 Zn8 1_555 1_555
C34_2 C35_2 1_555 1_555
C37_2 C38_2 1_555 1_555
C31_2 H19_2 1_555 1_555
C32_2 C31_2 1_555 1_555
H20_2 C32_2 1_555 1_555
C40_2 C39_2 1_555 1_555
H23_2 C40_2 1_555 1_555
C41_2 C40_2 1_555 1_555
H24_2 C41_2 1_555 1_555
C42_2 C41_2 1_555 1_555
H25_2 C42_2 1_555 1_555
C43_2 C42_2 1_555 1_555
C39_2 C44_2 1_555 1_555
C43_2 C44_2 1_555 1_555
O1_2 C15_2 1_555 1_555
O9 C15_2 1_555 1_555
O13 C30_2 1_555 1_555
C15_2 C16_2 1_555 1_555
C16_2 C17_2 1_555 1_555
C17_2 H9_2 1_555 1_555
C18_2 C17_2 1_555 1_555
H10_2 C18_2 1_555 1_555
C19_2 C18_2 1_555 1_555
C20_2 C19_2 1_555 1_555
H11_2 C20_2 1_555 1_555
C21_2 C16_2 1_555 1_555
H12_2 C21_2 1_555 1_555
C22_2 C19_2 1_555 1_555
H13_2 C22_2 1_555 1_555
C23_2 C22_2 1_555 1_555
H14_2 C23_2 1_555 1_555
C24_2 C23_2 1_555 1_555
C25_2 C24_2 1_555 1_555
H15_2 C25_2 1_555 1_555
C26_2 C25_2 1_555 1_555
C27_2 C26_2 1_555 1_555
C28_2 C27_2 1_555 1_555
H17_2 C28_2 1_555 1_555
C29_2 C24_2 1_555 1_555
H18_2 C29_2 1_555 1_555
C30_2 C27_2 1_555 1_555
C20_2 C21_2 1_555 1_555
C28_2 C29_2 1_555 1_555
H6_3 C11_3 1_555 1_555
C12_3 C11_3 1_555 1_555
H7_3 C12_3 1_555 1_555
C13_3 C12_3 1_555 1_555
C13_3 C14_3 1_555 1_555
H1_3 C1_3 1_555 1_555
C2_3 C1_3 1_555 1_555
H2_3 C2_3 1_555 1_555
C10_3 C9_3 1_555 1_555
H5_3 C10_3 1_555 1_555
C11_4 C10_3 1_555 1_555
H6_4 C11_4 1_555 1_555
C12_4 C11_4 1_555 1_555
H7_4 C12_4 1_555 1_555
C13_4 C12_4 1_555 1_555
H8_3 C13_4 1_555 1_555
C14_4 C9_3 1_555 1_555
C34_3 C33_3 1_555 1_555
H21_3 C34_3 1_555 1_555
C35_3 N2_3 1_555 1_555
H22_3 C35_3 1_555 1_555
C36_3 C33_3 1_555 1_555
C37_3 C36_3 1_555 1_555
C38_3 C14_4 1_555 1_555
Zn7 N2_3 1_555 1_555
C13_4 C14_4 1_555 1_555
C34_3 C35_3 1_555 1_555
C37_3 C38_3 1_555 1_555
N2_4 C31_3 1_555 1_555
C31_3 H19_3 1_555 1_555
C32_3 C31_3 1_555 1_555
H20_3 C32_3 1_555 1_555
C33_4 C32_3 1_555 1_555
C34_4 C33_4 1_555 1_555
H21_4 C34_4 1_555 1_555
C35_4 N2_4 1_555 1_555
H22_4 C35_4 1_555 1_555
C36_4 C33_4 1_555 1_555
C37_4 C36_4 1_555 1_555
C39_3 C38_4 1_555 1_555
C40_3 C39_3 1_555 1_555
H23_3 C40_3 1_555 1_555
Zn2 N2_4 1_555 1_555
O5_3 Zn2 1_555 1_555
O6_2 C45_3 1_555 1_555
O8_2 C60_3 1_555 1_555
C45_3 O5_3 1_555 1_555
C46_3 C45_3 1_555 1_555
C47_3 C46_3 1_555 1_555
H27_3 C47_3 1_555 1_555
C48_3 C47_3 1_555 1_555
H28_3 C48_3 1_555 1_555
C49_3 C48_3 1_555 1_555
C50_3 C49_3 1_555 1_555
H29_3 C50_3 1_555 1_555
C51_3 C46_3 1_555 1_555
H30_3 C51_3 1_555 1_555
C52_3 C49_3 1_555 1_555
H31_3 C52_3 1_555 1_555
C53_3 C52_3 1_555 1_555
H32_3 C53_3 1_555 1_555
C54_3 C53_3 1_555 1_555
C55_3 C54_3 1_555 1_555
H33_3 C55_3 1_555 1_555
C56_3 C55_3 1_555 1_555
C57_3 C56_3 1_555 1_555
C58_3 C57_3 1_555 1_555
H35_3 C58_3 1_555 1_555
C59_3 C54_3 1_555 1_555
H36_3 C59_3 1_555 1_555
C60_3 C57_3 1_555 1_555
Zn3 O6_2 1_555 1_555
O9_2 Zn2 1_555 1_555
O11_2 Zn2 1_555 1_555
O14_2 Zn2 1_555 1_555
C34_4 C35_4 1_555 1_555
C37_4 C38_4 1_555 1_555
C50_3 C51_3 1_555 1_555
C58_3 C59_3 1_555 1_555
Zn3 O1_3 1_555 1_555
O1_3 C15_3 1_555 1_555
O9_2 C15_3 1_555 1_555
O4_2 C30_3 1_555 1_555
N1_3 Zn3 1_555 1_555
C1_4 N1_3 1_555 1_555
H1_4 C1_4 1_555 1_555
C2_4 C1_4 1_555 1_555
H2_4 C2_4 1_555 1_555
C3_3 C2_4 1_555 1_555
C4_3 C3_3 1_555 1_555
H3_3 C4_3 1_555 1_555
C5_3 N1_3 1_555 1_555
H4_3 C5_3 1_555 1_555
C6_3 C3_3 1_555 1_555
C7_3 C6_3 1_555 1_555
C8_3 C7_3 1_555 1_555
C9_4 C8_3 1_555 1_555
C10_4 C9_4 1_555 1_555
H5_4 C10_4 1_555 1_555
C15_3 C16_3 1_555 1_555
C16_3 C17_3 1_555 1_555
C17_3 H9_3 1_555 1_555
C18_3 C17_3 1_555 1_555
H10_3 C18_3 1_555 1_555
C19_3 C18_3 1_555 1_555
C20_3 C19_3 1_555 1_555
H11_3 C20_3 1_555 1_555
C21_3 C16_3 1_555 1_555
H12_3 C21_3 1_555 1_555
C22_3 C19_3 1_555 1_555
H13_3 C22_3 1_555 1_555
C23_3 C22_3 1_555 1_555
H14_3 C23_3 1_555 1_555
C24_3 C23_3 1_555 1_555
C25_3 C24_3 1_555 1_555
H15_3 C25_3 1_555 1_555
C26_3 C25_3 1_555 1_555
C27_3 C26_3 1_555 1_555
C28_3 C27_3 1_555 1_555
H17_3 C28_3 1_555 1_555
C29_3 C24_3 1_555 1_555
H18_3 C29_3 1_555 1_555
C30_3 C27_3 1_555 1_555
O12_2 Zn3 1_555 1_555
O13_2 Zn3 1_555 1_555
C4_3 C5_3 1_555 1_555
C20_3 C21_3 1_555 1_555
C28_3 C29_3 1_555 1_555
O1_4 C15_4 1_555 1_555
O2_2 C15_4 1_555 1_555
O11_2 C30_4 1_555 1_555
O13_2 C30_4 1_555 1_555
C15_4 C16_4 1_555 1_555
C16_4 C17_4 1_555 1_555
C17_4 H9_4 1_555 1_555
C18_4 C17_4 1_555 1_555
H10_4 C18_4 1_555 1_555
C19_4 C18_4 1_555 1_555
C20_4 C19_4 1_555 1_555
H11_4 C20_4 1_555 1_555
C21_4 C16_4 1_555 1_555
H12_4 C21_4 1_555 1_555
C22_4 C19_4 1_555 1_555
H13_4 C22_4 1_555 1_555
C23_4 C22_4 1_555 1_555
H14_4 C23_4 1_555 1_555
C24_4 C23_4 1_555 1_555
C25_4 C24_4 1_555 1_555
H15_4 C25_4 1_555 1_555
C26_4 C25_4 1_555 1_555
H16_3 C26_4 1_555 1_555
C27_4 C26_4 1_555 1_555
C28_4 C27_4 1_555 1_555
H17_4 C28_4 1_555 1_555
C29_4 C24_4 1_555 1_555
H18_4 C29_4 1_555 1_555
C30_4 C27_4 1_555 1_555
C20_4 C21_4 1_555 1_555
C28_4 C29_4 1_555 1_555
O10_2 C45_4 1_555 1_555
O12_2 C60_4 1_555 1_555
O14_2 C60_4 1_555 1_555
C45_4 O5_4 1_555 1_555
C46_4 C45_4 1_555 1_555
C47_4 C46_4 1_555 1_555
H27_4 C47_4 1_555 1_555
C48_4 C47_4 1_555 1_555
H28_4 C48_4 1_555 1_555
C49_4 C48_4 1_555 1_555
C50_4 C49_4 1_555 1_555
H29_4 C50_4 1_555 1_555
C51_4 C46_4 1_555 1_555
H30_4 C51_4 1_555 1_555
C52_4 C49_4 1_555 1_555
H31_4 C52_4 1_555 1_555
C53_4 C52_4 1_555 1_555
H32_4 C53_4 1_555 1_555
C54_4 C53_4 1_555 1_555
C55_4 C54_4 1_555 1_555
H33_4 C55_4 1_555 1_555
C56_4 C55_4 1_555 1_555
H34_4 C56_4 1_555 1_555
C57_4 C56_4 1_555 1_555
C58_4 C57_4 1_555 1_555
H35_4 C58_4 1_555 1_555
C59_4 C54_4 1_555 1_555
H36_4 C59_4 1_555 1_555
C60_4 C57_4 1_555 1_555
C50_4 C51_4 1_555 1_555
C58_4 C59_4 1_555 1_555
H24_3 C41_3 1_555 1_555
C42_3 C41_3 1_555 1_555
H25_3 C42_3 1_555 1_555
C43_3 C42_3 1_555 1_555
C43_3 C44_3 1_555 1_555
N1_4 Zn4 1_555 1_555
C4_4 C3_4 1_555 1_555
H3_4 C4_4 1_555 1_555
C5_4 N1_4 1_555 1_555
H4_4 C5_4 1_555 1_555
C6_4 C3_4 1_555 1_555
C7_4 C6_4 1_555 1_555
C8_4 C7_4 1_555 1_555
C31_4 H19_4 1_555 1_555
C32_4 C31_4 1_555 1_555
H20_4 C32_4 1_555 1_555
C40_4 C39_4 1_555 1_555
H23_4 C40_4 1_555 1_555
C41_4 C40_4 1_555 1_555
H24_4 C41_4 1_555 1_555
C42_4 C41_4 1_555 1_555
H25_4 C42_4 1_555 1_555
C43_4 C42_4 1_555 1_555
H26_4 C43_4 1_555 1_555
C44_4 C8_4 1_555 1_555
C4_4 C5_4 1_555 1_555
C39_4 C44_4 1_555 1_555
C43_4 C44_4 1_555 1_555

#END
