
###############################################################################
#
# This file contains modified crystal structure data generated from the
# MOF subset of the Cambridge Structural Database (CSD) v543 
# hosted by the Cambridge Crystallographic Data Centre (CCDC).
#
# This work is licensed under the Creative Commons
# Attribution-NonCommercial-ShareAlike 4.0 International License.
# To view a copy of this license, visit
# http://creativecommons.org/licenses/by-nc-sa/4.0/
# or send a letter to
# Creative Commons, PO Box 1866, Mountain View, CA 94042, USA.
#
# CIF created using the CSD Python API on 29 September 2022
# The structure has been converted into the P1 space group
# The structure has a 3D framework
# The original CSD entry VAZJEO is in the tetragonal crystal system
# The framework has been calculated to contain at least 10.0% void space
# The void calculation uses a probe of radius 1.32A, grid spacing 0.4
#
###############################################################################

data_VAZJEO
_chemical_formula_moiety         '(C224 H160 F24 N16 Si4 Zn4)n'
_symmetry_cell_setting           triclinic
_symmetry_space_group_name_H-M   'P 1'
_symmetry_Int_Tables_number      1
_space_group_name_Hall           'P 1'
loop_
_symmetry_equiv_pos_site_id
_symmetry_equiv_pos_as_xyz
1 x,y,z
_cell_length_a                   20.1718(7)
_cell_length_b                   20.1718(7)
_cell_length_c                   15.3648(5)
_cell_angle_alpha                90
_cell_angle_beta                 90
_cell_angle_gamma                90
_cell_volume                     6251.96
loop_
_atom_site_label
_atom_site_type_symbol
_atom_site_fract_x
_atom_site_fract_y
_atom_site_fract_z
N2 N 0.2429(4) 0.1460(4) 0.6608(5)
C15 C 0.2092(4) 0.1137(5) 0.7256(6)
H11 H 0.1888 0.1384 0.7691
C16 C 0.2048(5) 0.0461(5) 0.7278(6)
H12 H 0.1805 0.0256 0.7717
C17 C 0.2362(5) 0.0078(5) 0.6653(7)
C18 C 0.2707(5) 0.0412(5) 0.6016(7)
H13 H 0.2928 0.0180 0.5582
C19 C 0.2720(5) 0.1090(5) 0.6028(6)
H14 H 0.2954 0.1303 0.5588
Zn3 Zn 0.2500 0.2500 0.66192(14)
Si1 Si 0.2500 0.2500 0.4134(3)
F1 F 0.2500 0.2500 0.5287(7)
F2 F 0.2500 0.2500 0.3047(7)
F3 F 0.2075(3) 0.1793(3) 0.4112(4)
N1 N 0.2571(4) 0.3540(4) 0.6608(5)
C1 C 0.2908(4) 0.3863(5) 0.7256(6)
H1 H 0.3112 0.3616 0.7691
C2 C 0.2952(5) 0.4539(5) 0.7278(6)
H2 H 0.3195 0.4744 0.7717
C3 C 0.2638(5) 0.4922(5) 0.6653(7)
C4 C 0.2293(5) 0.4588(5) 0.6016(7)
H3 H 0.2072 0.4820 0.5582
C5 C 0.2280(5) 0.3910(5) 0.6028(6)
H4 H 0.2046 0.3697 0.5588
C6 C 0.2687(5) 0.5653(5) 0.6713(6)
H5 H 0.2970 0.5833 0.7129
C7 C 0.2345(5) 0.6076(5) 0.6196(6)
H6 H 0.2028 0.5898 0.5824
C8 C 0.2441(6) 0.6785(6) 0.6186(7)
C9 C 0.1866(5) 0.7204(5) 0.6183(7)
C10 C 0.1211(6) 0.6919(5) 0.6202(7)
H7 H 0.1159 0.6465 0.6279
C11 C 0.0659(6) 0.7321(5) 0.6106(7)
H8 H 0.0237 0.7136 0.6111
C12 C 0.0735(6) 0.8009(5) 0.6000(7)
H9 H 0.0365 0.8272 0.5904
C13 C 0.1910(6) 0.7912(5) 0.6144(7)
C14 C 0.1348(5) 0.8292(5) 0.6037(6)
H10 H 0.1387 0.8750 0.5988
F4 F 0.3207(3) 0.2075(3) 0.4112(4)
F5 F 0.2925(3) 0.3207(3) 0.4112(4)
F6 F 0.1793(3) 0.2925(3) 0.4112(4)
C20 C 0.2313(5) 0.9347(5) 0.6713(6)
H15 H 0.2030 0.9167 0.7129
C21 C 0.2655(5) 0.8924(5) 0.6196(6)
H16 H 0.2972 0.9102 0.5824
C22 C 0.2559(6) 0.8215(6) 0.6186(7)
C23 C 0.3134(5) 0.7796(5) 0.6183(7)
C24 C 0.3789(6) 0.8081(5) 0.6202(7)
H17 H 0.3841 0.8535 0.6279
C25 C 0.4341(6) 0.7679(5) 0.6106(7)
H18 H 0.4763 0.7864 0.6111
C26 C 0.4265(6) 0.6991(5) 0.6000(7)
H19 H 0.4635 0.6728 0.5904
C27 C 0.3090(6) 0.7088(5) 0.6144(7)
C28 C 0.3652(5) 0.6708(5) 0.6037(6)
H20 H 0.3613 0.6250 0.5988
N3 N 0.1460(4) 0.2571(4) 0.6608(5)
C29 C 0.1137(5) 0.2908(4) 0.7256(6)
H21 H 0.1384 0.3112 0.7691
C30 C 0.0461(5) 0.2952(5) 0.7278(6)
H22 H 0.0256 0.3195 0.7717
C31 C 0.0078(5) 0.2638(5) 0.6653(7)
C32 C 0.0412(5) 0.2293(5) 0.6016(7)
H23 H 0.0180 0.2072 0.5582
C33 C 0.1090(5) 0.2280(5) 0.6028(6)
H24 H 0.1303 0.2046 0.5588
Zn4 Zn 0.2500 0.2500 0.16192(14)
F7 F 0.2500 0.2500 0.8047(7)
N6 N 0.3540(4) 0.2429(4) 0.6608(5)
C34 C 0.9347(5) 0.2687(5) 0.6713(6)
H25 H 0.9167 0.2970 0.7129
C35 C 0.8924(5) 0.2345(5) 0.6196(6)
H26 H 0.9102 0.2028 0.5824
C36 C 0.8215(6) 0.2441(6) 0.6186(7)
C37 C 0.7796(5) 0.1866(5) 0.6183(7)
C38 C 0.8081(5) 0.1211(6) 0.6202(7)
H27 H 0.8535 0.1159 0.6279
C39 C 0.7679(5) 0.0659(6) 0.6106(7)
H28 H 0.7864 0.0237 0.6111
C40 C 0.6991(5) 0.0735(6) 0.6000(7)
H29 H 0.6728 0.0365 0.5904
C41 C 0.7088(5) 0.1910(6) 0.6144(7)
C42 C 0.6708(5) 0.1348(5) 0.6037(6)
H30 H 0.6250 0.1387 0.5988
C43 C 0.3863(5) 0.2092(4) 0.7256(6)
H31 H 0.3616 0.1888 0.7691
C44 C 0.4539(5) 0.2048(5) 0.7278(6)
H32 H 0.4744 0.1805 0.7717
C45 C 0.4922(5) 0.2362(5) 0.6653(7)
C46 C 0.4588(5) 0.2707(5) 0.6016(7)
H33 H 0.4820 0.2928 0.5582
C47 C 0.3910(5) 0.2720(5) 0.6028(6)
H34 H 0.3697 0.2954 0.5588
C48 C 0.5653(5) 0.2313(5) 0.6713(6)
H35 H 0.5833 0.2030 0.7129
C49 C 0.6076(5) 0.2655(5) 0.6196(6)
H36 H 0.5898 0.2972 0.5824
C50 C 0.6785(6) 0.2559(6) 0.6186(7)
C51 C 0.7204(5) 0.3134(5) 0.6183(7)
C52 C 0.6919(5) 0.3789(6) 0.6202(7)
H37 H 0.6465 0.3841 0.6279
C53 C 0.7321(5) 0.4341(6) 0.6106(7)
H38 H 0.7136 0.4763 0.6111
C54 C 0.8009(5) 0.4265(6) 0.6000(7)
H39 H 0.8272 0.4635 0.5904
C55 C 0.7912(5) 0.3090(6) 0.6144(7)
C56 C 0.8292(5) 0.3652(5) 0.6037(6)
H40 H 0.8750 0.3613 0.5988
N4 N 0.1460(4) 0.2429(4) 0.1608(5)
C43_2 C 0.1137(5) 0.2092(4) 0.2256(6)
H31_2 H 0.1384 0.1888 0.2691
C44_2 C 0.0461(5) 0.2048(5) 0.2278(6)
H32_2 H 0.0256 0.1805 0.2717
C45_2 C 0.0078(5) 0.2362(5) 0.1653(7)
C46_2 C 0.0412(5) 0.2707(5) 0.1016(7)
H33_2 H 0.0180 0.2928 0.0582
C47_2 C 0.1090(5) 0.2720(5) 0.1028(6)
H34_2 H 0.1303 0.2954 0.0588
N2_2 N 0.2571(4) 0.1460(4) 0.1608(5)
C15_2 C 0.2908(4) 0.1137(5) 0.2256(6)
H11_2 H 0.3112 0.1384 0.2691
C16_2 C 0.2952(5) 0.0461(5) 0.2278(6)
H12_2 H 0.3195 0.0256 0.2717
C17_2 C 0.2638(5) 0.0078(5) 0.1653(7)
C18_2 C 0.2293(5) 0.0412(5) 0.1016(7)
H13_2 H 0.2072 0.0180 0.0582
C19_2 C 0.2280(5) 0.1090(5) 0.1028(6)
H14_2 H 0.2046 0.1303 0.0588
F1_2 F 0.2500 0.2500 0.0287(7)
N1_2 N 0.2429(4) 0.3540(4) 0.1608(5)
C1_2 C 0.2092(4) 0.3863(5) 0.2256(6)
H1_2 H 0.1888 0.3616 0.2691
C2_2 C 0.2048(5) 0.4539(5) 0.2278(6)
H2_2 H 0.1805 0.4744 0.2717
C3_2 C 0.2362(5) 0.4922(5) 0.1653(7)
C4_2 C 0.2707(5) 0.4588(5) 0.1016(7)
H3_2 H 0.2928 0.4820 0.0582
C5_2 C 0.2720(5) 0.3910(5) 0.1028(6)
H4_2 H 0.2954 0.3697 0.0588
C6_2 C 0.2313(5) 0.5653(5) 0.1713(6)
H5_2 H 0.2030 0.5833 0.2129
C7_2 C 0.2655(5) 0.6076(5) 0.1196(6)
H6_2 H 0.2972 0.5898 0.0824
C8_2 C 0.2559(6) 0.6785(6) 0.1186(7)
C9_2 C 0.3134(5) 0.7204(5) 0.1183(7)
C10_2 C 0.3789(6) 0.6919(5) 0.1202(7)
H7_2 H 0.3841 0.6465 0.1279
C11_2 C 0.4341(6) 0.7321(5) 0.1106(7)
H8_2 H 0.4763 0.7136 0.1111
C12_2 C 0.4265(6) 0.8009(5) 0.1000(7)
H9_2 H 0.4635 0.8272 0.0904
C13_2 C 0.3090(6) 0.7912(5) 0.1144(7)
C14_2 C 0.3652(5) 0.8292(5) 0.1037(6)
H10_2 H 0.3613 0.8750 0.0988
C20_2 C 0.2687(5) 0.9347(5) 0.1713(6)
H15_2 H 0.2970 0.9167 0.2129
C21_2 C 0.2345(5) 0.8924(5) 0.1196(6)
H16_2 H 0.2028 0.9102 0.0824
C22_2 C 0.2441(6) 0.8215(6) 0.1186(7)
C23_2 C 0.1866(5) 0.7796(5) 0.1183(7)
C24_2 C 0.1211(6) 0.8081(5) 0.1202(7)
H17_2 H 0.1159 0.8535 0.1279
C25_2 C 0.0659(6) 0.7679(5) 0.1106(7)
H18_2 H 0.0237 0.7864 0.1111
C26_2 C 0.0735(6) 0.6991(5) 0.1000(7)
H19_2 H 0.0365 0.6728 0.0904
C27_2 C 0.1910(6) 0.7088(5) 0.1144(7)
C28_2 C 0.1348(5) 0.6708(5) 0.1037(6)
H20_2 H 0.1387 0.6250 0.0988
N3_2 N 0.3540(4) 0.2571(4) 0.1608(5)
C29_2 C 0.3863(5) 0.2908(4) 0.2256(6)
H21_2 H 0.3616 0.3112 0.2691
C30_2 C 0.4539(5) 0.2952(5) 0.2278(6)
H22_2 H 0.4744 0.3195 0.2717
C31_2 C 0.4922(5) 0.2638(5) 0.1653(7)
C32_2 C 0.4588(5) 0.2293(5) 0.1016(7)
H23_2 H 0.4820 0.2072 0.0582
C33_2 C 0.3910(5) 0.2280(5) 0.1028(6)
H24_2 H 0.3697 0.2046 0.0588
C34_2 C 0.5653(5) 0.2687(5) 0.1713(6)
H25_2 H 0.5833 0.2970 0.2129
C35_2 C 0.6076(5) 0.2345(5) 0.1196(6)
H26_2 H 0.5898 0.2028 0.0824
C36_2 C 0.6785(6) 0.2441(6) 0.1186(7)
C37_2 C 0.7204(5) 0.1866(5) 0.1183(7)
C38_2 C 0.6919(5) 0.1211(6) 0.1202(7)
H27_2 H 0.6465 0.1159 0.1279
C39_2 C 0.7321(5) 0.0659(6) 0.1106(7)
H28_2 H 0.7136 0.0237 0.1111
C40_2 C 0.8009(5) 0.0735(6) 0.1000(7)
H29_2 H 0.8272 0.0365 0.0904
C41_2 C 0.7912(5) 0.1910(6) 0.1144(7)
C42_2 C 0.8292(5) 0.1348(5) 0.1037(6)
H30_2 H 0.8750 0.1387 0.0988
C48_2 C 0.9347(5) 0.2313(5) 0.1713(6)
H35_2 H 0.9167 0.2030 0.2129
C49_2 C 0.8924(5) 0.2655(5) 0.1196(6)
H36_2 H 0.9102 0.2972 0.0824
C50_2 C 0.8215(6) 0.2559(6) 0.1186(7)
C51_2 C 0.7796(5) 0.3134(5) 0.1183(7)
C52_2 C 0.8081(5) 0.3789(6) 0.1202(7)
H37_2 H 0.8535 0.3841 0.1279
C53_2 C 0.7679(5) 0.4341(6) 0.1106(7)
H38_2 H 0.7864 0.4763 0.1111
C54_2 C 0.6991(5) 0.4265(6) 0.1000(7)
H39_2 H 0.6728 0.4635 0.0904
C55_2 C 0.7088(5) 0.3090(6) 0.1144(7)
C56_2 C 0.6708(5) 0.3652(5) 0.1037(6)
H40_2 H 0.6250 0.3613 0.0988
Si1_2 Si 0.2500 0.2500 0.9134(3)
F3_2 F 0.2925(3) 0.1793(3) 0.9112(4)
F4_2 F 0.1793(3) 0.2075(3) 0.9112(4)
F5_2 F 0.2075(3) 0.3207(3) 0.9112(4)
F6_2 F 0.3207(3) 0.2925(3) 0.9112(4)
Si1_3 Si 0.7500 0.7500 0.0866(3)
F2_2 F 0.7500 0.7500 0.1953(7)
F3_3 F 0.7075(3) 0.8207(3) 0.0888(4)
F4_3 F 0.8207(3) 0.7925(3) 0.0888(4)
F5_3 F 0.7925(3) 0.6793(3) 0.0888(4)
F6_3 F 0.6793(3) 0.7075(3) 0.0888(4)
Zn4_2 Zn 0.7500 0.7500 0.33808(14)
Zn1 Zn 0.7500 0.7500 0.83808(14)
F1_3 F 0.7500 0.7500 0.9713(7)
N1_3 N 0.7571(4) 0.6460(4) 0.8392(5)
C1_3 C 0.7908(4) 0.6137(5) 0.7744(6)
H1_3 H 0.8112 0.6384 0.7309
C2_3 C 0.7952(5) 0.5461(5) 0.7722(6)
H2_3 H 0.8195 0.5256 0.7283
C3_3 C 0.7638(5) 0.5078(5) 0.8347(7)
C4_3 C 0.7293(5) 0.5412(5) 0.8984(7)
H3_3 H 0.7072 0.5180 0.9418
C5_3 C 0.7280(5) 0.6090(5) 0.8972(6)
H4_3 H 0.7046 0.6303 0.9412
C6_3 C 0.7687(5) 0.4347(5) 0.8287(6)
H5_3 H 0.7970 0.4167 0.7871
C7_3 C 0.7345(5) 0.3924(5) 0.8804(6)
H6_3 H 0.7028 0.4102 0.9176
C8_3 C 0.7441(6) 0.3215(6) 0.8814(7)
C9_3 C 0.6866(5) 0.2796(5) 0.8817(7)
C10_3 C 0.6211(6) 0.3081(5) 0.8798(7)
H7_3 H 0.6159 0.3535 0.8721
C11_3 C 0.5659(6) 0.2679(5) 0.8894(7)
H8_3 H 0.5237 0.2864 0.8889
C12_3 C 0.5735(6) 0.1991(5) 0.9000(7)
H9_3 H 0.5365 0.1728 0.9096
C13_3 C 0.6910(6) 0.2088(5) 0.8856(7)
C14_3 C 0.6348(5) 0.1708(5) 0.8963(6)
H10_3 H 0.6387 0.1250 0.9012
C20_3 C 0.7313(5) 0.0653(5) 0.8287(6)
H15_3 H 0.7030 0.0833 0.7871
C21_3 C 0.7655(5) 0.1076(5) 0.8804(6)
H16_3 H 0.7972 0.0898 0.9176
C22_3 C 0.7559(6) 0.1785(6) 0.8814(7)
C23_3 C 0.8134(5) 0.2204(5) 0.8817(7)
C24_3 C 0.8789(6) 0.1919(5) 0.8798(7)
H17_3 H 0.8841 0.1465 0.8721
C25_3 C 0.9341(6) 0.2321(5) 0.8894(7)
H18_3 H 0.9763 0.2136 0.8889
C26_3 C 0.9265(6) 0.3009(5) 0.9000(7)
H19_3 H 0.9635 0.3272 0.9096
C27_3 C 0.8090(6) 0.2912(5) 0.8856(7)
C28_3 C 0.8652(5) 0.3292(5) 0.8963(6)
H20_3 H 0.8613 0.3750 0.9012
N3_3 N 0.6460(4) 0.7429(4) 0.8392(5)
C29_3 C 0.6137(5) 0.7092(4) 0.7744(6)
H21_3 H 0.6384 0.6888 0.7309
C30_3 C 0.5461(5) 0.7048(5) 0.7722(6)
H22_3 H 0.5256 0.6805 0.7283
C31_3 C 0.5078(5) 0.7362(5) 0.8347(7)
C32_3 C 0.5412(5) 0.7707(5) 0.8984(7)
H23_3 H 0.5180 0.7928 0.9418
C33_3 C 0.6090(5) 0.7720(5) 0.8972(6)
H24_3 H 0.6303 0.7954 0.9412
C34_3 C 0.4347(5) 0.7313(5) 0.8287(6)
H25_3 H 0.4167 0.7030 0.7871
C35_3 C 0.3924(5) 0.7655(5) 0.8804(6)
H26_3 H 0.4102 0.7972 0.9176
C36_3 C 0.3215(6) 0.7559(6) 0.8814(7)
C37_3 C 0.2796(5) 0.8134(5) 0.8817(7)
C38_3 C 0.3081(5) 0.8789(6) 0.8798(7)
H27_3 H 0.3535 0.8841 0.8721
C39_3 C 0.2679(5) 0.9341(6) 0.8894(7)
H28_3 H 0.2864 0.9763 0.8889
C40_3 C 0.1991(5) 0.9265(6) 0.9000(7)
H29_3 H 0.1728 0.9635 0.9096
C41_3 C 0.2088(5) 0.8090(6) 0.8856(7)
C42_3 C 0.1708(5) 0.8652(5) 0.8963(6)
H30_3 H 0.1250 0.8613 0.9012
C48_3 C 0.0653(5) 0.7687(5) 0.8287(6)
H35_3 H 0.0833 0.7970 0.7871
C49_3 C 0.1076(5) 0.7345(5) 0.8804(6)
H36_3 H 0.0898 0.7028 0.9176
C50_3 C 0.1785(6) 0.7441(6) 0.8814(7)
C51_3 C 0.2204(5) 0.6866(5) 0.8817(7)
C52_3 C 0.1919(5) 0.6211(6) 0.8798(7)
H37_3 H 0.1465 0.6159 0.8721
C53_3 C 0.2321(5) 0.5659(6) 0.8894(7)
H38_3 H 0.2136 0.5237 0.8889
C54_3 C 0.3009(5) 0.5735(6) 0.9000(7)
H39_3 H 0.3272 0.5365 0.9096
C55_3 C 0.2912(5) 0.6910(6) 0.8856(7)
C56_3 C 0.3292(5) 0.6348(5) 0.8963(6)
H40_3 H 0.3750 0.6387 0.9012
F7_2 F 0.7500 0.7500 0.6953(7)
N5 N 0.7429(4) 0.8540(4) 0.8392(5)
N6_2 N 0.8540(4) 0.7571(4) 0.8392(5)
C15_3 C 0.7092(4) 0.8863(5) 0.7744(6)
H11_3 H 0.6888 0.8616 0.7309
C16_3 C 0.7048(5) 0.9539(5) 0.7722(6)
H12_3 H 0.6805 0.9744 0.7283
C17_3 C 0.7362(5) 0.9922(5) 0.8347(7)
C18_3 C 0.7707(5) 0.9588(5) 0.8984(7)
H13_3 H 0.7928 0.9820 0.9418
C19_3 C 0.7720(5) 0.8910(5) 0.8972(6)
H14_3 H 0.7954 0.8697 0.9412
C43_3 C 0.8863(5) 0.7908(4) 0.7744(6)
H31_3 H 0.8616 0.8112 0.7309
C44_3 C 0.9539(5) 0.7952(5) 0.7722(6)
H32_3 H 0.9744 0.8195 0.7283
C45_3 C 0.9922(5) 0.7638(5) 0.8347(7)
C46_3 C 0.9588(5) 0.7293(5) 0.8984(7)
H33_3 H 0.9820 0.7072 0.9418
C47_3 C 0.8910(5) 0.7280(5) 0.8972(6)
H34_3 H 0.8697 0.7046 0.9412
C34_4 C 0.0653(5) 0.7313(5) 0.3287(6)
H25_4 H 0.0833 0.7030 0.2871
C35_4 C 0.1076(5) 0.7655(5) 0.3804(6)
H26_4 H 0.0898 0.7972 0.4176
C36_4 C 0.1785(6) 0.7559(6) 0.3814(7)
C37_4 C 0.2204(5) 0.8134(5) 0.3817(7)
C38_4 C 0.1919(5) 0.8789(6) 0.3798(7)
H27_4 H 0.1465 0.8841 0.3721
C39_4 C 0.2321(5) 0.9341(6) 0.3894(7)
H28_4 H 0.2136 0.9763 0.3889
C40_4 C 0.3009(5) 0.9265(6) 0.4000(7)
H29_4 H 0.3272 0.9635 0.4096
C41_4 C 0.2912(5) 0.8090(6) 0.3856(7)
C42_4 C 0.3292(5) 0.8652(5) 0.3963(6)
H30_4 H 0.3750 0.8613 0.4012
N4_2 N 0.6460(4) 0.7571(4) 0.3392(5)
C43_4 C 0.6137(5) 0.7908(4) 0.2744(6)
H31_4 H 0.6384 0.8112 0.2309
C44_4 C 0.5461(5) 0.7952(5) 0.2722(6)
H32_4 H 0.5256 0.8195 0.2283
C45_4 C 0.5078(5) 0.7638(5) 0.3347(7)
C46_4 C 0.5412(5) 0.7293(5) 0.3984(7)
H33_4 H 0.5180 0.7072 0.4418
C47_4 C 0.6090(5) 0.7280(5) 0.3972(6)
H34_4 H 0.6303 0.7046 0.4412
C48_4 C 0.4347(5) 0.7687(5) 0.3287(6)
H35_4 H 0.4167 0.7970 0.2871
C49_4 C 0.3924(5) 0.7345(5) 0.3804(6)
H36_4 H 0.4102 0.7028 0.4176
C50_4 C 0.3215(6) 0.7441(6) 0.3814(7)
C51_4 C 0.2796(5) 0.6866(5) 0.3817(7)
C52_4 C 0.3081(5) 0.6211(6) 0.3798(7)
H37_4 H 0.3535 0.6159 0.3721
C53_4 C 0.2679(5) 0.5659(6) 0.3894(7)
H38_4 H 0.2864 0.5237 0.3889
C54_4 C 0.1991(5) 0.5735(6) 0.4000(7)
H39_4 H 0.1728 0.5365 0.4096
C55_4 C 0.2088(5) 0.6910(6) 0.3856(7)
C56_4 C 0.1708(5) 0.6348(5) 0.3963(6)
H40_4 H 0.1250 0.6387 0.4012
Si1_4 Si 0.7500 0.7500 0.5866(3)
F1_4 F 0.7500 0.7500 0.4713(7)
F3_4 F 0.7925(3) 0.8207(3) 0.5888(4)
N1_4 N 0.7429(4) 0.6460(4) 0.3392(5)
C1_4 C 0.7092(4) 0.6137(5) 0.2744(6)
H1_4 H 0.6888 0.6384 0.2309
C2_4 C 0.7048(5) 0.5461(5) 0.2722(6)
H2_4 H 0.6805 0.5256 0.2283
C3_4 C 0.7362(5) 0.5078(5) 0.3347(7)
C4_4 C 0.7707(5) 0.5412(5) 0.3984(7)
H3_4 H 0.7928 0.5180 0.4418
C5_4 C 0.7720(5) 0.6090(5) 0.3972(6)
H4_4 H 0.7954 0.6303 0.4412
C6_4 C 0.7313(5) 0.4347(5) 0.3287(6)
H5_4 H 0.7030 0.4167 0.2871
C7_4 C 0.7655(5) 0.3924(5) 0.3804(6)
H6_4 H 0.7972 0.4102 0.4176
C8_4 C 0.7559(6) 0.3215(6) 0.3814(7)
C9_4 C 0.8134(5) 0.2796(5) 0.3817(7)
C10_4 C 0.8789(6) 0.3081(5) 0.3798(7)
H7_4 H 0.8841 0.3535 0.3721
C11_4 C 0.9341(6) 0.2679(5) 0.3894(7)
H8_4 H 0.9763 0.2864 0.3889
C12_4 C 0.9265(6) 0.1991(5) 0.4000(7)
H9_4 H 0.9635 0.1728 0.4096
C13_4 C 0.8090(6) 0.2088(5) 0.3856(7)
C14_4 C 0.8652(5) 0.1708(5) 0.3963(6)
H10_4 H 0.8613 0.1250 0.4012
F4_4 F 0.6793(3) 0.7925(3) 0.5888(4)
F5_4 F 0.7075(3) 0.6793(3) 0.5888(4)
F6_4 F 0.8207(3) 0.7075(3) 0.5888(4)
C20_4 C 0.7687(5) 0.0653(5) 0.3287(6)
H15_4 H 0.7970 0.0833 0.2871
C21_4 C 0.7345(5) 0.1076(5) 0.3804(6)
H16_4 H 0.7028 0.0898 0.4176
C22_4 C 0.7441(6) 0.1785(6) 0.3814(7)
C23_4 C 0.6866(5) 0.2204(5) 0.3817(7)
C24_4 C 0.6211(6) 0.1919(5) 0.3798(7)
H17_4 H 0.6159 0.1465 0.3721
C25_4 C 0.5659(6) 0.2321(5) 0.3894(7)
H18_4 H 0.5237 0.2136 0.3889
C26_4 C 0.5735(6) 0.3009(5) 0.4000(7)
H19_4 H 0.5365 0.3272 0.4096
C27_4 C 0.6910(6) 0.2912(5) 0.3856(7)
C28_4 C 0.6348(5) 0.3292(5) 0.3963(6)
H20_4 H 0.6387 0.3750 0.4012
N3_4 N 0.8540(4) 0.7429(4) 0.3392(5)
C29_4 C 0.8863(5) 0.7092(4) 0.2744(6)
H21_4 H 0.8616 0.6888 0.2309
C30_4 C 0.9539(5) 0.7048(5) 0.2722(6)
H22_4 H 0.9744 0.6805 0.2283
C31_4 C 0.9922(5) 0.7362(5) 0.3347(7)
C32_4 C 0.9588(5) 0.7707(5) 0.3984(7)
H23_4 H 0.9820 0.7928 0.4418
C33_4 C 0.8910(5) 0.7720(5) 0.3972(6)
H24_4 H 0.8697 0.7954 0.4412
N5_2 N 0.7571(4) 0.8540(4) 0.3392(5)
C15_4 C 0.7908(4) 0.8863(5) 0.2744(6)
H11_4 H 0.8112 0.8616 0.2309
C16_4 C 0.7952(5) 0.9539(5) 0.2722(6)
H12_4 H 0.8195 0.9744 0.2283
C17_4 C 0.7638(5) 0.9922(5) 0.3347(7)
C18_4 C 0.7293(5) 0.9588(5) 0.3984(7)
H13_4 H 0.7072 0.9820 0.4418
C19_4 C 0.7280(5) 0.8910(5) 0.3972(6)
H14_4 H 0.7046 0.8697 0.4412
loop_
_geom_bond_atom_site_label_1
_geom_bond_atom_site_label_2
_geom_bond_site_symmetry_1
_geom_bond_site_symmetry_2
N2 C15 1_555 1_555
C15 H11 1_555 1_555
C16 C15 1_555 1_555
H12 C16 1_555 1_555
C17 C16 1_555 1_555
C18 C17 1_555 1_555
H13 C18 1_555 1_555
C19 N2 1_555 1_555
H14 C19 1_555 1_555
Zn3 N2 1_555 1_555
C18 C19 1_555 1_555
Zn3 F1 1_555 1_555
Si1 F1 1_555 1_555
F2 Si1 1_555 1_555
F3 Si1 1_555 1_555
N1 Zn3 1_555 1_555
C1 N1 1_555 1_555
H1 C1 1_555 1_555
C2 C1 1_555 1_555
H2 C2 1_555 1_555
C3 C2 1_555 1_555
C4 C3 1_555 1_555
H3 C4 1_555 1_555
C5 N1 1_555 1_555
H4 C5 1_555 1_555
C6 C3 1_555 1_555
H5 C6 1_555 1_555
C7 C6 1_555 1_555
H6 C7 1_555 1_555
C8 C7 1_555 1_555
C9 C8 1_555 1_555
C10 C9 1_555 1_555
H7 C10 1_555 1_555
C11 C10 1_555 1_555
H8 C11 1_555 1_555
C12 C11 1_555 1_555
H9 C12 1_555 1_555
C13 C9 1_555 1_555
C14 C12 1_555 1_555
H10 C14 1_555 1_555
F4 Si1 1_555 1_555
F5 Si1 1_555 1_555
F6 Si1 1_555 1_555
H15 C20 1_555 1_555
C21 C20 1_555 1_555
H16 C21 1_555 1_555
C22 C13 1_555 1_555
C23 C22 1_555 1_555
C24 C23 1_555 1_555
H17 C24 1_555 1_555
C25 C24 1_555 1_555
H18 C25 1_555 1_555
C26 C25 1_555 1_555
H19 C26 1_555 1_555
C27 C8 1_555 1_555
C28 C26 1_555 1_555
H20 C28 1_555 1_555
N3 Zn3 1_555 1_555
C29 N3 1_555 1_555
H21 C29 1_555 1_555
C30 C29 1_555 1_555
H22 C30 1_555 1_555
C31 C30 1_555 1_555
C32 C31 1_555 1_555
H23 C32 1_555 1_555
C33 N3 1_555 1_555
H24 C33 1_555 1_555
Zn4 F2 1_555 1_555
F7 Zn3 1_555 1_555
N6 Zn3 1_555 1_555
C4 C5 1_555 1_555
C13 C14 1_555 1_555
C21 C22 1_555 1_555
C23 C27 1_555 1_555
C27 C28 1_555 1_555
C32 C33 1_555 1_555
H25 C34 1_555 1_555
C35 C34 1_555 1_555
H26 C35 1_555 1_555
C36 C35 1_555 1_555
C37 C36 1_555 1_555
C38 C37 1_555 1_555
H27 C38 1_555 1_555
C39 C38 1_555 1_555
H28 C39 1_555 1_555
C40 C39 1_555 1_555
H29 C40 1_555 1_555
C41 C37 1_555 1_555
C42 C40 1_555 1_555
H30 C42 1_555 1_555
N6 C43 1_555 1_555
C43 H31 1_555 1_555
C44 C43 1_555 1_555
H32 C44 1_555 1_555
C45 C44 1_555 1_555
C46 C45 1_555 1_555
H33 C46 1_555 1_555
C47 N6 1_555 1_555
H34 C47 1_555 1_555
C48 C45 1_555 1_555
H35 C48 1_555 1_555
C49 C48 1_555 1_555
H36 C49 1_555 1_555
C50 C41 1_555 1_555
C51 C50 1_555 1_555
C52 C51 1_555 1_555
H37 C52 1_555 1_555
C53 C52 1_555 1_555
H38 C53 1_555 1_555
C54 C53 1_555 1_555
H39 C54 1_555 1_555
C55 C36 1_555 1_555
C56 C54 1_555 1_555
H40 C56 1_555 1_555
C41 C42 1_555 1_555
C46 C47 1_555 1_555
C49 C50 1_555 1_555
C51 C55 1_555 1_555
C55 C56 1_555 1_555
N4 C43_2 1_555 1_555
C43_2 H31_2 1_555 1_555
C44_2 C43_2 1_555 1_555
H32_2 C44_2 1_555 1_555
C45_2 C44_2 1_555 1_555
C46_2 C45_2 1_555 1_555
H33_2 C46_2 1_555 1_555
C47_2 N4 1_555 1_555
H34_2 C47_2 1_555 1_555
Zn4 N4 1_555 1_555
C46_2 C47_2 1_555 1_555
N2_2 C15_2 1_555 1_555
C15_2 H11_2 1_555 1_555
C16_2 C15_2 1_555 1_555
H12_2 C16_2 1_555 1_555
C17_2 C16_2 1_555 1_555
C18_2 C17_2 1_555 1_555
H13_2 C18_2 1_555 1_555
C19_2 N2_2 1_555 1_555
H14_2 C19_2 1_555 1_555
Zn4 N2_2 1_555 1_555
C18_2 C19_2 1_555 1_555
Zn4 F1_2 1_555 1_555
N1_2 Zn4 1_555 1_555
C1_2 N1_2 1_555 1_555
H1_2 C1_2 1_555 1_555
C2_2 C1_2 1_555 1_555
H2_2 C2_2 1_555 1_555
C3_2 C2_2 1_555 1_555
C4_2 C3_2 1_555 1_555
H3_2 C4_2 1_555 1_555
C5_2 N1_2 1_555 1_555
H4_2 C5_2 1_555 1_555
C6_2 C3_2 1_555 1_555
H5_2 C6_2 1_555 1_555
C7_2 C6_2 1_555 1_555
H6_2 C7_2 1_555 1_555
C8_2 C7_2 1_555 1_555
C9_2 C8_2 1_555 1_555
C10_2 C9_2 1_555 1_555
H7_2 C10_2 1_555 1_555
C11_2 C10_2 1_555 1_555
H8_2 C11_2 1_555 1_555
C12_2 C11_2 1_555 1_555
H9_2 C12_2 1_555 1_555
C13_2 C9_2 1_555 1_555
C14_2 C12_2 1_555 1_555
H10_2 C14_2 1_555 1_555
H15_2 C20_2 1_555 1_555
C21_2 C20_2 1_555 1_555
H16_2 C21_2 1_555 1_555
C22_2 C13_2 1_555 1_555
C23_2 C22_2 1_555 1_555
C24_2 C23_2 1_555 1_555
H17_2 C24_2 1_555 1_555
C25_2 C24_2 1_555 1_555
H18_2 C25_2 1_555 1_555
C26_2 C25_2 1_555 1_555
H19_2 C26_2 1_555 1_555
C27_2 C8_2 1_555 1_555
C28_2 C26_2 1_555 1_555
H20_2 C28_2 1_555 1_555
N3_2 Zn4 1_555 1_555
C29_2 N3_2 1_555 1_555
H21_2 C29_2 1_555 1_555
C30_2 C29_2 1_555 1_555
H22_2 C30_2 1_555 1_555
C31_2 C30_2 1_555 1_555
C32_2 C31_2 1_555 1_555
H23_2 C32_2 1_555 1_555
C33_2 N3_2 1_555 1_555
H24_2 C33_2 1_555 1_555
C34_2 C31_2 1_555 1_555
H25_2 C34_2 1_555 1_555
C35_2 C34_2 1_555 1_555
H26_2 C35_2 1_555 1_555
C36_2 C35_2 1_555 1_555
C37_2 C36_2 1_555 1_555
C38_2 C37_2 1_555 1_555
H27_2 C38_2 1_555 1_555
C39_2 C38_2 1_555 1_555
H28_2 C39_2 1_555 1_555
C40_2 C39_2 1_555 1_555
H29_2 C40_2 1_555 1_555
C41_2 C37_2 1_555 1_555
C42_2 C40_2 1_555 1_555
H30_2 C42_2 1_555 1_555
H35_2 C48_2 1_555 1_555
C49_2 C48_2 1_555 1_555
H36_2 C49_2 1_555 1_555
C50_2 C41_2 1_555 1_555
C51_2 C50_2 1_555 1_555
C52_2 C51_2 1_555 1_555
H37_2 C52_2 1_555 1_555
C53_2 C52_2 1_555 1_555
H38_2 C53_2 1_555 1_555
C54_2 C53_2 1_555 1_555
H39_2 C54_2 1_555 1_555
C55_2 C36_2 1_555 1_555
C56_2 C54_2 1_555 1_555
H40_2 C56_2 1_555 1_555
C4_2 C5_2 1_555 1_555
C13_2 C14_2 1_555 1_555
C21_2 C22_2 1_555 1_555
C23_2 C27_2 1_555 1_555
C27_2 C28_2 1_555 1_555
C32_2 C33_2 1_555 1_555
C41_2 C42_2 1_555 1_555
C49_2 C50_2 1_555 1_555
C51_2 C55_2 1_555 1_555
C55_2 C56_2 1_555 1_555
F7 Si1_2 1_555 1_555
F3_2 Si1_2 1_555 1_555
F4_2 Si1_2 1_555 1_555
F5_2 Si1_2 1_555 1_555
F6_2 Si1_2 1_555 1_555
F2_2 Si1_3 1_555 1_555
F3_3 Si1_3 1_555 1_555
F4_3 Si1_3 1_555 1_555
F5_3 Si1_3 1_555 1_555
F6_3 Si1_3 1_555 1_555
Zn4_2 F2_2 1_555 1_555
Zn1 F1_3 1_555 1_555
N1_3 Zn1 1_555 1_555
C1_3 N1_3 1_555 1_555
H1_3 C1_3 1_555 1_555
C2_3 C1_3 1_555 1_555
H2_3 C2_3 1_555 1_555
C3_3 C2_3 1_555 1_555
C4_3 C3_3 1_555 1_555
H3_3 C4_3 1_555 1_555
C5_3 N1_3 1_555 1_555
H4_3 C5_3 1_555 1_555
C6_3 C3_3 1_555 1_555
H5_3 C6_3 1_555 1_555
C7_3 C6_3 1_555 1_555
H6_3 C7_3 1_555 1_555
C8_3 C7_3 1_555 1_555
C9_3 C8_3 1_555 1_555
C10_3 C9_3 1_555 1_555
H7_3 C10_3 1_555 1_555
C11_3 C10_3 1_555 1_555
H8_3 C11_3 1_555 1_555
C12_3 C11_3 1_555 1_555
H9_3 C12_3 1_555 1_555
C13_3 C9_3 1_555 1_555
C14_3 C12_3 1_555 1_555
H10_3 C14_3 1_555 1_555
H15_3 C20_3 1_555 1_555
C21_3 C20_3 1_555 1_555
H16_3 C21_3 1_555 1_555
C22_3 C13_3 1_555 1_555
C23_3 C22_3 1_555 1_555
C24_3 C23_3 1_555 1_555
H17_3 C24_3 1_555 1_555
C25_3 C24_3 1_555 1_555
H18_3 C25_3 1_555 1_555
C26_3 C25_3 1_555 1_555
H19_3 C26_3 1_555 1_555
C27_3 C8_3 1_555 1_555
C28_3 C26_3 1_555 1_555
H20_3 C28_3 1_555 1_555
N3_3 Zn1 1_555 1_555
C29_3 N3_3 1_555 1_555
H21_3 C29_3 1_555 1_555
C30_3 C29_3 1_555 1_555
H22_3 C30_3 1_555 1_555
C31_3 C30_3 1_555 1_555
C32_3 C31_3 1_555 1_555
H23_3 C32_3 1_555 1_555
C33_3 N3_3 1_555 1_555
H24_3 C33_3 1_555 1_555
C34_3 C31_3 1_555 1_555
H25_3 C34_3 1_555 1_555
C35_3 C34_3 1_555 1_555
H26_3 C35_3 1_555 1_555
C36_3 C35_3 1_555 1_555
C37_3 C36_3 1_555 1_555
C38_3 C37_3 1_555 1_555
H27_3 C38_3 1_555 1_555
C39_3 C38_3 1_555 1_555
H28_3 C39_3 1_555 1_555
C40_3 C39_3 1_555 1_555
H29_3 C40_3 1_555 1_555
C41_3 C37_3 1_555 1_555
C42_3 C40_3 1_555 1_555
H30_3 C42_3 1_555 1_555
H35_3 C48_3 1_555 1_555
C49_3 C48_3 1_555 1_555
H36_3 C49_3 1_555 1_555
C50_3 C41_3 1_555 1_555
C51_3 C50_3 1_555 1_555
C52_3 C51_3 1_555 1_555
H37_3 C52_3 1_555 1_555
C53_3 C52_3 1_555 1_555
H38_3 C53_3 1_555 1_555
C54_3 C53_3 1_555 1_555
H39_3 C54_3 1_555 1_555
C55_3 C36_3 1_555 1_555
C56_3 C54_3 1_555 1_555
H40_3 C56_3 1_555 1_555
F7_2 Zn1 1_555 1_555
N5 Zn1 1_555 1_555
N6_2 Zn1 1_555 1_555
C4_3 C5_3 1_555 1_555
C13_3 C14_3 1_555 1_555
C21_3 C22_3 1_555 1_555
C23_3 C27_3 1_555 1_555
C27_3 C28_3 1_555 1_555
C32_3 C33_3 1_555 1_555
C41_3 C42_3 1_555 1_555
C49_3 C50_3 1_555 1_555
C51_3 C55_3 1_555 1_555
C55_3 C56_3 1_555 1_555
N5 C15_3 1_555 1_555
C15_3 H11_3 1_555 1_555
C16_3 C15_3 1_555 1_555
H12_3 C16_3 1_555 1_555
C17_3 C16_3 1_555 1_555
C18_3 C17_3 1_555 1_555
H13_3 C18_3 1_555 1_555
C19_3 N5 1_555 1_555
H14_3 C19_3 1_555 1_555
C18_3 C19_3 1_555 1_555
N6_2 C43_3 1_555 1_555
C43_3 H31_3 1_555 1_555
C44_3 C43_3 1_555 1_555
H32_3 C44_3 1_555 1_555
C45_3 C44_3 1_555 1_555
C46_3 C45_3 1_555 1_555
H33_3 C46_3 1_555 1_555
C47_3 N6_2 1_555 1_555
H34_3 C47_3 1_555 1_555
C46_3 C47_3 1_555 1_555
H25_4 C34_4 1_555 1_555
C35_4 C34_4 1_555 1_555
H26_4 C35_4 1_555 1_555
C36_4 C35_4 1_555 1_555
C37_4 C36_4 1_555 1_555
C38_4 C37_4 1_555 1_555
H27_4 C38_4 1_555 1_555
C39_4 C38_4 1_555 1_555
H28_4 C39_4 1_555 1_555
C40_4 C39_4 1_555 1_555
H29_4 C40_4 1_555 1_555
C41_4 C37_4 1_555 1_555
C42_4 C40_4 1_555 1_555
H30_4 C42_4 1_555 1_555
N4_2 C43_4 1_555 1_555
C43_4 H31_4 1_555 1_555
C44_4 C43_4 1_555 1_555
H32_4 C44_4 1_555 1_555
C45_4 C44_4 1_555 1_555
C46_4 C45_4 1_555 1_555
H33_4 C46_4 1_555 1_555
C47_4 N4_2 1_555 1_555
H34_4 C47_4 1_555 1_555
C48_4 C45_4 1_555 1_555
H35_4 C48_4 1_555 1_555
C49_4 C48_4 1_555 1_555
H36_4 C49_4 1_555 1_555
C50_4 C41_4 1_555 1_555
C51_4 C50_4 1_555 1_555
C52_4 C51_4 1_555 1_555
H37_4 C52_4 1_555 1_555
C53_4 C52_4 1_555 1_555
H38_4 C53_4 1_555 1_555
C54_4 C53_4 1_555 1_555
H39_4 C54_4 1_555 1_555
C55_4 C36_4 1_555 1_555
C56_4 C54_4 1_555 1_555
H40_4 C56_4 1_555 1_555
Zn4_2 N4_2 1_555 1_555
C41_4 C42_4 1_555 1_555
C46_4 C47_4 1_555 1_555
C49_4 C50_4 1_555 1_555
C51_4 C55_4 1_555 1_555
C55_4 C56_4 1_555 1_555
Zn4_2 F1_4 1_555 1_555
Si1_4 F1_4 1_555 1_555
F7_2 Si1_4 1_555 1_555
F3_4 Si1_4 1_555 1_555
N1_4 Zn4_2 1_555 1_555
C1_4 N1_4 1_555 1_555
H1_4 C1_4 1_555 1_555
C2_4 C1_4 1_555 1_555
H2_4 C2_4 1_555 1_555
C3_4 C2_4 1_555 1_555
C4_4 C3_4 1_555 1_555
H3_4 C4_4 1_555 1_555
C5_4 N1_4 1_555 1_555
H4_4 C5_4 1_555 1_555
C6_4 C3_4 1_555 1_555
H5_4 C6_4 1_555 1_555
C7_4 C6_4 1_555 1_555
H6_4 C7_4 1_555 1_555
C8_4 C7_4 1_555 1_555
C9_4 C8_4 1_555 1_555
C10_4 C9_4 1_555 1_555
H7_4 C10_4 1_555 1_555
C11_4 C10_4 1_555 1_555
H8_4 C11_4 1_555 1_555
C12_4 C11_4 1_555 1_555
H9_4 C12_4 1_555 1_555
C13_4 C9_4 1_555 1_555
C14_4 C12_4 1_555 1_555
H10_4 C14_4 1_555 1_555
F4_4 Si1_4 1_555 1_555
F5_4 Si1_4 1_555 1_555
F6_4 Si1_4 1_555 1_555
H15_4 C20_4 1_555 1_555
C21_4 C20_4 1_555 1_555
H16_4 C21_4 1_555 1_555
C22_4 C13_4 1_555 1_555
C23_4 C22_4 1_555 1_555
C24_4 C23_4 1_555 1_555
H17_4 C24_4 1_555 1_555
C25_4 C24_4 1_555 1_555
H18_4 C25_4 1_555 1_555
C26_4 C25_4 1_555 1_555
H19_4 C26_4 1_555 1_555
C27_4 C8_4 1_555 1_555
C28_4 C26_4 1_555 1_555
H20_4 C28_4 1_555 1_555
N3_4 Zn4_2 1_555 1_555
C29_4 N3_4 1_555 1_555
H21_4 C29_4 1_555 1_555
C30_4 C29_4 1_555 1_555
H22_4 C30_4 1_555 1_555
C31_4 C30_4 1_555 1_555
C32_4 C31_4 1_555 1_555
H23_4 C32_4 1_555 1_555
C33_4 N3_4 1_555 1_555
H24_4 C33_4 1_555 1_555
N5_2 Zn4_2 1_555 1_555
C4_4 C5_4 1_555 1_555
C13_4 C14_4 1_555 1_555
C21_4 C22_4 1_555 1_555
C23_4 C27_4 1_555 1_555
C27_4 C28_4 1_555 1_555
C32_4 C33_4 1_555 1_555
N5_2 C15_4 1_555 1_555
C15_4 H11_4 1_555 1_555
C16_4 C15_4 1_555 1_555
H12_4 C16_4 1_555 1_555
C17_4 C16_4 1_555 1_555
C18_4 C17_4 1_555 1_555
H13_4 C18_4 1_555 1_555
C19_4 N5_2 1_555 1_555
H14_4 C19_4 1_555 1_555
C18_4 C19_4 1_555 1_555

#END
