
###############################################################################
#
# This file contains modified crystal structure data generated from the
# MOF subset of the Cambridge Structural Database (CSD) v543 
# hosted by the Cambridge Crystallographic Data Centre (CCDC).
#
# This work is licensed under the Creative Commons
# Attribution-NonCommercial-ShareAlike 4.0 International License.
# To view a copy of this license, visit
# http://creativecommons.org/licenses/by-nc-sa/4.0/
# or send a letter to
# Creative Commons, PO Box 1866, Mountain View, CA 94042, USA.
#
# CIF created using the CSD Python API on 29 September 2022
# The structure has been converted into the P1 space group
# The structure has a 3D framework
# The original CSD entry VAZMUI is in the orthorhombic crystal system
# The framework has been calculated to contain at least 10.0% void space
# The void calculation uses a probe of radius 1.32A, grid spacing 0.4
# The framework is charged, counterions have been retained in the structure
# H atom positions have been added when not included in the experimental data
#
###############################################################################

data_VAZMUI
_chemical_formula_moiety         '(C240 H192 Cl8 Eu8 N16 O88 S8)n'
_symmetry_cell_setting           triclinic
_symmetry_space_group_name_H-M   'P 1'
_symmetry_Int_Tables_number      1
_space_group_name_Hall           'P 1'
loop_
_symmetry_equiv_pos_site_id
_symmetry_equiv_pos_as_xyz
1 x,y,z
_cell_length_a                   13.8514(5)
_cell_length_b                   17.7783(6)
_cell_length_c                   29.7678(10)
_cell_angle_alpha                90
_cell_angle_beta                 90
_cell_angle_gamma                90
_cell_volume                     7330.45
loop_
_atom_site_label
_atom_site_type_symbol
_atom_site_fract_x
_atom_site_fract_y
_atom_site_fract_z
Cl1 Cl 0.74399(18) 0.85815(8) 0.75421(5)
Cl1_2 Cl 0.75601(18) 0.14185(8) 0.25421(5)
Cl1_3 Cl 0.24399(18) 0.64185(8) 0.24579(5)
Cl1_4 Cl 0.25601(18) 0.35815(8) 0.74579(5)
Cl1_5 Cl 0.25601(18) 0.14185(8) 0.24579(5)
Cl1_6 Cl 0.24399(18) 0.85815(8) 0.74579(5)
Cl1_7 Cl 0.75601(18) 0.35815(8) 0.75421(5)
Cl1_8 Cl 0.74399(18) 0.64185(8) 0.25421(5)
O3 O 0.7206(3) 0.6320(3) 0.08304(12)
O4 O 0.8748(2) 0.60043(18) 0.07539(9)
H14 H 0.656590 0.671991 0.005889
C21 C 0.7847(3) 0.6178(3) 0.00917(14)
C24 C 0.7941(4) 0.6174(3) 0.05955(14)
Eu3 Eu 0.98353(2) 0.64302(2) 0.12991(2)
O5 O 0.9885(2) 0.56909(18) 0.20050(10)
O9 O 0.8198(3) 0.64979(19) 0.15897(10)
O11 O 0.9529(3) 0.75734(18) 0.08840(10)
C25 C 0.9973(3) 0.5078(2) 0.18018(14)
O13 O 0.9889(2) 0.74292(18) 0.18311(11)
H19 H 0.784661 0.691409 0.143884
H20 H 0.821777 0.659217 0.191837
H22 H 0.905194 0.788533 0.104921
S1 S 0.99692(8) 0.94322(6) 0.23572(4)
O7 O 0.9841(3) 0.85720(19) 0.15243(14)
H7 H 0.756842 0.994969 0.716650
H8 H 0.768553 0.997234 0.640293
H12 H 0.734473 0.996343 0.786982
C26 C 0.9974(3) 0.9378(2) 0.29327(15)
C27 C 0.9924(3) 0.8646(2) 0.30740(16)
H17 H 0.991113 0.850473 0.337470
C28 C 0.9896(3) 0.8130(3) 0.27149(16)
H18 H 0.987081 0.761079 0.275169
C29 C 0.9909(3) 0.8476(2) 0.23117(16)
C30 C 0.9882(3) 0.8134(3) 0.18537(16)
Eu1 Eu 0.48353(2) 0.64302(2) 0.37009(2)
S1_2 S 0.50308(8) 0.44322(6) 0.23572(4)
O1 O 0.5844(3) 0.6262(2) 0.43218(10)
O2 O 0.7401(2) 0.6012(2) 0.41859(11)
O5_2 O 0.4885(2) 0.56909(18) 0.29950(10)
O6 O 0.5013(2) 0.50427(18) 0.36188(10)
O7_2 O 0.5159(3) 0.35720(19) 0.15243(14)
O8 O 0.5111(2) 0.24292(18) 0.18311(11)
O9_2 O 0.3198(3) 0.64979(19) 0.34103(10)
O10 O 0.6495(3) 0.65158(18) 0.34619(10)
O11_2 O 0.4529(3) 0.75734(18) 0.41160(10)
N1 N 0.7294(3) 0.6078(2) 0.63410(10)
N2 N 0.7575(3) 0.6109(2) 0.86888(10)
C1 C 0.6697(4) 0.6134(3) 0.44464(14)
C2 C 0.6877(3) 0.6122(3) 0.49443(13)
C3 C 0.6228(4) 0.6456(3) 0.52253(15)
H1 H 0.568320 0.668908 0.510690
C4 C 0.6374(4) 0.6452(3) 0.56864(15)
H2 H 0.594458 0.669534 0.587746
C5 C 0.7151(3) 0.6087(2) 0.58529(12)
C6 C 0.7831(3) 0.5745(3) 0.55811(15)
H3 H 0.836935 0.550848 0.570292
C7 C 0.7683(3) 0.5767(3) 0.51240(14)
H4 H 0.812900 0.554115 0.493306
C8 C 0.7347(4) 0.6725(3) 0.65636(14)
H5 H 0.734546 0.717621 0.640534
C9 C 0.7405(3) 0.6737(2) 0.70229(14)
H6 H 0.742988 0.719498 0.717301
C10 C 0.7427(3) 0.6073(2) 0.72662(14)
C11 C 0.7401(3) 0.5409(2) 0.70181(13)
H7_2 H 0.743158 0.494969 0.716650
C12 C 0.7334(3) 0.5422(2) 0.65622(13)
H8_2 H 0.731447 0.497234 0.640293
C13 C 0.7465(3) 0.6076(2) 0.77643(13)
C14 C 0.7376(4) 0.6744(3) 0.80034(14)
H9 H 0.726910 0.719275 0.785033
C15 C 0.7444(4) 0.6748(3) 0.84626(15)
H10 H 0.739765 0.720002 0.861800
C16 C 0.7634(3) 0.5454(2) 0.84723(13)
H11 H 0.770269 0.501105 0.863553
C17 C 0.7595(3) 0.5424(2) 0.80153(13)
H12_2 H 0.765527 0.496343 0.786982
C18 C 0.7676(3) 0.6131(2) 0.91775(13)
C19 C 0.6958(4) 0.6473(3) 0.94254(16)
H13 H 0.642576 0.668580 0.928389
C20 C 0.7044(4) 0.6494(3) 0.98860(15)
C22 C 0.8560(3) 0.5849(2) 0.98320(13)
H15 H 0.910304 0.564447 0.996940
C23 C 0.8471(3) 0.5824(2) 0.93702(13)
H16 H 0.894694 0.560023 0.919477
C25_2 C 0.4973(3) 0.5078(2) 0.31982(14)
C26_2 C 0.5026(3) 0.4378(2) 0.29327(15)
C27_2 C 0.5076(3) 0.3646(2) 0.30740(16)
H17_2 H 0.508887 0.350473 0.337470
C28_2 C 0.5104(3) 0.3130(3) 0.27149(16)
H18_2 H 0.512919 0.261079 0.275169
C29_2 C 0.5091(3) 0.3476(2) 0.23117(16)
C30_2 C 0.5118(3) 0.3134(3) 0.18537(16)
Eu2 Eu 0.51647(2) 0.14302(2) 0.12991(2)
O12 O 0.3748(2) 0.60043(18) 0.42461(9)
O13_2 O 0.4889(2) 0.74292(18) 0.31689(11)
H19_2 H 0.284661 0.691409 0.356116
H20_2 H 0.321777 0.659217 0.308163
H21 H 0.514057 0.785905 0.415052
H22_2 H 0.405194 0.788533 0.395079
H23 H 0.683224 0.603664 0.353089
H24 H 0.651908 0.661049 0.313334
O1_2 O 0.4156(3) 0.1262(2) 0.06782(10)
O2_2 O 0.2599(2) 0.1012(2) 0.08141(11)
O5_3 O 0.5115(2) 0.06909(18) 0.20050(10)
O6_2 O 0.4987(2) 0.00427(18) 0.13812(10)
O9_3 O 0.6802(3) 0.14979(19) 0.15897(10)
O10_2 O 0.3505(3) 0.15158(18) 0.15381(10)
O11_3 O 0.5471(3) 0.25734(18) 0.08840(10)
C1_2 C 0.3303(4) 0.1134(3) 0.05536(14)
C2_2 C 0.3123(3) 0.1122(3) 0.00557(13)
H4_2 H 0.187100 0.054115 0.006694
C25_3 C 0.5027(3) 0.0078(2) 0.18018(14)
O12_2 O 0.6252(2) 0.10043(18) 0.07539(9)
H19_3 H 0.715339 0.191409 0.143884
H20_3 H 0.678223 0.159217 0.191837
H21_2 H 0.485943 0.285905 0.0849476
H22_3 H 0.594806 0.288533 0.104921
H23_2 H 0.316776 0.103664 0.146911
H24_2 H 0.348092 0.161049 0.186666
S1_3 S 0.49692(8) 0.94322(6) 0.26428(4)
O7_3 O 0.4841(3) 0.85720(19) 0.34757(14)
C26_3 C 0.4974(3) 0.9378(2) 0.20673(15)
C27_3 C 0.4924(3) 0.8646(2) 0.19260(16)
H17_3 H 0.491113 0.850473 0.162530
C28_3 C 0.4896(3) 0.8130(3) 0.22851(16)
H18_3 H 0.487081 0.761079 0.224831
C29_3 C 0.4909(3) 0.8476(2) 0.26883(16)
C30_3 C 0.4882(3) 0.8134(3) 0.31463(16)
O3_2 O 0.2206(3) 0.6320(3) 0.41696(12)
N1_2 N 0.2294(3) 0.6078(2) 0.86590(10)
N2_2 N 0.2575(3) 0.6109(2) 0.63112(10)
C3_2 C 0.1228(4) 0.6456(3) 0.97747(15)
H1_2 H 0.068320 0.668908 0.989310
C4_2 C 0.1374(4) 0.6452(3) 0.93136(15)
H2_2 H 0.094458 0.669534 0.912254
C5_2 C 0.2151(3) 0.6087(2) 0.91471(12)
C6_2 C 0.2831(3) 0.5745(3) 0.94189(15)
H3_2 H 0.336935 0.550848 0.929708
C7_2 C 0.2683(3) 0.5767(3) 0.98760(14)
C8_2 C 0.2347(4) 0.6725(3) 0.84364(14)
H5_2 H 0.234546 0.717621 0.859466
C9_2 C 0.2405(3) 0.6737(2) 0.79771(14)
H6_2 H 0.242988 0.719498 0.782699
C10_2 C 0.2427(3) 0.6073(2) 0.77338(14)
C11_2 C 0.2401(3) 0.5409(2) 0.79819(13)
H7_3 H 0.243158 0.494969 0.783350
C12_2 C 0.2334(3) 0.5422(2) 0.84378(13)
H8_3 H 0.231447 0.497234 0.859707
C13_2 C 0.2465(3) 0.6076(2) 0.72357(13)
C14_2 C 0.2376(4) 0.6744(3) 0.69966(14)
H9_2 H 0.226910 0.719275 0.714967
C15_2 C 0.2444(4) 0.6748(3) 0.65374(15)
H10_2 H 0.239765 0.720002 0.638200
C16_2 C 0.2634(3) 0.5454(2) 0.65277(13)
H11_2 H 0.270269 0.501105 0.636447
C17_2 C 0.2595(3) 0.5424(2) 0.69847(13)
H12_3 H 0.265527 0.496343 0.713018
C18_2 C 0.2676(3) 0.6131(2) 0.58225(13)
C19_2 C 0.1958(4) 0.6473(3) 0.55746(16)
H13_2 H 0.142576 0.668580 0.571611
C20_2 C 0.2044(4) 0.6494(3) 0.51140(15)
H14_2 H 0.156590 0.671991 0.494111
C21_2 C 0.2847(3) 0.6178(3) 0.49083(14)
C22_2 C 0.3560(3) 0.5849(2) 0.51680(13)
H15_2 H 0.410304 0.564447 0.503060
C23_2 C 0.3471(3) 0.5824(2) 0.56298(13)
H16_2 H 0.394694 0.560023 0.580523
C24_2 C 0.2941(4) 0.6174(3) 0.44045(14)
O3_3 O 0.7794(3) 0.1320(3) 0.08304(12)
H14_3 H 0.843410 0.171991 0.005889
C21_3 C 0.7153(3) 0.1178(3) 0.00917(14)
C24_3 C 0.7059(4) 0.1174(3) 0.05955(14)
Eu1_2 Eu 0.01647(2) 0.35698(2) 0.87009(2)
O5_4 O 0.0115(2) 0.43091(18) 0.79950(10)
O9_4 O 0.1802(3) 0.35021(19) 0.84103(10)
O11_4 O 0.0471(3) 0.24266(18) 0.91160(10)
C25_4 C 0.0027(3) 0.4922(2) 0.81982(14)
O12_3 O 0.1252(2) 0.39957(18) 0.92461(9)
O13_3 O 0.0111(2) 0.25708(18) 0.81689(11)
H19_4 H 0.215339 0.308591 0.856116
H20_4 H 0.178223 0.340783 0.808163
H22_4 H 0.0948061 0.211467 0.895079
S1_4 S 0.00308(8) 0.05678(6) 0.76428(4)
O7_4 O 0.0159(3) 0.14280(19) 0.84757(14)
H7_4 H 0.243158 0.005031 0.283350
H8_4 H 0.231447 0.002766 0.359707
H12_4 H 0.265527 0.003657 0.213018
C26_4 C 0.0026(3) 0.0622(2) 0.70673(15)
C27_4 C 0.0076(3) 0.1354(2) 0.69260(16)
H17_4 H 0.008887 0.149527 0.662530
C28_4 C 0.0104(3) 0.1870(3) 0.72851(16)
H18_4 H 0.012919 0.238921 0.724831
C29_4 C 0.0091(3) 0.1524(2) 0.76883(16)
C30_4 C 0.0118(3) 0.1866(3) 0.81463(16)
O3_4 O 0.2794(3) 0.3680(3) 0.91696(12)
H14_4 H 0.343410 0.328009 0.994111
C21_4 C 0.2153(3) 0.3822(3) 0.99083(14)
C24_4 C 0.2059(4) 0.3826(3) 0.94045(14)
O3_5 O 0.7794(3) 0.3680(3) 0.58304(12)
O4_2 O 0.6252(2) 0.39957(18) 0.57539(9)
N1_3 N 0.7706(3) 0.3922(2) 0.13410(10)
N2_3 N 0.7425(3) 0.3891(2) 0.36888(10)
C3_3 C 0.8772(4) 0.3544(3) 0.02253(15)
H1_3 H 0.931680 0.331092 0.010690
C4_3 C 0.8626(4) 0.3548(3) 0.06864(15)
H2_3 H 0.905542 0.330466 0.087746
C5_3 C 0.7849(3) 0.3913(2) 0.08529(12)
C6_3 C 0.7169(3) 0.4255(3) 0.05811(15)
H3_3 H 0.663065 0.449152 0.070292
C7_3 C 0.7317(3) 0.4233(3) 0.01240(14)
C8_3 C 0.7653(4) 0.3275(3) 0.15636(14)
H5_3 H 0.765454 0.282379 0.140534
C9_3 C 0.7595(3) 0.3263(2) 0.20229(14)
H6_3 H 0.757012 0.280502 0.217301
C10_3 C 0.7573(3) 0.3927(2) 0.22662(14)
C11_3 C 0.7599(3) 0.4591(2) 0.20181(13)
H7_5 H 0.756842 0.505031 0.216650
C12_3 C 0.7666(3) 0.4578(2) 0.15622(13)
H8_5 H 0.768553 0.502766 0.140293
C13_3 C 0.7535(3) 0.3924(2) 0.27643(13)
C14_3 C 0.7624(4) 0.3256(3) 0.30034(14)
H9_3 H 0.773090 0.280725 0.285033
C15_3 C 0.7556(4) 0.3252(3) 0.34626(15)
H10_3 H 0.760235 0.279998 0.361800
C16_3 C 0.7366(3) 0.4546(2) 0.34723(13)
H11_3 H 0.729731 0.498895 0.363553
C17_3 C 0.7405(3) 0.4576(2) 0.30153(13)
H12_5 H 0.734473 0.503657 0.286982
C18_3 C 0.7324(3) 0.3869(2) 0.41775(13)
C19_3 C 0.8042(4) 0.3527(3) 0.44254(16)
H13_3 H 0.857424 0.331420 0.428389
C20_3 C 0.7956(4) 0.3506(3) 0.48860(15)
H14_5 H 0.843410 0.328009 0.505889
C21_5 C 0.7153(3) 0.3822(3) 0.50917(14)
C22_3 C 0.6440(3) 0.4151(2) 0.48320(13)
H15_3 H 0.589696 0.435553 0.496940
C23_3 C 0.6529(3) 0.4176(2) 0.43702(13)
H16_3 H 0.605306 0.439977 0.419477
C24_5 C 0.7059(4) 0.3826(3) 0.55955(14)
Eu3_2 Eu 0.51647(2) 0.35698(2) 0.62991(2)
O3_6 O 0.2206(3) 0.8680(3) 0.91696(12)
O4_3 O 0.3748(2) 0.89957(18) 0.92461(9)
H14_6 H 0.156590 0.828009 0.994111
C21_6 C 0.2847(3) 0.8822(3) 0.99083(14)
C24_6 C 0.2941(4) 0.8826(3) 0.94045(14)
Eu3_3 Eu 0.48353(2) 0.85698(2) 0.87009(2)
S1_5 S 0.49692(8) 0.55678(6) 0.76428(4)
O1_3 O 0.4156(3) 0.3738(2) 0.56782(10)
O2_3 O 0.2599(2) 0.3988(2) 0.58141(11)
O5_5 O 0.5115(2) 0.43091(18) 0.70050(10)
O6_3 O 0.4987(2) 0.49573(18) 0.63812(10)
O7_5 O 0.4841(3) 0.64280(19) 0.84757(14)
O8_2 O 0.4889(2) 0.75708(18) 0.81689(11)
O9_5 O 0.6802(3) 0.35021(19) 0.65897(10)
O10_3 O 0.3505(3) 0.34842(18) 0.65381(10)
O11_5 O 0.5471(3) 0.24266(18) 0.58840(10)
N1_4 N 0.2706(3) 0.3922(2) 0.36590(10)
N2_4 N 0.2425(3) 0.3891(2) 0.13112(10)
C1_3 C 0.3303(4) 0.3866(3) 0.55536(14)
C2_3 C 0.3123(3) 0.3878(3) 0.50557(13)
C3_4 C 0.3772(4) 0.3544(3) 0.47747(15)
H1_4 H 0.431680 0.331092 0.489310
C4_4 C 0.3626(4) 0.3548(3) 0.43136(15)
H2_4 H 0.405542 0.330466 0.412254
C5_4 C 0.2849(3) 0.3913(2) 0.41471(12)
C6_4 C 0.2169(3) 0.4255(3) 0.44189(15)
H3_4 H 0.163065 0.449152 0.429708
C7_4 C 0.2317(3) 0.4233(3) 0.48760(14)
H4_3 H 0.187100 0.445885 0.506694
C8_4 C 0.2653(4) 0.3275(3) 0.34364(14)
H5_4 H 0.265454 0.282379 0.359466
C9_4 C 0.2595(3) 0.3263(2) 0.29771(14)
H6_4 H 0.257012 0.280502 0.282699
C10_4 C 0.2573(3) 0.3927(2) 0.27338(14)
C11_4 C 0.2599(3) 0.4591(2) 0.29819(13)
H7_6 H 0.256842 0.505031 0.283350
C12_4 C 0.2666(3) 0.4578(2) 0.34378(13)
H8_6 H 0.268553 0.502766 0.359707
C13_4 C 0.2535(3) 0.3924(2) 0.22357(13)
C14_4 C 0.2624(4) 0.3256(3) 0.19966(14)
H9_4 H 0.273090 0.280725 0.214967
C15_4 C 0.2556(4) 0.3252(3) 0.15374(15)
H10_4 H 0.260235 0.279998 0.138200
C16_4 C 0.2366(3) 0.4546(2) 0.15277(13)
H11_4 H 0.229731 0.498895 0.136447
C17_4 C 0.2405(3) 0.4576(2) 0.19847(13)
H12_6 H 0.234473 0.503657 0.213018
C18_4 C 0.2324(3) 0.3869(2) 0.08225(13)
C19_4 C 0.3042(4) 0.3527(3) 0.05746(16)
H13_4 H 0.357424 0.331420 0.071611
C20_4 C 0.2956(4) 0.3506(3) 0.01140(15)
C22_4 C 0.1440(3) 0.4151(2) 0.01680(13)
H15_4 H 0.089696 0.435553 0.003060
C23_4 C 0.1529(3) 0.4176(2) 0.06298(13)
H16_4 H 0.105306 0.439977 0.080523
C25_5 C 0.5027(3) 0.4922(2) 0.68018(14)
C26_5 C 0.4974(3) 0.5622(2) 0.70673(15)
C27_5 C 0.4924(3) 0.6354(2) 0.69260(16)
H17_5 H 0.491113 0.649527 0.662530
C28_5 C 0.4896(3) 0.6870(3) 0.72851(16)
H18_5 H 0.487081 0.738921 0.724831
C29_5 C 0.4909(3) 0.6524(2) 0.76883(16)
C30_5 C 0.4882(3) 0.6866(3) 0.81463(16)
O13_4 O 0.5111(2) 0.25708(18) 0.68311(11)
H19_5 H 0.715339 0.308591 0.643884
H20_5 H 0.678223 0.340783 0.691837
H21_3 H 0.485943 0.214095 0.584948
H22_5 H 0.594806 0.211467 0.604921
H23_3 H 0.316776 0.396336 0.646911
H24_3 H 0.348092 0.338951 0.686666
S1_6 S 0.50308(8) 0.05678(6) 0.73572(4)
O7_6 O 0.5159(3) 0.14280(19) 0.65243(14)
C26_6 C 0.5026(3) 0.0622(2) 0.79327(15)
C27_6 C 0.5076(3) 0.1354(2) 0.80740(16)
H17_6 H 0.508887 0.149527 0.837470
C28_6 C 0.5104(3) 0.1870(3) 0.77149(16)
H18_6 H 0.512919 0.238921 0.775169
C29_6 C 0.5091(3) 0.1524(2) 0.73117(16)
C30_6 C 0.5118(3) 0.1866(3) 0.68537(16)
O1_4 O 0.5844(3) 0.8738(2) 0.93218(10)
O2_4 O 0.7401(2) 0.8988(2) 0.91859(11)
O5_6 O 0.4885(2) 0.93091(18) 0.79950(10)
O6_4 O 0.5013(2) 0.99573(18) 0.86188(10)
O9_6 O 0.3198(3) 0.85021(19) 0.84103(10)
O10_4 O 0.6495(3) 0.84842(18) 0.84619(10)
O11_6 O 0.4529(3) 0.74266(18) 0.91160(10)
C1_4 C 0.6697(4) 0.8866(3) 0.94464(14)
C2_4 C 0.6877(3) 0.8878(3) 0.99443(13)
H4_4 H 0.812900 0.945885 0.993306
C25_6 C 0.4973(3) 0.9922(2) 0.81982(14)
H19_6 H 0.284661 0.808591 0.856116
H20_6 H 0.321777 0.840783 0.808163
H21_4 H 0.514057 0.714095 0.915052
H22_6 H 0.405194 0.711467 0.895079
H23_4 H 0.683224 0.896336 0.853089
H24_4 H 0.651908 0.838951 0.813334
S1_7 S 0.99692(8) 0.55678(6) 0.73572(4)
O1_5 O 0.9156(3) 0.3738(2) 0.93218(10)
O2_5 O 0.7599(2) 0.3988(2) 0.91859(11)
O6_5 O 0.9987(2) 0.49573(18) 0.86188(10)
O7_7 O 0.9841(3) 0.64280(19) 0.65243(14)
O8_3 O 0.9889(2) 0.75708(18) 0.68311(11)
O10_5 O 0.8505(3) 0.34842(18) 0.84619(10)
C1_5 C 0.8303(4) 0.3866(3) 0.94464(14)
C2_5 C 0.8123(3) 0.3878(3) 0.99443(13)
H4_5 H 0.687100 0.445885 0.993306
C26_7 C 0.9974(3) 0.5622(2) 0.79327(15)
C27_7 C 0.9924(3) 0.6354(2) 0.80740(16)
H17_7 H 0.991113 0.649527 0.837470
C28_7 C 0.9896(3) 0.6870(3) 0.77149(16)
H18_7 H 0.987081 0.738921 0.775169
C29_7 C 0.9909(3) 0.6524(2) 0.73117(16)
C30_7 C 0.9882(3) 0.6866(3) 0.68537(16)
Eu2_2 Eu 0.98353(2) 0.85698(2) 0.62991(2)
H21_5 H 0.985943 0.214095 0.915052
H23_5 H 0.816776 0.396336 0.853089
H24_5 H 0.848092 0.338951 0.813334
O5_7 O 0.9885(2) 0.93091(18) 0.70050(10)
O9_7 O 0.8198(3) 0.85021(19) 0.65897(10)
O11_7 O 0.9529(3) 0.74266(18) 0.58840(10)
C25_7 C 0.9973(3) 0.9922(2) 0.68018(14)
O12_4 O 0.8748(2) 0.89957(18) 0.57539(9)
H19_7 H 0.784661 0.808591 0.643884
H20_7 H 0.821777 0.840783 0.691837
H22_7 H 0.905194 0.711467 0.604921
O3_7 O 0.7206(3) 0.8680(3) 0.58304(12)
N1_5 N 0.7294(3) 0.8922(2) 0.13410(10)
N2_5 N 0.7575(3) 0.8891(2) 0.36888(10)
C3_5 C 0.6228(4) 0.8544(3) 0.02253(15)
H1_5 H 0.568320 0.831092 0.010690
C4_5 C 0.6374(4) 0.8548(3) 0.06864(15)
H2_5 H 0.594458 0.830466 0.087746
C5_5 C 0.7151(3) 0.8913(2) 0.08529(12)
C6_5 C 0.7831(3) 0.9255(3) 0.05811(15)
H3_5 H 0.836935 0.949152 0.070292
C7_5 C 0.7683(3) 0.9233(3) 0.01240(14)
C8_5 C 0.7347(4) 0.8275(3) 0.15636(14)
H5_5 H 0.734546 0.782379 0.140534
C9_5 C 0.7405(3) 0.8263(2) 0.20229(14)
H6_5 H 0.742988 0.780502 0.217301
C10_5 C 0.7427(3) 0.8927(2) 0.22662(14)
C11_5 C 0.7401(3) 0.9591(2) 0.20181(13)
C12_5 C 0.7334(3) 0.9578(2) 0.15622(13)
C13_5 C 0.7465(3) 0.8924(2) 0.27643(13)
C14_5 C 0.7376(4) 0.8256(3) 0.30034(14)
H9_5 H 0.726910 0.780725 0.285033
C15_5 C 0.7444(4) 0.8252(3) 0.34626(15)
H10_5 H 0.739765 0.779998 0.361800
C16_5 C 0.7634(3) 0.9546(2) 0.34723(13)
H11_5 H 0.770269 0.998895 0.363553
C17_5 C 0.7595(3) 0.9576(2) 0.30153(13)
C18_5 C 0.7676(3) 0.8869(2) 0.41775(13)
C19_5 C 0.6958(4) 0.8527(3) 0.44254(16)
H13_5 H 0.642576 0.831420 0.428389
C20_5 C 0.7044(4) 0.8506(3) 0.48860(15)
H14_7 H 0.656590 0.828009 0.505889
C21_7 C 0.7847(3) 0.8822(3) 0.50917(14)
C22_5 C 0.8560(3) 0.9151(2) 0.48320(13)
H15_5 H 0.910304 0.935553 0.496940
C23_5 C 0.8471(3) 0.9176(2) 0.43702(13)
H16_5 H 0.894694 0.939977 0.419477
C24_7 C 0.7941(4) 0.8826(3) 0.55955(14)
O1_6 O 0.0844(3) 0.8738(2) 0.56782(10)
O2_6 O 0.2401(2) 0.8988(2) 0.58141(11)
O6_6 O 0.0013(2) 0.99573(18) 0.63812(10)
O10_6 O 0.1495(3) 0.84842(18) 0.65381(10)
N1_6 N 0.2294(3) 0.8922(2) 0.36590(10)
N2_6 N 0.2575(3) 0.8891(2) 0.13112(10)
C1_6 C 0.1697(4) 0.8866(3) 0.55536(14)
C2_6 C 0.1877(3) 0.8878(3) 0.50557(13)
C3_6 C 0.1228(4) 0.8544(3) 0.47747(15)
H1_6 H 0.068320 0.831092 0.489310
C4_6 C 0.1374(4) 0.8548(3) 0.43136(15)
H2_6 H 0.094458 0.830466 0.412254
C5_6 C 0.2151(3) 0.8913(2) 0.41471(12)
C6_6 C 0.2831(3) 0.9255(3) 0.44189(15)
H3_6 H 0.336935 0.949152 0.429708
C7_6 C 0.2683(3) 0.9233(3) 0.48760(14)
H4_6 H 0.312900 0.945885 0.506694
C8_6 C 0.2347(4) 0.8275(3) 0.34364(14)
H5_6 H 0.234546 0.782379 0.359466
C9_6 C 0.2405(3) 0.8263(2) 0.29771(14)
H6_6 H 0.242988 0.780502 0.282699
C10_6 C 0.2427(3) 0.8927(2) 0.27338(14)
C11_6 C 0.2401(3) 0.9591(2) 0.29819(13)
C12_6 C 0.2334(3) 0.9578(2) 0.34378(13)
C13_6 C 0.2465(3) 0.8924(2) 0.22357(13)
C14_6 C 0.2376(4) 0.8256(3) 0.19966(14)
H9_6 H 0.226910 0.780725 0.214967
C15_6 C 0.2444(4) 0.8252(3) 0.15374(15)
H10_6 H 0.239765 0.779998 0.138200
C16_6 C 0.2634(3) 0.9546(2) 0.15277(13)
H11_6 H 0.270269 0.998895 0.136447
C17_6 C 0.2595(3) 0.9576(2) 0.19847(13)
C18_6 C 0.2676(3) 0.8869(2) 0.08225(13)
C19_6 C 0.1958(4) 0.8527(3) 0.05746(16)
H13_6 H 0.142576 0.831420 0.071611
C20_6 C 0.2044(4) 0.8506(3) 0.01140(15)
C22_6 C 0.3560(3) 0.9151(2) 0.01680(13)
H15_6 H 0.410304 0.935553 0.003060
C23_6 C 0.3471(3) 0.9176(2) 0.06298(13)
H16_6 H 0.394694 0.939977 0.080523
H21_6 H 0.0140566 0.714095 0.584948
H23_6 H 0.183224 0.896336 0.646911
H24_6 H 0.151908 0.838951 0.686666
O3_8 O 0.2794(3) 0.1320(3) 0.41696(12)
O4_4 O 0.1252(2) 0.10043(18) 0.42461(9)
N1_7 N 0.2706(3) 0.1078(2) 0.86590(10)
N2_7 N 0.2425(3) 0.1109(2) 0.63112(10)
C3_7 C 0.3772(4) 0.1456(3) 0.97747(15)
H1_7 H 0.431680 0.168908 0.989310
C4_7 C 0.3626(4) 0.1452(3) 0.93136(15)
H2_7 H 0.405542 0.169534 0.912254
C5_7 C 0.2849(3) 0.1087(2) 0.91471(12)
C6_7 C 0.2169(3) 0.0745(3) 0.94189(15)
H3_7 H 0.163065 0.050848 0.929708
C7_7 C 0.2317(3) 0.0767(3) 0.98760(14)
C8_7 C 0.2653(4) 0.1725(3) 0.84364(14)
H5_7 H 0.265454 0.217621 0.859466
C9_7 C 0.2595(3) 0.1737(2) 0.79771(14)
H6_7 H 0.257012 0.219498 0.782699
C10_7 C 0.2573(3) 0.1073(2) 0.77338(14)
C11_7 C 0.2599(3) 0.0409(2) 0.79819(13)
C12_7 C 0.2666(3) 0.0422(2) 0.84378(13)
C13_7 C 0.2535(3) 0.1076(2) 0.72357(13)
C14_7 C 0.2624(4) 0.1744(3) 0.69966(14)
H9_7 H 0.273090 0.219275 0.714967
C15_7 C 0.2556(4) 0.1748(3) 0.65374(15)
H10_7 H 0.260235 0.220002 0.638200
C16_7 C 0.2366(3) 0.0454(2) 0.65277(13)
H11_7 H 0.229731 0.001105 0.636447
C17_7 C 0.2405(3) 0.0424(2) 0.69847(13)
C18_7 C 0.2324(3) 0.1131(2) 0.58225(13)
C19_7 C 0.3042(4) 0.1473(3) 0.55746(16)
H13_7 H 0.357424 0.168580 0.571611
C20_7 C 0.2956(4) 0.1494(3) 0.51140(15)
H14_8 H 0.343410 0.171991 0.494111
C21_8 C 0.2153(3) 0.1178(3) 0.49083(14)
C22_7 C 0.1440(3) 0.0849(2) 0.51680(13)
H15_7 H 0.089696 0.064447 0.503060
C23_7 C 0.1529(3) 0.0824(2) 0.56298(13)
H16_7 H 0.105306 0.060023 0.580523
C24_8 C 0.2059(4) 0.1174(3) 0.44045(14)
Eu3_4 Eu 0.01647(2) 0.14302(2) 0.37009(2)
S1_8 S 0.00308(8) 0.44322(6) 0.26428(4)
O1_7 O 0.0844(3) 0.6262(2) 0.06782(10)
O2_7 O 0.2401(2) 0.6012(2) 0.08141(11)
O6_7 O 0.0013(2) 0.50427(18) 0.13812(10)
O7_8 O 0.0159(3) 0.35720(19) 0.34757(14)
O8_4 O 0.0111(2) 0.24292(18) 0.31689(11)
O10_7 O 0.1495(3) 0.65158(18) 0.15381(10)
C1_7 C 0.1697(4) 0.6134(3) 0.05536(14)
C2_7 C 0.1877(3) 0.6122(3) 0.00557(13)
H4_7 H 0.312900 0.554115 0.006694
C26_8 C 0.0026(3) 0.4378(2) 0.20673(15)
C27_8 C 0.0076(3) 0.3646(2) 0.19260(16)
H17_8 H 0.008887 0.350473 0.162530
C28_8 C 0.0104(3) 0.3130(3) 0.22851(16)
H18_8 H 0.012919 0.261079 0.224831
C29_8 C 0.0091(3) 0.3476(2) 0.26883(16)
C30_8 C 0.0118(3) 0.3134(3) 0.31463(16)
H21_7 H 0.0140566 0.785905 0.0849476
H23_7 H 0.183224 0.603664 0.146911
H24_7 H 0.151908 0.661049 0.186666
O5_8 O 0.0115(2) 0.06909(18) 0.29950(10)
O9_8 O 0.1802(3) 0.14979(19) 0.34103(10)
O11_8 O 0.0471(3) 0.25734(18) 0.41160(10)
C25_8 C 0.0027(3) 0.0078(2) 0.31982(14)
H19_8 H 0.215339 0.191409 0.356116
H20_8 H 0.178223 0.159217 0.308163
H22_8 H 0.0948061 0.288533 0.395079
H7_7 H 0.256842 0.994969 0.783350
H8_7 H 0.268553 0.997234 0.859707
H12_7 H 0.234473 0.996343 0.713018
O1_8 O 0.9156(3) 0.1262(2) 0.43218(10)
O2_8 O 0.7599(2) 0.1012(2) 0.41859(11)
O6_8 O 0.9987(2) 0.00427(18) 0.36188(10)
O10_8 O 0.8505(3) 0.15158(18) 0.34619(10)
N1_8 N 0.7706(3) 0.1078(2) 0.63410(10)
N2_8 N 0.7425(3) 0.1109(2) 0.86888(10)
C1_8 C 0.8303(4) 0.1134(3) 0.44464(14)
C2_8 C 0.8123(3) 0.1122(3) 0.49443(13)
C3_8 C 0.8772(4) 0.1456(3) 0.52253(15)
H1_8 H 0.931680 0.168908 0.510690
C4_8 C 0.8626(4) 0.1452(3) 0.56864(15)
H2_8 H 0.905542 0.169534 0.587746
C5_8 C 0.7849(3) 0.1087(2) 0.58529(12)
C6_8 C 0.7169(3) 0.0745(3) 0.55811(15)
H3_8 H 0.663065 0.050848 0.570292
C7_8 C 0.7317(3) 0.0767(3) 0.51240(14)
H4_8 H 0.687100 0.054115 0.493306
C8_8 C 0.7653(4) 0.1725(3) 0.65636(14)
H5_8 H 0.765454 0.217621 0.640534
C9_8 C 0.7595(3) 0.1737(2) 0.70229(14)
H6_8 H 0.757012 0.219498 0.717301
C10_8 C 0.7573(3) 0.1073(2) 0.72662(14)
C11_8 C 0.7599(3) 0.0409(2) 0.70181(13)
C12_8 C 0.7666(3) 0.0422(2) 0.65622(13)
C13_8 C 0.7535(3) 0.1076(2) 0.77643(13)
C14_8 C 0.7624(4) 0.1744(3) 0.80034(14)
H9_8 H 0.773090 0.219275 0.785033
C15_8 C 0.7556(4) 0.1748(3) 0.84626(15)
H10_8 H 0.760235 0.220002 0.861800
C16_8 C 0.7366(3) 0.0454(2) 0.84723(13)
H11_8 H 0.729731 0.001105 0.863553
C17_8 C 0.7405(3) 0.0424(2) 0.80153(13)
C18_8 C 0.7324(3) 0.1131(2) 0.91775(13)
C19_8 C 0.8042(4) 0.1473(3) 0.94254(16)
H13_8 H 0.857424 0.168580 0.928389
C20_8 C 0.7956(4) 0.1494(3) 0.98860(15)
C22_8 C 0.6440(3) 0.0849(2) 0.98320(13)
H15_8 H 0.589696 0.064447 0.996940
C23_8 C 0.6529(3) 0.0824(2) 0.93702(13)
H16_8 H 0.605306 0.060023 0.919477
H21_8 H 0.985943 0.285905 0.415052
H23_8 H 0.816776 0.103664 0.353089
H24_8 H 0.848092 0.161049 0.313334
H7_8 H 0.743158 0.005031 0.216650
H8_8 H 0.731447 0.002766 0.140293
H12_8 H 0.765527 0.003657 0.286982
loop_
_geom_bond_atom_site_label_1
_geom_bond_atom_site_label_2
_geom_bond_site_symmetry_1
_geom_bond_site_symmetry_2
O3 C24 1_555 1_555
O4 C24 1_555 1_555
C24 C21 1_555 1_555
Eu3 O4 1_555 1_555
O5 Eu3 1_555 1_555
O9 Eu3 1_555 1_555
O11 Eu3 1_555 1_555
C25 O5 1_555 1_555
O13 Eu3 1_555 1_555
O9 H19 1_555 1_555
O9 H20 1_555 1_555
O11 H22 1_555 1_555
S1 C26 1_555 1_555
O7 C30 1_555 1_555
O13 C30 1_555 1_555
C27 C26 1_555 1_555
H17 C27 1_555 1_555
C28 C27 1_555 1_555
H18 C28 1_555 1_555
C29 S1 1_555 1_555
C30 C29 1_555 1_555
C28 C29 1_555 1_555
Eu1 O1 1_555 1_555
S1_2 C26_2 1_555 1_555
O1 C1 1_555 1_555
O2 C1 1_555 1_555
O5_2 Eu1 1_555 1_555
O6 Eu1 1_555 1_555
O7_2 C30_2 1_555 1_555
O8 C30_2 1_555 1_555
O9_2 Eu1 1_555 1_555
O10 Eu1 1_555 1_555
O11_2 Eu1 1_555 1_555
N1 C5 1_555 1_555
N2 C15 1_555 1_555
C1 C2 1_555 1_555
C2 C3 1_555 1_555
C3 H1 1_555 1_555
C4 C3 1_555 1_555
H2 C4 1_555 1_555
C5 C4 1_555 1_555
C6 C5 1_555 1_555
H3 C6 1_555 1_555
C7 C2 1_555 1_555
H4 C7 1_555 1_555
C8 N1 1_555 1_555
H5 C8 1_555 1_555
C9 C8 1_555 1_555
H6 C9 1_555 1_555
C10 C9 1_555 1_555
C11 C10 1_555 1_555
H7_2 C11 1_555 1_555
C12 N1 1_555 1_555
H8_2 C12 1_555 1_555
C13 C10 1_555 1_555
C14 C13 1_555 1_555
H9 C14 1_555 1_555
C15 C14 1_555 1_555
H10 C15 1_555 1_555
C16 N2 1_555 1_555
H11 C16 1_555 1_555
C17 C13 1_555 1_555
H12_2 C17 1_555 1_555
C18 N2 1_555 1_555
C19 C18 1_555 1_555
H13 C19 1_555 1_555
C20 C19 1_555 1_555
H15 C22 1_555 1_555
C23 C18 1_555 1_555
H16 C23 1_555 1_555
C25_2 O5_2 1_555 1_555
C26_2 C25_2 1_555 1_555
C27_2 C26_2 1_555 1_555
H17_2 C27_2 1_555 1_555
C28_2 C27_2 1_555 1_555
H18_2 C28_2 1_555 1_555
C29_2 S1_2 1_555 1_555
C30_2 C29_2 1_555 1_555
Eu2 O8 1_555 1_555
O12 Eu1 1_555 1_555
O13_2 Eu1 1_555 1_555
O6 C25_2 1_555 1_555
C6 C7 1_555 1_555
C11 C12 1_555 1_555
C16 C17 1_555 1_555
C22 C23 1_555 1_555
C28_2 C29_2 1_555 1_555
O9_2 H19_2 1_555 1_555
O9_2 H20_2 1_555 1_555
O11_2 H21 1_555 1_555
O11_2 H22_2 1_555 1_555
O10 H23 1_555 1_555
O10 H24 1_555 1_555
Eu2 O1_2 1_555 1_555
O1_2 C1_2 1_555 1_555
O2_2 C1_2 1_555 1_555
O5_3 Eu2 1_555 1_555
O6_2 Eu2 1_555 1_555
O9_3 Eu2 1_555 1_555
O10_2 Eu2 1_555 1_555
O11_3 Eu2 1_555 1_555
C1_2 C2_2 1_555 1_555
C25_3 O5_3 1_555 1_555
O12_2 Eu2 1_555 1_555
O6_2 C25_3 1_555 1_555
O9_3 H19_3 1_555 1_555
O9_3 H20_3 1_555 1_555
O11_3 H21_2 1_555 1_555
O11_3 H22_3 1_555 1_555
O10_2 H23_2 1_555 1_555
O10_2 H24_2 1_555 1_555
S1_3 C26_3 1_555 1_555
O7_3 C30_3 1_555 1_555
O13_2 C30_3 1_555 1_555
C27_3 C26_3 1_555 1_555
H17_3 C27_3 1_555 1_555
C28_3 C27_3 1_555 1_555
H18_3 C28_3 1_555 1_555
C29_3 S1_3 1_555 1_555
C30_3 C29_3 1_555 1_555
C28_3 C29_3 1_555 1_555
O3_2 C24_2 1_555 1_555
O12 C24_2 1_555 1_555
N1_2 C5_2 1_555 1_555
N2_2 C15_2 1_555 1_555
C3_2 H1_2 1_555 1_555
C4_2 C3_2 1_555 1_555
H2_2 C4_2 1_555 1_555
C5_2 C4_2 1_555 1_555
C6_2 C5_2 1_555 1_555
H3_2 C6_2 1_555 1_555
C8_2 N1_2 1_555 1_555
H5_2 C8_2 1_555 1_555
C9_2 C8_2 1_555 1_555
H6_2 C9_2 1_555 1_555
C10_2 C9_2 1_555 1_555
C11_2 C10_2 1_555 1_555
H7_3 C11_2 1_555 1_555
C12_2 N1_2 1_555 1_555
H8_3 C12_2 1_555 1_555
C13_2 C10_2 1_555 1_555
C14_2 C13_2 1_555 1_555
H9_2 C14_2 1_555 1_555
C15_2 C14_2 1_555 1_555
H10_2 C15_2 1_555 1_555
C16_2 N2_2 1_555 1_555
H11_2 C16_2 1_555 1_555
C17_2 C13_2 1_555 1_555
H12_3 C17_2 1_555 1_555
C18_2 N2_2 1_555 1_555
C19_2 C18_2 1_555 1_555
H13_2 C19_2 1_555 1_555
C20_2 C19_2 1_555 1_555
H14_2 C20_2 1_555 1_555
C21_2 C20_2 1_555 1_555
C22_2 C21_2 1_555 1_555
H15_2 C22_2 1_555 1_555
C23_2 C18_2 1_555 1_555
H16_2 C23_2 1_555 1_555
C24_2 C21_2 1_555 1_555
C6_2 C7_2 1_555 1_555
C11_2 C12_2 1_555 1_555
C16_2 C17_2 1_555 1_555
C22_2 C23_2 1_555 1_555
O3_3 C24_3 1_555 1_555
O12_2 C24_3 1_555 1_555
C24_3 C21_3 1_555 1_555
O5_4 Eu1_2 1_555 1_555
O9_4 Eu1_2 1_555 1_555
O11_4 Eu1_2 1_555 1_555
C25_4 O5_4 1_555 1_555
O12_3 Eu1_2 1_555 1_555
O13_3 Eu1_2 1_555 1_555
O9_4 H19_4 1_555 1_555
O9_4 H20_4 1_555 1_555
O11_4 H22_4 1_555 1_555
S1_4 C26_4 1_555 1_555
O7_4 C30_4 1_555 1_555
O13_3 C30_4 1_555 1_555
C27_4 C26_4 1_555 1_555
H17_4 C27_4 1_555 1_555
C28_4 C27_4 1_555 1_555
H18_4 C28_4 1_555 1_555
C29_4 S1_4 1_555 1_555
C30_4 C29_4 1_555 1_555
C28_4 C29_4 1_555 1_555
O3_4 C24_4 1_555 1_555
O12_3 C24_4 1_555 1_555
C24_4 C21_4 1_555 1_555
O3_5 C24_5 1_555 1_555
O4_2 C24_5 1_555 1_555
N1_3 C5_3 1_555 1_555
N2_3 C15_3 1_555 1_555
C3_3 H1_3 1_555 1_555
C4_3 C3_3 1_555 1_555
H2_3 C4_3 1_555 1_555
C5_3 C4_3 1_555 1_555
C6_3 C5_3 1_555 1_555
H3_3 C6_3 1_555 1_555
C8_3 N1_3 1_555 1_555
H5_3 C8_3 1_555 1_555
C9_3 C8_3 1_555 1_555
H6_3 C9_3 1_555 1_555
C10_3 C9_3 1_555 1_555
C11_3 C10_3 1_555 1_555
H7_5 C11_3 1_555 1_555
C12_3 N1_3 1_555 1_555
H8_5 C12_3 1_555 1_555
C13_3 C10_3 1_555 1_555
C14_3 C13_3 1_555 1_555
H9_3 C14_3 1_555 1_555
C15_3 C14_3 1_555 1_555
H10_3 C15_3 1_555 1_555
C16_3 N2_3 1_555 1_555
H11_3 C16_3 1_555 1_555
C17_3 C13_3 1_555 1_555
H12_5 C17_3 1_555 1_555
C18_3 N2_3 1_555 1_555
C19_3 C18_3 1_555 1_555
H13_3 C19_3 1_555 1_555
C20_3 C19_3 1_555 1_555
H14_5 C20_3 1_555 1_555
C21_5 C20_3 1_555 1_555
C22_3 C21_5 1_555 1_555
H15_3 C22_3 1_555 1_555
C23_3 C18_3 1_555 1_555
H16_3 C23_3 1_555 1_555
C24_5 C21_5 1_555 1_555
Eu3_2 O4_2 1_555 1_555
C6_3 C7_3 1_555 1_555
C11_3 C12_3 1_555 1_555
C16_3 C17_3 1_555 1_555
C22_3 C23_3 1_555 1_555
O3_6 C24_6 1_555 1_555
O4_3 C24_6 1_555 1_555
C24_6 C21_6 1_555 1_555
Eu3_3 O4_3 1_555 1_555
Eu3_2 O1_3 1_555 1_555
S1_5 C26_5 1_555 1_555
O1_3 C1_3 1_555 1_555
O2_3 C1_3 1_555 1_555
O5_5 Eu3_2 1_555 1_555
O6_3 Eu3_2 1_555 1_555
O7_5 C30_5 1_555 1_555
O8_2 C30_5 1_555 1_555
O9_5 Eu3_2 1_555 1_555
O10_3 Eu3_2 1_555 1_555
O11_5 Eu3_2 1_555 1_555
N1_4 C5_4 1_555 1_555
N2_4 C15_4 1_555 1_555
C1_3 C2_3 1_555 1_555
C2_3 C3_4 1_555 1_555
C3_4 H1_4 1_555 1_555
C4_4 C3_4 1_555 1_555
H2_4 C4_4 1_555 1_555
C5_4 C4_4 1_555 1_555
C6_4 C5_4 1_555 1_555
H3_4 C6_4 1_555 1_555
C7_4 C2_3 1_555 1_555
H4_3 C7_4 1_555 1_555
C8_4 N1_4 1_555 1_555
H5_4 C8_4 1_555 1_555
C9_4 C8_4 1_555 1_555
H6_4 C9_4 1_555 1_555
C10_4 C9_4 1_555 1_555
C11_4 C10_4 1_555 1_555
H7_6 C11_4 1_555 1_555
C12_4 N1_4 1_555 1_555
H8_6 C12_4 1_555 1_555
C13_4 C10_4 1_555 1_555
C14_4 C13_4 1_555 1_555
H9_4 C14_4 1_555 1_555
C15_4 C14_4 1_555 1_555
H10_4 C15_4 1_555 1_555
C16_4 N2_4 1_555 1_555
H11_4 C16_4 1_555 1_555
C17_4 C13_4 1_555 1_555
H12_6 C17_4 1_555 1_555
C18_4 N2_4 1_555 1_555
C19_4 C18_4 1_555 1_555
H13_4 C19_4 1_555 1_555
C20_4 C19_4 1_555 1_555
H15_4 C22_4 1_555 1_555
C23_4 C18_4 1_555 1_555
H16_4 C23_4 1_555 1_555
C25_5 O5_5 1_555 1_555
C26_5 C25_5 1_555 1_555
C27_5 C26_5 1_555 1_555
H17_5 C27_5 1_555 1_555
C28_5 C27_5 1_555 1_555
H18_5 C28_5 1_555 1_555
C29_5 S1_5 1_555 1_555
C30_5 C29_5 1_555 1_555
Eu3_3 O8_2 1_555 1_555
O13_4 Eu3_2 1_555 1_555
O6_3 C25_5 1_555 1_555
C6_4 C7_4 1_555 1_555
C11_4 C12_4 1_555 1_555
C16_4 C17_4 1_555 1_555
C22_4 C23_4 1_555 1_555
C28_5 C29_5 1_555 1_555
O9_5 H19_5 1_555 1_555
O9_5 H20_5 1_555 1_555
O11_5 H21_3 1_555 1_555
O11_5 H22_5 1_555 1_555
O10_3 H23_3 1_555 1_555
O10_3 H24_3 1_555 1_555
S1_6 C26_6 1_555 1_555
O7_6 C30_6 1_555 1_555
O13_4 C30_6 1_555 1_555
C27_6 C26_6 1_555 1_555
H17_6 C27_6 1_555 1_555
C28_6 C27_6 1_555 1_555
H18_6 C28_6 1_555 1_555
C29_6 S1_6 1_555 1_555
C30_6 C29_6 1_555 1_555
C28_6 C29_6 1_555 1_555
Eu3_3 O1_4 1_555 1_555
O1_4 C1_4 1_555 1_555
O2_4 C1_4 1_555 1_555
O5_6 Eu3_3 1_555 1_555
O6_4 Eu3_3 1_555 1_555
O9_6 Eu3_3 1_555 1_555
O10_4 Eu3_3 1_555 1_555
O11_6 Eu3_3 1_555 1_555
C1_4 C2_4 1_555 1_555
C25_6 O5_6 1_555 1_555
O6_4 C25_6 1_555 1_555
O9_6 H19_6 1_555 1_555
O9_6 H20_6 1_555 1_555
O11_6 H21_4 1_555 1_555
O11_6 H22_6 1_555 1_555
O10_4 H23_4 1_555 1_555
O10_4 H24_4 1_555 1_555
S1_7 C26_7 1_555 1_555
O1_5 C1_5 1_555 1_555
O2_5 C1_5 1_555 1_555
O7_7 C30_7 1_555 1_555
O8_3 C30_7 1_555 1_555
C1_5 C2_5 1_555 1_555
C27_7 C26_7 1_555 1_555
H17_7 C27_7 1_555 1_555
C28_7 C27_7 1_555 1_555
H18_7 C28_7 1_555 1_555
C29_7 S1_7 1_555 1_555
C30_7 C29_7 1_555 1_555
Eu2_2 O8_3 1_555 1_555
C28_7 C29_7 1_555 1_555
O10_5 H23_5 1_555 1_555
O10_5 H24_5 1_555 1_555
O5_7 Eu2_2 1_555 1_555
O9_7 Eu2_2 1_555 1_555
O11_7 Eu2_2 1_555 1_555
C25_7 O5_7 1_555 1_555
O12_4 Eu2_2 1_555 1_555
O9_7 H19_7 1_555 1_555
O9_7 H20_7 1_555 1_555
O11_7 H22_7 1_555 1_555
O3_7 C24_7 1_555 1_555
O12_4 C24_7 1_555 1_555
N1_5 C5_5 1_555 1_555
N2_5 C15_5 1_555 1_555
C3_5 H1_5 1_555 1_555
C4_5 C3_5 1_555 1_555
H2_5 C4_5 1_555 1_555
C5_5 C4_5 1_555 1_555
C6_5 C5_5 1_555 1_555
H3_5 C6_5 1_555 1_555
C8_5 N1_5 1_555 1_555
H5_5 C8_5 1_555 1_555
C9_5 C8_5 1_555 1_555
H6_5 C9_5 1_555 1_555
C10_5 C9_5 1_555 1_555
C11_5 C10_5 1_555 1_555
C12_5 N1_5 1_555 1_555
C13_5 C10_5 1_555 1_555
C14_5 C13_5 1_555 1_555
H9_5 C14_5 1_555 1_555
C15_5 C14_5 1_555 1_555
H10_5 C15_5 1_555 1_555
C16_5 N2_5 1_555 1_555
H11_5 C16_5 1_555 1_555
C17_5 C13_5 1_555 1_555
C18_5 N2_5 1_555 1_555
C19_5 C18_5 1_555 1_555
H13_5 C19_5 1_555 1_555
C20_5 C19_5 1_555 1_555
H14_7 C20_5 1_555 1_555
C21_7 C20_5 1_555 1_555
C22_5 C21_7 1_555 1_555
H15_5 C22_5 1_555 1_555
C23_5 C18_5 1_555 1_555
H16_5 C23_5 1_555 1_555
C24_7 C21_7 1_555 1_555
C6_5 C7_5 1_555 1_555
C11_5 C12_5 1_555 1_555
C16_5 C17_5 1_555 1_555
C22_5 C23_5 1_555 1_555
O1_6 C1_6 1_555 1_555
O2_6 C1_6 1_555 1_555
N1_6 C5_6 1_555 1_555
N2_6 C15_6 1_555 1_555
C1_6 C2_6 1_555 1_555
C2_6 C3_6 1_555 1_555
C3_6 H1_6 1_555 1_555
C4_6 C3_6 1_555 1_555
H2_6 C4_6 1_555 1_555
C5_6 C4_6 1_555 1_555
C6_6 C5_6 1_555 1_555
H3_6 C6_6 1_555 1_555
C7_6 C2_6 1_555 1_555
H4_6 C7_6 1_555 1_555
C8_6 N1_6 1_555 1_555
H5_6 C8_6 1_555 1_555
C9_6 C8_6 1_555 1_555
H6_6 C9_6 1_555 1_555
C10_6 C9_6 1_555 1_555
C11_6 C10_6 1_555 1_555
C12_6 N1_6 1_555 1_555
C13_6 C10_6 1_555 1_555
C14_6 C13_6 1_555 1_555
H9_6 C14_6 1_555 1_555
C15_6 C14_6 1_555 1_555
H10_6 C15_6 1_555 1_555
C16_6 N2_6 1_555 1_555
H11_6 C16_6 1_555 1_555
C17_6 C13_6 1_555 1_555
C18_6 N2_6 1_555 1_555
C19_6 C18_6 1_555 1_555
H13_6 C19_6 1_555 1_555
C20_6 C19_6 1_555 1_555
H15_6 C22_6 1_555 1_555
C23_6 C18_6 1_555 1_555
H16_6 C23_6 1_555 1_555
C6_6 C7_6 1_555 1_555
C11_6 C12_6 1_555 1_555
C16_6 C17_6 1_555 1_555
C22_6 C23_6 1_555 1_555
O10_6 H23_6 1_555 1_555
O10_6 H24_6 1_555 1_555
O3_8 C24_8 1_555 1_555
O4_4 C24_8 1_555 1_555
N1_7 C5_7 1_555 1_555
N2_7 C15_7 1_555 1_555
C3_7 H1_7 1_555 1_555
C4_7 C3_7 1_555 1_555
H2_7 C4_7 1_555 1_555
C5_7 C4_7 1_555 1_555
C6_7 C5_7 1_555 1_555
H3_7 C6_7 1_555 1_555
C8_7 N1_7 1_555 1_555
H5_7 C8_7 1_555 1_555
C9_7 C8_7 1_555 1_555
H6_7 C9_7 1_555 1_555
C10_7 C9_7 1_555 1_555
C11_7 C10_7 1_555 1_555
C12_7 N1_7 1_555 1_555
C13_7 C10_7 1_555 1_555
C14_7 C13_7 1_555 1_555
H9_7 C14_7 1_555 1_555
C15_7 C14_7 1_555 1_555
H10_7 C15_7 1_555 1_555
C16_7 N2_7 1_555 1_555
H11_7 C16_7 1_555 1_555
C17_7 C13_7 1_555 1_555
C18_7 N2_7 1_555 1_555
C19_7 C18_7 1_555 1_555
H13_7 C19_7 1_555 1_555
C20_7 C19_7 1_555 1_555
H14_8 C20_7 1_555 1_555
C21_8 C20_7 1_555 1_555
C22_7 C21_8 1_555 1_555
H15_7 C22_7 1_555 1_555
C23_7 C18_7 1_555 1_555
H16_7 C23_7 1_555 1_555
C24_8 C21_8 1_555 1_555
Eu3_4 O4_4 1_555 1_555
C6_7 C7_7 1_555 1_555
C11_7 C12_7 1_555 1_555
C16_7 C17_7 1_555 1_555
C22_7 C23_7 1_555 1_555
S1_8 C26_8 1_555 1_555
O1_7 C1_7 1_555 1_555
O2_7 C1_7 1_555 1_555
O7_8 C30_8 1_555 1_555
O8_4 C30_8 1_555 1_555
C1_7 C2_7 1_555 1_555
C27_8 C26_8 1_555 1_555
H17_8 C27_8 1_555 1_555
C28_8 C27_8 1_555 1_555
H18_8 C28_8 1_555 1_555
C29_8 S1_8 1_555 1_555
C30_8 C29_8 1_555 1_555
Eu3_4 O8_4 1_555 1_555
C28_8 C29_8 1_555 1_555
O10_7 H23_7 1_555 1_555
O10_7 H24_7 1_555 1_555
O5_8 Eu3_4 1_555 1_555
O9_8 Eu3_4 1_555 1_555
O11_8 Eu3_4 1_555 1_555
C25_8 O5_8 1_555 1_555
O9_8 H19_8 1_555 1_555
O9_8 H20_8 1_555 1_555
O11_8 H22_8 1_555 1_555
O1_8 C1_8 1_555 1_555
O2_8 C1_8 1_555 1_555
N1_8 C5_8 1_555 1_555
N2_8 C15_8 1_555 1_555
C1_8 C2_8 1_555 1_555
C2_8 C3_8 1_555 1_555
C3_8 H1_8 1_555 1_555
C4_8 C3_8 1_555 1_555
H2_8 C4_8 1_555 1_555
C5_8 C4_8 1_555 1_555
C6_8 C5_8 1_555 1_555
H3_8 C6_8 1_555 1_555
C7_8 C2_8 1_555 1_555
H4_8 C7_8 1_555 1_555
C8_8 N1_8 1_555 1_555
H5_8 C8_8 1_555 1_555
C9_8 C8_8 1_555 1_555
H6_8 C9_8 1_555 1_555
C10_8 C9_8 1_555 1_555
C11_8 C10_8 1_555 1_555
C12_8 N1_8 1_555 1_555
C13_8 C10_8 1_555 1_555
C14_8 C13_8 1_555 1_555
H9_8 C14_8 1_555 1_555
C15_8 C14_8 1_555 1_555
H10_8 C15_8 1_555 1_555
C16_8 N2_8 1_555 1_555
H11_8 C16_8 1_555 1_555
C17_8 C13_8 1_555 1_555
C18_8 N2_8 1_555 1_555
C19_8 C18_8 1_555 1_555
H13_8 C19_8 1_555 1_555
C20_8 C19_8 1_555 1_555
H15_8 C22_8 1_555 1_555
C23_8 C18_8 1_555 1_555
H16_8 C23_8 1_555 1_555
C6_8 C7_8 1_555 1_555
C11_8 C12_8 1_555 1_555
C16_8 C17_8 1_555 1_555
C22_8 C23_8 1_555 1_555
O10_8 H23_8 1_555 1_555
O10_8 H24_8 1_555 1_555

#END
