
###############################################################################
#
# This file contains modified crystal structure data generated from the
# MOF subset of the Cambridge Structural Database (CSD) v543 
# hosted by the Cambridge Crystallographic Data Centre (CCDC).
#
# This work is licensed under the Creative Commons
# Attribution-NonCommercial-ShareAlike 4.0 International License.
# To view a copy of this license, visit
# http://creativecommons.org/licenses/by-nc-sa/4.0/
# or send a letter to
# Creative Commons, PO Box 1866, Mountain View, CA 94042, USA.
#
# CIF created using the CSD Python API on 29 September 2022
# The structure has been converted into the P1 space group
# The structure has a 3D framework
# The original CSD entry VAZROF is in the orthorhombic crystal system
# The framework has been calculated to contain at least 10.0% void space
# The void calculation uses a probe of radius 1.32A, grid spacing 0.4
#
###############################################################################

data_VAZROF
_chemical_formula_moiety         '(C176 H112 Fe8 N16 O32)n'
_symmetry_cell_setting           triclinic
_symmetry_space_group_name_H-M   'P 1'
_symmetry_Int_Tables_number      1
_space_group_name_Hall           'P 1'
loop_
_symmetry_equiv_pos_site_id
_symmetry_equiv_pos_as_xyz
1 x,y,z
_cell_length_a                   24.451(7)
_cell_length_b                   11.479(3)
_cell_length_c                   16.299(4)
_cell_angle_alpha                90
_cell_angle_beta                 90
_cell_angle_gamma                90
_cell_volume                     4574.69
loop_
_atom_site_label
_atom_site_type_symbol
_atom_site_fract_x
_atom_site_fract_y
_atom_site_fract_z
C8 C 0.5038(2) 0.1037(4) 0.6166(3)
H6 H 0.4759 0.1442 0.5904
N2 N 0.54515(16) 0.1648(3) 0.6561(2)
C9 C 0.5865(2) 0.1042(4) 0.6962(3)
H7 H 0.6139 0.1446 0.7239
Fe4 Fe 0.54572(2) 0.35544(5) 0.65355(4)
O1 O 0.47050(12) 0.3559(2) 0.59830(19)
O2 O 0.44002(15) 0.3558(3) 0.72401(18)
O3 O 0.09524(19) 0.3291(4) 0.4921(3)
O4 O 0.12880(12) 0.3580(3) 0.3700(2)
N1 N 0.54344(17) 0.5439(3) 0.6579(3)
C1 C 0.5092(2) 0.6038(4) 0.6046(3)
H1 H 0.4864 0.5627 0.5692
C2 C 0.5088(2) 0.7251(4) 0.6041(3)
H2 H 0.4859 0.7650 0.5683
C3 C 0.5429(2) 0.7865(4) 0.6572(3)
C4 C 0.5776(2) 0.7256(4) 0.7101(3)
H3 H 0.6006 0.7663 0.7452
C5 C 0.5778(2) 0.6051(4) 0.7106(3)
H4 H 0.6008 0.5651 0.7461
C6 C 0.5456(2) 0.9218(4) 0.6554(3)
C7 C 0.5038(2) 0.9830(4) 0.6158(3)
H5 H 0.4761 0.9428 0.5889
C10 C 0.5869(2) 0.9831(4) 0.6950(3)
H8 H 0.6150 0.9428 0.7209
C11 C 0.4318(2) 0.3562(5) 0.6475(4)
C12 C 0.3595(3) 0.3531(5) 0.5352(4)
H9 H 0.3862 0.3526 0.4946
C13 C 0.3744(2) 0.3571(5) 0.6172(4)
C14 C 0.3345(3) 0.3582(5) 0.6766(4)
H10 H 0.3449 0.3611 0.7314
C15 C 0.2794(3) 0.3550(5) 0.6574(4)
H11 H 0.2530 0.3558 0.6984
C16 C 0.2648(3) 0.3507(5) 0.5755(4)
C17 C 0.3046(3) 0.3498(5) 0.5138(4)
C18 C 0.2888(3) 0.3458(5) 0.4317(4)
H12 H 0.3154 0.3445 0.3909
C19 C 0.2342(2) 0.3437(5) 0.4105(4)
H13 H 0.2241 0.3420 0.3554
C20 C 0.1940(3) 0.3441(5) 0.4711(4)
C21 C 0.2091(3) 0.3473(5) 0.5527(4)
H14 H 0.1823 0.3473 0.5931
C22 C 0.1320(3) 0.3471(5) 0.4478(4)
Fe2 Fe 0.45428(2) 0.35544(5) 0.84645(4)
Fe3 Fe 0.04572(2) 0.35544(5) 0.34645(4)
O5 O 0.55998(15) 0.3558(3) 0.77599(18)
O6 O 0.62880(12) 0.3580(3) 0.6300(2)
C8_2 C 0.4962(2) 0.1037(4) 0.8834(3)
H6_2 H 0.5241 0.1442 0.9096
N2_2 N 0.45485(16) 0.1648(3) 0.8439(2)
C9_2 C 0.4135(2) 0.1042(4) 0.8038(3)
H7_2 H 0.3861 0.1446 0.7761
O3_2 O 0.90476(19) 0.3291(4) 0.0079(3)
O4_2 O 0.87120(12) 0.3580(3) 0.1300(2)
H9_2 H 0.6138 0.3526 0.0054
C18_2 C 0.7112(3) 0.3458(5) 0.0683(4)
H12_2 H 0.6846 0.3445 0.1091
C19_2 C 0.7658(2) 0.3437(5) 0.0895(4)
H13_2 H 0.7759 0.3420 0.1446
C20_2 C 0.8060(3) 0.3441(5) 0.0289(4)
C22_2 C 0.8680(3) 0.3471(5) 0.0522(4)
Fe3_2 Fe 0.95428(2) 0.35544(5) 0.15355(4)
O1_2 O 0.52950(12) 0.3559(2) 0.90170(19)
N1_2 N 0.45656(17) 0.5439(3) 0.8421(3)
C1_2 C 0.4908(2) 0.6038(4) 0.8954(3)
H1_2 H 0.5136 0.5627 0.9308
C2_2 C 0.4912(2) 0.7251(4) 0.8959(3)
H2_2 H 0.5141 0.7650 0.9317
C3_2 C 0.4571(2) 0.7865(4) 0.8428(3)
C4_2 C 0.4224(2) 0.7256(4) 0.7899(3)
H3_2 H 0.3994 0.7663 0.7548
C5_2 C 0.4222(2) 0.6051(4) 0.7894(3)
H4_2 H 0.3992 0.5651 0.7539
C6_2 C 0.4544(2) 0.9218(4) 0.8446(3)
C7_2 C 0.4962(2) 0.9830(4) 0.8842(3)
H5_2 H 0.5239 0.9428 0.9111
C10_2 C 0.4131(2) 0.9831(4) 0.8050(3)
H8_2 H 0.3850 0.9428 0.7791
C11_2 C 0.5682(2) 0.3562(5) 0.8525(4)
C12_2 C 0.6405(3) 0.3531(5) 0.9648(4)
C13_2 C 0.6256(2) 0.3571(5) 0.8828(4)
C14_2 C 0.6655(3) 0.3582(5) 0.8234(4)
H10_2 H 0.6551 0.3611 0.7686
C15_2 C 0.7206(3) 0.3550(5) 0.8426(4)
H11_2 H 0.7470 0.3558 0.8016
C16_2 C 0.7352(3) 0.3507(5) 0.9245(4)
C17_2 C 0.6954(3) 0.3498(5) 0.9862(4)
C21_2 C 0.7909(3) 0.3473(5) 0.9473(4)
H14_2 H 0.8177 0.3473 0.9069
O6_2 O 0.37120(12) 0.3580(3) 0.8700(2)
C8_3 C 0.0038(2) 0.1037(4) 0.3834(3)
N2_3 N 0.04515(16) 0.1648(3) 0.3439(2)
C9_3 C 0.0865(2) 0.1042(4) 0.3038(3)
H7_3 H 0.1139 0.1446 0.2761
N1_3 N 0.04344(17) 0.5439(3) 0.3421(3)
C1_3 C 0.0092(2) 0.6038(4) 0.3954(3)
C2_3 C 0.0088(2) 0.7251(4) 0.3959(3)
C3_3 C 0.0429(2) 0.7865(4) 0.3428(3)
C4_3 C 0.0776(2) 0.7256(4) 0.2899(3)
H3_3 H 0.1006 0.7663 0.2548
C5_3 C 0.0778(2) 0.6051(4) 0.2894(3)
H4_3 H 0.1008 0.5651 0.2539
C6_3 C 0.0456(2) 0.9218(4) 0.3446(3)
C7_3 C 0.0038(2) 0.9830(4) 0.3842(3)
C10_3 C 0.0869(2) 0.9831(4) 0.3050(3)
H8_3 H 0.1150 0.9428 0.2791
O5_2 O 0.05998(15) 0.3558(3) 0.22401(18)
O1_3 O 0.97050(12) 0.3559(2) 0.40170(19)
O2_2 O 0.94002(15) 0.3558(3) 0.27599(18)
O3_3 O 0.59524(19) 0.3291(4) 0.5079(3)
H1_3 H 0.9864 0.5627 0.4308
H2_3 H 0.9859 0.7650 0.4317
H5_3 H 0.9761 0.9428 0.4111
C11_3 C 0.9318(2) 0.3562(5) 0.3525(4)
C12_3 C 0.8595(3) 0.3531(5) 0.4648(4)
H9_3 H 0.8862 0.3526 0.5054
C13_3 C 0.8744(2) 0.3571(5) 0.3828(4)
C14_3 C 0.8345(3) 0.3582(5) 0.3234(4)
H10_3 H 0.8449 0.3611 0.2686
C15_3 C 0.7794(3) 0.3550(5) 0.3426(4)
H11_3 H 0.7530 0.3558 0.3016
C16_3 C 0.7648(3) 0.3507(5) 0.4245(4)
C17_3 C 0.8046(3) 0.3498(5) 0.4862(4)
C18_3 C 0.7888(3) 0.3458(5) 0.5683(4)
H12_3 H 0.8154 0.3445 0.6091
C19_3 C 0.7342(2) 0.3437(5) 0.5895(4)
H13_3 H 0.7241 0.3420 0.6446
C20_3 C 0.6940(3) 0.3441(5) 0.5289(4)
C21_3 C 0.7091(3) 0.3473(5) 0.4473(4)
H14_3 H 0.6823 0.3473 0.4069
C22_3 C 0.6320(3) 0.3471(5) 0.5522(4)
O1_4 O 0.02950(12) 0.3559(2) 0.09830(19)
H1_4 H 0.0136 0.5627 0.0692
H2_4 H 0.0141 0.7650 0.0683
H5_4 H 0.0239 0.9428 0.0889
C11_4 C 0.0682(2) 0.3562(5) 0.1475(4)
C12_4 C 0.1405(3) 0.3531(5) 0.0352(4)
C13_4 C 0.1256(2) 0.3571(5) 0.1172(4)
C14_4 C 0.1655(3) 0.3582(5) 0.1766(4)
H10_4 H 0.1551 0.3611 0.2314
C15_4 C 0.2206(3) 0.3550(5) 0.1574(4)
H11_4 H 0.2470 0.3558 0.1984
C16_4 C 0.2352(3) 0.3507(5) 0.0755(4)
C17_4 C 0.1954(3) 0.3498(5) 0.0138(4)
C21_4 C 0.2909(3) 0.3473(5) 0.0527(4)
H14_4 H 0.3177 0.3473 0.0931
O3_4 O 0.40476(19) 0.3291(4) 0.9921(3)
H9_4 H 0.1138 0.3526 0.9946
C18_4 C 0.2112(3) 0.3458(5) 0.9317(4)
H12_4 H 0.1846 0.3445 0.8909
C19_4 C 0.2658(2) 0.3437(5) 0.9105(4)
H13_4 H 0.2759 0.3420 0.8554
C20_4 C 0.3060(3) 0.3441(5) 0.9711(4)
C22_4 C 0.3680(3) 0.3471(5) 0.9478(4)
C8_4 C 0.9962(2) 0.1037(4) 0.1166(3)
N2_4 N 0.95485(16) 0.1648(3) 0.1561(2)
C9_4 C 0.9135(2) 0.1042(4) 0.1962(3)
H7_4 H 0.8861 0.1446 0.2239
N1_4 N 0.95656(17) 0.5439(3) 0.1579(3)
C1_4 C 0.9908(2) 0.6038(4) 0.1046(3)
C2_4 C 0.9912(2) 0.7251(4) 0.1041(3)
C3_4 C 0.9571(2) 0.7865(4) 0.1572(3)
C4_4 C 0.9224(2) 0.7256(4) 0.2101(3)
H3_4 H 0.8994 0.7663 0.2452
C5_4 C 0.9222(2) 0.6051(4) 0.2106(3)
H4_4 H 0.8992 0.5651 0.2461
C6_4 C 0.9544(2) 0.9218(4) 0.1554(3)
C7_4 C 0.9962(2) 0.9830(4) 0.1158(3)
C10_4 C 0.9131(2) 0.9831(4) 0.1950(3)
H8_4 H 0.8850 0.9428 0.2209
O1_5 O 0.02950(12) 0.6441(2) 0.59830(19)
O2_3 O 0.05998(15) 0.6442(3) 0.72401(18)
O3_5 O 0.40476(19) 0.6709(4) 0.4921(3)
O4_3 O 0.37120(12) 0.6420(3) 0.3700(2)
H1_5 H 0.0136 0.4373 0.5692
H2_5 H 0.0141 0.2350 0.5683
H5_5 H 0.0239 0.0572 0.5889
C11_5 C 0.0682(2) 0.6438(5) 0.6475(4)
C12_5 C 0.1405(3) 0.6469(5) 0.5352(4)
H9_5 H 0.1138 0.6474 0.4946
C13_5 C 0.1256(2) 0.6429(5) 0.6172(4)
C14_5 C 0.1655(3) 0.6418(5) 0.6766(4)
H10_5 H 0.1551 0.6389 0.7314
C15_5 C 0.2206(3) 0.6450(5) 0.6574(4)
H11_5 H 0.2470 0.6442 0.6984
C16_5 C 0.2352(3) 0.6493(5) 0.5755(4)
C17_5 C 0.1954(3) 0.6502(5) 0.5138(4)
C18_5 C 0.2112(3) 0.6542(5) 0.4317(4)
H12_5 H 0.1846 0.6555 0.3909
C19_5 C 0.2658(2) 0.6563(5) 0.4105(4)
H13_5 H 0.2759 0.6580 0.3554
C20_5 C 0.3060(3) 0.6559(5) 0.4711(4)
C21_5 C 0.2909(3) 0.6527(5) 0.5527(4)
H14_5 H 0.3177 0.6527 0.5931
C22_5 C 0.3680(3) 0.6529(5) 0.4478(4)
Fe2_2 Fe 0.04572(2) 0.64456(5) 0.84645(4)
Fe3_3 Fe 0.45428(2) 0.64456(5) 0.34645(4)
Fe1 Fe 0.95428(2) 0.64456(5) 0.65355(4)
N1_5 N 0.95656(17) 0.4561(3) 0.6579(3)
C1_5 C 0.9908(2) 0.3962(4) 0.6046(3)
C2_5 C 0.9912(2) 0.2749(4) 0.6041(3)
C3_5 C 0.9571(2) 0.2135(4) 0.6572(3)
C4_5 C 0.9224(2) 0.2744(4) 0.7101(3)
H3_5 H 0.8994 0.2337 0.7452
C5_5 C 0.9222(2) 0.3949(4) 0.7106(3)
H4_5 H 0.8992 0.4349 0.7461
C6_5 C 0.9544(2) 0.0782(4) 0.6554(3)
C7_5 C 0.9962(2) 0.0170(4) 0.6158(3)
C10_5 C 0.9131(2) 0.0169(4) 0.6950(3)
H8_5 H 0.8850 0.0572 0.7209
O5_3 O 0.94002(15) 0.6442(3) 0.77599(18)
O6_3 O 0.87120(12) 0.6420(3) 0.6300(2)
N3 N 0.95485(16) 0.8352(3) 0.6561(2)
C8_5 C 0.9962(2) 0.8963(4) 0.6166(3)
C9_5 C 0.9135(2) 0.8958(4) 0.6962(3)
H7_5 H 0.8861 0.8554 0.7239
N1_6 N 0.04344(17) 0.4561(3) 0.8421(3)
C1_6 C 0.0092(2) 0.3962(4) 0.8954(3)
C2_6 C 0.0088(2) 0.2749(4) 0.8959(3)
C3_6 C 0.0429(2) 0.2135(4) 0.8428(3)
C4_6 C 0.0776(2) 0.2744(4) 0.7899(3)
H3_6 H 0.1006 0.2337 0.7548
C5_6 C 0.0778(2) 0.3949(4) 0.7894(3)
H4_6 H 0.1008 0.4349 0.7539
C6_6 C 0.0456(2) 0.0782(4) 0.8446(3)
C7_6 C 0.0038(2) 0.0170(4) 0.8842(3)
C10_6 C 0.0869(2) 0.0169(4) 0.8050(3)
H8_6 H 0.1150 0.0572 0.7791
O6_4 O 0.12880(12) 0.6420(3) 0.8700(2)
N3_2 N 0.04515(16) 0.8352(3) 0.8439(2)
C8_6 C 0.0038(2) 0.8963(4) 0.8834(3)
C9_6 C 0.0865(2) 0.8958(4) 0.8038(3)
H7_6 H 0.1139 0.8554 0.7761
O3_6 O 0.59524(19) 0.6709(4) 0.0079(3)
O4_4 O 0.62880(12) 0.6420(3) 0.1300(2)
H9_6 H 0.8862 0.6474 0.0054
C18_6 C 0.7888(3) 0.6542(5) 0.0683(4)
H12_6 H 0.8154 0.6555 0.1091
C19_6 C 0.7342(2) 0.6563(5) 0.0895(4)
H13_6 H 0.7241 0.6580 0.1446
C20_6 C 0.6940(3) 0.6559(5) 0.0289(4)
C22_6 C 0.6320(3) 0.6529(5) 0.0522(4)
Fe3_4 Fe 0.54572(2) 0.64456(5) 0.15355(4)
O1_6 O 0.97050(12) 0.6441(2) 0.90170(19)
H1_6 H 0.9864 0.4373 0.9308
H2_6 H 0.9859 0.2350 0.9317
H5_6 H 0.9761 0.0572 0.9111
C11_6 C 0.9318(2) 0.6438(5) 0.8525(4)
C12_6 C 0.8595(3) 0.6469(5) 0.9648(4)
C13_6 C 0.8744(2) 0.6429(5) 0.8828(4)
C14_6 C 0.8345(3) 0.6418(5) 0.8234(4)
H10_6 H 0.8449 0.6389 0.7686
C15_6 C 0.7794(3) 0.6450(5) 0.8426(4)
H11_6 H 0.7530 0.6442 0.8016
C16_6 C 0.7648(3) 0.6493(5) 0.9245(4)
C17_6 C 0.8046(3) 0.6502(5) 0.9862(4)
C21_6 C 0.7091(3) 0.6527(5) 0.9473(4)
H14_6 H 0.6823 0.6527 0.9069
O1_7 O 0.52950(12) 0.6441(2) 0.40170(19)
O2_4 O 0.55998(15) 0.6442(3) 0.27599(18)
O3_7 O 0.90476(19) 0.6709(4) 0.5079(3)
N1_7 N 0.45656(17) 0.4561(3) 0.3421(3)
C1_7 C 0.4908(2) 0.3962(4) 0.3954(3)
H1_7 H 0.5136 0.4373 0.4308
C2_7 C 0.4912(2) 0.2749(4) 0.3959(3)
H2_7 H 0.5141 0.2350 0.4317
C3_7 C 0.4571(2) 0.2135(4) 0.3428(3)
C4_7 C 0.4224(2) 0.2744(4) 0.2899(3)
H3_7 H 0.3994 0.2337 0.2548
C5_7 C 0.4222(2) 0.3949(4) 0.2894(3)
H4_7 H 0.3992 0.4349 0.2539
C6_7 C 0.4544(2) 0.0782(4) 0.3446(3)
C7_7 C 0.4962(2) 0.0170(4) 0.3842(3)
H5_7 H 0.5239 0.0572 0.4111
C10_7 C 0.4131(2) 0.0169(4) 0.3050(3)
H8_7 H 0.3850 0.0572 0.2791
C11_7 C 0.5682(2) 0.6438(5) 0.3525(4)
C12_7 C 0.6405(3) 0.6469(5) 0.4648(4)
H9_7 H 0.6138 0.6474 0.5054
C13_7 C 0.6256(2) 0.6429(5) 0.3828(4)
C14_7 C 0.6655(3) 0.6418(5) 0.3234(4)
H10_7 H 0.6551 0.6389 0.2686
C15_7 C 0.7206(3) 0.6450(5) 0.3426(4)
H11_7 H 0.7470 0.6442 0.3016
C16_7 C 0.7352(3) 0.6493(5) 0.4245(4)
C17_7 C 0.6954(3) 0.6502(5) 0.4862(4)
C18_7 C 0.7112(3) 0.6542(5) 0.5683(4)
H12_7 H 0.6846 0.6555 0.6091
C19_7 C 0.7658(2) 0.6563(5) 0.5895(4)
H13_7 H 0.7759 0.6580 0.6446
C20_7 C 0.8060(3) 0.6559(5) 0.5289(4)
C21_7 C 0.7909(3) 0.6527(5) 0.4473(4)
H14_7 H 0.8177 0.6527 0.4069
C22_7 C 0.8680(3) 0.6529(5) 0.5522(4)
O5_4 O 0.44002(15) 0.6442(3) 0.22401(18)
N3_3 N 0.45485(16) 0.8352(3) 0.3439(2)
C8_7 C 0.4962(2) 0.8963(4) 0.3834(3)
H6_3 H 0.5241 0.8558 0.4096
C9_7 C 0.4135(2) 0.8958(4) 0.3038(3)
H7_7 H 0.3861 0.8554 0.2761
O1_8 O 0.47050(12) 0.6441(2) 0.09830(19)
N1_8 N 0.54344(17) 0.4561(3) 0.1579(3)
C1_8 C 0.5092(2) 0.3962(4) 0.1046(3)
H1_8 H 0.4864 0.4373 0.0692
C2_8 C 0.5088(2) 0.2749(4) 0.1041(3)
H2_8 H 0.4859 0.2350 0.0683
C3_8 C 0.5429(2) 0.2135(4) 0.1572(3)
C4_8 C 0.5776(2) 0.2744(4) 0.2101(3)
H3_8 H 0.6006 0.2337 0.2452
C5_8 C 0.5778(2) 0.3949(4) 0.2106(3)
H4_8 H 0.6008 0.4349 0.2461
C6_8 C 0.5456(2) 0.0782(4) 0.1554(3)
C7_8 C 0.5038(2) 0.0170(4) 0.1158(3)
H5_8 H 0.4761 0.0572 0.0889
C10_8 C 0.5869(2) 0.0169(4) 0.1950(3)
H8_8 H 0.6150 0.0572 0.2209
C11_8 C 0.4318(2) 0.6438(5) 0.1475(4)
C12_8 C 0.3595(3) 0.6469(5) 0.0352(4)
C13_8 C 0.3744(2) 0.6429(5) 0.1172(4)
C14_8 C 0.3345(3) 0.6418(5) 0.1766(4)
H10_8 H 0.3449 0.6389 0.2314
C15_8 C 0.2794(3) 0.6450(5) 0.1574(4)
H11_8 H 0.2530 0.6442 0.1984
C16_8 C 0.2648(3) 0.6493(5) 0.0755(4)
C17_8 C 0.3046(3) 0.6502(5) 0.0138(4)
C21_8 C 0.2091(3) 0.6527(5) 0.0527(4)
H14_8 H 0.1823 0.6527 0.0931
N3_4 N 0.54515(16) 0.8352(3) 0.1561(2)
O3_8 O 0.09524(19) 0.6709(4) 0.9921(3)
H9_8 H 0.3862 0.6474 0.9946
C18_8 C 0.2888(3) 0.6542(5) 0.9317(4)
H12_8 H 0.3154 0.6555 0.8909
C19_8 C 0.2342(2) 0.6563(5) 0.9105(4)
H13_8 H 0.2241 0.6580 0.8554
C20_8 C 0.1940(3) 0.6559(5) 0.9711(4)
C22_8 C 0.1320(3) 0.6529(5) 0.9478(4)
C8_8 C 0.5038(2) 0.8963(4) 0.1166(3)
H6_4 H 0.4759 0.8558 0.0904
C9_8 C 0.5865(2) 0.8958(4) 0.1962(3)
H7_8 H 0.6139 0.8554 0.2239
H6_5 H 0.0241 0.8558 0.5904
H6_6 H 0.9759 0.8558 0.9096
H6_7 H 0.9759 0.1442 0.4096
H6_8 H 0.0241 0.1442 0.0904
loop_
_geom_bond_atom_site_label_1
_geom_bond_atom_site_label_2
_geom_bond_site_symmetry_1
_geom_bond_site_symmetry_2
H6 C8 1_555 1_555
N2 C8 1_555 1_555
C9 N2 1_555 1_555
H7 C9 1_555 1_555
Fe4 N2 1_555 1_555
Fe4 O1 1_555 1_555
O1 C11 1_555 1_555
O2 C11 1_555 1_555
O3 C22 1_555 1_555
O4 C22 1_555 1_555
N1 Fe4 1_555 1_555
C1 N1 1_555 1_555
H1 C1 1_555 1_555
C2 C1 1_555 1_555
H2 C2 1_555 1_555
C3 C2 1_555 1_555
C4 C3 1_555 1_555
H3 C4 1_555 1_555
C5 N1 1_555 1_555
H4 C5 1_555 1_555
C6 C3 1_555 1_555
C7 C6 1_555 1_555
H5 C7 1_555 1_555
C10 C6 1_555 1_555
H8 C10 1_555 1_555
C11 C13 1_555 1_555
C12 H9 1_555 1_555
C13 C12 1_555 1_555
C14 C13 1_555 1_555
H10 C14 1_555 1_555
C15 C14 1_555 1_555
H11 C15 1_555 1_555
C16 C15 1_555 1_555
C17 C12 1_555 1_555
C18 C17 1_555 1_555
H12 C18 1_555 1_555
C19 C18 1_555 1_555
H13 C19 1_555 1_555
C20 C19 1_555 1_555
C21 C16 1_555 1_555
H14 C21 1_555 1_555
C22 C20 1_555 1_555
Fe2 O2 1_555 1_555
Fe3 O4 1_555 1_555
O5 Fe4 1_555 1_555
O6 Fe4 1_555 1_555
C4 C5 1_555 1_555
C16 C17 1_555 1_555
C20 C21 1_555 1_555
H6_2 C8_2 1_555 1_555
N2_2 C8_2 1_555 1_555
C9_2 N2_2 1_555 1_555
H7_2 C9_2 1_555 1_555
Fe2 N2_2 1_555 1_555
O3_2 C22_2 1_555 1_555
O4_2 C22_2 1_555 1_555
H12_2 C18_2 1_555 1_555
C19_2 C18_2 1_555 1_555
H13_2 C19_2 1_555 1_555
C20_2 C19_2 1_555 1_555
C22_2 C20_2 1_555 1_555
Fe3_2 O4_2 1_555 1_555
Fe2 O1_2 1_555 1_555
O1_2 C11_2 1_555 1_555
O5 C11_2 1_555 1_555
N1_2 Fe2 1_555 1_555
C1_2 N1_2 1_555 1_555
H1_2 C1_2 1_555 1_555
C2_2 C1_2 1_555 1_555
H2_2 C2_2 1_555 1_555
C3_2 C2_2 1_555 1_555
C4_2 C3_2 1_555 1_555
H3_2 C4_2 1_555 1_555
C5_2 N1_2 1_555 1_555
H4_2 C5_2 1_555 1_555
C6_2 C3_2 1_555 1_555
C7_2 C6_2 1_555 1_555
H5_2 C7_2 1_555 1_555
C10_2 C6_2 1_555 1_555
H8_2 C10_2 1_555 1_555
C11_2 C13_2 1_555 1_555
C13_2 C12_2 1_555 1_555
C14_2 C13_2 1_555 1_555
H10_2 C14_2 1_555 1_555
C15_2 C14_2 1_555 1_555
H11_2 C15_2 1_555 1_555
C16_2 C15_2 1_555 1_555
C17_2 C12_2 1_555 1_555
C21_2 C16_2 1_555 1_555
H14_2 C21_2 1_555 1_555
O6_2 Fe2 1_555 1_555
C4_2 C5_2 1_555 1_555
C16_2 C17_2 1_555 1_555
N2_3 C8_3 1_555 1_555
C9_3 N2_3 1_555 1_555
H7_3 C9_3 1_555 1_555
Fe3 N2_3 1_555 1_555
N1_3 Fe3 1_555 1_555
C1_3 N1_3 1_555 1_555
C2_3 C1_3 1_555 1_555
C3_3 C2_3 1_555 1_555
C4_3 C3_3 1_555 1_555
H3_3 C4_3 1_555 1_555
C5_3 N1_3 1_555 1_555
H4_3 C5_3 1_555 1_555
C6_3 C3_3 1_555 1_555
C7_3 C6_3 1_555 1_555
C10_3 C6_3 1_555 1_555
H8_3 C10_3 1_555 1_555
O5_2 Fe3 1_555 1_555
C4_3 C5_3 1_555 1_555
O1_3 C11_3 1_555 1_555
O2_2 C11_3 1_555 1_555
O3_3 C22_3 1_555 1_555
O6 C22_3 1_555 1_555
C11_3 C13_3 1_555 1_555
C12_3 H9_3 1_555 1_555
C13_3 C12_3 1_555 1_555
C14_3 C13_3 1_555 1_555
H10_3 C14_3 1_555 1_555
C15_3 C14_3 1_555 1_555
H11_3 C15_3 1_555 1_555
C16_3 C15_3 1_555 1_555
C17_3 C12_3 1_555 1_555
C18_3 C17_3 1_555 1_555
H12_3 C18_3 1_555 1_555
C19_3 C18_3 1_555 1_555
H13_3 C19_3 1_555 1_555
C20_3 C19_3 1_555 1_555
C21_3 C16_3 1_555 1_555
H14_3 C21_3 1_555 1_555
C22_3 C20_3 1_555 1_555
Fe3_2 O2_2 1_555 1_555
C16_3 C17_3 1_555 1_555
C20_3 C21_3 1_555 1_555
O1_4 C11_4 1_555 1_555
O5_2 C11_4 1_555 1_555
C11_4 C13_4 1_555 1_555
C13_4 C12_4 1_555 1_555
C14_4 C13_4 1_555 1_555
H10_4 C14_4 1_555 1_555
C15_4 C14_4 1_555 1_555
H11_4 C15_4 1_555 1_555
C16_4 C15_4 1_555 1_555
C17_4 C12_4 1_555 1_555
C21_4 C16_4 1_555 1_555
H14_4 C21_4 1_555 1_555
C16_4 C17_4 1_555 1_555
O3_4 C22_4 1_555 1_555
O6_2 C22_4 1_555 1_555
H12_4 C18_4 1_555 1_555
C19_4 C18_4 1_555 1_555
H13_4 C19_4 1_555 1_555
C20_4 C19_4 1_555 1_555
C22_4 C20_4 1_555 1_555
N2_4 C8_4 1_555 1_555
C9_4 N2_4 1_555 1_555
H7_4 C9_4 1_555 1_555
Fe3_2 N2_4 1_555 1_555
N1_4 Fe3_2 1_555 1_555
C1_4 N1_4 1_555 1_555
C2_4 C1_4 1_555 1_555
C3_4 C2_4 1_555 1_555
C4_4 C3_4 1_555 1_555
H3_4 C4_4 1_555 1_555
C5_4 N1_4 1_555 1_555
H4_4 C5_4 1_555 1_555
C6_4 C3_4 1_555 1_555
C7_4 C6_4 1_555 1_555
C10_4 C6_4 1_555 1_555
H8_4 C10_4 1_555 1_555
C4_4 C5_4 1_555 1_555
O1_5 C11_5 1_555 1_555
O2_3 C11_5 1_555 1_555
O3_5 C22_5 1_555 1_555
O4_3 C22_5 1_555 1_555
C11_5 C13_5 1_555 1_555
C12_5 H9_5 1_555 1_555
C13_5 C12_5 1_555 1_555
C14_5 C13_5 1_555 1_555
H10_5 C14_5 1_555 1_555
C15_5 C14_5 1_555 1_555
H11_5 C15_5 1_555 1_555
C16_5 C15_5 1_555 1_555
C17_5 C12_5 1_555 1_555
C18_5 C17_5 1_555 1_555
H12_5 C18_5 1_555 1_555
C19_5 C18_5 1_555 1_555
H13_5 C19_5 1_555 1_555
C20_5 C19_5 1_555 1_555
C21_5 C16_5 1_555 1_555
H14_5 C21_5 1_555 1_555
C22_5 C20_5 1_555 1_555
Fe2_2 O2_3 1_555 1_555
Fe3_3 O4_3 1_555 1_555
C16_5 C17_5 1_555 1_555
C20_5 C21_5 1_555 1_555
N1_5 Fe1 1_555 1_555
C1_5 N1_5 1_555 1_555
C2_5 C1_5 1_555 1_555
C3_5 C2_5 1_555 1_555
C4_5 C3_5 1_555 1_555
H3_5 C4_5 1_555 1_555
C5_5 N1_5 1_555 1_555
H4_5 C5_5 1_555 1_555
C6_5 C3_5 1_555 1_555
C7_5 C6_5 1_555 1_555
C10_5 C6_5 1_555 1_555
H8_5 C10_5 1_555 1_555
O5_3 Fe1 1_555 1_555
O6_3 Fe1 1_555 1_555
N3 Fe1 1_555 1_555
C4_5 C5_5 1_555 1_555
N3 C8_5 1_555 1_555
C9_5 N3 1_555 1_555
H7_5 C9_5 1_555 1_555
N1_6 Fe2_2 1_555 1_555
C1_6 N1_6 1_555 1_555
C2_6 C1_6 1_555 1_555
C3_6 C2_6 1_555 1_555
C4_6 C3_6 1_555 1_555
H3_6 C4_6 1_555 1_555
C5_6 N1_6 1_555 1_555
H4_6 C5_6 1_555 1_555
C6_6 C3_6 1_555 1_555
C7_6 C6_6 1_555 1_555
C10_6 C6_6 1_555 1_555
H8_6 C10_6 1_555 1_555
O6_4 Fe2_2 1_555 1_555
N3_2 Fe2_2 1_555 1_555
C4_6 C5_6 1_555 1_555
N3_2 C8_6 1_555 1_555
C9_6 N3_2 1_555 1_555
H7_6 C9_6 1_555 1_555
O3_6 C22_6 1_555 1_555
O4_4 C22_6 1_555 1_555
H12_6 C18_6 1_555 1_555
C19_6 C18_6 1_555 1_555
H13_6 C19_6 1_555 1_555
C20_6 C19_6 1_555 1_555
C22_6 C20_6 1_555 1_555
Fe3_4 O4_4 1_555 1_555
O1_6 C11_6 1_555 1_555
O5_3 C11_6 1_555 1_555
C11_6 C13_6 1_555 1_555
C13_6 C12_6 1_555 1_555
C14_6 C13_6 1_555 1_555
H10_6 C14_6 1_555 1_555
C15_6 C14_6 1_555 1_555
H11_6 C15_6 1_555 1_555
C16_6 C15_6 1_555 1_555
C17_6 C12_6 1_555 1_555
C21_6 C16_6 1_555 1_555
H14_6 C21_6 1_555 1_555
C16_6 C17_6 1_555 1_555
Fe3_3 O1_7 1_555 1_555
O1_7 C11_7 1_555 1_555
O2_4 C11_7 1_555 1_555
O3_7 C22_7 1_555 1_555
O6_3 C22_7 1_555 1_555
N1_7 Fe3_3 1_555 1_555
C1_7 N1_7 1_555 1_555
H1_7 C1_7 1_555 1_555
C2_7 C1_7 1_555 1_555
H2_7 C2_7 1_555 1_555
C3_7 C2_7 1_555 1_555
C4_7 C3_7 1_555 1_555
H3_7 C4_7 1_555 1_555
C5_7 N1_7 1_555 1_555
H4_7 C5_7 1_555 1_555
C6_7 C3_7 1_555 1_555
C7_7 C6_7 1_555 1_555
H5_7 C7_7 1_555 1_555
C10_7 C6_7 1_555 1_555
H8_7 C10_7 1_555 1_555
C11_7 C13_7 1_555 1_555
C12_7 H9_7 1_555 1_555
C13_7 C12_7 1_555 1_555
C14_7 C13_7 1_555 1_555
H10_7 C14_7 1_555 1_555
C15_7 C14_7 1_555 1_555
H11_7 C15_7 1_555 1_555
C16_7 C15_7 1_555 1_555
C17_7 C12_7 1_555 1_555
C18_7 C17_7 1_555 1_555
H12_7 C18_7 1_555 1_555
C19_7 C18_7 1_555 1_555
H13_7 C19_7 1_555 1_555
C20_7 C19_7 1_555 1_555
C21_7 C16_7 1_555 1_555
H14_7 C21_7 1_555 1_555
C22_7 C20_7 1_555 1_555
Fe3_4 O2_4 1_555 1_555
O5_4 Fe3_3 1_555 1_555
N3_3 Fe3_3 1_555 1_555
C4_7 C5_7 1_555 1_555
C16_7 C17_7 1_555 1_555
C20_7 C21_7 1_555 1_555
H6_3 C8_7 1_555 1_555
N3_3 C8_7 1_555 1_555
C9_7 N3_3 1_555 1_555
H7_7 C9_7 1_555 1_555
Fe3_4 O1_8 1_555 1_555
O1_8 C11_8 1_555 1_555
O5_4 C11_8 1_555 1_555
N1_8 Fe3_4 1_555 1_555
C1_8 N1_8 1_555 1_555
H1_8 C1_8 1_555 1_555
C2_8 C1_8 1_555 1_555
H2_8 C2_8 1_555 1_555
C3_8 C2_8 1_555 1_555
C4_8 C3_8 1_555 1_555
H3_8 C4_8 1_555 1_555
C5_8 N1_8 1_555 1_555
H4_8 C5_8 1_555 1_555
C6_8 C3_8 1_555 1_555
C7_8 C6_8 1_555 1_555
H5_8 C7_8 1_555 1_555
C10_8 C6_8 1_555 1_555
H8_8 C10_8 1_555 1_555
C11_8 C13_8 1_555 1_555
C13_8 C12_8 1_555 1_555
C14_8 C13_8 1_555 1_555
H10_8 C14_8 1_555 1_555
C15_8 C14_8 1_555 1_555
H11_8 C15_8 1_555 1_555
C16_8 C15_8 1_555 1_555
C17_8 C12_8 1_555 1_555
C21_8 C16_8 1_555 1_555
H14_8 C21_8 1_555 1_555
N3_4 Fe3_4 1_555 1_555
C4_8 C5_8 1_555 1_555
C16_8 C17_8 1_555 1_555
O3_8 C22_8 1_555 1_555
O6_4 C22_8 1_555 1_555
H12_8 C18_8 1_555 1_555
C19_8 C18_8 1_555 1_555
H13_8 C19_8 1_555 1_555
C20_8 C19_8 1_555 1_555
C22_8 C20_8 1_555 1_555
H6_4 C8_8 1_555 1_555
N3_4 C8_8 1_555 1_555
C9_8 N3_4 1_555 1_555
H7_8 C9_8 1_555 1_555

#END
