
###############################################################################
#
# This file contains modified crystal structure data generated from the
# MOF subset of the Cambridge Structural Database (CSD) v543 
# hosted by the Cambridge Crystallographic Data Centre (CCDC).
#
# This work is licensed under the Creative Commons
# Attribution-NonCommercial-ShareAlike 4.0 International License.
# To view a copy of this license, visit
# http://creativecommons.org/licenses/by-nc-sa/4.0/
# or send a letter to
# Creative Commons, PO Box 1866, Mountain View, CA 94042, USA.
#
# CIF created using the CSD Python API on 29 September 2022
# The structure has been converted into the P1 space group
# The structure has a 3D framework
# The original CSD entry VAZSUN is in the cubic crystal system
# The framework has been calculated to contain at least 10.0% void space
# The void calculation uses a probe of radius 1.32A, grid spacing 0.4
#
###############################################################################

data_VAZSUN
_chemical_formula_moiety         '(C408 H216 Hf67 O466)n'
_symmetry_cell_setting           triclinic
_symmetry_space_group_name_H-M   'P 1'
_symmetry_Int_Tables_number      1
_space_group_name_Hall           'P 1'
loop_
_symmetry_equiv_pos_site_id
_symmetry_equiv_pos_as_xyz
1 x,y,z
_cell_length_a                   34.9801(12)
_cell_length_b                   34.9801(12)
_cell_length_c                   34.9801(12)
_cell_angle_alpha                90
_cell_angle_beta                 90
_cell_angle_gamma                90
_cell_volume                     42801.9
loop_
_atom_site_label
_atom_site_type_symbol
_atom_site_fract_x
_atom_site_fract_y
_atom_site_fract_z
Hf1 Hf 0.54699(2) 0.77298(2) 0.70301(2)
O1 O 0.54839(9) 0.74696(10) 0.64608(9)
O2 O 0.5601(2) 0.76260(12) 0.76260(12)
C1 C 0.54534(14) 0.70466(14) 0.5943(2)
C2 C 0.5296(2) 0.67187(14) 0.57813(14)
H1 H 0.507882 0.660369 0.589632
C3 C 0.53059(13) 0.71941(13) 0.63119(19)
O3 O 0.58832(16) 0.81959(16) 0.7132(2)
O4 O 0.5327(3) 0.7173(3) 0.7173(3)
C4 C 0.5919(5) 0.8419(5) 0.750000
H2 H 0.611105 0.861103 0.750001
O5 O 0.50304(10) 0.60392(9) 0.54839(9)
C5 C 0.54534(14) 0.6557(2) 0.54534(14)
C6 C 0.57813(14) 0.67187(14) 0.5296(2)
H3 H 0.589631 0.660368 0.507882
C7 C 0.53059(13) 0.61881(19) 0.53059(13)
O6 O 0.64608(9) 0.70161(9) 0.50304(10)
C8 C 0.5943(2) 0.70466(14) 0.54534(14)
C9 C 0.57813(14) 0.7204(2) 0.57813(14)
H4 H 0.589632 0.742118 0.589631
C10 C 0.63119(19) 0.71941(13) 0.53059(13)
O7 O 0.64608(9) 0.74696(10) 0.54839(9)
O8 O 0.50304(10) 0.70161(9) 0.64608(9)
O9 O 0.54839(9) 0.60392(9) 0.50304(10)
O10 O 0.56959(16) 0.83832(16) 0.7868(2)
Hf2 Hf 0.52298(2) 0.79699(2) 0.79699(2)
O11 O 0.51260(12) 0.8101(2) 0.73740(12)
Hf3 Hf 0.47702(2) 0.70301(2) 0.70301(2)
O12 O 0.48740(12) 0.76260(12) 0.6899(2)
O13 O 0.43041(16) 0.7132(2) 0.66168(16)
C11 C 0.4081(5) 0.750000 0.6581(5)
H5 H 0.388897 0.750001 0.638895
O14 O 0.41168(16) 0.7868(2) 0.68041(16)
O15 O 0.5368(2) 0.81959(16) 0.66168(16)
C12 C 0.500000 0.8419(5) 0.6581(5)
H6 H 0.500001 0.861105 0.638897
O16 O 0.4632(2) 0.83832(16) 0.68041(16)
Hf4 Hf 0.70301(2) 0.77298(2) 0.54699(2)
Hf5 Hf 0.54699(2) 0.54699(2) 0.47702(2)
Hf6 Hf 0.45301(2) 0.79699(2) 0.72702(2)
Hf7 Hf 0.54699(2) 0.70301(2) 0.77298(2)
Hf8 Hf 0.47702(2) 0.54699(2) 0.54699(2)
Hf9 Hf 0.70301(2) 0.70301(2) 0.47702(2)
O17 O 0.49696(10) 0.79839(9) 0.85392(9)
O18 O 0.50304(10) 0.64608(9) 0.70161(9)
O19 O 0.49696(10) 0.85392(9) 0.79839(9)
O20 O 0.60392(9) 0.74696(10) 0.70161(9)
O21 O 0.4399(2) 0.73740(12) 0.73740(12)
O22 O 0.48740(12) 0.6899(2) 0.76260(12)
O23 O 0.51260(12) 0.73740(12) 0.8101(2)
O24 O 0.56959(16) 0.7868(2) 0.83832(16)
O25 O 0.43041(16) 0.66168(16) 0.7132(2)
O26 O 0.4673(3) 0.7827(3) 0.7827(3)
Hf1_2 Hf 0.20301(2) 0.47702(2) 0.20301(2)
O1_2 O 0.20161(9) 0.50304(10) 0.14608(9)
O2_2 O 0.1899(2) 0.48740(12) 0.26260(12)
C1_2 C 0.20466(14) 0.54534(14) 0.0943(2)
C2_2 C 0.2204(2) 0.57813(14) 0.07813(14)
H1_2 H 0.242118 0.589631 0.089632
C3_2 C 0.21941(13) 0.53059(13) 0.13119(19)
O3_2 O 0.16168(16) 0.43041(16) 0.2132(2)
O4_2 O 0.2173(3) 0.5327(3) 0.2173(3)
C4_2 C 0.1581(5) 0.4081(5) 0.250000
H2_2 H 0.138895 0.388897 0.250001
O5_2 O 0.24696(10) 0.64608(9) 0.04839(9)
C5_2 C 0.20466(14) 0.5943(2) 0.04534(14)
C6_2 C 0.17187(14) 0.57813(14) 0.0296(2)
H3_2 H 0.160369 0.589632 0.007882
C7_2 C 0.21941(13) 0.63119(19) 0.03059(13)
O6_2 O 0.10392(9) 0.54839(9) 0.00304(10)
C8_2 C 0.1557(2) 0.54534(14) 0.04534(14)
C9_2 C 0.17187(14) 0.5296(2) 0.07813(14)
H4_2 H 0.160368 0.507882 0.089631
C10_2 C 0.11881(19) 0.53059(13) 0.03059(13)
O7_2 O 0.10392(9) 0.50304(10) 0.04839(9)
O8_2 O 0.24696(10) 0.54839(9) 0.14608(9)
O9_2 O 0.20161(9) 0.64608(9) 0.00304(10)
O10_2 O 0.18041(16) 0.41168(16) 0.2868(2)
Hf2_2 Hf 0.22702(2) 0.45301(2) 0.29699(2)
O11_2 O 0.23740(12) 0.4399(2) 0.23740(12)
Hf3_2 Hf 0.27298(2) 0.54699(2) 0.20301(2)
O12_2 O 0.26260(12) 0.48740(12) 0.1899(2)
O13_2 O 0.31959(16) 0.5368(2) 0.16168(16)
C11_2 C 0.3419(5) 0.500000 0.1581(5)
H5_2 H 0.361103 0.499999 0.138895
O14_2 O 0.33832(16) 0.4632(2) 0.18041(16)
O15_2 O 0.2132(2) 0.43041(16) 0.16168(16)
C12_2 C 0.250000 0.4081(5) 0.1581(5)
H6_2 H 0.249999 0.388895 0.138897
O16_2 O 0.2868(2) 0.41168(16) 0.18041(16)
Hf4_2 Hf 0.04699(2) 0.47702(2) 0.04699(2)
Hf6_2 Hf 0.29699(2) 0.45301(2) 0.22702(2)
Hf7_2 Hf 0.20301(2) 0.54699(2) 0.27298(2)
Hf8_2 Hf 0.27298(2) 0.70301(2) 0.04699(2)
O17_2 O 0.25304(10) 0.45161(9) 0.35392(9)
O18_2 O 0.24696(10) 0.60392(9) 0.20161(9)
O19_2 O 0.25304(10) 0.39608(9) 0.29839(9)
O20_2 O 0.14608(9) 0.50304(10) 0.20161(9)
O21_2 O 0.3101(2) 0.51260(12) 0.23740(12)
O22_2 O 0.26260(12) 0.5601(2) 0.26260(12)
O23_2 O 0.23740(12) 0.51260(12) 0.3101(2)
O24_2 O 0.18041(16) 0.4632(2) 0.33832(16)
O25_2 O 0.31959(16) 0.58832(16) 0.2132(2)
O26_2 O 0.2827(3) 0.4673(3) 0.2827(3)
Hf5_2 Hf 0.20301(2) 0.70301(2) 0.97702(2)
Hf9_2 Hf 0.04699(2) 0.54699(2) 0.97702(2)
Hf1_3 Hf 0.70301(2) 0.27298(2) 0.04699(2)
O1_3 O 0.70161(9) 0.24696(10) 0.10392(9)
C1_3 C 0.70466(14) 0.20466(14) 0.1557(2)
C2_3 C 0.7204(2) 0.17187(14) 0.17187(14)
H1_3 H 0.742118 0.160369 0.160368
C3_3 C 0.71941(13) 0.21941(13) 0.11881(19)
O3_3 O 0.66168(16) 0.31959(16) 0.0368(2)
O4_3 O 0.7173(3) 0.2173(3) 0.0327(3)
C4_3 C 0.6581(5) 0.3419(5) 0.000000
H2_3 H 0.638895 0.361103 -0.000001
O5_3 O 0.74696(10) 0.10392(9) 0.20161(9)
C5_3 C 0.70466(14) 0.1557(2) 0.20466(14)
C6_3 C 0.67187(14) 0.17187(14) 0.2204(2)
H3_3 H 0.660369 0.160368 0.242118
C7_3 C 0.71941(13) 0.11881(19) 0.21941(13)
O6_3 O 0.60392(9) 0.20161(9) 0.24696(10)
C8_3 C 0.6557(2) 0.20466(14) 0.20466(14)
C9_3 C 0.67187(14) 0.2204(2) 0.17187(14)
H4_3 H 0.660368 0.242118 0.160369
C10_3 C 0.61881(19) 0.21941(13) 0.21941(13)
O7_3 O 0.60392(9) 0.24696(10) 0.20161(9)
O8_3 O 0.74696(10) 0.20161(9) 0.10392(9)
O9_3 O 0.70161(9) 0.10392(9) 0.24696(10)
O11_3 O 0.73740(12) 0.3101(2) 0.01260(12)
Hf3_3 Hf 0.77298(2) 0.20301(2) 0.04699(2)
O12_3 O 0.76260(12) 0.26260(12) 0.0601(2)
O13_3 O 0.81959(16) 0.2132(2) 0.08832(16)
C11_3 C 0.8419(5) 0.250000 0.0919(5)
H5_3 H 0.861103 0.250001 0.111105
O14_3 O 0.83832(16) 0.2868(2) 0.06959(16)
O15_3 O 0.7132(2) 0.31959(16) 0.08832(16)
C12_3 C 0.750000 0.3419(5) 0.0919(5)
H6_3 H 0.749999 0.361105 0.111103
O16_3 O 0.7868(2) 0.33832(16) 0.06959(16)
Hf4_3 Hf 0.54699(2) 0.27298(2) 0.20301(2)
Hf5_3 Hf 0.70301(2) 0.04699(2) 0.27298(2)
Hf6_3 Hf 0.79699(2) 0.29699(2) 0.02298(2)
Hf8_3 Hf 0.77298(2) 0.04699(2) 0.20301(2)
Hf9_3 Hf 0.54699(2) 0.20301(2) 0.27298(2)
O18_3 O 0.74696(10) 0.14608(9) 0.04839(9)
O20_3 O 0.64608(9) 0.24696(10) 0.04839(9)
O21_3 O 0.8101(2) 0.23740(12) 0.01260(12)
O25_3 O 0.81959(16) 0.16168(16) 0.0368(2)
O2_3 O 0.6899(2) 0.26260(12) 0.98740(12)
C4_4 C 0.6581(5) 0.3419(5) 1.000000
H2_4 H 0.638895 0.361103 0.999999
O10_3 O 0.68041(16) 0.33832(16) 0.9632(2)
Hf2_3 Hf 0.72702(2) 0.29699(2) 0.95301(2)
Hf7_3 Hf 0.70301(2) 0.20301(2) 0.97702(2)
O17_3 O 0.75304(10) 0.29839(9) 0.89608(9)
O19_3 O 0.75304(10) 0.35392(9) 0.95161(9)
O22_3 O 0.76260(12) 0.1899(2) 0.98740(12)
O23_3 O 0.73740(12) 0.23740(12) 0.9399(2)
O24_3 O 0.68041(16) 0.2868(2) 0.91168(16)
O26_3 O 0.7827(3) 0.2827(3) 0.9673(3)
O1_4 O 0.04839(9) 0.00304(10) 0.60392(9)
C1_4 C 0.04534(14) 0.04534(14) 0.6557(2)
C2_4 C 0.0296(2) 0.07813(14) 0.67187(14)
H1_4 H 0.007882 0.089631 0.660368
C3_4 C 0.03059(13) 0.03059(13) 0.61881(19)
O4_4 O 0.0327(3) 0.0327(3) 0.5327(3)
O5_4 O 0.00304(10) 0.14608(9) 0.70161(9)
C5_4 C 0.04534(14) 0.0943(2) 0.70466(14)
C6_4 C 0.07813(14) 0.07813(14) 0.7204(2)
H3_4 H 0.089631 0.089632 0.742118
C7_4 C 0.03059(13) 0.13119(19) 0.71941(13)
O6_4 O 0.14608(9) 0.04839(9) 0.74696(10)
C8_4 C 0.0943(2) 0.04534(14) 0.70466(14)
C9_4 C 0.07813(14) 0.0296(2) 0.67187(14)
H4_4 H 0.089632 0.007882 0.660369
C10_4 C 0.13119(19) 0.03059(13) 0.71941(13)
O7_4 O 0.14608(9) 0.00304(10) 0.70161(9)
O8_4 O 0.00304(10) 0.04839(9) 0.60392(9)
O9_4 O 0.04839(9) 0.14608(9) 0.74696(10)
Hf5_4 Hf 0.04699(2) 0.20301(2) 0.77298(2)
Hf7_4 Hf 0.04699(2) 0.04699(2) 0.47702(2)
Hf9_4 Hf 0.20301(2) 0.04699(2) 0.77298(2)
O18_4 O 0.00304(10) 0.10392(9) 0.54839(9)
O20_4 O 0.10392(9) 0.00304(10) 0.54839(9)
O23_4 O 0.01260(12) 0.01260(12) 0.4399(2)
Hf1_4 Hf 0.04699(2) 0.97702(2) 0.54699(2)
O2_4 O 0.0601(2) 0.98740(12) 0.48740(12)
O3_4 O 0.08832(16) 0.93041(16) 0.5368(2)
C4_5 C 0.0919(5) 0.9081(5) 0.500000
H2_5 H 0.111105 0.888897 0.499999
O10_4 O 0.06959(16) 0.91168(16) 0.4632(2)
Hf2_4 Hf 0.02298(2) 0.95301(2) 0.45301(2)
O11_4 O 0.01260(12) 0.9399(2) 0.51260(12)
O15_4 O 0.0368(2) 0.93041(16) 0.58832(16)
C12_4 C 0.000000 0.9081(5) 0.5919(5)
H6_4 H 0.000001 0.888895 0.611103
Hf4_4 Hf 0.20301(2) 0.97702(2) 0.70301(2)
O24_4 O 0.06959(16) 0.9632(2) 0.41168(16)
Hf3_4 Hf 0.97702(2) 0.04699(2) 0.54699(2)
O13_4 O 0.93041(16) 0.0368(2) 0.58832(16)
C11_4 C 0.9081(5) -0.000000 0.5919(5)
H5_4 H 0.888897 -0.000001 0.611105
Hf8_4 Hf 0.97702(2) 0.20301(2) 0.70301(2)
O21_4 O 0.9399(2) 0.01260(12) 0.51260(12)
O22_4 O 0.98740(12) 0.0601(2) 0.48740(12)
O25_4 O 0.93041(16) 0.08832(16) 0.5368(2)
O12_4 O 0.98740(12) 0.98740(12) 0.5601(2)
C11_5 C 0.9081(5) 1.000000 0.5919(5)
H5_5 H 0.888897 0.999999 0.611105
O14_4 O 0.91168(16) 0.9632(2) 0.56959(16)
C12_5 C 1.000000 0.9081(5) 0.5919(5)
H6_5 H 1.000001 0.888895 0.611103
O16_4 O 0.9632(2) 0.91168(16) 0.56959(16)
Hf6_4 Hf 0.95301(2) 0.95301(2) 0.52298(2)
O17_4 O 0.99696(10) 0.95161(9) 0.39608(9)
O19_4 O 0.99696(10) 0.89608(9) 0.45161(9)
O26_4 O 0.9673(3) 0.9673(3) 0.4673(3)
Hf1_5 Hf 0.70301(2) 0.54699(2) 0.77298(2)
O1_5 O 0.64608(9) 0.54839(9) 0.74696(10)
O2_5 O 0.76260(12) 0.5601(2) 0.76260(12)
C1_5 C 0.5943(2) 0.54534(14) 0.70466(14)
C2_5 C 0.57813(14) 0.5296(2) 0.67187(14)
H1_5 H 0.589632 0.507882 0.660369
C3_5 C 0.63119(19) 0.53059(13) 0.71941(13)
O3_5 O 0.7132(2) 0.58832(16) 0.81959(16)
O4_5 O 0.7173(3) 0.5327(3) 0.7173(3)
C4_6 C 0.750000 0.5919(5) 0.8419(5)
H2_6 H 0.750001 0.611105 0.861103
O5_5 O 0.54839(9) 0.50304(10) 0.60392(9)
C5_5 C 0.54534(14) 0.54534(14) 0.6557(2)
C6_5 C 0.5296(2) 0.57813(14) 0.67187(14)
H3_5 H 0.507882 0.589631 0.660368
C7_5 C 0.53059(13) 0.53059(13) 0.61881(19)
C8_5 C 0.54534(14) 0.5943(2) 0.70466(14)
C9_5 C 0.57813(14) 0.57813(14) 0.7204(2)
H4_5 H 0.589631 0.589632 0.742118
C10_5 C 0.53059(13) 0.63119(19) 0.71941(13)
O7_5 O 0.54839(9) 0.64608(9) 0.74696(10)
O8_5 O 0.64608(9) 0.50304(10) 0.70161(9)
O9_5 O 0.50304(10) 0.54839(9) 0.60392(9)
O10_5 O 0.7868(2) 0.56959(16) 0.83832(16)
Hf2_5 Hf 0.79699(2) 0.52298(2) 0.79699(2)
O11_5 O 0.73740(12) 0.51260(12) 0.8101(2)
Hf3_5 Hf 0.70301(2) 0.47702(2) 0.70301(2)
O12_5 O 0.6899(2) 0.48740(12) 0.76260(12)
O13_5 O 0.66168(16) 0.43041(16) 0.7132(2)
C11_6 C 0.6581(5) 0.4081(5) 0.750000
H5_6 H 0.638895 0.388897 0.750001
O14_5 O 0.68041(16) 0.41168(16) 0.7868(2)
O15_5 O 0.66168(16) 0.5368(2) 0.81959(16)
C12_6 C 0.6581(5) 0.500000 0.8419(5)
H6_6 H 0.638897 0.500001 0.861105
O16_5 O 0.68041(16) 0.4632(2) 0.83832(16)
Hf6_5 Hf 0.72702(2) 0.45301(2) 0.79699(2)
Hf7_5 Hf 0.77298(2) 0.54699(2) 0.70301(2)
Hf8_5 Hf 0.54699(2) 0.47702(2) 0.54699(2)
O17_5 O 0.85392(9) 0.49696(10) 0.79839(9)
O18_5 O 0.70161(9) 0.50304(10) 0.64608(9)
O19_5 O 0.79839(9) 0.49696(10) 0.85392(9)
O20_5 O 0.70161(9) 0.60392(9) 0.74696(10)
O21_5 O 0.73740(12) 0.4399(2) 0.73740(12)
O22_5 O 0.76260(12) 0.48740(12) 0.6899(2)
O23_5 O 0.8101(2) 0.51260(12) 0.73740(12)
O24_5 O 0.83832(16) 0.56959(16) 0.7868(2)
O25_5 O 0.7132(2) 0.43041(16) 0.66168(16)
O26_5 O 0.7827(3) 0.4673(3) 0.7827(3)
Hf1_6 Hf 0.20301(2) 0.20301(2) 0.47702(2)
O1_6 O 0.14608(9) 0.20161(9) 0.50304(10)
O2_6 O 0.26260(12) 0.1899(2) 0.48740(12)
C1_6 C 0.0943(2) 0.20466(14) 0.54534(14)
C2_6 C 0.07813(14) 0.2204(2) 0.57813(14)
H1_6 H 0.089632 0.242118 0.589631
C3_6 C 0.13119(19) 0.21941(13) 0.53059(13)
O3_6 O 0.2132(2) 0.16168(16) 0.43041(16)
O4_6 O 0.2173(3) 0.2173(3) 0.5327(3)
C4_7 C 0.250000 0.1581(5) 0.4081(5)
H2_7 H 0.250001 0.138895 0.388897
O5_6 O 0.04839(9) 0.24696(10) 0.64608(9)
C5_6 C 0.04534(14) 0.20466(14) 0.5943(2)
C6_6 C 0.0296(2) 0.17187(14) 0.57813(14)
H3_6 H 0.007882 0.160369 0.589632
C7_6 C 0.03059(13) 0.21941(13) 0.63119(19)
C8_6 C 0.04534(14) 0.1557(2) 0.54534(14)
C9_6 C 0.07813(14) 0.17187(14) 0.5296(2)
H4_6 H 0.089631 0.160368 0.507882
C10_6 C 0.03059(13) 0.11881(19) 0.53059(13)
O7_6 O 0.04839(9) 0.10392(9) 0.50304(10)
O8_6 O 0.14608(9) 0.24696(10) 0.54839(9)
O9_6 O 0.00304(10) 0.20161(9) 0.64608(9)
O10_6 O 0.2868(2) 0.18041(16) 0.41168(16)
Hf2_6 Hf 0.29699(2) 0.22702(2) 0.45301(2)
O11_6 O 0.23740(12) 0.23740(12) 0.4399(2)
Hf3_6 Hf 0.20301(2) 0.27298(2) 0.54699(2)
O12_6 O 0.1899(2) 0.26260(12) 0.48740(12)
O13_6 O 0.16168(16) 0.31959(16) 0.5368(2)
C11_7 C 0.1581(5) 0.3419(5) 0.500000
H5_7 H 0.138895 0.361103 0.499999
O14_6 O 0.18041(16) 0.33832(16) 0.4632(2)
O15_6 O 0.16168(16) 0.2132(2) 0.43041(16)
C12_7 C 0.1581(5) 0.250000 0.4081(5)
H6_7 H 0.138897 0.249999 0.388895
O16_6 O 0.18041(16) 0.2868(2) 0.41168(16)
Hf6_6 Hf 0.22702(2) 0.29699(2) 0.45301(2)
Hf7_6 Hf 0.27298(2) 0.20301(2) 0.54699(2)
Hf8_6 Hf 0.04699(2) 0.27298(2) 0.70301(2)
O17_6 O 0.35392(9) 0.25304(10) 0.45161(9)
O18_6 O 0.20161(9) 0.24696(10) 0.60392(9)
O19_6 O 0.29839(9) 0.25304(10) 0.39608(9)
O20_6 O 0.20161(9) 0.14608(9) 0.50304(10)
O21_6 O 0.23740(12) 0.3101(2) 0.51260(12)
O22_6 O 0.26260(12) 0.26260(12) 0.5601(2)
O23_6 O 0.3101(2) 0.23740(12) 0.51260(12)
O24_6 O 0.33832(16) 0.18041(16) 0.4632(2)
O25_6 O 0.2132(2) 0.31959(16) 0.58832(16)
O26_6 O 0.2827(3) 0.2827(3) 0.4673(3)
Hf1_7 Hf 0.04699(2) 0.70301(2) 0.27298(2)
O1_7 O 0.10392(9) 0.70161(9) 0.24696(10)
C1_7 C 0.1557(2) 0.70466(14) 0.20466(14)
C2_7 C 0.17187(14) 0.7204(2) 0.17187(14)
H1_7 H 0.160368 0.742118 0.160369
C3_7 C 0.11881(19) 0.71941(13) 0.21941(13)
O3_7 O 0.0368(2) 0.66168(16) 0.31959(16)
O4_7 O 0.0327(3) 0.7173(3) 0.2173(3)
C4_8 C 0.000000 0.6581(5) 0.3419(5)
H2_8 H -0.000001 0.638895 0.361103
O5_7 O 0.20161(9) 0.74696(10) 0.10392(9)
C5_7 C 0.20466(14) 0.70466(14) 0.1557(2)
C6_7 C 0.2204(2) 0.67187(14) 0.17187(14)
H3_7 H 0.242118 0.660369 0.160368
C7_7 C 0.21941(13) 0.71941(13) 0.11881(19)
C8_7 C 0.20466(14) 0.6557(2) 0.20466(14)
C9_7 C 0.17187(14) 0.67187(14) 0.2204(2)
H4_7 H 0.160369 0.660368 0.242118
C10_7 C 0.21941(13) 0.61881(19) 0.21941(13)
O7_7 O 0.20161(9) 0.60392(9) 0.24696(10)
O8_7 O 0.10392(9) 0.74696(10) 0.20161(9)
O9_7 O 0.24696(10) 0.70161(9) 0.10392(9)
O11_7 O 0.01260(12) 0.73740(12) 0.3101(2)
Hf3_7 Hf 0.04699(2) 0.77298(2) 0.20301(2)
O12_7 O 0.0601(2) 0.76260(12) 0.26260(12)
O13_7 O 0.08832(16) 0.81959(16) 0.2132(2)
C11_8 C 0.0919(5) 0.8419(5) 0.250000
H5_8 H 0.111105 0.861103 0.250001
O14_7 O 0.06959(16) 0.83832(16) 0.2868(2)
O15_7 O 0.08832(16) 0.7132(2) 0.31959(16)
C12_8 C 0.0919(5) 0.750000 0.3419(5)
H6_8 H 0.111103 0.749999 0.361105
O16_7 O 0.06959(16) 0.7868(2) 0.33832(16)
Hf6_7 Hf 0.02298(2) 0.79699(2) 0.29699(2)
Hf8_7 Hf 0.20301(2) 0.77298(2) 0.04699(2)
O18_7 O 0.04839(9) 0.74696(10) 0.14608(9)
O20_7 O 0.04839(9) 0.64608(9) 0.24696(10)
O21_7 O 0.01260(12) 0.8101(2) 0.23740(12)
O25_7 O 0.0368(2) 0.81959(16) 0.16168(16)
O2_7 O 0.98740(12) 0.6899(2) 0.26260(12)
C4_9 C 1.000000 0.6581(5) 0.3419(5)
H2_9 H 0.999999 0.638895 0.361103
O10_7 O 0.9632(2) 0.68041(16) 0.33832(16)
Hf2_7 Hf 0.95301(2) 0.72702(2) 0.29699(2)
Hf7_7 Hf 0.97702(2) 0.70301(2) 0.20301(2)
O17_7 O 0.89608(9) 0.75304(10) 0.29839(9)
O19_7 O 0.95161(9) 0.75304(10) 0.35392(9)
O22_7 O 0.98740(12) 0.76260(12) 0.1899(2)
O23_7 O 0.9399(2) 0.73740(12) 0.23740(12)
O24_7 O 0.91168(16) 0.68041(16) 0.2868(2)
O26_7 O 0.9673(3) 0.7827(3) 0.2827(3)
O1_8 O 0.60392(9) 0.04839(9) 0.00304(10)
C1_8 C 0.6557(2) 0.04534(14) 0.04534(14)
C2_8 C 0.67187(14) 0.0296(2) 0.07813(14)
H1_8 H 0.660368 0.007882 0.089631
C3_8 C 0.61881(19) 0.03059(13) 0.03059(13)
O4_8 O 0.5327(3) 0.0327(3) 0.0327(3)
O5_8 O 0.70161(9) 0.00304(10) 0.14608(9)
C5_8 C 0.70466(14) 0.04534(14) 0.0943(2)
C6_8 C 0.7204(2) 0.07813(14) 0.07813(14)
H3_8 H 0.742118 0.089631 0.089632
C7_8 C 0.71941(13) 0.03059(13) 0.13119(19)
C8_8 C 0.70466(14) 0.0943(2) 0.04534(14)
C9_8 C 0.67187(14) 0.07813(14) 0.0296(2)
H4_8 H 0.660369 0.089632 0.007882
C10_8 C 0.71941(13) 0.13119(19) 0.03059(13)
O7_8 O 0.70161(9) 0.14608(9) 0.00304(10)
O8_8 O 0.60392(9) 0.00304(10) 0.04839(9)
O9_8 O 0.74696(10) 0.04839(9) 0.14608(9)
Hf7_8 Hf 0.47702(2) 0.04699(2) 0.04699(2)
O18_8 O 0.54839(9) 0.00304(10) 0.10392(9)
O20_8 O 0.54839(9) 0.10392(9) 0.00304(10)
O23_8 O 0.4399(2) 0.01260(12) 0.01260(12)
Hf1_8 Hf 0.54699(2) 0.04699(2) 0.97702(2)
O2_8 O 0.48740(12) 0.0601(2) 0.98740(12)
O3_8 O 0.5368(2) 0.08832(16) 0.93041(16)
C4_10 C 0.500000 0.0919(5) 0.9081(5)
H2_10 H 0.499999 0.111105 0.888897
O10_8 O 0.4632(2) 0.06959(16) 0.91168(16)
Hf2_8 Hf 0.45301(2) 0.02298(2) 0.95301(2)
O11_8 O 0.51260(12) 0.01260(12) 0.9399(2)
O15_8 O 0.58832(16) 0.0368(2) 0.93041(16)
C12_9 C 0.5919(5) 0.000000 0.9081(5)
H6_9 H 0.611103 0.000001 0.888895
O24_8 O 0.41168(16) 0.06959(16) 0.9632(2)
Hf3_8 Hf 0.54699(2) 0.97702(2) 0.04699(2)
O13_8 O 0.58832(16) 0.93041(16) 0.0368(2)
C11_9 C 0.5919(5) 0.9081(5) 0.000000
H5_9 H 0.611105 0.888897 -0.000001
Hf8_8 Hf 0.70301(2) 0.97702(2) 0.20301(2)
O21_8 O 0.51260(12) 0.9399(2) 0.01260(12)
O22_8 O 0.48740(12) 0.98740(12) 0.0601(2)
O25_8 O 0.5368(2) 0.93041(16) 0.08832(16)
O12_8 O 0.5601(2) 0.98740(12) 0.98740(12)
C11_10 C 0.5919(5) 0.9081(5) 1.000000
H5_10 H 0.611105 0.888897 0.999999
O14_8 O 0.56959(16) 0.91168(16) 0.9632(2)
C12_10 C 0.5919(5) 1.000000 0.9081(5)
H6_10 H 0.611103 1.000001 0.888895
O16_8 O 0.56959(16) 0.9632(2) 0.91168(16)
Hf6_8 Hf 0.52298(2) 0.95301(2) 0.95301(2)
O17_8 O 0.39608(9) 0.99696(10) 0.95161(9)
O19_8 O 0.45161(9) 0.99696(10) 0.89608(9)
O26_8 O 0.4673(3) 0.9673(3) 0.9673(3)
Hf1_9 Hf 0.77298(2) 0.70301(2) 0.54699(2)
O1_9 O 0.74696(10) 0.64608(9) 0.54839(9)
O2_9 O 0.76260(12) 0.76260(12) 0.5601(2)
C1_9 C 0.70466(14) 0.5943(2) 0.54534(14)
C2_9 C 0.67187(14) 0.57813(14) 0.5296(2)
H1_9 H 0.660369 0.589632 0.507882
C3_9 C 0.71941(13) 0.63119(19) 0.53059(13)
O3_9 O 0.81959(16) 0.7132(2) 0.58832(16)
O4_9 O 0.7173(3) 0.7173(3) 0.5327(3)
C4_11 C 0.8419(5) 0.750000 0.5919(5)
H2_11 H 0.861103 0.750001 0.611105
O5_9 O 0.60392(9) 0.54839(9) 0.50304(10)
C5_9 C 0.6557(2) 0.54534(14) 0.54534(14)
C6_9 C 0.67187(14) 0.5296(2) 0.57813(14)
H3_9 H 0.660368 0.507882 0.589631
C7_9 C 0.61881(19) 0.53059(13) 0.53059(13)
C8_9 C 0.70466(14) 0.54534(14) 0.5943(2)
C9_9 C 0.7204(2) 0.57813(14) 0.57813(14)
H4_9 H 0.742118 0.589631 0.589632
C10_9 C 0.71941(13) 0.53059(13) 0.63119(19)
O7_9 O 0.74696(10) 0.54839(9) 0.64608(9)
O8_9 O 0.70161(9) 0.64608(9) 0.50304(10)
O9_9 O 0.60392(9) 0.50304(10) 0.54839(9)
O10_9 O 0.83832(16) 0.7868(2) 0.56959(16)
Hf2_9 Hf 0.79699(2) 0.79699(2) 0.52298(2)
O11_9 O 0.8101(2) 0.73740(12) 0.51260(12)
O12_9 O 0.76260(12) 0.6899(2) 0.48740(12)
O13_9 O 0.7132(2) 0.66168(16) 0.43041(16)
C11_11 C 0.750000 0.6581(5) 0.4081(5)
H5_11 H 0.750001 0.638895 0.388897
O14_9 O 0.7868(2) 0.68041(16) 0.41168(16)
O15_9 O 0.81959(16) 0.66168(16) 0.5368(2)
C12_11 C 0.8419(5) 0.6581(5) 0.500000
H6_11 H 0.861105 0.638897 0.500001
O16_9 O 0.83832(16) 0.68041(16) 0.4632(2)
Hf6_9 Hf 0.79699(2) 0.72702(2) 0.45301(2)
O17_9 O 0.79839(9) 0.85392(9) 0.49696(10)
O19_9 O 0.85392(9) 0.79839(9) 0.49696(10)
O20_9 O 0.74696(10) 0.70161(9) 0.60392(9)
O21_9 O 0.73740(12) 0.73740(12) 0.4399(2)
O22_9 O 0.6899(2) 0.76260(12) 0.48740(12)
O23_9 O 0.73740(12) 0.8101(2) 0.51260(12)
O24_9 O 0.7868(2) 0.83832(16) 0.56959(16)
O25_9 O 0.66168(16) 0.7132(2) 0.43041(16)
O26_9 O 0.7827(3) 0.7827(3) 0.4673(3)
Hf1_10 Hf 0.47702(2) 0.20301(2) 0.20301(2)
O1_10 O 0.50304(10) 0.14608(9) 0.20161(9)
O2_10 O 0.48740(12) 0.26260(12) 0.1899(2)
C1_10 C 0.54534(14) 0.0943(2) 0.20466(14)
C2_10 C 0.57813(14) 0.07813(14) 0.2204(2)
H1_10 H 0.589631 0.089632 0.242118
C3_10 C 0.53059(13) 0.13119(19) 0.21941(13)
O3_10 O 0.43041(16) 0.2132(2) 0.16168(16)
O4_10 O 0.5327(3) 0.2173(3) 0.2173(3)
C4_12 C 0.4081(5) 0.250000 0.1581(5)
H2_12 H 0.388897 0.250001 0.138895
O5_10 O 0.64608(9) 0.04839(9) 0.24696(10)
C5_10 C 0.5943(2) 0.04534(14) 0.20466(14)
C6_10 C 0.57813(14) 0.0296(2) 0.17187(14)
H3_10 H 0.589632 0.007882 0.160369
C7_10 C 0.63119(19) 0.03059(13) 0.21941(13)
C8_10 C 0.54534(14) 0.04534(14) 0.1557(2)
C9_10 C 0.5296(2) 0.07813(14) 0.17187(14)
H4_10 H 0.507882 0.089631 0.160368
C10_10 C 0.53059(13) 0.03059(13) 0.11881(19)
O7_10 O 0.50304(10) 0.04839(9) 0.10392(9)
O8_10 O 0.54839(9) 0.14608(9) 0.24696(10)
O9_10 O 0.64608(9) 0.00304(10) 0.20161(9)
O10_10 O 0.41168(16) 0.2868(2) 0.18041(16)
Hf2_10 Hf 0.45301(2) 0.29699(2) 0.22702(2)
O11_10 O 0.4399(2) 0.23740(12) 0.23740(12)
O12_10 O 0.48740(12) 0.1899(2) 0.26260(12)
O13_10 O 0.5368(2) 0.16168(16) 0.31959(16)
C11_12 C 0.500000 0.1581(5) 0.3419(5)
H5_12 H 0.499999 0.138895 0.361103
O14_10 O 0.4632(2) 0.18041(16) 0.33832(16)
O15_10 O 0.43041(16) 0.16168(16) 0.2132(2)
C12_12 C 0.4081(5) 0.1581(5) 0.250000
H6_12 H 0.388895 0.138897 0.249999
O16_10 O 0.41168(16) 0.18041(16) 0.2868(2)
Hf6_10 Hf 0.45301(2) 0.22702(2) 0.29699(2)
O17_10 O 0.45161(9) 0.35392(9) 0.25304(10)
O19_10 O 0.39608(9) 0.29839(9) 0.25304(10)
O20_10 O 0.50304(10) 0.20161(9) 0.14608(9)
O21_10 O 0.51260(12) 0.23740(12) 0.3101(2)
O22_10 O 0.5601(2) 0.26260(12) 0.26260(12)
O23_10 O 0.51260(12) 0.3101(2) 0.23740(12)
O24_10 O 0.4632(2) 0.33832(16) 0.18041(16)
O25_10 O 0.58832(16) 0.2132(2) 0.31959(16)
O26_10 O 0.4673(3) 0.2827(3) 0.2827(3)
Hf1_11 Hf 0.27298(2) 0.04699(2) 0.70301(2)
O1_11 O 0.24696(10) 0.10392(9) 0.70161(9)
C1_11 C 0.20466(14) 0.1557(2) 0.70466(14)
C2_11 C 0.17187(14) 0.17187(14) 0.7204(2)
H1_11 H 0.160369 0.160368 0.742118
C3_11 C 0.21941(13) 0.11881(19) 0.71941(13)
O3_11 O 0.31959(16) 0.0368(2) 0.66168(16)
O4_11 O 0.2173(3) 0.0327(3) 0.7173(3)
C4_13 C 0.3419(5) 0.000000 0.6581(5)
H2_13 H 0.361103 -0.000001 0.638895
O5_11 O 0.10392(9) 0.20161(9) 0.74696(10)
C5_11 C 0.1557(2) 0.20466(14) 0.70466(14)
C6_11 C 0.17187(14) 0.2204(2) 0.67187(14)
H3_11 H 0.160368 0.242118 0.660369
C7_11 C 0.11881(19) 0.21941(13) 0.71941(13)
C8_11 C 0.20466(14) 0.20466(14) 0.6557(2)
C9_11 C 0.2204(2) 0.17187(14) 0.67187(14)
H4_11 H 0.242118 0.160369 0.660368
C10_11 C 0.21941(13) 0.21941(13) 0.61881(19)
O7_11 O 0.24696(10) 0.20161(9) 0.60392(9)
O8_11 O 0.20161(9) 0.10392(9) 0.74696(10)
O9_11 O 0.10392(9) 0.24696(10) 0.70161(9)
O11_11 O 0.3101(2) 0.01260(12) 0.73740(12)
O12_11 O 0.26260(12) 0.0601(2) 0.76260(12)
O13_11 O 0.2132(2) 0.08832(16) 0.81959(16)
C11_13 C 0.250000 0.0919(5) 0.8419(5)
H5_13 H 0.250001 0.111105 0.861103
O14_11 O 0.2868(2) 0.06959(16) 0.83832(16)
O15_11 O 0.31959(16) 0.08832(16) 0.7132(2)
C12_13 C 0.3419(5) 0.0919(5) 0.750000
H6_13 H 0.361105 0.111103 0.749999
O16_11 O 0.33832(16) 0.06959(16) 0.7868(2)
Hf6_11 Hf 0.29699(2) 0.02298(2) 0.79699(2)
O20_11 O 0.24696(10) 0.04839(9) 0.64608(9)
O21_11 O 0.23740(12) 0.01260(12) 0.8101(2)
O25_11 O 0.16168(16) 0.0368(2) 0.81959(16)
O2_11 O 0.26260(12) 0.98740(12) 0.6899(2)
C4_14 C 0.3419(5) 1.000000 0.6581(5)
H2_14 H 0.361103 0.999999 0.638895
O10_11 O 0.33832(16) 0.9632(2) 0.68041(16)
Hf2_11 Hf 0.29699(2) 0.95301(2) 0.72702(2)
O17_11 O 0.29839(9) 0.89608(9) 0.75304(10)
O19_11 O 0.35392(9) 0.95161(9) 0.75304(10)
O22_11 O 0.1899(2) 0.98740(12) 0.76260(12)
O23_11 O 0.23740(12) 0.9399(2) 0.73740(12)
O24_11 O 0.2868(2) 0.91168(16) 0.68041(16)
O26_11 O 0.2827(3) 0.9673(3) 0.7827(3)
O1_12 O 0.00304(10) 0.60392(9) 0.04839(9)
C1_12 C 0.04534(14) 0.6557(2) 0.04534(14)
C2_12 C 0.07813(14) 0.67187(14) 0.0296(2)
H1_12 H 0.089631 0.660368 0.007882
C3_12 C 0.03059(13) 0.61881(19) 0.03059(13)
O4_12 O 0.0327(3) 0.5327(3) 0.0327(3)
O5_12 O 0.14608(9) 0.70161(9) 0.00304(10)
C5_12 C 0.0943(2) 0.70466(14) 0.04534(14)
C6_12 C 0.07813(14) 0.7204(2) 0.07813(14)
H3_12 H 0.089632 0.742118 0.089631
C7_12 C 0.13119(19) 0.71941(13) 0.03059(13)
C8_12 C 0.04534(14) 0.70466(14) 0.0943(2)
C9_12 C 0.0296(2) 0.67187(14) 0.07813(14)
H4_12 H 0.007882 0.660369 0.089632
C10_12 C 0.03059(13) 0.71941(13) 0.13119(19)
O7_12 O 0.00304(10) 0.70161(9) 0.14608(9)
O8_12 O 0.04839(9) 0.60392(9) 0.00304(10)
O9_12 O 0.14608(9) 0.74696(10) 0.04839(9)
O20_12 O 0.00304(10) 0.54839(9) 0.10392(9)
O23_12 O 0.01260(12) 0.4399(2) 0.01260(12)
O13_12 O 0.0368(2) 0.58832(16) 0.93041(16)
C11_14 C -0.000000 0.5919(5) 0.9081(5)
H5_14 H -0.000001 0.611105 0.888897
O21_12 O 0.01260(12) 0.51260(12) 0.9399(2)
O22_12 O 0.0601(2) 0.48740(12) 0.98740(12)
O25_12 O 0.08832(16) 0.5368(2) 0.93041(16)
Hf1_12 Hf 0.97702(2) 0.54699(2) 0.04699(2)
O2_12 O 0.98740(12) 0.48740(12) 0.0601(2)
O3_12 O 0.93041(16) 0.5368(2) 0.08832(16)
C4_15 C 0.9081(5) 0.500000 0.0919(5)
H2_15 H 0.888897 0.499999 0.111105
O10_12 O 0.91168(16) 0.4632(2) 0.06959(16)
Hf2_12 Hf 0.95301(2) 0.45301(2) 0.02298(2)
O11_12 O 0.9399(2) 0.51260(12) 0.01260(12)
O15_12 O 0.93041(16) 0.58832(16) 0.0368(2)
C12_14 C 0.9081(5) 0.5919(5) 0.000000
H6_14 H 0.888895 0.611103 0.000001
O24_12 O 0.9632(2) 0.41168(16) 0.06959(16)
O12_12 O 0.98740(12) 0.5601(2) 0.98740(12)
C11_15 C 1.000000 0.5919(5) 0.9081(5)
H5_15 H 0.999999 0.611105 0.888897
O14_12 O 0.9632(2) 0.56959(16) 0.91168(16)
C12_15 C 0.9081(5) 0.5919(5) 1.000000
H6_15 H 0.888895 0.611103 1.000001
O16_12 O 0.91168(16) 0.56959(16) 0.9632(2)
Hf6_12 Hf 0.95301(2) 0.52298(2) 0.95301(2)
O17_12 O 0.95161(9) 0.39608(9) 0.99696(10)
O19_12 O 0.89608(9) 0.45161(9) 0.99696(10)
O26_12 O 0.9673(3) 0.4673(3) 0.9673(3)
Hf5_5 Hf 0.29699(2) 0.79699(2) 0.02298(2)
Hf9_5 Hf 0.45301(2) 0.95301(2) 0.02298(2)
C1_13 C 0.45466(14) 0.79534(14) 0.9057(2)
C2_13 C 0.42187(14) 0.7796(2) 0.92187(14)
H1_13 H 0.410369 0.757882 0.910368
C3_13 C 0.46941(13) 0.78059(13) 0.86881(19)
O5_13 O 0.35392(9) 0.75304(10) 0.95161(9)
C5_13 C 0.4057(2) 0.79534(14) 0.95466(14)
C6_13 C 0.42187(14) 0.82813(14) 0.9704(2)
H3_13 H 0.410368 0.839631 0.992118
C7_13 C 0.36881(19) 0.78059(13) 0.96941(13)
O6_5 O 0.45161(9) 0.89608(9) 0.99696(10)
C8_13 C 0.45466(14) 0.8443(2) 0.95466(14)
C9_13 C 0.4704(2) 0.82813(14) 0.92187(14)
H4_13 H 0.492118 0.839632 0.910369
C10_13 C 0.46941(13) 0.88119(19) 0.96941(13)
O7_13 O 0.49696(10) 0.89608(9) 0.95161(9)
O8_13 O 0.45161(9) 0.75304(10) 0.85392(9)
O9_13 O 0.35392(9) 0.79839(9) 0.99696(10)
Hf3_9 Hf 0.45301(2) 0.72702(2) 0.79699(2)
O13_13 O 0.4632(2) 0.68041(16) 0.83832(16)
C11_16 C 0.500000 0.6581(5) 0.8419(5)
H5_16 H 0.500001 0.638897 0.861105
O14_13 O 0.5368(2) 0.66168(16) 0.81959(16)
C12_16 C 0.5919(5) 0.750000 0.8419(5)
H6_16 H 0.611105 0.750001 0.861103
O16_13 O 0.58832(16) 0.7132(2) 0.81959(16)
Hf8_9 Hf 0.29699(2) 0.72702(2) 0.95301(2)
O18_9 O 0.39608(9) 0.75304(10) 0.79839(9)
O25_13 O 0.41168(16) 0.68041(16) 0.7868(2)
C1_14 C 0.29534(14) 0.45466(14) 0.4057(2)
C2_14 C 0.32813(14) 0.4704(2) 0.42187(14)
H1_14 H 0.339631 0.492118 0.410368
C3_14 C 0.28059(13) 0.46941(13) 0.36881(19)
O5_14 O 0.39608(9) 0.49696(10) 0.45161(9)
C5_14 C 0.3443(2) 0.45466(14) 0.45466(14)
C6_14 C 0.32813(14) 0.42187(14) 0.4704(2)
H3_14 H 0.339632 0.410369 0.492118
C7_14 C 0.38119(19) 0.46941(13) 0.46941(13)
O6_6 O 0.29839(9) 0.35392(9) 0.49696(10)
C8_14 C 0.29534(14) 0.4057(2) 0.45466(14)
C9_14 C 0.2796(2) 0.42187(14) 0.42187(14)
H4_14 H 0.257882 0.410368 0.410369
C10_14 C 0.28059(13) 0.36881(19) 0.46941(13)
O7_14 O 0.25304(10) 0.35392(9) 0.45161(9)
O8_14 O 0.29839(9) 0.49696(10) 0.35392(9)
O9_14 O 0.39608(9) 0.45161(9) 0.49696(10)
Hf3_10 Hf 0.29699(2) 0.52298(2) 0.29699(2)
O13_14 O 0.2868(2) 0.56959(16) 0.33832(16)
C11_17 C 0.250000 0.5919(5) 0.3419(5)
H5_17 H 0.249999 0.611103 0.361105
O14_14 O 0.2132(2) 0.58832(16) 0.31959(16)
C12_17 C 0.1581(5) 0.500000 0.3419(5)
H6_17 H 0.138895 0.499999 0.361103
O16_14 O 0.16168(16) 0.5368(2) 0.31959(16)
Hf5_6 Hf 0.45301(2) 0.45301(2) 0.52298(2)
Hf8_10 Hf 0.45301(2) 0.52298(2) 0.45301(2)
Hf9_6 Hf 0.29699(2) 0.29699(2) 0.52298(2)
O18_10 O 0.35392(9) 0.49696(10) 0.29839(9)
O25_14 O 0.33832(16) 0.56959(16) 0.2868(2)
C11_18 C -0.000000 0.0919(5) 0.4081(5)
H5_18 H 0.000001 0.111103 0.388895
O14_15 O 0.0368(2) 0.08832(16) 0.43041(16)
C12_18 C 0.0919(5) -0.000000 0.4081(5)
H6_18 H 0.111105 -0.000001 0.388897
O16_15 O 0.08832(16) 0.0368(2) 0.43041(16)
C12_19 C 0.0919(5) 1.000000 0.4081(5)
H6_19 H 0.111105 0.999999 0.388897
Hf3_11 Hf 0.95301(2) 0.02298(2) 0.45301(2)
O13_15 O 0.9632(2) 0.06959(16) 0.41168(16)
C11_19 C 1.000000 0.0919(5) 0.4081(5)
H5_19 H 1.000001 0.111103 0.388895
Hf8_11 Hf 0.79699(2) 0.02298(2) 0.29699(2)
O25_15 O 0.91168(16) 0.06959(16) 0.4632(2)
C1_15 C 0.95466(14) 0.95466(14) 0.3443(2)
C2_15 C 0.92187(14) 0.9704(2) 0.32813(14)
H1_15 H 0.910369 0.992118 0.339632
C3_15 C 0.96941(13) 0.96941(13) 0.38119(19)
O5_15 O 0.85392(9) 0.99696(10) 0.29839(9)
C5_15 C 0.9057(2) 0.95466(14) 0.29534(14)
C6_15 C 0.92187(14) 0.92187(14) 0.2796(2)
H3_15 H 0.910368 0.910369 0.257882
C7_15 C 0.86881(19) 0.96941(13) 0.28059(13)
O6_7 O 0.95161(9) 0.85392(9) 0.25304(10)
C8_15 C 0.95466(14) 0.9057(2) 0.29534(14)
C9_15 C 0.9704(2) 0.92187(14) 0.32813(14)
H4_15 H 0.992118 0.910368 0.339631
C10_15 C 0.96941(13) 0.86881(19) 0.28059(13)
O7_15 O 0.99696(10) 0.85392(9) 0.29839(9)
O8_15 O 0.95161(9) 0.99696(10) 0.39608(9)
O9_15 O 0.85392(9) 0.95161(9) 0.25304(10)
Hf5_7 Hf 0.79699(2) 0.95301(2) 0.22702(2)
Hf9_7 Hf 0.95301(2) 0.79699(2) 0.22702(2)
O18_11 O 0.89608(9) 0.99696(10) 0.45161(9)
C1_16 C 0.79534(14) 0.29534(14) 0.8443(2)
C2_16 C 0.82813(14) 0.2796(2) 0.82813(14)
H1_16 H 0.839631 0.257882 0.839632
C3_16 C 0.78059(13) 0.28059(13) 0.88119(19)
O5_16 O 0.89608(9) 0.25304(10) 0.79839(9)
C5_16 C 0.8443(2) 0.29534(14) 0.79534(14)
C6_16 C 0.82813(14) 0.32813(14) 0.7796(2)
H3_16 H 0.839632 0.339631 0.757882
C7_16 C 0.88119(19) 0.28059(13) 0.78059(13)
O6_8 O 0.79839(9) 0.39608(9) 0.75304(10)
C8_16 C 0.79534(14) 0.3443(2) 0.79534(14)
C9_16 C 0.7796(2) 0.32813(14) 0.82813(14)
H4_16 H 0.757882 0.339632 0.839631
C10_16 C 0.78059(13) 0.38119(19) 0.78059(13)
O7_16 O 0.75304(10) 0.39608(9) 0.79839(9)
O8_16 O 0.79839(9) 0.25304(10) 0.89608(9)
O9_16 O 0.89608(9) 0.29839(9) 0.75304(10)
Hf3_12 Hf 0.79699(2) 0.22702(2) 0.95301(2)
O13_16 O 0.7868(2) 0.18041(16) 0.91168(16)
C11_20 C 0.750000 0.1581(5) 0.9081(5)
H5_20 H 0.749999 0.138897 0.888895
O14_16 O 0.7132(2) 0.16168(16) 0.93041(16)
C12_20 C 0.6581(5) 0.250000 0.9081(5)
H6_20 H 0.638895 0.250001 0.888897
O16_16 O 0.66168(16) 0.2132(2) 0.93041(16)
Hf5_8 Hf 0.95301(2) 0.29699(2) 0.72702(2)
Hf8_12 Hf 0.95301(2) 0.22702(2) 0.79699(2)
Hf9_8 Hf 0.79699(2) 0.45301(2) 0.72702(2)
O18_12 O 0.85392(9) 0.25304(10) 0.95161(9)
O25_16 O 0.83832(16) 0.18041(16) 0.9632(2)
C1_17 C 0.29534(14) 0.8443(2) 0.79534(14)
C2_17 C 0.2796(2) 0.82813(14) 0.82813(14)
H1_17 H 0.257882 0.839632 0.839631
C3_17 C 0.28059(13) 0.88119(19) 0.78059(13)
O5_17 O 0.25304(10) 0.79839(9) 0.89608(9)
C5_17 C 0.29534(14) 0.79534(14) 0.8443(2)
C6_17 C 0.32813(14) 0.7796(2) 0.82813(14)
H3_17 H 0.339631 0.757882 0.839632
C7_17 C 0.28059(13) 0.78059(13) 0.88119(19)
C8_17 C 0.3443(2) 0.79534(14) 0.79534(14)
C9_17 C 0.32813(14) 0.82813(14) 0.7796(2)
H4_17 H 0.339632 0.839631 0.757882
C10_17 C 0.38119(19) 0.78059(13) 0.78059(13)
O7_17 O 0.39608(9) 0.79839(9) 0.75304(10)
O8_17 O 0.25304(10) 0.89608(9) 0.79839(9)
O9_17 O 0.29839(9) 0.75304(10) 0.89608(9)
Hf3_13 Hf 0.22702(2) 0.95301(2) 0.79699(2)
O13_17 O 0.18041(16) 0.91168(16) 0.7868(2)
C11_21 C 0.1581(5) 0.9081(5) 0.750000
H5_21 H 0.138897 0.888895 0.749999
O14_17 O 0.16168(16) 0.93041(16) 0.7132(2)
C12_21 C 0.250000 0.9081(5) 0.6581(5)
H6_21 H 0.250001 0.888897 0.638895
O16_17 O 0.2132(2) 0.93041(16) 0.66168(16)
Hf8_13 Hf 0.22702(2) 0.79699(2) 0.95301(2)
O18_13 O 0.25304(10) 0.95161(9) 0.85392(9)
O25_17 O 0.18041(16) 0.9632(2) 0.83832(16)
C11_22 C 0.0919(5) 0.4081(5) 0.000000
H5_22 H 0.111103 0.388895 0.000001
O14_18 O 0.08832(16) 0.43041(16) 0.0368(2)
C12_22 C -0.000000 0.4081(5) 0.0919(5)
H6_22 H -0.000001 0.388897 0.111105
O16_18 O 0.0368(2) 0.43041(16) 0.08832(16)
Hf3_14 Hf 0.02298(2) 0.45301(2) 0.95301(2)
O13_18 O 0.06959(16) 0.41168(16) 0.9632(2)
C11_23 C 0.0919(5) 0.4081(5) 1.000000
H5_23 H 0.111103 0.388895 1.000001
Hf8_14 Hf 0.02298(2) 0.29699(2) 0.79699(2)
O25_18 O 0.06959(16) 0.4632(2) 0.91168(16)
C12_23 C 1.000000 0.4081(5) 0.0919(5)
H6_23 H 0.999999 0.388897 0.111105
C1_18 C 0.95466(14) 0.3443(2) 0.95466(14)
C2_18 C 0.9704(2) 0.32813(14) 0.92187(14)
H1_18 H 0.992118 0.339632 0.910369
C3_18 C 0.96941(13) 0.38119(19) 0.96941(13)
O5_18 O 0.99696(10) 0.29839(9) 0.85392(9)
C5_18 C 0.95466(14) 0.29534(14) 0.9057(2)
C6_18 C 0.92187(14) 0.2796(2) 0.92187(14)
H3_18 H 0.910369 0.257882 0.910368
C7_18 C 0.96941(13) 0.28059(13) 0.86881(19)
C8_18 C 0.9057(2) 0.29534(14) 0.95466(14)
C9_18 C 0.92187(14) 0.32813(14) 0.9704(2)
H4_18 H 0.910368 0.339631 0.992118
C10_18 C 0.86881(19) 0.28059(13) 0.96941(13)
O7_18 O 0.85392(9) 0.29839(9) 0.99696(10)
O8_18 O 0.99696(10) 0.39608(9) 0.95161(9)
O9_18 O 0.95161(9) 0.25304(10) 0.85392(9)
O18_14 O 0.99696(10) 0.45161(9) 0.89608(9)
C1_19 C 0.45466(14) 0.4057(2) 0.29534(14)
C2_19 C 0.4704(2) 0.42187(14) 0.32813(14)
H1_19 H 0.492118 0.410368 0.339631
C3_19 C 0.46941(13) 0.36881(19) 0.28059(13)
O5_19 O 0.49696(10) 0.45161(9) 0.39608(9)
C5_19 C 0.45466(14) 0.45466(14) 0.3443(2)
C6_19 C 0.42187(14) 0.4704(2) 0.32813(14)
H3_19 H 0.410369 0.492118 0.339632
C7_19 C 0.46941(13) 0.46941(13) 0.38119(19)
C8_19 C 0.4057(2) 0.45466(14) 0.29534(14)
C9_19 C 0.42187(14) 0.42187(14) 0.2796(2)
H4_19 H 0.410368 0.410369 0.257882
C10_19 C 0.36881(19) 0.46941(13) 0.28059(13)
O7_19 O 0.35392(9) 0.45161(9) 0.25304(10)
O8_19 O 0.49696(10) 0.35392(9) 0.29839(9)
O9_19 O 0.45161(9) 0.49696(10) 0.39608(9)
Hf3_15 Hf 0.52298(2) 0.29699(2) 0.29699(2)
O13_19 O 0.56959(16) 0.33832(16) 0.2868(2)
C11_24 C 0.5919(5) 0.3419(5) 0.250000
H5_24 H 0.611103 0.361105 0.249999
O14_19 O 0.58832(16) 0.31959(16) 0.2132(2)
C12_24 C 0.500000 0.3419(5) 0.1581(5)
H6_24 H 0.499999 0.361103 0.138895
O16_19 O 0.5368(2) 0.31959(16) 0.16168(16)
Hf8_15 Hf 0.52298(2) 0.45301(2) 0.45301(2)
O18_15 O 0.49696(10) 0.29839(9) 0.35392(9)
O25_19 O 0.56959(16) 0.2868(2) 0.33832(16)
C1_20 C 0.79534(14) 0.9057(2) 0.45466(14)
C2_20 C 0.7796(2) 0.92187(14) 0.42187(14)
H1_20 H 0.757882 0.910368 0.410369
C3_20 C 0.78059(13) 0.86881(19) 0.46941(13)
O5_20 O 0.75304(10) 0.95161(9) 0.35392(9)
C5_20 C 0.79534(14) 0.95466(14) 0.4057(2)
C6_20 C 0.82813(14) 0.9704(2) 0.42187(14)
H3_20 H 0.839631 0.992118 0.410368
C7_20 C 0.78059(13) 0.96941(13) 0.36881(19)
C8_20 C 0.8443(2) 0.95466(14) 0.45466(14)
C9_20 C 0.82813(14) 0.92187(14) 0.4704(2)
H4_20 H 0.839632 0.910369 0.492118
C10_20 C 0.88119(19) 0.96941(13) 0.46941(13)
O7_20 O 0.89608(9) 0.95161(9) 0.49696(10)
O8_20 O 0.75304(10) 0.85392(9) 0.45161(9)
O9_20 O 0.79839(9) 0.99696(10) 0.35392(9)
Hf3_16 Hf 0.72702(2) 0.79699(2) 0.45301(2)
O13_20 O 0.68041(16) 0.83832(16) 0.4632(2)
C11_25 C 0.6581(5) 0.8419(5) 0.500000
H5_25 H 0.638897 0.861105 0.500001
O14_20 O 0.66168(16) 0.81959(16) 0.5368(2)
C12_25 C 0.750000 0.8419(5) 0.5919(5)
H6_25 H 0.750001 0.861103 0.611105
O16_20 O 0.7132(2) 0.81959(16) 0.58832(16)
Hf8_16 Hf 0.72702(2) 0.95301(2) 0.29699(2)
O18_16 O 0.75304(10) 0.79839(9) 0.39608(9)
O25_20 O 0.68041(16) 0.7868(2) 0.41168(16)
C11_26 C 0.4081(5) -0.000000 0.0919(5)
H5_26 H 0.388895 0.000001 0.111103
O14_21 O 0.43041(16) 0.0368(2) 0.08832(16)
C12_26 C 0.4081(5) 0.0919(5) -0.000000
H6_26 H 0.388897 0.111105 -0.000001
O16_21 O 0.43041(16) 0.08832(16) 0.0368(2)
C12_27 C 0.4081(5) 0.0919(5) 1.000000
H6_27 H 0.388897 0.111105 0.999999
O13_21 O 0.41168(16) 0.9632(2) 0.06959(16)
C11_27 C 0.4081(5) 1.000000 0.0919(5)
H5_27 H 0.388895 1.000001 0.111103
O25_21 O 0.4632(2) 0.91168(16) 0.06959(16)
C1_21 C 0.3443(2) 0.95466(14) 0.95466(14)
C2_21 C 0.32813(14) 0.92187(14) 0.9704(2)
H1_21 H 0.339632 0.910369 0.992118
C3_21 C 0.38119(19) 0.96941(13) 0.96941(13)
O5_21 O 0.29839(9) 0.85392(9) 0.99696(10)
C5_21 C 0.29534(14) 0.9057(2) 0.95466(14)
C6_21 C 0.2796(2) 0.92187(14) 0.92187(14)
H3_21 H 0.257882 0.910368 0.910369
C7_21 C 0.28059(13) 0.86881(19) 0.96941(13)
C8_21 C 0.29534(14) 0.95466(14) 0.9057(2)
C9_21 C 0.32813(14) 0.9704(2) 0.92187(14)
H4_21 H 0.339631 0.992118 0.910368
C10_21 C 0.28059(13) 0.96941(13) 0.86881(19)
O7_21 O 0.29839(9) 0.99696(10) 0.85392(9)
O8_21 O 0.39608(9) 0.95161(9) 0.99696(10)
O9_21 O 0.25304(10) 0.85392(9) 0.95161(9)
C1_22 C 0.8443(2) 0.79534(14) 0.29534(14)
C2_22 C 0.82813(14) 0.82813(14) 0.2796(2)
H1_22 H 0.839632 0.839631 0.257882
C3_22 C 0.88119(19) 0.78059(13) 0.28059(13)
O5_22 O 0.79839(9) 0.89608(9) 0.25304(10)
C5_22 C 0.79534(14) 0.8443(2) 0.29534(14)
C6_22 C 0.7796(2) 0.82813(14) 0.32813(14)
H3_22 H 0.757882 0.839632 0.339631
C7_22 C 0.78059(13) 0.88119(19) 0.28059(13)
C8_22 C 0.79534(14) 0.79534(14) 0.3443(2)
C9_22 C 0.82813(14) 0.7796(2) 0.32813(14)
H4_22 H 0.839631 0.757882 0.339632
C10_22 C 0.78059(13) 0.78059(13) 0.38119(19)
O7_22 O 0.79839(9) 0.75304(10) 0.39608(9)
O8_22 O 0.89608(9) 0.79839(9) 0.25304(10)
O9_22 O 0.75304(10) 0.89608(9) 0.29839(9)
O13_22 O 0.91168(16) 0.7868(2) 0.18041(16)
C11_28 C 0.9081(5) 0.750000 0.1581(5)
H5_28 H 0.888895 0.749999 0.138897
O14_22 O 0.93041(16) 0.7132(2) 0.16168(16)
C12_28 C 0.9081(5) 0.6581(5) 0.250000
H6_28 H 0.888897 0.638895 0.250001
O16_22 O 0.93041(16) 0.66168(16) 0.2132(2)
O25_22 O 0.9632(2) 0.83832(16) 0.18041(16)
C1_23 C 0.9057(2) 0.45466(14) 0.79534(14)
C2_23 C 0.92187(14) 0.42187(14) 0.7796(2)
H1_23 H 0.910368 0.410369 0.757882
C3_23 C 0.86881(19) 0.46941(13) 0.78059(13)
O5_23 O 0.95161(9) 0.35392(9) 0.75304(10)
C5_23 C 0.95466(14) 0.4057(2) 0.79534(14)
C6_23 C 0.9704(2) 0.42187(14) 0.82813(14)
H3_23 H 0.992118 0.410368 0.839631
C7_23 C 0.96941(13) 0.36881(19) 0.78059(13)
C8_23 C 0.95466(14) 0.45466(14) 0.8443(2)
C9_23 C 0.92187(14) 0.4704(2) 0.82813(14)
H4_23 H 0.910369 0.492118 0.839632
C10_23 C 0.96941(13) 0.46941(13) 0.88119(19)
O7_23 O 0.95161(9) 0.49696(10) 0.89608(9)
O8_23 O 0.85392(9) 0.45161(9) 0.75304(10)
O9_23 O 0.99696(10) 0.35392(9) 0.79839(9)
O13_23 O 0.83832(16) 0.4632(2) 0.68041(16)
C11_29 C 0.8419(5) 0.500000 0.6581(5)
H5_29 H 0.861105 0.500001 0.638897
O14_23 O 0.81959(16) 0.5368(2) 0.66168(16)
C12_29 C 0.8419(5) 0.5919(5) 0.750000
H6_29 H 0.861103 0.611105 0.750001
O16_23 O 0.81959(16) 0.58832(16) 0.7132(2)
O25_23 O 0.7868(2) 0.41168(16) 0.68041(16)
C1_24 C 0.4057(2) 0.29534(14) 0.45466(14)
C2_24 C 0.42187(14) 0.32813(14) 0.4704(2)
H1_24 H 0.410368 0.339631 0.492118
C3_24 C 0.36881(19) 0.28059(13) 0.46941(13)
O5_24 O 0.45161(9) 0.39608(9) 0.49696(10)
C5_24 C 0.45466(14) 0.3443(2) 0.45466(14)
C6_24 C 0.4704(2) 0.32813(14) 0.42187(14)
H3_24 H 0.492118 0.339632 0.410369
C7_24 C 0.46941(13) 0.38119(19) 0.46941(13)
C8_24 C 0.45466(14) 0.29534(14) 0.4057(2)
C9_24 C 0.42187(14) 0.2796(2) 0.42187(14)
H4_24 H 0.410369 0.257882 0.410368
C10_24 C 0.46941(13) 0.28059(13) 0.36881(19)
O7_24 O 0.45161(9) 0.25304(10) 0.35392(9)
O8_24 O 0.35392(9) 0.29839(9) 0.49696(10)
O9_24 O 0.49696(10) 0.39608(9) 0.45161(9)
O13_24 O 0.33832(16) 0.2868(2) 0.56959(16)
C11_30 C 0.3419(5) 0.250000 0.5919(5)
H5_30 H 0.361105 0.249999 0.611103
O14_24 O 0.31959(16) 0.2132(2) 0.58832(16)
C12_30 C 0.3419(5) 0.1581(5) 0.500000
H6_30 H 0.361103 0.138895 0.499999
O16_24 O 0.31959(16) 0.16168(16) 0.5368(2)
O25_24 O 0.2868(2) 0.33832(16) 0.56959(16)
O1_13 O 0.54839(9) 0.24696(10) 0.14608(9)
C1_25 C 0.54534(14) 0.20466(14) 0.0943(2)
C2_25 C 0.5296(2) 0.17187(14) 0.07813(14)
H1_25 H 0.507882 0.160369 0.089632
C3_25 C 0.53059(13) 0.21941(13) 0.13119(19)
O5_25 O 0.50304(10) 0.10392(9) 0.04839(9)
C5_25 C 0.54534(14) 0.1557(2) 0.04534(14)
C6_25 C 0.57813(14) 0.17187(14) 0.0296(2)
H3_25 H 0.589631 0.160368 0.007882
C7_25 C 0.53059(13) 0.11881(19) 0.03059(13)
O6_9 O 0.64608(9) 0.20161(9) 0.00304(10)
C8_25 C 0.5943(2) 0.20466(14) 0.04534(14)
C9_25 C 0.57813(14) 0.2204(2) 0.07813(14)
H4_25 H 0.589632 0.242118 0.089631
C10_25 C 0.63119(19) 0.21941(13) 0.03059(13)
O1_14 O 0.20161(9) 0.00304(10) 0.64608(9)
C1_26 C 0.20466(14) 0.04534(14) 0.5943(2)
C2_26 C 0.2204(2) 0.07813(14) 0.57813(14)
H1_26 H 0.242118 0.089631 0.589632
C3_26 C 0.21941(13) 0.03059(13) 0.63119(19)
O5_26 O 0.24696(10) 0.14608(9) 0.54839(9)
C5_26 C 0.20466(14) 0.0943(2) 0.54534(14)
C6_26 C 0.17187(14) 0.07813(14) 0.5296(2)
H3_26 H 0.160369 0.089632 0.507882
C7_26 C 0.21941(13) 0.13119(19) 0.53059(13)
O6_10 O 0.10392(9) 0.04839(9) 0.50304(10)
C8_26 C 0.1557(2) 0.04534(14) 0.54534(14)
C9_26 C 0.17187(14) 0.0296(2) 0.57813(14)
H4_26 H 0.160368 0.007882 0.589631
C10_26 C 0.11881(19) 0.03059(13) 0.53059(13)
O1_15 O 0.70161(9) 0.74696(10) 0.60392(9)
C1_27 C 0.70466(14) 0.70466(14) 0.6557(2)
C2_27 C 0.7204(2) 0.67187(14) 0.67187(14)
H1_27 H 0.742118 0.660369 0.660368
C3_27 C 0.71941(13) 0.71941(13) 0.61881(19)
O5_27 O 0.74696(10) 0.60392(9) 0.70161(9)
C5_27 C 0.70466(14) 0.6557(2) 0.70466(14)
C6_27 C 0.67187(14) 0.67187(14) 0.7204(2)
H3_27 H 0.660369 0.660368 0.742118
C7_27 C 0.71941(13) 0.61881(19) 0.71941(13)
O6_11 O 0.60392(9) 0.70161(9) 0.74696(10)
C8_27 C 0.6557(2) 0.70466(14) 0.70466(14)
C9_27 C 0.67187(14) 0.7204(2) 0.67187(14)
H4_27 H 0.660368 0.742118 0.660369
C10_27 C 0.61881(19) 0.71941(13) 0.71941(13)
O1_16 O 0.04839(9) 0.50304(10) 0.10392(9)
C1_28 C 0.04534(14) 0.54534(14) 0.1557(2)
C2_28 C 0.0296(2) 0.57813(14) 0.17187(14)
H1_28 H 0.007882 0.589631 0.160368
C3_28 C 0.03059(13) 0.53059(13) 0.11881(19)
O5_28 O 0.00304(10) 0.64608(9) 0.20161(9)
C5_28 C 0.04534(14) 0.5943(2) 0.20466(14)
C6_28 C 0.07813(14) 0.57813(14) 0.2204(2)
H3_28 H 0.089631 0.589632 0.242118
C7_28 C 0.03059(13) 0.63119(19) 0.21941(13)
O6_12 O 0.14608(9) 0.54839(9) 0.24696(10)
C8_28 C 0.0943(2) 0.54534(14) 0.20466(14)
C9_28 C 0.07813(14) 0.5296(2) 0.17187(14)
H4_28 H 0.089632 0.507882 0.160369
C10_28 C 0.13119(19) 0.53059(13) 0.21941(13)
O2_13 O 0.76260(12) 0.0601(2) 0.26260(12)
O3_13 O 0.7132(2) 0.08832(16) 0.31959(16)
O4_13 O 0.7173(3) 0.0327(3) 0.2173(3)
C4_16 C 0.750000 0.0919(5) 0.3419(5)
H2_16 H 0.750001 0.111105 0.361103
O10_13 O 0.7868(2) 0.06959(16) 0.33832(16)
O11_13 O 0.73740(12) 0.01260(12) 0.3101(2)
O15_13 O 0.66168(16) 0.0368(2) 0.31959(16)
C12_31 C 0.6581(5) 0.000000 0.3419(5)
H6_31 H 0.638897 0.000001 0.361105
O23_13 O 0.8101(2) 0.01260(12) 0.23740(12)
O24_13 O 0.83832(16) 0.06959(16) 0.2868(2)
O12_13 O 0.6899(2) 0.98740(12) 0.26260(12)
O13_25 O 0.66168(16) 0.93041(16) 0.2132(2)
C11_31 C 0.6581(5) 0.9081(5) 0.250000
H5_31 H 0.638895 0.888897 0.250001
O14_25 O 0.68041(16) 0.91168(16) 0.2868(2)
C12_32 C 0.6581(5) 1.000000 0.3419(5)
H6_32 H 0.638897 1.000001 0.361105
O16_25 O 0.68041(16) 0.9632(2) 0.33832(16)
O21_13 O 0.73740(12) 0.9399(2) 0.23740(12)
O22_13 O 0.76260(12) 0.98740(12) 0.1899(2)
O25_25 O 0.7132(2) 0.93041(16) 0.16168(16)
O26_13 O 0.7827(3) 0.9673(3) 0.2827(3)
O4_14 O 0.2173(3) 0.7173(3) 0.0327(3)
O13_26 O 0.16168(16) 0.81959(16) 0.0368(2)
C11_32 C 0.1581(5) 0.8419(5) 0.000000
H5_32 H 0.138895 0.861103 -0.000001
O21_14 O 0.23740(12) 0.8101(2) 0.01260(12)
O22_14 O 0.26260(12) 0.76260(12) 0.0601(2)
O23_14 O 0.3101(2) 0.73740(12) 0.01260(12)
O25_26 O 0.2132(2) 0.81959(16) 0.08832(16)
O2_14 O 0.26260(12) 0.6899(2) 0.98740(12)
O3_14 O 0.2132(2) 0.66168(16) 0.93041(16)
C4_17 C 0.250000 0.6581(5) 0.9081(5)
H2_17 H 0.250001 0.638895 0.888897
O10_14 O 0.2868(2) 0.68041(16) 0.91168(16)
O11_14 O 0.23740(12) 0.73740(12) 0.9399(2)
O12_14 O 0.1899(2) 0.76260(12) 0.98740(12)
C11_33 C 0.1581(5) 0.8419(5) 1.000000
H5_33 H 0.138895 0.861103 0.999999
O14_26 O 0.18041(16) 0.83832(16) 0.9632(2)
O15_14 O 0.16168(16) 0.7132(2) 0.93041(16)
C12_33 C 0.1581(5) 0.750000 0.9081(5)
H6_33 H 0.138897 0.749999 0.888895
O16_26 O 0.18041(16) 0.7868(2) 0.91168(16)
O24_14 O 0.33832(16) 0.68041(16) 0.9632(2)
O26_14 O 0.2827(3) 0.7827(3) 0.9673(3)
O3_15 O 0.0368(2) 0.16168(16) 0.81959(16)
O4_15 O 0.0327(3) 0.2173(3) 0.7173(3)
C4_18 C 0.000000 0.1581(5) 0.8419(5)
H2_18 H -0.000001 0.138895 0.861103
O11_15 O 0.01260(12) 0.23740(12) 0.8101(2)
O12_15 O 0.0601(2) 0.26260(12) 0.76260(12)
O13_27 O 0.08832(16) 0.31959(16) 0.7132(2)
C11_34 C 0.0919(5) 0.3419(5) 0.750000
H5_34 H 0.111105 0.361103 0.750001
O14_27 O 0.06959(16) 0.33832(16) 0.7868(2)
O15_15 O 0.08832(16) 0.2132(2) 0.81959(16)
C12_34 C 0.0919(5) 0.250000 0.8419(5)
H6_34 H 0.111103 0.249999 0.861105
O16_27 O 0.06959(16) 0.2868(2) 0.83832(16)
O21_15 O 0.01260(12) 0.3101(2) 0.73740(12)
O25_27 O 0.0368(2) 0.31959(16) 0.66168(16)
O2_15 O 0.98740(12) 0.1899(2) 0.76260(12)
C4_19 C 1.000000 0.1581(5) 0.8419(5)
H2_19 H 0.999999 0.138895 0.861103
O10_15 O 0.9632(2) 0.18041(16) 0.83832(16)
O22_15 O 0.98740(12) 0.26260(12) 0.6899(2)
O23_15 O 0.9399(2) 0.23740(12) 0.73740(12)
O24_15 O 0.91168(16) 0.18041(16) 0.7868(2)
O26_15 O 0.9673(3) 0.2827(3) 0.7827(3)
O2_16 O 0.48740(12) 0.5601(2) 0.48740(12)
O3_16 O 0.5368(2) 0.58832(16) 0.43041(16)
O4_16 O 0.5327(3) 0.5327(3) 0.5327(3)
C4_20 C 0.500000 0.5919(5) 0.4081(5)
H2_20 H 0.499999 0.611105 0.388897
O10_16 O 0.4632(2) 0.56959(16) 0.41168(16)
O11_16 O 0.51260(12) 0.51260(12) 0.4399(2)
O12_16 O 0.5601(2) 0.48740(12) 0.48740(12)
O13_28 O 0.58832(16) 0.43041(16) 0.5368(2)
C11_35 C 0.5919(5) 0.4081(5) 0.500000
H5_35 H 0.611105 0.388897 0.499999
O14_28 O 0.56959(16) 0.41168(16) 0.4632(2)
O15_16 O 0.58832(16) 0.5368(2) 0.43041(16)
C12_35 C 0.5919(5) 0.500000 0.4081(5)
H6_35 H 0.611103 0.500001 0.388895
O16_28 O 0.56959(16) 0.4632(2) 0.41168(16)
O21_16 O 0.51260(12) 0.4399(2) 0.51260(12)
O22_16 O 0.48740(12) 0.48740(12) 0.5601(2)
O23_16 O 0.4399(2) 0.51260(12) 0.51260(12)
O24_16 O 0.41168(16) 0.56959(16) 0.4632(2)
O25_28 O 0.5368(2) 0.43041(16) 0.58832(16)
O26_16 O 0.4673(3) 0.4673(3) 0.4673(3)
C12_36 C 0.8419(5) 0.1581(5) 0.000000
H6_36 H 0.861105 0.138897 0.000001
C12_37 C 0.8419(5) 0.1581(5) 1.000000
H6_37 H 0.861105 0.138897 1.000001
O17_13 O 0.79839(9) 0.35392(9) 0.99696(10)
C12_38 C 0.4081(5) 0.6581(5) 0.750000
H6_38 H 0.388895 0.638897 0.749999
O17_14 O 0.45161(9) 0.85392(9) 0.75304(10)
C12_39 C 0.3419(5) 0.5919(5) 0.250000
H6_39 H 0.361105 0.611103 0.249999
O17_15 O 0.29839(9) 0.39608(9) 0.25304(10)
C12_40 C 0.9081(5) 0.0919(5) 0.500000
H6_40 H 0.888895 0.111103 0.500001
O17_16 O 0.95161(9) 0.89608(9) 0.49696(10)
C12_41 C 0.5919(5) 0.250000 0.3419(5)
H6_41 H 0.611105 0.250001 0.361103
O18_17 O 0.39608(9) 0.25304(10) 0.29839(9)
C12_42 C 0.1581(5) -0.000000 0.8419(5)
H6_42 H 0.138895 -0.000001 0.861103
C12_43 C 0.1581(5) 1.000000 0.8419(5)
H6_43 H 0.138895 0.999999 0.861103
O18_18 O 0.35392(9) 0.99696(10) 0.79839(9)
C12_44 C 0.0919(5) 0.500000 0.9081(5)
H6_44 H 0.111105 0.499999 0.888897
O18_19 O 0.89608(9) 0.49696(10) 0.95161(9)
C12_45 C 0.6581(5) 0.750000 0.4081(5)
H6_45 H 0.638895 0.750001 0.388897
O18_20 O 0.85392(9) 0.75304(10) 0.45161(9)
C1_29 C 0.29534(14) 0.3443(2) 0.29534(14)
C2_29 C 0.2796(2) 0.32813(14) 0.32813(14)
H1_29 H 0.257882 0.339632 0.339631
C3_29 C 0.28059(13) 0.38119(19) 0.28059(13)
O5_29 O 0.25304(10) 0.29839(9) 0.39608(9)
C5_29 C 0.29534(14) 0.29534(14) 0.3443(2)
C6_29 C 0.32813(14) 0.2796(2) 0.32813(14)
H3_29 H 0.339631 0.257882 0.339632
C7_29 C 0.28059(13) 0.28059(13) 0.38119(19)
C8_29 C 0.3443(2) 0.29534(14) 0.29534(14)
C9_29 C 0.32813(14) 0.32813(14) 0.2796(2)
H4_29 H 0.339632 0.339631 0.257882
C10_29 C 0.38119(19) 0.28059(13) 0.28059(13)
C1_30 C 0.95466(14) 0.8443(2) 0.45466(14)
C2_30 C 0.9704(2) 0.82813(14) 0.42187(14)
H1_30 H 0.992118 0.839632 0.410369
C3_30 C 0.96941(13) 0.88119(19) 0.46941(13)
O5_30 O 0.99696(10) 0.79839(9) 0.35392(9)
C5_30 C 0.95466(14) 0.79534(14) 0.4057(2)
C6_30 C 0.92187(14) 0.7796(2) 0.42187(14)
H3_30 H 0.910369 0.757882 0.410368
C7_30 C 0.96941(13) 0.78059(13) 0.36881(19)
C8_30 C 0.9057(2) 0.79534(14) 0.45466(14)
C9_30 C 0.92187(14) 0.82813(14) 0.4704(2)
H4_30 H 0.910368 0.839631 0.492118
C10_30 C 0.86881(19) 0.78059(13) 0.46941(13)
C1_31 C 0.45466(14) 0.9057(2) 0.79534(14)
C2_31 C 0.4704(2) 0.92187(14) 0.82813(14)
H1_31 H 0.492118 0.910368 0.839631
C3_31 C 0.46941(13) 0.86881(19) 0.78059(13)
O5_31 O 0.49696(10) 0.95161(9) 0.89608(9)
C5_31 C 0.45466(14) 0.95466(14) 0.8443(2)
C6_31 C 0.42187(14) 0.9704(2) 0.82813(14)
H3_31 H 0.410369 0.992118 0.839632
C7_31 C 0.46941(13) 0.96941(13) 0.88119(19)
C8_31 C 0.4057(2) 0.95466(14) 0.79534(14)
C9_31 C 0.42187(14) 0.92187(14) 0.7796(2)
H4_31 H 0.410368 0.910369 0.757882
C10_31 C 0.36881(19) 0.96941(13) 0.78059(13)
C1_32 C 0.79534(14) 0.4057(2) 0.95466(14)
C2_32 C 0.7796(2) 0.42187(14) 0.92187(14)
H1_32 H 0.757882 0.410368 0.910369
C3_32 C 0.78059(13) 0.36881(19) 0.96941(13)
O5_32 O 0.75304(10) 0.45161(9) 0.85392(9)
C5_32 C 0.79534(14) 0.45466(14) 0.9057(2)
C6_32 C 0.82813(14) 0.4704(2) 0.92187(14)
H3_32 H 0.839631 0.492118 0.910368
C7_32 C 0.78059(13) 0.46941(13) 0.86881(19)
C8_32 C 0.8443(2) 0.45466(14) 0.95466(14)
C9_32 C 0.82813(14) 0.42187(14) 0.9704(2)
H4_32 H 0.839632 0.410369 0.992118
C10_32 C 0.88119(19) 0.46941(13) 0.96941(13)
O13_29 O 0.41168(16) 0.4632(2) 0.56959(16)
C11_36 C 0.4081(5) 0.500000 0.5919(5)
H5_36 H 0.388895 0.500001 0.611103
O14_29 O 0.43041(16) 0.5368(2) 0.58832(16)
C12_46 C 0.4081(5) 0.5919(5) 0.500000
H6_46 H 0.388897 0.611105 0.499999
O16_29 O 0.43041(16) 0.58832(16) 0.5368(2)
O25_29 O 0.4632(2) 0.41168(16) 0.56959(16)
O13_30 O 0.91168(16) 0.2868(2) 0.68041(16)
C11_37 C 0.9081(5) 0.250000 0.6581(5)
H5_37 H 0.888895 0.249999 0.638897
O14_30 O 0.93041(16) 0.2132(2) 0.66168(16)
C12_47 C 0.9081(5) 0.1581(5) 0.750000
H6_47 H 0.888897 0.138895 0.750001
O16_30 O 0.93041(16) 0.16168(16) 0.7132(2)
O25_30 O 0.9632(2) 0.33832(16) 0.68041(16)
C11_38 C 0.8419(5) -0.000000 0.1581(5)
H5_38 H 0.861105 0.000001 0.138897
O14_31 O 0.81959(16) 0.0368(2) 0.16168(16)
C12_48 C 0.8419(5) 0.0919(5) 0.250000
H6_48 H 0.861103 0.111105 0.250001
O16_31 O 0.81959(16) 0.08832(16) 0.2132(2)
O13_31 O 0.83832(16) 0.9632(2) 0.18041(16)
C11_39 C 0.8419(5) 1.000000 0.1581(5)
H5_39 H 0.861105 1.000001 0.138897
O25_31 O 0.7868(2) 0.91168(16) 0.18041(16)
O13_32 O 0.33832(16) 0.7868(2) 0.06959(16)
C11_40 C 0.3419(5) 0.750000 0.0919(5)
H5_40 H 0.361105 0.749999 0.111103
O14_32 O 0.31959(16) 0.7132(2) 0.08832(16)
C12_49 C 0.3419(5) 0.6581(5) -0.000000
H6_49 H 0.361103 0.638895 -0.000001
O16_32 O 0.31959(16) 0.66168(16) 0.0368(2)
O25_32 O 0.2868(2) 0.83832(16) 0.06959(16)
C12_50 C 0.3419(5) 0.6581(5) 1.000000
H6_50 H 0.361103 0.638895 0.999999
C12_51 C 0.000000 0.8419(5) 0.1581(5)
H6_51 H 0.000001 0.861105 0.138897
C12_52 C 1.000000 0.8419(5) 0.1581(5)
H6_52 H 1.000001 0.861105 0.138897
C12_53 C 0.750000 0.4081(5) 0.6581(5)
H6_53 H 0.749999 0.388895 0.638897
C12_54 C 0.250000 0.3419(5) 0.5919(5)
H6_54 H 0.249999 0.361105 0.611103
C12_55 C 0.500000 0.9081(5) 0.0919(5)
H6_55 H 0.500001 0.888895 0.111103
C12_56 C 0.750000 0.9081(5) 0.1581(5)
H6_56 H 0.750001 0.888897 0.138895
C12_57 C 0.500000 0.4081(5) 0.5919(5)
H6_57 H 0.499999 0.388897 0.611105
C12_58 C -0.000000 0.3419(5) 0.6581(5)
H6_58 H -0.000001 0.361103 0.638895
C12_59 C 1.000000 0.3419(5) 0.6581(5)
H6_59 H 0.999999 0.361103 0.638895
C12_60 C 0.250000 0.8419(5) 0.0919(5)
H6_60 H 0.250001 0.861103 0.111105
loop_
_geom_bond_atom_site_label_1
_geom_bond_atom_site_label_2
_geom_bond_site_symmetry_1
_geom_bond_site_symmetry_2
Hf1 O1 1_555 1_555
O1 C3 1_555 1_555
O2 Hf1 1_555 1_555
C1 C2 1_555 1_555
C2 H1 1_555 1_555
C3 C1 1_555 1_555
O3 Hf1 1_555 1_555
O4 Hf1 1_555 1_555
C4 O3 1_555 1_555
H2 C4 1_555 1_555
O5 C7 1_555 1_555
C5 C2 1_555 1_555
C6 C5 1_555 1_555
H3 C6 1_555 1_555
C7 C5 1_555 1_555
O6 C10 1_555 1_555
C8 C6 1_555 1_555
C9 C1 1_555 1_555
H4 C9 1_555 1_555
C10 C8 1_555 1_555
O7 C10 1_555 1_555
O8 C3 1_555 1_555
O9 C7 1_555 1_555
O10 C4 1_555 1_555
Hf2 O2 1_555 1_555
O11 Hf1 1_555 1_555
Hf3 O4 1_555 1_555
O12 Hf1 1_555 1_555
O13 Hf3 1_555 1_555
C11 O13 1_555 1_555
H5 C11 1_555 1_555
O14 C11 1_555 1_555
O15 Hf1 1_555 1_555
C12 O15 1_555 1_555
H6 C12 1_555 1_555
O16 C12 1_555 1_555
Hf4 O7 1_555 1_555
Hf5 O9 1_555 1_555
Hf6 O11 1_555 1_555
Hf7 O2 1_555 1_555
Hf8 O5 1_555 1_555
Hf9 O6 1_555 1_555
O17 Hf2 1_555 1_555
O18 Hf3 1_555 1_555
O19 Hf2 1_555 1_555
O20 Hf1 1_555 1_555
O21 Hf3 1_555 1_555
O22 Hf3 1_555 1_555
O23 Hf2 1_555 1_555
O24 Hf2 1_555 1_555
O25 Hf3 1_555 1_555
O26 Hf2 1_555 1_555
O4 Hf7 1_555 1_555
C8 C9 1_555 1_555
O8 Hf3 1_555 1_555
O10 Hf2 1_555 1_555
Hf2 O11 1_555 1_555
Hf3 O12 1_555 1_555
O12 Hf6 1_555 1_555
O14 Hf6 1_555 1_555
O16 Hf6 1_555 1_555
Hf6 O21 1_555 1_555
Hf6 O26 1_555 1_555
Hf7 O22 1_555 1_555
Hf7 O23 1_555 1_555
Hf1_2 O1_2 1_555 1_555
O1_2 C3_2 1_555 1_555
O2_2 Hf1_2 1_555 1_555
C1_2 C2_2 1_555 1_555
C2_2 H1_2 1_555 1_555
C3_2 C1_2 1_555 1_555
O3_2 Hf1_2 1_555 1_555
O4_2 Hf1_2 1_555 1_555
C4_2 O3_2 1_555 1_555
H2_2 C4_2 1_555 1_555
O5_2 C7_2 1_555 1_555
C5_2 C2_2 1_555 1_555
C6_2 C5_2 1_555 1_555
H3_2 C6_2 1_555 1_555
C7_2 C5_2 1_555 1_555
O6_2 C10_2 1_555 1_555
C8_2 C6_2 1_555 1_555
C9_2 C1_2 1_555 1_555
H4_2 C9_2 1_555 1_555
C10_2 C8_2 1_555 1_555
O7_2 C10_2 1_555 1_555
O8_2 C3_2 1_555 1_555
O9_2 C7_2 1_555 1_555
O10_2 C4_2 1_555 1_555
Hf2_2 O2_2 1_555 1_555
O11_2 Hf1_2 1_555 1_555
Hf3_2 O4_2 1_555 1_555
O12_2 Hf1_2 1_555 1_555
O13_2 Hf3_2 1_555 1_555
C11_2 O13_2 1_555 1_555
H5_2 C11_2 1_555 1_555
O14_2 C11_2 1_555 1_555
O15_2 Hf1_2 1_555 1_555
C12_2 O15_2 1_555 1_555
H6_2 C12_2 1_555 1_555
O16_2 C12_2 1_555 1_555
Hf4_2 O7_2 1_555 1_555
Hf6_2 O11_2 1_555 1_555
Hf7_2 O2_2 1_555 1_555
Hf8_2 O5_2 1_555 1_555
O17_2 Hf2_2 1_555 1_555
O18_2 Hf3_2 1_555 1_555
O19_2 Hf2_2 1_555 1_555
O20_2 Hf1_2 1_555 1_555
O21_2 Hf3_2 1_555 1_555
O22_2 Hf3_2 1_555 1_555
O23_2 Hf2_2 1_555 1_555
O24_2 Hf2_2 1_555 1_555
O25_2 Hf3_2 1_555 1_555
O26_2 Hf2_2 1_555 1_555
O4_2 Hf7_2 1_555 1_555
C8_2 C9_2 1_555 1_555
O8_2 Hf3_2 1_555 1_555
O10_2 Hf2_2 1_555 1_555
Hf2_2 O11_2 1_555 1_555
Hf3_2 O12_2 1_555 1_555
O12_2 Hf6_2 1_555 1_555
O14_2 Hf6_2 1_555 1_555
O16_2 Hf6_2 1_555 1_555
Hf6_2 O21_2 1_555 1_555
Hf6_2 O26_2 1_555 1_555
Hf7_2 O22_2 1_555 1_555
Hf7_2 O23_2 1_555 1_555
Hf1_3 O1_3 1_555 1_555
O1_3 C3_3 1_555 1_555
C1_3 C2_3 1_555 1_555
C2_3 H1_3 1_555 1_555
C3_3 C1_3 1_555 1_555
O3_3 Hf1_3 1_555 1_555
O4_3 Hf1_3 1_555 1_555
C4_3 O3_3 1_555 1_555
H2_3 C4_3 1_555 1_555
O5_3 C7_3 1_555 1_555
C5_3 C2_3 1_555 1_555
C6_3 C5_3 1_555 1_555
H3_3 C6_3 1_555 1_555
C7_3 C5_3 1_555 1_555
O6_3 C10_3 1_555 1_555
C8_3 C6_3 1_555 1_555
C9_3 C1_3 1_555 1_555
H4_3 C9_3 1_555 1_555
C10_3 C8_3 1_555 1_555
O7_3 C10_3 1_555 1_555
O8_3 C3_3 1_555 1_555
O9_3 C7_3 1_555 1_555
O11_3 Hf1_3 1_555 1_555
Hf3_3 O4_3 1_555 1_555
O12_3 Hf1_3 1_555 1_555
O13_3 Hf3_3 1_555 1_555
C11_3 O13_3 1_555 1_555
H5_3 C11_3 1_555 1_555
O14_3 C11_3 1_555 1_555
O15_3 Hf1_3 1_555 1_555
C12_3 O15_3 1_555 1_555
H6_3 C12_3 1_555 1_555
O16_3 C12_3 1_555 1_555
Hf4_3 O7_3 1_555 1_555
Hf5_3 O9_3 1_555 1_555
Hf6_3 O11_3 1_555 1_555
Hf8_3 O5_3 1_555 1_555
Hf9_3 O6_3 1_555 1_555
O18_3 Hf3_3 1_555 1_555
O20_3 Hf1_3 1_555 1_555
O21_3 Hf3_3 1_555 1_555
O25_3 Hf3_3 1_555 1_555
C8_3 C9_3 1_555 1_555
O8_3 Hf3_3 1_555 1_555
Hf3_3 O12_3 1_555 1_555
O12_3 Hf6_3 1_555 1_555
O14_3 Hf6_3 1_555 1_555
O16_3 Hf6_3 1_555 1_555
Hf6_3 O21_3 1_555 1_555
H2_4 C4_4 1_555 1_555
O10_3 C4_4 1_555 1_555
Hf2_3 O2_3 1_555 1_555
Hf7_3 O2_3 1_555 1_555
O17_3 Hf2_3 1_555 1_555
O19_3 Hf2_3 1_555 1_555
O23_3 Hf2_3 1_555 1_555
O24_3 Hf2_3 1_555 1_555
O26_3 Hf2_3 1_555 1_555
O10_3 Hf2_3 1_555 1_555
Hf7_3 O22_3 1_555 1_555
Hf7_3 O23_3 1_555 1_555
O1_4 C3_4 1_555 1_555
C1_4 C2_4 1_555 1_555
C2_4 H1_4 1_555 1_555
C3_4 C1_4 1_555 1_555
O5_4 C7_4 1_555 1_555
C5_4 C2_4 1_555 1_555
C6_4 C5_4 1_555 1_555
H3_4 C6_4 1_555 1_555
C7_4 C5_4 1_555 1_555
O6_4 C10_4 1_555 1_555
C8_4 C6_4 1_555 1_555
C9_4 C1_4 1_555 1_555
H4_4 C9_4 1_555 1_555
C10_4 C8_4 1_555 1_555
O7_4 C10_4 1_555 1_555
O8_4 C3_4 1_555 1_555
O9_4 C7_4 1_555 1_555
Hf5_4 O9_4 1_555 1_555
Hf9_4 O6_4 1_555 1_555
O4_4 Hf7_4 1_555 1_555
C8_4 C9_4 1_555 1_555
Hf7_4 O23_4 1_555 1_555
O2_4 Hf1_4 1_555 1_555
O3_4 Hf1_4 1_555 1_555
C4_5 O3_4 1_555 1_555
H2_5 C4_5 1_555 1_555
O10_4 C4_5 1_555 1_555
Hf2_4 O2_4 1_555 1_555
O11_4 Hf1_4 1_555 1_555
O15_4 Hf1_4 1_555 1_555
C12_4 O15_4 1_555 1_555
H6_4 C12_4 1_555 1_555
O24_4 Hf2_4 1_555 1_555
O10_4 Hf2_4 1_555 1_555
Hf2_4 O11_4 1_555 1_555
O13_4 Hf3_4 1_555 1_555
C11_4 O13_4 1_555 1_555
H5_4 C11_4 1_555 1_555
O21_4 Hf3_4 1_555 1_555
O22_4 Hf3_4 1_555 1_555
O25_4 Hf3_4 1_555 1_555
H5_5 C11_5 1_555 1_555
O14_4 C11_5 1_555 1_555
H6_5 C12_5 1_555 1_555
O16_4 C12_5 1_555 1_555
O12_4 Hf6_4 1_555 1_555
O14_4 Hf6_4 1_555 1_555
O16_4 Hf6_4 1_555 1_555
Hf6_4 O26_4 1_555 1_555
Hf1_5 O1_5 1_555 1_555
O1_5 C3_5 1_555 1_555
O2_5 Hf1_5 1_555 1_555
C1_5 C2_5 1_555 1_555
C2_5 H1_5 1_555 1_555
C3_5 C1_5 1_555 1_555
O3_5 Hf1_5 1_555 1_555
O4_5 Hf1_5 1_555 1_555
C4_6 O3_5 1_555 1_555
H2_6 C4_6 1_555 1_555
O5_5 C7_5 1_555 1_555
C5_5 C2_5 1_555 1_555
C6_5 C5_5 1_555 1_555
H3_5 C6_5 1_555 1_555
C7_5 C5_5 1_555 1_555
O18 C10_5 1_555 1_555
C8_5 C6_5 1_555 1_555
C9_5 C1_5 1_555 1_555
H4_5 C9_5 1_555 1_555
C10_5 C8_5 1_555 1_555
O7_5 C10_5 1_555 1_555
O8_5 C3_5 1_555 1_555
O9_5 C7_5 1_555 1_555
O10_5 C4_6 1_555 1_555
Hf2_5 O2_5 1_555 1_555
O11_5 Hf1_5 1_555 1_555
Hf3_5 O4_5 1_555 1_555
O12_5 Hf1_5 1_555 1_555
O13_5 Hf3_5 1_555 1_555
C11_6 O13_5 1_555 1_555
H5_6 C11_6 1_555 1_555
O14_5 C11_6 1_555 1_555
O15_5 Hf1_5 1_555 1_555
C12_6 O15_5 1_555 1_555
H6_6 C12_6 1_555 1_555
O16_5 C12_6 1_555 1_555
Hf7 O7_5 1_555 1_555
Hf8 O9_5 1_555 1_555
Hf6_5 O11_5 1_555 1_555
Hf7_5 O2_5 1_555 1_555
Hf8_5 O5_5 1_555 1_555
O17_5 Hf2_5 1_555 1_555
O18_5 Hf3_5 1_555 1_555
O19_5 Hf2_5 1_555 1_555
O20_5 Hf1_5 1_555 1_555
O21_5 Hf3_5 1_555 1_555
O22_5 Hf3_5 1_555 1_555
O23_5 Hf2_5 1_555 1_555
O24_5 Hf2_5 1_555 1_555
O25_5 Hf3_5 1_555 1_555
O26_5 Hf2_5 1_555 1_555
O4_5 Hf7_5 1_555 1_555
C8_5 C9_5 1_555 1_555
O8_5 Hf3_5 1_555 1_555
O10_5 Hf2_5 1_555 1_555
Hf2_5 O11_5 1_555 1_555
Hf3_5 O12_5 1_555 1_555
O12_5 Hf6_5 1_555 1_555
O14_5 Hf6_5 1_555 1_555
O16_5 Hf6_5 1_555 1_555
Hf6_5 O21_5 1_555 1_555
Hf6_5 O26_5 1_555 1_555
Hf7_5 O22_5 1_555 1_555
Hf7_5 O23_5 1_555 1_555
Hf1_6 O1_6 1_555 1_555
O1_6 C3_6 1_555 1_555
O2_6 Hf1_6 1_555 1_555
C1_6 C2_6 1_555 1_555
C2_6 H1_6 1_555 1_555
C3_6 C1_6 1_555 1_555
O3_6 Hf1_6 1_555 1_555
O4_6 Hf1_6 1_555 1_555
C4_7 O3_6 1_555 1_555
H2_7 C4_7 1_555 1_555
O5_6 C7_6 1_555 1_555
C5_6 C2_6 1_555 1_555
C6_6 C5_6 1_555 1_555
H3_6 C6_6 1_555 1_555
C7_6 C5_6 1_555 1_555
O18_4 C10_6 1_555 1_555
C8_6 C6_6 1_555 1_555
C9_6 C1_6 1_555 1_555
H4_6 C9_6 1_555 1_555
C10_6 C8_6 1_555 1_555
O7_6 C10_6 1_555 1_555
O8_6 C3_6 1_555 1_555
O9_6 C7_6 1_555 1_555
O10_6 C4_7 1_555 1_555
Hf2_6 O2_6 1_555 1_555
O11_6 Hf1_6 1_555 1_555
Hf3_6 O4_6 1_555 1_555
O12_6 Hf1_6 1_555 1_555
O13_6 Hf3_6 1_555 1_555
C11_7 O13_6 1_555 1_555
H5_7 C11_7 1_555 1_555
O14_6 C11_7 1_555 1_555
O15_6 Hf1_6 1_555 1_555
C12_7 O15_6 1_555 1_555
H6_7 C12_7 1_555 1_555
O16_6 C12_7 1_555 1_555
Hf7_4 O7_6 1_555 1_555
Hf6_6 O11_6 1_555 1_555
Hf7_6 O2_6 1_555 1_555
Hf8_6 O5_6 1_555 1_555
O17_6 Hf2_6 1_555 1_555
O18_6 Hf3_6 1_555 1_555
O19_6 Hf2_6 1_555 1_555
O20_6 Hf1_6 1_555 1_555
O21_6 Hf3_6 1_555 1_555
O22_6 Hf3_6 1_555 1_555
O23_6 Hf2_6 1_555 1_555
O24_6 Hf2_6 1_555 1_555
O25_6 Hf3_6 1_555 1_555
O26_6 Hf2_6 1_555 1_555
O4_6 Hf7_6 1_555 1_555
C8_6 C9_6 1_555 1_555
O8_6 Hf3_6 1_555 1_555
O10_6 Hf2_6 1_555 1_555
Hf2_6 O11_6 1_555 1_555
Hf3_6 O12_6 1_555 1_555
O12_6 Hf6_6 1_555 1_555
O14_6 Hf6_6 1_555 1_555
O16_6 Hf6_6 1_555 1_555
Hf6_6 O21_6 1_555 1_555
Hf6_6 O26_6 1_555 1_555
Hf7_6 O22_6 1_555 1_555
Hf7_6 O23_6 1_555 1_555
Hf1_7 O1_7 1_555 1_555
O1_7 C3_7 1_555 1_555
C1_7 C2_7 1_555 1_555
C2_7 H1_7 1_555 1_555
C3_7 C1_7 1_555 1_555
O3_7 Hf1_7 1_555 1_555
O4_7 Hf1_7 1_555 1_555
C4_8 O3_7 1_555 1_555
H2_8 C4_8 1_555 1_555
O5_7 C7_7 1_555 1_555
C5_7 C2_7 1_555 1_555
C6_7 C5_7 1_555 1_555
H3_7 C6_7 1_555 1_555
C7_7 C5_7 1_555 1_555
O18_2 C10_7 1_555 1_555
C8_7 C6_7 1_555 1_555
C9_7 C1_7 1_555 1_555
H4_7 C9_7 1_555 1_555
C10_7 C8_7 1_555 1_555
O7_7 C10_7 1_555 1_555
O8_7 C3_7 1_555 1_555
O9_7 C7_7 1_555 1_555
O11_7 Hf1_7 1_555 1_555
Hf3_7 O4_7 1_555 1_555
O12_7 Hf1_7 1_555 1_555
O13_7 Hf3_7 1_555 1_555
C11_8 O13_7 1_555 1_555
H5_8 C11_8 1_555 1_555
O14_7 C11_8 1_555 1_555
O15_7 Hf1_7 1_555 1_555
C12_8 O15_7 1_555 1_555
H6_8 C12_8 1_555 1_555
O16_7 C12_8 1_555 1_555
Hf7_2 O7_7 1_555 1_555
Hf8_2 O9_7 1_555 1_555
Hf6_7 O11_7 1_555 1_555
Hf8_7 O5_7 1_555 1_555
O18_7 Hf3_7 1_555 1_555
O20_7 Hf1_7 1_555 1_555
O21_7 Hf3_7 1_555 1_555
O25_7 Hf3_7 1_555 1_555
C8_7 C9_7 1_555 1_555
O8_7 Hf3_7 1_555 1_555
Hf3_7 O12_7 1_555 1_555
O12_7 Hf6_7 1_555 1_555
O14_7 Hf6_7 1_555 1_555
O16_7 Hf6_7 1_555 1_555
Hf6_7 O21_7 1_555 1_555
H2_9 C4_9 1_555 1_555
O10_7 C4_9 1_555 1_555
Hf2_7 O2_7 1_555 1_555
Hf7_7 O2_7 1_555 1_555
O17_7 Hf2_7 1_555 1_555
O19_7 Hf2_7 1_555 1_555
O23_7 Hf2_7 1_555 1_555
O24_7 Hf2_7 1_555 1_555
O26_7 Hf2_7 1_555 1_555
O10_7 Hf2_7 1_555 1_555
Hf7_7 O22_7 1_555 1_555
Hf7_7 O23_7 1_555 1_555
O1_8 C3_8 1_555 1_555
C1_8 C2_8 1_555 1_555
C2_8 H1_8 1_555 1_555
C3_8 C1_8 1_555 1_555
O5_8 C7_8 1_555 1_555
C5_8 C2_8 1_555 1_555
C6_8 C5_8 1_555 1_555
H3_8 C6_8 1_555 1_555
C7_8 C5_8 1_555 1_555
O18_3 C10_8 1_555 1_555
C8_8 C6_8 1_555 1_555
C9_8 C1_8 1_555 1_555
H4_8 C9_8 1_555 1_555
C10_8 C8_8 1_555 1_555
O7_8 C10_8 1_555 1_555
O8_8 C3_8 1_555 1_555
O9_8 C7_8 1_555 1_555
Hf8_3 O9_8 1_555 1_555
O4_8 Hf7_8 1_555 1_555
C8_8 C9_8 1_555 1_555
Hf7_8 O23_8 1_555 1_555
O2_8 Hf1_8 1_555 1_555
O3_8 Hf1_8 1_555 1_555
C4_10 O3_8 1_555 1_555
H2_10 C4_10 1_555 1_555
O10_8 C4_10 1_555 1_555
Hf2_8 O2_8 1_555 1_555
O11_8 Hf1_8 1_555 1_555
O15_8 Hf1_8 1_555 1_555
C12_9 O15_8 1_555 1_555
H6_9 C12_9 1_555 1_555
O24_8 Hf2_8 1_555 1_555
O10_8 Hf2_8 1_555 1_555
Hf2_8 O11_8 1_555 1_555
O13_8 Hf3_8 1_555 1_555
C11_9 O13_8 1_555 1_555
H5_9 C11_9 1_555 1_555
O21_8 Hf3_8 1_555 1_555
O22_8 Hf3_8 1_555 1_555
O25_8 Hf3_8 1_555 1_555
H5_10 C11_10 1_555 1_555
O14_8 C11_10 1_555 1_555
H6_10 C12_10 1_555 1_555
O16_8 C12_10 1_555 1_555
O12_8 Hf6_8 1_555 1_555
O14_8 Hf6_8 1_555 1_555
O16_8 Hf6_8 1_555 1_555
Hf6_8 O26_8 1_555 1_555
Hf1_9 O1_9 1_555 1_555
O1_9 C3_9 1_555 1_555
O2_9 Hf1_9 1_555 1_555
C1_9 C2_9 1_555 1_555
C2_9 H1_9 1_555 1_555
C3_9 C1_9 1_555 1_555
O3_9 Hf1_9 1_555 1_555
O4_9 Hf1_9 1_555 1_555
C4_11 O3_9 1_555 1_555
H2_11 C4_11 1_555 1_555
O5_9 C7_9 1_555 1_555
C5_9 C2_9 1_555 1_555
C6_9 C5_9 1_555 1_555
H3_9 C6_9 1_555 1_555
C7_9 C5_9 1_555 1_555
O18_5 C10_9 1_555 1_555
C8_9 C6_9 1_555 1_555
C9_9 C1_9 1_555 1_555
H4_9 C9_9 1_555 1_555
C10_9 C8_9 1_555 1_555
O7_9 C10_9 1_555 1_555
O8_9 C3_9 1_555 1_555
O9_9 C7_9 1_555 1_555
O10_9 C4_11 1_555 1_555
Hf2_9 O2_9 1_555 1_555
O11_9 Hf1_9 1_555 1_555
Hf9 O4_9 1_555 1_555
O12_9 Hf1_9 1_555 1_555
O13_9 Hf9 1_555 1_555
C11_11 O13_9 1_555 1_555
H5_11 C11_11 1_555 1_555
O14_9 C11_11 1_555 1_555
O15_9 Hf1_9 1_555 1_555
C12_11 O15_9 1_555 1_555
H6_11 C12_11 1_555 1_555
O16_9 C12_11 1_555 1_555
Hf7_5 O7_9 1_555 1_555
Hf8_5 O9_9 1_555 1_555
Hf6_9 O11_9 1_555 1_555
Hf4 O2_9 1_555 1_555
Hf5 O5_9 1_555 1_555
O17_9 Hf2_9 1_555 1_555
O19_9 Hf2_9 1_555 1_555
O20_9 Hf1_9 1_555 1_555
O21_9 Hf9 1_555 1_555
O22_9 Hf9 1_555 1_555
O23_9 Hf2_9 1_555 1_555
O24_9 Hf2_9 1_555 1_555
O25_9 Hf9 1_555 1_555
O26_9 Hf2_9 1_555 1_555
O4_9 Hf4 1_555 1_555
C8_9 C9_9 1_555 1_555
O8_9 Hf9 1_555 1_555
O10_9 Hf2_9 1_555 1_555
Hf2_9 O11_9 1_555 1_555
Hf9 O12_9 1_555 1_555
O12_9 Hf6_9 1_555 1_555
O14_9 Hf6_9 1_555 1_555
O16_9 Hf6_9 1_555 1_555
Hf6_9 O21_9 1_555 1_555
Hf6_9 O26_9 1_555 1_555
Hf4 O22_9 1_555 1_555
Hf4 O23_9 1_555 1_555
Hf1_10 O1_10 1_555 1_555
O1_10 C3_10 1_555 1_555
O2_10 Hf1_10 1_555 1_555
C1_10 C2_10 1_555 1_555
C2_10 H1_10 1_555 1_555
C3_10 C1_10 1_555 1_555
O3_10 Hf1_10 1_555 1_555
O4_10 Hf1_10 1_555 1_555
C4_12 O3_10 1_555 1_555
H2_12 C4_12 1_555 1_555
O5_10 C7_10 1_555 1_555
C5_10 C2_10 1_555 1_555
C6_10 C5_10 1_555 1_555
H3_10 C6_10 1_555 1_555
C7_10 C5_10 1_555 1_555
O18_8 C10_10 1_555 1_555
C8_10 C6_10 1_555 1_555
C9_10 C1_10 1_555 1_555
H4_10 C9_10 1_555 1_555
C10_10 C8_10 1_555 1_555
O7_10 C10_10 1_555 1_555
O8_10 C3_10 1_555 1_555
O9_10 C7_10 1_555 1_555
O10_10 C4_12 1_555 1_555
Hf2_10 O2_10 1_555 1_555
O11_10 Hf1_10 1_555 1_555
Hf9_3 O4_10 1_555 1_555
O12_10 Hf1_10 1_555 1_555
O13_10 Hf9_3 1_555 1_555
C11_12 O13_10 1_555 1_555
H5_12 C11_12 1_555 1_555
O14_10 C11_12 1_555 1_555
O15_10 Hf1_10 1_555 1_555
C12_12 O15_10 1_555 1_555
H6_12 C12_12 1_555 1_555
O16_10 C12_12 1_555 1_555
Hf7_8 O7_10 1_555 1_555
Hf6_10 O11_10 1_555 1_555
Hf4_3 O2_10 1_555 1_555
Hf5_3 O5_10 1_555 1_555
O17_10 Hf2_10 1_555 1_555
O19_10 Hf2_10 1_555 1_555
O20_10 Hf1_10 1_555 1_555
O21_10 Hf9_3 1_555 1_555
O22_10 Hf9_3 1_555 1_555
O23_10 Hf2_10 1_555 1_555
O24_10 Hf2_10 1_555 1_555
O25_10 Hf9_3 1_555 1_555
O26_10 Hf2_10 1_555 1_555
O4_10 Hf4_3 1_555 1_555
C8_10 C9_10 1_555 1_555
O8_10 Hf9_3 1_555 1_555
O10_10 Hf2_10 1_555 1_555
Hf2_10 O11_10 1_555 1_555
Hf9_3 O12_10 1_555 1_555
O12_10 Hf6_10 1_555 1_555
O14_10 Hf6_10 1_555 1_555
O16_10 Hf6_10 1_555 1_555
Hf6_10 O21_10 1_555 1_555
Hf6_10 O26_10 1_555 1_555
Hf4_3 O22_10 1_555 1_555
Hf4_3 O23_10 1_555 1_555
Hf1_11 O1_11 1_555 1_555
O1_11 C3_11 1_555 1_555
C1_11 C2_11 1_555 1_555
C2_11 H1_11 1_555 1_555
C3_11 C1_11 1_555 1_555
O3_11 Hf1_11 1_555 1_555
O4_11 Hf1_11 1_555 1_555
C4_13 O3_11 1_555 1_555
H2_13 C4_13 1_555 1_555
O5_11 C7_11 1_555 1_555
C5_11 C2_11 1_555 1_555
C6_11 C5_11 1_555 1_555
H3_11 C6_11 1_555 1_555
C7_11 C5_11 1_555 1_555
O18_6 C10_11 1_555 1_555
C8_11 C6_11 1_555 1_555
C9_11 C1_11 1_555 1_555
H4_11 C9_11 1_555 1_555
C10_11 C8_11 1_555 1_555
O7_11 C10_11 1_555 1_555
O8_11 C3_11 1_555 1_555
O9_11 C7_11 1_555 1_555
O11_11 Hf1_11 1_555 1_555
Hf9_4 O4_11 1_555 1_555
O12_11 Hf1_11 1_555 1_555
O13_11 Hf9_4 1_555 1_555
C11_13 O13_11 1_555 1_555
H5_13 C11_13 1_555 1_555
O14_11 C11_13 1_555 1_555
O15_11 Hf1_11 1_555 1_555
C12_13 O15_11 1_555 1_555
H6_13 C12_13 1_555 1_555
O16_11 C12_13 1_555 1_555
Hf7_6 O7_11 1_555 1_555
Hf8_6 O9_11 1_555 1_555
Hf6_11 O11_11 1_555 1_555
Hf5_4 O5_11 1_555 1_555
O20_11 Hf1_11 1_555 1_555
O21_11 Hf9_4 1_555 1_555
O25_11 Hf9_4 1_555 1_555
C8_11 C9_11 1_555 1_555
O8_11 Hf9_4 1_555 1_555
Hf9_4 O12_11 1_555 1_555
O12_11 Hf6_11 1_555 1_555
O14_11 Hf6_11 1_555 1_555
O16_11 Hf6_11 1_555 1_555
Hf6_11 O21_11 1_555 1_555
H2_14 C4_14 1_555 1_555
O10_11 C4_14 1_555 1_555
Hf2_11 O2_11 1_555 1_555
Hf4_4 O2_11 1_555 1_555
O17_11 Hf2_11 1_555 1_555
O19_11 Hf2_11 1_555 1_555
O23_11 Hf2_11 1_555 1_555
O24_11 Hf2_11 1_555 1_555
O26_11 Hf2_11 1_555 1_555
O10_11 Hf2_11 1_555 1_555
Hf4_4 O22_11 1_555 1_555
Hf4_4 O23_11 1_555 1_555
O1_12 C3_12 1_555 1_555
C1_12 C2_12 1_555 1_555
C2_12 H1_12 1_555 1_555
C3_12 C1_12 1_555 1_555
O5_12 C7_12 1_555 1_555
C5_12 C2_12 1_555 1_555
C6_12 C5_12 1_555 1_555
H3_12 C6_12 1_555 1_555
C7_12 C5_12 1_555 1_555
O18_7 C10_12 1_555 1_555
C8_12 C6_12 1_555 1_555
C9_12 C1_12 1_555 1_555
H4_12 C9_12 1_555 1_555
C10_12 C8_12 1_555 1_555
O7_12 C10_12 1_555 1_555
O8_12 C3_12 1_555 1_555
O9_12 C7_12 1_555 1_555
Hf8_7 O9_12 1_555 1_555
O4_12 Hf4_2 1_555 1_555
C8_12 C9_12 1_555 1_555
Hf4_2 O23_12 1_555 1_555
O13_12 Hf9_2 1_555 1_555
C11_14 O13_12 1_555 1_555
H5_14 C11_14 1_555 1_555
O21_12 Hf9_2 1_555 1_555
O22_12 Hf9_2 1_555 1_555
O25_12 Hf9_2 1_555 1_555
O2_12 Hf1_12 1_555 1_555
O3_12 Hf1_12 1_555 1_555
C4_15 O3_12 1_555 1_555
H2_15 C4_15 1_555 1_555
O10_12 C4_15 1_555 1_555
Hf2_12 O2_12 1_555 1_555
O11_12 Hf1_12 1_555 1_555
O15_12 Hf1_12 1_555 1_555
C12_14 O15_12 1_555 1_555
H6_14 C12_14 1_555 1_555
O24_12 Hf2_12 1_555 1_555
O10_12 Hf2_12 1_555 1_555
Hf2_12 O11_12 1_555 1_555
H5_15 C11_15 1_555 1_555
O14_12 C11_15 1_555 1_555
H6_15 C12_15 1_555 1_555
O16_12 C12_15 1_555 1_555
O12_12 Hf6_12 1_555 1_555
O14_12 Hf6_12 1_555 1_555
O16_12 Hf6_12 1_555 1_555
Hf6_12 O26_12 1_555 1_555
O17 C3_13 1_555 1_555
C1_13 C2_13 1_555 1_555
C2_13 H1_13 1_555 1_555
C3_13 C1_13 1_555 1_555
O5_13 C7_13 1_555 1_555
C5_13 C2_13 1_555 1_555
C6_13 C5_13 1_555 1_555
H3_13 C6_13 1_555 1_555
C7_13 C5_13 1_555 1_555
O6_5 C10_13 1_555 1_555
C8_13 C6_13 1_555 1_555
C9_13 C1_13 1_555 1_555
H4_13 C9_13 1_555 1_555
C10_13 C8_13 1_555 1_555
O7_13 C10_13 1_555 1_555
O8_13 C3_13 1_555 1_555
O9_13 C7_13 1_555 1_555
Hf3_9 O26 1_555 1_555
O13_13 Hf3_9 1_555 1_555
C11_16 O13_13 1_555 1_555
H5_16 C11_16 1_555 1_555
O14_13 C11_16 1_555 1_555
C12_16 O24 1_555 1_555
H6_16 C12_16 1_555 1_555
O16_13 C12_16 1_555 1_555
Hf6_8 O7_13 1_555 1_555
Hf8_9 O5_13 1_555 1_555
O18_9 Hf3_9 1_555 1_555
O22 Hf3_9 1_555 1_555
O21 Hf3_9 1_555 1_555
O25_13 Hf3_9 1_555 1_555
C8_13 C9_13 1_555 1_555
O8_13 Hf3_9 1_555 1_555
Hf3_9 O23 1_555 1_555
O14_13 Hf7 1_555 1_555
O16_13 Hf7 1_555 1_555
O17_2 C3_14 1_555 1_555
C1_14 C2_14 1_555 1_555
C2_14 H1_14 1_555 1_555
C3_14 C1_14 1_555 1_555
O5_14 C7_14 1_555 1_555
C5_14 C2_14 1_555 1_555
C6_14 C5_14 1_555 1_555
H3_14 C6_14 1_555 1_555
C7_14 C5_14 1_555 1_555
O6_6 C10_14 1_555 1_555
C8_14 C6_14 1_555 1_555
C9_14 C1_14 1_555 1_555
H4_14 C9_14 1_555 1_555
C10_14 C8_14 1_555 1_555
O7_14 C10_14 1_555 1_555
O8_14 C3_14 1_555 1_555
O9_14 C7_14 1_555 1_555
Hf3_10 O26_2 1_555 1_555
O13_14 Hf3_10 1_555 1_555
C11_17 O13_14 1_555 1_555
H5_17 C11_17 1_555 1_555
O14_14 C11_17 1_555 1_555
C12_17 O24_2 1_555 1_555
H6_17 C12_17 1_555 1_555
O16_14 C12_17 1_555 1_555
Hf6_6 O7_14 1_555 1_555
Hf5_6 O9_14 1_555 1_555
Hf8_10 O5_14 1_555 1_555
Hf9_6 O6_6 1_555 1_555
O18_10 Hf3_10 1_555 1_555
O22_2 Hf3_10 1_555 1_555
O21_2 Hf3_10 1_555 1_555
O25_14 Hf3_10 1_555 1_555
C8_14 C9_14 1_555 1_555
O8_14 Hf3_10 1_555 1_555
Hf3_10 O23_2 1_555 1_555
O14_14 Hf7_2 1_555 1_555
O16_14 Hf7_2 1_555 1_555
H5_18 C11_18 1_555 1_555
O14_15 C11_18 1_555 1_555
H6_18 C12_18 1_555 1_555
O16_15 C12_18 1_555 1_555
O14_15 Hf7_4 1_555 1_555
O16_15 Hf7_4 1_555 1_555
C12_19 O24_4 1_555 1_555
H6_19 C12_19 1_555 1_555
O13_15 Hf3_11 1_555 1_555
C11_19 O13_15 1_555 1_555
H5_19 C11_19 1_555 1_555
O22_4 Hf3_11 1_555 1_555
O21_4 Hf3_11 1_555 1_555
O25_15 Hf3_11 1_555 1_555
O17_4 C3_15 1_555 1_555
C1_15 C2_15 1_555 1_555
C2_15 H1_15 1_555 1_555
C3_15 C1_15 1_555 1_555
O5_15 C7_15 1_555 1_555
C5_15 C2_15 1_555 1_555
C6_15 C5_15 1_555 1_555
H3_15 C6_15 1_555 1_555
C7_15 C5_15 1_555 1_555
O6_7 C10_15 1_555 1_555
C8_15 C6_15 1_555 1_555
C9_15 C1_15 1_555 1_555
H4_15 C9_15 1_555 1_555
C10_15 C8_15 1_555 1_555
O7_15 C10_15 1_555 1_555
O8_15 C3_15 1_555 1_555
O9_15 C7_15 1_555 1_555
Hf5_7 O9_15 1_555 1_555
Hf9_7 O6_7 1_555 1_555
C8_15 C9_15 1_555 1_555
O17_3 C3_16 1_555 1_555
C1_16 C2_16 1_555 1_555
C2_16 H1_16 1_555 1_555
C3_16 C1_16 1_555 1_555
O5_16 C7_16 1_555 1_555
C5_16 C2_16 1_555 1_555
C6_16 C5_16 1_555 1_555
H3_16 C6_16 1_555 1_555
C7_16 C5_16 1_555 1_555
O6_8 C10_16 1_555 1_555
C8_16 C6_16 1_555 1_555
C9_16 C1_16 1_555 1_555
H4_16 C9_16 1_555 1_555
C10_16 C8_16 1_555 1_555
O7_16 C10_16 1_555 1_555
O8_16 C3_16 1_555 1_555
O9_16 C7_16 1_555 1_555
Hf3_12 O26_3 1_555 1_555
O13_16 Hf3_12 1_555 1_555
C11_20 O13_16 1_555 1_555
H5_20 C11_20 1_555 1_555
O14_16 C11_20 1_555 1_555
C12_20 O24_3 1_555 1_555
H6_20 C12_20 1_555 1_555
O16_16 C12_20 1_555 1_555
Hf6_5 O7_16 1_555 1_555
Hf5_8 O9_16 1_555 1_555
Hf8_12 O5_16 1_555 1_555
Hf9_8 O6_8 1_555 1_555
O18_12 Hf3_12 1_555 1_555
O22_3 Hf3_12 1_555 1_555
O25_16 Hf3_12 1_555 1_555
C8_16 C9_16 1_555 1_555
O8_16 Hf3_12 1_555 1_555
Hf3_12 O23_3 1_555 1_555
O14_16 Hf7_3 1_555 1_555
O16_16 Hf7_3 1_555 1_555
O17_11 C3_17 1_555 1_555
C1_17 C2_17 1_555 1_555
C2_17 H1_17 1_555 1_555
C3_17 C1_17 1_555 1_555
O5_17 C7_17 1_555 1_555
C5_17 C2_17 1_555 1_555
C6_17 C5_17 1_555 1_555
H3_17 C6_17 1_555 1_555
C7_17 C5_17 1_555 1_555
O18_9 C10_17 1_555 1_555
C8_17 C6_17 1_555 1_555
C9_17 C1_17 1_555 1_555
H4_17 C9_17 1_555 1_555
C10_17 C8_17 1_555 1_555
O7_17 C10_17 1_555 1_555
O8_17 C3_17 1_555 1_555
O9_17 C7_17 1_555 1_555
Hf3_13 O26_11 1_555 1_555
O13_17 Hf3_13 1_555 1_555
C11_21 O13_17 1_555 1_555
H5_21 C11_21 1_555 1_555
O14_17 C11_21 1_555 1_555
C12_21 O24_11 1_555 1_555
H6_21 C12_21 1_555 1_555
O16_17 C12_21 1_555 1_555
Hf6 O7_17 1_555 1_555
Hf8_9 O9_17 1_555 1_555
Hf8_13 O5_17 1_555 1_555
O18_13 Hf3_13 1_555 1_555
O22_11 Hf3_13 1_555 1_555
O25_17 Hf3_13 1_555 1_555
C8_17 C9_17 1_555 1_555
O8_17 Hf3_13 1_555 1_555
Hf3_13 O23_11 1_555 1_555
O14_17 Hf4_4 1_555 1_555
O16_17 Hf4_4 1_555 1_555
H5_22 C11_22 1_555 1_555
O14_18 C11_22 1_555 1_555
H6_22 C12_22 1_555 1_555
O16_18 C12_22 1_555 1_555
O14_18 Hf4_2 1_555 1_555
O16_18 Hf4_2 1_555 1_555
O13_18 Hf3_14 1_555 1_555
C11_23 O13_18 1_555 1_555
H5_23 C11_23 1_555 1_555
O22_12 Hf3_14 1_555 1_555
O21_12 Hf3_14 1_555 1_555
O25_18 Hf3_14 1_555 1_555
C12_23 O24_12 1_555 1_555
H6_23 C12_23 1_555 1_555
O17_12 C3_18 1_555 1_555
C1_18 C2_18 1_555 1_555
C2_18 H1_18 1_555 1_555
C3_18 C1_18 1_555 1_555
O5_18 C7_18 1_555 1_555
C5_18 C2_18 1_555 1_555
C6_18 C5_18 1_555 1_555
H3_18 C6_18 1_555 1_555
C7_18 C5_18 1_555 1_555
O18_12 C10_18 1_555 1_555
C8_18 C6_18 1_555 1_555
C9_18 C1_18 1_555 1_555
H4_18 C9_18 1_555 1_555
C10_18 C8_18 1_555 1_555
O7_18 C10_18 1_555 1_555
O8_18 C3_18 1_555 1_555
O9_18 C7_18 1_555 1_555
Hf8_12 O9_18 1_555 1_555
C8_18 C9_18 1_555 1_555
O17_10 C3_19 1_555 1_555
C1_19 C2_19 1_555 1_555
C2_19 H1_19 1_555 1_555
C3_19 C1_19 1_555 1_555
O5_19 C7_19 1_555 1_555
C5_19 C2_19 1_555 1_555
C6_19 C5_19 1_555 1_555
H3_19 C6_19 1_555 1_555
C7_19 C5_19 1_555 1_555
O18_10 C10_19 1_555 1_555
C8_19 C6_19 1_555 1_555
C9_19 C1_19 1_555 1_555
H4_19 C9_19 1_555 1_555
C10_19 C8_19 1_555 1_555
O7_19 C10_19 1_555 1_555
O8_19 C3_19 1_555 1_555
O9_19 C7_19 1_555 1_555
Hf3_15 O26_10 1_555 1_555
O13_19 Hf3_15 1_555 1_555
C11_24 O13_19 1_555 1_555
H5_24 C11_24 1_555 1_555
O14_19 C11_24 1_555 1_555
C12_24 O24_10 1_555 1_555
H6_24 C12_24 1_555 1_555
O16_19 C12_24 1_555 1_555
Hf6_2 O7_19 1_555 1_555
Hf8_10 O9_19 1_555 1_555
Hf8_15 O5_19 1_555 1_555
O18_15 Hf3_15 1_555 1_555
O22_10 Hf3_15 1_555 1_555
O21_10 Hf3_15 1_555 1_555
O25_19 Hf3_15 1_555 1_555
C8_19 C9_19 1_555 1_555
O8_19 Hf3_15 1_555 1_555
Hf3_15 O23_10 1_555 1_555
O14_19 Hf4_3 1_555 1_555
O16_19 Hf4_3 1_555 1_555
O17_9 C3_20 1_555 1_555
C1_20 C2_20 1_555 1_555
C2_20 H1_20 1_555 1_555
C3_20 C1_20 1_555 1_555
O5_20 C7_20 1_555 1_555
C5_20 C2_20 1_555 1_555
C6_20 C5_20 1_555 1_555
H3_20 C6_20 1_555 1_555
C7_20 C5_20 1_555 1_555
O18_11 C10_20 1_555 1_555
C8_20 C6_20 1_555 1_555
C9_20 C1_20 1_555 1_555
H4_20 C9_20 1_555 1_555
C10_20 C8_20 1_555 1_555
O7_20 C10_20 1_555 1_555
O8_20 C3_20 1_555 1_555
O9_20 C7_20 1_555 1_555
Hf3_16 O26_9 1_555 1_555
O13_20 Hf3_16 1_555 1_555
C11_25 O13_20 1_555 1_555
H5_25 C11_25 1_555 1_555
O14_20 C11_25 1_555 1_555
C12_25 O24_9 1_555 1_555
H6_25 C12_25 1_555 1_555
O16_20 C12_25 1_555 1_555
Hf6_4 O7_20 1_555 1_555
Hf8_16 O5_20 1_555 1_555
O18_16 Hf3_16 1_555 1_555
O22_9 Hf3_16 1_555 1_555
O21_9 Hf3_16 1_555 1_555
O25_20 Hf3_16 1_555 1_555
C8_20 C9_20 1_555 1_555
O8_20 Hf3_16 1_555 1_555
Hf3_16 O23_9 1_555 1_555
O14_20 Hf4 1_555 1_555
O16_20 Hf4 1_555 1_555
H5_26 C11_26 1_555 1_555
O14_21 C11_26 1_555 1_555
H6_26 C12_26 1_555 1_555
O16_21 C12_26 1_555 1_555
O14_21 Hf7_8 1_555 1_555
O16_21 Hf7_8 1_555 1_555
C12_27 O24_8 1_555 1_555
H6_27 C12_27 1_555 1_555
O13_21 Hf9_5 1_555 1_555
C11_27 O13_21 1_555 1_555
H5_27 C11_27 1_555 1_555
O22_8 Hf9_5 1_555 1_555
O21_8 Hf9_5 1_555 1_555
O25_21 Hf9_5 1_555 1_555
O17_8 C3_21 1_555 1_555
C1_21 C2_21 1_555 1_555
C2_21 H1_21 1_555 1_555
C3_21 C1_21 1_555 1_555
O5_21 C7_21 1_555 1_555
C5_21 C2_21 1_555 1_555
C6_21 C5_21 1_555 1_555
H3_21 C6_21 1_555 1_555
C7_21 C5_21 1_555 1_555
O18_13 C10_21 1_555 1_555
C8_21 C6_21 1_555 1_555
C9_21 C1_21 1_555 1_555
H4_21 C9_21 1_555 1_555
C10_21 C8_21 1_555 1_555
O7_21 C10_21 1_555 1_555
O8_21 C3_21 1_555 1_555
O9_21 C7_21 1_555 1_555
Hf8_13 O9_21 1_555 1_555
C8_21 C9_21 1_555 1_555
O17_7 C3_22 1_555 1_555
C1_22 C2_22 1_555 1_555
C2_22 H1_22 1_555 1_555
C3_22 C1_22 1_555 1_555
O5_22 C7_22 1_555 1_555
C5_22 C2_22 1_555 1_555
C6_22 C5_22 1_555 1_555
H3_22 C6_22 1_555 1_555
C7_22 C5_22 1_555 1_555
O18_16 C10_22 1_555 1_555
C8_22 C6_22 1_555 1_555
C9_22 C1_22 1_555 1_555
H4_22 C9_22 1_555 1_555
C10_22 C8_22 1_555 1_555
O7_22 C10_22 1_555 1_555
O8_22 C3_22 1_555 1_555
O9_22 C7_22 1_555 1_555
Hf9_7 O26_7 1_555 1_555
O13_22 Hf9_7 1_555 1_555
C11_28 O13_22 1_555 1_555
H5_28 C11_28 1_555 1_555
O14_22 C11_28 1_555 1_555
C12_28 O24_7 1_555 1_555
H6_28 C12_28 1_555 1_555
O16_22 C12_28 1_555 1_555
Hf6_9 O7_22 1_555 1_555
Hf8_16 O9_22 1_555 1_555
Hf5_7 O5_22 1_555 1_555
O22_7 Hf9_7 1_555 1_555
O25_22 Hf9_7 1_555 1_555
C8_22 C9_22 1_555 1_555
O8_22 Hf9_7 1_555 1_555
Hf9_7 O23_7 1_555 1_555
O14_22 Hf7_7 1_555 1_555
O16_22 Hf7_7 1_555 1_555
O17_5 C3_23 1_555 1_555
C1_23 C2_23 1_555 1_555
C2_23 H1_23 1_555 1_555
C3_23 C1_23 1_555 1_555
O5_23 C7_23 1_555 1_555
C5_23 C2_23 1_555 1_555
C6_23 C5_23 1_555 1_555
H3_23 C6_23 1_555 1_555
C7_23 C5_23 1_555 1_555
O18_14 C10_23 1_555 1_555
C8_23 C6_23 1_555 1_555
C9_23 C1_23 1_555 1_555
H4_23 C9_23 1_555 1_555
C10_23 C8_23 1_555 1_555
O7_23 C10_23 1_555 1_555
O8_23 C3_23 1_555 1_555
O9_23 C7_23 1_555 1_555
Hf9_8 O26_5 1_555 1_555
O13_23 Hf9_8 1_555 1_555
C11_29 O13_23 1_555 1_555
H5_29 C11_29 1_555 1_555
O14_23 C11_29 1_555 1_555
C12_29 O24_5 1_555 1_555
H6_29 C12_29 1_555 1_555
O16_23 C12_29 1_555 1_555
Hf6_12 O7_23 1_555 1_555
Hf5_8 O5_23 1_555 1_555
O22_5 Hf9_8 1_555 1_555
O21_5 Hf9_8 1_555 1_555
O25_23 Hf9_8 1_555 1_555
C8_23 C9_23 1_555 1_555
O8_23 Hf9_8 1_555 1_555
Hf9_8 O23_5 1_555 1_555
O14_23 Hf7_5 1_555 1_555
O16_23 Hf7_5 1_555 1_555
O17_6 C3_24 1_555 1_555
C1_24 C2_24 1_555 1_555
C2_24 H1_24 1_555 1_555
C3_24 C1_24 1_555 1_555
O5_24 C7_24 1_555 1_555
C5_24 C2_24 1_555 1_555
C6_24 C5_24 1_555 1_555
H3_24 C6_24 1_555 1_555
C7_24 C5_24 1_555 1_555
O18_15 C10_24 1_555 1_555
C8_24 C6_24 1_555 1_555
C9_24 C1_24 1_555 1_555
H4_24 C9_24 1_555 1_555
C10_24 C8_24 1_555 1_555
O7_24 C10_24 1_555 1_555
O8_24 C3_24 1_555 1_555
O9_24 C7_24 1_555 1_555
Hf9_6 O26_6 1_555 1_555
O13_24 Hf9_6 1_555 1_555
C11_30 O13_24 1_555 1_555
H5_30 C11_30 1_555 1_555
O14_24 C11_30 1_555 1_555
C12_30 O24_6 1_555 1_555
H6_30 C12_30 1_555 1_555
O16_24 C12_30 1_555 1_555
Hf6_10 O7_24 1_555 1_555
Hf8_15 O9_24 1_555 1_555
Hf5_6 O5_24 1_555 1_555
O22_6 Hf9_6 1_555 1_555
O21_6 Hf9_6 1_555 1_555
O25_24 Hf9_6 1_555 1_555
C8_24 C9_24 1_555 1_555
O8_24 Hf9_6 1_555 1_555
Hf9_6 O23_6 1_555 1_555
O14_24 Hf7_6 1_555 1_555
O16_24 Hf7_6 1_555 1_555
Hf4_3 O1_13 1_555 1_555
O1_13 C3_25 1_555 1_555
C1_25 C2_25 1_555 1_555
C2_25 H1_25 1_555 1_555
C3_25 C1_25 1_555 1_555
O5_25 C7_25 1_555 1_555
C5_25 C2_25 1_555 1_555
C6_25 C5_25 1_555 1_555
H3_25 C6_25 1_555 1_555
C7_25 C5_25 1_555 1_555
O6_9 C10_25 1_555 1_555
C8_25 C6_25 1_555 1_555
C9_25 C1_25 1_555 1_555
H4_25 C9_25 1_555 1_555
C10_25 C8_25 1_555 1_555
O20_3 C10_25 1_555 1_555
O20_10 C3_25 1_555 1_555
O20_8 C7_25 1_555 1_555
Hf7_8 O5_25 1_555 1_555
C8_25 C9_25 1_555 1_555
O1_14 C3_26 1_555 1_555
C1_26 C2_26 1_555 1_555
C2_26 H1_26 1_555 1_555
C3_26 C1_26 1_555 1_555
O5_26 C7_26 1_555 1_555
C5_26 C2_26 1_555 1_555
C6_26 C5_26 1_555 1_555
H3_26 C6_26 1_555 1_555
C7_26 C5_26 1_555 1_555
O6_10 C10_26 1_555 1_555
C8_26 C6_26 1_555 1_555
C9_26 C1_26 1_555 1_555
H4_26 C9_26 1_555 1_555
C10_26 C8_26 1_555 1_555
O20_4 C10_26 1_555 1_555
O20_11 C3_26 1_555 1_555
O20_6 C7_26 1_555 1_555
Hf7_6 O5_26 1_555 1_555
Hf7_4 O6_10 1_555 1_555
C8_26 C9_26 1_555 1_555
Hf4 O1_15 1_555 1_555
O1_15 C3_27 1_555 1_555
C1_27 C2_27 1_555 1_555
C2_27 H1_27 1_555 1_555
C3_27 C1_27 1_555 1_555
O5_27 C7_27 1_555 1_555
C5_27 C2_27 1_555 1_555
C6_27 C5_27 1_555 1_555
H3_27 C6_27 1_555 1_555
C7_27 C5_27 1_555 1_555
O6_11 C10_27 1_555 1_555
C8_27 C6_27 1_555 1_555
C9_27 C1_27 1_555 1_555
H4_27 C9_27 1_555 1_555
C10_27 C8_27 1_555 1_555
O20 C10_27 1_555 1_555
O20_9 C3_27 1_555 1_555
O20_5 C7_27 1_555 1_555
Hf7_5 O5_27 1_555 1_555
Hf7 O6_11 1_555 1_555
C8_27 C9_27 1_555 1_555
Hf4_2 O1_16 1_555 1_555
O1_16 C3_28 1_555 1_555
C1_28 C2_28 1_555 1_555
C2_28 H1_28 1_555 1_555
C3_28 C1_28 1_555 1_555
O5_28 C7_28 1_555 1_555
C5_28 C2_28 1_555 1_555
C6_28 C5_28 1_555 1_555
H3_28 C6_28 1_555 1_555
C7_28 C5_28 1_555 1_555
O6_12 C10_28 1_555 1_555
C8_28 C6_28 1_555 1_555
C9_28 C1_28 1_555 1_555
H4_28 C9_28 1_555 1_555
C10_28 C8_28 1_555 1_555
O20_2 C10_28 1_555 1_555
O20_12 C3_28 1_555 1_555
O20_7 C7_28 1_555 1_555
Hf7_2 O6_12 1_555 1_555
C8_28 C9_28 1_555 1_555
O2_13 Hf5_3 1_555 1_555
O3_13 Hf5_3 1_555 1_555
O4_13 Hf5_3 1_555 1_555
C4_16 O3_13 1_555 1_555
H2_16 C4_16 1_555 1_555
O10_13 C4_16 1_555 1_555
Hf8_11 O2_13 1_555 1_555
O11_13 Hf5_3 1_555 1_555
O15_13 Hf5_3 1_555 1_555
C12_31 O15_13 1_555 1_555
H6_31 C12_31 1_555 1_555
Hf8_3 O2_13 1_555 1_555
O23_13 Hf8_11 1_555 1_555
O24_13 Hf8_11 1_555 1_555
O4_13 Hf8_3 1_555 1_555
O10_13 Hf8_11 1_555 1_555
Hf8_11 O11_13 1_555 1_555
Hf8_3 O23_13 1_555 1_555
O13_25 Hf8_8 1_555 1_555
C11_31 O13_25 1_555 1_555
H5_31 C11_31 1_555 1_555
O14_25 C11_31 1_555 1_555
H6_32 C12_32 1_555 1_555
O16_25 C12_32 1_555 1_555
O21_13 Hf8_8 1_555 1_555
O22_13 Hf8_8 1_555 1_555
O25_25 Hf8_8 1_555 1_555
Hf8_8 O12_13 1_555 1_555
O12_13 Hf8_16 1_555 1_555
O14_25 Hf8_16 1_555 1_555
O16_25 Hf8_16 1_555 1_555
Hf8_16 O21_13 1_555 1_555
Hf8_16 O26_13 1_555 1_555
Hf8_7 O4_14 1_555 1_555
O13_26 Hf8_7 1_555 1_555
C11_32 O13_26 1_555 1_555
H5_32 C11_32 1_555 1_555
O21_14 Hf8_7 1_555 1_555
O22_14 Hf8_7 1_555 1_555
O25_26 Hf8_7 1_555 1_555
O4_14 Hf8_2 1_555 1_555
Hf8_2 O22_14 1_555 1_555
Hf8_2 O23_14 1_555 1_555
O2_14 Hf5_2 1_555 1_555
O3_14 Hf5_2 1_555 1_555
C4_17 O3_14 1_555 1_555
H2_17 C4_17 1_555 1_555
O10_14 C4_17 1_555 1_555
Hf8_9 O2_14 1_555 1_555
O11_14 Hf5_2 1_555 1_555
O12_14 Hf5_2 1_555 1_555
H5_33 C11_33 1_555 1_555
O14_26 C11_33 1_555 1_555
O15_14 Hf5_2 1_555 1_555
C12_33 O15_14 1_555 1_555
H6_33 C12_33 1_555 1_555
O16_26 C12_33 1_555 1_555
Hf8_13 O11_14 1_555 1_555
O24_14 Hf8_9 1_555 1_555
O26_14 Hf8_9 1_555 1_555
O10_14 Hf8_9 1_555 1_555
Hf8_9 O11_14 1_555 1_555
O12_14 Hf8_13 1_555 1_555
O14_26 Hf8_13 1_555 1_555
O16_26 Hf8_13 1_555 1_555
Hf8_13 O26_14 1_555 1_555
O3_15 Hf5_4 1_555 1_555
O4_15 Hf5_4 1_555 1_555
C4_18 O3_15 1_555 1_555
H2_18 C4_18 1_555 1_555
O11_15 Hf5_4 1_555 1_555
Hf8_6 O4_15 1_555 1_555
O12_15 Hf5_4 1_555 1_555
O13_27 Hf8_6 1_555 1_555
C11_34 O13_27 1_555 1_555
H5_34 C11_34 1_555 1_555
O14_27 C11_34 1_555 1_555
O15_15 Hf5_4 1_555 1_555
C12_34 O15_15 1_555 1_555
H6_34 C12_34 1_555 1_555
O16_27 C12_34 1_555 1_555
Hf8_14 O11_15 1_555 1_555
O21_15 Hf8_6 1_555 1_555
O25_27 Hf8_6 1_555 1_555
Hf8_6 O12_15 1_555 1_555
O12_15 Hf8_14 1_555 1_555
O14_27 Hf8_14 1_555 1_555
O16_27 Hf8_14 1_555 1_555
Hf8_14 O21_15 1_555 1_555
H2_19 C4_19 1_555 1_555
O10_15 C4_19 1_555 1_555
Hf8_12 O2_15 1_555 1_555
Hf8_4 O2_15 1_555 1_555
O23_15 Hf8_12 1_555 1_555
O24_15 Hf8_12 1_555 1_555
O26_15 Hf8_12 1_555 1_555
O10_15 Hf8_12 1_555 1_555
Hf8_4 O22_15 1_555 1_555
Hf8_4 O23_15 1_555 1_555
O2_16 Hf5 1_555 1_555
O3_16 Hf5 1_555 1_555
O4_16 Hf5 1_555 1_555
C4_20 O3_16 1_555 1_555
H2_20 C4_20 1_555 1_555
O10_16 C4_20 1_555 1_555
Hf8_10 O2_16 1_555 1_555
O11_16 Hf5 1_555 1_555
Hf8_5 O4_16 1_555 1_555
O12_16 Hf5 1_555 1_555
O13_28 Hf8_5 1_555 1_555
C11_35 O13_28 1_555 1_555
H5_35 C11_35 1_555 1_555
O14_28 C11_35 1_555 1_555
O15_16 Hf5 1_555 1_555
C12_35 O15_16 1_555 1_555
H6_35 C12_35 1_555 1_555
O16_28 C12_35 1_555 1_555
Hf8_15 O11_16 1_555 1_555
Hf8 O2_16 1_555 1_555
O21_16 Hf8_5 1_555 1_555
O22_16 Hf8_5 1_555 1_555
O23_16 Hf8_10 1_555 1_555
O24_16 Hf8_10 1_555 1_555
O25_28 Hf8_5 1_555 1_555
O26_16 Hf8_10 1_555 1_555
O4_16 Hf8 1_555 1_555
O10_16 Hf8_10 1_555 1_555
Hf8_10 O11_16 1_555 1_555
Hf8_5 O12_16 1_555 1_555
O12_16 Hf8_15 1_555 1_555
O14_28 Hf8_15 1_555 1_555
O16_28 Hf8_15 1_555 1_555
Hf8_15 O21_16 1_555 1_555
Hf8_15 O26_16 1_555 1_555
Hf8 O22_16 1_555 1_555
Hf8 O23_16 1_555 1_555
C12_36 O25_3 1_555 1_555
H6_36 C12_36 1_555 1_555
H6_37 C12_37 1_555 1_555
O25_16 C12_37 1_555 1_555
C12_38 O25 1_555 1_555
H6_38 C12_38 1_555 1_555
O25_13 C12_38 1_555 1_555
O17_14 Hf6 1_555 1_555
C12_39 O25_2 1_555 1_555
H6_39 C12_39 1_555 1_555
O25_14 C12_39 1_555 1_555
O17_15 Hf6_2 1_555 1_555
C12_40 O25_4 1_555 1_555
H6_40 C12_40 1_555 1_555
O25_15 C12_40 1_555 1_555
O17_16 Hf6_4 1_555 1_555
C12_41 O25_19 1_555 1_555
H6_41 C12_41 1_555 1_555
O25_10 C12_41 1_555 1_555
O18_17 Hf6_10 1_555 1_555
H6_42 C12_42 1_555 1_555
O25_11 C12_42 1_555 1_555
C12_43 O25_17 1_555 1_555
H6_43 C12_43 1_555 1_555
C12_44 O25_18 1_555 1_555
H6_44 C12_44 1_555 1_555
O25_12 C12_44 1_555 1_555
O18_19 Hf6_12 1_555 1_555
C12_45 O25_20 1_555 1_555
H6_45 C12_45 1_555 1_555
O25_9 C12_45 1_555 1_555
O18_20 Hf6_9 1_555 1_555
O17_15 C3_29 1_555 1_555
C1_29 C2_29 1_555 1_555
C2_29 H1_29 1_555 1_555
C3_29 C1_29 1_555 1_555
O5_29 C7_29 1_555 1_555
C5_29 C2_29 1_555 1_555
C6_29 C5_29 1_555 1_555
H3_29 C6_29 1_555 1_555
C7_29 C5_29 1_555 1_555
O18_17 C10_29 1_555 1_555
C8_29 C6_29 1_555 1_555
C9_29 C1_29 1_555 1_555
H4_29 C9_29 1_555 1_555
C10_29 C8_29 1_555 1_555
O19_10 C10_29 1_555 1_555
O19_2 C3_29 1_555 1_555
O19_6 C7_29 1_555 1_555
Hf6_6 O5_29 1_555 1_555
C8_29 C9_29 1_555 1_555
O17_16 C3_30 1_555 1_555
C1_30 C2_30 1_555 1_555
C2_30 H1_30 1_555 1_555
C3_30 C1_30 1_555 1_555
O5_30 C7_30 1_555 1_555
C5_30 C2_30 1_555 1_555
C6_30 C5_30 1_555 1_555
H3_30 C6_30 1_555 1_555
C7_30 C5_30 1_555 1_555
O18_20 C10_30 1_555 1_555
C8_30 C6_30 1_555 1_555
C9_30 C1_30 1_555 1_555
H4_30 C9_30 1_555 1_555
C10_30 C8_30 1_555 1_555
O19_9 C10_30 1_555 1_555
O19_4 C3_30 1_555 1_555
O19_7 C7_30 1_555 1_555
C8_30 C9_30 1_555 1_555
O17_14 C3_31 1_555 1_555
C1_31 C2_31 1_555 1_555
C2_31 H1_31 1_555 1_555
C3_31 C1_31 1_555 1_555
O5_31 C7_31 1_555 1_555
C5_31 C2_31 1_555 1_555
C6_31 C5_31 1_555 1_555
H3_31 C6_31 1_555 1_555
C7_31 C5_31 1_555 1_555
O18_18 C10_31 1_555 1_555
C8_31 C6_31 1_555 1_555
C9_31 C1_31 1_555 1_555
H4_31 C9_31 1_555 1_555
C10_31 C8_31 1_555 1_555
O19_11 C10_31 1_555 1_555
O19 C3_31 1_555 1_555
O19_8 C7_31 1_555 1_555
Hf6_8 O5_31 1_555 1_555
C8_31 C9_31 1_555 1_555
O17_13 C3_32 1_555 1_555
C1_32 C2_32 1_555 1_555
C2_32 H1_32 1_555 1_555
C3_32 C1_32 1_555 1_555
O5_32 C7_32 1_555 1_555
C5_32 C2_32 1_555 1_555
C6_32 C5_32 1_555 1_555
H3_32 C6_32 1_555 1_555
C7_32 C5_32 1_555 1_555
O18_19 C10_32 1_555 1_555
C8_32 C6_32 1_555 1_555
C9_32 C1_32 1_555 1_555
H4_32 C9_32 1_555 1_555
C10_32 C8_32 1_555 1_555
O19_12 C10_32 1_555 1_555
O19_3 C3_32 1_555 1_555
O19_5 C7_32 1_555 1_555
Hf6_5 O5_32 1_555 1_555
C8_32 C9_32 1_555 1_555
Hf5_6 O26_16 1_555 1_555
O13_29 Hf5_6 1_555 1_555
C11_36 O13_29 1_555 1_555
H5_36 C11_36 1_555 1_555
O14_29 C11_36 1_555 1_555
C12_46 O24_16 1_555 1_555
H6_46 C12_46 1_555 1_555
O16_29 C12_46 1_555 1_555
O22_16 Hf5_6 1_555 1_555
O21_16 Hf5_6 1_555 1_555
O25_29 Hf5_6 1_555 1_555
Hf5_6 O23_16 1_555 1_555
O14_29 Hf8 1_555 1_555
O16_29 Hf8 1_555 1_555
Hf5_8 O26_15 1_555 1_555
O13_30 Hf5_8 1_555 1_555
C11_37 O13_30 1_555 1_555
H5_37 C11_37 1_555 1_555
O14_30 C11_37 1_555 1_555
C12_47 O24_15 1_555 1_555
H6_47 C12_47 1_555 1_555
O16_30 C12_47 1_555 1_555
O22_15 Hf5_8 1_555 1_555
O25_30 Hf5_8 1_555 1_555
Hf5_8 O23_15 1_555 1_555
O14_30 Hf8_4 1_555 1_555
O16_30 Hf8_4 1_555 1_555
H5_38 C11_38 1_555 1_555
O14_31 C11_38 1_555 1_555
C12_48 O24_13 1_555 1_555
H6_48 C12_48 1_555 1_555
O16_31 C12_48 1_555 1_555
O14_31 Hf8_3 1_555 1_555
O16_31 Hf8_3 1_555 1_555
Hf5_7 O26_13 1_555 1_555
O13_31 Hf5_7 1_555 1_555
C11_39 O13_31 1_555 1_555
H5_39 C11_39 1_555 1_555
O22_13 Hf5_7 1_555 1_555
O21_13 Hf5_7 1_555 1_555
O25_31 Hf5_7 1_555 1_555
O13_32 Hf5_5 1_555 1_555
C11_40 O13_32 1_555 1_555
H5_40 C11_40 1_555 1_555
O14_32 C11_40 1_555 1_555
H6_49 C12_49 1_555 1_555
O16_32 C12_49 1_555 1_555
O22_14 Hf5_5 1_555 1_555
O21_14 Hf5_5 1_555 1_555
O25_32 Hf5_5 1_555 1_555
Hf5_5 O23_14 1_555 1_555
O14_32 Hf8_2 1_555 1_555
O16_32 Hf8_2 1_555 1_555
C12_50 O24_14 1_555 1_555
H6_50 C12_50 1_555 1_555
C12_51 O25_7 1_555 1_555
H6_51 C12_51 1_555 1_555
H6_52 C12_52 1_555 1_555
O25_22 C12_52 1_555 1_555
C12_53 O25_5 1_555 1_555
H6_53 C12_53 1_555 1_555
O25_23 C12_53 1_555 1_555
C12_54 O25_6 1_555 1_555
H6_54 C12_54 1_555 1_555
O25_24 C12_54 1_555 1_555
C12_55 O25_8 1_555 1_555
H6_55 C12_55 1_555 1_555
O25_21 C12_55 1_555 1_555
C12_56 O25_31 1_555 1_555
H6_56 C12_56 1_555 1_555
O25_25 C12_56 1_555 1_555
C12_57 O25_29 1_555 1_555
H6_57 C12_57 1_555 1_555
O25_28 C12_57 1_555 1_555
H6_58 C12_58 1_555 1_555
O25_27 C12_58 1_555 1_555
C12_59 O25_30 1_555 1_555
H6_59 C12_59 1_555 1_555
C12_60 O25_32 1_555 1_555
H6_60 C12_60 1_555 1_555
O25_26 C12_60 1_555 1_555

#END
