
###############################################################################
#
# This file contains modified crystal structure data generated from the
# MOF subset of the Cambridge Structural Database (CSD) v543 
# hosted by the Cambridge Crystallographic Data Centre (CCDC).
#
# This work is licensed under the Creative Commons
# Attribution-NonCommercial-ShareAlike 4.0 International License.
# To view a copy of this license, visit
# http://creativecommons.org/licenses/by-nc-sa/4.0/
# or send a letter to
# Creative Commons, PO Box 1866, Mountain View, CA 94042, USA.
#
# CIF created using the CSD Python API on 29 September 2022
# The structure has been converted into the P1 space group
# The structure has a 3D framework
# The original CSD entry VECPOM is in the monoclinic crystal system
# The framework has been calculated to contain at least 10.0% void space
# The void calculation uses a probe of radius 1.32A, grid spacing 0.4
# H atom positions have been added when not included in the experimental data
#
###############################################################################

data_VECPOM
_chemical_formula_moiety         '(C240 H176 N16 O111 S96 Tb16)n'
_symmetry_cell_setting           triclinic
_symmetry_space_group_name_H-M   'P 1'
_symmetry_Int_Tables_number      1
_space_group_name_Hall           'P 1'
loop_
_symmetry_equiv_pos_site_id
_symmetry_equiv_pos_as_xyz
1 x,y,z
_cell_length_a                   17.6786(6)
_cell_length_b                   23.0569(8)
_cell_length_c                   26.3088(8)
_cell_angle_alpha                90
_cell_angle_beta                 103.037(3)
_cell_angle_gamma                90
_cell_volume                     10447.4
loop_
_atom_site_label
_atom_site_type_symbol
_atom_site_fract_x
_atom_site_fract_y
_atom_site_fract_z
N1 N 0.2397(5) 0.0080(4) 0.2448(4)
S5 S 0.42669(15) 0.01378(12) 0.08558(11)
C33 C 0.2336(8) 0.0508(6) 0.2835(6)
H25 H 0.183005 0.048740 0.290997
H26 H 0.241524 0.088680 0.270578
H27 H 0.272372 0.043381 0.314837
C34 C 0.2022(7) 0.0154(6) 0.1920(5)
H28 H 0.235415 0.036657 0.174476
H29 H 0.154673 0.036408 0.189746
C47 C 0.3413(6) 0.0111(5) 0.0367(5)
Tb1 Tb 0.39156(2) 0.08946(2) 0.75225(2)
S2 S 0.54810(16) 0.04450(13) 0.57482(11)
S3 S 0.25388(14) 0.03633(12) 0.93840(11)
O8 O 0.3018(4) 0.0780(3) 0.8045(3)
S4 S 0.41616(16) 0.07287(14) 0.97610(11)
N2 N 0.2461(5) 0.2578(4) 0.7527(4)
C30 C 0.2851(7) 0.2114(5) 0.7639(5)
H18 H 0.305716 0.205294 0.799256
C31 C 0.2362(8) 0.2987(6) 0.7885(6)
H19 H 0.184378 0.296178 0.793866
H20 H 0.244537 0.336638 0.775739
H21 H 0.272802 0.291899 0.820901
C32 C 0.2038(8) 0.2659(6) 0.6992(6)
H22 H 0.233400 0.290247 0.681318
H23 H 0.154718 0.283904 0.698829
H24 H 0.195335 0.228942 0.682108
O11 O 0.5662(4) 0.0894(3) 0.6817(3)
O13 O 0.4687(4) 0.0396(3) 0.7031(3)
O14 O 0.2991(5) 0.1742(3) 0.7353(4)
O15 O 0.1949(4) 0.0442(3) 0.8238(3)
C39 C 0.4941(6) 0.0003(5) 0.5244(4)
C41 C 0.4942(6) 0.0245(5) 0.6215(5)
C42 C 0.5116(6) 0.0538(5) 0.6722(5)
C43 C 0.2641(6) 0.0595(5) 0.8360(5)
C44 C 0.3056(6) 0.0578(5) 0.8915(5)
C45 C 0.3784(6) 0.0750(5) 0.9093(5)
H38 H 0.408233 0.087877 0.886553
C46 C 0.3364(6) 0.0358(5) 0.9899(5)
S25 S 0.57407(16) 0.04502(13) 0.45544(12)
C62 C 0.5615(6) 0.0157(5) 0.3941(5)
H42 H 0.592737 0.027491 0.371896
Tb22 Tb 0.61731(2) 0.16208(2) 0.74945(2)
O64 O 0.4418(3) 0.1625(3) 0.8218(3)
Tb25 Tb 0.10632(2) 0.07345(2) 0.74535(2)
O68 O 0.4774(3) 0.0385(3) 0.8219(3)
O82 O 0.3007(3) 0.0727(3) 0.6703(3)
O88 O 0.4410(4) 0.1581(3) 0.7038(3)
O3 O 0.3822(4) 0.4112(3) 0.2055(3)
O4 O 0.4896(4) 0.4468(3) 0.1831(3)
O5 O 0.5582(3) 0.8375(3) 0.1782(3)
O6 O 0.4619(3) 0.7892(3) 0.2021(3)
Tb4 Tb 0.40352(2) 0.32802(2) 0.25560(2)
C9 C 0.5283(8) 0.1371(6) 0.2774(6)
H8 H 0.526365 0.131822 0.313278
H9 H 0.549655 0.174595 0.273071
H10 H 0.560434 0.107595 0.267428
C10 C 0.3308(6) 0.5197(5) 0.0402(4)
C15 C 0.5028(5) 0.8016(4) 0.1702(4)
C16 C 0.4823(5) 0.7729(4) 0.1184(4)
C17 C 0.4252(6) 0.7359(4) 0.1040(4)
H12 H 0.393566 0.726369 0.126652
C18 C 0.4795(6) 0.7448(4) 0.0215(4)
C20 C 0.4039(5) 0.2153(4) 0.6281(4)
C21 C 0.3296(6) 0.2011(5) 0.6144(4)
H13 H 0.308481 0.174549 0.633927
C22 C 0.3525(6) 0.2670(4) 0.5400(4)
C23 C 0.3500(5) 0.2899(4) 0.4939(4)
C24 C 0.3974(6) 0.3114(5) 0.4112(4)
H14 H 0.429145 0.315535 0.387705
C25 C 0.3213(5) 0.3056(4) 0.3945(4)
C26 C 0.2797(5) 0.3098(4) 0.3389(4)
C27 C 0.4160(6) 0.4398(5) 0.1757(4)
C28 C 0.3681(6) 0.4650(4) 0.1276(4)
C29 C 0.2926(6) 0.4585(5) 0.1115(4)
H15 H 0.265501 0.434189 0.129319
C36 C 0.4262(8) 0.0788(6) 0.2239(6)
H31 H 0.432400 0.050858 0.251587
H32 H 0.457080 0.067563 0.199873
H33 H 0.372564 0.080645 0.205982
C37 C 0.4025(7) 0.1794(5) 0.2406(5)
H34 H 0.351567 0.173487 0.222353
C38 C 0.4636(6) 0.1940(4) 0.6741(4)
O10 O 0.5307(4) 0.2121(3) 0.6797(2)
O12 O 0.4176(5) 0.2259(3) 0.2572(4)
S15 S 0.40917(18) 0.70494(14) 0.04282(12)
S16 S 0.53702(16) 0.78918(13) 0.07207(11)
S19 S 0.24424(16) 0.49559(17) 0.05683(13)
S20 S 0.41440(15) 0.51002(14) 0.09063(11)
S21 S 0.26722(14) 0.29790(12) 0.44263(10)
S22 S 0.43649(17) 0.31104(17) 0.47746(12)
S23 S 0.27245(15) 0.23326(16) 0.55911(12)
S24 S 0.43863(15) 0.26417(12) 0.58824(11)
O28 O 0.3188(4) 0.3049(4) 0.3049(3)
O29 O 0.2084(4) 0.3193(3) 0.3310(3)
N4 N 0.4502(7) 0.1331(5) 0.2447(5)
O43 O 0.6467(4) 0.0154(3) 0.2527(3)
H59 H 0.679718 0.022140 0.233266
H60 H 0.672694 0.023925 0.283965
Tb15 Tb 0.60844(2) 0.91054(2) 0.24775(2)
Tb18 Tb 0.38269(2) 0.83792(2) 0.25055(2)
Tb19 Tb 0.11731(2) 0.33792(2) 0.24945(2)
Tb26 Tb 0.60632(2) 0.42655(2) 0.24535(2)
O76 O 0.3152(4) 0.3002(3) 0.1772(3)
O79 O 0.4184(4) 0.4019(3) 0.3234(3)
O81 O 0.5199(4) 0.3062(3) 0.3190(3)
O85 O 0.4905(4) 0.3161(4) 0.2031(3)
O1 O 0.4078(5) 0.4713(3) 0.7586(4)
C1 C 0.2790(6) 0.9623(5) 0.2590(5)
H1 H 0.300840 0.958901 0.294521
C2 C 0.4275(8) 0.3271(5) 0.7240(6)
H2 H 0.440433 0.323009 0.690621
H3 H 0.372413 0.323474 0.719903
H4 H 0.453359 0.297509 0.747166
O2 O 0.2946(4) 0.8282(3) 0.3041(3)
C3 C 0.3211(6) 0.7613(5) 0.5356(4)
C4 C 0.3219(6) 0.7840(5) 0.4897(4)
C5 C 0.3716(6) 0.8166(5) 0.4103(4)
H5 H 0.404185 0.826008 0.388277
C6 C 0.2960(6) 0.8072(5) 0.3909(4)
Tb3 Tb 0.39368(2) 0.57345(2) 0.75465(2)
O7 O 0.5226(3) 0.9615(3) 0.1781(3)
C7 C 0.3976(7) 0.4284(5) 0.7409(5)
H6 H 0.347950 0.421257 0.720973
C8 C 0.5452(6) 0.7498(4) 0.8908(4)
H7 H 0.577420 0.757170 0.868035
C11 C 0.3364(6) 0.5411(5) 0.9940(4)
C12 C 0.3881(6) 0.5567(4) 0.9122(4)
H11 H 0.421054 0.557882 0.889188
C13 C 0.3105(6) 0.5562(5) 0.8944(4)
C14 C 0.2700(6) 0.5599(5) 0.8389(4)
C19 C 0.4889(6) 0.7445(4) 0.9731(4)
H30 H 0.190904 0.978082 0.175869
C35 C 0.5258(8) 0.3817(6) 0.7838(6)
S6 S 0.26537(15) 0.97061(15) 0.05303(12)
S7 S 0.24102(14) 0.78956(13) 0.43731(11)
S8 S 0.40810(15) 0.81119(14) 0.47656(11)
S9 S 0.40334(14) 0.75541(14) 0.58735(11)
S10 S 0.23598(16) 0.73001(18) 0.55057(13)
S11 S 0.55724(17) 0.54279(14) 0.57405(11)
S12 S 0.42304(17) 0.46348(15) 0.54676(13)
S13 S 0.42947(16) 0.70167(13) 0.92363(11)
S14 S 0.56065(16) 0.78387(14) 0.95037(12)
O16 O 0.4353(4) 0.9066(3) 0.2017(3)
O17 O 0.2915(5) 0.9227(3) 0.2317(4)
O18 O 0.1848(4) 0.8002(3) 0.3228(3)
S17 S 0.42464(15) 0.55516(14) 0.97891(11)
O19 O 0.3457(4) 0.7333(3) 0.2472(3)
H36 H 0.330736 0.724292 0.274970
H37 H 0.305516 0.727888 0.222645
S18 S 0.25383(14) 0.55275(13) 0.94180(10)
O20 O 0.5816(4) 0.5981(3) 0.6766(3)
O21 O 0.4803(4) 0.5591(3) 0.7013(3)
O22 O 0.3744(4) 0.6560(3) 0.7032(3)
O23 O 0.4801(4) 0.6938(3) 0.6810(3)
O24 O 0.1993(3) 0.5727(3) 0.8297(3)
C48 C 0.3240(6) 0.9424(5) 0.1104(4)
H39 H 0.304915 0.914895 0.130086
O25 O 0.3090(4) 0.5508(3) 0.8049(3)
C49 C 0.3964(6) 0.9614(5) 0.1248(4)
O26 O 0.4062(4) 0.6465(3) 0.8202(3)
C50 C 0.4558(6) 0.9425(5) 0.1721(4)
C51 C 0.2564(6) 0.8115(5) 0.3356(4)
O27 O 0.5095(4) 0.6839(4) 0.7969(3)
C52 C 0.2839(6) 0.6977(5) 0.6085(4)
H40 H 0.257606 0.673999 0.627343
C53 C 0.3600(6) 0.7080(5) 0.6250(4)
C54 C 0.4078(6) 0.6844(5) 0.6732(4)
C55 C 0.5225(6) 0.5659(5) 0.6704(5)
C56 C 0.4405(6) 0.4978(5) 0.6086(4)
H41 H 0.408085 0.491623 0.631487
C57 C 0.5007(6) 0.5322(5) 0.6209(4)
C58 C 0.4650(6) 0.6788(5) 0.8278(4)
C59 C 0.4960(6) 0.5009(5) 0.5246(4)
C60 C 0.4859(6) 0.7123(4) 0.8775(4)
N3 N 0.4517(7) 0.3822(5) 0.7450(5)
S27 S 0.44276(17) 0.45721(14) 0.42595(11)
S28 S 0.57696(17) 0.53652(15) 0.45324(13)
O34 O 0.5197(4) 0.4409(3) 0.2987(3)
C65 C 0.4775(6) 0.4341(5) 0.3296(5)
C66 C 0.5595(6) 0.5022(5) 0.3914(4)
H43 H 0.591915 0.508377 0.368513
C67 C 0.4993(6) 0.4678(5) 0.3791(4)
C68 C 0.5040(6) 0.4991(5) 0.4754(4)
O35 O 0.5922(5) 0.5287(3) 0.2414(4)
C69 C 0.7210(6) 0.0377(5) 0.7410(5)
H44 H 0.699160 0.041099 0.705479
C70 C 0.5725(8) 0.6729(5) 0.2760(6)
H45 H 0.559567 0.676991 0.309379
H46 H 0.627587 0.676526 0.280097
H47 H 0.546641 0.702491 0.252834
O36 O 0.7054(4) 0.1718(3) 0.6959(3)
C71 C 0.6789(6) 0.2387(5) 0.4644(4)
C72 C 0.6781(6) 0.2160(5) 0.5103(4)
C73 C 0.6284(6) 0.1834(5) 0.5897(4)
H48 H 0.595815 0.173992 0.611723
C74 C 0.7040(6) 0.1928(5) 0.6091(4)
C75 C 0.6024(7) 0.5716(5) 0.2591(5)
H49 H 0.652050 0.578743 0.279027
C76 C 0.4548(6) 0.2502(4) 0.1092(4)
H50 H 0.422580 0.242830 0.131965
C79 C 0.6636(6) 0.4589(5) 0.0060(4)
C80 C 0.6119(6) 0.4433(4) 0.0878(4)
H54 H 0.578946 0.442118 0.110812
C81 C 0.6895(6) 0.4438(5) 0.1056(4)
C82 C 0.7300(6) 0.4401(5) 0.1611(4)
C87 C 0.5111(6) 0.2555(4) 0.0269(4)
H73 H 0.809096 0.021918 0.824131
C103 C 0.4742(8) 0.6183(6) 0.2162(6)
S32 S 0.73463(15) 0.02939(15) 0.94697(12)
S33 S 0.75898(14) 0.21044(13) 0.56269(11)
S34 S 0.59190(15) 0.18881(14) 0.52344(11)
S35 S 0.59666(14) 0.24459(14) 0.41265(11)
S36 S 0.76402(16) 0.26999(18) 0.44943(13)
S37 S 0.57053(16) 0.29833(13) 0.07637(11)
S38 S 0.43935(16) 0.21613(14) 0.04963(12)
O48 O 0.5647(4) 0.0934(3) 0.7983(3)
O49 O 0.7085(5) 0.0773(3) 0.7683(4)
O50 O 0.8152(4) 0.1998(3) 0.6772(3)
S41 S 0.57536(15) 0.44484(14) 0.02109(11)
O51 O 0.6543(4) 0.2667(3) 0.7528(3)
H78 H 0.669264 0.275708 0.725030
H79 H 0.694484 0.272112 0.777355
S42 S 0.74617(14) 0.44725(13) 0.05820(10)
O52 O 0.6256(4) 0.3440(3) 0.2968(3)
O54 O 0.8007(3) 0.4273(3) 0.1703(3)
C112 C 0.6760(6) 0.0576(5) 0.8896(4)
H81 H 0.695085 0.085105 0.869914
O55 O 0.6910(4) 0.4492(3) 0.1951(3)
C113 C 0.6036(6) 0.0386(5) 0.8752(4)
O56 O 0.5938(4) 0.3535(3) 0.1798(3)
C114 C 0.5442(6) 0.0575(5) 0.8279(4)
C115 C 0.7436(6) 0.1885(5) 0.6644(4)
C116 C 0.7161(6) 0.3023(5) 0.3915(4)
H82 H 0.742394 0.326001 0.372657
C117 C 0.6400(6) 0.2920(5) 0.3750(4)
C118 C 0.5922(6) 0.3156(5) 0.3268(4)
C119 C 0.5350(6) 0.3212(5) 0.1722(4)
C120 C 0.5141(6) 0.2877(4) 0.1225(4)
N7 N 0.5483(7) 0.6178(5) 0.2550(5)
Tb12 Tb 0.10844(2) 0.58946(2) 0.74775(2)
Tb16 Tb 0.89156(2) 0.41054(2) 0.25225(2)
O62 O 0.5104(4) 0.5532(3) 0.8169(3)
O66 O 0.5381(3) 0.2108(3) 0.7979(3)
Tb29 Tb 0.09648(2) 0.82802(2) 0.24440(2)
Tb30 Tb 0.59648(2) 0.67198(2) 0.74440(2)
Tb31 Tb 0.90352(2) 0.17198(2) 0.75560(2)
O70 O 0.4693(4) 0.7879(3) 0.3203(2)
O72 O 0.4338(4) 0.9106(3) 0.3183(3)
O74 O 0.3051(4) 0.5442(3) 0.6762(3)
O75 O 0.6949(4) 0.4558(3) 0.3238(3)
O86 O 0.2916(4) 0.8193(3) 0.1690(3)
O87 O 0.7084(4) 0.1807(3) 0.8310(3)
H83 H 0.479182 0.646142 0.183678
H84 H 0.459826 0.574384 0.202041
H85 H 0.428621 0.634745 0.234098
H86 H 0.571379 0.365255 0.765902
H87 H 0.540174 0.425616 0.797959
H88 H 0.520818 0.353858 0.816322
S1 S 0.42593(16) 0.95498(13) 0.54456(12)
O9 O 0.3533(4) 0.9846(3) 0.7473(3)
H16 H 0.320282 0.977860 0.766734
H17 H 0.327306 0.976075 0.716035
C40 C 0.4385(6) 0.9843(5) 0.6059(5)
H35 H 0.407263 0.972509 0.628104
S26 S 0.45190(16) 0.95550(13) 0.42518(11)
O32 O 0.5313(4) 0.9604(3) 0.2969(3)
C61 C 0.5059(6) 0.9997(5) 0.4756(4)
C63 C 0.5058(6) 0.9755(5) 0.3785(5)
C64 C 0.4884(6) 0.9462(5) 0.3278(5)
O37 O 0.6178(4) 0.5888(3) 0.7945(3)
C77 C 0.4717(8) 0.8629(6) 0.7226(6)
H51 H 0.473635 0.868178 0.686722
H52 H 0.450345 0.825405 0.726929
H53 H 0.439566 0.892405 0.732572
C78 C 0.6692(6) 0.4803(5) 0.9598(4)
C83 C 0.4972(5) 0.1984(4) 0.8298(4)
C84 C 0.5177(5) 0.2271(4) 0.8816(4)
C85 C 0.5748(6) 0.2641(4) 0.8960(4)
H55 H 0.606434 0.273631 0.873348
C86 C 0.5205(6) 0.2552(4) 0.9785(4)
C88 C 0.5961(5) 0.7847(4) 0.3719(4)
C89 C 0.6704(6) 0.7989(5) 0.3856(4)
H56 H 0.691519 0.825451 0.366073
C90 C 0.6475(6) 0.7330(4) 0.4600(4)
C91 C 0.6500(5) 0.7101(4) 0.5061(4)
C92 C 0.6026(6) 0.6886(5) 0.5888(4)
H57 H 0.570855 0.684465 0.612295
C93 C 0.6787(5) 0.6944(4) 0.6055(4)
C94 C 0.7203(5) 0.6902(4) 0.6611(4)
C95 C 0.5840(6) 0.5602(5) 0.8243(4)
C96 C 0.6319(6) 0.5350(4) 0.8724(4)
C97 C 0.7074(6) 0.5415(5) 0.8885(4)
H58 H 0.734499 0.565811 0.870681
C104 C 0.5738(8) 0.9212(6) 0.7761(6)
H74 H 0.567600 0.949142 0.748413
H75 H 0.542920 0.932437 0.800127
H76 H 0.627436 0.919355 0.794018
C105 C 0.5975(7) 0.8206(5) 0.7594(5)
H77 H 0.648433 0.826513 0.777647
C106 C 0.5364(6) 0.8060(4) 0.3259(4)
O45 O 0.5824(5) 0.7741(3) 0.7428(4)
S39 S 0.59083(18) 0.29506(14) 0.95718(12)
S40 S 0.46298(16) 0.21082(13) 0.92793(11)
S43 S 0.75576(16) 0.50441(17) 0.94317(13)
S44 S 0.58560(15) 0.48998(14) 0.90937(11)
S45 S 0.73278(14) 0.70210(12) 0.55737(10)
S46 S 0.56351(17) 0.68896(17) 0.52254(12)
S47 S 0.72755(15) 0.76674(16) 0.44089(12)
S48 S 0.56137(15) 0.73583(12) 0.41176(11)
O58 O 0.6812(4) 0.6951(4) 0.6951(3)
O59 O 0.7916(4) 0.6807(3) 0.6690(3)
O60 O 0.5590(4) 0.8419(3) 0.2962(3)
N8 N 0.5498(7) 0.8669(5) 0.7553(5)
Tb23 Tb 0.88269(2) 0.66208(2) 0.75055(2)
O77 O 0.6848(4) 0.6998(3) 0.8228(3)
S29 S 0.74612(14) 0.96367(12) 0.06160(11)
O42 O 0.6982(4) 0.9220(3) 0.1955(3)
S30 S 0.58384(16) 0.92713(14) 0.02390(11)
N6 N 0.7539(5) 0.7422(4) 0.2473(4)
C98 C 0.7149(7) 0.7886(5) 0.2361(5)
H61 H 0.694284 0.794706 0.200744
C99 C 0.7638(8) 0.7013(6) 0.2115(6)
H62 H 0.815622 0.703822 0.206134
H63 H 0.755463 0.663362 0.224261
H64 H 0.727198 0.708101 0.179099
C100 C 0.7962(8) 0.7341(6) 0.3008(6)
H65 H 0.766600 0.709753 0.318682
H66 H 0.845282 0.716096 0.301171
H67 H 0.804665 0.771058 0.317892
O46 O 0.7009(5) 0.8258(3) 0.2647(4)
O47 O 0.8051(4) 0.9558(3) 0.1762(3)
C107 C 0.7359(6) 0.9405(5) 0.1640(5)
C108 C 0.6944(6) 0.9422(5) 0.1085(5)
C109 C 0.6216(6) 0.9250(5) 0.0907(5)
H80 H 0.591767 0.912123 0.113447
C110 C 0.6636(6) 0.9642(5) 0.0101(5)
Tb27 Tb 0.89368(2) 0.92655(2) 0.25465(2)
O83 O 0.6993(3) 0.9273(3) 0.3297(3)
S26_2 S 0.04810(16) 0.45550(13) 0.07482(11)
O31 O 0.0662(4) 0.4106(3) 0.1817(3)
C64_2 C 0.0116(6) 0.4462(5) 0.1722(5)
O44 O 0.0307(4) 0.2879(3) 0.1797(2)
C1_2 C 0.2210(6) 0.4623(5) 0.2410(5)
H1_2 H 0.199160 0.458901 0.205479
S1_2 S 0.07407(16) 0.45498(13) 0.95544(12)
O2_2 O 0.2054(4) 0.3282(3) 0.1959(3)
C4_2 C 0.1781(6) 0.2840(5) 0.0103(4)
C5_2 C 0.1284(6) 0.3166(5) 0.0897(4)
H5_2 H 0.095815 0.326008 0.111723
C6_2 C 0.2040(6) 0.3072(5) 0.1091(4)
N1_2 N 0.2603(5) 0.5080(4) 0.2552(4)
S3_2 S 0.24612(14) 0.53633(12) 0.56160(11)
O8_2 O 0.1982(4) 0.5780(3) 0.6955(3)
S4_2 S 0.08384(16) 0.57287(14) 0.52390(11)
S5_2 S 0.07331(15) 0.51378(12) 0.41442(11)
O9_2 O 0.1467(4) 0.4846(3) 0.7527(3)
H16_2 H 0.179718 0.477860 0.733266
H17_2 H 0.172694 0.476075 0.783965
N2_2 N 0.2539(5) 0.7578(4) 0.7473(4)
C30_2 C 0.2149(7) 0.7114(5) 0.7361(5)
H18_2 H 0.194284 0.705294 0.700744
C31_2 C 0.2638(8) 0.7987(6) 0.7115(6)
H19_2 H 0.315622 0.796178 0.706134
H20_2 H 0.255463 0.836638 0.724261
H21_2 H 0.227198 0.791899 0.679099
C32_2 C 0.2962(8) 0.7659(6) 0.8008(6)
H22_2 H 0.266600 0.790247 0.818682
H23_2 H 0.345282 0.783904 0.801171
H24_2 H 0.304665 0.728942 0.817892
C33_2 C 0.2664(8) 0.5508(6) 0.2165(6)
H25_2 H 0.316995 0.548740 0.209003
H26_2 H 0.258476 0.588680 0.229422
H27_2 H 0.227628 0.543381 0.185163
C34_2 C 0.2978(7) 0.5154(6) 0.3080(5)
H28_2 H 0.264585 0.536657 0.325524
H29_2 H 0.345327 0.536408 0.310254
H30_2 H 0.309096 0.478082 0.324131
S6_2 S 0.23463(15) 0.47061(15) 0.44697(12)
S7_2 S 0.25898(14) 0.28956(13) 0.06269(11)
S8_2 S 0.09190(15) 0.31119(14) 0.02344(11)
O13_2 O 0.0313(4) 0.5396(3) 0.7969(3)
O14_2 O 0.2009(5) 0.6742(3) 0.7647(4)
C39_2 C 0.0059(6) 0.5003(5) 0.9756(4)
O16_2 O 0.0647(4) 0.4066(3) 0.2983(3)
C40_2 C 0.0615(6) 0.4843(5) 0.8941(5)
H35_2 H 0.092737 0.472509 0.871896
O17_2 O 0.2085(5) 0.4227(3) 0.2683(4)
C41_2 C 0.0058(6) 0.5245(5) 0.8785(5)
O19_2 O 0.1543(4) 0.2333(3) 0.2528(3)
H36_2 H 0.169264 0.224292 0.225030
H37_2 H 0.194484 0.227888 0.277355
C43_2 C 0.2359(6) 0.5595(5) 0.6640(5)
C44_2 C 0.1944(6) 0.5578(5) 0.6085(5)
C45_2 C 0.1216(6) 0.5750(5) 0.5907(5)
H38_2 H 0.091767 0.587877 0.613447
C46_2 C 0.1636(6) 0.5358(5) 0.5101(5)
C47_2 C 0.1587(6) 0.5111(5) 0.4633(5)
C48_2 C 0.1760(6) 0.4424(5) 0.3896(4)
H39_2 H 0.195085 0.414895 0.369914
C49_2 C 0.1036(6) 0.4614(5) 0.3752(4)
C50_2 C 0.0442(6) 0.4425(5) 0.3279(4)
C51_2 C 0.2436(6) 0.3115(5) 0.1644(4)
C77_2 C 0.0283(8) 0.3629(6) 0.7774(6)
H51_2 H 0.026365 0.368178 0.813278
H52_2 H 0.049655 0.325405 0.773071
H53_2 H 0.060434 0.392405 0.767428
C103_2 C 0.0258(8) 0.1183(6) 0.2838(6)
O64_2 O 0.0582(3) 0.6625(3) 0.6782(3)
O65 O 0.0381(3) 0.2892(3) 0.2979(3)
O68_2 O 0.0226(3) 0.5385(3) 0.6781(3)
O80 O 0.0199(4) 0.1938(3) 0.8190(3)
O88_2 O 0.0590(4) 0.6581(3) 0.7962(3)
H83_2 H 0.0208184 0.146142 0.316322
H84_2 H 0.0401738 0.0743841 0.297959
H85_2 H 0.0713788 0.134745 0.265902
C3_2 C 0.1789(6) 0.2613(5) 0.9644(4)
C10_2 C 0.1692(6) 0.0197(5) 0.4598(4)
C11_2 C 0.1636(6) 0.0411(5) 0.5060(4)
C12_2 C 0.1119(6) 0.0567(4) 0.5878(4)
H11_2 H 0.078946 0.057882 0.610812
C13_2 C 0.1895(6) 0.0562(5) 0.6056(4)
C14_2 C 0.2300(6) 0.0599(5) 0.6611(4)
C16_2 C 0.0177(5) 0.2729(4) 0.3816(4)
C17_2 C 0.0748(6) 0.2359(4) 0.3960(4)
H12_2 H 0.106434 0.226369 0.373348
C18_2 C 0.0205(6) 0.2448(4) 0.4785(4)
C19_2 C 0.0111(6) 0.2445(4) 0.5269(4)
S9_2 S 0.09666(14) 0.25541(14) 0.91265(11)
S10_2 S 0.26402(16) 0.23001(18) 0.94943(13)
S13_2 S 0.07053(16) 0.20167(13) 0.57637(11)
S15_2 S 0.09083(18) 0.20494(14) 0.45718(12)
S17_2 S 0.07536(15) 0.05516(14) 0.52109(11)
S18_2 S 0.24617(14) 0.05275(13) 0.55820(10)
O21_2 O 0.0197(4) 0.0591(3) 0.7987(3)
S20_2 S 0.08560(15) 0.01002(14) 0.40937(11)
O22_2 O 0.1256(4) 0.1560(3) 0.7968(3)
O25_2 O 0.1910(4) 0.0508(3) 0.6951(3)
O26_2 O 0.0938(4) 0.1465(3) 0.6798(3)
C52_2 C 0.2161(6) 0.1977(5) 0.8915(4)
H40_2 H 0.242394 0.173999 0.872657
C53_2 C 0.1400(6) 0.2080(5) 0.8750(4)
C54_2 C 0.0922(6) 0.1844(5) 0.8268(4)
C58_2 C 0.0350(6) 0.1788(5) 0.6722(4)
C59_2 C 0.0040(6) 0.0009(5) 0.9754(4)
C60_2 C 0.0141(6) 0.2123(4) 0.6225(4)
S27_2 S 0.05724(17) 0.95721(14) 0.07405(11)
O33 O 0.0816(4) 0.9019(3) 0.1766(3)
C65_2 C 0.0225(6) 0.9341(5) 0.1704(5)
C67_2 C 0.0007(6) 0.9678(5) 0.1209(4)
C76_2 C 0.0452(6) 0.7502(4) 0.3908(4)
H50_2 H 0.077420 0.742830 0.368035
C83_2 C 0.0028(5) 0.6984(4) 0.6702(4)
S38_2 S 0.06065(16) 0.71613(14) 0.45037(12)
S40_2 S 0.03702(16) 0.71082(13) 0.57207(11)
O57 O 0.0095(4) 0.8161(4) 0.2969(3)
O61 O 0.0104(4) 0.9468(3) 0.3169(3)
O1_2 O 0.0922(5) 0.9713(3) 0.7414(4)
C2_2 C 0.0725(8) 0.8271(5) 0.7760(6)
H2_2 H 0.059567 0.823009 0.809379
H3_2 H 0.127587 0.823474 0.780097
H4_2 H 0.046641 0.797509 0.752834
O3_2 O 0.1178(4) 0.9112(3) 0.2945(3)
C7_2 C 0.1024(7) 0.9284(5) 0.7591(5)
H6_2 H 0.152050 0.921257 0.779027
C23_2 C 0.1500(5) 0.7899(4) 0.0061(4)
C24_2 C 0.1026(6) 0.8114(5) 0.0888(4)
H14_2 H 0.070855 0.815535 0.112295
C25_2 C 0.1787(5) 0.8056(4) 0.1055(4)
C26_2 C 0.2203(5) 0.8098(4) 0.1611(4)
C27_2 C 0.0840(6) 0.9398(5) 0.3243(4)
C28_2 C 0.1319(6) 0.9650(4) 0.3724(4)
C29_2 C 0.2074(6) 0.9585(5) 0.3885(4)
H15_2 H 0.234499 0.934189 0.370681
C36_2 C 0.0738(8) 0.5788(6) 0.2761(6)
H31_2 H 0.067600 0.550858 0.248413
H32_2 H 0.042920 0.567563 0.300127
H33_2 H 0.127436 0.580645 0.294018
C37_2 C 0.0975(7) 0.6794(5) 0.2594(5)
H34_2 H 0.148433 0.673487 0.277647
O12_2 O 0.0824(5) 0.7259(3) 0.2428(4)
S12_2 S 0.07696(17) 0.96348(15) 0.95324(13)
S19_2 S 0.25576(16) 0.99559(17) 0.44317(13)
S21_2 S 0.23278(14) 0.79790(12) 0.05737(10)
S22_2 S 0.06351(17) 0.81104(17) 0.02254(12)
O28_2 O 0.1812(4) 0.8049(4) 0.1951(3)
C56_2 C 0.0595(6) 0.9978(5) 0.8914(4)
H41_2 H 0.091915 0.991623 0.868513
N3_2 N 0.0483(7) 0.8822(5) 0.7550(5)
N4_2 N 0.0498(7) 0.6331(5) 0.2553(5)
C20_2 C 0.0961(5) 0.7153(4) 0.8719(4)
C21_2 C 0.1704(6) 0.7011(5) 0.8856(4)
H13_2 H 0.191519 0.674549 0.866073
C22_2 C 0.1475(6) 0.7670(4) 0.9600(4)
C38_2 C 0.0364(6) 0.6940(4) 0.8259(4)
S23_2 S 0.22755(15) 0.73326(16) 0.94089(12)
S24_2 S 0.06137(15) 0.76417(12) 0.91176(11)
S25_2 S 0.92593(16) 0.54502(13) 0.04456(12)
O32_2 O 0.9687(4) 0.4604(3) 0.2031(3)
C61_2 C 0.9941(6) 0.4997(5) 0.0244(4)
C62_2 C 0.9385(6) 0.5157(5) 0.1059(5)
H42_2 H 0.907263 0.527491 0.128104
C63_2 C 0.9942(6) 0.4755(5) 0.1215(5)
C88_2 C 0.9039(5) 0.2847(4) 0.1281(4)
C89_2 C 0.8296(6) 0.2989(5) 0.1144(4)
H56_2 H 0.808481 0.325451 0.133927
C90_2 C 0.8525(6) 0.2330(4) 0.0400(4)
C106_2 C 0.9636(6) 0.3060(4) 0.1741(4)
S47_2 S 0.77245(15) 0.26674(16) 0.05911(12)
S48_2 S 0.93863(15) 0.23583(12) 0.08824(11)
O60_2 O 0.9410(4) 0.3419(3) 0.2038(3)
S2_2 S 0.95190(16) 0.54450(13) 0.92518(11)
O7_2 O 0.9774(3) 0.4615(3) 0.3219(3)
O11_2 O 0.9338(4) 0.5894(3) 0.8183(3)
C42_2 C 0.9884(6) 0.5538(5) 0.8278(5)
S28_2 S 0.92304(17) 0.03652(15) 0.04676(13)
C66_2 C 0.9405(6) 0.0022(5) 0.1086(4)
H43_2 H 0.908085 0.008377 0.131487
O35_2 O 0.9078(5) 0.0287(3) 0.2586(4)
C70_2 C 0.9275(8) 0.1729(5) 0.2240(6)
H45_2 H 0.940433 0.176991 0.190621
H46_2 H 0.872413 0.176526 0.219903
H47_2 H 0.953359 0.202491 0.247166
O37_2 O 0.8822(4) 0.0888(3) 0.7055(3)
O38 O 0.9896(4) 0.0532(3) 0.6831(3)
C75_2 C 0.8976(7) 0.0716(5) 0.2409(5)
H49_2 H 0.847950 0.078743 0.220973
C91_2 C 0.8500(5) 0.2101(4) 0.9939(4)
C92_2 C 0.8974(6) 0.1886(5) 0.9112(4)
H57_2 H 0.929145 0.184465 0.887705
C93_2 C 0.8213(5) 0.1944(4) 0.8945(4)
C94_2 C 0.7797(5) 0.1902(4) 0.8389(4)
C95_2 C 0.9160(6) 0.0602(5) 0.6757(4)
C96_2 C 0.8681(6) 0.0350(4) 0.6276(4)
C97_2 C 0.7926(6) 0.0415(5) 0.6115(4)
H58_2 H 0.765501 0.065811 0.629319
C104_2 C 0.9262(8) 0.4212(6) 0.7239(6)
H74_2 H 0.932400 0.449142 0.751587
H75_2 H 0.957080 0.432437 0.699873
H76_2 H 0.872564 0.419355 0.705982
C105_2 C 0.9025(7) 0.3206(5) 0.7406(5)
H77_2 H 0.851567 0.326513 0.722353
O45_2 O 0.9176(5) 0.2741(3) 0.7572(4)
S43_2 S 0.74424(16) 0.00441(17) 0.55683(13)
S45_2 S 0.76722(14) 0.20210(12) 0.94263(10)
S46_2 S 0.93649(17) 0.18896(17) 0.97746(12)
O58_2 O 0.8188(4) 0.1951(4) 0.8049(3)
N7_2 N 0.9517(7) 0.1178(5) 0.2450(5)
N8_2 N 0.9502(7) 0.3669(5) 0.7447(5)
O78 O 0.9184(4) 0.0981(3) 0.8234(3)
O84 O 0.9905(4) 0.1839(4) 0.7031(3)
O5_2 O 0.9418(3) 0.3375(3) 0.3218(3)
C8_2 C 0.9548(6) 0.2498(4) 0.6092(4)
H7_2 H 0.922580 0.257170 0.631965
C15_2 C 0.9972(5) 0.3016(4) 0.3298(4)
S11_2 S 0.94276(17) 0.04279(14) 0.92595(11)
S14_2 S 0.93935(16) 0.28387(14) 0.54963(12)
S16_2 S 0.96298(16) 0.28918(13) 0.42793(11)
C55_2 C 0.9775(6) 0.0659(5) 0.8296(5)
C57_2 C 0.9993(6) 0.0322(5) 0.8791(4)
O34_2 O 0.9803(4) 0.9409(3) 0.2013(3)
C68_2 C 0.9960(6) 0.9991(5) 0.0246(4)
C71_2 C 0.8211(6) 0.7387(5) 0.0356(4)
O40 O 0.9619(3) 0.7108(3) 0.7021(3)
C78_2 C 0.8308(6) 0.9803(5) 0.5402(4)
C79_2 C 0.8364(6) 0.9589(5) 0.4940(4)
C80_2 C 0.8881(6) 0.9433(4) 0.4122(4)
H54_2 H 0.921054 0.942118 0.389188
C81_2 C 0.8105(6) 0.9438(5) 0.3944(4)
C82_2 C 0.7700(6) 0.9401(5) 0.3389(4)
C84_2 C 0.9823(5) 0.7271(4) 0.6184(4)
C85_2 C 0.9252(6) 0.7641(4) 0.6040(4)
H55_2 H 0.893566 0.773631 0.626652
C86_2 C 0.9795(6) 0.7552(4) 0.5215(4)
C87_2 C 0.9889(6) 0.7555(4) 0.4731(4)
S35_2 S 0.90334(14) 0.74459(14) 0.08735(11)
S36_2 S 0.73598(16) 0.76999(18) 0.05057(13)
S37_2 S 0.92947(16) 0.79833(13) 0.42363(11)
S39_2 S 0.90917(18) 0.79506(14) 0.54282(12)
S41_2 S 0.92464(15) 0.94484(14) 0.47891(11)
S42_2 S 0.75383(14) 0.94725(13) 0.44180(10)
S44_2 S 0.91440(15) 0.98998(14) 0.59063(11)
O52_2 O 0.8744(4) 0.8440(3) 0.2032(3)
O53 O 0.9801(4) 0.8062(3) 0.1810(3)
O55_2 O 0.8090(4) 0.9492(3) 0.3049(3)
O56_2 O 0.9062(4) 0.8535(3) 0.3202(3)
C116_2 C 0.7839(6) 0.8023(5) 0.1085(4)
H82_2 H 0.757606 0.826001 0.127343
C117_2 C 0.8600(6) 0.7920(5) 0.1250(4)
C118_2 C 0.9078(6) 0.8156(5) 0.1732(4)
C119_2 C 0.9650(6) 0.8212(5) 0.3278(4)
C120_2 C 0.9859(6) 0.7877(4) 0.3775(4)
C9_2 C 0.9717(8) 0.6371(6) 0.2226(6)
H8_2 H 0.973635 0.631822 0.186722
H9_2 H 0.950345 0.674595 0.226929
H10_2 H 0.939566 0.607595 0.232572
C35_2 C 0.9742(8) 0.8817(6) 0.7162(6)
C69_2 C 0.7790(6) 0.5377(5) 0.7590(5)
H44_2 H 0.800840 0.541099 0.794521
O36_2 O 0.7946(4) 0.6718(3) 0.8041(3)
C72_2 C 0.8219(6) 0.7160(5) 0.9897(4)
C73_2 C 0.8716(6) 0.6834(5) 0.9103(4)
H48_2 H 0.904185 0.673992 0.888277
C74_2 C 0.7960(6) 0.6928(5) 0.8909(4)
N5 N 0.7397(5) 0.4920(4) 0.7448(4)
S29_2 S 0.75388(14) 0.46367(12) 0.43840(11)
O42_2 O 0.8018(4) 0.4220(3) 0.3045(3)
S30_2 S 0.91616(16) 0.42713(14) 0.47610(11)
S31 S 0.92669(15) 0.48622(12) 0.58558(11)
O43_2 O 0.8533(4) 0.5154(3) 0.2473(3)
H59_2 H 0.820282 0.522140 0.266734
H60_2 H 0.827306 0.523925 0.216035
N6_2 N 0.7461(5) 0.2422(4) 0.2527(4)
C98_2 C 0.7851(7) 0.2886(5) 0.2639(5)
H61_2 H 0.805716 0.294706 0.299256
C99_2 C 0.7362(8) 0.2013(6) 0.2885(6)
H62_2 H 0.684378 0.203822 0.293866
H63_2 H 0.744537 0.163362 0.275739
H64_2 H 0.772802 0.208101 0.320901
C100_2 C 0.7038(8) 0.2341(6) 0.1992(6)
H65_2 H 0.733400 0.209753 0.181318
H66_2 H 0.654718 0.216096 0.198829
H67_2 H 0.695335 0.271058 0.182108
C101 C 0.7336(8) 0.4492(6) 0.7835(6)
H68 H 0.683005 0.451260 0.790997
H69 H 0.741524 0.411320 0.770578
H70 H 0.772372 0.456619 0.814837
C102 C 0.7022(7) 0.4846(6) 0.6920(5)
H71 H 0.735415 0.463343 0.674476
H72 H 0.654673 0.463592 0.689746
H73_2 H 0.690904 0.521918 0.675869
S32_2 S 0.76537(15) 0.52939(15) 0.55303(12)
S33_2 S 0.74102(14) 0.71044(13) 0.93731(11)
S34_2 S 0.90810(15) 0.68881(14) 0.97656(11)
O46_2 O 0.7991(5) 0.3258(3) 0.2353(4)
O48_2 O 0.9353(4) 0.5934(3) 0.7017(3)
O49_2 O 0.7915(5) 0.5773(3) 0.7317(4)
O51_2 O 0.8457(4) 0.7667(3) 0.7472(3)
H78_2 H 0.830736 0.775708 0.774970
H79_2 H 0.805516 0.772112 0.722645
C107_2 C 0.7641(6) 0.4405(5) 0.3360(5)
C108_2 C 0.8056(6) 0.4422(5) 0.3915(5)
C109_2 C 0.8784(6) 0.4250(5) 0.4093(5)
H80_2 H 0.908233 0.412123 0.386553
C110_2 C 0.8364(6) 0.4642(5) 0.4899(5)
C111 C 0.8413(6) 0.4889(5) 0.5367(5)
C112_2 C 0.8240(6) 0.5576(5) 0.6104(4)
H81_2 H 0.804915 0.585105 0.630086
C113_2 C 0.8964(6) 0.5386(5) 0.6248(4)
C114_2 C 0.9558(6) 0.5575(5) 0.6721(4)
C115_2 C 0.7564(6) 0.6885(5) 0.8356(4)
O69 O 0.9693(4) 0.7121(3) 0.8203(2)
H86_2 H 0.928621 0.865255 0.734098
H87_2 H 0.959826 0.925616 0.702041
H88_2 H 0.979182 0.853858 0.683678
N5_2 N 0.7603(5) 0.9920(4) 0.7552(4)
S31_2 S 0.57331(15) 0.98622(12) 0.91442(11)
C101_2 C 0.7664(8) 0.9492(6) 0.7165(6)
H68_2 H 0.816995 0.951260 0.709003
H69_2 H 0.758476 0.911320 0.729422
H70_2 H 0.727628 0.956619 0.685163
C102_2 C 0.7978(7) 0.9846(6) 0.8080(5)
H71_2 H 0.764585 0.963343 0.825524
H72_2 H 0.845327 0.963592 0.810254
C111_2 C 0.6587(6) 0.9889(5) 0.9633(5)
loop_
_geom_bond_atom_site_label_1
_geom_bond_atom_site_label_2
_geom_bond_site_symmetry_1
_geom_bond_site_symmetry_2
S5 C47 1_555 1_555
C33 N1 1_555 1_555
H25 C33 1_555 1_555
H26 C33 1_555 1_555
H27 C33 1_555 1_555
C34 N1 1_555 1_555
H28 C34 1_555 1_555
H29 C34 1_555 1_555
Tb1 O8 1_555 1_555
S2 C39 1_555 1_555
S3 C44 1_555 1_555
O8 C43 1_555 1_555
S4 C45 1_555 1_555
N2 C30 1_555 1_555
C30 H18 1_555 1_555
C31 N2 1_555 1_555
H19 C31 1_555 1_555
H20 C31 1_555 1_555
H21 C31 1_555 1_555
C32 N2 1_555 1_555
H22 C32 1_555 1_555
H23 C32 1_555 1_555
H24 C32 1_555 1_555
O11 C42 1_555 1_555
O13 Tb1 1_555 1_555
O14 Tb1 1_555 1_555
O15 C43 1_555 1_555
C41 S2 1_555 1_555
C42 O13 1_555 1_555
C43 C44 1_555 1_555
C44 C45 1_555 1_555
C45 H38 1_555 1_555
C46 S3 1_555 1_555
C62 S25 1_555 1_555
H42 C62 1_555 1_555
Tb22 O11 1_555 1_555
O64 Tb1 1_555 1_555
Tb25 O15 1_555 1_555
O68 Tb1 1_555 1_555
O82 Tb1 1_555 1_555
O88 Tb1 1_555 1_555
S4 C46 1_555 1_555
C30 O14 1_555 1_555
C41 C42 1_555 1_555
O3 Tb4 1_555 1_555
O4 C27 1_555 1_555
O5 C15 1_555 1_555
O6 C15 1_555 1_555
Tb4 O12 1_555 1_555
C9 H8 1_555 1_555
H9 C9 1_555 1_555
H10 C9 1_555 1_555
C15 C16 1_555 1_555
C16 C17 1_555 1_555
C17 H12 1_555 1_555
C20 C21 1_555 1_555
C21 H13 1_555 1_555
C22 C23 1_555 1_555
C23 S21 1_555 1_555
C24 H14 1_555 1_555
C25 C24 1_555 1_555
C26 C25 1_555 1_555
C27 O3 1_555 1_555
C28 C27 1_555 1_555
C29 C28 1_555 1_555
H15 C29 1_555 1_555
C36 H31 1_555 1_555
H32 C36 1_555 1_555
H33 C36 1_555 1_555
C37 H34 1_555 1_555
C38 C20 1_555 1_555
O10 C38 1_555 1_555
O12 C37 1_555 1_555
S15 C17 1_555 1_555
S16 C16 1_555 1_555
S19 C10 1_555 1_555
S20 C10 1_555 1_555
S21 C25 1_555 1_555
S22 C23 1_555 1_555
S23 C21 1_555 1_555
S24 C20 1_555 1_555
O28 Tb4 1_555 1_555
O29 C26 1_555 1_555
O88 C38 1_555 1_555
N4 C9 1_555 1_555
H59 O43 1_555 1_555
H60 O43 1_555 1_555
Tb15 O5 1_555 1_555
Tb18 O6 1_555 1_555
Tb19 O29 1_555 1_555
Tb22 O10 1_555 1_555
Tb26 O4 1_555 1_555
O76 Tb4 1_555 1_555
O79 Tb4 1_555 1_555
O81 Tb4 1_555 1_555
O85 Tb4 1_555 1_555
C18 S15 1_555 1_555
C18 S16 1_555 1_555
C22 S23 1_555 1_555
C22 S24 1_555 1_555
C24 S22 1_555 1_555
C26 O28 1_555 1_555
C28 S20 1_555 1_555
C29 S19 1_555 1_555
C36 N4 1_555 1_555
C37 N4 1_555 1_555
O1 Tb3 1_555 1_555
C1 H1 1_555 1_555
Tb18 O2 1_555 1_555
C2 H2 1_555 1_555
H3 C2 1_555 1_555
H4 C2 1_555 1_555
O2 C51 1_555 1_555
C3 C4 1_555 1_555
C4 S7 1_555 1_555
C5 H5 1_555 1_555
C6 C5 1_555 1_555
Tb3 O21 1_555 1_555
O7 C50 1_555 1_555
C7 O1 1_555 1_555
H6 C7 1_555 1_555
C8 H7 1_555 1_555
C11 S17 1_555 1_555
C12 H11 1_555 1_555
C13 C12 1_555 1_555
C14 C13 1_555 1_555
C19 S13 1_555 1_555
C35 N3 1_555 1_555
S7 C6 1_555 1_555
S8 C4 1_555 1_555
S9 C3 1_555 1_555
S10 C3 1_555 1_555
S11 C57 1_555 1_555
S12 C56 1_555 1_555
S13 C60 1_555 1_555
S14 C8 1_555 1_555
O16 Tb18 1_555 1_555
O17 C1 1_555 1_555
O18 C51 1_555 1_555
S17 C12 1_555 1_555
O19 Tb18 1_555 1_555
H36 O19 1_555 1_555
H37 O19 1_555 1_555
S18 C11 1_555 1_555
O20 C55 1_555 1_555
O21 C55 1_555 1_555
O22 Tb3 1_555 1_555
O23 C54 1_555 1_555
O24 C14 1_555 1_555
C48 S6 1_555 1_555
H39 C48 1_555 1_555
O25 Tb3 1_555 1_555
O26 Tb3 1_555 1_555
C50 O16 1_555 1_555
C51 C6 1_555 1_555
O27 C58 1_555 1_555
C52 S10 1_555 1_555
H40 C52 1_555 1_555
C53 S9 1_555 1_555
C54 O22 1_555 1_555
C55 C57 1_555 1_555
C56 H41 1_555 1_555
C57 C56 1_555 1_555
C58 O26 1_555 1_555
C59 S11 1_555 1_555
C60 C8 1_555 1_555
N3 C2 1_555 1_555
S27 C67 1_555 1_555
S28 C66 1_555 1_555
O79 C65 1_555 1_555
O34 C65 1_555 1_555
C65 C67 1_555 1_555
C66 H43 1_555 1_555
C67 C66 1_555 1_555
C68 C59 1_555 1_555
O35 Tb26 1_555 1_555
C69 H44 1_555 1_555
Tb22 O36 1_555 1_555
C70 H45 1_555 1_555
H46 C70 1_555 1_555
H47 C70 1_555 1_555
O36 C115 1_555 1_555
C71 C72 1_555 1_555
C72 S33 1_555 1_555
C73 H48 1_555 1_555
C74 C73 1_555 1_555
Tb26 O34 1_555 1_555
O68 C114 1_555 1_555
C75 O35 1_555 1_555
H49 C75 1_555 1_555
C76 H50 1_555 1_555
C79 S41 1_555 1_555
C80 H54 1_555 1_555
C81 C80 1_555 1_555
C82 C81 1_555 1_555
C87 S37 1_555 1_555
C103 N7 1_555 1_555
S33 C74 1_555 1_555
S34 C72 1_555 1_555
S35 C71 1_555 1_555
S36 C71 1_555 1_555
S37 C120 1_555 1_555
S38 C76 1_555 1_555
O48 Tb22 1_555 1_555
O49 C69 1_555 1_555
O50 C115 1_555 1_555
S41 C80 1_555 1_555
O51 Tb22 1_555 1_555
H78 O51 1_555 1_555
H79 O51 1_555 1_555
S42 C79 1_555 1_555
O52 Tb26 1_555 1_555
O81 C118 1_555 1_555
O54 C82 1_555 1_555
C112 S32 1_555 1_555
H81 C112 1_555 1_555
O55 Tb26 1_555 1_555
O56 Tb26 1_555 1_555
C114 O48 1_555 1_555
C115 C74 1_555 1_555
O85 C119 1_555 1_555
C116 S36 1_555 1_555
H82 C116 1_555 1_555
C117 S35 1_555 1_555
C118 O52 1_555 1_555
C119 O56 1_555 1_555
C120 C76 1_555 1_555
N7 C70 1_555 1_555
Tb12 O24 1_555 1_555
Tb15 O7 1_555 1_555
Tb16 O54 1_555 1_555
O62 Tb3 1_555 1_555
O66 Tb22 1_555 1_555
Tb29 O18 1_555 1_555
Tb30 O20 1_555 1_555
Tb31 O50 1_555 1_555
O70 Tb18 1_555 1_555
O72 Tb18 1_555 1_555
O74 Tb3 1_555 1_555
O75 Tb26 1_555 1_555
O86 Tb18 1_555 1_555
O87 Tb22 1_555 1_555
Tb18 O17 1_555 1_555
C5 S8 1_555 1_555
C7 N3 1_555 1_555
C13 S18 1_555 1_555
C14 O25 1_555 1_555
C19 S14 1_555 1_555
S12 C59 1_555 1_555
O23 Tb30 1_555 1_555
C48 C49 1_555 1_555
C49 C50 1_555 1_555
O27 Tb30 1_555 1_555
C52 C53 1_555 1_555
C53 C54 1_555 1_555
C58 C60 1_555 1_555
S27 C68 1_555 1_555
S28 C68 1_555 1_555
Tb22 O49 1_555 1_555
C73 S34 1_555 1_555
C75 N7 1_555 1_555
C81 S42 1_555 1_555
C82 O55 1_555 1_555
C87 S38 1_555 1_555
C112 C113 1_555 1_555
C113 C114 1_555 1_555
C116 C117 1_555 1_555
C117 C118 1_555 1_555
C119 C120 1_555 1_555
C103 H83 1_555 1_555
C103 H84 1_555 1_555
C103 H85 1_555 1_555
C35 H86 1_555 1_555
C35 H87 1_555 1_555
C35 H88 1_555 1_555
H16 O9 1_555 1_555
H17 O9 1_555 1_555
C40 S1 1_555 1_555
H35 C40 1_555 1_555
S26 C61 1_555 1_555
O72 C64 1_555 1_555
O32 C64 1_555 1_555
C63 S26 1_555 1_555
C64 C63 1_555 1_555
O37 Tb30 1_555 1_555
O62 C95 1_555 1_555
O64 C83 1_555 1_555
O66 C83 1_555 1_555
Tb30 O45 1_555 1_555
C77 H51 1_555 1_555
H52 C77 1_555 1_555
H53 C77 1_555 1_555
C83 C84 1_555 1_555
C84 C85 1_555 1_555
C85 H55 1_555 1_555
C88 C89 1_555 1_555
C89 H56 1_555 1_555
C90 C91 1_555 1_555
C91 S45 1_555 1_555
C92 H57 1_555 1_555
C93 C92 1_555 1_555
C94 C93 1_555 1_555
C95 O37 1_555 1_555
C96 C95 1_555 1_555
C97 C96 1_555 1_555
H58 C97 1_555 1_555
C104 H74 1_555 1_555
H75 C104 1_555 1_555
H76 C104 1_555 1_555
C105 H77 1_555 1_555
C106 C88 1_555 1_555
O70 C106 1_555 1_555
O45 C105 1_555 1_555
S39 C85 1_555 1_555
S40 C84 1_555 1_555
S43 C78 1_555 1_555
S44 C78 1_555 1_555
S45 C93 1_555 1_555
S46 C91 1_555 1_555
S47 C89 1_555 1_555
S48 C88 1_555 1_555
O58 Tb30 1_555 1_555
O59 C94 1_555 1_555
O60 C106 1_555 1_555
N8 C77 1_555 1_555
Tb15 O32 1_555 1_555
Tb23 O59 1_555 1_555
O77 Tb30 1_555 1_555
C86 S39 1_555 1_555
C86 S40 1_555 1_555
C90 S47 1_555 1_555
C90 S48 1_555 1_555
C92 S46 1_555 1_555
C94 O58 1_555 1_555
C96 S44 1_555 1_555
C97 S43 1_555 1_555
C104 N8 1_555 1_555
C105 N8 1_555 1_555
O60 Tb15 1_555 1_555
Tb15 O42 1_555 1_555
S29 C108 1_555 1_555
O42 C107 1_555 1_555
S30 C109 1_555 1_555
N6 C98 1_555 1_555
C98 H61 1_555 1_555
C99 N6 1_555 1_555
H62 C99 1_555 1_555
H63 C99 1_555 1_555
H64 C99 1_555 1_555
C100 N6 1_555 1_555
H65 C100 1_555 1_555
H66 C100 1_555 1_555
H67 C100 1_555 1_555
O46 Tb15 1_555 1_555
O47 C107 1_555 1_555
C107 C108 1_555 1_555
C108 C109 1_555 1_555
C109 H80 1_555 1_555
C110 S29 1_555 1_555
Tb27 O47 1_555 1_555
O83 Tb15 1_555 1_555
S30 C110 1_555 1_555
C98 O46 1_555 1_555
O31 C64_2 1_555 1_555
Tb19 O31 1_555 1_555
O44 Tb19 1_555 1_555
Tb12 O8_2 1_555 1_555
C1_2 H1_2 1_555 1_555
S1_2 C39_2 1_555 1_555
Tb19 O2_2 1_555 1_555
O2_2 C51_2 1_555 1_555
C4_2 S7_2 1_555 1_555
C5_2 H5_2 1_555 1_555
C6_2 C5_2 1_555 1_555
N1_2 C1_2 1_555 1_555
S3_2 C44_2 1_555 1_555
O8_2 C43_2 1_555 1_555
S4_2 C45_2 1_555 1_555
S5_2 C47_2 1_555 1_555
O9_2 Tb12 1_555 1_555
H16_2 O9_2 1_555 1_555
H17_2 O9_2 1_555 1_555
N2_2 C30_2 1_555 1_555
C30_2 H18_2 1_555 1_555
C31_2 N2_2 1_555 1_555
H19_2 C31_2 1_555 1_555
H20_2 C31_2 1_555 1_555
H21_2 C31_2 1_555 1_555
C32_2 N2_2 1_555 1_555
H22_2 C32_2 1_555 1_555
H23_2 C32_2 1_555 1_555
H24_2 C32_2 1_555 1_555
C33_2 N1_2 1_555 1_555
H25_2 C33_2 1_555 1_555
H26_2 C33_2 1_555 1_555
H27_2 C33_2 1_555 1_555
C34_2 N1_2 1_555 1_555
H28_2 C34_2 1_555 1_555
H29_2 C34_2 1_555 1_555
H30_2 C34_2 1_555 1_555
S6_2 C47_2 1_555 1_555
S7_2 C6_2 1_555 1_555
S8_2 C4_2 1_555 1_555
O13_2 Tb12 1_555 1_555
O14_2 Tb12 1_555 1_555
O74 C43_2 1_555 1_555
O16_2 Tb19 1_555 1_555
C40_2 S1_2 1_555 1_555
H35_2 C40_2 1_555 1_555
O17_2 C1_2 1_555 1_555
O76 C51_2 1_555 1_555
O19_2 Tb19 1_555 1_555
H36_2 O19_2 1_555 1_555
H37_2 O19_2 1_555 1_555
C43_2 C44_2 1_555 1_555
C44_2 C45_2 1_555 1_555
C45_2 H38_2 1_555 1_555
C46_2 S3_2 1_555 1_555
C47_2 C46_2 1_555 1_555
C48_2 S6_2 1_555 1_555
H39_2 C48_2 1_555 1_555
C49_2 S5_2 1_555 1_555
C50_2 O16_2 1_555 1_555
C51_2 C6_2 1_555 1_555
C77_2 H51_2 1_555 1_555
H52_2 C77_2 1_555 1_555
H53_2 C77_2 1_555 1_555
O64_2 Tb12 1_555 1_555
O65 Tb19 1_555 1_555
O68_2 Tb12 1_555 1_555
O88_2 Tb12 1_555 1_555
Tb19 O17_2 1_555 1_555
C5_2 S8_2 1_555 1_555
S4_2 C46_2 1_555 1_555
C30_2 O14_2 1_555 1_555
C40_2 C41_2 1_555 1_555
C48_2 C49_2 1_555 1_555
C49_2 C50_2 1_555 1_555
C103_2 H83_2 1_555 1_555
C103_2 H84_2 1_555 1_555
C103_2 H85_2 1_555 1_555
Tb25 O21_2 1_555 1_555
C10_2 C11_2 1_555 1_555
C11_2 S17_2 1_555 1_555
C12_2 H11_2 1_555 1_555
C13_2 C12_2 1_555 1_555
C14_2 C13_2 1_555 1_555
C16_2 C17_2 1_555 1_555
C17_2 H12_2 1_555 1_555
C18_2 C19_2 1_555 1_555
C19_2 S13_2 1_555 1_555
S9_2 C3_2 1_555 1_555
S10_2 C3_2 1_555 1_555
S13_2 C60_2 1_555 1_555
S15_2 C17_2 1_555 1_555
S17_2 C12_2 1_555 1_555
S18_2 C11_2 1_555 1_555
S20_2 C10_2 1_555 1_555
O22_2 Tb25 1_555 1_555
O80 C54_2 1_555 1_555
O82 C14_2 1_555 1_555
O25_2 Tb25 1_555 1_555
O26_2 Tb25 1_555 1_555
C52_2 S10_2 1_555 1_555
H40_2 C52_2 1_555 1_555
C53_2 S9_2 1_555 1_555
C54_2 O22_2 1_555 1_555
C58_2 O26_2 1_555 1_555
C13_2 S18_2 1_555 1_555
C14_2 O25_2 1_555 1_555
C18_2 S15_2 1_555 1_555
C52_2 C53_2 1_555 1_555
C53_2 C54_2 1_555 1_555
C58_2 C60_2 1_555 1_555
S27_2 C67_2 1_555 1_555
O33 C65_2 1_555 1_555
C65_2 C67_2 1_555 1_555
O64_2 C83_2 1_555 1_555
C76_2 H50_2 1_555 1_555
S38_2 C76_2 1_555 1_555
Tb29 O33 1_555 1_555
O57 Tb29 1_555 1_555
C2_2 H2_2 1_555 1_555
H3_2 C2_2 1_555 1_555
H4_2 C2_2 1_555 1_555
O3_2 Tb29 1_555 1_555
O61 C27_2 1_555 1_555
C7_2 O1_2 1_555 1_555
H6_2 C7_2 1_555 1_555
Tb29 O12_2 1_555 1_555
C23_2 S21_2 1_555 1_555
C24_2 H14_2 1_555 1_555
C25_2 C24_2 1_555 1_555
C26_2 C25_2 1_555 1_555
C27_2 O3_2 1_555 1_555
C28_2 C27_2 1_555 1_555
C29_2 C28_2 1_555 1_555
H15_2 C29_2 1_555 1_555
C36_2 H31_2 1_555 1_555
H32_2 C36_2 1_555 1_555
H33_2 C36_2 1_555 1_555
C37_2 H34_2 1_555 1_555
O12_2 C37_2 1_555 1_555
S12_2 C56_2 1_555 1_555
S21_2 C25_2 1_555 1_555
S22_2 C23_2 1_555 1_555
O28_2 Tb29 1_555 1_555
O86 C26_2 1_555 1_555
C56_2 H41_2 1_555 1_555
N3_2 C2_2 1_555 1_555
C7_2 N3_2 1_555 1_555
C24_2 S22_2 1_555 1_555
C26_2 O28_2 1_555 1_555
C29_2 S19_2 1_555 1_555
C36_2 N4_2 1_555 1_555
C37_2 N4_2 1_555 1_555
C20_2 C21_2 1_555 1_555
C21_2 H13_2 1_555 1_555
C38_2 C20_2 1_555 1_555
S23_2 C21_2 1_555 1_555
S24_2 C20_2 1_555 1_555
O88_2 C38_2 1_555 1_555
C22_2 S23_2 1_555 1_555
C22_2 S24_2 1_555 1_555
S25_2 C61_2 1_555 1_555
C62_2 S25_2 1_555 1_555
H42_2 C62_2 1_555 1_555
C88_2 C89_2 1_555 1_555
C89_2 H56_2 1_555 1_555
C106_2 C88_2 1_555 1_555
S47_2 C89_2 1_555 1_555
S48_2 C88_2 1_555 1_555
O60_2 C106_2 1_555 1_555
Tb16 O32_2 1_555 1_555
C62_2 C63_2 1_555 1_555
C90_2 S47_2 1_555 1_555
C90_2 S48_2 1_555 1_555
O60_2 Tb16 1_555 1_555
O11_2 C42_2 1_555 1_555
S28_2 C66_2 1_555 1_555
C66_2 H43_2 1_555 1_555
C70_2 H45_2 1_555 1_555
H46_2 C70_2 1_555 1_555
H47_2 C70_2 1_555 1_555
O37_2 Tb31 1_555 1_555
O38 C95_2 1_555 1_555
C75_2 O35_2 1_555 1_555
H49_2 C75_2 1_555 1_555
Tb31 O45_2 1_555 1_555
C91_2 S45_2 1_555 1_555
C92_2 H57_2 1_555 1_555
C93_2 C92_2 1_555 1_555
C94_2 C93_2 1_555 1_555
C95_2 O37_2 1_555 1_555
C96_2 C95_2 1_555 1_555
C97_2 C96_2 1_555 1_555
H58_2 C97_2 1_555 1_555
C104_2 H74_2 1_555 1_555
H75_2 C104_2 1_555 1_555
H76_2 C104_2 1_555 1_555
C105_2 H77_2 1_555 1_555
O45_2 C105_2 1_555 1_555
S45_2 C93_2 1_555 1_555
S46_2 C91_2 1_555 1_555
O58_2 Tb31 1_555 1_555
O87 C94_2 1_555 1_555
N7_2 C70_2 1_555 1_555
Tb16 O7_2 1_555 1_555
Tb23 O11_2 1_555 1_555
O78 Tb31 1_555 1_555
O84 Tb31 1_555 1_555
C75_2 N7_2 1_555 1_555
C92_2 S46_2 1_555 1_555
C94_2 O58_2 1_555 1_555
C97_2 S43_2 1_555 1_555
C104_2 N8_2 1_555 1_555
C105_2 N8_2 1_555 1_555
O5_2 C15_2 1_555 1_555
C8_2 H7_2 1_555 1_555
S11_2 C57_2 1_555 1_555
S14_2 C8_2 1_555 1_555
O78 C55_2 1_555 1_555
C55_2 C57_2 1_555 1_555
Tb16 O5_2 1_555 1_555
Tb27 O34_2 1_555 1_555
C78_2 C79_2 1_555 1_555
C79_2 S41_2 1_555 1_555
C80_2 H54_2 1_555 1_555
C81_2 C80_2 1_555 1_555
C82_2 C81_2 1_555 1_555
C84_2 C85_2 1_555 1_555
C85_2 H55_2 1_555 1_555
C86_2 C87_2 1_555 1_555
C87_2 S37_2 1_555 1_555
S35_2 C71_2 1_555 1_555
S36_2 C71_2 1_555 1_555
S37_2 C120_2 1_555 1_555
S39_2 C85_2 1_555 1_555
S41_2 C80_2 1_555 1_555
S42_2 C79_2 1_555 1_555
S44_2 C78_2 1_555 1_555
O52_2 Tb27 1_555 1_555
O53 C118_2 1_555 1_555
O83 C82_2 1_555 1_555
O55_2 Tb27 1_555 1_555
O56_2 Tb27 1_555 1_555
C116_2 S36_2 1_555 1_555
H82_2 C116_2 1_555 1_555
C117_2 S35_2 1_555 1_555
C118_2 O52_2 1_555 1_555
C119_2 O56_2 1_555 1_555
Tb23 O40 1_555 1_555
C81_2 S42_2 1_555 1_555
C82_2 O55_2 1_555 1_555
C86_2 S39_2 1_555 1_555
C116_2 C117_2 1_555 1_555
C117_2 C118_2 1_555 1_555
C119_2 C120_2 1_555 1_555
C9_2 H8_2 1_555 1_555
H9_2 C9_2 1_555 1_555
H10_2 C9_2 1_555 1_555
Tb16 O42_2 1_555 1_555
C69_2 H44_2 1_555 1_555
Tb23 O36_2 1_555 1_555
O36_2 C115_2 1_555 1_555
C72_2 S33_2 1_555 1_555
C73_2 H48_2 1_555 1_555
C74_2 C73_2 1_555 1_555
N5 C69_2 1_555 1_555
S29_2 C108_2 1_555 1_555
O42_2 C107_2 1_555 1_555
S30_2 C109_2 1_555 1_555
S31 C111 1_555 1_555
O43_2 Tb16 1_555 1_555
H59_2 O43_2 1_555 1_555
H60_2 O43_2 1_555 1_555
N6_2 C98_2 1_555 1_555
C98_2 H61_2 1_555 1_555
C99_2 N6_2 1_555 1_555
H62_2 C99_2 1_555 1_555
H63_2 C99_2 1_555 1_555
H64_2 C99_2 1_555 1_555
C100_2 N6_2 1_555 1_555
H65_2 C100_2 1_555 1_555
H66_2 C100_2 1_555 1_555
H67_2 C100_2 1_555 1_555
C101 N5 1_555 1_555
H68 C101 1_555 1_555
H69 C101 1_555 1_555
H70 C101 1_555 1_555
C102 N5 1_555 1_555
H71 C102 1_555 1_555
H72 C102 1_555 1_555
H73_2 C102 1_555 1_555
S32_2 C111 1_555 1_555
S33_2 C74_2 1_555 1_555
S34_2 C72_2 1_555 1_555
O46_2 Tb16 1_555 1_555
O75 C107_2 1_555 1_555
O48_2 Tb23 1_555 1_555
O49_2 C69_2 1_555 1_555
O77 C115_2 1_555 1_555
O51_2 Tb23 1_555 1_555
H78_2 O51_2 1_555 1_555
H79_2 O51_2 1_555 1_555
C107_2 C108_2 1_555 1_555
C108_2 C109_2 1_555 1_555
C109_2 H80_2 1_555 1_555
C110_2 S29_2 1_555 1_555
C111 C110_2 1_555 1_555
C112_2 S32_2 1_555 1_555
H81_2 C112_2 1_555 1_555
C113_2 S31 1_555 1_555
C114_2 O48_2 1_555 1_555
C115_2 C74_2 1_555 1_555
O69 Tb23 1_555 1_555
Tb23 O49_2 1_555 1_555
C73_2 S34_2 1_555 1_555
S30_2 C110_2 1_555 1_555
C98_2 O46_2 1_555 1_555
C112_2 C113_2 1_555 1_555
C113_2 C114_2 1_555 1_555
C35_2 H86_2 1_555 1_555
C35_2 H87_2 1_555 1_555
C35_2 H88_2 1_555 1_555
S31_2 C111_2 1_555 1_555
C101_2 N5_2 1_555 1_555
H68_2 C101_2 1_555 1_555
H69_2 C101_2 1_555 1_555
H70_2 C101_2 1_555 1_555
C102_2 N5_2 1_555 1_555
H71_2 C102_2 1_555 1_555
H72_2 C102_2 1_555 1_555

#END
