
###############################################################################
#
# This file contains modified crystal structure data generated from the
# MOF subset of the Cambridge Structural Database (CSD) v543 
# hosted by the Cambridge Crystallographic Data Centre (CCDC).
#
# This work is licensed under the Creative Commons
# Attribution-NonCommercial-ShareAlike 4.0 International License.
# To view a copy of this license, visit
# http://creativecommons.org/licenses/by-nc-sa/4.0/
# or send a letter to
# Creative Commons, PO Box 1866, Mountain View, CA 94042, USA.
#
# CIF created using the CSD Python API on 29 September 2022
# The structure has been converted into the P1 space group
# The structure has a 3D framework
# The original CSD entry VECPIG is in the monoclinic crystal system
# The framework has been calculated to contain at least 10.0% void space
# The void calculation uses a probe of radius 1.32A, grid spacing 0.4
#
###############################################################################

data_VECPIG
_chemical_formula_moiety         '(C240 H176 Gd16 N16 O115 S96)n'
_symmetry_cell_setting           triclinic
_symmetry_space_group_name_H-M   'P 1'
_symmetry_Int_Tables_number      1
_space_group_name_Hall           'P 1'
loop_
_symmetry_equiv_pos_site_id
_symmetry_equiv_pos_as_xyz
1 x,y,z
_cell_length_a                   17.6826(7)
_cell_length_b                   23.109(5)
_cell_length_c                   26.232(9)
_cell_angle_alpha                90
_cell_angle_beta                 102.869(12)
_cell_angle_gamma                90
_cell_volume                     10449.9
loop_
_atom_site_label
_atom_site_type_symbol
_atom_site_fract_x
_atom_site_fract_y
_atom_site_fract_z
S13 S 0.42579(17) 0.04466(14) 0.04452(10)
S16 S 0.26594(16) 0.02968(16) 0.55300(11)
O9 O 0.5228(4) 0.0374(3) 0.6774(2)
O10 O 0.4361(4) 0.0933(3) 0.7018(2)
O27 O 0.3512(5) 0.0146(3) 0.2474(3)
H19 H 0.318372 0.021328 0.217976
H20 H 0.390355 0.036943 0.245884
C9 C 0.4559(6) 0.0577(4) 0.6721(3)
C22 C 0.3967(6) 0.0390(4) 0.6248(4)
C33 C 0.4389(6) 0.0151(5) 0.1057(4)
H21 H 0.407730 0.026582 0.128165
C43 C 0.3246(6) 0.0570(5) 0.6101(4)
H25 H 0.305169 0.084135 0.630057
C45 C 0.4942(6) 0.0004(5) 0.0244(4)
Gd14 Gd 0.60811(2) 0.08965(2) 0.74766(2)
Gd18 Gd 0.38295(2) 0.16191(2) 0.75060(2)
S27 S 0.45183(16) 0.04416(13) 0.92511(9)
O33 O 0.5312(4) 0.0395(3) 0.7971(2)
O34 O 0.4330(4) 0.0889(3) 0.8190(2)
C65 C 0.4893(6) 0.0538(5) 0.8273(4)
C66 C 0.5059(6) 0.0243(5) 0.8792(4)
N8 N 0.7603(6) 0.0077(5) 0.2551(4)
C74 C 0.7680(9) 0.0520(6) 0.2174(6)
H60 H 0.817889 0.048717 0.208861
H61 H 0.728041 0.047136 0.186240
H62 H 0.763182 0.089522 0.232062
C119 C 0.7980(8) 0.0150(6) 0.3088(5)
H84 H 0.847212 0.033609 0.311089
H85 H 0.766283 0.038403 0.325870
Gd1 Gd 0.39189(2) 0.91035(2) 0.25234(2)
N1 N 0.2457(6) 0.7426(4) 0.2522(4)
S2 S 0.25406(13) 0.96385(13) 0.43842(9)
S4 S 0.42671(15) 0.98616(12) 0.58565(9)
S6 S 0.43891(15) 0.73581(13) 0.08826(9)
S7 S 0.54817(16) 0.95584(13) 0.07489(9)
S12 S 0.41660(16) 0.92701(15) 0.47632(9)
S21 S 0.27287(16) 0.76689(18) 0.05933(11)
O6 O 0.4688(4) 0.9605(3) 0.2029(2)
O7 O 0.4427(4) 0.8413(3) 0.2040(2)
O11 O 0.5308(4) 0.7874(3) 0.1796(2)
O12 O 0.5670(4) 0.9111(3) 0.1810(2)
O15 O 0.1953(4) 0.9551(3) 0.3243(2)
O23 O 0.3011(4) 0.9211(3) 0.3045(2)
C8 C 0.4637(6) 0.8057(5) 0.1743(4)
O29 O 0.2998(5) 0.8251(3) 0.2356(3)
C12 C 0.5107(6) 0.9462(5) 0.1727(4)
C13 C 0.2648(6) 0.9398(5) 0.3363(4)
C24 C 0.4941(6) 0.9757(5) 0.1208(4)
C26 C 0.4047(6) 0.7852(5) 0.1283(4)
C28 C 0.3052(6) 0.9421(5) 0.3916(4)
C31 C 0.3411(6) 0.9890(5) 0.5363(4)
C35 C 0.3364(6) 0.9637(5) 0.4900(4)
C44 C 0.3790(6) 0.9250(5) 0.4095(4)
H26 H 0.409054 0.912579 0.386721
C46 C 0.3516(6) 0.7330(5) 0.0401(4)
C48 C 0.3296(6) 0.7986(5) 0.1149(4)
H28 H 0.307972 0.824383 0.134930
C54 C 0.2848(7) 0.7879(5) 0.2635(4)
H32 H 0.305467 0.793357 0.299020
C57 C 0.2048(8) 0.7345(6) 0.1988(5)
H35 H 0.197621 0.771302 0.181397
H36 H 0.155131 0.717326 0.198058
H37 H 0.234349 0.709557 0.181412
C60 C 0.2365(8) 0.7004(6) 0.2888(5)
H42 H 0.185134 0.702806 0.294966
H43 H 0.273844 0.706818 0.320957
H44 H 0.244414 0.662762 0.275415
Gd21 Gd 0.61705(2) 0.83809(2) 0.24940(2)
Gd24 Gd 0.10649(2) 0.92615(2) 0.24542(2)
O61 O 0.4418(4) 0.8376(3) 0.3218(2)
O67 O 0.4772(4) 0.9626(3) 0.3226(2)
O82 O 0.3003(4) 0.9272(3) 0.1703(2)
O1 O 0.4167(6) 0.7740(3) 0.7568(4)
N2 N 0.4523(8) 0.6182(5) 0.2443(6)
Gd3 Gd 0.39351(2) 0.42615(2) 0.25458(2)
O2 O 0.5390(4) 0.7890(3) 0.2986(2)
N3 N 0.4503(8) 0.8671(5) 0.7447(5)
Gd4 Gd 0.40357(2) 0.67190(2) 0.75570(2)
O3 O 0.4810(4) 0.4397(4) 0.2018(3)
C1 C 0.5260(8) 0.8656(6) 0.7793(5)
H1 H 0.547201 0.827354 0.779623
H2 H 0.521679 0.875927 0.813992
H3 H 0.559501 0.892631 0.767352
S1 S 0.26746(14) 0.70223(12) 0.94275(9)
O4 O 0.3823(4) 0.5887(3) 0.7050(3)
C2 C 0.4285(8) 0.9204(6) 0.7214(5)
H4 H 0.468116 0.933978 0.704553
H5 H 0.421912 0.947671 0.747657
H6 H 0.380586 0.916308 0.695948
C3 C 0.4013(7) 0.8208(5) 0.7408(4)
H7 H 0.350071 0.827233 0.723512
S3 S 0.25417(14) 0.44744(13) 0.44183(9)
C4 C 0.5232(8) 0.6180(7) 0.2822(5)
H8 H 0.546180 0.580224 0.283710
H9 H 0.513547 0.627685 0.315736
H10 H 0.557870 0.645931 0.272744
C5 C 0.4304(9) 0.6713(6) 0.2194(6)
H11 H 0.453021 0.674846 0.189529
H12 H 0.448355 0.702313 0.243387
H13 H 0.374941 0.672938 0.208400
S8 S 0.46282(16) 0.78913(14) 0.42811(10)
S9 S 0.40363(15) 0.24434(14) 0.08711(9)
S11 S 0.42463(15) 0.44453(15) 0.47873(10)
S14 S 0.41456(15) 0.48997(15) 0.59030(10)
S15 S 0.43906(17) 0.78363(15) 0.54950(11)
S17 S 0.57037(17) 0.70177(15) 0.57656(10)
S18 S 0.55743(18) 0.45743(15) 0.07402(10)
S19 S 0.43687(17) 0.68888(18) 0.97764(10)
S20 S 0.59118(19) 0.70514(16) 0.45747(11)
S22 S 0.42276(19) 0.53580(17) 0.04675(11)
S23 S 0.23610(17) 0.2702(2) 0.05020(12)
S24 S 0.24462(16) 0.50447(18) 0.55666(11)
O8 O 0.4882(4) 0.5531(3) 0.6821(2)
C7 C 0.4980(6) 0.8019(5) 0.3298(4)
O13 O 0.4795(4) 0.3059(3) 0.1811(2)
O14 O 0.2089(3) 0.6808(3) 0.8313(2)
O16 O 0.5946(4) 0.6475(3) 0.6792(2)
O17 O 0.3084(4) 0.4490(4) 0.3055(2)
O18 O 0.3737(4) 0.3435(3) 0.2029(3)
O20 O 0.4915(4) 0.6834(4) 0.7030(2)
O21 O 0.3177(4) 0.6954(4) 0.8051(2)
O22 O 0.1997(4) 0.4272(3) 0.3297(2)
O24 O 0.5825(4) 0.4019(3) 0.1768(3)
C11 C 0.2792(6) 0.6896(5) 0.8398(4)
O30 O 0.4074(6) 0.5286(3) 0.2580(4)
C14 C 0.5361(6) 0.6791(5) 0.6724(4)
C15 C 0.2694(6) 0.4396(5) 0.3393(4)
C16 C 0.4164(6) 0.5607(5) 0.6751(4)
C18 C 0.3104(6) 0.4440(5) 0.3944(4)
C19 C 0.4077(6) 0.3157(5) 0.1732(4)
C20 C 0.3211(6) 0.6940(5) 0.8950(4)
C21 C 0.5236(6) 0.4344(5) 0.1707(4)
C23 C 0.5164(6) 0.7727(5) 0.3814(4)
C27 C 0.5145(6) 0.7125(5) 0.6231(4)
C29 C 0.5200(6) 0.7452(5) 0.4786(4)
C30 C 0.5010(6) 0.4673(5) 0.1206(4)
C32 C 0.3504(6) 0.7101(5) 0.9938(4)
C34 C 0.3677(6) 0.5353(5) 0.6279(4)
C36 C 0.3593(6) 0.2914(5) 0.1248(4)
C38 C 0.4556(6) 0.7489(5) 0.6095(4)
H23 H 0.422970 0.755837 0.632144
C39 C 0.5111(6) 0.7438(5) 0.5268(4)
C40 C 0.3311(6) 0.4808(5) 0.5404(4)
C41 C 0.3351(6) 0.4590(5) 0.4937(4)
C42 C 0.5751(6) 0.7358(5) 0.3963(4)
H24 H 0.607153 0.726746 0.373719
C47 C 0.3884(6) 0.4427(5) 0.4128(4)
H27 H 0.421591 0.440929 0.389851
C49 C 0.4963(6) 0.4992(5) 0.0245(4)
C50 C 0.3203(6) 0.2392(5) 0.0354(4)
C51 C 0.2920(6) 0.5411(5) 0.6115(4)
H29 H 0.264475 0.564777 0.629592
C53 C 0.2846(6) 0.3022(5) 0.1078(4)
H31 H 0.258645 0.326573 0.126354
C55 C 0.3977(6) 0.6889(5) 0.9115(4)
H33 H 0.429390 0.685338 0.887676
C56 C 0.4414(6) 0.5022(5) 0.1075(4)
H34 H 0.409356 0.509016 0.130579
C58 C 0.3988(7) 0.5735(5) 0.2414(4)
H38 H 0.348687 0.582075 0.223196
S28 S 0.57421(17) 0.95534(14) 0.95548(10)
C67 C 0.5611(6) 0.9849(5) 0.8943(4)
H46 H 0.592270 0.973418 0.871835
C68 C 0.5058(6) 0.9996(5) 0.9756(4)
S33 S 0.75885(13) 0.78968(13) 0.06285(9)
S37 S 0.59192(15) 0.81174(15) 0.02364(9)
O50 O 0.7058(4) 0.8289(3) 0.1958(2)
O55 O 0.8147(3) 0.8003(3) 0.1773(3)
O56 O 0.6559(4) 0.7339(3) 0.2523(3)
H63 H 0.678073 0.724370 0.283965
H64 H 0.615122 0.712090 0.245050
O58 O 0.7078(5) 0.9228(3) 0.2681(3)
C78 C 0.7434(6) 0.8116(5) 0.1643(4)
C84 C 0.7045(6) 0.8077(5) 0.1085(4)
C90 C 0.6782(6) 0.7843(5) 0.0104(4)
C100 C 0.6287(6) 0.8171(5) 0.0902(4)
H67 H 0.596615 0.826299 0.112751
C113 C 0.7211(7) 0.9618(6) 0.2412(5)
H75 H 0.700015 0.958054 0.205603
H83 H 0.806026 0.977814 0.325472
Gd11 Gd 0.10811(2) 0.41035(2) 0.24766(2)
Gd19 Gd 0.11705(2) 0.66191(2) 0.74940(2)
Gd25 Gd 0.60649(2) 0.57385(2) 0.74542(2)
Gd29 Gd 0.59643(2) 0.32810(2) 0.24430(2)
Gd30 Gd 0.90357(2) 0.82810(2) 0.25570(2)
O65 O 0.5118(4) 0.4469(3) 0.3179(2)
O69 O 0.5639(4) 0.9067(3) 0.2982(2)
O75 O 0.5205(4) 0.6941(3) 0.8189(2)
O77 O 0.7089(3) 0.8192(3) 0.3313(2)
O78 O 0.3047(4) 0.4551(3) 0.1757(2)
O81 O 0.4054(4) 0.3525(3) 0.3208(2)
O85 O 0.4175(4) 0.5981(3) 0.8232(3)
O86 O 0.3147(3) 0.6997(3) 0.6773(3)
S5 S 0.24115(13) 0.21032(13) 0.93715(9)
S10 S 0.40808(15) 0.18826(15) 0.97636(9)
O19 O 0.2942(4) 0.1711(3) 0.8042(2)
O25 O 0.1853(3) 0.1997(3) 0.8227(3)
O26 O 0.3441(4) 0.2661(3) 0.7477(3)
H17 H 0.321927 0.275630 0.716035
H18 H 0.384878 0.287910 0.754950
O28 O 0.2922(5) 0.0772(3) 0.7319(3)
C10 C 0.2566(6) 0.1884(5) 0.8357(4)
C17 C 0.2955(6) 0.1923(5) 0.8915(4)
C25 C 0.3218(6) 0.2157(5) 0.9896(4)
C37 C 0.3713(6) 0.1829(5) 0.9098(4)
H22 H 0.403385 0.173701 0.887249
C52 C 0.2789(7) 0.0382(6) 0.7588(5)
H30 H 0.299985 0.041946 0.794397
H39 H 0.193974 0.022186 0.674528
O31 O 0.5190(4) 0.5603(4) 0.7982(3)
S25 S 0.44257(18) 0.54257(15) 0.92598(10)
S26 S 0.57724(19) 0.46420(17) 0.95325(11)
C61 C 0.4764(6) 0.5656(5) 0.8293(4)
C62 C 0.4990(6) 0.5327(5) 0.8794(4)
C63 C 0.5037(6) 0.5008(5) 0.9755(4)
C64 C 0.5586(6) 0.4978(5) 0.8925(4)
H45 H 0.590644 0.490984 0.869421
O35 O 0.5833(6) 0.2260(3) 0.2432(4)
N6 N 0.5477(8) 0.3818(5) 0.7557(6)
O36 O 0.4610(4) 0.2110(3) 0.7014(2)
N7 N 0.5497(8) 0.1329(5) 0.2553(5)
C69 C 0.4740(8) 0.1344(6) 0.2207(5)
H47 H 0.452799 0.172646 0.220377
H48 H 0.478321 0.124073 0.186008
H49 H 0.440499 0.107369 0.232648
S29 S 0.73254(14) 0.29777(12) 0.05725(9)
O37 O 0.6177(4) 0.4113(3) 0.2950(3)
C70 C 0.5715(8) 0.0796(6) 0.2786(5)
H50 H 0.531884 0.066022 0.295447
H51 H 0.578088 0.052329 0.252343
H52 H 0.619414 0.083692 0.304052
C71 C 0.5987(7) 0.1792(5) 0.2592(4)
H53 H 0.649929 0.172767 0.276488
S31 S 0.74583(14) 0.55256(13) 0.55817(9)
C72 C 0.4768(8) 0.3820(7) 0.7178(5)
H54 H 0.453820 0.419776 0.716290
H55 H 0.486453 0.372315 0.684264
H56 H 0.442130 0.354069 0.727256
C73 C 0.5696(9) 0.3287(6) 0.7806(6)
H57 H 0.546979 0.325154 0.810471
H58 H 0.551645 0.297687 0.756613
H59 H 0.625059 0.327062 0.791600
S35 S 0.53718(16) 0.21087(14) 0.57189(10)
S36 S 0.59637(15) 0.75566(14) 0.91289(9)
S38 S 0.57537(15) 0.55547(15) 0.52127(10)
S40 S 0.58544(15) 0.51003(15) 0.40970(10)
S41 S 0.56094(17) 0.21637(15) 0.45050(11)
S43 S 0.42963(17) 0.29823(15) 0.42344(10)
S44 S 0.56313(17) 0.31112(18) 0.02236(10)
S45 S 0.40882(19) 0.29486(16) 0.54253(11)
S47 S 0.76390(17) 0.7298(2) 0.94980(12)
S48 S 0.75538(16) 0.49553(18) 0.44334(11)
O38 O 0.5582(4) 0.1624(3) 0.6782(2)
C75 C 0.5020(6) 0.1981(5) 0.6702(4)
O45 O 0.7911(3) 0.3192(3) 0.1687(2)
O48 O 0.6916(4) 0.5510(4) 0.6945(2)
O49 O 0.6263(4) 0.6565(3) 0.7971(3)
O51 O 0.5085(4) 0.3166(4) 0.2970(2)
O52 O 0.6823(4) 0.3046(4) 0.1949(2)
O53 O 0.8003(4) 0.5728(3) 0.6703(2)
C79 C 0.7208(6) 0.3104(5) 0.1602(4)
O60 O 0.5926(6) 0.4714(3) 0.7420(4)
C81 C 0.4639(6) 0.3209(5) 0.3276(4)
C82 C 0.7306(6) 0.5604(5) 0.6607(4)
C83 C 0.5836(6) 0.4393(5) 0.3249(4)
C85 C 0.6896(6) 0.5560(5) 0.6056(4)
C86 C 0.5923(6) 0.6843(5) 0.8268(4)
C87 C 0.6789(6) 0.3060(5) 0.1050(4)
C89 C 0.4836(6) 0.2273(5) 0.6186(4)
C92 C 0.4855(6) 0.2875(5) 0.3769(4)
C94 C 0.4800(6) 0.2548(5) 0.5214(4)
C96 C 0.6496(6) 0.2899(5) 0.0062(4)
C97 C 0.6323(6) 0.4647(5) 0.3721(4)
C99 C 0.6407(6) 0.7086(5) 0.8752(4)
C101 C 0.5444(6) 0.2511(5) 0.3905(4)
H68 H 0.577030 0.244163 0.367856
C102 C 0.4889(6) 0.2562(5) 0.4732(4)
C103 C 0.6689(6) 0.5192(5) 0.4596(4)
C104 C 0.6649(6) 0.5410(5) 0.5063(4)
C105 C 0.4249(6) 0.2642(5) 0.6037(4)
H69 H 0.392847 0.273254 0.626281
C109 C 0.6116(6) 0.5573(5) 0.5872(4)
H72 H 0.578409 0.559071 0.610149
C111 C 0.6797(6) 0.7608(5) 0.9646(4)
C112 C 0.7080(6) 0.4589(5) 0.3885(4)
H74 H 0.735525 0.435223 0.370408
C114 C 0.7154(6) 0.6978(5) 0.8922(4)
H76 H 0.741355 0.673427 0.873646
C116 C 0.6023(6) 0.3111(5) 0.0885(4)
H78 H 0.570610 0.314662 0.112324
C118 C 0.6012(7) 0.4265(5) 0.7586(4)
H82 H 0.651313 0.417925 0.776804
Gd15 Gd 0.89189(2) 0.58965(2) 0.75234(2)
Gd22 Gd 0.88295(2) 0.33809(2) 0.25060(2)
Gd28 Gd 0.09643(2) 0.17190(2) 0.74430(2)
O71 O 0.4692(4) 0.2126(3) 0.8204(2)
O76 O 0.2911(3) 0.1808(3) 0.6687(2)
O79 O 0.6953(4) 0.5449(3) 0.8243(2)
O87 O 0.6853(3) 0.3003(3) 0.3227(3)
N5 N 0.7543(6) 0.2574(4) 0.7478(4)
S30 S 0.74594(13) 0.03615(13) 0.56158(9)
S32 S 0.57329(15) 0.01384(12) 0.41435(9)
S34 S 0.56109(15) 0.26419(13) 0.91174(9)
S39 S 0.58340(16) 0.07299(15) 0.52368(9)
S46 S 0.72713(16) 0.23311(18) 0.94067(11)
O39 O 0.5573(4) 0.1587(3) 0.7960(2)
O46 O 0.8047(4) 0.0449(3) 0.6757(2)
O54 O 0.6989(4) 0.0789(3) 0.6955(2)
C76 C 0.5363(6) 0.1943(5) 0.8257(4)
O59 O 0.7002(5) 0.1749(3) 0.7644(3)
C80 C 0.7352(6) 0.0602(5) 0.6637(4)
C91 C 0.5953(6) 0.2148(5) 0.8717(4)
C93 C 0.6948(6) 0.0579(5) 0.6084(4)
C95 C 0.6589(6) 0.0110(5) 0.4637(4)
C98 C 0.6636(6) 0.0363(5) 0.5100(4)
C107 C 0.6210(6) 0.0750(5) 0.5905(4)
H71 H 0.590946 0.087421 0.613279
C108 C 0.6484(6) 0.2670(5) 0.9599(4)
C110 C 0.6704(6) 0.2014(5) 0.8851(4)
H73 H 0.692028 0.175617 0.865070
C115 C 0.7152(7) 0.2121(5) 0.7365(4)
H77 H 0.694533 0.206643 0.700980
C117 C 0.7952(8) 0.2655(6) 0.8012(5)
H79 H 0.802379 0.228698 0.818603
H80 H 0.844869 0.282674 0.801942
H81 H 0.765651 0.290443 0.818588
C120 C 0.7635(8) 0.2996(6) 0.7112(5)
H86 H 0.814866 0.297194 0.705034
H87 H 0.726156 0.293182 0.679043
H88 H 0.755586 0.337238 0.724585
Gd26 Gd 0.89351(2) 0.07385(2) 0.75458(2)
O83 O 0.6997(4) 0.0728(3) 0.8297(2)
N4 N 0.2397(6) 0.9923(5) 0.7449(4)
C6 C 0.2320(9) 0.9480(6) 0.7826(6)
H14 H 0.182111 0.951283 0.791139
H15 H 0.271959 0.952864 0.813760
H16 H 0.236818 0.910478 0.767938
C59 C 0.2020(8) 0.9850(6) 0.6912(5)
H40 H 0.152788 0.966391 0.688911
H41 H 0.233717 0.961597 0.674130
S42 S 0.73406(16) 0.97032(16) 0.44700(11)
O57 O 0.6488(5) 0.9854(3) 0.7526(3)
H65 H 0.681628 0.978672 0.782024
H66 H 0.609645 0.963057 0.754116
C77 C 0.5441(6) 0.9423(4) 0.3279(3)
C88 C 0.6033(6) 0.9610(4) 0.3752(4)
C106 C 0.6754(6) 0.9430(5) 0.3899(4)
H70 H 0.694831 0.915865 0.369943
N2_2 N 0.0477(8) 0.1182(5) 0.2557(6)
C5_2 C 0.0696(9) 0.1713(6) 0.2806(6)
H11_2 H 0.046979 0.174846 0.310471
H12_2 H 0.051645 0.202313 0.256613
H13_2 H 0.125059 0.172938 0.291600
S8_2 S 0.03718(16) 0.28913(14) 0.07189(10)
S22_2 S 0.07724(19) 0.03580(17) 0.45325(11)
O5 O 0.0582(4) 0.3376(3) 0.1782(2)
C7_2 C 0.0020(6) 0.3019(5) 0.1702(4)
O30_2 O 0.0926(6) 0.0286(3) 0.2420(4)
C56_2 C 0.0586(6) 0.0022(5) 0.3925(4)
H34_2 H 0.090644 0.009016 0.369421
C58_2 C 0.1012(7) 0.0735(5) 0.2586(4)
H38_2 H 0.151313 0.082075 0.276804
S25_2 S 0.05743(18) 0.04257(15) 0.57402(10)
O32 O 0.0825(4) 0.0981(3) 0.6768(3)
C61_2 C 0.0236(6) 0.0656(5) 0.6707(4)
C62_2 C 0.0010(6) 0.0327(5) 0.6206(4)
O64 O 0.0118(4) 0.0531(3) 0.8179(2)
N1_2 N 0.2543(6) 0.2426(4) 0.2478(4)
O1_2 O 0.0833(6) 0.2740(3) 0.7432(4)
N3_2 N 0.0497(8) 0.3671(5) 0.7553(5)
S1_2 S 0.23254(14) 0.20223(12) 0.55725(9)
O4_2 O 0.1177(4) 0.0887(3) 0.7950(3)
C2_2 C 0.0715(8) 0.4204(6) 0.7786(5)
H4_2 H 0.031884 0.433978 0.795447
H5_2 H 0.078088 0.447671 0.752343
H6_2 H 0.119414 0.416308 0.804052
S2_2 S 0.24594(13) 0.46385(13) 0.06158(9)
C3_2 C 0.0987(7) 0.3208(5) 0.7592(4)
H7_2 H 0.149929 0.327233 0.776488
S6_2 S 0.06109(15) 0.23581(13) 0.41174(9)
S12_2 S 0.08340(16) 0.42701(15) 0.02368(9)
S13_2 S 0.07421(17) 0.54466(14) 0.45548(10)
S15_2 S 0.06094(17) 0.28363(15) 0.95050(11)
S19_2 S 0.06313(17) 0.18888(18) 0.52236(10)
S21_2 S 0.22713(16) 0.26689(18) 0.44067(11)
S24_2 S 0.25538(16) 0.00447(18) 0.94334(11)
O6_2 O 0.0312(4) 0.4605(3) 0.2971(2)
O7_2 O 0.0573(4) 0.3413(3) 0.2960(2)
O20_2 O 0.0085(4) 0.1834(4) 0.7970(2)
O21_2 O 0.1823(4) 0.1954(4) 0.6949(2)
O23_2 O 0.1989(4) 0.4211(3) 0.1955(2)
O27_2 O 0.1488(5) 0.5146(3) 0.2526(3)
H19_2 H 0.181628 0.521328 0.282024
H20_2 H 0.109645 0.536943 0.254116
C8_2 C 0.0363(6) 0.3057(5) 0.3257(4)
O29_2 O 0.2002(5) 0.3251(3) 0.2644(3)
C11_2 C 0.2208(6) 0.1896(5) 0.6602(4)
C13_2 C 0.2352(6) 0.4398(5) 0.1637(4)
C16_2 C 0.0836(6) 0.0607(5) 0.8249(4)
C20_2 C 0.1789(6) 0.1940(5) 0.6050(4)
C24_2 C 0.0059(6) 0.4757(5) 0.3792(4)
C26_2 C 0.0953(6) 0.2852(5) 0.3717(4)
C28_2 C 0.1948(6) 0.4421(5) 0.1084(4)
C32_2 C 0.1496(6) 0.2101(5) 0.5062(4)
C33_2 C 0.0611(6) 0.5151(5) 0.3943(4)
H21_2 H 0.092270 0.526582 0.371835
C34_2 C 0.1323(6) 0.0353(5) 0.8721(4)
C35_2 C 0.1636(6) 0.4637(5) 0.0100(4)
C38_2 C 0.0444(6) 0.2489(5) 0.8905(4)
H23_2 H 0.077030 0.255837 0.867856
C44_2 C 0.1210(6) 0.4250(5) 0.0905(4)
H26_2 H 0.090946 0.412579 0.113279
C45_2 C 0.0058(6) 0.5004(5) 0.4756(4)
C46_2 C 0.1484(6) 0.2330(5) 0.4599(4)
C48_2 C 0.1704(6) 0.2986(5) 0.3851(4)
H28_2 H 0.192028 0.324383 0.365070
C51_2 C 0.2080(6) 0.0411(5) 0.8885(4)
H29_2 H 0.235525 0.064777 0.870408
C54_2 C 0.2152(7) 0.2879(5) 0.2365(4)
H32_2 H 0.194533 0.293357 0.200980
C55_2 C 0.1023(6) 0.1889(5) 0.5885(4)
H33_2 H 0.070610 0.185338 0.612324
C57_2 C 0.2952(8) 0.2345(6) 0.3012(5)
H35_2 H 0.302379 0.271302 0.318603
H36_2 H 0.344869 0.217326 0.301942
H37_2 H 0.265651 0.209557 0.318588
C60_2 C 0.2635(8) 0.2004(6) 0.2112(5)
H42_2 H 0.314866 0.202806 0.205034
H43_2 H 0.226156 0.206818 0.179043
H44_2 H 0.255586 0.162762 0.224585
S27_2 S 0.04817(16) 0.54416(13) 0.57489(9)
O34_2 O 0.0670(4) 0.5889(3) 0.6810(2)
C65_2 C 0.0107(6) 0.5538(5) 0.6727(4)
O67_2 O 0.0228(4) 0.4626(3) 0.1774(2)
S4_2 S 0.07329(15) 0.48616(12) 0.91435(9)
S16_2 S 0.23406(16) 0.52968(16) 0.94700(11)
O10_2 O 0.0639(4) 0.5933(3) 0.7982(2)
C9_2 C 0.0441(6) 0.5577(4) 0.8279(3)
C22_2 C 0.1033(6) 0.5390(4) 0.8752(4)
C31_2 C 0.1589(6) 0.4890(5) 0.9637(4)
C43_2 C 0.1754(6) 0.5570(5) 0.8899(4)
H25_2 H 0.194831 0.584135 0.869943
C69_2 C 0.0260(8) 0.6344(6) 0.2793(5)
H47_2 H 0.047201 0.672646 0.279623
H48_2 H 0.021679 0.624073 0.313992
H49_2 H 0.059501 0.607369 0.267352
S43_2 S 0.07037(17) 0.79823(15) 0.07656(10)
O43 O 0.0308(4) 0.7126(3) 0.6796(2)
O47 O 0.0946(4) 0.8525(3) 0.1792(2)
C81_2 C 0.0361(6) 0.8209(5) 0.1724(4)
C92_2 C 0.0145(6) 0.7875(5) 0.1231(4)
C102_2 C 0.0111(6) 0.7562(5) 0.0268(4)
O74 O 0.0205(4) 0.8059(3) 0.3189(2)
O3_2 O 0.0190(4) 0.9397(4) 0.2982(3)
N4_2 N 0.2603(6) 0.4923(5) 0.7551(4)
S3_2 S 0.24583(14) 0.94744(13) 0.05817(9)
S5_2 S 0.25885(13) 0.71032(13) 0.56285(9)
S9_2 S 0.09637(15) 0.74434(14) 0.41289(9)
S10_2 S 0.09192(15) 0.68826(15) 0.52364(9)
S11_2 S 0.07537(15) 0.94453(15) 0.02127(10)
S23_2 S 0.26390(17) 0.7702(2) 0.44980(12)
C6_2 C 0.2680(9) 0.4480(6) 0.7174(6)
H14_2 H 0.317889 0.451283 0.708861
H15_2 H 0.228041 0.452864 0.686240
H16_2 H 0.263182 0.410478 0.732062
O17_2 O 0.1916(4) 0.9490(4) 0.1945(2)
O18_2 O 0.1263(4) 0.8435(3) 0.2971(3)
O19_2 O 0.2058(4) 0.6711(3) 0.6958(2)
O26_2 O 0.1559(4) 0.7661(3) 0.7523(3)
H17_2 H 0.178073 0.775630 0.783965
H18_2 H 0.115122 0.787910 0.745050
O28_2 O 0.2078(5) 0.5772(3) 0.7681(3)
C10_2 C 0.2434(6) 0.6884(5) 0.6643(4)
C15_2 C 0.2306(6) 0.9396(5) 0.1607(4)
C17_2 C 0.2045(6) 0.6923(5) 0.6085(4)
C18_2 C 0.1896(6) 0.9440(5) 0.1056(4)
C19_2 C 0.0923(6) 0.8157(5) 0.3268(4)
C25_2 C 0.1782(6) 0.7157(5) 0.5104(4)
C36_2 C 0.1407(6) 0.7914(5) 0.3752(4)
C37_2 C 0.1287(6) 0.6829(5) 0.5902(4)
H22_2 H 0.096615 0.673701 0.612751
C41_2 C 0.1649(6) 0.9590(5) 0.0063(4)
C47_2 C 0.1116(6) 0.9427(5) 0.0872(4)
H27_2 H 0.078409 0.940929 0.110149
C49_2 C 0.0037(6) 0.9992(5) 0.4755(4)
C50_2 C 0.1797(6) 0.7392(5) 0.4646(4)
C52_2 C 0.2211(7) 0.5382(6) 0.7412(5)
H30_2 H 0.200015 0.541946 0.705603
C53_2 C 0.2154(6) 0.8022(5) 0.3922(4)
H31_2 H 0.241355 0.826573 0.373646
C59_2 C 0.2980(8) 0.4850(6) 0.8088(5)
H39_2 H 0.306026 0.522186 0.825472
H40_2 H 0.347212 0.466391 0.811089
H41_2 H 0.266283 0.461597 0.825870
O36_2 O 0.0390(4) 0.7110(3) 0.7986(2)
C72_2 C 0.0232(8) 0.8820(7) 0.7822(5)
H54_2 H 0.046180 0.919776 0.783710
H55_2 H 0.013547 0.872315 0.815736
H56_2 H 0.057870 0.854069 0.772744
S45_2 S 0.09118(19) 0.79486(16) 0.95747(11)
C89_2 C 0.0164(6) 0.7273(5) 0.8814(4)
C94_2 C 0.0200(6) 0.7548(5) 0.9786(4)
C105_2 C 0.0751(6) 0.7642(5) 0.8963(4)
H69_2 H 0.107153 0.773254 0.873719
O2_2 O 0.9610(4) 0.2890(3) 0.2014(2)
C4_2 C 0.9768(8) 0.1180(7) 0.2178(5)
H8_2 H 0.953820 0.080224 0.216290
H9_2 H 0.986453 0.127685 0.184264
H10_2 H 0.942130 0.145931 0.227256
S20_2 S 0.90882(19) 0.20514(16) 0.04253(11)
C23_2 C 0.9836(6) 0.2727(5) 0.1186(4)
C29_2 C 0.9800(6) 0.2452(5) 0.0214(4)
C42_2 C 0.9249(6) 0.2358(5) 0.1037(4)
H24_2 H 0.892847 0.226746 0.126281
O31_2 O 0.9810(4) 0.0603(4) 0.7018(3)
C63_2 C 0.9963(6) 0.0008(5) 0.5245(4)
N8_2 N 0.7397(6) 0.5077(5) 0.2449(4)
S31_2 S 0.75417(14) 0.05256(13) 0.94183(9)
S33_2 S 0.74115(13) 0.28968(13) 0.43715(9)
S36_2 S 0.90363(15) 0.25566(14) 0.58711(9)
S37_2 S 0.90808(15) 0.31174(15) 0.47636(9)
S38_2 S 0.92463(15) 0.05547(15) 0.97873(10)
S47_2 S 0.73610(17) 0.2298(2) 0.55020(12)
C74_2 C 0.7320(9) 0.5520(6) 0.2826(6)
H60_2 H 0.682111 0.548717 0.291139
H61_2 H 0.771959 0.547136 0.313760
H62_2 H 0.736818 0.589522 0.267938
O44 O 0.9795(4) 0.1941(3) 0.6811(2)
O48_2 O 0.8084(4) 0.0510(4) 0.8055(2)
O49_2 O 0.8737(4) 0.1565(3) 0.7029(3)
O50_2 O 0.7942(4) 0.3289(3) 0.3042(2)
O56_2 O 0.8441(4) 0.2339(3) 0.2477(3)
H63_2 H 0.821927 0.224370 0.216035
H64_2 H 0.884878 0.212090 0.254950
O58_2 O 0.7922(5) 0.4228(3) 0.2319(3)
C78_2 C 0.7566(6) 0.3116(5) 0.3357(4)
C82_2 C 0.7694(6) 0.0604(5) 0.8393(4)
C84_2 C 0.7955(6) 0.3077(5) 0.3915(4)
C85_2 C 0.8104(6) 0.0560(5) 0.8944(4)
C86_2 C 0.9077(6) 0.1843(5) 0.6732(4)
C90_2 C 0.8218(6) 0.2843(5) 0.4896(4)
C99_2 C 0.8593(6) 0.2086(5) 0.6248(4)
C100_2 C 0.8713(6) 0.3171(5) 0.4098(4)
H67_2 H 0.903385 0.326299 0.387249
C104_2 C 0.8351(6) 0.0410(5) 0.9937(4)
C109_2 C 0.8884(6) 0.0573(5) 0.9128(4)
H72_2 H 0.921591 0.059071 0.889851
C111_2 C 0.8203(6) 0.2608(5) 0.5354(4)
C113_2 C 0.7789(7) 0.4618(6) 0.2588(5)
H75_2 H 0.799985 0.458054 0.294397
C114_2 C 0.7846(6) 0.1978(5) 0.6078(4)
H76_2 H 0.758645 0.173427 0.626354
C119_2 C 0.7020(8) 0.5150(6) 0.1912(5)
H83_2 H 0.693974 0.477814 0.174528
H84_2 H 0.652788 0.533609 0.188911
H85_2 H 0.733717 0.538403 0.174130
O69_2 O 0.9361(4) 0.4067(3) 0.2018(2)
O70 O 0.9692(4) 0.2874(3) 0.3204(2)
O72 O 0.9330(4) 0.4111(3) 0.3190(2)
O80 O 0.9054(4) 0.1475(3) 0.8208(2)
C1_2 C 0.9740(8) 0.3656(6) 0.7207(5)
H1_2 H 0.952799 0.327354 0.720377
H2_2 H 0.978321 0.375927 0.686008
H3_2 H 0.940499 0.392631 0.732648
S7_2 S 0.95183(16) 0.45584(13) 0.42511(9)
S17_2 S 0.92963(17) 0.20177(15) 0.92344(10)
C12_2 C 0.9893(6) 0.4462(5) 0.3273(4)
C14_2 C 0.9639(6) 0.1791(5) 0.8276(4)
C27_2 C 0.9855(6) 0.2125(5) 0.8769(4)
C39_2 C 0.9889(6) 0.2438(5) 0.9732(4)
S28_2 S 0.92579(17) 0.45534(14) 0.54452(10)
O33_2 O 0.9688(4) 0.5395(3) 0.7029(2)
C66_2 C 0.9941(6) 0.5243(5) 0.6208(4)
C67_2 C 0.9389(6) 0.4849(5) 0.6057(4)
H46_2 H 0.907730 0.473418 0.628165
C68_2 C 0.9942(6) 0.4996(5) 0.5244(4)
O9_2 O 0.9772(4) 0.5374(3) 0.8226(2)
S32_2 S 0.92671(15) 0.51384(12) 0.08565(9)
S42_2 S 0.76594(16) 0.47032(16) 0.05300(11)
C77_2 C 0.9559(6) 0.4423(4) 0.1721(3)
C88_2 C 0.8967(6) 0.4610(4) 0.1248(4)
C95_2 C 0.8411(6) 0.5110(5) 0.0363(4)
C106_2 C 0.8246(6) 0.4430(5) 0.1101(4)
H70_2 H 0.805169 0.415865 0.130057
N5_2 N 0.7457(6) 0.7574(4) 0.7522(4)
O35_2 O 0.9167(6) 0.7260(3) 0.2568(4)
N7_2 N 0.9503(8) 0.6329(5) 0.2447(5)
S29_2 S 0.76746(14) 0.79777(12) 0.44275(9)
O37_2 O 0.8823(4) 0.9113(3) 0.2050(3)
C70_2 C 0.9285(8) 0.5796(6) 0.2214(5)
H50_2 H 0.968116 0.566022 0.204553
H51_2 H 0.921912 0.552329 0.247657
H52_2 H 0.880586 0.583692 0.195948
S30_2 S 0.75406(13) 0.53615(13) 0.93842(9)
C71_2 C 0.9013(7) 0.6792(5) 0.2408(4)
H53_2 H 0.850071 0.672767 0.223512
S34_2 S 0.93891(15) 0.76419(13) 0.58826(9)
S39_2 S 0.91660(16) 0.57299(15) 0.97632(9)
S41_2 S 0.93906(17) 0.71637(15) 0.04950(11)
S44_2 S 0.93687(17) 0.81112(18) 0.47764(10)
S46_2 S 0.77287(16) 0.73311(18) 0.55933(11)
S48_2 S 0.74462(16) 0.99553(18) 0.05666(11)
O39_2 O 0.9427(4) 0.6587(3) 0.7040(2)
O40 O 0.9882(4) 0.9469(3) 0.1821(2)
O51_2 O 0.9915(4) 0.8166(4) 0.2030(2)
O52_2 O 0.8177(4) 0.8046(4) 0.3051(2)
O54_2 O 0.8011(4) 0.5789(3) 0.8045(2)
O57_2 O 0.8512(5) 0.4854(3) 0.7474(3)
H65_2 H 0.818372 0.478672 0.717976
H66_2 H 0.890355 0.463057 0.745884
C76_2 C 0.9637(6) 0.6943(5) 0.6743(4)
O59_2 O 0.7998(5) 0.6749(3) 0.7356(3)
C79_2 C 0.7792(6) 0.8104(5) 0.3398(4)
C80_2 C 0.7648(6) 0.5602(5) 0.8363(4)
C83_2 C 0.9164(6) 0.9393(5) 0.1751(4)
C87_2 C 0.8211(6) 0.8060(5) 0.3950(4)
C91_2 C 0.9047(6) 0.7148(5) 0.6283(4)
C93_2 C 0.8052(6) 0.5579(5) 0.8916(4)
C96_2 C 0.8504(6) 0.7899(5) 0.4938(4)
C97_2 C 0.8677(6) 0.9647(5) 0.1279(4)
C98_2 C 0.8364(6) 0.5363(5) 0.9900(4)
C101_2 C 0.9556(6) 0.7511(5) 0.1095(4)
H68_2 H 0.922970 0.744163 0.132144
C107_2 C 0.8790(6) 0.5750(5) 0.9095(4)
H71_2 H 0.909054 0.587421 0.886721
C108_2 C 0.8516(6) 0.7670(5) 0.5401(4)
C110_2 C 0.8296(6) 0.7014(5) 0.6149(4)
H73_2 H 0.807972 0.675617 0.634930
C112_2 C 0.7920(6) 0.9589(5) 0.1115(4)
H74_2 H 0.764475 0.935223 0.129592
C115_2 C 0.7848(7) 0.7121(5) 0.7635(4)
H77_2 H 0.805467 0.706643 0.799020
C116_2 C 0.8977(6) 0.8111(5) 0.4115(4)
H78_2 H 0.929390 0.814662 0.387676
C117_2 C 0.7048(8) 0.7655(6) 0.6988(5)
H79_2 H 0.697621 0.728698 0.681397
H80_2 H 0.655131 0.782674 0.698058
H81_2 H 0.734349 0.790443 0.681412
C120_2 C 0.7365(8) 0.7996(6) 0.7888(5)
H86_2 H 0.685134 0.797194 0.794966
H87_2 H 0.773844 0.793182 0.820957
H88_2 H 0.744414 0.837238 0.775415
O62 O 0.9418(4) 0.6624(3) 0.8218(2)
O84 O 0.9175(4) 0.9019(3) 0.3232(3)
S18_2 S 0.94257(18) 0.95743(15) 0.42598(10)
C21_2 C 0.9764(6) 0.9344(5) 0.3293(4)
C30_2 C 0.9990(6) 0.9673(5) 0.3794(4)
S26_2 S 0.92276(19) 0.96420(17) 0.54675(11)
C64_2 C 0.9414(6) 0.9978(5) 0.6075(4)
H45_2 H 0.909356 0.990984 0.630579
N6_2 N 0.9523(8) 0.8818(5) 0.7443(6)
C73_2 C 0.9304(9) 0.8287(6) 0.7194(6)
H57_2 H 0.953021 0.825154 0.689529
H58_2 H 0.948355 0.797687 0.743387
H59_2 H 0.874941 0.827062 0.708400
S35_2 S 0.96282(16) 0.71087(14) 0.92811(10)
C75_2 C 0.9980(6) 0.6981(5) 0.8298(4)
O60_2 O 0.9074(6) 0.9714(3) 0.7580(4)
C118_2 C 0.8988(7) 0.9265(5) 0.7414(4)
H82_2 H 0.848687 0.917925 0.723196
S14_2 S 0.08544(15) 0.98997(15) 0.90970(10)
C40_2 C 0.1689(6) 0.9808(5) 0.9596(4)
S40_2 S 0.91456(15) 0.01003(15) 0.09030(10)
C103_2 C 0.8311(6) 0.0192(5) 0.0404(4)
loop_
_geom_bond_atom_site_label_1
_geom_bond_atom_site_label_2
_geom_bond_site_symmetry_1
_geom_bond_site_symmetry_2
S13 C33 1_555 1_555
O9 C9 1_555 1_555
O10 C9 1_555 1_555
H19 O27 1_555 1_555
H20 O27 1_555 1_555
C9 C22 1_555 1_555
C22 C43 1_555 1_555
C33 H21 1_555 1_555
C43 S16 1_555 1_555
H25 C43 1_555 1_555
Gd14 O9 1_555 1_555
Gd18 O10 1_555 1_555
S13 C45 1_555 1_555
S27 C66 1_555 1_555
O33 C65 1_555 1_555
O34 C65 1_555 1_555
C65 C66 1_555 1_555
N8 C74 1_555 1_555
C74 H60 1_555 1_555
H61 C74 1_555 1_555
H62 C74 1_555 1_555
C119 N8 1_555 1_555
H84 C119 1_555 1_555
H85 C119 1_555 1_555
Gd14 O33 1_555 1_555
Gd18 O34 1_555 1_555
Gd1 O6 1_555 1_555
N1 C54 1_555 1_555
S2 C28 1_555 1_555
S6 C26 1_555 1_555
S7 C24 1_555 1_555
S12 C35 1_555 1_555
S21 C46 1_555 1_555
O6 C12 1_555 1_555
O7 Gd1 1_555 1_555
O11 C8 1_555 1_555
O12 C12 1_555 1_555
O15 C13 1_555 1_555
O23 Gd1 1_555 1_555
C8 O7 1_555 1_555
O29 Gd1 1_555 1_555
C12 C24 1_555 1_555
C13 O23 1_555 1_555
C26 C8 1_555 1_555
C28 C13 1_555 1_555
C31 S4 1_555 1_555
C35 S2 1_555 1_555
C44 S12 1_555 1_555
H26 C44 1_555 1_555
C46 S6 1_555 1_555
C48 S21 1_555 1_555
H28 C48 1_555 1_555
C54 O29 1_555 1_555
H32 C54 1_555 1_555
C57 N1 1_555 1_555
H35 C57 1_555 1_555
H36 C57 1_555 1_555
H37 C57 1_555 1_555
C60 N1 1_555 1_555
H42 C60 1_555 1_555
H43 C60 1_555 1_555
H44 C60 1_555 1_555
Gd21 O11 1_555 1_555
Gd24 O15 1_555 1_555
O61 Gd1 1_555 1_555
O67 Gd1 1_555 1_555
O82 Gd1 1_555 1_555
O12 Gd21 1_555 1_555
C26 C48 1_555 1_555
C28 C44 1_555 1_555
C31 C35 1_555 1_555
O1 Gd4 1_555 1_555
N2 C4 1_555 1_555
Gd3 O3 1_555 1_555
O2 C7 1_555 1_555
N3 C1 1_555 1_555
Gd4 O4 1_555 1_555
O3 C21 1_555 1_555
C1 H1 1_555 1_555
H2 C1 1_555 1_555
H3 C1 1_555 1_555
S1 C20 1_555 1_555
O4 C16 1_555 1_555
C2 N3 1_555 1_555
H4 C2 1_555 1_555
H5 C2 1_555 1_555
H6 C2 1_555 1_555
C3 O1 1_555 1_555
H7 C3 1_555 1_555
S3 C18 1_555 1_555
C4 H8 1_555 1_555
H9 C4 1_555 1_555
H10 C4 1_555 1_555
C5 N2 1_555 1_555
H11 C5 1_555 1_555
H12 C5 1_555 1_555
H13 C5 1_555 1_555
S8 C23 1_555 1_555
S9 C36 1_555 1_555
S11 C41 1_555 1_555
S14 C34 1_555 1_555
S15 C38 1_555 1_555
S17 C27 1_555 1_555
S18 C30 1_555 1_555
S19 C32 1_555 1_555
S20 C29 1_555 1_555
S22 C49 1_555 1_555
S23 C50 1_555 1_555
S24 C40 1_555 1_555
O61 C7 1_555 1_555
O8 C16 1_555 1_555
C7 C23 1_555 1_555
O13 C19 1_555 1_555
O14 C11 1_555 1_555
O16 C14 1_555 1_555
O17 Gd3 1_555 1_555
O18 Gd3 1_555 1_555
O20 Gd4 1_555 1_555
O21 Gd4 1_555 1_555
O22 C15 1_555 1_555
O24 C21 1_555 1_555
C11 O21 1_555 1_555
O30 Gd3 1_555 1_555
C14 O20 1_555 1_555
C15 O17 1_555 1_555
C16 C34 1_555 1_555
C18 C15 1_555 1_555
C19 O18 1_555 1_555
C20 C11 1_555 1_555
C21 C30 1_555 1_555
C23 C42 1_555 1_555
C27 C14 1_555 1_555
C29 S8 1_555 1_555
C30 C56 1_555 1_555
C32 S1 1_555 1_555
C34 C51 1_555 1_555
C36 C19 1_555 1_555
C38 C27 1_555 1_555
H23 C38 1_555 1_555
C39 S15 1_555 1_555
C40 S14 1_555 1_555
C41 S3 1_555 1_555
C42 S20 1_555 1_555
H24 C42 1_555 1_555
C47 S11 1_555 1_555
H27 C47 1_555 1_555
C49 S18 1_555 1_555
C50 S9 1_555 1_555
C51 S24 1_555 1_555
H29 C51 1_555 1_555
C53 S23 1_555 1_555
H31 C53 1_555 1_555
C55 S19 1_555 1_555
H33 C55 1_555 1_555
C56 S22 1_555 1_555
H34 C56 1_555 1_555
C58 N2 1_555 1_555
H38 C58 1_555 1_555
S28 C67 1_555 1_555
C67 H46 1_555 1_555
Gd21 O2 1_555 1_555
S33 C84 1_555 1_555
S37 C90 1_555 1_555
O50 Gd21 1_555 1_555
O55 C78 1_555 1_555
O56 Gd21 1_555 1_555
H63 O56 1_555 1_555
H64 O56 1_555 1_555
O58 Gd21 1_555 1_555
C78 O50 1_555 1_555
C84 C78 1_555 1_555
C90 S33 1_555 1_555
C100 S37 1_555 1_555
H67 C100 1_555 1_555
H75 C113 1_555 1_555
Gd11 O22 1_555 1_555
Gd19 O14 1_555 1_555
Gd25 O8 1_555 1_555
Gd29 O13 1_555 1_555
Gd30 O55 1_555 1_555
O65 Gd3 1_555 1_555
O69 Gd21 1_555 1_555
O75 Gd4 1_555 1_555
O77 Gd21 1_555 1_555
O78 Gd3 1_555 1_555
O81 Gd3 1_555 1_555
O85 Gd4 1_555 1_555
O86 Gd4 1_555 1_555
N3 C3 1_555 1_555
S17 C39 1_555 1_555
O16 Gd25 1_555 1_555
O24 Gd29 1_555 1_555
O30 C58 1_555 1_555
C18 C47 1_555 1_555
C20 C55 1_555 1_555
C29 C39 1_555 1_555
C36 C53 1_555 1_555
C40 C41 1_555 1_555
S28 C68 1_555 1_555
O58 C113 1_555 1_555
C84 C100 1_555 1_555
Gd18 O19 1_555 1_555
S5 C17 1_555 1_555
S10 C25 1_555 1_555
O19 C10 1_555 1_555
O25 C10 1_555 1_555
O26 Gd18 1_555 1_555
H17 O26 1_555 1_555
H18 O26 1_555 1_555
O28 Gd18 1_555 1_555
C10 C17 1_555 1_555
C17 C37 1_555 1_555
C25 S5 1_555 1_555
C37 S10 1_555 1_555
H22 C37 1_555 1_555
H30 C52 1_555 1_555
O31 C61 1_555 1_555
S25 C62 1_555 1_555
S26 C63 1_555 1_555
O85 C61 1_555 1_555
C61 C62 1_555 1_555
C62 C64 1_555 1_555
C64 S26 1_555 1_555
H45 C64 1_555 1_555
O35 Gd29 1_555 1_555
N6 C72 1_555 1_555
Gd25 O31 1_555 1_555
O36 Gd18 1_555 1_555
N7 C69 1_555 1_555
Gd29 O37 1_555 1_555
C69 H47 1_555 1_555
H48 C69 1_555 1_555
H49 C69 1_555 1_555
S29 C87 1_555 1_555
O37 C83 1_555 1_555
C70 N7 1_555 1_555
H50 C70 1_555 1_555
H51 C70 1_555 1_555
H52 C70 1_555 1_555
C71 O35 1_555 1_555
H53 C71 1_555 1_555
S31 C85 1_555 1_555
C72 H54 1_555 1_555
H55 C72 1_555 1_555
H56 C72 1_555 1_555
C73 N6 1_555 1_555
H57 C73 1_555 1_555
H58 C73 1_555 1_555
H59 C73 1_555 1_555
S35 C89 1_555 1_555
S36 C99 1_555 1_555
S38 C104 1_555 1_555
S40 C97 1_555 1_555
S41 C101 1_555 1_555
S43 C92 1_555 1_555
S44 C96 1_555 1_555
S45 C94 1_555 1_555
S47 C111 1_555 1_555
S48 C103 1_555 1_555
O38 C75 1_555 1_555
O65 C83 1_555 1_555
C75 O36 1_555 1_555
O75 C86 1_555 1_555
O45 C79 1_555 1_555
O81 C81 1_555 1_555
O48 Gd25 1_555 1_555
O49 Gd25 1_555 1_555
O51 Gd29 1_555 1_555
O52 Gd29 1_555 1_555
O53 C82 1_555 1_555
C79 O52 1_555 1_555
O60 Gd25 1_555 1_555
C81 O51 1_555 1_555
C82 O48 1_555 1_555
C83 C97 1_555 1_555
C85 C82 1_555 1_555
C86 O49 1_555 1_555
C87 C79 1_555 1_555
C89 C75 1_555 1_555
C92 C81 1_555 1_555
C94 S35 1_555 1_555
C96 S29 1_555 1_555
C97 C112 1_555 1_555
C99 C86 1_555 1_555
C101 C92 1_555 1_555
H68 C101 1_555 1_555
C102 S41 1_555 1_555
C103 S40 1_555 1_555
C104 S31 1_555 1_555
C105 S45 1_555 1_555
H69 C105 1_555 1_555
C109 S38 1_555 1_555
H72 C109 1_555 1_555
C111 S36 1_555 1_555
C112 S48 1_555 1_555
H74 C112 1_555 1_555
C114 S47 1_555 1_555
H76 C114 1_555 1_555
C116 S44 1_555 1_555
H78 C116 1_555 1_555
C118 N6 1_555 1_555
H82 C118 1_555 1_555
Gd14 O38 1_555 1_555
Gd15 O53 1_555 1_555
Gd22 O45 1_555 1_555
Gd28 O25 1_555 1_555
O71 Gd18 1_555 1_555
O76 Gd18 1_555 1_555
O79 Gd25 1_555 1_555
O87 Gd29 1_555 1_555
O28 C52 1_555 1_555
S25 C63 1_555 1_555
N7 C71 1_555 1_555
S43 C102 1_555 1_555
O60 C118 1_555 1_555
C85 C109 1_555 1_555
C87 C116 1_555 1_555
C89 C105 1_555 1_555
C94 C102 1_555 1_555
C99 C114 1_555 1_555
C103 C104 1_555 1_555
Gd14 O39 1_555 1_555
N5 C115 1_555 1_555
S30 C93 1_555 1_555
S34 C91 1_555 1_555
S39 C98 1_555 1_555
S46 C108 1_555 1_555
O39 C76 1_555 1_555
O71 C76 1_555 1_555
O46 C80 1_555 1_555
O54 Gd14 1_555 1_555
C76 C91 1_555 1_555
O59 Gd14 1_555 1_555
C80 O54 1_555 1_555
C91 C110 1_555 1_555
C93 C80 1_555 1_555
C95 S32 1_555 1_555
C98 S30 1_555 1_555
C107 S39 1_555 1_555
H71 C107 1_555 1_555
C108 S34 1_555 1_555
C110 S46 1_555 1_555
H73 C110 1_555 1_555
C115 O59 1_555 1_555
H77 C115 1_555 1_555
C117 N5 1_555 1_555
H79 C117 1_555 1_555
H80 C117 1_555 1_555
H81 C117 1_555 1_555
C120 N5 1_555 1_555
H86 C120 1_555 1_555
H87 C120 1_555 1_555
H88 C120 1_555 1_555
Gd26 O46 1_555 1_555
O83 Gd14 1_555 1_555
C93 C107 1_555 1_555
C95 C98 1_555 1_555
N4 C6 1_555 1_555
C6 H14 1_555 1_555
H15 C6 1_555 1_555
H16 C6 1_555 1_555
C59 N4 1_555 1_555
H40 C59 1_555 1_555
H41 C59 1_555 1_555
O67 C77 1_555 1_555
O69 C77 1_555 1_555
H65 O57 1_555 1_555
H66 O57 1_555 1_555
C77 C88 1_555 1_555
C88 C106 1_555 1_555
C106 S42 1_555 1_555
H70 C106 1_555 1_555
C5_2 N2_2 1_555 1_555
H11_2 C5_2 1_555 1_555
H12_2 C5_2 1_555 1_555
H13_2 C5_2 1_555 1_555
O5 C7_2 1_555 1_555
C56_2 S22_2 1_555 1_555
H34_2 C56_2 1_555 1_555
C58_2 N2_2 1_555 1_555
H38_2 C58_2 1_555 1_555
S25_2 C62_2 1_555 1_555
O32 C61_2 1_555 1_555
C61_2 C62_2 1_555 1_555
Gd11 O5 1_555 1_555
Gd28 O32 1_555 1_555
O30_2 C58_2 1_555 1_555
Gd11 O6_2 1_555 1_555
N1_2 C54_2 1_555 1_555
O1_2 Gd28 1_555 1_555
Gd28 O4_2 1_555 1_555
S1_2 C20_2 1_555 1_555
O4_2 C16_2 1_555 1_555
C2_2 N3_2 1_555 1_555
H4_2 C2_2 1_555 1_555
H5_2 C2_2 1_555 1_555
H6_2 C2_2 1_555 1_555
S2_2 C28_2 1_555 1_555
C3_2 O1_2 1_555 1_555
H7_2 C3_2 1_555 1_555
S6_2 C26_2 1_555 1_555
S12_2 C35_2 1_555 1_555
S13_2 C33_2 1_555 1_555
S15_2 C38_2 1_555 1_555
S19_2 C32_2 1_555 1_555
S21_2 C46_2 1_555 1_555
O7_2 Gd11 1_555 1_555
O64 C16_2 1_555 1_555
O76 C11_2 1_555 1_555
O78 C13_2 1_555 1_555
O20_2 Gd28 1_555 1_555
O21_2 Gd28 1_555 1_555
O23_2 Gd11 1_555 1_555
O27_2 Gd11 1_555 1_555
H19_2 O27_2 1_555 1_555
H20_2 O27_2 1_555 1_555
C8_2 O7_2 1_555 1_555
O29_2 Gd11 1_555 1_555
C11_2 O21_2 1_555 1_555
C13_2 O23_2 1_555 1_555
C16_2 C34_2 1_555 1_555
C20_2 C11_2 1_555 1_555
C24_2 C33_2 1_555 1_555
C26_2 C8_2 1_555 1_555
C28_2 C13_2 1_555 1_555
C32_2 S1_2 1_555 1_555
C33_2 H21_2 1_555 1_555
C34_2 C51_2 1_555 1_555
C35_2 S2_2 1_555 1_555
H23_2 C38_2 1_555 1_555
C44_2 S12_2 1_555 1_555
H26_2 C44_2 1_555 1_555
C46_2 S6_2 1_555 1_555
C48_2 S21_2 1_555 1_555
H28_2 C48_2 1_555 1_555
C51_2 S24_2 1_555 1_555
H29_2 C51_2 1_555 1_555
C54_2 O29_2 1_555 1_555
H32_2 C54_2 1_555 1_555
C55_2 S19_2 1_555 1_555
H33_2 C55_2 1_555 1_555
C57_2 N1_2 1_555 1_555
H35_2 C57_2 1_555 1_555
H36_2 C57_2 1_555 1_555
H37_2 C57_2 1_555 1_555
C60_2 N1_2 1_555 1_555
H42_2 C60_2 1_555 1_555
H43_2 C60_2 1_555 1_555
H44_2 C60_2 1_555 1_555
O34_2 C65_2 1_555 1_555
Gd19 O34_2 1_555 1_555
O67_2 Gd11 1_555 1_555
N3_2 C3_2 1_555 1_555
S13_2 C45_2 1_555 1_555
C20_2 C55_2 1_555 1_555
C26_2 C48_2 1_555 1_555
C28_2 C44_2 1_555 1_555
C32_2 C46_2 1_555 1_555
S4_2 C22_2 1_555 1_555
S16_2 C31_2 1_555 1_555
O10_2 C9_2 1_555 1_555
C9_2 C22_2 1_555 1_555
C22_2 C43_2 1_555 1_555
C31_2 S4_2 1_555 1_555
C43_2 S16_2 1_555 1_555
H25_2 C43_2 1_555 1_555
Gd19 O10_2 1_555 1_555
C69_2 H47_2 1_555 1_555
H48_2 C69_2 1_555 1_555
H49_2 C69_2 1_555 1_555
S43_2 C92_2 1_555 1_555
O47 C81_2 1_555 1_555
C92_2 C81_2 1_555 1_555
Gd19 O43 1_555 1_555
S43_2 C102_2 1_555 1_555
O47 Gd24 1_555 1_555
Gd19 O19_2 1_555 1_555
Gd24 O3_2 1_555 1_555
N4_2 C6_2 1_555 1_555
S3_2 C18_2 1_555 1_555
S5_2 C17_2 1_555 1_555
S9_2 C36_2 1_555 1_555
S10_2 C25_2 1_555 1_555
S11_2 C41_2 1_555 1_555
S23_2 C50_2 1_555 1_555
C6_2 H14_2 1_555 1_555
H15_2 C6_2 1_555 1_555
H16_2 C6_2 1_555 1_555
O74 C19_2 1_555 1_555
O17_2 Gd24 1_555 1_555
O18_2 Gd24 1_555 1_555
O19_2 C10_2 1_555 1_555
O82 C15_2 1_555 1_555
O86 C10_2 1_555 1_555
O26_2 Gd19 1_555 1_555
H17_2 O26_2 1_555 1_555
H18_2 O26_2 1_555 1_555
O28_2 Gd19 1_555 1_555
C10_2 C17_2 1_555 1_555
C15_2 O17_2 1_555 1_555
C17_2 C37_2 1_555 1_555
C18_2 C15_2 1_555 1_555
C19_2 O18_2 1_555 1_555
C25_2 S5_2 1_555 1_555
C36_2 C19_2 1_555 1_555
C37_2 S10_2 1_555 1_555
H22_2 C37_2 1_555 1_555
C41_2 S3_2 1_555 1_555
C47_2 S11_2 1_555 1_555
H27_2 C47_2 1_555 1_555
C50_2 S9_2 1_555 1_555
C52_2 N4_2 1_555 1_555
H30_2 C52_2 1_555 1_555
C53_2 S23_2 1_555 1_555
H31_2 C53_2 1_555 1_555
C59_2 N4_2 1_555 1_555
H39_2 C59_2 1_555 1_555
H40_2 C59_2 1_555 1_555
H41_2 C59_2 1_555 1_555
O36_2 Gd19 1_555 1_555
C72_2 H54_2 1_555 1_555
H55_2 C72_2 1_555 1_555
H56_2 C72_2 1_555 1_555
S45_2 C94_2 1_555 1_555
C105_2 S45_2 1_555 1_555
H69_2 C105_2 1_555 1_555
O28_2 C52_2 1_555 1_555
C18_2 C47_2 1_555 1_555
C25_2 C50_2 1_555 1_555
C36_2 C53_2 1_555 1_555
C89_2 C105_2 1_555 1_555
C4_2 H8_2 1_555 1_555
H9_2 C4_2 1_555 1_555
H10_2 C4_2 1_555 1_555
S20_2 C29_2 1_555 1_555
C23_2 C42_2 1_555 1_555
C42_2 S20_2 1_555 1_555
H24_2 C42_2 1_555 1_555
Gd22 O2_2 1_555 1_555
Gd26 O31_2 1_555 1_555
N8_2 C74_2 1_555 1_555
S31_2 C85_2 1_555 1_555
S33_2 C84_2 1_555 1_555
S36_2 C99_2 1_555 1_555
S37_2 C90_2 1_555 1_555
S38_2 C104_2 1_555 1_555
S47_2 C111_2 1_555 1_555
C74_2 H60_2 1_555 1_555
H61_2 C74_2 1_555 1_555
H62_2 C74_2 1_555 1_555
O44 C86_2 1_555 1_555
O48_2 Gd26 1_555 1_555
O49_2 Gd26 1_555 1_555
O50_2 Gd22 1_555 1_555
O83 C82_2 1_555 1_555
O87 C78_2 1_555 1_555
O56_2 Gd22 1_555 1_555
H63_2 O56_2 1_555 1_555
H64_2 O56_2 1_555 1_555
O58_2 Gd22 1_555 1_555
C78_2 O50_2 1_555 1_555
C82_2 O48_2 1_555 1_555
C84_2 C78_2 1_555 1_555
C85_2 C82_2 1_555 1_555
C86_2 O49_2 1_555 1_555
C90_2 S33_2 1_555 1_555
C99_2 C86_2 1_555 1_555
C100_2 S37_2 1_555 1_555
H67_2 C100_2 1_555 1_555
C104_2 S31_2 1_555 1_555
C109_2 S38_2 1_555 1_555
H72_2 C109_2 1_555 1_555
C111_2 S36_2 1_555 1_555
C113_2 N8_2 1_555 1_555
H75_2 C113_2 1_555 1_555
C114_2 S47_2 1_555 1_555
H76_2 C114_2 1_555 1_555
C119_2 N8_2 1_555 1_555
H83_2 C119_2 1_555 1_555
H84_2 C119_2 1_555 1_555
H85_2 C119_2 1_555 1_555
O69_2 Gd22 1_555 1_555
O70 Gd22 1_555 1_555
O72 Gd22 1_555 1_555
O80 Gd26 1_555 1_555
O58_2 C113_2 1_555 1_555
C84_2 C100_2 1_555 1_555
C85_2 C109_2 1_555 1_555
C90_2 C111_2 1_555 1_555
C99_2 C114_2 1_555 1_555
C1_2 H1_2 1_555 1_555
H2_2 C1_2 1_555 1_555
H3_2 C1_2 1_555 1_555
S17_2 C27_2 1_555 1_555
O72 C12_2 1_555 1_555
O80 C14_2 1_555 1_555
C27_2 C14_2 1_555 1_555
S28_2 C67_2 1_555 1_555
C66_2 C67_2 1_555 1_555
C67_2 H46_2 1_555 1_555
Gd15 O33_2 1_555 1_555
S17_2 C39_2 1_555 1_555
S28_2 C68_2 1_555 1_555
Gd15 O9_2 1_555 1_555
S32_2 C88_2 1_555 1_555
S42_2 C95_2 1_555 1_555
O69_2 C77_2 1_555 1_555
C77_2 C88_2 1_555 1_555
C88_2 C106_2 1_555 1_555
C95_2 S32_2 1_555 1_555
C106_2 S42_2 1_555 1_555
H70_2 C106_2 1_555 1_555
Gd15 O39_2 1_555 1_555
N5_2 C115_2 1_555 1_555
O35_2 Gd30 1_555 1_555
Gd30 O37_2 1_555 1_555
S29_2 C87_2 1_555 1_555
O37_2 C83_2 1_555 1_555
C70_2 N7_2 1_555 1_555
H50_2 C70_2 1_555 1_555
H51_2 C70_2 1_555 1_555
H52_2 C70_2 1_555 1_555
S30_2 C93_2 1_555 1_555
C71_2 O35_2 1_555 1_555
H53_2 C71_2 1_555 1_555
S34_2 C91_2 1_555 1_555
S39_2 C98_2 1_555 1_555
S41_2 C101_2 1_555 1_555
S44_2 C96_2 1_555 1_555
S46_2 C108_2 1_555 1_555
O39_2 C76_2 1_555 1_555
O40 C83_2 1_555 1_555
O77 C79_2 1_555 1_555
O79 C80_2 1_555 1_555
O51_2 Gd30 1_555 1_555
O52_2 Gd30 1_555 1_555
O54_2 Gd15 1_555 1_555
O57_2 Gd15 1_555 1_555
H65_2 O57_2 1_555 1_555
H66_2 O57_2 1_555 1_555
C76_2 C91_2 1_555 1_555
O59_2 Gd15 1_555 1_555
C79_2 O52_2 1_555 1_555
C80_2 O54_2 1_555 1_555
C83_2 C97_2 1_555 1_555
C87_2 C79_2 1_555 1_555
C91_2 C110_2 1_555 1_555
C93_2 C80_2 1_555 1_555
C96_2 S29_2 1_555 1_555
C97_2 C112_2 1_555 1_555
C98_2 S30_2 1_555 1_555
H68_2 C101_2 1_555 1_555
C107_2 S39_2 1_555 1_555
H71_2 C107_2 1_555 1_555
C108_2 S34_2 1_555 1_555
C110_2 S46_2 1_555 1_555
H73_2 C110_2 1_555 1_555
C112_2 S48_2 1_555 1_555
H74_2 C112_2 1_555 1_555
C115_2 O59_2 1_555 1_555
H77_2 C115_2 1_555 1_555
C116_2 S44_2 1_555 1_555
H78_2 C116_2 1_555 1_555
C117_2 N5_2 1_555 1_555
H79_2 C117_2 1_555 1_555
H80_2 C117_2 1_555 1_555
H81_2 C117_2 1_555 1_555
C120_2 N5_2 1_555 1_555
H86_2 C120_2 1_555 1_555
H87_2 C120_2 1_555 1_555
H88_2 C120_2 1_555 1_555
O62 Gd15 1_555 1_555
O84 Gd30 1_555 1_555
N7_2 C71_2 1_555 1_555
C87_2 C116_2 1_555 1_555
C93_2 C107_2 1_555 1_555
C96_2 C108_2 1_555 1_555
S18_2 C30_2 1_555 1_555
O84 C21_2 1_555 1_555
C21_2 C30_2 1_555 1_555
C64_2 S26_2 1_555 1_555
H45_2 C64_2 1_555 1_555
C73_2 N6_2 1_555 1_555
H57_2 C73_2 1_555 1_555
H58_2 C73_2 1_555 1_555
H59_2 C73_2 1_555 1_555
O62 C75_2 1_555 1_555
C118_2 N6_2 1_555 1_555
H82_2 C118_2 1_555 1_555
O60_2 C118_2 1_555 1_555
C40_2 S14_2 1_555 1_555
C103_2 S40_2 1_555 1_555

#END
