
###############################################################################
#
# This file contains modified crystal structure data generated from the
# MOF subset of the Cambridge Structural Database (CSD) v543 
# hosted by the Cambridge Crystallographic Data Centre (CCDC).
#
# This work is licensed under the Creative Commons
# Attribution-NonCommercial-ShareAlike 4.0 International License.
# To view a copy of this license, visit
# http://creativecommons.org/licenses/by-nc-sa/4.0/
# or send a letter to
# Creative Commons, PO Box 1866, Mountain View, CA 94042, USA.
#
# CIF created using the CSD Python API on 29 September 2022
# The structure has been converted into the P1 space group
# The structure has a 3D framework
# The original CSD entry VECPUS is in the monoclinic crystal system
# The framework has been calculated to contain at least 10.0% void space
# The void calculation uses a probe of radius 1.32A, grid spacing 0.4
#
###############################################################################

data_VECPUS
_chemical_formula_moiety         '(C240 H176 Dy16 N16 O115 S96)n'
_symmetry_cell_setting           triclinic
_symmetry_space_group_name_H-M   'P 1'
_symmetry_Int_Tables_number      1
_space_group_name_Hall           'P 1'
loop_
_symmetry_equiv_pos_site_id
_symmetry_equiv_pos_as_xyz
1 x,y,z
_cell_length_a                   17.6503(5)
_cell_length_b                   23.0251(6)
_cell_length_c                   26.1975(7)
_cell_angle_alpha                90
_cell_angle_beta                 103.218(3)
_cell_angle_gamma                90
_cell_volume                     10364.6
loop_
_atom_site_label
_atom_site_type_symbol
_atom_site_fract_x
_atom_site_fract_y
_atom_site_fract_z
S5 S 0.42656(11) 0.01346(10) 0.08626(7)
C35 C 0.3407(5) 0.0110(4) 0.0365(3)
Dy1 Dy 0.39211(2) 0.09037(2) 0.75192(2)
S1 S 0.26966(11) 0.29951(10) 0.44173(7)
O1 O 0.5223(3) 0.4402(3) 0.29812(19)
Dy2 Dy 0.61890(2) 0.16163(2) 0.74920(2)
C1 C 0.5727(7) 0.6705(5) 0.2796(5)
H1 H 0.533769 0.683633 0.297180
H2 H 0.579384 0.698976 0.254167
H3 H 0.621080 0.665070 0.304692
O2 O 0.5216(3) 0.3069(2) 0.31772(19)
Dy3 Dy 0.40582(2) 0.32764(2) 0.25549(2)
C2 C 0.2032(6) 0.2653(5) 0.7000(4)
H4 H 0.153973 0.283136 0.699827
H5 H 0.194708 0.228093 0.683154
H6 H 0.232120 0.289617 0.681514
N2 N 0.2463(5) 0.2580(3) 0.7531(3)
O3 O 0.4199(4) 0.2270(3) 0.2573(3)
Dy4 Dy 0.60629(2) 0.42733(2) 0.24481(2)
C3 C 0.4804(7) 0.6185(5) 0.2146(5)
H7 H 0.444528 0.645539 0.224065
H8 H 0.457425 0.580479 0.210573
H9 H 0.492120 0.630344 0.182121
O4 O 0.4906(3) 0.3170(3) 0.2026(2)
S2 S 0.25390(11) 0.03674(10) 0.93748(7)
O5 O 0.4897(3) 0.4464(2) 0.1825(2)
C4 C 0.5251(6) 0.1365(5) 0.2801(4)
H10 H 0.521957 0.125213 0.314830
H11 H 0.544998 0.175371 0.280842
H12 H 0.559350 0.110484 0.267564
S3 S 0.76131(11) 0.21042(11) 0.56333(7)
C5 C 0.4242(7) 0.0789(5) 0.2246(5)
H13 H 0.458128 0.065859 0.203088
H14 H 0.371969 0.081736 0.203694
H15 H 0.425581 0.051784 0.252591
N3 N 0.4489(6) 0.1341(4) 0.2457(4)
N4 N 0.5489(6) 0.6172(4) 0.2539(4)
C7 C 0.2388(7) 0.3010(5) 0.7911(4)
H19 H 0.251126 0.338532 0.779114
H20 H 0.273996 0.292268 0.823899
H21 H 0.186398 0.301196 0.795631
H23 H 0.801567 0.023140 0.825011
S6 S 0.54795(13) 0.04488(10) 0.57509(8)
S8 S 0.59352(12) 0.18924(12) 0.52273(7)
S9 S 0.44080(12) 0.26454(10) 0.58843(8)
S11 S 0.41758(12) 0.07202(11) 0.97636(8)
S12 S 0.41421(12) 0.51044(11) 0.09111(8)
S14 S 0.59902(12) 0.24509(11) 0.41170(8)
S15 S 0.57195(13) 0.29895(11) 0.07643(8)
S16 S 0.44182(14) 0.21549(12) 0.04934(9)
S18 S 0.44328(14) 0.45685(12) 0.42565(8)
S20 S 0.44011(13) 0.30989(13) 0.47688(8)
S21 S 0.27324(12) 0.23594(13) 0.55915(9)
S22 S 0.57636(15) 0.53753(13) 0.45309(9)
S23 S 0.24379(13) 0.49703(14) 0.05720(9)
S24 S 0.76692(13) 0.27046(15) 0.44938(10)
O6 O 0.4401(3) 0.1584(2) 0.70406(19)
O8 O 0.4679(3) 0.0411(2) 0.70323(19)
O11 O 0.5312(3) 0.2113(2) 0.68054(19)
O12 O 0.3832(3) 0.4111(2) 0.2057(2)
O14 O 0.5669(3) 0.0904(2) 0.68179(19)
C9 C 0.4172(5) 0.4386(4) 0.1762(3)
O15 O 0.6270(3) 0.3448(2) 0.2956(2)
O16 O 0.3206(3) 0.3051(3) 0.30370(19)
O17 O 0.5935(3) 0.3539(2) 0.1797(2)
O19 O 0.4212(3) 0.4011(2) 0.3216(2)
O20 O 0.7037(3) 0.1713(3) 0.6953(2)
O21 O 0.2103(3) 0.3206(2) 0.3290(2)
O23 O 0.1973(3) 0.0446(2) 0.8215(2)
O24 O 0.3052(3) 0.0790(3) 0.8041(2)
O25 O 0.8154(3) 0.1997(3) 0.67902(19)
O26 O 0.6553(3) 0.2655(2) 0.7524(2)
H25 H 0.674923 0.273515 0.726451
H26 H 0.692053 0.271689 0.779211
O27 O 0.7087(3) 0.0780(3) 0.7664(3)
C10 C 0.4631(5) 0.1935(4) 0.6748(3)
O29 O 0.3007(4) 0.1737(2) 0.7363(3)
O30 O 0.5928(4) 0.5284(3) 0.2407(3)
C11 C 0.7439(5) 0.1889(4) 0.6652(3)
C13 C 0.2666(4) 0.0595(4) 0.8346(3)
C14 C 0.2818(5) 0.3110(4) 0.3382(3)
C16 C 0.5355(5) 0.3217(4) 0.1721(3)
C17 C 0.5107(5) 0.0553(4) 0.6733(3)
C19 C 0.5932(5) 0.3169(4) 0.3253(3)
C20 C 0.4793(5) 0.4344(4) 0.3287(3)
C21 C 0.3239(5) 0.3064(4) 0.3937(3)
C23 C 0.7057(5) 0.1930(4) 0.6087(3)
C24 C 0.4995(5) 0.4681(4) 0.3785(3)
C26 C 0.5154(5) 0.2878(4) 0.1228(3)
C27 C 0.4942(5) 0.0252(4) 0.6215(3)
C28 C 0.4051(5) 0.2157(4) 0.6281(3)
C31 C 0.3677(5) 0.4653(4) 0.1282(3)
C33 C 0.3063(4) 0.0573(4) 0.8909(3)
C34 C 0.6425(5) 0.2921(4) 0.3740(3)
C36 C 0.3368(5) 0.0361(4) 0.9903(3)
C38 C 0.6800(5) 0.2163(4) 0.5097(3)
C39 C 0.3304(5) 0.5204(4) 0.0406(3)
C40 C 0.5126(5) 0.2557(4) 0.0266(3)
C41 C 0.3524(5) 0.2903(4) 0.4932(3)
C42 C 0.7194(5) 0.0381(4) 0.7387(4)
H31 H 0.696083 0.040779 0.703154
C43 C 0.6299(5) 0.1840(4) 0.5894(3)
H32 H 0.597230 0.175041 0.611574
C44 C 0.4573(5) 0.2502(4) 0.1097(3)
H33 H 0.425181 0.242570 0.132548
C46 C 0.3802(5) 0.0735(4) 0.9092(3)
H34 H 0.410755 0.085233 0.886510
C50 C 0.3536(5) 0.2678(4) 0.5400(3)
C51 C 0.6822(5) 0.2402(4) 0.4637(3)
C52 C 0.3297(5) 0.2032(4) 0.6149(3)
H37 H 0.307729 0.177671 0.634879
C53 C 0.5043(5) 0.4993(4) 0.4750(3)
C54 C 0.4002(5) 0.3105(4) 0.4102(3)
H38 H 0.431853 0.313670 0.386418
C55 C 0.5590(5) 0.5037(4) 0.3923(3)
H39 H 0.591581 0.510668 0.369634
C56 C 0.7182(5) 0.3030(4) 0.3916(3)
H40 H 0.744186 0.327642 0.373187
C57 C 0.2914(5) 0.4590(4) 0.1122(3)
H41 H 0.264096 0.434728 0.129945
C58 C 0.2891(5) 0.2119(4) 0.7652(4)
H42 H 0.313745 0.207816 0.800409
C59 C 0.4030(5) 0.1798(4) 0.2413(3)
H43 H 0.351541 0.174261 0.223595
C60 C 0.6000(6) 0.5734(4) 0.2587(4)
H44 H 0.648751 0.581090 0.279970
O31 O 0.4777(3) 0.5598(3) 0.70188(19)
S25 S 0.55672(14) 0.54315(12) 0.57435(8)
S26 S 0.42364(15) 0.46247(13) 0.54691(9)
O32 O 0.5788(3) 0.5989(2) 0.6784(2)
C61 C 0.5207(5) 0.5656(4) 0.6713(3)
C62 C 0.5005(5) 0.5319(4) 0.6215(3)
C63 C 0.4957(5) 0.5007(4) 0.5250(3)
C64 C 0.4410(5) 0.4963(4) 0.6077(3)
H45 H 0.408419 0.489332 0.630366
S28 S 0.57317(13) 0.04546(11) 0.45518(8)
C67 C 0.5609(5) 0.0151(4) 0.3937(3)
H46 H 0.592236 0.026512 0.371355
C68 C 0.5058(5) 0.0002(4) 0.4753(3)
N5 N 0.2395(5) 0.0081(3) 0.2459(3)
C74 C 0.2333(7) 0.0532(5) 0.2829(4)
H62 H 0.181923 0.052913 0.289290
H63 H 0.270815 0.046427 0.315196
H64 H 0.243176 0.090167 0.268815
C76 C 0.1993(6) 0.0137(5) 0.1922(4)
H68 H 0.225605 0.041701 0.175238
H70 H 0.146964 0.026446 0.190339
O58 O 0.6457(4) 0.0137(3) 0.2526(2)
H73 H 0.685506 0.018833 0.238881
H74 H 0.662593 0.024097 0.284944
Dy16 Dy 0.11890(2) 0.33837(2) 0.24920(2)
Dy18 Dy 0.59418(2) 0.67236(2) 0.74451(2)
Dy19 Dy 0.90582(2) 0.17236(2) 0.75549(2)
Dy23 Dy 0.39371(2) 0.57267(2) 0.75519(2)
Dy24 Dy 0.10629(2) 0.07267(2) 0.74481(2)
O62 O 0.5420(3) 0.2106(2) 0.79778(18)
O65 O 0.4791(3) 0.0397(2) 0.82067(18)
O67 O 0.6907(3) 0.4492(3) 0.19514(19)
O68 O 0.4440(3) 0.1616(2) 0.82062(19)
O71 O 0.5689(3) 0.0941(2) 0.79736(19)
O74 O 0.7103(3) 0.1794(2) 0.8290(2)
O75 O 0.3003(3) 0.0740(2) 0.67135(19)
O78 O 0.6973(3) 0.4554(2) 0.3215(2)
O80 O 0.3154(3) 0.3003(3) 0.17902(19)
S4 S 0.25394(11) 0.55416(10) 0.94142(7)
S7 S 0.46511(13) 0.21041(11) 0.92737(8)
S10 S 0.42467(12) 0.55488(12) 0.97907(8)
S19 S 0.59210(15) 0.29617(12) 0.95661(9)
O10 O 0.3093(3) 0.5508(3) 0.80486(19)
O22 O 0.1997(3) 0.5740(2) 0.82865(19)
C12 C 0.5004(4) 0.1972(3) 0.8286(3)
C18 C 0.2697(4) 0.5610(4) 0.8382(3)
C25 C 0.3105(4) 0.5559(4) 0.8943(3)
C29 C 0.5185(4) 0.2277(4) 0.8804(3)
C30 C 0.5214(5) 0.2551(4) 0.9778(3)
C32 C 0.3879(5) 0.5558(4) 0.9123(3)
H29 H 0.420967 0.556233 0.889328
C45 C 0.3342(5) 0.5413(4) 0.9938(3)
C49 C 0.5763(5) 0.2654(4) 0.8953(3)
H36 H 0.607962 0.275039 0.872645
S43 S 0.73574(12) 0.02841(12) 0.94704(9)
C83 C 0.5470(4) 0.0590(3) 0.8272(3)
C88 C 0.6049(4) 0.0388(3) 0.8748(3)
C110 C 0.6779(5) 0.0568(4) 0.8899(3)
H80 H 0.697674 0.084197 0.870300
Dy10 Dy 0.10789(2) 0.59037(2) 0.74808(2)
S17 S 0.26426(12) 0.97159(12) 0.05296(9)
O9 O 0.5209(3) 0.9603(2) 0.17933(18)
O18 O 0.4311(3) 0.9059(2) 0.20264(19)
C15 C 0.4530(4) 0.9410(3) 0.1728(3)
C22 C 0.3951(4) 0.9612(3) 0.1252(3)
C48 C 0.3221(5) 0.9432(4) 0.1101(3)
H35 H 0.302326 0.915803 0.129700
S32 S 0.74606(11) 0.44584(10) 0.05858(7)
S34 S 0.53489(13) 0.78959(11) 0.07263(8)
S37 S 0.57533(12) 0.44512(12) 0.02093(8)
S44 S 0.40790(15) 0.70383(12) 0.04339(9)
O40 O 0.4580(3) 0.7894(2) 0.20222(18)
O45 O 0.5560(3) 0.8384(2) 0.17938(19)
O52 O 0.8003(3) 0.4260(2) 0.17135(19)
C80 C 0.4996(4) 0.8028(3) 0.1714(3)
C85 C 0.7303(4) 0.4390(4) 0.1618(3)
C90 C 0.6895(4) 0.4441(4) 0.1057(3)
C93 C 0.4815(4) 0.7723(4) 0.1196(3)
C94 C 0.4786(5) 0.7449(4) 0.0222(3)
C96 C 0.6121(5) 0.4442(4) 0.0877(3)
H75 H 0.579033 0.443767 0.110672
C108 C 0.6658(5) 0.4587(4) 0.0062(3)
C111 C 0.4237(5) 0.7346(4) 0.1047(3)
H81 H 0.392038 0.724961 0.127355
Dy11 Dy 0.60789(2) 0.90963(2) 0.24808(2)
Dy12 Dy 0.89211(2) 0.40963(2) 0.25192(2)
Dy15 Dy 0.38110(2) 0.83837(2) 0.25080(2)
N1 N 0.7605(5) 0.9919(3) 0.7541(3)
C6 C 0.7667(7) 0.9468(5) 0.7171(4)
H16 H 0.818077 0.947087 0.710710
H17 H 0.729185 0.953573 0.684804
H18 H 0.756824 0.909833 0.731185
C8 C 0.8007(6) 0.9863(5) 0.8078(4)
H22 H 0.774395 0.958299 0.824762
H24 H 0.853036 0.973554 0.809661
S13 S 0.42683(13) 0.95454(11) 0.54482(8)
O28 O 0.3543(4) 0.9863(3) 0.7474(2)
H27 H 0.314494 0.981167 0.761119
H28 H 0.337407 0.975903 0.715056
C37 C 0.4391(5) 0.9849(4) 0.6063(3)
H30 H 0.407764 0.973488 0.628645
C47 C 0.4942(5) 0.9998(4) 0.5247(3)
S27 S 0.45205(13) 0.95512(10) 0.42491(8)
O33 O 0.5321(3) 0.9589(2) 0.29677(19)
O34 O 0.4331(3) 0.9096(2) 0.31821(19)
C65 C 0.4893(5) 0.9447(4) 0.3267(3)
C66 C 0.5058(5) 0.9748(4) 0.3785(3)
S29 S 0.73034(11) 0.70049(10) 0.55827(7)
C69 C 0.4273(7) 0.3295(5) 0.7204(5)
H47 H 0.466231 0.316367 0.702820
H48 H 0.420616 0.301024 0.745833
H49 H 0.378920 0.334930 0.695308
O35 O 0.4784(3) 0.6931(2) 0.68228(19)
C70 C 0.7968(6) 0.7347(5) 0.3000(4)
H50 H 0.846027 0.716864 0.300173
H51 H 0.805292 0.771907 0.316846
H52 H 0.767880 0.710383 0.318486
N6 N 0.7537(5) 0.7420(3) 0.2469(3)
O36 O 0.5801(4) 0.7730(3) 0.7427(3)
C71 C 0.5196(7) 0.3815(5) 0.7854(5)
H53 H 0.555472 0.354461 0.775935
H54 H 0.542575 0.419521 0.789427
H55 H 0.507880 0.369656 0.817879
O37 O 0.5094(3) 0.6830(3) 0.7974(2)
S30 S 0.74610(11) 0.96326(10) 0.06252(7)
O38 O 0.5103(3) 0.5536(2) 0.8175(2)
C72 C 0.4749(6) 0.8635(5) 0.7199(4)
H56 H 0.478043 0.874787 0.685170
H57 H 0.455002 0.824629 0.719158
H58 H 0.440650 0.889516 0.732436
S31 S 0.23869(11) 0.78958(11) 0.43667(7)
C73 C 0.5758(7) 0.9211(5) 0.7754(5)
H59 H 0.541872 0.934141 0.796912
H60 H 0.628031 0.918264 0.796306
H61 H 0.574419 0.948216 0.747409
N7 N 0.5511(6) 0.8659(4) 0.7543(4)
N8 N 0.4511(6) 0.3828(4) 0.7461(4)
C75 C 0.7612(7) 0.6990(5) 0.2089(4)
H65 H 0.748874 0.661468 0.220886
H66 H 0.726004 0.707732 0.176101
H67 H 0.813602 0.698804 0.204369
H69 H 0.198433 0.976860 0.174989
S35 S 0.40648(12) 0.81076(12) 0.47727(7)
S36 S 0.55920(12) 0.73546(10) 0.41157(8)
S38 S 0.58242(12) 0.92798(11) 0.02364(8)
S39 S 0.58579(12) 0.48956(11) 0.90889(8)
S40 S 0.40098(12) 0.75491(11) 0.58830(8)
S41 S 0.42805(13) 0.70105(11) 0.92357(8)
S42 S 0.55818(14) 0.78451(12) 0.95066(9)
S45 S 0.55989(13) 0.69011(13) 0.52312(8)
S46 S 0.72676(12) 0.76406(13) 0.44085(9)
S47 S 0.75621(13) 0.50297(14) 0.94280(9)
S48 S 0.23308(13) 0.72954(15) 0.55062(10)
O39 O 0.5599(3) 0.8416(2) 0.29594(19)
O43 O 0.4688(3) 0.7887(2) 0.31946(19)
O44 O 0.6168(3) 0.5889(2) 0.7943(2)
C77 C 0.5828(5) 0.5614(4) 0.8238(3)
O46 O 0.3730(3) 0.6552(2) 0.7044(2)
O47 O 0.6794(3) 0.6949(3) 0.69630(19)
O48 O 0.4065(3) 0.6461(2) 0.8203(2)
O50 O 0.2963(3) 0.8287(3) 0.3047(2)
O51 O 0.7897(3) 0.6794(2) 0.6710(2)
O53 O 0.8027(3) 0.9554(2) 0.1785(2)
O54 O 0.6948(3) 0.9210(3) 0.1959(2)
O55 O 0.1846(3) 0.8003(3) 0.32098(19)
O56 O 0.3447(3) 0.7345(2) 0.2476(2)
H71 H 0.325077 0.726485 0.273549
H72 H 0.307947 0.728311 0.220789
O57 O 0.2913(3) 0.9220(3) 0.2336(3)
C78 C 0.5369(5) 0.8065(4) 0.3252(3)
O59 O 0.6993(4) 0.8263(2) 0.2637(3)
O60 O 0.4072(4) 0.4716(3) 0.7593(3)
C79 C 0.2561(5) 0.8111(4) 0.3348(3)
C81 C 0.7334(4) 0.9405(4) 0.1654(3)
C82 C 0.7182(5) 0.6890(4) 0.6618(3)
C84 C 0.4645(5) 0.6783(4) 0.8279(3)
C86 C 0.4068(5) 0.6831(4) 0.6747(3)
C87 C 0.6761(5) 0.6936(4) 0.6063(3)
C89 C 0.2943(5) 0.8070(4) 0.3913(3)
C91 C 0.4846(5) 0.7122(4) 0.8772(3)
C92 C 0.5949(5) 0.7843(4) 0.3719(3)
C95 C 0.6323(5) 0.5347(4) 0.8718(3)
C97 C 0.6937(4) 0.9427(4) 0.1091(3)
C98 C 0.3575(5) 0.7079(4) 0.6260(3)
C100 C 0.6632(5) 0.9639(4) 0.0097(3)
C101 C 0.3200(5) 0.7837(4) 0.4903(3)
C102 C 0.6696(5) 0.4796(4) 0.9594(3)
C103 C 0.4874(5) 0.7443(4) 0.9734(3)
C104 C 0.6476(5) 0.7097(4) 0.5068(3)
C105 C 0.2806(5) 0.9619(4) 0.2613(4)
H76 H 0.303917 0.959221 0.296846
C106 C 0.3701(5) 0.8160(4) 0.4106(3)
H77 H 0.402770 0.824959 0.388426
C107 C 0.5427(5) 0.7498(4) 0.8903(3)
H78 H 0.574819 0.757430 0.867452
C109 C 0.6198(5) 0.9265(4) 0.0908(3)
H79 H 0.589245 0.914767 0.113490
C112 C 0.6464(5) 0.7322(4) 0.4600(3)
C113 C 0.3178(5) 0.7598(4) 0.5363(3)
C114 C 0.6703(5) 0.7968(4) 0.3851(3)
H82 H 0.692271 0.822329 0.365121
C115 C 0.5998(5) 0.6895(4) 0.5898(3)
H83 H 0.568147 0.686330 0.613582
C116 C 0.2818(5) 0.6970(4) 0.6084(3)
H84 H 0.255814 0.672358 0.626813
C117 C 0.7086(5) 0.5410(4) 0.8878(3)
H85 H 0.735904 0.565272 0.870055
C118 C 0.7109(5) 0.7881(4) 0.2348(4)
H86 H 0.686255 0.792184 0.199591
C119 C 0.5970(5) 0.8202(4) 0.7587(3)
H87 H 0.648459 0.825739 0.776405
C120 C 0.4000(6) 0.4266(4) 0.7413(4)
H88 H 0.351249 0.418910 0.720030
Dy14 Dy 0.88110(2) 0.66163(2) 0.75080(2)
Dy17 Dy 0.09418(2) 0.82764(2) 0.24451(2)
Dy21 Dy 0.89371(2) 0.92733(2) 0.25519(2)
O73 O 0.2897(3) 0.8206(2) 0.1710(2)
O76 O 0.6997(3) 0.9260(2) 0.32865(19)
O77 O 0.3027(3) 0.5446(2) 0.6785(2)
O79 O 0.6846(3) 0.6997(3) 0.82098(19)
C3_2 C 0.0196(7) 0.1185(5) 0.2854(5)
H7_2 H 0.055472 0.145539 0.275935
H8_2 H 0.042575 0.080479 0.289427
H9_2 H 0.007880 0.130344 0.317879
S4_2 S 0.24606(11) 0.05416(10) 0.55858(7)
S10_2 S 0.07533(12) 0.05488(12) 0.52093(8)
S12_2 S 0.08579(12) 0.01044(11) 0.40889(8)
O10_2 O 0.1907(3) 0.0508(3) 0.69514(19)
C18_2 C 0.2303(4) 0.0610(4) 0.6618(3)
C25_2 C 0.1895(4) 0.0559(4) 0.6057(3)
C32_2 C 0.1121(5) 0.0558(4) 0.5877(3)
H29_2 H 0.079033 0.056233 0.610672
C39_2 C 0.1696(5) 0.0204(4) 0.4594(3)
C45_2 C 0.1658(5) 0.0413(4) 0.5062(3)
O31_2 O 0.0223(3) 0.0598(3) 0.79812(19)
C63_2 C 0.0043(5) 0.0007(4) 0.9750(3)
S1_2 S 0.23034(11) 0.79951(10) 0.05827(7)
O3_2 O 0.0801(4) 0.7270(3) 0.2427(3)
O4_2 O 0.0094(3) 0.8170(3) 0.2974(2)
O5_2 O 0.0103(3) 0.9464(2) 0.3175(2)
C5_2 C 0.0758(7) 0.5789(5) 0.2754(5)
H13_2 H 0.041872 0.565859 0.296912
H14_2 H 0.128031 0.581736 0.296306
H15_2 H 0.074419 0.551784 0.247409
N3_2 N 0.0511(6) 0.6341(4) 0.2543(4)
S7_2 S 0.03489(13) 0.71041(11) 0.57263(8)
S16_2 S 0.05818(14) 0.71549(12) 0.45066(9)
S18_2 S 0.05672(14) 0.95685(12) 0.07435(8)
S20_2 S 0.05989(13) 0.80989(13) 0.02312(8)
S23_2 S 0.25621(13) 0.99703(14) 0.44280(9)
O12_2 O 0.1168(3) 0.9111(2) 0.2943(2)
O13 O 0.0560(3) 0.6616(2) 0.67938(19)
C9_2 C 0.0828(5) 0.9386(4) 0.3238(3)
O16_2 O 0.1794(3) 0.8051(3) 0.19630(19)
O19_2 O 0.0788(3) 0.9011(2) 0.1784(2)
C14_2 C 0.2182(5) 0.8110(4) 0.1618(3)
C20_2 C 0.0207(5) 0.9344(4) 0.1713(3)
C21_2 C 0.1761(5) 0.8064(4) 0.1063(3)
C24_2 C 0.0005(5) 0.9681(4) 0.1215(3)
C31_2 C 0.1323(5) 0.9653(4) 0.3718(3)
C41_2 C 0.1476(5) 0.7903(4) 0.0068(3)
C44_2 C 0.0427(5) 0.7502(4) 0.3903(3)
H33_2 H 0.074819 0.742570 0.367452
C54_2 C 0.0998(5) 0.8105(4) 0.0898(3)
H38_2 H 0.068147 0.813670 0.113582
C57_2 C 0.2086(5) 0.9590(4) 0.3878(3)
H41_2 H 0.235904 0.934728 0.370055
C59_2 C 0.0970(5) 0.6798(4) 0.2587(3)
H43_2 H 0.148459 0.674261 0.276405
S27_2 S 0.04795(13) 0.45512(10) 0.07509(8)
O34_2 O 0.0669(3) 0.4096(2) 0.18179(19)
C65_2 C 0.0107(5) 0.4447(4) 0.1733(3)
N5_2 N 0.2605(5) 0.5081(3) 0.2541(3)
S31_2 S 0.26131(11) 0.28958(11) 0.06333(7)
C74_2 C 0.2667(7) 0.5532(5) 0.2171(4)
H62_2 H 0.318077 0.552913 0.210710
H63_2 H 0.229185 0.546427 0.184804
H64_2 H 0.256824 0.590167 0.231185
C76_2 C 0.3007(6) 0.5137(5) 0.3078(4)
H68_2 H 0.274395 0.541701 0.324762
H69_2 H 0.301567 0.476860 0.325011
H70_2 H 0.353036 0.526446 0.309661
S35_2 S 0.09352(12) 0.31076(12) 0.02273(7)
O41 O 0.0209(3) 0.5397(2) 0.67933(18)
O43_2 O 0.0312(3) 0.2887(2) 0.18054(19)
O50_2 O 0.2037(3) 0.3287(3) 0.1953(2)
O56_2 O 0.1553(3) 0.2345(2) 0.2524(2)
H71_2 H 0.174923 0.226485 0.226451
H72_2 H 0.192053 0.228311 0.279211
O57_2 O 0.2087(3) 0.4220(3) 0.2664(3)
C79_2 C 0.2439(5) 0.3111(4) 0.1652(3)
C89_2 C 0.2057(5) 0.3070(4) 0.1087(3)
C101_2 C 0.1800(5) 0.2837(4) 0.0097(3)
C105_2 C 0.2194(5) 0.4619(4) 0.2387(4)
H76_2 H 0.196083 0.459221 0.203154
C106_2 C 0.1299(5) 0.3160(4) 0.0894(3)
H77_2 H 0.097230 0.324959 0.111574
O63 O 0.0420(3) 0.2894(2) 0.29778(18)
O70 O 0.0689(3) 0.4059(2) 0.29736(19)
C2_2 C 0.2968(6) 0.7653(5) 0.8000(4)
H4_2 H 0.346027 0.783136 0.800173
H5_2 H 0.305292 0.728093 0.816846
H6_2 H 0.267880 0.789617 0.818486
N2_2 N 0.2537(5) 0.7580(3) 0.7469(3)
S2_2 S 0.24610(11) 0.53674(10) 0.56252(7)
C7_2 C 0.2612(7) 0.8010(5) 0.7089(4)
H19_2 H 0.248874 0.838532 0.720886
H20_2 H 0.226004 0.792268 0.676101
H21_2 H 0.313602 0.801196 0.704369
S5_2 S 0.07344(11) 0.51346(10) 0.41374(7)
S9_2 S 0.05920(12) 0.76454(10) 0.91157(8)
S11_2 S 0.08242(12) 0.57202(11) 0.52364(8)
S13_2 S 0.07317(13) 0.45454(11) 0.95518(8)
S17_2 S 0.23574(12) 0.47159(12) 0.44704(9)
S21_2 S 0.22676(12) 0.73594(13) 0.94085(9)
O6_2 O 0.0599(3) 0.6584(2) 0.79594(19)
O8_2 O 0.0321(3) 0.5411(2) 0.79677(19)
O24_2 O 0.1948(3) 0.5790(3) 0.6959(2)
O28_2 O 0.1457(4) 0.4863(3) 0.7526(2)
H27_2 H 0.185506 0.481167 0.738881
H28_2 H 0.162593 0.475903 0.784944
C10_2 C 0.0369(5) 0.6935(4) 0.8252(3)
O29_2 O 0.1993(4) 0.6737(2) 0.7637(3)
C13_2 C 0.2334(4) 0.5595(4) 0.6654(3)
C15_2 C 0.0470(4) 0.4410(3) 0.3272(3)
C22_2 C 0.1049(4) 0.4612(3) 0.3748(3)
C27_2 C 0.0058(5) 0.5252(4) 0.8785(3)
C28_2 C 0.0949(5) 0.7157(4) 0.8719(3)
C33_2 C 0.1937(4) 0.5573(4) 0.6091(3)
C35_2 C 0.1593(5) 0.5110(4) 0.4635(3)
C36_2 C 0.1632(5) 0.5361(4) 0.5097(3)
C37_2 C 0.0609(5) 0.4849(4) 0.8937(3)
H30_2 H 0.092236 0.473488 0.871355
C46_2 C 0.1198(5) 0.5735(4) 0.5908(3)
H34_2 H 0.089245 0.585233 0.613490
C47_2 C 0.0058(5) 0.4998(4) 0.9753(3)
C48_2 C 0.1779(5) 0.4432(4) 0.3899(3)
H35_2 H 0.197674 0.415803 0.370300
C50_2 C 0.1464(5) 0.7678(4) 0.9600(3)
C52_2 C 0.1703(5) 0.7032(4) 0.8851(3)
H37_2 H 0.192271 0.677671 0.865121
C58_2 C 0.2109(5) 0.7119(4) 0.7348(4)
H42_2 H 0.186255 0.707816 0.699591
S26_2 S 0.07636(15) 0.96247(13) 0.95309(9)
C64_2 C 0.0590(5) 0.9963(4) 0.8923(3)
H45_2 H 0.091581 0.989332 0.869634
O35_2 O 0.0216(3) 0.1931(2) 0.81772(19)
C72_2 C 0.0251(6) 0.3635(5) 0.7801(4)
H56_2 H 0.021957 0.374787 0.814830
H57_2 H 0.044998 0.324629 0.780842
H58_2 H 0.059350 0.389516 0.767564
S40_2 S 0.09902(12) 0.25491(11) 0.91170(8)
S41_2 S 0.07195(13) 0.20105(11) 0.57643(8)
S44_2 S 0.09210(15) 0.20383(12) 0.45661(9)
S48_2 S 0.26692(13) 0.22954(15) 0.94938(10)
O46_2 O 0.1270(3) 0.1552(2) 0.7956(2)
O48_2 O 0.0935(3) 0.1461(2) 0.6797(2)
C80_2 C 0.0004(4) 0.3028(3) 0.3286(3)
C84_2 C 0.0355(5) 0.1783(4) 0.6721(3)
C86_2 C 0.0932(5) 0.1831(4) 0.8253(3)
C91_2 C 0.0154(5) 0.2122(4) 0.6228(3)
C93_2 C 0.0185(4) 0.2723(4) 0.3804(3)
C94_2 C 0.0214(5) 0.2449(4) 0.4778(3)
C98_2 C 0.1425(5) 0.2079(4) 0.8740(3)
C103_2 C 0.0126(5) 0.2443(4) 0.5266(3)
C111_2 C 0.0763(5) 0.2346(4) 0.3953(3)
H81_2 H 0.107962 0.224961 0.372645
C113_2 C 0.1822(5) 0.2598(4) 0.9637(3)
C116_2 C 0.2182(5) 0.1970(4) 0.8916(3)
H84_2 H 0.244186 0.172358 0.873187
C69_2 C 0.0727(7) 0.8295(5) 0.7796(5)
H47_2 H 0.033769 0.816367 0.797180
H48_2 H 0.079384 0.801024 0.754167
H49_2 H 0.121080 0.834930 0.804692
N8_2 N 0.0489(6) 0.8828(4) 0.7539(4)
O60_2 O 0.0928(4) 0.9716(3) 0.7407(3)
C120_2 C 0.1000(6) 0.9266(4) 0.7587(4)
H88_2 H 0.148751 0.918910 0.779970
C1_2 C 0.9273(7) 0.1705(5) 0.2204(5)
H1_2 H 0.966231 0.183633 0.202820
H2_2 H 0.920616 0.198976 0.245833
H3_2 H 0.878920 0.165070 0.195308
N4_2 N 0.9511(6) 0.1172(4) 0.2461(4)
S22_2 S 0.92364(15) 0.03753(13) 0.04691(9)
O30_2 O 0.9072(4) 0.0284(3) 0.2593(3)
C55_2 C 0.9410(5) 0.0037(4) 0.1077(3)
H39_2 H 0.908419 0.010668 0.130366
C60_2 C 0.9000(6) 0.0734(4) 0.2413(4)
H44_2 H 0.851249 0.081090 0.220030
S25_2 S 0.94328(14) 0.04315(12) 0.92565(8)
O32_2 O 0.9212(3) 0.0989(2) 0.8216(2)
C61_2 C 0.9793(5) 0.0656(4) 0.8287(3)
C62_2 C 0.9995(5) 0.0319(4) 0.8785(3)
O1_2 O 0.9777(3) 0.9402(3) 0.20188(19)
O2_2 O 0.9784(3) 0.8069(2) 0.18228(19)
C4_2 C 0.9749(6) 0.6365(5) 0.2199(4)
H10_2 H 0.978043 0.625213 0.185170
H11_2 H 0.955002 0.675371 0.219158
H12_2 H 0.940650 0.610484 0.232436
S14_2 S 0.90098(12) 0.74509(11) 0.08830(8)
S15_2 S 0.92805(13) 0.79895(11) 0.42357(8)
S19_2 S 0.90790(15) 0.79617(12) 0.54339(9)
S24_2 S 0.73308(13) 0.77046(15) 0.05062(10)
O7 O 0.9580(3) 0.7106(2) 0.70222(18)
O15_2 O 0.8730(3) 0.8448(2) 0.2044(2)
O17_2 O 0.9065(3) 0.8539(2) 0.3203(2)
C12_2 C 0.9996(4) 0.6972(3) 0.6714(3)
C16_2 C 0.9645(5) 0.8217(4) 0.3279(3)
C19_2 C 0.9068(5) 0.8169(4) 0.1747(3)
C26_2 C 0.9846(5) 0.7878(4) 0.3772(3)
C29_2 C 0.9815(4) 0.7277(4) 0.6196(3)
C30_2 C 0.9786(5) 0.7551(4) 0.5222(3)
C34_2 C 0.8575(5) 0.7921(4) 0.1260(3)
C40_2 C 0.9874(5) 0.7557(4) 0.4734(3)
C49_2 C 0.9237(5) 0.7654(4) 0.6047(3)
H36_2 H 0.892038 0.775039 0.627355
C51_2 C 0.8178(5) 0.7402(4) 0.0363(3)
C53_2 C 0.9957(5) 0.9993(4) 0.0250(3)
C56_2 C 0.7818(5) 0.8030(4) 0.1084(3)
H40_2 H 0.755814 0.827642 0.126813
S28_2 S 0.92683(13) 0.54546(11) 0.04482(8)
O33_2 O 0.9679(3) 0.4589(2) 0.20323(19)
C66_2 C 0.9942(5) 0.4748(4) 0.1215(3)
C67_2 C 0.9391(5) 0.5151(4) 0.1063(3)
H46_2 H 0.907764 0.526512 0.128645
C68_2 C 0.9942(5) 0.5002(4) 0.0247(3)
C70_2 C 0.7032(6) 0.2347(5) 0.2000(4)
H50_2 H 0.653973 0.216864 0.199827
H51_2 H 0.694708 0.271907 0.183154
H52_2 H 0.732120 0.210383 0.181514
N6_2 N 0.7463(5) 0.2420(3) 0.2531(3)
S30_2 S 0.75390(11) 0.46326(10) 0.43748(7)
C75_2 C 0.7388(7) 0.1990(5) 0.2911(4)
H65_2 H 0.751126 0.161468 0.279114
H66_2 H 0.773996 0.207732 0.323899
H67_2 H 0.686398 0.198804 0.295631
S33 S 0.92656(11) 0.48654(10) 0.58626(7)
S36_2 S 0.94080(12) 0.23546(10) 0.08843(8)
S38_2 S 0.91758(12) 0.42798(11) 0.47636(8)
S43_2 S 0.76426(12) 0.52841(12) 0.55296(9)
S46_2 S 0.77324(12) 0.26406(13) 0.05915(9)
O39_2 O 0.9401(3) 0.3416(2) 0.20406(19)
O49 O 0.9311(3) 0.5941(2) 0.70264(19)
O54_2 O 0.8052(3) 0.4210(3) 0.3041(2)
O58_2 O 0.8543(4) 0.5137(3) 0.2474(2)
H73_2 H 0.814494 0.518833 0.261119
H74_2 H 0.837407 0.524097 0.215056
C78_2 C 0.9631(5) 0.3065(4) 0.1748(3)
O59_2 O 0.8007(4) 0.3263(2) 0.2363(3)
C81_2 C 0.7666(4) 0.4405(4) 0.3346(3)
C83_2 C 0.9530(4) 0.5590(3) 0.6728(3)
C88_2 C 0.8951(4) 0.5388(3) 0.6252(3)
C92_2 C 0.9051(5) 0.2843(4) 0.1281(3)
C97_2 C 0.8063(4) 0.4427(4) 0.3909(3)
C99 C 0.8407(5) 0.4890(4) 0.5365(3)
C100_2 C 0.8368(5) 0.4639(4) 0.4903(3)
C109_2 C 0.8802(5) 0.4265(4) 0.4092(3)
H79_2 H 0.910755 0.414767 0.386510
C110_2 C 0.8221(5) 0.5568(4) 0.6101(3)
H80_2 H 0.802326 0.584197 0.629700
C112_2 C 0.8536(5) 0.2322(4) 0.0400(3)
C114_2 C 0.8297(5) 0.2968(4) 0.1149(3)
H82_2 H 0.807729 0.322329 0.134879
C118_2 C 0.7891(5) 0.2881(4) 0.2652(4)
H86_2 H 0.813745 0.292184 0.300409
O64 O 0.9791(3) 0.4603(2) 0.32067(18)
O67_2 O 0.8093(3) 0.9492(3) 0.30486(19)
O69 O 0.9440(3) 0.3384(2) 0.32062(19)
N1_2 N 0.7395(5) 0.4919(3) 0.7459(3)
S3_2 S 0.73869(11) 0.71042(11) 0.93667(7)
C6_2 C 0.7333(7) 0.4468(5) 0.7829(4)
H16_2 H 0.681923 0.447087 0.789290
H17_2 H 0.770815 0.453573 0.815196
H18_2 H 0.743176 0.409833 0.768815
C8_2 C 0.6993(6) 0.4863(5) 0.6922(4)
H22_2 H 0.725605 0.458299 0.675238
H23_2 H 0.698433 0.523140 0.674989
H24_2 H 0.646964 0.473554 0.690339
S6_2 S 0.95205(13) 0.54488(10) 0.92491(8)
S8_2 S 0.90648(12) 0.68924(12) 0.97727(7)
O11_2 O 0.9688(3) 0.7113(2) 0.81946(19)
O14_2 O 0.9331(3) 0.5904(2) 0.81821(19)
O20_2 O 0.7963(3) 0.6713(3) 0.8047(2)
O26_2 O 0.8447(3) 0.7655(2) 0.7476(2)
H25_2 H 0.825077 0.773515 0.773549
H26_2 H 0.807947 0.771689 0.720789
O27_2 O 0.7913(3) 0.5780(3) 0.7336(3)
C11_2 C 0.7561(5) 0.6889(4) 0.8348(3)
C17_2 C 0.9893(5) 0.5553(4) 0.8267(3)
C23_2 C 0.7943(5) 0.6930(4) 0.8913(3)
C38_2 C 0.8200(5) 0.7163(4) 0.9903(3)
C42_2 C 0.7806(5) 0.5381(4) 0.7613(4)
H31_2 H 0.803917 0.540779 0.796846
C43_2 C 0.8701(5) 0.6840(4) 0.9106(3)
H32_2 H 0.902770 0.675041 0.888426
S29_2 S 0.76966(11) 0.20049(10) 0.94173(7)
O36_2 O 0.9199(4) 0.2730(3) 0.7573(3)
O37_2 O 0.9906(3) 0.1830(3) 0.7026(2)
O38_2 O 0.9897(3) 0.0536(2) 0.6825(2)
C73_2 C 0.9242(7) 0.4211(5) 0.7246(5)
H59_2 H 0.958128 0.434141 0.703088
H60_2 H 0.871969 0.418264 0.703694
H61_2 H 0.925581 0.448216 0.752591
N7_2 N 0.9489(6) 0.3659(4) 0.7457(4)
S34_2 S 0.96511(13) 0.28959(11) 0.42737(8)
S42_2 S 0.94182(14) 0.28451(12) 0.54934(9)
S45_2 S 0.94011(13) 0.19011(13) 0.97688(8)
S47_2 S 0.74379(13) 0.00297(14) 0.55720(9)
O44_2 O 0.8832(3) 0.0889(2) 0.7057(2)
C77_2 C 0.9172(5) 0.0614(4) 0.6762(3)
O47_2 O 0.8206(3) 0.1949(3) 0.80370(19)
C82_2 C 0.7818(5) 0.1890(4) 0.8382(3)
C87_2 C 0.8239(5) 0.1936(4) 0.8937(3)
C95_2 C 0.8677(5) 0.0347(4) 0.6282(3)
C104_2 C 0.8524(5) 0.2097(4) 0.9932(3)
C107_2 C 0.9573(5) 0.2498(4) 0.6097(3)
H78_2 H 0.925181 0.257430 0.632548
C115_2 C 0.9002(5) 0.1895(4) 0.9102(3)
H83_2 H 0.931853 0.186330 0.886418
C117_2 C 0.7914(5) 0.0410(4) 0.6122(3)
H85_2 H 0.764096 0.065272 0.629945
C119_2 C 0.9030(5) 0.3202(4) 0.7413(3)
H87_2 H 0.851541 0.325739 0.723595
C71_2 C 0.9804(7) 0.8815(5) 0.7146(5)
H53_2 H 0.944528 0.854461 0.724065
H54_2 H 0.957425 0.919521 0.710573
H55_2 H 0.992120 0.869656 0.682121
S32_2 S 0.75394(11) 0.94584(10) 0.44142(7)
S37_2 S 0.92467(12) 0.94512(12) 0.47907(8)
S39_2 S 0.91421(12) 0.98956(11) 0.59111(8)
C85_2 C 0.7697(4) 0.9390(4) 0.3382(3)
C90_2 C 0.8105(4) 0.9441(4) 0.3943(3)
C96_2 C 0.8879(5) 0.9442(4) 0.4123(3)
H75_2 H 0.920967 0.943767 0.389328
C102_2 C 0.8304(5) 0.9796(4) 0.5406(3)
C108_2 C 0.8342(5) 0.9587(4) 0.4938(3)
S33_2 S 0.57344(11) 0.98654(10) 0.91374(7)
C99_2 C 0.6593(5) 0.9890(4) 0.9635(3)
loop_
_geom_bond_atom_site_label_1
_geom_bond_atom_site_label_2
_geom_bond_site_symmetry_1
_geom_bond_site_symmetry_2
C35 S5 1_555 1_555
Dy1 O6 1_555 1_555
S1 C21 1_555 1_555
O1 Dy4 1_555 1_555
Dy2 O11 1_555 1_555
C1 H1 1_555 1_555
H2 C1 1_555 1_555
H3 C1 1_555 1_555
O2 Dy3 1_555 1_555
Dy3 O3 1_555 1_555
C2 H4 1_555 1_555
H5 C2 1_555 1_555
H6 C2 1_555 1_555
N2 C2 1_555 1_555
O3 C59 1_555 1_555
Dy4 O5 1_555 1_555
C3 H7 1_555 1_555
H8 C3 1_555 1_555
H9 C3 1_555 1_555
O4 Dy3 1_555 1_555
S2 C33 1_555 1_555
O5 C9 1_555 1_555
C4 H10 1_555 1_555
H11 C4 1_555 1_555
H12 C4 1_555 1_555
S3 C23 1_555 1_555
C5 H13 1_555 1_555
H14 C5 1_555 1_555
H15 C5 1_555 1_555
N3 C4 1_555 1_555
N4 C1 1_555 1_555
C7 N2 1_555 1_555
H19 C7 1_555 1_555
H20 C7 1_555 1_555
H21 C7 1_555 1_555
S6 C27 1_555 1_555
S8 C38 1_555 1_555
S9 C28 1_555 1_555
S11 C36 1_555 1_555
S12 C31 1_555 1_555
S14 C34 1_555 1_555
S15 C26 1_555 1_555
S16 C40 1_555 1_555
S18 C24 1_555 1_555
S20 C41 1_555 1_555
S21 C50 1_555 1_555
S22 C53 1_555 1_555
S23 C39 1_555 1_555
S24 C51 1_555 1_555
O6 C10 1_555 1_555
O8 Dy1 1_555 1_555
O11 C10 1_555 1_555
O12 Dy3 1_555 1_555
O14 Dy2 1_555 1_555
C9 O12 1_555 1_555
O15 Dy4 1_555 1_555
O16 Dy3 1_555 1_555
O17 Dy4 1_555 1_555
O19 Dy3 1_555 1_555
O20 Dy2 1_555 1_555
O21 C14 1_555 1_555
O23 C13 1_555 1_555
O24 Dy1 1_555 1_555
O25 C11 1_555 1_555
O26 Dy2 1_555 1_555
H25 O26 1_555 1_555
H26 O26 1_555 1_555
O27 Dy2 1_555 1_555
C10 C28 1_555 1_555
O29 Dy1 1_555 1_555
O30 Dy4 1_555 1_555
C11 O20 1_555 1_555
C13 O24 1_555 1_555
C14 O16 1_555 1_555
C16 O4 1_555 1_555
C17 O8 1_555 1_555
C19 O2 1_555 1_555
C20 O1 1_555 1_555
C21 C14 1_555 1_555
C23 C11 1_555 1_555
C24 C20 1_555 1_555
C26 C16 1_555 1_555
C27 C17 1_555 1_555
C28 C52 1_555 1_555
C31 C9 1_555 1_555
C33 C13 1_555 1_555
C34 C19 1_555 1_555
C36 S2 1_555 1_555
C38 S3 1_555 1_555
C39 S12 1_555 1_555
C40 S15 1_555 1_555
C41 S1 1_555 1_555
H31 C42 1_555 1_555
C43 S8 1_555 1_555
H32 C43 1_555 1_555
C44 S16 1_555 1_555
H33 C44 1_555 1_555
C46 S11 1_555 1_555
H34 C46 1_555 1_555
C50 S9 1_555 1_555
C51 S14 1_555 1_555
C52 S21 1_555 1_555
H37 C52 1_555 1_555
C53 S18 1_555 1_555
C54 S20 1_555 1_555
H38 C54 1_555 1_555
C55 S22 1_555 1_555
H39 C55 1_555 1_555
C56 S24 1_555 1_555
H40 C56 1_555 1_555
C57 S23 1_555 1_555
H41 C57 1_555 1_555
C58 N2 1_555 1_555
H42 C58 1_555 1_555
C59 N3 1_555 1_555
H43 C59 1_555 1_555
C60 N4 1_555 1_555
H44 C60 1_555 1_555
O31 C61 1_555 1_555
S25 C62 1_555 1_555
S26 C63 1_555 1_555
O32 C61 1_555 1_555
C61 C62 1_555 1_555
C62 C64 1_555 1_555
C63 C53 1_555 1_555
C64 S26 1_555 1_555
H45 C64 1_555 1_555
S28 C67 1_555 1_555
C67 H46 1_555 1_555
N5 C74 1_555 1_555
C74 H62 1_555 1_555
H63 C74 1_555 1_555
H64 C74 1_555 1_555
C76 N5 1_555 1_555
H68 C76 1_555 1_555
H70 C76 1_555 1_555
H73 O58 1_555 1_555
H74 O58 1_555 1_555
Dy16 O21 1_555 1_555
Dy18 O32 1_555 1_555
Dy19 O25 1_555 1_555
Dy23 O31 1_555 1_555
Dy24 O23 1_555 1_555
O62 Dy2 1_555 1_555
O65 Dy1 1_555 1_555
O67 Dy4 1_555 1_555
O68 Dy1 1_555 1_555
O71 Dy2 1_555 1_555
O74 Dy2 1_555 1_555
O75 Dy1 1_555 1_555
O78 Dy4 1_555 1_555
O80 Dy3 1_555 1_555
C3 N4 1_555 1_555
C5 N3 1_555 1_555
O14 C17 1_555 1_555
O15 C19 1_555 1_555
O17 C16 1_555 1_555
O19 C20 1_555 1_555
O27 C42 1_555 1_555
O29 C58 1_555 1_555
O30 C60 1_555 1_555
C21 C54 1_555 1_555
C23 C43 1_555 1_555
C24 C55 1_555 1_555
C26 C44 1_555 1_555
C31 C57 1_555 1_555
C33 C46 1_555 1_555
C34 C56 1_555 1_555
C38 C51 1_555 1_555
C41 C50 1_555 1_555
S25 C63 1_555 1_555
S28 C68 1_555 1_555
S4 C25 1_555 1_555
S7 C29 1_555 1_555
S10 C32 1_555 1_555
S19 C30 1_555 1_555
O62 C12 1_555 1_555
O10 C18 1_555 1_555
O68 C12 1_555 1_555
O22 C18 1_555 1_555
C12 C29 1_555 1_555
C18 C25 1_555 1_555
C25 C32 1_555 1_555
C29 C49 1_555 1_555
C30 S7 1_555 1_555
C32 H29 1_555 1_555
C45 S4 1_555 1_555
C49 S19 1_555 1_555
H36 C49 1_555 1_555
O65 C83 1_555 1_555
O71 C83 1_555 1_555
C83 C88 1_555 1_555
C88 C110 1_555 1_555
C110 S43 1_555 1_555
H80 C110 1_555 1_555
Dy10 O22 1_555 1_555
Dy23 O10 1_555 1_555
S10 C45 1_555 1_555
O9 C15 1_555 1_555
O18 C15 1_555 1_555
C15 C22 1_555 1_555
C22 C48 1_555 1_555
C48 S17 1_555 1_555
H35 C48 1_555 1_555
S32 C90 1_555 1_555
S34 C93 1_555 1_555
S37 C96 1_555 1_555
S44 C94 1_555 1_555
O40 C80 1_555 1_555
O67 C85 1_555 1_555
O45 C80 1_555 1_555
O52 C85 1_555 1_555
C80 C93 1_555 1_555
C85 C90 1_555 1_555
C90 C96 1_555 1_555
C93 C111 1_555 1_555
C94 S34 1_555 1_555
C96 H75 1_555 1_555
C108 S32 1_555 1_555
C111 S44 1_555 1_555
H81 C111 1_555 1_555
Dy11 O9 1_555 1_555
Dy12 O52 1_555 1_555
Dy15 O18 1_555 1_555
S37 C108 1_555 1_555
O40 Dy15 1_555 1_555
O45 Dy11 1_555 1_555
N1 C6 1_555 1_555
C6 H16 1_555 1_555
H17 C6 1_555 1_555
H18 C6 1_555 1_555
C8 N1 1_555 1_555
H22 C8 1_555 1_555
H24 C8 1_555 1_555
S13 C37 1_555 1_555
H27 O28 1_555 1_555
H28 O28 1_555 1_555
H30 C37 1_555 1_555
S27 C66 1_555 1_555
O33 C65 1_555 1_555
O34 C65 1_555 1_555
C65 C66 1_555 1_555
Dy11 O33 1_555 1_555
S29 C87 1_555 1_555
Dy15 O34 1_555 1_555
C69 H47 1_555 1_555
H48 C69 1_555 1_555
H49 C69 1_555 1_555
O35 Dy18 1_555 1_555
Dy18 O36 1_555 1_555
C70 H50 1_555 1_555
H51 C70 1_555 1_555
H52 C70 1_555 1_555
N6 C70 1_555 1_555
O36 C119 1_555 1_555
Dy23 O38 1_555 1_555
C71 H53 1_555 1_555
H54 C71 1_555 1_555
H55 C71 1_555 1_555
O37 Dy18 1_555 1_555
S30 C97 1_555 1_555
O38 C77 1_555 1_555
C72 H56 1_555 1_555
H57 C72 1_555 1_555
H58 C72 1_555 1_555
S31 C89 1_555 1_555
C73 H59 1_555 1_555
H60 C73 1_555 1_555
H61 C73 1_555 1_555
N7 C72 1_555 1_555
N8 C69 1_555 1_555
C75 N6 1_555 1_555
H65 C75 1_555 1_555
H66 C75 1_555 1_555
H67 C75 1_555 1_555
S35 C101 1_555 1_555
S36 C92 1_555 1_555
S38 C100 1_555 1_555
S39 C95 1_555 1_555
S40 C98 1_555 1_555
S41 C91 1_555 1_555
S42 C103 1_555 1_555
S45 C104 1_555 1_555
S46 C112 1_555 1_555
S47 C102 1_555 1_555
S48 C113 1_555 1_555
O39 Dy11 1_555 1_555
O43 Dy15 1_555 1_555
O44 Dy18 1_555 1_555
C77 O44 1_555 1_555
O46 Dy23 1_555 1_555
O47 Dy18 1_555 1_555
O48 Dy23 1_555 1_555
O50 Dy15 1_555 1_555
O51 C82 1_555 1_555
O53 C81 1_555 1_555
O54 Dy11 1_555 1_555
O55 C79 1_555 1_555
O56 Dy15 1_555 1_555
H71 O56 1_555 1_555
H72 O56 1_555 1_555
O57 Dy15 1_555 1_555
C78 O39 1_555 1_555
O59 Dy11 1_555 1_555
O60 Dy23 1_555 1_555
C79 O50 1_555 1_555
C81 O54 1_555 1_555
C82 O47 1_555 1_555
C84 O37 1_555 1_555
C86 O35 1_555 1_555
C87 C82 1_555 1_555
C89 C79 1_555 1_555
C91 C84 1_555 1_555
C92 C78 1_555 1_555
C95 C77 1_555 1_555
C97 C81 1_555 1_555
C98 C86 1_555 1_555
C100 S30 1_555 1_555
C101 S31 1_555 1_555
C102 S39 1_555 1_555
C103 S41 1_555 1_555
C104 S29 1_555 1_555
H76 C105 1_555 1_555
C106 S35 1_555 1_555
H77 C106 1_555 1_555
C107 S42 1_555 1_555
H78 C107 1_555 1_555
C109 S38 1_555 1_555
H79 C109 1_555 1_555
C112 S36 1_555 1_555
C113 S40 1_555 1_555
C114 S46 1_555 1_555
H82 C114 1_555 1_555
C115 S45 1_555 1_555
H83 C115 1_555 1_555
C116 S48 1_555 1_555
H84 C116 1_555 1_555
C117 S47 1_555 1_555
H85 C117 1_555 1_555
C118 N6 1_555 1_555
H86 C118 1_555 1_555
C119 N7 1_555 1_555
H87 C119 1_555 1_555
C120 N8 1_555 1_555
H88 C120 1_555 1_555
Dy14 O51 1_555 1_555
Dy17 O55 1_555 1_555
Dy21 O53 1_555 1_555
O73 Dy15 1_555 1_555
O76 Dy11 1_555 1_555
O77 Dy23 1_555 1_555
O79 Dy18 1_555 1_555
S13 C47 1_555 1_555
C71 N8 1_555 1_555
C73 N7 1_555 1_555
O43 C78 1_555 1_555
O46 C86 1_555 1_555
O48 C84 1_555 1_555
O57 C105 1_555 1_555
O59 C118 1_555 1_555
O60 C120 1_555 1_555
C87 C115 1_555 1_555
C89 C106 1_555 1_555
C91 C107 1_555 1_555
C92 C114 1_555 1_555
C95 C117 1_555 1_555
C97 C109 1_555 1_555
C98 C116 1_555 1_555
C101 C113 1_555 1_555
C104 C112 1_555 1_555
C3_2 H7_2 1_555 1_555
H8_2 C3_2 1_555 1_555
H9_2 C3_2 1_555 1_555
S4_2 C25_2 1_555 1_555
S10_2 C32_2 1_555 1_555
O10_2 C18_2 1_555 1_555
O75 C18_2 1_555 1_555
C18_2 C25_2 1_555 1_555
C25_2 C32_2 1_555 1_555
C32_2 H29_2 1_555 1_555
C39_2 S12_2 1_555 1_555
C45_2 S4_2 1_555 1_555
Dy24 O10_2 1_555 1_555
S10_2 C45_2 1_555 1_555
C39_2 C45_2 1_555 1_555
Dy24 O31_2 1_555 1_555
S1_2 C21_2 1_555 1_555
Dy17 O3_2 1_555 1_555
O3_2 C59_2 1_555 1_555
O4_2 Dy17 1_555 1_555
O5_2 C9_2 1_555 1_555
C5_2 H13_2 1_555 1_555
H14_2 C5_2 1_555 1_555
H15_2 C5_2 1_555 1_555
S18_2 C24_2 1_555 1_555
S20_2 C41_2 1_555 1_555
O12_2 Dy17 1_555 1_555
C9_2 O12_2 1_555 1_555
O16_2 Dy17 1_555 1_555
O19_2 Dy17 1_555 1_555
O73 C14_2 1_555 1_555
C14_2 O16_2 1_555 1_555
C21_2 C14_2 1_555 1_555
C24_2 C20_2 1_555 1_555
C31_2 C9_2 1_555 1_555
C41_2 S1_2 1_555 1_555
C44_2 S16_2 1_555 1_555
H33_2 C44_2 1_555 1_555
C54_2 S20_2 1_555 1_555
H38_2 C54_2 1_555 1_555
C57_2 S23_2 1_555 1_555
H41_2 C57_2 1_555 1_555
C59_2 N3_2 1_555 1_555
H43_2 C59_2 1_555 1_555
O34_2 C65_2 1_555 1_555
N5_2 C74_2 1_555 1_555
Dy16 O34_2 1_555 1_555
S31_2 C89_2 1_555 1_555
C74_2 H62_2 1_555 1_555
H63_2 C74_2 1_555 1_555
H64_2 C74_2 1_555 1_555
C76_2 N5_2 1_555 1_555
H68_2 C76_2 1_555 1_555
H69_2 C76_2 1_555 1_555
H70_2 C76_2 1_555 1_555
S35_2 C101_2 1_555 1_555
O43_2 Dy16 1_555 1_555
O50_2 Dy16 1_555 1_555
O80 C79_2 1_555 1_555
O56_2 Dy16 1_555 1_555
H71_2 O56_2 1_555 1_555
H72_2 O56_2 1_555 1_555
O57_2 Dy16 1_555 1_555
C79_2 O50_2 1_555 1_555
C89_2 C79_2 1_555 1_555
C101_2 S31_2 1_555 1_555
C105_2 N5_2 1_555 1_555
H76_2 C105_2 1_555 1_555
C106_2 S35_2 1_555 1_555
H77_2 C106_2 1_555 1_555
Dy10 O13 1_555 1_555
O63 Dy16 1_555 1_555
O70 Dy16 1_555 1_555
C5_2 N3_2 1_555 1_555
O19_2 C20_2 1_555 1_555
C21_2 C54_2 1_555 1_555
C31_2 C57_2 1_555 1_555
O41 Dy10 1_555 1_555
O57_2 C105_2 1_555 1_555
C89_2 C106_2 1_555 1_555
Dy10 O6_2 1_555 1_555
C2_2 H4_2 1_555 1_555
H5_2 C2_2 1_555 1_555
H6_2 C2_2 1_555 1_555
N2_2 C2_2 1_555 1_555
S2_2 C33_2 1_555 1_555
C7_2 N2_2 1_555 1_555
H19_2 C7_2 1_555 1_555
H20_2 C7_2 1_555 1_555
H21_2 C7_2 1_555 1_555
S5_2 C22_2 1_555 1_555
S9_2 C28_2 1_555 1_555
S11_2 C36_2 1_555 1_555
S13_2 C37_2 1_555 1_555
S17_2 C35_2 1_555 1_555
S21_2 C50_2 1_555 1_555
O6_2 C10_2 1_555 1_555
O8_2 Dy10 1_555 1_555
O70 C15_2 1_555 1_555
O77 C13_2 1_555 1_555
O24_2 Dy10 1_555 1_555
O28_2 Dy10 1_555 1_555
H27_2 O28_2 1_555 1_555
H28_2 O28_2 1_555 1_555
C10_2 C28_2 1_555 1_555
O29_2 Dy10 1_555 1_555
C13_2 O24_2 1_555 1_555
C15_2 C22_2 1_555 1_555
C22_2 C48_2 1_555 1_555
C28_2 C52_2 1_555 1_555
C33_2 C13_2 1_555 1_555
C35_2 S5_2 1_555 1_555
C36_2 S2_2 1_555 1_555
C37_2 C27_2 1_555 1_555
H30_2 C37_2 1_555 1_555
C46_2 S11_2 1_555 1_555
H34_2 C46_2 1_555 1_555
C48_2 S17_2 1_555 1_555
H35_2 C48_2 1_555 1_555
C50_2 S9_2 1_555 1_555
C52_2 S21_2 1_555 1_555
H37_2 C52_2 1_555 1_555
C58_2 N2_2 1_555 1_555
H42_2 C58_2 1_555 1_555
C64_2 S26_2 1_555 1_555
H45_2 C64_2 1_555 1_555
C72_2 H56_2 1_555 1_555
H57_2 C72_2 1_555 1_555
H58_2 C72_2 1_555 1_555
S40_2 C98_2 1_555 1_555
S41_2 C91_2 1_555 1_555
S44_2 C94_2 1_555 1_555
S48_2 C113_2 1_555 1_555
O63 C80_2 1_555 1_555
O46_2 Dy24 1_555 1_555
O48_2 Dy24 1_555 1_555
C80_2 C93_2 1_555 1_555
C86_2 O35_2 1_555 1_555
C91_2 C84_2 1_555 1_555
C93_2 C111_2 1_555 1_555
C98_2 C86_2 1_555 1_555
C103_2 S41_2 1_555 1_555
C111_2 S44_2 1_555 1_555
H81_2 C111_2 1_555 1_555
C113_2 S40_2 1_555 1_555
C116_2 S48_2 1_555 1_555
H84_2 C116_2 1_555 1_555
S13_2 C47_2 1_555 1_555
O29_2 C58_2 1_555 1_555
C33_2 C46_2 1_555 1_555
C35_2 C36_2 1_555 1_555
O46_2 C86_2 1_555 1_555
O48_2 C84_2 1_555 1_555
C94_2 C103_2 1_555 1_555
C98_2 C116_2 1_555 1_555
C69_2 H47_2 1_555 1_555
H48_2 C69_2 1_555 1_555
H49_2 C69_2 1_555 1_555
N8_2 C69_2 1_555 1_555
C120_2 N8_2 1_555 1_555
H88_2 C120_2 1_555 1_555
O60_2 C120_2 1_555 1_555
C1_2 H1_2 1_555 1_555
H2_2 C1_2 1_555 1_555
H3_2 C1_2 1_555 1_555
N4_2 C1_2 1_555 1_555
C55_2 S22_2 1_555 1_555
H39_2 C55_2 1_555 1_555
C60_2 N4_2 1_555 1_555
H44_2 C60_2 1_555 1_555
O30_2 C60_2 1_555 1_555
S25_2 C62_2 1_555 1_555
O32_2 C61_2 1_555 1_555
C61_2 C62_2 1_555 1_555
Dy19 O32_2 1_555 1_555
O1_2 Dy21 1_555 1_555
C4_2 H10_2 1_555 1_555
H11_2 C4_2 1_555 1_555
H12_2 C4_2 1_555 1_555
S14_2 C34_2 1_555 1_555
S15_2 C26_2 1_555 1_555
S19_2 C30_2 1_555 1_555
S24_2 C51_2 1_555 1_555
O7 C12_2 1_555 1_555
O15_2 Dy21 1_555 1_555
O17_2 Dy21 1_555 1_555
C12_2 C29_2 1_555 1_555
C19_2 O2_2 1_555 1_555
C26_2 C16_2 1_555 1_555
C29_2 C49_2 1_555 1_555
C34_2 C19_2 1_555 1_555
C40_2 S15_2 1_555 1_555
C49_2 S19_2 1_555 1_555
H36_2 C49_2 1_555 1_555
C51_2 S14_2 1_555 1_555
C56_2 S24_2 1_555 1_555
H40_2 C56_2 1_555 1_555
S28_2 C67_2 1_555 1_555
C66_2 C67_2 1_555 1_555
C67_2 H46_2 1_555 1_555
Dy12 O33_2 1_555 1_555
C70_2 H50_2 1_555 1_555
H51_2 C70_2 1_555 1_555
H52_2 C70_2 1_555 1_555
N6_2 C70_2 1_555 1_555
S30_2 C97_2 1_555 1_555
C75_2 N6_2 1_555 1_555
H65_2 C75_2 1_555 1_555
H66_2 C75_2 1_555 1_555
H67_2 C75_2 1_555 1_555
S33 C88_2 1_555 1_555
S36_2 C92_2 1_555 1_555
S38_2 C100_2 1_555 1_555
S43_2 C99 1_555 1_555
S46_2 C112_2 1_555 1_555
O39_2 Dy12 1_555 1_555
O49 C83_2 1_555 1_555
O78 C81_2 1_555 1_555
O54_2 Dy12 1_555 1_555
O58_2 Dy12 1_555 1_555
H73_2 O58_2 1_555 1_555
H74_2 O58_2 1_555 1_555
C78_2 O39_2 1_555 1_555
O59_2 Dy12 1_555 1_555
C81_2 O54_2 1_555 1_555
C83_2 C88_2 1_555 1_555
C88_2 C110_2 1_555 1_555
C92_2 C78_2 1_555 1_555
C97_2 C81_2 1_555 1_555
C99 S33 1_555 1_555
C100_2 S30_2 1_555 1_555
C109_2 S38_2 1_555 1_555
H79_2 C109_2 1_555 1_555
C110_2 S43_2 1_555 1_555
H80_2 C110_2 1_555 1_555
C112_2 S36_2 1_555 1_555
C114_2 S46_2 1_555 1_555
H82_2 C114_2 1_555 1_555
C118_2 N6_2 1_555 1_555
H86_2 C118_2 1_555 1_555
Dy14 O7 1_555 1_555
O64 Dy12 1_555 1_555
O67_2 Dy21 1_555 1_555
O69 Dy12 1_555 1_555
O15_2 C19_2 1_555 1_555
O17_2 C16_2 1_555 1_555
C30_2 C40_2 1_555 1_555
C34_2 C56_2 1_555 1_555
S28_2 C68_2 1_555 1_555
O49 Dy14 1_555 1_555
O59_2 C118_2 1_555 1_555
C92_2 C114_2 1_555 1_555
C97_2 C109_2 1_555 1_555
C99 C100_2 1_555 1_555
N1_2 C6_2 1_555 1_555
Dy14 O11_2 1_555 1_555
S3_2 C23_2 1_555 1_555
C6_2 H16_2 1_555 1_555
H17_2 C6_2 1_555 1_555
H18_2 C6_2 1_555 1_555
C8_2 N1_2 1_555 1_555
H22_2 C8_2 1_555 1_555
H23_2 C8_2 1_555 1_555
H24_2 C8_2 1_555 1_555
S8_2 C38_2 1_555 1_555
O14_2 Dy14 1_555 1_555
O20_2 Dy14 1_555 1_555
O79 C11_2 1_555 1_555
O26_2 Dy14 1_555 1_555
H25_2 O26_2 1_555 1_555
H26_2 O26_2 1_555 1_555
O27_2 Dy14 1_555 1_555
C11_2 O20_2 1_555 1_555
C23_2 C11_2 1_555 1_555
C38_2 S3_2 1_555 1_555
C42_2 N1_2 1_555 1_555
H31_2 C42_2 1_555 1_555
C43_2 S8_2 1_555 1_555
H32_2 C43_2 1_555 1_555
S29_2 C87_2 1_555 1_555
Dy19 O36_2 1_555 1_555
O36_2 C119_2 1_555 1_555
O37_2 Dy19 1_555 1_555
O38_2 C77_2 1_555 1_555
C73_2 H59_2 1_555 1_555
H60_2 C73_2 1_555 1_555
H61_2 C73_2 1_555 1_555
S45_2 C104_2 1_555 1_555
O44_2 Dy19 1_555 1_555
C77_2 O44_2 1_555 1_555
O47_2 Dy19 1_555 1_555
O74 C82_2 1_555 1_555
C82_2 O47_2 1_555 1_555
C87_2 C82_2 1_555 1_555
C95_2 C77_2 1_555 1_555
C104_2 S29_2 1_555 1_555
C107_2 S42_2 1_555 1_555
H78_2 C107_2 1_555 1_555
C115_2 S45_2 1_555 1_555
H83_2 C115_2 1_555 1_555
C117_2 S47_2 1_555 1_555
H85_2 C117_2 1_555 1_555
C119_2 N7_2 1_555 1_555
H87_2 C119_2 1_555 1_555
O14_2 C17_2 1_555 1_555
O27_2 C42_2 1_555 1_555
C23_2 C43_2 1_555 1_555
C73_2 N7_2 1_555 1_555
C87_2 C115_2 1_555 1_555
C95_2 C117_2 1_555 1_555
C71_2 H53_2 1_555 1_555
H54_2 C71_2 1_555 1_555
H55_2 C71_2 1_555 1_555
S32_2 C90_2 1_555 1_555
S37_2 C96_2 1_555 1_555
O67_2 C85_2 1_555 1_555
O76 C85_2 1_555 1_555
C85_2 C90_2 1_555 1_555
C90_2 C96_2 1_555 1_555
C96_2 H75_2 1_555 1_555
C102_2 S39_2 1_555 1_555
C108_2 S32_2 1_555 1_555
S37_2 C108_2 1_555 1_555
C102_2 C108_2 1_555 1_555
C99_2 S33_2 1_555 1_555

#END
