
###############################################################################
#
# This file contains modified crystal structure data generated from the
# MOF subset of the Cambridge Structural Database (CSD) v543 
# hosted by the Cambridge Crystallographic Data Centre (CCDC).
#
# This work is licensed under the Creative Commons
# Attribution-NonCommercial-ShareAlike 4.0 International License.
# To view a copy of this license, visit
# http://creativecommons.org/licenses/by-nc-sa/4.0/
# or send a letter to
# Creative Commons, PO Box 1866, Mountain View, CA 94042, USA.
#
# CIF created using the CSD Python API on 29 September 2022
# The structure has been converted into the P1 space group
# The structure has a 3D framework
# The original CSD entry VECQAZ is in the monoclinic crystal system
# The framework has been calculated to contain at least 10.0% void space
# The void calculation uses a probe of radius 1.32A, grid spacing 0.4
#
###############################################################################

data_VECQAZ
_chemical_formula_moiety         '(C240 H176 Er16 N16 O119 S96)n'
_symmetry_cell_setting           triclinic
_symmetry_space_group_name_H-M   'P 1'
_symmetry_Int_Tables_number      1
_space_group_name_Hall           'P 1'
loop_
_symmetry_equiv_pos_site_id
_symmetry_equiv_pos_as_xyz
1 x,y,z
_cell_length_a                   17.6348(5)
_cell_length_b                   23.0268(5)
_cell_length_c                   26.0963(6)
_cell_angle_alpha                90
_cell_angle_beta                 103.314(2)
_cell_angle_gamma                90
_cell_volume                     10312.2
loop_
_atom_site_label
_atom_site_type_symbol
_atom_site_fract_x
_atom_site_fract_y
_atom_site_fract_z
S1 S 0.73046(13) 0.19993(12) 0.05911(8)
S18 S 0.55967(16) 0.19027(15) 0.02315(10)
O16 O 0.6786(4) 0.1937(3) 0.1975(2)
O17 O 0.7893(3) 0.1793(3) 0.1721(2)
C1 C 0.7177(5) 0.1886(4) 0.1629(3)
C17 C 0.6757(6) 0.1930(4) 0.1074(4)
C40 C 0.6474(6) 0.2096(4) 0.0073(4)
C41 C 0.5994(6) 0.1893(5) 0.0900(4)
H12 H 0.567392 0.186254 0.113668
S25 S 0.54775(15) 0.54550(12) 0.07530(9)
S26 S 0.42763(16) 0.45406(13) 0.04522(10)
O31 O 0.4676(3) 0.5419(3) 0.2034(2)
O32 O 0.5666(3) 0.5909(3) 0.1824(2)
C61 C 0.5103(6) 0.5557(4) 0.1733(4)
C62 C 0.4947(6) 0.5256(4) 0.1222(4)
C63 C 0.4399(6) 0.4847(4) 0.1069(4)
H45 H 0.408849 0.472932 0.129367
C64 C 0.4949(6) 0.4998(4) 0.0246(4)
Er12 Er 0.39232(2) 0.59055(2) 0.25194(2)
Er14 Er 0.59371(2) 0.17234(2) 0.24465(2)
Er21 Er 0.61898(2) 0.66159(2) 0.24886(2)
Er22 Er 0.88102(2) 0.16159(2) 0.25114(2)
Er1 Er 0.60768(2) 0.40945(2) 0.74806(2)
Er3 Er 0.38102(2) 0.33841(2) 0.75114(2)
Er4 Er 0.39412(2) 0.07259(2) 0.25538(2)
S3 S 0.25384(13) 0.53742(12) 0.43701(9)
S4 S 0.45225(15) 0.45450(12) 0.92470(9)
S6 S 0.42613(14) 0.51323(11) 0.58663(9)
S8 S 0.53439(15) 0.29029(13) 0.57303(9)
S9 S 0.55957(15) 0.23523(12) 0.91138(9)
S11 S 0.42871(16) 0.20055(13) 0.42387(9)
S12 S 0.41848(15) 0.57104(13) 0.47655(9)
S14 S 0.40067(14) 0.25469(13) 0.08899(9)
S15 S 0.26282(15) 0.47297(14) 0.55310(10)
S16 S 0.57237(16) 0.54594(13) 0.95478(10)
S17 S 0.55594(16) 0.04367(14) 0.07456(9)
S19 S 0.40912(18) 0.20299(14) 0.54415(10)
S20 S 0.72777(15) 0.26266(16) 0.94115(10)
S22 S 0.23250(15) 0.22966(17) 0.05106(11)
S23 S 0.75677(16) 0.00286(16) 0.44288(10)
O1 O 0.5626(4) 0.3414(3) 0.7957(2)
O2 O 0.4575(3) 0.2904(3) 0.7029(2)
O3 O 0.6165(4) 0.0898(3) 0.2938(2)
O4 O 0.3730(4) 0.1545(3) 0.2052(2)
O5 O 0.4287(4) 0.4059(3) 0.7031(2)
O6 O 0.5324(3) 0.4581(3) 0.7966(2)
O7 O 0.5103(4) 0.1837(3) 0.2972(2)
O8 O 0.5103(3) 0.0542(3) 0.3171(2)
O10 O 0.4697(3) 0.2898(3) 0.8186(2)
O11 O 0.4785(3) 0.1924(3) 0.1828(2)
O12 O 0.5777(4) 0.0994(3) 0.1790(2)
O13 O 0.5200(3) 0.4594(3) 0.6805(2)
O14 O 0.4763(4) 0.0593(3) 0.2024(2)
O15 O 0.5552(3) 0.3391(3) 0.6799(2)
O18 O 0.3068(4) 0.5783(3) 0.3036(2)
O20 O 0.4334(3) 0.4091(3) 0.8176(2)
O21 O 0.1978(3) 0.5451(3) 0.3204(2)
O24 O 0.3458(4) 0.2353(3) 0.7482(3)
H1 H 0.327889 0.226881 0.774950
H2 H 0.307724 0.229258 0.722000
O25 O 0.2909(4) 0.4215(3) 0.7344(3)
O26 O 0.5798(5) 0.2721(3) 0.2422(4)
O28 O 0.6992(5) 0.3266(3) 0.7629(3)
O29 O 0.6446(4) 0.5131(3) 0.7527(3)
H3 H 0.673382 0.519946 0.731214
H4 H 0.673915 0.520337 0.782903
C2 C 0.4517(6) 0.4410(4) 0.6737(4)
C4 C 0.5828(6) 0.0621(5) 0.3234(4)
C5 C 0.4988(6) 0.3036(4) 0.6716(4)
C6 C 0.5384(6) 0.3066(5) 0.8248(4)
C7 C 0.4066(6) 0.1822(5) 0.1751(4)
C8 C 0.2678(6) 0.5596(4) 0.3341(4)
O30 O 0.4077(4) 0.1456(3) 0.3199(2)
C10 C 0.5201(6) 0.0659(5) 0.1716(4)
C11 C 0.4897(6) 0.4443(4) 0.8267(4)
C14 C 0.3071(6) 0.5572(4) 0.3904(4)
C15 C 0.4840(6) 0.2121(5) 0.3770(4)
C16 C 0.5053(6) 0.4744(4) 0.8778(4)
C18 C 0.3938(6) 0.4615(4) 0.6260(4)
C20 C 0.5006(6) 0.0320(5) 0.1214(4)
C21 C 0.5960(6) 0.2840(4) 0.8714(4)
C23 C 0.4809(6) 0.2728(4) 0.6204(4)
C24 C 0.4874(6) 0.2443(5) 0.4736(4)
C25 C 0.6321(6) 0.0351(5) 0.3713(4)
C27 C 0.3812(6) 0.5730(4) 0.4094(4)
H7 H 0.412100 0.584770 0.386849
C29 C 0.5601(6) 0.5153(4) 0.8931(4)
H8 H 0.591151 0.527068 0.870633
N1 N 0.2398(6) 0.5082(4) 0.7470(4)
N2 N 0.7528(6) 0.2426(4) 0.7464(4)
C30 C 0.3575(6) 0.2071(5) 0.1270(4)
C31 C 0.3362(6) 0.5367(4) 0.4899(4)
C32 C 0.4242(6) 0.2339(4) 0.6056(4)
H9 H 0.392873 0.223596 0.628300
C33 C 0.4787(6) 0.2451(5) 0.5225(4)
C34 C 0.5051(6) 0.5002(4) 0.9754(4)
C36 C 0.5414(6) 0.2512(5) 0.3904(4)
H10 H 0.572886 0.259779 0.367304
C37 C 0.3170(6) 0.2601(5) 0.0366(4)
C38 C 0.2822(6) 0.4615(5) 0.7624(4)
H11 H 0.307516 0.459223 0.797830
C39 C 0.3400(6) 0.5115(4) 0.5364(4)
C42 C 0.3208(6) 0.4438(5) 0.6104(4)
H13 H 0.300692 0.416234 0.629697
C43 C 0.6471(6) 0.2317(4) 0.9605(4)
C44 C 0.4963(6) 0.0005(5) 0.0250(4)
C45 C 0.6715(6) 0.2963(5) 0.8855(4)
H14 H 0.693926 0.322383 0.866087
C47 C 0.7083(6) 0.0412(5) 0.3878(4)
H16 H 0.735645 0.065720 0.370195
C48 C 0.2815(6) 0.1972(5) 0.1095(4)
H17 H 0.255037 0.173259 0.128211
C49 C 0.7093(6) 0.2886(5) 0.7336(4)
H18 H 0.683566 0.292289 0.698351
C50 C 0.7975(7) 0.2354(5) 0.7990(4)
H19 H 0.803904 0.272279 0.816505
H20 H 0.847702 0.219723 0.798248
H21 H 0.770941 0.209167 0.817511
C51 C 0.1970(7) 0.5133(5) 0.6937(5)
H22 H 0.220536 0.542461 0.676106
H23 H 0.144190 0.524054 0.692937
H24 H 0.197541 0.476698 0.676103
C52 C 0.2358(8) 0.5547(5) 0.7846(5)
H25 H 0.186366 0.553197 0.794174
H26 H 0.241350 0.591668 0.768833
H27 H 0.276926 0.549822 0.815577
S24 S 0.55707(17) 0.28572(14) 0.45061(10)
C56 C 0.7593(7) 0.1982(5) 0.7083(5)
H35 H 0.718548 0.203283 0.677195
H36 H 0.754716 0.160593 0.723124
H37 H 0.809025 0.201427 0.699404
N4 N 0.5513(7) 0.3650(4) 0.2544(5)
C57 C 0.5970(6) 0.3195(5) 0.2585(4)
H38 H 0.648690 0.325119 0.276033
C58 C 0.5726(8) 0.4205(5) 0.2760(5)
H39 H 0.620060 0.417612 0.302685
H40 H 0.531948 0.435374 0.291375
H41 H 0.580120 0.446329 0.248754
C59 C 0.4728(7) 0.3623(6) 0.2208(5)
H42 H 0.472998 0.378251 0.186890
H43 H 0.437859 0.384294 0.236615
H44 H 0.455866 0.322601 0.216943
C60 C 0.4652(6) 0.1786(5) 0.3277(4)
Er24 Er 0.10588(2) 0.57259(2) 0.24462(2)
O63 O 0.3096(3) 0.0514(3) 0.3038(2)
O67 O 0.2893(3) 0.3207(3) 0.6721(2)
O69 O 0.6932(4) 0.4217(3) 0.6964(2)
O70 O 0.2975(4) 0.3284(3) 0.8043(2)
O73 O 0.3022(3) 0.0451(3) 0.1796(2)
O76 O 0.6850(3) 0.1990(3) 0.3204(2)
O77 O 0.7000(3) 0.4260(3) 0.8273(2)
S2 S 0.23825(13) 0.28976(12) 0.93649(9)
S7 S 0.40668(14) 0.31002(13) 0.97789(9)
O22 O 0.1850(3) 0.3010(3) 0.8204(2)
C3 C 0.2567(5) 0.3116(4) 0.8347(4)
C12 C 0.2945(6) 0.3066(4) 0.8910(4)
C19 C 0.3193(6) 0.2837(4) 0.9905(4)
C26 C 0.3708(6) 0.3154(4) 0.9108(4)
H6 H 0.403713 0.324349 0.888772
S28 S 0.57557(17) 0.03861(15) 0.95290(10)
C68 C 0.5584(6) 0.0050(5) 0.8921(4)
H46 H 0.590269 0.012795 0.869080
S32 S 0.25343(13) 0.05425(12) 0.44082(8)
S37 S 0.42467(14) 0.05478(14) 0.47926(9)
S40 S 0.41412(15) 0.01050(13) 0.59139(9)
O53 O 0.2000(3) 0.0740(3) 0.3273(2)
O57 O 0.5925(5) 0.0275(3) 0.7398(3)
C77 C 0.2703(6) 0.0609(4) 0.3376(4)
C79 C 0.3104(6) 0.0566(4) 0.3934(4)
C86 C 0.3878(6) 0.0565(4) 0.4123(4)
H51 H 0.421176 0.057326 0.389387
C92 C 0.3296(6) 0.0204(5) 0.5404(4)
C97 C 0.3342(6) 0.0419(5) 0.4939(4)
N7 N 0.5489(7) 0.1165(5) 0.7531(5)
C113 C 0.5997(7) 0.0715(5) 0.7582(4)
H72 H 0.648196 0.078473 0.780362
C114 C 0.4759(8) 0.1153(6) 0.7172(5)
H73 H 0.456221 0.076294 0.713997
H74 H 0.440243 0.140093 0.729655
H75 H 0.481570 0.128741 0.683457
C115 C 0.5687(8) 0.1689(6) 0.7791(5)
H76 H 0.614078 0.163552 0.807147
H77 H 0.579584 0.197169 0.754723
H78 H 0.526187 0.182111 0.793309
Er13 Er 0.10768(2) 0.09055(2) 0.24806(2)
Er17 Er 0.09371(2) 0.32766(2) 0.74465(2)
S5 S 0.74657(13) 0.94575(12) 0.55918(8)
S10 S 0.57533(14) 0.94522(14) 0.52074(9)
S13 S 0.58588(15) 0.98950(13) 0.40861(9)
S21 S 0.42443(17) 0.96139(15) 0.04710(10)
O9 O 0.6904(3) 0.9486(3) 0.6962(2)
O23 O 0.8000(3) 0.9260(3) 0.6727(2)
O27 O 0.4075(5) 0.9725(3) 0.2602(3)
C9 C 0.7297(6) 0.9391(4) 0.6624(4)
C13 C 0.6896(6) 0.9434(4) 0.6066(4)
C22 C 0.6122(6) 0.9435(4) 0.5877(4)
H5 H 0.578824 0.942674 0.610613
C28 C 0.6704(6) 0.9796(5) 0.4596(4)
C35 C 0.6658(6) 0.9581(5) 0.5061(4)
C46 C 0.4416(6) 0.9950(5) 0.1079(4)
H15 H 0.409731 0.987205 0.130920
N3 N 0.4511(7) 0.8835(5) 0.2469(5)
C53 C 0.4003(7) 0.9285(5) 0.2418(4)
H28 H 0.351804 0.921527 0.219638
C54 C 0.5241(8) 0.8847(6) 0.2828(5)
H29 H 0.543779 0.923706 0.286003
H30 H 0.559757 0.859907 0.270345
H31 H 0.518430 0.871259 0.316543
C55 C 0.4313(8) 0.8311(6) 0.2209(5)
H32 H 0.385922 0.836448 0.192853
H33 H 0.420416 0.802831 0.245277
H34 H 0.473813 0.817889 0.206691
S30 S 0.76175(13) 0.71024(12) 0.06351(9)
S34 S 0.59332(14) 0.68998(13) 0.02211(9)
O50 O 0.7025(4) 0.6716(3) 0.1957(2)
O52 O 0.8150(3) 0.6990(3) 0.1796(2)
C71 C 0.7433(5) 0.6884(4) 0.1653(4)
C78 C 0.7055(6) 0.6934(4) 0.1090(4)
C84 C 0.6807(6) 0.7163(4) 0.0095(4)
C90 C 0.6292(6) 0.6846(4) 0.0892(4)
H52 H 0.596287 0.675651 0.111228
Er10 Er 0.89232(2) 0.90945(2) 0.75194(2)
Er15 Er 0.90629(2) 0.67234(2) 0.25535(2)
Er25 Er 0.60588(2) 0.92741(2) 0.74462(2)
S27 S 0.44406(16) 0.95633(14) 0.92544(9)
O33 O 0.4223(4) 0.9006(3) 0.8210(2)
O34 O 0.5237(4) 0.9407(3) 0.7976(2)
C65 C 0.4799(6) 0.9341(5) 0.8284(4)
C66 C 0.4994(6) 0.9680(5) 0.8786(4)
C67 C 0.5037(6) 0.9995(5) 0.9750(4)
Er6 Er 0.40629(2) 0.82766(2) 0.75535(2)
S31 S 0.74616(13) 0.46258(12) 0.56299(9)
S33 S 0.57387(14) 0.48677(11) 0.41337(9)
S35 S 0.46561(15) 0.70971(13) 0.42697(9)
S36 S 0.44043(15) 0.76477(12) 0.08862(9)
S38 S 0.57129(16) 0.79945(13) 0.57613(9)
S39 S 0.58152(15) 0.42896(13) 0.52345(9)
S41 S 0.59933(14) 0.74531(13) 0.91101(9)
S42 S 0.73718(15) 0.52703(14) 0.44690(10)
S44 S 0.59088(18) 0.79701(14) 0.45585(10)
S45 S 0.27223(15) 0.73734(16) 0.05885(10)
S46 S 0.76750(15) 0.77034(17) 0.94894(11)
S47 S 0.24323(16) 0.99714(16) 0.55712(10)
O35 O 0.4374(4) 0.6586(3) 0.2043(2)
O36 O 0.5425(3) 0.7096(3) 0.2971(2)
O37 O 0.3835(4) 0.9102(3) 0.7062(2)
O38 O 0.6270(4) 0.8455(3) 0.7948(2)
O39 O 0.5713(4) 0.5941(3) 0.2969(2)
O40 O 0.4897(4) 0.8163(3) 0.7028(2)
O41 O 0.4897(3) 0.9458(3) 0.6829(2)
O43 O 0.5303(3) 0.7102(3) 0.1814(2)
O44 O 0.5215(3) 0.8076(3) 0.8172(2)
O45 O 0.4800(3) 0.5406(3) 0.3195(2)
O46 O 0.4448(3) 0.6609(3) 0.3201(2)
O51 O 0.8022(3) 0.4549(3) 0.6796(2)
O54 O 0.6542(4) 0.7647(3) 0.2518(3)
H47 H 0.672111 0.773119 0.225050
H48 H 0.692276 0.770742 0.278000
O55 O 0.7091(4) 0.5785(3) 0.2656(3)
O56 O 0.4202(5) 0.7279(3) 0.7578(4)
O58 O 0.3008(5) 0.6734(3) 0.2371(3)
O59 O 0.3554(4) 0.4869(3) 0.2473(3)
H49 H 0.326618 0.480054 0.268786
H50 H 0.326085 0.479663 0.217097
C70 C 0.5483(6) 0.5590(4) 0.3263(4)
C72 C 0.4172(6) 0.9379(5) 0.6766(4)
C73 C 0.5012(6) 0.6964(4) 0.3284(4)
C74 C 0.4616(6) 0.6934(5) 0.1752(4)
C75 C 0.5934(6) 0.8178(5) 0.8249(4)
C76 C 0.7322(6) 0.4404(4) 0.6659(4)
O60 O 0.5923(4) 0.8544(3) 0.6801(2)
C80 C 0.6929(6) 0.4428(4) 0.6096(4)
C81 C 0.5160(6) 0.7879(5) 0.6230(4)
C83 C 0.6062(6) 0.5385(4) 0.3740(4)
C85 C 0.4040(6) 0.7160(4) 0.1286(4)
C87 C 0.5191(6) 0.7272(4) 0.3796(4)
C88 C 0.5126(6) 0.7557(5) 0.5264(4)
C89 C 0.3679(6) 0.9649(5) 0.6287(4)
C91 C 0.6188(6) 0.4270(4) 0.5906(4)
H53 H 0.587900 0.415230 0.613151
N5 N 0.7602(6) 0.4918(4) 0.2530(4)
N6 N 0.2472(6) 0.7574(4) 0.2536(4)
C93 C 0.6425(6) 0.7929(5) 0.8730(4)
C94 C 0.6638(6) 0.4633(4) 0.5101(4)
C95 C 0.5758(6) 0.7661(4) 0.3944(4)
H54 H 0.607127 0.776404 0.371700
C96 C 0.5213(6) 0.7549(5) 0.4775(4)
C98 C 0.4586(6) 0.7488(5) 0.6096(4)
H55 H 0.427114 0.740221 0.632696
C99 C 0.6830(6) 0.7399(5) 0.9634(4)
C100 C 0.7178(6) 0.5385(5) 0.2376(4)
H56 H 0.692484 0.540777 0.202170
C101 C 0.6600(6) 0.4885(4) 0.4636(4)
C104 C 0.6792(6) 0.5562(5) 0.3896(4)
H58 H 0.699308 0.583766 0.370303
C105 C 0.3529(6) 0.7683(4) 0.0395(4)
C106 C 0.3285(6) 0.7037(5) 0.1145(4)
H59 H 0.306074 0.677617 0.133913
C107 C 0.2917(6) 0.9588(5) 0.6122(4)
H60 H 0.264355 0.934280 0.629805
C108 C 0.7185(6) 0.8028(5) 0.8905(4)
H61 H 0.744963 0.826741 0.871789
C109 C 0.2907(6) 0.7114(5) 0.2664(4)
H62 H 0.316434 0.707711 0.301649
C110 C 0.2025(7) 0.7646(5) 0.2010(4)
H63 H 0.196096 0.727721 0.183495
H64 H 0.152298 0.780277 0.201752
H65 H 0.229059 0.790833 0.182489
C111 C 0.8030(7) 0.4867(5) 0.3063(5)
H66 H 0.779464 0.457539 0.323894
H67 H 0.855810 0.475946 0.307063
H68 H 0.802459 0.523302 0.323897
C112 C 0.7642(8) 0.4453(5) 0.2154(5)
H69 H 0.813634 0.446803 0.205826
H70 H 0.758650 0.408332 0.231167
H71 H 0.723074 0.450178 0.184423
S48 S 0.44293(17) 0.71428(14) 0.54939(10)
C116 C 0.2407(7) 0.8018(5) 0.2917(5)
H79 H 0.281452 0.796717 0.322805
H80 H 0.245284 0.839407 0.276876
H81 H 0.190975 0.798573 0.300596
N8 N 0.4487(7) 0.6350(4) 0.7456(5)
C117 C 0.4030(6) 0.6805(5) 0.7415(4)
H82 H 0.351310 0.674881 0.723967
C118 C 0.4274(8) 0.5795(5) 0.7240(5)
H83 H 0.379940 0.582388 0.697315
H84 H 0.468052 0.564626 0.708625
H85 H 0.419880 0.553671 0.751246
C119 C 0.5272(7) 0.6377(6) 0.7792(5)
H86 H 0.527002 0.621749 0.813110
H87 H 0.562141 0.615706 0.763385
H88 H 0.544134 0.677399 0.783057
C120 C 0.5348(6) 0.8214(5) 0.6723(4)
Er26 Er 0.89412(2) 0.42741(2) 0.75538(2)
O65 O 0.3214(4) 0.8063(3) 0.8025(2)
O66 O 0.7107(3) 0.6793(3) 0.3279(2)
O74 O 0.6978(3) 0.9549(3) 0.8204(2)
O75 O 0.3150(3) 0.8010(3) 0.6796(2)
O78 O 0.3000(3) 0.5740(3) 0.1727(2)
S29 S 0.26954(13) 0.80007(12) 0.94089(8)
S43 S 0.44033(16) 0.80973(15) 0.97685(10)
O48 O 0.2107(3) 0.8207(3) 0.8279(2)
C69 C 0.2823(5) 0.8114(4) 0.8371(3)
C82 C 0.3243(6) 0.8070(4) 0.8926(4)
C102 C 0.3526(6) 0.7904(4) 0.9927(4)
C103 C 0.4006(6) 0.8107(5) 0.9100(4)
H57 H 0.432608 0.813746 0.886332
Er19 Er 0.11898(2) 0.83841(2) 0.74886(2)
S3_2 S 0.24616(13) 0.03742(12) 0.06299(9)
S12_2 S 0.08152(15) 0.07104(13) 0.02345(9)
O18_2 O 0.1932(4) 0.0783(3) 0.1964(2)
C8_2 C 0.2322(6) 0.0596(4) 0.1659(4)
C14_2 C 0.1929(6) 0.0572(4) 0.1096(4)
C27_2 C 0.1188(6) 0.0730(4) 0.0906(4)
H7_2 H 0.087900 0.084770 0.113151
C31_2 C 0.1638(6) 0.0367(4) 0.0101(4)
S6_2 S 0.07387(14) 0.01323(11) 0.91337(9)
N1_2 N 0.2602(6) 0.0082(4) 0.7530(4)
C39_2 C 0.1600(6) 0.0115(4) 0.9636(4)
C51_2 C 0.3030(7) 0.0133(5) 0.8063(5)
H22_2 H 0.279464 0.042461 0.823894
H23_2 H 0.355810 0.024054 0.807063
C52_2 C 0.2642(8) 0.0547(5) 0.7154(5)
H25_2 H 0.313634 0.053197 0.705826
H26_2 H 0.258650 0.091668 0.731167
H27_2 H 0.223074 0.049822 0.684423
O31_2 O 0.0324(3) 0.0419(3) 0.2966(2)
C62_2 C 0.0053(6) 0.0256(4) 0.3778(4)
S29_2 S 0.23046(13) 0.30007(12) 0.55911(8)
S32_2 S 0.24657(13) 0.55425(12) 0.05918(8)
S35_2 S 0.03439(15) 0.20971(13) 0.07303(9)
S36_2 S 0.05957(15) 0.26477(12) 0.41138(9)
S37_2 S 0.07533(14) 0.55478(14) 0.02074(9)
S43_2 S 0.05967(16) 0.30973(15) 0.52315(10)
S45_2 S 0.22777(15) 0.23734(16) 0.44115(10)
O35_2 O 0.0626(4) 0.1586(3) 0.2957(2)
O42 O 0.1904(3) 0.5514(3) 0.1962(2)
O45_2 O 0.0200(3) 0.0406(3) 0.1805(2)
O46_2 O 0.0552(3) 0.1609(3) 0.1799(2)
O47 O 0.1786(4) 0.3063(3) 0.6975(2)
O58_2 O 0.1992(5) 0.1734(3) 0.2629(3)
C69_2 C 0.2177(5) 0.3114(4) 0.6629(3)
C74_2 C 0.0384(6) 0.1934(5) 0.3248(4)
C77_2 C 0.2297(6) 0.5609(4) 0.1624(4)
C79_2 C 0.1896(6) 0.5566(4) 0.1066(4)
C82_2 C 0.1757(6) 0.3070(4) 0.6074(4)
C85_2 C 0.0960(6) 0.2160(4) 0.3714(4)
C86_2 C 0.1122(6) 0.5565(4) 0.0877(4)
H51_2 H 0.078824 0.557326 0.110613
N6_2 N 0.2528(6) 0.2574(4) 0.2464(4)
C97_2 C 0.1658(6) 0.5419(5) 0.0061(4)
C102_2 C 0.1474(6) 0.2904(4) 0.5073(4)
C103_2 C 0.0994(6) 0.3107(5) 0.5900(4)
H57_2 H 0.067392 0.313746 0.613668
C105_2 C 0.1471(6) 0.2683(4) 0.4605(4)
C106_2 C 0.1715(6) 0.2037(5) 0.3855(4)
H59_2 H 0.193926 0.177617 0.366087
C109_2 C 0.2093(6) 0.2114(5) 0.2336(4)
H62_2 H 0.183566 0.207711 0.198351
C110_2 C 0.2975(7) 0.2646(5) 0.2990(4)
H63_2 H 0.303904 0.227721 0.316505
H64_2 H 0.347702 0.280277 0.298248
H65_2 H 0.270941 0.290833 0.317511
C116_2 C 0.2593(7) 0.3018(5) 0.2083(5)
H79_2 H 0.218548 0.296717 0.177195
H80_2 H 0.254716 0.339407 0.223124
H81_2 H 0.309025 0.298573 0.199404
S2_2 S 0.26175(13) 0.78976(12) 0.56351(9)
S7_2 S 0.09332(14) 0.81002(13) 0.52211(9)
S11_2 S 0.07129(16) 0.70055(13) 0.07613(9)
S14_2 S 0.09933(14) 0.75469(13) 0.41101(9)
S21_2 S 0.07557(17) 0.46139(15) 0.45290(10)
S22_2 S 0.26750(15) 0.72966(17) 0.44894(11)
O4_2 O 0.1270(4) 0.6545(3) 0.2948(2)
O11_2 O 0.0215(3) 0.6924(3) 0.3172(2)
O14_2 O 0.0237(4) 0.5593(3) 0.2976(2)
O19 O 0.2025(4) 0.8284(3) 0.6957(2)
O27_2 O 0.0925(5) 0.4725(3) 0.2398(3)
C3_2 C 0.2433(5) 0.8116(4) 0.6653(4)
C7_2 C 0.0934(6) 0.6822(5) 0.3249(4)
O30_2 O 0.0923(4) 0.6456(3) 0.1801(2)
C12_2 C 0.2055(6) 0.8066(4) 0.6090(4)
C15_2 C 0.0160(6) 0.7121(5) 0.1230(4)
C19_2 C 0.1807(6) 0.7837(4) 0.5095(4)
C24_2 C 0.0126(6) 0.7443(5) 0.0264(4)
C26_2 C 0.1292(6) 0.8154(4) 0.5892(4)
H6_2 H 0.096287 0.824349 0.611228
C30_2 C 0.1425(6) 0.7071(5) 0.3730(4)
C37_2 C 0.1830(6) 0.7601(5) 0.4634(4)
C44_2 C 0.0037(6) 0.5005(5) 0.4750(4)
C46_2 C 0.0584(6) 0.4950(5) 0.3921(4)
H15_2 H 0.090269 0.487205 0.369080
C48_2 C 0.2185(6) 0.6972(5) 0.3905(4)
H17_2 H 0.244963 0.673259 0.371789
N3_2 N 0.0489(7) 0.3835(5) 0.2531(5)
C53_2 C 0.0997(7) 0.4285(5) 0.2582(4)
H28_2 H 0.148196 0.421527 0.280362
C55_2 C 0.0687(8) 0.3311(6) 0.2791(5)
H32_2 H 0.114078 0.336448 0.307147
H33_2 H 0.079584 0.302831 0.254723
H34_2 H 0.026187 0.317889 0.293309
C59_2 C 0.0272(7) 0.8623(6) 0.2792(5)
H42_2 H 0.027002 0.878251 0.313110
H43_2 H 0.062141 0.884294 0.263385
H44_2 H 0.044134 0.822601 0.283057
C60_2 C 0.0348(6) 0.6786(5) 0.1723(4)
S27_2 S 0.05594(16) 0.45633(14) 0.57456(9)
O33_2 O 0.0777(4) 0.4006(3) 0.6790(2)
C65_2 C 0.0201(6) 0.4341(5) 0.6716(4)
C66_2 C 0.0006(6) 0.4680(5) 0.6214(4)
S40_2 S 0.08588(15) 0.51050(13) 0.90861(9)
S47_2 S 0.25677(16) 0.49714(16) 0.94288(10)
O37_2 O 0.1165(4) 0.4102(3) 0.7938(2)
O40_2 O 0.0103(4) 0.3163(3) 0.7972(2)
O41_2 O 0.0103(3) 0.4458(3) 0.8171(2)
O56_2 O 0.0798(5) 0.2279(3) 0.7422(4)
C72_2 C 0.0828(6) 0.4379(5) 0.8234(4)
C89_2 C 0.1321(6) 0.4649(5) 0.8713(4)
C92_2 C 0.1704(6) 0.5204(5) 0.9596(4)
C98_2 C 0.0414(6) 0.2488(5) 0.8904(4)
H55_2 H 0.072886 0.240221 0.867304
C107_2 C 0.2083(6) 0.4588(5) 0.8878(4)
H60_2 H 0.235645 0.434280 0.870195
S48_2 S 0.05707(17) 0.21428(14) 0.95061(10)
C114_2 C 0.0241(8) 0.6153(6) 0.7828(5)
H73_2 H 0.043779 0.576294 0.786003
H74_2 H 0.059757 0.640093 0.770345
H75_2 H 0.018430 0.628741 0.816543
N8_2 N 0.0513(7) 0.1350(4) 0.7544(5)
C117_2 C 0.0970(6) 0.1805(5) 0.7585(4)
H82_2 H 0.148690 0.174881 0.776033
C118_2 C 0.0726(8) 0.0795(5) 0.7760(5)
H83_2 H 0.120060 0.082388 0.802685
H84_2 H 0.031948 0.064626 0.791375
H85_2 H 0.080120 0.053671 0.748754
S4_2 S 0.04775(15) 0.95450(12) 0.57530(9)
S15_2 S 0.23718(15) 0.97297(14) 0.94690(10)
S19_2 S 0.09088(18) 0.70299(14) 0.95585(10)
O2_2 O 0.0425(3) 0.7904(3) 0.7971(2)
O5_2 O 0.0713(4) 0.9059(3) 0.7969(2)
O10_2 O 0.0303(3) 0.7898(3) 0.6814(2)
O20_2 O 0.0666(3) 0.9091(3) 0.6824(2)
O24_2 O 0.1542(4) 0.7353(3) 0.7518(3)
H1_2 H 0.172111 0.726881 0.725050
H2_2 H 0.192276 0.729258 0.778000
O25_2 O 0.2091(4) 0.9215(3) 0.7656(3)
C2_2 C 0.0483(6) 0.9410(4) 0.8263(4)
C5_2 C 0.0012(6) 0.8036(4) 0.8284(4)
C11_2 C 0.0103(6) 0.9443(4) 0.6733(4)
C18_2 C 0.1062(6) 0.9615(4) 0.8740(4)
C23_2 C 0.0191(6) 0.7728(4) 0.8796(4)
C32_2 C 0.0758(6) 0.7339(4) 0.8944(4)
H9_2 H 0.107127 0.723596 0.871700
C33_2 C 0.0213(6) 0.7451(5) 0.9775(4)
C38_2 C 0.2178(6) 0.9615(5) 0.7376(4)
H11_2 H 0.192484 0.959223 0.702170
C42_2 C 0.1792(6) 0.9438(5) 0.8896(4)
H13_2 H 0.199308 0.916234 0.870303
H24_2 H 0.302459 0.976698 0.823897
S26_2 S 0.07237(16) 0.95406(13) 0.45478(10)
C63_2 C 0.0601(6) 0.9847(4) 0.3931(4)
H45_2 H 0.091151 0.972932 0.370633
C64_2 C 0.0051(6) 0.9998(4) 0.4754(4)
O59_2 O 0.1446(4) 0.9869(3) 0.2527(3)
H49_2 H 0.173382 0.980054 0.231214
H50_2 H 0.173915 0.979663 0.282903
S16_2 S 0.92763(16) 0.04594(13) 0.54522(10)
O29_2 O 0.8554(4) 0.0131(3) 0.7473(3)
H3_2 H 0.826618 0.019946 0.768786
H4_2 H 0.826085 0.020337 0.717097
C29_2 C 0.9399(6) 0.0153(4) 0.6069(4)
H8_2 H 0.908849 0.027068 0.629367
C34_2 C 0.9949(6) 0.0002(4) 0.5246(4)
S25_2 S 0.95225(15) 0.04550(12) 0.42470(9)
O32_2 O 0.9334(3) 0.0909(3) 0.3176(2)
C61_2 C 0.9897(6) 0.0557(4) 0.3267(4)
S42_2 S 0.76282(15) 0.02703(14) 0.05310(10)
S44_2 S 0.90912(18) 0.29701(14) 0.04415(10)
O36_2 O 0.9575(3) 0.2096(3) 0.2029(2)
O39_2 O 0.9287(4) 0.0941(3) 0.2031(2)
O43_2 O 0.9697(3) 0.2102(3) 0.3186(2)
O54_2 O 0.8458(4) 0.2647(3) 0.2482(3)
H47_2 H 0.827889 0.273119 0.274950
H48_2 H 0.807724 0.270742 0.222000
O55_2 O 0.7909(4) 0.0785(3) 0.2344(3)
C70_2 C 0.9517(6) 0.0590(4) 0.1737(4)
C73_2 C 0.9988(6) 0.1964(4) 0.1716(4)
C83_2 C 0.8938(6) 0.0385(4) 0.1260(4)
C87_2 C 0.9809(6) 0.2272(4) 0.1204(4)
C95_2 C 0.9242(6) 0.2661(4) 0.1056(4)
H54_2 H 0.892873 0.276404 0.128300
C96_2 C 0.9787(6) 0.2549(5) 0.0225(4)
C100_2 C 0.7822(6) 0.0385(5) 0.2624(4)
H56_2 H 0.807516 0.040777 0.297830
C104_2 C 0.8208(6) 0.0562(5) 0.1104(4)
H58_2 H 0.800692 0.083766 0.129697
H68_2 H 0.697541 0.023302 0.176103
O71 O 0.7975(4) 0.1716(3) 0.3043(2)
S13_2 S 0.91412(15) 0.48950(13) 0.09139(9)
S17_2 S 0.94406(16) 0.54367(14) 0.42544(9)
S23_2 S 0.74323(16) 0.50286(16) 0.05712(10)
O3_2 O 0.8835(4) 0.5898(3) 0.2062(2)
O7_2 O 0.9897(4) 0.6837(3) 0.2028(2)
O8_2 O 0.9897(3) 0.5542(3) 0.1829(2)
O12_2 O 0.9223(4) 0.5994(3) 0.3210(2)
O26_2 O 0.9202(5) 0.7721(3) 0.2578(4)
C4_2 C 0.9172(6) 0.5621(5) 0.1766(4)
C10_2 C 0.9799(6) 0.5659(5) 0.3284(4)
C20_2 C 0.9994(6) 0.5320(5) 0.3786(4)
C25_2 C 0.8679(6) 0.5351(5) 0.1287(4)
C28_2 C 0.8296(6) 0.4796(5) 0.0404(4)
C36_2 C 0.9586(6) 0.7512(5) 0.1096(4)
H10_2 H 0.927114 0.759779 0.132696
C47_2 C 0.7917(6) 0.5412(5) 0.1122(4)
H16_2 H 0.764355 0.565720 0.129805
S24_2 S 0.94293(17) 0.78572(14) 0.04939(10)
C54_2 C 0.9759(8) 0.3847(6) 0.2172(5)
H29_2 H 0.956221 0.423706 0.213997
H30_2 H 0.940243 0.359907 0.229655
H31_2 H 0.981570 0.371259 0.183457
N4_2 N 0.9487(7) 0.8650(4) 0.2456(5)
C57_2 C 0.9030(6) 0.8195(5) 0.2415(4)
H38_2 H 0.851310 0.825119 0.223967
C58_2 C 0.9274(8) 0.9205(5) 0.2240(5)
H39_2 H 0.879940 0.917612 0.197315
H40_2 H 0.968052 0.935374 0.208625
H41_2 H 0.919880 0.946329 0.251246
S28_2 S 0.92443(17) 0.53861(15) 0.54710(10)
O34_2 O 0.9763(4) 0.4407(3) 0.7024(2)
C67_2 C 0.9963(6) 0.4995(5) 0.5250(4)
C68_2 C 0.9416(6) 0.5050(5) 0.6079(4)
H46_2 H 0.909731 0.512795 0.630920
S30_2 S 0.73825(13) 0.21024(12) 0.43649(9)
S34_2 S 0.90668(14) 0.18998(13) 0.47789(9)
S38_2 S 0.92871(16) 0.29945(13) 0.92387(9)
S41_2 S 0.90067(14) 0.24531(13) 0.58899(9)
S46_2 S 0.73250(15) 0.27034(17) 0.55106(11)
O38_2 O 0.8730(4) 0.3455(3) 0.7052(2)
O44_2 O 0.9785(3) 0.3076(3) 0.6828(2)
O57_2 O 0.9075(5) 0.5275(3) 0.7602(3)
C71_2 C 0.7567(5) 0.1884(4) 0.3347(4)
C75_2 C 0.9066(6) 0.3178(5) 0.6751(4)
O60_2 O 0.9077(4) 0.3544(3) 0.8199(2)
C78_2 C 0.7945(6) 0.1934(4) 0.3910(4)
C81_2 C 0.9840(6) 0.2879(5) 0.8770(4)
C84_2 C 0.8193(6) 0.2163(4) 0.4905(4)
C88_2 C 0.9874(6) 0.2557(5) 0.9736(4)
C90_2 C 0.8708(6) 0.1846(4) 0.4108(4)
H52_2 H 0.903713 0.175651 0.388772
C93_2 C 0.8575(6) 0.2929(5) 0.6270(4)
C99_2 C 0.8170(6) 0.2399(5) 0.5366(4)
C108_2 C 0.7815(6) 0.3028(5) 0.6095(4)
H61_2 H 0.755037 0.326741 0.628211
N7_2 N 0.9511(7) 0.6165(5) 0.7469(5)
C113_2 C 0.9003(7) 0.5715(5) 0.7418(4)
H72_2 H 0.851804 0.578473 0.719638
C115_2 C 0.9313(8) 0.6689(6) 0.7209(5)
H76_2 H 0.885922 0.663552 0.692853
H77_2 H 0.920416 0.697169 0.745277
H78_2 H 0.973813 0.682111 0.706691
C119_2 C 0.9728(7) 0.1377(6) 0.7208(5)
H86_2 H 0.972998 0.121749 0.686890
H87_2 H 0.937859 0.115706 0.736615
H88_2 H 0.955866 0.177399 0.716943
C120_2 C 0.9652(6) 0.3214(5) 0.8277(4)
O62 O 0.8096(3) 0.4486(3) 0.8038(2)
O64 O 0.8214(4) 0.6937(3) 0.3025(2)
S1_2 S 0.76954(13) 0.69993(12) 0.44089(8)
S5_2 S 0.75343(13) 0.44575(12) 0.94082(8)
S8_2 S 0.96561(15) 0.79029(13) 0.92697(9)
S9_2 S 0.94043(15) 0.73523(12) 0.58862(9)
S10_2 S 0.92467(14) 0.44522(14) 0.97926(9)
S18_2 S 0.94033(16) 0.69027(15) 0.47685(10)
S20_2 S 0.77223(15) 0.76266(16) 0.55885(10)
O1_2 O 0.9374(4) 0.8414(3) 0.7043(2)
O6_2 O 0.9676(3) 0.9581(3) 0.7034(2)
O13_2 O 0.9800(3) 0.9594(3) 0.8195(2)
O15_2 O 0.9448(3) 0.8391(3) 0.8201(2)
O28_2 O 0.8008(5) 0.8266(3) 0.7371(3)
C1_2 C 0.7823(5) 0.6886(4) 0.3371(3)
C6_2 C 0.9616(6) 0.8066(5) 0.6752(4)
C9_2 C 0.7703(6) 0.4391(4) 0.8376(4)
C13_2 C 0.8104(6) 0.4434(4) 0.8934(4)
C16_2 C 0.9947(6) 0.9744(4) 0.6222(4)
C17_2 C 0.8243(6) 0.6930(4) 0.3926(4)
C21_2 C 0.9040(6) 0.7840(4) 0.6286(4)
C22_2 C 0.8878(6) 0.4435(4) 0.9123(4)
H5_2 H 0.921176 0.442674 0.889387
N2_2 N 0.7472(6) 0.7426(4) 0.7536(4)
C35_2 C 0.8342(6) 0.4581(5) 0.9939(4)
C40_2 C 0.8526(6) 0.7096(4) 0.4927(4)
C41_2 C 0.9006(6) 0.6893(5) 0.4100(4)
H12_2 H 0.932608 0.686254 0.386332
C43_2 C 0.8529(6) 0.7317(4) 0.5395(4)
C45_2 C 0.8285(6) 0.7963(5) 0.6145(4)
H14_2 H 0.806074 0.822383 0.633913
C49_2 C 0.7907(6) 0.7886(5) 0.7664(4)
H18_2 H 0.816434 0.792289 0.801649
C50_2 C 0.7025(7) 0.7354(5) 0.7010(4)
H19_2 H 0.696096 0.772279 0.683495
H20_2 H 0.652298 0.719723 0.701752
H21_2 H 0.729059 0.709167 0.682489
C56_2 C 0.7407(7) 0.6982(5) 0.7917(5)
H35_2 H 0.781452 0.703283 0.822805
H36_2 H 0.745284 0.660593 0.776876
H37_2 H 0.690975 0.701427 0.800596
O69_2 O 0.8068(4) 0.9217(3) 0.8036(2)
S33_2 S 0.92613(14) 0.98677(11) 0.08663(9)
N5_2 N 0.7398(6) 0.9918(4) 0.2470(4)
C101_2 C 0.8400(6) 0.9885(4) 0.0364(4)
C111_2 C 0.6970(7) 0.9867(5) 0.1937(5)
H66_2 H 0.720536 0.957539 0.176106
H67_2 H 0.644190 0.975946 0.192937
C112_2 C 0.7358(8) 0.9453(5) 0.2846(5)
H69_2 H 0.686366 0.946803 0.294174
H70_2 H 0.741350 0.908332 0.268833
H71_2 H 0.776926 0.950178 0.315577
S31_2 S 0.75384(13) 0.96258(12) 0.93701(9)
S39_2 S 0.91848(15) 0.92896(13) 0.97655(9)
C76_2 C 0.7678(6) 0.9404(4) 0.8341(4)
C80_2 C 0.8071(6) 0.9428(4) 0.8904(4)
C91_2 C 0.8812(6) 0.9270(4) 0.9094(4)
H53_2 H 0.912100 0.915230 0.886849
C94_2 C 0.8362(6) 0.9633(4) 0.9899(4)
loop_
_geom_bond_atom_site_label_1
_geom_bond_atom_site_label_2
_geom_bond_site_symmetry_1
_geom_bond_site_symmetry_2
S1 C17 1_555 1_555
S18 C40 1_555 1_555
O16 C1 1_555 1_555
O17 C1 1_555 1_555
C1 C17 1_555 1_555
C17 C41 1_555 1_555
C40 S1 1_555 1_555
C41 S18 1_555 1_555
H12 C41 1_555 1_555
S25 C62 1_555 1_555
S26 C63 1_555 1_555
O31 C61 1_555 1_555
O32 C61 1_555 1_555
C61 C62 1_555 1_555
C62 C63 1_555 1_555
C63 H45 1_555 1_555
Er12 O31 1_555 1_555
Er14 O16 1_555 1_555
Er21 O32 1_555 1_555
Er22 O17 1_555 1_555
S25 C64 1_555 1_555
S26 C64 1_555 1_555
Er1 O1 1_555 1_555
Er14 O3 1_555 1_555
Er3 O2 1_555 1_555
Er4 O4 1_555 1_555
S3 C14 1_555 1_555
S4 C16 1_555 1_555
S6 C18 1_555 1_555
S8 C23 1_555 1_555
S9 C21 1_555 1_555
S11 C15 1_555 1_555
S12 C27 1_555 1_555
S14 C30 1_555 1_555
S15 C39 1_555 1_555
S16 C29 1_555 1_555
S17 C20 1_555 1_555
S19 C32 1_555 1_555
S20 C43 1_555 1_555
S22 C37 1_555 1_555
O1 C6 1_555 1_555
O2 C5 1_555 1_555
O3 C4 1_555 1_555
O4 C7 1_555 1_555
O5 Er3 1_555 1_555
O6 Er1 1_555 1_555
O7 Er14 1_555 1_555
O8 Er4 1_555 1_555
O10 Er3 1_555 1_555
O11 Er14 1_555 1_555
O12 Er14 1_555 1_555
O13 Er1 1_555 1_555
O14 Er4 1_555 1_555
O15 Er1 1_555 1_555
O18 C8 1_555 1_555
O20 Er3 1_555 1_555
O21 C8 1_555 1_555
O24 Er3 1_555 1_555
H1 O24 1_555 1_555
H2 O24 1_555 1_555
O25 Er3 1_555 1_555
O26 Er14 1_555 1_555
O28 Er1 1_555 1_555
O29 Er1 1_555 1_555
H3 O29 1_555 1_555
H4 O29 1_555 1_555
C2 O5 1_555 1_555
C4 O8 1_555 1_555
C5 O15 1_555 1_555
C6 O10 1_555 1_555
C7 O11 1_555 1_555
C8 C14 1_555 1_555
O30 Er4 1_555 1_555
C10 O12 1_555 1_555
C11 O6 1_555 1_555
C14 C27 1_555 1_555
C15 C36 1_555 1_555
C16 C11 1_555 1_555
C18 C2 1_555 1_555
C20 C10 1_555 1_555
C21 C6 1_555 1_555
C23 C5 1_555 1_555
C24 S11 1_555 1_555
C25 C4 1_555 1_555
C27 H7 1_555 1_555
C29 C16 1_555 1_555
H8 C29 1_555 1_555
N1 C38 1_555 1_555
N2 C49 1_555 1_555
C30 C7 1_555 1_555
C31 S3 1_555 1_555
C32 C23 1_555 1_555
H9 C32 1_555 1_555
C33 S8 1_555 1_555
C34 S4 1_555 1_555
C36 H10 1_555 1_555
C37 S14 1_555 1_555
C38 O25 1_555 1_555
H11 C38 1_555 1_555
C39 S6 1_555 1_555
C42 S15 1_555 1_555
H13 C42 1_555 1_555
C43 S9 1_555 1_555
C44 S17 1_555 1_555
C45 S20 1_555 1_555
H14 C45 1_555 1_555
C47 S23 1_555 1_555
H16 C47 1_555 1_555
C48 S22 1_555 1_555
H17 C48 1_555 1_555
C49 O28 1_555 1_555
H18 C49 1_555 1_555
C50 N2 1_555 1_555
H19 C50 1_555 1_555
H20 C50 1_555 1_555
H21 C50 1_555 1_555
C51 N1 1_555 1_555
H22 C51 1_555 1_555
H23 C51 1_555 1_555
H24 C51 1_555 1_555
C52 N1 1_555 1_555
H25 C52 1_555 1_555
H26 C52 1_555 1_555
H27 C52 1_555 1_555
S24 C24 1_555 1_555
C56 N2 1_555 1_555
H35 C56 1_555 1_555
H36 C56 1_555 1_555
H37 C56 1_555 1_555
N4 C57 1_555 1_555
C57 O26 1_555 1_555
H38 C57 1_555 1_555
C58 N4 1_555 1_555
H39 C58 1_555 1_555
H40 C58 1_555 1_555
H41 C58 1_555 1_555
C59 N4 1_555 1_555
H42 C59 1_555 1_555
H43 C59 1_555 1_555
H44 C59 1_555 1_555
C60 O7 1_555 1_555
Er12 O18 1_555 1_555
Er24 O21 1_555 1_555
O63 Er4 1_555 1_555
O67 Er3 1_555 1_555
O69 Er1 1_555 1_555
O70 Er3 1_555 1_555
O73 Er4 1_555 1_555
O76 Er14 1_555 1_555
O77 Er1 1_555 1_555
S12 C31 1_555 1_555
S16 C34 1_555 1_555
S19 C33 1_555 1_555
O13 C2 1_555 1_555
O14 C10 1_555 1_555
O20 C11 1_555 1_555
O30 C60 1_555 1_555
C15 C60 1_555 1_555
C18 C42 1_555 1_555
C21 C45 1_555 1_555
C24 C33 1_555 1_555
C25 C47 1_555 1_555
C30 C48 1_555 1_555
C31 C39 1_555 1_555
C36 S24 1_555 1_555
S2 C12 1_555 1_555
S7 C19 1_555 1_555
O70 C3 1_555 1_555
O22 C3 1_555 1_555
C3 C12 1_555 1_555
C12 C26 1_555 1_555
C19 S2 1_555 1_555
C26 S7 1_555 1_555
H6 C26 1_555 1_555
C68 S28 1_555 1_555
H46 C68 1_555 1_555
S32 C79 1_555 1_555
S37 C86 1_555 1_555
O63 C77 1_555 1_555
O53 C77 1_555 1_555
C77 C79 1_555 1_555
C79 C86 1_555 1_555
C86 H51 1_555 1_555
C92 S40 1_555 1_555
C97 S32 1_555 1_555
N7 C113 1_555 1_555
C113 O57 1_555 1_555
H72 C113 1_555 1_555
C114 N7 1_555 1_555
H73 C114 1_555 1_555
H74 C114 1_555 1_555
H75 C114 1_555 1_555
C115 N7 1_555 1_555
H76 C115 1_555 1_555
H77 C115 1_555 1_555
H78 C115 1_555 1_555
Er13 O53 1_555 1_555
Er17 O22 1_555 1_555
S37 C97 1_555 1_555
C92 C97 1_555 1_555
S5 C13 1_555 1_555
S10 C22 1_555 1_555
O9 C9 1_555 1_555
O23 C9 1_555 1_555
C9 C13 1_555 1_555
C13 C22 1_555 1_555
C22 H5 1_555 1_555
C28 S13 1_555 1_555
C35 S5 1_555 1_555
C46 S21 1_555 1_555
H15 C46 1_555 1_555
N3 C53 1_555 1_555
C53 O27 1_555 1_555
H28 C53 1_555 1_555
C54 N3 1_555 1_555
H29 C54 1_555 1_555
H30 C54 1_555 1_555
H31 C54 1_555 1_555
C55 N3 1_555 1_555
H32 C55 1_555 1_555
H33 C55 1_555 1_555
H34 C55 1_555 1_555
S30 C78 1_555 1_555
S34 C84 1_555 1_555
O50 C71 1_555 1_555
O52 C71 1_555 1_555
C71 C78 1_555 1_555
C78 C90 1_555 1_555
C84 S30 1_555 1_555
C90 S34 1_555 1_555
H52 C90 1_555 1_555
Er10 O23 1_555 1_555
Er15 O52 1_555 1_555
Er21 O50 1_555 1_555
Er25 O9 1_555 1_555
S10 C35 1_555 1_555
C28 C35 1_555 1_555
S27 C66 1_555 1_555
O33 C65 1_555 1_555
O34 C65 1_555 1_555
C65 C66 1_555 1_555
Er12 O35 1_555 1_555
Er6 O33 1_555 1_555
Er21 O36 1_555 1_555
Er25 O34 1_555 1_555
S31 C80 1_555 1_555
S33 C83 1_555 1_555
S35 C87 1_555 1_555
S36 C85 1_555 1_555
S38 C81 1_555 1_555
S39 C91 1_555 1_555
S41 C93 1_555 1_555
S42 C101 1_555 1_555
S44 C95 1_555 1_555
S45 C105 1_555 1_555
S46 C99 1_555 1_555
O35 C74 1_555 1_555
O36 C73 1_555 1_555
O37 Er6 1_555 1_555
O38 Er25 1_555 1_555
O39 Er21 1_555 1_555
O40 Er6 1_555 1_555
O41 Er25 1_555 1_555
O43 Er21 1_555 1_555
O44 Er6 1_555 1_555
O45 Er12 1_555 1_555
O46 Er12 1_555 1_555
O69 C76 1_555 1_555
O51 C76 1_555 1_555
O54 Er21 1_555 1_555
H47 O54 1_555 1_555
H48 O54 1_555 1_555
O55 Er21 1_555 1_555
O56 Er6 1_555 1_555
O58 Er12 1_555 1_555
O59 Er12 1_555 1_555
H49 O59 1_555 1_555
H50 O59 1_555 1_555
C70 O39 1_555 1_555
C72 O37 1_555 1_555
C73 O46 1_555 1_555
C74 O43 1_555 1_555
C75 O38 1_555 1_555
C76 C80 1_555 1_555
O60 Er25 1_555 1_555
C80 C91 1_555 1_555
C81 C98 1_555 1_555
C83 C70 1_555 1_555
C85 C74 1_555 1_555
C87 C73 1_555 1_555
C88 S38 1_555 1_555
C89 C72 1_555 1_555
C91 H53 1_555 1_555
N5 C100 1_555 1_555
N6 C109 1_555 1_555
C93 C75 1_555 1_555
C94 S31 1_555 1_555
C95 C87 1_555 1_555
H54 C95 1_555 1_555
C96 S35 1_555 1_555
C98 H55 1_555 1_555
C99 S41 1_555 1_555
C100 O55 1_555 1_555
H56 C100 1_555 1_555
C101 S33 1_555 1_555
C104 S42 1_555 1_555
H58 C104 1_555 1_555
C105 S36 1_555 1_555
C106 S45 1_555 1_555
H59 C106 1_555 1_555
C107 S47 1_555 1_555
H60 C107 1_555 1_555
C108 S46 1_555 1_555
H61 C108 1_555 1_555
C109 O58 1_555 1_555
H62 C109 1_555 1_555
C110 N6 1_555 1_555
H63 C110 1_555 1_555
H64 C110 1_555 1_555
H65 C110 1_555 1_555
C111 N5 1_555 1_555
H66 C111 1_555 1_555
H67 C111 1_555 1_555
H68 C111 1_555 1_555
C112 N5 1_555 1_555
H69 C112 1_555 1_555
H70 C112 1_555 1_555
H71 C112 1_555 1_555
S48 C88 1_555 1_555
C116 N6 1_555 1_555
H79 C116 1_555 1_555
H80 C116 1_555 1_555
H81 C116 1_555 1_555
N8 C117 1_555 1_555
C117 O56 1_555 1_555
H82 C117 1_555 1_555
C118 N8 1_555 1_555
H83 C118 1_555 1_555
H84 C118 1_555 1_555
H85 C118 1_555 1_555
C119 N8 1_555 1_555
H86 C119 1_555 1_555
H87 C119 1_555 1_555
H88 C119 1_555 1_555
C120 O40 1_555 1_555
Er26 O51 1_555 1_555
O65 Er6 1_555 1_555
O66 Er21 1_555 1_555
O74 Er25 1_555 1_555
O75 Er6 1_555 1_555
O78 Er12 1_555 1_555
S27 C67 1_555 1_555
S39 C94 1_555 1_555
S44 C96 1_555 1_555
O41 C72 1_555 1_555
O44 C75 1_555 1_555
O45 C70 1_555 1_555
O60 C120 1_555 1_555
C81 C120 1_555 1_555
C83 C104 1_555 1_555
C85 C106 1_555 1_555
C88 C96 1_555 1_555
C89 C107 1_555 1_555
C93 C108 1_555 1_555
C94 C101 1_555 1_555
C98 S48 1_555 1_555
S29 C82 1_555 1_555
S43 C102 1_555 1_555
O65 C69 1_555 1_555
O48 C69 1_555 1_555
C69 C82 1_555 1_555
C82 C103 1_555 1_555
C102 S29 1_555 1_555
C103 S43 1_555 1_555
H57 C103 1_555 1_555
Er19 O48 1_555 1_555
S3_2 C14_2 1_555 1_555
S12_2 C27_2 1_555 1_555
O18_2 C8_2 1_555 1_555
O73 C8_2 1_555 1_555
C8_2 C14_2 1_555 1_555
C14_2 C27_2 1_555 1_555
C27_2 H7_2 1_555 1_555
C31_2 S3_2 1_555 1_555
Er13 O18_2 1_555 1_555
S12_2 C31_2 1_555 1_555
C39_2 S6_2 1_555 1_555
C51_2 N1_2 1_555 1_555
H22_2 C51_2 1_555 1_555
H23_2 C51_2 1_555 1_555
C52_2 N1_2 1_555 1_555
H25_2 C52_2 1_555 1_555
H26_2 C52_2 1_555 1_555
H27_2 C52_2 1_555 1_555
Er13 O31_2 1_555 1_555
Er13 O35_2 1_555 1_555
S29_2 C82_2 1_555 1_555
S32_2 C79_2 1_555 1_555
S36_2 C85_2 1_555 1_555
S37_2 C86_2 1_555 1_555
S43_2 C102_2 1_555 1_555
S45_2 C105_2 1_555 1_555
O35_2 C74_2 1_555 1_555
O42 C77_2 1_555 1_555
O45_2 Er13 1_555 1_555
O46_2 Er13 1_555 1_555
O47 C69_2 1_555 1_555
O67 C69_2 1_555 1_555
O78 C77_2 1_555 1_555
O58_2 Er13 1_555 1_555
C69_2 C82_2 1_555 1_555
C77_2 C79_2 1_555 1_555
C79_2 C86_2 1_555 1_555
C82_2 C103_2 1_555 1_555
C85_2 C74_2 1_555 1_555
C86_2 H51_2 1_555 1_555
N6_2 C109_2 1_555 1_555
C97_2 S32_2 1_555 1_555
C102_2 S29_2 1_555 1_555
C103_2 S43_2 1_555 1_555
H57_2 C103_2 1_555 1_555
C105_2 S36_2 1_555 1_555
C106_2 S45_2 1_555 1_555
H59_2 C106_2 1_555 1_555
C109_2 O58_2 1_555 1_555
H62_2 C109_2 1_555 1_555
C110_2 N6_2 1_555 1_555
H63_2 C110_2 1_555 1_555
H64_2 C110_2 1_555 1_555
H65_2 C110_2 1_555 1_555
C116_2 N6_2 1_555 1_555
H79_2 C116_2 1_555 1_555
H80_2 C116_2 1_555 1_555
H81_2 C116_2 1_555 1_555
Er17 O47 1_555 1_555
Er24 O42 1_555 1_555
S37_2 C97_2 1_555 1_555
C85_2 C106_2 1_555 1_555
C102_2 C105_2 1_555 1_555
Er24 O4_2 1_555 1_555
S2_2 C12_2 1_555 1_555
S7_2 C19_2 1_555 1_555
S11_2 C15_2 1_555 1_555
S14_2 C30_2 1_555 1_555
S21_2 C44_2 1_555 1_555
S22_2 C37_2 1_555 1_555
O4_2 C7_2 1_555 1_555
O14_2 Er24 1_555 1_555
O19 C3_2 1_555 1_555
O75 C3_2 1_555 1_555
O27_2 Er24 1_555 1_555
C3_2 C12_2 1_555 1_555
C7_2 O11_2 1_555 1_555
O30_2 Er24 1_555 1_555
C12_2 C26_2 1_555 1_555
C19_2 S2_2 1_555 1_555
C24_2 S11_2 1_555 1_555
C26_2 S7_2 1_555 1_555
H6_2 C26_2 1_555 1_555
C30_2 C7_2 1_555 1_555
C37_2 S14_2 1_555 1_555
C46_2 S21_2 1_555 1_555
H15_2 C46_2 1_555 1_555
C48_2 S22_2 1_555 1_555
H17_2 C48_2 1_555 1_555
N3_2 C53_2 1_555 1_555
C53_2 O27_2 1_555 1_555
H28_2 C53_2 1_555 1_555
C55_2 N3_2 1_555 1_555
H32_2 C55_2 1_555 1_555
H33_2 C55_2 1_555 1_555
H34_2 C55_2 1_555 1_555
H42_2 C59_2 1_555 1_555
H43_2 C59_2 1_555 1_555
H44_2 C59_2 1_555 1_555
S27_2 C66_2 1_555 1_555
O33_2 C65_2 1_555 1_555
C65_2 C66_2 1_555 1_555
Er17 O33_2 1_555 1_555
S40_2 C89_2 1_555 1_555
S47_2 C92_2 1_555 1_555
O37_2 Er17 1_555 1_555
O40_2 Er17 1_555 1_555
O56_2 Er17 1_555 1_555
C72_2 O37_2 1_555 1_555
C89_2 C72_2 1_555 1_555
C92_2 S40_2 1_555 1_555
C98_2 H55_2 1_555 1_555
C107_2 S47_2 1_555 1_555
H60_2 C107_2 1_555 1_555
H73_2 C114_2 1_555 1_555
H74_2 C114_2 1_555 1_555
H75_2 C114_2 1_555 1_555
N8_2 C117_2 1_555 1_555
C117_2 O56_2 1_555 1_555
H82_2 C117_2 1_555 1_555
C118_2 N8_2 1_555 1_555
H83_2 C118_2 1_555 1_555
H84_2 C118_2 1_555 1_555
H85_2 C118_2 1_555 1_555
Er19 O19 1_555 1_555
O30_2 C60_2 1_555 1_555
C15_2 C60_2 1_555 1_555
C19_2 C37_2 1_555 1_555
C30_2 C48_2 1_555 1_555
O41_2 C72_2 1_555 1_555
C89_2 C107_2 1_555 1_555
C98_2 S48_2 1_555 1_555
Er19 O2_2 1_555 1_555
S19_2 C32_2 1_555 1_555
O2_2 C5_2 1_555 1_555
O5_2 Er19 1_555 1_555
O10_2 Er19 1_555 1_555
O20_2 Er19 1_555 1_555
O24_2 Er19 1_555 1_555
H1_2 O24_2 1_555 1_555
H2_2 O24_2 1_555 1_555
O25_2 Er19 1_555 1_555
C2_2 O5_2 1_555 1_555
C18_2 C2_2 1_555 1_555
C23_2 C5_2 1_555 1_555
C32_2 C23_2 1_555 1_555
H9_2 C32_2 1_555 1_555
C38_2 O25_2 1_555 1_555
H11_2 C38_2 1_555 1_555
C42_2 S15_2 1_555 1_555
H13_2 C42_2 1_555 1_555
S26_2 C63_2 1_555 1_555
C63_2 H45_2 1_555 1_555
S19_2 C33_2 1_555 1_555
O20_2 C11_2 1_555 1_555
C18_2 C42_2 1_555 1_555
S26_2 C64_2 1_555 1_555
H49_2 O59_2 1_555 1_555
H50_2 O59_2 1_555 1_555
S16_2 C29_2 1_555 1_555
H3_2 O29_2 1_555 1_555
H4_2 O29_2 1_555 1_555
H8_2 C29_2 1_555 1_555
O32_2 C61_2 1_555 1_555
Er22 O32_2 1_555 1_555
S16_2 C34_2 1_555 1_555
Er22 O36_2 1_555 1_555
S44_2 C95_2 1_555 1_555
O36_2 C73_2 1_555 1_555
O39_2 Er22 1_555 1_555
O43_2 Er22 1_555 1_555
O54_2 Er22 1_555 1_555
H47_2 O54_2 1_555 1_555
H48_2 O54_2 1_555 1_555
O55_2 Er22 1_555 1_555
C70_2 O39_2 1_555 1_555
C83_2 C70_2 1_555 1_555
C87_2 C73_2 1_555 1_555
C95_2 C87_2 1_555 1_555
H54_2 C95_2 1_555 1_555
C100_2 O55_2 1_555 1_555
H56_2 C100_2 1_555 1_555
C104_2 S42_2 1_555 1_555
H58_2 C104_2 1_555 1_555
O71 Er22 1_555 1_555
S44_2 C96_2 1_555 1_555
C83_2 C104_2 1_555 1_555
Er15 O3_2 1_555 1_555
S13_2 C25_2 1_555 1_555
S17_2 C20_2 1_555 1_555
S23_2 C28_2 1_555 1_555
O3_2 C4_2 1_555 1_555
O7_2 Er15 1_555 1_555
O12_2 Er15 1_555 1_555
O26_2 Er15 1_555 1_555
C4_2 O8_2 1_555 1_555
C10_2 O12_2 1_555 1_555
C20_2 C10_2 1_555 1_555
C25_2 C4_2 1_555 1_555
C28_2 S13_2 1_555 1_555
C36_2 H10_2 1_555 1_555
C47_2 S23_2 1_555 1_555
H16_2 C47_2 1_555 1_555
H29_2 C54_2 1_555 1_555
H30_2 C54_2 1_555 1_555
H31_2 C54_2 1_555 1_555
N4_2 C57_2 1_555 1_555
C57_2 O26_2 1_555 1_555
H38_2 C57_2 1_555 1_555
C58_2 N4_2 1_555 1_555
H39_2 C58_2 1_555 1_555
H40_2 C58_2 1_555 1_555
H41_2 C58_2 1_555 1_555
S28_2 C67_2 1_555 1_555
C68_2 S28_2 1_555 1_555
H46_2 C68_2 1_555 1_555
Er26 O34_2 1_555 1_555
S30_2 C78_2 1_555 1_555
S34_2 C84_2 1_555 1_555
S38_2 C81_2 1_555 1_555
S41_2 C93_2 1_555 1_555
S46_2 C99_2 1_555 1_555
O38_2 Er26 1_555 1_555
O71 C71_2 1_555 1_555
O76 C71_2 1_555 1_555
O57_2 Er26 1_555 1_555
C71_2 C78_2 1_555 1_555
C75_2 O38_2 1_555 1_555
O60_2 Er26 1_555 1_555
C78_2 C90_2 1_555 1_555
C84_2 S30_2 1_555 1_555
C88_2 S38_2 1_555 1_555
C90_2 S34_2 1_555 1_555
H52_2 C90_2 1_555 1_555
C93_2 C75_2 1_555 1_555
C99_2 S41_2 1_555 1_555
C108_2 S46_2 1_555 1_555
H61_2 C108_2 1_555 1_555
N7_2 C113_2 1_555 1_555
C113_2 O57_2 1_555 1_555
H72_2 C113_2 1_555 1_555
C115_2 N7_2 1_555 1_555
H76_2 C115_2 1_555 1_555
H77_2 C115_2 1_555 1_555
H78_2 C115_2 1_555 1_555
H86_2 C119_2 1_555 1_555
H87_2 C119_2 1_555 1_555
H88_2 C119_2 1_555 1_555
O62 Er26 1_555 1_555
O64 Er15 1_555 1_555
C25_2 C47_2 1_555 1_555
C36_2 S24_2 1_555 1_555
O44_2 C75_2 1_555 1_555
O60_2 C120_2 1_555 1_555
C81_2 C120_2 1_555 1_555
C84_2 C99_2 1_555 1_555
C93_2 C108_2 1_555 1_555
Er10 O1_2 1_555 1_555
S1_2 C17_2 1_555 1_555
S5_2 C13_2 1_555 1_555
S9_2 C21_2 1_555 1_555
S10_2 C22_2 1_555 1_555
S18_2 C40_2 1_555 1_555
S20_2 C43_2 1_555 1_555
O1_2 C6_2 1_555 1_555
O6_2 Er10 1_555 1_555
O62 C9_2 1_555 1_555
O13_2 Er10 1_555 1_555
O15_2 Er10 1_555 1_555
O64 C1_2 1_555 1_555
O66 C1_2 1_555 1_555
O77 C9_2 1_555 1_555
O28_2 Er10 1_555 1_555
C1_2 C17_2 1_555 1_555
C9_2 C13_2 1_555 1_555
C13_2 C22_2 1_555 1_555
C17_2 C41_2 1_555 1_555
C21_2 C6_2 1_555 1_555
C22_2 H5_2 1_555 1_555
N2_2 C49_2 1_555 1_555
C35_2 S5_2 1_555 1_555
C40_2 S1_2 1_555 1_555
C41_2 S18_2 1_555 1_555
H12_2 C41_2 1_555 1_555
C43_2 S9_2 1_555 1_555
C45_2 S20_2 1_555 1_555
H14_2 C45_2 1_555 1_555
C49_2 O28_2 1_555 1_555
H18_2 C49_2 1_555 1_555
C50_2 N2_2 1_555 1_555
H19_2 C50_2 1_555 1_555
H20_2 C50_2 1_555 1_555
H21_2 C50_2 1_555 1_555
C56_2 N2_2 1_555 1_555
H35_2 C56_2 1_555 1_555
H36_2 C56_2 1_555 1_555
H37_2 C56_2 1_555 1_555
O69_2 Er10 1_555 1_555
S10_2 C35_2 1_555 1_555
C21_2 C45_2 1_555 1_555
C40_2 C43_2 1_555 1_555
C101_2 S33_2 1_555 1_555
C111_2 N5_2 1_555 1_555
H66_2 C111_2 1_555 1_555
H67_2 C111_2 1_555 1_555
C112_2 N5_2 1_555 1_555
H69_2 C112_2 1_555 1_555
H70_2 C112_2 1_555 1_555
H71_2 C112_2 1_555 1_555
S31_2 C80_2 1_555 1_555
S39_2 C91_2 1_555 1_555
O69_2 C76_2 1_555 1_555
O74 C76_2 1_555 1_555
C76_2 C80_2 1_555 1_555
C80_2 C91_2 1_555 1_555
C91_2 H53_2 1_555 1_555
C94_2 S31_2 1_555 1_555
S39_2 C94_2 1_555 1_555

#END
