
###############################################################################
#
# This file contains modified crystal structure data generated from the
# MOF subset of the Cambridge Structural Database (CSD) v543 
# hosted by the Cambridge Crystallographic Data Centre (CCDC).
#
# This work is licensed under the Creative Commons
# Attribution-NonCommercial-ShareAlike 4.0 International License.
# To view a copy of this license, visit
# http://creativecommons.org/licenses/by-nc-sa/4.0/
# or send a letter to
# Creative Commons, PO Box 1866, Mountain View, CA 94042, USA.
#
# CIF created using the CSD Python API on 29 September 2022
# The structure has been converted into the P1 space group
# The structure has a 3D framework
# The original CSD entry VEDDIT is in the monoclinic crystal system
# The framework has been calculated to contain at least 10.0% void space
# The void calculation uses a probe of radius 1.32A, grid spacing 0.4
# The framework is charged, counterions have been retained in the structure
#
###############################################################################

data_VEDDIT
_chemical_formula_moiety         '(C144 H104 Cl8 Dy8 N24 O88 Zn6)n'
_symmetry_cell_setting           triclinic
_symmetry_space_group_name_H-M   'P 1'
_symmetry_Int_Tables_number      1
_space_group_name_Hall           'P 1'
loop_
_symmetry_equiv_pos_site_id
_symmetry_equiv_pos_as_xyz
1 x,y,z
_cell_length_a                   17.3797(4)
_cell_length_b                   16.6989(3)
_cell_length_c                   21.4272(5)
_cell_angle_alpha                90
_cell_angle_beta                 107.578(2)
_cell_angle_gamma                90
_cell_volume                     5928.27
loop_
_atom_site_label
_atom_site_type_symbol
_atom_site_fract_x
_atom_site_fract_y
_atom_site_fract_z
Dy6 Dy 0.021680(19) 0.067700(18) 0.930910(14)
O17 O 0.0896(3) 0.0269(3) 0.5414(2)
O26 O 0.0154(3) 0.0676(3) 0.4028(2)
O2 O 0.3427(3) 0.4451(3) 0.0023(3)
O7 O 0.0639(4) 0.9393(3) 0.1784(3)
H10 H 0.0370 0.9288 0.2113
H11 H 0.0898 0.9912 0.1915
Dy3 Dy 0.478320(19) 0.432300(18) 0.069090(14)
O14 O 0.0896(3) 0.9731(3) 0.0414(2)
O19 O 0.0630(3) 0.8061(3) 0.1010(2)
C1 C 0.0574(4) 0.4334(4) 0.8491(3)
C2 C 0.2599(4) 0.5785(5) 0.8645(4)
H1 H 0.3033 0.6117 0.8656
C3 C 0.2688(4) 0.5151(5) 0.9075(3)
C4 C 0.2023(4) 0.4677(4) 0.9035(3)
H2 H 0.2060 0.4256 0.9327
H4 H 0.0114 0.8488 0.8038
C14 C 0.1299(4) 0.4835(4) 0.8554(3)
C16 C 0.1841(4) 0.5916(5) 0.8191(4)
H8 H 0.1777 0.6355 0.7913
C17 C 0.0621(4) 0.3568(5) 0.8758(3)
H9 H 0.1121 0.3345 0.8974
C18 C 0.3464(4) 0.4941(4) 0.9595(3)
N2 N 0.1214(4) 0.5450(3) 0.8138(3)
O3 O 0.4104(3) 0.5269(3) 0.9586(2)
O5 O 0.0672(3) 0.1974(3) 0.9115(3)
O6 O 0.0154(3) 0.9324(3) 0.9028(2)
Zn1 Zn 0.0000 0.56101(6) 0.7500
C23 C 0.0089(4) 0.8686(4) 0.5774(3)
C24 C 0.0807(4) 0.3507(4) 0.6612(4)
H16 H 0.1287 0.3244 0.6637
C25 C 0.0007(4) 0.8001(4) 0.6804(3)
C26 C 0.0140(4) 0.7952(4) 0.6190(3)
C27 C 0.0818(5) 0.4251(4) 0.6884(4)
H18 H 0.1313 0.4481 0.7104
C28 C 0.0325(4) 0.6549(5) 0.6367(3)
H19 H 0.0426 0.6051 0.6215
C29 C 0.0066(4) 0.3149(4) 0.6297(3)
C30 C 0.0059(4) 0.7316(4) 0.7164(3)
C31 C 0.0012(4) 0.2299(4) 0.6044(3)
C33 C 0.0301(5) 0.7213(4) 0.5975(3)
H20 H 0.0392 0.7160 0.5571
Dy2 Dy 0.021680(19) 0.932300(18) 0.430910(14)
Dy4 Dy 0.521680(19) 0.567700(18) 0.930910(14)
N4 N 0.0209(3) 0.6595(3) 0.6951(2)
N6 N 0.0144(3) 0.4660(4) 0.6845(3)
O9 O 0.0304(3) 0.8616(3) 0.5268(2)
O12 O 0.1573(3) 0.9451(3) 0.4977(3)
O18 O 0.0630(3) 0.1939(3) 0.6010(2)
O23 O 0.0672(3) 0.8026(3) 0.4115(3)
O28 O 0.1127(4) 0.9443(4) 0.3646(3)
H25 H 0.1013 0.9884 0.3368
H26 H 0.1109 0.9001 0.3378
O25 O 0.9846(3) 0.0676(3) 0.0972(2)
Dy7 Dy 0.978320(19) 0.067700(18) 0.569090(14)
O15 O 0.9104(3) 0.0269(3) 0.9586(2)
Dy1 Dy 0.978320(19) 0.932300(18) 0.069090(14)
O8 O 0.8873(4) 0.9443(4) 0.1354(3)
H12 H 0.8987 0.9884 0.1632
H13 H 0.8891 0.9001 0.1622
O11 O 0.8427(3) 0.9451(3) 0.0023(3)
O22 O 0.9328(3) 0.8026(3) 0.0885(3)
C5 C 0.9911(4) 0.8686(4) 0.9226(3)
C6 C 0.9193(4) 0.3507(4) 0.8388(4)
H3 H 0.8713 0.3244 0.8363
C7 C 0.9993(4) 0.8001(4) 0.8196(3)
C8 C 0.9860(4) 0.7952(4) 0.8810(3)
C9 C 0.9182(5) 0.4251(4) 0.8116(4)
H5 H 0.8687 0.4481 0.7896
C10 C 0.9675(4) 0.6549(5) 0.8633(3)
H6 H 0.9574 0.6051 0.8785
C11 C 0.9934(4) 0.3149(4) 0.8703(3)
C12 C 0.9941(4) 0.7316(4) 0.7836(3)
C13 C 0.9988(4) 0.2299(4) 0.8956(3)
C15 C 0.9699(5) 0.7213(4) 0.9025(3)
H7 H 0.9608 0.7160 0.9429
N1 N 0.9791(3) 0.6595(3) 0.8049(2)
N3 N 0.9856(3) 0.4660(4) 0.8155(3)
O1 O 0.9696(3) 0.8616(3) 0.9732(2)
O4 O 0.9370(3) 0.1939(3) 0.8990(2)
Zn1_2 Zn 1.0000 0.56101(6) 0.7500
C19 C 0.9426(4) 0.4334(4) 0.6509(3)
C20 C 0.7401(4) 0.5785(5) 0.6355(4)
H14 H 0.6967 0.6117 0.6344
C21 C 0.7312(4) 0.5151(5) 0.5925(3)
C22 C 0.7977(4) 0.4677(4) 0.5965(3)
H15 H 0.7940 0.4256 0.5673
H17 H 0.9886 0.8488 0.6962
C32 C 0.8701(4) 0.4835(4) 0.6446(3)
C34 C 0.8159(4) 0.5916(5) 0.6809(4)
H21 H 0.8223 0.6355 0.7087
C35 C 0.9379(4) 0.3568(5) 0.6242(3)
H22 H 0.8879 0.3345 0.6026
C36 C 0.6536(4) 0.4941(4) 0.5405(3)
Dy8 Dy 0.521680(19) 0.432300(18) 0.430910(14)
Dy9 Dy 0.478320(19) 0.567700(18) 0.569090(14)
N5 N 0.8786(4) 0.5450(3) 0.6862(3)
O10 O 0.6573(3) 0.4451(3) 0.4977(3)
O13 O 0.5896(3) 0.5269(3) 0.5414(2)
O16 O 0.9104(3) 0.9731(3) 0.4586(2)
O20 O 0.9370(3) 0.8061(3) 0.3990(2)
O21 O 0.9328(3) 0.1974(3) 0.5885(3)
O24 O 0.9846(3) 0.9324(3) 0.5972(2)
O27 O 0.9361(4) 0.9393(3) 0.3216(3)
H23 H 0.9630 0.9288 0.2887
H24 H 0.9102 0.9912 0.3085
O7_2 O 0.5639(4) 0.4393(3) 0.1784(3)
H10_2 H 0.5370 0.4288 0.2113
H11_2 H 0.5898 0.4912 0.1915
O8_2 O 0.3873(4) 0.4443(4) 0.1354(3)
H12_2 H 0.3987 0.4884 0.1632
H13_2 H 0.3891 0.4001 0.1622
O14_2 O 0.5896(3) 0.4731(3) 0.0414(2)
O19_2 O 0.5630(3) 0.3061(3) 0.1010(2)
O22_2 O 0.4328(3) 0.3026(3) 0.0885(3)
O25_2 O 0.4846(3) 0.5676(3) 0.0972(2)
C2_2 C 0.7599(4) 0.0785(5) 0.8645(4)
H1_2 H 0.8033 0.1117 0.8656
C3_2 C 0.7688(4) 0.0151(5) 0.9075(3)
C5_2 C 0.4911(4) 0.3686(4) 0.9226(3)
C7_2 C 0.4993(4) 0.3001(4) 0.8196(3)
H4_2 H 0.5114 0.3488 0.8038
C8_2 C 0.4860(4) 0.2952(4) 0.8810(3)
C10_2 C 0.4675(4) 0.1549(5) 0.8633(3)
H6_2 H 0.4574 0.1051 0.8785
C12_2 C 0.4941(4) 0.2316(4) 0.7836(3)
C15_2 C 0.4699(5) 0.2213(4) 0.9025(3)
H7_2 H 0.4608 0.2160 0.9429
C16_2 C 0.6841(4) 0.0916(5) 0.8191(4)
H8_2 H 0.6777 0.1355 0.7913
N1_2 N 0.4791(3) 0.1595(3) 0.8049(2)
N2_2 N 0.6214(4) 0.0450(3) 0.8138(3)
O1_2 O 0.4696(3) 0.3616(3) 0.9732(2)
O6_2 O 0.5154(3) 0.4324(3) 0.9028(2)
Zn1_3 Zn 0.5000 0.06101(6) 0.7500
C20_2 C 0.2401(4) 0.0785(5) 0.6355(4)
H14_2 H 0.1967 0.1117 0.6344
C21_2 C 0.2312(4) 0.0151(5) 0.5925(3)
C23_2 C 0.5089(4) 0.3686(4) 0.5774(3)
C25_2 C 0.5007(4) 0.3001(4) 0.6804(3)
H17_2 H 0.4886 0.3488 0.6962
C26_2 C 0.5140(4) 0.2952(4) 0.6190(3)
C28_2 C 0.5325(4) 0.1549(5) 0.6367(3)
H19_2 H 0.5426 0.1051 0.6215
C30_2 C 0.5059(4) 0.2316(4) 0.7164(3)
C33_2 C 0.5301(5) 0.2213(4) 0.5975(3)
H20_2 H 0.5392 0.2160 0.5571
C34_2 C 0.3159(4) 0.0916(5) 0.6809(4)
H21_2 H 0.3223 0.1355 0.7087
N4_2 N 0.5209(3) 0.1595(3) 0.6951(2)
N5_2 N 0.3786(4) 0.0450(3) 0.6862(3)
O9_2 O 0.5304(3) 0.3616(3) 0.5268(2)
O16_2 O 0.4104(3) 0.4731(3) 0.4586(2)
O20_2 O 0.4370(3) 0.3061(3) 0.3990(2)
O23_2 O 0.5672(3) 0.3026(3) 0.4115(3)
O24_2 O 0.4846(3) 0.4324(3) 0.5972(2)
O26_2 O 0.5154(3) 0.5676(3) 0.4028(2)
O27_2 O 0.4361(4) 0.4393(3) 0.3216(3)
H23_2 H 0.4630 0.4288 0.2887
H24_2 H 0.4102 0.4912 0.3085
O28_2 O 0.6127(4) 0.4443(4) 0.3646(3)
H25_2 H 0.6013 0.4884 0.3368
H26_2 H 0.6109 0.4001 0.3378
C1_2 C 0.5574(4) 0.9334(4) 0.8491(3)
C4_2 C 0.7023(4) 0.9677(4) 0.9035(3)
H2_2 H 0.7060 0.9256 0.9327
C6_2 C 0.4193(4) 0.8507(4) 0.8388(4)
H3_2 H 0.3713 0.8244 0.8363
C9_2 C 0.4182(5) 0.9251(4) 0.8116(4)
H5_2 H 0.3687 0.9481 0.7896
C11_2 C 0.4934(4) 0.8149(4) 0.8703(3)
C13_2 C 0.4988(4) 0.7299(4) 0.8956(3)
C14_2 C 0.6299(4) 0.9835(4) 0.8554(3)
C17_2 C 0.5621(4) 0.8568(5) 0.8758(3)
H9_2 H 0.6121 0.8345 0.8974
C18_2 C 0.8464(4) 0.9941(4) 0.9595(3)
N3_2 N 0.4856(3) 0.9660(4) 0.8155(3)
O4_2 O 0.4370(3) 0.6939(3) 0.8990(2)
O5_2 O 0.5672(3) 0.6974(3) 0.9115(3)
C19_2 C 0.4426(4) 0.9334(4) 0.6509(3)
C22_2 C 0.2977(4) 0.9677(4) 0.5965(3)
H15_2 H 0.2940 0.9256 0.5673
C24_2 C 0.5807(4) 0.8507(4) 0.6612(4)
H16_2 H 0.6287 0.8244 0.6637
C27_2 C 0.5818(5) 0.9251(4) 0.6884(4)
H18_2 H 0.6313 0.9481 0.7104
C29_2 C 0.5066(4) 0.8149(4) 0.6297(3)
C31_2 C 0.5012(4) 0.7299(4) 0.6044(3)
C32_2 C 0.3701(4) 0.9835(4) 0.6446(3)
C35_2 C 0.4379(4) 0.8568(5) 0.6242(3)
H22_2 H 0.3879 0.8345 0.6026
C36_2 C 0.1536(4) 0.9941(4) 0.5405(3)
N6_2 N 0.5144(3) 0.9660(4) 0.6845(3)
O18_2 O 0.5630(3) 0.6939(3) 0.6010(2)
O21_2 O 0.4328(3) 0.6974(3) 0.5885(3)
C5_3 C 0.0089(4) 0.1314(4) 0.0774(3)
C6_3 C 0.0807(4) 0.6493(4) 0.1612(4)
H3_3 H 0.1287 0.6756 0.1637
C7_3 C 0.0007(4) 0.1999(4) 0.1804(3)
C8_3 C 0.0140(4) 0.2048(4) 0.1190(3)
C9_3 C 0.0818(5) 0.5749(4) 0.1884(4)
H5_3 H 0.1313 0.5519 0.2104
C10_3 C 0.0325(4) 0.3451(5) 0.1367(3)
H6_3 H 0.0426 0.3949 0.1215
C11_3 C 0.0066(4) 0.6851(4) 0.1297(3)
C12_3 C 0.0059(4) 0.2684(4) 0.2164(3)
C13_3 C 0.0012(4) 0.7701(4) 0.1044(3)
C15_3 C 0.0301(5) 0.2787(4) 0.0975(3)
H7_3 H 0.0392 0.2840 0.0571
N1_3 N 0.0209(3) 0.3405(3) 0.1951(2)
N3_3 N 0.0144(3) 0.5340(4) 0.1845(3)
O1_3 O 0.0304(3) 0.1384(3) 0.0268(2)
Zn1_4 Zn 0.0000 0.43899(6) 0.2500
C19_3 C 0.0574(4) 0.5666(4) 0.3491(3)
C20_3 C 0.2599(4) 0.4215(5) 0.3645(4)
H14_3 H 0.3033 0.3883 0.3656
C21_3 C 0.2688(4) 0.4849(5) 0.4075(3)
C22_3 C 0.2023(4) 0.5323(4) 0.4035(3)
H15_3 H 0.2060 0.5744 0.4327
H17_3 H 0.0114 0.1512 0.3038
C32_3 C 0.1299(4) 0.5165(4) 0.3554(3)
C34_3 C 0.1841(4) 0.4084(5) 0.3191(4)
H21_3 H 0.1777 0.3645 0.2913
C35_3 C 0.0621(4) 0.6432(5) 0.3758(3)
H22_3 H 0.1121 0.6655 0.3974
C36_3 C 0.3464(4) 0.5059(4) 0.4595(3)
N5_3 N 0.1214(4) 0.4550(3) 0.3138(3)
O10_2 O 0.3427(3) 0.5549(3) 0.5023(3)
O27_3 O 0.0639(4) 0.0607(3) 0.6784(3)
H23_3 H 0.0370 0.0712 0.7113
H24_3 H 0.0898 0.0088 0.6915
O8_3 O 0.1127(4) 0.0557(4) 0.8646(3)
H12_3 H 0.1013 0.0116 0.8368
H13_3 H 0.1109 0.0999 0.8378
O11_2 O 0.1573(3) 0.0549(3) 0.9977(3)
C1_3 C 0.9426(4) 0.5666(4) 0.1509(3)
C2_3 C 0.7401(4) 0.4215(5) 0.1355(4)
H1_3 H 0.6967 0.3883 0.1344
C3_3 C 0.7312(4) 0.4849(5) 0.0925(3)
C4_3 C 0.7977(4) 0.5323(4) 0.0965(3)
H2_3 H 0.7940 0.5744 0.0673
H4_3 H 0.9886 0.1512 0.1962
C14_3 C 0.8701(4) 0.5165(4) 0.1446(3)
C16_3 C 0.8159(4) 0.4084(5) 0.1809(4)
H8_3 H 0.8223 0.3645 0.2087
C17_3 C 0.9379(4) 0.6432(5) 0.1242(3)
H9_3 H 0.8879 0.6655 0.1026
C18_3 C 0.6536(4) 0.5059(4) 0.0405(3)
N2_3 N 0.8786(4) 0.4550(3) 0.1862(3)
Zn1_5 Zn 1.0000 0.43899(6) 0.2500
C23_3 C 0.9911(4) 0.1314(4) 0.4226(3)
C24_3 C 0.9193(4) 0.6493(4) 0.3388(4)
H16_3 H 0.8713 0.6756 0.3363
C25_3 C 0.9993(4) 0.1999(4) 0.3196(3)
C26_3 C 0.9860(4) 0.2048(4) 0.3810(3)
C27_3 C 0.9182(5) 0.5749(4) 0.3116(4)
H18_3 H 0.8687 0.5519 0.2896
C28_3 C 0.9675(4) 0.3451(5) 0.3633(3)
H19_3 H 0.9574 0.3949 0.3785
C29_3 C 0.9934(4) 0.6851(4) 0.3703(3)
C30_3 C 0.9941(4) 0.2684(4) 0.2836(3)
C31_3 C 0.9988(4) 0.7701(4) 0.3956(3)
C33_3 C 0.9699(5) 0.2787(4) 0.4025(3)
H20_3 H 0.9608 0.2840 0.4429
N4_3 N 0.9791(3) 0.3405(3) 0.3049(2)
N6_3 N 0.9856(3) 0.5340(4) 0.3155(3)
O9_3 O 0.9696(3) 0.1384(3) 0.4732(2)
O12_2 O 0.8427(3) 0.0549(3) 0.5023(3)
O28_3 O 0.8873(4) 0.0557(4) 0.6354(3)
H25_3 H 0.8987 0.0116 0.6632
H26_3 H 0.8891 0.0999 0.6622
O2_2 O 0.6573(3) 0.5549(3) 0.9977(3)
O7_3 O 0.9361(4) 0.0607(3) 0.8216(3)
H10_3 H 0.9630 0.0712 0.7887
H11_3 H 0.9102 0.0088 0.8085
C1_4 C 0.4426(4) 0.0666(4) 0.1509(3)
C4_4 C 0.2977(4) 0.0323(4) 0.0965(3)
H2_4 H 0.2940 0.0744 0.0673
C6_4 C 0.5807(4) 0.1493(4) 0.1612(4)
H3_4 H 0.6287 0.1756 0.1637
C9_4 C 0.5818(5) 0.0749(4) 0.1884(4)
H5_4 H 0.6313 0.0519 0.2104
C11_4 C 0.5066(4) 0.1851(4) 0.1297(3)
C13_4 C 0.5012(4) 0.2701(4) 0.1044(3)
C14_4 C 0.3701(4) 0.0165(4) 0.1446(3)
C17_4 C 0.4379(4) 0.1432(5) 0.1242(3)
H9_4 H 0.3879 0.1655 0.1026
C18_4 C 0.1536(4) 0.0059(4) 0.0405(3)
N3_4 N 0.5144(3) 0.0340(4) 0.1845(3)
C19_4 C 0.5574(4) 0.0666(4) 0.3491(3)
C22_4 C 0.7023(4) 0.0323(4) 0.4035(3)
H15_4 H 0.7060 0.0744 0.4327
C24_4 C 0.4193(4) 0.1493(4) 0.3388(4)
H16_4 H 0.3713 0.1756 0.3363
C27_4 C 0.4182(5) 0.0749(4) 0.3116(4)
H18_4 H 0.3687 0.0519 0.2896
C29_4 C 0.4934(4) 0.1851(4) 0.3703(3)
C31_4 C 0.4988(4) 0.2701(4) 0.3956(3)
C32_4 C 0.6299(4) 0.0165(4) 0.3554(3)
C35_4 C 0.5621(4) 0.1432(5) 0.3758(3)
H22_4 H 0.6121 0.1655 0.3974
C36_4 C 0.8464(4) 0.0059(4) 0.4595(3)
N6_4 N 0.4856(3) 0.0340(4) 0.3155(3)
C2_4 C 0.2401(4) 0.9215(5) 0.1355(4)
H1_4 H 0.1967 0.8883 0.1344
C3_4 C 0.2312(4) 0.9849(5) 0.0925(3)
C5_4 C 0.5089(4) 0.6314(4) 0.0774(3)
C7_4 C 0.5007(4) 0.6999(4) 0.1804(3)
H4_4 H 0.4886 0.6512 0.1962
C8_4 C 0.5140(4) 0.7048(4) 0.1190(3)
C10_4 C 0.5325(4) 0.8451(5) 0.1367(3)
H6_4 H 0.5426 0.8949 0.1215
C12_4 C 0.5059(4) 0.7684(4) 0.2164(3)
C15_4 C 0.5301(5) 0.7787(4) 0.0975(3)
H7_4 H 0.5392 0.7840 0.0571
C16_4 C 0.3159(4) 0.9084(5) 0.1809(4)
H8_4 H 0.3223 0.8645 0.2087
N1_4 N 0.5209(3) 0.8405(3) 0.1951(2)
N2_4 N 0.3786(4) 0.9550(3) 0.1862(3)
O1_4 O 0.5304(3) 0.6384(3) 0.0268(2)
Zn1_6 Zn 0.5000 0.93899(6) 0.2500
C20_4 C 0.7599(4) 0.9215(5) 0.3645(4)
H14_4 H 0.8033 0.8883 0.3656
C21_4 C 0.7688(4) 0.9849(5) 0.4075(3)
C23_4 C 0.4911(4) 0.6314(4) 0.4226(3)
C25_4 C 0.4993(4) 0.6999(4) 0.3196(3)
H17_4 H 0.5114 0.6512 0.3038
C26_4 C 0.4860(4) 0.7048(4) 0.3810(3)
C28_4 C 0.4675(4) 0.8451(5) 0.3633(3)
H19_4 H 0.4574 0.8949 0.3785
C30_4 C 0.4941(4) 0.7684(4) 0.2836(3)
C33_4 C 0.4699(5) 0.7787(4) 0.4025(3)
H20_4 H 0.4608 0.7840 0.4429
C34_4 C 0.6841(4) 0.9084(5) 0.3191(4)
H21_4 H 0.6777 0.8645 0.2913
N4_4 N 0.4791(3) 0.8405(3) 0.3049(2)
N5_4 N 0.6214(4) 0.9550(3) 0.3138(3)
O9_4 O 0.4696(3) 0.6384(3) 0.4732(2)
O27_4 O 0.5639(4) 0.5607(3) 0.6784(3)
H23_4 H 0.5370 0.5712 0.7113
H24_4 H 0.5898 0.5088 0.6915
O28_4 O 0.3873(4) 0.5557(4) 0.6354(3)
H25_4 H 0.3987 0.5116 0.6632
H26_4 H 0.3891 0.5999 0.6622
O7_4 O 0.4361(4) 0.5607(3) 0.8216(3)
H10_4 H 0.4630 0.5712 0.7887
H11_4 H 0.4102 0.5088 0.8085
O8_4 O 0.6127(4) 0.5557(4) 0.8646(3)
H12_4 H 0.6013 0.5116 0.8368
H13_4 H 0.6109 0.5999 0.8378
Cl1 Cl 0.3131(2) 0.3987(2) 0.72082(17)
O29 O 0.3166(7) 0.3132(7) 0.7061(6)
O30 O 0.2896(7) 0.4094(7) 0.7778(5)
O31 O 0.3922(5) 0.4369(5) 0.7303(4)
O32 O 0.2577(7) 0.4348(10) 0.6641(7)
Cl1_2 Cl 0.6869(2) 0.3987(2) 0.77918(17)
O29_2 O 0.6834(7) 0.3132(7) 0.7939(6)
O30_2 O 0.7104(7) 0.4094(7) 0.7222(5)
O31_2 O 0.6078(5) 0.4369(5) 0.7697(4)
O32_2 O 0.7423(7) 0.4348(10) 0.8359(7)
Cl1_3 Cl 0.8131(2) 0.8987(2) 0.72082(17)
O29_3 O 0.8166(7) 0.8132(7) 0.7061(6)
O30_3 O 0.7896(7) 0.9094(7) 0.7778(5)
O31_3 O 0.8922(5) 0.9369(5) 0.7303(4)
O32_3 O 0.7577(7) 0.9348(10) 0.6641(7)
Cl1_4 Cl 0.1869(2) 0.8987(2) 0.77918(17)
O29_4 O 0.1834(7) 0.8132(7) 0.7939(6)
O30_4 O 0.2104(7) 0.9094(7) 0.7222(5)
O31_4 O 0.1078(5) 0.9369(5) 0.7697(4)
O32_4 O 0.2423(7) 0.9348(10) 0.8359(7)
Cl1_5 Cl 0.6869(2) 0.6013(2) 0.27918(17)
O29_5 O 0.6834(7) 0.6868(7) 0.2939(6)
O30_5 O 0.7104(7) 0.5906(7) 0.2222(5)
O31_5 O 0.6078(5) 0.5631(5) 0.2697(4)
O32_5 O 0.7423(7) 0.5652(10) 0.3359(7)
Cl1_6 Cl 0.3131(2) 0.6013(2) 0.22082(17)
O29_6 O 0.3166(7) 0.6868(7) 0.2061(6)
O30_6 O 0.2896(7) 0.5906(7) 0.2778(5)
O31_6 O 0.3922(5) 0.5631(5) 0.2303(4)
O32_6 O 0.2577(7) 0.5652(10) 0.1641(7)
Cl1_7 Cl 0.1869(2) 0.1013(2) 0.27918(17)
O29_7 O 0.1834(7) 0.1868(7) 0.2939(6)
O30_7 O 0.2104(7) 0.0906(7) 0.2222(5)
O31_7 O 0.1078(5) 0.0631(5) 0.2697(4)
O32_7 O 0.2423(7) 0.0652(10) 0.3359(7)
Cl1_8 Cl 0.8131(2) 0.1013(2) 0.22082(17)
O29_8 O 0.8166(7) 0.1868(7) 0.2061(6)
O30_8 O 0.7896(7) 0.0906(7) 0.2778(5)
O31_8 O 0.8922(5) 0.0631(5) 0.2303(4)
O32_8 O 0.7577(7) 0.0652(10) 0.1641(7)
loop_
_geom_bond_atom_site_label_1
_geom_bond_atom_site_label_2
_geom_bond_site_symmetry_1
_geom_bond_site_symmetry_2
H10 O7 1_555 1_555
H11 O7 1_555 1_555
Dy3 O2 1_555 1_555
C1 C14 1_555 1_555
C2 H1 1_555 1_555
C3 C2 1_555 1_555
C4 C3 1_555 1_555
H2 C4 1_555 1_555
C14 C4 1_555 1_555
C16 C2 1_555 1_555
H8 C16 1_555 1_555
C17 C1 1_555 1_555
H9 C17 1_555 1_555
C18 C3 1_555 1_555
N2 C14 1_555 1_555
O3 C18 1_555 1_555
C23 C26 1_555 1_555
C24 H16 1_555 1_555
C26 C25 1_555 1_555
C27 C24 1_555 1_555
H18 C27 1_555 1_555
C28 H19 1_555 1_555
C29 C24 1_555 1_555
C31 C29 1_555 1_555
C33 C26 1_555 1_555
H20 C33 1_555 1_555
Dy2 O9 1_555 1_555
Dy4 O3 1_555 1_555
N4 Zn1 1_555 1_555
N6 Zn1 1_555 1_555
O9 C23 1_555 1_555
O12 Dy2 1_555 1_555
O18 C31 1_555 1_555
O23 Dy2 1_555 1_555
O28 Dy2 1_555 1_555
H25 O28 1_555 1_555
H26 O28 1_555 1_555
C16 N2 1_555 1_555
N2 Zn1 1_555 1_555
O5 Dy6 1_555 1_555
C25 C30 1_555 1_555
C27 N6 1_555 1_555
C28 C33 1_555 1_555
C28 N4 1_555 1_555
C30 N4 1_555 1_555
O8 Dy1 1_555 1_555
H12 O8 1_555 1_555
H13 O8 1_555 1_555
O11 Dy1 1_555 1_555
O22 Dy1 1_555 1_555
C5 C8 1_555 1_555
C6 H3 1_555 1_555
C8 C7 1_555 1_555
C9 C6 1_555 1_555
H5 C9 1_555 1_555
C10 H6 1_555 1_555
C11 C6 1_555 1_555
C12 C7 1_555 1_555
C13 C11 1_555 1_555
C15 C8 1_555 1_555
H7 C15 1_555 1_555
N1 C10 1_555 1_555
O1 C5 1_555 1_555
O4 C13 1_555 1_555
Zn1_2 N1 1_555 1_555
C19 C32 1_555 1_555
C20 H14 1_555 1_555
C21 C20 1_555 1_555
C22 C21 1_555 1_555
H15 C22 1_555 1_555
C32 C22 1_555 1_555
C34 C20 1_555 1_555
H21 C34 1_555 1_555
C35 C19 1_555 1_555
H22 C35 1_555 1_555
C36 C21 1_555 1_555
Dy8 O10 1_555 1_555
Dy9 O13 1_555 1_555
N5 Zn1_2 1_555 1_555
O10 C36 1_555 1_555
O13 C36 1_555 1_555
H23 O27 1_555 1_555
H24 O27 1_555 1_555
C9 N3 1_555 1_555
C10 C15 1_555 1_555
C12 N1 1_555 1_555
N3 Zn1_2 1_555 1_555
C32 N5 1_555 1_555
C34 N5 1_555 1_555
Dy8 O13 1_555 1_555
Dy7 O21 1_555 1_555
O7_2 Dy3 1_555 1_555
H10_2 O7_2 1_555 1_555
H11_2 O7_2 1_555 1_555
O8_2 Dy3 1_555 1_555
H12_2 O8_2 1_555 1_555
H13_2 O8_2 1_555 1_555
O14_2 Dy3 1_555 1_555
O19_2 Dy3 1_555 1_555
O22_2 Dy3 1_555 1_555
O25_2 Dy3 1_555 1_555
C2_2 H1_2 1_555 1_555
C3_2 C2_2 1_555 1_555
C5_2 C8_2 1_555 1_555
C7_2 H4_2 1_555 1_555
C8_2 C7_2 1_555 1_555
C10_2 H6_2 1_555 1_555
C12_2 C7_2 1_555 1_555
C15_2 C8_2 1_555 1_555
H7_2 C15_2 1_555 1_555
C16_2 C2_2 1_555 1_555
H8_2 C16_2 1_555 1_555
N1_2 C10_2 1_555 1_555
O1_2 C5_2 1_555 1_555
O6_2 C5_2 1_555 1_555
Zn1_3 N1_2 1_555 1_555
C20_2 H14_2 1_555 1_555
C21_2 C20_2 1_555 1_555
C23_2 C26_2 1_555 1_555
C25_2 H17_2 1_555 1_555
C26_2 C25_2 1_555 1_555
C28_2 H19_2 1_555 1_555
C30_2 C12_2 1_555 1_555
C33_2 C26_2 1_555 1_555
H20_2 C33_2 1_555 1_555
C34_2 C20_2 1_555 1_555
H21_2 C34_2 1_555 1_555
Dy8 O9_2 1_555 1_555
Dy4 O6_2 1_555 1_555
Dy9 O16_2 1_555 1_555
N4_2 Zn1_3 1_555 1_555
N5_2 Zn1_3 1_555 1_555
O9_2 C23_2 1_555 1_555
O16_2 Dy8 1_555 1_555
O20_2 Dy8 1_555 1_555
O23_2 Dy8 1_555 1_555
O24_2 C23_2 1_555 1_555
O26_2 Dy8 1_555 1_555
O27_2 Dy8 1_555 1_555
H23_2 O27_2 1_555 1_555
H24_2 O27_2 1_555 1_555
O28_2 Dy8 1_555 1_555
H25_2 O28_2 1_555 1_555
H26_2 O28_2 1_555 1_555
C10_2 C15_2 1_555 1_555
C12_2 N1_2 1_555 1_555
C16_2 N2_2 1_555 1_555
N2_2 Zn1_3 1_555 1_555
C25_2 C30_2 1_555 1_555
C28_2 C33_2 1_555 1_555
C28_2 N4_2 1_555 1_555
C30_2 N4_2 1_555 1_555
C34_2 N5_2 1_555 1_555
Dy9 O24_2 1_555 1_555
C1_2 C14_2 1_555 1_555
H2_2 C4_2 1_555 1_555
C6_2 H3_2 1_555 1_555
C9_2 C6_2 1_555 1_555
H5_2 C9_2 1_555 1_555
C11_2 C6_2 1_555 1_555
C13_2 C11_2 1_555 1_555
C14_2 C4_2 1_555 1_555
C17_2 C1_2 1_555 1_555
H9_2 C17_2 1_555 1_555
N3_2 C1_2 1_555 1_555
O4_2 C13_2 1_555 1_555
O5_2 C13_2 1_555 1_555
C19_2 C32_2 1_555 1_555
H15_2 C22_2 1_555 1_555
C24_2 H16_2 1_555 1_555
C27_2 C24_2 1_555 1_555
H18_2 C27_2 1_555 1_555
C29_2 C24_2 1_555 1_555
C31_2 C29_2 1_555 1_555
C32_2 C22_2 1_555 1_555
C35_2 C19_2 1_555 1_555
H22_2 C35_2 1_555 1_555
Dy4 O4_2 1_555 1_555
Dy9 O18_2 1_555 1_555
O12 C36_2 1_555 1_555
O18_2 C31_2 1_555 1_555
O21_2 C31_2 1_555 1_555
C9_2 N3_2 1_555 1_555
C11_2 C17_2 1_555 1_555
O5_2 Dy4 1_555 1_555
C19_2 N6_2 1_555 1_555
C27_2 N6_2 1_555 1_555
C29_2 C35_2 1_555 1_555
Dy9 O21_2 1_555 1_555
C5_3 C8_3 1_555 1_555
C6_3 H3_3 1_555 1_555
C8_3 C7_3 1_555 1_555
C9_3 C6_3 1_555 1_555
H5_3 C9_3 1_555 1_555
C10_3 H6_3 1_555 1_555
C11_3 C6_3 1_555 1_555
C12_3 C7_3 1_555 1_555
C13_3 C11_3 1_555 1_555
C15_3 C8_3 1_555 1_555
H7_3 C15_3 1_555 1_555
N1_3 C10_3 1_555 1_555
O1_3 C5_3 1_555 1_555
O19 C13_3 1_555 1_555
Zn1_4 N1_3 1_555 1_555
C19_3 C32_3 1_555 1_555
C20_3 H14_3 1_555 1_555
C21_3 C20_3 1_555 1_555
C22_3 C21_3 1_555 1_555
H15_3 C22_3 1_555 1_555
C32_3 C22_3 1_555 1_555
C34_3 C20_3 1_555 1_555
H21_3 C34_3 1_555 1_555
C35_3 C19_3 1_555 1_555
H22_3 C35_3 1_555 1_555
C36_3 C21_3 1_555 1_555
Dy9 O10_2 1_555 1_555
N5_3 Zn1_4 1_555 1_555
O10_2 C36_3 1_555 1_555
O16_2 C36_3 1_555 1_555
H23_3 O27_3 1_555 1_555
H24_3 O27_3 1_555 1_555
C9_3 N3_3 1_555 1_555
C10_3 C15_3 1_555 1_555
C12_3 N1_3 1_555 1_555
N3_3 Zn1_4 1_555 1_555
C32_3 N5_3 1_555 1_555
C34_3 N5_3 1_555 1_555
O8_3 Dy6 1_555 1_555
H12_3 O8_3 1_555 1_555
H13_3 O8_3 1_555 1_555
O11_2 Dy6 1_555 1_555
C1_3 C14_3 1_555 1_555
C2_3 H1_3 1_555 1_555
C3_3 C2_3 1_555 1_555
C4_3 C3_3 1_555 1_555
H2_3 C4_3 1_555 1_555
C14_3 C4_3 1_555 1_555
C16_3 C2_3 1_555 1_555
H8_3 C16_3 1_555 1_555
C17_3 C1_3 1_555 1_555
H9_3 C17_3 1_555 1_555
C18_3 C3_3 1_555 1_555
N2_3 C14_3 1_555 1_555
O14_2 C18_3 1_555 1_555
C23_3 C26_3 1_555 1_555
C24_3 H16_3 1_555 1_555
C26_3 C25_3 1_555 1_555
C27_3 C24_3 1_555 1_555
H18_3 C27_3 1_555 1_555
C28_3 H19_3 1_555 1_555
C29_3 C24_3 1_555 1_555
C31_3 C29_3 1_555 1_555
C33_3 C26_3 1_555 1_555
H20_3 C33_3 1_555 1_555
Dy7 O9_3 1_555 1_555
N4_3 Zn1_5 1_555 1_555
N6_3 Zn1_5 1_555 1_555
O9_3 C23_3 1_555 1_555
O12_2 Dy7 1_555 1_555
O20 C31_3 1_555 1_555
O28_3 Dy7 1_555 1_555
H25_3 O28_3 1_555 1_555
H26_3 O28_3 1_555 1_555
C16_3 N2_3 1_555 1_555
N2_3 Zn1_5 1_555 1_555
C25_3 C30_3 1_555 1_555
C27_3 N6_3 1_555 1_555
C28_3 C33_3 1_555 1_555
C28_3 N4_3 1_555 1_555
C30_3 N4_3 1_555 1_555
H10_3 O7_3 1_555 1_555
H11_3 O7_3 1_555 1_555
Dy4 O2_2 1_555 1_555
C1_4 C14_4 1_555 1_555
H2_4 C4_4 1_555 1_555
C6_4 H3_4 1_555 1_555
C9_4 C6_4 1_555 1_555
H5_4 C9_4 1_555 1_555
C11_4 C6_4 1_555 1_555
C13_4 C11_4 1_555 1_555
C14_4 C4_4 1_555 1_555
C17_4 C1_4 1_555 1_555
H9_4 C17_4 1_555 1_555
N3_4 C1_4 1_555 1_555
O19_2 C13_4 1_555 1_555
O22_2 C13_4 1_555 1_555
C19_4 C32_4 1_555 1_555
H15_4 C22_4 1_555 1_555
C24_4 H16_4 1_555 1_555
C27_4 C24_4 1_555 1_555
H18_4 C27_4 1_555 1_555
C29_4 C24_4 1_555 1_555
C31_4 C29_4 1_555 1_555
C32_4 C22_4 1_555 1_555
C35_4 C19_4 1_555 1_555
H22_4 C35_4 1_555 1_555
O12_2 C36_4 1_555 1_555
O20_2 C31_4 1_555 1_555
O23_2 C31_4 1_555 1_555
C9_4 N3_4 1_555 1_555
C11_4 C17_4 1_555 1_555
C19_4 N6_4 1_555 1_555
C27_4 N6_4 1_555 1_555
C29_4 C35_4 1_555 1_555
C2_4 H1_4 1_555 1_555
C3_4 C2_4 1_555 1_555
C5_4 C8_4 1_555 1_555
C7_4 H4_4 1_555 1_555
C8_4 C7_4 1_555 1_555
C10_4 H6_4 1_555 1_555
C12_4 C7_4 1_555 1_555
C15_4 C8_4 1_555 1_555
H7_4 C15_4 1_555 1_555
C16_4 C2_4 1_555 1_555
H8_4 C16_4 1_555 1_555
N1_4 C10_4 1_555 1_555
O1_4 C5_4 1_555 1_555
O25_2 C5_4 1_555 1_555
Zn1_6 N1_4 1_555 1_555
C20_4 H14_4 1_555 1_555
C21_4 C20_4 1_555 1_555
C23_4 C26_4 1_555 1_555
C25_4 H17_4 1_555 1_555
C26_4 C25_4 1_555 1_555
C28_4 H19_4 1_555 1_555
C30_4 C12_4 1_555 1_555
C33_4 C26_4 1_555 1_555
H20_4 C33_4 1_555 1_555
C34_4 C20_4 1_555 1_555
H21_4 C34_4 1_555 1_555
Dy9 O9_4 1_555 1_555
N4_4 Zn1_6 1_555 1_555
N5_4 Zn1_6 1_555 1_555
O9_4 C23_4 1_555 1_555
O26_2 C23_4 1_555 1_555
O27_4 Dy9 1_555 1_555
H23_4 O27_4 1_555 1_555
H24_4 O27_4 1_555 1_555
O28_4 Dy9 1_555 1_555
H25_4 O28_4 1_555 1_555
H26_4 O28_4 1_555 1_555
C10_4 C15_4 1_555 1_555
C12_4 N1_4 1_555 1_555
C16_4 N2_4 1_555 1_555
N2_4 Zn1_6 1_555 1_555
C25_4 C30_4 1_555 1_555
C28_4 C33_4 1_555 1_555
C28_4 N4_4 1_555 1_555
C30_4 N4_4 1_555 1_555
C34_4 N5_4 1_555 1_555
O7_4 Dy4 1_555 1_555
H10_4 O7_4 1_555 1_555
H11_4 O7_4 1_555 1_555
O8_4 Dy4 1_555 1_555
H12_4 O8_4 1_555 1_555
H13_4 O8_4 1_555 1_555
Cl1 O29 1_555 1_555
O30 Cl1 1_555 1_555
O31 Cl1 1_555 1_555
O32 Cl1 1_555 1_555
Cl1_2 O29_2 1_555 1_555
O30_2 Cl1_2 1_555 1_555
O31_2 Cl1_2 1_555 1_555
O32_2 Cl1_2 1_555 1_555
Cl1_3 O29_3 1_555 1_555
O30_3 Cl1_3 1_555 1_555
O31_3 Cl1_3 1_555 1_555
O32_3 Cl1_3 1_555 1_555
Cl1_4 O29_4 1_555 1_555
O30_4 Cl1_4 1_555 1_555
O31_4 Cl1_4 1_555 1_555
O32_4 Cl1_4 1_555 1_555
Cl1_5 O29_5 1_555 1_555
O30_5 Cl1_5 1_555 1_555
O31_5 Cl1_5 1_555 1_555
O32_5 Cl1_5 1_555 1_555
Cl1_6 O29_6 1_555 1_555
O30_6 Cl1_6 1_555 1_555
O31_6 Cl1_6 1_555 1_555
O32_6 Cl1_6 1_555 1_555
Cl1_7 O29_7 1_555 1_555
O30_7 Cl1_7 1_555 1_555
O31_7 Cl1_7 1_555 1_555
O32_7 Cl1_7 1_555 1_555
Cl1_8 O29_8 1_555 1_555
O30_8 Cl1_8 1_555 1_555
O31_8 Cl1_8 1_555 1_555
O32_8 Cl1_8 1_555 1_555

#END
