
###############################################################################
#
# This file contains modified crystal structure data generated from the
# MOF subset of the Cambridge Structural Database (CSD) v543 
# hosted by the Cambridge Crystallographic Data Centre (CCDC).
#
# This work is licensed under the Creative Commons
# Attribution-NonCommercial-ShareAlike 4.0 International License.
# To view a copy of this license, visit
# http://creativecommons.org/licenses/by-nc-sa/4.0/
# or send a letter to
# Creative Commons, PO Box 1866, Mountain View, CA 94042, USA.
#
# CIF created using the CSD Python API on 29 September 2022
# The structure has been converted into the P1 space group
# The structure has a 3D framework
# The original CSD entry VEDFAN is in the orthorhombic crystal system
# The original CSD entry VEDFAN is in a Sohncke space group
# The framework has been calculated to contain at least 10.0% void space
# The void calculation uses a probe of radius 1.32A, grid spacing 0.4
#
###############################################################################

data_VEDFAN
_chemical_formula_moiety         '(C96 H72 Co8 N16 O34)n'
_symmetry_cell_setting           triclinic
_symmetry_space_group_name_H-M   'P 1'
_symmetry_Int_Tables_number      1
_space_group_name_Hall           'P 1'
loop_
_symmetry_equiv_pos_site_id
_symmetry_equiv_pos_as_xyz
1 x,y,z
_cell_length_a                   11.4398(2)
_cell_length_b                   13.2955(2)
_cell_length_c                   26.2483(4)
_cell_angle_alpha                90
_cell_angle_beta                 90
_cell_angle_gamma                90
_cell_volume                     3992.31
loop_
_atom_site_label
_atom_site_type_symbol
_atom_site_fract_x
_atom_site_fract_y
_atom_site_fract_z
Co5 Co 0.18203(3) 0.06246(3) 0.080004(13)
N2 N 0.2724(2) 0.9646(2) 0.02401(9)
N3 N 0.2581(2) 0.1920(2) 0.04443(9)
H9 H 0.5250 0.8686 0.0014
C11 C 0.3881(3) 0.9510(3) 0.02557(12)
H10 H 0.4325 0.9932 0.0462
C23 C 0.3492(3) 0.2412(3) 0.06360(12)
H17 H 0.3739 0.2247 0.0963
C24 C 0.4088(3) 0.3148(3) 0.03784(11)
H18 H 0.4738 0.3451 0.0526
Co1 Co 0.42584(3) 0.55776(3) 0.862950(13)
Co2 Co 0.68203(3) 0.43754(3) 0.919996(13)
O1 O 0.60973(16) 0.57366(16) 0.88569(7)
H1 H 0.6558 0.5911 0.8559
H2 H 0.6163 0.6285 0.9099
O2 O 0.47217(19) 0.43998(19) 0.81859(7)
O3 O 0.60128(18) 0.34885(16) 0.86403(8)
O4 O 0.38427(18) 0.46036(17) 0.92300(8)
O5 O 0.54412(16) 0.43199(17) 0.96993(7)
O8 O 0.5500(2) 0.7282(2) 0.94033(9)
O9 O 0.37940(19) 0.68142(17) 0.90739(8)
N1 N 0.2421(2) 0.5412(2) 0.84391(9)
N4 N 0.5520(2) 0.15779(19) 0.70055(9)
C1 C 0.1889(3) 0.4527(2) 0.84816(11)
H3 H 0.2348 0.3950 0.8502
C2 C 0.0684(3) 0.4422(3) 0.84965(11)
H4 H 0.0345 0.3791 0.8537
C4 C 0.0538(3) 0.6176(3) 0.83719(13)
H5 H 0.0099 0.6753 0.8315
C5 C 0.1754(3) 0.6219(3) 0.83791(13)
H6 H 0.2114 0.6841 0.8340
C7 C 0.2121(3) 0.9067(3) 0.99214(12)
H7 H 0.1318 0.9164 0.9896
C8 C 0.2632(3) 0.8326(3) 0.96253(13)
H8 H 0.2175 0.7939 0.9407
C9 C 0.3820(3) 0.8163(3) 0.96557(12)
C10 C 0.4447(3) 0.8772(3) 0.99805(12)
C12 C 0.4428(3) 0.7353(2) 0.93526(12)
C13 C 0.5393(3) 0.3671(2) 0.82580(11)
C14 C 0.5456(3) 0.2931(2) 0.78220(11)
C15 C 0.5991(3) 0.2003(2) 0.78688(11)
H11 H 0.6348 0.1820 0.8173
C16 C 0.5989(3) 0.1354(3) 0.74608(11)
H12 H 0.6332 0.0725 0.7502
C17 C 0.5018(3) 0.2478(3) 0.69661(12)
H13 H 0.4690 0.2651 0.6654
C18 C 0.4952(3) 0.3168(3) 0.73538(11)
H14 H 0.4577 0.3782 0.7305
C19 C 0.4380(3) 0.4194(2) 0.95803(10)
C20 C 0.3723(3) 0.3437(2) 0.99013(11)
C21 C 0.2742(3) 0.2973(3) 0.97090(13)
H15 H 0.2434 0.3174 0.9397
C22 C 0.2221(4) 0.2212(3) 0.99802(14)
H16 H 0.1586 0.1882 0.9835
Co3 Co 0.57416(3) 0.05776(3) 0.637050(13)
O10 O 0.82824(17) 0.44659(17) 0.87358(7)
N5 N 0.7724(2) 0.5354(2) 0.97599(9)
N6 N 0.7581(2) 0.3080(2) 0.95557(9)
N7 N 0.4480(2) 0.65779(19) 0.79945(9)
O7 O 0.8091(2) 0.5958(2) 0.83628(10)
C3 C 0.9998(3) 0.5266(3) 0.84509(12)
C6 C 0.8666(3) 0.5227(3) 0.85122(12)
Co1_2 Co 0.07416(3) 0.44224(3) 0.362950(13)
O2_2 O 0.02783(19) 0.56002(19) 0.31859(7)
O4_2 O 0.11573(18) 0.53964(17) 0.42300(8)
O6 O 0.67176(17) 0.55341(17) 0.37358(7)
O7_2 O 0.6909(2) 0.4042(2) 0.33628(10)
O9_2 O 0.12060(19) 0.31858(17) 0.40739(8)
N1_2 N 0.2579(2) 0.4588(2) 0.34391(9)
N2_2 N 0.2276(2) 0.0354(2) 0.52401(9)
N3_2 N 0.2419(2) 0.8080(2) 0.54443(9)
C1_2 C 0.3111(3) 0.5473(2) 0.34816(11)
H3_2 H 0.2652 0.6050 0.3502
C2_2 C 0.4316(3) 0.5578(3) 0.34965(11)
H4_2 H 0.4655 0.6209 0.3537
C3_2 C 0.5002(3) 0.4734(3) 0.34509(12)
C4_2 C 0.4462(3) 0.3824(3) 0.33719(13)
H5_2 H 0.4901 0.3247 0.3315
C5_2 C 0.3246(3) 0.3781(3) 0.33791(13)
H6_2 H 0.2886 0.3159 0.3340
C6_2 C 0.6334(3) 0.4773(3) 0.35122(12)
C7_2 C 0.2879(3) 0.0933(3) 0.49214(12)
H7_2 H 0.3682 0.0836 0.4896
C8_2 C 0.2368(3) 0.1674(3) 0.46253(13)
H8_2 H 0.2825 0.2061 0.4407
C9_2 C 0.1180(3) 0.1837(3) 0.46557(12)
C10_2 C 0.0553(3) 0.1228(3) 0.49805(12)
C11_2 C 0.1119(3) 0.0490(3) 0.52557(12)
H10_2 H 0.0675 0.0068 0.5462
C12_2 C 0.0572(3) 0.2647(2) 0.43526(12)
H13_2 H 0.0310 0.7349 0.1654
C18_2 C 0.0048(3) 0.6832(3) 0.23538(11)
H14_2 H 0.0423 0.6218 0.2305
C19_2 C 0.0620(3) 0.5806(2) 0.45803(10)
C20_2 C 0.1277(3) 0.6563(2) 0.49013(11)
C21_2 C 0.2258(3) 0.7027(3) 0.47090(13)
H15_2 H 0.2566 0.6826 0.4397
C22_2 C 0.2779(4) 0.7788(3) 0.49802(14)
H16_2 H 0.3414 0.8118 0.4835
C23_2 C 0.1508(3) 0.7588(3) 0.56360(12)
H17_2 H 0.1261 0.7753 0.5963
C24_2 C 0.0912(3) 0.6852(3) 0.53784(11)
H18_2 H 0.0262 0.6549 0.5526
Co4 Co 0.81797(3) 0.56246(3) 0.419996(13)
Co6 Co 0.31797(3) 0.93754(3) 0.580004(13)
N7_2 N 0.0520(2) 0.34221(19) 0.29945(9)
O1_2 O 0.89027(16) 0.42634(16) 0.38569(7)
H1_2 H 0.8442 0.4089 0.3559
H2_2 H 0.8837 0.3715 0.4099
O3_2 O 0.89872(18) 0.65115(16) 0.36403(8)
O5_2 O 0.95588(16) 0.56801(17) 0.46993(7)
O8_2 O 0.9500(2) 0.2718(2) 0.44033(9)
N4_2 N 0.9480(2) 0.84221(19) 0.20055(9)
H9_2 H 0.9750 0.1314 0.5014
C13_2 C 0.9607(3) 0.6329(2) 0.32580(11)
C14_2 C 0.9544(3) 0.7069(2) 0.28220(11)
C15_2 C 0.9009(3) 0.7997(2) 0.28688(11)
H11_2 H 0.8652 0.8180 0.3173
C16_2 C 0.9011(3) 0.8646(3) 0.24608(11)
H12_2 H 0.8668 0.9275 0.2502
C17_2 C 0.9982(3) 0.7522(3) 0.19661(12)
Co3_2 Co 0.92584(3) 0.94224(3) 0.137050(13)
N5_2 N 0.7276(2) 0.4646(2) 0.47599(9)
N6_2 N 0.7419(2) 0.6920(2) 0.45557(9)
O3_3 O 0.10128(18) 0.15115(16) 0.13597(8)
O5_3 O 0.04412(16) 0.06801(17) 0.03007(7)
C13_3 C 0.0393(3) 0.1329(2) 0.17420(11)
C14_3 C 0.0456(3) 0.2069(2) 0.21780(11)
C15_3 C 0.0991(3) 0.2997(2) 0.21312(11)
H11_3 H 0.1348 0.3180 0.1827
C16_3 C 0.0989(3) 0.3646(3) 0.25392(11)
H12_3 H 0.1332 0.4275 0.2498
C17_3 C 0.0018(3) 0.2522(3) 0.30339(12)
O10_2 O 0.32824(17) 0.05341(17) 0.12642(7)
O1_3 O 0.10973(16) 0.92634(16) 0.11431(7)
H1_3 H 0.1558 0.9089 0.1441
H2_3 H 0.1163 0.8715 0.0901
O8_3 O 0.0500(2) 0.7718(2) 0.05967(9)
O2_3 O 0.97217(19) 0.06002(19) 0.18141(7)
O4_3 O 0.88427(18) 0.03964(17) 0.07700(8)
C1_3 C 0.6889(3) 0.0473(2) 0.15184(11)
H3_3 H 0.7348 0.1050 0.1498
C2_3 C 0.5684(3) 0.0578(3) 0.15035(11)
H4_3 H 0.5345 0.1209 0.1463
H13_3 H 0.9690 0.2349 0.3346
C18_3 C 0.9952(3) 0.1832(3) 0.26462(11)
H14_3 H 0.9577 0.1218 0.2695
C19_3 C 0.9380(3) 0.0806(2) 0.04197(10)
C20_3 C 0.8723(3) 0.1563(2) 0.00987(11)
C21_3 C 0.7742(3) 0.2027(3) 0.02910(13)
H15_3 H 0.7434 0.1826 0.0603
C22_3 C 0.7221(4) 0.2788(3) 0.00198(14)
H16_3 H 0.6586 0.3118 0.0165
C23_3 C 0.8492(3) 0.2588(3) 0.93640(12)
H17_3 H 0.8739 0.2753 0.9037
C24_3 C 0.9088(3) 0.1852(3) 0.96216(11)
H18_3 H 0.9738 0.1549 0.9474
O7_3 O 0.3091(2) 0.9042(2) 0.16372(10)
O9_3 O 0.87940(19) 0.81858(17) 0.09261(8)
N1_3 N 0.7421(2) 0.9588(2) 0.15609(9)
C3_3 C 0.4998(3) 0.9734(3) 0.15491(12)
C4_3 C 0.5538(3) 0.8824(3) 0.16281(13)
H5_3 H 0.5099 0.8247 0.1685
C5_3 C 0.6754(3) 0.8781(3) 0.16209(13)
H6_3 H 0.7114 0.8159 0.1660
C6_3 C 0.3666(3) 0.9773(3) 0.14878(12)
C7_3 C 0.7121(3) 0.5933(3) 0.00786(12)
H7_3 H 0.6318 0.5836 0.0104
C8_3 C 0.7632(3) 0.6674(3) 0.03747(13)
H8_3 H 0.7175 0.7061 0.0593
C9_3 C 0.8820(3) 0.6837(3) 0.03443(12)
C10_3 C 0.9447(3) 0.6228(3) 0.00195(12)
C12_3 C 0.9428(3) 0.7647(2) 0.06474(12)
C11_3 C 0.8881(3) 0.5490(3) 0.97443(12)
H10_3 H 0.9325 0.5068 0.9538
O6_2 O 0.17176(17) 0.94659(17) 0.62642(7)
O1_4 O 0.39027(16) 0.07366(16) 0.61431(7)
H1_4 H 0.3442 0.0911 0.6441
H2_4 H 0.3837 0.1285 0.5901
O8_4 O 0.4500(2) 0.2282(2) 0.55967(9)
O9_4 O 0.62060(19) 0.18142(17) 0.59261(8)
N1_4 N 0.7579(2) 0.0412(2) 0.65609(9)
C4_4 C 0.9462(3) 0.1176(3) 0.66281(13)
H5_4 H 0.9901 0.1753 0.6685
C5_4 C 0.8246(3) 0.1219(3) 0.66209(13)
H6_4 H 0.7886 0.1841 0.6660
C7_4 C 0.7879(3) 0.4067(3) 0.50786(12)
H7_4 H 0.8682 0.4164 0.5104
C8_4 C 0.7368(3) 0.3326(3) 0.53747(13)
H8_4 H 0.7825 0.2939 0.5593
C9_4 C 0.6180(3) 0.3163(3) 0.53443(12)
C10_4 C 0.5553(3) 0.3772(3) 0.50195(12)
H9_3 H 0.4750 0.3686 0.4986
C11_4 C 0.6119(3) 0.4510(3) 0.47443(12)
H10_4 H 0.5675 0.4932 0.4538
C12_4 C 0.5572(3) 0.2353(2) 0.56474(12)
O2_4 O 0.52783(19) 0.93998(19) 0.68141(7)
O3_4 O 0.39872(18) 0.84885(16) 0.63597(8)
O4_4 O 0.61573(18) 0.96036(17) 0.57700(8)
O5_4 O 0.45588(16) 0.93199(17) 0.53007(7)
C1_4 C 0.8111(3) 0.9527(2) 0.65184(11)
H3_4 H 0.7652 0.8950 0.6498
C2_4 C 0.9316(3) 0.9422(3) 0.65035(11)
H4_4 H 0.9655 0.8791 0.6463
C13_4 C 0.4607(3) 0.8671(2) 0.67420(11)
C14_4 C 0.4544(3) 0.7931(2) 0.71780(11)
C15_4 C 0.4009(3) 0.7003(2) 0.71312(11)
H11_4 H 0.3652 0.6820 0.6827
C16_4 C 0.4011(3) 0.6354(3) 0.75392(11)
H12_4 H 0.3668 0.5725 0.7498
C17_4 C 0.4982(3) 0.7478(3) 0.80339(12)
H13_4 H 0.5310 0.7651 0.8346
C18_4 C 0.5048(3) 0.8168(3) 0.76462(11)
H14_4 H 0.5423 0.8782 0.7695
C19_4 C 0.5620(3) 0.9194(2) 0.54197(10)
C20_4 C 0.6277(3) 0.8437(2) 0.50987(11)
C21_4 C 0.7258(3) 0.7973(3) 0.52910(13)
H15_4 H 0.7566 0.8174 0.5603
C22_4 C 0.7779(4) 0.7212(3) 0.50198(14)
H16_4 H 0.8414 0.6882 0.5165
C23_4 C 0.6508(3) 0.7412(3) 0.43640(12)
H17_4 H 0.6261 0.7247 0.4037
C24_4 C 0.5912(3) 0.8148(3) 0.46216(11)
H18_4 H 0.5262 0.8451 0.4474
H9_4 H 0.0250 0.6314 0.9986
O7_4 O 0.1909(2) 0.0958(2) 0.66372(10)
C3_4 C 0.0002(3) 0.0266(3) 0.65491(12)
C6_4 C 0.1334(3) 0.0227(3) 0.64878(12)
loop_
_geom_bond_atom_site_label_1
_geom_bond_atom_site_label_2
_geom_bond_site_symmetry_1
_geom_bond_site_symmetry_2
C11 N2 1_555 1_555
H10 C11 1_555 1_555
C23 N3 1_555 1_555
H17 C23 1_555 1_555
H18 C24 1_555 1_555
Co5 N3 1_555 1_555
C23 C24 1_555 1_555
Co1 O1 1_555 1_555
Co2 O1 1_555 1_555
O1 H1 1_555 1_555
H2 O1 1_555 1_555
O2 Co1 1_555 1_555
O3 Co2 1_555 1_555
O4 Co1 1_555 1_555
O5 Co2 1_555 1_555
O8 C12 1_555 1_555
O9 Co1 1_555 1_555
N1 Co1 1_555 1_555
N4 C16 1_555 1_555
C1 N1 1_555 1_555
H3 C1 1_555 1_555
C2 C1 1_555 1_555
H4 C2 1_555 1_555
H5 C4 1_555 1_555
C5 N1 1_555 1_555
H6 C5 1_555 1_555
C7 H7 1_555 1_555
C8 C7 1_555 1_555
H8 C8 1_555 1_555
C9 C8 1_555 1_555
C10 C9 1_555 1_555
C12 O9 1_555 1_555
C13 O2 1_555 1_555
C14 C13 1_555 1_555
C15 C14 1_555 1_555
H11 C15 1_555 1_555
C16 C15 1_555 1_555
H12 C16 1_555 1_555
C17 N4 1_555 1_555
H13 C17 1_555 1_555
C18 C14 1_555 1_555
H14 C18 1_555 1_555
C19 O4 1_555 1_555
C20 C19 1_555 1_555
C21 C20 1_555 1_555
H15 C21 1_555 1_555
C22 C21 1_555 1_555
H16 C22 1_555 1_555
Co3 N4 1_555 1_555
O10 Co2 1_555 1_555
N5 Co2 1_555 1_555
N6 Co2 1_555 1_555
N7 Co1 1_555 1_555
O3 C13 1_555 1_555
O5 C19 1_555 1_555
C4 C5 1_555 1_555
C9 C12 1_555 1_555
C17 C18 1_555 1_555
O10 C6 1_555 1_555
O7 C6 1_555 1_555
C6 C3 1_555 1_555
O2_2 Co1_2 1_555 1_555
O4_2 Co1_2 1_555 1_555
O6 C6_2 1_555 1_555
O7_2 C6_2 1_555 1_555
O9_2 Co1_2 1_555 1_555
N1_2 Co1_2 1_555 1_555
N2_2 C7_2 1_555 1_555
N3_2 C22_2 1_555 1_555
C1_2 N1_2 1_555 1_555
H3_2 C1_2 1_555 1_555
C2_2 C1_2 1_555 1_555
H4_2 C2_2 1_555 1_555
C3_2 C2_2 1_555 1_555
C4_2 C3_2 1_555 1_555
H5_2 C4_2 1_555 1_555
C5_2 N1_2 1_555 1_555
H6_2 C5_2 1_555 1_555
C6_2 C3_2 1_555 1_555
C7_2 H7_2 1_555 1_555
C8_2 C7_2 1_555 1_555
H8_2 C8_2 1_555 1_555
C9_2 C8_2 1_555 1_555
C10_2 C9_2 1_555 1_555
C11_2 N2_2 1_555 1_555
H10_2 C11_2 1_555 1_555
C12_2 O9_2 1_555 1_555
H14_2 C18_2 1_555 1_555
C19_2 O4_2 1_555 1_555
C20_2 C19_2 1_555 1_555
C21_2 C20_2 1_555 1_555
H15_2 C21_2 1_555 1_555
C22_2 C21_2 1_555 1_555
H16_2 C22_2 1_555 1_555
C23_2 N3_2 1_555 1_555
H17_2 C23_2 1_555 1_555
C24_2 C20_2 1_555 1_555
H18_2 C24_2 1_555 1_555
Co4 O6 1_555 1_555
Co6 N3_2 1_555 1_555
N7_2 Co1_2 1_555 1_555
C4_2 C5_2 1_555 1_555
C9_2 C12_2 1_555 1_555
C10_2 C11_2 1_555 1_555
C23_2 C24_2 1_555 1_555
Co4 O1_2 1_555 1_555
O1_2 H1_2 1_555 1_555
H2_2 O1_2 1_555 1_555
O3_2 Co4 1_555 1_555
O5_2 Co4 1_555 1_555
N4_2 C16_2 1_555 1_555
C14_2 C13_2 1_555 1_555
C15_2 C14_2 1_555 1_555
H11_2 C15_2 1_555 1_555
C16_2 C15_2 1_555 1_555
H12_2 C16_2 1_555 1_555
C17_2 N4_2 1_555 1_555
Co3_2 N4_2 1_555 1_555
N5_2 Co4 1_555 1_555
N6_2 Co4 1_555 1_555
O3_2 C13_2 1_555 1_555
O3_3 Co5 1_555 1_555
O5_3 Co5 1_555 1_555
N7_2 C16_3 1_555 1_555
C14_3 C13_3 1_555 1_555
C15_3 C14_3 1_555 1_555
H11_3 C15_3 1_555 1_555
C16_3 C15_3 1_555 1_555
H12_3 C16_3 1_555 1_555
C17_3 N7_2 1_555 1_555
O10_2 Co5 1_555 1_555
O3_3 C13_3 1_555 1_555
O1_3 H1_3 1_555 1_555
H2_3 O1_3 1_555 1_555
H3_3 C1_3 1_555 1_555
C2_3 C1_3 1_555 1_555
H4_3 C2_3 1_555 1_555
H14_3 C18_3 1_555 1_555
C19_3 O4_3 1_555 1_555
C20_3 C19_3 1_555 1_555
C21_3 C20_3 1_555 1_555
H15_3 C21_3 1_555 1_555
C22_3 C21_3 1_555 1_555
H16_3 C22_3 1_555 1_555
C23_3 N6 1_555 1_555
H17_3 C23_3 1_555 1_555
H18_3 C24_3 1_555 1_555
C23_3 C24_3 1_555 1_555
O7_3 C6_3 1_555 1_555
O9_3 Co3_2 1_555 1_555
N1_3 Co3_2 1_555 1_555
C4_3 C3_3 1_555 1_555
H5_3 C4_3 1_555 1_555
C5_3 N1_3 1_555 1_555
H6_3 C5_3 1_555 1_555
C6_3 C3_3 1_555 1_555
C7_3 H7_3 1_555 1_555
C8_3 C7_3 1_555 1_555
H8_3 C8_3 1_555 1_555
C9_3 C8_3 1_555 1_555
C10_3 C9_3 1_555 1_555
C12_3 O9_3 1_555 1_555
C4_3 C5_3 1_555 1_555
C9_3 C12_3 1_555 1_555
C11_3 N5 1_555 1_555
H10_3 C11_3 1_555 1_555
Co6 O6_2 1_555 1_555
Co3 O1_4 1_555 1_555
O1_4 H1_4 1_555 1_555
H2_4 O1_4 1_555 1_555
O8_4 C12_4 1_555 1_555
O9_4 Co3 1_555 1_555
N1_4 Co3 1_555 1_555
N5_2 C7_4 1_555 1_555
H5_4 C4_4 1_555 1_555
C5_4 N1_4 1_555 1_555
H6_4 C5_4 1_555 1_555
C7_4 H7_4 1_555 1_555
C8_4 C7_4 1_555 1_555
H8_4 C8_4 1_555 1_555
C9_4 C8_4 1_555 1_555
C10_4 C9_4 1_555 1_555
H9_3 C10_4 1_555 1_555
C11_4 N5_2 1_555 1_555
H10_4 C11_4 1_555 1_555
C12_4 O9_4 1_555 1_555
C4_4 C5_4 1_555 1_555
C9_4 C12_4 1_555 1_555
C10_4 C11_4 1_555 1_555
O3_4 Co6 1_555 1_555
O5_4 Co6 1_555 1_555
N6_2 C22_4 1_555 1_555
N7 C16_4 1_555 1_555
H3_4 C1_4 1_555 1_555
C2_4 C1_4 1_555 1_555
H4_4 C2_4 1_555 1_555
C13_4 O2_4 1_555 1_555
C14_4 C13_4 1_555 1_555
C15_4 C14_4 1_555 1_555
H11_4 C15_4 1_555 1_555
C16_4 C15_4 1_555 1_555
H12_4 C16_4 1_555 1_555
C17_4 N7 1_555 1_555
H13_4 C17_4 1_555 1_555
C18_4 C14_4 1_555 1_555
H14_4 C18_4 1_555 1_555
C19_4 O4_4 1_555 1_555
C20_4 C19_4 1_555 1_555
C21_4 C20_4 1_555 1_555
H15_4 C21_4 1_555 1_555
C22_4 C21_4 1_555 1_555
H16_4 C22_4 1_555 1_555
C23_4 N6_2 1_555 1_555
H17_4 C23_4 1_555 1_555
C24_4 C20_4 1_555 1_555
H18_4 C24_4 1_555 1_555
O3_4 C13_4 1_555 1_555
O5_4 C19_4 1_555 1_555
C17_4 C18_4 1_555 1_555
C23_4 C24_4 1_555 1_555
O7_4 C6_4 1_555 1_555
C6_4 C3_4 1_555 1_555

#END
