
###############################################################################
#
# This file contains modified crystal structure data generated from the
# MOF subset of the Cambridge Structural Database (CSD) v543 
# hosted by the Cambridge Crystallographic Data Centre (CCDC).
#
# This work is licensed under the Creative Commons
# Attribution-NonCommercial-ShareAlike 4.0 International License.
# To view a copy of this license, visit
# http://creativecommons.org/licenses/by-nc-sa/4.0/
# or send a letter to
# Creative Commons, PO Box 1866, Mountain View, CA 94042, USA.
#
# CIF created using the CSD Python API on 29 September 2022
# The structure has been converted into the P1 space group
# The structure has a 3D framework
# The original CSD entry VEDFOB is in the orthorhombic crystal system
# The original CSD entry VEDFOB is in a Sohncke space group
# The framework has been calculated to contain at least 10.0% void space
# The void calculation uses a probe of radius 1.32A, grid spacing 0.4
#
###############################################################################

data_VEDFOB
_chemical_formula_moiety         '(C96 H72 Co7 N16 O36)n'
_symmetry_cell_setting           triclinic
_symmetry_space_group_name_H-M   'P 1'
_symmetry_Int_Tables_number      1
_space_group_name_Hall           'P 1'
loop_
_symmetry_equiv_pos_site_id
_symmetry_equiv_pos_as_xyz
1 x,y,z
_cell_length_a                   11.3749(4)
_cell_length_b                   13.3596(5)
_cell_length_c                   25.9691(11)
_cell_angle_alpha                90
_cell_angle_beta                 90
_cell_angle_gamma                90
_cell_volume                     3946.37
loop_
_atom_site_label
_atom_site_type_symbol
_atom_site_fract_x
_atom_site_fract_y
_atom_site_fract_z
O3 O 0.5300(3) 0.2755(3) 0.05992(17)
O4 O 0.3592(3) 0.3202(3) 0.09486(15)
C7 C 0.4221(5) 0.2668(4) 0.0662(2)
C11 C 0.4255(5) 0.1207(4) 0.0052(2)
H12 H 0.5087 0.1261 0.0040
C18 C 0.2412(5) 0.1710(4) 0.0377(2)
H15 H 0.1938 0.2121 0.0591
C21 C 0.1906(5) 0.0979(4) 0.0084(2)
H18 H 0.1078 0.0895 0.0104
C22 C 0.3612(5) 0.1850(4) 0.0360(2)
Co4 Co 0.40589(5) 0.44370(5) 0.13838(2)
O1 O 0.0876(3) 0.0727(2) 0.88584(12)
H1 H 0.1357 0.0907 0.8554
H2 H 0.0927 0.1288 0.9106
O2 O 0.2849(3) 0.1010(3) 0.83558(19)
N1 N 0.7216(3) 0.0450(3) 0.84100(16)
N2 N 0.2509(4) 0.0376(3) 0.97729(17)
C1 C 0.6543(5) 0.1258(4) 0.8375(3)
H3 H 0.6914 0.1894 0.8351
C8 C 0.3690(4) 0.0483(4) 0.9760(2)
H9 H 0.4143 0.0052 0.9547
C10 C 0.5333(5) 0.1221(4) 0.8372(3)
H11 H 0.4891 0.1820 0.8338
C23 C 0.4770(4) 0.0326(4) 0.8419(2)
C24 C 0.3443(5) 0.0281(4) 0.8498(2)
Co5 Co 0.90589(5) 0.05630(5) 0.86162(2)
Co1 Co 0.16192(5) 0.94110(5) 0.92105(2)
O5 O 0.3067(3) 0.9510(3) 0.87258(13)
O7 O 0.0797(3) 0.8503(2) 0.86648(13)
O9 O 0.0216(3) 0.9337(3) 0.97104(12)
N3 N 0.0616(4) 0.6530(3) 0.70354(17)
C2 C 0.6671(5) 0.9568(4) 0.8431(2)
H4 H 0.7132 0.8976 0.8443
C9 C 0.1109(5) 0.6389(4) 0.7488(2)
H10 H 0.1563 0.5799 0.7536
C12 C 0.0195(4) 0.8647(3) 0.82708(19)
C17 C 0.0327(4) 0.7883(3) 0.78400(19)
C19 C 0.5463(4) 0.9482(4) 0.8436(2)
H16 H 0.5109 0.8839 0.8452
C20 C 0.1008(5) 0.7039(4) 0.7894(2)
H17 H 0.1403 0.6907 0.8209
Co6 Co 0.09411(5) 0.55630(5) 0.63838(2)
N7 N 0.2390(4) 0.8122(3) 0.95732(17)
O10 O 0.8592(3) 0.1798(3) 0.90514(15)
N6 N 0.9384(4) 0.1530(3) 0.79646(17)
N4 N 0.7390(4) 0.6878(3) 0.04268(17)
C6 C 0.8866(6) 0.8125(5) 0.0369(3)
H8 H 0.9521 0.8444 0.0526
C14 C 0.8273(6) 0.7368(5) 0.0623(3)
H13 H 0.8524 0.7195 0.0960
Co3 Co 0.66192(5) 0.55890(5) 0.07895(2)
Co1_2 Co 0.33808(5) 0.05890(5) 0.42105(2)
O5_2 O 0.1933(3) 0.0490(3) 0.37258(13)
O6 O 0.5501(3) 0.0649(3) 0.31775(13)
O7_2 O 0.4203(3) 0.1497(2) 0.36648(13)
O8 O 0.6385(3) 0.0404(3) 0.42237(14)
O9_2 O 0.4784(3) 0.0663(3) 0.47104(12)
N3_2 N 0.4384(4) 0.3470(3) 0.20354(17)
N4_2 N 0.7610(4) 0.3122(3) 0.54268(17)
C3 C 0.7973(8) 0.2808(8) 0.4976(4)
H5 H 0.8647 0.3118 0.4829
C4 C 0.7433(8) 0.2053(7) 0.4702(3)
H6 H 0.7734 0.1861 0.4375
C5 C 0.5049(5) 0.2647(4) 0.1981(2)
H7 H 0.5411 0.2524 0.1657
C6_2 C 0.6134(6) 0.1875(5) 0.5369(3)
H8_2 H 0.5479 0.1556 0.5526
C9_2 C 0.3891(5) 0.3611(4) 0.2488(2)
H10_2 H 0.3437 0.4201 0.2536
C12_2 C 0.4805(4) 0.1353(3) 0.32708(19)
C13 C 0.6496(4) 0.1591(3) 0.4892(2)
C14_2 C 0.6727(6) 0.2632(5) 0.5623(3)
H13_2 H 0.6476 0.2805 0.5960
C15 C 0.5231(5) 0.1966(4) 0.2380(2)
H14 H 0.5735 0.1406 0.2333
C16 C 0.5847(4) 0.0809(3) 0.45810(18)
C17_2 C 0.4673(4) 0.2117(3) 0.28400(19)
C20_2 C 0.3992(5) 0.2961(4) 0.2894(2)
H17_2 H 0.3597 0.3093 0.3209
Co3_2 Co 0.83808(5) 0.44110(5) 0.57895(2)
N7_2 N 0.2610(4) 0.1878(3) 0.45732(17)
Co2 Co 0.59411(5) 0.94370(5) 0.36162(2)
O1_2 O 0.4124(3) 0.9273(2) 0.38584(12)
H1_2 H 0.3643 0.9093 0.3554
H2_2 H 0.4073 0.8712 0.4106
O2_2 O 0.2151(3) 0.8990(3) 0.33558(19)
O4_2 O 0.1408(3) 0.6798(3) 0.59486(15)
N2_2 N 0.2491(4) 0.9624(3) 0.47729(17)
C7_2 C 0.0779(5) 0.7332(4) 0.5662(2)
C8_2 C 0.1310(4) 0.9517(4) 0.4760(2)
H9_2 H 0.0857 0.9948 0.4547
H11_2 H 0.0109 0.8180 0.3338
C11_2 C 0.0745(5) 0.8793(4) 0.5052(2)
C18_2 C 0.2588(5) 0.8290(4) 0.5377(2)
H15_2 H 0.3062 0.7879 0.5591
C21_2 C 0.3094(5) 0.9021(4) 0.5084(2)
H18_2 H 0.3922 0.9105 0.5104
C22_2 C 0.1388(5) 0.8150(4) 0.5360(2)
C23_2 C 0.0230(4) 0.9674(4) 0.3419(2)
C24_2 C 0.1557(5) 0.9719(4) 0.3498(2)
O10_2 O 0.6408(3) 0.8202(3) 0.40514(15)
N5 N 0.7784(3) 0.9550(3) 0.34100(16)
N6_2 N 0.5616(4) 0.8470(3) 0.29646(17)
O3_2 O 0.9700(3) 0.7245(3) 0.55992(17)
C1_2 C 0.8457(5) 0.8742(4) 0.3375(3)
H3_2 H 0.8086 0.8106 0.3351
C10_2 C 0.9667(5) 0.8779(4) 0.3372(3)
H12_2 H 0.9913 0.8739 0.5040
N1_2 N 0.2216(3) 0.4550(3) 0.15900(16)
C1_3 C 0.1543(5) 0.3742(4) 0.1625(3)
H3_3 H 0.1914 0.3106 0.1649
C2_2 C 0.1671(5) 0.5432(4) 0.1569(2)
H4_2 H 0.2132 0.6024 0.1557
C10_3 C 0.0333(5) 0.3779(4) 0.1628(3)
C19_2 C 0.0463(4) 0.5518(4) 0.1564(2)
H16_2 H 0.0109 0.6161 0.1548
O1_3 O 0.5876(3) 0.4273(2) 0.11416(12)
H1_3 H 0.6357 0.4093 0.1446
H2_3 H 0.5927 0.3712 0.0894
O2_3 O 0.7849(3) 0.3990(3) 0.16442(19)
O5_3 O 0.8067(3) 0.5490(3) 0.12742(13)
O6_2 O 0.4499(3) 0.5649(3) 0.18225(13)
O7_3 O 0.5797(3) 0.6497(2) 0.13352(13)
O8_2 O 0.3615(3) 0.5404(3) 0.07763(14)
O9_3 O 0.5216(3) 0.5663(3) 0.02896(12)
N2_3 N 0.7509(4) 0.4624(3) 0.02271(17)
C3_2 C 0.2027(8) 0.7808(8) 0.0024(4)
H5_2 H 0.1353 0.8118 0.0171
C4_2 C 0.2567(8) 0.7053(7) 0.0298(3)
H6_2 H 0.2266 0.6861 0.0625
C5_2 C 0.4951(5) 0.7647(4) 0.3019(2)
H7_2 H 0.4589 0.7524 0.3343
C8_3 C 0.8690(4) 0.4517(4) 0.0240(2)
H9_3 H 0.9143 0.4948 0.0453
C9_3 C 0.6109(5) 0.8611(4) 0.2512(2)
H10_3 H 0.6563 0.9201 0.2464
H11_3 H 0.9891 0.3180 0.1662
C12_3 C 0.5195(4) 0.6353(3) 0.17292(19)
C13_2 C 0.3504(4) 0.6591(3) 0.0108(2)
C15_2 C 0.4769(5) 0.6966(4) 0.2620(2)
H14_2 H 0.4265 0.6406 0.2667
C16_2 C 0.4153(4) 0.5809(3) 0.04190(18)
C17_3 C 0.5327(4) 0.7117(3) 0.21600(19)
C20_3 C 0.6008(5) 0.7961(4) 0.2106(2)
H17_3 H 0.6403 0.8093 0.1791
C23_3 C 0.9770(4) 0.4674(4) 0.1581(2)
C24_3 C 0.8443(5) 0.4719(4) 0.1502(2)
C6_3 C 0.3866(6) 0.6875(5) 0.9631(3)
H8_3 H 0.4521 0.6556 0.9474
C7_3 C 0.9221(5) 0.2332(4) 0.9338(2)
C11_3 C 0.9255(5) 0.3793(4) 0.9948(2)
C14_3 C 0.3273(6) 0.7632(5) 0.9377(3)
H13_3 H 0.3524 0.7805 0.9040
C18_3 C 0.7412(5) 0.3290(4) 0.9623(2)
H15_3 H 0.6938 0.2879 0.9409
C21_3 C 0.6906(5) 0.4021(4) 0.9916(2)
H18_3 H 0.6078 0.4105 0.9896
C22_3 C 0.8612(5) 0.3150(4) 0.9640(2)
O6_3 O 0.0501(3) 0.4351(3) 0.68225(13)
O8_3 O 0.1385(3) 0.4596(3) 0.57763(14)
C3_3 C 0.2973(8) 0.2192(8) 0.5024(4)
H5_3 H 0.3647 0.1882 0.5171
C4_3 C 0.2433(8) 0.2947(7) 0.5298(3)
H6_3 H 0.2734 0.3139 0.5625
C5_3 C 0.0049(5) 0.2353(4) 0.8019(2)
H7_3 H 0.0411 0.2476 0.8343
C6_4 C 0.1134(6) 0.3125(5) 0.4631(3)
H8_4 H 0.0479 0.3444 0.4474
C13_3 C 0.1496(4) 0.3409(3) 0.5108(2)
C14_4 C 0.1727(6) 0.2368(5) 0.4377(3)
H13_4 H 0.1476 0.2195 0.4040
C15_3 C 0.0231(5) 0.3034(4) 0.7620(2)
H14_3 H 0.0735 0.3594 0.7667
C16_3 C 0.0847(4) 0.4191(3) 0.54190(18)
N5_2 N 0.2784(3) 0.5450(3) 0.65900(16)
O1_4 O 0.9124(3) 0.5727(2) 0.61416(12)
H1_4 H 0.8643 0.5907 0.6446
H2_4 H 0.9073 0.6288 0.5894
O2_4 O 0.7151(3) 0.6010(3) 0.66442(19)
O3_3 O 0.4700(3) 0.7755(3) 0.44008(17)
O5_4 O 0.6933(3) 0.4510(3) 0.62742(13)
O7_4 O 0.9203(3) 0.3503(2) 0.63352(13)
O9_4 O 0.9784(3) 0.4337(3) 0.52896(12)
N2_4 N 0.7491(4) 0.5376(3) 0.52271(17)
C1_4 C 0.3457(5) 0.6258(4) 0.6625(3)
H3_4 H 0.3086 0.6894 0.6649
C2_3 C 0.3329(5) 0.4568(4) 0.6569(2)
H4_3 H 0.2868 0.3976 0.6557
C7_4 C 0.5779(5) 0.7668(4) 0.4338(2)
C8_4 C 0.6310(4) 0.5483(4) 0.5240(2)
H9_4 H 0.5857 0.5052 0.5453
C9_4 C 0.8891(5) 0.1389(4) 0.7512(2)
H10_4 H 0.8437 0.0799 0.7464
C10_4 C 0.4667(5) 0.6221(4) 0.6628(3)
H11_4 H 0.5109 0.6820 0.6662
C11_4 C 0.5745(5) 0.6207(4) 0.4948(2)
H12_3 H 0.4913 0.6261 0.4960
C12_4 C 0.9805(4) 0.3647(3) 0.67292(19)
C17_4 C 0.9673(4) 0.2883(3) 0.71600(19)
C18_4 C 0.7588(5) 0.6710(4) 0.4623(2)
H15_4 H 0.8062 0.7121 0.4409
C19_3 C 0.4537(4) 0.4482(4) 0.6564(2)
H16_3 H 0.4891 0.3839 0.6548
C20_4 C 0.8992(5) 0.2039(4) 0.7106(2)
H17_4 H 0.8597 0.1907 0.6791
C21_4 C 0.8094(5) 0.5979(4) 0.4916(2)
H18_4 H 0.8922 0.5895 0.4896
C22_4 C 0.6388(5) 0.6850(4) 0.4640(2)
C23_4 C 0.5230(4) 0.5326(4) 0.6581(2)
C24_4 C 0.6557(5) 0.5281(4) 0.6502(2)
O6_4 O 0.9499(3) 0.9351(3) 0.81775(13)
O8_4 O 0.8615(3) 0.9596(3) 0.92237(14)
C3_4 C 0.7027(8) 0.7192(8) 0.9976(4)
H5_4 H 0.6353 0.6882 0.9829
C4_4 C 0.7567(8) 0.7947(7) 0.9702(3)
H6_4 H 0.7266 0.8139 0.9375
C5_4 C 0.9951(5) 0.7353(4) 0.6981(2)
H7_4 H 0.9589 0.7476 0.6657
C13_4 C 0.8504(4) 0.8409(3) 0.9892(2)
C15_4 C 0.9769(5) 0.8034(4) 0.7380(2)
H14_4 H 0.9265 0.8594 0.7333
C16_4 C 0.9153(4) 0.9191(3) 0.95810(18)
C2_4 C 0.8329(5) 0.0432(4) 0.3431(2)
H4_4 H 0.7868 0.1024 0.3443
C19_4 C 0.9537(4) 0.0518(4) 0.3436(2)
H16_4 H 0.9891 0.1161 0.3452
O3_4 O 0.0300(3) 0.2245(3) 0.94008(17)
H12_4 H 0.0087 0.3739 0.9960
loop_
_geom_bond_atom_site_label_1
_geom_bond_atom_site_label_2
_geom_bond_site_symmetry_1
_geom_bond_site_symmetry_2
O3 C7 1_555 1_555
O4 C7 1_555 1_555
C7 C22 1_555 1_555
H12 C11 1_555 1_555
C18 H15 1_555 1_555
H18 C21 1_555 1_555
C22 C11 1_555 1_555
Co4 O4 1_555 1_555
C18 C21 1_555 1_555
C18 C22 1_555 1_555
O1 H1 1_555 1_555
H2 O1 1_555 1_555
O2 C24 1_555 1_555
N1 C1 1_555 1_555
C1 H3 1_555 1_555
C8 N2 1_555 1_555
H9 C8 1_555 1_555
C10 C1 1_555 1_555
H11 C10 1_555 1_555
C23 C10 1_555 1_555
Co5 N1 1_555 1_555
C23 C24 1_555 1_555
O5 Co1 1_555 1_555
O7 Co1 1_555 1_555
O9 Co1 1_555 1_555
H4 C2 1_555 1_555
C9 N3 1_555 1_555
H10 C9 1_555 1_555
C17 C12 1_555 1_555
C19 C2 1_555 1_555
H16 C19 1_555 1_555
C20 C9 1_555 1_555
H17 C20 1_555 1_555
Co6 N3 1_555 1_555
N7 Co1 1_555 1_555
O7 C12 1_555 1_555
C17 C20 1_555 1_555
O10 Co5 1_555 1_555
N6 Co5 1_555 1_555
C6 H8 1_555 1_555
C14 N4 1_555 1_555
H13 C14 1_555 1_555
Co3 N4 1_555 1_555
C6 C14 1_555 1_555
O5_2 Co1_2 1_555 1_555
O7_2 Co1_2 1_555 1_555
O9_2 Co1_2 1_555 1_555
N3_2 C5 1_555 1_555
N4_2 C3 1_555 1_555
C3 H5 1_555 1_555
C4 C3 1_555 1_555
H6 C4 1_555 1_555
C5 H7 1_555 1_555
C6_2 H8_2 1_555 1_555
C9_2 N3_2 1_555 1_555
H10_2 C9_2 1_555 1_555
C12_2 O6 1_555 1_555
C13 C4 1_555 1_555
C14_2 N4_2 1_555 1_555
H13_2 C14_2 1_555 1_555
C15 C5 1_555 1_555
H14 C15 1_555 1_555
C16 O8 1_555 1_555
C17_2 C12_2 1_555 1_555
C20_2 C9_2 1_555 1_555
H17_2 C20_2 1_555 1_555
Co3_2 N4_2 1_555 1_555
Co4 N3_2 1_555 1_555
N7_2 Co1_2 1_555 1_555
O7_2 C12_2 1_555 1_555
O9_2 C16 1_555 1_555
C6_2 C13 1_555 1_555
C6_2 C14_2 1_555 1_555
C13 C16 1_555 1_555
C15 C17_2 1_555 1_555
C17_2 C20_2 1_555 1_555
Co2 O1_2 1_555 1_555
O1_2 H1_2 1_555 1_555
H2_2 O1_2 1_555 1_555
O2_2 C24_2 1_555 1_555
O4_2 C7_2 1_555 1_555
C7_2 C22_2 1_555 1_555
C8_2 N2_2 1_555 1_555
H9_2 C8_2 1_555 1_555
C11_2 C8_2 1_555 1_555
C18_2 H15_2 1_555 1_555
C21_2 N2_2 1_555 1_555
H18_2 C21_2 1_555 1_555
C22_2 C11_2 1_555 1_555
Co6 O4_2 1_555 1_555
O10_2 Co2 1_555 1_555
N5 Co2 1_555 1_555
N6_2 Co2 1_555 1_555
C18_2 C21_2 1_555 1_555
C18_2 C22_2 1_555 1_555
C23_2 C24_2 1_555 1_555
N5 C1_2 1_555 1_555
C1_2 H3_2 1_555 1_555
C10_2 C1_2 1_555 1_555
N1_2 C1_3 1_555 1_555
C1_3 H3_3 1_555 1_555
C2_2 N1_2 1_555 1_555
H4_2 C2_2 1_555 1_555
C10_3 C1_3 1_555 1_555
C19_2 C2_2 1_555 1_555
H16_2 C19_2 1_555 1_555
Co4 N1_2 1_555 1_555
Co3 O1_3 1_555 1_555
Co4 O1_3 1_555 1_555
O1_3 H1_3 1_555 1_555
H2_3 O1_3 1_555 1_555
O2_3 C24_3 1_555 1_555
O5_3 Co3 1_555 1_555
O6_2 Co4 1_555 1_555
O7_3 Co3 1_555 1_555
O8_2 Co4 1_555 1_555
O9_3 Co3 1_555 1_555
N2_3 Co3 1_555 1_555
N6_2 C5_2 1_555 1_555
C3_2 H5_2 1_555 1_555
C4_2 C3_2 1_555 1_555
H6_2 C4_2 1_555 1_555
C5_2 H7_2 1_555 1_555
C8_3 N2_3 1_555 1_555
H9_3 C8_3 1_555 1_555
C9_3 N6_2 1_555 1_555
H10_3 C9_3 1_555 1_555
C12_3 O6_2 1_555 1_555
C13_2 C4_2 1_555 1_555
C15_2 C5_2 1_555 1_555
H14_2 C15_2 1_555 1_555
C16_2 O8_2 1_555 1_555
C17_3 C12_3 1_555 1_555
C20_3 C9_3 1_555 1_555
H17_3 C20_3 1_555 1_555
C24_3 O5_3 1_555 1_555
O7_3 C12_3 1_555 1_555
O9_3 C16_2 1_555 1_555
C13_2 C16_2 1_555 1_555
C15_2 C17_3 1_555 1_555
C17_3 C20_3 1_555 1_555
C23_3 C24_3 1_555 1_555
O10 C7_3 1_555 1_555
C6_3 H8_3 1_555 1_555
C7_3 C22_3 1_555 1_555
C14_3 N7 1_555 1_555
H13_3 C14_3 1_555 1_555
C18_3 H15_3 1_555 1_555
H18_3 C21_3 1_555 1_555
C22_3 C11_3 1_555 1_555
C6_3 C14_3 1_555 1_555
C18_3 C21_3 1_555 1_555
C18_3 C22_3 1_555 1_555
O6_3 Co6 1_555 1_555
O8_3 Co6 1_555 1_555
N7_2 C3_3 1_555 1_555
C3_3 H5_3 1_555 1_555
C4_3 C3_3 1_555 1_555
H6_3 C4_3 1_555 1_555
C5_3 H7_3 1_555 1_555
C6_4 H8_4 1_555 1_555
C13_3 C4_3 1_555 1_555
C14_4 N7_2 1_555 1_555
H13_4 C14_4 1_555 1_555
C15_3 C5_3 1_555 1_555
H14_3 C15_3 1_555 1_555
C16_3 O8_3 1_555 1_555
N5_2 Co6 1_555 1_555
C6_4 C13_3 1_555 1_555
C6_4 C14_4 1_555 1_555
C13_3 C16_3 1_555 1_555
Co3_2 O1_4 1_555 1_555
O1_4 H1_4 1_555 1_555
H2_4 O1_4 1_555 1_555
O2_4 C24_4 1_555 1_555
O3_3 C7_4 1_555 1_555
O10_2 C7_4 1_555 1_555
O5_4 Co3_2 1_555 1_555
O7_4 Co3_2 1_555 1_555
O9_4 Co3_2 1_555 1_555
N5_2 C1_4 1_555 1_555
N2_4 Co3_2 1_555 1_555
C1_4 H3_4 1_555 1_555
C2_3 N5_2 1_555 1_555
H4_3 C2_3 1_555 1_555
C7_4 C22_4 1_555 1_555
C8_4 N2_4 1_555 1_555
H9_4 C8_4 1_555 1_555
C9_4 N6 1_555 1_555
H10_4 C9_4 1_555 1_555
C10_4 C1_4 1_555 1_555
H11_4 C10_4 1_555 1_555
C11_4 C8_4 1_555 1_555
H12_3 C11_4 1_555 1_555
C17_4 C12_4 1_555 1_555
C18_4 H15_4 1_555 1_555
C19_3 C2_3 1_555 1_555
H16_3 C19_3 1_555 1_555
C20_4 C9_4 1_555 1_555
H17_4 C20_4 1_555 1_555
C21_4 N2_4 1_555 1_555
H18_4 C21_4 1_555 1_555
C22_4 C11_4 1_555 1_555
C23_4 C10_4 1_555 1_555
C24_4 O5_4 1_555 1_555
O7_4 C12_4 1_555 1_555
C17_4 C20_4 1_555 1_555
C18_4 C21_4 1_555 1_555
C18_4 C22_4 1_555 1_555
C19_3 C23_4 1_555 1_555
C23_4 C24_4 1_555 1_555
C3_4 H5_4 1_555 1_555
C4_4 C3_4 1_555 1_555
H6_4 C4_4 1_555 1_555
C5_4 H7_4 1_555 1_555
C13_4 C4_4 1_555 1_555
C15_4 C5_4 1_555 1_555
H14_4 C15_4 1_555 1_555
C16_4 O8_4 1_555 1_555
C13_4 C16_4 1_555 1_555
H4_4 C2_4 1_555 1_555
C19_4 C2_4 1_555 1_555
H16_4 C19_4 1_555 1_555

#END
