
###############################################################################
#
# This file contains modified crystal structure data generated from the
# MOF subset of the Cambridge Structural Database (CSD) v543 
# hosted by the Cambridge Crystallographic Data Centre (CCDC).
#
# This work is licensed under the Creative Commons
# Attribution-NonCommercial-ShareAlike 4.0 International License.
# To view a copy of this license, visit
# http://creativecommons.org/licenses/by-nc-sa/4.0/
# or send a letter to
# Creative Commons, PO Box 1866, Mountain View, CA 94042, USA.
#
# CIF created using the CSD Python API on 29 September 2022
# The structure has been converted into the P1 space group
# The structure has a 3D framework
# The original CSD entry VEDFER is in the orthorhombic crystal system
# The original CSD entry VEDFER is in a Sohncke space group
# The framework has been calculated to contain at least 10.0% void space
# The void calculation uses a probe of radius 1.32A, grid spacing 0.4
#
###############################################################################

data_VEDFER
_chemical_formula_moiety         '(C96 H72 Co7 N16 O36)n'
_symmetry_cell_setting           triclinic
_symmetry_space_group_name_H-M   'P 1'
_symmetry_Int_Tables_number      1
_space_group_name_Hall           'P 1'
loop_
_symmetry_equiv_pos_site_id
_symmetry_equiv_pos_as_xyz
1 x,y,z
_cell_length_a                   11.3503(3)
_cell_length_b                   13.1581(3)
_cell_length_c                   26.2130(6)
_cell_angle_alpha                90
_cell_angle_beta                 90
_cell_angle_gamma                90
_cell_volume                     3914.87
loop_
_atom_site_label
_atom_site_type_symbol
_atom_site_fract_x
_atom_site_fract_y
_atom_site_fract_z
Co2 Co 0.09320(6) 0.05951(6) 0.13755(3)
O10 O 0.1351(4) 0.1860(3) 0.09427(17)
N5 N 0.0615(4) 0.1560(4) 0.20203(19)
N6 N 0.2773(4) 0.0488(4) 0.15658(19)
C7 C 0.1789(7) 0.7470(5) 0.9355(3)
H4 H 0.1581 0.7340 0.9010
N3 N 0.2648(4) 0.6938(4) 0.9563(2)
C23 C 0.1183(6) 0.8203(5) 0.9619(3)
H17 H 0.0521 0.8524 0.9467
Co3 Co 0.33904(6) 0.56081(6) 0.92055(3)
O5 O 0.9093(3) 0.0741(3) 0.11411(14)
H1 H 0.8611 0.0913 0.1444
H2 H 0.9026 0.1311 0.0896
C1 C 0.6554(5) 0.0294(5) 0.1507(2)
O8 O 0.7162(4) 0.0993(4) 0.1673(2)
C4 C 0.5219(5) 0.0344(5) 0.1563(2)
N4 N 0.7471(4) 0.0337(3) 0.02399(19)
C17 C 0.3441(6) 0.1302(5) 0.1587(3)
H11 H 0.3068 0.1948 0.1598
C19 C 0.4661(5) 0.1268(5) 0.1593(3)
H13 H 0.5106 0.1878 0.1618
C20 C 0.6289(5) 0.0413(5) 0.0237(3)
O7 O 0.6351(4) 0.3140(3) 0.90573(17)
O9 O 0.4618(4) 0.2658(4) 0.9380(2)
C5 C 0.6323(5) 0.1769(5) 0.9633(2)
C8 C 0.8064(6) 0.0935(5) 0.9935(3)
H5 H 0.8896 0.0859 0.9919
C10 C 0.7532(6) 0.1687(5) 0.9628(3)
H6 H 0.7998 0.2126 0.9423
C14 C 0.5713(6) 0.2606(4) 0.9333(2)
C21 C 0.5696(6) 0.1113(5) 0.9936(3)
H15 H 0.4860 0.1138 0.9940
Co4 Co 0.59320(6) 0.44049(6) 0.86245(3)
Co1 Co 0.83904(6) 0.93919(6) 0.07945(3)
O1 O 0.9788(3) 0.9362(3) 0.02941(14)
O3 O 0.9209(3) 0.8493(3) 0.13423(15)
O6 O 0.6929(3) 0.9517(3) 0.12766(16)
N1 N 0.9385(4) 0.6560(4) 0.29797(19)
C2 C 0.9685(5) 0.7905(4) 0.2164(2)
C3 C 0.8999(6) 0.7042(5) 0.2116(2)
H3 H 0.8601 0.6899 0.1806
C9 C 0.9803(5) 0.8651(4) 0.1733(2)
C12 C 0.4522(5) 0.9489(5) 0.1550(3)
H7 H 0.4872 0.8833 0.1535
C15 C 0.3321(6) 0.9589(5) 0.1557(3)
H9 H 0.2854 0.8990 0.1555
C16 C 0.8901(6) 0.6382(5) 0.2532(2)
H10 H 0.8462 0.5773 0.2490
H14 H 0.5843 0.9971 0.0449
Co5 Co 0.90680(6) 0.55951(6) 0.36245(3)
N7 N 0.7648(4) 0.8062(4) 0.0437(2)
N2 N 0.2227(4) 0.9512(4) 0.65658(19)
O9_2 O 0.0382(4) 0.7342(4) 0.4380(2)
C17_2 C 0.1559(6) 0.8698(5) 0.6587(3)
H11_2 H 0.1932 0.8052 0.6598
C19_2 C 0.0339(5) 0.8732(5) 0.6593(3)
H15_2 H 0.0140 0.8862 0.4940
Co6 Co 0.40680(6) 0.94049(6) 0.63755(3)
Co1_2 Co 0.66096(6) 0.06081(6) 0.57945(3)
O1_2 O 0.5212(3) 0.0638(3) 0.52941(14)
O2 O 0.3613(3) 0.0372(3) 0.57736(17)
O3_2 O 0.5791(3) 0.1507(3) 0.63423(15)
O4 O 0.4499(3) 0.0621(3) 0.68122(15)
O6_2 O 0.8071(3) 0.0483(3) 0.62766(16)
N1_2 N 0.5615(4) 0.3440(4) 0.79797(19)
C2_2 C 0.5315(5) 0.2095(4) 0.7164(2)
C3_2 C 0.6001(6) 0.2958(5) 0.7116(2)
H3_2 H 0.6399 0.3101 0.6806
C6 C 0.3480(5) 0.1533(4) 0.5091(2)
C7_2 C 0.3211(7) 0.2530(5) 0.4355(3)
H4_2 H 0.3419 0.2660 0.4010
N3_2 N 0.2352(4) 0.3062(4) 0.4563(2)
C9_2 C 0.5197(5) 0.1349(4) 0.6733(2)
C11 C 0.4138(5) 0.0769(4) 0.5416(2)
C13 C 0.4768(6) 0.1935(5) 0.7617(2)
H8 H 0.4262 0.1366 0.7655
C16_2 C 0.6099(6) 0.3618(5) 0.7532(2)
H10_2 H 0.6538 0.4227 0.7490
C18 C 0.2532(7) 0.2068(7) 0.5291(3)
H12 H 0.2249 0.1911 0.5623
H14_2 H 0.9157 0.0029 0.5449
C22 C 0.4934(6) 0.2582(5) 0.8021(3)
H16 H 0.4567 0.2432 0.8338
C23_2 C 0.3817(6) 0.1797(5) 0.4619(3)
H17_2 H 0.4479 0.1476 0.4467
C24 C 0.2025(7) 0.2790(7) 0.5023(4)
H18 H 0.1378 0.3139 0.5172
Co3_2 Co 0.16096(6) 0.43919(6) 0.42055(3)
N7_2 N 0.7352(4) 0.1938(4) 0.5437(2)
O5_2 O 0.5907(3) 0.9259(3) 0.61411(14)
H1_2 H 0.6389 0.9087 0.6444
H2_2 H 0.5974 0.8689 0.5896
O7_2 O 0.8649(4) 0.6860(3) 0.40573(17)
C1_2 C 0.8446(5) 0.9706(5) 0.6507(2)
O8_2 O 0.7838(4) 0.9007(4) 0.6673(2)
C4_2 C 0.9781(5) 0.9656(5) 0.6563(2)
C5_2 C 0.8677(5) 0.8231(5) 0.4633(2)
C8_2 C 0.6936(6) 0.9065(5) 0.4935(3)
H5_2 H 0.6104 0.9141 0.4919
N4_2 N 0.7529(4) 0.9663(3) 0.52399(19)
C10_2 C 0.7468(6) 0.8313(5) 0.4628(3)
H6_2 H 0.7002 0.7874 0.4423
C14_2 C 0.9287(6) 0.7394(4) 0.4333(2)
H13_2 H 0.9894 0.8122 0.6618
C20_2 C 0.8711(5) 0.9587(5) 0.5237(3)
C21_2 C 0.9304(6) 0.8887(5) 0.4936(3)
O10_2 O 0.3649(4) 0.8140(3) 0.59427(17)
N5_2 N 0.4385(4) 0.8440(4) 0.70203(19)
C5_3 C 0.1323(5) 0.3231(5) 0.0367(2)
C7_3 C 0.6789(7) 0.7530(5) 0.0645(3)
H4_3 H 0.6581 0.7660 0.0990
C8_3 C 0.3064(6) 0.4065(5) 0.0065(3)
H5_3 H 0.3896 0.4141 0.0081
C10_3 C 0.2532(6) 0.3313(5) 0.0372(3)
H6_3 H 0.2998 0.2874 0.0577
C14_3 C 0.0713(6) 0.2394(4) 0.0667(2)
C21_3 C 0.0696(6) 0.3887(5) 0.0064(3)
C23_3 C 0.6183(6) 0.6797(5) 0.0381(3)
H17_3 H 0.5521 0.6476 0.0533
O1_3 O 0.4788(3) 0.5638(3) 0.97059(14)
O2_2 O 0.6387(3) 0.5372(3) 0.92264(17)
O3_3 O 0.4209(3) 0.6507(3) 0.86577(15)
O4_2 O 0.5501(3) 0.5621(3) 0.81878(15)
O5_3 O 0.4093(3) 0.4259(3) 0.88589(14)
H1_3 H 0.3611 0.4087 0.8556
H2_3 H 0.4026 0.3689 0.9104
O6_3 O 0.1929(3) 0.5483(3) 0.87234(16)
C1_3 C 0.1554(5) 0.4706(5) 0.8493(2)
C2_3 C 0.4685(5) 0.7095(4) 0.7836(2)
O8_3 O 0.2162(4) 0.4007(4) 0.8327(2)
C3_3 C 0.3999(6) 0.7958(5) 0.7884(2)
H3_3 H 0.3601 0.8101 0.8194
C4_3 C 0.0219(5) 0.4656(5) 0.8437(2)
C6_2 C 0.6520(5) 0.6533(4) 0.9909(2)
N4_3 N 0.2471(4) 0.4663(3) 0.97601(19)
C9_3 C 0.4803(5) 0.6349(4) 0.8267(2)
C11_2 C 0.5862(5) 0.5769(4) 0.9584(2)
C13_2 C 0.5232(6) 0.6935(5) 0.7383(2)
H8_2 H 0.5738 0.6366 0.7345
C16_3 C 0.3901(6) 0.8618(5) 0.7468(2)
H10_3 H 0.3462 0.9227 0.7510
C18_2 C 0.7468(7) 0.7068(7) 0.9709(3)
H12_2 H 0.7751 0.6911 0.9377
H13_3 H 0.0106 0.3122 0.8382
C20_3 C 0.1289(5) 0.4587(5) 0.9763(3)
H14_3 H 0.0843 0.5029 0.9551
C22_2 C 0.5066(6) 0.7582(5) 0.6979(3)
H16_2 H 0.5433 0.7432 0.6662
C24_2 C 0.7975(7) 0.7790(7) 0.9977(4)
H18_2 H 0.8622 0.8139 0.9828
N6_2 N 0.7773(4) 0.4512(4) 0.84342(19)
C12_2 C 0.9522(5) 0.5511(5) 0.8450(3)
H7_2 H 0.9872 0.6167 0.8465
C15_2 C 0.8321(6) 0.5411(5) 0.8443(3)
H9_2 H 0.7854 0.6010 0.8445
C17_3 C 0.8441(6) 0.3698(5) 0.8413(3)
H11_3 H 0.8068 0.3052 0.8402
C19_3 C 0.9661(5) 0.3732(5) 0.8407(3)
O1_4 O 0.0212(3) 0.4362(3) 0.47059(14)
O3_4 O 0.0791(3) 0.3493(3) 0.36577(15)
O5_4 O 0.0907(3) 0.5741(3) 0.38589(14)
H1_4 H 0.1389 0.5913 0.3556
H2_4 H 0.0974 0.6311 0.4104
O6_4 O 0.3071(3) 0.4517(3) 0.37234(16)
C1_4 C 0.3446(5) 0.5294(5) 0.3493(2)
N2_2 N 0.7227(4) 0.5488(4) 0.34342(19)
C2_4 C 0.0315(5) 0.2905(4) 0.2836(2)
O8_4 O 0.2838(4) 0.5993(4) 0.3327(2)
C3_4 C 0.1001(6) 0.2042(5) 0.2884(2)
H3_4 H 0.1399 0.1899 0.3194
C4_4 C 0.4781(5) 0.5344(5) 0.3437(2)
O9_3 O 0.5382(4) 0.7658(4) 0.5620(2)
C5_4 C 0.3677(5) 0.6769(5) 0.5367(2)
C8_4 C 0.1936(6) 0.5935(5) 0.5065(3)
H5_4 H 0.1104 0.5859 0.5081
N4_4 N 0.2529(4) 0.5337(3) 0.47601(19)
C9_4 C 0.0197(5) 0.3651(4) 0.3267(2)
C10_4 C 0.2468(6) 0.6687(5) 0.5372(3)
H6_4 H 0.2002 0.7126 0.5577
C12_3 C 0.5478(5) 0.4489(5) 0.3450(3)
H7_3 H 0.5128 0.3833 0.3465
C14_4 C 0.4287(6) 0.7606(4) 0.5667(2)
C15_3 C 0.6679(6) 0.4589(5) 0.3443(3)
H9_3 H 0.7146 0.3990 0.3445
C16_4 C 0.1099(6) 0.1382(5) 0.2468(2)
H10_4 H 0.1538 0.0773 0.2510
C17_4 C 0.6559(6) 0.6302(5) 0.3413(3)
H11_4 H 0.6932 0.6948 0.3402
C19_4 C 0.5339(5) 0.6268(5) 0.3407(3)
H13_4 H 0.4894 0.6878 0.3382
C20_4 C 0.3711(5) 0.5413(5) 0.4763(3)
H14_4 H 0.4157 0.4971 0.4551
C21_4 C 0.4304(6) 0.6113(5) 0.5064(3)
H15_3 H 0.5140 0.6138 0.5060
O2_3 O 0.8613(3) 0.4628(3) 0.42264(17)
O4_3 O 0.9499(3) 0.4379(3) 0.31878(15)
C6_3 C 0.8480(5) 0.3467(4) 0.4909(2)
C7_4 C 0.8211(7) 0.2470(5) 0.5645(3)
H4_4 H 0.8419 0.2340 0.5990
C11_3 C 0.9138(5) 0.4231(4) 0.4584(2)
C13_3 C 0.9768(6) 0.3065(5) 0.2383(2)
H8_3 H 0.9262 0.3634 0.2345
C18_3 C 0.7532(7) 0.2932(7) 0.4709(3)
H12_3 H 0.7249 0.3089 0.4377
C22_3 C 0.9934(6) 0.2418(5) 0.1979(3)
H16_3 H 0.9567 0.2568 0.1662
C23_4 C 0.8817(6) 0.3203(5) 0.5381(3)
H17_4 H 0.9479 0.3524 0.5533
C24_3 C 0.7025(7) 0.2210(7) 0.4977(4)
H18_3 H 0.6378 0.1861 0.4828
O2_4 O 0.1387(3) 0.9628(3) 0.07736(17)
O4_4 O 0.0501(3) 0.9379(3) 0.18122(15)
C6_4 C 0.1520(5) 0.8467(4) 0.0091(2)
C11_4 C 0.0862(5) 0.9231(4) 0.0416(2)
C13_4 C 0.0232(6) 0.8065(5) 0.2617(2)
H8_4 H 0.0738 0.8634 0.2655
C18_4 C 0.2468(7) 0.7932(7) 0.0291(3)
H12_4 H 0.2751 0.8089 0.0623
C22_4 C 0.0066(6) 0.7418(5) 0.3021(3)
H16_4 H 0.0433 0.7568 0.3338
C24_4 C 0.2975(7) 0.7210(7) 0.0023(4)
H18_4 H 0.3622 0.6861 0.0172
C12_4 C 0.0478(5) 0.0511(5) 0.6550(3)
H7_4 H 0.0128 0.1167 0.6535
C15_4 C 0.1679(6) 0.0411(5) 0.6557(3)
H9_4 H 0.2146 0.1010 0.6555
O9_4 O 0.9618(4) 0.2342(4) 0.0620(2)
H15_4 H 0.9860 0.3862 0.0060
loop_
_geom_bond_atom_site_label_1
_geom_bond_atom_site_label_2
_geom_bond_site_symmetry_1
_geom_bond_site_symmetry_2
O10 Co2 1_555 1_555
N5 Co2 1_555 1_555
N6 Co2 1_555 1_555
C7 H4 1_555 1_555
N3 C7 1_555 1_555
H17 C23 1_555 1_555
Co3 N3 1_555 1_555
C7 C23 1_555 1_555
H1 O5 1_555 1_555
H2 O5 1_555 1_555
O8 C1 1_555 1_555
C4 C1 1_555 1_555
C17 N6 1_555 1_555
H11 C17 1_555 1_555
C19 C4 1_555 1_555
H13 C19 1_555 1_555
C20 N4 1_555 1_555
C17 C19 1_555 1_555
O7 C14 1_555 1_555
O9 C14 1_555 1_555
C5 C10 1_555 1_555
C8 H5 1_555 1_555
C10 C8 1_555 1_555
H6 C10 1_555 1_555
C14 C5 1_555 1_555
C21 C5 1_555 1_555
H15 C21 1_555 1_555
Co4 O7 1_555 1_555
Co1 O1 1_555 1_555
O3 Co1 1_555 1_555
O6 Co1 1_555 1_555
N1 C16 1_555 1_555
C2 C3 1_555 1_555
C3 H3 1_555 1_555
C9 O3 1_555 1_555
H7 C12 1_555 1_555
C15 C12 1_555 1_555
H9 C15 1_555 1_555
C16 C3 1_555 1_555
H10 C16 1_555 1_555
Co5 N1 1_555 1_555
N7 Co1 1_555 1_555
C2 C9 1_555 1_555
C17_2 N2 1_555 1_555
H11_2 C17_2 1_555 1_555
Co6 N2 1_555 1_555
C17_2 C19_2 1_555 1_555
Co1_2 O1_2 1_555 1_555
O1_2 C11 1_555 1_555
O2 C11 1_555 1_555
O3_2 Co1_2 1_555 1_555
O6_2 Co1_2 1_555 1_555
N1_2 C16_2 1_555 1_555
C2_2 C3_2 1_555 1_555
C3_2 H3_2 1_555 1_555
C6 C11 1_555 1_555
C7_2 H4_2 1_555 1_555
N3_2 C7_2 1_555 1_555
C9_2 O3_2 1_555 1_555
C13 C2_2 1_555 1_555
H8 C13 1_555 1_555
C16_2 C3_2 1_555 1_555
H10_2 C16_2 1_555 1_555
C18 C6 1_555 1_555
H12 C18 1_555 1_555
C22 N1_2 1_555 1_555
H16 C22 1_555 1_555
C23_2 C6 1_555 1_555
H17_2 C23_2 1_555 1_555
C24 N3_2 1_555 1_555
H18 C24 1_555 1_555
Co3_2 N3_2 1_555 1_555
Co4 N1_2 1_555 1_555
N7_2 Co1_2 1_555 1_555
O4 C9_2 1_555 1_555
C2_2 C9_2 1_555 1_555
C7_2 C23_2 1_555 1_555
C13 C22 1_555 1_555
C18 C24 1_555 1_555
H1_2 O5_2 1_555 1_555
H2_2 O5_2 1_555 1_555
O7_2 C14_2 1_555 1_555
O8_2 C1_2 1_555 1_555
C4_2 C1_2 1_555 1_555
C5_2 C10_2 1_555 1_555
C8_2 H5_2 1_555 1_555
C10_2 C8_2 1_555 1_555
H6_2 C10_2 1_555 1_555
C14_2 C5_2 1_555 1_555
C20_2 N4_2 1_555 1_555
C21_2 C5_2 1_555 1_555
Co5 O7_2 1_555 1_555
O10_2 Co6 1_555 1_555
N5_2 Co6 1_555 1_555
Co6 O5_2 1_555 1_555
C8_2 N4_2 1_555 1_555
C20_2 C21_2 1_555 1_555
O10 C14_3 1_555 1_555
C5_3 C10_3 1_555 1_555
C7_3 H4_3 1_555 1_555
C8_3 H5_3 1_555 1_555
N7 C7_3 1_555 1_555
C10_3 C8_3 1_555 1_555
H6_3 C10_3 1_555 1_555
C14_3 C5_3 1_555 1_555
C21_3 C5_3 1_555 1_555
H17_3 C23_3 1_555 1_555
C7_3 C23_3 1_555 1_555
Co3 O1_3 1_555 1_555
Co4 O2_2 1_555 1_555
O1_3 C11_2 1_555 1_555
O2_2 C11_2 1_555 1_555
O3_3 Co3 1_555 1_555
O4_2 Co4 1_555 1_555
O5_3 Co3 1_555 1_555
H1_3 O5_3 1_555 1_555
H2_3 O5_3 1_555 1_555
O6_3 Co3 1_555 1_555
C1_3 O6_3 1_555 1_555
N5_2 C16_3 1_555 1_555
C2_3 C3_3 1_555 1_555
O8_3 C1_3 1_555 1_555
C3_3 H3_3 1_555 1_555
C4_3 C1_3 1_555 1_555
C6_2 C11_2 1_555 1_555
N4_3 Co3 1_555 1_555
C9_3 O3_3 1_555 1_555
C13_2 C2_3 1_555 1_555
H8_2 C13_2 1_555 1_555
C16_3 C3_3 1_555 1_555
H10_3 C16_3 1_555 1_555
C18_2 C6_2 1_555 1_555
H12_2 C18_2 1_555 1_555
C20_3 N4_3 1_555 1_555
H14_3 C20_3 1_555 1_555
C22_2 N5_2 1_555 1_555
H16_2 C22_2 1_555 1_555
H18_2 C24_2 1_555 1_555
N6_2 Co4 1_555 1_555
Co4 O5_3 1_555 1_555
O4_2 C9_3 1_555 1_555
C2_3 C9_3 1_555 1_555
C13_2 C22_2 1_555 1_555
C18_2 C24_2 1_555 1_555
N6_2 C15_2 1_555 1_555
H7_2 C12_2 1_555 1_555
C15_2 C12_2 1_555 1_555
H9_2 C15_2 1_555 1_555
C17_3 N6_2 1_555 1_555
H11_3 C17_3 1_555 1_555
C17_3 C19_3 1_555 1_555
Co3_2 O1_4 1_555 1_555
O3_4 Co3_2 1_555 1_555
O5_4 Co3_2 1_555 1_555
H1_4 O5_4 1_555 1_555
H2_4 O5_4 1_555 1_555
O6_4 Co3_2 1_555 1_555
O10_2 C14_4 1_555 1_555
C1_4 O6_4 1_555 1_555
N5 C16_4 1_555 1_555
N2_2 C15_3 1_555 1_555
C2_4 C3_4 1_555 1_555
O8_4 C1_4 1_555 1_555
C3_4 H3_4 1_555 1_555
C4_4 C1_4 1_555 1_555
O9_3 C14_4 1_555 1_555
C5_4 C10_4 1_555 1_555
C8_4 H5_4 1_555 1_555
N4_4 Co3_2 1_555 1_555
C9_4 O3_4 1_555 1_555
C10_4 C8_4 1_555 1_555
H6_4 C10_4 1_555 1_555
C12_3 C4_4 1_555 1_555
H7_3 C12_3 1_555 1_555
C14_4 C5_4 1_555 1_555
C15_3 C12_3 1_555 1_555
H9_3 C15_3 1_555 1_555
C16_4 C3_4 1_555 1_555
H10_4 C16_4 1_555 1_555
C17_4 N2_2 1_555 1_555
H11_4 C17_4 1_555 1_555
C19_4 C4_4 1_555 1_555
H13_4 C19_4 1_555 1_555
C20_4 N4_4 1_555 1_555
H14_4 C20_4 1_555 1_555
C21_4 C5_4 1_555 1_555
H15_3 C21_4 1_555 1_555
Co5 N2_2 1_555 1_555
C2_4 C9_4 1_555 1_555
C8_4 N4_4 1_555 1_555
C17_4 C19_4 1_555 1_555
C20_4 C21_4 1_555 1_555
Co5 O2_3 1_555 1_555
O2_3 C11_3 1_555 1_555
O4_3 Co5 1_555 1_555
C6_3 C11_3 1_555 1_555
C7_4 H4_4 1_555 1_555
N7_2 C7_4 1_555 1_555
H8_3 C13_3 1_555 1_555
C18_3 C6_3 1_555 1_555
H12_3 C18_3 1_555 1_555
H16_3 C22_3 1_555 1_555
C23_4 C6_3 1_555 1_555
H17_4 C23_4 1_555 1_555
C24_3 N7_2 1_555 1_555
H18_3 C24_3 1_555 1_555
C7_4 C23_4 1_555 1_555
C13_3 C22_3 1_555 1_555
C18_3 C24_3 1_555 1_555
O2_4 C11_4 1_555 1_555
C6_4 C11_4 1_555 1_555
H8_4 C13_4 1_555 1_555
C18_4 C6_4 1_555 1_555
H12_4 C18_4 1_555 1_555
H16_4 C22_4 1_555 1_555
H18_4 C24_4 1_555 1_555
C13_4 C22_4 1_555 1_555
C18_4 C24_4 1_555 1_555
H7_4 C12_4 1_555 1_555
C15_4 C12_4 1_555 1_555
H9_4 C15_4 1_555 1_555

#END
