
###############################################################################
#
# This file contains modified crystal structure data generated from the
# MOF subset of the Cambridge Structural Database (CSD) v543 
# hosted by the Cambridge Crystallographic Data Centre (CCDC).
#
# This work is licensed under the Creative Commons
# Attribution-NonCommercial-ShareAlike 4.0 International License.
# To view a copy of this license, visit
# http://creativecommons.org/licenses/by-nc-sa/4.0/
# or send a letter to
# Creative Commons, PO Box 1866, Mountain View, CA 94042, USA.
#
# CIF created using the CSD Python API on 29 September 2022
# The structure has been converted into the P1 space group
# The structure has a 3D framework
# The original CSD entry VEDGUK01 is in the monoclinic crystal system
# The framework has been calculated to contain at least 10.0% void space
# The void calculation uses a probe of radius 1.32A, grid spacing 0.4
#
###############################################################################

data_VEDGUK01
_chemical_formula_moiety         '(C184 H152 Co16 O132)n'
_symmetry_cell_setting           triclinic
_symmetry_space_group_name_H-M   'P 1'
_symmetry_Int_Tables_number      1
_space_group_name_Hall           'P 1'
loop_
_symmetry_equiv_pos_site_id
_symmetry_equiv_pos_as_xyz
1 x,y,z
_cell_length_a                   24.1793(5)
_cell_length_b                   14.7682(3)
_cell_length_c                   19.8874(4)
_cell_angle_alpha                90
_cell_angle_beta                 127.327(2)
_cell_angle_gamma                90
_cell_volume                     5647.02
loop_
_atom_site_label
_atom_site_type_symbol
_atom_site_fract_x
_atom_site_fract_y
_atom_site_fract_z
Co1 Co 0.76072(2) 0.50899(2) 0.17911(2)
Co2 Co 0.73529(2) 0.25581(2) 0.64241(2)
O1 O 0.74707(12) 0.56076(14) 0.26267(14)
O2 O 0.71991(11) 0.70798(14) 0.23051(12)
O3 O 0.79755(13) 0.45170(15) 0.53807(14)
O4 O 0.78018(12) 0.55637(14) 0.60426(13)
O5 O 0.56706(12) 0.93897(16) 0.56675(15)
O6 O 0.46629(12) 0.87355(15) 0.52235(15)
D1 D 0.468268 0.911072 0.555487
O7 O 0.66330(11) 0.45981(15) 0.57509(14)
O8 O 0.64574(10) 0.31273(13) 0.54063(12)
O9 O 0.41027(12) 0.21701(16) 0.28318(17)
O10 O 0.32418(10) 0.31428(13) 0.23846(12)
O11 O 0.62245(13) 0.78773(15) 0.38633(16)
O12 O 0.43693(11) 0.61283(14) 0.34978(15)
O13 O 0.72282(12) 0.38172(14) 0.18008(14)
D2 D 0.747649 0.335795 0.199481
D3 D 0.705159 0.384695 0.206891
O14 O 0.85924(12) 0.46638(16) 0.28673(14)
D4 D 0.888943 0.468611 0.276334
D5 D 0.879013 0.494641 0.333284
O15 O 0.80061(10) 0.36920(13) 0.66373(12)
D6 D 0.847719 0.358485 0.714006
D7 D 0.801779 0.375765 0.616056
O16 O 0.75572(12) 0.19913(15) 0.56229(14)
D8 D 0.741219 0.143590 0.549902
D9 D 0.800159 0.194330 0.588832
O17 O 0.67774(11) 0.13514(14) 0.61743(13)
D10 D 0.683524 0.117671 0.662525
D11 D 0.631574 0.139991 0.581565
C1 C 0.72863(14) 0.63655(19) 0.27085(17)
C2 C 0.77414(15) 0.52743(19) 0.54071(18)
C3 C 0.52137(15) 0.8838(2) 0.52335(19)
C4 C 0.62679(14) 0.39472(19) 0.53000(17)
C5 C 0.38752(15) 0.2939(2) 0.28219(18)
C6 C 0.71595(14) 0.64322(19) 0.33626(17)
C7 C 0.74627(14) 0.57968(18) 0.40185(17)
H1 H 0.772681 0.530846 0.403573
C8 C 0.73745(15) 0.58852(18) 0.46461(17)
C9 C 0.69525(16) 0.6570(2) 0.45964(19)
H2 H 0.688682 0.662692 0.501952
C10 C 0.66310(16) 0.71665(19) 0.39188(19)
C11 C 0.67401(15) 0.71194(19) 0.33119(18)
H3 H 0.653159 0.755016 0.286616
C12 C 0.57601(15) 0.7692(2) 0.40393(18)
C13 C 0.53199(16) 0.69486(19) 0.36880(18)
H4 H 0.535066 0.652335 0.335351
C14 C 0.48328(14) 0.68431(19) 0.38385(18)
C15 C 0.47664(15) 0.74670(19) 0.43048(19)
H5 H 0.441395 0.740067 0.437612
C16 C 0.52281(15) 0.81957(19) 0.46683(18)
C17 C 0.57339(15) 0.83083(19) 0.45444(18)
H6 H 0.605357 0.879798 0.480121
C18 C 0.46329(16) 0.5254(2) 0.3706(2)
C19 C 0.53125(15) 0.5055(2) 0.4394(2)
H7 H 0.562416 0.552575 0.474790
C20 C 0.55293(15) 0.4154(2) 0.45566(19)
C21 C 0.50706(15) 0.3465(2) 0.4040(2)
H8 H 0.522363 0.285330 0.414444
C22 C 0.43843(15) 0.3679(2) 0.3369(2)
C23 C 0.41633(16) 0.4577(2) 0.3203(2)
H9 H 0.369528 0.472276 0.274974
Co3 Co 0.76072(2) 0.49101(2) 0.67911(2)
Co4 Co 0.73529(2) 0.74419(2) 0.14241(2)
Co5 Co 0.23529(2) 0.24419(2) 0.14241(2)
O18 O 0.71991(11) 0.29202(14) 0.73051(12)
O19 O 0.78018(12) 0.44363(14) 0.10426(13)
O20 O 0.66330(11) 0.54019(15) 0.07509(14)
O21 O 0.82418(10) 0.18572(13) 0.73846(12)
O22 O 0.80061(10) 0.63080(13) 0.16373(12)
Co1_2 Co 0.26072(2) 0.00899(2) 0.17911(2)
O1_2 O 0.24707(12) 0.06076(14) 0.26267(14)
O2_2 O 0.21991(11) 0.20798(14) 0.23051(12)
O4_2 O 0.28018(12) 0.05637(14) 0.60426(13)
O5_2 O 0.06706(12) 0.43897(16) 0.56675(15)
O11_2 O 0.12245(13) 0.28773(15) 0.38633(16)
C1_2 C 0.22863(14) 0.13655(19) 0.27085(17)
C2_2 C 0.27414(15) 0.02743(19) 0.54071(18)
C3_2 C 0.02137(15) 0.3838(2) 0.52335(19)
C6_2 C 0.21595(14) 0.14322(19) 0.33626(17)
C7_2 C 0.24627(14) 0.07968(18) 0.40185(17)
H1_2 H 0.272681 0.030846 0.403573
C8_2 C 0.23745(15) 0.08852(18) 0.46461(17)
C9_2 C 0.19525(16) 0.1570(2) 0.45964(19)
H2_2 H 0.188682 0.162692 0.501952
C10_2 C 0.16310(16) 0.21665(19) 0.39188(19)
C11_2 C 0.17401(15) 0.21194(19) 0.33119(18)
H3_2 H 0.153159 0.255016 0.286616
C12_2 C 0.07601(15) 0.2692(2) 0.40393(18)
C13_2 C 0.03199(16) 0.19486(19) 0.36880(18)
H4_2 H 0.035066 0.152335 0.335351
C16_2 C 0.02281(15) 0.31957(19) 0.46683(18)
C17_2 C 0.07339(15) 0.33083(19) 0.45444(18)
H6_2 H 0.105357 0.379798 0.480121
C19_2 C 0.03125(15) 0.0055(2) 0.4394(2)
H7_2 H 0.062416 0.052575 0.474790
O20_2 O 0.16330(11) 0.04019(15) 0.07509(14)
O22_2 O 0.30061(10) 0.13080(13) 0.16373(12)
Co2_2 Co 0.23529(2) 0.75581(2) 0.64241(2)
O3_2 O 0.29755(13) 0.95170(15) 0.53807(14)
O7_2 O 0.16330(11) 0.95981(15) 0.57509(14)
O8_2 O 0.14574(10) 0.81273(13) 0.54063(12)
O13_2 O 0.22282(12) 0.88172(14) 0.18008(14)
D2_2 D 0.247649 0.835795 0.199481
D3_2 D 0.205159 0.884695 0.206891
O14_2 O 0.35924(12) 0.96638(16) 0.28673(14)
D4_2 D 0.388943 0.968611 0.276334
D5_2 D 0.379013 0.994641 0.333284
O15_2 O 0.30061(10) 0.86920(13) 0.66373(12)
D6_2 D 0.347719 0.858485 0.714006
D7_2 D 0.301779 0.875765 0.616056
O16_2 O 0.25572(12) 0.69913(15) 0.56229(14)
D8_2 D 0.241219 0.643590 0.549902
D9_2 D 0.300159 0.694330 0.588832
O17_2 O 0.17774(11) 0.63514(14) 0.61743(13)
D10_2 D 0.183524 0.617671 0.662525
D11_2 D 0.131574 0.639991 0.581565
C4_2 C 0.12679(14) 0.89472(19) 0.53000(17)
C20_2 C 0.05293(15) 0.9154(2) 0.45566(19)
C21_2 C 0.00706(15) 0.8465(2) 0.4040(2)
H8_2 H 0.022363 0.785330 0.414444
Co3_2 Co 0.26072(2) 0.99101(2) 0.67911(2)
O18_2 O 0.21991(11) 0.79202(14) 0.73051(12)
O19_2 O 0.28018(12) 0.94363(14) 0.10426(13)
O21_2 O 0.32418(10) 0.68572(13) 0.73846(12)
O9_2 O 0.91027(12) 0.71701(16) 0.28318(17)
O10_2 O 0.82418(10) 0.81428(13) 0.23846(12)
C5_2 C 0.88752(15) 0.7939(2) 0.28219(18)
C22_2 C 0.93843(15) 0.8679(2) 0.3369(2)
C23_2 C 0.91633(16) 0.9577(2) 0.3203(2)
H9_2 H 0.869528 0.972276 0.274974
O3_3 O 0.79755(13) 0.54830(15) 0.03807(14)
O5_3 O 0.56706(12) 0.06103(16) 0.06675(15)
O6_2 O 0.46629(12) 0.12645(15) 0.02235(15)
D1_2 D 0.468268 0.088928 0.055487
O8_3 O 0.64574(10) 0.68727(13) 0.04063(12)
D6_3 D 0.847719 0.641515 0.214006
D7_3 D 0.801779 0.624235 0.116056
O16_3 O 0.75572(12) 0.80087(15) 0.06229(14)
D8_3 D 0.741219 0.856410 0.049902
D9_3 D 0.800159 0.805670 0.088832
O17_3 O 0.67774(11) 0.86486(14) 0.11743(13)
D10_3 D 0.683524 0.882329 0.162525
D11_3 D 0.631574 0.860009 0.081565
C2_3 C 0.77414(15) 0.47257(19) 0.04071(18)
C3_3 C 0.52137(15) 0.1162(2) 0.02335(19)
C4_3 C 0.62679(14) 0.60528(19) 0.03000(17)
H2_3 H 0.688682 0.337308 0.001952
O1_3 O 0.74707(12) 0.43924(14) 0.76267(14)
O9_3 O 0.41027(12) 0.78299(16) 0.78318(17)
O11_3 O 0.62245(13) 0.21227(15) 0.88633(16)
O12_2 O 0.43693(11) 0.38717(14) 0.84978(15)
O13_3 O 0.72282(12) 0.61828(14) 0.68008(14)
D2_3 D 0.747649 0.664205 0.699481
D3_3 D 0.705159 0.615305 0.706891
O14_3 O 0.85924(12) 0.53362(16) 0.78673(14)
D4_3 D 0.888943 0.531389 0.776334
D5_3 D 0.879013 0.505359 0.833284
C1_3 C 0.72863(14) 0.36345(19) 0.77085(17)
C5_3 C 0.38752(15) 0.7061(2) 0.78219(18)
C6_3 C 0.71595(14) 0.35678(19) 0.83626(17)
C7_3 C 0.74627(14) 0.42032(18) 0.90185(17)
H1_3 H 0.772681 0.469154 0.903573
C8_3 C 0.73745(15) 0.41148(18) 0.96461(17)
C9_3 C 0.69525(16) 0.3430(2) 0.95964(19)
C10_3 C 0.66310(16) 0.28335(19) 0.89188(19)
C11_3 C 0.67401(15) 0.28806(19) 0.83119(18)
H3_3 H 0.653159 0.244984 0.786616
C12_3 C 0.57601(15) 0.2308(2) 0.90393(18)
C13_3 C 0.53199(16) 0.30514(19) 0.86880(18)
H4_3 H 0.535066 0.347665 0.835351
C14_2 C 0.48328(14) 0.31569(19) 0.88385(18)
C15_2 C 0.47664(15) 0.25330(19) 0.93048(19)
H5_2 H 0.441395 0.259933 0.937612
C16_3 C 0.52281(15) 0.18043(19) 0.96683(18)
C17_3 C 0.57339(15) 0.16917(19) 0.95444(18)
H6_3 H 0.605357 0.120202 0.980121
C18_2 C 0.46329(16) 0.4746(2) 0.8706(2)
C19_3 C 0.53125(15) 0.4945(2) 0.9394(2)
H7_3 H 0.562416 0.447425 0.974790
C20_3 C 0.55293(15) 0.5846(2) 0.95566(19)
C21_3 C 0.50706(15) 0.6535(2) 0.9040(2)
H8_3 H 0.522363 0.714670 0.914444
C22_3 C 0.43843(15) 0.6321(2) 0.8369(2)
C23_3 C 0.41633(16) 0.5423(2) 0.8203(2)
H9_3 H 0.369528 0.527724 0.774974
O3_4 O 0.29755(13) 0.04830(15) 0.03807(14)
O8_4 O 0.14574(10) 0.18727(13) 0.04063(12)
D6_4 D 0.347719 0.141515 0.214006
D7_4 D 0.301779 0.124235 0.116056
O16_4 O 0.25572(12) 0.30087(15) 0.06229(14)
D8_4 D 0.241219 0.356410 0.049902
D9_4 D 0.300159 0.305670 0.088832
O17_4 O 0.17774(11) 0.36486(14) 0.11743(13)
D10_4 D 0.183524 0.382329 0.162525
D11_4 D 0.131574 0.360009 0.081565
C4_4 C 0.12679(14) 0.10528(19) 0.03000(17)
O13_4 O 0.22282(12) 0.11828(14) 0.68008(14)
D2_4 D 0.247649 0.164205 0.699481
D3_4 D 0.205159 0.115305 0.706891
O14_4 O 0.35924(12) 0.03362(16) 0.78673(14)
D4_4 D 0.388943 0.031389 0.776334
D5_4 D 0.379013 0.005359 0.833284
C20_4 C 0.05293(15) 0.0846(2) 0.95566(19)
C21_4 C 0.00706(15) 0.1535(2) 0.9040(2)
H8_4 H 0.022363 0.214670 0.914444
O5_4 O 0.06706(12) 0.56103(16) 0.06675(15)
C2_4 C 0.27414(15) 0.97257(19) 0.04071(18)
C3_4 C 0.02137(15) 0.6162(2) 0.02335(19)
H2_4 H 0.188682 0.837308 0.001952
O1_4 O 0.24707(12) 0.93924(14) 0.76267(14)
O11_4 O 0.12245(13) 0.71227(15) 0.88633(16)
C1_4 C 0.22863(14) 0.86345(19) 0.77085(17)
C6_4 C 0.21595(14) 0.85678(19) 0.83626(17)
C7_4 C 0.24627(14) 0.92032(18) 0.90185(17)
H1_4 H 0.272681 0.969154 0.903573
C8_4 C 0.23745(15) 0.91148(18) 0.96461(17)
C9_4 C 0.19525(16) 0.8430(2) 0.95964(19)
C10_4 C 0.16310(16) 0.78335(19) 0.89188(19)
C11_4 C 0.17401(15) 0.78806(19) 0.83119(18)
H3_4 H 0.153159 0.744984 0.786616
C12_4 C 0.07601(15) 0.7308(2) 0.90393(18)
C13_4 C 0.03199(16) 0.80514(19) 0.86880(18)
H4_4 H 0.035066 0.847665 0.835351
C16_4 C 0.02281(15) 0.68043(19) 0.96683(18)
C17_4 C 0.07339(15) 0.66917(19) 0.95444(18)
H6_4 H 0.105357 0.620202 0.980121
C19_4 C 0.03125(15) 0.9945(2) 0.9394(2)
H7_4 H 0.062416 0.947425 0.974790
O9_4 O 0.91027(12) 0.28299(16) 0.78318(17)
C5_4 C 0.88752(15) 0.2061(2) 0.78219(18)
C22_4 C 0.93843(15) 0.1321(2) 0.8369(2)
C23_4 C 0.91633(16) 0.0423(2) 0.8203(2)
H9_4 H 0.869528 0.027724 0.774974
Co1_3 Co 0.23928(2) 0.50899(2) 0.32089(2)
O1_5 O 0.25293(12) 0.56076(14) 0.23733(14)
O2_3 O 0.28009(11) 0.70798(14) 0.26949(12)
O9_5 O 0.58973(12) 0.21701(16) 0.21682(17)
O10_3 O 0.67582(10) 0.31428(13) 0.26154(12)
O11_5 O 0.37755(13) 0.78773(15) 0.11367(16)
O12_3 O 0.56307(11) 0.61283(14) 0.15022(15)
O13_5 O 0.27718(12) 0.38172(14) 0.31992(14)
D2_5 D 0.252351 0.335795 0.300519
D3_5 D 0.294841 0.384695 0.293109
O14_5 O 0.14076(12) 0.46638(16) 0.21327(14)
D4_5 D 0.111057 0.468611 0.223666
D5_5 D 0.120987 0.494641 0.166716
C1_5 C 0.27137(14) 0.63655(19) 0.22915(17)
C5_5 C 0.61248(15) 0.2939(2) 0.21781(18)
C6_5 C 0.28405(14) 0.64322(19) 0.16374(17)
C7_5 C 0.25373(14) 0.57968(18) 0.09815(17)
H1_5 H 0.227319 0.530846 0.096427
C8_5 C 0.26255(15) 0.58852(18) 0.03539(17)
C9_5 C 0.30475(16) 0.6570(2) 0.04036(19)
C10_5 C 0.33690(16) 0.71665(19) 0.10812(19)
C11_5 C 0.32599(15) 0.71194(19) 0.16881(18)
H3_5 H 0.346841 0.755016 0.213384
C12_5 C 0.42399(15) 0.7692(2) 0.09607(18)
C13_5 C 0.46801(16) 0.69486(19) 0.13120(18)
H4_5 H 0.464934 0.652335 0.164649
C14_3 C 0.51672(14) 0.68431(19) 0.11615(18)
C15_3 C 0.52336(15) 0.74670(19) 0.06952(19)
H5_3 H 0.558605 0.740067 0.062388
C16_5 C 0.47719(15) 0.81957(19) 0.03317(18)
C17_5 C 0.42661(15) 0.83083(19) 0.04556(18)
H6_5 H 0.394643 0.879798 0.019879
C18_3 C 0.53671(16) 0.5254(2) 0.1294(2)
C19_5 C 0.46875(15) 0.5055(2) 0.0606(2)
H7_5 H 0.437584 0.552575 0.025210
C20_5 C 0.44707(15) 0.4154(2) 0.04434(19)
C21_5 C 0.49294(15) 0.3465(2) 0.0960(2)
H8_5 H 0.477637 0.285330 0.085556
C22_5 C 0.56157(15) 0.3679(2) 0.1631(2)
C23_5 C 0.58367(16) 0.4577(2) 0.1797(2)
H9_5 H 0.630472 0.472276 0.225026
Co4_2 Co 0.26471(2) 0.74419(2) 0.35759(2)
Co5_2 Co 0.76471(2) 0.24419(2) 0.35759(2)
O19_3 O 0.21982(12) 0.44363(14) 0.39574(13)
O20_3 O 0.33670(11) 0.54019(15) 0.42491(14)
O22_3 O 0.19939(10) 0.63080(13) 0.33627(12)
Co2_3 Co 0.26471(2) 0.25581(2) 0.85759(2)
O3_5 O 0.20245(13) 0.45170(15) 0.96193(14)
O4_3 O 0.21982(12) 0.55637(14) 0.89574(13)
O5_5 O 0.43294(12) 0.93897(16) 0.93325(15)
O6_3 O 0.53371(12) 0.87355(15) 0.97765(15)
D1_3 D 0.531732 0.911072 0.944513
O7_3 O 0.33670(11) 0.45981(15) 0.92491(14)
O8_5 O 0.35426(10) 0.31273(13) 0.95937(12)
O15_3 O 0.19939(10) 0.36920(13) 0.83627(12)
D6_5 D 0.152281 0.358485 0.785994
D7_5 D 0.198221 0.375765 0.883944
O16_5 O 0.24428(12) 0.19913(15) 0.93771(14)
D8_5 D 0.258781 0.143590 0.950098
D9_5 D 0.199841 0.194330 0.911168
O17_5 O 0.32226(11) 0.13514(14) 0.88257(13)
D10_5 D 0.316476 0.117671 0.837475
D11_5 D 0.368426 0.139991 0.918435
C2_5 C 0.22586(15) 0.52743(19) 0.95929(18)
C3_5 C 0.47863(15) 0.8838(2) 0.97665(19)
C4_5 C 0.37321(14) 0.39472(19) 0.97000(17)
H2_5 H 0.311318 0.662692 0.998048
Co3_3 Co 0.23928(2) 0.49101(2) 0.82089(2)
O18_3 O 0.28009(11) 0.29202(14) 0.76949(12)
O21_3 O 0.17582(10) 0.18572(13) 0.76154(12)
O9_6 O 0.08973(12) 0.71701(16) 0.21682(17)
O10_4 O 0.17582(10) 0.81428(13) 0.26154(12)
C5_6 C 0.11248(15) 0.7939(2) 0.21781(18)
C22_6 C 0.06157(15) 0.8679(2) 0.1631(2)
C23_6 C 0.08367(16) 0.9577(2) 0.1797(2)
H9_6 H 0.130472 0.972276 0.225026
Co1_4 Co 0.73928(2) 0.00899(2) 0.32089(2)
O1_6 O 0.75293(12) 0.06076(14) 0.23733(14)
O2_4 O 0.78009(11) 0.20798(14) 0.26949(12)
O11_6 O 0.87755(13) 0.28773(15) 0.11367(16)
C1_6 C 0.77137(14) 0.13655(19) 0.22915(17)
C6_6 C 0.78405(14) 0.14322(19) 0.16374(17)
C7_6 C 0.75373(14) 0.07968(18) 0.09815(17)
H1_6 H 0.727319 0.030846 0.096427
C8_6 C 0.76255(15) 0.08852(18) 0.03539(17)
C9_6 C 0.80475(16) 0.1570(2) 0.04036(19)
C10_6 C 0.83690(16) 0.21665(19) 0.10812(19)
C11_6 C 0.82599(15) 0.21194(19) 0.16881(18)
H3_6 H 0.846841 0.255016 0.213384
C12_6 C 0.92399(15) 0.2692(2) 0.09607(18)
C13_6 C 0.96801(16) 0.19486(19) 0.13120(18)
H4_6 H 0.964934 0.152335 0.164649
C16_6 C 0.97719(15) 0.31957(19) 0.03317(18)
C17_6 C 0.92661(15) 0.33083(19) 0.04556(18)
H6_6 H 0.894643 0.379798 0.019879
C19_6 C 0.96875(15) 0.0055(2) 0.0606(2)
H7_6 H 0.937584 0.052575 0.025210
O20_4 O 0.83670(11) 0.04019(15) 0.42491(14)
O22_4 O 0.69939(10) 0.13080(13) 0.33627(12)
O4_4 O 0.71982(12) 0.05637(14) 0.89574(13)
O5_6 O 0.93294(12) 0.43897(16) 0.93325(15)
C2_6 C 0.72586(15) 0.02743(19) 0.95929(18)
C3_6 C 0.97863(15) 0.3838(2) 0.97665(19)
H2_6 H 0.811318 0.162692 0.998048
O13_6 O 0.77718(12) 0.88172(14) 0.31992(14)
D2_6 D 0.752351 0.835795 0.300519
D3_6 D 0.794841 0.884695 0.293109
O14_6 O 0.64076(12) 0.96638(16) 0.21327(14)
D4_6 D 0.611057 0.968611 0.223666
D5_6 D 0.620987 0.994641 0.166716
C20_6 C 0.94707(15) 0.9154(2) 0.04434(19)
C21_6 C 0.99294(15) 0.8465(2) 0.0960(2)
H8_6 H 0.977637 0.785330 0.085556
O19_4 O 0.71982(12) 0.94363(14) 0.39574(13)
Co2_4 Co 0.76471(2) 0.75581(2) 0.85759(2)
O3_6 O 0.70245(13) 0.95170(15) 0.96193(14)
O7_4 O 0.83670(11) 0.95981(15) 0.92491(14)
O8_6 O 0.85426(10) 0.81273(13) 0.95937(12)
O15_4 O 0.69939(10) 0.86920(13) 0.83627(12)
D6_6 D 0.652281 0.858485 0.785994
D7_6 D 0.698221 0.875765 0.883944
O16_6 O 0.74428(12) 0.69913(15) 0.93771(14)
D8_6 D 0.758781 0.643590 0.950098
D9_6 D 0.699841 0.694330 0.911168
O17_6 O 0.82226(11) 0.63514(14) 0.88257(13)
D10_6 D 0.816476 0.617671 0.837475
D11_6 D 0.868426 0.639991 0.918435
C4_6 C 0.87321(14) 0.89472(19) 0.97000(17)
Co3_4 Co 0.73928(2) 0.99101(2) 0.82089(2)
O18_4 O 0.78009(11) 0.79202(14) 0.76949(12)
O21_4 O 0.67582(10) 0.68572(13) 0.76154(12)
O1_7 O 0.25293(12) 0.43924(14) 0.73733(14)
O3_7 O 0.20245(13) 0.54830(15) 0.46193(14)
O5_7 O 0.43294(12) 0.06103(16) 0.43325(15)
O6_4 O 0.53371(12) 0.12645(15) 0.47765(15)
D1_4 D 0.531732 0.088928 0.444513
O8_7 O 0.35426(10) 0.68727(13) 0.45937(12)
O9_7 O 0.58973(12) 0.78299(16) 0.71682(17)
O11_7 O 0.37755(13) 0.21227(15) 0.61367(16)
O12_4 O 0.56307(11) 0.38717(14) 0.65022(15)
O13_7 O 0.27718(12) 0.61828(14) 0.81992(14)
D2_7 D 0.252351 0.664205 0.800519
D3_7 D 0.294841 0.615305 0.793109
O14_7 O 0.14076(12) 0.53362(16) 0.71327(14)
D4_7 D 0.111057 0.531389 0.723666
D5_7 D 0.120987 0.505359 0.666716
D6_7 D 0.152281 0.641515 0.285994
D7_7 D 0.198221 0.624235 0.383944
O16_7 O 0.24428(12) 0.80087(15) 0.43771(14)
D8_7 D 0.258781 0.856410 0.450098
D9_7 D 0.199841 0.805670 0.411168
O17_7 O 0.32226(11) 0.86486(14) 0.38257(13)
D10_7 D 0.316476 0.882329 0.337475
D11_7 D 0.368426 0.860009 0.418435
C1_7 C 0.27137(14) 0.36345(19) 0.72915(17)
C2_7 C 0.22586(15) 0.47257(19) 0.45929(18)
C3_7 C 0.47863(15) 0.1162(2) 0.47665(19)
C4_7 C 0.37321(14) 0.60528(19) 0.47000(17)
C5_7 C 0.61248(15) 0.7061(2) 0.71781(18)
C6_7 C 0.28405(14) 0.35678(19) 0.66374(17)
C7_7 C 0.25373(14) 0.42032(18) 0.59815(17)
H1_7 H 0.227319 0.469154 0.596427
C8_7 C 0.26255(15) 0.41148(18) 0.53539(17)
C9_7 C 0.30475(16) 0.3430(2) 0.54036(19)
H2_7 H 0.311318 0.337308 0.498048
C10_7 C 0.33690(16) 0.28335(19) 0.60812(19)
C11_7 C 0.32599(15) 0.28806(19) 0.66881(18)
H3_7 H 0.346841 0.244984 0.713384
C12_7 C 0.42399(15) 0.2308(2) 0.59607(18)
C13_7 C 0.46801(16) 0.30514(19) 0.63120(18)
H4_7 H 0.464934 0.347665 0.664649
C14_4 C 0.51672(14) 0.31569(19) 0.61615(18)
C15_4 C 0.52336(15) 0.25330(19) 0.56952(19)
H5_4 H 0.558605 0.259933 0.562388
C16_7 C 0.47719(15) 0.18043(19) 0.53317(18)
C17_7 C 0.42661(15) 0.16917(19) 0.54556(18)
H6_7 H 0.394643 0.120202 0.519879
C18_4 C 0.53671(16) 0.4746(2) 0.6294(2)
C19_7 C 0.46875(15) 0.4945(2) 0.5606(2)
H7_7 H 0.437584 0.447425 0.525210
C20_7 C 0.44707(15) 0.5846(2) 0.54434(19)
C21_7 C 0.49294(15) 0.6535(2) 0.5960(2)
H8_7 H 0.477637 0.714670 0.585556
C22_7 C 0.56157(15) 0.6321(2) 0.6631(2)
C23_7 C 0.58367(16) 0.5423(2) 0.6797(2)
H9_7 H 0.630472 0.527724 0.725026
O9_8 O 0.08973(12) 0.28299(16) 0.71682(17)
C5_8 C 0.11248(15) 0.2061(2) 0.71781(18)
C22_8 C 0.06157(15) 0.1321(2) 0.6631(2)
C23_8 C 0.08367(16) 0.0423(2) 0.6797(2)
H9_8 H 0.130472 0.027724 0.725026
O3_8 O 0.70245(13) 0.04830(15) 0.46193(14)
O8_8 O 0.85426(10) 0.18727(13) 0.45937(12)
O13_8 O 0.77718(12) 0.11828(14) 0.81992(14)
D2_8 D 0.752351 0.164205 0.800519
D3_8 D 0.794841 0.115305 0.793109
O14_8 O 0.64076(12) 0.03362(16) 0.71327(14)
D4_8 D 0.611057 0.031389 0.723666
D5_8 D 0.620987 0.005359 0.666716
D6_8 D 0.652281 0.141515 0.285994
D7_8 D 0.698221 0.124235 0.383944
O16_8 O 0.74428(12) 0.30087(15) 0.43771(14)
D8_8 D 0.758781 0.356410 0.450098
D9_8 D 0.699841 0.305670 0.411168
O17_8 O 0.82226(11) 0.36486(14) 0.38257(13)
D10_8 D 0.816476 0.382329 0.337475
D11_8 D 0.868426 0.360009 0.418435
C4_8 C 0.87321(14) 0.10528(19) 0.47000(17)
C20_8 C 0.94707(15) 0.0846(2) 0.54434(19)
C21_8 C 0.99294(15) 0.1535(2) 0.5960(2)
H8_8 H 0.977637 0.214670 0.585556
O1_8 O 0.75293(12) 0.93924(14) 0.73733(14)
O5_8 O 0.93294(12) 0.56103(16) 0.43325(15)
O11_8 O 0.87755(13) 0.71227(15) 0.61367(16)
C1_8 C 0.77137(14) 0.86345(19) 0.72915(17)
C2_8 C 0.72586(15) 0.97257(19) 0.45929(18)
C3_8 C 0.97863(15) 0.6162(2) 0.47665(19)
C6_8 C 0.78405(14) 0.85678(19) 0.66374(17)
C7_8 C 0.75373(14) 0.92032(18) 0.59815(17)
H1_8 H 0.727319 0.969154 0.596427
C8_8 C 0.76255(15) 0.91148(18) 0.53539(17)
C9_8 C 0.80475(16) 0.8430(2) 0.54036(19)
H2_8 H 0.811318 0.837308 0.498048
C10_8 C 0.83690(16) 0.78335(19) 0.60812(19)
C11_8 C 0.82599(15) 0.78806(19) 0.66881(18)
H3_8 H 0.846841 0.744984 0.713384
C12_8 C 0.92399(15) 0.7308(2) 0.59607(18)
C13_8 C 0.96801(16) 0.80514(19) 0.63120(18)
H4_8 H 0.964934 0.847665 0.664649
C16_8 C 0.97719(15) 0.68043(19) 0.53317(18)
C17_8 C 0.92661(15) 0.66917(19) 0.54556(18)
H6_8 H 0.894643 0.620202 0.519879
C19_8 C 0.96875(15) 0.9945(2) 0.5606(2)
H7_8 H 0.937584 0.947425 0.525210
O6_5 O 0.96629(12) 0.37355(15) 0.52235(15)
D1_5 D 0.968268 0.411072 0.555487
O12_5 O 0.93693(11) 0.11283(14) 0.34978(15)
C14_5 C 0.98328(14) 0.18431(19) 0.38385(18)
C15_5 C 0.97664(15) 0.24670(19) 0.43048(19)
H5_5 H 0.941395 0.240067 0.437612
C18_5 C 0.96329(16) 0.0254(2) 0.3706(2)
O12_6 O 0.06307(11) 0.11283(14) 0.15022(15)
C14_6 C 0.01672(14) 0.18431(19) 0.11615(18)
C15_6 C 0.02336(15) 0.24670(19) 0.06952(19)
H5_6 H 0.058605 0.240067 0.062388
C18_6 C 0.03671(16) 0.0254(2) 0.1294(2)
O6_6 O 0.03371(12) 0.37355(15) 0.97765(15)
D1_6 D 0.031732 0.411072 0.944513
O6_7 O 0.03371(12) 0.62645(15) 0.47765(15)
D1_7 D 0.031732 0.588928 0.444513
O12_7 O 0.06307(11) 0.88717(14) 0.65022(15)
C14_7 C 0.01672(14) 0.81569(19) 0.61615(18)
C15_7 C 0.02336(15) 0.75330(19) 0.56952(19)
H5_7 H 0.058605 0.759933 0.562388
C18_7 C 0.03671(16) 0.9746(2) 0.6294(2)
O6_8 O 0.96629(12) 0.62645(15) 0.02235(15)
D1_8 D 0.968268 0.588928 0.055487
O12_8 O 0.93693(11) 0.88717(14) 0.84978(15)
C14_8 C 0.98328(14) 0.81569(19) 0.88385(18)
C15_8 C 0.97664(15) 0.75330(19) 0.93048(19)
H5_8 H 0.941395 0.759933 0.937612
C18_8 C 0.96329(16) 0.9746(2) 0.8706(2)
loop_
_geom_bond_atom_site_label_1
_geom_bond_atom_site_label_2
_geom_bond_site_symmetry_1
_geom_bond_site_symmetry_2
Co1 O1 1_555 1_555
Co2 O8 1_555 1_555
O1 C1 1_555 1_555
O2 C1 1_555 1_555
O3 C2 1_555 1_555
O4 C2 1_555 1_555
O5 C3 1_555 1_555
O6 D1 1_555 1_555
O7 C4 1_555 1_555
O8 C4 1_555 1_555
O9 C5 1_555 1_555
O10 C5 1_555 1_555
O11 C10 1_555 1_555
O12 C14 1_555 1_555
O13 Co1 1_555 1_555
D2 O13 1_555 1_555
D3 O13 1_555 1_555
O14 Co1 1_555 1_555
D4 O14 1_555 1_555
D5 O14 1_555 1_555
O15 Co2 1_555 1_555
D6 O15 1_555 1_555
D7 O15 1_555 1_555
O16 Co2 1_555 1_555
D8 O16 1_555 1_555
D9 O16 1_555 1_555
O17 Co2 1_555 1_555
D10 O17 1_555 1_555
D11 O17 1_555 1_555
C1 C6 1_555 1_555
C2 C8 1_555 1_555
C3 O6 1_555 1_555
C4 C20 1_555 1_555
C5 C22 1_555 1_555
C6 C7 1_555 1_555
C7 H1 1_555 1_555
C8 C7 1_555 1_555
C9 C8 1_555 1_555
H2 C9 1_555 1_555
C10 C9 1_555 1_555
C11 C6 1_555 1_555
H3 C11 1_555 1_555
C12 O11 1_555 1_555
C13 C12 1_555 1_555
H4 C13 1_555 1_555
C14 C13 1_555 1_555
C15 C14 1_555 1_555
H5 C15 1_555 1_555
C16 C3 1_555 1_555
C17 C12 1_555 1_555
H6 C17 1_555 1_555
C18 O12 1_555 1_555
C19 C18 1_555 1_555
H7 C19 1_555 1_555
C20 C19 1_555 1_555
C21 C20 1_555 1_555
H8 C21 1_555 1_555
C22 C21 1_555 1_555
C23 C18 1_555 1_555
H9 C23 1_555 1_555
Co3 O4 1_555 1_555
Co4 O2 1_555 1_555
Co5 O10 1_555 1_555
O18 Co2 1_555 1_555
O19 Co1 1_555 1_555
O20 Co1 1_555 1_555
O21 Co2 1_555 1_555
O22 Co1 1_555 1_555
O7 Co3 1_555 1_555
O15 Co3 1_555 1_555
C10 C11 1_555 1_555
C15 C16 1_555 1_555
C16 C17 1_555 1_555
C22 C23 1_555 1_555
Co4 O22 1_555 1_555
Co1_2 O1_2 1_555 1_555
O1_2 C1_2 1_555 1_555
O2_2 C1_2 1_555 1_555
O4_2 C2_2 1_555 1_555
O5_2 C3_2 1_555 1_555
O11_2 C10_2 1_555 1_555
C1_2 C6_2 1_555 1_555
C2_2 C8_2 1_555 1_555
C6_2 C7_2 1_555 1_555
C7_2 H1_2 1_555 1_555
C8_2 C7_2 1_555 1_555
C9_2 C8_2 1_555 1_555
H2_2 C9_2 1_555 1_555
C10_2 C9_2 1_555 1_555
C11_2 C6_2 1_555 1_555
H3_2 C11_2 1_555 1_555
C12_2 O11_2 1_555 1_555
C13_2 C12_2 1_555 1_555
H4_2 C13_2 1_555 1_555
C16_2 C3_2 1_555 1_555
C17_2 C12_2 1_555 1_555
H6_2 C17_2 1_555 1_555
H7_2 C19_2 1_555 1_555
Co5 O2_2 1_555 1_555
O20_2 Co1_2 1_555 1_555
O22_2 Co1_2 1_555 1_555
C10_2 C11_2 1_555 1_555
C16_2 C17_2 1_555 1_555
Co5 O22_2 1_555 1_555
Co2_2 O8_2 1_555 1_555
O7_2 C4_2 1_555 1_555
O8_2 C4_2 1_555 1_555
D2_2 O13_2 1_555 1_555
D3_2 O13_2 1_555 1_555
D4_2 O14_2 1_555 1_555
D5_2 O14_2 1_555 1_555
O15_2 Co2_2 1_555 1_555
D6_2 O15_2 1_555 1_555
D7_2 O15_2 1_555 1_555
O16_2 Co2_2 1_555 1_555
D8_2 O16_2 1_555 1_555
D9_2 O16_2 1_555 1_555
O17_2 Co2_2 1_555 1_555
D10_2 O17_2 1_555 1_555
D11_2 O17_2 1_555 1_555
C4_2 C20_2 1_555 1_555
C21_2 C20_2 1_555 1_555
H8_2 C21_2 1_555 1_555
O18_2 Co2_2 1_555 1_555
O21_2 Co2_2 1_555 1_555
O7_2 Co3_2 1_555 1_555
O15_2 Co3_2 1_555 1_555
O9_2 C5_2 1_555 1_555
O10_2 C5_2 1_555 1_555
C5_2 C22_2 1_555 1_555
H9_2 C23_2 1_555 1_555
Co4 O10_2 1_555 1_555
C22_2 C23_2 1_555 1_555
Co4 O8_3 1_555 1_555
O3_3 C2_3 1_555 1_555
O19 C2_3 1_555 1_555
O5_3 C3_3 1_555 1_555
O6_2 D1_2 1_555 1_555
O20 C4_3 1_555 1_555
O8_3 C4_3 1_555 1_555
D6_3 O22 1_555 1_555
D7_3 O22 1_555 1_555
O16_3 Co4 1_555 1_555
D8_3 O16_3 1_555 1_555
D9_3 O16_3 1_555 1_555
O17_3 Co4 1_555 1_555
D10_3 O17_3 1_555 1_555
D11_3 O17_3 1_555 1_555
C3_3 O6_2 1_555 1_555
Co3 O1_3 1_555 1_555
O1_3 C1_3 1_555 1_555
O18 C1_3 1_555 1_555
O9_3 C5_3 1_555 1_555
O21_2 C5_3 1_555 1_555
O11_3 C10_3 1_555 1_555
O12_2 C14_2 1_555 1_555
O13_3 Co3 1_555 1_555
D2_3 O13_3 1_555 1_555
D3_3 O13_3 1_555 1_555
O14_3 Co3 1_555 1_555
D4_3 O14_3 1_555 1_555
D5_3 O14_3 1_555 1_555
C1_3 C6_3 1_555 1_555
C5_3 C22_3 1_555 1_555
C6_3 C7_3 1_555 1_555
C7_3 H1_3 1_555 1_555
C8_3 C7_3 1_555 1_555
C9_3 C8_3 1_555 1_555
C10_3 C9_3 1_555 1_555
C11_3 C6_3 1_555 1_555
H3_3 C11_3 1_555 1_555
C12_3 O11_3 1_555 1_555
C13_3 C12_3 1_555 1_555
H4_3 C13_3 1_555 1_555
C14_2 C13_3 1_555 1_555
C15_2 C14_2 1_555 1_555
H5_2 C15_2 1_555 1_555
C17_3 C12_3 1_555 1_555
H6_3 C17_3 1_555 1_555
C18_2 O12_2 1_555 1_555
C19_3 C18_2 1_555 1_555
H7_3 C19_3 1_555 1_555
C20_3 C19_3 1_555 1_555
C21_3 C20_3 1_555 1_555
H8_3 C21_3 1_555 1_555
C22_3 C21_3 1_555 1_555
C23_3 C18_2 1_555 1_555
H9_3 C23_3 1_555 1_555
C10_3 C11_3 1_555 1_555
C15_2 C16_3 1_555 1_555
C16_3 C17_3 1_555 1_555
C22_3 C23_3 1_555 1_555
Co5 O8_4 1_555 1_555
O20_2 C4_4 1_555 1_555
O8_4 C4_4 1_555 1_555
D6_4 O22_2 1_555 1_555
D7_4 O22_2 1_555 1_555
O16_4 Co5 1_555 1_555
D8_4 O16_4 1_555 1_555
D9_4 O16_4 1_555 1_555
O17_4 Co5 1_555 1_555
D10_4 O17_4 1_555 1_555
D11_4 O17_4 1_555 1_555
D2_4 O13_4 1_555 1_555
D3_4 O13_4 1_555 1_555
D4_4 O14_4 1_555 1_555
D5_4 O14_4 1_555 1_555
C21_4 C20_4 1_555 1_555
H8_4 C21_4 1_555 1_555
O19_2 C2_4 1_555 1_555
O5_4 C3_4 1_555 1_555
Co3_2 O1_4 1_555 1_555
O1_4 C1_4 1_555 1_555
O18_2 C1_4 1_555 1_555
O11_4 C10_4 1_555 1_555
C1_4 C6_4 1_555 1_555
C6_4 C7_4 1_555 1_555
C7_4 H1_4 1_555 1_555
C8_4 C7_4 1_555 1_555
C9_4 C8_4 1_555 1_555
C10_4 C9_4 1_555 1_555
C11_4 C6_4 1_555 1_555
H3_4 C11_4 1_555 1_555
C12_4 O11_4 1_555 1_555
C13_4 C12_4 1_555 1_555
H4_4 C13_4 1_555 1_555
C17_4 C12_4 1_555 1_555
H6_4 C17_4 1_555 1_555
H7_4 C19_4 1_555 1_555
C10_4 C11_4 1_555 1_555
C16_4 C17_4 1_555 1_555
O9_4 C5_4 1_555 1_555
O21 C5_4 1_555 1_555
C5_4 C22_4 1_555 1_555
H9_4 C23_4 1_555 1_555
C22_4 C23_4 1_555 1_555
Co1_3 O1_5 1_555 1_555
O1_5 C1_5 1_555 1_555
O2_3 C1_5 1_555 1_555
O9_5 C5_5 1_555 1_555
O10_3 C5_5 1_555 1_555
O11_5 C10_5 1_555 1_555
O12_3 C14_3 1_555 1_555
O13_5 Co1_3 1_555 1_555
D2_5 O13_5 1_555 1_555
D3_5 O13_5 1_555 1_555
O14_5 Co1_3 1_555 1_555
D4_5 O14_5 1_555 1_555
D5_5 O14_5 1_555 1_555
C1_5 C6_5 1_555 1_555
C5_5 C22_5 1_555 1_555
C6_5 C7_5 1_555 1_555
C7_5 H1_5 1_555 1_555
C8_5 C7_5 1_555 1_555
C9_5 C8_5 1_555 1_555
C10_5 C9_5 1_555 1_555
C11_5 C6_5 1_555 1_555
H3_5 C11_5 1_555 1_555
C12_5 O11_5 1_555 1_555
C13_5 C12_5 1_555 1_555
H4_5 C13_5 1_555 1_555
C14_3 C13_5 1_555 1_555
C15_3 C14_3 1_555 1_555
H5_3 C15_3 1_555 1_555
C17_5 C12_5 1_555 1_555
H6_5 C17_5 1_555 1_555
C18_3 O12_3 1_555 1_555
C19_5 C18_3 1_555 1_555
H7_5 C19_5 1_555 1_555
C20_5 C19_5 1_555 1_555
C21_5 C20_5 1_555 1_555
H8_5 C21_5 1_555 1_555
C22_5 C21_5 1_555 1_555
C23_5 C18_3 1_555 1_555
H9_5 C23_5 1_555 1_555
Co4_2 O2_3 1_555 1_555
Co5_2 O10_3 1_555 1_555
O19_3 Co1_3 1_555 1_555
O20_3 Co1_3 1_555 1_555
O22_3 Co1_3 1_555 1_555
C10_5 C11_5 1_555 1_555
C15_3 C16_5 1_555 1_555
C16_5 C17_5 1_555 1_555
C22_5 C23_5 1_555 1_555
Co4_2 O22_3 1_555 1_555
Co2_3 O8_5 1_555 1_555
O3_5 C2_5 1_555 1_555
O4_3 C2_5 1_555 1_555
O5_5 C3_5 1_555 1_555
O6_3 D1_3 1_555 1_555
O7_3 C4_5 1_555 1_555
O8_5 C4_5 1_555 1_555
O15_3 Co2_3 1_555 1_555
D6_5 O15_3 1_555 1_555
D7_5 O15_3 1_555 1_555
O16_5 Co2_3 1_555 1_555
D8_5 O16_5 1_555 1_555
D9_5 O16_5 1_555 1_555
O17_5 Co2_3 1_555 1_555
D10_5 O17_5 1_555 1_555
D11_5 O17_5 1_555 1_555
C3_5 O6_3 1_555 1_555
Co3_3 O4_3 1_555 1_555
O18_3 Co2_3 1_555 1_555
O21_3 Co2_3 1_555 1_555
O7_3 Co3_3 1_555 1_555
O15_3 Co3_3 1_555 1_555
O9_6 C5_6 1_555 1_555
O10_4 C5_6 1_555 1_555
C5_6 C22_6 1_555 1_555
H9_6 C23_6 1_555 1_555
Co4_2 O10_4 1_555 1_555
C22_6 C23_6 1_555 1_555
Co1_4 O1_6 1_555 1_555
O1_6 C1_6 1_555 1_555
O2_4 C1_6 1_555 1_555
O11_6 C10_6 1_555 1_555
C1_6 C6_6 1_555 1_555
C6_6 C7_6 1_555 1_555
C7_6 H1_6 1_555 1_555
C8_6 C7_6 1_555 1_555
C9_6 C8_6 1_555 1_555
C10_6 C9_6 1_555 1_555
C11_6 C6_6 1_555 1_555
H3_6 C11_6 1_555 1_555
C12_6 O11_6 1_555 1_555
C13_6 C12_6 1_555 1_555
H4_6 C13_6 1_555 1_555
C17_6 C12_6 1_555 1_555
H6_6 C17_6 1_555 1_555
H7_6 C19_6 1_555 1_555
Co5_2 O2_4 1_555 1_555
O20_4 Co1_4 1_555 1_555
O22_4 Co1_4 1_555 1_555
C10_6 C11_6 1_555 1_555
C16_6 C17_6 1_555 1_555
Co5_2 O22_4 1_555 1_555
O4_4 C2_6 1_555 1_555
O5_6 C3_6 1_555 1_555
D2_6 O13_6 1_555 1_555
D3_6 O13_6 1_555 1_555
D4_6 O14_6 1_555 1_555
D5_6 O14_6 1_555 1_555
C21_6 C20_6 1_555 1_555
H8_6 C21_6 1_555 1_555
Co2_4 O8_6 1_555 1_555
O7_4 C4_6 1_555 1_555
O8_6 C4_6 1_555 1_555
O15_4 Co2_4 1_555 1_555
D6_6 O15_4 1_555 1_555
D7_6 O15_4 1_555 1_555
O16_6 Co2_4 1_555 1_555
D8_6 O16_6 1_555 1_555
D9_6 O16_6 1_555 1_555
O17_6 Co2_4 1_555 1_555
D10_6 O17_6 1_555 1_555
D11_6 O17_6 1_555 1_555
O18_4 Co2_4 1_555 1_555
O21_4 Co2_4 1_555 1_555
O7_4 Co3_4 1_555 1_555
O15_4 Co3_4 1_555 1_555
Co3_3 O1_7 1_555 1_555
Co4_2 O8_7 1_555 1_555
O1_7 C1_7 1_555 1_555
O18_3 C1_7 1_555 1_555
O3_7 C2_7 1_555 1_555
O19_3 C2_7 1_555 1_555
O5_7 C3_7 1_555 1_555
O6_4 D1_4 1_555 1_555
O20_3 C4_7 1_555 1_555
O8_7 C4_7 1_555 1_555
O9_7 C5_7 1_555 1_555
O21_4 C5_7 1_555 1_555
O11_7 C10_7 1_555 1_555
O12_4 C14_4 1_555 1_555
O13_7 Co3_3 1_555 1_555
D2_7 O13_7 1_555 1_555
D3_7 O13_7 1_555 1_555
O14_7 Co3_3 1_555 1_555
D4_7 O14_7 1_555 1_555
D5_7 O14_7 1_555 1_555
D6_7 O22_3 1_555 1_555
D7_7 O22_3 1_555 1_555
O16_7 Co4_2 1_555 1_555
D8_7 O16_7 1_555 1_555
D9_7 O16_7 1_555 1_555
O17_7 Co4_2 1_555 1_555
D10_7 O17_7 1_555 1_555
D11_7 O17_7 1_555 1_555
C1_7 C6_7 1_555 1_555
C2_7 C8_7 1_555 1_555
C3_7 O6_4 1_555 1_555
C4_7 C20_7 1_555 1_555
C5_7 C22_7 1_555 1_555
C6_7 C7_7 1_555 1_555
C7_7 H1_7 1_555 1_555
C8_7 C7_7 1_555 1_555
C9_7 C8_7 1_555 1_555
H2_7 C9_7 1_555 1_555
C10_7 C9_7 1_555 1_555
C11_7 C6_7 1_555 1_555
H3_7 C11_7 1_555 1_555
C12_7 O11_7 1_555 1_555
C13_7 C12_7 1_555 1_555
H4_7 C13_7 1_555 1_555
C14_4 C13_7 1_555 1_555
C15_4 C14_4 1_555 1_555
H5_4 C15_4 1_555 1_555
C16_7 C3_7 1_555 1_555
C17_7 C12_7 1_555 1_555
H6_7 C17_7 1_555 1_555
C18_4 O12_4 1_555 1_555
C19_7 C18_4 1_555 1_555
H7_7 C19_7 1_555 1_555
C20_7 C19_7 1_555 1_555
C21_7 C20_7 1_555 1_555
H8_7 C21_7 1_555 1_555
C22_7 C21_7 1_555 1_555
C23_7 C18_4 1_555 1_555
H9_7 C23_7 1_555 1_555
C10_7 C11_7 1_555 1_555
C15_4 C16_7 1_555 1_555
C16_7 C17_7 1_555 1_555
C22_7 C23_7 1_555 1_555
O9_8 C5_8 1_555 1_555
O21_3 C5_8 1_555 1_555
C5_8 C22_8 1_555 1_555
H9_8 C23_8 1_555 1_555
C22_8 C23_8 1_555 1_555
Co5_2 O8_8 1_555 1_555
O20_4 C4_8 1_555 1_555
O8_8 C4_8 1_555 1_555
D2_8 O13_8 1_555 1_555
D3_8 O13_8 1_555 1_555
D4_8 O14_8 1_555 1_555
D5_8 O14_8 1_555 1_555
D6_8 O22_4 1_555 1_555
D7_8 O22_4 1_555 1_555
O16_8 Co5_2 1_555 1_555
D8_8 O16_8 1_555 1_555
D9_8 O16_8 1_555 1_555
O17_8 Co5_2 1_555 1_555
D10_8 O17_8 1_555 1_555
D11_8 O17_8 1_555 1_555
C4_8 C20_8 1_555 1_555
C21_8 C20_8 1_555 1_555
H8_8 C21_8 1_555 1_555
Co3_4 O1_8 1_555 1_555
O1_8 C1_8 1_555 1_555
O18_4 C1_8 1_555 1_555
O19_4 C2_8 1_555 1_555
O5_8 C3_8 1_555 1_555
O11_8 C10_8 1_555 1_555
C1_8 C6_8 1_555 1_555
C2_8 C8_8 1_555 1_555
C6_8 C7_8 1_555 1_555
C7_8 H1_8 1_555 1_555
C8_8 C7_8 1_555 1_555
C9_8 C8_8 1_555 1_555
H2_8 C9_8 1_555 1_555
C10_8 C9_8 1_555 1_555
C11_8 C6_8 1_555 1_555
H3_8 C11_8 1_555 1_555
C12_8 O11_8 1_555 1_555
C13_8 C12_8 1_555 1_555
H4_8 C13_8 1_555 1_555
C16_8 C3_8 1_555 1_555
C17_8 C12_8 1_555 1_555
H6_8 C17_8 1_555 1_555
H7_8 C19_8 1_555 1_555
C10_8 C11_8 1_555 1_555
C16_8 C17_8 1_555 1_555
O6_5 D1_5 1_555 1_555
O12_5 C14_5 1_555 1_555
C15_5 C14_5 1_555 1_555
H5_5 C15_5 1_555 1_555
C18_5 O12_5 1_555 1_555
O12_6 C14_6 1_555 1_555
C15_6 C14_6 1_555 1_555
H5_6 C15_6 1_555 1_555
C18_6 O12_6 1_555 1_555
O6_6 D1_6 1_555 1_555
O6_7 D1_7 1_555 1_555
O12_7 C14_7 1_555 1_555
C15_7 C14_7 1_555 1_555
H5_7 C15_7 1_555 1_555
C18_7 O12_7 1_555 1_555
O6_8 D1_8 1_555 1_555
O12_8 C14_8 1_555 1_555
C15_8 C14_8 1_555 1_555
H5_8 C15_8 1_555 1_555
C18_8 O12_8 1_555 1_555

#END
