
###############################################################################
#
# This file contains modified crystal structure data generated from the
# MOF subset of the Cambridge Structural Database (CSD) v543 
# hosted by the Cambridge Crystallographic Data Centre (CCDC).
#
# This work is licensed under the Creative Commons
# Attribution-NonCommercial-ShareAlike 4.0 International License.
# To view a copy of this license, visit
# http://creativecommons.org/licenses/by-nc-sa/4.0/
# or send a letter to
# Creative Commons, PO Box 1866, Mountain View, CA 94042, USA.
#
# CIF created using the CSD Python API on 29 September 2022
# The structure has been converted into the P1 space group
# The structure has a 3D framework
# The original CSD entry VEDGES is in the orthorhombic crystal system
# The original CSD entry VEDGES is in a Sohncke space group
# The framework has been calculated to contain at least 10.0% void space
# The void calculation uses a probe of radius 1.32A, grid spacing 0.4
#
###############################################################################

data_VEDGES
_chemical_formula_moiety         '(C96 H72 Co7 N16 O36)n'
_symmetry_cell_setting           triclinic
_symmetry_space_group_name_H-M   'P 1'
_symmetry_Int_Tables_number      1
_space_group_name_Hall           'P 1'
loop_
_symmetry_equiv_pos_site_id
_symmetry_equiv_pos_as_xyz
1 x,y,z
_cell_length_a                   11.4777(2)
_cell_length_b                   13.3164(3)
_cell_length_c                   26.0307(4)
_cell_angle_alpha                90
_cell_angle_beta                 90
_cell_angle_gamma                90
_cell_volume                     3978.57
loop_
_atom_site_label
_atom_site_type_symbol
_atom_site_fract_x
_atom_site_fract_y
_atom_site_fract_z
N4 N 0.2144(4) 0.4601(4) 0.15860(17)
C4 C 0.1510(6) 0.3765(5) 0.1645(3)
H6 H 0.1908 0.3146 0.1692
C11 C 0.0305(5) 0.3756(5) 0.1640(3)
C22 C 0.1560(5) 0.5462(5) 0.1522(2)
H17 H 0.1992 0.6068 0.1494
C23 C 0.0360(5) 0.5511(5) 0.1494(2)
Co6 Co 0.39778(6) 0.45003(6) 0.13961(2)
Co1 Co 0.65420(6) 0.55574(6) 0.07816(2)
O1 O 0.5785(3) 0.4280(3) 0.11459(13)
H1 H 0.6264 0.4100 0.1449
H2 H 0.5811 0.3706 0.0904
O3 O 0.7819(4) 0.3904(4) 0.1616(2)
O4 O 0.7980(3) 0.5429(3) 0.12680(16)
O5 O 0.4498(4) 0.5683(3) 0.18345(15)
O6 O 0.5145(3) 0.5661(3) 0.02878(14)
O8 O 0.5789(4) 0.6509(3) 0.13384(15)
O9 O 0.3599(3) 0.5533(3) 0.08094(14)
N1 N 0.5696(4) 0.8495(4) 0.29677(18)
N3 N 0.7369(4) 0.4549(4) 0.02264(17)
C1 C 0.8530(5) 0.4422(5) 0.0237(2)
H3 H 0.8986 0.4850 0.0449
C2 C 0.6170(5) 0.8653(5) 0.2505(2)
H4 H 0.6624 0.9242 0.2454
C3 C 0.5055(6) 0.7658(5) 0.3033(2)
H5 H 0.4737 0.7516 0.3362
C6 C 0.2791(6) 0.7373(5) 0.0384(2)
H8 H 0.2666 0.7316 0.0744
C8 C 0.2243(6) 0.8112(5) 0.0109(2)
H9 H 0.1749 0.8568 0.0287
C9 C 0.5210(5) 0.6372(4) 0.1737(2)
H11 H 0.9894 0.3146 0.1696
C13 C 0.5355(5) 0.7142(4) 0.2165(2)
C14 C 0.9698(5) 0.4645(5) 0.1553(2)
C15 C 0.3524(5) 0.6711(4) 0.0136(2)
C16 C 0.4848(6) 0.6995(5) 0.2630(2)
H13 H 0.4348 0.6435 0.2680
C20 C 0.4137(5) 0.5891(4) 0.0442(2)
C21 C 0.6028(6) 0.7995(5) 0.2097(2)
H16 H 0.6387 0.8127 0.1775
H18 H 0.9987 0.6137 0.1436
C24 C 0.8384(5) 0.4664(5) 0.1479(2)
Co5 Co 0.60222(6) 0.95003(6) 0.36039(2)
O10 O 0.3451(4) 0.3293(3) 0.09454(16)
N5 N 0.4304(4) 0.3495(4) 0.20323(18)
N6 N 0.7377(4) 0.6781(4) 0.04028(17)
O7 O 0.8451(4) 0.1707(3) 0.90546(16)
N2 N 0.2377(4) 0.8219(4) 0.95972(17)
C5 C 0.9086(5) 0.3686(5) 0.9950(2)
H7 H 0.9907 0.3612 0.9973
C7 C 0.9073(5) 0.2267(4) 0.9333(2)
C10 C 0.6758(5) 0.3956(5) 0.9910(2)
H10 H 0.5938 0.4049 0.9892
C12 C 0.3108(6) 0.7588(5) 0.9362(2)
H12 H 0.3222 0.7658 0.9002
C17 C 0.8459(5) 0.3065(4) 0.9634(2)
C18 C 0.7261(5) 0.3209(5) 0.9607(2)
H14 H 0.6795 0.2807 0.9387
C19 C 0.3701(5) 0.6845(5) 0.9615(2)
H15 H 0.4229 0.6425 0.9434
Co3 Co 0.15420(6) 0.94426(6) 0.92184(2)
Co4 Co 0.89778(6) 0.04997(6) 0.86039(2)
Co2 Co 0.10222(6) 0.54997(6) 0.63961(2)
O5_2 O 0.0502(4) 0.4317(3) 0.68345(15)
O9_2 O 0.1401(3) 0.4467(3) 0.58094(14)
N2_2 N 0.2623(4) 0.1781(4) 0.45972(17)
H5_2 H 0.0263 0.2484 0.8362
C6_2 C 0.2209(6) 0.2627(5) 0.5384(2)
H8_2 H 0.2334 0.2684 0.5744
C8_2 C 0.2757(6) 0.1888(5) 0.5109(2)
H9_2 H 0.3251 0.1432 0.5287
C12_2 C 0.1892(6) 0.2412(5) 0.4362(2)
H12_2 H 0.1778 0.2342 0.4002
C15_2 C 0.1476(5) 0.3289(4) 0.5136(2)
C16_2 C 0.0152(6) 0.3005(5) 0.7630(2)
H13_2 H 0.0652 0.3565 0.7680
C19_2 C 0.1299(5) 0.3155(5) 0.4615(2)
H15_2 H 0.0771 0.3575 0.4434
C20_2 C 0.0863(5) 0.4109(4) 0.5442(2)
Co3_2 Co 0.34580(6) 0.05574(6) 0.42184(2)
O10_2 O 0.1549(4) 0.6707(3) 0.59454(16)
N5_2 N 0.0696(4) 0.6505(4) 0.70323(18)
N7 N 0.2856(4) 0.5399(4) 0.65860(17)
Co1_2 Co 0.84580(6) 0.44426(6) 0.57816(2)
O1_2 O 0.9215(3) 0.5720(3) 0.61459(13)
H1_2 H 0.8736 0.5900 0.6449
H2_2 H 0.9189 0.6294 0.5904
O2 O 0.4863(4) 0.7797(4) 0.43940(19)
O3_2 O 0.7181(4) 0.6096(4) 0.6616(2)
O4_2 O 0.7020(3) 0.4571(3) 0.62680(16)
O6_2 O 0.9855(3) 0.4339(3) 0.52878(14)
O7_2 O 0.6549(4) 0.8293(3) 0.40546(16)
O8_2 O 0.9211(4) 0.3491(3) 0.63384(15)
N1_2 N 0.9304(4) 0.1505(4) 0.79677(18)
N3_2 N 0.7631(4) 0.5451(4) 0.52264(17)
C1_2 C 0.6470(5) 0.5578(5) 0.5237(2)
H3_2 H 0.6014 0.5150 0.5449
C2_2 C 0.8830(5) 0.1347(5) 0.7505(2)
H4_2 H 0.8376 0.0758 0.7454
C3_2 C 0.9945(6) 0.2342(5) 0.8033(2)
C4_2 C 0.3490(6) 0.6235(5) 0.6645(3)
H6_2 H 0.3092 0.6854 0.6692
C5_2 C 0.5914(5) 0.6314(5) 0.4950(2)
H7_2 H 0.5093 0.6388 0.4973
C7_2 C 0.5927(5) 0.7733(4) 0.4333(2)
C9_2 C 0.9790(5) 0.3628(4) 0.6737(2)
C10_2 C 0.8242(5) 0.6044(5) 0.4910(2)
H10_2 H 0.9062 0.5951 0.4892
C11_2 C 0.4695(5) 0.6244(5) 0.6640(3)
H11_2 H 0.5106 0.6854 0.6696
C13_2 C 0.9645(5) 0.2858(4) 0.7165(2)
C14_2 C 0.5302(5) 0.5355(5) 0.6553(2)
C17_2 C 0.6541(5) 0.6935(4) 0.4634(2)
C18_2 C 0.7739(5) 0.6791(5) 0.4607(2)
H14_2 H 0.8205 0.7193 0.4387
C21_2 C 0.8972(6) 0.2005(5) 0.7097(2)
H16_2 H 0.8613 0.1873 0.6775
C22_2 C 0.3440(5) 0.4538(5) 0.6522(2)
H17_2 H 0.3008 0.3932 0.6494
C23_2 C 0.4640(5) 0.4489(5) 0.6494(2)
H18_2 H 0.5013 0.3863 0.6436
C24_2 C 0.6616(5) 0.5336(5) 0.6479(2)
N6_2 N 0.7623(4) 0.3219(4) 0.54028(17)
O2_2 O 0.5137(4) 0.2797(4) 0.06060(19)
C5_3 C 0.4086(5) 0.1314(5) 0.0050(2)
H7_3 H 0.4907 0.1388 0.0027
C7_3 C 0.4073(5) 0.2733(4) 0.0667(2)
C10_3 C 0.1758(5) 0.1044(5) 0.0090(2)
H10_3 H 0.0938 0.0951 0.0108
C17_3 C 0.3459(5) 0.1935(4) 0.0366(2)
C18_3 C 0.2261(5) 0.1791(5) 0.0393(2)
H14_3 H 0.1795 0.2193 0.0613
O1_3 O 0.0785(3) 0.0720(3) 0.88541(13)
H1_3 H 0.1264 0.0900 0.8551
H2_3 H 0.0811 0.1294 0.9096
O3_3 O 0.2819(4) 0.1096(4) 0.8384(2)
N3_3 N 0.2369(4) 0.0451(4) 0.97736(17)
N4_2 N 0.7144(4) 0.0399(4) 0.84140(17)
C1_3 C 0.3530(5) 0.0578(5) 0.9763(2)
H3_3 H 0.3986 0.0150 0.9551
C4_3 C 0.6510(6) 0.1235(5) 0.8355(3)
H6_3 H 0.6908 0.1854 0.8308
C11_3 C 0.5305(5) 0.1244(5) 0.8360(3)
H11_3 H 0.4894 0.1854 0.8304
C14_3 C 0.4698(5) 0.0355(5) 0.8447(2)
C24_3 C 0.3384(5) 0.0336(5) 0.8521(2)
O4_3 O 0.2980(3) 0.9571(3) 0.87320(16)
O6_3 O 0.0145(3) 0.9339(3) 0.97122(14)
O8_3 O 0.0789(4) 0.8491(3) 0.86616(15)
C2_3 C 0.1170(5) 0.6347(5) 0.7495(2)
H4_3 H 0.1624 0.5758 0.7546
C3_3 C 0.0055(6) 0.7342(5) 0.6967(2)
C9_3 C 0.0210(5) 0.8628(4) 0.8263(2)
C13_3 C 0.0355(5) 0.7858(4) 0.7835(2)
C21_3 C 0.1028(6) 0.7005(5) 0.7903(2)
H16_3 H 0.1387 0.6873 0.8225
C22_3 C 0.6560(5) 0.9538(5) 0.8478(2)
H17_3 H 0.6992 0.8932 0.8506
C23_3 C 0.5360(5) 0.9489(5) 0.8506(2)
H18_3 H 0.4987 0.8863 0.8564
C12_3 C 0.8108(6) 0.7412(5) 0.0638(2)
H12_3 H 0.8222 0.7342 0.0998
C19_3 C 0.8701(5) 0.8155(5) 0.0385(2)
H15_3 H 0.9229 0.8575 0.0566
O4_4 O 0.2020(3) 0.0429(3) 0.37320(16)
O5_3 O 0.5502(4) 0.0683(3) 0.31655(15)
O6_4 O 0.4855(3) 0.0661(3) 0.47122(14)
O8_4 O 0.4211(4) 0.1509(3) 0.36616(15)
O9_3 O 0.6401(3) 0.0533(3) 0.41906(14)
C2_4 C 0.3830(5) 0.3653(5) 0.2495(2)
H4_4 H 0.3376 0.4242 0.2546
C3_4 C 0.4945(6) 0.2658(5) 0.1967(2)
H5_3 H 0.5263 0.2516 0.1638
C6_3 C 0.7209(6) 0.2373(5) 0.4616(2)
H8_3 H 0.7334 0.2316 0.4256
C8_3 C 0.7757(6) 0.3112(5) 0.4891(2)
H9_3 H 0.8251 0.3568 0.4713
C9_4 C 0.4790(5) 0.1372(4) 0.3263(2)
C12_4 C 0.6892(6) 0.2588(5) 0.5638(2)
H12_4 H 0.6778 0.2658 0.5998
C13_4 C 0.4645(5) 0.2142(4) 0.2835(2)
C15_3 C 0.6476(5) 0.1711(4) 0.4864(2)
C16_3 C 0.5152(6) 0.1995(5) 0.2370(2)
H13_3 H 0.5652 0.1435 0.2320
C19_4 C 0.6299(5) 0.1845(5) 0.5385(2)
H15_4 H 0.5771 0.1425 0.5566
C20_3 C 0.5863(5) 0.0891(4) 0.4558(2)
C21_4 C 0.3972(6) 0.2995(5) 0.2903(2)
H16_4 H 0.3613 0.3127 0.3225
H18_4 H 0.0013 0.1137 0.3564
O1_4 O 0.4215(3) 0.9280(3) 0.38541(13)
H1_4 H 0.3736 0.9100 0.3551
H2_4 H 0.4189 0.8706 0.4096
O3_4 O 0.2181(4) 0.8904(4) 0.3384(2)
N3_4 N 0.2631(4) 0.9549(4) 0.47736(17)
C1_4 C 0.1470(5) 0.9422(5) 0.4763(2)
H3_4 H 0.1014 0.9850 0.4551
C5_4 C 0.0914(5) 0.8686(5) 0.5050(2)
H7_4 H 0.0093 0.8612 0.5027
C7_4 C 0.0927(5) 0.7267(4) 0.5667(2)
C10_4 C 0.3242(5) 0.8956(5) 0.5090(2)
H10_4 H 0.4062 0.9049 0.5108
H11_4 H 0.0106 0.8146 0.3304
C14_4 C 0.0302(5) 0.9645(5) 0.3447(2)
C17_4 C 0.1541(5) 0.8065(4) 0.5366(2)
C18_4 C 0.2739(5) 0.8209(5) 0.5393(2)
H14_4 H 0.3205 0.7807 0.5613
C24_4 C 0.1616(5) 0.9664(5) 0.3521(2)
N7_2 N 0.7856(4) 0.9601(4) 0.34140(17)
O2_3 O 0.9863(4) 0.7203(4) 0.56060(19)
C4_4 C 0.8490(6) 0.8765(5) 0.3355(3)
H6_4 H 0.8092 0.8146 0.3308
C11_4 C 0.9695(5) 0.8756(5) 0.3360(3)
O2_4 O 0.0137(4) 0.2203(4) 0.93940(19)
O5_4 O 0.9498(4) 0.9317(3) 0.81655(15)
O9_4 O 0.8599(3) 0.9467(3) 0.91906(14)
H5_4 H 0.9737 0.7484 0.6638
C6_4 C 0.7791(6) 0.7627(5) 0.9616(2)
H8_4 H 0.7666 0.7684 0.9256
C8_4 C 0.7243(6) 0.6888(5) 0.9891(2)
H9_4 H 0.6749 0.6432 0.9713
C15_4 C 0.8524(5) 0.8289(4) 0.9864(2)
C16_4 C 0.9848(6) 0.8005(5) 0.7370(2)
H13_4 H 0.9348 0.8565 0.7320
C20_4 C 0.9137(5) 0.9109(4) 0.9558(2)
C22_4 C 0.8440(5) 0.0462(5) 0.3478(2)
H17_4 H 0.8008 0.1068 0.3506
C23_4 C 0.9640(5) 0.0511(5) 0.3506(2)
loop_
_geom_bond_atom_site_label_1
_geom_bond_atom_site_label_2
_geom_bond_site_symmetry_1
_geom_bond_site_symmetry_2
N4 C4 1_555 1_555
C4 H6 1_555 1_555
C11 C4 1_555 1_555
C22 N4 1_555 1_555
H17 C22 1_555 1_555
Co6 N4 1_555 1_555
C22 C23 1_555 1_555
Co1 O1 1_555 1_555
Co6 O1 1_555 1_555
O1 H1 1_555 1_555
H2 O1 1_555 1_555
O3 C24 1_555 1_555
O4 Co1 1_555 1_555
O5 Co6 1_555 1_555
O6 Co1 1_555 1_555
O8 Co1 1_555 1_555
O9 Co6 1_555 1_555
N1 C2 1_555 1_555
N3 Co1 1_555 1_555
C1 N3 1_555 1_555
H3 C1 1_555 1_555
C2 H4 1_555 1_555
C3 N1 1_555 1_555
H5 C3 1_555 1_555
C6 H8 1_555 1_555
C8 C6 1_555 1_555
H9 C8 1_555 1_555
C9 O5 1_555 1_555
C13 C9 1_555 1_555
C15 C6 1_555 1_555
C16 C3 1_555 1_555
H13 C16 1_555 1_555
C20 O6 1_555 1_555
C21 C2 1_555 1_555
H16 C21 1_555 1_555
C24 O4 1_555 1_555
Co5 N1 1_555 1_555
O10 Co6 1_555 1_555
N5 Co6 1_555 1_555
N6 Co1 1_555 1_555
O8 C9 1_555 1_555
O9 C20 1_555 1_555
C13 C16 1_555 1_555
C13 C21 1_555 1_555
C14 C24 1_555 1_555
C15 C20 1_555 1_555
O7 C7 1_555 1_555
H7 C5 1_555 1_555
C7 C17 1_555 1_555
H10 C10 1_555 1_555
C12 N2 1_555 1_555
H12 C12 1_555 1_555
C17 C5 1_555 1_555
C18 C10 1_555 1_555
H14 C18 1_555 1_555
C19 C12 1_555 1_555
H15 C19 1_555 1_555
Co3 N2 1_555 1_555
Co4 O7 1_555 1_555
C17 C18 1_555 1_555
O5_2 Co2 1_555 1_555
O9_2 Co2 1_555 1_555
N2_2 C8_2 1_555 1_555
C6_2 H8_2 1_555 1_555
C8_2 C6_2 1_555 1_555
H9_2 C8_2 1_555 1_555
C12_2 N2_2 1_555 1_555
H12_2 C12_2 1_555 1_555
C15_2 C6_2 1_555 1_555
H13_2 C16_2 1_555 1_555
C19_2 C12_2 1_555 1_555
H15_2 C19_2 1_555 1_555
Co3_2 N2_2 1_555 1_555
O10_2 Co2 1_555 1_555
N5_2 Co2 1_555 1_555
N7 Co2 1_555 1_555
O9_2 C20_2 1_555 1_555
C15_2 C19_2 1_555 1_555
C15_2 C20_2 1_555 1_555
Co1_2 O1_2 1_555 1_555
O1_2 H1_2 1_555 1_555
H2_2 O1_2 1_555 1_555
O2 C7_2 1_555 1_555
O3_2 C24_2 1_555 1_555
O4_2 Co1_2 1_555 1_555
O6_2 Co1_2 1_555 1_555
O7_2 C7_2 1_555 1_555
O8_2 Co1_2 1_555 1_555
N1_2 C2_2 1_555 1_555
N3_2 Co1_2 1_555 1_555
N7 C4_2 1_555 1_555
C1_2 N3_2 1_555 1_555
H3_2 C1_2 1_555 1_555
C2_2 H4_2 1_555 1_555
C3_2 N1_2 1_555 1_555
C4_2 H6_2 1_555 1_555
C5_2 C1_2 1_555 1_555
H7_2 C5_2 1_555 1_555
C7_2 C17_2 1_555 1_555
C10_2 N3_2 1_555 1_555
H10_2 C10_2 1_555 1_555
C11_2 C4_2 1_555 1_555
H11_2 C11_2 1_555 1_555
C13_2 C9_2 1_555 1_555
C14_2 C11_2 1_555 1_555
C17_2 C5_2 1_555 1_555
C18_2 C10_2 1_555 1_555
H14_2 C18_2 1_555 1_555
C21_2 C2_2 1_555 1_555
H16_2 C21_2 1_555 1_555
C22_2 N7 1_555 1_555
H17_2 C22_2 1_555 1_555
C23_2 C14_2 1_555 1_555
H18_2 C23_2 1_555 1_555
C24_2 O4_2 1_555 1_555
Co5 O7_2 1_555 1_555
Co4 N1_2 1_555 1_555
N6_2 Co1_2 1_555 1_555
O8_2 C9_2 1_555 1_555
C13_2 C21_2 1_555 1_555
C14_2 C24_2 1_555 1_555
C17_2 C18_2 1_555 1_555
C22_2 C23_2 1_555 1_555
O2_2 C7_3 1_555 1_555
O10 C7_3 1_555 1_555
H7_3 C5_3 1_555 1_555
C7_3 C17_3 1_555 1_555
H10_3 C10_3 1_555 1_555
C17_3 C5_3 1_555 1_555
C18_3 C10_3 1_555 1_555
H14_3 C18_3 1_555 1_555
C17_3 C18_3 1_555 1_555
O1_3 H1_3 1_555 1_555
H2_3 O1_3 1_555 1_555
O3_3 C24_3 1_555 1_555
N4_2 C4_3 1_555 1_555
C1_3 N3_3 1_555 1_555
H3_3 C1_3 1_555 1_555
C4_3 H6_3 1_555 1_555
C11_3 C4_3 1_555 1_555
H11_3 C11_3 1_555 1_555
C14_3 C11_3 1_555 1_555
Co4 N4_2 1_555 1_555
C14_3 C24_3 1_555 1_555
O4_3 Co3 1_555 1_555
O6_3 Co3 1_555 1_555
O8_3 Co3 1_555 1_555
N5_2 C2_3 1_555 1_555
C2_3 H4_3 1_555 1_555
C3_3 N5_2 1_555 1_555
C13_3 C9_3 1_555 1_555
C21_3 C2_3 1_555 1_555
H16_3 C21_3 1_555 1_555
H17_3 C22_3 1_555 1_555
H18_3 C23_3 1_555 1_555
O8_3 C9_3 1_555 1_555
C13_3 C21_3 1_555 1_555
C22_3 C23_3 1_555 1_555
C12_3 N6 1_555 1_555
H12_3 C12_3 1_555 1_555
C19_3 C12_3 1_555 1_555
H15_3 C19_3 1_555 1_555
O4_4 Co3_2 1_555 1_555
O6_4 Co3_2 1_555 1_555
O8_4 Co3_2 1_555 1_555
N5 C2_4 1_555 1_555
N6_2 C8_3 1_555 1_555
C2_4 H4_4 1_555 1_555
C3_4 N5 1_555 1_555
H5_3 C3_4 1_555 1_555
C6_3 H8_3 1_555 1_555
C8_3 C6_3 1_555 1_555
H9_3 C8_3 1_555 1_555
C9_4 O5_3 1_555 1_555
C12_4 N6_2 1_555 1_555
H12_4 C12_4 1_555 1_555
C13_4 C9_4 1_555 1_555
C15_3 C6_3 1_555 1_555
C16_3 C3_4 1_555 1_555
H13_3 C16_3 1_555 1_555
C19_4 C12_4 1_555 1_555
H15_4 C19_4 1_555 1_555
C20_3 O6_4 1_555 1_555
C21_4 C2_4 1_555 1_555
H16_4 C21_4 1_555 1_555
O8_4 C9_4 1_555 1_555
O9_3 C20_3 1_555 1_555
C13_4 C16_3 1_555 1_555
C13_4 C21_4 1_555 1_555
C15_3 C19_4 1_555 1_555
C15_3 C20_3 1_555 1_555
Co5 O1_4 1_555 1_555
O1_4 H1_4 1_555 1_555
H2_4 O1_4 1_555 1_555
O3_4 C24_4 1_555 1_555
O10_2 C7_4 1_555 1_555
C1_4 N3_4 1_555 1_555
H3_4 C1_4 1_555 1_555
C5_4 C1_4 1_555 1_555
H7_4 C5_4 1_555 1_555
C7_4 C17_4 1_555 1_555
C10_4 N3_4 1_555 1_555
H10_4 C10_4 1_555 1_555
C17_4 C5_4 1_555 1_555
C18_4 C10_4 1_555 1_555
H14_4 C18_4 1_555 1_555
N7_2 Co5 1_555 1_555
C14_4 C24_4 1_555 1_555
C17_4 C18_4 1_555 1_555
N7_2 C4_4 1_555 1_555
C4_4 H6_4 1_555 1_555
C11_4 C4_4 1_555 1_555
C6_4 H8_4 1_555 1_555
C8_4 C6_4 1_555 1_555
H9_4 C8_4 1_555 1_555
C15_4 C6_4 1_555 1_555
H13_4 C16_4 1_555 1_555
O9_4 C20_4 1_555 1_555
C15_4 C20_4 1_555 1_555
H17_4 C22_4 1_555 1_555
C22_4 C23_4 1_555 1_555

#END
