
###############################################################################
#
# This file contains modified crystal structure data generated from the
# MOF subset of the Cambridge Structural Database (CSD) v543 
# hosted by the Cambridge Crystallographic Data Centre (CCDC).
#
# This work is licensed under the Creative Commons
# Attribution-NonCommercial-ShareAlike 4.0 International License.
# To view a copy of this license, visit
# http://creativecommons.org/licenses/by-nc-sa/4.0/
# or send a letter to
# Creative Commons, PO Box 1866, Mountain View, CA 94042, USA.
#
# CIF created using the CSD Python API on 29 September 2022
# The structure has been converted into the P1 space group
# The structure has a 3D framework
# The original CSD entry VEDGUK is in the monoclinic crystal system
# The framework has been calculated to contain at least 10.0% void space
# The void calculation uses a probe of radius 1.32A, grid spacing 0.4
#
###############################################################################

data_VEDGUK
_chemical_formula_moiety         '(C184 H152 Co16 O132)n'
_symmetry_cell_setting           triclinic
_symmetry_space_group_name_H-M   'P 1'
_symmetry_Int_Tables_number      1
_space_group_name_Hall           'P 1'
loop_
_symmetry_equiv_pos_site_id
_symmetry_equiv_pos_as_xyz
1 x,y,z
_cell_length_a                   24.2640(7)
_cell_length_b                   14.8592(3)
_cell_length_c                   19.8821(6)
_cell_angle_alpha                90
_cell_angle_beta                 127.529(3)
_cell_angle_gamma                90
_cell_volume                     5684.84
loop_
_atom_site_label
_atom_site_type_symbol
_atom_site_fract_x
_atom_site_fract_y
_atom_site_fract_z
O9 O 0.37667(14) 0.03161(14) 0.71602(15)
O16 O 0.44250(10) 0.05029(14) 0.43662(13)
H17 H 0.425054 0.031155 0.459953
H18 H 0.451544 0.105795 0.442953
O17 O 0.30890(11) 0.11312(13) 0.38071(13)
H19 H 0.301000 0.119259 0.416839
H20 H 0.278190 0.145999 0.338969
Co4 Co 0.34191(2) 0.00635(2) 0.85595(2)
O21 O 0.33426(10) 0.06394(13) 0.25973(12)
Co1 Co 0.83215(2) 0.73957(2) 0.82047(2)
Co2 Co 0.34191(2) 0.99365(2) 0.35595(2)
C1 C 0.70799(13) 0.61496(17) 0.72765(16)
C2 C 0.48379(13) 0.72451(18) 0.45903(17)
C3 C 0.25223(15) 0.36917(19) 0.47913(19)
C4 C 0.34635(14) 0.85601(18) 0.46891(17)
C5 C 0.35426(15) 0.95574(19) 0.71631(18)
C6 C 0.63015(13) 0.60902(18) 0.66250(16)
C7 C 0.59489(13) 0.67191(18) 0.59712(17)
H1 H 0.618931 0.719250 0.595125
C8 C 0.52355(13) 0.66356(18) 0.53486(17)
C9 C 0.48712(13) 0.59596(19) 0.54065(18)
H2 H 0.439329 0.590555 0.499410
C10 C 0.52243(14) 0.53686(18) 0.60813(18)
C11 C 0.59361(13) 0.54109(18) 0.66787(17)
H3 H 0.616976 0.498906 0.711365
C12 C 0.42425(14) 0.48490(18) 0.59723(18)
C13 C 0.41514(15) 0.55839(19) 0.63200(18)
H4 H 0.450605 0.600098 0.664563
C14 C 0.35159(16) 0.56838(18) 0.61706(18)
C15 C 0.29930(15) 0.50604(18) 0.57086(18)
H5 H 0.257815 0.512252 0.563554
C16 C 0.30942(14) 0.43366(18) 0.53529(17)
C17 C 0.37187(14) 0.42323(18) 0.54788(18)
H6 H 0.378341 0.375224 0.523339
C18 C 0.34336(16) 0.72627(18) 0.62897(19)
C19 C 0.34236(16) 0.74602(18) 0.56053(19)
H7 H 0.338580 0.700154 0.526104
C20 C 0.34706(15) 0.83545(18) 0.54344(18)
C21 C 0.35238(16) 0.90336(19) 0.59512(18)
H8 H 0.357061 0.962908 0.584933
C22 C 0.35074(16) 0.88258(18) 0.66180(18)
C23 C 0.34632(17) 0.79357(19) 0.67909(19)
H9 H 0.345347 0.779327 0.723909
O1 O 0.73480(9) 0.69003(13) 0.73639(13)
O2 O 0.73939(9) 0.54410(13) 0.76747(12)
O3 O 0.50923(10) 0.79972(13) 0.46170(13)
O4 O 0.42643(9) 0.69595(13) 0.39572(12)
O5 O 0.25447(12) 0.31480(16) 0.43593(15)
O6 O 0.19927(11) 0.37811(14) 0.48179(14)
H10 H 0.167965 0.343728 0.447449
O7 O 0.33902(13) 0.79127(14) 0.42482(14)
O8 O 0.35294(10) 0.93723(12) 0.45697(12)
O10 O 0.33426(10) 0.93606(13) 0.75973(12)
O11 O 0.48821(10) 0.46684(14) 0.61507(15)
O12 O 0.33918(13) 0.63937(13) 0.65097(14)
O13 O 0.79359(11) 0.86658(13) 0.81947(14)
H11 H 0.748990 0.864797 0.787687
H12 H 0.802430 0.907077 0.796417
O14 O 0.82301(12) 0.77981(15) 0.71203(13)
H13 H 0.804453 0.737033 0.673448
H14 H 0.864193 0.787023 0.724258
O15 O 0.38661(9) 0.88201(11) 0.33529(11)
H15 H 0.428558 0.867669 0.374268
H16 H 0.382688 0.903599 0.292508
Co3 Co 0.33215(2) 0.76043(2) 0.32047(2)
Co5 Co 0.84191(2) 0.50635(2) 0.85595(2)
O18 O 0.23939(9) 0.95590(13) 0.26747(12)
O19 O 0.92643(9) 0.80405(13) 0.89572(12)
O20 O 0.83902(13) 0.70873(14) 0.92482(14)
O22 O 0.88661(9) 0.61799(11) 0.83529(11)
Co1_2 Co 0.33215(2) 0.23957(2) 0.82047(2)
C1_2 C 0.20799(13) 0.11496(17) 0.72765(16)
C6_2 C 0.13015(13) 0.10902(18) 0.66250(16)
C7_2 C 0.09489(13) 0.17191(18) 0.59712(17)
H1_2 H 0.118931 0.219250 0.595125
C8_2 C 0.02355(13) 0.16356(18) 0.53486(17)
C10_2 C 0.02243(14) 0.03686(18) 0.60813(18)
C11_2 C 0.09361(13) 0.04109(18) 0.66787(17)
O1_2 O 0.23480(9) 0.19003(13) 0.73639(13)
O2_2 O 0.23939(9) 0.04410(13) 0.76747(12)
O3_2 O 0.00923(10) 0.29972(13) 0.46170(13)
O13_2 O 0.29359(11) 0.36658(13) 0.81947(14)
H11_2 H 0.248990 0.364797 0.787687
H12_2 H 0.302430 0.407077 0.796417
O14_2 O 0.32301(12) 0.27981(15) 0.71203(13)
H13_2 H 0.304453 0.237033 0.673448
H14_2 H 0.364193 0.287023 0.724258
O19_2 O 0.42643(9) 0.30405(13) 0.89572(12)
O20_2 O 0.33902(13) 0.20873(14) 0.92482(14)
O22_2 O 0.38661(9) 0.11799(11) 0.83529(11)
Co2_2 Co 0.84191(2) 0.49365(2) 0.35595(2)
C2_2 C 0.98379(13) 0.22451(18) 0.45903(17)
C4_2 C 0.84635(14) 0.35601(18) 0.46891(17)
C5_2 C 0.85426(15) 0.45574(19) 0.71631(18)
C9_2 C 0.98712(13) 0.09596(19) 0.54065(18)
H2_2 H 0.939329 0.090555 0.499410
C13_2 C 0.91514(15) 0.05839(19) 0.63200(18)
H4_2 H 0.950605 0.100098 0.664563
C14_2 C 0.85159(16) 0.06838(18) 0.61706(18)
C15_2 C 0.79930(15) 0.00604(18) 0.57086(18)
H5_2 H 0.757815 0.012252 0.563554
C18_2 C 0.84336(16) 0.22627(18) 0.62897(19)
C19_2 C 0.84236(16) 0.24602(18) 0.56053(19)
H7_2 H 0.838580 0.200154 0.526104
C20_2 C 0.84706(15) 0.33545(18) 0.54344(18)
C21_2 C 0.85238(16) 0.40336(19) 0.59512(18)
H8_2 H 0.857061 0.462908 0.584933
C22_2 C 0.85074(16) 0.38258(18) 0.66180(18)
C23_2 C 0.84632(17) 0.29357(19) 0.67909(19)
H9_2 H 0.845347 0.279327 0.723909
O4_2 O 0.92643(9) 0.19595(13) 0.39572(12)
O7_2 O 0.83902(13) 0.29127(14) 0.42482(14)
O8_2 O 0.85294(10) 0.43723(12) 0.45697(12)
O9_2 O 0.87667(14) 0.53161(14) 0.71602(15)
O10_2 O 0.83426(10) 0.43606(13) 0.75973(12)
O12_2 O 0.83918(13) 0.13937(13) 0.65097(14)
O15_2 O 0.88661(9) 0.38201(11) 0.33529(11)
H15_2 H 0.928558 0.367669 0.374268
H16_2 H 0.882688 0.403599 0.292508
O16_2 O 0.94250(10) 0.55029(14) 0.43662(13)
H17_2 H 0.925054 0.531155 0.459953
H18_2 H 0.951544 0.605795 0.442953
O17_2 O 0.80890(11) 0.61312(13) 0.38071(13)
H19_2 H 0.801000 0.619259 0.416839
H20_2 H 0.778190 0.645999 0.338969
Co3_2 Co 0.83215(2) 0.26043(2) 0.32047(2)
O18_2 O 0.73939(9) 0.45590(13) 0.26747(12)
O21_2 O 0.83426(10) 0.56394(13) 0.25973(12)
C1_3 C 0.70799(13) 0.38504(17) 0.22765(16)
C5_3 C 0.35426(15) 0.04426(19) 0.21631(18)
C6_3 C 0.63015(13) 0.39098(18) 0.16250(16)
C7_3 C 0.59489(13) 0.32809(18) 0.09712(17)
H1_3 H 0.618931 0.280750 0.095125
C8_3 C 0.52355(13) 0.33644(18) 0.03486(17)
C9_3 C 0.48712(13) 0.40404(19) 0.04065(18)
C10_3 C 0.52243(14) 0.46314(18) 0.10813(18)
C11_3 C 0.59361(13) 0.45891(18) 0.16787(17)
H3_2 H 0.616976 0.501094 0.211365
C12_2 C 0.42425(14) 0.51510(18) 0.09723(18)
C13_3 C 0.41514(15) 0.44161(19) 0.13200(18)
H4_3 H 0.450605 0.399902 0.164563
C14_3 C 0.35159(16) 0.43162(18) 0.11706(18)
C15_3 C 0.29930(15) 0.49396(18) 0.07086(18)
H5_3 H 0.257815 0.487748 0.063554
C16_2 C 0.30942(14) 0.56634(18) 0.03529(17)
C17_2 C 0.37187(14) 0.57677(18) 0.04788(18)
H6_2 H 0.378341 0.624776 0.023339
C18_3 C 0.34336(16) 0.27373(18) 0.12897(19)
C19_3 C 0.34236(16) 0.25398(18) 0.06053(19)
H7_3 H 0.338580 0.299846 0.026104
C20_3 C 0.34706(15) 0.16455(18) 0.04344(18)
C21_3 C 0.35238(16) 0.09664(19) 0.09512(18)
H8_3 H 0.357061 0.037092 0.084933
C22_3 C 0.35074(16) 0.11742(18) 0.16180(18)
C23_3 C 0.34632(17) 0.20643(19) 0.17909(19)
H9_3 H 0.345347 0.220673 0.223909
O1_3 O 0.73480(9) 0.30997(13) 0.23639(13)
O11_2 O 0.48821(10) 0.53316(14) 0.11507(15)
O12_3 O 0.33918(13) 0.36063(13) 0.15097(14)
O13_3 O 0.79359(11) 0.13342(13) 0.31947(14)
H11_3 H 0.748990 0.135203 0.287687
H12_3 H 0.802430 0.092923 0.296417
O14_3 O 0.82301(12) 0.22019(15) 0.21203(13)
H13_3 H 0.804453 0.262967 0.173448
H14_3 H 0.864193 0.212977 0.224258
C2_3 C 0.48379(13) 0.27549(18) 0.95903(17)
C3_2 C 0.25223(15) 0.63083(19) 0.97913(19)
C4_3 C 0.34635(14) 0.14399(18) 0.96891(17)
H2_3 H 0.439329 0.409445 0.999410
O3_3 O 0.50923(10) 0.20028(13) 0.96170(13)
O5_2 O 0.25447(12) 0.68520(16) 0.93593(15)
O6_2 O 0.19927(11) 0.62189(14) 0.98179(14)
H10_2 H 0.167965 0.656272 0.947449
O8_3 O 0.35294(10) 0.06277(12) 0.95697(12)
H15_3 H 0.428558 0.132331 0.874268
H16_3 H 0.382688 0.096401 0.792508
O9_3 O 0.37667(14) 0.96839(14) 0.21602(15)
O16_3 O 0.44250(10) 0.94971(14) 0.93662(13)
H17_3 H 0.425054 0.968845 0.959953
H18_3 H 0.451544 0.894205 0.942953
O17_3 O 0.30890(11) 0.88688(13) 0.88071(13)
H19_3 H 0.301000 0.880741 0.916839
H20_3 H 0.278190 0.854001 0.838969
C1_4 C 0.20799(13) 0.88504(17) 0.22765(16)
C6_4 C 0.13015(13) 0.89098(18) 0.16250(16)
C7_4 C 0.09489(13) 0.82809(18) 0.09712(17)
H1_4 H 0.118931 0.780750 0.095125
C8_4 C 0.02355(13) 0.83644(18) 0.03486(17)
C10_4 C 0.02243(14) 0.96314(18) 0.10813(18)
C11_4 C 0.09361(13) 0.95891(18) 0.16787(17)
O1_4 O 0.23480(9) 0.80997(13) 0.23639(13)
O13_4 O 0.29359(11) 0.63342(13) 0.31947(14)
H11_4 H 0.248990 0.635203 0.287687
H12_4 H 0.302430 0.592923 0.296417
O14_4 O 0.32301(12) 0.72019(15) 0.21203(13)
H13_4 H 0.304453 0.762967 0.173448
H14_4 H 0.364193 0.712977 0.224258
C5_4 C 0.85426(15) 0.54426(19) 0.21631(18)
C9_4 C 0.98712(13) 0.90404(19) 0.04065(18)
C13_4 C 0.91514(15) 0.94161(19) 0.13200(18)
H4_4 H 0.950605 0.899902 0.164563
C14_4 C 0.85159(16) 0.93162(18) 0.11706(18)
C15_4 C 0.79930(15) 0.99396(18) 0.07086(18)
H5_4 H 0.757815 0.987748 0.063554
C18_4 C 0.84336(16) 0.77373(18) 0.12897(19)
C19_4 C 0.84236(16) 0.75398(18) 0.06053(19)
H7_4 H 0.838580 0.799846 0.026104
C20_4 C 0.84706(15) 0.66455(18) 0.04344(18)
C21_4 C 0.85238(16) 0.59664(19) 0.09512(18)
H8_4 H 0.857061 0.537092 0.084933
C22_4 C 0.85074(16) 0.61742(18) 0.16180(18)
C23_4 C 0.84632(17) 0.70643(19) 0.17909(19)
H9_4 H 0.845347 0.720673 0.223909
O9_4 O 0.87667(14) 0.46839(14) 0.21602(15)
O12_4 O 0.83918(13) 0.86063(13) 0.15097(14)
C2_4 C 0.98379(13) 0.77549(18) 0.95903(17)
C4_4 C 0.84635(14) 0.64399(18) 0.96891(17)
H2_4 H 0.939329 0.909445 0.999410
O8_4 O 0.85294(10) 0.56277(12) 0.95697(12)
H15_4 H 0.928558 0.632331 0.874268
H16_4 H 0.882688 0.596401 0.792508
O16_4 O 0.94250(10) 0.44971(14) 0.93662(13)
H17_4 H 0.925054 0.468845 0.959953
H18_4 H 0.951544 0.394205 0.942953
O17_4 O 0.80890(11) 0.38688(13) 0.88071(13)
H19_4 H 0.801000 0.380741 0.916839
H20_4 H 0.778190 0.354001 0.838969
O16_5 O 0.55750(10) 0.05029(14) 0.06338(13)
H17_5 H 0.574946 0.031155 0.040047
H18_5 H 0.548456 0.105795 0.057047
O17_5 O 0.69110(11) 0.11312(13) 0.11929(13)
H19_5 H 0.699000 0.119259 0.083161
H20_5 H 0.721810 0.145999 0.161031
O21_3 O 0.66574(10) 0.06394(13) 0.24027(12)
O9_5 O 0.62333(14) 0.03161(14) 0.78398(15)
Co4_2 Co 0.65809(2) 0.00635(2) 0.64405(2)
Co2_3 Co 0.65809(2) 0.99365(2) 0.14405(2)
C2_5 C 0.51621(13) 0.72451(18) 0.04097(17)
C3_3 C 0.74777(15) 0.36917(19) 0.02087(19)
C4_5 C 0.65365(14) 0.85601(18) 0.03109(17)
H2_5 H 0.560671 0.590555 0.000590
O3_4 O 0.49077(10) 0.79972(13) 0.03830(13)
O4_3 O 0.57357(9) 0.69595(13) 0.10428(12)
O5_3 O 0.74553(12) 0.31480(16) 0.06407(15)
O6_3 O 0.80073(11) 0.37811(14) 0.01821(14)
H10_3 H 0.832035 0.343728 0.052551
O7_3 O 0.66098(13) 0.79127(14) 0.07518(14)
O8_5 O 0.64706(10) 0.93723(12) 0.04303(12)
O15_3 O 0.61339(9) 0.88201(11) 0.16471(11)
H15_5 H 0.571442 0.867669 0.125732
H16_5 H 0.617312 0.903599 0.207492
Co3_3 Co 0.66785(2) 0.76043(2) 0.17953(2)
O18_3 O 0.76061(9) 0.95590(13) 0.23253(12)
Co1_3 Co 0.16785(2) 0.73957(2) 0.67953(2)
C1_5 C 0.29201(13) 0.61496(17) 0.77235(16)
C5_5 C 0.64574(15) 0.95574(19) 0.78369(18)
C6_5 C 0.36985(13) 0.60902(18) 0.83750(16)
C7_5 C 0.40511(13) 0.67191(18) 0.90288(17)
H1_5 H 0.381069 0.719250 0.904875
C8_5 C 0.47645(13) 0.66356(18) 0.96514(17)
C9_5 C 0.51288(13) 0.59596(19) 0.95935(18)
C10_5 C 0.47757(14) 0.53686(18) 0.89187(18)
C11_5 C 0.40639(13) 0.54109(18) 0.83213(17)
H3_3 H 0.383024 0.498906 0.788635
C12_3 C 0.57575(14) 0.48490(18) 0.90277(18)
C13_5 C 0.58486(15) 0.55839(19) 0.86800(18)
H4_5 H 0.549395 0.600098 0.835437
C14_5 C 0.64841(16) 0.56838(18) 0.88294(18)
C15_5 C 0.70070(15) 0.50604(18) 0.92914(18)
H5_5 H 0.742185 0.512252 0.936446
C16_3 C 0.69058(14) 0.43366(18) 0.96471(17)
C17_3 C 0.62813(14) 0.42323(18) 0.95212(18)
H6_3 H 0.621659 0.375224 0.976661
C18_5 C 0.65664(16) 0.72627(18) 0.87103(19)
C19_5 C 0.65764(16) 0.74602(18) 0.93947(19)
H7_5 H 0.661420 0.700154 0.973896
C20_5 C 0.65294(15) 0.83545(18) 0.95656(18)
C21_5 C 0.64762(16) 0.90336(19) 0.90488(18)
H8_5 H 0.642939 0.962908 0.915067
C22_5 C 0.64926(16) 0.88258(18) 0.83820(18)
C23_5 C 0.65368(17) 0.79357(19) 0.82091(19)
H9_5 H 0.654653 0.779327 0.776091
O1_5 O 0.26520(9) 0.69003(13) 0.76361(13)
O2_3 O 0.26061(9) 0.54410(13) 0.73253(12)
O10_3 O 0.66574(10) 0.93606(13) 0.74027(12)
O11_3 O 0.51179(10) 0.46684(14) 0.88493(15)
O12_5 O 0.66082(13) 0.63937(13) 0.84903(14)
O13_5 O 0.20641(11) 0.86658(13) 0.68053(14)
H11_5 H 0.251010 0.864797 0.712313
H12_5 H 0.197570 0.907077 0.703583
O14_5 O 0.17699(12) 0.77981(15) 0.78797(13)
H13_5 H 0.195547 0.737033 0.826552
H14_5 H 0.135807 0.787023 0.775742
Co5_2 Co 0.15809(2) 0.50635(2) 0.64405(2)
O19_3 O 0.07357(9) 0.80405(13) 0.60428(12)
O20_3 O 0.16098(13) 0.70873(14) 0.57518(14)
O22_3 O 0.11339(9) 0.61799(11) 0.66471(11)
Co2_4 Co 0.15809(2) 0.49365(2) 0.14405(2)
C2_6 C 0.01621(13) 0.22451(18) 0.04097(17)
C4_6 C 0.15365(14) 0.35601(18) 0.03109(17)
H2_6 H 0.060671 0.090555 0.000590
O4_4 O 0.07357(9) 0.19595(13) 0.10428(12)
O7_4 O 0.16098(13) 0.29127(14) 0.07518(14)
O8_6 O 0.14706(10) 0.43723(12) 0.04303(12)
O15_4 O 0.11339(9) 0.38201(11) 0.16471(11)
H15_6 H 0.071442 0.367669 0.125732
H16_6 H 0.117312 0.403599 0.207492
O16_6 O 0.05750(10) 0.55029(14) 0.06338(13)
H17_6 H 0.074946 0.531155 0.040047
H18_6 H 0.048456 0.605795 0.057047
O17_6 O 0.19110(11) 0.61312(13) 0.11929(13)
H19_6 H 0.199000 0.619259 0.083161
H20_6 H 0.221810 0.645999 0.161031
Co3_4 Co 0.16785(2) 0.26043(2) 0.17953(2)
O18_4 O 0.26061(9) 0.45590(13) 0.23253(12)
O21_4 O 0.16574(10) 0.56394(13) 0.24027(12)
C5_6 C 0.14574(15) 0.45574(19) 0.78369(18)
C9_6 C 0.01288(13) 0.09596(19) 0.95935(18)
C13_6 C 0.08486(15) 0.05839(19) 0.86800(18)
H4_6 H 0.049395 0.100098 0.835437
C14_6 C 0.14841(16) 0.06838(18) 0.88294(18)
C15_6 C 0.20070(15) 0.00604(18) 0.92914(18)
H5_6 H 0.242185 0.012252 0.936446
C18_6 C 0.15664(16) 0.22627(18) 0.87103(19)
C19_6 C 0.15764(16) 0.24602(18) 0.93947(19)
H7_6 H 0.161420 0.200154 0.973896
C20_6 C 0.15294(15) 0.33545(18) 0.95656(18)
C21_6 C 0.14762(16) 0.40336(19) 0.90488(18)
H8_6 H 0.142939 0.462908 0.915067
C22_6 C 0.14926(16) 0.38258(18) 0.83820(18)
C23_6 C 0.15368(17) 0.29357(19) 0.82091(19)
H9_6 H 0.154653 0.279327 0.776091
O9_6 O 0.12333(14) 0.53161(14) 0.78398(15)
O10_4 O 0.16574(10) 0.43606(13) 0.74027(12)
O12_6 O 0.16082(13) 0.13937(13) 0.84903(14)
Co1_4 Co 0.66785(2) 0.23957(2) 0.67953(2)
C1_6 C 0.79201(13) 0.11496(17) 0.77235(16)
C6_6 C 0.86985(13) 0.10902(18) 0.83750(16)
C7_6 C 0.90511(13) 0.17191(18) 0.90288(17)
H1_6 H 0.881069 0.219250 0.904875
C8_6 C 0.97645(13) 0.16356(18) 0.96514(17)
C10_6 C 0.97757(14) 0.03686(18) 0.89187(18)
C11_6 C 0.90639(13) 0.04109(18) 0.83213(17)
O1_6 O 0.76520(9) 0.19003(13) 0.76361(13)
O2_4 O 0.76061(9) 0.04410(13) 0.73253(12)
O13_6 O 0.70641(11) 0.36658(13) 0.68053(14)
H11_6 H 0.751010 0.364797 0.712313
H12_6 H 0.697570 0.407077 0.703583
O14_6 O 0.67699(12) 0.27981(15) 0.78797(13)
H13_6 H 0.695547 0.237033 0.826552
H14_6 H 0.635807 0.287023 0.775742
O19_4 O 0.57357(9) 0.30405(13) 0.60428(12)
O20_4 O 0.66098(13) 0.20873(14) 0.57518(14)
O22_4 O 0.61339(9) 0.11799(11) 0.66471(11)
C1_7 C 0.29201(13) 0.38504(17) 0.27235(16)
C2_7 C 0.51621(13) 0.27549(18) 0.54097(17)
C3_4 C 0.74777(15) 0.63083(19) 0.52087(19)
C4_7 C 0.65365(14) 0.14399(18) 0.53109(17)
C5_7 C 0.64574(15) 0.04426(19) 0.28369(18)
C6_7 C 0.36985(13) 0.39098(18) 0.33750(16)
C7_7 C 0.40511(13) 0.32809(18) 0.40288(17)
H1_7 H 0.381069 0.280750 0.404875
C8_7 C 0.47645(13) 0.33644(18) 0.46514(17)
C9_7 C 0.51288(13) 0.40404(19) 0.45935(18)
H2_7 H 0.560671 0.409445 0.500590
C10_7 C 0.47757(14) 0.46314(18) 0.39187(18)
C11_7 C 0.40639(13) 0.45891(18) 0.33213(17)
H3_4 H 0.383024 0.501094 0.288635
C12_4 C 0.57575(14) 0.51510(18) 0.40277(18)
C13_7 C 0.58486(15) 0.44161(19) 0.36800(18)
H4_7 H 0.549395 0.399902 0.335437
C14_7 C 0.64841(16) 0.43162(18) 0.38294(18)
C15_7 C 0.70070(15) 0.49396(18) 0.42914(18)
H5_7 H 0.742185 0.487748 0.436446
C16_4 C 0.69058(14) 0.56634(18) 0.46471(17)
C17_4 C 0.62813(14) 0.57677(18) 0.45212(18)
H6_4 H 0.621659 0.624776 0.476661
C18_7 C 0.65664(16) 0.27373(18) 0.37103(19)
C19_7 C 0.65764(16) 0.25398(18) 0.43947(19)
H7_7 H 0.661420 0.299846 0.473896
C20_7 C 0.65294(15) 0.16455(18) 0.45656(18)
C21_7 C 0.64762(16) 0.09664(19) 0.40488(18)
H8_7 H 0.642939 0.037092 0.415067
C22_7 C 0.64926(16) 0.11742(18) 0.33820(18)
C23_7 C 0.65368(17) 0.20643(19) 0.32091(19)
H9_7 H 0.654653 0.220673 0.276091
O1_7 O 0.26520(9) 0.30997(13) 0.26361(13)
O3_5 O 0.49077(10) 0.20028(13) 0.53830(13)
O5_4 O 0.74553(12) 0.68520(16) 0.56407(15)
O6_4 O 0.80073(11) 0.62189(14) 0.51821(14)
H10_4 H 0.832035 0.656272 0.552551
O8_7 O 0.64706(10) 0.06277(12) 0.54303(12)
O11_4 O 0.51179(10) 0.53316(14) 0.38493(15)
O12_7 O 0.66082(13) 0.36063(13) 0.34903(14)
O13_7 O 0.20641(11) 0.13342(13) 0.18053(14)
H11_7 H 0.251010 0.135203 0.212313
H12_7 H 0.197570 0.092923 0.203583
O14_7 O 0.17699(12) 0.22019(15) 0.28797(13)
H13_7 H 0.195547 0.262967 0.326552
H14_7 H 0.135807 0.212977 0.275742
H15_7 H 0.571442 0.132331 0.625732
H16_7 H 0.617312 0.096401 0.707492
O9_7 O 0.62333(14) 0.96839(14) 0.28398(15)
O16_7 O 0.55750(10) 0.94971(14) 0.56338(13)
H17_7 H 0.574946 0.968845 0.540047
H18_7 H 0.548456 0.894205 0.557047
O17_7 O 0.69110(11) 0.88688(13) 0.61929(13)
H19_7 H 0.699000 0.880741 0.583161
H20_7 H 0.721810 0.854001 0.661031
C2_8 C 0.01621(13) 0.77549(18) 0.54097(17)
C4_8 C 0.15365(14) 0.64399(18) 0.53109(17)
C5_8 C 0.14574(15) 0.54426(19) 0.28369(18)
C9_8 C 0.01288(13) 0.90404(19) 0.45935(18)
H2_8 H 0.060671 0.909445 0.500590
C13_8 C 0.08486(15) 0.94161(19) 0.36800(18)
H4_8 H 0.049395 0.899902 0.335437
C14_8 C 0.14841(16) 0.93162(18) 0.38294(18)
C15_8 C 0.20070(15) 0.99396(18) 0.42914(18)
H5_8 H 0.242185 0.987748 0.436446
C18_8 C 0.15664(16) 0.77373(18) 0.37103(19)
C19_8 C 0.15764(16) 0.75398(18) 0.43947(19)
H7_8 H 0.161420 0.799846 0.473896
C20_8 C 0.15294(15) 0.66455(18) 0.45656(18)
C21_8 C 0.14762(16) 0.59664(19) 0.40488(18)
H8_8 H 0.142939 0.537092 0.415067
C22_8 C 0.14926(16) 0.61742(18) 0.33820(18)
C23_8 C 0.15368(17) 0.70643(19) 0.32091(19)
H9_8 H 0.154653 0.720673 0.276091
O8_8 O 0.14706(10) 0.56277(12) 0.54303(12)
O9_8 O 0.12333(14) 0.46839(14) 0.28398(15)
O12_8 O 0.16082(13) 0.86063(13) 0.34903(14)
H15_8 H 0.071442 0.632331 0.625732
H16_8 H 0.117312 0.596401 0.707492
O16_8 O 0.05750(10) 0.44971(14) 0.56338(13)
H17_8 H 0.074946 0.468845 0.540047
H18_8 H 0.048456 0.394205 0.557047
O17_8 O 0.19110(11) 0.38688(13) 0.61929(13)
H19_8 H 0.199000 0.380741 0.583161
H20_8 H 0.221810 0.354001 0.661031
C1_8 C 0.79201(13) 0.88504(17) 0.27235(16)
C6_8 C 0.86985(13) 0.89098(18) 0.33750(16)
C7_8 C 0.90511(13) 0.82809(18) 0.40288(17)
H1_8 H 0.881069 0.780750 0.404875
C8_8 C 0.97645(13) 0.83644(18) 0.46514(17)
C10_8 C 0.97757(14) 0.96314(18) 0.39187(18)
C11_8 C 0.90639(13) 0.95891(18) 0.33213(17)
O1_8 O 0.76520(9) 0.80997(13) 0.26361(13)
O3_6 O 0.99077(10) 0.70028(13) 0.53830(13)
O13_8 O 0.70641(11) 0.63342(13) 0.18053(14)
H11_8 H 0.751010 0.635203 0.212313
H12_8 H 0.697570 0.592923 0.203583
O14_8 O 0.67699(12) 0.72019(15) 0.28797(13)
H13_8 H 0.695547 0.762967 0.326552
H14_8 H 0.635807 0.712977 0.275742
H3_5 H 0.116976 0.998906 0.711365
C3_5 C 0.75223(15) 0.86917(19) 0.47913(19)
C12_5 C 0.92425(14) 0.98490(18) 0.59723(18)
C16_5 C 0.80942(14) 0.93366(18) 0.53529(17)
C17_5 C 0.87187(14) 0.92323(18) 0.54788(18)
H6_5 H 0.878341 0.875224 0.523339
O5_5 O 0.75447(12) 0.81480(16) 0.43593(15)
O6_5 O 0.69927(11) 0.87811(14) 0.48179(14)
H10_5 H 0.667965 0.843728 0.447449
O11_5 O 0.98821(10) 0.96684(14) 0.61507(15)
C3_6 C 0.24777(15) 0.86917(19) 0.02087(19)
O5_6 O 0.24553(12) 0.81480(16) 0.06407(15)
O6_6 O 0.30073(11) 0.87811(14) 0.01821(14)
H10_6 H 0.332035 0.843728 0.052551
C12_6 C 0.07575(14) 0.98490(18) 0.90277(18)
C16_6 C 0.19058(14) 0.93366(18) 0.96471(17)
C17_6 C 0.12813(14) 0.92323(18) 0.95212(18)
H6_6 H 0.121659 0.875224 0.976661
O11_6 O 0.01179(10) 0.96684(14) 0.88493(15)
O3_7 O 0.99077(10) 0.29972(13) 0.03830(13)
H3_6 H 0.883024 0.998906 0.788635
C3_7 C 0.24777(15) 0.13083(19) 0.52087(19)
C12_7 C 0.07575(14) 0.01510(18) 0.40277(18)
C16_7 C 0.19058(14) 0.06634(18) 0.46471(17)
C17_7 C 0.12813(14) 0.07677(18) 0.45212(18)
H6_7 H 0.121659 0.124776 0.476661
O5_7 O 0.24553(12) 0.18520(16) 0.56407(15)
O6_7 O 0.30073(11) 0.12189(14) 0.51821(14)
H10_7 H 0.332035 0.156272 0.552551
O11_7 O 0.01179(10) 0.03316(14) 0.38493(15)
H3_7 H 0.883024 0.001094 0.288635
H3_8 H 0.116976 0.001094 0.211365
O3_8 O 0.00923(10) 0.70028(13) 0.96170(13)
C12_8 C 0.92425(14) 0.01510(18) 0.09723(18)
C16_8 C 0.80942(14) 0.06634(18) 0.03529(17)
C17_8 C 0.87187(14) 0.07677(18) 0.04788(18)
H6_8 H 0.878341 0.124776 0.023339
O11_8 O 0.98821(10) 0.03316(14) 0.11507(15)
C3_8 C 0.75223(15) 0.13083(19) 0.97913(19)
O5_8 O 0.75447(12) 0.18520(16) 0.93593(15)
O6_8 O 0.69927(11) 0.12189(14) 0.98179(14)
H10_8 H 0.667965 0.156272 0.947449
loop_
_geom_bond_atom_site_label_1
_geom_bond_atom_site_label_2
_geom_bond_site_symmetry_1
_geom_bond_site_symmetry_2
H17 O16 1_555 1_555
H18 O16 1_555 1_555
H19 O17 1_555 1_555
H20 O17 1_555 1_555
Co1 O1 1_555 1_555
Co2 O8 1_555 1_555
C1 C6 1_555 1_555
C2 C8 1_555 1_555
C3 C16 1_555 1_555
C4 C20 1_555 1_555
C5 C22 1_555 1_555
C6 C7 1_555 1_555
C7 H1 1_555 1_555
C8 C7 1_555 1_555
C9 C8 1_555 1_555
H2 C9 1_555 1_555
C10 C9 1_555 1_555
C11 C6 1_555 1_555
H3 C11 1_555 1_555
C12 C13 1_555 1_555
C13 H4 1_555 1_555
C14 C13 1_555 1_555
C15 C14 1_555 1_555
H5 C15 1_555 1_555
C16 C15 1_555 1_555
C17 C12 1_555 1_555
H6 C17 1_555 1_555
C18 C19 1_555 1_555
C19 H7 1_555 1_555
C20 C19 1_555 1_555
C21 C20 1_555 1_555
H8 C21 1_555 1_555
C22 C21 1_555 1_555
C23 C18 1_555 1_555
H9 C23 1_555 1_555
O1 C1 1_555 1_555
O2 C1 1_555 1_555
O3 C2 1_555 1_555
O4 C2 1_555 1_555
O5 C3 1_555 1_555
O6 C3 1_555 1_555
H10 O6 1_555 1_555
O7 C4 1_555 1_555
O8 C4 1_555 1_555
O10 C5 1_555 1_555
O11 C10 1_555 1_555
O12 C14 1_555 1_555
O13 Co1 1_555 1_555
H11 O13 1_555 1_555
H12 O13 1_555 1_555
O14 Co1 1_555 1_555
H13 O14 1_555 1_555
H14 O14 1_555 1_555
O15 Co2 1_555 1_555
H15 O15 1_555 1_555
H16 O15 1_555 1_555
Co3 O4 1_555 1_555
Co5 O2 1_555 1_555
O18 Co2 1_555 1_555
O19 Co1 1_555 1_555
O20 Co1 1_555 1_555
O22 Co1 1_555 1_555
C10 C11 1_555 1_555
C12 O11 1_555 1_555
C16 C17 1_555 1_555
C18 O12 1_555 1_555
C22 C23 1_555 1_555
O7 Co3 1_555 1_555
O15 Co3 1_555 1_555
Co5 O22 1_555 1_555
Co1_2 O1_2 1_555 1_555
C1_2 C6_2 1_555 1_555
C6_2 C7_2 1_555 1_555
C7_2 H1_2 1_555 1_555
C8_2 C7_2 1_555 1_555
C11_2 C6_2 1_555 1_555
O1_2 C1_2 1_555 1_555
O2_2 C1_2 1_555 1_555
O13_2 Co1_2 1_555 1_555
H11_2 O13_2 1_555 1_555
H12_2 O13_2 1_555 1_555
O14_2 Co1_2 1_555 1_555
H13_2 O14_2 1_555 1_555
H14_2 O14_2 1_555 1_555
Co4 O2_2 1_555 1_555
O19_2 Co1_2 1_555 1_555
O20_2 Co1_2 1_555 1_555
O22_2 Co1_2 1_555 1_555
C10_2 C11_2 1_555 1_555
Co4 O22_2 1_555 1_555
Co2_2 O8_2 1_555 1_555
C4_2 C20_2 1_555 1_555
C5_2 C22_2 1_555 1_555
H2_2 C9_2 1_555 1_555
C13_2 H4_2 1_555 1_555
C14_2 C13_2 1_555 1_555
C15_2 C14_2 1_555 1_555
H5_2 C15_2 1_555 1_555
C18_2 C19_2 1_555 1_555
C19_2 H7_2 1_555 1_555
C20_2 C19_2 1_555 1_555
C21_2 C20_2 1_555 1_555
H8_2 C21_2 1_555 1_555
C22_2 C21_2 1_555 1_555
C23_2 C18_2 1_555 1_555
H9_2 C23_2 1_555 1_555
O4_2 C2_2 1_555 1_555
O7_2 C4_2 1_555 1_555
O8_2 C4_2 1_555 1_555
O9_2 C5_2 1_555 1_555
O10_2 C5_2 1_555 1_555
O12_2 C14_2 1_555 1_555
O15_2 Co2_2 1_555 1_555
H15_2 O15_2 1_555 1_555
H16_2 O15_2 1_555 1_555
O16_2 Co2_2 1_555 1_555
H17_2 O16_2 1_555 1_555
H18_2 O16_2 1_555 1_555
O17_2 Co2_2 1_555 1_555
H19_2 O17_2 1_555 1_555
H20_2 O17_2 1_555 1_555
Co3_2 O4_2 1_555 1_555
Co5 O10_2 1_555 1_555
O18_2 Co2_2 1_555 1_555
O21_2 Co2_2 1_555 1_555
C18_2 O12_2 1_555 1_555
C22_2 C23_2 1_555 1_555
O7_2 Co3_2 1_555 1_555
O15_2 Co3_2 1_555 1_555
Co3_2 O1_3 1_555 1_555
C1_3 C6_3 1_555 1_555
C5_3 C22_3 1_555 1_555
C6_3 C7_3 1_555 1_555
C7_3 H1_3 1_555 1_555
C8_3 C7_3 1_555 1_555
C9_3 C8_3 1_555 1_555
C10_3 C9_3 1_555 1_555
C11_3 C6_3 1_555 1_555
H3_2 C11_3 1_555 1_555
C12_2 C13_3 1_555 1_555
C13_3 H4_3 1_555 1_555
C14_3 C13_3 1_555 1_555
C15_3 C14_3 1_555 1_555
H5_3 C15_3 1_555 1_555
C16_2 C15_3 1_555 1_555
C17_2 C12_2 1_555 1_555
H6_2 C17_2 1_555 1_555
C18_3 C19_3 1_555 1_555
C19_3 H7_3 1_555 1_555
C20_3 C19_3 1_555 1_555
C21_3 C20_3 1_555 1_555
H8_3 C21_3 1_555 1_555
C22_3 C21_3 1_555 1_555
C23_3 C18_3 1_555 1_555
H9_3 C23_3 1_555 1_555
O1_3 C1_3 1_555 1_555
O18_2 C1_3 1_555 1_555
O21 C5_3 1_555 1_555
O11_2 C10_3 1_555 1_555
O12_3 C14_3 1_555 1_555
O13_3 Co3_2 1_555 1_555
H11_3 O13_3 1_555 1_555
H12_3 O13_3 1_555 1_555
O14_3 Co3_2 1_555 1_555
H13_3 O14_3 1_555 1_555
H14_3 O14_3 1_555 1_555
C10_3 C11_3 1_555 1_555
C12_2 O11_2 1_555 1_555
C16_2 C17_2 1_555 1_555
C18_3 O12_3 1_555 1_555
C22_3 C23_3 1_555 1_555
Co4 O8_3 1_555 1_555
O3_3 C2_3 1_555 1_555
O19_2 C2_3 1_555 1_555
O5_2 C3_2 1_555 1_555
O6_2 C3_2 1_555 1_555
H10_2 O6_2 1_555 1_555
O20_2 C4_3 1_555 1_555
O8_3 C4_3 1_555 1_555
H15_3 O22_2 1_555 1_555
H16_3 O22_2 1_555 1_555
H17_3 O16_3 1_555 1_555
H18_3 O16_3 1_555 1_555
H19_3 O17_3 1_555 1_555
H20_3 O17_3 1_555 1_555
Co3 O1_4 1_555 1_555
C1_4 C6_4 1_555 1_555
C6_4 C7_4 1_555 1_555
C7_4 H1_4 1_555 1_555
C8_4 C7_4 1_555 1_555
C11_4 C6_4 1_555 1_555
O1_4 C1_4 1_555 1_555
O18 C1_4 1_555 1_555
O13_4 Co3 1_555 1_555
H11_4 O13_4 1_555 1_555
H12_4 O13_4 1_555 1_555
O14_4 Co3 1_555 1_555
H13_4 O14_4 1_555 1_555
H14_4 O14_4 1_555 1_555
C10_4 C11_4 1_555 1_555
C5_4 C22_4 1_555 1_555
C13_4 H4_4 1_555 1_555
C14_4 C13_4 1_555 1_555
C15_4 C14_4 1_555 1_555
H5_4 C15_4 1_555 1_555
C18_4 C19_4 1_555 1_555
C19_4 H7_4 1_555 1_555
C20_4 C19_4 1_555 1_555
C21_4 C20_4 1_555 1_555
H8_4 C21_4 1_555 1_555
C22_4 C21_4 1_555 1_555
C23_4 C18_4 1_555 1_555
H9_4 C23_4 1_555 1_555
O9_4 C5_4 1_555 1_555
O21_2 C5_4 1_555 1_555
O12_4 C14_4 1_555 1_555
C18_4 O12_4 1_555 1_555
C22_4 C23_4 1_555 1_555
Co5 O8_4 1_555 1_555
O19 C2_4 1_555 1_555
O20 C4_4 1_555 1_555
O8_4 C4_4 1_555 1_555
H15_4 O22 1_555 1_555
H16_4 O22 1_555 1_555
O16_4 Co5 1_555 1_555
H17_4 O16_4 1_555 1_555
H18_4 O16_4 1_555 1_555
O17_4 Co5 1_555 1_555
H19_4 O17_4 1_555 1_555
H20_4 O17_4 1_555 1_555
H17_5 O16_5 1_555 1_555
H18_5 O16_5 1_555 1_555
H19_5 O17_5 1_555 1_555
H20_5 O17_5 1_555 1_555
Co2_3 O8_5 1_555 1_555
O3_4 C2_5 1_555 1_555
O4_3 C2_5 1_555 1_555
O5_3 C3_3 1_555 1_555
O6_3 C3_3 1_555 1_555
H10_3 O6_3 1_555 1_555
O7_3 C4_5 1_555 1_555
O8_5 C4_5 1_555 1_555
O15_3 Co2_3 1_555 1_555
H15_5 O15_3 1_555 1_555
H16_5 O15_3 1_555 1_555
Co3_3 O4_3 1_555 1_555
O18_3 Co2_3 1_555 1_555
O7_3 Co3_3 1_555 1_555
O15_3 Co3_3 1_555 1_555
Co1_3 O1_5 1_555 1_555
C1_5 C6_5 1_555 1_555
C5_5 C22_5 1_555 1_555
C6_5 C7_5 1_555 1_555
C7_5 H1_5 1_555 1_555
C8_5 C7_5 1_555 1_555
C9_5 C8_5 1_555 1_555
C10_5 C9_5 1_555 1_555
C11_5 C6_5 1_555 1_555
H3_3 C11_5 1_555 1_555
C12_3 C13_5 1_555 1_555
C13_5 H4_5 1_555 1_555
C14_5 C13_5 1_555 1_555
C15_5 C14_5 1_555 1_555
H5_5 C15_5 1_555 1_555
C16_3 C15_5 1_555 1_555
C17_3 C12_3 1_555 1_555
H6_3 C17_3 1_555 1_555
C18_5 C19_5 1_555 1_555
C19_5 H7_5 1_555 1_555
C20_5 C19_5 1_555 1_555
C21_5 C20_5 1_555 1_555
H8_5 C21_5 1_555 1_555
C22_5 C21_5 1_555 1_555
C23_5 C18_5 1_555 1_555
H9_5 C23_5 1_555 1_555
O1_5 C1_5 1_555 1_555
O2_3 C1_5 1_555 1_555
O10_3 C5_5 1_555 1_555
O11_3 C10_5 1_555 1_555
O12_5 C14_5 1_555 1_555
O13_5 Co1_3 1_555 1_555
H11_5 O13_5 1_555 1_555
H12_5 O13_5 1_555 1_555
O14_5 Co1_3 1_555 1_555
H13_5 O14_5 1_555 1_555
H14_5 O14_5 1_555 1_555
Co5_2 O2_3 1_555 1_555
O19_3 Co1_3 1_555 1_555
O20_3 Co1_3 1_555 1_555
O22_3 Co1_3 1_555 1_555
C10_5 C11_5 1_555 1_555
C12_3 O11_3 1_555 1_555
C16_3 C17_3 1_555 1_555
C18_5 O12_5 1_555 1_555
C22_5 C23_5 1_555 1_555
Co5_2 O22_3 1_555 1_555
Co2_4 O8_6 1_555 1_555
O4_4 C2_6 1_555 1_555
O7_4 C4_6 1_555 1_555
O8_6 C4_6 1_555 1_555
O15_4 Co2_4 1_555 1_555
H15_6 O15_4 1_555 1_555
H16_6 O15_4 1_555 1_555
O16_6 Co2_4 1_555 1_555
H17_6 O16_6 1_555 1_555
H18_6 O16_6 1_555 1_555
O17_6 Co2_4 1_555 1_555
H19_6 O17_6 1_555 1_555
H20_6 O17_6 1_555 1_555
Co3_4 O4_4 1_555 1_555
O18_4 Co2_4 1_555 1_555
O21_4 Co2_4 1_555 1_555
O7_4 Co3_4 1_555 1_555
O15_4 Co3_4 1_555 1_555
C5_6 C22_6 1_555 1_555
C13_6 H4_6 1_555 1_555
C14_6 C13_6 1_555 1_555
C15_6 C14_6 1_555 1_555
H5_6 C15_6 1_555 1_555
C18_6 C19_6 1_555 1_555
C19_6 H7_6 1_555 1_555
C20_6 C19_6 1_555 1_555
C21_6 C20_6 1_555 1_555
H8_6 C21_6 1_555 1_555
C22_6 C21_6 1_555 1_555
C23_6 C18_6 1_555 1_555
H9_6 C23_6 1_555 1_555
O9_6 C5_6 1_555 1_555
O10_4 C5_6 1_555 1_555
O12_6 C14_6 1_555 1_555
Co5_2 O10_4 1_555 1_555
C18_6 O12_6 1_555 1_555
C22_6 C23_6 1_555 1_555
Co1_4 O1_6 1_555 1_555
C1_6 C6_6 1_555 1_555
C6_6 C7_6 1_555 1_555
C7_6 H1_6 1_555 1_555
C8_6 C7_6 1_555 1_555
C11_6 C6_6 1_555 1_555
O1_6 C1_6 1_555 1_555
O2_4 C1_6 1_555 1_555
O13_6 Co1_4 1_555 1_555
H11_6 O13_6 1_555 1_555
H12_6 O13_6 1_555 1_555
O14_6 Co1_4 1_555 1_555
H13_6 O14_6 1_555 1_555
H14_6 O14_6 1_555 1_555
Co4_2 O2_4 1_555 1_555
O19_4 Co1_4 1_555 1_555
O20_4 Co1_4 1_555 1_555
O22_4 Co1_4 1_555 1_555
C10_6 C11_6 1_555 1_555
Co4_2 O22_4 1_555 1_555
Co3_4 O1_7 1_555 1_555
Co4_2 O8_7 1_555 1_555
C1_7 C6_7 1_555 1_555
C2_7 C8_7 1_555 1_555
C3_4 C16_4 1_555 1_555
C4_7 C20_7 1_555 1_555
C5_7 C22_7 1_555 1_555
C6_7 C7_7 1_555 1_555
C7_7 H1_7 1_555 1_555
C8_7 C7_7 1_555 1_555
C9_7 C8_7 1_555 1_555
H2_7 C9_7 1_555 1_555
C10_7 C9_7 1_555 1_555
C11_7 C6_7 1_555 1_555
H3_4 C11_7 1_555 1_555
C12_4 C13_7 1_555 1_555
C13_7 H4_7 1_555 1_555
C14_7 C13_7 1_555 1_555
C15_7 C14_7 1_555 1_555
H5_7 C15_7 1_555 1_555
C16_4 C15_7 1_555 1_555
C17_4 C12_4 1_555 1_555
H6_4 C17_4 1_555 1_555
C18_7 C19_7 1_555 1_555
C19_7 H7_7 1_555 1_555
C20_7 C19_7 1_555 1_555
C21_7 C20_7 1_555 1_555
H8_7 C21_7 1_555 1_555
C22_7 C21_7 1_555 1_555
C23_7 C18_7 1_555 1_555
H9_7 C23_7 1_555 1_555
O1_7 C1_7 1_555 1_555
O18_4 C1_7 1_555 1_555
O3_5 C2_7 1_555 1_555
O19_4 C2_7 1_555 1_555
O5_4 C3_4 1_555 1_555
O6_4 C3_4 1_555 1_555
H10_4 O6_4 1_555 1_555
O20_4 C4_7 1_555 1_555
O8_7 C4_7 1_555 1_555
O21_3 C5_7 1_555 1_555
O11_4 C10_7 1_555 1_555
O12_7 C14_7 1_555 1_555
O13_7 Co3_4 1_555 1_555
H11_7 O13_7 1_555 1_555
H12_7 O13_7 1_555 1_555
O14_7 Co3_4 1_555 1_555
H13_7 O14_7 1_555 1_555
H14_7 O14_7 1_555 1_555
H15_7 O22_4 1_555 1_555
H16_7 O22_4 1_555 1_555
C10_7 C11_7 1_555 1_555
C12_4 O11_4 1_555 1_555
C16_4 C17_4 1_555 1_555
C18_7 O12_7 1_555 1_555
C22_7 C23_7 1_555 1_555
H17_7 O16_7 1_555 1_555
H18_7 O16_7 1_555 1_555
H19_7 O17_7 1_555 1_555
H20_7 O17_7 1_555 1_555
Co5_2 O8_8 1_555 1_555
C4_8 C20_8 1_555 1_555
C5_8 C22_8 1_555 1_555
H2_8 C9_8 1_555 1_555
C13_8 H4_8 1_555 1_555
C14_8 C13_8 1_555 1_555
C15_8 C14_8 1_555 1_555
H5_8 C15_8 1_555 1_555
C18_8 C19_8 1_555 1_555
C19_8 H7_8 1_555 1_555
C20_8 C19_8 1_555 1_555
C21_8 C20_8 1_555 1_555
H8_8 C21_8 1_555 1_555
C22_8 C21_8 1_555 1_555
C23_8 C18_8 1_555 1_555
H9_8 C23_8 1_555 1_555
O19_3 C2_8 1_555 1_555
O20_3 C4_8 1_555 1_555
O8_8 C4_8 1_555 1_555
O9_8 C5_8 1_555 1_555
O21_4 C5_8 1_555 1_555
O12_8 C14_8 1_555 1_555
H15_8 O22_3 1_555 1_555
H16_8 O22_3 1_555 1_555
O16_8 Co5_2 1_555 1_555
H17_8 O16_8 1_555 1_555
H18_8 O16_8 1_555 1_555
O17_8 Co5_2 1_555 1_555
H19_8 O17_8 1_555 1_555
H20_8 O17_8 1_555 1_555
C18_8 O12_8 1_555 1_555
C22_8 C23_8 1_555 1_555
Co3_3 O1_8 1_555 1_555
C1_8 C6_8 1_555 1_555
C6_8 C7_8 1_555 1_555
C7_8 H1_8 1_555 1_555
C8_8 C7_8 1_555 1_555
C11_8 C6_8 1_555 1_555
O1_8 C1_8 1_555 1_555
O18_3 C1_8 1_555 1_555
O13_8 Co3_3 1_555 1_555
H11_8 O13_8 1_555 1_555
H12_8 O13_8 1_555 1_555
O14_8 Co3_3 1_555 1_555
H13_8 O14_8 1_555 1_555
H14_8 O14_8 1_555 1_555
C10_8 C11_8 1_555 1_555
C3_5 C16_5 1_555 1_555
C17_5 C12_5 1_555 1_555
H6_5 C17_5 1_555 1_555
O5_5 C3_5 1_555 1_555
O6_5 C3_5 1_555 1_555
H10_5 O6_5 1_555 1_555
C12_5 O11_5 1_555 1_555
C16_5 C17_5 1_555 1_555
O5_6 C3_6 1_555 1_555
O6_6 C3_6 1_555 1_555
H10_6 O6_6 1_555 1_555
C17_6 C12_6 1_555 1_555
H6_6 C17_6 1_555 1_555
C12_6 O11_6 1_555 1_555
C16_6 C17_6 1_555 1_555
C3_7 C16_7 1_555 1_555
C17_7 C12_7 1_555 1_555
H6_7 C17_7 1_555 1_555
O5_7 C3_7 1_555 1_555
O6_7 C3_7 1_555 1_555
H10_7 O6_7 1_555 1_555
C12_7 O11_7 1_555 1_555
C16_7 C17_7 1_555 1_555
C17_8 C12_8 1_555 1_555
H6_8 C17_8 1_555 1_555
C12_8 O11_8 1_555 1_555
C16_8 C17_8 1_555 1_555
O5_8 C3_8 1_555 1_555
O6_8 C3_8 1_555 1_555
H10_8 O6_8 1_555 1_555

#END
