
###############################################################################
#
# This file contains modified crystal structure data generated from the
# MOF subset of the Cambridge Structural Database (CSD) v543 
# hosted by the Cambridge Crystallographic Data Centre (CCDC).
#
# This work is licensed under the Creative Commons
# Attribution-NonCommercial-ShareAlike 4.0 International License.
# To view a copy of this license, visit
# http://creativecommons.org/licenses/by-nc-sa/4.0/
# or send a letter to
# Creative Commons, PO Box 1866, Mountain View, CA 94042, USA.
#
# CIF created using the CSD Python API on 29 September 2022
# The structure has been converted into the P1 space group
# The structure has a 3D framework
# The original CSD entry VEDGIW is in the orthorhombic crystal system
# The original CSD entry VEDGIW is in a Sohncke space group
# The framework has been calculated to contain at least 10.0% void space
# The void calculation uses a probe of radius 1.32A, grid spacing 0.4
#
###############################################################################

data_VEDGIW
_chemical_formula_moiety         '(C96 H72 Co7 N16 O36)n'
_symmetry_cell_setting           triclinic
_symmetry_space_group_name_H-M   'P 1'
_symmetry_Int_Tables_number      1
_space_group_name_Hall           'P 1'
loop_
_symmetry_equiv_pos_site_id
_symmetry_equiv_pos_as_xyz
1 x,y,z
_cell_length_a                   11.4659(3)
_cell_length_b                   13.2732(3)
_cell_length_c                   26.1201(12)
_cell_angle_alpha                90
_cell_angle_beta                 90
_cell_angle_gamma                90
_cell_volume                     3975.2
loop_
_atom_site_label
_atom_site_type_symbol
_atom_site_fract_x
_atom_site_fract_y
_atom_site_fract_z
O1 O 0.0762(4) 0.0720(3) 0.11521(19)
H1 H 0.0789 0.1300 0.0914
H2 H 0.1242 0.0894 0.1455
O2 O 0.2779(4) 0.1086(4) 0.1618(3)
N3 N 0.2323(5) 0.0461(5) 0.0226(2)
N4 N 0.7106(5) 0.0387(5) 0.1595(2)
C1 C 0.3488(6) 0.0582(6) 0.0236(3)
H3 H 0.3942 0.0150 0.0446
C7 C 0.6466(7) 0.1234(5) 0.1651(3)
H8 H 0.6864 0.1856 0.1694
C9 C 0.4670(6) 0.0351(5) 0.1561(3)
C18 C 0.5266(6) 0.1238(6) 0.1647(4)
H15 H 0.4851 0.1848 0.1703
C24 C 0.3357(6) 0.0325(6) 0.1484(3)
Co6 Co 0.89484(7) 0.04968(7) 0.14009(3)
O3 O 0.5098(5) 0.2795(4) 0.9387(3)
O8 O 0.3416(5) 0.3289(4) 0.9050(2)
C8 C 0.4050(7) 0.1319(6) 0.9948(3)
H9 H 0.4873 0.1392 0.9970
C11 C 0.3423(7) 0.1936(5) 0.9633(3)
C13 C 0.2224(6) 0.1789(6) 0.9612(3)
H11 H 0.1751 0.2190 0.9393
C14 C 0.4030(7) 0.2741(5) 0.9331(3)
C20 C 0.1731(7) 0.1045(5) 0.9915(3)
H16 H 0.0911 0.0952 0.9897
Co4 Co 0.39484(7) 0.45032(7) 0.85991(3)
Co1 Co 0.15121(7) 0.94429(7) 0.07833(3)
O4 O 0.2957(4) 0.9562(4) 0.1271(2)
O6 O 0.0760(4) 0.8487(4) 0.1336(2)
O7 O 0.0115(4) 0.9342(4) 0.02940(18)
N2 N 0.0726(5) 0.6502(4) 0.2963(2)
C3 C 0.0197(6) 0.8612(5) 0.1736(3)
C4 C 0.0073(8) 0.7335(5) 0.3028(3)
C5 C 0.1182(7) 0.6342(5) 0.2502(3)
H6 H 0.1626 0.5747 0.2449
C12 C 0.0356(6) 0.7853(5) 0.2164(3)
C15 C 0.1043(7) 0.6998(5) 0.2096(3)
H12 H 0.1408 0.6868 0.1776
C22 C 0.6535(6) 0.9510(6) 0.1536(3)
H17 H 0.6966 0.8900 0.1510
C23 C 0.5330(6) 0.9481(6) 0.1511(3)
H18 H 0.4947 0.8855 0.1459
Co5 Co 0.10516(7) 0.54968(7) 0.35991(3)
N5 N 0.2345(5) 0.8215(4) 0.0402(2)
O10 O 0.8416(5) 0.1711(4) 0.0950(2)
N6 N 0.9274(5) 0.1502(4) 0.2037(2)
N1 N 0.7345(5) 0.6785(4) 0.9598(2)
C16 C 0.8082(7) 0.7422(6) 0.9370(3)
H13 H 0.8206 0.7354 0.9012
C17 C 0.8661(7) 0.8160(5) 0.9621(3)
H14 H 0.9185 0.8588 0.9441
Co3 Co 0.65121(7) 0.55571(7) 0.92167(3)
Co1_2 Co 0.34879(7) 0.05571(7) 0.57833(3)
O4_2 O 0.2043(4) 0.0438(4) 0.6271(2)
O5 O 0.5522(4) 0.0685(3) 0.6836(2)
O6_2 O 0.4240(4) 0.1513(4) 0.6336(2)
O7_2 O 0.4885(4) 0.0658(4) 0.52940(18)
O9 O 0.6445(4) 0.0523(4) 0.58168(19)
N1_2 N 0.7655(5) 0.3215(4) 0.4598(2)
N2_2 N 0.4274(5) 0.3498(4) 0.7963(2)
C2 C 0.7248(7) 0.2370(6) 0.5381(3)
H4 H 0.7383 0.2308 0.5738
C3_2 C 0.4803(6) 0.1388(5) 0.6736(3)
C4_2 C 0.4927(8) 0.2665(5) 0.8028(3)
H5 H 0.5258 0.2538 0.8355
C5_2 C 0.3818(7) 0.3658(5) 0.7502(3)
H6_2 H 0.3374 0.4253 0.7449
C6 C 0.7791(8) 0.3119(6) 0.5109(3)
H7 H 0.8276 0.3584 0.5286
C10 C 0.5132(8) 0.1987(6) 0.7636(3)
H10 H 0.5610 0.1413 0.7693
C12_2 C 0.4644(6) 0.2147(5) 0.7164(3)
C15_2 C 0.3957(7) 0.3002(5) 0.7096(3)
H12_2 H 0.3592 0.3132 0.6776
C16_2 C 0.6918(7) 0.2578(6) 0.4370(3)
H13_2 H 0.6794 0.2646 0.4012
C17_2 C 0.6339(7) 0.1840(5) 0.4621(3)
H14_2 H 0.5815 0.1412 0.4441
C19 C 0.6514(6) 0.1714(5) 0.5139(3)
C21 C 0.5906(6) 0.0884(5) 0.5448(3)
H18_2 H 0.0053 0.1145 0.6459
Co3_2 Co 0.84879(7) 0.44429(7) 0.42167(3)
N5_2 N 0.2655(5) 0.1785(4) 0.5402(2)
Co2 Co 0.60516(7) 0.95032(7) 0.64009(3)
O1_2 O 0.4238(4) 0.9280(3) 0.61521(19)
H1_2 H 0.4211 0.8700 0.5914
H2_2 H 0.3758 0.9106 0.6455
O2_2 O 0.2221(4) 0.8914(4) 0.6618(3)
O8_2 O 0.1584(5) 0.6711(4) 0.4050(2)
N3_2 N 0.2677(5) 0.9539(5) 0.5226(2)
C1_2 C 0.1512(6) 0.9418(6) 0.5236(3)
H3_2 H 0.1058 0.9850 0.5446
C8_2 C 0.0950(7) 0.8681(6) 0.4948(3)
H9_2 H 0.0127 0.8608 0.4970
C9_2 C 0.0330(6) 0.9649(5) 0.6561(3)
C11_2 C 0.1577(7) 0.8064(5) 0.4633(3)
C13_2 C 0.2776(6) 0.8211(6) 0.4612(3)
H11_2 H 0.3249 0.7810 0.4393
C14_2 C 0.0970(7) 0.7259(5) 0.4331(3)
H15_2 H 0.0149 0.8152 0.6703
C20_2 C 0.3269(7) 0.8955(5) 0.4915(3)
H16_2 H 0.4089 0.9048 0.4897
C24_2 C 0.1643(6) 0.9675(6) 0.6484(3)
O10_2 O 0.6584(5) 0.8289(4) 0.5950(2)
N6_2 N 0.5726(5) 0.8498(4) 0.7037(2)
N7 N 0.7894(5) 0.9613(5) 0.6595(2)
O3_2 O 0.9902(5) 0.7205(4) 0.4387(3)
C7_2 C 0.8534(7) 0.8766(5) 0.6651(3)
H8_2 H 0.8136 0.8144 0.6694
C18_2 C 0.9734(6) 0.8762(6) 0.6647(4)
N4_2 N 0.2106(5) 0.4613(5) 0.8405(2)
C7_3 C 0.1466(7) 0.3766(5) 0.8349(3)
H8_3 H 0.1864 0.3144 0.8306
C18_3 C 0.0266(6) 0.3762(6) 0.8353(4)
C22_2 C 0.1535(6) 0.5490(6) 0.8464(3)
H17_2 H 0.1966 0.6100 0.8490
C23_2 C 0.0330(6) 0.5519(6) 0.8489(3)
C8_3 C 0.9050(7) 0.3681(6) 0.0052(3)
H9_3 H 0.9873 0.3608 0.0030
C11_3 C 0.8423(7) 0.3064(5) 0.0367(3)
C13_3 C 0.7224(6) 0.3211(6) 0.0388(3)
H11_3 H 0.6751 0.2810 0.0607
C14_3 C 0.9030(7) 0.2259(5) 0.0669(3)
C16_3 C 0.3082(7) 0.7578(6) 0.0630(3)
H13_3 H 0.3206 0.7646 0.0988
C17_3 C 0.3661(7) 0.6840(5) 0.0379(3)
H14_3 H 0.4185 0.6412 0.0559
C20_3 C 0.6731(7) 0.3955(5) 0.0085(3)
H16_3 H 0.5911 0.4048 0.0103
O1_3 O 0.5762(4) 0.4280(3) 0.88479(19)
H1_3 H 0.5789 0.3700 0.9086
H2_3 H 0.6242 0.4106 0.8545
O2_3 O 0.7779(4) 0.3914(4) 0.8382(3)
O4_3 O 0.7957(4) 0.5438(4) 0.8729(2)
O5_2 O 0.4478(4) 0.5685(3) 0.8164(2)
O6_3 O 0.5760(4) 0.6513(4) 0.8664(2)
O7_3 O 0.5115(4) 0.5658(4) 0.97060(18)
O9_2 O 0.3555(4) 0.5523(4) 0.91832(19)
N3_3 N 0.7323(5) 0.4539(5) 0.9774(2)
C1_3 C 0.8488(6) 0.4418(6) 0.9764(3)
H3_3 H 0.8942 0.4850 0.9554
C2_2 C 0.2752(7) 0.7370(6) 0.9619(3)
H4_2 H 0.2617 0.7308 0.9262
C3_3 C 0.5197(6) 0.6388(5) 0.8264(3)
C4_3 C 0.5073(8) 0.7665(5) 0.6972(3)
H5_2 H 0.4742 0.7538 0.6645
C5_3 C 0.6182(7) 0.8658(5) 0.7498(3)
H6_3 H 0.6626 0.9253 0.7551
C6_2 C 0.2209(8) 0.8119(6) 0.9891(3)
H7_2 H 0.1724 0.8584 0.9714
C9_3 C 0.9670(6) 0.4649(5) 0.8439(3)
C10_2 C 0.4868(8) 0.6987(6) 0.7364(3)
H10_2 H 0.4390 0.6413 0.7307
C12_3 C 0.5356(6) 0.7147(5) 0.7836(3)
C15_3 C 0.6043(7) 0.8002(5) 0.7904(3)
H12_3 H 0.6408 0.8132 0.8224
H15_3 H 0.9851 0.3152 0.8297
C19_2 C 0.3486(6) 0.6714(5) 0.9861(3)
C21_2 C 0.4094(6) 0.5884(5) 0.9552(3)
H18_3 H 0.9947 0.6145 0.8541
C24_3 C 0.8357(6) 0.4675(6) 0.8516(3)
O5_3 O 0.0522(4) 0.4315(3) 0.3164(2)
O9_3 O 0.1445(4) 0.4477(4) 0.41832(19)
C2_3 C 0.2248(7) 0.2630(6) 0.4619(3)
H4_3 H 0.2383 0.2692 0.4262
H5_3 H 0.0258 0.2462 0.1645
C6_3 C 0.2791(8) 0.1881(6) 0.4891(3)
H7_3 H 0.3276 0.1416 0.4714
C10_3 C 0.0132(8) 0.3013(6) 0.2364(3)
H10_3 H 0.0610 0.3587 0.2307
C16_4 C 0.1918(7) 0.2422(6) 0.5630(3)
H13_4 H 0.1794 0.2354 0.5988
C17_4 C 0.1339(7) 0.3160(5) 0.5379(3)
H14_4 H 0.0815 0.3588 0.5559
C19_3 C 0.1514(6) 0.3286(5) 0.4861(3)
C21_3 C 0.0906(6) 0.4116(5) 0.4552(3)
N7_2 N 0.2894(5) 0.5387(5) 0.3405(2)
O1_4 O 0.9238(4) 0.5720(3) 0.38479(19)
H1_4 H 0.9211 0.6300 0.4086
H2_4 H 0.8758 0.5894 0.3545
O2_4 O 0.7221(4) 0.6086(4) 0.3382(3)
O3_3 O 0.4902(5) 0.7795(4) 0.5613(3)
O4_4 O 0.7043(4) 0.4562(4) 0.3729(2)
O6_4 O 0.9240(4) 0.3487(4) 0.3664(2)
O7_4 O 0.9885(4) 0.4342(4) 0.47060(18)
N3_4 N 0.7677(5) 0.5461(5) 0.4774(2)
C1_4 C 0.6512(6) 0.5582(6) 0.4764(3)
H3_4 H 0.6058 0.5150 0.4554
C3_4 C 0.9803(6) 0.3612(5) 0.3264(3)
C4_4 C 0.9927(8) 0.2335(5) 0.1972(3)
C5_4 C 0.8818(7) 0.1342(5) 0.2498(3)
H6_4 H 0.8374 0.0747 0.2551
C7_4 C 0.3534(7) 0.6234(5) 0.3349(3)
H8_4 H 0.3136 0.6856 0.3306
C8_4 C 0.5950(7) 0.6319(6) 0.5052(3)
H9_4 H 0.5127 0.6392 0.5030
C9_4 C 0.5330(6) 0.5351(5) 0.3439(3)
C11_4 C 0.6577(7) 0.6936(5) 0.5367(3)
C12_4 C 0.9644(6) 0.2853(5) 0.2836(3)
C13_4 C 0.7776(6) 0.6789(6) 0.5388(3)
H11_4 H 0.8249 0.7190 0.5607
C14_4 C 0.5970(7) 0.7741(5) 0.5669(3)
C15_4 C 0.8957(7) 0.1998(5) 0.2904(3)
H12_4 H 0.8592 0.1868 0.3224
C18_4 C 0.4734(6) 0.6238(6) 0.3353(4)
H15_4 H 0.5149 0.6848 0.3297
C20_4 C 0.8269(7) 0.6045(5) 0.5085(3)
H16_4 H 0.9089 0.5952 0.5103
C22_3 C 0.3465(6) 0.4510(6) 0.3464(3)
H17_3 H 0.3034 0.3900 0.3490
C23_3 C 0.4670(6) 0.4481(6) 0.3489(3)
H18_4 H 0.5053 0.3855 0.3541
C24_4 C 0.6643(6) 0.5325(6) 0.3516(3)
O5_4 O 0.9478(4) 0.9315(3) 0.1836(2)
O9_4 O 0.8555(4) 0.9477(4) 0.08168(19)
C2_4 C 0.7752(7) 0.7630(6) 0.0381(3)
H4_4 H 0.7617 0.7692 0.0738
H5_4 H 0.9742 0.7462 0.3355
C6_4 C 0.7209(8) 0.6881(6) 0.0109(3)
H7_4 H 0.6724 0.6416 0.0286
C10_4 C 0.9868(8) 0.8013(6) 0.2636(3)
H10_4 H 0.9390 0.8587 0.2693
C19_4 C 0.8486(6) 0.8286(5) 0.0139(3)
C21_4 C 0.9094(6) 0.9116(5) 0.0448(3)
C22_4 C 0.8465(6) 0.0490(6) 0.6536(3)
H17_4 H 0.8034 0.1100 0.6510
C23_4 C 0.9670(6) 0.0519(6) 0.6511(3)
O3_4 O 0.0098(5) 0.2205(4) 0.0613(3)
loop_
_geom_bond_atom_site_label_1
_geom_bond_atom_site_label_2
_geom_bond_site_symmetry_1
_geom_bond_site_symmetry_2
O1 H1 1_555 1_555
H2 O1 1_555 1_555
O2 C24 1_555 1_555
N4 C7 1_555 1_555
C1 N3 1_555 1_555
H3 C1 1_555 1_555
C7 H8 1_555 1_555
C9 C18 1_555 1_555
C18 C7 1_555 1_555
H15 C18 1_555 1_555
Co6 N4 1_555 1_555
C9 C24 1_555 1_555
O3 C14 1_555 1_555
O8 C14 1_555 1_555
H9 C8 1_555 1_555
C11 C8 1_555 1_555
C13 C11 1_555 1_555
H11 C13 1_555 1_555
C14 C11 1_555 1_555
H16 C20 1_555 1_555
Co4 O8 1_555 1_555
C13 C20 1_555 1_555
O4 Co1 1_555 1_555
O6 Co1 1_555 1_555
O7 Co1 1_555 1_555
N2 C4 1_555 1_555
C5 N2 1_555 1_555
H6 C5 1_555 1_555
C12 C3 1_555 1_555
C15 C5 1_555 1_555
H12 C15 1_555 1_555
H17 C22 1_555 1_555
H18 C23 1_555 1_555
Co5 N2 1_555 1_555
N5 Co1 1_555 1_555
O6 C3 1_555 1_555
C12 C15 1_555 1_555
C22 C23 1_555 1_555
O10 Co6 1_555 1_555
N6 Co6 1_555 1_555
C16 N1 1_555 1_555
H13 C16 1_555 1_555
C17 C16 1_555 1_555
H14 C17 1_555 1_555
Co3 N1 1_555 1_555
O4_2 Co1_2 1_555 1_555
O6_2 Co1_2 1_555 1_555
O7_2 Co1_2 1_555 1_555
N1_2 C6 1_555 1_555
N2_2 C4_2 1_555 1_555
C2 H4 1_555 1_555
C3_2 O5 1_555 1_555
C4_2 H5 1_555 1_555
C5_2 N2_2 1_555 1_555
H6_2 C5_2 1_555 1_555
C6 C2 1_555 1_555
H7 C6 1_555 1_555
C10 C4_2 1_555 1_555
H10 C10 1_555 1_555
C12_2 C3_2 1_555 1_555
C15_2 C5_2 1_555 1_555
H12_2 C15_2 1_555 1_555
C16_2 N1_2 1_555 1_555
H13_2 C16_2 1_555 1_555
C17_2 C16_2 1_555 1_555
H14_2 C17_2 1_555 1_555
C19 C2 1_555 1_555
C21 O7_2 1_555 1_555
Co3_2 N1_2 1_555 1_555
Co4 N2_2 1_555 1_555
N5_2 Co1_2 1_555 1_555
O6_2 C3_2 1_555 1_555
O9 C21 1_555 1_555
C10 C12_2 1_555 1_555
C12_2 C15_2 1_555 1_555
C17_2 C19 1_555 1_555
C19 C21 1_555 1_555
Co2 O1_2 1_555 1_555
O1_2 H1_2 1_555 1_555
H2_2 O1_2 1_555 1_555
O2_2 C24_2 1_555 1_555
O8_2 C14_2 1_555 1_555
C1_2 N3_2 1_555 1_555
H3_2 C1_2 1_555 1_555
C8_2 C1_2 1_555 1_555
H9_2 C8_2 1_555 1_555
C11_2 C8_2 1_555 1_555
C13_2 C11_2 1_555 1_555
H11_2 C13_2 1_555 1_555
C14_2 C11_2 1_555 1_555
C20_2 N3_2 1_555 1_555
H16_2 C20_2 1_555 1_555
Co5 O8_2 1_555 1_555
O10_2 Co2 1_555 1_555
N6_2 Co2 1_555 1_555
N7 Co2 1_555 1_555
C9_2 C24_2 1_555 1_555
C13_2 C20_2 1_555 1_555
N7 C7_2 1_555 1_555
C7_2 H8_2 1_555 1_555
C18_2 C7_2 1_555 1_555
N4_2 C7_3 1_555 1_555
C7_3 H8_3 1_555 1_555
C18_3 C7_3 1_555 1_555
C22_2 N4_2 1_555 1_555
H17_2 C22_2 1_555 1_555
Co4 N4_2 1_555 1_555
C22_2 C23_2 1_555 1_555
O10 C14_3 1_555 1_555
H9_3 C8_3 1_555 1_555
C11_3 C8_3 1_555 1_555
C13_3 C11_3 1_555 1_555
H11_3 C13_3 1_555 1_555
C14_3 C11_3 1_555 1_555
C16_3 N5 1_555 1_555
H13_3 C16_3 1_555 1_555
C17_3 C16_3 1_555 1_555
H14_3 C17_3 1_555 1_555
H16_3 C20_3 1_555 1_555
C13_3 C20_3 1_555 1_555
Co3 O1_3 1_555 1_555
Co4 O1_3 1_555 1_555
O1_3 H1_3 1_555 1_555
H2_3 O1_3 1_555 1_555
O2_3 C24_3 1_555 1_555
O4_3 Co3 1_555 1_555
O5_2 Co4 1_555 1_555
O6_3 Co3 1_555 1_555
O7_3 Co3 1_555 1_555
O9_2 Co4 1_555 1_555
N6_2 C4_3 1_555 1_555
N3_3 Co3 1_555 1_555
C1_3 N3_3 1_555 1_555
H3_3 C1_3 1_555 1_555
C2_2 H4_2 1_555 1_555
C3_3 O5_2 1_555 1_555
C4_3 H5_2 1_555 1_555
C5_3 N6_2 1_555 1_555
H6_3 C5_3 1_555 1_555
C6_2 C2_2 1_555 1_555
H7_2 C6_2 1_555 1_555
C10_2 C4_3 1_555 1_555
H10_2 C10_2 1_555 1_555
C12_3 C3_3 1_555 1_555
C15_3 C5_3 1_555 1_555
H12_3 C15_3 1_555 1_555
C19_2 C2_2 1_555 1_555
C21_2 O7_3 1_555 1_555
C24_3 O4_3 1_555 1_555
O6_3 C3_3 1_555 1_555
O9_2 C21_2 1_555 1_555
C9_3 C24_3 1_555 1_555
C10_2 C12_3 1_555 1_555
C12_3 C15_3 1_555 1_555
C19_2 C21_2 1_555 1_555
O5_3 Co5 1_555 1_555
O9_3 Co5 1_555 1_555
N5_2 C6_3 1_555 1_555
C2_3 H4_3 1_555 1_555
C6_3 C2_3 1_555 1_555
H7_3 C6_3 1_555 1_555
H10_3 C10_3 1_555 1_555
C16_4 N5_2 1_555 1_555
H13_4 C16_4 1_555 1_555
C17_4 C16_4 1_555 1_555
H14_4 C17_4 1_555 1_555
C19_3 C2_3 1_555 1_555
N7_2 Co5 1_555 1_555
O9_3 C21_3 1_555 1_555
C17_4 C19_3 1_555 1_555
C19_3 C21_3 1_555 1_555
Co3_2 O1_4 1_555 1_555
O1_4 H1_4 1_555 1_555
H2_4 O1_4 1_555 1_555
O2_4 C24_4 1_555 1_555
O3_3 C14_4 1_555 1_555
O4_4 Co3_2 1_555 1_555
O6_4 Co3_2 1_555 1_555
O7_4 Co3_2 1_555 1_555
O10_2 C14_4 1_555 1_555
N6 C4_4 1_555 1_555
N3_4 Co3_2 1_555 1_555
N7_2 C7_4 1_555 1_555
C1_4 N3_4 1_555 1_555
H3_4 C1_4 1_555 1_555
C5_4 N6 1_555 1_555
H6_4 C5_4 1_555 1_555
C7_4 H8_4 1_555 1_555
C8_4 C1_4 1_555 1_555
H9_4 C8_4 1_555 1_555
C9_4 C18_4 1_555 1_555
C11_4 C8_4 1_555 1_555
C12_4 C3_4 1_555 1_555
C13_4 C11_4 1_555 1_555
H11_4 C13_4 1_555 1_555
C14_4 C11_4 1_555 1_555
C15_4 C5_4 1_555 1_555
H12_4 C15_4 1_555 1_555
C18_4 C7_4 1_555 1_555
H15_4 C18_4 1_555 1_555
C20_4 N3_4 1_555 1_555
H16_4 C20_4 1_555 1_555
C22_3 N7_2 1_555 1_555
H17_3 C22_3 1_555 1_555
C23_3 C9_4 1_555 1_555
H18_4 C23_3 1_555 1_555
C24_4 O4_4 1_555 1_555
O6_4 C3_4 1_555 1_555
C9_4 C24_4 1_555 1_555
C12_4 C15_4 1_555 1_555
C13_4 C20_4 1_555 1_555
C22_3 C23_3 1_555 1_555
C2_4 H4_4 1_555 1_555
C6_4 C2_4 1_555 1_555
H7_4 C6_4 1_555 1_555
H10_4 C10_4 1_555 1_555
C19_4 C2_4 1_555 1_555
O9_4 C21_4 1_555 1_555
C19_4 C21_4 1_555 1_555
H17_4 C22_4 1_555 1_555
C22_4 C23_4 1_555 1_555

#END
