
###############################################################################
#
# This file contains modified crystal structure data generated from the
# MOF subset of the Cambridge Structural Database (CSD) v543 
# hosted by the Cambridge Crystallographic Data Centre (CCDC).
#
# This work is licensed under the Creative Commons
# Attribution-NonCommercial-ShareAlike 4.0 International License.
# To view a copy of this license, visit
# http://creativecommons.org/licenses/by-nc-sa/4.0/
# or send a letter to
# Creative Commons, PO Box 1866, Mountain View, CA 94042, USA.
#
# CIF created using the CSD Python API on 29 September 2022
# The structure has been converted into the P1 space group
# The structure has a 3D framework
# The original CSD entry VEDGAO is in the orthorhombic crystal system
# The original CSD entry VEDGAO is in a Sohncke space group
# The framework has been calculated to contain at least 10.0% void space
# The void calculation uses a probe of radius 1.32A, grid spacing 0.4
#
###############################################################################

data_VEDGAO
_chemical_formula_moiety         '(C96 H72 Co8 N16 O34)n'
_symmetry_cell_setting           triclinic
_symmetry_space_group_name_H-M   'P 1'
_symmetry_Int_Tables_number      1
_space_group_name_Hall           'P 1'
loop_
_symmetry_equiv_pos_site_id
_symmetry_equiv_pos_as_xyz
1 x,y,z
_cell_length_a                   11.2690(17)
_cell_length_b                   13.382(2)
_cell_length_c                   25.592(4)
_cell_angle_alpha                90
_cell_angle_beta                 90
_cell_angle_gamma                90
_cell_volume                     3859.32
loop_
_atom_site_label
_atom_site_type_symbol
_atom_site_fract_x
_atom_site_fract_y
_atom_site_fract_z
Co1 Co 0.08290(3) 0.05992(3) 0.363450(11)
N1 N 0.26703(17) 0.04963(17) 0.34279(8)
O6 O 0.12286(15) 0.18572(14) 0.40667(7)
N2 N 0.23277(19) 0.46824(16) 0.52337(8)
C1 C 0.6476(2) 0.0284(2) 0.34567(10)
C2 C 0.2410(2) 0.3337(2) 0.46164(10)
H3 H 0.2877 0.2915 0.4400
C3 C 0.1165(2) 0.3231(2) 0.46368(10)
C5 C 0.5142(2) 0.0340(2) 0.33991(10)
C6 C 0.2932(2) 0.4068(2) 0.49200(10)
H5 H 0.3771 0.4138 0.4905
C8 C 0.0564(2) 0.2402(2) 0.43440(9)
C10 C 0.1139(2) 0.4605(2) 0.52387(10)
H7 H 0.0697 0.5057 0.5449
O9 O 0.70809(17) 0.09881(18) 0.32867(8)
C14 C 0.4581(2) 0.1266(2) 0.33642(11)
H10 H 0.5034 0.1860 0.3322
C15 C 0.0531(2) 0.3896(2) 0.49510(11)
C22 C 0.3347(2) 0.1311(2) 0.33925(11)
H16 H 0.2973 0.1947 0.3386
Co5 Co 0.32858(3) 0.55968(3) 0.578860(12)
N6 N 0.04818(18) 0.15336(16) 0.29716(8)
O2 O 0.04476(15) 0.93817(15) 0.31889(7)
O3 O 0.68534(14) 0.95151(14) 0.36914(7)
O5 O 0.13003(15) 0.96638(14) 0.42530(7)
C7 C 0.0748(2) 0.92484(19) 0.46130(9)
C11 C 0.0304(2) 0.8043(2) 0.23831(10)
H8 H 0.0788 0.8618 0.2338
C12 C 0.4431(2) 0.9498(2) 0.34143(10)
H9 H 0.4782 0.8852 0.3416
N4 N 0.2542(2) 0.69088(18) 0.54497(8)
C16 C 0.3210(2) 0.9596(2) 0.34273(11)
H12 H 0.2735 0.9010 0.3436
C17 C 0.1682(3) 0.7431(2) 0.56728(11)
H13 H 0.1468 0.7271 0.6022
C18 C 0.1417(2) 0.8474(2) 0.49291(10)
C20 C 0.2345(4) 0.7952(4) 0.47112(16)
H14 H 0.2618 0.8117 0.4371
C21 C 0.1077(3) 0.8199(3) 0.54249(11)
H15 H 0.0439 0.8529 0.5595
C23 C 0.0170(2) 0.7360(2) 0.19783(10)
H17 H 0.0556 0.7486 0.1655
C24 C 0.2867(4) 0.7209(4) 0.49800(17)
H18 H 0.3517 0.6876 0.4820
Co4 Co 0.82858(3) 0.94032(3) 0.421140(12)
O7 O 0.89895(13) 0.07331(13) 0.38693(6)
H1 H 0.8918 0.1287 0.4124
H2 H 0.8507 0.0909 0.3559
O8 O 0.94634(17) 0.23236(15) 0.43875(8)
H11 H 0.9689 0.3861 0.4967
N5 N 0.73277(19) 0.03176(16) 0.47663(8)
O1 O 0.96718(14) 0.93731(15) 0.47410(6)
O4 O 0.91539(16) 0.84992(13) 0.36764(7)
N3 N 0.95182(18) 0.65336(16) 0.20284(8)
C4 C 0.9068(2) 0.70106(19) 0.29097(9)
H4 H 0.8676 0.6869 0.3230
C9 C 0.8995(2) 0.6355(2) 0.24901(10)
H6 H 0.8556 0.5755 0.2532
C13 C 0.9729(2) 0.78770(19) 0.28488(10)
C19 C 0.9775(2) 0.86553(19) 0.32789(9)
Co3 Co 0.91710(3) 0.55992(3) 0.136550(11)
N7 N 0.7542(2) 0.80912(18) 0.45503(8)
N4_2 N 0.2458(2) 0.30912(18) 0.04497(8)
C17_2 C 0.3318(3) 0.2569(2) 0.06728(11)
H13_2 H 0.3532 0.2729 0.1022
C21_2 C 0.3923(3) 0.1801(3) 0.04249(11)
H15_2 H 0.4561 0.1471 0.0595
Co6 Co 0.17142(3) 0.44032(3) 0.078860(12)
Co2 Co 0.67142(3) 0.05968(3) 0.921140(12)
O1_2 O 0.53282(14) 0.06269(15) 0.97410(6)
O2_2 O 0.45524(15) 0.06183(15) 0.81889(7)
O4_2 O 0.58461(16) 0.15008(13) 0.86764(7)
O5_2 O 0.36997(15) 0.03362(14) 0.92530(7)
N3_2 N 0.54818(18) 0.34664(16) 0.70284(8)
C4_2 C 0.5932(2) 0.29894(19) 0.79097(9)
H4_2 H 0.6324 0.3131 0.8230
C7_2 C 0.4252(2) 0.07516(19) 0.96130(9)
C9_2 C 0.6005(2) 0.3645(2) 0.74901(10)
H6_2 H 0.6444 0.4245 0.7532
C11_2 C 0.4696(2) 0.1957(2) 0.73831(10)
H8_2 H 0.4212 0.1382 0.7338
C12_2 C 0.0569(2) 0.0502(2) 0.84143(10)
H9_2 H 0.0218 0.1148 0.8416
C13_2 C 0.5271(2) 0.21230(19) 0.78488(10)
C16_2 C 0.1790(2) 0.0404(2) 0.84273(11)
H12_2 H 0.2265 0.0990 0.8436
C18_2 C 0.3583(2) 0.1526(2) 0.99291(10)
C19_2 C 0.5225(2) 0.13447(19) 0.82789(9)
C20_2 C 0.2655(4) 0.2048(4) 0.97112(16)
H14_2 H 0.2382 0.1883 0.9371
C23_2 C 0.4830(2) 0.2640(2) 0.69783(10)
H17_2 H 0.4444 0.2514 0.6655
C24_2 C 0.2133(4) 0.2791(4) 0.99800(17)
H18_2 H 0.1483 0.3124 0.9820
Co3_2 Co 0.58290(3) 0.44008(3) 0.636550(11)
O10 O 0.81466(14) 0.04849(14) 0.86914(7)
N7_2 N 0.7458(2) 0.19088(18) 0.95503(8)
N2_2 N 0.26723(19) 0.53176(16) 0.02337(8)
C10_2 C 0.3861(2) 0.5395(2) 0.02387(10)
H7_2 H 0.4303 0.4943 0.0449
Co1_2 Co 0.41710(3) 0.94008(3) 0.863450(11)
N1_2 N 0.23297(17) 0.95037(17) 0.84279(8)
O6_2 O 0.37714(15) 0.81428(14) 0.90667(7)
O7_2 O 0.60105(13) 0.92669(13) 0.88693(6)
H1_2 H 0.6082 0.8713 0.9124
H2_2 H 0.6493 0.9091 0.8559
O8_2 O 0.55366(17) 0.76764(15) 0.93875(8)
C2_2 C 0.2590(2) 0.6663(2) 0.96164(10)
H3_2 H 0.2123 0.7085 0.9400
C3_2 C 0.3835(2) 0.6769(2) 0.96368(10)
C6_2 C 0.2068(2) 0.5932(2) 0.99200(10)
H5_2 H 0.1229 0.5862 0.9905
C8_2 C 0.4436(2) 0.7598(2) 0.93440(9)
C14_2 C 0.0419(2) 0.8734(2) 0.83642(11)
C15_2 C 0.4469(2) 0.6104(2) 0.99510(11)
H11_2 H 0.5311 0.6139 0.9967
C22_2 C 0.1653(2) 0.8689(2) 0.83925(11)
H16_2 H 0.2027 0.8053 0.8386
N5_2 N 0.76723(19) 0.96824(16) 0.97663(8)
N6_2 N 0.45182(18) 0.84664(16) 0.79716(8)
O3_2 O 0.18534(14) 0.54849(14) 0.63086(7)
C1_2 C 0.1476(2) 0.4716(2) 0.65433(10)
C5_2 C 0.0142(2) 0.4660(2) 0.66009(10)
O9_2 O 0.20809(17) 0.40119(18) 0.67133(8)
H10_2 H 0.0034 0.3140 0.6678
O1_3 O 0.46718(14) 0.56269(15) 0.52590(6)
O2_3 O 0.54476(15) 0.56183(15) 0.68111(7)
O4_3 O 0.41539(16) 0.65008(13) 0.63236(7)
N1_3 N 0.76703(17) 0.45037(17) 0.65721(8)
O5_3 O 0.63003(15) 0.53362(14) 0.57470(7)
O6_3 O 0.62286(15) 0.31428(14) 0.59333(7)
O7_3 O 0.39895(13) 0.42669(13) 0.61307(6)
H1_3 H 0.3918 0.3713 0.5876
H2_3 H 0.3507 0.4091 0.6441
O8_3 O 0.44634(17) 0.26764(15) 0.56125(8)
C2_3 C 0.7410(2) 0.1663(2) 0.53836(10)
H3_3 H 0.7877 0.2085 0.5600
C3_3 C 0.6165(2) 0.1769(2) 0.53632(10)
C4_3 C 0.4068(2) 0.79894(19) 0.70903(9)
H4_3 H 0.3676 0.8131 0.6770
C6_3 C 0.7932(2) 0.0932(2) 0.50800(10)
H5_3 H 0.8771 0.0862 0.5095
C7_3 C 0.5748(2) 0.57516(19) 0.53870(9)
C8_3 C 0.5564(2) 0.2598(2) 0.56560(9)
C9_3 C 0.3995(2) 0.8645(2) 0.75099(10)
H6_3 H 0.3556 0.9245 0.7468
C10_3 C 0.6139(2) 0.0395(2) 0.47613(10)
C11_3 C 0.5304(2) 0.6957(2) 0.76169(10)
H8_3 H 0.5788 0.6382 0.7662
C12_3 C 0.9431(2) 0.5502(2) 0.65857(10)
H9_3 H 0.9782 0.6148 0.6584
C13_3 C 0.4729(2) 0.71230(19) 0.71512(10)
C14_3 C 0.9581(2) 0.3734(2) 0.66358(11)
C15_3 C 0.5531(2) 0.1104(2) 0.50490(11)
H11_3 H 0.4689 0.1139 0.5033
C16_3 C 0.8210(2) 0.5404(2) 0.65727(11)
H12_3 H 0.7735 0.5990 0.6564
C17_3 C 0.6682(3) 0.7569(2) 0.43272(11)
H13_3 H 0.6468 0.7729 0.3978
C18_3 C 0.6417(2) 0.6526(2) 0.50709(10)
C19_3 C 0.4775(2) 0.63447(19) 0.67211(9)
C20_3 C 0.7345(4) 0.7048(4) 0.52888(16)
H14_3 H 0.7618 0.6883 0.5629
C21_3 C 0.6077(3) 0.6801(3) 0.45751(11)
H15_3 H 0.5439 0.6471 0.4405
C22_3 C 0.8347(2) 0.3689(2) 0.66075(11)
H16_3 H 0.7973 0.3053 0.6614
C23_3 C 0.5170(2) 0.7640(2) 0.80217(10)
H17_3 H 0.5556 0.7514 0.8345
C24_3 C 0.7867(4) 0.7791(4) 0.50200(17)
H18_3 H 0.8517 0.8124 0.5180
H7_3 H 0.5697 0.9943 0.4551
O1_4 O 0.03282(14) 0.43731(15) 0.02590(6)
O4_4 O 0.08461(16) 0.34992(13) 0.13236(7)
O7_4 O 0.10105(13) 0.57331(13) 0.11307(6)
H1_4 H 0.1082 0.6287 0.0876
H2_4 H 0.1493 0.5909 0.1441
O8_4 O 0.05366(17) 0.73236(15) 0.06125(8)
C4_4 C 0.0932(2) 0.20106(19) 0.20903(9)
H4_4 H 0.1324 0.1869 0.1770
C9_4 C 0.1005(2) 0.1355(2) 0.25099(10)
H6_4 H 0.1444 0.0755 0.2468
C13_4 C 0.0271(2) 0.28770(19) 0.21512(10)
H11_4 H 0.0311 0.8861 0.0033
C19_4 C 0.0225(2) 0.36553(19) 0.17211(9)
O10_2 O 0.31466(14) 0.45151(14) 0.13086(7)
H7_4 H 0.9303 0.0057 0.9551
O2_4 O 0.95524(15) 0.43817(15) 0.18111(7)
N1_4 N 0.73297(17) 0.54963(17) 0.15721(8)
O5_4 O 0.86997(15) 0.46638(14) 0.07470(7)
O6_4 O 0.87714(15) 0.68572(14) 0.09333(7)
C1_3 C 0.3524(2) 0.5284(2) 0.15433(10)
C2_4 C 0.7590(2) 0.8337(2) 0.03836(10)
H3_4 H 0.7123 0.7915 0.0600
C3_4 C 0.8835(2) 0.8231(2) 0.03632(10)
C5_3 C 0.4858(2) 0.5340(2) 0.16009(10)
C6_4 C 0.7068(2) 0.9068(2) 0.00800(10)
H5_4 H 0.6229 0.9138 0.0095
C7_4 C 0.9252(2) 0.42484(19) 0.03870(9)
C8_4 C 0.9436(2) 0.7402(2) 0.06560(9)
C11_4 C 0.9696(2) 0.3043(2) 0.26169(10)
H8_4 H 0.9212 0.3618 0.2662
C12_4 C 0.5569(2) 0.4498(2) 0.15857(10)
H9_4 H 0.5218 0.3852 0.1584
O9_3 O 0.29191(17) 0.59881(18) 0.17133(8)
C14_4 C 0.5419(2) 0.6266(2) 0.16358(11)
H10_3 H 0.4966 0.6860 0.1678
C15_4 C 0.9469(2) 0.8896(2) 0.00490(11)
C16_4 C 0.6790(2) 0.4596(2) 0.15727(11)
H12_4 H 0.7265 0.4010 0.1564
C18_4 C 0.8583(2) 0.3474(2) 0.00709(10)
C20_4 C 0.7655(4) 0.2952(4) 0.02888(16)
H14_4 H 0.7382 0.3117 0.0629
C22_4 C 0.6653(2) 0.6311(2) 0.16075(11)
H16_4 H 0.7027 0.6947 0.1614
C23_4 C 0.9830(2) 0.2360(2) 0.30217(10)
H17_4 H 0.9444 0.2486 0.3345
C24_4 C 0.7133(4) 0.2209(4) 0.00200(17)
H18_4 H 0.6483 0.1876 0.0180
C10_4 C 0.8861(2) 0.9605(2) 0.97613(10)
C17_4 C 0.8318(3) 0.2431(2) 0.93272(11)
H13_4 H 0.8532 0.2271 0.8978
C21_4 C 0.8923(3) 0.3199(3) 0.95751(11)
H15_4 H 0.9561 0.3529 0.9405
C1_4 C 0.8524(2) 0.9716(2) 0.84567(10)
C5_4 C 0.9858(2) 0.9660(2) 0.83991(10)
O9_4 O 0.79191(17) 0.90119(18) 0.82867(8)
H10_4 H 0.9966 0.8140 0.8322
loop_
_geom_bond_atom_site_label_1
_geom_bond_atom_site_label_2
_geom_bond_site_symmetry_1
_geom_bond_site_symmetry_2
N1 Co1 1_555 1_555
O6 Co1 1_555 1_555
N2 C6 1_555 1_555
C1 C5 1_555 1_555
C2 H3 1_555 1_555
C3 C2 1_555 1_555
C6 C2 1_555 1_555
H5 C6 1_555 1_555
C8 O6 1_555 1_555
C10 N2 1_555 1_555
H7 C10 1_555 1_555
O9 C1 1_555 1_555
C14 C5 1_555 1_555
H10 C14 1_555 1_555
C15 C3 1_555 1_555
C22 N1 1_555 1_555
H16 C22 1_555 1_555
Co5 N2 1_555 1_555
N6 Co1 1_555 1_555
C3 C8 1_555 1_555
C10 C15 1_555 1_555
C14 C22 1_555 1_555
C7 O5 1_555 1_555
C11 H8 1_555 1_555
C12 H9 1_555 1_555
N4 C17 1_555 1_555
H12 C16 1_555 1_555
C17 H13 1_555 1_555
C18 C7 1_555 1_555
C20 C18 1_555 1_555
H14 C20 1_555 1_555
C21 C17 1_555 1_555
H15 C21 1_555 1_555
H17 C23 1_555 1_555
C24 N4 1_555 1_555
H18 C24 1_555 1_555
Co4 O3 1_555 1_555
Co5 N4 1_555 1_555
C11 C23 1_555 1_555
C12 C16 1_555 1_555
C18 C21 1_555 1_555
C20 C24 1_555 1_555
H1 O7 1_555 1_555
H2 O7 1_555 1_555
Co4 O1 1_555 1_555
O4 Co4 1_555 1_555
N3 C9 1_555 1_555
C4 H4 1_555 1_555
C9 C4 1_555 1_555
H6 C9 1_555 1_555
C13 C4 1_555 1_555
C19 O4 1_555 1_555
Co3 N3 1_555 1_555
N7 Co4 1_555 1_555
C13 C19 1_555 1_555
N4_2 C17_2 1_555 1_555
C17_2 H13_2 1_555 1_555
C21_2 C17_2 1_555 1_555
H15_2 C21_2 1_555 1_555
Co6 N4_2 1_555 1_555
Co2 O1_2 1_555 1_555
O1_2 C7_2 1_555 1_555
O2_2 C19_2 1_555 1_555
O4_2 Co2 1_555 1_555
N3_2 C9_2 1_555 1_555
C4_2 H4_2 1_555 1_555
C7_2 O5_2 1_555 1_555
C9_2 C4_2 1_555 1_555
H6_2 C9_2 1_555 1_555
C11_2 H8_2 1_555 1_555
C12_2 H9_2 1_555 1_555
C13_2 C4_2 1_555 1_555
H12_2 C16_2 1_555 1_555
C18_2 C7_2 1_555 1_555
C19_2 O4_2 1_555 1_555
C20_2 C18_2 1_555 1_555
H14_2 C20_2 1_555 1_555
C23_2 N3_2 1_555 1_555
H17_2 C23_2 1_555 1_555
H18_2 C24_2 1_555 1_555
Co3_2 N3_2 1_555 1_555
O10 Co2 1_555 1_555
N7_2 Co2 1_555 1_555
C11_2 C13_2 1_555 1_555
C11_2 C23_2 1_555 1_555
C12_2 C16_2 1_555 1_555
C13_2 C19_2 1_555 1_555
C20_2 C24_2 1_555 1_555
C10_2 N2_2 1_555 1_555
H7_2 C10_2 1_555 1_555
Co6 N2_2 1_555 1_555
N1_2 Co1_2 1_555 1_555
O6_2 Co1_2 1_555 1_555
O7_2 Co1_2 1_555 1_555
H1_2 O7_2 1_555 1_555
H2_2 O7_2 1_555 1_555
O8_2 C8_2 1_555 1_555
C2_2 H3_2 1_555 1_555
C3_2 C2_2 1_555 1_555
C6_2 C2_2 1_555 1_555
H5_2 C6_2 1_555 1_555
C8_2 O6_2 1_555 1_555
C15_2 C3_2 1_555 1_555
H11_2 C15_2 1_555 1_555
C22_2 N1_2 1_555 1_555
H16_2 C22_2 1_555 1_555
N6_2 Co1_2 1_555 1_555
C3_2 C8_2 1_555 1_555
C14_2 C22_2 1_555 1_555
O3_2 C1_2 1_555 1_555
C1_2 C5_2 1_555 1_555
O9_2 C1_2 1_555 1_555
Co5 O3_2 1_555 1_555
Co3_2 O2_3 1_555 1_555
Co5 O1_3 1_555 1_555
O1_3 C7_3 1_555 1_555
O2_3 C19_3 1_555 1_555
O4_3 Co5 1_555 1_555
N1_3 Co3_2 1_555 1_555
O5_3 Co3_2 1_555 1_555
O6_3 Co3_2 1_555 1_555
O7_3 Co3_2 1_555 1_555
H1_3 O7_3 1_555 1_555
H2_3 O7_3 1_555 1_555
N5 C6_3 1_555 1_555
N6_2 C9_3 1_555 1_555
O8_3 C8_3 1_555 1_555
C2_3 H3_3 1_555 1_555
C3_3 C2_3 1_555 1_555
C4_3 H4_3 1_555 1_555
C6_3 C2_3 1_555 1_555
H5_3 C6_3 1_555 1_555
C7_3 O5_3 1_555 1_555
C8_3 O6_3 1_555 1_555
C9_3 C4_3 1_555 1_555
H6_3 C9_3 1_555 1_555
C10_3 N5 1_555 1_555
C11_3 H8_3 1_555 1_555
C12_3 H9_3 1_555 1_555
C13_3 C4_3 1_555 1_555
N7 C17_3 1_555 1_555
C15_3 C3_3 1_555 1_555
H11_3 C15_3 1_555 1_555
C16_3 N1_3 1_555 1_555
H12_3 C16_3 1_555 1_555
C17_3 H13_3 1_555 1_555
C18_3 C7_3 1_555 1_555
C19_3 O4_3 1_555 1_555
C20_3 C18_3 1_555 1_555
H14_3 C20_3 1_555 1_555
C21_3 C17_3 1_555 1_555
H15_3 C21_3 1_555 1_555
C22_3 N1_3 1_555 1_555
H16_3 C22_3 1_555 1_555
C23_3 N6_2 1_555 1_555
H17_3 C23_3 1_555 1_555
C24_3 N7 1_555 1_555
H18_3 C24_3 1_555 1_555
Co5 O7_3 1_555 1_555
C3_3 C8_3 1_555 1_555
C10_3 C15_3 1_555 1_555
C11_3 C13_3 1_555 1_555
C11_3 C23_3 1_555 1_555
C12_3 C16_3 1_555 1_555
C13_3 C19_3 1_555 1_555
C14_3 C22_3 1_555 1_555
C18_3 C21_3 1_555 1_555
C20_3 C24_3 1_555 1_555
Co6 O1_4 1_555 1_555
O4_4 Co6 1_555 1_555
H1_4 O7_4 1_555 1_555
H2_4 O7_4 1_555 1_555
N6 C9_4 1_555 1_555
C4_4 H4_4 1_555 1_555
C9_4 C4_4 1_555 1_555
H6_4 C9_4 1_555 1_555
C13_4 C4_4 1_555 1_555
C19_4 O4_4 1_555 1_555
O10_2 Co6 1_555 1_555
Co6 O7_4 1_555 1_555
C13_4 C19_4 1_555 1_555
Co3 O2_4 1_555 1_555
O10_2 C1_3 1_555 1_555
N1_4 Co3 1_555 1_555
O5_4 Co3 1_555 1_555
O6_4 Co3 1_555 1_555
C1_3 C5_3 1_555 1_555
C2_4 H3_4 1_555 1_555
C3_4 C2_4 1_555 1_555
C5_3 C12_4 1_555 1_555
C6_4 C2_4 1_555 1_555
H5_4 C6_4 1_555 1_555
C7_4 O5_4 1_555 1_555
C8_4 O6_4 1_555 1_555
C11_4 H8_4 1_555 1_555
C12_4 H9_4 1_555 1_555
O9_3 C1_3 1_555 1_555
C14_4 C5_3 1_555 1_555
H10_3 C14_4 1_555 1_555
C15_4 C3_4 1_555 1_555
C16_4 N1_4 1_555 1_555
H12_4 C16_4 1_555 1_555
C18_4 C7_4 1_555 1_555
C20_4 C18_4 1_555 1_555
H14_4 C20_4 1_555 1_555
C22_4 N1_4 1_555 1_555
H16_4 C22_4 1_555 1_555
H17_4 C23_4 1_555 1_555
H18_4 C24_4 1_555 1_555
C3_4 C8_4 1_555 1_555
C11_4 C23_4 1_555 1_555
C12_4 C16_4 1_555 1_555
C14_4 C22_4 1_555 1_555
C20_4 C24_4 1_555 1_555
C10_4 N5_2 1_555 1_555
N7_2 C17_4 1_555 1_555
C17_4 H13_4 1_555 1_555
C21_4 C17_4 1_555 1_555
H15_4 C21_4 1_555 1_555
C1_4 C5_4 1_555 1_555
O9_4 C1_4 1_555 1_555

#END
