
###############################################################################
#
# This file contains modified crystal structure data generated from the
# MOF subset of the Cambridge Structural Database (CSD) v543 
# hosted by the Cambridge Crystallographic Data Centre (CCDC).
#
# This work is licensed under the Creative Commons
# Attribution-NonCommercial-ShareAlike 4.0 International License.
# To view a copy of this license, visit
# http://creativecommons.org/licenses/by-nc-sa/4.0/
# or send a letter to
# Creative Commons, PO Box 1866, Mountain View, CA 94042, USA.
#
# CIF created using the CSD Python API on 29 September 2022
# The structure has been converted into the P1 space group
# The structure has a 3D framework
# The original CSD entry VEDHAR is in the monoclinic crystal system
# The framework has been calculated to contain at least 10.0% void space
# The void calculation uses a probe of radius 1.32A, grid spacing 0.4
#
###############################################################################

data_VEDHAR
_chemical_formula_moiety         '(C184 H152 Ni16 O132)n'
_symmetry_cell_setting           triclinic
_symmetry_space_group_name_H-M   'P 1'
_symmetry_Int_Tables_number      1
_space_group_name_Hall           'P 1'
loop_
_symmetry_equiv_pos_site_id
_symmetry_equiv_pos_as_xyz
1 x,y,z
_cell_length_a                   24.2658(5)
_cell_length_b                   14.8227(2)
_cell_length_c                   19.8121(3)
_cell_angle_alpha                90
_cell_angle_beta                 127.678(2)
_cell_angle_gamma                90
_cell_volume                     5640.02
loop_
_atom_site_label
_atom_site_type_symbol
_atom_site_fract_x
_atom_site_fract_y
_atom_site_fract_z
Ni1 Ni 0.65803(2) 0.00735(2) 0.64528(2)
Ni2 Ni 0.16812(2) 0.26193(2) 0.18001(2)
O1 O 0.66623(9) 0.06294(11) 0.24046(10)
O3 O 0.64740(10) 0.06256(11) 0.54482(10)
O4 O 0.66201(12) 0.20967(12) 0.57670(12)
O5 O 0.80075(10) 0.62248(13) 0.51655(13)
H1 H 0.831238 0.659206 0.548568
O6 O 0.74673(11) 0.68553(15) 0.56457(13)
O7 O 0.25981(8) 0.45610(12) 0.23204(11)
O8 O 0.26481(9) 0.30910(12) 0.26317(11)
O9 O 0.49374(10) 0.19751(12) 0.53757(11)
O10 O 0.57564(9) 0.30323(12) 0.60401(11)
O11 O 0.51130(9) 0.53487(12) 0.38448(13)
O12 O 0.65881(12) 0.36027(11) 0.34696(13)
O13 O 0.61663(8) 0.11848(10) 0.66606(10)
H2 H 0.579295 0.130648 0.629839
H3 H 0.616885 0.103368 0.700369
O15 O 0.17600(11) 0.22100(14) 0.28568(11)
H6 H 0.135370 0.209566 0.271632
H7 H 0.191010 0.264736 0.321592
O16 O 0.20713(10) 0.13682(12) 0.18114(13)
H8 H 0.194305 0.094925 0.199959
H9 H 0.252415 0.136145 0.218189
C1 C 0.64594(13) 0.04261(16) 0.28365(15)
C2 C 0.65416(12) 0.14374(15) 0.53267(14)
C3 C 0.74827(13) 0.63160(16) 0.52011(16)
C4 C 0.29141(12) 0.38511(15) 0.27186(13)
C5 C 0.51815(12) 0.27363(16) 0.54045(14)
C6 C 0.64741(14) 0.09518(16) 0.40539(15)
H10 H 0.643063 0.035504 0.416000
C7 C 0.64877(14) 0.11624(16) 0.33796(15)
C8 C 0.65248(15) 0.20552(17) 0.31975(16)
H11 H 0.653141 0.219537 0.274492
C9 C 0.65518(15) 0.27346(16) 0.36970(16)
C10 C 0.65676(15) 0.25382(16) 0.43916(16)
H12 H 0.660561 0.299929 0.473632
C11 C 0.65259(14) 0.16402(16) 0.45691(15)
C12 C 0.64695(14) 0.43171(15) 0.38129(15)
C13 C 0.69997(14) 0.49432(16) 0.42767(16)
H13 H 0.741336 0.487724 0.434742
C14 C 0.69023(12) 0.56732(16) 0.46354(15)
C15 C 0.62795(13) 0.57827(16) 0.45178(16)
H14 H 0.622005 0.626288 0.476995
C16 C 0.57505(12) 0.51658(16) 0.40199(15)
C17 C 0.58376(14) 0.44236(17) 0.36681(15)
H15 H 0.548048 0.400706 0.334260
C18 C 0.47711(13) 0.46422(16) 0.39146(16)
C19 C 0.40557(12) 0.45992(16) 0.33179(15)
H16 H 0.381797 0.502566 0.288407
C20 C 0.36942(11) 0.39119(16) 0.33720(14)
C21 C 0.40543(12) 0.32740(16) 0.40270(14)
H17 H 0.381606 0.279743 0.404826
C22 C 0.47703(12) 0.33559(15) 0.46463(14)
C23 C 0.51331(12) 0.40423(17) 0.45901(15)
H18 H 0.561253 0.409661 0.500128
Ni4 Ni 0.15803(2) 0.49265(2) 0.14528(2)
Ni5 Ni 0.66812(2) 0.23807(2) 0.68001(2)
O19 O 0.16201(12) 0.29033(12) 0.07670(12)
O20 O 0.75981(8) 0.04390(12) 0.73204(11)
O21 O 0.07564(9) 0.19677(12) 0.10401(11)
O22 O 0.11663(8) 0.38152(10) 0.16606(10)
O2 O 0.62415(13) 0.96588(13) 0.28426(13)
O14 O 0.55821(10) 0.95306(13) 0.56504(13)
H4 H 0.556693 0.901592 0.549355
H5 H 0.539573 0.959732 0.590635
O17 O 0.69093(10) 0.88925(12) 0.62152(11)
H19 H 0.661762 0.859437 0.623770
H20 H 0.667982 0.902607 0.568510
Ni3 Ni 0.65803(2) 0.99265(2) 0.14528(2)
O18 O 0.66623(9) 0.93706(11) 0.74046(10)
Ni1_2 Ni 0.15803(2) 0.50735(2) 0.64528(2)
O1_2 O 0.16623(9) 0.56294(11) 0.24046(10)
O2_2 O 0.12415(13) 0.46588(13) 0.28426(13)
O3_2 O 0.14740(10) 0.56256(11) 0.54482(10)
O4_2 O 0.16201(12) 0.70967(12) 0.57670(12)
O10_2 O 0.07564(9) 0.80323(12) 0.60401(11)
O12_2 O 0.15881(12) 0.86027(11) 0.34696(13)
O13_2 O 0.11663(8) 0.61848(10) 0.66606(10)
H2_2 H 0.079295 0.630648 0.629839
H3_2 H 0.116885 0.603368 0.700369
O14_2 O 0.05821(10) 0.45306(13) 0.56504(13)
H4_2 H 0.056693 0.401592 0.549355
H5_2 H 0.039573 0.459732 0.590635
C1_2 C 0.14594(13) 0.54261(16) 0.28365(15)
C2_2 C 0.15416(12) 0.64374(15) 0.53267(14)
C5_2 C 0.01815(12) 0.77363(16) 0.54045(14)
C6_2 C 0.14741(14) 0.59518(16) 0.40539(15)
H10_2 H 0.143063 0.535504 0.416000
C7_2 C 0.14877(14) 0.61624(16) 0.33796(15)
C8_2 C 0.15248(15) 0.70552(17) 0.31975(16)
H11_2 H 0.153141 0.719537 0.274492
C9_2 C 0.15518(15) 0.77346(16) 0.36970(16)
C10_2 C 0.15676(15) 0.75382(16) 0.43916(16)
H12_2 H 0.160561 0.799929 0.473632
C11_2 C 0.15259(14) 0.66402(16) 0.45691(15)
C12_2 C 0.14695(14) 0.93171(15) 0.38129(15)
C13_2 C 0.19997(14) 0.99432(16) 0.42767(16)
H13_2 H 0.241336 0.987724 0.434742
C17_2 C 0.08376(14) 0.94236(17) 0.36681(15)
H15_2 H 0.048048 0.900706 0.334260
C23_2 C 0.01331(12) 0.90423(17) 0.45901(15)
H18_2 H 0.061253 0.909661 0.500128
O17_2 O 0.19093(10) 0.38925(12) 0.62152(11)
H19_2 H 0.161762 0.359437 0.623770
H20_2 H 0.167982 0.402607 0.568510
Ni5_2 Ni 0.16812(2) 0.73807(2) 0.68001(2)
O18_2 O 0.16623(9) 0.43706(11) 0.74046(10)
O20_2 O 0.25981(8) 0.54390(12) 0.73204(11)
Ni2_2 Ni 0.66812(2) 0.76193(2) 0.18001(2)
O7_2 O 0.75981(8) 0.95610(12) 0.23204(11)
O8_2 O 0.76481(9) 0.80910(12) 0.26317(11)
O9_2 O 0.99374(10) 0.69751(12) 0.53757(11)
O15_2 O 0.67600(11) 0.72100(14) 0.28568(11)
H6_2 H 0.635370 0.709566 0.271632
H7_2 H 0.691010 0.764736 0.321592
O16_2 O 0.70713(10) 0.63682(12) 0.18114(13)
H8_2 H 0.694305 0.594925 0.199959
H9_2 H 0.752415 0.636145 0.218189
C4_2 C 0.79141(12) 0.88511(15) 0.27186(13)
C18_2 C 0.97711(13) 0.96422(16) 0.39146(16)
C19_2 C 0.90557(12) 0.95992(16) 0.33179(15)
C20_2 C 0.86942(11) 0.89119(16) 0.33720(14)
C21_2 C 0.90543(12) 0.82740(16) 0.40270(14)
H17_2 H 0.881606 0.779743 0.404826
C22_2 C 0.97703(12) 0.83559(15) 0.46463(14)
O19_2 O 0.66201(12) 0.79033(12) 0.07670(12)
O21_2 O 0.57564(9) 0.69677(12) 0.10401(11)
O22_2 O 0.61663(8) 0.88152(10) 0.16606(10)
O14_3 O 0.55821(10) 0.04694(13) 0.06504(13)
H4_3 H 0.556693 0.098408 0.049355
H5_3 H 0.539573 0.040268 0.090635
O17_3 O 0.69093(10) 0.11075(12) 0.12152(11)
H19_3 H 0.661762 0.140563 0.123770
H20_3 H 0.667982 0.097393 0.068510
O2_3 O 0.62415(13) 0.03412(13) 0.78426(13)
O3_3 O 0.64740(10) 0.93744(11) 0.04482(10)
O5_2 O 0.80075(10) 0.37752(13) 0.01655(13)
H1_2 H 0.831238 0.340794 0.048568
O6_2 O 0.74673(11) 0.31447(15) 0.06457(13)
O9_3 O 0.49374(10) 0.80249(12) 0.03757(11)
H2_3 H 0.579295 0.869352 0.129839
H3_3 H 0.616885 0.896632 0.200369
C2_3 C 0.65416(12) 0.85626(15) 0.03267(14)
C3_2 C 0.74827(13) 0.36840(16) 0.02011(16)
C5_3 C 0.51815(12) 0.72637(16) 0.04045(14)
H18_3 H 0.561253 0.590339 0.000128
O8_3 O 0.26481(9) 0.69090(12) 0.76317(11)
O11_2 O 0.51130(9) 0.46513(12) 0.88448(13)
O12_3 O 0.65881(12) 0.63973(11) 0.84696(13)
O15_3 O 0.17600(11) 0.77900(14) 0.78568(11)
H6_3 H 0.135370 0.790434 0.771632
H7_3 H 0.191010 0.735264 0.821592
O16_3 O 0.20713(10) 0.86318(12) 0.68114(13)
H8_3 H 0.194305 0.905075 0.699959
H9_3 H 0.252415 0.863855 0.718189
C1_3 C 0.64594(13) 0.95739(16) 0.78365(15)
C4_3 C 0.29141(12) 0.61489(15) 0.77186(13)
C6_3 C 0.64741(14) 0.90482(16) 0.90539(15)
H10_3 H 0.643063 0.964496 0.916000
C7_3 C 0.64877(14) 0.88376(16) 0.83796(15)
C8_3 C 0.65248(15) 0.79448(17) 0.81975(16)
H11_3 H 0.653141 0.780463 0.774492
C9_3 C 0.65518(15) 0.72654(16) 0.86970(16)
C10_3 C 0.65676(15) 0.74618(16) 0.93916(16)
H12_3 H 0.660561 0.700071 0.973632
C11_3 C 0.65259(14) 0.83598(16) 0.95691(15)
C12_3 C 0.64695(14) 0.56829(15) 0.88129(15)
C13_3 C 0.69997(14) 0.50568(16) 0.92767(16)
H13_3 H 0.741336 0.512276 0.934742
C14_2 C 0.69023(12) 0.43268(16) 0.96354(15)
C15_2 C 0.62795(13) 0.42173(16) 0.95178(16)
H14_2 H 0.622005 0.373712 0.976995
C16_2 C 0.57505(12) 0.48342(16) 0.90199(15)
C17_3 C 0.58376(14) 0.55764(17) 0.86681(15)
H15_3 H 0.548048 0.599294 0.834260
C18_3 C 0.47711(13) 0.53578(16) 0.89146(16)
C19_3 C 0.40557(12) 0.54008(16) 0.83179(15)
H16_2 H 0.381797 0.497434 0.788407
C20_3 C 0.36942(11) 0.60881(16) 0.83720(14)
C21_3 C 0.40543(12) 0.67260(16) 0.90270(14)
H17_3 H 0.381606 0.720257 0.904826
C22_3 C 0.47703(12) 0.66441(15) 0.96463(14)
C23_3 C 0.51331(12) 0.59577(17) 0.95901(15)
O3_4 O 0.14740(10) 0.43744(11) 0.04482(10)
H2_4 H 0.079295 0.369352 0.129839
H3_4 H 0.116885 0.396632 0.200369
O14_4 O 0.05821(10) 0.54694(13) 0.06504(13)
H4_4 H 0.056693 0.598408 0.049355
H5_4 H 0.039573 0.540268 0.090635
C2_4 C 0.15416(12) 0.35626(15) 0.03267(14)
C5_4 C 0.01815(12) 0.22637(16) 0.04045(14)
H18_4 H 0.061253 0.090339 0.000128
O17_4 O 0.19093(10) 0.61075(12) 0.12152(11)
H19_4 H 0.161762 0.640563 0.123770
H20_4 H 0.167982 0.597393 0.068510
O2_4 O 0.12415(13) 0.53412(13) 0.78426(13)
O12_4 O 0.15881(12) 0.13973(11) 0.84696(13)
C1_4 C 0.14594(13) 0.45739(16) 0.78365(15)
C6_4 C 0.14741(14) 0.40482(16) 0.90539(15)
H10_4 H 0.143063 0.464496 0.916000
C7_4 C 0.14877(14) 0.38376(16) 0.83796(15)
C8_4 C 0.15248(15) 0.29448(17) 0.81975(16)
H11_4 H 0.153141 0.280463 0.774492
C9_4 C 0.15518(15) 0.22654(16) 0.86970(16)
C10_4 C 0.15676(15) 0.24618(16) 0.93916(16)
H12_4 H 0.160561 0.200071 0.973632
C11_4 C 0.15259(14) 0.33598(16) 0.95691(15)
C12_4 C 0.14695(14) 0.06829(15) 0.88129(15)
C13_4 C 0.19997(14) 0.00568(16) 0.92767(16)
H13_4 H 0.241336 0.012276 0.934742
C17_4 C 0.08376(14) 0.05764(17) 0.86681(15)
H15_4 H 0.048048 0.099294 0.834260
C23_4 C 0.01331(12) 0.09577(17) 0.95901(15)
O8_4 O 0.76481(9) 0.19090(12) 0.76317(11)
O15_4 O 0.67600(11) 0.27900(14) 0.78568(11)
H6_4 H 0.635370 0.290434 0.771632
H7_4 H 0.691010 0.235264 0.821592
O16_4 O 0.70713(10) 0.36318(12) 0.68114(13)
H8_4 H 0.694305 0.405075 0.699959
H9_4 H 0.752415 0.363855 0.718189
C4_4 C 0.79141(12) 0.11489(15) 0.77186(13)
C18_4 C 0.97711(13) 0.03578(16) 0.89146(16)
C19_4 C 0.90557(12) 0.04008(16) 0.83179(15)
C20_4 C 0.86942(11) 0.10881(16) 0.83720(14)
C21_4 C 0.90543(12) 0.17260(16) 0.90270(14)
H17_4 H 0.881606 0.220257 0.904826
C22_4 C 0.97703(12) 0.16441(15) 0.96463(14)
Ni2_3 Ni 0.83188(2) 0.26193(2) 0.31999(2)
O1_3 O 0.33377(9) 0.06294(11) 0.25954(10)
O7_3 O 0.74019(8) 0.45610(12) 0.26796(11)
O8_5 O 0.73519(9) 0.30910(12) 0.23683(11)
O11_3 O 0.48870(9) 0.53487(12) 0.11552(13)
O12_5 O 0.34119(12) 0.36027(11) 0.15304(13)
O15_5 O 0.82400(11) 0.22100(14) 0.21432(11)
H6_5 H 0.864630 0.209566 0.228368
H7_5 H 0.808990 0.264736 0.178408
O16_5 O 0.79287(10) 0.13682(12) 0.31886(13)
H8_5 H 0.805695 0.094925 0.300041
H9_5 H 0.747585 0.136145 0.281811
C1_5 C 0.35406(13) 0.04261(16) 0.21635(15)
C4_5 C 0.70859(12) 0.38511(15) 0.22814(13)
C6_5 C 0.35259(14) 0.09518(16) 0.09461(15)
H10_5 H 0.356937 0.035504 0.084000
C7_5 C 0.35123(14) 0.11624(16) 0.16204(15)
C8_5 C 0.34752(15) 0.20552(17) 0.18025(16)
H11_5 H 0.346859 0.219537 0.225508
C9_5 C 0.34482(15) 0.27346(16) 0.13030(16)
C10_5 C 0.34324(15) 0.25382(16) 0.06084(16)
H12_5 H 0.339439 0.299929 0.026368
C11_5 C 0.34741(14) 0.16402(16) 0.04309(15)
C12_5 C 0.35305(14) 0.43171(15) 0.11871(15)
C13_5 C 0.30003(14) 0.49432(16) 0.07233(16)
H13_5 H 0.258664 0.487724 0.065258
C14_3 C 0.30977(12) 0.56732(16) 0.03646(15)
C15_3 C 0.37205(13) 0.57827(16) 0.04822(16)
H14_3 H 0.377995 0.626288 0.023005
C16_3 C 0.42495(12) 0.51658(16) 0.09801(15)
C17_5 C 0.41624(14) 0.44236(17) 0.13319(15)
H15_5 H 0.451952 0.400706 0.165740
C18_5 C 0.52289(13) 0.46422(16) 0.10854(16)
C19_5 C 0.59443(12) 0.45992(16) 0.16821(15)
H16_3 H 0.618203 0.502566 0.211593
C20_5 C 0.63058(11) 0.39119(16) 0.16280(14)
C21_5 C 0.59457(12) 0.32740(16) 0.09730(14)
H17_5 H 0.618394 0.279743 0.095174
C22_5 C 0.52297(12) 0.33559(15) 0.03537(14)
C23_5 C 0.48669(12) 0.40423(17) 0.04099(15)
Ni4_2 Ni 0.84197(2) 0.49265(2) 0.35472(2)
O19_3 O 0.83799(12) 0.29033(12) 0.42330(12)
O21_3 O 0.92436(9) 0.19677(12) 0.39599(11)
O22_3 O 0.88337(8) 0.38152(10) 0.33394(10)
Ni1_3 Ni 0.34197(2) 0.00735(2) 0.85472(2)
O3_5 O 0.35260(10) 0.06256(11) 0.95518(10)
O4_3 O 0.33799(12) 0.20967(12) 0.92330(12)
O5_3 O 0.19925(10) 0.62248(13) 0.98345(13)
H1_3 H 0.168762 0.659206 0.951432
O6_3 O 0.25327(11) 0.68553(15) 0.93543(13)
O9_4 O 0.50626(10) 0.19751(12) 0.96243(11)
O10_3 O 0.42436(9) 0.30323(12) 0.89599(11)
O13_3 O 0.38337(8) 0.11848(10) 0.83394(10)
H2_5 H 0.420705 0.130648 0.870161
H3_5 H 0.383115 0.103368 0.799631
C2_5 C 0.34584(12) 0.14374(15) 0.96733(14)
C3_3 C 0.25173(13) 0.63160(16) 0.97989(16)
C5_5 C 0.48185(12) 0.27363(16) 0.95955(14)
H18_5 H 0.438747 0.409661 0.999872
Ni5_3 Ni 0.33188(2) 0.23807(2) 0.81999(2)
O20_3 O 0.24019(8) 0.04390(12) 0.76796(11)
O2_5 O 0.37585(13) 0.96588(13) 0.21574(13)
Ni3_2 Ni 0.34197(2) 0.99265(2) 0.35472(2)
O14_5 O 0.44179(10) 0.95306(13) 0.93496(13)
H4_5 H 0.443307 0.901592 0.950645
H5_5 H 0.460427 0.959732 0.909365
O17_5 O 0.30907(10) 0.88925(12) 0.87848(11)
H19_5 H 0.338238 0.859437 0.876230
H20_5 H 0.332018 0.902607 0.931490
O18_3 O 0.33377(9) 0.93706(11) 0.75954(10)
Ni2_4 Ni 0.33188(2) 0.76193(2) 0.31999(2)
O7_4 O 0.24019(8) 0.95610(12) 0.26796(11)
O8_6 O 0.23519(9) 0.80910(12) 0.23683(11)
O15_6 O 0.32400(11) 0.72100(14) 0.21432(11)
H6_6 H 0.364630 0.709566 0.228368
H7_6 H 0.308990 0.764736 0.178408
O16_6 O 0.29287(10) 0.63682(12) 0.31886(13)
H8_6 H 0.305695 0.594925 0.300041
H9_6 H 0.247585 0.636145 0.281811
C4_6 C 0.20859(12) 0.88511(15) 0.22814(13)
C18_6 C 0.02289(13) 0.96422(16) 0.10854(16)
C19_6 C 0.09443(12) 0.95992(16) 0.16821(15)
C20_6 C 0.13058(11) 0.89119(16) 0.16280(14)
C21_6 C 0.09457(12) 0.82740(16) 0.09730(14)
H17_6 H 0.118394 0.779743 0.095174
C22_6 C 0.02297(12) 0.83559(15) 0.03537(14)
O19_4 O 0.33799(12) 0.79033(12) 0.42330(12)
O21_4 O 0.42436(9) 0.69677(12) 0.39599(11)
O22_4 O 0.38337(8) 0.88152(10) 0.33394(10)
O1_4 O 0.83377(9) 0.56294(11) 0.25954(10)
O2_6 O 0.87585(13) 0.46588(13) 0.21574(13)
O12_6 O 0.84119(12) 0.86027(11) 0.15304(13)
C1_6 C 0.85406(13) 0.54261(16) 0.21635(15)
C6_6 C 0.85259(14) 0.59518(16) 0.09461(15)
H10_6 H 0.856937 0.535504 0.084000
C7_6 C 0.85123(14) 0.61624(16) 0.16204(15)
C8_6 C 0.84752(15) 0.70552(17) 0.18025(16)
H11_6 H 0.846859 0.719537 0.225508
C9_6 C 0.84482(15) 0.77346(16) 0.13030(16)
C10_6 C 0.84324(15) 0.75382(16) 0.06084(16)
H12_6 H 0.839439 0.799929 0.026368
C11_6 C 0.84741(14) 0.66402(16) 0.04309(15)
C12_6 C 0.85305(14) 0.93171(15) 0.11871(15)
C13_6 C 0.80003(14) 0.99432(16) 0.07233(16)
H13_6 H 0.758664 0.987724 0.065258
C17_6 C 0.91624(14) 0.94236(17) 0.13319(15)
H15_6 H 0.951952 0.900706 0.165740
C23_6 C 0.98669(12) 0.90423(17) 0.04099(15)
Ni1_4 Ni 0.84197(2) 0.50735(2) 0.85472(2)
O3_6 O 0.85260(10) 0.56256(11) 0.95518(10)
O4_4 O 0.83799(12) 0.70967(12) 0.92330(12)
O10_4 O 0.92436(9) 0.80323(12) 0.89599(11)
O13_4 O 0.88337(8) 0.61848(10) 0.83394(10)
H2_6 H 0.920705 0.630648 0.870161
H3_6 H 0.883115 0.603368 0.799631
O14_6 O 0.94179(10) 0.45306(13) 0.93496(13)
H4_6 H 0.943307 0.401592 0.950645
H5_6 H 0.960427 0.459732 0.909365
C2_6 C 0.84584(12) 0.64374(15) 0.96733(14)
C5_6 C 0.98185(12) 0.77363(16) 0.95955(14)
H18_6 H 0.938747 0.909661 0.999872
O17_6 O 0.80907(10) 0.38925(12) 0.87848(11)
H19_6 H 0.838238 0.359437 0.876230
H20_6 H 0.832018 0.402607 0.931490
Ni5_4 Ni 0.83188(2) 0.73807(2) 0.81999(2)
O18_4 O 0.83377(9) 0.43706(11) 0.75954(10)
O20_4 O 0.74019(8) 0.54390(12) 0.76796(11)
O2_7 O 0.37585(13) 0.03412(13) 0.71574(13)
O14_7 O 0.44179(10) 0.04694(13) 0.43496(13)
H4_7 H 0.443307 0.098408 0.450645
H5_7 H 0.460427 0.040268 0.409365
O17_7 O 0.30907(10) 0.11075(12) 0.37848(11)
H19_7 H 0.338238 0.140563 0.376230
H20_7 H 0.332018 0.097393 0.431490
O3_7 O 0.35260(10) 0.93744(11) 0.45518(10)
O5_4 O 0.19925(10) 0.37752(13) 0.48345(13)
H1_4 H 0.168762 0.340794 0.451432
O6_4 O 0.25327(11) 0.31447(15) 0.43543(13)
O8_7 O 0.73519(9) 0.69090(12) 0.73683(11)
O9_5 O 0.50626(10) 0.80249(12) 0.46243(11)
O11_4 O 0.48870(9) 0.46513(12) 0.61552(13)
O12_7 O 0.34119(12) 0.63973(11) 0.65304(13)
H2_7 H 0.420705 0.869352 0.370161
H3_7 H 0.383115 0.896632 0.299631
O15_7 O 0.82400(11) 0.77900(14) 0.71432(11)
H6_7 H 0.864630 0.790434 0.728368
H7_7 H 0.808990 0.735264 0.678408
O16_7 O 0.79287(10) 0.86318(12) 0.81886(13)
H8_7 H 0.805695 0.905075 0.800041
H9_7 H 0.747585 0.863855 0.781811
C1_7 C 0.35406(13) 0.95739(16) 0.71635(15)
C2_7 C 0.34584(12) 0.85626(15) 0.46733(14)
C3_4 C 0.25173(13) 0.36840(16) 0.47989(16)
C4_7 C 0.70859(12) 0.61489(15) 0.72814(13)
C5_7 C 0.48185(12) 0.72637(16) 0.45955(14)
C6_7 C 0.35259(14) 0.90482(16) 0.59461(15)
H10_7 H 0.356937 0.964496 0.584000
C7_7 C 0.35123(14) 0.88376(16) 0.66204(15)
C8_7 C 0.34752(15) 0.79448(17) 0.68025(16)
H11_7 H 0.346859 0.780463 0.725508
C9_7 C 0.34482(15) 0.72654(16) 0.63030(16)
C10_7 C 0.34324(15) 0.74618(16) 0.56084(16)
H12_7 H 0.339439 0.700071 0.526368
C11_7 C 0.34741(14) 0.83598(16) 0.54309(15)
C12_7 C 0.35305(14) 0.56829(15) 0.61871(15)
C13_7 C 0.30003(14) 0.50568(16) 0.57233(16)
H13_7 H 0.258664 0.512276 0.565258
C14_4 C 0.30977(12) 0.43268(16) 0.53646(15)
C15_4 C 0.37205(13) 0.42173(16) 0.54822(16)
H14_4 H 0.377995 0.373712 0.523005
C16_4 C 0.42495(12) 0.48342(16) 0.59801(15)
C17_7 C 0.41624(14) 0.55764(17) 0.63319(15)
H15_7 H 0.451952 0.599294 0.665740
C18_7 C 0.52289(13) 0.53578(16) 0.60854(16)
C19_7 C 0.59443(12) 0.54008(16) 0.66821(15)
H16_4 H 0.618203 0.497434 0.711593
C20_7 C 0.63058(11) 0.60881(16) 0.66280(14)
C21_7 C 0.59457(12) 0.67260(16) 0.59730(14)
H17_7 H 0.618394 0.720257 0.595174
C22_7 C 0.52297(12) 0.66441(15) 0.53537(14)
C23_7 C 0.48669(12) 0.59577(17) 0.54099(15)
H18_7 H 0.438747 0.590339 0.499872
O8_8 O 0.23519(9) 0.19090(12) 0.73683(11)
O9_6 O 0.00626(10) 0.30249(12) 0.46243(11)
O15_8 O 0.32400(11) 0.27900(14) 0.71432(11)
H6_8 H 0.364630 0.290434 0.728368
H7_8 H 0.308990 0.235264 0.678408
O16_8 O 0.29287(10) 0.36318(12) 0.81886(13)
H8_8 H 0.305695 0.405075 0.800041
H9_8 H 0.247585 0.363855 0.781811
C4_8 C 0.20859(12) 0.11489(15) 0.72814(13)
C18_8 C 0.02289(13) 0.03578(16) 0.60854(16)
C19_8 C 0.09443(12) 0.04008(16) 0.66821(15)
C20_8 C 0.13058(11) 0.10881(16) 0.66280(14)
C21_8 C 0.09457(12) 0.17260(16) 0.59730(14)
H17_8 H 0.118394 0.220257 0.595174
C22_8 C 0.02297(12) 0.16441(15) 0.53537(14)
O2_8 O 0.87585(13) 0.53412(13) 0.71574(13)
O3_8 O 0.85260(10) 0.43744(11) 0.45518(10)
O12_8 O 0.84119(12) 0.13973(11) 0.65304(13)
H2_8 H 0.920705 0.369352 0.370161
H3_8 H 0.883115 0.396632 0.299631
O14_8 O 0.94179(10) 0.54694(13) 0.43496(13)
H4_8 H 0.943307 0.598408 0.450645
H5_8 H 0.960427 0.540268 0.409365
C1_8 C 0.85406(13) 0.45739(16) 0.71635(15)
C2_8 C 0.84584(12) 0.35626(15) 0.46733(14)
C5_8 C 0.98185(12) 0.22637(16) 0.45955(14)
C6_8 C 0.85259(14) 0.40482(16) 0.59461(15)
H10_8 H 0.856937 0.464496 0.584000
C7_8 C 0.85123(14) 0.38376(16) 0.66204(15)
C8_8 C 0.84752(15) 0.29448(17) 0.68025(16)
H11_8 H 0.846859 0.280463 0.725508
C9_8 C 0.84482(15) 0.22654(16) 0.63030(16)
C10_8 C 0.84324(15) 0.24618(16) 0.56084(16)
H12_8 H 0.839439 0.200071 0.526368
C11_8 C 0.84741(14) 0.33598(16) 0.54309(15)
C12_8 C 0.85305(14) 0.06829(15) 0.61871(15)
C13_8 C 0.80003(14) 0.00568(16) 0.57233(16)
H13_8 H 0.758664 0.012276 0.565258
C17_8 C 0.91624(14) 0.05764(17) 0.63319(15)
H15_8 H 0.951952 0.099294 0.665740
C23_8 C 0.98669(12) 0.09577(17) 0.54099(15)
H18_8 H 0.938747 0.090339 0.499872
O17_8 O 0.80907(10) 0.61075(12) 0.37848(11)
H19_8 H 0.838238 0.640563 0.376230
H20_8 H 0.832018 0.597393 0.431490
O5_5 O 0.30075(10) 0.12248(13) 0.51655(13)
H1_5 H 0.331238 0.159206 0.548568
O6_5 O 0.24673(11) 0.18553(15) 0.56457(13)
O11_5 O 0.01130(9) 0.03487(12) 0.38448(13)
C3_5 C 0.24827(13) 0.13160(16) 0.52011(16)
C14_5 C 0.19023(12) 0.06732(16) 0.46354(15)
C15_5 C 0.12795(13) 0.07827(16) 0.45178(16)
H14_5 H 0.122005 0.126288 0.476995
C16_5 C 0.07505(12) 0.01658(16) 0.40199(15)
H16_5 H 0.881797 0.002566 0.288407
H16_6 H 0.118203 0.002566 0.211593
O9_7 O 0.00626(10) 0.69751(12) 0.96243(11)
O11_6 O 0.98870(9) 0.03487(12) 0.11552(13)
C14_6 C 0.80977(12) 0.06732(16) 0.03646(15)
C15_6 C 0.87205(13) 0.07827(16) 0.04822(16)
H14_6 H 0.877995 0.126288 0.023005
C16_6 C 0.92495(12) 0.01658(16) 0.09801(15)
O5_6 O 0.69925(10) 0.12248(13) 0.98345(13)
H1_6 H 0.668762 0.159206 0.951432
O6_6 O 0.75327(11) 0.18553(15) 0.93543(13)
C3_6 C 0.75173(13) 0.13160(16) 0.97989(16)
H16_7 H 0.118203 0.997434 0.711593
O5_7 O 0.69925(10) 0.87752(13) 0.48345(13)
H1_7 H 0.668762 0.840794 0.451432
O6_7 O 0.75327(11) 0.81447(15) 0.43543(13)
O11_7 O 0.98870(9) 0.96513(12) 0.61552(13)
C3_7 C 0.75173(13) 0.86840(16) 0.47989(16)
C14_7 C 0.80977(12) 0.93268(16) 0.53646(15)
C15_7 C 0.87205(13) 0.92173(16) 0.54822(16)
H14_7 H 0.877995 0.873712 0.523005
C16_7 C 0.92495(12) 0.98342(16) 0.59801(15)
O5_8 O 0.30075(10) 0.87752(13) 0.01655(13)
H1_8 H 0.331238 0.840794 0.048568
O6_8 O 0.24673(11) 0.81447(15) 0.06457(13)
C3_8 C 0.24827(13) 0.86840(16) 0.02011(16)
O11_8 O 0.01130(9) 0.96513(12) 0.88448(13)
C14_8 C 0.19023(12) 0.93268(16) 0.96354(15)
C15_8 C 0.12795(13) 0.92173(16) 0.95178(16)
H14_8 H 0.122005 0.873712 0.976995
C16_8 C 0.07505(12) 0.98342(16) 0.90199(15)
O9_8 O 0.99374(10) 0.30249(12) 0.03757(11)
H16_8 H 0.881797 0.997434 0.788407
loop_
_geom_bond_atom_site_label_1
_geom_bond_atom_site_label_2
_geom_bond_site_symmetry_1
_geom_bond_site_symmetry_2
Ni1 O3 1_555 1_555
Ni2 O8 1_555 1_555
O1 C1 1_555 1_555
O3 C2 1_555 1_555
O4 C2 1_555 1_555
O5 H1 1_555 1_555
O6 C3 1_555 1_555
O7 C4 1_555 1_555
O8 C4 1_555 1_555
O9 C5 1_555 1_555
O10 C5 1_555 1_555
O11 C16 1_555 1_555
O12 C9 1_555 1_555
O13 Ni1 1_555 1_555
H2 O13 1_555 1_555
H3 O13 1_555 1_555
O15 Ni2 1_555 1_555
H6 O15 1_555 1_555
H7 O15 1_555 1_555
O16 Ni2 1_555 1_555
H8 O16 1_555 1_555
H9 O16 1_555 1_555
C1 C7 1_555 1_555
C2 C11 1_555 1_555
C3 O5 1_555 1_555
C4 C20 1_555 1_555
C5 C22 1_555 1_555
C6 H10 1_555 1_555
C7 C6 1_555 1_555
C8 C7 1_555 1_555
H11 C8 1_555 1_555
C9 C8 1_555 1_555
C10 C9 1_555 1_555
H12 C10 1_555 1_555
C11 C6 1_555 1_555
C12 O12 1_555 1_555
C13 C12 1_555 1_555
H13 C13 1_555 1_555
C14 C3 1_555 1_555
C15 C14 1_555 1_555
H14 C15 1_555 1_555
C16 C15 1_555 1_555
C17 C12 1_555 1_555
H15 C17 1_555 1_555
C18 O11 1_555 1_555
C19 C18 1_555 1_555
H16 C19 1_555 1_555
C20 C19 1_555 1_555
C21 C20 1_555 1_555
H17 C21 1_555 1_555
C22 C21 1_555 1_555
C23 C18 1_555 1_555
H18 C23 1_555 1_555
Ni4 O7 1_555 1_555
Ni5 O4 1_555 1_555
O19 Ni2 1_555 1_555
O20 Ni1 1_555 1_555
O21 Ni2 1_555 1_555
O22 Ni2 1_555 1_555
O10 Ni5 1_555 1_555
O13 Ni5 1_555 1_555
C10 C11 1_555 1_555
C13 C14 1_555 1_555
C16 C17 1_555 1_555
C22 C23 1_555 1_555
Ni4 O22 1_555 1_555
H4 O14 1_555 1_555
H5 O14 1_555 1_555
H19 O17 1_555 1_555
H20 O17 1_555 1_555
Ni1_2 O3_2 1_555 1_555
O1_2 C1_2 1_555 1_555
O2_2 C1_2 1_555 1_555
O3_2 C2_2 1_555 1_555
O4_2 C2_2 1_555 1_555
O10_2 C5_2 1_555 1_555
O12_2 C9_2 1_555 1_555
O13_2 Ni1_2 1_555 1_555
H2_2 O13_2 1_555 1_555
H3_2 O13_2 1_555 1_555
O14_2 Ni1_2 1_555 1_555
H4_2 O14_2 1_555 1_555
H5_2 O14_2 1_555 1_555
C1_2 C7_2 1_555 1_555
C2_2 C11_2 1_555 1_555
C6_2 H10_2 1_555 1_555
C7_2 C6_2 1_555 1_555
C8_2 C7_2 1_555 1_555
H11_2 C8_2 1_555 1_555
C9_2 C8_2 1_555 1_555
C10_2 C9_2 1_555 1_555
H12_2 C10_2 1_555 1_555
C11_2 C6_2 1_555 1_555
C12_2 O12_2 1_555 1_555
C13_2 C12_2 1_555 1_555
H13_2 C13_2 1_555 1_555
C17_2 C12_2 1_555 1_555
H15_2 C17_2 1_555 1_555
H18_2 C23_2 1_555 1_555
O17_2 Ni1_2 1_555 1_555
H19_2 O17_2 1_555 1_555
H20_2 O17_2 1_555 1_555
Ni4 O1_2 1_555 1_555
Ni5_2 O4_2 1_555 1_555
O18_2 Ni1_2 1_555 1_555
O20_2 Ni1_2 1_555 1_555
O10_2 Ni5_2 1_555 1_555
O13_2 Ni5_2 1_555 1_555
C10_2 C11_2 1_555 1_555
Ni2_2 O8_2 1_555 1_555
O7_2 C4_2 1_555 1_555
O8_2 C4_2 1_555 1_555
O15_2 Ni2_2 1_555 1_555
H6_2 O15_2 1_555 1_555
H7_2 O15_2 1_555 1_555
O16_2 Ni2_2 1_555 1_555
H8_2 O16_2 1_555 1_555
H9_2 O16_2 1_555 1_555
C4_2 C20_2 1_555 1_555
C19_2 C18_2 1_555 1_555
C20_2 C19_2 1_555 1_555
C21_2 C20_2 1_555 1_555
H17_2 C21_2 1_555 1_555
C22_2 C21_2 1_555 1_555
Ni3 O7_2 1_555 1_555
O19_2 Ni2_2 1_555 1_555
O21_2 Ni2_2 1_555 1_555
O22_2 Ni2_2 1_555 1_555
Ni3 O22_2 1_555 1_555
H4_3 O14_3 1_555 1_555
H5_3 O14_3 1_555 1_555
H19_3 O17_3 1_555 1_555
H20_3 O17_3 1_555 1_555
Ni3 O3_3 1_555 1_555
O3_3 C2_3 1_555 1_555
O19_2 C2_3 1_555 1_555
O5_2 H1_2 1_555 1_555
O6_2 C3_2 1_555 1_555
O9_3 C5_3 1_555 1_555
O21_2 C5_3 1_555 1_555
H2_3 O22_2 1_555 1_555
H3_3 O22_2 1_555 1_555
C3_2 O5_2 1_555 1_555
Ni5_2 O8_3 1_555 1_555
O18 C1_3 1_555 1_555
O20_2 C4_3 1_555 1_555
O8_3 C4_3 1_555 1_555
O11_2 C16_2 1_555 1_555
O12_3 C9_3 1_555 1_555
O15_3 Ni5_2 1_555 1_555
H6_3 O15_3 1_555 1_555
H7_3 O15_3 1_555 1_555
O16_3 Ni5_2 1_555 1_555
H8_3 O16_3 1_555 1_555
H9_3 O16_3 1_555 1_555
C1_3 C7_3 1_555 1_555
C4_3 C20_3 1_555 1_555
C6_3 H10_3 1_555 1_555
C7_3 C6_3 1_555 1_555
C8_3 C7_3 1_555 1_555
H11_3 C8_3 1_555 1_555
C9_3 C8_3 1_555 1_555
C10_3 C9_3 1_555 1_555
H12_3 C10_3 1_555 1_555
C11_3 C6_3 1_555 1_555
C12_3 O12_3 1_555 1_555
C13_3 C12_3 1_555 1_555
H13_3 C13_3 1_555 1_555
C15_2 C14_2 1_555 1_555
H14_2 C15_2 1_555 1_555
C16_2 C15_2 1_555 1_555
C17_3 C12_3 1_555 1_555
H15_3 C17_3 1_555 1_555
C18_3 O11_2 1_555 1_555
C19_3 C18_3 1_555 1_555
H16_2 C19_3 1_555 1_555
C20_3 C19_3 1_555 1_555
C21_3 C20_3 1_555 1_555
H17_3 C21_3 1_555 1_555
C22_3 C21_3 1_555 1_555
C23_3 C18_3 1_555 1_555
C10_3 C11_3 1_555 1_555
C13_3 C14_2 1_555 1_555
C16_2 C17_3 1_555 1_555
C22_3 C23_3 1_555 1_555
Ni4 O3_4 1_555 1_555
O3_4 C2_4 1_555 1_555
O19 C2_4 1_555 1_555
O21 C5_4 1_555 1_555
H2_4 O22 1_555 1_555
H3_4 O22 1_555 1_555
O14_4 Ni4 1_555 1_555
H4_4 O14_4 1_555 1_555
H5_4 O14_4 1_555 1_555
O17_4 Ni4 1_555 1_555
H19_4 O17_4 1_555 1_555
H20_4 O17_4 1_555 1_555
O18_2 C1_4 1_555 1_555
O2_4 C1_4 1_555 1_555
O12_4 C9_4 1_555 1_555
C1_4 C7_4 1_555 1_555
C6_4 H10_4 1_555 1_555
C7_4 C6_4 1_555 1_555
C8_4 C7_4 1_555 1_555
H11_4 C8_4 1_555 1_555
C9_4 C8_4 1_555 1_555
C10_4 C9_4 1_555 1_555
H12_4 C10_4 1_555 1_555
C11_4 C6_4 1_555 1_555
C12_4 O12_4 1_555 1_555
C13_4 C12_4 1_555 1_555
H13_4 C13_4 1_555 1_555
C17_4 C12_4 1_555 1_555
H15_4 C17_4 1_555 1_555
C10_4 C11_4 1_555 1_555
Ni5 O8_4 1_555 1_555
O20 C4_4 1_555 1_555
O8_4 C4_4 1_555 1_555
O15_4 Ni5 1_555 1_555
H6_4 O15_4 1_555 1_555
H7_4 O15_4 1_555 1_555
O16_4 Ni5 1_555 1_555
H8_4 O16_4 1_555 1_555
H9_4 O16_4 1_555 1_555
C4_4 C20_4 1_555 1_555
C19_4 C18_4 1_555 1_555
C20_4 C19_4 1_555 1_555
C21_4 C20_4 1_555 1_555
H17_4 C21_4 1_555 1_555
C22_4 C21_4 1_555 1_555
Ni2_3 O8_5 1_555 1_555
O1_3 C1_5 1_555 1_555
O7_3 C4_5 1_555 1_555
O8_5 C4_5 1_555 1_555
O11_3 C16_3 1_555 1_555
O12_5 C9_5 1_555 1_555
O15_5 Ni2_3 1_555 1_555
H6_5 O15_5 1_555 1_555
H7_5 O15_5 1_555 1_555
O16_5 Ni2_3 1_555 1_555
H8_5 O16_5 1_555 1_555
H9_5 O16_5 1_555 1_555
C1_5 C7_5 1_555 1_555
C4_5 C20_5 1_555 1_555
C6_5 H10_5 1_555 1_555
C7_5 C6_5 1_555 1_555
C8_5 C7_5 1_555 1_555
H11_5 C8_5 1_555 1_555
C9_5 C8_5 1_555 1_555
C10_5 C9_5 1_555 1_555
H12_5 C10_5 1_555 1_555
C11_5 C6_5 1_555 1_555
C12_5 O12_5 1_555 1_555
C13_5 C12_5 1_555 1_555
H13_5 C13_5 1_555 1_555
C15_3 C14_3 1_555 1_555
H14_3 C15_3 1_555 1_555
C16_3 C15_3 1_555 1_555
C17_5 C12_5 1_555 1_555
H15_5 C17_5 1_555 1_555
C18_5 O11_3 1_555 1_555
C19_5 C18_5 1_555 1_555
H16_3 C19_5 1_555 1_555
C20_5 C19_5 1_555 1_555
C21_5 C20_5 1_555 1_555
H17_5 C21_5 1_555 1_555
C22_5 C21_5 1_555 1_555
C23_5 C18_5 1_555 1_555
Ni4_2 O7_3 1_555 1_555
O19_3 Ni2_3 1_555 1_555
O21_3 Ni2_3 1_555 1_555
O22_3 Ni2_3 1_555 1_555
C10_5 C11_5 1_555 1_555
C13_5 C14_3 1_555 1_555
C16_3 C17_5 1_555 1_555
C22_5 C23_5 1_555 1_555
Ni4_2 O22_3 1_555 1_555
Ni1_3 O3_5 1_555 1_555
O3_5 C2_5 1_555 1_555
O4_3 C2_5 1_555 1_555
O5_3 H1_3 1_555 1_555
O6_3 C3_3 1_555 1_555
O9_4 C5_5 1_555 1_555
O10_3 C5_5 1_555 1_555
O13_3 Ni1_3 1_555 1_555
H2_5 O13_3 1_555 1_555
H3_5 O13_3 1_555 1_555
C3_3 O5_3 1_555 1_555
Ni5_3 O4_3 1_555 1_555
O20_3 Ni1_3 1_555 1_555
O10_3 Ni5_3 1_555 1_555
O13_3 Ni5_3 1_555 1_555
H4_5 O14_5 1_555 1_555
H5_5 O14_5 1_555 1_555
H19_5 O17_5 1_555 1_555
H20_5 O17_5 1_555 1_555
Ni2_4 O8_6 1_555 1_555
O7_4 C4_6 1_555 1_555
O8_6 C4_6 1_555 1_555
O15_6 Ni2_4 1_555 1_555
H6_6 O15_6 1_555 1_555
H7_6 O15_6 1_555 1_555
O16_6 Ni2_4 1_555 1_555
H8_6 O16_6 1_555 1_555
H9_6 O16_6 1_555 1_555
C4_6 C20_6 1_555 1_555
C19_6 C18_6 1_555 1_555
C20_6 C19_6 1_555 1_555
C21_6 C20_6 1_555 1_555
H17_6 C21_6 1_555 1_555
C22_6 C21_6 1_555 1_555
Ni3_2 O7_4 1_555 1_555
O19_4 Ni2_4 1_555 1_555
O21_4 Ni2_4 1_555 1_555
O22_4 Ni2_4 1_555 1_555
Ni3_2 O22_4 1_555 1_555
O1_4 C1_6 1_555 1_555
O2_6 C1_6 1_555 1_555
O12_6 C9_6 1_555 1_555
C1_6 C7_6 1_555 1_555
C6_6 H10_6 1_555 1_555
C7_6 C6_6 1_555 1_555
C8_6 C7_6 1_555 1_555
H11_6 C8_6 1_555 1_555
C9_6 C8_6 1_555 1_555
C10_6 C9_6 1_555 1_555
H12_6 C10_6 1_555 1_555
C11_6 C6_6 1_555 1_555
C12_6 O12_6 1_555 1_555
C13_6 C12_6 1_555 1_555
H13_6 C13_6 1_555 1_555
C17_6 C12_6 1_555 1_555
H15_6 C17_6 1_555 1_555
Ni4_2 O1_4 1_555 1_555
C10_6 C11_6 1_555 1_555
Ni1_4 O3_6 1_555 1_555
O3_6 C2_6 1_555 1_555
O4_4 C2_6 1_555 1_555
O10_4 C5_6 1_555 1_555
O13_4 Ni1_4 1_555 1_555
H2_6 O13_4 1_555 1_555
H3_6 O13_4 1_555 1_555
O14_6 Ni1_4 1_555 1_555
H4_6 O14_6 1_555 1_555
H5_6 O14_6 1_555 1_555
O17_6 Ni1_4 1_555 1_555
H19_6 O17_6 1_555 1_555
H20_6 O17_6 1_555 1_555
Ni5_4 O4_4 1_555 1_555
O18_4 Ni1_4 1_555 1_555
O20_4 Ni1_4 1_555 1_555
O10_4 Ni5_4 1_555 1_555
O13_4 Ni5_4 1_555 1_555
H4_7 O14_7 1_555 1_555
H5_7 O14_7 1_555 1_555
H19_7 O17_7 1_555 1_555
H20_7 O17_7 1_555 1_555
Ni3_2 O3_7 1_555 1_555
Ni5_4 O8_7 1_555 1_555
O18_3 C1_7 1_555 1_555
O3_7 C2_7 1_555 1_555
O19_4 C2_7 1_555 1_555
O5_4 H1_4 1_555 1_555
O6_4 C3_4 1_555 1_555
O20_4 C4_7 1_555 1_555
O8_7 C4_7 1_555 1_555
O9_5 C5_7 1_555 1_555
O21_4 C5_7 1_555 1_555
O11_4 C16_4 1_555 1_555
O12_7 C9_7 1_555 1_555
H2_7 O22_4 1_555 1_555
H3_7 O22_4 1_555 1_555
O15_7 Ni5_4 1_555 1_555
H6_7 O15_7 1_555 1_555
H7_7 O15_7 1_555 1_555
O16_7 Ni5_4 1_555 1_555
H8_7 O16_7 1_555 1_555
H9_7 O16_7 1_555 1_555
C1_7 C7_7 1_555 1_555
C2_7 C11_7 1_555 1_555
C3_4 O5_4 1_555 1_555
C4_7 C20_7 1_555 1_555
C5_7 C22_7 1_555 1_555
C6_7 H10_7 1_555 1_555
C7_7 C6_7 1_555 1_555
C8_7 C7_7 1_555 1_555
H11_7 C8_7 1_555 1_555
C9_7 C8_7 1_555 1_555
C10_7 C9_7 1_555 1_555
H12_7 C10_7 1_555 1_555
C11_7 C6_7 1_555 1_555
C12_7 O12_7 1_555 1_555
C13_7 C12_7 1_555 1_555
H13_7 C13_7 1_555 1_555
C14_4 C3_4 1_555 1_555
C15_4 C14_4 1_555 1_555
H14_4 C15_4 1_555 1_555
C16_4 C15_4 1_555 1_555
C17_7 C12_7 1_555 1_555
H15_7 C17_7 1_555 1_555
C18_7 O11_4 1_555 1_555
C19_7 C18_7 1_555 1_555
H16_4 C19_7 1_555 1_555
C20_7 C19_7 1_555 1_555
C21_7 C20_7 1_555 1_555
H17_7 C21_7 1_555 1_555
C22_7 C21_7 1_555 1_555
C23_7 C18_7 1_555 1_555
H18_7 C23_7 1_555 1_555
C10_7 C11_7 1_555 1_555
C13_7 C14_4 1_555 1_555
C16_4 C17_7 1_555 1_555
C22_7 C23_7 1_555 1_555
Ni5_3 O8_8 1_555 1_555
O20_3 C4_8 1_555 1_555
O8_8 C4_8 1_555 1_555
O15_8 Ni5_3 1_555 1_555
H6_8 O15_8 1_555 1_555
H7_8 O15_8 1_555 1_555
O16_8 Ni5_3 1_555 1_555
H8_8 O16_8 1_555 1_555
H9_8 O16_8 1_555 1_555
C4_8 C20_8 1_555 1_555
C19_8 C18_8 1_555 1_555
C20_8 C19_8 1_555 1_555
C21_8 C20_8 1_555 1_555
H17_8 C21_8 1_555 1_555
C22_8 C21_8 1_555 1_555
Ni4_2 O3_8 1_555 1_555
O18_4 C1_8 1_555 1_555
O2_8 C1_8 1_555 1_555
O3_8 C2_8 1_555 1_555
O19_3 C2_8 1_555 1_555
O21_3 C5_8 1_555 1_555
O12_8 C9_8 1_555 1_555
H2_8 O22_3 1_555 1_555
H3_8 O22_3 1_555 1_555
O14_8 Ni4_2 1_555 1_555
H4_8 O14_8 1_555 1_555
H5_8 O14_8 1_555 1_555
C1_8 C7_8 1_555 1_555
C2_8 C11_8 1_555 1_555
C6_8 H10_8 1_555 1_555
C7_8 C6_8 1_555 1_555
C8_8 C7_8 1_555 1_555
H11_8 C8_8 1_555 1_555
C9_8 C8_8 1_555 1_555
C10_8 C9_8 1_555 1_555
H12_8 C10_8 1_555 1_555
C11_8 C6_8 1_555 1_555
C12_8 O12_8 1_555 1_555
C13_8 C12_8 1_555 1_555
H13_8 C13_8 1_555 1_555
C17_8 C12_8 1_555 1_555
H15_8 C17_8 1_555 1_555
H18_8 C23_8 1_555 1_555
O17_8 Ni4_2 1_555 1_555
H19_8 O17_8 1_555 1_555
H20_8 O17_8 1_555 1_555
C10_8 C11_8 1_555 1_555
O5_5 H1_5 1_555 1_555
O6_5 C3_5 1_555 1_555
O11_5 C16_5 1_555 1_555
C3_5 O5_5 1_555 1_555
C14_5 C3_5 1_555 1_555
C15_5 C14_5 1_555 1_555
H14_5 C15_5 1_555 1_555
C16_5 C15_5 1_555 1_555
O11_6 C16_6 1_555 1_555
C15_6 C14_6 1_555 1_555
H14_6 C15_6 1_555 1_555
C16_6 C15_6 1_555 1_555
O5_6 H1_6 1_555 1_555
O6_6 C3_6 1_555 1_555
C3_6 O5_6 1_555 1_555
O5_7 H1_7 1_555 1_555
O6_7 C3_7 1_555 1_555
O11_7 C16_7 1_555 1_555
C3_7 O5_7 1_555 1_555
C14_7 C3_7 1_555 1_555
C15_7 C14_7 1_555 1_555
H14_7 C15_7 1_555 1_555
C16_7 C15_7 1_555 1_555
O5_8 H1_8 1_555 1_555
O6_8 C3_8 1_555 1_555
C3_8 O5_8 1_555 1_555
O11_8 C16_8 1_555 1_555
C15_8 C14_8 1_555 1_555
H14_8 C15_8 1_555 1_555
C16_8 C15_8 1_555 1_555

#END
