
###############################################################################
#
# This file contains modified crystal structure data generated from the
# MOF subset of the Cambridge Structural Database (CSD) v543 
# hosted by the Cambridge Crystallographic Data Centre (CCDC).
#
# This work is licensed under the Creative Commons
# Attribution-NonCommercial-ShareAlike 4.0 International License.
# To view a copy of this license, visit
# http://creativecommons.org/licenses/by-nc-sa/4.0/
# or send a letter to
# Creative Commons, PO Box 1866, Mountain View, CA 94042, USA.
#
# CIF created using the CSD Python API on 29 September 2022
# The structure has been converted into the P1 space group
# The structure has a 3D framework
# The original CSD entry VEDNOL is in the orthorhombic crystal system
# The framework has been calculated to contain at least 10.0% void space
# The void calculation uses a probe of radius 1.32A, grid spacing 0.4
#
###############################################################################

data_VEDNOL
_chemical_formula_moiety         '(C128 H74 In20 O106)n'
_symmetry_cell_setting           triclinic
_symmetry_space_group_name_H-M   'P 1'
_symmetry_Int_Tables_number      1
_space_group_name_Hall           'P 1'
loop_
_symmetry_equiv_pos_site_id
_symmetry_equiv_pos_as_xyz
1 x,y,z
_cell_length_a                   37.1792(17)
_cell_length_b                   23.4037(12)
_cell_length_c                   7.1550(2)
_cell_angle_alpha                90
_cell_angle_beta                 90
_cell_angle_gamma                90
_cell_volume                     6225.79
loop_
_atom_site_label
_atom_site_type_symbol
_atom_site_fract_x
_atom_site_fract_y
_atom_site_fract_z
In2 In -0.0000 0.244978(16) 0.04523(5)
O5 O 0.15690(13) 0.0960(3) 0.1080(5)
H1 H 0.1761 0.0796 0.0903
H5 H 0.0991 0.1469 0.0576
In4 In 0.252993(10) 0.0000 0.0000
O19 O 0.04206(10) 0.30291(17) 0.1425(4)
O21 O -0.0000 0.20673(19) 0.3016(6)
In1 In 0.247007(10) 0.0000 0.5000
O1 O 0.20565(9) 0.05594(16) 0.5994(4)
O2 O 0.20939(10) 0.05565(17) 0.9069(5)
O3 O 0.04304(10) 0.19180(17) 0.9491(4)
O4 O 0.04206(10) 0.19709(17) 0.6425(4)
O6 O 0.09348(13) 0.1554(3) 0.4413(5)
H2 H 0.0741 0.1712 0.4590
O7 O 0.2500 0.04400(19) 0.2500
H3 H 0.2500 0.0803 0.2500
O8 O -0.0000 0.29327(19) 0.8016(6)
H4 H -0.0000 0.3295 0.8087
C1 C 0.19430(15) 0.0679(2) 0.7561(7)
C2 C 0.05640(15) 0.1823(2) 0.7921(7)
C3 C 0.15839(16) 0.0971(2) 0.7694(6)
C4 C 0.14208(17) 0.1099(3) 0.9425(7)
C5 C 0.10959(15) 0.1378(3) 0.9433(7)
C6 C 0.09186(15) 0.1528(2) 0.7809(6)
C7 C 0.10817(15) 0.1405(3) 0.6085(7)
C8 C 0.14085(15) 0.1137(3) 0.6051(7)
H6 H 0.1517 0.1064 0.4905
In4_2 In 0.252993(10) 0.0000 1.0000
In5 In -0.0000 0.255022(16) 0.54523(5)
O16 O 0.29061(10) 0.05565(17) 0.5931(5)
In4_3 In 0.252993(10) 1.0000 0.0000
In1_2 In 0.247007(10) 1.0000 0.5000
O9 O 0.20565(9) 0.94406(16) 0.4006(4)
O10 O 0.20939(10) 0.94435(17) 0.0931(5)
O11 O 0.04304(10) 0.80820(17) 0.0509(4)
O12 O 0.04206(10) 0.80291(17) 0.3575(4)
O14 O 0.09348(13) 0.8446(3) 0.5587(5)
H8 H 0.0741 0.8288 0.5410
C9 C 0.19430(15) 0.9321(2) 0.2439(7)
C10 C 0.05640(15) 0.8177(2) 0.2079(7)
C11 C 0.15839(16) 0.9029(2) 0.2306(6)
C12 C 0.14208(17) 0.8901(3) 0.0575(7)
C13 C 0.10959(15) 0.8622(3) 0.0567(7)
C14 C 0.09186(15) 0.8472(2) 0.2191(6)
C15 C 0.10817(15) 0.8595(3) 0.3915(7)
C16 C 0.14085(15) 0.8863(3) 0.3949(7)
H10 H 0.1517 0.8936 0.5095
In4_4 In 0.252993(10) 1.0000 1.0000
In7 In -0.0000 0.744978(16) 0.45477(5)
O15 O 0.29061(10) 0.94435(17) 0.4069(5)
O20 O 0.2500 0.95600(19) 0.7500
O13 O 0.15690(13) 0.9040(3) 0.8920(5)
H7 H 0.1761 0.9204 0.9097
H9 H 0.0991 0.8531 0.9424
In6 In 0.0000 0.755022(16) 0.95477(5)
In2_2 In 1.0000 0.244978(16) 0.04523(5)
O18 O 0.95794(10) 0.30291(17) 0.1425(4)
O21_2 O 1.0000 0.20673(19) 0.3016(6)
O8_2 O 1.0000 0.29327(19) 0.8016(6)
H4_2 H 1.0000 0.3295 0.8087
In5_2 In 1.0000 0.255022(16) 0.54523(5)
O17 O 0.95696(10) 0.19180(17) 0.9491(4)
In7_2 In 1.0000 0.744978(16) 0.45477(5)
In6_2 In 1.0000 0.755022(16) 0.95477(5)
H4_3 H 0.0000 0.1705 0.3087
O17_2 O 0.04304(10) 0.30820(17) 0.4491(4)
In1_3 In 0.752993(10) 0.5000 0.0000
O1_2 O 0.79435(9) 0.44406(16) 0.0994(4)
O2_2 O 0.79061(10) 0.44435(17) 0.4069(5)
O3_2 O 0.95696(10) 0.30820(17) 0.4491(4)
O5_2 O 0.84310(13) 0.4040(3) 0.6080(5)
H1_2 H 0.8239 0.4204 0.5903
H4_4 H 1.0000 0.1705 0.3087
C1_2 C 0.80570(15) 0.4321(2) 0.2561(7)
C2_2 C 0.94360(15) 0.3177(2) 0.2921(7)
C3_2 C 0.84161(16) 0.4029(2) 0.2694(6)
C4_2 C 0.85792(17) 0.3901(3) 0.4425(7)
C5_2 C 0.89041(15) 0.3622(3) 0.4433(7)
H5_2 H 0.9009 0.3531 0.5576
C6_2 C 0.90814(15) 0.3472(2) 0.2809(6)
C7_2 C 0.89183(15) 0.3595(3) 0.1085(7)
C8_2 C 0.85915(15) 0.3863(3) 0.1051(7)
O14_2 O 0.90652(13) 0.6554(3) 0.0587(5)
H8_2 H 0.9259 0.6712 0.0410
H10_2 H 0.8483 0.6064 0.0095
In4_5 In 0.747007(10) 0.5000 0.5000
O16_2 O 0.70939(10) 0.44435(17) 0.0931(5)
O19_2 O 0.95794(10) 0.19709(17) 0.6425(4)
O20_2 O 0.7500 0.54400(19) 0.2500
In1_4 In 0.752993(10) 0.5000 1.0000
O6_2 O 0.90652(13) 0.3446(3) 0.9413(5)
H2_2 H 0.9259 0.3288 0.9590
O7_2 O 0.7500 0.45600(19) 0.7500
H3_2 H 0.7500 0.4197 0.7500
H6_2 H 0.8483 0.3936 0.9905
O9_2 O 0.79435(9) 0.55594(16) 0.9006(4)
O10_2 O 0.79061(10) 0.55565(17) 0.5931(5)
O11_2 O 0.95696(10) 0.69180(17) 0.5509(4)
O12_2 O 0.95794(10) 0.69709(17) 0.8575(4)
O13_2 O 0.84310(13) 0.5960(3) 0.3920(5)
H7_2 H 0.8239 0.5796 0.4097
C9_2 C 0.80570(15) 0.5679(2) 0.7439(7)
C10_2 C 0.94360(15) 0.6823(2) 0.7079(7)
C11_2 C 0.84161(16) 0.5971(2) 0.7306(6)
C12_2 C 0.85792(17) 0.6099(3) 0.5575(7)
C13_2 C 0.89041(15) 0.6378(3) 0.5567(7)
H9_2 H 0.9009 0.6469 0.4424
C14_2 C 0.90814(15) 0.6528(2) 0.7191(6)
C15_2 C 0.89183(15) 0.6405(3) 0.8915(7)
C16_2 C 0.85915(15) 0.6137(3) 0.8949(7)
O15_2 O 0.70939(10) 0.55565(17) 0.9069(5)
H3_3 H 0.2500 0.9197 0.7500
O8_3 O -0.0000 0.70673(19) 0.1984(6)
H4_5 H 0.0000 0.6705 0.1913
O19_3 O 0.04206(10) 0.69709(17) 0.8575(4)
O21_3 O 0.0000 0.79327(19) 0.6984(6)
O8_4 O 1.0000 0.70673(19) 0.1984(6)
H4_6 H 1.0000 0.6705 0.1913
O17_3 O 0.95696(10) 0.80820(17) 0.0509(4)
O21_4 O 1.0000 0.79327(19) 0.6984(6)
H4_7 H -0.0000 0.8295 0.6913
O17_4 O 0.04304(10) 0.69180(17) 0.5509(4)
H3_4 H 0.7500 0.5803 0.2500
H4_8 H 1.0000 0.8295 0.6913
O19_4 O 0.95794(10) 0.80291(17) 0.3575(4)
In2_3 In 0.5000 0.744978(16) 0.04523(5)
O5_3 O 0.65690(13) 0.5960(3) 0.1080(5)
H1_3 H 0.6761 0.5796 0.0903
H5_3 H 0.5991 0.6469 0.0576
O18_2 O 0.45794(10) 0.80291(17) 0.1425(4)
O19_5 O 0.54206(10) 0.80291(17) 0.1425(4)
O21_5 O 0.5000 0.70673(19) 0.3016(6)
O1_3 O 0.70565(9) 0.55594(16) 0.5994(4)
O3_3 O 0.54304(10) 0.69180(17) 0.9491(4)
O4_2 O 0.54206(10) 0.69709(17) 0.6425(4)
O6_3 O 0.59348(13) 0.6554(3) 0.4413(5)
H2_3 H 0.5741 0.6712 0.4590
O8_5 O 0.5000 0.79327(19) 0.8016(6)
H4_9 H 0.5000 0.8295 0.8087
C1_3 C 0.69430(15) 0.5679(2) 0.7561(7)
C2_3 C 0.55640(15) 0.6823(2) 0.7921(7)
C3_3 C 0.65839(16) 0.5971(2) 0.7694(6)
C4_3 C 0.64208(17) 0.6099(3) 0.9425(7)
C5_3 C 0.60959(15) 0.6378(3) 0.9433(7)
C6_3 C 0.59186(15) 0.6528(2) 0.7809(6)
C7_3 C 0.60817(15) 0.6405(3) 0.6085(7)
C8_3 C 0.64085(15) 0.6137(3) 0.6051(7)
H6_3 H 0.6517 0.6064 0.4905
O9_3 O 0.70565(9) 0.44406(16) 0.4006(4)
O11_3 O 0.54304(10) 0.30820(17) 0.0509(4)
O12_3 O 0.54206(10) 0.30291(17) 0.3575(4)
O14_3 O 0.59348(13) 0.3446(3) 0.5587(5)
H8_3 H 0.5741 0.3288 0.5410
C9_3 C 0.69430(15) 0.4321(2) 0.2439(7)
C10_3 C 0.55640(15) 0.3177(2) 0.2079(7)
C11_3 C 0.65839(16) 0.4029(2) 0.2306(6)
C12_3 C 0.64208(17) 0.3901(3) 0.0575(7)
C13_3 C 0.60959(15) 0.3622(3) 0.0567(7)
C14_3 C 0.59186(15) 0.3472(2) 0.2191(6)
C15_3 C 0.60817(15) 0.3595(3) 0.3915(7)
C16_3 C 0.64085(15) 0.3863(3) 0.3949(7)
H10_3 H 0.6517 0.3936 0.5095
In5_3 In 0.5000 0.755022(16) 0.54523(5)
In7_3 In 0.5000 0.244978(16) 0.45477(5)
O17_5 O 0.45696(10) 0.69180(17) 0.9491(4)
O13_3 O 0.65690(13) 0.4040(3) 0.8920(5)
H7_3 H 0.6761 0.4204 0.9097
H9_3 H 0.5991 0.3531 0.9424
In6_3 In 0.5000 0.255022(16) 0.95477(5)
O14_4 O 0.40652(13) 0.1554(3) 0.0587(5)
H8_4 H 0.4259 0.1712 0.0410
H10_4 H 0.3483 0.1064 0.0095
O9_4 O 0.29435(9) 0.05594(16) 0.9006(4)
O11_4 O 0.45696(10) 0.19180(17) 0.5509(4)
O12_4 O 0.45794(10) 0.19709(17) 0.8575(4)
O13_4 O 0.34310(13) 0.0960(3) 0.3920(5)
H7_4 H 0.3239 0.0796 0.4097
C9_4 C 0.30570(15) 0.0679(2) 0.7439(7)
C10_4 C 0.44360(15) 0.1823(2) 0.7079(7)
C11_4 C 0.34161(16) 0.0971(2) 0.7306(6)
C12_4 C 0.35792(17) 0.1099(3) 0.5575(7)
C13_4 C 0.39041(15) 0.1378(3) 0.5567(7)
H9_4 H 0.4009 0.1469 0.4424
C14_4 C 0.40814(15) 0.1528(2) 0.7191(6)
C15_4 C 0.39183(15) 0.1405(3) 0.8915(7)
C16_4 C 0.35915(15) 0.1137(3) 0.8949(7)
O1_4 O 0.29435(9) 0.94406(16) 0.0994(4)
O3_4 O 0.45696(10) 0.80820(17) 0.4491(4)
O5_4 O 0.34310(13) 0.9040(3) 0.6080(5)
H1_4 H 0.3239 0.9204 0.5903
H4_10 H 0.5000 0.6705 0.3087
C1_4 C 0.30570(15) 0.9321(2) 0.2561(7)
C2_4 C 0.44360(15) 0.8177(2) 0.2921(7)
C3_4 C 0.34161(16) 0.9029(2) 0.2694(6)
C4_4 C 0.35792(17) 0.8901(3) 0.4425(7)
C5_4 C 0.39041(15) 0.8622(3) 0.4433(7)
H5_4 H 0.4009 0.8531 0.5576
C6_4 C 0.40814(15) 0.8472(2) 0.2809(6)
C7_4 C 0.39183(15) 0.8595(3) 0.1085(7)
C8_4 C 0.35915(15) 0.8863(3) 0.1051(7)
O17_6 O 0.54304(10) 0.80820(17) 0.4491(4)
O19_6 O 0.45794(10) 0.69709(17) 0.6425(4)
O6_4 O 0.40652(13) 0.8446(3) 0.9413(5)
H2_4 H 0.4259 0.8288 0.9590
H6_4 H 0.3483 0.8936 0.9905
O8_6 O 0.5000 0.20673(19) 0.1984(6)
H4_11 H 0.5000 0.1705 0.1913
O17_7 O 0.45696(10) 0.30820(17) 0.0509(4)
O19_7 O 0.54206(10) 0.19709(17) 0.8575(4)
O21_6 O 0.5000 0.29327(19) 0.6984(6)
H4_12 H 0.5000 0.3295 0.6913
O17_8 O 0.54304(10) 0.19180(17) 0.5509(4)
O19_8 O 0.45794(10) 0.30291(17) 0.3575(4)
O13_5 O 0.84310(13) 0.0960(3) 0.1080(5)
H7_5 H 0.8239 0.0796 0.0903
H9_5 H 0.9009 0.1469 0.0576
In3 In 0.747007(10) 0.0000 0.0000
In1_5 In 0.752993(10) 0.0000 0.5000
O9_5 O 0.79435(9) 0.05594(16) 0.5994(4)
O10_3 O 0.79061(10) 0.05565(17) 0.9069(5)
O14_5 O 0.90652(13) 0.1554(3) 0.4413(5)
H8_5 H 0.9259 0.1712 0.4590
C9_5 C 0.80570(15) 0.0679(2) 0.7561(7)
C10_5 C 0.94360(15) 0.1823(2) 0.7921(7)
C11_5 C 0.84161(16) 0.0971(2) 0.7694(6)
C12_5 C 0.85792(17) 0.1099(3) 0.9425(7)
C13_5 C 0.89041(15) 0.1378(3) 0.9433(7)
C14_5 C 0.90814(15) 0.1528(2) 0.7809(6)
C15_5 C 0.89183(15) 0.1405(3) 0.6085(7)
C16_5 C 0.85915(15) 0.1137(3) 0.6051(7)
H10_5 H 0.8483 0.1064 0.4905
In3_2 In 0.747007(10) 0.0000 1.0000
O15_3 O 0.70939(10) 0.05565(17) 0.5931(5)
O20_3 O 0.7500 0.04400(19) 0.2500
In3_3 In 0.747007(10) 1.0000 0.0000
In1_6 In 0.752993(10) 1.0000 0.5000
O1_5 O 0.79435(9) 0.94406(16) 0.4006(4)
O2_3 O 0.79061(10) 0.94435(17) 0.0931(5)
O6_5 O 0.90652(13) 0.8446(3) 0.5587(5)
H2_5 H 0.9259 0.8288 0.5410
O7_3 O 0.7500 0.95600(19) 0.7500
H3_5 H 0.7500 0.9197 0.7500
C1_5 C 0.80570(15) 0.9321(2) 0.2439(7)
C2_5 C 0.94360(15) 0.8177(2) 0.2079(7)
C3_5 C 0.84161(16) 0.9029(2) 0.2306(6)
C4_5 C 0.85792(17) 0.8901(3) 0.0575(7)
C5_5 C 0.89041(15) 0.8622(3) 0.0567(7)
C6_5 C 0.90814(15) 0.8472(2) 0.2191(6)
C7_5 C 0.89183(15) 0.8595(3) 0.3915(7)
C8_5 C 0.85915(15) 0.8863(3) 0.3949(7)
H6_5 H 0.8483 0.8936 0.5095
In3_4 In 0.747007(10) 1.0000 1.0000
O16_3 O 0.70939(10) 0.94435(17) 0.4069(5)
O5_5 O 0.84310(13) 0.9040(3) 0.8920(5)
H1_5 H 0.8239 0.9204 0.9097
H5_5 H 0.9009 0.8531 0.9424
In1_7 In 0.247007(10) 0.5000 -0.0000
O6_6 O 0.09348(13) 0.6554(3) 0.0587(5)
H2_6 H 0.0741 0.6712 0.0410
O7_4 O 0.2500 0.54400(19) 0.2500
H3_6 H 0.2500 0.5803 0.2500
H6_6 H 0.1517 0.6064 0.0095
O9_6 O 0.20565(9) 0.44406(16) 0.0994(4)
O10_4 O 0.20939(10) 0.44435(17) 0.4069(5)
O13_6 O 0.15690(13) 0.4040(3) 0.6080(5)
H7_6 H 0.1761 0.4204 0.5903
C9_6 C 0.19430(15) 0.4321(2) 0.2561(7)
C10_6 C 0.05640(15) 0.3177(2) 0.2921(7)
C11_6 C 0.15839(16) 0.4029(2) 0.2694(6)
C12_6 C 0.14208(17) 0.3901(3) 0.4425(7)
C13_6 C 0.10959(15) 0.3622(3) 0.4433(7)
H9_6 H 0.0991 0.3531 0.5576
C14_6 C 0.09186(15) 0.3472(2) 0.2809(6)
C15_6 C 0.10817(15) 0.3595(3) 0.1085(7)
C16_6 C 0.14085(15) 0.3863(3) 0.1051(7)
In3_5 In 0.252993(10) 0.5000 0.5000
O15_4 O 0.29061(10) 0.44435(17) 0.0931(5)
In1_8 In 0.247007(10) 0.5000 1.0000
O1_6 O 0.20565(9) 0.55594(16) 0.9006(4)
O2_4 O 0.20939(10) 0.55565(17) 0.5931(5)
O5_6 O 0.15690(13) 0.5960(3) 0.3920(5)
H1_6 H 0.1761 0.5796 0.4097
C1_6 C 0.19430(15) 0.5679(2) 0.7439(7)
C2_6 C 0.05640(15) 0.6823(2) 0.7079(7)
C3_6 C 0.15839(16) 0.5971(2) 0.7306(6)
C4_6 C 0.14208(17) 0.6099(3) 0.5575(7)
C5_6 C 0.10959(15) 0.6378(3) 0.5567(7)
H5_6 H 0.0991 0.6469 0.4424
C6_6 C 0.09186(15) 0.6528(2) 0.7191(6)
C7_6 C 0.10817(15) 0.6405(3) 0.8915(7)
C8_6 C 0.14085(15) 0.6137(3) 0.8949(7)
O14_6 O 0.09348(13) 0.3446(3) 0.9413(5)
H8_6 H 0.0741 0.3288 0.9590
H10_6 H 0.1517 0.3936 0.9905
O16_4 O 0.29061(10) 0.55565(17) 0.9069(5)
O20_4 O 0.2500 0.45600(19) 0.7500
H3_7 H 0.7500 0.0803 0.2500
H3_8 H 0.2500 0.4197 0.7500
O13_7 O 0.34310(13) 0.5960(3) 0.1080(5)
H7_7 H 0.3239 0.5796 0.0903
H9_7 H 0.4009 0.6469 0.0576
O1_7 O 0.29435(9) 0.44406(16) 0.4006(4)
O6_7 O 0.40652(13) 0.3446(3) 0.5587(5)
H2_7 H 0.4259 0.3288 0.5410
C1_7 C 0.30570(15) 0.4321(2) 0.2439(7)
C2_7 C 0.44360(15) 0.3177(2) 0.2079(7)
C3_7 C 0.34161(16) 0.4029(2) 0.2306(6)
C4_7 C 0.35792(17) 0.3901(3) 0.0575(7)
C5_7 C 0.39041(15) 0.3622(3) 0.0567(7)
C6_7 C 0.40814(15) 0.3472(2) 0.2191(6)
C7_7 C 0.39183(15) 0.3595(3) 0.3915(7)
C8_7 C 0.35915(15) 0.3863(3) 0.3949(7)
H6_7 H 0.3483 0.3936 0.5095
O9_7 O 0.29435(9) 0.55594(16) 0.5994(4)
O14_7 O 0.40652(13) 0.6554(3) 0.4413(5)
H8_7 H 0.4259 0.6712 0.4590
C9_7 C 0.30570(15) 0.5679(2) 0.7561(7)
C10_7 C 0.44360(15) 0.6823(2) 0.7921(7)
C11_7 C 0.34161(16) 0.5971(2) 0.7694(6)
C12_7 C 0.35792(17) 0.6099(3) 0.9425(7)
C13_7 C 0.39041(15) 0.6378(3) 0.9433(7)
C14_7 C 0.40814(15) 0.6528(2) 0.7809(6)
C15_7 C 0.39183(15) 0.6405(3) 0.6085(7)
C16_7 C 0.35915(15) 0.6137(3) 0.6051(7)
H10_7 H 0.3483 0.6064 0.4905
O5_7 O 0.34310(13) 0.4040(3) 0.8920(5)
H1_7 H 0.3239 0.4204 0.9097
H5_7 H 0.4009 0.3531 0.9424
O6_8 O 0.59348(13) 0.1554(3) 0.0587(5)
H2_8 H 0.5741 0.1712 0.0410
H6_8 H 0.6517 0.1064 0.0095
O1_8 O 0.70565(9) 0.05594(16) 0.9006(4)
O5_8 O 0.65690(13) 0.0960(3) 0.3920(5)
H1_8 H 0.6761 0.0796 0.4097
C1_8 C 0.69430(15) 0.0679(2) 0.7439(7)
C2_8 C 0.55640(15) 0.1823(2) 0.7079(7)
C3_8 C 0.65839(16) 0.0971(2) 0.7306(6)
C4_8 C 0.64208(17) 0.1099(3) 0.5575(7)
C5_8 C 0.60959(15) 0.1378(3) 0.5567(7)
H5_8 H 0.5991 0.1469 0.4424
C6_8 C 0.59186(15) 0.1528(2) 0.7191(6)
C7_8 C 0.60817(15) 0.1405(3) 0.8915(7)
C8_8 C 0.64085(15) 0.1137(3) 0.8949(7)
O9_8 O 0.70565(9) 0.94406(16) 0.0994(4)
O13_8 O 0.65690(13) 0.9040(3) 0.6080(5)
H7_8 H 0.6761 0.9204 0.5903
C9_8 C 0.69430(15) 0.9321(2) 0.2561(7)
C10_8 C 0.55640(15) 0.8177(2) 0.2921(7)
C11_8 C 0.65839(16) 0.9029(2) 0.2694(6)
C12_8 C 0.64208(17) 0.8901(3) 0.4425(7)
C13_8 C 0.60959(15) 0.8622(3) 0.4433(7)
H9_8 H 0.5991 0.8531 0.5576
C14_8 C 0.59186(15) 0.8472(2) 0.2809(6)
C15_8 C 0.60817(15) 0.8595(3) 0.1085(7)
C16_8 C 0.64085(15) 0.8863(3) 0.1051(7)
O14_8 O 0.59348(13) 0.8446(3) 0.9413(5)
H8_8 H 0.5741 0.8288 0.9590
H10_8 H 0.6517 0.8936 0.9905
loop_
_geom_bond_atom_site_label_1
_geom_bond_atom_site_label_2
_geom_bond_site_symmetry_1
_geom_bond_site_symmetry_2
O5 H1 1_555 1_555
O19 In2 1_555 1_555
O21 In2 1_555 1_555
In1 O1 1_555 1_555
O1 C1 1_555 1_555
O2 C1 1_555 1_555
O3 C2 1_555 1_555
O4 C2 1_555 1_555
O6 H2 1_555 1_555
O7 In1 1_555 1_555
H3 O7 1_555 1_555
H4 O8 1_555 1_555
C1 C3 1_555 1_555
C2 C6 1_555 1_555
C3 C4 1_555 1_555
C5 C4 1_555 1_555
C6 C5 1_555 1_555
C7 O6 1_555 1_555
C8 C3 1_555 1_555
H6 C8 1_555 1_555
In4 O7 1_555 1_555
In4_2 O2 1_555 1_555
In5 O4 1_555 1_555
O16 In1 1_555 1_555
O8 In5 1_555 1_555
C6 C7 1_555 1_555
C7 C8 1_555 1_555
O9 In1_2 1_555 1_555
O10 C9 1_555 1_555
O11 C10 1_555 1_555
O12 C10 1_555 1_555
O14 H8 1_555 1_555
C9 O9 1_555 1_555
C10 C14 1_555 1_555
C11 C9 1_555 1_555
C13 C12 1_555 1_555
C14 C13 1_555 1_555
C15 O14 1_555 1_555
C16 C11 1_555 1_555
H10 C16 1_555 1_555
In7 O12 1_555 1_555
O15 In1_2 1_555 1_555
O20 In1_2 1_555 1_555
O10 In4_3 1_555 1_555
C11 C12 1_555 1_555
C14 C15 1_555 1_555
C15 C16 1_555 1_555
In4_4 O20 1_555 1_555
O13 H7 1_555 1_555
O18 In2_2 1_555 1_555
O21_2 In2_2 1_555 1_555
H4_2 O8_2 1_555 1_555
O8_2 In5_2 1_555 1_555
O21 In5 1_555 1_555
H4_3 O21 1_555 1_555
O17_2 In5 1_555 1_555
In1_3 O1_2 1_555 1_555
In5_2 O3_2 1_555 1_555
O1_2 C1_2 1_555 1_555
O2_2 C1_2 1_555 1_555
O3_2 C2_2 1_555 1_555
O18 C2_2 1_555 1_555
O5_2 H1_2 1_555 1_555
O21_2 In5_2 1_555 1_555
H4_4 O21_2 1_555 1_555
C1_2 C3_2 1_555 1_555
C2_2 C6_2 1_555 1_555
C3_2 C4_2 1_555 1_555
C4_2 O5_2 1_555 1_555
C5_2 C4_2 1_555 1_555
H5_2 C5_2 1_555 1_555
C6_2 C5_2 1_555 1_555
C8_2 C3_2 1_555 1_555
O14_2 H8_2 1_555 1_555
In4_5 O2_2 1_555 1_555
O16_2 In1_3 1_555 1_555
O19_2 In5_2 1_555 1_555
O20_2 In1_3 1_555 1_555
C6_2 C7_2 1_555 1_555
C7_2 C8_2 1_555 1_555
In4_5 O20_2 1_555 1_555
O6_2 H2_2 1_555 1_555
O7_2 In1_4 1_555 1_555
H3_2 O7_2 1_555 1_555
O9_2 In1_4 1_555 1_555
O10_2 C9_2 1_555 1_555
O11_2 C10_2 1_555 1_555
O12_2 C10_2 1_555 1_555
O13_2 H7_2 1_555 1_555
C9_2 O9_2 1_555 1_555
C10_2 C14_2 1_555 1_555
C11_2 C9_2 1_555 1_555
C12_2 O13_2 1_555 1_555
C13_2 C12_2 1_555 1_555
H9_2 C13_2 1_555 1_555
C14_2 C13_2 1_555 1_555
C16_2 C11_2 1_555 1_555
In4_5 O7_2 1_555 1_555
In7_2 O11_2 1_555 1_555
In6_2 O12_2 1_555 1_555
O15_2 In1_4 1_555 1_555
O10_2 In4_5 1_555 1_555
C11_2 C12_2 1_555 1_555
C14_2 C15_2 1_555 1_555
C15_2 C16_2 1_555 1_555
H3_3 O20 1_555 1_555
H4_5 O8_3 1_555 1_555
O8_3 In7 1_555 1_555
O19_3 In6 1_555 1_555
O21_3 In6 1_555 1_555
H4_6 O8_4 1_555 1_555
O8_4 In7_2 1_555 1_555
O21_4 In6_2 1_555 1_555
O21_3 In7 1_555 1_555
H4_7 O21_3 1_555 1_555
O17_4 In7 1_555 1_555
H3_4 O20_2 1_555 1_555
O21_4 In7_2 1_555 1_555
H4_8 O21_4 1_555 1_555
O19_4 In7_2 1_555 1_555
O5_3 H1_3 1_555 1_555
O18_2 In2_3 1_555 1_555
O19_5 In2_3 1_555 1_555
O21_5 In2_3 1_555 1_555
In4_5 O1_3 1_555 1_555
O1_3 C1_3 1_555 1_555
O15_2 C1_3 1_555 1_555
O3_3 C2_3 1_555 1_555
O4_2 C2_3 1_555 1_555
O6_3 H2_3 1_555 1_555
H4_9 O8_5 1_555 1_555
C1_3 C3_3 1_555 1_555
C2_3 C6_3 1_555 1_555
C3_3 C4_3 1_555 1_555
C5_3 C4_3 1_555 1_555
C6_3 C5_3 1_555 1_555
C7_3 O6_3 1_555 1_555
C8_3 C3_3 1_555 1_555
H6_3 C8_3 1_555 1_555
O9_3 In4_5 1_555 1_555
O16_2 C9_3 1_555 1_555
O11_3 C10_3 1_555 1_555
O12_3 C10_3 1_555 1_555
O14_3 H8_3 1_555 1_555
C9_3 O9_3 1_555 1_555
C10_3 C14_3 1_555 1_555
C11_3 C9_3 1_555 1_555
C13_3 C12_3 1_555 1_555
C14_3 C13_3 1_555 1_555
C15_3 O14_3 1_555 1_555
C16_3 C11_3 1_555 1_555
H10_3 C16_3 1_555 1_555
In5_3 O4_2 1_555 1_555
In7_3 O12_3 1_555 1_555
O8_5 In5_3 1_555 1_555
C6_3 C7_3 1_555 1_555
C7_3 C8_3 1_555 1_555
C11_3 C12_3 1_555 1_555
C14_3 C15_3 1_555 1_555
C15_3 C16_3 1_555 1_555
O13_3 H7_3 1_555 1_555
O14_4 H8_4 1_555 1_555
O9_4 In4_2 1_555 1_555
O16 C9_4 1_555 1_555
O11_4 C10_4 1_555 1_555
O12_4 C10_4 1_555 1_555
O13_4 H7_4 1_555 1_555
C9_4 O9_4 1_555 1_555
C10_4 C14_4 1_555 1_555
C11_4 C9_4 1_555 1_555
C12_4 O13_4 1_555 1_555
C13_4 C12_4 1_555 1_555
H9_4 C13_4 1_555 1_555
C14_4 C13_4 1_555 1_555
C16_4 C11_4 1_555 1_555
In7_3 O11_4 1_555 1_555
In6_3 O12_4 1_555 1_555
C11_4 C12_4 1_555 1_555
C14_4 C15_4 1_555 1_555
C15_4 C16_4 1_555 1_555
In4_3 O1_4 1_555 1_555
In5_3 O3_4 1_555 1_555
O1_4 C1_4 1_555 1_555
O15 C1_4 1_555 1_555
O3_4 C2_4 1_555 1_555
O18_2 C2_4 1_555 1_555
O5_4 H1_4 1_555 1_555
O21_5 In5_3 1_555 1_555
H4_10 O21_5 1_555 1_555
C1_4 C3_4 1_555 1_555
C2_4 C6_4 1_555 1_555
C3_4 C4_4 1_555 1_555
C4_4 O5_4 1_555 1_555
C5_4 C4_4 1_555 1_555
H5_4 C5_4 1_555 1_555
C6_4 C5_4 1_555 1_555
C8_4 C3_4 1_555 1_555
O17_6 In5_3 1_555 1_555
O19_6 In5_3 1_555 1_555
C6_4 C7_4 1_555 1_555
C7_4 C8_4 1_555 1_555
O6_4 H2_4 1_555 1_555
H4_11 O8_6 1_555 1_555
O8_6 In7_3 1_555 1_555
O19_7 In6_3 1_555 1_555
O21_6 In6_3 1_555 1_555
O21_6 In7_3 1_555 1_555
H4_12 O21_6 1_555 1_555
O17_8 In7_3 1_555 1_555
O19_8 In7_3 1_555 1_555
O13_5 H7_5 1_555 1_555
O9_5 In1_5 1_555 1_555
O10_3 C9_5 1_555 1_555
O17 C10_5 1_555 1_555
O19_2 C10_5 1_555 1_555
O14_5 H8_5 1_555 1_555
C9_5 O9_5 1_555 1_555
C10_5 C14_5 1_555 1_555
C11_5 C9_5 1_555 1_555
C13_5 C12_5 1_555 1_555
C14_5 C13_5 1_555 1_555
C15_5 O14_5 1_555 1_555
C16_5 C11_5 1_555 1_555
H10_5 C16_5 1_555 1_555
O15_3 In1_5 1_555 1_555
O20_3 In1_5 1_555 1_555
O10_3 In3_2 1_555 1_555
C11_5 C12_5 1_555 1_555
C14_5 C15_5 1_555 1_555
C15_5 C16_5 1_555 1_555
In3 O20_3 1_555 1_555
In1_6 O1_5 1_555 1_555
O1_5 C1_5 1_555 1_555
O2_3 C1_5 1_555 1_555
O17_3 C2_5 1_555 1_555
O19_4 C2_5 1_555 1_555
O6_5 H2_5 1_555 1_555
O7_3 In1_6 1_555 1_555
H3_5 O7_3 1_555 1_555
C1_5 C3_5 1_555 1_555
C2_5 C6_5 1_555 1_555
C3_5 C4_5 1_555 1_555
C5_5 C4_5 1_555 1_555
C6_5 C5_5 1_555 1_555
C7_5 O6_5 1_555 1_555
C8_5 C3_5 1_555 1_555
H6_5 C8_5 1_555 1_555
In3_4 O7_3 1_555 1_555
In3_3 O2_3 1_555 1_555
O16_3 In1_6 1_555 1_555
C6_5 C7_5 1_555 1_555
C7_5 C8_5 1_555 1_555
O5_5 H1_5 1_555 1_555
O6_6 H2_6 1_555 1_555
O7_4 In1_7 1_555 1_555
H3_6 O7_4 1_555 1_555
O9_6 In1_7 1_555 1_555
O10_4 C9_6 1_555 1_555
O17_2 C10_6 1_555 1_555
O19 C10_6 1_555 1_555
O13_6 H7_6 1_555 1_555
C9_6 O9_6 1_555 1_555
C10_6 C14_6 1_555 1_555
C11_6 C9_6 1_555 1_555
C12_6 O13_6 1_555 1_555
C13_6 C12_6 1_555 1_555
H9_6 C13_6 1_555 1_555
C14_6 C13_6 1_555 1_555
C16_6 C11_6 1_555 1_555
In3_5 O7_4 1_555 1_555
O15_4 In1_7 1_555 1_555
O10_4 In3_5 1_555 1_555
C11_6 C12_6 1_555 1_555
C14_6 C15_6 1_555 1_555
C15_6 C16_6 1_555 1_555
In1_8 O1_6 1_555 1_555
O1_6 C1_6 1_555 1_555
O2_4 C1_6 1_555 1_555
O17_4 C2_6 1_555 1_555
O19_3 C2_6 1_555 1_555
O5_6 H1_6 1_555 1_555
C1_6 C3_6 1_555 1_555
C2_6 C6_6 1_555 1_555
C3_6 C4_6 1_555 1_555
C4_6 O5_6 1_555 1_555
C5_6 C4_6 1_555 1_555
H5_6 C5_6 1_555 1_555
C6_6 C5_6 1_555 1_555
C8_6 C3_6 1_555 1_555
O14_6 H8_6 1_555 1_555
In3_5 O2_4 1_555 1_555
O16_4 In1_8 1_555 1_555
O20_4 In1_8 1_555 1_555
C6_6 C7_6 1_555 1_555
C7_6 C8_6 1_555 1_555
In3_5 O20_4 1_555 1_555
H3_7 O20_3 1_555 1_555
H3_8 O20_4 1_555 1_555
O13_7 H7_7 1_555 1_555
In3_5 O1_7 1_555 1_555
O1_7 C1_7 1_555 1_555
O15_4 C1_7 1_555 1_555
O17_7 C2_7 1_555 1_555
O19_8 C2_7 1_555 1_555
O6_7 H2_7 1_555 1_555
C1_7 C3_7 1_555 1_555
C2_7 C6_7 1_555 1_555
C3_7 C4_7 1_555 1_555
C5_7 C4_7 1_555 1_555
C6_7 C5_7 1_555 1_555
C7_7 O6_7 1_555 1_555
C8_7 C3_7 1_555 1_555
H6_7 C8_7 1_555 1_555
O9_7 In3_5 1_555 1_555
O16_4 C9_7 1_555 1_555
O17_5 C10_7 1_555 1_555
O19_6 C10_7 1_555 1_555
O14_7 H8_7 1_555 1_555
C9_7 O9_7 1_555 1_555
C10_7 C14_7 1_555 1_555
C11_7 C9_7 1_555 1_555
C13_7 C12_7 1_555 1_555
C14_7 C13_7 1_555 1_555
C15_7 O14_7 1_555 1_555
C16_7 C11_7 1_555 1_555
H10_7 C16_7 1_555 1_555
C6_7 C7_7 1_555 1_555
C7_7 C8_7 1_555 1_555
C11_7 C12_7 1_555 1_555
C14_7 C15_7 1_555 1_555
C15_7 C16_7 1_555 1_555
O5_7 H1_7 1_555 1_555
O6_8 H2_8 1_555 1_555
In3_2 O1_8 1_555 1_555
O1_8 C1_8 1_555 1_555
O15_3 C1_8 1_555 1_555
O17_8 C2_8 1_555 1_555
O19_7 C2_8 1_555 1_555
O5_8 H1_8 1_555 1_555
C1_8 C3_8 1_555 1_555
C2_8 C6_8 1_555 1_555
C3_8 C4_8 1_555 1_555
C4_8 O5_8 1_555 1_555
C5_8 C4_8 1_555 1_555
H5_8 C5_8 1_555 1_555
C6_8 C5_8 1_555 1_555
C8_8 C3_8 1_555 1_555
C6_8 C7_8 1_555 1_555
C7_8 C8_8 1_555 1_555
O9_8 In3_3 1_555 1_555
O16_3 C9_8 1_555 1_555
O17_6 C10_8 1_555 1_555
O19_5 C10_8 1_555 1_555
O13_8 H7_8 1_555 1_555
C9_8 O9_8 1_555 1_555
C10_8 C14_8 1_555 1_555
C11_8 C9_8 1_555 1_555
C12_8 O13_8 1_555 1_555
C13_8 C12_8 1_555 1_555
H9_8 C13_8 1_555 1_555
C14_8 C13_8 1_555 1_555
C16_8 C11_8 1_555 1_555
C11_8 C12_8 1_555 1_555
C14_8 C15_8 1_555 1_555
C15_8 C16_8 1_555 1_555
O14_8 H8_8 1_555 1_555

#END
