
###############################################################################
#
# This file contains modified crystal structure data generated from the
# MOF subset of the Cambridge Structural Database (CSD) v543 
# hosted by the Cambridge Crystallographic Data Centre (CCDC).
#
# This work is licensed under the Creative Commons
# Attribution-NonCommercial-ShareAlike 4.0 International License.
# To view a copy of this license, visit
# http://creativecommons.org/licenses/by-nc-sa/4.0/
# or send a letter to
# Creative Commons, PO Box 1866, Mountain View, CA 94042, USA.
#
# CIF created using the CSD Python API on 29 September 2022
# The structure has been converted into the P1 space group
# The structure has a 3D framework
# The original CSD entry VEFMIE is in the monoclinic crystal system
# The framework has been calculated to contain at least 10.0% void space
# The void calculation uses a probe of radius 1.32A, grid spacing 0.4
#
###############################################################################

data_VEFMIE
_chemical_formula_moiety         '(C352 H224 Co16 N64 O64)n'
_symmetry_cell_setting           triclinic
_symmetry_space_group_name_H-M   'P 1'
_symmetry_Int_Tables_number      1
_space_group_name_Hall           'P 1'
loop_
_symmetry_equiv_pos_site_id
_symmetry_equiv_pos_as_xyz
1 x,y,z
_cell_length_a                   31.7805(14)
_cell_length_b                   16.4904(12)
_cell_length_c                   23.2119(18)
_cell_angle_alpha                90
_cell_angle_beta                 117.285(3)
_cell_angle_gamma                90
_cell_volume                     10811.3
loop_
_atom_site_label
_atom_site_type_symbol
_atom_site_fract_x
_atom_site_fract_y
_atom_site_fract_z
N13 N 0.26294(8) 0.01755(14) 0.71363(11)
O16 O 0.23811(7) 0.09778(12) 0.81584(9)
O18 O 0.28206(9) 0.03290(14) 0.90063(11)
O20 O 0.34094(8) 0.05488(14) 0.87148(11)
C23 C 0.01001(10) 0.46136(18) 0.00585(16)
C63 C 0.13682(11) 0.5091(2) 0.12907(15)
C64 C 0.08538(11) 0.51867(19) 0.08377(14)
C65 C 0.06480(11) 0.5972(2) 0.07102(17)
H38 H 0.0831 0.6419 0.0925
C66 C 0.01829(11) 0.6074(2) 0.02733(17)
H39 H 0.0050 0.6590 0.0191
C68 C 0.05936(11) 0.4533(2) 0.05247(15)
H40 H 0.0734 0.4023 0.0610
Co8 Co 0.226730(13) 0.50754(2) 0.193680(18)
O19 O 0.15906(8) 0.44512(14) 0.12852(11)
O21 O 0.15953(8) 0.56593(15) 0.16621(12)
C35 C 0.24184(10) 0.82648(17) 0.75769(15)
H21 H 0.2680 0.8310 0.7500
C36 C 0.21679(10) 0.75568(18) 0.74056(15)
H22 H 0.2267 0.7128 0.7237
C37 C 0.17604(10) 0.74870(16) 0.74872(14)
C38 C 0.16417(10) 0.81413(17) 0.77621(14)
H23 H 0.1377 0.8116 0.7833
C39 C 0.19215(10) 0.88292(17) 0.79291(14)
H24 H 0.1833 0.9263 0.8106
C41 C 0.02469(12) 0.6835(2) 0.68691(19)
H26 H 0.0248 0.6524 0.7204
C42 C 0.06586(11) 0.69910(19) 0.68444(16)
C43 C 0.06273(12) 0.74413(19) 0.63277(17)
H27 H 0.0897 0.7550 0.6280
C44 C 0.01945(12) 0.7729(2) 0.58827(17)
H28 H 0.0182 0.8037 0.5540
N5 N 0.23112(8) 0.89098(14) 0.78527(11)
N6 N 0.15038(10) 0.67909(15) 0.72921(15)
N7 N 0.10874(10) 0.67112(16) 0.73475(16)
Co6 Co 0.273270(13) 0.99246(2) 0.806320(18)
O22 O 0.34047(8) 0.93407(15) 0.83379(12)
Co4 Co 0.919330(15) 0.17028(2) 0.042595(19)
Co7 Co 0.726730(13) 0.00754(2) 0.193680(18)
C3 C 0.86925(12) 0.0517(2) 0.65687(17)
H2 H 0.8492 0.0684 0.6148
C4 C 0.87007(12) 0.0913(2) 0.70939(16)
H3 H 0.8505 0.1360 0.7025
C5 C 0.89939(10) 0.06655(19) 0.77249(15)
C6 C 0.93112(12) 0.00045(19) 0.78412(16)
C8 C 0.96033(13) 0.0147(2) 0.89853(17)
C9 C 0.92884(13) 0.0791(2) 0.88958(16)
C10 C 0.89887(13) 0.1059(2) 0.82718(17)
H6 H 0.8785 0.1493 0.8210
C12 C 0.92669(13) 0.1188(2) 0.94630(17)
O3 O 0.94562(7) 0.08466(11) 0.99942(9)
O4 O 0.90517(8) 0.18100(13) 0.94151(10)
C45 C 0.93027(12) 0.0398(2) 0.22951(16)
H29 H 0.9507 0.0831 0.2357
C46 C 0.90014(11) 0.01592(19) 0.16869(15)
C51 C 0.96110(14) 0.0239(2) 0.34650(17)
H32 H 0.9820 0.0666 0.3534
H33 H 0.9809 0.0021 0.4404
C55 C 0.89779(10) 0.0630(2) 0.11108(15)
C69 C 0.84044(11) 0.24555(19) 0.06345(15)
H41 H 0.8485 0.2064 0.0956
C70 C 0.80529(11) 0.29898(18) 0.05610(14)
H42 H 0.7905 0.2958 0.0826
C71 C 0.79202(10) 0.35857(19) 0.00777(14)
C74 C 0.79439(10) 0.48824(16) 0.19107(13)
H45 H 0.8243 0.5082 0.2189
C75 C 0.78578(10) 0.46662(17) 0.12886(13)
H46 H 0.8093 0.4710 0.1157
C76 C 0.74099(10) 0.43821(17) 0.08703(13)
C77 C 0.70717(10) 0.4310(2) 0.10965(14)
H47 H 0.6770 0.4115 0.0827
C78 C 0.71932(10) 0.45307(19) 0.17154(14)
H48 H 0.6967 0.4479 0.1862
Co9 Co 0.773270(13) 0.50754(2) 0.306320(18)
N9 N 0.86433(9) 0.24473(16) 0.02819(12)
N11 N 0.72861(9) 0.40977(17) 0.02489(12)
N12 N 0.76294(8) 0.48245(14) 0.21363(11)
N18 N 0.97973(10) 0.24038(17) 0.09106(14)
O9 O 0.91369(9) 0.13320(15) 0.12278(11)
O10 O 0.88147(10) 0.03197(18) 0.05667(12)
C72 C 0.81548(12) 0.3576(2) 0.96877(15)
H43 H 0.8074 0.3948 0.9353
C73 C 0.85015(11) 0.3015(2) 0.98065(15)
H44 H 0.8651 0.3022 0.9543
N10 N 0.76042(10) 0.41803(18) 0.99881(12)
C16 C 0.75961(10) 0.71288(17) 0.01602(13)
C17 C 0.77566(11) 0.70598(18) 0.08313(15)
H8 H 0.7884 0.6572 0.1038
C57 C 0.74547(12) 0.90999(17) 0.12534(14)
C58 C 0.75370(10) 0.84544(16) 0.08721(13)
C59 C 0.73809(11) 0.85367(17) 0.02212(14)
H35 H 0.7258 0.9031 0.0022
C62 C 0.77274(10) 0.77055(17) 0.11858(14)
H37 H 0.7832 0.7652 0.1629
O15 O 0.76189(7) 0.90222(12) 0.18416(9)
O17 O 0.71794(9) 0.96710(14) 0.09937(11)
C1 C 0.93027(12) 0.9602(2) 0.72951(16)
H1 H 0.9507 0.9169 0.7357
C2 C 0.90014(11) 0.98408(19) 0.66869(15)
C7 C 0.96110(14) 0.9761(2) 0.84650(17)
H4 H 0.9820 0.9334 0.8534
H5 H 0.9809 0.9979 0.9404
C11 C 0.89779(10) 0.9370(2) 0.61108(15)
C13 C 0.75453(12) 0.59001(17) 0.87466(14)
C14 C 0.74630(10) 0.65456(16) 0.91279(13)
C15 C 0.76191(11) 0.64633(17) 0.97788(14)
H7 H 0.7742 0.5969 0.9978
C18 C 0.72726(10) 0.72945(17) 0.88142(14)
H9 H 0.7168 0.7348 0.8371
C19 C 0.86318(11) 0.4909(2) 0.87093(15)
C20 C 0.91462(11) 0.48133(19) 0.91623(14)
C21 C 0.93520(11) 0.4028(2) 0.92898(17)
H10 H 0.9169 0.3581 0.9075
C22 C 0.98171(11) 0.3926(2) 0.97267(17)
H11 H 0.9950 0.3410 0.9809
C24 C 0.94064(11) 0.5467(2) 0.94753(15)
H12 H 0.9266 0.5977 0.9390
C25 C 0.84044(11) 0.75445(19) 0.56345(15)
H13 H 0.8485 0.7936 0.5956
C26 C 0.80529(11) 0.70102(18) 0.55610(14)
H14 H 0.7905 0.7042 0.5826
C27 C 0.79202(10) 0.64143(19) 0.50777(14)
C28 C 0.81548(12) 0.6424(2) 0.46877(15)
H15 H 0.8074 0.6052 0.4353
C29 C 0.85015(11) 0.6985(2) 0.48065(15)
H16 H 0.8651 0.6978 0.4543
C30 C 0.79439(10) 0.51176(16) 0.69107(13)
H17 H 0.8243 0.4918 0.7189
C31 C 0.78578(10) 0.53338(17) 0.62886(13)
H18 H 0.8093 0.5290 0.6157
C32 C 0.74099(10) 0.56179(17) 0.58703(13)
C33 C 0.70717(10) 0.5690(2) 0.60965(14)
H19 H 0.6770 0.5885 0.5827
C34 C 0.71932(10) 0.54693(19) 0.67154(14)
H20 H 0.6967 0.5521 0.6862
C40 C 0.98310(13) 0.7140(3) 0.6396(2)
H25 H 0.9554 0.7017 0.6419
Co1 Co 0.919330(15) 0.82972(2) 0.542595(19)
Co2 Co 0.773270(13) 0.49246(2) 0.806320(18)
N1 N 0.86433(9) 0.75527(16) 0.52819(12)
N2 N 0.76042(10) 0.58197(18) 0.49881(12)
N3 N 0.72861(9) 0.59023(17) 0.52489(12)
N4 N 0.76294(8) 0.51755(14) 0.71363(11)
N8 N 0.97973(10) 0.75962(17) 0.59106(14)
O1 O 0.91369(9) 0.86680(15) 0.62278(11)
O2 O 0.88147(10) 0.96803(18) 0.55667(12)
O5 O 0.73811(7) 0.59778(12) 0.81584(9)
O6 O 0.78206(9) 0.53290(14) 0.90063(11)
O7 O 0.84094(8) 0.55488(14) 0.87148(11)
O8 O 0.84047(8) 0.43407(15) 0.83379(12)
C47 C 0.86925(12) 0.9483(2) 0.15687(17)
H30 H 0.8492 0.9316 0.1148
C48 C 0.87007(12) 0.9087(2) 0.20939(16)
H31 H 0.8505 0.8640 0.2025
C49 C 0.89939(10) 0.93345(19) 0.27249(15)
C50 C 0.93112(12) 0.99955(19) 0.28412(16)
C52 C 0.96033(13) 0.9853(2) 0.39853(17)
C53 C 0.92884(13) 0.9209(2) 0.38958(16)
C54 C 0.89887(13) 0.8941(2) 0.32718(17)
H34 H 0.8785 0.8507 0.3210
C56 C 0.92669(13) 0.8812(2) 0.44630(17)
C60 C 0.74039(10) 0.78712(17) 0.98398(13)
C61 C 0.72434(11) 0.79402(18) 0.91687(15)
H36 H 0.7116 0.8428 0.8962
C67 C 0.98999(10) 0.53864(18) 0.99415(16)
C79 C 0.74184(10) 0.32648(17) 0.75769(15)
H49 H 0.7680 0.3310 0.7500
C80 C 0.71679(10) 0.25568(18) 0.74056(15)
H50 H 0.7267 0.2128 0.7237
C81 C 0.67604(10) 0.24870(16) 0.74872(14)
C82 C 0.66417(10) 0.31413(17) 0.77621(14)
H51 H 0.6377 0.3116 0.7833
C83 C 0.69215(10) 0.38292(17) 0.79291(14)
H52 H 0.6833 0.4263 0.8106
C84 C 0.48310(13) 0.2140(3) 0.6396(2)
H53 H 0.4554 0.2017 0.6419
C85 C 0.52469(12) 0.1835(2) 0.68691(19)
H54 H 0.5248 0.1524 0.7204
C86 C 0.56586(11) 0.19910(19) 0.68444(16)
C87 C 0.56273(12) 0.24413(19) 0.63277(17)
H55 H 0.5897 0.2550 0.6280
C88 C 0.51945(12) 0.2729(2) 0.58827(17)
H56 H 0.5182 0.3037 0.5540
Co5 Co 0.419330(15) 0.32972(2) 0.542595(19)
N14 N 0.73112(8) 0.39098(14) 0.78527(11)
N15 N 0.65038(10) 0.17909(15) 0.72921(15)
N16 N 0.60874(10) 0.17112(16) 0.73475(16)
N17 N 0.47973(10) 0.25962(17) 0.59106(14)
O11 O 0.94562(7) 0.91534(11) 0.49942(9)
O13 O 0.90517(8) 0.81900(13) 0.44151(10)
C45_2 C 0.06973(12) 0.0398(2) 0.27049(16)
H29_2 H 0.0493 0.0831 0.2643
C46_2 C 0.09986(11) 0.01592(19) 0.33131(15)
C51_2 C 0.03890(14) 0.0239(2) 0.15350(17)
H32_2 H 0.0180 0.0666 0.1466
H33_2 H 0.0191 0.0021 0.0596
C55_2 C 0.10221(10) 0.0630(2) 0.38892(15)
C69_2 C 0.15956(11) 0.24555(19) 0.43655(15)
H41_2 H 0.1515 0.2064 0.4044
C70_2 C 0.19471(11) 0.29898(18) 0.44390(14)
H42_2 H 0.2095 0.2958 0.4174
C71_2 C 0.20798(10) 0.35857(19) 0.49223(14)
C72_2 C 0.18452(12) 0.3576(2) 0.53123(15)
H43_2 H 0.1926 0.3948 0.5647
C73_2 C 0.14985(11) 0.3015(2) 0.51935(15)
H44_2 H 0.1349 0.3022 0.5457
C74_2 C 0.20561(10) 0.48824(16) 0.30893(13)
H45_2 H 0.1757 0.5082 0.2811
C75_2 C 0.21422(10) 0.46662(17) 0.37114(13)
H46_2 H 0.1907 0.4710 0.3843
C76_2 C 0.25901(10) 0.43821(17) 0.41297(13)
C77_2 C 0.29283(10) 0.4310(2) 0.39035(14)
H47_2 H 0.3230 0.4115 0.4173
C78_2 C 0.28068(10) 0.45307(19) 0.32846(14)
H48_2 H 0.3033 0.4479 0.3138
Co3 Co 0.080670(15) 0.17028(2) 0.457405(19)
N9_2 N 0.13567(9) 0.24473(16) 0.47181(12)
N10_2 N 0.23958(10) 0.41803(18) 0.50119(12)
N11_2 N 0.27139(9) 0.40977(17) 0.47511(12)
N12_2 N 0.23706(8) 0.48245(14) 0.28637(11)
N18_2 N 0.02027(10) 0.24038(17) 0.40894(14)
O9_2 O 0.08631(9) 0.13320(15) 0.37722(11)
O10_2 O 0.11853(10) 0.03197(18) 0.44333(12)
O12 O 0.05438(7) 0.08466(11) 0.50058(9)
O14 O 0.09483(8) 0.18100(13) 0.55849(10)
C3_2 C 0.13075(12) 0.0517(2) 0.84313(17)
H2_2 H 0.1508 0.0684 0.8852
C4_2 C 0.12993(12) 0.0913(2) 0.79061(16)
H3_2 H 0.1495 0.1360 0.7975
C5_2 C 0.10061(10) 0.06655(19) 0.72751(15)
C6_2 C 0.06888(12) 0.00045(19) 0.71588(16)
C8_2 C 0.03967(13) 0.0147(2) 0.60147(17)
C9_2 C 0.07116(13) 0.0791(2) 0.61042(16)
C10_2 C 0.10113(13) 0.1059(2) 0.67282(17)
H6_2 H 0.1215 0.1493 0.6790
C12_2 C 0.07331(13) 0.1188(2) 0.55370(17)
Co7_2 Co 0.273270(13) 0.00754(2) 0.306320(18)
C28_2 C 0.18452(12) 0.6424(2) 0.03123(15)
H15_2 H 0.1926 0.6052 0.0647
C29_2 C 0.14985(11) 0.6985(2) 0.01935(15)
H16_2 H 0.1349 0.6978 0.0457
N2_2 N 0.23958(10) 0.58197(18) 0.00119(12)
C47_2 C 0.13075(12) 0.9483(2) 0.34313(17)
H30_2 H 0.1508 0.9316 0.3852
C48_2 C 0.12993(12) 0.9087(2) 0.29061(16)
H31_2 H 0.1495 0.8640 0.2975
C49_2 C 0.10061(10) 0.93345(19) 0.22751(15)
C50_2 C 0.06888(12) 0.99955(19) 0.21588(16)
C52_2 C 0.03967(13) 0.9853(2) 0.10147(17)
C53_2 C 0.07116(13) 0.9209(2) 0.11042(16)
C54_2 C 0.10113(13) 0.8941(2) 0.17282(17)
H34_2 H 0.1215 0.8507 0.1790
C56_2 C 0.07331(13) 0.8812(2) 0.05370(17)
O11_2 O 0.05438(7) 0.91534(11) 0.00058(9)
O13_2 O 0.09483(8) 0.81900(13) 0.05849(10)
C1_2 C 0.06973(12) 0.9602(2) 0.77049(16)
H1_2 H 0.0493 0.9169 0.7643
C2_2 C 0.09986(11) 0.98408(19) 0.83131(15)
C7_2 C 0.03890(14) 0.9761(2) 0.65350(17)
H4_2 H 0.0180 0.9334 0.6466
H5_2 H 0.0191 0.9979 0.5596
C11_2 C 0.10221(10) 0.9370(2) 0.88892(15)
C13_2 C 0.24547(12) 0.59001(17) 0.62534(14)
C14_2 C 0.25370(10) 0.65456(16) 0.58721(13)
C15_2 C 0.23809(11) 0.64633(17) 0.52212(14)
H7_2 H 0.2258 0.5969 0.5022
C16_2 C 0.24039(10) 0.71288(17) 0.48398(13)
C17_2 C 0.22434(11) 0.70598(18) 0.41687(15)
H8_2 H 0.2116 0.6572 0.3962
C18_2 C 0.27274(10) 0.72945(17) 0.61858(14)
H9_2 H 0.2832 0.7348 0.6629
C19_2 C 0.13682(11) 0.4909(2) 0.62907(15)
C20_2 C 0.08538(11) 0.48133(19) 0.58377(14)
C21_2 C 0.06480(11) 0.4028(2) 0.57102(17)
H10_2 H 0.0831 0.3581 0.5925
C22_2 C 0.01829(11) 0.3926(2) 0.52733(17)
H11_2 H 0.0050 0.3410 0.5191
C24_2 C 0.05936(11) 0.5467(2) 0.55247(15)
H12_2 H 0.0734 0.5977 0.5610
C25_2 C 0.15956(11) 0.75445(19) 0.93655(15)
H13_2 H 0.1515 0.7936 0.9044
C26_2 C 0.19471(11) 0.70102(18) 0.94390(14)
H14_2 H 0.2095 0.7042 0.9174
C27_2 C 0.20798(10) 0.64143(19) 0.99223(14)
C30_2 C 0.20561(10) 0.51176(16) 0.80893(13)
H17_2 H 0.1757 0.4918 0.7811
C31_2 C 0.21422(10) 0.53338(17) 0.87114(13)
H18_2 H 0.1907 0.5290 0.8843
C32_2 C 0.25901(10) 0.56179(17) 0.91297(13)
C33_2 C 0.29283(10) 0.5690(2) 0.89035(14)
H19_2 H 0.3230 0.5885 0.9173
C34_2 C 0.28068(10) 0.54693(19) 0.82846(14)
H20_2 H 0.3033 0.5521 0.8138
C40_2 C 0.01690(13) 0.7140(3) 0.8604(2)
H25_2 H 0.0446 0.7017 0.8581
Co1_2 Co 0.080670(15) 0.82972(2) 0.957405(19)
Co2_2 Co 0.226730(13) 0.49246(2) 0.693680(18)
N1_2 N 0.13567(9) 0.75527(16) 0.97181(12)
N3_2 N 0.27139(9) 0.59023(17) 0.97511(12)
N4_2 N 0.23706(8) 0.51755(14) 0.78637(11)
N8_2 N 0.02027(10) 0.75962(17) 0.90894(14)
O1_2 O 0.08631(9) 0.86680(15) 0.87722(11)
O2_2 O 0.11853(10) 0.96803(18) 0.94333(12)
O5_2 O 0.26189(7) 0.59778(12) 0.68416(9)
O6_2 O 0.21794(9) 0.53290(14) 0.59937(11)
O7_2 O 0.15906(8) 0.55488(14) 0.62852(11)
O8_2 O 0.15953(8) 0.43407(15) 0.66621(12)
C57_2 C 0.25453(12) 0.90999(17) 0.37466(14)
C58_2 C 0.24630(10) 0.84544(16) 0.41279(13)
C59_2 C 0.26191(11) 0.85367(17) 0.47788(14)
H35_2 H 0.2742 0.9031 0.4978
C60_2 C 0.25961(10) 0.78712(17) 0.51602(13)
C61_2 C 0.27566(11) 0.79402(18) 0.58313(15)
H36_2 H 0.2884 0.8428 0.6038
C62_2 C 0.22726(10) 0.77055(17) 0.38142(14)
H37_2 H 0.2168 0.7652 0.3371
C67_2 C 0.01001(10) 0.53864(18) 0.50585(16)
C79_2 C 0.25816(10) 0.32648(17) 0.74231(15)
H49_2 H 0.2320 0.3310 0.7500
C80_2 C 0.28321(10) 0.25568(18) 0.75944(15)
H50_2 H 0.2733 0.2128 0.7763
C81_2 C 0.32396(10) 0.24870(16) 0.75128(14)
C82_2 C 0.33583(10) 0.31413(17) 0.72379(14)
H51_2 H 0.3623 0.3116 0.7167
C83_2 C 0.30785(10) 0.38292(17) 0.70709(14)
H52_2 H 0.3167 0.4263 0.6894
C84_2 C 0.51690(13) 0.2140(3) 0.8604(2)
H53_2 H 0.5446 0.2017 0.8581
C85_2 C 0.47531(12) 0.1835(2) 0.81309(19)
H54_2 H 0.4752 0.1524 0.7796
C86_2 C 0.43414(11) 0.19910(19) 0.81556(16)
C87_2 C 0.43727(12) 0.24413(19) 0.86723(17)
H55_2 H 0.4103 0.2550 0.8720
C88_2 C 0.48055(12) 0.2729(2) 0.91173(17)
H56_2 H 0.4818 0.3037 0.9460
Co5_2 Co 0.580670(15) 0.32972(2) 0.957405(19)
N14_2 N 0.26888(8) 0.39098(14) 0.71473(11)
N15_2 N 0.34962(10) 0.17909(15) 0.77079(15)
N16_2 N 0.39126(10) 0.17112(16) 0.76525(16)
N17_2 N 0.52027(10) 0.25962(17) 0.90894(14)
O15_2 O 0.23811(7) 0.90222(12) 0.31584(9)
O17_2 O 0.28206(9) 0.96710(14) 0.40063(11)
N13_2 N 0.73706(8) 0.01755(14) 0.78637(11)
O16_2 O 0.76189(7) 0.09778(12) 0.68416(9)
O18_2 O 0.71794(9) 0.03290(14) 0.59937(11)
O20_2 O 0.65906(8) 0.05488(14) 0.62852(11)
C23_2 C 0.98999(10) 0.46136(18) 0.49415(16)
C35_2 C 0.75816(10) 0.82648(17) 0.74231(15)
H21_2 H 0.7320 0.8310 0.7500
C36_2 C 0.78321(10) 0.75568(18) 0.75944(15)
H22_2 H 0.7733 0.7128 0.7763
C37_2 C 0.82396(10) 0.74870(16) 0.75128(14)
C38_2 C 0.83583(10) 0.81413(17) 0.72379(14)
H23_2 H 0.8623 0.8116 0.7167
C39_2 C 0.80785(10) 0.88292(17) 0.70709(14)
H24_2 H 0.8167 0.9263 0.6894
C41_2 C 0.97531(12) 0.6835(2) 0.81309(19)
H26_2 H 0.9752 0.6524 0.7796
C42_2 C 0.93414(11) 0.69910(19) 0.81556(16)
C43_2 C 0.93727(12) 0.74413(19) 0.86723(17)
H27_2 H 0.9103 0.7550 0.8720
C44_2 C 0.98055(12) 0.7729(2) 0.91173(17)
H28_2 H 0.9818 0.8037 0.9460
N5_2 N 0.76888(8) 0.89098(14) 0.71473(11)
N6_2 N 0.84962(10) 0.67909(15) 0.77079(15)
N7_2 N 0.89126(10) 0.67112(16) 0.76525(16)
C63_2 C 0.86318(11) 0.5091(2) 0.37093(15)
C64_2 C 0.91462(11) 0.51867(19) 0.41623(14)
C65_2 C 0.93520(11) 0.5972(2) 0.42898(17)
H38_2 H 0.9169 0.6419 0.4075
C66_2 C 0.98171(11) 0.6074(2) 0.47267(17)
H39_2 H 0.9950 0.6590 0.4809
C68_2 C 0.94064(11) 0.4533(2) 0.44753(15)
H40_2 H 0.9266 0.4023 0.4390
Co6_2 Co 0.726730(13) 0.99246(2) 0.693680(18)
O19_2 O 0.84094(8) 0.44512(14) 0.37148(11)
O21_2 O 0.84047(8) 0.56593(15) 0.33379(12)
O22_2 O 0.65953(8) 0.93407(15) 0.66621(12)
H45_3 H 0.3243 0.0082 0.2189
C16_3 C 0.25961(10) 0.21288(17) 0.01602(13)
C17_3 C 0.27566(11) 0.20598(18) 0.08313(15)
H8_3 H 0.2884 0.1572 0.1038
C57_3 C 0.24547(12) 0.40999(17) 0.12534(14)
C58_3 C 0.25370(10) 0.34544(16) 0.08721(13)
C59_3 C 0.23809(11) 0.35367(17) 0.02212(14)
H35_3 H 0.2258 0.4031 0.0022
C62_3 C 0.27274(10) 0.27055(17) 0.11858(14)
H37_3 H 0.2832 0.2652 0.1629
C63_3 C 0.63682(11) 0.0091(2) 0.12907(15)
C64_3 C 0.58538(11) 0.01867(19) 0.08377(14)
C65_3 C 0.56480(11) 0.0972(2) 0.07102(17)
H38_3 H 0.5831 0.1419 0.0925
C66_3 C 0.51829(11) 0.1074(2) 0.02733(17)
H39_3 H 0.5050 0.1590 0.0191
Co4_2 Co 0.419330(15) 0.67028(2) 0.042595(19)
O15_3 O 0.26189(7) 0.40222(12) 0.18416(9)
O17_3 O 0.21794(9) 0.46710(14) 0.09937(11)
O21_3 O 0.65953(8) 0.06593(15) 0.16621(12)
C1_3 C 0.43027(12) 0.4602(2) 0.72951(16)
H1_3 H 0.4507 0.4169 0.7357
C2_3 C 0.40014(11) 0.48408(19) 0.66869(15)
C3_3 C 0.36925(12) 0.5517(2) 0.65687(17)
H2_3 H 0.3492 0.5684 0.6148
C4_3 C 0.37007(12) 0.5913(2) 0.70939(16)
H3_3 H 0.3505 0.6360 0.7025
C5_3 C 0.39939(10) 0.56655(19) 0.77249(15)
C6_3 C 0.43112(12) 0.50045(19) 0.78412(16)
C7_3 C 0.46110(14) 0.4761(2) 0.84650(17)
H4_3 H 0.4820 0.4334 0.8534
C8_3 C 0.46033(13) 0.5147(2) 0.89853(17)
H5_3 H 0.4809 0.4979 0.9404
C9_3 C 0.42884(13) 0.5791(2) 0.88958(16)
C10_3 C 0.39887(13) 0.6059(2) 0.82718(17)
H6_3 H 0.3785 0.6493 0.8210
C11_3 C 0.39779(10) 0.4370(2) 0.61108(15)
C12_3 C 0.42669(13) 0.6188(2) 0.94630(17)
C13_3 C 0.25453(12) 0.09001(17) 0.87466(14)
C14_3 C 0.24630(10) 0.15456(16) 0.91279(13)
C15_3 C 0.26191(11) 0.14633(17) 0.97788(14)
H7_3 H 0.2742 0.0969 0.9978
C18_3 C 0.22726(10) 0.22945(17) 0.88142(14)
H9_3 H 0.2168 0.2348 0.8371
C24_3 C 0.44064(11) 0.0467(2) 0.94753(15)
H12_3 H 0.4266 0.0977 0.9390
C25_3 C 0.34044(11) 0.25445(19) 0.56345(15)
H13_3 H 0.3485 0.2936 0.5956
C26_3 C 0.30529(11) 0.20102(18) 0.55610(14)
H14_3 H 0.2905 0.2042 0.5826
C27_3 C 0.29202(10) 0.14143(19) 0.50777(14)
C28_3 C 0.31548(12) 0.1424(2) 0.46877(15)
H15_3 H 0.3074 0.1052 0.4353
C29_3 C 0.35015(11) 0.1985(2) 0.48065(15)
H16_3 H 0.3651 0.1978 0.4543
C30_3 C 0.29439(10) 0.01176(16) 0.69107(13)
C31_3 C 0.28578(10) 0.03338(17) 0.62886(13)
H18_3 H 0.3093 0.0290 0.6157
C32_3 C 0.24099(10) 0.06179(17) 0.58703(13)
C33_3 C 0.20717(10) 0.0690(2) 0.60965(14)
H19_3 H 0.1770 0.0885 0.5827
C34_3 C 0.21932(10) 0.04693(19) 0.67154(14)
H20_3 H 0.1967 0.0521 0.6862
N1_3 N 0.36433(9) 0.25527(16) 0.52819(12)
N2_3 N 0.26042(10) 0.08197(18) 0.49881(12)
N3_3 N 0.22861(9) 0.09023(17) 0.52489(12)
O1_3 O 0.41369(9) 0.36680(15) 0.62278(11)
O2_3 O 0.38147(10) 0.46803(18) 0.55667(12)
O3_2 O 0.44562(7) 0.58466(11) 0.99942(9)
O4_2 O 0.40517(8) 0.68100(13) 0.94151(10)
C45_3 C 0.43027(12) 0.5398(2) 0.22951(16)
H29_3 H 0.4507 0.5831 0.2357
C46_3 C 0.40014(11) 0.51592(19) 0.16869(15)
C47_3 C 0.36925(12) 0.4483(2) 0.15687(17)
H30_3 H 0.3492 0.4316 0.1148
C48_3 C 0.37007(12) 0.4087(2) 0.20939(16)
H31_3 H 0.3505 0.3640 0.2025
C49_3 C 0.39939(10) 0.43345(19) 0.27249(15)
C50_3 C 0.43112(12) 0.49955(19) 0.28412(16)
C51_3 C 0.46110(14) 0.5239(2) 0.34650(17)
H32_3 H 0.4820 0.5666 0.3534
C52_3 C 0.46033(13) 0.4853(2) 0.39853(17)
H33_3 H 0.4809 0.5021 0.4404
C53_3 C 0.42884(13) 0.4209(2) 0.38958(16)
C54_3 C 0.39887(13) 0.3941(2) 0.32718(17)
H34_3 H 0.3785 0.3507 0.3210
C55_3 C 0.39779(10) 0.5630(2) 0.11108(15)
C56_3 C 0.42669(13) 0.3812(2) 0.44630(17)
C60_3 C 0.24039(10) 0.28712(17) 0.98398(13)
C61_3 C 0.22434(11) 0.29402(18) 0.91687(15)
H36_3 H 0.2116 0.3428 0.8962
C67_3 C 0.48999(10) 0.03864(18) 0.99415(16)
C69_3 C 0.34044(11) 0.74555(19) 0.06345(15)
H41_3 H 0.3485 0.7064 0.0956
C70_3 C 0.30529(11) 0.79898(18) 0.05610(14)
H42_3 H 0.2905 0.7958 0.0826
C71_3 C 0.29202(10) 0.85857(19) 0.00777(14)
C74_3 C 0.29439(10) 0.98824(16) 0.19107(13)
C75_3 C 0.28578(10) 0.96662(17) 0.12886(13)
H46_3 H 0.3093 0.9710 0.1157
C76_3 C 0.24099(10) 0.93821(17) 0.08703(13)
C77_3 C 0.20717(10) 0.9310(2) 0.10965(14)
H47_3 H 0.1770 0.9115 0.0827
C78_3 C 0.21932(10) 0.95307(19) 0.17154(14)
H48_3 H 0.1967 0.9479 0.1862
N9_3 N 0.36433(9) 0.74473(16) 0.02819(12)
N11_3 N 0.22861(9) 0.90977(17) 0.02489(12)
N12_3 N 0.26294(8) 0.98245(14) 0.21363(11)
N18_3 N 0.47973(10) 0.74038(17) 0.09106(14)
O9_3 O 0.41369(9) 0.63320(15) 0.12278(11)
O10_3 O 0.38147(10) 0.53197(18) 0.05667(12)
O11_3 O 0.44562(7) 0.41534(11) 0.49942(9)
O13_3 O 0.40517(8) 0.31900(13) 0.44151(10)
C72_3 C 0.31548(12) 0.8576(2) 0.96877(15)
H43_3 H 0.3074 0.8948 0.9353
C73_3 C 0.35015(11) 0.8015(2) 0.98065(15)
H44_3 H 0.3651 0.8022 0.9543
N10_3 N 0.26042(10) 0.91803(18) 0.99881(12)
C23_3 C 0.51001(10) 0.96136(18) 0.00585(16)
C68_3 C 0.55936(11) 0.9533(2) 0.05247(15)
H40_3 H 0.5734 0.9023 0.0610
O19_3 O 0.65906(8) 0.94512(14) 0.12852(11)
C19_3 C 0.36318(11) 0.9909(2) 0.87093(15)
C20_3 C 0.41462(11) 0.98133(19) 0.91623(14)
C21_3 C 0.43520(11) 0.9028(2) 0.92898(17)
H10_3 H 0.4169 0.8581 0.9075
C22_3 C 0.48171(11) 0.8926(2) 0.97267(17)
H11_3 H 0.4950 0.8410 0.9809
H17_3 H 0.3243 0.9918 0.7189
H45_4 H 0.6757 0.0082 0.2811
C28_4 C 0.68452(12) 0.1424(2) 0.03123(15)
H15_4 H 0.6926 0.1052 0.0647
C29_4 C 0.64985(11) 0.1985(2) 0.01935(15)
H16_4 H 0.6349 0.1978 0.0457
N2_4 N 0.73958(10) 0.08197(18) 0.00119(12)
C45_4 C 0.56973(12) 0.5398(2) 0.27049(16)
H29_4 H 0.5493 0.5831 0.2643
C46_4 C 0.59986(11) 0.51592(19) 0.33131(15)
C47_4 C 0.63075(12) 0.4483(2) 0.34313(17)
H30_4 H 0.6508 0.4316 0.3852
C48_4 C 0.62993(12) 0.4087(2) 0.29061(16)
H31_4 H 0.6495 0.3640 0.2975
C49_4 C 0.60061(10) 0.43345(19) 0.22751(15)
C50_4 C 0.56888(12) 0.49955(19) 0.21588(16)
C51_4 C 0.53890(14) 0.5239(2) 0.15350(17)
H32_4 H 0.5180 0.5666 0.1466
C52_4 C 0.53967(13) 0.4853(2) 0.10147(17)
H33_4 H 0.5191 0.5021 0.0596
C53_4 C 0.57116(13) 0.4209(2) 0.11042(16)
C54_4 C 0.60113(13) 0.3941(2) 0.17282(17)
H34_4 H 0.6215 0.3507 0.1790
C55_4 C 0.60221(10) 0.5630(2) 0.38892(15)
C56_4 C 0.57331(13) 0.3812(2) 0.05370(17)
C69_4 C 0.65956(11) 0.74555(19) 0.43655(15)
H41_4 H 0.6515 0.7064 0.4044
C70_4 C 0.69471(11) 0.79898(18) 0.44390(14)
H42_4 H 0.7095 0.7958 0.4174
C71_4 C 0.70798(10) 0.85857(19) 0.49223(14)
C72_4 C 0.68452(12) 0.8576(2) 0.53123(15)
H43_4 H 0.6926 0.8948 0.5647
C73_4 C 0.64985(11) 0.8015(2) 0.51935(15)
H44_4 H 0.6349 0.8022 0.5457
C74_4 C 0.70561(10) 0.98824(16) 0.30893(13)
C75_4 C 0.71422(10) 0.96662(17) 0.37114(13)
H46_4 H 0.6907 0.9710 0.3843
C76_4 C 0.75901(10) 0.93821(17) 0.41297(13)
C77_4 C 0.79283(10) 0.9310(2) 0.39035(14)
H47_4 H 0.8230 0.9115 0.4173
C78_4 C 0.78068(10) 0.95307(19) 0.32846(14)
H48_4 H 0.8033 0.9479 0.3138
Co3_2 Co 0.580670(15) 0.67028(2) 0.457405(19)
N9_4 N 0.63567(9) 0.74473(16) 0.47181(12)
N10_4 N 0.73958(10) 0.91803(18) 0.50119(12)
N11_4 N 0.77139(9) 0.90977(17) 0.47511(12)
N12_4 N 0.73706(8) 0.98245(14) 0.28637(11)
N18_4 N 0.52027(10) 0.74038(17) 0.40894(14)
O9_4 O 0.58631(9) 0.63320(15) 0.37722(11)
O10_4 O 0.61853(10) 0.53197(18) 0.44333(12)
O11_4 O 0.55438(7) 0.41534(11) 0.00058(9)
O12_2 O 0.55438(7) 0.58466(11) 0.50058(9)
O13_4 O 0.59483(8) 0.31900(13) 0.05849(10)
O14_2 O 0.59483(8) 0.68100(13) 0.55849(10)
C1_4 C 0.56973(12) 0.4602(2) 0.77049(16)
H1_4 H 0.5493 0.4169 0.7643
C2_4 C 0.59986(11) 0.48408(19) 0.83131(15)
C3_4 C 0.63075(12) 0.5517(2) 0.84313(17)
H2_4 H 0.6508 0.5684 0.8852
C4_4 C 0.62993(12) 0.5913(2) 0.79061(16)
H3_4 H 0.6495 0.6360 0.7975
C5_4 C 0.60061(10) 0.56655(19) 0.72751(15)
C6_4 C 0.56888(12) 0.50045(19) 0.71588(16)
C7_4 C 0.53890(14) 0.4761(2) 0.65350(17)
H4_4 H 0.5180 0.4334 0.6466
C8_4 C 0.53967(13) 0.5147(2) 0.60147(17)
H5_4 H 0.5191 0.4979 0.5596
C9_4 C 0.57116(13) 0.5791(2) 0.61042(16)
C10_4 C 0.60113(13) 0.6059(2) 0.67282(17)
H6_4 H 0.6215 0.6493 0.6790
C11_4 C 0.60221(10) 0.4370(2) 0.88892(15)
C12_4 C 0.57331(13) 0.6188(2) 0.55370(17)
C13_4 C 0.74547(12) 0.09001(17) 0.62534(14)
C14_4 C 0.75370(10) 0.15456(16) 0.58721(13)
C15_4 C 0.73809(11) 0.14633(17) 0.52212(14)
H7_4 H 0.7258 0.0969 0.5022
C16_4 C 0.74039(10) 0.21288(17) 0.48398(13)
C17_4 C 0.72434(11) 0.20598(18) 0.41687(15)
H8_4 H 0.7116 0.1572 0.3962
C18_4 C 0.77274(10) 0.22945(17) 0.61858(14)
H9_4 H 0.7832 0.2348 0.6629
C24_4 C 0.55936(11) 0.0467(2) 0.55247(15)
H12_4 H 0.5734 0.0977 0.5610
C25_4 C 0.65956(11) 0.25445(19) 0.93655(15)
H13_4 H 0.6515 0.2936 0.9044
C26_4 C 0.69471(11) 0.20102(18) 0.94390(14)
H14_4 H 0.7095 0.2042 0.9174
C27_4 C 0.70798(10) 0.14143(19) 0.99223(14)
C30_4 C 0.70561(10) 0.01176(16) 0.80893(13)
C31_4 C 0.71422(10) 0.03338(17) 0.87114(13)
H18_4 H 0.6907 0.0290 0.8843
C32_4 C 0.75901(10) 0.06179(17) 0.91297(13)
C33_4 C 0.79283(10) 0.0690(2) 0.89035(14)
H19_4 H 0.8230 0.0885 0.9173
C34_4 C 0.78068(10) 0.04693(19) 0.82846(14)
H20_4 H 0.8033 0.0521 0.8138
N1_4 N 0.63567(9) 0.25527(16) 0.97181(12)
N3_4 N 0.77139(9) 0.09023(17) 0.97511(12)
O1_4 O 0.58631(9) 0.36680(15) 0.87722(11)
O2_4 O 0.61853(10) 0.46803(18) 0.94333(12)
C57_4 C 0.75453(12) 0.40999(17) 0.37466(14)
C58_4 C 0.74630(10) 0.34544(16) 0.41279(13)
C59_4 C 0.76191(11) 0.35367(17) 0.47788(14)
H35_4 H 0.7742 0.4031 0.4978
C60_4 C 0.75961(10) 0.28712(17) 0.51602(13)
C61_4 C 0.77566(11) 0.29402(18) 0.58313(15)
H36_4 H 0.7884 0.3428 0.6038
C62_4 C 0.72726(10) 0.27055(17) 0.38142(14)
H37_4 H 0.7168 0.2652 0.3371
C63_4 C 0.36318(11) 0.0091(2) 0.37093(15)
C64_4 C 0.41462(11) 0.01867(19) 0.41623(14)
C65_4 C 0.43520(11) 0.0972(2) 0.42898(17)
H38_4 H 0.4169 0.1419 0.4075
C66_4 C 0.48171(11) 0.1074(2) 0.47267(17)
H39_4 H 0.4950 0.1590 0.4809
C67_4 C 0.51001(10) 0.03864(18) 0.50585(16)
O15_4 O 0.73811(7) 0.40222(12) 0.31584(9)
O17_4 O 0.78206(9) 0.46710(14) 0.40063(11)
O21_4 O 0.34047(8) 0.06593(15) 0.33379(12)
C19_4 C 0.63682(11) 0.9909(2) 0.62907(15)
C20_4 C 0.58538(11) 0.98133(19) 0.58377(14)
C21_4 C 0.56480(11) 0.9028(2) 0.57102(17)
H10_4 H 0.5831 0.8581 0.5925
C22_4 C 0.51829(11) 0.8926(2) 0.52733(17)
H11_4 H 0.5050 0.8410 0.5191
C23_4 C 0.48999(10) 0.96136(18) 0.49415(16)
H17_4 H 0.6757 0.9918 0.7811
C68_4 C 0.44064(11) 0.9533(2) 0.44753(15)
H40_4 H 0.4266 0.9023 0.4390
O19_4 O 0.34094(8) 0.94512(14) 0.37148(11)
C40_3 C 0.01690(13) 0.2860(3) 0.3604(2)
H25_3 H 0.0446 0.2983 0.3581
C79_3 C 0.25816(10) 0.67352(17) 0.24231(15)
H49_3 H 0.2320 0.6690 0.2500
C80_3 C 0.28321(10) 0.74432(18) 0.25944(15)
H50_3 H 0.2733 0.7872 0.2763
C81_3 C 0.32396(10) 0.75130(16) 0.25128(14)
C82_3 C 0.33583(10) 0.68587(17) 0.22379(14)
H51_3 H 0.3623 0.6884 0.2167
C83_3 C 0.30785(10) 0.61708(17) 0.20709(14)
H52_3 H 0.3167 0.5737 0.1894
C84_3 C 0.51690(13) 0.7860(3) 0.3604(2)
H53_3 H 0.5446 0.7983 0.3581
C85_3 C 0.47531(12) 0.8165(2) 0.31309(19)
H54_3 H 0.4752 0.8476 0.2796
C86_3 C 0.43414(11) 0.80090(19) 0.31556(16)
C87_3 C 0.43727(12) 0.75587(19) 0.36723(17)
H55_3 H 0.4103 0.7450 0.3720
C88_3 C 0.48055(12) 0.7271(2) 0.41173(17)
H56_3 H 0.4818 0.6963 0.4460
N14_3 N 0.26888(8) 0.60902(14) 0.21473(11)
N15_3 N 0.34962(10) 0.82091(15) 0.27079(15)
N16_3 N 0.39126(10) 0.82888(16) 0.26525(16)
C35_3 C 0.75816(10) 0.17352(17) 0.24231(15)
H21_3 H 0.7320 0.1690 0.2500
C36_3 C 0.78321(10) 0.24432(18) 0.25944(15)
H22_3 H 0.7733 0.2872 0.2763
C37_3 C 0.82396(10) 0.25130(16) 0.25128(14)
C38_3 C 0.83583(10) 0.18587(17) 0.22379(14)
H23_3 H 0.8623 0.1884 0.2167
C39_3 C 0.80785(10) 0.11708(17) 0.20709(14)
H24_3 H 0.8167 0.0737 0.1894
C41_3 C 0.97531(12) 0.3165(2) 0.31309(19)
H26_3 H 0.9752 0.3476 0.2796
C42_3 C 0.93414(11) 0.30090(19) 0.31556(16)
C43_3 C 0.93727(12) 0.25587(19) 0.36723(17)
H27_3 H 0.9103 0.2450 0.3720
C44_3 C 0.98055(12) 0.2271(2) 0.41173(17)
H28_3 H 0.9818 0.1963 0.4460
N5_3 N 0.76888(8) 0.10902(14) 0.21473(11)
N6_3 N 0.84962(10) 0.32091(15) 0.27079(15)
N7_3 N 0.89126(10) 0.32888(16) 0.26525(16)
C35_4 C 0.24184(10) 0.17352(17) 0.25769(15)
H21_4 H 0.2680 0.1690 0.2500
C36_4 C 0.21679(10) 0.24432(18) 0.24056(15)
H22_4 H 0.2267 0.2872 0.2237
C37_4 C 0.17604(10) 0.25130(16) 0.24872(14)
C38_4 C 0.16417(10) 0.18587(17) 0.27621(14)
H23_4 H 0.1377 0.1884 0.2833
C39_4 C 0.19215(10) 0.11708(17) 0.29291(14)
H24_4 H 0.1833 0.0737 0.3106
C41_4 C 0.02469(12) 0.3165(2) 0.18691(19)
H26_4 H 0.0248 0.3476 0.2204
C42_4 C 0.06586(11) 0.30090(19) 0.18444(16)
C43_4 C 0.06273(12) 0.25587(19) 0.13277(17)
H27_4 H 0.0897 0.2450 0.1280
C44_4 C 0.01945(12) 0.2271(2) 0.08827(17)
H28_4 H 0.0182 0.1963 0.0540
N5_4 N 0.23112(8) 0.10902(14) 0.28527(11)
N6_4 N 0.15038(10) 0.32091(15) 0.22921(15)
N7_4 N 0.10874(10) 0.32888(16) 0.23475(16)
C40_4 C 0.98310(13) 0.2860(3) 0.1396(2)
H25_4 H 0.9554 0.2983 0.1419
C79_4 C 0.74184(10) 0.67352(17) 0.25769(15)
H49_4 H 0.7680 0.6690 0.2500
C80_4 C 0.71679(10) 0.74432(18) 0.24056(15)
H50_4 H 0.7267 0.7872 0.2237
C81_4 C 0.67604(10) 0.75130(16) 0.24872(14)
C82_4 C 0.66417(10) 0.68587(17) 0.27621(14)
H51_4 H 0.6377 0.6884 0.2833
C83_4 C 0.69215(10) 0.61708(17) 0.29291(14)
H52_4 H 0.6833 0.5737 0.3106
C84_4 C 0.48310(13) 0.7860(3) 0.1396(2)
H53_4 H 0.4554 0.7983 0.1419
C85_4 C 0.52469(12) 0.8165(2) 0.18691(19)
H54_4 H 0.5248 0.8476 0.2204
C86_4 C 0.56586(11) 0.80090(19) 0.18444(16)
C87_4 C 0.56273(12) 0.75587(19) 0.13277(17)
H55_4 H 0.5897 0.7450 0.1280
C88_4 C 0.51945(12) 0.7271(2) 0.08827(17)
H56_4 H 0.5182 0.6963 0.0540
N14_4 N 0.73112(8) 0.60902(14) 0.28527(11)
N15_4 N 0.65038(10) 0.82091(15) 0.22921(15)
N16_4 N 0.60874(10) 0.82888(16) 0.23475(16)
loop_
_geom_bond_atom_site_label_1
_geom_bond_atom_site_label_2
_geom_bond_site_symmetry_1
_geom_bond_site_symmetry_2
C63 C64 1_555 1_555
C64 C65 1_555 1_555
C65 H38 1_555 1_555
C66 C65 1_555 1_555
H39 C66 1_555 1_555
C68 C23 1_555 1_555
H40 C68 1_555 1_555
Co8 O19 1_555 1_555
O19 C63 1_555 1_555
O21 C63 1_555 1_555
C64 C68 1_555 1_555
Co8 O21 1_555 1_555
C35 H21 1_555 1_555
C36 C35 1_555 1_555
H22 C36 1_555 1_555
C37 C36 1_555 1_555
C38 C37 1_555 1_555
H23 C38 1_555 1_555
C39 C38 1_555 1_555
H24 C39 1_555 1_555
H26 C41 1_555 1_555
C42 C41 1_555 1_555
C43 C42 1_555 1_555
H27 C43 1_555 1_555
C44 C43 1_555 1_555
H28 C44 1_555 1_555
N5 C35 1_555 1_555
N6 C37 1_555 1_555
N7 C42 1_555 1_555
Co6 N5 1_555 1_555
O22 Co6 1_555 1_555
C39 N5 1_555 1_555
N6 N7 1_555 1_555
H2 C3 1_555 1_555
C4 C3 1_555 1_555
H3 C4 1_555 1_555
C5 C4 1_555 1_555
C9 C8 1_555 1_555
C10 C5 1_555 1_555
H6 C10 1_555 1_555
C12 C9 1_555 1_555
O3 C12 1_555 1_555
O4 C12 1_555 1_555
C45 H29 1_555 1_555
C46 C45 1_555 1_555
H32 C51 1_555 1_555
C55 C46 1_555 1_555
C69 H41 1_555 1_555
C70 C69 1_555 1_555
H42 C70 1_555 1_555
C71 C70 1_555 1_555
C74 H45 1_555 1_555
C75 C74 1_555 1_555
H46 C75 1_555 1_555
C76 C75 1_555 1_555
C77 C76 1_555 1_555
H47 C77 1_555 1_555
C78 C77 1_555 1_555
H48 C78 1_555 1_555
Co4 N9 1_555 1_555
Co9 N12 1_555 1_555
N9 C69 1_555 1_555
N11 C76 1_555 1_555
N12 C74 1_555 1_555
N18 Co4 1_555 1_555
O9 C55 1_555 1_555
O10 C55 1_555 1_555
C5 C6 1_555 1_555
C9 C10 1_555 1_555
C78 N12 1_555 1_555
Co4 O9 1_555 1_555
H43 C72 1_555 1_555
C73 C72 1_555 1_555
H44 C73 1_555 1_555
C17 C16 1_555 1_555
H8 C17 1_555 1_555
C57 C58 1_555 1_555
C58 C59 1_555 1_555
C59 H35 1_555 1_555
C62 C17 1_555 1_555
H37 C62 1_555 1_555
O15 C57 1_555 1_555
O17 C57 1_555 1_555
C58 C62 1_555 1_555
C1 H1 1_555 1_555
C2 C1 1_555 1_555
H4 C7 1_555 1_555
C11 C2 1_555 1_555
C13 C14 1_555 1_555
C14 C15 1_555 1_555
C15 H7 1_555 1_555
C18 C14 1_555 1_555
H9 C18 1_555 1_555
C19 C20 1_555 1_555
C20 C21 1_555 1_555
C21 H10 1_555 1_555
C22 C21 1_555 1_555
H11 C22 1_555 1_555
C24 C20 1_555 1_555
H12 C24 1_555 1_555
C25 H13 1_555 1_555
C26 C25 1_555 1_555
H14 C26 1_555 1_555
C27 C26 1_555 1_555
C28 C27 1_555 1_555
H15 C28 1_555 1_555
C29 C28 1_555 1_555
H16 C29 1_555 1_555
C30 H17 1_555 1_555
C31 C30 1_555 1_555
H18 C31 1_555 1_555
C32 C31 1_555 1_555
C33 C32 1_555 1_555
H19 C33 1_555 1_555
C34 C33 1_555 1_555
H20 C34 1_555 1_555
C40 H25 1_555 1_555
Co1 N1 1_555 1_555
Co2 N4 1_555 1_555
N1 C25 1_555 1_555
N2 C27 1_555 1_555
N3 C32 1_555 1_555
N4 C30 1_555 1_555
N8 C40 1_555 1_555
O1 C11 1_555 1_555
O2 C11 1_555 1_555
O5 C13 1_555 1_555
O6 C13 1_555 1_555
O7 C19 1_555 1_555
O8 C19 1_555 1_555
H30 C47 1_555 1_555
C48 C47 1_555 1_555
H31 C48 1_555 1_555
C49 C48 1_555 1_555
C53 C52 1_555 1_555
C54 C49 1_555 1_555
H34 C54 1_555 1_555
C56 C53 1_555 1_555
C61 C18 1_555 1_555
H36 C61 1_555 1_555
C79 H49 1_555 1_555
C80 C79 1_555 1_555
H50 C80 1_555 1_555
C81 C80 1_555 1_555
C82 C81 1_555 1_555
H51 C82 1_555 1_555
C83 C82 1_555 1_555
H52 C83 1_555 1_555
C84 H53 1_555 1_555
C85 C84 1_555 1_555
H54 C85 1_555 1_555
C86 C85 1_555 1_555
C87 C86 1_555 1_555
H55 C87 1_555 1_555
C88 C87 1_555 1_555
H56 C88 1_555 1_555
Co5 N17 1_555 1_555
N14 Co2 1_555 1_555
N15 C81 1_555 1_555
N16 C86 1_555 1_555
N17 C84 1_555 1_555
O11 Co1 1_555 1_555
O13 Co1 1_555 1_555
C24 C67 1_555 1_555
C29 N1 1_555 1_555
C34 N4 1_555 1_555
Co1 N8 1_555 1_555
Co1 O1 1_555 1_555
Co2 O5 1_555 1_555
Co2 O6 1_555 1_555
Co2 O7 1_555 1_555
Co2 O8 1_555 1_555
N2 N3 1_555 1_555
C49 C50 1_555 1_555
C53 C54 1_555 1_555
C56 O11 1_555 1_555
C56 O13 1_555 1_555
C60 C61 1_555 1_555
C79 N14 1_555 1_555
C83 N14 1_555 1_555
C88 N17 1_555 1_555
N15 N16 1_555 1_555
C45_2 H29_2 1_555 1_555
C46_2 C45_2 1_555 1_555
H32_2 C51_2 1_555 1_555
C55_2 C46_2 1_555 1_555
C69_2 H41_2 1_555 1_555
C70_2 C69_2 1_555 1_555
H42_2 C70_2 1_555 1_555
C71_2 C70_2 1_555 1_555
C72_2 C71_2 1_555 1_555
H43_2 C72_2 1_555 1_555
C73_2 C72_2 1_555 1_555
H44_2 C73_2 1_555 1_555
C74_2 H45_2 1_555 1_555
C75_2 C74_2 1_555 1_555
H46_2 C75_2 1_555 1_555
C76_2 C75_2 1_555 1_555
C77_2 C76_2 1_555 1_555
H47_2 C77_2 1_555 1_555
C78_2 C77_2 1_555 1_555
H48_2 C78_2 1_555 1_555
Co3 N9_2 1_555 1_555
Co8 N12_2 1_555 1_555
N9_2 C69_2 1_555 1_555
N10_2 C71_2 1_555 1_555
N11_2 C76_2 1_555 1_555
N12_2 C74_2 1_555 1_555
N18_2 Co3 1_555 1_555
O9_2 C55_2 1_555 1_555
O10_2 C55_2 1_555 1_555
O12 Co3 1_555 1_555
O14 Co3 1_555 1_555
C73_2 N9_2 1_555 1_555
C78_2 N12_2 1_555 1_555
Co3 O9_2 1_555 1_555
N10_2 N11_2 1_555 1_555
H2_2 C3_2 1_555 1_555
C4_2 C3_2 1_555 1_555
H3_2 C4_2 1_555 1_555
C5_2 C4_2 1_555 1_555
C9_2 C8_2 1_555 1_555
C10_2 C5_2 1_555 1_555
H6_2 C10_2 1_555 1_555
C12_2 C9_2 1_555 1_555
O12 C12_2 1_555 1_555
O14 C12_2 1_555 1_555
C5_2 C6_2 1_555 1_555
C9_2 C10_2 1_555 1_555
H15_2 C28_2 1_555 1_555
C29_2 C28_2 1_555 1_555
H16_2 C29_2 1_555 1_555
H30_2 C47_2 1_555 1_555
C48_2 C47_2 1_555 1_555
H31_2 C48_2 1_555 1_555
C49_2 C48_2 1_555 1_555
C53_2 C52_2 1_555 1_555
C54_2 C49_2 1_555 1_555
H34_2 C54_2 1_555 1_555
C56_2 C53_2 1_555 1_555
C49_2 C50_2 1_555 1_555
C53_2 C54_2 1_555 1_555
C56_2 O11_2 1_555 1_555
C56_2 O13_2 1_555 1_555
C1_2 H1_2 1_555 1_555
C2_2 C1_2 1_555 1_555
H4_2 C7_2 1_555 1_555
C11_2 C2_2 1_555 1_555
C13_2 C14_2 1_555 1_555
C14_2 C15_2 1_555 1_555
C15_2 H7_2 1_555 1_555
C16_2 C15_2 1_555 1_555
C17_2 C16_2 1_555 1_555
H8_2 C17_2 1_555 1_555
C18_2 C14_2 1_555 1_555
H9_2 C18_2 1_555 1_555
C19_2 C20_2 1_555 1_555
C20_2 C21_2 1_555 1_555
C21_2 H10_2 1_555 1_555
C22_2 C21_2 1_555 1_555
H11_2 C22_2 1_555 1_555
C24_2 C20_2 1_555 1_555
H12_2 C24_2 1_555 1_555
C25_2 H13_2 1_555 1_555
C26_2 C25_2 1_555 1_555
H14_2 C26_2 1_555 1_555
C27_2 C26_2 1_555 1_555
C30_2 H17_2 1_555 1_555
C31_2 C30_2 1_555 1_555
H18_2 C31_2 1_555 1_555
C32_2 C31_2 1_555 1_555
C33_2 C32_2 1_555 1_555
H19_2 C33_2 1_555 1_555
C34_2 C33_2 1_555 1_555
H20_2 C34_2 1_555 1_555
C40_2 H25_2 1_555 1_555
Co1_2 N1_2 1_555 1_555
Co2_2 N4_2 1_555 1_555
N1_2 C25_2 1_555 1_555
N3_2 C32_2 1_555 1_555
N4_2 C30_2 1_555 1_555
N8_2 C40_2 1_555 1_555
O1_2 C11_2 1_555 1_555
O2_2 C11_2 1_555 1_555
O5_2 C13_2 1_555 1_555
O6_2 C13_2 1_555 1_555
O7_2 C19_2 1_555 1_555
O8_2 C19_2 1_555 1_555
C57_2 C58_2 1_555 1_555
C58_2 C59_2 1_555 1_555
C59_2 H35_2 1_555 1_555
C60_2 C16_2 1_555 1_555
C61_2 C18_2 1_555 1_555
H36_2 C61_2 1_555 1_555
C62_2 C17_2 1_555 1_555
H37_2 C62_2 1_555 1_555
C79_2 H49_2 1_555 1_555
C80_2 C79_2 1_555 1_555
H50_2 C80_2 1_555 1_555
C81_2 C80_2 1_555 1_555
C82_2 C81_2 1_555 1_555
H51_2 C82_2 1_555 1_555
C83_2 C82_2 1_555 1_555
H52_2 C83_2 1_555 1_555
C84_2 H53_2 1_555 1_555
C85_2 C84_2 1_555 1_555
H54_2 C85_2 1_555 1_555
C86_2 C85_2 1_555 1_555
C87_2 C86_2 1_555 1_555
H55_2 C87_2 1_555 1_555
C88_2 C87_2 1_555 1_555
H56_2 C88_2 1_555 1_555
Co5_2 N17_2 1_555 1_555
N14_2 Co2_2 1_555 1_555
N15_2 C81_2 1_555 1_555
N16_2 C86_2 1_555 1_555
N17_2 C84_2 1_555 1_555
O15_2 C57_2 1_555 1_555
O17_2 C57_2 1_555 1_555
C24_2 C67_2 1_555 1_555
C34_2 N4_2 1_555 1_555
Co1_2 N8_2 1_555 1_555
Co1_2 O1_2 1_555 1_555
Co2_2 O5_2 1_555 1_555
Co2_2 O6_2 1_555 1_555
Co2_2 O7_2 1_555 1_555
Co2_2 O8_2 1_555 1_555
C58_2 C62_2 1_555 1_555
C59_2 C60_2 1_555 1_555
C60_2 C61_2 1_555 1_555
C79_2 N14_2 1_555 1_555
C83_2 N14_2 1_555 1_555
C88_2 N17_2 1_555 1_555
N15_2 N16_2 1_555 1_555
C35_2 H21_2 1_555 1_555
C36_2 C35_2 1_555 1_555
H22_2 C36_2 1_555 1_555
C37_2 C36_2 1_555 1_555
C38_2 C37_2 1_555 1_555
H23_2 C38_2 1_555 1_555
C39_2 C38_2 1_555 1_555
H24_2 C39_2 1_555 1_555
H26_2 C41_2 1_555 1_555
C42_2 C41_2 1_555 1_555
C43_2 C42_2 1_555 1_555
H27_2 C43_2 1_555 1_555
C44_2 C43_2 1_555 1_555
H28_2 C44_2 1_555 1_555
N5_2 C35_2 1_555 1_555
N6_2 C37_2 1_555 1_555
N7_2 C42_2 1_555 1_555
C63_2 C64_2 1_555 1_555
C64_2 C65_2 1_555 1_555
C65_2 H38_2 1_555 1_555
C66_2 C65_2 1_555 1_555
H39_2 C66_2 1_555 1_555
C68_2 C23_2 1_555 1_555
H40_2 C68_2 1_555 1_555
Co6_2 N5_2 1_555 1_555
Co9 O19_2 1_555 1_555
O19_2 C63_2 1_555 1_555
O21_2 C63_2 1_555 1_555
O22_2 Co6_2 1_555 1_555
C39_2 N5_2 1_555 1_555
N6_2 N7_2 1_555 1_555
C64_2 C68_2 1_555 1_555
Co9 O21_2 1_555 1_555
C17_3 C16_3 1_555 1_555
H8_3 C17_3 1_555 1_555
C57_3 C58_3 1_555 1_555
C58_3 C59_3 1_555 1_555
C59_3 H35_3 1_555 1_555
C62_3 C17_3 1_555 1_555
H37_3 C62_3 1_555 1_555
C63_3 C64_3 1_555 1_555
C64_3 C65_3 1_555 1_555
C65_3 H38_3 1_555 1_555
C66_3 C65_3 1_555 1_555
H39_3 C66_3 1_555 1_555
Co8 O15_3 1_555 1_555
O15_3 C57_3 1_555 1_555
O17_3 C57_3 1_555 1_555
O21_3 C63_3 1_555 1_555
C58_3 C62_3 1_555 1_555
Co8 O17_3 1_555 1_555
Co7 O21_3 1_555 1_555
C1_3 H1_3 1_555 1_555
C2_3 C1_3 1_555 1_555
C3_3 C2_3 1_555 1_555
H2_3 C3_3 1_555 1_555
C4_3 C3_3 1_555 1_555
H3_3 C4_3 1_555 1_555
C5_3 C4_3 1_555 1_555
C6_3 C1_3 1_555 1_555
C7_3 C6_3 1_555 1_555
H4_3 C7_3 1_555 1_555
C8_3 C7_3 1_555 1_555
H5_3 C8_3 1_555 1_555
C9_3 C8_3 1_555 1_555
C10_3 C5_3 1_555 1_555
H6_3 C10_3 1_555 1_555
C11_3 C2_3 1_555 1_555
C12_3 C9_3 1_555 1_555
C13_3 C14_3 1_555 1_555
C14_3 C15_3 1_555 1_555
C15_3 H7_3 1_555 1_555
C18_3 C14_3 1_555 1_555
H9_3 C18_3 1_555 1_555
H12_3 C24_3 1_555 1_555
C25_3 H13_3 1_555 1_555
C26_3 C25_3 1_555 1_555
H14_3 C26_3 1_555 1_555
C27_3 C26_3 1_555 1_555
C28_3 C27_3 1_555 1_555
H15_3 C28_3 1_555 1_555
C29_3 C28_3 1_555 1_555
H16_3 C29_3 1_555 1_555
C31_3 C30_3 1_555 1_555
H18_3 C31_3 1_555 1_555
C32_3 C31_3 1_555 1_555
C33_3 C32_3 1_555 1_555
H19_3 C33_3 1_555 1_555
C34_3 C33_3 1_555 1_555
H20_3 C34_3 1_555 1_555
Co5 N1_3 1_555 1_555
N1_3 C25_3 1_555 1_555
N2_3 C27_3 1_555 1_555
N3_3 C32_3 1_555 1_555
N13 C30_3 1_555 1_555
O1_3 C11_3 1_555 1_555
O2_3 C11_3 1_555 1_555
O3_2 C12_3 1_555 1_555
O4_2 C12_3 1_555 1_555
O16 C13_3 1_555 1_555
O18 C13_3 1_555 1_555
C45_3 H29_3 1_555 1_555
C46_3 C45_3 1_555 1_555
C47_3 C46_3 1_555 1_555
H30_3 C47_3 1_555 1_555
C48_3 C47_3 1_555 1_555
H31_3 C48_3 1_555 1_555
C49_3 C48_3 1_555 1_555
C50_3 C45_3 1_555 1_555
C51_3 C50_3 1_555 1_555
H32_3 C51_3 1_555 1_555
C52_3 C51_3 1_555 1_555
H33_3 C52_3 1_555 1_555
C53_3 C52_3 1_555 1_555
C54_3 C49_3 1_555 1_555
H34_3 C54_3 1_555 1_555
C55_3 C46_3 1_555 1_555
C56_3 C53_3 1_555 1_555
C61_3 C18_3 1_555 1_555
H36_3 C61_3 1_555 1_555
C69_3 H41_3 1_555 1_555
C70_3 C69_3 1_555 1_555
H42_3 C70_3 1_555 1_555
C71_3 C70_3 1_555 1_555
C75_3 C74_3 1_555 1_555
H46_3 C75_3 1_555 1_555
C76_3 C75_3 1_555 1_555
C77_3 C76_3 1_555 1_555
H47_3 C77_3 1_555 1_555
C78_3 C77_3 1_555 1_555
H48_3 C78_3 1_555 1_555
Co4_2 N9_3 1_555 1_555
N9_3 C69_3 1_555 1_555
N11_3 C76_3 1_555 1_555
N12_3 C74_3 1_555 1_555
N18_3 Co4_2 1_555 1_555
O9_3 C55_3 1_555 1_555
O10_3 C55_3 1_555 1_555
O11_3 Co5 1_555 1_555
O13_3 Co5 1_555 1_555
C5_3 C6_3 1_555 1_555
C9_3 C10_3 1_555 1_555
C24_3 C67_3 1_555 1_555
C29_3 N1_3 1_555 1_555
C34_3 N13 1_555 1_555
Co5 O1_3 1_555 1_555
N2_3 N3_3 1_555 1_555
C49_3 C50_3 1_555 1_555
C53_3 C54_3 1_555 1_555
C56_3 O11_3 1_555 1_555
C56_3 O13_3 1_555 1_555
C60_3 C61_3 1_555 1_555
C78_3 N12_3 1_555 1_555
Co4_2 O9_3 1_555 1_555
H43_3 C72_3 1_555 1_555
C73_3 C72_3 1_555 1_555
H44_3 C73_3 1_555 1_555
C68_3 C23_3 1_555 1_555
H40_3 C68_3 1_555 1_555
C19_3 C20_3 1_555 1_555
C20_3 C21_3 1_555 1_555
C21_3 H10_3 1_555 1_555
C22_3 C21_3 1_555 1_555
H11_3 C22_3 1_555 1_555
O22 C19_3 1_555 1_555
H15_4 C28_4 1_555 1_555
C29_4 C28_4 1_555 1_555
H16_4 C29_4 1_555 1_555
C45_4 H29_4 1_555 1_555
C46_4 C45_4 1_555 1_555
C47_4 C46_4 1_555 1_555
H30_4 C47_4 1_555 1_555
C48_4 C47_4 1_555 1_555
H31_4 C48_4 1_555 1_555
C49_4 C48_4 1_555 1_555
C50_4 C45_4 1_555 1_555
C51_4 C50_4 1_555 1_555
H32_4 C51_4 1_555 1_555
C52_4 C51_4 1_555 1_555
H33_4 C52_4 1_555 1_555
C53_4 C52_4 1_555 1_555
C54_4 C49_4 1_555 1_555
H34_4 C54_4 1_555 1_555
C55_4 C46_4 1_555 1_555
C56_4 C53_4 1_555 1_555
C69_4 H41_4 1_555 1_555
C70_4 C69_4 1_555 1_555
H42_4 C70_4 1_555 1_555
C71_4 C70_4 1_555 1_555
C72_4 C71_4 1_555 1_555
H43_4 C72_4 1_555 1_555
C73_4 C72_4 1_555 1_555
H44_4 C73_4 1_555 1_555
C75_4 C74_4 1_555 1_555
H46_4 C75_4 1_555 1_555
C76_4 C75_4 1_555 1_555
C77_4 C76_4 1_555 1_555
H47_4 C77_4 1_555 1_555
C78_4 C77_4 1_555 1_555
H48_4 C78_4 1_555 1_555
Co3_2 N9_4 1_555 1_555
N9_4 C69_4 1_555 1_555
N10_4 C71_4 1_555 1_555
N11_4 C76_4 1_555 1_555
N12_4 C74_4 1_555 1_555
N18_4 Co3_2 1_555 1_555
O9_4 C55_4 1_555 1_555
O10_4 C55_4 1_555 1_555
O12_2 Co3_2 1_555 1_555
O14_2 Co3_2 1_555 1_555
C49_4 C50_4 1_555 1_555
C53_4 C54_4 1_555 1_555
C56_4 O11_4 1_555 1_555
C56_4 O13_4 1_555 1_555
C73_4 N9_4 1_555 1_555
C78_4 N12_4 1_555 1_555
Co3_2 O9_4 1_555 1_555
N10_4 N11_4 1_555 1_555
C1_4 H1_4 1_555 1_555
C2_4 C1_4 1_555 1_555
C3_4 C2_4 1_555 1_555
H2_4 C3_4 1_555 1_555
C4_4 C3_4 1_555 1_555
H3_4 C4_4 1_555 1_555
C5_4 C4_4 1_555 1_555
C6_4 C1_4 1_555 1_555
C7_4 C6_4 1_555 1_555
H4_4 C7_4 1_555 1_555
C8_4 C7_4 1_555 1_555
H5_4 C8_4 1_555 1_555
C9_4 C8_4 1_555 1_555
C10_4 C5_4 1_555 1_555
H6_4 C10_4 1_555 1_555
C11_4 C2_4 1_555 1_555
C12_4 C9_4 1_555 1_555
C13_4 C14_4 1_555 1_555
C14_4 C15_4 1_555 1_555
C15_4 H7_4 1_555 1_555
C16_4 C15_4 1_555 1_555
C17_4 C16_4 1_555 1_555
H8_4 C17_4 1_555 1_555
C18_4 C14_4 1_555 1_555
H9_4 C18_4 1_555 1_555
H12_4 C24_4 1_555 1_555
C25_4 H13_4 1_555 1_555
C26_4 C25_4 1_555 1_555
H14_4 C26_4 1_555 1_555
C27_4 C26_4 1_555 1_555
C31_4 C30_4 1_555 1_555
H18_4 C31_4 1_555 1_555
C32_4 C31_4 1_555 1_555
C33_4 C32_4 1_555 1_555
H19_4 C33_4 1_555 1_555
C34_4 C33_4 1_555 1_555
H20_4 C34_4 1_555 1_555
Co5_2 N1_4 1_555 1_555
N1_4 C25_4 1_555 1_555
N3_4 C32_4 1_555 1_555
N13_2 C30_4 1_555 1_555
O1_4 C11_4 1_555 1_555
O2_4 C11_4 1_555 1_555
O12_2 C12_4 1_555 1_555
O14_2 C12_4 1_555 1_555
O16_2 C13_4 1_555 1_555
O18_2 C13_4 1_555 1_555
C57_4 C58_4 1_555 1_555
C58_4 C59_4 1_555 1_555
C59_4 H35_4 1_555 1_555
C60_4 C16_4 1_555 1_555
C61_4 C18_4 1_555 1_555
H36_4 C61_4 1_555 1_555
C62_4 C17_4 1_555 1_555
H37_4 C62_4 1_555 1_555
C63_4 C64_4 1_555 1_555
C64_4 C65_4 1_555 1_555
C65_4 H38_4 1_555 1_555
C66_4 C65_4 1_555 1_555
H39_4 C66_4 1_555 1_555
Co9 O15_4 1_555 1_555
O15_4 C57_4 1_555 1_555
O17_4 C57_4 1_555 1_555
O21_4 C63_4 1_555 1_555
C5_4 C6_4 1_555 1_555
C9_4 C10_4 1_555 1_555
C24_4 C67_4 1_555 1_555
C34_4 N13_2 1_555 1_555
Co5_2 O1_4 1_555 1_555
C58_4 C62_4 1_555 1_555
C59_4 C60_4 1_555 1_555
C60_4 C61_4 1_555 1_555
C66_4 C67_4 1_555 1_555
Co9 O17_4 1_555 1_555
Co7_2 O21_4 1_555 1_555
C19_4 C20_4 1_555 1_555
C20_4 C21_4 1_555 1_555
C21_4 H10_4 1_555 1_555
C22_4 C21_4 1_555 1_555
H11_4 C22_4 1_555 1_555
C23_4 C22_4 1_555 1_555
O22_2 C19_4 1_555 1_555
C68_4 C23_4 1_555 1_555
H40_4 C68_4 1_555 1_555
C40_3 H25_3 1_555 1_555
N18_2 C40_3 1_555 1_555
C79_3 H49_3 1_555 1_555
C80_3 C79_3 1_555 1_555
H50_3 C80_3 1_555 1_555
C81_3 C80_3 1_555 1_555
C82_3 C81_3 1_555 1_555
H51_3 C82_3 1_555 1_555
C83_3 C82_3 1_555 1_555
H52_3 C83_3 1_555 1_555
C84_3 H53_3 1_555 1_555
C85_3 C84_3 1_555 1_555
H54_3 C85_3 1_555 1_555
C86_3 C85_3 1_555 1_555
C87_3 C86_3 1_555 1_555
H55_3 C87_3 1_555 1_555
C88_3 C87_3 1_555 1_555
H56_3 C88_3 1_555 1_555
N14_3 Co8 1_555 1_555
N15_3 C81_3 1_555 1_555
N16_3 C86_3 1_555 1_555
N18_4 C84_3 1_555 1_555
C79_3 N14_3 1_555 1_555
C83_3 N14_3 1_555 1_555
C88_3 N18_4 1_555 1_555
N15_3 N16_3 1_555 1_555
C35_3 H21_3 1_555 1_555
C36_3 C35_3 1_555 1_555
H22_3 C36_3 1_555 1_555
C37_3 C36_3 1_555 1_555
C38_3 C37_3 1_555 1_555
H23_3 C38_3 1_555 1_555
C39_3 C38_3 1_555 1_555
H24_3 C39_3 1_555 1_555
H26_3 C41_3 1_555 1_555
C42_3 C41_3 1_555 1_555
C43_3 C42_3 1_555 1_555
H27_3 C43_3 1_555 1_555
C44_3 C43_3 1_555 1_555
H28_3 C44_3 1_555 1_555
N5_3 C35_3 1_555 1_555
N6_3 C37_3 1_555 1_555
N7_3 C42_3 1_555 1_555
Co7 N5_3 1_555 1_555
C39_3 N5_3 1_555 1_555
N6_3 N7_3 1_555 1_555
C35_4 H21_4 1_555 1_555
C36_4 C35_4 1_555 1_555
H22_4 C36_4 1_555 1_555
C37_4 C36_4 1_555 1_555
C38_4 C37_4 1_555 1_555
H23_4 C38_4 1_555 1_555
C39_4 C38_4 1_555 1_555
H24_4 C39_4 1_555 1_555
H26_4 C41_4 1_555 1_555
C42_4 C41_4 1_555 1_555
C43_4 C42_4 1_555 1_555
H27_4 C43_4 1_555 1_555
C44_4 C43_4 1_555 1_555
H28_4 C44_4 1_555 1_555
N5_4 C35_4 1_555 1_555
N6_4 C37_4 1_555 1_555
N7_4 C42_4 1_555 1_555
Co7_2 N5_4 1_555 1_555
C39_4 N5_4 1_555 1_555
N6_4 N7_4 1_555 1_555
C40_4 H25_4 1_555 1_555
N18 C40_4 1_555 1_555
C79_4 H49_4 1_555 1_555
C80_4 C79_4 1_555 1_555
H50_4 C80_4 1_555 1_555
C81_4 C80_4 1_555 1_555
C82_4 C81_4 1_555 1_555
H51_4 C82_4 1_555 1_555
C83_4 C82_4 1_555 1_555
H52_4 C83_4 1_555 1_555
C84_4 H53_4 1_555 1_555
C85_4 C84_4 1_555 1_555
H54_4 C85_4 1_555 1_555
C86_4 C85_4 1_555 1_555
C87_4 C86_4 1_555 1_555
H55_4 C87_4 1_555 1_555
C88_4 C87_4 1_555 1_555
H56_4 C88_4 1_555 1_555
N14_4 Co9 1_555 1_555
N15_4 C81_4 1_555 1_555
N16_4 C86_4 1_555 1_555
N18_3 C84_4 1_555 1_555
C79_4 N14_4 1_555 1_555
C83_4 N14_4 1_555 1_555
C88_4 N18_3 1_555 1_555
N15_4 N16_4 1_555 1_555

#END
