
###############################################################################
#
# This file contains modified crystal structure data generated from the
# MOF subset of the Cambridge Structural Database (CSD) v543 
# hosted by the Cambridge Crystallographic Data Centre (CCDC).
#
# This work is licensed under the Creative Commons
# Attribution-NonCommercial-ShareAlike 4.0 International License.
# To view a copy of this license, visit
# http://creativecommons.org/licenses/by-nc-sa/4.0/
# or send a letter to
# Creative Commons, PO Box 1866, Mountain View, CA 94042, USA.
#
# CIF created using the CSD Python API on 29 September 2022
# The structure has been converted into the P1 space group
# The structure has a 3D framework
# The original CSD entry VEGBUG is in the cubic crystal system
# The framework has been calculated to contain at least 10.0% void space
# The void calculation uses a probe of radius 1.32A, grid spacing 0.4
# H atom positions have been added when not included in the experimental data
# Generated hydrogen atom positions removed from atoms on special positions
#
###############################################################################

data_VEGBUG
_chemical_formula_moiety         '(C960 H1344 O816 S288 Zr168)n'
_symmetry_cell_setting           triclinic
_symmetry_space_group_name_H-M   'P 1'
_symmetry_Int_Tables_number      1
_space_group_name_Hall           'P 1'
loop_
_symmetry_equiv_pos_site_id
_symmetry_equiv_pos_as_xyz
1 x,y,z
_cell_length_a                   49.964(6)
_cell_length_b                   49.964(6)
_cell_length_c                   49.964(6)
_cell_angle_alpha                90
_cell_angle_beta                 90
_cell_angle_gamma                90
_cell_volume                     124730
loop_
_atom_site_label
_atom_site_type_symbol
_atom_site_fract_x
_atom_site_fract_y
_atom_site_fract_z
Zr1 Zr 0.215130(5) 0.5000 0.215130(5)
Zr2 Zr 0.225027(4) 0.464601(6) 0.274973(4)
S1 S 0.08942(5) 0.41058(5) 0.18539(5)
S2 S 0.14130(2) 0.41380(2) 0.25053(2)
O1 O 0.23314(5) 0.46509(9) 0.23314(5)
O2 O 0.18004(3) 0.47321(3) 0.21779(4)
O3 O 0.22713(7) 0.42122(6) 0.27287(7)
O4 O 0.18625(5) 0.45032(5) 0.25609(5)
O5 O 0.25789(6) 0.5000 0.20794(9)
O6 O 0.19427(5) 0.46647(11) 0.30573(5)
C1 C 0.15054(7) 0.43881(7) 0.22825(8)
C2 C 0.13521(9) 0.43954(9) 0.20610(9)
H1 H 0.1377 0.4514 0.1920
C3 C 0.11485(10) 0.41999(10) 0.20716(10)
C4 C 0.17418(6) 0.45547(6) 0.23456(6)
C5 C 0.11563(8) 0.40450(8) 0.22992(9)
Zr3 Zr -0.0000 0.284870(5) 0.215130(5)
Zr4 Zr 0.215130(5) 0.715130(5) 0.0000
Zr5 Zr 0.274973(4) 0.535399(6) 0.225027(4)
Zr6 Zr 0.274973(4) 0.464601(6) 0.225027(4)
Zr7 Zr 0.035399(6) 0.274973(4) 0.274973(4)
Zr8 Zr 0.225027(4) 0.535399(6) 0.274973(4)
Zr9 Zr 0.274973(4) 0.725027(4) 0.035399(6)
S3 S 0.18539(5) 0.58942(5) 0.08942(5)
S4 S 0.08620(2) 0.35870(2) 0.25053(2)
S5 S 0.25053(2) 0.58620(2) 0.14130(2)
S6 S 0.25053(2) 0.64130(2) 0.08620(2)
O7 O 0.23314(5) 0.53491(9) 0.23314(5)
O8 O 0.26686(5) 0.46509(9) 0.26686(5)
O9 O 0.26686(5) 0.53491(9) 0.26686(5)
O10 O 0.02679(3) 0.31996(3) 0.21779(4)
O11 O 0.21779(4) 0.52679(3) 0.18004(3)
O12 O 0.21779(4) 0.68004(3) 0.02679(3)
O13 O 0.18004(3) 0.52679(3) 0.21779(4)
O14 O 0.21779(4) 0.47321(3) 0.18004(3)
O15 O 0.27287(7) 0.57878(6) 0.22713(7)
O16 O 0.04968(5) 0.31375(5) 0.25609(5)
O17 O 0.25609(5) 0.54968(5) 0.18625(5)
O18 O 0.25609(5) 0.68625(5) 0.04968(5)
O19 O 0.24391(5) 0.45032(5) 0.31375(5)
O20 O 0.31375(5) 0.54968(5) 0.24391(5)
O21 O 0.20794(9) 0.5000 0.25789(6)
O22 O 0.24211(6) 0.5000 0.29206(9)
O23 O 0.29206(9) 0.5000 0.24211(6)
O24 O 0.30573(5) 0.53353(11) 0.19427(5)
C6 C 0.06119(7) 0.34946(7) 0.22825(8)
C7 C 0.22825(8) 0.56119(7) 0.15054(7)
C8 C 0.22825(8) 0.65054(7) 0.06119(7)
C9 C 0.06046(9) 0.36479(9) 0.20610(9)
C10 C 0.20610(9) 0.56046(9) 0.13521(9)
C11 C 0.20610(9) 0.63521(9) 0.06046(9)
H2 H 0.0486 0.3623 0.1920
H3 H 0.1920 0.5486 0.1377
H4 H 0.1920 0.6377 0.0486
C12 C 0.08001(10) 0.38515(10) 0.20716(10)
C13 C 0.20716(10) 0.58001(10) 0.11485(10)
C14 C 0.20716(10) 0.61485(10) 0.08001(10)
C15 C 0.04453(6) 0.32582(6) 0.23456(6)
C16 C 0.23456(6) 0.54453(6) 0.17418(6)
C17 C 0.23456(6) 0.67418(6) 0.04453(6)
C18 C 0.09550(8) 0.38437(8) 0.22992(9)
C19 C 0.22992(9) 0.59550(8) 0.11563(8)
C20 C 0.22992(9) 0.61563(8) 0.09550(8)
Zr4_2 Zr 0.215130(5) 0.715130(5) 1.0000
Zr3_2 Zr 1.0000 0.284870(5) 0.215130(5)
Zr3_3 Zr -0.0000 0.715130(5) 0.215130(5)
Zr1_2 Zr 0.784870(5) 0.5000 0.215130(5)
Zr2_2 Zr 0.774973(4) 0.535399(6) 0.274973(4)
S1_2 S 0.91058(5) 0.58942(5) 0.18539(5)
S2_2 S 0.85870(2) 0.58620(2) 0.25053(2)
O1_2 O 0.76686(5) 0.53491(9) 0.23314(5)
O2_2 O 0.81996(3) 0.52679(3) 0.21779(4)
O3_2 O 0.77287(7) 0.57878(6) 0.27287(7)
O4_2 O 0.81375(5) 0.54968(5) 0.25609(5)
O5_2 O 0.74211(6) 0.5000 0.20794(9)
O6_2 O 0.80573(5) 0.53353(11) 0.30573(5)
C1_2 C 0.84946(7) 0.56119(7) 0.22825(8)
C2_2 C 0.86479(9) 0.56046(9) 0.20610(9)
H1_2 H 0.8623 0.5486 0.1920
C3_2 C 0.88515(10) 0.58001(10) 0.20716(10)
C4_2 C 0.82582(6) 0.54453(6) 0.23456(6)
C5_2 C 0.88437(8) 0.59550(8) 0.22992(9)
Zr3_4 Zr 1.0000 0.715130(5) 0.215130(5)
Zr4_3 Zr 0.784870(5) 0.284870(5) 0.0000
Zr5_2 Zr 0.725027(4) 0.464601(6) 0.225027(4)
Zr6_2 Zr 0.725027(4) 0.535399(6) 0.225027(4)
Zr7_2 Zr 0.964601(6) 0.725027(4) 0.274973(4)
Zr8_2 Zr 0.774973(4) 0.464601(6) 0.274973(4)
Zr9_2 Zr 0.725027(4) 0.274973(4) 0.035399(6)
S3_2 S 0.81461(5) 0.41058(5) 0.08942(5)
S4_2 S 0.91380(2) 0.64130(2) 0.25053(2)
S5_2 S 0.74947(2) 0.41380(2) 0.14130(2)
S6_2 S 0.74947(2) 0.35870(2) 0.08620(2)
O7_2 O 0.76686(5) 0.46509(9) 0.23314(5)
O8_2 O 0.73314(5) 0.53491(9) 0.26686(5)
O9_2 O 0.73314(5) 0.46509(9) 0.26686(5)
O10_2 O 0.97321(3) 0.68004(3) 0.21779(4)
O11_2 O 0.78221(4) 0.47321(3) 0.18004(3)
O12_2 O 0.78221(4) 0.31996(3) 0.02679(3)
O13_2 O 0.81996(3) 0.47321(3) 0.21779(4)
O14_2 O 0.78221(4) 0.52679(3) 0.18004(3)
O15_2 O 0.72713(7) 0.42122(6) 0.22713(7)
O16_2 O 0.95032(5) 0.68625(5) 0.25609(5)
O17_2 O 0.74391(5) 0.45032(5) 0.18625(5)
O18_2 O 0.74391(5) 0.31375(5) 0.04968(5)
O19_2 O 0.75609(5) 0.54968(5) 0.31375(5)
O20_2 O 0.68625(5) 0.45032(5) 0.24391(5)
O21_2 O 0.79206(9) 0.5000 0.25789(6)
O22_2 O 0.75789(6) 0.5000 0.29206(9)
O23_2 O 0.70794(9) 0.5000 0.24211(6)
O24_2 O 0.69427(5) 0.46647(11) 0.19427(5)
C6_2 C 0.93881(7) 0.65054(7) 0.22825(8)
C7_2 C 0.77175(8) 0.43881(7) 0.15054(7)
C8_2 C 0.77175(8) 0.34946(7) 0.06119(7)
C9_2 C 0.93954(9) 0.63521(9) 0.20610(9)
C10_2 C 0.79390(9) 0.43954(9) 0.13521(9)
C11_2 C 0.79390(9) 0.36479(9) 0.06046(9)
H2_2 H 0.9514 0.6377 0.1920
H3_2 H 0.8080 0.4514 0.1377
H4_2 H 0.8080 0.3623 0.0486
C12_2 C 0.91999(10) 0.61485(10) 0.20716(10)
C13_2 C 0.79284(10) 0.41999(10) 0.11485(10)
C14_2 C 0.79284(10) 0.38515(10) 0.08001(10)
C15_2 C 0.95547(6) 0.67418(6) 0.23456(6)
C16_2 C 0.76544(6) 0.45547(6) 0.17418(6)
C17_2 C 0.76544(6) 0.32582(6) 0.04453(6)
C18_2 C 0.90450(8) 0.61563(8) 0.22992(9)
C19_2 C 0.77008(9) 0.40450(8) 0.11563(8)
C20_2 C 0.77008(9) 0.38437(8) 0.09550(8)
Zr4_4 Zr 0.784870(5) 0.284870(5) 1.0000
Zr3_5 Zr 0.0000 0.284870(5) 0.784870(5)
Zr4_5 Zr 0.784870(5) 0.715130(5) 0.0000
Zr1_3 Zr 0.784870(5) 0.5000 0.784870(5)
Zr2_3 Zr 0.774973(4) 0.464601(6) 0.725027(4)
S1_3 S 0.91058(5) 0.41058(5) 0.81461(5)
S2_3 S 0.85870(2) 0.41380(2) 0.74947(2)
O1_3 O 0.76686(5) 0.46509(9) 0.76686(5)
O2_3 O 0.81996(3) 0.47321(3) 0.78221(4)
O3_3 O 0.77287(7) 0.42122(6) 0.72713(7)
O4_3 O 0.81375(5) 0.45032(5) 0.74391(5)
O5_3 O 0.74211(6) 0.5000 0.79206(9)
O6_3 O 0.80573(5) 0.46647(11) 0.69427(5)
C1_3 C 0.84946(7) 0.43881(7) 0.77175(8)
C2_3 C 0.86479(9) 0.43954(9) 0.79390(9)
H1_3 H 0.8623 0.4514 0.8080
C3_3 C 0.88515(10) 0.41999(10) 0.79284(10)
C4_3 C 0.82582(6) 0.45547(6) 0.76544(6)
C5_3 C 0.88437(8) 0.40450(8) 0.77008(9)
Zr3_6 Zr 1.0000 0.284870(5) 0.784870(5)
Zr4_6 Zr 0.784870(5) 0.715130(5) 1.0000
Zr5_3 Zr 0.725027(4) 0.535399(6) 0.774973(4)
Zr6_3 Zr 0.725027(4) 0.464601(6) 0.774973(4)
Zr7_3 Zr 0.964601(6) 0.274973(4) 0.725027(4)
Zr8_3 Zr 0.774973(4) 0.535399(6) 0.725027(4)
Zr9_3 Zr 0.725027(4) 0.725027(4) 0.964601(6)
S3_3 S 0.81461(5) 0.58942(5) 0.91058(5)
S4_3 S 0.91380(2) 0.35870(2) 0.74947(2)
S5_3 S 0.74947(2) 0.58620(2) 0.85870(2)
S6_3 S 0.74947(2) 0.64130(2) 0.91380(2)
O7_3 O 0.76686(5) 0.53491(9) 0.76686(5)
O8_3 O 0.73314(5) 0.46509(9) 0.73314(5)
O9_3 O 0.73314(5) 0.53491(9) 0.73314(5)
O10_3 O 0.97321(3) 0.31996(3) 0.78221(4)
O11_3 O 0.78221(4) 0.52679(3) 0.81996(3)
O12_3 O 0.78221(4) 0.68004(3) 0.97321(3)
O13_3 O 0.81996(3) 0.52679(3) 0.78221(4)
O14_3 O 0.78221(4) 0.47321(3) 0.81996(3)
O15_3 O 0.72713(7) 0.57878(6) 0.77287(7)
O16_3 O 0.95032(5) 0.31375(5) 0.74391(5)
O17_3 O 0.74391(5) 0.54968(5) 0.81375(5)
O18_3 O 0.74391(5) 0.68625(5) 0.95032(5)
O19_3 O 0.75609(5) 0.45032(5) 0.68625(5)
O20_3 O 0.68625(5) 0.54968(5) 0.75609(5)
O21_3 O 0.79206(9) 0.5000 0.74211(6)
O22_3 O 0.75789(6) 0.5000 0.70794(9)
O23_3 O 0.70794(9) 0.5000 0.75789(6)
O24_3 O 0.69427(5) 0.53353(11) 0.80573(5)
C6_3 C 0.93881(7) 0.34946(7) 0.77175(8)
C7_3 C 0.77175(8) 0.56119(7) 0.84946(7)
C8_3 C 0.77175(8) 0.65054(7) 0.93881(7)
C9_3 C 0.93954(9) 0.36479(9) 0.79390(9)
C10_3 C 0.79390(9) 0.56046(9) 0.86479(9)
C11_3 C 0.79390(9) 0.63521(9) 0.93954(9)
H2_3 H 0.9514 0.3623 0.8080
H3_3 H 0.8080 0.5486 0.8623
H4_3 H 0.8080 0.6377 0.9514
C12_3 C 0.91999(10) 0.38515(10) 0.79284(10)
C13_3 C 0.79284(10) 0.58001(10) 0.88515(10)
C14_3 C 0.79284(10) 0.61485(10) 0.91999(10)
C15_3 C 0.95547(6) 0.32582(6) 0.76544(6)
C16_3 C 0.76544(6) 0.54453(6) 0.82582(6)
C17_3 C 0.76544(6) 0.67418(6) 0.95547(6)
C18_3 C 0.90450(8) 0.38437(8) 0.77008(9)
C19_3 C 0.77008(9) 0.59550(8) 0.88437(8)
C20_3 C 0.77008(9) 0.61563(8) 0.90450(8)
Zr4_7 Zr 0.215130(5) 0.284870(5) 0.0000
Zr1_4 Zr 0.215130(5) 0.5000 0.784870(5)
Zr2_4 Zr 0.225027(4) 0.535399(6) 0.725027(4)
S1_4 S 0.08942(5) 0.58942(5) 0.81461(5)
S2_4 S 0.14130(2) 0.58620(2) 0.74947(2)
O1_4 O 0.23314(5) 0.53491(9) 0.76686(5)
O2_4 O 0.18004(3) 0.52679(3) 0.78221(4)
O3_4 O 0.22713(7) 0.57878(6) 0.72713(7)
O4_4 O 0.18625(5) 0.54968(5) 0.74391(5)
O5_4 O 0.25789(6) 0.5000 0.79206(9)
O6_4 O 0.19427(5) 0.53353(11) 0.69427(5)
C1_4 C 0.15054(7) 0.56119(7) 0.77175(8)
C2_4 C 0.13521(9) 0.56046(9) 0.79390(9)
H1_4 H 0.1377 0.5486 0.8080
C3_4 C 0.11485(10) 0.58001(10) 0.79284(10)
C4_4 C 0.17418(6) 0.54453(6) 0.76544(6)
C5_4 C 0.11563(8) 0.59550(8) 0.77008(9)
Zr3_7 Zr -0.0000 0.715130(5) 0.784870(5)
Zr4_8 Zr 0.215130(5) 0.284870(5) 1.0000
Zr5_4 Zr 0.274973(4) 0.464601(6) 0.774973(4)
Zr6_4 Zr 0.274973(4) 0.535399(6) 0.774973(4)
Zr7_4 Zr 0.035399(6) 0.725027(4) 0.725027(4)
Zr8_4 Zr 0.225027(4) 0.464601(6) 0.725027(4)
Zr9_4 Zr 0.274973(4) 0.274973(4) 0.964601(6)
S3_4 S 0.18539(5) 0.41058(5) 0.91058(5)
S4_4 S 0.08620(2) 0.64130(2) 0.74947(2)
S5_4 S 0.25053(2) 0.41380(2) 0.85870(2)
S6_4 S 0.25053(2) 0.35870(2) 0.91380(2)
O7_4 O 0.23314(5) 0.46509(9) 0.76686(5)
O8_4 O 0.26686(5) 0.53491(9) 0.73314(5)
O9_4 O 0.26686(5) 0.46509(9) 0.73314(5)
O10_4 O 0.02679(3) 0.68004(3) 0.78221(4)
O11_4 O 0.21779(4) 0.47321(3) 0.81996(3)
O12_4 O 0.21779(4) 0.31996(3) 0.97321(3)
O13_4 O 0.18004(3) 0.47321(3) 0.78221(4)
O14_4 O 0.21779(4) 0.52679(3) 0.81996(3)
O15_4 O 0.27287(7) 0.42122(6) 0.77287(7)
O16_4 O 0.04968(5) 0.68625(5) 0.74391(5)
O17_4 O 0.25609(5) 0.45032(5) 0.81375(5)
O18_4 O 0.25609(5) 0.31375(5) 0.95032(5)
O19_4 O 0.24391(5) 0.54968(5) 0.68625(5)
O20_4 O 0.31375(5) 0.45032(5) 0.75609(5)
O21_4 O 0.20794(9) 0.5000 0.74211(6)
O22_4 O 0.24211(6) 0.5000 0.70794(9)
O23_4 O 0.29206(9) 0.5000 0.75789(6)
O24_4 O 0.30573(5) 0.46647(11) 0.80573(5)
C6_4 C 0.06119(7) 0.65054(7) 0.77175(8)
C7_4 C 0.22825(8) 0.43881(7) 0.84946(7)
C8_4 C 0.22825(8) 0.34946(7) 0.93881(7)
C9_4 C 0.06046(9) 0.63521(9) 0.79390(9)
C10_4 C 0.20610(9) 0.43954(9) 0.86479(9)
C11_4 C 0.20610(9) 0.36479(9) 0.93954(9)
H2_4 H 0.0486 0.6377 0.8080
H3_4 H 0.1920 0.4514 0.8623
H4_4 H 0.1920 0.3623 0.9514
C12_4 C 0.08001(10) 0.61485(10) 0.79284(10)
C13_4 C 0.20716(10) 0.41999(10) 0.88515(10)
C14_4 C 0.20716(10) 0.38515(10) 0.91999(10)
C15_4 C 0.04453(6) 0.67418(6) 0.76544(6)
C16_4 C 0.23456(6) 0.45547(6) 0.82582(6)
C17_4 C 0.23456(6) 0.32582(6) 0.95547(6)
C18_4 C 0.09550(8) 0.61563(8) 0.77008(9)
C19_4 C 0.22992(9) 0.40450(8) 0.88437(8)
C20_4 C 0.22992(9) 0.38437(8) 0.90450(8)
Zr3_8 Zr 1.0000 0.715130(5) 0.784870(5)
Zr1_5 Zr 0.215130(5) 0.215130(5) 0.5000
Zr2_5 Zr 0.274973(4) 0.225027(4) 0.464601(6)
S1_5 S 0.18539(5) 0.08942(5) 0.41058(5)
S2_5 S 0.25053(2) 0.14130(2) 0.41380(2)
O1_5 O 0.23314(5) 0.23314(5) 0.46509(9)
O2_5 O 0.21779(4) 0.18004(3) 0.47321(3)
O3_5 O 0.27287(7) 0.22713(7) 0.42122(6)
O4_5 O 0.25609(5) 0.18625(5) 0.45032(5)
O5_5 O 0.20794(9) 0.25789(6) 0.5000
O6_5 O 0.30573(5) 0.19427(5) 0.46647(11)
C1_5 C 0.22825(8) 0.15054(7) 0.43881(7)
C2_5 C 0.20610(9) 0.13521(9) 0.43954(9)
H1_5 H 0.1920 0.1377 0.4514
C3_5 C 0.20716(10) 0.11485(10) 0.41999(10)
C4_5 C 0.23456(6) 0.17418(6) 0.45547(6)
C5_5 C 0.22992(9) 0.11563(8) 0.40450(8)
Zr3_9 Zr 0.215130(5) -0.0000 0.284870(5)
Zr4_9 Zr -0.0000 0.215130(5) 0.715130(5)
Zr5_5 Zr 0.225027(4) 0.274973(4) 0.535399(6)
Zr6_5 Zr 0.225027(4) 0.274973(4) 0.464601(6)
Zr7_5 Zr 0.274973(4) 0.035399(6) 0.274973(4)
Zr8_5 Zr 0.274973(4) 0.225027(4) 0.535399(6)
Zr9_5 Zr 0.035399(6) 0.274973(4) 0.725027(4)
S3_5 S 0.08942(5) 0.18539(5) 0.58942(5)
S4_5 S 0.25053(2) 0.08620(2) 0.35870(2)
S5_5 S 0.14130(2) 0.25053(2) 0.58620(2)
S6_5 S 0.08620(2) 0.25053(2) 0.64130(2)
O7_5 O 0.23314(5) 0.23314(5) 0.53491(9)
O8_5 O 0.26686(5) 0.26686(5) 0.46509(9)
O9_5 O 0.26686(5) 0.26686(5) 0.53491(9)
O10_5 O 0.21779(4) 0.02679(3) 0.31996(3)
O11_5 O 0.18004(3) 0.21779(4) 0.52679(3)
O12_5 O 0.02679(3) 0.21779(4) 0.68004(3)
O13_5 O 0.21779(4) 0.18004(3) 0.52679(3)
O14_5 O 0.18004(3) 0.21779(4) 0.47321(3)
O15_5 O 0.22713(7) 0.27287(7) 0.57878(6)
O16_5 O 0.25609(5) 0.04968(5) 0.31375(5)
O17_5 O 0.18625(5) 0.25609(5) 0.54968(5)
O18_5 O 0.04968(5) 0.25609(5) 0.68625(5)
O19_5 O 0.31375(5) 0.24391(5) 0.45032(5)
O20_5 O 0.24391(5) 0.31375(5) 0.54968(5)
O21_5 O 0.25789(6) 0.20794(9) 0.5000
O22_5 O 0.29206(9) 0.24211(6) 0.5000
O23_5 O 0.24211(6) 0.29206(9) 0.5000
O24_5 O 0.19427(5) 0.30573(5) 0.53353(11)
C6_5 C 0.22825(8) 0.06119(7) 0.34946(7)
C7_5 C 0.15054(7) 0.22825(8) 0.56119(7)
C8_5 C 0.06119(7) 0.22825(8) 0.65054(7)
C9_5 C 0.20610(9) 0.06046(9) 0.36479(9)
C10_5 C 0.13521(9) 0.20610(9) 0.56046(9)
C11_5 C 0.06046(9) 0.20610(9) 0.63521(9)
H2_5 H 0.1920 0.0486 0.3623
H3_5 H 0.1377 0.1920 0.5486
H4_5 H 0.0486 0.1920 0.6377
C12_5 C 0.20716(10) 0.08001(10) 0.38515(10)
C13_5 C 0.11485(10) 0.20716(10) 0.58001(10)
C14_5 C 0.08001(10) 0.20716(10) 0.61485(10)
C15_5 C 0.23456(6) 0.04453(6) 0.32582(6)
C16_5 C 0.17418(6) 0.23456(6) 0.54453(6)
C17_5 C 0.04453(6) 0.23456(6) 0.67418(6)
C18_5 C 0.22992(9) 0.09550(8) 0.38437(8)
C19_5 C 0.11563(8) 0.22992(9) 0.59550(8)
C20_5 C 0.09550(8) 0.22992(9) 0.61563(8)
Zr3_10 Zr 0.215130(5) 1.0000 0.284870(5)
Zr4_10 Zr 1.0000 0.215130(5) 0.715130(5)
Zr3_11 Zr 0.215130(5) -0.0000 0.715130(5)
Zr1_6 Zr 0.215130(5) 0.784870(5) 0.5000
Zr2_6 Zr 0.274973(4) 0.774973(4) 0.535399(6)
S1_6 S 0.18539(5) 0.91058(5) 0.58942(5)
S2_6 S 0.25053(2) 0.85870(2) 0.58620(2)
O1_6 O 0.23314(5) 0.76686(5) 0.53491(9)
O2_6 O 0.21779(4) 0.81996(3) 0.52679(3)
O3_6 O 0.27287(7) 0.77287(7) 0.57878(6)
O4_6 O 0.25609(5) 0.81375(5) 0.54968(5)
O5_6 O 0.20794(9) 0.74211(6) 0.5000
O6_6 O 0.30573(5) 0.80573(5) 0.53353(11)
C1_6 C 0.22825(8) 0.84946(7) 0.56119(7)
C2_6 C 0.20610(9) 0.86479(9) 0.56046(9)
H1_6 H 0.1920 0.8623 0.5486
C3_6 C 0.20716(10) 0.88515(10) 0.58001(10)
C4_6 C 0.23456(6) 0.82582(6) 0.54453(6)
C5_6 C 0.22992(9) 0.88437(8) 0.59550(8)
Zr3_12 Zr 0.215130(5) 1.0000 0.715130(5)
Zr4_11 Zr -0.0000 0.784870(5) 0.284870(5)
Zr5_6 Zr 0.225027(4) 0.725027(4) 0.464601(6)
Zr6_6 Zr 0.225027(4) 0.725027(4) 0.535399(6)
Zr7_6 Zr 0.274973(4) 0.964601(6) 0.725027(4)
Zr8_6 Zr 0.274973(4) 0.774973(4) 0.464601(6)
Zr9_6 Zr 0.035399(6) 0.725027(4) 0.274973(4)
S3_6 S 0.08942(5) 0.81461(5) 0.41058(5)
S4_6 S 0.25053(2) 0.91380(2) 0.64130(2)
S5_6 S 0.14130(2) 0.74947(2) 0.41380(2)
S6_6 S 0.08620(2) 0.74947(2) 0.35870(2)
O7_6 O 0.23314(5) 0.76686(5) 0.46509(9)
O8_6 O 0.26686(5) 0.73314(5) 0.53491(9)
O9_6 O 0.26686(5) 0.73314(5) 0.46509(9)
O10_6 O 0.21779(4) 0.97321(3) 0.68004(3)
O11_6 O 0.18004(3) 0.78221(4) 0.47321(3)
O12_6 O 0.02679(3) 0.78221(4) 0.31996(3)
O13_6 O 0.21779(4) 0.81996(3) 0.47321(3)
O14_6 O 0.18004(3) 0.78221(4) 0.52679(3)
O15_6 O 0.22713(7) 0.72713(7) 0.42122(6)
O16_6 O 0.25609(5) 0.95032(5) 0.68625(5)
O17_6 O 0.18625(5) 0.74391(5) 0.45032(5)
O18_6 O 0.04968(5) 0.74391(5) 0.31375(5)
O19_6 O 0.31375(5) 0.75609(5) 0.54968(5)
O20_6 O 0.24391(5) 0.68625(5) 0.45032(5)
O21_6 O 0.25789(6) 0.79206(9) 0.5000
O22_6 O 0.29206(9) 0.75789(6) 0.5000
O23_6 O 0.24211(6) 0.70794(9) 0.5000
O24_6 O 0.19427(5) 0.69427(5) 0.46647(11)
C6_6 C 0.22825(8) 0.93881(7) 0.65054(7)
C7_6 C 0.15054(7) 0.77175(8) 0.43881(7)
C8_6 C 0.06119(7) 0.77175(8) 0.34946(7)
C9_6 C 0.20610(9) 0.93954(9) 0.63521(9)
C10_6 C 0.13521(9) 0.79390(9) 0.43954(9)
C11_6 C 0.06046(9) 0.79390(9) 0.36479(9)
H2_6 H 0.1920 0.9514 0.6377
H3_6 H 0.1377 0.8080 0.4514
H4_6 H 0.0486 0.8080 0.3623
C12_6 C 0.20716(10) 0.91999(10) 0.61485(10)
C13_6 C 0.11485(10) 0.79284(10) 0.41999(10)
C14_6 C 0.08001(10) 0.79284(10) 0.38515(10)
C15_6 C 0.23456(6) 0.95547(6) 0.67418(6)
C16_6 C 0.17418(6) 0.76544(6) 0.45547(6)
C17_6 C 0.04453(6) 0.76544(6) 0.32582(6)
C18_6 C 0.22992(9) 0.90450(8) 0.61563(8)
C19_6 C 0.11563(8) 0.77008(9) 0.40450(8)
C20_6 C 0.09550(8) 0.77008(9) 0.38437(8)
Zr4_12 Zr 1.0000 0.784870(5) 0.284870(5)
Zr4_13 Zr -0.0000 0.784870(5) 0.715130(5)
Zr3_13 Zr 0.784870(5) 0.0000 0.284870(5)
Zr1_7 Zr 0.784870(5) 0.784870(5) 0.5000
Zr2_7 Zr 0.725027(4) 0.774973(4) 0.464601(6)
S1_7 S 0.81461(5) 0.91058(5) 0.41058(5)
S2_7 S 0.74947(2) 0.85870(2) 0.41380(2)
O1_7 O 0.76686(5) 0.76686(5) 0.46509(9)
O2_7 O 0.78221(4) 0.81996(3) 0.47321(3)
O3_7 O 0.72713(7) 0.77287(7) 0.42122(6)
O4_7 O 0.74391(5) 0.81375(5) 0.45032(5)
O5_7 O 0.79206(9) 0.74211(6) 0.5000
O6_7 O 0.69427(5) 0.80573(5) 0.46647(11)
C1_7 C 0.77175(8) 0.84946(7) 0.43881(7)
C2_7 C 0.79390(9) 0.86479(9) 0.43954(9)
H1_7 H 0.8080 0.8623 0.4514
C3_7 C 0.79284(10) 0.88515(10) 0.41999(10)
C4_7 C 0.76544(6) 0.82582(6) 0.45547(6)
C5_7 C 0.77008(9) 0.88437(8) 0.40450(8)
Zr3_14 Zr 0.784870(5) 1.0000 0.284870(5)
Zr4_14 Zr 1.0000 0.784870(5) 0.715130(5)
Zr5_7 Zr 0.774973(4) 0.725027(4) 0.535399(6)
Zr6_7 Zr 0.774973(4) 0.725027(4) 0.464601(6)
Zr7_7 Zr 0.725027(4) 0.964601(6) 0.274973(4)
Zr8_7 Zr 0.725027(4) 0.774973(4) 0.535399(6)
Zr9_7 Zr 0.964601(6) 0.725027(4) 0.725027(4)
S3_7 S 0.91058(5) 0.81461(5) 0.58942(5)
S4_7 S 0.74947(2) 0.91380(2) 0.35870(2)
S5_7 S 0.85870(2) 0.74947(2) 0.58620(2)
S6_7 S 0.91380(2) 0.74947(2) 0.64130(2)
O7_7 O 0.76686(5) 0.76686(5) 0.53491(9)
O8_7 O 0.73314(5) 0.73314(5) 0.46509(9)
O9_7 O 0.73314(5) 0.73314(5) 0.53491(9)
O10_7 O 0.78221(4) 0.97321(3) 0.31996(3)
O11_7 O 0.81996(3) 0.78221(4) 0.52679(3)
O12_7 O 0.97321(3) 0.78221(4) 0.68004(3)
O13_7 O 0.78221(4) 0.81996(3) 0.52679(3)
O14_7 O 0.81996(3) 0.78221(4) 0.47321(3)
O15_7 O 0.77287(7) 0.72713(7) 0.57878(6)
O16_7 O 0.74391(5) 0.95032(5) 0.31375(5)
O17_7 O 0.81375(5) 0.74391(5) 0.54968(5)
O18_7 O 0.95032(5) 0.74391(5) 0.68625(5)
O19_7 O 0.68625(5) 0.75609(5) 0.45032(5)
O20_7 O 0.75609(5) 0.68625(5) 0.54968(5)
O21_7 O 0.74211(6) 0.79206(9) 0.5000
O22_7 O 0.70794(9) 0.75789(6) 0.5000
O23_7 O 0.75789(6) 0.70794(9) 0.5000
O24_7 O 0.80573(5) 0.69427(5) 0.53353(11)
C6_7 C 0.77175(8) 0.93881(7) 0.34946(7)
C7_7 C 0.84946(7) 0.77175(8) 0.56119(7)
C8_7 C 0.93881(7) 0.77175(8) 0.65054(7)
C9_7 C 0.79390(9) 0.93954(9) 0.36479(9)
C10_7 C 0.86479(9) 0.79390(9) 0.56046(9)
C11_7 C 0.93954(9) 0.79390(9) 0.63521(9)
H2_7 H 0.8080 0.9514 0.3623
H3_7 H 0.8623 0.8080 0.5486
H4_7 H 0.9514 0.8080 0.6377
C12_7 C 0.79284(10) 0.91999(10) 0.38515(10)
C13_7 C 0.88515(10) 0.79284(10) 0.58001(10)
C14_7 C 0.91999(10) 0.79284(10) 0.61485(10)
C15_7 C 0.76544(6) 0.95547(6) 0.32582(6)
C16_7 C 0.82582(6) 0.76544(6) 0.54453(6)
C17_7 C 0.95547(6) 0.76544(6) 0.67418(6)
C18_7 C 0.77008(9) 0.90450(8) 0.38437(8)
C19_7 C 0.88437(8) 0.77008(9) 0.59550(8)
C20_7 C 0.90450(8) 0.77008(9) 0.61563(8)
Zr4_15 Zr 0.0000 0.215130(5) 0.284870(5)
Zr1_8 Zr 0.784870(5) 0.215130(5) 0.5000
Zr2_8 Zr 0.725027(4) 0.225027(4) 0.535399(6)
S1_8 S 0.81461(5) 0.08942(5) 0.58942(5)
S2_8 S 0.74947(2) 0.14130(2) 0.58620(2)
O1_8 O 0.76686(5) 0.23314(5) 0.53491(9)
O2_8 O 0.78221(4) 0.18004(3) 0.52679(3)
O3_8 O 0.72713(7) 0.22713(7) 0.57878(6)
O4_8 O 0.74391(5) 0.18625(5) 0.54968(5)
O5_8 O 0.79206(9) 0.25789(6) 0.5000
O6_8 O 0.69427(5) 0.19427(5) 0.53353(11)
C1_8 C 0.77175(8) 0.15054(7) 0.56119(7)
C2_8 C 0.79390(9) 0.13521(9) 0.56046(9)
H1_8 H 0.8080 0.1377 0.5486
C3_8 C 0.79284(10) 0.11485(10) 0.58001(10)
C4_8 C 0.76544(6) 0.17418(6) 0.54453(6)
C5_8 C 0.77008(9) 0.11563(8) 0.59550(8)
Zr3_15 Zr 0.784870(5) -0.0000 0.715130(5)
Zr4_16 Zr 1.0000 0.215130(5) 0.284870(5)
Zr5_8 Zr 0.774973(4) 0.274973(4) 0.464601(6)
Zr6_8 Zr 0.774973(4) 0.274973(4) 0.535399(6)
Zr7_8 Zr 0.725027(4) 0.035399(6) 0.725027(4)
Zr8_8 Zr 0.725027(4) 0.225027(4) 0.464601(6)
Zr9_8 Zr 0.964601(6) 0.274973(4) 0.274973(4)
S3_8 S 0.91058(5) 0.18539(5) 0.41058(5)
S4_8 S 0.74947(2) 0.08620(2) 0.64130(2)
S5_8 S 0.85870(2) 0.25053(2) 0.41380(2)
S6_8 S 0.91380(2) 0.25053(2) 0.35870(2)
O7_8 O 0.76686(5) 0.23314(5) 0.46509(9)
O8_8 O 0.73314(5) 0.26686(5) 0.53491(9)
O9_8 O 0.73314(5) 0.26686(5) 0.46509(9)
O10_8 O 0.78221(4) 0.02679(3) 0.68004(3)
O11_8 O 0.81996(3) 0.21779(4) 0.47321(3)
O12_8 O 0.97321(3) 0.21779(4) 0.31996(3)
O13_8 O 0.78221(4) 0.18004(3) 0.47321(3)
O14_8 O 0.81996(3) 0.21779(4) 0.52679(3)
O15_8 O 0.77287(7) 0.27287(7) 0.42122(6)
O16_8 O 0.74391(5) 0.04968(5) 0.68625(5)
O17_8 O 0.81375(5) 0.25609(5) 0.45032(5)
O18_8 O 0.95032(5) 0.25609(5) 0.31375(5)
O19_8 O 0.68625(5) 0.24391(5) 0.54968(5)
O20_8 O 0.75609(5) 0.31375(5) 0.45032(5)
O21_8 O 0.74211(6) 0.20794(9) 0.5000
O22_8 O 0.70794(9) 0.24211(6) 0.5000
O23_8 O 0.75789(6) 0.29206(9) 0.5000
O24_8 O 0.80573(5) 0.30573(5) 0.46647(11)
C6_8 C 0.77175(8) 0.06119(7) 0.65054(7)
C7_8 C 0.84946(7) 0.22825(8) 0.43881(7)
C8_8 C 0.93881(7) 0.22825(8) 0.34946(7)
C9_8 C 0.79390(9) 0.06046(9) 0.63521(9)
C10_8 C 0.86479(9) 0.20610(9) 0.43954(9)
C11_8 C 0.93954(9) 0.20610(9) 0.36479(9)
H2_8 H 0.8080 0.0486 0.6377
H3_8 H 0.8623 0.1920 0.4514
H4_8 H 0.9514 0.1920 0.3623
C12_8 C 0.79284(10) 0.08001(10) 0.61485(10)
C13_8 C 0.88515(10) 0.20716(10) 0.41999(10)
C14_8 C 0.91999(10) 0.20716(10) 0.38515(10)
C15_8 C 0.76544(6) 0.04453(6) 0.67418(6)
C16_8 C 0.82582(6) 0.23456(6) 0.45547(6)
C17_8 C 0.95547(6) 0.23456(6) 0.32582(6)
C18_8 C 0.77008(9) 0.09550(8) 0.61563(8)
C19_8 C 0.88437(8) 0.22992(9) 0.40450(8)
C20_8 C 0.90450(8) 0.22992(9) 0.38437(8)
Zr3_16 Zr 0.784870(5) 1.0000 0.715130(5)
Zr1_9 Zr 0.5000 0.215130(5) 0.215130(5)
Zr2_9 Zr 0.464601(6) 0.274973(4) 0.225027(4)
S1_9 S 0.41058(5) 0.18539(5) 0.08942(5)
S2_9 S 0.41380(2) 0.25053(2) 0.14130(2)
O1_9 O 0.46509(9) 0.23314(5) 0.23314(5)
O2_9 O 0.47321(3) 0.21779(4) 0.18004(3)
O3_9 O 0.42122(6) 0.27287(7) 0.22713(7)
O4_9 O 0.45032(5) 0.25609(5) 0.18625(5)
O5_9 O 0.5000 0.20794(9) 0.25789(6)
O6_9 O 0.46647(11) 0.30573(5) 0.19427(5)
C1_9 C 0.43881(7) 0.22825(8) 0.15054(7)
C2_9 C 0.43954(9) 0.20610(9) 0.13521(9)
H1_9 H 0.4514 0.1920 0.1377
C3_9 C 0.41999(10) 0.20716(10) 0.11485(10)
C4_9 C 0.45547(6) 0.23456(6) 0.17418(6)
C5_9 C 0.40450(8) 0.22992(9) 0.11563(8)
Zr3_17 Zr 0.284870(5) 0.215130(5) -0.0000
Zr4_17 Zr 0.715130(5) 0.0000 0.215130(5)
Zr5_9 Zr 0.535399(6) 0.225027(4) 0.274973(4)
Zr6_9 Zr 0.464601(6) 0.225027(4) 0.274973(4)
Zr7_9 Zr 0.274973(4) 0.274973(4) 0.035399(6)
Zr8_9 Zr 0.535399(6) 0.274973(4) 0.225027(4)
Zr9_9 Zr 0.725027(4) 0.035399(6) 0.274973(4)
S3_9 S 0.58942(5) 0.08942(5) 0.18539(5)
S4_9 S 0.35870(2) 0.25053(2) 0.08620(2)
S5_9 S 0.58620(2) 0.14130(2) 0.25053(2)
S6_9 S 0.64130(2) 0.08620(2) 0.25053(2)
O7_9 O 0.53491(9) 0.23314(5) 0.23314(5)
O8_9 O 0.46509(9) 0.26686(5) 0.26686(5)
O9_9 O 0.53491(9) 0.26686(5) 0.26686(5)
O10_9 O 0.31996(3) 0.21779(4) 0.02679(3)
O11_9 O 0.52679(3) 0.18004(3) 0.21779(4)
O12_9 O 0.68004(3) 0.02679(3) 0.21779(4)
O13_9 O 0.52679(3) 0.21779(4) 0.18004(3)
O14_9 O 0.47321(3) 0.18004(3) 0.21779(4)
O15_9 O 0.57878(6) 0.22713(7) 0.27287(7)
O16_9 O 0.31375(5) 0.25609(5) 0.04968(5)
O17_9 O 0.54968(5) 0.18625(5) 0.25609(5)
O18_9 O 0.68625(5) 0.04968(5) 0.25609(5)
O19_9 O 0.45032(5) 0.31375(5) 0.24391(5)
O20_9 O 0.54968(5) 0.24391(5) 0.31375(5)
O21_9 O 0.5000 0.25789(6) 0.20794(9)
O22_9 O 0.5000 0.29206(9) 0.24211(6)
O23_9 O 0.5000 0.24211(6) 0.29206(9)
O24_9 O 0.53353(11) 0.19427(5) 0.30573(5)
C6_9 C 0.34946(7) 0.22825(8) 0.06119(7)
C7_9 C 0.56119(7) 0.15054(7) 0.22825(8)
C8_9 C 0.65054(7) 0.06119(7) 0.22825(8)
C9_9 C 0.36479(9) 0.20610(9) 0.06046(9)
C10_9 C 0.56046(9) 0.13521(9) 0.20610(9)
C11_9 C 0.63521(9) 0.06046(9) 0.20610(9)
H2_9 H 0.3623 0.1920 0.0486
H3_9 H 0.5486 0.1377 0.1920
H4_9 H 0.6377 0.0486 0.1920
C12_9 C 0.38515(10) 0.20716(10) 0.08001(10)
C13_9 C 0.58001(10) 0.11485(10) 0.20716(10)
C14_9 C 0.61485(10) 0.08001(10) 0.20716(10)
C15_9 C 0.32582(6) 0.23456(6) 0.04453(6)
C16_9 C 0.54453(6) 0.17418(6) 0.23456(6)
C17_9 C 0.67418(6) 0.04453(6) 0.23456(6)
C18_9 C 0.38437(8) 0.22992(9) 0.09550(8)
C19_9 C 0.59550(8) 0.11563(8) 0.22992(9)
C20_9 C 0.61563(8) 0.09550(8) 0.22992(9)
Zr3_18 Zr 0.284870(5) 0.215130(5) 1.0000
Zr4_18 Zr 0.715130(5) 1.0000 0.215130(5)
Zr3_19 Zr 0.715130(5) 0.215130(5) 0.0000
Zr1_10 Zr 0.5000 0.215130(5) 0.784870(5)
Zr2_10 Zr 0.535399(6) 0.274973(4) 0.774973(4)
S1_10 S 0.58942(5) 0.18539(5) 0.91058(5)
S2_10 S 0.58620(2) 0.25053(2) 0.85870(2)
O1_10 O 0.53491(9) 0.23314(5) 0.76686(5)
O2_10 O 0.52679(3) 0.21779(4) 0.81996(3)
O3_10 O 0.57878(6) 0.27287(7) 0.77287(7)
O4_10 O 0.54968(5) 0.25609(5) 0.81375(5)
O5_10 O 0.5000 0.20794(9) 0.74211(6)
O6_10 O 0.53353(11) 0.30573(5) 0.80573(5)
C1_10 C 0.56119(7) 0.22825(8) 0.84946(7)
C2_10 C 0.56046(9) 0.20610(9) 0.86479(9)
H1_10 H 0.5486 0.1920 0.8623
C3_10 C 0.58001(10) 0.20716(10) 0.88515(10)
C4_10 C 0.54453(6) 0.23456(6) 0.82582(6)
C5_10 C 0.59550(8) 0.22992(9) 0.88437(8)
Zr3_20 Zr 0.715130(5) 0.215130(5) 1.0000
Zr4_19 Zr 0.284870(5) -0.0000 0.784870(5)
Zr5_10 Zr 0.464601(6) 0.225027(4) 0.725027(4)
Zr6_10 Zr 0.535399(6) 0.225027(4) 0.725027(4)
Zr7_10 Zr 0.725027(4) 0.274973(4) 0.964601(6)
Zr8_10 Zr 0.464601(6) 0.274973(4) 0.774973(4)
Zr9_10 Zr 0.274973(4) 0.035399(6) 0.725027(4)
S3_10 S 0.41058(5) 0.08942(5) 0.81461(5)
S4_10 S 0.64130(2) 0.25053(2) 0.91380(2)
S5_10 S 0.41380(2) 0.14130(2) 0.74947(2)
S6_10 S 0.35870(2) 0.08620(2) 0.74947(2)
O7_10 O 0.46509(9) 0.23314(5) 0.76686(5)
O8_10 O 0.53491(9) 0.26686(5) 0.73314(5)
O9_10 O 0.46509(9) 0.26686(5) 0.73314(5)
O10_10 O 0.68004(3) 0.21779(4) 0.97321(3)
O11_10 O 0.47321(3) 0.18004(3) 0.78221(4)
O12_10 O 0.31996(3) 0.02679(3) 0.78221(4)
O13_10 O 0.47321(3) 0.21779(4) 0.81996(3)
O14_10 O 0.52679(3) 0.18004(3) 0.78221(4)
O15_10 O 0.42122(6) 0.22713(7) 0.72713(7)
O16_10 O 0.68625(5) 0.25609(5) 0.95032(5)
O17_10 O 0.45032(5) 0.18625(5) 0.74391(5)
O18_10 O 0.31375(5) 0.04968(5) 0.74391(5)
O19_10 O 0.54968(5) 0.31375(5) 0.75609(5)
O20_10 O 0.45032(5) 0.24391(5) 0.68625(5)
O21_10 O 0.5000 0.25789(6) 0.79206(9)
O22_10 O 0.5000 0.29206(9) 0.75789(6)
O23_10 O 0.5000 0.24211(6) 0.70794(9)
O24_10 O 0.46647(11) 0.19427(5) 0.69427(5)
C6_10 C 0.65054(7) 0.22825(8) 0.93881(7)
C7_10 C 0.43881(7) 0.15054(7) 0.77175(8)
C8_10 C 0.34946(7) 0.06119(7) 0.77175(8)
C9_10 C 0.63521(9) 0.20610(9) 0.93954(9)
C10_10 C 0.43954(9) 0.13521(9) 0.79390(9)
C11_10 C 0.36479(9) 0.06046(9) 0.79390(9)
H2_10 H 0.6377 0.1920 0.9514
H3_10 H 0.4514 0.1377 0.8080
H4_10 H 0.3623 0.0486 0.8080
C12_10 C 0.61485(10) 0.20716(10) 0.91999(10)
C13_10 C 0.41999(10) 0.11485(10) 0.79284(10)
C14_10 C 0.38515(10) 0.08001(10) 0.79284(10)
C15_10 C 0.67418(6) 0.23456(6) 0.95547(6)
C16_10 C 0.45547(6) 0.17418(6) 0.76544(6)
C17_10 C 0.32582(6) 0.04453(6) 0.76544(6)
C18_10 C 0.61563(8) 0.22992(9) 0.90450(8)
C19_10 C 0.40450(8) 0.11563(8) 0.77008(9)
C20_10 C 0.38437(8) 0.09550(8) 0.77008(9)
Zr4_20 Zr 0.284870(5) 1.0000 0.784870(5)
Zr4_21 Zr 0.715130(5) -0.0000 0.784870(5)
Zr3_21 Zr 0.284870(5) 0.784870(5) 0.0000
Zr1_11 Zr 0.5000 0.784870(5) 0.784870(5)
Zr2_11 Zr 0.464601(6) 0.725027(4) 0.774973(4)
S1_11 S 0.41058(5) 0.81461(5) 0.91058(5)
S2_11 S 0.41380(2) 0.74947(2) 0.85870(2)
O1_11 O 0.46509(9) 0.76686(5) 0.76686(5)
O2_11 O 0.47321(3) 0.78221(4) 0.81996(3)
O3_11 O 0.42122(6) 0.72713(7) 0.77287(7)
O4_11 O 0.45032(5) 0.74391(5) 0.81375(5)
O5_11 O 0.5000 0.79206(9) 0.74211(6)
O6_11 O 0.46647(11) 0.69427(5) 0.80573(5)
C1_11 C 0.43881(7) 0.77175(8) 0.84946(7)
C2_11 C 0.43954(9) 0.79390(9) 0.86479(9)
H1_11 H 0.4514 0.8080 0.8623
C3_11 C 0.41999(10) 0.79284(10) 0.88515(10)
C4_11 C 0.45547(6) 0.76544(6) 0.82582(6)
C5_11 C 0.40450(8) 0.77008(9) 0.88437(8)
Zr3_22 Zr 0.284870(5) 0.784870(5) 1.0000
Zr4_22 Zr 0.715130(5) 1.0000 0.784870(5)
Zr5_11 Zr 0.535399(6) 0.774973(4) 0.725027(4)
Zr6_11 Zr 0.464601(6) 0.774973(4) 0.725027(4)
Zr7_11 Zr 0.274973(4) 0.725027(4) 0.964601(6)
Zr8_11 Zr 0.535399(6) 0.725027(4) 0.774973(4)
Zr9_11 Zr 0.725027(4) 0.964601(6) 0.725027(4)
S3_11 S 0.58942(5) 0.91058(5) 0.81461(5)
S4_11 S 0.35870(2) 0.74947(2) 0.91380(2)
S5_11 S 0.58620(2) 0.85870(2) 0.74947(2)
S6_11 S 0.64130(2) 0.91380(2) 0.74947(2)
O7_11 O 0.53491(9) 0.76686(5) 0.76686(5)
O8_11 O 0.46509(9) 0.73314(5) 0.73314(5)
O9_11 O 0.53491(9) 0.73314(5) 0.73314(5)
O10_11 O 0.31996(3) 0.78221(4) 0.97321(3)
O11_11 O 0.52679(3) 0.81996(3) 0.78221(4)
O12_11 O 0.68004(3) 0.97321(3) 0.78221(4)
O13_11 O 0.52679(3) 0.78221(4) 0.81996(3)
O14_11 O 0.47321(3) 0.81996(3) 0.78221(4)
O15_11 O 0.57878(6) 0.77287(7) 0.72713(7)
O16_11 O 0.31375(5) 0.74391(5) 0.95032(5)
O17_11 O 0.54968(5) 0.81375(5) 0.74391(5)
O18_11 O 0.68625(5) 0.95032(5) 0.74391(5)
O19_11 O 0.45032(5) 0.68625(5) 0.75609(5)
O20_11 O 0.54968(5) 0.75609(5) 0.68625(5)
O21_11 O 0.5000 0.74211(6) 0.79206(9)
O22_11 O 0.5000 0.70794(9) 0.75789(6)
O23_11 O 0.5000 0.75789(6) 0.70794(9)
O24_11 O 0.53353(11) 0.80573(5) 0.69427(5)
C6_11 C 0.34946(7) 0.77175(8) 0.93881(7)
C7_11 C 0.56119(7) 0.84946(7) 0.77175(8)
C8_11 C 0.65054(7) 0.93881(7) 0.77175(8)
C9_11 C 0.36479(9) 0.79390(9) 0.93954(9)
C10_11 C 0.56046(9) 0.86479(9) 0.79390(9)
C11_11 C 0.63521(9) 0.93954(9) 0.79390(9)
H2_11 H 0.3623 0.8080 0.9514
H3_11 H 0.5486 0.8623 0.8080
H4_11 H 0.6377 0.9514 0.8080
C12_11 C 0.38515(10) 0.79284(10) 0.91999(10)
C13_11 C 0.58001(10) 0.88515(10) 0.79284(10)
C14_11 C 0.61485(10) 0.91999(10) 0.79284(10)
C15_11 C 0.32582(6) 0.76544(6) 0.95547(6)
C16_11 C 0.54453(6) 0.82582(6) 0.76544(6)
C17_11 C 0.67418(6) 0.95547(6) 0.76544(6)
C18_11 C 0.38437(8) 0.77008(9) 0.90450(8)
C19_11 C 0.59550(8) 0.88437(8) 0.77008(9)
C20_11 C 0.61563(8) 0.90450(8) 0.77008(9)
Zr4_23 Zr 0.284870(5) 0.0000 0.215130(5)
Zr1_12 Zr 0.5000 0.784870(5) 0.215130(5)
Zr2_12 Zr 0.535399(6) 0.725027(4) 0.225027(4)
S1_12 S 0.58942(5) 0.81461(5) 0.08942(5)
S2_12 S 0.58620(2) 0.74947(2) 0.14130(2)
O1_12 O 0.53491(9) 0.76686(5) 0.23314(5)
O2_12 O 0.52679(3) 0.78221(4) 0.18004(3)
O3_12 O 0.57878(6) 0.72713(7) 0.22713(7)
O4_12 O 0.54968(5) 0.74391(5) 0.18625(5)
O5_12 O 0.5000 0.79206(9) 0.25789(6)
O6_12 O 0.53353(11) 0.69427(5) 0.19427(5)
C1_12 C 0.56119(7) 0.77175(8) 0.15054(7)
C2_12 C 0.56046(9) 0.79390(9) 0.13521(9)
H1_12 H 0.5486 0.8080 0.1377
C3_12 C 0.58001(10) 0.79284(10) 0.11485(10)
C4_12 C 0.54453(6) 0.76544(6) 0.17418(6)
C5_12 C 0.59550(8) 0.77008(9) 0.11563(8)
Zr3_23 Zr 0.715130(5) 0.784870(5) -0.0000
Zr4_24 Zr 0.284870(5) 1.0000 0.215130(5)
Zr5_12 Zr 0.464601(6) 0.774973(4) 0.274973(4)
Zr6_12 Zr 0.535399(6) 0.774973(4) 0.274973(4)
Zr7_12 Zr 0.725027(4) 0.725027(4) 0.035399(6)
Zr8_12 Zr 0.464601(6) 0.725027(4) 0.225027(4)
Zr9_12 Zr 0.274973(4) 0.964601(6) 0.274973(4)
S3_12 S 0.41058(5) 0.91058(5) 0.18539(5)
S4_12 S 0.64130(2) 0.74947(2) 0.08620(2)
S5_12 S 0.41380(2) 0.85870(2) 0.25053(2)
S6_12 S 0.35870(2) 0.91380(2) 0.25053(2)
O7_12 O 0.46509(9) 0.76686(5) 0.23314(5)
O8_12 O 0.53491(9) 0.73314(5) 0.26686(5)
O9_12 O 0.46509(9) 0.73314(5) 0.26686(5)
O10_12 O 0.68004(3) 0.78221(4) 0.02679(3)
O11_12 O 0.47321(3) 0.81996(3) 0.21779(4)
O12_12 O 0.31996(3) 0.97321(3) 0.21779(4)
O13_12 O 0.47321(3) 0.78221(4) 0.18004(3)
O14_12 O 0.52679(3) 0.81996(3) 0.21779(4)
O15_12 O 0.42122(6) 0.77287(7) 0.27287(7)
O16_12 O 0.68625(5) 0.74391(5) 0.04968(5)
O17_12 O 0.45032(5) 0.81375(5) 0.25609(5)
O18_12 O 0.31375(5) 0.95032(5) 0.25609(5)
O19_12 O 0.54968(5) 0.68625(5) 0.24391(5)
O20_12 O 0.45032(5) 0.75609(5) 0.31375(5)
O21_12 O 0.5000 0.74211(6) 0.20794(9)
O22_12 O 0.5000 0.70794(9) 0.24211(6)
O23_12 O 0.5000 0.75789(6) 0.29206(9)
O24_12 O 0.46647(11) 0.80573(5) 0.30573(5)
C6_12 C 0.65054(7) 0.77175(8) 0.06119(7)
C7_12 C 0.43881(7) 0.84946(7) 0.22825(8)
C8_12 C 0.34946(7) 0.93881(7) 0.22825(8)
C9_12 C 0.63521(9) 0.79390(9) 0.06046(9)
C10_12 C 0.43954(9) 0.86479(9) 0.20610(9)
C11_12 C 0.36479(9) 0.93954(9) 0.20610(9)
H2_12 H 0.6377 0.8080 0.0486
H3_12 H 0.4514 0.8623 0.1920
H4_12 H 0.3623 0.9514 0.1920
C12_12 C 0.61485(10) 0.79284(10) 0.08001(10)
C13_12 C 0.41999(10) 0.88515(10) 0.20716(10)
C14_12 C 0.38515(10) 0.91999(10) 0.20716(10)
C15_12 C 0.67418(6) 0.76544(6) 0.04453(6)
C16_12 C 0.45547(6) 0.82582(6) 0.23456(6)
C17_12 C 0.32582(6) 0.95547(6) 0.23456(6)
C18_12 C 0.61563(8) 0.77008(9) 0.09550(8)
C19_12 C 0.40450(8) 0.88437(8) 0.22992(9)
C20_12 C 0.38437(8) 0.90450(8) 0.22992(9)
Zr3_24 Zr 0.715130(5) 0.784870(5) 1.0000
O5_13 O 0.25789(6) 0.0000 0.70794(9)
Zr8_13 Zr 0.225027(4) 0.035399(6) 0.774973(4)
S3_13 S 0.18539(5) 0.08942(5) 0.58942(5)
S5_13 S 0.25053(2) 0.08620(2) 0.64130(2)
S6_13 S 0.25053(2) 0.14130(2) 0.58620(2)
O7_13 O 0.23314(5) 0.03491(9) 0.73314(5)
O9_13 O 0.26686(5) 0.03491(9) 0.76686(5)
O11_13 O 0.21779(4) 0.02679(3) 0.68004(3)
O13_13 O 0.18004(3) 0.02679(3) 0.71779(4)
O15_13 O 0.27287(7) 0.07878(6) 0.72713(7)
O17_13 O 0.25609(5) 0.04968(5) 0.68625(5)
O18_13 O 0.25609(5) 0.18625(5) 0.54968(5)
O21_13 O 0.20794(9) 0.0000 0.75789(6)
O22_13 O 0.24211(6) -0.0000 0.79206(9)
O23_13 O 0.29206(9) 0.0000 0.74211(6)
O24_13 O 0.30573(5) 0.03353(11) 0.69427(5)
C7_13 C 0.22825(8) 0.06119(7) 0.65054(7)
C8_13 C 0.22825(8) 0.15054(7) 0.56119(7)
C10_13 C 0.20610(9) 0.06046(9) 0.63521(9)
C11_13 C 0.20610(9) 0.13521(9) 0.56046(9)
H3_13 H 0.1920 0.0486 0.6377
H4_13 H 0.1920 0.1377 0.5486
C13_13 C 0.20716(10) 0.08001(10) 0.61485(10)
C14_13 C 0.20716(10) 0.11485(10) 0.58001(10)
C16_13 C 0.23456(6) 0.04453(6) 0.67418(6)
C17_13 C 0.23456(6) 0.17418(6) 0.54453(6)
C19_13 C 0.22992(9) 0.09550(8) 0.61563(8)
C20_13 C 0.22992(9) 0.11563(8) 0.59550(8)
Zr2_13 Zr 0.225027(4) 0.964601(6) 0.774973(4)
S1_13 S 0.08942(5) 0.91058(5) 0.68539(5)
S2_13 S 0.14130(2) 0.91380(2) 0.75053(2)
O1_13 O 0.23314(5) 0.96509(9) 0.73314(5)
O2_13 O 0.18004(3) 0.97321(3) 0.71779(4)
O3_13 O 0.22713(7) 0.92122(6) 0.77287(7)
O4_13 O 0.18625(5) 0.95032(5) 0.75609(5)
O5_14 O 0.25789(6) 1.0000 0.70794(9)
O6_13 O 0.19427(5) 0.96647(11) 0.80573(5)
C1_13 C 0.15054(7) 0.93881(7) 0.72825(8)
C2_13 C 0.13521(9) 0.93954(9) 0.70610(9)
H1_13 H 0.1377 0.9514 0.6920
C3_13 C 0.11485(10) 0.91999(10) 0.70716(10)
C4_13 C 0.17418(6) 0.95547(6) 0.73456(6)
C5_13 C 0.11563(8) 0.90450(8) 0.72992(9)
Zr7_13 Zr 0.035399(6) 0.774973(4) 0.774973(4)
S4_13 S 0.08620(2) 0.85870(2) 0.75053(2)
O8_13 O 0.26686(5) 0.96509(9) 0.76686(5)
O10_13 O 0.02679(3) 0.81996(3) 0.71779(4)
O16_13 O 0.04968(5) 0.81375(5) 0.75609(5)
O19_13 O 0.24391(5) 0.95032(5) 0.81375(5)
O21_14 O 0.20794(9) 1.0000 0.75789(6)
O22_14 O 0.24211(6) 1.0000 0.79206(9)
O23_14 O 0.29206(9) 1.0000 0.74211(6)
C6_13 C 0.06119(7) 0.84946(7) 0.72825(8)
C9_13 C 0.06046(9) 0.86479(9) 0.70610(9)
H2_13 H 0.0486 0.8623 0.6920
C12_13 C 0.08001(10) 0.88515(10) 0.70716(10)
C15_13 C 0.04453(6) 0.82582(6) 0.73456(6)
C18_13 C 0.09550(8) 0.88437(8) 0.72992(9)
Zr2_14 Zr 0.774973(4) 0.035399(6) 0.774973(4)
S1_14 S 0.91058(5) 0.08942(5) 0.68539(5)
S2_14 S 0.85870(2) 0.08620(2) 0.75053(2)
O1_14 O 0.76686(5) 0.03491(9) 0.73314(5)
O2_14 O 0.81996(3) 0.02679(3) 0.71779(4)
O3_14 O 0.77287(7) 0.07878(6) 0.77287(7)
O4_14 O 0.81375(5) 0.04968(5) 0.75609(5)
O5_15 O 0.74211(6) 0.0000 0.70794(9)
O6_14 O 0.80573(5) 0.03353(11) 0.80573(5)
C1_14 C 0.84946(7) 0.06119(7) 0.72825(8)
C2_14 C 0.86479(9) 0.06046(9) 0.70610(9)
H1_14 H 0.8623 0.0486 0.6920
C3_14 C 0.88515(10) 0.08001(10) 0.70716(10)
C4_14 C 0.82582(6) 0.04453(6) 0.73456(6)
C5_14 C 0.88437(8) 0.09550(8) 0.72992(9)
Zr7_14 Zr 0.964601(6) 0.225027(4) 0.774973(4)
S4_14 S 0.91380(2) 0.14130(2) 0.75053(2)
O8_14 O 0.73314(5) 0.03491(9) 0.76686(5)
O10_14 O 0.97321(3) 0.18004(3) 0.71779(4)
O16_14 O 0.95032(5) 0.18625(5) 0.75609(5)
O19_14 O 0.75609(5) 0.04968(5) 0.81375(5)
O21_15 O 0.79206(9) 0.0000 0.75789(6)
O22_15 O 0.75789(6) -0.0000 0.79206(9)
O23_15 O 0.70794(9) 0.0000 0.74211(6)
C6_14 C 0.93881(7) 0.15054(7) 0.72825(8)
C9_14 C 0.93954(9) 0.13521(9) 0.70610(9)
H2_14 H 0.9514 0.1377 0.6920
C12_14 C 0.91999(10) 0.11485(10) 0.70716(10)
C15_14 C 0.95547(6) 0.17418(6) 0.73456(6)
C18_14 C 0.90450(8) 0.11563(8) 0.72992(9)
O5_16 O 0.74211(6) 1.0000 0.70794(9)
Zr8_14 Zr 0.774973(4) 0.964601(6) 0.774973(4)
S3_14 S 0.81461(5) 0.91058(5) 0.58942(5)
S5_14 S 0.74947(2) 0.91380(2) 0.64130(2)
S6_14 S 0.74947(2) 0.85870(2) 0.58620(2)
O7_14 O 0.76686(5) 0.96509(9) 0.73314(5)
O9_14 O 0.73314(5) 0.96509(9) 0.76686(5)
O11_14 O 0.78221(4) 0.97321(3) 0.68004(3)
O13_14 O 0.81996(3) 0.97321(3) 0.71779(4)
O15_14 O 0.72713(7) 0.92122(6) 0.72713(7)
O17_14 O 0.74391(5) 0.95032(5) 0.68625(5)
O18_14 O 0.74391(5) 0.81375(5) 0.54968(5)
O21_16 O 0.79206(9) 1.0000 0.75789(6)
O22_16 O 0.75789(6) 1.0000 0.79206(9)
O23_16 O 0.70794(9) 1.0000 0.74211(6)
O24_14 O 0.69427(5) 0.96647(11) 0.69427(5)
C7_14 C 0.77175(8) 0.93881(7) 0.65054(7)
C8_14 C 0.77175(8) 0.84946(7) 0.56119(7)
C10_14 C 0.79390(9) 0.93954(9) 0.63521(9)
C11_14 C 0.79390(9) 0.86479(9) 0.56046(9)
H3_14 H 0.8080 0.9514 0.6377
H4_14 H 0.8080 0.8623 0.5486
C13_14 C 0.79284(10) 0.91999(10) 0.61485(10)
C14_14 C 0.79284(10) 0.88515(10) 0.58001(10)
C16_14 C 0.76544(6) 0.95547(6) 0.67418(6)
C17_14 C 0.76544(6) 0.82582(6) 0.54453(6)
C19_14 C 0.77008(9) 0.90450(8) 0.61563(8)
C20_14 C 0.77008(9) 0.88437(8) 0.59550(8)
O5_17 O 0.74211(6) 0.0000 0.29206(9)
Zr8_15 Zr 0.774973(4) 0.035399(6) 0.225027(4)
S3_15 S 0.81461(5) 0.08942(5) 0.41058(5)
S5_15 S 0.74947(2) 0.08620(2) 0.35870(2)
S6_15 S 0.74947(2) 0.14130(2) 0.41380(2)
O7_15 O 0.76686(5) 0.03491(9) 0.26686(5)
O9_15 O 0.73314(5) 0.03491(9) 0.23314(5)
O11_15 O 0.78221(4) 0.02679(3) 0.31996(3)
O13_15 O 0.81996(3) 0.02679(3) 0.28221(4)
O15_15 O 0.72713(7) 0.07878(6) 0.27287(7)
O17_15 O 0.74391(5) 0.04968(5) 0.31375(5)
O18_15 O 0.74391(5) 0.18625(5) 0.45032(5)
O21_17 O 0.79206(9) 0.0000 0.24211(6)
O22_17 O 0.75789(6) -0.0000 0.20794(9)
O23_17 O 0.70794(9) -0.0000 0.25789(6)
O24_15 O 0.69427(5) 0.03353(11) 0.30573(5)
C7_15 C 0.77175(8) 0.06119(7) 0.34946(7)
C8_15 C 0.77175(8) 0.15054(7) 0.43881(7)
C10_15 C 0.79390(9) 0.06046(9) 0.36479(9)
C11_15 C 0.79390(9) 0.13521(9) 0.43954(9)
H3_15 H 0.8080 0.0486 0.3623
H4_15 H 0.8080 0.1377 0.4514
C13_15 C 0.79284(10) 0.08001(10) 0.38515(10)
C14_15 C 0.79284(10) 0.11485(10) 0.41999(10)
C16_15 C 0.76544(6) 0.04453(6) 0.32582(6)
C17_15 C 0.76544(6) 0.17418(6) 0.45547(6)
C19_15 C 0.77008(9) 0.09550(8) 0.38437(8)
C20_15 C 0.77008(9) 0.11563(8) 0.40450(8)
Zr2_15 Zr 0.774973(4) 0.964601(6) 0.225027(4)
S1_15 S 0.91058(5) 0.91058(5) 0.31461(5)
S2_15 S 0.85870(2) 0.91380(2) 0.24947(2)
O1_15 O 0.76686(5) 0.96509(9) 0.26686(5)
O2_15 O 0.81996(3) 0.97321(3) 0.28221(4)
O3_15 O 0.77287(7) 0.92122(6) 0.22713(7)
O4_15 O 0.81375(5) 0.95032(5) 0.24391(5)
O5_18 O 0.74211(6) 1.0000 0.29206(9)
O6_15 O 0.80573(5) 0.96647(11) 0.19427(5)
C1_15 C 0.84946(7) 0.93881(7) 0.27175(8)
C2_15 C 0.86479(9) 0.93954(9) 0.29390(9)
H1_15 H 0.8623 0.9514 0.3080
C3_15 C 0.88515(10) 0.91999(10) 0.29284(10)
C4_15 C 0.82582(6) 0.95547(6) 0.26544(6)
C5_15 C 0.88437(8) 0.90450(8) 0.27008(9)
Zr7_15 Zr 0.964601(6) 0.774973(4) 0.225027(4)
S4_15 S 0.91380(2) 0.85870(2) 0.24947(2)
O8_15 O 0.73314(5) 0.96509(9) 0.23314(5)
O10_15 O 0.97321(3) 0.81996(3) 0.28221(4)
O16_15 O 0.95032(5) 0.81375(5) 0.24391(5)
O19_15 O 0.75609(5) 0.95032(5) 0.18625(5)
O21_18 O 0.79206(9) 1.0000 0.24211(6)
O22_18 O 0.75789(6) 1.0000 0.20794(9)
O23_18 O 0.70794(9) 1.0000 0.25789(6)
C6_15 C 0.93881(7) 0.84946(7) 0.27175(8)
C9_15 C 0.93954(9) 0.86479(9) 0.29390(9)
H2_15 H 0.9514 0.8623 0.3080
C12_15 C 0.91999(10) 0.88515(10) 0.29284(10)
C15_15 C 0.95547(6) 0.82582(6) 0.26544(6)
C18_15 C 0.90450(8) 0.88437(8) 0.27008(9)
Zr2_16 Zr 0.225027(4) 0.035399(6) 0.225027(4)
S1_16 S 0.08942(5) 0.08942(5) 0.31461(5)
S2_16 S 0.14130(2) 0.08620(2) 0.24947(2)
O1_16 O 0.23314(5) 0.03491(9) 0.26686(5)
O2_16 O 0.18004(3) 0.02679(3) 0.28221(4)
O3_16 O 0.22713(7) 0.07878(6) 0.22713(7)
O4_16 O 0.18625(5) 0.04968(5) 0.24391(5)
O5_19 O 0.25789(6) 0.0000 0.29206(9)
O6_16 O 0.19427(5) 0.03353(11) 0.19427(5)
C1_16 C 0.15054(7) 0.06119(7) 0.27175(8)
C2_16 C 0.13521(9) 0.06046(9) 0.29390(9)
H1_16 H 0.1377 0.0486 0.3080
C3_16 C 0.11485(10) 0.08001(10) 0.29284(10)
C4_16 C 0.17418(6) 0.04453(6) 0.26544(6)
C5_16 C 0.11563(8) 0.09550(8) 0.27008(9)
Zr7_16 Zr 0.035399(6) 0.225027(4) 0.225027(4)
S4_16 S 0.08620(2) 0.14130(2) 0.24947(2)
O8_16 O 0.26686(5) 0.03491(9) 0.23314(5)
O10_16 O 0.02679(3) 0.18004(3) 0.28221(4)
O16_16 O 0.04968(5) 0.18625(5) 0.24391(5)
O19_16 O 0.24391(5) 0.04968(5) 0.18625(5)
O21_19 O 0.20794(9) 0.0000 0.24211(6)
O22_19 O 0.24211(6) -0.0000 0.20794(9)
O23_19 O 0.29206(9) -0.0000 0.25789(6)
C6_16 C 0.06119(7) 0.15054(7) 0.27175(8)
C9_16 C 0.06046(9) 0.13521(9) 0.29390(9)
H2_16 H 0.0486 0.1377 0.3080
C12_16 C 0.08001(10) 0.11485(10) 0.29284(10)
C15_16 C 0.04453(6) 0.17418(6) 0.26544(6)
C18_16 C 0.09550(8) 0.11563(8) 0.27008(9)
O5_20 O 0.25789(6) 1.0000 0.29206(9)
Zr8_16 Zr 0.225027(4) 0.964601(6) 0.225027(4)
S3_16 S 0.18539(5) 0.91058(5) 0.41058(5)
S5_16 S 0.25053(2) 0.91380(2) 0.35870(2)
S6_16 S 0.25053(2) 0.85870(2) 0.41380(2)
O7_16 O 0.23314(5) 0.96509(9) 0.26686(5)
O9_16 O 0.26686(5) 0.96509(9) 0.23314(5)
O11_16 O 0.21779(4) 0.97321(3) 0.31996(3)
O13_16 O 0.18004(3) 0.97321(3) 0.28221(4)
O15_16 O 0.27287(7) 0.92122(6) 0.27287(7)
O17_16 O 0.25609(5) 0.95032(5) 0.31375(5)
O18_16 O 0.25609(5) 0.81375(5) 0.45032(5)
O21_20 O 0.20794(9) 1.0000 0.24211(6)
O22_20 O 0.24211(6) 1.0000 0.20794(9)
O23_20 O 0.29206(9) 1.0000 0.25789(6)
O24_16 O 0.30573(5) 0.96647(11) 0.30573(5)
C7_16 C 0.22825(8) 0.93881(7) 0.34946(7)
C8_16 C 0.22825(8) 0.84946(7) 0.43881(7)
C10_16 C 0.20610(9) 0.93954(9) 0.36479(9)
C11_16 C 0.20610(9) 0.86479(9) 0.43954(9)
H3_16 H 0.1920 0.9514 0.3623
H4_16 H 0.1920 0.8623 0.4514
C13_16 C 0.20716(10) 0.91999(10) 0.38515(10)
C14_16 C 0.20716(10) 0.88515(10) 0.41999(10)
C16_16 C 0.23456(6) 0.95547(6) 0.32582(6)
C17_16 C 0.23456(6) 0.82582(6) 0.45547(6)
C19_16 C 0.22992(9) 0.90450(8) 0.38437(8)
C20_16 C 0.22992(9) 0.88437(8) 0.40450(8)
O5_21 O 0.20794(9) 0.75789(6) 0.0000
Zr5_13 Zr 0.225027(4) 0.774973(4) 0.035399(6)
Zr9_13 Zr 0.035399(6) 0.774973(4) 0.225027(4)
S3_17 S 0.08942(5) 0.68539(5) 0.08942(5)
S5_17 S 0.14130(2) 0.75053(2) 0.08620(2)
S6_17 S 0.08620(2) 0.75053(2) 0.14130(2)
O7_17 O 0.23314(5) 0.73314(5) 0.03491(9)
O9_17 O 0.26686(5) 0.76686(5) 0.03491(9)
O11_17 O 0.18004(3) 0.71779(4) 0.02679(3)
O12_13 O 0.02679(3) 0.71779(4) 0.18004(3)
O15_17 O 0.22713(7) 0.77287(7) 0.07878(6)
O17_17 O 0.18625(5) 0.75609(5) 0.04968(5)
O18_17 O 0.04968(5) 0.75609(5) 0.18625(5)
O20_13 O 0.24391(5) 0.81375(5) 0.04968(5)
O21_21 O 0.25789(6) 0.70794(9) 0.0000
O22_21 O 0.29206(9) 0.74211(6) 0.0000
O23_21 O 0.24211(6) 0.79206(9) 0.0000
O24_17 O 0.19427(5) 0.80573(5) 0.03353(11)
C7_17 C 0.15054(7) 0.72825(8) 0.06119(7)
C8_17 C 0.06119(7) 0.72825(8) 0.15054(7)
C10_17 C 0.13521(9) 0.70610(9) 0.06046(9)
C11_17 C 0.06046(9) 0.70610(9) 0.13521(9)
H3_17 H 0.1377 0.6920 0.0486
H4_17 H 0.0486 0.6920 0.1377
C13_17 C 0.11485(10) 0.70716(10) 0.08001(10)
C14_17 C 0.08001(10) 0.70716(10) 0.11485(10)
C16_17 C 0.17418(6) 0.73456(6) 0.04453(6)
C17_17 C 0.04453(6) 0.73456(6) 0.17418(6)
C19_17 C 0.11563(8) 0.72992(9) 0.09550(8)
C20_17 C 0.09550(8) 0.72992(9) 0.11563(8)
S1_17 S 0.18539(5) 0.58942(5) 0.91058(5)
S2_17 S 0.25053(2) 0.64130(2) 0.91380(2)
O1_17 O 0.23314(5) 0.73314(5) 0.96509(9)
O2_17 O 0.21779(4) 0.68004(3) 0.97321(3)
O3_17 O 0.27287(7) 0.72713(7) 0.92122(6)
O4_17 O 0.25609(5) 0.68625(5) 0.95032(5)
O5_22 O 0.20794(9) 0.75789(6) 1.0000
O6_17 O 0.30573(5) 0.69427(5) 0.96647(11)
C1_17 C 0.22825(8) 0.65054(7) 0.93881(7)
C2_17 C 0.20610(9) 0.63521(9) 0.93954(9)
H1_17 H 0.1920 0.6377 0.9514
C3_17 C 0.20716(10) 0.61485(10) 0.91999(10)
C4_17 C 0.23456(6) 0.67418(6) 0.95547(6)
C5_17 C 0.22992(9) 0.61563(8) 0.90450(8)
Zr6_13 Zr 0.225027(4) 0.774973(4) 0.964601(6)
S4_17 S 0.25053(2) 0.58620(2) 0.85870(2)
O8_17 O 0.26686(5) 0.76686(5) 0.96509(9)
O14_13 O 0.18004(3) 0.71779(4) 0.97321(3)
O16_17 O 0.25609(5) 0.54968(5) 0.81375(5)
O21_22 O 0.25789(6) 0.70794(9) 1.0000
O22_22 O 0.29206(9) 0.74211(6) 1.0000
O23_22 O 0.24211(6) 0.79206(9) 1.0000
C6_17 C 0.22825(8) 0.56119(7) 0.84946(7)
C9_17 C 0.20610(9) 0.56046(9) 0.86479(9)
H2_17 H 0.1920 0.5486 0.8623
C12_17 C 0.20716(10) 0.58001(10) 0.88515(10)
C15_17 C 0.23456(6) 0.54453(6) 0.82582(6)
C18_17 C 0.22992(9) 0.59550(8) 0.88437(8)
S1_18 S 0.18539(5) 0.41058(5) 0.08942(5)
S2_18 S 0.25053(2) 0.35870(2) 0.08620(2)
O1_18 O 0.23314(5) 0.26686(5) 0.03491(9)
O2_18 O 0.21779(4) 0.31996(3) 0.02679(3)
O3_18 O 0.27287(7) 0.27287(7) 0.07878(6)
O4_18 O 0.25609(5) 0.31375(5) 0.04968(5)
O5_23 O 0.20794(9) 0.24211(6) 0.0000
O6_18 O 0.30573(5) 0.30573(5) 0.03353(11)
C1_18 C 0.22825(8) 0.34946(7) 0.06119(7)
C2_18 C 0.20610(9) 0.36479(9) 0.06046(9)
H1_18 H 0.1920 0.3623 0.0486
C3_18 C 0.20716(10) 0.38515(10) 0.08001(10)
C4_18 C 0.23456(6) 0.32582(6) 0.04453(6)
C5_18 C 0.22992(9) 0.38437(8) 0.09550(8)
Zr6_14 Zr 0.225027(4) 0.225027(4) 0.035399(6)
S4_18 S 0.25053(2) 0.41380(2) 0.14130(2)
O8_18 O 0.26686(5) 0.23314(5) 0.03491(9)
O14_14 O 0.18004(3) 0.28221(4) 0.02679(3)
O16_18 O 0.25609(5) 0.45032(5) 0.18625(5)
O21_23 O 0.25789(6) 0.29206(9) 0.0000
O22_23 O 0.29206(9) 0.25789(6) 0.0000
O23_23 O 0.24211(6) 0.20794(9) 0.0000
C6_18 C 0.22825(8) 0.43881(7) 0.15054(7)
C9_18 C 0.20610(9) 0.43954(9) 0.13521(9)
H2_18 H 0.1920 0.4514 0.1377
C12_18 C 0.20716(10) 0.41999(10) 0.11485(10)
C15_18 C 0.23456(6) 0.45547(6) 0.17418(6)
C18_18 C 0.22992(9) 0.40450(8) 0.11563(8)
O5_24 O 0.20794(9) 0.24211(6) 1.0000
Zr5_14 Zr 0.225027(4) 0.225027(4) 0.964601(6)
Zr9_14 Zr 0.035399(6) 0.225027(4) 0.774973(4)
S3_18 S 0.08942(5) 0.31461(5) 0.91058(5)
S5_18 S 0.14130(2) 0.24947(2) 0.91380(2)
S6_18 S 0.08620(2) 0.24947(2) 0.85870(2)
O7_18 O 0.23314(5) 0.26686(5) 0.96509(9)
O9_18 O 0.26686(5) 0.23314(5) 0.96509(9)
O11_18 O 0.18004(3) 0.28221(4) 0.97321(3)
O12_14 O 0.02679(3) 0.28221(4) 0.81996(3)
O15_18 O 0.22713(7) 0.22713(7) 0.92122(6)
O17_18 O 0.18625(5) 0.24391(5) 0.95032(5)
O18_18 O 0.04968(5) 0.24391(5) 0.81375(5)
O20_14 O 0.24391(5) 0.18625(5) 0.95032(5)
O21_24 O 0.25789(6) 0.29206(9) 1.0000
O22_24 O 0.29206(9) 0.25789(6) 1.0000
O23_24 O 0.24211(6) 0.20794(9) 1.0000
O24_18 O 0.19427(5) 0.19427(5) 0.96647(11)
C7_18 C 0.15054(7) 0.27175(8) 0.93881(7)
C8_18 C 0.06119(7) 0.27175(8) 0.84946(7)
C10_18 C 0.13521(9) 0.29390(9) 0.93954(9)
C11_18 C 0.06046(9) 0.29390(9) 0.86479(9)
H3_18 H 0.1377 0.3080 0.9514
H4_18 H 0.0486 0.3080 0.8623
C13_18 C 0.11485(10) 0.29284(10) 0.91999(10)
C14_18 C 0.08001(10) 0.29284(10) 0.88515(10)
C16_18 C 0.17418(6) 0.26544(6) 0.95547(6)
C17_18 C 0.04453(6) 0.26544(6) 0.82582(6)
C19_18 C 0.11563(8) 0.27008(9) 0.90450(8)
C20_18 C 0.09550(8) 0.27008(9) 0.88437(8)
O5_25 O 0.79206(9) 0.24211(6) 0.0000
Zr5_15 Zr 0.774973(4) 0.225027(4) 0.035399(6)
Zr9_15 Zr 0.964601(6) 0.225027(4) 0.225027(4)
S3_19 S 0.91058(5) 0.31461(5) 0.08942(5)
S5_19 S 0.85870(2) 0.24947(2) 0.08620(2)
S6_19 S 0.91380(2) 0.24947(2) 0.14130(2)
O7_19 O 0.76686(5) 0.26686(5) 0.03491(9)
O9_19 O 0.73314(5) 0.23314(5) 0.03491(9)
O11_19 O 0.81996(3) 0.28221(4) 0.02679(3)
O12_15 O 0.97321(3) 0.28221(4) 0.18004(3)
O15_19 O 0.77287(7) 0.22713(7) 0.07878(6)
O17_19 O 0.81375(5) 0.24391(5) 0.04968(5)
O18_19 O 0.95032(5) 0.24391(5) 0.18625(5)
O20_15 O 0.75609(5) 0.18625(5) 0.04968(5)
O21_25 O 0.74211(6) 0.29206(9) 0.0000
O22_25 O 0.70794(9) 0.25789(6) 0.0000
O23_25 O 0.75789(6) 0.20794(9) 0.0000
O24_19 O 0.80573(5) 0.19427(5) 0.03353(11)
C7_19 C 0.84946(7) 0.27175(8) 0.06119(7)
C8_19 C 0.93881(7) 0.27175(8) 0.15054(7)
C10_19 C 0.86479(9) 0.29390(9) 0.06046(9)
C11_19 C 0.93954(9) 0.29390(9) 0.13521(9)
H3_19 H 0.8623 0.3080 0.0486
H4_19 H 0.9514 0.3080 0.1377
C13_19 C 0.88515(10) 0.29284(10) 0.08001(10)
C14_19 C 0.91999(10) 0.29284(10) 0.11485(10)
C16_19 C 0.82582(6) 0.26544(6) 0.04453(6)
C17_19 C 0.95547(6) 0.26544(6) 0.17418(6)
C19_19 C 0.88437(8) 0.27008(9) 0.09550(8)
C20_19 C 0.90450(8) 0.27008(9) 0.11563(8)
S1_19 S 0.81461(5) 0.41058(5) 0.91058(5)
S2_19 S 0.74947(2) 0.35870(2) 0.91380(2)
O1_19 O 0.76686(5) 0.26686(5) 0.96509(9)
O2_19 O 0.78221(4) 0.31996(3) 0.97321(3)
O3_19 O 0.72713(7) 0.27287(7) 0.92122(6)
O4_19 O 0.74391(5) 0.31375(5) 0.95032(5)
O5_26 O 0.79206(9) 0.24211(6) 1.0000
O6_19 O 0.69427(5) 0.30573(5) 0.96647(11)
C1_19 C 0.77175(8) 0.34946(7) 0.93881(7)
C2_19 C 0.79390(9) 0.36479(9) 0.93954(9)
H1_19 H 0.8080 0.3623 0.9514
C3_19 C 0.79284(10) 0.38515(10) 0.91999(10)
C4_19 C 0.76544(6) 0.32582(6) 0.95547(6)
C5_19 C 0.77008(9) 0.38437(8) 0.90450(8)
Zr6_15 Zr 0.774973(4) 0.225027(4) 0.964601(6)
S4_19 S 0.74947(2) 0.41380(2) 0.85870(2)
O8_19 O 0.73314(5) 0.23314(5) 0.96509(9)
O14_15 O 0.81996(3) 0.28221(4) 0.97321(3)
O16_19 O 0.74391(5) 0.45032(5) 0.81375(5)
O21_26 O 0.74211(6) 0.29206(9) 1.0000
O22_26 O 0.70794(9) 0.25789(6) 1.0000
O23_26 O 0.75789(6) 0.20794(9) 1.0000
C6_19 C 0.77175(8) 0.43881(7) 0.84946(7)
C9_19 C 0.79390(9) 0.43954(9) 0.86479(9)
H2_19 H 0.8080 0.4514 0.8623
C12_19 C 0.79284(10) 0.41999(10) 0.88515(10)
C15_19 C 0.76544(6) 0.45547(6) 0.82582(6)
C18_19 C 0.77008(9) 0.40450(8) 0.88437(8)
S1_20 S 0.81461(5) 0.58942(5) 0.08942(5)
S2_20 S 0.74947(2) 0.64130(2) 0.08620(2)
O1_20 O 0.76686(5) 0.73314(5) 0.03491(9)
O2_20 O 0.78221(4) 0.68004(3) 0.02679(3)
O3_20 O 0.72713(7) 0.72713(7) 0.07878(6)
O4_20 O 0.74391(5) 0.68625(5) 0.04968(5)
O5_27 O 0.79206(9) 0.75789(6) 0.0000
O6_20 O 0.69427(5) 0.69427(5) 0.03353(11)
C1_20 C 0.77175(8) 0.65054(7) 0.06119(7)
C2_20 C 0.79390(9) 0.63521(9) 0.06046(9)
H1_20 H 0.8080 0.6377 0.0486
C3_20 C 0.79284(10) 0.61485(10) 0.08001(10)
C4_20 C 0.76544(6) 0.67418(6) 0.04453(6)
C5_20 C 0.77008(9) 0.61563(8) 0.09550(8)
Zr6_16 Zr 0.774973(4) 0.774973(4) 0.035399(6)
S4_20 S 0.74947(2) 0.58620(2) 0.14130(2)
O8_20 O 0.73314(5) 0.76686(5) 0.03491(9)
O14_16 O 0.81996(3) 0.71779(4) 0.02679(3)
O16_20 O 0.74391(5) 0.54968(5) 0.18625(5)
O21_27 O 0.74211(6) 0.70794(9) 0.0000
O22_27 O 0.70794(9) 0.74211(6) 0.0000
O23_27 O 0.75789(6) 0.79206(9) 0.0000
C6_20 C 0.77175(8) 0.56119(7) 0.15054(7)
C9_20 C 0.79390(9) 0.56046(9) 0.13521(9)
H2_20 H 0.8080 0.5486 0.1377
C12_20 C 0.79284(10) 0.58001(10) 0.11485(10)
C15_20 C 0.76544(6) 0.54453(6) 0.17418(6)
C18_20 C 0.77008(9) 0.59550(8) 0.11563(8)
O5_28 O 0.79206(9) 0.75789(6) 1.0000
Zr5_16 Zr 0.774973(4) 0.774973(4) 0.964601(6)
Zr9_16 Zr 0.964601(6) 0.774973(4) 0.774973(4)
S3_20 S 0.91058(5) 0.68539(5) 0.91058(5)
S5_20 S 0.85870(2) 0.75053(2) 0.91380(2)
S6_20 S 0.91380(2) 0.75053(2) 0.85870(2)
O7_20 O 0.76686(5) 0.73314(5) 0.96509(9)
O9_20 O 0.73314(5) 0.76686(5) 0.96509(9)
O11_20 O 0.81996(3) 0.71779(4) 0.97321(3)
O12_16 O 0.97321(3) 0.71779(4) 0.81996(3)
O15_20 O 0.77287(7) 0.77287(7) 0.92122(6)
O17_20 O 0.81375(5) 0.75609(5) 0.95032(5)
O18_20 O 0.95032(5) 0.75609(5) 0.81375(5)
O20_16 O 0.75609(5) 0.81375(5) 0.95032(5)
O21_28 O 0.74211(6) 0.70794(9) 1.0000
O22_28 O 0.70794(9) 0.74211(6) 1.0000
O23_28 O 0.75789(6) 0.79206(9) 1.0000
O24_20 O 0.80573(5) 0.80573(5) 0.96647(11)
C7_20 C 0.84946(7) 0.72825(8) 0.93881(7)
C8_20 C 0.93881(7) 0.72825(8) 0.84946(7)
C10_20 C 0.86479(9) 0.70610(9) 0.93954(9)
C11_20 C 0.93954(9) 0.70610(9) 0.86479(9)
H3_20 H 0.8623 0.6920 0.9514
H4_20 H 0.9514 0.6920 0.8623
C13_20 C 0.88515(10) 0.70716(10) 0.91999(10)
C14_20 C 0.91999(10) 0.70716(10) 0.88515(10)
C16_20 C 0.82582(6) 0.73456(6) 0.95547(6)
C17_20 C 0.95547(6) 0.73456(6) 0.82582(6)
C19_20 C 0.88437(8) 0.72992(9) 0.90450(8)
C20_20 C 0.90450(8) 0.72992(9) 0.88437(8)
Zr1_13 Zr 0.5000 0.715130(5) 0.715130(5)
S1_21 S 0.41058(5) 0.68539(5) 0.58942(5)
S2_21 S 0.41380(2) 0.75053(2) 0.64130(2)
O2_21 O 0.47321(3) 0.71779(4) 0.68004(3)
O3_21 O 0.42122(6) 0.77287(7) 0.72713(7)
O4_21 O 0.45032(5) 0.75609(5) 0.68625(5)
O6_21 O 0.46647(11) 0.80573(5) 0.69427(5)
C1_21 C 0.43881(7) 0.72825(8) 0.65054(7)
C2_21 C 0.43954(9) 0.70610(9) 0.63521(9)
H1_21 H 0.4514 0.6920 0.6377
C3_21 C 0.41999(10) 0.70716(10) 0.61485(10)
C4_21 C 0.45547(6) 0.73456(6) 0.67418(6)
C5_21 C 0.40450(8) 0.72992(9) 0.61563(8)
Zr3_25 Zr 0.284870(5) 0.715130(5) 0.5000
Zr4_25 Zr 0.715130(5) 0.5000 0.715130(5)
S3_21 S 0.58942(5) 0.58942(5) 0.68539(5)
S4_21 S 0.35870(2) 0.75053(2) 0.58620(2)
S5_21 S 0.58620(2) 0.64130(2) 0.75053(2)
S6_21 S 0.64130(2) 0.58620(2) 0.75053(2)
O10_17 O 0.31996(3) 0.71779(4) 0.52679(3)
O11_21 O 0.52679(3) 0.68004(3) 0.71779(4)
O12_17 O 0.68004(3) 0.52679(3) 0.71779(4)
O13_17 O 0.52679(3) 0.71779(4) 0.68004(3)
O14_17 O 0.47321(3) 0.68004(3) 0.71779(4)
O15_21 O 0.57878(6) 0.72713(7) 0.77287(7)
O17_21 O 0.54968(5) 0.68625(5) 0.75609(5)
O19_17 O 0.45032(5) 0.81375(5) 0.74391(5)
O20_17 O 0.54968(5) 0.74391(5) 0.81375(5)
O24_21 O 0.53353(11) 0.69427(5) 0.80573(5)
C6_21 C 0.34946(7) 0.72825(8) 0.56119(7)
C7_21 C 0.56119(7) 0.65054(7) 0.72825(8)
C8_21 C 0.65054(7) 0.56119(7) 0.72825(8)
C9_21 C 0.36479(9) 0.70610(9) 0.56046(9)
C10_21 C 0.56046(9) 0.63521(9) 0.70610(9)
C11_21 C 0.63521(9) 0.56046(9) 0.70610(9)
H2_21 H 0.3623 0.6920 0.5486
H3_21 H 0.5486 0.6377 0.6920
H4_21 H 0.6377 0.5486 0.6920
C12_21 C 0.38515(10) 0.70716(10) 0.58001(10)
C13_21 C 0.58001(10) 0.61485(10) 0.70716(10)
C14_21 C 0.61485(10) 0.58001(10) 0.70716(10)
C15_21 C 0.32582(6) 0.73456(6) 0.54453(6)
C16_21 C 0.54453(6) 0.67418(6) 0.73456(6)
C17_21 C 0.67418(6) 0.54453(6) 0.73456(6)
C18_21 C 0.38437(8) 0.72992(9) 0.59550(8)
C19_21 C 0.59550(8) 0.61563(8) 0.72992(9)
C20_21 C 0.61563(8) 0.59550(8) 0.72992(9)
Zr1_14 Zr 0.5000 0.715130(5) 0.284870(5)
S1_22 S 0.58942(5) 0.68539(5) 0.41058(5)
S2_22 S 0.58620(2) 0.75053(2) 0.35870(2)
O2_22 O 0.52679(3) 0.71779(4) 0.31996(3)
O3_22 O 0.57878(6) 0.77287(7) 0.27287(7)
O4_22 O 0.54968(5) 0.75609(5) 0.31375(5)
O6_22 O 0.53353(11) 0.80573(5) 0.30573(5)
C1_22 C 0.56119(7) 0.72825(8) 0.34946(7)
C2_22 C 0.56046(9) 0.70610(9) 0.36479(9)
H1_22 H 0.5486 0.6920 0.3623
C3_22 C 0.58001(10) 0.70716(10) 0.38515(10)
C4_22 C 0.54453(6) 0.73456(6) 0.32582(6)
C5_22 C 0.59550(8) 0.72992(9) 0.38437(8)
Zr3_26 Zr 0.715130(5) 0.715130(5) 0.5000
Zr4_26 Zr 0.284870(5) 0.5000 0.284870(5)
S3_22 S 0.41058(5) 0.58942(5) 0.31461(5)
S4_22 S 0.64130(2) 0.75053(2) 0.41380(2)
S5_22 S 0.41380(2) 0.64130(2) 0.24947(2)
S6_22 S 0.35870(2) 0.58620(2) 0.24947(2)
O10_18 O 0.68004(3) 0.71779(4) 0.47321(3)
O11_22 O 0.47321(3) 0.68004(3) 0.28221(4)
O12_18 O 0.31996(3) 0.52679(3) 0.28221(4)
O13_18 O 0.47321(3) 0.71779(4) 0.31996(3)
O14_18 O 0.52679(3) 0.68004(3) 0.28221(4)
O15_22 O 0.42122(6) 0.72713(7) 0.22713(7)
O17_22 O 0.45032(5) 0.68625(5) 0.24391(5)
O19_18 O 0.54968(5) 0.81375(5) 0.25609(5)
O20_18 O 0.45032(5) 0.74391(5) 0.18625(5)
O24_22 O 0.46647(11) 0.69427(5) 0.19427(5)
C6_22 C 0.65054(7) 0.72825(8) 0.43881(7)
C7_22 C 0.43881(7) 0.65054(7) 0.27175(8)
C8_22 C 0.34946(7) 0.56119(7) 0.27175(8)
C9_22 C 0.63521(9) 0.70610(9) 0.43954(9)
C10_22 C 0.43954(9) 0.63521(9) 0.29390(9)
C11_22 C 0.36479(9) 0.56046(9) 0.29390(9)
H2_22 H 0.6377 0.6920 0.4514
H3_22 H 0.4514 0.6377 0.3080
H4_22 H 0.3623 0.5486 0.3080
C12_22 C 0.61485(10) 0.70716(10) 0.41999(10)
C13_22 C 0.41999(10) 0.61485(10) 0.29284(10)
C14_22 C 0.38515(10) 0.58001(10) 0.29284(10)
C15_22 C 0.67418(6) 0.73456(6) 0.45547(6)
C16_22 C 0.45547(6) 0.67418(6) 0.26544(6)
C17_22 C 0.32582(6) 0.54453(6) 0.26544(6)
C18_22 C 0.61563(8) 0.72992(9) 0.40450(8)
C19_22 C 0.40450(8) 0.61563(8) 0.27008(9)
C20_22 C 0.38437(8) 0.59550(8) 0.27008(9)
Zr1_15 Zr 0.5000 0.284870(5) 0.284870(5)
S1_23 S 0.41058(5) 0.31461(5) 0.41058(5)
S2_23 S 0.41380(2) 0.24947(2) 0.35870(2)
O2_23 O 0.47321(3) 0.28221(4) 0.31996(3)
O3_23 O 0.42122(6) 0.22713(7) 0.27287(7)
O4_23 O 0.45032(5) 0.24391(5) 0.31375(5)
O6_23 O 0.46647(11) 0.19427(5) 0.30573(5)
C1_23 C 0.43881(7) 0.27175(8) 0.34946(7)
C2_23 C 0.43954(9) 0.29390(9) 0.36479(9)
H1_23 H 0.4514 0.3080 0.3623
C3_23 C 0.41999(10) 0.29284(10) 0.38515(10)
C4_23 C 0.45547(6) 0.26544(6) 0.32582(6)
C5_23 C 0.40450(8) 0.27008(9) 0.38437(8)
Zr3_27 Zr 0.284870(5) 0.284870(5) 0.5000
Zr4_27 Zr 0.715130(5) 0.5000 0.284870(5)
S3_23 S 0.58942(5) 0.41058(5) 0.31461(5)
S4_23 S 0.35870(2) 0.24947(2) 0.41380(2)
S5_23 S 0.58620(2) 0.35870(2) 0.24947(2)
S6_23 S 0.64130(2) 0.41380(2) 0.24947(2)
O10_19 O 0.31996(3) 0.28221(4) 0.47321(3)
O11_23 O 0.52679(3) 0.31996(3) 0.28221(4)
O12_19 O 0.68004(3) 0.47321(3) 0.28221(4)
O13_19 O 0.52679(3) 0.28221(4) 0.31996(3)
O14_19 O 0.47321(3) 0.31996(3) 0.28221(4)
O15_23 O 0.57878(6) 0.27287(7) 0.22713(7)
O17_23 O 0.54968(5) 0.31375(5) 0.24391(5)
O19_19 O 0.45032(5) 0.18625(5) 0.25609(5)
O20_19 O 0.54968(5) 0.25609(5) 0.18625(5)
O24_23 O 0.53353(11) 0.30573(5) 0.19427(5)
C6_23 C 0.34946(7) 0.27175(8) 0.43881(7)
C7_23 C 0.56119(7) 0.34946(7) 0.27175(8)
C8_23 C 0.65054(7) 0.43881(7) 0.27175(8)
C9_23 C 0.36479(9) 0.29390(9) 0.43954(9)
C10_23 C 0.56046(9) 0.36479(9) 0.29390(9)
C11_23 C 0.63521(9) 0.43954(9) 0.29390(9)
H2_23 H 0.3623 0.3080 0.4514
H3_23 H 0.5486 0.3623 0.3080
H4_23 H 0.6377 0.4514 0.3080
C12_23 C 0.38515(10) 0.29284(10) 0.41999(10)
C13_23 C 0.58001(10) 0.38515(10) 0.29284(10)
C14_23 C 0.61485(10) 0.41999(10) 0.29284(10)
C15_23 C 0.32582(6) 0.26544(6) 0.45547(6)
C16_23 C 0.54453(6) 0.32582(6) 0.26544(6)
C17_23 C 0.67418(6) 0.45547(6) 0.26544(6)
C18_23 C 0.38437(8) 0.27008(9) 0.40450(8)
C19_23 C 0.59550(8) 0.38437(8) 0.27008(9)
C20_23 C 0.61563(8) 0.40450(8) 0.27008(9)
Zr1_16 Zr 0.5000 0.284870(5) 0.715130(5)
S1_24 S 0.58942(5) 0.31461(5) 0.58942(5)
S2_24 S 0.58620(2) 0.24947(2) 0.64130(2)
O2_24 O 0.52679(3) 0.28221(4) 0.68004(3)
O3_24 O 0.57878(6) 0.22713(7) 0.72713(7)
O4_24 O 0.54968(5) 0.24391(5) 0.68625(5)
O6_24 O 0.53353(11) 0.19427(5) 0.69427(5)
C1_24 C 0.56119(7) 0.27175(8) 0.65054(7)
C2_24 C 0.56046(9) 0.29390(9) 0.63521(9)
H1_24 H 0.5486 0.3080 0.6377
C3_24 C 0.58001(10) 0.29284(10) 0.61485(10)
C4_24 C 0.54453(6) 0.26544(6) 0.67418(6)
C5_24 C 0.59550(8) 0.27008(9) 0.61563(8)
Zr3_28 Zr 0.715130(5) 0.284870(5) 0.5000
Zr4_28 Zr 0.284870(5) 0.5000 0.715130(5)
S3_24 S 0.41058(5) 0.41058(5) 0.68539(5)
S4_24 S 0.64130(2) 0.24947(2) 0.58620(2)
S5_24 S 0.41380(2) 0.35870(2) 0.75053(2)
S6_24 S 0.35870(2) 0.41380(2) 0.75053(2)
O10_20 O 0.68004(3) 0.28221(4) 0.52679(3)
O11_24 O 0.47321(3) 0.31996(3) 0.71779(4)
O12_20 O 0.31996(3) 0.47321(3) 0.71779(4)
O13_20 O 0.47321(3) 0.28221(4) 0.68004(3)
O14_20 O 0.52679(3) 0.31996(3) 0.71779(4)
O15_24 O 0.42122(6) 0.27287(7) 0.77287(7)
O17_24 O 0.45032(5) 0.31375(5) 0.75609(5)
O19_20 O 0.54968(5) 0.18625(5) 0.74391(5)
O20_20 O 0.45032(5) 0.25609(5) 0.81375(5)
O24_24 O 0.46647(11) 0.30573(5) 0.80573(5)
C6_24 C 0.65054(7) 0.27175(8) 0.56119(7)
C7_24 C 0.43881(7) 0.34946(7) 0.72825(8)
C8_24 C 0.34946(7) 0.43881(7) 0.72825(8)
C9_24 C 0.63521(9) 0.29390(9) 0.56046(9)
C10_24 C 0.43954(9) 0.36479(9) 0.70610(9)
C11_24 C 0.36479(9) 0.43954(9) 0.70610(9)
H2_24 H 0.6377 0.3080 0.5486
H3_24 H 0.4514 0.3623 0.6920
H4_24 H 0.3623 0.4514 0.6920
C12_24 C 0.61485(10) 0.29284(10) 0.58001(10)
C13_24 C 0.41999(10) 0.38515(10) 0.70716(10)
C14_24 C 0.38515(10) 0.41999(10) 0.70716(10)
C15_24 C 0.67418(6) 0.26544(6) 0.54453(6)
C16_24 C 0.45547(6) 0.32582(6) 0.73456(6)
C17_24 C 0.32582(6) 0.45547(6) 0.73456(6)
C18_24 C 0.61563(8) 0.27008(9) 0.59550(8)
C19_24 C 0.40450(8) 0.38437(8) 0.72992(9)
C20_24 C 0.38437(8) 0.40450(8) 0.72992(9)
S1_25 S 0.58942(5) 0.41058(5) 0.68539(5)
S2_25 S 0.64130(2) 0.41380(2) 0.75053(2)
O2_25 O 0.68004(3) 0.47321(3) 0.71779(4)
O3_25 O 0.72713(7) 0.42122(6) 0.77287(7)
O4_25 O 0.68625(5) 0.45032(5) 0.75609(5)
O6_25 O 0.69427(5) 0.46647(11) 0.80573(5)
C1_25 C 0.65054(7) 0.43881(7) 0.72825(8)
C2_25 C 0.63521(9) 0.43954(9) 0.70610(9)
H1_25 H 0.6377 0.4514 0.6920
C3_25 C 0.61485(10) 0.41999(10) 0.70716(10)
C4_25 C 0.67418(6) 0.45547(6) 0.73456(6)
C5_25 C 0.61563(8) 0.40450(8) 0.72992(9)
S3_25 S 0.68539(5) 0.58942(5) 0.58942(5)
S4_25 S 0.58620(2) 0.35870(2) 0.75053(2)
S5_25 S 0.75053(2) 0.58620(2) 0.64130(2)
S6_25 S 0.75053(2) 0.64130(2) 0.58620(2)
O11_25 O 0.71779(4) 0.52679(3) 0.68004(3)
O12_21 O 0.71779(4) 0.68004(3) 0.52679(3)
O14_21 O 0.71779(4) 0.47321(3) 0.68004(3)
O15_25 O 0.77287(7) 0.57878(6) 0.72713(7)
O17_25 O 0.75609(5) 0.54968(5) 0.68625(5)
O20_21 O 0.81375(5) 0.54968(5) 0.74391(5)
O24_25 O 0.80573(5) 0.53353(11) 0.69427(5)
C6_25 C 0.56119(7) 0.34946(7) 0.72825(8)
C7_25 C 0.72825(8) 0.56119(7) 0.65054(7)
C8_25 C 0.72825(8) 0.65054(7) 0.56119(7)
C9_25 C 0.56046(9) 0.36479(9) 0.70610(9)
C10_25 C 0.70610(9) 0.56046(9) 0.63521(9)
C11_25 C 0.70610(9) 0.63521(9) 0.56046(9)
H2_25 H 0.5486 0.3623 0.6920
H3_25 H 0.6920 0.5486 0.6377
H4_25 H 0.6920 0.6377 0.5486
C12_25 C 0.58001(10) 0.38515(10) 0.70716(10)
C13_25 C 0.70716(10) 0.58001(10) 0.61485(10)
C14_25 C 0.70716(10) 0.61485(10) 0.58001(10)
C15_25 C 0.54453(6) 0.32582(6) 0.73456(6)
C16_25 C 0.73456(6) 0.54453(6) 0.67418(6)
C17_25 C 0.73456(6) 0.67418(6) 0.54453(6)
C18_25 C 0.59550(8) 0.38437(8) 0.72992(9)
C19_25 C 0.72992(9) 0.59550(8) 0.61563(8)
C20_25 C 0.72992(9) 0.61563(8) 0.59550(8)
S1_26 S 0.41058(5) 0.58942(5) 0.68539(5)
S2_26 S 0.35870(2) 0.58620(2) 0.75053(2)
O2_26 O 0.31996(3) 0.52679(3) 0.71779(4)
O3_26 O 0.27287(7) 0.57878(6) 0.77287(7)
O4_26 O 0.31375(5) 0.54968(5) 0.75609(5)
O6_26 O 0.30573(5) 0.53353(11) 0.80573(5)
C1_26 C 0.34946(7) 0.56119(7) 0.72825(8)
C2_26 C 0.36479(9) 0.56046(9) 0.70610(9)
H1_26 H 0.3623 0.5486 0.6920
C3_26 C 0.38515(10) 0.58001(10) 0.70716(10)
C4_26 C 0.32582(6) 0.54453(6) 0.73456(6)
C5_26 C 0.38437(8) 0.59550(8) 0.72992(9)
S3_26 S 0.31461(5) 0.41058(5) 0.58942(5)
S4_26 S 0.41380(2) 0.64130(2) 0.75053(2)
S5_26 S 0.24947(2) 0.41380(2) 0.64130(2)
S6_26 S 0.24947(2) 0.35870(2) 0.58620(2)
O11_26 O 0.28221(4) 0.47321(3) 0.68004(3)
O12_22 O 0.28221(4) 0.31996(3) 0.52679(3)
O14_22 O 0.28221(4) 0.52679(3) 0.68004(3)
O15_26 O 0.22713(7) 0.42122(6) 0.72713(7)
O17_26 O 0.24391(5) 0.45032(5) 0.68625(5)
O20_22 O 0.18625(5) 0.45032(5) 0.74391(5)
O24_26 O 0.19427(5) 0.46647(11) 0.69427(5)
C6_26 C 0.43881(7) 0.65054(7) 0.72825(8)
C7_26 C 0.27175(8) 0.43881(7) 0.65054(7)
C8_26 C 0.27175(8) 0.34946(7) 0.56119(7)
C9_26 C 0.43954(9) 0.63521(9) 0.70610(9)
C10_26 C 0.29390(9) 0.43954(9) 0.63521(9)
C11_26 C 0.29390(9) 0.36479(9) 0.56046(9)
H2_26 H 0.4514 0.6377 0.6920
H3_26 H 0.3080 0.4514 0.6377
H4_26 H 0.3080 0.3623 0.5486
C12_26 C 0.41999(10) 0.61485(10) 0.70716(10)
C13_26 C 0.29284(10) 0.41999(10) 0.61485(10)
C14_26 C 0.29284(10) 0.38515(10) 0.58001(10)
C15_26 C 0.45547(6) 0.67418(6) 0.73456(6)
C16_26 C 0.26544(6) 0.45547(6) 0.67418(6)
C17_26 C 0.26544(6) 0.32582(6) 0.54453(6)
C18_26 C 0.40450(8) 0.61563(8) 0.72992(9)
C19_26 C 0.27008(9) 0.40450(8) 0.61563(8)
C20_26 C 0.27008(9) 0.38437(8) 0.59550(8)
S1_27 S 0.41058(5) 0.41058(5) 0.31461(5)
S2_27 S 0.35870(2) 0.41380(2) 0.24947(2)
O2_27 O 0.31996(3) 0.47321(3) 0.28221(4)
O3_27 O 0.27287(7) 0.42122(6) 0.22713(7)
O4_27 O 0.31375(5) 0.45032(5) 0.24391(5)
O6_27 O 0.30573(5) 0.46647(11) 0.19427(5)
C1_27 C 0.34946(7) 0.43881(7) 0.27175(8)
C2_27 C 0.36479(9) 0.43954(9) 0.29390(9)
H1_27 H 0.3623 0.4514 0.3080
C3_27 C 0.38515(10) 0.41999(10) 0.29284(10)
C4_27 C 0.32582(6) 0.45547(6) 0.26544(6)
C5_27 C 0.38437(8) 0.40450(8) 0.27008(9)
S3_27 S 0.31461(5) 0.58942(5) 0.41058(5)
S4_27 S 0.41380(2) 0.35870(2) 0.24947(2)
S5_27 S 0.24947(2) 0.58620(2) 0.35870(2)
S6_27 S 0.24947(2) 0.64130(2) 0.41380(2)
O11_27 O 0.28221(4) 0.52679(3) 0.31996(3)
O12_23 O 0.28221(4) 0.68004(3) 0.47321(3)
O14_23 O 0.28221(4) 0.47321(3) 0.31996(3)
O15_27 O 0.22713(7) 0.57878(6) 0.27287(7)
O17_27 O 0.24391(5) 0.54968(5) 0.31375(5)
O20_23 O 0.18625(5) 0.54968(5) 0.25609(5)
O24_27 O 0.19427(5) 0.53353(11) 0.30573(5)
C6_27 C 0.43881(7) 0.34946(7) 0.27175(8)
C7_27 C 0.27175(8) 0.56119(7) 0.34946(7)
C8_27 C 0.27175(8) 0.65054(7) 0.43881(7)
C9_27 C 0.43954(9) 0.36479(9) 0.29390(9)
C10_27 C 0.29390(9) 0.56046(9) 0.36479(9)
C11_27 C 0.29390(9) 0.63521(9) 0.43954(9)
H2_27 H 0.4514 0.3623 0.3080
H3_27 H 0.3080 0.5486 0.3623
H4_27 H 0.3080 0.6377 0.4514
C12_27 C 0.41999(10) 0.38515(10) 0.29284(10)
C13_27 C 0.29284(10) 0.58001(10) 0.38515(10)
C14_27 C 0.29284(10) 0.61485(10) 0.41999(10)
C15_27 C 0.45547(6) 0.32582(6) 0.26544(6)
C16_27 C 0.26544(6) 0.54453(6) 0.32582(6)
C17_27 C 0.26544(6) 0.67418(6) 0.45547(6)
C18_27 C 0.40450(8) 0.38437(8) 0.27008(9)
C19_27 C 0.27008(9) 0.59550(8) 0.38437(8)
C20_27 C 0.27008(9) 0.61563(8) 0.40450(8)
S1_28 S 0.58942(5) 0.58942(5) 0.31461(5)
S2_28 S 0.64130(2) 0.58620(2) 0.24947(2)
O2_28 O 0.68004(3) 0.52679(3) 0.28221(4)
O3_28 O 0.72713(7) 0.57878(6) 0.22713(7)
O4_28 O 0.68625(5) 0.54968(5) 0.24391(5)
O6_28 O 0.69427(5) 0.53353(11) 0.19427(5)
C1_28 C 0.65054(7) 0.56119(7) 0.27175(8)
C2_28 C 0.63521(9) 0.56046(9) 0.29390(9)
H1_28 H 0.6377 0.5486 0.3080
C3_28 C 0.61485(10) 0.58001(10) 0.29284(10)
C4_28 C 0.67418(6) 0.54453(6) 0.26544(6)
C5_28 C 0.61563(8) 0.59550(8) 0.27008(9)
S3_28 S 0.68539(5) 0.41058(5) 0.41058(5)
S4_28 S 0.58620(2) 0.64130(2) 0.24947(2)
S5_28 S 0.75053(2) 0.41380(2) 0.35870(2)
S6_28 S 0.75053(2) 0.35870(2) 0.41380(2)
O11_28 O 0.71779(4) 0.47321(3) 0.31996(3)
O12_24 O 0.71779(4) 0.31996(3) 0.47321(3)
O14_24 O 0.71779(4) 0.52679(3) 0.31996(3)
O15_28 O 0.77287(7) 0.42122(6) 0.27287(7)
O17_28 O 0.75609(5) 0.45032(5) 0.31375(5)
O20_24 O 0.81375(5) 0.45032(5) 0.25609(5)
O24_28 O 0.80573(5) 0.46647(11) 0.30573(5)
C6_28 C 0.56119(7) 0.65054(7) 0.27175(8)
C7_28 C 0.72825(8) 0.43881(7) 0.34946(7)
C8_28 C 0.72825(8) 0.34946(7) 0.43881(7)
C9_28 C 0.56046(9) 0.63521(9) 0.29390(9)
C10_28 C 0.70610(9) 0.43954(9) 0.36479(9)
C11_28 C 0.70610(9) 0.36479(9) 0.43954(9)
H2_28 H 0.5486 0.6377 0.3080
H3_28 H 0.6920 0.4514 0.3623
H4_28 H 0.6920 0.3623 0.4514
C12_28 C 0.58001(10) 0.61485(10) 0.29284(10)
C13_28 C 0.70716(10) 0.41999(10) 0.38515(10)
C14_28 C 0.70716(10) 0.38515(10) 0.41999(10)
C15_28 C 0.54453(6) 0.67418(6) 0.26544(6)
C16_28 C 0.73456(6) 0.45547(6) 0.32582(6)
C17_28 C 0.73456(6) 0.32582(6) 0.45547(6)
C18_28 C 0.59550(8) 0.61563(8) 0.27008(9)
C19_28 C 0.72992(9) 0.40450(8) 0.38437(8)
C20_28 C 0.72992(9) 0.38437(8) 0.40450(8)
S3_29 S 0.58942(5) 0.18539(5) 0.08942(5)
S5_29 S 0.64130(2) 0.25053(2) 0.08620(2)
S6_29 S 0.58620(2) 0.25053(2) 0.14130(2)
O11_29 O 0.68004(3) 0.21779(4) 0.02679(3)
O13_21 O 0.71779(4) 0.18004(3) 0.02679(3)
O15_29 O 0.72713(7) 0.27287(7) 0.07878(6)
O17_29 O 0.68625(5) 0.25609(5) 0.04968(5)
O24_29 O 0.69427(5) 0.30573(5) 0.03353(11)
C7_29 C 0.65054(7) 0.22825(8) 0.06119(7)
C8_29 C 0.56119(7) 0.22825(8) 0.15054(7)
C10_29 C 0.63521(9) 0.20610(9) 0.06046(9)
C11_29 C 0.56046(9) 0.20610(9) 0.13521(9)
H3_29 H 0.6377 0.1920 0.0486
H4_29 H 0.5486 0.1920 0.1377
C13_29 C 0.61485(10) 0.20716(10) 0.08001(10)
C14_29 C 0.58001(10) 0.20716(10) 0.11485(10)
C16_29 C 0.67418(6) 0.23456(6) 0.04453(6)
C17_29 C 0.54453(6) 0.23456(6) 0.17418(6)
C19_29 C 0.61563(8) 0.22992(9) 0.09550(8)
C20_29 C 0.59550(8) 0.22992(9) 0.11563(8)
S1_29 S 0.68539(5) 0.08942(5) 0.91058(5)
S2_29 S 0.75053(2) 0.14130(2) 0.91380(2)
O2_29 O 0.71779(4) 0.18004(3) 0.97321(3)
O3_29 O 0.77287(7) 0.22713(7) 0.92122(6)
O4_29 O 0.75609(5) 0.18625(5) 0.95032(5)
O6_29 O 0.80573(5) 0.19427(5) 0.96647(11)
C1_29 C 0.72825(8) 0.15054(7) 0.93881(7)
C2_29 C 0.70610(9) 0.13521(9) 0.93954(9)
H1_29 H 0.6920 0.1377 0.9514
C3_29 C 0.70716(10) 0.11485(10) 0.91999(10)
C4_29 C 0.73456(6) 0.17418(6) 0.95547(6)
C5_29 C 0.72992(9) 0.11563(8) 0.90450(8)
S4_29 S 0.75053(2) 0.08620(2) 0.85870(2)
O10_21 O 0.71779(4) 0.02679(3) 0.81996(3)
O19_21 O 0.81375(5) 0.24391(5) 0.95032(5)
C6_29 C 0.72825(8) 0.06119(7) 0.84946(7)
C9_29 C 0.70610(9) 0.06046(9) 0.86479(9)
H2_29 H 0.6920 0.0486 0.8623
C12_29 C 0.70716(10) 0.08001(10) 0.88515(10)
C15_29 C 0.73456(6) 0.04453(6) 0.82582(6)
C18_29 C 0.72992(9) 0.09550(8) 0.88437(8)
S1_30 S 0.68539(5) 0.91058(5) 0.08942(5)
S2_30 S 0.75053(2) 0.85870(2) 0.08620(2)
O2_30 O 0.71779(4) 0.81996(3) 0.02679(3)
O3_30 O 0.77287(7) 0.77287(7) 0.07878(6)
O4_30 O 0.75609(5) 0.81375(5) 0.04968(5)
O6_30 O 0.80573(5) 0.80573(5) 0.03353(11)
C1_30 C 0.72825(8) 0.84946(7) 0.06119(7)
C2_30 C 0.70610(9) 0.86479(9) 0.06046(9)
H1_30 H 0.6920 0.8623 0.0486
C3_30 C 0.70716(10) 0.88515(10) 0.08001(10)
C4_30 C 0.73456(6) 0.82582(6) 0.04453(6)
C5_30 C 0.72992(9) 0.88437(8) 0.09550(8)
S4_30 S 0.75053(2) 0.91380(2) 0.14130(2)
O10_22 O 0.71779(4) 0.97321(3) 0.18004(3)
O19_22 O 0.81375(5) 0.75609(5) 0.04968(5)
C6_30 C 0.72825(8) 0.93881(7) 0.15054(7)
C9_30 C 0.70610(9) 0.93954(9) 0.13521(9)
H2_30 H 0.6920 0.9514 0.1377
C12_30 C 0.70716(10) 0.91999(10) 0.11485(10)
C15_30 C 0.73456(6) 0.95547(6) 0.17418(6)
C18_30 C 0.72992(9) 0.90450(8) 0.11563(8)
S3_30 S 0.58942(5) 0.81461(5) 0.91058(5)
S5_30 S 0.64130(2) 0.74947(2) 0.91380(2)
S6_30 S 0.58620(2) 0.74947(2) 0.85870(2)
O11_30 O 0.68004(3) 0.78221(4) 0.97321(3)
O13_22 O 0.71779(4) 0.81996(3) 0.97321(3)
O15_30 O 0.72713(7) 0.72713(7) 0.92122(6)
O17_30 O 0.68625(5) 0.74391(5) 0.95032(5)
O24_30 O 0.69427(5) 0.69427(5) 0.96647(11)
C7_30 C 0.65054(7) 0.77175(8) 0.93881(7)
C8_30 C 0.56119(7) 0.77175(8) 0.84946(7)
C10_30 C 0.63521(9) 0.79390(9) 0.93954(9)
C11_30 C 0.56046(9) 0.79390(9) 0.86479(9)
H3_30 H 0.6377 0.8080 0.9514
H4_30 H 0.5486 0.8080 0.8623
C13_30 C 0.61485(10) 0.79284(10) 0.91999(10)
C14_30 C 0.58001(10) 0.79284(10) 0.88515(10)
C16_30 C 0.67418(6) 0.76544(6) 0.95547(6)
C17_30 C 0.54453(6) 0.76544(6) 0.82582(6)
C19_30 C 0.61563(8) 0.77008(9) 0.90450(8)
C20_30 C 0.59550(8) 0.77008(9) 0.88437(8)
S3_31 S 0.41058(5) 0.81461(5) 0.08942(5)
S5_31 S 0.35870(2) 0.74947(2) 0.08620(2)
S6_31 S 0.41380(2) 0.74947(2) 0.14130(2)
O11_31 O 0.31996(3) 0.78221(4) 0.02679(3)
O13_23 O 0.28221(4) 0.81996(3) 0.02679(3)
O15_31 O 0.27287(7) 0.72713(7) 0.07878(6)
O17_31 O 0.31375(5) 0.74391(5) 0.04968(5)
O24_31 O 0.30573(5) 0.69427(5) 0.03353(11)
C7_31 C 0.34946(7) 0.77175(8) 0.06119(7)
C8_31 C 0.43881(7) 0.77175(8) 0.15054(7)
C10_31 C 0.36479(9) 0.79390(9) 0.06046(9)
C11_31 C 0.43954(9) 0.79390(9) 0.13521(9)
H3_31 H 0.3623 0.8080 0.0486
H4_31 H 0.4514 0.8080 0.1377
C13_31 C 0.38515(10) 0.79284(10) 0.08001(10)
C14_31 C 0.41999(10) 0.79284(10) 0.11485(10)
C16_31 C 0.32582(6) 0.76544(6) 0.04453(6)
C17_31 C 0.45547(6) 0.76544(6) 0.17418(6)
C19_31 C 0.38437(8) 0.77008(9) 0.09550(8)
C20_31 C 0.40450(8) 0.77008(9) 0.11563(8)
S1_31 S 0.31461(5) 0.91058(5) 0.91058(5)
S2_31 S 0.24947(2) 0.85870(2) 0.91380(2)
O2_31 O 0.28221(4) 0.81996(3) 0.97321(3)
O3_31 O 0.22713(7) 0.77287(7) 0.92122(6)
O4_31 O 0.24391(5) 0.81375(5) 0.95032(5)
O6_31 O 0.19427(5) 0.80573(5) 0.96647(11)
C1_31 C 0.27175(8) 0.84946(7) 0.93881(7)
C2_31 C 0.29390(9) 0.86479(9) 0.93954(9)
H1_31 H 0.3080 0.8623 0.9514
C3_31 C 0.29284(10) 0.88515(10) 0.91999(10)
C4_31 C 0.26544(6) 0.82582(6) 0.95547(6)
C5_31 C 0.27008(9) 0.88437(8) 0.90450(8)
S4_31 S 0.24947(2) 0.91380(2) 0.85870(2)
O10_23 O 0.28221(4) 0.97321(3) 0.81996(3)
O19_23 O 0.18625(5) 0.75609(5) 0.95032(5)
C6_31 C 0.27175(8) 0.93881(7) 0.84946(7)
C9_31 C 0.29390(9) 0.93954(9) 0.86479(9)
H2_31 H 0.3080 0.9514 0.8623
C12_31 C 0.29284(10) 0.91999(10) 0.88515(10)
C15_31 C 0.26544(6) 0.95547(6) 0.82582(6)
C18_31 C 0.27008(9) 0.90450(8) 0.88437(8)
S1_32 S 0.31461(5) 0.08942(5) 0.08942(5)
S2_32 S 0.24947(2) 0.14130(2) 0.08620(2)
O2_32 O 0.28221(4) 0.18004(3) 0.02679(3)
O3_32 O 0.22713(7) 0.22713(7) 0.07878(6)
O4_32 O 0.24391(5) 0.18625(5) 0.04968(5)
O6_32 O 0.19427(5) 0.19427(5) 0.03353(11)
C1_32 C 0.27175(8) 0.15054(7) 0.06119(7)
C2_32 C 0.29390(9) 0.13521(9) 0.06046(9)
H1_32 H 0.3080 0.1377 0.0486
C3_32 C 0.29284(10) 0.11485(10) 0.08001(10)
C4_32 C 0.26544(6) 0.17418(6) 0.04453(6)
C5_32 C 0.27008(9) 0.11563(8) 0.09550(8)
S4_32 S 0.24947(2) 0.08620(2) 0.14130(2)
O10_24 O 0.28221(4) 0.02679(3) 0.18004(3)
O19_24 O 0.18625(5) 0.24391(5) 0.04968(5)
C6_32 C 0.27175(8) 0.06119(7) 0.15054(7)
C9_32 C 0.29390(9) 0.06046(9) 0.13521(9)
H2_32 H 0.3080 0.0486 0.1377
C12_32 C 0.29284(10) 0.08001(10) 0.11485(10)
C15_32 C 0.26544(6) 0.04453(6) 0.17418(6)
C18_32 C 0.27008(9) 0.09550(8) 0.11563(8)
S3_32 S 0.41058(5) 0.18539(5) 0.91058(5)
S5_32 S 0.35870(2) 0.25053(2) 0.91380(2)
S6_32 S 0.41380(2) 0.25053(2) 0.85870(2)
O11_32 O 0.31996(3) 0.21779(4) 0.97321(3)
O13_24 O 0.28221(4) 0.18004(3) 0.97321(3)
O15_32 O 0.27287(7) 0.27287(7) 0.92122(6)
O17_32 O 0.31375(5) 0.25609(5) 0.95032(5)
O24_32 O 0.30573(5) 0.30573(5) 0.96647(11)
C7_32 C 0.34946(7) 0.22825(8) 0.93881(7)
C8_32 C 0.43881(7) 0.22825(8) 0.84946(7)
C10_32 C 0.36479(9) 0.20610(9) 0.93954(9)
C11_32 C 0.43954(9) 0.20610(9) 0.86479(9)
H3_32 H 0.3623 0.1920 0.9514
H4_32 H 0.4514 0.1920 0.8623
C13_32 C 0.38515(10) 0.20716(10) 0.91999(10)
C14_32 C 0.41999(10) 0.20716(10) 0.88515(10)
C16_32 C 0.32582(6) 0.23456(6) 0.95547(6)
C17_32 C 0.45547(6) 0.23456(6) 0.82582(6)
C19_32 C 0.38437(8) 0.22992(9) 0.90450(8)
C20_32 C 0.40450(8) 0.22992(9) 0.88437(8)
O5_29 O -0.0000 0.20794(9) 0.75789(6)
S3_33 S 0.08942(5) 0.08942(5) 0.68539(5)
S5_33 S 0.08620(2) 0.14130(2) 0.75053(2)
S6_33 S 0.14130(2) 0.08620(2) 0.75053(2)
O7_21 O 0.03491(9) 0.23314(5) 0.73314(5)
O9_21 O 0.03491(9) 0.26686(5) 0.76686(5)
O11_33 O 0.02679(3) 0.18004(3) 0.71779(4)
O15_33 O 0.07878(6) 0.22713(7) 0.77287(7)
O17_33 O 0.04968(5) 0.18625(5) 0.75609(5)
O18_21 O 0.18625(5) 0.04968(5) 0.75609(5)
O21_29 O 0.0000 0.25789(6) 0.70794(9)
O22_29 O -0.0000 0.29206(9) 0.74211(6)
O23_29 O -0.0000 0.24211(6) 0.79206(9)
O24_33 O 0.03353(11) 0.19427(5) 0.80573(5)
C7_33 C 0.06119(7) 0.15054(7) 0.72825(8)
C8_33 C 0.15054(7) 0.06119(7) 0.72825(8)
C10_33 C 0.06046(9) 0.13521(9) 0.70610(9)
C11_33 C 0.13521(9) 0.06046(9) 0.70610(9)
H3_33 H 0.0486 0.1377 0.6920
H4_33 H 0.1377 0.0486 0.6920
C13_33 C 0.08001(10) 0.11485(10) 0.70716(10)
C14_33 C 0.11485(10) 0.08001(10) 0.70716(10)
C16_33 C 0.04453(6) 0.17418(6) 0.73456(6)
C17_33 C 0.17418(6) 0.04453(6) 0.73456(6)
C19_33 C 0.09550(8) 0.11563(8) 0.72992(9)
C20_33 C 0.11563(8) 0.09550(8) 0.72992(9)
S1_33 S 0.91058(5) 0.18539(5) 0.58942(5)
S2_33 S 0.91380(2) 0.25053(2) 0.64130(2)
O1_21 O 0.96509(9) 0.23314(5) 0.73314(5)
O2_33 O 0.97321(3) 0.21779(4) 0.68004(3)
O3_33 O 0.92122(6) 0.27287(7) 0.72713(7)
O4_33 O 0.95032(5) 0.25609(5) 0.68625(5)
O5_30 O 1.0000 0.20794(9) 0.75789(6)
O6_33 O 0.96647(11) 0.30573(5) 0.69427(5)
C1_33 C 0.93881(7) 0.22825(8) 0.65054(7)
C2_33 C 0.93954(9) 0.20610(9) 0.63521(9)
H1_33 H 0.9514 0.1920 0.6377
C3_33 C 0.91999(10) 0.20716(10) 0.61485(10)
C4_33 C 0.95547(6) 0.23456(6) 0.67418(6)
C5_33 C 0.90450(8) 0.22992(9) 0.61563(8)
S4_33 S 0.85870(2) 0.25053(2) 0.58620(2)
O8_21 O 0.96509(9) 0.26686(5) 0.76686(5)
O16_21 O 0.81375(5) 0.25609(5) 0.54968(5)
O21_30 O 1.0000 0.25789(6) 0.70794(9)
O22_30 O 1.0000 0.29206(9) 0.74211(6)
O23_30 O 1.0000 0.24211(6) 0.79206(9)
C6_33 C 0.84946(7) 0.22825(8) 0.56119(7)
C9_33 C 0.86479(9) 0.20610(9) 0.56046(9)
H2_33 H 0.8623 0.1920 0.5486
C12_33 C 0.88515(10) 0.20716(10) 0.58001(10)
C15_33 C 0.82582(6) 0.23456(6) 0.54453(6)
C18_33 C 0.88437(8) 0.22992(9) 0.59550(8)
S1_34 S 0.08942(5) 0.18539(5) 0.41058(5)
S2_34 S 0.08620(2) 0.25053(2) 0.35870(2)
O1_22 O 0.03491(9) 0.23314(5) 0.26686(5)
O2_34 O 0.02679(3) 0.21779(4) 0.31996(3)
O3_34 O 0.07878(6) 0.27287(7) 0.27287(7)
O4_34 O 0.04968(5) 0.25609(5) 0.31375(5)
O5_31 O 0.0000 0.20794(9) 0.24211(6)
O6_34 O 0.03353(11) 0.30573(5) 0.30573(5)
C1_34 C 0.06119(7) 0.22825(8) 0.34946(7)
C2_34 C 0.06046(9) 0.20610(9) 0.36479(9)
H1_34 H 0.0486 0.1920 0.3623
C3_34 C 0.08001(10) 0.20716(10) 0.38515(10)
C4_34 C 0.04453(6) 0.23456(6) 0.32582(6)
C5_34 C 0.09550(8) 0.22992(9) 0.38437(8)
S4_34 S 0.14130(2) 0.25053(2) 0.41380(2)
O8_22 O 0.03491(9) 0.26686(5) 0.23314(5)
O16_22 O 0.18625(5) 0.25609(5) 0.45032(5)
O21_31 O -0.0000 0.25789(6) 0.29206(9)
O22_31 O -0.0000 0.29206(9) 0.25789(6)
O23_31 O -0.0000 0.24211(6) 0.20794(9)
C6_34 C 0.15054(7) 0.22825(8) 0.43881(7)
C9_34 C 0.13521(9) 0.20610(9) 0.43954(9)
H2_34 H 0.1377 0.1920 0.4514
C12_34 C 0.11485(10) 0.20716(10) 0.41999(10)
C15_34 C 0.17418(6) 0.23456(6) 0.45547(6)
C18_34 C 0.11563(8) 0.22992(9) 0.40450(8)
O5_32 O 1.0000 0.20794(9) 0.24211(6)
S3_34 S 0.91058(5) 0.08942(5) 0.31461(5)
S5_34 S 0.91380(2) 0.14130(2) 0.24947(2)
S6_34 S 0.85870(2) 0.08620(2) 0.24947(2)
O7_22 O 0.96509(9) 0.23314(5) 0.26686(5)
O9_22 O 0.96509(9) 0.26686(5) 0.23314(5)
O11_34 O 0.97321(3) 0.18004(3) 0.28221(4)
O15_34 O 0.92122(6) 0.22713(7) 0.22713(7)
O17_34 O 0.95032(5) 0.18625(5) 0.24391(5)
O18_22 O 0.81375(5) 0.04968(5) 0.24391(5)
O21_32 O 1.0000 0.25789(6) 0.29206(9)
O22_32 O 1.0000 0.29206(9) 0.25789(6)
O23_32 O 1.0000 0.24211(6) 0.20794(9)
O24_34 O 0.96647(11) 0.19427(5) 0.19427(5)
C7_34 C 0.93881(7) 0.15054(7) 0.27175(8)
C8_34 C 0.84946(7) 0.06119(7) 0.27175(8)
C10_34 C 0.93954(9) 0.13521(9) 0.29390(9)
C11_34 C 0.86479(9) 0.06046(9) 0.29390(9)
H3_34 H 0.9514 0.1377 0.3080
H4_34 H 0.8623 0.0486 0.3080
C13_34 C 0.91999(10) 0.11485(10) 0.29284(10)
C14_34 C 0.88515(10) 0.08001(10) 0.29284(10)
C16_34 C 0.95547(6) 0.17418(6) 0.26544(6)
C17_34 C 0.82582(6) 0.04453(6) 0.26544(6)
C19_34 C 0.90450(8) 0.11563(8) 0.27008(9)
C20_34 C 0.88437(8) 0.09550(8) 0.27008(9)
O5_33 O -0.0000 0.79206(9) 0.24211(6)
S3_35 S 0.08942(5) 0.91058(5) 0.31461(5)
S5_35 S 0.08620(2) 0.85870(2) 0.24947(2)
S6_35 S 0.14130(2) 0.91380(2) 0.24947(2)
O7_23 O 0.03491(9) 0.76686(5) 0.26686(5)
O9_23 O 0.03491(9) 0.73314(5) 0.23314(5)
O11_35 O 0.02679(3) 0.81996(3) 0.28221(4)
O15_35 O 0.07878(6) 0.77287(7) 0.22713(7)
O17_35 O 0.04968(5) 0.81375(5) 0.24391(5)
O18_23 O 0.18625(5) 0.95032(5) 0.24391(5)
O21_33 O -0.0000 0.74211(6) 0.29206(9)
O22_33 O 0.0000 0.70794(9) 0.25789(6)
O23_33 O -0.0000 0.75789(6) 0.20794(9)
O24_35 O 0.03353(11) 0.80573(5) 0.19427(5)
C7_35 C 0.06119(7) 0.84946(7) 0.27175(8)
C8_35 C 0.15054(7) 0.93881(7) 0.27175(8)
C10_35 C 0.06046(9) 0.86479(9) 0.29390(9)
C11_35 C 0.13521(9) 0.93954(9) 0.29390(9)
H3_35 H 0.0486 0.8623 0.3080
H4_35 H 0.1377 0.9514 0.3080
C13_35 C 0.08001(10) 0.88515(10) 0.29284(10)
C14_35 C 0.11485(10) 0.91999(10) 0.29284(10)
C16_35 C 0.04453(6) 0.82582(6) 0.26544(6)
C17_35 C 0.17418(6) 0.95547(6) 0.26544(6)
C19_35 C 0.09550(8) 0.88437(8) 0.27008(9)
C20_35 C 0.11563(8) 0.90450(8) 0.27008(9)
S1_35 S 0.91058(5) 0.81461(5) 0.41058(5)
S2_35 S 0.91380(2) 0.74947(2) 0.35870(2)
O1_23 O 0.96509(9) 0.76686(5) 0.26686(5)
O2_35 O 0.97321(3) 0.78221(4) 0.31996(3)
O3_35 O 0.92122(6) 0.72713(7) 0.27287(7)
O4_35 O 0.95032(5) 0.74391(5) 0.31375(5)
O5_34 O 1.0000 0.79206(9) 0.24211(6)
O6_35 O 0.96647(11) 0.69427(5) 0.30573(5)
C1_35 C 0.93881(7) 0.77175(8) 0.34946(7)
C2_35 C 0.93954(9) 0.79390(9) 0.36479(9)
H1_35 H 0.9514 0.8080 0.3623
C3_35 C 0.91999(10) 0.79284(10) 0.38515(10)
C4_35 C 0.95547(6) 0.76544(6) 0.32582(6)
C5_35 C 0.90450(8) 0.77008(9) 0.38437(8)
S4_35 S 0.85870(2) 0.74947(2) 0.41380(2)
O8_23 O 0.96509(9) 0.73314(5) 0.23314(5)
O16_23 O 0.81375(5) 0.74391(5) 0.45032(5)
O21_34 O 1.0000 0.74211(6) 0.29206(9)
O22_34 O 1.0000 0.70794(9) 0.25789(6)
O23_34 O 1.0000 0.75789(6) 0.20794(9)
C6_35 C 0.84946(7) 0.77175(8) 0.43881(7)
C9_35 C 0.86479(9) 0.79390(9) 0.43954(9)
H2_35 H 0.8623 0.8080 0.4514
C12_35 C 0.88515(10) 0.79284(10) 0.41999(10)
C15_35 C 0.82582(6) 0.76544(6) 0.45547(6)
C18_35 C 0.88437(8) 0.77008(9) 0.40450(8)
S1_36 S 0.08942(5) 0.81461(5) 0.58942(5)
S2_36 S 0.08620(2) 0.74947(2) 0.64130(2)
O1_24 O 0.03491(9) 0.76686(5) 0.73314(5)
O2_36 O 0.02679(3) 0.78221(4) 0.68004(3)
O3_36 O 0.07878(6) 0.72713(7) 0.72713(7)
O4_36 O 0.04968(5) 0.74391(5) 0.68625(5)
O5_35 O 0.0000 0.79206(9) 0.75789(6)
O6_36 O 0.03353(11) 0.69427(5) 0.69427(5)
C1_36 C 0.06119(7) 0.77175(8) 0.65054(7)
C2_36 C 0.06046(9) 0.79390(9) 0.63521(9)
H1_36 H 0.0486 0.8080 0.6377
C3_36 C 0.08001(10) 0.79284(10) 0.61485(10)
C4_36 C 0.04453(6) 0.76544(6) 0.67418(6)
C5_36 C 0.09550(8) 0.77008(9) 0.61563(8)
S4_36 S 0.14130(2) 0.74947(2) 0.58620(2)
O8_24 O 0.03491(9) 0.73314(5) 0.76686(5)
O16_24 O 0.18625(5) 0.74391(5) 0.54968(5)
O21_35 O 0.0000 0.74211(6) 0.70794(9)
O22_35 O 0.0000 0.70794(9) 0.74211(6)
O23_35 O 0.0000 0.75789(6) 0.79206(9)
C6_36 C 0.15054(7) 0.77175(8) 0.56119(7)
C9_36 C 0.13521(9) 0.79390(9) 0.56046(9)
H2_36 H 0.1377 0.8080 0.5486
C12_36 C 0.11485(10) 0.79284(10) 0.58001(10)
C15_36 C 0.17418(6) 0.76544(6) 0.54453(6)
C18_36 C 0.11563(8) 0.77008(9) 0.59550(8)
O5_36 O 1.0000 0.79206(9) 0.75789(6)
S3_36 S 0.91058(5) 0.91058(5) 0.68539(5)
S5_36 S 0.91380(2) 0.85870(2) 0.75053(2)
S6_36 S 0.85870(2) 0.91380(2) 0.75053(2)
O7_24 O 0.96509(9) 0.76686(5) 0.73314(5)
O9_24 O 0.96509(9) 0.73314(5) 0.76686(5)
O11_36 O 0.97321(3) 0.81996(3) 0.71779(4)
O15_36 O 0.92122(6) 0.77287(7) 0.77287(7)
O17_36 O 0.95032(5) 0.81375(5) 0.75609(5)
O18_24 O 0.81375(5) 0.95032(5) 0.75609(5)
O21_36 O 1.0000 0.74211(6) 0.70794(9)
O22_36 O 1.0000 0.70794(9) 0.74211(6)
O23_36 O 1.0000 0.75789(6) 0.79206(9)
O24_36 O 0.96647(11) 0.80573(5) 0.80573(5)
C7_36 C 0.93881(7) 0.84946(7) 0.72825(8)
C8_36 C 0.84946(7) 0.93881(7) 0.72825(8)
C10_36 C 0.93954(9) 0.86479(9) 0.70610(9)
C11_36 C 0.86479(9) 0.93954(9) 0.70610(9)
H3_36 H 0.9514 0.8623 0.6920
H4_36 H 0.8623 0.9514 0.6920
C13_36 C 0.91999(10) 0.88515(10) 0.70716(10)
C14_36 C 0.88515(10) 0.91999(10) 0.70716(10)
C16_36 C 0.95547(6) 0.82582(6) 0.73456(6)
C17_36 C 0.82582(6) 0.95547(6) 0.73456(6)
C19_36 C 0.90450(8) 0.88437(8) 0.72992(9)
C20_36 C 0.88437(8) 0.90450(8) 0.72992(9)
S3_37 S 0.68539(5) 0.08942(5) 0.08942(5)
S5_37 S 0.75053(2) 0.08620(2) 0.14130(2)
S6_37 S 0.75053(2) 0.14130(2) 0.08620(2)
O11_37 O 0.71779(4) 0.02679(3) 0.18004(3)
O15_37 O 0.77287(7) 0.07878(6) 0.22713(7)
O17_37 O 0.75609(5) 0.04968(5) 0.18625(5)
O24_37 O 0.80573(5) 0.03353(11) 0.19427(5)
C7_37 C 0.72825(8) 0.06119(7) 0.15054(7)
C8_37 C 0.72825(8) 0.15054(7) 0.06119(7)
C10_37 C 0.70610(9) 0.06046(9) 0.13521(9)
C11_37 C 0.70610(9) 0.13521(9) 0.06046(9)
H3_37 H 0.6920 0.0486 0.1377
H4_37 H 0.6920 0.1377 0.0486
C13_37 C 0.70716(10) 0.08001(10) 0.11485(10)
C14_37 C 0.70716(10) 0.11485(10) 0.08001(10)
C16_37 C 0.73456(6) 0.04453(6) 0.17418(6)
C17_37 C 0.73456(6) 0.17418(6) 0.04453(6)
C19_37 C 0.72992(9) 0.09550(8) 0.11563(8)
C20_37 C 0.72992(9) 0.11563(8) 0.09550(8)
S1_37 S 0.58942(5) 0.91058(5) 0.18539(5)
S2_37 S 0.64130(2) 0.91380(2) 0.25053(2)
O2_37 O 0.68004(3) 0.97321(3) 0.21779(4)
O3_37 O 0.72713(7) 0.92122(6) 0.27287(7)
O4_37 O 0.68625(5) 0.95032(5) 0.25609(5)
O6_37 O 0.69427(5) 0.96647(11) 0.30573(5)
C1_37 C 0.65054(7) 0.93881(7) 0.22825(8)
C2_37 C 0.63521(9) 0.93954(9) 0.20610(9)
H1_37 H 0.6377 0.9514 0.1920
C3_37 C 0.61485(10) 0.91999(10) 0.20716(10)
C4_37 C 0.67418(6) 0.95547(6) 0.23456(6)
C5_37 C 0.61563(8) 0.90450(8) 0.22992(9)
S4_37 S 0.58620(2) 0.85870(2) 0.25053(2)
C6_37 C 0.56119(7) 0.84946(7) 0.22825(8)
C9_37 C 0.56046(9) 0.86479(9) 0.20610(9)
H2_37 H 0.5486 0.8623 0.1920
C12_37 C 0.58001(10) 0.88515(10) 0.20716(10)
C15_37 C 0.54453(6) 0.82582(6) 0.23456(6)
C18_37 C 0.59550(8) 0.88437(8) 0.22992(9)
S1_38 S 0.41058(5) 0.08942(5) 0.18539(5)
S2_38 S 0.35870(2) 0.08620(2) 0.25053(2)
O2_38 O 0.31996(3) 0.02679(3) 0.21779(4)
O3_38 O 0.27287(7) 0.07878(6) 0.27287(7)
O4_38 O 0.31375(5) 0.04968(5) 0.25609(5)
O6_38 O 0.30573(5) 0.03353(11) 0.30573(5)
C1_38 C 0.34946(7) 0.06119(7) 0.22825(8)
C2_38 C 0.36479(9) 0.06046(9) 0.20610(9)
H1_38 H 0.3623 0.0486 0.1920
C3_38 C 0.38515(10) 0.08001(10) 0.20716(10)
C4_38 C 0.32582(6) 0.04453(6) 0.23456(6)
C5_38 C 0.38437(8) 0.09550(8) 0.22992(9)
S4_38 S 0.41380(2) 0.14130(2) 0.25053(2)
C6_38 C 0.43881(7) 0.15054(7) 0.22825(8)
C9_38 C 0.43954(9) 0.13521(9) 0.20610(9)
H2_38 H 0.4514 0.1377 0.1920
C12_38 C 0.41999(10) 0.11485(10) 0.20716(10)
C15_38 C 0.45547(6) 0.17418(6) 0.23456(6)
C18_38 C 0.40450(8) 0.11563(8) 0.22992(9)
S3_38 S 0.31461(5) 0.91058(5) 0.08942(5)
S5_38 S 0.24947(2) 0.91380(2) 0.14130(2)
S6_38 S 0.24947(2) 0.85870(2) 0.08620(2)
O11_38 O 0.28221(4) 0.97321(3) 0.18004(3)
O15_38 O 0.22713(7) 0.92122(6) 0.22713(7)
O17_38 O 0.24391(5) 0.95032(5) 0.18625(5)
O24_38 O 0.19427(5) 0.96647(11) 0.19427(5)
C7_38 C 0.27175(8) 0.93881(7) 0.15054(7)
C8_38 C 0.27175(8) 0.84946(7) 0.06119(7)
C10_38 C 0.29390(9) 0.93954(9) 0.13521(9)
C11_38 C 0.29390(9) 0.86479(9) 0.06046(9)
H3_38 H 0.3080 0.9514 0.1377
H4_38 H 0.3080 0.8623 0.0486
C13_38 C 0.29284(10) 0.91999(10) 0.11485(10)
C14_38 C 0.29284(10) 0.88515(10) 0.08001(10)
C16_38 C 0.26544(6) 0.95547(6) 0.17418(6)
C17_38 C 0.26544(6) 0.82582(6) 0.04453(6)
C19_38 C 0.27008(9) 0.90450(8) 0.11563(8)
C20_38 C 0.27008(9) 0.88437(8) 0.09550(8)
S3_39 S 0.31461(5) 0.08942(5) 0.91058(5)
S5_39 S 0.24947(2) 0.08620(2) 0.85870(2)
S6_39 S 0.24947(2) 0.14130(2) 0.91380(2)
O11_39 O 0.28221(4) 0.02679(3) 0.81996(3)
O15_39 O 0.22713(7) 0.07878(6) 0.77287(7)
O17_39 O 0.24391(5) 0.04968(5) 0.81375(5)
O24_39 O 0.19427(5) 0.03353(11) 0.80573(5)
C7_39 C 0.27175(8) 0.06119(7) 0.84946(7)
C8_39 C 0.27175(8) 0.15054(7) 0.93881(7)
C10_39 C 0.29390(9) 0.06046(9) 0.86479(9)
C11_39 C 0.29390(9) 0.13521(9) 0.93954(9)
H3_39 H 0.3080 0.0486 0.8623
H4_39 H 0.3080 0.1377 0.9514
C13_39 C 0.29284(10) 0.08001(10) 0.88515(10)
C14_39 C 0.29284(10) 0.11485(10) 0.91999(10)
C16_39 C 0.26544(6) 0.04453(6) 0.82582(6)
C17_39 C 0.26544(6) 0.17418(6) 0.95547(6)
C19_39 C 0.27008(9) 0.09550(8) 0.88437(8)
C20_39 C 0.27008(9) 0.11563(8) 0.90450(8)
S1_39 S 0.41058(5) 0.91058(5) 0.81461(5)
S2_39 S 0.35870(2) 0.91380(2) 0.74947(2)
O2_39 O 0.31996(3) 0.97321(3) 0.78221(4)
O3_39 O 0.27287(7) 0.92122(6) 0.72713(7)
O4_39 O 0.31375(5) 0.95032(5) 0.74391(5)
O6_39 O 0.30573(5) 0.96647(11) 0.69427(5)
C1_39 C 0.34946(7) 0.93881(7) 0.77175(8)
C2_39 C 0.36479(9) 0.93954(9) 0.79390(9)
H1_39 H 0.3623 0.9514 0.8080
C3_39 C 0.38515(10) 0.91999(10) 0.79284(10)
C4_39 C 0.32582(6) 0.95547(6) 0.76544(6)
C5_39 C 0.38437(8) 0.90450(8) 0.77008(9)
S4_39 S 0.41380(2) 0.85870(2) 0.74947(2)
C6_39 C 0.43881(7) 0.84946(7) 0.77175(8)
C9_39 C 0.43954(9) 0.86479(9) 0.79390(9)
H2_39 H 0.4514 0.8623 0.8080
C12_39 C 0.41999(10) 0.88515(10) 0.79284(10)
C15_39 C 0.45547(6) 0.82582(6) 0.76544(6)
C18_39 C 0.40450(8) 0.88437(8) 0.77008(9)
S1_40 S 0.58942(5) 0.08942(5) 0.81461(5)
S2_40 S 0.64130(2) 0.08620(2) 0.74947(2)
O2_40 O 0.68004(3) 0.02679(3) 0.78221(4)
O3_40 O 0.72713(7) 0.07878(6) 0.72713(7)
O4_40 O 0.68625(5) 0.04968(5) 0.74391(5)
O6_40 O 0.69427(5) 0.03353(11) 0.69427(5)
C1_40 C 0.65054(7) 0.06119(7) 0.77175(8)
C2_40 C 0.63521(9) 0.06046(9) 0.79390(9)
H1_40 H 0.6377 0.0486 0.8080
C3_40 C 0.61485(10) 0.08001(10) 0.79284(10)
C4_40 C 0.67418(6) 0.04453(6) 0.76544(6)
C5_40 C 0.61563(8) 0.09550(8) 0.77008(9)
S4_40 S 0.58620(2) 0.14130(2) 0.74947(2)
C6_40 C 0.56119(7) 0.15054(7) 0.77175(8)
C9_40 C 0.56046(9) 0.13521(9) 0.79390(9)
H2_40 H 0.5486 0.1377 0.8080
C12_40 C 0.58001(10) 0.11485(10) 0.79284(10)
C15_40 C 0.54453(6) 0.17418(6) 0.76544(6)
C18_40 C 0.59550(8) 0.11563(8) 0.77008(9)
S3_40 S 0.68539(5) 0.91058(5) 0.91058(5)
S5_40 S 0.75053(2) 0.91380(2) 0.85870(2)
S6_40 S 0.75053(2) 0.85870(2) 0.91380(2)
O11_40 O 0.71779(4) 0.97321(3) 0.81996(3)
O15_40 O 0.77287(7) 0.92122(6) 0.77287(7)
O17_40 O 0.75609(5) 0.95032(5) 0.81375(5)
O24_40 O 0.80573(5) 0.96647(11) 0.80573(5)
C7_40 C 0.72825(8) 0.93881(7) 0.84946(7)
C8_40 C 0.72825(8) 0.84946(7) 0.93881(7)
C10_40 C 0.70610(9) 0.93954(9) 0.86479(9)
C11_40 C 0.70610(9) 0.86479(9) 0.93954(9)
H3_40 H 0.6920 0.9514 0.8623
H4_40 H 0.6920 0.8623 0.9514
C13_40 C 0.70716(10) 0.91999(10) 0.88515(10)
C14_40 C 0.70716(10) 0.88515(10) 0.91999(10)
C16_40 C 0.73456(6) 0.95547(6) 0.82582(6)
C17_40 C 0.73456(6) 0.82582(6) 0.95547(6)
C19_40 C 0.72992(9) 0.90450(8) 0.88437(8)
C20_40 C 0.72992(9) 0.88437(8) 0.90450(8)
S1_41 S 0.68539(5) 0.58942(5) 0.41058(5)
S2_41 S 0.75053(2) 0.64130(2) 0.41380(2)
O2_41 O 0.71779(4) 0.68004(3) 0.47321(3)
O3_41 O 0.77287(7) 0.72713(7) 0.42122(6)
O4_41 O 0.75609(5) 0.68625(5) 0.45032(5)
O6_41 O 0.80573(5) 0.69427(5) 0.46647(11)
C1_41 C 0.72825(8) 0.65054(7) 0.43881(7)
C2_41 C 0.70610(9) 0.63521(9) 0.43954(9)
H1_41 H 0.6920 0.6377 0.4514
C3_41 C 0.70716(10) 0.61485(10) 0.41999(10)
C4_41 C 0.73456(6) 0.67418(6) 0.45547(6)
C5_41 C 0.72992(9) 0.61563(8) 0.40450(8)
S3_41 S 0.58942(5) 0.68539(5) 0.58942(5)
S4_41 S 0.75053(2) 0.58620(2) 0.35870(2)
S5_41 S 0.64130(2) 0.75053(2) 0.58620(2)
S6_41 S 0.58620(2) 0.75053(2) 0.64130(2)
O11_41 O 0.68004(3) 0.71779(4) 0.52679(3)
O15_41 O 0.72713(7) 0.77287(7) 0.57878(6)
O17_41 O 0.68625(5) 0.75609(5) 0.54968(5)
O24_41 O 0.69427(5) 0.80573(5) 0.53353(11)
C6_41 C 0.72825(8) 0.56119(7) 0.34946(7)
C7_41 C 0.65054(7) 0.72825(8) 0.56119(7)
C8_41 C 0.56119(7) 0.72825(8) 0.65054(7)
C9_41 C 0.70610(9) 0.56046(9) 0.36479(9)
C10_41 C 0.63521(9) 0.70610(9) 0.56046(9)
C11_41 C 0.56046(9) 0.70610(9) 0.63521(9)
H2_41 H 0.6920 0.5486 0.3623
H3_41 H 0.6377 0.6920 0.5486
H4_41 H 0.5486 0.6920 0.6377
C12_41 C 0.70716(10) 0.58001(10) 0.38515(10)
C13_41 C 0.61485(10) 0.70716(10) 0.58001(10)
C14_41 C 0.58001(10) 0.70716(10) 0.61485(10)
C15_41 C 0.73456(6) 0.54453(6) 0.32582(6)
C16_41 C 0.67418(6) 0.73456(6) 0.54453(6)
C17_41 C 0.54453(6) 0.73456(6) 0.67418(6)
C18_41 C 0.72992(9) 0.59550(8) 0.38437(8)
C19_41 C 0.61563(8) 0.72992(9) 0.59550(8)
C20_41 C 0.59550(8) 0.72992(9) 0.61563(8)
S1_42 S 0.68539(5) 0.41058(5) 0.58942(5)
S2_42 S 0.75053(2) 0.35870(2) 0.58620(2)
O2_42 O 0.71779(4) 0.31996(3) 0.52679(3)
O3_42 O 0.77287(7) 0.27287(7) 0.57878(6)
O4_42 O 0.75609(5) 0.31375(5) 0.54968(5)
O6_42 O 0.80573(5) 0.30573(5) 0.53353(11)
C1_42 C 0.72825(8) 0.34946(7) 0.56119(7)
C2_42 C 0.70610(9) 0.36479(9) 0.56046(9)
H1_42 H 0.6920 0.3623 0.5486
C3_42 C 0.70716(10) 0.38515(10) 0.58001(10)
C4_42 C 0.73456(6) 0.32582(6) 0.54453(6)
C5_42 C 0.72992(9) 0.38437(8) 0.59550(8)
S3_42 S 0.58942(5) 0.31461(5) 0.41058(5)
S4_42 S 0.75053(2) 0.41380(2) 0.64130(2)
S5_42 S 0.64130(2) 0.24947(2) 0.41380(2)
S6_42 S 0.58620(2) 0.24947(2) 0.35870(2)
O11_42 O 0.68004(3) 0.28221(4) 0.47321(3)
O15_42 O 0.72713(7) 0.22713(7) 0.42122(6)
O17_42 O 0.68625(5) 0.24391(5) 0.45032(5)
O24_42 O 0.69427(5) 0.19427(5) 0.46647(11)
C6_42 C 0.72825(8) 0.43881(7) 0.65054(7)
C7_42 C 0.65054(7) 0.27175(8) 0.43881(7)
C8_42 C 0.56119(7) 0.27175(8) 0.34946(7)
C9_42 C 0.70610(9) 0.43954(9) 0.63521(9)
C10_42 C 0.63521(9) 0.29390(9) 0.43954(9)
C11_42 C 0.56046(9) 0.29390(9) 0.36479(9)
H2_42 H 0.6920 0.4514 0.6377
H3_42 H 0.6377 0.3080 0.4514
H4_42 H 0.5486 0.3080 0.3623
C12_42 C 0.70716(10) 0.41999(10) 0.61485(10)
C13_42 C 0.61485(10) 0.29284(10) 0.41999(10)
C14_42 C 0.58001(10) 0.29284(10) 0.38515(10)
C15_42 C 0.73456(6) 0.45547(6) 0.67418(6)
C16_42 C 0.67418(6) 0.26544(6) 0.45547(6)
C17_42 C 0.54453(6) 0.26544(6) 0.32582(6)
C18_42 C 0.72992(9) 0.40450(8) 0.61563(8)
C19_42 C 0.61563(8) 0.27008(9) 0.40450(8)
C20_42 C 0.59550(8) 0.27008(9) 0.38437(8)
S1_43 S 0.31461(5) 0.41058(5) 0.41058(5)
S2_43 S 0.24947(2) 0.35870(2) 0.41380(2)
O2_43 O 0.28221(4) 0.31996(3) 0.47321(3)
O3_43 O 0.22713(7) 0.27287(7) 0.42122(6)
O4_43 O 0.24391(5) 0.31375(5) 0.45032(5)
O6_43 O 0.19427(5) 0.30573(5) 0.46647(11)
C1_43 C 0.27175(8) 0.34946(7) 0.43881(7)
C2_43 C 0.29390(9) 0.36479(9) 0.43954(9)
H1_43 H 0.3080 0.3623 0.4514
C3_43 C 0.29284(10) 0.38515(10) 0.41999(10)
C4_43 C 0.26544(6) 0.32582(6) 0.45547(6)
C5_43 C 0.27008(9) 0.38437(8) 0.40450(8)
S3_43 S 0.41058(5) 0.31461(5) 0.58942(5)
S4_43 S 0.24947(2) 0.41380(2) 0.35870(2)
S5_43 S 0.35870(2) 0.24947(2) 0.58620(2)
S6_43 S 0.41380(2) 0.24947(2) 0.64130(2)
O11_43 O 0.31996(3) 0.28221(4) 0.52679(3)
O15_43 O 0.27287(7) 0.22713(7) 0.57878(6)
O17_43 O 0.31375(5) 0.24391(5) 0.54968(5)
O24_43 O 0.30573(5) 0.19427(5) 0.53353(11)
C6_43 C 0.27175(8) 0.43881(7) 0.34946(7)
C7_43 C 0.34946(7) 0.27175(8) 0.56119(7)
C8_43 C 0.43881(7) 0.27175(8) 0.65054(7)
C9_43 C 0.29390(9) 0.43954(9) 0.36479(9)
C10_43 C 0.36479(9) 0.29390(9) 0.56046(9)
C11_43 C 0.43954(9) 0.29390(9) 0.63521(9)
H2_43 H 0.3080 0.4514 0.3623
H3_43 H 0.3623 0.3080 0.5486
H4_43 H 0.4514 0.3080 0.6377
C12_43 C 0.29284(10) 0.41999(10) 0.38515(10)
C13_43 C 0.38515(10) 0.29284(10) 0.58001(10)
C14_43 C 0.41999(10) 0.29284(10) 0.61485(10)
C15_43 C 0.26544(6) 0.45547(6) 0.32582(6)
C16_43 C 0.32582(6) 0.26544(6) 0.54453(6)
C17_43 C 0.45547(6) 0.26544(6) 0.67418(6)
C18_43 C 0.27008(9) 0.40450(8) 0.38437(8)
C19_43 C 0.38437(8) 0.27008(9) 0.59550(8)
C20_43 C 0.40450(8) 0.27008(9) 0.61563(8)
S1_44 S 0.31461(5) 0.58942(5) 0.58942(5)
S2_44 S 0.24947(2) 0.64130(2) 0.58620(2)
O2_44 O 0.28221(4) 0.68004(3) 0.52679(3)
O3_44 O 0.22713(7) 0.72713(7) 0.57878(6)
O4_44 O 0.24391(5) 0.68625(5) 0.54968(5)
O6_44 O 0.19427(5) 0.69427(5) 0.53353(11)
C1_44 C 0.27175(8) 0.65054(7) 0.56119(7)
C2_44 C 0.29390(9) 0.63521(9) 0.56046(9)
H1_44 H 0.3080 0.6377 0.5486
C3_44 C 0.29284(10) 0.61485(10) 0.58001(10)
C4_44 C 0.26544(6) 0.67418(6) 0.54453(6)
C5_44 C 0.27008(9) 0.61563(8) 0.59550(8)
S3_44 S 0.41058(5) 0.68539(5) 0.41058(5)
S4_44 S 0.24947(2) 0.58620(2) 0.64130(2)
S5_44 S 0.35870(2) 0.75053(2) 0.41380(2)
S6_44 S 0.41380(2) 0.75053(2) 0.35870(2)
O11_44 O 0.31996(3) 0.71779(4) 0.47321(3)
O15_44 O 0.27287(7) 0.77287(7) 0.42122(6)
O17_44 O 0.31375(5) 0.75609(5) 0.45032(5)
O24_44 O 0.30573(5) 0.80573(5) 0.46647(11)
C6_44 C 0.27175(8) 0.56119(7) 0.65054(7)
C7_44 C 0.34946(7) 0.72825(8) 0.43881(7)
C8_44 C 0.43881(7) 0.72825(8) 0.34946(7)
C9_44 C 0.29390(9) 0.56046(9) 0.63521(9)
C10_44 C 0.36479(9) 0.70610(9) 0.43954(9)
C11_44 C 0.43954(9) 0.70610(9) 0.36479(9)
H2_44 H 0.3080 0.5486 0.6377
H3_44 H 0.3623 0.6920 0.4514
H4_44 H 0.4514 0.6920 0.3623
C12_44 C 0.29284(10) 0.58001(10) 0.61485(10)
C13_44 C 0.38515(10) 0.70716(10) 0.41999(10)
C14_44 C 0.41999(10) 0.70716(10) 0.38515(10)
C15_44 C 0.26544(6) 0.54453(6) 0.67418(6)
C16_44 C 0.32582(6) 0.73456(6) 0.45547(6)
C17_44 C 0.45547(6) 0.73456(6) 0.32582(6)
C18_44 C 0.27008(9) 0.59550(8) 0.61563(8)
C19_44 C 0.38437(8) 0.72992(9) 0.40450(8)
C20_44 C 0.40450(8) 0.72992(9) 0.38437(8)
S3_45 S 0.08942(5) 0.58942(5) 0.18539(5)
S5_45 S 0.08620(2) 0.64130(2) 0.25053(2)
S6_45 S 0.14130(2) 0.58620(2) 0.25053(2)
O11_45 O 0.02679(3) 0.68004(3) 0.21779(4)
O15_45 O 0.07878(6) 0.72713(7) 0.27287(7)
O17_45 O 0.04968(5) 0.68625(5) 0.25609(5)
O24_45 O 0.03353(11) 0.69427(5) 0.30573(5)
C7_45 C 0.06119(7) 0.65054(7) 0.22825(8)
C8_45 C 0.15054(7) 0.56119(7) 0.22825(8)
C10_45 C 0.06046(9) 0.63521(9) 0.20610(9)
C11_45 C 0.13521(9) 0.56046(9) 0.20610(9)
H3_45 H 0.0486 0.6377 0.1920
H4_45 H 0.1377 0.5486 0.1920
C13_45 C 0.08001(10) 0.61485(10) 0.20716(10)
C14_45 C 0.11485(10) 0.58001(10) 0.20716(10)
C16_45 C 0.04453(6) 0.67418(6) 0.23456(6)
C17_45 C 0.17418(6) 0.54453(6) 0.23456(6)
C19_45 C 0.09550(8) 0.61563(8) 0.22992(9)
C20_45 C 0.11563(8) 0.59550(8) 0.22992(9)
S1_45 S 0.91058(5) 0.68539(5) 0.08942(5)
S2_45 S 0.91380(2) 0.75053(2) 0.14130(2)
O2_45 O 0.97321(3) 0.71779(4) 0.18004(3)
O3_45 O 0.92122(6) 0.77287(7) 0.22713(7)
O4_45 O 0.95032(5) 0.75609(5) 0.18625(5)
O6_45 O 0.96647(11) 0.80573(5) 0.19427(5)
C1_45 C 0.93881(7) 0.72825(8) 0.15054(7)
C2_45 C 0.93954(9) 0.70610(9) 0.13521(9)
H1_45 H 0.9514 0.6920 0.1377
C3_45 C 0.91999(10) 0.70716(10) 0.11485(10)
C4_45 C 0.95547(6) 0.73456(6) 0.17418(6)
C5_45 C 0.90450(8) 0.72992(9) 0.11563(8)
S4_45 S 0.85870(2) 0.75053(2) 0.08620(2)
C6_45 C 0.84946(7) 0.72825(8) 0.06119(7)
C9_45 C 0.86479(9) 0.70610(9) 0.06046(9)
H2_45 H 0.8623 0.6920 0.0486
C12_45 C 0.88515(10) 0.70716(10) 0.08001(10)
C15_45 C 0.82582(6) 0.73456(6) 0.04453(6)
C18_45 C 0.88437(8) 0.72992(9) 0.09550(8)
S1_46 S 0.08942(5) 0.68539(5) 0.91058(5)
S2_46 S 0.08620(2) 0.75053(2) 0.85870(2)
O2_46 O 0.02679(3) 0.71779(4) 0.81996(3)
O3_46 O 0.07878(6) 0.77287(7) 0.77287(7)
O4_46 O 0.04968(5) 0.75609(5) 0.81375(5)
O6_46 O 0.03353(11) 0.80573(5) 0.80573(5)
C1_46 C 0.06119(7) 0.72825(8) 0.84946(7)
C2_46 C 0.06046(9) 0.70610(9) 0.86479(9)
H1_46 H 0.0486 0.6920 0.8623
C3_46 C 0.08001(10) 0.70716(10) 0.88515(10)
C4_46 C 0.04453(6) 0.73456(6) 0.82582(6)
C5_46 C 0.09550(8) 0.72992(9) 0.88437(8)
S4_46 S 0.14130(2) 0.75053(2) 0.91380(2)
C6_46 C 0.15054(7) 0.72825(8) 0.93881(7)
C9_46 C 0.13521(9) 0.70610(9) 0.93954(9)
H2_46 H 0.1377 0.6920 0.9514
C12_46 C 0.11485(10) 0.70716(10) 0.91999(10)
C15_46 C 0.17418(6) 0.73456(6) 0.95547(6)
C18_46 C 0.11563(8) 0.72992(9) 0.90450(8)
S3_46 S 0.91058(5) 0.58942(5) 0.81461(5)
S5_46 S 0.91380(2) 0.64130(2) 0.74947(2)
S6_46 S 0.85870(2) 0.58620(2) 0.74947(2)
O11_46 O 0.97321(3) 0.68004(3) 0.78221(4)
O15_46 O 0.92122(6) 0.72713(7) 0.72713(7)
O17_46 O 0.95032(5) 0.68625(5) 0.74391(5)
O24_46 O 0.96647(11) 0.69427(5) 0.69427(5)
C7_46 C 0.93881(7) 0.65054(7) 0.77175(8)
C8_46 C 0.84946(7) 0.56119(7) 0.77175(8)
C10_46 C 0.93954(9) 0.63521(9) 0.79390(9)
C11_46 C 0.86479(9) 0.56046(9) 0.79390(9)
H3_46 H 0.9514 0.6377 0.8080
H4_46 H 0.8623 0.5486 0.8080
C13_46 C 0.91999(10) 0.61485(10) 0.79284(10)
C14_46 C 0.88515(10) 0.58001(10) 0.79284(10)
C16_46 C 0.95547(6) 0.67418(6) 0.76544(6)
C17_46 C 0.82582(6) 0.54453(6) 0.76544(6)
C19_46 C 0.90450(8) 0.61563(8) 0.77008(9)
C20_46 C 0.88437(8) 0.59550(8) 0.77008(9)
S3_47 S 0.08942(5) 0.41058(5) 0.81461(5)
S5_47 S 0.08620(2) 0.35870(2) 0.74947(2)
S6_47 S 0.14130(2) 0.41380(2) 0.74947(2)
O11_47 O 0.02679(3) 0.31996(3) 0.78221(4)
O15_47 O 0.07878(6) 0.27287(7) 0.72713(7)
O17_47 O 0.04968(5) 0.31375(5) 0.74391(5)
O24_47 O 0.03353(11) 0.30573(5) 0.69427(5)
C7_47 C 0.06119(7) 0.34946(7) 0.77175(8)
C8_47 C 0.15054(7) 0.43881(7) 0.77175(8)
C10_47 C 0.06046(9) 0.36479(9) 0.79390(9)
C11_47 C 0.13521(9) 0.43954(9) 0.79390(9)
H3_47 H 0.0486 0.3623 0.8080
H4_47 H 0.1377 0.4514 0.8080
C13_47 C 0.08001(10) 0.38515(10) 0.79284(10)
C14_47 C 0.11485(10) 0.41999(10) 0.79284(10)
C16_47 C 0.04453(6) 0.32582(6) 0.76544(6)
C17_47 C 0.17418(6) 0.45547(6) 0.76544(6)
C19_47 C 0.09550(8) 0.38437(8) 0.77008(9)
C20_47 C 0.11563(8) 0.40450(8) 0.77008(9)
S1_47 S 0.91058(5) 0.31461(5) 0.91058(5)
S2_47 S 0.91380(2) 0.24947(2) 0.85870(2)
O2_47 O 0.97321(3) 0.28221(4) 0.81996(3)
O3_47 O 0.92122(6) 0.22713(7) 0.77287(7)
O4_47 O 0.95032(5) 0.24391(5) 0.81375(5)
O6_47 O 0.96647(11) 0.19427(5) 0.80573(5)
C1_47 C 0.93881(7) 0.27175(8) 0.84946(7)
C2_47 C 0.93954(9) 0.29390(9) 0.86479(9)
H1_47 H 0.9514 0.3080 0.8623
C3_47 C 0.91999(10) 0.29284(10) 0.88515(10)
C4_47 C 0.95547(6) 0.26544(6) 0.82582(6)
C5_47 C 0.90450(8) 0.27008(9) 0.88437(8)
S4_47 S 0.85870(2) 0.24947(2) 0.91380(2)
C6_47 C 0.84946(7) 0.27175(8) 0.93881(7)
C9_47 C 0.86479(9) 0.29390(9) 0.93954(9)
H2_47 H 0.8623 0.3080 0.9514
C12_47 C 0.88515(10) 0.29284(10) 0.91999(10)
C15_47 C 0.82582(6) 0.26544(6) 0.95547(6)
C18_47 C 0.88437(8) 0.27008(9) 0.90450(8)
S1_48 S 0.08942(5) 0.31461(5) 0.08942(5)
S2_48 S 0.08620(2) 0.24947(2) 0.14130(2)
O2_48 O 0.02679(3) 0.28221(4) 0.18004(3)
O3_48 O 0.07878(6) 0.22713(7) 0.22713(7)
O4_48 O 0.04968(5) 0.24391(5) 0.18625(5)
O6_48 O 0.03353(11) 0.19427(5) 0.19427(5)
C1_48 C 0.06119(7) 0.27175(8) 0.15054(7)
C2_48 C 0.06046(9) 0.29390(9) 0.13521(9)
H1_48 H 0.0486 0.3080 0.1377
C3_48 C 0.08001(10) 0.29284(10) 0.11485(10)
C4_48 C 0.04453(6) 0.26544(6) 0.17418(6)
C5_48 C 0.09550(8) 0.27008(9) 0.11563(8)
S4_48 S 0.14130(2) 0.24947(2) 0.08620(2)
C6_48 C 0.15054(7) 0.27175(8) 0.06119(7)
C9_48 C 0.13521(9) 0.29390(9) 0.06046(9)
H2_48 H 0.1377 0.3080 0.0486
C12_48 C 0.11485(10) 0.29284(10) 0.08001(10)
C15_48 C 0.17418(6) 0.26544(6) 0.04453(6)
C18_48 C 0.11563(8) 0.27008(9) 0.09550(8)
S3_48 S 0.91058(5) 0.41058(5) 0.18539(5)
S5_48 S 0.91380(2) 0.35870(2) 0.25053(2)
S6_48 S 0.85870(2) 0.41380(2) 0.25053(2)
O11_48 O 0.97321(3) 0.31996(3) 0.21779(4)
O15_48 O 0.92122(6) 0.27287(7) 0.27287(7)
O17_48 O 0.95032(5) 0.31375(5) 0.25609(5)
O24_48 O 0.96647(11) 0.30573(5) 0.30573(5)
C7_48 C 0.93881(7) 0.34946(7) 0.22825(8)
C8_48 C 0.84946(7) 0.43881(7) 0.22825(8)
C10_48 C 0.93954(9) 0.36479(9) 0.20610(9)
C11_48 C 0.86479(9) 0.43954(9) 0.20610(9)
H3_48 H 0.9514 0.3623 0.1920
H4_48 H 0.8623 0.4514 0.1920
C13_48 C 0.91999(10) 0.38515(10) 0.20716(10)
C14_48 C 0.88515(10) 0.41999(10) 0.20716(10)
C16_48 C 0.95547(6) 0.32582(6) 0.23456(6)
C17_48 C 0.82582(6) 0.45547(6) 0.23456(6)
C19_48 C 0.90450(8) 0.38437(8) 0.22992(9)
C20_48 C 0.88437(8) 0.40450(8) 0.22992(9)
loop_
_geom_bond_atom_site_label_1
_geom_bond_atom_site_label_2
_geom_bond_site_symmetry_1
_geom_bond_site_symmetry_2
Zr1 O1 1_555 1_555
Zr2 O1 1_555 1_555
S1 C3 1_555 1_555
S2 C1 1_555 1_555
O1 Zr6 1_555 1_555
O2 Zr1 1_555 1_555
O3 Zr2 1_555 1_555
O4 Zr2 1_555 1_555
O5 Zr1 1_555 1_555
O6 Zr2 1_555 1_555
C1 C2 1_555 1_555
C2 H1 1_555 1_555
C3 C2 1_555 1_555
C4 O2 1_555 1_555
C5 S2 1_555 1_555
Zr3 O10 1_555 1_555
Zr4 O12 1_555 1_555
Zr5 O5 1_555 1_555
Zr6 O5 1_555 1_555
Zr7 O16 1_555 1_555
Zr8 O7 1_555 1_555
Zr9 O18 1_555 1_555
S3 C13 1_555 1_555
S4 C6 1_555 1_555
S5 C7 1_555 1_555
S6 C8 1_555 1_555
O7 Zr1 1_555 1_555
O8 Zr2 1_555 1_555
O9 Zr5 1_555 1_555
O10 C15 1_555 1_555
O11 Zr1 1_555 1_555
O12 C17 1_555 1_555
O13 Zr1 1_555 1_555
O14 Zr1 1_555 1_555
O15 Zr5 1_555 1_555
O16 C15 1_555 1_555
O17 Zr5 1_555 1_555
O18 C17 1_555 1_555
O19 Zr2 1_555 1_555
O20 Zr5 1_555 1_555
O21 Zr1 1_555 1_555
O22 Zr2 1_555 1_555
O23 Zr5 1_555 1_555
O24 Zr5 1_555 1_555
C6 C9 1_555 1_555
C7 C10 1_555 1_555
C8 C11 1_555 1_555
C9 H2 1_555 1_555
C10 H3 1_555 1_555
C11 H4 1_555 1_555
C12 S1 1_555 1_555
C13 C10 1_555 1_555
C14 S3 1_555 1_555
C15 C6 1_555 1_555
C16 O11 1_555 1_555
C17 C8 1_555 1_555
C18 C5 1_555 1_555
C19 S5 1_555 1_555
C20 S6 1_555 1_555
Zr2 O21 1_555 1_555
O4 C4 1_555 1_555
C1 C4 1_555 1_555
C3 C5 1_555 1_555
Zr5 O7 1_555 1_555
Zr6 O8 1_555 1_555
Zr6 O23 1_555 1_555
Zr8 O9 1_555 1_555
Zr8 O21 1_555 1_555
Zr8 O22 1_555 1_555
S4 C18 1_555 1_555
O17 C16 1_555 1_555
C7 C16 1_555 1_555
C9 C12 1_555 1_555
C11 C14 1_555 1_555
C12 C18 1_555 1_555
C13 C19 1_555 1_555
C14 C20 1_555 1_555
C19 C20 1_555 1_555
Zr1_2 O1_2 1_555 1_555
Zr2_2 O1_2 1_555 1_555
S1_2 C3_2 1_555 1_555
S2_2 C1_2 1_555 1_555
O1_2 Zr6_2 1_555 1_555
O2_2 Zr1_2 1_555 1_555
O3_2 Zr2_2 1_555 1_555
O4_2 Zr2_2 1_555 1_555
O5_2 Zr1_2 1_555 1_555
O6_2 Zr2_2 1_555 1_555
C1_2 C2_2 1_555 1_555
C2_2 H1_2 1_555 1_555
C3_2 C2_2 1_555 1_555
C4_2 O2_2 1_555 1_555
C5_2 S2_2 1_555 1_555
Zr3_4 O10_2 1_555 1_555
Zr4_3 O12_2 1_555 1_555
Zr5_2 O5_2 1_555 1_555
Zr6_2 O5_2 1_555 1_555
Zr7_2 O16_2 1_555 1_555
Zr8_2 O7_2 1_555 1_555
Zr9_2 O18_2 1_555 1_555
S3_2 C13_2 1_555 1_555
S4_2 C6_2 1_555 1_555
S5_2 C7_2 1_555 1_555
S6_2 C8_2 1_555 1_555
O7_2 Zr1_2 1_555 1_555
O8_2 Zr2_2 1_555 1_555
O9_2 Zr5_2 1_555 1_555
O10_2 C15_2 1_555 1_555
O11_2 Zr1_2 1_555 1_555
O12_2 C17_2 1_555 1_555
O13_2 Zr1_2 1_555 1_555
O14_2 Zr1_2 1_555 1_555
O15_2 Zr5_2 1_555 1_555
O16_2 C15_2 1_555 1_555
O17_2 Zr5_2 1_555 1_555
O18_2 C17_2 1_555 1_555
O19_2 Zr2_2 1_555 1_555
O20_2 Zr5_2 1_555 1_555
O21_2 Zr1_2 1_555 1_555
O22_2 Zr2_2 1_555 1_555
O23_2 Zr5_2 1_555 1_555
O24_2 Zr5_2 1_555 1_555
C6_2 C9_2 1_555 1_555
C7_2 C10_2 1_555 1_555
C8_2 C11_2 1_555 1_555
C9_2 H2_2 1_555 1_555
C10_2 H3_2 1_555 1_555
C11_2 H4_2 1_555 1_555
C12_2 S1_2 1_555 1_555
C13_2 C10_2 1_555 1_555
C14_2 S3_2 1_555 1_555
C15_2 C6_2 1_555 1_555
C16_2 O11_2 1_555 1_555
C17_2 C8_2 1_555 1_555
C18_2 C5_2 1_555 1_555
C19_2 S5_2 1_555 1_555
C20_2 S6_2 1_555 1_555
Zr2_2 O21_2 1_555 1_555
O4_2 C4_2 1_555 1_555
C1_2 C4_2 1_555 1_555
C3_2 C5_2 1_555 1_555
Zr5_2 O7_2 1_555 1_555
Zr6_2 O8_2 1_555 1_555
Zr6_2 O23_2 1_555 1_555
Zr8_2 O9_2 1_555 1_555
Zr8_2 O21_2 1_555 1_555
Zr8_2 O22_2 1_555 1_555
S4_2 C18_2 1_555 1_555
O17_2 C16_2 1_555 1_555
C7_2 C16_2 1_555 1_555
C9_2 C12_2 1_555 1_555
C11_2 C14_2 1_555 1_555
C12_2 C18_2 1_555 1_555
C13_2 C19_2 1_555 1_555
C14_2 C20_2 1_555 1_555
C19_2 C20_2 1_555 1_555
Zr1_3 O1_3 1_555 1_555
Zr2_3 O1_3 1_555 1_555
S1_3 C3_3 1_555 1_555
S2_3 C1_3 1_555 1_555
O1_3 Zr6_3 1_555 1_555
O2_3 Zr1_3 1_555 1_555
O3_3 Zr2_3 1_555 1_555
O4_3 Zr2_3 1_555 1_555
O5_3 Zr1_3 1_555 1_555
O6_3 Zr2_3 1_555 1_555
C1_3 C2_3 1_555 1_555
C2_3 H1_3 1_555 1_555
C3_3 C2_3 1_555 1_555
C4_3 O2_3 1_555 1_555
C5_3 S2_3 1_555 1_555
Zr3_6 O10_3 1_555 1_555
Zr4_6 O12_3 1_555 1_555
Zr5_3 O5_3 1_555 1_555
Zr6_3 O5_3 1_555 1_555
Zr7_3 O16_3 1_555 1_555
Zr8_3 O7_3 1_555 1_555
Zr9_3 O18_3 1_555 1_555
S3_3 C13_3 1_555 1_555
S4_3 C6_3 1_555 1_555
S5_3 C7_3 1_555 1_555
S6_3 C8_3 1_555 1_555
O7_3 Zr1_3 1_555 1_555
O8_3 Zr2_3 1_555 1_555
O9_3 Zr5_3 1_555 1_555
O10_3 C15_3 1_555 1_555
O11_3 Zr1_3 1_555 1_555
O12_3 C17_3 1_555 1_555
O13_3 Zr1_3 1_555 1_555
O14_3 Zr1_3 1_555 1_555
O15_3 Zr5_3 1_555 1_555
O16_3 C15_3 1_555 1_555
O17_3 Zr5_3 1_555 1_555
O18_3 C17_3 1_555 1_555
O19_3 Zr2_3 1_555 1_555
O20_3 Zr5_3 1_555 1_555
O21_3 Zr1_3 1_555 1_555
O22_3 Zr2_3 1_555 1_555
O23_3 Zr5_3 1_555 1_555
O24_3 Zr5_3 1_555 1_555
C6_3 C9_3 1_555 1_555
C7_3 C10_3 1_555 1_555
C8_3 C11_3 1_555 1_555
C9_3 H2_3 1_555 1_555
C10_3 H3_3 1_555 1_555
C11_3 H4_3 1_555 1_555
C12_3 S1_3 1_555 1_555
C13_3 C10_3 1_555 1_555
C14_3 S3_3 1_555 1_555
C15_3 C6_3 1_555 1_555
C16_3 O11_3 1_555 1_555
C17_3 C8_3 1_555 1_555
C18_3 C5_3 1_555 1_555
C19_3 S5_3 1_555 1_555
C20_3 S6_3 1_555 1_555
Zr2_3 O21_3 1_555 1_555
O4_3 C4_3 1_555 1_555
C1_3 C4_3 1_555 1_555
C3_3 C5_3 1_555 1_555
Zr5_3 O7_3 1_555 1_555
Zr6_3 O8_3 1_555 1_555
Zr6_3 O23_3 1_555 1_555
Zr8_3 O9_3 1_555 1_555
Zr8_3 O21_3 1_555 1_555
Zr8_3 O22_3 1_555 1_555
S4_3 C18_3 1_555 1_555
O17_3 C16_3 1_555 1_555
C7_3 C16_3 1_555 1_555
C9_3 C12_3 1_555 1_555
C11_3 C14_3 1_555 1_555
C12_3 C18_3 1_555 1_555
C13_3 C19_3 1_555 1_555
C14_3 C20_3 1_555 1_555
C19_3 C20_3 1_555 1_555
Zr1_4 O1_4 1_555 1_555
Zr2_4 O1_4 1_555 1_555
S1_4 C3_4 1_555 1_555
S2_4 C1_4 1_555 1_555
O1_4 Zr6_4 1_555 1_555
O2_4 Zr1_4 1_555 1_555
O3_4 Zr2_4 1_555 1_555
O4_4 Zr2_4 1_555 1_555
O5_4 Zr1_4 1_555 1_555
O6_4 Zr2_4 1_555 1_555
C1_4 C2_4 1_555 1_555
C2_4 H1_4 1_555 1_555
C3_4 C2_4 1_555 1_555
C4_4 O2_4 1_555 1_555
C5_4 S2_4 1_555 1_555
Zr3_7 O10_4 1_555 1_555
Zr4_8 O12_4 1_555 1_555
Zr5_4 O5_4 1_555 1_555
Zr6_4 O5_4 1_555 1_555
Zr7_4 O16_4 1_555 1_555
Zr8_4 O7_4 1_555 1_555
Zr9_4 O18_4 1_555 1_555
S3_4 C13_4 1_555 1_555
S4_4 C6_4 1_555 1_555
S5_4 C7_4 1_555 1_555
S6_4 C8_4 1_555 1_555
O7_4 Zr1_4 1_555 1_555
O8_4 Zr2_4 1_555 1_555
O9_4 Zr5_4 1_555 1_555
O10_4 C15_4 1_555 1_555
O11_4 Zr1_4 1_555 1_555
O12_4 C17_4 1_555 1_555
O13_4 Zr1_4 1_555 1_555
O14_4 Zr1_4 1_555 1_555
O15_4 Zr5_4 1_555 1_555
O16_4 C15_4 1_555 1_555
O17_4 Zr5_4 1_555 1_555
O18_4 C17_4 1_555 1_555
O19_4 Zr2_4 1_555 1_555
O20_4 Zr5_4 1_555 1_555
O21_4 Zr1_4 1_555 1_555
O22_4 Zr2_4 1_555 1_555
O23_4 Zr5_4 1_555 1_555
O24_4 Zr5_4 1_555 1_555
C6_4 C9_4 1_555 1_555
C7_4 C10_4 1_555 1_555
C8_4 C11_4 1_555 1_555
C9_4 H2_4 1_555 1_555
C10_4 H3_4 1_555 1_555
C11_4 H4_4 1_555 1_555
C12_4 S1_4 1_555 1_555
C13_4 C10_4 1_555 1_555
C14_4 S3_4 1_555 1_555
C15_4 C6_4 1_555 1_555
C16_4 O11_4 1_555 1_555
C17_4 C8_4 1_555 1_555
C18_4 C5_4 1_555 1_555
C19_4 S5_4 1_555 1_555
C20_4 S6_4 1_555 1_555
Zr2_4 O21_4 1_555 1_555
O4_4 C4_4 1_555 1_555
C1_4 C4_4 1_555 1_555
C3_4 C5_4 1_555 1_555
Zr5_4 O7_4 1_555 1_555
Zr6_4 O8_4 1_555 1_555
Zr6_4 O23_4 1_555 1_555
Zr8_4 O9_4 1_555 1_555
Zr8_4 O21_4 1_555 1_555
Zr8_4 O22_4 1_555 1_555
S4_4 C18_4 1_555 1_555
O17_4 C16_4 1_555 1_555
C7_4 C16_4 1_555 1_555
C9_4 C12_4 1_555 1_555
C11_4 C14_4 1_555 1_555
C12_4 C18_4 1_555 1_555
C13_4 C19_4 1_555 1_555
C14_4 C20_4 1_555 1_555
C19_4 C20_4 1_555 1_555
Zr1_5 O1_5 1_555 1_555
Zr2_5 O1_5 1_555 1_555
S1_5 C3_5 1_555 1_555
S2_5 C1_5 1_555 1_555
O1_5 Zr6_5 1_555 1_555
O2_5 Zr1_5 1_555 1_555
O3_5 Zr2_5 1_555 1_555
O4_5 Zr2_5 1_555 1_555
O5_5 Zr1_5 1_555 1_555
O6_5 Zr2_5 1_555 1_555
C1_5 C2_5 1_555 1_555
C2_5 H1_5 1_555 1_555
C3_5 C2_5 1_555 1_555
C4_5 O2_5 1_555 1_555
C5_5 S2_5 1_555 1_555
Zr3_9 O10_5 1_555 1_555
Zr4_9 O12_5 1_555 1_555
Zr5_5 O5_5 1_555 1_555
Zr6_5 O5_5 1_555 1_555
Zr7_5 O16_5 1_555 1_555
Zr8_5 O7_5 1_555 1_555
Zr9_5 O18_5 1_555 1_555
S3_5 C13_5 1_555 1_555
S4_5 C6_5 1_555 1_555
S5_5 C7_5 1_555 1_555
S6_5 C8_5 1_555 1_555
O7_5 Zr1_5 1_555 1_555
O8_5 Zr2_5 1_555 1_555
O9_5 Zr5_5 1_555 1_555
O10_5 C15_5 1_555 1_555
O11_5 Zr1_5 1_555 1_555
O12_5 C17_5 1_555 1_555
O13_5 Zr1_5 1_555 1_555
O14_5 Zr1_5 1_555 1_555
O15_5 Zr5_5 1_555 1_555
O16_5 C15_5 1_555 1_555
O17_5 Zr5_5 1_555 1_555
O18_5 C17_5 1_555 1_555
O19_5 Zr2_5 1_555 1_555
O20_5 Zr5_5 1_555 1_555
O21_5 Zr1_5 1_555 1_555
O22_5 Zr2_5 1_555 1_555
O23_5 Zr5_5 1_555 1_555
O24_5 Zr5_5 1_555 1_555
C6_5 C9_5 1_555 1_555
C7_5 C10_5 1_555 1_555
C8_5 C11_5 1_555 1_555
C9_5 H2_5 1_555 1_555
C10_5 H3_5 1_555 1_555
C11_5 H4_5 1_555 1_555
C12_5 S1_5 1_555 1_555
C13_5 C10_5 1_555 1_555
C14_5 S3_5 1_555 1_555
C15_5 C6_5 1_555 1_555
C16_5 O11_5 1_555 1_555
C17_5 C8_5 1_555 1_555
C18_5 C5_5 1_555 1_555
C19_5 S5_5 1_555 1_555
C20_5 S6_5 1_555 1_555
Zr2_5 O21_5 1_555 1_555
O4_5 C4_5 1_555 1_555
C1_5 C4_5 1_555 1_555
C3_5 C5_5 1_555 1_555
Zr5_5 O7_5 1_555 1_555
Zr6_5 O8_5 1_555 1_555
Zr6_5 O23_5 1_555 1_555
Zr8_5 O9_5 1_555 1_555
Zr8_5 O21_5 1_555 1_555
Zr8_5 O22_5 1_555 1_555
S4_5 C18_5 1_555 1_555
O17_5 C16_5 1_555 1_555
C7_5 C16_5 1_555 1_555
C9_5 C12_5 1_555 1_555
C11_5 C14_5 1_555 1_555
C12_5 C18_5 1_555 1_555
C13_5 C19_5 1_555 1_555
C14_5 C20_5 1_555 1_555
C19_5 C20_5 1_555 1_555
Zr1_6 O1_6 1_555 1_555
Zr2_6 O1_6 1_555 1_555
S1_6 C3_6 1_555 1_555
S2_6 C1_6 1_555 1_555
O1_6 Zr6_6 1_555 1_555
O2_6 Zr1_6 1_555 1_555
O3_6 Zr2_6 1_555 1_555
O4_6 Zr2_6 1_555 1_555
O5_6 Zr1_6 1_555 1_555
O6_6 Zr2_6 1_555 1_555
C1_6 C2_6 1_555 1_555
C2_6 H1_6 1_555 1_555
C3_6 C2_6 1_555 1_555
C4_6 O2_6 1_555 1_555
C5_6 S2_6 1_555 1_555
Zr3_12 O10_6 1_555 1_555
Zr4_11 O12_6 1_555 1_555
Zr5_6 O5_6 1_555 1_555
Zr6_6 O5_6 1_555 1_555
Zr7_6 O16_6 1_555 1_555
Zr8_6 O7_6 1_555 1_555
Zr9_6 O18_6 1_555 1_555
S3_6 C13_6 1_555 1_555
S4_6 C6_6 1_555 1_555
S5_6 C7_6 1_555 1_555
S6_6 C8_6 1_555 1_555
O7_6 Zr1_6 1_555 1_555
O8_6 Zr2_6 1_555 1_555
O9_6 Zr5_6 1_555 1_555
O10_6 C15_6 1_555 1_555
O11_6 Zr1_6 1_555 1_555
O12_6 C17_6 1_555 1_555
O13_6 Zr1_6 1_555 1_555
O14_6 Zr1_6 1_555 1_555
O15_6 Zr5_6 1_555 1_555
O16_6 C15_6 1_555 1_555
O17_6 Zr5_6 1_555 1_555
O18_6 C17_6 1_555 1_555
O19_6 Zr2_6 1_555 1_555
O20_6 Zr5_6 1_555 1_555
O21_6 Zr1_6 1_555 1_555
O22_6 Zr2_6 1_555 1_555
O23_6 Zr5_6 1_555 1_555
O24_6 Zr5_6 1_555 1_555
C6_6 C9_6 1_555 1_555
C7_6 C10_6 1_555 1_555
C8_6 C11_6 1_555 1_555
C9_6 H2_6 1_555 1_555
C10_6 H3_6 1_555 1_555
C11_6 H4_6 1_555 1_555
C12_6 S1_6 1_555 1_555
C13_6 C10_6 1_555 1_555
C14_6 S3_6 1_555 1_555
C15_6 C6_6 1_555 1_555
C16_6 O11_6 1_555 1_555
C17_6 C8_6 1_555 1_555
C18_6 C5_6 1_555 1_555
C19_6 S5_6 1_555 1_555
C20_6 S6_6 1_555 1_555
Zr2_6 O21_6 1_555 1_555
O4_6 C4_6 1_555 1_555
C1_6 C4_6 1_555 1_555
C3_6 C5_6 1_555 1_555
Zr5_6 O7_6 1_555 1_555
Zr6_6 O8_6 1_555 1_555
Zr6_6 O23_6 1_555 1_555
Zr8_6 O9_6 1_555 1_555
Zr8_6 O21_6 1_555 1_555
Zr8_6 O22_6 1_555 1_555
S4_6 C18_6 1_555 1_555
O17_6 C16_6 1_555 1_555
C7_6 C16_6 1_555 1_555
C9_6 C12_6 1_555 1_555
C11_6 C14_6 1_555 1_555
C12_6 C18_6 1_555 1_555
C13_6 C19_6 1_555 1_555
C14_6 C20_6 1_555 1_555
C19_6 C20_6 1_555 1_555
Zr1_7 O1_7 1_555 1_555
Zr2_7 O1_7 1_555 1_555
S1_7 C3_7 1_555 1_555
S2_7 C1_7 1_555 1_555
O1_7 Zr6_7 1_555 1_555
O2_7 Zr1_7 1_555 1_555
O3_7 Zr2_7 1_555 1_555
O4_7 Zr2_7 1_555 1_555
O5_7 Zr1_7 1_555 1_555
O6_7 Zr2_7 1_555 1_555
C1_7 C2_7 1_555 1_555
C2_7 H1_7 1_555 1_555
C3_7 C2_7 1_555 1_555
C4_7 O2_7 1_555 1_555
C5_7 S2_7 1_555 1_555
Zr3_14 O10_7 1_555 1_555
Zr4_14 O12_7 1_555 1_555
Zr5_7 O5_7 1_555 1_555
Zr6_7 O5_7 1_555 1_555
Zr7_7 O16_7 1_555 1_555
Zr8_7 O7_7 1_555 1_555
Zr9_7 O18_7 1_555 1_555
S3_7 C13_7 1_555 1_555
S4_7 C6_7 1_555 1_555
S5_7 C7_7 1_555 1_555
S6_7 C8_7 1_555 1_555
O7_7 Zr1_7 1_555 1_555
O8_7 Zr2_7 1_555 1_555
O9_7 Zr5_7 1_555 1_555
O10_7 C15_7 1_555 1_555
O11_7 Zr1_7 1_555 1_555
O12_7 C17_7 1_555 1_555
O13_7 Zr1_7 1_555 1_555
O14_7 Zr1_7 1_555 1_555
O15_7 Zr5_7 1_555 1_555
O16_7 C15_7 1_555 1_555
O17_7 Zr5_7 1_555 1_555
O18_7 C17_7 1_555 1_555
O19_7 Zr2_7 1_555 1_555
O20_7 Zr5_7 1_555 1_555
O21_7 Zr1_7 1_555 1_555
O22_7 Zr2_7 1_555 1_555
O23_7 Zr5_7 1_555 1_555
O24_7 Zr5_7 1_555 1_555
C6_7 C9_7 1_555 1_555
C7_7 C10_7 1_555 1_555
C8_7 C11_7 1_555 1_555
C9_7 H2_7 1_555 1_555
C10_7 H3_7 1_555 1_555
C11_7 H4_7 1_555 1_555
C12_7 S1_7 1_555 1_555
C13_7 C10_7 1_555 1_555
C14_7 S3_7 1_555 1_555
C15_7 C6_7 1_555 1_555
C16_7 O11_7 1_555 1_555
C17_7 C8_7 1_555 1_555
C18_7 C5_7 1_555 1_555
C19_7 S5_7 1_555 1_555
C20_7 S6_7 1_555 1_555
Zr2_7 O21_7 1_555 1_555
O4_7 C4_7 1_555 1_555
C1_7 C4_7 1_555 1_555
C3_7 C5_7 1_555 1_555
Zr5_7 O7_7 1_555 1_555
Zr6_7 O8_7 1_555 1_555
Zr6_7 O23_7 1_555 1_555
Zr8_7 O9_7 1_555 1_555
Zr8_7 O21_7 1_555 1_555
Zr8_7 O22_7 1_555 1_555
S4_7 C18_7 1_555 1_555
O17_7 C16_7 1_555 1_555
C7_7 C16_7 1_555 1_555
C9_7 C12_7 1_555 1_555
C11_7 C14_7 1_555 1_555
C12_7 C18_7 1_555 1_555
C13_7 C19_7 1_555 1_555
C14_7 C20_7 1_555 1_555
C19_7 C20_7 1_555 1_555
Zr1_8 O1_8 1_555 1_555
Zr2_8 O1_8 1_555 1_555
S1_8 C3_8 1_555 1_555
S2_8 C1_8 1_555 1_555
O1_8 Zr6_8 1_555 1_555
O2_8 Zr1_8 1_555 1_555
O3_8 Zr2_8 1_555 1_555
O4_8 Zr2_8 1_555 1_555
O5_8 Zr1_8 1_555 1_555
O6_8 Zr2_8 1_555 1_555
C1_8 C2_8 1_555 1_555
C2_8 H1_8 1_555 1_555
C3_8 C2_8 1_555 1_555
C4_8 O2_8 1_555 1_555
C5_8 S2_8 1_555 1_555
Zr3_15 O10_8 1_555 1_555
Zr4_16 O12_8 1_555 1_555
Zr5_8 O5_8 1_555 1_555
Zr6_8 O5_8 1_555 1_555
Zr7_8 O16_8 1_555 1_555
Zr8_8 O7_8 1_555 1_555
Zr9_8 O18_8 1_555 1_555
S3_8 C13_8 1_555 1_555
S4_8 C6_8 1_555 1_555
S5_8 C7_8 1_555 1_555
S6_8 C8_8 1_555 1_555
O7_8 Zr1_8 1_555 1_555
O8_8 Zr2_8 1_555 1_555
O9_8 Zr5_8 1_555 1_555
O10_8 C15_8 1_555 1_555
O11_8 Zr1_8 1_555 1_555
O12_8 C17_8 1_555 1_555
O13_8 Zr1_8 1_555 1_555
O14_8 Zr1_8 1_555 1_555
O15_8 Zr5_8 1_555 1_555
O16_8 C15_8 1_555 1_555
O17_8 Zr5_8 1_555 1_555
O18_8 C17_8 1_555 1_555
O19_8 Zr2_8 1_555 1_555
O20_8 Zr5_8 1_555 1_555
O21_8 Zr1_8 1_555 1_555
O22_8 Zr2_8 1_555 1_555
O23_8 Zr5_8 1_555 1_555
O24_8 Zr5_8 1_555 1_555
C6_8 C9_8 1_555 1_555
C7_8 C10_8 1_555 1_555
C8_8 C11_8 1_555 1_555
C9_8 H2_8 1_555 1_555
C10_8 H3_8 1_555 1_555
C11_8 H4_8 1_555 1_555
C12_8 S1_8 1_555 1_555
C13_8 C10_8 1_555 1_555
C14_8 S3_8 1_555 1_555
C15_8 C6_8 1_555 1_555
C16_8 O11_8 1_555 1_555
C17_8 C8_8 1_555 1_555
C18_8 C5_8 1_555 1_555
C19_8 S5_8 1_555 1_555
C20_8 S6_8 1_555 1_555
Zr2_8 O21_8 1_555 1_555
O4_8 C4_8 1_555 1_555
C1_8 C4_8 1_555 1_555
C3_8 C5_8 1_555 1_555
Zr5_8 O7_8 1_555 1_555
Zr6_8 O8_8 1_555 1_555
Zr6_8 O23_8 1_555 1_555
Zr8_8 O9_8 1_555 1_555
Zr8_8 O21_8 1_555 1_555
Zr8_8 O22_8 1_555 1_555
S4_8 C18_8 1_555 1_555
O17_8 C16_8 1_555 1_555
C7_8 C16_8 1_555 1_555
C9_8 C12_8 1_555 1_555
C11_8 C14_8 1_555 1_555
C12_8 C18_8 1_555 1_555
C13_8 C19_8 1_555 1_555
C14_8 C20_8 1_555 1_555
C19_8 C20_8 1_555 1_555
Zr1_9 O1_9 1_555 1_555
Zr2_9 O1_9 1_555 1_555
S1_9 C3_9 1_555 1_555
S2_9 C1_9 1_555 1_555
O1_9 Zr6_9 1_555 1_555
O2_9 Zr1_9 1_555 1_555
O3_9 Zr2_9 1_555 1_555
O4_9 Zr2_9 1_555 1_555
O5_9 Zr1_9 1_555 1_555
O6_9 Zr2_9 1_555 1_555
C1_9 C2_9 1_555 1_555
C2_9 H1_9 1_555 1_555
C3_9 C2_9 1_555 1_555
C4_9 O2_9 1_555 1_555
C5_9 S2_9 1_555 1_555
Zr3_17 O10_9 1_555 1_555
Zr4_17 O12_9 1_555 1_555
Zr5_9 O5_9 1_555 1_555
Zr6_9 O5_9 1_555 1_555
Zr7_9 O16_9 1_555 1_555
Zr8_9 O7_9 1_555 1_555
Zr9_9 O18_9 1_555 1_555
S3_9 C13_9 1_555 1_555
S4_9 C6_9 1_555 1_555
S5_9 C7_9 1_555 1_555
S6_9 C8_9 1_555 1_555
O7_9 Zr1_9 1_555 1_555
O8_9 Zr2_9 1_555 1_555
O9_9 Zr5_9 1_555 1_555
O10_9 C15_9 1_555 1_555
O11_9 Zr1_9 1_555 1_555
O12_9 C17_9 1_555 1_555
O13_9 Zr1_9 1_555 1_555
O14_9 Zr1_9 1_555 1_555
O15_9 Zr5_9 1_555 1_555
O16_9 C15_9 1_555 1_555
O17_9 Zr5_9 1_555 1_555
O18_9 C17_9 1_555 1_555
O19_9 Zr2_9 1_555 1_555
O20_9 Zr5_9 1_555 1_555
O21_9 Zr1_9 1_555 1_555
O22_9 Zr2_9 1_555 1_555
O23_9 Zr5_9 1_555 1_555
O24_9 Zr5_9 1_555 1_555
C6_9 C9_9 1_555 1_555
C7_9 C10_9 1_555 1_555
C8_9 C11_9 1_555 1_555
C9_9 H2_9 1_555 1_555
C10_9 H3_9 1_555 1_555
C11_9 H4_9 1_555 1_555
C12_9 S1_9 1_555 1_555
C13_9 C10_9 1_555 1_555
C14_9 S3_9 1_555 1_555
C15_9 C6_9 1_555 1_555
C16_9 O11_9 1_555 1_555
C17_9 C8_9 1_555 1_555
C18_9 C5_9 1_555 1_555
C19_9 S5_9 1_555 1_555
C20_9 S6_9 1_555 1_555
Zr2_9 O21_9 1_555 1_555
O4_9 C4_9 1_555 1_555
C1_9 C4_9 1_555 1_555
C3_9 C5_9 1_555 1_555
Zr5_9 O7_9 1_555 1_555
Zr6_9 O8_9 1_555 1_555
Zr6_9 O23_9 1_555 1_555
Zr8_9 O9_9 1_555 1_555
Zr8_9 O21_9 1_555 1_555
Zr8_9 O22_9 1_555 1_555
S4_9 C18_9 1_555 1_555
O17_9 C16_9 1_555 1_555
C7_9 C16_9 1_555 1_555
C9_9 C12_9 1_555 1_555
C11_9 C14_9 1_555 1_555
C12_9 C18_9 1_555 1_555
C13_9 C19_9 1_555 1_555
C14_9 C20_9 1_555 1_555
C19_9 C20_9 1_555 1_555
Zr1_10 O1_10 1_555 1_555
Zr2_10 O1_10 1_555 1_555
S1_10 C3_10 1_555 1_555
S2_10 C1_10 1_555 1_555
O1_10 Zr6_10 1_555 1_555
O2_10 Zr1_10 1_555 1_555
O3_10 Zr2_10 1_555 1_555
O4_10 Zr2_10 1_555 1_555
O5_10 Zr1_10 1_555 1_555
O6_10 Zr2_10 1_555 1_555
C1_10 C2_10 1_555 1_555
C2_10 H1_10 1_555 1_555
C3_10 C2_10 1_555 1_555
C4_10 O2_10 1_555 1_555
C5_10 S2_10 1_555 1_555
Zr3_20 O10_10 1_555 1_555
Zr4_19 O12_10 1_555 1_555
Zr5_10 O5_10 1_555 1_555
Zr6_10 O5_10 1_555 1_555
Zr7_10 O16_10 1_555 1_555
Zr8_10 O7_10 1_555 1_555
Zr9_10 O18_10 1_555 1_555
S3_10 C13_10 1_555 1_555
S4_10 C6_10 1_555 1_555
S5_10 C7_10 1_555 1_555
S6_10 C8_10 1_555 1_555
O7_10 Zr1_10 1_555 1_555
O8_10 Zr2_10 1_555 1_555
O9_10 Zr5_10 1_555 1_555
O10_10 C15_10 1_555 1_555
O11_10 Zr1_10 1_555 1_555
O12_10 C17_10 1_555 1_555
O13_10 Zr1_10 1_555 1_555
O14_10 Zr1_10 1_555 1_555
O15_10 Zr5_10 1_555 1_555
O16_10 C15_10 1_555 1_555
O17_10 Zr5_10 1_555 1_555
O18_10 C17_10 1_555 1_555
O19_10 Zr2_10 1_555 1_555
O20_10 Zr5_10 1_555 1_555
O21_10 Zr1_10 1_555 1_555
O22_10 Zr2_10 1_555 1_555
O23_10 Zr5_10 1_555 1_555
O24_10 Zr5_10 1_555 1_555
C6_10 C9_10 1_555 1_555
C7_10 C10_10 1_555 1_555
C8_10 C11_10 1_555 1_555
C9_10 H2_10 1_555 1_555
C10_10 H3_10 1_555 1_555
C11_10 H4_10 1_555 1_555
C12_10 S1_10 1_555 1_555
C13_10 C10_10 1_555 1_555
C14_10 S3_10 1_555 1_555
C15_10 C6_10 1_555 1_555
C16_10 O11_10 1_555 1_555
C17_10 C8_10 1_555 1_555
C18_10 C5_10 1_555 1_555
C19_10 S5_10 1_555 1_555
C20_10 S6_10 1_555 1_555
Zr2_10 O21_10 1_555 1_555
O4_10 C4_10 1_555 1_555
C1_10 C4_10 1_555 1_555
C3_10 C5_10 1_555 1_555
Zr5_10 O7_10 1_555 1_555
Zr6_10 O8_10 1_555 1_555
Zr6_10 O23_10 1_555 1_555
Zr8_10 O9_10 1_555 1_555
Zr8_10 O21_10 1_555 1_555
Zr8_10 O22_10 1_555 1_555
S4_10 C18_10 1_555 1_555
O17_10 C16_10 1_555 1_555
C7_10 C16_10 1_555 1_555
C9_10 C12_10 1_555 1_555
C11_10 C14_10 1_555 1_555
C12_10 C18_10 1_555 1_555
C13_10 C19_10 1_555 1_555
C14_10 C20_10 1_555 1_555
C19_10 C20_10 1_555 1_555
Zr1_11 O1_11 1_555 1_555
Zr2_11 O1_11 1_555 1_555
S1_11 C3_11 1_555 1_555
S2_11 C1_11 1_555 1_555
O1_11 Zr6_11 1_555 1_555
O2_11 Zr1_11 1_555 1_555
O3_11 Zr2_11 1_555 1_555
O4_11 Zr2_11 1_555 1_555
O5_11 Zr1_11 1_555 1_555
O6_11 Zr2_11 1_555 1_555
C1_11 C2_11 1_555 1_555
C2_11 H1_11 1_555 1_555
C3_11 C2_11 1_555 1_555
C4_11 O2_11 1_555 1_555
C5_11 S2_11 1_555 1_555
Zr3_22 O10_11 1_555 1_555
Zr4_22 O12_11 1_555 1_555
Zr5_11 O5_11 1_555 1_555
Zr6_11 O5_11 1_555 1_555
Zr7_11 O16_11 1_555 1_555
Zr8_11 O7_11 1_555 1_555
Zr9_11 O18_11 1_555 1_555
S3_11 C13_11 1_555 1_555
S4_11 C6_11 1_555 1_555
S5_11 C7_11 1_555 1_555
S6_11 C8_11 1_555 1_555
O7_11 Zr1_11 1_555 1_555
O8_11 Zr2_11 1_555 1_555
O9_11 Zr5_11 1_555 1_555
O10_11 C15_11 1_555 1_555
O11_11 Zr1_11 1_555 1_555
O12_11 C17_11 1_555 1_555
O13_11 Zr1_11 1_555 1_555
O14_11 Zr1_11 1_555 1_555
O15_11 Zr5_11 1_555 1_555
O16_11 C15_11 1_555 1_555
O17_11 Zr5_11 1_555 1_555
O18_11 C17_11 1_555 1_555
O19_11 Zr2_11 1_555 1_555
O20_11 Zr5_11 1_555 1_555
O21_11 Zr1_11 1_555 1_555
O22_11 Zr2_11 1_555 1_555
O23_11 Zr5_11 1_555 1_555
O24_11 Zr5_11 1_555 1_555
C6_11 C9_11 1_555 1_555
C7_11 C10_11 1_555 1_555
C8_11 C11_11 1_555 1_555
C9_11 H2_11 1_555 1_555
C10_11 H3_11 1_555 1_555
C11_11 H4_11 1_555 1_555
C12_11 S1_11 1_555 1_555
C13_11 C10_11 1_555 1_555
C14_11 S3_11 1_555 1_555
C15_11 C6_11 1_555 1_555
C16_11 O11_11 1_555 1_555
C17_11 C8_11 1_555 1_555
C18_11 C5_11 1_555 1_555
C19_11 S5_11 1_555 1_555
C20_11 S6_11 1_555 1_555
Zr2_11 O21_11 1_555 1_555
O4_11 C4_11 1_555 1_555
C1_11 C4_11 1_555 1_555
C3_11 C5_11 1_555 1_555
Zr5_11 O7_11 1_555 1_555
Zr6_11 O8_11 1_555 1_555
Zr6_11 O23_11 1_555 1_555
Zr8_11 O9_11 1_555 1_555
Zr8_11 O21_11 1_555 1_555
Zr8_11 O22_11 1_555 1_555
S4_11 C18_11 1_555 1_555
O17_11 C16_11 1_555 1_555
C7_11 C16_11 1_555 1_555
C9_11 C12_11 1_555 1_555
C11_11 C14_11 1_555 1_555
C12_11 C18_11 1_555 1_555
C13_11 C19_11 1_555 1_555
C14_11 C20_11 1_555 1_555
C19_11 C20_11 1_555 1_555
Zr1_12 O1_12 1_555 1_555
Zr2_12 O1_12 1_555 1_555
S1_12 C3_12 1_555 1_555
S2_12 C1_12 1_555 1_555
O1_12 Zr6_12 1_555 1_555
O2_12 Zr1_12 1_555 1_555
O3_12 Zr2_12 1_555 1_555
O4_12 Zr2_12 1_555 1_555
O5_12 Zr1_12 1_555 1_555
O6_12 Zr2_12 1_555 1_555
C1_12 C2_12 1_555 1_555
C2_12 H1_12 1_555 1_555
C3_12 C2_12 1_555 1_555
C4_12 O2_12 1_555 1_555
C5_12 S2_12 1_555 1_555
Zr3_23 O10_12 1_555 1_555
Zr4_24 O12_12 1_555 1_555
Zr5_12 O5_12 1_555 1_555
Zr6_12 O5_12 1_555 1_555
Zr7_12 O16_12 1_555 1_555
Zr8_12 O7_12 1_555 1_555
Zr9_12 O18_12 1_555 1_555
S3_12 C13_12 1_555 1_555
S4_12 C6_12 1_555 1_555
S5_12 C7_12 1_555 1_555
S6_12 C8_12 1_555 1_555
O7_12 Zr1_12 1_555 1_555
O8_12 Zr2_12 1_555 1_555
O9_12 Zr5_12 1_555 1_555
O10_12 C15_12 1_555 1_555
O11_12 Zr1_12 1_555 1_555
O12_12 C17_12 1_555 1_555
O13_12 Zr1_12 1_555 1_555
O14_12 Zr1_12 1_555 1_555
O15_12 Zr5_12 1_555 1_555
O16_12 C15_12 1_555 1_555
O17_12 Zr5_12 1_555 1_555
O18_12 C17_12 1_555 1_555
O19_12 Zr2_12 1_555 1_555
O20_12 Zr5_12 1_555 1_555
O21_12 Zr1_12 1_555 1_555
O22_12 Zr2_12 1_555 1_555
O23_12 Zr5_12 1_555 1_555
O24_12 Zr5_12 1_555 1_555
C6_12 C9_12 1_555 1_555
C7_12 C10_12 1_555 1_555
C8_12 C11_12 1_555 1_555
C9_12 H2_12 1_555 1_555
C10_12 H3_12 1_555 1_555
C11_12 H4_12 1_555 1_555
C12_12 S1_12 1_555 1_555
C13_12 C10_12 1_555 1_555
C14_12 S3_12 1_555 1_555
C15_12 C6_12 1_555 1_555
C16_12 O11_12 1_555 1_555
C17_12 C8_12 1_555 1_555
C18_12 C5_12 1_555 1_555
C19_12 S5_12 1_555 1_555
C20_12 S6_12 1_555 1_555
Zr2_12 O21_12 1_555 1_555
O4_12 C4_12 1_555 1_555
C1_12 C4_12 1_555 1_555
C3_12 C5_12 1_555 1_555
Zr5_12 O7_12 1_555 1_555
Zr6_12 O8_12 1_555 1_555
Zr6_12 O23_12 1_555 1_555
Zr8_12 O9_12 1_555 1_555
Zr8_12 O21_12 1_555 1_555
Zr8_12 O22_12 1_555 1_555
S4_12 C18_12 1_555 1_555
O17_12 C16_12 1_555 1_555
C7_12 C16_12 1_555 1_555
C9_12 C12_12 1_555 1_555
C11_12 C14_12 1_555 1_555
C12_12 C18_12 1_555 1_555
C13_12 C19_12 1_555 1_555
C14_12 C20_12 1_555 1_555
C19_12 C20_12 1_555 1_555
O5_13 Zr3_11 1_555 1_555
Zr9_10 O5_13 1_555 1_555
Zr8_13 O7_13 1_555 1_555
Zr8_5 O18_13 1_555 1_555
S3_13 C13_13 1_555 1_555
S5_13 C7_13 1_555 1_555
S6_13 C8_13 1_555 1_555
O7_13 Zr3_11 1_555 1_555
O9_13 Zr9_10 1_555 1_555
O11_13 Zr3_11 1_555 1_555
O13_5 C17_13 1_555 1_555
O13_13 Zr3_11 1_555 1_555
O15_13 Zr9_10 1_555 1_555
O17_13 Zr9_10 1_555 1_555
O18_13 C17_13 1_555 1_555
O21_13 Zr3_11 1_555 1_555
O23_13 Zr9_10 1_555 1_555
O24_13 Zr9_10 1_555 1_555
C7_13 C10_13 1_555 1_555
C8_13 C11_13 1_555 1_555
C10_13 H3_13 1_555 1_555
C11_13 H4_13 1_555 1_555
C13_13 C10_13 1_555 1_555
C14_13 S3_13 1_555 1_555
C16_13 O11_13 1_555 1_555
C17_13 C8_13 1_555 1_555
C19_13 S5_13 1_555 1_555
C20_13 S6_13 1_555 1_555
Zr9_10 O7_13 1_555 1_555
Zr8_13 O9_13 1_555 1_555
Zr8_13 O21_13 1_555 1_555
Zr8_13 O22_13 1_555 1_555
O17_13 C16_13 1_555 1_555
C7_13 C16_13 1_555 1_555
C11_13 C14_13 1_555 1_555
C13_13 C19_13 1_555 1_555
C14_13 C20_13 1_555 1_555
C19_13 C20_13 1_555 1_555
Zr3_12 O1_13 1_555 1_555
Zr2_13 O1_13 1_555 1_555
S1_13 C3_13 1_555 1_555
S2_13 C1_13 1_555 1_555
O1_13 Zr7_6 1_555 1_555
O2_13 Zr3_12 1_555 1_555
O3_13 Zr2_13 1_555 1_555
O4_13 Zr2_13 1_555 1_555
O5_14 Zr3_12 1_555 1_555
O6_13 Zr2_13 1_555 1_555
C1_13 C2_13 1_555 1_555
C2_13 H1_13 1_555 1_555
C3_13 C2_13 1_555 1_555
C4_13 O2_13 1_555 1_555
C5_13 S2_13 1_555 1_555
Zr4_13 O10_13 1_555 1_555
Zr7_6 O5_14 1_555 1_555
Zr7_13 O16_13 1_555 1_555
S4_13 C6_13 1_555 1_555
O8_13 Zr2_13 1_555 1_555
O10_13 C15_13 1_555 1_555
O16_13 C15_13 1_555 1_555
O19_13 Zr2_13 1_555 1_555
O21_14 Zr3_12 1_555 1_555
O22_14 Zr2_13 1_555 1_555
C6_13 C9_13 1_555 1_555
C9_13 H2_13 1_555 1_555
C12_13 S1_13 1_555 1_555
C15_13 C6_13 1_555 1_555
C18_13 C5_13 1_555 1_555
Zr2_13 O21_14 1_555 1_555
O4_13 C4_13 1_555 1_555
C1_13 C4_13 1_555 1_555
C3_13 C5_13 1_555 1_555
Zr7_6 O8_13 1_555 1_555
Zr7_6 O23_14 1_555 1_555
S4_13 C18_13 1_555 1_555
C9_13 C12_13 1_555 1_555
C12_13 C18_13 1_555 1_555
Zr3_15 O1_14 1_555 1_555
Zr2_14 O1_14 1_555 1_555
S1_14 C3_14 1_555 1_555
S2_14 C1_14 1_555 1_555
O1_14 Zr7_8 1_555 1_555
O2_14 Zr3_15 1_555 1_555
O3_14 Zr2_14 1_555 1_555
O4_14 Zr2_14 1_555 1_555
O5_15 Zr3_15 1_555 1_555
O6_14 Zr2_14 1_555 1_555
C1_14 C2_14 1_555 1_555
C2_14 H1_14 1_555 1_555
C3_14 C2_14 1_555 1_555
C4_14 O2_14 1_555 1_555
C5_14 S2_14 1_555 1_555
Zr4_10 O10_14 1_555 1_555
Zr7_8 O5_15 1_555 1_555
Zr7_14 O16_14 1_555 1_555
S4_14 C6_14 1_555 1_555
O8_14 Zr2_14 1_555 1_555
O10_14 C15_14 1_555 1_555
O16_14 C15_14 1_555 1_555
O19_14 Zr2_14 1_555 1_555
O21_15 Zr3_15 1_555 1_555
O22_15 Zr2_14 1_555 1_555
C6_14 C9_14 1_555 1_555
C9_14 H2_14 1_555 1_555
C12_14 S1_14 1_555 1_555
C15_14 C6_14 1_555 1_555
C18_14 C5_14 1_555 1_555
Zr2_14 O21_15 1_555 1_555
O4_14 C4_14 1_555 1_555
C1_14 C4_14 1_555 1_555
C3_14 C5_14 1_555 1_555
Zr7_8 O8_14 1_555 1_555
Zr7_8 O23_15 1_555 1_555
S4_14 C18_14 1_555 1_555
C9_14 C12_14 1_555 1_555
C12_14 C18_14 1_555 1_555
O5_16 Zr3_16 1_555 1_555
Zr9_11 O5_16 1_555 1_555
Zr8_14 O7_14 1_555 1_555
Zr8_7 O18_14 1_555 1_555
S3_14 C13_14 1_555 1_555
S5_14 C7_14 1_555 1_555
S6_14 C8_14 1_555 1_555
O7_14 Zr3_16 1_555 1_555
O9_14 Zr9_11 1_555 1_555
O11_14 Zr3_16 1_555 1_555
O13_7 C17_14 1_555 1_555
O13_14 Zr3_16 1_555 1_555
O15_14 Zr9_11 1_555 1_555
O17_14 Zr9_11 1_555 1_555
O18_14 C17_14 1_555 1_555
O21_16 Zr3_16 1_555 1_555
O23_16 Zr9_11 1_555 1_555
O24_14 Zr9_11 1_555 1_555
C7_14 C10_14 1_555 1_555
C8_14 C11_14 1_555 1_555
C10_14 H3_14 1_555 1_555
C11_14 H4_14 1_555 1_555
C13_14 C10_14 1_555 1_555
C14_14 S3_14 1_555 1_555
C16_14 O11_14 1_555 1_555
C17_14 C8_14 1_555 1_555
C19_14 S5_14 1_555 1_555
C20_14 S6_14 1_555 1_555
Zr9_11 O7_14 1_555 1_555
Zr8_14 O9_14 1_555 1_555
Zr8_14 O21_16 1_555 1_555
Zr8_14 O22_16 1_555 1_555
O17_14 C16_14 1_555 1_555
C7_14 C16_14 1_555 1_555
C11_14 C14_14 1_555 1_555
C13_14 C19_14 1_555 1_555
C14_14 C20_14 1_555 1_555
C19_14 C20_14 1_555 1_555
O5_17 Zr3_13 1_555 1_555
Zr9_9 O5_17 1_555 1_555
Zr8_15 O7_15 1_555 1_555
Zr8_8 O18_15 1_555 1_555
S3_15 C13_15 1_555 1_555
S5_15 C7_15 1_555 1_555
S6_15 C8_15 1_555 1_555
O7_15 Zr3_13 1_555 1_555
O9_15 Zr9_9 1_555 1_555
O11_15 Zr3_13 1_555 1_555
O13_8 C17_15 1_555 1_555
O13_15 Zr3_13 1_555 1_555
O15_15 Zr9_9 1_555 1_555
O17_15 Zr9_9 1_555 1_555
O18_15 C17_15 1_555 1_555
O21_17 Zr3_13 1_555 1_555
O23_17 Zr9_9 1_555 1_555
O24_15 Zr9_9 1_555 1_555
C7_15 C10_15 1_555 1_555
C8_15 C11_15 1_555 1_555
C10_15 H3_15 1_555 1_555
C11_15 H4_15 1_555 1_555
C13_15 C10_15 1_555 1_555
C14_15 S3_15 1_555 1_555
C16_15 O11_15 1_555 1_555
C17_15 C8_15 1_555 1_555
C19_15 S5_15 1_555 1_555
C20_15 S6_15 1_555 1_555
Zr9_9 O7_15 1_555 1_555
Zr8_15 O9_15 1_555 1_555
Zr8_15 O21_17 1_555 1_555
Zr8_15 O22_17 1_555 1_555
O17_15 C16_15 1_555 1_555
C7_15 C16_15 1_555 1_555
C11_15 C14_15 1_555 1_555
C13_15 C19_15 1_555 1_555
C14_15 C20_15 1_555 1_555
C19_15 C20_15 1_555 1_555
Zr3_14 O1_15 1_555 1_555
Zr2_15 O1_15 1_555 1_555
S1_15 C3_15 1_555 1_555
S2_15 C1_15 1_555 1_555
O1_15 Zr7_7 1_555 1_555
O2_15 Zr3_14 1_555 1_555
O3_15 Zr2_15 1_555 1_555
O4_15 Zr2_15 1_555 1_555
O5_18 Zr3_14 1_555 1_555
O6_15 Zr2_15 1_555 1_555
C1_15 C2_15 1_555 1_555
C2_15 H1_15 1_555 1_555
C3_15 C2_15 1_555 1_555
C4_15 O2_15 1_555 1_555
C5_15 S2_15 1_555 1_555
Zr4_12 O10_15 1_555 1_555
Zr7_7 O5_18 1_555 1_555
Zr7_15 O16_15 1_555 1_555
S4_15 C6_15 1_555 1_555
O8_15 Zr2_15 1_555 1_555
O10_15 C15_15 1_555 1_555
O16_15 C15_15 1_555 1_555
O19_15 Zr2_15 1_555 1_555
O21_18 Zr3_14 1_555 1_555
O22_18 Zr2_15 1_555 1_555
C6_15 C9_15 1_555 1_555
C9_15 H2_15 1_555 1_555
C12_15 S1_15 1_555 1_555
C15_15 C6_15 1_555 1_555
C18_15 C5_15 1_555 1_555
Zr2_15 O21_18 1_555 1_555
O4_15 C4_15 1_555 1_555
C1_15 C4_15 1_555 1_555
C3_15 C5_15 1_555 1_555
Zr7_7 O8_15 1_555 1_555
Zr7_7 O23_18 1_555 1_555
S4_15 C18_15 1_555 1_555
C9_15 C12_15 1_555 1_555
C12_15 C18_15 1_555 1_555
Zr3_9 O1_16 1_555 1_555
Zr2_16 O1_16 1_555 1_555
S1_16 C3_16 1_555 1_555
S2_16 C1_16 1_555 1_555
O1_16 Zr7_5 1_555 1_555
O2_16 Zr3_9 1_555 1_555
O3_16 Zr2_16 1_555 1_555
O4_16 Zr2_16 1_555 1_555
O5_19 Zr3_9 1_555 1_555
O6_16 Zr2_16 1_555 1_555
C1_16 C2_16 1_555 1_555
C2_16 H1_16 1_555 1_555
C3_16 C2_16 1_555 1_555
C4_16 O2_16 1_555 1_555
C5_16 S2_16 1_555 1_555
Zr4_15 O10_16 1_555 1_555
Zr7_5 O5_19 1_555 1_555
Zr7_16 O16_16 1_555 1_555
S4_16 C6_16 1_555 1_555
O8_16 Zr2_16 1_555 1_555
O10_16 C15_16 1_555 1_555
O16_16 C15_16 1_555 1_555
O19_16 Zr2_16 1_555 1_555
O21_19 Zr3_9 1_555 1_555
O22_19 Zr2_16 1_555 1_555
C6_16 C9_16 1_555 1_555
C9_16 H2_16 1_555 1_555
C12_16 S1_16 1_555 1_555
C15_16 C6_16 1_555 1_555
C18_16 C5_16 1_555 1_555
Zr2_16 O21_19 1_555 1_555
O4_16 C4_16 1_555 1_555
C1_16 C4_16 1_555 1_555
C3_16 C5_16 1_555 1_555
Zr7_5 O8_16 1_555 1_555
Zr7_5 O23_19 1_555 1_555
S4_16 C18_16 1_555 1_555
C9_16 C12_16 1_555 1_555
C12_16 C18_16 1_555 1_555
O5_20 Zr3_10 1_555 1_555
Zr9_12 O5_20 1_555 1_555
Zr8_16 O7_16 1_555 1_555
Zr8_6 O18_16 1_555 1_555
S3_16 C13_16 1_555 1_555
S5_16 C7_16 1_555 1_555
S6_16 C8_16 1_555 1_555
O7_16 Zr3_10 1_555 1_555
O9_16 Zr9_12 1_555 1_555
O11_16 Zr3_10 1_555 1_555
O13_6 C17_16 1_555 1_555
O13_16 Zr3_10 1_555 1_555
O15_16 Zr9_12 1_555 1_555
O17_16 Zr9_12 1_555 1_555
O18_16 C17_16 1_555 1_555
O21_20 Zr3_10 1_555 1_555
O23_20 Zr9_12 1_555 1_555
O24_16 Zr9_12 1_555 1_555
C7_16 C10_16 1_555 1_555
C8_16 C11_16 1_555 1_555
C10_16 H3_16 1_555 1_555
C11_16 H4_16 1_555 1_555
C13_16 C10_16 1_555 1_555
C14_16 S3_16 1_555 1_555
C16_16 O11_16 1_555 1_555
C17_16 C8_16 1_555 1_555
C19_16 S5_16 1_555 1_555
C20_16 S6_16 1_555 1_555
Zr9_12 O7_16 1_555 1_555
Zr8_16 O9_16 1_555 1_555
Zr8_16 O21_20 1_555 1_555
Zr8_16 O22_20 1_555 1_555
O17_16 C16_16 1_555 1_555
C7_16 C16_16 1_555 1_555
C11_16 C14_16 1_555 1_555
C13_16 C19_16 1_555 1_555
C14_16 C20_16 1_555 1_555
C19_16 C20_16 1_555 1_555
O5_21 Zr4 1_555 1_555
Zr3_3 O12_13 1_555 1_555
Zr5_13 O5_21 1_555 1_555
Zr9 O7_17 1_555 1_555
Zr9_13 O18_17 1_555 1_555
S3_17 C13_17 1_555 1_555
S5_17 C7_17 1_555 1_555
S6_17 C8_17 1_555 1_555
O7_17 Zr4 1_555 1_555
O9_17 Zr5_13 1_555 1_555
O11_17 Zr4 1_555 1_555
O12_13 C17_17 1_555 1_555
O15_17 Zr5_13 1_555 1_555
O17_17 Zr5_13 1_555 1_555
O18_17 C17_17 1_555 1_555
O20_13 Zr5_13 1_555 1_555
O21_21 Zr4 1_555 1_555
O23_21 Zr5_13 1_555 1_555
O24_17 Zr5_13 1_555 1_555
C7_17 C10_17 1_555 1_555
C8_17 C11_17 1_555 1_555
C10_17 H3_17 1_555 1_555
C11_17 H4_17 1_555 1_555
C13_17 C10_17 1_555 1_555
C14_17 S3_17 1_555 1_555
C16_17 O11_17 1_555 1_555
C17_17 C8_17 1_555 1_555
C19_17 S5_17 1_555 1_555
C20_17 S6_17 1_555 1_555
Zr5_13 O7_17 1_555 1_555
Zr9 O9_17 1_555 1_555
Zr9 O21_21 1_555 1_555
Zr9 O22_21 1_555 1_555
O17_17 C16_17 1_555 1_555
C7_17 C16_17 1_555 1_555
C11_17 C14_17 1_555 1_555
C13_17 C19_17 1_555 1_555
C14_17 C20_17 1_555 1_555
C19_17 C20_17 1_555 1_555
Zr4_2 O1_17 1_555 1_555
Zr7_11 O1_17 1_555 1_555
S1_17 C3_17 1_555 1_555
S2_17 C1_17 1_555 1_555
O1_17 Zr6_13 1_555 1_555
O2_17 Zr4_2 1_555 1_555
O3_17 Zr7_11 1_555 1_555
O4_17 Zr7_11 1_555 1_555
O5_22 Zr4_2 1_555 1_555
O6_17 Zr7_11 1_555 1_555
C1_17 C2_17 1_555 1_555
C2_17 H1_17 1_555 1_555
C3_17 C2_17 1_555 1_555
C4_17 O2_17 1_555 1_555
C5_17 S2_17 1_555 1_555
Zr6_13 O5_22 1_555 1_555
Zr6_4 O16_17 1_555 1_555
S4_17 C6_17 1_555 1_555
O8_17 Zr7_11 1_555 1_555
O14_4 C15_17 1_555 1_555
O14_13 Zr4_2 1_555 1_555
O16_17 C15_17 1_555 1_555
O21_22 Zr4_2 1_555 1_555
O22_22 Zr7_11 1_555 1_555
C6_17 C9_17 1_555 1_555
C9_17 H2_17 1_555 1_555
C12_17 S1_17 1_555 1_555
C15_17 C6_17 1_555 1_555
C18_17 C5_17 1_555 1_555
Zr7_11 O21_22 1_555 1_555
O4_17 C4_17 1_555 1_555
C1_17 C4_17 1_555 1_555
C3_17 C5_17 1_555 1_555
Zr6_13 O8_17 1_555 1_555
Zr6_13 O23_22 1_555 1_555
S4_17 C18_17 1_555 1_555
C9_17 C12_17 1_555 1_555
C12_17 C18_17 1_555 1_555
Zr4_7 O1_18 1_555 1_555
Zr7_9 O1_18 1_555 1_555
S1_18 C3_18 1_555 1_555
S2_18 C1_18 1_555 1_555
O1_18 Zr6_14 1_555 1_555
O2_18 Zr4_7 1_555 1_555
O3_18 Zr7_9 1_555 1_555
O4_18 Zr7_9 1_555 1_555
O5_23 Zr4_7 1_555 1_555
O6_18 Zr7_9 1_555 1_555
C1_18 C2_18 1_555 1_555
C2_18 H1_18 1_555 1_555
C3_18 C2_18 1_555 1_555
C4_18 O2_18 1_555 1_555
C5_18 S2_18 1_555 1_555
Zr6_14 O5_23 1_555 1_555
Zr6 O16_18 1_555 1_555
S4_18 C6_18 1_555 1_555
O8_18 Zr7_9 1_555 1_555
O14 C15_18 1_555 1_555
O14_14 Zr4_7 1_555 1_555
O16_18 C15_18 1_555 1_555
O21_23 Zr4_7 1_555 1_555
O22_23 Zr7_9 1_555 1_555
C6_18 C9_18 1_555 1_555
C9_18 H2_18 1_555 1_555
C12_18 S1_18 1_555 1_555
C15_18 C6_18 1_555 1_555
C18_18 C5_18 1_555 1_555
Zr7_9 O21_23 1_555 1_555
O4_18 C4_18 1_555 1_555
C1_18 C4_18 1_555 1_555
C3_18 C5_18 1_555 1_555
Zr6_14 O8_18 1_555 1_555
Zr6_14 O23_23 1_555 1_555
S4_18 C18_18 1_555 1_555
C9_18 C12_18 1_555 1_555
C12_18 C18_18 1_555 1_555
O5_24 Zr4_8 1_555 1_555
Zr3_5 O12_14 1_555 1_555
Zr5_14 O5_24 1_555 1_555
Zr9_4 O7_18 1_555 1_555
Zr9_14 O18_18 1_555 1_555
S3_18 C13_18 1_555 1_555
S5_18 C7_18 1_555 1_555
S6_18 C8_18 1_555 1_555
O7_18 Zr4_8 1_555 1_555
O9_18 Zr5_14 1_555 1_555
O11_18 Zr4_8 1_555 1_555
O12_14 C17_18 1_555 1_555
O15_18 Zr5_14 1_555 1_555
O17_18 Zr5_14 1_555 1_555
O18_18 C17_18 1_555 1_555
O20_14 Zr5_14 1_555 1_555
O21_24 Zr4_8 1_555 1_555
O23_24 Zr5_14 1_555 1_555
O24_18 Zr5_14 1_555 1_555
C7_18 C10_18 1_555 1_555
C8_18 C11_18 1_555 1_555
C10_18 H3_18 1_555 1_555
C11_18 H4_18 1_555 1_555
C13_18 C10_18 1_555 1_555
C14_18 S3_18 1_555 1_555
C16_18 O11_18 1_555 1_555
C17_18 C8_18 1_555 1_555
C19_18 S5_18 1_555 1_555
C20_18 S6_18 1_555 1_555
Zr5_14 O7_18 1_555 1_555
Zr9_4 O9_18 1_555 1_555
Zr9_4 O21_24 1_555 1_555
Zr9_4 O22_24 1_555 1_555
O17_18 C16_18 1_555 1_555
C7_18 C16_18 1_555 1_555
C11_18 C14_18 1_555 1_555
C13_18 C19_18 1_555 1_555
C14_18 C20_18 1_555 1_555
C19_18 C20_18 1_555 1_555
O5_25 Zr4_3 1_555 1_555
Zr3_2 O12_15 1_555 1_555
Zr5_15 O5_25 1_555 1_555
Zr9_2 O7_19 1_555 1_555
Zr9_15 O18_19 1_555 1_555
S3_19 C13_19 1_555 1_555
S5_19 C7_19 1_555 1_555
S6_19 C8_19 1_555 1_555
O7_19 Zr4_3 1_555 1_555
O9_19 Zr5_15 1_555 1_555
O11_19 Zr4_3 1_555 1_555
O12_15 C17_19 1_555 1_555
O15_19 Zr5_15 1_555 1_555
O17_19 Zr5_15 1_555 1_555
O18_19 C17_19 1_555 1_555
O20_15 Zr5_15 1_555 1_555
O21_25 Zr4_3 1_555 1_555
O23_25 Zr5_15 1_555 1_555
O24_19 Zr5_15 1_555 1_555
C7_19 C10_19 1_555 1_555
C8_19 C11_19 1_555 1_555
C10_19 H3_19 1_555 1_555
C11_19 H4_19 1_555 1_555
C13_19 C10_19 1_555 1_555
C14_19 S3_19 1_555 1_555
C16_19 O11_19 1_555 1_555
C17_19 C8_19 1_555 1_555
C19_19 S5_19 1_555 1_555
C20_19 S6_19 1_555 1_555
Zr5_15 O7_19 1_555 1_555
Zr9_2 O9_19 1_555 1_555
Zr9_2 O21_25 1_555 1_555
Zr9_2 O22_25 1_555 1_555
O17_19 C16_19 1_555 1_555
C7_19 C16_19 1_555 1_555
C11_19 C14_19 1_555 1_555
C13_19 C19_19 1_555 1_555
C14_19 C20_19 1_555 1_555
C19_19 C20_19 1_555 1_555
Zr4_4 O1_19 1_555 1_555
Zr7_10 O1_19 1_555 1_555
S1_19 C3_19 1_555 1_555
S2_19 C1_19 1_555 1_555
O1_19 Zr6_15 1_555 1_555
O2_19 Zr4_4 1_555 1_555
O3_19 Zr7_10 1_555 1_555
O4_19 Zr7_10 1_555 1_555
O5_26 Zr4_4 1_555 1_555
O6_19 Zr7_10 1_555 1_555
C1_19 C2_19 1_555 1_555
C2_19 H1_19 1_555 1_555
C3_19 C2_19 1_555 1_555
C4_19 O2_19 1_555 1_555
C5_19 S2_19 1_555 1_555
Zr6_15 O5_26 1_555 1_555
Zr6_3 O16_19 1_555 1_555
S4_19 C6_19 1_555 1_555
O8_19 Zr7_10 1_555 1_555
O14_3 C15_19 1_555 1_555
O14_15 Zr4_4 1_555 1_555
O16_19 C15_19 1_555 1_555
O21_26 Zr4_4 1_555 1_555
O22_26 Zr7_10 1_555 1_555
C6_19 C9_19 1_555 1_555
C9_19 H2_19 1_555 1_555
C12_19 S1_19 1_555 1_555
C15_19 C6_19 1_555 1_555
C18_19 C5_19 1_555 1_555
Zr7_10 O21_26 1_555 1_555
O4_19 C4_19 1_555 1_555
C1_19 C4_19 1_555 1_555
C3_19 C5_19 1_555 1_555
Zr6_15 O8_19 1_555 1_555
Zr6_15 O23_26 1_555 1_555
S4_19 C18_19 1_555 1_555
C9_19 C12_19 1_555 1_555
C12_19 C18_19 1_555 1_555
Zr4_5 O1_20 1_555 1_555
Zr7_12 O1_20 1_555 1_555
S1_20 C3_20 1_555 1_555
S2_20 C1_20 1_555 1_555
O1_20 Zr6_16 1_555 1_555
O2_20 Zr4_5 1_555 1_555
O3_20 Zr7_12 1_555 1_555
O4_20 Zr7_12 1_555 1_555
O5_27 Zr4_5 1_555 1_555
O6_20 Zr7_12 1_555 1_555
C1_20 C2_20 1_555 1_555
C2_20 H1_20 1_555 1_555
C3_20 C2_20 1_555 1_555
C4_20 O2_20 1_555 1_555
C5_20 S2_20 1_555 1_555
Zr6_16 O5_27 1_555 1_555
Zr6_2 O16_20 1_555 1_555
S4_20 C6_20 1_555 1_555
O8_20 Zr7_12 1_555 1_555
O14_2 C15_20 1_555 1_555
O14_16 Zr4_5 1_555 1_555
O16_20 C15_20 1_555 1_555
O21_27 Zr4_5 1_555 1_555
O22_27 Zr7_12 1_555 1_555
C6_20 C9_20 1_555 1_555
C9_20 H2_20 1_555 1_555
C12_20 S1_20 1_555 1_555
C15_20 C6_20 1_555 1_555
C18_20 C5_20 1_555 1_555
Zr7_12 O21_27 1_555 1_555
O4_20 C4_20 1_555 1_555
C1_20 C4_20 1_555 1_555
C3_20 C5_20 1_555 1_555
Zr6_16 O8_20 1_555 1_555
Zr6_16 O23_27 1_555 1_555
S4_20 C18_20 1_555 1_555
C9_20 C12_20 1_555 1_555
C12_20 C18_20 1_555 1_555
O5_28 Zr4_6 1_555 1_555
Zr3_8 O12_16 1_555 1_555
Zr5_16 O5_28 1_555 1_555
Zr9_3 O7_20 1_555 1_555
Zr9_16 O18_20 1_555 1_555
S3_20 C13_20 1_555 1_555
S5_20 C7_20 1_555 1_555
S6_20 C8_20 1_555 1_555
O7_20 Zr4_6 1_555 1_555
O9_20 Zr5_16 1_555 1_555
O11_20 Zr4_6 1_555 1_555
O12_16 C17_20 1_555 1_555
O15_20 Zr5_16 1_555 1_555
O17_20 Zr5_16 1_555 1_555
O18_20 C17_20 1_555 1_555
O20_16 Zr5_16 1_555 1_555
O21_28 Zr4_6 1_555 1_555
O23_28 Zr5_16 1_555 1_555
O24_20 Zr5_16 1_555 1_555
C7_20 C10_20 1_555 1_555
C8_20 C11_20 1_555 1_555
C10_20 H3_20 1_555 1_555
C11_20 H4_20 1_555 1_555
C13_20 C10_20 1_555 1_555
C14_20 S3_20 1_555 1_555
C16_20 O11_20 1_555 1_555
C17_20 C8_20 1_555 1_555
C19_20 S5_20 1_555 1_555
C20_20 S6_20 1_555 1_555
Zr5_16 O7_20 1_555 1_555
Zr9_3 O9_20 1_555 1_555
Zr9_3 O21_28 1_555 1_555
Zr9_3 O22_28 1_555 1_555
O17_20 C16_20 1_555 1_555
C7_20 C16_20 1_555 1_555
C11_20 C14_20 1_555 1_555
C13_20 C19_20 1_555 1_555
C14_20 C20_20 1_555 1_555
C19_20 C20_20 1_555 1_555
Zr1_13 O8_11 1_555 1_555
S1_21 C3_21 1_555 1_555
S2_21 C1_21 1_555 1_555
O2_21 Zr1_13 1_555 1_555
O3_21 Zr6_11 1_555 1_555
O4_21 Zr6_11 1_555 1_555
O22_11 Zr1_13 1_555 1_555
O6_21 Zr6_11 1_555 1_555
C1_21 C2_21 1_555 1_555
C2_21 H1_21 1_555 1_555
C3_21 C2_21 1_555 1_555
C4_21 O2_21 1_555 1_555
C5_21 S2_21 1_555 1_555
Zr3_25 O10_17 1_555 1_555
Zr4_25 O12_17 1_555 1_555
S3_21 C13_21 1_555 1_555
S4_21 C6_21 1_555 1_555
S5_21 C7_21 1_555 1_555
S6_21 C8_21 1_555 1_555
O9_11 Zr1_13 1_555 1_555
O10_17 C15_21 1_555 1_555
O11_21 Zr1_13 1_555 1_555
O12_17 C17_21 1_555 1_555
O13_17 Zr1_13 1_555 1_555
O14_17 Zr1_13 1_555 1_555
O15_21 Zr8_11 1_555 1_555
O19_6 C15_21 1_555 1_555
O17_21 Zr8_11 1_555 1_555
O20_3 C17_21 1_555 1_555
O19_17 Zr6_11 1_555 1_555
O20_17 Zr8_11 1_555 1_555
O23_11 Zr1_13 1_555 1_555
O24_21 Zr8_11 1_555 1_555
C6_21 C9_21 1_555 1_555
C7_21 C10_21 1_555 1_555
C8_21 C11_21 1_555 1_555
C9_21 H2_21 1_555 1_555
C10_21 H3_21 1_555 1_555
C11_21 H4_21 1_555 1_555
C12_21 S1_21 1_555 1_555
C13_21 C10_21 1_555 1_555
C14_21 S3_21 1_555 1_555
C15_21 C6_21 1_555 1_555
C16_21 O11_21 1_555 1_555
C17_21 C8_21 1_555 1_555
C18_21 C5_21 1_555 1_555
C19_21 S5_21 1_555 1_555
C20_21 S6_21 1_555 1_555
O4_21 C4_21 1_555 1_555
C1_21 C4_21 1_555 1_555
C3_21 C5_21 1_555 1_555
S4_21 C18_21 1_555 1_555
O17_21 C16_21 1_555 1_555
C7_21 C16_21 1_555 1_555
C9_21 C12_21 1_555 1_555
C11_21 C14_21 1_555 1_555
C12_21 C18_21 1_555 1_555
C13_21 C19_21 1_555 1_555
C14_21 C20_21 1_555 1_555
C19_21 C20_21 1_555 1_555
Zr1_14 O8_12 1_555 1_555
S1_22 C3_22 1_555 1_555
S2_22 C1_22 1_555 1_555
O2_22 Zr1_14 1_555 1_555
O3_22 Zr6_12 1_555 1_555
O4_22 Zr6_12 1_555 1_555
O22_12 Zr1_14 1_555 1_555
O6_22 Zr6_12 1_555 1_555
C1_22 C2_22 1_555 1_555
C2_22 H1_22 1_555 1_555
C3_22 C2_22 1_555 1_555
C4_22 O2_22 1_555 1_555
C5_22 S2_22 1_555 1_555
Zr3_26 O10_18 1_555 1_555
Zr4_26 O12_18 1_555 1_555
S3_22 C13_22 1_555 1_555
S4_22 C6_22 1_555 1_555
S5_22 C7_22 1_555 1_555
S6_22 C8_22 1_555 1_555
O9_12 Zr1_14 1_555 1_555
O10_18 C15_22 1_555 1_555
O11_22 Zr1_14 1_555 1_555
O12_18 C17_22 1_555 1_555
O13_18 Zr1_14 1_555 1_555
O14_18 Zr1_14 1_555 1_555
O15_22 Zr8_12 1_555 1_555
O19_7 C15_22 1_555 1_555
O17_22 Zr8_12 1_555 1_555
O20 C17_22 1_555 1_555
O19_18 Zr6_12 1_555 1_555
O20_18 Zr8_12 1_555 1_555
O23_12 Zr1_14 1_555 1_555
O24_22 Zr8_12 1_555 1_555
C6_22 C9_22 1_555 1_555
C7_22 C10_22 1_555 1_555
C8_22 C11_22 1_555 1_555
C9_22 H2_22 1_555 1_555
C10_22 H3_22 1_555 1_555
C11_22 H4_22 1_555 1_555
C12_22 S1_22 1_555 1_555
C13_22 C10_22 1_555 1_555
C14_22 S3_22 1_555 1_555
C15_22 C6_22 1_555 1_555
C16_22 O11_22 1_555 1_555
C17_22 C8_22 1_555 1_555
C18_22 C5_22 1_555 1_555
C19_22 S5_22 1_555 1_555
C20_22 S6_22 1_555 1_555
O4_22 C4_22 1_555 1_555
C1_22 C4_22 1_555 1_555
C3_22 C5_22 1_555 1_555
S4_22 C18_22 1_555 1_555
O17_22 C16_22 1_555 1_555
C7_22 C16_22 1_555 1_555
C9_22 C12_22 1_555 1_555
C11_22 C14_22 1_555 1_555
C12_22 C18_22 1_555 1_555
C13_22 C19_22 1_555 1_555
C14_22 C20_22 1_555 1_555
C19_22 C20_22 1_555 1_555
Zr1_15 O8_9 1_555 1_555
S1_23 C3_23 1_555 1_555
S2_23 C1_23 1_555 1_555
O2_23 Zr1_15 1_555 1_555
O3_23 Zr6_9 1_555 1_555
O4_23 Zr6_9 1_555 1_555
O22_9 Zr1_15 1_555 1_555
O6_23 Zr6_9 1_555 1_555
C1_23 C2_23 1_555 1_555
C2_23 H1_23 1_555 1_555
C3_23 C2_23 1_555 1_555
C4_23 O2_23 1_555 1_555
C5_23 S2_23 1_555 1_555
Zr3_27 O10_19 1_555 1_555
Zr4_27 O12_19 1_555 1_555
S3_23 C13_23 1_555 1_555
S4_23 C6_23 1_555 1_555
S5_23 C7_23 1_555 1_555
S6_23 C8_23 1_555 1_555
O9_9 Zr1_15 1_555 1_555
O10_19 C15_23 1_555 1_555
O11_23 Zr1_15 1_555 1_555
O12_19 C17_23 1_555 1_555
O13_19 Zr1_15 1_555 1_555
O14_19 Zr1_15 1_555 1_555
O15_23 Zr8_9 1_555 1_555
O19_5 C15_23 1_555 1_555
O17_23 Zr8_9 1_555 1_555
O20_2 C17_23 1_555 1_555
O19_19 Zr6_9 1_555 1_555
O20_19 Zr8_9 1_555 1_555
O23_9 Zr1_15 1_555 1_555
O24_23 Zr8_9 1_555 1_555
C6_23 C9_23 1_555 1_555
C7_23 C10_23 1_555 1_555
C8_23 C11_23 1_555 1_555
C9_23 H2_23 1_555 1_555
C10_23 H3_23 1_555 1_555
C11_23 H4_23 1_555 1_555
C12_23 S1_23 1_555 1_555
C13_23 C10_23 1_555 1_555
C14_23 S3_23 1_555 1_555
C15_23 C6_23 1_555 1_555
C16_23 O11_23 1_555 1_555
C17_23 C8_23 1_555 1_555
C18_23 C5_23 1_555 1_555
C19_23 S5_23 1_555 1_555
C20_23 S6_23 1_555 1_555
O4_23 C4_23 1_555 1_555
C1_23 C4_23 1_555 1_555
C3_23 C5_23 1_555 1_555
S4_23 C18_23 1_555 1_555
O17_23 C16_23 1_555 1_555
C7_23 C16_23 1_555 1_555
C9_23 C12_23 1_555 1_555
C11_23 C14_23 1_555 1_555
C12_23 C18_23 1_555 1_555
C13_23 C19_23 1_555 1_555
C14_23 C20_23 1_555 1_555
C19_23 C20_23 1_555 1_555
Zr1_16 O8_10 1_555 1_555
S1_24 C3_24 1_555 1_555
S2_24 C1_24 1_555 1_555
O2_24 Zr1_16 1_555 1_555
O3_24 Zr6_10 1_555 1_555
O4_24 Zr6_10 1_555 1_555
O22_10 Zr1_16 1_555 1_555
O6_24 Zr6_10 1_555 1_555
C1_24 C2_24 1_555 1_555
C2_24 H1_24 1_555 1_555
C3_24 C2_24 1_555 1_555
C4_24 O2_24 1_555 1_555
C5_24 S2_24 1_555 1_555
Zr3_28 O10_20 1_555 1_555
Zr4_28 O12_20 1_555 1_555
S3_24 C13_24 1_555 1_555
S4_24 C6_24 1_555 1_555
S5_24 C7_24 1_555 1_555
S6_24 C8_24 1_555 1_555
O9_10 Zr1_16 1_555 1_555
O10_20 C15_24 1_555 1_555
O11_24 Zr1_16 1_555 1_555
O12_20 C17_24 1_555 1_555
O13_20 Zr1_16 1_555 1_555
O14_20 Zr1_16 1_555 1_555
O15_24 Zr8_10 1_555 1_555
O19_8 C15_24 1_555 1_555
O17_24 Zr8_10 1_555 1_555
O20_4 C17_24 1_555 1_555
O19_20 Zr6_10 1_555 1_555
O20_20 Zr8_10 1_555 1_555
O23_10 Zr1_16 1_555 1_555
O24_24 Zr8_10 1_555 1_555
C6_24 C9_24 1_555 1_555
C7_24 C10_24 1_555 1_555
C8_24 C11_24 1_555 1_555
C9_24 H2_24 1_555 1_555
C10_24 H3_24 1_555 1_555
C11_24 H4_24 1_555 1_555
C12_24 S1_24 1_555 1_555
C13_24 C10_24 1_555 1_555
C14_24 S3_24 1_555 1_555
C15_24 C6_24 1_555 1_555
C16_24 O11_24 1_555 1_555
C17_24 C8_24 1_555 1_555
C18_24 C5_24 1_555 1_555
C19_24 S5_24 1_555 1_555
C20_24 S6_24 1_555 1_555
O4_24 C4_24 1_555 1_555
C1_24 C4_24 1_555 1_555
C3_24 C5_24 1_555 1_555
S4_24 C18_24 1_555 1_555
O17_24 C16_24 1_555 1_555
C7_24 C16_24 1_555 1_555
C9_24 C12_24 1_555 1_555
C11_24 C14_24 1_555 1_555
C12_24 C18_24 1_555 1_555
C13_24 C19_24 1_555 1_555
C14_24 C20_24 1_555 1_555
C19_24 C20_24 1_555 1_555
Zr4_25 O8_3 1_555 1_555
S1_25 C3_25 1_555 1_555
S2_25 C1_25 1_555 1_555
O2_25 Zr4_25 1_555 1_555
O3_25 Zr6_3 1_555 1_555
O4_25 Zr6_3 1_555 1_555
O22_3 Zr4_25 1_555 1_555
O6_25 Zr6_3 1_555 1_555
C1_25 C2_25 1_555 1_555
C2_25 H1_25 1_555 1_555
C3_25 C2_25 1_555 1_555
C4_25 O2_25 1_555 1_555
C5_25 S2_25 1_555 1_555
Zr3_26 O12_21 1_555 1_555
S3_25 C13_25 1_555 1_555
S4_25 C6_25 1_555 1_555
S5_25 C7_25 1_555 1_555
S6_25 C8_25 1_555 1_555
O9_3 Zr4_25 1_555 1_555
O14_20 C15_25 1_555 1_555
O11_25 Zr4_25 1_555 1_555
O12_21 C17_25 1_555 1_555
O14_21 Zr4_25 1_555 1_555
O15_25 Zr8_3 1_555 1_555
O19_10 C15_25 1_555 1_555
O17_25 Zr8_3 1_555 1_555
O20_7 C17_25 1_555 1_555
O20_21 Zr8_3 1_555 1_555
O23_3 Zr4_25 1_555 1_555
O24_25 Zr8_3 1_555 1_555
C6_25 C9_25 1_555 1_555
C7_25 C10_25 1_555 1_555
C8_25 C11_25 1_555 1_555
C9_25 H2_25 1_555 1_555
C10_25 H3_25 1_555 1_555
C11_25 H4_25 1_555 1_555
C12_25 S1_25 1_555 1_555
C13_25 C10_25 1_555 1_555
C14_25 S3_25 1_555 1_555
C15_25 C6_25 1_555 1_555
C16_25 O11_25 1_555 1_555
C17_25 C8_25 1_555 1_555
C18_25 C5_25 1_555 1_555
C19_25 S5_25 1_555 1_555
C20_25 S6_25 1_555 1_555
O4_25 C4_25 1_555 1_555
C1_25 C4_25 1_555 1_555
C3_25 C5_25 1_555 1_555
S4_25 C18_25 1_555 1_555
O17_25 C16_25 1_555 1_555
C7_25 C16_25 1_555 1_555
C9_25 C12_25 1_555 1_555
C11_25 C14_25 1_555 1_555
C12_25 C18_25 1_555 1_555
C13_25 C19_25 1_555 1_555
C14_25 C20_25 1_555 1_555
C19_25 C20_25 1_555 1_555
Zr4_28 O8_4 1_555 1_555
S1_26 C3_26 1_555 1_555
S2_26 C1_26 1_555 1_555
O2_26 Zr4_28 1_555 1_555
O3_26 Zr6_4 1_555 1_555
O4_26 Zr6_4 1_555 1_555
O22_4 Zr4_28 1_555 1_555
O6_26 Zr6_4 1_555 1_555
C1_26 C2_26 1_555 1_555
C2_26 H1_26 1_555 1_555
C3_26 C2_26 1_555 1_555
C4_26 O2_26 1_555 1_555
C5_26 S2_26 1_555 1_555
Zr3_27 O12_22 1_555 1_555
S3_26 C13_26 1_555 1_555
S4_26 C6_26 1_555 1_555
S5_26 C7_26 1_555 1_555
S6_26 C8_26 1_555 1_555
O9_4 Zr4_28 1_555 1_555
O14_17 C15_26 1_555 1_555
O11_26 Zr4_28 1_555 1_555
O12_22 C17_26 1_555 1_555
O14_22 Zr4_28 1_555 1_555
O15_26 Zr8_4 1_555 1_555
O19_11 C15_26 1_555 1_555
O17_26 Zr8_4 1_555 1_555
O20_5 C17_26 1_555 1_555
O20_22 Zr8_4 1_555 1_555
O23_4 Zr4_28 1_555 1_555
O24_26 Zr8_4 1_555 1_555
C6_26 C9_26 1_555 1_555
C7_26 C10_26 1_555 1_555
C8_26 C11_26 1_555 1_555
C9_26 H2_26 1_555 1_555
C10_26 H3_26 1_555 1_555
C11_26 H4_26 1_555 1_555
C12_26 S1_26 1_555 1_555
C13_26 C10_26 1_555 1_555
C14_26 S3_26 1_555 1_555
C15_26 C6_26 1_555 1_555
C16_26 O11_26 1_555 1_555
C17_26 C8_26 1_555 1_555
C18_26 C5_26 1_555 1_555
C19_26 S5_26 1_555 1_555
C20_26 S6_26 1_555 1_555
O4_26 C4_26 1_555 1_555
C1_26 C4_26 1_555 1_555
C3_26 C5_26 1_555 1_555
S4_26 C18_26 1_555 1_555
O17_26 C16_26 1_555 1_555
C7_26 C16_26 1_555 1_555
C9_26 C12_26 1_555 1_555
C11_26 C14_26 1_555 1_555
C12_26 C18_26 1_555 1_555
C13_26 C19_26 1_555 1_555
C14_26 C20_26 1_555 1_555
C19_26 C20_26 1_555 1_555
Zr4_26 O8 1_555 1_555
S1_27 C3_27 1_555 1_555
S2_27 C1_27 1_555 1_555
O2_27 Zr4_26 1_555 1_555
O3_27 Zr6 1_555 1_555
O4_27 Zr6 1_555 1_555
O22 Zr4_26 1_555 1_555
O6_27 Zr6 1_555 1_555
C1_27 C2_27 1_555 1_555
C2_27 H1_27 1_555 1_555
C3_27 C2_27 1_555 1_555
C4_27 O2_27 1_555 1_555
C5_27 S2_27 1_555 1_555
Zr3_25 O12_23 1_555 1_555
S3_27 C13_27 1_555 1_555
S4_27 C6_27 1_555 1_555
S5_27 C7_27 1_555 1_555
S6_27 C8_27 1_555 1_555
O9 Zr4_26 1_555 1_555
O14_19 C15_27 1_555 1_555
O11_27 Zr4_26 1_555 1_555
O12_23 C17_27 1_555 1_555
O14_23 Zr4_26 1_555 1_555
O15_27 Zr8 1_555 1_555
O19_9 C15_27 1_555 1_555
O17_27 Zr8 1_555 1_555
O20_6 C17_27 1_555 1_555
O20_23 Zr8 1_555 1_555
O23 Zr4_26 1_555 1_555
O24_27 Zr8 1_555 1_555
C6_27 C9_27 1_555 1_555
C7_27 C10_27 1_555 1_555
C8_27 C11_27 1_555 1_555
C9_27 H2_27 1_555 1_555
C10_27 H3_27 1_555 1_555
C11_27 H4_27 1_555 1_555
C12_27 S1_27 1_555 1_555
C13_27 C10_27 1_555 1_555
C14_27 S3_27 1_555 1_555
C15_27 C6_27 1_555 1_555
C16_27 O11_27 1_555 1_555
C17_27 C8_27 1_555 1_555
C18_27 C5_27 1_555 1_555
C19_27 S5_27 1_555 1_555
C20_27 S6_27 1_555 1_555
O4_27 C4_27 1_555 1_555
C1_27 C4_27 1_555 1_555
C3_27 C5_27 1_555 1_555
S4_27 C18_27 1_555 1_555
O17_27 C16_27 1_555 1_555
C7_27 C16_27 1_555 1_555
C9_27 C12_27 1_555 1_555
C11_27 C14_27 1_555 1_555
C12_27 C18_27 1_555 1_555
C13_27 C19_27 1_555 1_555
C14_27 C20_27 1_555 1_555
C19_27 C20_27 1_555 1_555
Zr4_27 O8_2 1_555 1_555
S1_28 C3_28 1_555 1_555
S2_28 C1_28 1_555 1_555
O2_28 Zr4_27 1_555 1_555
O3_28 Zr6_2 1_555 1_555
O4_28 Zr6_2 1_555 1_555
O22_2 Zr4_27 1_555 1_555
O6_28 Zr6_2 1_555 1_555
C1_28 C2_28 1_555 1_555
C2_28 H1_28 1_555 1_555
C3_28 C2_28 1_555 1_555
C4_28 O2_28 1_555 1_555
C5_28 S2_28 1_555 1_555
Zr3_28 O12_24 1_555 1_555
S3_28 C13_28 1_555 1_555
S4_28 C6_28 1_555 1_555
S5_28 C7_28 1_555 1_555
S6_28 C8_28 1_555 1_555
O9_2 Zr4_27 1_555 1_555
O14_18 C15_28 1_555 1_555
O11_28 Zr4_27 1_555 1_555
O12_24 C17_28 1_555 1_555
O14_24 Zr4_27 1_555 1_555
O15_28 Zr8_2 1_555 1_555
O19_12 C15_28 1_555 1_555
O17_28 Zr8_2 1_555 1_555
O20_8 C17_28 1_555 1_555
O20_24 Zr8_2 1_555 1_555
O23_2 Zr4_27 1_555 1_555
O24_28 Zr8_2 1_555 1_555
C6_28 C9_28 1_555 1_555
C7_28 C10_28 1_555 1_555
C8_28 C11_28 1_555 1_555
C9_28 H2_28 1_555 1_555
C10_28 H3_28 1_555 1_555
C11_28 H4_28 1_555 1_555
C12_28 S1_28 1_555 1_555
C13_28 C10_28 1_555 1_555
C14_28 S3_28 1_555 1_555
C15_28 C6_28 1_555 1_555
C16_28 O11_28 1_555 1_555
C17_28 C8_28 1_555 1_555
C18_28 C5_28 1_555 1_555
C19_28 S5_28 1_555 1_555
C20_28 S6_28 1_555 1_555
O4_28 C4_28 1_555 1_555
C1_28 C4_28 1_555 1_555
C3_28 C5_28 1_555 1_555
S4_28 C18_28 1_555 1_555
O17_28 C16_28 1_555 1_555
C7_28 C16_28 1_555 1_555
C9_28 C12_28 1_555 1_555
C11_28 C14_28 1_555 1_555
C12_28 C18_28 1_555 1_555
C13_28 C19_28 1_555 1_555
C14_28 C20_28 1_555 1_555
C19_28 C20_28 1_555 1_555
O22_25 Zr3_19 1_555 1_555
S3_29 C13_29 1_555 1_555
S5_29 C7_29 1_555 1_555
S6_29 C8_29 1_555 1_555
O9_19 Zr3_19 1_555 1_555
O11_29 Zr3_19 1_555 1_555
O13_9 C17_29 1_555 1_555
O13_21 Zr3_19 1_555 1_555
O15_29 Zr9_2 1_555 1_555
O17_29 Zr9_2 1_555 1_555
O20_19 C17_29 1_555 1_555
O23_25 Zr3_19 1_555 1_555
O24_29 Zr9_2 1_555 1_555
C7_29 C10_29 1_555 1_555
C8_29 C11_29 1_555 1_555
C10_29 H3_29 1_555 1_555
C11_29 H4_29 1_555 1_555
C13_29 C10_29 1_555 1_555
C14_29 S3_29 1_555 1_555
C16_29 O11_29 1_555 1_555
C17_29 C8_29 1_555 1_555
C19_29 S5_29 1_555 1_555
C20_29 S6_29 1_555 1_555
O17_29 C16_29 1_555 1_555
C7_29 C16_29 1_555 1_555
C11_29 C14_29 1_555 1_555
C13_29 C19_29 1_555 1_555
C14_29 C20_29 1_555 1_555
C19_29 C20_29 1_555 1_555
Zr3_20 O8_19 1_555 1_555
S1_29 C3_29 1_555 1_555
S2_29 C1_29 1_555 1_555
O2_29 Zr3_20 1_555 1_555
O3_29 Zr6_15 1_555 1_555
O4_29 Zr6_15 1_555 1_555
O22_26 Zr3_20 1_555 1_555
O6_29 Zr6_15 1_555 1_555
C1_29 C2_29 1_555 1_555
C2_29 H1_29 1_555 1_555
C3_29 C2_29 1_555 1_555
C4_29 O2_29 1_555 1_555
C5_29 S2_29 1_555 1_555
Zr4_21 O10_21 1_555 1_555
S4_29 C6_29 1_555 1_555
O10_21 C15_29 1_555 1_555
O19_14 C15_29 1_555 1_555
O19_21 Zr6_15 1_555 1_555
O23_26 Zr3_20 1_555 1_555
C6_29 C9_29 1_555 1_555
C9_29 H2_29 1_555 1_555
C12_29 S1_29 1_555 1_555
C15_29 C6_29 1_555 1_555
C18_29 C5_29 1_555 1_555
O4_29 C4_29 1_555 1_555
C1_29 C4_29 1_555 1_555
C3_29 C5_29 1_555 1_555
S4_29 C18_29 1_555 1_555
C9_29 C12_29 1_555 1_555
C12_29 C18_29 1_555 1_555
Zr3_23 O8_20 1_555 1_555
S1_30 C3_30 1_555 1_555
S2_30 C1_30 1_555 1_555
O2_30 Zr3_23 1_555 1_555
O3_30 Zr6_16 1_555 1_555
O4_30 Zr6_16 1_555 1_555
O22_27 Zr3_23 1_555 1_555
O6_30 Zr6_16 1_555 1_555
C1_30 C2_30 1_555 1_555
C2_30 H1_30 1_555 1_555
C3_30 C2_30 1_555 1_555
C4_30 O2_30 1_555 1_555
C5_30 S2_30 1_555 1_555
Zr4_18 O10_22 1_555 1_555
S4_30 C6_30 1_555 1_555
O10_22 C15_30 1_555 1_555
O19_15 C15_30 1_555 1_555
O19_22 Zr6_16 1_555 1_555
O23_27 Zr3_23 1_555 1_555
C6_30 C9_30 1_555 1_555
C9_30 H2_30 1_555 1_555
C12_30 S1_30 1_555 1_555
C15_30 C6_30 1_555 1_555
C18_30 C5_30 1_555 1_555
O4_30 C4_30 1_555 1_555
C1_30 C4_30 1_555 1_555
C3_30 C5_30 1_555 1_555
S4_30 C18_30 1_555 1_555
C9_30 C12_30 1_555 1_555
C12_30 C18_30 1_555 1_555
O22_28 Zr3_24 1_555 1_555
S3_30 C13_30 1_555 1_555
S5_30 C7_30 1_555 1_555
S6_30 C8_30 1_555 1_555
O9_20 Zr3_24 1_555 1_555
O11_30 Zr3_24 1_555 1_555
O13_11 C17_30 1_555 1_555
O13_22 Zr3_24 1_555 1_555
O15_30 Zr9_3 1_555 1_555
O17_30 Zr9_3 1_555 1_555
O20_17 C17_30 1_555 1_555
O23_28 Zr3_24 1_555 1_555
O24_30 Zr9_3 1_555 1_555
C7_30 C10_30 1_555 1_555
C8_30 C11_30 1_555 1_555
C10_30 H3_30 1_555 1_555
C11_30 H4_30 1_555 1_555
C13_30 C10_30 1_555 1_555
C14_30 S3_30 1_555 1_555
C16_30 O11_30 1_555 1_555
C17_30 C8_30 1_555 1_555
C19_30 S5_30 1_555 1_555
C20_30 S6_30 1_555 1_555
O17_30 C16_30 1_555 1_555
C7_30 C16_30 1_555 1_555
C11_30 C14_30 1_555 1_555
C13_30 C19_30 1_555 1_555
C14_30 C20_30 1_555 1_555
C19_30 C20_30 1_555 1_555
O22_21 Zr3_21 1_555 1_555
S3_31 C13_31 1_555 1_555
S5_31 C7_31 1_555 1_555
S6_31 C8_31 1_555 1_555
O9_17 Zr3_21 1_555 1_555
O11_31 Zr3_21 1_555 1_555
O13_12 C17_31 1_555 1_555
O13_23 Zr3_21 1_555 1_555
O15_31 Zr9 1_555 1_555
O17_31 Zr9 1_555 1_555
O20_18 C17_31 1_555 1_555
O23_21 Zr3_21 1_555 1_555
O24_31 Zr9 1_555 1_555
C7_31 C10_31 1_555 1_555
C8_31 C11_31 1_555 1_555
C10_31 H3_31 1_555 1_555
C11_31 H4_31 1_555 1_555
C13_31 C10_31 1_555 1_555
C14_31 S3_31 1_555 1_555
C16_31 O11_31 1_555 1_555
C17_31 C8_31 1_555 1_555
C19_31 S5_31 1_555 1_555
C20_31 S6_31 1_555 1_555
O17_31 C16_31 1_555 1_555
C7_31 C16_31 1_555 1_555
C11_31 C14_31 1_555 1_555
C13_31 C19_31 1_555 1_555
C14_31 C20_31 1_555 1_555
C19_31 C20_31 1_555 1_555
Zr3_22 O8_17 1_555 1_555
S1_31 C3_31 1_555 1_555
S2_31 C1_31 1_555 1_555
O2_31 Zr3_22 1_555 1_555
O3_31 Zr6_13 1_555 1_555
O4_31 Zr6_13 1_555 1_555
O22_22 Zr3_22 1_555 1_555
O6_31 Zr6_13 1_555 1_555
C1_31 C2_31 1_555 1_555
C2_31 H1_31 1_555 1_555
C3_31 C2_31 1_555 1_555
C4_31 O2_31 1_555 1_555
C5_31 S2_31 1_555 1_555
Zr4_20 O10_23 1_555 1_555
S4_31 C6_31 1_555 1_555
O10_23 C15_31 1_555 1_555
O19_13 C15_31 1_555 1_555
O19_23 Zr6_13 1_555 1_555
O23_22 Zr3_22 1_555 1_555
C6_31 C9_31 1_555 1_555
C9_31 H2_31 1_555 1_555
C12_31 S1_31 1_555 1_555
C15_31 C6_31 1_555 1_555
C18_31 C5_31 1_555 1_555
O4_31 C4_31 1_555 1_555
C1_31 C4_31 1_555 1_555
C3_31 C5_31 1_555 1_555
S4_31 C18_31 1_555 1_555
C9_31 C12_31 1_555 1_555
C12_31 C18_31 1_555 1_555
Zr3_17 O8_18 1_555 1_555
S1_32 C3_32 1_555 1_555
S2_32 C1_32 1_555 1_555
O2_32 Zr3_17 1_555 1_555
O3_32 Zr6_14 1_555 1_555
O4_32 Zr6_14 1_555 1_555
O22_23 Zr3_17 1_555 1_555
O6_32 Zr6_14 1_555 1_555
C1_32 C2_32 1_555 1_555
C2_32 H1_32 1_555 1_555
C3_32 C2_32 1_555 1_555
C4_32 O2_32 1_555 1_555
C5_32 S2_32 1_555 1_555
Zr4_23 O10_24 1_555 1_555
S4_32 C6_32 1_555 1_555
O10_24 C15_32 1_555 1_555
O19_16 C15_32 1_555 1_555
O19_24 Zr6_14 1_555 1_555
O23_23 Zr3_17 1_555 1_555
C6_32 C9_32 1_555 1_555
C9_32 H2_32 1_555 1_555
C12_32 S1_32 1_555 1_555
C15_32 C6_32 1_555 1_555
C18_32 C5_32 1_555 1_555
O4_32 C4_32 1_555 1_555
C1_32 C4_32 1_555 1_555
C3_32 C5_32 1_555 1_555
S4_32 C18_32 1_555 1_555
C9_32 C12_32 1_555 1_555
C12_32 C18_32 1_555 1_555
O22_24 Zr3_18 1_555 1_555
S3_32 C13_32 1_555 1_555
S5_32 C7_32 1_555 1_555
S6_32 C8_32 1_555 1_555
O9_18 Zr3_18 1_555 1_555
O11_32 Zr3_18 1_555 1_555
O13_10 C17_32 1_555 1_555
O13_24 Zr3_18 1_555 1_555
O15_32 Zr9_4 1_555 1_555
O17_32 Zr9_4 1_555 1_555
O20_20 C17_32 1_555 1_555
O23_24 Zr3_18 1_555 1_555
O24_32 Zr9_4 1_555 1_555
C7_32 C10_32 1_555 1_555
C8_32 C11_32 1_555 1_555
C10_32 H3_32 1_555 1_555
C11_32 H4_32 1_555 1_555
C13_32 C10_32 1_555 1_555
C14_32 S3_32 1_555 1_555
C16_32 O11_32 1_555 1_555
C17_32 C8_32 1_555 1_555
C19_32 S5_32 1_555 1_555
C20_32 S6_32 1_555 1_555
O17_32 C16_32 1_555 1_555
C7_32 C16_32 1_555 1_555
C11_32 C14_32 1_555 1_555
C13_32 C19_32 1_555 1_555
C14_32 C20_32 1_555 1_555
C19_32 C20_32 1_555 1_555
O5_29 Zr4_9 1_555 1_555
Zr9_14 O5_29 1_555 1_555
Zr9_5 O7_21 1_555 1_555
Zr8_13 O18_21 1_555 1_555
S3_33 C13_33 1_555 1_555
S5_33 C7_33 1_555 1_555
S6_33 C8_33 1_555 1_555
O7_21 Zr4_9 1_555 1_555
O9_21 Zr9_14 1_555 1_555
O11_33 Zr4_9 1_555 1_555
O13_13 C17_33 1_555 1_555
O15_33 Zr9_14 1_555 1_555
O17_33 Zr9_14 1_555 1_555
O18_21 C17_33 1_555 1_555
O21_29 Zr4_9 1_555 1_555
O23_29 Zr9_14 1_555 1_555
O24_33 Zr9_14 1_555 1_555
C7_33 C10_33 1_555 1_555
C8_33 C11_33 1_555 1_555
C10_33 H3_33 1_555 1_555
C11_33 H4_33 1_555 1_555
C13_33 C10_33 1_555 1_555
C14_33 S3_33 1_555 1_555
C16_33 O11_33 1_555 1_555
C17_33 C8_33 1_555 1_555
C19_33 S5_33 1_555 1_555
C20_33 S6_33 1_555 1_555
Zr9_14 O7_21 1_555 1_555
Zr9_5 O9_21 1_555 1_555
Zr9_5 O21_29 1_555 1_555
Zr9_5 O22_29 1_555 1_555
O17_33 C16_33 1_555 1_555
C7_33 C16_33 1_555 1_555
C11_33 C14_33 1_555 1_555
C13_33 C19_33 1_555 1_555
C14_33 C20_33 1_555 1_555
C19_33 C20_33 1_555 1_555
Zr4_10 O1_21 1_555 1_555
Zr7_3 O1_21 1_555 1_555
S1_33 C3_33 1_555 1_555
S2_33 C1_33 1_555 1_555
O1_21 Zr7_14 1_555 1_555
O2_33 Zr4_10 1_555 1_555
O3_33 Zr7_3 1_555 1_555
O4_33 Zr7_3 1_555 1_555
O5_30 Zr4_10 1_555 1_555
O6_33 Zr7_3 1_555 1_555
C1_33 C2_33 1_555 1_555
C2_33 H1_33 1_555 1_555
C3_33 C2_33 1_555 1_555
C4_33 O2_33 1_555 1_555
C5_33 S2_33 1_555 1_555
Zr7_14 O5_30 1_555 1_555
Zr6_8 O16_21 1_555 1_555
S4_33 C6_33 1_555 1_555
O8_21 Zr7_3 1_555 1_555
O14_8 C15_33 1_555 1_555
O16_21 C15_33 1_555 1_555
O21_30 Zr4_10 1_555 1_555
O22_30 Zr7_3 1_555 1_555
C6_33 C9_33 1_555 1_555
C9_33 H2_33 1_555 1_555
C12_33 S1_33 1_555 1_555
C15_33 C6_33 1_555 1_555
C18_33 C5_33 1_555 1_555
Zr7_3 O21_30 1_555 1_555
O4_33 C4_33 1_555 1_555
C1_33 C4_33 1_555 1_555
C3_33 C5_33 1_555 1_555
Zr7_14 O8_21 1_555 1_555
Zr7_14 O23_30 1_555 1_555
S4_33 C18_33 1_555 1_555
C9_33 C12_33 1_555 1_555
C12_33 C18_33 1_555 1_555
Zr4_15 O1_22 1_555 1_555
Zr7 O1_22 1_555 1_555
S1_34 C3_34 1_555 1_555
S2_34 C1_34 1_555 1_555
O1_22 Zr7_16 1_555 1_555
O2_34 Zr4_15 1_555 1_555
O3_34 Zr7 1_555 1_555
O4_34 Zr7 1_555 1_555
O5_31 Zr4_15 1_555 1_555
O6_34 Zr7 1_555 1_555
C1_34 C2_34 1_555 1_555
C2_34 H1_34 1_555 1_555
C3_34 C2_34 1_555 1_555
C4_34 O2_34 1_555 1_555
C5_34 S2_34 1_555 1_555
Zr7_16 O5_31 1_555 1_555
Zr6_5 O16_22 1_555 1_555
S4_34 C6_34 1_555 1_555
O8_22 Zr7 1_555 1_555
O14_5 C15_34 1_555 1_555
O16_22 C15_34 1_555 1_555
O21_31 Zr4_15 1_555 1_555
O22_31 Zr7 1_555 1_555
C6_34 C9_34 1_555 1_555
C9_34 H2_34 1_555 1_555
C12_34 S1_34 1_555 1_555
C15_34 C6_34 1_555 1_555
C18_34 C5_34 1_555 1_555
Zr7 O21_31 1_555 1_555
O4_34 C4_34 1_555 1_555
C1_34 C4_34 1_555 1_555
C3_34 C5_34 1_555 1_555
Zr7_16 O8_22 1_555 1_555
Zr7_16 O23_31 1_555 1_555
S4_34 C18_34 1_555 1_555
C9_34 C12_34 1_555 1_555
C12_34 C18_34 1_555 1_555
O5_32 Zr4_16 1_555 1_555
Zr9_15 O5_32 1_555 1_555
Zr9_8 O7_22 1_555 1_555
Zr8_15 O18_22 1_555 1_555
S3_34 C13_34 1_555 1_555
S5_34 C7_34 1_555 1_555
S6_34 C8_34 1_555 1_555
O7_22 Zr4_16 1_555 1_555
O9_22 Zr9_15 1_555 1_555
O11_34 Zr4_16 1_555 1_555
O13_15 C17_34 1_555 1_555
O15_34 Zr9_15 1_555 1_555
O17_34 Zr9_15 1_555 1_555
O18_22 C17_34 1_555 1_555
O21_32 Zr4_16 1_555 1_555
O23_32 Zr9_15 1_555 1_555
O24_34 Zr9_15 1_555 1_555
C7_34 C10_34 1_555 1_555
C8_34 C11_34 1_555 1_555
C10_34 H3_34 1_555 1_555
C11_34 H4_34 1_555 1_555
C13_34 C10_34 1_555 1_555
C14_34 S3_34 1_555 1_555
C16_34 O11_34 1_555 1_555
C17_34 C8_34 1_555 1_555
C19_34 S5_34 1_555 1_555
C20_34 S6_34 1_555 1_555
Zr9_15 O7_22 1_555 1_555
Zr9_8 O9_22 1_555 1_555
Zr9_8 O21_32 1_555 1_555
Zr9_8 O22_32 1_555 1_555
O17_34 C16_34 1_555 1_555
C7_34 C16_34 1_555 1_555
C11_34 C14_34 1_555 1_555
C13_34 C19_34 1_555 1_555
C14_34 C20_34 1_555 1_555
C19_34 C20_34 1_555 1_555
O5_33 Zr4_11 1_555 1_555
Zr9_13 O5_33 1_555 1_555
Zr9_6 O7_23 1_555 1_555
Zr8_16 O18_23 1_555 1_555
S3_35 C13_35 1_555 1_555
S5_35 C7_35 1_555 1_555
S6_35 C8_35 1_555 1_555
O7_23 Zr4_11 1_555 1_555
O9_23 Zr9_13 1_555 1_555
O11_35 Zr4_11 1_555 1_555
O13_16 C17_35 1_555 1_555
O15_35 Zr9_13 1_555 1_555
O17_35 Zr9_13 1_555 1_555
O18_23 C17_35 1_555 1_555
O21_33 Zr4_11 1_555 1_555
O23_33 Zr9_13 1_555 1_555
O24_35 Zr9_13 1_555 1_555
C7_35 C10_35 1_555 1_555
C8_35 C11_35 1_555 1_555
C10_35 H3_35 1_555 1_555
C11_35 H4_35 1_555 1_555
C13_35 C10_35 1_555 1_555
C14_35 S3_35 1_555 1_555
C16_35 O11_35 1_555 1_555
C17_35 C8_35 1_555 1_555
C19_35 S5_35 1_555 1_555
C20_35 S6_35 1_555 1_555
Zr9_13 O7_23 1_555 1_555
Zr9_6 O9_23 1_555 1_555
Zr9_6 O21_33 1_555 1_555
Zr9_6 O22_33 1_555 1_555
O17_35 C16_35 1_555 1_555
C7_35 C16_35 1_555 1_555
C11_35 C14_35 1_555 1_555
C13_35 C19_35 1_555 1_555
C14_35 C20_35 1_555 1_555
C19_35 C20_35 1_555 1_555
Zr4_12 O1_23 1_555 1_555
Zr7_2 O1_23 1_555 1_555
S1_35 C3_35 1_555 1_555
S2_35 C1_35 1_555 1_555
O1_23 Zr7_15 1_555 1_555
O2_35 Zr4_12 1_555 1_555
O3_35 Zr7_2 1_555 1_555
O4_35 Zr7_2 1_555 1_555
O5_34 Zr4_12 1_555 1_555
O6_35 Zr7_2 1_555 1_555
C1_35 C2_35 1_555 1_555
C2_35 H1_35 1_555 1_555
C3_35 C2_35 1_555 1_555
C4_35 O2_35 1_555 1_555
C5_35 S2_35 1_555 1_555
Zr7_15 O5_34 1_555 1_555
Zr6_7 O16_23 1_555 1_555
S4_35 C6_35 1_555 1_555
O8_23 Zr7_2 1_555 1_555
O14_7 C15_35 1_555 1_555
O16_23 C15_35 1_555 1_555
O21_34 Zr4_12 1_555 1_555
O22_34 Zr7_2 1_555 1_555
C6_35 C9_35 1_555 1_555
C9_35 H2_35 1_555 1_555
C12_35 S1_35 1_555 1_555
C15_35 C6_35 1_555 1_555
C18_35 C5_35 1_555 1_555
Zr7_2 O21_34 1_555 1_555
O4_35 C4_35 1_555 1_555
C1_35 C4_35 1_555 1_555
C3_35 C5_35 1_555 1_555
Zr7_15 O8_23 1_555 1_555
Zr7_15 O23_34 1_555 1_555
S4_35 C18_35 1_555 1_555
C9_35 C12_35 1_555 1_555
C12_35 C18_35 1_555 1_555
Zr4_13 O1_24 1_555 1_555
Zr7_4 O1_24 1_555 1_555
S1_36 C3_36 1_555 1_555
S2_36 C1_36 1_555 1_555
O1_24 Zr7_13 1_555 1_555
O2_36 Zr4_13 1_555 1_555
O3_36 Zr7_4 1_555 1_555
O4_36 Zr7_4 1_555 1_555
O5_35 Zr4_13 1_555 1_555
O6_36 Zr7_4 1_555 1_555
C1_36 C2_36 1_555 1_555
C2_36 H1_36 1_555 1_555
C3_36 C2_36 1_555 1_555
C4_36 O2_36 1_555 1_555
C5_36 S2_36 1_555 1_555
Zr7_13 O5_35 1_555 1_555
Zr6_6 O16_24 1_555 1_555
S4_36 C6_36 1_555 1_555
O8_24 Zr7_4 1_555 1_555
O14_6 C15_36 1_555 1_555
O16_24 C15_36 1_555 1_555
O21_35 Zr4_13 1_555 1_555
O22_35 Zr7_4 1_555 1_555
C6_36 C9_36 1_555 1_555
C9_36 H2_36 1_555 1_555
C12_36 S1_36 1_555 1_555
C15_36 C6_36 1_555 1_555
C18_36 C5_36 1_555 1_555
Zr7_4 O21_35 1_555 1_555
O4_36 C4_36 1_555 1_555
C1_36 C4_36 1_555 1_555
C3_36 C5_36 1_555 1_555
Zr7_13 O8_24 1_555 1_555
Zr7_13 O23_35 1_555 1_555
S4_36 C18_36 1_555 1_555
C9_36 C12_36 1_555 1_555
C12_36 C18_36 1_555 1_555
O5_36 Zr4_14 1_555 1_555
Zr9_16 O5_36 1_555 1_555
Zr9_7 O7_24 1_555 1_555
Zr8_14 O18_24 1_555 1_555
S3_36 C13_36 1_555 1_555
S5_36 C7_36 1_555 1_555
S6_36 C8_36 1_555 1_555
O7_24 Zr4_14 1_555 1_555
O9_24 Zr9_16 1_555 1_555
O11_36 Zr4_14 1_555 1_555
O13_14 C17_36 1_555 1_555
O15_36 Zr9_16 1_555 1_555
O17_36 Zr9_16 1_555 1_555
O18_24 C17_36 1_555 1_555
O21_36 Zr4_14 1_555 1_555
O23_36 Zr9_16 1_555 1_555
O24_36 Zr9_16 1_555 1_555
C7_36 C10_36 1_555 1_555
C8_36 C11_36 1_555 1_555
C10_36 H3_36 1_555 1_555
C11_36 H4_36 1_555 1_555
C13_36 C10_36 1_555 1_555
C14_36 S3_36 1_555 1_555
C16_36 O11_36 1_555 1_555
C17_36 C8_36 1_555 1_555
C19_36 S5_36 1_555 1_555
C20_36 S6_36 1_555 1_555
Zr9_16 O7_24 1_555 1_555
Zr9_7 O9_24 1_555 1_555
Zr9_7 O21_36 1_555 1_555
Zr9_7 O22_36 1_555 1_555
O17_36 C16_36 1_555 1_555
C7_36 C16_36 1_555 1_555
C11_36 C14_36 1_555 1_555
C13_36 C19_36 1_555 1_555
C14_36 C20_36 1_555 1_555
C19_36 C20_36 1_555 1_555
O22_17 Zr4_17 1_555 1_555
S3_37 C13_37 1_555 1_555
S5_37 C7_37 1_555 1_555
S6_37 C8_37 1_555 1_555
O9_15 Zr4_17 1_555 1_555
O11_37 Zr4_17 1_555 1_555
O13_21 C17_37 1_555 1_555
O15_37 Zr8_15 1_555 1_555
O17_37 Zr8_15 1_555 1_555
O20_15 C17_37 1_555 1_555
O23_17 Zr4_17 1_555 1_555
O24_37 Zr8_15 1_555 1_555
C7_37 C10_37 1_555 1_555
C8_37 C11_37 1_555 1_555
C10_37 H3_37 1_555 1_555
C11_37 H4_37 1_555 1_555
C13_37 C10_37 1_555 1_555
C14_37 S3_37 1_555 1_555
C16_37 O11_37 1_555 1_555
C17_37 C8_37 1_555 1_555
C19_37 S5_37 1_555 1_555
C20_37 S6_37 1_555 1_555
O17_37 C16_37 1_555 1_555
C7_37 C16_37 1_555 1_555
C11_37 C14_37 1_555 1_555
C13_37 C19_37 1_555 1_555
C14_37 C20_37 1_555 1_555
C19_37 C20_37 1_555 1_555
Zr4_18 O8_15 1_555 1_555
S1_37 C3_37 1_555 1_555
S2_37 C1_37 1_555 1_555
O2_37 Zr4_18 1_555 1_555
O3_37 Zr7_7 1_555 1_555
O4_37 Zr7_7 1_555 1_555
O22_18 Zr4_18 1_555 1_555
O6_37 Zr7_7 1_555 1_555
C1_37 C2_37 1_555 1_555
C2_37 H1_37 1_555 1_555
C3_37 C2_37 1_555 1_555
C4_37 O2_37 1_555 1_555
C5_37 S2_37 1_555 1_555
S4_37 C6_37 1_555 1_555
O14_12 C15_37 1_555 1_555
O19_18 C15_37 1_555 1_555
O23_18 Zr4_18 1_555 1_555
C6_37 C9_37 1_555 1_555
C9_37 H2_37 1_555 1_555
C12_37 S1_37 1_555 1_555
C15_37 C6_37 1_555 1_555
C18_37 C5_37 1_555 1_555
O4_37 C4_37 1_555 1_555
C1_37 C4_37 1_555 1_555
C3_37 C5_37 1_555 1_555
S4_37 C18_37 1_555 1_555
C9_37 C12_37 1_555 1_555
C12_37 C18_37 1_555 1_555
Zr4_23 O8_16 1_555 1_555
S1_38 C3_38 1_555 1_555
S2_38 C1_38 1_555 1_555
O2_38 Zr4_23 1_555 1_555
O3_38 Zr7_5 1_555 1_555
O4_38 Zr7_5 1_555 1_555
O22_19 Zr4_23 1_555 1_555
O6_38 Zr7_5 1_555 1_555
C1_38 C2_38 1_555 1_555
C2_38 H1_38 1_555 1_555
C3_38 C2_38 1_555 1_555
C4_38 O2_38 1_555 1_555
C5_38 S2_38 1_555 1_555
S4_38 C6_38 1_555 1_555
O14_9 C15_38 1_555 1_555
O19_19 C15_38 1_555 1_555
O23_19 Zr4_23 1_555 1_555
C6_38 C9_38 1_555 1_555
C9_38 H2_38 1_555 1_555
C12_38 S1_38 1_555 1_555
C15_38 C6_38 1_555 1_555
C18_38 C5_38 1_555 1_555
O4_38 C4_38 1_555 1_555
C1_38 C4_38 1_555 1_555
C3_38 C5_38 1_555 1_555
S4_38 C18_38 1_555 1_555
C9_38 C12_38 1_555 1_555
C12_38 C18_38 1_555 1_555
O22_20 Zr4_24 1_555 1_555
S3_38 C13_38 1_555 1_555
S5_38 C7_38 1_555 1_555
S6_38 C8_38 1_555 1_555
O9_16 Zr4_24 1_555 1_555
O11_38 Zr4_24 1_555 1_555
O13_23 C17_38 1_555 1_555
O15_38 Zr8_16 1_555 1_555
O17_38 Zr8_16 1_555 1_555
O20_13 C17_38 1_555 1_555
O23_20 Zr4_24 1_555 1_555
O24_38 Zr8_16 1_555 1_555
C7_38 C10_38 1_555 1_555
C8_38 C11_38 1_555 1_555
C10_38 H3_38 1_555 1_555
C11_38 H4_38 1_555 1_555
C13_38 C10_38 1_555 1_555
C14_38 S3_38 1_555 1_555
C16_38 O11_38 1_555 1_555
C17_38 C8_38 1_555 1_555
C19_38 S5_38 1_555 1_555
C20_38 S6_38 1_555 1_555
O17_38 C16_38 1_555 1_555
C7_38 C16_38 1_555 1_555
C11_38 C14_38 1_555 1_555
C13_38 C19_38 1_555 1_555
C14_38 C20_38 1_555 1_555
C19_38 C20_38 1_555 1_555
O22_13 Zr4_19 1_555 1_555
S3_39 C13_39 1_555 1_555
S5_39 C7_39 1_555 1_555
S6_39 C8_39 1_555 1_555
O9_13 Zr4_19 1_555 1_555
O11_39 Zr4_19 1_555 1_555
O13_24 C17_39 1_555 1_555
O15_39 Zr8_13 1_555 1_555
O17_39 Zr8_13 1_555 1_555
O20_14 C17_39 1_555 1_555
O23_13 Zr4_19 1_555 1_555
O24_39 Zr8_13 1_555 1_555
C7_39 C10_39 1_555 1_555
C8_39 C11_39 1_555 1_555
C10_39 H3_39 1_555 1_555
C11_39 H4_39 1_555 1_555
C13_39 C10_39 1_555 1_555
C14_39 S3_39 1_555 1_555
C16_39 O11_39 1_555 1_555
C17_39 C8_39 1_555 1_555
C19_39 S5_39 1_555 1_555
C20_39 S6_39 1_555 1_555
O17_39 C16_39 1_555 1_555
C7_39 C16_39 1_555 1_555
C11_39 C14_39 1_555 1_555
C13_39 C19_39 1_555 1_555
C14_39 C20_39 1_555 1_555
C19_39 C20_39 1_555 1_555
Zr4_20 O8_13 1_555 1_555
S1_39 C3_39 1_555 1_555
S2_39 C1_39 1_555 1_555
O2_39 Zr4_20 1_555 1_555
O3_39 Zr7_6 1_555 1_555
O4_39 Zr7_6 1_555 1_555
O22_14 Zr4_20 1_555 1_555
O6_39 Zr7_6 1_555 1_555
C1_39 C2_39 1_555 1_555
C2_39 H1_39 1_555 1_555
C3_39 C2_39 1_555 1_555
C4_39 O2_39 1_555 1_555
C5_39 S2_39 1_555 1_555
S4_39 C6_39 1_555 1_555
O14_11 C15_39 1_555 1_555
O19_17 C15_39 1_555 1_555
O23_14 Zr4_20 1_555 1_555
C6_39 C9_39 1_555 1_555
C9_39 H2_39 1_555 1_555
C12_39 S1_39 1_555 1_555
C15_39 C6_39 1_555 1_555
C18_39 C5_39 1_555 1_555
O4_39 C4_39 1_555 1_555
C1_39 C4_39 1_555 1_555
C3_39 C5_39 1_555 1_555
S4_39 C18_39 1_555 1_555
C9_39 C12_39 1_555 1_555
C12_39 C18_39 1_555 1_555
Zr4_21 O8_14 1_555 1_555
S1_40 C3_40 1_555 1_555
S2_40 C1_40 1_555 1_555
O2_40 Zr4_21 1_555 1_555
O3_40 Zr7_8 1_555 1_555
O4_40 Zr7_8 1_555 1_555
O22_15 Zr4_21 1_555 1_555
O6_40 Zr7_8 1_555 1_555
C1_40 C2_40 1_555 1_555
C2_40 H1_40 1_555 1_555
C3_40 C2_40 1_555 1_555
C4_40 O2_40 1_555 1_555
C5_40 S2_40 1_555 1_555
S4_40 C6_40 1_555 1_555
O14_10 C15_40 1_555 1_555
O19_20 C15_40 1_555 1_555
O23_15 Zr4_21 1_555 1_555
C6_40 C9_40 1_555 1_555
C9_40 H2_40 1_555 1_555
C12_40 S1_40 1_555 1_555
C15_40 C6_40 1_555 1_555
C18_40 C5_40 1_555 1_555
O4_40 C4_40 1_555 1_555
C1_40 C4_40 1_555 1_555
C3_40 C5_40 1_555 1_555
S4_40 C18_40 1_555 1_555
C9_40 C12_40 1_555 1_555
C12_40 C18_40 1_555 1_555
O22_16 Zr4_22 1_555 1_555
S3_40 C13_40 1_555 1_555
S5_40 C7_40 1_555 1_555
S6_40 C8_40 1_555 1_555
O9_14 Zr4_22 1_555 1_555
O11_40 Zr4_22 1_555 1_555
O13_22 C17_40 1_555 1_555
O15_40 Zr8_14 1_555 1_555
O17_40 Zr8_14 1_555 1_555
O20_16 C17_40 1_555 1_555
O23_16 Zr4_22 1_555 1_555
O24_40 Zr8_14 1_555 1_555
C7_40 C10_40 1_555 1_555
C8_40 C11_40 1_555 1_555
C10_40 H3_40 1_555 1_555
C11_40 H4_40 1_555 1_555
C13_40 C10_40 1_555 1_555
C14_40 S3_40 1_555 1_555
C16_40 O11_40 1_555 1_555
C17_40 C8_40 1_555 1_555
C19_40 S5_40 1_555 1_555
C20_40 S6_40 1_555 1_555
O17_40 C16_40 1_555 1_555
C7_40 C16_40 1_555 1_555
C11_40 C14_40 1_555 1_555
C13_40 C19_40 1_555 1_555
C14_40 C20_40 1_555 1_555
C19_40 C20_40 1_555 1_555
Zr3_26 O8_7 1_555 1_555
S1_41 C3_41 1_555 1_555
S2_41 C1_41 1_555 1_555
O2_41 Zr3_26 1_555 1_555
O3_41 Zr6_7 1_555 1_555
O4_41 Zr6_7 1_555 1_555
O22_7 Zr3_26 1_555 1_555
O6_41 Zr6_7 1_555 1_555
C1_41 C2_41 1_555 1_555
C2_41 H1_41 1_555 1_555
C3_41 C2_41 1_555 1_555
C4_41 O2_41 1_555 1_555
C5_41 S2_41 1_555 1_555
S3_41 C13_41 1_555 1_555
S4_41 C6_41 1_555 1_555
S5_41 C7_41 1_555 1_555
S6_41 C8_41 1_555 1_555
O9_7 Zr3_26 1_555 1_555
O14_24 C15_41 1_555 1_555
O11_41 Zr3_26 1_555 1_555
O13_17 C17_41 1_555 1_555
O15_41 Zr8_7 1_555 1_555
O19_2 C15_41 1_555 1_555
O17_41 Zr8_7 1_555 1_555
O20_11 C17_41 1_555 1_555
O23_7 Zr3_26 1_555 1_555
O24_41 Zr8_7 1_555 1_555
C6_41 C9_41 1_555 1_555
C7_41 C10_41 1_555 1_555
C8_41 C11_41 1_555 1_555
C9_41 H2_41 1_555 1_555
C10_41 H3_41 1_555 1_555
C11_41 H4_41 1_555 1_555
C12_41 S1_41 1_555 1_555
C13_41 C10_41 1_555 1_555
C14_41 S3_41 1_555 1_555
C15_41 C6_41 1_555 1_555
C16_41 O11_41 1_555 1_555
C17_41 C8_41 1_555 1_555
C18_41 C5_41 1_555 1_555
C19_41 S5_41 1_555 1_555
C20_41 S6_41 1_555 1_555
O4_41 C4_41 1_555 1_555
C1_41 C4_41 1_555 1_555
C3_41 C5_41 1_555 1_555
S4_41 C18_41 1_555 1_555
O17_41 C16_41 1_555 1_555
C7_41 C16_41 1_555 1_555
C9_41 C12_41 1_555 1_555
C11_41 C14_41 1_555 1_555
C12_41 C18_41 1_555 1_555
C13_41 C19_41 1_555 1_555
C14_41 C20_41 1_555 1_555
C19_41 C20_41 1_555 1_555
Zr3_28 O8_8 1_555 1_555
S1_42 C3_42 1_555 1_555
S2_42 C1_42 1_555 1_555
O2_42 Zr3_28 1_555 1_555
O3_42 Zr6_8 1_555 1_555
O4_42 Zr6_8 1_555 1_555
O22_8 Zr3_28 1_555 1_555
O6_42 Zr6_8 1_555 1_555
C1_42 C2_42 1_555 1_555
C2_42 H1_42 1_555 1_555
C3_42 C2_42 1_555 1_555
C4_42 O2_42 1_555 1_555
C5_42 S2_42 1_555 1_555
S3_42 C13_42 1_555 1_555
S4_42 C6_42 1_555 1_555
S5_42 C7_42 1_555 1_555
S6_42 C8_42 1_555 1_555
O9_8 Zr3_28 1_555 1_555
O14_21 C15_42 1_555 1_555
O11_42 Zr3_28 1_555 1_555
O13_19 C17_42 1_555 1_555
O15_42 Zr8_8 1_555 1_555
O19_3 C15_42 1_555 1_555
O17_42 Zr8_8 1_555 1_555
O20_9 C17_42 1_555 1_555
O23_8 Zr3_28 1_555 1_555
O24_42 Zr8_8 1_555 1_555
C6_42 C9_42 1_555 1_555
C7_42 C10_42 1_555 1_555
C8_42 C11_42 1_555 1_555
C9_42 H2_42 1_555 1_555
C10_42 H3_42 1_555 1_555
C11_42 H4_42 1_555 1_555
C12_42 S1_42 1_555 1_555
C13_42 C10_42 1_555 1_555
C14_42 S3_42 1_555 1_555
C15_42 C6_42 1_555 1_555
C16_42 O11_42 1_555 1_555
C17_42 C8_42 1_555 1_555
C18_42 C5_42 1_555 1_555
C19_42 S5_42 1_555 1_555
C20_42 S6_42 1_555 1_555
O4_42 C4_42 1_555 1_555
C1_42 C4_42 1_555 1_555
C3_42 C5_42 1_555 1_555
S4_42 C18_42 1_555 1_555
O17_42 C16_42 1_555 1_555
C7_42 C16_42 1_555 1_555
C9_42 C12_42 1_555 1_555
C11_42 C14_42 1_555 1_555
C12_42 C18_42 1_555 1_555
C13_42 C19_42 1_555 1_555
C14_42 C20_42 1_555 1_555
C19_42 C20_42 1_555 1_555
Zr3_27 O8_5 1_555 1_555
S1_43 C3_43 1_555 1_555
S2_43 C1_43 1_555 1_555
O2_43 Zr3_27 1_555 1_555
O3_43 Zr6_5 1_555 1_555
O4_43 Zr6_5 1_555 1_555
O22_5 Zr3_27 1_555 1_555
O6_43 Zr6_5 1_555 1_555
C1_43 C2_43 1_555 1_555
C2_43 H1_43 1_555 1_555
C3_43 C2_43 1_555 1_555
C4_43 O2_43 1_555 1_555
C5_43 S2_43 1_555 1_555
S3_43 C13_43 1_555 1_555
S4_43 C6_43 1_555 1_555
S5_43 C7_43 1_555 1_555
S6_43 C8_43 1_555 1_555
O9_5 Zr3_27 1_555 1_555
O14_23 C15_43 1_555 1_555
O11_43 Zr3_27 1_555 1_555
O13_20 C17_43 1_555 1_555
O15_43 Zr8_5 1_555 1_555
O19 C15_43 1_555 1_555
O17_43 Zr8_5 1_555 1_555
O20_10 C17_43 1_555 1_555
O23_5 Zr3_27 1_555 1_555
O24_43 Zr8_5 1_555 1_555
C6_43 C9_43 1_555 1_555
C7_43 C10_43 1_555 1_555
C8_43 C11_43 1_555 1_555
C9_43 H2_43 1_555 1_555
C10_43 H3_43 1_555 1_555
C11_43 H4_43 1_555 1_555
C12_43 S1_43 1_555 1_555
C13_43 C10_43 1_555 1_555
C14_43 S3_43 1_555 1_555
C15_43 C6_43 1_555 1_555
C16_43 O11_43 1_555 1_555
C17_43 C8_43 1_555 1_555
C18_43 C5_43 1_555 1_555
C19_43 S5_43 1_555 1_555
C20_43 S6_43 1_555 1_555
O4_43 C4_43 1_555 1_555
C1_43 C4_43 1_555 1_555
C3_43 C5_43 1_555 1_555
S4_43 C18_43 1_555 1_555
O17_43 C16_43 1_555 1_555
C7_43 C16_43 1_555 1_555
C9_43 C12_43 1_555 1_555
C11_43 C14_43 1_555 1_555
C12_43 C18_43 1_555 1_555
C13_43 C19_43 1_555 1_555
C14_43 C20_43 1_555 1_555
C19_43 C20_43 1_555 1_555
Zr3_25 O8_6 1_555 1_555
S1_44 C3_44 1_555 1_555
S2_44 C1_44 1_555 1_555
O2_44 Zr3_25 1_555 1_555
O3_44 Zr6_6 1_555 1_555
O4_44 Zr6_6 1_555 1_555
O22_6 Zr3_25 1_555 1_555
O6_44 Zr6_6 1_555 1_555
C1_44 C2_44 1_555 1_555
C2_44 H1_44 1_555 1_555
C3_44 C2_44 1_555 1_555
C4_44 O2_44 1_555 1_555
C5_44 S2_44 1_555 1_555
S3_44 C13_44 1_555 1_555
S4_44 C6_44 1_555 1_555
S5_44 C7_44 1_555 1_555
S6_44 C8_44 1_555 1_555
O9_6 Zr3_25 1_555 1_555
O14_22 C15_44 1_555 1_555
O11_44 Zr3_25 1_555 1_555
O13_18 C17_44 1_555 1_555
O15_44 Zr8_6 1_555 1_555
O19_4 C15_44 1_555 1_555
O17_44 Zr8_6 1_555 1_555
O20_12 C17_44 1_555 1_555
O23_6 Zr3_25 1_555 1_555
O24_44 Zr8_6 1_555 1_555
C6_44 C9_44 1_555 1_555
C7_44 C10_44 1_555 1_555
C8_44 C11_44 1_555 1_555
C9_44 H2_44 1_555 1_555
C10_44 H3_44 1_555 1_555
C11_44 H4_44 1_555 1_555
C12_44 S1_44 1_555 1_555
C13_44 C10_44 1_555 1_555
C14_44 S3_44 1_555 1_555
C15_44 C6_44 1_555 1_555
C16_44 O11_44 1_555 1_555
C17_44 C8_44 1_555 1_555
C18_44 C5_44 1_555 1_555
C19_44 S5_44 1_555 1_555
C20_44 S6_44 1_555 1_555
O4_44 C4_44 1_555 1_555
C1_44 C4_44 1_555 1_555
C3_44 C5_44 1_555 1_555
S4_44 C18_44 1_555 1_555
O17_44 C16_44 1_555 1_555
C7_44 C16_44 1_555 1_555
C9_44 C12_44 1_555 1_555
C11_44 C14_44 1_555 1_555
C12_44 C18_44 1_555 1_555
C13_44 C19_44 1_555 1_555
C14_44 C20_44 1_555 1_555
C19_44 C20_44 1_555 1_555
O22_33 Zr3_3 1_555 1_555
S3_45 C13_45 1_555 1_555
S5_45 C7_45 1_555 1_555
S6_45 C8_45 1_555 1_555
O9_23 Zr3_3 1_555 1_555
O11_45 Zr3_3 1_555 1_555
O13 C17_45 1_555 1_555
O15_45 Zr9_6 1_555 1_555
O17_45 Zr9_6 1_555 1_555
O20_23 C17_45 1_555 1_555
O23_33 Zr3_3 1_555 1_555
O24_45 Zr9_6 1_555 1_555
C7_45 C10_45 1_555 1_555
C8_45 C11_45 1_555 1_555
C10_45 H3_45 1_555 1_555
C11_45 H4_45 1_555 1_555
C13_45 C10_45 1_555 1_555
C14_45 S3_45 1_555 1_555
C16_45 O11_45 1_555 1_555
C17_45 C8_45 1_555 1_555
C19_45 S5_45 1_555 1_555
C20_45 S6_45 1_555 1_555
O17_45 C16_45 1_555 1_555
C7_45 C16_45 1_555 1_555
C11_45 C14_45 1_555 1_555
C13_45 C19_45 1_555 1_555
C14_45 C20_45 1_555 1_555
C19_45 C20_45 1_555 1_555
Zr3_4 O8_23 1_555 1_555
S1_45 C3_45 1_555 1_555
S2_45 C1_45 1_555 1_555
O2_45 Zr3_4 1_555 1_555
O3_45 Zr7_15 1_555 1_555
O4_45 Zr7_15 1_555 1_555
O22_34 Zr3_4 1_555 1_555
O6_45 Zr7_15 1_555 1_555
C1_45 C2_45 1_555 1_555
C2_45 H1_45 1_555 1_555
C3_45 C2_45 1_555 1_555
C4_45 O2_45 1_555 1_555
C5_45 S2_45 1_555 1_555
S4_45 C6_45 1_555 1_555
O14_16 C15_45 1_555 1_555
O19_22 C15_45 1_555 1_555
O23_34 Zr3_4 1_555 1_555
C6_45 C9_45 1_555 1_555
C9_45 H2_45 1_555 1_555
C12_45 S1_45 1_555 1_555
C15_45 C6_45 1_555 1_555
C18_45 C5_45 1_555 1_555
O4_45 C4_45 1_555 1_555
C1_45 C4_45 1_555 1_555
C3_45 C5_45 1_555 1_555
S4_45 C18_45 1_555 1_555
C9_45 C12_45 1_555 1_555
C12_45 C18_45 1_555 1_555
Zr3_7 O8_24 1_555 1_555
S1_46 C3_46 1_555 1_555
S2_46 C1_46 1_555 1_555
O2_46 Zr3_7 1_555 1_555
O3_46 Zr7_13 1_555 1_555
O4_46 Zr7_13 1_555 1_555
O22_35 Zr3_7 1_555 1_555
O6_46 Zr7_13 1_555 1_555
C1_46 C2_46 1_555 1_555
C2_46 H1_46 1_555 1_555
C3_46 C2_46 1_555 1_555
C4_46 O2_46 1_555 1_555
C5_46 S2_46 1_555 1_555
S4_46 C6_46 1_555 1_555
O14_13 C15_46 1_555 1_555
O19_23 C15_46 1_555 1_555
O23_35 Zr3_7 1_555 1_555
C6_46 C9_46 1_555 1_555
C9_46 H2_46 1_555 1_555
C12_46 S1_46 1_555 1_555
C15_46 C6_46 1_555 1_555
C18_46 C5_46 1_555 1_555
O4_46 C4_46 1_555 1_555
C1_46 C4_46 1_555 1_555
C3_46 C5_46 1_555 1_555
S4_46 C18_46 1_555 1_555
C9_46 C12_46 1_555 1_555
C12_46 C18_46 1_555 1_555
O22_36 Zr3_8 1_555 1_555
S3_46 C13_46 1_555 1_555
S5_46 C7_46 1_555 1_555
S6_46 C8_46 1_555 1_555
O9_24 Zr3_8 1_555 1_555
O11_46 Zr3_8 1_555 1_555
O13_3 C17_46 1_555 1_555
O15_46 Zr9_7 1_555 1_555
O17_46 Zr9_7 1_555 1_555
O20_21 C17_46 1_555 1_555
O23_36 Zr3_8 1_555 1_555
O24_46 Zr9_7 1_555 1_555
C7_46 C10_46 1_555 1_555
C8_46 C11_46 1_555 1_555
C10_46 H3_46 1_555 1_555
C11_46 H4_46 1_555 1_555
C13_46 C10_46 1_555 1_555
C14_46 S3_46 1_555 1_555
C16_46 O11_46 1_555 1_555
C17_46 C8_46 1_555 1_555
C19_46 S5_46 1_555 1_555
C20_46 S6_46 1_555 1_555
O17_46 C16_46 1_555 1_555
C7_46 C16_46 1_555 1_555
C11_46 C14_46 1_555 1_555
C13_46 C19_46 1_555 1_555
C14_46 C20_46 1_555 1_555
C19_46 C20_46 1_555 1_555
O22_29 Zr3_5 1_555 1_555
S3_47 C13_47 1_555 1_555
S5_47 C7_47 1_555 1_555
S6_47 C8_47 1_555 1_555
O9_21 Zr3_5 1_555 1_555
O11_47 Zr3_5 1_555 1_555
O13_4 C17_47 1_555 1_555
O15_47 Zr9_5 1_555 1_555
O17_47 Zr9_5 1_555 1_555
O20_22 C17_47 1_555 1_555
O23_29 Zr3_5 1_555 1_555
O24_47 Zr9_5 1_555 1_555
C7_47 C10_47 1_555 1_555
C8_47 C11_47 1_555 1_555
C10_47 H3_47 1_555 1_555
C11_47 H4_47 1_555 1_555
C13_47 C10_47 1_555 1_555
C14_47 S3_47 1_555 1_555
C16_47 O11_47 1_555 1_555
C17_47 C8_47 1_555 1_555
C19_47 S5_47 1_555 1_555
C20_47 S6_47 1_555 1_555
O17_47 C16_47 1_555 1_555
C7_47 C16_47 1_555 1_555
C11_47 C14_47 1_555 1_555
C13_47 C19_47 1_555 1_555
C14_47 C20_47 1_555 1_555
C19_47 C20_47 1_555 1_555
Zr3_6 O8_21 1_555 1_555
S1_47 C3_47 1_555 1_555
S2_47 C1_47 1_555 1_555
O2_47 Zr3_6 1_555 1_555
O3_47 Zr7_14 1_555 1_555
O4_47 Zr7_14 1_555 1_555
O22_30 Zr3_6 1_555 1_555
O6_47 Zr7_14 1_555 1_555
C1_47 C2_47 1_555 1_555
C2_47 H1_47 1_555 1_555
C3_47 C2_47 1_555 1_555
C4_47 O2_47 1_555 1_555
C5_47 S2_47 1_555 1_555
S4_47 C6_47 1_555 1_555
O14_15 C15_47 1_555 1_555
O19_21 C15_47 1_555 1_555
O23_30 Zr3_6 1_555 1_555
C6_47 C9_47 1_555 1_555
C9_47 H2_47 1_555 1_555
C12_47 S1_47 1_555 1_555
C15_47 C6_47 1_555 1_555
C18_47 C5_47 1_555 1_555
O4_47 C4_47 1_555 1_555
C1_47 C4_47 1_555 1_555
C3_47 C5_47 1_555 1_555
S4_47 C18_47 1_555 1_555
C9_47 C12_47 1_555 1_555
C12_47 C18_47 1_555 1_555
Zr3 O8_22 1_555 1_555
S1_48 C3_48 1_555 1_555
S2_48 C1_48 1_555 1_555
O2_48 Zr3 1_555 1_555
O3_48 Zr7_16 1_555 1_555
O4_48 Zr7_16 1_555 1_555
O22_31 Zr3 1_555 1_555
O6_48 Zr7_16 1_555 1_555
C1_48 C2_48 1_555 1_555
C2_48 H1_48 1_555 1_555
C3_48 C2_48 1_555 1_555
C4_48 O2_48 1_555 1_555
C5_48 S2_48 1_555 1_555
S4_48 C6_48 1_555 1_555
O14_14 C15_48 1_555 1_555
O19_24 C15_48 1_555 1_555
O23_31 Zr3 1_555 1_555
C6_48 C9_48 1_555 1_555
C9_48 H2_48 1_555 1_555
C12_48 S1_48 1_555 1_555
C15_48 C6_48 1_555 1_555
C18_48 C5_48 1_555 1_555
O4_48 C4_48 1_555 1_555
C1_48 C4_48 1_555 1_555
C3_48 C5_48 1_555 1_555
S4_48 C18_48 1_555 1_555
C9_48 C12_48 1_555 1_555
C12_48 C18_48 1_555 1_555
O22_32 Zr3_2 1_555 1_555
S3_48 C13_48 1_555 1_555
S5_48 C7_48 1_555 1_555
S6_48 C8_48 1_555 1_555
O9_22 Zr3_2 1_555 1_555
O11_48 Zr3_2 1_555 1_555
O13_2 C17_48 1_555 1_555
O15_48 Zr9_8 1_555 1_555
O17_48 Zr9_8 1_555 1_555
O20_24 C17_48 1_555 1_555
O23_32 Zr3_2 1_555 1_555
O24_48 Zr9_8 1_555 1_555
C7_48 C10_48 1_555 1_555
C8_48 C11_48 1_555 1_555
C10_48 H3_48 1_555 1_555
C11_48 H4_48 1_555 1_555
C13_48 C10_48 1_555 1_555
C14_48 S3_48 1_555 1_555
C16_48 O11_48 1_555 1_555
C17_48 C8_48 1_555 1_555
C19_48 S5_48 1_555 1_555
C20_48 S6_48 1_555 1_555
O17_48 C16_48 1_555 1_555
C7_48 C16_48 1_555 1_555
C11_48 C14_48 1_555 1_555
C13_48 C19_48 1_555 1_555
C14_48 C20_48 1_555 1_555
C19_48 C20_48 1_555 1_555

#END
