
###############################################################################
#
# This file contains modified crystal structure data generated from the
# MOF subset of the Cambridge Structural Database (CSD) v543 
# hosted by the Cambridge Crystallographic Data Centre (CCDC).
#
# This work is licensed under the Creative Commons
# Attribution-NonCommercial-ShareAlike 4.0 International License.
# To view a copy of this license, visit
# http://creativecommons.org/licenses/by-nc-sa/4.0/
# or send a letter to
# Creative Commons, PO Box 1866, Mountain View, CA 94042, USA.
#
# CIF created using the CSD Python API on 29 September 2022
# The structure has been converted into the P1 space group
# The structure has a 3D framework
# The original CSD entry VEGCAN is in the cubic crystal system
# The framework has been calculated to contain at least 10.0% void space
# The void calculation uses a probe of radius 1.32A, grid spacing 0.4
# H atom positions have been added when not included in the experimental data
# Generated hydrogen atom positions removed from atoms on special positions
#
###############################################################################

data_VEGCAN
_chemical_formula_moiety         '(C960 H1344 Hf168 O816 S288)n'
_symmetry_cell_setting           triclinic
_symmetry_space_group_name_H-M   'P 1'
_symmetry_Int_Tables_number      1
_space_group_name_Hall           'P 1'
loop_
_symmetry_equiv_pos_site_id
_symmetry_equiv_pos_as_xyz
1 x,y,z
_cell_length_a                   49.840(6)
_cell_length_b                   49.840(6)
_cell_length_c                   49.840(6)
_cell_angle_alpha                90
_cell_angle_beta                 90
_cell_angle_gamma                90
_cell_volume                     123804
loop_
_atom_site_label
_atom_site_type_symbol
_atom_site_fract_x
_atom_site_fract_y
_atom_site_fract_z
Hf1 Hf 0.215213(4) 0.5000 0.215213(4)
Hf2 Hf 0.225069(3) 0.464689(4) 0.274931(3)
S1 S 0.08896(7) 0.41104(7) 0.18539(7)
S2 S 0.14141(3) 0.41380(4) 0.25047(4)
O1 O 0.23303(8) 0.46503(14) 0.23303(8)
O2 O 0.18025(5) 0.47340(5) 0.21769(5)
O3 O 0.22690(10) 0.42154(9) 0.27310(10)
O4 O 0.18636(7) 0.45045(8) 0.25601(7)
O5 O 0.25755(9) 0.5000 0.20842(13)
O6 O 0.19434(7) 0.46658(16) 0.30566(7)
C1 C 0.15074(12) 0.43874(12) 0.22801(13)
C2 C 0.13430(14) 0.44060(13) 0.20691(14)
H1 H 0.1359 0.4535 0.1935
C3 C 0.11419(16) 0.42050(15) 0.20759(15)
C4 C 0.17426(9) 0.45565(9) 0.23446(10)
C5 C 0.11570(13) 0.40462(13) 0.22956(14)
Hf3 Hf -0.0000 0.284787(4) 0.215213(4)
Hf4 Hf 0.215213(4) 0.715213(4) 0.0000
Hf5 Hf 0.274931(3) 0.535311(4) 0.225069(3)
Hf6 Hf 0.274931(3) 0.464689(4) 0.225069(3)
Hf7 Hf 0.035311(4) 0.274931(3) 0.274931(3)
Hf8 Hf 0.225069(3) 0.535311(4) 0.274931(3)
Hf9 Hf 0.274931(3) 0.725069(3) 0.035311(4)
S3 S 0.18539(7) 0.58896(7) 0.08896(7)
S4 S 0.08620(4) 0.35859(3) 0.25047(4)
S5 S 0.25047(4) 0.58620(4) 0.14141(3)
S6 S 0.25047(4) 0.64141(3) 0.08620(4)
O7 O 0.23303(8) 0.53497(14) 0.23303(8)
O8 O 0.26697(8) 0.46503(14) 0.26697(8)
O9 O 0.26697(8) 0.53497(14) 0.26697(8)
O10 O 0.02660(5) 0.31975(5) 0.21769(5)
O11 O 0.21769(5) 0.52660(5) 0.18025(5)
O12 O 0.21769(5) 0.68025(5) 0.02660(5)
O13 O 0.18025(5) 0.52660(5) 0.21769(5)
O14 O 0.21769(5) 0.47340(5) 0.18025(5)
O15 O 0.27310(10) 0.57846(9) 0.22690(10)
O16 O 0.04955(8) 0.31364(7) 0.25601(7)
O17 O 0.25601(7) 0.54955(8) 0.18636(7)
O18 O 0.25601(7) 0.68636(7) 0.04955(8)
O19 O 0.24399(7) 0.45045(8) 0.31364(7)
O20 O 0.31364(7) 0.54955(8) 0.24399(7)
O21 O 0.20842(13) 0.5000 0.25755(9)
O22 O 0.24245(9) 0.5000 0.29158(13)
O23 O 0.29158(13) 0.5000 0.24245(9)
O24 O 0.30566(7) 0.53342(16) 0.19434(7)
C6 C 0.06126(12) 0.34926(12) 0.22801(13)
C7 C 0.22801(13) 0.56126(12) 0.15074(12)
C8 C 0.22801(13) 0.65074(12) 0.06126(12)
C9 C 0.05940(13) 0.36570(14) 0.20691(14)
C10 C 0.20691(14) 0.55940(13) 0.13430(14)
C11 C 0.20691(14) 0.63430(14) 0.05940(13)
H2 H 0.0465 0.3641 0.1935
H3 H 0.1935 0.5465 0.1359
H4 H 0.1935 0.6359 0.0465
C12 C 0.07950(15) 0.38581(16) 0.20759(15)
C13 C 0.20759(15) 0.57950(15) 0.11419(16)
C14 C 0.20759(15) 0.61419(16) 0.07950(15)
C15 C 0.04435(9) 0.32574(9) 0.23446(10)
C16 C 0.23446(10) 0.54435(9) 0.17426(9)
C17 C 0.23446(10) 0.67426(9) 0.04435(9)
C18 C 0.09538(13) 0.38430(13) 0.22956(14)
C19 C 0.22956(14) 0.59538(13) 0.11570(13)
C20 C 0.22956(14) 0.61570(13) 0.09538(13)
Hf4_2 Hf 0.215213(4) 0.715213(4) 1.0000
Hf3_2 Hf 1.0000 0.284787(4) 0.215213(4)
Hf1_2 Hf 0.5000 0.215213(4) 0.215213(4)
Hf2_2 Hf 0.535311(4) 0.225069(3) 0.274931(3)
S1_2 S 0.58896(7) 0.08896(7) 0.18539(7)
S2_2 S 0.58620(4) 0.14141(3) 0.25047(4)
O1_2 O 0.53497(14) 0.23303(8) 0.23303(8)
O2_2 O 0.52660(5) 0.18025(5) 0.21769(5)
O3_2 O 0.57846(9) 0.22690(10) 0.27310(10)
O4_2 O 0.54955(8) 0.18636(7) 0.25601(7)
O5_2 O 0.5000 0.25755(9) 0.20842(13)
O6_2 O 0.53342(16) 0.19434(7) 0.30566(7)
C1_2 C 0.56126(12) 0.15074(12) 0.22801(13)
C2_2 C 0.55940(13) 0.13430(14) 0.20691(14)
H1_2 H 0.5465 0.1359 0.1935
C3_2 C 0.57950(15) 0.11419(16) 0.20759(15)
C4_2 C 0.54435(9) 0.17426(9) 0.23446(10)
C5_2 C 0.59538(13) 0.11570(13) 0.22956(14)
Hf3_3 Hf 0.715213(4) -0.0000 0.215213(4)
Hf4_3 Hf 0.284787(4) 0.215213(4) 0.0000
Hf5_2 Hf 0.464689(4) 0.274931(3) 0.225069(3)
Hf6_2 Hf 0.535311(4) 0.274931(3) 0.225069(3)
Hf7_2 Hf 0.725069(3) 0.035311(4) 0.274931(3)
Hf8_2 Hf 0.464689(4) 0.225069(3) 0.274931(3)
Hf9_2 Hf 0.274931(3) 0.274931(3) 0.035311(4)
S3_2 S 0.41104(7) 0.18539(7) 0.08896(7)
S4_2 S 0.64141(3) 0.08620(4) 0.25047(4)
S5_2 S 0.41380(4) 0.25047(4) 0.14141(3)
S6_2 S 0.35859(3) 0.25047(4) 0.08620(4)
O7_2 O 0.46503(14) 0.23303(8) 0.23303(8)
O8_2 O 0.53497(14) 0.26697(8) 0.26697(8)
O9_2 O 0.46503(14) 0.26697(8) 0.26697(8)
O10_2 O 0.68025(5) 0.02660(5) 0.21769(5)
O11_2 O 0.47340(5) 0.21769(5) 0.18025(5)
O12_2 O 0.31975(5) 0.21769(5) 0.02660(5)
O13_2 O 0.47340(5) 0.18025(5) 0.21769(5)
O14_2 O 0.52660(5) 0.21769(5) 0.18025(5)
O15_2 O 0.42154(9) 0.27310(10) 0.22690(10)
O16_2 O 0.68636(7) 0.04955(8) 0.25601(7)
O17_2 O 0.45045(8) 0.25601(7) 0.18636(7)
O18_2 O 0.31364(7) 0.25601(7) 0.04955(8)
O19_2 O 0.54955(8) 0.24399(7) 0.31364(7)
O20_2 O 0.45045(8) 0.31364(7) 0.24399(7)
O21_2 O 0.5000 0.20842(13) 0.25755(9)
O22_2 O 0.5000 0.24245(9) 0.29158(13)
O23_2 O 0.5000 0.29158(13) 0.24245(9)
O24_2 O 0.46658(16) 0.30566(7) 0.19434(7)
C6_2 C 0.65074(12) 0.06126(12) 0.22801(13)
C7_2 C 0.43874(12) 0.22801(13) 0.15074(12)
C8_2 C 0.34926(12) 0.22801(13) 0.06126(12)
C9_2 C 0.63430(14) 0.05940(13) 0.20691(14)
C10_2 C 0.44060(13) 0.20691(14) 0.13430(14)
C11_2 C 0.36570(14) 0.20691(14) 0.05940(13)
H2_2 H 0.6359 0.0465 0.1935
H3_2 H 0.4535 0.1935 0.1359
H4_2 H 0.3641 0.1935 0.0465
C12_2 C 0.61419(16) 0.07950(15) 0.20759(15)
C13_2 C 0.42050(15) 0.20759(15) 0.11419(16)
C14_2 C 0.38581(16) 0.20759(15) 0.07950(15)
C15_2 C 0.67426(9) 0.04435(9) 0.23446(10)
C16_2 C 0.45565(9) 0.23446(10) 0.17426(9)
C17_2 C 0.32574(9) 0.23446(10) 0.04435(9)
C18_2 C 0.61570(13) 0.09538(13) 0.22956(14)
C19_2 C 0.40462(13) 0.22956(14) 0.11570(13)
C20_2 C 0.38430(13) 0.22956(14) 0.09538(13)
Hf4_4 Hf 0.284787(4) 0.215213(4) 1.0000
Hf3_4 Hf 0.715213(4) 1.0000 0.215213(4)
Hf3_5 Hf -0.0000 0.715213(4) 0.215213(4)
Hf1_3 Hf 0.784787(4) 0.5000 0.215213(4)
Hf2_3 Hf 0.774931(3) 0.535311(4) 0.274931(3)
S1_3 S 0.91104(7) 0.58896(7) 0.18539(7)
S2_3 S 0.85859(3) 0.58620(4) 0.25047(4)
O1_3 O 0.76697(8) 0.53497(14) 0.23303(8)
O2_3 O 0.81975(5) 0.52660(5) 0.21769(5)
O3_3 O 0.77310(10) 0.57846(9) 0.27310(10)
O4_3 O 0.81364(7) 0.54955(8) 0.25601(7)
O5_3 O 0.74245(9) 0.5000 0.20842(13)
O6_3 O 0.80566(7) 0.53342(16) 0.30566(7)
C1_3 C 0.84926(12) 0.56126(12) 0.22801(13)
C2_3 C 0.86570(14) 0.55940(13) 0.20691(14)
H1_3 H 0.8641 0.5465 0.1935
C3_3 C 0.88581(16) 0.57950(15) 0.20759(15)
C4_3 C 0.82574(9) 0.54435(9) 0.23446(10)
C5_3 C 0.88430(13) 0.59538(13) 0.22956(14)
Hf3_6 Hf 1.0000 0.715213(4) 0.215213(4)
Hf4_5 Hf 0.784787(4) 0.284787(4) 0.0000
Hf5_3 Hf 0.725069(3) 0.464689(4) 0.225069(3)
Hf6_3 Hf 0.725069(3) 0.535311(4) 0.225069(3)
Hf7_3 Hf 0.964689(4) 0.725069(3) 0.274931(3)
Hf8_3 Hf 0.774931(3) 0.464689(4) 0.274931(3)
Hf9_3 Hf 0.725069(3) 0.274931(3) 0.035311(4)
S3_3 S 0.81461(7) 0.41104(7) 0.08896(7)
S4_3 S 0.91380(4) 0.64141(3) 0.25047(4)
S5_3 S 0.74953(4) 0.41380(4) 0.14141(3)
S6_3 S 0.74953(4) 0.35859(3) 0.08620(4)
O7_3 O 0.76697(8) 0.46503(14) 0.23303(8)
O8_3 O 0.73303(8) 0.53497(14) 0.26697(8)
O9_3 O 0.73303(8) 0.46503(14) 0.26697(8)
O10_3 O 0.97340(5) 0.68025(5) 0.21769(5)
O11_3 O 0.78231(5) 0.47340(5) 0.18025(5)
O12_3 O 0.78231(5) 0.31975(5) 0.02660(5)
O13_3 O 0.81975(5) 0.47340(5) 0.21769(5)
O14_3 O 0.78231(5) 0.52660(5) 0.18025(5)
O15_3 O 0.72690(10) 0.42154(9) 0.22690(10)
O16_3 O 0.95045(8) 0.68636(7) 0.25601(7)
O17_3 O 0.74399(7) 0.45045(8) 0.18636(7)
O18_3 O 0.74399(7) 0.31364(7) 0.04955(8)
O19_3 O 0.75601(7) 0.54955(8) 0.31364(7)
O20_3 O 0.68636(7) 0.45045(8) 0.24399(7)
O21_3 O 0.79158(13) 0.5000 0.25755(9)
O22_3 O 0.75755(9) 0.5000 0.29158(13)
O23_3 O 0.70842(13) 0.5000 0.24245(9)
O24_3 O 0.69434(7) 0.46658(16) 0.19434(7)
C6_3 C 0.93874(12) 0.65074(12) 0.22801(13)
C7_3 C 0.77199(13) 0.43874(12) 0.15074(12)
C8_3 C 0.77199(13) 0.34926(12) 0.06126(12)
C9_3 C 0.94060(13) 0.63430(14) 0.20691(14)
C10_3 C 0.79309(14) 0.44060(13) 0.13430(14)
C11_3 C 0.79309(14) 0.36570(14) 0.05940(13)
H2_3 H 0.9535 0.6359 0.1935
H3_3 H 0.8065 0.4535 0.1359
H4_3 H 0.8065 0.3641 0.0465
C12_3 C 0.92050(15) 0.61419(16) 0.20759(15)
C13_3 C 0.79241(15) 0.42050(15) 0.11419(16)
C14_3 C 0.79241(15) 0.38581(16) 0.07950(15)
C15_3 C 0.95565(9) 0.67426(9) 0.23446(10)
C16_3 C 0.76554(10) 0.45565(9) 0.17426(9)
C17_3 C 0.76554(10) 0.32574(9) 0.04435(9)
C18_3 C 0.90462(13) 0.61570(13) 0.22956(14)
C19_3 C 0.77044(14) 0.40462(13) 0.11570(13)
C20_3 C 0.77044(14) 0.38430(13) 0.09538(13)
Hf4_6 Hf 0.784787(4) 0.284787(4) 1.0000
Hf3_7 Hf 0.284787(4) 0.0000 0.215213(4)
Hf1_4 Hf 0.5000 0.784787(4) 0.215213(4)
Hf2_4 Hf 0.464689(4) 0.774931(3) 0.274931(3)
S1_4 S 0.41104(7) 0.91104(7) 0.18539(7)
S2_4 S 0.41380(4) 0.85859(3) 0.25047(4)
O1_4 O 0.46503(14) 0.76697(8) 0.23303(8)
O2_4 O 0.47340(5) 0.81975(5) 0.21769(5)
O3_4 O 0.42154(9) 0.77310(10) 0.27310(10)
O4_4 O 0.45045(8) 0.81364(7) 0.25601(7)
O5_4 O 0.5000 0.74245(9) 0.20842(13)
O6_4 O 0.46658(16) 0.80566(7) 0.30566(7)
C1_4 C 0.43874(12) 0.84926(12) 0.22801(13)
C2_4 C 0.44060(13) 0.86570(14) 0.20691(14)
H1_4 H 0.4535 0.8641 0.1935
C3_4 C 0.42050(15) 0.88581(16) 0.20759(15)
C4_4 C 0.45565(9) 0.82574(9) 0.23446(10)
C5_4 C 0.40462(13) 0.88430(13) 0.22956(14)
Hf3_8 Hf 0.284787(4) 1.0000 0.215213(4)
Hf4_7 Hf 0.715213(4) 0.784787(4) 0.0000
Hf5_4 Hf 0.535311(4) 0.725069(3) 0.225069(3)
Hf6_4 Hf 0.464689(4) 0.725069(3) 0.225069(3)
Hf7_4 Hf 0.274931(3) 0.964689(4) 0.274931(3)
Hf8_4 Hf 0.535311(4) 0.774931(3) 0.274931(3)
Hf9_4 Hf 0.725069(3) 0.725069(3) 0.035311(4)
S3_4 S 0.58896(7) 0.81461(7) 0.08896(7)
S4_4 S 0.35859(3) 0.91380(4) 0.25047(4)
S5_4 S 0.58620(4) 0.74953(4) 0.14141(3)
S6_4 S 0.64141(3) 0.74953(4) 0.08620(4)
O7_4 O 0.53497(14) 0.76697(8) 0.23303(8)
O8_4 O 0.46503(14) 0.73303(8) 0.26697(8)
O9_4 O 0.53497(14) 0.73303(8) 0.26697(8)
O10_4 O 0.31975(5) 0.97340(5) 0.21769(5)
O11_4 O 0.52660(5) 0.78231(5) 0.18025(5)
O12_4 O 0.68025(5) 0.78231(5) 0.02660(5)
O13_4 O 0.52660(5) 0.81975(5) 0.21769(5)
O14_4 O 0.47340(5) 0.78231(5) 0.18025(5)
O15_4 O 0.57846(9) 0.72690(10) 0.22690(10)
O16_4 O 0.31364(7) 0.95045(8) 0.25601(7)
O17_4 O 0.54955(8) 0.74399(7) 0.18636(7)
O18_4 O 0.68636(7) 0.74399(7) 0.04955(8)
O19_4 O 0.45045(8) 0.75601(7) 0.31364(7)
O20_4 O 0.54955(8) 0.68636(7) 0.24399(7)
O21_4 O 0.5000 0.79158(13) 0.25755(9)
O22_4 O 0.5000 0.75755(9) 0.29158(13)
O23_4 O 0.5000 0.70842(13) 0.24245(9)
O24_4 O 0.53342(16) 0.69434(7) 0.19434(7)
C6_4 C 0.34926(12) 0.93874(12) 0.22801(13)
C7_4 C 0.56126(12) 0.77199(13) 0.15074(12)
C8_4 C 0.65074(12) 0.77199(13) 0.06126(12)
C9_4 C 0.36570(14) 0.94060(13) 0.20691(14)
C10_4 C 0.55940(13) 0.79309(14) 0.13430(14)
C11_4 C 0.63430(14) 0.79309(14) 0.05940(13)
H2_4 H 0.3641 0.9535 0.1935
H3_4 H 0.5465 0.8065 0.1359
H4_4 H 0.6359 0.8065 0.0465
C12_4 C 0.38581(16) 0.92050(15) 0.20759(15)
C13_4 C 0.57950(15) 0.79241(15) 0.11419(16)
C14_4 C 0.61419(16) 0.79241(15) 0.07950(15)
C15_4 C 0.32574(9) 0.95565(9) 0.23446(10)
C16_4 C 0.54435(9) 0.76554(10) 0.17426(9)
C17_4 C 0.67426(9) 0.76554(10) 0.04435(9)
C18_4 C 0.38430(13) 0.90462(13) 0.22956(14)
C19_4 C 0.59538(13) 0.77044(14) 0.11570(13)
C20_4 C 0.61570(13) 0.77044(14) 0.09538(13)
Hf4_8 Hf 0.715213(4) 0.784787(4) 1.0000
Hf4_9 Hf 0.215213(4) 0.284787(4) 0.0000
Hf1_5 Hf 0.215213(4) 0.5000 0.784787(4)
Hf2_5 Hf 0.225069(3) 0.535311(4) 0.725069(3)
S1_5 S 0.08896(7) 0.58896(7) 0.81461(7)
S2_5 S 0.14141(3) 0.58620(4) 0.74953(4)
O1_5 O 0.23303(8) 0.53497(14) 0.76697(8)
O2_5 O 0.18025(5) 0.52660(5) 0.78231(5)
O3_5 O 0.22690(10) 0.57846(9) 0.72690(10)
O4_5 O 0.18636(7) 0.54955(8) 0.74399(7)
O5_5 O 0.25755(9) 0.5000 0.79158(13)
O6_5 O 0.19434(7) 0.53342(16) 0.69434(7)
C1_5 C 0.15074(12) 0.56126(12) 0.77199(13)
C2_5 C 0.13430(14) 0.55940(13) 0.79309(14)
H1_5 H 0.1359 0.5465 0.8065
C3_5 C 0.11419(16) 0.57950(15) 0.79241(15)
C4_5 C 0.17426(9) 0.54435(9) 0.76554(10)
C5_5 C 0.11570(13) 0.59538(13) 0.77044(14)
Hf3_9 Hf 0.0000 0.715213(4) 0.784787(4)
Hf4_10 Hf 0.215213(4) 0.284787(4) 1.0000
Hf5_5 Hf 0.274931(3) 0.464689(4) 0.774931(3)
Hf6_5 Hf 0.274931(3) 0.535311(4) 0.774931(3)
Hf7_5 Hf 0.035311(4) 0.725069(3) 0.725069(3)
Hf8_5 Hf 0.225069(3) 0.464689(4) 0.725069(3)
Hf9_5 Hf 0.274931(3) 0.274931(3) 0.964689(4)
S3_5 S 0.18539(7) 0.41104(7) 0.91104(7)
S4_5 S 0.08620(4) 0.64141(3) 0.74953(4)
S5_5 S 0.25047(4) 0.41380(4) 0.85859(3)
S6_5 S 0.25047(4) 0.35859(3) 0.91380(4)
O7_5 O 0.23303(8) 0.46503(14) 0.76697(8)
O8_5 O 0.26697(8) 0.53497(14) 0.73303(8)
O9_5 O 0.26697(8) 0.46503(14) 0.73303(8)
O10_5 O 0.02660(5) 0.68025(5) 0.78231(5)
O11_5 O 0.21769(5) 0.47340(5) 0.81975(5)
O12_5 O 0.21769(5) 0.31975(5) 0.97340(5)
O13_5 O 0.18025(5) 0.47340(5) 0.78231(5)
O14_5 O 0.21769(5) 0.52660(5) 0.81975(5)
O15_5 O 0.27310(10) 0.42154(9) 0.77310(10)
O16_5 O 0.04955(8) 0.68636(7) 0.74399(7)
O17_5 O 0.25601(7) 0.45045(8) 0.81364(7)
O18_5 O 0.25601(7) 0.31364(7) 0.95045(8)
O19_5 O 0.24399(7) 0.54955(8) 0.68636(7)
O20_5 O 0.31364(7) 0.45045(8) 0.75601(7)
O21_5 O 0.20842(13) 0.5000 0.74245(9)
O22_5 O 0.24245(9) 0.5000 0.70842(13)
O23_5 O 0.29158(13) 0.5000 0.75755(9)
O24_5 O 0.30566(7) 0.46658(16) 0.80566(7)
C6_5 C 0.06126(12) 0.65074(12) 0.77199(13)
C7_5 C 0.22801(13) 0.43874(12) 0.84926(12)
C8_5 C 0.22801(13) 0.34926(12) 0.93874(12)
C9_5 C 0.05940(13) 0.63430(14) 0.79309(14)
C10_5 C 0.20691(14) 0.44060(13) 0.86570(14)
C11_5 C 0.20691(14) 0.36570(14) 0.94060(13)
H2_5 H 0.0465 0.6359 0.8065
H3_5 H 0.1935 0.4535 0.8641
H4_5 H 0.1935 0.3641 0.9535
C12_5 C 0.07950(15) 0.61419(16) 0.79241(15)
C13_5 C 0.20759(15) 0.42050(15) 0.88581(16)
C14_5 C 0.20759(15) 0.38581(16) 0.92050(15)
C15_5 C 0.04435(9) 0.67426(9) 0.76554(10)
C16_5 C 0.23446(10) 0.45565(9) 0.82574(9)
C17_5 C 0.23446(10) 0.32574(9) 0.95565(9)
C18_5 C 0.09538(13) 0.61570(13) 0.77044(14)
C19_5 C 0.22956(14) 0.40462(13) 0.88430(13)
C20_5 C 0.22956(14) 0.38430(13) 0.90462(13)
Hf3_10 Hf 1.0000 0.715213(4) 0.784787(4)
Hf4_11 Hf 0.715213(4) 0.215213(4) 0.0000
Hf1_6 Hf 0.5000 0.215213(4) 0.784787(4)
Hf2_6 Hf 0.464689(4) 0.225069(3) 0.725069(3)
S1_6 S 0.41104(7) 0.08896(7) 0.81461(7)
S2_6 S 0.41380(4) 0.14141(3) 0.74953(4)
O1_6 O 0.46503(14) 0.23303(8) 0.76697(8)
O2_6 O 0.47340(5) 0.18025(5) 0.78231(5)
O3_6 O 0.42154(9) 0.22690(10) 0.72690(10)
O4_6 O 0.45045(8) 0.18636(7) 0.74399(7)
O5_6 O 0.5000 0.25755(9) 0.79158(13)
O6_6 O 0.46658(16) 0.19434(7) 0.69434(7)
C1_6 C 0.43874(12) 0.15074(12) 0.77199(13)
C2_6 C 0.44060(13) 0.13430(14) 0.79309(14)
H1_6 H 0.4535 0.1359 0.8065
C3_6 C 0.42050(15) 0.11419(16) 0.79241(15)
C4_6 C 0.45565(9) 0.17426(9) 0.76554(10)
C5_6 C 0.40462(13) 0.11570(13) 0.77044(14)
Hf3_11 Hf 0.284787(4) 0.0000 0.784787(4)
Hf4_12 Hf 0.715213(4) 0.215213(4) 1.0000
Hf5_6 Hf 0.535311(4) 0.274931(3) 0.774931(3)
Hf6_6 Hf 0.464689(4) 0.274931(3) 0.774931(3)
Hf7_6 Hf 0.274931(3) 0.035311(4) 0.725069(3)
Hf8_6 Hf 0.535311(4) 0.225069(3) 0.725069(3)
Hf9_6 Hf 0.725069(3) 0.274931(3) 0.964689(4)
S3_6 S 0.58896(7) 0.18539(7) 0.91104(7)
S4_6 S 0.35859(3) 0.08620(4) 0.74953(4)
S5_6 S 0.58620(4) 0.25047(4) 0.85859(3)
S6_6 S 0.64141(3) 0.25047(4) 0.91380(4)
O7_6 O 0.53497(14) 0.23303(8) 0.76697(8)
O8_6 O 0.46503(14) 0.26697(8) 0.73303(8)
O9_6 O 0.53497(14) 0.26697(8) 0.73303(8)
O10_6 O 0.31975(5) 0.02660(5) 0.78231(5)
O11_6 O 0.52660(5) 0.21769(5) 0.81975(5)
O12_6 O 0.68025(5) 0.21769(5) 0.97340(5)
O13_6 O 0.52660(5) 0.18025(5) 0.78231(5)
O14_6 O 0.47340(5) 0.21769(5) 0.81975(5)
O15_6 O 0.57846(9) 0.27310(10) 0.77310(10)
O16_6 O 0.31364(7) 0.04955(8) 0.74399(7)
O17_6 O 0.54955(8) 0.25601(7) 0.81364(7)
O18_6 O 0.68636(7) 0.25601(7) 0.95045(8)
O19_6 O 0.45045(8) 0.24399(7) 0.68636(7)
O20_6 O 0.54955(8) 0.31364(7) 0.75601(7)
O21_6 O 0.5000 0.20842(13) 0.74245(9)
O22_6 O 0.5000 0.24245(9) 0.70842(13)
O23_6 O 0.5000 0.29158(13) 0.75755(9)
O24_6 O 0.53342(16) 0.30566(7) 0.80566(7)
C6_6 C 0.34926(12) 0.06126(12) 0.77199(13)
C7_6 C 0.56126(12) 0.22801(13) 0.84926(12)
C8_6 C 0.65074(12) 0.22801(13) 0.93874(12)
C9_6 C 0.36570(14) 0.05940(13) 0.79309(14)
C10_6 C 0.55940(13) 0.20691(14) 0.86570(14)
C11_6 C 0.63430(14) 0.20691(14) 0.94060(13)
H2_6 H 0.3641 0.0465 0.8065
H3_6 H 0.5465 0.1935 0.8641
H4_6 H 0.6359 0.1935 0.9535
C12_6 C 0.38581(16) 0.07950(15) 0.79241(15)
C13_6 C 0.57950(15) 0.20759(15) 0.88581(16)
C14_6 C 0.61419(16) 0.20759(15) 0.92050(15)
C15_6 C 0.32574(9) 0.04435(9) 0.76554(10)
C16_6 C 0.54435(9) 0.23446(10) 0.82574(9)
C17_6 C 0.67426(9) 0.23446(10) 0.95565(9)
C18_6 C 0.38430(13) 0.09538(13) 0.77044(14)
C19_6 C 0.59538(13) 0.22956(14) 0.88430(13)
C20_6 C 0.61570(13) 0.22956(14) 0.90462(13)
Hf3_12 Hf 0.284787(4) 1.0000 0.784787(4)
Hf3_13 Hf 0.0000 0.284787(4) 0.784787(4)
Hf4_13 Hf 0.784787(4) 0.715213(4) 0.0000
Hf1_7 Hf 0.784787(4) 0.5000 0.784787(4)
Hf2_7 Hf 0.774931(3) 0.464689(4) 0.725069(3)
S1_7 S 0.91104(7) 0.41104(7) 0.81461(7)
S2_7 S 0.85859(3) 0.41380(4) 0.74953(4)
O1_7 O 0.76697(8) 0.46503(14) 0.76697(8)
O2_7 O 0.81975(5) 0.47340(5) 0.78231(5)
O3_7 O 0.77310(10) 0.42154(9) 0.72690(10)
O4_7 O 0.81364(7) 0.45045(8) 0.74399(7)
O5_7 O 0.74245(9) 0.5000 0.79158(13)
O6_7 O 0.80566(7) 0.46658(16) 0.69434(7)
C1_7 C 0.84926(12) 0.43874(12) 0.77199(13)
C2_7 C 0.86570(14) 0.44060(13) 0.79309(14)
H1_7 H 0.8641 0.4535 0.8065
C3_7 C 0.88581(16) 0.42050(15) 0.79241(15)
C4_7 C 0.82574(9) 0.45565(9) 0.76554(10)
C5_7 C 0.88430(13) 0.40462(13) 0.77044(14)
Hf3_14 Hf 1.0000 0.284787(4) 0.784787(4)
Hf4_14 Hf 0.784787(4) 0.715213(4) 1.0000
Hf5_7 Hf 0.725069(3) 0.535311(4) 0.774931(3)
Hf6_7 Hf 0.725069(3) 0.464689(4) 0.774931(3)
Hf7_7 Hf 0.964689(4) 0.274931(3) 0.725069(3)
Hf8_7 Hf 0.774931(3) 0.535311(4) 0.725069(3)
Hf9_7 Hf 0.725069(3) 0.725069(3) 0.964689(4)
S3_7 S 0.81461(7) 0.58896(7) 0.91104(7)
S4_7 S 0.91380(4) 0.35859(3) 0.74953(4)
S5_7 S 0.74953(4) 0.58620(4) 0.85859(3)
S6_7 S 0.74953(4) 0.64141(3) 0.91380(4)
O7_7 O 0.76697(8) 0.53497(14) 0.76697(8)
O8_7 O 0.73303(8) 0.46503(14) 0.73303(8)
O9_7 O 0.73303(8) 0.53497(14) 0.73303(8)
O10_7 O 0.97340(5) 0.31975(5) 0.78231(5)
O11_7 O 0.78231(5) 0.52660(5) 0.81975(5)
O12_7 O 0.78231(5) 0.68025(5) 0.97340(5)
O13_7 O 0.81975(5) 0.52660(5) 0.78231(5)
O14_7 O 0.78231(5) 0.47340(5) 0.81975(5)
O15_7 O 0.72690(10) 0.57846(9) 0.77310(10)
O16_7 O 0.95045(8) 0.31364(7) 0.74399(7)
O17_7 O 0.74399(7) 0.54955(8) 0.81364(7)
O18_7 O 0.74399(7) 0.68636(7) 0.95045(8)
O19_7 O 0.75601(7) 0.45045(8) 0.68636(7)
O20_7 O 0.68636(7) 0.54955(8) 0.75601(7)
O21_7 O 0.79158(13) 0.5000 0.74245(9)
O22_7 O 0.75755(9) 0.5000 0.70842(13)
O23_7 O 0.70842(13) 0.5000 0.75755(9)
O24_7 O 0.69434(7) 0.53342(16) 0.80566(7)
C6_7 C 0.93874(12) 0.34926(12) 0.77199(13)
C7_7 C 0.77199(13) 0.56126(12) 0.84926(12)
C8_7 C 0.77199(13) 0.65074(12) 0.93874(12)
C9_7 C 0.94060(13) 0.36570(14) 0.79309(14)
C10_7 C 0.79309(14) 0.55940(13) 0.86570(14)
C11_7 C 0.79309(14) 0.63430(14) 0.94060(13)
H2_7 H 0.9535 0.3641 0.8065
H3_7 H 0.8065 0.5465 0.8641
H4_7 H 0.8065 0.6359 0.9535
C12_7 C 0.92050(15) 0.38581(16) 0.79241(15)
C13_7 C 0.79241(15) 0.57950(15) 0.88581(16)
C14_7 C 0.79241(15) 0.61419(16) 0.92050(15)
C15_7 C 0.95565(9) 0.32574(9) 0.76554(10)
C16_7 C 0.76554(10) 0.54435(9) 0.82574(9)
C17_7 C 0.76554(10) 0.67426(9) 0.95565(9)
C18_7 C 0.90462(13) 0.38430(13) 0.77044(14)
C19_7 C 0.77044(14) 0.59538(13) 0.88430(13)
C20_7 C 0.77044(14) 0.61570(13) 0.90462(13)
Hf3_15 Hf 0.715213(4) 0.0000 0.784787(4)
Hf4_15 Hf 0.284787(4) 0.784787(4) 0.0000
Hf1_8 Hf 0.5000 0.784787(4) 0.784787(4)
Hf2_8 Hf 0.535311(4) 0.774931(3) 0.725069(3)
S1_8 S 0.58896(7) 0.91104(7) 0.81461(7)
S2_8 S 0.58620(4) 0.85859(3) 0.74953(4)
O1_8 O 0.53497(14) 0.76697(8) 0.76697(8)
O2_8 O 0.52660(5) 0.81975(5) 0.78231(5)
O3_8 O 0.57846(9) 0.77310(10) 0.72690(10)
O4_8 O 0.54955(8) 0.81364(7) 0.74399(7)
O5_8 O 0.5000 0.74245(9) 0.79158(13)
O6_8 O 0.53342(16) 0.80566(7) 0.69434(7)
C1_8 C 0.56126(12) 0.84926(12) 0.77199(13)
C2_8 C 0.55940(13) 0.86570(14) 0.79309(14)
H1_8 H 0.5465 0.8641 0.8065
C3_8 C 0.57950(15) 0.88581(16) 0.79241(15)
C4_8 C 0.54435(9) 0.82574(9) 0.76554(10)
C5_8 C 0.59538(13) 0.88430(13) 0.77044(14)
Hf3_16 Hf 0.715213(4) 1.0000 0.784787(4)
Hf4_16 Hf 0.284787(4) 0.784787(4) 1.0000
Hf5_8 Hf 0.464689(4) 0.725069(3) 0.774931(3)
Hf6_8 Hf 0.535311(4) 0.725069(3) 0.774931(3)
Hf7_8 Hf 0.725069(3) 0.964689(4) 0.725069(3)
Hf8_8 Hf 0.464689(4) 0.774931(3) 0.725069(3)
Hf9_8 Hf 0.274931(3) 0.725069(3) 0.964689(4)
S3_8 S 0.41104(7) 0.81461(7) 0.91104(7)
S4_8 S 0.64141(3) 0.91380(4) 0.74953(4)
S5_8 S 0.41380(4) 0.74953(4) 0.85859(3)
S6_8 S 0.35859(3) 0.74953(4) 0.91380(4)
O7_8 O 0.46503(14) 0.76697(8) 0.76697(8)
O8_8 O 0.53497(14) 0.73303(8) 0.73303(8)
O9_8 O 0.46503(14) 0.73303(8) 0.73303(8)
O10_8 O 0.68025(5) 0.97340(5) 0.78231(5)
O11_8 O 0.47340(5) 0.78231(5) 0.81975(5)
O12_8 O 0.31975(5) 0.78231(5) 0.97340(5)
O13_8 O 0.47340(5) 0.81975(5) 0.78231(5)
O14_8 O 0.52660(5) 0.78231(5) 0.81975(5)
O15_8 O 0.42154(9) 0.72690(10) 0.77310(10)
O16_8 O 0.68636(7) 0.95045(8) 0.74399(7)
O17_8 O 0.45045(8) 0.74399(7) 0.81364(7)
O18_8 O 0.31364(7) 0.74399(7) 0.95045(8)
O19_8 O 0.54955(8) 0.75601(7) 0.68636(7)
O20_8 O 0.45045(8) 0.68636(7) 0.75601(7)
O21_8 O 0.5000 0.79158(13) 0.74245(9)
O22_8 O 0.5000 0.75755(9) 0.70842(13)
O23_8 O 0.5000 0.70842(13) 0.75755(9)
O24_8 O 0.46658(16) 0.69434(7) 0.80566(7)
C6_8 C 0.65074(12) 0.93874(12) 0.77199(13)
C7_8 C 0.43874(12) 0.77199(13) 0.84926(12)
C8_8 C 0.34926(12) 0.77199(13) 0.93874(12)
C9_8 C 0.63430(14) 0.94060(13) 0.79309(14)
C10_8 C 0.44060(13) 0.79309(14) 0.86570(14)
C11_8 C 0.36570(14) 0.79309(14) 0.94060(13)
H2_8 H 0.6359 0.9535 0.8065
H3_8 H 0.4535 0.8065 0.8641
H4_8 H 0.3641 0.8065 0.9535
C12_8 C 0.61419(16) 0.92050(15) 0.79241(15)
C13_8 C 0.42050(15) 0.79241(15) 0.88581(16)
C14_8 C 0.38581(16) 0.79241(15) 0.92050(15)
C15_8 C 0.67426(9) 0.95565(9) 0.76554(10)
C16_8 C 0.45565(9) 0.76554(10) 0.82574(9)
C17_8 C 0.32574(9) 0.76554(10) 0.95565(9)
C18_8 C 0.61570(13) 0.90462(13) 0.77044(14)
C19_8 C 0.40462(13) 0.77044(14) 0.88430(13)
C20_8 C 0.38430(13) 0.77044(14) 0.90462(13)
Hf1_9 Hf 0.215213(4) 0.215213(4) 0.5000
Hf2_9 Hf 0.274931(3) 0.225069(3) 0.464689(4)
S1_9 S 0.18539(7) 0.08896(7) 0.41104(7)
S2_9 S 0.25047(4) 0.14141(3) 0.41380(4)
O1_9 O 0.23303(8) 0.23303(8) 0.46503(14)
O2_9 O 0.21769(5) 0.18025(5) 0.47340(5)
O3_9 O 0.27310(10) 0.22690(10) 0.42154(9)
O4_9 O 0.25601(7) 0.18636(7) 0.45045(8)
O5_9 O 0.20842(13) 0.25755(9) 0.5000
O6_9 O 0.30566(7) 0.19434(7) 0.46658(16)
C1_9 C 0.22801(13) 0.15074(12) 0.43874(12)
C2_9 C 0.20691(14) 0.13430(14) 0.44060(13)
H1_9 H 0.1935 0.1359 0.4535
C3_9 C 0.20759(15) 0.11419(16) 0.42050(15)
C4_9 C 0.23446(10) 0.17426(9) 0.45565(9)
C5_9 C 0.22956(14) 0.11570(13) 0.40462(13)
Hf3_17 Hf 0.215213(4) -0.0000 0.284787(4)
Hf4_17 Hf -0.0000 0.215213(4) 0.715213(4)
Hf5_9 Hf 0.225069(3) 0.274931(3) 0.535311(4)
Hf6_9 Hf 0.225069(3) 0.274931(3) 0.464689(4)
Hf7_9 Hf 0.274931(3) 0.035311(4) 0.274931(3)
Hf8_9 Hf 0.274931(3) 0.225069(3) 0.535311(4)
Hf9_9 Hf 0.035311(4) 0.274931(3) 0.725069(3)
S3_9 S 0.08896(7) 0.18539(7) 0.58896(7)
S4_9 S 0.25047(4) 0.08620(4) 0.35859(3)
S5_9 S 0.14141(3) 0.25047(4) 0.58620(4)
S6_9 S 0.08620(4) 0.25047(4) 0.64141(3)
O7_9 O 0.23303(8) 0.23303(8) 0.53497(14)
O8_9 O 0.26697(8) 0.26697(8) 0.46503(14)
O9_9 O 0.26697(8) 0.26697(8) 0.53497(14)
O10_9 O 0.21769(5) 0.02660(5) 0.31975(5)
O11_9 O 0.18025(5) 0.21769(5) 0.52660(5)
O12_9 O 0.02660(5) 0.21769(5) 0.68025(5)
O13_9 O 0.21769(5) 0.18025(5) 0.52660(5)
O14_9 O 0.18025(5) 0.21769(5) 0.47340(5)
O15_9 O 0.22690(10) 0.27310(10) 0.57846(9)
O16_9 O 0.25601(7) 0.04955(8) 0.31364(7)
O17_9 O 0.18636(7) 0.25601(7) 0.54955(8)
O18_9 O 0.04955(8) 0.25601(7) 0.68636(7)
O19_9 O 0.31364(7) 0.24399(7) 0.45045(8)
O20_9 O 0.24399(7) 0.31364(7) 0.54955(8)
O21_9 O 0.25755(9) 0.20842(13) 0.5000
O22_9 O 0.29158(13) 0.24245(9) 0.5000
O23_9 O 0.24245(9) 0.29158(13) 0.5000
O24_9 O 0.19434(7) 0.30566(7) 0.53342(16)
C6_9 C 0.22801(13) 0.06126(12) 0.34926(12)
C7_9 C 0.15074(12) 0.22801(13) 0.56126(12)
C8_9 C 0.06126(12) 0.22801(13) 0.65074(12)
C9_9 C 0.20691(14) 0.05940(13) 0.36570(14)
C10_9 C 0.13430(14) 0.20691(14) 0.55940(13)
C11_9 C 0.05940(13) 0.20691(14) 0.63430(14)
H2_9 H 0.1935 0.0465 0.3641
H3_9 H 0.1359 0.1935 0.5465
H4_9 H 0.0465 0.1935 0.6359
C12_9 C 0.20759(15) 0.07950(15) 0.38581(16)
C13_9 C 0.11419(16) 0.20759(15) 0.57950(15)
C14_9 C 0.07950(15) 0.20759(15) 0.61419(16)
C15_9 C 0.23446(10) 0.04435(9) 0.32574(9)
C16_9 C 0.17426(9) 0.23446(10) 0.54435(9)
C17_9 C 0.04435(9) 0.23446(10) 0.67426(9)
C18_9 C 0.22956(14) 0.09538(13) 0.38430(13)
C19_9 C 0.11570(13) 0.22956(14) 0.59538(13)
C20_9 C 0.09538(13) 0.22956(14) 0.61570(13)
Hf3_18 Hf 0.215213(4) 1.0000 0.284787(4)
Hf4_18 Hf 1.0000 0.215213(4) 0.715213(4)
Hf3_19 Hf 0.0000 0.215213(4) 0.284787(4)
Hf1_10 Hf 0.784787(4) 0.215213(4) 0.5000
Hf2_10 Hf 0.774931(3) 0.274931(3) 0.464689(4)
S1_10 S 0.91104(7) 0.18539(7) 0.41104(7)
S2_10 S 0.85859(3) 0.25047(4) 0.41380(4)
O1_10 O 0.76697(8) 0.23303(8) 0.46503(14)
O2_10 O 0.81975(5) 0.21769(5) 0.47340(5)
O3_10 O 0.77310(10) 0.27310(10) 0.42154(9)
O4_10 O 0.81364(7) 0.25601(7) 0.45045(8)
O5_10 O 0.74245(9) 0.20842(13) 0.5000
O6_10 O 0.80566(7) 0.30566(7) 0.46658(16)
C1_10 C 0.84926(12) 0.22801(13) 0.43874(12)
C2_10 C 0.86570(14) 0.20691(14) 0.44060(13)
H1_10 H 0.8641 0.1935 0.4535
C3_10 C 0.88581(16) 0.20759(15) 0.42050(15)
C4_10 C 0.82574(9) 0.23446(10) 0.45565(9)
C5_10 C 0.88430(13) 0.22956(14) 0.40462(13)
Hf3_20 Hf 1.0000 0.215213(4) 0.284787(4)
Hf4_19 Hf 0.784787(4) -0.0000 0.715213(4)
Hf5_10 Hf 0.725069(3) 0.225069(3) 0.535311(4)
Hf6_10 Hf 0.725069(3) 0.225069(3) 0.464689(4)
Hf7_10 Hf 0.964689(4) 0.274931(3) 0.274931(3)
Hf8_10 Hf 0.774931(3) 0.274931(3) 0.535311(4)
Hf9_10 Hf 0.725069(3) 0.035311(4) 0.725069(3)
S3_10 S 0.81461(7) 0.08896(7) 0.58896(7)
S4_10 S 0.91380(4) 0.25047(4) 0.35859(3)
S5_10 S 0.74953(4) 0.14141(3) 0.58620(4)
S6_10 S 0.74953(4) 0.08620(4) 0.64141(3)
O7_10 O 0.76697(8) 0.23303(8) 0.53497(14)
O8_10 O 0.73303(8) 0.26697(8) 0.46503(14)
O9_10 O 0.73303(8) 0.26697(8) 0.53497(14)
O10_10 O 0.97340(5) 0.21769(5) 0.31975(5)
O11_10 O 0.78231(5) 0.18025(5) 0.52660(5)
O12_10 O 0.78231(5) 0.02660(5) 0.68025(5)
O13_10 O 0.81975(5) 0.21769(5) 0.52660(5)
O14_10 O 0.78231(5) 0.18025(5) 0.47340(5)
O15_10 O 0.72690(10) 0.22690(10) 0.57846(9)
O16_10 O 0.95045(8) 0.25601(7) 0.31364(7)
O17_10 O 0.74399(7) 0.18636(7) 0.54955(8)
O18_10 O 0.74399(7) 0.04955(8) 0.68636(7)
O19_10 O 0.75601(7) 0.31364(7) 0.45045(8)
O20_10 O 0.68636(7) 0.24399(7) 0.54955(8)
O21_10 O 0.79158(13) 0.25755(9) 0.5000
O22_10 O 0.75755(9) 0.29158(13) 0.5000
O23_10 O 0.70842(13) 0.24245(9) 0.5000
O24_10 O 0.69434(7) 0.19434(7) 0.53342(16)
C6_10 C 0.93874(12) 0.22801(13) 0.34926(12)
C7_10 C 0.77199(13) 0.15074(12) 0.56126(12)
C8_10 C 0.77199(13) 0.06126(12) 0.65074(12)
C9_10 C 0.94060(13) 0.20691(14) 0.36570(14)
C10_10 C 0.79309(14) 0.13430(14) 0.55940(13)
C11_10 C 0.79309(14) 0.05940(13) 0.63430(14)
H2_10 H 0.9535 0.1935 0.3641
H3_10 H 0.8065 0.1359 0.5465
H4_10 H 0.8065 0.0465 0.6359
C12_10 C 0.92050(15) 0.20759(15) 0.38581(16)
C13_10 C 0.79241(15) 0.11419(16) 0.57950(15)
C14_10 C 0.79241(15) 0.07950(15) 0.61419(16)
C15_10 C 0.95565(9) 0.23446(10) 0.32574(9)
C16_10 C 0.76554(10) 0.17426(9) 0.54435(9)
C17_10 C 0.76554(10) 0.04435(9) 0.67426(9)
C18_10 C 0.90462(13) 0.22956(14) 0.38430(13)
C19_10 C 0.77044(14) 0.11570(13) 0.59538(13)
C20_10 C 0.77044(14) 0.09538(13) 0.61570(13)
Hf4_20 Hf 0.784787(4) 1.0000 0.715213(4)
Hf4_21 Hf -0.0000 0.784787(4) 0.715213(4)
Hf3_21 Hf 0.784787(4) 0.0000 0.284787(4)
Hf1_11 Hf 0.784787(4) 0.784787(4) 0.5000
Hf2_11 Hf 0.725069(3) 0.774931(3) 0.464689(4)
S1_11 S 0.81461(7) 0.91104(7) 0.41104(7)
S2_11 S 0.74953(4) 0.85859(3) 0.41380(4)
O1_11 O 0.76697(8) 0.76697(8) 0.46503(14)
O2_11 O 0.78231(5) 0.81975(5) 0.47340(5)
O3_11 O 0.72690(10) 0.77310(10) 0.42154(9)
O4_11 O 0.74399(7) 0.81364(7) 0.45045(8)
O5_11 O 0.79158(13) 0.74245(9) 0.5000
O6_11 O 0.69434(7) 0.80566(7) 0.46658(16)
C1_11 C 0.77199(13) 0.84926(12) 0.43874(12)
C2_11 C 0.79309(14) 0.86570(14) 0.44060(13)
H1_11 H 0.8065 0.8641 0.4535
C3_11 C 0.79241(15) 0.88581(16) 0.42050(15)
C4_11 C 0.76554(10) 0.82574(9) 0.45565(9)
C5_11 C 0.77044(14) 0.88430(13) 0.40462(13)
Hf3_22 Hf 0.784787(4) 1.0000 0.284787(4)
Hf4_22 Hf 1.0000 0.784787(4) 0.715213(4)
Hf5_11 Hf 0.774931(3) 0.725069(3) 0.535311(4)
Hf6_11 Hf 0.774931(3) 0.725069(3) 0.464689(4)
Hf7_11 Hf 0.725069(3) 0.964689(4) 0.274931(3)
Hf8_11 Hf 0.725069(3) 0.774931(3) 0.535311(4)
Hf9_11 Hf 0.964689(4) 0.725069(3) 0.725069(3)
S3_11 S 0.91104(7) 0.81461(7) 0.58896(7)
S4_11 S 0.74953(4) 0.91380(4) 0.35859(3)
S5_11 S 0.85859(3) 0.74953(4) 0.58620(4)
S6_11 S 0.91380(4) 0.74953(4) 0.64141(3)
O7_11 O 0.76697(8) 0.76697(8) 0.53497(14)
O8_11 O 0.73303(8) 0.73303(8) 0.46503(14)
O9_11 O 0.73303(8) 0.73303(8) 0.53497(14)
O10_11 O 0.78231(5) 0.97340(5) 0.31975(5)
O11_11 O 0.81975(5) 0.78231(5) 0.52660(5)
O12_11 O 0.97340(5) 0.78231(5) 0.68025(5)
O13_11 O 0.78231(5) 0.81975(5) 0.52660(5)
O14_11 O 0.81975(5) 0.78231(5) 0.47340(5)
O15_11 O 0.77310(10) 0.72690(10) 0.57846(9)
O16_11 O 0.74399(7) 0.95045(8) 0.31364(7)
O17_11 O 0.81364(7) 0.74399(7) 0.54955(8)
O18_11 O 0.95045(8) 0.74399(7) 0.68636(7)
O19_11 O 0.68636(7) 0.75601(7) 0.45045(8)
O20_11 O 0.75601(7) 0.68636(7) 0.54955(8)
O21_11 O 0.74245(9) 0.79158(13) 0.5000
O22_11 O 0.70842(13) 0.75755(9) 0.5000
O23_11 O 0.75755(9) 0.70842(13) 0.5000
O24_11 O 0.80566(7) 0.69434(7) 0.53342(16)
C6_11 C 0.77199(13) 0.93874(12) 0.34926(12)
C7_11 C 0.84926(12) 0.77199(13) 0.56126(12)
C8_11 C 0.93874(12) 0.77199(13) 0.65074(12)
C9_11 C 0.79309(14) 0.94060(13) 0.36570(14)
C10_11 C 0.86570(14) 0.79309(14) 0.55940(13)
C11_11 C 0.94060(13) 0.79309(14) 0.63430(14)
H2_11 H 0.8065 0.9535 0.3641
H3_11 H 0.8641 0.8065 0.5465
H4_11 H 0.9535 0.8065 0.6359
C12_11 C 0.79241(15) 0.92050(15) 0.38581(16)
C13_11 C 0.88581(16) 0.79241(15) 0.57950(15)
C14_11 C 0.92050(15) 0.79241(15) 0.61419(16)
C15_11 C 0.76554(10) 0.95565(9) 0.32574(9)
C16_11 C 0.82574(9) 0.76554(10) 0.54435(9)
C17_11 C 0.95565(9) 0.76554(10) 0.67426(9)
C18_11 C 0.77044(14) 0.90462(13) 0.38430(13)
C19_11 C 0.88430(13) 0.77044(14) 0.59538(13)
C20_11 C 0.90462(13) 0.77044(14) 0.61570(13)
Hf4_23 Hf 0.215213(4) -0.0000 0.715213(4)
Hf1_12 Hf 0.215213(4) 0.784787(4) 0.5000
Hf2_12 Hf 0.225069(3) 0.725069(3) 0.464689(4)
S1_12 S 0.08896(7) 0.81461(7) 0.41104(7)
S2_12 S 0.14141(3) 0.74953(4) 0.41380(4)
O1_12 O 0.23303(8) 0.76697(8) 0.46503(14)
O2_12 O 0.18025(5) 0.78231(5) 0.47340(5)
O3_12 O 0.22690(10) 0.72690(10) 0.42154(9)
O4_12 O 0.18636(7) 0.74399(7) 0.45045(8)
O5_12 O 0.25755(9) 0.79158(13) 0.5000
O6_12 O 0.19434(7) 0.69434(7) 0.46658(16)
C1_12 C 0.15074(12) 0.77199(13) 0.43874(12)
C2_12 C 0.13430(14) 0.79309(14) 0.44060(13)
H1_12 H 0.1359 0.8065 0.4535
C3_12 C 0.11419(16) 0.79241(15) 0.42050(15)
C4_12 C 0.17426(9) 0.76554(10) 0.45565(9)
C5_12 C 0.11570(13) 0.77044(14) 0.40462(13)
Hf3_23 Hf 0.0000 0.784787(4) 0.284787(4)
Hf4_24 Hf 0.215213(4) 1.0000 0.715213(4)
Hf5_12 Hf 0.274931(3) 0.774931(3) 0.535311(4)
Hf6_12 Hf 0.274931(3) 0.774931(3) 0.464689(4)
Hf7_12 Hf 0.035311(4) 0.725069(3) 0.274931(3)
Hf8_12 Hf 0.225069(3) 0.725069(3) 0.535311(4)
Hf9_12 Hf 0.274931(3) 0.964689(4) 0.725069(3)
S3_12 S 0.18539(7) 0.91104(7) 0.58896(7)
S4_12 S 0.08620(4) 0.74953(4) 0.35859(3)
S5_12 S 0.25047(4) 0.85859(3) 0.58620(4)
S6_12 S 0.25047(4) 0.91380(4) 0.64141(3)
O7_12 O 0.23303(8) 0.76697(8) 0.53497(14)
O8_12 O 0.26697(8) 0.73303(8) 0.46503(14)
O9_12 O 0.26697(8) 0.73303(8) 0.53497(14)
O10_12 O 0.02660(5) 0.78231(5) 0.31975(5)
O11_12 O 0.21769(5) 0.81975(5) 0.52660(5)
O12_12 O 0.21769(5) 0.97340(5) 0.68025(5)
O13_12 O 0.18025(5) 0.78231(5) 0.52660(5)
O14_12 O 0.21769(5) 0.81975(5) 0.47340(5)
O15_12 O 0.27310(10) 0.77310(10) 0.57846(9)
O16_12 O 0.04955(8) 0.74399(7) 0.31364(7)
O17_12 O 0.25601(7) 0.81364(7) 0.54955(8)
O18_12 O 0.25601(7) 0.95045(8) 0.68636(7)
O19_12 O 0.24399(7) 0.68636(7) 0.45045(8)
O20_12 O 0.31364(7) 0.75601(7) 0.54955(8)
O21_12 O 0.20842(13) 0.74245(9) 0.5000
O22_12 O 0.24245(9) 0.70842(13) 0.5000
O23_12 O 0.29158(13) 0.75755(9) 0.5000
O24_12 O 0.30566(7) 0.80566(7) 0.53342(16)
C6_12 C 0.06126(12) 0.77199(13) 0.34926(12)
C7_12 C 0.22801(13) 0.84926(12) 0.56126(12)
C8_12 C 0.22801(13) 0.93874(12) 0.65074(12)
C9_12 C 0.05940(13) 0.79309(14) 0.36570(14)
C10_12 C 0.20691(14) 0.86570(14) 0.55940(13)
C11_12 C 0.20691(14) 0.94060(13) 0.63430(14)
H2_12 H 0.0465 0.8065 0.3641
H3_12 H 0.1935 0.8641 0.5465
H4_12 H 0.1935 0.9535 0.6359
C12_12 C 0.07950(15) 0.79241(15) 0.38581(16)
C13_12 C 0.20759(15) 0.88581(16) 0.57950(15)
C14_12 C 0.20759(15) 0.92050(15) 0.61419(16)
C15_12 C 0.04435(9) 0.76554(10) 0.32574(9)
C16_12 C 0.23446(10) 0.82574(9) 0.54435(9)
C17_12 C 0.23446(10) 0.95565(9) 0.67426(9)
C18_12 C 0.09538(13) 0.77044(14) 0.38430(13)
C19_12 C 0.22956(14) 0.88430(13) 0.59538(13)
C20_12 C 0.22956(14) 0.90462(13) 0.61570(13)
Hf3_24 Hf 1.0000 0.784787(4) 0.284787(4)
O5_13 O 0.25755(9) -0.0000 0.70842(13)
Hf8_13 Hf 0.225069(3) 0.035311(4) 0.774931(3)
S3_13 S 0.18539(7) 0.08896(7) 0.58896(7)
S5_13 S 0.25047(4) 0.08620(4) 0.64141(3)
S6_13 S 0.25047(4) 0.14141(3) 0.58620(4)
O7_13 O 0.23303(8) 0.03497(14) 0.73303(8)
O9_13 O 0.26697(8) 0.03497(14) 0.76697(8)
O11_13 O 0.21769(5) 0.02660(5) 0.68025(5)
O13_13 O 0.18025(5) 0.02660(5) 0.71769(5)
O15_13 O 0.27310(10) 0.07846(9) 0.72690(10)
O17_13 O 0.25601(7) 0.04955(8) 0.68636(7)
O18_13 O 0.25601(7) 0.18636(7) 0.54955(8)
O21_13 O 0.20842(13) 0.0000 0.75755(9)
O22_13 O 0.24245(9) 0.0000 0.79158(13)
O23_13 O 0.29158(13) -0.0000 0.74245(9)
O24_13 O 0.30566(7) 0.03342(16) 0.69434(7)
C7_13 C 0.22801(13) 0.06126(12) 0.65074(12)
C8_13 C 0.22801(13) 0.15074(12) 0.56126(12)
C10_13 C 0.20691(14) 0.05940(13) 0.63430(14)
C11_13 C 0.20691(14) 0.13430(14) 0.55940(13)
H3_13 H 0.1935 0.0465 0.6359
H4_13 H 0.1935 0.1359 0.5465
C13_13 C 0.20759(15) 0.07950(15) 0.61419(16)
C14_13 C 0.20759(15) 0.11419(16) 0.57950(15)
C16_13 C 0.23446(10) 0.04435(9) 0.67426(9)
C17_13 C 0.23446(10) 0.17426(9) 0.54435(9)
C19_13 C 0.22956(14) 0.09538(13) 0.61570(13)
C20_13 C 0.22956(14) 0.11570(13) 0.59538(13)
Hf2_13 Hf 0.225069(3) 0.964689(4) 0.774931(3)
S1_13 S 0.08896(7) 0.91104(7) 0.68539(7)
S2_13 S 0.14141(3) 0.91380(4) 0.75047(4)
O1_13 O 0.23303(8) 0.96503(14) 0.73303(8)
O2_13 O 0.18025(5) 0.97340(5) 0.71769(5)
O3_13 O 0.22690(10) 0.92154(9) 0.77310(10)
O4_13 O 0.18636(7) 0.95045(8) 0.75601(7)
O5_14 O 0.25755(9) 1.0000 0.70842(13)
O6_13 O 0.19434(7) 0.96658(16) 0.80566(7)
C1_13 C 0.15074(12) 0.93874(12) 0.72801(13)
C2_13 C 0.13430(14) 0.94060(13) 0.70691(14)
H1_13 H 0.1359 0.9535 0.6935
C3_13 C 0.11419(16) 0.92050(15) 0.70759(15)
C4_13 C 0.17426(9) 0.95565(9) 0.73446(10)
C5_13 C 0.11570(13) 0.90462(13) 0.72956(14)
Hf7_13 Hf 0.035311(4) 0.774931(3) 0.774931(3)
S4_13 S 0.08620(4) 0.85859(3) 0.75047(4)
O8_13 O 0.26697(8) 0.96503(14) 0.76697(8)
O10_13 O 0.02660(5) 0.81975(5) 0.71769(5)
O16_13 O 0.04955(8) 0.81364(7) 0.75601(7)
O19_13 O 0.24399(7) 0.95045(8) 0.81364(7)
O21_14 O 0.20842(13) 1.0000 0.75755(9)
O22_14 O 0.24245(9) 1.0000 0.79158(13)
O23_14 O 0.29158(13) 1.0000 0.74245(9)
C6_13 C 0.06126(12) 0.84926(12) 0.72801(13)
C9_13 C 0.05940(13) 0.86570(14) 0.70691(14)
H2_13 H 0.0465 0.8641 0.6935
C12_13 C 0.07950(15) 0.88581(16) 0.70759(15)
C15_13 C 0.04435(9) 0.82574(9) 0.73446(10)
C18_13 C 0.09538(13) 0.88430(13) 0.72956(14)
Hf1_13 Hf 0.5000 0.715213(4) 0.715213(4)
S1_14 S 0.58896(7) 0.58896(7) 0.68539(7)
S2_14 S 0.58620(4) 0.64141(3) 0.75047(4)
O2_14 O 0.52660(5) 0.68025(5) 0.71769(5)
O3_14 O 0.57846(9) 0.72690(10) 0.77310(10)
O4_14 O 0.54955(8) 0.68636(7) 0.75601(7)
O6_14 O 0.53342(16) 0.69434(7) 0.80566(7)
C1_14 C 0.56126(12) 0.65074(12) 0.72801(13)
C2_14 C 0.55940(13) 0.63430(14) 0.70691(14)
H1_14 H 0.5465 0.6359 0.6935
C3_14 C 0.57950(15) 0.61419(16) 0.70759(15)
C4_14 C 0.54435(9) 0.67426(9) 0.73446(10)
C5_14 C 0.59538(13) 0.61570(13) 0.72956(14)
Hf3_25 Hf 0.715213(4) 0.5000 0.715213(4)
Hf4_25 Hf 0.284787(4) 0.715213(4) 0.5000
S3_14 S 0.41104(7) 0.68539(7) 0.58896(7)
S4_14 S 0.64141(3) 0.58620(4) 0.75047(4)
S5_14 S 0.41380(4) 0.75047(4) 0.64141(3)
S6_14 S 0.35859(3) 0.75047(4) 0.58620(4)
O10_14 O 0.68025(5) 0.52660(5) 0.71769(5)
O11_14 O 0.47340(5) 0.71769(5) 0.68025(5)
O12_13 O 0.31975(5) 0.71769(5) 0.52660(5)
O13_14 O 0.47340(5) 0.68025(5) 0.71769(5)
O14_13 O 0.52660(5) 0.71769(5) 0.68025(5)
O15_14 O 0.42154(9) 0.77310(10) 0.72690(10)
O17_14 O 0.45045(8) 0.75601(7) 0.68636(7)
O19_14 O 0.54955(8) 0.74399(7) 0.81364(7)
O20_13 O 0.45045(8) 0.81364(7) 0.74399(7)
O24_14 O 0.46658(16) 0.80566(7) 0.69434(7)
C6_14 C 0.65074(12) 0.56126(12) 0.72801(13)
C7_14 C 0.43874(12) 0.72801(13) 0.65074(12)
C8_14 C 0.34926(12) 0.72801(13) 0.56126(12)
C9_14 C 0.63430(14) 0.55940(13) 0.70691(14)
C10_14 C 0.44060(13) 0.70691(14) 0.63430(14)
C11_14 C 0.36570(14) 0.70691(14) 0.55940(13)
H2_14 H 0.6359 0.5465 0.6935
H3_14 H 0.4535 0.6935 0.6359
H4_14 H 0.3641 0.6935 0.5465
C12_14 C 0.61419(16) 0.57950(15) 0.70759(15)
C13_14 C 0.42050(15) 0.70759(15) 0.61419(16)
C14_14 C 0.38581(16) 0.70759(15) 0.57950(15)
C15_14 C 0.67426(9) 0.54435(9) 0.73446(10)
C16_14 C 0.45565(9) 0.73446(10) 0.67426(9)
C17_14 C 0.32574(9) 0.73446(10) 0.54435(9)
C18_14 C 0.61570(13) 0.59538(13) 0.72956(14)
C19_14 C 0.40462(13) 0.72956(14) 0.61570(13)
C20_14 C 0.38430(13) 0.72956(14) 0.59538(13)
Hf2_14 Hf 0.774931(3) 0.035311(4) 0.774931(3)
S1_15 S 0.91104(7) 0.08896(7) 0.68539(7)
S2_15 S 0.85859(3) 0.08620(4) 0.75047(4)
O1_14 O 0.76697(8) 0.03497(14) 0.73303(8)
O2_15 O 0.81975(5) 0.02660(5) 0.71769(5)
O3_15 O 0.77310(10) 0.07846(9) 0.77310(10)
O4_15 O 0.81364(7) 0.04955(8) 0.75601(7)
O5_15 O 0.74245(9) -0.0000 0.70842(13)
O6_15 O 0.80566(7) 0.03342(16) 0.80566(7)
C1_15 C 0.84926(12) 0.06126(12) 0.72801(13)
C2_15 C 0.86570(14) 0.05940(13) 0.70691(14)
H1_15 H 0.8641 0.0465 0.6935
C3_15 C 0.88581(16) 0.07950(15) 0.70759(15)
C4_15 C 0.82574(9) 0.04435(9) 0.73446(10)
C5_15 C 0.88430(13) 0.09538(13) 0.72956(14)
Hf7_14 Hf 0.964689(4) 0.225069(3) 0.774931(3)
S4_15 S 0.91380(4) 0.14141(3) 0.75047(4)
O8_14 O 0.73303(8) 0.03497(14) 0.76697(8)
O10_15 O 0.97340(5) 0.18025(5) 0.71769(5)
O16_14 O 0.95045(8) 0.18636(7) 0.75601(7)
O19_15 O 0.75601(7) 0.04955(8) 0.81364(7)
O21_15 O 0.79158(13) 0.0000 0.75755(9)
O22_15 O 0.75755(9) 0.0000 0.79158(13)
O23_15 O 0.70842(13) -0.0000 0.74245(9)
C6_15 C 0.93874(12) 0.15074(12) 0.72801(13)
C9_15 C 0.94060(13) 0.13430(14) 0.70691(14)
H2_15 H 0.9535 0.1359 0.6935
C12_15 C 0.92050(15) 0.11419(16) 0.70759(15)
C15_15 C 0.95565(9) 0.17426(9) 0.73446(10)
C18_15 C 0.90462(13) 0.11570(13) 0.72956(14)
O5_16 O 0.74245(9) 1.0000 0.70842(13)
Hf8_14 Hf 0.774931(3) 0.964689(4) 0.774931(3)
S3_15 S 0.81461(7) 0.91104(7) 0.58896(7)
S5_15 S 0.74953(4) 0.91380(4) 0.64141(3)
S6_15 S 0.74953(4) 0.85859(3) 0.58620(4)
O7_14 O 0.76697(8) 0.96503(14) 0.73303(8)
O9_14 O 0.73303(8) 0.96503(14) 0.76697(8)
O11_15 O 0.78231(5) 0.97340(5) 0.68025(5)
O13_15 O 0.81975(5) 0.97340(5) 0.71769(5)
O15_15 O 0.72690(10) 0.92154(9) 0.72690(10)
O17_15 O 0.74399(7) 0.95045(8) 0.68636(7)
O18_14 O 0.74399(7) 0.81364(7) 0.54955(8)
O21_16 O 0.79158(13) 1.0000 0.75755(9)
O22_16 O 0.75755(9) 1.0000 0.79158(13)
O23_16 O 0.70842(13) 1.0000 0.74245(9)
O24_15 O 0.69434(7) 0.96658(16) 0.69434(7)
C7_15 C 0.77199(13) 0.93874(12) 0.65074(12)
C8_15 C 0.77199(13) 0.84926(12) 0.56126(12)
C10_15 C 0.79309(14) 0.94060(13) 0.63430(14)
C11_15 C 0.79309(14) 0.86570(14) 0.55940(13)
H3_15 H 0.8065 0.9535 0.6359
H4_15 H 0.8065 0.8641 0.5465
C13_15 C 0.79241(15) 0.92050(15) 0.61419(16)
C14_15 C 0.79241(15) 0.88581(16) 0.57950(15)
C16_15 C 0.76554(10) 0.95565(9) 0.67426(9)
C17_15 C 0.76554(10) 0.82574(9) 0.54435(9)
C19_15 C 0.77044(14) 0.90462(13) 0.61570(13)
C20_15 C 0.77044(14) 0.88430(13) 0.59538(13)
Hf1_14 Hf 0.5000 0.284787(4) 0.715213(4)
S1_16 S 0.41104(7) 0.41104(7) 0.68539(7)
S2_16 S 0.41380(4) 0.35859(3) 0.75047(4)
O2_16 O 0.47340(5) 0.31975(5) 0.71769(5)
O3_16 O 0.42154(9) 0.27310(10) 0.77310(10)
O4_16 O 0.45045(8) 0.31364(7) 0.75601(7)
O6_16 O 0.46658(16) 0.30566(7) 0.80566(7)
C1_16 C 0.43874(12) 0.34926(12) 0.72801(13)
C2_16 C 0.44060(13) 0.36570(14) 0.70691(14)
H1_16 H 0.4535 0.3641 0.6935
C3_16 C 0.42050(15) 0.38581(16) 0.70759(15)
C4_16 C 0.45565(9) 0.32574(9) 0.73446(10)
C5_16 C 0.40462(13) 0.38430(13) 0.72956(14)
Hf3_26 Hf 0.284787(4) 0.5000 0.715213(4)
Hf4_26 Hf 0.715213(4) 0.284787(4) 0.5000
S3_16 S 0.58896(7) 0.31461(7) 0.58896(7)
S4_16 S 0.35859(3) 0.41380(4) 0.75047(4)
S5_16 S 0.58620(4) 0.24953(4) 0.64141(3)
S6_16 S 0.64141(3) 0.24953(4) 0.58620(4)
O10_16 O 0.31975(5) 0.47340(5) 0.71769(5)
O11_16 O 0.52660(5) 0.28231(5) 0.68025(5)
O12_14 O 0.68025(5) 0.28231(5) 0.52660(5)
O13_16 O 0.52660(5) 0.31975(5) 0.71769(5)
O14_14 O 0.47340(5) 0.28231(5) 0.68025(5)
O15_16 O 0.57846(9) 0.22690(10) 0.72690(10)
O17_16 O 0.54955(8) 0.24399(7) 0.68636(7)
O19_16 O 0.45045(8) 0.25601(7) 0.81364(7)
O20_14 O 0.54955(8) 0.18636(7) 0.74399(7)
O24_16 O 0.53342(16) 0.19434(7) 0.69434(7)
C6_16 C 0.34926(12) 0.43874(12) 0.72801(13)
C7_16 C 0.56126(12) 0.27199(13) 0.65074(12)
C8_16 C 0.65074(12) 0.27199(13) 0.56126(12)
C9_16 C 0.36570(14) 0.44060(13) 0.70691(14)
C10_16 C 0.55940(13) 0.29309(14) 0.63430(14)
C11_16 C 0.63430(14) 0.29309(14) 0.55940(13)
H2_16 H 0.3641 0.4535 0.6935
H3_16 H 0.5465 0.3065 0.6359
H4_16 H 0.6359 0.3065 0.5465
C12_16 C 0.38581(16) 0.42050(15) 0.70759(15)
C13_16 C 0.57950(15) 0.29241(15) 0.61419(16)
C14_16 C 0.61419(16) 0.29241(15) 0.57950(15)
C15_16 C 0.32574(9) 0.45565(9) 0.73446(10)
C16_16 C 0.54435(9) 0.26554(10) 0.67426(9)
C17_16 C 0.67426(9) 0.26554(10) 0.54435(9)
C18_16 C 0.38430(13) 0.40462(13) 0.72956(14)
C19_16 C 0.59538(13) 0.27044(14) 0.61570(13)
C20_16 C 0.61570(13) 0.27044(14) 0.59538(13)
Hf2_15 Hf 0.225069(3) 0.035311(4) 0.225069(3)
S1_17 S 0.08896(7) 0.08896(7) 0.31461(7)
S2_17 S 0.14141(3) 0.08620(4) 0.24953(4)
O1_15 O 0.23303(8) 0.03497(14) 0.26697(8)
O2_17 O 0.18025(5) 0.02660(5) 0.28231(5)
O3_17 O 0.22690(10) 0.07846(9) 0.22690(10)
O4_17 O 0.18636(7) 0.04955(8) 0.24399(7)
O5_17 O 0.25755(9) -0.0000 0.29158(13)
O6_17 O 0.19434(7) 0.03342(16) 0.19434(7)
C1_17 C 0.15074(12) 0.06126(12) 0.27199(13)
C2_17 C 0.13430(14) 0.05940(13) 0.29309(14)
H1_17 H 0.1359 0.0465 0.3065
C3_17 C 0.11419(16) 0.07950(15) 0.29241(15)
C4_17 C 0.17426(9) 0.04435(9) 0.26554(10)
C5_17 C 0.11570(13) 0.09538(13) 0.27044(14)
Hf7_15 Hf 0.035311(4) 0.225069(3) 0.225069(3)
S4_17 S 0.08620(4) 0.14141(3) 0.24953(4)
O8_15 O 0.26697(8) 0.03497(14) 0.23303(8)
O10_17 O 0.02660(5) 0.18025(5) 0.28231(5)
O16_15 O 0.04955(8) 0.18636(7) 0.24399(7)
O19_17 O 0.24399(7) 0.04955(8) 0.18636(7)
O21_17 O 0.20842(13) 0.0000 0.24245(9)
O22_17 O 0.24245(9) -0.0000 0.20842(13)
O23_17 O 0.29158(13) 0.0000 0.25755(9)
C6_17 C 0.06126(12) 0.15074(12) 0.27199(13)
C9_17 C 0.05940(13) 0.13430(14) 0.29309(14)
H2_17 H 0.0465 0.1359 0.3065
C12_17 C 0.07950(15) 0.11419(16) 0.29241(15)
C15_17 C 0.04435(9) 0.17426(9) 0.26554(10)
C18_17 C 0.09538(13) 0.11570(13) 0.27044(14)
O5_18 O 0.25755(9) 1.0000 0.29158(13)
Hf8_15 Hf 0.225069(3) 0.964689(4) 0.225069(3)
S3_17 S 0.18539(7) 0.91104(7) 0.41104(7)
S5_17 S 0.25047(4) 0.91380(4) 0.35859(3)
S6_17 S 0.25047(4) 0.85859(3) 0.41380(4)
O7_15 O 0.23303(8) 0.96503(14) 0.26697(8)
O9_15 O 0.26697(8) 0.96503(14) 0.23303(8)
O11_17 O 0.21769(5) 0.97340(5) 0.31975(5)
O13_17 O 0.18025(5) 0.97340(5) 0.28231(5)
O15_17 O 0.27310(10) 0.92154(9) 0.27310(10)
O17_17 O 0.25601(7) 0.95045(8) 0.31364(7)
O18_15 O 0.25601(7) 0.81364(7) 0.45045(8)
O21_18 O 0.20842(13) 1.0000 0.24245(9)
O22_18 O 0.24245(9) 1.0000 0.20842(13)
O23_18 O 0.29158(13) 1.0000 0.25755(9)
O24_17 O 0.30566(7) 0.96658(16) 0.30566(7)
C7_17 C 0.22801(13) 0.93874(12) 0.34926(12)
C8_17 C 0.22801(13) 0.84926(12) 0.43874(12)
C10_17 C 0.20691(14) 0.94060(13) 0.36570(14)
C11_17 C 0.20691(14) 0.86570(14) 0.44060(13)
H3_17 H 0.1935 0.9535 0.3641
H4_17 H 0.1935 0.8641 0.4535
C13_17 C 0.20759(15) 0.92050(15) 0.38581(16)
C14_17 C 0.20759(15) 0.88581(16) 0.42050(15)
C16_17 C 0.23446(10) 0.95565(9) 0.32574(9)
C17_17 C 0.23446(10) 0.82574(9) 0.45565(9)
C19_17 C 0.22956(14) 0.90462(13) 0.38430(13)
C20_17 C 0.22956(14) 0.88430(13) 0.40462(13)
Hf1_15 Hf 0.5000 0.715213(4) 0.284787(4)
S1_18 S 0.41104(7) 0.58896(7) 0.31461(7)
S2_18 S 0.41380(4) 0.64141(3) 0.24953(4)
O2_18 O 0.47340(5) 0.68025(5) 0.28231(5)
O3_18 O 0.42154(9) 0.72690(10) 0.22690(10)
O4_18 O 0.45045(8) 0.68636(7) 0.24399(7)
O6_18 O 0.46658(16) 0.69434(7) 0.19434(7)
C1_18 C 0.43874(12) 0.65074(12) 0.27199(13)
C2_18 C 0.44060(13) 0.63430(14) 0.29309(14)
H1_18 H 0.4535 0.6359 0.3065
C3_18 C 0.42050(15) 0.61419(16) 0.29241(15)
C4_18 C 0.45565(9) 0.67426(9) 0.26554(10)
C5_18 C 0.40462(13) 0.61570(13) 0.27044(14)
Hf3_27 Hf 0.284787(4) 0.5000 0.284787(4)
Hf4_27 Hf 0.715213(4) 0.715213(4) 0.5000
S3_18 S 0.58896(7) 0.68539(7) 0.41104(7)
S4_18 S 0.35859(3) 0.58620(4) 0.24953(4)
S5_18 S 0.58620(4) 0.75047(4) 0.35859(3)
S6_18 S 0.64141(3) 0.75047(4) 0.41380(4)
O10_18 O 0.31975(5) 0.52660(5) 0.28231(5)
O11_18 O 0.52660(5) 0.71769(5) 0.31975(5)
O12_15 O 0.68025(5) 0.71769(5) 0.47340(5)
O13_18 O 0.52660(5) 0.68025(5) 0.28231(5)
O14_15 O 0.47340(5) 0.71769(5) 0.31975(5)
O15_18 O 0.57846(9) 0.77310(10) 0.27310(10)
O17_18 O 0.54955(8) 0.75601(7) 0.31364(7)
O19_18 O 0.45045(8) 0.74399(7) 0.18636(7)
O20_15 O 0.54955(8) 0.81364(7) 0.25601(7)
O24_18 O 0.53342(16) 0.80566(7) 0.30566(7)
C6_18 C 0.34926(12) 0.56126(12) 0.27199(13)
C7_18 C 0.56126(12) 0.72801(13) 0.34926(12)
C8_18 C 0.65074(12) 0.72801(13) 0.43874(12)
C9_18 C 0.36570(14) 0.55940(13) 0.29309(14)
C10_18 C 0.55940(13) 0.70691(14) 0.36570(14)
C11_18 C 0.63430(14) 0.70691(14) 0.44060(13)
H2_18 H 0.3641 0.5465 0.3065
H3_18 H 0.5465 0.6935 0.3641
H4_18 H 0.6359 0.6935 0.4535
C12_18 C 0.38581(16) 0.57950(15) 0.29241(15)
C13_18 C 0.57950(15) 0.70759(15) 0.38581(16)
C14_18 C 0.61419(16) 0.70759(15) 0.42050(15)
C15_18 C 0.32574(9) 0.54435(9) 0.26554(10)
C16_18 C 0.54435(9) 0.73446(10) 0.32574(9)
C17_18 C 0.67426(9) 0.73446(10) 0.45565(9)
C18_18 C 0.38430(13) 0.59538(13) 0.27044(14)
C19_18 C 0.59538(13) 0.72956(14) 0.38430(13)
C20_18 C 0.61570(13) 0.72956(14) 0.40462(13)
O5_19 O 0.74245(9) -0.0000 0.29158(13)
Hf8_16 Hf 0.774931(3) 0.035311(4) 0.225069(3)
S3_19 S 0.81461(7) 0.08896(7) 0.41104(7)
S5_19 S 0.74953(4) 0.08620(4) 0.35859(3)
S6_19 S 0.74953(4) 0.14141(3) 0.41380(4)
O7_16 O 0.76697(8) 0.03497(14) 0.26697(8)
O9_16 O 0.73303(8) 0.03497(14) 0.23303(8)
O11_19 O 0.78231(5) 0.02660(5) 0.31975(5)
O13_19 O 0.81975(5) 0.02660(5) 0.28231(5)
O15_19 O 0.72690(10) 0.07846(9) 0.27310(10)
O17_19 O 0.74399(7) 0.04955(8) 0.31364(7)
O18_16 O 0.74399(7) 0.18636(7) 0.45045(8)
O21_19 O 0.79158(13) 0.0000 0.24245(9)
O22_19 O 0.75755(9) -0.0000 0.20842(13)
O23_19 O 0.70842(13) 0.0000 0.25755(9)
O24_19 O 0.69434(7) 0.03342(16) 0.30566(7)
C7_19 C 0.77199(13) 0.06126(12) 0.34926(12)
C8_19 C 0.77199(13) 0.15074(12) 0.43874(12)
C10_19 C 0.79309(14) 0.05940(13) 0.36570(14)
C11_19 C 0.79309(14) 0.13430(14) 0.44060(13)
H3_19 H 0.8065 0.0465 0.3641
H4_19 H 0.8065 0.1359 0.4535
C13_19 C 0.79241(15) 0.07950(15) 0.38581(16)
C14_19 C 0.79241(15) 0.11419(16) 0.42050(15)
C16_19 C 0.76554(10) 0.04435(9) 0.32574(9)
C17_19 C 0.76554(10) 0.17426(9) 0.45565(9)
C19_19 C 0.77044(14) 0.09538(13) 0.38430(13)
C20_19 C 0.77044(14) 0.11570(13) 0.40462(13)
Hf2_16 Hf 0.774931(3) 0.964689(4) 0.225069(3)
S1_19 S 0.91104(7) 0.91104(7) 0.31461(7)
S2_19 S 0.85859(3) 0.91380(4) 0.24953(4)
O1_16 O 0.76697(8) 0.96503(14) 0.26697(8)
O2_19 O 0.81975(5) 0.97340(5) 0.28231(5)
O3_19 O 0.77310(10) 0.92154(9) 0.22690(10)
O4_19 O 0.81364(7) 0.95045(8) 0.24399(7)
O5_20 O 0.74245(9) 1.0000 0.29158(13)
O6_19 O 0.80566(7) 0.96658(16) 0.19434(7)
C1_19 C 0.84926(12) 0.93874(12) 0.27199(13)
C2_19 C 0.86570(14) 0.94060(13) 0.29309(14)
H1_19 H 0.8641 0.9535 0.3065
C3_19 C 0.88581(16) 0.92050(15) 0.29241(15)
C4_19 C 0.82574(9) 0.95565(9) 0.26554(10)
C5_19 C 0.88430(13) 0.90462(13) 0.27044(14)
Hf7_16 Hf 0.964689(4) 0.774931(3) 0.225069(3)
S4_19 S 0.91380(4) 0.85859(3) 0.24953(4)
O8_16 O 0.73303(8) 0.96503(14) 0.23303(8)
O10_19 O 0.97340(5) 0.81975(5) 0.28231(5)
O16_16 O 0.95045(8) 0.81364(7) 0.24399(7)
O19_19 O 0.75601(7) 0.95045(8) 0.18636(7)
O21_20 O 0.79158(13) 1.0000 0.24245(9)
O22_20 O 0.75755(9) 1.0000 0.20842(13)
O23_20 O 0.70842(13) 1.0000 0.25755(9)
C6_19 C 0.93874(12) 0.84926(12) 0.27199(13)
C9_19 C 0.94060(13) 0.86570(14) 0.29309(14)
H2_19 H 0.9535 0.8641 0.3065
C12_19 C 0.92050(15) 0.88581(16) 0.29241(15)
C15_19 C 0.95565(9) 0.82574(9) 0.26554(10)
C18_19 C 0.90462(13) 0.88430(13) 0.27044(14)
Hf1_16 Hf 0.5000 0.284787(4) 0.284787(4)
S1_20 S 0.58896(7) 0.41104(7) 0.31461(7)
S2_20 S 0.58620(4) 0.35859(3) 0.24953(4)
O2_20 O 0.52660(5) 0.31975(5) 0.28231(5)
O3_20 O 0.57846(9) 0.27310(10) 0.22690(10)
O4_20 O 0.54955(8) 0.31364(7) 0.24399(7)
O6_20 O 0.53342(16) 0.30566(7) 0.19434(7)
C1_20 C 0.56126(12) 0.34926(12) 0.27199(13)
C2_20 C 0.55940(13) 0.36570(14) 0.29309(14)
H1_20 H 0.5465 0.3641 0.3065
C3_20 C 0.57950(15) 0.38581(16) 0.29241(15)
C4_20 C 0.54435(9) 0.32574(9) 0.26554(10)
C5_20 C 0.59538(13) 0.38430(13) 0.27044(14)
Hf3_28 Hf 0.715213(4) 0.5000 0.284787(4)
Hf4_28 Hf 0.284787(4) 0.284787(4) 0.5000
S3_20 S 0.41104(7) 0.31461(7) 0.41104(7)
S4_20 S 0.64141(3) 0.41380(4) 0.24953(4)
S5_20 S 0.41380(4) 0.24953(4) 0.35859(3)
S6_20 S 0.35859(3) 0.24953(4) 0.41380(4)
O10_20 O 0.68025(5) 0.47340(5) 0.28231(5)
O11_20 O 0.47340(5) 0.28231(5) 0.31975(5)
O12_16 O 0.31975(5) 0.28231(5) 0.47340(5)
O13_20 O 0.47340(5) 0.31975(5) 0.28231(5)
O14_16 O 0.52660(5) 0.28231(5) 0.31975(5)
O15_20 O 0.42154(9) 0.22690(10) 0.27310(10)
O17_20 O 0.45045(8) 0.24399(7) 0.31364(7)
O19_20 O 0.54955(8) 0.25601(7) 0.18636(7)
O20_16 O 0.45045(8) 0.18636(7) 0.25601(7)
O24_20 O 0.46658(16) 0.19434(7) 0.30566(7)
C6_20 C 0.65074(12) 0.43874(12) 0.27199(13)
C7_20 C 0.43874(12) 0.27199(13) 0.34926(12)
C8_20 C 0.34926(12) 0.27199(13) 0.43874(12)
C9_20 C 0.63430(14) 0.44060(13) 0.29309(14)
C10_20 C 0.44060(13) 0.29309(14) 0.36570(14)
C11_20 C 0.36570(14) 0.29309(14) 0.44060(13)
H2_20 H 0.6359 0.4535 0.3065
H3_20 H 0.4535 0.3065 0.3641
H4_20 H 0.3641 0.3065 0.4535
C12_20 C 0.61419(16) 0.42050(15) 0.29241(15)
C13_20 C 0.42050(15) 0.29241(15) 0.38581(16)
C14_20 C 0.38581(16) 0.29241(15) 0.42050(15)
C15_20 C 0.67426(9) 0.45565(9) 0.26554(10)
C16_20 C 0.45565(9) 0.26554(10) 0.32574(9)
C17_20 C 0.32574(9) 0.26554(10) 0.45565(9)
C18_20 C 0.61570(13) 0.40462(13) 0.27044(14)
C19_20 C 0.40462(13) 0.27044(14) 0.38430(13)
C20_20 C 0.38430(13) 0.27044(14) 0.40462(13)
O5_21 O 0.20842(13) 0.75755(9) 0.0000
Hf5_13 Hf 0.225069(3) 0.774931(3) 0.035311(4)
Hf9_13 Hf 0.035311(4) 0.774931(3) 0.225069(3)
S3_21 S 0.08896(7) 0.68539(7) 0.08896(7)
S5_21 S 0.14141(3) 0.75047(4) 0.08620(4)
S6_21 S 0.08620(4) 0.75047(4) 0.14141(3)
O7_17 O 0.23303(8) 0.73303(8) 0.03497(14)
O9_17 O 0.26697(8) 0.76697(8) 0.03497(14)
O11_21 O 0.18025(5) 0.71769(5) 0.02660(5)
O12_17 O 0.02660(5) 0.71769(5) 0.18025(5)
O15_21 O 0.22690(10) 0.77310(10) 0.07846(9)
O17_21 O 0.18636(7) 0.75601(7) 0.04955(8)
O18_17 O 0.04955(8) 0.75601(7) 0.18636(7)
O20_17 O 0.24399(7) 0.81364(7) 0.04955(8)
O21_21 O 0.25755(9) 0.70842(13) 0.0000
O22_21 O 0.29158(13) 0.74245(9) 0.0000
O23_21 O 0.24245(9) 0.79158(13) 0.0000
O24_21 O 0.19434(7) 0.80566(7) 0.03342(16)
C7_21 C 0.15074(12) 0.72801(13) 0.06126(12)
C8_21 C 0.06126(12) 0.72801(13) 0.15074(12)
C10_21 C 0.13430(14) 0.70691(14) 0.05940(13)
C11_21 C 0.05940(13) 0.70691(14) 0.13430(14)
H3_21 H 0.1359 0.6935 0.0465
H4_21 H 0.0465 0.6935 0.1359
C13_21 C 0.11419(16) 0.70759(15) 0.07950(15)
C14_21 C 0.07950(15) 0.70759(15) 0.11419(16)
C16_21 C 0.17426(9) 0.73446(10) 0.04435(9)
C17_21 C 0.04435(9) 0.73446(10) 0.17426(9)
C19_21 C 0.11570(13) 0.72956(14) 0.09538(13)
C20_21 C 0.09538(13) 0.72956(14) 0.11570(13)
S1_21 S 0.18539(7) 0.58896(7) 0.91104(7)
S2_21 S 0.25047(4) 0.64141(3) 0.91380(4)
O1_17 O 0.23303(8) 0.73303(8) 0.96503(14)
O2_21 O 0.21769(5) 0.68025(5) 0.97340(5)
O3_21 O 0.27310(10) 0.72690(10) 0.92154(9)
O4_21 O 0.25601(7) 0.68636(7) 0.95045(8)
O5_22 O 0.20842(13) 0.75755(9) 1.0000
O6_21 O 0.30566(7) 0.69434(7) 0.96658(16)
C1_21 C 0.22801(13) 0.65074(12) 0.93874(12)
C2_21 C 0.20691(14) 0.63430(14) 0.94060(13)
H1_21 H 0.1935 0.6359 0.9535
C3_21 C 0.20759(15) 0.61419(16) 0.92050(15)
C4_21 C 0.23446(10) 0.67426(9) 0.95565(9)
C5_21 C 0.22956(14) 0.61570(13) 0.90462(13)
Hf6_13 Hf 0.225069(3) 0.774931(3) 0.964689(4)
S4_21 S 0.25047(4) 0.58620(4) 0.85859(3)
O8_17 O 0.26697(8) 0.76697(8) 0.96503(14)
O14_17 O 0.18025(5) 0.71769(5) 0.97340(5)
O16_17 O 0.25601(7) 0.54955(8) 0.81364(7)
O21_22 O 0.25755(9) 0.70842(13) 1.0000
O22_22 O 0.29158(13) 0.74245(9) 1.0000
O23_22 O 0.24245(9) 0.79158(13) 1.0000
C6_21 C 0.22801(13) 0.56126(12) 0.84926(12)
C9_21 C 0.20691(14) 0.55940(13) 0.86570(14)
H2_21 H 0.1935 0.5465 0.8641
C12_21 C 0.20759(15) 0.57950(15) 0.88581(16)
C15_21 C 0.23446(10) 0.54435(9) 0.82574(9)
C18_21 C 0.22956(14) 0.59538(13) 0.88430(13)
O5_23 O 0.74245(9) 0.70842(13) 0.0000
Hf8_17 Hf 0.774931(3) 0.774931(3) 0.035311(4)
S3_22 S 0.81461(7) 0.58896(7) 0.08896(7)
S5_22 S 0.74953(4) 0.64141(3) 0.08620(4)
S6_22 S 0.74953(4) 0.58620(4) 0.14141(3)
O7_18 O 0.76697(8) 0.73303(8) 0.03497(14)
O9_18 O 0.73303(8) 0.76697(8) 0.03497(14)
O11_22 O 0.78231(5) 0.68025(5) 0.02660(5)
O13_21 O 0.81975(5) 0.71769(5) 0.02660(5)
O15_22 O 0.72690(10) 0.72690(10) 0.07846(9)
O17_22 O 0.74399(7) 0.68636(7) 0.04955(8)
O18_18 O 0.74399(7) 0.54955(8) 0.18636(7)
O21_23 O 0.79158(13) 0.75755(9) 0.0000
O22_23 O 0.75755(9) 0.79158(13) 0.0000
O23_23 O 0.70842(13) 0.74245(9) 0.0000
O24_22 O 0.69434(7) 0.69434(7) 0.03342(16)
C7_22 C 0.77199(13) 0.65074(12) 0.06126(12)
C8_22 C 0.77199(13) 0.56126(12) 0.15074(12)
C10_22 C 0.79309(14) 0.63430(14) 0.05940(13)
C11_22 C 0.79309(14) 0.55940(13) 0.13430(14)
H3_22 H 0.8065 0.6359 0.0465
H4_22 H 0.8065 0.5465 0.1359
C13_22 C 0.79241(15) 0.61419(16) 0.07950(15)
C14_22 C 0.79241(15) 0.57950(15) 0.11419(16)
C16_22 C 0.76554(10) 0.67426(9) 0.04435(9)
C17_22 C 0.76554(10) 0.54435(9) 0.17426(9)
C19_22 C 0.77044(14) 0.61570(13) 0.09538(13)
C20_22 C 0.77044(14) 0.59538(13) 0.11570(13)
Hf2_17 Hf 0.774931(3) 0.774931(3) 0.964689(4)
S1_22 S 0.91104(7) 0.68539(7) 0.91104(7)
S2_22 S 0.85859(3) 0.75047(4) 0.91380(4)
O1_18 O 0.76697(8) 0.73303(8) 0.96503(14)
O2_22 O 0.81975(5) 0.71769(5) 0.97340(5)
O3_22 O 0.77310(10) 0.77310(10) 0.92154(9)
O4_22 O 0.81364(7) 0.75601(7) 0.95045(8)
O5_24 O 0.74245(9) 0.70842(13) 1.0000
O6_22 O 0.80566(7) 0.80566(7) 0.96658(16)
C1_22 C 0.84926(12) 0.72801(13) 0.93874(12)
C2_22 C 0.86570(14) 0.70691(14) 0.94060(13)
H1_22 H 0.8641 0.6935 0.9535
C3_22 C 0.88581(16) 0.70759(15) 0.92050(15)
C4_22 C 0.82574(9) 0.73446(10) 0.95565(9)
C5_22 C 0.88430(13) 0.72956(14) 0.90462(13)
Hf7_17 Hf 0.964689(4) 0.774931(3) 0.774931(3)
S4_22 S 0.91380(4) 0.75047(4) 0.85859(3)
O8_18 O 0.73303(8) 0.76697(8) 0.96503(14)
O10_21 O 0.97340(5) 0.71769(5) 0.81975(5)
O16_18 O 0.95045(8) 0.75601(7) 0.81364(7)
O19_21 O 0.75601(7) 0.81364(7) 0.95045(8)
O21_24 O 0.79158(13) 0.75755(9) 1.0000
O22_24 O 0.75755(9) 0.79158(13) 1.0000
O23_24 O 0.70842(13) 0.74245(9) 1.0000
C6_22 C 0.93874(12) 0.72801(13) 0.84926(12)
C9_22 C 0.94060(13) 0.70691(14) 0.86570(14)
H2_22 H 0.9535 0.6935 0.8641
C12_22 C 0.92050(15) 0.70759(15) 0.88581(16)
C15_22 C 0.95565(9) 0.73446(10) 0.82574(9)
C18_22 C 0.90462(13) 0.72956(14) 0.88430(13)
O5_25 O 0.79158(13) 0.24245(9) 0.0000
Hf5_14 Hf 0.774931(3) 0.225069(3) 0.035311(4)
Hf9_14 Hf 0.964689(4) 0.225069(3) 0.225069(3)
S3_23 S 0.91104(7) 0.31461(7) 0.08896(7)
S5_23 S 0.85859(3) 0.24953(4) 0.08620(4)
S6_23 S 0.91380(4) 0.24953(4) 0.14141(3)
O7_19 O 0.76697(8) 0.26697(8) 0.03497(14)
O9_19 O 0.73303(8) 0.23303(8) 0.03497(14)
O11_23 O 0.81975(5) 0.28231(5) 0.02660(5)
O12_18 O 0.97340(5) 0.28231(5) 0.18025(5)
O15_23 O 0.77310(10) 0.22690(10) 0.07846(9)
O17_23 O 0.81364(7) 0.24399(7) 0.04955(8)
O18_19 O 0.95045(8) 0.24399(7) 0.18636(7)
O20_18 O 0.75601(7) 0.18636(7) 0.04955(8)
O21_25 O 0.74245(9) 0.29158(13) 0.0000
O22_25 O 0.70842(13) 0.25755(9) 0.0000
O23_25 O 0.75755(9) 0.20842(13) 0.0000
O24_23 O 0.80566(7) 0.19434(7) 0.03342(16)
C7_23 C 0.84926(12) 0.27199(13) 0.06126(12)
C8_23 C 0.93874(12) 0.27199(13) 0.15074(12)
C10_23 C 0.86570(14) 0.29309(14) 0.05940(13)
C11_23 C 0.94060(13) 0.29309(14) 0.13430(14)
H3_23 H 0.8641 0.3065 0.0465
H4_23 H 0.9535 0.3065 0.1359
C13_23 C 0.88581(16) 0.29241(15) 0.07950(15)
C14_23 C 0.92050(15) 0.29241(15) 0.11419(16)
C16_23 C 0.82574(9) 0.26554(10) 0.04435(9)
C17_23 C 0.95565(9) 0.26554(10) 0.17426(9)
C19_23 C 0.88430(13) 0.27044(14) 0.09538(13)
C20_23 C 0.90462(13) 0.27044(14) 0.11570(13)
S1_23 S 0.81461(7) 0.41104(7) 0.91104(7)
S2_23 S 0.74953(4) 0.35859(3) 0.91380(4)
O1_19 O 0.76697(8) 0.26697(8) 0.96503(14)
O2_23 O 0.78231(5) 0.31975(5) 0.97340(5)
O3_23 O 0.72690(10) 0.27310(10) 0.92154(9)
O4_23 O 0.74399(7) 0.31364(7) 0.95045(8)
O5_26 O 0.79158(13) 0.24245(9) 1.0000
O6_23 O 0.69434(7) 0.30566(7) 0.96658(16)
C1_23 C 0.77199(13) 0.34926(12) 0.93874(12)
C2_23 C 0.79309(14) 0.36570(14) 0.94060(13)
H1_23 H 0.8065 0.3641 0.9535
C3_23 C 0.79241(15) 0.38581(16) 0.92050(15)
C4_23 C 0.76554(10) 0.32574(9) 0.95565(9)
C5_23 C 0.77044(14) 0.38430(13) 0.90462(13)
Hf6_14 Hf 0.774931(3) 0.225069(3) 0.964689(4)
S4_23 S 0.74953(4) 0.41380(4) 0.85859(3)
O8_19 O 0.73303(8) 0.23303(8) 0.96503(14)
O14_18 O 0.81975(5) 0.28231(5) 0.97340(5)
O16_19 O 0.74399(7) 0.45045(8) 0.81364(7)
O21_26 O 0.74245(9) 0.29158(13) 1.0000
O22_26 O 0.70842(13) 0.25755(9) 1.0000
O23_26 O 0.75755(9) 0.20842(13) 1.0000
C6_23 C 0.77199(13) 0.43874(12) 0.84926(12)
C9_23 C 0.79309(14) 0.44060(13) 0.86570(14)
H2_23 H 0.8065 0.4535 0.8641
C12_23 C 0.79241(15) 0.42050(15) 0.88581(16)
C15_23 C 0.76554(10) 0.45565(9) 0.82574(9)
C18_23 C 0.77044(14) 0.40462(13) 0.88430(13)
O5_27 O 0.25755(9) 0.29158(13) 0.0000
Hf8_18 Hf 0.225069(3) 0.225069(3) 0.035311(4)
S3_24 S 0.18539(7) 0.41104(7) 0.08896(7)
S5_24 S 0.25047(4) 0.35859(3) 0.08620(4)
S6_24 S 0.25047(4) 0.41380(4) 0.14141(3)
O7_20 O 0.23303(8) 0.26697(8) 0.03497(14)
O9_20 O 0.26697(8) 0.23303(8) 0.03497(14)
O11_24 O 0.21769(5) 0.31975(5) 0.02660(5)
O13_22 O 0.18025(5) 0.28231(5) 0.02660(5)
O15_24 O 0.27310(10) 0.27310(10) 0.07846(9)
O17_24 O 0.25601(7) 0.31364(7) 0.04955(8)
O18_20 O 0.25601(7) 0.45045(8) 0.18636(7)
O21_27 O 0.20842(13) 0.24245(9) 0.0000
O22_27 O 0.24245(9) 0.20842(13) 0.0000
O23_27 O 0.29158(13) 0.25755(9) 0.0000
O24_24 O 0.30566(7) 0.30566(7) 0.03342(16)
C7_24 C 0.22801(13) 0.34926(12) 0.06126(12)
C8_24 C 0.22801(13) 0.43874(12) 0.15074(12)
C10_24 C 0.20691(14) 0.36570(14) 0.05940(13)
C11_24 C 0.20691(14) 0.44060(13) 0.13430(14)
H3_24 H 0.1935 0.3641 0.0465
H4_24 H 0.1935 0.4535 0.1359
C13_24 C 0.20759(15) 0.38581(16) 0.07950(15)
C14_24 C 0.20759(15) 0.42050(15) 0.11419(16)
C16_24 C 0.23446(10) 0.32574(9) 0.04435(9)
C17_24 C 0.23446(10) 0.45565(9) 0.17426(9)
C19_24 C 0.22956(14) 0.38430(13) 0.09538(13)
C20_24 C 0.22956(14) 0.40462(13) 0.11570(13)
Hf2_18 Hf 0.225069(3) 0.225069(3) 0.964689(4)
S1_24 S 0.08896(7) 0.31461(7) 0.91104(7)
S2_24 S 0.14141(3) 0.24953(4) 0.91380(4)
O1_20 O 0.23303(8) 0.26697(8) 0.96503(14)
O2_24 O 0.18025(5) 0.28231(5) 0.97340(5)
O3_24 O 0.22690(10) 0.22690(10) 0.92154(9)
O4_24 O 0.18636(7) 0.24399(7) 0.95045(8)
O5_28 O 0.25755(9) 0.29158(13) 1.0000
O6_24 O 0.19434(7) 0.19434(7) 0.96658(16)
C1_24 C 0.15074(12) 0.27199(13) 0.93874(12)
C2_24 C 0.13430(14) 0.29309(14) 0.94060(13)
H1_24 H 0.1359 0.3065 0.9535
C3_24 C 0.11419(16) 0.29241(15) 0.92050(15)
C4_24 C 0.17426(9) 0.26554(10) 0.95565(9)
C5_24 C 0.11570(13) 0.27044(14) 0.90462(13)
Hf7_18 Hf 0.035311(4) 0.225069(3) 0.774931(3)
S4_24 S 0.08620(4) 0.24953(4) 0.85859(3)
O8_20 O 0.26697(8) 0.23303(8) 0.96503(14)
O10_22 O 0.02660(5) 0.28231(5) 0.81975(5)
O16_20 O 0.04955(8) 0.24399(7) 0.81364(7)
O19_22 O 0.24399(7) 0.18636(7) 0.95045(8)
O21_28 O 0.20842(13) 0.24245(9) 1.0000
O22_28 O 0.24245(9) 0.20842(13) 1.0000
O23_28 O 0.29158(13) 0.25755(9) 1.0000
C6_24 C 0.06126(12) 0.27199(13) 0.84926(12)
C9_24 C 0.05940(13) 0.29309(14) 0.86570(14)
H2_24 H 0.0465 0.3065 0.8641
C12_24 C 0.07950(15) 0.29241(15) 0.88581(16)
C15_24 C 0.04435(9) 0.26554(10) 0.82574(9)
C18_24 C 0.09538(13) 0.27044(14) 0.88430(13)
S1_25 S 0.58896(7) 0.41104(7) 0.68539(7)
S2_25 S 0.64141(3) 0.41380(4) 0.75047(4)
O2_25 O 0.68025(5) 0.47340(5) 0.71769(5)
O3_25 O 0.72690(10) 0.42154(9) 0.77310(10)
O4_25 O 0.68636(7) 0.45045(8) 0.75601(7)
O6_25 O 0.69434(7) 0.46658(16) 0.80566(7)
C1_25 C 0.65074(12) 0.43874(12) 0.72801(13)
C2_25 C 0.63430(14) 0.44060(13) 0.70691(14)
H1_25 H 0.6359 0.4535 0.6935
C3_25 C 0.61419(16) 0.42050(15) 0.70759(15)
C4_25 C 0.67426(9) 0.45565(9) 0.73446(10)
C5_25 C 0.61570(13) 0.40462(13) 0.72956(14)
S3_25 S 0.68539(7) 0.58896(7) 0.58896(7)
S4_25 S 0.58620(4) 0.35859(3) 0.75047(4)
S5_25 S 0.75047(4) 0.58620(4) 0.64141(3)
S6_25 S 0.75047(4) 0.64141(3) 0.58620(4)
O11_25 O 0.71769(5) 0.52660(5) 0.68025(5)
O12_19 O 0.71769(5) 0.68025(5) 0.52660(5)
O14_19 O 0.71769(5) 0.47340(5) 0.68025(5)
O15_25 O 0.77310(10) 0.57846(9) 0.72690(10)
O17_25 O 0.75601(7) 0.54955(8) 0.68636(7)
O20_19 O 0.81364(7) 0.54955(8) 0.74399(7)
O24_25 O 0.80566(7) 0.53342(16) 0.69434(7)
C6_25 C 0.56126(12) 0.34926(12) 0.72801(13)
C7_25 C 0.72801(13) 0.56126(12) 0.65074(12)
C8_25 C 0.72801(13) 0.65074(12) 0.56126(12)
C9_25 C 0.55940(13) 0.36570(14) 0.70691(14)
C10_25 C 0.70691(14) 0.55940(13) 0.63430(14)
C11_25 C 0.70691(14) 0.63430(14) 0.55940(13)
H2_25 H 0.5465 0.3641 0.6935
H3_25 H 0.6935 0.5465 0.6359
H4_25 H 0.6935 0.6359 0.5465
C12_25 C 0.57950(15) 0.38581(16) 0.70759(15)
C13_25 C 0.70759(15) 0.57950(15) 0.61419(16)
C14_25 C 0.70759(15) 0.61419(16) 0.57950(15)
C15_25 C 0.54435(9) 0.32574(9) 0.73446(10)
C16_25 C 0.73446(10) 0.54435(9) 0.67426(9)
C17_25 C 0.73446(10) 0.67426(9) 0.54435(9)
C18_25 C 0.59538(13) 0.38430(13) 0.72956(14)
C19_25 C 0.72956(14) 0.59538(13) 0.61570(13)
C20_25 C 0.72956(14) 0.61570(13) 0.59538(13)
S1_26 S 0.08896(7) 0.08896(7) 0.68539(7)
S2_26 S 0.08620(4) 0.14141(3) 0.75047(4)
O1_21 O 0.03497(14) 0.23303(8) 0.73303(8)
O2_26 O 0.02660(5) 0.18025(5) 0.71769(5)
O3_26 O 0.07846(9) 0.22690(10) 0.77310(10)
O4_26 O 0.04955(8) 0.18636(7) 0.75601(7)
O5_29 O -0.0000 0.25755(9) 0.70842(13)
O6_26 O 0.03342(16) 0.19434(7) 0.80566(7)
C1_26 C 0.06126(12) 0.15074(12) 0.72801(13)
C2_26 C 0.05940(13) 0.13430(14) 0.70691(14)
H1_26 H 0.0465 0.1359 0.6935
C3_26 C 0.07950(15) 0.11419(16) 0.70759(15)
C4_26 C 0.04435(9) 0.17426(9) 0.73446(10)
C5_26 C 0.09538(13) 0.11570(13) 0.72956(14)
S4_26 S 0.14141(3) 0.08620(4) 0.75047(4)
O8_21 O 0.03497(14) 0.26697(8) 0.76697(8)
O16_21 O 0.18636(7) 0.04955(8) 0.75601(7)
O21_29 O -0.0000 0.20842(13) 0.75755(9)
O22_29 O -0.0000 0.24245(9) 0.79158(13)
O23_29 O -0.0000 0.29158(13) 0.74245(9)
C6_26 C 0.15074(12) 0.06126(12) 0.72801(13)
C9_26 C 0.13430(14) 0.05940(13) 0.70691(14)
H2_26 H 0.1359 0.0465 0.6935
C12_26 C 0.11419(16) 0.07950(15) 0.70759(15)
C15_26 C 0.17426(9) 0.04435(9) 0.73446(10)
C18_26 C 0.11570(13) 0.09538(13) 0.72956(14)
O5_30 O 1.0000 0.25755(9) 0.70842(13)
S3_26 S 0.91104(7) 0.18539(7) 0.58896(7)
S5_26 S 0.91380(4) 0.25047(4) 0.64141(3)
S6_26 S 0.85859(3) 0.25047(4) 0.58620(4)
O7_21 O 0.96503(14) 0.23303(8) 0.73303(8)
O9_21 O 0.96503(14) 0.26697(8) 0.76697(8)
O11_26 O 0.97340(5) 0.21769(5) 0.68025(5)
O15_26 O 0.92154(9) 0.27310(10) 0.72690(10)
O17_26 O 0.95045(8) 0.25601(7) 0.68636(7)
O18_21 O 0.81364(7) 0.25601(7) 0.54955(8)
O21_30 O 1.0000 0.20842(13) 0.75755(9)
O22_30 O 1.0000 0.24245(9) 0.79158(13)
O23_30 O 1.0000 0.29158(13) 0.74245(9)
O24_26 O 0.96658(16) 0.30566(7) 0.69434(7)
C7_26 C 0.93874(12) 0.22801(13) 0.65074(12)
C8_26 C 0.84926(12) 0.22801(13) 0.56126(12)
C10_26 C 0.94060(13) 0.20691(14) 0.63430(14)
C11_26 C 0.86570(14) 0.20691(14) 0.55940(13)
H3_26 H 0.9535 0.1935 0.6359
H4_26 H 0.8641 0.1935 0.5465
C13_26 C 0.92050(15) 0.20759(15) 0.61419(16)
C14_26 C 0.88581(16) 0.20759(15) 0.57950(15)
C16_26 C 0.95565(9) 0.23446(10) 0.67426(9)
C17_26 C 0.82574(9) 0.23446(10) 0.54435(9)
C19_26 C 0.90462(13) 0.22956(14) 0.61570(13)
C20_26 C 0.88430(13) 0.22956(14) 0.59538(13)
S1_27 S 0.41104(7) 0.58896(7) 0.68539(7)
S2_27 S 0.35859(3) 0.58620(4) 0.75047(4)
O2_27 O 0.31975(5) 0.52660(5) 0.71769(5)
O3_27 O 0.27310(10) 0.57846(9) 0.77310(10)
O4_27 O 0.31364(7) 0.54955(8) 0.75601(7)
O6_27 O 0.30566(7) 0.53342(16) 0.80566(7)
C1_27 C 0.34926(12) 0.56126(12) 0.72801(13)
C2_27 C 0.36570(14) 0.55940(13) 0.70691(14)
H1_27 H 0.3641 0.5465 0.6935
C3_27 C 0.38581(16) 0.57950(15) 0.70759(15)
C4_27 C 0.32574(9) 0.54435(9) 0.73446(10)
C5_27 C 0.38430(13) 0.59538(13) 0.72956(14)
S3_27 S 0.31461(7) 0.41104(7) 0.58896(7)
S4_27 S 0.41380(4) 0.64141(3) 0.75047(4)
S5_27 S 0.24953(4) 0.41380(4) 0.64141(3)
S6_27 S 0.24953(4) 0.35859(3) 0.58620(4)
O11_27 O 0.28231(5) 0.47340(5) 0.68025(5)
O12_20 O 0.28231(5) 0.31975(5) 0.52660(5)
O14_20 O 0.28231(5) 0.52660(5) 0.68025(5)
O15_27 O 0.22690(10) 0.42154(9) 0.72690(10)
O17_27 O 0.24399(7) 0.45045(8) 0.68636(7)
O20_20 O 0.18636(7) 0.45045(8) 0.74399(7)
O24_27 O 0.19434(7) 0.46658(16) 0.69434(7)
C6_27 C 0.43874(12) 0.65074(12) 0.72801(13)
C7_27 C 0.27199(13) 0.43874(12) 0.65074(12)
C8_27 C 0.27199(13) 0.34926(12) 0.56126(12)
C9_27 C 0.44060(13) 0.63430(14) 0.70691(14)
C10_27 C 0.29309(14) 0.44060(13) 0.63430(14)
C11_27 C 0.29309(14) 0.36570(14) 0.55940(13)
H2_27 H 0.4535 0.6359 0.6935
H3_27 H 0.3065 0.4535 0.6359
H4_27 H 0.3065 0.3641 0.5465
C12_27 C 0.42050(15) 0.61419(16) 0.70759(15)
C13_27 C 0.29241(15) 0.42050(15) 0.61419(16)
C14_27 C 0.29241(15) 0.38581(16) 0.57950(15)
C15_27 C 0.45565(9) 0.67426(9) 0.73446(10)
C16_27 C 0.26554(10) 0.45565(9) 0.67426(9)
C17_27 C 0.26554(10) 0.32574(9) 0.54435(9)
C18_27 C 0.40462(13) 0.61570(13) 0.72956(14)
C19_27 C 0.27044(14) 0.40462(13) 0.61570(13)
C20_27 C 0.27044(14) 0.38430(13) 0.59538(13)
O5_31 O -0.0000 0.74245(9) 0.70842(13)
S3_28 S 0.08896(7) 0.81461(7) 0.58896(7)
S5_28 S 0.08620(4) 0.74953(4) 0.64141(3)
S6_28 S 0.14141(3) 0.74953(4) 0.58620(4)
O7_22 O 0.03497(14) 0.76697(8) 0.73303(8)
O9_22 O 0.03497(14) 0.73303(8) 0.76697(8)
O11_28 O 0.02660(5) 0.78231(5) 0.68025(5)
O15_28 O 0.07846(9) 0.72690(10) 0.72690(10)
O17_28 O 0.04955(8) 0.74399(7) 0.68636(7)
O18_22 O 0.18636(7) 0.74399(7) 0.54955(8)
O21_31 O 0.0000 0.79158(13) 0.75755(9)
O22_31 O 0.0000 0.75755(9) 0.79158(13)
O23_31 O -0.0000 0.70842(13) 0.74245(9)
O24_28 O 0.03342(16) 0.69434(7) 0.69434(7)
C7_28 C 0.06126(12) 0.77199(13) 0.65074(12)
C8_28 C 0.15074(12) 0.77199(13) 0.56126(12)
C10_28 C 0.05940(13) 0.79309(14) 0.63430(14)
C11_28 C 0.13430(14) 0.79309(14) 0.55940(13)
H3_28 H 0.0465 0.8065 0.6359
H4_28 H 0.1359 0.8065 0.5465
C13_28 C 0.07950(15) 0.79241(15) 0.61419(16)
C14_28 C 0.11419(16) 0.79241(15) 0.57950(15)
C16_28 C 0.04435(9) 0.76554(10) 0.67426(9)
C17_28 C 0.17426(9) 0.76554(10) 0.54435(9)
C19_28 C 0.09538(13) 0.77044(14) 0.61570(13)
C20_28 C 0.11570(13) 0.77044(14) 0.59538(13)
S1_28 S 0.91104(7) 0.91104(7) 0.68539(7)
S2_28 S 0.91380(4) 0.85859(3) 0.75047(4)
O1_22 O 0.96503(14) 0.76697(8) 0.73303(8)
O2_28 O 0.97340(5) 0.81975(5) 0.71769(5)
O3_28 O 0.92154(9) 0.77310(10) 0.77310(10)
O4_28 O 0.95045(8) 0.81364(7) 0.75601(7)
O5_32 O 1.0000 0.74245(9) 0.70842(13)
O6_28 O 0.96658(16) 0.80566(7) 0.80566(7)
C1_28 C 0.93874(12) 0.84926(12) 0.72801(13)
C2_28 C 0.94060(13) 0.86570(14) 0.70691(14)
H1_28 H 0.9535 0.8641 0.6935
C3_28 C 0.92050(15) 0.88581(16) 0.70759(15)
C4_28 C 0.95565(9) 0.82574(9) 0.73446(10)
C5_28 C 0.90462(13) 0.88430(13) 0.72956(14)
S4_28 S 0.85859(3) 0.91380(4) 0.75047(4)
O8_22 O 0.96503(14) 0.73303(8) 0.76697(8)
O16_22 O 0.81364(7) 0.95045(8) 0.75601(7)
O21_32 O 1.0000 0.79158(13) 0.75755(9)
O22_32 O 1.0000 0.75755(9) 0.79158(13)
O23_32 O 1.0000 0.70842(13) 0.74245(9)
C6_28 C 0.84926(12) 0.93874(12) 0.72801(13)
C9_28 C 0.86570(14) 0.94060(13) 0.70691(14)
H2_28 H 0.8641 0.9535 0.6935
C12_28 C 0.88581(16) 0.92050(15) 0.70759(15)
C15_28 C 0.82574(9) 0.95565(9) 0.73446(10)
C18_28 C 0.88430(13) 0.90462(13) 0.72956(14)
S1_29 S 0.58896(7) 0.58896(7) 0.31461(7)
S2_29 S 0.64141(3) 0.58620(4) 0.24953(4)
O2_29 O 0.68025(5) 0.52660(5) 0.28231(5)
O3_29 O 0.72690(10) 0.57846(9) 0.22690(10)
O4_29 O 0.68636(7) 0.54955(8) 0.24399(7)
O6_29 O 0.69434(7) 0.53342(16) 0.19434(7)
C1_29 C 0.65074(12) 0.56126(12) 0.27199(13)
C2_29 C 0.63430(14) 0.55940(13) 0.29309(14)
H1_29 H 0.6359 0.5465 0.3065
C3_29 C 0.61419(16) 0.57950(15) 0.29241(15)
C4_29 C 0.67426(9) 0.54435(9) 0.26554(10)
C5_29 C 0.61570(13) 0.59538(13) 0.27044(14)
S3_29 S 0.68539(7) 0.41104(7) 0.41104(7)
S4_29 S 0.58620(4) 0.64141(3) 0.24953(4)
S5_29 S 0.75047(4) 0.41380(4) 0.35859(3)
S6_29 S 0.75047(4) 0.35859(3) 0.41380(4)
O11_29 O 0.71769(5) 0.47340(5) 0.31975(5)
O12_21 O 0.71769(5) 0.31975(5) 0.47340(5)
O14_21 O 0.71769(5) 0.52660(5) 0.31975(5)
O15_29 O 0.77310(10) 0.42154(9) 0.27310(10)
O17_29 O 0.75601(7) 0.45045(8) 0.31364(7)
O20_21 O 0.81364(7) 0.45045(8) 0.25601(7)
O24_29 O 0.80566(7) 0.46658(16) 0.30566(7)
C6_29 C 0.56126(12) 0.65074(12) 0.27199(13)
C7_29 C 0.72801(13) 0.43874(12) 0.34926(12)
C8_29 C 0.72801(13) 0.34926(12) 0.43874(12)
C9_29 C 0.55940(13) 0.63430(14) 0.29309(14)
C10_29 C 0.70691(14) 0.44060(13) 0.36570(14)
C11_29 C 0.70691(14) 0.36570(14) 0.44060(13)
H2_29 H 0.5465 0.6359 0.3065
H3_29 H 0.6935 0.4535 0.3641
H4_29 H 0.6935 0.3641 0.4535
C12_29 C 0.57950(15) 0.61419(16) 0.29241(15)
C13_29 C 0.70759(15) 0.42050(15) 0.38581(16)
C14_29 C 0.70759(15) 0.38581(16) 0.42050(15)
C15_29 C 0.54435(9) 0.67426(9) 0.26554(10)
C16_29 C 0.73446(10) 0.45565(9) 0.32574(9)
C17_29 C 0.73446(10) 0.32574(9) 0.45565(9)
C18_29 C 0.59538(13) 0.61570(13) 0.27044(14)
C19_29 C 0.72956(14) 0.40462(13) 0.38430(13)
C20_29 C 0.72956(14) 0.38430(13) 0.40462(13)
O5_33 O -0.0000 0.25755(9) 0.29158(13)
S3_30 S 0.08896(7) 0.18539(7) 0.41104(7)
S5_30 S 0.08620(4) 0.25047(4) 0.35859(3)
S6_30 S 0.14141(3) 0.25047(4) 0.41380(4)
O7_23 O 0.03497(14) 0.23303(8) 0.26697(8)
O9_23 O 0.03497(14) 0.26697(8) 0.23303(8)
O11_30 O 0.02660(5) 0.21769(5) 0.31975(5)
O15_30 O 0.07846(9) 0.27310(10) 0.27310(10)
O17_30 O 0.04955(8) 0.25601(7) 0.31364(7)
O18_23 O 0.18636(7) 0.25601(7) 0.45045(8)
O21_33 O -0.0000 0.20842(13) 0.24245(9)
O22_33 O 0.0000 0.24245(9) 0.20842(13)
O23_33 O -0.0000 0.29158(13) 0.25755(9)
O24_30 O 0.03342(16) 0.30566(7) 0.30566(7)
C7_30 C 0.06126(12) 0.22801(13) 0.34926(12)
C8_30 C 0.15074(12) 0.22801(13) 0.43874(12)
C10_30 C 0.05940(13) 0.20691(14) 0.36570(14)
C11_30 C 0.13430(14) 0.20691(14) 0.44060(13)
H3_30 H 0.0465 0.1935 0.3641
H4_30 H 0.1359 0.1935 0.4535
C13_30 C 0.07950(15) 0.20759(15) 0.38581(16)
C14_30 C 0.11419(16) 0.20759(15) 0.42050(15)
C16_30 C 0.04435(9) 0.23446(10) 0.32574(9)
C17_30 C 0.17426(9) 0.23446(10) 0.45565(9)
C19_30 C 0.09538(13) 0.22956(14) 0.38430(13)
C20_30 C 0.11570(13) 0.22956(14) 0.40462(13)
S1_30 S 0.91104(7) 0.08896(7) 0.31461(7)
S2_30 S 0.91380(4) 0.14141(3) 0.24953(4)
O1_23 O 0.96503(14) 0.23303(8) 0.26697(8)
O2_30 O 0.97340(5) 0.18025(5) 0.28231(5)
O3_30 O 0.92154(9) 0.22690(10) 0.22690(10)
O4_30 O 0.95045(8) 0.18636(7) 0.24399(7)
O5_34 O 1.0000 0.25755(9) 0.29158(13)
O6_30 O 0.96658(16) 0.19434(7) 0.19434(7)
C1_30 C 0.93874(12) 0.15074(12) 0.27199(13)
C2_30 C 0.94060(13) 0.13430(14) 0.29309(14)
H1_30 H 0.9535 0.1359 0.3065
C3_30 C 0.92050(15) 0.11419(16) 0.29241(15)
C4_30 C 0.95565(9) 0.17426(9) 0.26554(10)
C5_30 C 0.90462(13) 0.11570(13) 0.27044(14)
S4_30 S 0.85859(3) 0.08620(4) 0.24953(4)
O8_23 O 0.96503(14) 0.26697(8) 0.23303(8)
O16_23 O 0.81364(7) 0.04955(8) 0.24399(7)
O21_34 O 1.0000 0.20842(13) 0.24245(9)
O22_34 O 1.0000 0.24245(9) 0.20842(13)
O23_34 O 1.0000 0.29158(13) 0.25755(9)
C6_30 C 0.84926(12) 0.06126(12) 0.27199(13)
C9_30 C 0.86570(14) 0.05940(13) 0.29309(14)
H2_30 H 0.8641 0.0465 0.3065
C12_30 C 0.88581(16) 0.07950(15) 0.29241(15)
C15_30 C 0.82574(9) 0.04435(9) 0.26554(10)
C18_30 C 0.88430(13) 0.09538(13) 0.27044(14)
S1_31 S 0.41104(7) 0.41104(7) 0.31461(7)
S2_31 S 0.35859(3) 0.41380(4) 0.24953(4)
O2_31 O 0.31975(5) 0.47340(5) 0.28231(5)
O3_31 O 0.27310(10) 0.42154(9) 0.22690(10)
O4_31 O 0.31364(7) 0.45045(8) 0.24399(7)
O6_31 O 0.30566(7) 0.46658(16) 0.19434(7)
C1_31 C 0.34926(12) 0.43874(12) 0.27199(13)
C2_31 C 0.36570(14) 0.44060(13) 0.29309(14)
H1_31 H 0.3641 0.4535 0.3065
C3_31 C 0.38581(16) 0.42050(15) 0.29241(15)
C4_31 C 0.32574(9) 0.45565(9) 0.26554(10)
C5_31 C 0.38430(13) 0.40462(13) 0.27044(14)
S3_31 S 0.31461(7) 0.58896(7) 0.41104(7)
S4_31 S 0.41380(4) 0.35859(3) 0.24953(4)
S5_31 S 0.24953(4) 0.58620(4) 0.35859(3)
S6_31 S 0.24953(4) 0.64141(3) 0.41380(4)
O11_31 O 0.28231(5) 0.52660(5) 0.31975(5)
O12_22 O 0.28231(5) 0.68025(5) 0.47340(5)
O14_22 O 0.28231(5) 0.47340(5) 0.31975(5)
O15_31 O 0.22690(10) 0.57846(9) 0.27310(10)
O17_31 O 0.24399(7) 0.54955(8) 0.31364(7)
O20_22 O 0.18636(7) 0.54955(8) 0.25601(7)
O24_31 O 0.19434(7) 0.53342(16) 0.30566(7)
C6_31 C 0.43874(12) 0.34926(12) 0.27199(13)
C7_31 C 0.27199(13) 0.56126(12) 0.34926(12)
C8_31 C 0.27199(13) 0.65074(12) 0.43874(12)
C9_31 C 0.44060(13) 0.36570(14) 0.29309(14)
C10_31 C 0.29309(14) 0.55940(13) 0.36570(14)
C11_31 C 0.29309(14) 0.63430(14) 0.44060(13)
H2_31 H 0.4535 0.3641 0.3065
H3_31 H 0.3065 0.5465 0.3641
H4_31 H 0.3065 0.6359 0.4535
C12_31 C 0.42050(15) 0.38581(16) 0.29241(15)
C13_31 C 0.29241(15) 0.57950(15) 0.38581(16)
C14_31 C 0.29241(15) 0.61419(16) 0.42050(15)
C15_31 C 0.45565(9) 0.32574(9) 0.26554(10)
C16_31 C 0.26554(10) 0.54435(9) 0.32574(9)
C17_31 C 0.26554(10) 0.67426(9) 0.45565(9)
C18_31 C 0.40462(13) 0.38430(13) 0.27044(14)
C19_31 C 0.27044(14) 0.59538(13) 0.38430(13)
C20_31 C 0.27044(14) 0.61570(13) 0.40462(13)
S1_32 S 0.08896(7) 0.91104(7) 0.31461(7)
S2_32 S 0.08620(4) 0.85859(3) 0.24953(4)
O1_24 O 0.03497(14) 0.76697(8) 0.26697(8)
O2_32 O 0.02660(5) 0.81975(5) 0.28231(5)
O3_32 O 0.07846(9) 0.77310(10) 0.22690(10)
O4_32 O 0.04955(8) 0.81364(7) 0.24399(7)
O5_35 O -0.0000 0.74245(9) 0.29158(13)
O6_32 O 0.03342(16) 0.80566(7) 0.19434(7)
C1_32 C 0.06126(12) 0.84926(12) 0.27199(13)
C2_32 C 0.05940(13) 0.86570(14) 0.29309(14)
H1_32 H 0.0465 0.8641 0.3065
C3_32 C 0.07950(15) 0.88581(16) 0.29241(15)
C4_32 C 0.04435(9) 0.82574(9) 0.26554(10)
C5_32 C 0.09538(13) 0.88430(13) 0.27044(14)
S4_32 S 0.14141(3) 0.91380(4) 0.24953(4)
O8_24 O 0.03497(14) 0.73303(8) 0.23303(8)
O16_24 O 0.18636(7) 0.95045(8) 0.24399(7)
O21_35 O -0.0000 0.79158(13) 0.24245(9)
O22_35 O -0.0000 0.75755(9) 0.20842(13)
O23_35 O -0.0000 0.70842(13) 0.25755(9)
C6_32 C 0.15074(12) 0.93874(12) 0.27199(13)
C9_32 C 0.13430(14) 0.94060(13) 0.29309(14)
H2_32 H 0.1359 0.9535 0.3065
C12_32 C 0.11419(16) 0.92050(15) 0.29241(15)
C15_32 C 0.17426(9) 0.95565(9) 0.26554(10)
C18_32 C 0.11570(13) 0.90462(13) 0.27044(14)
O5_36 O 1.0000 0.74245(9) 0.29158(13)
S3_32 S 0.91104(7) 0.81461(7) 0.41104(7)
S5_32 S 0.91380(4) 0.74953(4) 0.35859(3)
S6_32 S 0.85859(3) 0.74953(4) 0.41380(4)
O7_24 O 0.96503(14) 0.76697(8) 0.26697(8)
O9_24 O 0.96503(14) 0.73303(8) 0.23303(8)
O11_32 O 0.97340(5) 0.78231(5) 0.31975(5)
O15_32 O 0.92154(9) 0.72690(10) 0.27310(10)
O17_32 O 0.95045(8) 0.74399(7) 0.31364(7)
O18_24 O 0.81364(7) 0.74399(7) 0.45045(8)
O21_36 O 1.0000 0.79158(13) 0.24245(9)
O22_36 O 1.0000 0.75755(9) 0.20842(13)
O23_36 O 1.0000 0.70842(13) 0.25755(9)
O24_32 O 0.96658(16) 0.69434(7) 0.30566(7)
C7_32 C 0.93874(12) 0.77199(13) 0.34926(12)
C8_32 C 0.84926(12) 0.77199(13) 0.43874(12)
C10_32 C 0.94060(13) 0.79309(14) 0.36570(14)
C11_32 C 0.86570(14) 0.79309(14) 0.44060(13)
H3_32 H 0.9535 0.8065 0.3641
H4_32 H 0.8641 0.8065 0.4535
C13_32 C 0.92050(15) 0.79241(15) 0.38581(16)
C14_32 C 0.88581(16) 0.79241(15) 0.42050(15)
C16_32 C 0.95565(9) 0.76554(10) 0.32574(9)
C17_32 C 0.82574(9) 0.76554(10) 0.45565(9)
C19_32 C 0.90462(13) 0.77044(14) 0.38430(13)
C20_32 C 0.88430(13) 0.77044(14) 0.40462(13)
S3_33 S 0.58896(7) 0.18539(7) 0.08896(7)
S5_33 S 0.64141(3) 0.25047(4) 0.08620(4)
S6_33 S 0.58620(4) 0.25047(4) 0.14141(3)
O11_33 O 0.68025(5) 0.21769(5) 0.02660(5)
O13_23 O 0.71769(5) 0.18025(5) 0.02660(5)
O15_33 O 0.72690(10) 0.27310(10) 0.07846(9)
O17_33 O 0.68636(7) 0.25601(7) 0.04955(8)
O24_33 O 0.69434(7) 0.30566(7) 0.03342(16)
C7_33 C 0.65074(12) 0.22801(13) 0.06126(12)
C8_33 C 0.56126(12) 0.22801(13) 0.15074(12)
C10_33 C 0.63430(14) 0.20691(14) 0.05940(13)
C11_33 C 0.55940(13) 0.20691(14) 0.13430(14)
H3_33 H 0.6359 0.1935 0.0465
H4_33 H 0.5465 0.1935 0.1359
C13_33 C 0.61419(16) 0.20759(15) 0.07950(15)
C14_33 C 0.57950(15) 0.20759(15) 0.11419(16)
C16_33 C 0.67426(9) 0.23446(10) 0.04435(9)
C17_33 C 0.54435(9) 0.23446(10) 0.17426(9)
C19_33 C 0.61570(13) 0.22956(14) 0.09538(13)
C20_33 C 0.59538(13) 0.22956(14) 0.11570(13)
S1_33 S 0.68539(7) 0.08896(7) 0.91104(7)
S2_33 S 0.75047(4) 0.14141(3) 0.91380(4)
O2_33 O 0.71769(5) 0.18025(5) 0.97340(5)
O3_33 O 0.77310(10) 0.22690(10) 0.92154(9)
O4_33 O 0.75601(7) 0.18636(7) 0.95045(8)
O6_33 O 0.80566(7) 0.19434(7) 0.96658(16)
C1_33 C 0.72801(13) 0.15074(12) 0.93874(12)
C2_33 C 0.70691(14) 0.13430(14) 0.94060(13)
H1_33 H 0.6935 0.1359 0.9535
C3_33 C 0.70759(15) 0.11419(16) 0.92050(15)
C4_33 C 0.73446(10) 0.17426(9) 0.95565(9)
C5_33 C 0.72956(14) 0.11570(13) 0.90462(13)
S4_33 S 0.75047(4) 0.08620(4) 0.85859(3)
O10_23 O 0.71769(5) 0.02660(5) 0.81975(5)
O19_23 O 0.81364(7) 0.24399(7) 0.95045(8)
C6_33 C 0.72801(13) 0.06126(12) 0.84926(12)
C9_33 C 0.70691(14) 0.05940(13) 0.86570(14)
H2_33 H 0.6935 0.0465 0.8641
C12_33 C 0.70759(15) 0.07950(15) 0.88581(16)
C15_33 C 0.73446(10) 0.04435(9) 0.82574(9)
C18_33 C 0.72956(14) 0.09538(13) 0.88430(13)
S3_34 S 0.31461(7) 0.08896(7) 0.08896(7)
S5_34 S 0.24953(4) 0.14141(3) 0.08620(4)
S6_34 S 0.24953(4) 0.08620(4) 0.14141(3)
O11_34 O 0.28231(5) 0.18025(5) 0.02660(5)
O12_23 O 0.28231(5) 0.02660(5) 0.18025(5)
O15_34 O 0.22690(10) 0.22690(10) 0.07846(9)
O17_34 O 0.24399(7) 0.18636(7) 0.04955(8)
O20_23 O 0.18636(7) 0.24399(7) 0.04955(8)
O24_34 O 0.19434(7) 0.19434(7) 0.03342(16)
C7_34 C 0.27199(13) 0.15074(12) 0.06126(12)
C8_34 C 0.27199(13) 0.06126(12) 0.15074(12)
C10_34 C 0.29309(14) 0.13430(14) 0.05940(13)
C11_34 C 0.29309(14) 0.05940(13) 0.13430(14)
H3_34 H 0.3065 0.1359 0.0465
H4_34 H 0.3065 0.0465 0.1359
C13_34 C 0.29241(15) 0.11419(16) 0.07950(15)
C14_34 C 0.29241(15) 0.07950(15) 0.11419(16)
C16_34 C 0.26554(10) 0.17426(9) 0.04435(9)
C17_34 C 0.26554(10) 0.04435(9) 0.17426(9)
C19_34 C 0.27044(14) 0.11570(13) 0.09538(13)
C20_34 C 0.27044(14) 0.09538(13) 0.11570(13)
S1_34 S 0.41104(7) 0.18539(7) 0.91104(7)
S2_34 S 0.35859(3) 0.25047(4) 0.91380(4)
O2_34 O 0.31975(5) 0.21769(5) 0.97340(5)
O3_34 O 0.27310(10) 0.27310(10) 0.92154(9)
O4_34 O 0.31364(7) 0.25601(7) 0.95045(8)
O6_34 O 0.30566(7) 0.30566(7) 0.96658(16)
C1_34 C 0.34926(12) 0.22801(13) 0.93874(12)
C2_34 C 0.36570(14) 0.20691(14) 0.94060(13)
H1_34 H 0.3641 0.1935 0.9535
C3_34 C 0.38581(16) 0.20759(15) 0.92050(15)
C4_34 C 0.32574(9) 0.23446(10) 0.95565(9)
C5_34 C 0.38430(13) 0.22956(14) 0.90462(13)
S4_34 S 0.41380(4) 0.25047(4) 0.85859(3)
O14_23 O 0.28231(5) 0.18025(5) 0.97340(5)
C6_34 C 0.43874(12) 0.22801(13) 0.84926(12)
C9_34 C 0.44060(13) 0.20691(14) 0.86570(14)
H2_34 H 0.4535 0.1935 0.8641
C12_34 C 0.42050(15) 0.20759(15) 0.88581(16)
C15_34 C 0.45565(9) 0.23446(10) 0.82574(9)
C18_34 C 0.40462(13) 0.22956(14) 0.88430(13)
S3_35 S 0.41104(7) 0.81461(7) 0.08896(7)
S5_35 S 0.35859(3) 0.74953(4) 0.08620(4)
S6_35 S 0.41380(4) 0.74953(4) 0.14141(3)
O11_35 O 0.31975(5) 0.78231(5) 0.02660(5)
O13_24 O 0.28231(5) 0.81975(5) 0.02660(5)
O15_35 O 0.27310(10) 0.72690(10) 0.07846(9)
O17_35 O 0.31364(7) 0.74399(7) 0.04955(8)
O24_35 O 0.30566(7) 0.69434(7) 0.03342(16)
C7_35 C 0.34926(12) 0.77199(13) 0.06126(12)
C8_35 C 0.43874(12) 0.77199(13) 0.15074(12)
C10_35 C 0.36570(14) 0.79309(14) 0.05940(13)
C11_35 C 0.44060(13) 0.79309(14) 0.13430(14)
H3_35 H 0.3641 0.8065 0.0465
H4_35 H 0.4535 0.8065 0.1359
C13_35 C 0.38581(16) 0.79241(15) 0.07950(15)
C14_35 C 0.42050(15) 0.79241(15) 0.11419(16)
C16_35 C 0.32574(9) 0.76554(10) 0.04435(9)
C17_35 C 0.45565(9) 0.76554(10) 0.17426(9)
C19_35 C 0.38430(13) 0.77044(14) 0.09538(13)
C20_35 C 0.40462(13) 0.77044(14) 0.11570(13)
S1_35 S 0.31461(7) 0.91104(7) 0.91104(7)
S2_35 S 0.24953(4) 0.85859(3) 0.91380(4)
O2_35 O 0.28231(5) 0.81975(5) 0.97340(5)
O3_35 O 0.22690(10) 0.77310(10) 0.92154(9)
O4_35 O 0.24399(7) 0.81364(7) 0.95045(8)
O6_35 O 0.19434(7) 0.80566(7) 0.96658(16)
C1_35 C 0.27199(13) 0.84926(12) 0.93874(12)
C2_35 C 0.29309(14) 0.86570(14) 0.94060(13)
H1_35 H 0.3065 0.8641 0.9535
C3_35 C 0.29241(15) 0.88581(16) 0.92050(15)
C4_35 C 0.26554(10) 0.82574(9) 0.95565(9)
C5_35 C 0.27044(14) 0.88430(13) 0.90462(13)
S4_35 S 0.24953(4) 0.91380(4) 0.85859(3)
O10_24 O 0.28231(5) 0.97340(5) 0.81975(5)
O19_24 O 0.18636(7) 0.75601(7) 0.95045(8)
C6_35 C 0.27199(13) 0.93874(12) 0.84926(12)
C9_35 C 0.29309(14) 0.94060(13) 0.86570(14)
H2_35 H 0.3065 0.9535 0.8641
C12_35 C 0.29241(15) 0.92050(15) 0.88581(16)
C15_35 C 0.26554(10) 0.95565(9) 0.82574(9)
C18_35 C 0.27044(14) 0.90462(13) 0.88430(13)
S3_36 S 0.68539(7) 0.91104(7) 0.08896(7)
S5_36 S 0.75047(4) 0.85859(3) 0.08620(4)
S6_36 S 0.75047(4) 0.91380(4) 0.14141(3)
O11_36 O 0.71769(5) 0.81975(5) 0.02660(5)
O12_24 O 0.71769(5) 0.97340(5) 0.18025(5)
O15_36 O 0.77310(10) 0.77310(10) 0.07846(9)
O17_36 O 0.75601(7) 0.81364(7) 0.04955(8)
O20_24 O 0.81364(7) 0.75601(7) 0.04955(8)
O24_36 O 0.80566(7) 0.80566(7) 0.03342(16)
C7_36 C 0.72801(13) 0.84926(12) 0.06126(12)
C8_36 C 0.72801(13) 0.93874(12) 0.15074(12)
C10_36 C 0.70691(14) 0.86570(14) 0.05940(13)
C11_36 C 0.70691(14) 0.94060(13) 0.13430(14)
H3_36 H 0.6935 0.8641 0.0465
H4_36 H 0.6935 0.9535 0.1359
C13_36 C 0.70759(15) 0.88581(16) 0.07950(15)
C14_36 C 0.70759(15) 0.92050(15) 0.11419(16)
C16_36 C 0.73446(10) 0.82574(9) 0.04435(9)
C17_36 C 0.73446(10) 0.95565(9) 0.17426(9)
C19_36 C 0.72956(14) 0.88430(13) 0.09538(13)
C20_36 C 0.72956(14) 0.90462(13) 0.11570(13)
S1_36 S 0.58896(7) 0.81461(7) 0.91104(7)
S2_36 S 0.64141(3) 0.74953(4) 0.91380(4)
O2_36 O 0.68025(5) 0.78231(5) 0.97340(5)
O3_36 O 0.72690(10) 0.72690(10) 0.92154(9)
O4_36 O 0.68636(7) 0.74399(7) 0.95045(8)
O6_36 O 0.69434(7) 0.69434(7) 0.96658(16)
C1_36 C 0.65074(12) 0.77199(13) 0.93874(12)
C2_36 C 0.63430(14) 0.79309(14) 0.94060(13)
H1_36 H 0.6359 0.8065 0.9535
C3_36 C 0.61419(16) 0.79241(15) 0.92050(15)
C4_36 C 0.67426(9) 0.76554(10) 0.95565(9)
C5_36 C 0.61570(13) 0.77044(14) 0.90462(13)
S4_36 S 0.58620(4) 0.74953(4) 0.85859(3)
O14_24 O 0.71769(5) 0.81975(5) 0.97340(5)
C6_36 C 0.56126(12) 0.77199(13) 0.84926(12)
C9_36 C 0.55940(13) 0.79309(14) 0.86570(14)
H2_36 H 0.5465 0.8065 0.8641
C12_36 C 0.57950(15) 0.79241(15) 0.88581(16)
C15_36 C 0.54435(9) 0.76554(10) 0.82574(9)
C18_36 C 0.59538(13) 0.77044(14) 0.88430(13)
S3_37 S 0.68539(7) 0.08896(7) 0.08896(7)
S5_37 S 0.75047(4) 0.08620(4) 0.14141(3)
S6_37 S 0.75047(4) 0.14141(3) 0.08620(4)
O11_37 O 0.71769(5) 0.02660(5) 0.18025(5)
O15_37 O 0.77310(10) 0.07846(9) 0.22690(10)
O17_37 O 0.75601(7) 0.04955(8) 0.18636(7)
O24_37 O 0.80566(7) 0.03342(16) 0.19434(7)
C7_37 C 0.72801(13) 0.06126(12) 0.15074(12)
C8_37 C 0.72801(13) 0.15074(12) 0.06126(12)
C10_37 C 0.70691(14) 0.05940(13) 0.13430(14)
C11_37 C 0.70691(14) 0.13430(14) 0.05940(13)
H3_37 H 0.6935 0.0465 0.1359
H4_37 H 0.6935 0.1359 0.0465
C13_37 C 0.70759(15) 0.07950(15) 0.11419(16)
C14_37 C 0.70759(15) 0.11419(16) 0.07950(15)
C16_37 C 0.73446(10) 0.04435(9) 0.17426(9)
C17_37 C 0.73446(10) 0.17426(9) 0.04435(9)
C19_37 C 0.72956(14) 0.09538(13) 0.11570(13)
C20_37 C 0.72956(14) 0.11570(13) 0.09538(13)
S1_37 S 0.58896(7) 0.91104(7) 0.18539(7)
S2_37 S 0.64141(3) 0.91380(4) 0.25047(4)
O2_37 O 0.68025(5) 0.97340(5) 0.21769(5)
O3_37 O 0.72690(10) 0.92154(9) 0.27310(10)
O4_37 O 0.68636(7) 0.95045(8) 0.25601(7)
O6_37 O 0.69434(7) 0.96658(16) 0.30566(7)
C1_37 C 0.65074(12) 0.93874(12) 0.22801(13)
C2_37 C 0.63430(14) 0.94060(13) 0.20691(14)
H1_37 H 0.6359 0.9535 0.1935
C3_37 C 0.61419(16) 0.92050(15) 0.20759(15)
C4_37 C 0.67426(9) 0.95565(9) 0.23446(10)
C5_37 C 0.61570(13) 0.90462(13) 0.22956(14)
S4_37 S 0.58620(4) 0.85859(3) 0.25047(4)
C6_37 C 0.56126(12) 0.84926(12) 0.22801(13)
C9_37 C 0.55940(13) 0.86570(14) 0.20691(14)
H2_37 H 0.5465 0.8641 0.1935
C12_37 C 0.57950(15) 0.88581(16) 0.20759(15)
C15_37 C 0.54435(9) 0.82574(9) 0.23446(10)
C18_37 C 0.59538(13) 0.88430(13) 0.22956(14)
S1_38 S 0.08896(7) 0.58896(7) 0.18539(7)
S2_38 S 0.08620(4) 0.64141(3) 0.25047(4)
O2_38 O 0.02660(5) 0.68025(5) 0.21769(5)
O3_38 O 0.07846(9) 0.72690(10) 0.27310(10)
O4_38 O 0.04955(8) 0.68636(7) 0.25601(7)
O6_38 O 0.03342(16) 0.69434(7) 0.30566(7)
C1_38 C 0.06126(12) 0.65074(12) 0.22801(13)
C2_38 C 0.05940(13) 0.63430(14) 0.20691(14)
H1_38 H 0.0465 0.6359 0.1935
C3_38 C 0.07950(15) 0.61419(16) 0.20759(15)
C4_38 C 0.04435(9) 0.67426(9) 0.23446(10)
C5_38 C 0.09538(13) 0.61570(13) 0.22956(14)
S4_38 S 0.14141(3) 0.58620(4) 0.25047(4)
C6_38 C 0.15074(12) 0.56126(12) 0.22801(13)
C9_38 C 0.13430(14) 0.55940(13) 0.20691(14)
H2_38 H 0.1359 0.5465 0.1935
C12_38 C 0.11419(16) 0.57950(15) 0.20759(15)
C15_38 C 0.17426(9) 0.54435(9) 0.23446(10)
C18_38 C 0.11570(13) 0.59538(13) 0.22956(14)
S3_38 S 0.91104(7) 0.68539(7) 0.08896(7)
S5_38 S 0.91380(4) 0.75047(4) 0.14141(3)
S6_38 S 0.85859(3) 0.75047(4) 0.08620(4)
O11_38 O 0.97340(5) 0.71769(5) 0.18025(5)
O15_38 O 0.92154(9) 0.77310(10) 0.22690(10)
O17_38 O 0.95045(8) 0.75601(7) 0.18636(7)
O24_38 O 0.96658(16) 0.80566(7) 0.19434(7)
C7_38 C 0.93874(12) 0.72801(13) 0.15074(12)
C8_38 C 0.84926(12) 0.72801(13) 0.06126(12)
C10_38 C 0.94060(13) 0.70691(14) 0.13430(14)
C11_38 C 0.86570(14) 0.70691(14) 0.05940(13)
H3_38 H 0.9535 0.6935 0.1359
H4_38 H 0.8641 0.6935 0.0465
C13_38 C 0.92050(15) 0.70759(15) 0.11419(16)
C14_38 C 0.88581(16) 0.70759(15) 0.07950(15)
C16_38 C 0.95565(9) 0.73446(10) 0.17426(9)
C17_38 C 0.82574(9) 0.73446(10) 0.04435(9)
C19_38 C 0.90462(13) 0.72956(14) 0.11570(13)
C20_38 C 0.88430(13) 0.72956(14) 0.09538(13)
S1_39 S 0.41104(7) 0.08896(7) 0.18539(7)
S2_39 S 0.35859(3) 0.08620(4) 0.25047(4)
O2_39 O 0.31975(5) 0.02660(5) 0.21769(5)
O3_39 O 0.27310(10) 0.07846(9) 0.27310(10)
O4_39 O 0.31364(7) 0.04955(8) 0.25601(7)
O6_39 O 0.30566(7) 0.03342(16) 0.30566(7)
C1_39 C 0.34926(12) 0.06126(12) 0.22801(13)
C2_39 C 0.36570(14) 0.05940(13) 0.20691(14)
H1_39 H 0.3641 0.0465 0.1935
C3_39 C 0.38581(16) 0.07950(15) 0.20759(15)
C4_39 C 0.32574(9) 0.04435(9) 0.23446(10)
C5_39 C 0.38430(13) 0.09538(13) 0.22956(14)
S4_39 S 0.41380(4) 0.14141(3) 0.25047(4)
C6_39 C 0.43874(12) 0.15074(12) 0.22801(13)
C9_39 C 0.44060(13) 0.13430(14) 0.20691(14)
H2_39 H 0.4535 0.1359 0.1935
C12_39 C 0.42050(15) 0.11419(16) 0.20759(15)
C15_39 C 0.45565(9) 0.17426(9) 0.23446(10)
C18_39 C 0.40462(13) 0.11570(13) 0.22956(14)
S3_39 S 0.31461(7) 0.91104(7) 0.08896(7)
S5_39 S 0.24953(4) 0.91380(4) 0.14141(3)
S6_39 S 0.24953(4) 0.85859(3) 0.08620(4)
O11_39 O 0.28231(5) 0.97340(5) 0.18025(5)
O15_39 O 0.22690(10) 0.92154(9) 0.22690(10)
O17_39 O 0.24399(7) 0.95045(8) 0.18636(7)
O24_39 O 0.19434(7) 0.96658(16) 0.19434(7)
C7_39 C 0.27199(13) 0.93874(12) 0.15074(12)
C8_39 C 0.27199(13) 0.84926(12) 0.06126(12)
C10_39 C 0.29309(14) 0.94060(13) 0.13430(14)
C11_39 C 0.29309(14) 0.86570(14) 0.05940(13)
H3_39 H 0.3065 0.9535 0.1359
H4_39 H 0.3065 0.8641 0.0465
C13_39 C 0.29241(15) 0.92050(15) 0.11419(16)
C14_39 C 0.29241(15) 0.88581(16) 0.07950(15)
C16_39 C 0.26554(10) 0.95565(9) 0.17426(9)
C17_39 C 0.26554(10) 0.82574(9) 0.04435(9)
C19_39 C 0.27044(14) 0.90462(13) 0.11570(13)
C20_39 C 0.27044(14) 0.88430(13) 0.09538(13)
S3_40 S 0.08896(7) 0.31461(7) 0.08896(7)
S5_40 S 0.08620(4) 0.24953(4) 0.14141(3)
S6_40 S 0.14141(3) 0.24953(4) 0.08620(4)
O11_40 O 0.02660(5) 0.28231(5) 0.18025(5)
O15_40 O 0.07846(9) 0.22690(10) 0.22690(10)
O17_40 O 0.04955(8) 0.24399(7) 0.18636(7)
O24_40 O 0.03342(16) 0.19434(7) 0.19434(7)
C7_40 C 0.06126(12) 0.27199(13) 0.15074(12)
C8_40 C 0.15074(12) 0.27199(13) 0.06126(12)
C10_40 C 0.05940(13) 0.29309(14) 0.13430(14)
C11_40 C 0.13430(14) 0.29309(14) 0.05940(13)
H3_40 H 0.0465 0.3065 0.1359
H4_40 H 0.1359 0.3065 0.0465
C13_40 C 0.07950(15) 0.29241(15) 0.11419(16)
C14_40 C 0.11419(16) 0.29241(15) 0.07950(15)
C16_40 C 0.04435(9) 0.26554(10) 0.17426(9)
C17_40 C 0.17426(9) 0.26554(10) 0.04435(9)
C19_40 C 0.09538(13) 0.27044(14) 0.11570(13)
C20_40 C 0.11570(13) 0.27044(14) 0.09538(13)
S1_40 S 0.91104(7) 0.41104(7) 0.18539(7)
S2_40 S 0.91380(4) 0.35859(3) 0.25047(4)
O2_40 O 0.97340(5) 0.31975(5) 0.21769(5)
O3_40 O 0.92154(9) 0.27310(10) 0.27310(10)
O4_40 O 0.95045(8) 0.31364(7) 0.25601(7)
O6_40 O 0.96658(16) 0.30566(7) 0.30566(7)
C1_40 C 0.93874(12) 0.34926(12) 0.22801(13)
C2_40 C 0.94060(13) 0.36570(14) 0.20691(14)
H1_40 H 0.9535 0.3641 0.1935
C3_40 C 0.92050(15) 0.38581(16) 0.20759(15)
C4_40 C 0.95565(9) 0.32574(9) 0.23446(10)
C5_40 C 0.90462(13) 0.38430(13) 0.22956(14)
S4_40 S 0.85859(3) 0.41380(4) 0.25047(4)
C6_40 C 0.84926(12) 0.43874(12) 0.22801(13)
C9_40 C 0.86570(14) 0.44060(13) 0.20691(14)
H2_40 H 0.8641 0.4535 0.1935
C12_40 C 0.88581(16) 0.42050(15) 0.20759(15)
C15_40 C 0.82574(9) 0.45565(9) 0.23446(10)
C18_40 C 0.88430(13) 0.40462(13) 0.22956(14)
S1_41 S 0.58896(7) 0.08896(7) 0.81461(7)
S2_41 S 0.64141(3) 0.08620(4) 0.74953(4)
O2_41 O 0.68025(5) 0.02660(5) 0.78231(5)
O3_41 O 0.72690(10) 0.07846(9) 0.72690(10)
O4_41 O 0.68636(7) 0.04955(8) 0.74399(7)
O6_41 O 0.69434(7) 0.03342(16) 0.69434(7)
C1_41 C 0.65074(12) 0.06126(12) 0.77199(13)
C2_41 C 0.63430(14) 0.05940(13) 0.79309(14)
H1_41 H 0.6359 0.0465 0.8065
C3_41 C 0.61419(16) 0.07950(15) 0.79241(15)
C4_41 C 0.67426(9) 0.04435(9) 0.76554(10)
C5_41 C 0.61570(13) 0.09538(13) 0.77044(14)
S4_41 S 0.58620(4) 0.14141(3) 0.74953(4)
C6_41 C 0.56126(12) 0.15074(12) 0.77199(13)
C9_41 C 0.55940(13) 0.13430(14) 0.79309(14)
H2_41 H 0.5465 0.1359 0.8065
C12_41 C 0.57950(15) 0.11419(16) 0.79241(15)
C15_41 C 0.54435(9) 0.17426(9) 0.76554(10)
C18_41 C 0.59538(13) 0.11570(13) 0.77044(14)
S3_41 S 0.68539(7) 0.91104(7) 0.91104(7)
S5_41 S 0.75047(4) 0.91380(4) 0.85859(3)
S6_41 S 0.75047(4) 0.85859(3) 0.91380(4)
O11_41 O 0.71769(5) 0.97340(5) 0.81975(5)
O15_41 O 0.77310(10) 0.92154(9) 0.77310(10)
O17_41 O 0.75601(7) 0.95045(8) 0.81364(7)
O24_41 O 0.80566(7) 0.96658(16) 0.80566(7)
C7_41 C 0.72801(13) 0.93874(12) 0.84926(12)
C8_41 C 0.72801(13) 0.84926(12) 0.93874(12)
C10_41 C 0.70691(14) 0.94060(13) 0.86570(14)
C11_41 C 0.70691(14) 0.86570(14) 0.94060(13)
H3_41 H 0.6935 0.9535 0.8641
H4_41 H 0.6935 0.8641 0.9535
C13_41 C 0.70759(15) 0.92050(15) 0.88581(16)
C14_41 C 0.70759(15) 0.88581(16) 0.92050(15)
C16_41 C 0.73446(10) 0.95565(9) 0.82574(9)
C17_41 C 0.73446(10) 0.82574(9) 0.95565(9)
C19_41 C 0.72956(14) 0.90462(13) 0.88430(13)
C20_41 C 0.72956(14) 0.88430(13) 0.90462(13)
S3_42 S 0.08896(7) 0.68539(7) 0.91104(7)
S5_42 S 0.08620(4) 0.75047(4) 0.85859(3)
S6_42 S 0.14141(3) 0.75047(4) 0.91380(4)
O11_42 O 0.02660(5) 0.71769(5) 0.81975(5)
O15_42 O 0.07846(9) 0.77310(10) 0.77310(10)
O17_42 O 0.04955(8) 0.75601(7) 0.81364(7)
O24_42 O 0.03342(16) 0.80566(7) 0.80566(7)
C7_42 C 0.06126(12) 0.72801(13) 0.84926(12)
C8_42 C 0.15074(12) 0.72801(13) 0.93874(12)
C10_42 C 0.05940(13) 0.70691(14) 0.86570(14)
C11_42 C 0.13430(14) 0.70691(14) 0.94060(13)
H3_42 H 0.0465 0.6935 0.8641
H4_42 H 0.1359 0.6935 0.9535
C13_42 C 0.07950(15) 0.70759(15) 0.88581(16)
C14_42 C 0.11419(16) 0.70759(15) 0.92050(15)
C16_42 C 0.04435(9) 0.73446(10) 0.82574(9)
C17_42 C 0.17426(9) 0.73446(10) 0.95565(9)
C19_42 C 0.09538(13) 0.72956(14) 0.88430(13)
C20_42 C 0.11570(13) 0.72956(14) 0.90462(13)
S1_42 S 0.91104(7) 0.58896(7) 0.81461(7)
S2_42 S 0.91380(4) 0.64141(3) 0.74953(4)
O2_42 O 0.97340(5) 0.68025(5) 0.78231(5)
O3_42 O 0.92154(9) 0.72690(10) 0.72690(10)
O4_42 O 0.95045(8) 0.68636(7) 0.74399(7)
O6_42 O 0.96658(16) 0.69434(7) 0.69434(7)
C1_42 C 0.93874(12) 0.65074(12) 0.77199(13)
C2_42 C 0.94060(13) 0.63430(14) 0.79309(14)
H1_42 H 0.9535 0.6359 0.8065
C3_42 C 0.92050(15) 0.61419(16) 0.79241(15)
C4_42 C 0.95565(9) 0.67426(9) 0.76554(10)
C5_42 C 0.90462(13) 0.61570(13) 0.77044(14)
S4_42 S 0.85859(3) 0.58620(4) 0.74953(4)
C6_42 C 0.84926(12) 0.56126(12) 0.77199(13)
C9_42 C 0.86570(14) 0.55940(13) 0.79309(14)
H2_42 H 0.8641 0.5465 0.8065
C12_42 C 0.88581(16) 0.57950(15) 0.79241(15)
C15_42 C 0.82574(9) 0.54435(9) 0.76554(10)
C18_42 C 0.88430(13) 0.59538(13) 0.77044(14)
S3_43 S 0.31461(7) 0.08896(7) 0.91104(7)
S5_43 S 0.24953(4) 0.08620(4) 0.85859(3)
S6_43 S 0.24953(4) 0.14141(3) 0.91380(4)
O11_43 O 0.28231(5) 0.02660(5) 0.81975(5)
O15_43 O 0.22690(10) 0.07846(9) 0.77310(10)
O17_43 O 0.24399(7) 0.04955(8) 0.81364(7)
O24_43 O 0.19434(7) 0.03342(16) 0.80566(7)
C7_43 C 0.27199(13) 0.06126(12) 0.84926(12)
C8_43 C 0.27199(13) 0.15074(12) 0.93874(12)
C10_43 C 0.29309(14) 0.05940(13) 0.86570(14)
C11_43 C 0.29309(14) 0.13430(14) 0.94060(13)
H3_43 H 0.3065 0.0465 0.8641
H4_43 H 0.3065 0.1359 0.9535
C13_43 C 0.29241(15) 0.07950(15) 0.88581(16)
C14_43 C 0.29241(15) 0.11419(16) 0.92050(15)
C16_43 C 0.26554(10) 0.04435(9) 0.82574(9)
C17_43 C 0.26554(10) 0.17426(9) 0.95565(9)
C19_43 C 0.27044(14) 0.09538(13) 0.88430(13)
C20_43 C 0.27044(14) 0.11570(13) 0.90462(13)
S1_43 S 0.41104(7) 0.91104(7) 0.81461(7)
S2_43 S 0.35859(3) 0.91380(4) 0.74953(4)
O2_43 O 0.31975(5) 0.97340(5) 0.78231(5)
O3_43 O 0.27310(10) 0.92154(9) 0.72690(10)
O4_43 O 0.31364(7) 0.95045(8) 0.74399(7)
O6_43 O 0.30566(7) 0.96658(16) 0.69434(7)
C1_43 C 0.34926(12) 0.93874(12) 0.77199(13)
C2_43 C 0.36570(14) 0.94060(13) 0.79309(14)
H1_43 H 0.3641 0.9535 0.8065
C3_43 C 0.38581(16) 0.92050(15) 0.79241(15)
C4_43 C 0.32574(9) 0.95565(9) 0.76554(10)
C5_43 C 0.38430(13) 0.90462(13) 0.77044(14)
S4_43 S 0.41380(4) 0.85859(3) 0.74953(4)
C6_43 C 0.43874(12) 0.84926(12) 0.77199(13)
C9_43 C 0.44060(13) 0.86570(14) 0.79309(14)
H2_43 H 0.4535 0.8641 0.8065
C12_43 C 0.42050(15) 0.88581(16) 0.79241(15)
C15_43 C 0.45565(9) 0.82574(9) 0.76554(10)
C18_43 C 0.40462(13) 0.88430(13) 0.77044(14)
S1_44 S 0.08896(7) 0.41104(7) 0.81461(7)
S2_44 S 0.08620(4) 0.35859(3) 0.74953(4)
O2_44 O 0.02660(5) 0.31975(5) 0.78231(5)
O3_44 O 0.07846(9) 0.27310(10) 0.72690(10)
O4_44 O 0.04955(8) 0.31364(7) 0.74399(7)
O6_44 O 0.03342(16) 0.30566(7) 0.69434(7)
C1_44 C 0.06126(12) 0.34926(12) 0.77199(13)
C2_44 C 0.05940(13) 0.36570(14) 0.79309(14)
H1_44 H 0.0465 0.3641 0.8065
C3_44 C 0.07950(15) 0.38581(16) 0.79241(15)
C4_44 C 0.04435(9) 0.32574(9) 0.76554(10)
C5_44 C 0.09538(13) 0.38430(13) 0.77044(14)
S4_44 S 0.14141(3) 0.41380(4) 0.74953(4)
C6_44 C 0.15074(12) 0.43874(12) 0.77199(13)
C9_44 C 0.13430(14) 0.44060(13) 0.79309(14)
H2_44 H 0.1359 0.4535 0.8065
C12_44 C 0.11419(16) 0.42050(15) 0.79241(15)
C15_44 C 0.17426(9) 0.45565(9) 0.76554(10)
C18_44 C 0.11570(13) 0.40462(13) 0.77044(14)
S3_44 S 0.91104(7) 0.31461(7) 0.91104(7)
S5_44 S 0.91380(4) 0.24953(4) 0.85859(3)
S6_44 S 0.85859(3) 0.24953(4) 0.91380(4)
O11_44 O 0.97340(5) 0.28231(5) 0.81975(5)
O15_44 O 0.92154(9) 0.22690(10) 0.77310(10)
O17_44 O 0.95045(8) 0.24399(7) 0.81364(7)
O24_44 O 0.96658(16) 0.19434(7) 0.80566(7)
C7_44 C 0.93874(12) 0.27199(13) 0.84926(12)
C8_44 C 0.84926(12) 0.27199(13) 0.93874(12)
C10_44 C 0.94060(13) 0.29309(14) 0.86570(14)
C11_44 C 0.86570(14) 0.29309(14) 0.94060(13)
H3_44 H 0.9535 0.3065 0.8641
H4_44 H 0.8641 0.3065 0.9535
C13_44 C 0.92050(15) 0.29241(15) 0.88581(16)
C14_44 C 0.88581(16) 0.29241(15) 0.92050(15)
C16_44 C 0.95565(9) 0.26554(10) 0.82574(9)
C17_44 C 0.82574(9) 0.26554(10) 0.95565(9)
C19_44 C 0.90462(13) 0.27044(14) 0.88430(13)
C20_44 C 0.88430(13) 0.27044(14) 0.90462(13)
S1_45 S 0.68539(7) 0.58896(7) 0.41104(7)
S2_45 S 0.75047(4) 0.64141(3) 0.41380(4)
O2_45 O 0.71769(5) 0.68025(5) 0.47340(5)
O3_45 O 0.77310(10) 0.72690(10) 0.42154(9)
O4_45 O 0.75601(7) 0.68636(7) 0.45045(8)
O6_45 O 0.80566(7) 0.69434(7) 0.46658(16)
C1_45 C 0.72801(13) 0.65074(12) 0.43874(12)
C2_45 C 0.70691(14) 0.63430(14) 0.44060(13)
H1_45 H 0.6935 0.6359 0.4535
C3_45 C 0.70759(15) 0.61419(16) 0.42050(15)
C4_45 C 0.73446(10) 0.67426(9) 0.45565(9)
C5_45 C 0.72956(14) 0.61570(13) 0.40462(13)
S3_45 S 0.58896(7) 0.68539(7) 0.58896(7)
S4_45 S 0.75047(4) 0.58620(4) 0.35859(3)
S5_45 S 0.64141(3) 0.75047(4) 0.58620(4)
S6_45 S 0.58620(4) 0.75047(4) 0.64141(3)
O11_45 O 0.68025(5) 0.71769(5) 0.52660(5)
O15_45 O 0.72690(10) 0.77310(10) 0.57846(9)
O17_45 O 0.68636(7) 0.75601(7) 0.54955(8)
O24_45 O 0.69434(7) 0.80566(7) 0.53342(16)
C6_45 C 0.72801(13) 0.56126(12) 0.34926(12)
C7_45 C 0.65074(12) 0.72801(13) 0.56126(12)
C8_45 C 0.56126(12) 0.72801(13) 0.65074(12)
C9_45 C 0.70691(14) 0.55940(13) 0.36570(14)
C10_45 C 0.63430(14) 0.70691(14) 0.55940(13)
C11_45 C 0.55940(13) 0.70691(14) 0.63430(14)
H2_45 H 0.6935 0.5465 0.3641
H3_45 H 0.6359 0.6935 0.5465
H4_45 H 0.5465 0.6935 0.6359
C12_45 C 0.70759(15) 0.57950(15) 0.38581(16)
C13_45 C 0.61419(16) 0.70759(15) 0.57950(15)
C14_45 C 0.57950(15) 0.70759(15) 0.61419(16)
C15_45 C 0.73446(10) 0.54435(9) 0.32574(9)
C16_45 C 0.67426(9) 0.73446(10) 0.54435(9)
C17_45 C 0.54435(9) 0.73446(10) 0.67426(9)
C18_45 C 0.72956(14) 0.59538(13) 0.38430(13)
C19_45 C 0.61570(13) 0.72956(14) 0.59538(13)
C20_45 C 0.59538(13) 0.72956(14) 0.61570(13)
S1_46 S 0.41104(7) 0.68539(7) 0.41104(7)
S2_46 S 0.35859(3) 0.75047(4) 0.41380(4)
O2_46 O 0.31975(5) 0.71769(5) 0.47340(5)
O3_46 O 0.27310(10) 0.77310(10) 0.42154(9)
O4_46 O 0.31364(7) 0.75601(7) 0.45045(8)
O6_46 O 0.30566(7) 0.80566(7) 0.46658(16)
C1_46 C 0.34926(12) 0.72801(13) 0.43874(12)
C2_46 C 0.36570(14) 0.70691(14) 0.44060(13)
H1_46 H 0.3641 0.6935 0.4535
C3_46 C 0.38581(16) 0.70759(15) 0.42050(15)
C4_46 C 0.32574(9) 0.73446(10) 0.45565(9)
C5_46 C 0.38430(13) 0.72956(14) 0.40462(13)
S3_46 S 0.31461(7) 0.58896(7) 0.58896(7)
S4_46 S 0.41380(4) 0.75047(4) 0.35859(3)
S5_46 S 0.24953(4) 0.64141(3) 0.58620(4)
S6_46 S 0.24953(4) 0.58620(4) 0.64141(3)
O11_46 O 0.28231(5) 0.68025(5) 0.52660(5)
O15_46 O 0.22690(10) 0.72690(10) 0.57846(9)
O17_46 O 0.24399(7) 0.68636(7) 0.54955(8)
O24_46 O 0.19434(7) 0.69434(7) 0.53342(16)
C6_46 C 0.43874(12) 0.72801(13) 0.34926(12)
C7_46 C 0.27199(13) 0.65074(12) 0.56126(12)
C8_46 C 0.27199(13) 0.56126(12) 0.65074(12)
C9_46 C 0.44060(13) 0.70691(14) 0.36570(14)
C10_46 C 0.29309(14) 0.63430(14) 0.55940(13)
C11_46 C 0.29309(14) 0.55940(13) 0.63430(14)
H2_46 H 0.4535 0.6935 0.3641
H3_46 H 0.3065 0.6359 0.5465
H4_46 H 0.3065 0.5465 0.6359
C12_46 C 0.42050(15) 0.70759(15) 0.38581(16)
C13_46 C 0.29241(15) 0.61419(16) 0.57950(15)
C14_46 C 0.29241(15) 0.57950(15) 0.61419(16)
C15_46 C 0.45565(9) 0.73446(10) 0.32574(9)
C16_46 C 0.26554(10) 0.67426(9) 0.54435(9)
C17_46 C 0.26554(10) 0.54435(9) 0.67426(9)
C18_46 C 0.40462(13) 0.72956(14) 0.38430(13)
C19_46 C 0.27044(14) 0.61570(13) 0.59538(13)
C20_46 C 0.27044(14) 0.59538(13) 0.61570(13)
S1_47 S 0.31461(7) 0.41104(7) 0.41104(7)
S2_47 S 0.24953(4) 0.35859(3) 0.41380(4)
O2_47 O 0.28231(5) 0.31975(5) 0.47340(5)
O3_47 O 0.22690(10) 0.27310(10) 0.42154(9)
O4_47 O 0.24399(7) 0.31364(7) 0.45045(8)
O6_47 O 0.19434(7) 0.30566(7) 0.46658(16)
C1_47 C 0.27199(13) 0.34926(12) 0.43874(12)
C2_47 C 0.29309(14) 0.36570(14) 0.44060(13)
H1_47 H 0.3065 0.3641 0.4535
C3_47 C 0.29241(15) 0.38581(16) 0.42050(15)
C4_47 C 0.26554(10) 0.32574(9) 0.45565(9)
C5_47 C 0.27044(14) 0.38430(13) 0.40462(13)
S3_47 S 0.41104(7) 0.31461(7) 0.58896(7)
S4_47 S 0.24953(4) 0.41380(4) 0.35859(3)
S5_47 S 0.35859(3) 0.24953(4) 0.58620(4)
S6_47 S 0.41380(4) 0.24953(4) 0.64141(3)
O11_47 O 0.31975(5) 0.28231(5) 0.52660(5)
O15_47 O 0.27310(10) 0.22690(10) 0.57846(9)
O17_47 O 0.31364(7) 0.24399(7) 0.54955(8)
O24_47 O 0.30566(7) 0.19434(7) 0.53342(16)
C6_47 C 0.27199(13) 0.43874(12) 0.34926(12)
C7_47 C 0.34926(12) 0.27199(13) 0.56126(12)
C8_47 C 0.43874(12) 0.27199(13) 0.65074(12)
C9_47 C 0.29309(14) 0.44060(13) 0.36570(14)
C10_47 C 0.36570(14) 0.29309(14) 0.55940(13)
C11_47 C 0.44060(13) 0.29309(14) 0.63430(14)
H2_47 H 0.3065 0.4535 0.3641
H3_47 H 0.3641 0.3065 0.5465
H4_47 H 0.4535 0.3065 0.6359
C12_47 C 0.29241(15) 0.42050(15) 0.38581(16)
C13_47 C 0.38581(16) 0.29241(15) 0.57950(15)
C14_47 C 0.42050(15) 0.29241(15) 0.61419(16)
C15_47 C 0.26554(10) 0.45565(9) 0.32574(9)
C16_47 C 0.32574(9) 0.26554(10) 0.54435(9)
C17_47 C 0.45565(9) 0.26554(10) 0.67426(9)
C18_47 C 0.27044(14) 0.40462(13) 0.38430(13)
C19_47 C 0.38430(13) 0.27044(14) 0.59538(13)
C20_47 C 0.40462(13) 0.27044(14) 0.61570(13)
S1_48 S 0.58896(7) 0.31461(7) 0.41104(7)
S2_48 S 0.64141(3) 0.24953(4) 0.41380(4)
O2_48 O 0.68025(5) 0.28231(5) 0.47340(5)
O3_48 O 0.72690(10) 0.22690(10) 0.42154(9)
O4_48 O 0.68636(7) 0.24399(7) 0.45045(8)
O6_48 O 0.69434(7) 0.19434(7) 0.46658(16)
C1_48 C 0.65074(12) 0.27199(13) 0.43874(12)
C2_48 C 0.63430(14) 0.29309(14) 0.44060(13)
H1_48 H 0.6359 0.3065 0.4535
C3_48 C 0.61419(16) 0.29241(15) 0.42050(15)
C4_48 C 0.67426(9) 0.26554(10) 0.45565(9)
C5_48 C 0.61570(13) 0.27044(14) 0.40462(13)
S3_48 S 0.68539(7) 0.41104(7) 0.58896(7)
S4_48 S 0.58620(4) 0.24953(4) 0.35859(3)
S5_48 S 0.75047(4) 0.35859(3) 0.58620(4)
S6_48 S 0.75047(4) 0.41380(4) 0.64141(3)
O11_48 O 0.71769(5) 0.31975(5) 0.52660(5)
O15_48 O 0.77310(10) 0.27310(10) 0.57846(9)
O17_48 O 0.75601(7) 0.31364(7) 0.54955(8)
O24_48 O 0.80566(7) 0.30566(7) 0.53342(16)
C6_48 C 0.56126(12) 0.27199(13) 0.34926(12)
C7_48 C 0.72801(13) 0.34926(12) 0.56126(12)
C8_48 C 0.72801(13) 0.43874(12) 0.65074(12)
C9_48 C 0.55940(13) 0.29309(14) 0.36570(14)
C10_48 C 0.70691(14) 0.36570(14) 0.55940(13)
C11_48 C 0.70691(14) 0.44060(13) 0.63430(14)
H2_48 H 0.5465 0.3065 0.3641
H3_48 H 0.6935 0.3641 0.5465
H4_48 H 0.6935 0.4535 0.6359
C12_48 C 0.57950(15) 0.29241(15) 0.38581(16)
C13_48 C 0.70759(15) 0.38581(16) 0.57950(15)
C14_48 C 0.70759(15) 0.42050(15) 0.61419(16)
C15_48 C 0.54435(9) 0.26554(10) 0.32574(9)
C16_48 C 0.73446(10) 0.32574(9) 0.54435(9)
C17_48 C 0.73446(10) 0.45565(9) 0.67426(9)
C18_48 C 0.59538(13) 0.27044(14) 0.38430(13)
C19_48 C 0.72956(14) 0.38430(13) 0.59538(13)
C20_48 C 0.72956(14) 0.40462(13) 0.61570(13)
loop_
_geom_bond_atom_site_label_1
_geom_bond_atom_site_label_2
_geom_bond_site_symmetry_1
_geom_bond_site_symmetry_2
Hf1 O1 1_555 1_555
Hf2 O1 1_555 1_555
S1 C3 1_555 1_555
S2 C1 1_555 1_555
O1 Hf6 1_555 1_555
O2 Hf1 1_555 1_555
O3 Hf2 1_555 1_555
O4 Hf2 1_555 1_555
O5 Hf1 1_555 1_555
O6 Hf2 1_555 1_555
C1 C2 1_555 1_555
C2 H1 1_555 1_555
C3 C2 1_555 1_555
C4 O2 1_555 1_555
C5 S2 1_555 1_555
Hf3 O10 1_555 1_555
Hf4 O12 1_555 1_555
Hf5 O5 1_555 1_555
Hf6 O5 1_555 1_555
Hf7 O16 1_555 1_555
Hf8 O7 1_555 1_555
Hf9 O18 1_555 1_555
S3 C13 1_555 1_555
S4 C6 1_555 1_555
S5 C7 1_555 1_555
S6 C8 1_555 1_555
O7 Hf1 1_555 1_555
O8 Hf2 1_555 1_555
O9 Hf5 1_555 1_555
O10 C15 1_555 1_555
O11 Hf1 1_555 1_555
O12 C17 1_555 1_555
O13 Hf1 1_555 1_555
O14 Hf1 1_555 1_555
O15 Hf5 1_555 1_555
O16 C15 1_555 1_555
O17 Hf5 1_555 1_555
O18 C17 1_555 1_555
O19 Hf2 1_555 1_555
O20 Hf5 1_555 1_555
O21 Hf1 1_555 1_555
O22 Hf2 1_555 1_555
O23 Hf5 1_555 1_555
O24 Hf5 1_555 1_555
C6 C9 1_555 1_555
C7 C10 1_555 1_555
C8 C11 1_555 1_555
C9 H2 1_555 1_555
C10 H3 1_555 1_555
C11 H4 1_555 1_555
C12 S1 1_555 1_555
C13 C10 1_555 1_555
C14 S3 1_555 1_555
C15 C6 1_555 1_555
C16 O11 1_555 1_555
C17 C8 1_555 1_555
C18 C5 1_555 1_555
C19 S5 1_555 1_555
C20 S6 1_555 1_555
Hf2 O21 1_555 1_555
O4 C4 1_555 1_555
C1 C4 1_555 1_555
C3 C5 1_555 1_555
Hf5 O7 1_555 1_555
Hf6 O8 1_555 1_555
Hf6 O23 1_555 1_555
Hf8 O9 1_555 1_555
Hf8 O21 1_555 1_555
Hf8 O22 1_555 1_555
S4 C18 1_555 1_555
O17 C16 1_555 1_555
C7 C16 1_555 1_555
C9 C12 1_555 1_555
C11 C14 1_555 1_555
C12 C18 1_555 1_555
C13 C19 1_555 1_555
C14 C20 1_555 1_555
C19 C20 1_555 1_555
Hf1_2 O1_2 1_555 1_555
Hf2_2 O1_2 1_555 1_555
S1_2 C3_2 1_555 1_555
S2_2 C1_2 1_555 1_555
O1_2 Hf6_2 1_555 1_555
O2_2 Hf1_2 1_555 1_555
O3_2 Hf2_2 1_555 1_555
O4_2 Hf2_2 1_555 1_555
O5_2 Hf1_2 1_555 1_555
O6_2 Hf2_2 1_555 1_555
C1_2 C2_2 1_555 1_555
C2_2 H1_2 1_555 1_555
C3_2 C2_2 1_555 1_555
C4_2 O2_2 1_555 1_555
C5_2 S2_2 1_555 1_555
Hf3_3 O10_2 1_555 1_555
Hf4_3 O12_2 1_555 1_555
Hf5_2 O5_2 1_555 1_555
Hf6_2 O5_2 1_555 1_555
Hf7_2 O16_2 1_555 1_555
Hf8_2 O7_2 1_555 1_555
Hf9_2 O18_2 1_555 1_555
S3_2 C13_2 1_555 1_555
S4_2 C6_2 1_555 1_555
S5_2 C7_2 1_555 1_555
S6_2 C8_2 1_555 1_555
O7_2 Hf1_2 1_555 1_555
O8_2 Hf2_2 1_555 1_555
O9_2 Hf5_2 1_555 1_555
O10_2 C15_2 1_555 1_555
O11_2 Hf1_2 1_555 1_555
O12_2 C17_2 1_555 1_555
O13_2 Hf1_2 1_555 1_555
O14_2 Hf1_2 1_555 1_555
O15_2 Hf5_2 1_555 1_555
O16_2 C15_2 1_555 1_555
O17_2 Hf5_2 1_555 1_555
O18_2 C17_2 1_555 1_555
O19_2 Hf2_2 1_555 1_555
O20_2 Hf5_2 1_555 1_555
O21_2 Hf1_2 1_555 1_555
O22_2 Hf2_2 1_555 1_555
O23_2 Hf5_2 1_555 1_555
O24_2 Hf5_2 1_555 1_555
C6_2 C9_2 1_555 1_555
C7_2 C10_2 1_555 1_555
C8_2 C11_2 1_555 1_555
C9_2 H2_2 1_555 1_555
C10_2 H3_2 1_555 1_555
C11_2 H4_2 1_555 1_555
C12_2 S1_2 1_555 1_555
C13_2 C10_2 1_555 1_555
C14_2 S3_2 1_555 1_555
C15_2 C6_2 1_555 1_555
C16_2 O11_2 1_555 1_555
C17_2 C8_2 1_555 1_555
C18_2 C5_2 1_555 1_555
C19_2 S5_2 1_555 1_555
C20_2 S6_2 1_555 1_555
Hf2_2 O21_2 1_555 1_555
O4_2 C4_2 1_555 1_555
C1_2 C4_2 1_555 1_555
C3_2 C5_2 1_555 1_555
Hf5_2 O7_2 1_555 1_555
Hf6_2 O8_2 1_555 1_555
Hf6_2 O23_2 1_555 1_555
Hf8_2 O9_2 1_555 1_555
Hf8_2 O21_2 1_555 1_555
Hf8_2 O22_2 1_555 1_555
S4_2 C18_2 1_555 1_555
O17_2 C16_2 1_555 1_555
C7_2 C16_2 1_555 1_555
C9_2 C12_2 1_555 1_555
C11_2 C14_2 1_555 1_555
C12_2 C18_2 1_555 1_555
C13_2 C19_2 1_555 1_555
C14_2 C20_2 1_555 1_555
C19_2 C20_2 1_555 1_555
Hf1_3 O1_3 1_555 1_555
Hf2_3 O1_3 1_555 1_555
S1_3 C3_3 1_555 1_555
S2_3 C1_3 1_555 1_555
O1_3 Hf6_3 1_555 1_555
O2_3 Hf1_3 1_555 1_555
O3_3 Hf2_3 1_555 1_555
O4_3 Hf2_3 1_555 1_555
O5_3 Hf1_3 1_555 1_555
O6_3 Hf2_3 1_555 1_555
C1_3 C2_3 1_555 1_555
C2_3 H1_3 1_555 1_555
C3_3 C2_3 1_555 1_555
C4_3 O2_3 1_555 1_555
C5_3 S2_3 1_555 1_555
Hf3_6 O10_3 1_555 1_555
Hf4_5 O12_3 1_555 1_555
Hf5_3 O5_3 1_555 1_555
Hf6_3 O5_3 1_555 1_555
Hf7_3 O16_3 1_555 1_555
Hf8_3 O7_3 1_555 1_555
Hf9_3 O18_3 1_555 1_555
S3_3 C13_3 1_555 1_555
S4_3 C6_3 1_555 1_555
S5_3 C7_3 1_555 1_555
S6_3 C8_3 1_555 1_555
O7_3 Hf1_3 1_555 1_555
O8_3 Hf2_3 1_555 1_555
O9_3 Hf5_3 1_555 1_555
O10_3 C15_3 1_555 1_555
O11_3 Hf1_3 1_555 1_555
O12_3 C17_3 1_555 1_555
O13_3 Hf1_3 1_555 1_555
O14_3 Hf1_3 1_555 1_555
O15_3 Hf5_3 1_555 1_555
O16_3 C15_3 1_555 1_555
O17_3 Hf5_3 1_555 1_555
O18_3 C17_3 1_555 1_555
O19_3 Hf2_3 1_555 1_555
O20_3 Hf5_3 1_555 1_555
O21_3 Hf1_3 1_555 1_555
O22_3 Hf2_3 1_555 1_555
O23_3 Hf5_3 1_555 1_555
O24_3 Hf5_3 1_555 1_555
C6_3 C9_3 1_555 1_555
C7_3 C10_3 1_555 1_555
C8_3 C11_3 1_555 1_555
C9_3 H2_3 1_555 1_555
C10_3 H3_3 1_555 1_555
C11_3 H4_3 1_555 1_555
C12_3 S1_3 1_555 1_555
C13_3 C10_3 1_555 1_555
C14_3 S3_3 1_555 1_555
C15_3 C6_3 1_555 1_555
C16_3 O11_3 1_555 1_555
C17_3 C8_3 1_555 1_555
C18_3 C5_3 1_555 1_555
C19_3 S5_3 1_555 1_555
C20_3 S6_3 1_555 1_555
Hf2_3 O21_3 1_555 1_555
O4_3 C4_3 1_555 1_555
C1_3 C4_3 1_555 1_555
C3_3 C5_3 1_555 1_555
Hf5_3 O7_3 1_555 1_555
Hf6_3 O8_3 1_555 1_555
Hf6_3 O23_3 1_555 1_555
Hf8_3 O9_3 1_555 1_555
Hf8_3 O21_3 1_555 1_555
Hf8_3 O22_3 1_555 1_555
S4_3 C18_3 1_555 1_555
O17_3 C16_3 1_555 1_555
C7_3 C16_3 1_555 1_555
C9_3 C12_3 1_555 1_555
C11_3 C14_3 1_555 1_555
C12_3 C18_3 1_555 1_555
C13_3 C19_3 1_555 1_555
C14_3 C20_3 1_555 1_555
C19_3 C20_3 1_555 1_555
Hf1_4 O1_4 1_555 1_555
Hf2_4 O1_4 1_555 1_555
S1_4 C3_4 1_555 1_555
S2_4 C1_4 1_555 1_555
O1_4 Hf6_4 1_555 1_555
O2_4 Hf1_4 1_555 1_555
O3_4 Hf2_4 1_555 1_555
O4_4 Hf2_4 1_555 1_555
O5_4 Hf1_4 1_555 1_555
O6_4 Hf2_4 1_555 1_555
C1_4 C2_4 1_555 1_555
C2_4 H1_4 1_555 1_555
C3_4 C2_4 1_555 1_555
C4_4 O2_4 1_555 1_555
C5_4 S2_4 1_555 1_555
Hf3_8 O10_4 1_555 1_555
Hf4_7 O12_4 1_555 1_555
Hf5_4 O5_4 1_555 1_555
Hf6_4 O5_4 1_555 1_555
Hf7_4 O16_4 1_555 1_555
Hf8_4 O7_4 1_555 1_555
Hf9_4 O18_4 1_555 1_555
S3_4 C13_4 1_555 1_555
S4_4 C6_4 1_555 1_555
S5_4 C7_4 1_555 1_555
S6_4 C8_4 1_555 1_555
O7_4 Hf1_4 1_555 1_555
O8_4 Hf2_4 1_555 1_555
O9_4 Hf5_4 1_555 1_555
O10_4 C15_4 1_555 1_555
O11_4 Hf1_4 1_555 1_555
O12_4 C17_4 1_555 1_555
O13_4 Hf1_4 1_555 1_555
O14_4 Hf1_4 1_555 1_555
O15_4 Hf5_4 1_555 1_555
O16_4 C15_4 1_555 1_555
O17_4 Hf5_4 1_555 1_555
O18_4 C17_4 1_555 1_555
O19_4 Hf2_4 1_555 1_555
O20_4 Hf5_4 1_555 1_555
O21_4 Hf1_4 1_555 1_555
O22_4 Hf2_4 1_555 1_555
O23_4 Hf5_4 1_555 1_555
O24_4 Hf5_4 1_555 1_555
C6_4 C9_4 1_555 1_555
C7_4 C10_4 1_555 1_555
C8_4 C11_4 1_555 1_555
C9_4 H2_4 1_555 1_555
C10_4 H3_4 1_555 1_555
C11_4 H4_4 1_555 1_555
C12_4 S1_4 1_555 1_555
C13_4 C10_4 1_555 1_555
C14_4 S3_4 1_555 1_555
C15_4 C6_4 1_555 1_555
C16_4 O11_4 1_555 1_555
C17_4 C8_4 1_555 1_555
C18_4 C5_4 1_555 1_555
C19_4 S5_4 1_555 1_555
C20_4 S6_4 1_555 1_555
Hf2_4 O21_4 1_555 1_555
O4_4 C4_4 1_555 1_555
C1_4 C4_4 1_555 1_555
C3_4 C5_4 1_555 1_555
Hf5_4 O7_4 1_555 1_555
Hf6_4 O8_4 1_555 1_555
Hf6_4 O23_4 1_555 1_555
Hf8_4 O9_4 1_555 1_555
Hf8_4 O21_4 1_555 1_555
Hf8_4 O22_4 1_555 1_555
S4_4 C18_4 1_555 1_555
O17_4 C16_4 1_555 1_555
C7_4 C16_4 1_555 1_555
C9_4 C12_4 1_555 1_555
C11_4 C14_4 1_555 1_555
C12_4 C18_4 1_555 1_555
C13_4 C19_4 1_555 1_555
C14_4 C20_4 1_555 1_555
C19_4 C20_4 1_555 1_555
Hf1_5 O1_5 1_555 1_555
Hf2_5 O1_5 1_555 1_555
S1_5 C3_5 1_555 1_555
S2_5 C1_5 1_555 1_555
O1_5 Hf6_5 1_555 1_555
O2_5 Hf1_5 1_555 1_555
O3_5 Hf2_5 1_555 1_555
O4_5 Hf2_5 1_555 1_555
O5_5 Hf1_5 1_555 1_555
O6_5 Hf2_5 1_555 1_555
C1_5 C2_5 1_555 1_555
C2_5 H1_5 1_555 1_555
C3_5 C2_5 1_555 1_555
C4_5 O2_5 1_555 1_555
C5_5 S2_5 1_555 1_555
Hf3_9 O10_5 1_555 1_555
Hf4_10 O12_5 1_555 1_555
Hf5_5 O5_5 1_555 1_555
Hf6_5 O5_5 1_555 1_555
Hf7_5 O16_5 1_555 1_555
Hf8_5 O7_5 1_555 1_555
Hf9_5 O18_5 1_555 1_555
S3_5 C13_5 1_555 1_555
S4_5 C6_5 1_555 1_555
S5_5 C7_5 1_555 1_555
S6_5 C8_5 1_555 1_555
O7_5 Hf1_5 1_555 1_555
O8_5 Hf2_5 1_555 1_555
O9_5 Hf5_5 1_555 1_555
O10_5 C15_5 1_555 1_555
O11_5 Hf1_5 1_555 1_555
O12_5 C17_5 1_555 1_555
O13_5 Hf1_5 1_555 1_555
O14_5 Hf1_5 1_555 1_555
O15_5 Hf5_5 1_555 1_555
O16_5 C15_5 1_555 1_555
O17_5 Hf5_5 1_555 1_555
O18_5 C17_5 1_555 1_555
O19_5 Hf2_5 1_555 1_555
O20_5 Hf5_5 1_555 1_555
O21_5 Hf1_5 1_555 1_555
O22_5 Hf2_5 1_555 1_555
O23_5 Hf5_5 1_555 1_555
O24_5 Hf5_5 1_555 1_555
C6_5 C9_5 1_555 1_555
C7_5 C10_5 1_555 1_555
C8_5 C11_5 1_555 1_555
C9_5 H2_5 1_555 1_555
C10_5 H3_5 1_555 1_555
C11_5 H4_5 1_555 1_555
C12_5 S1_5 1_555 1_555
C13_5 C10_5 1_555 1_555
C14_5 S3_5 1_555 1_555
C15_5 C6_5 1_555 1_555
C16_5 O11_5 1_555 1_555
C17_5 C8_5 1_555 1_555
C18_5 C5_5 1_555 1_555
C19_5 S5_5 1_555 1_555
C20_5 S6_5 1_555 1_555
Hf2_5 O21_5 1_555 1_555
O4_5 C4_5 1_555 1_555
C1_5 C4_5 1_555 1_555
C3_5 C5_5 1_555 1_555
Hf5_5 O7_5 1_555 1_555
Hf6_5 O8_5 1_555 1_555
Hf6_5 O23_5 1_555 1_555
Hf8_5 O9_5 1_555 1_555
Hf8_5 O21_5 1_555 1_555
Hf8_5 O22_5 1_555 1_555
S4_5 C18_5 1_555 1_555
O17_5 C16_5 1_555 1_555
C7_5 C16_5 1_555 1_555
C9_5 C12_5 1_555 1_555
C11_5 C14_5 1_555 1_555
C12_5 C18_5 1_555 1_555
C13_5 C19_5 1_555 1_555
C14_5 C20_5 1_555 1_555
C19_5 C20_5 1_555 1_555
Hf1_6 O1_6 1_555 1_555
Hf2_6 O1_6 1_555 1_555
S1_6 C3_6 1_555 1_555
S2_6 C1_6 1_555 1_555
O1_6 Hf6_6 1_555 1_555
O2_6 Hf1_6 1_555 1_555
O3_6 Hf2_6 1_555 1_555
O4_6 Hf2_6 1_555 1_555
O5_6 Hf1_6 1_555 1_555
O6_6 Hf2_6 1_555 1_555
C1_6 C2_6 1_555 1_555
C2_6 H1_6 1_555 1_555
C3_6 C2_6 1_555 1_555
C4_6 O2_6 1_555 1_555
C5_6 S2_6 1_555 1_555
Hf3_11 O10_6 1_555 1_555
Hf4_12 O12_6 1_555 1_555
Hf5_6 O5_6 1_555 1_555
Hf6_6 O5_6 1_555 1_555
Hf7_6 O16_6 1_555 1_555
Hf8_6 O7_6 1_555 1_555
Hf9_6 O18_6 1_555 1_555
S3_6 C13_6 1_555 1_555
S4_6 C6_6 1_555 1_555
S5_6 C7_6 1_555 1_555
S6_6 C8_6 1_555 1_555
O7_6 Hf1_6 1_555 1_555
O8_6 Hf2_6 1_555 1_555
O9_6 Hf5_6 1_555 1_555
O10_6 C15_6 1_555 1_555
O11_6 Hf1_6 1_555 1_555
O12_6 C17_6 1_555 1_555
O13_6 Hf1_6 1_555 1_555
O14_6 Hf1_6 1_555 1_555
O15_6 Hf5_6 1_555 1_555
O16_6 C15_6 1_555 1_555
O17_6 Hf5_6 1_555 1_555
O18_6 C17_6 1_555 1_555
O19_6 Hf2_6 1_555 1_555
O20_6 Hf5_6 1_555 1_555
O21_6 Hf1_6 1_555 1_555
O22_6 Hf2_6 1_555 1_555
O23_6 Hf5_6 1_555 1_555
O24_6 Hf5_6 1_555 1_555
C6_6 C9_6 1_555 1_555
C7_6 C10_6 1_555 1_555
C8_6 C11_6 1_555 1_555
C9_6 H2_6 1_555 1_555
C10_6 H3_6 1_555 1_555
C11_6 H4_6 1_555 1_555
C12_6 S1_6 1_555 1_555
C13_6 C10_6 1_555 1_555
C14_6 S3_6 1_555 1_555
C15_6 C6_6 1_555 1_555
C16_6 O11_6 1_555 1_555
C17_6 C8_6 1_555 1_555
C18_6 C5_6 1_555 1_555
C19_6 S5_6 1_555 1_555
C20_6 S6_6 1_555 1_555
Hf2_6 O21_6 1_555 1_555
O4_6 C4_6 1_555 1_555
C1_6 C4_6 1_555 1_555
C3_6 C5_6 1_555 1_555
Hf5_6 O7_6 1_555 1_555
Hf6_6 O8_6 1_555 1_555
Hf6_6 O23_6 1_555 1_555
Hf8_6 O9_6 1_555 1_555
Hf8_6 O21_6 1_555 1_555
Hf8_6 O22_6 1_555 1_555
S4_6 C18_6 1_555 1_555
O17_6 C16_6 1_555 1_555
C7_6 C16_6 1_555 1_555
C9_6 C12_6 1_555 1_555
C11_6 C14_6 1_555 1_555
C12_6 C18_6 1_555 1_555
C13_6 C19_6 1_555 1_555
C14_6 C20_6 1_555 1_555
C19_6 C20_6 1_555 1_555
Hf1_7 O1_7 1_555 1_555
Hf2_7 O1_7 1_555 1_555
S1_7 C3_7 1_555 1_555
S2_7 C1_7 1_555 1_555
O1_7 Hf6_7 1_555 1_555
O2_7 Hf1_7 1_555 1_555
O3_7 Hf2_7 1_555 1_555
O4_7 Hf2_7 1_555 1_555
O5_7 Hf1_7 1_555 1_555
O6_7 Hf2_7 1_555 1_555
C1_7 C2_7 1_555 1_555
C2_7 H1_7 1_555 1_555
C3_7 C2_7 1_555 1_555
C4_7 O2_7 1_555 1_555
C5_7 S2_7 1_555 1_555
Hf3_14 O10_7 1_555 1_555
Hf4_14 O12_7 1_555 1_555
Hf5_7 O5_7 1_555 1_555
Hf6_7 O5_7 1_555 1_555
Hf7_7 O16_7 1_555 1_555
Hf8_7 O7_7 1_555 1_555
Hf9_7 O18_7 1_555 1_555
S3_7 C13_7 1_555 1_555
S4_7 C6_7 1_555 1_555
S5_7 C7_7 1_555 1_555
S6_7 C8_7 1_555 1_555
O7_7 Hf1_7 1_555 1_555
O8_7 Hf2_7 1_555 1_555
O9_7 Hf5_7 1_555 1_555
O10_7 C15_7 1_555 1_555
O11_7 Hf1_7 1_555 1_555
O12_7 C17_7 1_555 1_555
O13_7 Hf1_7 1_555 1_555
O14_7 Hf1_7 1_555 1_555
O15_7 Hf5_7 1_555 1_555
O16_7 C15_7 1_555 1_555
O17_7 Hf5_7 1_555 1_555
O18_7 C17_7 1_555 1_555
O19_7 Hf2_7 1_555 1_555
O20_7 Hf5_7 1_555 1_555
O21_7 Hf1_7 1_555 1_555
O22_7 Hf2_7 1_555 1_555
O23_7 Hf5_7 1_555 1_555
O24_7 Hf5_7 1_555 1_555
C6_7 C9_7 1_555 1_555
C7_7 C10_7 1_555 1_555
C8_7 C11_7 1_555 1_555
C9_7 H2_7 1_555 1_555
C10_7 H3_7 1_555 1_555
C11_7 H4_7 1_555 1_555
C12_7 S1_7 1_555 1_555
C13_7 C10_7 1_555 1_555
C14_7 S3_7 1_555 1_555
C15_7 C6_7 1_555 1_555
C16_7 O11_7 1_555 1_555
C17_7 C8_7 1_555 1_555
C18_7 C5_7 1_555 1_555
C19_7 S5_7 1_555 1_555
C20_7 S6_7 1_555 1_555
Hf2_7 O21_7 1_555 1_555
O4_7 C4_7 1_555 1_555
C1_7 C4_7 1_555 1_555
C3_7 C5_7 1_555 1_555
Hf5_7 O7_7 1_555 1_555
Hf6_7 O8_7 1_555 1_555
Hf6_7 O23_7 1_555 1_555
Hf8_7 O9_7 1_555 1_555
Hf8_7 O21_7 1_555 1_555
Hf8_7 O22_7 1_555 1_555
S4_7 C18_7 1_555 1_555
O17_7 C16_7 1_555 1_555
C7_7 C16_7 1_555 1_555
C9_7 C12_7 1_555 1_555
C11_7 C14_7 1_555 1_555
C12_7 C18_7 1_555 1_555
C13_7 C19_7 1_555 1_555
C14_7 C20_7 1_555 1_555
C19_7 C20_7 1_555 1_555
Hf1_8 O1_8 1_555 1_555
Hf2_8 O1_8 1_555 1_555
S1_8 C3_8 1_555 1_555
S2_8 C1_8 1_555 1_555
O1_8 Hf6_8 1_555 1_555
O2_8 Hf1_8 1_555 1_555
O3_8 Hf2_8 1_555 1_555
O4_8 Hf2_8 1_555 1_555
O5_8 Hf1_8 1_555 1_555
O6_8 Hf2_8 1_555 1_555
C1_8 C2_8 1_555 1_555
C2_8 H1_8 1_555 1_555
C3_8 C2_8 1_555 1_555
C4_8 O2_8 1_555 1_555
C5_8 S2_8 1_555 1_555
Hf3_16 O10_8 1_555 1_555
Hf4_16 O12_8 1_555 1_555
Hf5_8 O5_8 1_555 1_555
Hf6_8 O5_8 1_555 1_555
Hf7_8 O16_8 1_555 1_555
Hf8_8 O7_8 1_555 1_555
Hf9_8 O18_8 1_555 1_555
S3_8 C13_8 1_555 1_555
S4_8 C6_8 1_555 1_555
S5_8 C7_8 1_555 1_555
S6_8 C8_8 1_555 1_555
O7_8 Hf1_8 1_555 1_555
O8_8 Hf2_8 1_555 1_555
O9_8 Hf5_8 1_555 1_555
O10_8 C15_8 1_555 1_555
O11_8 Hf1_8 1_555 1_555
O12_8 C17_8 1_555 1_555
O13_8 Hf1_8 1_555 1_555
O14_8 Hf1_8 1_555 1_555
O15_8 Hf5_8 1_555 1_555
O16_8 C15_8 1_555 1_555
O17_8 Hf5_8 1_555 1_555
O18_8 C17_8 1_555 1_555
O19_8 Hf2_8 1_555 1_555
O20_8 Hf5_8 1_555 1_555
O21_8 Hf1_8 1_555 1_555
O22_8 Hf2_8 1_555 1_555
O23_8 Hf5_8 1_555 1_555
O24_8 Hf5_8 1_555 1_555
C6_8 C9_8 1_555 1_555
C7_8 C10_8 1_555 1_555
C8_8 C11_8 1_555 1_555
C9_8 H2_8 1_555 1_555
C10_8 H3_8 1_555 1_555
C11_8 H4_8 1_555 1_555
C12_8 S1_8 1_555 1_555
C13_8 C10_8 1_555 1_555
C14_8 S3_8 1_555 1_555
C15_8 C6_8 1_555 1_555
C16_8 O11_8 1_555 1_555
C17_8 C8_8 1_555 1_555
C18_8 C5_8 1_555 1_555
C19_8 S5_8 1_555 1_555
C20_8 S6_8 1_555 1_555
Hf2_8 O21_8 1_555 1_555
O4_8 C4_8 1_555 1_555
C1_8 C4_8 1_555 1_555
C3_8 C5_8 1_555 1_555
Hf5_8 O7_8 1_555 1_555
Hf6_8 O8_8 1_555 1_555
Hf6_8 O23_8 1_555 1_555
Hf8_8 O9_8 1_555 1_555
Hf8_8 O21_8 1_555 1_555
Hf8_8 O22_8 1_555 1_555
S4_8 C18_8 1_555 1_555
O17_8 C16_8 1_555 1_555
C7_8 C16_8 1_555 1_555
C9_8 C12_8 1_555 1_555
C11_8 C14_8 1_555 1_555
C12_8 C18_8 1_555 1_555
C13_8 C19_8 1_555 1_555
C14_8 C20_8 1_555 1_555
C19_8 C20_8 1_555 1_555
Hf1_9 O1_9 1_555 1_555
Hf2_9 O1_9 1_555 1_555
S1_9 C3_9 1_555 1_555
S2_9 C1_9 1_555 1_555
O1_9 Hf6_9 1_555 1_555
O2_9 Hf1_9 1_555 1_555
O3_9 Hf2_9 1_555 1_555
O4_9 Hf2_9 1_555 1_555
O5_9 Hf1_9 1_555 1_555
O6_9 Hf2_9 1_555 1_555
C1_9 C2_9 1_555 1_555
C2_9 H1_9 1_555 1_555
C3_9 C2_9 1_555 1_555
C4_9 O2_9 1_555 1_555
C5_9 S2_9 1_555 1_555
Hf3_17 O10_9 1_555 1_555
Hf4_17 O12_9 1_555 1_555
Hf5_9 O5_9 1_555 1_555
Hf6_9 O5_9 1_555 1_555
Hf7_9 O16_9 1_555 1_555
Hf8_9 O7_9 1_555 1_555
Hf9_9 O18_9 1_555 1_555
S3_9 C13_9 1_555 1_555
S4_9 C6_9 1_555 1_555
S5_9 C7_9 1_555 1_555
S6_9 C8_9 1_555 1_555
O7_9 Hf1_9 1_555 1_555
O8_9 Hf2_9 1_555 1_555
O9_9 Hf5_9 1_555 1_555
O10_9 C15_9 1_555 1_555
O11_9 Hf1_9 1_555 1_555
O12_9 C17_9 1_555 1_555
O13_9 Hf1_9 1_555 1_555
O14_9 Hf1_9 1_555 1_555
O15_9 Hf5_9 1_555 1_555
O16_9 C15_9 1_555 1_555
O17_9 Hf5_9 1_555 1_555
O18_9 C17_9 1_555 1_555
O19_9 Hf2_9 1_555 1_555
O20_9 Hf5_9 1_555 1_555
O21_9 Hf1_9 1_555 1_555
O22_9 Hf2_9 1_555 1_555
O23_9 Hf5_9 1_555 1_555
O24_9 Hf5_9 1_555 1_555
C6_9 C9_9 1_555 1_555
C7_9 C10_9 1_555 1_555
C8_9 C11_9 1_555 1_555
C9_9 H2_9 1_555 1_555
C10_9 H3_9 1_555 1_555
C11_9 H4_9 1_555 1_555
C12_9 S1_9 1_555 1_555
C13_9 C10_9 1_555 1_555
C14_9 S3_9 1_555 1_555
C15_9 C6_9 1_555 1_555
C16_9 O11_9 1_555 1_555
C17_9 C8_9 1_555 1_555
C18_9 C5_9 1_555 1_555
C19_9 S5_9 1_555 1_555
C20_9 S6_9 1_555 1_555
Hf2_9 O21_9 1_555 1_555
O4_9 C4_9 1_555 1_555
C1_9 C4_9 1_555 1_555
C3_9 C5_9 1_555 1_555
Hf5_9 O7_9 1_555 1_555
Hf6_9 O8_9 1_555 1_555
Hf6_9 O23_9 1_555 1_555
Hf8_9 O9_9 1_555 1_555
Hf8_9 O21_9 1_555 1_555
Hf8_9 O22_9 1_555 1_555
S4_9 C18_9 1_555 1_555
O17_9 C16_9 1_555 1_555
C7_9 C16_9 1_555 1_555
C9_9 C12_9 1_555 1_555
C11_9 C14_9 1_555 1_555
C12_9 C18_9 1_555 1_555
C13_9 C19_9 1_555 1_555
C14_9 C20_9 1_555 1_555
C19_9 C20_9 1_555 1_555
Hf1_10 O1_10 1_555 1_555
Hf2_10 O1_10 1_555 1_555
S1_10 C3_10 1_555 1_555
S2_10 C1_10 1_555 1_555
O1_10 Hf6_10 1_555 1_555
O2_10 Hf1_10 1_555 1_555
O3_10 Hf2_10 1_555 1_555
O4_10 Hf2_10 1_555 1_555
O5_10 Hf1_10 1_555 1_555
O6_10 Hf2_10 1_555 1_555
C1_10 C2_10 1_555 1_555
C2_10 H1_10 1_555 1_555
C3_10 C2_10 1_555 1_555
C4_10 O2_10 1_555 1_555
C5_10 S2_10 1_555 1_555
Hf3_20 O10_10 1_555 1_555
Hf4_19 O12_10 1_555 1_555
Hf5_10 O5_10 1_555 1_555
Hf6_10 O5_10 1_555 1_555
Hf7_10 O16_10 1_555 1_555
Hf8_10 O7_10 1_555 1_555
Hf9_10 O18_10 1_555 1_555
S3_10 C13_10 1_555 1_555
S4_10 C6_10 1_555 1_555
S5_10 C7_10 1_555 1_555
S6_10 C8_10 1_555 1_555
O7_10 Hf1_10 1_555 1_555
O8_10 Hf2_10 1_555 1_555
O9_10 Hf5_10 1_555 1_555
O10_10 C15_10 1_555 1_555
O11_10 Hf1_10 1_555 1_555
O12_10 C17_10 1_555 1_555
O13_10 Hf1_10 1_555 1_555
O14_10 Hf1_10 1_555 1_555
O15_10 Hf5_10 1_555 1_555
O16_10 C15_10 1_555 1_555
O17_10 Hf5_10 1_555 1_555
O18_10 C17_10 1_555 1_555
O19_10 Hf2_10 1_555 1_555
O20_10 Hf5_10 1_555 1_555
O21_10 Hf1_10 1_555 1_555
O22_10 Hf2_10 1_555 1_555
O23_10 Hf5_10 1_555 1_555
O24_10 Hf5_10 1_555 1_555
C6_10 C9_10 1_555 1_555
C7_10 C10_10 1_555 1_555
C8_10 C11_10 1_555 1_555
C9_10 H2_10 1_555 1_555
C10_10 H3_10 1_555 1_555
C11_10 H4_10 1_555 1_555
C12_10 S1_10 1_555 1_555
C13_10 C10_10 1_555 1_555
C14_10 S3_10 1_555 1_555
C15_10 C6_10 1_555 1_555
C16_10 O11_10 1_555 1_555
C17_10 C8_10 1_555 1_555
C18_10 C5_10 1_555 1_555
C19_10 S5_10 1_555 1_555
C20_10 S6_10 1_555 1_555
Hf2_10 O21_10 1_555 1_555
O4_10 C4_10 1_555 1_555
C1_10 C4_10 1_555 1_555
C3_10 C5_10 1_555 1_555
Hf5_10 O7_10 1_555 1_555
Hf6_10 O8_10 1_555 1_555
Hf6_10 O23_10 1_555 1_555
Hf8_10 O9_10 1_555 1_555
Hf8_10 O21_10 1_555 1_555
Hf8_10 O22_10 1_555 1_555
S4_10 C18_10 1_555 1_555
O17_10 C16_10 1_555 1_555
C7_10 C16_10 1_555 1_555
C9_10 C12_10 1_555 1_555
C11_10 C14_10 1_555 1_555
C12_10 C18_10 1_555 1_555
C13_10 C19_10 1_555 1_555
C14_10 C20_10 1_555 1_555
C19_10 C20_10 1_555 1_555
Hf1_11 O1_11 1_555 1_555
Hf2_11 O1_11 1_555 1_555
S1_11 C3_11 1_555 1_555
S2_11 C1_11 1_555 1_555
O1_11 Hf6_11 1_555 1_555
O2_11 Hf1_11 1_555 1_555
O3_11 Hf2_11 1_555 1_555
O4_11 Hf2_11 1_555 1_555
O5_11 Hf1_11 1_555 1_555
O6_11 Hf2_11 1_555 1_555
C1_11 C2_11 1_555 1_555
C2_11 H1_11 1_555 1_555
C3_11 C2_11 1_555 1_555
C4_11 O2_11 1_555 1_555
C5_11 S2_11 1_555 1_555
Hf3_22 O10_11 1_555 1_555
Hf4_22 O12_11 1_555 1_555
Hf5_11 O5_11 1_555 1_555
Hf6_11 O5_11 1_555 1_555
Hf7_11 O16_11 1_555 1_555
Hf8_11 O7_11 1_555 1_555
Hf9_11 O18_11 1_555 1_555
S3_11 C13_11 1_555 1_555
S4_11 C6_11 1_555 1_555
S5_11 C7_11 1_555 1_555
S6_11 C8_11 1_555 1_555
O7_11 Hf1_11 1_555 1_555
O8_11 Hf2_11 1_555 1_555
O9_11 Hf5_11 1_555 1_555
O10_11 C15_11 1_555 1_555
O11_11 Hf1_11 1_555 1_555
O12_11 C17_11 1_555 1_555
O13_11 Hf1_11 1_555 1_555
O14_11 Hf1_11 1_555 1_555
O15_11 Hf5_11 1_555 1_555
O16_11 C15_11 1_555 1_555
O17_11 Hf5_11 1_555 1_555
O18_11 C17_11 1_555 1_555
O19_11 Hf2_11 1_555 1_555
O20_11 Hf5_11 1_555 1_555
O21_11 Hf1_11 1_555 1_555
O22_11 Hf2_11 1_555 1_555
O23_11 Hf5_11 1_555 1_555
O24_11 Hf5_11 1_555 1_555
C6_11 C9_11 1_555 1_555
C7_11 C10_11 1_555 1_555
C8_11 C11_11 1_555 1_555
C9_11 H2_11 1_555 1_555
C10_11 H3_11 1_555 1_555
C11_11 H4_11 1_555 1_555
C12_11 S1_11 1_555 1_555
C13_11 C10_11 1_555 1_555
C14_11 S3_11 1_555 1_555
C15_11 C6_11 1_555 1_555
C16_11 O11_11 1_555 1_555
C17_11 C8_11 1_555 1_555
C18_11 C5_11 1_555 1_555
C19_11 S5_11 1_555 1_555
C20_11 S6_11 1_555 1_555
Hf2_11 O21_11 1_555 1_555
O4_11 C4_11 1_555 1_555
C1_11 C4_11 1_555 1_555
C3_11 C5_11 1_555 1_555
Hf5_11 O7_11 1_555 1_555
Hf6_11 O8_11 1_555 1_555
Hf6_11 O23_11 1_555 1_555
Hf8_11 O9_11 1_555 1_555
Hf8_11 O21_11 1_555 1_555
Hf8_11 O22_11 1_555 1_555
S4_11 C18_11 1_555 1_555
O17_11 C16_11 1_555 1_555
C7_11 C16_11 1_555 1_555
C9_11 C12_11 1_555 1_555
C11_11 C14_11 1_555 1_555
C12_11 C18_11 1_555 1_555
C13_11 C19_11 1_555 1_555
C14_11 C20_11 1_555 1_555
C19_11 C20_11 1_555 1_555
Hf1_12 O1_12 1_555 1_555
Hf2_12 O1_12 1_555 1_555
S1_12 C3_12 1_555 1_555
S2_12 C1_12 1_555 1_555
O1_12 Hf6_12 1_555 1_555
O2_12 Hf1_12 1_555 1_555
O3_12 Hf2_12 1_555 1_555
O4_12 Hf2_12 1_555 1_555
O5_12 Hf1_12 1_555 1_555
O6_12 Hf2_12 1_555 1_555
C1_12 C2_12 1_555 1_555
C2_12 H1_12 1_555 1_555
C3_12 C2_12 1_555 1_555
C4_12 O2_12 1_555 1_555
C5_12 S2_12 1_555 1_555
Hf3_23 O10_12 1_555 1_555
Hf4_24 O12_12 1_555 1_555
Hf5_12 O5_12 1_555 1_555
Hf6_12 O5_12 1_555 1_555
Hf7_12 O16_12 1_555 1_555
Hf8_12 O7_12 1_555 1_555
Hf9_12 O18_12 1_555 1_555
S3_12 C13_12 1_555 1_555
S4_12 C6_12 1_555 1_555
S5_12 C7_12 1_555 1_555
S6_12 C8_12 1_555 1_555
O7_12 Hf1_12 1_555 1_555
O8_12 Hf2_12 1_555 1_555
O9_12 Hf5_12 1_555 1_555
O10_12 C15_12 1_555 1_555
O11_12 Hf1_12 1_555 1_555
O12_12 C17_12 1_555 1_555
O13_12 Hf1_12 1_555 1_555
O14_12 Hf1_12 1_555 1_555
O15_12 Hf5_12 1_555 1_555
O16_12 C15_12 1_555 1_555
O17_12 Hf5_12 1_555 1_555
O18_12 C17_12 1_555 1_555
O19_12 Hf2_12 1_555 1_555
O20_12 Hf5_12 1_555 1_555
O21_12 Hf1_12 1_555 1_555
O22_12 Hf2_12 1_555 1_555
O23_12 Hf5_12 1_555 1_555
O24_12 Hf5_12 1_555 1_555
C6_12 C9_12 1_555 1_555
C7_12 C10_12 1_555 1_555
C8_12 C11_12 1_555 1_555
C9_12 H2_12 1_555 1_555
C10_12 H3_12 1_555 1_555
C11_12 H4_12 1_555 1_555
C12_12 S1_12 1_555 1_555
C13_12 C10_12 1_555 1_555
C14_12 S3_12 1_555 1_555
C15_12 C6_12 1_555 1_555
C16_12 O11_12 1_555 1_555
C17_12 C8_12 1_555 1_555
C18_12 C5_12 1_555 1_555
C19_12 S5_12 1_555 1_555
C20_12 S6_12 1_555 1_555
Hf2_12 O21_12 1_555 1_555
O4_12 C4_12 1_555 1_555
C1_12 C4_12 1_555 1_555
C3_12 C5_12 1_555 1_555
Hf5_12 O7_12 1_555 1_555
Hf6_12 O8_12 1_555 1_555
Hf6_12 O23_12 1_555 1_555
Hf8_12 O9_12 1_555 1_555
Hf8_12 O21_12 1_555 1_555
Hf8_12 O22_12 1_555 1_555
S4_12 C18_12 1_555 1_555
O17_12 C16_12 1_555 1_555
C7_12 C16_12 1_555 1_555
C9_12 C12_12 1_555 1_555
C11_12 C14_12 1_555 1_555
C12_12 C18_12 1_555 1_555
C13_12 C19_12 1_555 1_555
C14_12 C20_12 1_555 1_555
C19_12 C20_12 1_555 1_555
O5_13 Hf4_23 1_555 1_555
Hf7_6 O5_13 1_555 1_555
Hf8_13 O7_13 1_555 1_555
Hf8_9 O18_13 1_555 1_555
S3_13 C13_13 1_555 1_555
S5_13 C7_13 1_555 1_555
S6_13 C8_13 1_555 1_555
O7_13 Hf4_23 1_555 1_555
O9_13 Hf7_6 1_555 1_555
O11_13 Hf4_23 1_555 1_555
O13_9 C17_13 1_555 1_555
O13_13 Hf4_23 1_555 1_555
O15_13 Hf7_6 1_555 1_555
O17_13 Hf7_6 1_555 1_555
O18_13 C17_13 1_555 1_555
O21_13 Hf4_23 1_555 1_555
O23_13 Hf7_6 1_555 1_555
O24_13 Hf7_6 1_555 1_555
C7_13 C10_13 1_555 1_555
C8_13 C11_13 1_555 1_555
C10_13 H3_13 1_555 1_555
C11_13 H4_13 1_555 1_555
C13_13 C10_13 1_555 1_555
C14_13 S3_13 1_555 1_555
C16_13 O11_13 1_555 1_555
C17_13 C8_13 1_555 1_555
C19_13 S5_13 1_555 1_555
C20_13 S6_13 1_555 1_555
Hf7_6 O7_13 1_555 1_555
Hf8_13 O9_13 1_555 1_555
Hf8_13 O21_13 1_555 1_555
Hf8_13 O22_13 1_555 1_555
O17_13 C16_13 1_555 1_555
C7_13 C16_13 1_555 1_555
C11_13 C14_13 1_555 1_555
C13_13 C19_13 1_555 1_555
C14_13 C20_13 1_555 1_555
C19_13 C20_13 1_555 1_555
Hf4_24 O1_13 1_555 1_555
Hf2_13 O1_13 1_555 1_555
S1_13 C3_13 1_555 1_555
S2_13 C1_13 1_555 1_555
O1_13 Hf9_12 1_555 1_555
O2_13 Hf4_24 1_555 1_555
O3_13 Hf2_13 1_555 1_555
O4_13 Hf2_13 1_555 1_555
O5_14 Hf4_24 1_555 1_555
O6_13 Hf2_13 1_555 1_555
C1_13 C2_13 1_555 1_555
C2_13 H1_13 1_555 1_555
C3_13 C2_13 1_555 1_555
C4_13 O2_13 1_555 1_555
C5_13 S2_13 1_555 1_555
Hf4_21 O10_13 1_555 1_555
Hf9_12 O5_14 1_555 1_555
Hf7_13 O16_13 1_555 1_555
S4_13 C6_13 1_555 1_555
O8_13 Hf2_13 1_555 1_555
O10_13 C15_13 1_555 1_555
O16_13 C15_13 1_555 1_555
O19_13 Hf2_13 1_555 1_555
O21_14 Hf4_24 1_555 1_555
O22_14 Hf2_13 1_555 1_555
C6_13 C9_13 1_555 1_555
C9_13 H2_13 1_555 1_555
C12_13 S1_13 1_555 1_555
C15_13 C6_13 1_555 1_555
C18_13 C5_13 1_555 1_555
Hf2_13 O21_14 1_555 1_555
O4_13 C4_13 1_555 1_555
C1_13 C4_13 1_555 1_555
C3_13 C5_13 1_555 1_555
Hf9_12 O8_13 1_555 1_555
Hf9_12 O23_14 1_555 1_555
S4_13 C18_13 1_555 1_555
C9_13 C12_13 1_555 1_555
C12_13 C18_13 1_555 1_555
Hf1_13 O8_8 1_555 1_555
S1_14 C3_14 1_555 1_555
S2_14 C1_14 1_555 1_555
O2_14 Hf1_13 1_555 1_555
O3_14 Hf6_8 1_555 1_555
O4_14 Hf6_8 1_555 1_555
O22_8 Hf1_13 1_555 1_555
O6_14 Hf6_8 1_555 1_555
C1_14 C2_14 1_555 1_555
C2_14 H1_14 1_555 1_555
C3_14 C2_14 1_555 1_555
C4_14 O2_14 1_555 1_555
C5_14 S2_14 1_555 1_555
Hf3_25 O10_14 1_555 1_555
Hf4_25 O12_13 1_555 1_555
S3_14 C13_14 1_555 1_555
S4_14 C6_14 1_555 1_555
S5_14 C7_14 1_555 1_555
S6_14 C8_14 1_555 1_555
O9_8 Hf1_13 1_555 1_555
O10_14 C15_14 1_555 1_555
O11_14 Hf1_13 1_555 1_555
O12_13 C17_14 1_555 1_555
O13_14 Hf1_13 1_555 1_555
O14_13 Hf1_13 1_555 1_555
O15_14 Hf8_8 1_555 1_555
O20_7 C15_14 1_555 1_555
O17_14 Hf8_8 1_555 1_555
O20_12 C17_14 1_555 1_555
O19_14 Hf6_8 1_555 1_555
O20_13 Hf8_8 1_555 1_555
O23_8 Hf1_13 1_555 1_555
O24_14 Hf8_8 1_555 1_555
C6_14 C9_14 1_555 1_555
C7_14 C10_14 1_555 1_555
C8_14 C11_14 1_555 1_555
C9_14 H2_14 1_555 1_555
C10_14 H3_14 1_555 1_555
C11_14 H4_14 1_555 1_555
C12_14 S1_14 1_555 1_555
C13_14 C10_14 1_555 1_555
C14_14 S3_14 1_555 1_555
C15_14 C6_14 1_555 1_555
C16_14 O11_14 1_555 1_555
C17_14 C8_14 1_555 1_555
C18_14 C5_14 1_555 1_555
C19_14 S5_14 1_555 1_555
C20_14 S6_14 1_555 1_555
O4_14 C4_14 1_555 1_555
C1_14 C4_14 1_555 1_555
C3_14 C5_14 1_555 1_555
S4_14 C18_14 1_555 1_555
O17_14 C16_14 1_555 1_555
C7_14 C16_14 1_555 1_555
C9_14 C12_14 1_555 1_555
C11_14 C14_14 1_555 1_555
C12_14 C18_14 1_555 1_555
C13_14 C19_14 1_555 1_555
C14_14 C20_14 1_555 1_555
C19_14 C20_14 1_555 1_555
Hf4_19 O1_14 1_555 1_555
Hf2_14 O1_14 1_555 1_555
S1_15 C3_15 1_555 1_555
S2_15 C1_15 1_555 1_555
O1_14 Hf9_10 1_555 1_555
O2_15 Hf4_19 1_555 1_555
O3_15 Hf2_14 1_555 1_555
O4_15 Hf2_14 1_555 1_555
O5_15 Hf4_19 1_555 1_555
O6_15 Hf2_14 1_555 1_555
C1_15 C2_15 1_555 1_555
C2_15 H1_15 1_555 1_555
C3_15 C2_15 1_555 1_555
C4_15 O2_15 1_555 1_555
C5_15 S2_15 1_555 1_555
Hf4_18 O10_15 1_555 1_555
Hf9_10 O5_15 1_555 1_555
Hf7_14 O16_14 1_555 1_555
S4_15 C6_15 1_555 1_555
O8_14 Hf2_14 1_555 1_555
O10_15 C15_15 1_555 1_555
O16_14 C15_15 1_555 1_555
O19_15 Hf2_14 1_555 1_555
O21_15 Hf4_19 1_555 1_555
O22_15 Hf2_14 1_555 1_555
C6_15 C9_15 1_555 1_555
C9_15 H2_15 1_555 1_555
C12_15 S1_15 1_555 1_555
C15_15 C6_15 1_555 1_555
C18_15 C5_15 1_555 1_555
Hf2_14 O21_15 1_555 1_555
O4_15 C4_15 1_555 1_555
C1_15 C4_15 1_555 1_555
C3_15 C5_15 1_555 1_555
Hf9_10 O8_14 1_555 1_555
Hf9_10 O23_15 1_555 1_555
S4_15 C18_15 1_555 1_555
C9_15 C12_15 1_555 1_555
C12_15 C18_15 1_555 1_555
O5_16 Hf4_20 1_555 1_555
Hf7_8 O5_16 1_555 1_555
Hf8_14 O7_14 1_555 1_555
Hf8_11 O18_14 1_555 1_555
S3_15 C13_15 1_555 1_555
S5_15 C7_15 1_555 1_555
S6_15 C8_15 1_555 1_555
O7_14 Hf4_20 1_555 1_555
O9_14 Hf7_8 1_555 1_555
O11_15 Hf4_20 1_555 1_555
O13_11 C17_15 1_555 1_555
O13_15 Hf4_20 1_555 1_555
O15_15 Hf7_8 1_555 1_555
O17_15 Hf7_8 1_555 1_555
O18_14 C17_15 1_555 1_555
O21_16 Hf4_20 1_555 1_555
O23_16 Hf7_8 1_555 1_555
O24_15 Hf7_8 1_555 1_555
C7_15 C10_15 1_555 1_555
C8_15 C11_15 1_555 1_555
C10_15 H3_15 1_555 1_555
C11_15 H4_15 1_555 1_555
C13_15 C10_15 1_555 1_555
C14_15 S3_15 1_555 1_555
C16_15 O11_15 1_555 1_555
C17_15 C8_15 1_555 1_555
C19_15 S5_15 1_555 1_555
C20_15 S6_15 1_555 1_555
Hf7_8 O7_14 1_555 1_555
Hf8_14 O9_14 1_555 1_555
Hf8_14 O21_16 1_555 1_555
Hf8_14 O22_16 1_555 1_555
O17_15 C16_15 1_555 1_555
C7_15 C16_15 1_555 1_555
C11_15 C14_15 1_555 1_555
C13_15 C19_15 1_555 1_555
C14_15 C20_15 1_555 1_555
C19_15 C20_15 1_555 1_555
Hf1_14 O8_6 1_555 1_555
S1_16 C3_16 1_555 1_555
S2_16 C1_16 1_555 1_555
O2_16 Hf1_14 1_555 1_555
O3_16 Hf6_6 1_555 1_555
O4_16 Hf6_6 1_555 1_555
O22_6 Hf1_14 1_555 1_555
O6_16 Hf6_6 1_555 1_555
C1_16 C2_16 1_555 1_555
C2_16 H1_16 1_555 1_555
C3_16 C2_16 1_555 1_555
C4_16 O2_16 1_555 1_555
C5_16 S2_16 1_555 1_555
Hf3_26 O10_16 1_555 1_555
Hf4_26 O12_14 1_555 1_555
S3_16 C13_16 1_555 1_555
S4_16 C6_16 1_555 1_555
S5_16 C7_16 1_555 1_555
S6_16 C8_16 1_555 1_555
O9_6 Hf1_14 1_555 1_555
O10_16 C15_16 1_555 1_555
O11_16 Hf1_14 1_555 1_555
O12_14 C17_16 1_555 1_555
O13_16 Hf1_14 1_555 1_555
O14_14 Hf1_14 1_555 1_555
O15_16 Hf8_6 1_555 1_555
O20_5 C15_16 1_555 1_555
O17_16 Hf8_6 1_555 1_555
O20_10 C17_16 1_555 1_555
O19_16 Hf6_6 1_555 1_555
O20_14 Hf8_6 1_555 1_555
O23_6 Hf1_14 1_555 1_555
O24_16 Hf8_6 1_555 1_555
C6_16 C9_16 1_555 1_555
C7_16 C10_16 1_555 1_555
C8_16 C11_16 1_555 1_555
C9_16 H2_16 1_555 1_555
C10_16 H3_16 1_555 1_555
C11_16 H4_16 1_555 1_555
C12_16 S1_16 1_555 1_555
C13_16 C10_16 1_555 1_555
C14_16 S3_16 1_555 1_555
C15_16 C6_16 1_555 1_555
C16_16 O11_16 1_555 1_555
C17_16 C8_16 1_555 1_555
C18_16 C5_16 1_555 1_555
C19_16 S5_16 1_555 1_555
C20_16 S6_16 1_555 1_555
O4_16 C4_16 1_555 1_555
C1_16 C4_16 1_555 1_555
C3_16 C5_16 1_555 1_555
S4_16 C18_16 1_555 1_555
O17_16 C16_16 1_555 1_555
C7_16 C16_16 1_555 1_555
C9_16 C12_16 1_555 1_555
C11_16 C14_16 1_555 1_555
C12_16 C18_16 1_555 1_555
C13_16 C19_16 1_555 1_555
C14_16 C20_16 1_555 1_555
C19_16 C20_16 1_555 1_555
Hf3_17 O1_15 1_555 1_555
Hf2_15 O1_15 1_555 1_555
S1_17 C3_17 1_555 1_555
S2_17 C1_17 1_555 1_555
O1_15 Hf7_9 1_555 1_555
O2_17 Hf3_17 1_555 1_555
O3_17 Hf2_15 1_555 1_555
O4_17 Hf2_15 1_555 1_555
O5_17 Hf3_17 1_555 1_555
O6_17 Hf2_15 1_555 1_555
C1_17 C2_17 1_555 1_555
C2_17 H1_17 1_555 1_555
C3_17 C2_17 1_555 1_555
C4_17 O2_17 1_555 1_555
C5_17 S2_17 1_555 1_555
Hf3_19 O10_17 1_555 1_555
Hf7_9 O5_17 1_555 1_555
Hf7_15 O16_15 1_555 1_555
S4_17 C6_17 1_555 1_555
O8_15 Hf2_15 1_555 1_555
O10_17 C15_17 1_555 1_555
O16_15 C15_17 1_555 1_555
O19_17 Hf2_15 1_555 1_555
O21_17 Hf3_17 1_555 1_555
O22_17 Hf2_15 1_555 1_555
C6_17 C9_17 1_555 1_555
C9_17 H2_17 1_555 1_555
C12_17 S1_17 1_555 1_555
C15_17 C6_17 1_555 1_555
C18_17 C5_17 1_555 1_555
Hf2_15 O21_17 1_555 1_555
O4_17 C4_17 1_555 1_555
C1_17 C4_17 1_555 1_555
C3_17 C5_17 1_555 1_555
Hf7_9 O8_15 1_555 1_555
Hf7_9 O23_17 1_555 1_555
S4_17 C18_17 1_555 1_555
C9_17 C12_17 1_555 1_555
C12_17 C18_17 1_555 1_555
O5_18 Hf3_18 1_555 1_555
Hf7_4 O5_18 1_555 1_555
Hf8_15 O7_15 1_555 1_555
Hf6_12 O18_15 1_555 1_555
S3_17 C13_17 1_555 1_555
S5_17 C7_17 1_555 1_555
S6_17 C8_17 1_555 1_555
O7_15 Hf3_18 1_555 1_555
O9_15 Hf7_4 1_555 1_555
O11_17 Hf3_18 1_555 1_555
O14_12 C17_17 1_555 1_555
O13_17 Hf3_18 1_555 1_555
O15_17 Hf7_4 1_555 1_555
O17_17 Hf7_4 1_555 1_555
O18_15 C17_17 1_555 1_555
O21_18 Hf3_18 1_555 1_555
O23_18 Hf7_4 1_555 1_555
O24_17 Hf7_4 1_555 1_555
C7_17 C10_17 1_555 1_555
C8_17 C11_17 1_555 1_555
C10_17 H3_17 1_555 1_555
C11_17 H4_17 1_555 1_555
C13_17 C10_17 1_555 1_555
C14_17 S3_17 1_555 1_555
C16_17 O11_17 1_555 1_555
C17_17 C8_17 1_555 1_555
C19_17 S5_17 1_555 1_555
C20_17 S6_17 1_555 1_555
Hf7_4 O7_15 1_555 1_555
Hf8_15 O9_15 1_555 1_555
Hf8_15 O21_18 1_555 1_555
Hf8_15 O22_18 1_555 1_555
O17_17 C16_17 1_555 1_555
C7_17 C16_17 1_555 1_555
C11_17 C14_17 1_555 1_555
C13_17 C19_17 1_555 1_555
C14_17 C20_17 1_555 1_555
C19_17 C20_17 1_555 1_555
Hf1_15 O8_4 1_555 1_555
S1_18 C3_18 1_555 1_555
S2_18 C1_18 1_555 1_555
O2_18 Hf1_15 1_555 1_555
O3_18 Hf6_4 1_555 1_555
O4_18 Hf6_4 1_555 1_555
O22_4 Hf1_15 1_555 1_555
O6_18 Hf6_4 1_555 1_555
C1_18 C2_18 1_555 1_555
C2_18 H1_18 1_555 1_555
C3_18 C2_18 1_555 1_555
C4_18 O2_18 1_555 1_555
C5_18 S2_18 1_555 1_555
Hf3_27 O10_18 1_555 1_555
Hf4_27 O12_15 1_555 1_555
S3_18 C13_18 1_555 1_555
S4_18 C6_18 1_555 1_555
S5_18 C7_18 1_555 1_555
S6_18 C8_18 1_555 1_555
O9_4 Hf1_15 1_555 1_555
O10_18 C15_18 1_555 1_555
O11_18 Hf1_15 1_555 1_555
O12_15 C17_18 1_555 1_555
O13_18 Hf1_15 1_555 1_555
O14_15 Hf1_15 1_555 1_555
O15_18 Hf8_4 1_555 1_555
O20 C15_18 1_555 1_555
O17_18 Hf8_4 1_555 1_555
O19_11 C17_18 1_555 1_555
O19_18 Hf6_4 1_555 1_555
O20_15 Hf8_4 1_555 1_555
O23_4 Hf1_15 1_555 1_555
O24_18 Hf8_4 1_555 1_555
C6_18 C9_18 1_555 1_555
C7_18 C10_18 1_555 1_555
C8_18 C11_18 1_555 1_555
C9_18 H2_18 1_555 1_555
C10_18 H3_18 1_555 1_555
C11_18 H4_18 1_555 1_555
C12_18 S1_18 1_555 1_555
C13_18 C10_18 1_555 1_555
C14_18 S3_18 1_555 1_555
C15_18 C6_18 1_555 1_555
C16_18 O11_18 1_555 1_555
C17_18 C8_18 1_555 1_555
C18_18 C5_18 1_555 1_555
C19_18 S5_18 1_555 1_555
C20_18 S6_18 1_555 1_555
O4_18 C4_18 1_555 1_555
C1_18 C4_18 1_555 1_555
C3_18 C5_18 1_555 1_555
S4_18 C18_18 1_555 1_555
O17_18 C16_18 1_555 1_555
C7_18 C16_18 1_555 1_555
C9_18 C12_18 1_555 1_555
C11_18 C14_18 1_555 1_555
C12_18 C18_18 1_555 1_555
C13_18 C19_18 1_555 1_555
C14_18 C20_18 1_555 1_555
C19_18 C20_18 1_555 1_555
O5_19 Hf3_21 1_555 1_555
Hf7_2 O5_19 1_555 1_555
Hf8_16 O7_16 1_555 1_555
Hf6_10 O18_16 1_555 1_555
S3_19 C13_19 1_555 1_555
S5_19 C7_19 1_555 1_555
S6_19 C8_19 1_555 1_555
O7_16 Hf3_21 1_555 1_555
O9_16 Hf7_2 1_555 1_555
O11_19 Hf3_21 1_555 1_555
O14_10 C17_19 1_555 1_555
O13_19 Hf3_21 1_555 1_555
O15_19 Hf7_2 1_555 1_555
O17_19 Hf7_2 1_555 1_555
O18_16 C17_19 1_555 1_555
O21_19 Hf3_21 1_555 1_555
O23_19 Hf7_2 1_555 1_555
O24_19 Hf7_2 1_555 1_555
C7_19 C10_19 1_555 1_555
C8_19 C11_19 1_555 1_555
C10_19 H3_19 1_555 1_555
C11_19 H4_19 1_555 1_555
C13_19 C10_19 1_555 1_555
C14_19 S3_19 1_555 1_555
C16_19 O11_19 1_555 1_555
C17_19 C8_19 1_555 1_555
C19_19 S5_19 1_555 1_555
C20_19 S6_19 1_555 1_555
Hf7_2 O7_16 1_555 1_555
Hf8_16 O9_16 1_555 1_555
Hf8_16 O21_19 1_555 1_555
Hf8_16 O22_19 1_555 1_555
O17_19 C16_19 1_555 1_555
C7_19 C16_19 1_555 1_555
C11_19 C14_19 1_555 1_555
C13_19 C19_19 1_555 1_555
C14_19 C20_19 1_555 1_555
C19_19 C20_19 1_555 1_555
Hf3_22 O1_16 1_555 1_555
Hf2_16 O1_16 1_555 1_555
S1_19 C3_19 1_555 1_555
S2_19 C1_19 1_555 1_555
O1_16 Hf7_11 1_555 1_555
O2_19 Hf3_22 1_555 1_555
O3_19 Hf2_16 1_555 1_555
O4_19 Hf2_16 1_555 1_555
O5_20 Hf3_22 1_555 1_555
O6_19 Hf2_16 1_555 1_555
C1_19 C2_19 1_555 1_555
C2_19 H1_19 1_555 1_555
C3_19 C2_19 1_555 1_555
C4_19 O2_19 1_555 1_555
C5_19 S2_19 1_555 1_555
Hf3_24 O10_19 1_555 1_555
Hf7_11 O5_20 1_555 1_555
Hf7_16 O16_16 1_555 1_555
S4_19 C6_19 1_555 1_555
O8_16 Hf2_16 1_555 1_555
O10_19 C15_19 1_555 1_555
O16_16 C15_19 1_555 1_555
O19_19 Hf2_16 1_555 1_555
O21_20 Hf3_22 1_555 1_555
O22_20 Hf2_16 1_555 1_555
C6_19 C9_19 1_555 1_555
C9_19 H2_19 1_555 1_555
C12_19 S1_19 1_555 1_555
C15_19 C6_19 1_555 1_555
C18_19 C5_19 1_555 1_555
Hf2_16 O21_20 1_555 1_555
O4_19 C4_19 1_555 1_555
C1_19 C4_19 1_555 1_555
C3_19 C5_19 1_555 1_555
Hf7_11 O8_16 1_555 1_555
Hf7_11 O23_20 1_555 1_555
S4_19 C18_19 1_555 1_555
C9_19 C12_19 1_555 1_555
C12_19 C18_19 1_555 1_555
Hf1_16 O8_2 1_555 1_555
S1_20 C3_20 1_555 1_555
S2_20 C1_20 1_555 1_555
O2_20 Hf1_16 1_555 1_555
O3_20 Hf6_2 1_555 1_555
O4_20 Hf6_2 1_555 1_555
O22_2 Hf1_16 1_555 1_555
O6_20 Hf6_2 1_555 1_555
C1_20 C2_20 1_555 1_555
C2_20 H1_20 1_555 1_555
C3_20 C2_20 1_555 1_555
C4_20 O2_20 1_555 1_555
C5_20 S2_20 1_555 1_555
Hf3_28 O10_20 1_555 1_555
Hf4_28 O12_16 1_555 1_555
S3_20 C13_20 1_555 1_555
S4_20 C6_20 1_555 1_555
S5_20 C7_20 1_555 1_555
S6_20 C8_20 1_555 1_555
O9_2 Hf1_16 1_555 1_555
O10_20 C15_20 1_555 1_555
O11_20 Hf1_16 1_555 1_555
O12_16 C17_20 1_555 1_555
O13_20 Hf1_16 1_555 1_555
O14_16 Hf1_16 1_555 1_555
O15_20 Hf8_2 1_555 1_555
O20_3 C15_20 1_555 1_555
O17_20 Hf8_2 1_555 1_555
O19_9 C17_20 1_555 1_555
O19_20 Hf6_2 1_555 1_555
O20_16 Hf8_2 1_555 1_555
O23_2 Hf1_16 1_555 1_555
O24_20 Hf8_2 1_555 1_555
C6_20 C9_20 1_555 1_555
C7_20 C10_20 1_555 1_555
C8_20 C11_20 1_555 1_555
C9_20 H2_20 1_555 1_555
C10_20 H3_20 1_555 1_555
C11_20 H4_20 1_555 1_555
C12_20 S1_20 1_555 1_555
C13_20 C10_20 1_555 1_555
C14_20 S3_20 1_555 1_555
C15_20 C6_20 1_555 1_555
C16_20 O11_20 1_555 1_555
C17_20 C8_20 1_555 1_555
C18_20 C5_20 1_555 1_555
C19_20 S5_20 1_555 1_555
C20_20 S6_20 1_555 1_555
O4_20 C4_20 1_555 1_555
C1_20 C4_20 1_555 1_555
C3_20 C5_20 1_555 1_555
S4_20 C18_20 1_555 1_555
O17_20 C16_20 1_555 1_555
C7_20 C16_20 1_555 1_555
C9_20 C12_20 1_555 1_555
C11_20 C14_20 1_555 1_555
C12_20 C18_20 1_555 1_555
C13_20 C19_20 1_555 1_555
C14_20 C20_20 1_555 1_555
C19_20 C20_20 1_555 1_555
O5_21 Hf4 1_555 1_555
Hf3_5 O12_17 1_555 1_555
Hf5_13 O5_21 1_555 1_555
Hf9 O7_17 1_555 1_555
Hf9_13 O18_17 1_555 1_555
S3_21 C13_21 1_555 1_555
S5_21 C7_21 1_555 1_555
S6_21 C8_21 1_555 1_555
O7_17 Hf4 1_555 1_555
O9_17 Hf5_13 1_555 1_555
O11_21 Hf4 1_555 1_555
O12_17 C17_21 1_555 1_555
O15_21 Hf5_13 1_555 1_555
O17_21 Hf5_13 1_555 1_555
O18_17 C17_21 1_555 1_555
O20_17 Hf5_13 1_555 1_555
O21_21 Hf4 1_555 1_555
O23_21 Hf5_13 1_555 1_555
O24_21 Hf5_13 1_555 1_555
C7_21 C10_21 1_555 1_555
C8_21 C11_21 1_555 1_555
C10_21 H3_21 1_555 1_555
C11_21 H4_21 1_555 1_555
C13_21 C10_21 1_555 1_555
C14_21 S3_21 1_555 1_555
C16_21 O11_21 1_555 1_555
C17_21 C8_21 1_555 1_555
C19_21 S5_21 1_555 1_555
C20_21 S6_21 1_555 1_555
Hf5_13 O7_17 1_555 1_555
Hf9 O9_17 1_555 1_555
Hf9 O21_21 1_555 1_555
Hf9 O22_21 1_555 1_555
O17_21 C16_21 1_555 1_555
C7_21 C16_21 1_555 1_555
C11_21 C14_21 1_555 1_555
C13_21 C19_21 1_555 1_555
C14_21 C20_21 1_555 1_555
C19_21 C20_21 1_555 1_555
Hf4_2 O1_17 1_555 1_555
Hf9_8 O1_17 1_555 1_555
S1_21 C3_21 1_555 1_555
S2_21 C1_21 1_555 1_555
O1_17 Hf6_13 1_555 1_555
O2_21 Hf4_2 1_555 1_555
O3_21 Hf9_8 1_555 1_555
O4_21 Hf9_8 1_555 1_555
O5_22 Hf4_2 1_555 1_555
O6_21 Hf9_8 1_555 1_555
C1_21 C2_21 1_555 1_555
C2_21 H1_21 1_555 1_555
C3_21 C2_21 1_555 1_555
C4_21 O2_21 1_555 1_555
C5_21 S2_21 1_555 1_555
Hf6_13 O5_22 1_555 1_555
Hf6_5 O16_17 1_555 1_555
S4_21 C6_21 1_555 1_555
O8_17 Hf9_8 1_555 1_555
O14_5 C15_21 1_555 1_555
O14_17 Hf4_2 1_555 1_555
O16_17 C15_21 1_555 1_555
O21_22 Hf4_2 1_555 1_555
O22_22 Hf9_8 1_555 1_555
C6_21 C9_21 1_555 1_555
C9_21 H2_21 1_555 1_555
C12_21 S1_21 1_555 1_555
C15_21 C6_21 1_555 1_555
C18_21 C5_21 1_555 1_555
Hf9_8 O21_22 1_555 1_555
O4_21 C4_21 1_555 1_555
C1_21 C4_21 1_555 1_555
C3_21 C5_21 1_555 1_555
Hf6_13 O8_17 1_555 1_555
Hf6_13 O23_22 1_555 1_555
S4_21 C18_21 1_555 1_555
C9_21 C12_21 1_555 1_555
C12_21 C18_21 1_555 1_555
O5_23 Hf4_13 1_555 1_555
Hf9_4 O5_23 1_555 1_555
Hf8_17 O7_18 1_555 1_555
Hf6_3 O18_18 1_555 1_555
S3_22 C13_22 1_555 1_555
S5_22 C7_22 1_555 1_555
S6_22 C8_22 1_555 1_555
O7_18 Hf4_13 1_555 1_555
O9_18 Hf9_4 1_555 1_555
O11_22 Hf4_13 1_555 1_555
O14_3 C17_22 1_555 1_555
O13_21 Hf4_13 1_555 1_555
O15_22 Hf9_4 1_555 1_555
O17_22 Hf9_4 1_555 1_555
O18_18 C17_22 1_555 1_555
O21_23 Hf4_13 1_555 1_555
O23_23 Hf9_4 1_555 1_555
O24_22 Hf9_4 1_555 1_555
C7_22 C10_22 1_555 1_555
C8_22 C11_22 1_555 1_555
C10_22 H3_22 1_555 1_555
C11_22 H4_22 1_555 1_555
C13_22 C10_22 1_555 1_555
C14_22 S3_22 1_555 1_555
C16_22 O11_22 1_555 1_555
C17_22 C8_22 1_555 1_555
C19_22 S5_22 1_555 1_555
C20_22 S6_22 1_555 1_555
Hf9_4 O7_18 1_555 1_555
Hf8_17 O9_18 1_555 1_555
Hf8_17 O21_23 1_555 1_555
Hf8_17 O22_23 1_555 1_555
O17_22 C16_22 1_555 1_555
C7_22 C16_22 1_555 1_555
C11_22 C14_22 1_555 1_555
C13_22 C19_22 1_555 1_555
C14_22 C20_22 1_555 1_555
C19_22 C20_22 1_555 1_555
Hf4_14 O1_18 1_555 1_555
Hf2_17 O1_18 1_555 1_555
S1_22 C3_22 1_555 1_555
S2_22 C1_22 1_555 1_555
O1_18 Hf9_7 1_555 1_555
O2_22 Hf4_14 1_555 1_555
O3_22 Hf2_17 1_555 1_555
O4_22 Hf2_17 1_555 1_555
O5_24 Hf4_14 1_555 1_555
O6_22 Hf2_17 1_555 1_555
C1_22 C2_22 1_555 1_555
C2_22 H1_22 1_555 1_555
C3_22 C2_22 1_555 1_555
C4_22 O2_22 1_555 1_555
C5_22 S2_22 1_555 1_555
Hf3_10 O10_21 1_555 1_555
Hf9_7 O5_24 1_555 1_555
Hf7_17 O16_18 1_555 1_555
S4_22 C6_22 1_555 1_555
O8_18 Hf2_17 1_555 1_555
O10_21 C15_22 1_555 1_555
O16_18 C15_22 1_555 1_555
O19_21 Hf2_17 1_555 1_555
O21_24 Hf4_14 1_555 1_555
O22_24 Hf2_17 1_555 1_555
C6_22 C9_22 1_555 1_555
C9_22 H2_22 1_555 1_555
C12_22 S1_22 1_555 1_555
C15_22 C6_22 1_555 1_555
C18_22 C5_22 1_555 1_555
Hf2_17 O21_24 1_555 1_555
O4_22 C4_22 1_555 1_555
C1_22 C4_22 1_555 1_555
C3_22 C5_22 1_555 1_555
Hf9_7 O8_18 1_555 1_555
Hf9_7 O23_24 1_555 1_555
S4_22 C18_22 1_555 1_555
C9_22 C12_22 1_555 1_555
C12_22 C18_22 1_555 1_555
O5_25 Hf4_5 1_555 1_555
Hf3_2 O12_18 1_555 1_555
Hf5_14 O5_25 1_555 1_555
Hf9_3 O7_19 1_555 1_555
Hf9_14 O18_19 1_555 1_555
S3_23 C13_23 1_555 1_555
S5_23 C7_23 1_555 1_555
S6_23 C8_23 1_555 1_555
O7_19 Hf4_5 1_555 1_555
O9_19 Hf5_14 1_555 1_555
O11_23 Hf4_5 1_555 1_555
O12_18 C17_23 1_555 1_555
O15_23 Hf5_14 1_555 1_555
O17_23 Hf5_14 1_555 1_555
O18_19 C17_23 1_555 1_555
O20_18 Hf5_14 1_555 1_555
O21_25 Hf4_5 1_555 1_555
O23_25 Hf5_14 1_555 1_555
O24_23 Hf5_14 1_555 1_555
C7_23 C10_23 1_555 1_555
C8_23 C11_23 1_555 1_555
C10_23 H3_23 1_555 1_555
C11_23 H4_23 1_555 1_555
C13_23 C10_23 1_555 1_555
C14_23 S3_23 1_555 1_555
C16_23 O11_23 1_555 1_555
C17_23 C8_23 1_555 1_555
C19_23 S5_23 1_555 1_555
C20_23 S6_23 1_555 1_555
Hf5_14 O7_19 1_555 1_555
Hf9_3 O9_19 1_555 1_555
Hf9_3 O21_25 1_555 1_555
Hf9_3 O22_25 1_555 1_555
O17_23 C16_23 1_555 1_555
C7_23 C16_23 1_555 1_555
C11_23 C14_23 1_555 1_555
C13_23 C19_23 1_555 1_555
C14_23 C20_23 1_555 1_555
C19_23 C20_23 1_555 1_555
Hf4_6 O1_19 1_555 1_555
Hf9_6 O1_19 1_555 1_555
S1_23 C3_23 1_555 1_555
S2_23 C1_23 1_555 1_555
O1_19 Hf6_14 1_555 1_555
O2_23 Hf4_6 1_555 1_555
O3_23 Hf9_6 1_555 1_555
O4_23 Hf9_6 1_555 1_555
O5_26 Hf4_6 1_555 1_555
O6_23 Hf9_6 1_555 1_555
C1_23 C2_23 1_555 1_555
C2_23 H1_23 1_555 1_555
C3_23 C2_23 1_555 1_555
C4_23 O2_23 1_555 1_555
C5_23 S2_23 1_555 1_555
Hf6_14 O5_26 1_555 1_555
Hf6_7 O16_19 1_555 1_555
S4_23 C6_23 1_555 1_555
O8_19 Hf9_6 1_555 1_555
O14_7 C15_23 1_555 1_555
O14_18 Hf4_6 1_555 1_555
O16_19 C15_23 1_555 1_555
O21_26 Hf4_6 1_555 1_555
O22_26 Hf9_6 1_555 1_555
C6_23 C9_23 1_555 1_555
C9_23 H2_23 1_555 1_555
C12_23 S1_23 1_555 1_555
C15_23 C6_23 1_555 1_555
C18_23 C5_23 1_555 1_555
Hf9_6 O21_26 1_555 1_555
O4_23 C4_23 1_555 1_555
C1_23 C4_23 1_555 1_555
C3_23 C5_23 1_555 1_555
Hf6_14 O8_19 1_555 1_555
Hf6_14 O23_26 1_555 1_555
S4_23 C18_23 1_555 1_555
C9_23 C12_23 1_555 1_555
C12_23 C18_23 1_555 1_555
O5_27 Hf4_9 1_555 1_555
Hf9_2 O5_27 1_555 1_555
Hf8_18 O7_20 1_555 1_555
Hf6 O18_20 1_555 1_555
S3_24 C13_24 1_555 1_555
S5_24 C7_24 1_555 1_555
S6_24 C8_24 1_555 1_555
O7_20 Hf4_9 1_555 1_555
O9_20 Hf9_2 1_555 1_555
O11_24 Hf4_9 1_555 1_555
O14 C17_24 1_555 1_555
O13_22 Hf4_9 1_555 1_555
O15_24 Hf9_2 1_555 1_555
O17_24 Hf9_2 1_555 1_555
O18_20 C17_24 1_555 1_555
O21_27 Hf4_9 1_555 1_555
O23_27 Hf9_2 1_555 1_555
O24_24 Hf9_2 1_555 1_555
C7_24 C10_24 1_555 1_555
C8_24 C11_24 1_555 1_555
C10_24 H3_24 1_555 1_555
C11_24 H4_24 1_555 1_555
C13_24 C10_24 1_555 1_555
C14_24 S3_24 1_555 1_555
C16_24 O11_24 1_555 1_555
C17_24 C8_24 1_555 1_555
C19_24 S5_24 1_555 1_555
C20_24 S6_24 1_555 1_555
Hf9_2 O7_20 1_555 1_555
Hf8_18 O9_20 1_555 1_555
Hf8_18 O21_27 1_555 1_555
Hf8_18 O22_27 1_555 1_555
O17_24 C16_24 1_555 1_555
C7_24 C16_24 1_555 1_555
C11_24 C14_24 1_555 1_555
C13_24 C19_24 1_555 1_555
C14_24 C20_24 1_555 1_555
C19_24 C20_24 1_555 1_555
Hf4_10 O1_20 1_555 1_555
Hf2_18 O1_20 1_555 1_555
S1_24 C3_24 1_555 1_555
S2_24 C1_24 1_555 1_555
O1_20 Hf9_5 1_555 1_555
O2_24 Hf4_10 1_555 1_555
O3_24 Hf2_18 1_555 1_555
O4_24 Hf2_18 1_555 1_555
O5_28 Hf4_10 1_555 1_555
O6_24 Hf2_18 1_555 1_555
C1_24 C2_24 1_555 1_555
C2_24 H1_24 1_555 1_555
C3_24 C2_24 1_555 1_555
C4_24 O2_24 1_555 1_555
C5_24 S2_24 1_555 1_555
Hf3_13 O10_22 1_555 1_555
Hf9_5 O5_28 1_555 1_555
Hf7_18 O16_20 1_555 1_555
S4_24 C6_24 1_555 1_555
O8_20 Hf2_18 1_555 1_555
O10_22 C15_24 1_555 1_555
O16_20 C15_24 1_555 1_555
O19_22 Hf2_18 1_555 1_555
O21_28 Hf4_10 1_555 1_555
O22_28 Hf2_18 1_555 1_555
C6_24 C9_24 1_555 1_555
C9_24 H2_24 1_555 1_555
C12_24 S1_24 1_555 1_555
C15_24 C6_24 1_555 1_555
C18_24 C5_24 1_555 1_555
Hf2_18 O21_28 1_555 1_555
O4_24 C4_24 1_555 1_555
C1_24 C4_24 1_555 1_555
C3_24 C5_24 1_555 1_555
Hf9_5 O8_20 1_555 1_555
Hf9_5 O23_28 1_555 1_555
S4_24 C18_24 1_555 1_555
C9_24 C12_24 1_555 1_555
C12_24 C18_24 1_555 1_555
Hf3_25 O8_7 1_555 1_555
S1_25 C3_25 1_555 1_555
S2_25 C1_25 1_555 1_555
O2_25 Hf3_25 1_555 1_555
O3_25 Hf6_7 1_555 1_555
O4_25 Hf6_7 1_555 1_555
O22_7 Hf3_25 1_555 1_555
O6_25 Hf6_7 1_555 1_555
C1_25 C2_25 1_555 1_555
C2_25 H1_25 1_555 1_555
C3_25 C2_25 1_555 1_555
C4_25 O2_25 1_555 1_555
C5_25 S2_25 1_555 1_555
Hf4_27 O12_19 1_555 1_555
S3_25 C13_25 1_555 1_555
S4_25 C6_25 1_555 1_555
S5_25 C7_25 1_555 1_555
S6_25 C8_25 1_555 1_555
O9_7 Hf3_25 1_555 1_555
O13_16 C15_25 1_555 1_555
O11_25 Hf3_25 1_555 1_555
O12_19 C17_25 1_555 1_555
O14_19 Hf3_25 1_555 1_555
O15_25 Hf8_7 1_555 1_555
O20_6 C15_25 1_555 1_555
O17_25 Hf8_7 1_555 1_555
O20_11 C17_25 1_555 1_555
O20_19 Hf8_7 1_555 1_555
O23_7 Hf3_25 1_555 1_555
O24_25 Hf8_7 1_555 1_555
C6_25 C9_25 1_555 1_555
C7_25 C10_25 1_555 1_555
C8_25 C11_25 1_555 1_555
C9_25 H2_25 1_555 1_555
C10_25 H3_25 1_555 1_555
C11_25 H4_25 1_555 1_555
C12_25 S1_25 1_555 1_555
C13_25 C10_25 1_555 1_555
C14_25 S3_25 1_555 1_555
C15_25 C6_25 1_555 1_555
C16_25 O11_25 1_555 1_555
C17_25 C8_25 1_555 1_555
C18_25 C5_25 1_555 1_555
C19_25 S5_25 1_555 1_555
C20_25 S6_25 1_555 1_555
O4_25 C4_25 1_555 1_555
C1_25 C4_25 1_555 1_555
C3_25 C5_25 1_555 1_555
S4_25 C18_25 1_555 1_555
O17_25 C16_25 1_555 1_555
C7_25 C16_25 1_555 1_555
C9_25 C12_25 1_555 1_555
C11_25 C14_25 1_555 1_555
C12_25 C18_25 1_555 1_555
C13_25 C19_25 1_555 1_555
C14_25 C20_25 1_555 1_555
C19_25 C20_25 1_555 1_555
Hf4_17 O1_21 1_555 1_555
Hf7_18 O1_21 1_555 1_555
S1_26 C3_26 1_555 1_555
S2_26 C1_26 1_555 1_555
O1_21 Hf9_9 1_555 1_555
O2_26 Hf4_17 1_555 1_555
O3_26 Hf7_18 1_555 1_555
O4_26 Hf7_18 1_555 1_555
O5_29 Hf4_17 1_555 1_555
O6_26 Hf7_18 1_555 1_555
C1_26 C2_26 1_555 1_555
C2_26 H1_26 1_555 1_555
C3_26 C2_26 1_555 1_555
C4_26 O2_26 1_555 1_555
C5_26 S2_26 1_555 1_555
Hf9_9 O5_29 1_555 1_555
Hf8_13 O16_21 1_555 1_555
S4_26 C6_26 1_555 1_555
O8_21 Hf7_18 1_555 1_555
O13_13 C15_26 1_555 1_555
O16_21 C15_26 1_555 1_555
O21_29 Hf4_17 1_555 1_555
O22_29 Hf7_18 1_555 1_555
C6_26 C9_26 1_555 1_555
C9_26 H2_26 1_555 1_555
C12_26 S1_26 1_555 1_555
C15_26 C6_26 1_555 1_555
C18_26 C5_26 1_555 1_555
Hf7_18 O21_29 1_555 1_555
O4_26 C4_26 1_555 1_555
C1_26 C4_26 1_555 1_555
C3_26 C5_26 1_555 1_555
Hf9_9 O8_21 1_555 1_555
Hf9_9 O23_29 1_555 1_555
S4_26 C18_26 1_555 1_555
C9_26 C12_26 1_555 1_555
C12_26 C18_26 1_555 1_555
O5_30 Hf4_18 1_555 1_555
Hf7_7 O5_30 1_555 1_555
Hf7_14 O7_21 1_555 1_555
Hf8_10 O18_21 1_555 1_555
S3_26 C13_26 1_555 1_555
S5_26 C7_26 1_555 1_555
S6_26 C8_26 1_555 1_555
O7_21 Hf4_18 1_555 1_555
O9_21 Hf7_7 1_555 1_555
O11_26 Hf4_18 1_555 1_555
O13_10 C17_26 1_555 1_555
O15_26 Hf7_7 1_555 1_555
O17_26 Hf7_7 1_555 1_555
O18_21 C17_26 1_555 1_555
O21_30 Hf4_18 1_555 1_555
O23_30 Hf7_7 1_555 1_555
O24_26 Hf7_7 1_555 1_555
C7_26 C10_26 1_555 1_555
C8_26 C11_26 1_555 1_555
C10_26 H3_26 1_555 1_555
C11_26 H4_26 1_555 1_555
C13_26 C10_26 1_555 1_555
C14_26 S3_26 1_555 1_555
C16_26 O11_26 1_555 1_555
C17_26 C8_26 1_555 1_555
C19_26 S5_26 1_555 1_555
C20_26 S6_26 1_555 1_555
Hf7_7 O7_21 1_555 1_555
Hf7_14 O9_21 1_555 1_555
Hf7_14 O21_30 1_555 1_555
Hf7_14 O22_30 1_555 1_555
O17_26 C16_26 1_555 1_555
C7_26 C16_26 1_555 1_555
C11_26 C14_26 1_555 1_555
C13_26 C19_26 1_555 1_555
C14_26 C20_26 1_555 1_555
C19_26 C20_26 1_555 1_555
Hf3_26 O8_5 1_555 1_555
S1_27 C3_27 1_555 1_555
S2_27 C1_27 1_555 1_555
O2_27 Hf3_26 1_555 1_555
O3_27 Hf6_5 1_555 1_555
O4_27 Hf6_5 1_555 1_555
O22_5 Hf3_26 1_555 1_555
O6_27 Hf6_5 1_555 1_555
C1_27 C2_27 1_555 1_555
C2_27 H1_27 1_555 1_555
C3_27 C2_27 1_555 1_555
C4_27 O2_27 1_555 1_555
C5_27 S2_27 1_555 1_555
Hf4_28 O12_20 1_555 1_555
S3_27 C13_27 1_555 1_555
S4_27 C6_27 1_555 1_555
S5_27 C7_27 1_555 1_555
S6_27 C8_27 1_555 1_555
O9_5 Hf3_26 1_555 1_555
O13_14 C15_27 1_555 1_555
O11_27 Hf3_26 1_555 1_555
O12_20 C17_27 1_555 1_555
O14_20 Hf3_26 1_555 1_555
O15_27 Hf8_5 1_555 1_555
O20_8 C15_27 1_555 1_555
O17_27 Hf8_5 1_555 1_555
O20_9 C17_27 1_555 1_555
O20_20 Hf8_5 1_555 1_555
O23_5 Hf3_26 1_555 1_555
O24_27 Hf8_5 1_555 1_555
C6_27 C9_27 1_555 1_555
C7_27 C10_27 1_555 1_555
C8_27 C11_27 1_555 1_555
C9_27 H2_27 1_555 1_555
C10_27 H3_27 1_555 1_555
C11_27 H4_27 1_555 1_555
C12_27 S1_27 1_555 1_555
C13_27 C10_27 1_555 1_555
C14_27 S3_27 1_555 1_555
C15_27 C6_27 1_555 1_555
C16_27 O11_27 1_555 1_555
C17_27 C8_27 1_555 1_555
C18_27 C5_27 1_555 1_555
C19_27 S5_27 1_555 1_555
C20_27 S6_27 1_555 1_555
O4_27 C4_27 1_555 1_555
C1_27 C4_27 1_555 1_555
C3_27 C5_27 1_555 1_555
S4_27 C18_27 1_555 1_555
O17_27 C16_27 1_555 1_555
C7_27 C16_27 1_555 1_555
C9_27 C12_27 1_555 1_555
C11_27 C14_27 1_555 1_555
C12_27 C18_27 1_555 1_555
C13_27 C19_27 1_555 1_555
C14_27 C20_27 1_555 1_555
C19_27 C20_27 1_555 1_555
O5_31 Hf4_21 1_555 1_555
Hf7_5 O5_31 1_555 1_555
Hf7_13 O7_22 1_555 1_555
Hf8_12 O18_22 1_555 1_555
S3_28 C13_28 1_555 1_555
S5_28 C7_28 1_555 1_555
S6_28 C8_28 1_555 1_555
O7_22 Hf4_21 1_555 1_555
O9_22 Hf7_5 1_555 1_555
O11_28 Hf4_21 1_555 1_555
O13_12 C17_28 1_555 1_555
O15_28 Hf7_5 1_555 1_555
O17_28 Hf7_5 1_555 1_555
O18_22 C17_28 1_555 1_555
O21_31 Hf4_21 1_555 1_555
O23_31 Hf7_5 1_555 1_555
O24_28 Hf7_5 1_555 1_555
C7_28 C10_28 1_555 1_555
C8_28 C11_28 1_555 1_555
C10_28 H3_28 1_555 1_555
C11_28 H4_28 1_555 1_555
C13_28 C10_28 1_555 1_555
C14_28 S3_28 1_555 1_555
C16_28 O11_28 1_555 1_555
C17_28 C8_28 1_555 1_555
C19_28 S5_28 1_555 1_555
C20_28 S6_28 1_555 1_555
Hf7_5 O7_22 1_555 1_555
Hf7_13 O9_22 1_555 1_555
Hf7_13 O21_31 1_555 1_555
Hf7_13 O22_31 1_555 1_555
O17_28 C16_28 1_555 1_555
C7_28 C16_28 1_555 1_555
C11_28 C14_28 1_555 1_555
C13_28 C19_28 1_555 1_555
C14_28 C20_28 1_555 1_555
C19_28 C20_28 1_555 1_555
Hf4_22 O1_22 1_555 1_555
Hf7_17 O1_22 1_555 1_555
S1_28 C3_28 1_555 1_555
S2_28 C1_28 1_555 1_555
O1_22 Hf9_11 1_555 1_555
O2_28 Hf4_22 1_555 1_555
O3_28 Hf7_17 1_555 1_555
O4_28 Hf7_17 1_555 1_555
O5_32 Hf4_22 1_555 1_555
O6_28 Hf7_17 1_555 1_555
C1_28 C2_28 1_555 1_555
C2_28 H1_28 1_555 1_555
C3_28 C2_28 1_555 1_555
C4_28 O2_28 1_555 1_555
C5_28 S2_28 1_555 1_555
Hf9_11 O5_32 1_555 1_555
Hf8_14 O16_22 1_555 1_555
S4_28 C6_28 1_555 1_555
O8_22 Hf7_17 1_555 1_555
O13_15 C15_28 1_555 1_555
O16_22 C15_28 1_555 1_555
O21_32 Hf4_22 1_555 1_555
O22_32 Hf7_17 1_555 1_555
C6_28 C9_28 1_555 1_555
C9_28 H2_28 1_555 1_555
C12_28 S1_28 1_555 1_555
C15_28 C6_28 1_555 1_555
C18_28 C5_28 1_555 1_555
Hf7_17 O21_32 1_555 1_555
O4_28 C4_28 1_555 1_555
C1_28 C4_28 1_555 1_555
C3_28 C5_28 1_555 1_555
Hf9_11 O8_22 1_555 1_555
Hf9_11 O23_32 1_555 1_555
S4_28 C18_28 1_555 1_555
C9_28 C12_28 1_555 1_555
C12_28 C18_28 1_555 1_555
Hf3_28 O8_3 1_555 1_555
S1_29 C3_29 1_555 1_555
S2_29 C1_29 1_555 1_555
O2_29 Hf3_28 1_555 1_555
O3_29 Hf6_3 1_555 1_555
O4_29 Hf6_3 1_555 1_555
O22_3 Hf3_28 1_555 1_555
O6_29 Hf6_3 1_555 1_555
C1_29 C2_29 1_555 1_555
C2_29 H1_29 1_555 1_555
C3_29 C2_29 1_555 1_555
C4_29 O2_29 1_555 1_555
C5_29 S2_29 1_555 1_555
Hf4_26 O12_21 1_555 1_555
S3_29 C13_29 1_555 1_555
S4_29 C6_29 1_555 1_555
S5_29 C7_29 1_555 1_555
S6_29 C8_29 1_555 1_555
O9_3 Hf3_28 1_555 1_555
O13_18 C15_29 1_555 1_555
O11_29 Hf3_28 1_555 1_555
O12_21 C17_29 1_555 1_555
O14_21 Hf3_28 1_555 1_555
O15_29 Hf8_3 1_555 1_555
O20_4 C15_29 1_555 1_555
O17_29 Hf8_3 1_555 1_555
O19_10 C17_29 1_555 1_555
O20_21 Hf8_3 1_555 1_555
O23_3 Hf3_28 1_555 1_555
O24_29 Hf8_3 1_555 1_555
C6_29 C9_29 1_555 1_555
C7_29 C10_29 1_555 1_555
C8_29 C11_29 1_555 1_555
C9_29 H2_29 1_555 1_555
C10_29 H3_29 1_555 1_555
C11_29 H4_29 1_555 1_555
C12_29 S1_29 1_555 1_555
C13_29 C10_29 1_555 1_555
C14_29 S3_29 1_555 1_555
C15_29 C6_29 1_555 1_555
C16_29 O11_29 1_555 1_555
C17_29 C8_29 1_555 1_555
C18_29 C5_29 1_555 1_555
C19_29 S5_29 1_555 1_555
C20_29 S6_29 1_555 1_555
O4_29 C4_29 1_555 1_555
C1_29 C4_29 1_555 1_555
C3_29 C5_29 1_555 1_555
S4_29 C18_29 1_555 1_555
O17_29 C16_29 1_555 1_555
C7_29 C16_29 1_555 1_555
C9_29 C12_29 1_555 1_555
C11_29 C14_29 1_555 1_555
C12_29 C18_29 1_555 1_555
C13_29 C19_29 1_555 1_555
C14_29 C20_29 1_555 1_555
C19_29 C20_29 1_555 1_555
O5_33 Hf3_19 1_555 1_555
Hf7 O5_33 1_555 1_555
Hf7_15 O7_23 1_555 1_555
Hf6_9 O18_23 1_555 1_555
S3_30 C13_30 1_555 1_555
S5_30 C7_30 1_555 1_555
S6_30 C8_30 1_555 1_555
O7_23 Hf3_19 1_555 1_555
O9_23 Hf7 1_555 1_555
O11_30 Hf3_19 1_555 1_555
O14_9 C17_30 1_555 1_555
O15_30 Hf7 1_555 1_555
O17_30 Hf7 1_555 1_555
O18_23 C17_30 1_555 1_555
O21_33 Hf3_19 1_555 1_555
O23_33 Hf7 1_555 1_555
O24_30 Hf7 1_555 1_555
C7_30 C10_30 1_555 1_555
C8_30 C11_30 1_555 1_555
C10_30 H3_30 1_555 1_555
C11_30 H4_30 1_555 1_555
C13_30 C10_30 1_555 1_555
C14_30 S3_30 1_555 1_555
C16_30 O11_30 1_555 1_555
C17_30 C8_30 1_555 1_555
C19_30 S5_30 1_555 1_555
C20_30 S6_30 1_555 1_555
Hf7 O7_23 1_555 1_555
Hf7_15 O9_23 1_555 1_555
Hf7_15 O21_33 1_555 1_555
Hf7_15 O22_33 1_555 1_555
O17_30 C16_30 1_555 1_555
C7_30 C16_30 1_555 1_555
C11_30 C14_30 1_555 1_555
C13_30 C19_30 1_555 1_555
C14_30 C20_30 1_555 1_555
C19_30 C20_30 1_555 1_555
Hf3_20 O1_23 1_555 1_555
Hf9_14 O1_23 1_555 1_555
S1_30 C3_30 1_555 1_555
S2_30 C1_30 1_555 1_555
O1_23 Hf7_10 1_555 1_555
O2_30 Hf3_20 1_555 1_555
O3_30 Hf9_14 1_555 1_555
O4_30 Hf9_14 1_555 1_555
O5_34 Hf3_20 1_555 1_555
O6_30 Hf9_14 1_555 1_555
C1_30 C2_30 1_555 1_555
C2_30 H1_30 1_555 1_555
C3_30 C2_30 1_555 1_555
C4_30 O2_30 1_555 1_555
C5_30 S2_30 1_555 1_555
Hf7_10 O5_34 1_555 1_555
Hf8_16 O16_23 1_555 1_555
S4_30 C6_30 1_555 1_555
O8_23 Hf9_14 1_555 1_555
O13_19 C15_30 1_555 1_555
O16_23 C15_30 1_555 1_555
O21_34 Hf3_20 1_555 1_555
O22_34 Hf9_14 1_555 1_555
C6_30 C9_30 1_555 1_555
C9_30 H2_30 1_555 1_555
C12_30 S1_30 1_555 1_555
C15_30 C6_30 1_555 1_555
C18_30 C5_30 1_555 1_555
Hf9_14 O21_34 1_555 1_555
O4_30 C4_30 1_555 1_555
C1_30 C4_30 1_555 1_555
C3_30 C5_30 1_555 1_555
Hf7_10 O8_23 1_555 1_555
Hf7_10 O23_34 1_555 1_555
S4_30 C18_30 1_555 1_555
C9_30 C12_30 1_555 1_555
C12_30 C18_30 1_555 1_555
Hf3_27 O8 1_555 1_555
S1_31 C3_31 1_555 1_555
S2_31 C1_31 1_555 1_555
O2_31 Hf3_27 1_555 1_555
O3_31 Hf6 1_555 1_555
O4_31 Hf6 1_555 1_555
O22 Hf3_27 1_555 1_555
O6_31 Hf6 1_555 1_555
C1_31 C2_31 1_555 1_555
C2_31 H1_31 1_555 1_555
C3_31 C2_31 1_555 1_555
C4_31 O2_31 1_555 1_555
C5_31 S2_31 1_555 1_555
Hf4_25 O12_22 1_555 1_555
S3_31 C13_31 1_555 1_555
S4_31 C6_31 1_555 1_555
S5_31 C7_31 1_555 1_555
S6_31 C8_31 1_555 1_555
O9 Hf3_27 1_555 1_555
O13_20 C15_31 1_555 1_555
O11_31 Hf3_27 1_555 1_555
O12_22 C17_31 1_555 1_555
O14_22 Hf3_27 1_555 1_555
O15_31 Hf8 1_555 1_555
O20_2 C15_31 1_555 1_555
O17_31 Hf8 1_555 1_555
O19_12 C17_31 1_555 1_555
O20_22 Hf8 1_555 1_555
O23 Hf3_27 1_555 1_555
O24_31 Hf8 1_555 1_555
C6_31 C9_31 1_555 1_555
C7_31 C10_31 1_555 1_555
C8_31 C11_31 1_555 1_555
C9_31 H2_31 1_555 1_555
C10_31 H3_31 1_555 1_555
C11_31 H4_31 1_555 1_555
C12_31 S1_31 1_555 1_555
C13_31 C10_31 1_555 1_555
C14_31 S3_31 1_555 1_555
C15_31 C6_31 1_555 1_555
C16_31 O11_31 1_555 1_555
C17_31 C8_31 1_555 1_555
C18_31 C5_31 1_555 1_555
C19_31 S5_31 1_555 1_555
C20_31 S6_31 1_555 1_555
O4_31 C4_31 1_555 1_555
C1_31 C4_31 1_555 1_555
C3_31 C5_31 1_555 1_555
S4_31 C18_31 1_555 1_555
O17_31 C16_31 1_555 1_555
C7_31 C16_31 1_555 1_555
C9_31 C12_31 1_555 1_555
C11_31 C14_31 1_555 1_555
C12_31 C18_31 1_555 1_555
C13_31 C19_31 1_555 1_555
C14_31 C20_31 1_555 1_555
C19_31 C20_31 1_555 1_555
Hf3_23 O1_24 1_555 1_555
Hf9_13 O1_24 1_555 1_555
S1_32 C3_32 1_555 1_555
S2_32 C1_32 1_555 1_555
O1_24 Hf7_12 1_555 1_555
O2_32 Hf3_23 1_555 1_555
O3_32 Hf9_13 1_555 1_555
O4_32 Hf9_13 1_555 1_555
O5_35 Hf3_23 1_555 1_555
O6_32 Hf9_13 1_555 1_555
C1_32 C2_32 1_555 1_555
C2_32 H1_32 1_555 1_555
C3_32 C2_32 1_555 1_555
C4_32 O2_32 1_555 1_555
C5_32 S2_32 1_555 1_555
Hf7_12 O5_35 1_555 1_555
Hf8_15 O16_24 1_555 1_555
S4_32 C6_32 1_555 1_555
O8_24 Hf9_13 1_555 1_555
O13_17 C15_32 1_555 1_555
O16_24 C15_32 1_555 1_555
O21_35 Hf3_23 1_555 1_555
O22_35 Hf9_13 1_555 1_555
C6_32 C9_32 1_555 1_555
C9_32 H2_32 1_555 1_555
C12_32 S1_32 1_555 1_555
C15_32 C6_32 1_555 1_555
C18_32 C5_32 1_555 1_555
Hf9_13 O21_35 1_555 1_555
O4_32 C4_32 1_555 1_555
C1_32 C4_32 1_555 1_555
C3_32 C5_32 1_555 1_555
Hf7_12 O8_24 1_555 1_555
Hf7_12 O23_35 1_555 1_555
S4_32 C18_32 1_555 1_555
C9_32 C12_32 1_555 1_555
C12_32 C18_32 1_555 1_555
O5_36 Hf3_24 1_555 1_555
Hf7_3 O5_36 1_555 1_555
Hf7_16 O7_24 1_555 1_555
Hf6_11 O18_24 1_555 1_555
S3_32 C13_32 1_555 1_555
S5_32 C7_32 1_555 1_555
S6_32 C8_32 1_555 1_555
O7_24 Hf3_24 1_555 1_555
O9_24 Hf7_3 1_555 1_555
O11_32 Hf3_24 1_555 1_555
O14_11 C17_32 1_555 1_555
O15_32 Hf7_3 1_555 1_555
O17_32 Hf7_3 1_555 1_555
O18_24 C17_32 1_555 1_555
O21_36 Hf3_24 1_555 1_555
O23_36 Hf7_3 1_555 1_555
O24_32 Hf7_3 1_555 1_555
C7_32 C10_32 1_555 1_555
C8_32 C11_32 1_555 1_555
C10_32 H3_32 1_555 1_555
C11_32 H4_32 1_555 1_555
C13_32 C10_32 1_555 1_555
C14_32 S3_32 1_555 1_555
C16_32 O11_32 1_555 1_555
C17_32 C8_32 1_555 1_555
C19_32 S5_32 1_555 1_555
C20_32 S6_32 1_555 1_555
Hf7_3 O7_24 1_555 1_555
Hf7_16 O9_24 1_555 1_555
Hf7_16 O21_36 1_555 1_555
Hf7_16 O22_36 1_555 1_555
O17_32 C16_32 1_555 1_555
C7_32 C16_32 1_555 1_555
C11_32 C14_32 1_555 1_555
C13_32 C19_32 1_555 1_555
C14_32 C20_32 1_555 1_555
C19_32 C20_32 1_555 1_555
O22_25 Hf4_11 1_555 1_555
S3_33 C13_33 1_555 1_555
S5_33 C7_33 1_555 1_555
S6_33 C8_33 1_555 1_555
O9_19 Hf4_11 1_555 1_555
O11_33 Hf4_11 1_555 1_555
O14_2 C17_33 1_555 1_555
O13_23 Hf4_11 1_555 1_555
O15_33 Hf9_3 1_555 1_555
O17_33 Hf9_3 1_555 1_555
O19_20 C17_33 1_555 1_555
O23_25 Hf4_11 1_555 1_555
O24_33 Hf9_3 1_555 1_555
C7_33 C10_33 1_555 1_555
C8_33 C11_33 1_555 1_555
C10_33 H3_33 1_555 1_555
C11_33 H4_33 1_555 1_555
C13_33 C10_33 1_555 1_555
C14_33 S3_33 1_555 1_555
C16_33 O11_33 1_555 1_555
C17_33 C8_33 1_555 1_555
C19_33 S5_33 1_555 1_555
C20_33 S6_33 1_555 1_555
O17_33 C16_33 1_555 1_555
C7_33 C16_33 1_555 1_555
C11_33 C14_33 1_555 1_555
C13_33 C19_33 1_555 1_555
C14_33 C20_33 1_555 1_555
C19_33 C20_33 1_555 1_555
Hf4_12 O8_19 1_555 1_555
S1_33 C3_33 1_555 1_555
S2_33 C1_33 1_555 1_555
O2_33 Hf4_12 1_555 1_555
O3_33 Hf6_14 1_555 1_555
O4_33 Hf6_14 1_555 1_555
O22_26 Hf4_12 1_555 1_555
O6_33 Hf6_14 1_555 1_555
C1_33 C2_33 1_555 1_555
C2_33 H1_33 1_555 1_555
C3_33 C2_33 1_555 1_555
C4_33 O2_33 1_555 1_555
C5_33 S2_33 1_555 1_555
Hf3_15 O10_23 1_555 1_555
S4_33 C6_33 1_555 1_555
O10_23 C15_33 1_555 1_555
O19_15 C15_33 1_555 1_555
O19_23 Hf6_14 1_555 1_555
O23_26 Hf4_12 1_555 1_555
C6_33 C9_33 1_555 1_555
C9_33 H2_33 1_555 1_555
C12_33 S1_33 1_555 1_555
C15_33 C6_33 1_555 1_555
C18_33 C5_33 1_555 1_555
O4_33 C4_33 1_555 1_555
C1_33 C4_33 1_555 1_555
C3_33 C5_33 1_555 1_555
S4_33 C18_33 1_555 1_555
C9_33 C12_33 1_555 1_555
C12_33 C18_33 1_555 1_555
O22_27 Hf4_3 1_555 1_555
Hf3_7 O12_23 1_555 1_555
S3_34 C13_34 1_555 1_555
S5_34 C7_34 1_555 1_555
S6_34 C8_34 1_555 1_555
O9_20 Hf4_3 1_555 1_555
O11_34 Hf4_3 1_555 1_555
O12_23 C17_34 1_555 1_555
O15_34 Hf8_18 1_555 1_555
O17_34 Hf8_18 1_555 1_555
O19_17 C17_34 1_555 1_555
O20_23 Hf8_18 1_555 1_555
O23_27 Hf4_3 1_555 1_555
O24_34 Hf8_18 1_555 1_555
C7_34 C10_34 1_555 1_555
C8_34 C11_34 1_555 1_555
C10_34 H3_34 1_555 1_555
C11_34 H4_34 1_555 1_555
C13_34 C10_34 1_555 1_555
C14_34 S3_34 1_555 1_555
C16_34 O11_34 1_555 1_555
C17_34 C8_34 1_555 1_555
C19_34 S5_34 1_555 1_555
C20_34 S6_34 1_555 1_555
O17_34 C16_34 1_555 1_555
C7_34 C16_34 1_555 1_555
C11_34 C14_34 1_555 1_555
C13_34 C19_34 1_555 1_555
C14_34 C20_34 1_555 1_555
C19_34 C20_34 1_555 1_555
Hf4_4 O8_20 1_555 1_555
S1_34 C3_34 1_555 1_555
S2_34 C1_34 1_555 1_555
O2_34 Hf4_4 1_555 1_555
O3_34 Hf9_5 1_555 1_555
O4_34 Hf9_5 1_555 1_555
O22_28 Hf4_4 1_555 1_555
O6_34 Hf9_5 1_555 1_555
C1_34 C2_34 1_555 1_555
C2_34 H1_34 1_555 1_555
C3_34 C2_34 1_555 1_555
C4_34 O2_34 1_555 1_555
C5_34 S2_34 1_555 1_555
S4_34 C6_34 1_555 1_555
O14_6 C15_34 1_555 1_555
O14_23 Hf4_4 1_555 1_555
O19_16 C15_34 1_555 1_555
O23_28 Hf4_4 1_555 1_555
C6_34 C9_34 1_555 1_555
C9_34 H2_34 1_555 1_555
C12_34 S1_34 1_555 1_555
C15_34 C6_34 1_555 1_555
C18_34 C5_34 1_555 1_555
O4_34 C4_34 1_555 1_555
C1_34 C4_34 1_555 1_555
C3_34 C5_34 1_555 1_555
S4_34 C18_34 1_555 1_555
C9_34 C12_34 1_555 1_555
C12_34 C18_34 1_555 1_555
O22_21 Hf4_15 1_555 1_555
S3_35 C13_35 1_555 1_555
S5_35 C7_35 1_555 1_555
S6_35 C8_35 1_555 1_555
O9_17 Hf4_15 1_555 1_555
O11_35 Hf4_15 1_555 1_555
O14_4 C17_35 1_555 1_555
O13_24 Hf4_15 1_555 1_555
O15_35 Hf9 1_555 1_555
O17_35 Hf9 1_555 1_555
O19_18 C17_35 1_555 1_555
O23_21 Hf4_15 1_555 1_555
O24_35 Hf9 1_555 1_555
C7_35 C10_35 1_555 1_555
C8_35 C11_35 1_555 1_555
C10_35 H3_35 1_555 1_555
C11_35 H4_35 1_555 1_555
C13_35 C10_35 1_555 1_555
C14_35 S3_35 1_555 1_555
C16_35 O11_35 1_555 1_555
C17_35 C8_35 1_555 1_555
C19_35 S5_35 1_555 1_555
C20_35 S6_35 1_555 1_555
O17_35 C16_35 1_555 1_555
C7_35 C16_35 1_555 1_555
C11_35 C14_35 1_555 1_555
C13_35 C19_35 1_555 1_555
C14_35 C20_35 1_555 1_555
C19_35 C20_35 1_555 1_555
Hf4_16 O8_17 1_555 1_555
S1_35 C3_35 1_555 1_555
S2_35 C1_35 1_555 1_555
O2_35 Hf4_16 1_555 1_555
O3_35 Hf6_13 1_555 1_555
O4_35 Hf6_13 1_555 1_555
O22_22 Hf4_16 1_555 1_555
O6_35 Hf6_13 1_555 1_555
C1_35 C2_35 1_555 1_555
C2_35 H1_35 1_555 1_555
C3_35 C2_35 1_555 1_555
C4_35 O2_35 1_555 1_555
C5_35 S2_35 1_555 1_555
Hf3_12 O10_24 1_555 1_555
S4_35 C6_35 1_555 1_555
O10_24 C15_35 1_555 1_555
O19_13 C15_35 1_555 1_555
O19_24 Hf6_13 1_555 1_555
O23_22 Hf4_16 1_555 1_555
C6_35 C9_35 1_555 1_555
C9_35 H2_35 1_555 1_555
C12_35 S1_35 1_555 1_555
C15_35 C6_35 1_555 1_555
C18_35 C5_35 1_555 1_555
O4_35 C4_35 1_555 1_555
C1_35 C4_35 1_555 1_555
C3_35 C5_35 1_555 1_555
S4_35 C18_35 1_555 1_555
C9_35 C12_35 1_555 1_555
C12_35 C18_35 1_555 1_555
O22_23 Hf4_7 1_555 1_555
Hf3_4 O12_24 1_555 1_555
S3_36 C13_36 1_555 1_555
S5_36 C7_36 1_555 1_555
S6_36 C8_36 1_555 1_555
O9_18 Hf4_7 1_555 1_555
O11_36 Hf4_7 1_555 1_555
O12_24 C17_36 1_555 1_555
O15_36 Hf8_17 1_555 1_555
O17_36 Hf8_17 1_555 1_555
O19_19 C17_36 1_555 1_555
O20_24 Hf8_17 1_555 1_555
O23_23 Hf4_7 1_555 1_555
O24_36 Hf8_17 1_555 1_555
C7_36 C10_36 1_555 1_555
C8_36 C11_36 1_555 1_555
C10_36 H3_36 1_555 1_555
C11_36 H4_36 1_555 1_555
C13_36 C10_36 1_555 1_555
C14_36 S3_36 1_555 1_555
C16_36 O11_36 1_555 1_555
C17_36 C8_36 1_555 1_555
C19_36 S5_36 1_555 1_555
C20_36 S6_36 1_555 1_555
O17_36 C16_36 1_555 1_555
C7_36 C16_36 1_555 1_555
C11_36 C14_36 1_555 1_555
C13_36 C19_36 1_555 1_555
C14_36 C20_36 1_555 1_555
C19_36 C20_36 1_555 1_555
Hf4_8 O8_18 1_555 1_555
S1_36 C3_36 1_555 1_555
S2_36 C1_36 1_555 1_555
O2_36 Hf4_8 1_555 1_555
O3_36 Hf9_7 1_555 1_555
O4_36 Hf9_7 1_555 1_555
O22_24 Hf4_8 1_555 1_555
O6_36 Hf9_7 1_555 1_555
C1_36 C2_36 1_555 1_555
C2_36 H1_36 1_555 1_555
C3_36 C2_36 1_555 1_555
C4_36 O2_36 1_555 1_555
C5_36 S2_36 1_555 1_555
S4_36 C6_36 1_555 1_555
O14_8 C15_36 1_555 1_555
O14_24 Hf4_8 1_555 1_555
O19_14 C15_36 1_555 1_555
O23_24 Hf4_8 1_555 1_555
C6_36 C9_36 1_555 1_555
C9_36 H2_36 1_555 1_555
C12_36 S1_36 1_555 1_555
C15_36 C6_36 1_555 1_555
C18_36 C5_36 1_555 1_555
O4_36 C4_36 1_555 1_555
C1_36 C4_36 1_555 1_555
C3_36 C5_36 1_555 1_555
S4_36 C18_36 1_555 1_555
C9_36 C12_36 1_555 1_555
C12_36 C18_36 1_555 1_555
O22_19 Hf3_3 1_555 1_555
S3_37 C13_37 1_555 1_555
S5_37 C7_37 1_555 1_555
S6_37 C8_37 1_555 1_555
O9_16 Hf3_3 1_555 1_555
O11_37 Hf3_3 1_555 1_555
O13_23 C17_37 1_555 1_555
O15_37 Hf8_16 1_555 1_555
O17_37 Hf8_16 1_555 1_555
O20_18 C17_37 1_555 1_555
O23_19 Hf3_3 1_555 1_555
O24_37 Hf8_16 1_555 1_555
C7_37 C10_37 1_555 1_555
C8_37 C11_37 1_555 1_555
C10_37 H3_37 1_555 1_555
C11_37 H4_37 1_555 1_555
C13_37 C10_37 1_555 1_555
C14_37 S3_37 1_555 1_555
C16_37 O11_37 1_555 1_555
C17_37 C8_37 1_555 1_555
C19_37 S5_37 1_555 1_555
C20_37 S6_37 1_555 1_555
O17_37 C16_37 1_555 1_555
C7_37 C16_37 1_555 1_555
C11_37 C14_37 1_555 1_555
C13_37 C19_37 1_555 1_555
C14_37 C20_37 1_555 1_555
C19_37 C20_37 1_555 1_555
Hf3_4 O8_16 1_555 1_555
S1_37 C3_37 1_555 1_555
S2_37 C1_37 1_555 1_555
O2_37 Hf3_4 1_555 1_555
O3_37 Hf7_11 1_555 1_555
O4_37 Hf7_11 1_555 1_555
O22_20 Hf3_4 1_555 1_555
O6_37 Hf7_11 1_555 1_555
C1_37 C2_37 1_555 1_555
C2_37 H1_37 1_555 1_555
C3_37 C2_37 1_555 1_555
C4_37 O2_37 1_555 1_555
C5_37 S2_37 1_555 1_555
S4_37 C6_37 1_555 1_555
O13_4 C15_37 1_555 1_555
O20_15 C15_37 1_555 1_555
O23_20 Hf3_4 1_555 1_555
C6_37 C9_37 1_555 1_555
C9_37 H2_37 1_555 1_555
C12_37 S1_37 1_555 1_555
C15_37 C6_37 1_555 1_555
C18_37 C5_37 1_555 1_555
O4_37 C4_37 1_555 1_555
C1_37 C4_37 1_555 1_555
C3_37 C5_37 1_555 1_555
S4_37 C18_37 1_555 1_555
C9_37 C12_37 1_555 1_555
C12_37 C18_37 1_555 1_555
Hf3_5 O8_24 1_555 1_555
S1_38 C3_38 1_555 1_555
S2_38 C1_38 1_555 1_555
O2_38 Hf3_5 1_555 1_555
O3_38 Hf7_12 1_555 1_555
O4_38 Hf7_12 1_555 1_555
O22_35 Hf3_5 1_555 1_555
O6_38 Hf7_12 1_555 1_555
C1_38 C2_38 1_555 1_555
C2_38 H1_38 1_555 1_555
C3_38 C2_38 1_555 1_555
C4_38 O2_38 1_555 1_555
C5_38 S2_38 1_555 1_555
S4_38 C6_38 1_555 1_555
O13 C15_38 1_555 1_555
O20_22 C15_38 1_555 1_555
O23_35 Hf3_5 1_555 1_555
C6_38 C9_38 1_555 1_555
C9_38 H2_38 1_555 1_555
C12_38 S1_38 1_555 1_555
C15_38 C6_38 1_555 1_555
C18_38 C5_38 1_555 1_555
O4_38 C4_38 1_555 1_555
C1_38 C4_38 1_555 1_555
C3_38 C5_38 1_555 1_555
S4_38 C18_38 1_555 1_555
C9_38 C12_38 1_555 1_555
C12_38 C18_38 1_555 1_555
O22_36 Hf3_6 1_555 1_555
S3_38 C13_38 1_555 1_555
S5_38 C7_38 1_555 1_555
S6_38 C8_38 1_555 1_555
O9_24 Hf3_6 1_555 1_555
O11_38 Hf3_6 1_555 1_555
O13_21 C17_38 1_555 1_555
O15_38 Hf7_16 1_555 1_555
O17_38 Hf7_16 1_555 1_555
O20_24 C17_38 1_555 1_555
O23_36 Hf3_6 1_555 1_555
O24_38 Hf7_16 1_555 1_555
C7_38 C10_38 1_555 1_555
C8_38 C11_38 1_555 1_555
C10_38 H3_38 1_555 1_555
C11_38 H4_38 1_555 1_555
C13_38 C10_38 1_555 1_555
C14_38 S3_38 1_555 1_555
C16_38 O11_38 1_555 1_555
C17_38 C8_38 1_555 1_555
C19_38 S5_38 1_555 1_555
C20_38 S6_38 1_555 1_555
O17_38 C16_38 1_555 1_555
C7_38 C16_38 1_555 1_555
C11_38 C14_38 1_555 1_555
C13_38 C19_38 1_555 1_555
C14_38 C20_38 1_555 1_555
C19_38 C20_38 1_555 1_555
Hf3_7 O8_15 1_555 1_555
S1_39 C3_39 1_555 1_555
S2_39 C1_39 1_555 1_555
O2_39 Hf3_7 1_555 1_555
O3_39 Hf7_9 1_555 1_555
O4_39 Hf7_9 1_555 1_555
O22_17 Hf3_7 1_555 1_555
O6_39 Hf7_9 1_555 1_555
C1_39 C2_39 1_555 1_555
C2_39 H1_39 1_555 1_555
C3_39 C2_39 1_555 1_555
C4_39 O2_39 1_555 1_555
C5_39 S2_39 1_555 1_555
S4_39 C6_39 1_555 1_555
O13_2 C15_39 1_555 1_555
O20_16 C15_39 1_555 1_555
O23_17 Hf3_7 1_555 1_555
C6_39 C9_39 1_555 1_555
C9_39 H2_39 1_555 1_555
C12_39 S1_39 1_555 1_555
C15_39 C6_39 1_555 1_555
C18_39 C5_39 1_555 1_555
O4_39 C4_39 1_555 1_555
C1_39 C4_39 1_555 1_555
C3_39 C5_39 1_555 1_555
S4_39 C18_39 1_555 1_555
C9_39 C12_39 1_555 1_555
C12_39 C18_39 1_555 1_555
O22_18 Hf3_8 1_555 1_555
S3_39 C13_39 1_555 1_555
S5_39 C7_39 1_555 1_555
S6_39 C8_39 1_555 1_555
O9_15 Hf3_8 1_555 1_555
O11_39 Hf3_8 1_555 1_555
O13_24 C17_39 1_555 1_555
O15_39 Hf8_15 1_555 1_555
O17_39 Hf8_15 1_555 1_555
O20_17 C17_39 1_555 1_555
O23_18 Hf3_8 1_555 1_555
O24_39 Hf8_15 1_555 1_555
C7_39 C10_39 1_555 1_555
C8_39 C11_39 1_555 1_555
C10_39 H3_39 1_555 1_555
C11_39 H4_39 1_555 1_555
C13_39 C10_39 1_555 1_555
C14_39 S3_39 1_555 1_555
C16_39 O11_39 1_555 1_555
C17_39 C8_39 1_555 1_555
C19_39 S5_39 1_555 1_555
C20_39 S6_39 1_555 1_555
O17_39 C16_39 1_555 1_555
C7_39 C16_39 1_555 1_555
C11_39 C14_39 1_555 1_555
C13_39 C19_39 1_555 1_555
C14_39 C20_39 1_555 1_555
C19_39 C20_39 1_555 1_555
O22_33 Hf3 1_555 1_555
S3_40 C13_40 1_555 1_555
S5_40 C7_40 1_555 1_555
S6_40 C8_40 1_555 1_555
O9_23 Hf3 1_555 1_555
O11_40 Hf3 1_555 1_555
O13_22 C17_40 1_555 1_555
O15_40 Hf7_15 1_555 1_555
O17_40 Hf7_15 1_555 1_555
O20_23 C17_40 1_555 1_555
O23_33 Hf3 1_555 1_555
O24_40 Hf7_15 1_555 1_555
C7_40 C10_40 1_555 1_555
C8_40 C11_40 1_555 1_555
C10_40 H3_40 1_555 1_555
C11_40 H4_40 1_555 1_555
C13_40 C10_40 1_555 1_555
C14_40 S3_40 1_555 1_555
C16_40 O11_40 1_555 1_555
C17_40 C8_40 1_555 1_555
C19_40 S5_40 1_555 1_555
C20_40 S6_40 1_555 1_555
O17_40 C16_40 1_555 1_555
C7_40 C16_40 1_555 1_555
C11_40 C14_40 1_555 1_555
C13_40 C19_40 1_555 1_555
C14_40 C20_40 1_555 1_555
C19_40 C20_40 1_555 1_555
Hf3_2 O8_23 1_555 1_555
S1_40 C3_40 1_555 1_555
S2_40 C1_40 1_555 1_555
O2_40 Hf3_2 1_555 1_555
O3_40 Hf7_10 1_555 1_555
O4_40 Hf7_10 1_555 1_555
O22_34 Hf3_2 1_555 1_555
O6_40 Hf7_10 1_555 1_555
C1_40 C2_40 1_555 1_555
C2_40 H1_40 1_555 1_555
C3_40 C2_40 1_555 1_555
C4_40 O2_40 1_555 1_555
C5_40 S2_40 1_555 1_555
S4_40 C6_40 1_555 1_555
O13_3 C15_40 1_555 1_555
O20_21 C15_40 1_555 1_555
O23_34 Hf3_2 1_555 1_555
C6_40 C9_40 1_555 1_555
C9_40 H2_40 1_555 1_555
C12_40 S1_40 1_555 1_555
C15_40 C6_40 1_555 1_555
C18_40 C5_40 1_555 1_555
O4_40 C4_40 1_555 1_555
C1_40 C4_40 1_555 1_555
C3_40 C5_40 1_555 1_555
S4_40 C18_40 1_555 1_555
C9_40 C12_40 1_555 1_555
C12_40 C18_40 1_555 1_555
Hf3_15 O8_14 1_555 1_555
S1_41 C3_41 1_555 1_555
S2_41 C1_41 1_555 1_555
O2_41 Hf3_15 1_555 1_555
O3_41 Hf9_10 1_555 1_555
O4_41 Hf9_10 1_555 1_555
O22_15 Hf3_15 1_555 1_555
O6_41 Hf9_10 1_555 1_555
C1_41 C2_41 1_555 1_555
C2_41 H1_41 1_555 1_555
C3_41 C2_41 1_555 1_555
C4_41 O2_41 1_555 1_555
C5_41 S2_41 1_555 1_555
S4_41 C6_41 1_555 1_555
O13_6 C15_41 1_555 1_555
O20_14 C15_41 1_555 1_555
O23_15 Hf3_15 1_555 1_555
C6_41 C9_41 1_555 1_555
C9_41 H2_41 1_555 1_555
C12_41 S1_41 1_555 1_555
C15_41 C6_41 1_555 1_555
C18_41 C5_41 1_555 1_555
O4_41 C4_41 1_555 1_555
C1_41 C4_41 1_555 1_555
C3_41 C5_41 1_555 1_555
S4_41 C18_41 1_555 1_555
C9_41 C12_41 1_555 1_555
C12_41 C18_41 1_555 1_555
O22_16 Hf3_16 1_555 1_555
S3_41 C13_41 1_555 1_555
S5_41 C7_41 1_555 1_555
S6_41 C8_41 1_555 1_555
O9_14 Hf3_16 1_555 1_555
O11_41 Hf3_16 1_555 1_555
O14_24 C17_41 1_555 1_555
O15_41 Hf8_14 1_555 1_555
O17_41 Hf8_14 1_555 1_555
O19_21 C17_41 1_555 1_555
O23_16 Hf3_16 1_555 1_555
O24_41 Hf8_14 1_555 1_555
C7_41 C10_41 1_555 1_555
C8_41 C11_41 1_555 1_555
C10_41 H3_41 1_555 1_555
C11_41 H4_41 1_555 1_555
C13_41 C10_41 1_555 1_555
C14_41 S3_41 1_555 1_555
C16_41 O11_41 1_555 1_555
C17_41 C8_41 1_555 1_555
C19_41 S5_41 1_555 1_555
C20_41 S6_41 1_555 1_555
O17_41 C16_41 1_555 1_555
C7_41 C16_41 1_555 1_555
C11_41 C14_41 1_555 1_555
C13_41 C19_41 1_555 1_555
C14_41 C20_41 1_555 1_555
C19_41 C20_41 1_555 1_555
O22_31 Hf3_9 1_555 1_555
S3_42 C13_42 1_555 1_555
S5_42 C7_42 1_555 1_555
S6_42 C8_42 1_555 1_555
O9_22 Hf3_9 1_555 1_555
O11_42 Hf3_9 1_555 1_555
O14_17 C17_42 1_555 1_555
O15_42 Hf7_13 1_555 1_555
O17_42 Hf7_13 1_555 1_555
O19_24 C17_42 1_555 1_555
O23_31 Hf3_9 1_555 1_555
O24_42 Hf7_13 1_555 1_555
C7_42 C10_42 1_555 1_555
C8_42 C11_42 1_555 1_555
C10_42 H3_42 1_555 1_555
C11_42 H4_42 1_555 1_555
C13_42 C10_42 1_555 1_555
C14_42 S3_42 1_555 1_555
C16_42 O11_42 1_555 1_555
C17_42 C8_42 1_555 1_555
C19_42 S5_42 1_555 1_555
C20_42 S6_42 1_555 1_555
O17_42 C16_42 1_555 1_555
C7_42 C16_42 1_555 1_555
C11_42 C14_42 1_555 1_555
C13_42 C19_42 1_555 1_555
C14_42 C20_42 1_555 1_555
C19_42 C20_42 1_555 1_555
Hf3_10 O8_22 1_555 1_555
S1_42 C3_42 1_555 1_555
S2_42 C1_42 1_555 1_555
O2_42 Hf3_10 1_555 1_555
O3_42 Hf9_11 1_555 1_555
O4_42 Hf9_11 1_555 1_555
O22_32 Hf3_10 1_555 1_555
O6_42 Hf9_11 1_555 1_555
C1_42 C2_42 1_555 1_555
C2_42 H1_42 1_555 1_555
C3_42 C2_42 1_555 1_555
C4_42 O2_42 1_555 1_555
C5_42 S2_42 1_555 1_555
S4_42 C6_42 1_555 1_555
O13_7 C15_42 1_555 1_555
O20_19 C15_42 1_555 1_555
O23_32 Hf3_10 1_555 1_555
C6_42 C9_42 1_555 1_555
C9_42 H2_42 1_555 1_555
C12_42 S1_42 1_555 1_555
C15_42 C6_42 1_555 1_555
C18_42 C5_42 1_555 1_555
O4_42 C4_42 1_555 1_555
C1_42 C4_42 1_555 1_555
C3_42 C5_42 1_555 1_555
S4_42 C18_42 1_555 1_555
C9_42 C12_42 1_555 1_555
C12_42 C18_42 1_555 1_555
O22_13 Hf3_11 1_555 1_555
S3_43 C13_43 1_555 1_555
S5_43 C7_43 1_555 1_555
S6_43 C8_43 1_555 1_555
O9_13 Hf3_11 1_555 1_555
O11_43 Hf3_11 1_555 1_555
O14_23 C17_43 1_555 1_555
O15_43 Hf8_13 1_555 1_555
O17_43 Hf8_13 1_555 1_555
O19_22 C17_43 1_555 1_555
O23_13 Hf3_11 1_555 1_555
O24_43 Hf8_13 1_555 1_555
C7_43 C10_43 1_555 1_555
C8_43 C11_43 1_555 1_555
C10_43 H3_43 1_555 1_555
C11_43 H4_43 1_555 1_555
C13_43 C10_43 1_555 1_555
C14_43 S3_43 1_555 1_555
C16_43 O11_43 1_555 1_555
C17_43 C8_43 1_555 1_555
C19_43 S5_43 1_555 1_555
C20_43 S6_43 1_555 1_555
O17_43 C16_43 1_555 1_555
C7_43 C16_43 1_555 1_555
C11_43 C14_43 1_555 1_555
C13_43 C19_43 1_555 1_555
C14_43 C20_43 1_555 1_555
C19_43 C20_43 1_555 1_555
Hf3_12 O8_13 1_555 1_555
S1_43 C3_43 1_555 1_555
S2_43 C1_43 1_555 1_555
O2_43 Hf3_12 1_555 1_555
O3_43 Hf9_12 1_555 1_555
O4_43 Hf9_12 1_555 1_555
O22_14 Hf3_12 1_555 1_555
O6_43 Hf9_12 1_555 1_555
C1_43 C2_43 1_555 1_555
C2_43 H1_43 1_555 1_555
C3_43 C2_43 1_555 1_555
C4_43 O2_43 1_555 1_555
C5_43 S2_43 1_555 1_555
S4_43 C6_43 1_555 1_555
O13_8 C15_43 1_555 1_555
O20_13 C15_43 1_555 1_555
O23_14 Hf3_12 1_555 1_555
C6_43 C9_43 1_555 1_555
C9_43 H2_43 1_555 1_555
C12_43 S1_43 1_555 1_555
C15_43 C6_43 1_555 1_555
C18_43 C5_43 1_555 1_555
O4_43 C4_43 1_555 1_555
C1_43 C4_43 1_555 1_555
C3_43 C5_43 1_555 1_555
S4_43 C18_43 1_555 1_555
C9_43 C12_43 1_555 1_555
C12_43 C18_43 1_555 1_555
Hf3_13 O8_21 1_555 1_555
S1_44 C3_44 1_555 1_555
S2_44 C1_44 1_555 1_555
O2_44 Hf3_13 1_555 1_555
O3_44 Hf9_9 1_555 1_555
O4_44 Hf9_9 1_555 1_555
O22_29 Hf3_13 1_555 1_555
O6_44 Hf9_9 1_555 1_555
C1_44 C2_44 1_555 1_555
C2_44 H1_44 1_555 1_555
C3_44 C2_44 1_555 1_555
C4_44 O2_44 1_555 1_555
C5_44 S2_44 1_555 1_555
S4_44 C6_44 1_555 1_555
O13_5 C15_44 1_555 1_555
O20_20 C15_44 1_555 1_555
O23_29 Hf3_13 1_555 1_555
C6_44 C9_44 1_555 1_555
C9_44 H2_44 1_555 1_555
C12_44 S1_44 1_555 1_555
C15_44 C6_44 1_555 1_555
C18_44 C5_44 1_555 1_555
O4_44 C4_44 1_555 1_555
C1_44 C4_44 1_555 1_555
C3_44 C5_44 1_555 1_555
S4_44 C18_44 1_555 1_555
C9_44 C12_44 1_555 1_555
C12_44 C18_44 1_555 1_555
O22_30 Hf3_14 1_555 1_555
S3_44 C13_44 1_555 1_555
S5_44 C7_44 1_555 1_555
S6_44 C8_44 1_555 1_555
O9_21 Hf3_14 1_555 1_555
O11_44 Hf3_14 1_555 1_555
O14_18 C17_44 1_555 1_555
O15_44 Hf7_14 1_555 1_555
O17_44 Hf7_14 1_555 1_555
O19_23 C17_44 1_555 1_555
O23_30 Hf3_14 1_555 1_555
O24_44 Hf7_14 1_555 1_555
C7_44 C10_44 1_555 1_555
C8_44 C11_44 1_555 1_555
C10_44 H3_44 1_555 1_555
C11_44 H4_44 1_555 1_555
C13_44 C10_44 1_555 1_555
C14_44 S3_44 1_555 1_555
C16_44 O11_44 1_555 1_555
C17_44 C8_44 1_555 1_555
C19_44 S5_44 1_555 1_555
C20_44 S6_44 1_555 1_555
O17_44 C16_44 1_555 1_555
C7_44 C16_44 1_555 1_555
C11_44 C14_44 1_555 1_555
C13_44 C19_44 1_555 1_555
C14_44 C20_44 1_555 1_555
C19_44 C20_44 1_555 1_555
Hf4_27 O8_11 1_555 1_555
S1_45 C3_45 1_555 1_555
S2_45 C1_45 1_555 1_555
O2_45 Hf4_27 1_555 1_555
O3_45 Hf6_11 1_555 1_555
O4_45 Hf6_11 1_555 1_555
O22_11 Hf4_27 1_555 1_555
O6_45 Hf6_11 1_555 1_555
C1_45 C2_45 1_555 1_555
C2_45 H1_45 1_555 1_555
C3_45 C2_45 1_555 1_555
C4_45 O2_45 1_555 1_555
C5_45 S2_45 1_555 1_555
S3_45 C13_45 1_555 1_555
S4_45 C6_45 1_555 1_555
S5_45 C7_45 1_555 1_555
S6_45 C8_45 1_555 1_555
O9_11 Hf4_27 1_555 1_555
O14_21 C15_45 1_555 1_555
O11_45 Hf4_27 1_555 1_555
O14_13 C17_45 1_555 1_555
O15_45 Hf8_11 1_555 1_555
O19_3 C15_45 1_555 1_555
O17_45 Hf8_11 1_555 1_555
O19_8 C17_45 1_555 1_555
O23_11 Hf4_27 1_555 1_555
O24_45 Hf8_11 1_555 1_555
C6_45 C9_45 1_555 1_555
C7_45 C10_45 1_555 1_555
C8_45 C11_45 1_555 1_555
C9_45 H2_45 1_555 1_555
C10_45 H3_45 1_555 1_555
C11_45 H4_45 1_555 1_555
C12_45 S1_45 1_555 1_555
C13_45 C10_45 1_555 1_555
C14_45 S3_45 1_555 1_555
C15_45 C6_45 1_555 1_555
C16_45 O11_45 1_555 1_555
C17_45 C8_45 1_555 1_555
C18_45 C5_45 1_555 1_555
C19_45 S5_45 1_555 1_555
C20_45 S6_45 1_555 1_555
O4_45 C4_45 1_555 1_555
C1_45 C4_45 1_555 1_555
C3_45 C5_45 1_555 1_555
S4_45 C18_45 1_555 1_555
O17_45 C16_45 1_555 1_555
C7_45 C16_45 1_555 1_555
C9_45 C12_45 1_555 1_555
C11_45 C14_45 1_555 1_555
C12_45 C18_45 1_555 1_555
C13_45 C19_45 1_555 1_555
C14_45 C20_45 1_555 1_555
C19_45 C20_45 1_555 1_555
Hf4_25 O8_12 1_555 1_555
S1_46 C3_46 1_555 1_555
S2_46 C1_46 1_555 1_555
O2_46 Hf4_25 1_555 1_555
O3_46 Hf6_12 1_555 1_555
O4_46 Hf6_12 1_555 1_555
O22_12 Hf4_25 1_555 1_555
O6_46 Hf6_12 1_555 1_555
C1_46 C2_46 1_555 1_555
C2_46 H1_46 1_555 1_555
C3_46 C2_46 1_555 1_555
C4_46 O2_46 1_555 1_555
C5_46 S2_46 1_555 1_555
S3_46 C13_46 1_555 1_555
S4_46 C6_46 1_555 1_555
S5_46 C7_46 1_555 1_555
S6_46 C8_46 1_555 1_555
O9_12 Hf4_25 1_555 1_555
O14_15 C15_46 1_555 1_555
O11_46 Hf4_25 1_555 1_555
O14_20 C17_46 1_555 1_555
O15_46 Hf8_12 1_555 1_555
O19_4 C15_46 1_555 1_555
O17_46 Hf8_12 1_555 1_555
O19_5 C17_46 1_555 1_555
O23_12 Hf4_25 1_555 1_555
O24_46 Hf8_12 1_555 1_555
C6_46 C9_46 1_555 1_555
C7_46 C10_46 1_555 1_555
C8_46 C11_46 1_555 1_555
C9_46 H2_46 1_555 1_555
C10_46 H3_46 1_555 1_555
C11_46 H4_46 1_555 1_555
C12_46 S1_46 1_555 1_555
C13_46 C10_46 1_555 1_555
C14_46 S3_46 1_555 1_555
C15_46 C6_46 1_555 1_555
C16_46 O11_46 1_555 1_555
C17_46 C8_46 1_555 1_555
C18_46 C5_46 1_555 1_555
C19_46 S5_46 1_555 1_555
C20_46 S6_46 1_555 1_555
O4_46 C4_46 1_555 1_555
C1_46 C4_46 1_555 1_555
C3_46 C5_46 1_555 1_555
S4_46 C18_46 1_555 1_555
O17_46 C16_46 1_555 1_555
C7_46 C16_46 1_555 1_555
C9_46 C12_46 1_555 1_555
C11_46 C14_46 1_555 1_555
C12_46 C18_46 1_555 1_555
C13_46 C19_46 1_555 1_555
C14_46 C20_46 1_555 1_555
C19_46 C20_46 1_555 1_555
Hf4_28 O8_9 1_555 1_555
S1_47 C3_47 1_555 1_555
S2_47 C1_47 1_555 1_555
O2_47 Hf4_28 1_555 1_555
O3_47 Hf6_9 1_555 1_555
O4_47 Hf6_9 1_555 1_555
O22_9 Hf4_28 1_555 1_555
O6_47 Hf6_9 1_555 1_555
C1_47 C2_47 1_555 1_555
C2_47 H1_47 1_555 1_555
C3_47 C2_47 1_555 1_555
C4_47 O2_47 1_555 1_555
C5_47 S2_47 1_555 1_555
S3_47 C13_47 1_555 1_555
S4_47 C6_47 1_555 1_555
S5_47 C7_47 1_555 1_555
S6_47 C8_47 1_555 1_555
O9_9 Hf4_28 1_555 1_555
O14_22 C15_47 1_555 1_555
O11_47 Hf4_28 1_555 1_555
O14_14 C17_47 1_555 1_555
O15_47 Hf8_9 1_555 1_555
O19 C15_47 1_555 1_555
O17_47 Hf8_9 1_555 1_555
O19_6 C17_47 1_555 1_555
O23_9 Hf4_28 1_555 1_555
O24_47 Hf8_9 1_555 1_555
C6_47 C9_47 1_555 1_555
C7_47 C10_47 1_555 1_555
C8_47 C11_47 1_555 1_555
C9_47 H2_47 1_555 1_555
C10_47 H3_47 1_555 1_555
C11_47 H4_47 1_555 1_555
C12_47 S1_47 1_555 1_555
C13_47 C10_47 1_555 1_555
C14_47 S3_47 1_555 1_555
C15_47 C6_47 1_555 1_555
C16_47 O11_47 1_555 1_555
C17_47 C8_47 1_555 1_555
C18_47 C5_47 1_555 1_555
C19_47 S5_47 1_555 1_555
C20_47 S6_47 1_555 1_555
O4_47 C4_47 1_555 1_555
C1_47 C4_47 1_555 1_555
C3_47 C5_47 1_555 1_555
S4_47 C18_47 1_555 1_555
O17_47 C16_47 1_555 1_555
C7_47 C16_47 1_555 1_555
C9_47 C12_47 1_555 1_555
C11_47 C14_47 1_555 1_555
C12_47 C18_47 1_555 1_555
C13_47 C19_47 1_555 1_555
C14_47 C20_47 1_555 1_555
C19_47 C20_47 1_555 1_555
Hf4_26 O8_10 1_555 1_555
S1_48 C3_48 1_555 1_555
S2_48 C1_48 1_555 1_555
O2_48 Hf4_26 1_555 1_555
O3_48 Hf6_10 1_555 1_555
O4_48 Hf6_10 1_555 1_555
O22_10 Hf4_26 1_555 1_555
O6_48 Hf6_10 1_555 1_555
C1_48 C2_48 1_555 1_555
C2_48 H1_48 1_555 1_555
C3_48 C2_48 1_555 1_555
C4_48 O2_48 1_555 1_555
C5_48 S2_48 1_555 1_555
S3_48 C13_48 1_555 1_555
S4_48 C6_48 1_555 1_555
S5_48 C7_48 1_555 1_555
S6_48 C8_48 1_555 1_555
O9_10 Hf4_26 1_555 1_555
O14_16 C15_48 1_555 1_555
O11_48 Hf4_26 1_555 1_555
O14_19 C17_48 1_555 1_555
O15_48 Hf8_10 1_555 1_555
O19_2 C15_48 1_555 1_555
O17_48 Hf8_10 1_555 1_555
O19_7 C17_48 1_555 1_555
O23_10 Hf4_26 1_555 1_555
O24_48 Hf8_10 1_555 1_555
C6_48 C9_48 1_555 1_555
C7_48 C10_48 1_555 1_555
C8_48 C11_48 1_555 1_555
C9_48 H2_48 1_555 1_555
C10_48 H3_48 1_555 1_555
C11_48 H4_48 1_555 1_555
C12_48 S1_48 1_555 1_555
C13_48 C10_48 1_555 1_555
C14_48 S3_48 1_555 1_555
C15_48 C6_48 1_555 1_555
C16_48 O11_48 1_555 1_555
C17_48 C8_48 1_555 1_555
C18_48 C5_48 1_555 1_555
C19_48 S5_48 1_555 1_555
C20_48 S6_48 1_555 1_555
O4_48 C4_48 1_555 1_555
C1_48 C4_48 1_555 1_555
C3_48 C5_48 1_555 1_555
S4_48 C18_48 1_555 1_555
O17_48 C16_48 1_555 1_555
C7_48 C16_48 1_555 1_555
C9_48 C12_48 1_555 1_555
C11_48 C14_48 1_555 1_555
C12_48 C18_48 1_555 1_555
C13_48 C19_48 1_555 1_555
C14_48 C20_48 1_555 1_555
C19_48 C20_48 1_555 1_555

#END
