
###############################################################################
#
# This file contains modified crystal structure data generated from the
# MOF subset of the Cambridge Structural Database (CSD) v543 
# hosted by the Cambridge Crystallographic Data Centre (CCDC).
#
# This work is licensed under the Creative Commons
# Attribution-NonCommercial-ShareAlike 4.0 International License.
# To view a copy of this license, visit
# http://creativecommons.org/licenses/by-nc-sa/4.0/
# or send a letter to
# Creative Commons, PO Box 1866, Mountain View, CA 94042, USA.
#
# CIF created using the CSD Python API on 29 September 2022
# The structure has been converted into the P1 space group
# The structure has a 3D framework
# The original CSD entry VEGGUM is in the orthorhombic crystal system
# The framework has been calculated to contain at least 10.0% void space
# The void calculation uses a probe of radius 1.32A, grid spacing 0.4
#
###############################################################################

data_VEGGUM
_chemical_formula_moiety         '(C256 H184 N40 O28 Zn8)n'
_symmetry_cell_setting           triclinic
_symmetry_space_group_name_H-M   'P 1'
_symmetry_Int_Tables_number      1
_space_group_name_Hall           'P 1'
loop_
_symmetry_equiv_pos_site_id
_symmetry_equiv_pos_as_xyz
1 x,y,z
_cell_length_a                   27.014(2)
_cell_length_b                   11.1578(9)
_cell_length_c                   21.0780(18)
_cell_angle_alpha                90
_cell_angle_beta                 90
_cell_angle_gamma                90
_cell_volume                     6353.26
loop_
_atom_site_label
_atom_site_type_symbol
_atom_site_fract_x
_atom_site_fract_y
_atom_site_fract_z
N6 N 0.05085(12) 0.0331(3) 0.86400(16)
C25 C 0.00302(15) 0.5274(4) 0.8520(2)
H17 H 0.0220 0.5931 0.8639
C26 C 0.01712(15) 0.4132(3) 0.8697(2)
H18 H 0.0453 0.4015 0.8943
C30 C 0.04360(15) 0.1403(4) 0.8394(2)
H21 H 0.0626 0.1724 0.8068
C32 C 0.01546(18) 0.0217(4) 0.9095(2)
N2 N 0.00565(12) 0.1974(3) 0.86684(16)
C1 C 0.21323(15) 0.3908(3) 0.1336(2)
C2 C 0.25378(16) 0.3148(4) 0.1306(2)
H1 H 0.2540 0.2526 0.1012
C3 C 0.29356(16) 0.3302(4) 0.1704(2)
H2 H 0.3201 0.2771 0.1682
C4 C 0.29480(15) 0.4243(3) 0.2140(2)
C5 C 0.25452(16) 0.4980(4) 0.2171(2)
H3 H 0.2543 0.5599 0.2466
C6 C 0.21393(16) 0.4833(4) 0.1775(2)
H4 H 0.1872 0.5354 0.1805
C7 C 0.34053(16) 0.4449(3) 0.2543(2)
C10 C 0.08616(16) 0.5719(4) 0.0024(2)
C11 C 0.10430(16) 0.4797(4) 0.0396(2)
H6 H 0.0832 0.4188 0.0529
C12 C 0.15402(15) 0.4776(3) 0.05728(19)
C13 C 0.18424(16) 0.5723(4) 0.0401(2)
H7 H 0.2168 0.5750 0.0542
C14 C 0.16607(17) 0.6631(4) 0.0019(2)
C15 C 0.16074(15) 0.2603(3) 0.0684(2)
C16 C 0.1570(2) 0.2386(4) 0.0041(2)
C18 C 0.1381(2) 0.0324(5) 0.0248(3)
C19 C 0.1420(2) 0.0541(4) 0.0881(3)
C20 C 0.15311(17) 0.1686(4) 0.1109(2)
H13 H 0.1553 0.1826 0.1543
N5 N 0.17235(13) 0.3769(3) 0.09147(17)
O3 O 0.37977(12) 0.3982(3) 0.23731(17)
O4 O 0.33588(10) 0.5135(3) 0.30104(14)
Zn2 Zn 0.396481(16) 0.58557(4) 0.33639(2)
C8 C 0.09881(17) 0.7548(3) 0.9343(2)
C9 C 0.11694(16) 0.6643(3) 0.98178(19)
H5 H 0.0529 0.5723 0.9909
H8 H 0.1871 0.7248 0.9895
H9 H 0.1620 0.3006 0.9753
C17 C 0.1459(2) 0.1241(5) 0.9823(3)
H10 H 0.1437 0.1095 0.9390
C21 C 0.05379(16) 0.8571(4) 0.7122(2)
H14 H 0.0489 0.9382 0.7042
C22 C 0.03719(16) 0.7677(4) 0.6753(2)
H15 H 0.0190 0.7748 0.6381
C23 C 0.07773(14) 0.6946(3) 0.75732(19)
H16 H 0.0920 0.6407 0.7856
C24 C 0.03954(14) 0.5434(3) 0.68367(19)
C27 C 0.06810(15) 0.4465(3) 0.7018(2)
H19 H 0.0966 0.4579 0.7259
C28 C 0.05392(15) 0.3325(4) 0.6838(2)
H20 H 0.0732 0.2666 0.6950
C29 C 0.01106(14) 0.3169(3) 0.64929(19)
C31 C 0.0132(2) 0.1219(4) 0.5887(3)
H22 H 0.0402 0.1359 0.5624
N3 N 0.05264(11) 0.6632(3) 0.70403(15)
N4 N 0.07900(12) 0.8116(3) 0.76343(16)
O1 O 0.05344(12) 0.7618(3) 0.92484(16)
O2 O 0.13037(11) 0.8166(3) 0.90582(14)
Zn1 Zn 0.103519(16) 0.91443(4) 0.83639(2)
O5 O 0.16412(10) 0.9865(3) 0.80104(14)
H3_2 H 0.2457 0.9401 0.7466
H4_2 H 0.3128 0.9646 0.6805
C8_2 C 0.40119(17) 0.7452(3) 0.4343(2)
C9_2 C 0.38306(16) 0.8357(3) 0.48178(19)
C10_2 C 0.41384(16) 0.9281(4) 0.5024(2)
H5_2 H 0.4471 0.9277 0.4909
C13_2 C 0.31576(16) 0.9277(4) 0.5401(2)
H7_2 H 0.2832 0.9250 0.5542
C14_2 C 0.33393(17) 0.8369(4) 0.5019(2)
H8_2 H 0.3129 0.7752 0.4895
C21_2 C 0.44621(16) 0.6429(4) 0.2122(2)
H14_2 H 0.4511 0.5618 0.2042
C22_2 C 0.46281(16) 0.7323(4) 0.1753(2)
H15_2 H 0.4810 0.7252 0.1381
C23_2 C 0.42227(14) 0.8054(3) 0.25732(19)
H16_2 H 0.4080 0.8593 0.2856
C24_2 C 0.46046(14) 0.9566(3) 0.18367(19)
C25_2 C 0.50302(15) 0.9726(4) 0.1480(2)
H17_2 H 0.5220 0.9069 0.1361
N3_2 N 0.44736(11) 0.8368(3) 0.20403(15)
N4_2 N 0.42100(12) 0.6884(3) 0.26343(16)
O1_2 O 0.44656(12) 0.7382(3) 0.42484(16)
O2_2 O 0.36963(11) 0.6834(3) 0.40582(14)
N6_2 N 0.44915(12) 0.4669(3) 0.36400(16)
H9_2 H 0.6620 0.1994 0.0247
C17_2 C 0.6459(2) 0.3759(5) 0.0177(3)
H10_2 H 0.6437 0.3905 0.0610
C26_2 C 0.48288(15) 0.0868(3) 0.3697(2)
H18_2 H 0.4547 0.0985 0.3943
C27_2 C 0.56810(15) 0.0535(3) 0.2982(2)
H19_2 H 0.5966 0.0421 0.2741
C28_2 C 0.55392(15) 0.1675(4) 0.3162(2)
H20_2 H 0.5732 0.2334 0.3050
C29_2 C 0.51106(14) 0.1831(3) 0.35071(19)
C30_2 C 0.45640(15) 0.3597(4) 0.3394(2)
H21_2 H 0.4374 0.3276 0.3068
C31_2 C 0.5132(2) 0.3781(4) 0.4113(3)
H22_2 H 0.5402 0.3641 0.4376
C32_2 C 0.48454(18) 0.4783(4) 0.4095(2)
H23 H 0.4886 0.5448 0.4356
N2_2 N 0.49435(12) 0.3026(3) 0.36684(16)
H23_2 H 0.0114 0.9552 0.9356
H11 H 0.1303 0.9561 0.0102
H12 H 0.1372 0.9916 0.1166
C25_3 C 0.99698(15) 0.5274(4) 0.6480(2)
H17_3 H 0.9780 0.5931 0.6361
C26_3 C 0.98288(15) 0.4132(3) 0.6303(2)
H18_3 H 0.9547 0.4015 0.6057
C30_3 C 0.95640(15) 0.1403(4) 0.6606(2)
H21_3 H 0.9374 0.1724 0.6932
C32_3 C 0.98454(18) 0.0217(4) 0.5905(2)
N1 N 0.94915(12) 0.0331(3) 0.63600(16)
N2_3 N 0.99435(12) 0.1974(3) 0.63316(16)
H23_3 H 0.9886 0.9552 0.5644
Zn3 Zn 0.896481(16) 0.91443(4) 0.66361(2)
C1_2 C 0.28677(15) 0.1092(3) 0.6336(2)
C2_2 C 0.24622(16) 0.1852(4) 0.6306(2)
H1_2 H 0.2460 0.2474 0.6012
C3_2 C 0.20644(16) 0.1698(4) 0.6704(2)
H2_2 H 0.1799 0.2229 0.6682
C4_2 C 0.20520(15) 0.0757(3) 0.7140(2)
C5_2 C 0.24548(16) 0.0020(4) 0.7171(2)
C6_2 C 0.28607(16) 0.0167(4) 0.6775(2)
C7_2 C 0.15947(16) 0.0551(3) 0.7543(2)
C11_2 C 0.39570(16) 0.0203(4) 0.5396(2)
H6_2 H 0.4168 0.0812 0.5529
C12_2 C 0.34598(15) 0.0224(3) 0.55728(19)
C15_2 C 0.33926(15) 0.2397(3) 0.5684(2)
C16_2 C 0.3430(2) 0.2614(4) 0.5041(2)
H9_3 H 0.3380 0.1994 0.4753
C17_3 C 0.3541(2) 0.3759(5) 0.4823(3)
H10_3 H 0.3563 0.3905 0.4390
C18_2 C 0.3619(2) 0.4676(5) 0.5248(3)
H11_2 H 0.3697 0.5439 0.5102
C19_2 C 0.3580(2) 0.4459(4) 0.5881(3)
H12_2 H 0.3628 0.5084 0.6166
C20_2 C 0.34689(17) 0.3314(4) 0.6109(2)
H13_2 H 0.3447 0.3174 0.6543
C26_4 C 0.51712(15) 0.0868(3) 0.1303(2)
H18_4 H 0.5453 0.0985 0.1057
C27_3 C 0.43190(15) 0.0535(3) 0.2018(2)
H19_3 H 0.4034 0.0421 0.2259
C28_3 C 0.44608(15) 0.1675(4) 0.1838(2)
H20_3 H 0.4268 0.2334 0.1950
C29_3 C 0.48894(14) 0.1831(3) 0.14929(19)
C30_4 C 0.54360(15) 0.3597(4) 0.1606(2)
H21_4 H 0.5626 0.3276 0.1932
C31_3 C 0.4868(2) 0.3781(4) 0.0887(3)
H22_3 H 0.4598 0.3641 0.0624
C32_4 C 0.51546(18) 0.4783(4) 0.0905(2)
H23_4 H 0.5114 0.5448 0.0644
N1_2 N 0.55085(12) 0.4669(3) 0.13600(16)
N2_4 N 0.50565(12) 0.3026(3) 0.13316(16)
N5_2 N 0.32765(13) 0.1231(3) 0.59147(17)
O3_2 O 0.12023(12) 0.1018(3) 0.73731(17)
Zn3_2 Zn 0.603519(16) 0.58557(4) 0.16361(2)
C8_3 C 0.59881(17) 0.7452(3) 0.0657(2)
C9_3 C 0.61694(16) 0.8357(3) 0.01822(19)
H5_3 H 0.5529 0.9277 0.0091
H8_3 H 0.6871 0.7752 0.0105
C21_3 C 0.55379(16) 0.6429(4) 0.2878(2)
H14_3 H 0.5489 0.5618 0.2958
C22_3 C 0.53719(16) 0.7323(4) 0.3247(2)
H15_3 H 0.5190 0.7252 0.3619
C23_3 C 0.57773(14) 0.8054(3) 0.24268(19)
H16_3 H 0.5920 0.8593 0.2144
C24_3 C 0.53954(14) 0.9566(3) 0.31633(19)
C25_4 C 0.49698(15) 0.9726(4) 0.3520(2)
H17_4 H 0.4780 0.9069 0.3639
N3_3 N 0.55264(11) 0.8368(3) 0.29597(15)
N4_3 N 0.57900(12) 0.6884(3) 0.23657(16)
O1_3 O 0.55344(12) 0.7382(3) 0.07516(16)
O2_3 O 0.63037(11) 0.6834(3) 0.09418(14)
O5_2 O 0.66412(10) 0.5135(3) 0.19896(14)
H3_3 H 0.7543 0.9401 0.7534
H4_3 H 0.6872 0.9646 0.8195
C10_3 C 0.58616(16) 0.9281(4) 0.9976(2)
C13_3 C 0.68424(16) 0.9277(4) 0.9599(2)
H7_3 H 0.7168 0.9250 0.9458
C14_3 C 0.66607(17) 0.8369(4) 0.9981(2)
O4_2 O 0.83588(10) 0.9865(3) 0.69896(14)
C1_3 C 0.78677(15) 0.3908(3) 0.3664(2)
C2_3 C 0.74622(16) 0.3148(4) 0.3694(2)
H1_3 H 0.7460 0.2526 0.3988
C3_3 C 0.70644(16) 0.3302(4) 0.3296(2)
H2_3 H 0.6799 0.2771 0.3318
C4_3 C 0.70520(15) 0.4243(3) 0.2860(2)
C5_3 C 0.74548(16) 0.4980(4) 0.2829(2)
H3_4 H 0.7457 0.5599 0.2534
C6_3 C 0.78607(16) 0.4833(4) 0.3225(2)
H4_4 H 0.8128 0.5354 0.3195
C7_3 C 0.65947(16) 0.4449(3) 0.2457(2)
C8_4 C 0.90119(17) 0.7548(3) 0.5657(2)
C9_4 C 0.88306(16) 0.6643(3) 0.51822(19)
C10_4 C 0.91384(16) 0.5719(4) 0.4976(2)
H5_4 H 0.9471 0.5723 0.5091
C11_3 C 0.89570(16) 0.4797(4) 0.4604(2)
H6_3 H 0.9168 0.4188 0.4471
C12_3 C 0.84598(15) 0.4776(3) 0.44272(19)
C13_4 C 0.81576(16) 0.5723(4) 0.4599(2)
H7_4 H 0.7832 0.5750 0.4458
C14_4 C 0.83393(17) 0.6631(4) 0.4981(2)
H8_4 H 0.8129 0.7248 0.5105
C15_3 C 0.83926(15) 0.2603(3) 0.4316(2)
C16_3 C 0.8430(2) 0.2386(4) 0.4959(2)
H9_4 H 0.8380 0.3006 0.5247
C17_4 C 0.8541(2) 0.1241(5) 0.5177(3)
H10_4 H 0.8563 0.1095 0.5610
C18_3 C 0.8619(2) 0.0324(5) 0.4752(3)
C19_3 C 0.8580(2) 0.0541(4) 0.4119(3)
C20_3 C 0.84689(17) 0.1686(4) 0.3891(2)
H13_3 H 0.8447 0.1826 0.3457
C21_4 C 0.94621(16) 0.8571(4) 0.7878(2)
H14_4 H 0.9511 0.9382 0.7958
C22_4 C 0.96281(16) 0.7677(4) 0.8247(2)
H15_4 H 0.9810 0.7748 0.8619
C23_4 C 0.92227(14) 0.6946(3) 0.74268(19)
H16_4 H 0.9080 0.6407 0.7144
C24_4 C 0.96046(14) 0.5434(3) 0.81633(19)
C27_4 C 0.93190(15) 0.4465(3) 0.7982(2)
H19_4 H 0.9034 0.4579 0.7741
C28_4 C 0.94608(15) 0.3325(4) 0.8162(2)
H20_4 H 0.9268 0.2666 0.8050
C29_4 C 0.98894(14) 0.3169(3) 0.85071(19)
C31_4 C 0.9868(2) 0.1219(4) 0.9113(3)
H22_4 H 0.9598 0.1359 0.9376
N3_4 N 0.94736(11) 0.6632(3) 0.79597(15)
N4_4 N 0.92100(12) 0.8116(3) 0.73657(16)
N5_3 N 0.82765(13) 0.3769(3) 0.40853(17)
O1_4 O 0.94656(12) 0.7618(3) 0.57516(16)
O2_4 O 0.86963(11) 0.8166(3) 0.59418(14)
O3_3 O 0.62023(12) 0.3982(3) 0.26269(17)
C1_4 C 0.71323(15) 0.1092(3) 0.8664(2)
C2_4 C 0.75378(16) 0.1852(4) 0.8694(2)
H1_4 H 0.7540 0.2474 0.8988
C3_4 C 0.79356(16) 0.1698(4) 0.8296(2)
H2_4 H 0.8201 0.2229 0.8318
C4_4 C 0.79480(15) 0.0757(3) 0.7860(2)
C5_4 C 0.75452(16) 0.0020(4) 0.7829(2)
C6_4 C 0.71393(16) 0.0167(4) 0.8225(2)
C7_4 C 0.84053(16) 0.0551(3) 0.7457(2)
C11_4 C 0.60430(16) 0.0203(4) 0.9604(2)
H6_4 H 0.5832 0.0812 0.9471
C12_4 C 0.65402(15) 0.0224(3) 0.94272(19)
C15_4 C 0.66074(15) 0.2397(3) 0.9316(2)
C16_4 C 0.6570(2) 0.2614(4) 0.9959(2)
C18_4 C 0.6381(2) 0.4676(5) 0.9752(3)
H11_3 H 0.6303 0.5439 0.9898
C19_4 C 0.6420(2) 0.4459(4) 0.9119(3)
H12_3 H 0.6372 0.5084 0.8834
C20_4 C 0.65311(17) 0.3314(4) 0.8891(2)
H13_4 H 0.6553 0.3174 0.8457
N5_4 N 0.67235(13) 0.1231(3) 0.90853(17)
O3_4 O 0.87977(12) 0.1018(3) 0.76269(17)
H11_4 H 0.8697 0.9561 0.4898
H12_4 H 0.8628 0.9916 0.3834
H23_5 H 0.0114 0.0448 0.4356
Zn3_3 Zn 0.103519(16) 0.08557(4) 0.33639(2)
C1_5 C 0.71323(15) 0.8908(3) 0.3664(2)
C2_5 C 0.75378(16) 0.8148(4) 0.3694(2)
H1_5 H 0.7540 0.7526 0.3988
C3_5 C 0.79356(16) 0.8302(4) 0.3296(2)
H2_5 H 0.8201 0.7771 0.3318
C4_5 C 0.79480(15) 0.9243(3) 0.2860(2)
C5_5 C 0.75452(16) 0.9980(4) 0.2829(2)
C6_5 C 0.71393(16) 0.9833(4) 0.3225(2)
C7_5 C 0.84053(16) 0.9449(3) 0.2457(2)
C11_5 C 0.60430(16) 0.9797(4) 0.4604(2)
H6_5 H 0.5832 0.9188 0.4471
C12_5 C 0.65402(15) 0.9776(3) 0.44272(19)
C15_5 C 0.66074(15) 0.7603(3) 0.4316(2)
C16_5 C 0.6570(2) 0.7386(4) 0.4959(2)
H9_5 H 0.6620 0.8006 0.5247
C17_5 C 0.6459(2) 0.6241(5) 0.5177(3)
H10_5 H 0.6437 0.6095 0.5610
C18_5 C 0.6381(2) 0.5324(5) 0.4752(3)
H11_5 H 0.6303 0.4561 0.4898
C19_5 C 0.6420(2) 0.5541(4) 0.4119(3)
H12_5 H 0.6372 0.4916 0.3834
C20_5 C 0.65311(17) 0.6686(4) 0.3891(2)
H13_5 H 0.6553 0.6826 0.3457
C26_5 C 0.48288(15) 0.9132(3) 0.8697(2)
H18_5 H 0.4547 0.9015 0.8943
C27_5 C 0.56810(15) 0.9465(3) 0.7982(2)
H19_5 H 0.5966 0.9579 0.7741
C28_5 C 0.55392(15) 0.8325(4) 0.8162(2)
H20_5 H 0.5732 0.7666 0.8050
C29_5 C 0.51106(14) 0.8169(3) 0.85071(19)
C30_5 C 0.45640(15) 0.6403(4) 0.8394(2)
H21_5 H 0.4374 0.6724 0.8068
C31_5 C 0.5132(2) 0.6219(4) 0.9113(3)
H22_5 H 0.5402 0.6359 0.9376
C32_5 C 0.48454(18) 0.5217(4) 0.9095(2)
H23_6 H 0.4886 0.4552 0.9356
N1_3 N 0.44915(12) 0.5331(3) 0.86400(16)
N2_5 N 0.49435(12) 0.6974(3) 0.86684(16)
N5_5 N 0.67235(13) 0.8769(3) 0.40853(17)
O3_5 O 0.87977(12) 0.8982(3) 0.26269(17)
Zn3_4 Zn 0.396481(16) 0.41443(4) 0.83639(2)
H3_5 H 0.2457 0.0599 0.2466
H4_5 H 0.3128 0.0354 0.1805
C10_5 C 0.41384(16) 0.0719(4) 0.0024(2)
C13_5 C 0.31576(16) 0.0723(4) 0.0401(2)
H7_5 H 0.2832 0.0750 0.0542
C14_5 C 0.33393(17) 0.1631(4) 0.0019(2)
O4_3 O 0.16412(10) 0.0135(3) 0.30104(14)
C8_5 C 0.40119(17) 0.2548(3) 0.9343(2)
C9_5 C 0.38306(16) 0.1643(3) 0.98178(19)
H5_5 H 0.4471 0.0723 0.9909
H8_5 H 0.3129 0.2248 0.9895
C21_5 C 0.44621(16) 0.3571(4) 0.7122(2)
H14_5 H 0.4511 0.4382 0.7042
C22_5 C 0.46281(16) 0.2677(4) 0.6753(2)
H15_5 H 0.4810 0.2748 0.6381
C23_5 C 0.42227(14) 0.1946(3) 0.75732(19)
H16_5 H 0.4080 0.1407 0.7856
C24_5 C 0.46046(14) 0.0434(3) 0.68367(19)
C25_5 C 0.50302(15) 0.0274(4) 0.6480(2)
H17_5 H 0.5220 0.0931 0.6361
N3_5 N 0.44736(11) 0.1632(3) 0.70403(15)
N4_5 N 0.42100(12) 0.3116(3) 0.76343(16)
O1_5 O 0.44656(12) 0.2618(3) 0.92484(16)
O2_5 O 0.36963(11) 0.3166(3) 0.90582(14)
O5_3 O 0.33588(10) 0.4865(3) 0.80104(14)
C1_6 C 0.21323(15) 0.6092(3) 0.6336(2)
C2_6 C 0.25378(16) 0.6852(4) 0.6306(2)
H1_6 H 0.2540 0.7474 0.6012
C3_6 C 0.29356(16) 0.6698(4) 0.6704(2)
H2_6 H 0.3201 0.7229 0.6682
C4_6 C 0.29480(15) 0.5757(3) 0.7140(2)
C5_6 C 0.25452(16) 0.5020(4) 0.7171(2)
H3_6 H 0.2543 0.4401 0.7466
C6_6 C 0.21393(16) 0.5167(4) 0.6775(2)
H4_6 H 0.1872 0.4646 0.6805
C7_6 C 0.34053(16) 0.5551(3) 0.7543(2)
C8_6 C 0.09881(17) 0.2452(3) 0.4343(2)
C9_6 C 0.11694(16) 0.3357(3) 0.48178(19)
C10_6 C 0.08616(16) 0.4281(4) 0.5024(2)
H5_6 H 0.0529 0.4277 0.4909
C11_6 C 0.10430(16) 0.5203(4) 0.5396(2)
H6_6 H 0.0832 0.5812 0.5529
C12_6 C 0.15402(15) 0.5224(3) 0.55728(19)
C13_6 C 0.18424(16) 0.4277(4) 0.5401(2)
H7_6 H 0.2168 0.4250 0.5542
C14_6 C 0.16607(17) 0.3369(4) 0.5019(2)
H8_6 H 0.1871 0.2752 0.4895
C15_6 C 0.16074(15) 0.7397(3) 0.5684(2)
C16_6 C 0.1570(2) 0.7614(4) 0.5041(2)
H9_6 H 0.1620 0.6994 0.4753
C17_6 C 0.1459(2) 0.8759(5) 0.4823(3)
H10_6 H 0.1437 0.8905 0.4390
C18_6 C 0.1381(2) 0.9676(5) 0.5248(3)
C19_6 C 0.1420(2) 0.9459(4) 0.5881(3)
C20_6 C 0.15311(17) 0.8314(4) 0.6109(2)
H13_6 H 0.1553 0.8174 0.6543
C21_6 C 0.05379(16) 0.1429(4) 0.2122(2)
H14_6 H 0.0489 0.0618 0.2042
C22_6 C 0.03719(16) 0.2323(4) 0.1753(2)
H15_6 H 0.0190 0.2252 0.1381
C23_6 C 0.07773(14) 0.3054(3) 0.25732(19)
H16_6 H 0.0920 0.3593 0.2856
C24_6 C 0.03954(14) 0.4566(3) 0.18367(19)
C27_6 C 0.06810(15) 0.5535(3) 0.2018(2)
H19_6 H 0.0966 0.5421 0.2259
C28_6 C 0.05392(15) 0.6675(4) 0.1838(2)
H20_6 H 0.0732 0.7334 0.1950
C29_6 C 0.01106(14) 0.6831(3) 0.14929(19)
C31_6 C 0.0132(2) 0.8781(4) 0.0887(3)
H22_6 H 0.0402 0.8641 0.0624
N3_6 N 0.05264(11) 0.3368(3) 0.20403(15)
N4_6 N 0.07900(12) 0.1884(3) 0.26343(16)
N5_6 N 0.17235(13) 0.6231(3) 0.59147(17)
O1_6 O 0.05344(12) 0.2382(3) 0.42484(16)
O2_6 O 0.13037(11) 0.1834(3) 0.40582(14)
O3_6 O 0.37977(12) 0.6018(3) 0.73731(17)
C25_6 C 0.00302(15) 0.4726(4) 0.3520(2)
H17_6 H 0.0220 0.4069 0.3639
C26_6 C 0.01712(15) 0.5868(3) 0.3697(2)
H18_6 H 0.0453 0.5985 0.3943
C30_6 C 0.04360(15) 0.8597(4) 0.3394(2)
H21_6 H 0.0626 0.8276 0.3068
C32_6 C 0.01546(18) 0.9783(4) 0.4095(2)
N1_4 N 0.05085(12) 0.9669(3) 0.36400(16)
N2_6 N 0.00565(12) 0.8026(3) 0.36684(16)
H11_6 H 0.8697 0.0439 0.9898
H12_6 H 0.8628 0.0084 0.8834
C8_7 C 0.90119(17) 0.2452(3) 0.0657(2)
C9_7 C 0.88306(16) 0.3357(3) 0.01822(19)
H5_7 H 0.9471 0.4277 0.0091
H8_7 H 0.8129 0.2752 0.0105
H9_7 H 0.8380 0.6994 0.0247
C17_7 C 0.8541(2) 0.8759(5) 0.0177(3)
H10_7 H 0.8563 0.8905 0.0610
C21_7 C 0.94621(16) 0.1429(4) 0.2878(2)
H14_7 H 0.9511 0.0618 0.2958
C22_7 C 0.96281(16) 0.2323(4) 0.3247(2)
H15_7 H 0.9810 0.2252 0.3619
C23_7 C 0.92227(14) 0.3054(3) 0.24268(19)
H16_7 H 0.9080 0.3593 0.2144
C24_7 C 0.96046(14) 0.4566(3) 0.31633(19)
C27_7 C 0.93190(15) 0.5535(3) 0.2982(2)
H19_7 H 0.9034 0.5421 0.2741
C28_7 C 0.94608(15) 0.6675(4) 0.3162(2)
H20_7 H 0.9268 0.7334 0.3050
C29_7 C 0.98894(14) 0.6831(3) 0.35071(19)
C31_7 C 0.9868(2) 0.8781(4) 0.4113(3)
H22_7 H 0.9598 0.8641 0.4376
N3_7 N 0.94736(11) 0.3368(3) 0.29597(15)
N4_7 N 0.92100(12) 0.1884(3) 0.23657(16)
O1_7 O 0.94656(12) 0.2382(3) 0.07516(16)
O2_7 O 0.86963(11) 0.1834(3) 0.09418(14)
Zn1_2 Zn 0.896481(16) 0.08557(4) 0.16361(2)
O5_4 O 0.83588(10) 0.0135(3) 0.19896(14)
C1_7 C 0.78677(15) 0.6092(3) 0.8664(2)
C2_7 C 0.74622(16) 0.6852(4) 0.8694(2)
H1_7 H 0.7460 0.7474 0.8988
C3_7 C 0.70644(16) 0.6698(4) 0.8296(2)
H2_7 H 0.6799 0.7229 0.8318
C4_7 C 0.70520(15) 0.5757(3) 0.7860(2)
C5_7 C 0.74548(16) 0.5020(4) 0.7829(2)
H3_7 H 0.7457 0.4401 0.7534
C6_7 C 0.78607(16) 0.5167(4) 0.8225(2)
H4_7 H 0.8128 0.4646 0.8195
C7_7 C 0.65947(16) 0.5551(3) 0.7457(2)
C10_7 C 0.91384(16) 0.4281(4) 0.9976(2)
C11_7 C 0.89570(16) 0.5203(4) 0.9604(2)
H6_7 H 0.9168 0.5812 0.9471
C12_7 C 0.84598(15) 0.5224(3) 0.94272(19)
C13_7 C 0.81576(16) 0.4277(4) 0.9599(2)
H7_7 H 0.7832 0.4250 0.9458
C14_7 C 0.83393(17) 0.3369(4) 0.9981(2)
C15_7 C 0.83926(15) 0.7397(3) 0.9316(2)
C16_7 C 0.8430(2) 0.7614(4) 0.9959(2)
C18_7 C 0.8619(2) 0.9676(5) 0.9752(3)
C19_7 C 0.8580(2) 0.9459(4) 0.9119(3)
C20_7 C 0.84689(17) 0.8314(4) 0.8891(2)
H13_7 H 0.8447 0.8174 0.8457
N5_7 N 0.82765(13) 0.6231(3) 0.90853(17)
O3_7 O 0.62023(12) 0.6018(3) 0.76269(17)
O4_4 O 0.66412(10) 0.4865(3) 0.69896(14)
Zn2_2 Zn 0.603519(16) 0.41443(4) 0.66361(2)
H3_8 H 0.7543 0.0599 0.2534
H4_8 H 0.6872 0.0354 0.3195
C8_8 C 0.59881(17) 0.2548(3) 0.5657(2)
C9_8 C 0.61694(16) 0.1643(3) 0.51822(19)
C10_8 C 0.58616(16) 0.0719(4) 0.4976(2)
H5_8 H 0.5529 0.0723 0.5091
C13_8 C 0.68424(16) 0.0723(4) 0.4599(2)
H7_8 H 0.7168 0.0750 0.4458
C14_8 C 0.66607(17) 0.1631(4) 0.4981(2)
H8_8 H 0.6871 0.2248 0.5105
C21_8 C 0.55379(16) 0.3571(4) 0.7878(2)
H14_8 H 0.5489 0.4382 0.7958
C22_8 C 0.53719(16) 0.2677(4) 0.8247(2)
H15_8 H 0.5190 0.2748 0.8619
C23_8 C 0.57773(14) 0.1946(3) 0.74268(19)
H16_8 H 0.5920 0.1407 0.7144
C24_8 C 0.53954(14) 0.0434(3) 0.81633(19)
C25_7 C 0.49698(15) 0.0274(4) 0.8520(2)
H17_7 H 0.4780 0.0931 0.8639
N3_8 N 0.55264(11) 0.1632(3) 0.79597(15)
N4_8 N 0.57900(12) 0.3116(3) 0.73657(16)
O1_8 O 0.55344(12) 0.2618(3) 0.57516(16)
O2_8 O 0.63037(11) 0.3166(3) 0.59418(14)
N6_3 N 0.55085(12) 0.5331(3) 0.63600(16)
H9_8 H 0.3380 0.8006 0.9753
C17_8 C 0.3541(2) 0.6241(5) 0.9823(3)
H10_8 H 0.3563 0.6095 0.9390
C26_7 C 0.51712(15) 0.9132(3) 0.6303(2)
H18_7 H 0.5453 0.9015 0.6057
C27_8 C 0.43190(15) 0.9465(3) 0.7018(2)
H19_8 H 0.4034 0.9579 0.7259
C28_8 C 0.44608(15) 0.8325(4) 0.6838(2)
H20_8 H 0.4268 0.7666 0.6950
C29_8 C 0.48894(14) 0.8169(3) 0.64929(19)
C30_7 C 0.54360(15) 0.6403(4) 0.6606(2)
H21_7 H 0.5626 0.6724 0.6932
C31_8 C 0.4868(2) 0.6219(4) 0.5887(3)
H22_8 H 0.4598 0.6359 0.5624
C32_7 C 0.51546(18) 0.5217(4) 0.5905(2)
H23_7 H 0.5114 0.4552 0.5644
N2_7 N 0.50565(12) 0.6974(3) 0.63316(16)
H23_8 H 0.9886 0.0448 0.0644
N6_4 N 0.94915(12) 0.9669(3) 0.13600(16)
C25_8 C 0.99698(15) 0.4726(4) 0.1480(2)
H17_8 H 0.9780 0.4069 0.1361
C26_8 C 0.98288(15) 0.5868(3) 0.1303(2)
H18_8 H 0.9547 0.5985 0.1057
C30_8 C 0.95640(15) 0.8597(4) 0.1606(2)
H21_8 H 0.9374 0.8276 0.1932
C32_8 C 0.98454(18) 0.9783(4) 0.0905(2)
N2_8 N 0.99435(12) 0.8026(3) 0.13316(16)
C1_8 C 0.28677(15) 0.8908(3) 0.1336(2)
C2_8 C 0.24622(16) 0.8148(4) 0.1306(2)
H1_8 H 0.2460 0.7526 0.1012
C3_8 C 0.20644(16) 0.8302(4) 0.1704(2)
H2_8 H 0.1799 0.7771 0.1682
C4_8 C 0.20520(15) 0.9243(3) 0.2140(2)
C5_8 C 0.24548(16) 0.9980(4) 0.2171(2)
C6_8 C 0.28607(16) 0.9833(4) 0.1775(2)
C7_8 C 0.15947(16) 0.9449(3) 0.2543(2)
C11_8 C 0.39570(16) 0.9797(4) 0.0396(2)
H6_8 H 0.4168 0.9188 0.0529
C12_8 C 0.34598(15) 0.9776(3) 0.05728(19)
C15_8 C 0.33926(15) 0.7603(3) 0.0684(2)
C16_8 C 0.3430(2) 0.7386(4) 0.0041(2)
C18_8 C 0.3619(2) 0.5324(5) 0.0248(3)
H11_7 H 0.3697 0.4561 0.0102
C19_8 C 0.3580(2) 0.5541(4) 0.0881(3)
H12_7 H 0.3628 0.4916 0.1166
C20_8 C 0.34689(17) 0.6686(4) 0.1109(2)
H13_8 H 0.3447 0.6826 0.1543
N5_8 N 0.32765(13) 0.8769(3) 0.09147(17)
O3_8 O 0.12023(12) 0.8982(3) 0.23731(17)
H11_8 H 0.1303 0.0439 0.5102
H12_8 H 0.1372 0.0084 0.6166
loop_
_geom_bond_atom_site_label_1
_geom_bond_atom_site_label_2
_geom_bond_site_symmetry_1
_geom_bond_site_symmetry_2
C25 H17 1_555 1_555
C26 C25 1_555 1_555
H18 C26 1_555 1_555
C30 H21 1_555 1_555
N6 C30 1_555 1_555
C30 N2 1_555 1_555
C32 N6 1_555 1_555
C1 C2 1_555 1_555
C2 H1 1_555 1_555
C3 C2 1_555 1_555
H2 C3 1_555 1_555
C4 C3 1_555 1_555
C5 C4 1_555 1_555
H3 C5 1_555 1_555
C6 C1 1_555 1_555
H4 C6 1_555 1_555
C7 C4 1_555 1_555
C11 C10 1_555 1_555
H6 C11 1_555 1_555
C12 C11 1_555 1_555
C13 C12 1_555 1_555
H7 C13 1_555 1_555
C15 C16 1_555 1_555
C19 C18 1_555 1_555
C20 C15 1_555 1_555
H13 C20 1_555 1_555
N5 C1 1_555 1_555
O3 C7 1_555 1_555
O4 C7 1_555 1_555
Zn2 O4 1_555 1_555
C5 C6 1_555 1_555
C12 N5 1_555 1_555
C13 C14 1_555 1_555
C15 N5 1_555 1_555
C19 C20 1_555 1_555
C8 C9 1_555 1_555
H10 C17 1_555 1_555
C21 H14 1_555 1_555
C22 C21 1_555 1_555
H15 C22 1_555 1_555
C23 H16 1_555 1_555
C27 C24 1_555 1_555
H19 C27 1_555 1_555
C28 C27 1_555 1_555
H20 C28 1_555 1_555
C31 H22 1_555 1_555
N3 C22 1_555 1_555
N4 C21 1_555 1_555
O1 C8 1_555 1_555
O2 C8 1_555 1_555
Zn1 N4 1_555 1_555
O5 Zn1 1_555 1_555
C23 N3 1_555 1_555
C23 N4 1_555 1_555
C24 N3 1_555 1_555
C28 C29 1_555 1_555
O2 Zn1 1_555 1_555
C8_2 C9_2 1_555 1_555
C9_2 C10_2 1_555 1_555
C10_2 H5_2 1_555 1_555
H7_2 C13_2 1_555 1_555
C14_2 C9_2 1_555 1_555
H8_2 C14_2 1_555 1_555
C21_2 H14_2 1_555 1_555
C22_2 C21_2 1_555 1_555
H15_2 C22_2 1_555 1_555
C23_2 H16_2 1_555 1_555
C24_2 C25_2 1_555 1_555
C25_2 H17_2 1_555 1_555
N3_2 C22_2 1_555 1_555
N4_2 C21_2 1_555 1_555
O1_2 C8_2 1_555 1_555
O2_2 C8_2 1_555 1_555
Zn2 N4_2 1_555 1_555
N6_2 Zn2 1_555 1_555
C13_2 C14_2 1_555 1_555
C23_2 N3_2 1_555 1_555
C23_2 N4_2 1_555 1_555
C24_2 N3_2 1_555 1_555
O2_2 Zn2 1_555 1_555
H10_2 C17_2 1_555 1_555
H18_2 C26_2 1_555 1_555
H19_2 C27_2 1_555 1_555
C28_2 C27_2 1_555 1_555
H20_2 C28_2 1_555 1_555
C29_2 C26_2 1_555 1_555
C30_2 H21_2 1_555 1_555
C31_2 H22_2 1_555 1_555
C32_2 C31_2 1_555 1_555
H23 C32_2 1_555 1_555
N6_2 C30_2 1_555 1_555
N2_2 C29_2 1_555 1_555
C28_2 C29_2 1_555 1_555
C30_2 N2_2 1_555 1_555
C31_2 N2_2 1_555 1_555
C32_2 N6_2 1_555 1_555
C25_3 H17_3 1_555 1_555
C26_3 C25_3 1_555 1_555
H18_3 C26_3 1_555 1_555
C30_3 H21_3 1_555 1_555
N1 C30_3 1_555 1_555
C30_3 N2_3 1_555 1_555
C32_3 N1 1_555 1_555
C1_2 C2_2 1_555 1_555
C2_2 H1_2 1_555 1_555
C3_2 C2_2 1_555 1_555
H2_2 C3_2 1_555 1_555
C4_2 C3_2 1_555 1_555
C5_2 C4_2 1_555 1_555
C6_2 C1_2 1_555 1_555
C7_2 C4_2 1_555 1_555
H6_2 C11_2 1_555 1_555
C12_2 C11_2 1_555 1_555
C15_2 C16_2 1_555 1_555
C16_2 H9_3 1_555 1_555
C17_3 C16_2 1_555 1_555
H10_3 C17_3 1_555 1_555
C18_2 C17_3 1_555 1_555
H11_2 C18_2 1_555 1_555
C19_2 C18_2 1_555 1_555
H12_2 C19_2 1_555 1_555
C20_2 C15_2 1_555 1_555
H13_2 C20_2 1_555 1_555
H18_4 C26_4 1_555 1_555
H19_3 C27_3 1_555 1_555
C28_3 C27_3 1_555 1_555
H20_3 C28_3 1_555 1_555
C29_3 C26_4 1_555 1_555
C30_4 H21_4 1_555 1_555
C31_3 H22_3 1_555 1_555
C32_4 C31_3 1_555 1_555
H23_4 C32_4 1_555 1_555
N1_2 C30_4 1_555 1_555
N2_4 C29_3 1_555 1_555
N5_2 C1_2 1_555 1_555
O3_2 C7_2 1_555 1_555
Zn3_2 N1_2 1_555 1_555
C5_2 C6_2 1_555 1_555
C12_2 N5_2 1_555 1_555
C15_2 N5_2 1_555 1_555
C19_2 C20_2 1_555 1_555
C28_3 C29_3 1_555 1_555
C30_4 N2_4 1_555 1_555
C31_3 N2_4 1_555 1_555
C32_4 N1_2 1_555 1_555
C8_3 C9_3 1_555 1_555
C21_3 H14_3 1_555 1_555
C22_3 C21_3 1_555 1_555
H15_3 C22_3 1_555 1_555
C23_3 H16_3 1_555 1_555
C24_3 C25_4 1_555 1_555
C25_4 H17_4 1_555 1_555
N3_3 C22_3 1_555 1_555
N4_3 C21_3 1_555 1_555
O1_3 C8_3 1_555 1_555
O2_3 C8_3 1_555 1_555
Zn3_2 N4_3 1_555 1_555
O5_2 Zn3_2 1_555 1_555
C23_3 N3_3 1_555 1_555
C23_3 N4_3 1_555 1_555
C24_3 N3_3 1_555 1_555
O2_3 Zn3_2 1_555 1_555
H7_3 C13_3 1_555 1_555
Zn3 O4_2 1_555 1_555
C13_3 C14_3 1_555 1_555
C1_3 C2_3 1_555 1_555
C2_3 H1_3 1_555 1_555
C3_3 C2_3 1_555 1_555
H2_3 C3_3 1_555 1_555
C4_3 C3_3 1_555 1_555
C5_3 C4_3 1_555 1_555
H3_4 C5_3 1_555 1_555
C6_3 C1_3 1_555 1_555
H4_4 C6_3 1_555 1_555
C7_3 C4_3 1_555 1_555
C8_4 C9_4 1_555 1_555
C9_4 C10_4 1_555 1_555
C10_4 H5_4 1_555 1_555
C11_3 C10_4 1_555 1_555
H6_3 C11_3 1_555 1_555
C12_3 C11_3 1_555 1_555
C13_4 C12_3 1_555 1_555
H7_4 C13_4 1_555 1_555
C14_4 C9_4 1_555 1_555
H8_4 C14_4 1_555 1_555
C15_3 C16_3 1_555 1_555
C16_3 H9_4 1_555 1_555
C17_4 C16_3 1_555 1_555
H10_4 C17_4 1_555 1_555
C18_3 C17_4 1_555 1_555
C19_3 C18_3 1_555 1_555
C20_3 C15_3 1_555 1_555
H13_3 C20_3 1_555 1_555
C21_4 H14_4 1_555 1_555
C22_4 C21_4 1_555 1_555
H15_4 C22_4 1_555 1_555
C23_4 H16_4 1_555 1_555
C27_4 C24_4 1_555 1_555
H19_4 C27_4 1_555 1_555
C28_4 C27_4 1_555 1_555
H20_4 C28_4 1_555 1_555
C31_4 H22_4 1_555 1_555
N3_4 C22_4 1_555 1_555
N4_4 C21_4 1_555 1_555
N5_3 C1_3 1_555 1_555
O1_4 C8_4 1_555 1_555
O2_4 C8_4 1_555 1_555
O3_3 C7_3 1_555 1_555
O5_2 C7_3 1_555 1_555
Zn3 N4_4 1_555 1_555
C5_3 C6_3 1_555 1_555
C12_3 N5_3 1_555 1_555
C13_4 C14_4 1_555 1_555
C15_3 N5_3 1_555 1_555
C19_3 C20_3 1_555 1_555
C23_4 N3_4 1_555 1_555
C23_4 N4_4 1_555 1_555
C24_4 N3_4 1_555 1_555
C28_4 C29_4 1_555 1_555
O2_4 Zn3 1_555 1_555
C1_4 C2_4 1_555 1_555
C2_4 H1_4 1_555 1_555
C3_4 C2_4 1_555 1_555
H2_4 C3_4 1_555 1_555
C4_4 C3_4 1_555 1_555
C5_4 C4_4 1_555 1_555
C6_4 C1_4 1_555 1_555
C7_4 C4_4 1_555 1_555
H6_4 C11_4 1_555 1_555
C12_4 C11_4 1_555 1_555
C15_4 C16_4 1_555 1_555
H11_3 C18_4 1_555 1_555
C19_4 C18_4 1_555 1_555
H12_3 C19_4 1_555 1_555
C20_4 C15_4 1_555 1_555
H13_4 C20_4 1_555 1_555
N5_4 C1_4 1_555 1_555
O3_4 C7_4 1_555 1_555
C5_4 C6_4 1_555 1_555
C12_4 N5_4 1_555 1_555
C15_4 N5_4 1_555 1_555
C19_4 C20_4 1_555 1_555
C1_5 C2_5 1_555 1_555
C2_5 H1_5 1_555 1_555
C3_5 C2_5 1_555 1_555
H2_5 C3_5 1_555 1_555
C4_5 C3_5 1_555 1_555
C5_5 C4_5 1_555 1_555
C6_5 C1_5 1_555 1_555
C7_5 C4_5 1_555 1_555
H6_5 C11_5 1_555 1_555
C12_5 C11_5 1_555 1_555
C15_5 C16_5 1_555 1_555
C16_5 H9_5 1_555 1_555
C17_5 C16_5 1_555 1_555
H10_5 C17_5 1_555 1_555
C18_5 C17_5 1_555 1_555
H11_5 C18_5 1_555 1_555
C19_5 C18_5 1_555 1_555
H12_5 C19_5 1_555 1_555
C20_5 C15_5 1_555 1_555
H13_5 C20_5 1_555 1_555
H18_5 C26_5 1_555 1_555
H19_5 C27_5 1_555 1_555
C28_5 C27_5 1_555 1_555
H20_5 C28_5 1_555 1_555
C29_5 C26_5 1_555 1_555
C30_5 H21_5 1_555 1_555
C31_5 H22_5 1_555 1_555
C32_5 C31_5 1_555 1_555
H23_6 C32_5 1_555 1_555
N1_3 C30_5 1_555 1_555
N2_5 C29_5 1_555 1_555
N5_5 C1_5 1_555 1_555
O3_5 C7_5 1_555 1_555
Zn3_4 N1_3 1_555 1_555
C5_5 C6_5 1_555 1_555
C12_5 N5_5 1_555 1_555
C15_5 N5_5 1_555 1_555
C19_5 C20_5 1_555 1_555
C28_5 C29_5 1_555 1_555
C30_5 N2_5 1_555 1_555
C31_5 N2_5 1_555 1_555
C32_5 N1_3 1_555 1_555
H7_5 C13_5 1_555 1_555
Zn3_3 O4_3 1_555 1_555
C13_5 C14_5 1_555 1_555
C8_5 C9_5 1_555 1_555
C21_5 H14_5 1_555 1_555
C22_5 C21_5 1_555 1_555
H15_5 C22_5 1_555 1_555
C23_5 H16_5 1_555 1_555
C24_5 C25_5 1_555 1_555
C25_5 H17_5 1_555 1_555
N3_5 C22_5 1_555 1_555
N4_5 C21_5 1_555 1_555
O1_5 C8_5 1_555 1_555
O2_5 C8_5 1_555 1_555
Zn3_4 N4_5 1_555 1_555
O5_3 Zn3_4 1_555 1_555
C23_5 N3_5 1_555 1_555
C23_5 N4_5 1_555 1_555
C24_5 N3_5 1_555 1_555
O2_5 Zn3_4 1_555 1_555
C1_6 C2_6 1_555 1_555
C2_6 H1_6 1_555 1_555
C3_6 C2_6 1_555 1_555
H2_6 C3_6 1_555 1_555
C4_6 C3_6 1_555 1_555
C5_6 C4_6 1_555 1_555
H3_6 C5_6 1_555 1_555
C6_6 C1_6 1_555 1_555
H4_6 C6_6 1_555 1_555
C7_6 C4_6 1_555 1_555
C8_6 C9_6 1_555 1_555
C9_6 C10_6 1_555 1_555
C10_6 H5_6 1_555 1_555
C11_6 C10_6 1_555 1_555
H6_6 C11_6 1_555 1_555
C12_6 C11_6 1_555 1_555
C13_6 C12_6 1_555 1_555
H7_6 C13_6 1_555 1_555
C14_6 C9_6 1_555 1_555
H8_6 C14_6 1_555 1_555
C15_6 C16_6 1_555 1_555
C16_6 H9_6 1_555 1_555
C17_6 C16_6 1_555 1_555
H10_6 C17_6 1_555 1_555
C18_6 C17_6 1_555 1_555
C19_6 C18_6 1_555 1_555
C20_6 C15_6 1_555 1_555
H13_6 C20_6 1_555 1_555
C21_6 H14_6 1_555 1_555
C22_6 C21_6 1_555 1_555
H15_6 C22_6 1_555 1_555
C23_6 H16_6 1_555 1_555
C27_6 C24_6 1_555 1_555
H19_6 C27_6 1_555 1_555
C28_6 C27_6 1_555 1_555
H20_6 C28_6 1_555 1_555
C31_6 H22_6 1_555 1_555
N3_6 C22_6 1_555 1_555
N4_6 C21_6 1_555 1_555
N5_6 C1_6 1_555 1_555
O1_6 C8_6 1_555 1_555
O2_6 C8_6 1_555 1_555
O3_6 C7_6 1_555 1_555
O5_3 C7_6 1_555 1_555
Zn3_3 N4_6 1_555 1_555
C5_6 C6_6 1_555 1_555
C12_6 N5_6 1_555 1_555
C13_6 C14_6 1_555 1_555
C15_6 N5_6 1_555 1_555
C19_6 C20_6 1_555 1_555
C23_6 N3_6 1_555 1_555
C23_6 N4_6 1_555 1_555
C24_6 N3_6 1_555 1_555
C28_6 C29_6 1_555 1_555
O2_6 Zn3_3 1_555 1_555
C25_6 H17_6 1_555 1_555
C26_6 C25_6 1_555 1_555
H18_6 C26_6 1_555 1_555
C30_6 H21_6 1_555 1_555
N1_4 C30_6 1_555 1_555
C30_6 N2_6 1_555 1_555
C32_6 N1_4 1_555 1_555
C8_7 C9_7 1_555 1_555
H10_7 C17_7 1_555 1_555
C21_7 H14_7 1_555 1_555
C22_7 C21_7 1_555 1_555
H15_7 C22_7 1_555 1_555
C23_7 H16_7 1_555 1_555
C27_7 C24_7 1_555 1_555
H19_7 C27_7 1_555 1_555
C28_7 C27_7 1_555 1_555
H20_7 C28_7 1_555 1_555
C31_7 H22_7 1_555 1_555
N3_7 C22_7 1_555 1_555
N4_7 C21_7 1_555 1_555
O1_7 C8_7 1_555 1_555
O2_7 C8_7 1_555 1_555
Zn1_2 N4_7 1_555 1_555
O5_4 Zn1_2 1_555 1_555
C23_7 N3_7 1_555 1_555
C23_7 N4_7 1_555 1_555
C24_7 N3_7 1_555 1_555
C28_7 C29_7 1_555 1_555
O2_7 Zn1_2 1_555 1_555
C1_7 C2_7 1_555 1_555
C2_7 H1_7 1_555 1_555
C3_7 C2_7 1_555 1_555
H2_7 C3_7 1_555 1_555
C4_7 C3_7 1_555 1_555
C5_7 C4_7 1_555 1_555
H3_7 C5_7 1_555 1_555
C6_7 C1_7 1_555 1_555
H4_7 C6_7 1_555 1_555
C7_7 C4_7 1_555 1_555
C11_7 C10_7 1_555 1_555
H6_7 C11_7 1_555 1_555
C12_7 C11_7 1_555 1_555
C13_7 C12_7 1_555 1_555
H7_7 C13_7 1_555 1_555
C15_7 C16_7 1_555 1_555
C19_7 C18_7 1_555 1_555
C20_7 C15_7 1_555 1_555
H13_7 C20_7 1_555 1_555
N5_7 C1_7 1_555 1_555
O3_7 C7_7 1_555 1_555
O4_4 C7_7 1_555 1_555
Zn2_2 O4_4 1_555 1_555
C5_7 C6_7 1_555 1_555
C12_7 N5_7 1_555 1_555
C13_7 C14_7 1_555 1_555
C15_7 N5_7 1_555 1_555
C19_7 C20_7 1_555 1_555
C8_8 C9_8 1_555 1_555
C9_8 C10_8 1_555 1_555
C10_8 H5_8 1_555 1_555
H7_8 C13_8 1_555 1_555
C14_8 C9_8 1_555 1_555
H8_8 C14_8 1_555 1_555
C21_8 H14_8 1_555 1_555
C22_8 C21_8 1_555 1_555
H15_8 C22_8 1_555 1_555
C23_8 H16_8 1_555 1_555
C24_8 C25_7 1_555 1_555
C25_7 H17_7 1_555 1_555
N3_8 C22_8 1_555 1_555
N4_8 C21_8 1_555 1_555
O1_8 C8_8 1_555 1_555
O2_8 C8_8 1_555 1_555
Zn2_2 N4_8 1_555 1_555
N6_3 Zn2_2 1_555 1_555
C13_8 C14_8 1_555 1_555
C23_8 N3_8 1_555 1_555
C23_8 N4_8 1_555 1_555
C24_8 N3_8 1_555 1_555
O2_8 Zn2_2 1_555 1_555
H10_8 C17_8 1_555 1_555
H18_7 C26_7 1_555 1_555
H19_8 C27_8 1_555 1_555
C28_8 C27_8 1_555 1_555
H20_8 C28_8 1_555 1_555
C29_8 C26_7 1_555 1_555
C30_7 H21_7 1_555 1_555
C31_8 H22_8 1_555 1_555
C32_7 C31_8 1_555 1_555
H23_7 C32_7 1_555 1_555
N6_3 C30_7 1_555 1_555
N2_7 C29_8 1_555 1_555
C28_8 C29_8 1_555 1_555
C30_7 N2_7 1_555 1_555
C31_8 N2_7 1_555 1_555
C32_7 N6_3 1_555 1_555
C25_8 H17_8 1_555 1_555
C26_8 C25_8 1_555 1_555
H18_8 C26_8 1_555 1_555
C30_8 H21_8 1_555 1_555
N6_4 C30_8 1_555 1_555
C30_8 N2_8 1_555 1_555
C32_8 N6_4 1_555 1_555
C1_8 C2_8 1_555 1_555
C2_8 H1_8 1_555 1_555
C3_8 C2_8 1_555 1_555
H2_8 C3_8 1_555 1_555
C4_8 C3_8 1_555 1_555
C5_8 C4_8 1_555 1_555
C6_8 C1_8 1_555 1_555
C7_8 C4_8 1_555 1_555
H6_8 C11_8 1_555 1_555
C12_8 C11_8 1_555 1_555
C15_8 C16_8 1_555 1_555
H11_7 C18_8 1_555 1_555
C19_8 C18_8 1_555 1_555
H12_7 C19_8 1_555 1_555
C20_8 C15_8 1_555 1_555
H13_8 C20_8 1_555 1_555
N5_8 C1_8 1_555 1_555
O3_8 C7_8 1_555 1_555
C5_8 C6_8 1_555 1_555
C12_8 N5_8 1_555 1_555
C15_8 N5_8 1_555 1_555
C19_8 C20_8 1_555 1_555

#END
