
###############################################################################
#
# This file contains modified crystal structure data generated from the
# MOF subset of the Cambridge Structural Database (CSD) v543 
# hosted by the Cambridge Crystallographic Data Centre (CCDC).
#
# This work is licensed under the Creative Commons
# Attribution-NonCommercial-ShareAlike 4.0 International License.
# To view a copy of this license, visit
# http://creativecommons.org/licenses/by-nc-sa/4.0/
# or send a letter to
# Creative Commons, PO Box 1866, Mountain View, CA 94042, USA.
#
# CIF created using the CSD Python API on 29 September 2022
# The structure has been converted into the P1 space group
# The structure has a 3D framework
# The original CSD entry VEGWOU is in the orthorhombic crystal system
# The framework has been calculated to contain at least 10.0% void space
# The void calculation uses a probe of radius 1.32A, grid spacing 0.4
#
###############################################################################

data_VEGWOU
_chemical_formula_moiety         '(C68 H54 N22 O22 Zn3)n'
_symmetry_cell_setting           triclinic
_symmetry_space_group_name_H-M   'P 1'
_symmetry_Int_Tables_number      1
_space_group_name_Hall           'P 1'
loop_
_symmetry_equiv_pos_site_id
_symmetry_equiv_pos_as_xyz
1 x,y,z
_cell_length_a                   9.1781(11)
_cell_length_b                   14.1634(16)
_cell_length_c                   14.0439(19)
_cell_angle_alpha                90
_cell_angle_beta                 90
_cell_angle_gamma                90
_cell_volume                     1825.61
loop_
_atom_site_label
_atom_site_type_symbol
_atom_site_fract_x
_atom_site_fract_y
_atom_site_fract_z
Zn1 Zn 0.16030(7) 0.2500 0.2500
O2 O 0.0419(3) 0.3321(2) 0.3339(2)
N1 N 0.2839(4) 0.3069(3) 0.1456(2)
N2 N 0.4355(4) 0.3875(3) 0.0553(2)
C6 C 0.2845(6) 0.2689(3) 0.0550(3)
H3 H 0.2278 0.2163 0.0352
C8 C 0.5386(5) 0.4593(3) 0.0239(3)
H6 H 0.5941 0.4830 0.0794
C9 C 0.3753(5) 0.3790(3) 0.1418(3)
H7 H 0.3956 0.4197 0.1939
O6 O 0.0419(3) 0.1679(2) 0.1661(2)
N5 N 0.2839(4) 0.1931(3) 0.3544(2)
C14 C 0.6229(6) 0.6827(3) 0.0011(3)
H10 H 0.6020 0.6945 0.0663
H11 H 0.3913 0.5692 0.0214
N2_2 N 0.4355(4) 0.1125(3) 0.4447(2)
C6_2 C 0.2845(6) 0.2311(3) 0.4450(3)
H3_2 H 0.2278 0.2837 0.4648
C7 C 0.3771(6) 0.1827(3) 0.5011(3)
H4 H 0.3980 0.1945 0.5663
C8_2 C 0.5386(5) 0.0407(3) 0.4761(3)
H5 H 0.6087 0.0692 0.5214
H6_2 H 0.5941 0.0170 0.4206
C9_2 C 0.3753(5) 0.1210(3) 0.3582(3)
H7_2 H 0.3956 0.0803 0.3061
C7_2 C 0.3771(6) 0.3173(3) 0.9989(3)
H4_2 H 0.3980 0.3055 0.9337
H5_2 H 0.6087 0.4308 0.9786
Zn3 Zn 0.83970(7) 0.7500 0.7500
N4 N 0.7161(4) 0.6931(3) 0.8544(2)
N6 N 0.5645(4) 0.6125(3) 0.9447(2)
C13 C 0.7155(6) 0.7311(3) 0.9450(3)
H9 H 0.7722 0.7837 0.9648
C15 C 0.4614(5) 0.5407(3) 0.9761(3)
H12 H 0.4059 0.5170 0.9206
C16 C 0.6247(5) 0.6210(3) 0.8582(3)
H13 H 0.6044 0.5803 0.8061
N4_2 N 0.7161(4) 0.8069(3) 0.6456(2)
N6_2 N 0.5645(4) 0.8875(3) 0.5553(2)
C13_2 C 0.7155(6) 0.7689(3) 0.5550(3)
H9_2 H 0.7722 0.7163 0.5352
C14_2 C 0.6229(6) 0.8173(3) 0.4989(3)
H10_2 H 0.6020 0.8055 0.4337
C15_2 C 0.4614(5) 0.9593(3) 0.5239(3)
H11_2 H 0.3913 0.9308 0.4786
H12_2 H 0.4059 0.9830 0.5794
C16_2 C 0.6247(5) 0.8790(3) 0.6418(3)
H13_2 H 0.6044 0.9197 0.6939
O2_2 O 0.9581(3) 0.6679(2) 0.6661(2)
O6_2 O 0.9581(3) 0.8321(2) 0.8339(2)
O1 O 0.9664(4) 0.3998(3) 0.2007(2)
O3 O 0.8389(3) 0.4498(3) 0.6371(2)
N3 N 0.7500 0.5000 0.5952(4)
C1 C 0.9612(5) 0.3896(3) 0.2876(3)
C2 C 0.8530(4) 0.4456(3) 0.3440(3)
C3 C 0.8525(5) 0.4450(3) 0.4437(3)
H1 H 0.9204 0.4079 0.4785
C4 C 0.7500 0.5000 0.4902(4)
C5 C 0.7500 0.5000 0.2967(4)
H2 H 0.7500 0.5000 0.2290
Zn2 Zn 0.33970(7) 0.7500 0.2500
O4 O 0.5336(4) 0.6002(3) 0.2007(2)
O5 O 0.4581(3) 0.6679(2) 0.3339(2)
O7 O 0.6611(3) 0.5502(3) 0.6371(2)
C10 C 0.5388(5) 0.6104(3) 0.2876(3)
C11 C 0.6470(4) 0.5544(3) 0.3440(3)
C12 C 0.6475(5) 0.5550(3) 0.4437(3)
H8 H 0.5796 0.5921 0.4785
N1_2 N 0.2161(4) 0.6931(3) 0.1456(2)
N2_3 N 0.0645(4) 0.6125(3) 0.0553(2)
C6_3 C 0.2155(6) 0.7311(3) 0.0550(3)
H3_3 H 0.2722 0.7837 0.0352
C9_3 C 0.1247(5) 0.6210(3) 0.1418(3)
H7_3 H 0.1044 0.5803 0.1939
O6_3 O 0.4581(3) 0.8321(2) 0.1661(2)
N5_2 N 0.2161(4) 0.8069(3) 0.3544(2)
H11_3 H 0.1087 0.4308 0.0214
C4_2 C 0.7500 1.0000 0.0098(4)
C5_2 C 0.7500 1.0000 0.2033(4)
H2_2 H 0.7500 1.0000 0.2710
O4_2 O 0.5336(4) 0.8998(3) 0.2993(2)
C10_2 C 0.5388(5) 0.8896(3) 0.2124(3)
C11_2 C 0.6470(4) 0.9456(3) 0.1560(3)
C12_2 C 0.6475(5) 0.9450(3) 0.0563(3)
H8_2 H 0.5796 0.9079 0.0215
N2_4 N 0.0645(4) 0.8875(3) 0.4447(2)
C6_4 C 0.2155(6) 0.7689(3) 0.4450(3)
H3_4 H 0.2722 0.7163 0.4648
C7_3 C 0.1229(6) 0.8173(3) 0.5011(3)
H4_3 H 0.1020 0.8055 0.5663
C9_4 C 0.1247(5) 0.8790(3) 0.3582(3)
H7_4 H 0.1044 0.9197 0.3061
C7_4 C 0.1229(6) 0.6827(3) 0.9989(3)
H4_4 H 0.1020 0.6945 0.9337
C15_3 C 0.0386(5) 0.4593(3) 0.9761(3)
H12_3 H 0.0941 0.4830 0.9206
C8_3 C 0.9614(5) 0.5407(3) 0.0239(3)
H6_3 H 0.9059 0.5170 0.0794
C14_3 C 0.8771(6) 0.3173(3) 0.0011(3)
H10_3 H 0.8980 0.3055 0.0663
H5_3 H 0.8913 0.5692 0.9786
Zn3_2 Zn 0.66030(7) 0.2500 0.7500
N4_3 N 0.7839(4) 0.3069(3) 0.8544(2)
N6_3 N 0.9355(4) 0.3875(3) 0.9447(2)
C13_3 C 0.7845(6) 0.2689(3) 0.9450(3)
H9_3 H 0.7278 0.2163 0.9648
C16_3 C 0.8753(5) 0.3790(3) 0.8582(3)
H13_3 H 0.8956 0.4197 0.8061
N4_4 N 0.7839(4) 0.1931(3) 0.6456(2)
N6_4 N 0.9355(4) 0.1125(3) 0.5553(2)
C13_4 C 0.7845(6) 0.2311(3) 0.5550(3)
H9_4 H 0.7278 0.2837 0.5352
C14_4 C 0.8771(6) 0.1827(3) 0.4989(3)
H10_4 H 0.8980 0.1945 0.4337
C16_4 C 0.8753(5) 0.1210(3) 0.6418(3)
H13_4 H 0.8956 0.0803 0.6939
O1_2 O 0.0336(4) 0.6002(3) 0.7993(2)
O3_2 O 0.1611(3) 0.5502(3) 0.3629(2)
N3_2 N 0.2500 0.5000 0.4048(4)
C1_2 C 0.0388(5) 0.6104(3) 0.7124(3)
C2_2 C 0.1470(4) 0.5544(3) 0.6560(3)
C3_2 C 0.1475(5) 0.5550(3) 0.5563(3)
H1_2 H 0.0796 0.5921 0.5215
C4_3 C 0.2500 0.5000 0.5098(4)
C5_3 C 0.2500 0.5000 0.7033(4)
H2_3 H 0.2500 0.5000 0.7710
O4_3 O 0.4664(4) 0.3998(3) 0.7993(2)
O5_2 O 0.5419(3) 0.3321(2) 0.6661(2)
O7_2 O 0.3389(3) 0.4498(3) 0.3629(2)
C10_3 C 0.4612(5) 0.3896(3) 0.7124(3)
C11_3 C 0.3530(4) 0.4456(3) 0.6560(3)
C12_3 C 0.3525(5) 0.4450(3) 0.5563(3)
H8_3 H 0.4204 0.4079 0.5215
O6_4 O 0.5419(3) 0.1679(2) 0.8339(2)
C4_4 C 0.2500 -0.0000 0.9902(4)
C5_4 C 0.2500 0.0000 0.7967(4)
H2_4 H 0.2500 0.0000 0.7290
O4_4 O 0.4664(4) 0.1002(3) 0.7007(2)
C10_4 C 0.4612(5) 0.1104(3) 0.7876(3)
C11_4 C 0.3530(4) 0.0544(3) 0.8440(3)
C12_4 C 0.3525(5) 0.0550(3) 0.9437(3)
H8_4 H 0.4204 0.0921 0.9785
O1_3 O 0.9664(4) 0.1002(3) 0.2993(2)
C1_3 C 0.9612(5) 0.1104(3) 0.2124(3)
C2_3 C 0.8530(4) 0.0544(3) 0.1560(3)
C3_3 C 0.8525(5) 0.0550(3) 0.0563(3)
H1_3 H 0.9204 0.0921 0.0215
C4_5 C 0.7500 0.0000 0.0098(4)
C5_5 C 0.7500 0.0000 0.2033(4)
H2_5 H 0.7500 0.0000 0.2710
C15_4 C 0.0386(5) 0.0407(3) 0.5239(3)
H11_4 H 0.1087 0.0692 0.4786
H12_4 H 0.0941 0.0170 0.5794
O3_3 O 0.8389(3) 0.0502(3) 0.8629(2)
N3_3 N 0.7500 -0.0000 0.9048(4)
N3_4 N 0.7500 1.0000 0.9048(4)
O7_3 O 0.6611(3) 0.9498(3) 0.8629(2)
C8_4 C 0.9614(5) 0.9593(3) 0.4761(3)
H5_4 H 0.8913 0.9308 0.5214
H6_4 H 0.9059 0.9830 0.4206
O1_4 O 0.0336(4) 0.8998(3) 0.7007(2)
C1_4 C 0.0388(5) 0.8896(3) 0.7876(3)
C2_4 C 0.1470(4) 0.9456(3) 0.8440(3)
C3_4 C 0.1475(5) 0.9450(3) 0.9437(3)
H1_4 H 0.0796 0.9079 0.9785
C4_6 C 0.2500 1.0000 0.9902(4)
C5_6 C 0.2500 1.0000 0.7967(4)
H2_6 H 0.2500 1.0000 0.7290
N3_5 N 0.2500 0.0000 0.0952(4)
O7_4 O 0.3389(3) 0.0502(3) 0.1371(2)
O3_4 O 0.1611(3) 0.9498(3) 0.1371(2)
N3_6 N 0.2500 1.0000 0.0952(4)
loop_
_geom_bond_atom_site_label_1
_geom_bond_atom_site_label_2
_geom_bond_site_symmetry_1
_geom_bond_site_symmetry_2
Zn1 O2 1_555 1_555
N1 Zn1 1_555 1_555
C6 N1 1_555 1_555
H3 C6 1_555 1_555
C8 N2 1_555 1_555
H6 C8 1_555 1_555
C9 N1 1_555 1_555
H7 C9 1_555 1_555
O6 Zn1 1_555 1_555
N5 Zn1 1_555 1_555
H10 C14 1_555 1_555
N2 C9 1_555 1_555
N2_2 C7 1_555 1_555
C6_2 N5 1_555 1_555
H3_2 C6_2 1_555 1_555
C7 C6_2 1_555 1_555
H4 C7 1_555 1_555
C8_2 N2_2 1_555 1_555
H5 C8_2 1_555 1_555
H6_2 C8_2 1_555 1_555
C9_2 N5 1_555 1_555
H7_2 C9_2 1_555 1_555
N2_2 C9_2 1_555 1_555
H4_2 C7_2 1_555 1_555
Zn3 N4 1_555 1_555
N4 C13 1_555 1_555
C13 H9 1_555 1_555
H12 C15 1_555 1_555
C16 N4 1_555 1_555
H13 C16 1_555 1_555
N6 C15 1_555 1_555
N6 C16 1_555 1_555
Zn3 N4_2 1_555 1_555
N4_2 C13_2 1_555 1_555
N6_2 C14_2 1_555 1_555
C13_2 H9_2 1_555 1_555
C14_2 C13_2 1_555 1_555
H10_2 C14_2 1_555 1_555
H11_2 C15_2 1_555 1_555
H12_2 C15_2 1_555 1_555
C16_2 N4_2 1_555 1_555
H13_2 C16_2 1_555 1_555
N6_2 C15_2 1_555 1_555
N6_2 C16_2 1_555 1_555
Zn3 O2_2 1_555 1_555
O6_2 Zn3 1_555 1_555
O1 C1 1_555 1_555
O3 N3 1_555 1_555
N3 C4 1_555 1_555
C1 C2 1_555 1_555
C2 C3 1_555 1_555
C3 H1 1_555 1_555
C4 C3 1_555 1_555
C5 C2 1_555 1_555
H2 C5 1_555 1_555
Zn2 O5 1_555 1_555
O4 C10 1_555 1_555
O5 C10 1_555 1_555
O7 N3 1_555 1_555
C10 C11 1_555 1_555
C11 C5 1_555 1_555
C12 C4 1_555 1_555
H8 C12 1_555 1_555
C11 C12 1_555 1_555
N1_2 Zn2 1_555 1_555
C6_3 N1_2 1_555 1_555
H3_3 C6_3 1_555 1_555
C9_3 N1_2 1_555 1_555
H7_3 C9_3 1_555 1_555
O6_3 Zn2 1_555 1_555
N5_2 Zn2 1_555 1_555
N2_3 C9_3 1_555 1_555
H2_2 C5_2 1_555 1_555
O4_2 C10_2 1_555 1_555
O6_3 C10_2 1_555 1_555
C10_2 C11_2 1_555 1_555
C11_2 C5_2 1_555 1_555
C12_2 C4_2 1_555 1_555
H8_2 C12_2 1_555 1_555
C11_2 C12_2 1_555 1_555
N2_4 C7_3 1_555 1_555
C6_4 N5_2 1_555 1_555
H3_4 C6_4 1_555 1_555
C7_3 C6_4 1_555 1_555
H4_3 C7_3 1_555 1_555
C9_4 N5_2 1_555 1_555
H7_4 C9_4 1_555 1_555
N2_4 C9_4 1_555 1_555
H4_4 C7_4 1_555 1_555
H12_3 C15_3 1_555 1_555
H6_3 C8_3 1_555 1_555
H10_3 C14_3 1_555 1_555
Zn3_2 N4_3 1_555 1_555
N4_3 C13_3 1_555 1_555
C13_3 H9_3 1_555 1_555
C16_3 N4_3 1_555 1_555
H13_3 C16_3 1_555 1_555
N6_3 C16_3 1_555 1_555
Zn3_2 N4_4 1_555 1_555
N4_4 C13_4 1_555 1_555
N6_4 C14_4 1_555 1_555
C13_4 H9_4 1_555 1_555
C14_4 C13_4 1_555 1_555
H10_4 C14_4 1_555 1_555
C16_4 N4_4 1_555 1_555
H13_4 C16_4 1_555 1_555
N6_4 C16_4 1_555 1_555
O1_2 C1_2 1_555 1_555
O3_2 N3_2 1_555 1_555
N3_2 C4_3 1_555 1_555
C1_2 C2_2 1_555 1_555
C2_2 C3_2 1_555 1_555
C3_2 H1_2 1_555 1_555
C4_3 C3_2 1_555 1_555
C5_3 C2_2 1_555 1_555
H2_3 C5_3 1_555 1_555
Zn3_2 O5_2 1_555 1_555
O4_3 C10_3 1_555 1_555
O5_2 C10_3 1_555 1_555
O7_2 N3_2 1_555 1_555
C10_3 C11_3 1_555 1_555
C11_3 C5_3 1_555 1_555
C12_3 C4_3 1_555 1_555
H8_3 C12_3 1_555 1_555
C11_3 C12_3 1_555 1_555
O6_4 Zn3_2 1_555 1_555
H2_4 C5_4 1_555 1_555
O4_4 C10_4 1_555 1_555
O6_4 C10_4 1_555 1_555
C10_4 C11_4 1_555 1_555
C11_4 C5_4 1_555 1_555
C12_4 C4_4 1_555 1_555
H8_4 C12_4 1_555 1_555
C11_4 C12_4 1_555 1_555
O1_3 C1_3 1_555 1_555
C1_3 C2_3 1_555 1_555
C2_3 C3_3 1_555 1_555
C3_3 H1_3 1_555 1_555
C4_5 C3_3 1_555 1_555
C5_5 C2_3 1_555 1_555
H2_5 C5_5 1_555 1_555
H11_4 C15_4 1_555 1_555
H12_4 C15_4 1_555 1_555
O3_3 N3_3 1_555 1_555
O7_3 N3_4 1_555 1_555
H5_4 C8_4 1_555 1_555
H6_4 C8_4 1_555 1_555
O1_4 C1_4 1_555 1_555
C1_4 C2_4 1_555 1_555
C2_4 C3_4 1_555 1_555
C3_4 H1_4 1_555 1_555
C4_6 C3_4 1_555 1_555
C5_6 C2_4 1_555 1_555
H2_6 C5_6 1_555 1_555
O7_4 N3_5 1_555 1_555
O3_4 N3_6 1_555 1_555

#END
