
###############################################################################
#
# This file contains modified crystal structure data generated from the
# MOF subset of the Cambridge Structural Database (CSD) v543 
# hosted by the Cambridge Crystallographic Data Centre (CCDC).
#
# This work is licensed under the Creative Commons
# Attribution-NonCommercial-ShareAlike 4.0 International License.
# To view a copy of this license, visit
# http://creativecommons.org/licenses/by-nc-sa/4.0/
# or send a letter to
# Creative Commons, PO Box 1866, Mountain View, CA 94042, USA.
#
# CIF created using the CSD Python API on 29 September 2022
# The structure has been converted into the P1 space group
# The structure has a 3D framework
# The original CSD entry VEGYUD is in the monoclinic crystal system
# The framework has been calculated to contain at least 10.0% void space
# The void calculation uses a probe of radius 1.32A, grid spacing 0.4
#
###############################################################################

data_VEGYUD
_chemical_formula_moiety         '(C224 H200 Cd8 N32 O52)n'
_symmetry_cell_setting           triclinic
_symmetry_space_group_name_H-M   'P 1'
_symmetry_Int_Tables_number      1
_space_group_name_Hall           'P 1'
loop_
_symmetry_equiv_pos_site_id
_symmetry_equiv_pos_as_xyz
1 x,y,z
_cell_length_a                   10.7477(2)
_cell_length_b                   36.4644(7)
_cell_length_c                   15.9903(3)
_cell_angle_alpha                90
_cell_angle_beta                 93.9960(10)
_cell_angle_gamma                90
_cell_volume                     6251.5
loop_
_atom_site_label
_atom_site_type_symbol
_atom_site_fract_x
_atom_site_fract_y
_atom_site_fract_z
H2 H 0.0289 0.7663 0.2641
N4 N 0.2034(4) 0.71996(13) 0.0309(3)
C12 C 0.0624(5) 0.73740(16) 0.1660(3)
C13 C 0.0188(6) 0.7131(2) 0.1044(4)
C14 C 0.0920(6) 0.7053(2) 0.0396(4)
C15 C 0.2469(6) 0.74241(18) 0.0918(4)
H21 H 0.3260 0.7524 0.0886
C16 C 0.1809(6) 0.75149(18) 0.1590(4)
H22 H 0.2157 0.7672 0.2001
O13 O 0.4639(5) 0.68253(16) 0.0066(3)
H5 H 0.5447 0.6878 0.0108
H6 H 0.4590 0.6581 0.0140
Cd6 Cd 0.61181(3) 0.976760(11) 0.07808(2)
N5 N 0.4880(4) 0.96439(13) 0.1855(3)
N6 N 0.3087(5) 0.92916(14) 0.3957(3)
H3 H 0.2628 0.9101 0.3861
O3 O 0.3755(4) 0.96858(14) 0.4992(3)
O7 O 0.6957(4) 0.91221(11) 0.1041(2)
O8 O 0.7914(4) 0.96098(11) 0.1618(3)
C17 C 0.5093(5) 0.98102(16) 0.2598(4)
C18 C 0.4551(6) 0.97152(16) 0.3326(4)
H24 H 0.4746 0.9840 0.3826
C19 C 0.3694(5) 0.94233(16) 0.3282(4)
C20 C 0.3443(5) 0.92564(17) 0.2506(4)
H25 H 0.2869 0.9066 0.2449
C21 C 0.4044(5) 0.93727(16) 0.1825(4)
H26 H 0.3858 0.9256 0.1314
C22 C 0.3126(6) 0.94281(19) 0.4764(4)
C23 C 0.2285(7) 0.9222(2) 0.5334(4)
H27 H 0.2723 0.9008 0.5564
H28 H 0.1545 0.9138 0.5007
C24 C 0.1907(6) 0.9463(2) 0.6040(4)
H29 H 0.1463 0.9315 0.6426
H30 H 0.2652 0.9557 0.6343
C25 C 0.1090(6) 0.9782(2) 0.5750(4)
H31 H 0.1513 0.9921 0.5337
H32 H 0.0322 0.9687 0.5477
C35 C 0.9582(6) 0.87731(17) 0.3299(4)
H39 H 0.9524 0.8744 0.3873
C36 C 0.8694(6) 0.89842(18) 0.2833(4)
H40 H 0.8056 0.9095 0.3105
C37 C 0.8742(5) 0.90314(16) 0.1995(4)
C38 C 0.7797(5) 0.92683(17) 0.1514(3)
C39 C 0.9737(5) 0.88724(16) 0.1575(3)
C40 C 0.9871(5) 0.89274(17) 0.0706(4)
H41 H 0.9282 0.9067 0.0395
H49 H 0.9854 0.6526 0.2583
H20 H 0.0614 0.6887 0.9991
Cd3 Cd 0.32105(4) 0.711883(11) 0.91714(2)
N1 N 0.4453(4) 0.69705(13) 0.8086(3)
N2 N 0.6761(4) 0.67375(15) 0.6150(3)
H1 H 0.6825 0.6510 0.6020
N3 N 0.9964(4) 0.74872(14) 0.2340(3)
O1 O 0.7485(4) 0.73026(14) 0.5876(3)
O2 O 0.8340(4) 0.70866(14) 0.2255(3)
O5 O 0.1396(4) 0.69643(11) 0.8332(2)
O6 O 0.2284(3) 0.64647(11) 0.8879(2)
O9 O 0.2764(4) 0.76874(11) 0.8529(3)
O10 O 0.4232(4) 0.76949(11) 0.9550(3)
O11 O 0.3578(4) 0.96645(12) 0.8655(3)
O12 O 0.4580(4) 0.95575(11) 0.9869(3)
C1 C 0.4857(6) 0.66324(17) 0.7945(4)
H7 H 0.4618 0.6444 0.8291
C2 C 0.5610(6) 0.65481(16) 0.7314(4)
H8 H 0.5868 0.6308 0.7238
C3 C 0.5986(5) 0.68239(17) 0.6789(3)
C4 C 0.5561(6) 0.71733(19) 0.6931(4)
H9 H 0.5786 0.7367 0.6595
C5 C 0.4800(6) 0.72323(19) 0.7573(5)
H10 H 0.4511 0.7469 0.7654
C6 C 0.7428(6) 0.6983(2) 0.5713(4)
C7 C 0.8089(8) 0.6805(2) 0.5007(5)
H11 H 0.7496 0.6657 0.4671
H12 H 0.8736 0.6643 0.5247
C8 C 0.8675(6) 0.7085(2) 0.4441(4)
H13 H 0.9179 0.7255 0.4788
H14 H 0.9223 0.6958 0.4081
C9 C 0.7723(6) 0.7299(2) 0.3904(4)
H15 H 0.7211 0.7441 0.4262
H16 H 0.7182 0.7130 0.3582
C10 C 0.8346(7) 0.7559(2) 0.3301(4)
H17 H 0.7742 0.7738 0.3081
H18 H 0.9021 0.7690 0.3605
C11 C 0.8858(6) 0.73488(19) 0.2577(4)
H19 H 0.9409 0.7022 0.1067
C33 C 0.1465(5) 0.66183(16) 0.8409(3)
C34 C 0.0533(5) 0.63904(15) 0.7914(3)
C41 C 0.0844(5) 0.62201(19) 0.5317(4)
H42 H 0.0926 0.6177 0.4751
C42 C 0.1718(6) 0.64366(19) 0.5780(4)
H43 H 0.2375 0.6540 0.5513
C43 C 0.1625(5) 0.64988(17) 0.6617(4)
H44 H 0.2218 0.6643 0.6913
C44 C 0.0630(5) 0.63451(15) 0.7036(3)
C45 C 0.3509(5) 0.78635(15) 0.9026(3)
C46 C 0.3539(5) 0.82715(15) 0.9015(3)
C47 C 0.4540(5) 0.84349(15) 0.9454(3)
H45 H 0.5151 0.8287 0.9720
C48 C 0.4663(5) 0.88148(16) 0.9510(4)
H46 H 0.5348 0.8916 0.9814
C49 C 0.3781(5) 0.90415(15) 0.9118(3)
C50 C 0.4002(5) 0.94513(15) 0.9231(4)
C51 C 0.2719(5) 0.88912(15) 0.8656(3)
C52 C 0.1744(5) 0.91111(17) 0.8285(4)
H47 H 0.1816 0.9365 0.8308
C53 C 0.0696(6) 0.89561(19) 0.7892(4)
H48 H 0.0066 0.9106 0.7653
C54 C 0.0570(6) 0.85766(19) 0.7848(4)
C55 C 0.1486(5) 0.83543(18) 0.8189(4)
H50 H 0.1393 0.8101 0.8145
C56 C 0.2590(5) 0.85016(15) 0.8614(3)
H4 H 0.9560 0.9848 0.2070
H23 H 0.4349 0.9995 0.7374
C26 C 0.9229(6) 0.9962(2) 0.3545(4)
H33 H 0.9512 0.9730 0.3783
H34 H 0.8482 0.9916 0.3184
N10 N 0.7369(4) 0.98434(13) 0.9678(3)
O4 O 0.8980(5) 0.96706(16) 0.6703(3)
C27 C 0.9767(6) 0.9882(2) 0.6977(4)
C28 C 0.8957(5) 0.99506(17) 0.8387(4)
C31 C 0.7246(6) 0.9655(2) 0.8964(4)
H37 H 0.6606 0.9483 0.8903
C32 C 0.8005(6) 0.9697(2) 0.8309(4)
H38 H 0.7876 0.9558 0.7824
Cd5 Cd 0.38819(3) 0.023240(11) 0.92192(2)
N5_2 N 0.5120(4) 0.03561(13) 0.8145(3)
N6_2 N 0.6913(5) 0.07084(14) 0.6043(3)
H3_2 H 0.7372 0.0899 0.6139
O3_2 O 0.6245(4) 0.03142(14) 0.5008(3)
O7_2 O 0.3043(4) 0.08779(11) 0.8959(2)
O8_2 O 0.2086(4) 0.03902(11) 0.8382(3)
C17_2 C 0.4907(5) 0.01898(16) 0.7402(4)
C18_2 C 0.5449(6) 0.02848(16) 0.6674(4)
H24_2 H 0.5254 0.0160 0.6174
C19_2 C 0.6306(5) 0.05767(16) 0.6718(4)
C20_2 C 0.6557(5) 0.07436(17) 0.7494(4)
H25_2 H 0.7131 0.0934 0.7551
C21_2 C 0.5956(5) 0.06273(16) 0.8175(4)
H26_2 H 0.6142 0.0744 0.8686
C22_2 C 0.6874(6) 0.05719(19) 0.5236(4)
C23_2 C 0.7715(7) 0.0778(2) 0.4666(4)
H27_2 H 0.7277 0.0992 0.4436
H28_2 H 0.8455 0.0862 0.4993
C24_2 C 0.8093(6) 0.0537(2) 0.3960(4)
H29_2 H 0.8537 0.0685 0.3574
H30_2 H 0.7348 0.0443 0.3657
C25_2 C 0.8910(6) 0.0218(2) 0.4250(4)
H31_2 H 0.8487 0.0079 0.4663
H32_2 H 0.9678 0.0313 0.4523
C35_2 C 0.0418(6) 0.12269(17) 0.6701(4)
H39_2 H 0.0476 0.1256 0.6127
C36_2 C 0.1306(6) 0.10158(18) 0.7167(4)
H40_2 H 0.1944 0.0905 0.6895
C37_2 C 0.1258(5) 0.09686(16) 0.8005(4)
C38_2 C 0.2203(5) 0.07317(17) 0.8486(3)
C39_2 C 0.0263(5) 0.11276(16) 0.8425(3)
C40_2 C 0.0129(5) 0.10726(17) 0.9294(4)
H41_2 H 0.0718 0.0933 0.9605
H49_2 H 0.0146 0.3474 0.7417
O13_2 O 0.5361(5) 0.31747(16) 0.9934(3)
H5_2 H 0.4553 0.3122 0.9892
H6_2 H 0.5410 0.3419 0.9860
N9 N 0.7966(4) 0.28004(13) 0.9691(3)
H2_2 H 0.9711 0.2337 0.7359
C12_2 C 0.9376(5) 0.26260(16) 0.8340(3)
C13_2 C 0.9812(6) 0.2869(2) 0.8956(4)
C14_2 C 0.9080(6) 0.2947(2) 0.9604(4)
C15_2 C 0.7531(6) 0.25759(18) 0.9082(4)
H21_2 H 0.6740 0.2476 0.9114
C16_2 C 0.8191(6) 0.24851(18) 0.8410(4)
H22_2 H 0.7843 0.2328 0.7999
H4_2 H 0.0440 0.4848 0.2930
C23_3 C 0.2285(7) 0.5778(2) 0.0334(4)
H27_3 H 0.2723 0.5992 0.0564
H28_3 H 0.1545 0.5862 0.0007
C24_3 C 0.1907(6) 0.5537(2) 0.1040(4)
H29_3 H 0.1463 0.5685 0.1426
H30_3 H 0.2652 0.5443 0.1343
C25_3 C 0.1090(6) 0.5218(2) 0.0750(4)
H31_3 H 0.1513 0.5079 0.0337
H32_3 H 0.0322 0.5313 0.0477
C26_2 C 0.0771(6) 0.4962(2) 0.1455(4)
H33_2 H 0.0488 0.4730 0.1217
H34_2 H 0.1518 0.4916 0.1816
Cd2 Cd 0.61181(3) 0.523240(11) 0.57808(2)
N5_3 N 0.4880(4) 0.53561(13) 0.6855(3)
N6_3 N 0.3087(5) 0.57084(14) 0.8957(3)
H3_3 H 0.2628 0.5899 0.8861
O3_3 O 0.3755(4) 0.53142(14) 0.9992(3)
O7_3 O 0.6957(4) 0.58779(11) 0.6041(2)
O8_3 O 0.7914(4) 0.53902(11) 0.6618(3)
C17_3 C 0.5093(5) 0.51898(16) 0.7598(4)
H23_2 H 0.5651 0.4995 0.7626
C18_3 C 0.4551(6) 0.52848(16) 0.8326(4)
H24_3 H 0.4746 0.5160 0.8826
C19_3 C 0.3694(5) 0.55767(16) 0.8282(4)
C20_3 C 0.3443(5) 0.57436(17) 0.7506(4)
H25_3 H 0.2869 0.5934 0.7449
C21_3 C 0.4044(5) 0.56273(16) 0.6825(4)
H26_3 H 0.3858 0.5744 0.6314
C22_3 C 0.3126(6) 0.55719(19) 0.9764(4)
C35_3 C 0.9582(6) 0.62269(17) 0.8299(4)
H39_3 H 0.9524 0.6256 0.8873
C36_3 C 0.8694(6) 0.60158(18) 0.7833(4)
H40_3 H 0.8056 0.5905 0.8105
C37_3 C 0.8742(5) 0.59686(16) 0.6995(4)
C38_3 C 0.7797(5) 0.57317(17) 0.6514(3)
C39_3 C 0.9737(5) 0.61276(16) 0.6575(3)
C40_3 C 0.9871(5) 0.60726(17) 0.5706(4)
H41_3 H 0.9282 0.5933 0.5395
H49_3 H 0.9854 0.8474 0.7583
N10_2 N 0.7369(4) 0.51566(13) 0.4678(3)
O14 O 0.6422(4) 0.46645(12) 0.6345(3)
O15 O 0.4580(4) 0.54425(11) 0.4869(3)
N7 N 0.9814(5) 0.49856(15) 0.2781(3)
O4_2 O 0.8980(5) 0.53294(16) 0.1703(3)
C27_2 C 0.9767(6) 0.5118(2) 0.1977(4)
C28_2 C 0.8957(5) 0.50494(17) 0.3387(4)
C29 C 0.9073(6) 0.48499(19) 0.4111(4)
H35 H 0.9697 0.4674 0.4186
C30 C 0.8268(6) 0.49094(19) 0.4728(4)
H36 H 0.8362 0.4766 0.5210
C31_2 C 0.7246(6) 0.5345(2) 0.3964(4)
H37_2 H 0.6606 0.5517 0.3903
C32_2 C 0.8005(6) 0.5303(2) 0.3309(4)
H38_2 H 0.7876 0.5442 0.2824
Cd1 Cd 0.67895(4) 0.211883(11) 0.58286(2)
N1_2 N 0.5547(4) 0.19705(13) 0.6914(3)
N2_2 N 0.3239(4) 0.17375(15) 0.8850(3)
H1_2 H 0.3175 0.1510 0.8980
O1_2 O 0.2515(4) 0.23026(14) 0.9124(3)
O5_2 O 0.8604(4) 0.19643(11) 0.6668(2)
O6_2 O 0.7716(3) 0.14647(11) 0.6121(2)
O9_2 O 0.7236(4) 0.26874(11) 0.6471(3)
O10_2 O 0.5768(4) 0.26949(11) 0.5450(3)
O12_2 O 0.5420(4) 0.45575(11) 0.5131(3)
O13_3 O 0.5361(5) 0.18253(16) 0.4934(3)
H5_3 H 0.4553 0.1878 0.4892
H6_3 H 0.5410 0.1581 0.4860
C1_2 C 0.5143(6) 0.16324(17) 0.7055(4)
H7_2 H 0.5382 0.1444 0.6709
C2_2 C 0.4390(6) 0.15481(16) 0.7686(4)
H8_2 H 0.4132 0.1308 0.7762
C3_2 C 0.4014(5) 0.18239(17) 0.8211(3)
C4_2 C 0.4439(6) 0.21733(19) 0.8069(4)
H9_2 H 0.4214 0.2367 0.8405
C5_2 C 0.5200(6) 0.22323(19) 0.7427(5)
H10_2 H 0.5489 0.2469 0.7346
C6_2 C 0.2572(6) 0.1983(2) 0.9287(4)
C7_2 C 0.1911(8) 0.1805(2) 0.9993(5)
H12_2 H 0.1264 0.1643 0.9753
C33_2 C 0.8535(5) 0.16183(16) 0.6591(3)
C34_2 C 0.9467(5) 0.13904(15) 0.7086(3)
C41_2 C 0.9156(5) 0.12201(19) 0.9683(4)
C42_2 C 0.8282(6) 0.14366(19) 0.9220(4)
H43_2 H 0.7625 0.1540 0.9487
C43_2 C 0.8375(5) 0.14988(17) 0.8383(4)
H44_2 H 0.7782 0.1643 0.8087
C44_2 C 0.9370(5) 0.13451(15) 0.7964(3)
C45_2 C 0.6491(5) 0.28635(15) 0.5974(3)
C46_2 C 0.6461(5) 0.32715(15) 0.5985(3)
C47_2 C 0.5460(5) 0.34349(15) 0.5546(3)
H45_2 H 0.4849 0.3287 0.5280
C48_2 C 0.5337(5) 0.38148(16) 0.5490(4)
H46_2 H 0.4652 0.3916 0.5186
C49_2 C 0.6219(5) 0.40415(15) 0.5882(3)
C50_2 C 0.5998(5) 0.44513(15) 0.5769(4)
C51_2 C 0.7281(5) 0.38912(15) 0.6344(3)
C52_2 C 0.8256(5) 0.41111(17) 0.6715(4)
H47_2 H 0.8184 0.4365 0.6692
C53_2 C 0.9304(6) 0.39561(19) 0.7108(4)
H48_2 H 0.9934 0.4106 0.7347
C54_2 C 0.9430(6) 0.35766(19) 0.7152(4)
C55_2 C 0.8514(5) 0.33543(18) 0.6811(4)
H50_2 H 0.8607 0.3101 0.6855
C56_2 C 0.7410(5) 0.35016(15) 0.6386(3)
Cd6_2 Cd 0.38819(3) 0.476760(11) 0.42192(2)
N9_2 N 0.7966(4) 0.21996(13) 0.4691(3)
H2_3 H 0.9711 0.2663 0.2359
C12_3 C 0.9376(5) 0.23740(16) 0.3340(3)
C13_3 C 0.9812(6) 0.2131(2) 0.3956(4)
C14_3 C 0.9080(6) 0.2053(2) 0.4604(4)
H20_2 H 0.9386 0.1887 0.5009
C15_3 C 0.7531(6) 0.24241(18) 0.4082(4)
H21_3 H 0.6740 0.2524 0.4114
C16_3 C 0.8191(6) 0.25149(18) 0.3410(4)
H22_3 H 0.7843 0.2672 0.2999
N7_2 N 0.0186(5) 0.50144(15) 0.7219(3)
N8 N 0.2631(4) 0.48434(13) 0.5322(3)
O4_3 O 0.1020(5) 0.46706(16) 0.8297(3)
C27_3 C 0.0233(6) 0.4882(2) 0.8023(4)
C28_3 C 0.1043(5) 0.49506(17) 0.6613(4)
C29_2 C 0.0927(6) 0.51501(19) 0.5889(4)
H35_2 H 0.0303 0.5326 0.5814
C30_2 C 0.1732(6) 0.50906(19) 0.5272(4)
H36_2 H 0.1638 0.5234 0.4790
C31_3 C 0.2754(6) 0.4655(2) 0.6036(4)
H37_3 H 0.3394 0.4483 0.6097
C32_3 C 0.1995(6) 0.4697(2) 0.6691(4)
H38_3 H 0.2124 0.4558 0.7176
N5_4 N 0.5120(4) 0.46439(13) 0.3145(3)
N6_4 N 0.6913(5) 0.42916(14) 0.1043(3)
H3_4 H 0.7372 0.4101 0.1139
O3_4 O 0.6245(4) 0.46858(14) 0.0008(3)
O7_4 O 0.3043(4) 0.41221(11) 0.3959(2)
O8_4 O 0.2086(4) 0.46098(11) 0.3382(3)
C17_4 C 0.4907(5) 0.48102(16) 0.2402(4)
H23_3 H 0.4349 0.5005 0.2374
C18_4 C 0.5449(6) 0.47152(16) 0.1674(4)
H24_4 H 0.5254 0.4840 0.1174
C19_4 C 0.6306(5) 0.44233(16) 0.1718(4)
C20_4 C 0.6557(5) 0.42564(17) 0.2494(4)
H25_4 H 0.7131 0.4066 0.2551
C21_4 C 0.5956(5) 0.43727(16) 0.3175(4)
H26_4 H 0.6142 0.4256 0.3686
C22_4 C 0.6874(6) 0.44281(19) 0.0236(4)
C35_4 C 0.0418(6) 0.37731(17) 0.1701(4)
H39_4 H 0.0476 0.3744 0.1127
C36_4 C 0.1306(6) 0.39842(18) 0.2167(4)
H40_4 H 0.1944 0.4095 0.1895
C37_4 C 0.1258(5) 0.40314(16) 0.3005(4)
C38_4 C 0.2203(5) 0.42683(17) 0.3486(3)
C39_4 C 0.0263(5) 0.38724(16) 0.3425(3)
C40_4 C 0.0129(5) 0.39274(17) 0.4294(4)
H41_4 H 0.0718 0.4067 0.4605
H49_4 H 0.0146 0.1526 0.2417
O14_2 O 0.3578(4) 0.53355(12) 0.3655(3)
H2_4 H 0.0289 0.7337 0.7641
N4_2 N 0.2034(4) 0.78004(13) 0.5309(3)
C12_4 C 0.0624(5) 0.76260(16) 0.6660(3)
C13_4 C 0.0188(6) 0.7869(2) 0.6044(4)
C14_4 C 0.0920(6) 0.7947(2) 0.5396(4)
H20_3 H 0.0614 0.8113 0.4991
C15_4 C 0.2469(6) 0.75759(18) 0.5918(4)
H21_4 H 0.3260 0.7476 0.5886
C16_4 C 0.1809(6) 0.74851(18) 0.6590(4)
H22_4 H 0.2157 0.7328 0.7001
Cd3_2 Cd 0.32105(4) 0.788117(11) 0.41714(2)
N1_3 N 0.4453(4) 0.80295(13) 0.3086(3)
N2_3 N 0.6761(4) 0.82625(15) 0.1150(3)
H1_3 H 0.6825 0.8490 0.1020
O1_3 O 0.7485(4) 0.76974(14) 0.0876(3)
O5_3 O 0.1396(4) 0.80357(11) 0.3332(2)
O6_3 O 0.2284(3) 0.85353(11) 0.3879(2)
O9_3 O 0.2764(4) 0.73126(11) 0.3529(3)
O10_3 O 0.4232(4) 0.73051(11) 0.4550(3)
O13_4 O 0.4639(5) 0.81747(16) 0.5066(3)
H5_4 H 0.5447 0.8122 0.5108
H6_4 H 0.4590 0.8419 0.5140
C1_3 C 0.4857(6) 0.83676(17) 0.2945(4)
H7_3 H 0.4618 0.8556 0.3291
C2_3 C 0.5610(6) 0.84519(16) 0.2314(4)
H8_3 H 0.5868 0.8692 0.2238
C3_3 C 0.5986(5) 0.81761(17) 0.1789(3)
C4_3 C 0.5561(6) 0.78267(19) 0.1931(4)
H9_3 H 0.5786 0.7633 0.1595
C5_3 C 0.4800(6) 0.77677(19) 0.2573(5)
H10_3 H 0.4511 0.7531 0.2654
C6_3 C 0.7428(6) 0.8017(2) 0.0713(4)
C7_3 C 0.8089(8) 0.8195(2) 0.0007(5)
H12_3 H 0.8736 0.8357 0.0247
C33_3 C 0.1465(5) 0.83817(16) 0.3409(3)
C34_3 C 0.0533(5) 0.86096(15) 0.2914(3)
C41_3 C 0.0844(5) 0.87799(19) 0.0317(4)
C42_3 C 0.1718(6) 0.85634(19) 0.0780(4)
H43_3 H 0.2375 0.8460 0.0513
C43_3 C 0.1625(5) 0.85012(17) 0.1617(4)
H44_3 H 0.2218 0.8357 0.1913
C44_3 C 0.0630(5) 0.86549(15) 0.2036(3)
C45_3 C 0.3509(5) 0.71365(15) 0.4026(3)
C46_3 C 0.3539(5) 0.67285(15) 0.4015(3)
C47_3 C 0.4540(5) 0.65651(15) 0.4454(3)
H45_3 H 0.5151 0.6713 0.4720
C48_3 C 0.4663(5) 0.61852(16) 0.4510(4)
H46_3 H 0.5348 0.6084 0.4814
C49_3 C 0.3781(5) 0.59585(15) 0.4118(3)
C50_3 C 0.4002(5) 0.55487(15) 0.4231(4)
C51_3 C 0.2719(5) 0.61088(15) 0.3656(3)
C52_3 C 0.1744(5) 0.58889(17) 0.3285(4)
H47_3 H 0.1816 0.5635 0.3308
C53_3 C 0.0696(6) 0.60439(19) 0.2892(4)
H48_3 H 0.0066 0.5894 0.2653
C54_3 C 0.0570(6) 0.64234(19) 0.2848(4)
C55_3 C 0.1486(5) 0.66457(18) 0.3189(4)
H50_3 H 0.1393 0.6899 0.3145
C56_3 C 0.2590(5) 0.64984(15) 0.3614(3)
N8_2 N 0.2631(4) 0.01566(13) 0.0322(3)
O4_4 O 0.1020(5) 0.03294(16) 0.3297(3)
C27_4 C 0.0233(6) 0.0118(2) 0.3023(4)
C28_4 C 0.1043(5) 0.00494(17) 0.1613(4)
C31_4 C 0.2754(6) 0.0345(2) 0.1036(4)
H37_4 H 0.3394 0.0517 0.1097
C32_4 C 0.1995(6) 0.0303(2) 0.1691(4)
H38_4 H 0.2124 0.0442 0.2176
O15_2 O 0.5420(4) 0.04425(11) 0.0131(3)
Cd1_2 Cd 0.67895(4) 0.288117(11) 0.08286(2)
N1_4 N 0.5547(4) 0.30295(13) 0.1914(3)
N2_4 N 0.3239(4) 0.32625(15) 0.3850(3)
H1_4 H 0.3175 0.3490 0.3980
N3_2 N 0.0036(4) 0.25128(14) 0.7660(3)
O1_4 O 0.2515(4) 0.26974(14) 0.4124(3)
O2_2 O 0.1660(4) 0.29134(14) 0.7745(3)
O5_4 O 0.8604(4) 0.30357(11) 0.1668(2)
O6_4 O 0.7716(3) 0.35353(11) 0.1121(2)
O9_4 O 0.7236(4) 0.23126(11) 0.1471(3)
O10_4 O 0.5768(4) 0.23051(11) 0.0450(3)
O11_2 O 0.6422(4) 0.03355(12) 0.1345(3)
C1_4 C 0.5143(6) 0.33676(17) 0.2055(4)
H7_4 H 0.5382 0.3556 0.1709
C2_4 C 0.4390(6) 0.34519(16) 0.2686(4)
H8_4 H 0.4132 0.3692 0.2762
C3_4 C 0.4014(5) 0.31761(17) 0.3211(3)
C4_4 C 0.4439(6) 0.28267(19) 0.3069(4)
H9_4 H 0.4214 0.2633 0.3405
C5_4 C 0.5200(6) 0.27677(19) 0.2427(5)
H10_4 H 0.5489 0.2531 0.2346
C6_4 C 0.2572(6) 0.3017(2) 0.4287(4)
C7_4 C 0.1911(8) 0.3195(2) 0.4993(5)
H11_2 H 0.2504 0.3343 0.5329
H12_4 H 0.1264 0.3357 0.4753
C8_2 C 0.1325(6) 0.2915(2) 0.5559(4)
H13_2 H 0.0821 0.2745 0.5212
H14_2 H 0.0777 0.3042 0.5919
C9_2 C 0.2277(6) 0.2701(2) 0.6096(4)
H15_2 H 0.2789 0.2559 0.5738
H16_2 H 0.2818 0.2870 0.6418
C10_2 C 0.1654(7) 0.2441(2) 0.6699(4)
H17_2 H 0.2258 0.2262 0.6919
H18_2 H 0.0979 0.2310 0.6395
C11_2 C 0.1142(6) 0.26512(19) 0.7423(4)
H19_2 H 0.0591 0.2978 0.8933
C33_4 C 0.8535(5) 0.33817(16) 0.1591(3)
C34_4 C 0.9467(5) 0.36096(15) 0.2086(3)
C41_4 C 0.9156(5) 0.37799(19) 0.4683(4)
H42_2 H 0.9074 0.3823 0.5249
C42_4 C 0.8282(6) 0.35634(19) 0.4220(4)
H43_4 H 0.7625 0.3460 0.4487
C43_4 C 0.8375(5) 0.35012(17) 0.3383(4)
H44_4 H 0.7782 0.3357 0.3087
C44_4 C 0.9370(5) 0.36549(15) 0.2964(3)
C45_4 C 0.6491(5) 0.21365(15) 0.0974(3)
C46_4 C 0.6461(5) 0.17285(15) 0.0985(3)
C47_4 C 0.5460(5) 0.15651(15) 0.0546(3)
H45_4 H 0.4849 0.1713 0.0280
C48_4 C 0.5337(5) 0.11852(16) 0.0490(4)
H46_4 H 0.4652 0.1084 0.0186
C49_4 C 0.6219(5) 0.09585(15) 0.0882(3)
C50_4 C 0.5998(5) 0.05487(15) 0.0769(4)
C51_4 C 0.7281(5) 0.11088(15) 0.1344(3)
C52_4 C 0.8256(5) 0.08889(17) 0.1715(4)
H47_4 H 0.8184 0.0635 0.1692
C53_4 C 0.9304(6) 0.10439(19) 0.2108(4)
H48_4 H 0.9934 0.0894 0.2347
C54_4 C 0.9430(6) 0.14234(19) 0.2152(4)
C55_4 C 0.8514(5) 0.16457(18) 0.1811(4)
H50_4 H 0.8607 0.1899 0.1855
C56_4 C 0.7410(5) 0.14984(15) 0.1386(3)
H20_4 H 0.9386 0.3113 0.0009
H4_3 H 0.0440 0.0152 0.7930
H23_4 H 0.5651 0.0005 0.2626
C26_3 C 0.0771(6) 0.0038(2) 0.6455(4)
H33_3 H 0.0488 0.0270 0.6217
H34_3 H 0.1518 0.0084 0.6816
N7_3 N 0.0186(5) 0.99856(15) 0.2219(3)
C29_3 C 0.0927(6) 0.98499(19) 0.0889(4)
H35_3 H 0.0303 0.9674 0.0814
C30_3 C 0.1732(6) 0.99094(19) 0.0272(4)
H36_3 H 0.1638 0.9766 0.9790
N3_3 N 0.0036(4) 0.24872(14) 0.2660(3)
O2_3 O 0.1660(4) 0.20866(14) 0.2745(3)
H11_3 H 0.2504 0.1657 0.0329
C8_3 C 0.1325(6) 0.2085(2) 0.0559(4)
H13_3 H 0.0821 0.2255 0.0212
H14_3 H 0.0777 0.1958 0.0919
C9_3 C 0.2277(6) 0.2299(2) 0.1096(4)
H15_3 H 0.2789 0.2441 0.0738
H16_3 H 0.2818 0.2130 0.1418
C10_3 C 0.1654(7) 0.2559(2) 0.1699(4)
H17_3 H 0.2258 0.2738 0.1919
H18_3 H 0.0979 0.2690 0.1395
C11_3 C 0.1142(6) 0.23488(19) 0.2423(4)
H19_3 H 0.0591 0.2022 0.3933
H42_3 H 0.9074 0.1177 0.0249
H4_4 H 0.9560 0.5152 0.7070
C23_4 C 0.7715(7) 0.4222(2) 0.9666(4)
H27_4 H 0.7277 0.4008 0.9436
H28_4 H 0.8455 0.4138 0.9993
C24_4 C 0.8093(6) 0.4463(2) 0.8960(4)
H29_4 H 0.8537 0.4315 0.8574
H30_4 H 0.7348 0.4557 0.8657
C25_4 C 0.8910(6) 0.4782(2) 0.9250(4)
H31_4 H 0.8487 0.4921 0.9663
H32_4 H 0.9678 0.4687 0.9523
C26_4 C 0.9229(6) 0.5038(2) 0.8545(4)
H33_4 H 0.9512 0.5270 0.8783
H34_4 H 0.8482 0.5084 0.8184
N3_4 N 0.9964(4) 0.75128(14) 0.7340(3)
O2_4 O 0.8340(4) 0.79134(14) 0.7255(3)
H11_4 H 0.7496 0.8343 0.9671
C8_4 C 0.8675(6) 0.7915(2) 0.9441(4)
H13_4 H 0.9179 0.7745 0.9788
H14_4 H 0.9223 0.8042 0.9081
C9_4 C 0.7723(6) 0.7701(2) 0.8904(4)
H15_4 H 0.7211 0.7559 0.9262
H16_4 H 0.7182 0.7870 0.8582
C10_4 C 0.8346(7) 0.7441(2) 0.8301(4)
H17_4 H 0.7742 0.7262 0.8081
H18_4 H 0.9021 0.7310 0.8605
C11_4 C 0.8858(6) 0.76512(19) 0.7577(4)
H19_4 H 0.9409 0.7978 0.6067
H42_4 H 0.0926 0.8823 0.9751
H36_4 H 0.8362 0.0234 0.0210
N7_4 N 0.9814(5) 0.00144(15) 0.7781(3)
C29_4 C 0.9073(6) 0.01501(19) 0.9111(4)
H35_4 H 0.9697 0.0326 0.9186
C30_4 C 0.8268(6) 0.00906(19) 0.9728(4)
loop_
_geom_bond_atom_site_label_1
_geom_bond_atom_site_label_2
_geom_bond_site_symmetry_1
_geom_bond_site_symmetry_2
N4 C14 1_555 1_555
C13 C12 1_555 1_555
C14 C13 1_555 1_555
C15 N4 1_555 1_555
H21 C15 1_555 1_555
C16 C12 1_555 1_555
H22 C16 1_555 1_555
C15 C16 1_555 1_555
H5 O13 1_555 1_555
H6 O13 1_555 1_555
Cd6 N5 1_555 1_555
N5 C17 1_555 1_555
N6 H3 1_555 1_555
O3 C22 1_555 1_555
O7 Cd6 1_555 1_555
O8 Cd6 1_555 1_555
C18 C17 1_555 1_555
H24 C18 1_555 1_555
C19 N6 1_555 1_555
C20 C19 1_555 1_555
H25 C20 1_555 1_555
C21 N5 1_555 1_555
H26 C21 1_555 1_555
C22 N6 1_555 1_555
C23 C22 1_555 1_555
H27 C23 1_555 1_555
H28 C23 1_555 1_555
C24 C23 1_555 1_555
H29 C24 1_555 1_555
H30 C24 1_555 1_555
C25 C24 1_555 1_555
H31 C25 1_555 1_555
H32 C25 1_555 1_555
H39 C35 1_555 1_555
C36 C35 1_555 1_555
H40 C36 1_555 1_555
C37 C36 1_555 1_555
C38 O7 1_555 1_555
C39 C37 1_555 1_555
C40 C39 1_555 1_555
H41 C40 1_555 1_555
O8 C38 1_555 1_555
C18 C19 1_555 1_555
C20 C21 1_555 1_555
C37 C38 1_555 1_555
Cd3 N1 1_555 1_555
N1 C1 1_555 1_555
N2 H1 1_555 1_555
O1 C6 1_555 1_555
O2 C11 1_555 1_555
O5 Cd3 1_555 1_555
O6 Cd3 1_555 1_555
O9 Cd3 1_555 1_555
O10 Cd3 1_555 1_555
O11 C50 1_555 1_555
O12 C50 1_555 1_555
C1 H7 1_555 1_555
C2 C1 1_555 1_555
H8 C2 1_555 1_555
C3 N2 1_555 1_555
C4 C3 1_555 1_555
H9 C4 1_555 1_555
C5 N1 1_555 1_555
H10 C5 1_555 1_555
C6 N2 1_555 1_555
C7 C6 1_555 1_555
H11 C7 1_555 1_555
H12 C7 1_555 1_555
C8 C7 1_555 1_555
H13 C8 1_555 1_555
H14 C8 1_555 1_555
C9 C8 1_555 1_555
H15 C9 1_555 1_555
H16 C9 1_555 1_555
C10 C9 1_555 1_555
H17 C10 1_555 1_555
H18 C10 1_555 1_555
C11 N3 1_555 1_555
C33 O5 1_555 1_555
C34 C33 1_555 1_555
H42 C41 1_555 1_555
C42 C41 1_555 1_555
H43 C42 1_555 1_555
C43 C42 1_555 1_555
H44 C43 1_555 1_555
C44 C34 1_555 1_555
C45 O9 1_555 1_555
C46 C45 1_555 1_555
C47 C46 1_555 1_555
H45 C47 1_555 1_555
C48 C47 1_555 1_555
H46 C48 1_555 1_555
C49 C48 1_555 1_555
C50 C49 1_555 1_555
C51 C49 1_555 1_555
C52 C51 1_555 1_555
H47 C52 1_555 1_555
C53 C52 1_555 1_555
H48 C53 1_555 1_555
C54 C53 1_555 1_555
C55 C54 1_555 1_555
H50 C55 1_555 1_555
C56 C46 1_555 1_555
O6 C33 1_555 1_555
O10 C45 1_555 1_555
C2 C3 1_555 1_555
C4 C5 1_555 1_555
C10 C11 1_555 1_555
C43 C44 1_555 1_555
C51 C56 1_555 1_555
C55 C56 1_555 1_555
H33 C26 1_555 1_555
H34 C26 1_555 1_555
O4 C27 1_555 1_555
C31 N10 1_555 1_555
H37 C31 1_555 1_555
C32 C28 1_555 1_555
H38 C32 1_555 1_555
C31 C32 1_555 1_555
Cd5 N5_2 1_555 1_555
N5_2 C17_2 1_555 1_555
N6_2 H3_2 1_555 1_555
O3_2 C22_2 1_555 1_555
O7_2 Cd5 1_555 1_555
O8_2 Cd5 1_555 1_555
C18_2 C17_2 1_555 1_555
H24_2 C18_2 1_555 1_555
C19_2 N6_2 1_555 1_555
C20_2 C19_2 1_555 1_555
H25_2 C20_2 1_555 1_555
C21_2 N5_2 1_555 1_555
H26_2 C21_2 1_555 1_555
C22_2 N6_2 1_555 1_555
C23_2 C22_2 1_555 1_555
H27_2 C23_2 1_555 1_555
H28_2 C23_2 1_555 1_555
C24_2 C23_2 1_555 1_555
H29_2 C24_2 1_555 1_555
H30_2 C24_2 1_555 1_555
C25_2 C24_2 1_555 1_555
H31_2 C25_2 1_555 1_555
H32_2 C25_2 1_555 1_555
H39_2 C35_2 1_555 1_555
C36_2 C35_2 1_555 1_555
H40_2 C36_2 1_555 1_555
C37_2 C36_2 1_555 1_555
C38_2 O7_2 1_555 1_555
C39_2 C37_2 1_555 1_555
C40_2 C39_2 1_555 1_555
H41_2 C40_2 1_555 1_555
O8_2 C38_2 1_555 1_555
C18_2 C19_2 1_555 1_555
C20_2 C21_2 1_555 1_555
C37_2 C38_2 1_555 1_555
H5_2 O13_2 1_555 1_555
H6_2 O13_2 1_555 1_555
N9 C14_2 1_555 1_555
C13_2 C12_2 1_555 1_555
C14_2 C13_2 1_555 1_555
C15_2 N9 1_555 1_555
H21_2 C15_2 1_555 1_555
C16_2 C12_2 1_555 1_555
H22_2 C16_2 1_555 1_555
C15_2 C16_2 1_555 1_555
H27_3 C23_3 1_555 1_555
H28_3 C23_3 1_555 1_555
C24_3 C23_3 1_555 1_555
H29_3 C24_3 1_555 1_555
H30_3 C24_3 1_555 1_555
C25_3 C24_3 1_555 1_555
H31_3 C25_3 1_555 1_555
H32_3 C25_3 1_555 1_555
C26_2 C25_3 1_555 1_555
H33_2 C26_2 1_555 1_555
H34_2 C26_2 1_555 1_555
Cd2 N5_3 1_555 1_555
N5_3 C17_3 1_555 1_555
N6_3 H3_3 1_555 1_555
O3_3 C22_3 1_555 1_555
O7_3 Cd2 1_555 1_555
O8_3 Cd2 1_555 1_555
C17_3 H23_2 1_555 1_555
C18_3 C17_3 1_555 1_555
H24_3 C18_3 1_555 1_555
C19_3 N6_3 1_555 1_555
C20_3 C19_3 1_555 1_555
H25_3 C20_3 1_555 1_555
C21_3 N5_3 1_555 1_555
H26_3 C21_3 1_555 1_555
C22_3 N6_3 1_555 1_555
H39_3 C35_3 1_555 1_555
C36_3 C35_3 1_555 1_555
H40_3 C36_3 1_555 1_555
C37_3 C36_3 1_555 1_555
C38_3 O7_3 1_555 1_555
C39_3 C37_3 1_555 1_555
C40_3 C39_3 1_555 1_555
H41_3 C40_3 1_555 1_555
N10_2 Cd2 1_555 1_555
O14 Cd2 1_555 1_555
O15 Cd2 1_555 1_555
O8_3 C38_3 1_555 1_555
C18_3 C19_3 1_555 1_555
C20_3 C21_3 1_555 1_555
C37_3 C38_3 1_555 1_555
N10_2 C30 1_555 1_555
O4_2 C27_2 1_555 1_555
C27_2 N7 1_555 1_555
C28_2 N7 1_555 1_555
C29 C28_2 1_555 1_555
H35 C29 1_555 1_555
C30 C29 1_555 1_555
H36 C30 1_555 1_555
C31_2 N10_2 1_555 1_555
H37_2 C31_2 1_555 1_555
C32_2 C28_2 1_555 1_555
H38_2 C32_2 1_555 1_555
C31_2 C32_2 1_555 1_555
Cd1 N1_2 1_555 1_555
N1_2 C1_2 1_555 1_555
N2_2 H1_2 1_555 1_555
O1_2 C6_2 1_555 1_555
O5_2 Cd1 1_555 1_555
O6_2 Cd1 1_555 1_555
O9_2 Cd1 1_555 1_555
O10_2 Cd1 1_555 1_555
O14 C50_2 1_555 1_555
O12_2 C50_2 1_555 1_555
O13_3 Cd1 1_555 1_555
H5_3 O13_3 1_555 1_555
H6_3 O13_3 1_555 1_555
C1_2 H7_2 1_555 1_555
C2_2 C1_2 1_555 1_555
H8_2 C2_2 1_555 1_555
C3_2 N2_2 1_555 1_555
C4_2 C3_2 1_555 1_555
H9_2 C4_2 1_555 1_555
C5_2 N1_2 1_555 1_555
H10_2 C5_2 1_555 1_555
C6_2 N2_2 1_555 1_555
C7_2 C6_2 1_555 1_555
H12_2 C7_2 1_555 1_555
C33_2 O5_2 1_555 1_555
C34_2 C33_2 1_555 1_555
C42_2 C41_2 1_555 1_555
H43_2 C42_2 1_555 1_555
C43_2 C42_2 1_555 1_555
H44_2 C43_2 1_555 1_555
C44_2 C34_2 1_555 1_555
C45_2 O9_2 1_555 1_555
C46_2 C45_2 1_555 1_555
C47_2 C46_2 1_555 1_555
H45_2 C47_2 1_555 1_555
C48_2 C47_2 1_555 1_555
H46_2 C48_2 1_555 1_555
C49_2 C48_2 1_555 1_555
C50_2 C49_2 1_555 1_555
C51_2 C49_2 1_555 1_555
C52_2 C51_2 1_555 1_555
H47_2 C52_2 1_555 1_555
C53_2 C52_2 1_555 1_555
H48_2 C53_2 1_555 1_555
C54_2 C53_2 1_555 1_555
C55_2 C54_2 1_555 1_555
H50_2 C55_2 1_555 1_555
C56_2 C46_2 1_555 1_555
Cd6_2 O12_2 1_555 1_555
N9_2 Cd1 1_555 1_555
O6_2 C33_2 1_555 1_555
O10_2 C45_2 1_555 1_555
C2_2 C3_2 1_555 1_555
C4_2 C5_2 1_555 1_555
C43_2 C44_2 1_555 1_555
C51_2 C56_2 1_555 1_555
C55_2 C56_2 1_555 1_555
N9_2 C14_3 1_555 1_555
C13_3 C12_3 1_555 1_555
C14_3 C13_3 1_555 1_555
H20_2 C14_3 1_555 1_555
C15_3 N9_2 1_555 1_555
H21_3 C15_3 1_555 1_555
C16_3 C12_3 1_555 1_555
H22_3 C16_3 1_555 1_555
C15_3 C16_3 1_555 1_555
N8 C30_2 1_555 1_555
O4_3 C27_3 1_555 1_555
C27_3 N7_2 1_555 1_555
C28_3 N7_2 1_555 1_555
C29_2 C28_3 1_555 1_555
H35_2 C29_2 1_555 1_555
C30_2 C29_2 1_555 1_555
H36_2 C30_2 1_555 1_555
C31_3 N8 1_555 1_555
H37_3 C31_3 1_555 1_555
C32_3 C28_3 1_555 1_555
H38_3 C32_3 1_555 1_555
Cd6_2 N8 1_555 1_555
C31_3 C32_3 1_555 1_555
Cd6_2 N5_4 1_555 1_555
N5_4 C17_4 1_555 1_555
N6_4 H3_4 1_555 1_555
O3_4 C22_4 1_555 1_555
O7_4 Cd6_2 1_555 1_555
O8_4 Cd6_2 1_555 1_555
C17_4 H23_3 1_555 1_555
C18_4 C17_4 1_555 1_555
H24_4 C18_4 1_555 1_555
C19_4 N6_4 1_555 1_555
C20_4 C19_4 1_555 1_555
H25_4 C20_4 1_555 1_555
C21_4 N5_4 1_555 1_555
H26_4 C21_4 1_555 1_555
C22_4 N6_4 1_555 1_555
H39_4 C35_4 1_555 1_555
C36_4 C35_4 1_555 1_555
H40_4 C36_4 1_555 1_555
C37_4 C36_4 1_555 1_555
C38_4 O7_4 1_555 1_555
C39_4 C37_4 1_555 1_555
C40_4 C39_4 1_555 1_555
H41_4 C40_4 1_555 1_555
O14_2 Cd6_2 1_555 1_555
O8_4 C38_4 1_555 1_555
C18_4 C19_4 1_555 1_555
C20_4 C21_4 1_555 1_555
C37_4 C38_4 1_555 1_555
N4_2 C14_4 1_555 1_555
C13_4 C12_4 1_555 1_555
C14_4 C13_4 1_555 1_555
H20_3 C14_4 1_555 1_555
C15_4 N4_2 1_555 1_555
H21_4 C15_4 1_555 1_555
C16_4 C12_4 1_555 1_555
H22_4 C16_4 1_555 1_555
Cd3_2 N4_2 1_555 1_555
C15_4 C16_4 1_555 1_555
Cd3_2 N1_3 1_555 1_555
N1_3 C1_3 1_555 1_555
N2_3 H1_3 1_555 1_555
O1_3 C6_3 1_555 1_555
O5_3 Cd3_2 1_555 1_555
O6_3 Cd3_2 1_555 1_555
O9_3 Cd3_2 1_555 1_555
O10_3 Cd3_2 1_555 1_555
O14_2 C50_3 1_555 1_555
O15 C50_3 1_555 1_555
O13_4 Cd3_2 1_555 1_555
H5_4 O13_4 1_555 1_555
H6_4 O13_4 1_555 1_555
C1_3 H7_3 1_555 1_555
C2_3 C1_3 1_555 1_555
H8_3 C2_3 1_555 1_555
C3_3 N2_3 1_555 1_555
C4_3 C3_3 1_555 1_555
H9_3 C4_3 1_555 1_555
C5_3 N1_3 1_555 1_555
H10_3 C5_3 1_555 1_555
C6_3 N2_3 1_555 1_555
C7_3 C6_3 1_555 1_555
H12_3 C7_3 1_555 1_555
C33_3 O5_3 1_555 1_555
C34_3 C33_3 1_555 1_555
C42_3 C41_3 1_555 1_555
H43_3 C42_3 1_555 1_555
C43_3 C42_3 1_555 1_555
H44_3 C43_3 1_555 1_555
C44_3 C34_3 1_555 1_555
C45_3 O9_3 1_555 1_555
C46_3 C45_3 1_555 1_555
C47_3 C46_3 1_555 1_555
H45_3 C47_3 1_555 1_555
C48_3 C47_3 1_555 1_555
H46_3 C48_3 1_555 1_555
C49_3 C48_3 1_555 1_555
C50_3 C49_3 1_555 1_555
C51_3 C49_3 1_555 1_555
C52_3 C51_3 1_555 1_555
H47_3 C52_3 1_555 1_555
C53_3 C52_3 1_555 1_555
H48_3 C53_3 1_555 1_555
C54_3 C53_3 1_555 1_555
C55_3 C54_3 1_555 1_555
H50_3 C55_3 1_555 1_555
C56_3 C46_3 1_555 1_555
O6_3 C33_3 1_555 1_555
O10_3 C45_3 1_555 1_555
C2_3 C3_3 1_555 1_555
C4_3 C5_3 1_555 1_555
C43_3 C44_3 1_555 1_555
C51_3 C56_3 1_555 1_555
C55_3 C56_3 1_555 1_555
O4_4 C27_4 1_555 1_555
C31_4 N8_2 1_555 1_555
H37_4 C31_4 1_555 1_555
C32_4 C28_4 1_555 1_555
H38_4 C32_4 1_555 1_555
C31_4 C32_4 1_555 1_555
Cd1_2 N1_4 1_555 1_555
N1_4 C1_4 1_555 1_555
N2_4 H1_4 1_555 1_555
O1_4 C6_4 1_555 1_555
O2_2 C11_2 1_555 1_555
O5_4 Cd1_2 1_555 1_555
O6_4 Cd1_2 1_555 1_555
O9_4 Cd1_2 1_555 1_555
O10_4 Cd1_2 1_555 1_555
O11_2 C50_4 1_555 1_555
O15_2 C50_4 1_555 1_555
C1_4 H7_4 1_555 1_555
C2_4 C1_4 1_555 1_555
H8_4 C2_4 1_555 1_555
C3_4 N2_4 1_555 1_555
C4_4 C3_4 1_555 1_555
H9_4 C4_4 1_555 1_555
C5_4 N1_4 1_555 1_555
H10_4 C5_4 1_555 1_555
C6_4 N2_4 1_555 1_555
C7_4 C6_4 1_555 1_555
H11_2 C7_4 1_555 1_555
H12_4 C7_4 1_555 1_555
C8_2 C7_4 1_555 1_555
H13_2 C8_2 1_555 1_555
H14_2 C8_2 1_555 1_555
C9_2 C8_2 1_555 1_555
H15_2 C9_2 1_555 1_555
H16_2 C9_2 1_555 1_555
C10_2 C9_2 1_555 1_555
H17_2 C10_2 1_555 1_555
H18_2 C10_2 1_555 1_555
C11_2 N3_2 1_555 1_555
C33_4 O5_4 1_555 1_555
C34_4 C33_4 1_555 1_555
H42_2 C41_4 1_555 1_555
C42_4 C41_4 1_555 1_555
H43_4 C42_4 1_555 1_555
C43_4 C42_4 1_555 1_555
H44_4 C43_4 1_555 1_555
C44_4 C34_4 1_555 1_555
C45_4 O9_4 1_555 1_555
C46_4 C45_4 1_555 1_555
C47_4 C46_4 1_555 1_555
H45_4 C47_4 1_555 1_555
C48_4 C47_4 1_555 1_555
H46_4 C48_4 1_555 1_555
C49_4 C48_4 1_555 1_555
C50_4 C49_4 1_555 1_555
C51_4 C49_4 1_555 1_555
C52_4 C51_4 1_555 1_555
H47_4 C52_4 1_555 1_555
C53_4 C52_4 1_555 1_555
H48_4 C53_4 1_555 1_555
C54_4 C53_4 1_555 1_555
C55_4 C54_4 1_555 1_555
H50_4 C55_4 1_555 1_555
C56_4 C46_4 1_555 1_555
O6_4 C33_4 1_555 1_555
O10_4 C45_4 1_555 1_555
C2_4 C3_4 1_555 1_555
C4_4 C5_4 1_555 1_555
C10_2 C11_2 1_555 1_555
C43_4 C44_4 1_555 1_555
C51_4 C56_4 1_555 1_555
C55_4 C56_4 1_555 1_555
H33_3 C26_3 1_555 1_555
H34_3 C26_3 1_555 1_555
H35_3 C29_3 1_555 1_555
C30_3 C29_3 1_555 1_555
O2_3 C11_3 1_555 1_555
H13_3 C8_3 1_555 1_555
H14_3 C8_3 1_555 1_555
C9_3 C8_3 1_555 1_555
H15_3 C9_3 1_555 1_555
H16_3 C9_3 1_555 1_555
C10_3 C9_3 1_555 1_555
H17_3 C10_3 1_555 1_555
H18_3 C10_3 1_555 1_555
C11_3 N3_3 1_555 1_555
C10_3 C11_3 1_555 1_555
H27_4 C23_4 1_555 1_555
H28_4 C23_4 1_555 1_555
C24_4 C23_4 1_555 1_555
H29_4 C24_4 1_555 1_555
H30_4 C24_4 1_555 1_555
C25_4 C24_4 1_555 1_555
H31_4 C25_4 1_555 1_555
H32_4 C25_4 1_555 1_555
C26_4 C25_4 1_555 1_555
H33_4 C26_4 1_555 1_555
H34_4 C26_4 1_555 1_555
O2_4 C11_4 1_555 1_555
H13_4 C8_4 1_555 1_555
H14_4 C8_4 1_555 1_555
C9_4 C8_4 1_555 1_555
H15_4 C9_4 1_555 1_555
H16_4 C9_4 1_555 1_555
C10_4 C9_4 1_555 1_555
H17_4 C10_4 1_555 1_555
H18_4 C10_4 1_555 1_555
C11_4 N3_4 1_555 1_555
C10_4 C11_4 1_555 1_555
H35_4 C29_4 1_555 1_555
C30_4 C29_4 1_555 1_555

#END
