
###############################################################################
#
# This file contains modified crystal structure data generated from the
# MOF subset of the Cambridge Structural Database (CSD) v543 
# hosted by the Cambridge Crystallographic Data Centre (CCDC).
#
# This work is licensed under the Creative Commons
# Attribution-NonCommercial-ShareAlike 4.0 International License.
# To view a copy of this license, visit
# http://creativecommons.org/licenses/by-nc-sa/4.0/
# or send a letter to
# Creative Commons, PO Box 1866, Mountain View, CA 94042, USA.
#
# CIF created using the CSD Python API on 29 September 2022
# The structure has been converted into the P1 space group
# The structure has a 3D framework
# The original CSD entry VEGYOY is in the monoclinic crystal system
# The original CSD entry VEGYOY is in a Sohncke space group
# The framework has been calculated to contain at least 10.0% void space
# The void calculation uses a probe of radius 1.32A, grid spacing 0.4
#
###############################################################################

data_VEGYOY
_chemical_formula_moiety         '(C232 H210 N34 O48 Zn8)n'
_symmetry_cell_setting           triclinic
_symmetry_space_group_name_H-M   'P 1'
_symmetry_Int_Tables_number      1
_space_group_name_Hall           'P 1'
loop_
_symmetry_equiv_pos_site_id
_symmetry_equiv_pos_as_xyz
1 x,y,z
_cell_length_a                   24.9012(17)
_cell_length_b                   9.6416(6)
_cell_length_c                   27.3223(18)
_cell_angle_alpha                90
_cell_angle_beta                 116.3790(10)
_cell_angle_gamma                90
_cell_volume                     5876.71
loop_
_atom_site_label
_atom_site_type_symbol
_atom_site_fract_x
_atom_site_fract_y
_atom_site_fract_z
C45 C 0.21161(15) 0.0161(4) 0.08248(15)
H28 H 0.2167 0.0959 0.0621
H29 H 0.2435 0.0206 0.1205
C46 C 0.14958(14) 0.0230(4) 0.08202(13)
H30 H 0.1179 0.0159 0.0434
C48 C 0.11587(19) 0.1308(5) 0.14409(17)
H33 H 0.0821 0.1948 0.1370
H34 H 0.1464 0.1427 0.1824
N5 N 0.14223(11) 0.1583(3) 0.10576(10)
H49 H 0.1789 0.2010 0.1240
H50 H 0.1175 0.2163 0.0782
Zn1 Zn 0.207679(13) 0.46702(3) 0.067935(12)
C1 C 0.17286(13) 0.5366(4) 0.14729(11)
C2 C 0.13337(13) 0.5388(4) 0.17528(11)
C3 C 0.07572(13) 0.4905(4) 0.15091(11)
H1 H 0.0599 0.4547 0.1148
C4 C 0.03983(12) 0.4930(4) 0.17810(11)
H2 H 0.0000 0.4586 0.1606
C5 C 0.06235(12) 0.5456(4) 0.23064(11)
C6 C 0.12084(13) 0.5947(4) 0.25543(11)
H3 H 0.1367 0.6299 0.2916
C7 C 0.15630(13) 0.5935(3) 0.22864(11)
H4 H 0.1960 0.6293 0.2459
C8 C 0.05054(12) 0.5043(3) 0.31368(12)
C9 C 0.09039(13) 0.3935(4) 0.32955(12)
H5 H 0.1006 0.3497 0.3037
C10 C 0.11526(13) 0.3468(4) 0.38301(12)
H6 H 0.1428 0.2717 0.3936
C11 C 0.10040(13) 0.4084(4) 0.42144(11)
C12 C 0.06095(13) 0.5202(4) 0.40508(12)
H7 H 0.0509 0.5646 0.4310
C13 C 0.03609(13) 0.5679(4) 0.35175(12)
H8 H 0.0091 0.6441 0.3413
C43 C 0.23180(14) 0.7660(4) 0.08308(13)
H26 H 0.2486 0.7560 0.1216
C44 C 0.19452(16) 0.8624(4) 0.00233(15)
C47 C 0.13837(14) 0.9115(4) 0.11618(14)
H31 H 0.1760 0.8867 0.1485
H32 H 0.1212 0.8268 0.0943
C56 C 0.09369(16) 0.9789(5) 0.13332(18)
H45 H 0.0953 0.9351 0.1667
H46 H 0.0522 0.9731 0.1038
C58 C 0.12737(15) 0.3608(4) 0.47967(13)
N1 N 0.02641(11) 0.5504(3) 0.25933(9)
N3 N 0.22082(11) 0.6611(3) 0.04861(10)
N4 N 0.21638(13) 0.8867(3) 0.05714(12)
O1 O 0.22307(9) 0.5916(3) 0.16809(8)
O2 O 0.15105(9) 0.4737(3) 0.10022(8)
O6 O 0.09140(18) 0.2828(5) 0.00336(15)
O11 O 0.16951(10) 0.2754(3) 0.49471(9)
O12 O 0.10680(12) 0.4119(3) 0.51041(9)
Zn4 Zn 0.209610(14) 0.19246(3) 0.568917(12)
O13 O 0.28260(9) 0.3676(3) 0.10951(8)
C21 C 0.05231(12) 0.1616(3) 0.81278(11)
C22 C 0.03819(14) 0.1001(4) 0.85187(11)
H13 H 0.0113 0.0238 0.8420
C23 C 0.06308(17) 0.1495(4) 0.90459(13)
H14 H 0.0529 0.1075 0.9308
C24 C 0.10291(15) 0.2602(4) 0.91986(13)
C25 C 0.11770(14) 0.3198(4) 0.88165(13)
H15 H 0.1453 0.3948 0.8920
C26 C 0.09312(13) 0.2723(4) 0.82871(12)
H16 H 0.1038 0.3146 0.8029
C27 C 0.1291(2) 0.3108(4) 0.97757(14)
C33 C 0.17283(13) 0.1170(4) 0.64494(12)
C34 C 0.13387(13) 0.1155(4) 0.67399(11)
C35 C 0.15591(14) 0.0635(4) 0.72647(12)
H21 H 0.1956 0.0278 0.7436
C36 C 0.12131(13) 0.0625(4) 0.75467(12)
H22 H 0.1370 0.0252 0.7905
C37 C 0.06382(13) 0.1162(3) 0.73017(11)
C38 C 0.04089(13) 0.1740(4) 0.67738(11)
H23 H 0.0017 0.2123 0.6608
C39 C 0.07574(13) 0.1746(4) 0.65016(12)
H24 H 0.0607 0.2151 0.6149
C42 C 0.19748(15) 0.7204(4) 0.99778(13)
H25 H 0.1852 0.6711 0.9644
H27 H 0.1804 0.9288 0.9736
H35 H 0.1799 0.0007 0.4609
N2 N 0.02702(11) 0.1128(3) 0.75800(10)
N6 N 0.22168(12) -0.0001(3) 0.54630(11)
O5 O 0.16888(11) 0.4004(4) 0.99220(10)
O7 O 0.15297(9) 0.1882(3) 0.60063(8)
O8 O 0.22017(9) 0.0514(3) 0.66399(9)
O14 O 0.28462(9) 0.2915(3) 0.61101(8)
H2_2 H 1.0000 0.4586 0.1606
C14 C 0.96835(13) 0.6132(4) 0.23286(11)
C15 C 0.92169(13) 0.5670(4) 0.24415(11)
H9 H 0.9288 0.4943 0.2698
C16 C 0.95706(13) 0.7150(3) 0.19425(12)
H10 H 0.9884 0.7461 0.1861
C17 C 0.90025(13) 0.7728(4) 0.16707(12)
H11 H 0.8930 0.8424 0.1402
C18 C 0.86542(13) 0.6260(4) 0.21839(12)
H12 H 0.8346 0.5964 0.2275
C19 C 0.85363(13) 0.7296(3) 0.17881(12)
C20 C 0.79224(13) 0.7903(3) 0.15051(12)
O3 O 0.78260(9) 0.8676(3) 0.10951(8)
O4 O 0.75431(9) 0.7596(3) 0.16687(9)
Zn3 Zn 0.707679(13) 0.96702(3) 0.067935(12)
C31 C 0.90251(13) 0.8884(4) 0.66747(11)
H19 H 0.8950 0.8190 0.6405
C32 C 0.95836(13) 0.9472(4) 0.69317(12)
H20 H 0.9893 0.9165 0.6845
C40 C 0.85663(12) 0.9289(4) 0.68026(11)
C41 C 0.79624(13) 0.8628(4) 0.65394(13)
O9 O 0.76145(10) 0.8795(3) 0.67527(9)
O10 O 0.78462(9) 0.7915(3) 0.61101(8)
Zn5 Zn 0.709610(14) 0.69246(3) 0.568917(12)
C1_2 C 0.67286(13) 0.0366(4) 0.14729(11)
C2_2 C 0.63337(13) 0.0388(4) 0.17528(11)
C5_2 C 0.56235(12) 0.0456(4) 0.23064(11)
C6_2 C 0.62084(13) 0.0947(4) 0.25543(11)
H3_2 H 0.6367 0.1299 0.2916
C7_2 C 0.65630(13) 0.0935(3) 0.22864(11)
H4_2 H 0.6960 0.1293 0.2459
C8_2 C 0.55054(12) 0.0043(3) 0.31368(12)
C12_2 C 0.56095(13) 0.0202(4) 0.40508(12)
H7_2 H 0.5509 0.0646 0.4310
C13_2 C 0.53609(13) 0.0679(4) 0.35175(12)
H8_2 H 0.5091 0.1441 0.3413
C14_2 C 0.46835(13) 0.1132(4) 0.23286(11)
C15_2 C 0.42169(13) 0.0670(4) 0.24415(11)
C16_2 C 0.45706(13) 0.2150(3) 0.19425(12)
H10_2 H 0.4884 0.2461 0.1861
C17_2 C 0.40025(13) 0.2728(4) 0.16707(12)
H11_2 H 0.3930 0.3424 0.1402
C18_2 C 0.36542(13) 0.1260(4) 0.21839(12)
H12_2 H 0.3346 0.0964 0.2275
C19_2 C 0.35363(13) 0.2296(3) 0.17881(12)
C20_2 C 0.29224(13) 0.2903(3) 0.15051(12)
C43_2 C 0.73180(14) 0.2660(4) 0.08308(13)
H26_2 H 0.7486 0.2560 0.1216
C44_2 C 0.69452(16) 0.3624(4) 0.00233(15)
C45_2 C 0.71161(15) 0.5161(4) 0.08248(15)
H28_2 H 0.7167 0.5959 0.0621
H29_2 H 0.7435 0.5206 0.1205
C46_2 C 0.64958(14) 0.5230(4) 0.08202(13)
H30_2 H 0.6179 0.5159 0.0434
C47_2 C 0.63837(14) 0.4115(4) 0.11618(14)
H31_2 H 0.6760 0.3867 0.1485
H32_2 H 0.6212 0.3268 0.0943
C48_2 C 0.61587(19) 0.6308(5) 0.14409(17)
H33_2 H 0.5821 0.6948 0.1370
H34_2 H 0.6464 0.6427 0.1824
C56_2 C 0.59369(16) 0.4789(5) 0.13332(18)
H45_2 H 0.5953 0.4351 0.1667
H46_2 H 0.5522 0.4731 0.1038
N1_2 N 0.52641(11) 0.0504(3) 0.25933(9)
N3_2 N 0.72082(11) 0.1611(3) 0.04861(10)
N4_2 N 0.71638(13) 0.3867(3) 0.05714(12)
N5_2 N 0.64223(11) 0.6583(3) 0.10576(10)
H49_2 H 0.6789 0.7010 0.1240
H50_2 H 0.6175 0.7163 0.0782
O1_2 O 0.72307(9) 0.0916(3) 0.16809(8)
O4_2 O 0.25431(9) 0.2596(3) 0.16687(9)
C3_2 C 0.57572(13) 0.9905(4) 0.15091(11)
H1_2 H 0.5599 0.9547 0.1148
C4_2 C 0.53983(12) 0.9930(4) 0.17810(11)
H2_3 H 0.5000 0.9586 0.1606
C9_2 C 0.59039(13) 0.8935(4) 0.32955(12)
H5_2 H 0.6006 0.8497 0.3037
C10_2 C 0.61526(13) 0.8468(4) 0.38301(12)
H6_2 H 0.6428 0.7717 0.3936
C11_2 C 0.60040(13) 0.9084(4) 0.42144(11)
H9_2 H 0.4288 0.9943 0.2698
C58_2 C 0.62737(15) 0.8608(4) 0.47967(13)
O2_2 O 0.65105(9) 0.9737(3) 0.10022(8)
O6_2 O 0.59140(18) 0.7828(5) 0.00336(15)
O11_2 O 0.66951(10) 0.7754(3) 0.49471(9)
O12_2 O 0.60680(12) 0.9119(3) 0.51041(9)
C21_2 C 0.55231(12) 0.6616(3) 0.81278(11)
C22_2 C 0.53819(14) 0.6001(4) 0.85187(11)
H13_2 H 0.5113 0.5238 0.8420
C23_2 C 0.56308(17) 0.6495(4) 0.90459(13)
H14_2 H 0.5529 0.6075 0.9308
C24_2 C 0.60291(15) 0.7602(4) 0.91986(13)
C25_2 C 0.61770(14) 0.8198(4) 0.88165(13)
H15_2 H 0.6453 0.8948 0.8920
C26_2 C 0.59312(13) 0.7723(4) 0.82871(12)
H16_2 H 0.6038 0.8146 0.8029
C27_2 C 0.6291(2) 0.8108(4) 0.97757(14)
C28 C 0.47031(13) 0.5530(4) 0.73256(12)
C29 C 0.42359(14) 0.5948(4) 0.74439(12)
H17 H 0.4303 0.6663 0.7704
C30 C 0.36817(14) 0.5336(4) 0.71888(12)
H18 H 0.3371 0.5631 0.7277
C31_2 C 0.40251(13) 0.3884(4) 0.66747(11)
H19_2 H 0.3950 0.3190 0.6405
C32_2 C 0.45836(13) 0.4472(4) 0.69317(12)
H20_2 H 0.4893 0.4165 0.6845
C33_2 C 0.67283(13) 0.6170(4) 0.64494(12)
C34_2 C 0.63387(13) 0.6155(4) 0.67399(11)
C35_2 C 0.65591(14) 0.5635(4) 0.72647(12)
H21_2 H 0.6956 0.5278 0.7436
C36_2 C 0.62131(13) 0.5625(4) 0.75467(12)
H22_2 H 0.6370 0.5252 0.7905
C37_2 C 0.56382(13) 0.6162(3) 0.73017(11)
C38_2 C 0.54089(13) 0.6740(4) 0.67738(11)
H23_2 H 0.5017 0.7123 0.6608
C39_2 C 0.57574(13) 0.6746(4) 0.65016(12)
H24_2 H 0.5607 0.7151 0.6149
C40_2 C 0.35663(12) 0.4289(4) 0.68026(11)
C41_2 C 0.29624(13) 0.3628(4) 0.65394(13)
C49 C 0.69358(15) 0.4470(4) 0.49339(13)
H35_2 H 0.6799 0.5007 0.4609
C50 C 0.68891(16) 0.3118(5) 0.49531(14)
H36 H 0.6708 0.2515 0.4648
C51 C 0.73415(14) 0.3933(4) 0.57874(13)
H37 H 0.7539 0.3984 0.6175
C52 C 0.68001(15) 0.1467(4) 0.60804(14)
H38 H 0.7085 0.1816 0.6450
C53 C 0.62368(16) 0.2333(4) 0.58661(16)
H39 H 0.5972 0.2126 0.5477
H40 H 0.6330 0.3337 0.5908
C54 C 0.59549(17) 0.1856(5) 0.62385(17)
H41 H 0.6120 0.2396 0.6583
H42 H 0.5514 0.1979 0.6053
C55 C 0.61147(16) 0.0340(5) 0.63530(14)
H44 H 0.6288 0.0148 0.6750
C57 C 0.71329(18) 0.1356(5) 0.57176(17)
H47 H 0.7546 0.1014 0.5938
H48 H 0.6922 0.0692 0.5416
N2_2 N 0.52702(11) 0.6128(3) 0.75800(10)
N6_2 N 0.72168(12) 0.4999(3) 0.54630(11)
N7 N 0.71491(13) 0.2726(4) 0.54955(12)
N8 N 0.65728(12) 0.0069(3) 0.61392(11)
O5_2 O 0.66888(11) 0.9004(4) 0.99220(10)
O7_2 O 0.65297(9) 0.6882(3) 0.60063(8)
O8_2 O 0.72017(9) 0.5514(3) 0.66399(9)
O9_2 O 0.26145(10) 0.3795(3) 0.67527(9)
C49_2 C 0.19358(15) 0.9470(4) 0.49339(13)
C50_2 C 0.18891(16) 0.8118(5) 0.49531(14)
H36_2 H 0.1708 0.7515 0.4648
C51_2 C 0.23415(14) 0.8933(4) 0.57874(13)
H37_2 H 0.2539 0.8984 0.6175
C52_2 C 0.18001(15) 0.6467(4) 0.60804(14)
H38_2 H 0.2085 0.6816 0.6450
C53_2 C 0.12368(16) 0.7333(4) 0.58661(16)
H39_2 H 0.0972 0.7126 0.5477
H40_2 H 0.1330 0.8337 0.5908
C54_2 C 0.09549(17) 0.6856(5) 0.62385(17)
H41_2 H 0.1120 0.7396 0.6583
H42_2 H 0.0514 0.6979 0.6053
C55_2 C 0.11147(16) 0.5340(5) 0.63530(14)
H43 H 0.0756 0.4750 0.6161
H44_2 H 0.1288 0.5148 0.6750
C57_2 C 0.21329(18) 0.6356(5) 0.57176(17)
H47_2 H 0.2546 0.6014 0.5938
H48_2 H 0.1922 0.5692 0.5416
N6_3 N 0.22168(12) 0.9999(3) 0.54630(11)
N7_2 N 0.21491(13) 0.7726(4) 0.54955(12)
N8_2 N 0.15728(12) 0.5069(3) 0.61392(11)
H51 H 0.1881 0.4529 0.6381
H52 H 0.1398 0.4623 0.5807
C28_2 C 0.97031(13) 0.0530(4) 0.73256(12)
C29_2 C 0.92359(14) 0.0948(4) 0.74439(12)
H17_2 H 0.9303 0.1663 0.7704
C30_2 C 0.86817(14) 0.0336(4) 0.71888(12)
H18_2 H 0.8371 0.0631 0.7277
C28_3 C 0.02969(13) 0.0530(4) 0.26744(12)
C29_3 C 0.07641(14) 0.0948(4) 0.25561(12)
H17_3 H 0.0697 0.1663 0.2296
C30_3 C 0.13183(14) 0.0336(4) 0.28112(12)
H18_3 H 0.1629 0.0631 0.2723
H2_4 H -0.0000 0.4586 0.8394
C14_3 C 0.03165(13) 0.6132(4) 0.76714(11)
C15_3 C 0.07831(13) 0.5670(4) 0.75585(11)
H9_3 H 0.0712 0.4943 0.7302
C16_3 C 0.04294(13) 0.7150(3) 0.80575(12)
H10_3 H 0.0116 0.7461 0.8139
C17_3 C 0.09975(13) 0.7728(4) 0.83293(12)
H11_3 H 0.1070 0.8424 0.8598
C18_3 C 0.13458(13) 0.6260(4) 0.78161(12)
H12_3 H 0.1654 0.5964 0.7725
C19_3 C 0.14637(13) 0.7296(3) 0.82119(12)
C20_3 C 0.20776(13) 0.7903(3) 0.84949(12)
O3_2 O 0.21740(9) 0.8676(3) 0.89049(8)
O4_3 O 0.24569(9) 0.7596(3) 0.83313(9)
Zn3_2 Zn 0.292321(13) 0.96702(3) 0.932065(12)
C31_3 C 0.09749(13) 0.8884(4) 0.33253(11)
H19_3 H 0.1050 0.8190 0.3595
C32_3 C 0.04164(13) 0.9472(4) 0.30683(12)
H20_3 H 0.0107 0.9165 0.3155
C40_3 C 0.14337(12) 0.9289(4) 0.31974(11)
C41_3 C 0.20376(13) 0.8628(4) 0.34606(13)
O9_3 O 0.23855(10) 0.8795(3) 0.32473(9)
O10_2 O 0.21538(9) 0.7915(3) 0.38899(8)
Zn5_2 Zn 0.290390(14) 0.69246(3) 0.431083(12)
Zn2 Zn 0.790390(14) 0.19246(3) 0.431083(12)
C21_3 C 0.94769(12) 0.1616(3) 0.18722(11)
C22_3 C 0.96181(14) 0.1001(4) 0.14813(11)
H13_3 H 0.9887 0.0238 0.1580
C23_3 C 0.93692(17) 0.1495(4) 0.09541(13)
H14_3 H 0.9471 0.1075 0.0692
C24_3 C 0.89709(15) 0.2602(4) 0.08014(13)
C25_3 C 0.88230(14) 0.3198(4) 0.11835(13)
H15_3 H 0.8547 0.3948 0.1080
C26_3 C 0.90688(13) 0.2723(4) 0.17129(12)
H16_3 H 0.8962 0.3146 0.1971
C27_3 C 0.8709(2) 0.3108(4) 0.02243(14)
C33_3 C 0.82717(13) 0.1170(4) 0.35506(12)
C34_3 C 0.86613(13) 0.1155(4) 0.32601(11)
C35_3 C 0.84409(14) 0.0635(4) 0.27353(12)
H21_3 H 0.8044 0.0278 0.2564
C36_3 C 0.87869(13) 0.0625(4) 0.24533(12)
H22_3 H 0.8630 0.0252 0.2095
C37_3 C 0.93618(13) 0.1162(3) 0.26983(11)
C38_3 C 0.95911(13) 0.1740(4) 0.32262(11)
H23_3 H 0.9983 0.2123 0.3392
C39_3 C 0.92426(13) 0.1746(4) 0.34984(12)
H24_3 H 0.9393 0.2151 0.3851
C42_2 C 0.80252(15) 0.7204(4) 0.00222(13)
H25_2 H 0.8148 0.6711 0.0356
H27_2 H 0.8196 0.9288 0.0264
H35_3 H 0.8201 0.0007 0.5391
N2_3 N 0.97298(11) 0.1128(3) 0.24200(10)
N6_4 N 0.77832(12) -0.0001(3) 0.45370(11)
O5_3 O 0.83112(11) 0.4004(4) 0.00780(10)
O7_3 O 0.84703(9) 0.1882(3) 0.39937(8)
O8_3 O 0.77983(9) 0.0514(3) 0.33601(9)
O14_2 O 0.71538(9) 0.2915(3) 0.38899(8)
O15 O 0.83049(10) 0.2754(3) 0.50529(9)
Zn1_2 Zn 0.792321(13) 0.46702(3) 0.932065(12)
C1_3 C 0.82714(13) 0.5366(4) 0.85271(11)
C2_3 C 0.86663(13) 0.5388(4) 0.82472(11)
C3_3 C 0.92428(13) 0.4905(4) 0.84909(11)
H1_3 H 0.9401 0.4547 0.8852
C4_3 C 0.96017(12) 0.4930(4) 0.82190(11)
H2_5 H 1.0000 0.4586 0.8394
C5_3 C 0.93765(12) 0.5456(4) 0.76936(11)
C6_3 C 0.87916(13) 0.5947(4) 0.74457(11)
H3_3 H 0.8633 0.6299 0.7084
C7_3 C 0.84370(13) 0.5935(3) 0.77136(11)
H4_3 H 0.8040 0.6293 0.7541
C8_3 C 0.94946(12) 0.5043(3) 0.68632(12)
C9_3 C 0.90961(13) 0.3935(4) 0.67045(12)
H5_3 H 0.8994 0.3497 0.6963
C10_3 C 0.88474(13) 0.3468(4) 0.61699(12)
H6_3 H 0.8572 0.2717 0.6064
C11_3 C 0.89960(13) 0.4084(4) 0.57856(11)
C12_3 C 0.93905(13) 0.5202(4) 0.59492(12)
H7_3 H 0.9491 0.5646 0.5690
C13_3 C 0.96391(13) 0.5679(4) 0.64825(12)
H8_3 H 0.9909 0.6441 0.6587
C43_3 C 0.76820(14) 0.7660(4) 0.91692(13)
H26_3 H 0.7514 0.7560 0.8784
C44_3 C 0.80548(16) 0.8624(4) 0.99767(15)
C47_3 C 0.86163(14) 0.9115(4) 0.88382(14)
H31_3 H 0.8240 0.8867 0.8515
H32_3 H 0.8788 0.8268 0.9057
C56_3 C 0.90631(16) 0.9789(5) 0.86668(18)
H45_3 H 0.9047 0.9351 0.8333
H46_3 H 0.9478 0.9731 0.8962
C58_3 C 0.87263(15) 0.3608(4) 0.52033(13)
N1_3 N 0.97359(11) 0.5504(3) 0.74067(9)
N3_3 N 0.77918(11) 0.6611(3) 0.95139(10)
N4_3 N 0.78362(13) 0.8867(3) 0.94286(12)
O1_3 O 0.77693(9) 0.5916(3) 0.83191(8)
O2_3 O 0.84895(9) 0.4737(3) 0.89978(8)
O6_3 O 0.90860(18) 0.2828(5) 0.99664(15)
O12_3 O 0.89320(12) 0.4119(3) 0.48959(9)
O13_2 O 0.71740(9) 0.3676(3) 0.89049(8)
C1_4 C 0.32714(13) 0.0366(4) 0.85271(11)
C2_4 C 0.36663(13) 0.0388(4) 0.82472(11)
C5_4 C 0.43765(12) 0.0456(4) 0.76936(11)
C6_4 C 0.37916(13) 0.0947(4) 0.74457(11)
H3_4 H 0.3633 0.1299 0.7084
C7_4 C 0.34370(13) 0.0935(3) 0.77136(11)
H4_4 H 0.3040 0.1293 0.7541
C8_4 C 0.44946(12) 0.0043(3) 0.68632(12)
C12_4 C 0.43905(13) 0.0202(4) 0.59492(12)
H7_4 H 0.4491 0.0646 0.5690
C13_4 C 0.46391(13) 0.0679(4) 0.64825(12)
H8_4 H 0.4909 0.1441 0.6587
C14_4 C 0.53165(13) 0.1132(4) 0.76714(11)
C15_4 C 0.57831(13) 0.0670(4) 0.75585(11)
C16_4 C 0.54294(13) 0.2150(3) 0.80575(12)
H10_4 H 0.5116 0.2461 0.8139
C17_4 C 0.59975(13) 0.2728(4) 0.83293(12)
H11_4 H 0.6070 0.3424 0.8598
C18_4 C 0.63458(13) 0.1260(4) 0.78161(12)
H12_4 H 0.6654 0.0964 0.7725
C19_4 C 0.64637(13) 0.2296(3) 0.82119(12)
C20_4 C 0.70776(13) 0.2903(3) 0.84949(12)
C43_4 C 0.26820(14) 0.2660(4) 0.91692(13)
H26_4 H 0.2514 0.2560 0.8784
C44_4 C 0.30548(16) 0.3624(4) 0.99767(15)
C45_3 C 0.28839(15) 0.5161(4) 0.91752(15)
H28_3 H 0.2833 0.5959 0.9379
H29_3 H 0.2565 0.5206 0.8795
C46_3 C 0.35042(14) 0.5230(4) 0.91798(13)
H30_3 H 0.3821 0.5159 0.9566
C47_4 C 0.36163(14) 0.4115(4) 0.88382(14)
H31_4 H 0.3240 0.3867 0.8515
H32_4 H 0.3788 0.3268 0.9057
C48_3 C 0.38413(19) 0.6308(5) 0.85591(17)
H33_3 H 0.4179 0.6948 0.8630
H34_3 H 0.3536 0.6427 0.8176
C56_4 C 0.40631(16) 0.4789(5) 0.86668(18)
H45_4 H 0.4047 0.4351 0.8333
H46_4 H 0.4478 0.4731 0.8962
N1_4 N 0.47359(11) 0.0504(3) 0.74067(9)
N3_4 N 0.27918(11) 0.1611(3) 0.95139(10)
N4_4 N 0.28362(13) 0.3867(3) 0.94286(12)
N5_3 N 0.35777(11) 0.6583(3) 0.89424(10)
H49_3 H 0.3211 0.7010 0.8760
H50_3 H 0.3825 0.7163 0.9218
O1_4 O 0.27693(9) 0.0916(3) 0.83191(8)
O4_4 O 0.74569(9) 0.2596(3) 0.83313(9)
C21_4 C 0.44769(12) 0.6616(3) 0.18722(11)
C22_4 C 0.46181(14) 0.6001(4) 0.14813(11)
H13_4 H 0.4887 0.5238 0.1580
C23_4 C 0.43692(17) 0.6495(4) 0.09541(13)
H14_4 H 0.4471 0.6075 0.0692
C24_4 C 0.39709(15) 0.7602(4) 0.08014(13)
C25_4 C 0.38230(14) 0.8198(4) 0.11835(13)
H15_4 H 0.3547 0.8948 0.1080
C26_4 C 0.40688(13) 0.7723(4) 0.17129(12)
H16_4 H 0.3962 0.8146 0.1971
C27_4 C 0.3709(2) 0.8108(4) 0.02243(14)
C28_4 C 0.52969(13) 0.5530(4) 0.26744(12)
C29_4 C 0.57641(14) 0.5948(4) 0.25561(12)
H17_4 H 0.5697 0.6663 0.2296
C30_4 C 0.63183(14) 0.5336(4) 0.28112(12)
H18_4 H 0.6629 0.5631 0.2723
C31_4 C 0.59749(13) 0.3884(4) 0.33253(11)
H19_4 H 0.6050 0.3190 0.3595
C32_4 C 0.54164(13) 0.4472(4) 0.30683(12)
H20_4 H 0.5107 0.4165 0.3155
C33_4 C 0.32717(13) 0.6170(4) 0.35506(12)
C34_4 C 0.36613(13) 0.6155(4) 0.32601(11)
C35_4 C 0.34409(14) 0.5635(4) 0.27353(12)
H21_4 H 0.3044 0.5278 0.2564
C36_4 C 0.37869(13) 0.5625(4) 0.24533(12)
H22_4 H 0.3630 0.5252 0.2095
C37_4 C 0.43618(13) 0.6162(3) 0.26983(11)
C38_4 C 0.45911(13) 0.6740(4) 0.32262(11)
H23_4 H 0.4983 0.7123 0.3392
C39_4 C 0.42426(13) 0.6746(4) 0.34984(12)
H24_4 H 0.4393 0.7151 0.3851
C40_4 C 0.64337(12) 0.4289(4) 0.31974(11)
C41_4 C 0.70376(13) 0.3628(4) 0.34606(13)
C49_3 C 0.30642(15) 0.4470(4) 0.50661(13)
H35_4 H 0.3201 0.5007 0.5391
C50_3 C 0.31109(16) 0.3118(5) 0.50469(14)
H36_3 H 0.3292 0.2515 0.5352
C51_3 C 0.26585(14) 0.3933(4) 0.42126(13)
H37_3 H 0.2461 0.3984 0.3825
C52_3 C 0.31999(15) 0.1467(4) 0.39196(14)
H38_3 H 0.2915 0.1816 0.3550
C53_3 C 0.37632(16) 0.2333(4) 0.41339(16)
H39_3 H 0.4028 0.2126 0.4523
H40_3 H 0.3670 0.3337 0.4092
C54_3 C 0.40451(17) 0.1856(5) 0.37615(17)
H41_3 H 0.3880 0.2396 0.3417
H42_3 H 0.4486 0.1979 0.3947
C55_3 C 0.38853(16) 0.0340(5) 0.36470(14)
H44_3 H 0.3712 0.0148 0.3250
C57_3 C 0.28671(18) 0.1356(5) 0.42824(17)
H47_3 H 0.2454 0.1014 0.4062
H48_3 H 0.3078 0.0692 0.4584
N2_4 N 0.47298(11) 0.6128(3) 0.24200(10)
N6_5 N 0.27832(12) 0.4999(3) 0.45370(11)
N7_3 N 0.28509(13) 0.2726(4) 0.45045(12)
N8_3 N 0.34272(12) 0.0069(3) 0.38608(11)
O5_4 O 0.33112(11) 0.9004(4) 0.00780(10)
O7_4 O 0.34703(9) 0.6882(3) 0.39937(8)
O8_4 O 0.27983(9) 0.5514(3) 0.33601(9)
O9_4 O 0.73855(10) 0.3795(3) 0.32473(9)
O15_2 O 0.33049(10) 0.7754(3) 0.50529(9)
C3_4 C 0.42428(13) 0.9905(4) 0.84909(11)
H1_4 H 0.4401 0.9547 0.8852
C4_4 C 0.46017(12) 0.9930(4) 0.82190(11)
H2_6 H 0.5000 0.9586 0.8394
C9_4 C 0.40961(13) 0.8935(4) 0.67045(12)
H5_4 H 0.3994 0.8497 0.6963
C10_4 C 0.38474(13) 0.8468(4) 0.61699(12)
H6_4 H 0.3572 0.7717 0.6064
C11_4 C 0.39960(13) 0.9084(4) 0.57856(11)
H9_4 H 0.5712 0.9943 0.7302
C58_4 C 0.37263(15) 0.8608(4) 0.52033(13)
O2_4 O 0.34895(9) 0.9737(3) 0.89978(8)
O6_4 O 0.40860(18) 0.7828(5) 0.99664(15)
O12_4 O 0.39320(12) 0.9119(3) 0.48959(9)
C45_4 C 0.78839(15) 0.0161(4) 0.91752(15)
H28_4 H 0.7833 0.0959 0.9379
H29_4 H 0.7565 0.0206 0.8795
C46_4 C 0.85042(14) 0.0230(4) 0.91798(13)
H30_4 H 0.8821 0.0159 0.9566
C48_4 C 0.88413(19) 0.1308(5) 0.85591(17)
H33_4 H 0.9179 0.1948 0.8630
H34_4 H 0.8536 0.1427 0.8176
N5_4 N 0.85777(11) 0.1583(3) 0.89424(10)
H49_4 H 0.8211 0.2010 0.8760
H50_4 H 0.8825 0.2163 0.9218
C49_4 C 0.80642(15) 0.9470(4) 0.50661(13)
C50_4 C 0.81109(16) 0.8118(5) 0.50469(14)
H36_4 H 0.8292 0.7515 0.5352
C51_4 C 0.76585(14) 0.8933(4) 0.42126(13)
H37_4 H 0.7461 0.8984 0.3825
C52_4 C 0.81999(15) 0.6467(4) 0.39196(14)
H38_4 H 0.7915 0.6816 0.3550
C53_4 C 0.87632(16) 0.7333(4) 0.41339(16)
H39_4 H 0.9028 0.7126 0.4523
H40_4 H 0.8670 0.8337 0.4092
C54_4 C 0.90451(17) 0.6856(5) 0.37615(17)
H41_4 H 0.8880 0.7396 0.3417
H42_4 H 0.9486 0.6979 0.3947
C55_4 C 0.88853(16) 0.5340(5) 0.36470(14)
H43_2 H 0.9244 0.4750 0.3839
H44_4 H 0.8712 0.5148 0.3250
C57_4 C 0.78671(18) 0.6356(5) 0.42824(17)
H47_4 H 0.7454 0.6014 0.4062
H48_4 H 0.8078 0.5692 0.4584
N6_6 N 0.77832(12) 0.9999(3) 0.45370(11)
N7_4 N 0.78509(13) 0.7726(4) 0.45045(12)
N8_4 N 0.84272(12) 0.5069(3) 0.38608(11)
H51_2 H 0.8119 0.4529 0.3619
H52_2 H 0.8602 0.4623 0.4193
C42_3 C 0.69748(15) 0.2204(4) 0.99778(13)
H25_3 H 0.6852 0.1711 0.9644
H27_3 H 0.6804 0.4288 0.9736
H43_3 H 0.5756 0.9750 0.6161
H51_3 H 0.6881 0.9529 0.6381
H52_3 H 0.6398 0.9623 0.5807
C42_4 C 0.30252(15) 0.2204(4) 0.00222(13)
H25_4 H 0.3148 0.1711 0.0356
H27_4 H 0.3196 0.4288 0.0264
H43_4 H 0.4244 0.9750 0.3839
H51_4 H 0.3119 0.9529 0.3619
H52_4 H 0.3602 0.9623 0.4193
loop_
_geom_bond_atom_site_label_1
_geom_bond_atom_site_label_2
_geom_bond_site_symmetry_1
_geom_bond_site_symmetry_2
C45 H28 1_555 1_555
H29 C45 1_555 1_555
C46 C45 1_555 1_555
H30 C46 1_555 1_555
C48 H33 1_555 1_555
H34 C48 1_555 1_555
N5 C46 1_555 1_555
H49 N5 1_555 1_555
H50 N5 1_555 1_555
C48 N5 1_555 1_555
Zn1 N3 1_555 1_555
C1 C2 1_555 1_555
C2 C3 1_555 1_555
C3 H1 1_555 1_555
C4 C3 1_555 1_555
H2 C4 1_555 1_555
C5 C4 1_555 1_555
C6 C5 1_555 1_555
H3 C6 1_555 1_555
C7 C2 1_555 1_555
H4 C7 1_555 1_555
C8 C9 1_555 1_555
C9 H5 1_555 1_555
C10 C9 1_555 1_555
H6 C10 1_555 1_555
C11 C10 1_555 1_555
C12 C11 1_555 1_555
H7 C12 1_555 1_555
C13 C8 1_555 1_555
H8 C13 1_555 1_555
C43 H26 1_555 1_555
H31 C47 1_555 1_555
H32 C47 1_555 1_555
C56 C47 1_555 1_555
H45 C56 1_555 1_555
H46 C56 1_555 1_555
C58 C11 1_555 1_555
N1 C5 1_555 1_555
N4 C43 1_555 1_555
O1 C1 1_555 1_555
O2 Zn1 1_555 1_555
O11 C58 1_555 1_555
O12 C58 1_555 1_555
Zn4 O11 1_555 1_555
O13 Zn1 1_555 1_555
C1 O2 1_555 1_555
C6 C7 1_555 1_555
C8 N1 1_555 1_555
C12 C13 1_555 1_555
C43 N3 1_555 1_555
C44 N4 1_555 1_555
Zn4 N6 1_555 1_555
C21 C22 1_555 1_555
C22 H13 1_555 1_555
C23 C22 1_555 1_555
H14 C23 1_555 1_555
C24 C23 1_555 1_555
C25 C24 1_555 1_555
H15 C25 1_555 1_555
C26 C21 1_555 1_555
H16 C26 1_555 1_555
C27 C24 1_555 1_555
C33 C34 1_555 1_555
C34 C35 1_555 1_555
C35 H21 1_555 1_555
C36 C35 1_555 1_555
H22 C36 1_555 1_555
C37 C36 1_555 1_555
C38 C37 1_555 1_555
H23 C38 1_555 1_555
C39 C34 1_555 1_555
H24 C39 1_555 1_555
C42 H25 1_555 1_555
N2 C21 1_555 1_555
O7 Zn4 1_555 1_555
O8 C33 1_555 1_555
O14 Zn4 1_555 1_555
C25 C26 1_555 1_555
C27 O5 1_555 1_555
C33 O7 1_555 1_555
C37 N2 1_555 1_555
C38 C39 1_555 1_555
C14 C15 1_555 1_555
C15 H9 1_555 1_555
C16 C14 1_555 1_555
H10 C16 1_555 1_555
C17 C16 1_555 1_555
H11 C17 1_555 1_555
C18 C15 1_555 1_555
H12 C18 1_555 1_555
C19 C17 1_555 1_555
C20 C19 1_555 1_555
O3 C20 1_555 1_555
O4 C20 1_555 1_555
Zn3 O3 1_555 1_555
C18 C19 1_555 1_555
C31 H19 1_555 1_555
H20 C32 1_555 1_555
C41 C40 1_555 1_555
O9 C41 1_555 1_555
O10 C41 1_555 1_555
Zn5 O10 1_555 1_555
C31 C32 1_555 1_555
C31 C40 1_555 1_555
C1_2 C2_2 1_555 1_555
C6_2 C5_2 1_555 1_555
H3_2 C6_2 1_555 1_555
C7_2 C2_2 1_555 1_555
H4_2 C7_2 1_555 1_555
H7_2 C12_2 1_555 1_555
C13_2 C8_2 1_555 1_555
H8_2 C13_2 1_555 1_555
C14_2 C15_2 1_555 1_555
C16_2 C14_2 1_555 1_555
H10_2 C16_2 1_555 1_555
C17_2 C16_2 1_555 1_555
H11_2 C17_2 1_555 1_555
C18_2 C15_2 1_555 1_555
H12_2 C18_2 1_555 1_555
C19_2 C17_2 1_555 1_555
C20_2 C19_2 1_555 1_555
C43_2 H26_2 1_555 1_555
C45_2 H28_2 1_555 1_555
H29_2 C45_2 1_555 1_555
C46_2 C45_2 1_555 1_555
H30_2 C46_2 1_555 1_555
C47_2 C46_2 1_555 1_555
H31_2 C47_2 1_555 1_555
H32_2 C47_2 1_555 1_555
C48_2 H33_2 1_555 1_555
H34_2 C48_2 1_555 1_555
C56_2 C47_2 1_555 1_555
H45_2 C56_2 1_555 1_555
H46_2 C56_2 1_555 1_555
N1_2 C5_2 1_555 1_555
N4_2 C43_2 1_555 1_555
N5_2 C46_2 1_555 1_555
H49_2 N5_2 1_555 1_555
H50_2 N5_2 1_555 1_555
O1_2 C1_2 1_555 1_555
O13 C20_2 1_555 1_555
O4_2 C20_2 1_555 1_555
C6_2 C7_2 1_555 1_555
C8_2 N1_2 1_555 1_555
C12_2 C13_2 1_555 1_555
C14_2 N1_2 1_555 1_555
C18_2 C19_2 1_555 1_555
C43_2 N3_2 1_555 1_555
C44_2 N4_2 1_555 1_555
C45_2 N4_2 1_555 1_555
C48_2 C56_2 1_555 1_555
C48_2 N5_2 1_555 1_555
C3_2 H1_2 1_555 1_555
C4_2 C3_2 1_555 1_555
H2_3 C4_2 1_555 1_555
C9_2 H5_2 1_555 1_555
C10_2 C9_2 1_555 1_555
H6_2 C10_2 1_555 1_555
C11_2 C10_2 1_555 1_555
C58_2 C11_2 1_555 1_555
O2_2 Zn3 1_555 1_555
O11_2 C58_2 1_555 1_555
O12_2 C58_2 1_555 1_555
Zn5 O11_2 1_555 1_555
Zn5 N6_2 1_555 1_555
C21_2 C22_2 1_555 1_555
C22_2 H13_2 1_555 1_555
C23_2 C22_2 1_555 1_555
H14_2 C23_2 1_555 1_555
C24_2 C23_2 1_555 1_555
C25_2 C24_2 1_555 1_555
H15_2 C25_2 1_555 1_555
C26_2 C21_2 1_555 1_555
H16_2 C26_2 1_555 1_555
C27_2 C24_2 1_555 1_555
C28 C29 1_555 1_555
C29 H17 1_555 1_555
C30 C29 1_555 1_555
H18 C30 1_555 1_555
C31_2 H19_2 1_555 1_555
C32_2 C28 1_555 1_555
H20_2 C32_2 1_555 1_555
C33_2 C34_2 1_555 1_555
C34_2 C35_2 1_555 1_555
C35_2 H21_2 1_555 1_555
C36_2 C35_2 1_555 1_555
H22_2 C36_2 1_555 1_555
C37_2 C36_2 1_555 1_555
C38_2 C37_2 1_555 1_555
H23_2 C38_2 1_555 1_555
C39_2 C34_2 1_555 1_555
H24_2 C39_2 1_555 1_555
C40_2 C30 1_555 1_555
C41_2 C40_2 1_555 1_555
C49 H35_2 1_555 1_555
C50 C49 1_555 1_555
H36 C50 1_555 1_555
C51 H37 1_555 1_555
C52 H38 1_555 1_555
C53 C52 1_555 1_555
H39 C53 1_555 1_555
H40 C53 1_555 1_555
C54 C53 1_555 1_555
H41 C54 1_555 1_555
H42 C54 1_555 1_555
C55 C54 1_555 1_555
H44 C55 1_555 1_555
C57 C52 1_555 1_555
H47 C57 1_555 1_555
H48 C57 1_555 1_555
N2_2 C21_2 1_555 1_555
N6_2 C49 1_555 1_555
N7 C50 1_555 1_555
N8 C52 1_555 1_555
O7_2 Zn5 1_555 1_555
O8_2 C33_2 1_555 1_555
O9_2 C41_2 1_555 1_555
O14 C41_2 1_555 1_555
C25_2 C26_2 1_555 1_555
C27_2 O5_2 1_555 1_555
C28 N2_2 1_555 1_555
C31_2 C32_2 1_555 1_555
C31_2 C40_2 1_555 1_555
C33_2 O7_2 1_555 1_555
C37_2 N2_2 1_555 1_555
C38_2 C39_2 1_555 1_555
C51 N6_2 1_555 1_555
C51 N7 1_555 1_555
C55 N8 1_555 1_555
C57 N7 1_555 1_555
C50_2 C49_2 1_555 1_555
H36_2 C50_2 1_555 1_555
C51_2 H37_2 1_555 1_555
C52_2 H38_2 1_555 1_555
C53_2 C52_2 1_555 1_555
H39_2 C53_2 1_555 1_555
H40_2 C53_2 1_555 1_555
C54_2 C53_2 1_555 1_555
H41_2 C54_2 1_555 1_555
H42_2 C54_2 1_555 1_555
C55_2 C54_2 1_555 1_555
H43 C55_2 1_555 1_555
H44_2 C55_2 1_555 1_555
C57_2 C52_2 1_555 1_555
H47_2 C57_2 1_555 1_555
H48_2 C57_2 1_555 1_555
N6_3 C49_2 1_555 1_555
N7_2 C50_2 1_555 1_555
N8_2 C52_2 1_555 1_555
H51 N8_2 1_555 1_555
H52 N8_2 1_555 1_555
C51_2 N6_3 1_555 1_555
C51_2 N7_2 1_555 1_555
C55_2 N8_2 1_555 1_555
C57_2 N7_2 1_555 1_555
C28_2 C29_2 1_555 1_555
C29_2 H17_2 1_555 1_555
C30_2 C29_2 1_555 1_555
H18_2 C30_2 1_555 1_555
C28_3 C29_3 1_555 1_555
C29_3 H17_3 1_555 1_555
C30_3 C29_3 1_555 1_555
H18_3 C30_3 1_555 1_555
C14_3 C15_3 1_555 1_555
C15_3 H9_3 1_555 1_555
C16_3 C14_3 1_555 1_555
H10_3 C16_3 1_555 1_555
C17_3 C16_3 1_555 1_555
H11_3 C17_3 1_555 1_555
C18_3 C15_3 1_555 1_555
H12_3 C18_3 1_555 1_555
C19_3 C17_3 1_555 1_555
C20_3 C19_3 1_555 1_555
O3_2 C20_3 1_555 1_555
O4_3 C20_3 1_555 1_555
Zn3_2 O3_2 1_555 1_555
C18_3 C19_3 1_555 1_555
C31_3 H19_3 1_555 1_555
H20_3 C32_3 1_555 1_555
C41_3 C40_3 1_555 1_555
O9_3 C41_3 1_555 1_555
O10_2 C41_3 1_555 1_555
Zn5_2 O10_2 1_555 1_555
C31_3 C32_3 1_555 1_555
C31_3 C40_3 1_555 1_555
Zn2 N6_4 1_555 1_555
C21_3 C22_3 1_555 1_555
C22_3 H13_3 1_555 1_555
C23_3 C22_3 1_555 1_555
H14_3 C23_3 1_555 1_555
C24_3 C23_3 1_555 1_555
C25_3 C24_3 1_555 1_555
H15_3 C25_3 1_555 1_555
C26_3 C21_3 1_555 1_555
H16_3 C26_3 1_555 1_555
C27_3 C24_3 1_555 1_555
C33_3 C34_3 1_555 1_555
C34_3 C35_3 1_555 1_555
C35_3 H21_3 1_555 1_555
C36_3 C35_3 1_555 1_555
H22_3 C36_3 1_555 1_555
C37_3 C36_3 1_555 1_555
C38_3 C37_3 1_555 1_555
H23_3 C38_3 1_555 1_555
C39_3 C34_3 1_555 1_555
H24_3 C39_3 1_555 1_555
C42_2 H25_2 1_555 1_555
N2_3 C21_3 1_555 1_555
O7_3 Zn2 1_555 1_555
O8_3 C33_3 1_555 1_555
O14_2 Zn2 1_555 1_555
O15 Zn2 1_555 1_555
C25_3 C26_3 1_555 1_555
C27_3 O5_3 1_555 1_555
C33_3 O7_3 1_555 1_555
C37_3 N2_3 1_555 1_555
C38_3 C39_3 1_555 1_555
Zn1_2 N3_3 1_555 1_555
C1_3 C2_3 1_555 1_555
C2_3 C3_3 1_555 1_555
C3_3 H1_3 1_555 1_555
C4_3 C3_3 1_555 1_555
H2_5 C4_3 1_555 1_555
C5_3 C4_3 1_555 1_555
C6_3 C5_3 1_555 1_555
H3_3 C6_3 1_555 1_555
C7_3 C2_3 1_555 1_555
H4_3 C7_3 1_555 1_555
C8_3 C9_3 1_555 1_555
C9_3 H5_3 1_555 1_555
C10_3 C9_3 1_555 1_555
H6_3 C10_3 1_555 1_555
C11_3 C10_3 1_555 1_555
C12_3 C11_3 1_555 1_555
H7_3 C12_3 1_555 1_555
C13_3 C8_3 1_555 1_555
H8_3 C13_3 1_555 1_555
C43_3 H26_3 1_555 1_555
H31_3 C47_3 1_555 1_555
H32_3 C47_3 1_555 1_555
C56_3 C47_3 1_555 1_555
H45_3 C56_3 1_555 1_555
H46_3 C56_3 1_555 1_555
C58_3 C11_3 1_555 1_555
N1_3 C5_3 1_555 1_555
N4_3 C43_3 1_555 1_555
O1_3 C1_3 1_555 1_555
O2_3 Zn1_2 1_555 1_555
O15 C58_3 1_555 1_555
O12_3 C58_3 1_555 1_555
O13_2 Zn1_2 1_555 1_555
C1_3 O2_3 1_555 1_555
C6_3 C7_3 1_555 1_555
C8_3 N1_3 1_555 1_555
C12_3 C13_3 1_555 1_555
C43_3 N3_3 1_555 1_555
C44_3 N4_3 1_555 1_555
C1_4 C2_4 1_555 1_555
C6_4 C5_4 1_555 1_555
H3_4 C6_4 1_555 1_555
C7_4 C2_4 1_555 1_555
H4_4 C7_4 1_555 1_555
H7_4 C12_4 1_555 1_555
C13_4 C8_4 1_555 1_555
H8_4 C13_4 1_555 1_555
C14_4 C15_4 1_555 1_555
C16_4 C14_4 1_555 1_555
H10_4 C16_4 1_555 1_555
C17_4 C16_4 1_555 1_555
H11_4 C17_4 1_555 1_555
C18_4 C15_4 1_555 1_555
H12_4 C18_4 1_555 1_555
C19_4 C17_4 1_555 1_555
C20_4 C19_4 1_555 1_555
C43_4 H26_4 1_555 1_555
C45_3 H28_3 1_555 1_555
H29_3 C45_3 1_555 1_555
C46_3 C45_3 1_555 1_555
H30_3 C46_3 1_555 1_555
C47_4 C46_3 1_555 1_555
H31_4 C47_4 1_555 1_555
H32_4 C47_4 1_555 1_555
C48_3 H33_3 1_555 1_555
H34_3 C48_3 1_555 1_555
C56_4 C47_4 1_555 1_555
H45_4 C56_4 1_555 1_555
H46_4 C56_4 1_555 1_555
N1_4 C5_4 1_555 1_555
N4_4 C43_4 1_555 1_555
N5_3 C46_3 1_555 1_555
H49_3 N5_3 1_555 1_555
H50_3 N5_3 1_555 1_555
O1_4 C1_4 1_555 1_555
O13_2 C20_4 1_555 1_555
O4_4 C20_4 1_555 1_555
C6_4 C7_4 1_555 1_555
C8_4 N1_4 1_555 1_555
C12_4 C13_4 1_555 1_555
C14_4 N1_4 1_555 1_555
C18_4 C19_4 1_555 1_555
C43_4 N3_4 1_555 1_555
C44_4 N4_4 1_555 1_555
C45_3 N4_4 1_555 1_555
C48_3 C56_4 1_555 1_555
C48_3 N5_3 1_555 1_555
Zn5_2 N6_5 1_555 1_555
C21_4 C22_4 1_555 1_555
C22_4 H13_4 1_555 1_555
C23_4 C22_4 1_555 1_555
H14_4 C23_4 1_555 1_555
C24_4 C23_4 1_555 1_555
C25_4 C24_4 1_555 1_555
H15_4 C25_4 1_555 1_555
C26_4 C21_4 1_555 1_555
H16_4 C26_4 1_555 1_555
C27_4 C24_4 1_555 1_555
C28_4 C29_4 1_555 1_555
C29_4 H17_4 1_555 1_555
C30_4 C29_4 1_555 1_555
H18_4 C30_4 1_555 1_555
C31_4 H19_4 1_555 1_555
C32_4 C28_4 1_555 1_555
H20_4 C32_4 1_555 1_555
C33_4 C34_4 1_555 1_555
C34_4 C35_4 1_555 1_555
C35_4 H21_4 1_555 1_555
C36_4 C35_4 1_555 1_555
H22_4 C36_4 1_555 1_555
C37_4 C36_4 1_555 1_555
C38_4 C37_4 1_555 1_555
H23_4 C38_4 1_555 1_555
C39_4 C34_4 1_555 1_555
H24_4 C39_4 1_555 1_555
C40_4 C30_4 1_555 1_555
C41_4 C40_4 1_555 1_555
C49_3 H35_4 1_555 1_555
C50_3 C49_3 1_555 1_555
H36_3 C50_3 1_555 1_555
C51_3 H37_3 1_555 1_555
C52_3 H38_3 1_555 1_555
C53_3 C52_3 1_555 1_555
H39_3 C53_3 1_555 1_555
H40_3 C53_3 1_555 1_555
C54_3 C53_3 1_555 1_555
H41_3 C54_3 1_555 1_555
H42_3 C54_3 1_555 1_555
C55_3 C54_3 1_555 1_555
H44_3 C55_3 1_555 1_555
C57_3 C52_3 1_555 1_555
H47_3 C57_3 1_555 1_555
H48_3 C57_3 1_555 1_555
N2_4 C21_4 1_555 1_555
N6_5 C49_3 1_555 1_555
N7_3 C50_3 1_555 1_555
N8_3 C52_3 1_555 1_555
O7_4 Zn5_2 1_555 1_555
O8_4 C33_4 1_555 1_555
O9_4 C41_4 1_555 1_555
O14_2 C41_4 1_555 1_555
O15_2 Zn5_2 1_555 1_555
C25_4 C26_4 1_555 1_555
C27_4 O5_4 1_555 1_555
C28_4 N2_4 1_555 1_555
C31_4 C32_4 1_555 1_555
C31_4 C40_4 1_555 1_555
C33_4 O7_4 1_555 1_555
C37_4 N2_4 1_555 1_555
C38_4 C39_4 1_555 1_555
C51_3 N6_5 1_555 1_555
C51_3 N7_3 1_555 1_555
C55_3 N8_3 1_555 1_555
C57_3 N7_3 1_555 1_555
C3_4 H1_4 1_555 1_555
C4_4 C3_4 1_555 1_555
H2_6 C4_4 1_555 1_555
C9_4 H5_4 1_555 1_555
C10_4 C9_4 1_555 1_555
H6_4 C10_4 1_555 1_555
C11_4 C10_4 1_555 1_555
C58_4 C11_4 1_555 1_555
O2_4 Zn3_2 1_555 1_555
O15_2 C58_4 1_555 1_555
O12_4 C58_4 1_555 1_555
C45_4 H28_4 1_555 1_555
H29_4 C45_4 1_555 1_555
C46_4 C45_4 1_555 1_555
H30_4 C46_4 1_555 1_555
C48_4 H33_4 1_555 1_555
H34_4 C48_4 1_555 1_555
N5_4 C46_4 1_555 1_555
H49_4 N5_4 1_555 1_555
H50_4 N5_4 1_555 1_555
C48_4 N5_4 1_555 1_555
C50_4 C49_4 1_555 1_555
H36_4 C50_4 1_555 1_555
C51_4 H37_4 1_555 1_555
C52_4 H38_4 1_555 1_555
C53_4 C52_4 1_555 1_555
H39_4 C53_4 1_555 1_555
H40_4 C53_4 1_555 1_555
C54_4 C53_4 1_555 1_555
H41_4 C54_4 1_555 1_555
H42_4 C54_4 1_555 1_555
C55_4 C54_4 1_555 1_555
H43_2 C55_4 1_555 1_555
H44_4 C55_4 1_555 1_555
C57_4 C52_4 1_555 1_555
H47_4 C57_4 1_555 1_555
H48_4 C57_4 1_555 1_555
N6_6 C49_4 1_555 1_555
N7_4 C50_4 1_555 1_555
N8_4 C52_4 1_555 1_555
H51_2 N8_4 1_555 1_555
H52_2 N8_4 1_555 1_555
C51_4 N6_6 1_555 1_555
C51_4 N7_4 1_555 1_555
C55_4 N8_4 1_555 1_555
C57_4 N7_4 1_555 1_555
C42_3 H25_3 1_555 1_555
C42_4 H25_4 1_555 1_555

#END
