
###############################################################################
#
# This file contains modified crystal structure data generated from the
# MOF subset of the Cambridge Structural Database (CSD) v543 
# hosted by the Cambridge Crystallographic Data Centre (CCDC).
#
# This work is licensed under the Creative Commons
# Attribution-NonCommercial-ShareAlike 4.0 International License.
# To view a copy of this license, visit
# http://creativecommons.org/licenses/by-nc-sa/4.0/
# or send a letter to
# Creative Commons, PO Box 1866, Mountain View, CA 94042, USA.
#
# CIF created using the CSD Python API on 29 September 2022
# The structure has been converted into the P1 space group
# The structure has a 3D framework
# The original CSD entry VEHKOK is in the orthorhombic crystal system
# The framework has been calculated to contain at least 10.0% void space
# The void calculation uses a probe of radius 1.32A, grid spacing 0.4
# The framework is charged, counterions have been retained in the structure
# H atom positions have been added when not included in the experimental data
# Generated hydrogen atom positions removed from atoms on special positions
#
###############################################################################

data_VEHKOK
_chemical_formula_moiety         '(C220 H172 N8 O152 Zn36)n'
_symmetry_cell_setting           triclinic
_symmetry_space_group_name_H-M   'P 1'
_symmetry_Int_Tables_number      1
_space_group_name_Hall           'P 1'
loop_
_symmetry_equiv_pos_site_id
_symmetry_equiv_pos_as_xyz
1 x,y,z
_cell_length_a                   17.441(5)
_cell_length_b                   35.188(5)
_cell_length_c                   17.398(5)
_cell_angle_alpha                90
_cell_angle_beta                 90
_cell_angle_gamma                90
_cell_volume                     10677.4
loop_
_atom_site_label
_atom_site_type_symbol
_atom_site_fract_x
_atom_site_fract_y
_atom_site_fract_z
C1 C 0.7260(7) 0.0732(3) 0.3837(6)
H1 H 0.7490 0.0951 0.3590
H2 H 0.7000 0.0584 0.3446
C2 C 0.7916(6) 0.0479(3) 0.4224(7)
H3 H 0.8276 0.0642 0.4481
H4 H 0.8177 0.0336 0.3834
H5 H 0.7690 0.0309 0.4589
C3 C 0.6105(6) 0.1104(3) 0.4074(6)
H6 H 0.5722 0.1170 0.4456
H7 H 0.5852 0.0968 0.3662
C4 C 0.6467(9) 0.1467(3) 0.3757(6)
H8 H 0.6838 0.1561 0.4117
H9 H 0.6076 0.1655 0.3677
H10 H 0.6716 0.1412 0.3277
N1 N 0.6693(4) 0.08617(19) 0.4422(4)
H11 H 0.6467 0.0658 0.4640
H12 H 0.6937 0.0992 0.4794
C1_2 C 0.7740(7) 0.9268(3) 0.8837(6)
H1_2 H 0.7510 0.9049 0.8590
H2_2 H 0.8000 0.9416 0.8446
C2_2 C 0.7084(6) 0.9521(3) 0.9224(7)
H3_2 H 0.6724 0.9358 0.9481
H4_2 H 0.6823 0.9664 0.8834
H5_2 H 0.7310 0.9691 0.9589
C3_2 C 0.8895(6) 0.8896(3) 0.9074(6)
H6_2 H 0.9278 0.8830 0.9456
H7_2 H 0.9148 0.9032 0.8662
C4_2 C 0.8533(9) 0.8533(3) 0.8757(6)
H8_2 H 0.8162 0.8439 0.9117
H9_2 H 0.8924 0.8345 0.8677
H10_2 H 0.8284 0.8588 0.8277
N1_2 N 0.8307(4) 0.91383(19) 0.9422(4)
H11_2 H 0.8533 0.9342 0.9640
H12_2 H 0.8063 0.9008 0.9794
C1_3 C 0.2260(7) 0.4268(3) 0.1163(6)
H1_3 H 0.2490 0.4049 0.1410
H2_3 H 0.2000 0.4416 0.1554
C2_3 C 0.2916(6) 0.4521(3) 0.0776(7)
H3_3 H 0.3276 0.4358 0.0519
H4_3 H 0.3177 0.4664 0.1166
H5_3 H 0.2690 0.4691 0.0411
C3_3 C 0.1105(6) 0.3896(3) 0.0926(6)
H6_3 H 0.0722 0.3830 0.0544
H7_3 H 0.0852 0.4032 0.1338
C4_3 C 0.1467(9) 0.3533(3) 0.1243(6)
H8_3 H 0.1838 0.3439 0.0883
H9_3 H 0.1076 0.3345 0.1323
H10_3 H 0.1716 0.3588 0.1723
N1_3 N 0.1693(4) 0.41383(19) 0.0578(4)
H11_3 H 0.1467 0.4342 0.0360
H12_3 H 0.1937 0.4008 0.0206
C1_4 C 0.2740(7) 0.5732(3) 0.6163(6)
H1_4 H 0.2510 0.5951 0.6410
H2_4 H 0.3000 0.5584 0.6554
C2_4 C 0.2084(6) 0.5479(3) 0.5776(7)
H3_4 H 0.1724 0.5642 0.5519
H4_4 H 0.1823 0.5336 0.6166
H5_4 H 0.2310 0.5309 0.5411
C3_4 C 0.3895(6) 0.6104(3) 0.5926(6)
H6_4 H 0.4278 0.6170 0.5544
H7_4 H 0.4148 0.5968 0.6338
C4_4 C 0.3533(9) 0.6467(3) 0.6243(6)
H8_4 H 0.3162 0.6561 0.5883
H9_4 H 0.3924 0.6655 0.6323
H10_4 H 0.3284 0.6412 0.6723
N1_4 N 0.3307(4) 0.58617(19) 0.5578(4)
H11_4 H 0.3533 0.5658 0.5360
H12_4 H 0.3063 0.5992 0.5206
C1_5 C 0.2740(7) 0.9268(3) 0.6163(6)
H1_5 H 0.2510 0.9049 0.6410
H2_5 H 0.3000 0.9416 0.6554
C2_5 C 0.2084(6) 0.9521(3) 0.5776(7)
H3_5 H 0.1724 0.9358 0.5519
H4_5 H 0.1823 0.9664 0.6166
H5_5 H 0.2310 0.9691 0.5411
C3_5 C 0.3895(6) 0.8896(3) 0.5926(6)
H6_5 H 0.4278 0.8830 0.5544
H7_5 H 0.4148 0.9032 0.6338
C4_5 C 0.3533(9) 0.8533(3) 0.6243(6)
H8_5 H 0.3162 0.8439 0.5883
H9_5 H 0.3924 0.8345 0.6323
H10_5 H 0.3284 0.8588 0.6723
N1_5 N 0.3307(4) 0.91383(19) 0.5578(4)
H11_5 H 0.3533 0.9342 0.5360
H12_5 H 0.3063 0.9008 0.5206
C1_6 C 0.2260(7) 0.0732(3) 0.1163(6)
H1_6 H 0.2490 0.0951 0.1410
H2_6 H 0.2000 0.0584 0.1554
C2_6 C 0.2916(6) 0.0479(3) 0.0776(7)
H3_6 H 0.3276 0.0642 0.0519
H4_6 H 0.3177 0.0336 0.1166
H5_6 H 0.2690 0.0309 0.0411
C3_6 C 0.1105(6) 0.1104(3) 0.0926(6)
H6_6 H 0.0722 0.1170 0.0544
H7_6 H 0.0852 0.0968 0.1338
C4_6 C 0.1467(9) 0.1467(3) 0.1243(6)
H8_6 H 0.1838 0.1561 0.0883
H9_6 H 0.1076 0.1655 0.1323
H10_6 H 0.1716 0.1412 0.1723
N1_6 N 0.1693(4) 0.08617(19) 0.0578(4)
H11_6 H 0.1467 0.0658 0.0360
H12_6 H 0.1937 0.0992 0.0206
C1_7 C 0.7740(7) 0.5732(3) 0.8837(6)
H1_7 H 0.7510 0.5951 0.8590
H2_7 H 0.8000 0.5584 0.8446
C2_7 C 0.7084(6) 0.5479(3) 0.9224(7)
H3_7 H 0.6724 0.5642 0.9481
H4_7 H 0.6823 0.5336 0.8834
H5_7 H 0.7310 0.5309 0.9589
C3_7 C 0.8895(6) 0.6104(3) 0.9074(6)
H6_7 H 0.9278 0.6170 0.9456
H7_7 H 0.9148 0.5968 0.8662
C4_7 C 0.8533(9) 0.6467(3) 0.8757(6)
H8_7 H 0.8162 0.6561 0.9117
H9_7 H 0.8924 0.6655 0.8677
H10_7 H 0.8284 0.6412 0.8277
N1_7 N 0.8307(4) 0.58617(19) 0.9422(4)
H11_7 H 0.8533 0.5658 0.9640
H12_7 H 0.8063 0.5992 0.9794
C1_8 C 0.7260(7) 0.4268(3) 0.3837(6)
H1_8 H 0.7490 0.4049 0.3590
H2_8 H 0.7000 0.4416 0.3446
C2_8 C 0.7916(6) 0.4521(3) 0.4224(7)
H3_8 H 0.8276 0.4358 0.4481
H4_8 H 0.8177 0.4664 0.3834
H5_8 H 0.7690 0.4691 0.4589
C3_8 C 0.6105(6) 0.3896(3) 0.4074(6)
H6_8 H 0.5722 0.3830 0.4456
H7_8 H 0.5852 0.4032 0.3662
C4_8 C 0.6467(9) 0.3533(3) 0.3757(6)
H8_8 H 0.6838 0.3439 0.4117
H9_8 H 0.6076 0.3345 0.3677
H10_8 H 0.6716 0.3588 0.3277
N1_8 N 0.6693(4) 0.41383(19) 0.4422(4)
H11_8 H 0.6467 0.4342 0.4640
H12_8 H 0.6937 0.4008 0.4794
O3 O 0.2070(2) 0.13473(13) 0.4554(3)
O4 O 0.2023(2) 0.11003(13) 0.3378(2)
O18 O 0.0932(2) 0.01784(12) 0.0064(3)
O20 O 0.037(2) 0.2500 0.683(2)
C6 C 0.1727(3) 0.12579(16) 0.3940(3)
C9 C 0.0528(3) 0.15640(18) 0.4463(4)
H13 H 0.0805 0.1658 0.4878
C10 C 0.0900(3) 0.13482(17) 0.3900(3)
C11 C 0.0459(3) 0.12035(18) 0.3288(3)
H14 H 0.0695 0.1066 0.2899
C29 C 0.0207(4) 0.01898(18) 0.0094(4)
Zn15 Zn 0.30261(3) 0.086729(17) 0.32094(3)
Zn20 Zn 0.31468(4) 0.128661(17) 0.48725(4)
O9 O 0.1994(2) 0.28136(11) 0.9591(3)
C15 C 0.1679(5) 0.2500 0.9649(5)
C18 C 0.0451(3) 0.21630(16) 0.9924(4)
H17 H 0.0720 0.1935 0.9901
C19 C 0.0840(5) 0.2500 0.9835(6)
Zn8 Zn 0.29949(4) 0.296460(17) 0.91886(4)
Zn9 Zn 0.29949(4) 0.203540(17) 0.91886(4)
Zn26 Zn 0.36511(4) 0.036084(18) 0.47359(4)
O35 O 0.1994(2) 0.21864(11) 0.9591(3)
O44 O 0.2870(3) 0.01034(12) 0.4057(2)
O47 O 0.2790(3) 0.03532(11) 0.2887(2)
C41 C 0.0451(3) 0.28370(16) 0.9924(4)
H24 H 0.0720 0.3065 0.9901
C43 C 0.2753(4) 0.00832(16) 0.3348(3)
O40 O 0.1925(3) 0.89131(11) 0.0912(2)
O43 O 0.1857(3) 0.95429(12) 0.0733(2)
Zn6 Zn 0.04260(9) 0.7500 0.38031(9)
Zn7 Zn 0.20051(4) 0.796460(17) 0.41886(4)
Zn11 Zn 0.19739(3) 0.913271(17) 0.82094(3)
Zn16 Zn 0.18532(4) 0.871339(17) 0.98725(4)
Zn22 Zn 0.13489(4) 0.963916(18) 0.97359(4)
O21 O 0.0253(4) 0.7989(3) 0.4466(4)
O23 O 0.1336(2) 0.80758(13) 0.5052(2)
O25 O 0.2930(2) 0.86527(13) 0.9554(3)
O28 O 0.2977(2) 0.88997(13) 0.8378(2)
O30 O 0.0436(3) 0.9073(2) 0.7909(3)
O31 O 0.1494(2) 0.88612(12) 0.7374(2)
O33 O 0.1480(2) 0.81993(12) 0.9840(3)
O37 O 0.3006(2) 0.78136(11) 0.4591(3)
O46 O 0.2130(3) 0.98966(12) 0.9057(2)
O49 O 0.2210(3) 0.96468(11) 0.7887(2)
O50 O 0.2541(4) 0.87238(13) 0.4441(3)
O51 O 0.2101(3) 0.83831(11) 0.3465(2)
O52 O 0.1622(3) 0.7500 0.3667(3)
O53 O 0.0195(3) 0.95275(13) 0.9778(3)
O55 O 0.14300(19) 0.91121(9) 0.9202(2)
C30 C 0.0630(4) 0.8122(2) 0.4987(4)
C32 C 0.0778(4) 0.89015(19) 0.7390(4)
C33 C 0.0251(3) 0.8361(2) 0.5595(4)
C37 C 0.0324(3) 0.87353(19) 0.6738(4)
C38 C 0.0668(3) 0.85169(18) 0.6182(3)
H23 H 0.1193 0.8474 0.6205
C42 C 0.1977(3) 0.92420(17) 0.1130(3)
C44 C 0.2333(4) 0.86934(17) 0.3764(4)
C45 C 0.2333(4) 0.90247(16) 0.3237(4)
C46 C 0.2535(4) 0.93860(17) 0.3515(4)
H25 H 0.2663 0.9416 0.4031
C47 C 0.2546(4) 0.96998(15) 0.3028(3)
C48 C 0.2358(4) 0.96557(15) 0.2274(3)
H26 H 0.2359 0.9867 0.1953
C49 C 0.2164(3) 0.93013(16) 0.1971(3)
C50 C 0.2164(4) 0.89902(15) 0.2461(3)
H27 H 0.2047 0.8751 0.2264
Zn17 Zn 0.81468(4) 0.128661(17) 0.01275(4)
Zn23 Zn 0.86511(4) 0.036084(18) 0.02641(4)
Zn1 Zn 0.95740(9) 0.2500 0.61969(9)
Zn2 Zn 0.79949(4) 0.203540(17) 0.58114(4)
Zn3 Zn 0.80261(3) 0.086729(17) 0.17906(3)
O1 O 0.9747(4) 0.2011(3) 0.5534(4)
O2 O 0.8664(2) 0.19242(13) 0.4948(2)
O5 O 0.9564(3) 0.0927(2) 0.2091(3)
O6 O 0.8506(2) 0.11388(12) 0.2626(2)
O7 O 0.8520(2) 0.18007(12) 0.0160(3)
O8 O 0.9581(3) 0.14881(14) 0.0069(4)
O10 O 0.8075(3) 0.10869(11) 0.9088(2)
O11 O 0.8143(3) 0.04571(12) 0.9267(2)
O14 O 0.7459(4) 0.12762(13) 0.5559(3)
O15 O 0.7899(3) 0.16169(11) 0.6535(2)
O16 O 0.8378(3) 0.2500 0.6333(3)
O17 O 0.9805(3) 0.04725(13) 0.0222(3)
O19 O 0.85700(19) 0.08879(9) 0.0798(2)
C5 C 0.9370(4) 0.1878(2) 0.5013(4)
C7 C 0.9222(4) 0.10985(19) 0.2610(4)
C8 C 0.9749(3) 0.1639(2) 0.4405(4)
C12 C 0.9676(3) 0.12647(19) 0.3262(4)
C13 C 0.9332(3) 0.14831(18) 0.3818(3)
H15 H 0.8807 0.1526 0.3795
C14 C 0.9241(4) 0.17883(18) 0.0102(4)
C16 C 0.9268(5) 0.2500 0.0123(5)
H16 H 0.8744 0.2500 0.0222
C17 C 0.9669(3) 0.21563(16) 0.0047(4)
C20 C 0.8023(3) 0.07580(17) 0.8870(3)
C22 C 0.7667(4) 0.13066(17) 0.6236(4)
C23 C 0.7667(4) 0.09753(16) 0.6763(4)
C24 C 0.7465(4) 0.06140(17) 0.6485(4)
H18 H 0.7337 0.0584 0.5969
C25 C 0.7454(4) 0.03002(15) 0.6972(3)
C26 C 0.7642(4) 0.03443(15) 0.7726(3)
H19 H 0.7641 0.0133 0.8047
C27 C 0.7836(3) 0.06987(16) 0.8029(3)
C28 C 0.7836(4) 0.10098(15) 0.7539(3)
H20 H 0.7953 0.1249 0.7736
Zn10 Zn 0.79949(4) 0.296460(17) 0.58114(4)
Zn21 Zn 0.81468(4) 0.371339(17) 0.01275(4)
O22 O 0.9747(4) 0.2989(3) 0.5534(4)
O26 O 0.7070(2) 0.13473(13) 0.0446(3)
O29 O 0.7023(2) 0.11003(13) 0.1622(2)
O32 O 0.8520(2) 0.31993(12) 0.0160(3)
O34 O 0.9581(3) 0.35119(14) 0.0069(4)
O36 O 0.6994(2) 0.21864(11) 0.5409(3)
O45 O 0.7870(3) 0.01034(12) 0.0943(2)
O48 O 0.7790(3) 0.03532(11) 0.2113(2)
C39 C 0.9241(4) 0.32117(18) 0.0102(4)
C40 C 0.9669(3) 0.28437(16) 0.0047(4)
O12 O 0.7130(3) 0.98966(12) 0.5943(2)
O13 O 0.7210(3) 0.96468(11) 0.7113(2)
C21 C 0.7247(4) 0.99168(16) 0.6652(3)
Zn13 Zn 0.69739(3) 0.913271(17) 0.67906(3)
Zn24 Zn 0.63489(4) 0.963916(18) 0.52641(4)
Zn18 Zn 0.68532(4) 0.871339(17) 0.51275(4)
O24 O 0.7930(2) 0.86527(13) 0.5446(3)
O27 O 0.7977(2) 0.88997(13) 0.6622(2)
O54 O 0.9068(2) 0.98216(12) 0.9936(3)
C31 C 0.8273(3) 0.87421(16) 0.6060(3)
C34 C 0.9472(3) 0.84360(18) 0.5537(4)
H21 H 0.9195 0.8342 0.5122
C35 C 0.9100(3) 0.86518(17) 0.6100(3)
C36 C 0.9541(3) 0.87965(18) 0.6712(3)
H22 H 0.9305 0.8934 0.7101
C51 C 0.9793(4) 0.98102(18) 0.9906(4)
C21_2 C 0.7753(4) 0.00832(16) 0.1652(3)
O23_2 O 0.3664(2) 0.19242(13) 0.0052(2)
O30_2 O 0.4564(3) 0.0927(2) 0.2909(3)
O31_2 O 0.3506(2) 0.11388(12) 0.2374(2)
O33_2 O 0.3520(2) 0.18007(12) 0.4840(3)
O40_2 O 0.3075(3) 0.10869(11) 0.5912(2)
O43_2 O 0.3143(3) 0.04571(12) 0.5733(2)
O53_2 O 0.4805(3) 0.04725(13) 0.4778(3)
O54_2 O 0.5932(2) 0.01784(12) 0.4936(3)
O55_2 O 0.35700(19) 0.08879(9) 0.4202(2)
C31_2 C 0.6727(3) 0.12579(16) 0.1060(3)
C32_2 C 0.4222(4) 0.10985(19) 0.2390(4)
C33_2 C 0.4749(3) 0.1639(2) 0.0595(4)
C34_2 C 0.5528(3) 0.15640(18) 0.0537(4)
H21_2 H 0.5805 0.1658 0.0122
C35_2 C 0.5900(3) 0.13482(17) 0.1100(3)
C36_2 C 0.5459(3) 0.12035(18) 0.1712(3)
H22_2 H 0.5695 0.1066 0.2101
C37_2 C 0.4676(3) 0.12647(19) 0.1738(4)
C38_2 C 0.4332(3) 0.14831(18) 0.1182(3)
H23_2 H 0.3807 0.1526 0.1205
C51_2 C 0.5207(4) 0.01898(18) 0.4906(4)
Zn6_2 Zn 0.45740(9) 0.2500 0.88031(9)
O21_2 O 0.4747(4) 0.2011(3) 0.9466(4)
O50_2 O 0.2459(4) 0.12762(13) 0.9441(3)
O51_2 O 0.2899(3) 0.16169(11) 0.8465(2)
O52_2 O 0.3378(3) 0.2500 0.8667(3)
C30_2 C 0.4370(4) 0.1878(2) 0.9987(4)
C42_2 C 0.3023(3) 0.07580(17) 0.6130(3)
C44_2 C 0.2667(4) 0.13066(17) 0.8764(4)
C45_2 C 0.2667(4) 0.09753(16) 0.8237(4)
C46_2 C 0.2465(4) 0.06140(17) 0.8515(4)
H25_2 H 0.2337 0.0584 0.9031
C47_2 C 0.2454(4) 0.03002(15) 0.8028(3)
C48_2 C 0.2642(4) 0.03443(15) 0.7274(3)
H26_2 H 0.2641 0.0133 0.6953
C49_2 C 0.2836(3) 0.06987(16) 0.6971(3)
C50_2 C 0.2836(4) 0.10098(15) 0.7461(3)
H27_2 H 0.2953 0.1249 0.7264
Zn1_2 Zn 0.54260(9) 0.7500 0.11969(9)
Zn2_2 Zn 0.70051(4) 0.796460(17) 0.08114(4)
O1_2 O 0.5253(4) 0.7989(3) 0.0534(4)
O10_2 O 0.6925(3) 0.89131(11) 0.4088(2)
O11_2 O 0.6857(3) 0.95429(12) 0.4267(2)
O14_2 O 0.7541(4) 0.87238(13) 0.0559(3)
O15_2 O 0.7101(3) 0.83831(11) 0.1535(2)
O16_2 O 0.6622(3) 0.7500 0.1333(3)
O20_2 O 0.463(2) 0.7500 0.183(2)
C5_2 C 0.5630(4) 0.8122(2) 0.0013(4)
C20_2 C 0.6977(3) 0.92420(17) 0.3870(3)
C22_2 C 0.7333(4) 0.86934(17) 0.1236(4)
C23_2 C 0.7333(4) 0.90247(16) 0.1763(4)
C24_2 C 0.7535(4) 0.93860(17) 0.1485(4)
H18_2 H 0.7663 0.9416 0.0969
C25_2 C 0.7546(4) 0.96998(15) 0.1972(3)
C26_2 C 0.7358(4) 0.96557(15) 0.2726(3)
H19_2 H 0.7359 0.9867 0.3047
C27_2 C 0.7164(3) 0.93013(16) 0.3029(3)
C28_2 C 0.7164(4) 0.89902(15) 0.2539(3)
H20_2 H 0.7047 0.8751 0.2736
Zn10_2 Zn 0.70051(4) 0.703540(17) 0.08114(4)
O22_2 O 0.5253(4) 0.7011(3) 0.0534(4)
O36_2 O 0.8006(2) 0.78136(11) 0.0409(3)
O2_2 O 0.6336(2) 0.80758(13) 0.9948(2)
O5_2 O 0.5436(3) 0.9073(2) 0.7091(3)
O6_2 O 0.6494(2) 0.88612(12) 0.7626(2)
O7_2 O 0.6480(2) 0.81993(12) 0.5160(3)
O8_2 O 0.5419(3) 0.85119(14) 0.5069(4)
O9_2 O 0.3006(2) 0.71864(11) 0.4591(3)
O17_2 O 0.5195(3) 0.95275(13) 0.5222(3)
O18_2 O 0.4068(2) 0.98216(12) 0.5064(3)
O19_2 O 0.64300(19) 0.91121(9) 0.5798(2)
C6_2 C 0.3273(3) 0.87421(16) 0.8940(3)
C7_2 C 0.5778(4) 0.89015(19) 0.7610(4)
C8_2 C 0.5251(3) 0.8361(2) 0.9405(4)
C9_2 C 0.4472(3) 0.84360(18) 0.9463(4)
H13_2 H 0.4195 0.8342 0.9878
C10_2 C 0.4100(3) 0.86518(17) 0.8900(3)
C11_2 C 0.4541(3) 0.87965(18) 0.8288(3)
H14_2 H 0.4305 0.8934 0.7899
C12_2 C 0.5324(3) 0.87353(19) 0.8262(4)
C13_2 C 0.5668(3) 0.85169(18) 0.8818(3)
H15_2 H 0.6193 0.8474 0.8795
C14_2 C 0.5759(4) 0.82117(18) 0.5102(4)
C15_2 C 0.3321(5) 0.7500 0.4649(5)
C16_2 C 0.5732(5) 0.7500 0.5123(5)
H16_2 H 0.6256 0.7500 0.5222
C17_2 C 0.5331(3) 0.78437(16) 0.5047(4)
C18_2 C 0.4549(3) 0.78370(16) 0.4924(4)
H17_2 H 0.4280 0.8065 0.4901
C19_2 C 0.4160(5) 0.7500 0.4835(6)
C29_2 C 0.4793(4) 0.98102(18) 0.5094(4)
Zn8_2 Zn 0.20051(4) 0.703540(17) 0.41886(4)
Zn21_2 Zn 0.68532(4) 0.628661(17) 0.51275(4)
O32_2 O 0.6480(2) 0.68007(12) 0.5160(3)
O34_2 O 0.5419(3) 0.64881(14) 0.5069(4)
C39_2 C 0.5759(4) 0.67883(18) 0.5102(4)
C40_2 C 0.5331(3) 0.71563(16) 0.5047(4)
C41_2 C 0.4549(3) 0.71630(16) 0.4924(4)
H24_2 H 0.4280 0.6935 0.4901
C43_2 C 0.2247(4) 0.99168(16) 0.8348(3)
Zn14 Zn 0.80261(3) 0.413271(17) 0.17906(3)
Zn25 Zn 0.63489(4) 0.536084(18) 0.52641(4)
Zn26_2 Zn 0.86511(4) 0.463916(18) 0.02641(4)
O37_2 O 0.8006(2) 0.71864(11) 0.0409(3)
O38 O 0.6925(3) 0.60869(11) 0.4088(2)
O41 O 0.6857(3) 0.54571(12) 0.4267(2)
O44_2 O 0.7870(3) 0.48966(12) 0.0943(2)
O47_2 O 0.7790(3) 0.46468(11) 0.2113(2)
O50_3 O 0.7541(4) 0.62762(13) 0.0559(3)
O51_3 O 0.7101(3) 0.66169(11) 0.1535(2)
C30_3 C 0.5630(4) 0.6878(2) 0.0013(4)
C42_3 C 0.6977(3) 0.57580(17) 0.3870(3)
C43_3 C 0.7753(4) 0.49168(16) 0.1652(3)
C44_3 C 0.7333(4) 0.63066(17) 0.1236(4)
C45_3 C 0.7333(4) 0.59753(16) 0.1763(4)
C46_3 C 0.7535(4) 0.56140(17) 0.1485(4)
H25_3 H 0.7663 0.5584 0.0969
C47_3 C 0.7546(4) 0.53002(15) 0.1972(3)
C48_3 C 0.7358(4) 0.53443(15) 0.2726(3)
H26_3 H 0.7359 0.5133 0.3047
C49_3 C 0.7164(3) 0.56987(16) 0.3029(3)
C50_3 C 0.7164(4) 0.60098(15) 0.2539(3)
H27_3 H 0.7047 0.6249 0.2736
Zn3_2 Zn 0.30261(3) 0.413271(17) 0.32094(3)
Zn4 Zn 0.31468(4) 0.371339(17) 0.48725(4)
Zn5 Zn 0.36511(4) 0.463916(18) 0.47359(4)
O2_3 O 0.3664(2) 0.30758(13) 0.0052(2)
O3_2 O 0.7070(2) 0.36527(13) 0.0446(3)
O4_2 O 0.7023(2) 0.38997(13) 0.1622(2)
O5_3 O 0.4564(3) 0.4073(2) 0.2909(3)
O6_3 O 0.3506(2) 0.38612(12) 0.2374(2)
O7_3 O 0.3520(2) 0.31993(12) 0.4840(3)
O8_3 O 0.4581(3) 0.35119(14) 0.4931(4)
O17_3 O 0.4805(3) 0.45275(13) 0.4778(3)
O18_3 O 0.5932(2) 0.48216(12) 0.4936(3)
O19_3 O 0.35700(19) 0.41121(9) 0.4202(2)
C6_3 C 0.6727(3) 0.37421(16) 0.1060(3)
C7_3 C 0.4222(4) 0.39015(19) 0.2390(4)
C8_3 C 0.4749(3) 0.3361(2) 0.0595(4)
C9_3 C 0.5528(3) 0.34360(18) 0.0537(4)
H13_3 H 0.5805 0.3342 0.0122
C10_3 C 0.5900(3) 0.36518(17) 0.1100(3)
C11_3 C 0.5459(3) 0.37965(18) 0.1712(3)
H14_3 H 0.5695 0.3934 0.2101
C12_3 C 0.4676(3) 0.37353(19) 0.1738(4)
C13_3 C 0.4332(3) 0.35169(18) 0.1182(3)
H15_3 H 0.3807 0.3474 0.1205
C14_3 C 0.4241(4) 0.32117(18) 0.4898(4)
C15_3 C 0.6679(5) 0.2500 0.5351(5)
C16_3 C 0.4268(5) 0.2500 0.4877(5)
H16_3 H 0.3744 0.2500 0.4778
C17_3 C 0.4669(3) 0.28437(16) 0.4953(4)
C18_3 C 0.5451(3) 0.28370(16) 0.5076(4)
H17_3 H 0.5720 0.3065 0.5099
C19_3 C 0.5840(5) 0.2500 0.5165(6)
C29_3 C 0.5207(4) 0.48102(18) 0.4906(4)
Zn11_2 Zn 0.69739(3) 0.586729(17) 0.67906(3)
Zn12 Zn 0.19739(3) 0.586729(17) 0.82094(3)
Zn18_2 Zn 0.18532(4) 0.628661(17) 0.98725(4)
O23_3 O 0.6336(2) 0.69242(13) 0.9948(2)
O24_2 O 0.2930(2) 0.63473(13) 0.9554(3)
O25_2 O 0.7930(2) 0.63473(13) 0.5446(3)
O26_2 O 0.2070(2) 0.36527(13) 0.4554(3)
O27_2 O 0.2977(2) 0.61003(13) 0.8378(2)
O28_2 O 0.7977(2) 0.61003(13) 0.6622(2)
O29_2 O 0.2023(2) 0.38997(13) 0.3378(2)
O30_3 O 0.5436(3) 0.5927(2) 0.7091(3)
O31_3 O 0.6494(2) 0.61388(12) 0.7626(2)
O34_3 O 0.4581(3) 0.14881(14) 0.4931(4)
O35_2 O 0.6994(2) 0.28136(11) 0.5409(3)
O39 O 0.3075(3) 0.39131(11) 0.5912(2)
O42 O 0.3143(3) 0.45429(12) 0.5733(2)
O45_2 O 0.2870(3) 0.48966(12) 0.4057(2)
O46_2 O 0.7130(3) 0.51034(12) 0.5943(2)
O48_2 O 0.2790(3) 0.46468(11) 0.2887(2)
O49_2 O 0.7210(3) 0.53532(11) 0.7113(2)
O53_3 O 0.5195(3) 0.54725(13) 0.5222(3)
O54_3 O 0.4068(2) 0.51784(12) 0.5064(3)
O55_3 O 0.64300(19) 0.58879(9) 0.5798(2)
C31_3 C 0.3273(3) 0.62579(16) 0.8940(3)
C32_3 C 0.5778(4) 0.60985(19) 0.7610(4)
C33_3 C 0.5251(3) 0.6639(2) 0.9405(4)
C34_3 C 0.4472(3) 0.65640(18) 0.9463(4)
H21_3 H 0.4195 0.6658 0.9878
C35_3 C 0.4100(3) 0.63482(17) 0.8900(3)
C36_3 C 0.4541(3) 0.62035(18) 0.8288(3)
H22_3 H 0.4305 0.6066 0.7899
C37_3 C 0.5324(3) 0.62647(19) 0.8262(4)
C38_3 C 0.5668(3) 0.64831(18) 0.8818(3)
H23_3 H 0.6193 0.6526 0.8795
C39_3 C 0.4241(4) 0.17883(18) 0.4898(4)
C40_3 C 0.4669(3) 0.21563(16) 0.4953(4)
C41_3 C 0.5451(3) 0.21630(16) 0.5076(4)
H24_3 H 0.5720 0.1935 0.5099
C51_3 C 0.4793(4) 0.51898(18) 0.5094(4)
O1_3 O 0.4747(4) 0.2989(3) 0.9466(4)
O12_2 O 0.2130(3) 0.51034(12) 0.9057(2)
O13_2 O 0.2210(3) 0.53532(11) 0.7887(2)
O14_3 O 0.2459(4) 0.37238(13) 0.9441(3)
O15_3 O 0.2899(3) 0.33831(11) 0.8465(2)
O20_3 O 0.537(2) 0.2500 0.817(2)
C5_3 C 0.4370(4) 0.3122(2) 0.9987(4)
C20_3 C 0.3023(3) 0.42420(17) 0.6130(3)
C21_3 C 0.2247(4) 0.50832(16) 0.8348(3)
C22_3 C 0.2667(4) 0.36934(17) 0.8764(4)
C23_3 C 0.2667(4) 0.40247(16) 0.8237(4)
C24_3 C 0.2465(4) 0.43860(17) 0.8515(4)
H18_3 H 0.2337 0.4416 0.9031
C25_3 C 0.2454(4) 0.46998(15) 0.8028(3)
C26_3 C 0.2642(4) 0.46557(15) 0.7274(3)
H19_3 H 0.2641 0.4867 0.6953
C27_3 C 0.2836(3) 0.43013(16) 0.6971(3)
C28_3 C 0.2836(4) 0.39902(15) 0.7461(3)
H20_3 H 0.2953 0.3751 0.7264
Zn24_2 Zn 0.13489(4) 0.536084(18) 0.97359(4)
O39_2 O 0.1925(3) 0.60869(11) 0.0912(2)
O42_2 O 0.1857(3) 0.54571(12) 0.0733(2)
O54_4 O 0.0932(2) 0.48216(12) 0.0064(3)
C31_4 C 0.1727(3) 0.37421(16) 0.3940(3)
C34_4 C 0.0528(3) 0.34360(18) 0.4463(4)
H21_4 H 0.0805 0.3342 0.4878
C35_4 C 0.0900(3) 0.36518(17) 0.3900(3)
C36_4 C 0.0459(3) 0.37965(18) 0.3288(3)
H22_4 H 0.0695 0.3934 0.2899
C51_4 C 0.0207(4) 0.48102(18) 0.0094(4)
O1_4 O 0.0253(4) 0.7011(3) 0.4466(4)
O2_4 O 0.1336(2) 0.69242(13) 0.5052(2)
O5_4 O 0.0436(3) 0.5927(2) 0.7909(3)
O6_4 O 0.1494(2) 0.61388(12) 0.7374(2)
O7_4 O 0.1480(2) 0.68007(12) 0.9840(3)
O8_4 O 0.0419(3) 0.64881(14) 0.9931(4)
O14_4 O 0.2541(4) 0.62762(13) 0.4441(3)
O15_4 O 0.2101(3) 0.66169(11) 0.3465(2)
O17_4 O 0.0195(3) 0.54725(13) 0.9778(3)
O19_4 O 0.14300(19) 0.58879(9) 0.9202(2)
C5_4 C 0.0630(4) 0.6878(2) 0.4987(4)
C7_4 C 0.0778(4) 0.60985(19) 0.7390(4)
C8_4 C 0.0251(3) 0.6639(2) 0.5595(4)
C12_4 C 0.0324(3) 0.62647(19) 0.6738(4)
C13_4 C 0.0668(3) 0.64831(18) 0.6182(3)
H15_4 H 0.1193 0.6526 0.6205
C14_4 C 0.0759(4) 0.67883(18) 0.9898(4)
C16_4 C 0.0732(5) 0.7500 0.9877(5)
H16_4 H 0.1256 0.7500 0.9778
C17_4 C 0.0331(3) 0.71563(16) 0.9953(4)
C20_4 C 0.1977(3) 0.57580(17) 0.1130(3)
C21_4 C 0.2753(4) 0.49168(16) 0.3348(3)
C22_4 C 0.2333(4) 0.63066(17) 0.3764(4)
C23_4 C 0.2333(4) 0.59753(16) 0.3237(4)
C24_4 C 0.2535(4) 0.56140(17) 0.3515(4)
H18_4 H 0.2663 0.5584 0.4031
C25_4 C 0.2546(4) 0.53002(15) 0.3028(3)
C26_4 C 0.2358(4) 0.53443(15) 0.2274(3)
H19_4 H 0.2359 0.5133 0.1953
C27_4 C 0.2164(3) 0.56987(16) 0.1971(3)
C28_4 C 0.2164(4) 0.60098(15) 0.2461(3)
H20_4 H 0.2047 0.6249 0.2264
O34_4 O 0.0419(3) 0.85119(14) 0.9931(4)
C39_4 C 0.0759(4) 0.82117(18) 0.9898(4)
C40_4 C 0.0331(3) 0.78437(16) 0.9953(4)
C15_4 C 0.8321(5) 0.7500 0.0351(5)
C18_4 C 0.9549(3) 0.71630(16) 0.0076(4)
H17_4 H 0.9280 0.6935 0.0099
C19_4 C 0.9160(5) 0.7500 0.0165(6)
O23_4 O 0.8664(2) 0.30758(13) 0.4948(2)
O30_4 O 0.9564(3) 0.4073(2) 0.2091(3)
O31_4 O 0.8506(2) 0.38612(12) 0.2626(2)
O38_2 O 0.8075(3) 0.39131(11) 0.9088(2)
O41_2 O 0.8143(3) 0.45429(12) 0.9267(2)
O50_4 O 0.7459(4) 0.37238(13) 0.5559(3)
O51_4 O 0.7899(3) 0.33831(11) 0.6535(2)
O53_4 O 0.9805(3) 0.45275(13) 0.0222(3)
O55_4 O 0.85700(19) 0.41121(9) 0.0798(2)
C30_4 C 0.9370(4) 0.3122(2) 0.5013(4)
C32_4 C 0.9222(4) 0.39015(19) 0.2610(4)
C33_4 C 0.9749(3) 0.3361(2) 0.4405(4)
C37_4 C 0.9676(3) 0.37353(19) 0.3262(4)
C38_4 C 0.9332(3) 0.35169(18) 0.3818(3)
H23_4 H 0.8807 0.3474 0.3795
C41_4 C 0.9549(3) 0.78370(16) 0.0076(4)
H24_4 H 0.9280 0.8065 0.0099
C42_4 C 0.8023(3) 0.42420(17) 0.8870(3)
C43_4 C 0.7247(4) 0.50832(16) 0.6652(3)
C44_4 C 0.7667(4) 0.36934(17) 0.6236(4)
C45_4 C 0.7667(4) 0.40247(16) 0.6763(4)
C46_4 C 0.7465(4) 0.43860(17) 0.6485(4)
H25_4 H 0.7337 0.4416 0.5969
C47_4 C 0.7454(4) 0.46998(15) 0.6972(3)
C48_4 C 0.7642(4) 0.46557(15) 0.7726(3)
H26_4 H 0.7641 0.4867 0.8047
C49_4 C 0.7836(3) 0.43013(16) 0.8029(3)
C50_4 C 0.7836(4) 0.39902(15) 0.7539(3)
H27_4 H 0.7953 0.3751 0.7736
O18_4 O 0.9068(2) 0.51784(12) 0.9936(3)
O20_4 O 0.963(2) 0.7500 0.317(2)
C6_4 C 0.8273(3) 0.62579(16) 0.6060(3)
C9_4 C 0.9472(3) 0.65640(18) 0.5537(4)
H13_4 H 0.9195 0.6658 0.5122
C10_4 C 0.9100(3) 0.63482(17) 0.6100(3)
C11_4 C 0.9541(3) 0.62035(18) 0.6712(3)
H14_4 H 0.9305 0.6066 0.7101
C29_4 C 0.9793(4) 0.51898(18) 0.9906(4)
loop_
_geom_bond_atom_site_label_1
_geom_bond_atom_site_label_2
_geom_bond_site_symmetry_1
_geom_bond_site_symmetry_2
C1 H1 1_555 1_555
H2 C1 1_555 1_555
C2 C1 1_555 1_555
H3 C2 1_555 1_555
H4 C2 1_555 1_555
H5 C2 1_555 1_555
C3 H6 1_555 1_555
H7 C3 1_555 1_555
C4 C3 1_555 1_555
H8 C4 1_555 1_555
H9 C4 1_555 1_555
H10 C4 1_555 1_555
N1 C1 1_555 1_555
H11 N1 1_555 1_555
H12 N1 1_555 1_555
C3 N1 1_555 1_555
C1_2 H1_2 1_555 1_555
H2_2 C1_2 1_555 1_555
C2_2 C1_2 1_555 1_555
H3_2 C2_2 1_555 1_555
H4_2 C2_2 1_555 1_555
H5_2 C2_2 1_555 1_555
C3_2 H6_2 1_555 1_555
H7_2 C3_2 1_555 1_555
C4_2 C3_2 1_555 1_555
H8_2 C4_2 1_555 1_555
H9_2 C4_2 1_555 1_555
H10_2 C4_2 1_555 1_555
N1_2 C1_2 1_555 1_555
H11_2 N1_2 1_555 1_555
H12_2 N1_2 1_555 1_555
C3_2 N1_2 1_555 1_555
C1_3 H1_3 1_555 1_555
H2_3 C1_3 1_555 1_555
C2_3 C1_3 1_555 1_555
H3_3 C2_3 1_555 1_555
H4_3 C2_3 1_555 1_555
H5_3 C2_3 1_555 1_555
C3_3 H6_3 1_555 1_555
H7_3 C3_3 1_555 1_555
C4_3 C3_3 1_555 1_555
H8_3 C4_3 1_555 1_555
H9_3 C4_3 1_555 1_555
H10_3 C4_3 1_555 1_555
N1_3 C1_3 1_555 1_555
H11_3 N1_3 1_555 1_555
H12_3 N1_3 1_555 1_555
C3_3 N1_3 1_555 1_555
C1_4 H1_4 1_555 1_555
H2_4 C1_4 1_555 1_555
C2_4 C1_4 1_555 1_555
H3_4 C2_4 1_555 1_555
H4_4 C2_4 1_555 1_555
H5_4 C2_4 1_555 1_555
C3_4 H6_4 1_555 1_555
H7_4 C3_4 1_555 1_555
C4_4 C3_4 1_555 1_555
H8_4 C4_4 1_555 1_555
H9_4 C4_4 1_555 1_555
H10_4 C4_4 1_555 1_555
N1_4 C1_4 1_555 1_555
H11_4 N1_4 1_555 1_555
H12_4 N1_4 1_555 1_555
C3_4 N1_4 1_555 1_555
C1_5 H1_5 1_555 1_555
H2_5 C1_5 1_555 1_555
C2_5 C1_5 1_555 1_555
H3_5 C2_5 1_555 1_555
H4_5 C2_5 1_555 1_555
H5_5 C2_5 1_555 1_555
C3_5 H6_5 1_555 1_555
H7_5 C3_5 1_555 1_555
C4_5 C3_5 1_555 1_555
H8_5 C4_5 1_555 1_555
H9_5 C4_5 1_555 1_555
H10_5 C4_5 1_555 1_555
N1_5 C1_5 1_555 1_555
H11_5 N1_5 1_555 1_555
H12_5 N1_5 1_555 1_555
C3_5 N1_5 1_555 1_555
C1_6 H1_6 1_555 1_555
H2_6 C1_6 1_555 1_555
C2_6 C1_6 1_555 1_555
H3_6 C2_6 1_555 1_555
H4_6 C2_6 1_555 1_555
H5_6 C2_6 1_555 1_555
C3_6 H6_6 1_555 1_555
H7_6 C3_6 1_555 1_555
C4_6 C3_6 1_555 1_555
H8_6 C4_6 1_555 1_555
H9_6 C4_6 1_555 1_555
H10_6 C4_6 1_555 1_555
N1_6 C1_6 1_555 1_555
H11_6 N1_6 1_555 1_555
H12_6 N1_6 1_555 1_555
C3_6 N1_6 1_555 1_555
C1_7 H1_7 1_555 1_555
H2_7 C1_7 1_555 1_555
C2_7 C1_7 1_555 1_555
H3_7 C2_7 1_555 1_555
H4_7 C2_7 1_555 1_555
H5_7 C2_7 1_555 1_555
C3_7 H6_7 1_555 1_555
H7_7 C3_7 1_555 1_555
C4_7 C3_7 1_555 1_555
H8_7 C4_7 1_555 1_555
H9_7 C4_7 1_555 1_555
H10_7 C4_7 1_555 1_555
N1_7 C1_7 1_555 1_555
H11_7 N1_7 1_555 1_555
H12_7 N1_7 1_555 1_555
C3_7 N1_7 1_555 1_555
C1_8 H1_8 1_555 1_555
H2_8 C1_8 1_555 1_555
C2_8 C1_8 1_555 1_555
H3_8 C2_8 1_555 1_555
H4_8 C2_8 1_555 1_555
H5_8 C2_8 1_555 1_555
C3_8 H6_8 1_555 1_555
H7_8 C3_8 1_555 1_555
C4_8 C3_8 1_555 1_555
H8_8 C4_8 1_555 1_555
H9_8 C4_8 1_555 1_555
H10_8 C4_8 1_555 1_555
N1_8 C1_8 1_555 1_555
H11_8 N1_8 1_555 1_555
H12_8 N1_8 1_555 1_555
C3_8 N1_8 1_555 1_555
O3 C6 1_555 1_555
O4 C6 1_555 1_555
O18 C29 1_555 1_555
C6 C10 1_555 1_555
C9 H13 1_555 1_555
C10 C9 1_555 1_555
C11 C10 1_555 1_555
H14 C11 1_555 1_555
Zn15 O4 1_555 1_555
Zn20 O3 1_555 1_555
O9 C15 1_555 1_555
C15 C19 1_555 1_555
H17 C18 1_555 1_555
C19 C18 1_555 1_555
Zn8 O9 1_555 1_555
Zn9 O35 1_555 1_555
Zn15 O47 1_555 1_555
Zn26 O44 1_555 1_555
O35 C15 1_555 1_555
O44 C43 1_555 1_555
O47 C43 1_555 1_555
C41 C19 1_555 1_555
H24 C41 1_555 1_555
Zn6 O21 1_555 1_555
Zn7 O23 1_555 1_555
Zn11 O28 1_555 1_555
Zn16 O25 1_555 1_555
O21 C30 1_555 1_555
O23 C30 1_555 1_555
O30 C32 1_555 1_555
O31 Zn11 1_555 1_555
O33 Zn16 1_555 1_555
O37 Zn7 1_555 1_555
O40 C42 1_555 1_555
O43 C42 1_555 1_555
O46 Zn22 1_555 1_555
O49 Zn11 1_555 1_555
O50 C44 1_555 1_555
O51 Zn7 1_555 1_555
O52 Zn6 1_555 1_555
O53 Zn22 1_555 1_555
O55 Zn11 1_555 1_555
C30 C33 1_555 1_555
C32 O31 1_555 1_555
C37 C32 1_555 1_555
C38 C33 1_555 1_555
H23 C38 1_555 1_555
C42 C49 1_555 1_555
C44 O51 1_555 1_555
C45 C44 1_555 1_555
C46 C45 1_555 1_555
H25 C46 1_555 1_555
C47 C46 1_555 1_555
C48 C47 1_555 1_555
H26 C48 1_555 1_555
C49 C48 1_555 1_555
C50 C45 1_555 1_555
H27 C50 1_555 1_555
Zn7 O52 1_555 1_555
Zn16 O55 1_555 1_555
Zn22 O55 1_555 1_555
C37 C38 1_555 1_555
C49 C50 1_555 1_555
Zn1 O1 1_555 1_555
Zn2 O2 1_555 1_555
Zn3 O6 1_555 1_555
Zn17 O7 1_555 1_555
Zn23 O17 1_555 1_555
O1 C5 1_555 1_555
O2 C5 1_555 1_555
O5 C7 1_555 1_555
O6 C7 1_555 1_555
O7 C14 1_555 1_555
O8 C14 1_555 1_555
O10 C20 1_555 1_555
O11 C20 1_555 1_555
O14 C22 1_555 1_555
O15 Zn2 1_555 1_555
O16 Zn1 1_555 1_555
O19 Zn3 1_555 1_555
C5 C8 1_555 1_555
C7 C12 1_555 1_555
C13 C8 1_555 1_555
H15 C13 1_555 1_555
C14 C17 1_555 1_555
C16 H16 1_555 1_555
C17 C16 1_555 1_555
C20 C27 1_555 1_555
C22 O15 1_555 1_555
C23 C22 1_555 1_555
C24 C23 1_555 1_555
H18 C24 1_555 1_555
C25 C24 1_555 1_555
C26 C25 1_555 1_555
H19 C26 1_555 1_555
C27 C26 1_555 1_555
C28 C23 1_555 1_555
H20 C28 1_555 1_555
Zn10 O16 1_555 1_555
Zn21 O32 1_555 1_555
O22 Zn1 1_555 1_555
O26 Zn17 1_555 1_555
O29 Zn3 1_555 1_555
O32 C39 1_555 1_555
O34 C39 1_555 1_555
O36 Zn2 1_555 1_555
O45 Zn23 1_555 1_555
O48 Zn3 1_555 1_555
C39 C40 1_555 1_555
C40 C16 1_555 1_555
Zn2 O16 1_555 1_555
Zn17 O19 1_555 1_555
Zn23 O19 1_555 1_555
C12 C13 1_555 1_555
C27 C28 1_555 1_555
O12 C21 1_555 1_555
O13 C21 1_555 1_555
Zn13 O13 1_555 1_555
Zn24 O12 1_555 1_555
Zn13 O27 1_555 1_555
Zn18 O24 1_555 1_555
O24 C31 1_555 1_555
O27 C31 1_555 1_555
C31 C35 1_555 1_555
C34 H21 1_555 1_555
C35 C34 1_555 1_555
C36 C35 1_555 1_555
H22 C36 1_555 1_555
O54 C51 1_555 1_555
O45 C21_2 1_555 1_555
O48 C21_2 1_555 1_555
O26 C31_2 1_555 1_555
O29 C31_2 1_555 1_555
O30_2 C32_2 1_555 1_555
O31_2 Zn15 1_555 1_555
O33_2 Zn20 1_555 1_555
O40_2 Zn20 1_555 1_555
O43_2 Zn26 1_555 1_555
O53_2 Zn26 1_555 1_555
O55_2 Zn15 1_555 1_555
C31_2 C35_2 1_555 1_555
C32_2 O31_2 1_555 1_555
C33_2 C34_2 1_555 1_555
C34_2 H21_2 1_555 1_555
C35_2 C34_2 1_555 1_555
C36_2 C35_2 1_555 1_555
H22_2 C36_2 1_555 1_555
C37_2 C32_2 1_555 1_555
C38_2 C33_2 1_555 1_555
H23_2 C38_2 1_555 1_555
C51_2 O53_2 1_555 1_555
Zn20 O55_2 1_555 1_555
Zn26 O55_2 1_555 1_555
O54_2 C51_2 1_555 1_555
C36_2 C37_2 1_555 1_555
C37_2 C38_2 1_555 1_555
Zn6_2 O21_2 1_555 1_555
O21_2 C30_2 1_555 1_555
O40_2 C42_2 1_555 1_555
O43_2 C42_2 1_555 1_555
O50_2 C44_2 1_555 1_555
O51_2 Zn9 1_555 1_555
O52_2 Zn6_2 1_555 1_555
C42_2 C49_2 1_555 1_555
C44_2 O51_2 1_555 1_555
C45_2 C44_2 1_555 1_555
C46_2 C45_2 1_555 1_555
H25_2 C46_2 1_555 1_555
C47_2 C46_2 1_555 1_555
C48_2 C47_2 1_555 1_555
H26_2 C48_2 1_555 1_555
C49_2 C48_2 1_555 1_555
C50_2 C45_2 1_555 1_555
H27_2 C50_2 1_555 1_555
Zn9 O52_2 1_555 1_555
C49_2 C50_2 1_555 1_555
Zn1_2 O1_2 1_555 1_555
O1_2 C5_2 1_555 1_555
O10_2 C20_2 1_555 1_555
O11_2 C20_2 1_555 1_555
O14_2 C22_2 1_555 1_555
O15_2 Zn2_2 1_555 1_555
O16_2 Zn1_2 1_555 1_555
O20_2 Zn1_2 1_555 1_555
C20_2 C27_2 1_555 1_555
C22_2 O15_2 1_555 1_555
C23_2 C22_2 1_555 1_555
C24_2 C23_2 1_555 1_555
H18_2 C24_2 1_555 1_555
C25_2 C24_2 1_555 1_555
C26_2 C25_2 1_555 1_555
H19_2 C26_2 1_555 1_555
C27_2 C26_2 1_555 1_555
C28_2 C23_2 1_555 1_555
H20_2 C28_2 1_555 1_555
Zn10_2 O16_2 1_555 1_555
Zn18 O10_2 1_555 1_555
Zn24 O11_2 1_555 1_555
O22_2 Zn1_2 1_555 1_555
O36_2 Zn2_2 1_555 1_555
Zn2_2 O16_2 1_555 1_555
C27_2 C28_2 1_555 1_555
Zn13 O6_2 1_555 1_555
Zn18 O7_2 1_555 1_555
Zn24 O17_2 1_555 1_555
O25 C6_2 1_555 1_555
O28 C6_2 1_555 1_555
O5_2 C7_2 1_555 1_555
O6_2 C7_2 1_555 1_555
O7_2 C14_2 1_555 1_555
O8_2 C14_2 1_555 1_555
O9_2 C15_2 1_555 1_555
O17_2 C29_2 1_555 1_555
O18_2 C29_2 1_555 1_555
O19_2 Zn13 1_555 1_555
C6_2 C10_2 1_555 1_555
C7_2 C12_2 1_555 1_555
C8_2 C9_2 1_555 1_555
C9_2 H13_2 1_555 1_555
C10_2 C9_2 1_555 1_555
C11_2 C10_2 1_555 1_555
H14_2 C11_2 1_555 1_555
C12_2 C11_2 1_555 1_555
C13_2 C8_2 1_555 1_555
H15_2 C13_2 1_555 1_555
C14_2 C17_2 1_555 1_555
C15_2 C19_2 1_555 1_555
C16_2 H16_2 1_555 1_555
C17_2 C16_2 1_555 1_555
C18_2 C17_2 1_555 1_555
H17_2 C18_2 1_555 1_555
C19_2 C18_2 1_555 1_555
Zn8_2 O9_2 1_555 1_555
Zn21_2 O32_2 1_555 1_555
O32_2 C39_2 1_555 1_555
O34_2 C39_2 1_555 1_555
O37 C15_2 1_555 1_555
C39_2 C40_2 1_555 1_555
C40_2 C16_2 1_555 1_555
C41_2 C19_2 1_555 1_555
H24_2 C41_2 1_555 1_555
Zn18 O19_2 1_555 1_555
Zn24 O19_2 1_555 1_555
C12_2 C13_2 1_555 1_555
C40_2 C41_2 1_555 1_555
O46 C43_2 1_555 1_555
O49 C43_2 1_555 1_555
Zn14 O47_2 1_555 1_555
Zn21_2 O38 1_555 1_555
Zn25 O41 1_555 1_555
Zn26_2 O44_2 1_555 1_555
O22_2 C30_3 1_555 1_555
O37_2 Zn10_2 1_555 1_555
O38 C42_3 1_555 1_555
O41 C42_3 1_555 1_555
O44_2 C43_3 1_555 1_555
O47_2 C43_3 1_555 1_555
O50_3 C44_3 1_555 1_555
O51_3 Zn10_2 1_555 1_555
C42_3 C49_3 1_555 1_555
C43_3 C47_3 1_555 1_555
C44_3 O51_3 1_555 1_555
C45_3 C44_3 1_555 1_555
C46_3 C45_3 1_555 1_555
H25_3 C46_3 1_555 1_555
C47_3 C46_3 1_555 1_555
C48_3 C47_3 1_555 1_555
H26_3 C48_3 1_555 1_555
C49_3 C48_3 1_555 1_555
C50_3 C45_3 1_555 1_555
H27_3 C50_3 1_555 1_555
C49_3 C50_3 1_555 1_555
Zn3_2 O6_3 1_555 1_555
Zn4 O7_3 1_555 1_555
Zn5 O17_3 1_555 1_555
O3_2 C6_3 1_555 1_555
O4_2 C6_3 1_555 1_555
O5_3 C7_3 1_555 1_555
O6_3 C7_3 1_555 1_555
O7_3 C14_3 1_555 1_555
O8_3 C14_3 1_555 1_555
O36 C15_3 1_555 1_555
O17_3 C29_3 1_555 1_555
O18_3 C29_3 1_555 1_555
O19_3 Zn3_2 1_555 1_555
C6_3 C10_3 1_555 1_555
C7_3 C12_3 1_555 1_555
C8_3 C9_3 1_555 1_555
C9_3 H13_3 1_555 1_555
C10_3 C9_3 1_555 1_555
C11_3 C10_3 1_555 1_555
H14_3 C11_3 1_555 1_555
C12_3 C11_3 1_555 1_555
C13_3 C8_3 1_555 1_555
H15_3 C13_3 1_555 1_555
C14_3 C17_3 1_555 1_555
C15_3 C19_3 1_555 1_555
C16_3 H16_3 1_555 1_555
C17_3 C16_3 1_555 1_555
C18_3 C17_3 1_555 1_555
H17_3 C18_3 1_555 1_555
C19_3 C18_3 1_555 1_555
C29_3 C51_3 1_555 1_555
Zn10 O35_2 1_555 1_555
Zn11_2 O28_2 1_555 1_555
Zn12 O27_2 1_555 1_555
Zn14 O4_2 1_555 1_555
Zn21_2 O25_2 1_555 1_555
Zn18_2 O24_2 1_555 1_555
Zn21 O3_2 1_555 1_555
Zn25 O18_3 1_555 1_555
O24_2 C31_3 1_555 1_555
O26_2 Zn4 1_555 1_555
O27_2 C31_3 1_555 1_555
O29_2 Zn3_2 1_555 1_555
O30_3 C32_3 1_555 1_555
O31_3 Zn11_2 1_555 1_555
O33_2 C39_3 1_555 1_555
O34_3 C39_3 1_555 1_555
O35_2 C15_3 1_555 1_555
O39 Zn4 1_555 1_555
O42 Zn5 1_555 1_555
O45_2 Zn5 1_555 1_555
O46_2 Zn25 1_555 1_555
O48_2 Zn3_2 1_555 1_555
O49_2 Zn11_2 1_555 1_555
O53_3 Zn25 1_555 1_555
O54_3 Zn5 1_555 1_555
O55_3 Zn11_2 1_555 1_555
C31_3 C35_3 1_555 1_555
C32_3 O31_3 1_555 1_555
C33_3 C34_3 1_555 1_555
C34_3 H21_3 1_555 1_555
C35_3 C34_3 1_555 1_555
C36_3 C35_3 1_555 1_555
H22_3 C36_3 1_555 1_555
C37_3 C32_3 1_555 1_555
C38_3 C33_3 1_555 1_555
H23_3 C38_3 1_555 1_555
C39_3 C40_3 1_555 1_555
C40_3 C16_3 1_555 1_555
C41_3 C19_3 1_555 1_555
H24_3 C41_3 1_555 1_555
C51_3 O53_3 1_555 1_555
Zn4 O19_3 1_555 1_555
Zn5 O19_3 1_555 1_555
C12_3 C13_3 1_555 1_555
Zn21_2 O55_3 1_555 1_555
Zn25 O55_3 1_555 1_555
O54_3 C51_3 1_555 1_555
C36_3 C37_3 1_555 1_555
C37_3 C38_3 1_555 1_555
C40_3 C41_3 1_555 1_555
Zn6_2 O1_3 1_555 1_555
O1_3 C5_3 1_555 1_555
O39 C20_3 1_555 1_555
O42 C20_3 1_555 1_555
O12_2 C21_3 1_555 1_555
O13_2 C21_3 1_555 1_555
O14_3 C22_3 1_555 1_555
O15_3 Zn8 1_555 1_555
O20_3 Zn6_2 1_555 1_555
C20_3 C27_3 1_555 1_555
C21_3 C25_3 1_555 1_555
C22_3 O15_3 1_555 1_555
C23_3 C22_3 1_555 1_555
C24_3 C23_3 1_555 1_555
H18_3 C24_3 1_555 1_555
C25_3 C24_3 1_555 1_555
C26_3 C25_3 1_555 1_555
H19_3 C26_3 1_555 1_555
C27_3 C26_3 1_555 1_555
C28_3 C23_3 1_555 1_555
H20_3 C28_3 1_555 1_555
Zn12 O13_2 1_555 1_555
Zn24_2 O12_2 1_555 1_555
Zn8 O52_2 1_555 1_555
C27_3 C28_3 1_555 1_555
O26_2 C31_4 1_555 1_555
O29_2 C31_4 1_555 1_555
C31_4 C35_4 1_555 1_555
C34_4 H21_4 1_555 1_555
C35_4 C34_4 1_555 1_555
C36_4 C35_4 1_555 1_555
H22_4 C36_4 1_555 1_555
O54_4 C51_4 1_555 1_555
Zn6 O1_4 1_555 1_555
Zn8_2 O2_4 1_555 1_555
Zn12 O6_4 1_555 1_555
Zn18_2 O7_4 1_555 1_555
Zn24_2 O17_4 1_555 1_555
O1_4 C5_4 1_555 1_555
O2_4 C5_4 1_555 1_555
O5_4 C7_4 1_555 1_555
O6_4 C7_4 1_555 1_555
O7_4 C14_4 1_555 1_555
O8_4 C14_4 1_555 1_555
O39_2 C20_4 1_555 1_555
O42_2 C20_4 1_555 1_555
O45_2 C21_4 1_555 1_555
O48_2 C21_4 1_555 1_555
O14_4 C22_4 1_555 1_555
O15_4 Zn8_2 1_555 1_555
O19_4 Zn12 1_555 1_555
C5_4 C8_4 1_555 1_555
C7_4 C12_4 1_555 1_555
C13_4 C8_4 1_555 1_555
H15_4 C13_4 1_555 1_555
C14_4 C17_4 1_555 1_555
C16_4 H16_4 1_555 1_555
C17_4 C16_4 1_555 1_555
C20_4 C27_4 1_555 1_555
C21_4 C25_4 1_555 1_555
C22_4 O15_4 1_555 1_555
C23_4 C22_4 1_555 1_555
C24_4 C23_4 1_555 1_555
H18_4 C24_4 1_555 1_555
C25_4 C24_4 1_555 1_555
C26_4 C25_4 1_555 1_555
H19_4 C26_4 1_555 1_555
C27_4 C26_4 1_555 1_555
C28_4 C23_4 1_555 1_555
H20_4 C28_4 1_555 1_555
O33 C39_4 1_555 1_555
O34_4 C39_4 1_555 1_555
C39_4 C40_4 1_555 1_555
C40_4 C16_4 1_555 1_555
Zn8_2 O52 1_555 1_555
Zn18_2 O19_4 1_555 1_555
Zn24_2 O19_4 1_555 1_555
C12_4 C13_4 1_555 1_555
C27_4 C28_4 1_555 1_555
O36_2 C15_4 1_555 1_555
C15_4 C19_4 1_555 1_555
H17_4 C18_4 1_555 1_555
C19_4 C18_4 1_555 1_555
Zn10 O23_4 1_555 1_555
O22 C30_4 1_555 1_555
O23_4 C30_4 1_555 1_555
O30_4 C32_4 1_555 1_555
O31_4 Zn14 1_555 1_555
O37_2 C15_4 1_555 1_555
O38_2 C42_4 1_555 1_555
O41_2 C42_4 1_555 1_555
O46_2 C43_4 1_555 1_555
O49_2 C43_4 1_555 1_555
O50_4 C44_4 1_555 1_555
O51_4 Zn10 1_555 1_555
O53_4 Zn26_2 1_555 1_555
O55_4 Zn14 1_555 1_555
C30_4 C33_4 1_555 1_555
C32_4 O31_4 1_555 1_555
C37_4 C32_4 1_555 1_555
C38_4 C33_4 1_555 1_555
H23_4 C38_4 1_555 1_555
C41_4 C19_4 1_555 1_555
H24_4 C41_4 1_555 1_555
C42_4 C49_4 1_555 1_555
C43_4 C47_4 1_555 1_555
C44_4 O51_4 1_555 1_555
C45_4 C44_4 1_555 1_555
C46_4 C45_4 1_555 1_555
H25_4 C46_4 1_555 1_555
C47_4 C46_4 1_555 1_555
C48_4 C47_4 1_555 1_555
H26_4 C48_4 1_555 1_555
C49_4 C48_4 1_555 1_555
C50_4 C45_4 1_555 1_555
H27_4 C50_4 1_555 1_555
Zn21 O55_4 1_555 1_555
Zn26_2 O55_4 1_555 1_555
C37_4 C38_4 1_555 1_555
C49_4 C50_4 1_555 1_555
O25_2 C6_4 1_555 1_555
O28_2 C6_4 1_555 1_555
O18_4 C29_4 1_555 1_555
C6_4 C10_4 1_555 1_555
C9_4 H13_4 1_555 1_555
C10_4 C9_4 1_555 1_555
C11_4 C10_4 1_555 1_555
H14_4 C11_4 1_555 1_555

#END
