
###############################################################################
#
# This file contains modified crystal structure data generated from the
# MOF subset of the Cambridge Structural Database (CSD) v543 
# hosted by the Cambridge Crystallographic Data Centre (CCDC).
#
# This work is licensed under the Creative Commons
# Attribution-NonCommercial-ShareAlike 4.0 International License.
# To view a copy of this license, visit
# http://creativecommons.org/licenses/by-nc-sa/4.0/
# or send a letter to
# Creative Commons, PO Box 1866, Mountain View, CA 94042, USA.
#
# CIF created using the CSD Python API on 29 September 2022
# The structure has been converted into the P1 space group
# The structure has a 3D framework
# The original CSD entry VEHKEA is in the rhombohedral crystal system
# The framework has been calculated to contain at least 10.0% void space
# The void calculation uses a probe of radius 1.32A, grid spacing 0.4
# The framework is charged, counterions have been retained in the structure
#
###############################################################################

data_VEHKEA
_chemical_formula_moiety         '(C498 H166 O318 Zn52 66-)n'
_symmetry_cell_setting           triclinic
_symmetry_space_group_name_H-M   'P 1'
_symmetry_Int_Tables_number      1
_space_group_name_Hall           'P 1'
loop_
_symmetry_equiv_pos_site_id
_symmetry_equiv_pos_as_xyz
1 x,y,z
_cell_length_a                   43.648(5)
_cell_length_b                   43.648(5)
_cell_length_c                   17.371(5)
_cell_angle_alpha                90
_cell_angle_beta                 90
_cell_angle_gamma                120
_cell_volume                     28660.5
loop_
_atom_site_label
_atom_site_type_symbol
_atom_site_fract_x
_atom_site_fract_y
_atom_site_fract_z
Zn1 Zn 0.844073(16) 0.018014(16) 0.15992(3)
C15 C 0.6814 0.0000(2) 0.2500
H5 H 0.6601 0.0000 0.2500
O3 O 0.79763(16) 0.01090(13) 0.1912(3)
Zn10 Zn 0.66666(2) 0.0759 0.0833
C18 C 0.74023(25) 0.02169(17) 0.1997(4)
H7 H 0.7579 0.0357 0.1651
C21 C 0.70872(26) 0.02268(18) 0.2007(4)
C26 C 0.7042(3) 0.0472(2) 0.1479(5)
O10 O 0.7237(3) 0.0593(2) 0.0921(5)
O11 O 0.68121(20) 0.05497(14) 0.1657(3)
O17 O 0.84323(14) 0.03320(19) 0.0559(3)
O22 O 0.86811(17) 0.02825(13) 0.3455(3)
O24 O 0.87644(17) 0.05337(13) 0.2306(2)
Zn2 Zn 0.59076(2) 0.9241 0.4167
C1 C 0.53481(15) 0.78678(18) 0.4582(3)
H1 H 0.5396 0.7851 0.4067
C2 C 0.51637(15) 0.75625(17) 0.5022(3)
C3 C 0.71854(18) 0.97831(17) 0.3003(4)
H2 H 0.7222 0.9643 0.3349
C4 C 0.56588(18) 0.8525(2) 0.4429(4)
C5 C 0.51867(18) 0.79197(19) 0.6100(3)
C6 C 0.68604(19) 0.97732(18) 0.2993(4)
C7 C 0.50793(17) 0.75888(19) 0.5782(3)
H3 H 0.4951 0.7386 0.6077
C8 C 0.53802(17) 0.82168(19) 0.5667(4)
H4 H 0.5459 0.8438 0.5890
C9 C 0.54615(16) 0.81972(18) 0.4905(4)
C10 C 0.7792 0.99997(19) 0.2500
C11 C 0.7451 0.99997(19) 0.2500
C12 C 0.50599(16) 0.72116(16) 0.4680(3)
C13 C 0.6570(2) 0.9528(2) 0.3521(5)
C14 C 0.5083(2) 0.7944(2) 0.6918(4)
C15_2 C 0.6814 1.0000(2) 0.2500
H5_2 H 0.6601 1.0000 0.2500
O1 O 0.6644(2) 0.9407(2) 0.4079(5)
O2 O 0.62624(14) 0.94503(14) 0.3343(3)
O4 O 0.57815(11) 0.88173(14) 0.4775(3)
O5 O 0.56890(15) 0.8499(2) 0.3732(4)
O6 O 0.52331(13) 0.82344(14) 0.7226(3)
O7 O 0.4857(2) 0.7689(3) 0.7255(4)
O8 O 0.49348(11) 0.69492(13) 0.5122(3)
O9 O 0.51027(11) 0.72004(13) 0.3973(2)
Zn3 Zn 0.826059(23) 0.981986(16) 0.34008(3)
Zn4 Zn 0.507274(23) 0.822594(16) 0.82659(3)
Zn5 Zn 0.489260(16) 0.648653(16) 0.50675(3)
Zn6 Zn 0.507274(23) 0.684681(16) 0.32659(3)
Zn7 Zn 0.489260(16) 0.840608(23) 0.00675(3)
Zn8 Zn 0.315319(16) 0.822594(16) 0.32659(3)
Zn9 Zn 0.351347(16) 0.840608(23) 0.50675(3)
C16 C 0.45345(18) 0.86814(15) 0.3751(3)
H6 H 0.4518 0.8729 0.4266
C17 C 0.42292(17) 0.84970(15) 0.3311(3)
C19 C 0.5192(2) 0.89921(18) 0.3904(4)
C20 C 0.45864(19) 0.85200(18) 0.2233(3)
C22 C 0.42555(19) 0.84126(17) 0.2551(3)
H8 H 0.4053 0.8284 0.2256
C23 C 0.48835(19) 0.87135(17) 0.2666(4)
H9 H 0.5105 0.8792 0.2443
C24 C 0.48639(18) 0.87948(16) 0.3428(4)
C25 C 0.38783(16) 0.83932(16) 0.3653(3)
C27 C 0.4611(2) 0.8416(2) 0.1415(4)
O12 O 0.61170(14) 0.95957(14) 0.4990(3)
O13 O 0.78673(21) 0.98910(13) 0.3088(3)
O14 O 0.54840(14) 0.91148(11) 0.3558(3)
O15 O 0.5166(2) 0.90223(15) 0.4601(4)
O16 O 0.49011(14) 0.85664(13) 0.1107(3)
O18 O 0.81002(13) 0.96680(19) 0.4441(3)
O19 O 0.4356(3) 0.8190(2) 0.1078(4)
O20 O 0.36159(13) 0.82681(11) 0.3211(3)
O21 O 0.83985(11) 0.97175(13) 0.1545(3)
O23 O 0.38671(13) 0.84360(11) 0.4360(2)
O25 O 0.82306(11) 0.94663(13) 0.2694(2)
Zn2_2 Zn 0.0759 0.66666(2) 0.4167
C1_2 C 0.21322(18) 0.74803(23) 0.4582(3)
H1_2 H 0.2149 0.7545 0.4067
C2_2 C 0.24375(17) 0.76012(23) 0.5022(3)
C3_2 C 0.02169(17) 0.74023(25) 0.3003(4)
H2_2 H 0.0357 0.7579 0.3349
C4_2 C 0.1475(2) 0.71338(27) 0.4429(4)
C5_2 C 0.20803(19) 0.72670(26) 0.6100(3)
C6_2 C 0.02268(18) 0.70872(26) 0.2993(4)
C7_2 C 0.24112(19) 0.74905(25) 0.5782(3)
H3_2 H 0.2614 0.7565 0.6077
C8_2 C 0.17832(19) 0.71634(25) 0.5667(4)
H4_2 H 0.1562 0.7021 0.5890
C9_2 C 0.18028(18) 0.72643(24) 0.4905(4)
C10_2 C 0.00003(19) 0.77923(19) 0.2500
C11_2 C 0.00003(19) 0.74513(19) 0.2500
C12_2 C 0.27884(16) 0.78483(23) 0.4680(3)
C13_2 C 0.0472(2) 0.7042(3) 0.3521(5)
C14_2 C 0.2056(2) 0.7139(3) 0.6918(4)
C15_3 C -0.0000(2) 0.6814(2) 0.2500
H5_3 H 0.0000 0.6601 0.2500
O1_2 O 0.0593(2) 0.7237(3) 0.4079(5)
O2_2 O 0.05497(14) 0.68121(20) 0.3343(3)
O4_2 O 0.11827(14) 0.69642(18) 0.4775(3)
O5_2 O 0.1501(2) 0.71900(25) 0.3732(4)
O6_2 O 0.17656(14) 0.69987(19) 0.7226(3)
O7_2 O 0.2311(3) 0.7168(4) 0.7255(4)
O8_2 O 0.30508(13) 0.79856(17) 0.5122(3)
O9_2 O 0.27996(13) 0.79023(17) 0.3973(2)
Zn3_2 Zn 0.018014(16) 0.844073(28) 0.34008(3)
Zn4_2 Zn 0.177406(16) 0.684681(28) 0.82659(3)
Zn7_2 Zn 0.159392(23) 0.648653(28) 0.00675(3)
Zn8_2 Zn 0.177406(16) 0.492726(23) 0.32659(3)
Zn9_2 Zn 0.159392(23) 0.510740(28) 0.50675(3)
C16_2 C 0.13186(15) 0.58530(23) 0.3751(3)
H6_2 H 0.1271 0.5788 0.4266
C17_2 C 0.15030(15) 0.57321(23) 0.3311(3)
C19_2 C 0.10079(18) 0.61995(27) 0.3904(4)
C20_2 C 0.14800(18) 0.60663(26) 0.2233(3)
C22_2 C 0.15874(17) 0.58428(25) 0.2551(3)
H8_2 H 0.1716 0.5768 0.2256
C23_2 C 0.12865(17) 0.61699(25) 0.2666(4)
H9_2 H 0.1208 0.6312 0.2443
C24_2 C 0.12052(16) 0.60690(24) 0.3428(4)
C25_2 C 0.16068(16) 0.54850(23) 0.3653(3)
C27_2 C 0.1584(2) 0.6194(3) 0.1415(4)
O12_2 O 0.04043(14) 0.65212(20) 0.4990(3)
O13_2 O 0.01090(13) 0.79763(25) 0.3088(3)
O14_2 O 0.08852(11) 0.63691(18) 0.3558(3)
O15_2 O 0.09777(15) 0.61433(25) 0.4601(4)
O16_2 O 0.14336(13) 0.63346(19) 0.1107(3)
O18_2 O 0.03320(19) 0.84323(23) 0.4441(3)
O19_2 O 0.1810(2) 0.6165(4) 0.1078(4)
O20_2 O 0.17319(11) 0.53477(17) 0.3211(3)
O21_2 O 0.02825(13) 0.86811(17) 0.1545(3)
O23_2 O 0.15640(11) 0.54310(17) 0.4360(2)
O25_2 O 0.05337(13) 0.87644(17) 0.2694(2)
Zn1_2 Zn 0.981986(16) 0.826059(23) 0.15992(3)
C15_4 C 1.0000(2) 0.6814(2) 0.2500
H5_4 H 1.0000 0.6601 0.2500
O3_2 O 0.98910(13) 0.78673(21) 0.1912(3)
Zn10_2 Zn 0.9241 0.59076(2) 0.0833
C18_2 C 0.97831(17) 0.71854(30) 0.1997(4)
H7_2 H 0.9643 0.7222 0.1651
C21_2 C 0.97732(18) 0.68604(32) 0.2007(4)
C26_2 C 0.9528(2) 0.6570(4) 0.1479(5)
O10_2 O 0.9407(2) 0.6644(4) 0.0921(5)
O11_2 O 0.94503(14) 0.62624(24) 0.1657(3)
O17_2 O 0.96680(19) 0.81002(24) 0.0559(3)
O22_2 O 0.97175(13) 0.83985(21) 0.3455(3)
O24_2 O 0.94663(13) 0.82306(21) 0.2306(2)
Zn1_3 Zn 0.173941(23) 0.155927(16) 0.15992(3)
Zn2_3 Zn 0.33334(2) 0.40924(2) 0.4167
C1_3 C 0.25197(23) 0.46519(15) 0.4582(3)
H1_3 H 0.2455 0.4604 0.4067
C2_3 C 0.23988(23) 0.48363(15) 0.5022(3)
C3_3 C 0.25977(25) 0.28146(18) 0.3003(4)
H2_3 H 0.2421 0.2778 0.3349
C4_3 C 0.28662(27) 0.43412(18) 0.4429(4)
C5_3 C 0.27330(26) 0.48133(18) 0.6100(3)
C6_3 C 0.29128(26) 0.31396(19) 0.2993(4)
C7_3 C 0.25095(25) 0.49207(17) 0.5782(3)
H3_3 H 0.2435 0.5049 0.6077
C8_3 C 0.28366(25) 0.46198(17) 0.5667(4)
H4_3 H 0.2979 0.4541 0.5890
C9_3 C 0.27357(24) 0.45385(16) 0.4905(4)
C10_3 C 0.22077(19) 0.2208 0.2500
C11_3 C 0.25487(19) 0.2549 0.2500
C12_3 C 0.21517(23) 0.49401(16) 0.4680(3)
C13_3 C 0.2958(3) 0.3430(2) 0.3521(5)
C14_3 C 0.2861(3) 0.4917(2) 0.6918(4)
C15_5 C 0.3186(2) 0.3186 0.2500
H5_5 H 0.3399 0.3399 0.2500
O1_3 O 0.2763(3) 0.3356(2) 0.4079(5)
O2_3 O 0.31879(20) 0.37376(14) 0.3343(3)
O3_3 O 0.21327(21) 0.20237(16) 0.1912(3)
O4_3 O 0.30358(18) 0.42185(11) 0.4775(3)
O5_3 O 0.28100(25) 0.43110(15) 0.3732(4)
O6_3 O 0.30013(19) 0.47669(13) 0.7226(3)
O7_3 O 0.2832(4) 0.5143(2) 0.7255(4)
O8_3 O 0.20144(17) 0.50652(11) 0.5122(3)
O9_3 O 0.20977(17) 0.48973(11) 0.3973(2)
Zn3_3 Zn 0.155927(28) 0.173941(23) 0.34008(3)
Zn4_3 Zn 0.315319(28) 0.492726(23) 0.82659(3)
Zn7_3 Zn 0.351347(28) 0.510740(16) 0.00675(3)
Zn10_3 Zn 0.40924(2) 0.33334(2) 0.0833
C16_3 C 0.41470(23) 0.54655(18) 0.3751(3)
H6_3 H 0.4212 0.5482 0.4266
C17_3 C 0.42679(23) 0.57708(17) 0.3311(3)
C18_3 C 0.28146(30) 0.25977(25) 0.1997(4)
H7_3 H 0.2778 0.2421 0.1651
C19_3 C 0.38005(27) 0.4808(2) 0.3904(4)
C20_3 C 0.39337(26) 0.54136(19) 0.2233(3)
C21_3 C 0.31396(32) 0.29128(26) 0.2007(4)
C22_3 C 0.41572(25) 0.57445(19) 0.2551(3)
H8_3 H 0.4232 0.5947 0.2256
C23_3 C 0.38301(25) 0.51165(19) 0.2666(4)
H9_3 H 0.3688 0.4895 0.2443
C24_3 C 0.39310(24) 0.51361(18) 0.3428(4)
C25_3 C 0.45150(23) 0.61217(16) 0.3653(3)
C26_3 C 0.3430(4) 0.2958(3) 0.1479(5)
C27_3 C 0.3806(3) 0.5389(2) 0.1415(4)
O10_3 O 0.3356(4) 0.2763(3) 0.0921(5)
O11_3 O 0.37376(24) 0.31879(20) 0.1657(3)
O12_3 O 0.34788(20) 0.38830(14) 0.4990(3)
O13_3 O 0.20237(25) 0.21327(21) 0.3088(3)
O14_3 O 0.36309(18) 0.45160(14) 0.3558(3)
O15_3 O 0.38567(25) 0.4834(2) 0.4601(4)
O16_3 O 0.36654(19) 0.50989(14) 0.1107(3)
O17_3 O 0.18998(24) 0.15677(14) 0.0559(3)
O18_3 O 0.15677(23) 0.18998(13) 0.4441(3)
O19_3 O 0.3835(4) 0.5644(3) 0.1078(4)
O20_3 O 0.46523(17) 0.63841(13) 0.3211(3)
O21_3 O 0.13189(17) 0.16015(11) 0.1545(3)
O22_3 O 0.16015(21) 0.13189(17) 0.3455(3)
O23_3 O 0.45690(17) 0.61329(13) 0.4360(2)
O24_3 O 0.17694(21) 0.12356(17) 0.2306(2)
O25_3 O 0.12356(17) 0.17694(11) 0.2694(2)
C1_4 C 0.74803(23) 0.21322(18) 0.0418(3)
H1_4 H 0.7545 0.2149 0.0933
C4_4 C 0.71338(27) 0.1475(2) 0.0571(4)
C9_4 C 0.72643(24) 0.18028(18) 0.0095(4)
C10_4 C 0.77923(19) 0.00003(19) 0.2500
C11_4 C 0.74513(19) 0.00003(19) 0.2500
C12_4 C 0.78483(23) 0.27884(16) 0.0320(3)
O4_4 O 0.69642(18) 0.11827(14) 0.0225(3)
O5_4 O 0.71900(25) 0.1501(2) 0.1268(4)
O9_4 O 0.79023(17) 0.27996(13) 0.1027(2)
Zn6_2 Zn 0.822594(28) 0.315319(16) 0.17341(3)
Zn7_4 Zn 0.648653(28) 0.159392(23) 0.49325(3)
Zn8_3 Zn 0.492726(23) 0.177406(16) 0.17341(3)
C16_4 C 0.58530(23) 0.13186(15) 0.1249(3)
H6_4 H 0.5788 0.1271 0.0734
C17_4 C 0.57321(23) 0.15030(15) 0.1689(3)
C19_4 C 0.61995(27) 0.10079(18) 0.1096(4)
C20_4 C 0.60663(26) 0.14800(18) 0.2767(3)
C22_4 C 0.58428(25) 0.15874(17) 0.2449(3)
H8_4 H 0.5768 0.1716 0.2744
C23_4 C 0.61699(25) 0.12865(17) 0.2334(4)
H9_4 H 0.6312 0.1208 0.2557
C24_4 C 0.60690(24) 0.12052(16) 0.1572(4)
C25_4 C 0.54850(23) 0.16068(16) 0.1347(3)
C27_4 C 0.6194(3) 0.1584(2) 0.3585(4)
O12_4 O 0.65212(20) 0.04043(14) 0.0010(3)
O14_4 O 0.63691(18) 0.08852(11) 0.1442(3)
O15_4 O 0.61433(25) 0.09777(15) 0.0399(4)
O16_4 O 0.63346(19) 0.14336(13) 0.3893(3)
O19_4 O 0.6165(4) 0.1810(2) 0.3922(4)
O20_4 O 0.53477(17) 0.17319(11) 0.1789(3)
O23_4 O 0.54310(17) 0.15640(11) 0.0640(2)
C2_4 C 0.76012(23) 0.24375(17) 0.9978(3)
C5_4 C 0.72670(26) 0.20803(19) 0.8900(3)
C7_4 C 0.74905(25) 0.24112(19) 0.9218(3)
H3_4 H 0.7565 0.2614 0.8923
C8_4 C 0.71634(25) 0.17832(19) 0.9333(4)
H4_4 H 0.7021 0.1562 0.9110
C14_4 C 0.7139(3) 0.2056(2) 0.8082(4)
O6_4 O 0.69987(19) 0.17656(14) 0.7774(3)
O7_4 O 0.7168(4) 0.2311(3) 0.7745(4)
O8_4 O 0.79856(17) 0.30508(13) 0.9878(3)
Zn4_4 Zn 0.684681(28) 0.177406(16) 0.67341(3)
Zn5_2 Zn 0.840608(23) 0.351347(16) 0.99325(3)
Zn9_3 Zn 0.510740(28) 0.159392(23) 0.99325(3)
C1_5 C 0.46519(15) 0.25197(23) 0.0418(3)
H1_5 H 0.4604 0.2455 0.0933
C4_5 C 0.43412(18) 0.28662(27) 0.0571(4)
C9_5 C 0.45385(16) 0.27357(24) 0.0095(4)
C12_5 C 0.49401(16) 0.21517(23) 0.0320(3)
O4_5 O 0.42185(11) 0.30358(18) 0.0225(3)
O5_5 O 0.43110(15) 0.28100(25) 0.1268(4)
O9_5 O 0.48973(11) 0.20977(17) 0.1027(2)
Zn7_5 Zn 0.510740(16) 0.351347(28) 0.49325(3)
Zn8_4 Zn 0.684681(16) 0.507274(23) 0.17341(3)
C16_5 C 0.54655(18) 0.41470(23) 0.1249(3)
H6_5 H 0.5482 0.4212 0.0734
C17_5 C 0.57708(17) 0.42679(23) 0.1689(3)
C19_5 C 0.4808(2) 0.38005(27) 0.1096(4)
C20_5 C 0.54136(19) 0.39337(26) 0.2767(3)
C22_5 C 0.57445(19) 0.41572(25) 0.2449(3)
H8_5 H 0.5947 0.4232 0.2744
C23_5 C 0.51165(19) 0.38301(25) 0.2334(4)
H9_5 H 0.4895 0.3688 0.2557
C24_5 C 0.51361(18) 0.39310(24) 0.1572(4)
C25_5 C 0.61217(16) 0.45150(23) 0.1347(3)
C27_5 C 0.5389(2) 0.3806(3) 0.3585(4)
O12_5 O 0.38830(14) 0.34788(20) 0.0010(3)
O14_5 O 0.45160(14) 0.36309(18) 0.1442(3)
O15_5 O 0.4834(2) 0.38567(25) 0.0399(4)
O16_5 O 0.50989(14) 0.36654(19) 0.3893(3)
O19_5 O 0.5644(3) 0.3835(4) 0.3922(4)
O20_5 O 0.63841(13) 0.46523(17) 0.1789(3)
O23_5 O 0.61329(13) 0.45690(17) 0.0640(2)
C2_5 C 0.48363(15) 0.23988(23) 0.9978(3)
C5_5 C 0.48133(18) 0.27330(26) 0.8900(3)
C7_5 C 0.49207(17) 0.25095(25) 0.9218(3)
H3_5 H 0.5049 0.2435 0.8923
C8_5 C 0.46198(17) 0.28366(25) 0.9333(4)
H4_5 H 0.4541 0.2979 0.9110
C14_5 C 0.4917(2) 0.2861(3) 0.8082(4)
O6_5 O 0.47669(13) 0.30013(19) 0.7774(3)
O7_5 O 0.5143(2) 0.2832(4) 0.7745(4)
O8_5 O 0.50652(11) 0.20144(17) 0.9878(3)
Zn4_5 Zn 0.492726(23) 0.315319(28) 0.67341(3)
Zn9_4 Zn 0.648653(16) 0.489260(28) 0.99325(3)
C1_6 C 0.78678(18) 0.53481(15) 0.0418(3)
H1_6 H 0.7851 0.5396 0.0933
C4_6 C 0.8525(2) 0.56588(18) 0.0571(4)
C9_6 C 0.81972(18) 0.54615(16) 0.0095(4)
C10_5 C 0.99997(19) 0.7792 0.2500
C11_5 C 0.99997(19) 0.7451 0.2500
C12_6 C 0.72116(16) 0.50599(16) 0.0320(3)
O4_6 O 0.88173(14) 0.57815(11) 0.0225(3)
O5_6 O 0.8499(2) 0.56890(15) 0.1268(4)
O9_6 O 0.72004(13) 0.51027(11) 0.1027(2)
Zn7_6 Zn 0.840608(23) 0.489260(16) 0.49325(3)
C16_6 C 0.86814(15) 0.45345(18) 0.1249(3)
H6_6 H 0.8729 0.4518 0.0734
C17_6 C 0.84970(15) 0.42292(17) 0.1689(3)
C19_6 C 0.89921(18) 0.5192(2) 0.1096(4)
C20_6 C 0.85200(18) 0.45864(19) 0.2767(3)
C22_6 C 0.84126(17) 0.42555(19) 0.2449(3)
H8_6 H 0.8284 0.4053 0.2744
C23_6 C 0.87135(17) 0.48835(19) 0.2334(4)
H9_6 H 0.8792 0.5105 0.2557
C24_6 C 0.87948(16) 0.48639(18) 0.1572(4)
C25_6 C 0.83932(16) 0.38783(16) 0.1347(3)
C27_6 C 0.8416(2) 0.4611(2) 0.3585(4)
O12_6 O 0.95957(14) 0.61170(14) 0.0010(3)
O14_6 O 0.91148(11) 0.54840(14) 0.1442(3)
O15_6 O 0.90223(15) 0.5166(2) 0.0399(4)
O16_6 O 0.85664(13) 0.49011(14) 0.3893(3)
O19_6 O 0.8190(2) 0.4356(3) 0.3922(4)
O20_6 O 0.82681(11) 0.36159(13) 0.1789(3)
O23_6 O 0.84360(11) 0.38671(13) 0.0640(2)
C2_6 C 0.75625(17) 0.51637(15) 0.9978(3)
C5_6 C 0.79197(19) 0.51867(18) 0.8900(3)
C7_6 C 0.75888(19) 0.50793(17) 0.9218(3)
H3_6 H 0.7386 0.4951 0.8923
C8_6 C 0.82168(19) 0.53802(17) 0.9333(4)
H4_6 H 0.8438 0.5459 0.9110
C14_6 C 0.7944(2) 0.5083(2) 0.8082(4)
O6_6 O 0.82344(14) 0.52331(13) 0.7774(3)
O7_6 O 0.7689(3) 0.4857(2) 0.7745(4)
O8_6 O 0.69492(13) 0.49348(11) 0.9878(3)
Zn4_6 Zn 0.822594(16) 0.507274(23) 0.67341(3)
C14_7 C 0.1750(2) 0.1277(2) 0.0251(4)
O7_7 O 0.1524(2) 0.1022(3) 0.0588(4)
Zn2_4 Zn 0.25743(2) 0.2574 0.7500
C1_7 C 0.20148(15) 0.12011(18) 0.7915(3)
H1_7 H 0.2063 0.1184 0.7400
C2_7 C 0.18304(15) 0.08958(17) 0.8355(3)
C3_4 C 0.38521(18) 0.31164(17) 0.6336(4)
H2_4 H 0.3889 0.2976 0.6682
C4_7 C 0.23255(18) 0.1858(2) 0.7762(4)
C5_7 C 0.18534(18) 0.12530(19) 0.9433(3)
C6_4 C 0.35271(19) 0.31065(18) 0.6326(4)
C7_7 C 0.17460(17) 0.09221(19) 0.9115(3)
H3_7 H 0.1618 0.0719 0.9410
C8_7 C 0.20469(17) 0.15501(19) 0.9000(4)
H4_7 H 0.2126 0.1771 0.9223
C9_7 C 0.21282(16) 0.15305(18) 0.8238(4)
C10_6 C 0.4459 0.33330(19) 0.5833
C11_6 C 0.4118 0.33330(19) 0.5833
C12_7 C 0.17266(16) 0.05449(16) 0.8013(3)
C13_4 C 0.3237(2) 0.2861(2) 0.6854(5)
C15_6 C 0.3481 0.3333(2) 0.5833
H5_6 H 0.3268 0.3333 0.5833
O1_4 O 0.3311(2) 0.2740(2) 0.7412(5)
O2_4 O 0.29291(14) 0.27836(14) 0.6676(3)
O3_4 O 0.46430(16) 0.34423(13) 0.5245(3)
O4_7 O 0.24482(11) 0.21506(14) 0.8108(3)
O5_7 O 0.23557(15) 0.1832(2) 0.7065(4)
O8_7 O 0.16015(11) 0.02825(13) 0.8455(3)
O9_7 O 0.17694(11) 0.05337(13) 0.7306(2)
Zn6_3 Zn 0.173941(23) 0.018014(16) 0.65992(3)
Zn9_5 Zn 0.018014(16) 0.173941(23) 0.84008(3)
C16_7 C 0.12011(18) 0.20148(15) 0.7085(3)
H6_7 H 0.1184 0.2063 0.7600
C17_7 C 0.08958(17) 0.18304(15) 0.6645(3)
C18_4 C 0.40690(25) 0.35502(17) 0.5330(4)
H7_4 H 0.4246 0.3690 0.4984
C19_7 C 0.1858(2) 0.23255(18) 0.7238(4)
C20_7 C 0.12530(19) 0.18534(18) 0.5567(3)
C21_4 C 0.37539(26) 0.35601(18) 0.5340(4)
C22_7 C 0.09221(19) 0.17460(17) 0.5885(3)
H8_7 H 0.0719 0.1618 0.5590
C23_7 C 0.15501(19) 0.20469(17) 0.6000(4)
H9_7 H 0.1771 0.2126 0.5777
C24_7 C 0.15305(18) 0.21282(16) 0.6762(4)
C25_7 C 0.05449(16) 0.17266(16) 0.6987(3)
C26_4 C 0.3709(3) 0.3805(2) 0.4812(5)
C27_7 C 0.1277(2) 0.1750(2) 0.4749(4)
O10_4 O 0.3904(3) 0.3926(2) 0.4254(5)
O12_7 O 0.27836(14) 0.29291(14) 0.8324(3)
O13_4 O 0.45340(21) 0.32243(13) 0.6421(3)
O14_7 O 0.21506(14) 0.24482(11) 0.6892(3)
O15_7 O 0.1832(2) 0.23557(15) 0.7935(4)
O19_7 O 0.1022(3) 0.1524(2) 0.4412(4)
O20_7 O 0.02825(13) 0.16015(11) 0.6545(3)
O21_4 O 0.50652(11) 0.30508(13) 0.4878(3)
O22_4 O 0.53477(17) 0.36159(13) 0.6789(3)
O23_7 O 0.05337(13) 0.17694(11) 0.7694(2)
O24_4 O 0.54310(17) 0.38671(13) 0.5640(2)
O25_4 O 0.48973(11) 0.27996(13) 0.6027(2)
Zn5_3 Zn 0.155927(16) 0.981986(16) 0.84008(3)
Zn8_5 Zn 0.981986(16) 0.155927(16) 0.65992(3)
C14_8 C 0.8723(2) 0.0472(3) 0.0251(4)
O7_8 O 0.8978(3) 0.0501(4) 0.0588(4)
Zn2_5 Zn 0.7426 -0.00001(2) 0.7500
C1_8 C 0.87989(18) 0.08136(23) 0.7915(3)
H1_8 H 0.8816 0.0878 0.7400
C2_8 C 0.91042(17) 0.09345(23) 0.8355(3)
C3_5 C 0.68836(17) 0.07356(25) 0.6336(4)
H2_5 H 0.7024 0.0912 0.6682
C4_8 C 0.8142(2) 0.04671(27) 0.7762(4)
C5_8 C 0.87470(19) 0.06003(26) 0.9433(3)
C6_5 C 0.68935(18) 0.04205(26) 0.6326(4)
C7_8 C 0.90779(19) 0.08238(25) 0.9115(3)
H3_8 H 0.9281 0.0898 0.9410
C8_8 C 0.84499(19) 0.04967(25) 0.9000(4)
H4_8 H 0.8229 0.0354 0.9223
C9_8 C 0.84695(18) 0.05976(24) 0.8238(4)
C10_7 C 0.66670(19) 0.11256(19) 0.5833
C11_7 C 0.66670(19) 0.07846(19) 0.5833
C12_8 C 0.94551(16) 0.11816(23) 0.8013(3)
C13_5 C 0.7139(2) 0.0375(3) 0.6854(5)
C15_7 C 0.6667(2) 0.0147(2) 0.5833
O1_5 O 0.7260(2) 0.0570(3) 0.7412(5)
O2_5 O 0.72164(14) 0.01454(20) 0.6676(3)
O3_5 O 0.65577(13) 0.12006(21) 0.5245(3)
O4_8 O 0.78494(14) 0.02975(18) 0.8108(3)
O5_8 O 0.8168(2) 0.05233(25) 0.7065(4)
O8_8 O 0.97175(13) 0.13189(17) 0.8455(3)
O9_8 O 0.94663(13) 0.12356(17) 0.7306(2)
C18_5 C 0.64498(17) 0.05187(30) 0.5330(4)
H7_5 H 0.6310 0.0555 0.4984
C21_5 C 0.64399(18) 0.01937(32) 0.5340(4)
O13_5 O 0.67757(13) 0.13096(25) 0.6421(3)
O21_5 O 0.69492(13) 0.20144(17) 0.4878(3)
O22_5 O 0.63841(13) 0.17319(21) 0.6789(3)
O24_5 O 0.61329(13) 0.15640(21) 0.5640(2)
O25_5 O 0.72004(13) 0.20977(17) 0.6027(2)
Zn2_6 Zn 0.7426 0.99999(2) 0.7500
H5_7 H 0.6667 0.9934 0.5833
Zn8_6 Zn 0.844073(16) 0.826059(23) 0.65992(3)
Zn9_6 Zn 0.826059(23) 0.844073(28) 0.84008(3)
C16_8 C 0.79852(15) 0.91864(23) 0.7085(3)
H6_8 H 0.7937 0.9122 0.7600
C17_8 C 0.81696(15) 0.90655(23) 0.6645(3)
C19_8 C 0.76745(18) 0.95329(27) 0.7238(4)
C20_8 C 0.81466(18) 0.93997(26) 0.5567(3)
C22_8 C 0.82540(17) 0.91762(25) 0.5885(3)
H8_8 H 0.8382 0.9102 0.5590
C23_8 C 0.79531(17) 0.95033(25) 0.6000(4)
H9_8 H 0.7874 0.9646 0.5777
C24_8 C 0.78718(16) 0.94024(24) 0.6762(4)
C25_8 C 0.82734(16) 0.88184(23) 0.6987(3)
C26_5 C 0.6195(2) 0.9903(4) 0.4812(5)
C27_8 C 0.8250(2) 0.9528(3) 0.4749(4)
O10_5 O 0.6074(2) 0.9977(4) 0.4254(5)
O12_8 O 0.70709(14) 0.98546(20) 0.8324(3)
O14_8 O 0.75518(11) 0.97025(18) 0.6892(3)
O15_8 O 0.76443(15) 0.94767(25) 0.7935(4)
O19_8 O 0.8476(2) 0.9499(4) 0.4412(4)
O20_8 O 0.83985(11) 0.86811(17) 0.6545(3)
O23_8 O 0.82306(11) 0.87644(17) 0.7694(2)
Zn2_7 Zn 0.00001(2) 0.74257(2) 0.7500
H5_8 H 0.0066 0.6732 0.5833
C16_9 C 0.08136(23) 0.87989(18) 0.7085(3)
H6_9 H 0.0878 0.8816 0.7600
C17_9 C 0.09345(23) 0.91042(17) 0.6645(3)
C19_9 C 0.04671(27) 0.8142(2) 0.7238(4)
C20_9 C 0.06003(26) 0.87470(19) 0.5567(3)
C22_9 C 0.08238(25) 0.90779(19) 0.5885(3)
H8_9 H 0.0898 0.9281 0.5590
C23_9 C 0.04967(25) 0.84499(19) 0.6000(4)
H9_9 H 0.0354 0.8229 0.5777
C24_9 C 0.05976(24) 0.84695(18) 0.6762(4)
C25_9 C 0.11816(23) 0.94551(16) 0.6987(3)
C26_6 C 0.0097(4) 0.6291(3) 0.4812(5)
C27_9 C 0.0472(3) 0.8723(2) 0.4749(4)
O10_6 O 0.0023(4) 0.6096(3) 0.4254(5)
O12_9 O 0.01454(20) 0.72164(14) 0.8324(3)
O14_9 O 0.02975(18) 0.78494(14) 0.6892(3)
O15_9 O 0.05233(25) 0.8168(2) 0.7935(4)
O19_9 O 0.0501(4) 0.8978(3) 0.4412(4)
O20_9 O 0.13189(17) 0.97175(13) 0.6545(3)
O23_9 O 0.12356(17) 0.94663(13) 0.7694(2)
C14_9 C 0.9528(3) 0.8250(2) 0.0251(4)
O7_9 O 0.9499(4) 0.8476(2) 0.0588(4)
Zn2_8 Zn 1.00001(2) 0.74257(2) 0.7500
C1_9 C 0.91864(23) 0.79852(15) 0.7915(3)
H1_9 H 0.9122 0.7937 0.7400
C2_9 C 0.90655(23) 0.81696(15) 0.8355(3)
C3_6 C 0.92644(25) 0.61479(18) 0.6336(4)
H2_6 H 0.9088 0.6111 0.6682
C4_9 C 0.95329(27) 0.76745(18) 0.7762(4)
C5_9 C 0.93997(26) 0.81466(18) 0.9433(3)
C6_6 C 0.95795(26) 0.64729(19) 0.6326(4)
C7_9 C 0.91762(25) 0.82540(17) 0.9115(3)
H3_9 H 0.9102 0.8382 0.9410
C8_9 C 0.95033(25) 0.79531(17) 0.9000(4)
H4_9 H 0.9646 0.7874 0.9223
C9_9 C 0.94024(24) 0.78718(16) 0.8238(4)
C10_8 C 0.88744(19) 0.5541 0.5833
C11_8 C 0.92154(19) 0.5882 0.5833
C12_9 C 0.88184(23) 0.82734(16) 0.8013(3)
C13_6 C 0.9625(3) 0.6763(2) 0.6854(5)
C15_8 C 0.9853(2) 0.6519 0.5833
O1_6 O 0.9430(3) 0.6689(2) 0.7412(5)
O2_6 O 0.98546(20) 0.70709(14) 0.6676(3)
O3_6 O 0.87994(21) 0.53570(16) 0.5245(3)
O4_9 O 0.97025(18) 0.75518(11) 0.8108(3)
O5_9 O 0.94767(25) 0.76443(15) 0.7065(4)
O8_9 O 0.86811(17) 0.83985(11) 0.8455(3)
O9_9 O 0.87644(17) 0.82306(11) 0.7306(2)
C18_6 C 0.94813(30) 0.59310(25) 0.5330(4)
H7_6 H 0.9445 0.5754 0.4984
C21_6 C 0.98063(32) 0.62461(26) 0.5340(4)
O13_6 O 0.86904(25) 0.54660(21) 0.6421(3)
O21_6 O 0.79856(17) 0.49348(11) 0.4878(3)
O22_6 O 0.82681(21) 0.46523(17) 0.6789(3)
O24_6 O 0.84360(21) 0.45690(17) 0.5640(2)
O25_6 O 0.79023(17) 0.51027(11) 0.6027(2)
H2_7 H 0.0555 0.6310 0.0016
O22_7 O 0.20144(17) 0.69492(13) 0.0122(3)
C3_7 C 0.05187(18) 0.64498(17) 0.9670(4)
C6_7 C 0.01937(19) 0.64399(18) 0.9660(4)
C10_9 C 0.1125 0.66664(19) 0.9167
C11_9 C 0.0784 0.66664(19) 0.9167
C15_9 C 0.0147 0.6667(2) 0.9167
O3_7 O 0.13096(16) 0.67757(13) 0.8579(3)
C18_7 C 0.07356(25) 0.68836(17) 0.8664(4)
H7_7 H 0.0912 0.7024 0.8318
C21_7 C 0.04205(26) 0.68935(18) 0.8674(4)
C26_7 C 0.0375(3) 0.7139(2) 0.8146(5)
O10_7 O 0.0570(3) 0.7260(2) 0.7588(5)
O13_7 O 0.12006(21) 0.65577(13) 0.9755(3)
O21_7 O 0.17319(11) 0.63841(13) 0.8211(3)
O24_7 O 0.20977(17) 0.72004(13) 0.8973(2)
O25_7 O 0.15640(11) 0.61329(13) 0.9360(2)
C13_7 C 0.9903(2) 0.6195(2) 0.0188(5)
O1_7 O 0.9977(2) 0.6074(2) 0.0746(5)
H5_9 H 0.9934 0.6667 0.9167
H2_8 H 0.3690 0.4246 0.0016
C13_8 C 0.3805(2) 0.3709(3) 0.0188(5)
O1_8 O 0.3926(2) 0.3904(3) 0.0746(5)
O22_8 O 0.30508(13) 0.50652(21) 0.0122(3)
C3_8 C 0.35502(17) 0.40690(25) 0.9670(4)
C6_8 C 0.35601(18) 0.37539(26) 0.9660(4)
C10_10 C 0.33336(19) 0.44590(19) 0.9167
C11_10 C 0.33336(19) 0.41180(19) 0.9167
C15_10 C 0.3333(2) 0.3481(2) 0.9167
H5_10 H 0.3333 0.3268 0.9167
O3_8 O 0.32243(13) 0.45340(21) 0.8579(3)
C18_8 C 0.31164(17) 0.38521(30) 0.8664(4)
H7_8 H 0.2976 0.3889 0.8318
C21_8 C 0.31065(18) 0.35271(32) 0.8674(4)
C26_8 C 0.2861(2) 0.3237(4) 0.8146(5)
O10_8 O 0.2740(2) 0.3311(4) 0.7588(5)
O13_8 O 0.34423(13) 0.46430(25) 0.9755(3)
O21_8 O 0.36159(13) 0.53477(17) 0.8211(3)
O24_8 O 0.27996(13) 0.48973(21) 0.8973(2)
O25_8 O 0.38671(13) 0.54310(17) 0.9360(2)
C13_9 C 0.6291(3) 0.0097(2) 0.0188(5)
O1_9 O 0.6096(3) 0.0023(2) 0.0746(5)
H5_11 H 0.6732 0.0066 0.9167
H2_9 H 0.5754 0.9445 0.0016
O22_9 O 0.49348(21) 0.79856(17) 0.0122(3)
C3_9 C 0.59310(25) 0.94813(18) 0.9670(4)
C6_9 C 0.62461(26) 0.98063(19) 0.9660(4)
C10_11 C 0.55410(19) 0.8875 0.9167
C11_11 C 0.58820(19) 0.9216 0.9167
C15_11 C 0.6519(2) 0.9853 0.9167
O3_9 O 0.54660(21) 0.86904(16) 0.8579(3)
C18_9 C 0.61479(30) 0.92644(25) 0.8664(4)
H7_9 H 0.6111 0.9088 0.8318
C21_9 C 0.64729(32) 0.95795(26) 0.8674(4)
C26_9 C 0.6763(4) 0.9625(3) 0.8146(5)
O10_9 O 0.6689(4) 0.9430(3) 0.7588(5)
O13_9 O 0.53570(25) 0.87994(21) 0.9755(3)
O21_9 O 0.46523(17) 0.82681(11) 0.8211(3)
O24_9 O 0.51027(21) 0.79023(17) 0.8973(2)
O25_9 O 0.45690(17) 0.84360(11) 0.9360(2)
Zn2_9 Zn 0.40924(2) 0.0759 0.5833
C1_10 C 0.46519(15) 0.21322(18) 0.5418(3)
H1_10 H 0.4604 0.2149 0.5933
C2_10 C 0.48363(15) 0.24375(17) 0.4978(3)
C3_10 C 0.28146(18) 0.02169(17) 0.6997(4)
H2_10 H 0.2778 0.0357 0.6651
C4_10 C 0.43412(18) 0.1475(2) 0.5571(4)
C5_10 C 0.48133(18) 0.20803(19) 0.3900(3)
C6_10 C 0.31396(19) 0.02268(18) 0.7007(4)
C7_10 C 0.49207(17) 0.24112(19) 0.4218(3)
H3_10 H 0.5049 0.2614 0.3923
C8_10 C 0.46198(17) 0.17832(19) 0.4333(4)
H4_10 H 0.4541 0.1562 0.4110
C9_10 C 0.45385(16) 0.18028(18) 0.5095(4)
C10_12 C 0.2208 0.00003(19) 0.7500
C11_12 C 0.2549 0.00003(19) 0.7500
C12_10 C 0.49401(16) 0.27884(16) 0.5320(3)
C13_10 C 0.3430(2) 0.0472(2) 0.6479(5)
C14_10 C 0.4917(2) 0.2056(2) 0.3082(4)
C15_12 C 0.3186 0.0000(2) 0.7500
H5_12 H 0.3399 0.0000 0.7500
O1_10 O 0.3356(2) 0.0593(2) 0.5921(5)
O2_7 O 0.37376(14) 0.05497(14) 0.6657(3)
O4_10 O 0.42185(11) 0.11827(14) 0.5225(3)
O5_10 O 0.43110(15) 0.1501(2) 0.6268(4)
O6_7 O 0.47669(13) 0.17656(14) 0.2774(3)
O7_10 O 0.5143(2) 0.2311(3) 0.2745(4)
C16_10 C 0.54655(18) 0.13186(15) 0.6249(3)
H6_10 H 0.5482 0.1271 0.5734
C17_10 C 0.57708(17) 0.15030(15) 0.6689(3)
C19_10 C 0.4808(2) 0.10079(18) 0.6096(4)
C20_10 C 0.54136(19) 0.14800(18) 0.7767(3)
C22_10 C 0.57445(19) 0.15874(17) 0.7449(3)
H8_10 H 0.5947 0.1716 0.7744
C23_10 C 0.51165(19) 0.12865(17) 0.7334(4)
H9_10 H 0.4895 0.1208 0.7557
C24_10 C 0.51361(18) 0.12052(16) 0.6572(4)
C25_10 C 0.61217(16) 0.16068(16) 0.6347(3)
C27_10 C 0.5389(2) 0.1584(2) 0.8585(4)
O12_10 O 0.38830(14) 0.04043(14) 0.5010(3)
O13_10 O 0.21327(21) 0.01090(13) 0.6912(3)
O14_10 O 0.45160(14) 0.08852(11) 0.6442(3)
O15_10 O 0.4834(2) 0.09777(15) 0.5399(4)
O16_7 O 0.50989(14) 0.14336(13) 0.8893(3)
O18_4 O 0.18998(13) 0.03320(19) 0.5559(3)
O19_10 O 0.5644(3) 0.1810(2) 0.8922(4)
C15_13 C 0.3186 1.0000(2) 0.7500
H5_13 H 0.3399 1.0000 0.7500
O3_10 O 0.20237(16) 0.98910(13) 0.8088(3)
Zn10_4 Zn 0.33334(2) 0.9241 0.9167
C18_10 C 0.25977(25) 0.97831(17) 0.8003(4)
H7_10 H 0.2421 0.9643 0.8349
C21_10 C 0.29128(26) 0.97732(18) 0.7993(4)
C26_10 C 0.2958(3) 0.9528(2) 0.8521(5)
O10_10 O 0.2763(3) 0.9407(2) 0.9079(5)
O11_4 O 0.31879(20) 0.94503(14) 0.8343(3)
O17_4 O 0.15677(14) 0.96680(19) 0.9441(3)
C15_14 C 0.0000(2) 0.3186(2) 0.7500
H5_14 H 0.0000 0.3399 0.7500
O3_11 O 0.01090(13) 0.21327(21) 0.8088(3)
Zn10_5 Zn 0.0759 0.40924(2) 0.9167
C18_11 C 0.02169(17) 0.28146(30) 0.8003(4)
H7_11 H 0.0357 0.2778 0.8349
C21_11 C 0.02268(18) 0.31396(32) 0.7993(4)
C26_11 C 0.0472(2) 0.3430(4) 0.8521(5)
O10_11 O 0.0593(2) 0.3356(4) 0.9079(5)
O11_5 O 0.05497(14) 0.37376(24) 0.8343(3)
O17_5 O 0.03320(19) 0.18998(24) 0.9441(3)
Zn2_10 Zn 0.9241 0.33334(2) 0.5833
C1_11 C 0.78678(18) 0.25197(23) 0.5418(3)
H1_11 H 0.7851 0.2455 0.5933
C2_11 C 0.75625(17) 0.23988(23) 0.4978(3)
C3_11 C 0.97831(17) 0.25977(25) 0.6997(4)
H2_11 H 0.9643 0.2421 0.6651
C4_11 C 0.8525(2) 0.28662(27) 0.5571(4)
C5_11 C 0.79197(19) 0.27330(26) 0.3900(3)
C6_11 C 0.97732(18) 0.29128(26) 0.7007(4)
C7_11 C 0.75888(19) 0.25095(25) 0.4218(3)
H3_11 H 0.7386 0.2435 0.3923
C8_11 C 0.82168(19) 0.28366(25) 0.4333(4)
H4_11 H 0.8438 0.2979 0.4110
C9_11 C 0.81972(18) 0.27357(24) 0.5095(4)
C10_13 C 0.99997(19) 0.22077(19) 0.7500
C11_13 C 0.99997(19) 0.25487(19) 0.7500
C12_11 C 0.72116(16) 0.21517(23) 0.5320(3)
C13_11 C 0.9528(2) 0.2958(3) 0.6479(5)
C14_11 C 0.7944(2) 0.2861(3) 0.3082(4)
C15_15 C 1.0000(2) 0.3186(2) 0.7500
H5_15 H 1.0000 0.3399 0.7500
O1_11 O 0.9407(2) 0.2763(3) 0.5921(5)
O2_8 O 0.94503(14) 0.31879(20) 0.6657(3)
O4_11 O 0.88173(14) 0.30358(18) 0.5225(3)
O5_11 O 0.8499(2) 0.28100(25) 0.6268(4)
O6_8 O 0.82344(14) 0.30013(19) 0.2774(3)
O7_11 O 0.7689(3) 0.2832(4) 0.2745(4)
C16_11 C 0.86814(15) 0.41470(23) 0.6249(3)
H6_11 H 0.8729 0.4212 0.5734
C17_11 C 0.84970(15) 0.42679(23) 0.6689(3)
C19_11 C 0.89921(18) 0.38005(27) 0.6096(4)
C20_11 C 0.85200(18) 0.39337(26) 0.7767(3)
C22_11 C 0.84126(17) 0.41572(25) 0.7449(3)
H8_11 H 0.8284 0.4232 0.7744
C23_11 C 0.87135(17) 0.38301(25) 0.7334(4)
H9_11 H 0.8792 0.3688 0.7557
C24_11 C 0.87948(16) 0.39310(24) 0.6572(4)
C25_11 C 0.83932(16) 0.45150(23) 0.6347(3)
C27_11 C 0.8416(2) 0.3806(3) 0.8585(4)
O12_11 O 0.95957(14) 0.34788(20) 0.5010(3)
O13_11 O 0.98910(13) 0.20237(25) 0.6912(3)
O14_11 O 0.91148(11) 0.36309(18) 0.6442(3)
O15_11 O 0.90223(15) 0.38567(25) 0.5399(4)
O16_8 O 0.85664(13) 0.36654(19) 0.8893(3)
O18_5 O 0.96680(19) 0.15677(23) 0.5559(3)
O19_11 O 0.8190(2) 0.3835(4) 0.8922(4)
Zn2_11 Zn 0.66666(2) 0.59076(2) 0.5833
C1_12 C 0.74803(23) 0.53481(15) 0.5418(3)
H1_12 H 0.7545 0.5396 0.5933
C2_12 C 0.76012(23) 0.51637(15) 0.4978(3)
C3_12 C 0.74023(25) 0.71854(18) 0.6997(4)
H2_12 H 0.7579 0.7222 0.6651
C4_12 C 0.71338(27) 0.56588(18) 0.5571(4)
C5_12 C 0.72670(26) 0.51867(18) 0.3900(3)
C6_12 C 0.70872(26) 0.68604(19) 0.7007(4)
C7_12 C 0.74905(25) 0.50793(17) 0.4218(3)
H3_12 H 0.7565 0.4951 0.3923
C8_12 C 0.71634(25) 0.53802(17) 0.4333(4)
H4_12 H 0.7021 0.5459 0.4110
C9_12 C 0.72643(24) 0.54615(16) 0.5095(4)
C10_14 C 0.77923(19) 0.7792 0.7500
C11_14 C 0.74513(19) 0.7451 0.7500
C12_12 C 0.78483(23) 0.50599(16) 0.5320(3)
C13_12 C 0.7042(3) 0.6570(2) 0.6479(5)
C14_12 C 0.7139(3) 0.5083(2) 0.3082(4)
C15_16 C 0.6814(2) 0.6814 0.7500
H5_16 H 0.6601 0.6601 0.7500
O1_12 O 0.7237(3) 0.6644(2) 0.5921(5)
O2_9 O 0.68121(20) 0.62624(14) 0.6657(3)
O3_12 O 0.78673(21) 0.79763(16) 0.8088(3)
O4_12 O 0.69642(18) 0.57815(11) 0.5225(3)
O5_12 O 0.71900(25) 0.56890(15) 0.6268(4)
O6_9 O 0.69987(19) 0.52331(13) 0.2774(3)
O7_12 O 0.7168(4) 0.4857(2) 0.2745(4)
Zn10_6 Zn 0.59076(2) 0.66666(2) 0.9167
C16_12 C 0.58530(23) 0.45345(18) 0.6249(3)
H6_12 H 0.5788 0.4518 0.5734
C17_12 C 0.57321(23) 0.42292(17) 0.6689(3)
C18_12 C 0.71854(30) 0.74023(25) 0.8003(4)
H7_12 H 0.7222 0.7579 0.8349
C19_12 C 0.61995(27) 0.5192(2) 0.6096(4)
C20_12 C 0.60663(26) 0.45864(19) 0.7767(3)
C21_12 C 0.68604(32) 0.70872(26) 0.7993(4)
C22_12 C 0.58428(25) 0.42555(19) 0.7449(3)
H8_12 H 0.5768 0.4053 0.7744
C23_12 C 0.61699(25) 0.48835(19) 0.7334(4)
H9_12 H 0.6312 0.5105 0.7557
C24_12 C 0.60690(24) 0.48639(18) 0.6572(4)
C25_12 C 0.54850(23) 0.38783(16) 0.6347(3)
C26_12 C 0.6570(4) 0.7042(3) 0.8521(5)
C27_12 C 0.6194(3) 0.4611(2) 0.8585(4)
O10_12 O 0.6644(4) 0.7237(3) 0.9079(5)
O11_6 O 0.62624(24) 0.68121(20) 0.8343(3)
O12_12 O 0.65212(20) 0.61170(14) 0.5010(3)
O13_12 O 0.79763(25) 0.78673(21) 0.6912(3)
O14_12 O 0.63691(18) 0.54840(14) 0.6442(3)
O15_12 O 0.61433(25) 0.5166(2) 0.5399(4)
O16_9 O 0.63346(19) 0.49011(14) 0.8893(3)
O17_6 O 0.81002(24) 0.84323(14) 0.9441(3)
O18_6 O 0.84323(23) 0.81002(13) 0.5559(3)
O19_12 O 0.6165(4) 0.4356(3) 0.8922(4)
C2_13 C 0.23988(23) 0.75625(17) 0.0022(3)
C5_13 C 0.27330(26) 0.79197(19) 0.1100(3)
C7_13 C 0.25095(25) 0.75888(19) 0.0782(3)
H3_13 H 0.2435 0.7386 0.1077
C8_13 C 0.28366(25) 0.82168(19) 0.0667(4)
H4_13 H 0.2979 0.8438 0.0890
C14_13 C 0.2861(3) 0.7944(2) 0.1918(4)
O6_10 O 0.30013(19) 0.82344(14) 0.2226(3)
O7_13 O 0.2832(4) 0.7689(3) 0.2255(4)
C1_13 C 0.25197(23) 0.78678(18) 0.9582(3)
H1_13 H 0.2455 0.7851 0.9067
C4_13 C 0.28662(27) 0.8525(2) 0.9429(4)
C9_13 C 0.27357(24) 0.81972(18) 0.9905(4)
C10_15 C 0.22077(19) 0.99997(19) 0.7500
C11_15 C 0.25487(19) 0.99997(19) 0.7500
C12_13 C 0.21517(23) 0.72116(16) 0.9680(3)
O4_13 O 0.30358(18) 0.88173(14) 0.9775(3)
O5_13 O 0.28100(25) 0.8499(2) 0.8732(4)
C16_13 C 0.41470(23) 0.86814(15) 0.8751(3)
H6_13 H 0.4212 0.8729 0.9266
C17_13 C 0.42679(23) 0.84970(15) 0.8311(3)
C19_13 C 0.38005(27) 0.89921(18) 0.8904(4)
C20_13 C 0.39337(26) 0.85200(18) 0.7233(3)
C22_13 C 0.41572(25) 0.84126(17) 0.7551(3)
H8_13 H 0.4232 0.8284 0.7256
C23_13 C 0.38301(25) 0.87135(17) 0.7666(4)
H9_13 H 0.3688 0.8792 0.7443
C24_13 C 0.39310(24) 0.87948(16) 0.8428(4)
C25_13 C 0.45150(23) 0.83932(16) 0.8653(3)
C27_13 C 0.3806(3) 0.8416(2) 0.6415(4)
O12_13 O 0.34788(20) 0.95957(14) 0.9990(3)
O14_13 O 0.36309(18) 0.91148(11) 0.8558(3)
O15_13 O 0.38567(25) 0.90223(15) 0.9601(4)
O16_10 O 0.36654(19) 0.85664(13) 0.6107(3)
O19_13 O 0.3835(4) 0.8190(2) 0.6078(4)
C2_14 C 0.51637(15) 0.76012(23) 0.0022(3)
C5_14 C 0.51867(18) 0.72670(26) 0.1100(3)
C7_14 C 0.50793(17) 0.74905(25) 0.0782(3)
H3_14 H 0.4951 0.7565 0.1077
C8_14 C 0.53802(17) 0.71634(25) 0.0667(4)
H4_14 H 0.5459 0.7021 0.0890
C14_14 C 0.5083(2) 0.7139(3) 0.1918(4)
O6_11 O 0.52331(13) 0.69987(19) 0.2226(3)
O7_14 O 0.4857(2) 0.7168(4) 0.2255(4)
C1_14 C 0.53481(15) 0.74803(23) 0.9582(3)
H1_14 H 0.5396 0.7545 0.9067
C4_14 C 0.56588(18) 0.71338(27) 0.9429(4)
C9_14 C 0.54615(16) 0.72643(24) 0.9905(4)
C12_14 C 0.50599(16) 0.78483(23) 0.9680(3)
O4_14 O 0.57815(11) 0.69642(18) 0.9775(3)
O5_14 O 0.56890(15) 0.71900(25) 0.8732(4)
C16_14 C 0.45345(18) 0.58530(23) 0.8751(3)
H6_14 H 0.4518 0.5788 0.9266
C17_14 C 0.42292(17) 0.57321(23) 0.8311(3)
C19_14 C 0.5192(2) 0.61995(27) 0.8904(4)
C20_14 C 0.45864(19) 0.60663(26) 0.7233(3)
C22_14 C 0.42555(19) 0.58428(25) 0.7551(3)
H8_14 H 0.4053 0.5768 0.7256
C23_14 C 0.48835(19) 0.61699(25) 0.7666(4)
H9_14 H 0.5105 0.6312 0.7443
C24_14 C 0.48639(18) 0.60690(24) 0.8428(4)
C25_14 C 0.38783(16) 0.54850(23) 0.8653(3)
C27_14 C 0.4611(2) 0.6194(3) 0.6415(4)
O12_14 O 0.61170(14) 0.65212(20) 0.9990(3)
O14_14 O 0.54840(14) 0.63691(18) 0.8558(3)
O15_14 O 0.5166(2) 0.61433(25) 0.9601(4)
O16_11 O 0.49011(14) 0.63346(19) 0.6107(3)
O19_14 O 0.4356(3) 0.6165(4) 0.6078(4)
C2_15 C 0.24375(17) 0.48363(15) 0.0022(3)
C5_15 C 0.20803(19) 0.48133(18) 0.1100(3)
C7_15 C 0.24112(19) 0.49207(17) 0.0782(3)
H3_15 H 0.2614 0.5049 0.1077
C8_15 C 0.17832(19) 0.46198(17) 0.0667(4)
H4_15 H 0.1562 0.4541 0.0890
C14_15 C 0.2056(2) 0.4917(2) 0.1918(4)
O6_12 O 0.17656(14) 0.47669(13) 0.2226(3)
O7_15 O 0.2311(3) 0.5143(2) 0.2255(4)
C1_15 C 0.21322(18) 0.46519(15) 0.9582(3)
H1_15 H 0.2149 0.4604 0.9067
C4_15 C 0.1475(2) 0.43412(18) 0.9429(4)
C9_15 C 0.18028(18) 0.45385(16) 0.9905(4)
C10_16 C 0.00003(19) 0.2208 0.7500
C11_16 C 0.00003(19) 0.2549 0.7500
C12_15 C 0.27884(16) 0.49401(16) 0.9680(3)
O4_15 O 0.11827(14) 0.42185(11) 0.9775(3)
O5_15 O 0.1501(2) 0.43110(15) 0.8732(4)
C16_15 C 0.13186(15) 0.54655(18) 0.8751(3)
H6_15 H 0.1271 0.5482 0.9266
C17_15 C 0.15030(15) 0.57708(17) 0.8311(3)
C19_15 C 0.10079(18) 0.4808(2) 0.8904(4)
C20_15 C 0.14800(18) 0.54136(19) 0.7233(3)
C22_15 C 0.15874(17) 0.57445(19) 0.7551(3)
H8_15 H 0.1716 0.5947 0.7256
C23_15 C 0.12865(17) 0.51165(19) 0.7666(4)
H9_15 H 0.1208 0.4895 0.7443
C24_15 C 0.12052(16) 0.51361(18) 0.8428(4)
C25_15 C 0.16068(16) 0.61217(16) 0.8653(3)
C27_15 C 0.1584(2) 0.5389(2) 0.6415(4)
O12_15 O 0.04043(14) 0.38830(14) 0.9990(3)
O14_15 O 0.08852(11) 0.45160(14) 0.8558(3)
O15_15 O 0.09777(15) 0.4834(2) 0.9601(4)
O16_12 O 0.14336(13) 0.50989(14) 0.6107(3)
O19_15 O 0.1810(2) 0.5644(3) 0.6078(4)
Zn2_12 Zn 0.74257(2) 0.7426 0.2500
C1_16 C 0.79852(15) 0.87989(18) 0.2085(3)
H1_16 H 0.7937 0.8816 0.2600
C2_16 C 0.81696(15) 0.91042(17) 0.1645(3)
C3_13 C 0.61479(18) 0.68836(17) 0.3664(4)
H2_13 H 0.6111 0.7024 0.3318
C4_16 C 0.76745(18) 0.8142(2) 0.2238(4)
C5_16 C 0.81466(18) 0.87470(19) 0.0567(3)
C6_13 C 0.64729(19) 0.68935(18) 0.3674(4)
C7_16 C 0.82540(17) 0.90779(19) 0.0885(3)
H3_16 H 0.8382 0.9281 0.0590
C8_16 C 0.79531(17) 0.84499(19) 0.1000(4)
H4_16 H 0.7874 0.8229 0.0777
C9_16 C 0.78718(16) 0.84695(18) 0.1762(4)
C10_17 C 0.5541 0.66670(19) 0.4167
C11_17 C 0.5882 0.66670(19) 0.4167
C12_16 C 0.82734(16) 0.94551(16) 0.1987(3)
C13_13 C 0.6763(2) 0.7139(2) 0.3146(5)
C15_17 C 0.6519 0.6667(2) 0.4167
H5_17 H 0.6732 0.6667 0.4167
O1_13 O 0.6689(2) 0.7260(2) 0.2588(5)
O2_10 O 0.70709(14) 0.72164(14) 0.3324(3)
O3_13 O 0.53570(16) 0.65577(13) 0.4755(3)
O4_16 O 0.75518(11) 0.78494(14) 0.1892(3)
O5_16 O 0.76443(15) 0.8168(2) 0.2935(4)
C16_16 C 0.87989(18) 0.79852(15) 0.2915(3)
H6_16 H 0.8816 0.7937 0.2400
C17_16 C 0.91042(17) 0.81696(15) 0.3355(3)
C18_13 C 0.59310(25) 0.64498(17) 0.4670(4)
H7_13 H 0.5754 0.6310 0.5016
C19_16 C 0.8142(2) 0.76745(18) 0.2762(4)
C20_16 C 0.87470(19) 0.81466(18) 0.4433(3)
C21_13 C 0.62461(26) 0.64399(18) 0.4660(4)
C22_16 C 0.90779(19) 0.82540(17) 0.4115(3)
H8_16 H 0.9281 0.8382 0.4410
C23_16 C 0.84499(19) 0.79531(17) 0.4000(4)
H9_16 H 0.8229 0.7874 0.4223
C24_16 C 0.84695(18) 0.78718(16) 0.3238(4)
C25_16 C 0.94551(16) 0.82734(16) 0.3013(3)
C26_13 C 0.6291(3) 0.6195(2) 0.5188(5)
C27_16 C 0.8723(2) 0.8250(2) 0.5251(4)
O10_13 O 0.6096(3) 0.6074(2) 0.5746(5)
O12_16 O 0.72164(14) 0.70709(14) 0.1676(3)
O13_13 O 0.54660(21) 0.67757(13) 0.3579(3)
O14_16 O 0.78494(14) 0.75518(11) 0.3108(3)
O15_16 O 0.8168(2) 0.76443(15) 0.2065(4)
O19_16 O 0.8978(3) 0.8476(2) 0.5588(4)
C14_16 C 0.8250(2) 0.8723(2) 0.9749(4)
O7_16 O 0.8476(2) 0.8978(3) 0.9412(4)
Zn2_13 Zn 0.2574 0.00001(2) 0.2500
H5_18 H 0.3333 0.0066 0.4167
C16_17 C 0.20148(15) 0.08136(23) 0.2915(3)
H6_17 H 0.2063 0.0878 0.2400
C17_17 C 0.18304(15) 0.09345(23) 0.3355(3)
C19_17 C 0.23255(18) 0.04671(27) 0.2762(4)
C20_17 C 0.18534(18) 0.06003(26) 0.4433(3)
C22_17 C 0.17460(17) 0.08238(25) 0.4115(3)
H8_17 H 0.1618 0.0898 0.4410
C23_17 C 0.20469(17) 0.04967(25) 0.4000(4)
H9_17 H 0.2126 0.0354 0.4223
C24_17 C 0.21282(16) 0.05976(24) 0.3238(4)
C25_17 C 0.17266(16) 0.11816(23) 0.3013(3)
C26_14 C 0.3805(2) 0.0097(4) 0.5188(5)
C27_17 C 0.1750(2) 0.0472(3) 0.5251(4)
O10_14 O 0.3926(2) 0.0023(4) 0.5746(5)
O12_17 O 0.29291(14) 0.01454(20) 0.1676(3)
O14_17 O 0.24482(11) 0.02975(18) 0.3108(3)
O15_17 O 0.23557(15) 0.05233(25) 0.2065(4)
O19_17 O 0.1524(2) 0.0501(4) 0.5588(4)
Zn2_14 Zn 0.2574 1.00001(2) 0.2500
C1_17 C 0.12011(18) 0.91864(23) 0.2085(3)
H1_17 H 0.1184 0.9122 0.2600
C2_17 C 0.08958(17) 0.90655(23) 0.1645(3)
C3_14 C 0.31164(17) 0.92644(25) 0.3664(4)
H2_14 H 0.2976 0.9088 0.3318
C4_17 C 0.1858(2) 0.95329(27) 0.2238(4)
C5_17 C 0.12530(19) 0.93997(26) 0.0567(3)
C6_14 C 0.31065(18) 0.95795(26) 0.3674(4)
C7_17 C 0.09221(19) 0.91762(25) 0.0885(3)
H3_17 H 0.0719 0.9102 0.0590
C8_17 C 0.15501(19) 0.95033(25) 0.1000(4)
H4_17 H 0.1771 0.9646 0.0777
C9_17 C 0.15305(18) 0.94024(24) 0.1762(4)
C10_18 C 0.33330(19) 0.88744(19) 0.4167
C11_18 C 0.33330(19) 0.92154(19) 0.4167
C12_17 C 0.05449(16) 0.88184(23) 0.1987(3)
C13_14 C 0.2861(2) 0.9625(3) 0.3146(5)
C15_18 C 0.3333(2) 0.9853(2) 0.4167
O1_14 O 0.2740(2) 0.9430(3) 0.2588(5)
O2_11 O 0.27836(14) 0.98546(20) 0.3324(3)
O3_14 O 0.34423(13) 0.87994(21) 0.4755(3)
O4_17 O 0.21506(14) 0.97025(18) 0.1892(3)
O5_17 O 0.1832(2) 0.94767(25) 0.2935(4)
C18_14 C 0.35502(17) 0.94813(30) 0.4670(4)
H7_14 H 0.3690 0.9445 0.5016
C21_14 C 0.35601(18) 0.98063(32) 0.4660(4)
O13_14 O 0.32243(13) 0.86904(25) 0.3579(3)
C14_17 C 0.1277(2) 0.9528(3) 0.9749(4)
O7_17 O 0.1022(3) 0.9499(4) 0.9412(4)
Zn2_15 Zn -0.00001(2) 0.25743(2) 0.2500
C1_18 C 0.08136(23) 0.20148(15) 0.2085(3)
H1_18 H 0.0878 0.2063 0.2600
C2_18 C 0.09345(23) 0.18304(15) 0.1645(3)
C3_15 C 0.07356(25) 0.38521(18) 0.3664(4)
H2_15 H 0.0912 0.3889 0.3318
C4_18 C 0.04671(27) 0.23255(18) 0.2238(4)
C5_18 C 0.06003(26) 0.18534(18) 0.0567(3)
C6_15 C 0.04205(26) 0.35271(19) 0.3674(4)
C7_18 C 0.08238(25) 0.17460(17) 0.0885(3)
H3_18 H 0.0898 0.1618 0.0590
C8_18 C 0.04967(25) 0.20469(17) 0.1000(4)
H4_18 H 0.0354 0.2126 0.0777
C9_18 C 0.05976(24) 0.21282(16) 0.1762(4)
C10_19 C 0.11256(19) 0.4459 0.4167
C11_19 C 0.07846(19) 0.4118 0.4167
C12_18 C 0.11816(23) 0.17266(16) 0.1987(3)
C13_15 C 0.0375(3) 0.3237(2) 0.3146(5)
C15_19 C 0.0147(2) 0.3481 0.4167
O1_15 O 0.0570(3) 0.3311(2) 0.2588(5)
O2_12 O 0.01454(20) 0.29291(14) 0.3324(3)
O3_15 O 0.12006(21) 0.46430(16) 0.4755(3)
O4_18 O 0.02975(18) 0.24482(11) 0.1892(3)
O5_18 O 0.05233(25) 0.23557(15) 0.2935(4)
C18_15 C 0.05187(30) 0.40690(25) 0.4670(4)
H7_15 H 0.0555 0.4246 0.5016
C21_15 C 0.01937(32) 0.37539(26) 0.4660(4)
O13_15 O 0.13096(25) 0.45340(21) 0.3579(3)
C14_18 C 0.0472(3) 0.1750(2) 0.9749(4)
O7_18 O 0.0501(4) 0.1524(2) 0.9412(4)
Zn2_16 Zn 0.99999(2) 0.25743(2) 0.2500
H5_19 H 0.9934 0.3268 0.4167
C16_18 C 0.91864(23) 0.12011(18) 0.2915(3)
H6_18 H 0.9122 0.1184 0.2400
C17_18 C 0.90655(23) 0.08958(17) 0.3355(3)
C19_18 C 0.95329(27) 0.1858(2) 0.2762(4)
C20_18 C 0.93997(26) 0.12530(19) 0.4433(3)
C22_18 C 0.91762(25) 0.09221(19) 0.4115(3)
H8_18 H 0.9102 0.0719 0.4410
C23_18 C 0.95033(25) 0.15501(19) 0.4000(4)
H9_18 H 0.9646 0.1771 0.4223
C24_18 C 0.94024(24) 0.15305(18) 0.3238(4)
C25_18 C 0.88184(23) 0.05449(16) 0.3013(3)
C26_15 C 0.9903(4) 0.3709(3) 0.5188(5)
C27_18 C 0.9528(3) 0.1277(2) 0.5251(4)
O10_15 O 0.9977(4) 0.3904(3) 0.5746(5)
O12_18 O 0.98546(20) 0.27836(14) 0.1676(3)
O14_18 O 0.97025(18) 0.21506(14) 0.3108(3)
O15_18 O 0.94767(25) 0.1832(2) 0.2065(4)
O19_18 O 0.9499(4) 0.1022(3) 0.5588(4)
H5_20 H 0.0066 0.3333 0.0833
C13_16 C 0.0097(2) 0.3805(2) 0.9812(5)
O1_16 O 0.0023(2) 0.3926(2) 0.9254(5)
C3_16 C 0.94813(18) 0.35502(17) 0.0330(4)
C6_16 C 0.98063(19) 0.35601(18) 0.0340(4)
C10_20 C 0.8875 0.33336(19) 0.0833
C11_20 C 0.9216 0.33336(19) 0.0833
C15_20 C 0.9853 0.3333(2) 0.0833
O3_16 O 0.86904(16) 0.32243(13) 0.1421(3)
C18_16 C 0.92644(25) 0.31164(17) 0.1336(4)
H7_16 H 0.9088 0.2976 0.1682
C21_16 C 0.95795(26) 0.31065(18) 0.1326(4)
C26_16 C 0.9625(3) 0.2861(2) 0.1854(5)
O10_16 O 0.9430(3) 0.2740(2) 0.2412(5)
O13_16 O 0.87994(21) 0.34423(13) 0.0245(3)
H2_16 H 0.9445 0.3690 0.9984
C3_17 C 0.64498(17) 0.59310(25) 0.0330(4)
C6_17 C 0.64399(18) 0.62461(26) 0.0340(4)
C10_21 C 0.66664(19) 0.55410(19) 0.0833
C11_21 C 0.66664(19) 0.58820(19) 0.0833
C15_21 C 0.6667(2) 0.6519(2) 0.0833
H5_21 H 0.6667 0.6732 0.0833
O3_17 O 0.67757(13) 0.54660(21) 0.1421(3)
C18_17 C 0.68836(17) 0.61479(30) 0.1336(4)
H7_17 H 0.7024 0.6111 0.1682
C21_17 C 0.68935(18) 0.64729(32) 0.1326(4)
C26_17 C 0.7139(2) 0.6763(4) 0.1854(5)
O10_17 O 0.7260(2) 0.6689(4) 0.2412(5)
O13_17 O 0.65577(13) 0.53570(25) 0.0245(3)
H2_17 H 0.6310 0.5754 0.9984
C13_17 C 0.6195(2) 0.6291(3) 0.9812(5)
O1_17 O 0.6074(2) 0.6096(3) 0.9254(5)
C3_18 C 0.40690(25) 0.05187(18) 0.0330(4)
C6_18 C 0.37539(26) 0.01937(19) 0.0340(4)
C10_22 C 0.44590(19) 0.1125 0.0833
C11_22 C 0.41180(19) 0.0784 0.0833
C15_22 C 0.3481(2) 0.0147 0.0833
O3_18 O 0.45340(21) 0.13096(16) 0.1421(3)
C18_18 C 0.38521(30) 0.07356(25) 0.1336(4)
H7_18 H 0.3889 0.0912 0.1682
C21_18 C 0.35271(32) 0.04205(26) 0.1326(4)
C26_18 C 0.3237(4) 0.0375(3) 0.1854(5)
O10_18 O 0.3311(4) 0.0570(3) 0.2412(5)
O13_18 O 0.46430(25) 0.12006(21) 0.0245(3)
H2_18 H 0.4246 0.0555 0.9984
H5_22 H 0.3268 0.9934 0.0833
C13_18 C 0.3709(3) 0.9903(2) 0.9812(5)
O1_18 O 0.3904(3) 0.9977(2) 0.9254(5)
loop_
_geom_bond_atom_site_label_1
_geom_bond_atom_site_label_2
_geom_bond_site_symmetry_1
_geom_bond_site_symmetry_2
Zn1 O3 1_555 1_555
H5 C15 1_555 1_555
Zn10 O11 1_555 1_555
H7 C18 1_555 1_555
C21 C15 1_555 1_555
C26 C21 1_555 1_555
O10 C26 1_555 1_555
O11 C26 1_555 1_555
O17 Zn1 1_555 1_555
O24 Zn1 1_555 1_555
C18 C21 1_555 1_555
Zn2 O2 1_555 1_555
C1 H1 1_555 1_555
C2 C1 1_555 1_555
C3 H2 1_555 1_555
C4 C9 1_555 1_555
C5 C7 1_555 1_555
C6 C3 1_555 1_555
C7 C2 1_555 1_555
H3 C7 1_555 1_555
C8 C5 1_555 1_555
H4 C8 1_555 1_555
C9 C1 1_555 1_555
C10 C11 1_555 1_555
C11 C3 1_555 1_555
C12 C2 1_555 1_555
C13 C6 1_555 1_555
C14 C5 1_555 1_555
C15_2 C6 1_555 1_555
H5_2 C15_2 1_555 1_555
O1 C13 1_555 1_555
O2 C13 1_555 1_555
O4 Zn2 1_555 1_555
O5 C4 1_555 1_555
O6 C14 1_555 1_555
O7 C14 1_555 1_555
O8 C12 1_555 1_555
O9 C12 1_555 1_555
Zn3 O13 1_555 1_555
Zn4 O6 1_555 1_555
Zn5 O8 1_555 1_555
Zn6 O9 1_555 1_555
Zn7 O16 1_555 1_555
Zn8 O20 1_555 1_555
Zn9 O23 1_555 1_555
C16 H6 1_555 1_555
C17 C16 1_555 1_555
C19 C24 1_555 1_555
C20 C22 1_555 1_555
C22 C17 1_555 1_555
H8 C22 1_555 1_555
C23 C20 1_555 1_555
H9 C23 1_555 1_555
C24 C16 1_555 1_555
C25 C17 1_555 1_555
C27 C20 1_555 1_555
O12 Zn2 1_555 1_555
O13 C10 1_555 1_555
O14 Zn2 1_555 1_555
O15 C19 1_555 1_555
O16 C27 1_555 1_555
O18 Zn3 1_555 1_555
O19 C27 1_555 1_555
O20 C25 1_555 1_555
O23 C25 1_555 1_555
O25 Zn3 1_555 1_555
C4 O4 1_555 1_555
C8 C9 1_555 1_555
C19 O14 1_555 1_555
C23 C24 1_555 1_555
Zn2_2 O2_2 1_555 1_555
C1_2 H1_2 1_555 1_555
C2_2 C1_2 1_555 1_555
C3_2 H2_2 1_555 1_555
C4_2 C9_2 1_555 1_555
C5_2 C7_2 1_555 1_555
C6_2 C3_2 1_555 1_555
C7_2 C2_2 1_555 1_555
H3_2 C7_2 1_555 1_555
C8_2 C5_2 1_555 1_555
H4_2 C8_2 1_555 1_555
C9_2 C1_2 1_555 1_555
C10_2 C11_2 1_555 1_555
C11_2 C3_2 1_555 1_555
C12_2 C2_2 1_555 1_555
C13_2 C6_2 1_555 1_555
C14_2 C5_2 1_555 1_555
C15_3 C6_2 1_555 1_555
H5_3 C15_3 1_555 1_555
O1_2 C13_2 1_555 1_555
O2_2 C13_2 1_555 1_555
O4_2 Zn2_2 1_555 1_555
O5_2 C4_2 1_555 1_555
O6_2 C14_2 1_555 1_555
O7_2 C14_2 1_555 1_555
O8_2 C12_2 1_555 1_555
O9_2 C12_2 1_555 1_555
Zn3_2 O13_2 1_555 1_555
Zn4_2 O6_2 1_555 1_555
Zn9 O8_2 1_555 1_555
Zn8 O9_2 1_555 1_555
Zn7_2 O16_2 1_555 1_555
Zn8_2 O20_2 1_555 1_555
Zn9_2 O23_2 1_555 1_555
C16_2 H6_2 1_555 1_555
C17_2 C16_2 1_555 1_555
C19_2 C24_2 1_555 1_555
C20_2 C22_2 1_555 1_555
C22_2 C17_2 1_555 1_555
H8_2 C22_2 1_555 1_555
C23_2 C20_2 1_555 1_555
H9_2 C23_2 1_555 1_555
C24_2 C16_2 1_555 1_555
C25_2 C17_2 1_555 1_555
C27_2 C20_2 1_555 1_555
O12_2 Zn2_2 1_555 1_555
O13_2 C10_2 1_555 1_555
O14_2 Zn2_2 1_555 1_555
O15_2 C19_2 1_555 1_555
O16_2 C27_2 1_555 1_555
O18_2 Zn3_2 1_555 1_555
O19_2 C27_2 1_555 1_555
O20_2 C25_2 1_555 1_555
O23_2 C25_2 1_555 1_555
O25_2 Zn3_2 1_555 1_555
C4_2 O4_2 1_555 1_555
C8_2 C9_2 1_555 1_555
C19_2 O14_2 1_555 1_555
C23_2 C24_2 1_555 1_555
Zn1_2 O3_2 1_555 1_555
H5_4 C15_4 1_555 1_555
Zn10_2 O11_2 1_555 1_555
H7_2 C18_2 1_555 1_555
C21_2 C15_4 1_555 1_555
C26_2 C21_2 1_555 1_555
O10_2 C26_2 1_555 1_555
O11_2 C26_2 1_555 1_555
O17_2 Zn1_2 1_555 1_555
O24_2 Zn1_2 1_555 1_555
C18_2 C21_2 1_555 1_555
Zn1_3 O3_3 1_555 1_555
Zn2_3 O2_3 1_555 1_555
C1_3 H1_3 1_555 1_555
C2_3 C1_3 1_555 1_555
C3_3 H2_3 1_555 1_555
C4_3 C9_3 1_555 1_555
C5_3 C7_3 1_555 1_555
C6_3 C3_3 1_555 1_555
C7_3 C2_3 1_555 1_555
H3_3 C7_3 1_555 1_555
C8_3 C5_3 1_555 1_555
H4_3 C8_3 1_555 1_555
C9_3 C1_3 1_555 1_555
C10_3 C11_3 1_555 1_555
C11_3 C3_3 1_555 1_555
C12_3 C2_3 1_555 1_555
C13_3 C6_3 1_555 1_555
C14_3 C5_3 1_555 1_555
C15_5 C6_3 1_555 1_555
H5_5 C15_5 1_555 1_555
O1_3 C13_3 1_555 1_555
O2_3 C13_3 1_555 1_555
O3_3 C10_3 1_555 1_555
O4_3 Zn2_3 1_555 1_555
O5_3 C4_3 1_555 1_555
O6_3 C14_3 1_555 1_555
O7_3 C14_3 1_555 1_555
O8_3 C12_3 1_555 1_555
O9_3 C12_3 1_555 1_555
Zn3_3 O13_3 1_555 1_555
Zn4_3 O6_3 1_555 1_555
Zn9_2 O8_3 1_555 1_555
Zn8_2 O9_3 1_555 1_555
Zn7_3 O16_3 1_555 1_555
Zn6 O20_3 1_555 1_555
Zn5 O23_3 1_555 1_555
Zn10_3 O11_3 1_555 1_555
C16_3 H6_3 1_555 1_555
C17_3 C16_3 1_555 1_555
C18_3 C11_3 1_555 1_555
H7_3 C18_3 1_555 1_555
C19_3 C24_3 1_555 1_555
C20_3 C22_3 1_555 1_555
C21_3 C15_5 1_555 1_555
C22_3 C17_3 1_555 1_555
H8_3 C22_3 1_555 1_555
C23_3 C20_3 1_555 1_555
H9_3 C23_3 1_555 1_555
C24_3 C16_3 1_555 1_555
C25_3 C17_3 1_555 1_555
C26_3 C21_3 1_555 1_555
C27_3 C20_3 1_555 1_555
O10_3 C26_3 1_555 1_555
O11_3 C26_3 1_555 1_555
O12_3 Zn2_3 1_555 1_555
O13_3 C10_3 1_555 1_555
O14_3 Zn2_3 1_555 1_555
O15_3 C19_3 1_555 1_555
O16_3 C27_3 1_555 1_555
O17_3 Zn1_3 1_555 1_555
O18_3 Zn3_3 1_555 1_555
O19_3 C27_3 1_555 1_555
O20_3 C25_3 1_555 1_555
O21_3 Zn1_3 1_555 1_555
O22_3 Zn3_3 1_555 1_555
O23_3 C25_3 1_555 1_555
O24_3 Zn1_3 1_555 1_555
O25_3 Zn3_3 1_555 1_555
C4_3 O4_3 1_555 1_555
C8_3 C9_3 1_555 1_555
C18_3 C21_3 1_555 1_555
C19_3 O14_3 1_555 1_555
C23_3 C24_3 1_555 1_555
C1_4 H1_4 1_555 1_555
C4_4 C9_4 1_555 1_555
C9_4 C1_4 1_555 1_555
C10_4 C11_4 1_555 1_555
C11_4 C18 1_555 1_555
O4_4 Zn10 1_555 1_555
O5_4 C4_4 1_555 1_555
O9_4 C12_4 1_555 1_555
Zn6_2 O9_4 1_555 1_555
Zn7_4 O16_4 1_555 1_555
Zn8_3 O20_4 1_555 1_555
C16_4 H6_4 1_555 1_555
C17_4 C16_4 1_555 1_555
C19_4 C24_4 1_555 1_555
C20_4 C22_4 1_555 1_555
C22_4 C17_4 1_555 1_555
H8_4 C22_4 1_555 1_555
C23_4 C20_4 1_555 1_555
H9_4 C23_4 1_555 1_555
C24_4 C16_4 1_555 1_555
C25_4 C17_4 1_555 1_555
C27_4 C20_4 1_555 1_555
O12_4 Zn10 1_555 1_555
O3 C10_4 1_555 1_555
O14_4 Zn10 1_555 1_555
O15_4 C19_4 1_555 1_555
O16_4 C27_4 1_555 1_555
O19_4 C27_4 1_555 1_555
O20_4 C25_4 1_555 1_555
O23_4 C25_4 1_555 1_555
C4_4 O4_4 1_555 1_555
C19_4 O14_4 1_555 1_555
C23_4 C24_4 1_555 1_555
C5_4 C7_4 1_555 1_555
C7_4 C2_4 1_555 1_555
H3_4 C7_4 1_555 1_555
C8_4 C5_4 1_555 1_555
H4_4 C8_4 1_555 1_555
C14_4 C5_4 1_555 1_555
O6_4 C14_4 1_555 1_555
O7_4 C14_4 1_555 1_555
Zn4_4 O6_4 1_555 1_555
Zn5_2 O8_4 1_555 1_555
C1_5 H1_5 1_555 1_555
C4_5 C9_5 1_555 1_555
C9_5 C1_5 1_555 1_555
O4_5 Zn10_3 1_555 1_555
O5_5 C4_5 1_555 1_555
O9_5 C12_5 1_555 1_555
Zn8_3 O9_5 1_555 1_555
Zn7_5 O16_5 1_555 1_555
Zn8_4 O20_5 1_555 1_555
C16_5 H6_5 1_555 1_555
C17_5 C16_5 1_555 1_555
C19_5 C24_5 1_555 1_555
C20_5 C22_5 1_555 1_555
C22_5 C17_5 1_555 1_555
H8_5 C22_5 1_555 1_555
C23_5 C20_5 1_555 1_555
H9_5 C23_5 1_555 1_555
C24_5 C16_5 1_555 1_555
C25_5 C17_5 1_555 1_555
C27_5 C20_5 1_555 1_555
O12_5 Zn10_3 1_555 1_555
O14_5 Zn10_3 1_555 1_555
O15_5 C19_5 1_555 1_555
O16_5 C27_5 1_555 1_555
O19_5 C27_5 1_555 1_555
O20_5 C25_5 1_555 1_555
O23_5 C25_5 1_555 1_555
C4_5 O4_5 1_555 1_555
C19_5 O14_5 1_555 1_555
C23_5 C24_5 1_555 1_555
C5_5 C7_5 1_555 1_555
C7_5 C2_5 1_555 1_555
H3_5 C7_5 1_555 1_555
C8_5 C5_5 1_555 1_555
H4_5 C8_5 1_555 1_555
C14_5 C5_5 1_555 1_555
O6_5 C14_5 1_555 1_555
O7_5 C14_5 1_555 1_555
Zn4_5 O6_5 1_555 1_555
Zn9_3 O8_5 1_555 1_555
C1_6 H1_6 1_555 1_555
C4_6 C9_6 1_555 1_555
C9_6 C1_6 1_555 1_555
C10_5 C11_5 1_555 1_555
C11_5 C18_2 1_555 1_555
O4_6 Zn10_2 1_555 1_555
O5_6 C4_6 1_555 1_555
O9_6 C12_6 1_555 1_555
Zn8_4 O9_6 1_555 1_555
Zn7_6 O16_6 1_555 1_555
Zn6_2 O20_6 1_555 1_555
C16_6 H6_6 1_555 1_555
C17_6 C16_6 1_555 1_555
C19_6 C24_6 1_555 1_555
C20_6 C22_6 1_555 1_555
C22_6 C17_6 1_555 1_555
H8_6 C22_6 1_555 1_555
C23_6 C20_6 1_555 1_555
H9_6 C23_6 1_555 1_555
C24_6 C16_6 1_555 1_555
C25_6 C17_6 1_555 1_555
C27_6 C20_6 1_555 1_555
O12_6 Zn10_2 1_555 1_555
O3_2 C10_5 1_555 1_555
O14_6 Zn10_2 1_555 1_555
O15_6 C19_6 1_555 1_555
O16_6 C27_6 1_555 1_555
O19_6 C27_6 1_555 1_555
O20_6 C25_6 1_555 1_555
O23_6 C25_6 1_555 1_555
C4_6 O4_6 1_555 1_555
C19_6 O14_6 1_555 1_555
C23_6 C24_6 1_555 1_555
C5_6 C7_6 1_555 1_555
C7_6 C2_6 1_555 1_555
H3_6 C7_6 1_555 1_555
C8_6 C5_6 1_555 1_555
H4_6 C8_6 1_555 1_555
C14_6 C5_6 1_555 1_555
O6_6 C14_6 1_555 1_555
O7_6 C14_6 1_555 1_555
Zn4_6 O6_6 1_555 1_555
Zn9_4 O8_6 1_555 1_555
O17_3 C14_7 1_555 1_555
O7_7 C14_7 1_555 1_555
Zn7_5 O3_4 1_555 1_555
Zn2_4 O2_4 1_555 1_555
C1_7 H1_7 1_555 1_555
C2_7 C1_7 1_555 1_555
C3_4 H2_4 1_555 1_555
C4_7 C9_7 1_555 1_555
C5_7 C7_7 1_555 1_555
C6_4 C3_4 1_555 1_555
C7_7 C2_7 1_555 1_555
H3_7 C7_7 1_555 1_555
C8_7 C5_7 1_555 1_555
H4_7 C8_7 1_555 1_555
C9_7 C1_7 1_555 1_555
C10_6 C11_6 1_555 1_555
C11_6 C3_4 1_555 1_555
C12_7 C2_7 1_555 1_555
C13_4 C6_4 1_555 1_555
C15_6 C6_4 1_555 1_555
H5_6 C15_6 1_555 1_555
O1_4 C13_4 1_555 1_555
O2_4 C13_4 1_555 1_555
O3_4 C10_6 1_555 1_555
O4_7 Zn2_4 1_555 1_555
O5_7 C4_7 1_555 1_555
O8_7 C12_7 1_555 1_555
O9_7 C12_7 1_555 1_555
Zn4_5 O13_4 1_555 1_555
Zn6_3 O9_7 1_555 1_555
Zn9_5 O23_7 1_555 1_555
C16_7 H6_7 1_555 1_555
C17_7 C16_7 1_555 1_555
C18_4 C11_6 1_555 1_555
H7_4 C18_4 1_555 1_555
C19_7 C24_7 1_555 1_555
C20_7 C22_7 1_555 1_555
C21_4 C15_6 1_555 1_555
C22_7 C17_7 1_555 1_555
H8_7 C22_7 1_555 1_555
C23_7 C20_7 1_555 1_555
H9_7 C23_7 1_555 1_555
C24_7 C16_7 1_555 1_555
C25_7 C17_7 1_555 1_555
C26_4 C21_4 1_555 1_555
C27_7 C20_7 1_555 1_555
O10_4 C26_4 1_555 1_555
O12_3 C26_4 1_555 1_555
O12_7 Zn2_4 1_555 1_555
O13_4 C10_6 1_555 1_555
O14_7 Zn2_4 1_555 1_555
O15_7 C19_7 1_555 1_555
O18_3 C27_7 1_555 1_555
O19_7 C27_7 1_555 1_555
O20_7 C25_7 1_555 1_555
O21_4 Zn7_5 1_555 1_555
O22_4 Zn4_5 1_555 1_555
O23_7 C25_7 1_555 1_555
O24_4 Zn7_5 1_555 1_555
O25_4 Zn4_5 1_555 1_555
C4_7 O4_7 1_555 1_555
C8_7 C9_7 1_555 1_555
C18_4 C21_4 1_555 1_555
C19_7 O14_7 1_555 1_555
C23_7 C24_7 1_555 1_555
O17 C14_8 1_555 1_555
O7_8 C14_8 1_555 1_555
Zn7_4 O3_5 1_555 1_555
Zn2_5 O2_5 1_555 1_555
C1_8 H1_8 1_555 1_555
C2_8 C1_8 1_555 1_555
C3_5 H2_5 1_555 1_555
C4_8 C9_8 1_555 1_555
C5_8 C7_8 1_555 1_555
C6_5 C3_5 1_555 1_555
C7_8 C2_8 1_555 1_555
H3_8 C7_8 1_555 1_555
C8_8 C5_8 1_555 1_555
H4_8 C8_8 1_555 1_555
C9_8 C1_8 1_555 1_555
C10_7 C11_7 1_555 1_555
C11_7 C3_5 1_555 1_555
C12_8 C2_8 1_555 1_555
C13_5 C6_5 1_555 1_555
C15_7 C6_5 1_555 1_555
O1_5 C13_5 1_555 1_555
O2_5 C13_5 1_555 1_555
O3_5 C10_7 1_555 1_555
O4_8 Zn2_5 1_555 1_555
O5_8 C4_8 1_555 1_555
O8_8 C12_8 1_555 1_555
O9_8 C12_8 1_555 1_555
Zn4_4 O13_5 1_555 1_555
Zn8_5 O9_8 1_555 1_555
C18_5 C11_7 1_555 1_555
H7_5 C18_5 1_555 1_555
C21_5 C15_7 1_555 1_555
O13_5 C10_7 1_555 1_555
O21_5 Zn7_4 1_555 1_555
O22_5 Zn4_4 1_555 1_555
O24_5 Zn7_4 1_555 1_555
O25_5 Zn4_4 1_555 1_555
C4_8 O4_8 1_555 1_555
C8_8 C9_8 1_555 1_555
C18_5 C21_5 1_555 1_555
Zn8_6 O20_8 1_555 1_555
Zn9_6 O23_8 1_555 1_555
C16_8 H6_8 1_555 1_555
C17_8 C16_8 1_555 1_555
C19_8 C24_8 1_555 1_555
C20_8 C22_8 1_555 1_555
C22_8 C17_8 1_555 1_555
H8_8 C22_8 1_555 1_555
C23_8 C20_8 1_555 1_555
H9_8 C23_8 1_555 1_555
C24_8 C16_8 1_555 1_555
C25_8 C17_8 1_555 1_555
C27_8 C20_8 1_555 1_555
O10_5 C26_5 1_555 1_555
O12 C26_5 1_555 1_555
O12_8 Zn2_6 1_555 1_555
O14_8 Zn2_6 1_555 1_555
O15_8 C19_8 1_555 1_555
O18 C27_8 1_555 1_555
O19_8 C27_8 1_555 1_555
O20_8 C25_8 1_555 1_555
O23_8 C25_8 1_555 1_555
C19_8 O14_8 1_555 1_555
C23_8 C24_8 1_555 1_555
Zn5_3 O23_9 1_555 1_555
C16_9 H6_9 1_555 1_555
C17_9 C16_9 1_555 1_555
C19_9 C24_9 1_555 1_555
C20_9 C22_9 1_555 1_555
C22_9 C17_9 1_555 1_555
H8_9 C22_9 1_555 1_555
C23_9 C20_9 1_555 1_555
H9_9 C23_9 1_555 1_555
C24_9 C16_9 1_555 1_555
C25_9 C17_9 1_555 1_555
C27_9 C20_9 1_555 1_555
O10_6 C26_6 1_555 1_555
O12_2 C26_6 1_555 1_555
O12_9 Zn2_7 1_555 1_555
O14_9 Zn2_7 1_555 1_555
O15_9 C19_9 1_555 1_555
O18_2 C27_9 1_555 1_555
O19_9 C27_9 1_555 1_555
O20_9 C25_9 1_555 1_555
O23_9 C25_9 1_555 1_555
C19_9 O14_9 1_555 1_555
C23_9 C24_9 1_555 1_555
O17_2 C14_9 1_555 1_555
O7_9 C14_9 1_555 1_555
Zn7_6 O3_6 1_555 1_555
Zn2_8 O2_6 1_555 1_555
C1_9 H1_9 1_555 1_555
C2_9 C1_9 1_555 1_555
C3_6 H2_6 1_555 1_555
C4_9 C9_9 1_555 1_555
C5_9 C7_9 1_555 1_555
C6_6 C3_6 1_555 1_555
C7_9 C2_9 1_555 1_555
H3_9 C7_9 1_555 1_555
C8_9 C5_9 1_555 1_555
H4_9 C8_9 1_555 1_555
C9_9 C1_9 1_555 1_555
C10_8 C11_8 1_555 1_555
C11_8 C3_6 1_555 1_555
C12_9 C2_9 1_555 1_555
C13_6 C6_6 1_555 1_555
C15_8 C6_6 1_555 1_555
O1_6 C13_6 1_555 1_555
O2_6 C13_6 1_555 1_555
O3_6 C10_8 1_555 1_555
O4_9 Zn2_8 1_555 1_555
O5_9 C4_9 1_555 1_555
O8_9 C12_9 1_555 1_555
O9_9 C12_9 1_555 1_555
Zn4_6 O13_6 1_555 1_555
Zn9_6 O8_9 1_555 1_555
Zn8_6 O9_9 1_555 1_555
C18_6 C11_8 1_555 1_555
H7_6 C18_6 1_555 1_555
C21_6 C15_8 1_555 1_555
O13_6 C10_8 1_555 1_555
O21_6 Zn7_6 1_555 1_555
O22_6 Zn4_6 1_555 1_555
O24_6 Zn7_6 1_555 1_555
O25_6 Zn4_6 1_555 1_555
C4_9 O4_9 1_555 1_555
C8_9 C9_9 1_555 1_555
C18_6 C21_6 1_555 1_555
O22_7 Zn7_2 1_555 1_555
Zn4_2 O3_7 1_555 1_555
C6_7 C3_7 1_555 1_555
C10_9 C11_9 1_555 1_555
C11_9 C3_7 1_555 1_555
C15_9 C6_7 1_555 1_555
O3_7 C10_9 1_555 1_555
C18_7 C11_9 1_555 1_555
H7_7 C18_7 1_555 1_555
C21_7 C15_9 1_555 1_555
C26_7 C21_7 1_555 1_555
O10_7 C26_7 1_555 1_555
O12_9 C26_7 1_555 1_555
O13_7 C10_9 1_555 1_555
O21_7 Zn4_2 1_555 1_555
O24_7 Zn4_2 1_555 1_555
C18_7 C21_7 1_555 1_555
O1_7 C13_7 1_555 1_555
O12_6 C13_7 1_555 1_555
O1_8 C13_8 1_555 1_555
O12_5 C13_8 1_555 1_555
O22_8 Zn7_3 1_555 1_555
Zn4_3 O3_8 1_555 1_555
C6_8 C3_8 1_555 1_555
C10_10 C11_10 1_555 1_555
C11_10 C3_8 1_555 1_555
C15_10 C6_8 1_555 1_555
H5_10 C15_10 1_555 1_555
O3_8 C10_10 1_555 1_555
C18_8 C11_10 1_555 1_555
H7_8 C18_8 1_555 1_555
C21_8 C15_10 1_555 1_555
C26_8 C21_8 1_555 1_555
O10_8 C26_8 1_555 1_555
O12_7 C26_8 1_555 1_555
O13_8 C10_10 1_555 1_555
O21_8 Zn4_3 1_555 1_555
O24_8 Zn4_3 1_555 1_555
C18_8 C21_8 1_555 1_555
O1_9 C13_9 1_555 1_555
O12_4 C13_9 1_555 1_555
O22_9 Zn7 1_555 1_555
Zn4 O3_9 1_555 1_555
C6_9 C3_9 1_555 1_555
C10_11 C11_11 1_555 1_555
C11_11 C3_9 1_555 1_555
C15_11 C6_9 1_555 1_555
O3_9 C10_11 1_555 1_555
C18_9 C11_11 1_555 1_555
H7_9 C18_9 1_555 1_555
C21_9 C15_11 1_555 1_555
C26_9 C21_9 1_555 1_555
O10_9 C26_9 1_555 1_555
O12_8 C26_9 1_555 1_555
O13_9 C10_11 1_555 1_555
O21_9 Zn4 1_555 1_555
O24_9 Zn4 1_555 1_555
C18_9 C21_9 1_555 1_555
Zn2_9 O2_7 1_555 1_555
C1_10 H1_10 1_555 1_555
C2_10 C1_10 1_555 1_555
C3_10 H2_10 1_555 1_555
C4_10 C9_10 1_555 1_555
C5_10 C7_10 1_555 1_555
C6_10 C3_10 1_555 1_555
C7_10 C2_10 1_555 1_555
H3_10 C7_10 1_555 1_555
C8_10 C5_10 1_555 1_555
H4_10 C8_10 1_555 1_555
C9_10 C1_10 1_555 1_555
C10_12 C11_12 1_555 1_555
C11_12 C3_10 1_555 1_555
C12_10 C2_10 1_555 1_555
C13_10 C6_10 1_555 1_555
C14_10 C5_10 1_555 1_555
C15_12 C6_10 1_555 1_555
H5_12 C15_12 1_555 1_555
O1_10 C13_10 1_555 1_555
O2_7 C13_10 1_555 1_555
O4_10 Zn2_9 1_555 1_555
O5_10 C4_10 1_555 1_555
O6_7 C14_10 1_555 1_555
O7_10 C14_10 1_555 1_555
O21_4 C12_10 1_555 1_555
O25_4 C12_10 1_555 1_555
Zn6_3 O13_10 1_555 1_555
Zn8_3 O6_7 1_555 1_555
Zn9_3 O16_7 1_555 1_555
C16_10 H6_10 1_555 1_555
C17_10 C16_10 1_555 1_555
C19_10 C24_10 1_555 1_555
C20_10 C22_10 1_555 1_555
C22_10 C17_10 1_555 1_555
H8_10 C22_10 1_555 1_555
C23_10 C20_10 1_555 1_555
H9_10 C23_10 1_555 1_555
C24_10 C16_10 1_555 1_555
C25_10 C17_10 1_555 1_555
C27_10 C20_10 1_555 1_555
O12_10 Zn2_9 1_555 1_555
O13_10 C10_12 1_555 1_555
O14_10 Zn2_9 1_555 1_555
O15_10 C19_10 1_555 1_555
O16_7 C27_10 1_555 1_555
O18_4 Zn6_3 1_555 1_555
O19_10 C27_10 1_555 1_555
O22_5 C25_10 1_555 1_555
O24_5 C25_10 1_555 1_555
C4_10 O4_10 1_555 1_555
C8_10 C9_10 1_555 1_555
C19_10 O14_10 1_555 1_555
C23_10 C24_10 1_555 1_555
Zn5_3 O3_10 1_555 1_555
H5_13 C15_13 1_555 1_555
Zn10_4 O11_4 1_555 1_555
H7_10 C18_10 1_555 1_555
C21_10 C15_13 1_555 1_555
C26_10 C21_10 1_555 1_555
O10_10 C26_10 1_555 1_555
O11_4 C26_10 1_555 1_555
O17_4 Zn5_3 1_555 1_555
C18_10 C21_10 1_555 1_555
Zn9_5 O3_11 1_555 1_555
H5_14 C15_14 1_555 1_555
Zn10_5 O11_5 1_555 1_555
H7_11 C18_11 1_555 1_555
C21_11 C15_14 1_555 1_555
C26_11 C21_11 1_555 1_555
O10_11 C26_11 1_555 1_555
O11_5 C26_11 1_555 1_555
O17_5 Zn9_5 1_555 1_555
C18_11 C21_11 1_555 1_555
Zn2_10 O2_8 1_555 1_555
C1_11 H1_11 1_555 1_555
C2_11 C1_11 1_555 1_555
C3_11 H2_11 1_555 1_555
C4_11 C9_11 1_555 1_555
C5_11 C7_11 1_555 1_555
C6_11 C3_11 1_555 1_555
C7_11 C2_11 1_555 1_555
H3_11 C7_11 1_555 1_555
C8_11 C5_11 1_555 1_555
H4_11 C8_11 1_555 1_555
C9_11 C1_11 1_555 1_555
C10_13 C11_13 1_555 1_555
C11_13 C3_11 1_555 1_555
C12_11 C2_11 1_555 1_555
C13_11 C6_11 1_555 1_555
C14_11 C5_11 1_555 1_555
C15_15 C6_11 1_555 1_555
H5_15 C15_15 1_555 1_555
O1_11 C13_11 1_555 1_555
O2_8 C13_11 1_555 1_555
O4_11 Zn2_10 1_555 1_555
O5_11 C4_11 1_555 1_555
O6_8 C14_11 1_555 1_555
O7_11 C14_11 1_555 1_555
O21_5 C12_11 1_555 1_555
O25_5 C12_11 1_555 1_555
Zn8_5 O13_11 1_555 1_555
Zn6_2 O6_8 1_555 1_555
Zn5_2 O16_8 1_555 1_555
C16_11 H6_11 1_555 1_555
C17_11 C16_11 1_555 1_555
C19_11 C24_11 1_555 1_555
C20_11 C22_11 1_555 1_555
C22_11 C17_11 1_555 1_555
H8_11 C22_11 1_555 1_555
C23_11 C20_11 1_555 1_555
H9_11 C23_11 1_555 1_555
C24_11 C16_11 1_555 1_555
C25_11 C17_11 1_555 1_555
C27_11 C20_11 1_555 1_555
O12_11 Zn2_10 1_555 1_555
O13_11 C10_13 1_555 1_555
O14_11 Zn2_10 1_555 1_555
O15_11 C19_11 1_555 1_555
O16_8 C27_11 1_555 1_555
O18_5 Zn8_5 1_555 1_555
O19_11 C27_11 1_555 1_555
O22_6 C25_11 1_555 1_555
O24_6 C25_11 1_555 1_555
C4_11 O4_11 1_555 1_555
C8_11 C9_11 1_555 1_555
C19_11 O14_11 1_555 1_555
C23_11 C24_11 1_555 1_555
Zn9_6 O3_12 1_555 1_555
Zn2_11 O2_9 1_555 1_555
C1_12 H1_12 1_555 1_555
C2_12 C1_12 1_555 1_555
C3_12 H2_12 1_555 1_555
C4_12 C9_12 1_555 1_555
C5_12 C7_12 1_555 1_555
C6_12 C3_12 1_555 1_555
C7_12 C2_12 1_555 1_555
H3_12 C7_12 1_555 1_555
C8_12 C5_12 1_555 1_555
H4_12 C8_12 1_555 1_555
C9_12 C1_12 1_555 1_555
C10_14 C11_14 1_555 1_555
C11_14 C3_12 1_555 1_555
C12_12 C2_12 1_555 1_555
C13_12 C6_12 1_555 1_555
C14_12 C5_12 1_555 1_555
C15_16 C6_12 1_555 1_555
H5_16 C15_16 1_555 1_555
O1_12 C13_12 1_555 1_555
O2_9 C13_12 1_555 1_555
O3_12 C10_14 1_555 1_555
O4_12 Zn2_11 1_555 1_555
O5_12 C4_12 1_555 1_555
O6_9 C14_12 1_555 1_555
O7_12 C14_12 1_555 1_555
O21_6 C12_12 1_555 1_555
O25_6 C12_12 1_555 1_555
Zn8_6 O13_12 1_555 1_555
Zn8_4 O6_9 1_555 1_555
Zn9_4 O16_9 1_555 1_555
Zn10_6 O11_6 1_555 1_555
C16_12 H6_12 1_555 1_555
C17_12 C16_12 1_555 1_555
C18_12 C11_14 1_555 1_555
H7_12 C18_12 1_555 1_555
C19_12 C24_12 1_555 1_555
C20_12 C22_12 1_555 1_555
C21_12 C15_16 1_555 1_555
C22_12 C17_12 1_555 1_555
H8_12 C22_12 1_555 1_555
C23_12 C20_12 1_555 1_555
H9_12 C23_12 1_555 1_555
C24_12 C16_12 1_555 1_555
C25_12 C17_12 1_555 1_555
C26_12 C21_12 1_555 1_555
C27_12 C20_12 1_555 1_555
O10_12 C26_12 1_555 1_555
O11_6 C26_12 1_555 1_555
O12_12 Zn2_11 1_555 1_555
O13_12 C10_14 1_555 1_555
O14_12 Zn2_11 1_555 1_555
O15_12 C19_12 1_555 1_555
O16_9 C27_12 1_555 1_555
O17_6 Zn9_6 1_555 1_555
O18_6 Zn8_6 1_555 1_555
O19_12 C27_12 1_555 1_555
O22_4 C25_12 1_555 1_555
O24_4 C25_12 1_555 1_555
C4_12 O4_12 1_555 1_555
C8_12 C9_12 1_555 1_555
C18_12 C21_12 1_555 1_555
C19_12 O14_12 1_555 1_555
C23_12 C24_12 1_555 1_555
C5_13 C7_13 1_555 1_555
C7_13 C2_13 1_555 1_555
H3_13 C7_13 1_555 1_555
C8_13 C5_13 1_555 1_555
H4_13 C8_13 1_555 1_555
C14_13 C5_13 1_555 1_555
O6_10 C14_13 1_555 1_555
O7_13 C14_13 1_555 1_555
Zn8 O6_10 1_555 1_555
C1_13 H1_13 1_555 1_555
C4_13 C9_13 1_555 1_555
C9_13 C1_13 1_555 1_555
C10_15 C11_15 1_555 1_555
C11_15 C18_10 1_555 1_555
O4_13 Zn10_4 1_555 1_555
O5_13 C4_13 1_555 1_555
O24_7 C12_13 1_555 1_555
Zn9 O16_10 1_555 1_555
C16_13 H6_13 1_555 1_555
C17_13 C16_13 1_555 1_555
C19_13 C24_13 1_555 1_555
C20_13 C22_13 1_555 1_555
C22_13 C17_13 1_555 1_555
H8_13 C22_13 1_555 1_555
C23_13 C20_13 1_555 1_555
H9_13 C23_13 1_555 1_555
C24_13 C16_13 1_555 1_555
C25_13 C17_13 1_555 1_555
C27_13 C20_13 1_555 1_555
O12_13 Zn10_4 1_555 1_555
O3_10 C10_15 1_555 1_555
O14_13 Zn10_4 1_555 1_555
O15_13 C19_13 1_555 1_555
O16_10 C27_13 1_555 1_555
O19_13 C27_13 1_555 1_555
O21_9 C25_13 1_555 1_555
O25_9 C25_13 1_555 1_555
C4_13 O4_13 1_555 1_555
C19_13 O14_13 1_555 1_555
C23_13 C24_13 1_555 1_555
C5_14 C7_14 1_555 1_555
C7_14 C2_14 1_555 1_555
H3_14 C7_14 1_555 1_555
C8_14 C5_14 1_555 1_555
H4_14 C8_14 1_555 1_555
C14_14 C5_14 1_555 1_555
O6_11 C14_14 1_555 1_555
O7_14 C14_14 1_555 1_555
Zn6 O6_11 1_555 1_555
C1_14 H1_14 1_555 1_555
C4_14 C9_14 1_555 1_555
C9_14 C1_14 1_555 1_555
O4_14 Zn10_6 1_555 1_555
O5_14 C4_14 1_555 1_555
O24_9 C12_14 1_555 1_555
Zn5 O16_11 1_555 1_555
C16_14 H6_14 1_555 1_555
C17_14 C16_14 1_555 1_555
C19_14 C24_14 1_555 1_555
C20_14 C22_14 1_555 1_555
C22_14 C17_14 1_555 1_555
H8_14 C22_14 1_555 1_555
C23_14 C20_14 1_555 1_555
H9_14 C23_14 1_555 1_555
C24_14 C16_14 1_555 1_555
C25_14 C17_14 1_555 1_555
C27_14 C20_14 1_555 1_555
O12_14 Zn10_6 1_555 1_555
O14_14 Zn10_6 1_555 1_555
O15_14 C19_14 1_555 1_555
O16_11 C27_14 1_555 1_555
O19_14 C27_14 1_555 1_555
O21_8 C25_14 1_555 1_555
O25_8 C25_14 1_555 1_555
C4_14 O4_14 1_555 1_555
C19_14 O14_14 1_555 1_555
C23_14 C24_14 1_555 1_555
C5_15 C7_15 1_555 1_555
C7_15 C2_15 1_555 1_555
H3_15 C7_15 1_555 1_555
C8_15 C5_15 1_555 1_555
H4_15 C8_15 1_555 1_555
C14_15 C5_15 1_555 1_555
O6_12 C14_15 1_555 1_555
O7_15 C14_15 1_555 1_555
Zn8_2 O6_12 1_555 1_555
C1_15 H1_15 1_555 1_555
C4_15 C9_15 1_555 1_555
C9_15 C1_15 1_555 1_555
C10_16 C11_16 1_555 1_555
C11_16 C18_11 1_555 1_555
O4_15 Zn10_5 1_555 1_555
O5_15 C4_15 1_555 1_555
O24_8 C12_15 1_555 1_555
Zn9_2 O16_12 1_555 1_555
C16_15 H6_15 1_555 1_555
C17_15 C16_15 1_555 1_555
C19_15 C24_15 1_555 1_555
C20_15 C22_15 1_555 1_555
C22_15 C17_15 1_555 1_555
H8_15 C22_15 1_555 1_555
C23_15 C20_15 1_555 1_555
H9_15 C23_15 1_555 1_555
C24_15 C16_15 1_555 1_555
C25_15 C17_15 1_555 1_555
C27_15 C20_15 1_555 1_555
O12_15 Zn10_5 1_555 1_555
O3_11 C10_16 1_555 1_555
O14_15 Zn10_5 1_555 1_555
O15_15 C19_15 1_555 1_555
O16_12 C27_15 1_555 1_555
O19_15 C27_15 1_555 1_555
O21_7 C25_15 1_555 1_555
O25_7 C25_15 1_555 1_555
C4_15 O4_15 1_555 1_555
C19_15 O14_15 1_555 1_555
C23_15 C24_15 1_555 1_555
Zn5 O3_13 1_555 1_555
Zn2_12 O2_10 1_555 1_555
C1_16 H1_16 1_555 1_555
C2_16 C1_16 1_555 1_555
C3_13 H2_13 1_555 1_555
C4_16 C9_16 1_555 1_555
C5_16 C7_16 1_555 1_555
C6_13 C3_13 1_555 1_555
C7_16 C2_16 1_555 1_555
H3_16 C7_16 1_555 1_555
C8_16 C5_16 1_555 1_555
H4_16 C8_16 1_555 1_555
C9_16 C1_16 1_555 1_555
C10_17 C11_17 1_555 1_555
C11_17 C3_13 1_555 1_555
C12_16 C2_16 1_555 1_555
C13_13 C6_13 1_555 1_555
C15_17 C6_13 1_555 1_555
H5_17 C15_17 1_555 1_555
O1_13 C13_13 1_555 1_555
O2_10 C13_13 1_555 1_555
O3_13 C10_17 1_555 1_555
O4_16 Zn2_12 1_555 1_555
O5_16 C4_16 1_555 1_555
O21 C12_16 1_555 1_555
O25 C12_16 1_555 1_555
Zn6 O13_13 1_555 1_555
C16_16 H6_16 1_555 1_555
C17_16 C16_16 1_555 1_555
C18_13 C11_17 1_555 1_555
H7_13 C18_13 1_555 1_555
C19_16 C24_16 1_555 1_555
C20_16 C22_16 1_555 1_555
C21_13 C15_17 1_555 1_555
C22_16 C17_16 1_555 1_555
H8_16 C22_16 1_555 1_555
C23_16 C20_16 1_555 1_555
H9_16 C23_16 1_555 1_555
C24_16 C16_16 1_555 1_555
C25_16 C17_16 1_555 1_555
C26_13 C21_13 1_555 1_555
C27_16 C20_16 1_555 1_555
O10_13 C26_13 1_555 1_555
O12_12 C26_13 1_555 1_555
O12_16 Zn2_12 1_555 1_555
O13_13 C10_17 1_555 1_555
O14_16 Zn2_12 1_555 1_555
O15_16 C19_16 1_555 1_555
O18_6 C27_16 1_555 1_555
O19_16 C27_16 1_555 1_555
O22_2 C25_16 1_555 1_555
O24_2 C25_16 1_555 1_555
C4_16 O4_16 1_555 1_555
C8_16 C9_16 1_555 1_555
C18_13 C21_13 1_555 1_555
C19_16 O14_16 1_555 1_555
C23_16 C24_16 1_555 1_555
O17_6 C14_16 1_555 1_555
O7_16 C14_16 1_555 1_555
C16_17 H6_17 1_555 1_555
C17_17 C16_17 1_555 1_555
C19_17 C24_17 1_555 1_555
C20_17 C22_17 1_555 1_555
C22_17 C17_17 1_555 1_555
H8_17 C22_17 1_555 1_555
C23_17 C20_17 1_555 1_555
H9_17 C23_17 1_555 1_555
C24_17 C16_17 1_555 1_555
C25_17 C17_17 1_555 1_555
C27_17 C20_17 1_555 1_555
O10_14 C26_14 1_555 1_555
O12_10 C26_14 1_555 1_555
O12_17 Zn2_13 1_555 1_555
O14_17 Zn2_13 1_555 1_555
O15_17 C19_17 1_555 1_555
O18_4 C27_17 1_555 1_555
O19_17 C27_17 1_555 1_555
O22_3 C25_17 1_555 1_555
O24_3 C25_17 1_555 1_555
C19_17 O14_17 1_555 1_555
C23_17 C24_17 1_555 1_555
Zn9 O3_14 1_555 1_555
Zn2_14 O2_11 1_555 1_555
C1_17 H1_17 1_555 1_555
C2_17 C1_17 1_555 1_555
C3_14 H2_14 1_555 1_555
C4_17 C9_17 1_555 1_555
C5_17 C7_17 1_555 1_555
C6_14 C3_14 1_555 1_555
C7_17 C2_17 1_555 1_555
H3_17 C7_17 1_555 1_555
C8_17 C5_17 1_555 1_555
H4_17 C8_17 1_555 1_555
C9_17 C1_17 1_555 1_555
C10_18 C11_18 1_555 1_555
C11_18 C3_14 1_555 1_555
C12_17 C2_17 1_555 1_555
C13_14 C6_14 1_555 1_555
C15_18 C6_14 1_555 1_555
O1_14 C13_14 1_555 1_555
O2_11 C13_14 1_555 1_555
O3_14 C10_18 1_555 1_555
O4_17 Zn2_14 1_555 1_555
O5_17 C4_17 1_555 1_555
O21_2 C12_17 1_555 1_555
O25_2 C12_17 1_555 1_555
Zn8 O13_14 1_555 1_555
C18_14 C11_18 1_555 1_555
H7_14 C18_14 1_555 1_555
C21_14 C15_18 1_555 1_555
O13_14 C10_18 1_555 1_555
C4_17 O4_17 1_555 1_555
C8_17 C9_17 1_555 1_555
C18_14 C21_14 1_555 1_555
O17_4 C14_17 1_555 1_555
O7_17 C14_17 1_555 1_555
Zn9_2 O3_15 1_555 1_555
Zn2_15 O2_12 1_555 1_555
C1_18 H1_18 1_555 1_555
C2_18 C1_18 1_555 1_555
C3_15 H2_15 1_555 1_555
C4_18 C9_18 1_555 1_555
C5_18 C7_18 1_555 1_555
C6_15 C3_15 1_555 1_555
C7_18 C2_18 1_555 1_555
H3_18 C7_18 1_555 1_555
C8_18 C5_18 1_555 1_555
H4_18 C8_18 1_555 1_555
C9_18 C1_18 1_555 1_555
C10_19 C11_19 1_555 1_555
C11_19 C3_15 1_555 1_555
C12_18 C2_18 1_555 1_555
C13_15 C6_15 1_555 1_555
C15_19 C6_15 1_555 1_555
O1_15 C13_15 1_555 1_555
O2_12 C13_15 1_555 1_555
O3_15 C10_19 1_555 1_555
O4_18 Zn2_15 1_555 1_555
O5_18 C4_18 1_555 1_555
O21_3 C12_18 1_555 1_555
O25_3 C12_18 1_555 1_555
Zn8_2 O13_15 1_555 1_555
C18_15 C11_19 1_555 1_555
H7_15 C18_15 1_555 1_555
C21_15 C15_19 1_555 1_555
O13_15 C10_19 1_555 1_555
C4_18 O4_18 1_555 1_555
C8_18 C9_18 1_555 1_555
C18_15 C21_15 1_555 1_555
O17_5 C14_18 1_555 1_555
O7_18 C14_18 1_555 1_555
C16_18 H6_18 1_555 1_555
C17_18 C16_18 1_555 1_555
C19_18 C24_18 1_555 1_555
C20_18 C22_18 1_555 1_555
C22_18 C17_18 1_555 1_555
H8_18 C22_18 1_555 1_555
C23_18 C20_18 1_555 1_555
H9_18 C23_18 1_555 1_555
C24_18 C16_18 1_555 1_555
C25_18 C17_18 1_555 1_555
C27_18 C20_18 1_555 1_555
O10_15 C26_15 1_555 1_555
O12_11 C26_15 1_555 1_555
O12_18 Zn2_16 1_555 1_555
O14_18 Zn2_16 1_555 1_555
O15_18 C19_18 1_555 1_555
O18_5 C27_18 1_555 1_555
O19_18 C27_18 1_555 1_555
O22 C25_18 1_555 1_555
O24 C25_18 1_555 1_555
C19_18 O14_18 1_555 1_555
C23_18 C24_18 1_555 1_555
O1_16 C13_16 1_555 1_555
O12_15 C13_16 1_555 1_555
Zn6_2 O3_16 1_555 1_555
C6_16 C3_16 1_555 1_555
C10_20 C11_20 1_555 1_555
C11_20 C3_16 1_555 1_555
C15_20 C6_16 1_555 1_555
O3_16 C10_20 1_555 1_555
C18_16 C11_20 1_555 1_555
H7_16 C18_16 1_555 1_555
C21_16 C15_20 1_555 1_555
C26_16 C21_16 1_555 1_555
O10_16 C26_16 1_555 1_555
O12_18 C26_16 1_555 1_555
O13_16 C10_20 1_555 1_555
C18_16 C21_16 1_555 1_555
Zn8_4 O3_17 1_555 1_555
C6_17 C3_17 1_555 1_555
C10_21 C11_21 1_555 1_555
C11_21 C3_17 1_555 1_555
C15_21 C6_17 1_555 1_555
H5_21 C15_21 1_555 1_555
O3_17 C10_21 1_555 1_555
C18_17 C11_21 1_555 1_555
H7_17 C18_17 1_555 1_555
C21_17 C15_21 1_555 1_555
C26_17 C21_17 1_555 1_555
O10_17 C26_17 1_555 1_555
O12_16 C26_17 1_555 1_555
O13_17 C10_21 1_555 1_555
C18_17 C21_17 1_555 1_555
O1_17 C13_17 1_555 1_555
O12_14 C13_17 1_555 1_555
Zn8_3 O3_18 1_555 1_555
C6_18 C3_18 1_555 1_555
C10_22 C11_22 1_555 1_555
C11_22 C3_18 1_555 1_555
C15_22 C6_18 1_555 1_555
O3_18 C10_22 1_555 1_555
C18_18 C11_22 1_555 1_555
H7_18 C18_18 1_555 1_555
C21_18 C15_22 1_555 1_555
C26_18 C21_18 1_555 1_555
O10_18 C26_18 1_555 1_555
O12_17 C26_18 1_555 1_555
O13_18 C10_22 1_555 1_555
C18_18 C21_18 1_555 1_555
O1_18 C13_18 1_555 1_555
O12_13 C13_18 1_555 1_555

#END
