
###############################################################################
#
# This file contains modified crystal structure data generated from the
# MOF subset of the Cambridge Structural Database (CSD) v543 
# hosted by the Cambridge Crystallographic Data Centre (CCDC).
#
# This work is licensed under the Creative Commons
# Attribution-NonCommercial-ShareAlike 4.0 International License.
# To view a copy of this license, visit
# http://creativecommons.org/licenses/by-nc-sa/4.0/
# or send a letter to
# Creative Commons, PO Box 1866, Mountain View, CA 94042, USA.
#
# CIF created using the CSD Python API on 29 September 2022
# The structure has been converted into the P1 space group
# The structure has a 3D framework
# The original CSD entry VEHPIL is in the monoclinic crystal system
# The framework has been calculated to contain at least 10.0% void space
# The void calculation uses a probe of radius 1.32A, grid spacing 0.4
#
###############################################################################

data_VEHPIL
_chemical_formula_moiety         '(C208 H136 Co8 N16 O62 S12)n'
_symmetry_cell_setting           triclinic
_symmetry_space_group_name_H-M   'P 1'
_symmetry_Int_Tables_number      1
_space_group_name_Hall           'P 1'
loop_
_symmetry_equiv_pos_site_id
_symmetry_equiv_pos_as_xyz
1 x,y,z
_cell_length_a                   18.5098(3)
_cell_length_b                   17.0448(3)
_cell_length_c                   25.1287(5)
_cell_angle_alpha                90
_cell_angle_beta                 92.677(2)
_cell_angle_gamma                90
_cell_volume                     7919.35
loop_
_atom_site_label
_atom_site_type_symbol
_atom_site_fract_x
_atom_site_fract_y
_atom_site_fract_z
Co7 Co 0.04719(2) 0.55474(3) 0.52377(2)
O20 O 0.00029(15) 0.37551(16) 0.53267(11)
O21 O 0.04482(15) 0.43628(17) 0.43394(11)
Co1 Co 0.54671(2) 0.05246(3) 0.52508(2)
S1 S 0.16933(7) 0.13992(7) 0.71027(4)
O1 O 0.46049(14) 0.07340(16) 0.56882(10)
O4 O 0.07486(15) 0.46267(15) 0.57293(11)
O8 O 0.20373(19) 0.1725(2) 0.75773(11)
O10 O 0.11794(18) 0.0771(2) 0.71400(14)
C1 C 0.4009(2) 0.0389(2) 0.56373(15)
C2 C 0.3429(2) 0.0640(2) 0.60030(15)
C4 C 0.3574(2) 0.1208(2) 0.63855(15)
H3 H 0.403054 0.143657 0.641393
C6 C 0.3052(2) 0.1440(2) 0.67258(15)
H4 H 0.314958 0.182503 0.698120
C8 C 0.2383(2) 0.1090(2) 0.66794(15)
C10 C 0.2220(2) 0.0524(3) 0.63010(17)
H7 H 0.176181 0.029909 0.627288
C12 C 0.2752(2) 0.0297(2) 0.59636(16)
C14 C 0.1292(2) 0.2172(3) 0.67217(15)
C16 C 0.1591(2) 0.2905(3) 0.67517(16)
H11 H 0.197056 0.301189 0.699642
C18 C 0.1322(2) 0.3483(2) 0.64146(16)
H12 H 0.152063 0.398402 0.643408
C20 C 0.0757(2) 0.3325(2) 0.60448(14)
C22 C 0.0454(2) 0.2589(2) 0.60325(17)
H15 H 0.006644 0.248364 0.579472
C24 C 0.0719(2) 0.2003(3) 0.63697(19)
H16 H 0.051463 0.150456 0.635891
C26 C 0.0482(2) 0.3955(2) 0.56676(14)
O17 O 0.61491(14) 0.01463(17) 0.46902(11)
O19 O 0.50187(14) 0.12641(15) 0.46793(10)
N5 N 0.61756(16) 0.13422(18) 0.55591(12)
Co6 Co 0.45281(2) 0.05474(3) 0.97623(2)
Co1_2 Co 0.95329(2) 0.55246(3) 0.97492(2)
S3 S 0.83344(6) 0.13442(7) 0.79155(4)
O3 O 0.92381(14) 0.45835(15) 0.92972(10)
O7 O 0.54482(15) 0.06372(17) 0.93394(11)
O11 O 0.79928(19) 0.1675(2) 0.74404(11)
O13 O 0.88645(18) 0.07338(19) 0.78777(14)
C3 C 0.95173(19) 0.3919(2) 0.93529(14)
C5 C 0.92411(19) 0.3276(2) 0.89839(14)
C7 C 0.8654(2) 0.3418(2) 0.86365(16)
H5 H 0.843487 0.390980 0.862959
C9 C 0.8392(2) 0.2836(2) 0.83013(16)
H6 H 0.799513 0.293027 0.806957
C11 C 0.8719(2) 0.2118(2) 0.83112(14)
C13 C 0.9314(2) 0.1969(2) 0.86446(18)
H9 H 0.954087 0.148241 0.864343
C15 C 0.9568(2) 0.2558(2) 0.89804(17)
H10 H 0.996929 0.246398 0.920840
C17 C 0.7655(2) 0.1005(2) 0.83353(15)
C19 C 0.6975(2) 0.1336(2) 0.82809(16)
H13 H 0.686770 0.170784 0.801826
C21 C 0.6458(2) 0.1102(2) 0.86251(16)
H14 H 0.599619 0.131650 0.859313
C23 C 0.6618(2) 0.0551(2) 0.90181(15)
C25 C 0.7303(2) 0.0221(2) 0.90580(17)
C27 C 0.7824(2) 0.0451(3) 0.87175(17)
H18 H 0.828466 0.023401 0.874609
C29 C 0.6049(2) 0.0308(2) 0.93919(15)
N5_2 N 0.88244(16) 0.63422(18) 0.94409(12)
S3_2 S 0.33344(6) 0.36558(7) 0.29155(4)
O3_2 O 0.42381(14) 0.04165(15) 0.42972(10)
O9 O 0.12211(15) 0.51976(18) 0.47376(11)
O11_2 O 0.29928(19) 0.3325(2) 0.24404(11)
O12 O 0.18480(19) 0.8322(2) 0.70905(15)
O13_2 O 0.38645(18) 0.42662(19) 0.28777(14)
O16 O 0.6634(2) 0.7933(3) 0.91880(15)
N1 N 0.10015(16) 0.63986(18) 0.56865(11)
N2 N 0.27817(17) 0.82573(19) 0.65348(12)
H1 H 0.291186 0.802632 0.625047
N3 N 0.71715(18) 0.8252(2) 0.84286(13)
H2 H 0.755434 0.817316 0.825490
C3_2 C 0.45173(19) 0.1081(2) 0.43529(14)
C5_2 C 0.42411(19) 0.1724(2) 0.39839(14)
C7_2 C 0.3654(2) 0.1582(2) 0.36365(16)
H5_2 H 0.343487 0.109020 0.362959
C9_2 C 0.3392(2) 0.2164(2) 0.33013(16)
H6_2 H 0.299513 0.206973 0.306957
C11_2 C 0.3719(2) 0.2882(2) 0.33112(14)
H8 H 0.734700 0.008866 0.429122
C13_2 C 0.4314(2) 0.3031(2) 0.36446(18)
H9_2 H 0.454087 0.351759 0.364343
C15_2 C 0.4568(2) 0.2442(2) 0.39804(17)
H10_2 H 0.496929 0.253602 0.420840
C17_2 C 0.2655(2) 0.3995(2) 0.33353(15)
C19_2 C 0.1975(2) 0.3664(2) 0.32809(16)
H13_2 H 0.186770 0.329216 0.301826
C21_2 C 0.1458(2) 0.3898(2) 0.36251(16)
H14_2 H 0.099619 0.368350 0.359313
C23_2 C 0.1618(2) 0.4449(2) 0.40181(15)
C25_2 C 0.2303(2) 0.4779(2) 0.40580(17)
H17 H 0.241093 0.515712 0.431623
C27_2 C 0.2824(2) 0.4549(3) 0.37175(17)
H18_2 H 0.328466 0.476599 0.374609
C28 C 0.1330(2) 0.7009(3) 0.54785(17)
H19 H 0.131179 0.706784 0.511015
C29_2 C 0.1049(2) 0.4692(2) 0.43919(15)
C30 C 0.1696(3) 0.7559(3) 0.57852(18)
H20 H 0.192734 0.797487 0.562468
C31 C 0.1720(2) 0.7492(2) 0.63295(16)
C32 C 0.1363(2) 0.6881(3) 0.65479(16)
H21 H 0.135594 0.682401 0.691564
C33 C 0.1014(2) 0.6351(3) 0.62133(15)
H22 H 0.077163 0.593575 0.636544
C34 C 0.2115(2) 0.8075(3) 0.66896(18)
C35 C 0.32928(19) 0.8771(2) 0.67728(14)
C36 C 0.3975(2) 0.8777(2) 0.65656(15)
H23 H 0.407749 0.843414 0.629141
C37 C 0.4497(2) 0.9281(2) 0.67592(15)
H24 H 0.495165 0.928533 0.661678
C38 C 0.43409(17) 0.97818(19) 0.71686(13)
C39 C 0.36745(19) 0.9784(2) 0.73798(13)
C40 C 0.31414(19) 0.9280(2) 0.71866(14)
H26 H 0.268753 0.927972 0.733053
C41 C 0.56746(18) 0.9784(2) 0.77095(13)
C42 C 0.63535(19) 0.9715(2) 0.75134(14)
C43 C 0.6839(2) 0.9203(2) 0.77592(15)
H28 H 0.729990 0.915458 0.763083
C44 C 0.6654(2) 0.8759(2) 0.81927(14)
C45 C 0.5965(2) 0.8846(2) 0.83887(16)
H29 H 0.583280 0.855797 0.868303
C46 C 0.5483(2) 0.9360(2) 0.81446(16)
H30 H 0.502453 0.942029 0.827523
C47 C 0.7136(3) 0.7880(3) 0.88913(18)
C48 C 0.7764(2) 0.7367(3) 0.90583(16)
C49 C 0.8106(3) 0.6876(3) 0.87219(16)
H31 H 0.798652 0.688191 0.835831
C50 C 0.8629(2) 0.6374(3) 0.89262(16)
H32 H 0.885726 0.604131 0.869340
C51 C 0.8506(2) 0.6836(3) 0.97652(17)
C52 C 0.7979(3) 0.7350(3) 0.95927(17)
H34 H 0.776631 0.768463 0.983232
O12_2 O 0.31520(19) 0.3322(2) 0.79095(15)
O14 O 0.02655(13) 0.59145(15) 0.71943(10)
N1_2 N 0.39985(16) 0.13986(18) 0.93135(11)
N2_2 N 0.22183(17) 0.32573(19) 0.84652(12)
H1_2 H 0.208814 0.302632 0.874953
C28_2 C 0.3670(2) 0.2009(3) 0.95215(17)
H19_2 H 0.368821 0.206784 0.988985
C30_2 C 0.3304(3) 0.2559(3) 0.92148(18)
H20_2 H 0.307266 0.297487 0.937532
C31_2 C 0.3280(2) 0.2492(2) 0.86705(16)
C32_2 C 0.3637(2) 0.1881(3) 0.84521(16)
H21_2 H 0.364406 0.182401 0.808436
C33_2 C 0.3986(2) 0.1351(3) 0.87867(15)
H22_2 H 0.422837 0.093575 0.863456
C34_2 C 0.2885(2) 0.3075(3) 0.83104(18)
C35_2 C 0.17072(19) 0.3771(2) 0.82272(14)
C36_2 C 0.1025(2) 0.3777(2) 0.84344(15)
H23_2 H 0.092251 0.343414 0.870859
C37_2 C 0.0503(2) 0.4281(2) 0.82408(15)
H24_2 H 0.004835 0.428533 0.838322
C38_2 C 0.06591(17) 0.47818(19) 0.78314(13)
C39_2 C 0.13255(19) 0.4784(2) 0.76202(13)
H25 H 0.142055 0.512728 0.734441
C40_2 C 0.18586(19) 0.4280(2) 0.78134(14)
H26_2 H 0.231247 0.427972 0.766947
S2 S 0.99679(5) 0.54261(5) 0.75908(3)
O15 O 0.96421(14) 0.57937(15) 0.80345(10)
O16_2 O 0.8366(2) 0.2933(3) 0.58120(15)
N3_2 N 0.78285(18) 0.3252(2) 0.65714(13)
H2_2 H 0.744566 0.317316 0.674510
C41_2 C 0.93254(18) 0.4784(2) 0.72905(13)
C42_2 C 0.86465(19) 0.4715(2) 0.74866(14)
H27 H 0.851765 0.500811 0.777946
C43_2 C 0.8161(2) 0.4203(2) 0.72408(15)
H28_2 H 0.770010 0.415458 0.736917
C44_2 C 0.8346(2) 0.3759(2) 0.68073(14)
C45_2 C 0.9035(2) 0.3846(2) 0.66113(16)
H29_2 H 0.916720 0.355797 0.631697
C46_2 C 0.9517(2) 0.4360(2) 0.68554(16)
H30_2 H 0.997547 0.442029 0.672477
C47_2 C 0.7864(3) 0.2880(3) 0.61087(18)
C48_2 C 0.7236(2) 0.2367(3) 0.59417(16)
C49_2 C 0.6894(3) 0.1876(3) 0.62781(16)
H31_2 H 0.701348 0.188191 0.664169
C50_2 C 0.6371(2) 0.1374(3) 0.60738(16)
H32_2 H 0.614274 0.104131 0.630660
C51_2 C 0.6494(2) 0.1836(3) 0.52348(17)
H33 H 0.635134 0.183214 0.487493
C52_2 C 0.7021(3) 0.2350(3) 0.54073(17)
H34_2 H 0.723369 0.268463 0.516768
Co2 Co 0.95281(2) 0.44526(3) 0.47623(2)
S3_3 S 0.66656(6) 0.63442(7) 0.70845(4)
O2 O 0.38509(14) 0.98537(17) 0.53098(11)
O3_3 O 0.57619(14) 0.95835(15) 0.57028(10)
O5 O 0.49813(14) 0.87359(15) 0.53207(10)
O7_2 O 0.95518(15) 0.56372(17) 0.56606(11)
O9_2 O 0.87789(15) 0.48024(18) 0.52624(11)
O11_3 O 0.70072(19) 0.6675(2) 0.75596(11)
O12_3 O 0.81520(19) 0.1678(2) 0.29095(15)
O13_3 O 0.61355(18) 0.57338(19) 0.71223(14)
O16_3 O 0.3366(2) 0.2067(3) 0.08120(15)
N1_3 N 0.89985(16) 0.36014(18) 0.43135(11)
N2_3 N 0.72183(17) 0.17427(19) 0.34652(12)
H1_3 H 0.708814 0.197368 0.374953
N3_3 N 0.28285(18) 0.1748(2) 0.15714(13)
H2_3 H 0.244566 0.182684 0.174510
N4 N 0.11756(16) 0.36578(18) 0.05591(12)
C3_3 C 0.54827(19) 0.8919(2) 0.56471(14)
C5_3 C 0.57589(19) 0.8276(2) 0.60161(14)
C7_3 C 0.6346(2) 0.8418(2) 0.63635(16)
H5_3 H 0.656513 0.890980 0.637041
C9_3 C 0.6608(2) 0.7836(2) 0.66987(16)
H6_3 H 0.700487 0.793027 0.693043
C11_3 C 0.6281(2) 0.7118(2) 0.66888(14)
H8_2 H 0.265300 0.991134 0.570878
C13_3 C 0.5686(2) 0.6969(2) 0.63554(18)
H9_3 H 0.545913 0.648241 0.635657
C15_3 C 0.5432(2) 0.7558(2) 0.60196(17)
H10_3 H 0.503071 0.746398 0.579160
C17_3 C 0.7345(2) 0.6005(2) 0.66647(15)
C19_3 C 0.8025(2) 0.6336(2) 0.67191(16)
H13_3 H 0.813230 0.670784 0.698174
C21_3 C 0.8542(2) 0.6102(2) 0.63749(16)
H14_3 H 0.900381 0.631650 0.640687
C23_3 C 0.8382(2) 0.5551(2) 0.59819(15)
C25_3 C 0.7697(2) 0.5221(2) 0.59420(17)
H17_2 H 0.758907 0.484288 0.568377
C27_3 C 0.7176(2) 0.5451(3) 0.62825(17)
H18_3 H 0.671534 0.523401 0.625391
C28_3 C 0.8670(2) 0.2991(3) 0.45215(17)
H19_3 H 0.868821 0.293216 0.488985
C29_3 C 0.8951(2) 0.5308(2) 0.56081(15)
C30_3 C 0.8304(3) 0.2441(3) 0.42148(18)
H20_3 H 0.807266 0.202513 0.437532
C31_3 C 0.8280(2) 0.2508(2) 0.36705(16)
C32_3 C 0.8637(2) 0.3119(3) 0.34521(16)
H21_3 H 0.864406 0.317599 0.308436
C33_3 C 0.8986(2) 0.3649(3) 0.37867(15)
H22_3 H 0.922837 0.406425 0.363456
C34_3 C 0.7885(2) 0.1925(3) 0.33104(18)
C35_3 C 0.67072(19) 0.1229(2) 0.32272(14)
C36_3 C 0.6025(2) 0.1223(2) 0.34344(15)
H23_3 H 0.592251 0.156586 0.370859
C37_3 C 0.5503(2) 0.0719(2) 0.32408(15)
H24_3 H 0.504835 0.071467 0.338322
C38_3 C 0.56591(17) 0.02182(19) 0.28314(13)
C39_3 C 0.63255(19) 0.0216(2) 0.26202(13)
C40_3 C 0.68586(19) 0.0720(2) 0.28134(14)
H26_3 H 0.731247 0.072028 0.266947
C41_3 C 0.43254(18) 0.0216(2) 0.22905(13)
C42_3 C 0.36465(19) 0.0285(2) 0.24866(14)
C43_3 C 0.3161(2) 0.0797(2) 0.22408(15)
H28_3 H 0.270010 0.084542 0.236917
C44_3 C 0.3346(2) 0.1241(2) 0.18073(14)
C45_3 C 0.4035(2) 0.1154(2) 0.16113(16)
H29_3 H 0.416720 0.144203 0.131697
C46_3 C 0.4517(2) 0.0640(2) 0.18554(16)
H30_3 H 0.497547 0.057971 0.172477
C47_3 C 0.2864(3) 0.2120(3) 0.11087(18)
C48_3 C 0.2236(2) 0.2633(3) 0.09417(16)
C49_3 C 0.1894(3) 0.3124(3) 0.12781(16)
H31_3 H 0.201348 0.311809 0.164169
C50_3 C 0.1371(2) 0.3626(3) 0.10738(16)
H32_3 H 0.114274 0.395869 0.130660
C51_3 C 0.1494(2) 0.3164(3) 0.02348(17)
C52_3 C 0.2021(3) 0.2650(3) 0.04073(17)
H34_3 H 0.223369 0.231537 0.016768
Co3 Co 0.45329(2) 0.94754(3) 0.47492(2)
Co4 Co 0.04671(2) 0.44754(3) 0.02508(2)
O18 O 0.92514(15) 0.53733(15) 0.42707(11)
Co5 Co 0.54719(2) 0.94526(3) 0.02377(2)
S2_2 S 0.00321(5) 0.45739(5) 0.24092(3)
O15_2 O 0.03579(14) 0.42063(15) 0.19655(10)
O16_4 O 0.1634(2) 0.7067(3) 0.41880(15)
N3_4 N 0.21715(18) 0.6748(2) 0.34286(13)
H2_4 H 0.255434 0.682684 0.325490
N4_2 N 0.38244(16) 0.86578(18) 0.44409(12)
C41_4 C 0.06746(18) 0.5216(2) 0.27095(13)
C42_4 C 0.13535(19) 0.5285(2) 0.25134(14)
H27_2 H 0.148235 0.499189 0.222054
C43_4 C 0.1839(2) 0.5797(2) 0.27592(15)
H28_4 H 0.229990 0.584542 0.263083
C44_4 C 0.1654(2) 0.6241(2) 0.31927(14)
C45_4 C 0.0965(2) 0.6154(2) 0.33887(16)
H29_4 H 0.083280 0.644203 0.368303
C46_4 C 0.0483(2) 0.5640(2) 0.31446(16)
H30_4 H 0.002453 0.557971 0.327523
C47_4 C 0.2136(3) 0.7120(3) 0.38913(18)
C48_4 C 0.2764(2) 0.7633(3) 0.40583(16)
C49_4 C 0.3106(3) 0.8124(3) 0.37219(16)
H31_4 H 0.298652 0.811809 0.335831
C50_4 C 0.3629(2) 0.8626(3) 0.39262(16)
H32_4 H 0.385726 0.895869 0.369340
C51_4 C 0.3506(2) 0.8164(3) 0.47652(17)
H33_2 H 0.364866 0.816786 0.512507
C52_4 C 0.2979(3) 0.7650(3) 0.45927(17)
H34_4 H 0.276631 0.731537 0.483232
O12_4 O 0.68480(19) 0.6678(2) 0.20905(15)
O14_2 O 0.97345(13) 0.40855(15) 0.28057(10)
N1_4 N 0.60015(16) 0.86014(18) 0.06865(11)
N2_4 N 0.77817(17) 0.67427(19) 0.15348(12)
H1_4 H 0.791186 0.697368 0.125047
C28_4 C 0.6330(2) 0.7991(3) 0.04785(17)
H19_4 H 0.631179 0.793216 0.011015
C30_4 C 0.6696(3) 0.7441(3) 0.07852(18)
H20_4 H 0.692734 0.702513 0.062468
C31_4 C 0.6720(2) 0.7508(2) 0.13295(16)
C32_4 C 0.6363(2) 0.8119(3) 0.15479(16)
H21_4 H 0.635594 0.817599 0.191564
C33_4 C 0.6014(2) 0.8649(3) 0.12133(15)
H22_4 H 0.577163 0.906425 0.136544
C34_4 C 0.7115(2) 0.6925(3) 0.16896(18)
C35_4 C 0.82928(19) 0.6229(2) 0.17728(14)
C36_4 C 0.8975(2) 0.6223(2) 0.15656(15)
H23_4 H 0.907749 0.656586 0.129141
C37_4 C 0.9497(2) 0.5719(2) 0.17592(15)
H24_4 H 0.995165 0.571467 0.161678
C38_4 C 0.93409(17) 0.52182(19) 0.21686(13)
C39_4 C 0.86745(19) 0.5216(2) 0.23798(13)
H25_2 H 0.857945 0.487272 0.265559
C40_4 C 0.81414(19) 0.5720(2) 0.21866(14)
H26_4 H 0.768753 0.572028 0.233053
O21_2 O 0.45518(15) 0.93628(17) 0.06606(11)
S1_2 S 0.83067(7) 0.86008(7) 0.28973(4)
O1_2 O 0.53951(14) 0.92660(16) 0.43118(10)
O6 O 0.99971(15) 0.62449(16) 0.46733(11)
O8_2 O 0.79627(19) 0.8275(2) 0.24227(11)
O10_2 O 0.88206(18) 0.9229(2) 0.28600(14)
C1_2 C 0.5991(2) 0.9611(2) 0.43627(15)
C2_2 C 0.6571(2) 0.9360(2) 0.39970(15)
C4_2 C 0.6426(2) 0.8792(2) 0.36145(15)
H3_2 H 0.596946 0.856343 0.358607
C6_2 C 0.6948(2) 0.8560(2) 0.32742(15)
H4_2 H 0.685042 0.817497 0.301880
C8_2 C 0.7617(2) 0.8910(2) 0.33206(15)
C10_2 C 0.7780(2) 0.9476(3) 0.36990(17)
H7_2 H 0.823819 0.970091 0.372712
C12_2 C 0.7248(2) 0.9703(2) 0.40364(16)
C14_2 C 0.8708(2) 0.7828(3) 0.32783(15)
C16_2 C 0.8409(2) 0.7095(3) 0.32483(16)
H11_2 H 0.802944 0.698811 0.300358
C18_2 C 0.8678(2) 0.6517(2) 0.35854(16)
H12_2 H 0.847937 0.601598 0.356592
C20_2 C 0.9243(2) 0.6675(2) 0.39552(14)
C22_2 C 0.9546(2) 0.7411(2) 0.39675(17)
H15_2 H 0.993356 0.751636 0.420528
C24_2 C 0.9281(2) 0.7997(3) 0.36303(19)
H16_2 H 0.948537 0.849544 0.364109
C26_2 C 0.9518(2) 0.6045(2) 0.43324(14)
S3_4 S 0.16656(6) 0.86558(7) 0.20845(4)
O3_4 O 0.07619(14) 0.54165(15) 0.07028(10)
O11_4 O 0.20072(19) 0.8325(2) 0.25596(11)
O13_4 O 0.11355(18) 0.92662(19) 0.21223(14)
C3_4 C 0.04827(19) 0.6081(2) 0.06471(14)
C5_4 C 0.07589(19) 0.6724(2) 0.10161(14)
C7_4 C 0.1346(2) 0.6582(2) 0.13635(16)
H5_4 H 0.156513 0.609020 0.137041
C9_4 C 0.1608(2) 0.7164(2) 0.16987(16)
H6_4 H 0.200487 0.706973 0.193043
C11_4 C 0.1281(2) 0.7882(2) 0.16888(14)
C13_4 C 0.0686(2) 0.8031(2) 0.13554(18)
H9_4 H 0.045913 0.851759 0.135657
C15_4 C 0.0432(2) 0.7442(2) 0.10196(17)
H10_4 H 0.003071 0.753602 0.079160
C17_4 C 0.2345(2) 0.8995(2) 0.16647(15)
C19_4 C 0.3025(2) 0.8664(2) 0.17191(16)
H13_4 H 0.313230 0.829216 0.198174
C21_4 C 0.3542(2) 0.8898(2) 0.13749(16)
H14_4 H 0.400381 0.868350 0.140687
C23_4 C 0.3382(2) 0.9449(2) 0.09819(15)
C25_4 C 0.2697(2) 0.9779(2) 0.09420(17)
C27_4 C 0.2176(2) 0.9549(3) 0.12825(17)
H18_4 H 0.171534 0.976599 0.125391
C29_4 C 0.3951(2) 0.9692(2) 0.06081(15)
H33_3 H 0.135134 0.316786 0.987493
S2_3 S 0.49679(5) 0.95739(5) 0.25908(3)
O14_3 O 0.52655(13) 0.90855(15) 0.21943(10)
O15_3 O 0.46421(14) 0.92063(15) 0.30345(10)
H25_3 H 0.642055 0.987272 0.234441
H27_3 H 0.351765 0.999189 0.277946
S1_3 S 0.33067(7) 0.63992(7) 0.78973(4)
O1_3 O 0.03951(14) 0.57340(16) 0.93118(10)
O2_2 O 0.11491(14) 0.48537(17) 0.96902(11)
O4_2 O 0.42514(15) 0.96267(15) 0.92707(11)
O5_2 O 0.00187(14) 0.37359(15) 0.96793(10)
O6_2 O 0.49971(15) 0.87551(16) 0.96733(11)
O8_3 O 0.29627(19) 0.6725(2) 0.74227(11)
O10_3 O 0.38206(18) 0.5771(2) 0.78600(14)
C1_3 C 0.0991(2) 0.5389(2) 0.93627(15)
C2_3 C 0.1571(2) 0.5640(2) 0.89970(15)
C4_3 C 0.1426(2) 0.6208(2) 0.86145(15)
H3_3 H 0.096946 0.643657 0.858607
C6_3 C 0.1948(2) 0.6440(2) 0.82742(15)
H4_3 H 0.185042 0.682503 0.801880
C8_3 C 0.2617(2) 0.6090(2) 0.83206(15)
C10_3 C 0.2780(2) 0.5524(3) 0.86990(17)
H7_3 H 0.323819 0.529909 0.872712
C12_3 C 0.2248(2) 0.5297(2) 0.90364(16)
H8_3 H 0.234700 0.491134 0.929122
C14_3 C 0.3708(2) 0.7172(3) 0.82783(15)
C16_3 C 0.3409(2) 0.7905(3) 0.82483(16)
H11_3 H 0.302944 0.801189 0.800358
C18_3 C 0.3678(2) 0.8483(2) 0.85854(16)
H12_3 H 0.347937 0.898402 0.856592
C20_3 C 0.4243(2) 0.8325(2) 0.89552(14)
C22_3 C 0.4546(2) 0.7589(2) 0.89675(17)
H15_3 H 0.493356 0.748364 0.920528
C24_3 C 0.4281(2) 0.7003(3) 0.86303(19)
H16_3 H 0.448537 0.650456 0.864109
C26_3 C 0.4518(2) 0.8955(2) 0.93324(14)
O9_3 O 0.62211(15) 0.98024(18) 0.97376(11)
H17_3 H 0.741093 0.984288 0.931623
O17_2 O 0.88509(14) 0.51463(17) 0.03098(11)
O18_2 O 0.57486(15) 0.03733(15) 0.07293(11)
O19_2 O 0.99813(14) 0.62641(15) 0.03207(10)
O9_4 O 0.37789(15) 0.01976(18) 0.02624(11)
H17_4 H 0.258907 0.015712 0.068377
O20_2 O 0.50029(15) 0.12449(16) 0.03267(11)
S1_4 S 0.66933(7) 0.36008(7) 0.21027(4)
O1_4 O 0.96049(14) 0.42660(16) 0.06882(10)
O8_4 O 0.70373(19) 0.3275(2) 0.25773(11)
O10_4 O 0.61794(18) 0.4229(2) 0.21400(14)
C1_4 C 0.9009(2) 0.4611(2) 0.06373(15)
C2_4 C 0.8429(2) 0.4360(2) 0.10030(15)
C4_4 C 0.8574(2) 0.3792(2) 0.13855(15)
H3_4 H 0.903054 0.356343 0.141393
C6_4 C 0.8052(2) 0.3560(2) 0.17258(15)
H4_4 H 0.814958 0.317497 0.198120
C8_4 C 0.7383(2) 0.3910(2) 0.16794(15)
C10_4 C 0.7220(2) 0.4476(3) 0.13010(17)
H7_4 H 0.676181 0.470091 0.127288
C12_4 C 0.7752(2) 0.4703(2) 0.09636(16)
H8_4 H 0.765300 0.508866 0.070878
C14_4 C 0.6292(2) 0.2828(3) 0.17217(15)
C16_4 C 0.6591(2) 0.2095(3) 0.17517(16)
H11_4 H 0.697056 0.198811 0.199642
C18_4 C 0.6322(2) 0.1517(2) 0.14146(16)
H12_4 H 0.652063 0.101598 0.143408
C20_4 C 0.5757(2) 0.1675(2) 0.10448(14)
C22_4 C 0.5454(2) 0.2411(2) 0.10325(17)
H15_4 H 0.506644 0.251636 0.079472
C24_4 C 0.5719(2) 0.2997(3) 0.13697(19)
H16_4 H 0.551463 0.349544 0.135891
C26_4 C 0.5482(2) 0.1045(2) 0.06676(14)
S2_4 S 0.50321(5) 0.04261(5) 0.74092(3)
O14_4 O 0.47345(13) 0.09145(15) 0.78057(10)
O15_4 O 0.53579(14) 0.07937(15) 0.69655(10)
H25_4 H 0.357945 0.012728 0.765559
H27_4 H 0.648235 0.000811 0.722054
H33_4 H 0.864866 0.683214 0.012507
loop_
_geom_bond_atom_site_label_1
_geom_bond_atom_site_label_2
_geom_bond_site_symmetry_1
_geom_bond_site_symmetry_2
Co1 O1 1_555 1_555
S1 O8 1_555 1_555
O1 C1 1_555 1_555
O4 C26 1_555 1_555
O20 C26 1_555 1_555
O10 S1 1_555 1_555
C1 C2 1_555 1_555
C2 C4 1_555 1_555
C4 H3 1_555 1_555
C6 C4 1_555 1_555
H4 C6 1_555 1_555
C8 S1 1_555 1_555
C10 C8 1_555 1_555
H7 C10 1_555 1_555
C12 C2 1_555 1_555
C14 S1 1_555 1_555
C16 C14 1_555 1_555
H11 C16 1_555 1_555
C18 C16 1_555 1_555
H12 C18 1_555 1_555
C20 C18 1_555 1_555
C22 C20 1_555 1_555
H15 C22 1_555 1_555
C24 C14 1_555 1_555
H16 C24 1_555 1_555
C26 C20 1_555 1_555
Co7 O4 1_555 1_555
O17 Co1 1_555 1_555
O19 Co1 1_555 1_555
N5 Co1 1_555 1_555
C6 C8 1_555 1_555
C10 C12 1_555 1_555
C22 C24 1_555 1_555
S3 O11 1_555 1_555
O3 Co1_2 1_555 1_555
O7 C29 1_555 1_555
O13 S3 1_555 1_555
C3 O3 1_555 1_555
C5 C3 1_555 1_555
C7 C5 1_555 1_555
H5 C7 1_555 1_555
C9 C7 1_555 1_555
H6 C9 1_555 1_555
C11 S3 1_555 1_555
C13 C11 1_555 1_555
H9 C13 1_555 1_555
C15 C5 1_555 1_555
H10 C15 1_555 1_555
C17 S3 1_555 1_555
C19 C17 1_555 1_555
H13 C19 1_555 1_555
C21 C19 1_555 1_555
H14 C21 1_555 1_555
C23 C21 1_555 1_555
C25 C23 1_555 1_555
C27 C17 1_555 1_555
H18 C27 1_555 1_555
C29 C23 1_555 1_555
N5_2 Co1_2 1_555 1_555
O7 Co6 1_555 1_555
C9 C11 1_555 1_555
C13 C15 1_555 1_555
C25 C27 1_555 1_555
Co7 O9 1_555 1_555
S3_2 O11_2 1_555 1_555
O19 C3_2 1_555 1_555
O21 C29_2 1_555 1_555
O9 C29_2 1_555 1_555
O12 C34 1_555 1_555
O13_2 S3_2 1_555 1_555
O16 C47 1_555 1_555
N1 Co7 1_555 1_555
N2 H1 1_555 1_555
N3 H2 1_555 1_555
N5_2 C50 1_555 1_555
C3_2 O3_2 1_555 1_555
C5_2 C3_2 1_555 1_555
C7_2 C5_2 1_555 1_555
H5_2 C7_2 1_555 1_555
C9_2 C7_2 1_555 1_555
H6_2 C9_2 1_555 1_555
C11_2 S3_2 1_555 1_555
C13_2 C11_2 1_555 1_555
H9_2 C13_2 1_555 1_555
C15_2 C5_2 1_555 1_555
H10_2 C15_2 1_555 1_555
C17_2 S3_2 1_555 1_555
C19_2 C17_2 1_555 1_555
H13_2 C19_2 1_555 1_555
C21_2 C19_2 1_555 1_555
H14_2 C21_2 1_555 1_555
C23_2 C21_2 1_555 1_555
C25_2 C23_2 1_555 1_555
H17 C25_2 1_555 1_555
C27_2 C17_2 1_555 1_555
H18_2 C27_2 1_555 1_555
C28 N1 1_555 1_555
H19 C28 1_555 1_555
C29_2 C23_2 1_555 1_555
C30 C28 1_555 1_555
H20 C30 1_555 1_555
C31 C30 1_555 1_555
C32 C31 1_555 1_555
H21 C32 1_555 1_555
C33 N1 1_555 1_555
H22 C33 1_555 1_555
C34 N2 1_555 1_555
C35 N2 1_555 1_555
C36 C35 1_555 1_555
H23 C36 1_555 1_555
C37 C36 1_555 1_555
H24 C37 1_555 1_555
C39 C38 1_555 1_555
C40 C35 1_555 1_555
H26 C40 1_555 1_555
C42 C41 1_555 1_555
C43 C42 1_555 1_555
H28 C43 1_555 1_555
C44 N3 1_555 1_555
C45 C44 1_555 1_555
H29 C45 1_555 1_555
C46 C41 1_555 1_555
H30 C46 1_555 1_555
C47 N3 1_555 1_555
C48 C47 1_555 1_555
C49 C48 1_555 1_555
H31 C49 1_555 1_555
C50 C49 1_555 1_555
H32 C50 1_555 1_555
C51 N5_2 1_555 1_555
C52 C48 1_555 1_555
H34 C52 1_555 1_555
C9_2 C11_2 1_555 1_555
C13_2 C15_2 1_555 1_555
C25_2 C27_2 1_555 1_555
C31 C34 1_555 1_555
C32 C33 1_555 1_555
C37 C38 1_555 1_555
C39 C40 1_555 1_555
C43 C44 1_555 1_555
C45 C46 1_555 1_555
C51 C52 1_555 1_555
O12_2 C34_2 1_555 1_555
N1_2 Co6 1_555 1_555
N2_2 H1_2 1_555 1_555
C28_2 N1_2 1_555 1_555
H19_2 C28_2 1_555 1_555
C30_2 C28_2 1_555 1_555
H20_2 C30_2 1_555 1_555
C31_2 C30_2 1_555 1_555
C32_2 C31_2 1_555 1_555
H21_2 C32_2 1_555 1_555
C33_2 N1_2 1_555 1_555
H22_2 C33_2 1_555 1_555
C34_2 N2_2 1_555 1_555
C35_2 N2_2 1_555 1_555
C36_2 C35_2 1_555 1_555
H23_2 C36_2 1_555 1_555
C37_2 C36_2 1_555 1_555
H24_2 C37_2 1_555 1_555
C39_2 C38_2 1_555 1_555
H25 C39_2 1_555 1_555
C40_2 C35_2 1_555 1_555
H26_2 C40_2 1_555 1_555
C31_2 C34_2 1_555 1_555
C32_2 C33_2 1_555 1_555
C37_2 C38_2 1_555 1_555
C39_2 C40_2 1_555 1_555
O15 S2 1_555 1_555
O16_2 C47_2 1_555 1_555
N3_2 H2_2 1_555 1_555
N5 C50_2 1_555 1_555
C41_2 S2 1_555 1_555
C42_2 C41_2 1_555 1_555
H27 C42_2 1_555 1_555
C43_2 C42_2 1_555 1_555
H28_2 C43_2 1_555 1_555
C44_2 N3_2 1_555 1_555
C45_2 C44_2 1_555 1_555
H29_2 C45_2 1_555 1_555
C46_2 C41_2 1_555 1_555
H30_2 C46_2 1_555 1_555
C47_2 N3_2 1_555 1_555
C48_2 C47_2 1_555 1_555
C49_2 C48_2 1_555 1_555
H31_2 C49_2 1_555 1_555
C50_2 C49_2 1_555 1_555
H32_2 C50_2 1_555 1_555
C51_2 N5 1_555 1_555
H33 C51_2 1_555 1_555
C52_2 C48_2 1_555 1_555
H34_2 C52_2 1_555 1_555
C43_2 C44_2 1_555 1_555
C45_2 C46_2 1_555 1_555
C51_2 C52_2 1_555 1_555
Co2 O9_2 1_555 1_555
S3_3 O11_3 1_555 1_555
O5 C3_3 1_555 1_555
O7_2 C29_3 1_555 1_555
O9_2 C29_3 1_555 1_555
O12_3 C34_3 1_555 1_555
O13_3 S3_3 1_555 1_555
O16_3 C47_3 1_555 1_555
N1_3 Co2 1_555 1_555
N2_3 H1_3 1_555 1_555
N3_3 H2_3 1_555 1_555
N4 C50_3 1_555 1_555
C3_3 O3_3 1_555 1_555
C5_3 C3_3 1_555 1_555
C7_3 C5_3 1_555 1_555
H5_3 C7_3 1_555 1_555
C9_3 C7_3 1_555 1_555
H6_3 C9_3 1_555 1_555
C11_3 S3_3 1_555 1_555
C13_3 C11_3 1_555 1_555
H9_3 C13_3 1_555 1_555
C15_3 C5_3 1_555 1_555
H10_3 C15_3 1_555 1_555
C17_3 S3_3 1_555 1_555
C19_3 C17_3 1_555 1_555
H13_3 C19_3 1_555 1_555
C21_3 C19_3 1_555 1_555
H14_3 C21_3 1_555 1_555
C23_3 C21_3 1_555 1_555
C25_3 C23_3 1_555 1_555
H17_2 C25_3 1_555 1_555
C27_3 C17_3 1_555 1_555
H18_3 C27_3 1_555 1_555
C28_3 N1_3 1_555 1_555
H19_3 C28_3 1_555 1_555
C29_3 C23_3 1_555 1_555
C30_3 C28_3 1_555 1_555
H20_3 C30_3 1_555 1_555
C31_3 C30_3 1_555 1_555
C32_3 C31_3 1_555 1_555
H21_3 C32_3 1_555 1_555
C33_3 N1_3 1_555 1_555
H22_3 C33_3 1_555 1_555
C34_3 N2_3 1_555 1_555
C35_3 N2_3 1_555 1_555
C36_3 C35_3 1_555 1_555
H23_3 C36_3 1_555 1_555
C37_3 C36_3 1_555 1_555
H24_3 C37_3 1_555 1_555
C39_3 C38_3 1_555 1_555
C40_3 C35_3 1_555 1_555
H26_3 C40_3 1_555 1_555
C42_3 C41_3 1_555 1_555
C43_3 C42_3 1_555 1_555
H28_3 C43_3 1_555 1_555
C44_3 N3_3 1_555 1_555
C45_3 C44_3 1_555 1_555
H29_3 C45_3 1_555 1_555
C46_3 C41_3 1_555 1_555
H30_3 C46_3 1_555 1_555
C47_3 N3_3 1_555 1_555
C48_3 C47_3 1_555 1_555
C49_3 C48_3 1_555 1_555
H31_3 C49_3 1_555 1_555
C50_3 C49_3 1_555 1_555
H32_3 C50_3 1_555 1_555
C51_3 N4 1_555 1_555
C52_3 C48_3 1_555 1_555
H34_3 C52_3 1_555 1_555
Co4 N4 1_555 1_555
O18 Co2 1_555 1_555
O2 Co3 1_555 1_555
O5 Co3 1_555 1_555
C9_3 C11_3 1_555 1_555
C13_3 C15_3 1_555 1_555
C25_3 C27_3 1_555 1_555
C31_3 C34_3 1_555 1_555
C32_3 C33_3 1_555 1_555
C37_3 C38_3 1_555 1_555
C39_3 C40_3 1_555 1_555
C43_3 C44_3 1_555 1_555
C45_3 C46_3 1_555 1_555
C51_3 C52_3 1_555 1_555
O15_2 S2_2 1_555 1_555
O16_4 C47_4 1_555 1_555
N3_4 H2_4 1_555 1_555
N4_2 C50_4 1_555 1_555
C41_4 S2_2 1_555 1_555
C42_4 C41_4 1_555 1_555
H27_2 C42_4 1_555 1_555
C43_4 C42_4 1_555 1_555
H28_4 C43_4 1_555 1_555
C44_4 N3_4 1_555 1_555
C45_4 C44_4 1_555 1_555
H29_4 C45_4 1_555 1_555
C46_4 C41_4 1_555 1_555
H30_4 C46_4 1_555 1_555
C47_4 N3_4 1_555 1_555
C48_4 C47_4 1_555 1_555
C49_4 C48_4 1_555 1_555
H31_4 C49_4 1_555 1_555
C50_4 C49_4 1_555 1_555
H32_4 C50_4 1_555 1_555
C51_4 N4_2 1_555 1_555
H33_2 C51_4 1_555 1_555
C52_4 C48_4 1_555 1_555
H34_4 C52_4 1_555 1_555
Co3 N4_2 1_555 1_555
C43_4 C44_4 1_555 1_555
C45_4 C46_4 1_555 1_555
C51_4 C52_4 1_555 1_555
O12_4 C34_4 1_555 1_555
N1_4 Co5 1_555 1_555
N2_4 H1_4 1_555 1_555
C28_4 N1_4 1_555 1_555
H19_4 C28_4 1_555 1_555
C30_4 C28_4 1_555 1_555
H20_4 C30_4 1_555 1_555
C31_4 C30_4 1_555 1_555
C32_4 C31_4 1_555 1_555
H21_4 C32_4 1_555 1_555
C33_4 N1_4 1_555 1_555
H22_4 C33_4 1_555 1_555
C34_4 N2_4 1_555 1_555
C35_4 N2_4 1_555 1_555
C36_4 C35_4 1_555 1_555
H23_4 C36_4 1_555 1_555
C37_4 C36_4 1_555 1_555
H24_4 C37_4 1_555 1_555
C39_4 C38_4 1_555 1_555
H25_2 C39_4 1_555 1_555
C40_4 C35_4 1_555 1_555
H26_4 C40_4 1_555 1_555
O21_2 Co5 1_555 1_555
C31_4 C34_4 1_555 1_555
C32_4 C33_4 1_555 1_555
C37_4 C38_4 1_555 1_555
C39_4 C40_4 1_555 1_555
Co3 O1_2 1_555 1_555
S1_2 O8_2 1_555 1_555
O1_2 C1_2 1_555 1_555
O18 C26_2 1_555 1_555
O6 C26_2 1_555 1_555
O10_2 S1_2 1_555 1_555
C1_2 C2_2 1_555 1_555
C2_2 C4_2 1_555 1_555
C4_2 H3_2 1_555 1_555
C6_2 C4_2 1_555 1_555
H4_2 C6_2 1_555 1_555
C8_2 S1_2 1_555 1_555
C10_2 C8_2 1_555 1_555
H7_2 C10_2 1_555 1_555
C12_2 C2_2 1_555 1_555
C14_2 S1_2 1_555 1_555
C16_2 C14_2 1_555 1_555
H11_2 C16_2 1_555 1_555
C18_2 C16_2 1_555 1_555
H12_2 C18_2 1_555 1_555
C20_2 C18_2 1_555 1_555
C22_2 C20_2 1_555 1_555
H15_2 C22_2 1_555 1_555
C24_2 C14_2 1_555 1_555
H16_2 C24_2 1_555 1_555
C26_2 C20_2 1_555 1_555
C6_2 C8_2 1_555 1_555
C10_2 C12_2 1_555 1_555
C22_2 C24_2 1_555 1_555
S3_4 O11_4 1_555 1_555
O3_4 Co4 1_555 1_555
O21_2 C29_4 1_555 1_555
O13_4 S3_4 1_555 1_555
C3_4 O3_4 1_555 1_555
C5_4 C3_4 1_555 1_555
C7_4 C5_4 1_555 1_555
H5_4 C7_4 1_555 1_555
C9_4 C7_4 1_555 1_555
H6_4 C9_4 1_555 1_555
C11_4 S3_4 1_555 1_555
C13_4 C11_4 1_555 1_555
H9_4 C13_4 1_555 1_555
C15_4 C5_4 1_555 1_555
H10_4 C15_4 1_555 1_555
C17_4 S3_4 1_555 1_555
C19_4 C17_4 1_555 1_555
H13_4 C19_4 1_555 1_555
C21_4 C19_4 1_555 1_555
H14_4 C21_4 1_555 1_555
C23_4 C21_4 1_555 1_555
C25_4 C23_4 1_555 1_555
C27_4 C17_4 1_555 1_555
H18_4 C27_4 1_555 1_555
C29_4 C23_4 1_555 1_555
C9_4 C11_4 1_555 1_555
C13_4 C15_4 1_555 1_555
C25_4 C27_4 1_555 1_555
S2_3 O14_3 1_555 1_555
O15_3 S2_3 1_555 1_555
S1_3 O8_3 1_555 1_555
O1_3 C1_3 1_555 1_555
O2_2 C1_3 1_555 1_555
O4_2 C26_3 1_555 1_555
O6_2 C26_3 1_555 1_555
O10_3 S1_3 1_555 1_555
C1_3 C2_3 1_555 1_555
C2_3 C4_3 1_555 1_555
C4_3 H3_3 1_555 1_555
C6_3 C4_3 1_555 1_555
H4_3 C6_3 1_555 1_555
C8_3 S1_3 1_555 1_555
C10_3 C8_3 1_555 1_555
H7_3 C10_3 1_555 1_555
C12_3 C2_3 1_555 1_555
H8_3 C12_3 1_555 1_555
C14_3 S1_3 1_555 1_555
C16_3 C14_3 1_555 1_555
H11_3 C16_3 1_555 1_555
C18_3 C16_3 1_555 1_555
H12_3 C18_3 1_555 1_555
C20_3 C18_3 1_555 1_555
C22_3 C20_3 1_555 1_555
H15_3 C22_3 1_555 1_555
C24_3 C14_3 1_555 1_555
H16_3 C24_3 1_555 1_555
C26_3 C20_3 1_555 1_555
C6_3 C8_3 1_555 1_555
C10_3 C12_3 1_555 1_555
C22_3 C24_3 1_555 1_555
S1_4 O8_4 1_555 1_555
O1_4 C1_4 1_555 1_555
O17_2 C1_4 1_555 1_555
O18_2 C26_4 1_555 1_555
O20_2 C26_4 1_555 1_555
O10_4 S1_4 1_555 1_555
C1_4 C2_4 1_555 1_555
C2_4 C4_4 1_555 1_555
C4_4 H3_4 1_555 1_555
C6_4 C4_4 1_555 1_555
H4_4 C6_4 1_555 1_555
C8_4 S1_4 1_555 1_555
C10_4 C8_4 1_555 1_555
H7_4 C10_4 1_555 1_555
C12_4 C2_4 1_555 1_555
H8_4 C12_4 1_555 1_555
C14_4 S1_4 1_555 1_555
C16_4 C14_4 1_555 1_555
H11_4 C16_4 1_555 1_555
C18_4 C16_4 1_555 1_555
H12_4 C18_4 1_555 1_555
C20_4 C18_4 1_555 1_555
C22_4 C20_4 1_555 1_555
H15_4 C22_4 1_555 1_555
C24_4 C14_4 1_555 1_555
H16_4 C24_4 1_555 1_555
C26_4 C20_4 1_555 1_555
C6_4 C8_4 1_555 1_555
C10_4 C12_4 1_555 1_555
C22_4 C24_4 1_555 1_555
S2_4 O14_4 1_555 1_555
O15_4 S2_4 1_555 1_555

#END
