
###############################################################################
#
# This file contains modified crystal structure data generated from the
# MOF subset of the Cambridge Structural Database (CSD) v543 
# hosted by the Cambridge Crystallographic Data Centre (CCDC).
#
# This work is licensed under the Creative Commons
# Attribution-NonCommercial-ShareAlike 4.0 International License.
# To view a copy of this license, visit
# http://creativecommons.org/licenses/by-nc-sa/4.0/
# or send a letter to
# Creative Commons, PO Box 1866, Mountain View, CA 94042, USA.
#
# CIF created using the CSD Python API on 29 September 2022
# The structure has been converted into the P1 space group
# The structure has a 3D framework
# The original CSD entry VEHPEF is in the rhombohedral crystal system
# The original CSD entry VEHPEF is in a Sohncke space group
# The framework has been calculated to contain at least 10.0% void space
# The void calculation uses a probe of radius 1.32A, grid spacing 0.4
#
###############################################################################

data_VEHPEF
_chemical_formula_moiety         '(C162 H144 N18 O33 Zn9)n'
_symmetry_cell_setting           triclinic
_symmetry_space_group_name_H-M   'P 1'
_symmetry_Int_Tables_number      1
_space_group_name_Hall           'P 1'
loop_
_symmetry_equiv_pos_site_id
_symmetry_equiv_pos_as_xyz
1 x,y,z
_cell_length_a                   18.2300(4)
_cell_length_b                   18.2300(4)
_cell_length_c                   17.1118(5)
_cell_angle_alpha                90
_cell_angle_beta                 90
_cell_angle_gamma                120
_cell_volume                     4924.93
loop_
_atom_site_label
_atom_site_type_symbol
_atom_site_fract_x
_atom_site_fract_y
_atom_site_fract_z
Zn1 Zn 0.0000 0.63560(5) 0.0000
Zn3 Zn 0.03107(5) 0.69773(5) 0.3333
N3 N 0.0698(4) 0.5950(6) 0.0628(3)
O6 O 0.1153(8) 0.7777(14) 0.0038(6)
Zn1_2 Zn 0.0000 0.63560(5) 1.0000
O4 O 0.0543(8) 0.7002(13) 0.9079(7)
Zn1_3 Zn 1.0000 0.63560(5) 0.0000
O1 O 0.9457(8) 0.6459(10) 0.0921(7)
C1 C 0.8237(8) 0.6548(10) 0.1296(6)
C2 C 0.7416(8) 0.6375(11) 0.0876(7)
H1 H 0.7571 0.6674 0.0381
H2 H 0.7089 0.5774 0.0760
C3 C 0.6879(8) 0.6612(10) 0.1291(8)
H3 H 0.6967 0.7135 0.1060
H4 H 0.6299 0.6183 0.1179
C4 C 0.8832(11) 0.6524(15) 0.0706(9)
H8 H 0.8548 0.4588 0.0207
O3 O 0.9665(13) 0.6874(10) 0.2412(7)
O5 O 0.8890(14) 0.6709(11) 0.3371(6)
C10 C 0.8356(13) 0.6785(10) 0.2037(6)
C11 C 0.7708(14) 0.6958(11) 0.2457(7)
H9 H 0.7564 0.6659 0.2952
H10 H 0.7982 0.7559 0.2573
C12 C 0.6934(13) 0.6721(10) 0.2042(8)
H11 H 0.6499 0.6198 0.2273
H12 H 0.6783 0.7150 0.2154
C13 C 0.8975(19) 0.6809(15) 0.2627(9)
Zn1_4 Zn 1.0000 0.63560(5) 1.0000
N1 N 0.9302(4) 0.5252(4) 0.9372(3)
O2 O 0.8847(8) 0.6624(11) 0.9962(6)
C5 C 0.9493(4) 0.5197(4) 0.8626(4)
H5 H 0.9944 0.5668 0.8395
C6 C 0.9042(5) 0.4464(4) 0.8183(4)
H6 H 0.9156 0.4460 0.7654
C7 C 0.8428(4) 0.3748(5) 0.8544(4)
C8 C 0.8227(6) 0.3793(5) 0.9322(4)
H7 H 0.7800 0.3325 0.9579
C9 C 0.8684(6) 0.4556(5) 0.9689(5)
Zn2 Zn 0.69773(5) 0.03107(5) 0.6667
N2 N 0.7383(6) 0.1415(4) 0.7295(3)
C14 C 0.7629(6) 0.1470(4) 0.8041(4)
H13 H 0.7609 0.0999 0.8272
C15 C 0.7911(6) 0.2203(4) 0.8484(4)
H14 H 0.8029 0.2207 0.9013
C16 C 0.8013(6) 0.2919(5) 0.8123(4)
C17 C 0.7767(8) 0.2874(5) 0.7345(4)
H15 H 0.7808 0.3342 0.7088
C18 C 0.7461(8) 0.2111(5) 0.6978(5)
H16 H 0.7293 0.2079 0.6460
Zn1_5 Zn 0.36440(5) 0.36440(5) 0.0000
O1_2 O 0.3541(10) 0.2998(13) 0.0921(7)
C1_2 C 0.3452(10) 0.1689(13) 0.1296(6)
C2_2 C 0.3625(11) 0.1041(14) 0.0876(7)
H1_2 H 0.3326 0.0897 0.0381
H2_2 H 0.4226 0.1315 0.0760
C3_2 C 0.3388(10) 0.0267(13) 0.1291(8)
H4_2 H 0.3817 0.0116 0.1179
C4_2 C 0.3476(15) 0.2308(19) 0.0706(9)
H8_2 H 0.5412 0.3960 0.0207
Zn3_2 Zn 0.30227(5) 0.33333(7) 0.3333
N3_2 N 0.4050(6) 0.4748(7) 0.0628(3)
O3_2 O 0.3126(10) 0.2790(16) 0.2412(7)
O5_2 O 0.3291(11) 0.2180(18) 0.3371(6)
O6_2 O 0.2223(14) 0.3376(16) 0.0038(6)
C10_2 C 0.3215(10) 0.1570(16) 0.2037(6)
C11_2 C 0.3042(11) 0.0749(18) 0.2457(7)
H9_2 H 0.3341 0.0904 0.2952
H10_2 H 0.2441 0.0422 0.2573
C12_2 C 0.3279(10) 0.0212(16) 0.2042(8)
H11_2 H 0.3802 0.0300 0.2273
C13_2 C 0.3191(15) 0.2165(24) 0.2627(9)
Zn1_6 Zn 0.36440(5) 0.36440(5) 1.0000
N1_2 N 0.4748(4) 0.4050(6) 0.9372(3)
O2_2 O 0.3376(11) 0.2223(14) 0.9962(6)
C5_2 C 0.4803(4) 0.4296(6) 0.8626(4)
H5_2 H 0.4332 0.4276 0.8395
C6_2 C 0.5536(4) 0.4578(6) 0.8183(4)
H6_2 H 0.5540 0.4696 0.7654
C7_2 C 0.6252(5) 0.4680(6) 0.8544(4)
C8_2 C 0.6207(5) 0.4434(8) 0.9322(4)
H7_2 H 0.6675 0.4475 0.9579
C9_2 C 0.5444(5) 0.4128(8) 0.9689(5)
Zn2_2 Zn 0.96893(5) 0.66667(7) 0.6667
N2_2 N 0.8585(4) 0.5969(7) 0.7295(3)
O4_2 O 0.2998(13) 0.3541(15) 0.9079(7)
C14_2 C 0.8530(4) 0.6160(7) 0.8041(4)
H13_2 H 0.9001 0.6611 0.8272
C15_2 C 0.7797(4) 0.5709(7) 0.8484(4)
H14_2 H 0.7793 0.5823 0.9013
C16_2 C 0.7081(5) 0.5095(8) 0.8123(4)
C17_2 C 0.7126(5) 0.4894(9) 0.7345(4)
H15_2 H 0.6658 0.4467 0.7088
C18_2 C 0.7889(5) 0.5351(9) 0.6978(5)
H16_2 H 0.7921 0.5215 0.6460
Zn1_7 Zn 0.63560(5) -0.0000 0.0000
O1_3 O 0.7002(13) 0.0543(8) 0.0921(7)
C1_3 C 0.8311(13) 0.1763(8) 0.1296(6)
C2_3 C 0.8959(14) 0.2584(8) 0.0876(7)
H1_3 H 0.9103 0.2429 0.0381
H2_3 H 0.8685 0.2911 0.0760
C3_3 C 0.9733(13) 0.3121(8) 0.1291(8)
H4_3 H 0.9884 0.3701 0.1179
C4_3 C 0.7692(19) 0.1168(11) 0.0706(9)
H8_3 H 0.6040 0.1452 0.0207
O3_3 O 0.7210(16) 0.0335(13) 0.2412(7)
O5_3 O 0.7820(18) 0.1110(14) 0.3371(6)
C10_3 C 0.8430(16) 0.1644(13) 0.2037(6)
C11_3 C 0.9251(18) 0.2292(14) 0.2457(7)
H9_3 H 0.9096 0.2436 0.2952
H10_3 H 0.9578 0.2018 0.2573
C12_3 C 0.9788(16) 0.3066(13) 0.2042(8)
H11_3 H 0.9700 0.3501 0.2273
C13_3 C 0.7835(24) 0.1025(19) 0.2627(9)
Zn1_8 Zn 0.63560(5) -0.0000 1.0000
N1_3 N 0.5950(6) 0.0698(4) 0.9372(3)
O2_3 O 0.7777(14) 0.1153(8) 0.9962(6)
C5_3 C 0.5704(6) 0.0507(4) 0.8626(4)
H5_3 H 0.5724 0.0056 0.8395
C6_3 C 0.5422(6) 0.0958(5) 0.8183(4)
H6_3 H 0.5304 0.0844 0.7654
C7_3 C 0.5320(6) 0.1572(4) 0.8544(4)
C8_3 C 0.5566(8) 0.1773(6) 0.9322(4)
H7_3 H 0.5525 0.2200 0.9579
C9_3 C 0.5872(8) 0.1316(6) 0.9689(5)
Zn2_3 Zn 0.33333(7) 0.30227(5) 0.6667
N2_3 N 0.4031(7) 0.2617(6) 0.7295(3)
C14_3 C 0.3840(7) 0.2371(6) 0.8041(4)
H13_3 H 0.3389 0.2391 0.8272
C15_3 C 0.4291(7) 0.2089(6) 0.8484(4)
H14_3 H 0.4177 0.1971 0.9013
C16_3 C 0.4905(8) 0.1987(6) 0.8123(4)
C17_3 C 0.5106(9) 0.2233(8) 0.7345(4)
H15_3 H 0.5533 0.2192 0.7088
C18_3 C 0.4649(9) 0.2539(8) 0.6978(5)
H16_3 H 0.4785 0.2707 0.6460
Zn1_9 Zn 0.63560(5) 1.0000 0.0000
Zn3_3 Zn 0.66667(7) 0.96893(5) 0.3333
N3_3 N 0.5252(7) 0.9302(4) 0.0628(3)
O6_3 O 0.6624(16) 0.8847(8) 0.0038(6)
Zn1_10 Zn 0.63560(5) 1.0000 1.0000
O4_3 O 0.6459(15) 0.9457(8) 0.9079(7)
C5_4 C 0.5197(4) 0.9493(4) 0.1374(4)
H5_4 H 0.5668 0.9944 0.1605
C6_4 C 0.4464(4) 0.9042(5) 0.1817(4)
H6_4 H 0.4460 0.9156 0.2346
C7_4 C 0.3748(5) 0.8428(4) 0.1456(4)
C8_4 C 0.3793(5) 0.8227(6) 0.0678(4)
H7_4 H 0.3325 0.7800 0.0421
C9_4 C 0.4556(5) 0.8684(6) 0.0311(5)
N2_4 N 0.1415(4) 0.7383(6) 0.2705(3)
C14_4 C 0.1470(4) 0.7629(6) 0.1959(4)
H13_4 H 0.0999 0.7609 0.1728
C15_4 C 0.2203(4) 0.7911(6) 0.1516(4)
H14_4 H 0.2207 0.8029 0.0987
C16_4 C 0.2919(5) 0.8013(6) 0.1877(4)
C17_4 C 0.2874(5) 0.7767(8) 0.2655(4)
H15_4 H 0.3342 0.7808 0.2912
C18_4 C 0.2111(5) 0.7461(8) 0.3022(5)
H16_4 H 0.2079 0.7293 0.3540
C1_4 C 0.6548(10) 0.8237(8) 0.8704(6)
C2_4 C 0.6375(11) 0.7416(8) 0.9124(7)
H1_4 H 0.6674 0.7571 0.9619
H2_4 H 0.5774 0.7089 0.9240
C3_4 C 0.6612(10) 0.6879(8) 0.8709(8)
H3_2 H 0.7135 0.6967 0.8940
H4_4 H 0.6183 0.6299 0.8821
C4_4 C 0.6524(15) 0.8832(11) 0.9294(9)
H8_4 H 0.4588 0.8548 0.9793
O3_4 O 0.6874(10) 0.9665(13) 0.7588(7)
O5_4 O 0.6709(11) 0.8890(14) 0.6629(6)
C10_4 C 0.6785(10) 0.8356(13) 0.7963(6)
C11_4 C 0.6958(11) 0.7708(14) 0.7543(7)
H9_4 H 0.6659 0.7564 0.7048
H10_4 H 0.7559 0.7982 0.7427
C12_4 C 0.6721(10) 0.6934(13) 0.7958(8)
H11_4 H 0.6198 0.6499 0.7727
H12_2 H 0.7150 0.6783 0.7846
C13_4 C 0.6809(15) 0.8975(19) 0.7373(9)
C5_5 C 0.0507(4) 0.5704(6) 0.1374(4)
H5_5 H 0.0056 0.5724 0.1605
C6_5 C 0.0958(5) 0.5422(6) 0.1817(4)
H6_5 H 0.0844 0.5304 0.2346
C7_5 C 0.1572(4) 0.5320(6) 0.1456(4)
C8_5 C 0.1773(6) 0.5566(8) 0.0678(4)
H7_5 H 0.2200 0.5525 0.0421
C9_5 C 0.1316(6) 0.5872(8) 0.0311(5)
N2_5 N 0.2617(6) 0.4031(7) 0.2705(3)
C14_5 C 0.2371(6) 0.3840(7) 0.1959(4)
H13_5 H 0.2391 0.3389 0.1728
C15_5 C 0.2089(6) 0.4291(7) 0.1516(4)
H14_5 H 0.1971 0.4177 0.0987
C16_5 C 0.1987(6) 0.4905(8) 0.1877(4)
C17_5 C 0.2233(8) 0.5106(9) 0.2655(4)
H15_5 H 0.2192 0.5533 0.2912
C18_5 C 0.2539(8) 0.4649(9) 0.3022(5)
H16_5 H 0.2707 0.4785 0.3540
C1_5 C 0.1763(8) 0.8311(13) 0.8704(6)
C2_5 C 0.2584(8) 0.8959(14) 0.9124(7)
H1_5 H 0.2429 0.9103 0.9619
H2_5 H 0.2911 0.8685 0.9240
C3_5 C 0.3121(8) 0.9733(13) 0.8709(8)
H4_5 H 0.3701 0.9884 0.8821
C4_5 C 0.1168(11) 0.7692(19) 0.9294(9)
H8_5 H 0.1452 0.6040 0.9793
O3_5 O 0.0335(13) 0.7210(16) 0.7588(7)
O5_5 O 0.1110(14) 0.7820(18) 0.6629(6)
C10_5 C 0.1644(13) 0.8430(16) 0.7963(6)
C11_5 C 0.2292(14) 0.9251(18) 0.7543(7)
H9_5 H 0.2436 0.9096 0.7048
H10_5 H 0.2018 0.9578 0.7427
C12_5 C 0.3066(13) 0.9788(16) 0.7958(8)
H11_5 H 0.3501 0.9700 0.7727
C13_5 C 0.1025(19) 0.7835(24) 0.7373(9)
C5_6 C 0.4296(6) 0.4803(4) 0.1374(4)
H5_6 H 0.4276 0.4332 0.1605
C6_6 C 0.4578(6) 0.5536(4) 0.1817(4)
H6_6 H 0.4696 0.5540 0.2346
C7_6 C 0.4680(6) 0.6252(5) 0.1456(4)
C8_6 C 0.4434(8) 0.6207(5) 0.0678(4)
H7_6 H 0.4475 0.6675 0.0421
C9_6 C 0.4128(8) 0.5444(5) 0.0311(5)
N2_6 N 0.5969(7) 0.8585(4) 0.2705(3)
C14_6 C 0.6160(7) 0.8530(4) 0.1959(4)
H13_6 H 0.6611 0.9001 0.1728
C15_6 C 0.5709(7) 0.7797(4) 0.1516(4)
H14_6 H 0.5823 0.7793 0.0987
C16_6 C 0.5095(8) 0.7081(5) 0.1877(4)
C17_6 C 0.4894(9) 0.7126(5) 0.2655(4)
H15_6 H 0.4467 0.6658 0.2912
C18_6 C 0.5351(9) 0.7889(5) 0.3022(5)
H16_6 H 0.5215 0.7921 0.3540
C1_6 C 0.1689(13) 0.3452(10) 0.8704(6)
C2_6 C 0.1041(14) 0.3625(11) 0.9124(7)
H1_6 H 0.0897 0.3326 0.9619
H2_6 H 0.1315 0.4226 0.9240
C3_6 C 0.0267(13) 0.3388(10) 0.8709(8)
H4_6 H 0.0116 0.3817 0.8821
C4_6 C 0.2308(19) 0.3476(15) 0.9294(9)
H8_6 H 0.3960 0.5412 0.9793
O3_6 O 0.2790(16) 0.3126(10) 0.7588(7)
O5_6 O 0.2180(18) 0.3291(11) 0.6629(6)
C10_6 C 0.1570(16) 0.3215(10) 0.7963(6)
C11_6 C 0.0749(18) 0.3042(11) 0.7543(7)
H9_6 H 0.0904 0.3341 0.7048
H10_6 H 0.0422 0.2441 0.7427
C12_6 C 0.0212(16) 0.3279(10) 0.7958(8)
H11_6 H 0.0300 0.3802 0.7727
C13_6 C 0.2165(24) 0.3191(15) 0.7373(9)
H1_7 H 0.4238 0.0007 0.3714
H3_3 H 0.3634 0.0468 0.4393
O3_7 O 0.6331(13) 0.0208(10) 0.5746(7)
O5_7 O 0.5556(14) 0.0043(11) 0.6705(6)
C10_7 C 0.5022(13) 0.0119(10) 0.5371(6)
C11_7 C 0.4374(14) 0.0292(11) 0.5791(7)
H10_7 H 0.4648 0.0893 0.5907
C12_7 C 0.3600(13) 0.0055(10) 0.5376(8)
H12_3 H 0.3449 0.0484 0.5488
C13_7 C 0.5641(19) 0.0143(15) 0.5961(9)
O1_4 O 0.6124(8) 0.9792(10) 0.4254(7)
O2_4 O 0.5514(8) 0.9957(11) 0.3295(6)
C1_7 C 0.4904(8) 0.9881(10) 0.4629(6)
C2_7 C 0.4083(8) 0.9708(11) 0.4209(7)
H2_7 H 0.3756 0.9107 0.4093
C3_7 C 0.3546(8) 0.9945(10) 0.4624(8)
H4_7 H 0.2966 0.9516 0.4512
C4_7 C 0.5499(11) 0.9857(15) 0.4039(9)
N3_4 N 0.7365(4) 0.9283(6) 0.3961(3)
H9_7 H 0.4230 0.9993 0.6286
H11_7 H 0.3165 0.9532 0.5607
O1_5 O 0.0208(10) 0.6331(13) 0.4254(7)
O2_5 O 0.0043(11) 0.5556(14) 0.3295(6)
C1_8 C 0.0119(10) 0.5022(13) 0.4629(6)
C2_8 C 0.0292(11) 0.4374(14) 0.4209(7)
H2_8 H 0.0893 0.4648 0.4093
C3_8 C 0.0055(10) 0.3600(13) 0.4624(8)
H4_8 H 0.0484 0.3449 0.4512
C4_8 C 0.0143(15) 0.5641(19) 0.4039(9)
N3_5 N 0.0717(6) 0.8081(7) 0.3961(3)
H9_8 H 0.0007 0.4238 0.6286
H11_8 H 0.0468 0.3634 0.5607
H1_8 H 0.9993 0.4230 0.3714
H3_4 H 0.9532 0.3165 0.4393
O3_8 O 0.9792(10) 0.6124(16) 0.5746(7)
O5_8 O 0.9957(11) 0.5514(18) 0.6705(6)
C10_8 C 0.9881(10) 0.4904(16) 0.5371(6)
C11_8 C 0.9708(11) 0.4083(18) 0.5791(7)
H10_8 H 0.9107 0.3756 0.5907
C12_8 C 0.9945(10) 0.3546(16) 0.5376(8)
H12_4 H 0.9516 0.2966 0.5488
C13_8 C 0.9857(15) 0.5499(24) 0.5961(9)
O1_6 O 0.3669(13) 0.3876(8) 0.4254(7)
O2_6 O 0.4444(14) 0.4486(8) 0.3295(6)
C1_9 C 0.4978(13) 0.5096(8) 0.4629(6)
C2_9 C 0.5626(14) 0.5917(8) 0.4209(7)
H1_9 H 0.5770 0.5762 0.3714
H2_9 H 0.5352 0.6244 0.4093
C3_9 C 0.6400(13) 0.6454(8) 0.4624(8)
H3_5 H 0.6835 0.6366 0.4393
H4_9 H 0.6551 0.7034 0.4512
C4_9 C 0.4359(19) 0.4501(11) 0.4039(9)
N3_6 N 0.1919(7) 0.2635(4) 0.3961(3)
O3_9 O 0.3876(16) 0.3669(13) 0.5746(7)
O5_9 O 0.4486(18) 0.4444(14) 0.6705(6)
C10_9 C 0.5096(16) 0.4978(13) 0.5371(6)
C11_9 C 0.5917(18) 0.5626(14) 0.5791(7)
H9_9 H 0.5762 0.5770 0.6286
H10_9 H 0.6244 0.5352 0.5907
C12_9 C 0.6454(16) 0.6400(13) 0.5376(8)
H11_9 H 0.6366 0.6835 0.5607
H12_5 H 0.7034 0.6551 0.5488
C13_9 C 0.4501(24) 0.4359(19) 0.5961(9)
C5_7 C 0.1864(4) 0.2826(4) 0.4707(4)
H5_7 H 0.2335 0.3277 0.4938
C6_7 C 0.1131(4) 0.2375(5) 0.5150(4)
H6_7 H 0.1127 0.2489 0.5679
C7_7 C 0.0415(5) 0.1761(4) 0.4789(4)
C8_7 C 0.0460(5) 0.1560(6) 0.4011(4)
C9_7 C 0.1223(5) 0.2017(6) 0.3644(5)
H8_7 H 0.1255 0.1881 0.3126
H15_7 H 0.0008 0.1142 0.6246
H7_7 H 0.9992 0.1133 0.3754
N2_7 N 0.8081(4) 0.0717(6) 0.6039(3)
C14_7 C 0.8136(4) 0.0963(6) 0.5293(4)
H13_7 H 0.7665 0.0943 0.5062
C15_7 C 0.8869(4) 0.1245(6) 0.4850(4)
H14_7 H 0.8873 0.1363 0.4321
C16_7 C 0.9585(5) 0.1347(6) 0.5211(4)
C17_7 C 0.9540(5) 0.1101(8) 0.5989(4)
C18_7 C 0.8777(5) 0.0795(8) 0.6356(5)
H16_7 H 0.8745 0.0627 0.6874
C5_8 C 0.7174(4) 0.9037(6) 0.4707(4)
H5_8 H 0.6723 0.9057 0.4938
C6_8 C 0.7625(5) 0.8755(6) 0.5150(4)
H6_8 H 0.7511 0.8637 0.5679
C7_8 C 0.8239(4) 0.8653(6) 0.4789(4)
C8_8 C 0.8440(6) 0.8899(8) 0.4011(4)
H7_8 H 0.8867 0.8858 0.3754
C9_8 C 0.7983(6) 0.9205(8) 0.3644(5)
H8_8 H 0.8119 0.9373 0.3126
N2_8 N 0.9283(6) 0.7365(7) 0.6039(3)
C14_8 C 0.9037(6) 0.7174(7) 0.5293(4)
H13_8 H 0.9057 0.6723 0.5062
C15_8 C 0.8755(6) 0.7625(7) 0.4850(4)
H14_8 H 0.8637 0.7511 0.4321
C16_8 C 0.8653(6) 0.8239(8) 0.5211(4)
C17_8 C 0.8899(8) 0.8440(9) 0.5989(4)
H15_8 H 0.8858 0.8867 0.6246
C18_8 C 0.9205(8) 0.7983(9) 0.6356(5)
H16_8 H 0.9373 0.8119 0.6874
H7_9 H 0.1142 0.0008 0.3754
N2_9 N 0.2635(7) 0.1919(4) 0.6039(3)
C14_9 C 0.2826(7) 0.1864(4) 0.5293(4)
H13_9 H 0.3277 0.2335 0.5062
C15_9 C 0.2375(7) 0.1131(4) 0.4850(4)
H14_9 H 0.2489 0.1127 0.4321
C16_9 C 0.1761(8) 0.0415(5) 0.5211(4)
C17_9 C 0.1560(9) 0.0460(5) 0.5989(4)
C18_9 C 0.2017(9) 0.1223(5) 0.6356(5)
H16_9 H 0.1881 0.1255 0.6874
C5_9 C 0.0963(6) 0.8136(4) 0.4707(4)
H5_9 H 0.0943 0.7665 0.4938
C6_9 C 0.1245(6) 0.8869(4) 0.5150(4)
H6_9 H 0.1363 0.8873 0.5679
C7_9 C 0.1347(6) 0.9585(5) 0.4789(4)
C8_9 C 0.1101(8) 0.9540(5) 0.4011(4)
C9_9 C 0.0795(8) 0.8777(5) 0.3644(5)
H8_9 H 0.0627 0.8745 0.3126
H15_9 H 0.1133 0.9992 0.6246
H3_6 H 0.2865 0.9832 0.1060
H12_6 H 0.2850 0.9632 0.2154
H3_7 H 0.0168 0.3033 0.1060
H12_7 H 0.0368 0.3217 0.2154
H3_8 H 0.3033 0.0168 0.8940
H12_8 H 0.3217 0.0368 0.7846
H3_9 H 0.9832 0.2865 0.8940
H12_9 H 0.9632 0.2850 0.7846
loop_
_geom_bond_atom_site_label_1
_geom_bond_atom_site_label_2
_geom_bond_site_symmetry_1
_geom_bond_site_symmetry_2
N3 Zn1 1_555 1_555
O6 Zn1 1_555 1_555
O4 Zn1_2 1_555 1_555
O1 Zn1_3 1_555 1_555
C1 C2 1_555 1_555
C2 H1 1_555 1_555
H2 C2 1_555 1_555
C3 C2 1_555 1_555
H3 C3 1_555 1_555
H4 C3 1_555 1_555
C4 O1 1_555 1_555
O3 C13 1_555 1_555
C10 C1 1_555 1_555
C11 C10 1_555 1_555
H9 C11 1_555 1_555
H10 C11 1_555 1_555
C12 C3 1_555 1_555
H11 C12 1_555 1_555
H12 C12 1_555 1_555
C13 O5 1_555 1_555
C1 C4 1_555 1_555
C10 C13 1_555 1_555
C11 C12 1_555 1_555
Zn1_4 N1 1_555 1_555
N1 C5 1_555 1_555
O2 Zn1_4 1_555 1_555
C5 H5 1_555 1_555
C6 C5 1_555 1_555
H6 C6 1_555 1_555
C7 C6 1_555 1_555
C8 C7 1_555 1_555
H7 C8 1_555 1_555
C9 N1 1_555 1_555
Zn2 N2 1_555 1_555
N2 C14 1_555 1_555
C14 H13 1_555 1_555
C15 C14 1_555 1_555
H14 C15 1_555 1_555
C16 C7 1_555 1_555
C17 C16 1_555 1_555
H15 C17 1_555 1_555
C18 N2 1_555 1_555
H16 C18 1_555 1_555
C8 C9 1_555 1_555
C15 C16 1_555 1_555
C17 C18 1_555 1_555
O1_2 Zn1_5 1_555 1_555
C1_2 C2_2 1_555 1_555
C2_2 H1_2 1_555 1_555
H2_2 C2_2 1_555 1_555
C3_2 C2_2 1_555 1_555
H4_2 C3_2 1_555 1_555
C4_2 O1_2 1_555 1_555
Zn3_2 O3_2 1_555 1_555
N3_2 Zn1_5 1_555 1_555
O3_2 C13_2 1_555 1_555
O5_2 Zn3_2 1_555 1_555
O6_2 Zn1_5 1_555 1_555
C10_2 C1_2 1_555 1_555
C11_2 C10_2 1_555 1_555
H9_2 C11_2 1_555 1_555
H10_2 C11_2 1_555 1_555
C12_2 C3_2 1_555 1_555
H11_2 C12_2 1_555 1_555
C13_2 O5_2 1_555 1_555
C1_2 C4_2 1_555 1_555
C10_2 C13_2 1_555 1_555
C11_2 C12_2 1_555 1_555
Zn1_6 N1_2 1_555 1_555
N1_2 C5_2 1_555 1_555
O2_2 Zn1_6 1_555 1_555
C5_2 H5_2 1_555 1_555
C6_2 C5_2 1_555 1_555
H6_2 C6_2 1_555 1_555
C7_2 C6_2 1_555 1_555
C8_2 C7_2 1_555 1_555
H7_2 C8_2 1_555 1_555
C9_2 N1_2 1_555 1_555
Zn2_2 N2_2 1_555 1_555
N2_2 C14_2 1_555 1_555
O4_2 Zn1_6 1_555 1_555
C14_2 H13_2 1_555 1_555
C15_2 C14_2 1_555 1_555
H14_2 C15_2 1_555 1_555
C16_2 C7_2 1_555 1_555
C17_2 C16_2 1_555 1_555
H15_2 C17_2 1_555 1_555
C18_2 N2_2 1_555 1_555
H16_2 C18_2 1_555 1_555
C8_2 C9_2 1_555 1_555
C15_2 C16_2 1_555 1_555
C17_2 C18_2 1_555 1_555
O1_3 Zn1_7 1_555 1_555
C1_3 C2_3 1_555 1_555
C2_3 H1_3 1_555 1_555
H2_3 C2_3 1_555 1_555
C3_3 C2_3 1_555 1_555
H4_3 C3_3 1_555 1_555
C4_3 O1_3 1_555 1_555
O3_3 C13_3 1_555 1_555
C10_3 C1_3 1_555 1_555
C11_3 C10_3 1_555 1_555
H9_3 C11_3 1_555 1_555
H10_3 C11_3 1_555 1_555
C12_3 C3_3 1_555 1_555
H11_3 C12_3 1_555 1_555
C13_3 O5_3 1_555 1_555
C1_3 C4_3 1_555 1_555
C10_3 C13_3 1_555 1_555
C11_3 C12_3 1_555 1_555
Zn1_8 N1_3 1_555 1_555
N1_3 C5_3 1_555 1_555
O2_3 Zn1_8 1_555 1_555
C5_3 H5_3 1_555 1_555
C6_3 C5_3 1_555 1_555
H6_3 C6_3 1_555 1_555
C7_3 C6_3 1_555 1_555
C8_3 C7_3 1_555 1_555
H7_3 C8_3 1_555 1_555
C9_3 N1_3 1_555 1_555
Zn2_3 N2_3 1_555 1_555
N2_3 C14_3 1_555 1_555
C14_3 H13_3 1_555 1_555
C15_3 C14_3 1_555 1_555
H14_3 C15_3 1_555 1_555
C16_3 C7_3 1_555 1_555
C17_3 C16_3 1_555 1_555
H15_3 C17_3 1_555 1_555
C18_3 N2_3 1_555 1_555
H16_3 C18_3 1_555 1_555
C8_3 C9_3 1_555 1_555
C15_3 C16_3 1_555 1_555
C17_3 C18_3 1_555 1_555
N3_3 Zn1_9 1_555 1_555
O6_3 Zn1_9 1_555 1_555
O4_3 Zn1_10 1_555 1_555
N3_3 C5_4 1_555 1_555
C5_4 H5_4 1_555 1_555
C6_4 C5_4 1_555 1_555
H6_4 C6_4 1_555 1_555
C7_4 C6_4 1_555 1_555
C8_4 C7_4 1_555 1_555
H7_4 C8_4 1_555 1_555
C9_4 N3_3 1_555 1_555
Zn3 N2_4 1_555 1_555
N2_4 C14_4 1_555 1_555
C14_4 H13_4 1_555 1_555
C15_4 C14_4 1_555 1_555
H14_4 C15_4 1_555 1_555
C16_4 C7_4 1_555 1_555
C17_4 C16_4 1_555 1_555
H15_4 C17_4 1_555 1_555
C18_4 N2_4 1_555 1_555
H16_4 C18_4 1_555 1_555
C8_4 C9_4 1_555 1_555
C15_4 C16_4 1_555 1_555
C17_4 C18_4 1_555 1_555
C1_4 C2_4 1_555 1_555
C2_4 H1_4 1_555 1_555
H2_4 C2_4 1_555 1_555
C3_4 C2_4 1_555 1_555
H3_2 C3_4 1_555 1_555
H4_4 C3_4 1_555 1_555
C4_4 O4_3 1_555 1_555
O3_4 C13_4 1_555 1_555
C10_4 C1_4 1_555 1_555
C11_4 C10_4 1_555 1_555
H9_4 C11_4 1_555 1_555
H10_4 C11_4 1_555 1_555
C12_4 C3_4 1_555 1_555
H11_4 C12_4 1_555 1_555
H12_2 C12_4 1_555 1_555
C13_4 O5_4 1_555 1_555
C1_4 C4_4 1_555 1_555
C10_4 C13_4 1_555 1_555
C11_4 C12_4 1_555 1_555
N3 C5_5 1_555 1_555
C5_5 H5_5 1_555 1_555
C6_5 C5_5 1_555 1_555
H6_5 C6_5 1_555 1_555
C7_5 C6_5 1_555 1_555
C8_5 C7_5 1_555 1_555
H7_5 C8_5 1_555 1_555
C9_5 N3 1_555 1_555
Zn3_2 N2_5 1_555 1_555
N2_5 C14_5 1_555 1_555
C14_5 H13_5 1_555 1_555
C15_5 C14_5 1_555 1_555
H14_5 C15_5 1_555 1_555
C16_5 C7_5 1_555 1_555
C17_5 C16_5 1_555 1_555
H15_5 C17_5 1_555 1_555
C18_5 N2_5 1_555 1_555
H16_5 C18_5 1_555 1_555
C8_5 C9_5 1_555 1_555
C15_5 C16_5 1_555 1_555
C17_5 C18_5 1_555 1_555
C1_5 C2_5 1_555 1_555
C2_5 H1_5 1_555 1_555
H2_5 C2_5 1_555 1_555
C3_5 C2_5 1_555 1_555
H4_5 C3_5 1_555 1_555
C4_5 O4 1_555 1_555
O3_5 C13_5 1_555 1_555
C10_5 C1_5 1_555 1_555
C11_5 C10_5 1_555 1_555
H9_5 C11_5 1_555 1_555
H10_5 C11_5 1_555 1_555
C12_5 C3_5 1_555 1_555
H11_5 C12_5 1_555 1_555
C13_5 O5_5 1_555 1_555
C1_5 C4_5 1_555 1_555
C10_5 C13_5 1_555 1_555
C11_5 C12_5 1_555 1_555
N3_2 C5_6 1_555 1_555
C5_6 H5_6 1_555 1_555
C6_6 C5_6 1_555 1_555
H6_6 C6_6 1_555 1_555
C7_6 C6_6 1_555 1_555
C8_6 C7_6 1_555 1_555
H7_6 C8_6 1_555 1_555
C9_6 N3_2 1_555 1_555
Zn3_3 N2_6 1_555 1_555
N2_6 C14_6 1_555 1_555
C14_6 H13_6 1_555 1_555
C15_6 C14_6 1_555 1_555
H14_6 C15_6 1_555 1_555
C16_6 C7_6 1_555 1_555
C17_6 C16_6 1_555 1_555
H15_6 C17_6 1_555 1_555
C18_6 N2_6 1_555 1_555
H16_6 C18_6 1_555 1_555
C8_6 C9_6 1_555 1_555
C15_6 C16_6 1_555 1_555
C17_6 C18_6 1_555 1_555
C1_6 C2_6 1_555 1_555
C2_6 H1_6 1_555 1_555
H2_6 C2_6 1_555 1_555
C3_6 C2_6 1_555 1_555
H4_6 C3_6 1_555 1_555
C4_6 O4_2 1_555 1_555
Zn2_3 O3_6 1_555 1_555
O3_6 C13_6 1_555 1_555
O5_6 Zn2_3 1_555 1_555
C10_6 C1_6 1_555 1_555
C11_6 C10_6 1_555 1_555
H9_6 C11_6 1_555 1_555
H10_6 C11_6 1_555 1_555
C12_6 C3_6 1_555 1_555
H11_6 C12_6 1_555 1_555
C13_6 O5_6 1_555 1_555
C1_6 C4_6 1_555 1_555
C10_6 C13_6 1_555 1_555
C11_6 C12_6 1_555 1_555
Zn2 O3_7 1_555 1_555
O3_7 C13_7 1_555 1_555
O5_7 Zn2 1_555 1_555
C11_7 C10_7 1_555 1_555
H10_7 C11_7 1_555 1_555
H12_3 C12_7 1_555 1_555
C13_7 O5_7 1_555 1_555
C10_7 C13_7 1_555 1_555
C11_7 C12_7 1_555 1_555
O1_4 Zn3_3 1_555 1_555
O2_4 Zn3_3 1_555 1_555
C1_7 C2_7 1_555 1_555
H2_7 C2_7 1_555 1_555
C3_7 C2_7 1_555 1_555
H4_7 C3_7 1_555 1_555
C4_7 O1_4 1_555 1_555
N3_4 Zn3_3 1_555 1_555
O2_4 C4_7 1_555 1_555
C1_7 C4_7 1_555 1_555
O1_5 Zn3 1_555 1_555
O2_5 Zn3 1_555 1_555
C1_8 C2_8 1_555 1_555
H2_8 C2_8 1_555 1_555
C3_8 C2_8 1_555 1_555
H4_8 C3_8 1_555 1_555
C4_8 O1_5 1_555 1_555
N3_5 Zn3 1_555 1_555
O2_5 C4_8 1_555 1_555
C1_8 C4_8 1_555 1_555
Zn2_2 O3_8 1_555 1_555
O3_8 C13_8 1_555 1_555
O5_8 Zn2_2 1_555 1_555
C11_8 C10_8 1_555 1_555
H10_8 C11_8 1_555 1_555
H12_4 C12_8 1_555 1_555
C13_8 O5_8 1_555 1_555
C10_8 C13_8 1_555 1_555
C11_8 C12_8 1_555 1_555
O1_6 Zn3_2 1_555 1_555
O2_6 Zn3_2 1_555 1_555
C1_9 C2_9 1_555 1_555
C2_9 H1_9 1_555 1_555
H2_9 C2_9 1_555 1_555
C3_9 C2_9 1_555 1_555
H3_5 C3_9 1_555 1_555
H4_9 C3_9 1_555 1_555
C4_9 O1_6 1_555 1_555
Zn2_3 O3_9 1_555 1_555
N3_6 Zn3_2 1_555 1_555
O3_9 C13_9 1_555 1_555
O5_9 Zn2_3 1_555 1_555
C10_9 C1_9 1_555 1_555
C11_9 C10_9 1_555 1_555
H9_9 C11_9 1_555 1_555
H10_9 C11_9 1_555 1_555
C12_9 C3_9 1_555 1_555
H11_9 C12_9 1_555 1_555
H12_5 C12_9 1_555 1_555
C13_9 O5_9 1_555 1_555
O2_6 C4_9 1_555 1_555
C1_9 C4_9 1_555 1_555
C10_9 C13_9 1_555 1_555
C11_9 C12_9 1_555 1_555
N3_6 C5_7 1_555 1_555
C5_7 H5_7 1_555 1_555
C6_7 C5_7 1_555 1_555
H6_7 C6_7 1_555 1_555
C7_7 C6_7 1_555 1_555
C8_7 C7_7 1_555 1_555
C9_7 N3_6 1_555 1_555
H8_7 C9_7 1_555 1_555
C8_7 C9_7 1_555 1_555
Zn2 N2_7 1_555 1_555
N2_7 C14_7 1_555 1_555
C14_7 H13_7 1_555 1_555
C15_7 C14_7 1_555 1_555
H14_7 C15_7 1_555 1_555
C17_7 C16_7 1_555 1_555
C18_7 N2_7 1_555 1_555
H16_7 C18_7 1_555 1_555
C15_7 C16_7 1_555 1_555
C17_7 C18_7 1_555 1_555
N3_4 C5_8 1_555 1_555
C5_8 H5_8 1_555 1_555
C6_8 C5_8 1_555 1_555
H6_8 C6_8 1_555 1_555
C7_8 C6_8 1_555 1_555
C8_8 C7_8 1_555 1_555
H7_8 C8_8 1_555 1_555
C9_8 N3_4 1_555 1_555
H8_8 C9_8 1_555 1_555
Zn2_2 N2_8 1_555 1_555
N2_8 C14_8 1_555 1_555
C14_8 H13_8 1_555 1_555
C15_8 C14_8 1_555 1_555
H14_8 C15_8 1_555 1_555
C16_8 C7_8 1_555 1_555
C17_8 C16_8 1_555 1_555
H15_8 C17_8 1_555 1_555
C18_8 N2_8 1_555 1_555
H16_8 C18_8 1_555 1_555
C8_8 C9_8 1_555 1_555
C15_8 C16_8 1_555 1_555
C17_8 C18_8 1_555 1_555
Zn2_3 N2_9 1_555 1_555
N2_9 C14_9 1_555 1_555
C14_9 H13_9 1_555 1_555
C15_9 C14_9 1_555 1_555
H14_9 C15_9 1_555 1_555
C17_9 C16_9 1_555 1_555
C18_9 N2_9 1_555 1_555
H16_9 C18_9 1_555 1_555
C15_9 C16_9 1_555 1_555
C17_9 C18_9 1_555 1_555
N3_5 C5_9 1_555 1_555
C5_9 H5_9 1_555 1_555
C6_9 C5_9 1_555 1_555
H6_9 C6_9 1_555 1_555
C7_9 C6_9 1_555 1_555
C8_9 C7_9 1_555 1_555
C9_9 N3_5 1_555 1_555
H8_9 C9_9 1_555 1_555
C8_9 C9_9 1_555 1_555

#END
