
###############################################################################
#
# This file contains modified crystal structure data generated from the
# MOF subset of the Cambridge Structural Database (CSD) v543 
# hosted by the Cambridge Crystallographic Data Centre (CCDC).
#
# This work is licensed under the Creative Commons
# Attribution-NonCommercial-ShareAlike 4.0 International License.
# To view a copy of this license, visit
# http://creativecommons.org/licenses/by-nc-sa/4.0/
# or send a letter to
# Creative Commons, PO Box 1866, Mountain View, CA 94042, USA.
#
# CIF created using the CSD Python API on 29 September 2022
# The structure has been converted into the P1 space group
# The structure has a 3D framework
# The original CSD entry VEHRIL is in the triclinic crystal system
# The framework has been calculated to contain at least 10.0% void space
# The void calculation uses a probe of radius 1.32A, grid spacing 0.4
#
###############################################################################

data_VEHRIL
_chemical_formula_moiety         '(C56 H84 N8 O62 Sm8)n'
_symmetry_cell_setting           triclinic
_symmetry_space_group_name_H-M   'P 1'
_symmetry_Int_Tables_number      1
_space_group_name_Hall           'P 1'
loop_
_symmetry_equiv_pos_site_id
_symmetry_equiv_pos_as_xyz
1 x,y,z
_cell_length_a                   16.473(3)
_cell_length_b                   17.068(3)
_cell_length_c                   17.384(3)
_cell_angle_alpha                77.35(3)
_cell_angle_beta                 62.91(3)
_cell_angle_gamma                62.40(3)
_cell_volume                     3856.1
loop_
_atom_site_label
_atom_site_type_symbol
_atom_site_fract_x
_atom_site_fract_y
_atom_site_fract_z
C6 C 0.1760(9) 0.0035(7) 0.1448(7)
O4 O 0.0916(9) 0.1183(7) 0.0702(7)
C28 C 0.0843(12) 0.0686(9) 0.1342(8)
H10 H 0.0063 0.4543 0.0903
H22 H 0.0079 0.1419 0.3315
H41 H 0.2799 0.0201 0.0275
Sm1 Sm 0.04052(4) 0.19324(3) 0.95732(4)
O16 O 0.0192(6) 0.1372(5) 0.8530(6)
O25 O 0.1465(9) 0.2468(8) 0.9764(8)
O29 O 0.2133(10) 0.1037(12) 0.8532(14)
O30 O 0.083(2) 0.0238(12) 0.971(2)
H23 H 0.2102 0.2247 0.9566
H24 H 0.1334 0.2909 0.9428
H26 H 0.0840 0.0310 0.9194
H29 H 0.2189 0.0584 0.8341
H30 H 0.2704 0.1048 0.8238
Sm6 Sm 0.01736(4) 0.02417(4) 0.67806(4)
O33 O 0.0719(7) 0.2990(5) 0.8449(5)
O2 O 0.2814(6) 0.7970(6) 0.3433(5)
O3 O 0.1191(6) 0.8715(5) 0.3649(5)
C1 C 0.2128(8) 0.8531(7) 0.3204(6)
C2 C 0.3558(9) 0.9226(8) 0.0969(7)
C3 C 0.3361(9) 0.8803(8) 0.1793(8)
C4 C 0.2711(10) 0.9877(8) 0.0812(8)
C5 C 0.2398(8) 0.9006(7) 0.2360(6)
N1 N 0.1573(7) 0.9622(6) 0.2220(6)
Sm3 Sm 0.31609(4) 0.68451(3) 0.44538(3)
O18 O 0.1461(8) 0.7289(7) 0.4660(8)
O20 O 0.3941(9) 0.6167(9) 0.5458(8)
O27 O 0.3463(9) 0.5979(9) 0.3307(8)
H5 H 0.4082 0.5697 0.2993
H6 H 0.3230 0.5590 0.3499
H11 H 0.1285 0.7759 0.4372
H12 H 0.0987 0.7127 0.4849
H15 H 0.4447 0.5684 0.5440
H16 H 0.4042 0.6578 0.5550
H39 H 0.4228 0.9081 0.0536
H40 H 0.3897 0.8386 0.1932
O32 O 0.4919(6) 0.6358(5) 0.3443(6)
N5 N 0.4034(6) 0.7776(5) 0.4345(5)
O34 O 0.0690(6) 0.8585(6) 0.2158(6)
O36 O 0.2538(7) 0.5782(6) 0.5293(6)
O37 O 0.2171(6) 0.8088(6) 0.5421(6)
O1 O 0.6384(6) 0.6480(5) 0.2787(5)
O5 O 0.9257(6) 0.3273(6) 0.0381(6)
C7 C 0.2459(9) 0.8648(8) 0.5431(7)
C8 C 0.8431(9) 0.3823(8) 0.0347(8)
O7 O 0.9281(7) 0.7010(5) 0.1551(5)
Sm4 Sm 0.77632(4) 0.51840(3) 0.19793(3)
O8 O 0.8551(7) 0.6245(6) 0.1439(5)
O10 O 0.1925(6) 0.9315(7) 0.5913(6)
O11 O 0.7873(7) 0.4506(5) 0.0772(6)
O12 O 0.9992(6) 0.0704(6) 0.1912(6)
O13 O 0.7207(9) 0.4678(7) 0.3503(6)
N4 N 0.8392(6) 0.5493(6) 0.2940(5)
O14 O 0.7462(7) 0.4218(6) 0.4707(6)
O15 O 0.7203(7) 0.6222(6) 0.0914(6)
O17 O 0.9550(7) 0.4448(8) 0.1040(9)
O19 O 0.6258(6) 0.4941(6) 0.2403(7)
C9 C 0.8851(8) 0.6021(7) 0.2680(6)
C10 C 0.8234(8) 0.5127(7) 0.3729(6)
C11 C 0.7577(8) 0.4633(7) 0.4000(8)
C12 C 0.8926(8) 0.6457(7) 0.1810(7)
C15 C 0.9112(8) 0.5768(8) 0.3967(7)
O21 O 0.8443(9) 0.3516(7) 0.2206(8)
C18 C 0.9238(9) 0.6157(8) 0.3182(7)
C19 C 0.3941(10) 0.9077(8) 0.4735(7)
C20 C 0.4979(8) 0.7574(7) 0.3795(6)
H1 H 0.9470 0.0087 0.4985
O24 O 0.9873(8) 0.1033(7) 0.3622(8)
C23 C 0.5461(10) 0.8111(9) 0.3686(8)
C24 C 0.4922(9) 0.8874(7) 0.4150(8)
C25 C 0.8566(9) 0.5233(8) 0.4272(8)
O26 O 0.9076(9) 0.1529(10) 0.0744(10)
H3 H 0.8978 0.1644 0.1238
H4 H 0.9236 0.0979 0.0735
C26 C 0.5479(8) 0.6740(7) 0.3301(6)
C27 C 0.3514(8) 0.8501(7) 0.4830(6)
H9 H 0.9703 0.4134 0.0632
H13 H 0.5815 0.5214 0.2866
H14 H 0.5960 0.4905 0.2126
H17 H 0.8537 0.3395 0.1711
H18 H 0.8628 0.3019 0.2452
H21 H 0.9256 0.1298 0.3941
H27 H 0.7660 0.6296 0.0958
H28 H 0.6968 0.5941 0.1353
H31 H 0.9589 0.6530 0.2964
H33 H 0.3561 0.9592 0.5079
H36 H 0.6146 0.7936 0.3314
H37 H 0.5219 0.9263 0.4073
H38 H 0.8439 0.4968 0.4821
H42 H 0.9385 0.5850 0.4299
Sm5 Sm 0.95948(4) 0.80676(3) 0.04268(4)
Sm9 Sm 0.68391(4) 0.31549(3) 0.55462(3)
O35 O 0.8075(6) 0.0685(7) 0.4087(6)
N3 N 0.8794(7) 0.2828(5) 0.9346(5)
O9 O 0.9310(6) 0.1415(6) 0.7842(6)
C13 C 0.8152(7) 0.3580(6) 0.9756(6)
C14 C 0.8595(8) 0.2576(7) 0.8808(7)
C16 C 0.9432(9) 0.1718(7) 0.8348(7)
C17 C 0.7742(8) 0.3009(7) 0.8700(8)
C21 C 0.7025(9) 0.3805(7) 0.9135(7)
C22 C 0.7243(9) 0.4089(7) 0.9686(8)
H32 H 0.7621 0.2789 0.8325
H34 H 0.6420 0.4141 0.9053
H35 H 0.6778 0.4621 0.9997
Sm2 Sm 0.98264(4) 0.97583(4) 0.32194(4)
O22 O 0.8646(7) 0.9876(8) 0.2674(8)
O23 O 0.9439(8) 0.9670(9) 0.4823(6)
H2 H 0.9845 0.9192 0.4958
O28 O 0.9311(11) 0.8510(11) 0.3975(9)
H7 H 0.8736 0.8592 0.4035
H8 H 0.9278 0.8390 0.4487
H19 H 0.8968 0.9393 0.2397
H20 H 0.8042 0.9937 0.2943
O22_2 O 0.1354(7) 0.0124(8) 0.7326(8)
O23_2 O 0.0561(8) 0.0330(9) 0.5177(6)
H2_2 H 0.0155 0.0808 0.5042
O28_2 O 0.0689(11) 0.1490(11) 0.6025(9)
H7_2 H 0.1264 0.1408 0.5965
H8_2 H 0.0722 0.1610 0.5513
H19_2 H 0.1032 0.0607 0.7603
H20_2 H 0.1958 0.0063 0.7057
N3_2 N 0.1206(7) 0.7172(5) 0.0654(5)
C13_2 C 0.1848(7) 0.6420(6) 0.0244(6)
C14_2 C 0.1405(8) 0.7424(7) 0.1192(7)
C16_2 C 0.0568(9) 0.8282(7) 0.1652(7)
C17_2 C 0.2258(8) 0.6991(7) 0.1300(8)
C21_2 C 0.2975(9) 0.6195(7) 0.0865(7)
C22_2 C 0.2757(9) 0.5911(7) 0.0314(8)
H32_2 H 0.2379 0.7211 0.1675
H34_2 H 0.3580 0.5859 0.0947
H35_2 H 0.3222 0.5379 0.0003
O1_2 O 0.3616(6) 0.3520(5) 0.7213(5)
O5_2 O 0.0743(6) 0.6727(6) 0.9619(6)
C7_2 C 0.7541(9) 0.1352(8) 0.4569(7)
C8_2 C 0.1569(9) 0.6177(8) 0.9653(8)
O6 O 0.5081(6) 0.3642(5) 0.6557(6)
Sm4_2 Sm 0.22368(4) 0.48160(3) 0.80207(3)
N2 N 0.5966(6) 0.2224(5) 0.5655(5)
O8_2 O 0.1449(7) 0.3755(6) 0.8561(5)
O11_2 O 0.2127(7) 0.5494(5) 0.9228(6)
O12_2 O 0.0008(6) 0.9296(6) 0.8088(6)
O13_2 O 0.2793(9) 0.5322(7) 0.6497(6)
N4_2 N 0.1608(6) 0.4507(6) 0.7060(5)
O15_2 O 0.2797(7) 0.3778(6) 0.9086(6)
O17_2 O 0.0450(7) 0.5552(8) 0.8960(9)
O19_2 O 0.3742(6) 0.5059(6) 0.7597(7)
C9_2 C 0.1149(8) 0.3979(7) 0.7320(6)
C10_2 C 0.1766(8) 0.4873(7) 0.6271(6)
C11_2 C 0.2423(8) 0.5367(7) 0.6000(8)
C12_2 C 0.1074(8) 0.3543(7) 0.8190(7)
C15_2 C 0.0888(8) 0.4232(8) 0.6033(7)
O21_2 O 0.1557(9) 0.6484(7) 0.7794(8)
C18_2 C 0.0762(9) 0.3843(8) 0.6818(7)
C19_2 C 0.6059(10) 0.0923(8) 0.5265(7)
C20_2 C 0.5021(8) 0.2426(7) 0.6205(6)
H1_2 H 0.0530 0.9913 0.5015
O24_2 O 0.0127(8) 0.8967(7) 0.6378(8)
C23_2 C 0.4539(10) 0.1889(9) 0.6314(8)
C24_2 C 0.5078(9) 0.1126(7) 0.5850(8)
C25_2 C 0.1434(9) 0.4767(8) 0.5728(8)
O26_2 O 0.0924(9) 0.8471(10) 0.9256(10)
H3_2 H 0.1022 0.8356 0.8762
H4_2 H 0.0764 0.9021 0.9265
C26_2 C 0.4521(8) 0.3260(7) 0.6699(6)
C27_2 C 0.6486(8) 0.1499(7) 0.5170(6)
O31 O 0.7829(6) 0.1912(6) 0.4579(6)
H9_2 H 0.0297 0.5866 0.9368
H13_2 H 0.4185 0.4786 0.7134
H14_2 H 0.4040 0.5095 0.7874
H17_2 H 0.1463 0.6605 0.8289
H18_2 H 0.1372 0.6981 0.7548
H21_2 H 0.0744 0.8702 0.6059
H27_2 H 0.2340 0.3704 0.9042
H28_2 H 0.3032 0.4059 0.8647
H31_2 H 0.0411 0.3470 0.7036
H33_2 H 0.6439 0.0408 0.4921
H36_2 H 0.3854 0.2064 0.6686
H37_2 H 0.4781 0.0737 0.5927
H38_2 H 0.1561 0.5032 0.5179
H42_2 H 0.0615 0.4150 0.5701
O2_2 O 0.7186(6) 0.2030(6) 0.6567(5)
O3_2 O 0.8809(6) 0.1285(5) 0.6351(5)
C1_2 C 0.7872(8) 0.1469(7) 0.6796(6)
C2_2 C 0.6442(9) 0.0774(8) 0.9031(7)
C3_2 C 0.6639(9) 0.1197(8) 0.8207(8)
C4_2 C 0.7289(10) 0.0123(8) 0.9188(8)
C5_2 C 0.7602(8) 0.0994(7) 0.7640(6)
N1_2 N 0.8427(7) 0.0378(6) 0.7780(6)
O18_2 O 0.8539(8) 0.2711(7) 0.5340(8)
O20_2 O 0.6059(9) 0.3833(9) 0.4542(8)
O27_2 O 0.6537(9) 0.4021(9) 0.6693(8)
H5_2 H 0.5918 0.4303 0.7007
H6_2 H 0.6770 0.4410 0.6501
H11_2 H 0.8715 0.2241 0.5628
H12_2 H 0.9013 0.2873 0.5151
H15_2 H 0.5553 0.4316 0.4560
H16_2 H 0.5958 0.3422 0.4450
H39_2 H 0.5772 0.0919 0.9464
H40_2 H 0.6103 0.1614 0.8068
O16_2 O 0.9808(6) 0.8628(5) 0.1470(6)
O25_2 O 0.8535(9) 0.7532(8) 0.0236(8)
O29_2 O 0.7867(10) 0.8963(12) 0.1468(14)
O30_2 O 0.917(2) 0.9762(12) 0.029(2)
H23_2 H 0.7898 0.7753 0.0434
H24_2 H 0.8666 0.7091 0.0572
H26_2 H 0.9160 0.9690 0.0806
H29_2 H 0.7811 0.9416 0.1659
H30_2 H 0.7296 0.8952 0.1762
H25 H 0.1320 0.9730 0.9673
H25_2 H 0.8680 0.0270 0.0327
C6_2 C 0.8240(9) 0.9965(7) 0.8552(7)
O4_2 O 0.9084(9) 0.8817(7) 0.9298(7)
C28_2 C 0.9157(12) 0.9314(9) 0.8658(8)
H10_2 H 0.9937 0.5457 0.9097
H22_2 H 0.9921 0.8581 0.6685
H41_2 H 0.7201 0.9799 0.9725
loop_
_geom_bond_atom_site_label_1
_geom_bond_atom_site_label_2
_geom_bond_site_symmetry_1
_geom_bond_site_symmetry_2
O4 C28 1_555 1_555
C28 C6 1_555 1_555
O16 Sm1 1_555 1_555
O25 Sm1 1_555 1_555
O29 Sm1 1_555 1_555
O30 Sm1 1_555 1_555
H23 O25 1_555 1_555
H24 O25 1_555 1_555
H26 O30 1_555 1_555
H29 O29 1_555 1_555
H30 O29 1_555 1_555
O33 Sm1 1_555 1_555
O2 C1 1_555 1_555
O3 C1 1_555 1_555
C1 C5 1_555 1_555
C2 C3 1_555 1_555
C3 C5 1_555 1_555
C4 C2 1_555 1_555
C5 N1 1_555 1_555
Sm3 O2 1_555 1_555
O18 Sm3 1_555 1_555
O20 Sm3 1_555 1_555
O27 Sm3 1_555 1_555
H5 O27 1_555 1_555
H6 O27 1_555 1_555
H11 O18 1_555 1_555
H12 O18 1_555 1_555
H15 O20 1_555 1_555
H16 O20 1_555 1_555
H39 C2 1_555 1_555
H40 C3 1_555 1_555
O32 Sm3 1_555 1_555
N5 Sm3 1_555 1_555
O36 Sm3 1_555 1_555
O37 Sm3 1_555 1_555
O1 Sm4 1_555 1_555
C7 O10 1_555 1_555
C8 O5 1_555 1_555
O32 C26 1_555 1_555
O7 C12 1_555 1_555
Sm4 O8 1_555 1_555
N5 C20 1_555 1_555
O8 C12 1_555 1_555
O11 C8 1_555 1_555
O13 Sm4 1_555 1_555
N4 Sm4 1_555 1_555
O14 C11 1_555 1_555
O15 Sm4 1_555 1_555
O17 Sm4 1_555 1_555
O19 Sm4 1_555 1_555
C9 N4 1_555 1_555
C10 N4 1_555 1_555
C11 O13 1_555 1_555
C12 C9 1_555 1_555
C15 C18 1_555 1_555
O21 Sm4 1_555 1_555
C18 C9 1_555 1_555
C19 C24 1_555 1_555
C20 C23 1_555 1_555
C23 C24 1_555 1_555
C24 H37 1_555 1_555
C25 C10 1_555 1_555
H3 O26 1_555 1_555
H4 O26 1_555 1_555
C26 O1 1_555 1_555
C27 C7 1_555 1_555
O37 C7 1_555 1_555
H9 O17 1_555 1_555
H13 O19 1_555 1_555
H14 O19 1_555 1_555
H17 O21 1_555 1_555
H18 O21 1_555 1_555
H21 O24 1_555 1_555
H27 O15 1_555 1_555
H28 O15 1_555 1_555
H31 C18 1_555 1_555
H33 C19 1_555 1_555
H36 C23 1_555 1_555
H38 C25 1_555 1_555
H42 C15 1_555 1_555
Sm5 O7 1_555 1_555
Sm9 O14 1_555 1_555
Sm4 O11 1_555 1_555
N5 C27 1_555 1_555
C10 C11 1_555 1_555
C15 C25 1_555 1_555
C19 C27 1_555 1_555
C20 C26 1_555 1_555
O9 C16 1_555 1_555
C14 N3 1_555 1_555
C17 C14 1_555 1_555
C21 C17 1_555 1_555
C22 C13 1_555 1_555
H32 C17 1_555 1_555
H34 C21 1_555 1_555
H35 C22 1_555 1_555
N3 C13 1_555 1_555
C14 C16 1_555 1_555
C21 C22 1_555 1_555
O22 Sm2 1_555 1_555
O23 Sm2 1_555 1_555
H2 O23 1_555 1_555
O28 Sm2 1_555 1_555
H7 O28 1_555 1_555
H8 O28 1_555 1_555
H19 O22 1_555 1_555
H20 O22 1_555 1_555
O22_2 Sm6 1_555 1_555
O23_2 Sm6 1_555 1_555
H2_2 O23_2 1_555 1_555
O28_2 Sm6 1_555 1_555
H7_2 O28_2 1_555 1_555
H8_2 O28_2 1_555 1_555
H19_2 O22_2 1_555 1_555
H20_2 O22_2 1_555 1_555
O34 C16_2 1_555 1_555
C14_2 N3_2 1_555 1_555
C17_2 C14_2 1_555 1_555
C21_2 C17_2 1_555 1_555
C22_2 C13_2 1_555 1_555
H32_2 C17_2 1_555 1_555
H34_2 C21_2 1_555 1_555
H35_2 C22_2 1_555 1_555
N3_2 C13_2 1_555 1_555
C14_2 C16_2 1_555 1_555
C21_2 C22_2 1_555 1_555
O1_2 Sm4_2 1_555 1_555
C7_2 O35 1_555 1_555
C8_2 O5_2 1_555 1_555
O6 C26_2 1_555 1_555
O33 C12_2 1_555 1_555
Sm4_2 O8_2 1_555 1_555
N2 C20_2 1_555 1_555
O8_2 C12_2 1_555 1_555
O11_2 C8_2 1_555 1_555
O13_2 Sm4_2 1_555 1_555
N4_2 Sm4_2 1_555 1_555
O36 C11_2 1_555 1_555
O15_2 Sm4_2 1_555 1_555
O17_2 Sm4_2 1_555 1_555
O19_2 Sm4_2 1_555 1_555
C9_2 N4_2 1_555 1_555
C10_2 N4_2 1_555 1_555
C11_2 O13_2 1_555 1_555
C12_2 C9_2 1_555 1_555
C15_2 C18_2 1_555 1_555
O21_2 Sm4_2 1_555 1_555
C18_2 C9_2 1_555 1_555
C19_2 C24_2 1_555 1_555
C20_2 C23_2 1_555 1_555
C23_2 C24_2 1_555 1_555
C24_2 H37_2 1_555 1_555
C25_2 C10_2 1_555 1_555
H3_2 O26_2 1_555 1_555
H4_2 O26_2 1_555 1_555
C26_2 O1_2 1_555 1_555
C27_2 C7_2 1_555 1_555
O31 C7_2 1_555 1_555
H9_2 O17_2 1_555 1_555
H13_2 O19_2 1_555 1_555
H14_2 O19_2 1_555 1_555
H17_2 O21_2 1_555 1_555
H18_2 O21_2 1_555 1_555
H21_2 O24_2 1_555 1_555
H27_2 O15_2 1_555 1_555
H28_2 O15_2 1_555 1_555
H31_2 C18_2 1_555 1_555
H33_2 C19_2 1_555 1_555
H36_2 C23_2 1_555 1_555
H38_2 C25_2 1_555 1_555
H42_2 C15_2 1_555 1_555
Sm9 O6 1_555 1_555
Sm4_2 O11_2 1_555 1_555
N2 C27_2 1_555 1_555
N2 Sm9 1_555 1_555
C10_2 C11_2 1_555 1_555
C15_2 C25_2 1_555 1_555
C19_2 C27_2 1_555 1_555
C20_2 C26_2 1_555 1_555
O31 Sm9 1_555 1_555
O2_2 C1_2 1_555 1_555
O3_2 C1_2 1_555 1_555
C1_2 C5_2 1_555 1_555
C2_2 C3_2 1_555 1_555
C3_2 C5_2 1_555 1_555
C4_2 C2_2 1_555 1_555
C5_2 N1_2 1_555 1_555
Sm9 O2_2 1_555 1_555
O18_2 Sm9 1_555 1_555
O20_2 Sm9 1_555 1_555
O27_2 Sm9 1_555 1_555
H5_2 O27_2 1_555 1_555
H6_2 O27_2 1_555 1_555
H11_2 O18_2 1_555 1_555
H12_2 O18_2 1_555 1_555
H15_2 O20_2 1_555 1_555
H16_2 O20_2 1_555 1_555
H39_2 C2_2 1_555 1_555
H40_2 C3_2 1_555 1_555
O16_2 Sm5 1_555 1_555
O25_2 Sm5 1_555 1_555
O29_2 Sm5 1_555 1_555
O30_2 Sm5 1_555 1_555
H23_2 O25_2 1_555 1_555
H24_2 O25_2 1_555 1_555
H26_2 O30_2 1_555 1_555
H29_2 O29_2 1_555 1_555
H30_2 O29_2 1_555 1_555
O4_2 C28_2 1_555 1_555
C28_2 C6_2 1_555 1_555

#END
