
###############################################################################
#
# This file contains modified crystal structure data generated from the
# MOF subset of the Cambridge Structural Database (CSD) v543 
# hosted by the Cambridge Crystallographic Data Centre (CCDC).
#
# This work is licensed under the Creative Commons
# Attribution-NonCommercial-ShareAlike 4.0 International License.
# To view a copy of this license, visit
# http://creativecommons.org/licenses/by-nc-sa/4.0/
# or send a letter to
# Creative Commons, PO Box 1866, Mountain View, CA 94042, USA.
#
# CIF created using the CSD Python API on 29 September 2022
# The structure has been converted into the P1 space group
# The structure has a 3D framework
# The original CSD entry VEHYUE is in the tetragonal crystal system
# The framework has been calculated to contain at least 10.0% void space
# The void calculation uses a probe of radius 1.32A, grid spacing 0.4
# H atom positions have been added when not included in the experimental data
# Generated hydrogen atom positions removed from atoms on special positions
#
###############################################################################

data_VEHYUE
_chemical_formula_moiety         '(C40 H308 Mo16 N16 O125 P16 Rb16 S16)n'
_symmetry_cell_setting           triclinic
_symmetry_space_group_name_H-M   'P 1'
_symmetry_Int_Tables_number      1
_space_group_name_Hall           'P 1'
loop_
_symmetry_equiv_pos_site_id
_symmetry_equiv_pos_as_xyz
1 x,y,z
_cell_length_a                   21.5609(14)
_cell_length_b                   21.5609(14)
_cell_length_c                   11.3677(7)
_cell_angle_alpha                90
_cell_angle_beta                 90
_cell_angle_gamma                90
_cell_volume                     5284.53
loop_
_atom_site_label
_atom_site_type_symbol
_atom_site_fract_x
_atom_site_fract_y
_atom_site_fract_z
Mo1 Mo 0.383984(5) 0.465129(5) 0.216321(11)
Mo2 Mo 0.451868(5) 0.358864(5) 0.144518(11)
P1 P 0.290712(16) 0.438876(17) 0.44356(3)
P2 P 0.264921(16) 0.544338(16) 0.27797(4)
S1 S 0.465712(16) 0.417543(16) 0.31401(3)
S2 S 0.355223(16) 0.391395(17) 0.07771(3)
O1 O 0.42432(5) 0.51631(5) 0.13359(10)
O2 O 0.37262(4) 0.51664(5) 0.36845(10)
O3 O 0.29780(5) 0.50710(5) 0.18088(10)
O4 O 0.31483(5) 0.40490(5) 0.33481(9)
O5 O 0.49800(5) 0.39625(5) 0.04839(10)
O6 O 0.22003(5) 0.43246(5) 0.45787(9)
O7 O 0.19699(5) 0.52336(5) 0.28651(10)
O8 O 0.39388(5) 0.29751(5) 0.28164(10)
H1 H 0.3626(10) 0.3155(10) 0.301(2)
H2 H 0.3870(10) 0.2672(10) 0.263(2)
O9 O 0.32264(5) 0.42104(5) 0.55676(10)
O10 O 0.27030(5) 0.61319(5) 0.26328(12)
C1 C 0.30951(6) 0.51959(6) 0.40761(13)
C2 C 0.30867(7) 0.56493(7) 0.51157(15)
H3 H 0.3359 0.5485 0.5745
H4 H 0.3262 0.6051 0.4854
N1 N 0.24675(6) 0.57580(6) 0.56070(12)
C3 C 0.20267(7) 0.61709(8) 0.51987(17)
H5 H 0.2061 0.6431 0.4527
C4 C 0.15366(8) 0.61342(8) 0.59398(17)
H6 H 0.1162 0.6365 0.5892
C5 C 0.22471(9) 0.54835(8) 0.65585(17)
H7 H 0.2457 0.5181 0.7016
N2 N 0.16835(7) 0.57019(7) 0.67668(14)
H8 H 0.1441 0.5585 0.7350
Rb1 Rb 0.565150(9) 0.516543(9) 0.131874(16)
Rb2 Rb 0.468990(9) 0.286010(10) 0.503110(17)
O11 O 0.56433(6) 0.53407(7) 0.38658(13)
O12 O 0.69861(8) 0.57026(8) 0.20628(13)
O13 O 0.33424(8) 0.29386(11) 0.5764(2)
O14 O 0.62564(9) 0.39683(10) 0.2287(2)
O15 O 0.58334(11) 0.22729(10) 0.5773(2)
O16 O 0.53974(6) 0.39320(6) 0.62183(12)
Mo3 Mo 0.034871(5) 0.383984(5) 0.283679(11)
Mo5 Mo 0.465129(5) 0.116016(5) 0.283679(11)
Mo6 Mo 0.141136(5) 0.451868(5) 0.355482(11)
Mo8 Mo 0.358864(5) 0.048132(5) 0.355482(11)
Mo9 Mo 0.048132(5) 0.141136(5) 0.144518(11)
P3 P 0.438876(17) 0.209288(16) 0.05644(3)
P4 P 0.061124(17) 0.290712(16) 0.05644(3)
P6 P 0.544338(16) 0.235079(16) 0.22203(4)
S3 S 0.082457(16) 0.465712(16) 0.18599(3)
S5 S 0.417543(16) 0.034288(16) 0.18599(3)
S9 S 0.391395(17) 0.144777(16) 0.42229(3)
S10 S 0.108605(17) 0.355223(16) 0.42229(3)
O19 O 0.51631(5) 0.07568(5) 0.36641(10)
O20 O 0.01631(5) 0.57568(5) 0.63359(10)
O22 O 0.51664(5) 0.12738(4) 0.13155(10)
O25 O 0.50710(5) 0.20220(5) 0.31912(10)
O29 O 0.40490(5) 0.18517(5) 0.16519(9)
O30 O 0.09510(5) 0.31483(5) 0.16519(9)
O33 O 0.10375(5) 0.49800(5) 0.45161(10)
O34 O 0.39625(5) 0.00200(5) 0.45161(10)
O37 O 0.43246(5) 0.27997(5) 0.04213(9)
O38 O 0.06754(5) 0.22003(5) 0.04213(9)
O41 O 0.27997(5) 0.06754(5) 0.45787(9)
O42 O 0.52336(5) 0.30301(5) 0.21349(10)
O47 O 0.20249(5) 0.39388(5) 0.21836(10)
O49 O 0.29751(5) 0.10612(5) 0.21836(10)
H9 H 0.1845(10) 0.3626(10) 0.199(2)
H11 H 0.3155(10) 0.1374(10) 0.199(2)
H13 H 0.2328(10) 0.3870(10) 0.237(2)
H15 H 0.2672(10) 0.1130(10) 0.237(2)
O54 O 0.61319(5) 0.22970(5) 0.23672(12)
C6 C 0.51959(6) 0.19049(6) 0.09239(13)
H20 H 0.6051 0.1738 0.0146
H23 H 0.6431 0.2939 0.0473
Rb5 Rb 0.483457(9) 0.065150(9) 0.631874(16)
Rb6 Rb 0.016543(9) 0.434850(9) 0.631874(16)
Rb10 Rb 0.786010(10) 0.531010(9) 0.003110(17)
Rb11 Rb 0.031010(9) 0.213990(10) 0.503110(17)
O59 O 0.46593(7) 0.06433(6) 0.88658(13)
O60 O 0.42974(8) 0.19861(8) 0.70628(13)
O66 O 0.79386(11) 0.66576(8) 0.0764(2)
O68 O 0.10317(10) 0.62564(9) 0.2713(2)
O69 O 0.60317(10) 0.12564(9) 0.7287(2)
O72 O 0.72729(10) 0.41666(11) 0.0773(2)
O75 O 0.89320(6) 0.46026(6) 0.12183(12)
H43 H 0.204953 0.511774 0.60144
C10 C 0.93507(7) 0.30867(7) 0.98843(15)
H18 H 0.9515 0.3359 0.9255
N4 N 0.92420(6) 0.24675(6) 0.93930(12)
C13 C 0.88291(8) 0.20267(7) 0.98013(17)
C16 C 0.88658(8) 0.15366(8) 0.90602(17)
H27 H 0.8635 0.1162 0.9108
C19 C 0.95165(8) 0.22471(9) 0.84415(17)
H30 H 0.9819 0.2457 0.7984
N7 N 0.92981(7) 0.16835(7) 0.82332(14)
H33 H 0.9415 0.1441 0.7650
H47 H 0.988226 0.204953 0.89856
Mo1_2 Mo 0.116016(5) 0.034871(5) 0.216321(11)
P1_2 P 0.209288(16) 0.061124(17) 0.44356(3)
S1_2 S 0.034288(16) 0.082457(16) 0.31401(3)
S2_2 S 0.144777(16) 0.108605(17) 0.07771(3)
O4_2 O 0.18517(5) 0.09510(5) 0.33481(9)
O5_2 O 0.00200(5) 0.10375(5) 0.04839(10)
O8_2 O 0.10612(5) 0.20249(5) 0.28164(10)
H1_2 H 0.1374(10) 0.1845(10) 0.301(2)
H2_2 H 0.1130(10) 0.2328(10) 0.263(2)
O9_2 O 0.17736(5) 0.07896(5) 0.55676(10)
O13_2 O 0.16576(8) 0.20614(11) 0.5764(2)
O59_2 O 0.03407(7) 0.43567(6) 0.88658(13)
O60_2 O 0.07026(8) 0.30139(8) 0.70628(13)
O28 O 0.00710(5) 0.70220(5) 0.68088(10)
O45 O 0.02336(5) 0.80301(5) 0.78651(10)
O67 O 0.12564(9) 0.89683(10) 0.7713(2)
O70 O 0.22729(10) 0.91666(11) 0.9227(2)
O71 O 0.08334(11) 0.72729(10) 0.4227(2)
O73 O 0.39320(6) 0.96026(6) 0.87817(12)
O74 O 0.03974(6) 0.89320(6) 0.37817(12)
P8 P 0.764921(16) 0.044338(16) 0.72203(4)
O17 O 0.92432(5) 0.01631(5) 0.86641(10)
O24 O 0.87262(4) 0.01664(5) 0.63155(10)
O27 O 0.79780(5) 0.00710(5) 0.81912(10)
O44 O 0.69699(5) 0.02336(5) 0.71349(10)
O56 O 0.77030(5) 0.11319(5) 0.73672(12)
C8 C 0.80951(6) 0.01959(6) 0.59239(13)
C11 C 0.80867(7) 0.06493(7) 0.48843(15)
H19 H 0.8359 0.0485 0.4255
H22 H 0.8262 0.1051 0.5146
N5 N 0.74675(6) 0.07580(6) 0.43930(12)
C14 C 0.70267(7) 0.11709(8) 0.48013(17)
H25 H 0.7061 0.1431 0.5473
C17 C 0.65366(8) 0.11342(8) 0.40602(17)
H28 H 0.6162 0.1365 0.4108
C20 C 0.72471(9) 0.04835(8) 0.34415(17)
H31 H 0.7457 0.0181 0.2984
N8 N 0.66835(7) 0.07019(7) 0.32332(14)
H34 H 0.6441 0.0585 0.2650
H48 H 0.704953 0.0117742 0.39856
Rb1_2 Rb 0.934850(9) 0.983457(9) 0.131874(16)
O11_2 O 0.93567(6) 0.96593(7) 0.38658(13)
O12_2 O 0.80139(8) 0.92974(8) 0.20628(13)
Rb10_2 Rb 0.713990(10) 0.968990(9) 0.003110(17)
O66_2 O 0.70614(11) 0.83424(8) 0.0764(2)
O9_3 O 0.57896(5) 0.82264(5) 0.05676(10)
C2_2 C 0.43507(7) 0.80867(7) 0.01157(15)
H3_2 H 0.4515 0.8359 0.0745
N1_2 N 0.42420(6) 0.74675(6) 0.06070(12)
C3_2 C 0.38291(8) 0.70267(7) 0.01987(17)
C4_2 C 0.38658(8) 0.65366(8) 0.09398(17)
H6_2 H 0.3635 0.6162 0.0892
C5_2 C 0.45165(8) 0.72471(9) 0.15585(17)
H7_2 H 0.4819 0.7457 0.2016
N2_2 N 0.42981(7) 0.66835(7) 0.17668(14)
H8_2 H 0.4415 0.6441 0.2350
H43_2 H 0.488226 0.704953 0.10144
P2_2 P 0.044338(16) 0.735079(16) 0.77797(4)
O2_2 O 0.01664(5) 0.62738(4) 0.86845(10)
O10_2 O 0.11319(5) 0.72970(5) 0.76328(12)
C1_2 C 0.01959(6) 0.69049(6) 0.90761(13)
H4_2 H 0.1051 0.6738 0.9854
H5_2 H 0.1431 0.7939 0.9527
O9_4 O 0.92104(5) 0.67736(5) 0.05676(10)
H41 H 0.0777878 0.995161 0.574267
H65 H 0.00483866 0.577788 0.0742674
Mo4 Mo 0.616016(5) 0.534871(5) 0.783679(11)
Mo7 Mo 0.548132(5) 0.641136(5) 0.855482(11)
Mo10 Mo 0.858864(5) 0.548132(5) 0.644518(11)
P5 P 0.709288(16) 0.561124(17) 0.55644(3)
P8_2 P 0.735079(16) 0.455662(16) 0.72203(4)
S4 S 0.534288(16) 0.582457(16) 0.68599(3)
S7 S 0.917543(16) 0.534288(16) 0.81401(3)
S8 S 0.644777(16) 0.608605(17) 0.92229(3)
S12 S 0.608605(17) 0.855223(16) 0.57771(3)
O17_2 O 0.57568(5) 0.48369(5) 0.86641(10)
O24_2 O 0.62738(4) 0.48336(5) 0.63155(10)
O27_2 O 0.70220(5) 0.49290(5) 0.81912(10)
O28_2 O 0.49290(5) 0.79780(5) 0.68088(10)
O31 O 0.68517(5) 0.59510(5) 0.66519(9)
O32 O 0.50200(5) 0.60375(5) 0.95161(10)
O39 O 0.77997(5) 0.56754(5) 0.54213(9)
O40 O 0.56754(5) 0.72003(5) 0.95787(9)
O44_2 O 0.80301(5) 0.47664(5) 0.71349(10)
O45_2 O 0.47664(5) 0.69699(5) 0.78651(10)
O48 O 0.60612(5) 0.70249(5) 0.71836(10)
O50 O 0.79751(5) 0.60612(5) 0.78164(10)
H10 H 0.6374(10) 0.6845(10) 0.699(2)
H12 H 0.8155(10) 0.6374(10) 0.801(2)
H14 H 0.6130(10) 0.7328(10) 0.737(2)
H16 H 0.7672(10) 0.6130(10) 0.763(2)
O51 O 0.42104(5) 0.17736(5) 0.94324(10)
O52 O 0.07896(5) 0.32264(5) 0.94324(10)
O53 O 0.67736(5) 0.57896(5) 0.44324(10)
O56_2 O 0.72970(5) 0.38681(5) 0.73672(12)
C8_2 C 0.69049(6) 0.48041(6) 0.59239(13)
C9 C 0.56493(7) 0.19133(7) 0.98843(15)
C11_2 C 0.69133(7) 0.43507(7) 0.48843(15)
H17 H 0.5485 0.1641 0.9255
H19_2 H 0.6641 0.4515 0.4255
H22_2 H 0.6738 0.3949 0.5146
N3 N 0.57580(6) 0.25325(6) 0.93930(12)
N5_2 N 0.75325(6) 0.42420(6) 0.43930(12)
C12 C 0.61709(8) 0.29733(7) 0.98013(17)
C14_2 C 0.79733(7) 0.38291(8) 0.48013(17)
H25_2 H 0.7939 0.3569 0.5473
C15 C 0.61342(8) 0.34634(8) 0.90602(17)
C17_2 C 0.84634(8) 0.38658(8) 0.40602(17)
H26 H 0.6365 0.3838 0.9108
H28_2 H 0.8838 0.3635 0.4108
C18 C 0.54835(8) 0.27529(9) 0.84415(17)
C20_2 C 0.77529(9) 0.45165(8) 0.34415(17)
H29 H 0.5181 0.2543 0.7984
H31_2 H 0.7543 0.4819 0.2984
N6 N 0.57019(7) 0.33165(7) 0.82332(14)
N8_2 N 0.83165(7) 0.42981(7) 0.32332(14)
H32 H 0.5585 0.3559 0.7650
H34_2 H 0.8559 0.4415 0.2650
Rb3 Rb 0.434850(9) 0.483457(9) 0.868126(16)
Rb8 Rb 0.213990(10) 0.468990(9) 0.996890(17)
Rb9 Rb 0.531010(9) 0.713990(10) 0.496890(17)
Rb12 Rb 0.286010(10) 0.031010(9) 0.996890(17)
O57 O 0.43567(6) 0.46593(7) 0.61342(13)
O61 O 0.30139(8) 0.42974(8) 0.79372(13)
O63 O 0.57026(8) 0.80139(8) 0.29372(13)
O64 O 0.20614(11) 0.33424(8) 0.9236(2)
O65 O 0.66576(8) 0.70614(11) 0.4236(2)
O67_2 O 0.37436(9) 0.60317(10) 0.7713(2)
O70_2 O 0.27271(10) 0.58334(11) 0.9227(2)
O71_2 O 0.41666(11) 0.77271(10) 0.4227(2)
O73_2 O 0.10680(6) 0.53974(6) 0.87817(12)
O74_2 O 0.46026(6) 0.60680(6) 0.37817(12)
H46 H 0.511774 0.295047 0.89856
H48_2 H 0.795047 0.488226 0.39856
S6 S 0.582457(16) 0.965712(16) 0.81401(3)
O21 O 0.48369(5) 0.92432(5) 0.63359(10)
O36 O 0.60375(5) 0.99800(5) 0.54839(10)
O46 O 0.30301(5) 0.97664(5) 0.28651(10)
Rb7 Rb 0.516543(9) 0.934850(9) 0.368126(16)
P7 P 0.955662(16) 0.264921(16) 0.22203(4)
S11 S 0.891395(17) 0.644777(16) 0.57771(3)
O18 O 0.98369(5) 0.42432(5) 0.36641(10)
O23 O 0.98336(5) 0.37262(4) 0.13155(10)
O26 O 0.99290(5) 0.29780(5) 0.31912(10)
O35 O 0.89625(5) 0.50200(5) 0.54839(10)
O43 O 0.97664(5) 0.19699(5) 0.21349(10)
O55 O 0.88681(5) 0.27030(5) 0.23672(12)
C7 C 0.98041(6) 0.30951(6) 0.09239(13)
H21 H 0.8949 0.3262 0.0146
H24 H 0.8569 0.2061 0.0473
Rb4 Rb 0.983457(9) 0.565150(9) 0.368126(16)
Rb13 Rb 0.968990(9) 0.786010(10) 0.496890(17)
O58 O 0.96593(7) 0.56433(6) 0.11342(13)
O62 O 0.92974(8) 0.69861(8) 0.29372(13)
Rb3_2 Rb 0.065150(9) 0.016543(9) 0.868126(16)
O57_2 O 0.06433(6) 0.03407(7) 0.61342(13)
O61_2 O 0.19861(8) 0.07026(8) 0.79372(13)
O64_2 O 0.29386(11) 0.16576(8) 0.9236(2)
P2_3 P 0.235079(16) 0.955662(16) 0.27797(4)
O1_2 O 0.07568(5) 0.98369(5) 0.13359(10)
O2_3 O 0.12738(4) 0.98336(5) 0.36845(10)
O3_2 O 0.20220(5) 0.99290(5) 0.18088(10)
O10_3 O 0.22970(5) 0.88681(5) 0.26328(12)
C1_3 C 0.19049(6) 0.98041(6) 0.40761(13)
C2_3 C 0.19133(7) 0.93507(7) 0.51157(15)
H3_3 H 0.1641 0.9515 0.5745
H4_3 H 0.1738 0.8949 0.4854
N1_3 N 0.25325(6) 0.92420(6) 0.56070(12)
C3_3 C 0.29733(7) 0.88291(8) 0.51987(17)
H5_3 H 0.2939 0.8569 0.4527
C4_3 C 0.34634(8) 0.88658(8) 0.59398(17)
H6_3 H 0.3838 0.8635 0.5892
C5_3 C 0.27529(9) 0.95165(8) 0.65585(17)
H7_3 H 0.2543 0.9819 0.7016
N2_3 N 0.33165(7) 0.92981(7) 0.67668(14)
H8_3 H 0.3559 0.9415 0.7350
O58_2 O 0.53407(7) 0.93567(6) 0.11342(13)
O68_2 O 0.39683(10) 0.87436(9) 0.2713(2)
H43_3 H 0.295047 0.988226 0.60144
O14_2 O 0.87436(9) 0.10317(10) 0.2287(2)
O15_2 O 0.91666(11) 0.27271(10) 0.5773(2)
O16_2 O 0.96026(6) 0.10680(6) 0.62183(12)
O69_2 O 0.89683(10) 0.37436(9) 0.7287(2)
O72_2 O 0.77271(10) 0.08334(11) 0.0773(2)
O75_2 O 0.60680(6) 0.03974(6) 0.12183(12)
H41_2 H 0.922212 0.00483866 0.425733
H65_2 H 0.995161 0.422212 0.925733
Mo4_2 Mo 0.883984(5) 0.965129(5) 0.783679(11)
Mo7_2 Mo 0.951868(5) 0.858864(5) 0.855482(11)
Mo10_2 Mo 0.641136(5) 0.951868(5) 0.644518(11)
P5_2 P 0.790712(16) 0.938876(17) 0.55644(3)
S4_2 S 0.965712(16) 0.917543(16) 0.68599(3)
S8_2 S 0.855223(16) 0.891395(17) 0.92229(3)
O31_2 O 0.81483(5) 0.90490(5) 0.66519(9)
O32_2 O 0.99800(5) 0.89625(5) 0.95161(10)
O39_2 O 0.72003(5) 0.93246(5) 0.54213(9)
O40_2 O 0.93246(5) 0.77997(5) 0.95787(9)
O48_2 O 0.89388(5) 0.79751(5) 0.71836(10)
O50_2 O 0.70249(5) 0.89388(5) 0.78164(10)
H10_2 H 0.8626(10) 0.8155(10) 0.699(2)
H12_2 H 0.6845(10) 0.8626(10) 0.801(2)
H14_2 H 0.8870(10) 0.7672(10) 0.737(2)
H16_2 H 0.7328(10) 0.8870(10) 0.763(2)
O53_2 O 0.82264(5) 0.92104(5) 0.44324(10)
O65_2 O 0.83424(8) 0.79386(11) 0.4236(2)
Mo1_3 Mo 0.534871(5) 0.883984(5) 0.716321(11)
P1_3 P 0.561124(17) 0.790712(16) 0.94356(3)
P2_4 P 0.455662(16) 0.764921(16) 0.77797(4)
O2_4 O 0.48336(5) 0.87262(4) 0.86845(10)
O4_3 O 0.59510(5) 0.81483(5) 0.83481(9)
O10_4 O 0.38681(5) 0.77030(5) 0.76328(12)
C1_4 C 0.48041(6) 0.80951(6) 0.90761(13)
H4_4 H 0.3949 0.8262 0.9854
H5_4 H 0.3569 0.7061 0.9527
C2_4 C 0.06493(7) 0.69133(7) 0.01157(15)
H3_4 H 0.0485 0.6641 0.0745
N1_4 N 0.07580(6) 0.75325(6) 0.06070(12)
C3_4 C 0.11709(8) 0.79733(7) 0.01987(17)
C4_4 C 0.11342(8) 0.84634(8) 0.09398(17)
H6_4 H 0.1365 0.8838 0.0892
C5_4 C 0.04835(8) 0.77529(9) 0.15585(17)
H7_4 H 0.0181 0.7543 0.2016
N2_4 N 0.07019(7) 0.83165(7) 0.17668(14)
H8_4 H 0.0585 0.8559 0.2350
H43_4 H 0.0117742 0.795047 0.10144
Mo1_4 Mo 0.965129(5) 0.616016(5) 0.716321(11)
P1_4 P 0.938876(17) 0.709288(16) 0.94356(3)
O4_4 O 0.90490(5) 0.68517(5) 0.83481(9)
loop_
_geom_bond_atom_site_label_1
_geom_bond_atom_site_label_2
_geom_bond_site_symmetry_1
_geom_bond_site_symmetry_2
Mo1 S1 1_555 1_555
Mo2 S1 1_555 1_555
P1 O4 1_555 1_555
P2 O3 1_555 1_555
S1 Rb1 1_555 1_555
S2 Mo1 1_555 1_555
O1 Mo1 1_555 1_555
O2 Mo1 1_555 1_555
O3 Mo1 1_555 1_555
O4 Mo1 1_555 1_555
O5 Mo2 1_555 1_555
O6 P1 1_555 1_555
O7 P2 1_555 1_555
O8 Mo2 1_555 1_555
H1 O8 1_555 1_555
H2 O8 1_555 1_555
O9 P1 1_555 1_555
O10 P2 1_555 1_555
C1 P1 1_555 1_555
C2 C1 1_555 1_555
H3 C2 1_555 1_555
H4 C2 1_555 1_555
N1 C2 1_555 1_555
C3 N1 1_555 1_555
H5 C3 1_555 1_555
C4 C3 1_555 1_555
H6 C4 1_555 1_555
C5 N1 1_555 1_555
H7 C5 1_555 1_555
N2 C4 1_555 1_555
H8 N2 1_555 1_555
Rb1 O1 1_555 1_555
Rb2 S1 1_555 1_555
O11 Rb1 1_555 1_555
O12 Rb1 1_555 1_555
O13 Rb2 1_555 1_555
O14 Rb1 1_555 1_555
O15 Rb2 1_555 1_555
O16 Rb2 1_555 1_555
Mo3 S3 1_555 1_555
Mo5 S5 1_555 1_555
Mo6 O6 1_555 1_555
Mo8 S5 1_555 1_555
Mo9 O38 1_555 1_555
P3 O29 1_555 1_555
P4 O30 1_555 1_555
P6 O25 1_555 1_555
S3 Mo6 1_555 1_555
S9 Rb2 1_555 1_555
S10 Mo3 1_555 1_555
O19 Mo5 1_555 1_555
O22 Mo5 1_555 1_555
O25 Rb2 1_555 1_555
O29 Mo5 1_555 1_555
O30 Mo3 1_555 1_555
O33 Mo6 1_555 1_555
O34 Mo8 1_555 1_555
O37 Mo2 1_555 1_555
O38 P4 1_555 1_555
O41 Mo8 1_555 1_555
O42 Mo2 1_555 1_555
O47 Mo6 1_555 1_555
O49 Mo8 1_555 1_555
H9 O47 1_555 1_555
H11 O49 1_555 1_555
H13 O47 1_555 1_555
H15 O49 1_555 1_555
O54 P6 1_555 1_555
C6 P3 1_555 1_555
Rb5 S9 1_555 1_555
Rb6 S10 1_555 1_555
Rb10 O12 1_555 1_555
Rb11 S10 1_555 1_555
O59 Rb5 1_555 1_555
O60 Rb2 1_555 1_555
O66 Rb10 1_555 1_555
O69 Rb5 1_555 1_555
O72 Rb10 1_555 1_555
O75 Rb10 1_555 1_555
Mo2 S2 1_555 1_555
P2 C1 1_555 1_555
O2 C1 1_555 1_555
O5 Rb1 1_555 1_555
O7 Mo6 1_555 1_555
O8 Rb2 1_555 1_555
C5 N2 1_555 1_555
Mo5 S9 1_555 1_555
Mo5 O25 1_555 1_555
Mo6 S10 1_555 1_555
Mo8 S9 1_555 1_555
P3 O37 1_555 1_555
P6 O42 1_555 1_555
P6 C6 1_555 1_555
O19 Rb5 1_555 1_555
O20 Rb6 1_555 1_555
O22 C6 1_555 1_555
O33 Rb6 1_555 1_555
O34 Rb5 1_555 1_555
Rb5 O60 1_555 1_555
C5 H43 1_555 1_555
H18 C10 1_555 1_555
N4 C10 1_555 1_555
C13 N4 1_555 1_555
C16 C13 1_555 1_555
H27 C16 1_555 1_555
C19 N4 1_555 1_555
H30 C19 1_555 1_555
N7 C16 1_555 1_555
H33 N7 1_555 1_555
C19 N7 1_555 1_555
C19 H47 1_555 1_555
Mo1_2 S1_2 1_555 1_555
Mo9 S1_2 1_555 1_555
P1_2 O4_2 1_555 1_555
S2_2 Mo1_2 1_555 1_555
O4_2 Mo1_2 1_555 1_555
O5_2 Mo9 1_555 1_555
O41 P1_2 1_555 1_555
O8_2 Mo9 1_555 1_555
H1_2 O8_2 1_555 1_555
H2_2 O8_2 1_555 1_555
O9_2 P1_2 1_555 1_555
Rb11 S1_2 1_555 1_555
O13_2 Rb11 1_555 1_555
O59_2 Rb6 1_555 1_555
O60_2 Rb11 1_555 1_555
Mo9 S2_2 1_555 1_555
O8_2 Rb11 1_555 1_555
Rb6 O60_2 1_555 1_555
P8 O27 1_555 1_555
O56 P8 1_555 1_555
C11 C8 1_555 1_555
H19 C11 1_555 1_555
H22 C11 1_555 1_555
N5 C11 1_555 1_555
C14 N5 1_555 1_555
H25 C14 1_555 1_555
C17 C14 1_555 1_555
H28 C17 1_555 1_555
C20 N5 1_555 1_555
H31 C20 1_555 1_555
N8 C17 1_555 1_555
H34 N8 1_555 1_555
P8 O44 1_555 1_555
P8 C8 1_555 1_555
O24 C8 1_555 1_555
C20 N8 1_555 1_555
C20 H48 1_555 1_555
O11_2 Rb1_2 1_555 1_555
O12_2 Rb1_2 1_555 1_555
Rb10_2 O12_2 1_555 1_555
O66_2 Rb10_2 1_555 1_555
H3_2 C2_2 1_555 1_555
N1_2 C2_2 1_555 1_555
C3_2 N1_2 1_555 1_555
C4_2 C3_2 1_555 1_555
H6_2 C4_2 1_555 1_555
C5_2 N1_2 1_555 1_555
H7_2 C5_2 1_555 1_555
N2_2 C4_2 1_555 1_555
H8_2 N2_2 1_555 1_555
C5_2 N2_2 1_555 1_555
C5_2 H43_2 1_555 1_555
P2_2 O28 1_555 1_555
O45 P2_2 1_555 1_555
O10_2 P2_2 1_555 1_555
P2_2 C1_2 1_555 1_555
O2_2 C1_2 1_555 1_555
Mo4 S4 1_555 1_555
Mo7 S4 1_555 1_555
Mo10 S7 1_555 1_555
P5 O31 1_555 1_555
P8_2 O27_2 1_555 1_555
S4 Rb3 1_555 1_555
S12 Rb9 1_555 1_555
O24_2 Mo4 1_555 1_555
O27_2 Mo4 1_555 1_555
O28_2 Rb9 1_555 1_555
O31 Mo4 1_555 1_555
O39 Mo10 1_555 1_555
O40 Mo7 1_555 1_555
O44_2 Mo10 1_555 1_555
O45_2 Mo7 1_555 1_555
O48 Mo7 1_555 1_555
O50 Mo10 1_555 1_555
H10 O48 1_555 1_555
H12 O50 1_555 1_555
H14 O48 1_555 1_555
H16 O50 1_555 1_555
O53 P5 1_555 1_555
O56_2 P8_2 1_555 1_555
C8_2 P5 1_555 1_555
C11_2 C8_2 1_555 1_555
H17 C9 1_555 1_555
H19_2 C11_2 1_555 1_555
H22_2 C11_2 1_555 1_555
N3 C9 1_555 1_555
N5_2 C11_2 1_555 1_555
C12 N3 1_555 1_555
C14_2 N5_2 1_555 1_555
H25_2 C14_2 1_555 1_555
C15 C12 1_555 1_555
C17_2 C14_2 1_555 1_555
H26 C15 1_555 1_555
H28_2 C17_2 1_555 1_555
C18 N3 1_555 1_555
C20_2 N5_2 1_555 1_555
H29 C18 1_555 1_555
H31_2 C20_2 1_555 1_555
N6 C15 1_555 1_555
N8_2 C17_2 1_555 1_555
H32 N6 1_555 1_555
H34_2 N8_2 1_555 1_555
Rb9 S4 1_555 1_555
O57 Rb3 1_555 1_555
O61 Rb3 1_555 1_555
O63 Rb9 1_555 1_555
O64 Rb8 1_555 1_555
O65 Rb9 1_555 1_555
O67_2 Rb3 1_555 1_555
O70_2 Rb8 1_555 1_555
O71_2 Rb9 1_555 1_555
O73_2 Rb8 1_555 1_555
O74_2 Rb9 1_555 1_555
Mo4 S8 1_555 1_555
Mo4 O17_2 1_555 1_555
Mo7 S8 1_555 1_555
Mo7 O32 1_555 1_555
P5 O39 1_555 1_555
P8_2 O44_2 1_555 1_555
P8_2 C8_2 1_555 1_555
O17_2 Rb3 1_555 1_555
O24_2 C8_2 1_555 1_555
O32 Rb3 1_555 1_555
O48 Rb9 1_555 1_555
C18 N6 1_555 1_555
C20_2 N8_2 1_555 1_555
Rb8 O61 1_555 1_555
C18 H46 1_555 1_555
C20_2 H48_2 1_555 1_555
O21 Rb7 1_555 1_555
O36 Rb7 1_555 1_555
P7 O26 1_555 1_555
S11 Rb4 1_555 1_555
O35 Rb4 1_555 1_555
O55 P7 1_555 1_555
Rb13 S11 1_555 1_555
O58 Rb4 1_555 1_555
O62 Rb4 1_555 1_555
P7 O43 1_555 1_555
P7 C7 1_555 1_555
O18 Rb4 1_555 1_555
O23 C7 1_555 1_555
Rb13 O62 1_555 1_555
O57_2 Rb3_2 1_555 1_555
O61_2 Rb3_2 1_555 1_555
O64_2 Rb12 1_555 1_555
Rb12 O61_2 1_555 1_555
P2_3 O3_2 1_555 1_555
O46 P2_3 1_555 1_555
O10_3 P2_3 1_555 1_555
C2_3 C1_3 1_555 1_555
H3_3 C2_3 1_555 1_555
H4_3 C2_3 1_555 1_555
N1_3 C2_3 1_555 1_555
C3_3 N1_3 1_555 1_555
H5_3 C3_3 1_555 1_555
C4_3 C3_3 1_555 1_555
H6_3 C4_3 1_555 1_555
C5_3 N1_3 1_555 1_555
H7_3 C5_3 1_555 1_555
N2_3 C4_3 1_555 1_555
H8_3 N2_3 1_555 1_555
S12 Rb7 1_555 1_555
O58_2 Rb7 1_555 1_555
O63 Rb7 1_555 1_555
O68_2 Rb7 1_555 1_555
P2_3 C1_3 1_555 1_555
O2_3 C1_3 1_555 1_555
C5_3 N2_3 1_555 1_555
C5_3 H43_3 1_555 1_555
Mo4_2 S4_2 1_555 1_555
Mo7_2 S4_2 1_555 1_555
Mo10_2 S6 1_555 1_555
P5_2 O31_2 1_555 1_555
O31_2 Mo4_2 1_555 1_555
O39_2 Mo10_2 1_555 1_555
O40_2 Mo7_2 1_555 1_555
O48_2 Mo7_2 1_555 1_555
O50_2 Mo10_2 1_555 1_555
H10_2 O48_2 1_555 1_555
H12_2 O50_2 1_555 1_555
H14_2 O48_2 1_555 1_555
H16_2 O50_2 1_555 1_555
O53_2 P5_2 1_555 1_555
Rb13 S4_2 1_555 1_555
O65_2 Rb13 1_555 1_555
Mo4_2 S8_2 1_555 1_555
Mo7_2 S8_2 1_555 1_555
Mo7_2 O32_2 1_555 1_555
P5_2 O39_2 1_555 1_555
O48_2 Rb13 1_555 1_555
Mo1_3 S6 1_555 1_555
P1_3 O4_3 1_555 1_555
P2_4 O28_2 1_555 1_555
S12 Mo1_3 1_555 1_555
O21 Mo1_3 1_555 1_555
O2_4 Mo1_3 1_555 1_555
O28_2 Mo1_3 1_555 1_555
O4_3 Mo1_3 1_555 1_555
O36 Mo10_2 1_555 1_555
O40 P1_3 1_555 1_555
O45_2 P2_4 1_555 1_555
O10_4 P2_4 1_555 1_555
C1_4 P1_3 1_555 1_555
Mo10_2 S12 1_555 1_555
P2_4 C1_4 1_555 1_555
O2_4 C1_4 1_555 1_555
H3_4 C2_4 1_555 1_555
N1_4 C2_4 1_555 1_555
C3_4 N1_4 1_555 1_555
C4_4 C3_4 1_555 1_555
H6_4 C4_4 1_555 1_555
C5_4 N1_4 1_555 1_555
H7_4 C5_4 1_555 1_555
N2_4 C4_4 1_555 1_555
H8_4 N2_4 1_555 1_555
C5_4 N2_4 1_555 1_555
C5_4 H43_4 1_555 1_555
Mo1_4 S7 1_555 1_555
P1_4 O4_4 1_555 1_555
S11 Mo1_4 1_555 1_555
O4_4 Mo1_4 1_555 1_555
O35 Mo10 1_555 1_555
O40_2 P1_4 1_555 1_555
Mo10 S11 1_555 1_555

#END
