
###############################################################################
#
# This file contains modified crystal structure data generated from the
# MOF subset of the Cambridge Structural Database (CSD) v543 
# hosted by the Cambridge Crystallographic Data Centre (CCDC).
#
# This work is licensed under the Creative Commons
# Attribution-NonCommercial-ShareAlike 4.0 International License.
# To view a copy of this license, visit
# http://creativecommons.org/licenses/by-nc-sa/4.0/
# or send a letter to
# Creative Commons, PO Box 1866, Mountain View, CA 94042, USA.
#
# CIF created using the CSD Python API on 29 September 2022
# The structure has been converted into the P1 space group
# The structure has a 3D framework
# The original CSD entry VEJHEZ is in the cubic crystal system
# The framework has been calculated to contain at least 10.0% void space
# The void calculation uses a probe of radius 1.32A, grid spacing 0.4
# H atom positions have been added when not included in the experimental data
# Generated hydrogen atom positions removed from atoms on special positions
#
###############################################################################

data_VEJHEZ
_chemical_formula_moiety         '(C1248 H624 N120 O400 Zn164)n'
_symmetry_cell_setting           triclinic
_symmetry_space_group_name_H-M   'P 1'
_symmetry_Int_Tables_number      1
_space_group_name_Hall           'P 1'
loop_
_symmetry_equiv_pos_site_id
_symmetry_equiv_pos_as_xyz
1 x,y,z
_cell_length_a                   43.030(2)
_cell_length_b                   43.030(2)
_cell_length_c                   43.030(2)
_cell_angle_alpha                90
_cell_angle_beta                 90
_cell_angle_gamma                90
_cell_volume                     79673.5
loop_
_atom_site_label
_atom_site_type_symbol
_atom_site_fract_x
_atom_site_fract_y
_atom_site_fract_z
Zn1 Zn 0.5000 0.2500 0.00881(5)
Zn2 Zn 0.32969(4) 0.32743(4) 0.18250(4)
Zn3 Zn 0.36705(7) 0.12169(7) 0.12703(7)
C1 C 0.3827(3) 0.2204(3) 0.1193(3)
C2 C 0.3734(3) 0.2487(3) 0.1312(3)
H1 H 0.3570 0.2487 0.1460
C3 C 0.4086(3) 0.2763(3) 0.1004(3)
H2 H 0.4170 0.2953 0.0928
C4 C 0.4181(3) 0.2492(4) 0.0899(3)
C5 C 0.4070(3) 0.2203(3) 0.0983(3)
H3 H 0.4154 0.2016 0.0901
C6 C 0.4437(3) 0.2490(4) 0.0659(3)
C7 C 0.4747(3) 0.2459(4) 0.0749(3)
C8 C 0.3655(3) 0.1911(3) 0.1274(4)
C9 C 0.4340(3) 0.2461(3) 0.0349(3)
C15 C 0.4841(2) 0.2469(3) 0.1078(3)
H6 H 0.4712 0.2440 0.1254
C16 C 0.4010(3) 0.2459(3) 0.0249(3)
H7 H 0.3832 0.2449 0.0378
C23 C 0.3855(3) 0.2760(3) 0.1234(3)
C24 C 0.3755(3) 0.3061(4) 0.1376(3)
N1 N 0.5000 0.2500 0.0561(3)
N2 N 0.4533(2) 0.2469(2) 0.0096(2)
O1 O 0.3534(3) 0.3047(3) 0.1574(3)
O3 O 0.3771(3) 0.1662(3) 0.1182(3)
O5 O 0.3889(3) 0.3297(3) 0.1285(3)
O7 O 0.3418(3) 0.1932(3) 0.1444(3)
Zn8 Zn 0.67031(4) 0.17257(4) 0.18250(4)
Zn14 Zn 0.31750(4) 0.17031(4) 0.17257(4)
Zn15 Zn 0.68250(4) 0.32969(4) 0.17257(4)
Zn22 Zn 0.63295(7) 0.37831(7) 0.12703(7)
Zn28 Zn 0.37831(7) 0.37297(7) 0.13295(7)
Zn29 Zn 0.62169(7) 0.12703(7) 0.13295(7)
Zn38 Zn 0.16693(5) 0.16693(5) 0.16693(5)
Zn41 Zn 0.11899(9) 0.11899(9) 0.11899(9)
C27 C 0.6173(3) 0.2796(3) 0.1193(3)
C32 C 0.6266(3) 0.2513(3) 0.1312(3)
H11 H 0.6430 0.2513 0.1460
C37 C 0.5914(3) 0.2237(3) 0.1004(3)
H16 H 0.5830 0.2047 0.0928
C42 C 0.5819(3) 0.2508(4) 0.0899(3)
C47 C 0.5930(3) 0.2797(3) 0.0983(3)
H21 H 0.5846 0.2984 0.0901
C52 C 0.5563(3) 0.2510(4) 0.0659(3)
C57 C 0.5253(3) 0.2541(4) 0.0749(3)
C62 C 0.6345(3) 0.3089(3) 0.1274(4)
C67 C 0.5660(3) 0.2539(3) 0.0349(3)
C76 C 0.2474(4) 0.0082(3) 0.0982(3)
H30 H 0.2484 0.0218 0.1156
C81 C 0.2471(3) 0.0170(3) 0.0653(3)
C86 C 0.2470(3) 0.0474(3) 0.0556(4)
C91 C 0.2476(4) 0.0565(3) 0.0255(3)
C96 C 0.2180(3) 0.0829(3) 0.0888(3)
H35 H 0.1998 0.0744 0.0797
C97 C 0.5159(2) 0.2531(3) 0.1078(3)
H36 H 0.5288 0.2560 0.1254
C102 C 0.5990(3) 0.2541(3) 0.0249(3)
H41 H 0.6168 0.2551 0.0378
C111 C 0.2468(4) 0.0713(3) 0.0807(2)
C116 C 0.2486(4) 0.0922(4) 0.0156(2)
H50 H 0.2475 0.1098 0.0289
C121 C 0.2735(3) 0.0838(3) 0.0930(3)
H55 H 0.2933 0.0764 0.0868
C126 C 0.2157(3) 0.1065(4) 0.1098(4)
C131 C 0.2420(3) 0.1188(3) 0.1239(3)
H60 H 0.2403 0.1343 0.1395
C136 C 0.2709(3) 0.1076(3) 0.1146(4)
C137 C 0.6145(3) 0.2240(3) 0.1234(3)
C142 C 0.6245(3) 0.1939(4) 0.1376(3)
C151 C 0.3000(4) 0.1226(4) 0.1270(4)
C156 C 0.1848(4) 0.1210(4) 0.1180(4)
N6 N 0.5467(2) 0.2531(2) 0.0096(2)
N12 N 0.2500 0.0379(3) 0.0000
O10 O 0.6466(3) 0.1953(3) 0.1574(3)
O19 O 0.2964(4) 0.1425(4) 0.1471(4)
O20 O 0.3575(4) 0.3529(4) 0.2036(4)
O21 O 0.6425(4) 0.1471(4) 0.2036(4)
O26 O 0.6229(3) 0.3338(3) 0.1182(3)
O35 O 0.3251(3) 0.1138(4) 0.1171(4)
O36 O 0.6749(3) 0.3862(4) 0.1171(4)
O39 O 0.6111(3) 0.1703(3) 0.1285(3)
O44 O 0.3715(3) 0.1111(3) 0.1703(3)
O45 O 0.6285(3) 0.3889(3) 0.1703(3)
O54 O 0.1606(3) 0.1078(4) 0.1096(5)
O57 O 0.6582(3) 0.3068(3) 0.1444(3)
O62 O 0.3068(3) 0.3556(3) 0.1582(3)
O63 O 0.6932(3) 0.1444(3) 0.1582(3)
O72 O 0.1875(5) 0.1465(4) 0.1324(5)
H62 H 0.444944 0.274252 0.0647671
H66 H 0.555056 0.225748 0.0647671
H74 H 0.221695 0.0473558 0.0552365
Zn4 Zn 0.33307(5) 0.16693(5) 0.83307(5)
Zn5 Zn 0.38101(9) 0.11899(9) 0.88101(9)
C10 C 0.4018(3) 0.2474(4) 0.9918(3)
H4 H 0.3844 0.2484 0.9782
C11 C 0.4347(3) 0.2471(3) 0.9830(3)
C12 C 0.4444(4) 0.2470(3) 0.9526(3)
C13 C 0.4745(3) 0.2476(4) 0.9435(3)
C14 C 0.4112(3) 0.2180(3) 0.9171(3)
H5 H 0.4203 0.1998 0.9256
C17 C 0.4193(2) 0.2468(4) 0.9287(3)
C18 C 0.4844(2) 0.2486(4) 0.9078(4)
H8 H 0.4711 0.2475 0.8902
C19 C 0.4070(3) 0.2735(3) 0.9162(3)
H9 H 0.4132 0.2933 0.9236
C20 C 0.3902(4) 0.2157(3) 0.8935(4)
C21 C 0.3761(3) 0.2420(3) 0.8812(3)
H10 H 0.3605 0.2403 0.8657
C22 C 0.3854(4) 0.2709(3) 0.8924(3)
C25 C 0.3730(4) 0.3000(4) 0.8774(4)
C26 C 0.3820(4) 0.1848(4) 0.8790(4)
N3 N 0.5000 0.2500 0.9621(3)
O2 O 0.3529(4) 0.2964(4) 0.8575(4)
O4 O 0.3829(4) 0.3251(3) 0.8862(4)
O6 O 0.3904(5) 0.1606(3) 0.8922(4)
O8 O 0.3676(5) 0.1875(5) 0.8535(4)
O9 O 0.4133(5) 0.0867(5) 0.9133(5)
Zn6 Zn 0.50881(5) -0.0000 0.7500
Zn9 Zn 0.68250(4) 0.17031(4) 0.67257(4)
Zn13 Zn 0.32743(4) 0.31750(4) 0.82969(4)
Zn16 Zn 0.67257(4) 0.18250(4) 0.82969(4)
Zn17 Zn 0.32969(4) 0.17257(4) 0.68250(4)
Zn20 Zn 0.18250(4) 0.17031(4) 0.82743(4)
Zn23 Zn 0.62703(7) 0.13295(7) 0.87831(7)
Zn27 Zn 0.37297(7) 0.36705(7) 0.87831(7)
Zn30 Zn 0.37831(7) 0.12703(7) 0.63295(7)
Zn31 Zn 0.63295(7) 0.12169(7) 0.62703(7)
Zn33 Zn 0.13295(7) 0.12169(7) 0.87297(7)
Zn36 Zn 0.66693(5) 0.33307(5) 0.83307(5)
Zn39 Zn 0.61899(9) 0.38101(9) 0.88101(9)
C28 C 0.6193(3) 0.1173(3) 0.7796(3)
C33 C 0.6312(3) 0.1266(3) 0.7513(3)
H12 H 0.6460 0.1430 0.7513
C38 C 0.6004(3) 0.0914(3) 0.7237(3)
H17 H 0.5928 0.0830 0.7047
C43 C 0.5899(3) 0.0819(3) 0.7508(4)
C48 C 0.5983(3) 0.0930(3) 0.7797(3)
H22 H 0.5901 0.0846 0.7984
C53 C 0.5659(3) 0.0563(3) 0.7510(4)
C58 C 0.5749(3) 0.0253(3) 0.7541(4)
C63 C 0.6274(4) 0.1345(3) 0.8089(3)
C68 C 0.5349(3) 0.0660(3) 0.7539(3)
C72 C 0.5982(3) 0.2526(4) 0.9918(3)
C73 C 0.4918(3) 0.0982(3) 0.7526(4)
C75 C 0.2526(4) 0.0082(3) 0.9018(3)
H26 H 0.6156 0.2516 0.9782
H27 H 0.4782 0.1156 0.7516
H29 H 0.2516 0.0218 0.8844
C77 C 0.5653(3) 0.2529(3) 0.9830(3)
C78 C 0.4830(3) 0.0653(3) 0.7529(3)
C80 C 0.2529(3) 0.0170(3) 0.9347(3)
C82 C 0.5556(4) 0.2530(3) 0.9526(3)
C83 C 0.4526(3) 0.0556(4) 0.7530(3)
C85 C 0.2530(3) 0.0474(3) 0.9444(4)
C87 C 0.5255(3) 0.2524(4) 0.9435(3)
C88 C 0.4435(3) 0.0255(3) 0.7524(4)
C90 C 0.2524(4) 0.0565(3) 0.9745(3)
C92 C 0.5888(3) 0.2820(3) 0.9171(3)
C93 C 0.4171(3) 0.0888(3) 0.7820(3)
C95 C 0.2820(3) 0.0829(3) 0.9112(3)
H31 H 0.5797 0.3002 0.9256
H32 H 0.4256 0.0797 0.8002
H34 H 0.3002 0.0744 0.9203
C98 C 0.6078(3) 0.0159(2) 0.7531(3)
H37 H 0.6254 0.0288 0.7560
C103 C 0.5249(3) 0.0990(3) 0.7541(3)
H42 H 0.5378 0.1168 0.7551
C107 C 0.5807(2) 0.2532(4) 0.9287(3)
C108 C 0.4287(3) 0.0807(2) 0.7532(4)
C110 C 0.2532(4) 0.0713(3) 0.9193(2)
C112 C 0.5156(2) 0.2514(4) 0.9078(4)
C113 C 0.4078(4) 0.0156(2) 0.7514(4)
C115 C 0.2514(4) 0.0922(4) 0.9844(2)
H46 H 0.5289 0.2525 0.8902
H47 H 0.3902 0.0289 0.7525
H49 H 0.2525 0.1098 0.9711
C117 C 0.5930(3) 0.2265(3) 0.9162(3)
C118 C 0.4162(3) 0.0930(3) 0.7265(3)
C120 C 0.2265(3) 0.0838(3) 0.9070(3)
H51 H 0.5868 0.2067 0.9236
H52 H 0.4236 0.0868 0.7067
H54 H 0.2067 0.0764 0.9132
C122 C 0.6098(4) 0.2843(3) 0.8935(4)
C123 C 0.3935(4) 0.1098(4) 0.7843(3)
C125 C 0.2843(3) 0.1065(4) 0.8902(4)
C127 C 0.6239(3) 0.2580(3) 0.8812(3)
C128 C 0.3812(3) 0.1239(3) 0.7580(3)
C130 C 0.2580(3) 0.1188(3) 0.8761(3)
H56 H 0.6395 0.2597 0.8657
H57 H 0.3657 0.1395 0.7597
H59 H 0.2597 0.1343 0.8605
C132 C 0.6146(4) 0.2291(3) 0.8924(3)
C133 C 0.3924(3) 0.1146(4) 0.7291(3)
C135 C 0.2291(3) 0.1076(3) 0.8854(4)
C138 C 0.6234(3) 0.1145(3) 0.7240(3)
C143 C 0.6376(3) 0.1245(3) 0.6939(4)
C147 C 0.6270(4) 0.2000(4) 0.8774(4)
C148 C 0.3774(4) 0.1270(4) 0.7000(4)
C150 C 0.2000(4) 0.1226(4) 0.8730(4)
C152 C 0.6180(4) 0.3152(4) 0.8790(4)
C153 C 0.3790(4) 0.1180(4) 0.8152(4)
C155 C 0.3152(4) 0.1210(4) 0.8820(4)
N4 N 0.5561(3) -0.0000 0.7500
N7 N 0.5096(2) 0.0467(2) 0.7531(2)
N11 N 0.4621(3) -0.0000 0.7500
N12_2 N 0.2500 0.0379(3) 1.0000
O11 O 0.6574(3) 0.1466(3) 0.6953(3)
O15 O 0.6471(4) 0.2036(4) 0.8575(4)
O16 O 0.3575(4) 0.1471(4) 0.7036(4)
O18 O 0.2036(4) 0.1425(4) 0.8529(4)
O22 O 0.7036(4) 0.1425(4) 0.6471(4)
O27 O 0.6182(3) 0.1229(3) 0.8338(3)
O31 O 0.6171(4) 0.1749(3) 0.8862(4)
O32 O 0.3862(4) 0.1171(4) 0.6749(3)
O34 O 0.1749(3) 0.1138(4) 0.8829(4)
O40 O 0.6285(3) 0.1111(3) 0.6703(3)
O46 O 0.6703(3) 0.1285(3) 0.8889(3)
O50 O 0.6096(5) 0.3394(3) 0.8922(4)
O51 O 0.3922(4) 0.1096(5) 0.8394(3)
O53 O 0.3394(3) 0.1078(4) 0.8904(5)
O55 O 0.6078(4) 0.3904(5) 0.8394(3)
O56 O 0.6606(3) 0.3922(4) 0.8904(5)
O58 O 0.6444(3) 0.1582(3) 0.8068(3)
O64 O 0.6582(3) 0.1932(3) 0.6444(3)
O68 O 0.6324(5) 0.3125(5) 0.8535(4)
O69 O 0.3535(4) 0.1324(5) 0.8125(5)
O71 O 0.3125(5) 0.1465(4) 0.8676(5)
O73 O 0.6465(4) 0.3676(5) 0.8125(5)
O74 O 0.6875(5) 0.3535(4) 0.8676(5)
O75 O 0.5867(5) 0.4133(5) 0.9133(5)
H61 H 0.444763 0.221695 0.952644
H67 H 0.564767 0.0550556 0.725748
H70 H 0.278305 0.0473558 0.944763
H71 H 0.555237 0.278305 0.952644
H73 H 0.452644 0.0552365 0.778305
Zn7 Zn 0.2500 0.99119(5) 0.0000
Zn12 Zn 0.32743(4) 0.81750(4) 0.17031(4)
Zn21 Zn 0.17031(4) 0.82743(4) 0.18250(4)
Zn26 Zn 0.12169(7) 0.87297(7) 0.13295(7)
Zn35 Zn 0.37297(7) 0.86705(7) 0.12169(7)
C31 C 0.2204(3) 0.8807(3) 0.1173(3)
C36 C 0.2487(3) 0.8688(3) 0.1266(3)
H15 H 0.2487 0.8540 0.1430
C41 C 0.2763(3) 0.8996(3) 0.0914(3)
H20 H 0.2953 0.9072 0.0830
C46 C 0.2492(4) 0.9101(3) 0.0819(3)
C51 C 0.2203(3) 0.9017(3) 0.0930(3)
H25 H 0.2016 0.9099 0.0846
C56 C 0.2490(4) 0.9341(3) 0.0563(3)
C61 C 0.2459(4) 0.9251(3) 0.0253(3)
C66 C 0.1911(3) 0.8726(4) 0.1345(3)
C71 C 0.2461(3) 0.9651(3) 0.0660(3)
C101 C 0.2469(3) 0.8922(3) 0.0159(2)
H40 H 0.2440 0.8746 0.0288
C106 C 0.2459(3) 0.9751(3) 0.0990(3)
H45 H 0.2449 0.9622 0.1168
C141 C 0.2760(3) 0.8766(3) 0.1145(3)
C146 C 0.3061(4) 0.8624(3) 0.1245(3)
N5 N 0.2500 0.9439(3) 0.0000
N10 N 0.2469(2) 0.9904(2) 0.0467(2)
O14 O 0.3047(3) 0.8426(3) 0.1466(3)
O25 O 0.3529(4) 0.7964(4) 0.1425(4)
O30 O 0.1662(3) 0.8818(3) 0.1229(3)
O38 O 0.1138(4) 0.8829(4) 0.1749(3)
O43 O 0.3297(3) 0.8715(3) 0.1111(3)
O49 O 0.1111(3) 0.8297(3) 0.1285(3)
O61 O 0.1932(3) 0.8556(3) 0.1582(3)
O67 O 0.3556(3) 0.8418(3) 0.1932(3)
H65 H 0.274252 0.935233 0.0550556
Zn6_2 Zn 0.50881(5) 1.0000 0.7500
Zn7_2 Zn 0.2500 0.99119(5) 1.0000
Zn10 Zn 0.68250(4) 0.82969(4) 0.82743(4)
Zn11 Zn 0.17257(4) 0.81750(4) 0.82969(4)
Zn18 Zn 0.67257(4) 0.81750(4) 0.67031(4)
Zn19 Zn 0.32969(4) 0.82743(4) 0.81750(4)
Zn24 Zn 0.62703(7) 0.86705(7) 0.62169(7)
Zn25 Zn 0.37831(7) 0.87297(7) 0.86705(7)
Zn32 Zn 0.63295(7) 0.87831(7) 0.87297(7)
Zn34 Zn 0.12703(7) 0.86705(7) 0.87831(7)
Zn37 Zn 0.33307(5) 0.83307(5) 0.66693(5)
Zn40 Zn 0.38101(9) 0.88101(9) 0.61899(9)
C29 C 0.6193(3) 0.8827(3) 0.7204(3)
C30 C 0.2796(3) 0.8807(3) 0.8827(3)
C34 C 0.6312(3) 0.8734(3) 0.7487(3)
C35 C 0.2513(3) 0.8688(3) 0.8734(3)
H13 H 0.6460 0.8570 0.7487
H14 H 0.2513 0.8540 0.8570
C39 C 0.6004(3) 0.9086(3) 0.7763(3)
C40 C 0.2237(3) 0.8996(3) 0.9086(3)
H18 H 0.5928 0.9170 0.7953
H19 H 0.2047 0.9072 0.9170
C44 C 0.5899(3) 0.9181(3) 0.7492(4)
C45 C 0.2508(4) 0.9101(3) 0.9181(3)
C49 C 0.5983(3) 0.9070(3) 0.7203(3)
C50 C 0.2797(3) 0.9017(3) 0.9070(3)
H23 H 0.5901 0.9154 0.7016
H24 H 0.2984 0.9099 0.9154
C54 C 0.5659(3) 0.9437(3) 0.7490(4)
C55 C 0.2510(4) 0.9341(3) 0.9437(3)
C59 C 0.5749(3) 0.9747(3) 0.7459(4)
C60 C 0.2541(4) 0.9251(3) 0.9747(3)
C64 C 0.6274(4) 0.8655(3) 0.6911(3)
C65 C 0.3089(3) 0.8726(4) 0.8655(3)
C69 C 0.5349(3) 0.9340(3) 0.7461(3)
C70 C 0.2539(3) 0.9651(3) 0.9340(3)
C74 C 0.4918(3) 0.9018(3) 0.7474(4)
H28 H 0.4782 0.8844 0.7484
C79 C 0.4830(3) 0.9347(3) 0.7471(3)
C84 C 0.4526(3) 0.9444(4) 0.7470(3)
C89 C 0.4435(3) 0.9745(3) 0.7476(4)
C94 C 0.4171(3) 0.9112(3) 0.7180(3)
H33 H 0.4256 0.9203 0.6998
C99 C 0.6078(3) 0.9841(2) 0.7469(3)
C100 C 0.2531(3) 0.8922(3) 0.9841(2)
H38 H 0.6254 0.9712 0.7440
H39 H 0.2560 0.8746 0.9712
C104 C 0.5249(3) 0.9010(3) 0.7459(3)
C105 C 0.2541(3) 0.9751(3) 0.9010(3)
H43 H 0.5378 0.8832 0.7449
H44 H 0.2551 0.9622 0.8832
C109 C 0.4287(3) 0.9193(2) 0.7468(4)
C114 C 0.4078(4) 0.9844(2) 0.7486(4)
H48 H 0.3902 0.9711 0.7475
C119 C 0.4162(3) 0.9070(3) 0.7735(3)
H53 H 0.4236 0.9132 0.7933
C124 C 0.3935(4) 0.8902(4) 0.7157(3)
C129 C 0.3812(3) 0.8761(3) 0.7420(3)
H58 H 0.3657 0.8605 0.7403
C134 C 0.3924(3) 0.8854(4) 0.7709(3)
C139 C 0.6234(3) 0.8855(3) 0.7760(3)
C140 C 0.2240(3) 0.8766(3) 0.8855(3)
C144 C 0.6376(3) 0.8755(3) 0.8061(4)
C145 C 0.1939(4) 0.8624(3) 0.8755(3)
C149 C 0.3774(4) 0.8730(4) 0.8000(4)
C154 C 0.3790(4) 0.8820(4) 0.6848(4)
N4_2 N 0.5561(3) 1.0000 0.7500
N5_2 N 0.2500 0.9439(3) 1.0000
N8 N 0.5096(2) 0.9533(2) 0.7469(2)
N9 N 0.2531(2) 0.9904(2) 0.9533(2)
N11_2 N 0.4621(3) 1.0000 0.7500
O12 O 0.6574(3) 0.8534(3) 0.8047(3)
O13 O 0.1953(3) 0.8426(3) 0.8534(3)
O17 O 0.3575(4) 0.8529(4) 0.7964(4)
O23 O 0.7036(4) 0.8575(4) 0.8529(4)
O24 O 0.1471(4) 0.7964(4) 0.8575(4)
O28 O 0.6182(3) 0.8771(3) 0.6662(3)
O29 O 0.3338(3) 0.8818(3) 0.8771(3)
O33 O 0.3862(4) 0.8829(4) 0.8251(3)
O37 O 0.6171(4) 0.8251(3) 0.6138(4)
O41 O 0.6285(3) 0.8889(3) 0.8297(3)
O42 O 0.1703(3) 0.8715(3) 0.8889(3)
O47 O 0.6703(3) 0.8715(3) 0.6111(3)
O48 O 0.3889(3) 0.8297(3) 0.8715(3)
O52 O 0.3922(4) 0.8904(5) 0.6606(3)
O59 O 0.6444(3) 0.8418(3) 0.6932(3)
O60 O 0.3068(3) 0.8556(3) 0.8418(3)
O65 O 0.6582(3) 0.8068(3) 0.8556(3)
O66 O 0.1444(3) 0.8418(3) 0.8068(3)
O70 O 0.3535(4) 0.8676(5) 0.6875(5)
H68 H 0.564767 0.944944 0.774252
H69 H 0.225748 0.935233 0.944944
H72 H 0.452644 0.944763 0.721695
Zn7_3 Zn 0.2500 0.00881(5) 0.5000
Zn11_2 Zn 0.32743(4) 0.18250(4) 0.32969(4)
Zn12_2 Zn 0.17257(4) 0.18250(4) 0.67031(4)
Zn19_2 Zn 0.17031(4) 0.17257(4) 0.31750(4)
Zn25_2 Zn 0.12169(7) 0.12703(7) 0.36705(7)
Zn34_2 Zn 0.37297(7) 0.13295(7) 0.37831(7)
Zn35_2 Zn 0.12703(7) 0.13295(7) 0.62169(7)
C30_2 C 0.2204(3) 0.1193(3) 0.3827(3)
C31_2 C 0.2796(3) 0.1193(3) 0.6173(3)
C35_2 C 0.2487(3) 0.1312(3) 0.3734(3)
C36_2 C 0.2513(3) 0.1312(3) 0.6266(3)
H14_2 H 0.2487 0.1460 0.3570
H15_2 H 0.2513 0.1460 0.6430
C40_2 C 0.2763(3) 0.1004(3) 0.4086(3)
C41_2 C 0.2237(3) 0.1004(3) 0.5914(3)
H19_2 H 0.2953 0.0928 0.4170
H20_2 H 0.2047 0.0928 0.5830
C45_2 C 0.2492(4) 0.0899(3) 0.4181(3)
C46_2 C 0.2508(4) 0.0899(3) 0.5819(3)
C50_2 C 0.2203(3) 0.0983(3) 0.4070(3)
C51_2 C 0.2797(3) 0.0983(3) 0.5930(3)
H24_2 H 0.2016 0.0901 0.4154
H25_2 H 0.2984 0.0901 0.5846
C55_2 C 0.2490(4) 0.0659(3) 0.4437(3)
C56_2 C 0.2510(4) 0.0659(3) 0.5563(3)
C60_2 C 0.2459(4) 0.0749(3) 0.4747(3)
C61_2 C 0.2541(4) 0.0749(3) 0.5253(3)
C65_2 C 0.1911(3) 0.1274(4) 0.3655(3)
C66_2 C 0.3089(3) 0.1274(4) 0.6345(3)
C70_2 C 0.2461(3) 0.0349(3) 0.4340(3)
C71_2 C 0.2539(3) 0.0349(3) 0.5660(3)
C74_2 C 0.0082(3) 0.0982(3) 0.2474(4)
H28_2 H 0.0218 0.1156 0.2484
C79_2 C 0.0170(3) 0.0653(3) 0.2471(3)
C84_2 C 0.0474(3) 0.0556(4) 0.2470(3)
C89_2 C 0.0565(3) 0.0255(3) 0.2476(4)
C94_2 C 0.0829(3) 0.0888(3) 0.2180(3)
H33_2 H 0.0744 0.0797 0.1998
C100_2 C 0.2469(3) 0.1078(3) 0.4841(2)
C101_2 C 0.2531(3) 0.1078(3) 0.5159(2)
H39_2 H 0.2440 0.1254 0.4712
H40_2 H 0.2560 0.1254 0.5288
C105_2 C 0.2459(3) 0.0249(3) 0.4010(3)
C106_2 C 0.2541(3) 0.0249(3) 0.5990(3)
H44_2 H 0.2449 0.0378 0.3832
H45_2 H 0.2551 0.0378 0.6168
C109_2 C 0.0713(3) 0.0807(2) 0.2468(4)
C114_2 C 0.0922(4) 0.0156(2) 0.2486(4)
H48_2 H 0.1098 0.0289 0.2475
C119_2 C 0.0838(3) 0.0930(3) 0.2735(3)
H53_2 H 0.0764 0.0868 0.2933
C124_2 C 0.1065(4) 0.1098(4) 0.2157(3)
C129_2 C 0.1188(3) 0.1239(3) 0.2420(3)
H58_2 H 0.1343 0.1395 0.2403
C134_2 C 0.1076(3) 0.1146(4) 0.2709(3)
C140_2 C 0.2760(3) 0.1234(3) 0.3855(3)
C141_2 C 0.2240(3) 0.1234(3) 0.6145(3)
C145_2 C 0.3061(4) 0.1376(3) 0.3755(3)
C146_2 C 0.1939(4) 0.1376(3) 0.6245(3)
C149_2 C 0.1226(4) 0.1270(4) 0.3000(4)
C154_2 C 0.1210(4) 0.1180(4) 0.1848(4)
N5_3 N 0.2500 0.0561(3) 0.5000
N9_2 N 0.2469(2) 0.0096(2) 0.4533(2)
N10_2 N 0.2531(2) 0.0096(2) 0.5467(2)
N11_3 N 0.0379(3) -0.0000 0.2500
O13_2 O 0.3047(3) 0.1574(3) 0.3534(3)
O14_2 O 0.1953(3) 0.1574(3) 0.6466(3)
O17_2 O 0.1425(4) 0.1471(4) 0.2964(4)
O24_2 O 0.3529(4) 0.2036(4) 0.3575(4)
O25_2 O 0.1471(4) 0.2036(4) 0.6425(4)
O29_2 O 0.1662(3) 0.1182(3) 0.3771(3)
O30_2 O 0.3338(3) 0.1182(3) 0.6229(3)
O33_2 O 0.1138(4) 0.1171(4) 0.3251(3)
O42_2 O 0.3297(3) 0.1285(3) 0.3889(3)
O43_2 O 0.1703(3) 0.1285(3) 0.6111(3)
O48_2 O 0.1111(3) 0.1703(3) 0.3715(3)
O49_2 O 0.3889(3) 0.1703(3) 0.6285(3)
O52_2 O 0.1078(4) 0.1096(5) 0.1606(3)
O60_2 O 0.1932(3) 0.1444(3) 0.3418(3)
O61_2 O 0.3068(3) 0.1444(3) 0.6582(3)
O66_2 O 0.3556(3) 0.1582(3) 0.3068(3)
O67_2 O 0.1444(3) 0.1582(3) 0.6932(3)
O70_2 O 0.1465(4) 0.1324(5) 0.1875(5)
H65_2 H 0.225748 0.0647671 0.555056
H69_2 H 0.274252 0.0647671 0.444944
H72_2 H 0.0473558 0.0552365 0.221695
Zn1_2 Zn -0.0000 0.7500 0.50881(5)
Zn2_2 Zn 0.17031(4) 0.67257(4) 0.68250(4)
Zn3_2 Zn 0.13295(7) 0.87831(7) 0.62703(7)
Zn4_2 Zn 0.16693(5) 0.83307(5) 0.33307(5)
Zn5_2 Zn 0.11899(9) 0.88101(9) 0.38101(9)
C1_2 C 0.1173(3) 0.7796(3) 0.6193(3)
C2_2 C 0.1266(3) 0.7513(3) 0.6312(3)
H1_2 H 0.1430 0.7513 0.6460
C3_2 C 0.0914(3) 0.7237(3) 0.6004(3)
H2_2 H 0.0830 0.7047 0.5928
C4_2 C 0.0819(3) 0.7508(4) 0.5899(3)
C5_2 C 0.0930(3) 0.7797(3) 0.5983(3)
H3_2 H 0.0846 0.7984 0.5901
C6_2 C 0.0563(3) 0.7510(4) 0.5659(3)
C7_2 C 0.0253(3) 0.7541(4) 0.5749(3)
C8_2 C 0.1345(3) 0.8089(3) 0.6274(4)
C9_2 C 0.0660(3) 0.7539(3) 0.5349(3)
C10_2 C 0.0982(3) 0.7526(4) 0.4918(3)
H4_2 H 0.1156 0.7516 0.4782
C11_2 C 0.0653(3) 0.7529(3) 0.4830(3)
C12_2 C 0.0556(4) 0.7530(3) 0.4526(3)
C13_2 C 0.0255(3) 0.7524(4) 0.4435(3)
C14_2 C 0.0888(3) 0.7820(3) 0.4171(3)
H5_2 H 0.0797 0.8002 0.4256
C15_2 C 0.0159(2) 0.7531(3) 0.6078(3)
H6_2 H 0.0288 0.7560 0.6254
C16_2 C 0.0990(3) 0.7541(3) 0.5249(3)
H7_2 H 0.1168 0.7551 0.5378
C17_2 C 0.0807(2) 0.7532(4) 0.4287(3)
C18_2 C 0.0156(2) 0.7514(4) 0.4078(4)
H8_2 H 0.0289 0.7525 0.3902
C19_2 C 0.0930(3) 0.7265(3) 0.4162(3)
H9_2 H 0.0868 0.7067 0.4236
C20_2 C 0.1098(4) 0.7843(3) 0.3935(4)
C21_2 C 0.1239(3) 0.7580(3) 0.3812(3)
H10_2 H 0.1395 0.7597 0.3657
C22_2 C 0.1146(4) 0.7291(3) 0.3924(3)
C23_2 C 0.1145(3) 0.7240(3) 0.6234(3)
C24_2 C 0.1245(3) 0.6939(4) 0.6376(3)
C25_2 C 0.1270(4) 0.7000(4) 0.3774(4)
C26_2 C 0.1180(4) 0.8152(4) 0.3790(4)
N1_2 N 0.0000 0.7500 0.5561(3)
N2_2 N 0.0467(2) 0.7531(2) 0.5096(2)
N3_2 N 0.0000 0.7500 0.4621(3)
O1_2 O 0.1466(3) 0.6953(3) 0.6574(3)
O2_2 O 0.1471(4) 0.7036(4) 0.3575(4)
O3_2 O 0.1229(3) 0.8338(3) 0.6182(3)
O4_2 O 0.1171(4) 0.6749(3) 0.3862(4)
O5_2 O 0.1111(3) 0.6703(3) 0.6285(3)
O6_2 O 0.1096(5) 0.8394(3) 0.3922(4)
O7_2 O 0.1582(3) 0.8068(3) 0.6444(3)
O8_2 O 0.1324(5) 0.8125(5) 0.3535(4)
O9_2 O 0.0867(5) 0.9133(5) 0.4133(5)
Zn13_2 Zn 0.17257(4) 0.68250(4) 0.32969(4)
Zn14_2 Zn 0.18250(4) 0.82969(4) 0.67257(4)
Zn20_2 Zn 0.31750(4) 0.82969(4) 0.32743(4)
Zn27_2 Zn 0.12703(7) 0.63295(7) 0.37831(7)
Zn28_2 Zn 0.12169(7) 0.62703(7) 0.63295(7)
Zn33_2 Zn 0.36705(7) 0.87831(7) 0.37297(7)
C73_2 C 0.0082(3) 0.9018(3) 0.2526(4)
C75_2 C 0.2474(4) 0.9918(3) 0.4018(3)
C76_2 C 0.2526(4) 0.9918(3) 0.5982(3)
H27_2 H 0.0218 0.8844 0.2516
H29_2 H 0.2484 0.9782 0.3844
H30_2 H 0.2516 0.9782 0.6156
C78_2 C 0.0170(3) 0.9347(3) 0.2529(3)
C80_2 C 0.2471(3) 0.9830(3) 0.4347(3)
C81_2 C 0.2529(3) 0.9830(3) 0.5653(3)
C83_2 C 0.0474(3) 0.9444(4) 0.2530(3)
C85_2 C 0.2470(3) 0.9526(3) 0.4444(4)
C86_2 C 0.2530(3) 0.9526(3) 0.5556(4)
C88_2 C 0.0565(3) 0.9745(3) 0.2524(4)
C90_2 C 0.2476(4) 0.9435(3) 0.4745(3)
C91_2 C 0.2524(4) 0.9435(3) 0.5255(3)
C93_2 C 0.0829(3) 0.9112(3) 0.2820(3)
C95_2 C 0.2180(3) 0.9171(3) 0.4112(3)
C96_2 C 0.2820(3) 0.9171(3) 0.5888(3)
H32_2 H 0.0744 0.9203 0.3002
H34_2 H 0.1998 0.9256 0.4203
H35_2 H 0.3002 0.9256 0.5797
C108_2 C 0.0713(3) 0.9193(2) 0.2532(4)
C110_2 C 0.2468(4) 0.9287(3) 0.4193(2)
C111_2 C 0.2532(4) 0.9287(3) 0.5807(2)
C113_2 C 0.0922(4) 0.9844(2) 0.2514(4)
C115_2 C 0.2486(4) 0.9078(4) 0.4844(2)
C116_2 C 0.2514(4) 0.9078(4) 0.5156(2)
H47_2 H 0.1098 0.9711 0.2525
H49_2 H 0.2475 0.8902 0.4711
H50_2 H 0.2525 0.8902 0.5289
C118_2 C 0.0838(3) 0.9070(3) 0.2265(3)
C120_2 C 0.2735(3) 0.9162(3) 0.4070(3)
C121_2 C 0.2265(3) 0.9162(3) 0.5930(3)
H52_2 H 0.0764 0.9132 0.2067
H54_2 H 0.2933 0.9236 0.4132
H55_2 H 0.2067 0.9236 0.5868
C123_2 C 0.1065(4) 0.8902(4) 0.2843(3)
C125_2 C 0.2157(3) 0.8935(4) 0.3902(4)
C126_2 C 0.2843(3) 0.8935(4) 0.6098(4)
C128_2 C 0.1188(3) 0.8761(3) 0.2580(3)
C130_2 C 0.2420(3) 0.8812(3) 0.3761(3)
C131_2 C 0.2580(3) 0.8812(3) 0.6239(3)
H57_2 H 0.1343 0.8605 0.2597
H59_2 H 0.2403 0.8657 0.3605
H60_2 H 0.2597 0.8657 0.6395
C133_2 C 0.1076(3) 0.8854(4) 0.2291(3)
C135_2 C 0.2709(3) 0.8924(3) 0.3854(4)
C136_2 C 0.2291(3) 0.8924(3) 0.6146(4)
C148_2 C 0.1226(4) 0.8730(4) 0.2000(4)
C150_2 C 0.3000(4) 0.8774(4) 0.3730(4)
C151_2 C 0.2000(4) 0.8774(4) 0.6270(4)
C153_2 C 0.1210(4) 0.8820(4) 0.3152(4)
C155_2 C 0.1848(4) 0.8790(4) 0.3820(4)
C156_2 C 0.3152(4) 0.8790(4) 0.6180(4)
N11_4 N 0.0379(3) 1.0000 0.2500
N12_3 N 0.2500 0.9621(3) 0.5000
O16_2 O 0.1425(4) 0.8529(4) 0.2036(4)
O18_2 O 0.2964(4) 0.8575(4) 0.3529(4)
O19_2 O 0.2036(4) 0.8575(4) 0.6471(4)
O20_2 O 0.1425(4) 0.6471(4) 0.7036(4)
O34_2 O 0.3251(3) 0.8862(4) 0.3829(4)
O35_2 O 0.1749(3) 0.8862(4) 0.6171(4)
O44_2 O 0.1285(3) 0.8889(3) 0.6703(3)
O51_2 O 0.1078(4) 0.8904(5) 0.3394(3)
O53_2 O 0.1606(3) 0.8922(4) 0.3904(5)
O54_2 O 0.3394(3) 0.8922(4) 0.6096(5)
O62_2 O 0.1932(3) 0.6444(3) 0.6582(3)
O69_2 O 0.1465(4) 0.8676(5) 0.3125(5)
O71_2 O 0.1875(5) 0.8535(4) 0.3676(5)
O72_2 O 0.3125(5) 0.8535(4) 0.6324(5)
H61_2 H 0.0552365 0.778305 0.452644
H62_2 H 0.0550556 0.725748 0.564767
H70_2 H 0.221695 0.952644 0.444763
H73_2 H 0.0473558 0.944763 0.278305
H74_2 H 0.278305 0.952644 0.555237
Zn6_3 Zn 0.99119(5) -0.0000 0.2500
Zn10_2 Zn 0.81750(4) 0.17031(4) 0.32743(4)
Zn18_2 Zn 0.82743(4) 0.18250(4) 0.17031(4)
Zn24_2 Zn 0.87297(7) 0.13295(7) 0.12169(7)
Zn32_2 Zn 0.86705(7) 0.12169(7) 0.37297(7)
C29_2 C 0.8807(3) 0.1173(3) 0.2204(3)
C34_2 C 0.8688(3) 0.1266(3) 0.2487(3)
H13_2 H 0.8540 0.1430 0.2487
C39_2 C 0.8996(3) 0.0914(3) 0.2763(3)
H18_2 H 0.9072 0.0830 0.2953
C44_2 C 0.9101(3) 0.0819(3) 0.2492(4)
C49_2 C 0.9017(3) 0.0930(3) 0.2203(3)
H23_2 H 0.9099 0.0846 0.2016
C54_2 C 0.9341(3) 0.0563(3) 0.2490(4)
C59_2 C 0.9251(3) 0.0253(3) 0.2459(4)
C64_2 C 0.8726(4) 0.1345(3) 0.1911(3)
C69_2 C 0.9651(3) 0.0660(3) 0.2461(3)
C99_2 C 0.8922(3) 0.0159(2) 0.2469(3)
H38_2 H 0.8746 0.0288 0.2440
C104_2 C 0.9751(3) 0.0990(3) 0.2459(3)
H43_2 H 0.9622 0.1168 0.2449
C139_2 C 0.8766(3) 0.1145(3) 0.2760(3)
C144_2 C 0.8624(3) 0.1245(3) 0.3061(4)
N4_3 N 0.9439(3) -0.0000 0.2500
N8_2 N 0.9904(2) 0.0467(2) 0.2469(2)
O12_2 O 0.8426(3) 0.1466(3) 0.3047(3)
O23_2 O 0.7964(4) 0.1425(4) 0.3529(4)
O28_2 O 0.8818(3) 0.1229(3) 0.1662(3)
O37_2 O 0.8829(4) 0.1749(3) 0.1138(4)
O41_2 O 0.8715(3) 0.1111(3) 0.3297(3)
O47_2 O 0.8297(3) 0.1285(3) 0.1111(3)
O59_2 O 0.8556(3) 0.1582(3) 0.1932(3)
O65_2 O 0.8418(3) 0.1932(3) 0.3556(3)
H68_2 H 0.935233 0.0550556 0.274252
Zn1_3 Zn 1.0000 0.7500 0.50881(5)
N1_3 N 1.0000 0.7500 0.5561(3)
N3_3 N 1.0000 0.7500 0.4621(3)
Zn6_4 Zn 0.99119(5) 1.0000 0.2500
Zn8_2 Zn 0.82969(4) 0.82743(4) 0.68250(4)
Zn9_2 Zn 0.81750(4) 0.82969(4) 0.17257(4)
Zn15_2 Zn 0.81750(4) 0.67031(4) 0.67257(4)
Zn16_2 Zn 0.82743(4) 0.81750(4) 0.32969(4)
Zn22_2 Zn 0.86705(7) 0.62169(7) 0.62703(7)
Zn23_2 Zn 0.87297(7) 0.86705(7) 0.37831(7)
Zn29_2 Zn 0.87831(7) 0.87297(7) 0.63295(7)
Zn31_2 Zn 0.86705(7) 0.87831(7) 0.12703(7)
Zn36_2 Zn 0.83307(5) 0.66693(5) 0.33307(5)
Zn39_2 Zn 0.88101(9) 0.61899(9) 0.38101(9)
C27_2 C 0.8827(3) 0.7204(3) 0.6193(3)
C28_2 C 0.8807(3) 0.8827(3) 0.2796(3)
C32_2 C 0.8734(3) 0.7487(3) 0.6312(3)
C33_2 C 0.8688(3) 0.8734(3) 0.2513(3)
H11_2 H 0.8570 0.7487 0.6460
H12_2 H 0.8540 0.8570 0.2513
C37_2 C 0.9086(3) 0.7763(3) 0.6004(3)
C38_2 C 0.8996(3) 0.9086(3) 0.2237(3)
H16_2 H 0.9170 0.7953 0.5928
H17_2 H 0.9072 0.9170 0.2047
C42_2 C 0.9181(3) 0.7492(4) 0.5899(3)
C43_2 C 0.9101(3) 0.9181(3) 0.2508(4)
C47_2 C 0.9070(3) 0.7203(3) 0.5983(3)
C48_2 C 0.9017(3) 0.9070(3) 0.2797(3)
H21_2 H 0.9154 0.7016 0.5901
H22_2 H 0.9099 0.9154 0.2984
C52_2 C 0.9437(3) 0.7490(4) 0.5659(3)
C53_2 C 0.9341(3) 0.9437(3) 0.2510(4)
C57_2 C 0.9747(3) 0.7459(4) 0.5749(3)
C58_2 C 0.9251(3) 0.9747(3) 0.2541(4)
C62_2 C 0.8655(3) 0.6911(3) 0.6274(4)
C63_2 C 0.8726(4) 0.8655(3) 0.3089(3)
C67_2 C 0.9340(3) 0.7461(3) 0.5349(3)
C68_2 C 0.9651(3) 0.9340(3) 0.2539(3)
C72_2 C 0.9018(3) 0.7474(4) 0.4918(3)
H26_2 H 0.8844 0.7484 0.4782
C77_2 C 0.9347(3) 0.7471(3) 0.4830(3)
C82_2 C 0.9444(4) 0.7470(3) 0.4526(3)
C87_2 C 0.9745(3) 0.7476(4) 0.4435(3)
C92_2 C 0.9112(3) 0.7180(3) 0.4171(3)
H31_2 H 0.9203 0.6998 0.4256
C97_2 C 0.9841(2) 0.7469(3) 0.6078(3)
C98_2 C 0.8922(3) 0.9841(2) 0.2531(3)
H36_2 H 0.9712 0.7440 0.6254
H37_2 H 0.8746 0.9712 0.2560
C102_2 C 0.9010(3) 0.7459(3) 0.5249(3)
C103_2 C 0.9751(3) 0.9010(3) 0.2541(3)
H41_2 H 0.8832 0.7449 0.5378
H42_2 H 0.9622 0.8832 0.2551
C107_2 C 0.9193(2) 0.7468(4) 0.4287(3)
C112_2 C 0.9844(2) 0.7486(4) 0.4078(4)
H46_2 H 0.9711 0.7475 0.3902
C117_2 C 0.9070(3) 0.7735(3) 0.4162(3)
H51_2 H 0.9132 0.7933 0.4236
C122_2 C 0.8902(4) 0.7157(3) 0.3935(4)
C127_2 C 0.8761(3) 0.7420(3) 0.3812(3)
H56_2 H 0.8605 0.7403 0.3657
C132_2 C 0.8854(4) 0.7709(3) 0.3924(3)
C137_2 C 0.8855(3) 0.7760(3) 0.6234(3)
C138_2 C 0.8766(3) 0.8855(3) 0.2240(3)
C142_2 C 0.8755(3) 0.8061(4) 0.6376(3)
C143_2 C 0.8624(3) 0.8755(3) 0.1939(4)
C147_2 C 0.8730(4) 0.8000(4) 0.3774(4)
C152_2 C 0.8820(4) 0.6848(4) 0.3790(4)
N4_4 N 0.9439(3) 1.0000 0.2500
N6_2 N 0.9533(2) 0.7469(2) 0.5096(2)
N7_2 N 0.9904(2) 0.9533(2) 0.2531(2)
O10_2 O 0.8534(3) 0.8047(3) 0.6574(3)
O11_2 O 0.8426(3) 0.8534(3) 0.1953(3)
O15_2 O 0.8529(4) 0.7964(4) 0.3575(4)
O21_2 O 0.8575(4) 0.8529(4) 0.7036(4)
O22_2 O 0.7964(4) 0.8575(4) 0.1471(4)
O26_2 O 0.8771(3) 0.6662(3) 0.6182(3)
O27_2 O 0.8818(3) 0.8771(3) 0.3338(3)
O31_2 O 0.8829(4) 0.8251(3) 0.3862(4)
O36_2 O 0.8251(3) 0.6138(4) 0.6171(4)
O39_2 O 0.8889(3) 0.8297(3) 0.6285(3)
O40_2 O 0.8715(3) 0.8889(3) 0.1703(3)
O45_2 O 0.8715(3) 0.6111(3) 0.6703(3)
O46_2 O 0.8297(3) 0.8715(3) 0.3889(3)
O50_2 O 0.8904(5) 0.6606(3) 0.3922(4)
O55_2 O 0.8922(4) 0.6096(5) 0.3394(3)
O56_2 O 0.8394(3) 0.6078(4) 0.3904(5)
O57_2 O 0.8418(3) 0.6932(3) 0.6444(3)
O58_2 O 0.8556(3) 0.8418(3) 0.3068(3)
O63_2 O 0.8068(3) 0.8556(3) 0.6582(3)
O64_2 O 0.8418(3) 0.8068(3) 0.1444(3)
O68_2 O 0.8676(5) 0.6875(5) 0.3535(4)
O73_2 O 0.8535(4) 0.6324(5) 0.3125(5)
O74_2 O 0.8125(5) 0.6465(4) 0.3676(5)
O75_2 O 0.9133(5) 0.5867(5) 0.4133(5)
H66_2 H 0.944944 0.774252 0.564767
H67_2 H 0.935233 0.944944 0.225748
H71_2 H 0.944763 0.721695 0.452644
Zn1_4 Zn 0.5000 0.7500 0.49119(5)
Zn2_3 Zn 0.67031(4) 0.82743(4) 0.31750(4)
Zn3_3 Zn 0.63295(7) 0.62169(7) 0.37297(7)
Zn4_3 Zn 0.66693(5) 0.66693(5) 0.66693(5)
Zn5_3 Zn 0.61899(9) 0.61899(9) 0.61899(9)
C1_3 C 0.6173(3) 0.7204(3) 0.3807(3)
C2_3 C 0.6266(3) 0.7487(3) 0.3688(3)
H1_3 H 0.6430 0.7487 0.3540
C3_3 C 0.5914(3) 0.7763(3) 0.3996(3)
H2_3 H 0.5830 0.7953 0.4072
C4_3 C 0.5819(3) 0.7492(4) 0.4101(3)
C5_3 C 0.5930(3) 0.7203(3) 0.4017(3)
H3_3 H 0.5846 0.7016 0.4099
C6_3 C 0.5563(3) 0.7490(4) 0.4341(3)
C7_3 C 0.5253(3) 0.7459(4) 0.4251(3)
C8_3 C 0.6345(3) 0.6911(3) 0.3726(4)
C9_3 C 0.5660(3) 0.7461(3) 0.4651(3)
C10_3 C 0.5982(3) 0.7474(4) 0.5082(3)
H4_3 H 0.6156 0.7484 0.5218
C11_3 C 0.5653(3) 0.7471(3) 0.5170(3)
C12_3 C 0.5556(4) 0.7470(3) 0.5474(3)
C13_3 C 0.5255(3) 0.7476(4) 0.5565(3)
C14_3 C 0.5888(3) 0.7180(3) 0.5829(3)
H5_3 H 0.5797 0.6998 0.5744
C15_3 C 0.5159(2) 0.7469(3) 0.3922(3)
H6_3 H 0.5288 0.7440 0.3746
C16_3 C 0.5990(3) 0.7459(3) 0.4751(3)
H7_3 H 0.6168 0.7449 0.4622
C17_3 C 0.5807(2) 0.7468(4) 0.5713(3)
C18_3 C 0.5156(2) 0.7486(4) 0.5922(4)
H8_3 H 0.5289 0.7475 0.6098
C19_3 C 0.5930(3) 0.7735(3) 0.5838(3)
H9_3 H 0.5868 0.7933 0.5764
C20_3 C 0.6098(4) 0.7157(3) 0.6065(4)
C21_3 C 0.6239(3) 0.7420(3) 0.6188(3)
H10_3 H 0.6395 0.7403 0.6343
C22_3 C 0.6146(4) 0.7709(3) 0.6076(3)
C23_3 C 0.6145(3) 0.7760(3) 0.3766(3)
C24_3 C 0.6245(3) 0.8061(4) 0.3624(3)
C25_3 C 0.6270(4) 0.8000(4) 0.6226(4)
C26_3 C 0.6180(4) 0.6848(4) 0.6210(4)
N1_4 N 0.5000 0.7500 0.4439(3)
N2_3 N 0.5467(2) 0.7469(2) 0.4904(2)
N3_4 N 0.5000 0.7500 0.5379(3)
O1_3 O 0.6466(3) 0.8047(3) 0.3426(3)
O2_3 O 0.6471(4) 0.7964(4) 0.6425(4)
O3_3 O 0.6229(3) 0.6662(3) 0.3818(3)
O5_3 O 0.6111(3) 0.8297(3) 0.3715(3)
O6_3 O 0.6096(5) 0.6606(3) 0.6078(4)
O7_3 O 0.6582(3) 0.6932(3) 0.3556(3)
O8_3 O 0.6324(5) 0.6875(5) 0.6465(4)
O9_3 O 0.5867(5) 0.5867(5) 0.5867(5)
Zn6_5 Zn 0.49119(5) 0.5000 0.7500
Zn7_4 Zn 0.7500 0.49119(5) 0.5000
Zn8_3 Zn 0.32969(4) 0.67257(4) 0.31750(4)
Zn9_3 Zn 0.31750(4) 0.67031(4) 0.82743(4)
Zn10_3 Zn 0.31750(4) 0.32969(4) 0.67257(4)
Zn11_3 Zn 0.82743(4) 0.31750(4) 0.67031(4)
Zn12_3 Zn 0.67257(4) 0.31750(4) 0.32969(4)
Zn14_3 Zn 0.68250(4) 0.67031(4) 0.32743(4)
Zn16_3 Zn 0.32743(4) 0.68250(4) 0.67031(4)
Zn17_2 Zn 0.67031(4) 0.67257(4) 0.81750(4)
Zn19_3 Zn 0.67031(4) 0.32743(4) 0.68250(4)
Zn21_2 Zn 0.82969(4) 0.32743(4) 0.31750(4)
Zn23_3 Zn 0.37297(7) 0.63295(7) 0.62169(7)
Zn25_3 Zn 0.62169(7) 0.37297(7) 0.63295(7)
Zn26_2 Zn 0.87831(7) 0.37297(7) 0.36705(7)
Zn28_3 Zn 0.62169(7) 0.87297(7) 0.36705(7)
Zn29_3 Zn 0.37831(7) 0.62703(7) 0.36705(7)
Zn30_2 Zn 0.62169(7) 0.62703(7) 0.86705(7)
Zn31_3 Zn 0.36705(7) 0.62169(7) 0.87297(7)
Zn32_3 Zn 0.36705(7) 0.37831(7) 0.62703(7)
Zn34_3 Zn 0.87297(7) 0.36705(7) 0.62169(7)
Zn35_3 Zn 0.62703(7) 0.36705(7) 0.37831(7)
C27_3 C 0.3827(3) 0.7796(3) 0.3807(3)
C28_3 C 0.3807(3) 0.6173(3) 0.7204(3)
C29_3 C 0.3807(3) 0.3827(3) 0.7796(3)
C30_3 C 0.7204(3) 0.3807(3) 0.6173(3)
C31_3 C 0.7796(3) 0.3807(3) 0.3827(3)
C32_3 C 0.3734(3) 0.7513(3) 0.3688(3)
C33_3 C 0.3688(3) 0.6266(3) 0.7487(3)
C34_3 C 0.3688(3) 0.3734(3) 0.7513(3)
C35_3 C 0.7487(3) 0.3688(3) 0.6266(3)
C36_3 C 0.7513(3) 0.3688(3) 0.3734(3)
H11_3 H 0.3570 0.7513 0.3540
H12_3 H 0.3540 0.6430 0.7487
H13_3 H 0.3540 0.3570 0.7513
H14_3 H 0.7487 0.3540 0.6430
H15_3 H 0.7513 0.3540 0.3570
C37_3 C 0.4086(3) 0.7237(3) 0.3996(3)
C38_3 C 0.3996(3) 0.5914(3) 0.7763(3)
C39_3 C 0.3996(3) 0.4086(3) 0.7237(3)
C40_3 C 0.7763(3) 0.3996(3) 0.5914(3)
C41_3 C 0.7237(3) 0.3996(3) 0.4086(3)
H16_3 H 0.4170 0.7047 0.4072
H17_3 H 0.4072 0.5830 0.7953
H18_3 H 0.4072 0.4170 0.7047
H19_3 H 0.7953 0.4072 0.5830
H20_3 H 0.7047 0.4072 0.4170
C42_3 C 0.4181(3) 0.7508(4) 0.4101(3)
C43_3 C 0.4101(3) 0.5819(3) 0.7492(4)
C44_3 C 0.4101(3) 0.4181(3) 0.7508(4)
C45_3 C 0.7492(4) 0.4101(3) 0.5819(3)
C46_3 C 0.7508(4) 0.4101(3) 0.4181(3)
C47_3 C 0.4070(3) 0.7797(3) 0.4017(3)
C48_3 C 0.4017(3) 0.5930(3) 0.7203(3)
C49_3 C 0.4017(3) 0.4070(3) 0.7797(3)
C50_3 C 0.7203(3) 0.4017(3) 0.5930(3)
C51_3 C 0.7797(3) 0.4017(3) 0.4070(3)
H21_3 H 0.4154 0.7984 0.4099
H22_3 H 0.4099 0.5846 0.7016
H23_3 H 0.4099 0.4154 0.7984
H24_3 H 0.7016 0.4099 0.5846
H25_3 H 0.7984 0.4099 0.4154
C52_3 C 0.4437(3) 0.7510(4) 0.4341(3)
C53_3 C 0.4341(3) 0.5563(3) 0.7490(4)
C54_3 C 0.4341(3) 0.4437(3) 0.7510(4)
C55_3 C 0.7490(4) 0.4341(3) 0.5563(3)
C56_3 C 0.7510(4) 0.4341(3) 0.4437(3)
C57_3 C 0.4747(3) 0.7541(4) 0.4251(3)
C58_3 C 0.4251(3) 0.5253(3) 0.7459(4)
C59_3 C 0.4251(3) 0.4747(3) 0.7541(4)
C60_3 C 0.7459(4) 0.4251(3) 0.5253(3)
C61_3 C 0.7541(4) 0.4251(3) 0.4747(3)
C62_3 C 0.3655(3) 0.8089(3) 0.3726(4)
C63_3 C 0.3726(4) 0.6345(3) 0.6911(3)
C64_3 C 0.3726(4) 0.3655(3) 0.8089(3)
C65_3 C 0.6911(3) 0.3726(4) 0.6345(3)
C66_3 C 0.8089(3) 0.3726(4) 0.3655(3)
C67_3 C 0.4340(3) 0.7539(3) 0.4651(3)
C68_3 C 0.4651(3) 0.5660(3) 0.7461(3)
C69_3 C 0.4651(3) 0.4340(3) 0.7539(3)
C70_3 C 0.7461(3) 0.4651(3) 0.5660(3)
C71_3 C 0.7539(3) 0.4651(3) 0.4340(3)
C72_3 C 0.4018(3) 0.7526(4) 0.5082(3)
C73_3 C 0.5082(3) 0.5982(3) 0.7474(4)
C74_3 C 0.5082(3) 0.4018(3) 0.7526(4)
C75_3 C 0.7474(4) 0.5082(3) 0.5982(3)
C76_3 C 0.7526(4) 0.5082(3) 0.4018(3)
H26_3 H 0.3844 0.7516 0.5218
H27_3 H 0.5218 0.6156 0.7484
H28_3 H 0.5218 0.3844 0.7516
H29_3 H 0.7484 0.5218 0.6156
H30_3 H 0.7516 0.5218 0.3844
C77_3 C 0.4347(3) 0.7529(3) 0.5170(3)
C78_3 C 0.5170(3) 0.5653(3) 0.7471(3)
C79_3 C 0.5170(3) 0.4347(3) 0.7529(3)
C80_3 C 0.7471(3) 0.5170(3) 0.5653(3)
C81_3 C 0.7529(3) 0.5170(3) 0.4347(3)
C82_3 C 0.4444(4) 0.7530(3) 0.5474(3)
C83_3 C 0.5474(3) 0.5556(4) 0.7470(3)
C84_3 C 0.5474(3) 0.4444(4) 0.7530(3)
C85_3 C 0.7470(3) 0.5474(3) 0.5556(4)
C86_3 C 0.7530(3) 0.5474(3) 0.4444(4)
C87_3 C 0.4745(3) 0.7524(4) 0.5565(3)
C88_3 C 0.5565(3) 0.5255(3) 0.7476(4)
C89_3 C 0.5565(3) 0.4745(3) 0.7524(4)
C90_3 C 0.7476(4) 0.5565(3) 0.5255(3)
C91_3 C 0.7524(4) 0.5565(3) 0.4745(3)
C92_3 C 0.4112(3) 0.7820(3) 0.5829(3)
C93_3 C 0.5829(3) 0.5888(3) 0.7180(3)
C94_3 C 0.5829(3) 0.4112(3) 0.7820(3)
C95_3 C 0.7180(3) 0.5829(3) 0.5888(3)
C96_3 C 0.7820(3) 0.5829(3) 0.4112(3)
H31_3 H 0.4203 0.8002 0.5744
H32_3 H 0.5744 0.5797 0.6998
H33_3 H 0.5744 0.4203 0.8002
H34_3 H 0.6998 0.5744 0.5797
H35_3 H 0.8002 0.5744 0.4203
C97_3 C 0.4841(2) 0.7531(3) 0.3922(3)
C98_3 C 0.3922(3) 0.5159(2) 0.7469(3)
C99_3 C 0.3922(3) 0.4841(2) 0.7531(3)
C100_3 C 0.7469(3) 0.3922(3) 0.5159(2)
C101_3 C 0.7531(3) 0.3922(3) 0.4841(2)
H36_3 H 0.4712 0.7560 0.3746
H37_3 H 0.3746 0.5288 0.7440
H38_3 H 0.3746 0.4712 0.7560
H39_3 H 0.7440 0.3746 0.5288
H40_3 H 0.7560 0.3746 0.4712
C102_3 C 0.4010(3) 0.7541(3) 0.4751(3)
C103_3 C 0.4751(3) 0.5990(3) 0.7459(3)
C104_3 C 0.4751(3) 0.4010(3) 0.7541(3)
C105_3 C 0.7459(3) 0.4751(3) 0.5990(3)
C106_3 C 0.7541(3) 0.4751(3) 0.4010(3)
H41_3 H 0.3832 0.7551 0.4622
H42_3 H 0.4622 0.6168 0.7449
H43_3 H 0.4622 0.3832 0.7551
H44_3 H 0.7449 0.4622 0.6168
H45_3 H 0.7551 0.4622 0.3832
C107_3 C 0.4193(2) 0.7532(4) 0.5713(3)
C108_3 C 0.5713(3) 0.5807(2) 0.7468(4)
C109_3 C 0.5713(3) 0.4193(2) 0.7532(4)
C110_3 C 0.7468(4) 0.5713(3) 0.5807(2)
C111_3 C 0.7532(4) 0.5713(3) 0.4193(2)
C112_3 C 0.4844(2) 0.7514(4) 0.5922(4)
C113_3 C 0.5922(4) 0.5156(2) 0.7486(4)
C114_3 C 0.5922(4) 0.4844(2) 0.7514(4)
C115_3 C 0.7486(4) 0.5922(4) 0.5156(2)
C116_3 C 0.7514(4) 0.5922(4) 0.4844(2)
H46_3 H 0.4711 0.7525 0.6098
H47_3 H 0.6098 0.5289 0.7475
H48_3 H 0.6098 0.4711 0.7525
H49_3 H 0.7475 0.6098 0.5289
H50_3 H 0.7525 0.6098 0.4711
C117_3 C 0.4070(3) 0.7265(3) 0.5838(3)
C118_3 C 0.5838(3) 0.5930(3) 0.7735(3)
C119_3 C 0.5838(3) 0.4070(3) 0.7265(3)
C120_3 C 0.7735(3) 0.5838(3) 0.5930(3)
C121_3 C 0.7265(3) 0.5838(3) 0.4070(3)
H51_3 H 0.4132 0.7067 0.5764
H52_3 H 0.5764 0.5868 0.7933
H53_3 H 0.5764 0.4132 0.7067
H54_3 H 0.7933 0.5764 0.5868
H55_3 H 0.7067 0.5764 0.4132
C122_3 C 0.3902(4) 0.7843(3) 0.6065(4)
C123_3 C 0.6065(4) 0.6098(4) 0.7157(3)
C124_3 C 0.6065(4) 0.3902(4) 0.7843(3)
C125_3 C 0.7157(3) 0.6065(4) 0.6098(4)
C126_3 C 0.7843(3) 0.6065(4) 0.3902(4)
C127_3 C 0.3761(3) 0.7580(3) 0.6188(3)
C128_3 C 0.6188(3) 0.6239(3) 0.7420(3)
C129_3 C 0.6188(3) 0.3761(3) 0.7580(3)
C130_3 C 0.7420(3) 0.6188(3) 0.6239(3)
C131_3 C 0.7580(3) 0.6188(3) 0.3761(3)
H56_3 H 0.3605 0.7597 0.6343
H57_3 H 0.6343 0.6395 0.7403
H58_3 H 0.6343 0.3605 0.7597
H59_3 H 0.7403 0.6343 0.6395
H60_3 H 0.7597 0.6343 0.3605
C132_3 C 0.3854(4) 0.7291(3) 0.6076(3)
C133_3 C 0.6076(3) 0.6146(4) 0.7709(3)
C134_3 C 0.6076(3) 0.3854(4) 0.7291(3)
C135_3 C 0.7709(3) 0.6076(3) 0.6146(4)
C136_3 C 0.7291(3) 0.6076(3) 0.3854(4)
C137_3 C 0.3855(3) 0.7240(3) 0.3766(3)
C138_3 C 0.3766(3) 0.6145(3) 0.7760(3)
C139_3 C 0.3766(3) 0.3855(3) 0.7240(3)
C140_3 C 0.7760(3) 0.3766(3) 0.6145(3)
C141_3 C 0.7240(3) 0.3766(3) 0.3855(3)
C142_3 C 0.3755(3) 0.6939(4) 0.3624(3)
C143_3 C 0.3624(3) 0.6245(3) 0.8061(4)
C144_3 C 0.3624(3) 0.3755(3) 0.6939(4)
C145_3 C 0.8061(4) 0.3624(3) 0.6245(3)
C146_3 C 0.6939(4) 0.3624(3) 0.3755(3)
C147_3 C 0.3730(4) 0.7000(4) 0.6226(4)
C148_3 C 0.6226(4) 0.6270(4) 0.8000(4)
C149_3 C 0.6226(4) 0.3730(4) 0.7000(4)
C150_3 C 0.8000(4) 0.6226(4) 0.6270(4)
C151_3 C 0.7000(4) 0.6226(4) 0.3730(4)
C152_3 C 0.3820(4) 0.8152(4) 0.6210(4)
C153_3 C 0.6210(4) 0.6180(4) 0.6848(4)
C154_3 C 0.6210(4) 0.3820(4) 0.8152(4)
C155_3 C 0.6848(4) 0.6210(4) 0.6180(4)
C156_3 C 0.8152(4) 0.6210(4) 0.3820(4)
N4_5 N 0.4439(3) 0.5000 0.7500
N5_4 N 0.7500 0.4439(3) 0.5000
N6_3 N 0.4533(2) 0.7531(2) 0.4904(2)
N7_3 N 0.4904(2) 0.5467(2) 0.7469(2)
N8_3 N 0.4904(2) 0.4533(2) 0.7531(2)
N9_3 N 0.7469(2) 0.4904(2) 0.5467(2)
N10_3 N 0.7531(2) 0.4904(2) 0.4533(2)
N11_5 N 0.5379(3) 0.5000 0.7500
N12_4 N 0.7500 0.5379(3) 0.5000
O10_3 O 0.3534(3) 0.6953(3) 0.3426(3)
O11_3 O 0.3426(3) 0.6466(3) 0.8047(3)
O12_3 O 0.3426(3) 0.3534(3) 0.6953(3)
O13_3 O 0.8047(3) 0.3426(3) 0.6466(3)
O14_3 O 0.6953(3) 0.3426(3) 0.3534(3)
O15_3 O 0.3529(4) 0.7036(4) 0.6425(4)
O16_3 O 0.6425(4) 0.6471(4) 0.7964(4)
O17_3 O 0.6425(4) 0.3529(4) 0.7036(4)
O18_3 O 0.7964(4) 0.6425(4) 0.6471(4)
O19_3 O 0.7036(4) 0.6425(4) 0.3529(4)
O20_3 O 0.6425(4) 0.8529(4) 0.2964(4)
O21_3 O 0.3575(4) 0.6471(4) 0.2964(4)
O22_3 O 0.2964(4) 0.6425(4) 0.8529(4)
O23_3 O 0.2964(4) 0.3575(4) 0.6471(4)
O24_3 O 0.8529(4) 0.2964(4) 0.6425(4)
O25_3 O 0.6471(4) 0.2964(4) 0.3575(4)
O26_3 O 0.3771(3) 0.8338(3) 0.3818(3)
O27_3 O 0.3818(3) 0.6229(3) 0.6662(3)
O28_3 O 0.3818(3) 0.3771(3) 0.8338(3)
O29_3 O 0.6662(3) 0.3818(3) 0.6229(3)
O30_3 O 0.8338(3) 0.3818(3) 0.3771(3)
O31_3 O 0.3829(4) 0.6749(3) 0.6138(4)
O32_2 O 0.6138(4) 0.6171(4) 0.8251(3)
O33_3 O 0.6138(4) 0.3829(4) 0.6749(3)
O35_3 O 0.6749(3) 0.6138(4) 0.3829(4)
O38_2 O 0.8862(4) 0.3829(4) 0.3251(3)
O39_3 O 0.3889(3) 0.6703(3) 0.3715(3)
O40_3 O 0.3715(3) 0.6111(3) 0.8297(3)
O41_3 O 0.3715(3) 0.3889(3) 0.6703(3)
O42_3 O 0.8297(3) 0.3715(3) 0.6111(3)
O43_3 O 0.6703(3) 0.3715(3) 0.3889(3)
O44_3 O 0.6285(3) 0.6111(3) 0.3297(3)
O45_3 O 0.3715(3) 0.8889(3) 0.3297(3)
O46_3 O 0.3297(3) 0.6285(3) 0.6111(3)
O47_3 O 0.3297(3) 0.3715(3) 0.8889(3)
O48_3 O 0.6111(3) 0.3297(3) 0.6285(3)
O49_3 O 0.8889(3) 0.3297(3) 0.3715(3)
O50_3 O 0.3904(5) 0.8394(3) 0.6078(4)
O51_3 O 0.6078(4) 0.6096(5) 0.6606(3)
O53_3 O 0.6606(3) 0.6078(4) 0.6096(5)
O57_3 O 0.3418(3) 0.8068(3) 0.3556(3)
O58_3 O 0.3556(3) 0.6582(3) 0.6932(3)
O59_3 O 0.3556(3) 0.3418(3) 0.8068(3)
O60_3 O 0.6932(3) 0.3556(3) 0.6582(3)
O61_3 O 0.8068(3) 0.3556(3) 0.3418(3)
O62_3 O 0.6932(3) 0.8556(3) 0.3418(3)
O63_3 O 0.3068(3) 0.6444(3) 0.3418(3)
O64_3 O 0.3418(3) 0.6932(3) 0.8556(3)
O65_3 O 0.3418(3) 0.3068(3) 0.6444(3)
O66_3 O 0.8556(3) 0.3418(3) 0.6932(3)
O67_3 O 0.6444(3) 0.3418(3) 0.3068(3)
O68_3 O 0.3676(5) 0.8125(5) 0.6465(4)
O69_3 O 0.6465(4) 0.6324(5) 0.6875(5)
O71_3 O 0.6875(5) 0.6465(4) 0.6324(5)
O75_3 O 0.4133(5) 0.9133(5) 0.5867(5)
H61_3 H 0.555237 0.721695 0.547356
H62_3 H 0.555056 0.774252 0.435233
H65_3 H 0.725748 0.435233 0.444944
H66_3 H 0.444944 0.725748 0.435233
H67_3 H 0.435233 0.555056 0.774252
H68_3 H 0.435233 0.444944 0.725748
H69_3 H 0.774252 0.435233 0.555056
H70_3 H 0.721695 0.547356 0.555237
H71_3 H 0.444763 0.778305 0.547356
H72_3 H 0.547356 0.444763 0.778305
H73_3 H 0.547356 0.555237 0.721695
H74_3 H 0.778305 0.547356 0.444763
N3_5 N -0.0000 0.2500 0.0379(3)
Zn6_6 Zn 0.00881(5) 0.5000 0.2500
Zn9_4 Zn 0.18250(4) 0.32969(4) 0.32743(4)
Zn10_4 Zn 0.18250(4) 0.67031(4) 0.17257(4)
Zn16_4 Zn 0.17257(4) 0.31750(4) 0.17031(4)
Zn23_4 Zn 0.12703(7) 0.36705(7) 0.12169(7)
Zn31_4 Zn 0.13295(7) 0.37831(7) 0.37297(7)
Zn32_4 Zn 0.13295(7) 0.62169(7) 0.12703(7)
C28_4 C 0.1193(3) 0.3827(3) 0.2204(3)
C29_4 C 0.1193(3) 0.6173(3) 0.2796(3)
C33_4 C 0.1312(3) 0.3734(3) 0.2487(3)
C34_4 C 0.1312(3) 0.6266(3) 0.2513(3)
H12_4 H 0.1460 0.3570 0.2487
H13_4 H 0.1460 0.6430 0.2513
C38_4 C 0.1004(3) 0.4086(3) 0.2763(3)
C39_4 C 0.1004(3) 0.5914(3) 0.2237(3)
H17_4 H 0.0928 0.4170 0.2953
H18_4 H 0.0928 0.5830 0.2047
C43_4 C 0.0899(3) 0.4181(3) 0.2492(4)
C44_4 C 0.0899(3) 0.5819(3) 0.2508(4)
C48_4 C 0.0983(3) 0.4070(3) 0.2203(3)
C49_4 C 0.0983(3) 0.5930(3) 0.2797(3)
H22_4 H 0.0901 0.4154 0.2016
H23_4 H 0.0901 0.5846 0.2984
C53_4 C 0.0659(3) 0.4437(3) 0.2490(4)
C54_4 C 0.0659(3) 0.5563(3) 0.2510(4)
C58_4 C 0.0749(3) 0.4747(3) 0.2459(4)
C59_4 C 0.0749(3) 0.5253(3) 0.2541(4)
C63_4 C 0.1274(4) 0.3655(3) 0.1911(3)
C64_4 C 0.1274(4) 0.6345(3) 0.3089(3)
C68_4 C 0.0349(3) 0.4340(3) 0.2461(3)
C69_4 C 0.0349(3) 0.5660(3) 0.2539(3)
C72_4 C 0.0982(3) 0.2474(4) 0.0082(3)
H26_4 H 0.1156 0.2484 0.0218
C77_4 C 0.0653(3) 0.2471(3) 0.0170(3)
C82_4 C 0.0556(4) 0.2470(3) 0.0474(3)
C87_4 C 0.0255(3) 0.2476(4) 0.0565(3)
C92_4 C 0.0888(3) 0.2180(3) 0.0829(3)
H31_4 H 0.0797 0.1998 0.0744
C98_4 C 0.1078(3) 0.4841(2) 0.2469(3)
C99_4 C 0.1078(3) 0.5159(2) 0.2531(3)
H37_4 H 0.1254 0.4712 0.2440
H38_4 H 0.1254 0.5288 0.2560
C103_4 C 0.0249(3) 0.4010(3) 0.2459(3)
C104_4 C 0.0249(3) 0.5990(3) 0.2541(3)
H42_4 H 0.0378 0.3832 0.2449
H43_4 H 0.0378 0.6168 0.2551
C107_4 C 0.0807(2) 0.2468(4) 0.0713(3)
C112_4 C 0.0156(2) 0.2486(4) 0.0922(4)
H46_4 H 0.0289 0.2475 0.1098
C117_4 C 0.0930(3) 0.2735(3) 0.0838(3)
H51_4 H 0.0868 0.2933 0.0764
C122_4 C 0.1098(4) 0.2157(3) 0.1065(4)
C127_4 C 0.1239(3) 0.2420(3) 0.1188(3)
H56_4 H 0.1395 0.2403 0.1343
C132_4 C 0.1146(4) 0.2709(3) 0.1076(3)
C138_4 C 0.1234(3) 0.3855(3) 0.2760(3)
C139_4 C 0.1234(3) 0.6145(3) 0.2240(3)
C143_4 C 0.1376(3) 0.3755(3) 0.3061(4)
C144_4 C 0.1376(3) 0.6245(3) 0.1939(4)
C147_4 C 0.1270(4) 0.3000(4) 0.1226(4)
C152_4 C 0.1180(4) 0.1848(4) 0.1210(4)
N4_6 N 0.0561(3) 0.5000 0.2500
N7_4 N 0.0096(2) 0.4533(2) 0.2469(2)
N8_4 N 0.0096(2) 0.5467(2) 0.2531(2)
O11_4 O 0.1574(3) 0.3534(3) 0.3047(3)
O12_4 O 0.1574(3) 0.6466(3) 0.1953(3)
O15_4 O 0.1471(4) 0.2964(4) 0.1425(4)
O22_4 O 0.2036(4) 0.3575(4) 0.3529(4)
O23_4 O 0.2036(4) 0.6425(4) 0.1471(4)
O27_4 O 0.1182(3) 0.3771(3) 0.1662(3)
O28_4 O 0.1182(3) 0.6229(3) 0.3338(3)
O31_4 O 0.1171(4) 0.3251(3) 0.1138(4)
O40_4 O 0.1285(3) 0.3889(3) 0.3297(3)
O41_4 O 0.1285(3) 0.6111(3) 0.1703(3)
O46_4 O 0.1703(3) 0.3715(3) 0.1111(3)
O47_4 O 0.1703(3) 0.6285(3) 0.3889(3)
O50_4 O 0.1096(5) 0.1606(3) 0.1078(4)
O58_4 O 0.1444(3) 0.3418(3) 0.1932(3)
O59_4 O 0.1444(3) 0.6582(3) 0.3068(3)
O64_4 O 0.1582(3) 0.3068(3) 0.3556(3)
O65_4 O 0.1582(3) 0.6932(3) 0.1444(3)
O68_4 O 0.1324(5) 0.1875(5) 0.1465(4)
O75_4 O 0.0867(5) 0.0867(5) 0.0867(5)
H67_4 H 0.0647671 0.444944 0.274252
H68_4 H 0.0647671 0.555056 0.225748
H71_4 H 0.0552365 0.221695 0.0473558
Zn1_5 Zn 0.0000 0.2500 0.99119(5)
N1_5 N 0.0000 0.2500 0.9439(3)
Zn8_4 Zn 0.17031(4) 0.32743(4) 0.81750(4)
Zn29_4 Zn 0.12169(7) 0.37297(7) 0.86705(7)
C27_4 C 0.1173(3) 0.2204(3) 0.8807(3)
C32_4 C 0.1266(3) 0.2487(3) 0.8688(3)
H11_4 H 0.1430 0.2487 0.8540
C37_4 C 0.0914(3) 0.2763(3) 0.8996(3)
H16_4 H 0.0830 0.2953 0.9072
C42_4 C 0.0819(3) 0.2492(4) 0.9101(3)
C47_4 C 0.0930(3) 0.2203(3) 0.9017(3)
H21_4 H 0.0846 0.2016 0.9099
C52_4 C 0.0563(3) 0.2490(4) 0.9341(3)
C57_4 C 0.0253(3) 0.2459(4) 0.9251(3)
C62_4 C 0.1345(3) 0.1911(3) 0.8726(4)
C67_4 C 0.0660(3) 0.2461(3) 0.9651(3)
C97_4 C 0.0159(2) 0.2469(3) 0.8922(3)
H36_4 H 0.0288 0.2440 0.8746
C102_4 C 0.0990(3) 0.2459(3) 0.9751(3)
H41_4 H 0.1168 0.2449 0.9622
C137_4 C 0.1145(3) 0.2760(3) 0.8766(3)
C142_4 C 0.1245(3) 0.3061(4) 0.8624(3)
N6_4 N 0.0467(2) 0.2469(2) 0.9904(2)
O10_4 O 0.1466(3) 0.3047(3) 0.8426(3)
O21_4 O 0.1425(4) 0.3529(4) 0.7964(4)
O26_4 O 0.1229(3) 0.1662(3) 0.8818(3)
O39_4 O 0.1111(3) 0.3297(3) 0.8715(3)
O45_4 O 0.1285(3) 0.1111(3) 0.8297(3)
O57_4 O 0.1582(3) 0.1932(3) 0.8556(3)
O63_4 O 0.1932(3) 0.3556(3) 0.8418(3)
H66_4 H 0.0550556 0.274252 0.935233
Zn4_4 Zn 0.83307(5) 0.33307(5) 0.16693(5)
Zn5_4 Zn 0.88101(9) 0.38101(9) 0.11899(9)
C10_4 C 0.9018(3) 0.2526(4) 0.0082(3)
H4_4 H 0.8844 0.2516 0.0218
C11_4 C 0.9347(3) 0.2529(3) 0.0170(3)
C12_4 C 0.9444(4) 0.2530(3) 0.0474(3)
C13_4 C 0.9745(3) 0.2524(4) 0.0565(3)
C14_4 C 0.9112(3) 0.2820(3) 0.0829(3)
H5_4 H 0.9203 0.3002 0.0744
C17_4 C 0.9193(2) 0.2532(4) 0.0713(3)
C18_4 C 0.9844(2) 0.2514(4) 0.0922(4)
H8_4 H 0.9711 0.2525 0.1098
C19_4 C 0.9070(3) 0.2265(3) 0.0838(3)
H9_4 H 0.9132 0.2067 0.0764
C20_4 C 0.8902(4) 0.2843(3) 0.1065(4)
C21_4 C 0.8761(3) 0.2580(3) 0.1188(3)
H10_4 H 0.8605 0.2597 0.1343
C22_4 C 0.8854(4) 0.2291(3) 0.1076(3)
C25_4 C 0.8730(4) 0.2000(4) 0.1226(4)
C26_4 C 0.8820(4) 0.3152(4) 0.1210(4)
N3_6 N 1.0000 0.2500 0.0379(3)
O2_4 O 0.8529(4) 0.2036(4) 0.1425(4)
O6_4 O 0.8904(5) 0.3394(3) 0.1078(4)
O8_4 O 0.8676(5) 0.3125(5) 0.1465(4)
O9_4 O 0.9133(5) 0.4133(5) 0.0867(5)
Zn7_5 Zn 0.7500 0.50881(5) 0.0000
Zn11_4 Zn 0.67257(4) 0.68250(4) 0.17031(4)
Zn19_4 Zn 0.82969(4) 0.67257(4) 0.18250(4)
Zn25_4 Zn 0.87831(7) 0.62703(7) 0.13295(7)
Zn34_4 Zn 0.62703(7) 0.63295(7) 0.12169(7)
C30_4 C 0.7796(3) 0.6193(3) 0.1173(3)
C35_4 C 0.7513(3) 0.6312(3) 0.1266(3)
H14_4 H 0.7513 0.6460 0.1430
C40_4 C 0.7237(3) 0.6004(3) 0.0914(3)
H19_4 H 0.7047 0.5928 0.0830
C45_4 C 0.7508(4) 0.5899(3) 0.0819(3)
C50_4 C 0.7797(3) 0.5983(3) 0.0930(3)
H24_4 H 0.7984 0.5901 0.0846
C55_4 C 0.7510(4) 0.5659(3) 0.0563(3)
C60_4 C 0.7541(4) 0.5749(3) 0.0253(3)
C65_4 C 0.8089(3) 0.6274(4) 0.1345(3)
C70_4 C 0.7539(3) 0.5349(3) 0.0660(3)
C73_4 C 0.9918(3) 0.4018(3) 0.2474(4)
C74_4 C 0.9918(3) 0.5982(3) 0.2526(4)
C75_4 C 0.7526(4) 0.4918(3) 0.0982(3)
H27_4 H 0.9782 0.3844 0.2484
H28_4 H 0.9782 0.6156 0.2516
H29_4 H 0.7516 0.4782 0.1156
C78_4 C 0.9830(3) 0.4347(3) 0.2471(3)
C79_4 C 0.9830(3) 0.5653(3) 0.2529(3)
C80_4 C 0.7529(3) 0.4830(3) 0.0653(3)
C83_4 C 0.9526(3) 0.4444(4) 0.2470(3)
C84_4 C 0.9526(3) 0.5556(4) 0.2530(3)
C85_4 C 0.7530(3) 0.4526(3) 0.0556(4)
C88_4 C 0.9435(3) 0.4745(3) 0.2476(4)
C89_4 C 0.9435(3) 0.5255(3) 0.2524(4)
C90_4 C 0.7524(4) 0.4435(3) 0.0255(3)
C93_4 C 0.9171(3) 0.4112(3) 0.2180(3)
C94_4 C 0.9171(3) 0.5888(3) 0.2820(3)
C95_4 C 0.7820(3) 0.4171(3) 0.0888(3)
H32_4 H 0.9256 0.4203 0.1998
H33_4 H 0.9256 0.5797 0.3002
H34_4 H 0.8002 0.4256 0.0797
C100_4 C 0.7531(3) 0.6078(3) 0.0159(2)
H39_4 H 0.7560 0.6254 0.0288
C105_4 C 0.7541(3) 0.5249(3) 0.0990(3)
H44_4 H 0.7551 0.5378 0.1168
C108_4 C 0.9287(3) 0.4193(2) 0.2468(4)
C109_4 C 0.9287(3) 0.5807(2) 0.2532(4)
C110_4 C 0.7532(4) 0.4287(3) 0.0807(2)
C113_4 C 0.9078(4) 0.4844(2) 0.2486(4)
C114_4 C 0.9078(4) 0.5156(2) 0.2514(4)
C115_4 C 0.7514(4) 0.4078(4) 0.0156(2)
H47_4 H 0.8902 0.4711 0.2475
H48_4 H 0.8902 0.5289 0.2525
H49_4 H 0.7525 0.3902 0.0289
C118_4 C 0.9162(3) 0.4070(3) 0.2735(3)
C119_4 C 0.9162(3) 0.5930(3) 0.2265(3)
C120_4 C 0.7265(3) 0.4162(3) 0.0930(3)
H52_4 H 0.9236 0.4132 0.2933
H53_4 H 0.9236 0.5868 0.2067
H54_4 H 0.7067 0.4236 0.0868
C123_4 C 0.8935(4) 0.3902(4) 0.2157(3)
C124_4 C 0.8935(4) 0.6098(4) 0.2843(3)
C125_4 C 0.7843(3) 0.3935(4) 0.1098(4)
C128_4 C 0.8812(3) 0.3761(3) 0.2420(3)
C129_4 C 0.8812(3) 0.6239(3) 0.2580(3)
C130_4 C 0.7580(3) 0.3812(3) 0.1239(3)
H57_4 H 0.8657 0.3605 0.2403
H58_4 H 0.8657 0.6395 0.2597
H59_4 H 0.7597 0.3657 0.1395
C133_4 C 0.8924(3) 0.3854(4) 0.2709(3)
C134_4 C 0.8924(3) 0.6146(4) 0.2291(3)
C135_4 C 0.7291(3) 0.3924(3) 0.1146(4)
C140_4 C 0.7240(3) 0.6234(3) 0.1145(3)
C145_4 C 0.6939(4) 0.6376(3) 0.1245(3)
C148_4 C 0.8774(4) 0.3730(4) 0.3000(4)
C149_4 C 0.8774(4) 0.6270(4) 0.2000(4)
C150_4 C 0.7000(4) 0.3774(4) 0.1270(4)
C153_4 C 0.8790(4) 0.3820(4) 0.1848(4)
C154_4 C 0.8790(4) 0.6180(4) 0.3152(4)
C155_4 C 0.8152(4) 0.3790(4) 0.1180(4)
N5_5 N 0.7500 0.5561(3) 0.0000
N9_4 N 0.7531(2) 0.5096(2) 0.0467(2)
N11_6 N 0.9621(3) 0.5000 0.2500
N12_5 N 0.7500 0.4621(3) 0.0000
O13_4 O 0.6953(3) 0.6574(3) 0.1466(3)
O16_4 O 0.8575(4) 0.3529(4) 0.2964(4)
O17_4 O 0.8575(4) 0.6471(4) 0.2036(4)
O18_4 O 0.7036(4) 0.3575(4) 0.1471(4)
O24_4 O 0.6471(4) 0.7036(4) 0.1425(4)
O29_4 O 0.8338(3) 0.6182(3) 0.1229(3)
O33_4 O 0.8862(4) 0.6171(4) 0.1749(3)
O42_4 O 0.6703(3) 0.6285(3) 0.1111(3)
O48_4 O 0.8889(3) 0.6703(3) 0.1285(3)
O51_4 O 0.8922(4) 0.3904(5) 0.1606(3)
O53_4 O 0.8394(3) 0.3922(4) 0.1096(5)
O60_4 O 0.8068(3) 0.6444(3) 0.1582(3)
O66_4 O 0.6444(3) 0.6582(3) 0.1932(3)
O69_4 O 0.8535(4) 0.3676(5) 0.1875(5)
O71_4 O 0.8125(5) 0.3535(4) 0.1324(5)
H61_4 H 0.944763 0.278305 0.0473558
H69_4 H 0.725748 0.564767 0.0550556
H70_4 H 0.778305 0.452644 0.0552365
H72_4 H 0.952644 0.555237 0.278305
H73_4 H 0.952644 0.444763 0.221695
Zn1_6 Zn 1.0000 0.2500 0.99119(5)
Zn2_4 Zn 0.82969(4) 0.17257(4) 0.81750(4)
Zn3_4 Zn 0.86705(7) 0.37831(7) 0.87297(7)
C1_4 C 0.8827(3) 0.2796(3) 0.8807(3)
C2_4 C 0.8734(3) 0.2513(3) 0.8688(3)
H1_4 H 0.8570 0.2513 0.8540
C3_4 C 0.9086(3) 0.2237(3) 0.8996(3)
H2_4 H 0.9170 0.2047 0.9072
C4_4 C 0.9181(3) 0.2508(4) 0.9101(3)
C5_4 C 0.9070(3) 0.2797(3) 0.9017(3)
H3_4 H 0.9154 0.2984 0.9099
C6_4 C 0.9437(3) 0.2510(4) 0.9341(3)
C7_4 C 0.9747(3) 0.2541(4) 0.9251(3)
C8_4 C 0.8655(3) 0.3089(3) 0.8726(4)
C9_4 C 0.9340(3) 0.2539(3) 0.9651(3)
C15_4 C 0.9841(2) 0.2531(3) 0.8922(3)
H6_4 H 0.9712 0.2560 0.8746
C16_4 C 0.9010(3) 0.2541(3) 0.9751(3)
H7_4 H 0.8832 0.2551 0.9622
C23_4 C 0.8855(3) 0.2240(3) 0.8766(3)
C24_4 C 0.8755(3) 0.1939(4) 0.8624(3)
N1_6 N 1.0000 0.2500 0.9439(3)
N2_4 N 0.9533(2) 0.2531(2) 0.9904(2)
O1_4 O 0.8534(3) 0.1953(3) 0.8426(3)
O3_4 O 0.8771(3) 0.3338(3) 0.8818(3)
O5_4 O 0.8889(3) 0.1703(3) 0.8715(3)
O7_4 O 0.8418(3) 0.3068(3) 0.8556(3)
Zn7_6 Zn 0.7500 0.50881(5) 1.0000
Zn12_4 Zn 0.82743(4) 0.68250(4) 0.82969(4)
Zn14_4 Zn 0.81750(4) 0.32969(4) 0.82743(4)
Zn28_4 Zn 0.87831(7) 0.12703(7) 0.86705(7)
Zn35_4 Zn 0.87297(7) 0.63295(7) 0.87831(7)
C31_4 C 0.7204(3) 0.6193(3) 0.8827(3)
C36_4 C 0.7487(3) 0.6312(3) 0.8734(3)
H15_4 H 0.7487 0.6460 0.8570
C41_4 C 0.7763(3) 0.6004(3) 0.9086(3)
H20_4 H 0.7953 0.5928 0.9170
C46_4 C 0.7492(4) 0.5899(3) 0.9181(3)
C51_4 C 0.7203(3) 0.5983(3) 0.9070(3)
H25_4 H 0.7016 0.5901 0.9154
C56_4 C 0.7490(4) 0.5659(3) 0.9437(3)
C61_4 C 0.7459(4) 0.5749(3) 0.9747(3)
C66_4 C 0.6911(3) 0.6274(4) 0.8655(3)
C71_4 C 0.7461(3) 0.5349(3) 0.9340(3)
C76_4 C 0.7474(4) 0.4918(3) 0.9018(3)
H30_4 H 0.7484 0.4782 0.8844
C81_4 C 0.7471(3) 0.4830(3) 0.9347(3)
C86_4 C 0.7470(3) 0.4526(3) 0.9444(4)
C91_4 C 0.7476(4) 0.4435(3) 0.9745(3)
C96_4 C 0.7180(3) 0.4171(3) 0.9112(3)
H35_4 H 0.6998 0.4256 0.9203
C101_4 C 0.7469(3) 0.6078(3) 0.9841(2)
H40_4 H 0.7440 0.6254 0.9712
C106_4 C 0.7459(3) 0.5249(3) 0.9010(3)
H45_4 H 0.7449 0.5378 0.8832
C111_4 C 0.7468(4) 0.4287(3) 0.9193(2)
C116_4 C 0.7486(4) 0.4078(4) 0.9844(2)
H50_4 H 0.7475 0.3902 0.9711
C121_4 C 0.7735(3) 0.4162(3) 0.9070(3)
H55_4 H 0.7933 0.4236 0.9132
C126_4 C 0.7157(3) 0.3935(4) 0.8902(4)
C131_4 C 0.7420(3) 0.3812(3) 0.8761(3)
H60_4 H 0.7403 0.3657 0.8605
C136_4 C 0.7709(3) 0.3924(3) 0.8854(4)
C141_4 C 0.7760(3) 0.6234(3) 0.8855(3)
C146_4 C 0.8061(4) 0.6376(3) 0.8755(3)
C151_4 C 0.8000(4) 0.3774(4) 0.8730(4)
C156_4 C 0.6848(4) 0.3790(4) 0.8820(4)
N5_6 N 0.7500 0.5561(3) 1.0000
N10_4 N 0.7469(2) 0.5096(2) 0.9533(2)
N12_6 N 0.7500 0.4621(3) 1.0000
O14_4 O 0.8047(3) 0.6574(3) 0.8534(3)
O19_4 O 0.7964(4) 0.3575(4) 0.8529(4)
O20_4 O 0.8575(4) 0.1471(4) 0.7964(4)
O25_4 O 0.8529(4) 0.7036(4) 0.8575(4)
O30_4 O 0.6662(3) 0.6182(3) 0.8771(3)
O35_4 O 0.8251(3) 0.3862(4) 0.8829(4)
O43_4 O 0.8297(3) 0.6285(3) 0.8889(3)
O44_4 O 0.8715(3) 0.3889(3) 0.8297(3)
O49_4 O 0.6111(3) 0.6703(3) 0.8715(3)
O61_4 O 0.6932(3) 0.6444(3) 0.8418(3)
O62_4 O 0.8068(3) 0.1444(3) 0.8418(3)
O67_4 O 0.8556(3) 0.6582(3) 0.8068(3)
H62_4 H 0.944944 0.225748 0.935233
H65_4 H 0.774252 0.564767 0.944944
H74_4 H 0.721695 0.452644 0.944763
Zn6_7 Zn 0.49119(5) -0.0000 0.2500
Zn7_7 Zn 0.7500 0.00881(5) 0.0000
Zn37_2 Zn 0.66693(5) 0.16693(5) 0.33307(5)
Zn40_2 Zn 0.61899(9) 0.11899(9) 0.38101(9)
C29_5 C 0.3807(3) 0.1173(3) 0.2796(3)
C30_5 C 0.7204(3) 0.1193(3) 0.1173(3)
C34_5 C 0.3688(3) 0.1266(3) 0.2513(3)
C35_5 C 0.7487(3) 0.1312(3) 0.1266(3)
H13_5 H 0.3540 0.1430 0.2513
H14_5 H 0.7487 0.1460 0.1430
C39_5 C 0.3996(3) 0.0914(3) 0.2237(3)
C40_5 C 0.7763(3) 0.1004(3) 0.0914(3)
H18_5 H 0.4072 0.0830 0.2047
H19_5 H 0.7953 0.0928 0.0830
C44_5 C 0.4101(3) 0.0819(3) 0.2508(4)
C45_5 C 0.7492(4) 0.0899(3) 0.0819(3)
C49_5 C 0.4017(3) 0.0930(3) 0.2797(3)
C50_5 C 0.7203(3) 0.0983(3) 0.0930(3)
H23_5 H 0.4099 0.0846 0.2984
H24_5 H 0.7016 0.0901 0.0846
C54_5 C 0.4341(3) 0.0563(3) 0.2510(4)
C55_5 C 0.7490(4) 0.0659(3) 0.0563(3)
C59_5 C 0.4251(3) 0.0253(3) 0.2541(4)
C60_5 C 0.7459(4) 0.0749(3) 0.0253(3)
C64_5 C 0.3726(4) 0.1345(3) 0.3089(3)
C65_5 C 0.6911(3) 0.1274(4) 0.1345(3)
C69_5 C 0.4651(3) 0.0660(3) 0.2539(3)
C70_5 C 0.7461(3) 0.0349(3) 0.0660(3)
C74_5 C 0.5082(3) 0.0982(3) 0.2526(4)
H28_5 H 0.5218 0.1156 0.2516
C79_5 C 0.5170(3) 0.0653(3) 0.2529(3)
C84_5 C 0.5474(3) 0.0556(4) 0.2530(3)
C89_5 C 0.5565(3) 0.0255(3) 0.2524(4)
C94_5 C 0.5829(3) 0.0888(3) 0.2820(3)
H33_5 H 0.5744 0.0797 0.3002
C99_5 C 0.3922(3) 0.0159(2) 0.2531(3)
C100_5 C 0.7469(3) 0.1078(3) 0.0159(2)
H38_5 H 0.3746 0.0288 0.2560
H39_5 H 0.7440 0.1254 0.0288
C104_5 C 0.4751(3) 0.0990(3) 0.2541(3)
C105_5 C 0.7459(3) 0.0249(3) 0.0990(3)
H43_5 H 0.4622 0.1168 0.2551
H44_5 H 0.7449 0.0378 0.1168
C109_5 C 0.5713(3) 0.0807(2) 0.2532(4)
C114_5 C 0.5922(4) 0.0156(2) 0.2514(4)
H48_5 H 0.6098 0.0289 0.2525
C119_5 C 0.5838(3) 0.0930(3) 0.2265(3)
H53_5 H 0.5764 0.0868 0.2067
C124_5 C 0.6065(4) 0.1098(4) 0.2843(3)
C129_5 C 0.6188(3) 0.1239(3) 0.2580(3)
H58_5 H 0.6343 0.1395 0.2597
C134_5 C 0.6076(3) 0.1146(4) 0.2291(3)
C139_5 C 0.3766(3) 0.1145(3) 0.2240(3)
C140_5 C 0.7760(3) 0.1234(3) 0.1145(3)
C144_5 C 0.3624(3) 0.1245(3) 0.1939(4)
C145_5 C 0.8061(4) 0.1376(3) 0.1245(3)
C149_5 C 0.6226(4) 0.1270(4) 0.2000(4)
C154_5 C 0.6210(4) 0.1180(4) 0.3152(4)
N4_7 N 0.4439(3) -0.0000 0.2500
N5_7 N 0.7500 0.0561(3) 0.0000
N8_5 N 0.4904(2) 0.0467(2) 0.2531(2)
N9_5 N 0.7469(2) 0.0096(2) 0.0467(2)
N11_7 N 0.5379(3) -0.0000 0.2500
O12_5 O 0.3426(3) 0.1466(3) 0.1953(3)
O13_5 O 0.8047(3) 0.1574(3) 0.1466(3)
O28_5 O 0.3818(3) 0.1229(3) 0.3338(3)
O29_5 O 0.6662(3) 0.1182(3) 0.1229(3)
O33_5 O 0.6138(4) 0.1171(4) 0.1749(3)
O37_3 O 0.3829(4) 0.1749(3) 0.3862(4)
O52_3 O 0.6078(4) 0.1096(5) 0.3394(3)
O70_3 O 0.6465(4) 0.1324(5) 0.3125(5)
H68_5 H 0.435233 0.0550556 0.225748
H69_5 H 0.774252 0.0647671 0.0550556
H72_5 H 0.547356 0.0552365 0.278305
Zn7_8 Zn 0.7500 0.00881(5) 1.0000
C31_5 C 0.7796(3) 0.1193(3) 0.8827(3)
C36_5 C 0.7513(3) 0.1312(3) 0.8734(3)
H15_5 H 0.7513 0.1460 0.8570
C41_5 C 0.7237(3) 0.1004(3) 0.9086(3)
H20_5 H 0.7047 0.0928 0.9170
C46_5 C 0.7508(4) 0.0899(3) 0.9181(3)
C51_5 C 0.7797(3) 0.0983(3) 0.9070(3)
H25_5 H 0.7984 0.0901 0.9154
C56_5 C 0.7510(4) 0.0659(3) 0.9437(3)
C61_5 C 0.7541(4) 0.0749(3) 0.9747(3)
C66_5 C 0.8089(3) 0.1274(4) 0.8655(3)
C71_5 C 0.7539(3) 0.0349(3) 0.9340(3)
C101_5 C 0.7531(3) 0.1078(3) 0.9841(2)
H40_5 H 0.7560 0.1254 0.9712
C106_5 C 0.7541(3) 0.0249(3) 0.9010(3)
H45_5 H 0.7551 0.0378 0.8832
C141_5 C 0.7240(3) 0.1234(3) 0.8855(3)
C146_5 C 0.6939(4) 0.1376(3) 0.8755(3)
N5_8 N 0.7500 0.0561(3) 1.0000
N10_5 N 0.7531(2) 0.0096(2) 0.9533(2)
O14_5 O 0.6953(3) 0.1574(3) 0.8534(3)
O30_5 O 0.8338(3) 0.1182(3) 0.8771(3)
O38_3 O 0.8862(4) 0.1171(4) 0.8251(3)
H65_5 H 0.725748 0.0647671 0.944944
Zn4_5 Zn 0.66693(5) 0.83307(5) 0.16693(5)
Zn5_5 Zn 0.61899(9) 0.88101(9) 0.11899(9)
C10_5 C 0.5982(3) 0.7526(4) 0.0082(3)
H4_5 H 0.6156 0.7516 0.0218
C11_5 C 0.5653(3) 0.7529(3) 0.0170(3)
C12_5 C 0.5556(4) 0.7530(3) 0.0474(3)
C13_5 C 0.5255(3) 0.7524(4) 0.0565(3)
C14_5 C 0.5888(3) 0.7820(3) 0.0829(3)
H5_5 H 0.5797 0.8002 0.0744
C17_5 C 0.5807(2) 0.7532(4) 0.0713(3)
C18_5 C 0.5156(2) 0.7514(4) 0.0922(4)
H8_5 H 0.5289 0.7525 0.1098
C19_5 C 0.5930(3) 0.7265(3) 0.0838(3)
H9_5 H 0.5868 0.7067 0.0764
C20_5 C 0.6098(4) 0.7843(3) 0.1065(4)
C21_5 C 0.6239(3) 0.7580(3) 0.1188(3)
H10_5 H 0.6395 0.7597 0.1343
C22_5 C 0.6146(4) 0.7291(3) 0.1076(3)
C25_5 C 0.6270(4) 0.7000(4) 0.1226(4)
C26_5 C 0.6180(4) 0.8152(4) 0.1210(4)
N3_7 N 0.5000 0.7500 0.0379(3)
O4_3 O 0.6171(4) 0.6749(3) 0.1138(4)
O6_5 O 0.6096(5) 0.8394(3) 0.1078(4)
O8_5 O 0.6324(5) 0.8125(5) 0.1465(4)
O9_5 O 0.5867(5) 0.9133(5) 0.0867(5)
Zn6_8 Zn 0.49119(5) 1.0000 0.2500
Zn36_3 Zn 0.33307(5) 0.66693(5) 0.16693(5)
Zn39_3 Zn 0.38101(9) 0.61899(9) 0.11899(9)
C28_5 C 0.3807(3) 0.8827(3) 0.2204(3)
C33_5 C 0.3688(3) 0.8734(3) 0.2487(3)
H12_5 H 0.3540 0.8570 0.2487
C38_5 C 0.3996(3) 0.9086(3) 0.2763(3)
H17_5 H 0.4072 0.9170 0.2953
C43_5 C 0.4101(3) 0.9181(3) 0.2492(4)
C48_5 C 0.4017(3) 0.9070(3) 0.2203(3)
H22_5 H 0.4099 0.9154 0.2016
C53_5 C 0.4341(3) 0.9437(3) 0.2490(4)
C58_5 C 0.4251(3) 0.9747(3) 0.2459(4)
C63_5 C 0.3726(4) 0.8655(3) 0.1911(3)
C68_5 C 0.4651(3) 0.9340(3) 0.2461(3)
C72_5 C 0.4018(3) 0.7474(4) 0.0082(3)
C73_5 C 0.5082(3) 0.9018(3) 0.2474(4)
C75_5 C 0.7474(4) 0.9918(3) 0.0982(3)
H26_5 H 0.3844 0.7484 0.0218
H27_5 H 0.5218 0.8844 0.2484
H29_5 H 0.7484 0.9782 0.1156
C77_5 C 0.4347(3) 0.7471(3) 0.0170(3)
C78_5 C 0.5170(3) 0.9347(3) 0.2471(3)
C80_5 C 0.7471(3) 0.9830(3) 0.0653(3)
C82_5 C 0.4444(4) 0.7470(3) 0.0474(3)
C83_5 C 0.5474(3) 0.9444(4) 0.2470(3)
C85_5 C 0.7470(3) 0.9526(3) 0.0556(4)
C87_5 C 0.4745(3) 0.7476(4) 0.0565(3)
C88_5 C 0.5565(3) 0.9745(3) 0.2476(4)
C90_5 C 0.7476(4) 0.9435(3) 0.0255(3)
C92_5 C 0.4112(3) 0.7180(3) 0.0829(3)
C93_5 C 0.5829(3) 0.9112(3) 0.2180(3)
C95_5 C 0.7180(3) 0.9171(3) 0.0888(3)
H31_5 H 0.4203 0.6998 0.0744
H32_5 H 0.5744 0.9203 0.1998
H34_5 H 0.6998 0.9256 0.0797
C98_5 C 0.3922(3) 0.9841(2) 0.2469(3)
H37_5 H 0.3746 0.9712 0.2440
C103_5 C 0.4751(3) 0.9010(3) 0.2459(3)
H42_5 H 0.4622 0.8832 0.2449
C107_5 C 0.4193(2) 0.7468(4) 0.0713(3)
C108_5 C 0.5713(3) 0.9193(2) 0.2468(4)
C110_5 C 0.7468(4) 0.9287(3) 0.0807(2)
C112_5 C 0.4844(2) 0.7486(4) 0.0922(4)
C113_5 C 0.5922(4) 0.9844(2) 0.2486(4)
C115_5 C 0.7486(4) 0.9078(4) 0.0156(2)
H46_5 H 0.4711 0.7475 0.1098
H47_5 H 0.6098 0.9711 0.2475
H49_5 H 0.7475 0.8902 0.0289
C117_5 C 0.4070(3) 0.7735(3) 0.0838(3)
C118_5 C 0.5838(3) 0.9070(3) 0.2735(3)
C120_5 C 0.7735(3) 0.9162(3) 0.0930(3)
H51_5 H 0.4132 0.7933 0.0764
H52_5 H 0.5764 0.9132 0.2933
H54_5 H 0.7933 0.9236 0.0868
C122_5 C 0.3902(4) 0.7157(3) 0.1065(4)
C123_5 C 0.6065(4) 0.8902(4) 0.2157(3)
C125_5 C 0.7157(3) 0.8935(4) 0.1098(4)
C127_5 C 0.3761(3) 0.7420(3) 0.1188(3)
C128_5 C 0.6188(3) 0.8761(3) 0.2420(3)
C130_5 C 0.7420(3) 0.8812(3) 0.1239(3)
H56_5 H 0.3605 0.7403 0.1343
H57_5 H 0.6343 0.8605 0.2403
H59_5 H 0.7403 0.8657 0.1395
C132_5 C 0.3854(4) 0.7709(3) 0.1076(3)
C133_5 C 0.6076(3) 0.8854(4) 0.2709(3)
C135_5 C 0.7709(3) 0.8924(3) 0.1146(4)
C138_5 C 0.3766(3) 0.8855(3) 0.2760(3)
C143_5 C 0.3624(3) 0.8755(3) 0.3061(4)
C147_5 C 0.3730(4) 0.8000(4) 0.1226(4)
C148_5 C 0.6226(4) 0.8730(4) 0.3000(4)
C150_5 C 0.8000(4) 0.8774(4) 0.1270(4)
C152_5 C 0.3820(4) 0.6848(4) 0.1210(4)
C153_5 C 0.6210(4) 0.8820(4) 0.1848(4)
C155_5 C 0.6848(4) 0.8790(4) 0.1180(4)
N4_8 N 0.4439(3) 1.0000 0.2500
N7_5 N 0.4904(2) 0.9533(2) 0.2469(2)
N11_8 N 0.5379(3) 1.0000 0.2500
N12_7 N 0.7500 0.9621(3) 0.0000
O11_5 O 0.3426(3) 0.8534(3) 0.3047(3)
O27_5 O 0.3818(3) 0.8771(3) 0.1662(3)
O31_5 O 0.3829(4) 0.8251(3) 0.1138(4)
O32_3 O 0.6138(4) 0.8829(4) 0.3251(3)
O34_3 O 0.8251(3) 0.8862(4) 0.1171(4)
O50_5 O 0.3904(5) 0.6606(3) 0.1078(4)
O51_5 O 0.6078(4) 0.8904(5) 0.1606(3)
O53_5 O 0.6606(3) 0.8922(4) 0.1096(5)
O55_3 O 0.3922(4) 0.6096(5) 0.1606(3)
O56_3 O 0.3394(3) 0.6078(4) 0.1096(5)
O68_5 O 0.3676(5) 0.6875(5) 0.1465(4)
O69_5 O 0.6465(4) 0.8676(5) 0.1875(5)
O71_5 O 0.6875(5) 0.8535(4) 0.1324(5)
O73_3 O 0.3535(4) 0.6324(5) 0.1875(5)
O74_3 O 0.3125(5) 0.6465(4) 0.1324(5)
O75_5 O 0.4133(5) 0.5867(5) 0.0867(5)
H61_5 H 0.555237 0.778305 0.0473558
H67_5 H 0.435233 0.944944 0.274252
H70_5 H 0.721695 0.952644 0.0552365
H71_5 H 0.444763 0.721695 0.0473558
H73_5 H 0.547356 0.944763 0.221695
Zn1_7 Zn 0.5000 0.7500 0.99119(5)
C1_5 C 0.6173(3) 0.7796(3) 0.8807(3)
C2_5 C 0.6266(3) 0.7513(3) 0.8688(3)
H1_5 H 0.6430 0.7513 0.8540
C3_5 C 0.5914(3) 0.7237(3) 0.8996(3)
H2_5 H 0.5830 0.7047 0.9072
C4_5 C 0.5819(3) 0.7508(4) 0.9101(3)
C5_5 C 0.5930(3) 0.7797(3) 0.9017(3)
H3_5 H 0.5846 0.7984 0.9099
C6_5 C 0.5563(3) 0.7510(4) 0.9341(3)
C7_5 C 0.5253(3) 0.7541(4) 0.9251(3)
C8_5 C 0.6345(3) 0.8089(3) 0.8726(4)
C9_5 C 0.5660(3) 0.7539(3) 0.9651(3)
C15_5 C 0.5159(2) 0.7531(3) 0.8922(3)
H6_5 H 0.5288 0.7560 0.8746
C16_5 C 0.5990(3) 0.7541(3) 0.9751(3)
H7_5 H 0.6168 0.7551 0.9622
C23_5 C 0.6145(3) 0.7240(3) 0.8766(3)
C24_5 C 0.6245(3) 0.6939(4) 0.8624(3)
N1_7 N 0.5000 0.7500 0.9439(3)
N2_5 N 0.5467(2) 0.7531(2) 0.9904(2)
O1_5 O 0.6466(3) 0.6953(3) 0.8426(3)
O3_5 O 0.6229(3) 0.8338(3) 0.8818(3)
Zn38_2 Zn 0.83307(5) 0.83307(5) 0.83307(5)
Zn41_2 Zn 0.88101(9) 0.88101(9) 0.88101(9)
C27_5 C 0.3827(3) 0.7204(3) 0.8807(3)
C32_5 C 0.3734(3) 0.7487(3) 0.8688(3)
H11_5 H 0.3570 0.7487 0.8540
C37_5 C 0.4086(3) 0.7763(3) 0.8996(3)
H16_5 H 0.4170 0.7953 0.9072
C42_5 C 0.4181(3) 0.7492(4) 0.9101(3)
C47_5 C 0.4070(3) 0.7203(3) 0.9017(3)
H21_5 H 0.4154 0.7016 0.9099
C52_5 C 0.4437(3) 0.7490(4) 0.9341(3)
C57_5 C 0.4747(3) 0.7459(4) 0.9251(3)
C62_5 C 0.3655(3) 0.6911(3) 0.8726(4)
C67_5 C 0.4340(3) 0.7461(3) 0.9651(3)
C76_5 C 0.7526(4) 0.9918(3) 0.9018(3)
H30_5 H 0.7516 0.9782 0.8844
C81_5 C 0.7529(3) 0.9830(3) 0.9347(3)
C86_5 C 0.7530(3) 0.9526(3) 0.9444(4)
C91_5 C 0.7524(4) 0.9435(3) 0.9745(3)
C96_5 C 0.7820(3) 0.9171(3) 0.9112(3)
H35_5 H 0.8002 0.9256 0.9203
C97_5 C 0.4841(2) 0.7469(3) 0.8922(3)
H36_5 H 0.4712 0.7440 0.8746
C102_5 C 0.4010(3) 0.7459(3) 0.9751(3)
H41_5 H 0.3832 0.7449 0.9622
C111_5 C 0.7532(4) 0.9287(3) 0.9193(2)
C116_5 C 0.7514(4) 0.9078(4) 0.9844(2)
H50_5 H 0.7525 0.8902 0.9711
C121_5 C 0.7265(3) 0.9162(3) 0.9070(3)
H55_5 H 0.7067 0.9236 0.9132
C126_5 C 0.7843(3) 0.8935(4) 0.8902(4)
C131_5 C 0.7580(3) 0.8812(3) 0.8761(3)
H60_5 H 0.7597 0.8657 0.8605
C136_5 C 0.7291(3) 0.8924(3) 0.8854(4)
C137_5 C 0.3855(3) 0.7760(3) 0.8766(3)
C142_5 C 0.3755(3) 0.8061(4) 0.8624(3)
C151_5 C 0.7000(4) 0.8774(4) 0.8730(4)
C156_5 C 0.8152(4) 0.8790(4) 0.8820(4)
N6_5 N 0.4533(2) 0.7469(2) 0.9904(2)
N12_8 N 0.7500 0.9621(3) 1.0000
O10_5 O 0.3534(3) 0.8047(3) 0.8426(3)
O26_5 O 0.3771(3) 0.6662(3) 0.8818(3)
O35_5 O 0.6749(3) 0.8862(4) 0.8829(4)
O36_3 O 0.3251(3) 0.6138(4) 0.8829(4)
O54_3 O 0.8394(3) 0.8922(4) 0.8904(5)
O72_3 O 0.8125(5) 0.8535(4) 0.8676(5)
H62_5 H 0.555056 0.725748 0.935233
H66_5 H 0.444944 0.774252 0.935233
H74_5 H 0.778305 0.952644 0.944763
Zn1_8 Zn 0.0000 0.2500 0.49119(5)
N1_8 N -0.0000 0.2500 0.4439(3)
N3_8 N 0.0000 0.2500 0.5379(3)
Zn6_9 Zn 0.00881(5) -0.0000 0.7500
Zn36_4 Zn 0.16693(5) 0.33307(5) 0.66693(5)
Zn39_4 Zn 0.11899(9) 0.38101(9) 0.61899(9)
C27_6 C 0.1173(3) 0.2796(3) 0.3807(3)
C28_6 C 0.1193(3) 0.1173(3) 0.7204(3)
C32_6 C 0.1266(3) 0.2513(3) 0.3688(3)
C33_6 C 0.1312(3) 0.1266(3) 0.7487(3)
H11_6 H 0.1430 0.2513 0.3540
H12_6 H 0.1460 0.1430 0.7487
C37_6 C 0.0914(3) 0.2237(3) 0.3996(3)
C38_6 C 0.1004(3) 0.0914(3) 0.7763(3)
H16_6 H 0.0830 0.2047 0.4072
H17_6 H 0.0928 0.0830 0.7953
C42_6 C 0.0819(3) 0.2508(4) 0.4101(3)
C43_6 C 0.0899(3) 0.0819(3) 0.7492(4)
C47_6 C 0.0930(3) 0.2797(3) 0.4017(3)
C48_6 C 0.0983(3) 0.0930(3) 0.7203(3)
H21_6 H 0.0846 0.2984 0.4099
H22_6 H 0.0901 0.0846 0.7016
C52_6 C 0.0563(3) 0.2510(4) 0.4341(3)
C53_6 C 0.0659(3) 0.0563(3) 0.7490(4)
C57_6 C 0.0253(3) 0.2541(4) 0.4251(3)
C58_6 C 0.0749(3) 0.0253(3) 0.7459(4)
C62_6 C 0.1345(3) 0.3089(3) 0.3726(4)
C63_6 C 0.1274(4) 0.1345(3) 0.6911(3)
C67_6 C 0.0660(3) 0.2539(3) 0.4651(3)
C68_6 C 0.0349(3) 0.0660(3) 0.7461(3)
C72_6 C 0.0982(3) 0.2526(4) 0.5082(3)
H26_6 H 0.1156 0.2516 0.5218
C77_6 C 0.0653(3) 0.2529(3) 0.5170(3)
C82_6 C 0.0556(4) 0.2530(3) 0.5474(3)
C87_6 C 0.0255(3) 0.2524(4) 0.5565(3)
C92_6 C 0.0888(3) 0.2820(3) 0.5829(3)
H31_6 H 0.0797 0.3002 0.5744
C97_6 C 0.0159(2) 0.2531(3) 0.3922(3)
C98_6 C 0.1078(3) 0.0159(2) 0.7469(3)
H36_6 H 0.0288 0.2560 0.3746
H37_6 H 0.1254 0.0288 0.7440
C102_6 C 0.0990(3) 0.2541(3) 0.4751(3)
C103_6 C 0.0249(3) 0.0990(3) 0.7459(3)
H41_6 H 0.1168 0.2551 0.4622
H42_6 H 0.0378 0.1168 0.7449
C107_6 C 0.0807(2) 0.2532(4) 0.5713(3)
C112_6 C 0.0156(2) 0.2514(4) 0.5922(4)
H46_6 H 0.0289 0.2525 0.6098
C117_6 C 0.0930(3) 0.2265(3) 0.5838(3)
H51_6 H 0.0868 0.2067 0.5764
C122_6 C 0.1098(4) 0.2843(3) 0.6065(4)
C127_6 C 0.1239(3) 0.2580(3) 0.6188(3)
H56_6 H 0.1395 0.2597 0.6343
C132_6 C 0.1146(4) 0.2291(3) 0.6076(3)
C137_6 C 0.1145(3) 0.2240(3) 0.3766(3)
C138_6 C 0.1234(3) 0.1145(3) 0.7760(3)
C142_6 C 0.1245(3) 0.1939(4) 0.3624(3)
C143_6 C 0.1376(3) 0.1245(3) 0.8061(4)
C147_6 C 0.1270(4) 0.2000(4) 0.6226(4)
C152_6 C 0.1180(4) 0.3152(4) 0.6210(4)
N4_9 N 0.0561(3) -0.0000 0.7500
N6_6 N 0.0467(2) 0.2531(2) 0.4904(2)
N7_6 N 0.0096(2) 0.0467(2) 0.7469(2)
O10_6 O 0.1466(3) 0.1953(3) 0.3426(3)
O11_6 O 0.1574(3) 0.1466(3) 0.8047(3)
O26_6 O 0.1229(3) 0.3338(3) 0.3818(3)
O27_6 O 0.1182(3) 0.1229(3) 0.6662(3)
O31_6 O 0.1171(4) 0.1749(3) 0.6138(4)
O36_4 O 0.1749(3) 0.3862(4) 0.3829(4)
O50_6 O 0.1096(5) 0.3394(3) 0.6078(4)
O55_4 O 0.1078(4) 0.3904(5) 0.6606(3)
O56_4 O 0.1606(3) 0.3922(4) 0.6096(5)
O68_6 O 0.1324(5) 0.3125(5) 0.6465(4)
O73_4 O 0.1465(4) 0.3676(5) 0.6875(5)
O74_4 O 0.1875(5) 0.3535(4) 0.6324(5)
O75_6 O 0.0867(5) 0.4133(5) 0.5867(5)
H66_6 H 0.0550556 0.225748 0.435233
H67_6 H 0.0647671 0.0550556 0.774252
H71_6 H 0.0552365 0.278305 0.547356
Zn6_10 Zn 0.00881(5) 1.0000 0.7500
C29_6 C 0.1193(3) 0.8827(3) 0.7796(3)
C34_6 C 0.1312(3) 0.8734(3) 0.7513(3)
H13_6 H 0.1460 0.8570 0.7513
C39_6 C 0.1004(3) 0.9086(3) 0.7237(3)
H18_6 H 0.0928 0.9170 0.7047
C44_6 C 0.0899(3) 0.9181(3) 0.7508(4)
C49_6 C 0.0983(3) 0.9070(3) 0.7797(3)
H23_6 H 0.0901 0.9154 0.7984
C54_6 C 0.0659(3) 0.9437(3) 0.7510(4)
C59_6 C 0.0749(3) 0.9747(3) 0.7541(4)
C64_6 C 0.1274(4) 0.8655(3) 0.8089(3)
C69_6 C 0.0349(3) 0.9340(3) 0.7539(3)
C99_6 C 0.1078(3) 0.9841(2) 0.7531(3)
H38_6 H 0.1254 0.9712 0.7560
C104_6 C 0.0249(3) 0.9010(3) 0.7541(3)
H43_6 H 0.0378 0.8832 0.7551
C139_6 C 0.1234(3) 0.8855(3) 0.7240(3)
C144_6 C 0.1376(3) 0.8755(3) 0.6939(4)
N4_10 N 0.0561(3) 1.0000 0.7500
N8_6 N 0.0096(2) 0.9533(2) 0.7531(2)
O12_6 O 0.1574(3) 0.8534(3) 0.6953(3)
O28_6 O 0.1182(3) 0.8771(3) 0.8338(3)
O37_4 O 0.1171(4) 0.8251(3) 0.8862(4)
H68_6 H 0.0647671 0.944944 0.725748
Zn1_9 Zn 1.0000 0.2500 0.49119(5)
Zn4_6 Zn 0.83307(5) 0.16693(5) 0.66693(5)
Zn5_6 Zn 0.88101(9) 0.11899(9) 0.61899(9)
C1_6 C 0.8827(3) 0.2204(3) 0.3807(3)
C2_6 C 0.8734(3) 0.2487(3) 0.3688(3)
H1_6 H 0.8570 0.2487 0.3540
C3_6 C 0.9086(3) 0.2763(3) 0.3996(3)
H2_6 H 0.9170 0.2953 0.4072
C4_6 C 0.9181(3) 0.2492(4) 0.4101(3)
C5_6 C 0.9070(3) 0.2203(3) 0.4017(3)
H3_6 H 0.9154 0.2016 0.4099
C6_6 C 0.9437(3) 0.2490(4) 0.4341(3)
C7_6 C 0.9747(3) 0.2459(4) 0.4251(3)
C8_6 C 0.8655(3) 0.1911(3) 0.3726(4)
C9_6 C 0.9340(3) 0.2461(3) 0.4651(3)
C10_6 C 0.9018(3) 0.2474(4) 0.5082(3)
H4_6 H 0.8844 0.2484 0.5218
C11_6 C 0.9347(3) 0.2471(3) 0.5170(3)
C12_6 C 0.9444(4) 0.2470(3) 0.5474(3)
C13_6 C 0.9745(3) 0.2476(4) 0.5565(3)
C14_6 C 0.9112(3) 0.2180(3) 0.5829(3)
H5_6 H 0.9203 0.1998 0.5744
C15_6 C 0.9841(2) 0.2469(3) 0.3922(3)
H6_6 H 0.9712 0.2440 0.3746
C16_6 C 0.9010(3) 0.2459(3) 0.4751(3)
H7_6 H 0.8832 0.2449 0.4622
C17_6 C 0.9193(2) 0.2468(4) 0.5713(3)
C18_6 C 0.9844(2) 0.2486(4) 0.5922(4)
H8_6 H 0.9711 0.2475 0.6098
C19_6 C 0.9070(3) 0.2735(3) 0.5838(3)
H9_6 H 0.9132 0.2933 0.5764
C20_6 C 0.8902(4) 0.2157(3) 0.6065(4)
C21_6 C 0.8761(3) 0.2420(3) 0.6188(3)
H10_6 H 0.8605 0.2403 0.6343
C22_6 C 0.8854(4) 0.2709(3) 0.6076(3)
C23_6 C 0.8855(3) 0.2760(3) 0.3766(3)
C24_6 C 0.8755(3) 0.3061(4) 0.3624(3)
C25_6 C 0.8730(4) 0.3000(4) 0.6226(4)
C26_6 C 0.8820(4) 0.1848(4) 0.6210(4)
N1_9 N 1.0000 0.2500 0.4439(3)
N2_6 N 0.9533(2) 0.2469(2) 0.4904(2)
N3_9 N 1.0000 0.2500 0.5379(3)
O1_6 O 0.8534(3) 0.3047(3) 0.3426(3)
O3_6 O 0.8771(3) 0.1662(3) 0.3818(3)
O4_4 O 0.8829(4) 0.3251(3) 0.6138(4)
O6_6 O 0.8904(5) 0.1606(3) 0.6078(4)
O8_6 O 0.8676(5) 0.1875(5) 0.6465(4)
O9_6 O 0.9133(5) 0.0867(5) 0.5867(5)
C73_6 C 0.9918(3) 0.0982(3) 0.7474(4)
C75_6 C 0.7526(4) 0.0082(3) 0.5982(3)
C76_6 C 0.7474(4) 0.0082(3) 0.4018(3)
H27_6 H 0.9782 0.1156 0.7484
H29_6 H 0.7516 0.0218 0.6156
H30_6 H 0.7484 0.0218 0.3844
C78_6 C 0.9830(3) 0.0653(3) 0.7471(3)
C80_6 C 0.7529(3) 0.0170(3) 0.5653(3)
C81_6 C 0.7471(3) 0.0170(3) 0.4347(3)
C83_6 C 0.9526(3) 0.0556(4) 0.7470(3)
C85_6 C 0.7530(3) 0.0474(3) 0.5556(4)
C86_6 C 0.7470(3) 0.0474(3) 0.4444(4)
C88_6 C 0.9435(3) 0.0255(3) 0.7476(4)
C90_6 C 0.7524(4) 0.0565(3) 0.5255(3)
C91_6 C 0.7476(4) 0.0565(3) 0.4745(3)
C93_6 C 0.9171(3) 0.0888(3) 0.7180(3)
C95_6 C 0.7820(3) 0.0829(3) 0.5888(3)
C96_6 C 0.7180(3) 0.0829(3) 0.4112(3)
H32_6 H 0.9256 0.0797 0.6998
H34_6 H 0.8002 0.0744 0.5797
H35_6 H 0.6998 0.0744 0.4203
C108_6 C 0.9287(3) 0.0807(2) 0.7468(4)
C110_6 C 0.7532(4) 0.0713(3) 0.5807(2)
C111_6 C 0.7468(4) 0.0713(3) 0.4193(2)
C113_6 C 0.9078(4) 0.0156(2) 0.7486(4)
C115_6 C 0.7514(4) 0.0922(4) 0.5156(2)
C116_6 C 0.7486(4) 0.0922(4) 0.4844(2)
H47_6 H 0.8902 0.0289 0.7475
H49_6 H 0.7525 0.1098 0.5289
H50_6 H 0.7475 0.1098 0.4711
C118_6 C 0.9162(3) 0.0930(3) 0.7735(3)
C120_6 C 0.7265(3) 0.0838(3) 0.5930(3)
C121_6 C 0.7735(3) 0.0838(3) 0.4070(3)
H52_6 H 0.9236 0.0868 0.7933
H54_6 H 0.7067 0.0764 0.5868
H55_6 H 0.7933 0.0764 0.4132
C123_6 C 0.8935(4) 0.1098(4) 0.7157(3)
C125_6 C 0.7843(3) 0.1065(4) 0.6098(4)
C126_6 C 0.7157(3) 0.1065(4) 0.3902(4)
C128_6 C 0.8812(3) 0.1239(3) 0.7420(3)
C130_6 C 0.7580(3) 0.1188(3) 0.6239(3)
C131_6 C 0.7420(3) 0.1188(3) 0.3761(3)
H57_6 H 0.8657 0.1395 0.7403
H59_6 H 0.7597 0.1343 0.6395
H60_6 H 0.7403 0.1343 0.3605
C133_6 C 0.8924(3) 0.1146(4) 0.7709(3)
C135_6 C 0.7291(3) 0.1076(3) 0.6146(4)
C136_6 C 0.7709(3) 0.1076(3) 0.3854(4)
C148_6 C 0.8774(4) 0.1270(4) 0.8000(4)
C150_6 C 0.7000(4) 0.1226(4) 0.6270(4)
C151_6 C 0.8000(4) 0.1226(4) 0.3730(4)
C153_6 C 0.8790(4) 0.1180(4) 0.6848(4)
C155_6 C 0.8152(4) 0.1210(4) 0.6180(4)
C156_6 C 0.6848(4) 0.1210(4) 0.3820(4)
N11_9 N 0.9621(3) -0.0000 0.7500
N12_9 N 0.7500 0.0379(3) 0.5000
O34_4 O 0.6749(3) 0.1138(4) 0.6171(4)
O35_6 O 0.8251(3) 0.1138(4) 0.3829(4)
O51_6 O 0.8922(4) 0.1096(5) 0.6606(3)
O53_6 O 0.8394(3) 0.1078(4) 0.6096(5)
O54_4 O 0.6606(3) 0.1078(4) 0.3904(5)
O69_6 O 0.8535(4) 0.1324(5) 0.6875(5)
O71_6 O 0.8125(5) 0.1465(4) 0.6324(5)
O72_4 O 0.6875(5) 0.1465(4) 0.3676(5)
H61_6 H 0.944763 0.221695 0.547356
H62_6 H 0.944944 0.274252 0.435233
H70_6 H 0.778305 0.0473558 0.555237
H73_6 H 0.952644 0.0552365 0.721695
H74_6 H 0.721695 0.0473558 0.444763
Zn7_9 Zn 0.7500 0.99119(5) 0.5000
C30_6 C 0.7796(3) 0.8807(3) 0.6173(3)
C31_6 C 0.7204(3) 0.8807(3) 0.3827(3)
C35_6 C 0.7513(3) 0.8688(3) 0.6266(3)
C36_6 C 0.7487(3) 0.8688(3) 0.3734(3)
H14_6 H 0.7513 0.8540 0.6430
H15_6 H 0.7487 0.8540 0.3570
C40_6 C 0.7237(3) 0.8996(3) 0.5914(3)
C41_6 C 0.7763(3) 0.8996(3) 0.4086(3)
H19_6 H 0.7047 0.9072 0.5830
H20_6 H 0.7953 0.9072 0.4170
C45_6 C 0.7508(4) 0.9101(3) 0.5819(3)
C46_6 C 0.7492(4) 0.9101(3) 0.4181(3)
C50_6 C 0.7797(3) 0.9017(3) 0.5930(3)
C51_6 C 0.7203(3) 0.9017(3) 0.4070(3)
H24_6 H 0.7984 0.9099 0.5846
H25_6 H 0.7016 0.9099 0.4154
C55_6 C 0.7510(4) 0.9341(3) 0.5563(3)
C56_6 C 0.7490(4) 0.9341(3) 0.4437(3)
C60_6 C 0.7541(4) 0.9251(3) 0.5253(3)
C61_6 C 0.7459(4) 0.9251(3) 0.4747(3)
C65_6 C 0.8089(3) 0.8726(4) 0.6345(3)
C66_6 C 0.6911(3) 0.8726(4) 0.3655(3)
C70_6 C 0.7539(3) 0.9651(3) 0.5660(3)
C71_6 C 0.7461(3) 0.9651(3) 0.4340(3)
C74_6 C 0.9918(3) 0.9018(3) 0.7526(4)
H28_6 H 0.9782 0.8844 0.7516
C79_6 C 0.9830(3) 0.9347(3) 0.7529(3)
C84_6 C 0.9526(3) 0.9444(4) 0.7530(3)
C89_6 C 0.9435(3) 0.9745(3) 0.7524(4)
C94_6 C 0.9171(3) 0.9112(3) 0.7820(3)
H33_6 H 0.9256 0.9203 0.8002
C100_6 C 0.7531(3) 0.8922(3) 0.5159(2)
C101_6 C 0.7469(3) 0.8922(3) 0.4841(2)
H39_6 H 0.7560 0.8746 0.5288
H40_6 H 0.7440 0.8746 0.4712
C105_6 C 0.7541(3) 0.9751(3) 0.5990(3)
C106_6 C 0.7459(3) 0.9751(3) 0.4010(3)
H44_6 H 0.7551 0.9622 0.6168
H45_6 H 0.7449 0.9622 0.3832
C109_6 C 0.9287(3) 0.9193(2) 0.7532(4)
C114_6 C 0.9078(4) 0.9844(2) 0.7514(4)
H48_6 H 0.8902 0.9711 0.7525
C119_6 C 0.9162(3) 0.9070(3) 0.7265(3)
H53_6 H 0.9236 0.9132 0.7067
C124_6 C 0.8935(4) 0.8902(4) 0.7843(3)
C129_6 C 0.8812(3) 0.8761(3) 0.7580(3)
H58_6 H 0.8657 0.8605 0.7597
C134_6 C 0.8924(3) 0.8854(4) 0.7291(3)
C140_6 C 0.7240(3) 0.8766(3) 0.6145(3)
C141_6 C 0.7760(3) 0.8766(3) 0.3855(3)
C145_6 C 0.6939(4) 0.8624(3) 0.6245(3)
C146_6 C 0.8061(4) 0.8624(3) 0.3755(3)
C149_6 C 0.8774(4) 0.8730(4) 0.7000(4)
C154_6 C 0.8790(4) 0.8820(4) 0.8152(4)
N5_9 N 0.7500 0.9439(3) 0.5000
N9_6 N 0.7531(2) 0.9904(2) 0.5467(2)
N10_6 N 0.7469(2) 0.9904(2) 0.4533(2)
N11_10 N 0.9621(3) 1.0000 0.7500
O13_6 O 0.6953(3) 0.8426(3) 0.6466(3)
O14_6 O 0.8047(3) 0.8426(3) 0.3534(3)
O29_6 O 0.8338(3) 0.8818(3) 0.6229(3)
O30_6 O 0.6662(3) 0.8818(3) 0.3771(3)
O33_6 O 0.8862(4) 0.8829(4) 0.6749(3)
O52_4 O 0.8922(4) 0.8904(5) 0.8394(3)
O70_4 O 0.8535(4) 0.8676(5) 0.8125(5)
H65_6 H 0.774252 0.935233 0.444944
H69_6 H 0.725748 0.935233 0.555056
H72_6 H 0.952644 0.944763 0.778305
Zn1_10 Zn 0.5000 0.2500 0.50881(5)
Zn4_7 Zn 0.33307(5) 0.33307(5) 0.33307(5)
Zn5_7 Zn 0.38101(9) 0.38101(9) 0.38101(9)
C1_7 C 0.3827(3) 0.2796(3) 0.6193(3)
C2_7 C 0.3734(3) 0.2513(3) 0.6312(3)
H1_7 H 0.3570 0.2513 0.6460
C3_7 C 0.4086(3) 0.2237(3) 0.6004(3)
H2_7 H 0.4170 0.2047 0.5928
C4_7 C 0.4181(3) 0.2508(4) 0.5899(3)
C5_7 C 0.4070(3) 0.2797(3) 0.5983(3)
H3_7 H 0.4154 0.2984 0.5901
C6_7 C 0.4437(3) 0.2510(4) 0.5659(3)
C7_7 C 0.4747(3) 0.2541(4) 0.5749(3)
C8_7 C 0.3655(3) 0.3089(3) 0.6274(4)
C9_7 C 0.4340(3) 0.2539(3) 0.5349(3)
C10_7 C 0.4018(3) 0.2526(4) 0.4918(3)
H4_7 H 0.3844 0.2516 0.4782
C11_7 C 0.4347(3) 0.2529(3) 0.4830(3)
C12_7 C 0.4444(4) 0.2530(3) 0.4526(3)
C13_7 C 0.4745(3) 0.2524(4) 0.4435(3)
C14_7 C 0.4112(3) 0.2820(3) 0.4171(3)
H5_7 H 0.4203 0.3002 0.4256
C15_7 C 0.4841(2) 0.2531(3) 0.6078(3)
H6_7 H 0.4712 0.2560 0.6254
C16_7 C 0.4010(3) 0.2541(3) 0.5249(3)
H7_7 H 0.3832 0.2551 0.5378
C17_7 C 0.4193(2) 0.2532(4) 0.4287(3)
C18_7 C 0.4844(2) 0.2514(4) 0.4078(4)
H8_7 H 0.4711 0.2525 0.3902
C19_7 C 0.4070(3) 0.2265(3) 0.4162(3)
H9_7 H 0.4132 0.2067 0.4236
C20_7 C 0.3902(4) 0.2843(3) 0.3935(4)
C21_7 C 0.3761(3) 0.2580(3) 0.3812(3)
H10_7 H 0.3605 0.2597 0.3657
C22_7 C 0.3854(4) 0.2291(3) 0.3924(3)
C23_7 C 0.3855(3) 0.2240(3) 0.6234(3)
C24_7 C 0.3755(3) 0.1939(4) 0.6376(3)
C25_7 C 0.3730(4) 0.2000(4) 0.3774(4)
C26_7 C 0.3820(4) 0.3152(4) 0.3790(4)
N1_10 N 0.5000 0.2500 0.5561(3)
N2_7 N 0.4533(2) 0.2531(2) 0.5096(2)
N3_10 N 0.5000 0.2500 0.4621(3)
O1_7 O 0.3534(3) 0.1953(3) 0.6574(3)
O3_7 O 0.3771(3) 0.3338(3) 0.6182(3)
O6_7 O 0.3904(5) 0.3394(3) 0.3922(4)
O8_7 O 0.3676(5) 0.3125(5) 0.3535(4)
O9_7 O 0.4133(5) 0.4133(5) 0.4133(5)
Zn6_11 Zn 0.50881(5) 0.5000 0.2500
Zn7_10 Zn 0.2500 0.50881(5) 0.5000
C27_7 C 0.6173(3) 0.2204(3) 0.6193(3)
C28_7 C 0.6193(3) 0.3827(3) 0.2796(3)
C29_7 C 0.6193(3) 0.6173(3) 0.2204(3)
C30_7 C 0.2796(3) 0.6193(3) 0.3827(3)
C31_7 C 0.2204(3) 0.6193(3) 0.6173(3)
C32_7 C 0.6266(3) 0.2487(3) 0.6312(3)
C33_7 C 0.6312(3) 0.3734(3) 0.2513(3)
C34_7 C 0.6312(3) 0.6266(3) 0.2487(3)
C35_7 C 0.2513(3) 0.6312(3) 0.3734(3)
C36_7 C 0.2487(3) 0.6312(3) 0.6266(3)
H11_7 H 0.6430 0.2487 0.6460
H12_7 H 0.6460 0.3570 0.2513
H13_7 H 0.6460 0.6430 0.2487
H14_7 H 0.2513 0.6460 0.3570
H15_7 H 0.2487 0.6460 0.6430
C37_7 C 0.5914(3) 0.2763(3) 0.6004(3)
C38_7 C 0.6004(3) 0.4086(3) 0.2237(3)
C39_7 C 0.6004(3) 0.5914(3) 0.2763(3)
C40_7 C 0.2237(3) 0.6004(3) 0.4086(3)
C41_7 C 0.2763(3) 0.6004(3) 0.5914(3)
H16_7 H 0.5830 0.2953 0.5928
H17_7 H 0.5928 0.4170 0.2047
H18_7 H 0.5928 0.5830 0.2953
H19_7 H 0.2047 0.5928 0.4170
H20_7 H 0.2953 0.5928 0.5830
C42_7 C 0.5819(3) 0.2492(4) 0.5899(3)
C43_7 C 0.5899(3) 0.4181(3) 0.2508(4)
C44_7 C 0.5899(3) 0.5819(3) 0.2492(4)
C45_7 C 0.2508(4) 0.5899(3) 0.4181(3)
C46_7 C 0.2492(4) 0.5899(3) 0.5819(3)
C47_7 C 0.5930(3) 0.2203(3) 0.5983(3)
C48_7 C 0.5983(3) 0.4070(3) 0.2797(3)
C49_7 C 0.5983(3) 0.5930(3) 0.2203(3)
C50_7 C 0.2797(3) 0.5983(3) 0.4070(3)
C51_7 C 0.2203(3) 0.5983(3) 0.5930(3)
H21_7 H 0.5846 0.2016 0.5901
H22_7 H 0.5901 0.4154 0.2984
H23_7 H 0.5901 0.5846 0.2016
H24_7 H 0.2984 0.5901 0.4154
H25_7 H 0.2016 0.5901 0.5846
C52_7 C 0.5563(3) 0.2490(4) 0.5659(3)
C53_7 C 0.5659(3) 0.4437(3) 0.2510(4)
C54_7 C 0.5659(3) 0.5563(3) 0.2490(4)
C55_7 C 0.2510(4) 0.5659(3) 0.4437(3)
C56_7 C 0.2490(4) 0.5659(3) 0.5563(3)
C57_7 C 0.5253(3) 0.2459(4) 0.5749(3)
C58_7 C 0.5749(3) 0.4747(3) 0.2541(4)
C59_7 C 0.5749(3) 0.5253(3) 0.2459(4)
C60_7 C 0.2541(4) 0.5749(3) 0.4747(3)
C61_7 C 0.2459(4) 0.5749(3) 0.5253(3)
C62_7 C 0.6345(3) 0.1911(3) 0.6274(4)
C63_7 C 0.6274(4) 0.3655(3) 0.3089(3)
C64_7 C 0.6274(4) 0.6345(3) 0.1911(3)
C65_7 C 0.3089(3) 0.6274(4) 0.3655(3)
C66_7 C 0.1911(3) 0.6274(4) 0.6345(3)
C67_7 C 0.5660(3) 0.2461(3) 0.5349(3)
C68_7 C 0.5349(3) 0.4340(3) 0.2539(3)
C69_7 C 0.5349(3) 0.5660(3) 0.2461(3)
C70_7 C 0.2539(3) 0.5349(3) 0.4340(3)
C71_7 C 0.2461(3) 0.5349(3) 0.5660(3)
C72_7 C 0.5982(3) 0.2474(4) 0.4918(3)
C73_7 C 0.4918(3) 0.4018(3) 0.2526(4)
C74_7 C 0.4918(3) 0.5982(3) 0.2474(4)
C75_7 C 0.2526(4) 0.4918(3) 0.4018(3)
C76_7 C 0.2474(4) 0.4918(3) 0.5982(3)
H26_7 H 0.6156 0.2484 0.4782
H27_7 H 0.4782 0.3844 0.2516
H28_7 H 0.4782 0.6156 0.2484
H29_7 H 0.2516 0.4782 0.3844
H30_7 H 0.2484 0.4782 0.6156
C77_7 C 0.5653(3) 0.2471(3) 0.4830(3)
C78_7 C 0.4830(3) 0.4347(3) 0.2529(3)
C79_7 C 0.4830(3) 0.5653(3) 0.2471(3)
C80_7 C 0.2529(3) 0.4830(3) 0.4347(3)
C81_7 C 0.2471(3) 0.4830(3) 0.5653(3)
C82_7 C 0.5556(4) 0.2470(3) 0.4526(3)
C83_7 C 0.4526(3) 0.4444(4) 0.2530(3)
C84_7 C 0.4526(3) 0.5556(4) 0.2470(3)
C85_7 C 0.2530(3) 0.4526(3) 0.4444(4)
C86_7 C 0.2470(3) 0.4526(3) 0.5556(4)
C87_7 C 0.5255(3) 0.2476(4) 0.4435(3)
C88_7 C 0.4435(3) 0.4745(3) 0.2524(4)
C89_7 C 0.4435(3) 0.5255(3) 0.2476(4)
C90_7 C 0.2524(4) 0.4435(3) 0.4745(3)
C91_7 C 0.2476(4) 0.4435(3) 0.5255(3)
C92_7 C 0.5888(3) 0.2180(3) 0.4171(3)
C93_7 C 0.4171(3) 0.4112(3) 0.2820(3)
C94_7 C 0.4171(3) 0.5888(3) 0.2180(3)
C95_7 C 0.2820(3) 0.4171(3) 0.4112(3)
C96_7 C 0.2180(3) 0.4171(3) 0.5888(3)
H31_7 H 0.5797 0.1998 0.4256
H32_7 H 0.4256 0.4203 0.3002
H33_7 H 0.4256 0.5797 0.1998
H34_7 H 0.3002 0.4256 0.4203
H35_7 H 0.1998 0.4256 0.5797
C97_7 C 0.5159(2) 0.2469(3) 0.6078(3)
C98_7 C 0.6078(3) 0.4841(2) 0.2531(3)
C99_7 C 0.6078(3) 0.5159(2) 0.2469(3)
C100_7 C 0.2531(3) 0.6078(3) 0.4841(2)
C101_7 C 0.2469(3) 0.6078(3) 0.5159(2)
H36_7 H 0.5288 0.2440 0.6254
H37_7 H 0.6254 0.4712 0.2560
H38_7 H 0.6254 0.5288 0.2440
H39_7 H 0.2560 0.6254 0.4712
H40_7 H 0.2440 0.6254 0.5288
C102_7 C 0.5990(3) 0.2459(3) 0.5249(3)
C103_7 C 0.5249(3) 0.4010(3) 0.2541(3)
C104_7 C 0.5249(3) 0.5990(3) 0.2459(3)
C105_7 C 0.2541(3) 0.5249(3) 0.4010(3)
C106_7 C 0.2459(3) 0.5249(3) 0.5990(3)
H41_7 H 0.6168 0.2449 0.5378
H42_7 H 0.5378 0.3832 0.2551
H43_7 H 0.5378 0.6168 0.2449
H44_7 H 0.2551 0.5378 0.3832
H45_7 H 0.2449 0.5378 0.6168
C107_7 C 0.5807(2) 0.2468(4) 0.4287(3)
C108_7 C 0.4287(3) 0.4193(2) 0.2532(4)
C109_7 C 0.4287(3) 0.5807(2) 0.2468(4)
C110_7 C 0.2532(4) 0.4287(3) 0.4193(2)
C111_7 C 0.2468(4) 0.4287(3) 0.5807(2)
C112_7 C 0.5156(2) 0.2486(4) 0.4078(4)
C113_7 C 0.4078(4) 0.4844(2) 0.2514(4)
C114_7 C 0.4078(4) 0.5156(2) 0.2486(4)
C115_7 C 0.2514(4) 0.4078(4) 0.4844(2)
C116_7 C 0.2486(4) 0.4078(4) 0.5156(2)
H46_7 H 0.5289 0.2475 0.3902
H47_7 H 0.3902 0.4711 0.2525
H48_7 H 0.3902 0.5289 0.2475
H49_7 H 0.2525 0.3902 0.4711
H50_7 H 0.2475 0.3902 0.5289
C117_7 C 0.5930(3) 0.2735(3) 0.4162(3)
C118_7 C 0.4162(3) 0.4070(3) 0.2265(3)
C119_7 C 0.4162(3) 0.5930(3) 0.2735(3)
C120_7 C 0.2265(3) 0.4162(3) 0.4070(3)
C121_7 C 0.2735(3) 0.4162(3) 0.5930(3)
H51_7 H 0.5868 0.2933 0.4236
H52_7 H 0.4236 0.4132 0.2067
H53_7 H 0.4236 0.5868 0.2933
H54_7 H 0.2067 0.4236 0.4132
H55_7 H 0.2933 0.4236 0.5868
C122_7 C 0.6098(4) 0.2157(3) 0.3935(4)
C123_7 C 0.3935(4) 0.3902(4) 0.2843(3)
C124_7 C 0.3935(4) 0.6098(4) 0.2157(3)
C125_7 C 0.2843(3) 0.3935(4) 0.3902(4)
C126_7 C 0.2157(3) 0.3935(4) 0.6098(4)
C127_7 C 0.6239(3) 0.2420(3) 0.3812(3)
C128_7 C 0.3812(3) 0.3761(3) 0.2580(3)
C129_7 C 0.3812(3) 0.6239(3) 0.2420(3)
C130_7 C 0.2580(3) 0.3812(3) 0.3761(3)
C131_7 C 0.2420(3) 0.3812(3) 0.6239(3)
H56_7 H 0.6395 0.2403 0.3657
H57_7 H 0.3657 0.3605 0.2597
H58_7 H 0.3657 0.6395 0.2403
H59_7 H 0.2597 0.3657 0.3605
H60_7 H 0.2403 0.3657 0.6395
C132_7 C 0.6146(4) 0.2709(3) 0.3924(3)
C133_7 C 0.3924(3) 0.3854(4) 0.2291(3)
C134_7 C 0.3924(3) 0.6146(4) 0.2709(3)
C135_7 C 0.2291(3) 0.3924(3) 0.3854(4)
C136_7 C 0.2709(3) 0.3924(3) 0.6146(4)
C137_7 C 0.6145(3) 0.2760(3) 0.6234(3)
C138_7 C 0.6234(3) 0.3855(3) 0.2240(3)
C139_7 C 0.6234(3) 0.6145(3) 0.2760(3)
C140_7 C 0.2240(3) 0.6234(3) 0.3855(3)
C141_7 C 0.2760(3) 0.6234(3) 0.6145(3)
C142_7 C 0.6245(3) 0.3061(4) 0.6376(3)
C143_7 C 0.6376(3) 0.3755(3) 0.1939(4)
C144_7 C 0.6376(3) 0.6245(3) 0.3061(4)
C145_7 C 0.1939(4) 0.6376(3) 0.3755(3)
C146_7 C 0.3061(4) 0.6376(3) 0.6245(3)
C147_7 C 0.6270(4) 0.3000(4) 0.3774(4)
C148_7 C 0.3774(4) 0.3730(4) 0.2000(4)
C149_7 C 0.3774(4) 0.6270(4) 0.3000(4)
C150_7 C 0.2000(4) 0.3774(4) 0.3730(4)
C151_7 C 0.3000(4) 0.3774(4) 0.6270(4)
C152_7 C 0.6180(4) 0.1848(4) 0.3790(4)
C153_7 C 0.3790(4) 0.3820(4) 0.3152(4)
C154_7 C 0.3790(4) 0.6180(4) 0.1848(4)
C155_7 C 0.3152(4) 0.3790(4) 0.3820(4)
C156_7 C 0.1848(4) 0.3790(4) 0.6180(4)
N4_11 N 0.5561(3) 0.5000 0.2500
N5_10 N 0.2500 0.5561(3) 0.5000
N6_7 N 0.5467(2) 0.2469(2) 0.5096(2)
N7_7 N 0.5096(2) 0.4533(2) 0.2531(2)
N8_7 N 0.5096(2) 0.5467(2) 0.2469(2)
N9_7 N 0.2531(2) 0.5096(2) 0.4533(2)
N10_7 N 0.2469(2) 0.5096(2) 0.5467(2)
N11_11 N 0.4621(3) 0.5000 0.2500
N12_10 N 0.2500 0.4621(3) 0.5000
O10_7 O 0.6466(3) 0.3047(3) 0.6574(3)
O11_7 O 0.6574(3) 0.3534(3) 0.1953(3)
O12_7 O 0.6574(3) 0.6466(3) 0.3047(3)
O13_7 O 0.1953(3) 0.6574(3) 0.3534(3)
O14_7 O 0.3047(3) 0.6574(3) 0.6466(3)
O26_7 O 0.6229(3) 0.1662(3) 0.6182(3)
O27_7 O 0.6182(3) 0.3771(3) 0.3338(3)
O28_7 O 0.6182(3) 0.6229(3) 0.1662(3)
O29_7 O 0.3338(3) 0.6182(3) 0.3771(3)
O30_7 O 0.1662(3) 0.6182(3) 0.6229(3)
O31_7 O 0.6171(4) 0.3251(3) 0.3862(4)
O32_4 O 0.3862(4) 0.3829(4) 0.1749(3)
O33_7 O 0.3862(4) 0.6171(4) 0.3251(3)
O35_7 O 0.3251(3) 0.3862(4) 0.6171(4)
O38_4 O 0.1138(4) 0.6171(4) 0.6749(3)
O50_7 O 0.6096(5) 0.1606(3) 0.3922(4)
O51_7 O 0.3922(4) 0.3904(5) 0.3394(3)
O53_7 O 0.3394(3) 0.3922(4) 0.3904(5)
O68_7 O 0.6324(5) 0.1875(5) 0.3535(4)
O69_7 O 0.3535(4) 0.3676(5) 0.3125(5)
O71_7 O 0.3125(5) 0.3535(4) 0.3676(5)
O75_7 O 0.5867(5) 0.0867(5) 0.4133(5)
H61_7 H 0.444763 0.278305 0.452644
H62_7 H 0.444944 0.225748 0.564767
H65_7 H 0.274252 0.564767 0.555056
H66_7 H 0.555056 0.274252 0.564767
H67_7 H 0.564767 0.444944 0.225748
H68_7 H 0.564767 0.555056 0.274252
H69_7 H 0.225748 0.564767 0.444944
H70_7 H 0.278305 0.452644 0.444763
H71_7 H 0.555237 0.221695 0.452644
H72_7 H 0.452644 0.555237 0.221695
H73_7 H 0.452644 0.444763 0.278305
H74_7 H 0.221695 0.452644 0.555237
Zn1_11 Zn -0.0000 0.7500 0.00881(5)
C1_8 C 0.1173(3) 0.7204(3) 0.1193(3)
C2_8 C 0.1266(3) 0.7487(3) 0.1312(3)
H1_8 H 0.1430 0.7487 0.1460
C3_8 C 0.0914(3) 0.7763(3) 0.1004(3)
H2_8 H 0.0830 0.7953 0.0928
C4_8 C 0.0819(3) 0.7492(4) 0.0899(3)
C5_8 C 0.0930(3) 0.7203(3) 0.0983(3)
H3_8 H 0.0846 0.7016 0.0901
C6_8 C 0.0563(3) 0.7490(4) 0.0659(3)
C7_8 C 0.0253(3) 0.7459(4) 0.0749(3)
C8_8 C 0.1345(3) 0.6911(3) 0.1274(4)
C9_8 C 0.0660(3) 0.7461(3) 0.0349(3)
C15_8 C 0.0159(2) 0.7469(3) 0.1078(3)
H6_8 H 0.0288 0.7440 0.1254
C16_8 C 0.0990(3) 0.7459(3) 0.0249(3)
H7_8 H 0.1168 0.7449 0.0378
C23_8 C 0.1145(3) 0.7760(3) 0.1234(3)
C24_8 C 0.1245(3) 0.8061(4) 0.1376(3)
N1_11 N -0.0000 0.7500 0.0561(3)
N2_8 N 0.0467(2) 0.7469(2) 0.0096(2)
O1_8 O 0.1466(3) 0.8047(3) 0.1574(3)
O3_8 O 0.1229(3) 0.6662(3) 0.1182(3)
Zn7_11 Zn 0.2500 0.49119(5) 0.0000
C31_8 C 0.2796(3) 0.3807(3) 0.1173(3)
C36_8 C 0.2513(3) 0.3688(3) 0.1266(3)
H15_8 H 0.2513 0.3540 0.1430
C41_8 C 0.2237(3) 0.3996(3) 0.0914(3)
H20_8 H 0.2047 0.4072 0.0830
C46_8 C 0.2508(4) 0.4101(3) 0.0819(3)
C51_8 C 0.2797(3) 0.4017(3) 0.0930(3)
H25_8 H 0.2984 0.4099 0.0846
C56_8 C 0.2510(4) 0.4341(3) 0.0563(3)
C61_8 C 0.2541(4) 0.4251(3) 0.0253(3)
C66_8 C 0.3089(3) 0.3726(4) 0.1345(3)
C71_8 C 0.2539(3) 0.4651(3) 0.0660(3)
C76_8 C 0.2526(4) 0.5082(3) 0.0982(3)
H30_8 H 0.2516 0.5218 0.1156
C81_8 C 0.2529(3) 0.5170(3) 0.0653(3)
C86_8 C 0.2530(3) 0.5474(3) 0.0556(4)
C91_8 C 0.2524(4) 0.5565(3) 0.0255(3)
C96_8 C 0.2820(3) 0.5829(3) 0.0888(3)
H35_8 H 0.3002 0.5744 0.0797
C101_8 C 0.2531(3) 0.3922(3) 0.0159(2)
H40_8 H 0.2560 0.3746 0.0288
C106_8 C 0.2541(3) 0.4751(3) 0.0990(3)
H45_8 H 0.2551 0.4622 0.1168
C111_8 C 0.2532(4) 0.5713(3) 0.0807(2)
C116_8 C 0.2514(4) 0.5922(4) 0.0156(2)
H50_8 H 0.2525 0.6098 0.0289
C121_8 C 0.2265(3) 0.5838(3) 0.0930(3)
H55_8 H 0.2067 0.5764 0.0868
C126_8 C 0.2843(3) 0.6065(4) 0.1098(4)
C131_8 C 0.2580(3) 0.6188(3) 0.1239(3)
H60_8 H 0.2597 0.6343 0.1395
C136_8 C 0.2291(3) 0.6076(3) 0.1146(4)
C141_8 C 0.2240(3) 0.3766(3) 0.1145(3)
C146_8 C 0.1939(4) 0.3624(3) 0.1245(3)
C151_8 C 0.2000(4) 0.6226(4) 0.1270(4)
C156_8 C 0.3152(4) 0.6210(4) 0.1180(4)
N5_11 N 0.2500 0.4439(3) 0.0000
N10_8 N 0.2531(2) 0.4904(2) 0.0467(2)
N12_11 N 0.2500 0.5379(3) 0.0000
O14_8 O 0.1953(3) 0.3426(3) 0.1466(3)
O30_8 O 0.3338(3) 0.3818(3) 0.1229(3)
O35_8 O 0.1749(3) 0.6138(4) 0.1171(4)
H62_8 H 0.0550556 0.774252 0.0647671
H65_8 H 0.225748 0.435233 0.0550556
H74_8 H 0.278305 0.547356 0.0552365
Zn4_8 Zn 0.16693(5) 0.66693(5) 0.83307(5)
Zn5_8 Zn 0.11899(9) 0.61899(9) 0.88101(9)
C10_8 C 0.0982(3) 0.7474(4) 0.9918(3)
H4_8 H 0.1156 0.7484 0.9782
C11_8 C 0.0653(3) 0.7471(3) 0.9830(3)
C12_8 C 0.0556(4) 0.7470(3) 0.9526(3)
C13_8 C 0.0255(3) 0.7476(4) 0.9435(3)
C14_8 C 0.0888(3) 0.7180(3) 0.9171(3)
H5_8 H 0.0797 0.6998 0.9256
C17_8 C 0.0807(2) 0.7468(4) 0.9287(3)
C18_8 C 0.0156(2) 0.7486(4) 0.9078(4)
H8_8 H 0.0289 0.7475 0.8902
C19_8 C 0.0930(3) 0.7735(3) 0.9162(3)
H9_8 H 0.0868 0.7933 0.9236
C20_8 C 0.1098(4) 0.7157(3) 0.8935(4)
C21_8 C 0.1239(3) 0.7420(3) 0.8812(3)
H10_8 H 0.1395 0.7403 0.8657
C22_8 C 0.1146(4) 0.7709(3) 0.8924(3)
C25_8 C 0.1270(4) 0.8000(4) 0.8774(4)
C26_8 C 0.1180(4) 0.6848(4) 0.8790(4)
N3_11 N 0.0000 0.7500 0.9621(3)
O6_8 O 0.1096(5) 0.6606(3) 0.8922(4)
O8_8 O 0.1324(5) 0.6875(5) 0.8535(4)
O9_8 O 0.0867(5) 0.5867(5) 0.9133(5)
Zn7_12 Zn 0.2500 0.49119(5) 1.0000
C30_8 C 0.2204(3) 0.3807(3) 0.8827(3)
C35_8 C 0.2487(3) 0.3688(3) 0.8734(3)
H14_8 H 0.2487 0.3540 0.8570
C40_8 C 0.2763(3) 0.3996(3) 0.9086(3)
H19_8 H 0.2953 0.4072 0.9170
C45_8 C 0.2492(4) 0.4101(3) 0.9181(3)
C50_8 C 0.2203(3) 0.4017(3) 0.9070(3)
H24_8 H 0.2016 0.4099 0.9154
C55_8 C 0.2490(4) 0.4341(3) 0.9437(3)
C60_8 C 0.2459(4) 0.4251(3) 0.9747(3)
C65_8 C 0.1911(3) 0.3726(4) 0.8655(3)
C70_8 C 0.2461(3) 0.4651(3) 0.9340(3)
C73_8 C 0.0082(3) 0.5982(3) 0.7526(4)
C74_8 C 0.0082(3) 0.4018(3) 0.7474(4)
C75_8 C 0.2474(4) 0.5082(3) 0.9018(3)
H27_8 H 0.0218 0.6156 0.7516
H28_8 H 0.0218 0.3844 0.7484
H29_8 H 0.2484 0.5218 0.8844
C78_8 C 0.0170(3) 0.5653(3) 0.7529(3)
C79_8 C 0.0170(3) 0.4347(3) 0.7471(3)
C80_8 C 0.2471(3) 0.5170(3) 0.9347(3)
C83_8 C 0.0474(3) 0.5556(4) 0.7530(3)
C84_8 C 0.0474(3) 0.4444(4) 0.7470(3)
C85_8 C 0.2470(3) 0.5474(3) 0.9444(4)
C88_8 C 0.0565(3) 0.5255(3) 0.7524(4)
C89_8 C 0.0565(3) 0.4745(3) 0.7476(4)
C90_8 C 0.2476(4) 0.5565(3) 0.9745(3)
C93_8 C 0.0829(3) 0.5888(3) 0.7820(3)
C94_8 C 0.0829(3) 0.4112(3) 0.7180(3)
C95_8 C 0.2180(3) 0.5829(3) 0.9112(3)
H32_8 H 0.0744 0.5797 0.8002
H33_8 H 0.0744 0.4203 0.6998
H34_8 H 0.1998 0.5744 0.9203
C100_8 C 0.2469(3) 0.3922(3) 0.9841(2)
H39_8 H 0.2440 0.3746 0.9712
C105_8 C 0.2459(3) 0.4751(3) 0.9010(3)
H44_8 H 0.2449 0.4622 0.8832
C108_8 C 0.0713(3) 0.5807(2) 0.7532(4)
C109_8 C 0.0713(3) 0.4193(2) 0.7468(4)
C110_8 C 0.2468(4) 0.5713(3) 0.9193(2)
C113_8 C 0.0922(4) 0.5156(2) 0.7514(4)
C114_8 C 0.0922(4) 0.4844(2) 0.7486(4)
C115_8 C 0.2486(4) 0.5922(4) 0.9844(2)
H47_8 H 0.1098 0.5289 0.7525
H48_8 H 0.1098 0.4711 0.7475
H49_8 H 0.2475 0.6098 0.9711
C118_8 C 0.0838(3) 0.5930(3) 0.7265(3)
C119_8 C 0.0838(3) 0.4070(3) 0.7735(3)
C120_8 C 0.2735(3) 0.5838(3) 0.9070(3)
H52_8 H 0.0764 0.5868 0.7067
H53_8 H 0.0764 0.4132 0.7933
H54_8 H 0.2933 0.5764 0.9132
C123_8 C 0.1065(4) 0.6098(4) 0.7843(3)
C124_8 C 0.1065(4) 0.3902(4) 0.7157(3)
C125_8 C 0.2157(3) 0.6065(4) 0.8902(4)
C128_8 C 0.1188(3) 0.6239(3) 0.7580(3)
C129_8 C 0.1188(3) 0.3761(3) 0.7420(3)
C130_8 C 0.2420(3) 0.6188(3) 0.8761(3)
H57_8 H 0.1343 0.6395 0.7597
H58_8 H 0.1343 0.3605 0.7403
H59_8 H 0.2403 0.6343 0.8605
C133_8 C 0.1076(3) 0.6146(4) 0.7291(3)
C134_8 C 0.1076(3) 0.3854(4) 0.7709(3)
C135_8 C 0.2709(3) 0.6076(3) 0.8854(4)
C140_8 C 0.2760(3) 0.3766(3) 0.8855(3)
C145_8 C 0.3061(4) 0.3624(3) 0.8755(3)
C148_8 C 0.1226(4) 0.6270(4) 0.7000(4)
C149_8 C 0.1226(4) 0.3730(4) 0.8000(4)
C150_8 C 0.3000(4) 0.6226(4) 0.8730(4)
C153_8 C 0.1210(4) 0.6180(4) 0.8152(4)
C154_8 C 0.1210(4) 0.3820(4) 0.6848(4)
C155_8 C 0.1848(4) 0.6210(4) 0.8820(4)
N5_12 N 0.2500 0.4439(3) 1.0000
N9_8 N 0.2469(2) 0.4904(2) 0.9533(2)
N11_12 N 0.0379(3) 0.5000 0.7500
N12_12 N 0.2500 0.5379(3) 1.0000
O13_8 O 0.3047(3) 0.3426(3) 0.8534(3)
O29_8 O 0.1662(3) 0.3818(3) 0.8771(3)
O33_8 O 0.1138(4) 0.3829(4) 0.8251(3)
O51_8 O 0.1078(4) 0.6096(5) 0.8394(3)
O53_8 O 0.1606(3) 0.6078(4) 0.8904(5)
O69_8 O 0.1465(4) 0.6324(5) 0.8125(5)
O71_8 O 0.1875(5) 0.6465(4) 0.8676(5)
H61_8 H 0.0552365 0.721695 0.952644
H69_8 H 0.274252 0.435233 0.944944
H70_8 H 0.221695 0.547356 0.944763
H72_8 H 0.0473558 0.444763 0.721695
H73_8 H 0.0473558 0.555237 0.778305
Zn1_12 Zn 1.0000 0.7500 0.00881(5)
N1_12 N 1.0000 0.7500 0.0561(3)
C27_8 C 0.8827(3) 0.7796(3) 0.1193(3)
C32_8 C 0.8734(3) 0.7513(3) 0.1312(3)
H11_8 H 0.8570 0.7513 0.1460
C37_8 C 0.9086(3) 0.7237(3) 0.1004(3)
H16_8 H 0.9170 0.7047 0.0928
C42_8 C 0.9181(3) 0.7508(4) 0.0899(3)
C47_8 C 0.9070(3) 0.7797(3) 0.0983(3)
H21_8 H 0.9154 0.7984 0.0901
C52_8 C 0.9437(3) 0.7510(4) 0.0659(3)
C57_8 C 0.9747(3) 0.7541(4) 0.0749(3)
C62_8 C 0.8655(3) 0.8089(3) 0.1274(4)
C67_8 C 0.9340(3) 0.7539(3) 0.0349(3)
C97_8 C 0.9841(2) 0.7531(3) 0.1078(3)
H36_8 H 0.9712 0.7560 0.1254
C102_8 C 0.9010(3) 0.7541(3) 0.0249(3)
H41_8 H 0.8832 0.7551 0.0378
C137_8 C 0.8855(3) 0.7240(3) 0.1234(3)
C142_8 C 0.8755(3) 0.6939(4) 0.1376(3)
N6_8 N 0.9533(2) 0.7531(2) 0.0096(2)
O10_8 O 0.8534(3) 0.6953(3) 0.1574(3)
O26_8 O 0.8771(3) 0.8338(3) 0.1182(3)
H66_8 H 0.944944 0.725748 0.0647671
N3_12 N 1.0000 0.7500 0.9621(3)
Zn6_12 Zn 0.99119(5) 0.5000 0.7500
C28_8 C 0.8807(3) 0.6173(3) 0.7796(3)
C29_8 C 0.8807(3) 0.3827(3) 0.7204(3)
C33_8 C 0.8688(3) 0.6266(3) 0.7513(3)
C34_8 C 0.8688(3) 0.3734(3) 0.7487(3)
H12_8 H 0.8540 0.6430 0.7513
H13_8 H 0.8540 0.3570 0.7487
C38_8 C 0.8996(3) 0.5914(3) 0.7237(3)
C39_8 C 0.8996(3) 0.4086(3) 0.7763(3)
H17_8 H 0.9072 0.5830 0.7047
H18_8 H 0.9072 0.4170 0.7953
C43_8 C 0.9101(3) 0.5819(3) 0.7508(4)
C44_8 C 0.9101(3) 0.4181(3) 0.7492(4)
C48_8 C 0.9017(3) 0.5930(3) 0.7797(3)
C49_8 C 0.9017(3) 0.4070(3) 0.7203(3)
H22_8 H 0.9099 0.5846 0.7984
H23_8 H 0.9099 0.4154 0.7016
C53_8 C 0.9341(3) 0.5563(3) 0.7510(4)
C54_8 C 0.9341(3) 0.4437(3) 0.7490(4)
C58_8 C 0.9251(3) 0.5253(3) 0.7541(4)
C59_8 C 0.9251(3) 0.4747(3) 0.7459(4)
C63_8 C 0.8726(4) 0.6345(3) 0.8089(3)
C64_8 C 0.8726(4) 0.3655(3) 0.6911(3)
C68_8 C 0.9651(3) 0.5660(3) 0.7539(3)
C69_8 C 0.9651(3) 0.4340(3) 0.7461(3)
C72_8 C 0.9018(3) 0.7526(4) 0.9918(3)
H26_8 H 0.8844 0.7516 0.9782
C77_8 C 0.9347(3) 0.7529(3) 0.9830(3)
C82_8 C 0.9444(4) 0.7530(3) 0.9526(3)
C87_8 C 0.9745(3) 0.7524(4) 0.9435(3)
C92_8 C 0.9112(3) 0.7820(3) 0.9171(3)
H31_8 H 0.9203 0.8002 0.9256
C98_8 C 0.8922(3) 0.5159(2) 0.7531(3)
C99_8 C 0.8922(3) 0.4841(2) 0.7469(3)
H37_8 H 0.8746 0.5288 0.7560
H38_8 H 0.8746 0.4712 0.7440
C103_8 C 0.9751(3) 0.5990(3) 0.7541(3)
C104_8 C 0.9751(3) 0.4010(3) 0.7459(3)
H42_8 H 0.9622 0.6168 0.7551
H43_8 H 0.9622 0.3832 0.7449
C107_8 C 0.9193(2) 0.7532(4) 0.9287(3)
C112_8 C 0.9844(2) 0.7514(4) 0.9078(4)
H46_8 H 0.9711 0.7525 0.8902
C117_8 C 0.9070(3) 0.7265(3) 0.9162(3)
H51_8 H 0.9132 0.7067 0.9236
C122_8 C 0.8902(4) 0.7843(3) 0.8935(4)
C127_8 C 0.8761(3) 0.7580(3) 0.8812(3)
H56_8 H 0.8605 0.7597 0.8657
C132_8 C 0.8854(4) 0.7291(3) 0.8924(3)
C138_8 C 0.8766(3) 0.6145(3) 0.7240(3)
C139_8 C 0.8766(3) 0.3855(3) 0.7760(3)
C143_8 C 0.8624(3) 0.6245(3) 0.6939(4)
C144_8 C 0.8624(3) 0.3755(3) 0.8061(4)
C147_8 C 0.8730(4) 0.7000(4) 0.8774(4)
C152_8 C 0.8820(4) 0.8152(4) 0.8790(4)
N4_12 N 0.9439(3) 0.5000 0.7500
N7_8 N 0.9904(2) 0.5467(2) 0.7531(2)
N8_8 N 0.9904(2) 0.4533(2) 0.7469(2)
O11_8 O 0.8426(3) 0.6466(3) 0.6953(3)
O12_8 O 0.8426(3) 0.3534(3) 0.8047(3)
O27_8 O 0.8818(3) 0.6229(3) 0.8338(3)
O28_8 O 0.8818(3) 0.3771(3) 0.6662(3)
O31_8 O 0.8829(4) 0.6749(3) 0.8862(4)
O50_8 O 0.8904(5) 0.8394(3) 0.8922(4)
O68_8 O 0.8676(5) 0.8125(5) 0.8535(4)
O75_8 O 0.9133(5) 0.9133(5) 0.9133(5)
H67_8 H 0.935233 0.555056 0.725748
H68_8 H 0.935233 0.444944 0.774252
H71_8 H 0.944763 0.778305 0.952644
loop_
_geom_bond_atom_site_label_1
_geom_bond_atom_site_label_2
_geom_bond_site_symmetry_1
_geom_bond_site_symmetry_2
Zn1 N1 1_555 1_555
Zn2 O1 1_555 1_555
Zn3 O3 1_555 1_555
C1 C2 1_555 1_555
C2 H1 1_555 1_555
C3 H2 1_555 1_555
C4 C3 1_555 1_555
C5 C1 1_555 1_555
H3 C5 1_555 1_555
C6 C4 1_555 1_555
C7 C6 1_555 1_555
C8 C1 1_555 1_555
C9 C6 1_555 1_555
C15 C7 1_555 1_555
H6 C15 1_555 1_555
C16 C9 1_555 1_555
H7 C16 1_555 1_555
C23 C2 1_555 1_555
C24 C23 1_555 1_555
N1 C7 1_555 1_555
N2 Zn1 1_555 1_555
O1 C24 1_555 1_555
O3 C8 1_555 1_555
O5 C24 1_555 1_555
O7 C8 1_555 1_555
Zn8 O10 1_555 1_555
Zn14 O7 1_555 1_555
Zn15 O57 1_555 1_555
Zn22 O26 1_555 1_555
Zn28 O5 1_555 1_555
Zn29 O39 1_555 1_555
Zn38 O72 1_555 1_555
Zn41 O54 1_555 1_555
C27 C32 1_555 1_555
C32 H11 1_555 1_555
C37 H16 1_555 1_555
C42 C37 1_555 1_555
C47 C27 1_555 1_555
H21 C47 1_555 1_555
C52 C42 1_555 1_555
C57 N1 1_555 1_555
C62 C27 1_555 1_555
C67 C52 1_555 1_555
C76 H30 1_555 1_555
C81 C76 1_555 1_555
C86 C81 1_555 1_555
C91 C86 1_555 1_555
C96 H35 1_555 1_555
C97 C15 1_555 1_555
H36 C97 1_555 1_555
C102 C67 1_555 1_555
H41 C102 1_555 1_555
C111 C86 1_555 1_555
C116 C91 1_555 1_555
H50 C116 1_555 1_555
C121 C111 1_555 1_555
H55 C121 1_555 1_555
C126 C96 1_555 1_555
C131 C126 1_555 1_555
H60 C131 1_555 1_555
C136 C121 1_555 1_555
C137 C32 1_555 1_555
C142 C137 1_555 1_555
C151 C136 1_555 1_555
C156 C126 1_555 1_555
N6 Zn1 1_555 1_555
O10 C142 1_555 1_555
O19 Zn14 1_555 1_555
O20 Zn2 1_555 1_555
O21 Zn8 1_555 1_555
O26 C62 1_555 1_555
O35 Zn3 1_555 1_555
O36 Zn22 1_555 1_555
O39 C142 1_555 1_555
O44 Zn3 1_555 1_555
O45 Zn22 1_555 1_555
O54 C156 1_555 1_555
O57 C62 1_555 1_555
O62 Zn2 1_555 1_555
O63 Zn8 1_555 1_555
O72 C156 1_555 1_555
C3 C23 1_555 1_555
C4 C5 1_555 1_555
C9 N2 1_555 1_555
C37 C137 1_555 1_555
C42 C47 1_555 1_555
C52 C57 1_555 1_555
C57 C97 1_555 1_555
C67 N6 1_555 1_555
C91 N12 1_555 1_555
C96 C111 1_555 1_555
C131 C136 1_555 1_555
C151 O19 1_555 1_555
C151 O35 1_555 1_555
C6 H62 1_555 1_555
C52 H66 1_555 1_555
C86 H74 1_555 1_555
Zn4 O8 1_555 1_555
Zn5 O6 1_555 1_555
C10 H4 1_555 1_555
C11 C10 1_555 1_555
C12 C11 1_555 1_555
C13 C12 1_555 1_555
C14 H5 1_555 1_555
C17 C12 1_555 1_555
C18 C13 1_555 1_555
H8 C18 1_555 1_555
C19 C17 1_555 1_555
H9 C19 1_555 1_555
C20 C14 1_555 1_555
C21 C20 1_555 1_555
H10 C21 1_555 1_555
C22 C19 1_555 1_555
C25 C22 1_555 1_555
C26 C20 1_555 1_555
O2 C25 1_555 1_555
O4 C25 1_555 1_555
O6 C26 1_555 1_555
O8 C26 1_555 1_555
O9 Zn5 1_555 1_555
Zn6 N4 1_555 1_555
Zn9 O11 1_555 1_555
Zn13 O2 1_555 1_555
Zn16 O15 1_555 1_555
Zn17 O16 1_555 1_555
Zn20 O18 1_555 1_555
Zn23 O27 1_555 1_555
Zn27 O4 1_555 1_555
Zn30 O32 1_555 1_555
Zn31 O40 1_555 1_555
Zn33 O34 1_555 1_555
Zn36 O68 1_555 1_555
Zn39 O50 1_555 1_555
C28 C33 1_555 1_555
C33 H12 1_555 1_555
C38 H17 1_555 1_555
C43 C38 1_555 1_555
C48 C28 1_555 1_555
H22 C48 1_555 1_555
C53 C43 1_555 1_555
C58 C53 1_555 1_555
C63 C28 1_555 1_555
C68 C53 1_555 1_555
C72 H26 1_555 1_555
C73 H27 1_555 1_555
C75 H29 1_555 1_555
C77 C72 1_555 1_555
C78 C73 1_555 1_555
C80 C75 1_555 1_555
C82 C77 1_555 1_555
C83 C78 1_555 1_555
C85 C80 1_555 1_555
C87 N3 1_555 1_555
C88 C83 1_555 1_555
C90 C85 1_555 1_555
C92 H31 1_555 1_555
C93 H32 1_555 1_555
C95 H34 1_555 1_555
C98 C58 1_555 1_555
H37 C98 1_555 1_555
C103 C68 1_555 1_555
H42 C103 1_555 1_555
C107 C82 1_555 1_555
C108 C83 1_555 1_555
C110 C85 1_555 1_555
C112 C18 1_555 1_555
C113 C88 1_555 1_555
C115 C90 1_555 1_555
H46 C112 1_555 1_555
H47 C113 1_555 1_555
H49 C115 1_555 1_555
C117 C107 1_555 1_555
C118 C108 1_555 1_555
C120 C110 1_555 1_555
H51 C117 1_555 1_555
H52 C118 1_555 1_555
H54 C120 1_555 1_555
C122 C92 1_555 1_555
C123 C93 1_555 1_555
C125 C95 1_555 1_555
C127 C122 1_555 1_555
C128 C123 1_555 1_555
C130 C125 1_555 1_555
H56 C127 1_555 1_555
H57 C128 1_555 1_555
H59 C130 1_555 1_555
C132 C117 1_555 1_555
C133 C118 1_555 1_555
C135 C120 1_555 1_555
C138 C33 1_555 1_555
C143 C138 1_555 1_555
C147 C132 1_555 1_555
C148 C133 1_555 1_555
C150 C135 1_555 1_555
C152 C122 1_555 1_555
C153 C123 1_555 1_555
C155 C125 1_555 1_555
N4 C58 1_555 1_555
N7 Zn6 1_555 1_555
N11 Zn6 1_555 1_555
O11 C143 1_555 1_555
O15 C147 1_555 1_555
O16 C148 1_555 1_555
O18 C150 1_555 1_555
O22 Zn9 1_555 1_555
O27 C63 1_555 1_555
O31 Zn23 1_555 1_555
O32 C148 1_555 1_555
O34 C150 1_555 1_555
O40 C143 1_555 1_555
O46 Zn23 1_555 1_555
O50 C152 1_555 1_555
O51 Zn5 1_555 1_555
O53 Zn5 1_555 1_555
O55 Zn39 1_555 1_555
O56 Zn39 1_555 1_555
O58 Zn16 1_555 1_555
O64 Zn9 1_555 1_555
O68 C152 1_555 1_555
O69 Zn4 1_555 1_555
O71 Zn4 1_555 1_555
O73 Zn36 1_555 1_555
O74 Zn36 1_555 1_555
O75 Zn39 1_555 1_555
C13 N3 1_555 1_555
C14 C17 1_555 1_555
C21 C22 1_555 1_555
C38 C138 1_555 1_555
C43 C48 1_555 1_555
C63 O58 1_555 1_555
C68 N7 1_555 1_555
C73 C103 1_555 1_555
C78 N7 1_555 1_555
C82 C87 1_555 1_555
C87 C112 1_555 1_555
C88 N11 1_555 1_555
C90 N12_2 1_555 1_555
C92 C107 1_555 1_555
C93 C108 1_555 1_555
C95 C110 1_555 1_555
C127 C132 1_555 1_555
C128 C133 1_555 1_555
C130 C135 1_555 1_555
C147 O31 1_555 1_555
C153 O51 1_555 1_555
C153 O69 1_555 1_555
C155 O53 1_555 1_555
C155 O71 1_555 1_555
C12 H61 1_555 1_555
C53 H67 1_555 1_555
C85 H70 1_555 1_555
C82 H71 1_555 1_555
C83 H73 1_555 1_555
Zn7 N5 1_555 1_555
Zn12 O14 1_555 1_555
Zn21 O61 1_555 1_555
Zn26 O30 1_555 1_555
Zn35 O43 1_555 1_555
C31 C36 1_555 1_555
C36 H15 1_555 1_555
C41 H20 1_555 1_555
C46 C41 1_555 1_555
C51 C31 1_555 1_555
H25 C51 1_555 1_555
C56 C46 1_555 1_555
C61 C56 1_555 1_555
C66 C31 1_555 1_555
C71 C56 1_555 1_555
C101 C61 1_555 1_555
H40 C101 1_555 1_555
C106 C71 1_555 1_555
H45 C106 1_555 1_555
C141 C36 1_555 1_555
C146 C141 1_555 1_555
N10 Zn7 1_555 1_555
O14 C146 1_555 1_555
O25 Zn12 1_555 1_555
O30 C66 1_555 1_555
O38 Zn26 1_555 1_555
O43 C146 1_555 1_555
O49 Zn26 1_555 1_555
O61 C66 1_555 1_555
O67 Zn12 1_555 1_555
C41 C141 1_555 1_555
C46 C51 1_555 1_555
C61 N5 1_555 1_555
C71 N10 1_555 1_555
C56 H65 1_555 1_555
Zn6_2 N4_2 1_555 1_555
Zn7_2 N5_2 1_555 1_555
Zn10 O12 1_555 1_555
Zn11 O13 1_555 1_555
Zn18 O59 1_555 1_555
Zn19 O17 1_555 1_555
Zn24 O28 1_555 1_555
Zn25 O29 1_555 1_555
Zn32 O41 1_555 1_555
Zn34 O42 1_555 1_555
Zn37 O70 1_555 1_555
Zn40 O52 1_555 1_555
C29 C34 1_555 1_555
C30 C35 1_555 1_555
C34 H13 1_555 1_555
C35 H14 1_555 1_555
C39 H18 1_555 1_555
C40 H19 1_555 1_555
C44 C39 1_555 1_555
C45 C40 1_555 1_555
C49 C29 1_555 1_555
C50 C30 1_555 1_555
H23 C49 1_555 1_555
H24 C50 1_555 1_555
C54 C44 1_555 1_555
C55 C45 1_555 1_555
C59 C54 1_555 1_555
C60 C55 1_555 1_555
C64 C29 1_555 1_555
C65 C30 1_555 1_555
C69 C54 1_555 1_555
C70 C55 1_555 1_555
C74 H28 1_555 1_555
C79 C74 1_555 1_555
C84 C79 1_555 1_555
C89 C84 1_555 1_555
C94 H33 1_555 1_555
C99 C59 1_555 1_555
C100 C60 1_555 1_555
H38 C99 1_555 1_555
H39 C100 1_555 1_555
C104 C69 1_555 1_555
C105 C70 1_555 1_555
H43 C104 1_555 1_555
H44 C105 1_555 1_555
C109 C84 1_555 1_555
C114 C89 1_555 1_555
H48 C114 1_555 1_555
C119 C109 1_555 1_555
H53 C119 1_555 1_555
C124 C94 1_555 1_555
C129 C124 1_555 1_555
H58 C129 1_555 1_555
C134 C119 1_555 1_555
C139 C34 1_555 1_555
C140 C35 1_555 1_555
C144 C139 1_555 1_555
C145 C140 1_555 1_555
C149 C134 1_555 1_555
C154 C124 1_555 1_555
N5_2 C60 1_555 1_555
N8 Zn6_2 1_555 1_555
N9 Zn7_2 1_555 1_555
N11_2 Zn6_2 1_555 1_555
O12 C144 1_555 1_555
O13 C145 1_555 1_555
O17 C149 1_555 1_555
O23 Zn10 1_555 1_555
O24 Zn11 1_555 1_555
O28 C64 1_555 1_555
O29 C65 1_555 1_555
O33 Zn25 1_555 1_555
O37 Zn24 1_555 1_555
O41 C144 1_555 1_555
O42 C145 1_555 1_555
O47 Zn24 1_555 1_555
O48 Zn25 1_555 1_555
O52 C154 1_555 1_555
O59 C64 1_555 1_555
O60 Zn19 1_555 1_555
O65 Zn10 1_555 1_555
O66 Zn11 1_555 1_555
O70 C154 1_555 1_555
C39 C139 1_555 1_555
C40 C140 1_555 1_555
C44 C49 1_555 1_555
C45 C50 1_555 1_555
C59 N4_2 1_555 1_555
C65 O60 1_555 1_555
C69 N8 1_555 1_555
C70 N9 1_555 1_555
C74 C104 1_555 1_555
C79 N8 1_555 1_555
C89 N11_2 1_555 1_555
C94 C109 1_555 1_555
C129 C134 1_555 1_555
C149 O33 1_555 1_555
C54 H68 1_555 1_555
C55 H69 1_555 1_555
C84 H72 1_555 1_555
Zn7_3 N5_3 1_555 1_555
Zn11_2 O13_2 1_555 1_555
Zn12_2 O14_2 1_555 1_555
Zn19_2 O17_2 1_555 1_555
Zn17 O61_2 1_555 1_555
Zn25_2 O29_2 1_555 1_555
Zn30 O30_2 1_555 1_555
Zn34_2 O42_2 1_555 1_555
Zn35_2 O43_2 1_555 1_555
Zn38 O70_2 1_555 1_555
Zn41 O52_2 1_555 1_555
C30_2 C35_2 1_555 1_555
C31_2 C36_2 1_555 1_555
C35_2 H14_2 1_555 1_555
C36_2 H15_2 1_555 1_555
C40_2 H19_2 1_555 1_555
C41_2 H20_2 1_555 1_555
C45_2 C40_2 1_555 1_555
C46_2 C41_2 1_555 1_555
C50_2 C30_2 1_555 1_555
C51_2 C31_2 1_555 1_555
H24_2 C50_2 1_555 1_555
H25_2 C51_2 1_555 1_555
C55_2 C45_2 1_555 1_555
C56_2 C46_2 1_555 1_555
C60_2 C55_2 1_555 1_555
C61_2 C56_2 1_555 1_555
C65_2 C30_2 1_555 1_555
C66_2 C31_2 1_555 1_555
C70_2 C55_2 1_555 1_555
C71_2 C56_2 1_555 1_555
C74_2 H28_2 1_555 1_555
C79_2 C74_2 1_555 1_555
C84_2 C79_2 1_555 1_555
C89_2 C84_2 1_555 1_555
C94_2 H33_2 1_555 1_555
C100_2 C60_2 1_555 1_555
C101_2 C61_2 1_555 1_555
H39_2 C100_2 1_555 1_555
H40_2 C101_2 1_555 1_555
C105_2 C70_2 1_555 1_555
C106_2 C71_2 1_555 1_555
H44_2 C105_2 1_555 1_555
H45_2 C106_2 1_555 1_555
C109_2 C84_2 1_555 1_555
C114_2 C89_2 1_555 1_555
H48_2 C114_2 1_555 1_555
C119_2 C109_2 1_555 1_555
H53_2 C119_2 1_555 1_555
C124_2 C94_2 1_555 1_555
C129_2 C124_2 1_555 1_555
H58_2 C129_2 1_555 1_555
C134_2 C119_2 1_555 1_555
C140_2 C35_2 1_555 1_555
C141_2 C36_2 1_555 1_555
C145_2 C140_2 1_555 1_555
C146_2 C141_2 1_555 1_555
C149_2 C134_2 1_555 1_555
C154_2 C124_2 1_555 1_555
N5_3 C60_2 1_555 1_555
N9_2 Zn7_3 1_555 1_555
N10_2 Zn7_3 1_555 1_555
O13_2 C145_2 1_555 1_555
O14_2 C146_2 1_555 1_555
O17_2 C149_2 1_555 1_555
O24_2 Zn11_2 1_555 1_555
O25_2 Zn12_2 1_555 1_555
O29_2 C65_2 1_555 1_555
O30_2 C66_2 1_555 1_555
O33_2 Zn25_2 1_555 1_555
O42_2 C145_2 1_555 1_555
O43_2 C146_2 1_555 1_555
O48_2 Zn25_2 1_555 1_555
O49_2 Zn30 1_555 1_555
O52_2 C154_2 1_555 1_555
O60_2 Zn19_2 1_555 1_555
O61_2 C66_2 1_555 1_555
O66_2 Zn11_2 1_555 1_555
O67_2 Zn12_2 1_555 1_555
O70_2 C154_2 1_555 1_555
C40_2 C140_2 1_555 1_555
C41_2 C141_2 1_555 1_555
C45_2 C50_2 1_555 1_555
C46_2 C51_2 1_555 1_555
C61_2 N5_3 1_555 1_555
C65_2 O60_2 1_555 1_555
C70_2 N9_2 1_555 1_555
C71_2 N10_2 1_555 1_555
C89_2 N11_3 1_555 1_555
C94_2 C109_2 1_555 1_555
C100_2 C101_2 1_555 1_555
C129_2 C134_2 1_555 1_555
C149_2 O33_2 1_555 1_555
C56_2 H65_2 1_555 1_555
C55_2 H69_2 1_555 1_555
C84_2 H72_2 1_555 1_555
Zn1_2 N1_2 1_555 1_555
Zn2_2 O1_2 1_555 1_555
Zn3_2 O3_2 1_555 1_555
Zn4_2 O8_2 1_555 1_555
Zn5_2 O6_2 1_555 1_555
C1_2 C2_2 1_555 1_555
C2_2 H1_2 1_555 1_555
C3_2 H2_2 1_555 1_555
C4_2 C3_2 1_555 1_555
C5_2 C1_2 1_555 1_555
H3_2 C5_2 1_555 1_555
C6_2 C4_2 1_555 1_555
C7_2 C6_2 1_555 1_555
C8_2 C1_2 1_555 1_555
C9_2 C6_2 1_555 1_555
C10_2 H4_2 1_555 1_555
C11_2 C10_2 1_555 1_555
C12_2 C11_2 1_555 1_555
C13_2 C12_2 1_555 1_555
C14_2 H5_2 1_555 1_555
C15_2 C7_2 1_555 1_555
H6_2 C15_2 1_555 1_555
C16_2 C9_2 1_555 1_555
H7_2 C16_2 1_555 1_555
C17_2 C12_2 1_555 1_555
C18_2 C13_2 1_555 1_555
H8_2 C18_2 1_555 1_555
C19_2 C17_2 1_555 1_555
H9_2 C19_2 1_555 1_555
C20_2 C14_2 1_555 1_555
C21_2 C20_2 1_555 1_555
H10_2 C21_2 1_555 1_555
C22_2 C19_2 1_555 1_555
C23_2 C2_2 1_555 1_555
C24_2 C23_2 1_555 1_555
C25_2 C22_2 1_555 1_555
C26_2 C20_2 1_555 1_555
N1_2 C7_2 1_555 1_555
N2_2 Zn1_2 1_555 1_555
N3_2 Zn1_2 1_555 1_555
O1_2 C24_2 1_555 1_555
O2_2 C25_2 1_555 1_555
O3_2 C8_2 1_555 1_555
O4_2 C25_2 1_555 1_555
O5_2 C24_2 1_555 1_555
O6_2 C26_2 1_555 1_555
O7_2 C8_2 1_555 1_555
O8_2 C26_2 1_555 1_555
O9_2 Zn5_2 1_555 1_555
Zn13_2 O2_2 1_555 1_555
Zn14_2 O7_2 1_555 1_555
Zn21 O16_2 1_555 1_555
Zn20_2 O18_2 1_555 1_555
Zn27_2 O4_2 1_555 1_555
Zn28_2 O5_2 1_555 1_555
Zn33_2 O34_2 1_555 1_555
Zn37 O72_2 1_555 1_555
Zn40 O54_2 1_555 1_555
C73_2 H27_2 1_555 1_555
C75_2 H29_2 1_555 1_555
C76_2 H30_2 1_555 1_555
C78_2 C73_2 1_555 1_555
C80_2 C75_2 1_555 1_555
C81_2 C76_2 1_555 1_555
C83_2 C78_2 1_555 1_555
C85_2 C80_2 1_555 1_555
C86_2 C81_2 1_555 1_555
C88_2 C83_2 1_555 1_555
C90_2 C85_2 1_555 1_555
C91_2 C86_2 1_555 1_555
C93_2 H32_2 1_555 1_555
C95_2 H34_2 1_555 1_555
C96_2 H35_2 1_555 1_555
C108_2 C83_2 1_555 1_555
C110_2 C85_2 1_555 1_555
C111_2 C86_2 1_555 1_555
C113_2 C88_2 1_555 1_555
C115_2 C90_2 1_555 1_555
C116_2 C91_2 1_555 1_555
H47_2 C113_2 1_555 1_555
H49_2 C115_2 1_555 1_555
H50_2 C116_2 1_555 1_555
C118_2 C108_2 1_555 1_555
C120_2 C110_2 1_555 1_555
C121_2 C111_2 1_555 1_555
H52_2 C118_2 1_555 1_555
H54_2 C120_2 1_555 1_555
H55_2 C121_2 1_555 1_555
C123_2 C93_2 1_555 1_555
C125_2 C95_2 1_555 1_555
C126_2 C96_2 1_555 1_555
C128_2 C123_2 1_555 1_555
C130_2 C125_2 1_555 1_555
C131_2 C126_2 1_555 1_555
H57_2 C128_2 1_555 1_555
H59_2 C130_2 1_555 1_555
H60_2 C131_2 1_555 1_555
C133_2 C118_2 1_555 1_555
C135_2 C120_2 1_555 1_555
C136_2 C121_2 1_555 1_555
C148_2 C133_2 1_555 1_555
C150_2 C135_2 1_555 1_555
C151_2 C136_2 1_555 1_555
C153_2 C123_2 1_555 1_555
C155_2 C125_2 1_555 1_555
C156_2 C126_2 1_555 1_555
O16_2 C148_2 1_555 1_555
O18_2 C150_2 1_555 1_555
O19_2 Zn14_2 1_555 1_555
O20_2 Zn2_2 1_555 1_555
O38 C148_2 1_555 1_555
O34_2 C150_2 1_555 1_555
O35_2 Zn3_2 1_555 1_555
O44_2 Zn3_2 1_555 1_555
O51_2 Zn5_2 1_555 1_555
O53_2 Zn5_2 1_555 1_555
O54_2 C156_2 1_555 1_555
O62_2 Zn2_2 1_555 1_555
O69_2 Zn4_2 1_555 1_555
O71_2 Zn4_2 1_555 1_555
O72_2 C156_2 1_555 1_555
C3_2 C23_2 1_555 1_555
C4_2 C5_2 1_555 1_555
C9_2 N2_2 1_555 1_555
C10_2 C16_2 1_555 1_555
C11_2 N2_2 1_555 1_555
C13_2 N3_2 1_555 1_555
C14_2 C17_2 1_555 1_555
C21_2 C22_2 1_555 1_555
C88_2 N11_4 1_555 1_555
C90_2 N12_3 1_555 1_555
C91_2 N12_3 1_555 1_555
C93_2 C108_2 1_555 1_555
C95_2 C110_2 1_555 1_555
C96_2 C111_2 1_555 1_555
C115_2 C116_2 1_555 1_555
C128_2 C133_2 1_555 1_555
C130_2 C135_2 1_555 1_555
C131_2 C136_2 1_555 1_555
C151_2 O19_2 1_555 1_555
C151_2 O35_2 1_555 1_555
C153_2 O51_2 1_555 1_555
C153_2 O69_2 1_555 1_555
C155_2 O53_2 1_555 1_555
C155_2 O71_2 1_555 1_555
C12_2 H61_2 1_555 1_555
C6_2 H62_2 1_555 1_555
C85_2 H70_2 1_555 1_555
C83_2 H73_2 1_555 1_555
C86_2 H74_2 1_555 1_555
Zn6_3 N4_3 1_555 1_555
Zn10_2 O12_2 1_555 1_555
Zn18_2 O59_2 1_555 1_555
Zn24_2 O28_2 1_555 1_555
Zn32_2 O41_2 1_555 1_555
C29_2 C34_2 1_555 1_555
C34_2 H13_2 1_555 1_555
C39_2 H18_2 1_555 1_555
C44_2 C39_2 1_555 1_555
C49_2 C29_2 1_555 1_555
H23_2 C49_2 1_555 1_555
C54_2 C44_2 1_555 1_555
C59_2 C54_2 1_555 1_555
C64_2 C29_2 1_555 1_555
C69_2 C54_2 1_555 1_555
C99_2 C59_2 1_555 1_555
H38_2 C99_2 1_555 1_555
C104_2 C69_2 1_555 1_555
H43_2 C104_2 1_555 1_555
C139_2 C34_2 1_555 1_555
C144_2 C139_2 1_555 1_555
N8_2 Zn6_3 1_555 1_555
O12_2 C144_2 1_555 1_555
O23_2 Zn10_2 1_555 1_555
O28_2 C64_2 1_555 1_555
O37_2 Zn24_2 1_555 1_555
O41_2 C144_2 1_555 1_555
O47_2 Zn24_2 1_555 1_555
O59_2 C64_2 1_555 1_555
O65_2 Zn10_2 1_555 1_555
C39_2 C139_2 1_555 1_555
C44_2 C49_2 1_555 1_555
C59_2 N4_3 1_555 1_555
C69_2 N8_2 1_555 1_555
C54_2 H68_2 1_555 1_555
Zn1_3 N1_3 1_555 1_555
N3_3 Zn1_3 1_555 1_555
Zn6_4 N4_4 1_555 1_555
Zn8_2 O10_2 1_555 1_555
Zn9_2 O11_2 1_555 1_555
Zn15_2 O57_2 1_555 1_555
Zn16_2 O15_2 1_555 1_555
Zn22_2 O26_2 1_555 1_555
Zn23_2 O27_2 1_555 1_555
Zn29_2 O39_2 1_555 1_555
Zn31_2 O40_2 1_555 1_555
Zn36_2 O68_2 1_555 1_555
Zn39_2 O50_2 1_555 1_555
C27_2 C32_2 1_555 1_555
C28_2 C33_2 1_555 1_555
C32_2 H11_2 1_555 1_555
C33_2 H12_2 1_555 1_555
C37_2 H16_2 1_555 1_555
C38_2 H17_2 1_555 1_555
C42_2 C37_2 1_555 1_555
C43_2 C38_2 1_555 1_555
C47_2 C27_2 1_555 1_555
C48_2 C28_2 1_555 1_555
H21_2 C47_2 1_555 1_555
H22_2 C48_2 1_555 1_555
C52_2 C42_2 1_555 1_555
C53_2 C43_2 1_555 1_555
C57_2 N1_3 1_555 1_555
C58_2 C53_2 1_555 1_555
C62_2 C27_2 1_555 1_555
C63_2 C28_2 1_555 1_555
C67_2 C52_2 1_555 1_555
C68_2 C53_2 1_555 1_555
C72_2 H26_2 1_555 1_555
C77_2 C72_2 1_555 1_555
C82_2 C77_2 1_555 1_555
C87_2 N3_3 1_555 1_555
C92_2 H31_2 1_555 1_555
C98_2 C58_2 1_555 1_555
H36_2 C97_2 1_555 1_555
H37_2 C98_2 1_555 1_555
C102_2 C67_2 1_555 1_555
C103_2 C68_2 1_555 1_555
H41_2 C102_2 1_555 1_555
H42_2 C103_2 1_555 1_555
C107_2 C82_2 1_555 1_555
H46_2 C112_2 1_555 1_555
C117_2 C107_2 1_555 1_555
H51_2 C117_2 1_555 1_555
C122_2 C92_2 1_555 1_555
C127_2 C122_2 1_555 1_555
H56_2 C127_2 1_555 1_555
C132_2 C117_2 1_555 1_555
C137_2 C32_2 1_555 1_555
C138_2 C33_2 1_555 1_555
C142_2 C137_2 1_555 1_555
C143_2 C138_2 1_555 1_555
C147_2 C132_2 1_555 1_555
C152_2 C122_2 1_555 1_555
N4_4 C58_2 1_555 1_555
N6_2 Zn1_3 1_555 1_555
N7_2 Zn6_4 1_555 1_555
O10_2 C142_2 1_555 1_555
O11_2 C143_2 1_555 1_555
O15_2 C147_2 1_555 1_555
O21_2 Zn8_2 1_555 1_555
O22_2 Zn9_2 1_555 1_555
O26_2 C62_2 1_555 1_555
O27_2 C63_2 1_555 1_555
O31_2 Zn23_2 1_555 1_555
O36_2 Zn22_2 1_555 1_555
O39_2 C142_2 1_555 1_555
O40_2 C143_2 1_555 1_555
O45_2 Zn22_2 1_555 1_555
O46_2 Zn23_2 1_555 1_555
O50_2 C152_2 1_555 1_555
O55_2 Zn39_2 1_555 1_555
O56_2 Zn39_2 1_555 1_555
O57_2 C62_2 1_555 1_555
O58_2 Zn16_2 1_555 1_555
O63_2 Zn8_2 1_555 1_555
O64_2 Zn9_2 1_555 1_555
O68_2 C152_2 1_555 1_555
O73_2 Zn36_2 1_555 1_555
O74_2 Zn36_2 1_555 1_555
O75_2 Zn39_2 1_555 1_555
C37_2 C137_2 1_555 1_555
C38_2 C138_2 1_555 1_555
C42_2 C47_2 1_555 1_555
C43_2 C48_2 1_555 1_555
C52_2 C57_2 1_555 1_555
C57_2 C97_2 1_555 1_555
C63_2 O58_2 1_555 1_555
C67_2 N6_2 1_555 1_555
C68_2 N7_2 1_555 1_555
C72_2 C102_2 1_555 1_555
C77_2 N6_2 1_555 1_555
C82_2 C87_2 1_555 1_555
C87_2 C112_2 1_555 1_555
C92_2 C107_2 1_555 1_555
C127_2 C132_2 1_555 1_555
C147_2 O31_2 1_555 1_555
C52_2 H66_2 1_555 1_555
C53_2 H67_2 1_555 1_555
C82_2 H71_2 1_555 1_555
Zn1_4 N1_4 1_555 1_555
Zn2_3 O1_3 1_555 1_555
Zn3_3 O3_3 1_555 1_555
Zn4_3 O8_3 1_555 1_555
Zn5_3 O6_3 1_555 1_555
C1_3 C2_3 1_555 1_555
C2_3 H1_3 1_555 1_555
C3_3 H2_3 1_555 1_555
C4_3 C3_3 1_555 1_555
C5_3 C1_3 1_555 1_555
H3_3 C5_3 1_555 1_555
C6_3 C4_3 1_555 1_555
C7_3 C6_3 1_555 1_555
C8_3 C1_3 1_555 1_555
C9_3 C6_3 1_555 1_555
C10_3 H4_3 1_555 1_555
C11_3 C10_3 1_555 1_555
C12_3 C11_3 1_555 1_555
C13_3 C12_3 1_555 1_555
C14_3 H5_3 1_555 1_555
C15_3 C7_3 1_555 1_555
H6_3 C15_3 1_555 1_555
C16_3 C9_3 1_555 1_555
H7_3 C16_3 1_555 1_555
C17_3 C12_3 1_555 1_555
C18_3 C13_3 1_555 1_555
H8_3 C18_3 1_555 1_555
C19_3 C17_3 1_555 1_555
H9_3 C19_3 1_555 1_555
C20_3 C14_3 1_555 1_555
C21_3 C20_3 1_555 1_555
H10_3 C21_3 1_555 1_555
C22_3 C19_3 1_555 1_555
C23_3 C2_3 1_555 1_555
C24_3 C23_3 1_555 1_555
C25_3 C22_3 1_555 1_555
C26_3 C20_3 1_555 1_555
N1_4 C7_3 1_555 1_555
N2_3 Zn1_4 1_555 1_555
N3_4 Zn1_4 1_555 1_555
O1_3 C24_3 1_555 1_555
O2_3 C25_3 1_555 1_555
O3_3 C8_3 1_555 1_555
O37 C25_3 1_555 1_555
O5_3 C24_3 1_555 1_555
O6_3 C26_3 1_555 1_555
O7_3 C8_3 1_555 1_555
O8_3 C26_3 1_555 1_555
O9_3 Zn5_3 1_555 1_555
Zn6_5 N4_5 1_555 1_555
Zn7_4 N5_4 1_555 1_555
Zn8_3 O10_3 1_555 1_555
Zn9_3 O11_3 1_555 1_555
Zn10_3 O12_3 1_555 1_555
Zn11_3 O13_3 1_555 1_555
Zn12_3 O14_3 1_555 1_555
Zn18 O2_3 1_555 1_555
Zn14_3 O7_3 1_555 1_555
Zn20_2 O57_3 1_555 1_555
Zn16_3 O15_3 1_555 1_555
Zn17_2 O16_3 1_555 1_555
Zn13 O59_3 1_555 1_555
Zn19_3 O17_3 1_555 1_555
Zn15_2 O18_3 1_555 1_555
Zn21_2 O61_3 1_555 1_555
Zn33_2 O26_3 1_555 1_555
Zn23_3 O27_3 1_555 1_555
Zn27 O28_3 1_555 1_555
Zn25_3 O29_3 1_555 1_555
Zn26_2 O30_3 1_555 1_555
Zn28_3 O5_3 1_555 1_555
Zn29_3 O39_3 1_555 1_555
Zn30_2 O32_2 1_555 1_555
Zn31_3 O40_3 1_555 1_555
Zn32_3 O41_3 1_555 1_555
Zn34_3 O42_3 1_555 1_555
Zn35_3 O43_3 1_555 1_555
Zn37 O68_3 1_555 1_555
Zn40 O50_3 1_555 1_555
C27_3 C32_3 1_555 1_555
C28_3 C33_3 1_555 1_555
C29_3 C34_3 1_555 1_555
C30_3 C35_3 1_555 1_555
C31_3 C36_3 1_555 1_555
C32_3 H11_3 1_555 1_555
C33_3 H12_3 1_555 1_555
C34_3 H13_3 1_555 1_555
C35_3 H14_3 1_555 1_555
C36_3 H15_3 1_555 1_555
C37_3 H16_3 1_555 1_555
C38_3 H17_3 1_555 1_555
C39_3 H18_3 1_555 1_555
C40_3 H19_3 1_555 1_555
C41_3 H20_3 1_555 1_555
C42_3 C37_3 1_555 1_555
C43_3 C38_3 1_555 1_555
C44_3 C39_3 1_555 1_555
C45_3 C40_3 1_555 1_555
C46_3 C41_3 1_555 1_555
C47_3 C27_3 1_555 1_555
C48_3 C28_3 1_555 1_555
C49_3 C29_3 1_555 1_555
C50_3 C30_3 1_555 1_555
C51_3 C31_3 1_555 1_555
H21_3 C47_3 1_555 1_555
H22_3 C48_3 1_555 1_555
H23_3 C49_3 1_555 1_555
H24_3 C50_3 1_555 1_555
H25_3 C51_3 1_555 1_555
C52_3 C42_3 1_555 1_555
C53_3 C43_3 1_555 1_555
C54_3 C44_3 1_555 1_555
C55_3 C45_3 1_555 1_555
C56_3 C46_3 1_555 1_555
C57_3 N1_4 1_555 1_555
C58_3 C53_3 1_555 1_555
C59_3 C54_3 1_555 1_555
C60_3 C55_3 1_555 1_555
C61_3 C56_3 1_555 1_555
C62_3 C27_3 1_555 1_555
C63_3 C28_3 1_555 1_555
C64_3 C29_3 1_555 1_555
C65_3 C30_3 1_555 1_555
C66_3 C31_3 1_555 1_555
C67_3 C52_3 1_555 1_555
C68_3 C53_3 1_555 1_555
C69_3 C54_3 1_555 1_555
C70_3 C55_3 1_555 1_555
C71_3 C56_3 1_555 1_555
C72_3 H26_3 1_555 1_555
C73_3 H27_3 1_555 1_555
C74_3 H28_3 1_555 1_555
C75_3 H29_3 1_555 1_555
C76_3 H30_3 1_555 1_555
C77_3 C72_3 1_555 1_555
C78_3 C73_3 1_555 1_555
C79_3 C74_3 1_555 1_555
C80_3 C75_3 1_555 1_555
C81_3 C76_3 1_555 1_555
C82_3 C77_3 1_555 1_555
C83_3 C78_3 1_555 1_555
C84_3 C79_3 1_555 1_555
C85_3 C80_3 1_555 1_555
C86_3 C81_3 1_555 1_555
C87_3 N3_4 1_555 1_555
C88_3 C83_3 1_555 1_555
C89_3 C84_3 1_555 1_555
C90_3 C85_3 1_555 1_555
C91_3 C86_3 1_555 1_555
C92_3 H31_3 1_555 1_555
C93_3 H32_3 1_555 1_555
C94_3 H33_3 1_555 1_555
C95_3 H34_3 1_555 1_555
C96_3 H35_3 1_555 1_555
C97_3 C15_3 1_555 1_555
C98_3 C58_3 1_555 1_555
C99_3 C59_3 1_555 1_555
C100_3 C60_3 1_555 1_555
C101_3 C61_3 1_555 1_555
H36_3 C97_3 1_555 1_555
H37_3 C98_3 1_555 1_555
H38_3 C99_3 1_555 1_555
H39_3 C100_3 1_555 1_555
H40_3 C101_3 1_555 1_555
C102_3 C67_3 1_555 1_555
C103_3 C68_3 1_555 1_555
C104_3 C69_3 1_555 1_555
C105_3 C70_3 1_555 1_555
C106_3 C71_3 1_555 1_555
H41_3 C102_3 1_555 1_555
H42_3 C103_3 1_555 1_555
H43_3 C104_3 1_555 1_555
H44_3 C105_3 1_555 1_555
H45_3 C106_3 1_555 1_555
C107_3 C82_3 1_555 1_555
C108_3 C83_3 1_555 1_555
C109_3 C84_3 1_555 1_555
C110_3 C85_3 1_555 1_555
C111_3 C86_3 1_555 1_555
C112_3 C18_3 1_555 1_555
C113_3 C88_3 1_555 1_555
C114_3 C89_3 1_555 1_555
C115_3 C90_3 1_555 1_555
C116_3 C91_3 1_555 1_555
H46_3 C112_3 1_555 1_555
H47_3 C113_3 1_555 1_555
H48_3 C114_3 1_555 1_555
H49_3 C115_3 1_555 1_555
H50_3 C116_3 1_555 1_555
C117_3 C107_3 1_555 1_555
C118_3 C108_3 1_555 1_555
C119_3 C109_3 1_555 1_555
C120_3 C110_3 1_555 1_555
C121_3 C111_3 1_555 1_555
H51_3 C117_3 1_555 1_555
H52_3 C118_3 1_555 1_555
H53_3 C119_3 1_555 1_555
H54_3 C120_3 1_555 1_555
H55_3 C121_3 1_555 1_555
C122_3 C92_3 1_555 1_555
C123_3 C93_3 1_555 1_555
C124_3 C94_3 1_555 1_555
C125_3 C95_3 1_555 1_555
C126_3 C96_3 1_555 1_555
C127_3 C122_3 1_555 1_555
C128_3 C123_3 1_555 1_555
C129_3 C124_3 1_555 1_555
C130_3 C125_3 1_555 1_555
C131_3 C126_3 1_555 1_555
H56_3 C127_3 1_555 1_555
H57_3 C128_3 1_555 1_555
H58_3 C129_3 1_555 1_555
H59_3 C130_3 1_555 1_555
H60_3 C131_3 1_555 1_555
C132_3 C117_3 1_555 1_555
C133_3 C118_3 1_555 1_555
C134_3 C119_3 1_555 1_555
C135_3 C120_3 1_555 1_555
C136_3 C121_3 1_555 1_555
C137_3 C32_3 1_555 1_555
C138_3 C33_3 1_555 1_555
C139_3 C34_3 1_555 1_555
C140_3 C35_3 1_555 1_555
C141_3 C36_3 1_555 1_555
C142_3 C137_3 1_555 1_555
C143_3 C138_3 1_555 1_555
C144_3 C139_3 1_555 1_555
C145_3 C140_3 1_555 1_555
C146_3 C141_3 1_555 1_555
C147_3 C132_3 1_555 1_555
C148_3 C133_3 1_555 1_555
C149_3 C134_3 1_555 1_555
C150_3 C135_3 1_555 1_555
C151_3 C136_3 1_555 1_555
C152_3 C122_3 1_555 1_555
C153_3 C123_3 1_555 1_555
C154_3 C124_3 1_555 1_555
C155_3 C125_3 1_555 1_555
C156_3 C126_3 1_555 1_555
N4_5 C58_3 1_555 1_555
N5_4 C60_3 1_555 1_555
N6_3 Zn1_4 1_555 1_555
N7_3 Zn6_5 1_555 1_555
N8_3 Zn6_5 1_555 1_555
N9_3 Zn7_4 1_555 1_555
N10_3 Zn7_4 1_555 1_555
N11_5 Zn6_5 1_555 1_555
N12_4 Zn7_4 1_555 1_555
O10_3 C142_3 1_555 1_555
O11_3 C143_3 1_555 1_555
O12_3 C144_3 1_555 1_555
O13_3 C145_3 1_555 1_555
O14_3 C146_3 1_555 1_555
O15_3 C147_3 1_555 1_555
O16_3 C148_3 1_555 1_555
O17_3 C149_3 1_555 1_555
O18_3 C150_3 1_555 1_555
O19_3 Zn14_3 1_555 1_555
O20_3 Zn2_3 1_555 1_555
O21_3 Zn8_3 1_555 1_555
O22_3 Zn9_3 1_555 1_555
O23_3 Zn10_3 1_555 1_555
O24_3 Zn11_3 1_555 1_555
O25_3 Zn12_3 1_555 1_555
O26_3 C62_3 1_555 1_555
O27_3 C63_3 1_555 1_555
O28_3 C64_3 1_555 1_555
O29_3 C65_3 1_555 1_555
O30_3 C66_3 1_555 1_555
O31_3 Zn23_3 1_555 1_555
O32_2 C148_3 1_555 1_555
O33_3 Zn25_3 1_555 1_555
O36_2 C150_3 1_555 1_555
O35_3 Zn3_3 1_555 1_555
O38_2 Zn26_2 1_555 1_555
O39_3 C142_3 1_555 1_555
O40_3 C143_3 1_555 1_555
O41_3 C144_3 1_555 1_555
O42_3 C145_3 1_555 1_555
O43_3 C146_3 1_555 1_555
O44_3 Zn3_3 1_555 1_555
O45_3 Zn33_2 1_555 1_555
O46_3 Zn23_3 1_555 1_555
O47_3 Zn27 1_555 1_555
O48_3 Zn25_3 1_555 1_555
O49_3 Zn26_2 1_555 1_555
O50_3 C152_3 1_555 1_555
O51_3 Zn5_3 1_555 1_555
O55 C154_3 1_555 1_555
O53_3 Zn5_3 1_555 1_555
O56_2 C156_3 1_555 1_555
O57_3 C62_3 1_555 1_555
O58_3 Zn16_3 1_555 1_555
O59_3 C64_3 1_555 1_555
O60_3 Zn19_3 1_555 1_555
O61_3 C66_3 1_555 1_555
O62_3 Zn2_3 1_555 1_555
O63_3 Zn8_3 1_555 1_555
O64_3 Zn9_3 1_555 1_555
O65_3 Zn10_3 1_555 1_555
O66_3 Zn11_3 1_555 1_555
O67_3 Zn12_3 1_555 1_555
O68_3 C152_3 1_555 1_555
O69_3 Zn4_3 1_555 1_555
O73 C154_3 1_555 1_555
O71_3 Zn4_3 1_555 1_555
O74_2 C156_3 1_555 1_555
O75_3 Zn40 1_555 1_555
C3_3 C23_3 1_555 1_555
C4_3 C5_3 1_555 1_555
C9_3 N2_3 1_555 1_555
C10_3 C16_3 1_555 1_555
C11_3 N2_3 1_555 1_555
C13_3 N3_4 1_555 1_555
C14_3 C17_3 1_555 1_555
C21_3 C22_3 1_555 1_555
C37_3 C137_3 1_555 1_555
C38_3 C138_3 1_555 1_555
C39_3 C139_3 1_555 1_555
C40_3 C140_3 1_555 1_555
C41_3 C141_3 1_555 1_555
C42_3 C47_3 1_555 1_555
C43_3 C48_3 1_555 1_555
C44_3 C49_3 1_555 1_555
C45_3 C50_3 1_555 1_555
C46_3 C51_3 1_555 1_555
C52_3 C57_3 1_555 1_555
C57_3 C97_3 1_555 1_555
C59_3 N4_5 1_555 1_555
C61_3 N5_4 1_555 1_555
C63_3 O58_3 1_555 1_555
C65_3 O60_3 1_555 1_555
C67_3 N6_3 1_555 1_555
C68_3 N7_3 1_555 1_555
C69_3 N8_3 1_555 1_555
C70_3 N9_3 1_555 1_555
C71_3 N10_3 1_555 1_555
C72_3 C102_3 1_555 1_555
C73_3 C103_3 1_555 1_555
C74_3 C104_3 1_555 1_555
C75_3 C105_3 1_555 1_555
C76_3 C106_3 1_555 1_555
C77_3 N6_3 1_555 1_555
C78_3 N7_3 1_555 1_555
C79_3 N8_3 1_555 1_555
C80_3 N9_3 1_555 1_555
C81_3 N10_3 1_555 1_555
C82_3 C87_3 1_555 1_555
C87_3 C112_3 1_555 1_555
C88_3 N11_5 1_555 1_555
C89_3 N11_5 1_555 1_555
C90_3 N12_4 1_555 1_555
C91_3 N12_4 1_555 1_555
C92_3 C107_3 1_555 1_555
C93_3 C108_3 1_555 1_555
C94_3 C109_3 1_555 1_555
C95_3 C110_3 1_555 1_555
C96_3 C111_3 1_555 1_555
C98_3 C99_3 1_555 1_555
C100_3 C101_3 1_555 1_555
C113_3 C114_3 1_555 1_555
C115_3 C116_3 1_555 1_555
C127_3 C132_3 1_555 1_555
C128_3 C133_3 1_555 1_555
C129_3 C134_3 1_555 1_555
C130_3 C135_3 1_555 1_555
C131_3 C136_3 1_555 1_555
C147_3 O31_3 1_555 1_555
C149_3 O33_3 1_555 1_555
C151_3 O19_3 1_555 1_555
C151_3 O35_3 1_555 1_555
C153_3 O51_3 1_555 1_555
C153_3 O69_3 1_555 1_555
C155_3 O53_3 1_555 1_555
C155_3 O71_3 1_555 1_555
C12_3 H61_3 1_555 1_555
C6_3 H62_3 1_555 1_555
C56_3 H65_3 1_555 1_555
C52_3 H66_3 1_555 1_555
C53_3 H67_3 1_555 1_555
C54_3 H68_3 1_555 1_555
C55_3 H69_3 1_555 1_555
C85_3 H70_3 1_555 1_555
C82_3 H71_3 1_555 1_555
C84_3 H72_3 1_555 1_555
C83_3 H73_3 1_555 1_555
C86_3 H74_3 1_555 1_555
Zn6_6 N4_6 1_555 1_555
Zn9_4 O11_4 1_555 1_555
Zn10_4 O12_4 1_555 1_555
Zn16_4 O15_4 1_555 1_555
Zn13_2 O59_4 1_555 1_555
Zn23_4 O27_4 1_555 1_555
Zn27_2 O28_4 1_555 1_555
Zn31_4 O40_4 1_555 1_555
Zn32_4 O41_4 1_555 1_555
Zn38 O68_4 1_555 1_555
Zn41 O50_4 1_555 1_555
C28_4 C33_4 1_555 1_555
C29_4 C34_4 1_555 1_555
C33_4 H12_4 1_555 1_555
C34_4 H13_4 1_555 1_555
C38_4 H17_4 1_555 1_555
C39_4 H18_4 1_555 1_555
C43_4 C38_4 1_555 1_555
C44_4 C39_4 1_555 1_555
C48_4 C28_4 1_555 1_555
C49_4 C29_4 1_555 1_555
H22_4 C48_4 1_555 1_555
H23_4 C49_4 1_555 1_555
C53_4 C43_4 1_555 1_555
C54_4 C44_4 1_555 1_555
C58_4 C53_4 1_555 1_555
C59_4 C54_4 1_555 1_555
C63_4 C28_4 1_555 1_555
C64_4 C29_4 1_555 1_555
C68_4 C53_4 1_555 1_555
C69_4 C54_4 1_555 1_555
C72_4 H26_4 1_555 1_555
C77_4 C72_4 1_555 1_555
C82_4 C77_4 1_555 1_555
C87_4 N3_5 1_555 1_555
C92_4 H31_4 1_555 1_555
C98_4 C58_4 1_555 1_555
C99_4 C59_4 1_555 1_555
H37_4 C98_4 1_555 1_555
H38_4 C99_4 1_555 1_555
C103_4 C68_4 1_555 1_555
C104_4 C69_4 1_555 1_555
H42_4 C103_4 1_555 1_555
H43_4 C104_4 1_555 1_555
C107_4 C82_4 1_555 1_555
H46_4 C112_4 1_555 1_555
C117_4 C107_4 1_555 1_555
H51_4 C117_4 1_555 1_555
C122_4 C92_4 1_555 1_555
C127_4 C122_4 1_555 1_555
H56_4 C127_4 1_555 1_555
C132_4 C117_4 1_555 1_555
C138_4 C33_4 1_555 1_555
C139_4 C34_4 1_555 1_555
C143_4 C138_4 1_555 1_555
C144_4 C139_4 1_555 1_555
C147_4 C132_4 1_555 1_555
C152_4 C122_4 1_555 1_555
N4_6 C58_4 1_555 1_555
N7_4 Zn6_6 1_555 1_555
N8_4 Zn6_6 1_555 1_555
O11_4 C143_4 1_555 1_555
O12_4 C144_4 1_555 1_555
O15_4 C147_4 1_555 1_555
O22_4 Zn9_4 1_555 1_555
O23_4 Zn10_4 1_555 1_555
O27_4 C63_4 1_555 1_555
O28_4 C64_4 1_555 1_555
O31_4 Zn23_4 1_555 1_555
O40_4 C143_4 1_555 1_555
O41_4 C144_4 1_555 1_555
O46_4 Zn23_4 1_555 1_555
O47_4 Zn27_2 1_555 1_555
O50_4 C152_4 1_555 1_555
O58_4 Zn16_4 1_555 1_555
O59_4 C64_4 1_555 1_555
O64_4 Zn9_4 1_555 1_555
O65_4 Zn10_4 1_555 1_555
O68_4 C152_4 1_555 1_555
O75_4 Zn41 1_555 1_555
C38_4 C138_4 1_555 1_555
C39_4 C139_4 1_555 1_555
C43_4 C48_4 1_555 1_555
C44_4 C49_4 1_555 1_555
C59_4 N4_6 1_555 1_555
C63_4 O58_4 1_555 1_555
C68_4 N7_4 1_555 1_555
C69_4 N8_4 1_555 1_555
C82_4 C87_4 1_555 1_555
C87_4 C112_4 1_555 1_555
C92_4 C107_4 1_555 1_555
C98_4 C99_4 1_555 1_555
C127_4 C132_4 1_555 1_555
C147_4 O31_4 1_555 1_555
C53_4 H67_4 1_555 1_555
C54_4 H68_4 1_555 1_555
C82_4 H71_4 1_555 1_555
Zn1_5 N1_5 1_555 1_555
Zn8_4 O10_4 1_555 1_555
Zn20 O57_4 1_555 1_555
Zn33 O26_4 1_555 1_555
Zn29_4 O39_4 1_555 1_555
C27_4 C32_4 1_555 1_555
C32_4 H11_4 1_555 1_555
C37_4 H16_4 1_555 1_555
C42_4 C37_4 1_555 1_555
C47_4 C27_4 1_555 1_555
H21_4 C47_4 1_555 1_555
C52_4 C42_4 1_555 1_555
C57_4 N1_5 1_555 1_555
C62_4 C27_4 1_555 1_555
C67_4 C52_4 1_555 1_555
H36_4 C97_4 1_555 1_555
C102_4 C67_4 1_555 1_555
H41_4 C102_4 1_555 1_555
C137_4 C32_4 1_555 1_555
C142_4 C137_4 1_555 1_555
N6_4 Zn1_5 1_555 1_555
O10_4 C142_4 1_555 1_555
O21_4 Zn8_4 1_555 1_555
O26_4 C62_4 1_555 1_555
O39_4 C142_4 1_555 1_555
O45_4 Zn33 1_555 1_555
O57_4 C62_4 1_555 1_555
O63_4 Zn8_4 1_555 1_555
C37_4 C137_4 1_555 1_555
C42_4 C47_4 1_555 1_555
C52_4 C57_4 1_555 1_555
C57_4 C97_4 1_555 1_555
C67_4 N6_4 1_555 1_555
C52_4 H66_4 1_555 1_555
Zn4_4 O8_4 1_555 1_555
Zn5_4 O6_4 1_555 1_555
C10_4 H4_4 1_555 1_555
C11_4 C10_4 1_555 1_555
C12_4 C11_4 1_555 1_555
C13_4 C12_4 1_555 1_555
C14_4 H5_4 1_555 1_555
C17_4 C12_4 1_555 1_555
C18_4 C13_4 1_555 1_555
H8_4 C18_4 1_555 1_555
C19_4 C17_4 1_555 1_555
H9_4 C19_4 1_555 1_555
C20_4 C14_4 1_555 1_555
C21_4 C20_4 1_555 1_555
H10_4 C21_4 1_555 1_555
C22_4 C19_4 1_555 1_555
C25_4 C22_4 1_555 1_555
C26_4 C20_4 1_555 1_555
O2_4 C25_4 1_555 1_555
O37_2 C25_4 1_555 1_555
O6_4 C26_4 1_555 1_555
O8_4 C26_4 1_555 1_555
O9_4 Zn5_4 1_555 1_555
Zn7_5 N5_5 1_555 1_555
Zn11_4 O13_4 1_555 1_555
Zn18_2 O2_4 1_555 1_555
Zn21_2 O16_4 1_555 1_555
Zn19_4 O17_4 1_555 1_555
Zn15 O18_4 1_555 1_555
Zn25_4 O29_4 1_555 1_555
Zn34_4 O42_4 1_555 1_555
C30_4 C35_4 1_555 1_555
C35_4 H14_4 1_555 1_555
C40_4 H19_4 1_555 1_555
C45_4 C40_4 1_555 1_555
C50_4 C30_4 1_555 1_555
H24_4 C50_4 1_555 1_555
C55_4 C45_4 1_555 1_555
C60_4 C55_4 1_555 1_555
C65_4 C30_4 1_555 1_555
C70_4 C55_4 1_555 1_555
C73_4 H27_4 1_555 1_555
C74_4 H28_4 1_555 1_555
C75_4 H29_4 1_555 1_555
C78_4 C73_4 1_555 1_555
C79_4 C74_4 1_555 1_555
C80_4 C75_4 1_555 1_555
C83_4 C78_4 1_555 1_555
C84_4 C79_4 1_555 1_555
C85_4 C80_4 1_555 1_555
C88_4 C83_4 1_555 1_555
C89_4 C84_4 1_555 1_555
C90_4 C85_4 1_555 1_555
C93_4 H32_4 1_555 1_555
C94_4 H33_4 1_555 1_555
C95_4 H34_4 1_555 1_555
C100_4 C60_4 1_555 1_555
H39_4 C100_4 1_555 1_555
C105_4 C70_4 1_555 1_555
H44_4 C105_4 1_555 1_555
C108_4 C83_4 1_555 1_555
C109_4 C84_4 1_555 1_555
C110_4 C85_4 1_555 1_555
C113_4 C88_4 1_555 1_555
C114_4 C89_4 1_555 1_555
C115_4 C90_4 1_555 1_555
H47_4 C113_4 1_555 1_555
H48_4 C114_4 1_555 1_555
H49_4 C115_4 1_555 1_555
C118_4 C108_4 1_555 1_555
C119_4 C109_4 1_555 1_555
C120_4 C110_4 1_555 1_555
H52_4 C118_4 1_555 1_555
H53_4 C119_4 1_555 1_555
H54_4 C120_4 1_555 1_555
C123_4 C93_4 1_555 1_555
C124_4 C94_4 1_555 1_555
C125_4 C95_4 1_555 1_555
C128_4 C123_4 1_555 1_555
C129_4 C124_4 1_555 1_555
C130_4 C125_4 1_555 1_555
H57_4 C128_4 1_555 1_555
H58_4 C129_4 1_555 1_555
H59_4 C130_4 1_555 1_555
C133_4 C118_4 1_555 1_555
C134_4 C119_4 1_555 1_555
C135_4 C120_4 1_555 1_555
C140_4 C35_4 1_555 1_555
C145_4 C140_4 1_555 1_555
C148_4 C133_4 1_555 1_555
C149_4 C134_4 1_555 1_555
C150_4 C135_4 1_555 1_555
C153_4 C123_4 1_555 1_555
C154_4 C124_4 1_555 1_555
C155_4 C125_4 1_555 1_555
N5_5 C60_4 1_555 1_555
N9_4 Zn7_5 1_555 1_555
N12_5 Zn7_5 1_555 1_555
O13_4 C145_4 1_555 1_555
O16_4 C148_4 1_555 1_555
O17_4 C149_4 1_555 1_555
O18_4 C150_4 1_555 1_555
O24_4 Zn11_4 1_555 1_555
O29_4 C65_4 1_555 1_555
O38_2 C148_4 1_555 1_555
O33_4 Zn25_4 1_555 1_555
O36 C150_4 1_555 1_555
O42_4 C145_4 1_555 1_555
O48_4 Zn25_4 1_555 1_555
O51_4 Zn5_4 1_555 1_555
O55_2 C154_4 1_555 1_555
O53_4 Zn5_4 1_555 1_555
O60_4 Zn19_4 1_555 1_555
O66_4 Zn11_4 1_555 1_555
O69_4 Zn4_4 1_555 1_555
O73_2 C154_4 1_555 1_555
O71_4 Zn4_4 1_555 1_555
C13_4 N3_6 1_555 1_555
C14_4 C17_4 1_555 1_555
C21_4 C22_4 1_555 1_555
C40_4 C140_4 1_555 1_555
C45_4 C50_4 1_555 1_555
C65_4 O60_4 1_555 1_555
C70_4 N9_4 1_555 1_555
C75_4 C105_4 1_555 1_555
C80_4 N9_4 1_555 1_555
C88_4 N11_6 1_555 1_555
C89_4 N11_6 1_555 1_555
C90_4 N12_5 1_555 1_555
C93_4 C108_4 1_555 1_555
C94_4 C109_4 1_555 1_555
C95_4 C110_4 1_555 1_555
C113_4 C114_4 1_555 1_555
C128_4 C133_4 1_555 1_555
C129_4 C134_4 1_555 1_555
C130_4 C135_4 1_555 1_555
C149_4 O33_4 1_555 1_555
C153_4 O51_4 1_555 1_555
C153_4 O69_4 1_555 1_555
C155_4 O53_4 1_555 1_555
C155_4 O71_4 1_555 1_555
C12_4 H61_4 1_555 1_555
C55_4 H69_4 1_555 1_555
C85_4 H70_4 1_555 1_555
C84_4 H72_4 1_555 1_555
C83_4 H73_4 1_555 1_555
Zn1_6 N1_6 1_555 1_555
Zn2_4 O1_4 1_555 1_555
Zn3_4 O3_4 1_555 1_555
C1_4 C2_4 1_555 1_555
C2_4 H1_4 1_555 1_555
C3_4 H2_4 1_555 1_555
C4_4 C3_4 1_555 1_555
C5_4 C1_4 1_555 1_555
H3_4 C5_4 1_555 1_555
C6_4 C4_4 1_555 1_555
C7_4 C6_4 1_555 1_555
C8_4 C1_4 1_555 1_555
C9_4 C6_4 1_555 1_555
C15_4 C7_4 1_555 1_555
H6_4 C15_4 1_555 1_555
C16_4 C9_4 1_555 1_555
H7_4 C16_4 1_555 1_555
C23_4 C2_4 1_555 1_555
C24_4 C23_4 1_555 1_555
N1_6 C7_4 1_555 1_555
N2_4 Zn1_6 1_555 1_555
O1_4 C24_4 1_555 1_555
O3_4 C8_4 1_555 1_555
O5_4 C24_4 1_555 1_555
O7_4 C8_4 1_555 1_555
Zn7_6 N5_6 1_555 1_555
Zn12_4 O14_4 1_555 1_555
Zn14_4 O7_4 1_555 1_555
Zn17_2 O61_4 1_555 1_555
Zn30_2 O30_4 1_555 1_555
Zn28_4 O5_4 1_555 1_555
Zn35_4 O43_4 1_555 1_555
C31_4 C36_4 1_555 1_555
C36_4 H15_4 1_555 1_555
C41_4 H20_4 1_555 1_555
C46_4 C41_4 1_555 1_555
C51_4 C31_4 1_555 1_555
H25_4 C51_4 1_555 1_555
C56_4 C46_4 1_555 1_555
C61_4 C56_4 1_555 1_555
C66_4 C31_4 1_555 1_555
C71_4 C56_4 1_555 1_555
C76_4 H30_4 1_555 1_555
C81_4 C76_4 1_555 1_555
C86_4 C81_4 1_555 1_555
C91_4 C86_4 1_555 1_555
C96_4 H35_4 1_555 1_555
C101_4 C61_4 1_555 1_555
H40_4 C101_4 1_555 1_555
C106_4 C71_4 1_555 1_555
H45_4 C106_4 1_555 1_555
C111_4 C86_4 1_555 1_555
C116_4 C91_4 1_555 1_555
H50_4 C116_4 1_555 1_555
C121_4 C111_4 1_555 1_555
H55_4 C121_4 1_555 1_555
C126_4 C96_4 1_555 1_555
C131_4 C126_4 1_555 1_555
H60_4 C131_4 1_555 1_555
C136_4 C121_4 1_555 1_555
C141_4 C36_4 1_555 1_555
C146_4 C141_4 1_555 1_555
C151_4 C136_4 1_555 1_555
C156_4 C126_4 1_555 1_555
N10_4 Zn7_6 1_555 1_555
N12_6 Zn7_6 1_555 1_555
O14_4 C146_4 1_555 1_555
O19_4 Zn14_4 1_555 1_555
O20_4 Zn2_4 1_555 1_555
O25_4 Zn12_4 1_555 1_555
O30_4 C66_4 1_555 1_555
O35_4 Zn3_4 1_555 1_555
O43_4 C146_4 1_555 1_555
O44_4 Zn3_4 1_555 1_555
O49_4 Zn30_2 1_555 1_555
O56 C156_4 1_555 1_555
O61_4 C66_4 1_555 1_555
O62_4 Zn2_4 1_555 1_555
O67_4 Zn12_4 1_555 1_555
O74 C156_4 1_555 1_555
C3_4 C23_4 1_555 1_555
C4_4 C5_4 1_555 1_555
C9_4 N2_4 1_555 1_555
C41_4 C141_4 1_555 1_555
C46_4 C51_4 1_555 1_555
C61_4 N5_6 1_555 1_555
C71_4 N10_4 1_555 1_555
C76_4 C106_4 1_555 1_555
C81_4 N10_4 1_555 1_555
C91_4 N12_6 1_555 1_555
C96_4 C111_4 1_555 1_555
C131_4 C136_4 1_555 1_555
C151_4 O19_4 1_555 1_555
C151_4 O35_4 1_555 1_555
C6_4 H62_4 1_555 1_555
C56_4 H65_4 1_555 1_555
C86_4 H74_4 1_555 1_555
Zn6_7 N4_7 1_555 1_555
Zn7_7 N5_7 1_555 1_555
Zn14 O12_5 1_555 1_555
Zn18_2 O13_5 1_555 1_555
Zn34_2 O28_5 1_555 1_555
Zn29 O29_5 1_555 1_555
Zn37_2 O70_3 1_555 1_555
Zn40_2 O52_3 1_555 1_555
C29_5 C34_5 1_555 1_555
C30_5 C35_5 1_555 1_555
C34_5 H13_5 1_555 1_555
C35_5 H14_5 1_555 1_555
C39_5 H18_5 1_555 1_555
C40_5 H19_5 1_555 1_555
C44_5 C39_5 1_555 1_555
C45_5 C40_5 1_555 1_555
C49_5 C29_5 1_555 1_555
C50_5 C30_5 1_555 1_555
H23_5 C49_5 1_555 1_555
H24_5 C50_5 1_555 1_555
C54_5 C44_5 1_555 1_555
C55_5 C45_5 1_555 1_555
C59_5 C54_5 1_555 1_555
C60_5 C55_5 1_555 1_555
C64_5 C29_5 1_555 1_555
C65_5 C30_5 1_555 1_555
C69_5 C54_5 1_555 1_555
C70_5 C55_5 1_555 1_555
C74_5 H28_5 1_555 1_555
C79_5 C74_5 1_555 1_555
C84_5 C79_5 1_555 1_555
C89_5 C84_5 1_555 1_555
C94_5 H33_5 1_555 1_555
C99_5 C59_5 1_555 1_555
C100_5 C60_5 1_555 1_555
H38_5 C99_5 1_555 1_555
H39_5 C100_5 1_555 1_555
C104_5 C69_5 1_555 1_555
C105_5 C70_5 1_555 1_555
H43_5 C104_5 1_555 1_555
H44_5 C105_5 1_555 1_555
C109_5 C84_5 1_555 1_555
C114_5 C89_5 1_555 1_555
H48_5 C114_5 1_555 1_555
C119_5 C109_5 1_555 1_555
H53_5 C119_5 1_555 1_555
C124_5 C94_5 1_555 1_555
C129_5 C124_5 1_555 1_555
H58_5 C129_5 1_555 1_555
C134_5 C119_5 1_555 1_555
C139_5 C34_5 1_555 1_555
C140_5 C35_5 1_555 1_555
C144_5 C139_5 1_555 1_555
C145_5 C140_5 1_555 1_555
C149_5 C134_5 1_555 1_555
C154_5 C124_5 1_555 1_555
N5_7 C60_5 1_555 1_555
N8_5 Zn6_7 1_555 1_555
N9_5 Zn7_7 1_555 1_555
N11_7 Zn6_7 1_555 1_555
O12_5 C144_5 1_555 1_555
O13_5 C145_5 1_555 1_555
O21 C149_5 1_555 1_555
O28_5 C64_5 1_555 1_555
O29_5 C65_5 1_555 1_555
O33_5 Zn29 1_555 1_555
O37_3 Zn34_2 1_555 1_555
O44 C144_5 1_555 1_555
O47_2 C145_5 1_555 1_555
O52_3 C154_5 1_555 1_555
O66_2 C64_5 1_555 1_555
O70_3 C154_5 1_555 1_555
C39_5 C139_5 1_555 1_555
C40_5 C140_5 1_555 1_555
C44_5 C49_5 1_555 1_555
C45_5 C50_5 1_555 1_555
C59_5 N4_7 1_555 1_555
C65_5 O63 1_555 1_555
C69_5 N8_5 1_555 1_555
C70_5 N9_5 1_555 1_555
C74_5 C104_5 1_555 1_555
C79_5 N8_5 1_555 1_555
C89_5 N11_7 1_555 1_555
C94_5 C109_5 1_555 1_555
C129_5 C134_5 1_555 1_555
C149_5 O33_5 1_555 1_555
C54_5 H68_5 1_555 1_555
C55_5 H69_5 1_555 1_555
C84_5 H72_5 1_555 1_555
Zn7_8 N5_8 1_555 1_555
Zn16 O14_5 1_555 1_555
Zn28_4 O30_5 1_555 1_555
C31_5 C36_5 1_555 1_555
C36_5 H15_5 1_555 1_555
C41_5 H20_5 1_555 1_555
C46_5 C41_5 1_555 1_555
C51_5 C31_5 1_555 1_555
H25_5 C51_5 1_555 1_555
C56_5 C46_5 1_555 1_555
C61_5 C56_5 1_555 1_555
C66_5 C31_5 1_555 1_555
C71_5 C56_5 1_555 1_555
C101_5 C61_5 1_555 1_555
H40_5 C101_5 1_555 1_555
C106_5 C71_5 1_555 1_555
H45_5 C106_5 1_555 1_555
C141_5 C36_5 1_555 1_555
C146_5 C141_5 1_555 1_555
N10_5 Zn7_8 1_555 1_555
O14_5 C146_5 1_555 1_555
O30_5 C66_5 1_555 1_555
O38_3 Zn28_4 1_555 1_555
O46 C146_5 1_555 1_555
O62_4 C66_5 1_555 1_555
C41_5 C141_5 1_555 1_555
C46_5 C51_5 1_555 1_555
C61_5 N5_8 1_555 1_555
C71_5 N10_5 1_555 1_555
C56_5 H65_5 1_555 1_555
Zn4_5 O8_5 1_555 1_555
Zn5_5 O6_5 1_555 1_555
C10_5 H4_5 1_555 1_555
C11_5 C10_5 1_555 1_555
C12_5 C11_5 1_555 1_555
C13_5 C12_5 1_555 1_555
C14_5 H5_5 1_555 1_555
C17_5 C12_5 1_555 1_555
C18_5 C13_5 1_555 1_555
H8_5 C18_5 1_555 1_555
C19_5 C17_5 1_555 1_555
H9_5 C19_5 1_555 1_555
C20_5 C14_5 1_555 1_555
C21_5 C20_5 1_555 1_555
H10_5 C21_5 1_555 1_555
C22_5 C19_5 1_555 1_555
C25_5 C22_5 1_555 1_555
C26_5 C20_5 1_555 1_555
O24_4 C25_5 1_555 1_555
O4_3 C25_5 1_555 1_555
O6_5 C26_5 1_555 1_555
O8_5 C26_5 1_555 1_555
O9_5 Zn5_5 1_555 1_555
Zn6_8 N4_8 1_555 1_555
Zn20_2 O11_5 1_555 1_555
Zn35 O27_5 1_555 1_555
Zn34_4 O4_3 1_555 1_555
Zn28_3 O32_3 1_555 1_555
Zn31_2 O34_3 1_555 1_555
Zn36_3 O68_5 1_555 1_555
Zn39_3 O50_5 1_555 1_555
C28_5 C33_5 1_555 1_555
C33_5 H12_5 1_555 1_555
C38_5 H17_5 1_555 1_555
C43_5 C38_5 1_555 1_555
C48_5 C28_5 1_555 1_555
H22_5 C48_5 1_555 1_555
C53_5 C43_5 1_555 1_555
C58_5 C53_5 1_555 1_555
C63_5 C28_5 1_555 1_555
C68_5 C53_5 1_555 1_555
C72_5 H26_5 1_555 1_555
C73_5 H27_5 1_555 1_555
C75_5 H29_5 1_555 1_555
C77_5 C72_5 1_555 1_555
C78_5 C73_5 1_555 1_555
C80_5 C75_5 1_555 1_555
C82_5 C77_5 1_555 1_555
C83_5 C78_5 1_555 1_555
C85_5 C80_5 1_555 1_555
C87_5 N3_7 1_555 1_555
C88_5 C83_5 1_555 1_555
C90_5 C85_5 1_555 1_555
C92_5 H31_5 1_555 1_555
C93_5 H32_5 1_555 1_555
C95_5 H34_5 1_555 1_555
C98_5 C58_5 1_555 1_555
H37_5 C98_5 1_555 1_555
C103_5 C68_5 1_555 1_555
H42_5 C103_5 1_555 1_555
C107_5 C82_5 1_555 1_555
C108_5 C83_5 1_555 1_555
C110_5 C85_5 1_555 1_555
C112_5 C18_5 1_555 1_555
C113_5 C88_5 1_555 1_555
C115_5 C90_5 1_555 1_555
H46_5 C112_5 1_555 1_555
H47_5 C113_5 1_555 1_555
H49_5 C115_5 1_555 1_555
C117_5 C107_5 1_555 1_555
C118_5 C108_5 1_555 1_555
C120_5 C110_5 1_555 1_555
H51_5 C117_5 1_555 1_555
H52_5 C118_5 1_555 1_555
H54_5 C120_5 1_555 1_555
C122_5 C92_5 1_555 1_555
C123_5 C93_5 1_555 1_555
C125_5 C95_5 1_555 1_555
C127_5 C122_5 1_555 1_555
C128_5 C123_5 1_555 1_555
C130_5 C125_5 1_555 1_555
H56_5 C127_5 1_555 1_555
H57_5 C128_5 1_555 1_555
H59_5 C130_5 1_555 1_555
C132_5 C117_5 1_555 1_555
C133_5 C118_5 1_555 1_555
C135_5 C120_5 1_555 1_555
C138_5 C33_5 1_555 1_555
C143_5 C138_5 1_555 1_555
C147_5 C132_5 1_555 1_555
C148_5 C133_5 1_555 1_555
C150_5 C135_5 1_555 1_555
C152_5 C122_5 1_555 1_555
C153_5 C123_5 1_555 1_555
C155_5 C125_5 1_555 1_555
N4_8 C58_5 1_555 1_555
N7_5 Zn6_8 1_555 1_555
N11_8 Zn6_8 1_555 1_555
O11_5 C143_5 1_555 1_555
O25 C147_5 1_555 1_555
O20_3 C148_5 1_555 1_555
O22_2 C150_5 1_555 1_555
O27_5 C63_5 1_555 1_555
O31_5 Zn35 1_555 1_555
O32_3 C148_5 1_555 1_555
O34_3 C150_5 1_555 1_555
O45_3 C143_5 1_555 1_555
O50_5 C152_5 1_555 1_555
O51_5 Zn5_5 1_555 1_555
O53_5 Zn5_5 1_555 1_555
O55_3 Zn39_3 1_555 1_555
O56_3 Zn39_3 1_555 1_555
O68_5 C152_5 1_555 1_555
O69_5 Zn4_5 1_555 1_555
O71_5 Zn4_5 1_555 1_555
O73_3 Zn36_3 1_555 1_555
O74_3 Zn36_3 1_555 1_555
O75_5 Zn39_3 1_555 1_555
C13_5 N3_7 1_555 1_555
C14_5 C17_5 1_555 1_555
C21_5 C22_5 1_555 1_555
C38_5 C138_5 1_555 1_555
C43_5 C48_5 1_555 1_555
C63_5 O67 1_555 1_555
C68_5 N7_5 1_555 1_555
C73_5 C103_5 1_555 1_555
C78_5 N7_5 1_555 1_555
C82_5 C87_5 1_555 1_555
C87_5 C112_5 1_555 1_555
C88_5 N11_8 1_555 1_555
C90_5 N12_7 1_555 1_555
C92_5 C107_5 1_555 1_555
C93_5 C108_5 1_555 1_555
C95_5 C110_5 1_555 1_555
C127_5 C132_5 1_555 1_555
C128_5 C133_5 1_555 1_555
C130_5 C135_5 1_555 1_555
C147_5 O31_5 1_555 1_555
C153_5 O51_5 1_555 1_555
C153_5 O69_5 1_555 1_555
C155_5 O53_5 1_555 1_555
C155_5 O71_5 1_555 1_555
C12_5 H61_5 1_555 1_555
C53_5 H67_5 1_555 1_555
C85_5 H70_5 1_555 1_555
C82_5 H71_5 1_555 1_555
C83_5 H73_5 1_555 1_555
Zn1_7 N1_7 1_555 1_555
Zn17_2 O1_5 1_555 1_555
Zn32 O3_5 1_555 1_555
C1_5 C2_5 1_555 1_555
C2_5 H1_5 1_555 1_555
C3_5 H2_5 1_555 1_555
C4_5 C3_5 1_555 1_555
C5_5 C1_5 1_555 1_555
H3_5 C5_5 1_555 1_555
C6_5 C4_5 1_555 1_555
C7_5 C6_5 1_555 1_555
C8_5 C1_5 1_555 1_555
C9_5 C6_5 1_555 1_555
C15_5 C7_5 1_555 1_555
H6_5 C15_5 1_555 1_555
C16_5 C9_5 1_555 1_555
H7_5 C16_5 1_555 1_555
C23_5 C2_5 1_555 1_555
C24_5 C23_5 1_555 1_555
N1_7 C7_5 1_555 1_555
N2_5 Zn1_7 1_555 1_555
O1_5 C24_5 1_555 1_555
O3_5 C8_5 1_555 1_555
O49_4 C24_5 1_555 1_555
O65 C8_5 1_555 1_555
Zn19 O10_5 1_555 1_555
Zn31_3 O26_5 1_555 1_555
Zn38_2 O72_3 1_555 1_555
Zn41_2 O54_3 1_555 1_555
C27_5 C32_5 1_555 1_555
C32_5 H11_5 1_555 1_555
C37_5 H16_5 1_555 1_555
C42_5 C37_5 1_555 1_555
C47_5 C27_5 1_555 1_555
H21_5 C47_5 1_555 1_555
C52_5 C42_5 1_555 1_555
C57_5 N1_7 1_555 1_555
C62_5 C27_5 1_555 1_555
C67_5 C52_5 1_555 1_555
C76_5 H30_5 1_555 1_555
C81_5 C76_5 1_555 1_555
C86_5 C81_5 1_555 1_555
C91_5 C86_5 1_555 1_555
C96_5 H35_5 1_555 1_555
C97_5 C15_5 1_555 1_555
H36_5 C97_5 1_555 1_555
C102_5 C67_5 1_555 1_555
H41_5 C102_5 1_555 1_555
C111_5 C86_5 1_555 1_555
C116_5 C91_5 1_555 1_555
H50_5 C116_5 1_555 1_555
C121_5 C111_5 1_555 1_555
H55_5 C121_5 1_555 1_555
C126_5 C96_5 1_555 1_555
C131_5 C126_5 1_555 1_555
H60_5 C131_5 1_555 1_555
C136_5 C121_5 1_555 1_555
C137_5 C32_5 1_555 1_555
C142_5 C137_5 1_555 1_555
C151_5 C136_5 1_555 1_555
C156_5 C126_5 1_555 1_555
N6_5 Zn1_7 1_555 1_555
O10_5 C142_5 1_555 1_555
O26_5 C62_5 1_555 1_555
O35_5 Zn32 1_555 1_555
O36_3 Zn31_3 1_555 1_555
O48 C142_5 1_555 1_555
O54_3 C156_5 1_555 1_555
O64_3 C62_5 1_555 1_555
O72_3 C156_5 1_555 1_555
C3_5 C23_5 1_555 1_555
C4_5 C5_5 1_555 1_555
C9_5 N2_5 1_555 1_555
C37_5 C137_5 1_555 1_555
C42_5 C47_5 1_555 1_555
C52_5 C57_5 1_555 1_555
C57_5 C97_5 1_555 1_555
C67_5 N6_5 1_555 1_555
C91_5 N12_8 1_555 1_555
C96_5 C111_5 1_555 1_555
C131_5 C136_5 1_555 1_555
C151_5 O23 1_555 1_555
C151_5 O35_5 1_555 1_555
C6_5 H62_5 1_555 1_555
C52_5 H66_5 1_555 1_555
C86_5 H74_5 1_555 1_555
Zn1_8 N1_8 1_555 1_555
N3_8 Zn1_8 1_555 1_555
Zn6_9 N4_9 1_555 1_555
Zn19_2 O10_6 1_555 1_555
Zn20 O11_6 1_555 1_555
Zn31_4 O26_6 1_555 1_555
Zn35_2 O27_6 1_555 1_555
Zn36_4 O68_6 1_555 1_555
Zn39_4 O50_6 1_555 1_555
C27_6 C32_6 1_555 1_555
C28_6 C33_6 1_555 1_555
C32_6 H11_6 1_555 1_555
C33_6 H12_6 1_555 1_555
C37_6 H16_6 1_555 1_555
C38_6 H17_6 1_555 1_555
C42_6 C37_6 1_555 1_555
C43_6 C38_6 1_555 1_555
C47_6 C27_6 1_555 1_555
C48_6 C28_6 1_555 1_555
H21_6 C47_6 1_555 1_555
H22_6 C48_6 1_555 1_555
C52_6 C42_6 1_555 1_555
C53_6 C43_6 1_555 1_555
C57_6 N1_8 1_555 1_555
C58_6 C53_6 1_555 1_555
C62_6 C27_6 1_555 1_555
C63_6 C28_6 1_555 1_555
C67_6 C52_6 1_555 1_555
C68_6 C53_6 1_555 1_555
C72_6 H26_6 1_555 1_555
C77_6 C72_6 1_555 1_555
C82_6 C77_6 1_555 1_555
C87_6 N3_8 1_555 1_555
C92_6 H31_6 1_555 1_555
C98_6 C58_6 1_555 1_555
H36_6 C97_6 1_555 1_555
H37_6 C98_6 1_555 1_555
C102_6 C67_6 1_555 1_555
C103_6 C68_6 1_555 1_555
H41_6 C102_6 1_555 1_555
H42_6 C103_6 1_555 1_555
C107_6 C82_6 1_555 1_555
H46_6 C112_6 1_555 1_555
C117_6 C107_6 1_555 1_555
H51_6 C117_6 1_555 1_555
C122_6 C92_6 1_555 1_555
C127_6 C122_6 1_555 1_555
H56_6 C127_6 1_555 1_555
C132_6 C117_6 1_555 1_555
C137_6 C32_6 1_555 1_555
C138_6 C33_6 1_555 1_555
C142_6 C137_6 1_555 1_555
C143_6 C138_6 1_555 1_555
C147_6 C132_6 1_555 1_555
C152_6 C122_6 1_555 1_555
N4_9 C58_6 1_555 1_555
N6_6 Zn1_8 1_555 1_555
N7_6 Zn6_9 1_555 1_555
O10_6 C142_6 1_555 1_555
O11_6 C143_6 1_555 1_555
O25_2 C147_6 1_555 1_555
O26_6 C62_6 1_555 1_555
O27_6 C63_6 1_555 1_555
O31_6 Zn35_2 1_555 1_555
O36_4 Zn31_4 1_555 1_555
O48_2 C142_6 1_555 1_555
O45_4 C143_6 1_555 1_555
O50_6 C152_6 1_555 1_555
O55_4 Zn39_4 1_555 1_555
O56_4 Zn39_4 1_555 1_555
O64_4 C62_6 1_555 1_555
O68_6 C152_6 1_555 1_555
O73_4 Zn36_4 1_555 1_555
O74_4 Zn36_4 1_555 1_555
O75_6 Zn39_4 1_555 1_555
C37_6 C137_6 1_555 1_555
C38_6 C138_6 1_555 1_555
C42_6 C47_6 1_555 1_555
C43_6 C48_6 1_555 1_555
C52_6 C57_6 1_555 1_555
C57_6 C97_6 1_555 1_555
C63_6 O67_2 1_555 1_555
C67_6 N6_6 1_555 1_555
C68_6 N7_6 1_555 1_555
C72_6 C102_6 1_555 1_555
C77_6 N6_6 1_555 1_555
C82_6 C87_6 1_555 1_555
C87_6 C112_6 1_555 1_555
C92_6 C107_6 1_555 1_555
C127_6 C132_6 1_555 1_555
C147_6 O31_6 1_555 1_555
C52_6 H66_6 1_555 1_555
C53_6 H67_6 1_555 1_555
C82_6 H71_6 1_555 1_555
Zn6_10 N4_10 1_555 1_555
Zn14_2 O12_6 1_555 1_555
Zn34 O28_6 1_555 1_555
C29_6 C34_6 1_555 1_555
C34_6 H13_6 1_555 1_555
C39_6 H18_6 1_555 1_555
C44_6 C39_6 1_555 1_555
C49_6 C29_6 1_555 1_555
H23_6 C49_6 1_555 1_555
C54_6 C44_6 1_555 1_555
C59_6 C54_6 1_555 1_555
C64_6 C29_6 1_555 1_555
C69_6 C54_6 1_555 1_555
C99_6 C59_6 1_555 1_555
H38_6 C99_6 1_555 1_555
C104_6 C69_6 1_555 1_555
H43_6 C104_6 1_555 1_555
C139_6 C34_6 1_555 1_555
C144_6 C139_6 1_555 1_555
N8_6 Zn6_10 1_555 1_555
O12_6 C144_6 1_555 1_555
O28_6 C64_6 1_555 1_555
O37_4 Zn34 1_555 1_555
O44_2 C144_6 1_555 1_555
O66 C64_6 1_555 1_555
C39_6 C139_6 1_555 1_555
C44_6 C49_6 1_555 1_555
C59_6 N4_10 1_555 1_555
C69_6 N8_6 1_555 1_555
C54_6 H68_6 1_555 1_555
Zn1_9 N1_9 1_555 1_555
Zn21_2 O1_6 1_555 1_555
Zn32_2 O3_6 1_555 1_555
Zn4_6 O8_6 1_555 1_555
Zn5_6 O6_6 1_555 1_555
C1_6 C2_6 1_555 1_555
C2_6 H1_6 1_555 1_555
C3_6 H2_6 1_555 1_555
C4_6 C3_6 1_555 1_555
C5_6 C1_6 1_555 1_555
H3_6 C5_6 1_555 1_555
C6_6 C4_6 1_555 1_555
C7_6 C6_6 1_555 1_555
C8_6 C1_6 1_555 1_555
C9_6 C6_6 1_555 1_555
C10_6 H4_6 1_555 1_555
C11_6 C10_6 1_555 1_555
C12_6 C11_6 1_555 1_555
C13_6 C12_6 1_555 1_555
C14_6 H5_6 1_555 1_555
C15_6 C7_6 1_555 1_555
H6_6 C15_6 1_555 1_555
C16_6 C9_6 1_555 1_555
H7_6 C16_6 1_555 1_555
C17_6 C12_6 1_555 1_555
C18_6 C13_6 1_555 1_555
H8_6 C18_6 1_555 1_555
C19_6 C17_6 1_555 1_555
H9_6 C19_6 1_555 1_555
C20_6 C14_6 1_555 1_555
C21_6 C20_6 1_555 1_555
H10_6 C21_6 1_555 1_555
C22_6 C19_6 1_555 1_555
C23_6 C2_6 1_555 1_555
C24_6 C23_6 1_555 1_555
C25_6 C22_6 1_555 1_555
C26_6 C20_6 1_555 1_555
N1_9 C7_6 1_555 1_555
N2_6 Zn1_9 1_555 1_555
N3_9 Zn1_9 1_555 1_555
O1_6 C24_6 1_555 1_555
O24_3 C25_6 1_555 1_555
O3_6 C8_6 1_555 1_555
O4_4 C25_6 1_555 1_555
O49_3 C24_6 1_555 1_555
O6_6 C26_6 1_555 1_555
O65_2 C8_6 1_555 1_555
O8_6 C26_6 1_555 1_555
O9_6 Zn5_6 1_555 1_555
Zn34_3 O4_4 1_555 1_555
Zn31 O34_4 1_555 1_555
Zn37_2 O72_4 1_555 1_555
Zn40_2 O54_4 1_555 1_555
C73_6 H27_6 1_555 1_555
C75_6 H29_6 1_555 1_555
C76_6 H30_6 1_555 1_555
C78_6 C73_6 1_555 1_555
C80_6 C75_6 1_555 1_555
C81_6 C76_6 1_555 1_555
C83_6 C78_6 1_555 1_555
C85_6 C80_6 1_555 1_555
C86_6 C81_6 1_555 1_555
C88_6 C83_6 1_555 1_555
C90_6 C85_6 1_555 1_555
C91_6 C86_6 1_555 1_555
C93_6 H32_6 1_555 1_555
C95_6 H34_6 1_555 1_555
C96_6 H35_6 1_555 1_555
C108_6 C83_6 1_555 1_555
C110_6 C85_6 1_555 1_555
C111_6 C86_6 1_555 1_555
C113_6 C88_6 1_555 1_555
C115_6 C90_6 1_555 1_555
C116_6 C91_6 1_555 1_555
H47_6 C113_6 1_555 1_555
H49_6 C115_6 1_555 1_555
H50_6 C116_6 1_555 1_555
C118_6 C108_6 1_555 1_555
C120_6 C110_6 1_555 1_555
C121_6 C111_6 1_555 1_555
H52_6 C118_6 1_555 1_555
H54_6 C120_6 1_555 1_555
H55_6 C121_6 1_555 1_555
C123_6 C93_6 1_555 1_555
C125_6 C95_6 1_555 1_555
C126_6 C96_6 1_555 1_555
C128_6 C123_6 1_555 1_555
C130_6 C125_6 1_555 1_555
C131_6 C126_6 1_555 1_555
H57_6 C128_6 1_555 1_555
H59_6 C130_6 1_555 1_555
H60_6 C131_6 1_555 1_555
C133_6 C118_6 1_555 1_555
C135_6 C120_6 1_555 1_555
C136_6 C121_6 1_555 1_555
C148_6 C133_6 1_555 1_555
C150_6 C135_6 1_555 1_555
C151_6 C136_6 1_555 1_555
C153_6 C123_6 1_555 1_555
C155_6 C125_6 1_555 1_555
C156_6 C126_6 1_555 1_555
O20_4 C148_6 1_555 1_555
O22 C150_6 1_555 1_555
O38_3 C148_6 1_555 1_555
O34_4 C150_6 1_555 1_555
O35_6 Zn32_2 1_555 1_555
O51_6 Zn5_6 1_555 1_555
O53_6 Zn5_6 1_555 1_555
O54_4 C156_6 1_555 1_555
O69_6 Zn4_6 1_555 1_555
O71_6 Zn4_6 1_555 1_555
O72_4 C156_6 1_555 1_555
C3_6 C23_6 1_555 1_555
C4_6 C5_6 1_555 1_555
C9_6 N2_6 1_555 1_555
C10_6 C16_6 1_555 1_555
C11_6 N2_6 1_555 1_555
C13_6 N3_9 1_555 1_555
C14_6 C17_6 1_555 1_555
C21_6 C22_6 1_555 1_555
C88_6 N11_9 1_555 1_555
C90_6 N12_9 1_555 1_555
C91_6 N12_9 1_555 1_555
C93_6 C108_6 1_555 1_555
C95_6 C110_6 1_555 1_555
C96_6 C111_6 1_555 1_555
C115_6 C116_6 1_555 1_555
C128_6 C133_6 1_555 1_555
C130_6 C135_6 1_555 1_555
C131_6 C136_6 1_555 1_555
C151_6 O23_2 1_555 1_555
C151_6 O35_6 1_555 1_555
C153_6 O51_6 1_555 1_555
C153_6 O69_6 1_555 1_555
C155_6 O53_6 1_555 1_555
C155_6 O71_6 1_555 1_555
C12_6 H61_6 1_555 1_555
C6_6 H62_6 1_555 1_555
C85_6 H70_6 1_555 1_555
C83_6 H73_6 1_555 1_555
C86_6 H74_6 1_555 1_555
Zn7_9 N5_9 1_555 1_555
Zn18 O13_6 1_555 1_555
Zn16_2 O14_6 1_555 1_555
Zn29_2 O29_6 1_555 1_555
Zn28_3 O30_6 1_555 1_555
Zn38_2 O70_4 1_555 1_555
Zn41_2 O52_4 1_555 1_555
C30_6 C35_6 1_555 1_555
C31_6 C36_6 1_555 1_555
C35_6 H14_6 1_555 1_555
C36_6 H15_6 1_555 1_555
C40_6 H19_6 1_555 1_555
C41_6 H20_6 1_555 1_555
C45_6 C40_6 1_555 1_555
C46_6 C41_6 1_555 1_555
C50_6 C30_6 1_555 1_555
C51_6 C31_6 1_555 1_555
H24_6 C50_6 1_555 1_555
H25_6 C51_6 1_555 1_555
C55_6 C45_6 1_555 1_555
C56_6 C46_6 1_555 1_555
C60_6 C55_6 1_555 1_555
C61_6 C56_6 1_555 1_555
C65_6 C30_6 1_555 1_555
C66_6 C31_6 1_555 1_555
C70_6 C55_6 1_555 1_555
C71_6 C56_6 1_555 1_555
C74_6 H28_6 1_555 1_555
C79_6 C74_6 1_555 1_555
C84_6 C79_6 1_555 1_555
C89_6 C84_6 1_555 1_555
C94_6 H33_6 1_555 1_555
C100_6 C60_6 1_555 1_555
C101_6 C61_6 1_555 1_555
H39_6 C100_6 1_555 1_555
H40_6 C101_6 1_555 1_555
C105_6 C70_6 1_555 1_555
C106_6 C71_6 1_555 1_555
H44_6 C105_6 1_555 1_555
H45_6 C106_6 1_555 1_555
C109_6 C84_6 1_555 1_555
C114_6 C89_6 1_555 1_555
H48_6 C114_6 1_555 1_555
C119_6 C109_6 1_555 1_555
H53_6 C119_6 1_555 1_555
C124_6 C94_6 1_555 1_555
C129_6 C124_6 1_555 1_555
H58_6 C129_6 1_555 1_555
C134_6 C119_6 1_555 1_555
C140_6 C35_6 1_555 1_555
C141_6 C36_6 1_555 1_555
C145_6 C140_6 1_555 1_555
C146_6 C141_6 1_555 1_555
C149_6 C134_6 1_555 1_555
C154_6 C124_6 1_555 1_555
N5_9 C60_6 1_555 1_555
N9_6 Zn7_9 1_555 1_555
N10_6 Zn7_9 1_555 1_555
O13_6 C145_6 1_555 1_555
O14_6 C146_6 1_555 1_555
O21_2 C149_6 1_555 1_555
O29_6 C65_6 1_555 1_555
O30_6 C66_6 1_555 1_555
O33_6 Zn29_2 1_555 1_555
O47 C145_6 1_555 1_555
O46_2 C146_6 1_555 1_555
O52_4 C154_6 1_555 1_555
O62_3 C66_6 1_555 1_555
O70_4 C154_6 1_555 1_555
C40_6 C140_6 1_555 1_555
C41_6 C141_6 1_555 1_555
C45_6 C50_6 1_555 1_555
C46_6 C51_6 1_555 1_555
C61_6 N5_9 1_555 1_555
C65_6 O63_2 1_555 1_555
C70_6 N9_6 1_555 1_555
C71_6 N10_6 1_555 1_555
C89_6 N11_10 1_555 1_555
C94_6 C109_6 1_555 1_555
C100_6 C101_6 1_555 1_555
C129_6 C134_6 1_555 1_555
C149_6 O33_6 1_555 1_555
C56_6 H65_6 1_555 1_555
C55_6 H69_6 1_555 1_555
C84_6 H72_6 1_555 1_555
Zn1_10 N1_10 1_555 1_555
Zn17 O1_7 1_555 1_555
Zn32_3 O3_7 1_555 1_555
Zn4_7 O8_7 1_555 1_555
Zn5_7 O6_7 1_555 1_555
C1_7 C2_7 1_555 1_555
C2_7 H1_7 1_555 1_555
C3_7 H2_7 1_555 1_555
C4_7 C3_7 1_555 1_555
C5_7 C1_7 1_555 1_555
H3_7 C5_7 1_555 1_555
C6_7 C4_7 1_555 1_555
C7_7 C6_7 1_555 1_555
C8_7 C1_7 1_555 1_555
C9_7 C6_7 1_555 1_555
C10_7 H4_7 1_555 1_555
C11_7 C10_7 1_555 1_555
C12_7 C11_7 1_555 1_555
C13_7 C12_7 1_555 1_555
C14_7 H5_7 1_555 1_555
C15_7 C7_7 1_555 1_555
H6_7 C15_7 1_555 1_555
C16_7 C9_7 1_555 1_555
H7_7 C16_7 1_555 1_555
C17_7 C12_7 1_555 1_555
C18_7 C13_7 1_555 1_555
H8_7 C18_7 1_555 1_555
C19_7 C17_7 1_555 1_555
H9_7 C19_7 1_555 1_555
C20_7 C14_7 1_555 1_555
C21_7 C20_7 1_555 1_555
H10_7 C21_7 1_555 1_555
C22_7 C19_7 1_555 1_555
C23_7 C2_7 1_555 1_555
C24_7 C23_7 1_555 1_555
C25_7 C22_7 1_555 1_555
C26_7 C20_7 1_555 1_555
N1_10 C7_7 1_555 1_555
N2_7 Zn1_10 1_555 1_555
N3_10 Zn1_10 1_555 1_555
O1_7 C24_7 1_555 1_555
O24_2 C25_7 1_555 1_555
O3_7 C8_7 1_555 1_555
O37_3 C25_7 1_555 1_555
O49_2 C24_7 1_555 1_555
O6_7 C26_7 1_555 1_555
O65_3 C8_7 1_555 1_555
O8_7 C26_7 1_555 1_555
O9_7 Zn5_7 1_555 1_555
Zn6_11 N4_11 1_555 1_555
Zn7_10 N5_10 1_555 1_555
Zn19_3 O10_7 1_555 1_555
Zn15 O11_7 1_555 1_555
Zn14_3 O12_7 1_555 1_555
Zn13_2 O13_7 1_555 1_555
Zn16_3 O14_7 1_555 1_555
Zn31 O26_7 1_555 1_555
Zn35_3 O27_7 1_555 1_555
Zn34_4 O28_7 1_555 1_555
Zn29_3 O29_7 1_555 1_555
Zn28_2 O30_7 1_555 1_555
Zn28 O32_4 1_555 1_555
Zn37_2 O68_7 1_555 1_555
Zn40_2 O50_7 1_555 1_555
C27_7 C32_7 1_555 1_555
C28_7 C33_7 1_555 1_555
C29_7 C34_7 1_555 1_555
C30_7 C35_7 1_555 1_555
C31_7 C36_7 1_555 1_555
C32_7 H11_7 1_555 1_555
C33_7 H12_7 1_555 1_555
C34_7 H13_7 1_555 1_555
C35_7 H14_7 1_555 1_555
C36_7 H15_7 1_555 1_555
C37_7 H16_7 1_555 1_555
C38_7 H17_7 1_555 1_555
C39_7 H18_7 1_555 1_555
C40_7 H19_7 1_555 1_555
C41_7 H20_7 1_555 1_555
C42_7 C37_7 1_555 1_555
C43_7 C38_7 1_555 1_555
C44_7 C39_7 1_555 1_555
C45_7 C40_7 1_555 1_555
C46_7 C41_7 1_555 1_555
C47_7 C27_7 1_555 1_555
C48_7 C28_7 1_555 1_555
C49_7 C29_7 1_555 1_555
C50_7 C30_7 1_555 1_555
C51_7 C31_7 1_555 1_555
H21_7 C47_7 1_555 1_555
H22_7 C48_7 1_555 1_555
H23_7 C49_7 1_555 1_555
H24_7 C50_7 1_555 1_555
H25_7 C51_7 1_555 1_555
C52_7 C42_7 1_555 1_555
C53_7 C43_7 1_555 1_555
C54_7 C44_7 1_555 1_555
C55_7 C45_7 1_555 1_555
C56_7 C46_7 1_555 1_555
C57_7 N1_10 1_555 1_555
C58_7 C53_7 1_555 1_555
C59_7 C54_7 1_555 1_555
C60_7 C55_7 1_555 1_555
C61_7 C56_7 1_555 1_555
C62_7 C27_7 1_555 1_555
C63_7 C28_7 1_555 1_555
C64_7 C29_7 1_555 1_555
C65_7 C30_7 1_555 1_555
C66_7 C31_7 1_555 1_555
C67_7 C52_7 1_555 1_555
C68_7 C53_7 1_555 1_555
C69_7 C54_7 1_555 1_555
C70_7 C55_7 1_555 1_555
C71_7 C56_7 1_555 1_555
C72_7 H26_7 1_555 1_555
C73_7 H27_7 1_555 1_555
C74_7 H28_7 1_555 1_555
C75_7 H29_7 1_555 1_555
C76_7 H30_7 1_555 1_555
C77_7 C72_7 1_555 1_555
C78_7 C73_7 1_555 1_555
C79_7 C74_7 1_555 1_555
C80_7 C75_7 1_555 1_555
C81_7 C76_7 1_555 1_555
C82_7 C77_7 1_555 1_555
C83_7 C78_7 1_555 1_555
C84_7 C79_7 1_555 1_555
C85_7 C80_7 1_555 1_555
C86_7 C81_7 1_555 1_555
C87_7 N3_10 1_555 1_555
C88_7 C83_7 1_555 1_555
C89_7 C84_7 1_555 1_555
C90_7 C85_7 1_555 1_555
C91_7 C86_7 1_555 1_555
C92_7 H31_7 1_555 1_555
C93_7 H32_7 1_555 1_555
C94_7 H33_7 1_555 1_555
C95_7 H34_7 1_555 1_555
C96_7 H35_7 1_555 1_555
C97_7 C15_7 1_555 1_555
C98_7 C58_7 1_555 1_555
C99_7 C59_7 1_555 1_555
C100_7 C60_7 1_555 1_555
C101_7 C61_7 1_555 1_555
H36_7 C97_7 1_555 1_555
H37_7 C98_7 1_555 1_555
H38_7 C99_7 1_555 1_555
H39_7 C100_7 1_555 1_555
H40_7 C101_7 1_555 1_555
C102_7 C67_7 1_555 1_555
C103_7 C68_7 1_555 1_555
C104_7 C69_7 1_555 1_555
C105_7 C70_7 1_555 1_555
C106_7 C71_7 1_555 1_555
H41_7 C102_7 1_555 1_555
H42_7 C103_7 1_555 1_555
H43_7 C104_7 1_555 1_555
H44_7 C105_7 1_555 1_555
H45_7 C106_7 1_555 1_555
C107_7 C82_7 1_555 1_555
C108_7 C83_7 1_555 1_555
C109_7 C84_7 1_555 1_555
C110_7 C85_7 1_555 1_555
C111_7 C86_7 1_555 1_555
C112_7 C18_7 1_555 1_555
C113_7 C88_7 1_555 1_555
C114_7 C89_7 1_555 1_555
C115_7 C90_7 1_555 1_555
C116_7 C91_7 1_555 1_555
H46_7 C112_7 1_555 1_555
H47_7 C113_7 1_555 1_555
H48_7 C114_7 1_555 1_555
H49_7 C115_7 1_555 1_555
H50_7 C116_7 1_555 1_555
C117_7 C107_7 1_555 1_555
C118_7 C108_7 1_555 1_555
C119_7 C109_7 1_555 1_555
C120_7 C110_7 1_555 1_555
C121_7 C111_7 1_555 1_555
H51_7 C117_7 1_555 1_555
H52_7 C118_7 1_555 1_555
H53_7 C119_7 1_555 1_555
H54_7 C120_7 1_555 1_555
H55_7 C121_7 1_555 1_555
C122_7 C92_7 1_555 1_555
C123_7 C93_7 1_555 1_555
C124_7 C94_7 1_555 1_555
C125_7 C95_7 1_555 1_555
C126_7 C96_7 1_555 1_555
C127_7 C122_7 1_555 1_555
C128_7 C123_7 1_555 1_555
C129_7 C124_7 1_555 1_555
C130_7 C125_7 1_555 1_555
C131_7 C126_7 1_555 1_555
H56_7 C127_7 1_555 1_555
H57_7 C128_7 1_555 1_555
H58_7 C129_7 1_555 1_555
H59_7 C130_7 1_555 1_555
H60_7 C131_7 1_555 1_555
C132_7 C117_7 1_555 1_555
C133_7 C118_7 1_555 1_555
C134_7 C119_7 1_555 1_555
C135_7 C120_7 1_555 1_555
C136_7 C121_7 1_555 1_555
C137_7 C32_7 1_555 1_555
C138_7 C33_7 1_555 1_555
C139_7 C34_7 1_555 1_555
C140_7 C35_7 1_555 1_555
C141_7 C36_7 1_555 1_555
C142_7 C137_7 1_555 1_555
C143_7 C138_7 1_555 1_555
C144_7 C139_7 1_555 1_555
C145_7 C140_7 1_555 1_555
C146_7 C141_7 1_555 1_555
C147_7 C132_7 1_555 1_555
C148_7 C133_7 1_555 1_555
C149_7 C134_7 1_555 1_555
C150_7 C135_7 1_555 1_555
C151_7 C136_7 1_555 1_555
C152_7 C122_7 1_555 1_555
C153_7 C123_7 1_555 1_555
C154_7 C124_7 1_555 1_555
C155_7 C125_7 1_555 1_555
C156_7 C126_7 1_555 1_555
N4_11 C58_7 1_555 1_555
N5_10 C60_7 1_555 1_555
N6_7 Zn1_10 1_555 1_555
N7_7 Zn6_11 1_555 1_555
N8_7 Zn6_11 1_555 1_555
N9_7 Zn7_10 1_555 1_555
N10_7 Zn7_10 1_555 1_555
N11_11 Zn6_11 1_555 1_555
N12_10 Zn7_10 1_555 1_555
O10_7 C142_7 1_555 1_555
O11_7 C143_7 1_555 1_555
O12_7 C144_7 1_555 1_555
O13_7 C145_7 1_555 1_555
O14_7 C146_7 1_555 1_555
O25_3 C147_7 1_555 1_555
O20 C148_7 1_555 1_555
O21_3 C149_7 1_555 1_555
O22_4 C150_7 1_555 1_555
O26_7 C62_7 1_555 1_555
O27_7 C63_7 1_555 1_555
O28_7 C64_7 1_555 1_555
O29_7 C65_7 1_555 1_555
O30_7 C66_7 1_555 1_555
O31_7 Zn35_3 1_555 1_555
O32_4 C148_7 1_555 1_555
O33_7 Zn29_3 1_555 1_555
O36_4 C150_7 1_555 1_555
O35_7 Zn32_3 1_555 1_555
O38_4 Zn28_2 1_555 1_555
O48_3 C142_7 1_555 1_555
O45 C143_7 1_555 1_555
O44_3 C144_7 1_555 1_555
O47_4 C145_7 1_555 1_555
O46_3 C146_7 1_555 1_555
O50_7 C152_7 1_555 1_555
O51_7 Zn5_7 1_555 1_555
O55_3 C154_7 1_555 1_555
O53_7 Zn5_7 1_555 1_555
O56_4 C156_7 1_555 1_555
O64 C62_7 1_555 1_555
O66_4 C64_7 1_555 1_555
O62_2 C66_7 1_555 1_555
O68_7 C152_7 1_555 1_555
O69_7 Zn4_7 1_555 1_555
O73_3 C154_7 1_555 1_555
O71_7 Zn4_7 1_555 1_555
O74_4 C156_7 1_555 1_555
O75_7 Zn40_2 1_555 1_555
C3_7 C23_7 1_555 1_555
C4_7 C5_7 1_555 1_555
C9_7 N2_7 1_555 1_555
C10_7 C16_7 1_555 1_555
C11_7 N2_7 1_555 1_555
C13_7 N3_10 1_555 1_555
C14_7 C17_7 1_555 1_555
C21_7 C22_7 1_555 1_555
C37_7 C137_7 1_555 1_555
C38_7 C138_7 1_555 1_555
C39_7 C139_7 1_555 1_555
C40_7 C140_7 1_555 1_555
C41_7 C141_7 1_555 1_555
C42_7 C47_7 1_555 1_555
C43_7 C48_7 1_555 1_555
C44_7 C49_7 1_555 1_555
C45_7 C50_7 1_555 1_555
C46_7 C51_7 1_555 1_555
C52_7 C57_7 1_555 1_555
C57_7 C97_7 1_555 1_555
C59_7 N4_11 1_555 1_555
C61_7 N5_10 1_555 1_555
C63_7 O67_3 1_555 1_555
C65_7 O63_3 1_555 1_555
C67_7 N6_7 1_555 1_555
C68_7 N7_7 1_555 1_555
C69_7 N8_7 1_555 1_555
C70_7 N9_7 1_555 1_555
C71_7 N10_7 1_555 1_555
C72_7 C102_7 1_555 1_555
C73_7 C103_7 1_555 1_555
C74_7 C104_7 1_555 1_555
C75_7 C105_7 1_555 1_555
C76_7 C106_7 1_555 1_555
C77_7 N6_7 1_555 1_555
C78_7 N7_7 1_555 1_555
C79_7 N8_7 1_555 1_555
C80_7 N9_7 1_555 1_555
C81_7 N10_7 1_555 1_555
C82_7 C87_7 1_555 1_555
C87_7 C112_7 1_555 1_555
C88_7 N11_11 1_555 1_555
C89_7 N11_11 1_555 1_555
C90_7 N12_10 1_555 1_555
C91_7 N12_10 1_555 1_555
C92_7 C107_7 1_555 1_555
C93_7 C108_7 1_555 1_555
C94_7 C109_7 1_555 1_555
C95_7 C110_7 1_555 1_555
C96_7 C111_7 1_555 1_555
C98_7 C99_7 1_555 1_555
C100_7 C101_7 1_555 1_555
C113_7 C114_7 1_555 1_555
C115_7 C116_7 1_555 1_555
C127_7 C132_7 1_555 1_555
C128_7 C133_7 1_555 1_555
C129_7 C134_7 1_555 1_555
C130_7 C135_7 1_555 1_555
C131_7 C136_7 1_555 1_555
C147_7 O31_7 1_555 1_555
C149_7 O33_7 1_555 1_555
C151_7 O23_3 1_555 1_555
C151_7 O35_7 1_555 1_555
C153_7 O51_7 1_555 1_555
C153_7 O69_7 1_555 1_555
C155_7 O53_7 1_555 1_555
C155_7 O71_7 1_555 1_555
C12_7 H61_7 1_555 1_555
C6_7 H62_7 1_555 1_555
C56_7 H65_7 1_555 1_555
C52_7 H66_7 1_555 1_555
C53_7 H67_7 1_555 1_555
C54_7 H68_7 1_555 1_555
C55_7 H69_7 1_555 1_555
C85_7 H70_7 1_555 1_555
C82_7 H71_7 1_555 1_555
C84_7 H72_7 1_555 1_555
C83_7 H73_7 1_555 1_555
C86_7 H74_7 1_555 1_555
Zn1_11 N1_11 1_555 1_555
Zn21 O1_8 1_555 1_555
Zn32_4 O3_8 1_555 1_555
C1_8 C2_8 1_555 1_555
C2_8 H1_8 1_555 1_555
C3_8 H2_8 1_555 1_555
C4_8 C3_8 1_555 1_555
C5_8 C1_8 1_555 1_555
H3_8 C5_8 1_555 1_555
C6_8 C4_8 1_555 1_555
C7_8 C6_8 1_555 1_555
C8_8 C1_8 1_555 1_555
C9_8 C6_8 1_555 1_555
C15_8 C7_8 1_555 1_555
H6_8 C15_8 1_555 1_555
C16_8 C9_8 1_555 1_555
H7_8 C16_8 1_555 1_555
C23_8 C2_8 1_555 1_555
C24_8 C23_8 1_555 1_555
N1_11 C7_8 1_555 1_555
N2_8 Zn1_11 1_555 1_555
O1_8 C24_8 1_555 1_555
O3_8 C8_8 1_555 1_555
O49 C24_8 1_555 1_555
O65_4 C8_8 1_555 1_555
Zn7_11 N5_11 1_555 1_555
Zn16_4 O14_8 1_555 1_555
Zn28 O30_8 1_555 1_555
C31_8 C36_8 1_555 1_555
C36_8 H15_8 1_555 1_555
C41_8 H20_8 1_555 1_555
C46_8 C41_8 1_555 1_555
C51_8 C31_8 1_555 1_555
H25_8 C51_8 1_555 1_555
C56_8 C46_8 1_555 1_555
C61_8 C56_8 1_555 1_555
C66_8 C31_8 1_555 1_555
C71_8 C56_8 1_555 1_555
C76_8 H30_8 1_555 1_555
C81_8 C76_8 1_555 1_555
C86_8 C81_8 1_555 1_555
C91_8 C86_8 1_555 1_555
C96_8 H35_8 1_555 1_555
C101_8 C61_8 1_555 1_555
H40_8 C101_8 1_555 1_555
C106_8 C71_8 1_555 1_555
H45_8 C106_8 1_555 1_555
C111_8 C86_8 1_555 1_555
C116_8 C91_8 1_555 1_555
H50_8 C116_8 1_555 1_555
C121_8 C111_8 1_555 1_555
H55_8 C121_8 1_555 1_555
C126_8 C96_8 1_555 1_555
C131_8 C126_8 1_555 1_555
H60_8 C131_8 1_555 1_555
C136_8 C121_8 1_555 1_555
C141_8 C36_8 1_555 1_555
C146_8 C141_8 1_555 1_555
C151_8 C136_8 1_555 1_555
C156_8 C126_8 1_555 1_555
N10_8 Zn7_11 1_555 1_555
N12_11 Zn7_11 1_555 1_555
O14_8 C146_8 1_555 1_555
O30_8 C66_8 1_555 1_555
O35_8 Zn32_4 1_555 1_555
O46_4 C146_8 1_555 1_555
O56_3 C156_8 1_555 1_555
O62 C66_8 1_555 1_555
O74_3 C156_8 1_555 1_555
C3_8 C23_8 1_555 1_555
C4_8 C5_8 1_555 1_555
C9_8 N2_8 1_555 1_555
C41_8 C141_8 1_555 1_555
C46_8 C51_8 1_555 1_555
C61_8 N5_11 1_555 1_555
C71_8 N10_8 1_555 1_555
C76_8 C106_8 1_555 1_555
C81_8 N10_8 1_555 1_555
C91_8 N12_11 1_555 1_555
C96_8 C111_8 1_555 1_555
C131_8 C136_8 1_555 1_555
C151_8 O23_4 1_555 1_555
C151_8 O35_8 1_555 1_555
C6_8 H62_8 1_555 1_555
C56_8 H65_8 1_555 1_555
C86_8 H74_8 1_555 1_555
Zn4_8 O8_8 1_555 1_555
Zn5_8 O6_8 1_555 1_555
C10_8 H4_8 1_555 1_555
C11_8 C10_8 1_555 1_555
C12_8 C11_8 1_555 1_555
C13_8 C12_8 1_555 1_555
C14_8 H5_8 1_555 1_555
C17_8 C12_8 1_555 1_555
C18_8 C13_8 1_555 1_555
H8_8 C18_8 1_555 1_555
C19_8 C17_8 1_555 1_555
H9_8 C19_8 1_555 1_555
C20_8 C14_8 1_555 1_555
C21_8 C20_8 1_555 1_555
H10_8 C21_8 1_555 1_555
C22_8 C19_8 1_555 1_555
C25_8 C22_8 1_555 1_555
C26_8 C20_8 1_555 1_555
O24 C25_8 1_555 1_555
O37_4 C25_8 1_555 1_555
O6_8 C26_8 1_555 1_555
O8_8 C26_8 1_555 1_555
O9_8 Zn5_8 1_555 1_555
Zn7_12 N5_12 1_555 1_555
Zn13 O13_8 1_555 1_555
Zn29_4 O29_8 1_555 1_555
C30_8 C35_8 1_555 1_555
C35_8 H14_8 1_555 1_555
C40_8 H19_8 1_555 1_555
C45_8 C40_8 1_555 1_555
C50_8 C30_8 1_555 1_555
H24_8 C50_8 1_555 1_555
C55_8 C45_8 1_555 1_555
C60_8 C55_8 1_555 1_555
C65_8 C30_8 1_555 1_555
C70_8 C55_8 1_555 1_555
C73_8 H27_8 1_555 1_555
C74_8 H28_8 1_555 1_555
C75_8 H29_8 1_555 1_555
C78_8 C73_8 1_555 1_555
C79_8 C74_8 1_555 1_555
C80_8 C75_8 1_555 1_555
C83_8 C78_8 1_555 1_555
C84_8 C79_8 1_555 1_555
C85_8 C80_8 1_555 1_555
C88_8 C83_8 1_555 1_555
C89_8 C84_8 1_555 1_555
C90_8 C85_8 1_555 1_555
C93_8 H32_8 1_555 1_555
C94_8 H33_8 1_555 1_555
C95_8 H34_8 1_555 1_555
C100_8 C60_8 1_555 1_555
H39_8 C100_8 1_555 1_555
C105_8 C70_8 1_555 1_555
H44_8 C105_8 1_555 1_555
C108_8 C83_8 1_555 1_555
C109_8 C84_8 1_555 1_555
C110_8 C85_8 1_555 1_555
C113_8 C88_8 1_555 1_555
C114_8 C89_8 1_555 1_555
C115_8 C90_8 1_555 1_555
H47_8 C113_8 1_555 1_555
H48_8 C114_8 1_555 1_555
H49_8 C115_8 1_555 1_555
C118_8 C108_8 1_555 1_555
C119_8 C109_8 1_555 1_555
C120_8 C110_8 1_555 1_555
H52_8 C118_8 1_555 1_555
H53_8 C119_8 1_555 1_555
H54_8 C120_8 1_555 1_555
C123_8 C93_8 1_555 1_555
C124_8 C94_8 1_555 1_555
C125_8 C95_8 1_555 1_555
C128_8 C123_8 1_555 1_555
C129_8 C124_8 1_555 1_555
C130_8 C125_8 1_555 1_555
H57_8 C128_8 1_555 1_555
H58_8 C129_8 1_555 1_555
H59_8 C130_8 1_555 1_555
C133_8 C118_8 1_555 1_555
C134_8 C119_8 1_555 1_555
C135_8 C120_8 1_555 1_555
C140_8 C35_8 1_555 1_555
C145_8 C140_8 1_555 1_555
C148_8 C133_8 1_555 1_555
C149_8 C134_8 1_555 1_555
C150_8 C135_8 1_555 1_555
C153_8 C123_8 1_555 1_555
C154_8 C124_8 1_555 1_555
C155_8 C125_8 1_555 1_555
N5_12 C60_8 1_555 1_555
N9_8 Zn7_12 1_555 1_555
N12_12 Zn7_12 1_555 1_555
O13_8 C145_8 1_555 1_555
O20_2 C148_8 1_555 1_555
O21_4 C149_8 1_555 1_555
O22_3 C150_8 1_555 1_555
O29_8 C65_8 1_555 1_555
O38_4 C148_8 1_555 1_555
O33_8 Zn29_4 1_555 1_555
O36_3 C150_8 1_555 1_555
O47_3 C145_8 1_555 1_555
O51_8 Zn5_8 1_555 1_555
O55_4 C154_8 1_555 1_555
O53_8 Zn5_8 1_555 1_555
O69_8 Zn4_8 1_555 1_555
O73_4 C154_8 1_555 1_555
O71_8 Zn4_8 1_555 1_555
C13_8 N3_11 1_555 1_555
C14_8 C17_8 1_555 1_555
C21_8 C22_8 1_555 1_555
C40_8 C140_8 1_555 1_555
C45_8 C50_8 1_555 1_555
C65_8 O63_4 1_555 1_555
C70_8 N9_8 1_555 1_555
C75_8 C105_8 1_555 1_555
C80_8 N9_8 1_555 1_555
C88_8 N11_12 1_555 1_555
C89_8 N11_12 1_555 1_555
C90_8 N12_12 1_555 1_555
C93_8 C108_8 1_555 1_555
C94_8 C109_8 1_555 1_555
C95_8 C110_8 1_555 1_555
C113_8 C114_8 1_555 1_555
C128_8 C133_8 1_555 1_555
C129_8 C134_8 1_555 1_555
C130_8 C135_8 1_555 1_555
C149_8 O33_8 1_555 1_555
C153_8 O51_8 1_555 1_555
C153_8 O69_8 1_555 1_555
C155_8 O53_8 1_555 1_555
C155_8 O71_8 1_555 1_555
C12_8 H61_8 1_555 1_555
C55_8 H69_8 1_555 1_555
C85_8 H70_8 1_555 1_555
C84_8 H72_8 1_555 1_555
C83_8 H73_8 1_555 1_555
Zn1_12 N1_12 1_555 1_555
Zn19_4 O10_8 1_555 1_555
Zn31_2 O26_8 1_555 1_555
C27_8 C32_8 1_555 1_555
C32_8 H11_8 1_555 1_555
C37_8 H16_8 1_555 1_555
C42_8 C37_8 1_555 1_555
C47_8 C27_8 1_555 1_555
H21_8 C47_8 1_555 1_555
C52_8 C42_8 1_555 1_555
C57_8 N1_12 1_555 1_555
C62_8 C27_8 1_555 1_555
C67_8 C52_8 1_555 1_555
H36_8 C97_8 1_555 1_555
C102_8 C67_8 1_555 1_555
H41_8 C102_8 1_555 1_555
C137_8 C32_8 1_555 1_555
C142_8 C137_8 1_555 1_555
N6_8 Zn1_12 1_555 1_555
O10_8 C142_8 1_555 1_555
O26_8 C62_8 1_555 1_555
O48_4 C142_8 1_555 1_555
O64_2 C62_8 1_555 1_555
C37_8 C137_8 1_555 1_555
C42_8 C47_8 1_555 1_555
C52_8 C57_8 1_555 1_555
C57_8 C97_8 1_555 1_555
C67_8 N6_8 1_555 1_555
C52_8 H66_8 1_555 1_555
Zn6_12 N4_12 1_555 1_555
Zn15_2 O11_8 1_555 1_555
Zn14_4 O12_8 1_555 1_555
Zn35_4 O27_8 1_555 1_555
Zn34_3 O28_8 1_555 1_555
Zn38_2 O68_8 1_555 1_555
Zn41_2 O50_8 1_555 1_555
C28_8 C33_8 1_555 1_555
C29_8 C34_8 1_555 1_555
C33_8 H12_8 1_555 1_555
C34_8 H13_8 1_555 1_555
C38_8 H17_8 1_555 1_555
C39_8 H18_8 1_555 1_555
C43_8 C38_8 1_555 1_555
C44_8 C39_8 1_555 1_555
C48_8 C28_8 1_555 1_555
C49_8 C29_8 1_555 1_555
H22_8 C48_8 1_555 1_555
H23_8 C49_8 1_555 1_555
C53_8 C43_8 1_555 1_555
C54_8 C44_8 1_555 1_555
C58_8 C53_8 1_555 1_555
C59_8 C54_8 1_555 1_555
C63_8 C28_8 1_555 1_555
C64_8 C29_8 1_555 1_555
C68_8 C53_8 1_555 1_555
C69_8 C54_8 1_555 1_555
C72_8 H26_8 1_555 1_555
C77_8 C72_8 1_555 1_555
C82_8 C77_8 1_555 1_555
C87_8 N3_12 1_555 1_555
C92_8 H31_8 1_555 1_555
C98_8 C58_8 1_555 1_555
C99_8 C59_8 1_555 1_555
H37_8 C98_8 1_555 1_555
H38_8 C99_8 1_555 1_555
C103_8 C68_8 1_555 1_555
C104_8 C69_8 1_555 1_555
H42_8 C103_8 1_555 1_555
H43_8 C104_8 1_555 1_555
C107_8 C82_8 1_555 1_555
H46_8 C112_8 1_555 1_555
C117_8 C107_8 1_555 1_555
H51_8 C117_8 1_555 1_555
C122_8 C92_8 1_555 1_555
C127_8 C122_8 1_555 1_555
H56_8 C127_8 1_555 1_555
C132_8 C117_8 1_555 1_555
C138_8 C33_8 1_555 1_555
C139_8 C34_8 1_555 1_555
C143_8 C138_8 1_555 1_555
C144_8 C139_8 1_555 1_555
C147_8 C132_8 1_555 1_555
C152_8 C122_8 1_555 1_555
N4_12 C58_8 1_555 1_555
N7_8 Zn6_12 1_555 1_555
N8_8 Zn6_12 1_555 1_555
O11_8 C143_8 1_555 1_555
O12_8 C144_8 1_555 1_555
O25_4 C147_8 1_555 1_555
O27_8 C63_8 1_555 1_555
O28_8 C64_8 1_555 1_555
O31_8 Zn35_4 1_555 1_555
O45_2 C143_8 1_555 1_555
O44_4 C144_8 1_555 1_555
O50_8 C152_8 1_555 1_555
O66_3 C64_8 1_555 1_555
O68_8 C152_8 1_555 1_555
O75_8 Zn41_2 1_555 1_555
C38_8 C138_8 1_555 1_555
C39_8 C139_8 1_555 1_555
C43_8 C48_8 1_555 1_555
C44_8 C49_8 1_555 1_555
C59_8 N4_12 1_555 1_555
C63_8 O67_4 1_555 1_555
C68_8 N7_8 1_555 1_555
C69_8 N8_8 1_555 1_555
C82_8 C87_8 1_555 1_555
C87_8 C112_8 1_555 1_555
C92_8 C107_8 1_555 1_555
C98_8 C99_8 1_555 1_555
C127_8 C132_8 1_555 1_555
C147_8 O31_8 1_555 1_555
C53_8 H67_8 1_555 1_555
C54_8 H68_8 1_555 1_555
C82_8 H71_8 1_555 1_555

#END
