
###############################################################################
#
# This file contains modified crystal structure data generated from the
# MOF subset of the Cambridge Structural Database (CSD) v543 
# hosted by the Cambridge Crystallographic Data Centre (CCDC).
#
# This work is licensed under the Creative Commons
# Attribution-NonCommercial-ShareAlike 4.0 International License.
# To view a copy of this license, visit
# http://creativecommons.org/licenses/by-nc-sa/4.0/
# or send a letter to
# Creative Commons, PO Box 1866, Mountain View, CA 94042, USA.
#
# CIF created using the CSD Python API on 29 September 2022
# The structure has been converted into the P1 space group
# The structure has a 3D framework
# The original CSD entry VEJYEP01 is in the monoclinic crystal system
# The framework has been calculated to contain at least 10.0% void space
# The void calculation uses a probe of radius 1.32A, grid spacing 0.4
#
###############################################################################

data_VEJYEP01
_chemical_formula_moiety         '(C48 H48 N32 Zn6)n'
_symmetry_cell_setting           triclinic
_symmetry_space_group_name_H-M   'P 1'
_symmetry_Int_Tables_number      1
_space_group_name_Hall           'P 1'
loop_
_symmetry_equiv_pos_site_id
_symmetry_equiv_pos_as_xyz
1 x,y,z
_cell_length_a                   9.750(7)
_cell_length_b                   15.268(10)
_cell_length_c                   14.971(10)
_cell_angle_alpha                90
_cell_angle_beta                 98.584(9)
_cell_angle_gamma                90
_cell_volume                     2203.66
loop_
_atom_site_label
_atom_site_type_symbol
_atom_site_fract_x
_atom_site_fract_y
_atom_site_fract_z
Zn2 Zn 0.08333(8) 0.22741(5) 0.41965(5)
H3 H 0.0281 0.0166 0.4141
N9 N 0.0318(6) 0.2607(4) 0.5377(4)
N10 N 0.0608(6) 0.3267(3) 0.3324(4)
N11 N 0.2718(6) 0.1764(4) 0.4225(4)
Zn1 Zn 0.54607(8) 0.07737(5) 0.26127(5)
N1 N 0.7469(6) 0.0776(4) 0.3100(4)
N2 N 0.9495(6) 0.1348(3) 0.3672(4)
N3 N 0.5119(6) 0.1651(4) 0.1627(4)
N4 N 0.5318(6) 0.2393(4) 0.0377(4)
N7 N 0.4451(5) 0.1192(4) 0.3606(3)
C1 C 0.8233(7) 0.1478(4) 0.3233(5)
H1 H 0.7913 0.2028 0.3035
C2 C 0.8311(9) 0.0126(5) 0.3485(7)
C3 C 0.9531(8) 0.0474(5) 0.3835(6)
C4 C 0.5721(7) 0.1703(4) 0.0887(4)
H4 H 0.6361 0.1295 0.0743
C5 C 0.4299(10) 0.2377(5) 0.1582(6)
H5 H 0.3752 0.2538 0.2013
C6 C 0.4400(9) 0.2824(5) 0.0823(6)
H6 H 0.3928 0.3336 0.0635
C10 C 0.3121(7) 0.1385(5) 0.3507(5)
H10 H 0.2514 0.1266 0.2981
C11 C 0.4944(8) 0.1484(7) 0.4452(5)
H11 H 0.5860 0.1450 0.4732
C12 C 0.3888(8) 0.1827(6) 0.4812(5)
H12 H 0.3959 0.2072 0.5386
Zn3 Zn 0.58333(8) 0.27259(5) 0.91965(5)
N5 N 0.4797(6) 0.9566(4) 0.2327(4)
N6 N 0.4392(6) 0.8267(3) 0.1676(4)
H2 H 0.8076 0.9537 0.3501
C7 C 0.4701(8) 0.9097(5) 0.1571(5)
H7 H 0.4840 0.9333 0.1019
C8 C 0.4523(11) 0.8991(5) 0.2941(5)
H8 H 0.4505 0.9119 0.3547
C9 C 0.4279(11) 0.8206(6) 0.2570(5)
H9 H 0.4066 0.7701 0.2869
Zn4 Zn 0.41667(8) 0.72741(5) 0.08035(5)
N5_2 N 0.0203(6) 0.4566(4) 0.2673(4)
N7_2 N 0.0549(5) 0.6192(4) 0.1394(3)
N8 N 0.2282(6) 0.6764(4) 0.0775(4)
C5_2 C 0.0701(10) 0.7377(5) 0.3418(6)
H5_2 H 0.1248 0.7538 0.2987
C6_2 C 0.0600(9) 0.7824(5) 0.4177(6)
H6_2 H 0.1072 0.8336 0.4365
C7_2 C 0.0299(8) 0.4097(5) 0.3429(5)
H7_2 H 0.0160 0.4333 0.3981
C8_2 C 0.0477(11) 0.3991(5) 0.2059(5)
H8_2 H 0.0495 0.4119 0.1453
C9_2 C 0.0721(11) 0.3206(6) 0.2430(5)
H9_2 H 0.0934 0.2701 0.2131
C10_2 C 0.1879(7) 0.6385(5) 0.1493(5)
H10_2 H 0.2486 0.6266 0.2019
C11_2 C 0.0056(8) 0.6484(7) 0.0548(5)
C12_2 C 0.1112(8) 0.6827(6) 0.0188(5)
Zn1_2 Zn 0.95393(8) 0.57737(5) 0.23873(5)
N1_2 N 0.7531(6) 0.5776(4) 0.1900(4)
N2_2 N 0.5505(6) 0.6348(3) 0.1328(4)
N3_2 N 0.9881(6) 0.6651(4) 0.3373(4)
N4_2 N 0.9682(6) 0.7393(4) 0.4623(4)
C1_2 C 0.6767(7) 0.6478(4) 0.1767(5)
H1_2 H 0.7087 0.7028 0.1965
C2_2 C 0.6689(9) 0.5126(5) 0.1515(7)
H2_2 H 0.6924 0.4537 0.1499
C3_2 C 0.5469(8) 0.5474(5) 0.1165(6)
H3_2 H 0.4719 0.5166 0.0859
C4_2 C 0.9279(7) 0.6703(4) 0.4113(4)
H4_2 H 0.8639 0.6295 0.4257
H11_2 H 0.9140 0.6450 0.0268
Zn3_2 Zn 0.91667(8) 0.77259(5) 0.58035(5)
N9_2 N 0.4682(6) 0.7607(4) 0.9623(4)
N5_3 N 0.5203(6) 0.0434(4) 0.7673(4)
N6_2 N 0.5608(6) 0.1733(3) 0.8324(4)
H2_3 H 0.1924 0.0463 0.6499
C7_3 C 0.5299(8) 0.0903(5) 0.8429(5)
H7_3 H 0.5160 0.0667 0.8981
C8_3 C 0.5477(11) 0.1009(5) 0.7059(5)
H8_3 H 0.5495 0.0881 0.6453
C9_3 C 0.5721(11) 0.1794(6) 0.7430(5)
H9_3 H 0.5934 0.2299 0.7131
Zn1_3 Zn 0.45393(8) 0.92263(5) 0.73873(5)
N1_3 N 0.2531(6) 0.9224(4) 0.6900(4)
N2_3 N 0.0505(6) 0.8652(3) 0.6328(4)
N3_3 N 0.4881(6) 0.8349(4) 0.8373(4)
N7_3 N 0.5549(5) 0.8808(4) 0.6394(3)
N8_2 N 0.7282(6) 0.8236(4) 0.5775(4)
C1_3 C 0.1767(7) 0.8522(4) 0.6767(5)
H1_3 H 0.2087 0.7972 0.6965
C2_3 C 0.1689(9) 0.9874(5) 0.6515(7)
C3_3 C 0.0469(8) 0.9526(5) 0.6165(6)
C4_3 C 0.4279(7) 0.8297(4) 0.9113(4)
H4_3 H 0.3639 0.8705 0.9257
C5_3 C 0.5701(10) 0.7623(5) 0.8418(6)
H5_3 H 0.6248 0.7462 0.7987
C6_3 C 0.5600(9) 0.7176(5) 0.9177(6)
H6_3 H 0.6072 0.6664 0.9365
C10_3 C 0.6879(7) 0.8615(5) 0.6493(5)
H10_3 H 0.7486 0.8734 0.7019
C11_3 C 0.5056(8) 0.8516(7) 0.5548(5)
H11_3 H 0.4140 0.8550 0.5268
C12_3 C 0.6112(8) 0.8173(6) 0.5188(5)
H12_2 H 0.6041 0.7928 0.4614
H3_3 H 0.9719 0.9834 0.5859
N10_2 N 0.9392(6) 0.6733(3) 0.6676(4)
Zn1_4 Zn 0.04607(8) 0.42263(5) 0.76127(5)
N1_4 N 0.2469(6) 0.4224(4) 0.8100(4)
N2_4 N 0.4495(6) 0.3652(3) 0.8672(4)
N3_4 N 0.0119(6) 0.3349(4) 0.6627(4)
C1_4 C 0.3233(7) 0.3522(4) 0.8233(5)
H1_4 H 0.2913 0.2972 0.8035
C2_4 C 0.3311(9) 0.4874(5) 0.8485(7)
H2_4 H 0.3076 0.5463 0.8501
C3_4 C 0.4531(8) 0.4526(5) 0.8835(6)
H3_4 H 0.5281 0.4834 0.9141
C4_4 C 0.0721(7) 0.3297(4) 0.5887(4)
H4_4 H 0.1361 0.3705 0.5743
H11_4 H 0.0860 0.3550 0.9732
N11_2 N 0.7718(6) 0.3236(4) 0.9225(4)
N5_4 N 0.9797(6) 0.5434(4) 0.7327(4)
N7_4 N 0.9451(5) 0.3808(4) 0.8606(3)
C5_4 C 0.9299(10) 0.2623(5) 0.6582(6)
H5_4 H 0.8752 0.2462 0.7013
C6_4 C 0.9400(9) 0.2176(5) 0.5823(6)
H6_4 H 0.8928 0.1664 0.5635
C7_4 C 0.9701(8) 0.5903(5) 0.6571(5)
H7_4 H 0.9840 0.5667 0.6019
C8_4 C 0.9523(11) 0.6009(5) 0.7941(5)
H8_4 H 0.9505 0.5881 0.8547
C9_4 C 0.9279(11) 0.6794(6) 0.7570(5)
H9_4 H 0.9066 0.7299 0.7869
C10_4 C 0.8121(7) 0.3615(5) 0.8507(5)
H10_4 H 0.7514 0.3734 0.7981
C11_4 C 0.9944(8) 0.3516(7) 0.9452(5)
C12_4 C 0.8888(8) 0.3173(6) 0.9812(5)
H12_3 H 0.1041 0.7072 0.9614
H12_4 H 0.8959 0.2928 0.0386
loop_
_geom_bond_atom_site_label_1
_geom_bond_atom_site_label_2
_geom_bond_site_symmetry_1
_geom_bond_site_symmetry_2
N9 Zn2 1_555 1_555
N10 Zn2 1_555 1_555
N11 Zn2 1_555 1_555
Zn1 N1 1_555 1_555
N1 C1 1_555 1_555
N2 C1 1_555 1_555
N3 Zn1 1_555 1_555
N4 C4 1_555 1_555
N7 Zn1 1_555 1_555
N11 C10 1_555 1_555
C1 H1 1_555 1_555
C2 N1 1_555 1_555
C3 N2 1_555 1_555
C4 N3 1_555 1_555
H4 C4 1_555 1_555
C5 N3 1_555 1_555
H5 C5 1_555 1_555
C6 N4 1_555 1_555
H6 C6 1_555 1_555
C10 N7 1_555 1_555
H10 C10 1_555 1_555
C11 N7 1_555 1_555
H11 C11 1_555 1_555
C12 N11 1_555 1_555
H12 C12 1_555 1_555
C2 C3 1_555 1_555
C5 C6 1_555 1_555
C11 C12 1_555 1_555
N6 C7 1_555 1_555
C7 N5 1_555 1_555
H7 C7 1_555 1_555
C8 N5 1_555 1_555
H8 C8 1_555 1_555
C9 N6 1_555 1_555
H9 C9 1_555 1_555
Zn4 N6 1_555 1_555
C8 C9 1_555 1_555
N10 C7_2 1_555 1_555
N8 C10_2 1_555 1_555
H5_2 C5_2 1_555 1_555
H6_2 C6_2 1_555 1_555
C7_2 N5_2 1_555 1_555
H7_2 C7_2 1_555 1_555
C8_2 N5_2 1_555 1_555
H8_2 C8_2 1_555 1_555
C9_2 N10 1_555 1_555
H9_2 C9_2 1_555 1_555
C10_2 N7_2 1_555 1_555
H10_2 C10_2 1_555 1_555
C11_2 N7_2 1_555 1_555
C12_2 N8 1_555 1_555
Zn4 N8 1_555 1_555
C5_2 C6_2 1_555 1_555
C8_2 C9_2 1_555 1_555
C11_2 C12_2 1_555 1_555
Zn1_2 N1_2 1_555 1_555
Zn4 N2_2 1_555 1_555
N1_2 C1_2 1_555 1_555
N2_2 C1_2 1_555 1_555
N3_2 Zn1_2 1_555 1_555
N4_2 C4_2 1_555 1_555
C1_2 H1_2 1_555 1_555
C2_2 N1_2 1_555 1_555
H2_2 C2_2 1_555 1_555
C3_2 N2_2 1_555 1_555
H3_2 C3_2 1_555 1_555
C4_2 N3_2 1_555 1_555
H4_2 C4_2 1_555 1_555
Zn3_2 N4_2 1_555 1_555
C2_2 C3_2 1_555 1_555
N6_2 C7_3 1_555 1_555
C7_3 N5_3 1_555 1_555
H7_3 C7_3 1_555 1_555
C8_3 N5_3 1_555 1_555
H8_3 C8_3 1_555 1_555
C9_3 N6_2 1_555 1_555
H9_3 C9_3 1_555 1_555
Zn3 N6_2 1_555 1_555
C8_3 C9_3 1_555 1_555
Zn1_3 N1_3 1_555 1_555
N1_3 C1_3 1_555 1_555
N2_3 C1_3 1_555 1_555
N3_3 Zn1_3 1_555 1_555
N9_2 C4_3 1_555 1_555
N7_3 Zn1_3 1_555 1_555
N8_2 C10_3 1_555 1_555
C1_3 H1_3 1_555 1_555
C2_3 N1_3 1_555 1_555
C3_3 N2_3 1_555 1_555
C4_3 N3_3 1_555 1_555
H4_3 C4_3 1_555 1_555
C5_3 N3_3 1_555 1_555
H5_3 C5_3 1_555 1_555
C6_3 N9_2 1_555 1_555
H6_3 C6_3 1_555 1_555
C10_3 N7_3 1_555 1_555
H10_3 C10_3 1_555 1_555
C11_3 N7_3 1_555 1_555
H11_3 C11_3 1_555 1_555
C12_3 N8_2 1_555 1_555
H12_2 C12_3 1_555 1_555
Zn3_2 N8_2 1_555 1_555
C2_3 C3_3 1_555 1_555
C5_3 C6_3 1_555 1_555
C11_3 C12_3 1_555 1_555
N10_2 Zn3_2 1_555 1_555
Zn1_4 N1_4 1_555 1_555
Zn3 N2_4 1_555 1_555
N1_4 C1_4 1_555 1_555
N2_4 C1_4 1_555 1_555
N3_4 Zn1_4 1_555 1_555
N9 C4_4 1_555 1_555
C1_4 H1_4 1_555 1_555
C2_4 N1_4 1_555 1_555
H2_4 C2_4 1_555 1_555
C3_4 N2_4 1_555 1_555
H3_4 C3_4 1_555 1_555
C4_4 N3_4 1_555 1_555
H4_4 C4_4 1_555 1_555
N11_2 Zn3 1_555 1_555
C2_4 C3_4 1_555 1_555
N10_2 C7_4 1_555 1_555
N11_2 C10_4 1_555 1_555
H5_4 C5_4 1_555 1_555
H6_4 C6_4 1_555 1_555
C7_4 N5_4 1_555 1_555
H7_4 C7_4 1_555 1_555
C8_4 N5_4 1_555 1_555
H8_4 C8_4 1_555 1_555
C9_4 N10_2 1_555 1_555
H9_4 C9_4 1_555 1_555
C10_4 N7_4 1_555 1_555
H10_4 C10_4 1_555 1_555
C11_4 N7_4 1_555 1_555
C12_4 N11_2 1_555 1_555
C5_4 C6_4 1_555 1_555
C8_4 C9_4 1_555 1_555
C11_4 C12_4 1_555 1_555

#END
