
###############################################################################
#
# This file contains modified crystal structure data generated from the
# MOF subset of the Cambridge Structural Database (CSD) v543 
# hosted by the Cambridge Crystallographic Data Centre (CCDC).
#
# This work is licensed under the Creative Commons
# Attribution-NonCommercial-ShareAlike 4.0 International License.
# To view a copy of this license, visit
# http://creativecommons.org/licenses/by-nc-sa/4.0/
# or send a letter to
# Creative Commons, PO Box 1866, Mountain View, CA 94042, USA.
#
# CIF created using the CSD Python API on 29 September 2022
# The structure has been converted into the P1 space group
# The structure has a 3D framework
# The original CSD entry VEJYIT01 is in the orthorhombic crystal system
# The framework has been calculated to contain at least 10.0% void space
# The void calculation uses a probe of radius 1.32A, grid spacing 0.4
#
###############################################################################

data_VEJYIT01
_chemical_formula_moiety         '(C96 H96 N64 Zn16)n'
_symmetry_cell_setting           triclinic
_symmetry_space_group_name_H-M   'P 1'
_symmetry_Int_Tables_number      1
_space_group_name_Hall           'P 1'
loop_
_symmetry_equiv_pos_site_id
_symmetry_equiv_pos_as_xyz
1 x,y,z
_cell_length_a                   9.801(3)
_cell_length_b                   24.104(8)
_cell_length_c                   24.356(8)
_cell_angle_alpha                90
_cell_angle_beta                 90
_cell_angle_gamma                90
_cell_volume                     5753.94
loop_
_atom_site_label
_atom_site_type_symbol
_atom_site_fract_x
_atom_site_fract_y
_atom_site_fract_z
N1 N 0.1068(5) 0.2381(2) 0.5158(2)
N2 N 0.2909(5) 0.2919(2) 0.5156(2)
N5 N 0.0362(6) 0.0675(2) 0.3699(2)
N6 N 0.0309(6) 0.1327(2) 0.4348(2)
C1 C 0.2288(6) 0.2467(3) 0.4952(3)
H1 H 0.2685 0.2237 0.4691
C2 C 0.2004(8) 0.3119(3) 0.5522(3)
H2 H 0.2130 0.3433 0.5738
C3 C 0.0885(7) 0.2793(3) 0.5526(3)
H3 H 0.0118 0.2844 0.5745
H4 H 0.0212 0.0544 0.5575
C6 C 0.1081(9) 0.1513(3) 0.3924(3)
H6 H 0.1516 0.1856 0.3907
C7 C 0.1114(9) 0.1122(3) 0.3533(3)
H7 H 0.1576 0.1150 0.3201
Zn3 Zn 0.47534(7) 0.32422(3) 0.49944(3)
Zn4 Zn 0.00040(8) 0.00059(3) 0.32337(3)
N11 N 0.1909(5) 0.9918(2) 0.7046(2)
Zn1 Zn 0.97534(7) 0.17578(3) 0.50056(3)
N3 N 0.9564(6) 0.1318(2) 0.5693(2)
N4 N 0.9649(6) 0.0684(2) 0.6357(2)
C4 C 0.9873(6) 0.0801(3) 0.5825(3)
C5 C 0.9894(6) 0.0827(3) 0.4190(3)
H5 H 0.9329 0.0604 0.4403
C8 C 0.7459(6) 0.0093(3) 0.7484(3)
H8 H 0.6990 0.0310 0.7231
C11 C 0.9139(12) 0.1162(4) 0.6567(3)
H11 H 0.8873 0.1218 0.6929
C12 C 0.9083(12) 0.1541(4) 0.6162(3)
H12 H 0.8760 0.1902 0.6200
N9 N 0.7909(5) 0.2081(2) 0.4844(2)
Zn2 Zn 0.99960(8) 0.99941(3) 0.67663(3)
N7 N 0.8748(5) 0.9928(2) 0.7411(2)
N8 N 0.6909(5) 0.9918(2) 0.7954(2)
C9 C 0.9034(7) 0.9625(3) 0.7876(3)
H9 H 0.9852 0.9445 0.7950
C10 C 0.7924(7) 0.9635(3) 0.8206(3)
H10 H 0.7867 0.9472 0.8552
Zn5 Zn 0.49960(8) 0.99941(3) 0.82337(3)
N10 N 0.9638(6) 0.9325(2) 0.6301(2)
Zn2_2 Zn 0.50040(8) 0.00059(3) 0.17663(3)
N7_2 N 0.6252(5) 0.0072(2) 0.2411(2)
N8_2 N 0.8091(5) 0.0082(2) 0.2954(2)
C9_2 C 0.5966(7) 0.0375(3) 0.2876(3)
H9_2 H 0.5148 0.0555 0.2950
C10_2 C 0.7076(7) 0.0365(3) 0.3206(3)
H10_2 H 0.7133 0.0528 0.3552
N10_2 N 0.5362(6) 0.0675(2) 0.1301(2)
N11_2 N 0.3091(5) 0.0082(2) 0.2046(2)
Zn1_2 Zn 0.52466(7) 0.82422(3) 0.00056(3)
N1_2 N 0.3932(5) 0.7619(2) 0.0158(2)
N2_2 N 0.2091(5) 0.7081(2) 0.0156(2)
N3_2 N 0.5436(6) 0.8682(2) 0.0693(2)
N4_2 N 0.5351(6) 0.9316(2) 0.1357(2)
C2_2 C 0.2996(8) 0.6881(3) 0.0522(3)
H2_2 H 0.2870 0.6567 0.0738
C3_2 C 0.4115(7) 0.7207(3) 0.0526(3)
H3_2 H 0.4882 0.7156 0.0745
C4_2 C 0.5127(6) 0.9199(3) 0.0825(3)
H4_2 H 0.4788 0.9456 0.0575
C8_2 C 0.7541(6) 0.9907(3) 0.2484(3)
H8_2 H 0.8010 0.9690 0.2231
C11_2 C 0.5861(12) 0.8838(4) 0.1567(3)
H11_2 H 0.6127 0.8782 0.1929
C12_2 C 0.5917(12) 0.8459(4) 0.1162(3)
H12_2 H 0.6240 0.8098 0.1200
N5_2 N 0.4638(6) 0.9325(2) 0.8699(2)
N6_2 N 0.4691(6) 0.8673(2) 0.9348(2)
C1_2 C 0.2712(6) 0.7533(3) 0.9952(3)
H1_2 H 0.2315 0.7763 0.9691
C5_2 C 0.5106(6) 0.9173(3) 0.9190(3)
H5_2 H 0.5671 0.9396 0.9403
C6_2 C 0.3919(9) 0.8487(3) 0.8924(3)
H6_2 H 0.3484 0.8144 0.8907
C7_2 C 0.3886(9) 0.8878(3) 0.8533(3)
H7_2 H 0.3424 0.8850 0.8201
Zn3_2 Zn 0.02466(7) 0.67578(3) 0.99944(3)
N9_2 N 0.7091(5) 0.7919(2) 0.9844(2)
C5_3 C 0.0106(6) 0.5827(3) 0.0810(3)
H5_3 H 0.0671 0.5604 0.0597
Zn2_3 Zn 0.00040(8) 0.49941(3) 0.82337(3)
N3_3 N 0.0436(6) 0.6318(2) 0.9307(2)
N4_3 N 0.0351(6) 0.5684(2) 0.8643(2)
N7_3 N 0.1252(5) 0.4928(2) 0.7589(2)
N8_3 N 0.3091(5) 0.4918(2) 0.7046(2)
C4_3 C 0.0127(6) 0.5801(3) 0.9175(3)
C8_3 C 0.2541(6) 0.5093(3) 0.7516(3)
H8_3 H 0.3010 0.5310 0.7769
C9_3 C 0.0966(7) 0.4625(3) 0.7124(3)
H9_3 H 0.0148 0.4445 0.7050
C10_3 C 0.2076(7) 0.4635(3) 0.6794(3)
H10_3 H 0.2133 0.4472 0.6448
C11_3 C 0.0861(12) 0.6162(4) 0.8433(3)
H11_3 H 0.1127 0.6218 0.8071
C12_3 C 0.0917(12) 0.6541(4) 0.8838(3)
H12_3 H 0.1240 0.6902 0.8800
Zn5_2 Zn 0.50040(8) 0.49941(3) 0.67663(3)
N10_3 N 0.0362(6) 0.4325(2) 0.8699(2)
N5_3 N 0.9638(6) 0.5675(2) 0.1301(2)
N6_3 N 0.9691(6) 0.6327(2) 0.0652(2)
C1_3 C 0.7712(6) 0.7467(3) 0.0048(3)
H1_3 H 0.7315 0.7237 0.0309
C6_3 C 0.8919(9) 0.6513(3) 0.1076(3)
H6_3 H 0.8484 0.6856 0.1093
C7_3 C 0.8886(9) 0.6122(3) 0.1467(3)
H7_3 H 0.8424 0.6150 0.1799
Zn4_2 Zn 0.99960(8) 0.50059(3) 0.17663(3)
N1_3 N 0.8932(5) 0.7381(2) 0.9842(2)
C2_3 C 0.7996(8) 0.8119(3) 0.9478(3)
H2_3 H 0.7870 0.8433 0.9262
C3_3 C 0.9115(7) 0.7793(3) 0.9474(3)
H3_3 H 0.9882 0.7844 0.9255
H4_3 H 0.9788 0.5544 0.9425
N11_3 N 0.8091(5) 0.4918(2) 0.7954(2)
Zn2_4 Zn 0.49960(8) 0.50059(3) 0.32337(3)
N1_4 N 0.6068(5) 0.2619(2) 0.4842(2)
N3_4 N 0.4564(6) 0.3682(2) 0.4307(2)
N4_4 N 0.4649(6) 0.4316(2) 0.3643(2)
N5_4 N 0.5362(6) 0.4325(2) 0.6301(2)
N6_4 N 0.5309(6) 0.3673(2) 0.5652(2)
N7_4 N 0.3748(5) 0.5072(2) 0.2589(2)
N8_4 N 0.1909(5) 0.5082(2) 0.2046(2)
C1_4 C 0.7288(6) 0.2533(3) 0.5048(3)
H1_4 H 0.7685 0.2763 0.5309
C2_4 C 0.7004(8) 0.1881(3) 0.4478(3)
H2_4 H 0.7130 0.1567 0.4262
C3_4 C 0.5885(7) 0.2207(3) 0.4474(3)
H3_4 H 0.5118 0.2156 0.4255
C4_4 C 0.4873(6) 0.4199(3) 0.4175(3)
H4_4 H 0.5212 0.4456 0.4425
C5_4 C 0.4894(6) 0.4173(3) 0.5810(3)
H5_4 H 0.4329 0.4396 0.5597
C6_4 C 0.6081(9) 0.3487(3) 0.6076(3)
H6_4 H 0.6516 0.3144 0.6093
C7_4 C 0.6114(9) 0.3878(3) 0.6467(3)
H7_4 H 0.6576 0.3850 0.6799
C8_4 C 0.2459(6) 0.4907(3) 0.2516(3)
H8_4 H 0.1990 0.4690 0.2769
C9_4 C 0.4034(7) 0.5375(3) 0.2124(3)
H9_4 H 0.4852 0.5555 0.2050
C10_4 C 0.2924(7) 0.5365(3) 0.1794(3)
H10_4 H 0.2867 0.5528 0.1448
C11_4 C 0.4139(12) 0.3838(4) 0.3433(3)
H11_4 H 0.3873 0.3782 0.3071
C12_4 C 0.4083(12) 0.3459(4) 0.3838(3)
H12_4 H 0.3760 0.3098 0.3800
N10_4 N 0.4638(6) 0.5675(2) 0.3699(2)
N11_4 N 0.6909(5) 0.5082(2) 0.2954(2)
N7_5 N 0.1252(5) 0.0072(2) 0.2589(2)
C9_5 C 0.0966(7) 0.0375(3) 0.2124(3)
H9_5 H 0.0148 0.0555 0.2050
C10_5 C 0.2076(7) 0.0365(3) 0.1794(3)
H10_5 H 0.2133 0.0528 0.1448
Zn1_3 Zn 0.02466(7) 0.82422(3) 0.49944(3)
N3_5 N 0.0436(6) 0.8682(2) 0.4307(2)
N4_5 N 0.0351(6) 0.9316(2) 0.3643(2)
C4_5 C 0.0127(6) 0.9199(3) 0.4175(3)
C5_5 C 0.0106(6) 0.9173(3) 0.5810(3)
H5_5 H 0.0671 0.9396 0.5597
C8_5 C 0.2541(6) 0.9907(3) 0.2516(3)
H8_5 H 0.3010 0.9690 0.2769
C11_5 C 0.0861(12) 0.8838(4) 0.3433(3)
H11_5 H 0.1127 0.8782 0.3071
C12_5 C 0.0917(12) 0.8459(4) 0.3838(3)
H12_5 H 0.1240 0.8098 0.3800
N9_3 N 0.2091(5) 0.7919(2) 0.5156(2)
N1_5 N 0.8932(5) 0.7619(2) 0.4842(2)
N2_3 N 0.7091(5) 0.7081(2) 0.4844(2)
N6_5 N 0.9691(6) 0.8673(2) 0.5652(2)
C1_5 C 0.7712(6) 0.7533(3) 0.5048(3)
H1_5 H 0.7315 0.7763 0.5309
C2_5 C 0.7996(8) 0.6881(3) 0.4478(3)
H2_5 H 0.7870 0.6567 0.4262
C3_5 C 0.9115(7) 0.7207(3) 0.4474(3)
H3_5 H 0.9882 0.7156 0.4255
H4_5 H 0.9788 0.9456 0.4425
C6_5 C 0.8919(9) 0.8487(3) 0.6076(3)
H6_5 H 0.8484 0.8144 0.6093
C7_5 C 0.8886(9) 0.8878(3) 0.6467(3)
H7_5 H 0.8424 0.8850 0.6799
Zn3_3 Zn 0.52466(7) 0.67578(3) 0.50056(3)
N6_6 N 0.5309(6) 0.1327(2) 0.0652(2)
C1_6 C 0.7288(6) 0.2467(3) 0.0048(3)
H1_6 H 0.7685 0.2237 0.0309
C5_6 C 0.4894(6) 0.0827(3) 0.0810(3)
H5_6 H 0.4329 0.0604 0.0597
C6_6 C 0.6081(9) 0.1513(3) 0.1076(3)
H6_6 H 0.6516 0.1856 0.1093
C7_6 C 0.6114(9) 0.1122(3) 0.1467(3)
H7_6 H 0.6576 0.1150 0.1799
Zn3_4 Zn 0.97534(7) 0.32422(3) 0.00056(3)
N9_4 N 0.2909(5) 0.2081(2) 0.0156(2)
Zn1_4 Zn 0.47534(7) 0.17578(3) 0.99944(3)
N1_6 N 0.6068(5) 0.2381(2) 0.9842(2)
N2_4 N 0.7909(5) 0.2919(2) 0.9844(2)
N3_6 N 0.4564(6) 0.1318(2) 0.9307(2)
N4_6 N 0.4649(6) 0.0684(2) 0.8643(2)
C2_6 C 0.7004(8) 0.3119(3) 0.9478(3)
H2_6 H 0.7130 0.3433 0.9262
C3_6 C 0.5885(7) 0.2793(3) 0.9474(3)
H3_6 H 0.5118 0.2844 0.9255
C4_6 C 0.4873(6) 0.0801(3) 0.9175(3)
H4_6 H 0.5212 0.0544 0.9425
C8_6 C 0.2459(6) 0.0093(3) 0.7516(3)
H8_6 H 0.1990 0.0310 0.7769
C11_6 C 0.4139(12) 0.1162(4) 0.8433(3)
H11_6 H 0.3873 0.1218 0.8071
C12_6 C 0.4083(12) 0.1541(4) 0.8838(3)
H12_6 H 0.3760 0.1902 0.8800
N7_6 N 0.3748(5) 0.9928(2) 0.7589(2)
C9_6 C 0.4034(7) 0.9625(3) 0.7124(3)
H9_6 H 0.4852 0.9445 0.7050
C10_6 C 0.2924(7) 0.9635(3) 0.6794(3)
H10_6 H 0.2867 0.9472 0.6448
N1_7 N 0.1068(5) 0.2619(2) 0.0158(2)
C2_7 C 0.2004(8) 0.1881(3) 0.0522(3)
H2_7 H 0.2130 0.1567 0.0738
C3_7 C 0.0885(7) 0.2207(3) 0.0526(3)
H3_7 H 0.0118 0.2156 0.0745
H4_7 H 0.0212 0.4456 0.0575
N6_7 N 0.0309(6) 0.3673(2) 0.9348(2)
C1_7 C 0.2288(6) 0.2533(3) 0.9952(3)
H1_7 H 0.2685 0.2763 0.9691
C6_7 C 0.1081(9) 0.3487(3) 0.8924(3)
H6_7 H 0.1516 0.3144 0.8907
C7_7 C 0.1114(9) 0.3878(3) 0.8533(3)
H7_7 H 0.1576 0.3850 0.8201
N3_7 N 0.9564(6) 0.3682(2) 0.0693(2)
N4_7 N 0.9649(6) 0.4316(2) 0.1357(2)
N7_7 N 0.8748(5) 0.5072(2) 0.2411(2)
C4_7 C 0.9873(6) 0.4199(3) 0.0825(3)
C8_7 C 0.7459(6) 0.4907(3) 0.2484(3)
H8_7 H 0.6990 0.4690 0.2231
C9_7 C 0.9034(7) 0.5375(3) 0.2876(3)
H9_7 H 0.9852 0.5555 0.2950
C10_7 C 0.7924(7) 0.5365(3) 0.3206(3)
H10_7 H 0.7867 0.5528 0.3552
C11_7 C 0.9139(12) 0.3838(4) 0.1567(3)
H11_7 H 0.8873 0.3782 0.1929
C12_7 C 0.9083(12) 0.3459(4) 0.1162(3)
H12_7 H 0.8760 0.3098 0.1200
C5_7 C 0.9894(6) 0.4173(3) 0.9190(3)
H5_7 H 0.9329 0.4396 0.9403
N1_8 N 0.3932(5) 0.7381(2) 0.5158(2)
N3_8 N 0.5436(6) 0.6318(2) 0.5693(2)
N4_8 N 0.5351(6) 0.5684(2) 0.6357(2)
N6_8 N 0.4691(6) 0.6327(2) 0.4348(2)
N7_8 N 0.6252(5) 0.4928(2) 0.7411(2)
C1_8 C 0.2712(6) 0.7467(3) 0.4952(3)
H1_8 H 0.2315 0.7237 0.4691
C2_8 C 0.2996(8) 0.8119(3) 0.5522(3)
H2_8 H 0.2870 0.8433 0.5738
C3_8 C 0.4115(7) 0.7793(3) 0.5526(3)
H3_8 H 0.4882 0.7844 0.5745
C4_8 C 0.5127(6) 0.5801(3) 0.5825(3)
H4_8 H 0.4788 0.5544 0.5575
C5_8 C 0.5106(6) 0.5827(3) 0.4190(3)
H5_8 H 0.5671 0.5604 0.4403
C6_8 C 0.3919(9) 0.6513(3) 0.3924(3)
H6_8 H 0.3484 0.6856 0.3907
C7_8 C 0.3886(9) 0.6122(3) 0.3533(3)
H7_8 H 0.3424 0.6150 0.3201
C8_8 C 0.7541(6) 0.5093(3) 0.7484(3)
H8_8 H 0.8010 0.5310 0.7231
C9_8 C 0.5966(7) 0.4625(3) 0.7876(3)
H9_8 H 0.5148 0.4445 0.7950
C10_8 C 0.7076(7) 0.4635(3) 0.8206(3)
H10_8 H 0.7133 0.4472 0.8552
C11_8 C 0.5861(12) 0.6162(4) 0.6567(3)
H11_8 H 0.6127 0.6218 0.6929
C12_8 C 0.5917(12) 0.6541(4) 0.6162(3)
H12_8 H 0.6240 0.6902 0.6200
loop_
_geom_bond_atom_site_label_1
_geom_bond_atom_site_label_2
_geom_bond_site_symmetry_1
_geom_bond_site_symmetry_2
N1 C1 1_555 1_555
N2 C1 1_555 1_555
C1 H1 1_555 1_555
C2 N2 1_555 1_555
H2 C2 1_555 1_555
C3 N1 1_555 1_555
H3 C3 1_555 1_555
C6 N6 1_555 1_555
H6 C6 1_555 1_555
C7 N5 1_555 1_555
H7 C7 1_555 1_555
Zn3 N2 1_555 1_555
Zn4 N5 1_555 1_555
C2 C3 1_555 1_555
C6 C7 1_555 1_555
N3 Zn1 1_555 1_555
N4 C4 1_555 1_555
C4 N3 1_555 1_555
H5 C5 1_555 1_555
H8 C8 1_555 1_555
C11 N4 1_555 1_555
H11 C11 1_555 1_555
C12 N3 1_555 1_555
H12 C12 1_555 1_555
N9 Zn1 1_555 1_555
C11 C12 1_555 1_555
N7 Zn2 1_555 1_555
C9 N7 1_555 1_555
H9 C9 1_555 1_555
C10 N8 1_555 1_555
H10 C10 1_555 1_555
Zn5 N8 1_555 1_555
N10 Zn2 1_555 1_555
C9 C10 1_555 1_555
N7_2 Zn2_2 1_555 1_555
C9_2 N7_2 1_555 1_555
H9_2 C9_2 1_555 1_555
C10_2 N8_2 1_555 1_555
H10_2 C10_2 1_555 1_555
N10_2 Zn2_2 1_555 1_555
N11_2 Zn2_2 1_555 1_555
C9_2 C10_2 1_555 1_555
Zn1_2 N1_2 1_555 1_555
N3_2 Zn1_2 1_555 1_555
N4_2 C4_2 1_555 1_555
C2_2 N2_2 1_555 1_555
H2_2 C2_2 1_555 1_555
C3_2 N1_2 1_555 1_555
H3_2 C3_2 1_555 1_555
C4_2 N3_2 1_555 1_555
H4_2 C4_2 1_555 1_555
H8_2 C8_2 1_555 1_555
C11_2 N4_2 1_555 1_555
H11_2 C11_2 1_555 1_555
C12_2 N3_2 1_555 1_555
H12_2 C12_2 1_555 1_555
C2_2 C3_2 1_555 1_555
C11_2 C12_2 1_555 1_555
N5_2 C5_2 1_555 1_555
C1_2 H1_2 1_555 1_555
C5_2 N6_2 1_555 1_555
H5_2 C5_2 1_555 1_555
C6_2 N6_2 1_555 1_555
H6_2 C6_2 1_555 1_555
C7_2 N5_2 1_555 1_555
H7_2 C7_2 1_555 1_555
Zn5 N5_2 1_555 1_555
C6_2 C7_2 1_555 1_555
H5_3 C5_3 1_555 1_555
Zn2_3 N4_3 1_555 1_555
N3_3 Zn3_2 1_555 1_555
N4_3 C4_3 1_555 1_555
N7_3 Zn2_3 1_555 1_555
N8_3 C8_3 1_555 1_555
C4_3 N3_3 1_555 1_555
C8_3 N7_3 1_555 1_555
H8_3 C8_3 1_555 1_555
C9_3 N7_3 1_555 1_555
H9_3 C9_3 1_555 1_555
C10_3 N8_3 1_555 1_555
H10_3 C10_3 1_555 1_555
C11_3 N4_3 1_555 1_555
H11_3 C11_3 1_555 1_555
C12_3 N3_3 1_555 1_555
H12_3 C12_3 1_555 1_555
Zn5_2 N8_3 1_555 1_555
N10_3 Zn2_3 1_555 1_555
C9_3 C10_3 1_555 1_555
C11_3 C12_3 1_555 1_555
C1_3 H1_3 1_555 1_555
C6_3 N6_3 1_555 1_555
H6_3 C6_3 1_555 1_555
C7_3 N5_3 1_555 1_555
H7_3 C7_3 1_555 1_555
Zn4_2 N5_3 1_555 1_555
C6_3 C7_3 1_555 1_555
C2_3 N9_2 1_555 1_555
H2_3 C2_3 1_555 1_555
C3_3 N1_3 1_555 1_555
H3_3 C3_3 1_555 1_555
C2_3 C3_3 1_555 1_555
Zn3 N1_4 1_555 1_555
Zn2_4 N4_4 1_555 1_555
N1_4 C1_4 1_555 1_555
N9 C1_4 1_555 1_555
N3_4 Zn3 1_555 1_555
N4_4 C4_4 1_555 1_555
N5_4 C5_4 1_555 1_555
N6_4 Zn3 1_555 1_555
N7_4 Zn2_4 1_555 1_555
N8_4 C8_4 1_555 1_555
C1_4 H1_4 1_555 1_555
C2_4 N9 1_555 1_555
H2_4 C2_4 1_555 1_555
C3_4 N1_4 1_555 1_555
H3_4 C3_4 1_555 1_555
C4_4 N3_4 1_555 1_555
H4_4 C4_4 1_555 1_555
C5_4 N6_4 1_555 1_555
H5_4 C5_4 1_555 1_555
C6_4 N6_4 1_555 1_555
H6_4 C6_4 1_555 1_555
C7_4 N5_4 1_555 1_555
H7_4 C7_4 1_555 1_555
C8_4 N7_4 1_555 1_555
H8_4 C8_4 1_555 1_555
C9_4 N7_4 1_555 1_555
H9_4 C9_4 1_555 1_555
C10_4 N8_4 1_555 1_555
H10_4 C10_4 1_555 1_555
C11_4 N4_4 1_555 1_555
H11_4 C11_4 1_555 1_555
C12_4 N3_4 1_555 1_555
H12_4 C12_4 1_555 1_555
Zn5_2 N5_4 1_555 1_555
N10_4 Zn2_4 1_555 1_555
N11_4 Zn2_4 1_555 1_555
C2_4 C3_4 1_555 1_555
C6_4 C7_4 1_555 1_555
C9_4 C10_4 1_555 1_555
C11_4 C12_4 1_555 1_555
N7_5 Zn4 1_555 1_555
C9_5 N7_5 1_555 1_555
H9_5 C9_5 1_555 1_555
C10_5 N11_2 1_555 1_555
H10_5 C10_5 1_555 1_555
C9_5 C10_5 1_555 1_555
N3_5 Zn1_3 1_555 1_555
N4_5 C4_5 1_555 1_555
C4_5 N3_5 1_555 1_555
H5_5 C5_5 1_555 1_555
H8_5 C8_5 1_555 1_555
C11_5 N4_5 1_555 1_555
H11_5 C11_5 1_555 1_555
C12_5 N3_5 1_555 1_555
H12_5 C12_5 1_555 1_555
N9_3 Zn1_3 1_555 1_555
C11_5 C12_5 1_555 1_555
N1_5 C1_5 1_555 1_555
N2_3 C1_5 1_555 1_555
C1_5 H1_5 1_555 1_555
C2_5 N2_3 1_555 1_555
H2_5 C2_5 1_555 1_555
C3_5 N1_5 1_555 1_555
H3_5 C3_5 1_555 1_555
C6_5 N6_5 1_555 1_555
H6_5 C6_5 1_555 1_555
C7_5 N10 1_555 1_555
H7_5 C7_5 1_555 1_555
Zn3_3 N2_3 1_555 1_555
C2_5 C3_5 1_555 1_555
C6_5 C7_5 1_555 1_555
N10_2 C5_6 1_555 1_555
C1_6 H1_6 1_555 1_555
C5_6 N6_6 1_555 1_555
H5_6 C5_6 1_555 1_555
C6_6 N6_6 1_555 1_555
H6_6 C6_6 1_555 1_555
C7_6 N10_2 1_555 1_555
H7_6 C7_6 1_555 1_555
C6_6 C7_6 1_555 1_555
Zn1_4 N1_6 1_555 1_555
N3_6 Zn1_4 1_555 1_555
N4_6 C4_6 1_555 1_555
C2_6 N2_4 1_555 1_555
H2_6 C2_6 1_555 1_555
C3_6 N1_6 1_555 1_555
H3_6 C3_6 1_555 1_555
C4_6 N3_6 1_555 1_555
H4_6 C4_6 1_555 1_555
H8_6 C8_6 1_555 1_555
C11_6 N4_6 1_555 1_555
H11_6 C11_6 1_555 1_555
C12_6 N3_6 1_555 1_555
H12_6 C12_6 1_555 1_555
C2_6 C3_6 1_555 1_555
C11_6 C12_6 1_555 1_555
N7_6 Zn5 1_555 1_555
C9_6 N7_6 1_555 1_555
H9_6 C9_6 1_555 1_555
C10_6 N11 1_555 1_555
H10_6 C10_6 1_555 1_555
C9_6 C10_6 1_555 1_555
C2_7 N9_4 1_555 1_555
H2_7 C2_7 1_555 1_555
C3_7 N1_7 1_555 1_555
H3_7 C3_7 1_555 1_555
C2_7 C3_7 1_555 1_555
C1_7 H1_7 1_555 1_555
C6_7 N6_7 1_555 1_555
H6_7 C6_7 1_555 1_555
C7_7 N10_3 1_555 1_555
H7_7 C7_7 1_555 1_555
C6_7 C7_7 1_555 1_555
Zn4_2 N4_7 1_555 1_555
N3_7 Zn3_4 1_555 1_555
N4_7 C4_7 1_555 1_555
N7_7 Zn4_2 1_555 1_555
N11_4 C8_7 1_555 1_555
C4_7 N3_7 1_555 1_555
C8_7 N7_7 1_555 1_555
H8_7 C8_7 1_555 1_555
C9_7 N7_7 1_555 1_555
H9_7 C9_7 1_555 1_555
C10_7 N11_4 1_555 1_555
H10_7 C10_7 1_555 1_555
C11_7 N4_7 1_555 1_555
H11_7 C11_7 1_555 1_555
C12_7 N3_7 1_555 1_555
H12_7 C12_7 1_555 1_555
C9_7 C10_7 1_555 1_555
C11_7 C12_7 1_555 1_555
H5_7 C5_7 1_555 1_555
Zn3_3 N1_8 1_555 1_555
Zn5_2 N4_8 1_555 1_555
N1_8 C1_8 1_555 1_555
N9_3 C1_8 1_555 1_555
N3_8 Zn3_3 1_555 1_555
N4_8 C4_8 1_555 1_555
N10_4 C5_8 1_555 1_555
N6_8 Zn3_3 1_555 1_555
N7_8 Zn5_2 1_555 1_555
N11_3 C8_8 1_555 1_555
C1_8 H1_8 1_555 1_555
C2_8 N9_3 1_555 1_555
H2_8 C2_8 1_555 1_555
C3_8 N1_8 1_555 1_555
H3_8 C3_8 1_555 1_555
C4_8 N3_8 1_555 1_555
H4_8 C4_8 1_555 1_555
C5_8 N6_8 1_555 1_555
H5_8 C5_8 1_555 1_555
C6_8 N6_8 1_555 1_555
H6_8 C6_8 1_555 1_555
C7_8 N10_4 1_555 1_555
H7_8 C7_8 1_555 1_555
C8_8 N7_8 1_555 1_555
H8_8 C8_8 1_555 1_555
C9_8 N7_8 1_555 1_555
H9_8 C9_8 1_555 1_555
C10_8 N11_3 1_555 1_555
H10_8 C10_8 1_555 1_555
C11_8 N4_8 1_555 1_555
H11_8 C11_8 1_555 1_555
C12_8 N3_8 1_555 1_555
H12_8 C12_8 1_555 1_555
C2_8 C3_8 1_555 1_555
C6_8 C7_8 1_555 1_555
C9_8 C10_8 1_555 1_555
C11_8 C12_8 1_555 1_555

#END
