
###############################################################################
#
# This file contains modified crystal structure data generated from the
# MOF subset of the Cambridge Structural Database (CSD) v543 
# hosted by the Cambridge Crystallographic Data Centre (CCDC).
#
# This work is licensed under the Creative Commons
# Attribution-NonCommercial-ShareAlike 4.0 International License.
# To view a copy of this license, visit
# http://creativecommons.org/licenses/by-nc-sa/4.0/
# or send a letter to
# Creative Commons, PO Box 1866, Mountain View, CA 94042, USA.
#
# CIF created using the CSD Python API on 29 September 2022
# The structure has been converted into the P1 space group
# The structure has a 3D framework
# The original CSD entry VEJYIT is in the orthorhombic crystal system
# The framework has been calculated to contain at least 10.0% void space
# The void calculation uses a probe of radius 1.32A, grid spacing 0.4
#
###############################################################################

data_VEJYIT
_chemical_formula_moiety         '(C96 H96 N64 Zn14)n'
_symmetry_cell_setting           triclinic
_symmetry_space_group_name_H-M   'P 1'
_symmetry_Int_Tables_number      1
_space_group_name_Hall           'P 1'
loop_
_symmetry_equiv_pos_site_id
_symmetry_equiv_pos_as_xyz
1 x,y,z
_cell_length_a                   9.679(3)
_cell_length_b                   24.114(6)
_cell_length_c                   24.450(7)
_cell_angle_alpha                90
_cell_angle_beta                 90
_cell_angle_gamma                90
_cell_volume                     5706.62
loop_
_atom_site_label
_atom_site_type_symbol
_atom_site_fract_x
_atom_site_fract_y
_atom_site_fract_z
N1 N 0.1184(7) 0.2346(3) 0.4819(3)
N2 N 0.3032(6) 0.2894(3) 0.4787(3)
H1 H 0.0220 0.0545 0.4423
C3 C 0.1034(9) 0.2722(4) 0.4402(4)
H3 H 0.0261 0.2744 0.4164
C5 C 0.2416(8) 0.2463(4) 0.5033(4)
H5 H 0.2815 0.2262 0.5329
C8 C 0.2153(8) 0.3057(4) 0.4382(4)
H8 H 0.2300 0.3352 0.4132
C10 C 0.1358(9) 0.1058(4) 0.6445(4)
H10 H 0.1918 0.1059 0.6765
C12 C 0.1351(10) 0.1457(4) 0.6055(4)
H12 H 0.1885 0.1788 0.6063
N7 N 0.0451(7) 0.1309(3) 0.5646(3)
N8 N 0.0432(7) 0.0651(3) 0.6307(3)
Zn3 Zn 0.48489(8) 0.32535(4) 0.49878(5)
Zn5 Zn 0.00204(11) 0.99821(5) 0.67613(4)
N10 N 0.1941(6) 0.9945(3) 0.2982(3)
Zn1 Zn 0.98489(8) 0.17465(4) 0.50122(5)
Zn2 Zn 0.99796(11) 0.00179(5) 0.32387(4)
C1 C 0.9828(8) 0.0810(4) 0.4181(4)
C2 C 0.7466(9) 0.0124(3) 0.2492(4)
H2 H 0.6972 0.0348 0.2744
C7 C 0.9922(8) 0.0818(4) 0.5818(4)
H7 H 0.9261 0.0611 0.5616
N5 N 0.9500(7) 0.1313(3) 0.4336(3)
C9 C 0.8974(10) 0.1548(4) 0.3873(4)
H9 H 0.8639 0.1917 0.3844
N6 N 0.9567(7) 0.0702(3) 0.3654(3)
C11 C 0.9005(10) 0.1172(4) 0.3457(4)
H11 H 0.8687 0.1231 0.3094
Zn4 Zn 0.49796(11) 0.00179(5) 0.17613(4)
N9 N 0.8032(6) 0.2106(3) 0.5213(3)
N3 N 0.8785(6) 0.9949(3) 0.2572(3)
C4 C 0.9081(8) 0.9660(4) 0.2116(4)
H4 H 0.9939 0.9483 0.2044
N4 N 0.6941(6) 0.9945(3) 0.2018(3)
C6 C 0.7984(8) 0.9659(4) 0.1779(4)
H6 H 0.7946 0.9486 0.1430
N11 N 0.9568(7) 0.9349(3) 0.3693(3)
N3_2 N 0.6215(6) 0.0051(3) 0.7572(3)
C4_2 C 0.5919(8) 0.0340(4) 0.7116(4)
H4_2 H 0.5061 0.0517 0.7044
N4_2 N 0.8059(6) 0.0055(3) 0.7018(3)
C6_2 C 0.7016(8) 0.0341(4) 0.6779(4)
H6_2 H 0.7054 0.0514 0.6430
N10_2 N 0.3059(6) 0.0055(3) 0.7982(3)
N11_2 N 0.5432(7) 0.0651(3) 0.8693(3)
Zn1_2 Zn 0.51511(8) 0.82535(4) 0.00122(5)
C5_2 C 0.2584(8) 0.7537(4) 0.0033(4)
H5_2 H 0.2185 0.7738 0.0329
C7_2 C 0.5078(8) 0.9182(4) 0.0818(4)
H7_2 H 0.5739 0.9389 0.0616
C10_2 C 0.3642(9) 0.8942(4) 0.1445(4)
H10_2 H 0.3082 0.8941 0.1765
C12_2 C 0.3649(10) 0.8543(4) 0.1055(4)
H12_2 H 0.3115 0.8212 0.1063
N7_2 N 0.4549(7) 0.8691(3) 0.0646(3)
N8_2 N 0.4568(7) 0.9349(3) 0.1307(3)
N9_2 N 0.6968(6) 0.7894(3) 0.0213(3)
Zn2_2 Zn 0.50204(11) 0.99821(5) 0.82387(4)
N1_2 N 0.3816(7) 0.7654(3) 0.9819(3)
N2_2 N 0.1968(6) 0.7106(3) 0.9787(3)
C1_2 C 0.5172(8) 0.9190(4) 0.9181(4)
H1_2 H 0.4780 0.9455 0.9423
C2_2 C 0.7534(9) 0.9876(3) 0.7492(4)
H2_2 H 0.8028 0.9652 0.7744
C3_2 C 0.3966(9) 0.7278(4) 0.9402(4)
H3_2 H 0.4739 0.7256 0.9164
C8_2 C 0.2847(8) 0.6943(4) 0.9382(4)
H8_2 H 0.2700 0.6648 0.9132
N5_2 N 0.5500(7) 0.8687(3) 0.9336(3)
C9_2 C 0.6026(10) 0.8452(4) 0.8873(4)
H9_2 H 0.6361 0.8083 0.8844
N6_2 N 0.5433(7) 0.9298(3) 0.8654(3)
C11_2 C 0.5995(10) 0.8828(4) 0.8457(4)
H11_2 H 0.6313 0.8769 0.8094
Zn3_2 Zn 0.01511(8) 0.67465(4) 0.99878(5)
Zn2_3 Zn 0.00204(11) 0.50179(5) 0.17613(4)
C1_3 C 0.0172(8) 0.5810(4) 0.0819(4)
C2_3 C 0.2534(9) 0.5124(3) 0.2508(4)
H2_3 H 0.3028 0.5348 0.2256
N3_3 N 0.1215(6) 0.4949(3) 0.2428(3)
C4_3 C 0.0919(8) 0.4660(4) 0.2884(4)
H4_3 H 0.0061 0.4483 0.2956
N4_3 N 0.3059(6) 0.4945(3) 0.2982(3)
C6_3 C 0.2016(8) 0.4659(4) 0.3221(4)
H6_3 H 0.2054 0.4486 0.3570
N5_3 N 0.0500(7) 0.6313(3) 0.0664(3)
C9_3 C 0.1026(10) 0.6548(4) 0.1127(4)
H9_3 H 0.1361 0.6917 0.1156
N6_3 N 0.0433(7) 0.5702(3) 0.1346(3)
C11_3 C 0.0995(10) 0.6172(4) 0.1543(4)
H11_3 H 0.1313 0.6231 0.1906
Zn4_2 Zn 0.50204(11) 0.50179(5) 0.32387(4)
N11_3 N 0.0432(7) 0.4349(3) 0.1307(3)
C7_3 C 0.0078(8) 0.5818(4) 0.9182(4)
H7_3 H 0.0739 0.5611 0.9384
N1_3 N 0.8816(7) 0.7346(3) 0.0181(3)
H1_3 H 0.9780 0.5545 0.0577
C3_3 C 0.8966(9) 0.7722(4) 0.0598(4)
H3_3 H 0.9739 0.7744 0.0836
C8_3 C 0.7847(8) 0.8057(4) 0.0618(4)
H8_3 H 0.7700 0.8352 0.0868
N10_3 N 0.8059(6) 0.4945(3) 0.2018(3)
C5_3 C 0.7584(8) 0.7463(4) 0.9967(4)
H5_3 H 0.7185 0.7262 0.9671
C10_3 C 0.8642(9) 0.6058(4) 0.8555(4)
H10_3 H 0.8082 0.6059 0.8235
C12_3 C 0.8649(10) 0.6457(4) 0.8945(4)
H12_3 H 0.8115 0.6788 0.8937
N7_3 N 0.9549(7) 0.6309(3) 0.9354(3)
N8_3 N 0.9568(7) 0.5651(3) 0.8693(3)
Zn5_2 Zn 0.99796(11) 0.49821(5) 0.82387(4)
Zn2_4 Zn 0.49796(11) 0.49821(5) 0.67613(4)
N1_4 N 0.6184(7) 0.2654(3) 0.5181(3)
C1_4 C 0.4828(8) 0.4190(4) 0.5819(4)
H1_4 H 0.5220 0.4455 0.5577
C2_4 C 0.2466(9) 0.4876(3) 0.7508(4)
H2_4 H 0.1972 0.4652 0.7256
C3_4 C 0.6034(9) 0.2278(4) 0.5598(4)
H3_4 H 0.5261 0.2256 0.5836
N3_4 N 0.3785(6) 0.5051(3) 0.7428(3)
C4_4 C 0.4081(8) 0.5340(4) 0.7884(4)
H4_4 H 0.4939 0.5517 0.7956
C5_4 C 0.7416(8) 0.2537(4) 0.4967(4)
H5_4 H 0.7815 0.2738 0.4671
N4_4 N 0.1941(6) 0.5055(3) 0.7982(3)
C6_4 C 0.2984(8) 0.5341(4) 0.8221(4)
H6_4 H 0.2946 0.5514 0.8570
C7_4 C 0.4922(8) 0.4182(4) 0.4182(4)
H7_4 H 0.4261 0.4389 0.4384
C8_4 C 0.7153(8) 0.1943(4) 0.5618(4)
H8_4 H 0.7300 0.1648 0.5868
N5_4 N 0.4500(7) 0.3687(3) 0.5664(3)
C9_4 C 0.3974(10) 0.3452(4) 0.6127(4)
H9_4 H 0.3639 0.3083 0.6156
C10_4 C 0.6358(9) 0.3942(4) 0.3555(4)
H10_4 H 0.6918 0.3941 0.3235
N6_4 N 0.4567(7) 0.4298(3) 0.6346(3)
C11_4 C 0.4005(10) 0.3828(4) 0.6543(4)
H11_4 H 0.3687 0.3769 0.6906
C12_4 C 0.6351(10) 0.3543(4) 0.3945(4)
H12_4 H 0.6885 0.3212 0.3937
N7_4 N 0.5451(7) 0.3691(3) 0.4354(3)
N8_4 N 0.5432(7) 0.4349(3) 0.3693(3)
N10_4 N 0.6941(6) 0.5055(3) 0.7018(3)
N11_4 N 0.4568(7) 0.5651(3) 0.6307(3)
N3_5 N 0.1215(6) 0.0051(3) 0.7428(3)
C4_5 C 0.0919(8) 0.0340(4) 0.7884(4)
H4_5 H 0.0061 0.0517 0.7956
C6_5 C 0.2016(8) 0.0341(4) 0.8221(4)
H6_5 H 0.2054 0.0514 0.8570
Zn1_3 Zn 0.01511(8) 0.82535(4) 0.49878(5)
C1_5 C 0.0172(8) 0.9190(4) 0.5819(4)
C2_5 C 0.2534(9) 0.9876(3) 0.7508(4)
H2_5 H 0.3028 0.9652 0.7256
C7_5 C 0.0078(8) 0.9182(4) 0.4182(4)
H7_5 H 0.0739 0.9389 0.4384
N5_5 N 0.0500(7) 0.8687(3) 0.5664(3)
C9_5 C 0.1026(10) 0.8452(4) 0.6127(4)
H9_5 H 0.1361 0.8083 0.6156
N6_5 N 0.0433(7) 0.9298(3) 0.6346(3)
C11_5 C 0.0995(10) 0.8828(4) 0.6543(4)
H11_5 H 0.1313 0.8769 0.6906
N9_3 N 0.1968(6) 0.7894(3) 0.4787(3)
N1_5 N 0.8816(7) 0.7654(3) 0.5181(3)
N2_3 N 0.6968(6) 0.7106(3) 0.5213(3)
H1_5 H 0.9780 0.9455 0.5577
C3_5 C 0.8966(9) 0.7278(4) 0.5598(4)
H3_5 H 0.9739 0.7256 0.5836
C5_5 C 0.7584(8) 0.7537(4) 0.4967(4)
H5_5 H 0.7185 0.7738 0.4671
C8_5 C 0.7847(8) 0.6943(4) 0.5618(4)
H8_5 H 0.7700 0.6648 0.5868
C10_5 C 0.8642(9) 0.8942(4) 0.3555(4)
H10_5 H 0.8082 0.8941 0.3235
C12_5 C 0.8649(10) 0.8543(4) 0.3945(4)
H12_5 H 0.8115 0.8212 0.3937
N7_5 N 0.9549(7) 0.8691(3) 0.4354(3)
Zn3_3 Zn 0.51511(8) 0.67465(4) 0.50122(5)
N1_6 N 0.6184(7) 0.2346(3) 0.0181(3)
N2_4 N 0.8032(6) 0.2894(3) 0.0213(3)
C1_6 C 0.4828(8) 0.0810(4) 0.0819(4)
H1_6 H 0.5220 0.0545 0.0577
C2_6 C 0.2466(9) 0.0124(3) 0.2508(4)
H2_6 H 0.1972 0.0348 0.2256
C3_6 C 0.6034(9) 0.2722(4) 0.0598(4)
H3_6 H 0.5261 0.2744 0.0836
C8_6 C 0.7153(8) 0.3057(4) 0.0618(4)
H8_6 H 0.7300 0.3352 0.0868
N5_6 N 0.4500(7) 0.1313(3) 0.0664(3)
C9_6 C 0.3974(10) 0.1548(4) 0.1127(4)
H9_6 H 0.3639 0.1917 0.1156
N6_6 N 0.4567(7) 0.0702(3) 0.1346(3)
C11_6 C 0.4005(10) 0.1172(4) 0.1543(4)
H11_6 H 0.3687 0.1231 0.1906
Zn3_4 Zn 0.98489(8) 0.32535(4) 0.00122(5)
Zn1_4 Zn 0.48489(8) 0.17465(4) 0.99878(5)
C5_6 C 0.7416(8) 0.2463(4) 0.9967(4)
H5_6 H 0.7815 0.2262 0.9671
C7_6 C 0.4922(8) 0.0818(4) 0.9182(4)
H7_6 H 0.4261 0.0611 0.9384
C10_6 C 0.6358(9) 0.1058(4) 0.8555(4)
H10_6 H 0.6918 0.1059 0.8235
C12_6 C 0.6351(10) 0.1457(4) 0.8945(4)
H12_6 H 0.6885 0.1788 0.8937
N7_6 N 0.5451(7) 0.1309(3) 0.9354(3)
N9_4 N 0.3032(6) 0.2106(3) 0.9787(3)
N3_6 N 0.3785(6) 0.9949(3) 0.2428(3)
C4_6 C 0.4081(8) 0.9660(4) 0.2884(4)
H4_6 H 0.4939 0.9483 0.2956
C6_6 C 0.2984(8) 0.9659(4) 0.3221(4)
H6_6 H 0.2946 0.9486 0.3570
C5_7 C 0.2416(8) 0.2537(4) 0.0033(4)
H5_7 H 0.2815 0.2738 0.0329
C10_7 C 0.1358(9) 0.3942(4) 0.1445(4)
H10_7 H 0.1918 0.3941 0.1765
C12_7 C 0.1351(10) 0.3543(4) 0.1055(4)
H12_7 H 0.1885 0.3212 0.1063
N7_7 N 0.0451(7) 0.3691(3) 0.0646(3)
N1_7 N 0.1184(7) 0.2654(3) 0.9819(3)
H1_7 H 0.0220 0.4455 0.9423
C3_7 C 0.1034(9) 0.2278(4) 0.9402(4)
H3_7 H 0.0261 0.2256 0.9164
C8_7 C 0.2153(8) 0.1943(4) 0.9382(4)
H8_7 H 0.2300 0.1648 0.9132
C7_7 C 0.9922(8) 0.4182(4) 0.0818(4)
H7_7 H 0.9261 0.4389 0.0616
C1_7 C 0.9828(8) 0.4190(4) 0.9181(4)
C2_7 C 0.7466(9) 0.4876(3) 0.7492(4)
H2_7 H 0.6972 0.4652 0.7744
N3_7 N 0.8785(6) 0.5051(3) 0.7572(3)
C4_7 C 0.9081(8) 0.5340(4) 0.7116(4)
H4_7 H 0.9939 0.5517 0.7044
C6_7 C 0.7984(8) 0.5341(4) 0.6779(4)
H6_7 H 0.7946 0.5514 0.6430
N5_7 N 0.9500(7) 0.3687(3) 0.9336(3)
C9_7 C 0.8974(10) 0.3452(4) 0.8873(4)
H9_7 H 0.8639 0.3083 0.8844
N6_7 N 0.9567(7) 0.4298(3) 0.8654(3)
C11_7 C 0.9005(10) 0.3828(4) 0.8457(4)
H11_7 H 0.8687 0.3769 0.8094
N1_8 N 0.3816(7) 0.7346(3) 0.4819(3)
C1_8 C 0.5172(8) 0.5810(4) 0.4181(4)
H1_8 H 0.4780 0.5545 0.4423
C2_8 C 0.7534(9) 0.5124(3) 0.2492(4)
H2_8 H 0.8028 0.5348 0.2744
C3_8 C 0.3966(9) 0.7722(4) 0.4402(4)
H3_8 H 0.4739 0.7744 0.4164
N3_8 N 0.6215(6) 0.4949(3) 0.2572(3)
C4_8 C 0.5919(8) 0.4660(4) 0.2116(4)
H4_8 H 0.5061 0.4483 0.2044
C5_8 C 0.2584(8) 0.7463(4) 0.5033(4)
H5_8 H 0.2185 0.7262 0.5329
C6_8 C 0.7016(8) 0.4659(4) 0.1779(4)
H6_8 H 0.7054 0.4486 0.1430
C7_8 C 0.5078(8) 0.5818(4) 0.5818(4)
H7_8 H 0.5739 0.5611 0.5616
C8_8 C 0.2847(8) 0.8057(4) 0.4382(4)
H8_8 H 0.2700 0.8352 0.4132
N5_8 N 0.5500(7) 0.6313(3) 0.4336(3)
C9_8 C 0.6026(10) 0.6548(4) 0.3873(4)
H9_8 H 0.6361 0.6917 0.3844
C10_8 C 0.3642(9) 0.6058(4) 0.6445(4)
H10_8 H 0.3082 0.6059 0.6765
N6_8 N 0.5433(7) 0.5702(3) 0.3654(3)
C11_8 C 0.5995(10) 0.6172(4) 0.3457(4)
H11_8 H 0.6313 0.6231 0.3094
C12_8 C 0.3649(10) 0.6457(4) 0.6055(4)
H12_8 H 0.3115 0.6788 0.6063
N7_8 N 0.4549(7) 0.6309(3) 0.5646(3)
loop_
_geom_bond_atom_site_label_1
_geom_bond_atom_site_label_2
_geom_bond_site_symmetry_1
_geom_bond_site_symmetry_2
N1 C3 1_555 1_555
N2 C5 1_555 1_555
C3 H3 1_555 1_555
C5 N1 1_555 1_555
H5 C5 1_555 1_555
C8 N2 1_555 1_555
H8 C8 1_555 1_555
C10 H10 1_555 1_555
C12 C10 1_555 1_555
H12 C12 1_555 1_555
Zn3 N2 1_555 1_555
C3 C8 1_555 1_555
C10 N8 1_555 1_555
C12 N7 1_555 1_555
C2 H2 1_555 1_555
C7 H7 1_555 1_555
N5 Zn1 1_555 1_555
C9 N5 1_555 1_555
H9 C9 1_555 1_555
N6 Zn2 1_555 1_555
C11 C9 1_555 1_555
H11 C11 1_555 1_555
N9 Zn1 1_555 1_555
C1 N5 1_555 1_555
C1 N6 1_555 1_555
N6 C11 1_555 1_555
C4 N3 1_555 1_555
H4 C4 1_555 1_555
C6 C4 1_555 1_555
H6 C6 1_555 1_555
N4 C6 1_555 1_555
C4_2 N3_2 1_555 1_555
H4_2 C4_2 1_555 1_555
C6_2 C4_2 1_555 1_555
H6_2 C6_2 1_555 1_555
N4_2 C6_2 1_555 1_555
H5_2 C5_2 1_555 1_555
C7_2 H7_2 1_555 1_555
C10_2 H10_2 1_555 1_555
C12_2 C10_2 1_555 1_555
H12_2 C12_2 1_555 1_555
N7_2 Zn1_2 1_555 1_555
N8_2 C7_2 1_555 1_555
N9_2 Zn1_2 1_555 1_555
C7_2 N7_2 1_555 1_555
C10_2 N8_2 1_555 1_555
C12_2 N7_2 1_555 1_555
N1_2 C3_2 1_555 1_555
C1_2 H1_2 1_555 1_555
C2_2 H2_2 1_555 1_555
C3_2 H3_2 1_555 1_555
C8_2 N2_2 1_555 1_555
H8_2 C8_2 1_555 1_555
C9_2 N5_2 1_555 1_555
H9_2 C9_2 1_555 1_555
N6_2 Zn2_2 1_555 1_555
C11_2 C9_2 1_555 1_555
H11_2 C11_2 1_555 1_555
Zn3_2 N2_2 1_555 1_555
C1_2 N5_2 1_555 1_555
C1_2 N6_2 1_555 1_555
C3_2 C8_2 1_555 1_555
N6_2 C11_2 1_555 1_555
Zn2_3 N3_3 1_555 1_555
C2_3 H2_3 1_555 1_555
N3_3 C2_3 1_555 1_555
C4_3 N3_3 1_555 1_555
H4_3 C4_3 1_555 1_555
N4_3 C2_3 1_555 1_555
C6_3 C4_3 1_555 1_555
H6_3 C6_3 1_555 1_555
C9_3 N5_3 1_555 1_555
H9_3 C9_3 1_555 1_555
N6_3 Zn2_3 1_555 1_555
C11_3 C9_3 1_555 1_555
H11_3 C11_3 1_555 1_555
Zn4_2 N4_3 1_555 1_555
N11_3 Zn2_3 1_555 1_555
C1_3 N5_3 1_555 1_555
C1_3 N6_3 1_555 1_555
N4_3 C6_3 1_555 1_555
N6_3 C11_3 1_555 1_555
C7_3 H7_3 1_555 1_555
N1_3 C3_3 1_555 1_555
C3_3 H3_3 1_555 1_555
C8_3 N9_2 1_555 1_555
H8_3 C8_3 1_555 1_555
C3_3 C8_3 1_555 1_555
H5_3 C5_3 1_555 1_555
C10_3 H10_3 1_555 1_555
C12_3 C10_3 1_555 1_555
H12_3 C12_3 1_555 1_555
Zn5_2 N8_3 1_555 1_555
C10_3 N8_3 1_555 1_555
C12_3 N7_3 1_555 1_555
Zn3 N1_4 1_555 1_555
Zn2_4 N3_4 1_555 1_555
N1_4 C3_4 1_555 1_555
N9 C5_4 1_555 1_555
C1_4 H1_4 1_555 1_555
C2_4 H2_4 1_555 1_555
C3_4 H3_4 1_555 1_555
N3_4 C2_4 1_555 1_555
C4_4 N3_4 1_555 1_555
H4_4 C4_4 1_555 1_555
C5_4 N1_4 1_555 1_555
H5_4 C5_4 1_555 1_555
N4_4 C2_4 1_555 1_555
C6_4 C4_4 1_555 1_555
H6_4 C6_4 1_555 1_555
C7_4 H7_4 1_555 1_555
C8_4 N9 1_555 1_555
H8_4 C8_4 1_555 1_555
N5_4 Zn3 1_555 1_555
C9_4 N5_4 1_555 1_555
H9_4 C9_4 1_555 1_555
C10_4 H10_4 1_555 1_555
N6_4 Zn2_4 1_555 1_555
C11_4 C9_4 1_555 1_555
H11_4 C11_4 1_555 1_555
C12_4 C10_4 1_555 1_555
H12_4 C12_4 1_555 1_555
N7_4 Zn3 1_555 1_555
N8_4 C7_4 1_555 1_555
Zn4_2 N8_4 1_555 1_555
N10_4 Zn2_4 1_555 1_555
N11_4 Zn2_4 1_555 1_555
C1_4 N5_4 1_555 1_555
C1_4 N6_4 1_555 1_555
C3_4 C8_4 1_555 1_555
N4_4 C6_4 1_555 1_555
C7_4 N7_4 1_555 1_555
C10_4 N8_4 1_555 1_555
N6_4 C11_4 1_555 1_555
C12_4 N7_4 1_555 1_555
C4_5 N3_5 1_555 1_555
H4_5 C4_5 1_555 1_555
C6_5 C4_5 1_555 1_555
H6_5 C6_5 1_555 1_555
N10_2 C6_5 1_555 1_555
C2_5 H2_5 1_555 1_555
C7_5 H7_5 1_555 1_555
N5_5 Zn1_3 1_555 1_555
C9_5 N5_5 1_555 1_555
H9_5 C9_5 1_555 1_555
N6_5 Zn5 1_555 1_555
C11_5 C9_5 1_555 1_555
H11_5 C11_5 1_555 1_555
N9_3 Zn1_3 1_555 1_555
C1_5 N5_5 1_555 1_555
C1_5 N6_5 1_555 1_555
N6_5 C11_5 1_555 1_555
N1_5 C3_5 1_555 1_555
N2_3 C5_5 1_555 1_555
C3_5 H3_5 1_555 1_555
C5_5 N1_5 1_555 1_555
H5_5 C5_5 1_555 1_555
C8_5 N2_3 1_555 1_555
H8_5 C8_5 1_555 1_555
C10_5 H10_5 1_555 1_555
C12_5 C10_5 1_555 1_555
H12_5 C12_5 1_555 1_555
Zn3_3 N2_3 1_555 1_555
C3_5 C8_5 1_555 1_555
C10_5 N11 1_555 1_555
C12_5 N7_5 1_555 1_555
N1_6 C3_6 1_555 1_555
C1_6 H1_6 1_555 1_555
C2_6 H2_6 1_555 1_555
C3_6 H3_6 1_555 1_555
C8_6 N2_4 1_555 1_555
H8_6 C8_6 1_555 1_555
C9_6 N5_6 1_555 1_555
H9_6 C9_6 1_555 1_555
N6_6 Zn4 1_555 1_555
C11_6 C9_6 1_555 1_555
H11_6 C11_6 1_555 1_555
Zn3_4 N2_4 1_555 1_555
C1_6 N5_6 1_555 1_555
C1_6 N6_6 1_555 1_555
C3_6 C8_6 1_555 1_555
N6_6 C11_6 1_555 1_555
H5_6 C5_6 1_555 1_555
C7_6 H7_6 1_555 1_555
C10_6 H10_6 1_555 1_555
C12_6 C10_6 1_555 1_555
H12_6 C12_6 1_555 1_555
N7_6 Zn1_4 1_555 1_555
N11_2 C7_6 1_555 1_555
N9_4 Zn1_4 1_555 1_555
C7_6 N7_6 1_555 1_555
C10_6 N11_2 1_555 1_555
C12_6 N7_6 1_555 1_555
C4_6 N3_6 1_555 1_555
H4_6 C4_6 1_555 1_555
C6_6 C4_6 1_555 1_555
H6_6 C6_6 1_555 1_555
N10 C6_6 1_555 1_555
H5_7 C5_7 1_555 1_555
C10_7 H10_7 1_555 1_555
C12_7 C10_7 1_555 1_555
H12_7 C12_7 1_555 1_555
C10_7 N11_3 1_555 1_555
C12_7 N7_7 1_555 1_555
N1_7 C3_7 1_555 1_555
C3_7 H3_7 1_555 1_555
C8_7 N9_4 1_555 1_555
H8_7 C8_7 1_555 1_555
C3_7 C8_7 1_555 1_555
C7_7 H7_7 1_555 1_555
Zn5_2 N3_7 1_555 1_555
C2_7 H2_7 1_555 1_555
N3_7 C2_7 1_555 1_555
C4_7 N3_7 1_555 1_555
H4_7 C4_7 1_555 1_555
N10_4 C2_7 1_555 1_555
C6_7 C4_7 1_555 1_555
H6_7 C6_7 1_555 1_555
C9_7 N5_7 1_555 1_555
H9_7 C9_7 1_555 1_555
N6_7 Zn5_2 1_555 1_555
C11_7 C9_7 1_555 1_555
H11_7 C11_7 1_555 1_555
C1_7 N5_7 1_555 1_555
C1_7 N6_7 1_555 1_555
N10_4 C6_7 1_555 1_555
N6_7 C11_7 1_555 1_555
Zn3_3 N1_8 1_555 1_555
Zn4_2 N3_8 1_555 1_555
N1_8 C3_8 1_555 1_555
N9_3 C5_8 1_555 1_555
C1_8 H1_8 1_555 1_555
C2_8 H2_8 1_555 1_555
C3_8 H3_8 1_555 1_555
N3_8 C2_8 1_555 1_555
C4_8 N3_8 1_555 1_555
H4_8 C4_8 1_555 1_555
C5_8 N1_8 1_555 1_555
H5_8 C5_8 1_555 1_555
N10_3 C2_8 1_555 1_555
C6_8 C4_8 1_555 1_555
H6_8 C6_8 1_555 1_555
C7_8 H7_8 1_555 1_555
C8_8 N9_3 1_555 1_555
H8_8 C8_8 1_555 1_555
N5_8 Zn3_3 1_555 1_555
C9_8 N5_8 1_555 1_555
H9_8 C9_8 1_555 1_555
C10_8 H10_8 1_555 1_555
N6_8 Zn4_2 1_555 1_555
C11_8 C9_8 1_555 1_555
H11_8 C11_8 1_555 1_555
C12_8 C10_8 1_555 1_555
H12_8 C12_8 1_555 1_555
N7_8 Zn3_3 1_555 1_555
N11_4 C7_8 1_555 1_555
C1_8 N5_8 1_555 1_555
C1_8 N6_8 1_555 1_555
C3_8 C8_8 1_555 1_555
N10_3 C6_8 1_555 1_555
C7_8 N7_8 1_555 1_555
C10_8 N11_4 1_555 1_555
N6_8 C11_8 1_555 1_555
C12_8 N7_8 1_555 1_555

#END
