
###############################################################################
#
# This file contains modified crystal structure data generated from the
# MOF subset of the Cambridge Structural Database (CSD) v543 
# hosted by the Cambridge Crystallographic Data Centre (CCDC).
#
# This work is licensed under the Creative Commons
# Attribution-NonCommercial-ShareAlike 4.0 International License.
# To view a copy of this license, visit
# http://creativecommons.org/licenses/by-nc-sa/4.0/
# or send a letter to
# Creative Commons, PO Box 1866, Mountain View, CA 94042, USA.
#
# CIF created using the CSD Python API on 29 September 2022
# The structure has been converted into the P1 space group
# The structure has a 3D framework
# The original CSD entry VEJYUF01 is in the orthorhombic crystal system
# The framework has been calculated to contain at least 10.0% void space
# The void calculation uses a probe of radius 1.32A, grid spacing 0.4
#
###############################################################################

data_VEJYUF01
_chemical_formula_moiety         '(C96 H96 N64 Zn12)n'
_symmetry_cell_setting           triclinic
_symmetry_space_group_name_H-M   'P 1'
_symmetry_Int_Tables_number      1
_space_group_name_Hall           'P 1'
loop_
_symmetry_equiv_pos_site_id
_symmetry_equiv_pos_as_xyz
1 x,y,z
_cell_length_a                   15.379(5)
_cell_length_b                   15.449(5)
_cell_length_c                   18.407(6)
_cell_angle_alpha                90
_cell_angle_beta                 90
_cell_angle_gamma                90
_cell_volume                     4373.32
loop_
_atom_site_label
_atom_site_type_symbol
_atom_site_fract_x
_atom_site_fract_y
_atom_site_fract_z
Zn1 Zn 0.20052(3) 0.13963(3) 0.40614(3)
Zn2 Zn 0.50879(3) 0.33582(3) 0.31534(3)
N1 N 0.4424(2) 0.2358(2) 0.3542(2)
N2 N 0.3259(2) 0.1619(2) 0.3882(2)
N3 N 0.1000(2) 0.1330(2) 0.61329(18)
N4 N 0.1723(2) 0.1238(2) 0.50974(18)
N6 N 0.1626(2) 0.0371(2) 0.34885(19)
N7 N 0.0617(2) 0.3115(2) 0.27986(18)
N8 N 0.1336(2) 0.2390(2) 0.36498(18)
C1 C 0.3565(3) 0.2346(3) 0.3606(2)
H1 H 0.3212 0.2806 0.3468
C2 C 0.3966(3) 0.1135(3) 0.4031(3)
H2 H 0.3964 0.0588 0.4243
C3 C 0.4684(3) 0.1582(4) 0.3820(3)
H3 H 0.5255 0.1391 0.3859
C4 C 0.1049(3) 0.1541(3) 0.5448(2)
H4 H 0.0632 0.1884 0.5223
C5 C 0.2155(4) 0.0787(5) 0.5614(3)
H5 H 0.2670 0.0482 0.5546
C6 C 0.1716(4) 0.0854(5) 0.6240(3)
H6 H 0.1883 0.0609 0.6680
C8 C 0.1895(4) 0.0127(4) 0.2823(3)
H8 H 0.2364 0.0360 0.2572
C10 C 0.0979(3) 0.2375(3) 0.2994(2)
H10 H 0.0982 0.1887 0.2698
C11 C 0.0759(4) 0.3644(3) 0.3371(3)
H11 H 0.0585 0.4219 0.3401
C12 C 0.1195(4) 0.3206(4) 0.3894(3)
H12 H 0.1367 0.3426 0.4342
Zn3 Zn 0.00879(3) 0.16418(3) 0.68466(3)
Zn5 Zn 0.00879(3) 0.33582(3) 0.18466(3)
N9 N 0.6000(2) 0.3670(2) 0.38671(18)
N10 N 0.4235(2) 0.4322(2) 0.30859(18)
N11 N 0.5617(2) 0.3115(2) 0.22014(18)
N5 N 0.0765(2) 0.9322(2) 0.30859(18)
C7 C 0.0952(3) 0.9873(3) 0.3620(2)
H7 H 0.0633 0.9903 0.4048
C9 C 0.1373(4) 0.9490(4) 0.2579(3)
H9 H 0.1424 0.9212 0.2133
Zn4 Zn 0.99121(3) 0.83582(3) 0.31534(3)
N5_2 N 0.4235(2) 0.0678(2) 0.80859(18)
C7_2 C 0.4048(3) 0.0127(3) 0.8620(2)
H7_2 H 0.4367 0.0097 0.9048
C9_2 C 0.3627(4) 0.0510(4) 0.7579(3)
H9_2 H 0.3576 0.0788 0.7133
Zn4_2 Zn 0.50879(3) 0.16418(3) 0.81534(3)
N3_2 N 0.4000(2) 0.8670(2) 0.11329(18)
N4_2 N 0.3277(2) 0.8762(2) 0.00974(18)
C4_2 C 0.3951(3) 0.8459(3) 0.0448(2)
H4_2 H 0.4368 0.8116 0.0223
C5_2 C 0.2845(4) 0.9213(5) 0.0614(3)
H5_2 H 0.2330 0.9518 0.0546
C6_2 C 0.3284(4) 0.9146(5) 0.1240(3)
H6_2 H 0.3117 0.9391 0.1680
Zn3_2 Zn 0.49121(3) 0.83582(3) 0.18466(3)
Zn1_2 Zn 0.29948(3) 0.86037(3) 0.90614(3)
N1_2 N 0.0576(2) 0.7642(2) 0.8542(2)
N2_2 N 0.1741(2) 0.8381(2) 0.8882(2)
N6_2 N 0.3374(2) 0.9629(2) 0.84885(19)
N7_2 N 0.4383(2) 0.6885(2) 0.77986(18)
N8_2 N 0.3664(2) 0.7610(2) 0.86498(18)
C1_2 C 0.1435(3) 0.7654(3) 0.8606(2)
H1_2 H 0.1788 0.7194 0.8468
C2_2 C 0.1034(3) 0.8865(3) 0.9031(3)
H2_2 H 0.1036 0.9412 0.9243
C3_2 C 0.0316(3) 0.8418(4) 0.8820(3)
C8_2 C 0.3105(4) 0.9873(4) 0.7823(3)
H8_2 H 0.2636 0.9640 0.7572
C10_2 C 0.4021(3) 0.7625(3) 0.7994(2)
H10_2 H 0.4018 0.8113 0.7698
C11_2 C 0.4241(4) 0.6356(3) 0.8371(3)
H11_2 H 0.4415 0.5781 0.8401
C12_2 C 0.3805(4) 0.6794(4) 0.8894(3)
H12_2 H 0.3633 0.6574 0.9342
Zn5_2 Zn 0.49121(3) 0.66418(3) 0.68466(3)
N10_2 N 0.0765(2) 0.5678(2) 0.80859(18)
Zn2_2 Zn 0.99121(3) 0.66418(3) 0.81534(3)
H3_2 H 0.9745 0.8609 0.8859
N9_2 N 0.9000(2) 0.6330(2) 0.88671(18)
N11_2 N 0.9383(2) 0.6885(2) 0.72014(18)
Zn1_3 Zn 0.79948(3) 0.63963(3) 0.09386(3)
N1_3 N 0.5576(2) 0.7358(2) 0.1458(2)
N2_3 N 0.6741(2) 0.6619(2) 0.1118(2)
N5_3 N 0.9235(2) 0.4322(2) 0.19141(18)
N6_3 N 0.8374(2) 0.5371(2) 0.15115(19)
N7_3 N 0.9383(2) 0.8115(2) 0.22014(18)
N8_3 N 0.8664(2) 0.7390(2) 0.13502(18)
C1_3 C 0.6435(3) 0.7346(3) 0.1394(2)
H1_3 H 0.6788 0.7806 0.1532
C2_3 C 0.6034(3) 0.6135(3) 0.0969(3)
H2_3 H 0.6036 0.5588 0.0757
C3_3 C 0.5316(3) 0.6582(4) 0.1180(3)
H3_3 H 0.4745 0.6391 0.1141
C7_3 C 0.9048(3) 0.4873(3) 0.1380(2)
H7_3 H 0.9367 0.4903 0.0952
C8_3 C 0.8105(4) 0.5127(4) 0.2177(3)
H8_3 H 0.7636 0.5360 0.2428
C9_3 C 0.8627(4) 0.4490(4) 0.2421(3)
H9_3 H 0.8576 0.4212 0.2867
C10_3 C 0.9021(3) 0.7375(3) 0.2006(2)
H10_3 H 0.9018 0.6887 0.2302
C11_3 C 0.9241(4) 0.8644(3) 0.1629(3)
H11_3 H 0.9415 0.9219 0.1599
C12_3 C 0.8805(4) 0.8206(4) 0.1106(3)
H12_3 H 0.8633 0.8426 0.0658
N10_3 N 0.5765(2) 0.9322(2) 0.19141(18)
N11_3 N 0.4383(2) 0.8115(2) 0.27986(18)
N4_3 N 0.8277(2) 0.6238(2) 0.99026(18)
C4_3 C 0.8951(3) 0.6541(3) 0.9552(2)
H4_3 H 0.9368 0.6884 0.9777
C5_3 C 0.7845(4) 0.5787(5) 0.9386(3)
H5_3 H 0.7330 0.5482 0.9454
C6_3 C 0.8284(4) 0.5854(5) 0.8760(3)
H6_3 H 0.8117 0.5609 0.8320
H3_4 H 0.0255 0.3609 0.6141
N11_4 N 0.0617(2) 0.1885(2) 0.77986(18)
Zn1_4 Zn 0.70052(3) 0.36037(3) 0.59386(3)
N1_4 N 0.9424(2) 0.2642(2) 0.6458(2)
N2_4 N 0.8259(2) 0.3381(2) 0.6118(2)
N4_4 N 0.6723(2) 0.3762(2) 0.49026(18)
N5_4 N 0.5765(2) 0.5678(2) 0.69141(18)
N6_4 N 0.6626(2) 0.4629(2) 0.65115(19)
N7_4 N 0.5617(2) 0.1885(2) 0.72014(18)
N8_4 N 0.6336(2) 0.2610(2) 0.63502(18)
C1_4 C 0.8565(3) 0.2654(3) 0.6394(2)
H1_4 H 0.8212 0.2194 0.6532
C2_4 C 0.8966(3) 0.3865(3) 0.5969(3)
H2_4 H 0.8964 0.4412 0.5757
C3_4 C 0.9684(3) 0.3418(4) 0.6180(3)
C4_4 C 0.6049(3) 0.3459(3) 0.4552(2)
H4_4 H 0.5632 0.3116 0.4777
C5_4 C 0.7155(4) 0.4213(5) 0.4386(3)
H5_4 H 0.7670 0.4518 0.4454
C6_4 C 0.6716(4) 0.4146(5) 0.3760(3)
H6_4 H 0.6883 0.4391 0.3320
C7_4 C 0.5952(3) 0.5127(3) 0.6380(2)
H7_4 H 0.5633 0.5097 0.5952
C8_4 C 0.6895(4) 0.4873(4) 0.7177(3)
H8_4 H 0.7364 0.4640 0.7428
C9_4 C 0.6373(4) 0.5510(4) 0.7421(3)
H9_4 H 0.6424 0.5788 0.7867
C10_4 C 0.5979(3) 0.2625(3) 0.7006(2)
H10_4 H 0.5982 0.3113 0.7302
C11_4 C 0.5759(4) 0.1356(3) 0.6629(3)
H11_4 H 0.5585 0.0781 0.6599
C12_4 C 0.6195(4) 0.1794(4) 0.6106(3)
H12_4 H 0.6367 0.1574 0.5658
N10_4 N 0.9235(2) 0.0678(2) 0.69141(18)
C7_5 C 0.9048(3) 0.0127(3) 0.6380(2)
H7_5 H 0.9367 0.0097 0.5952
C9_5 C 0.8627(4) 0.0510(4) 0.7421(3)
H9_5 H 0.8576 0.0788 0.7867
Zn1_5 Zn 0.79948(3) 0.86037(3) 0.59386(3)
N1_5 N 0.5576(2) 0.7642(2) 0.6458(2)
N2_5 N 0.6741(2) 0.8381(2) 0.6118(2)
N3_3 N 0.9000(2) 0.8670(2) 0.38671(18)
N4_5 N 0.8277(2) 0.8762(2) 0.49026(18)
N6_5 N 0.8374(2) 0.9629(2) 0.65115(19)
N8_5 N 0.8664(2) 0.7610(2) 0.63502(18)
C1_5 C 0.6435(3) 0.7654(3) 0.6394(2)
H1_5 H 0.6788 0.7194 0.6532
C2_5 C 0.6034(3) 0.8865(3) 0.5969(3)
H2_5 H 0.6036 0.9412 0.5757
C3_5 C 0.5316(3) 0.8418(4) 0.6180(3)
H3_5 H 0.4745 0.8609 0.6141
C4_5 C 0.8951(3) 0.8459(3) 0.4552(2)
H4_5 H 0.9368 0.8116 0.4777
C5_5 C 0.7845(4) 0.9213(5) 0.4386(3)
H5_5 H 0.7330 0.9518 0.4454
C6_5 C 0.8284(4) 0.9146(5) 0.3760(3)
H6_5 H 0.8117 0.9391 0.3320
C8_5 C 0.8105(4) 0.9873(4) 0.7177(3)
H8_5 H 0.7636 0.9640 0.7428
C10_5 C 0.9021(3) 0.7625(3) 0.7006(2)
H10_5 H 0.9018 0.8113 0.7302
C11_5 C 0.9241(4) 0.6356(3) 0.6629(3)
H11_5 H 0.9415 0.5781 0.6599
C12_5 C 0.8805(4) 0.6794(4) 0.6106(3)
H12_5 H 0.8633 0.6574 0.5658
N9_3 N 0.4000(2) 0.6330(2) 0.61329(18)
H3_6 H 0.0255 0.1391 0.1141
N9_4 N 0.1000(2) 0.3670(2) 0.11329(18)
Zn1_6 Zn 0.70052(3) 0.13963(3) 0.09386(3)
N1_6 N 0.9424(2) 0.2358(2) 0.1458(2)
N2_6 N 0.8259(2) 0.1619(2) 0.1118(2)
N6_6 N 0.6626(2) 0.0371(2) 0.15115(19)
N8_6 N 0.6336(2) 0.2390(2) 0.13502(18)
C1_6 C 0.8565(3) 0.2346(3) 0.1394(2)
H1_6 H 0.8212 0.2806 0.1532
C2_6 C 0.8966(3) 0.1135(3) 0.0969(3)
H2_6 H 0.8964 0.0588 0.0757
C3_6 C 0.9684(3) 0.1582(4) 0.1180(3)
C8_6 C 0.6895(4) 0.0127(4) 0.2177(3)
H8_6 H 0.7364 0.0360 0.2428
C10_6 C 0.5979(3) 0.2375(3) 0.2006(2)
H10_6 H 0.5982 0.1887 0.2302
C11_6 C 0.5759(4) 0.3644(3) 0.1629(3)
H11_6 H 0.5585 0.4219 0.1599
C12_6 C 0.6195(4) 0.3206(4) 0.1106(3)
H12_6 H 0.6367 0.3426 0.0658
N3_4 N 0.6000(2) 0.1330(2) 0.88671(18)
N4_6 N 0.6723(2) 0.1238(2) 0.99026(18)
C4_6 C 0.6049(3) 0.1541(3) 0.9552(2)
H4_6 H 0.5632 0.1884 0.9777
C5_6 C 0.7155(4) 0.0787(5) 0.9386(3)
H5_6 H 0.7670 0.0482 0.9454
C6_6 C 0.6716(4) 0.0854(5) 0.8760(3)
H6_6 H 0.6883 0.0609 0.8320
C7_6 C 0.5952(3) 0.9873(3) 0.1380(2)
H7_6 H 0.5633 0.9903 0.0952
C9_6 C 0.6373(4) 0.9490(4) 0.2421(3)
H9_6 H 0.6424 0.9212 0.2867
N4_7 N 0.1723(2) 0.3762(2) 0.00974(18)
C4_7 C 0.1049(3) 0.3459(3) 0.0448(2)
H4_7 H 0.0632 0.3116 0.0223
C5_7 C 0.2155(4) 0.4213(5) 0.0614(3)
H5_7 H 0.2670 0.4518 0.0546
C6_7 C 0.1716(4) 0.4146(5) 0.1240(3)
H6_7 H 0.1883 0.4391 0.1680
Zn1_7 Zn 0.20052(3) 0.36037(3) 0.90614(3)
N1_7 N 0.4424(2) 0.2642(2) 0.8542(2)
N2_7 N 0.3259(2) 0.3381(2) 0.8882(2)
N6_7 N 0.1626(2) 0.4629(2) 0.84885(19)
N8_7 N 0.1336(2) 0.2610(2) 0.86498(18)
C1_7 C 0.3565(3) 0.2654(3) 0.8606(2)
H1_7 H 0.3212 0.2194 0.8468
C2_7 C 0.3966(3) 0.3865(3) 0.9031(3)
H2_7 H 0.3964 0.4412 0.9243
C3_7 C 0.4684(3) 0.3418(4) 0.8820(3)
H3_7 H 0.5255 0.3609 0.8859
C7_7 C 0.0952(3) 0.5127(3) 0.8620(2)
H7_7 H 0.0633 0.5097 0.9048
C8_7 C 0.1895(4) 0.4873(4) 0.7823(3)
H8_7 H 0.2364 0.4640 0.7572
C9_7 C 0.1373(4) 0.5510(4) 0.7579(3)
H9_7 H 0.1424 0.5788 0.7133
C10_7 C 0.0979(3) 0.2625(3) 0.7994(2)
H10_7 H 0.0982 0.3113 0.7698
C11_7 C 0.0759(4) 0.1356(3) 0.8371(3)
H11_7 H 0.0585 0.0781 0.8401
C12_7 C 0.1195(4) 0.1794(4) 0.8894(3)
H12_7 H 0.1367 0.1574 0.9342
Zn1_8 Zn 0.29948(3) 0.63963(3) 0.40614(3)
N1_8 N 0.0576(2) 0.7358(2) 0.3542(2)
N2_8 N 0.1741(2) 0.6619(2) 0.3882(2)
N4_8 N 0.3277(2) 0.6238(2) 0.50974(18)
N6_8 N 0.3374(2) 0.5371(2) 0.34885(19)
N8_8 N 0.3664(2) 0.7390(2) 0.36498(18)
C1_8 C 0.1435(3) 0.7346(3) 0.3606(2)
H1_8 H 0.1788 0.7806 0.3468
C2_8 C 0.1034(3) 0.6135(3) 0.4031(3)
H2_8 H 0.1036 0.5588 0.4243
C3_8 C 0.0316(3) 0.6582(4) 0.3820(3)
C4_8 C 0.3951(3) 0.6541(3) 0.5448(2)
H4_8 H 0.4368 0.6884 0.5223
C5_8 C 0.2845(4) 0.5787(5) 0.5614(3)
H5_8 H 0.2330 0.5482 0.5546
C6_8 C 0.3284(4) 0.5854(5) 0.6240(3)
H6_8 H 0.3117 0.5609 0.6680
C7_8 C 0.4048(3) 0.4873(3) 0.3620(2)
H7_8 H 0.4367 0.4903 0.4048
C8_8 C 0.3105(4) 0.5127(4) 0.2823(3)
H8_8 H 0.2636 0.5360 0.2572
C9_8 C 0.3627(4) 0.4490(4) 0.2579(3)
H9_8 H 0.3576 0.4212 0.2133
C10_8 C 0.4021(3) 0.7375(3) 0.2994(2)
H10_8 H 0.4018 0.6887 0.2698
C11_8 C 0.4241(4) 0.8644(3) 0.3371(3)
H11_8 H 0.4415 0.9219 0.3401
C12_8 C 0.3805(4) 0.8206(4) 0.3894(3)
H12_8 H 0.3633 0.8426 0.4342
H3_8 H 0.9745 0.6391 0.3859
loop_
_geom_bond_atom_site_label_1
_geom_bond_atom_site_label_2
_geom_bond_site_symmetry_1
_geom_bond_site_symmetry_2
Zn1 N2 1_555 1_555
Zn2 N1 1_555 1_555
N1 C1 1_555 1_555
N2 C1 1_555 1_555
N3 C4 1_555 1_555
N4 Zn1 1_555 1_555
N6 Zn1 1_555 1_555
N7 C10 1_555 1_555
N8 Zn1 1_555 1_555
C1 H1 1_555 1_555
C2 N2 1_555 1_555
H2 C2 1_555 1_555
C3 N1 1_555 1_555
H3 C3 1_555 1_555
C4 N4 1_555 1_555
H4 C4 1_555 1_555
C5 N4 1_555 1_555
H5 C5 1_555 1_555
C6 N3 1_555 1_555
H6 C6 1_555 1_555
C8 N6 1_555 1_555
H8 C8 1_555 1_555
C10 N8 1_555 1_555
H10 C10 1_555 1_555
C11 N7 1_555 1_555
H11 C11 1_555 1_555
C12 N8 1_555 1_555
H12 C12 1_555 1_555
Zn3 N3 1_555 1_555
Zn5 N7 1_555 1_555
N9 Zn2 1_555 1_555
N10 Zn2 1_555 1_555
N11 Zn2 1_555 1_555
C2 C3 1_555 1_555
C5 C6 1_555 1_555
C11 C12 1_555 1_555
N5 C7 1_555 1_555
H7 C7 1_555 1_555
C9 N5 1_555 1_555
H9 C9 1_555 1_555
N5_2 C7_2 1_555 1_555
H7_2 C7_2 1_555 1_555
C9_2 N5_2 1_555 1_555
H9_2 C9_2 1_555 1_555
Zn4_2 N5_2 1_555 1_555
N3_2 C4_2 1_555 1_555
C4_2 N4_2 1_555 1_555
H4_2 C4_2 1_555 1_555
C5_2 N4_2 1_555 1_555
H5_2 C5_2 1_555 1_555
C6_2 N3_2 1_555 1_555
H6_2 C6_2 1_555 1_555
Zn3_2 N3_2 1_555 1_555
C5_2 C6_2 1_555 1_555
Zn1_2 N2_2 1_555 1_555
N1_2 C1_2 1_555 1_555
N2_2 C1_2 1_555 1_555
N6_2 Zn1_2 1_555 1_555
N7_2 C10_2 1_555 1_555
N8_2 Zn1_2 1_555 1_555
C1_2 H1_2 1_555 1_555
C2_2 N2_2 1_555 1_555
H2_2 C2_2 1_555 1_555
C3_2 N1_2 1_555 1_555
C8_2 N6_2 1_555 1_555
H8_2 C8_2 1_555 1_555
C10_2 N8_2 1_555 1_555
H10_2 C10_2 1_555 1_555
C11_2 N7_2 1_555 1_555
H11_2 C11_2 1_555 1_555
C12_2 N8_2 1_555 1_555
H12_2 C12_2 1_555 1_555
Zn5_2 N7_2 1_555 1_555
C2_2 C3_2 1_555 1_555
C11_2 C12_2 1_555 1_555
N9_2 Zn2_2 1_555 1_555
N11_2 Zn2_2 1_555 1_555
Zn1_3 N2_3 1_555 1_555
Zn3_2 N1_3 1_555 1_555
N1_3 C1_3 1_555 1_555
N2_3 C1_3 1_555 1_555
N5_3 C7_3 1_555 1_555
N6_3 Zn1_3 1_555 1_555
N7_3 C10_3 1_555 1_555
N8_3 Zn1_3 1_555 1_555
C1_3 H1_3 1_555 1_555
C2_3 N2_3 1_555 1_555
H2_3 C2_3 1_555 1_555
C3_3 N1_3 1_555 1_555
H3_3 C3_3 1_555 1_555
C7_3 N6_3 1_555 1_555
H7_3 C7_3 1_555 1_555
C8_3 N6_3 1_555 1_555
H8_3 C8_3 1_555 1_555
C9_3 N5_3 1_555 1_555
H9_3 C9_3 1_555 1_555
C10_3 N8_3 1_555 1_555
H10_3 C10_3 1_555 1_555
C11_3 N7_3 1_555 1_555
H11_3 C11_3 1_555 1_555
C12_3 N8_3 1_555 1_555
H12_3 C12_3 1_555 1_555
Zn4 N7_3 1_555 1_555
N10_3 Zn3_2 1_555 1_555
N11_3 Zn3_2 1_555 1_555
C2_3 C3_3 1_555 1_555
C8_3 C9_3 1_555 1_555
C11_3 C12_3 1_555 1_555
N9_2 C4_3 1_555 1_555
C4_3 N4_3 1_555 1_555
H4_3 C4_3 1_555 1_555
C5_3 N4_3 1_555 1_555
H5_3 C5_3 1_555 1_555
C6_3 N9_2 1_555 1_555
H6_3 C6_3 1_555 1_555
C5_3 C6_3 1_555 1_555
N11_4 Zn3 1_555 1_555
Zn1_4 N2_4 1_555 1_555
N1_4 C1_4 1_555 1_555
N2_4 C1_4 1_555 1_555
N9 C4_4 1_555 1_555
N4_4 Zn1_4 1_555 1_555
N5_4 C7_4 1_555 1_555
N6_4 Zn1_4 1_555 1_555
N7_4 C10_4 1_555 1_555
N8_4 Zn1_4 1_555 1_555
C1_4 H1_4 1_555 1_555
C2_4 N2_4 1_555 1_555
H2_4 C2_4 1_555 1_555
C3_4 N1_4 1_555 1_555
C4_4 N4_4 1_555 1_555
H4_4 C4_4 1_555 1_555
C5_4 N4_4 1_555 1_555
H5_4 C5_4 1_555 1_555
C6_4 N9 1_555 1_555
H6_4 C6_4 1_555 1_555
C7_4 N6_4 1_555 1_555
H7_4 C7_4 1_555 1_555
C8_4 N6_4 1_555 1_555
H8_4 C8_4 1_555 1_555
C9_4 N5_4 1_555 1_555
H9_4 C9_4 1_555 1_555
C10_4 N8_4 1_555 1_555
H10_4 C10_4 1_555 1_555
C11_4 N7_4 1_555 1_555
H11_4 C11_4 1_555 1_555
C12_4 N8_4 1_555 1_555
H12_4 C12_4 1_555 1_555
Zn5_2 N5_4 1_555 1_555
Zn4_2 N7_4 1_555 1_555
C2_4 C3_4 1_555 1_555
C5_4 C6_4 1_555 1_555
C8_4 C9_4 1_555 1_555
C11_4 C12_4 1_555 1_555
N10_4 C7_5 1_555 1_555
H7_5 C7_5 1_555 1_555
C9_5 N10_4 1_555 1_555
H9_5 C9_5 1_555 1_555
Zn1_5 N2_5 1_555 1_555
Zn5_2 N1_5 1_555 1_555
N1_5 C1_5 1_555 1_555
N2_5 C1_5 1_555 1_555
N3_3 C4_5 1_555 1_555
N4_5 Zn1_5 1_555 1_555
N6_5 Zn1_5 1_555 1_555
N11_2 C10_5 1_555 1_555
N8_5 Zn1_5 1_555 1_555
C1_5 H1_5 1_555 1_555
C2_5 N2_5 1_555 1_555
H2_5 C2_5 1_555 1_555
C3_5 N1_5 1_555 1_555
H3_5 C3_5 1_555 1_555
C4_5 N4_5 1_555 1_555
H4_5 C4_5 1_555 1_555
C5_5 N4_5 1_555 1_555
H5_5 C5_5 1_555 1_555
C6_5 N3_3 1_555 1_555
H6_5 C6_5 1_555 1_555
C8_5 N6_5 1_555 1_555
H8_5 C8_5 1_555 1_555
C10_5 N8_5 1_555 1_555
H10_5 C10_5 1_555 1_555
C11_5 N11_2 1_555 1_555
H11_5 C11_5 1_555 1_555
C12_5 N8_5 1_555 1_555
H12_5 C12_5 1_555 1_555
Zn4 N3_3 1_555 1_555
N9_3 Zn5_2 1_555 1_555
C2_5 C3_5 1_555 1_555
C5_5 C6_5 1_555 1_555
C11_5 C12_5 1_555 1_555
N9_4 Zn5 1_555 1_555
Zn1_6 N2_6 1_555 1_555
N1_6 C1_6 1_555 1_555
N2_6 C1_6 1_555 1_555
N6_6 Zn1_6 1_555 1_555
N11 C10_6 1_555 1_555
N8_6 Zn1_6 1_555 1_555
C1_6 H1_6 1_555 1_555
C2_6 N2_6 1_555 1_555
H2_6 C2_6 1_555 1_555
C3_6 N1_6 1_555 1_555
C8_6 N6_6 1_555 1_555
H8_6 C8_6 1_555 1_555
C10_6 N8_6 1_555 1_555
H10_6 C10_6 1_555 1_555
C11_6 N11 1_555 1_555
H11_6 C11_6 1_555 1_555
C12_6 N8_6 1_555 1_555
H12_6 C12_6 1_555 1_555
C2_6 C3_6 1_555 1_555
C11_6 C12_6 1_555 1_555
N3_4 C4_6 1_555 1_555
C4_6 N4_6 1_555 1_555
H4_6 C4_6 1_555 1_555
C5_6 N4_6 1_555 1_555
H5_6 C5_6 1_555 1_555
C6_6 N3_4 1_555 1_555
H6_6 C6_6 1_555 1_555
Zn4_2 N3_4 1_555 1_555
C5_6 C6_6 1_555 1_555
N10_3 C7_6 1_555 1_555
H7_6 C7_6 1_555 1_555
C9_6 N10_3 1_555 1_555
H9_6 C9_6 1_555 1_555
N9_4 C4_7 1_555 1_555
C4_7 N4_7 1_555 1_555
H4_7 C4_7 1_555 1_555
C5_7 N4_7 1_555 1_555
H5_7 C5_7 1_555 1_555
C6_7 N9_4 1_555 1_555
H6_7 C6_7 1_555 1_555
C5_7 C6_7 1_555 1_555
Zn1_7 N2_7 1_555 1_555
Zn4_2 N1_7 1_555 1_555
N1_7 C1_7 1_555 1_555
N2_7 C1_7 1_555 1_555
N10_2 C7_7 1_555 1_555
N6_7 Zn1_7 1_555 1_555
N11_4 C10_7 1_555 1_555
N8_7 Zn1_7 1_555 1_555
C1_7 H1_7 1_555 1_555
C2_7 N2_7 1_555 1_555
H2_7 C2_7 1_555 1_555
C3_7 N1_7 1_555 1_555
H3_7 C3_7 1_555 1_555
C7_7 N6_7 1_555 1_555
H7_7 C7_7 1_555 1_555
C8_7 N6_7 1_555 1_555
H8_7 C8_7 1_555 1_555
C9_7 N10_2 1_555 1_555
H9_7 C9_7 1_555 1_555
C10_7 N8_7 1_555 1_555
H10_7 C10_7 1_555 1_555
C11_7 N11_4 1_555 1_555
H11_7 C11_7 1_555 1_555
C12_7 N8_7 1_555 1_555
H12_7 C12_7 1_555 1_555
C2_7 C3_7 1_555 1_555
C8_7 C9_7 1_555 1_555
C11_7 C12_7 1_555 1_555
Zn1_8 N2_8 1_555 1_555
N1_8 C1_8 1_555 1_555
N2_8 C1_8 1_555 1_555
N9_3 C4_8 1_555 1_555
N4_8 Zn1_8 1_555 1_555
N10 C7_8 1_555 1_555
N6_8 Zn1_8 1_555 1_555
N11_3 C10_8 1_555 1_555
N8_8 Zn1_8 1_555 1_555
C1_8 H1_8 1_555 1_555
C2_8 N2_8 1_555 1_555
H2_8 C2_8 1_555 1_555
C3_8 N1_8 1_555 1_555
C4_8 N4_8 1_555 1_555
H4_8 C4_8 1_555 1_555
C5_8 N4_8 1_555 1_555
H5_8 C5_8 1_555 1_555
C6_8 N9_3 1_555 1_555
H6_8 C6_8 1_555 1_555
C7_8 N6_8 1_555 1_555
H7_8 C7_8 1_555 1_555
C8_8 N6_8 1_555 1_555
H8_8 C8_8 1_555 1_555
C9_8 N10 1_555 1_555
H9_8 C9_8 1_555 1_555
C10_8 N8_8 1_555 1_555
H10_8 C10_8 1_555 1_555
C11_8 N11_3 1_555 1_555
H11_8 C11_8 1_555 1_555
C12_8 N8_8 1_555 1_555
H12_8 C12_8 1_555 1_555
C2_8 C3_8 1_555 1_555
C5_8 C6_8 1_555 1_555
C8_8 C9_8 1_555 1_555
C11_8 C12_8 1_555 1_555

#END
