
###############################################################################
#
# This file contains modified crystal structure data generated from the
# MOF subset of the Cambridge Structural Database (CSD) v543 
# hosted by the Cambridge Crystallographic Data Centre (CCDC).
#
# This work is licensed under the Creative Commons
# Attribution-NonCommercial-ShareAlike 4.0 International License.
# To view a copy of this license, visit
# http://creativecommons.org/licenses/by-nc-sa/4.0/
# or send a letter to
# Creative Commons, PO Box 1866, Mountain View, CA 94042, USA.
#
# CIF created using the CSD Python API on 29 September 2022
# The structure has been converted into the P1 space group
# The structure has a 3D framework
# The original CSD entry VEJYUV06 is in the monoclinic crystal system
# The framework has been calculated to contain at least 10.0% void space
# The void calculation uses a probe of radius 1.32A, grid spacing 0.4
#
###############################################################################

data_VEJYUV06
_chemical_formula_moiety         '(C96 H96 N64 Zn16)n'
_symmetry_cell_setting           triclinic
_symmetry_space_group_name_H-M   'P 1'
_symmetry_Int_Tables_number      1
_space_group_name_Hall           'P 1'
loop_
_symmetry_equiv_pos_site_id
_symmetry_equiv_pos_as_xyz
1 x,y,z
_cell_length_a                   17.735(9)
_cell_length_b                   14.457(8)
_cell_length_c                   14.829(9)
_cell_angle_alpha                90
_cell_angle_beta                 100.25(5)
_cell_angle_gamma                90
_cell_volume                     3741.4
loop_
_atom_site_label
_atom_site_type_symbol
_atom_site_fract_x
_atom_site_fract_y
_atom_site_fract_z
Zn4 Zn 0.1996(5) 0.0225(5) 0.3808(6)
C10 C 0.061(3) 0.148(3) 0.3879(14)
C11 C 0.104(4) 0.2680(19) 0.4647(18)
C12 C 0.163(2) 0.211(3) 0.4608(17)
C16 C 0.315(2) 0.1228(19) 0.315(2)
C17 C 0.4296(18) 0.074(2) 0.359(3)
C18 C 0.383(3) 0.0297(16) 0.4078(16)
C19 C 0.1039(16) 0.031(2) 0.172(4)
N11 N 0.137(3) 0.134(2) 0.412(2)
N12 N 0.039(2) 0.229(3) 0.419(2)
N15 N 0.310(2) 0.060(2) 0.381(2)
N16 N 0.387(3) 0.1332(18) 0.2996(18)
H10 H 0.0284 0.1062 0.3534
H11 H 0.1067 0.3250 0.4942
H12 H 0.2142 0.2218 0.4872
H16 H 0.2737 0.1555 0.2837
H17 H 0.4822 0.0650 0.3649
H19 H 0.0974 0.0946 0.1630
Zn5 Zn 0.4078(5) 0.1915(5) 0.1917(6)
Zn2 Zn 0.2959(5) 0.5285(5) 0.3508(6)
Zn3 Zn 0.0705(5) 0.7531(5) 0.1048(6)
C1 C 0.3452(9) 0.361(3) 0.275(2)
C2 C 0.446(2) 0.623(2) 0.3213(15)
C3 C 0.466(2) 0.7349(18) 0.415(2)
C4 C 0.398(2) 0.695(3) 0.4228(17)
C5 C 0.3565(19) 0.409(2) 0.508(3)
C6 C 0.275(3) 0.399(2) 0.597(2)
C7 C 0.2461(18) 0.456(2) 0.526(3)
C8 C 0.186(2) 0.633(2) 0.235(3)
C9 C 0.1348(14) 0.899(3) 0.231(3)
C13 C 0.1214(18) 0.874(3) 0.4812(15)
C14 C 0.208(3) 0.770(2) 0.5101(15)
C15 C 0.2369(17) 0.843(4) 0.4698(16)
C20 C 0.0800(11) 0.965(4) 0.108(2)
C21 C 0.0843(18) 0.655(2) 0.289(3)
C22 C 0.132(3) 0.600(2) 0.348(2)
C23 C 0.3323(9) 0.465(2) 0.172(3)
C24 C 0.3549(9) 0.386(4) 0.136(2)
N1 N 0.3632(7) 0.319(2) 0.201(3)
N2 N 0.3260(7) 0.450(3) 0.260(3)
N3 N 0.3852(18) 0.623(2) 0.363(2)
N4 N 0.4972(16) 0.690(3) 0.351(2)
N5 N 0.297(3) 0.4625(18) 0.469(2)
N6 N 0.345(2) 0.3692(16) 0.586(3)
N7 N 0.197(2) 0.5854(17) 0.314(3)
N8 N 0.118(3) 0.6760(16) 0.217(2)
N9 N 0.0994(17) 0.881(3) 0.145(4)
N10 N 0.1388(13) 0.990(4) 0.250(3)
N13 N 0.182(3) 0.909(2) 0.4510(11)
N14 N 0.135(2) 0.789(3) 0.5178(11)
H1 H 0.3459 0.3310 0.3307
H2 H 0.4527 0.5800 0.2763
H3 H 0.4879 0.7855 0.4491
H4 H 0.3662 0.7135 0.4624
H5 H 0.4006 0.4007 0.4827
H6 H 0.2503 0.3835 0.6451
H7 H 0.1986 0.4848 0.5179
H8 H 0.2222 0.6354 0.1962
H9 H 0.1543 0.8534 0.2727
H13 H 0.0749 0.9051 0.4771
H14 H 0.2341 0.7162 0.5295
H15 H 0.2864 0.8471 0.4573
H18 H 0.3984 0.9853 0.4528
H20 H 0.0545 0.9762 0.0485
H21 H 0.0361 0.6749 0.2976
H22 H 0.1217 0.5760 0.4027
H23 H 0.3227 0.5213 0.1410
H24 H 0.3636 0.3790 0.0761
Zn6 Zn 0.5922(5) 0.6915(5) 0.3083(6)
Zn7 Zn 0.4078(5) 0.3085(5) 0.6917(6)
Zn9 Zn 0.0705(5) 0.7469(5) 0.6048(6)
N17 N 0.5028(16) 0.190(3) 0.149(2)
N18 N 0.345(2) 0.1308(16) 0.086(3)
N20 N 0.135(2) 0.711(3) 0.0178(11)
Zn8 Zn 0.9295(5) 0.2531(5) 0.3952(6)
N19 N 0.961(2) 0.729(3) 0.081(2)
Zn2_2 Zn 0.7041(5) 0.0285(5) 0.1492(6)
Zn4_2 Zn 0.8004(5) 0.5225(5) 0.1192(6)
C2_2 C 0.554(2) 0.123(2) 0.1787(15)
C3_2 C 0.534(2) 0.2349(18) 0.085(2)
C4_2 C 0.602(2) 0.195(3) 0.0772(17)
C8_2 C 0.814(2) 0.133(2) 0.265(3)
C9_2 C 0.8652(14) 0.399(3) 0.269(3)
C10_2 C 0.939(3) 0.648(3) 0.1121(14)
C11_2 C 0.896(4) 0.7680(19) 0.0353(18)
C12_2 C 0.837(2) 0.711(3) 0.0392(17)
C13_2 C 0.8786(18) 0.374(3) 0.0188(15)
C15_2 C 0.7631(17) 0.343(4) 0.0302(16)
C16_2 C 0.685(2) 0.6228(19) 0.185(2)
C17_2 C 0.5704(18) 0.574(2) 0.141(3)
C18_2 C 0.617(3) 0.5297(16) 0.0922(16)
C19_2 C 0.8961(16) 0.531(2) 0.328(4)
C20_2 C 0.9200(11) 0.465(4) 0.392(2)
C21_2 C 0.9157(18) 0.155(2) 0.211(3)
C22_2 C 0.868(3) 0.100(2) 0.152(2)
N3_2 N 0.6148(18) 0.123(2) 0.137(2)
N7_2 N 0.803(2) 0.0854(17) 0.186(3)
N8_2 N 0.882(3) 0.1760(16) 0.283(2)
N9_2 N 0.9006(17) 0.381(3) 0.355(4)
N10_2 N 0.8612(13) 0.490(4) 0.250(3)
N11_2 N 0.863(3) 0.634(2) 0.088(2)
N13_2 N 0.818(3) 0.409(2) 0.0490(11)
N15_2 N 0.690(2) 0.560(2) 0.119(2)
N16_2 N 0.613(3) 0.6332(18) 0.2004(18)
H2_2 H 0.5473 0.0800 0.2237
H3_2 H 0.5121 0.2855 0.0509
H4_2 H 0.6338 0.2135 0.0376
H8_2 H 0.7778 0.1354 0.3038
H9_2 H 0.8457 0.3534 0.2273
H10_2 H 0.9716 0.6062 0.1466
H11_2 H 0.8933 0.8250 0.0058
H12_2 H 0.7858 0.7218 0.0128
H13_2 H 0.9251 0.4051 0.0229
H15_2 H 0.7136 0.3471 0.0427
H16_2 H 0.7263 0.6555 0.2163
H17_2 H 0.5178 0.5650 0.1351
H18_2 H 0.6016 0.4853 0.0472
H19_2 H 0.9026 0.5946 0.3370
H20_2 H 0.9455 0.4762 0.4515
H21_2 H 0.9639 0.1749 0.2024
H22_2 H 0.8783 0.0760 0.0973
H23_2 H 0.6773 0.0213 0.3590
N20_2 N 0.865(2) 0.211(3) 0.4822(11)
C14_2 C 0.792(3) 0.270(2) 0.9899(15)
N14_2 N 0.865(2) 0.289(3) 0.9822(11)
H14_2 H 0.7659 0.2162 0.9705
Zn9_2 Zn 0.9295(5) 0.2469(5) 0.8952(6)
C1_2 C 0.6548(9) 0.861(3) 0.225(2)
C23_2 C 0.6677(9) 0.965(2) 0.328(3)
C24_2 C 0.6451(9) 0.886(4) 0.364(2)
N1_2 N 0.6368(7) 0.819(2) 0.299(3)
N2_2 N 0.6740(7) 0.950(3) 0.240(3)
N5_2 N 0.703(3) 0.9625(18) 0.031(2)
H1_2 H 0.6541 0.8310 0.1693
H5_2 H 0.5994 0.9007 0.0173
H24_2 H 0.6364 0.8790 0.4239
N18_2 N 0.655(2) 0.6308(16) 0.414(3)
C5_2 C 0.6435(19) 0.909(2) 0.992(3)
C6_2 C 0.725(3) 0.899(2) 0.903(2)
C7_2 C 0.7539(18) 0.956(2) 0.974(3)
N6_2 N 0.655(2) 0.8692(16) 0.914(3)
H6_2 H 0.7497 0.8835 0.8549
H7_2 H 0.8014 0.9848 0.9821
Zn7_2 Zn 0.5922(5) 0.8085(5) 0.8083(6)
N19_2 N 0.039(2) 0.271(3) 0.919(2)
Zn2_3 Zn 0.7041(5) 0.4715(5) 0.6492(6)
C1_3 C 0.6548(9) 0.639(3) 0.725(2)
C2_3 C 0.554(2) 0.377(2) 0.6787(15)
C3_3 C 0.534(2) 0.2651(18) 0.585(2)
C4_3 C 0.602(2) 0.305(3) 0.5772(17)
C5_3 C 0.6435(19) 0.591(2) 0.492(3)
C6_3 C 0.725(3) 0.601(2) 0.403(2)
C7_3 C 0.7539(18) 0.544(2) 0.474(3)
C8_3 C 0.814(2) 0.367(2) 0.765(3)
C9_3 C 0.8652(14) 0.101(3) 0.769(3)
C13_3 C 0.8786(18) 0.126(3) 0.5188(15)
C14_3 C 0.792(3) 0.230(2) 0.4899(15)
C15_3 C 0.7631(17) 0.157(4) 0.5302(16)
C20_3 C 0.9200(11) 0.035(4) 0.892(2)
C21_3 C 0.9157(18) 0.345(2) 0.711(3)
C22_3 C 0.868(3) 0.400(2) 0.652(2)
C23_3 C 0.6677(9) 0.535(2) 0.828(3)
C24_3 C 0.6451(9) 0.614(4) 0.864(2)
N1_3 N 0.6368(7) 0.681(2) 0.799(3)
N2_3 N 0.6740(7) 0.550(3) 0.740(3)
N3_3 N 0.6148(18) 0.377(2) 0.637(2)
N4_2 N 0.5028(16) 0.310(3) 0.649(2)
N5_3 N 0.703(3) 0.5375(18) 0.531(2)
N7_3 N 0.803(2) 0.4146(17) 0.686(3)
N8_3 N 0.882(3) 0.3240(16) 0.783(2)
N9_3 N 0.9006(17) 0.119(3) 0.855(4)
N10_3 N 0.8612(13) 0.010(4) 0.750(3)
N13_3 N 0.818(3) 0.091(2) 0.5490(11)
H1_3 H 0.6541 0.6690 0.6693
H2_3 H 0.5473 0.4200 0.7237
H3_3 H 0.5121 0.2145 0.5509
H4_3 H 0.6338 0.2865 0.5376
H5_3 H 0.5994 0.5993 0.5173
H6_3 H 0.7497 0.6165 0.3549
H7_3 H 0.8014 0.5152 0.4821
H8_3 H 0.7778 0.3646 0.8038
H9_3 H 0.8457 0.1466 0.7273
H13_3 H 0.9251 0.0949 0.5229
H14_3 H 0.7659 0.2838 0.4705
H15_3 H 0.7136 0.1529 0.5427
H18_3 H 0.6016 0.0147 0.5472
H20_3 H 0.9455 0.0238 0.9515
H21_3 H 0.9639 0.3251 0.7024
H22_3 H 0.8783 0.4240 0.5973
H23_3 H 0.6773 0.4787 0.8590
H24_3 H 0.6364 0.6210 0.9239
N17_2 N 0.4972(16) 0.810(3) 0.851(2)
N21 N 0.613(3) 0.8668(18) 0.7004(18)
Zn4_3 Zn 0.8004(5) 0.9775(5) 0.6192(6)
C10_3 C 0.939(3) 0.852(3) 0.6121(14)
C11_3 C 0.896(4) 0.7320(19) 0.5353(18)
C12_3 C 0.837(2) 0.789(3) 0.5392(17)
C16_3 C 0.685(2) 0.8772(19) 0.685(2)
C17_3 C 0.5704(18) 0.926(2) 0.641(3)
C18_3 C 0.617(3) 0.9703(16) 0.5922(16)
C19_3 C 0.8961(16) 0.969(2) 0.828(4)
N11_3 N 0.863(3) 0.866(2) 0.588(2)
N12_2 N 0.961(2) 0.771(3) 0.581(2)
N15_3 N 0.690(2) 0.940(2) 0.619(2)
H10_3 H 0.9716 0.8938 0.6466
H11_3 H 0.8933 0.6750 0.5058
H12_3 H 0.7858 0.7782 0.5128
H16_3 H 0.7263 0.8445 0.7163
H17_3 H 0.5178 0.9350 0.6351
H19_3 H 0.9026 0.9054 0.8370
C5_4 C 0.3565(19) 0.091(2) 0.008(3)
C6_4 C 0.275(3) 0.101(2) 0.097(2)
C7_4 C 0.2461(18) 0.044(2) 0.026(3)
H6_4 H 0.2503 0.1165 0.1451
H7_4 H 0.1986 0.0152 0.0179
C1_4 C 0.3452(9) 0.139(3) 0.775(2)
C23_4 C 0.3323(9) 0.035(2) 0.672(3)
C24_4 C 0.3549(9) 0.114(4) 0.636(2)
N1_4 N 0.3632(7) 0.181(2) 0.701(3)
N2_4 N 0.3260(7) 0.050(3) 0.760(3)
N5_4 N 0.297(3) 0.0375(18) 0.969(2)
H1_4 H 0.3459 0.1690 0.8307
H5_4 H 0.4006 0.0993 0.9827
H24_4 H 0.3636 0.1210 0.5761
N21_2 N 0.387(3) 0.3668(18) 0.7996(18)
C14_4 C 0.208(3) 0.730(2) 0.0101(15)
H14_4 H 0.2341 0.7838 0.0295
Zn2_4 Zn 0.2959(5) 0.9715(5) 0.8508(6)
Zn4_4 Zn 0.1996(5) 0.4775(5) 0.8808(6)
C2_4 C 0.446(2) 0.877(2) 0.8213(15)
C3_4 C 0.466(2) 0.7651(18) 0.915(2)
C4_4 C 0.398(2) 0.805(3) 0.9228(17)
C8_4 C 0.186(2) 0.867(2) 0.735(3)
C9_4 C 0.1348(14) 0.601(3) 0.731(3)
C10_4 C 0.061(3) 0.352(3) 0.8879(14)
C11_4 C 0.104(4) 0.2320(19) 0.9647(18)
C12_4 C 0.163(2) 0.289(3) 0.9608(17)
C13_4 C 0.1214(18) 0.626(3) 0.9812(15)
C15_4 C 0.2369(17) 0.657(4) 0.9698(16)
C16_4 C 0.315(2) 0.3772(19) 0.815(2)
C17_4 C 0.4296(18) 0.426(2) 0.859(3)
C18_4 C 0.383(3) 0.4703(16) 0.9078(16)
C19_4 C 0.1039(16) 0.469(2) 0.672(4)
C20_4 C 0.0800(11) 0.535(4) 0.608(2)
C21_4 C 0.0843(18) 0.845(2) 0.789(3)
C22_4 C 0.132(3) 0.900(2) 0.848(2)
N3_4 N 0.3852(18) 0.877(2) 0.863(2)
N7_4 N 0.197(2) 0.9146(17) 0.814(3)
N8_4 N 0.118(3) 0.8240(16) 0.717(2)
N9_4 N 0.0994(17) 0.619(3) 0.645(4)
N10_4 N 0.1388(13) 0.510(4) 0.750(3)
N11_4 N 0.137(3) 0.366(2) 0.912(2)
N13_4 N 0.182(3) 0.591(2) 0.9510(11)
N15_4 N 0.310(2) 0.440(2) 0.881(2)
H2_4 H 0.4527 0.9200 0.7763
H3_4 H 0.4879 0.7145 0.9491
H4_4 H 0.3662 0.7865 0.9624
H8_4 H 0.2222 0.8646 0.6962
H9_4 H 0.1543 0.6466 0.7727
H10_4 H 0.0284 0.3938 0.8534
H11_4 H 0.1067 0.1750 0.9942
H12_4 H 0.2142 0.2782 0.9872
H13_4 H 0.0749 0.5949 0.9771
H15_4 H 0.2864 0.6529 0.9573
H16_4 H 0.2737 0.3445 0.7837
H17_4 H 0.4822 0.4350 0.8649
H18_4 H 0.3984 0.5147 0.9528
H19_4 H 0.0974 0.4054 0.6630
H20_4 H 0.0545 0.5238 0.5485
H21_4 H 0.0361 0.8251 0.7976
H22_4 H 0.1217 0.9240 0.9027
H23_4 H 0.3227 0.9787 0.6410
loop_
_geom_bond_atom_site_label_1
_geom_bond_atom_site_label_2
_geom_bond_site_symmetry_1
_geom_bond_site_symmetry_2
C10 N11 1_555 1_555
C11 C12 1_555 1_555
C12 N11 1_555 1_555
C16 N15 1_555 1_555
C17 C18 1_555 1_555
C18 N15 1_555 1_555
N11 Zn4 1_555 1_555
N12 C10 1_555 1_555
N15 Zn4 1_555 1_555
N16 C16 1_555 1_555
H10 C10 1_555 1_555
H11 C11 1_555 1_555
H12 C12 1_555 1_555
H16 C16 1_555 1_555
H17 C17 1_555 1_555
H19 C19 1_555 1_555
Zn5 N16 1_555 1_555
C11 N12 1_555 1_555
C17 N16 1_555 1_555
Zn5 N1 1_555 1_555
Zn2 N2 1_555 1_555
Zn3 N8 1_555 1_555
C1 N1 1_555 1_555
C2 N3 1_555 1_555
C3 C4 1_555 1_555
C4 N3 1_555 1_555
C5 N5 1_555 1_555
C6 C7 1_555 1_555
C7 N5 1_555 1_555
C8 N7 1_555 1_555
C9 N9 1_555 1_555
C13 N13 1_555 1_555
C14 C15 1_555 1_555
C15 N13 1_555 1_555
C20 N9 1_555 1_555
C21 C22 1_555 1_555
C22 N7 1_555 1_555
C23 C24 1_555 1_555
C24 N1 1_555 1_555
N2 C1 1_555 1_555
N3 Zn2 1_555 1_555
N4 C2 1_555 1_555
N5 Zn2 1_555 1_555
N6 C5 1_555 1_555
N7 Zn2 1_555 1_555
N8 C8 1_555 1_555
N9 Zn3 1_555 1_555
N10 C9 1_555 1_555
N14 C13 1_555 1_555
H1 C1 1_555 1_555
H2 C2 1_555 1_555
H3 C3 1_555 1_555
H4 C4 1_555 1_555
H5 C5 1_555 1_555
H6 C6 1_555 1_555
H7 C7 1_555 1_555
H8 C8 1_555 1_555
H9 C9 1_555 1_555
H13 C13 1_555 1_555
H14 C14 1_555 1_555
H15 C15 1_555 1_555
H20 C20 1_555 1_555
H21 C21 1_555 1_555
H22 C22 1_555 1_555
H23 C23 1_555 1_555
H24 C24 1_555 1_555
Zn6 N4 1_555 1_555
Zn7 N6 1_555 1_555
Zn9 N14 1_555 1_555
N17 Zn5 1_555 1_555
N18 Zn5 1_555 1_555
N20 Zn3 1_555 1_555
C3 N4 1_555 1_555
C6 N6 1_555 1_555
C14 N14 1_555 1_555
C21 N8 1_555 1_555
C23 N2 1_555 1_555
Zn8 N8_2 1_555 1_555
Zn4_2 N10_2 1_555 1_555
C2_2 N3_2 1_555 1_555
C3_2 C4_2 1_555 1_555
C4_2 N3_2 1_555 1_555
C8_2 N7_2 1_555 1_555
C9_2 N9_2 1_555 1_555
C10_2 N11_2 1_555 1_555
C11_2 C12_2 1_555 1_555
C12_2 N11_2 1_555 1_555
C13_2 N13_2 1_555 1_555
C15_2 N13_2 1_555 1_555
C16_2 N15_2 1_555 1_555
C17_2 C18_2 1_555 1_555
C18_2 N15_2 1_555 1_555
C19_2 C20_2 1_555 1_555
C20_2 N9_2 1_555 1_555
C21_2 C22_2 1_555 1_555
C22_2 N7_2 1_555 1_555
N3_2 Zn2_2 1_555 1_555
N17 C2_2 1_555 1_555
N7_2 Zn2_2 1_555 1_555
N8_2 C8_2 1_555 1_555
N9_2 Zn8 1_555 1_555
N10_2 C9_2 1_555 1_555
N11_2 Zn4_2 1_555 1_555
N19 C10_2 1_555 1_555
N13_2 Zn4_2 1_555 1_555
N15_2 Zn4_2 1_555 1_555
N16_2 C16_2 1_555 1_555
H2_2 C2_2 1_555 1_555
H3_2 C3_2 1_555 1_555
H4_2 C4_2 1_555 1_555
H8_2 C8_2 1_555 1_555
H9_2 C9_2 1_555 1_555
H10_2 C10_2 1_555 1_555
H11_2 C11_2 1_555 1_555
H12_2 C12_2 1_555 1_555
H13_2 C13_2 1_555 1_555
H15_2 C15_2 1_555 1_555
H16_2 C16_2 1_555 1_555
H17_2 C17_2 1_555 1_555
H18_2 C18_2 1_555 1_555
H19_2 C19_2 1_555 1_555
H20_2 C20_2 1_555 1_555
H21_2 C21_2 1_555 1_555
H22_2 C22_2 1_555 1_555
Zn6 N16_2 1_555 1_555
N20_2 Zn8 1_555 1_555
C3_2 N17 1_555 1_555
C11_2 N19 1_555 1_555
C17_2 N16_2 1_555 1_555
C19_2 N10_2 1_555 1_555
C21_2 N8_2 1_555 1_555
H14_2 C14_2 1_555 1_555
Zn9_2 N14_2 1_555 1_555
C14_2 N14_2 1_555 1_555
Zn6 N1_2 1_555 1_555
C1_2 N1_2 1_555 1_555
C23_2 C24_2 1_555 1_555
C24_2 N1_2 1_555 1_555
N2_2 C1_2 1_555 1_555
H1_2 C1_2 1_555 1_555
H24_2 C24_2 1_555 1_555
N18_2 Zn6 1_555 1_555
C23_2 N2_2 1_555 1_555
C6_2 C7_2 1_555 1_555
N6_2 C5_2 1_555 1_555
H6_2 C6_2 1_555 1_555
H7_2 C7_2 1_555 1_555
Zn7_2 N6_2 1_555 1_555
C6_2 N6_2 1_555 1_555
Zn7_2 N1_3 1_555 1_555
Zn2_3 N2_3 1_555 1_555
Zn9_2 N8_3 1_555 1_555
C1_3 N1_3 1_555 1_555
C2_3 N3_3 1_555 1_555
C3_3 C4_3 1_555 1_555
C4_3 N3_3 1_555 1_555
C5_3 N5_3 1_555 1_555
C6_3 C7_3 1_555 1_555
C7_3 N5_3 1_555 1_555
C8_3 N7_3 1_555 1_555
C9_3 N9_3 1_555 1_555
C13_3 N13_3 1_555 1_555
C14_3 C15_3 1_555 1_555
C15_3 N13_3 1_555 1_555
C20_3 N9_3 1_555 1_555
C21_3 C22_3 1_555 1_555
C22_3 N7_3 1_555 1_555
C23_3 C24_3 1_555 1_555
C24_3 N1_3 1_555 1_555
N2_3 C1_3 1_555 1_555
N3_3 Zn2_3 1_555 1_555
N4_2 C2_3 1_555 1_555
N5_3 Zn2_3 1_555 1_555
N18_2 C5_3 1_555 1_555
N7_3 Zn2_3 1_555 1_555
N8_3 C8_3 1_555 1_555
N9_3 Zn9_2 1_555 1_555
N10_3 C9_3 1_555 1_555
N20_2 C13_3 1_555 1_555
H1_3 C1_3 1_555 1_555
H2_3 C2_3 1_555 1_555
H3_3 C3_3 1_555 1_555
H4_3 C4_3 1_555 1_555
H5_3 C5_3 1_555 1_555
H6_3 C6_3 1_555 1_555
H7_3 C7_3 1_555 1_555
H8_3 C8_3 1_555 1_555
H9_3 C9_3 1_555 1_555
H13_3 C13_3 1_555 1_555
H14_3 C14_3 1_555 1_555
H15_3 C15_3 1_555 1_555
H20_3 C20_3 1_555 1_555
H21_3 C21_3 1_555 1_555
H22_3 C22_3 1_555 1_555
H23_3 C23_3 1_555 1_555
H24_3 C24_3 1_555 1_555
Zn7 N4_2 1_555 1_555
N17_2 Zn7_2 1_555 1_555
N21 Zn7_2 1_555 1_555
C3_3 N4_2 1_555 1_555
C6_3 N18_2 1_555 1_555
C14_3 N20_2 1_555 1_555
C21_3 N8_3 1_555 1_555
C23_3 N2_3 1_555 1_555
C10_3 N11_3 1_555 1_555
C11_3 C12_3 1_555 1_555
C12_3 N11_3 1_555 1_555
C16_3 N15_3 1_555 1_555
C17_3 C18_3 1_555 1_555
C18_3 N15_3 1_555 1_555
N11_3 Zn4_3 1_555 1_555
N12_2 C10_3 1_555 1_555
N15_3 Zn4_3 1_555 1_555
N21 C16_3 1_555 1_555
H10_3 C10_3 1_555 1_555
H11_3 C11_3 1_555 1_555
H12_3 C12_3 1_555 1_555
H16_3 C16_3 1_555 1_555
H17_3 C17_3 1_555 1_555
H19_3 C19_3 1_555 1_555
C11_3 N12_2 1_555 1_555
C17_3 N21 1_555 1_555
C6_4 C7_4 1_555 1_555
N18 C5_4 1_555 1_555
H6_4 C6_4 1_555 1_555
H7_4 C7_4 1_555 1_555
C6_4 N18 1_555 1_555
Zn7 N1_4 1_555 1_555
C1_4 N1_4 1_555 1_555
C23_4 C24_4 1_555 1_555
C24_4 N1_4 1_555 1_555
N2_4 C1_4 1_555 1_555
H1_4 C1_4 1_555 1_555
H24_4 C24_4 1_555 1_555
N21_2 Zn7 1_555 1_555
C23_4 N2_4 1_555 1_555
H14_4 C14_4 1_555 1_555
C14_4 N20 1_555 1_555
Zn9 N8_4 1_555 1_555
Zn4_4 N10_4 1_555 1_555
C2_4 N3_4 1_555 1_555
C3_4 C4_4 1_555 1_555
C4_4 N3_4 1_555 1_555
C8_4 N7_4 1_555 1_555
C9_4 N9_4 1_555 1_555
C10_4 N11_4 1_555 1_555
C11_4 C12_4 1_555 1_555
C12_4 N11_4 1_555 1_555
C13_4 N13_4 1_555 1_555
C15_4 N13_4 1_555 1_555
C16_4 N15_4 1_555 1_555
C17_4 C18_4 1_555 1_555
C18_4 N15_4 1_555 1_555
C19_4 C20_4 1_555 1_555
C20_4 N9_4 1_555 1_555
C21_4 C22_4 1_555 1_555
C22_4 N7_4 1_555 1_555
N3_4 Zn2_4 1_555 1_555
N17_2 C2_4 1_555 1_555
N7_4 Zn2_4 1_555 1_555
N8_4 C8_4 1_555 1_555
N9_4 Zn9 1_555 1_555
N10_4 C9_4 1_555 1_555
N11_4 Zn4_4 1_555 1_555
N19_2 C10_4 1_555 1_555
N13_4 Zn4_4 1_555 1_555
N15_4 Zn4_4 1_555 1_555
N21_2 C16_4 1_555 1_555
H2_4 C2_4 1_555 1_555
H3_4 C3_4 1_555 1_555
H4_4 C4_4 1_555 1_555
H8_4 C8_4 1_555 1_555
H9_4 C9_4 1_555 1_555
H10_4 C10_4 1_555 1_555
H11_4 C11_4 1_555 1_555
H12_4 C12_4 1_555 1_555
H13_4 C13_4 1_555 1_555
H15_4 C15_4 1_555 1_555
H16_4 C16_4 1_555 1_555
H17_4 C17_4 1_555 1_555
H18_4 C18_4 1_555 1_555
H19_4 C19_4 1_555 1_555
H20_4 C20_4 1_555 1_555
H21_4 C21_4 1_555 1_555
H22_4 C22_4 1_555 1_555
C3_4 N17_2 1_555 1_555
C11_4 N19_2 1_555 1_555
C17_4 N21_2 1_555 1_555
C19_4 N10_4 1_555 1_555
C21_4 N8_4 1_555 1_555

#END
