
###############################################################################
#
# This file contains modified crystal structure data generated from the
# MOF subset of the Cambridge Structural Database (CSD) v543 
# hosted by the Cambridge Crystallographic Data Centre (CCDC).
#
# This work is licensed under the Creative Commons
# Attribution-NonCommercial-ShareAlike 4.0 International License.
# To view a copy of this license, visit
# http://creativecommons.org/licenses/by-nc-sa/4.0/
# or send a letter to
# Creative Commons, PO Box 1866, Mountain View, CA 94042, USA.
#
# CIF created using the CSD Python API on 29 September 2022
# The structure has been converted into the P1 space group
# The structure has a 3D framework
# The original CSD entry VEJYUV03 is in the monoclinic crystal system
# The framework has been calculated to contain at least 10.0% void space
# The void calculation uses a probe of radius 1.32A, grid spacing 0.4
#
###############################################################################

data_VEJYUV03
_chemical_formula_moiety         '(C96 H96 N64 Zn16)n'
_symmetry_cell_setting           triclinic
_symmetry_space_group_name_H-M   'P 1'
_symmetry_Int_Tables_number      1
_space_group_name_Hall           'P 1'
loop_
_symmetry_equiv_pos_site_id
_symmetry_equiv_pos_as_xyz
1 x,y,z
_cell_length_a                   17.563(8)
_cell_length_b                   13.825(8)
_cell_length_c                   13.882(8)
_cell_angle_alpha                90
_cell_angle_beta                 102.36(5)
_cell_angle_gamma                90
_cell_volume                     3292.54
loop_
_atom_site_label
_atom_site_type_symbol
_atom_site_fract_x
_atom_site_fract_y
_atom_site_fract_z
Zn1 Zn 0.2043(9) 0.0289(9) 0.3984(10)
Zn4 Zn 0.4189(9) 0.1919(10) 0.2088(11)
C1 C 0.328(3) 0.121(3) 0.327(3)
C2 C 0.389(4) 0.015(2) 0.426(2)
C3 C 0.441(2) 0.062(3) 0.383(3)
C7 C 0.075(4) 0.166(5) 0.4267(18)
C8 C 0.126(5) 0.296(3) 0.4923(19)
C9 C 0.184(3) 0.234(6) 0.483(2)
C11 C 0.063(2) 0.021(7) 0.122(5)
C12 C 0.102(4) 0.065(3) 0.205(6)
C16 C 0.359(3) 0.085(3) 0.032(5)
C17 C 0.268(4) 0.100(3) 0.111(3)
C18 C 0.243(3) 0.039(3) 0.034(4)
C19 C 0.544(4) 0.121(4) 0.153(2)
C20 C 0.598(4) 0.224(6) 0.075(2)
C21 C 0.531(5) 0.262(4) 0.090(3)
C22 C 0.357(2) 0.389(5) 0.287(3)
C23 C 0.3234(19) 0.468(5) 0.152(6)
C24 C 0.357(2) 0.384(6) 0.133(4)
N1 N 0.317(3) 0.052(3) 0.390(3)
N2 N 0.404(3) 0.129(3) 0.320(2)
N5 N 0.152(5) 0.151(4) 0.442(3)
N6 N 0.057(3) 0.254(6) 0.457(3)
N12 N 0.341(4) 0.129(2) 0.111(4)
N13 N 0.608(3) 0.134(5) 0.115(3)
N14 N 0.495(3) 0.198(7) 0.139(3)
N15 N 0.3227(17) 0.472(4) 0.249(6)
N16 N 0.3785(14) 0.333(3) 0.218(6)
H1 H 0.2876 0.1592 0.2899
H3 H 0.4958 0.0496 0.3961
H7 H 0.0361 0.1201 0.3982
H8 H 0.1352 0.3593 0.5196
H9 H 0.2389 0.2453 0.5021
H11 H 0.0283 0.0521 0.0688
H12 H 0.0979 0.1317 0.2204
H16 H 0.4072 0.0925 0.0133
H17 H 0.2379 0.1181 0.1578
H18 H 0.1937 0.0078 0.0181
H19 H 0.5346 0.0645 0.1871
H20 H 0.6337 0.2545 0.0418
H21 H 0.5109 0.3242 0.0678
H22 H 0.3633 0.3731 0.3546
H23 H 0.3044 0.5156 0.1037
H24 H 0.3655 0.3625 0.0713
Zn13 Zn 0.7085(8) 0.0455(9) 0.1412(10)
Zn15 Zn 0.2915(8) 0.5455(9) 0.3588(10)
N30 N 0.300(4) 0.029(3) 0.984(3)
N39 N 0.3227(17) 0.028(4) 0.749(6)
Zn2 Zn 0.0601(8) 0.7218(9) 0.5873(10)
Zn3 Zn 0.2915(8) 0.9545(9) 0.8588(10)
C4 C 0.116(4) 0.866(6) 0.4776(16)
C5 C 0.231(3) 0.825(7) 0.4675(15)
C6 C 0.193(5) 0.745(4) 0.4885(15)
C10 C 0.133(3) 0.916(3) 0.212(7)
C13 C 0.179(4) 0.845(4) 0.730(4)
C14 C 0.114(5) 0.905(4) 0.829(3)
C15 C 0.068(3) 0.841(5) 0.769(5)
N3 N 0.183(5) 0.902(4) 0.4605(10)
N4 N 0.120(4) 0.770(6) 0.4951(11)
N7 N 0.146(2) 0.999(6) 0.264(4)
N8 N 0.082(4) 0.927(6) 0.125(5)
N9 N 0.108(5) 0.803(3) 0.706(3)
N10 N 0.185(4) 0.908(4) 0.805(5)
H2 H 0.4014 0.9645 0.4732
H4 H 0.0709 0.9036 0.4775
H5 H 0.2835 0.8270 0.4588
H6 H 0.2146 0.6819 0.4973
H10 H 0.1565 0.8561 0.2356
H13 H 0.2197 0.8321 0.6970
H14 H 0.0993 0.9414 0.8802
H15 H 0.0154 0.8260 0.7713
Zn8 Zn 0.0601(8) 0.7782(9) 0.0873(10)
N26 N 0.082(4) 0.573(6) 0.625(5)
N35 N 0.392(3) 0.866(5) 0.885(3)
Zn6 Zn 0.9399(8) 0.2782(9) 0.4127(10)
Zn7 Zn 0.9399(8) 0.2218(9) 0.9127(10)
C28 C 0.884(4) 0.134(6) 0.5224(16)
C29 C 0.769(3) 0.175(7) 0.5325(15)
C30 C 0.807(5) 0.255(4) 0.5115(15)
C34 C 0.867(3) 0.084(3) 0.788(7)
C37 C 0.821(4) 0.155(4) 0.270(4)
C38 C 0.886(5) 0.095(4) 0.171(3)
C39 C 0.932(3) 0.159(5) 0.231(5)
N19 N 0.817(5) 0.098(4) 0.5395(10)
N20 N 0.880(4) 0.230(6) 0.5049(11)
N23 N 0.854(2) 0.001(6) 0.736(4)
N24 N 0.918(4) 0.073(6) 0.875(5)
N25 N 0.918(4) 0.427(6) 0.375(5)
N27 N 0.892(5) 0.197(3) 0.294(3)
N28 N 0.815(4) 0.092(4) 0.195(5)
H26 H 0.5986 0.0355 0.5268
H28 H 0.9291 0.0964 0.5225
H29 H 0.7165 0.1730 0.5412
H30 H 0.7854 0.3181 0.5027
H34 H 0.8435 0.1439 0.7644
H37 H 0.7803 0.1679 0.3030
H38 H 0.9007 0.0586 0.1198
H39 H 0.9846 0.1740 0.2287
N29 N 0.700(4) 0.971(3) 0.016(3)
Zn5 Zn 0.7957(9) 0.9711(9) 0.6016(10)
Zn14 Zn 0.7085(8) 0.4545(9) 0.6412(10)
Zn16 Zn 0.5811(9) 0.8081(10) 0.7912(11)
C25 C 0.672(3) 0.879(3) 0.673(3)
C26 C 0.611(4) 0.985(2) 0.574(2)
C27 C 0.559(2) 0.938(3) 0.617(3)
C31 C 0.925(4) 0.834(5) 0.5733(18)
C32 C 0.874(5) 0.704(3) 0.5077(19)
C33 C 0.816(3) 0.766(6) 0.517(2)
C35 C 0.937(2) 0.979(7) 0.878(5)
C36 C 0.898(4) 0.935(3) 0.795(6)
C40 C 0.641(3) 0.915(3) 0.968(5)
C41 C 0.732(4) 0.900(3) 0.889(3)
C42 C 0.757(3) 0.961(3) 0.966(4)
C43 C 0.456(4) 0.879(4) 0.847(2)
C44 C 0.402(4) 0.776(6) 0.925(2)
C45 C 0.469(5) 0.738(4) 0.910(3)
C46 C 0.643(2) 0.611(5) 0.713(3)
C47 C 0.6766(19) 0.532(5) 0.848(6)
C48 C 0.643(2) 0.616(6) 0.867(4)
N17 N 0.683(3) 0.948(3) 0.610(3)
N18 N 0.596(3) 0.871(3) 0.680(2)
N21 N 0.848(5) 0.849(4) 0.558(3)
N22 N 0.943(3) 0.746(6) 0.543(3)
N32 N 0.659(4) 0.871(2) 0.889(4)
N36 N 0.505(3) 0.802(7) 0.861(3)
N37 N 0.6773(17) 0.528(4) 0.751(6)
N38 N 0.6773(17) 0.972(4) 0.251(6)
N40 N 0.6215(14) 0.667(3) 0.782(6)
H25 H 0.7124 0.8408 0.7101
H27 H 0.5042 0.9504 0.6039
H31 H 0.9639 0.8799 0.6018
H32 H 0.8648 0.6407 0.4804
H33 H 0.7611 0.7547 0.4979
H35 H 0.9717 0.9479 0.9312
H36 H 0.9021 0.8683 0.7796
H40 H 0.5928 0.9075 0.9867
H41 H 0.7621 0.8819 0.8422
H42 H 0.8063 0.9922 0.9819
H43 H 0.4654 0.9355 0.8129
H44 H 0.3663 0.7455 0.9582
H45 H 0.4891 0.6758 0.9322
H46 H 0.6367 0.6269 0.6454
H47 H 0.6956 0.4844 0.8963
H48 H 0.6345 0.6375 0.9287
C37_2 C 0.179(4) 0.655(4) 0.230(4)
C38_2 C 0.114(5) 0.595(4) 0.329(3)
C39_2 C 0.068(3) 0.659(5) 0.269(5)
N27_2 N 0.108(5) 0.697(3) 0.206(3)
N28_2 N 0.185(4) 0.592(4) 0.305(5)
N31 N 0.300(4) 0.471(3) 0.484(3)
N34 N 0.392(3) 0.634(5) 0.385(3)
H32_2 H 0.1352 0.1407 0.0196
H33_2 H 0.2389 0.2547 0.0021
H37_2 H 0.2197 0.6679 0.1970
H38_2 H 0.0993 0.5586 0.3802
H39_2 H 0.0154 0.6740 0.2713
Zn5_2 Zn 0.2043(9) 0.4711(9) 0.8984(10)
Zn16_2 Zn 0.4189(9) 0.3081(10) 0.7088(11)
C25_2 C 0.328(3) 0.379(3) 0.827(3)
C26_2 C 0.389(4) 0.485(2) 0.926(2)
C27_2 C 0.441(2) 0.438(3) 0.883(3)
C28_2 C 0.116(4) 0.634(6) 0.9776(16)
C29_2 C 0.231(3) 0.675(7) 0.9675(15)
C30_2 C 0.193(5) 0.755(4) 0.9885(15)
C31_2 C 0.075(4) 0.334(5) 0.9267(18)
C32_2 C 0.126(5) 0.204(3) 0.9923(19)
C33_2 C 0.184(3) 0.266(6) 0.983(2)
C34_2 C 0.133(3) 0.584(3) 0.712(7)
C35_2 C 0.063(2) 0.479(7) 0.622(5)
C36_2 C 0.102(4) 0.435(3) 0.705(6)
C40_2 C 0.359(3) 0.415(3) 0.532(5)
C41_2 C 0.268(4) 0.400(3) 0.611(3)
C42_2 C 0.243(3) 0.461(3) 0.534(4)
C43_2 C 0.544(4) 0.379(4) 0.653(2)
C44_2 C 0.598(4) 0.276(6) 0.575(2)
C45_2 C 0.531(5) 0.238(4) 0.590(3)
C46_2 C 0.357(2) 0.111(5) 0.787(3)
C47_2 C 0.3234(19) 0.032(5) 0.652(6)
C48_2 C 0.357(2) 0.116(6) 0.633(4)
N17_2 N 0.317(3) 0.448(3) 0.890(3)
N18_2 N 0.404(3) 0.371(3) 0.820(2)
N19_2 N 0.183(5) 0.598(4) 0.9605(10)
N20_2 N 0.120(4) 0.730(6) 0.9951(11)
N21_2 N 0.152(5) 0.349(4) 0.942(3)
N22_2 N 0.057(3) 0.246(6) 0.957(3)
N23_2 N 0.146(2) 0.501(6) 0.764(4)
N32_2 N 0.341(4) 0.371(2) 0.611(4)
N33 N 0.608(3) 0.366(5) 0.615(3)
N36_2 N 0.495(3) 0.302(7) 0.639(3)
N40_2 N 0.3785(14) 0.167(3) 0.718(6)
H25_2 H 0.2876 0.3408 0.7899
H26_2 H 0.4014 0.5355 0.9732
H27_2 H 0.4958 0.4504 0.8961
H28_2 H 0.0709 0.5964 0.9775
H29_2 H 0.2835 0.6730 0.9588
H30_2 H 0.2146 0.8181 0.9973
H31_2 H 0.0361 0.3799 0.8982
H34_2 H 0.1565 0.6439 0.7356
H35_2 H 0.0283 0.4479 0.5688
H36_2 H 0.0979 0.3683 0.7204
H40_2 H 0.4072 0.4075 0.5133
H41_2 H 0.2379 0.3819 0.6578
H42_2 H 0.1937 0.4922 0.5181
H43_2 H 0.5346 0.4355 0.6871
H44_2 H 0.6337 0.2455 0.5418
H45_2 H 0.5109 0.1758 0.5678
H46_2 H 0.3633 0.1269 0.8546
H48_2 H 0.3655 0.1375 0.5713
H47_2 H 0.3044 0.9844 0.6037
H23_2 H 0.6956 0.0156 0.3963
Zn1_2 Zn 0.7957(9) 0.5289(9) 0.1016(10)
Zn4_2 Zn 0.5811(9) 0.6919(10) 0.2912(11)
C1_2 C 0.672(3) 0.621(3) 0.173(3)
C2_2 C 0.611(4) 0.515(2) 0.074(2)
C3_2 C 0.559(2) 0.562(3) 0.117(3)
C4_2 C 0.884(4) 0.366(6) 0.0224(16)
C5_2 C 0.769(3) 0.325(7) 0.0325(15)
C6_2 C 0.807(5) 0.245(4) 0.0115(15)
C7_2 C 0.925(4) 0.666(5) 0.0733(18)
C8_2 C 0.874(5) 0.796(3) 0.0077(19)
C9_2 C 0.816(3) 0.734(6) 0.017(2)
C10_2 C 0.867(3) 0.416(3) 0.288(7)
C11_2 C 0.937(2) 0.521(7) 0.378(5)
C12_2 C 0.898(4) 0.565(3) 0.295(6)
C16_2 C 0.641(3) 0.585(3) 0.468(5)
C17_2 C 0.732(4) 0.600(3) 0.389(3)
C18_2 C 0.757(3) 0.539(3) 0.466(4)
C19_2 C 0.456(4) 0.621(4) 0.347(2)
C20_2 C 0.402(4) 0.724(6) 0.425(2)
C21_2 C 0.469(5) 0.762(4) 0.410(3)
C22_2 C 0.643(2) 0.889(5) 0.213(3)
C23_2 C 0.6766(19) 0.968(5) 0.348(6)
C24_2 C 0.643(2) 0.884(6) 0.367(4)
N1_2 N 0.683(3) 0.552(3) 0.110(3)
N2_2 N 0.596(3) 0.629(3) 0.180(2)
N3_2 N 0.817(5) 0.402(4) 0.0395(10)
N4_2 N 0.880(4) 0.270(6) 0.0049(11)
N5_2 N 0.848(5) 0.651(4) 0.058(3)
N6_2 N 0.943(3) 0.754(6) 0.043(3)
N7_2 N 0.854(2) 0.499(6) 0.236(4)
N11 N 0.700(4) 0.529(3) 0.516(3)
N12_2 N 0.659(4) 0.629(2) 0.389(4)
N14_2 N 0.505(3) 0.698(7) 0.361(3)
N16_2 N 0.6215(14) 0.833(3) 0.282(6)
H1_2 H 0.7124 0.6592 0.2101
H2_2 H 0.5986 0.4645 0.0268
H3_2 H 0.5042 0.5496 0.1039
H4_2 H 0.9291 0.4036 0.0225
H5_2 H 0.7165 0.3270 0.0412
H6_2 H 0.7854 0.1819 0.0027
H7_2 H 0.9639 0.6201 0.1018
H10_2 H 0.8435 0.3561 0.2644
H11_2 H 0.9717 0.5521 0.4312
H12_2 H 0.9021 0.6317 0.2796
H16_2 H 0.5928 0.5925 0.4867
H17_2 H 0.7621 0.6181 0.3422
H18_2 H 0.8063 0.5078 0.4819
H19_2 H 0.4654 0.5645 0.3129
H20_2 H 0.3663 0.7545 0.4582
H21_2 H 0.4891 0.8242 0.4322
H22_2 H 0.6367 0.8731 0.1454
H24_2 H 0.6345 0.8625 0.4287
C13_2 C 0.821(4) 0.345(4) 0.770(4)
C14_2 C 0.886(5) 0.405(4) 0.671(3)
C15_2 C 0.932(3) 0.341(5) 0.731(5)
N9_2 N 0.892(5) 0.303(3) 0.794(3)
N10_2 N 0.815(4) 0.408(4) 0.695(5)
H8_2 H 0.8648 0.8593 0.9804
H9_2 H 0.7611 0.7453 0.9979
H13_2 H 0.7803 0.3321 0.8030
H14_2 H 0.9007 0.4414 0.6198
H15_2 H 0.9846 0.3260 0.7287
loop_
_geom_bond_atom_site_label_1
_geom_bond_atom_site_label_2
_geom_bond_site_symmetry_1
_geom_bond_site_symmetry_2
Zn1 N1 1_555 1_555
Zn4 N2 1_555 1_555
C1 N1 1_555 1_555
C2 C3 1_555 1_555
C3 N2 1_555 1_555
C7 N5 1_555 1_555
C8 C9 1_555 1_555
C9 N5 1_555 1_555
C11 C12 1_555 1_555
C17 C18 1_555 1_555
C19 N13 1_555 1_555
C20 C21 1_555 1_555
C21 N14 1_555 1_555
C22 N15 1_555 1_555
C23 C24 1_555 1_555
C24 N16 1_555 1_555
N1 C2 1_555 1_555
N2 C1 1_555 1_555
N5 Zn1 1_555 1_555
N6 C7 1_555 1_555
N12 Zn4 1_555 1_555
N13 C20 1_555 1_555
N14 Zn4 1_555 1_555
N15 C23 1_555 1_555
N16 Zn4 1_555 1_555
H1 C1 1_555 1_555
H3 C3 1_555 1_555
H7 C7 1_555 1_555
H8 C8 1_555 1_555
H9 C9 1_555 1_555
H11 C11 1_555 1_555
H12 C12 1_555 1_555
H16 C16 1_555 1_555
H17 C17 1_555 1_555
H18 C18 1_555 1_555
H19 C19 1_555 1_555
H20 C20 1_555 1_555
H21 C21 1_555 1_555
H22 C22 1_555 1_555
H23 C23 1_555 1_555
H24 C24 1_555 1_555
Zn13 N13 1_555 1_555
Zn15 N15 1_555 1_555
C8 N6 1_555 1_555
C16 N12 1_555 1_555
C17 N12 1_555 1_555
C19 N14 1_555 1_555
C22 N16 1_555 1_555
Zn2 N4 1_555 1_555
Zn3 N10 1_555 1_555
C4 N3 1_555 1_555
C5 C6 1_555 1_555
C6 N4 1_555 1_555
C10 N7 1_555 1_555
C13 N9 1_555 1_555
C14 C15 1_555 1_555
C15 N9 1_555 1_555
N4 C4 1_555 1_555
N8 C10 1_555 1_555
N9 Zn2 1_555 1_555
N10 C13 1_555 1_555
H4 C4 1_555 1_555
H5 C5 1_555 1_555
H6 C6 1_555 1_555
H10 C10 1_555 1_555
H13 C13 1_555 1_555
H14 C14 1_555 1_555
H15 C15 1_555 1_555
Zn8 N8 1_555 1_555
N26 Zn2 1_555 1_555
N35 Zn3 1_555 1_555
C5 N3 1_555 1_555
C14 N10 1_555 1_555
Zn7 N24 1_555 1_555
Zn13 N28 1_555 1_555
C28 N19 1_555 1_555
C29 C30 1_555 1_555
C30 N20 1_555 1_555
C34 N23 1_555 1_555
C37 N27 1_555 1_555
C38 C39 1_555 1_555
C39 N27 1_555 1_555
N20 Zn6 1_555 1_555
N24 C34 1_555 1_555
N25 Zn6 1_555 1_555
N27 Zn6 1_555 1_555
N28 C37 1_555 1_555
H28 C28 1_555 1_555
H29 C29 1_555 1_555
H30 C30 1_555 1_555
H34 C34 1_555 1_555
H37 C37 1_555 1_555
H38 C38 1_555 1_555
H39 C39 1_555 1_555
C28 N20 1_555 1_555
C29 N19 1_555 1_555
C38 N28 1_555 1_555
Zn5 N17 1_555 1_555
Zn14 N37 1_555 1_555
Zn16 N18 1_555 1_555
C25 N17 1_555 1_555
C26 C27 1_555 1_555
C27 N18 1_555 1_555
C31 N21 1_555 1_555
C32 C33 1_555 1_555
C33 N21 1_555 1_555
C35 C36 1_555 1_555
C41 C42 1_555 1_555
C43 N35 1_555 1_555
C44 C45 1_555 1_555
C45 N36 1_555 1_555
C46 N37 1_555 1_555
C47 C48 1_555 1_555
C48 N40 1_555 1_555
N17 C26 1_555 1_555
N18 C25 1_555 1_555
N21 Zn5 1_555 1_555
N32 Zn16 1_555 1_555
N35 C44 1_555 1_555
N36 Zn16 1_555 1_555
N37 C47 1_555 1_555
N40 Zn16 1_555 1_555
H25 C25 1_555 1_555
H27 C27 1_555 1_555
H31 C31 1_555 1_555
H32 C32 1_555 1_555
H33 C33 1_555 1_555
H35 C35 1_555 1_555
H36 C36 1_555 1_555
H40 C40 1_555 1_555
H41 C41 1_555 1_555
H42 C42 1_555 1_555
H43 C43 1_555 1_555
H44 C44 1_555 1_555
H45 C45 1_555 1_555
H46 C46 1_555 1_555
H47 C47 1_555 1_555
H48 C48 1_555 1_555
C31 N22 1_555 1_555
C32 N22 1_555 1_555
C40 N32 1_555 1_555
C41 N32 1_555 1_555
C43 N36 1_555 1_555
C46 N40 1_555 1_555
Zn15 N28_2 1_555 1_555
C37_2 N27_2 1_555 1_555
C38_2 C39_2 1_555 1_555
C39_2 N27_2 1_555 1_555
N27_2 Zn8 1_555 1_555
N28_2 C37_2 1_555 1_555
N31 Zn15 1_555 1_555
N34 Zn15 1_555 1_555
H37_2 C37_2 1_555 1_555
H38_2 C38_2 1_555 1_555
H39_2 C39_2 1_555 1_555
C38_2 N28_2 1_555 1_555
Zn5_2 N17_2 1_555 1_555
Zn14 N33 1_555 1_555
Zn16_2 N18_2 1_555 1_555
C25_2 N17_2 1_555 1_555
C26_2 C27_2 1_555 1_555
C27_2 N18_2 1_555 1_555
C28_2 N19_2 1_555 1_555
C29_2 C30_2 1_555 1_555
C30_2 N20_2 1_555 1_555
C31_2 N21_2 1_555 1_555
C32_2 C33_2 1_555 1_555
C33_2 N21_2 1_555 1_555
C34_2 N23_2 1_555 1_555
C35_2 C36_2 1_555 1_555
C36_2 N23_2 1_555 1_555
C40_2 N31 1_555 1_555
C41_2 C42_2 1_555 1_555
C42_2 N31 1_555 1_555
C43_2 N33 1_555 1_555
C44_2 C45_2 1_555 1_555
C45_2 N36_2 1_555 1_555
C46_2 N39 1_555 1_555
C47_2 C48_2 1_555 1_555
C48_2 N40_2 1_555 1_555
N17_2 C26_2 1_555 1_555
N18_2 C25_2 1_555 1_555
N19_2 Zn5_2 1_555 1_555
N21_2 Zn5_2 1_555 1_555
N23_2 Zn5_2 1_555 1_555
N26 C34_2 1_555 1_555
N32_2 Zn16_2 1_555 1_555
N33 C44_2 1_555 1_555
N36_2 Zn16_2 1_555 1_555
N39 C47_2 1_555 1_555
N40_2 Zn16_2 1_555 1_555
H25_2 C25_2 1_555 1_555
H26_2 C26_2 1_555 1_555
H27_2 C27_2 1_555 1_555
H28_2 C28_2 1_555 1_555
H29_2 C29_2 1_555 1_555
H30_2 C30_2 1_555 1_555
H31_2 C31_2 1_555 1_555
H34_2 C34_2 1_555 1_555
H35_2 C35_2 1_555 1_555
H36_2 C36_2 1_555 1_555
H40_2 C40_2 1_555 1_555
H41_2 C41_2 1_555 1_555
H42_2 C42_2 1_555 1_555
H43_2 C43_2 1_555 1_555
H44_2 C44_2 1_555 1_555
H45_2 C45_2 1_555 1_555
H46_2 C46_2 1_555 1_555
H48_2 C48_2 1_555 1_555
C28_2 N20_2 1_555 1_555
C29_2 N19_2 1_555 1_555
C31_2 N22_2 1_555 1_555
C32_2 N22_2 1_555 1_555
C35_2 N26 1_555 1_555
C40_2 N32_2 1_555 1_555
C41_2 N32_2 1_555 1_555
C43_2 N36_2 1_555 1_555
C46_2 N40_2 1_555 1_555
Zn1_2 N1_2 1_555 1_555
Zn4_2 N2_2 1_555 1_555
C1_2 N1_2 1_555 1_555
C2_2 C3_2 1_555 1_555
C3_2 N2_2 1_555 1_555
C4_2 N3_2 1_555 1_555
C5_2 C6_2 1_555 1_555
C6_2 N4_2 1_555 1_555
C7_2 N5_2 1_555 1_555
C8_2 C9_2 1_555 1_555
C9_2 N5_2 1_555 1_555
C10_2 N7_2 1_555 1_555
C11_2 C12_2 1_555 1_555
C12_2 N7_2 1_555 1_555
C16_2 N11 1_555 1_555
C17_2 C18_2 1_555 1_555
C18_2 N11 1_555 1_555
C19_2 N34 1_555 1_555
C20_2 C21_2 1_555 1_555
C21_2 N14_2 1_555 1_555
C22_2 N38 1_555 1_555
C23_2 C24_2 1_555 1_555
C24_2 N16_2 1_555 1_555
N1_2 C2_2 1_555 1_555
N2_2 C1_2 1_555 1_555
N3_2 Zn1_2 1_555 1_555
N4_2 C4_2 1_555 1_555
N5_2 Zn1_2 1_555 1_555
N6_2 C7_2 1_555 1_555
N7_2 Zn1_2 1_555 1_555
N25 C10_2 1_555 1_555
N11 Zn14 1_555 1_555
N12_2 Zn4_2 1_555 1_555
N34 C20_2 1_555 1_555
N14_2 Zn4_2 1_555 1_555
N38 C23_2 1_555 1_555
N16_2 Zn4_2 1_555 1_555
H1_2 C1_2 1_555 1_555
H2_2 C2_2 1_555 1_555
H3_2 C3_2 1_555 1_555
H4_2 C4_2 1_555 1_555
H5_2 C5_2 1_555 1_555
H6_2 C6_2 1_555 1_555
H7_2 C7_2 1_555 1_555
H10_2 C10_2 1_555 1_555
H11_2 C11_2 1_555 1_555
H12_2 C12_2 1_555 1_555
H16_2 C16_2 1_555 1_555
H17_2 C17_2 1_555 1_555
H18_2 C18_2 1_555 1_555
H19_2 C19_2 1_555 1_555
H20_2 C20_2 1_555 1_555
H21_2 C21_2 1_555 1_555
H22_2 C22_2 1_555 1_555
H24_2 C24_2 1_555 1_555
C5_2 N3_2 1_555 1_555
C8_2 N6_2 1_555 1_555
C11_2 N25 1_555 1_555
C16_2 N12_2 1_555 1_555
C17_2 N12_2 1_555 1_555
C19_2 N14_2 1_555 1_555
C22_2 N16_2 1_555 1_555
Zn14 N10_2 1_555 1_555
C13_2 N9_2 1_555 1_555
C14_2 C15_2 1_555 1_555
C15_2 N9_2 1_555 1_555
N9_2 Zn7 1_555 1_555
N10_2 C13_2 1_555 1_555
H13_2 C13_2 1_555 1_555
H14_2 C14_2 1_555 1_555
H15_2 C15_2 1_555 1_555
C14_2 N10_2 1_555 1_555

#END
