
###############################################################################
#
# This file contains modified crystal structure data generated from the
# MOF subset of the Cambridge Structural Database (CSD) v543 
# hosted by the Cambridge Crystallographic Data Centre (CCDC).
#
# This work is licensed under the Creative Commons
# Attribution-NonCommercial-ShareAlike 4.0 International License.
# To view a copy of this license, visit
# http://creativecommons.org/licenses/by-nc-sa/4.0/
# or send a letter to
# Creative Commons, PO Box 1866, Mountain View, CA 94042, USA.
#
# CIF created using the CSD Python API on 29 September 2022
# The structure has been converted into the P1 space group
# The structure has a 3D framework
# The original CSD entry VEJYUF07 is in the monoclinic crystal system
# The framework has been calculated to contain at least 10.0% void space
# The void calculation uses a probe of radius 1.32A, grid spacing 0.4
#
###############################################################################

data_VEJYUF07
_chemical_formula_moiety         '(C96 H96 N64 Zn16)n'
_symmetry_cell_setting           triclinic
_symmetry_space_group_name_H-M   'P 1'
_symmetry_Int_Tables_number      1
_space_group_name_Hall           'P 1'
loop_
_symmetry_equiv_pos_site_id
_symmetry_equiv_pos_as_xyz
1 x,y,z
_cell_length_a                   17.608(5)
_cell_length_b                   14.411(5)
_cell_length_c                   14.703(5)
_cell_angle_alpha                90
_cell_angle_beta                 100.90(2)
_cell_angle_gamma                90
_cell_volume                     3663.56
loop_
_atom_site_label
_atom_site_type_symbol
_atom_site_fract_x
_atom_site_fract_y
_atom_site_fract_z
Zn1 Zn 0.2000(5) 0.0256(6) 0.3854(6)
Zn4 Zn 0.4090(5) 0.1922(6) 0.1936(6)
C1 C 0.3174(18) 0.1212(17) 0.3209(16)
C2 C 0.383(2) 0.0236(14) 0.4128(14)
C3 C 0.4318(16) 0.069(2) 0.367(2)
C7 C 0.064(2) 0.147(2) 0.4011(11)
C8 C 0.108(3) 0.2739(18) 0.4645(12)
C9 C 0.1685(18) 0.218(3) 0.4584(13)
C12 C 0.1084(16) 0.029(2) 0.179(4)
C16 C 0.358(2) 0.083(2) 0.014(3)
C17 C 0.274(3) 0.103(2) 0.099(2)
C18 C 0.2431(18) 0.0469(19) 0.028(3)
C19 C 0.553(3) 0.122(3) 0.1824(19)
C20 C 0.598(2) 0.196(3) 0.079(2)
C21 C 0.532(3) 0.238(2) 0.092(3)
C22 C 0.3396(10) 0.364(3) 0.271(2)
C23 C 0.3292(10) 0.468(2) 0.167(3)
C24 C 0.3545(10) 0.389(3) 0.133(2)
N1 N 0.3101(18) 0.0559(19) 0.3840(18)
N2 N 0.391(2) 0.1316(16) 0.3089(15)
N5 N 0.142(2) 0.137(2) 0.4185(14)
N6 N 0.0411(18) 0.229(3) 0.4283(15)
N12 N 0.347(2) 0.1267(16) 0.091(3)
N13 N 0.612(2) 0.122(3) 0.136(3)
N14 N 0.5030(18) 0.192(3) 0.158(3)
N15 N 0.3194(8) 0.453(3) 0.255(3)
N16 N 0.3612(8) 0.322(2) 0.198(3)
H1 H 0.2750 0.1569 0.2899
H3 H 0.4859 0.0594 0.3739
H7 H 0.0297 0.1017 0.3688
H8 H 0.1109 0.3333 0.4931
H9 H 0.2213 0.2318 0.4820
H12 H 0.1006 0.0940 0.1698
H17 H 0.2491 0.1236 0.1476
H18 H 0.1927 0.0210 0.0189
H19 H 0.5462 0.0779 0.2283
H20 H 0.6305 0.2138 0.0374
H21 H 0.5111 0.2921 0.0593
H22 H 0.3383 0.3341 0.3287
H23 H 0.3199 0.5250 0.1336
H24 H 0.3660 0.3809 0.0726
Zn13 Zn 0.7052(5) 0.0309(6) 0.1486(6)
Zn15 Zn 0.2948(5) 0.5309(6) 0.3514(6)
N30 N 0.296(3) 0.0339(17) 0.9729(19)
N39 N 0.3194(8) 0.047(3) 0.755(3)
H16 H 0.4041 0.0867 0.9892
Zn2 Zn 0.0690(5) 0.7434(6) 0.6028(6)
Zn3 Zn 0.2948(5) 0.9691(6) 0.8514(6)
C4 C 0.123(2) 0.881(3) 0.4812(15)
C5 C 0.2400(19) 0.843(4) 0.4792(16)
C6 C 0.205(3) 0.772(2) 0.5157(13)
C10 C 0.1410(15) 0.896(3) 0.237(4)
C11 C 0.0834(11) 0.964(4) 0.114(2)
C13 C 0.183(2) 0.867(2) 0.733(3)
C14 C 0.130(3) 0.8994(19) 0.848(2)
C15 C 0.0808(18) 0.845(2) 0.789(3)
N3 N 0.188(3) 0.913(2) 0.4572(11)
N4 N 0.131(3) 0.795(3) 0.5173(13)
N7 N 0.1454(13) 0.987(4) 0.258(3)
N8 N 0.1037(19) 0.879(3) 0.150(4)
N9 N 0.114(3) 0.8245(16) 0.715(2)
N10 N 0.195(2) 0.9143(16) 0.814(3)
H2 H 0.3980 0.9754 0.4565
H4 H 0.0771 0.9165 0.4702
H5 H 0.2926 0.8415 0.4727
H6 H 0.2278 0.7150 0.5403
H10 H 0.1627 0.8499 0.2801
H11 H 0.0555 0.9743 0.0530
H13 H 0.2189 0.8663 0.6928
H14 H 0.1202 0.9223 0.9055
H15 H 0.0316 0.8236 0.7971
Zn8 Zn 0.0690(5) 0.7566(6) 0.1028(6)
N26 N 0.1037(19) 0.621(3) 0.650(4)
N35 N 0.388(2) 0.878(3) 0.864(3)
Zn6 Zn 0.9310(5) 0.2566(6) 0.3972(6)
Zn7 Zn 0.9310(5) 0.2434(6) 0.8972(6)
C28 C 0.877(2) 0.119(3) 0.5188(15)
C29 C 0.7600(19) 0.157(4) 0.5208(16)
C30 C 0.795(3) 0.228(2) 0.4843(13)
C34 C 0.8590(15) 0.104(3) 0.763(4)
C35 C 0.9166(11) 0.036(4) 0.886(2)
C37 C 0.817(2) 0.133(2) 0.267(3)
C38 C 0.870(3) 0.1006(19) 0.152(2)
C39 C 0.9192(18) 0.155(2) 0.211(3)
N19 N 0.812(3) 0.087(2) 0.5428(11)
N20 N 0.869(3) 0.205(3) 0.4827(13)
N23 N 0.8546(13) 0.013(4) 0.742(3)
N24 N 0.8963(19) 0.121(3) 0.850(4)
N25 N 0.8963(19) 0.379(3) 0.350(4)
N27 N 0.886(3) 0.1755(16) 0.285(2)
N28 N 0.805(2) 0.0857(16) 0.186(3)
H26 H 0.6020 0.0246 0.5435
H28 H 0.9229 0.0835 0.5298
H29 H 0.7074 0.1585 0.5273
H30 H 0.7722 0.2850 0.4597
H34 H 0.8373 0.1501 0.7199
H35 H 0.9445 0.0257 0.9470
H37 H 0.7811 0.1337 0.3072
H38 H 0.8798 0.0777 0.0945
H39 H 0.9684 0.1764 0.2029
N29 N 0.704(3) 0.9661(17) 0.0271(19)
H40 H 0.5959 0.9133 0.0108
Zn5 Zn 0.8000(5) 0.9744(6) 0.6146(6)
Zn14 Zn 0.7052(5) 0.4691(6) 0.6486(6)
Zn16 Zn 0.5910(5) 0.8078(6) 0.8064(6)
C25 C 0.6826(18) 0.8788(17) 0.6791(16)
C26 C 0.617(2) 0.9764(14) 0.5872(14)
C27 C 0.5682(16) 0.931(2) 0.633(2)
C31 C 0.936(2) 0.853(2) 0.5989(11)
C32 C 0.892(3) 0.7261(18) 0.5355(12)
C33 C 0.8315(18) 0.782(3) 0.5416(13)
C36 C 0.8916(16) 0.971(2) 0.821(4)
C40 C 0.642(2) 0.917(2) 0.986(3)
C41 C 0.726(3) 0.897(2) 0.901(2)
C42 C 0.7569(18) 0.9531(19) 0.972(3)
C43 C 0.447(3) 0.878(3) 0.8176(19)
C44 C 0.402(2) 0.804(3) 0.921(2)
C45 C 0.468(3) 0.762(2) 0.908(3)
C46 C 0.6604(10) 0.636(3) 0.729(2)
C47 C 0.6708(10) 0.532(2) 0.833(3)
C48 C 0.6455(10) 0.611(3) 0.867(2)
N17 N 0.6899(18) 0.9441(19) 0.6160(18)
N18 N 0.609(2) 0.8684(16) 0.6911(15)
N21 N 0.858(2) 0.863(2) 0.5815(14)
N22 N 0.9589(18) 0.771(3) 0.5717(15)
N32 N 0.653(2) 0.8733(16) 0.909(3)
N36 N 0.4970(18) 0.808(3) 0.842(3)
N37 N 0.6806(8) 0.547(3) 0.745(3)
N38 N 0.6806(8) 0.953(3) 0.245(3)
N40 N 0.6388(8) 0.678(2) 0.802(3)
H25 H 0.7250 0.8431 0.7101
H27 H 0.5141 0.9406 0.6261
H31 H 0.9703 0.8983 0.6312
H32 H 0.8891 0.6667 0.5069
H33 H 0.7787 0.7682 0.5180
H36 H 0.8994 0.9060 0.8302
H41 H 0.7509 0.8764 0.8524
H42 H 0.8073 0.9790 0.9811
H43 H 0.4538 0.9221 0.7717
H44 H 0.3695 0.7862 0.9626
H45 H 0.4889 0.7079 0.9407
H46 H 0.6617 0.6659 0.6713
H47 H 0.6801 0.4750 0.8664
H48 H 0.6340 0.6191 0.9274
C30_2 C 0.205(3) 0.728(2) 0.0157(13)
C37_2 C 0.183(2) 0.633(2) 0.233(3)
C38_2 C 0.130(3) 0.6006(19) 0.348(2)
C39_2 C 0.0808(18) 0.655(2) 0.289(3)
N20_2 N 0.131(3) 0.705(3) 0.0173(13)
N27_2 N 0.114(3) 0.6755(16) 0.215(2)
N28_2 N 0.195(2) 0.5857(16) 0.314(3)
N31 N 0.296(3) 0.4661(17) 0.4729(19)
N34 N 0.388(2) 0.622(3) 0.364(3)
H30_2 H 0.2278 0.7850 0.0403
H37_2 H 0.2189 0.6337 0.1928
H38_2 H 0.1202 0.5777 0.4055
H39_2 H 0.0316 0.6764 0.2971
Zn5_2 Zn 0.2000(5) 0.4744(6) 0.8854(6)
Zn16_2 Zn 0.4090(5) 0.3078(6) 0.6936(6)
C25_2 C 0.3174(18) 0.3788(17) 0.8209(16)
C26_2 C 0.383(2) 0.4764(14) 0.9128(14)
C27_2 C 0.4318(16) 0.431(2) 0.867(2)
C28_2 C 0.123(2) 0.619(3) 0.9812(15)
C29_2 C 0.2400(19) 0.657(4) 0.9792(16)
C31_2 C 0.064(2) 0.353(2) 0.9011(11)
C32_2 C 0.108(3) 0.2261(18) 0.9645(12)
C33_2 C 0.1685(18) 0.282(3) 0.9584(13)
C34_2 C 0.1410(15) 0.604(3) 0.737(4)
C35_2 C 0.0834(11) 0.536(4) 0.614(2)
C36_2 C 0.1084(16) 0.471(2) 0.679(4)
C40_2 C 0.358(2) 0.417(2) 0.514(3)
C41_2 C 0.274(3) 0.397(2) 0.599(2)
C42_2 C 0.2431(18) 0.4531(19) 0.528(3)
C43_2 C 0.553(3) 0.378(3) 0.6824(19)
C44_2 C 0.598(2) 0.304(3) 0.579(2)
C45_2 C 0.532(3) 0.262(2) 0.592(3)
C46_2 C 0.3396(10) 0.136(3) 0.771(2)
C47_2 C 0.3292(10) 0.032(2) 0.667(3)
C48_2 C 0.3545(10) 0.111(3) 0.633(2)
N17_2 N 0.3101(18) 0.4441(19) 0.8840(18)
N18_2 N 0.391(2) 0.3684(16) 0.8089(15)
N19_2 N 0.188(3) 0.587(2) 0.9572(11)
N21_2 N 0.142(2) 0.363(2) 0.9185(14)
N22_2 N 0.0411(18) 0.271(3) 0.9283(15)
N23_2 N 0.1454(13) 0.513(4) 0.758(3)
N32_2 N 0.347(2) 0.3733(16) 0.591(3)
N33 N 0.612(2) 0.378(3) 0.636(3)
N36_2 N 0.5030(18) 0.308(3) 0.658(3)
N40_2 N 0.3612(8) 0.178(2) 0.698(3)
H25_2 H 0.2750 0.3431 0.7899
H26_2 H 0.3980 0.5246 0.9565
H27_2 H 0.4859 0.4406 0.8739
H28_2 H 0.0771 0.5835 0.9702
H29_2 H 0.2926 0.6585 0.9727
H31_2 H 0.0297 0.3983 0.8688
H32_2 H 0.1109 0.1667 0.9931
H33_2 H 0.2213 0.2682 0.9820
H34_2 H 0.1627 0.6501 0.7801
H35_2 H 0.0555 0.5257 0.5530
H36_2 H 0.1006 0.4060 0.6698
H40_2 H 0.4041 0.4133 0.4892
H41_2 H 0.2491 0.3764 0.6476
H42_2 H 0.1927 0.4790 0.5189
H43_2 H 0.5462 0.4221 0.7283
H44_2 H 0.6305 0.2862 0.5374
H45_2 H 0.5111 0.2079 0.5593
H46_2 H 0.3383 0.1659 0.8287
H48_2 H 0.3660 0.1191 0.5726
H47_2 H 0.3199 0.9750 0.6336
H23_2 H 0.6801 0.0250 0.3664
Zn1_2 Zn 0.8000(5) 0.5256(6) 0.1146(6)
Zn4_2 Zn 0.5910(5) 0.6922(6) 0.3064(6)
C1_2 C 0.6826(18) 0.6212(17) 0.1791(16)
C2_2 C 0.617(2) 0.5236(14) 0.0872(14)
C3_2 C 0.5682(16) 0.569(2) 0.133(2)
C4_2 C 0.877(2) 0.381(3) 0.0188(15)
C5_2 C 0.7600(19) 0.343(4) 0.0208(16)
C7_2 C 0.936(2) 0.647(2) 0.0989(11)
C8_2 C 0.892(3) 0.7739(18) 0.0355(12)
C9_2 C 0.8315(18) 0.718(3) 0.0416(13)
C10_2 C 0.8590(15) 0.396(3) 0.263(4)
C11_2 C 0.9166(11) 0.464(4) 0.386(2)
C12_2 C 0.8916(16) 0.529(2) 0.321(4)
C16_2 C 0.642(2) 0.583(2) 0.486(3)
C17_2 C 0.726(3) 0.603(2) 0.401(2)
C18_2 C 0.7569(18) 0.5469(19) 0.472(3)
C19_2 C 0.447(3) 0.622(3) 0.3176(19)
C20_2 C 0.402(2) 0.696(3) 0.421(2)
C21_2 C 0.468(3) 0.738(2) 0.408(3)
C22_2 C 0.6604(10) 0.864(3) 0.229(2)
C23_2 C 0.6708(10) 0.968(2) 0.333(3)
C24_2 C 0.6455(10) 0.889(3) 0.367(2)
N1_2 N 0.6899(18) 0.5559(19) 0.1160(18)
N2_2 N 0.609(2) 0.6316(16) 0.1911(15)
N3_2 N 0.812(3) 0.413(2) 0.0428(11)
N5_2 N 0.858(2) 0.637(2) 0.0815(14)
N6_2 N 0.9589(18) 0.729(3) 0.0717(15)
N7_2 N 0.8546(13) 0.487(4) 0.242(3)
N11 N 0.704(3) 0.5339(17) 0.5271(19)
N12_2 N 0.653(2) 0.6267(16) 0.409(3)
N14_2 N 0.4970(18) 0.692(3) 0.342(3)
N16_2 N 0.6388(8) 0.822(2) 0.302(3)
H1_2 H 0.7250 0.6569 0.2101
H2_2 H 0.6020 0.4754 0.0435
H3_2 H 0.5141 0.5594 0.1261
H4_2 H 0.9229 0.4165 0.0298
H5_2 H 0.7074 0.3415 0.0273
H7_2 H 0.9703 0.6017 0.1312
H8_2 H 0.8891 0.8333 0.0069
H9_2 H 0.7787 0.7318 0.0180
H10_2 H 0.8373 0.3499 0.2199
H11_2 H 0.9445 0.4743 0.4470
H12_2 H 0.8994 0.5940 0.3302
H16_2 H 0.5959 0.5867 0.5108
H17_2 H 0.7509 0.6236 0.3524
H18_2 H 0.8073 0.5210 0.4811
H19_2 H 0.4538 0.5779 0.2717
H20_2 H 0.3695 0.7138 0.4626
H21_2 H 0.4889 0.7921 0.4407
H22_2 H 0.6617 0.8341 0.1713
H24_2 H 0.6340 0.8809 0.4274
C6_2 C 0.795(3) 0.272(2) 0.9843(13)
C13_2 C 0.817(2) 0.367(2) 0.767(3)
C14_2 C 0.870(3) 0.3994(19) 0.652(2)
C15_2 C 0.9192(18) 0.345(2) 0.711(3)
N4_2 N 0.869(3) 0.295(3) 0.9827(13)
N9_2 N 0.886(3) 0.3245(16) 0.785(2)
N10_2 N 0.805(2) 0.4143(16) 0.686(3)
H6_2 H 0.7722 0.2150 0.9597
H13_2 H 0.7811 0.3663 0.8072
H14_2 H 0.8798 0.4223 0.5945
H15_2 H 0.9684 0.3236 0.7029
loop_
_geom_bond_atom_site_label_1
_geom_bond_atom_site_label_2
_geom_bond_site_symmetry_1
_geom_bond_site_symmetry_2
Zn1 N1 1_555 1_555
Zn4 N2 1_555 1_555
C1 N1 1_555 1_555
C2 C3 1_555 1_555
C3 N2 1_555 1_555
C7 N5 1_555 1_555
C8 C9 1_555 1_555
C9 N5 1_555 1_555
C17 C18 1_555 1_555
C19 N13 1_555 1_555
C20 C21 1_555 1_555
C21 N14 1_555 1_555
C22 N15 1_555 1_555
C23 C24 1_555 1_555
C24 N16 1_555 1_555
N1 C2 1_555 1_555
N2 C1 1_555 1_555
N5 Zn1 1_555 1_555
N6 C7 1_555 1_555
N12 Zn4 1_555 1_555
N13 C20 1_555 1_555
N14 Zn4 1_555 1_555
N15 C23 1_555 1_555
N16 Zn4 1_555 1_555
H1 C1 1_555 1_555
H3 C3 1_555 1_555
H7 C7 1_555 1_555
H8 C8 1_555 1_555
H9 C9 1_555 1_555
H12 C12 1_555 1_555
H17 C17 1_555 1_555
H18 C18 1_555 1_555
H19 C19 1_555 1_555
H20 C20 1_555 1_555
H21 C21 1_555 1_555
H22 C22 1_555 1_555
H23 C23 1_555 1_555
H24 C24 1_555 1_555
Zn13 N13 1_555 1_555
Zn15 N15 1_555 1_555
C8 N6 1_555 1_555
C16 N12 1_555 1_555
C17 N12 1_555 1_555
C19 N14 1_555 1_555
C22 N16 1_555 1_555
Zn2 N4 1_555 1_555
Zn3 N10 1_555 1_555
C4 N3 1_555 1_555
C5 C6 1_555 1_555
C6 N4 1_555 1_555
C10 N7 1_555 1_555
C13 N9 1_555 1_555
C14 C15 1_555 1_555
C15 N9 1_555 1_555
N4 C4 1_555 1_555
N8 C10 1_555 1_555
N9 Zn2 1_555 1_555
N10 C13 1_555 1_555
H4 C4 1_555 1_555
H5 C5 1_555 1_555
H6 C6 1_555 1_555
H10 C10 1_555 1_555
H11 C11 1_555 1_555
H13 C13 1_555 1_555
H14 C14 1_555 1_555
H15 C15 1_555 1_555
Zn8 N8 1_555 1_555
N26 Zn2 1_555 1_555
N35 Zn3 1_555 1_555
C5 N3 1_555 1_555
C11 N8 1_555 1_555
C14 N10 1_555 1_555
Zn7 N24 1_555 1_555
Zn13 N28 1_555 1_555
C28 N19 1_555 1_555
C29 C30 1_555 1_555
C30 N20 1_555 1_555
C34 N23 1_555 1_555
C37 N27 1_555 1_555
C38 C39 1_555 1_555
C39 N27 1_555 1_555
N20 Zn6 1_555 1_555
N24 C34 1_555 1_555
N25 Zn6 1_555 1_555
N27 Zn6 1_555 1_555
N28 C37 1_555 1_555
H28 C28 1_555 1_555
H29 C29 1_555 1_555
H30 C30 1_555 1_555
H34 C34 1_555 1_555
H35 C35 1_555 1_555
H37 C37 1_555 1_555
H38 C38 1_555 1_555
H39 C39 1_555 1_555
C28 N20 1_555 1_555
C29 N19 1_555 1_555
C35 N24 1_555 1_555
C38 N28 1_555 1_555
Zn5 N17 1_555 1_555
Zn14 N37 1_555 1_555
Zn16 N18 1_555 1_555
C25 N17 1_555 1_555
C26 C27 1_555 1_555
C27 N18 1_555 1_555
C31 N21 1_555 1_555
C32 C33 1_555 1_555
C33 N21 1_555 1_555
C41 C42 1_555 1_555
C43 N35 1_555 1_555
C44 C45 1_555 1_555
C45 N36 1_555 1_555
C46 N37 1_555 1_555
C47 C48 1_555 1_555
C48 N40 1_555 1_555
N17 C26 1_555 1_555
N18 C25 1_555 1_555
N21 Zn5 1_555 1_555
N32 Zn16 1_555 1_555
N35 C44 1_555 1_555
N36 Zn16 1_555 1_555
N37 C47 1_555 1_555
N40 Zn16 1_555 1_555
H25 C25 1_555 1_555
H27 C27 1_555 1_555
H31 C31 1_555 1_555
H32 C32 1_555 1_555
H33 C33 1_555 1_555
H36 C36 1_555 1_555
H41 C41 1_555 1_555
H42 C42 1_555 1_555
H43 C43 1_555 1_555
H44 C44 1_555 1_555
H45 C45 1_555 1_555
H46 C46 1_555 1_555
H47 C47 1_555 1_555
H48 C48 1_555 1_555
C31 N22 1_555 1_555
C32 N22 1_555 1_555
C40 N32 1_555 1_555
C41 N32 1_555 1_555
C43 N36 1_555 1_555
C46 N40 1_555 1_555
Zn15 N28_2 1_555 1_555
C30_2 N20_2 1_555 1_555
C37_2 N27_2 1_555 1_555
C38_2 C39_2 1_555 1_555
C39_2 N27_2 1_555 1_555
N20_2 Zn8 1_555 1_555
N27_2 Zn8 1_555 1_555
N28_2 C37_2 1_555 1_555
N31 Zn15 1_555 1_555
N34 Zn15 1_555 1_555
H30_2 C30_2 1_555 1_555
H37_2 C37_2 1_555 1_555
H38_2 C38_2 1_555 1_555
H39_2 C39_2 1_555 1_555
C38_2 N28_2 1_555 1_555
Zn5_2 N17_2 1_555 1_555
Zn14 N33 1_555 1_555
Zn16_2 N18_2 1_555 1_555
C25_2 N17_2 1_555 1_555
C26_2 C27_2 1_555 1_555
C27_2 N18_2 1_555 1_555
C28_2 N19_2 1_555 1_555
C31_2 N21_2 1_555 1_555
C32_2 C33_2 1_555 1_555
C33_2 N21_2 1_555 1_555
C34_2 N23_2 1_555 1_555
C35_2 C36_2 1_555 1_555
C36_2 N23_2 1_555 1_555
C40_2 N31 1_555 1_555
C41_2 C42_2 1_555 1_555
C42_2 N31 1_555 1_555
C43_2 N33 1_555 1_555
C44_2 C45_2 1_555 1_555
C45_2 N36_2 1_555 1_555
C46_2 N39 1_555 1_555
C47_2 C48_2 1_555 1_555
C48_2 N40_2 1_555 1_555
N17_2 C26_2 1_555 1_555
N18_2 C25_2 1_555 1_555
N19_2 Zn5_2 1_555 1_555
N21_2 Zn5_2 1_555 1_555
N23_2 Zn5_2 1_555 1_555
N26 C34_2 1_555 1_555
N32_2 Zn16_2 1_555 1_555
N33 C44_2 1_555 1_555
N36_2 Zn16_2 1_555 1_555
N39 C47_2 1_555 1_555
N40_2 Zn16_2 1_555 1_555
H25_2 C25_2 1_555 1_555
H26_2 C26_2 1_555 1_555
H27_2 C27_2 1_555 1_555
H28_2 C28_2 1_555 1_555
H29_2 C29_2 1_555 1_555
H31_2 C31_2 1_555 1_555
H32_2 C32_2 1_555 1_555
H33_2 C33_2 1_555 1_555
H34_2 C34_2 1_555 1_555
H35_2 C35_2 1_555 1_555
H36_2 C36_2 1_555 1_555
H40_2 C40_2 1_555 1_555
H41_2 C41_2 1_555 1_555
H42_2 C42_2 1_555 1_555
H43_2 C43_2 1_555 1_555
H44_2 C44_2 1_555 1_555
H45_2 C45_2 1_555 1_555
H46_2 C46_2 1_555 1_555
H48_2 C48_2 1_555 1_555
C29_2 N19_2 1_555 1_555
C31_2 N22_2 1_555 1_555
C32_2 N22_2 1_555 1_555
C35_2 N26 1_555 1_555
C40_2 N32_2 1_555 1_555
C41_2 N32_2 1_555 1_555
C43_2 N36_2 1_555 1_555
C46_2 N40_2 1_555 1_555
Zn1_2 N1_2 1_555 1_555
Zn4_2 N2_2 1_555 1_555
C1_2 N1_2 1_555 1_555
C2_2 C3_2 1_555 1_555
C3_2 N2_2 1_555 1_555
C4_2 N3_2 1_555 1_555
C7_2 N5_2 1_555 1_555
C8_2 C9_2 1_555 1_555
C9_2 N5_2 1_555 1_555
C10_2 N7_2 1_555 1_555
C11_2 C12_2 1_555 1_555
C12_2 N7_2 1_555 1_555
C16_2 N11 1_555 1_555
C17_2 C18_2 1_555 1_555
C18_2 N11 1_555 1_555
C19_2 N34 1_555 1_555
C20_2 C21_2 1_555 1_555
C21_2 N14_2 1_555 1_555
C22_2 N38 1_555 1_555
C23_2 C24_2 1_555 1_555
C24_2 N16_2 1_555 1_555
N1_2 C2_2 1_555 1_555
N2_2 C1_2 1_555 1_555
N3_2 Zn1_2 1_555 1_555
N5_2 Zn1_2 1_555 1_555
N6_2 C7_2 1_555 1_555
N7_2 Zn1_2 1_555 1_555
N25 C10_2 1_555 1_555
N11 Zn14 1_555 1_555
N12_2 Zn4_2 1_555 1_555
N34 C20_2 1_555 1_555
N14_2 Zn4_2 1_555 1_555
N38 C23_2 1_555 1_555
N16_2 Zn4_2 1_555 1_555
H1_2 C1_2 1_555 1_555
H2_2 C2_2 1_555 1_555
H3_2 C3_2 1_555 1_555
H4_2 C4_2 1_555 1_555
H5_2 C5_2 1_555 1_555
H7_2 C7_2 1_555 1_555
H8_2 C8_2 1_555 1_555
H9_2 C9_2 1_555 1_555
H10_2 C10_2 1_555 1_555
H11_2 C11_2 1_555 1_555
H12_2 C12_2 1_555 1_555
H16_2 C16_2 1_555 1_555
H17_2 C17_2 1_555 1_555
H18_2 C18_2 1_555 1_555
H19_2 C19_2 1_555 1_555
H20_2 C20_2 1_555 1_555
H21_2 C21_2 1_555 1_555
H22_2 C22_2 1_555 1_555
H24_2 C24_2 1_555 1_555
C5_2 N3_2 1_555 1_555
C8_2 N6_2 1_555 1_555
C11_2 N25 1_555 1_555
C16_2 N12_2 1_555 1_555
C17_2 N12_2 1_555 1_555
C19_2 N14_2 1_555 1_555
C22_2 N16_2 1_555 1_555
Zn7 N4_2 1_555 1_555
Zn14 N10_2 1_555 1_555
C6_2 N4_2 1_555 1_555
C13_2 N9_2 1_555 1_555
C14_2 C15_2 1_555 1_555
C15_2 N9_2 1_555 1_555
N9_2 Zn7 1_555 1_555
N10_2 C13_2 1_555 1_555
H6_2 C6_2 1_555 1_555
H13_2 C13_2 1_555 1_555
H14_2 C14_2 1_555 1_555
H15_2 C15_2 1_555 1_555
C14_2 N10_2 1_555 1_555

#END
