
###############################################################################
#
# This file contains modified crystal structure data generated from the
# MOF subset of the Cambridge Structural Database (CSD) v543 
# hosted by the Cambridge Crystallographic Data Centre (CCDC).
#
# This work is licensed under the Creative Commons
# Attribution-NonCommercial-ShareAlike 4.0 International License.
# To view a copy of this license, visit
# http://creativecommons.org/licenses/by-nc-sa/4.0/
# or send a letter to
# Creative Commons, PO Box 1866, Mountain View, CA 94042, USA.
#
# CIF created using the CSD Python API on 29 September 2022
# The structure has been converted into the P1 space group
# The structure has a 3D framework
# The original CSD entry VEJYEP is in the monoclinic crystal system
# The framework has been calculated to contain at least 10.0% void space
# The void calculation uses a probe of radius 1.32A, grid spacing 0.4
#
###############################################################################

data_VEJYEP
_chemical_formula_moiety         '(C48 H48 N32 Zn8)n'
_symmetry_cell_setting           triclinic
_symmetry_space_group_name_H-M   'P 1'
_symmetry_Int_Tables_number      1
_space_group_name_Hall           'P 1'
loop_
_symmetry_equiv_pos_site_id
_symmetry_equiv_pos_as_xyz
1 x,y,z
_cell_length_a                   9.7405(19)
_cell_length_b                   15.266(3)
_cell_length_c                   14.936(3)
_cell_angle_alpha                90
_cell_angle_beta                 98.62(3)
_cell_angle_gamma                90
_cell_volume                     2195.87
loop_
_atom_site_label
_atom_site_type_symbol
_atom_site_fract_x
_atom_site_fract_y
_atom_site_fract_z
Zn5 Zn 0.41547(2) 0.273947(12) 0.079480(13)
C4 C 0.6107(2) 0.18162(12) 0.51820(12)
H4 H 0.6036 0.2054 0.4596
C5 C 0.68632(18) 0.13613(11) 0.64793(11)
H5 H 0.7483 0.1223 0.7005
C6 C 0.04354(19) 0.04530(11) 0.61625(12)
C7 C 0.55590(18) 0.28158(11) 0.91618(13)
H7 H 0.6026 0.3339 0.9346
C8 C 0.1680(2) 0.01015(11) 0.65047(12)
C9 C 0.17558(18) 0.14622(11) 0.67618(11)
H9 H 0.2085 0.2020 0.6956
C10 C 0.50403(18) 0.14793(12) 0.55661(12)
H10 H 0.4106 0.1461 0.5293
C11 C 0.42709(17) 0.17049(11) 0.91013(12)
H11 H 0.3626 0.1291 0.9249
C12 C 0.56909(19) 0.23624(12) 0.84016(12)
H12 H 0.6256 0.2520 0.7970
N3 N 0.72772(13) 0.17526(8) 0.57785(9)
N4 N 0.04784(14) 0.13279(9) 0.63199(9)
N5 N 0.46551(13) 0.24006(9) 0.96133(9)
N6 N 0.25111(12) 0.07550(10) 0.69024(8)
N7 N 0.48714(14) 0.16439(9) 0.83677(9)
N8 N 0.55330(14) 0.11771(8) 0.63990(9)
Zn1 Zn 0.453172(19) 0.076070(13) 0.738978(13)
Zn3 Zn 0.91547(2) 0.226053(12) 0.579480(13)
N11 N 0.53449(13) 0.75994(9) 0.03867(9)
C1 C 0.53008(16) 0.90801(12) 0.84328(11)
H1 H 0.5166 0.9318 0.8994
C2 C 0.54922(19) 0.89866(12) 0.70551(12)
H2 H 0.5524 0.9119 0.6444
C3 C 0.5737(2) 0.81934(12) 0.74432(13)
H3 H 0.5962 0.7683 0.7145
H8 H 0.1929 0.9509 0.6473
N1 N 0.56081(13) 0.82495(9) 0.83356(9)
N2 N 0.51939(13) 0.95578(8) 0.76862(10)
Zn2 Zn 0.58453(2) 0.726053(12) 0.920520(13)
N9 N 0.77228(13) 0.67526(8) 0.92215(9)
N10 N 0.45216(14) 0.63279(9) 0.86801(9)
H6 H 0.9667 0.0142 0.5865
C6_2 C 0.45646(19) 0.54530(11) 0.88375(12)
H6_2 H 0.5333 0.5142 0.9135
C8_2 C 0.3320(2) 0.51015(11) 0.84953(12)
H8_2 H 0.3071 0.4509 0.8527
C9_2 C 0.32442(18) 0.64622(11) 0.82382(11)
H9_2 H 0.2915 0.7020 0.8044
H10_2 H 0.0894 0.6461 0.9707
C11_2 C 0.07291(17) 0.67049(11) 0.58987(12)
H11_2 H 0.1374 0.6291 0.5751
N5_2 N 0.03449(13) 0.74006(9) 0.53867(9)
N6_2 N 0.24889(12) 0.57550(10) 0.80976(8)
N7_2 N 0.01286(14) 0.66439(9) 0.66323(9)
Zn1_2 Zn 0.046828(19) 0.576070(13) 0.761022(13)
Zn5_2 Zn 0.08453(2) 0.773947(12) 0.420520(13)
C1_2 C 0.96992(16) 0.40801(12) 0.65672(11)
H1_2 H 0.9834 0.4318 0.6006
C2_2 C 0.95078(19) 0.39866(12) 0.79449(12)
H2_2 H 0.9476 0.4119 0.8556
C3_2 C 0.9263(2) 0.31934(12) 0.75568(13)
H3_2 H 0.9038 0.2683 0.7855
C4_2 C 0.8893(2) 0.68162(12) 0.98180(12)
C5_2 C 0.81368(18) 0.63613(11) 0.85207(11)
H5_2 H 0.7517 0.6223 0.7995
C7_2 C 0.94410(18) 0.78158(11) 0.58382(13)
H7_2 H 0.8974 0.8339 0.5654
C10_2 C 0.99597(18) 0.64793(12) 0.94339(12)
C12_2 C 0.93091(19) 0.73624(12) 0.65984(12)
H12_2 H 0.8744 0.7520 0.7030
N1_2 N 0.93919(13) 0.32495(9) 0.66644(9)
N2_2 N 0.98061(13) 0.45578(8) 0.73138(10)
N8_2 N 0.94670(14) 0.61771(8) 0.86010(9)
N11_2 N 0.96551(13) 0.25994(9) 0.46133(9)
H6_3 H 0.0333 0.9858 0.4135
C1_3 C 0.46992(16) 0.09199(12) 0.15672(11)
H1_3 H 0.4834 0.0682 0.1006
C2_3 C 0.45078(19) 0.10134(12) 0.29449(12)
H2_3 H 0.4476 0.0881 0.3556
C3_3 C 0.4263(2) 0.18066(12) 0.25568(13)
H3_3 H 0.4038 0.2317 0.2855
H8_3 H 0.8071 0.0491 0.3527
N1_3 N 0.43919(13) 0.17505(9) 0.16644(9)
N2_3 N 0.48061(13) 0.04422(8) 0.23138(10)
N9_2 N 0.22772(13) 0.32474(8) 0.07785(9)
N10_2 N 0.54784(14) 0.36721(9) 0.13199(9)
C4_3 C 0.3893(2) 0.81838(12) 0.48180(12)
H4_2 H 0.3964 0.7946 0.5404
C5_3 C 0.31368(18) 0.86387(11) 0.35207(11)
H5_3 H 0.2517 0.8777 0.2995
C6_3 C 0.95646(19) 0.95470(11) 0.38375(12)
C7_3 C 0.44410(18) 0.71842(11) 0.08382(13)
H7_3 H 0.3974 0.6661 0.0654
C8_3 C 0.8320(2) 0.98985(11) 0.34953(12)
C9_3 C 0.82442(18) 0.85378(11) 0.32382(11)
H9_3 H 0.7915 0.7980 0.3044
C10_3 C 0.49597(18) 0.85207(12) 0.44339(12)
H10_3 H 0.5894 0.8539 0.4707
C11_3 C 0.57291(17) 0.82951(11) 0.08987(12)
H11_3 H 0.6374 0.8709 0.0751
C12_3 C 0.43091(19) 0.76376(12) 0.15984(12)
H12_3 H 0.3744 0.7480 0.2030
N3_2 N 0.27228(13) 0.82474(8) 0.42215(9)
N4_2 N 0.95216(14) 0.86721(9) 0.36801(9)
N6_3 N 0.74889(12) 0.92450(10) 0.30976(8)
N7_3 N 0.51286(14) 0.83561(9) 0.16323(9)
N8_3 N 0.44670(14) 0.88229(8) 0.36010(9)
Zn1_3 Zn 0.546828(19) 0.923930(13) 0.261022(13)
C1_4 C 0.03008(16) 0.59199(12) 0.34328(11)
H1_4 H 0.0166 0.5682 0.3994
C2_4 C 0.04922(19) 0.60134(12) 0.20551(12)
H2_4 H 0.0524 0.5881 0.1444
C3_4 C 0.0737(2) 0.68066(12) 0.24432(13)
H3_4 H 0.0962 0.7317 0.2145
C4_4 C 0.1107(2) 0.31838(12) 0.01820(12)
C5_4 C 0.18632(18) 0.36387(11) 0.14793(11)
H5_4 H 0.2483 0.3777 0.2005
C7_4 C 0.05590(18) 0.21842(11) 0.41618(13)
H7_4 H 0.1026 0.1661 0.4346
C10_4 C 0.00403(18) 0.35207(12) 0.05661(12)
C12_4 C 0.06909(19) 0.26376(12) 0.34016(12)
H12_4 H 0.1256 0.2480 0.2970
N1_4 N 0.06081(13) 0.67505(9) 0.33356(9)
N2_4 N 0.01939(13) 0.54422(8) 0.26862(10)
N8_4 N 0.05330(14) 0.38229(8) 0.13990(9)
C6_4 C 0.54354(19) 0.45470(11) 0.11625(12)
H6_4 H 0.4667 0.4858 0.0865
C8_4 C 0.6680(2) 0.48985(11) 0.15047(12)
H8_4 H 0.6929 0.5491 0.1473
C9_4 C 0.67558(18) 0.35378(11) 0.17618(11)
H9_4 H 0.7085 0.2980 0.1956
H10_4 H 0.9106 0.3539 0.0293
C11_4 C 0.92709(17) 0.32951(11) 0.41013(12)
H11_4 H 0.8626 0.3709 0.4249
N6_4 N 0.75111(12) 0.42450(10) 0.19024(8)
N7_4 N 0.98714(14) 0.33561(9) 0.33677(9)
Zn1_4 Zn 0.953172(19) 0.423930(13) 0.238978(13)
H4_3 H 0.8964 0.7054 0.0404
H4_4 H 0.1036 0.2946 0.9596
loop_
_geom_bond_atom_site_label_1
_geom_bond_atom_site_label_2
_geom_bond_site_symmetry_1
_geom_bond_site_symmetry_2
C4 H4 1_555 1_555
C5 H5 1_555 1_555
C7 H7 1_555 1_555
C8 C6 1_555 1_555
C9 H9 1_555 1_555
C10 C4 1_555 1_555
H10 C10 1_555 1_555
C11 H11 1_555 1_555
C12 C7 1_555 1_555
H12 C12 1_555 1_555
N3 C4 1_555 1_555
N4 C6 1_555 1_555
N5 C7 1_555 1_555
N6 C8 1_555 1_555
N7 C11 1_555 1_555
N8 C5 1_555 1_555
Zn3 N3 1_555 1_555
C5 N3 1_555 1_555
C9 N4 1_555 1_555
C9 N6 1_555 1_555
C10 N8 1_555 1_555
C11 N5 1_555 1_555
C12 N7 1_555 1_555
N6 Zn1 1_555 1_555
N7 Zn1 1_555 1_555
N8 Zn1 1_555 1_555
C1 H1 1_555 1_555
C2 H2 1_555 1_555
C3 C2 1_555 1_555
H3 C3 1_555 1_555
N1 C1 1_555 1_555
N2 C1 1_555 1_555
Zn2 N1 1_555 1_555
N9 Zn2 1_555 1_555
N10 Zn2 1_555 1_555
C2 N2 1_555 1_555
C3 N1 1_555 1_555
C6_2 H6_2 1_555 1_555
C8_2 C6_2 1_555 1_555
H8_2 C8_2 1_555 1_555
C9_2 H9_2 1_555 1_555
C11_2 H11_2 1_555 1_555
N10 C6_2 1_555 1_555
N6_2 C8_2 1_555 1_555
N7_2 C11_2 1_555 1_555
Zn5_2 N5_2 1_555 1_555
C9_2 N10 1_555 1_555
C9_2 N6_2 1_555 1_555
C11_2 N5_2 1_555 1_555
N6_2 Zn1_2 1_555 1_555
N7_2 Zn1_2 1_555 1_555
C1_2 H1_2 1_555 1_555
C2_2 H2_2 1_555 1_555
C3_2 C2_2 1_555 1_555
H3_2 C3_2 1_555 1_555
C5_2 H5_2 1_555 1_555
C7_2 H7_2 1_555 1_555
C10_2 C4_2 1_555 1_555
C12_2 C7_2 1_555 1_555
H12_2 C12_2 1_555 1_555
N1_2 C1_2 1_555 1_555
N2_2 C1_2 1_555 1_555
N9 C4_2 1_555 1_555
N8_2 C5_2 1_555 1_555
Zn3 N1_2 1_555 1_555
N11_2 Zn3 1_555 1_555
C2_2 N2_2 1_555 1_555
C3_2 N1_2 1_555 1_555
C5_2 N9 1_555 1_555
C10_2 N8_2 1_555 1_555
C1_3 H1_3 1_555 1_555
C2_3 H2_3 1_555 1_555
C3_3 C2_3 1_555 1_555
H3_3 C3_3 1_555 1_555
N1_3 C1_3 1_555 1_555
N2_3 C1_3 1_555 1_555
Zn5 N1_3 1_555 1_555
N9_2 Zn5 1_555 1_555
N10_2 Zn5 1_555 1_555
C2_3 N2_3 1_555 1_555
C3_3 N1_3 1_555 1_555
C4_3 H4_2 1_555 1_555
C5_3 H5_3 1_555 1_555
C7_3 H7_3 1_555 1_555
C8_3 C6_3 1_555 1_555
C9_3 H9_3 1_555 1_555
C10_3 C4_3 1_555 1_555
H10_3 C10_3 1_555 1_555
C11_3 H11_3 1_555 1_555
C12_3 C7_3 1_555 1_555
H12_3 C12_3 1_555 1_555
N3_2 C4_3 1_555 1_555
N4_2 C6_3 1_555 1_555
N11 C7_3 1_555 1_555
N6_3 C8_3 1_555 1_555
N7_3 C11_3 1_555 1_555
N8_3 C5_3 1_555 1_555
Zn5_2 N3_2 1_555 1_555
C5_3 N3_2 1_555 1_555
C9_3 N4_2 1_555 1_555
C9_3 N6_3 1_555 1_555
C10_3 N8_3 1_555 1_555
C11_3 N11 1_555 1_555
C12_3 N7_3 1_555 1_555
N6_3 Zn1_3 1_555 1_555
N7_3 Zn1_3 1_555 1_555
N8_3 Zn1_3 1_555 1_555
C1_4 H1_4 1_555 1_555
C2_4 H2_4 1_555 1_555
C3_4 C2_4 1_555 1_555
H3_4 C3_4 1_555 1_555
C5_4 H5_4 1_555 1_555
C7_4 H7_4 1_555 1_555
C10_4 C4_4 1_555 1_555
C12_4 C7_4 1_555 1_555
H12_4 C12_4 1_555 1_555
N1_4 C1_4 1_555 1_555
N2_4 C1_4 1_555 1_555
N9_2 C4_4 1_555 1_555
N8_4 C5_4 1_555 1_555
Zn5_2 N1_4 1_555 1_555
C2_4 N2_4 1_555 1_555
C3_4 N1_4 1_555 1_555
C5_4 N9_2 1_555 1_555
C10_4 N8_4 1_555 1_555
C6_4 H6_4 1_555 1_555
C8_4 C6_4 1_555 1_555
H8_4 C8_4 1_555 1_555
C9_4 H9_4 1_555 1_555
C11_4 H11_4 1_555 1_555
N10_2 C6_4 1_555 1_555
N6_4 C8_4 1_555 1_555
N7_4 C11_4 1_555 1_555
C9_4 N10_2 1_555 1_555
C9_4 N6_4 1_555 1_555
C11_4 N11_2 1_555 1_555
N6_4 Zn1_4 1_555 1_555
N7_4 Zn1_4 1_555 1_555

#END
