
###############################################################################
#
# This file contains modified crystal structure data generated from the
# MOF subset of the Cambridge Structural Database (CSD) v543 
# hosted by the Cambridge Crystallographic Data Centre (CCDC).
#
# This work is licensed under the Creative Commons
# Attribution-NonCommercial-ShareAlike 4.0 International License.
# To view a copy of this license, visit
# http://creativecommons.org/licenses/by-nc-sa/4.0/
# or send a letter to
# Creative Commons, PO Box 1866, Mountain View, CA 94042, USA.
#
# CIF created using the CSD Python API on 29 September 2022
# The structure has been converted into the P1 space group
# The structure has a 3D framework
# The original CSD entry VEJZEQ is in the rhombohedral crystal system
# The framework has been calculated to contain at least 10.0% void space
# The void calculation uses a probe of radius 1.32A, grid spacing 0.4
#
###############################################################################

data_VEJZEQ
_chemical_formula_moiety         '(C252 H184 Co18 N72)n'
_symmetry_cell_setting           triclinic
_symmetry_space_group_name_H-M   'P 1'
_symmetry_Int_Tables_number      1
_space_group_name_Hall           'P 1'
loop_
_symmetry_equiv_pos_site_id
_symmetry_equiv_pos_as_xyz
1 x,y,z
_cell_length_a                   22.9437(16)
_cell_length_b                   22.9437(16)
_cell_length_c                   15.747(2)
_cell_angle_alpha                90
_cell_angle_beta                 90
_cell_angle_gamma                120
_cell_volume                     7178.86
loop_
_atom_site_label
_atom_site_type_symbol
_atom_site_fract_x
_atom_site_fract_y
_atom_site_fract_z
C1 C 0.3294(4) 0.0288(4) 0.1756(4)
H1 H 0.3333 0.0710 0.1714
C5 C 0.3926(4) 0.2006(4) 0.3394(4)
H4 H 0.3659 0.1891 0.3878
C6 C 0.4522(4) 0.1957(4) 0.2377(5)
C7 C 0.4870(4) 0.1794(4) 0.1800(5)
H5 H 0.4863 0.1385 0.1829
C8 C 0.5228(6) 0.2258(5) 0.1181(7)
H6 H 0.5476 0.2167 0.0789
C9 C 0.4524(4) 0.2567(4) 0.2328(4)
C10 C 0.4887(5) 0.3038(5) 0.1702(6)
H7 H 0.4899 0.3448 0.1672
C11 C 0.5226(6) 0.2864(6) 0.1129(7)
H8 H 0.5463 0.3162 0.0692
Co1 Co 0.39885(5) 0.07006(5) 0.34075(6)
N1 N 0.3526(3) 0.0112(3) 0.2427(4)
N2 N 0.4124(3) 0.1597(3) 0.3063(4)
N3 N 0.4129(3) 0.2583(3) 0.2999(4)
C15 C 0.3661(6) 0.0039(4) 0.5089(4)
H11 H 0.4044 0.0000 0.5047
C18 C 0.1791(6) 0.0063(5) 0.5678(7)
C19 C 0.5253(6) 0.0593(4) 0.3273(4)
H14 H 0.5101 0.0326 0.2789
C20 C 0.5898(6) 0.1189(4) 0.4290(5)
C21 C 0.6409(6) 0.1537(4) 0.4867(5)
H15 H 0.6811 0.1530 0.4838
C22 C 0.6303(8) 0.1895(6) 0.5486(7)
H16 H 0.6642 0.2143 0.5878
C23 C 0.5290(6) 0.1191(4) 0.4339(4)
C24 C 0.5182(7) 0.1554(5) 0.4965(6)
H17 H 0.4784 0.1566 0.4995
C25 C 0.5695(8) 0.1893(6) 0.5538(7)
H18 H 0.5634 0.2130 0.5975
C26 C 0.2904(5) 0.0293(4) 0.4787(5)
C27 C 0.2482(6) 0.0496(4) 0.4439(6)
H19 H 0.2572 0.0705 0.3911
C28 C 0.1924(6) 0.0381(4) 0.4897(7)
H20 H 0.1634 0.0517 0.4681
Co3 Co 0.66212(7) 0.06552(5) 0.32592(6)
Co4 Co 0.40339(5) 0.33788(7) 0.32592(6)
N7 N 0.5860(4) 0.0791(3) 0.3604(4)
N9 N 0.4879(4) 0.0796(3) 0.3668(4)
N10 N 0.2538(3) 0.0750(3) 0.0334(4)
N11 N 0.3488(4) 0.0329(3) 0.4482(3)
N6 N 0.3221(3) 0.0081(4) 0.9094(4)
C2 C 0.3367(3) 0.9456(3) 0.2234(5)
C3 C 0.3476(4) 0.9006(4) 0.2714(5)
H2 H 0.3675 0.9117 0.3249
C4 C 0.3270(5) 0.8394(4) 0.2345(7)
H3 H 0.3346 0.8085 0.2635
C12 C 0.3040(4) 0.9277(3) 0.1454(5)
C13 C 0.2837(4) 0.8652(4) 0.1106(6)
H9 H 0.2628 0.8533 0.0578
C14 C 0.2952(4) 0.8209(5) 0.1564(7)
H10 H 0.2816 0.7783 0.1348
N4 N 0.3004(3) 0.9825(3) 0.1149(3)
H11_2 H 0.4044 1.0000 0.5047
C16 C 0.2756(4) 0.9966(3) 0.5567(5)
C17 C 0.2197(6) 0.9857(4) 0.6047(5)
H12 H 0.2109 0.9658 0.6582
H13 H 0.1406 0.9987 0.5968
Co2 Co 0.33788(7) 0.93448(5) 0.67408(6)
Co5 Co 0.26327(5) 0.99546(7) 0.00742(6)
N5 N 0.3253(4) 0.9807(3) 0.5760(4)
N8 N 0.1736(3) 0.9194(4) 0.9730(4)
C2_2 C 0.0544(3) 0.3911(4) 0.2234(5)
C3_2 C 0.0994(4) 0.4470(6) 0.2714(5)
H2_2 H 0.0883 0.4558 0.3249
C4_2 C 0.1606(4) 0.4876(6) 0.2345(7)
H3_2 H 0.1915 0.5261 0.2635
C12_2 C 0.0723(3) 0.3763(5) 0.1454(5)
C13_2 C 0.1348(4) 0.4185(6) 0.1106(6)
H9_2 H 0.1467 0.4095 0.0578
C14_2 C 0.1791(5) 0.4743(6) 0.1564(7)
H10_2 H 0.2217 0.5033 0.1348
N4_2 N 0.0175(3) 0.3179(4) 0.1149(3)
H11_3 H -0.0000 0.4043 0.5047
C16_2 C 0.0034(3) 0.2789(5) 0.5567(5)
C17_2 C 0.0143(4) 0.2339(7) 0.6047(5)
H12_2 H 0.0342 0.2450 0.6582
H13_2 H 0.0013 0.1418 0.5968
Co2_2 Co 0.06552(5) 0.40339(9) 0.67408(6)
Co5_2 Co 0.00454(7) 0.26782(9) 0.00742(6)
N5_2 N 0.0193(3) 0.3445(5) 0.5760(4)
N8_2 N 0.0806(4) 0.2543(5) 0.9730(4)
C1_2 C 0.9712(4) 0.3006(6) 0.1756(4)
H1_2 H 0.9290 0.2623 0.1714
C5_2 C 0.7994(4) 0.1920(6) 0.3394(4)
H4_2 H 0.8109 0.1768 0.3878
C6_2 C 0.8043(4) 0.2565(6) 0.2377(5)
C7_2 C 0.8206(4) 0.3076(6) 0.1800(5)
H5_2 H 0.8615 0.3478 0.1829
C8_2 C 0.7742(5) 0.2970(8) 0.1181(7)
H6_2 H 0.7833 0.3309 0.0789
C9_2 C 0.7433(4) 0.1957(6) 0.2328(4)
C10_2 C 0.6962(5) 0.1849(7) 0.1702(6)
H7_2 H 0.6552 0.1451 0.1672
C11_2 C 0.7136(6) 0.2362(8) 0.1129(7)
H8_2 H 0.6838 0.2301 0.0692
Co1_2 Co 0.92994(5) 0.32879(7) 0.34075(6)
N1_2 N 0.9888(3) 0.3414(4) 0.2427(4)
N2_2 N 0.8403(3) 0.2527(4) 0.3063(4)
N3_2 N 0.7417(3) 0.1546(4) 0.2999(4)
C15_2 C 0.9961(4) 0.3621(7) 0.5089(4)
H11_4 H 1.0000 0.4043 0.5047
C18_2 C 0.9937(5) 0.1727(8) 0.5678(7)
C19_2 C 0.9407(4) 0.4661(7) 0.3273(4)
H14_2 H 0.9674 0.4776 0.2789
C20_2 C 0.8811(4) 0.4710(7) 0.4290(5)
C21_2 C 0.8463(4) 0.4873(7) 0.4867(5)
H15_2 H 0.8470 0.5282 0.4838
C22_2 C 0.8105(6) 0.4409(10) 0.5486(7)
H16_2 H 0.7857 0.4500 0.5878
C23_2 C 0.8809(4) 0.4100(7) 0.4339(4)
C24_2 C 0.8446(5) 0.3629(9) 0.4965(6)
H17_2 H 0.8434 0.3219 0.4995
C25_2 C 0.8107(6) 0.3803(10) 0.5538(7)
H18_2 H 0.7870 0.3505 0.5975
C26_2 C 0.9707(4) 0.2610(6) 0.4787(5)
C27_2 C 0.9504(4) 0.1985(7) 0.4439(6)
H19_2 H 0.9295 0.1866 0.3911
C28_2 C 0.9619(4) 0.1542(7) 0.4897(7)
H20_2 H 0.9483 0.1116 0.4681
Co3_2 Co 0.93448(5) 0.59661(9) 0.32592(6)
N7_2 N 0.9209(3) 0.5070(5) 0.3604(4)
N9_2 N 0.9204(3) 0.4084(5) 0.3668(4)
N10_2 N 0.9250(3) 0.1787(4) 0.0334(4)
N11_2 N 0.9671(3) 0.3158(5) 0.4482(3)
N6_2 N 0.9919(4) 0.3141(5) 0.9094(4)
C1_3 C 0.6994(6) 0.6706(4) 0.1756(4)
H1_3 H 0.7377 0.6667 0.1714
C2_3 C 0.6089(4) 0.6633(3) 0.2234(5)
C3_3 C 0.5530(6) 0.6524(4) 0.2714(5)
H2_3 H 0.5442 0.6325 0.3249
C4_3 C 0.5124(6) 0.6730(5) 0.2345(7)
H3_3 H 0.4739 0.6654 0.2635
C5_3 C 0.8080(6) 0.6074(4) 0.3394(4)
H4_3 H 0.8232 0.6341 0.3878
C6_3 C 0.7435(6) 0.5478(4) 0.2377(5)
C7_3 C 0.6924(6) 0.5130(4) 0.1800(5)
H5_3 H 0.6522 0.5137 0.1829
C8_3 C 0.7030(8) 0.4772(6) 0.1181(7)
H6_3 H 0.6691 0.4524 0.0789
C9_3 C 0.8043(6) 0.5476(4) 0.2328(4)
C10_3 C 0.8151(7) 0.5113(5) 0.1702(6)
H7_3 H 0.8549 0.5101 0.1672
C11_3 C 0.7638(8) 0.4774(6) 0.1129(7)
H8_3 H 0.7699 0.4537 0.0692
C12_3 C 0.6237(5) 0.6960(4) 0.1454(5)
C13_3 C 0.5815(6) 0.7163(4) 0.1106(6)
H9_3 H 0.5905 0.7372 0.0578
C14_3 C 0.5257(6) 0.7048(4) 0.1564(7)
H10_3 H 0.4967 0.7184 0.1348
Co1_3 Co 0.67121(7) 0.60115(5) 0.34075(6)
N1_3 N 0.6586(4) 0.6474(3) 0.2427(4)
N2_3 N 0.7473(4) 0.5876(3) 0.3063(4)
N3_3 N 0.8454(4) 0.5871(3) 0.2999(4)
N4_3 N 0.6821(4) 0.6996(3) 0.1149(3)
C15_3 C 0.6379(7) 0.6339(6) 0.5089(4)
H11_5 H 0.5957 0.5956 0.5047
C16_3 C 0.7211(5) 0.7244(4) 0.5567(5)
C17_3 C 0.7661(7) 0.7803(6) 0.6047(5)
H12_3 H 0.7550 0.7891 0.6582
C18_3 C 0.8273(8) 0.8209(6) 0.5678(7)
H13_3 H 0.8582 0.8594 0.5968
C19_3 C 0.5339(7) 0.4747(6) 0.3273(4)
H14_3 H 0.5224 0.4899 0.2789
C20_3 C 0.5290(7) 0.4102(6) 0.4290(5)
C21_3 C 0.5127(7) 0.3591(6) 0.4867(5)
H15_3 H 0.4718 0.3189 0.4838
C22_3 C 0.5591(10) 0.3697(8) 0.5486(7)
H16_3 H 0.5500 0.3358 0.5878
C23_3 C 0.5900(7) 0.4710(6) 0.4339(4)
C24_3 C 0.6371(9) 0.4818(7) 0.4965(6)
H17_3 H 0.6781 0.5216 0.4995
C25_3 C 0.6197(10) 0.4305(8) 0.5538(7)
H18_3 H 0.6495 0.4366 0.5975
C26_3 C 0.7390(6) 0.7096(5) 0.4787(5)
C27_3 C 0.8015(7) 0.7518(6) 0.4439(6)
H19_3 H 0.8134 0.7428 0.3911
C28_3 C 0.8458(7) 0.8076(6) 0.4897(7)
H20_3 H 0.8884 0.8366 0.4681
Co2_3 Co 0.59661(9) 0.66212(7) 0.67408(6)
Co5_3 Co 0.73218(9) 0.73673(5) 0.00742(6)
N5_3 N 0.6555(5) 0.6747(4) 0.5760(4)
N7_3 N 0.4930(5) 0.4140(4) 0.3604(4)
N9_3 N 0.5916(5) 0.5121(4) 0.3668(4)
N10_3 N 0.8213(4) 0.7462(3) 0.0334(4)
N11_3 N 0.6842(5) 0.6512(4) 0.4482(3)
N6_3 N 0.6859(5) 0.6779(3) 0.9094(4)
N8_3 N 0.7457(5) 0.8264(3) 0.9730(4)
C5_4 C 0.0593(4) 0.5339(4) 0.6727(4)
H4_4 H 0.0326 0.5224 0.7211
C6_4 C 0.1189(4) 0.5290(4) 0.5710(5)
C7_4 C 0.1537(4) 0.5127(4) 0.5133(5)
H5_4 H 0.1530 0.4718 0.5162
C8_4 C 0.1895(6) 0.5591(5) 0.4514(7)
H6_4 H 0.2143 0.5500 0.4122
C9_4 C 0.1191(4) 0.5900(4) 0.5661(4)
C10_4 C 0.1554(5) 0.6371(5) 0.5035(6)
H7_4 H 0.1566 0.6781 0.5005
C11_4 C 0.1893(6) 0.6197(6) 0.4462(7)
H8_4 H 0.2130 0.6495 0.4025
N2_4 N 0.0791(3) 0.4930(3) 0.6396(4)
N3_4 N 0.0796(3) 0.5916(3) 0.6332(4)
C15_4 C 0.0327(6) 0.3373(4) 0.8423(4)
H11_6 H 0.0710 0.3334 0.8381
C19_4 C 0.1920(6) 0.3926(4) 0.6606(4)
H14_4 H 0.1768 0.3659 0.6122
C20_4 C 0.2565(6) 0.4522(4) 0.7623(5)
C21_4 C 0.3076(6) 0.4870(4) 0.8200(5)
H15_4 H 0.3478 0.4863 0.8171
C22_4 C 0.2970(8) 0.5228(6) 0.8819(7)
H16_4 H 0.3309 0.5476 0.9211
C23_4 C 0.1957(6) 0.4524(4) 0.7672(4)
C24_4 C 0.1849(7) 0.4887(5) 0.8298(6)
H17_4 H 0.1451 0.4899 0.8328
C25_4 C 0.2362(8) 0.5226(6) 0.8871(7)
H18_4 H 0.2301 0.5463 0.9308
Co3_3 Co 0.32879(7) 0.39885(5) 0.65925(6)
Co4_2 Co 0.07006(5) 0.67121(7) 0.65925(6)
N7_4 N 0.2527(4) 0.4124(3) 0.6937(4)
N9_4 N 0.1546(4) 0.4129(3) 0.7001(4)
N11_4 N 0.0154(4) 0.3663(3) 0.7816(3)
C16_4 C 0.9422(4) 0.3300(3) 0.8901(5)
C17_4 C 0.8863(6) 0.3191(4) 0.9381(5)
H12_4 H 0.8775 0.2992 0.9916
C18_4 C 0.8457(6) 0.3397(5) 0.9012(7)
H13_4 H 0.8072 0.3321 0.9302
C26_4 C 0.9570(5) 0.3627(4) 0.8121(5)
C27_4 C 0.9148(6) 0.3830(4) 0.7773(6)
H19_4 H 0.9238 0.4039 0.7245
C28_4 C 0.8590(6) 0.3715(4) 0.8231(7)
H20_4 H 0.8300 0.3851 0.8015
C5_5 C 0.4661(4) 0.5253(6) 0.6727(4)
H4_5 H 0.4776 0.5101 0.7211
C6_5 C 0.4710(4) 0.5898(6) 0.5710(5)
C7_5 C 0.4873(4) 0.6409(6) 0.5133(5)
H5_5 H 0.5282 0.6811 0.5162
C8_5 C 0.4409(5) 0.6303(8) 0.4514(7)
H6_5 H 0.4500 0.6642 0.4122
C9_5 C 0.4100(4) 0.5290(6) 0.5661(4)
C10_5 C 0.3629(5) 0.5182(7) 0.5035(6)
H7_5 H 0.3219 0.4784 0.5005
C11_5 C 0.3803(6) 0.5695(8) 0.4462(7)
H8_5 H 0.3505 0.5634 0.4025
N2_5 N 0.5070(3) 0.5860(4) 0.6396(4)
N3_5 N 0.4084(3) 0.4879(4) 0.6332(4)
C15_5 C 0.6627(4) 0.6955(7) 0.8423(4)
H11_7 H 0.6666 0.7377 0.8381
C16_5 C 0.6700(3) 0.6123(5) 0.8901(5)
C17_5 C 0.6809(4) 0.5673(7) 0.9381(5)
H12_5 H 0.7008 0.5784 0.9916
C18_5 C 0.6603(5) 0.5061(8) 0.9012(7)
H13_5 H 0.6679 0.4752 0.9302
C19_5 C 0.6074(4) 0.7994(7) 0.6606(4)
H14_5 H 0.6341 0.8109 0.6122
C20_5 C 0.5478(4) 0.8043(7) 0.7623(5)
C21_5 C 0.5130(4) 0.8206(7) 0.8200(5)
H15_5 H 0.5137 0.8615 0.8171
C22_5 C 0.4772(6) 0.7742(10) 0.8819(7)
H16_5 H 0.4524 0.7833 0.9211
C23_5 C 0.5476(4) 0.7433(7) 0.7672(4)
C24_5 C 0.5113(5) 0.6962(9) 0.8298(6)
H17_5 H 0.5101 0.6552 0.8328
C25_5 C 0.4774(6) 0.7136(10) 0.8871(7)
H18_5 H 0.4537 0.6838 0.9308
C26_5 C 0.6373(4) 0.5944(6) 0.8121(5)
C27_5 C 0.6170(4) 0.5319(7) 0.7773(6)
H19_5 H 0.5961 0.5200 0.7245
C28_5 C 0.6285(4) 0.4876(7) 0.8231(7)
H20_5 H 0.6149 0.4450 0.8015
Co3_4 Co 0.60115(5) 0.92994(9) 0.65925(6)
N7_5 N 0.5876(3) 0.8403(5) 0.6937(4)
N9_5 N 0.5871(3) 0.7417(5) 0.7001(4)
N11_5 N 0.6337(3) 0.6492(5) 0.7816(3)
C16_6 C 0.3877(5) 0.0578(4) 0.8901(5)
C17_6 C 0.4327(7) 0.1137(6) 0.9381(5)
H12_6 H 0.4216 0.1225 0.9916
C18_6 C 0.4939(8) 0.1543(6) 0.9012(7)
H13_6 H 0.5248 0.1928 0.9302
C26_6 C 0.4056(6) 0.0430(5) 0.8121(5)
C27_6 C 0.4681(7) 0.0852(6) 0.7773(6)
H19_6 H 0.4800 0.0762 0.7245
C28_6 C 0.5124(7) 0.1410(6) 0.8231(7)
H20_6 H 0.5550 0.1700 0.8015
C5_6 C 0.4747(6) 0.9407(4) 0.6727(4)
H4_6 H 0.4899 0.9674 0.7211
C6_6 C 0.4102(6) 0.8811(4) 0.5710(5)
C7_6 C 0.3591(6) 0.8463(4) 0.5133(5)
H5_6 H 0.3189 0.8470 0.5162
C8_6 C 0.3697(8) 0.8105(6) 0.4514(7)
H6_6 H 0.3358 0.7857 0.4122
C9_6 C 0.4710(6) 0.8809(4) 0.5661(4)
C10_6 C 0.4818(7) 0.8446(5) 0.5035(6)
H7_6 H 0.5216 0.8434 0.5005
C11_6 C 0.4305(8) 0.8107(6) 0.4462(7)
H8_6 H 0.4366 0.7870 0.4025
N2_6 N 0.4140(4) 0.9209(3) 0.6396(4)
N3_6 N 0.5121(4) 0.9204(3) 0.6332(4)
C15_6 C 0.3045(7) 0.9673(6) 0.8423(4)
H11_8 H 0.2623 0.9290 0.8381
C19_6 C 0.2006(7) 0.8080(6) 0.6606(4)
H14_6 H 0.1891 0.8232 0.6122
C20_6 C 0.1957(7) 0.7435(6) 0.7623(5)
C21_6 C 0.1794(7) 0.6924(6) 0.8200(5)
H15_6 H 0.1385 0.6522 0.8171
C22_6 C 0.2258(10) 0.7030(8) 0.8819(7)
H16_6 H 0.2167 0.6691 0.9211
C23_6 C 0.2567(7) 0.8043(6) 0.7672(4)
C24_6 C 0.3038(9) 0.8151(7) 0.8298(6)
H17_6 H 0.3448 0.8549 0.8328
C25_6 C 0.2864(10) 0.7638(8) 0.8871(7)
H18_6 H 0.3162 0.7699 0.9308
N7_6 N 0.1597(5) 0.7473(4) 0.6937(4)
N9_6 N 0.2583(5) 0.8454(4) 0.7001(4)
N11_6 N 0.3508(5) 0.9846(4) 0.7816(3)
H15_7 H 0.0145 0.8196 0.1504
H7_7 H 0.8232 0.0115 0.8339
Co4_3 Co 0.73673(5) 0.00454(7) 0.99258(6)
C5_7 C 0.7259(4) 0.8673(4) 0.0061(4)
H4_7 H 0.6992 0.8558 0.0545
C20_7 C 0.9232(6) 0.7855(4) 0.0956(5)
C21_7 C 0.9743(6) 0.8203(4) 0.1533(5)
C22_7 C 0.9637(8) 0.8561(6) 0.2152(7)
H16_7 H 0.9976 0.8809 0.2544
C23_7 C 0.8624(6) 0.7857(4) 0.1005(4)
C24_7 C 0.8516(7) 0.8220(5) 0.1631(6)
H17_7 H 0.8118 0.8232 0.1661
C25_7 C 0.9029(8) 0.8559(6) 0.2204(7)
H18_7 H 0.8968 0.8796 0.2641
N7_7 N 0.9194(4) 0.7457(3) 0.0270(4)
C6_7 C 0.7855(4) 0.8624(4) 0.9044(5)
C7_7 C 0.8203(4) 0.8461(4) 0.8467(5)
H5_7 H 0.8196 0.8052 0.8496
C8_7 C 0.8561(6) 0.8925(5) 0.7848(7)
H6_7 H 0.8809 0.8834 0.7456
C9_7 C 0.7857(4) 0.9234(4) 0.8995(4)
C10_7 C 0.8220(5) 0.9705(5) 0.8369(6)
C11_7 C 0.8559(6) 0.9531(6) 0.7796(7)
H8_7 H 0.8796 0.9829 0.7359
N3_7 N 0.7462(3) 0.9250(3) 0.9666(4)
C19_7 C 0.8587(6) 0.7259(4) 0.9939(4)
H14_7 H 0.8435 0.6992 0.9455
Co3_5 Co 0.99546(7) 0.73218(5) 0.99258(6)
C20_8 C 0.2145(4) 0.1376(7) 0.0956(5)
C21_8 C 0.1797(4) 0.1539(7) 0.1533(5)
H15_8 H 0.1804 0.1948 0.1504
C22_8 C 0.1439(6) 0.1075(10) 0.2152(7)
H16_8 H 0.1191 0.1166 0.2544
C23_8 C 0.2143(4) 0.0766(7) 0.1005(4)
C24_8 C 0.1780(5) 0.0295(9) 0.1631(6)
C25_8 C 0.1441(6) 0.0469(10) 0.2204(7)
H18_8 H 0.1204 0.0171 0.2641
N7_8 N 0.2543(3) 0.1736(5) 0.0270(4)
H5_8 H 0.1948 0.0145 0.8496
C19_8 C 0.2741(4) 0.1327(7) 0.9939(4)
H14_8 H 0.3008 0.1442 0.9455
Co3_6 Co 0.26782(5) 0.26327(9) 0.99258(6)
C5_8 C 0.1327(4) 0.8587(6) 0.0061(4)
H4_8 H 0.1442 0.8435 0.0545
H17_8 H 0.1768 0.9885 0.1661
C6_8 C 0.1376(4) 0.9232(6) 0.9044(5)
C7_8 C 0.1539(4) 0.9743(6) 0.8467(5)
C8_8 C 0.1075(5) 0.9637(8) 0.7848(7)
H6_8 H 0.1166 0.9976 0.7456
C9_8 C 0.0766(4) 0.8624(6) 0.8995(4)
C10_8 C 0.0295(5) 0.8516(7) 0.8369(6)
C11_8 C 0.0469(6) 0.9029(8) 0.7796(7)
H8_8 H 0.0171 0.8968 0.7359
N3_8 N 0.0750(3) 0.8213(4) 0.9666(4)
H7_8 H 0.9885 0.8118 0.8339
C5_9 C 0.1413(6) 0.2741(4) 0.0061(4)
H4_9 H 0.1565 0.3008 0.0545
H17_9 H 0.0115 0.1882 0.1661
C6_9 C 0.0768(6) 0.2145(4) 0.9044(5)
C7_9 C 0.0257(6) 0.1797(4) 0.8467(5)
C8_9 C 0.0363(8) 0.1439(6) 0.7848(7)
H6_9 H 0.0024 0.1191 0.7456
C9_9 C 0.1376(6) 0.2143(4) 0.8995(4)
C10_9 C 0.1484(7) 0.1780(5) 0.8369(6)
H7_9 H 0.1882 0.1768 0.8339
C11_9 C 0.0971(8) 0.1441(6) 0.7796(7)
H8_9 H 0.1032 0.1204 0.7359
N3_9 N 0.1787(4) 0.2538(3) 0.9666(4)
C20_9 C 0.8624(7) 0.0768(6) 0.0956(5)
C21_9 C 0.8461(7) 0.0257(6) 0.1533(5)
C22_9 C 0.8925(10) 0.0363(8) 0.2152(7)
H16_9 H 0.8834 0.0024 0.2544
C23_9 C 0.9234(7) 0.1376(6) 0.1005(4)
C24_9 C 0.9705(9) 0.1484(7) 0.1631(6)
C25_9 C 0.9531(10) 0.0971(8) 0.2204(7)
H18_9 H 0.9829 0.1032 0.2641
N7_9 N 0.8264(5) 0.0806(4) 0.0270(4)
H5_9 H 0.9855 0.1804 0.8496
C19_9 C 0.8673(7) 0.1413(6) 0.9939(4)
H14_9 H 0.8558 0.1565 0.9455
H15_9 H 0.8052 0.9855 0.1504
C2_4 C 0.6633(3) 0.0544(3) 0.7766(5)
C3_4 C 0.6524(4) 0.0994(4) 0.7286(5)
H2_4 H 0.6325 0.0883 0.6751
C4_4 C 0.6730(5) 0.1606(4) 0.7655(7)
H3_4 H 0.6654 0.1915 0.7365
C12_4 C 0.6960(4) 0.0723(3) 0.8546(5)
C13_4 C 0.7163(4) 0.1348(4) 0.8894(6)
H9_4 H 0.7372 0.1467 0.9422
C14_4 C 0.7048(4) 0.1791(5) 0.8436(7)
H10_4 H 0.7184 0.2217 0.8652
N4_4 N 0.6996(3) 0.0175(3) 0.8851(3)
H11_9 H 0.5956 -0.0000 0.4953
C16_7 C 0.7244(4) 0.0034(3) 0.4433(5)
C17_7 C 0.7803(6) 0.0143(4) 0.3953(5)
H12_7 H 0.7891 0.0342 0.3418
H13_7 H 0.8594 0.0013 0.4032
N5_4 N 0.6747(4) 0.0193(3) 0.4240(4)
N6_4 N 0.6779(3) 0.9919(4) 0.0906(4)
C1_4 C 0.6706(4) 0.9712(4) 0.8244(4)
H1_4 H 0.6667 0.9290 0.8286
N1_4 N 0.6474(3) 0.9888(3) 0.7573(4)
C15_7 C 0.6339(6) 0.9961(4) 0.4911(4)
H11_10 H 0.5956 1.0000 0.4953
C18_7 C 0.8209(6) 0.9937(5) 0.4322(7)
C26_7 C 0.7096(5) 0.9707(4) 0.5213(5)
C27_7 C 0.7518(6) 0.9504(4) 0.5561(6)
H19_7 H 0.7428 0.9295 0.6089
C28_7 C 0.8076(6) 0.9619(4) 0.5103(7)
H20_7 H 0.8366 0.9483 0.5319
N11_7 N 0.6512(4) 0.9671(3) 0.5518(3)
N6_5 N 0.0081(4) 0.6859(5) 0.0906(4)
C1_5 C 0.0288(4) 0.6994(6) 0.8244(4)
H1_5 H 0.0710 0.7377 0.8286
N1_5 N 0.0112(3) 0.6586(4) 0.7573(4)
C15_8 C 0.0039(4) 0.6379(7) 0.4911(4)
H11_11 H 0.0000 0.5957 0.4953
C18_8 C 0.0063(5) 0.8273(8) 0.4322(7)
C26_8 C 0.0293(4) 0.7390(6) 0.5213(5)
C27_8 C 0.0496(4) 0.8015(7) 0.5561(6)
H19_8 H 0.0705 0.8134 0.6089
C28_8 C 0.0381(4) 0.8458(7) 0.5103(7)
H20_8 H 0.0517 0.8884 0.5319
N11_8 N 0.0329(3) 0.6842(5) 0.5518(3)
C2_5 C 0.9456(3) 0.6089(4) 0.7766(5)
C3_5 C 0.9006(4) 0.5530(6) 0.7286(5)
H2_5 H 0.9117 0.5442 0.6751
C4_5 C 0.8394(4) 0.5124(6) 0.7655(7)
H3_5 H 0.8085 0.4739 0.7365
C12_5 C 0.9277(3) 0.6237(5) 0.8546(5)
C13_5 C 0.8652(4) 0.5815(6) 0.8894(6)
H9_5 H 0.8533 0.5905 0.9422
C14_5 C 0.8209(5) 0.5257(6) 0.8436(7)
H10_5 H 0.7783 0.4967 0.8652
N4_5 N 0.9825(3) 0.6821(4) 0.8851(3)
H11_12 H 1.0000 0.5957 0.4953
C16_8 C 0.9966(3) 0.7211(5) 0.4433(5)
C17_8 C 0.9857(4) 0.7661(7) 0.3953(5)
H12_8 H 0.9658 0.7550 0.3418
H13_8 H 0.9987 0.8582 0.4032
N5_5 N 0.9807(3) 0.6555(5) 0.4240(4)
N6_6 N 0.3141(5) 0.3221(3) 0.0906(4)
C1_6 C 0.3006(6) 0.3294(4) 0.8244(4)
H1_6 H 0.2623 0.3333 0.8286
C2_6 C 0.3911(4) 0.3367(3) 0.7766(5)
C3_6 C 0.4470(6) 0.3476(4) 0.7286(5)
H2_6 H 0.4558 0.3675 0.6751
C4_6 C 0.4876(6) 0.3270(5) 0.7655(7)
H3_6 H 0.5261 0.3346 0.7365
C12_6 C 0.3763(5) 0.3040(4) 0.8546(5)
C13_6 C 0.4185(6) 0.2837(4) 0.8894(6)
H9_6 H 0.4095 0.2628 0.9422
C14_6 C 0.4743(6) 0.2952(4) 0.8436(7)
H10_6 H 0.5033 0.2816 0.8652
N1_6 N 0.3414(4) 0.3526(3) 0.7573(4)
N4_6 N 0.3179(4) 0.3004(3) 0.8851(3)
C15_9 C 0.3621(7) 0.3661(6) 0.4911(4)
H11_13 H 0.4043 0.4044 0.4953
C16_9 C 0.2789(5) 0.2756(4) 0.4433(5)
C17_9 C 0.2339(7) 0.2197(6) 0.3953(5)
H12_9 H 0.2450 0.2109 0.3418
C18_9 C 0.1727(8) 0.1791(6) 0.4322(7)
H13_9 H 0.1418 0.1406 0.4032
C26_9 C 0.2610(6) 0.2904(5) 0.5213(5)
C27_9 C 0.1985(7) 0.2482(6) 0.5561(6)
H19_9 H 0.1866 0.2572 0.6089
C28_9 C 0.1542(7) 0.1924(6) 0.5103(7)
H20_9 H 0.1116 0.1634 0.5319
N5_6 N 0.3445(5) 0.3253(4) 0.4240(4)
N11_9 N 0.3158(5) 0.3488(4) 0.5518(3)
C16_10 C 0.0578(4) 0.6700(3) 0.1099(5)
C17_10 C 0.1137(6) 0.6809(4) 0.0619(5)
H12_10 H 0.1225 0.7008 0.0084
C18_10 C 0.1543(6) 0.6603(5) 0.0988(7)
H13_10 H 0.1928 0.6679 0.0698
C26_10 C 0.0430(5) 0.6373(4) 0.1879(5)
C27_10 C 0.0852(6) 0.6170(4) 0.2227(6)
H19_10 H 0.0762 0.5961 0.2755
C28_10 C 0.1410(6) 0.6285(4) 0.1769(7)
H20_10 H 0.1700 0.6149 0.1985
C15_10 C 0.9673(6) 0.6627(4) 0.1577(4)
H11_14 H 0.9290 0.6666 0.1619
N11_10 N 0.9846(4) 0.6337(3) 0.2184(3)
C15_11 C 0.3373(4) 0.3045(7) 0.1577(4)
H11_15 H 0.3334 0.2623 0.1619
C16_11 C 0.3300(3) 0.3877(5) 0.1099(5)
C17_11 C 0.3191(4) 0.4327(7) 0.0619(5)
H12_11 H 0.2992 0.4216 0.0084
C18_11 C 0.3397(5) 0.4939(8) 0.0988(7)
H13_11 H 0.3321 0.5248 0.0698
C26_11 C 0.3627(4) 0.4056(6) 0.1879(5)
C27_11 C 0.3830(4) 0.4681(7) 0.2227(6)
H19_11 H 0.4039 0.4800 0.2755
C28_11 C 0.3715(4) 0.5124(7) 0.1769(7)
H20_11 H 0.3851 0.5550 0.1985
N11_11 N 0.3663(3) 0.3508(5) 0.2184(3)
C15_12 C 0.6955(7) 0.0327(6) 0.1577(4)
H11_16 H 0.7377 0.0710 0.1619
N11_12 N 0.6492(5) 0.0154(4) 0.2184(3)
C16_12 C 0.6123(5) 0.9422(4) 0.1099(5)
C17_12 C 0.5673(7) 0.8863(6) 0.0619(5)
H12_12 H 0.5784 0.8775 0.0084
C18_12 C 0.5061(8) 0.8457(6) 0.0988(7)
H13_12 H 0.4752 0.8072 0.0698
C26_12 C 0.5944(6) 0.9570(5) 0.1879(5)
C27_12 C 0.5319(7) 0.9148(6) 0.2227(6)
H19_12 H 0.5200 0.9238 0.2755
C28_12 C 0.4876(7) 0.8590(6) 0.1769(7)
H20_12 H 0.4450 0.8300 0.1985
loop_
_geom_bond_atom_site_label_1
_geom_bond_atom_site_label_2
_geom_bond_site_symmetry_1
_geom_bond_site_symmetry_2
C1 H1 1_555 1_555
C5 H4 1_555 1_555
C6 C7 1_555 1_555
C7 H5 1_555 1_555
C8 C7 1_555 1_555
H6 C8 1_555 1_555
C9 C6 1_555 1_555
C10 C9 1_555 1_555
H7 C10 1_555 1_555
C11 C8 1_555 1_555
H8 C11 1_555 1_555
Co1 N1 1_555 1_555
N1 C1 1_555 1_555
N2 C5 1_555 1_555
N3 C5 1_555 1_555
C15 H11 1_555 1_555
C19 H14 1_555 1_555
C20 C21 1_555 1_555
C21 H15 1_555 1_555
C22 C21 1_555 1_555
H16 C22 1_555 1_555
C23 C20 1_555 1_555
C24 C23 1_555 1_555
H17 C24 1_555 1_555
C25 C22 1_555 1_555
H18 C25 1_555 1_555
C27 C26 1_555 1_555
H19 C27 1_555 1_555
C28 C18 1_555 1_555
H20 C28 1_555 1_555
Co3 N7 1_555 1_555
Co4 N3 1_555 1_555
N7 C19 1_555 1_555
N9 Co1 1_555 1_555
N11 Co1 1_555 1_555
C6 N2 1_555 1_555
C9 N3 1_555 1_555
C10 C11 1_555 1_555
Co1 N2 1_555 1_555
C15 N11 1_555 1_555
C19 N9 1_555 1_555
C20 N7 1_555 1_555
C23 N9 1_555 1_555
C24 C25 1_555 1_555
C26 N11 1_555 1_555
C27 C28 1_555 1_555
C2 C3 1_555 1_555
C3 H2 1_555 1_555
C4 C3 1_555 1_555
H3 C4 1_555 1_555
C12 C2 1_555 1_555
C13 C12 1_555 1_555
H9 C13 1_555 1_555
C14 C4 1_555 1_555
H10 C14 1_555 1_555
C16 C17 1_555 1_555
C17 H12 1_555 1_555
Co2 N5 1_555 1_555
Co5 N4 1_555 1_555
C12 N4 1_555 1_555
C13 C14 1_555 1_555
C16 N5 1_555 1_555
C2_2 C3_2 1_555 1_555
C3_2 H2_2 1_555 1_555
C4_2 C3_2 1_555 1_555
H3_2 C4_2 1_555 1_555
C12_2 C2_2 1_555 1_555
C13_2 C12_2 1_555 1_555
H9_2 C13_2 1_555 1_555
C14_2 C4_2 1_555 1_555
H10_2 C14_2 1_555 1_555
C16_2 C17_2 1_555 1_555
C17_2 H12_2 1_555 1_555
Co2_2 N5_2 1_555 1_555
Co5_2 N4_2 1_555 1_555
C12_2 N4_2 1_555 1_555
C13_2 C14_2 1_555 1_555
C16_2 N5_2 1_555 1_555
C1_2 H1_2 1_555 1_555
C5_2 H4_2 1_555 1_555
C6_2 C7_2 1_555 1_555
C7_2 H5_2 1_555 1_555
C8_2 C7_2 1_555 1_555
H6_2 C8_2 1_555 1_555
C9_2 C6_2 1_555 1_555
C10_2 C9_2 1_555 1_555
H7_2 C10_2 1_555 1_555
C11_2 C8_2 1_555 1_555
H8_2 C11_2 1_555 1_555
Co1_2 N1_2 1_555 1_555
N1_2 C1_2 1_555 1_555
N2_2 C5_2 1_555 1_555
N3_2 C5_2 1_555 1_555
C15_2 H11_4 1_555 1_555
C19_2 H14_2 1_555 1_555
C20_2 C21_2 1_555 1_555
C21_2 H15_2 1_555 1_555
C22_2 C21_2 1_555 1_555
H16_2 C22_2 1_555 1_555
C23_2 C20_2 1_555 1_555
C24_2 C23_2 1_555 1_555
H17_2 C24_2 1_555 1_555
C25_2 C22_2 1_555 1_555
H18_2 C25_2 1_555 1_555
C27_2 C26_2 1_555 1_555
H19_2 C27_2 1_555 1_555
C28_2 C18_2 1_555 1_555
H20_2 C28_2 1_555 1_555
Co3_2 N7_2 1_555 1_555
Co3 N3_2 1_555 1_555
N7_2 C19_2 1_555 1_555
N9_2 Co1_2 1_555 1_555
N11_2 Co1_2 1_555 1_555
C6_2 N2_2 1_555 1_555
C9_2 N3_2 1_555 1_555
C10_2 C11_2 1_555 1_555
Co1_2 N2_2 1_555 1_555
C15_2 N11_2 1_555 1_555
C19_2 N9_2 1_555 1_555
C20_2 N7_2 1_555 1_555
C23_2 N9_2 1_555 1_555
C24_2 C25_2 1_555 1_555
C26_2 N11_2 1_555 1_555
C27_2 C28_2 1_555 1_555
C1_3 H1_3 1_555 1_555
C2_3 C3_3 1_555 1_555
C3_3 H2_3 1_555 1_555
C4_3 C3_3 1_555 1_555
H3_3 C4_3 1_555 1_555
C5_3 H4_3 1_555 1_555
C6_3 C7_3 1_555 1_555
C7_3 H5_3 1_555 1_555
C8_3 C7_3 1_555 1_555
H6_3 C8_3 1_555 1_555
C9_3 C6_3 1_555 1_555
C10_3 C9_3 1_555 1_555
H7_3 C10_3 1_555 1_555
C11_3 C8_3 1_555 1_555
H8_3 C11_3 1_555 1_555
C12_3 C2_3 1_555 1_555
C13_3 C12_3 1_555 1_555
H9_3 C13_3 1_555 1_555
C14_3 C4_3 1_555 1_555
H10_3 C14_3 1_555 1_555
Co1_3 N1_3 1_555 1_555
N1_3 C1_3 1_555 1_555
N2_3 C5_3 1_555 1_555
N3_3 C5_3 1_555 1_555
N4_3 C1_3 1_555 1_555
C15_3 H11_5 1_555 1_555
C16_3 C17_3 1_555 1_555
C17_3 H12_3 1_555 1_555
C18_3 C17_3 1_555 1_555
H13_3 C18_3 1_555 1_555
C19_3 H14_3 1_555 1_555
C20_3 C21_3 1_555 1_555
C21_3 H15_3 1_555 1_555
C22_3 C21_3 1_555 1_555
H16_3 C22_3 1_555 1_555
C23_3 C20_3 1_555 1_555
C24_3 C23_3 1_555 1_555
H17_3 C24_3 1_555 1_555
C25_3 C22_3 1_555 1_555
H18_3 C25_3 1_555 1_555
C26_3 C16_3 1_555 1_555
C27_3 C26_3 1_555 1_555
H19_3 C27_3 1_555 1_555
C28_3 C18_3 1_555 1_555
H20_3 C28_3 1_555 1_555
Co2_3 N5_3 1_555 1_555
Co4 N7_3 1_555 1_555
Co3_2 N3_3 1_555 1_555
Co5_3 N4_3 1_555 1_555
N5_3 C15_3 1_555 1_555
N7_3 C19_3 1_555 1_555
N9_3 Co1_3 1_555 1_555
N10_3 Co5_3 1_555 1_555
N11_3 Co1_3 1_555 1_555
C2_3 N1_3 1_555 1_555
C6_3 N2_3 1_555 1_555
C9_3 N3_3 1_555 1_555
C10_3 C11_3 1_555 1_555
C12_3 N4_3 1_555 1_555
C13_3 C14_3 1_555 1_555
Co1_3 N2_3 1_555 1_555
C15_3 N11_3 1_555 1_555
C16_3 N5_3 1_555 1_555
C19_3 N9_3 1_555 1_555
C20_3 N7_3 1_555 1_555
C23_3 N9_3 1_555 1_555
C24_3 C25_3 1_555 1_555
C26_3 N11_3 1_555 1_555
C27_3 C28_3 1_555 1_555
C5_4 H4_4 1_555 1_555
C6_4 C7_4 1_555 1_555
C7_4 H5_4 1_555 1_555
C8_4 C7_4 1_555 1_555
H6_4 C8_4 1_555 1_555
C9_4 C6_4 1_555 1_555
C10_4 C9_4 1_555 1_555
H7_4 C10_4 1_555 1_555
C11_4 C8_4 1_555 1_555
H8_4 C11_4 1_555 1_555
N2_4 C5_4 1_555 1_555
N3_4 C5_4 1_555 1_555
C15_4 H11_6 1_555 1_555
C19_4 H14_4 1_555 1_555
C20_4 C21_4 1_555 1_555
C21_4 H15_4 1_555 1_555
C22_4 C21_4 1_555 1_555
H16_4 C22_4 1_555 1_555
C23_4 C20_4 1_555 1_555
C24_4 C23_4 1_555 1_555
H17_4 C24_4 1_555 1_555
C25_4 C22_4 1_555 1_555
H18_4 C25_4 1_555 1_555
Co3_3 N7_4 1_555 1_555
Co4_2 N3_4 1_555 1_555
N7_4 C19_4 1_555 1_555
N9_4 Co2_2 1_555 1_555
N11_4 Co2_2 1_555 1_555
C6_4 N2_4 1_555 1_555
C9_4 N3_4 1_555 1_555
C10_4 C11_4 1_555 1_555
Co2_2 N2_4 1_555 1_555
C15_4 N11_4 1_555 1_555
C19_4 N9_4 1_555 1_555
C20_4 N7_4 1_555 1_555
C23_4 N9_4 1_555 1_555
C24_4 C25_4 1_555 1_555
C16_4 C17_4 1_555 1_555
C17_4 H12_4 1_555 1_555
C18_4 C17_4 1_555 1_555
H13_4 C18_4 1_555 1_555
C26_4 C16_4 1_555 1_555
C27_4 C26_4 1_555 1_555
H19_4 C27_4 1_555 1_555
C28_4 C18_4 1_555 1_555
H20_4 C28_4 1_555 1_555
C16_4 N6_2 1_555 1_555
C27_4 C28_4 1_555 1_555
C5_5 H4_5 1_555 1_555
C6_5 C7_5 1_555 1_555
C7_5 H5_5 1_555 1_555
C8_5 C7_5 1_555 1_555
H6_5 C8_5 1_555 1_555
C9_5 C6_5 1_555 1_555
C10_5 C9_5 1_555 1_555
H7_5 C10_5 1_555 1_555
C11_5 C8_5 1_555 1_555
H8_5 C11_5 1_555 1_555
N2_5 C5_5 1_555 1_555
N3_5 C5_5 1_555 1_555
C15_5 H11_7 1_555 1_555
C16_5 C17_5 1_555 1_555
C17_5 H12_5 1_555 1_555
C18_5 C17_5 1_555 1_555
H13_5 C18_5 1_555 1_555
C19_5 H14_5 1_555 1_555
C20_5 C21_5 1_555 1_555
C21_5 H15_5 1_555 1_555
C22_5 C21_5 1_555 1_555
H16_5 C22_5 1_555 1_555
C23_5 C20_5 1_555 1_555
C24_5 C23_5 1_555 1_555
H17_5 C24_5 1_555 1_555
C25_5 C22_5 1_555 1_555
H18_5 C25_5 1_555 1_555
C26_5 C16_5 1_555 1_555
C27_5 C26_5 1_555 1_555
H19_5 C27_5 1_555 1_555
C28_5 C18_5 1_555 1_555
H20_5 C28_5 1_555 1_555
Co3_4 N7_5 1_555 1_555
Co3_3 N3_5 1_555 1_555
N6_3 C15_5 1_555 1_555
N7_5 C19_5 1_555 1_555
N9_5 Co2_3 1_555 1_555
N11_5 Co2_3 1_555 1_555
C6_5 N2_5 1_555 1_555
C9_5 N3_5 1_555 1_555
C10_5 C11_5 1_555 1_555
Co2_3 N2_5 1_555 1_555
C15_5 N11_5 1_555 1_555
C16_5 N6_3 1_555 1_555
C19_5 N9_5 1_555 1_555
C20_5 N7_5 1_555 1_555
C23_5 N9_5 1_555 1_555
C24_5 C25_5 1_555 1_555
C26_5 N11_5 1_555 1_555
C27_5 C28_5 1_555 1_555
C16_6 C17_6 1_555 1_555
C17_6 H12_6 1_555 1_555
C18_6 C17_6 1_555 1_555
H13_6 C18_6 1_555 1_555
C26_6 C16_6 1_555 1_555
C27_6 C26_6 1_555 1_555
H19_6 C27_6 1_555 1_555
C28_6 C18_6 1_555 1_555
H20_6 C28_6 1_555 1_555
C16_6 N6 1_555 1_555
C27_6 C28_6 1_555 1_555
C5_6 H4_6 1_555 1_555
C6_6 C7_6 1_555 1_555
C7_6 H5_6 1_555 1_555
C8_6 C7_6 1_555 1_555
H6_6 C8_6 1_555 1_555
C9_6 C6_6 1_555 1_555
C10_6 C9_6 1_555 1_555
H7_6 C10_6 1_555 1_555
C11_6 C8_6 1_555 1_555
H8_6 C11_6 1_555 1_555
N2_6 C5_6 1_555 1_555
N3_6 C5_6 1_555 1_555
C15_6 H11_8 1_555 1_555
C19_6 H14_6 1_555 1_555
C20_6 C21_6 1_555 1_555
C21_6 H15_6 1_555 1_555
C22_6 C21_6 1_555 1_555
H16_6 C22_6 1_555 1_555
C23_6 C20_6 1_555 1_555
C24_6 C23_6 1_555 1_555
H17_6 C24_6 1_555 1_555
C25_6 C22_6 1_555 1_555
H18_6 C25_6 1_555 1_555
Co4_2 N7_6 1_555 1_555
Co3_4 N3_6 1_555 1_555
N7_6 C19_6 1_555 1_555
N9_6 Co2 1_555 1_555
N11_6 Co2 1_555 1_555
C6_6 N2_6 1_555 1_555
C9_6 N3_6 1_555 1_555
C10_6 C11_6 1_555 1_555
Co2 N2_6 1_555 1_555
C15_6 N11_6 1_555 1_555
C19_6 N9_6 1_555 1_555
C20_6 N7_6 1_555 1_555
C23_6 N9_6 1_555 1_555
C24_6 C25_6 1_555 1_555
C5_7 H4_7 1_555 1_555
C20_7 C21_7 1_555 1_555
C22_7 C21_7 1_555 1_555
H16_7 C22_7 1_555 1_555
C23_7 C20_7 1_555 1_555
C24_7 C23_7 1_555 1_555
H17_7 C24_7 1_555 1_555
C25_7 C22_7 1_555 1_555
H18_7 C25_7 1_555 1_555
C20_7 N7_7 1_555 1_555
C23_7 N10_3 1_555 1_555
C24_7 C25_7 1_555 1_555
C6_7 C7_7 1_555 1_555
C7_7 H5_7 1_555 1_555
C8_7 C7_7 1_555 1_555
H6_7 C8_7 1_555 1_555
C9_7 C6_7 1_555 1_555
C10_7 C9_7 1_555 1_555
C11_7 C8_7 1_555 1_555
H8_7 C11_7 1_555 1_555
C19_7 H14_7 1_555 1_555
C6_7 N8_3 1_555 1_555
C9_7 N3_7 1_555 1_555
C10_7 C11_7 1_555 1_555
C20_8 C21_8 1_555 1_555
C21_8 H15_8 1_555 1_555
C22_8 C21_8 1_555 1_555
H16_8 C22_8 1_555 1_555
C23_8 C20_8 1_555 1_555
C24_8 C23_8 1_555 1_555
C25_8 C22_8 1_555 1_555
H18_8 C25_8 1_555 1_555
C20_8 N7_8 1_555 1_555
C23_8 N10 1_555 1_555
C24_8 C25_8 1_555 1_555
C19_8 H14_8 1_555 1_555
C5_8 H4_8 1_555 1_555
C6_8 C7_8 1_555 1_555
C8_8 C7_8 1_555 1_555
H6_8 C8_8 1_555 1_555
C9_8 C6_8 1_555 1_555
C10_8 C9_8 1_555 1_555
C11_8 C8_8 1_555 1_555
H8_8 C11_8 1_555 1_555
C6_8 N8 1_555 1_555
C9_8 N3_8 1_555 1_555
C10_8 C11_8 1_555 1_555
C5_9 H4_9 1_555 1_555
C6_9 C7_9 1_555 1_555
C8_9 C7_9 1_555 1_555
H6_9 C8_9 1_555 1_555
C9_9 C6_9 1_555 1_555
C10_9 C9_9 1_555 1_555
H7_9 C10_9 1_555 1_555
C11_9 C8_9 1_555 1_555
H8_9 C11_9 1_555 1_555
Co3_6 N3_9 1_555 1_555
C6_9 N8_2 1_555 1_555
C9_9 N3_9 1_555 1_555
C10_9 C11_9 1_555 1_555
C20_9 C21_9 1_555 1_555
C22_9 C21_9 1_555 1_555
H16_9 C22_9 1_555 1_555
C23_9 C20_9 1_555 1_555
C24_9 C23_9 1_555 1_555
C25_9 C22_9 1_555 1_555
H18_9 C25_9 1_555 1_555
C20_9 N7_9 1_555 1_555
C23_9 N10_2 1_555 1_555
C24_9 C25_9 1_555 1_555
C19_9 H14_9 1_555 1_555
C2_4 C3_4 1_555 1_555
C3_4 H2_4 1_555 1_555
C4_4 C3_4 1_555 1_555
H3_4 C4_4 1_555 1_555
C12_4 C2_4 1_555 1_555
C13_4 C12_4 1_555 1_555
H9_4 C13_4 1_555 1_555
C14_4 C4_4 1_555 1_555
H10_4 C14_4 1_555 1_555
C16_7 C17_7 1_555 1_555
C17_7 H12_7 1_555 1_555
Co3 N5_4 1_555 1_555
Co4_3 N4_4 1_555 1_555
C12_4 N4_4 1_555 1_555
C13_4 C14_4 1_555 1_555
C16_7 N5_4 1_555 1_555
C1_4 H1_4 1_555 1_555
Co3_4 N1_4 1_555 1_555
N1_4 C1_4 1_555 1_555
C15_7 H11_10 1_555 1_555
C27_7 C26_7 1_555 1_555
H19_7 C27_7 1_555 1_555
C28_7 C18_7 1_555 1_555
H20_7 C28_7 1_555 1_555
N11_7 Co3_4 1_555 1_555
C15_7 N11_7 1_555 1_555
C26_7 N11_7 1_555 1_555
C27_7 C28_7 1_555 1_555
C1_5 H1_5 1_555 1_555
Co4_2 N1_5 1_555 1_555
N1_5 C1_5 1_555 1_555
C15_8 H11_11 1_555 1_555
C27_8 C26_8 1_555 1_555
H19_8 C27_8 1_555 1_555
C28_8 C18_8 1_555 1_555
H20_8 C28_8 1_555 1_555
N11_8 Co4_2 1_555 1_555
C15_8 N11_8 1_555 1_555
C26_8 N11_8 1_555 1_555
C27_8 C28_8 1_555 1_555
C2_5 C3_5 1_555 1_555
C3_5 H2_5 1_555 1_555
C4_5 C3_5 1_555 1_555
H3_5 C4_5 1_555 1_555
C12_5 C2_5 1_555 1_555
C13_5 C12_5 1_555 1_555
H9_5 C13_5 1_555 1_555
C14_5 C4_5 1_555 1_555
H10_5 C14_5 1_555 1_555
C16_8 C17_8 1_555 1_555
C17_8 H12_8 1_555 1_555
Co3_2 N5_5 1_555 1_555
Co3_5 N4_5 1_555 1_555
C12_5 N4_5 1_555 1_555
C13_5 C14_5 1_555 1_555
C16_8 N5_5 1_555 1_555
C1_6 H1_6 1_555 1_555
C2_6 C3_6 1_555 1_555
C3_6 H2_6 1_555 1_555
C4_6 C3_6 1_555 1_555
H3_6 C4_6 1_555 1_555
C12_6 C2_6 1_555 1_555
C13_6 C12_6 1_555 1_555
H9_6 C13_6 1_555 1_555
C14_6 C4_6 1_555 1_555
H10_6 C14_6 1_555 1_555
Co3_3 N1_6 1_555 1_555
N1_6 C1_6 1_555 1_555
N4_6 C1_6 1_555 1_555
C15_9 H11_13 1_555 1_555
C16_9 C17_9 1_555 1_555
C17_9 H12_9 1_555 1_555
C18_9 C17_9 1_555 1_555
H13_9 C18_9 1_555 1_555
C26_9 C16_9 1_555 1_555
C27_9 C26_9 1_555 1_555
H19_9 C27_9 1_555 1_555
C28_9 C18_9 1_555 1_555
H20_9 C28_9 1_555 1_555
Co4 N5_6 1_555 1_555
Co3_6 N4_6 1_555 1_555
N5_6 C15_9 1_555 1_555
N11_9 Co3_3 1_555 1_555
C2_6 N1_6 1_555 1_555
C12_6 N4_6 1_555 1_555
C13_6 C14_6 1_555 1_555
C15_9 N11_9 1_555 1_555
C16_9 N5_6 1_555 1_555
C26_9 N11_9 1_555 1_555
C27_9 C28_9 1_555 1_555
C16_10 C17_10 1_555 1_555
C17_10 H12_10 1_555 1_555
C18_10 C17_10 1_555 1_555
H13_10 C18_10 1_555 1_555
C26_10 C16_10 1_555 1_555
C27_10 C26_10 1_555 1_555
H19_10 C27_10 1_555 1_555
C28_10 C18_10 1_555 1_555
H20_10 C28_10 1_555 1_555
C16_10 N6_5 1_555 1_555
C27_10 C28_10 1_555 1_555
C15_10 H11_14 1_555 1_555
N11_10 Co3_2 1_555 1_555
C15_10 N11_10 1_555 1_555
C15_11 H11_15 1_555 1_555
C16_11 C17_11 1_555 1_555
C17_11 H12_11 1_555 1_555
C18_11 C17_11 1_555 1_555
H13_11 C18_11 1_555 1_555
C26_11 C16_11 1_555 1_555
C27_11 C26_11 1_555 1_555
H19_11 C27_11 1_555 1_555
C28_11 C18_11 1_555 1_555
H20_11 C28_11 1_555 1_555
N6_6 C15_11 1_555 1_555
N11_11 Co4 1_555 1_555
C15_11 N11_11 1_555 1_555
C16_11 N6_6 1_555 1_555
C26_11 N11_11 1_555 1_555
C27_11 C28_11 1_555 1_555
C15_12 H11_16 1_555 1_555
N11_12 Co3 1_555 1_555
C15_12 N11_12 1_555 1_555
C16_12 C17_12 1_555 1_555
C17_12 H12_12 1_555 1_555
C18_12 C17_12 1_555 1_555
H13_12 C18_12 1_555 1_555
C26_12 C16_12 1_555 1_555
C27_12 C26_12 1_555 1_555
H19_12 C27_12 1_555 1_555
C28_12 C18_12 1_555 1_555
H20_12 C28_12 1_555 1_555
C16_12 N6_4 1_555 1_555
C27_12 C28_12 1_555 1_555

#END
