
###############################################################################
#
# This file contains modified crystal structure data generated from the
# MOF subset of the Cambridge Structural Database (CSD) v543 
# hosted by the Cambridge Crystallographic Data Centre (CCDC).
#
# This work is licensed under the Creative Commons
# Attribution-NonCommercial-ShareAlike 4.0 International License.
# To view a copy of this license, visit
# http://creativecommons.org/licenses/by-nc-sa/4.0/
# or send a letter to
# Creative Commons, PO Box 1866, Mountain View, CA 94042, USA.
#
# CIF created using the CSD Python API on 29 September 2022
# The structure has been converted into the P1 space group
# The structure has a 3D framework
# The original CSD entry VEJZAM is in the cubic crystal system
# The framework has been calculated to contain at least 10.0% void space
# The void calculation uses a probe of radius 1.32A, grid spacing 0.4
#
###############################################################################

data_VEJZAM
_chemical_formula_moiety         '(C288 H288 In15 N192 Zn34)n'
_symmetry_cell_setting           triclinic
_symmetry_space_group_name_H-M   'P 1'
_symmetry_Int_Tables_number      1
_space_group_name_Hall           'P 1'
loop_
_symmetry_equiv_pos_site_id
_symmetry_equiv_pos_as_xyz
1 x,y,z
_cell_length_a                   21.9619(6)
_cell_length_b                   21.9619(6)
_cell_length_c                   21.9619(6)
_cell_angle_alpha                90
_cell_angle_beta                 90
_cell_angle_gamma                90
_cell_volume                     10592.8
loop_
_atom_site_label
_atom_site_type_symbol
_atom_site_fract_x
_atom_site_fract_y
_atom_site_fract_z
In1 In 0.0000 0.0000 0.0000
In7 In 0.5000 0.0000 0.0000
H17 H 0.1000(10) 0.0044(10) 0.1158(11)
H18 H 0.1158(11) 0.1000(10) 0.0044(10)
H19 H 0.0044(10) 0.1158(11) 0.1000(10)
In1_2 In 0.0000 0.0000 1.0000
In7_2 In 0.5000 0.0000 1.0000
Zn3 Zn 0.1250 -0.0000 0.7500
Zn5 Zn -0.0000 0.2500 0.8750
N6 N 0.03164(6) 0.18179(6) 0.92521(6)
N20 N 0.03055(6) 0.09355(6) 0.97567(6)
C5 C 0.05945(7) 0.00029(7) 0.86774(7)
C18 C 0.08652(8) 0.12034(8) 0.98361(8)
C29 C 0.08718(8) 0.17394(8) 0.95315(8)
H5 H 0.0718(8) 0.0395(8) 0.8726(8)
H24 H 0.4000(10) 0.0044(10) 0.8842(11)
H29 H 0.1177(10) 0.2014(10) 0.9482(10)
In1_3 In 0.0000 1.0000 0.0000
Zn1 Zn -0.0000 0.7500 0.1250
In4 In 0.2500 0.7500 0.2500
In5 In 0.0000 0.5000 0.0000
In7_3 In 0.5000 1.0000 0.0000
Zn4 Zn 0.2500 0.8750 0.0000
N5 N 0.18179(6) 0.92521(6) 0.03164(6)
N9 N 0.06821(6) 0.78164(6) 0.17521(6)
N10 N 0.03164(6) 0.68179(6) 0.07479(6)
N11 N 0.28164(6) 0.82479(6) 0.06821(6)
N19 N 0.09355(6) 0.97567(6) 0.03055(6)
N24 N 0.15645(6) 0.78055(6) 0.22567(6)
N25 N 0.03055(6) 0.59355(6) 0.02433(6)
C4 C 0.00029(7) 0.86774(7) 0.05945(7)
C10 C 0.11774(7) 0.74971(7) 0.19055(7)
C13 C 0.36774(7) 0.94055(7) 0.00029(7)
C17 C 0.12034(8) 0.98361(8) 0.08652(8)
C21 C 0.12966(8) 0.83652(8) 0.23361(8)
C22 C 0.08652(8) 0.62034(8) 0.01639(8)
C28 C 0.17394(8) 0.95315(8) 0.08718(8)
C32 C 0.07606(8) 0.83718(8) 0.20315(8)
C33 C 0.08718(8) 0.67394(8) 0.04685(8)
H4 H 0.0395(8) 0.8726(8) 0.0718(8)
H10 H 0.1226(8) 0.7105(8) 0.1782(8)
H13 H 0.3726(8) 0.9282(8) 0.0395(8)
H21 H 0.1500(10) 0.8658(11) 0.2544(10)
H28 H 0.2014(10) 0.9482(10) 0.1177(10)
H32 H 0.0486(10) 0.8677(10) 0.1982(10)
H33 H 0.1177(10) 0.7014(10) 0.0518(10)
In1_4 In 0.0000 1.0000 1.0000
In5_2 In 0.0000 0.5000 1.0000
In6 In 0.2500 0.7500 0.7500
In7_4 In 0.5000 1.0000 1.0000
Zn3_2 Zn 0.1250 1.0000 0.7500
Zn4_2 Zn 0.2500 0.8750 1.0000
N4 N 0.07479(6) 0.96836(6) 0.81821(6)
N12 N 0.21836(6) 0.82479(6) 0.93179(6)
N13 N 0.31821(6) 0.92521(6) 0.96836(6)
N18 N 0.02433(6) 0.96945(6) 0.90645(6)
N26 N 0.21945(6) 0.77433(6) 0.84355(6)
N27 N 0.40645(6) 0.97567(6) 0.96945(6)
C6 C 0.13226(7) 0.94055(7) 0.99971(7)
C12 C 0.25029(7) 0.80945(7) 0.88226(7)
C16 C 0.01639(8) 0.91348(8) 0.87966(8)
C23 C 0.16348(8) 0.76639(8) 0.87034(8)
C24 C 0.37966(8) 0.98361(8) 0.91348(8)
C27 C 0.04685(8) 0.91282(8) 0.82606(8)
C34 C 0.16282(8) 0.79685(8) 0.92394(8)
C35 C 0.32606(8) 0.95315(8) 0.91282(8)
H6 H 0.1274(8) 0.9282(8) 0.9605(8)
H12 H 0.2895(8) 0.8218(8) 0.8774(8)
H22 H 0.1158(11) 0.6000(10) 0.9956(10)
H23 H 0.1342(11) 0.7456(10) 0.8500(10)
H27 H 0.0518(10) 0.8823(10) 0.7986(10)
H34 H 0.1323(10) 0.8018(10) 0.9514(10)
H35 H 0.2986(10) 0.9482(10) 0.8823(10)
In1_5 In 1.0000 0.0000 0.0000
C1 C 0.86774(7) 0.05945(7) 0.00029(7)
H1 H 0.8726(8) 0.0718(8) 0.0395(8)
In2 In 0.7500 0.2500 0.2500
Zn2 Zn 0.7500 0.1250 0.0000
Zn6 Zn 0.8750 -0.0000 0.2500
N7 N 0.92521(6) 0.03164(6) 0.18179(6)
N14 N 0.82479(6) 0.06821(6) 0.28164(6)
N21 N 0.97567(6) 0.03055(6) 0.09355(6)
N22 N 0.78055(6) 0.22567(6) 0.15645(6)
N28 N 0.77433(6) 0.15645(6) 0.28055(6)
N29 N 0.65645(6) 0.21945(6) 0.22567(6)
N30 N 0.71945(6) 0.27433(6) 0.34355(6)
N31 N 0.72567(6) 0.34355(6) 0.21945(6)
N32 N 0.84355(6) 0.28055(6) 0.27433(6)
C14 C 0.80945(7) 0.11774(7) 0.24971(7)
C19 C 0.98361(8) 0.08652(8) 0.12034(8)
C25 C 0.76639(8) 0.12966(8) 0.33652(8)
C30 C 0.95315(8) 0.08718(8) 0.17394(8)
C36 C 0.79685(8) 0.07606(8) 0.33718(8)
H14 H 0.8218(8) 0.1226(8) 0.2105(8)
H25 H 0.7456(10) 0.1500(10) 0.3658(11)
H30 H 0.9482(10) 0.1177(10) 0.2014(10)
H36 H 0.8018(10) 0.0486(10) 0.3677(10)
In1_6 In 1.0000 0.0000 1.0000
N1 N 0.81821(6) 0.07479(6) 0.96836(6)
N2 N 0.90645(6) 0.02433(6) 0.96945(6)
C2 C 0.87966(8) 0.01639(8) 0.91348(8)
C3 C 0.82606(8) 0.04685(8) 0.91282(8)
H3 H 0.7986(10) 0.0518(10) 0.8823(10)
Zn2_2 Zn 0.7500 0.1250 1.0000
Zn5_2 Zn 1.0000 0.2500 0.8750
C7 C 0.99971(7) 0.13226(7) 0.94055(7)
H7 H 0.9605(8) 0.1274(8) 0.9282(8)
In1_7 In 1.0000 1.0000 0.0000
Zn1_2 Zn 1.0000 0.7500 0.1250
In3 In 0.7500 0.7500 0.2500
In5_3 In 1.0000 0.5000 0.0000
Zn6_2 Zn 0.8750 1.0000 0.2500
N3 N 0.96836(6) 0.81821(6) 0.07479(6)
N8 N 0.93179(6) 0.71836(6) 0.17521(6)
N15 N 0.82479(6) 0.93179(6) 0.21836(6)
N16 N 0.92521(6) 0.96836(6) 0.31821(6)
N17 N 0.96945(6) 0.90645(6) 0.02433(6)
N23 N 0.84355(6) 0.71945(6) 0.22567(6)
C8 C 0.94055(7) 0.99971(7) 0.13226(7)
C9 C 0.88226(7) 0.75029(7) 0.19055(7)
C11 C 0.99971(7) 0.63226(7) 0.05945(7)
C15 C 0.91348(8) 0.87966(8) 0.01639(8)
C20 C 0.87034(8) 0.66348(8) 0.23361(8)
C26 C 0.91282(8) 0.82606(8) 0.04685(8)
C31 C 0.92394(8) 0.66282(8) 0.20315(8)
H8 H 0.9282(8) 0.9605(8) 0.1274(8)
H9 H 0.8774(8) 0.7895(8) 0.1782(8)
H11 H 0.9605(8) 0.6274(8) 0.0718(8)
H20 H 0.8500(10) 0.6342(11) 0.2544(10)
H26 H 0.8823(10) 0.7986(10) 0.0518(10)
H31 H 0.9514(10) 0.6323(10) 0.1982(10)
In1_8 In 1.0000 1.0000 1.0000
H2 H 0.9000(10) 0.9956(10) 0.8842(11)
In5_4 In 1.0000 0.5000 1.0000
H15 H 0.8842(11) 0.9000(10) 0.9956(10)
H16 H 0.9956(10) 0.8842(11) 0.9000(10)
In4_2 In 0.2500 0.2500 0.7500
In5_5 In 0.0000 0.0000 0.5000
N9_2 N 0.17521(6) 0.06821(6) 0.78164(6)
N10_2 N 0.07479(6) 0.03164(6) 0.68179(6)
N11_2 N 0.06821(6) 0.28164(6) 0.82479(6)
N24_2 N 0.22567(6) 0.15645(6) 0.78055(6)
N25_2 N 0.02433(6) 0.03055(6) 0.59355(6)
C10_2 C 0.19055(7) 0.11774(7) 0.74971(7)
C13_2 C 0.00029(7) 0.36774(7) 0.94055(7)
C21_2 C 0.23361(8) 0.12966(8) 0.83652(8)
C22_2 C 0.01639(8) 0.08652(8) 0.62034(8)
C32_2 C 0.20315(8) 0.07606(8) 0.83718(8)
C33_2 C 0.04685(8) 0.08718(8) 0.67394(8)
H10_2 H 0.1782(8) 0.1226(8) 0.7105(8)
H13_2 H 0.0395(8) 0.3726(8) 0.9282(8)
H21_2 H 0.2544(10) 0.1500(10) 0.8658(11)
H32_2 H 0.1982(10) 0.0486(10) 0.8677(10)
H33_2 H 0.0518(10) 0.1177(10) 0.7014(10)
N28_2 N 0.28055(6) 0.77433(6) 0.15645(6)
N29_2 N 0.22567(6) 0.65645(6) 0.21945(6)
N30_2 N 0.34355(6) 0.71945(6) 0.27433(6)
N31_2 N 0.21945(6) 0.72567(6) 0.34355(6)
N32_2 N 0.27433(6) 0.84355(6) 0.28055(6)
C14_2 C 0.24971(7) 0.80945(7) 0.11774(7)
C25_2 C 0.33652(8) 0.76639(8) 0.12966(8)
C36_2 C 0.33718(8) 0.79685(8) 0.07606(8)
H14_2 H 0.2105(8) 0.8218(8) 0.1226(8)
H25_2 H 0.3658(11) 0.7456(10) 0.1500(10)
H36_2 H 0.3677(10) 0.8018(10) 0.0486(10)
In5_6 In 0.0000 1.0000 0.5000
N8_2 N 0.17521(6) 0.93179(6) 0.71836(6)
N23_2 N 0.22567(6) 0.84355(6) 0.71945(6)
C9_2 C 0.19055(7) 0.88226(7) 0.75029(7)
C11_2 C 0.05945(7) 0.99971(7) 0.63226(7)
C20_2 C 0.23361(8) 0.87034(8) 0.66348(8)
C31_2 C 0.20315(8) 0.92394(8) 0.66282(8)
H9_2 H 0.1782(8) 0.8774(8) 0.7895(8)
H11_2 H 0.0718(8) 0.9605(8) 0.6274(8)
H20_2 H 0.2544(10) 0.8500(10) 0.6342(11)
H31_2 H 0.1982(10) 0.9514(10) 0.6323(10)
H24_2 H 0.8842(11) 0.4000(10) 0.0044(10)
In5_7 In 1.0000 0.0000 0.5000
In6_2 In 0.7500 0.2500 0.7500
N12_2 N 0.93179(6) 0.21836(6) 0.82479(6)
N13_2 N 0.96836(6) 0.31821(6) 0.92521(6)
N26_2 N 0.84355(6) 0.21945(6) 0.77433(6)
N27_2 N 0.96945(6) 0.40645(6) 0.97567(6)
C12_2 C 0.88226(7) 0.25029(7) 0.80945(7)
C23_2 C 0.87034(8) 0.16348(8) 0.76639(8)
C24_2 C 0.91348(8) 0.37966(8) 0.98361(8)
C34_2 C 0.92394(8) 0.16282(8) 0.79685(8)
C35_2 C 0.91282(8) 0.32606(8) 0.95315(8)
H12_2 H 0.8774(8) 0.2895(8) 0.8218(8)
H22_2 H 0.9956(10) 0.1158(11) 0.6000(10)
H23_2 H 0.8500(10) 0.1342(11) 0.7456(10)
H34_2 H 0.9514(10) 0.1323(10) 0.8018(10)
H35_2 H 0.8823(10) 0.2986(10) 0.9482(10)
In5_8 In 1.0000 1.0000 0.5000
N28_3 N 0.15645(6) 0.28055(6) 0.77433(6)
N29_3 N 0.21945(6) 0.22567(6) 0.65645(6)
N30_3 N 0.27433(6) 0.34355(6) 0.71945(6)
N31_3 N 0.34355(6) 0.21945(6) 0.72567(6)
N32_3 N 0.28055(6) 0.27433(6) 0.84355(6)
C14_3 C 0.11774(7) 0.24971(7) 0.80945(7)
C25_3 C 0.12966(8) 0.33652(8) 0.76639(8)
C36_3 C 0.07606(8) 0.33718(8) 0.79685(8)
H14_3 H 0.1226(8) 0.2105(8) 0.8218(8)
H25_3 H 0.1500(10) 0.3658(11) 0.7456(10)
H36_3 H 0.0486(10) 0.3677(10) 0.8018(10)
H24_3 H 0.0044(10) 0.8842(11) 0.4000(10)
N9_3 N 0.78164(6) 0.17521(6) 0.06821(6)
N10_3 N 0.68179(6) 0.07479(6) 0.03164(6)
N25_3 N 0.59355(6) 0.02433(6) 0.03055(6)
C10_3 C 0.74971(7) 0.19055(7) 0.11774(7)
C13_3 C 0.94055(7) 0.00029(7) 0.36774(7)
C21_3 C 0.83652(8) 0.23361(8) 0.12966(8)
C22_3 C 0.62034(8) 0.01639(8) 0.08652(8)
C32_3 C 0.83718(8) 0.20315(8) 0.07606(8)
C33_3 C 0.67394(8) 0.04685(8) 0.08718(8)
H10_3 H 0.7105(8) 0.1782(8) 0.1226(8)
H13_3 H 0.9282(8) 0.0395(8) 0.3726(8)
H21_3 H 0.8658(11) 0.2544(10) 0.1500(10)
H32_3 H 0.8677(10) 0.1982(10) 0.0486(10)
H33_3 H 0.7014(10) 0.0518(10) 0.1177(10)
N8_3 N 0.71836(6) 0.17521(6) 0.93179(6)
N23_3 N 0.71945(6) 0.22567(6) 0.84355(6)
C9_3 C 0.75029(7) 0.19055(7) 0.88226(7)
C11_3 C 0.63226(7) 0.05945(7) 0.99971(7)
C20_3 C 0.66348(8) 0.23361(8) 0.87034(8)
C31_3 C 0.66282(8) 0.20315(8) 0.92394(8)
H9_3 H 0.7895(8) 0.1782(8) 0.8774(8)
H11_3 H 0.6274(8) 0.0718(8) 0.9605(8)
H20_3 H 0.6342(11) 0.2544(10) 0.8500(10)
H31_3 H 0.6323(10) 0.1982(10) 0.9514(10)
N26_3 N 0.77433(6) 0.84355(6) 0.21945(6)
N27_3 N 0.97567(6) 0.96945(6) 0.40645(6)
C12_3 C 0.80945(7) 0.88226(7) 0.25029(7)
C23_3 C 0.76639(8) 0.87034(8) 0.16348(8)
C24_3 C 0.98361(8) 0.91348(8) 0.37966(8)
C34_3 C 0.79685(8) 0.92394(8) 0.16282(8)
C35_3 C 0.95315(8) 0.91282(8) 0.32606(8)
H12_3 H 0.8218(8) 0.8774(8) 0.2895(8)
H22_3 H 0.6000(10) 0.9956(10) 0.1158(11)
H23_3 H 0.7456(10) 0.8500(10) 0.1342(11)
H34_3 H 0.8018(10) 0.9514(10) 0.1323(10)
H35_3 H 0.9482(10) 0.8823(10) 0.2986(10)
Zn5_3 Zn -0.0000 0.2500 0.3750
Zn1_3 Zn 0.5000 0.2500 0.1250
In4_3 In 0.5000 0.5000 0.0000
In5_9 In 0.2500 0.2500 0.2500
In6_3 In 0.5000 0.5000 0.5000
Zn3_3 Zn 0.7500 0.3750 0.5000
Zn4_3 Zn 0.6250 0.5000 0.2500
Zn5_4 Zn 1.0000 0.2500 0.3750
N3_2 N 0.56821(6) 0.21836(6) 0.17521(6)
N4_2 N 0.71836(6) 0.32479(6) 0.43179(6)
N5_2 N 0.67521(6) 0.43179(6) 0.21836(6)
N6_2 N 0.93179(6) 0.28164(6) 0.32479(6)
N8_4 N 0.46836(6) 0.18179(6) 0.07479(6)
N9_4 N 0.53164(6) 0.31821(6) 0.07479(6)
N10_4 N 0.43179(6) 0.28164(6) 0.17521(6)
N11_3 N 0.57479(6) 0.53164(6) 0.18179(6)
N12_3 N 0.57479(6) 0.46836(6) 0.31821(6)
N13_3 N 0.67521(6) 0.56821(6) 0.28164(6)
N23_4 N 0.46945(6) 0.09355(6) 0.02433(6)
N24_3 N 0.53055(6) 0.40645(6) 0.02433(6)
N25_4 N 0.34355(6) 0.28055(6) 0.22567(6)
N26_4 N 0.52433(6) 0.46945(6) 0.40645(6)
N27_4 N 0.72567(6) 0.65645(6) 0.28055(6)
C4_2 C 0.61774(7) 0.25029(7) 0.19055(7)
C5_2 C 0.75029(7) 0.30945(7) 0.38226(7)
C6_2 C 0.69055(7) 0.38226(7) 0.25029(7)
C7_2 C 0.88226(7) 0.24971(7) 0.30945(7)
C9_4 C 0.50029(7) 0.13226(7) 0.05945(7)
C10_4 C 0.49971(7) 0.36774(7) 0.05945(7)
C11_4 C 0.38226(7) 0.24971(7) 0.19055(7)
C12_4 C 0.55945(7) 0.50029(7) 0.36774(7)
C13_4 C 0.69055(7) 0.61774(7) 0.24971(7)
C15_2 C 0.62966(8) 0.16348(8) 0.23361(8)
C16_2 C 0.66348(8) 0.26639(8) 0.37034(8)
C17_2 C 0.73361(8) 0.37034(8) 0.16348(8)
C18_2 C 0.87034(8) 0.33652(8) 0.26639(8)
C20_4 C 0.41348(8) 0.12034(8) 0.01639(8)
C21_4 C 0.58652(8) 0.37966(8) 0.01639(8)
C22_4 C 0.37034(8) 0.33652(8) 0.23361(8)
C23_4 C 0.51639(8) 0.41348(8) 0.37966(8)
C24_4 C 0.73361(8) 0.62966(8) 0.33652(8)
C26_2 C 0.57606(8) 0.16282(8) 0.20315(8)
C27_2 C 0.66282(8) 0.29685(8) 0.42394(8)
C28_2 C 0.70315(8) 0.42394(8) 0.16282(8)
C29_2 C 0.92394(8) 0.33718(8) 0.29685(8)
C31_4 C 0.41282(8) 0.17394(8) 0.04685(8)
C32_4 C 0.58718(8) 0.32606(8) 0.04685(8)
C33_4 C 0.42394(8) 0.33718(8) 0.20315(8)
C34_4 C 0.54685(8) 0.41282(8) 0.32606(8)
C35_4 C 0.70315(8) 0.57606(8) 0.33718(8)
H4_2 H 0.6226(8) 0.2895(8) 0.1782(8)
H5_2 H 0.7895(8) 0.3218(8) 0.3774(8)
H6_2 H 0.6782(8) 0.3774(8) 0.2895(8)
H7_2 H 0.8774(8) 0.2105(8) 0.3218(8)
H9_4 H 0.5395(8) 0.1274(8) 0.0718(8)
H10_4 H 0.4605(8) 0.3726(8) 0.0718(8)
H11_4 H 0.3774(8) 0.2105(8) 0.1782(8)
H12_4 H 0.5718(8) 0.5395(8) 0.3726(8)
H13_4 H 0.6782(8) 0.6226(8) 0.2105(8)
H15_2 H 0.6500(10) 0.1342(11) 0.2544(10)
H16_2 H 0.6342(11) 0.2456(10) 0.3500(10)
H17_2 H 0.7544(10) 0.3500(10) 0.1342(11)
H18_2 H 0.8500(10) 0.3658(11) 0.2456(10)
H22_4 H 0.3500(10) 0.3658(11) 0.2544(10)
H23_4 H 0.4956(10) 0.3842(11) 0.4000(10)
H24_4 H 0.7544(10) 0.6500(10) 0.3658(11)
H26_2 H 0.5486(10) 0.1323(10) 0.1982(10)
H27_2 H 0.6323(10) 0.3018(10) 0.4514(10)
H28_2 H 0.6982(10) 0.4514(10) 0.1323(10)
H29_2 H 0.9514(10) 0.3677(10) 0.3018(10)
H31_4 H 0.3823(10) 0.2014(10) 0.0518(10)
H32_4 H 0.6177(10) 0.2986(10) 0.0518(10)
H33_4 H 0.4514(10) 0.3677(10) 0.1982(10)
H34_4 H 0.5518(10) 0.3823(10) 0.2986(10)
H35_4 H 0.6982(10) 0.5486(10) 0.3677(10)
In4_4 In 0.5000 0.5000 1.0000
H20_4 H 0.3842(11) 0.1000(10) 0.9956(10)
H21_4 H 0.6158(11) 0.4000(10) 0.9956(10)
Zn6_3 Zn 0.2500 0.3750 -0.0000
N14_2 N 0.31821(6) 0.42521(6) 0.03164(6)
N16_2 N 0.21836(6) 0.32479(6) 0.06821(6)
N28_4 N 0.40645(6) 0.47567(6) 0.03055(6)
N30_4 N 0.52433(6) 0.53055(6) 0.09355(6)
C25_4 C 0.37966(8) 0.48361(8) 0.08652(8)
C36_4 C 0.32606(8) 0.45315(8) 0.08718(8)
H25_4 H 0.4000(10) 0.5044(10) 0.1158(11)
H36_4 H 0.2986(10) 0.4482(10) 0.1177(10)
N1_2 N 0.32479(6) 0.43179(6) 0.71836(6)
C1_2 C 0.30945(7) 0.38226(7) 0.75029(7)
C2_2 C 0.26639(8) 0.37034(8) 0.66348(8)
C3_2 C 0.29685(8) 0.42394(8) 0.66282(8)
H1_2 H 0.3218(8) 0.3774(8) 0.7895(8)
H2_2 H 0.2456(10) 0.3500(10) 0.6342(11)
H3_2 H 0.3018(10) 0.4514(10) 0.6323(10)
Zn2_3 Zn 0.3750 0.5000 0.7500
Zn3_4 Zn 0.2500 0.1250 0.5000
Zn5_5 Zn 0.5000 0.2500 0.6250
Zn6_4 Zn 0.2500 0.3750 1.0000
N4_3 N 0.21836(6) 0.17521(6) 0.56821(6)
N6_3 N 0.43179(6) 0.21836(6) 0.67521(6)
N7_2 N 0.28164(6) 0.32479(6) 0.93179(6)
N15_2 N 0.18179(6) 0.42521(6) 0.96836(6)
N22_2 N 0.47567(6) 0.46945(6) 0.90645(6)
N29_4 N 0.46945(6) 0.59355(6) 0.97567(6)
N31_4 N 0.59355(6) 0.52433(6) 0.96945(6)
C5_3 C 0.25029(7) 0.19055(7) 0.61774(7)
C7_3 C 0.38226(7) 0.25029(7) 0.69055(7)
C8_2 C 0.24971(7) 0.30945(7) 0.88226(7)
C14_4 C 0.36774(7) 0.44055(7) 0.99971(7)
C16_3 C 0.16348(8) 0.23361(8) 0.62966(8)
C18_3 C 0.37034(8) 0.16348(8) 0.73361(8)
C19_2 C 0.33652(8) 0.26639(8) 0.87034(8)
C27_3 C 0.16282(8) 0.20315(8) 0.57606(8)
C29_3 C 0.42394(8) 0.16282(8) 0.70315(8)
C30_2 C 0.33718(8) 0.29685(8) 0.92394(8)
H5_3 H 0.2895(8) 0.1782(8) 0.6226(8)
H7_3 H 0.3774(8) 0.2895(8) 0.6782(8)
H8_2 H 0.2105(8) 0.3218(8) 0.8774(8)
H14_4 H 0.3726(8) 0.4282(8) 0.9605(8)
H16_3 H 0.1342(11) 0.2544(10) 0.6500(10)
H18_3 H 0.3500(10) 0.1342(11) 0.7544(10)
H19_2 H 0.3658(11) 0.2456(10) 0.8500(10)
H27_3 H 0.1323(10) 0.1982(10) 0.5486(10)
H29_3 H 0.4514(10) 0.1323(10) 0.6982(10)
H30_2 H 0.3677(10) 0.3018(10) 0.9514(10)
In4_5 In 0.5000 -0.0000 0.5000
Zn4_4 Zn 0.3750 -0.0000 0.2500
N11_4 N 0.42521(6) 0.03164(6) 0.31821(6)
N13_4 N 0.32479(6) 0.06821(6) 0.21836(6)
N27_5 N 0.27433(6) 0.15645(6) 0.21945(6)
C12_5 C 0.44055(7) 0.00029(7) 0.13226(7)
C13_5 C 0.30945(7) 0.11774(7) 0.25029(7)
C24_5 C 0.26639(8) 0.12966(8) 0.16348(8)
C35_5 C 0.29685(8) 0.07606(8) 0.16282(8)
H12_5 H 0.4282(8) 0.0395(8) 0.1274(8)
H13_5 H 0.3218(8) 0.1226(8) 0.2895(8)
H24_5 H 0.2456(10) 0.1500(10) 0.1342(11)
H35_5 H 0.3018(10) 0.0486(10) 0.1323(10)
Zn1_4 Zn 0.5000 0.7500 0.3750
N1_3 N 0.17521(6) 0.56821(6) 0.21836(6)
C1_3 C 0.19055(7) 0.61774(7) 0.25029(7)
C2_3 C 0.23361(8) 0.62966(8) 0.16348(8)
C3_3 C 0.20315(8) 0.57606(8) 0.16282(8)
H1_3 H 0.1782(8) 0.6226(8) 0.2895(8)
H2_3 H 0.2544(10) 0.6500(10) 0.1342(11)
H3_3 H 0.1982(10) 0.5486(10) 0.1323(10)
In2_2 In 0.0000 0.5000 0.5000
In4_6 In 0.5000 1.0000 0.5000
Zn2_4 Zn 0.1250 0.5000 0.2500
Zn4_5 Zn 0.3750 1.0000 0.2500
Zn6_5 Zn 0.2500 0.6250 0.5000
N3_3 N 0.43179(6) 0.71836(6) 0.32479(6)
N5_3 N 0.32479(6) 0.93179(6) 0.28164(6)
N7_3 N 0.21836(6) 0.67521(6) 0.43179(6)
N8_5 N 0.53164(6) 0.68179(6) 0.42521(6)
N9_5 N 0.46836(6) 0.81821(6) 0.42521(6)
N10_5 N 0.56821(6) 0.78164(6) 0.32479(6)
N12_4 N 0.42521(6) 0.96836(6) 0.18179(6)
N14_3 N 0.18179(6) 0.57479(6) 0.53164(6)
N15_3 N 0.31821(6) 0.57479(6) 0.46836(6)
N16_3 N 0.28164(6) 0.67521(6) 0.56821(6)
N22_3 N 0.02433(6) 0.53055(6) 0.40645(6)
N23_5 N 0.53055(6) 0.59355(6) 0.47567(6)
N24_4 N 0.46945(6) 0.90645(6) 0.47567(6)
N25_5 N 0.65645(6) 0.78055(6) 0.27433(6)
N26_5 N 0.47567(6) 0.96945(6) 0.09355(6)
N28_5 N 0.09355(6) 0.52433(6) 0.53055(6)
N29_5 N 0.03055(6) 0.40645(6) 0.47567(6)
C4_3 C 0.38226(7) 0.75029(7) 0.30945(7)
C6_3 C 0.30945(7) 0.88226(7) 0.24971(7)
C8_3 C 0.25029(7) 0.69055(7) 0.38226(7)
C9_5 C 0.49971(7) 0.63226(7) 0.44055(7)
C10_5 C 0.50029(7) 0.86774(7) 0.44055(7)
C11_5 C 0.61774(7) 0.74971(7) 0.30945(7)
C14_5 C 0.13226(7) 0.55945(7) 0.49971(7)
C15_3 C 0.37034(8) 0.66348(8) 0.26639(8)
C17_3 C 0.26639(8) 0.87034(8) 0.33652(8)
C19_3 C 0.16348(8) 0.73361(8) 0.37034(8)
C20_5 C 0.58652(8) 0.62034(8) 0.48361(8)
C21_5 C 0.41348(8) 0.87966(8) 0.48361(8)
C22_5 C 0.62966(8) 0.83652(8) 0.26639(8)
C23_5 C 0.48361(8) 0.91348(8) 0.12034(8)
C25_5 C 0.12034(8) 0.51639(8) 0.58652(8)
C26_3 C 0.42394(8) 0.66282(8) 0.29685(8)
C28_3 C 0.29685(8) 0.92394(8) 0.33718(8)
C30_3 C 0.16282(8) 0.70315(8) 0.42394(8)
C31_5 C 0.58718(8) 0.67394(8) 0.45315(8)
C32_5 C 0.41282(8) 0.82606(8) 0.45315(8)
C33_5 C 0.57606(8) 0.83718(8) 0.29685(8)
C34_5 C 0.45315(8) 0.91282(8) 0.17394(8)
C36_5 C 0.17394(8) 0.54685(8) 0.58718(8)
H4_3 H 0.3774(8) 0.7895(8) 0.3218(8)
H6_3 H 0.3218(8) 0.8774(8) 0.2105(8)
H8_3 H 0.2895(8) 0.6782(8) 0.3774(8)
H9_5 H 0.4605(8) 0.6274(8) 0.4282(8)
H10_5 H 0.5395(8) 0.8726(8) 0.4282(8)
H11_5 H 0.6226(8) 0.7105(8) 0.3218(8)
H14_5 H 0.1274(8) 0.5718(8) 0.4605(8)
H15_3 H 0.3500(10) 0.6342(11) 0.2456(10)
H17_3 H 0.2456(10) 0.8500(10) 0.3658(11)
H19_3 H 0.1342(11) 0.7544(10) 0.3500(10)
H20_5 H 0.6158(11) 0.6000(10) 0.5044(10)
H21_5 H 0.3842(11) 0.9000(10) 0.5044(10)
H22_5 H 0.6500(10) 0.8658(11) 0.2456(10)
H23_5 H 0.5044(10) 0.8842(11) 0.1000(10)
H25_5 H 0.1000(10) 0.4956(10) 0.6158(11)
H26_3 H 0.4514(10) 0.6323(10) 0.3018(10)
H28_3 H 0.3018(10) 0.9514(10) 0.3677(10)
H30_3 H 0.1323(10) 0.6982(10) 0.4514(10)
H31_5 H 0.6177(10) 0.7014(10) 0.4482(10)
H32_5 H 0.3823(10) 0.7986(10) 0.4482(10)
H33_5 H 0.5486(10) 0.8677(10) 0.3018(10)
H34_5 H 0.4482(10) 0.8823(10) 0.2014(10)
H36_5 H 0.2014(10) 0.5518(10) 0.6177(10)
In2_3 In 1.0000 0.5000 0.5000
N30_5 N 0.97567(6) 0.46945(6) 0.59355(6)
N31_5 N 0.90645(6) 0.47567(6) 0.46945(6)
N32_4 N 0.96945(6) 0.59355(6) 0.52433(6)
N11_5 N 0.03164(6) 0.31821(6) 0.42521(6)
N13_5 N 0.06821(6) 0.21836(6) 0.32479(6)
N27_6 N 0.15645(6) 0.21945(6) 0.27433(6)
C12_6 C 0.00029(7) 0.13226(7) 0.44055(7)
C13_6 C 0.11774(7) 0.25029(7) 0.30945(7)
C24_6 C 0.12966(8) 0.16348(8) 0.26639(8)
C35_6 C 0.07606(8) 0.16282(8) 0.29685(8)
H12_6 H 0.0395(8) 0.1274(8) 0.4282(8)
H13_6 H 0.1226(8) 0.2895(8) 0.3218(8)
H24_6 H 0.1500(10) 0.1342(11) 0.2456(10)
H35_6 H 0.0486(10) 0.1323(10) 0.3018(10)
N8_6 N 0.68179(6) 0.42521(6) 0.53164(6)
N9_6 N 0.81821(6) 0.42521(6) 0.46836(6)
N10_6 N 0.78164(6) 0.32479(6) 0.56821(6)
N12_5 N 0.96836(6) 0.18179(6) 0.42521(6)
N23_6 N 0.59355(6) 0.47567(6) 0.53055(6)
N25_6 N 0.78055(6) 0.27433(6) 0.65645(6)
N26_6 N 0.96945(6) 0.09355(6) 0.47567(6)
C9_6 C 0.63226(7) 0.44055(7) 0.49971(7)
C10_6 C 0.86774(7) 0.44055(7) 0.50029(7)
C11_6 C 0.74971(7) 0.30945(7) 0.61774(7)
C14_6 C 0.55945(7) 0.49971(7) 0.13226(7)
C20_6 C 0.62034(8) 0.48361(8) 0.58652(8)
C21_6 C 0.87966(8) 0.48361(8) 0.41348(8)
C22_6 C 0.83652(8) 0.26639(8) 0.62966(8)
C23_6 C 0.91348(8) 0.12034(8) 0.48361(8)
C25_6 C 0.51639(8) 0.58652(8) 0.12034(8)
C31_6 C 0.67394(8) 0.45315(8) 0.58718(8)
C32_6 C 0.82606(8) 0.45315(8) 0.41282(8)
C33_6 C 0.83718(8) 0.29685(8) 0.57606(8)
C34_6 C 0.91282(8) 0.17394(8) 0.45315(8)
C36_6 C 0.54685(8) 0.58718(8) 0.17394(8)
H9_6 H 0.6274(8) 0.4282(8) 0.4605(8)
H10_6 H 0.8726(8) 0.4282(8) 0.5395(8)
H11_6 H 0.7105(8) 0.3218(8) 0.6226(8)
H14_6 H 0.5718(8) 0.4605(8) 0.1274(8)
H20_6 H 0.6000(10) 0.5044(10) 0.6158(11)
H21_6 H 0.9000(10) 0.5044(10) 0.3842(11)
H22_6 H 0.8658(11) 0.2456(10) 0.6500(10)
H23_6 H 0.8842(11) 0.1000(10) 0.5044(10)
H25_6 H 0.4956(10) 0.6158(11) 0.1000(10)
H31_6 H 0.7014(10) 0.4482(10) 0.6177(10)
H32_6 H 0.7986(10) 0.4482(10) 0.3823(10)
H33_6 H 0.8677(10) 0.3018(10) 0.5486(10)
H34_6 H 0.8823(10) 0.2014(10) 0.4482(10)
H36_6 H 0.5518(10) 0.6177(10) 0.2014(10)
N28_6 N 0.47567(6) 0.03055(6) 0.40645(6)
N30_6 N 0.53055(6) 0.09355(6) 0.52433(6)
N32_5 N 0.40645(6) 0.02433(6) 0.53055(6)
C25_7 C 0.48361(8) 0.08652(8) 0.37966(8)
C36_7 C 0.45315(8) 0.08718(8) 0.32606(8)
H25_7 H 0.5044(10) 0.1158(11) 0.4000(10)
H36_7 H 0.4482(10) 0.1177(10) 0.2986(10)
N29_6 N 0.59355(6) 0.97567(6) 0.46945(6)
N31_6 N 0.52433(6) 0.96945(6) 0.59355(6)
C14_7 C 0.44055(7) 0.99971(7) 0.36774(7)
H14_7 H 0.4282(8) 0.9605(8) 0.3726(8)
N8_7 N 0.18179(6) 0.07479(6) 0.46836(6)
N9_7 N 0.31821(6) 0.07479(6) 0.53164(6)
N10_7 N 0.28164(6) 0.17521(6) 0.43179(6)
N11_6 N 0.53164(6) 0.18179(6) 0.57479(6)
N12_6 N 0.46836(6) 0.31821(6) 0.57479(6)
N13_6 N 0.56821(6) 0.28164(6) 0.67521(6)
N23_7 N 0.09355(6) 0.02433(6) 0.46945(6)
N25_7 N 0.28055(6) 0.22567(6) 0.34355(6)
N26_7 N 0.46945(6) 0.40645(6) 0.52433(6)
N27_7 N 0.65645(6) 0.28055(6) 0.72567(6)
C9_7 C 0.13226(7) 0.05945(7) 0.50029(7)
C10_7 C 0.36774(7) 0.05945(7) 0.49971(7)
C11_7 C 0.24971(7) 0.19055(7) 0.38226(7)
C12_7 C 0.50029(7) 0.36774(7) 0.55945(7)
C13_7 C 0.61774(7) 0.24971(7) 0.69055(7)
C20_7 C 0.12034(8) 0.01639(8) 0.41348(8)
C21_7 C 0.37966(8) 0.01639(8) 0.58652(8)
C22_7 C 0.33652(8) 0.23361(8) 0.37034(8)
C23_7 C 0.41348(8) 0.37966(8) 0.51639(8)
C24_7 C 0.62966(8) 0.33652(8) 0.73361(8)
C31_7 C 0.17394(8) 0.04685(8) 0.41282(8)
C32_7 C 0.32606(8) 0.04685(8) 0.58718(8)
C33_7 C 0.33718(8) 0.20315(8) 0.42394(8)
C34_7 C 0.41282(8) 0.32606(8) 0.54685(8)
C35_7 C 0.57606(8) 0.33718(8) 0.70315(8)
H9_7 H 0.1274(8) 0.0718(8) 0.5395(8)
H10_7 H 0.3726(8) 0.0718(8) 0.4605(8)
H11_7 H 0.2105(8) 0.1782(8) 0.3774(8)
H12_7 H 0.5395(8) 0.3726(8) 0.5718(8)
H13_7 H 0.6226(8) 0.2105(8) 0.6782(8)
H22_7 H 0.3658(11) 0.2544(10) 0.3500(10)
H23_7 H 0.3842(11) 0.4000(10) 0.4956(10)
H24_7 H 0.6500(10) 0.3658(11) 0.7544(10)
H31_7 H 0.2014(10) 0.0518(10) 0.3823(10)
H32_7 H 0.2986(10) 0.0518(10) 0.6177(10)
H33_7 H 0.3677(10) 0.1982(10) 0.4514(10)
H34_7 H 0.3823(10) 0.2986(10) 0.5518(10)
H35_7 H 0.5486(10) 0.3677(10) 0.6982(10)
H20_7 H 0.1000(10) 0.9956(10) 0.3842(11)
H21_7 H 0.4000(10) 0.9956(10) 0.6158(11)
C25_8 C 0.08652(8) 0.37966(8) 0.48361(8)
C36_8 C 0.08718(8) 0.32606(8) 0.45315(8)
H25_8 H 0.1158(11) 0.4000(10) 0.5044(10)
H36_8 H 0.1177(10) 0.2986(10) 0.4482(10)
C14_8 C 0.99971(7) 0.36774(7) 0.44055(7)
H14_8 H 0.9605(8) 0.3726(8) 0.4282(8)
N27_8 N 0.21945(6) 0.27433(6) 0.15645(6)
C12_8 C 0.13226(7) 0.44055(7) 0.00029(7)
C13_8 C 0.25029(7) 0.30945(7) 0.11774(7)
C24_8 C 0.16348(8) 0.26639(8) 0.12966(8)
C35_8 C 0.16282(8) 0.29685(8) 0.07606(8)
H12_8 H 0.1274(8) 0.4282(8) 0.0395(8)
H13_8 H 0.2895(8) 0.3218(8) 0.1226(8)
H24_8 H 0.1342(11) 0.2456(10) 0.1500(10)
H35_8 H 0.1323(10) 0.3018(10) 0.0486(10)
N8_8 N 0.42521(6) 0.53164(6) 0.68179(6)
N9_8 N 0.42521(6) 0.46836(6) 0.81821(6)
N10_8 N 0.32479(6) 0.56821(6) 0.78164(6)
N23_8 N 0.47567(6) 0.53055(6) 0.59355(6)
N25_8 N 0.27433(6) 0.65645(6) 0.78055(6)
N26_8 N 0.09355(6) 0.47567(6) 0.96945(6)
C9_8 C 0.44055(7) 0.49971(7) 0.63226(7)
C10_8 C 0.44055(7) 0.50029(7) 0.86774(7)
C11_8 C 0.30945(7) 0.61774(7) 0.74971(7)
C14_9 C 0.49971(7) 0.13226(7) 0.55945(7)
C20_8 C 0.48361(8) 0.58652(8) 0.62034(8)
C21_8 C 0.48361(8) 0.41348(8) 0.87966(8)
C22_8 C 0.26639(8) 0.62966(8) 0.83652(8)
C23_8 C 0.12034(8) 0.48361(8) 0.91348(8)
C25_9 C 0.58652(8) 0.12034(8) 0.51639(8)
C31_8 C 0.45315(8) 0.58718(8) 0.67394(8)
C32_8 C 0.45315(8) 0.41282(8) 0.82606(8)
C33_8 C 0.29685(8) 0.57606(8) 0.83718(8)
C34_8 C 0.17394(8) 0.45315(8) 0.91282(8)
C36_9 C 0.58718(8) 0.17394(8) 0.54685(8)
H9_8 H 0.4282(8) 0.4605(8) 0.6274(8)
H10_8 H 0.4282(8) 0.5395(8) 0.8726(8)
H11_8 H 0.3218(8) 0.6226(8) 0.7105(8)
H14_9 H 0.4605(8) 0.1274(8) 0.5718(8)
H20_8 H 0.5044(10) 0.6158(11) 0.6000(10)
H21_8 H 0.5044(10) 0.3842(11) 0.9000(10)
H22_8 H 0.2456(10) 0.6500(10) 0.8658(11)
H23_8 H 0.1000(10) 0.5044(10) 0.8842(11)
H25_9 H 0.6158(11) 0.1000(10) 0.4956(10)
H31_8 H 0.4482(10) 0.6177(10) 0.7014(10)
H32_8 H 0.4482(10) 0.3823(10) 0.7986(10)
H33_8 H 0.3018(10) 0.5486(10) 0.8677(10)
H34_8 H 0.2014(10) 0.4482(10) 0.8823(10)
H36_9 H 0.6177(10) 0.2014(10) 0.5518(10)
N8_9 N 0.07479(6) 0.46836(6) 0.18179(6)
N9_9 N 0.07479(6) 0.53164(6) 0.31821(6)
N10_9 N 0.17521(6) 0.43179(6) 0.28164(6)
N23_9 N 0.02433(6) 0.46945(6) 0.09355(6)
N25_9 N 0.22567(6) 0.34355(6) 0.28055(6)
N26_9 N 0.40645(6) 0.52433(6) 0.46945(6)
N27_9 N 0.28055(6) 0.72567(6) 0.65645(6)
C9_9 C 0.05945(7) 0.50029(7) 0.13226(7)
C10_9 C 0.05945(7) 0.49971(7) 0.36774(7)
C11_9 C 0.19055(7) 0.38226(7) 0.24971(7)
C12_9 C 0.36774(7) 0.55945(7) 0.50029(7)
C13_9 C 0.24971(7) 0.69055(7) 0.61774(7)
C20_9 C 0.01639(8) 0.41348(8) 0.12034(8)
C21_9 C 0.01639(8) 0.58652(8) 0.37966(8)
C22_9 C 0.23361(8) 0.37034(8) 0.33652(8)
C23_9 C 0.37966(8) 0.51639(8) 0.41348(8)
C24_9 C 0.33652(8) 0.73361(8) 0.62966(8)
C31_9 C 0.04685(8) 0.41282(8) 0.17394(8)
C32_9 C 0.04685(8) 0.58718(8) 0.32606(8)
C33_9 C 0.20315(8) 0.42394(8) 0.33718(8)
C34_9 C 0.32606(8) 0.54685(8) 0.41282(8)
C35_9 C 0.33718(8) 0.70315(8) 0.57606(8)
H9_9 H 0.0718(8) 0.5395(8) 0.1274(8)
H10_9 H 0.0718(8) 0.4605(8) 0.3726(8)
H11_9 H 0.1782(8) 0.3774(8) 0.2105(8)
H12_9 H 0.3726(8) 0.5718(8) 0.5395(8)
H13_9 H 0.2105(8) 0.6782(8) 0.6226(8)
H22_9 H 0.2544(10) 0.3500(10) 0.3658(11)
H23_9 H 0.4000(10) 0.4956(10) 0.3842(11)
H24_9 H 0.3658(11) 0.7544(10) 0.6500(10)
H31_9 H 0.0518(10) 0.3823(10) 0.2014(10)
H32_9 H 0.0518(10) 0.6177(10) 0.2986(10)
H33_9 H 0.1982(10) 0.4514(10) 0.3677(10)
H34_9 H 0.2986(10) 0.5518(10) 0.3823(10)
H35_9 H 0.3677(10) 0.6982(10) 0.5486(10)
H20_9 H 0.9956(10) 0.3842(11) 0.1000(10)
H21_9 H 0.9956(10) 0.6158(11) 0.4000(10)
N29_7 N 0.15645(6) 0.71945(6) 0.72567(6)
N32_6 N 0.34355(6) 0.78055(6) 0.77433(6)
N29_8 N 0.72567(6) 0.15645(6) 0.71945(6)
N32_7 N 0.77433(6) 0.34355(6) 0.78055(6)
N29_9 N 0.71945(6) 0.72567(6) 0.15645(6)
N32_8 N 0.78055(6) 0.77433(6) 0.34355(6)
Zn1_5 Zn 0.0000 0.7500 0.6250
Zn5_6 Zn 0.5000 0.7500 0.8750
N3_4 N 0.06821(6) 0.71836(6) 0.67521(6)
N6_4 N 0.43179(6) 0.78164(6) 0.82479(6)
N9_10 N 0.03164(6) 0.81821(6) 0.57479(6)
N24_5 N 0.03055(6) 0.90645(6) 0.52433(6)
C4_4 C 0.11774(7) 0.75029(7) 0.69055(7)
C7_4 C 0.38226(7) 0.74971(7) 0.80945(7)
C9_10 C 0.00029(7) 0.63226(7) 0.55945(7)
C15_4 C 0.12966(8) 0.66348(8) 0.73361(8)
C18_4 C 0.37034(8) 0.83652(8) 0.76639(8)
C21_10 C 0.08652(8) 0.87966(8) 0.51639(8)
C26_4 C 0.07606(8) 0.66282(8) 0.70315(8)
C29_4 C 0.42394(8) 0.83718(8) 0.79685(8)
C32_10 C 0.08718(8) 0.82606(8) 0.54685(8)
H4_4 H 0.1226(8) 0.7895(8) 0.6782(8)
H7_4 H 0.3774(8) 0.7105(8) 0.8218(8)
H9_10 H 0.0395(8) 0.6274(8) 0.5718(8)
H15_4 H 0.1500(10) 0.6342(11) 0.7544(10)
H18_4 H 0.3500(10) 0.8658(11) 0.7456(10)
H21_10 H 0.1158(11) 0.9000(10) 0.4956(10)
H26_4 H 0.0486(10) 0.6323(10) 0.6982(10)
H29_4 H 0.4514(10) 0.8677(10) 0.8018(10)
H32_10 H 0.1177(10) 0.7986(10) 0.5518(10)
Zn1_6 Zn 1.0000 0.7500 0.6250
In5_10 In 0.7500 0.7500 0.7500
N8_10 N 0.96836(6) 0.68179(6) 0.57479(6)
N10_10 N 0.93179(6) 0.78164(6) 0.67521(6)
N25_10 N 0.84355(6) 0.78055(6) 0.72567(6)
C10_10 C 0.99971(7) 0.86774(7) 0.55945(7)
C11_10 C 0.88226(7) 0.74971(7) 0.69055(7)
C20_10 C 0.91348(8) 0.62034(8) 0.51639(8)
C22_10 C 0.87034(8) 0.83652(8) 0.73361(8)
C31_10 C 0.91282(8) 0.67394(8) 0.54685(8)
C33_10 C 0.92394(8) 0.83718(8) 0.70315(8)
H10_10 H 0.9605(8) 0.8726(8) 0.5718(8)
H11_10 H 0.8774(8) 0.7105(8) 0.6782(8)
H20_10 H 0.8842(11) 0.6000(10) 0.4956(10)
H22_10 H 0.8500(10) 0.8658(11) 0.7544(10)
H31_10 H 0.8823(10) 0.7014(10) 0.5518(10)
H33_10 H 0.9514(10) 0.8677(10) 0.6982(10)
N31_7 N 0.90645(6) 0.52433(6) 0.03055(6)
N30_7 N 0.97567(6) 0.53055(6) 0.90645(6)
H25_10 H 0.9000(10) 0.0044(10) 0.6158(11)
Zn3_5 Zn 0.7500 0.6250 0.0000
Zn6_6 Zn 0.7500 0.8750 0.5000
N4_4 N 0.71836(6) 0.67521(6) 0.06821(6)
N7_4 N 0.78164(6) 0.82479(6) 0.43179(6)
N14_4 N 0.81821(6) 0.92521(6) 0.53164(6)
N15_4 N 0.68179(6) 0.92521(6) 0.46836(6)
N16_4 N 0.71836(6) 0.82479(6) 0.56821(6)
N28_7 N 0.90645(6) 0.97567(6) 0.53055(6)
C5_4 C 0.75029(7) 0.69055(7) 0.11774(7)
C8_4 C 0.74971(7) 0.80945(7) 0.38226(7)
C14_10 C 0.86774(7) 0.94055(7) 0.49971(7)
C16_4 C 0.66348(8) 0.73361(8) 0.12966(8)
C19_4 C 0.83652(8) 0.76639(8) 0.37034(8)
C25_10 C 0.87966(8) 0.98361(8) 0.58652(8)
C27_4 C 0.66282(8) 0.70315(8) 0.07606(8)
C30_4 C 0.83718(8) 0.79685(8) 0.42394(8)
C36_10 C 0.82606(8) 0.95315(8) 0.58718(8)
H5_4 H 0.7895(8) 0.6782(8) 0.1226(8)
H8_4 H 0.7105(8) 0.8218(8) 0.3774(8)
H14_10 H 0.8726(8) 0.9282(8) 0.4605(8)
H16_4 H 0.6342(11) 0.7544(10) 0.1500(10)
H19_4 H 0.8658(11) 0.7456(10) 0.3500(10)
H27_4 H 0.6323(10) 0.6982(10) 0.0486(10)
H30_4 H 0.8677(10) 0.8018(10) 0.4514(10)
H36_10 H 0.7986(10) 0.9482(10) 0.6177(10)
Zn3_6 Zn 0.7500 0.6250 1.0000
H23_10 H 0.0044(10) 0.3842(11) 0.6000(10)
N1_4 N 0.67521(6) 0.06821(6) 0.71836(6)
C1_4 C 0.69055(7) 0.11774(7) 0.75029(7)
C2_4 C 0.73361(8) 0.12966(8) 0.66348(8)
C3_4 C 0.70315(8) 0.07606(8) 0.66282(8)
H1_4 H 0.6782(8) 0.1226(8) 0.7895(8)
H2_4 H 0.7544(10) 0.1500(10) 0.6342(11)
H3_4 H 0.6982(10) 0.0486(10) 0.6323(10)
Zn2_5 Zn 0.6250 0.0000 0.7500
Zn4_6 Zn 0.8750 0.5000 0.7500
N5_4 N 0.82479(6) 0.43179(6) 0.78164(6)
N11_7 N 0.92521(6) 0.53164(6) 0.81821(6)
N12_7 N 0.92521(6) 0.46836(6) 0.68179(6)
N13_7 N 0.82479(6) 0.56821(6) 0.71836(6)
N22_4 N 0.52433(6) 0.03055(6) 0.90645(6)
N27_10 N 0.77433(6) 0.65645(6) 0.71945(6)
C6_4 C 0.80945(7) 0.38226(7) 0.74971(7)
C12_10 C 0.94055(7) 0.50029(7) 0.63226(7)
C13_10 C 0.80945(7) 0.61774(7) 0.75029(7)
C17_4 C 0.76639(8) 0.37034(8) 0.83652(8)
C23_10 C 0.98361(8) 0.41348(8) 0.62034(8)
C24_10 C 0.76639(8) 0.62966(8) 0.66348(8)
C28_4 C 0.79685(8) 0.42394(8) 0.83718(8)
C34_10 C 0.95315(8) 0.41282(8) 0.67394(8)
C35_10 C 0.79685(8) 0.57606(8) 0.66282(8)
H6_4 H 0.8218(8) 0.3774(8) 0.7105(8)
H12_10 H 0.9282(8) 0.5395(8) 0.6274(8)
H13_10 H 0.8218(8) 0.6226(8) 0.7895(8)
H17_4 H 0.7456(10) 0.3500(10) 0.8658(11)
H24_10 H 0.7456(10) 0.6500(10) 0.6342(11)
H28_4 H 0.8018(10) 0.4514(10) 0.8677(10)
H34_10 H 0.9482(10) 0.3823(10) 0.7014(10)
H35_10 H 0.8018(10) 0.5486(10) 0.6323(10)
Zn2_6 Zn 0.6250 1.0000 0.7500
N29_10 N 0.53055(6) 0.90645(6) 0.97567(6)
H23_11 H 0.3842(11) 0.6000(10) 0.0044(10)
N11_8 N 0.53164(6) 0.81821(6) 0.92521(6)
N12_8 N 0.46836(6) 0.68179(6) 0.92521(6)
N13_8 N 0.56821(6) 0.71836(6) 0.82479(6)
N27_11 N 0.65645(6) 0.71945(6) 0.77433(6)
C12_11 C 0.50029(7) 0.63226(7) 0.94055(7)
C13_11 C 0.61774(7) 0.75029(7) 0.80945(7)
C23_11 C 0.41348(8) 0.62034(8) 0.98361(8)
C24_11 C 0.62966(8) 0.66348(8) 0.76639(8)
C34_11 C 0.41282(8) 0.67394(8) 0.95315(8)
C35_11 C 0.57606(8) 0.66282(8) 0.79685(8)
H12_11 H 0.5395(8) 0.6274(8) 0.9282(8)
H13_11 H 0.6226(8) 0.7895(8) 0.8218(8)
H24_11 H 0.6500(10) 0.6342(11) 0.7456(10)
H34_11 H 0.3823(10) 0.7014(10) 0.9482(10)
H35_11 H 0.5486(10) 0.6323(10) 0.8018(10)
H25_11 H 0.0044(10) 0.6158(11) 0.9000(10)
C14_11 C 0.94055(7) 0.49971(7) 0.86774(7)
C25_11 C 0.98361(8) 0.58652(8) 0.87966(8)
C36_11 C 0.95315(8) 0.58718(8) 0.82606(8)
H14_11 H 0.9282(8) 0.4605(8) 0.8726(8)
H36_11 H 0.9482(10) 0.6177(10) 0.7986(10)
N9_11 N 0.81821(6) 0.57479(6) 0.03164(6)
C9_11 C 0.63226(7) 0.55945(7) 0.00029(7)
C21_11 C 0.87966(8) 0.51639(8) 0.08652(8)
C32_11 C 0.82606(8) 0.54685(8) 0.08718(8)
H9_11 H 0.6274(8) 0.5718(8) 0.0395(8)
H21_11 H 0.9000(10) 0.4956(10) 0.1158(11)
H32_11 H 0.7986(10) 0.5518(10) 0.1177(10)
N8_11 N 0.68179(6) 0.57479(6) 0.96836(6)
N10_11 N 0.78164(6) 0.67521(6) 0.93179(6)
N25_11 N 0.78055(6) 0.72567(6) 0.84355(6)
C10_11 C 0.86774(7) 0.55945(7) 0.99971(7)
C11_11 C 0.74971(7) 0.69055(7) 0.88226(7)
C20_11 C 0.62034(8) 0.51639(8) 0.91348(8)
C22_11 C 0.83652(8) 0.73361(8) 0.87034(8)
C31_11 C 0.67394(8) 0.54685(8) 0.91282(8)
C33_11 C 0.83718(8) 0.70315(8) 0.92394(8)
H10_11 H 0.8726(8) 0.5718(8) 0.9605(8)
H11_11 H 0.7105(8) 0.6782(8) 0.8774(8)
H20_11 H 0.6000(10) 0.4956(10) 0.8842(11)
H22_11 H 0.8658(11) 0.7544(10) 0.8500(10)
H31_11 H 0.7014(10) 0.5518(10) 0.8823(10)
H33_11 H 0.8677(10) 0.6982(10) 0.9514(10)
H25_12 H 0.6158(11) 0.9000(10) 0.0044(10)
C14_12 C 0.49971(7) 0.86774(7) 0.94055(7)
C25_12 C 0.58652(8) 0.87966(8) 0.98361(8)
C36_12 C 0.58718(8) 0.82606(8) 0.95315(8)
H14_12 H 0.4605(8) 0.8726(8) 0.9282(8)
H36_12 H 0.6177(10) 0.7986(10) 0.9482(10)
H23_12 H 0.6000(10) 0.0044(10) 0.3842(11)
N27_12 N 0.71945(6) 0.77433(6) 0.65645(6)
C12_12 C 0.63226(7) 0.94055(7) 0.50029(7)
C13_12 C 0.75029(7) 0.80945(7) 0.61774(7)
C23_12 C 0.62034(8) 0.98361(8) 0.41348(8)
C24_12 C 0.66348(8) 0.76639(8) 0.62966(8)
C34_12 C 0.67394(8) 0.95315(8) 0.41282(8)
C35_12 C 0.66282(8) 0.79685(8) 0.57606(8)
H12_12 H 0.6274(8) 0.9282(8) 0.5395(8)
H13_12 H 0.7895(8) 0.8218(8) 0.6226(8)
H24_12 H 0.6342(11) 0.7456(10) 0.6500(10)
H34_12 H 0.7014(10) 0.9482(10) 0.3823(10)
H35_12 H 0.6323(10) 0.8018(10) 0.5486(10)
N9_12 N 0.57479(6) 0.03164(6) 0.81821(6)
C9_12 C 0.55945(7) 0.00029(7) 0.63226(7)
C21_12 C 0.51639(8) 0.08652(8) 0.87966(8)
C32_12 C 0.54685(8) 0.08718(8) 0.82606(8)
H9_12 H 0.5718(8) 0.0395(8) 0.6274(8)
H21_12 H 0.4956(10) 0.1158(11) 0.9000(10)
H32_12 H 0.5518(10) 0.1177(10) 0.7986(10)
N8_12 N 0.57479(6) 0.96836(6) 0.68179(6)
N10_12 N 0.67521(6) 0.93179(6) 0.78164(6)
N25_12 N 0.72567(6) 0.84355(6) 0.78055(6)
C10_12 C 0.55945(7) 0.99971(7) 0.86774(7)
C11_12 C 0.69055(7) 0.88226(7) 0.74971(7)
C20_12 C 0.51639(8) 0.91348(8) 0.62034(8)
C22_12 C 0.73361(8) 0.87034(8) 0.83652(8)
C31_12 C 0.54685(8) 0.91282(8) 0.67394(8)
C33_12 C 0.70315(8) 0.92394(8) 0.83718(8)
H10_12 H 0.5718(8) 0.9605(8) 0.8726(8)
H11_12 H 0.6782(8) 0.8774(8) 0.7105(8)
H20_12 H 0.4956(10) 0.8842(11) 0.6000(10)
H22_12 H 0.7544(10) 0.8500(10) 0.8658(11)
H31_12 H 0.5518(10) 0.8823(10) 0.7014(10)
H33_12 H 0.6982(10) 0.9514(10) 0.8677(10)
loop_
_geom_bond_atom_site_label_1
_geom_bond_atom_site_label_2
_geom_bond_site_symmetry_1
_geom_bond_site_symmetry_2
Zn5 N6 1_555 1_555
N20 In1_2 1_555 1_555
C18 N20 1_555 1_555
C29 N6 1_555 1_555
H5 C5 1_555 1_555
H29 C29 1_555 1_555
C18 C29 1_555 1_555
In4 N24 1_555 1_555
In5 N25 1_555 1_555
Zn4 N5 1_555 1_555
N9 Zn1 1_555 1_555
N10 Zn1 1_555 1_555
N11 Zn4 1_555 1_555
N19 In1_3 1_555 1_555
N24 C10 1_555 1_555
C10 N9 1_555 1_555
C17 N19 1_555 1_555
C21 N24 1_555 1_555
C22 N25 1_555 1_555
C28 N5 1_555 1_555
C32 N9 1_555 1_555
C33 N10 1_555 1_555
H4 C4 1_555 1_555
H10 C10 1_555 1_555
H13 C13 1_555 1_555
H21 C21 1_555 1_555
H28 C28 1_555 1_555
H32 C32 1_555 1_555
H33 C33 1_555 1_555
C17 C28 1_555 1_555
C21 C32 1_555 1_555
C22 C33 1_555 1_555
In6 N26 1_555 1_555
In7_4 N27 1_555 1_555
Zn3_2 N4 1_555 1_555
N12 Zn4_2 1_555 1_555
N13 Zn4_2 1_555 1_555
N18 In1_4 1_555 1_555
N26 C12 1_555 1_555
C12 N12 1_555 1_555
C16 N18 1_555 1_555
C23 N26 1_555 1_555
C24 N27 1_555 1_555
C27 N4 1_555 1_555
C34 N12 1_555 1_555
C35 N13 1_555 1_555
H6 C6 1_555 1_555
H12 C12 1_555 1_555
H23 C23 1_555 1_555
H27 C27 1_555 1_555
H34 C34 1_555 1_555
H35 C35 1_555 1_555
C16 C27 1_555 1_555
C23 C34 1_555 1_555
C24 C35 1_555 1_555
C1 H1 1_555 1_555
In2 N22 1_555 1_555
Zn6 N7 1_555 1_555
N14 Zn6 1_555 1_555
N21 In1_5 1_555 1_555
N28 In2 1_555 1_555
N29 In2 1_555 1_555
N30 In2 1_555 1_555
N31 In2 1_555 1_555
N32 In2 1_555 1_555
C14 N14 1_555 1_555
C19 N21 1_555 1_555
C25 N28 1_555 1_555
C30 N7 1_555 1_555
C36 N14 1_555 1_555
H14 C14 1_555 1_555
H25 C25 1_555 1_555
H30 C30 1_555 1_555
H36 C36 1_555 1_555
N28 C14 1_555 1_555
C19 C30 1_555 1_555
C25 C36 1_555 1_555
In1_6 N2 1_555 1_555
C2 N2 1_555 1_555
C3 N1 1_555 1_555
H3 C3 1_555 1_555
Zn2_2 N1 1_555 1_555
H7 C7 1_555 1_555
C2 C3 1_555 1_555
Zn1_2 N3 1_555 1_555
In3 N23 1_555 1_555
N8 Zn1_2 1_555 1_555
N15 Zn6_2 1_555 1_555
N16 Zn6_2 1_555 1_555
N17 In1_7 1_555 1_555
N23 C9 1_555 1_555
C9 N8 1_555 1_555
C15 N17 1_555 1_555
C20 N23 1_555 1_555
C26 N3 1_555 1_555
C31 N8 1_555 1_555
H8 C8 1_555 1_555
H9 C9 1_555 1_555
H11 C11 1_555 1_555
H20 C20 1_555 1_555
H26 C26 1_555 1_555
H31 C31 1_555 1_555
C15 C26 1_555 1_555
C20 C31 1_555 1_555
In4_2 N24_2 1_555 1_555
In5_5 N25_2 1_555 1_555
N9_2 Zn3 1_555 1_555
N10_2 Zn3 1_555 1_555
N11_2 Zn5 1_555 1_555
N24_2 C10_2 1_555 1_555
C10_2 N9_2 1_555 1_555
C21_2 N24_2 1_555 1_555
C22_2 N25_2 1_555 1_555
C32_2 N9_2 1_555 1_555
C33_2 N10_2 1_555 1_555
H10_2 C10_2 1_555 1_555
H13_2 C13_2 1_555 1_555
H21_2 C21_2 1_555 1_555
H32_2 C32_2 1_555 1_555
H33_2 C33_2 1_555 1_555
C21_2 C32_2 1_555 1_555
C22_2 C33_2 1_555 1_555
N28_2 In4 1_555 1_555
N29_2 In4 1_555 1_555
N30_2 In4 1_555 1_555
N31_2 In4 1_555 1_555
N32_2 In4 1_555 1_555
C14_2 N11 1_555 1_555
C25_2 N28_2 1_555 1_555
C36_2 N11 1_555 1_555
H14_2 C14_2 1_555 1_555
H25_2 C25_2 1_555 1_555
H36_2 C36_2 1_555 1_555
N28_2 C14_2 1_555 1_555
C25_2 C36_2 1_555 1_555
In6 N23_2 1_555 1_555
N8_2 Zn3_2 1_555 1_555
N23_2 C9_2 1_555 1_555
C9_2 N8_2 1_555 1_555
C20_2 N23_2 1_555 1_555
C31_2 N8_2 1_555 1_555
H9_2 C9_2 1_555 1_555
H11_2 C11_2 1_555 1_555
H20_2 C20_2 1_555 1_555
H31_2 C31_2 1_555 1_555
C20_2 C31_2 1_555 1_555
In6_2 N26_2 1_555 1_555
In5_4 N27_2 1_555 1_555
N12_2 Zn5_2 1_555 1_555
N13_2 Zn5_2 1_555 1_555
N26_2 C12_2 1_555 1_555
C12_2 N12_2 1_555 1_555
C23_2 N26_2 1_555 1_555
C24_2 N27_2 1_555 1_555
C34_2 N12_2 1_555 1_555
C35_2 N13_2 1_555 1_555
H12_2 C12_2 1_555 1_555
H23_2 C23_2 1_555 1_555
H34_2 C34_2 1_555 1_555
H35_2 C35_2 1_555 1_555
C23_2 C34_2 1_555 1_555
C24_2 C35_2 1_555 1_555
N28_3 In4_2 1_555 1_555
N29_3 In4_2 1_555 1_555
N30_3 In4_2 1_555 1_555
N31_3 In4_2 1_555 1_555
N32_3 In4_2 1_555 1_555
C14_3 N11_2 1_555 1_555
C25_3 N28_3 1_555 1_555
C36_3 N11_2 1_555 1_555
H14_3 C14_3 1_555 1_555
H25_3 C25_3 1_555 1_555
H36_3 C36_3 1_555 1_555
N28_3 C14_3 1_555 1_555
C25_3 C36_3 1_555 1_555
In7 N25_3 1_555 1_555
N9_3 Zn2 1_555 1_555
N10_3 Zn2 1_555 1_555
N22 C10_3 1_555 1_555
C10_3 N9_3 1_555 1_555
C21_3 N22 1_555 1_555
C22_3 N25_3 1_555 1_555
C32_3 N9_3 1_555 1_555
C33_3 N10_3 1_555 1_555
H10_3 C10_3 1_555 1_555
H13_3 C13_3 1_555 1_555
H21_3 C21_3 1_555 1_555
H32_3 C32_3 1_555 1_555
H33_3 C33_3 1_555 1_555
C21_3 C32_3 1_555 1_555
C22_3 C33_3 1_555 1_555
In6_2 N23_3 1_555 1_555
N8_3 Zn2_2 1_555 1_555
N23_3 C9_3 1_555 1_555
C9_3 N8_3 1_555 1_555
C20_3 N23_3 1_555 1_555
C31_3 N8_3 1_555 1_555
H9_3 C9_3 1_555 1_555
H11_3 C11_3 1_555 1_555
H20_3 C20_3 1_555 1_555
H31_3 C31_3 1_555 1_555
C20_3 C31_3 1_555 1_555
In3 N26_3 1_555 1_555
In5_8 N27_3 1_555 1_555
N26_3 C12_3 1_555 1_555
C12_3 N15 1_555 1_555
C23_3 N26_3 1_555 1_555
C24_3 N27_3 1_555 1_555
C34_3 N15 1_555 1_555
C35_3 N16 1_555 1_555
H12_3 C12_3 1_555 1_555
H23_3 C23_3 1_555 1_555
H34_3 C34_3 1_555 1_555
H35_3 C35_3 1_555 1_555
C23_3 C34_3 1_555 1_555
C24_3 C35_3 1_555 1_555
Zn1_3 N3_2 1_555 1_555
In7 N23_4 1_555 1_555
In4_3 N24_3 1_555 1_555
In5_9 N25_4 1_555 1_555
In6_3 N26_4 1_555 1_555
In3 N27_4 1_555 1_555
Zn3_3 N4_2 1_555 1_555
Zn4_3 N5_2 1_555 1_555
Zn5_4 N6_2 1_555 1_555
N3_2 C4_2 1_555 1_555
N4_2 C5_2 1_555 1_555
N5_2 C6_2 1_555 1_555
N6_2 C7_2 1_555 1_555
N8_4 Zn1_3 1_555 1_555
N9_4 Zn1_3 1_555 1_555
N10_4 Zn1_3 1_555 1_555
N11_3 Zn4_3 1_555 1_555
N12_3 Zn4_3 1_555 1_555
N13_3 Zn4_3 1_555 1_555
N23_4 C9_4 1_555 1_555
N24_3 C10_4 1_555 1_555
N25_4 C11_4 1_555 1_555
N26_4 C12_4 1_555 1_555
N27_4 C13_4 1_555 1_555
C4_2 N29 1_555 1_555
C5_2 N30 1_555 1_555
C6_2 N31 1_555 1_555
C7_2 N32 1_555 1_555
C9_4 N8_4 1_555 1_555
C10_4 N9_4 1_555 1_555
C11_4 N10_4 1_555 1_555
C12_4 N12_3 1_555 1_555
C13_4 N13_3 1_555 1_555
C15_2 N29 1_555 1_555
C16_2 N30 1_555 1_555
C17_2 N31 1_555 1_555
C18_2 N32 1_555 1_555
C20_4 N23_4 1_555 1_555
C21_4 N24_3 1_555 1_555
C22_4 N25_4 1_555 1_555
C23_4 N26_4 1_555 1_555
C24_4 N27_4 1_555 1_555
C26_2 N3_2 1_555 1_555
C27_2 N4_2 1_555 1_555
C28_2 N5_2 1_555 1_555
C29_2 N6_2 1_555 1_555
C31_4 N8_4 1_555 1_555
C32_4 N9_4 1_555 1_555
C33_4 N10_4 1_555 1_555
C34_4 N12_3 1_555 1_555
C35_4 N13_3 1_555 1_555
H4_2 C4_2 1_555 1_555
H5_2 C5_2 1_555 1_555
H6_2 C6_2 1_555 1_555
H7_2 C7_2 1_555 1_555
H9_4 C9_4 1_555 1_555
H10_4 C10_4 1_555 1_555
H11_4 C11_4 1_555 1_555
H12_4 C12_4 1_555 1_555
H13_4 C13_4 1_555 1_555
H15_2 C15_2 1_555 1_555
H16_2 C16_2 1_555 1_555
H17_2 C17_2 1_555 1_555
H18_2 C18_2 1_555 1_555
H22_4 C22_4 1_555 1_555
H23_4 C23_4 1_555 1_555
H24_4 C24_4 1_555 1_555
H26_2 C26_2 1_555 1_555
H27_2 C27_2 1_555 1_555
H28_2 C28_2 1_555 1_555
H29_2 C29_2 1_555 1_555
H31_4 C31_4 1_555 1_555
H32_4 C32_4 1_555 1_555
H33_4 C33_4 1_555 1_555
H34_4 C34_4 1_555 1_555
H35_4 C35_4 1_555 1_555
C15_2 C26_2 1_555 1_555
C16_2 C27_2 1_555 1_555
C17_2 C28_2 1_555 1_555
C18_2 C29_2 1_555 1_555
C20_4 C31_4 1_555 1_555
C21_4 C32_4 1_555 1_555
C22_4 C33_4 1_555 1_555
C23_4 C34_4 1_555 1_555
C24_4 C35_4 1_555 1_555
N14_2 Zn6_3 1_555 1_555
N16_2 Zn6_3 1_555 1_555
N28_4 In4_3 1_555 1_555
N30_4 In4_3 1_555 1_555
C25_4 N28_4 1_555 1_555
C36_4 N14_2 1_555 1_555
H25_4 C25_4 1_555 1_555
H36_4 C36_4 1_555 1_555
C25_4 C36_4 1_555 1_555
N1_2 C1_2 1_555 1_555
N30_3 C1_2 1_555 1_555
C1_2 H1_2 1_555 1_555
C2_2 N30_3 1_555 1_555
C3_2 N1_2 1_555 1_555
H2_2 C2_2 1_555 1_555
H3_2 C3_2 1_555 1_555
In4_4 N22_2 1_555 1_555
Zn2_3 N1_2 1_555 1_555
Zn3_4 N4_3 1_555 1_555
Zn5_5 N6_3 1_555 1_555
Zn6_4 N7_2 1_555 1_555
N4_3 C5_3 1_555 1_555
N6_3 C7_3 1_555 1_555
N7_2 C8_2 1_555 1_555
N15_2 Zn6_4 1_555 1_555
N29_4 In4_4 1_555 1_555
N31_4 In4_4 1_555 1_555
C5_3 N29_3 1_555 1_555
C7_3 N31_3 1_555 1_555
C8_2 N32_3 1_555 1_555
C16_3 N29_3 1_555 1_555
C18_3 N31_3 1_555 1_555
C19_2 N32_3 1_555 1_555
C27_3 N4_3 1_555 1_555
C29_3 N6_3 1_555 1_555
C30_2 N7_2 1_555 1_555
H5_3 C5_3 1_555 1_555
H7_3 C7_3 1_555 1_555
H8_2 C8_2 1_555 1_555
H14_4 C14_4 1_555 1_555
H16_3 C16_3 1_555 1_555
H18_3 C18_3 1_555 1_555
H19_2 C19_2 1_555 1_555
H27_3 C27_3 1_555 1_555
H29_3 C29_3 1_555 1_555
H30_2 C30_2 1_555 1_555
C2_2 C3_2 1_555 1_555
C16_3 C27_3 1_555 1_555
C18_3 C29_3 1_555 1_555
C19_2 C30_2 1_555 1_555
In5_9 N27_5 1_555 1_555
N11_4 Zn4_4 1_555 1_555
N13_4 Zn4_4 1_555 1_555
N27_5 C13_5 1_555 1_555
C13_5 N13_4 1_555 1_555
C24_5 N27_5 1_555 1_555
C35_5 N13_4 1_555 1_555
H12_5 C12_5 1_555 1_555
H13_5 C13_5 1_555 1_555
H24_5 C24_5 1_555 1_555
H35_5 C35_5 1_555 1_555
C24_5 C35_5 1_555 1_555
Zn1_4 N3_3 1_555 1_555
N1_3 C1_3 1_555 1_555
N29_2 C1_3 1_555 1_555
C1_3 H1_3 1_555 1_555
C2_3 N29_2 1_555 1_555
C3_3 N1_3 1_555 1_555
H2_3 C2_3 1_555 1_555
H3_3 C3_3 1_555 1_555
In2_2 N22_3 1_555 1_555
In6_3 N23_5 1_555 1_555
In4_6 N24_4 1_555 1_555
In3 N25_5 1_555 1_555
In7_3 N26_5 1_555 1_555
Zn2_4 N1_3 1_555 1_555
Zn4_5 N5_3 1_555 1_555
Zn6_5 N7_3 1_555 1_555
N3_3 C4_3 1_555 1_555
N5_3 C6_3 1_555 1_555
N7_3 C8_3 1_555 1_555
N8_5 Zn1_4 1_555 1_555
N9_5 Zn1_4 1_555 1_555
N10_5 Zn1_4 1_555 1_555
N12_4 Zn4_5 1_555 1_555
N14_3 Zn6_5 1_555 1_555
N15_3 Zn6_5 1_555 1_555
N16_3 Zn6_5 1_555 1_555
N23_5 C9_5 1_555 1_555
N24_4 C10_5 1_555 1_555
N25_5 C11_5 1_555 1_555
N28_5 In2_2 1_555 1_555
N29_5 In2_2 1_555 1_555
C4_3 N30_2 1_555 1_555
C6_3 N32_2 1_555 1_555
C8_3 N31_2 1_555 1_555
C9_5 N8_5 1_555 1_555
C10_5 N9_5 1_555 1_555
C11_5 N10_5 1_555 1_555
C14_5 N14_3 1_555 1_555
C15_3 N30_2 1_555 1_555
C17_3 N32_2 1_555 1_555
C19_3 N31_2 1_555 1_555
C20_5 N23_5 1_555 1_555
C21_5 N24_4 1_555 1_555
C22_5 N25_5 1_555 1_555
C23_5 N26_5 1_555 1_555
C25_5 N28_5 1_555 1_555
C26_3 N3_3 1_555 1_555
C28_3 N5_3 1_555 1_555
C30_3 N7_3 1_555 1_555
C31_5 N8_5 1_555 1_555
C32_5 N9_5 1_555 1_555
C33_5 N10_5 1_555 1_555
C34_5 N12_4 1_555 1_555
C36_5 N14_3 1_555 1_555
H4_3 C4_3 1_555 1_555
H6_3 C6_3 1_555 1_555
H8_3 C8_3 1_555 1_555
H9_5 C9_5 1_555 1_555
H10_5 C10_5 1_555 1_555
H11_5 C11_5 1_555 1_555
H14_5 C14_5 1_555 1_555
H15_3 C15_3 1_555 1_555
H17_3 C17_3 1_555 1_555
H19_3 C19_3 1_555 1_555
H20_5 C20_5 1_555 1_555
H21_5 C21_5 1_555 1_555
H22_5 C22_5 1_555 1_555
H23_5 C23_5 1_555 1_555
H25_5 C25_5 1_555 1_555
H26_3 C26_3 1_555 1_555
H28_3 C28_3 1_555 1_555
H30_3 C30_3 1_555 1_555
H31_5 C31_5 1_555 1_555
H32_5 C32_5 1_555 1_555
H33_5 C33_5 1_555 1_555
H34_5 C34_5 1_555 1_555
H36_5 C36_5 1_555 1_555
C2_3 C3_3 1_555 1_555
N28_5 C14_5 1_555 1_555
C15_3 C26_3 1_555 1_555
C17_3 C28_3 1_555 1_555
C19_3 C30_3 1_555 1_555
C20_5 C31_5 1_555 1_555
C21_5 C32_5 1_555 1_555
C22_5 C33_5 1_555 1_555
C23_5 C34_5 1_555 1_555
C25_5 C36_5 1_555 1_555
N30_5 In2_3 1_555 1_555
N31_5 In2_3 1_555 1_555
N32_4 In2_3 1_555 1_555
In5_9 N27_6 1_555 1_555
N11_5 Zn5_3 1_555 1_555
N13_5 Zn5_3 1_555 1_555
N27_6 C13_6 1_555 1_555
C13_6 N13_5 1_555 1_555
C24_6 N27_6 1_555 1_555
C35_6 N13_5 1_555 1_555
H12_6 C12_6 1_555 1_555
H13_6 C13_6 1_555 1_555
H24_6 C24_6 1_555 1_555
H35_6 C35_6 1_555 1_555
C24_6 C35_6 1_555 1_555
In6_3 N23_6 1_555 1_555
In6_2 N25_6 1_555 1_555
In5_7 N26_6 1_555 1_555
N8_6 Zn3_3 1_555 1_555
N9_6 Zn3_3 1_555 1_555
N10_6 Zn3_3 1_555 1_555
N12_5 Zn5_4 1_555 1_555
N23_6 C9_6 1_555 1_555
N31_5 C10_6 1_555 1_555
N25_6 C11_6 1_555 1_555
C9_6 N8_6 1_555 1_555
C10_6 N9_6 1_555 1_555
C11_6 N10_6 1_555 1_555
C14_6 N11_3 1_555 1_555
C20_6 N23_6 1_555 1_555
C21_6 N31_5 1_555 1_555
C22_6 N25_6 1_555 1_555
C23_6 N26_6 1_555 1_555
C25_6 N30_4 1_555 1_555
C31_6 N8_6 1_555 1_555
C32_6 N9_6 1_555 1_555
C33_6 N10_6 1_555 1_555
C34_6 N12_5 1_555 1_555
C36_6 N11_3 1_555 1_555
H9_6 C9_6 1_555 1_555
H10_6 C10_6 1_555 1_555
H11_6 C11_6 1_555 1_555
H14_6 C14_6 1_555 1_555
H20_6 C20_6 1_555 1_555
H21_6 C21_6 1_555 1_555
H22_6 C22_6 1_555 1_555
H23_6 C23_6 1_555 1_555
H25_6 C25_6 1_555 1_555
H31_6 C31_6 1_555 1_555
H32_6 C32_6 1_555 1_555
H33_6 C33_6 1_555 1_555
H34_6 C34_6 1_555 1_555
H36_6 C36_6 1_555 1_555
N30_4 C14_6 1_555 1_555
C20_6 C31_6 1_555 1_555
C21_6 C32_6 1_555 1_555
C22_6 C33_6 1_555 1_555
C23_6 C34_6 1_555 1_555
C25_6 C36_6 1_555 1_555
N28_6 In4_5 1_555 1_555
N30_6 In4_5 1_555 1_555
N32_5 In4_5 1_555 1_555
C25_7 N28_6 1_555 1_555
C36_7 N11_4 1_555 1_555
H25_7 C25_7 1_555 1_555
H36_7 C36_7 1_555 1_555
C25_7 C36_7 1_555 1_555
N29_6 In4_6 1_555 1_555
N31_6 In4_6 1_555 1_555
H14_7 C14_7 1_555 1_555
In5_5 N23_7 1_555 1_555
In5_9 N25_7 1_555 1_555
In6_3 N26_7 1_555 1_555
In6_2 N27_7 1_555 1_555
N8_7 Zn3_4 1_555 1_555
N9_7 Zn3_4 1_555 1_555
N10_7 Zn3_4 1_555 1_555
N11_6 Zn5_5 1_555 1_555
N12_6 Zn5_5 1_555 1_555
N13_6 Zn5_5 1_555 1_555
N23_7 C9_7 1_555 1_555
N32_5 C10_7 1_555 1_555
N25_7 C11_7 1_555 1_555
N26_7 C12_7 1_555 1_555
N27_7 C13_7 1_555 1_555
C9_7 N8_7 1_555 1_555
C10_7 N9_7 1_555 1_555
C11_7 N10_7 1_555 1_555
C12_7 N12_6 1_555 1_555
C13_7 N13_6 1_555 1_555
C20_7 N23_7 1_555 1_555
C21_7 N32_5 1_555 1_555
C22_7 N25_7 1_555 1_555
C23_7 N26_7 1_555 1_555
C24_7 N27_7 1_555 1_555
C31_7 N8_7 1_555 1_555
C32_7 N9_7 1_555 1_555
C33_7 N10_7 1_555 1_555
C34_7 N12_6 1_555 1_555
C35_7 N13_6 1_555 1_555
H9_7 C9_7 1_555 1_555
H10_7 C10_7 1_555 1_555
H11_7 C11_7 1_555 1_555
H12_7 C12_7 1_555 1_555
H13_7 C13_7 1_555 1_555
H22_7 C22_7 1_555 1_555
H23_7 C23_7 1_555 1_555
H24_7 C24_7 1_555 1_555
H31_7 C31_7 1_555 1_555
H32_7 C32_7 1_555 1_555
H33_7 C33_7 1_555 1_555
H34_7 C34_7 1_555 1_555
H35_7 C35_7 1_555 1_555
C20_7 C31_7 1_555 1_555
C21_7 C32_7 1_555 1_555
C22_7 C33_7 1_555 1_555
C23_7 C34_7 1_555 1_555
C24_7 C35_7 1_555 1_555
C25_8 N29_5 1_555 1_555
C36_8 N11_5 1_555 1_555
H25_8 C25_8 1_555 1_555
H36_8 C36_8 1_555 1_555
C25_8 C36_8 1_555 1_555
H14_8 C14_8 1_555 1_555
In5_9 N27_8 1_555 1_555
N27_8 C13_8 1_555 1_555
C13_8 N16_2 1_555 1_555
C24_8 N27_8 1_555 1_555
C35_8 N16_2 1_555 1_555
H12_8 C12_8 1_555 1_555
H13_8 C13_8 1_555 1_555
H24_8 C24_8 1_555 1_555
H35_8 C35_8 1_555 1_555
C24_8 C35_8 1_555 1_555
In6_3 N23_8 1_555 1_555
In6 N25_8 1_555 1_555
In5_2 N26_8 1_555 1_555
N8_8 Zn2_3 1_555 1_555
N9_8 Zn2_3 1_555 1_555
N10_8 Zn2_3 1_555 1_555
N23_8 C9_8 1_555 1_555
N22_2 C10_8 1_555 1_555
N25_8 C11_8 1_555 1_555
C9_8 N8_8 1_555 1_555
C10_8 N9_8 1_555 1_555
C11_8 N10_8 1_555 1_555
C14_9 N11_6 1_555 1_555
C20_8 N23_8 1_555 1_555
C21_8 N22_2 1_555 1_555
C22_8 N25_8 1_555 1_555
C23_8 N26_8 1_555 1_555
C25_9 N30_6 1_555 1_555
C31_8 N8_8 1_555 1_555
C32_8 N9_8 1_555 1_555
C33_8 N10_8 1_555 1_555
C34_8 N15_2 1_555 1_555
C36_9 N11_6 1_555 1_555
H9_8 C9_8 1_555 1_555
H10_8 C10_8 1_555 1_555
H11_8 C11_8 1_555 1_555
H14_9 C14_9 1_555 1_555
H20_8 C20_8 1_555 1_555
H21_8 C21_8 1_555 1_555
H22_8 C22_8 1_555 1_555
H23_8 C23_8 1_555 1_555
H25_9 C25_9 1_555 1_555
H31_8 C31_8 1_555 1_555
H32_8 C32_8 1_555 1_555
H33_8 C33_8 1_555 1_555
H34_8 C34_8 1_555 1_555
H36_9 C36_9 1_555 1_555
N30_6 C14_9 1_555 1_555
C20_8 C31_8 1_555 1_555
C21_8 C32_8 1_555 1_555
C22_8 C33_8 1_555 1_555
C23_8 C34_8 1_555 1_555
C25_9 C36_9 1_555 1_555
In5 N23_9 1_555 1_555
In5_9 N25_9 1_555 1_555
In6_3 N26_9 1_555 1_555
In6 N27_9 1_555 1_555
N8_9 Zn2_4 1_555 1_555
N9_9 Zn2_4 1_555 1_555
N10_9 Zn2_4 1_555 1_555
N23_9 C9_9 1_555 1_555
N22_3 C10_9 1_555 1_555
N25_9 C11_9 1_555 1_555
N26_9 C12_9 1_555 1_555
N27_9 C13_9 1_555 1_555
C9_9 N8_9 1_555 1_555
C10_9 N9_9 1_555 1_555
C11_9 N10_9 1_555 1_555
C12_9 N15_3 1_555 1_555
C13_9 N16_3 1_555 1_555
C20_9 N23_9 1_555 1_555
C21_9 N22_3 1_555 1_555
C22_9 N25_9 1_555 1_555
C23_9 N26_9 1_555 1_555
C24_9 N27_9 1_555 1_555
C31_9 N8_9 1_555 1_555
C32_9 N9_9 1_555 1_555
C33_9 N10_9 1_555 1_555
C34_9 N15_3 1_555 1_555
C35_9 N16_3 1_555 1_555
H9_9 C9_9 1_555 1_555
H10_9 C10_9 1_555 1_555
H11_9 C11_9 1_555 1_555
H12_9 C12_9 1_555 1_555
H13_9 C13_9 1_555 1_555
H22_9 C22_9 1_555 1_555
H23_9 C23_9 1_555 1_555
H24_9 C24_9 1_555 1_555
H31_9 C31_9 1_555 1_555
H32_9 C32_9 1_555 1_555
H33_9 C33_9 1_555 1_555
H34_9 C34_9 1_555 1_555
H35_9 C35_9 1_555 1_555
C20_9 C31_9 1_555 1_555
C21_9 C32_9 1_555 1_555
C22_9 C33_9 1_555 1_555
C23_9 C34_9 1_555 1_555
C24_9 C35_9 1_555 1_555
N29_7 In6 1_555 1_555
N32_6 In6 1_555 1_555
N29_8 In6_2 1_555 1_555
N32_7 In6_2 1_555 1_555
N29_9 In3 1_555 1_555
N32_8 In3 1_555 1_555
Zn1_5 N3_4 1_555 1_555
In5_6 N24_5 1_555 1_555
Zn5_6 N6_4 1_555 1_555
N3_4 C4_4 1_555 1_555
N6_4 C7_4 1_555 1_555
N9_10 Zn1_5 1_555 1_555
C4_4 N29_7 1_555 1_555
C7_4 N32_6 1_555 1_555
C15_4 N29_7 1_555 1_555
C18_4 N32_6 1_555 1_555
C21_10 N24_5 1_555 1_555
C26_4 N3_4 1_555 1_555
C29_4 N6_4 1_555 1_555
C32_10 N9_10 1_555 1_555
H4_4 C4_4 1_555 1_555
H7_4 C7_4 1_555 1_555
H9_10 C9_10 1_555 1_555
H15_4 C15_4 1_555 1_555
H18_4 C18_4 1_555 1_555
H21_10 C21_10 1_555 1_555
H26_4 C26_4 1_555 1_555
H29_4 C29_4 1_555 1_555
H32_10 C32_10 1_555 1_555
C15_4 C26_4 1_555 1_555
C18_4 C29_4 1_555 1_555
C21_10 C32_10 1_555 1_555
In5_10 N25_10 1_555 1_555
N8_10 Zn1_6 1_555 1_555
N10_10 Zn1_6 1_555 1_555
N25_10 C11_10 1_555 1_555
C11_10 N10_10 1_555 1_555
C20_10 N32_4 1_555 1_555
C22_10 N25_10 1_555 1_555
C31_10 N8_10 1_555 1_555
C33_10 N10_10 1_555 1_555
H10_10 C10_10 1_555 1_555
H11_10 C11_10 1_555 1_555
H20_10 C20_10 1_555 1_555
H22_10 C22_10 1_555 1_555
H31_10 C31_10 1_555 1_555
H33_10 C33_10 1_555 1_555
C20_10 C31_10 1_555 1_555
C22_10 C33_10 1_555 1_555
N31_7 In5_3 1_555 1_555
N30_7 In5_4 1_555 1_555
Zn3_5 N4_4 1_555 1_555
Zn6_6 N7_4 1_555 1_555
N4_4 C5_4 1_555 1_555
N7_4 C8_4 1_555 1_555
N14_4 Zn6_6 1_555 1_555
N15_4 Zn6_6 1_555 1_555
N16_4 Zn6_6 1_555 1_555
N28_7 In5_8 1_555 1_555
C5_4 N29_9 1_555 1_555
C8_4 N32_8 1_555 1_555
C14_10 N14_4 1_555 1_555
C16_4 N29_9 1_555 1_555
C19_4 N32_8 1_555 1_555
C25_10 N28_7 1_555 1_555
C27_4 N4_4 1_555 1_555
C30_4 N7_4 1_555 1_555
C36_10 N14_4 1_555 1_555
H5_4 C5_4 1_555 1_555
H8_4 C8_4 1_555 1_555
H14_10 C14_10 1_555 1_555
H16_4 C16_4 1_555 1_555
H19_4 C19_4 1_555 1_555
H27_4 C27_4 1_555 1_555
H30_4 C30_4 1_555 1_555
H36_10 C36_10 1_555 1_555
N28_7 C14_10 1_555 1_555
C16_4 C27_4 1_555 1_555
C19_4 C30_4 1_555 1_555
C25_10 C36_10 1_555 1_555
N1_4 C1_4 1_555 1_555
N29_8 C1_4 1_555 1_555
C1_4 H1_4 1_555 1_555
C2_4 N29_8 1_555 1_555
C3_4 N1_4 1_555 1_555
H2_4 C2_4 1_555 1_555
H3_4 C3_4 1_555 1_555
In7_2 N22_4 1_555 1_555
In5_10 N27_10 1_555 1_555
Zn2_5 N1_4 1_555 1_555
Zn4_6 N5_4 1_555 1_555
N5_4 C6_4 1_555 1_555
N11_7 Zn4_6 1_555 1_555
N12_7 Zn4_6 1_555 1_555
N13_7 Zn4_6 1_555 1_555
N30_5 C12_10 1_555 1_555
N27_10 C13_10 1_555 1_555
C6_4 N32_7 1_555 1_555
C12_10 N12_7 1_555 1_555
C13_10 N13_7 1_555 1_555
C17_4 N32_7 1_555 1_555
C23_10 N30_5 1_555 1_555
C24_10 N27_10 1_555 1_555
C28_4 N5_4 1_555 1_555
C34_10 N12_7 1_555 1_555
C35_10 N13_7 1_555 1_555
H6_4 C6_4 1_555 1_555
H12_10 C12_10 1_555 1_555
H13_10 C13_10 1_555 1_555
H17_4 C17_4 1_555 1_555
H24_10 C24_10 1_555 1_555
H28_4 C28_4 1_555 1_555
H34_10 C34_10 1_555 1_555
H35_10 C35_10 1_555 1_555
C2_4 C3_4 1_555 1_555
C17_4 C28_4 1_555 1_555
C23_10 C34_10 1_555 1_555
C24_10 C35_10 1_555 1_555
N29_10 In7_4 1_555 1_555
In5_10 N27_11 1_555 1_555
N11_8 Zn5_6 1_555 1_555
N12_8 Zn5_6 1_555 1_555
N13_8 Zn5_6 1_555 1_555
N29_4 C12_11 1_555 1_555
N27_11 C13_11 1_555 1_555
C12_11 N12_8 1_555 1_555
C13_11 N13_8 1_555 1_555
C23_11 N29_4 1_555 1_555
C24_11 N27_11 1_555 1_555
C34_11 N12_8 1_555 1_555
C35_11 N13_8 1_555 1_555
H12_11 C12_11 1_555 1_555
H13_11 C13_11 1_555 1_555
H24_11 C24_11 1_555 1_555
H34_11 C34_11 1_555 1_555
H35_11 C35_11 1_555 1_555
C23_11 C34_11 1_555 1_555
C24_11 C35_11 1_555 1_555
C14_11 N11_7 1_555 1_555
C25_11 N30_7 1_555 1_555
C36_11 N11_7 1_555 1_555
H14_11 C14_11 1_555 1_555
H36_11 C36_11 1_555 1_555
N30_7 C14_11 1_555 1_555
C25_11 C36_11 1_555 1_555
N9_11 Zn3_5 1_555 1_555
C21_11 N31_7 1_555 1_555
C32_11 N9_11 1_555 1_555
H9_11 C9_11 1_555 1_555
H21_11 C21_11 1_555 1_555
H32_11 C32_11 1_555 1_555
C21_11 C32_11 1_555 1_555
In5_10 N25_11 1_555 1_555
N8_11 Zn3_6 1_555 1_555
N10_11 Zn3_6 1_555 1_555
N25_11 C11_11 1_555 1_555
C11_11 N10_11 1_555 1_555
C20_11 N31_4 1_555 1_555
C22_11 N25_11 1_555 1_555
C31_11 N8_11 1_555 1_555
C33_11 N10_11 1_555 1_555
H10_11 C10_11 1_555 1_555
H11_11 C11_11 1_555 1_555
H20_11 C20_11 1_555 1_555
H22_11 C22_11 1_555 1_555
H31_11 C31_11 1_555 1_555
H33_11 C33_11 1_555 1_555
C20_11 C31_11 1_555 1_555
C22_11 C33_11 1_555 1_555
C14_12 N11_8 1_555 1_555
C25_12 N29_10 1_555 1_555
C36_12 N11_8 1_555 1_555
H14_12 C14_12 1_555 1_555
H36_12 C36_12 1_555 1_555
N29_10 C14_12 1_555 1_555
C25_12 C36_12 1_555 1_555
In5_10 N27_12 1_555 1_555
N29_6 C12_12 1_555 1_555
N27_12 C13_12 1_555 1_555
C12_12 N15_4 1_555 1_555
C13_12 N16_4 1_555 1_555
C23_12 N29_6 1_555 1_555
C24_12 N27_12 1_555 1_555
C34_12 N15_4 1_555 1_555
C35_12 N16_4 1_555 1_555
H12_12 C12_12 1_555 1_555
H13_12 C13_12 1_555 1_555
H24_12 C24_12 1_555 1_555
H34_12 C34_12 1_555 1_555
H35_12 C35_12 1_555 1_555
C23_12 C34_12 1_555 1_555
C24_12 C35_12 1_555 1_555
N9_12 Zn2_5 1_555 1_555
C21_12 N22_4 1_555 1_555
C32_12 N9_12 1_555 1_555
H9_12 C9_12 1_555 1_555
H21_12 C21_12 1_555 1_555
H32_12 C32_12 1_555 1_555
C21_12 C32_12 1_555 1_555
In5_10 N25_12 1_555 1_555
N8_12 Zn2_6 1_555 1_555
N10_12 Zn2_6 1_555 1_555
N25_12 C11_12 1_555 1_555
C11_12 N10_12 1_555 1_555
C20_12 N31_6 1_555 1_555
C22_12 N25_12 1_555 1_555
C31_12 N8_12 1_555 1_555
C33_12 N10_12 1_555 1_555
H10_12 C10_12 1_555 1_555
H11_12 C11_12 1_555 1_555
H20_12 C20_12 1_555 1_555
H22_12 C22_12 1_555 1_555
H31_12 C31_12 1_555 1_555
H33_12 C33_12 1_555 1_555
C20_12 C31_12 1_555 1_555
C22_12 C33_12 1_555 1_555

#END
