
###############################################################################
#
# This file contains modified crystal structure data generated from the
# MOF subset of the Cambridge Structural Database (CSD) v543 
# hosted by the Cambridge Crystallographic Data Centre (CCDC).
#
# This work is licensed under the Creative Commons
# Attribution-NonCommercial-ShareAlike 4.0 International License.
# To view a copy of this license, visit
# http://creativecommons.org/licenses/by-nc-sa/4.0/
# or send a letter to
# Creative Commons, PO Box 1866, Mountain View, CA 94042, USA.
#
# CIF created using the CSD Python API on 29 September 2022
# The structure has been converted into the P1 space group
# The structure has a 3D framework
# The original CSD entry VELBAQ is in the triclinic crystal system
# The original CSD entry VELBAQ is in a Sohncke space group
# The framework has been calculated to contain at least 10.0% void space
# The void calculation uses a probe of radius 1.32A, grid spacing 0.4
#
###############################################################################

data_VELBAQ
_chemical_formula_moiety         '(C132 H116 Cl2 Mn2 N8 O20 Zn4)n'
_symmetry_cell_setting           triclinic
_symmetry_space_group_name_H-M   'P 1'
_symmetry_Int_Tables_number      1
_space_group_name_Hall           'P 1'
loop_
_symmetry_equiv_pos_site_id
_symmetry_equiv_pos_as_xyz
1 x,y,z
_cell_length_a                   15.1376(18)
_cell_length_b                   15.2092(18)
_cell_length_c                   26.300(3)
_cell_angle_alpha                73.271(2)
_cell_angle_beta                 77.508(2)
_cell_angle_gamma                82.596(2)
_cell_volume                     5647.14
loop_
_atom_site_label
_atom_site_type_symbol
_atom_site_fract_x
_atom_site_fract_y
_atom_site_fract_z
_atom_site_U_iso_or_equiv
_atom_site_thermal_displace_type
O3 O 0.25181(9) 0.54558(11) 0.38745(5) 0.0442 Uani
O4 O 0.22846(10) 0.47491(9) 0.47532(5) 0.0346 Uani
C10 C 0.06788(14) 0.57715(16) 0.38431(8) 0.0357 Uani
H6 H 0.1075 0.6177 0.3574 0.0430 Uiso
C11 C 0.10245(13) 0.51562(14) 0.42930(8) 0.0256 Uani
C12 C 0.04359(17) 0.45868(18) 0.46861(10) 0.0534 Uani
H7 H 0.0649 0.4186 0.4992 0.0640 Uiso
C14 C 0.20441(14) 0.50943(14) 0.43015(9) 0.0290 Uani
Zn3 Zn 0.389840(14) 0.538786(14) 0.361877(9) 0.0276 Uani
Zn5 Zn 0.354173(14) 0.482783(14) 0.481847(9) 0.0257 Uani
O1 O 0.52400(10) 0.51999(10) 0.36268(5) 0.0412 Uani
O2 O 0.49158(9) 0.50159(9) 0.45470(5) 0.0317 Uani
O5 O 0.37879(9) 0.35176(9) 0.47344(5) 0.0310 Uani
O6 O 0.38001(10) 0.40041(11) 0.38539(6) 0.0440 Uani
N1 N 0.38921(11) 0.55712(12) 0.28342(7) 0.0308 Uani
C1 C 0.54663(14) 0.51306(14) 0.40979(7) 0.0264 Uani
C2 C 0.63912(13) 0.51744(14) 0.41164(9) 0.0286 Uani
C3 C 0.70711(15) 0.53660(16) 0.36322(8) 0.0434 Uani
H1 H 0.6893 0.5506 0.3291 0.0520 Uiso
C4 C 0.79457(16) 0.53517(18) 0.36497(9) 0.0506 Uani
H2 H 0.8384 0.5449 0.3324 0.0610 Uiso
C5 C 0.82286(13) 0.51930(15) 0.41504(9) 0.0335 Uani
C6 C 0.75712(14) 0.49576(15) 0.46674(9) 0.0361 Uani
H3 H 0.7756 0.4789 0.5008 0.0430 Uiso
C7 C 0.66213(13) 0.50011(14) 0.46209(8) 0.0304 Uani
H4 H 0.6160 0.4911 0.4936 0.0360 Uiso
C8 C 0.92282(14) 0.51888(16) 0.42023(8) 0.0397 Uani
C9 C 0.97966(14) 0.57939(16) 0.37894(9) 0.0386 Uani
H5 H 0.9576 0.6199 0.3487 0.0460 Uiso
C13 C 0.95722(15) 0.45872(17) 0.46450(9) 0.0497 Uani
H8 H 0.9184 0.4177 0.4917 0.0600 Uiso
C15 C 0.37899(13) 0.34008(13) 0.42932(7) 0.0190 Uiso
C16 C 0.37112(14) 0.24343(14) 0.42673(7) 0.0252 Uani
C17 C 0.37260(15) 0.21719(15) 0.37884(9) 0.0408 Uani
H9 H 0.3771 0.2624 0.3450 0.0490 Uiso
C18 C 0.36777(16) 0.13014(16) 0.38150(9) 0.0487 Uani
H10 H 0.3725 0.1156 0.3482 0.0580 Uiso
C19 C 0.35698(17) 0.06113(15) 0.42560(8) 0.0428 Uani
C20 C 0.36164(16) 0.07839(15) 0.47155(10) 0.0447 Uani
H11 H 0.3569 0.0289 0.5035 0.0540 Uiso
C21 C 0.37345(16) 0.16740(14) 0.47532(9) 0.0380 Uani
H12 H 0.3824 0.1769 0.5079 0.0460 Uiso
C29 C 0.44814(15) 0.52382(15) 0.25187(9) 0.0402 Uani
H17 H 0.5013 0.4976 0.2659 0.0480 Uiso
C30 C 0.45028(15) 0.51804(18) 0.20039(9) 0.0516 Uani
H18 H 0.5028 0.4945 0.1799 0.0620 Uiso
C31 C 0.37385(19) 0.5475(2) 0.18089(10) 0.0697 Uani
C32 C 0.30414(16) 0.60158(16) 0.21117(9) 0.0454 Uani
H19 H 0.2553 0.6384 0.1965 0.0540 Uiso
C33 C 0.31711(16) 0.59309(19) 0.26104(9) 0.0528 Uani
H20 H 0.2677 0.6161 0.2839 0.0630 Uiso
C34 C 0.3610(2) 0.5314(2) 0.12917(10) 0.0805 Uani
C35 C 0.42842(16) 0.5112(2) 0.09135(10) 0.0684 Uani
H21 H 0.4881 0.5079 0.0982 0.0820 Uiso
C36 C 0.42180(16) 0.4950(2) 0.04464(9) 0.0654 Uani
C37 C 0.33074(17) 0.5011(2) 0.03449(8) 0.0560 Uani
C38 C 0.2529(2) 0.5463(2) 0.06323(12) 0.0993 Uani
C39 C 0.26612(19) 0.5459(2) 0.11242(10) 0.0837 Uani
H22 H 0.2143 0.5550 0.1386 0.1010 Uiso
C40 C 0.50076(17) 0.47427(19) 0.01063(9) 0.0622 Uani
H23 H 0.5564 0.4786 0.0206 0.0740 Uiso
C41 C 0.1520(2) 0.5328(3) 0.06108(13) 0.1195 Uani
C42 C 0.1515(2) 0.6194(3) 0.00602(12) 0.1613 Uani
H26 H 0.1562 0.6771 0.0145 0.2420 Uiso
C43 C 0.0886(3) 0.5317(4) 0.11450(16) 0.1973 Uani
H27 H 0.0272 0.5216 0.1121 0.2960 Uiso
H28 H 0.0881 0.5908 0.1226 0.2960 Uiso
H29 H 0.1096 0.4820 0.1433 0.2960 Uiso
C44 C 0.1356(2) 0.4501(3) 0.05529(13) 0.1853 Uani
H30 H 0.0755 0.4547 0.0461 0.2780 Uiso
H31 H 0.1379 0.4023 0.0892 0.2780 Uiso
H32 H 0.1818 0.4341 0.0263 0.2780 Uiso
O13 O 0.33291(10) 0.62423(9) 0.46351(6) 0.0357 Uani
O14 O 0.39303(10) 0.66114(10) 0.37489(5) 0.0411 Uani
N5 N 0.34707(10) 0.46560(11) 0.56293(6) 0.0243 Uani
Mn1 Mn 0.39840(2) 0.44900(3) 0.931555(14) 0.0657 Uani
Cl1 Cl 0.38584(9) 0.30768(11) 0.96209(6) 0.1874 Uani
O9 O 0.31393(14) 0.47961(19) 0.98937(7) 0.1161 Uani
O10 O 0.30518(14) 0.46788(16) 0.88771(7) 0.1086 Uani
N2 N 0.50676(14) 0.44879(14) 0.96532(8) 0.0579 Uani
N3 N 0.50089(13) 0.46786(15) 0.86569(7) 0.0617 Uani
H24 H 0.0949 0.6227 0.9930 0.2420 Uiso
H25 H 0.2032 0.6098 0.9780 0.2420 Uiso
C45 C 0.58983(18) 0.4294(2) 0.92920(10) 0.0629 Uani
H33 H 0.5918 0.3628 0.9306 0.0750 Uiso
C46 C 0.58375(17) 0.4793(2) 0.87580(9) 0.0734 Uani
H34 H 0.5786 0.5450 0.8769 0.0880 Uiso
C47 C 0.67371(17) 0.4719(2) 0.83286(9) 0.0651 Uani
H35 H 0.6791 0.4106 0.8259 0.0780 Uiso
H36 H 0.6675 0.5186 0.7985 0.0780 Uiso
C48 C 0.75816(15) 0.4844(2) 0.84805(9) 0.0714 Uani
H37 H 0.8107 0.4662 0.8225 0.0860 Uiso
H38 H 0.7610 0.5502 0.8455 0.0860 Uiso
C49 C 0.7637(2) 0.4294(3) 0.90291(13) 0.1259 Uani
H39 H 0.8200 0.4426 0.9118 0.1520 Uiso
H40 H 0.7694 0.3637 0.9033 0.1520 Uiso
C50 C 0.6844(2) 0.4437(3) 0.94780(12) 0.1202 Uani
H41 H 0.6824 0.5064 0.9523 0.1440 Uiso
H42 H 0.6911 0.3985 0.9825 0.1440 Uiso
C51 C 0.48285(19) 0.47595(19) 0.81652(11) 0.0640 Uiso
H43 H 0.5323 0.4917 0.7872 0.0770 Uiso
C52 C 0.39948(16) 0.46422(17) 0.80191(8) 0.0502 Uani
C53 C 0.40261(17) 0.46681(18) 0.75014(9) 0.0526 Uani
H44 H 0.4600 0.4724 0.7266 0.0630 Uiso
C54 C 0.33143(16) 0.46217(19) 0.72946(9) 0.0529 Uani
C55 C 0.25007(18) 0.4555(2) 0.76450(10) 0.0686 Uani
H45 H 0.1981 0.4489 0.7515 0.0820 Uiso
C56 C 0.2382(2) 0.4577(2) 0.81837(11) 0.0946 Uani
C57 C 0.32054(15) 0.46333(19) 0.83708(8) 0.0590 Uani
C58 C 0.1409(2) 0.4677(4) 0.86256(18) 0.2161 Uani
C59 C 0.06822(17) 0.4770(3) 0.81912(10) 0.1453 Uani
H46 H 0.0078 0.5001 0.8344 0.2180 Uiso
H47 H 0.0645 0.4164 0.8139 0.2180 Uiso
H48 H 0.0908 0.5198 0.7842 0.2180 Uiso
C60 C 0.1289(2) 0.3997(3) 0.90740(11) 0.1632 Uani
H49 H 0.0728 0.4132 0.9313 0.2450 Uiso
H50 H 0.1803 0.3930 0.9257 0.2450 Uiso
H51 H 0.1249 0.3423 0.8984 0.2450 Uiso
C61 C 0.1344(2) 0.5789(4) 0.85495(17) 0.2410 Uani
H52 H 0.0741 0.5985 0.8725 0.3620 Uiso
H53 H 0.1445 0.6111 0.8163 0.3620 Uiso
H54 H 0.1806 0.5938 0.8715 0.3620 Uiso
C62 C 0.33432(16) 0.45684(16) 0.67102(8) 0.0395 Uani
C63 C 0.41771(17) 0.45420(17) 0.63707(9) 0.0493 Uani
H55 H 0.4709 0.4508 0.6514 0.0590 Uiso
C64 C 0.42761(14) 0.45623(14) 0.58292(8) 0.0332 Uani
H56 H 0.4856 0.4516 0.5607 0.0400 Uiso
C65 C 0.26666(17) 0.47345(16) 0.59398(9) 0.0440 Uiso
H57 H 0.2139 0.4851 0.5783 0.0530 Uiso
C66 C 0.25731(15) 0.46507(17) 0.64913(8) 0.0465 Uani
H58 H 0.1988 0.4650 0.6714 0.0560 Uiso
C22 C 0.35700(17) 0.95937(16) 0.42545(9) 0.0440 Uani
C23 C 0.4042(2) 0.93458(16) 0.37677(10) 0.0631 Uani
H13 H 0.4384 0.9769 0.3476 0.0760 Uiso
C24 C 0.39609(18) 0.84366(16) 0.37538(10) 0.0535 Uani
H14 H 0.4178 0.8260 0.3428 0.0640 Uiso
C25 C 0.35813(16) 0.78292(15) 0.41973(9) 0.0408 Uani
C26 C 0.3238(2) 0.81506(17) 0.46368(9) 0.0628 Uani
H15 H 0.3008 0.7717 0.4965 0.0750 Uiso
C27 C 0.3202(2) 0.89728(16) 0.46423(10) 0.0635 Uani
H16 H 0.2879 0.9138 0.4957 0.0760 Uiso
C28 C 0.36220(15) 0.67885(14) 0.41851(8) 0.0345 Uani
O21 O 0.55018(9) 0.23848(10) 0.61138(5) 0.0343 Uani
O22 O 0.51234(8) 0.21667(10) 0.69958(5) 0.0375 Uani
C84 C 0.06106(16) 0.1656(2) 0.68174(10) 0.0689 Uani
H68 H 0.0845 0.1222 0.7105 0.0830 Uiso
C85 C 0.11954(13) 0.22420(17) 0.64225(8) 0.0387 Uani
C86 C 0.08626(14) 0.27941(19) 0.60286(10) 0.0583 Uani
H69 H 0.1241 0.3220 0.5761 0.0700 Uiso
C88 C 0.21080(15) 0.22448(16) 0.64396(8) 0.0414 Uani
C89 C 0.23726(13) 0.20198(17) 0.69433(9) 0.0484 Uani
H71 H 0.1929 0.1836 0.7262 0.0580 Uiso
C90 C 0.32909(15) 0.20584(18) 0.69918(10) 0.0520 Uani
H72 H 0.3455 0.1954 0.7334 0.0620 Uiso
C91 C 0.39210(13) 0.22528(16) 0.65220(8) 0.0359 Uani
C92 C 0.36338(13) 0.24057(15) 0.60401(8) 0.0363 Uani
H73 H 0.4067 0.2541 0.5713 0.0440 Uiso
C93 C 0.27903(14) 0.23711(16) 0.60182(8) 0.0453 Uani
H74 H 0.2650 0.2442 0.5673 0.0540 Uiso
C94 C 0.49566(13) 0.22592(14) 0.65493(8) 0.0321 Uani
H106 H 0.0285 0.2649 0.2088 0.2140 Uiso
Zn11 Zn 0.681994(13) 0.257094(13) 0.580835(8) 0.0235 Uani
Zn13 Zn 0.646528(13) 0.200988(13) 0.700983(8) 0.0236 Uani
O17 O 0.65018(10) 0.06998(9) 0.69013(6) 0.0404 Uani
O18 O 0.70757(9) 0.11372(8) 0.60200(5) 0.0306 Uani
C80 C 0.68148(13) 0.05662(14) 0.64368(8) 0.0307 Uani
Mn2 Mn 0.64323(5) 0.26865(6) 0.13389(2) 0.0585 Uani
Cl2 Cl 0.64859(16) 0.17638(18) 0.15523(8) 0.1441 Uani
O15 O 0.65444(10) 0.34371(8) 0.67865(5) 0.0354 Uani
O16 O 0.65779(9) 0.38663(9) 0.59000(5) 0.0344 Uani
O19 O 0.81474(8) 0.26198(10) 0.58887(5) 0.0320 Uani
O20 O 0.78346(9) 0.18827(9) 0.67852(5) 0.0290 Uani
O23 O 0.72226(11) 0.20277(15) 0.08449(6) 0.0994 Uani
O24 O 0.72728(11) 0.25001(15) 0.18117(6) 0.0832 Uani
N7 N 0.53142(13) 0.22361(16) 0.11304(7) 0.0679 Uani
N8 N 0.53797(13) 0.26638(15) 0.20162(6) 0.0573 Uani
N9 N 0.68784(10) 0.27161(10) 0.50345(6) 0.0251 Uani
C67 C 0.65902(14) 0.40459(14) 0.63608(8) 0.0310 Uiso
C68 C 0.65858(14) 0.50082(13) 0.63650(8) 0.0302 Uani
C69 C 0.66665(17) 0.51363(15) 0.68267(8) 0.0482 Uani
H59 H 0.6693 0.4633 0.7138 0.0580 Uiso
C70 C 0.67143(19) 0.61024(15) 0.68430(9) 0.0576 Uani
H60 H 0.6757 0.6219 0.7172 0.0690 Uiso
C71 C 0.66979(16) 0.68049(14) 0.63998(8) 0.0401 Uani
C72 C 0.66184(16) 0.66083(14) 0.59096(8) 0.0454 Uani
H61 H 0.6580 0.7088 0.5589 0.0540 Uiso
C73 C 0.65999(18) 0.57258(17) 0.59195(10) 0.0597 Uani
H62 H 0.6596 0.5595 0.5588 0.0720 Uiso
C74 C 0.67853(18) 0.77396(14) 0.64209(8) 0.0465 Uani
C75 C 0.64729(17) 0.80429(16) 0.68790(9) 0.0514 Uani
H63 H 0.6258 0.7600 0.7206 0.0620 Uiso
C76 C 0.64507(17) 0.89143(14) 0.68944(8) 0.0460 Uani
H64 H 0.6162 0.9082 0.7215 0.0550 Uiso
C77 C 0.68509(15) 0.95889(13) 0.64403(8) 0.0357 Uani
C78 C 0.72224(18) 0.93789(13) 0.59692(9) 0.0563 Uani
H65 H 0.7510 0.9830 0.5668 0.0680 Uiso
C79 C 0.7173(2) 0.84338(15) 0.59308(9) 0.0688 Uani
H66 H 0.7387 0.8279 0.5598 0.0820 Uiso
C81 C 0.83907(13) 0.22204(14) 0.63448(8) 0.0281 Uani
C82 C 0.93520(14) 0.21859(16) 0.63883(8) 0.0404 Uani
C83 C 0.96554(14) 0.16853(18) 0.68059(10) 0.0534 Uani
H67 H 0.9257 0.1336 0.7105 0.0640 Uiso
C87 C 0.99098(14) 0.27890(18) 0.59774(10) 0.0506 Uani
H70 H 0.9683 0.3184 0.5674 0.0610 Uiso
C102 C 0.62513(17) 0.2010(2) 0.02819(9) 0.0713 Uani
C103 C 0.70675(17) 0.19415(17) 0.04145(10) 0.0510 Uiso
C106 C 0.53403(16) 0.2070(2) 0.06775(9) 0.0648 Uani
H81 H 0.4793 0.1983 0.0583 0.0780 Uiso
C107 C 0.87989(18) 0.1723(2) 0.01055(10) 0.0766 Uani
C108 C 0.8971(2) 0.2576(2) 0.02632(12) 0.1445 Uani
H82 H 0.8480 0.2686 0.0554 0.2170 Uiso
H84 H 0.9551 0.2473 0.0388 0.2170 Uiso
C110 C 0.9002(3) 0.1013(3) 0.05535(12) 0.1336 Uani
H88 H 0.8576 0.1079 0.0881 0.2000 Uiso
H89 H 0.9623 0.1051 0.0595 0.2000 Uiso
H90 H 0.8949 0.0415 0.0496 0.2000 Uiso
C111 C 0.44613(16) 0.2227(2) 0.15079(8) 0.0829 Uani
H91 H 0.4439 0.1579 0.1740 0.1000 Uiso
C112 C 0.44489(18) 0.2773(3) 0.18757(11) 0.1132 Uani
H92 H 0.4449 0.3408 0.1626 0.1360 Uiso
C113 C 0.36749(15) 0.2867(2) 0.22914(10) 0.0665 Uani
H93 H 0.3750 0.3366 0.2448 0.0800 Uiso
H94 H 0.3613 0.2287 0.2584 0.0800 Uiso
C114 C 0.27876(19) 0.3108(2) 0.20159(10) 0.1005 Uani
H95 H 0.2234 0.3060 0.2300 0.1210 Uiso
H96 H 0.2791 0.3747 0.1782 0.1210 Uiso
C115 C 0.27768(18) 0.2450(3) 0.16820(10) 0.1230 Uani
H97 H 0.2696 0.1825 0.1929 0.1480 Uiso
H98 H 0.2244 0.2631 0.1503 0.1480 Uiso
C116 C 0.35948(15) 0.2407(2) 0.12647(9) 0.0975 Uani
H99 H 0.3623 0.2995 0.0977 0.1170 Uiso
H100 H 0.3559 0.1909 0.1098 0.1170 Uiso
C117 C 0.54769(16) 0.28336(18) 0.24495(9) 0.0545 Uani
H101 H 0.4956 0.3020 0.2679 0.0650 Uiso
C118 C 0.63508(17) 0.27520(19) 0.26014(8) 0.0551 Uani
C119 C 0.62866(15) 0.28476(16) 0.31498(8) 0.0452 Uani
H102 H 0.5710 0.2943 0.3365 0.0540 Uiso
C120 C 0.71006(14) 0.27955(15) 0.33594(8) 0.0370 Uani
C121 C 0.79666(16) 0.26442(18) 0.30002(9) 0.0565 Uani
H103 H 0.8512 0.2603 0.3132 0.0680 Uiso
C122 C 0.80318(14) 0.25620(18) 0.25034(8) 0.0590 Uani
C123 C 0.72675(18) 0.2538(2) 0.22920(10) 0.0769 Uani
C124 C 0.89650(18) 0.25738(19) 0.21262(8) 0.0608 Uani
C125 C 0.9725(2) 0.2644(3) 0.23580(14) 0.1429 Uani
H104 H 0.9767 0.2116 0.2673 0.2140 Uiso
H105 H 0.9641 0.3214 0.2471 0.2140 Uiso
C126 C 0.9170(2) 0.1773(2) 0.19491(14) 0.1170 Uiso
H107 H 0.9132 0.1233 0.2263 0.1750 Uiso
H108 H 0.9786 0.1781 0.1734 0.1750 Uiso
H109 H 0.8736 0.1746 0.1727 0.1750 Uiso
C127 C 0.9096(2) 0.3274(3) 0.16482(11) 0.1501 Uani
H110 H 0.8613 0.3296 0.1449 0.2250 Uiso
H111 H 0.9685 0.3157 0.1427 0.2250 Uiso
H112 H 0.9081 0.3864 0.1732 0.2250 Uiso
C128 C 0.70200(13) 0.27814(15) 0.39085(8) 0.0328 Uani
C129 C 0.61742(15) 0.27896(16) 0.42664(8) 0.0462 Uani
H113 H 0.5616 0.2828 0.4149 0.0560 Uiso
C130 C 0.62085(16) 0.27364(17) 0.48190(9) 0.0502 Uani
H114 H 0.5636 0.2713 0.5057 0.0600 Uiso
C131 C 0.76559(17) 0.27689(16) 0.46750(9) 0.0470 Uiso
H115 H 0.8196 0.2824 0.4789 0.0560 Uiso
C132 C 0.77163(17) 0.27483(19) 0.41508(9) 0.0624 Uani
H116 H 0.8308 0.2707 0.3941 0.0750 Uiso
N10 N 0.64924(11) 0.18006(12) 0.78220(6) 0.0354 Uani
C95 C 0.57736(15) 0.22537(15) 0.81041(8) 0.0396 Uani
H75 H 0.5248 0.2544 0.7966 0.0470 Uiso
C96 C 0.59323(16) 0.22261(17) 0.86445(9) 0.0552 Uani
H76 H 0.5486 0.2532 0.8861 0.0660 Uiso
C97 C 0.66790(14) 0.17899(15) 0.88549(7) 0.0317 Uani
C98 C 0.73228(19) 0.1454(2) 0.85131(10) 0.0964 Uani
H77 H 0.7893 0.1257 0.8619 0.1160 Uiso
C99 C 0.72310(16) 0.13645(15) 0.80043(8) 0.0459 Uani
H78 H 0.7667 0.1017 0.7807 0.0550 Uiso
C100 C 0.67977(15) 0.17896(16) 0.93870(8) 0.0435 Uani
C101 C 0.60224(18) 0.19328(17) 0.97669(9) 0.0575 Uani
H79 H 0.5420 0.1977 0.9706 0.0690 Uiso
C104 C 0.78347(17) 0.1910(3) 0.99399(9) 0.1059 Uani
C105 C 0.76414(17) 0.17402(19) 0.94949(8) 0.0698 Uani
H80 H 0.8137 0.1574 0.9241 0.0840 Uiso
H83 H 0.8993 0.3113 0.9948 0.2170 Uiso
C109 C 0.95521(17) 0.1619(3) 0.95990(10) 0.1105 Uani
H85 H 0.9430 0.1104 0.9477 0.1660 Uiso
H87 H 0.9542 0.2188 0.9306 0.1660 Uiso
H86 H 0.0150 0.1502 0.9702 0.1660 Uiso
loop_
_atom_site_aniso_label
_atom_site_aniso_U_11
_atom_site_aniso_U_22
_atom_site_aniso_U_33
_atom_site_aniso_U_23
_atom_site_aniso_U_13
_atom_site_aniso_U_12
O3 0.0278 0.0913 0.0217 -0.0274 0.0028 -0.0187
O4 0.0524 0.0234 0.0272 0.0011 -0.0133 -0.0081
C10 0.0255 0.0498 0.0293 -0.0115 -0.001 0.0017
C11 0.0305 0.0272 0.0211 -0.0012 -0.0167 -0.0015
C12 0.0497 0.0631 0.0313 0.0227 -0.0146 -0.0164
C14 0.0235 0.0241 0.0422 -0.0086 -0.0068 -0.011
Zn3 0.0247 0.03622 0.02802 -0.01834 -0.00476 -0.00211
Zn5 0.02345 0.0319 0.02719 -0.01491 -0.00529 -0.00428
O1 0.0371 0.0566 0.0489 -0.0378 -0.0183 0.0001
O2 0.017 0.0404 0.0434 -0.0238 0.0002 -0.0034
O5 0.0331 0.0237 0.0334 -0.0053 -0.0068 0.003
O6 0.0336 0.0631 0.0334 0 -0.0218 0
N1 0.0211 0.0363 0.0394 -0.0189 -0.0134 0.0159
C1 0.042 0.0223 0.0178 -0.0011 -0.0147 -0.0075
C2 0.0114 0.0302 0.0471 -0.0105 -0.0115 -0.0012
C3 0.0353 0.0837 0.0192 -0.0197 -0.001 -0.0264
C4 0.039 0.0943 0.0239 -0.0191 -0.0039 -0.0197
C5 0.0074 0.0428 0.0495 -0.0058 -0.0104 -0.0061
C6 0.0177 0.0541 0.0393 -0.0177 -0.005 -0.0014
C7 0.0208 0.0396 0.038 -0.0199 -0.0045 -0.0082
C8 0.0221 0.0755 0.0348 -0.0257 -0.0093 -0.0192
C9 0.0222 0.0526 0.0297 0.0053 0.0026 -0.0129
C13 0.0301 0.0595 0.0413 0.0311 -0.02 -0.0183
C16 0.028 0.0308 0.0183 -0.0117 0.0014 -0.005
C17 0.0527 0.0224 0.0532 -0.0077 -0.022 -0.0093
C18 0.0608 0.0524 0.049 -0.0367 -0.0095 -0.0098
C19 0.0719 0.0331 0.0239 -0.0129 -0.0012 -0.0071
C20 0.0608 0.0236 0.0451 0.0003 -0.0084 -0.0108
C21 0.0721 0.0172 0.0249 -0.0073 -0.0087 -0.0004
C29 0.0361 0.0479 0.0448 -0.019 -0.0148 -0.0053
C30 0.0288 0.0889 0.0527 -0.0394 -0.0165 0.002
C31 0.058 0.12 0.0444 -0.036 -0.0186 -0.0071
C32 0.0347 0.0516 0.0511 -0.0259 0.001 0.0046
C33 0.0339 0.088 0.0278 -0.014 0.0106 -0.0043
C34 0.0683 0.148 0.0387 -0.0398 -0.0123 -0.0184
C35 0.0265 0.14 0.0591 -0.0537 -0.0125 -0.0092
C36 0.0334 0.138 0.0383 -0.0443 -0.011 -0.0002
C37 0.0478 0.097 0.01 0 0 0
C38 0.0741 0.158 0.1069 -0.0865 -0.0423 0.0038
C39 0.0408 0.174 0.0567 -0.0677 -0.0041 -0.0049
C40 0.0512 0.114 0.0304 -0.0199 -0.0107 -0.0318
C41 0.0439 0.26 0.0796 -0.074 -0.0198 -0.021
C42 0.0611 0.361 0.0977 -0.115 -0.0567 0.05
C43 0.068 0.413 0.148 -0.148 -0.031 0.035
C44 0.0376 0.473 0.074 -0.101 0.0077 -0.089
O13 0.0363 0.0288 0.0437 -0.0136 -0.0067 -0.0006
O14 0.0428 0.0496 0.0329 -0.0243 0.0142 -0.0161
N5 0.013 0.0508 0.0209 -0.0295 -0.0042 0.0026
Mn1 0.0327 0.1417 0.04053 -0.05437 -0.00584 -0.0036
Cl1 0.1558 0.2452 0.1825 -0.0617 -0.0788 -0.0017
O9 0.0741 0.244 0.041 -0.0464 -0.0103 -0.0326
O10 0.0783 0.2143 0.0638 -0.0934 -0.0126 0.0072
N2 0.0657 0.0747 0.0371 -0.0212 -0.0034 -0.0151
N3 0.0333 0.1232 0.0466 -0.0521 -0.0019 -0.0128
C45 0.0596 0.0791 0.0492 -0.0275 0.0138 -0.0192
C46 0.036 0.155 0.0545 -0.0748 -0.0048 0.0033
C47 0.0764 0.1095 0.0245 -0.0312 -0.0018 -0.0433
C48 0.0348 0.149 0.0339 -0.0219 0.0029 -0.0412
C49 0.036 0.255 0.11 -0.092 -0.0025 -0.014
C50 0.09 0.232 0.0624 -0.0671 -0.0048 -0.05
C52 0.0441 0.094 0.0344 -0.0512 -0.0127 0.0038
C53 0.0366 0.0811 0.0426 -0.0326 0.0054 0.002
C54 0.0268 0.1067 0.0349 -0.045 0.0036 0.0045
C55 0.0447 0.12 0.0546 -0.0475 -0.0075 -0.0017
C56 0.083 0.13 0.0301 0 0.042 0
C57 0.0303 0.1338 0.0405 -0.0603 -0.0192 0.0014
C58 0.0224 0.416 0.129 0.065 -0.002 -0.064
C59 0.0192 0.386 0.0685 -0.1396 -0.0022 0.02
C60 0.068 0.372 0.0152 -0.012 -0.008 0.016
C61 0.02 0.395 0.156 0.149 -0.01 0.007
C62 0.0435 0.0612 0.021 -0.0269 -0.0096 0.0132
C63 0.0393 0.0651 0.0491 -0.0288 -0.0165 0.0209
C64 0.0301 0.0455 0.0366 -0.0179 -0.0276 0.0043
C66 0.028 0.0979 0.0203 -0.0223 -0.0047 -0.0138
C22 0.0538 0.042 0.039 -0.0148 -0.0083 -0.0055
C23 0.111 0.0385 0.0488 -0.0231 -0.0065 -0.0257
C24 0.0722 0.0426 0.0465 -0.0206 0.0065 -0.0171
C25 0.044 0.0354 0.048 -0.0217 -0.0027 -0.0071
C26 0.109 0.0546 0.0304 -0.021 0.0037 -0.0327
C27 0.115 0.0352 0.0328 -0.0107 0.0195 -0.0317
C28 0.0408 0.0392 0.0332 -0.0288 0.0062 -0.0162
O21 0.0223 0.0632 0.0205 -0.0107 -0.0042 -0.0156
O22 0.011 0.0625 0.0344 -0.0085 -0.0038 0.0031
C84 0.0343 0.111 0.044 0.0159 -0.0223 -0.0016
C85 0.0128 0.0619 0.031 0.0047 -0.0063 -0.0014
C86 0.0193 0.092 0.0484 0.0085 0.0001 -0.0235
C88 0.04 0.0737 0.0144 -0.0132 -0.0066 -0.0126
C89 0.0065 0.0914 0.0471 -0.016 -0.0081 -0.0038
C90 0.0289 0.0792 0.0444 -0.0069 -0.0183 0.0054
C91 0.0232 0.0672 0.0208 -0.0175 0.0008 -0.0112
C92 0.0191 0.0668 0.023 -0.0172 0.0094 -0.0139
C93 0.046 0.0667 0.0247 0.0058 -0.0236 -0.0229
C94 0.0091 0.0508 0.0466 -0.0313 -0.0061 0.005
Zn11 0.02444 0.02876 0.02341 -0.01624 -0.0037 -0.00433
Zn13 0.02525 0.02591 0.02426 -0.01303 -0.00343 -0.00589
O17 0.0584 0.022 0.0488 -0.0196 -0.0076 -0.0123
O18 0.0379 0.0278 0.0312 -0.0168 -0.0016 -0.0091
C80 0.0223 0.0329 0.041 -0.014 -0.0122 0.0038
Mn2 0.0408 0.1354 0.0103 -0.0342 -0.0037 -0.0143
Cl2 0.1294 0.241 0.0868 -0.083 -0.0254 -0.0044
O15 0.0564 0.0188 0.0384 -0.0268 0 0
O16 0.041 0.0418 0.0317 -0.0286 -0.0037 -0.0053
O19 0.0042 0.0558 0.0372 -0.0118 -0.0058 -0.0051
O20 0.0243 0.0256 0.0339 -0.0033 -0.004 -0.0036
O23 0.0388 0.2384 0.0608 -0.1007 -0.0178 0.001
O24 0.0396 0.195 0.0267 -0.0507 0.0047 -0.0212
N7 0.028 0.1473 0.0426 -0.0556 0.0015 -0.0019
N8 0.055 0.1075 0.0196 -0.0191 -0.0204 -0.0155
N9 0.0163 0.0165 0.0384 0.0003 -0.0044 -0.0057
C68 0.032 0.0264 0.0396 -0.0201 -0.0089 0.0007
C69 0.0807 0.0415 0.0322 -0.0266 -0.0054 -0.0102
C70 0.123 0.0267 0.0301 -0.009 -0.0195 -0.0185
C71 0.0568 0.0286 0.0433 -0.0209 -0.0111 -0.0042
C72 0.0808 0.0335 0.0334 -0.024 -0.0121 -0.0089
C73 0.0688 0.0631 0.0574 -0.0362 -0.0038 -0.0089
C74 0.084 0.0249 0.0327 -0.0173 0.0043 -0.0156
C75 0.0695 0.0502 0.0286 -0.0066 0.0114 -0.0274
C76 0.0758 0.0352 0.0301 -0.0227 0.004 -0.0067
C77 0.0531 0.0202 0.0389 -0.0194 -0.0023 -0.0052
C78 0.0907 0.0052 0.0555 -0.0083 0.0325 -0.0191
C79 0.122 0.0409 0.0457 -0.0377 0.0218 -0.0176
C81 0.0189 0.0388 0.0295 -0.0184 -0.0016 0.0035
C82 0.0252 0.0612 0.0329 -0.0174 0.001 0.0041
C83 0.0188 0.0791 0.0488 0.0105 -0.0038 -0.0231
C87 0.0126 0.0779 0.0506 -0.0001 -0.0102 0.0029
C102 0.0469 0.14 0.0352 -0.0478 -0.0086 0.0211
C106 0.0339 0.138 0.0294 -0.0346 -0.0036 -0.0074
C107 0.0487 0.149 0.0401 -0.0477 -0.0016 0.0038
C108 0.102 0.247 0.1634 -0.1522 -0.0547 -0.022
C110 0.108 0.229 0.0518 -0.047 0.015 0.002
C111 0.0495 0.192 0.0417 -0.0753 -0.0132 -0.024
C112 0.0404 0.264 0.0504 -0.0541 -0.0115 -0.033
C113 0.0259 0.125 0.0578 -0.0452 0.0114 -0.0242
C114 0.064 0.213 0.0432 -0.0594 -0.013 -0.015
C115 0.0381 0.306 0.0622 -0.1173 0.0002 -0.006
C116 0.0156 0.264 0.0308 -0.0681 0.002 -0.0193
C117 0.0381 0.092 0.02 0 0 0
C118 0.0462 0.0986 0.0204 -0.0184 0.0043 -0.0172
C119 0.0391 0.0802 0.0301 -0.0285 -0.0126 -0.0123
C120 0.0338 0.0533 0.0296 -0.0122 -0.0138 -0.0075
C121 0.0337 0.1096 0.0354 -0.036 -0.0041 -0.0038
C122 0.0226 0.1337 0.0466 -0.0595 -0.0183 0.0022
C123 0.0452 0.154 0.0345 -0.0399 0.0048 -0.005
C124 0.0694 0.0806 0.01 0 0 0.035
C125 0.069 0.277 0.104 -0.085 -0.011 -0.02
C127 0.0758 0.321 0.1062 -0.1506 0.0505 -0.104
C128 0.0208 0.051 0.0323 -0.0185 -0.0042 -0.0073
C129 0.0361 0.0941 0.0266 -0.0371 -0.0044 -0.0242
C130 0.0328 0.0798 0.0357 -0.0314 0.0194 -0.0032
C132 0.0345 0.119 0.0423 -0.0438 0.0038 -0.004
N10 0.0374 0.0586 0.015 -0.0177 0.0034 -0.0168
C95 0.0307 0.0635 0.0258 -0.0293 0.0015 0.0202
C96 0.0458 0.0915 0.0421 -0.0492 0.0075 -0.0096
C97 0.0274 0.0565 0.015 -0.0154 -0.0062 0.001
C98 0.0657 0.186 0.0489 -0.0331 -0.0448 0.0118
C99 0.0654 0.0583 0.0302 -0.0331 -0.0279 0.018
C100 0.0361 0.0665 0.0392 -0.0329 -0.0169 0.016
C101 0.0629 0.0766 0.0413 -0.0357 0.0045 -0.0136
C104 0.0317 0.276 0.0203 -0.0566 -0.0003 -0.0172
C105 0.0579 0.14 0.0337 -0.0535 -0.0129 -0.0102
C109 0.0283 0.263 0.0423 -0.0505 -0.008 0.006
loop_
_geom_bond_atom_site_label_1
_geom_bond_atom_site_label_2
_geom_bond_site_symmetry_1
_geom_bond_site_symmetry_2
O3 C14 1_555 1_555
O4 C14 1_555 1_555
H6 C10 1_555 1_555
C11 C10 1_555 1_555
C12 C11 1_555 1_555
H7 C12 1_555 1_555
C14 C11 1_555 1_555
Zn3 O3 1_555 1_555
Zn5 O4 1_555 1_555
Zn3 O1 1_555 1_555
Zn5 O2 1_555 1_555
O1 C1 1_555 1_555
O2 C1 1_555 1_555
O5 Zn5 1_555 1_555
O6 Zn3 1_555 1_555
N1 Zn3 1_555 1_555
C1 C2 1_555 1_555
C2 C3 1_555 1_555
C3 H1 1_555 1_555
C4 C3 1_555 1_555
H2 C4 1_555 1_555
C5 C4 1_555 1_555
C6 C5 1_555 1_555
H3 C6 1_555 1_555
C7 C2 1_555 1_555
H4 C7 1_555 1_555
C8 C5 1_555 1_555
C9 C8 1_555 1_555
H5 C9 1_555 1_555
C13 C8 1_555 1_555
H8 C13 1_555 1_555
C15 O5 1_555 1_555
C16 C15 1_555 1_555
C17 C16 1_555 1_555
H9 C17 1_555 1_555
C18 C17 1_555 1_555
H10 C18 1_555 1_555
C19 C18 1_555 1_555
C20 C19 1_555 1_555
H11 C20 1_555 1_555
C21 C16 1_555 1_555
H12 C21 1_555 1_555
C29 N1 1_555 1_555
H17 C29 1_555 1_555
C30 C29 1_555 1_555
H18 C30 1_555 1_555
C31 C30 1_555 1_555
C32 C31 1_555 1_555
H19 C32 1_555 1_555
C33 N1 1_555 1_555
H20 C33 1_555 1_555
C34 C31 1_555 1_555
C35 C34 1_555 1_555
H21 C35 1_555 1_555
C36 C35 1_555 1_555
C38 C37 1_555 1_555
C39 C34 1_555 1_555
H22 C39 1_555 1_555
H23 C40 1_555 1_555
C41 C38 1_555 1_555
C42 C41 1_555 1_555
H26 C42 1_555 1_555
C43 C41 1_555 1_555
H27 C43 1_555 1_555
H28 C43 1_555 1_555
H29 C43 1_555 1_555
C44 C41 1_555 1_555
H30 C44 1_555 1_555
H31 C44 1_555 1_555
H32 C44 1_555 1_555
O13 Zn5 1_555 1_555
O14 Zn3 1_555 1_555
N5 Zn5 1_555 1_555
O6 C15 1_555 1_555
C6 C7 1_555 1_555
C20 C21 1_555 1_555
C32 C33 1_555 1_555
C36 C37 1_555 1_555
C36 C40 1_555 1_555
C38 C39 1_555 1_555
Mn1 Cl1 1_555 1_555
O9 Mn1 1_555 1_555
O10 Mn1 1_555 1_555
N2 Mn1 1_555 1_555
N3 Mn1 1_555 1_555
N5 C64 1_555 1_555
C45 N2 1_555 1_555
H33 C45 1_555 1_555
C46 N3 1_555 1_555
H34 C46 1_555 1_555
C47 C46 1_555 1_555
H35 C47 1_555 1_555
H36 C47 1_555 1_555
C48 C47 1_555 1_555
H37 C48 1_555 1_555
H38 C48 1_555 1_555
C49 C48 1_555 1_555
H39 C49 1_555 1_555
H40 C49 1_555 1_555
C50 C45 1_555 1_555
H41 C50 1_555 1_555
H42 C50 1_555 1_555
C51 N3 1_555 1_555
H43 C51 1_555 1_555
C52 C51 1_555 1_555
C53 C52 1_555 1_555
H44 C53 1_555 1_555
C54 C53 1_555 1_555
C55 C54 1_555 1_555
H45 C55 1_555 1_555
C56 C55 1_555 1_555
C57 O10 1_555 1_555
C58 C56 1_555 1_555
C59 C58 1_555 1_555
H46 C59 1_555 1_555
H47 C59 1_555 1_555
H48 C59 1_555 1_555
C60 C58 1_555 1_555
H49 C60 1_555 1_555
H50 C60 1_555 1_555
H51 C60 1_555 1_555
C61 C58 1_555 1_555
H52 C61 1_555 1_555
H53 C61 1_555 1_555
H54 C61 1_555 1_555
C62 C54 1_555 1_555
C63 C62 1_555 1_555
H55 C63 1_555 1_555
C64 C63 1_555 1_555
H56 C64 1_555 1_555
C65 N5 1_555 1_555
H57 C65 1_555 1_555
C66 C62 1_555 1_555
H58 C66 1_555 1_555
C45 C46 1_555 1_555
C49 C50 1_555 1_555
C52 C57 1_555 1_555
C56 C57 1_555 1_555
C65 C66 1_555 1_555
O13 C28 1_555 1_555
O14 C28 1_555 1_555
C23 C22 1_555 1_555
H13 C23 1_555 1_555
C24 C23 1_555 1_555
H14 C24 1_555 1_555
C25 C24 1_555 1_555
C26 C25 1_555 1_555
H15 C26 1_555 1_555
C27 C22 1_555 1_555
H16 C27 1_555 1_555
C28 C25 1_555 1_555
C26 C27 1_555 1_555
O21 C94 1_555 1_555
O22 C94 1_555 1_555
H68 C84 1_555 1_555
C85 C84 1_555 1_555
C86 C85 1_555 1_555
H69 C86 1_555 1_555
C88 C85 1_555 1_555
C89 C88 1_555 1_555
H71 C89 1_555 1_555
C90 C89 1_555 1_555
H72 C90 1_555 1_555
C91 C90 1_555 1_555
C92 C91 1_555 1_555
H73 C92 1_555 1_555
C93 C88 1_555 1_555
H74 C93 1_555 1_555
C94 C91 1_555 1_555
Zn11 O21 1_555 1_555
Zn13 O22 1_555 1_555
C92 C93 1_555 1_555
O17 C80 1_555 1_555
O18 C80 1_555 1_555
Zn11 O18 1_555 1_555
Zn13 O17 1_555 1_555
Zn11 O16 1_555 1_555
Zn13 O15 1_555 1_555
Mn2 Cl2 1_555 1_555
O15 C67 1_555 1_555
O16 C67 1_555 1_555
O19 Zn11 1_555 1_555
O20 Zn13 1_555 1_555
O23 Mn2 1_555 1_555
O24 Mn2 1_555 1_555
N7 Mn2 1_555 1_555
N8 Mn2 1_555 1_555
N9 Zn11 1_555 1_555
C67 C68 1_555 1_555
C68 C69 1_555 1_555
C69 H59 1_555 1_555
C70 C69 1_555 1_555
H60 C70 1_555 1_555
C71 C70 1_555 1_555
C72 C71 1_555 1_555
H61 C72 1_555 1_555
C73 C68 1_555 1_555
H62 C73 1_555 1_555
C74 C71 1_555 1_555
C75 C74 1_555 1_555
H63 C75 1_555 1_555
C76 C75 1_555 1_555
H64 C76 1_555 1_555
C77 C76 1_555 1_555
C78 C77 1_555 1_555
H65 C78 1_555 1_555
C79 C74 1_555 1_555
H66 C79 1_555 1_555
C81 O19 1_555 1_555
C82 C81 1_555 1_555
C83 C82 1_555 1_555
H67 C83 1_555 1_555
C87 C82 1_555 1_555
H70 C87 1_555 1_555
C103 O23 1_555 1_555
C106 N7 1_555 1_555
H81 C106 1_555 1_555
C108 C107 1_555 1_555
H82 C108 1_555 1_555
H84 C108 1_555 1_555
C110 C107 1_555 1_555
H88 C110 1_555 1_555
H89 C110 1_555 1_555
H90 C110 1_555 1_555
C111 N7 1_555 1_555
H91 C111 1_555 1_555
C112 N8 1_555 1_555
H92 C112 1_555 1_555
C113 C112 1_555 1_555
H93 C113 1_555 1_555
H94 C113 1_555 1_555
C114 C113 1_555 1_555
H95 C114 1_555 1_555
H96 C114 1_555 1_555
C115 C114 1_555 1_555
H97 C115 1_555 1_555
H98 C115 1_555 1_555
C116 C111 1_555 1_555
H99 C116 1_555 1_555
H100 C116 1_555 1_555
C117 N8 1_555 1_555
H101 C117 1_555 1_555
C118 C117 1_555 1_555
C119 C118 1_555 1_555
H102 C119 1_555 1_555
C120 C119 1_555 1_555
C121 C120 1_555 1_555
H103 C121 1_555 1_555
C122 C121 1_555 1_555
C123 O24 1_555 1_555
C124 C122 1_555 1_555
C125 C124 1_555 1_555
H104 C125 1_555 1_555
H105 C125 1_555 1_555
C126 C124 1_555 1_555
H107 C126 1_555 1_555
H108 C126 1_555 1_555
H109 C126 1_555 1_555
C127 C124 1_555 1_555
H110 C127 1_555 1_555
H111 C127 1_555 1_555
H112 C127 1_555 1_555
C128 C120 1_555 1_555
C129 C128 1_555 1_555
H113 C129 1_555 1_555
C130 N9 1_555 1_555
H114 C130 1_555 1_555
C131 N9 1_555 1_555
H115 C131 1_555 1_555
C132 C128 1_555 1_555
H116 C132 1_555 1_555
N10 Zn13 1_555 1_555
O20 C81 1_555 1_555
C72 C73 1_555 1_555
C78 C79 1_555 1_555
C102 C103 1_555 1_555
C102 C106 1_555 1_555
C111 C112 1_555 1_555
C115 C116 1_555 1_555
C118 C123 1_555 1_555
C122 C123 1_555 1_555
C129 C130 1_555 1_555
C131 C132 1_555 1_555
N10 C95 1_555 1_555
C95 H75 1_555 1_555
C96 C95 1_555 1_555
H76 C96 1_555 1_555
C97 C96 1_555 1_555
C98 C97 1_555 1_555
H77 C98 1_555 1_555
C99 N10 1_555 1_555
H78 C99 1_555 1_555
C100 C97 1_555 1_555
C101 C100 1_555 1_555
H79 C101 1_555 1_555
C105 C100 1_555 1_555
H80 C105 1_555 1_555
H85 C109 1_555 1_555
H87 C109 1_555 1_555
C98 C99 1_555 1_555
C104 C105 1_555 1_555

#END
