
###############################################################################
#
# This file contains modified crystal structure data generated from the
# MOF subset of the Cambridge Structural Database (CSD) v543 
# hosted by the Cambridge Crystallographic Data Centre (CCDC).
#
# This work is licensed under the Creative Commons
# Attribution-NonCommercial-ShareAlike 4.0 International License.
# To view a copy of this license, visit
# http://creativecommons.org/licenses/by-nc-sa/4.0/
# or send a letter to
# Creative Commons, PO Box 1866, Mountain View, CA 94042, USA.
#
# CIF created using the CSD Python API on 29 September 2022
# The structure has been converted into the P1 space group
# The structure has a 3D framework
# The original CSD entry VELVIS is in the rhombohedral crystal system
# The framework has been calculated to contain at least 10.0% void space
# The void calculation uses a probe of radius 1.32A, grid spacing 0.4
#
###############################################################################

data_VELVIS
_chemical_formula_moiety         '(C252 H180 N72 Zn18)n'
_symmetry_cell_setting           triclinic
_symmetry_space_group_name_H-M   'P 1'
_symmetry_Int_Tables_number      1
_space_group_name_Hall           'P 1'
loop_
_symmetry_equiv_pos_site_id
_symmetry_equiv_pos_as_xyz
1 x,y,z
_cell_length_a                   22.989(3)
_cell_length_b                   22.989(3)
_cell_length_c                   15.763(3)
_cell_angle_alpha                90
_cell_angle_beta                 90
_cell_angle_gamma                120
_cell_volume                     7214.56
loop_
_atom_site_label
_atom_site_type_symbol
_atom_site_fract_x
_atom_site_fract_y
_atom_site_fract_z
C1 C 0.6995(3) 0.0285(3) 0.1763(3)
H1 H 0.7382 0.0703 0.1720
C8 C 0.8082(3) 0.2012(3) 0.3398(3)
H6 H 0.8244 0.1897 0.3871
C9 C 0.8034(3) 0.2570(3) 0.2361(3)
C10 C 0.8140(3) 0.3039(3) 0.1701(4)
H7 H 0.8544 0.3440 0.1658
C11 C 0.7443(3) 0.1972(3) 0.2400(3)
C12 C 0.6905(4) 0.1797(3) 0.1802(4)
H8 H 0.6505 0.1389 0.1832
C13 C 0.7637(4) 0.2886(4) 0.1138(4)
H9 H 0.7702 0.3194 0.0714
C14 C 0.7017(4) 0.2271(4) 0.1175(4)
H10 H 0.6683 0.2184 0.0780
N1 N 0.6589(2) 0.0113(2) 0.2433(2)
N2 N 0.7480(2) 0.1604(2) 0.3092(2)
N4 N 0.8445(2) 0.2590(2) 0.3006(2)
Zn1 Zn 0.67190(3) 0.07047(3) 0.34160(4)
C15 C 0.6382(3) 0.0043(4) 0.5096(3)
H11 H 0.5964 0.0012 0.5053
C18 C 0.8271(3) 0.0054(4) 0.5703(4)
C19 C 0.8452(3) 0.0369(4) 0.4896(4)
H14 H 0.8877 0.0503 0.4678
C20 C 0.7393(3) 0.0281(4) 0.4796(3)
C21 C 0.8013(3) 0.0479(4) 0.4434(4)
H15 H 0.8126 0.0678 0.3900
C22 C 0.5345(3) 0.0597(4) 0.3269(3)
H16 H 0.5230 0.0320 0.2796
C23 C 0.5903(3) 0.1203(4) 0.4306(3)
C24 C 0.6372(3) 0.1566(4) 0.4966(4)
H17 H 0.6773 0.1563 0.5009
C25 C 0.5305(3) 0.1196(4) 0.4267(3)
C26 C 0.5130(3) 0.1559(5) 0.4865(4)
H18 H 0.4722 0.1551 0.4835
C27 C 0.6219(4) 0.1916(6) 0.5529(4)
H19 H 0.6527 0.2159 0.5953
C28 C 0.5604(4) 0.1921(6) 0.5492(4)
H20 H 0.5517 0.2168 0.5887
N7 N 0.4937(2) 0.0791(3) 0.3575(2)
N9 N 0.6848(2) 0.0326(3) 0.4485(2)
N10 N 0.5923(2) 0.0812(3) 0.3661(2)
N11 N 0.8222(2) 0.0743(2) 0.0327(2)
Zn3 Zn 0.40380(3) 0.06524(4) 0.32507(4)
Zn5 Zn 0.93476(4) 0.33857(3) 0.32507(4)
N6 N 0.6857(3) 0.0078(2) 0.9100(2)
C2 C 0.6088(3) 0.9452(3) 0.2264(3)
C3 C 0.5529(3) 0.9014(3) 0.2722(3)
H2 H 0.5436 0.9131 0.3248
C4 C 0.5117(3) 0.8396(3) 0.2370(4)
H3 H 0.4738 0.8087 0.2667
C5 C 0.5251(3) 0.8215(3) 0.1563(4)
H4 H 0.4960 0.7790 0.1345
C6 C 0.6222(3) 0.9274(3) 0.1463(3)
C7 C 0.5800(3) 0.8654(3) 0.1101(4)
H5 H 0.5886 0.8541 0.0567
N3 N 0.6812(2) 0.9819(2) 0.1152(2)
C16 C 0.7215(3) 0.9969(4) 0.5597(3)
C17 C 0.7653(3) 0.9848(4) 0.6055(3)
H12 H 0.7536 0.9638 0.6581
H13 H 0.8580 0.9984 0.6000
N5 N 0.6554(2) 0.9809(3) 0.5766(2)
Zn2 Zn 0.59620(3) 0.93476(4) 0.67493(4)
Zn4 Zn 0.73190(4) 0.99477(3) 0.00827(4)
N8 N 0.7457(3) 0.9187(2) 0.9759(2)
C2_2 C 0.0548(3) 0.6636(4) 0.2264(3)
C3_2 C 0.0986(3) 0.6515(4) 0.2722(3)
H2_2 H 0.0869 0.6305 0.3248
C4_2 C 0.1604(3) 0.6721(4) 0.2370(4)
H3_2 H 0.1913 0.6651 0.2667
C5_2 C 0.1785(3) 0.7036(4) 0.1563(4)
H4_2 H 0.2210 0.7170 0.1345
C6_2 C 0.0726(3) 0.6948(4) 0.1463(3)
C7_2 C 0.1346(3) 0.7146(4) 0.1101(4)
H5_2 H 0.1459 0.7345 0.0567
N3_2 N 0.0181(2) 0.6993(3) 0.1152(2)
C16_2 C 0.0031(4) 0.7245(5) 0.5597(3)
C17_2 C 0.0152(4) 0.7804(5) 0.6055(3)
H12_2 H 0.0362 0.7897 0.6581
H13_2 H 0.0016 0.8595 0.6000
N5_2 N 0.0191(3) 0.6744(4) 0.5766(2)
Zn2_2 Zn 0.06524(4) 0.66143(5) 0.67493(4)
Zn4_2 Zn 0.00523(3) 0.73714(5) 0.00827(4)
N8_2 N 0.0813(2) 0.8271(4) 0.9759(2)
C1_2 C 0.9715(3) 0.6710(4) 0.1763(3)
H1_2 H 0.9297 0.6679 0.1720
C8_2 C 0.7988(3) 0.6070(4) 0.3398(3)
H6_2 H 0.8103 0.6347 0.3871
C9_2 C 0.7430(3) 0.5464(4) 0.2361(3)
C10_2 C 0.6961(3) 0.5101(4) 0.1701(4)
H7_2 H 0.6560 0.5104 0.1658
C11_2 C 0.8028(3) 0.5471(4) 0.2400(3)
C12_2 C 0.8203(3) 0.5108(5) 0.1802(4)
H8_2 H 0.8611 0.5116 0.1832
C13_2 C 0.7114(4) 0.4751(6) 0.1138(4)
H9_2 H 0.6806 0.4508 0.0714
C14_2 C 0.7729(4) 0.4746(6) 0.1175(4)
H10_2 H 0.7816 0.4499 0.0780
N1_2 N 0.9887(2) 0.6476(3) 0.2433(2)
N2_2 N 0.8396(2) 0.5876(3) 0.3092(2)
N4_2 N 0.7410(2) 0.5855(3) 0.3006(2)
Zn1_2 Zn 0.92953(3) 0.60143(4) 0.34160(4)
C15_2 C 0.9957(4) 0.6338(5) 0.5096(3)
H11_2 H 0.9988 0.5951 0.5053
C18_2 C 0.9946(4) 0.8216(5) 0.5703(4)
C19_2 C 0.9631(4) 0.8082(5) 0.4896(4)
H14_2 H 0.9497 0.8373 0.4678
C20_2 C 0.9719(4) 0.7111(5) 0.4796(3)
C21_2 C 0.9521(4) 0.7533(5) 0.4434(4)
H15_2 H 0.9322 0.7447 0.3900
C22_2 C 0.9403(4) 0.4749(5) 0.3269(3)
H16_2 H 0.9680 0.4911 0.2796
C23_2 C 0.8797(4) 0.4701(5) 0.4306(3)
C24_2 C 0.8434(4) 0.4807(5) 0.4966(4)
H17_2 H 0.8437 0.5211 0.5009
C25_2 C 0.8804(4) 0.4110(5) 0.4267(3)
C26_2 C 0.8441(5) 0.3572(6) 0.4865(4)
H18_2 H 0.8449 0.3172 0.4835
C27_2 C 0.8084(6) 0.4304(7) 0.5529(4)
H19_2 H 0.7841 0.4369 0.5953
C28_2 C 0.8079(6) 0.3684(7) 0.5492(4)
H20_2 H 0.7832 0.3350 0.5887
N7_2 N 0.9209(3) 0.4147(4) 0.3575(2)
N9_2 N 0.9674(3) 0.6521(4) 0.4485(2)
N10_2 N 0.9188(3) 0.5112(4) 0.3661(2)
N11_2 N 0.9257(2) 0.7478(3) 0.0327(2)
Zn5_2 Zn 0.66143(3) 0.59620(5) 0.32507(4)
N6_2 N 0.9922(2) 0.6780(4) 0.9100(2)
C1_3 C 0.3290(4) 0.3005(3) 0.1763(3)
H1_3 H 0.3321 0.2618 0.1720
C2_3 C 0.3364(4) 0.3912(3) 0.2264(3)
C3_3 C 0.3485(4) 0.4471(3) 0.2722(3)
H2_3 H 0.3695 0.4564 0.3248
C4_3 C 0.3279(4) 0.4883(3) 0.2370(4)
H3_3 H 0.3349 0.5262 0.2667
C5_3 C 0.2964(4) 0.4749(3) 0.1563(4)
H4_3 H 0.2830 0.5040 0.1345
C6_3 C 0.3052(4) 0.3778(3) 0.1463(3)
C7_3 C 0.2854(4) 0.4200(3) 0.1101(4)
H5_3 H 0.2655 0.4114 0.0567
C8_3 C 0.3930(4) 0.1918(3) 0.3398(3)
H6_3 H 0.3653 0.1756 0.3871
C9_3 C 0.4536(4) 0.1966(3) 0.2361(3)
C10_3 C 0.4899(4) 0.1860(3) 0.1701(4)
H7_3 H 0.4896 0.1456 0.1658
C11_3 C 0.4529(4) 0.2557(3) 0.2400(3)
C12_3 C 0.4892(5) 0.3095(4) 0.1802(4)
H8_3 H 0.4884 0.3495 0.1832
C13_3 C 0.5249(6) 0.2363(4) 0.1138(4)
H9_3 H 0.5492 0.2298 0.0714
C14_3 C 0.5254(6) 0.2983(4) 0.1175(4)
H10_3 H 0.5501 0.3317 0.0780
N1_3 N 0.3524(3) 0.3411(2) 0.2433(2)
N2_3 N 0.4124(3) 0.2520(2) 0.3092(2)
N3_3 N 0.3007(3) 0.3188(2) 0.1152(2)
N4_3 N 0.4145(3) 0.1555(2) 0.3006(2)
Zn1_3 Zn 0.39857(4) 0.32810(3) 0.34160(4)
C15_3 C 0.3662(5) 0.3618(3) 0.5096(3)
H11_3 H 0.4049 0.4036 0.5053
C16_3 C 0.2755(5) 0.2785(3) 0.5597(3)
C17_3 C 0.2196(5) 0.2347(3) 0.6055(3)
H12_3 H 0.2103 0.2464 0.6581
C18_3 C 0.1784(5) 0.1729(3) 0.5703(4)
H13_3 H 0.1405 0.1420 0.6000
C19_3 C 0.1918(5) 0.1548(3) 0.4896(4)
H14_3 H 0.1627 0.1123 0.4678
C20_3 C 0.2889(5) 0.2607(3) 0.4796(3)
C21_3 C 0.2467(5) 0.1987(3) 0.4434(4)
H15_3 H 0.2553 0.1874 0.3900
C22_3 C 0.5251(5) 0.4655(3) 0.3269(3)
H16_3 H 0.5089 0.4770 0.2796
C23_3 C 0.5299(5) 0.4097(3) 0.4306(3)
C24_3 C 0.5193(5) 0.3628(3) 0.4966(4)
H17_3 H 0.4789 0.3227 0.5009
C25_3 C 0.5890(5) 0.4695(3) 0.4267(3)
C26_3 C 0.6428(6) 0.4870(3) 0.4865(4)
H18_3 H 0.6828 0.5278 0.4835
C27_3 C 0.5696(7) 0.3781(4) 0.5529(4)
H19_3 H 0.5631 0.3473 0.5953
C28_3 C 0.6316(7) 0.4396(4) 0.5492(4)
H20_3 H 0.6650 0.4483 0.5887
N5_3 N 0.3256(4) 0.3446(2) 0.5766(2)
N7_3 N 0.5853(4) 0.5063(2) 0.3575(2)
N9_3 N 0.3479(4) 0.3152(2) 0.4485(2)
N10_3 N 0.4888(4) 0.4077(2) 0.3661(2)
N11_3 N 0.2522(3) 0.1778(2) 0.0327(2)
Zn2_3 Zn 0.33857(5) 0.40380(3) 0.67493(4)
Zn4_3 Zn 0.26286(5) 0.26810(4) 0.00827(4)
N6_3 N 0.3220(4) 0.3143(3) 0.9100(2)
N8_3 N 0.1729(4) 0.2543(3) 0.9759(2)
C8_4 C 0.4749(3) 0.5345(3) 0.6731(3)
H6_4 H 0.4911 0.5230 0.7204
C9_4 C 0.4701(3) 0.5903(3) 0.5694(3)
C10_4 C 0.4807(3) 0.6372(3) 0.5034(4)
H7_4 H 0.5211 0.6773 0.4991
C11_4 C 0.4110(3) 0.5305(3) 0.5733(3)
C12_4 C 0.3572(4) 0.5130(3) 0.5135(4)
H8_4 H 0.3172 0.4722 0.5165
C13_4 C 0.4304(4) 0.6219(4) 0.4471(4)
H9_4 H 0.4369 0.6527 0.4047
C14_4 C 0.3684(4) 0.5604(4) 0.4508(4)
H10_4 H 0.3350 0.5517 0.4113
N2_4 N 0.4147(2) 0.4937(2) 0.6425(2)
N4_4 N 0.5112(2) 0.5923(2) 0.6339(2)
C15_4 C 0.3048(3) 0.3377(4) 0.8430(3)
H11_4 H 0.2630 0.3346 0.8387
C16_4 C 0.3881(3) 0.3303(4) 0.8931(3)
C17_4 C 0.4319(3) 0.3182(4) 0.9389(3)
H12_4 H 0.4202 0.2972 0.9915
C18_4 C 0.4937(3) 0.3388(4) 0.9037(4)
H13_4 H 0.5246 0.3318 0.9334
C19_4 C 0.5118(3) 0.3703(4) 0.8230(4)
H14_4 H 0.5543 0.3837 0.8012
C20_4 C 0.4059(3) 0.3615(4) 0.8130(3)
C21_4 C 0.4679(3) 0.3813(4) 0.7768(4)
H15_4 H 0.4792 0.4012 0.7234
C22_4 C 0.2012(3) 0.3930(4) 0.6602(3)
H16_4 H 0.1897 0.3653 0.6129
C23_4 C 0.2570(3) 0.4536(4) 0.7639(3)
C24_4 C 0.3039(3) 0.4899(4) 0.8299(4)
H17_4 H 0.3440 0.4896 0.8342
C25_4 C 0.1972(3) 0.4529(4) 0.7600(3)
C26_4 C 0.1797(3) 0.4892(5) 0.8198(4)
H18_4 H 0.1389 0.4884 0.8168
C27_4 C 0.2886(4) 0.5249(6) 0.8862(4)
H19_4 H 0.3194 0.5492 0.9286
C28_4 C 0.2271(4) 0.5254(6) 0.8825(4)
H20_4 H 0.2184 0.5501 0.9220
N7_4 N 0.1604(2) 0.4124(3) 0.6908(2)
N9_4 N 0.3514(2) 0.3660(3) 0.7819(2)
N10_4 N 0.2590(2) 0.4145(3) 0.6994(2)
Zn3_2 Zn 0.07047(3) 0.39857(4) 0.65840(4)
Zn5_3 Zn 0.60143(4) 0.67190(3) 0.65840(4)
C16_5 C 0.6697(4) 0.0579(5) 0.8931(3)
C17_5 C 0.6818(4) 0.1138(5) 0.9389(3)
H12_5 H 0.7028 0.1231 0.9915
C18_5 C 0.6612(4) 0.1550(5) 0.9037(4)
H13_5 H 0.6682 0.1929 0.9334
C19_5 C 0.6297(4) 0.1416(5) 0.8230(4)
H14_5 H 0.6163 0.1707 0.8012
C20_5 C 0.6385(4) 0.0445(5) 0.8130(3)
C21_5 C 0.6187(4) 0.0867(5) 0.7768(4)
H15_5 H 0.5988 0.0781 0.7234
C8_5 C 0.4655(3) 0.9403(4) 0.6731(3)
H6_5 H 0.4770 0.9680 0.7204
C9_5 C 0.4097(3) 0.8797(4) 0.5694(3)
C10_5 C 0.3628(3) 0.8434(4) 0.5034(4)
H7_5 H 0.3227 0.8437 0.4991
C11_5 C 0.4695(3) 0.8804(4) 0.5733(3)
C12_5 C 0.4870(3) 0.8441(5) 0.5135(4)
H8_5 H 0.5278 0.8449 0.5165
C13_5 C 0.3781(4) 0.8084(6) 0.4471(4)
H9_5 H 0.3473 0.7841 0.4047
C14_5 C 0.4396(4) 0.8079(6) 0.4508(4)
H10_5 H 0.4483 0.7832 0.4113
N2_5 N 0.5063(2) 0.9209(3) 0.6425(2)
N4_5 N 0.4077(2) 0.9188(3) 0.6339(2)
C15_5 C 0.6623(4) 0.9672(5) 0.8430(3)
H11_5 H 0.6654 0.9285 0.8387
C22_5 C 0.6070(4) 0.8082(5) 0.6602(3)
H16_5 H 0.6347 0.8244 0.6129
C23_5 C 0.5464(4) 0.8034(5) 0.7639(3)
C24_5 C 0.5101(4) 0.8140(5) 0.8299(4)
H17_5 H 0.5104 0.8544 0.8342
C25_5 C 0.5471(4) 0.7443(5) 0.7600(3)
C26_5 C 0.5108(5) 0.6905(6) 0.8198(4)
H18_5 H 0.5116 0.6505 0.8168
C27_5 C 0.4751(6) 0.7637(7) 0.8862(4)
H19_5 H 0.4508 0.7702 0.9286
C28_5 C 0.4746(6) 0.7017(7) 0.8825(4)
H20_5 H 0.4499 0.6683 0.9220
N7_5 N 0.5876(3) 0.7480(4) 0.6908(2)
N9_5 N 0.6340(3) 0.9855(4) 0.7819(2)
N10_5 N 0.5855(3) 0.8445(4) 0.6994(2)
Zn5_4 Zn 0.32810(3) 0.92953(5) 0.65840(4)
C8_6 C 0.0597(4) 0.5251(3) 0.6731(3)
H6_6 H 0.0320 0.5089 0.7204
C9_6 C 0.1203(4) 0.5299(3) 0.5694(3)
C10_6 C 0.1566(4) 0.5193(3) 0.5034(4)
H7_6 H 0.1563 0.4789 0.4991
C11_6 C 0.1196(4) 0.5890(3) 0.5733(3)
C12_6 C 0.1559(5) 0.6428(4) 0.5135(4)
H8_6 H 0.1551 0.6828 0.5165
C13_6 C 0.1916(6) 0.5696(4) 0.4471(4)
H9_6 H 0.2159 0.5631 0.4047
C14_6 C 0.1921(6) 0.6316(4) 0.4508(4)
H10_6 H 0.2168 0.6650 0.4113
N2_6 N 0.0791(3) 0.5853(2) 0.6425(2)
N4_6 N 0.0812(3) 0.4888(2) 0.6339(2)
C15_6 C 0.0328(5) 0.6952(3) 0.8430(3)
H11_6 H 0.0715 0.7370 0.8387
C22_6 C 0.1918(5) 0.7988(3) 0.6602(3)
H16_6 H 0.1756 0.8103 0.6129
C23_6 C 0.1966(5) 0.7430(3) 0.7639(3)
C24_6 C 0.1860(5) 0.6961(3) 0.8299(4)
H17_6 H 0.1456 0.6560 0.8342
C25_6 C 0.2557(5) 0.8028(3) 0.7600(3)
C26_6 C 0.3095(6) 0.8203(3) 0.8198(4)
H18_6 H 0.3495 0.8611 0.8168
C27_6 C 0.2363(7) 0.7114(4) 0.8862(4)
H19_6 H 0.2298 0.6806 0.9286
C28_6 C 0.2983(7) 0.7729(4) 0.8825(4)
H20_6 H 0.3317 0.7816 0.9220
N7_6 N 0.2520(4) 0.8396(2) 0.6908(2)
N9_6 N 0.0145(4) 0.6486(2) 0.7819(2)
N10_6 N 0.1555(4) 0.7410(2) 0.6994(2)
C16_6 C 0.9421(5) 0.6119(3) 0.8931(3)
C17_6 C 0.8862(5) 0.5681(3) 0.9389(3)
H12_6 H 0.8769 0.5798 0.9915
C18_6 C 0.8450(5) 0.5063(3) 0.9037(4)
H13_6 H 0.8071 0.4754 0.9334
C19_6 C 0.8584(5) 0.4882(3) 0.8230(4)
H14_6 H 0.8293 0.4457 0.8012
C20_6 C 0.9555(5) 0.5941(3) 0.8130(3)
C21_6 C 0.9133(5) 0.5321(3) 0.7768(4)
H15_6 H 0.9219 0.5208 0.7234
H7_7 H 0.1877 0.0107 0.8325
Zn5_5 Zn 0.26810(4) 0.00523(3) 0.99173(4)
C8_7 C 0.1415(3) 0.8679(3) 0.0065(3)
H6_7 H 0.1577 0.8564 0.0538
H17_7 H 0.0107 0.8229 0.1675
C9_7 C 0.1367(3) 0.9237(3) 0.9028(3)
C10_7 C 0.1473(3) 0.9706(3) 0.8368(4)
C11_7 C 0.0776(3) 0.8639(3) 0.9067(3)
C12_7 C 0.0238(4) 0.8464(3) 0.8469(4)
C13_7 C 0.0970(4) 0.9553(4) 0.7805(4)
H9_7 H 0.1035 0.9861 0.7381
C14_7 C 0.0350(4) 0.8938(4) 0.7842(4)
H10_7 H 0.0016 0.8851 0.7447
N4_7 N 0.1778(2) 0.9257(2) 0.9673(2)
C23_7 C 0.9237(3) 0.7869(4) 0.0972(3)
C24_7 C 0.9706(3) 0.8232(4) 0.1632(4)
C25_7 C 0.8639(3) 0.7862(4) 0.0933(3)
C26_7 C 0.8464(3) 0.8225(5) 0.1531(4)
H18_7 H 0.8056 0.8217 0.1501
C27_7 C 0.9553(4) 0.8582(6) 0.2195(4)
H19_7 H 0.9861 0.8825 0.2619
C28_7 C 0.8938(4) 0.8587(6) 0.2158(4)
H20_7 H 0.8851 0.8834 0.2553
N7_7 N 0.8271(2) 0.7457(3) 0.0241(2)
H8_7 H 0.9838 0.8056 0.8499
C22_7 C 0.8679(3) 0.7263(4) 0.9935(3)
H16_7 H 0.8564 0.6986 0.9462
Zn3_3 Zn 0.73714(3) 0.73190(4) 0.99173(4)
C8_8 C 0.1321(3) 0.2737(4) 0.0065(3)
H6_8 H 0.1436 0.3014 0.0538
C23_8 C 0.2131(4) 0.1367(5) 0.0972(3)
C24_8 C 0.1768(4) 0.1473(5) 0.1632(4)
H17_8 H 0.1771 0.1877 0.1675
C25_8 C 0.2138(4) 0.0776(5) 0.0933(3)
C26_8 C 0.1775(5) 0.0238(6) 0.1531(4)
C27_8 C 0.1418(6) 0.0970(7) 0.2195(4)
H19_8 H 0.1175 0.1035 0.2619
C28_8 C 0.1413(6) 0.0350(7) 0.2158(4)
H20_8 H 0.1166 0.0016 0.2553
N7_8 N 0.2543(3) 0.0813(4) 0.0241(2)
C9_8 C 0.0763(3) 0.2131(4) 0.9028(3)
C10_8 C 0.0294(3) 0.1768(4) 0.8368(4)
C11_8 C 0.1361(3) 0.2138(4) 0.9067(3)
C12_8 C 0.1536(3) 0.1775(5) 0.8469(4)
H8_8 H 0.1944 0.1783 0.8499
C13_8 C 0.0447(4) 0.1418(6) 0.7805(4)
H9_8 H 0.0139 0.1175 0.7381
C14_8 C 0.1062(4) 0.1413(6) 0.7842(4)
H10_8 H 0.1149 0.1166 0.7447
N4_8 N 0.0743(2) 0.2522(3) 0.9673(2)
C22_8 C 0.2737(4) 0.1415(5) 0.9935(3)
H16_8 H 0.3014 0.1577 0.9462
H18_8 H 0.1783 0.9838 0.1501
H7_8 H 0.9893 0.1771 0.8325
Zn5_6 Zn 0.99477(3) 0.26286(5) 0.99173(4)
H18_9 H 0.0162 0.1944 0.1501
C23_9 C 0.8633(5) 0.0763(3) 0.0972(3)
C24_9 C 0.8527(5) 0.0294(3) 0.1632(4)
C25_9 C 0.9224(5) 0.1361(3) 0.0933(3)
C26_9 C 0.9762(6) 0.1536(3) 0.1531(4)
C27_9 C 0.9030(7) 0.0447(4) 0.2195(4)
H19_9 H 0.8965 0.0139 0.2619
C28_9 C 0.9650(7) 0.1062(4) 0.2158(4)
H20_9 H 0.9984 0.1149 0.2553
N7_9 N 0.9187(4) 0.1729(2) 0.0241(2)
H8_9 H 0.8217 0.0162 0.8499
C22_9 C 0.8585(5) 0.1321(3) 0.9935(3)
H16_9 H 0.8423 0.1436 0.9462
C8_9 C 0.7263(4) 0.8585(3) 0.0065(3)
H6_9 H 0.6986 0.8423 0.0538
H17_9 H 0.8123 0.9893 0.1675
C9_9 C 0.7869(4) 0.8633(3) 0.9028(3)
C10_9 C 0.8232(4) 0.8527(3) 0.8368(4)
H7_9 H 0.8229 0.8123 0.8325
C11_9 C 0.7862(4) 0.9224(3) 0.9067(3)
C12_9 C 0.8225(5) 0.9762(4) 0.8469(4)
C13_9 C 0.8582(6) 0.9030(4) 0.7805(4)
H9_9 H 0.8825 0.8965 0.7381
C14_9 C 0.8587(6) 0.9650(4) 0.7842(4)
H10_9 H 0.8834 0.9984 0.7447
N4_9 N 0.7478(3) 0.8222(2) 0.9673(2)
C2_4 C 0.3912(3) 0.0548(3) 0.7736(3)
C3_4 C 0.4471(3) 0.0986(3) 0.7278(3)
H2_4 H 0.4564 0.0869 0.6752
C4_4 C 0.4883(3) 0.1604(3) 0.7630(4)
H3_4 H 0.5262 0.1913 0.7333
C5_4 C 0.4749(3) 0.1785(3) 0.8437(4)
H4_4 H 0.5040 0.2210 0.8655
C6_4 C 0.3778(3) 0.0726(3) 0.8537(3)
C7_4 C 0.4200(3) 0.1346(3) 0.8899(4)
H5_4 H 0.4114 0.1459 0.9433
N3_4 N 0.3188(2) 0.0181(2) 0.8848(2)
C16_7 C 0.2785(3) 0.0031(4) 0.4403(3)
C17_7 C 0.2347(3) 0.0152(4) 0.3945(3)
H12_7 H 0.2464 0.0362 0.3419
H13_7 H 0.1420 0.0016 0.4000
N5_4 N 0.3446(2) 0.0191(3) 0.4234(2)
N6_4 N 0.3143(3) 0.9922(2) 0.0900(2)
C1_4 C 0.3005(3) 0.9715(3) 0.8237(3)
H1_4 H 0.2618 0.9297 0.8280
N1_4 N 0.3411(2) 0.9887(2) 0.7567(2)
C15_7 C 0.3618(3) 0.9957(4) 0.4904(3)
H11_7 H 0.4036 0.9988 0.4947
C18_7 C 0.1729(3) 0.9946(4) 0.4297(4)
C19_7 C 0.1548(3) 0.9631(4) 0.5104(4)
H14_7 H 0.1123 0.9497 0.5322
C20_7 C 0.2607(3) 0.9719(4) 0.5204(3)
C21_7 C 0.1987(3) 0.9521(4) 0.5566(4)
H15_7 H 0.1874 0.9322 0.6100
N9_7 N 0.3152(2) 0.9674(3) 0.5515(2)
N6_5 N 0.0078(2) 0.3220(4) 0.0900(2)
C1_5 C 0.0285(3) 0.3290(4) 0.8237(3)
H1_5 H 0.0703 0.3321 0.8280
N1_5 N 0.0113(2) 0.3524(3) 0.7567(2)
C15_8 C 0.0043(4) 0.3662(5) 0.4904(3)
H11_8 H 0.0012 0.4049 0.4947
C18_8 C 0.0054(4) 0.1784(5) 0.4297(4)
C19_8 C 0.0369(4) 0.1918(5) 0.5104(4)
H14_8 H 0.0503 0.1627 0.5322
C20_8 C 0.0281(4) 0.2889(5) 0.5204(3)
C21_8 C 0.0479(4) 0.2467(5) 0.5566(4)
H15_8 H 0.0678 0.2553 0.6100
N9_8 N 0.0326(3) 0.3479(4) 0.5515(2)
C2_5 C 0.9452(3) 0.3364(4) 0.7736(3)
C3_5 C 0.9014(3) 0.3485(4) 0.7278(3)
H2_5 H 0.9131 0.3695 0.6752
C4_5 C 0.8396(3) 0.3279(4) 0.7630(4)
H3_5 H 0.8087 0.3349 0.7333
C5_5 C 0.8215(3) 0.2964(4) 0.8437(4)
H4_5 H 0.7790 0.2830 0.8655
C6_5 C 0.9274(3) 0.3052(4) 0.8537(3)
C7_5 C 0.8654(3) 0.2854(4) 0.8899(4)
H5_5 H 0.8541 0.2655 0.9433
N3_5 N 0.9819(2) 0.3007(3) 0.8848(2)
C16_8 C 0.9969(4) 0.2755(5) 0.4403(3)
C17_8 C 0.9848(4) 0.2196(5) 0.3945(3)
H12_8 H 0.9638 0.2103 0.3419
H13_8 H 0.9984 0.1405 0.4000
N5_5 N 0.9809(3) 0.3256(4) 0.4234(2)
N6_6 N 0.6780(4) 0.6857(3) 0.0900(2)
C1_6 C 0.6710(4) 0.6995(3) 0.8237(3)
H1_6 H 0.6679 0.7382 0.8280
C2_6 C 0.6636(4) 0.6088(3) 0.7736(3)
C3_6 C 0.6515(4) 0.5529(3) 0.7278(3)
H2_6 H 0.6305 0.5436 0.6752
C4_6 C 0.6721(4) 0.5117(3) 0.7630(4)
H3_6 H 0.6651 0.4738 0.7333
C5_6 C 0.7036(4) 0.5251(3) 0.8437(4)
H4_6 H 0.7170 0.4960 0.8655
C6_6 C 0.6948(4) 0.6222(3) 0.8537(3)
C7_6 C 0.7146(4) 0.5800(3) 0.8899(4)
H5_6 H 0.7345 0.5886 0.9433
N1_6 N 0.6476(3) 0.6589(2) 0.7567(2)
N3_6 N 0.6993(3) 0.6812(2) 0.8848(2)
C15_9 C 0.6338(5) 0.6382(3) 0.4904(3)
H11_9 H 0.5951 0.5964 0.4947
C16_9 C 0.7245(5) 0.7215(3) 0.4403(3)
C17_9 C 0.7804(5) 0.7653(3) 0.3945(3)
H12_9 H 0.7897 0.7536 0.3419
C18_9 C 0.8216(5) 0.8271(3) 0.4297(4)
H13_9 H 0.8595 0.8580 0.4000
C19_9 C 0.8082(5) 0.8452(3) 0.5104(4)
H14_9 H 0.8373 0.8877 0.5322
C20_9 C 0.7111(5) 0.7393(3) 0.5204(3)
C21_9 C 0.7533(5) 0.8013(3) 0.5566(4)
H15_9 H 0.7447 0.8126 0.6100
N5_6 N 0.6744(4) 0.6554(2) 0.4234(2)
N9_9 N 0.6521(4) 0.6848(2) 0.5515(2)
C15_10 C 0.6952(3) 0.6623(4) 0.1570(3)
H11_10 H 0.7370 0.6654 0.1613
C16_10 C 0.6119(3) 0.6697(4) 0.1069(3)
C17_10 C 0.5681(3) 0.6818(4) 0.0611(3)
H12_10 H 0.5798 0.7028 0.0085
C18_10 C 0.5063(3) 0.6612(4) 0.0963(4)
H13_10 H 0.4754 0.6682 0.0666
C19_10 C 0.4882(3) 0.6297(4) 0.1770(4)
H14_10 H 0.4457 0.6163 0.1988
C20_10 C 0.5941(3) 0.6385(4) 0.1870(3)
C21_10 C 0.5321(3) 0.6187(4) 0.2232(4)
H15_10 H 0.5208 0.5988 0.2766
N9_10 N 0.6486(2) 0.6340(3) 0.2181(2)
C15_11 C 0.3377(4) 0.0328(5) 0.1570(3)
H11_11 H 0.3346 0.0715 0.1613
N9_11 N 0.3660(3) 0.0145(4) 0.2181(2)
C16_11 C 0.3303(4) 0.9421(5) 0.1069(3)
C17_11 C 0.3182(4) 0.8862(5) 0.0611(3)
H12_11 H 0.2972 0.8769 0.0085
C18_11 C 0.3388(4) 0.8450(5) 0.0963(4)
H13_11 H 0.3318 0.8071 0.0666
C19_11 C 0.3703(4) 0.8584(5) 0.1770(4)
H14_11 H 0.3837 0.8293 0.1988
C20_11 C 0.3615(4) 0.9555(5) 0.1870(3)
C21_11 C 0.3813(4) 0.9133(5) 0.2232(4)
H15_11 H 0.4012 0.9219 0.2766
C16_12 C 0.0579(5) 0.3881(3) 0.1069(3)
C17_12 C 0.1138(5) 0.4319(3) 0.0611(3)
H12_12 H 0.1231 0.4202 0.0085
C18_12 C 0.1550(5) 0.4937(3) 0.0963(4)
H13_12 H 0.1929 0.5246 0.0666
C19_12 C 0.1416(5) 0.5118(3) 0.1770(4)
H14_12 H 0.1707 0.5543 0.1988
C20_12 C 0.0445(5) 0.4059(3) 0.1870(3)
C21_12 C 0.0867(5) 0.4679(3) 0.2232(4)
H15_12 H 0.0781 0.4792 0.2766
C15_12 C 0.9672(5) 0.3048(3) 0.1570(3)
H11_12 H 0.9285 0.2630 0.1613
N9_12 N 0.9855(4) 0.3514(2) 0.2181(2)
loop_
_geom_bond_atom_site_label_1
_geom_bond_atom_site_label_2
_geom_bond_site_symmetry_1
_geom_bond_site_symmetry_2
C1 H1 1_555 1_555
C8 H6 1_555 1_555
C9 C10 1_555 1_555
C10 H7 1_555 1_555
C11 C9 1_555 1_555
C12 C11 1_555 1_555
H8 C12 1_555 1_555
C13 C10 1_555 1_555
H9 C13 1_555 1_555
C14 C12 1_555 1_555
H10 C14 1_555 1_555
N1 C1 1_555 1_555
N2 C8 1_555 1_555
N4 C8 1_555 1_555
Zn1 N1 1_555 1_555
C15 H11 1_555 1_555
C19 C18 1_555 1_555
H14 C19 1_555 1_555
C21 C19 1_555 1_555
H15 C21 1_555 1_555
C22 H16 1_555 1_555
C23 C24 1_555 1_555
C24 H17 1_555 1_555
C25 C23 1_555 1_555
C26 C25 1_555 1_555
H18 C26 1_555 1_555
C27 C24 1_555 1_555
H19 C27 1_555 1_555
C28 C26 1_555 1_555
H20 C28 1_555 1_555
N7 C22 1_555 1_555
N9 Zn1 1_555 1_555
N10 Zn1 1_555 1_555
Zn3 N7 1_555 1_555
Zn5 N4 1_555 1_555
C9 N4 1_555 1_555
C11 N2 1_555 1_555
C13 C14 1_555 1_555
N2 Zn1 1_555 1_555
C15 N9 1_555 1_555
C20 C21 1_555 1_555
C20 N9 1_555 1_555
C22 N10 1_555 1_555
C23 N10 1_555 1_555
C25 N7 1_555 1_555
C27 C28 1_555 1_555
C2 C3 1_555 1_555
C3 H2 1_555 1_555
C4 C3 1_555 1_555
H3 C4 1_555 1_555
C5 C4 1_555 1_555
H4 C5 1_555 1_555
C6 C2 1_555 1_555
C7 C5 1_555 1_555
H5 C7 1_555 1_555
C16 C17 1_555 1_555
C17 H12 1_555 1_555
Zn2 N5 1_555 1_555
Zn4 N3 1_555 1_555
C6 C7 1_555 1_555
C6 N3 1_555 1_555
C16 N5 1_555 1_555
C2_2 C3_2 1_555 1_555
C3_2 H2_2 1_555 1_555
C4_2 C3_2 1_555 1_555
H3_2 C4_2 1_555 1_555
C5_2 C4_2 1_555 1_555
H4_2 C5_2 1_555 1_555
C6_2 C2_2 1_555 1_555
C7_2 C5_2 1_555 1_555
H5_2 C7_2 1_555 1_555
C16_2 C17_2 1_555 1_555
C17_2 H12_2 1_555 1_555
Zn2_2 N5_2 1_555 1_555
Zn4_2 N3_2 1_555 1_555
C6_2 C7_2 1_555 1_555
C6_2 N3_2 1_555 1_555
C16_2 N5_2 1_555 1_555
C1_2 H1_2 1_555 1_555
C8_2 H6_2 1_555 1_555
C9_2 C10_2 1_555 1_555
C10_2 H7_2 1_555 1_555
C11_2 C9_2 1_555 1_555
C12_2 C11_2 1_555 1_555
H8_2 C12_2 1_555 1_555
C13_2 C10_2 1_555 1_555
H9_2 C13_2 1_555 1_555
C14_2 C12_2 1_555 1_555
H10_2 C14_2 1_555 1_555
N1_2 C1_2 1_555 1_555
N2_2 C8_2 1_555 1_555
N4_2 C8_2 1_555 1_555
Zn1_2 N1_2 1_555 1_555
C15_2 H11_2 1_555 1_555
C19_2 C18_2 1_555 1_555
H14_2 C19_2 1_555 1_555
C21_2 C19_2 1_555 1_555
H15_2 C21_2 1_555 1_555
C22_2 H16_2 1_555 1_555
C23_2 C24_2 1_555 1_555
C24_2 H17_2 1_555 1_555
C25_2 C23_2 1_555 1_555
C26_2 C25_2 1_555 1_555
H18_2 C26_2 1_555 1_555
C27_2 C24_2 1_555 1_555
H19_2 C27_2 1_555 1_555
C28_2 C26_2 1_555 1_555
H20_2 C28_2 1_555 1_555
N7_2 C22_2 1_555 1_555
N9_2 Zn1_2 1_555 1_555
N10_2 Zn1_2 1_555 1_555
Zn5 N7_2 1_555 1_555
Zn5_2 N4_2 1_555 1_555
C9_2 N4_2 1_555 1_555
C11_2 N2_2 1_555 1_555
C13_2 C14_2 1_555 1_555
N2_2 Zn1_2 1_555 1_555
C15_2 N9_2 1_555 1_555
C20_2 C21_2 1_555 1_555
C20_2 N9_2 1_555 1_555
C22_2 N10_2 1_555 1_555
C23_2 N10_2 1_555 1_555
C25_2 N7_2 1_555 1_555
C27_2 C28_2 1_555 1_555
C1_3 H1_3 1_555 1_555
C2_3 C3_3 1_555 1_555
C3_3 H2_3 1_555 1_555
C4_3 C3_3 1_555 1_555
H3_3 C4_3 1_555 1_555
C5_3 C4_3 1_555 1_555
H4_3 C5_3 1_555 1_555
C6_3 C2_3 1_555 1_555
C7_3 C5_3 1_555 1_555
H5_3 C7_3 1_555 1_555
C8_3 H6_3 1_555 1_555
C9_3 C10_3 1_555 1_555
C10_3 H7_3 1_555 1_555
C11_3 C9_3 1_555 1_555
C12_3 C11_3 1_555 1_555
H8_3 C12_3 1_555 1_555
C13_3 C10_3 1_555 1_555
H9_3 C13_3 1_555 1_555
C14_3 C12_3 1_555 1_555
H10_3 C14_3 1_555 1_555
N1_3 C1_3 1_555 1_555
N2_3 C8_3 1_555 1_555
N3_3 C1_3 1_555 1_555
N4_3 C8_3 1_555 1_555
Zn1_3 N1_3 1_555 1_555
C15_3 H11_3 1_555 1_555
C16_3 C17_3 1_555 1_555
C17_3 H12_3 1_555 1_555
C18_3 C17_3 1_555 1_555
H13_3 C18_3 1_555 1_555
C19_3 C18_3 1_555 1_555
H14_3 C19_3 1_555 1_555
C20_3 C16_3 1_555 1_555
C21_3 C19_3 1_555 1_555
H15_3 C21_3 1_555 1_555
C22_3 H16_3 1_555 1_555
C23_3 C24_3 1_555 1_555
C24_3 H17_3 1_555 1_555
C25_3 C23_3 1_555 1_555
C26_3 C25_3 1_555 1_555
H18_3 C26_3 1_555 1_555
C27_3 C24_3 1_555 1_555
H19_3 C27_3 1_555 1_555
C28_3 C26_3 1_555 1_555
H20_3 C28_3 1_555 1_555
N5_3 C15_3 1_555 1_555
N7_3 C22_3 1_555 1_555
N9_3 Zn1_3 1_555 1_555
N10_3 Zn1_3 1_555 1_555
N11_3 Zn4_3 1_555 1_555
Zn2_3 N5_3 1_555 1_555
Zn5_2 N7_3 1_555 1_555
Zn4_3 N3_3 1_555 1_555
Zn3 N4_3 1_555 1_555
C2_3 N1_3 1_555 1_555
C6_3 C7_3 1_555 1_555
C6_3 N3_3 1_555 1_555
C9_3 N4_3 1_555 1_555
C11_3 N2_3 1_555 1_555
C13_3 C14_3 1_555 1_555
N2_3 Zn1_3 1_555 1_555
C15_3 N9_3 1_555 1_555
C16_3 N5_3 1_555 1_555
C20_3 C21_3 1_555 1_555
C20_3 N9_3 1_555 1_555
C22_3 N10_3 1_555 1_555
C23_3 N10_3 1_555 1_555
C25_3 N7_3 1_555 1_555
C27_3 C28_3 1_555 1_555
C8_4 H6_4 1_555 1_555
C9_4 C10_4 1_555 1_555
C10_4 H7_4 1_555 1_555
C11_4 C9_4 1_555 1_555
C12_4 C11_4 1_555 1_555
H8_4 C12_4 1_555 1_555
C13_4 C10_4 1_555 1_555
H9_4 C13_4 1_555 1_555
C14_4 C12_4 1_555 1_555
H10_4 C14_4 1_555 1_555
N2_4 C8_4 1_555 1_555
N4_4 C8_4 1_555 1_555
C15_4 H11_4 1_555 1_555
C16_4 C17_4 1_555 1_555
C17_4 H12_4 1_555 1_555
C18_4 C17_4 1_555 1_555
H13_4 C18_4 1_555 1_555
C19_4 C18_4 1_555 1_555
H14_4 C19_4 1_555 1_555
C20_4 C16_4 1_555 1_555
C21_4 C19_4 1_555 1_555
H15_4 C21_4 1_555 1_555
C22_4 H16_4 1_555 1_555
C23_4 C24_4 1_555 1_555
C24_4 H17_4 1_555 1_555
C25_4 C23_4 1_555 1_555
C26_4 C25_4 1_555 1_555
H18_4 C26_4 1_555 1_555
C27_4 C24_4 1_555 1_555
H19_4 C27_4 1_555 1_555
C28_4 C26_4 1_555 1_555
H20_4 C28_4 1_555 1_555
N6_3 C15_4 1_555 1_555
N7_4 C22_4 1_555 1_555
N9_4 Zn2_3 1_555 1_555
N10_4 Zn2_3 1_555 1_555
Zn3_2 N7_4 1_555 1_555
Zn5_3 N4_4 1_555 1_555
C9_4 N4_4 1_555 1_555
C11_4 N2_4 1_555 1_555
C13_4 C14_4 1_555 1_555
N2_4 Zn2_3 1_555 1_555
C15_4 N9_4 1_555 1_555
C16_4 N6_3 1_555 1_555
C20_4 C21_4 1_555 1_555
C20_4 N9_4 1_555 1_555
C22_4 N10_4 1_555 1_555
C23_4 N10_4 1_555 1_555
C25_4 N7_4 1_555 1_555
C27_4 C28_4 1_555 1_555
C16_5 C17_5 1_555 1_555
C17_5 H12_5 1_555 1_555
C18_5 C17_5 1_555 1_555
H13_5 C18_5 1_555 1_555
C19_5 C18_5 1_555 1_555
H14_5 C19_5 1_555 1_555
C20_5 C16_5 1_555 1_555
C21_5 C19_5 1_555 1_555
H15_5 C21_5 1_555 1_555
C16_5 N6 1_555 1_555
C20_5 C21_5 1_555 1_555
C8_5 H6_5 1_555 1_555
C9_5 C10_5 1_555 1_555
C10_5 H7_5 1_555 1_555
C11_5 C9_5 1_555 1_555
C12_5 C11_5 1_555 1_555
H8_5 C12_5 1_555 1_555
C13_5 C10_5 1_555 1_555
H9_5 C13_5 1_555 1_555
C14_5 C12_5 1_555 1_555
H10_5 C14_5 1_555 1_555
N2_5 C8_5 1_555 1_555
N4_5 C8_5 1_555 1_555
C15_5 H11_5 1_555 1_555
C22_5 H16_5 1_555 1_555
C23_5 C24_5 1_555 1_555
C24_5 H17_5 1_555 1_555
C25_5 C23_5 1_555 1_555
C26_5 C25_5 1_555 1_555
H18_5 C26_5 1_555 1_555
C27_5 C24_5 1_555 1_555
H19_5 C27_5 1_555 1_555
C28_5 C26_5 1_555 1_555
H20_5 C28_5 1_555 1_555
N7_5 C22_5 1_555 1_555
N9_5 Zn2 1_555 1_555
N10_5 Zn2 1_555 1_555
Zn5_3 N7_5 1_555 1_555
Zn5_4 N4_5 1_555 1_555
C9_5 N4_5 1_555 1_555
C11_5 N2_5 1_555 1_555
C13_5 C14_5 1_555 1_555
N2_5 Zn2 1_555 1_555
C15_5 N9_5 1_555 1_555
C22_5 N10_5 1_555 1_555
C23_5 N10_5 1_555 1_555
C25_5 N7_5 1_555 1_555
C27_5 C28_5 1_555 1_555
C8_6 H6_6 1_555 1_555
C9_6 C10_6 1_555 1_555
C10_6 H7_6 1_555 1_555
C11_6 C9_6 1_555 1_555
C12_6 C11_6 1_555 1_555
H8_6 C12_6 1_555 1_555
C13_6 C10_6 1_555 1_555
H9_6 C13_6 1_555 1_555
C14_6 C12_6 1_555 1_555
H10_6 C14_6 1_555 1_555
N2_6 C8_6 1_555 1_555
N4_6 C8_6 1_555 1_555
C15_6 H11_6 1_555 1_555
C22_6 H16_6 1_555 1_555
C23_6 C24_6 1_555 1_555
C24_6 H17_6 1_555 1_555
C25_6 C23_6 1_555 1_555
C26_6 C25_6 1_555 1_555
H18_6 C26_6 1_555 1_555
C27_6 C24_6 1_555 1_555
H19_6 C27_6 1_555 1_555
C28_6 C26_6 1_555 1_555
H20_6 C28_6 1_555 1_555
N7_6 C22_6 1_555 1_555
N9_6 Zn2_2 1_555 1_555
N10_6 Zn2_2 1_555 1_555
Zn5_4 N7_6 1_555 1_555
Zn3_2 N4_6 1_555 1_555
C9_6 N4_6 1_555 1_555
C11_6 N2_6 1_555 1_555
C13_6 C14_6 1_555 1_555
N2_6 Zn2_2 1_555 1_555
C15_6 N9_6 1_555 1_555
C22_6 N10_6 1_555 1_555
C23_6 N10_6 1_555 1_555
C25_6 N7_6 1_555 1_555
C27_6 C28_6 1_555 1_555
C16_6 C17_6 1_555 1_555
C17_6 H12_6 1_555 1_555
C18_6 C17_6 1_555 1_555
H13_6 C18_6 1_555 1_555
C19_6 C18_6 1_555 1_555
H14_6 C19_6 1_555 1_555
C20_6 C16_6 1_555 1_555
C21_6 C19_6 1_555 1_555
H15_6 C21_6 1_555 1_555
C16_6 N6_2 1_555 1_555
C20_6 C21_6 1_555 1_555
C8_7 H6_7 1_555 1_555
C9_7 C10_7 1_555 1_555
C11_7 C9_7 1_555 1_555
C12_7 C11_7 1_555 1_555
C13_7 C10_7 1_555 1_555
H9_7 C13_7 1_555 1_555
C14_7 C12_7 1_555 1_555
H10_7 C14_7 1_555 1_555
C9_7 N4_7 1_555 1_555
C11_7 N8_2 1_555 1_555
C13_7 C14_7 1_555 1_555
C23_7 C24_7 1_555 1_555
C25_7 C23_7 1_555 1_555
C26_7 C25_7 1_555 1_555
H18_7 C26_7 1_555 1_555
C27_7 C24_7 1_555 1_555
H19_7 C27_7 1_555 1_555
C28_7 C26_7 1_555 1_555
H20_7 C28_7 1_555 1_555
C23_7 N11_2 1_555 1_555
C25_7 N7_7 1_555 1_555
C27_7 C28_7 1_555 1_555
C22_7 H16_7 1_555 1_555
C8_8 H6_8 1_555 1_555
C23_8 C24_8 1_555 1_555
C24_8 H17_8 1_555 1_555
C25_8 C23_8 1_555 1_555
C26_8 C25_8 1_555 1_555
C27_8 C24_8 1_555 1_555
H19_8 C27_8 1_555 1_555
C28_8 C26_8 1_555 1_555
H20_8 C28_8 1_555 1_555
C23_8 N11_3 1_555 1_555
C25_8 N7_8 1_555 1_555
C27_8 C28_8 1_555 1_555
C9_8 C10_8 1_555 1_555
C11_8 C9_8 1_555 1_555
C12_8 C11_8 1_555 1_555
H8_8 C12_8 1_555 1_555
C13_8 C10_8 1_555 1_555
H9_8 C13_8 1_555 1_555
C14_8 C12_8 1_555 1_555
H10_8 C14_8 1_555 1_555
C22_8 H16_8 1_555 1_555
C9_8 N4_8 1_555 1_555
C11_8 N8_3 1_555 1_555
C13_8 C14_8 1_555 1_555
C23_9 C24_9 1_555 1_555
C25_9 C23_9 1_555 1_555
C26_9 C25_9 1_555 1_555
C27_9 C24_9 1_555 1_555
H19_9 C27_9 1_555 1_555
C28_9 C26_9 1_555 1_555
H20_9 C28_9 1_555 1_555
C23_9 N11 1_555 1_555
C25_9 N7_9 1_555 1_555
C27_9 C28_9 1_555 1_555
C22_9 H16_9 1_555 1_555
C8_9 H6_9 1_555 1_555
C9_9 C10_9 1_555 1_555
C10_9 H7_9 1_555 1_555
C11_9 C9_9 1_555 1_555
C12_9 C11_9 1_555 1_555
C13_9 C10_9 1_555 1_555
H9_9 C13_9 1_555 1_555
C14_9 C12_9 1_555 1_555
H10_9 C14_9 1_555 1_555
Zn3_3 N4_9 1_555 1_555
C9_9 N4_9 1_555 1_555
C11_9 N8 1_555 1_555
C13_9 C14_9 1_555 1_555
C2_4 C3_4 1_555 1_555
C3_4 H2_4 1_555 1_555
C4_4 C3_4 1_555 1_555
H3_4 C4_4 1_555 1_555
C5_4 C4_4 1_555 1_555
H4_4 C5_4 1_555 1_555
C6_4 C2_4 1_555 1_555
C7_4 C5_4 1_555 1_555
H5_4 C7_4 1_555 1_555
C16_7 C17_7 1_555 1_555
C17_7 H12_7 1_555 1_555
Zn3 N5_4 1_555 1_555
Zn5_5 N3_4 1_555 1_555
C6_4 C7_4 1_555 1_555
C6_4 N3_4 1_555 1_555
C16_7 N5_4 1_555 1_555
C1_4 H1_4 1_555 1_555
N1_4 C1_4 1_555 1_555
Zn5_4 N1_4 1_555 1_555
C15_7 H11_7 1_555 1_555
C19_7 C18_7 1_555 1_555
H14_7 C19_7 1_555 1_555
C21_7 C19_7 1_555 1_555
H15_7 C21_7 1_555 1_555
N9_7 Zn5_4 1_555 1_555
C15_7 N9_7 1_555 1_555
C20_7 C21_7 1_555 1_555
C20_7 N9_7 1_555 1_555
C1_5 H1_5 1_555 1_555
N1_5 C1_5 1_555 1_555
Zn3_2 N1_5 1_555 1_555
C15_8 H11_8 1_555 1_555
C19_8 C18_8 1_555 1_555
H14_8 C19_8 1_555 1_555
C21_8 C19_8 1_555 1_555
H15_8 C21_8 1_555 1_555
N9_8 Zn3_2 1_555 1_555
C15_8 N9_8 1_555 1_555
C20_8 C21_8 1_555 1_555
C20_8 N9_8 1_555 1_555
C2_5 C3_5 1_555 1_555
C3_5 H2_5 1_555 1_555
C4_5 C3_5 1_555 1_555
H3_5 C4_5 1_555 1_555
C5_5 C4_5 1_555 1_555
H4_5 C5_5 1_555 1_555
C6_5 C2_5 1_555 1_555
C7_5 C5_5 1_555 1_555
H5_5 C7_5 1_555 1_555
C16_8 C17_8 1_555 1_555
C17_8 H12_8 1_555 1_555
Zn5 N5_5 1_555 1_555
Zn5_6 N3_5 1_555 1_555
C6_5 C7_5 1_555 1_555
C6_5 N3_5 1_555 1_555
C16_8 N5_5 1_555 1_555
C1_6 H1_6 1_555 1_555
C2_6 C3_6 1_555 1_555
C3_6 H2_6 1_555 1_555
C4_6 C3_6 1_555 1_555
H3_6 C4_6 1_555 1_555
C5_6 C4_6 1_555 1_555
H4_6 C5_6 1_555 1_555
C6_6 C2_6 1_555 1_555
C7_6 C5_6 1_555 1_555
H5_6 C7_6 1_555 1_555
N1_6 C1_6 1_555 1_555
N3_6 C1_6 1_555 1_555
Zn5_3 N1_6 1_555 1_555
C15_9 H11_9 1_555 1_555
C16_9 C17_9 1_555 1_555
C17_9 H12_9 1_555 1_555
C18_9 C17_9 1_555 1_555
H13_9 C18_9 1_555 1_555
C19_9 C18_9 1_555 1_555
H14_9 C19_9 1_555 1_555
C20_9 C16_9 1_555 1_555
C21_9 C19_9 1_555 1_555
H15_9 C21_9 1_555 1_555
N5_6 C15_9 1_555 1_555
N9_9 Zn5_3 1_555 1_555
Zn5_2 N5_6 1_555 1_555
Zn3_3 N3_6 1_555 1_555
C2_6 N1_6 1_555 1_555
C6_6 C7_6 1_555 1_555
C6_6 N3_6 1_555 1_555
C15_9 N9_9 1_555 1_555
C16_9 N5_6 1_555 1_555
C20_9 C21_9 1_555 1_555
C20_9 N9_9 1_555 1_555
C15_10 H11_10 1_555 1_555
C16_10 C17_10 1_555 1_555
C17_10 H12_10 1_555 1_555
C18_10 C17_10 1_555 1_555
H13_10 C18_10 1_555 1_555
C19_10 C18_10 1_555 1_555
H14_10 C19_10 1_555 1_555
C20_10 C16_10 1_555 1_555
C21_10 C19_10 1_555 1_555
H15_10 C21_10 1_555 1_555
N6_6 C15_10 1_555 1_555
N9_10 Zn5_2 1_555 1_555
C15_10 N9_10 1_555 1_555
C16_10 N6_6 1_555 1_555
C20_10 C21_10 1_555 1_555
C20_10 N9_10 1_555 1_555
C15_11 H11_11 1_555 1_555
N9_11 Zn3 1_555 1_555
C15_11 N9_11 1_555 1_555
C16_11 C17_11 1_555 1_555
C17_11 H12_11 1_555 1_555
C18_11 C17_11 1_555 1_555
H13_11 C18_11 1_555 1_555
C19_11 C18_11 1_555 1_555
H14_11 C19_11 1_555 1_555
C20_11 C16_11 1_555 1_555
C21_11 C19_11 1_555 1_555
H15_11 C21_11 1_555 1_555
C16_11 N6_4 1_555 1_555
C20_11 C21_11 1_555 1_555
C16_12 C17_12 1_555 1_555
C17_12 H12_12 1_555 1_555
C18_12 C17_12 1_555 1_555
H13_12 C18_12 1_555 1_555
C19_12 C18_12 1_555 1_555
H14_12 C19_12 1_555 1_555
C20_12 C16_12 1_555 1_555
C21_12 C19_12 1_555 1_555
H15_12 C21_12 1_555 1_555
C16_12 N6_5 1_555 1_555
C20_12 C21_12 1_555 1_555
C15_12 H11_12 1_555 1_555
N9_12 Zn5 1_555 1_555
C15_12 N9_12 1_555 1_555

#END
