
###############################################################################
#
# This file contains modified crystal structure data generated from the
# MOF subset of the Cambridge Structural Database (CSD) v543 
# hosted by the Cambridge Crystallographic Data Centre (CCDC).
#
# This work is licensed under the Creative Commons
# Attribution-NonCommercial-ShareAlike 4.0 International License.
# To view a copy of this license, visit
# http://creativecommons.org/licenses/by-nc-sa/4.0/
# or send a letter to
# Creative Commons, PO Box 1866, Mountain View, CA 94042, USA.
#
# CIF created using the CSD Python API on 29 September 2022
# The structure has been converted into the P1 space group
# The structure has a 3D framework
# The original CSD entry VEMDAT is in the monoclinic crystal system
# The framework has been calculated to contain at least 10.0% void space
# The void calculation uses a probe of radius 1.32A, grid spacing 0.4
# The framework is charged, counterions have been retained in the structure
# H atom positions have been added when not included in the experimental data
#
###############################################################################

data_VEMDAT
_chemical_formula_moiety         '(C168 H144 N24 O54 P8 S8 Zn10)n'
_symmetry_cell_setting           triclinic
_symmetry_space_group_name_H-M   'P 1'
_symmetry_Int_Tables_number      1
_space_group_name_Hall           'P 1'
loop_
_symmetry_equiv_pos_site_id
_symmetry_equiv_pos_as_xyz
1 x,y,z
_cell_length_a                   13.53960(10)
_cell_length_b                   30.4380(5)
_cell_length_c                   15.7217(3)
_cell_angle_alpha                90
_cell_angle_beta                 110.5350(10)
_cell_angle_gamma                90
_cell_volume                     6067.5
loop_
_atom_site_label
_atom_site_type_symbol
_atom_site_fract_x
_atom_site_fract_y
_atom_site_fract_z
Zn2 Zn 0.33333(3) 0.082940(12) 0.29189(3)
S2 S 0.21429(15) 0.21569(6) 0.51121(16)
P2 P 0.44306(7) 0.06752(3) 0.49939(6)
N4 N 0.1762(2) 0.08028(10) 0.2195(2)
C7 C 0.4358(3) 0.12280(12) 0.5385(2)
C8 C 0.5265(4) 0.14479(14) 0.5921(3)
H5 H 0.5918 0.1311 0.6068
C9 C 0.5204(5) 0.18683(16) 0.6239(4)
H6 H 0.5810 0.2008 0.6615
C10 C 0.4241(5) 0.20782(16) 0.5996(4)
H7 H 0.4200 0.2362 0.6200
C11 C 0.3361(4) 0.18722(15) 0.5463(3)
C12 C 0.3402(4) 0.14436(14) 0.5152(3)
H8 H 0.2786 0.1305 0.4789
C29 C 0.0395(3) 0.06368(14) 0.0786(3)
H21 H 0.0206 0.0550 0.0183
C30 C 0.1445(3) 0.06759(14) 0.1323(3)
H22 H 0.1954 0.0611 0.1070
C31 C 0.1021(3) 0.09052(13) 0.2543(3)
H23 H 0.1232 0.1001 0.3143
O7 O 0.5498(2) 0.06418(10) 0.4892(2)
O8 O 0.3512(2) 0.06022(9) 0.41082(17)
O9 O 0.4311(2) 0.03731(9) 0.57253(18)
O10 O 0.1716(7) 0.2054(5) 0.5738(8)
O11 O 0.1515(5) 0.1982(3) 0.4295(5)
O12 O 0.2290(13) 0.2561(5) 0.5510(13)
Zn7 Zn 0.61372(3) 0.023240(13) 0.43044(3)
N7 N 0.3721(2) 0.14792(9) 0.3029(2)
O16 O 0.39524(19) 0.04885(8) 0.22256(19)
N1 N 0.7710(2) 0.02820(11) 0.5027(2)
C13 C 0.8184(3) 0.06727(15) 0.5210(4)
H9 H 0.7779 0.0923 0.4999
C14 C 0.9249(3) 0.07233(15) 0.5699(4)
H10 H 0.9552 0.1002 0.5799
C15 C 0.9858(3) 0.03536(13) 0.6036(3)
O15 O 0.5924(2) 0.03838(10) 0.30760(17)
Zn3 Zn 0.38628(3) 0.523240(13) 0.06956(3)
H9_2 H 0.2221 0.5923 0.0001
O15_2 O 0.4076(2) 0.53838(10) 0.19240(17)
O17 O 0.4502(2) 0.56418(10) 0.0108(2)
O18 O 0.4311(2) 0.46269(9) 0.07253(18)
Zn2_2 Zn 0.66667(3) 0.582940(12) 0.20811(3)
P2_2 P 0.55694(7) 0.56752(3) 0.00061(6)
N4_2 N 0.8238(2) 0.58028(10) 0.2805(2)
H8_2 H 0.7214 0.6305 0.0211
C29_2 C 0.9605(3) 0.56368(14) 0.4214(3)
H21_2 H 0.9794 0.5550 0.4817
C30_2 C 0.8555(3) 0.56759(14) 0.3677(3)
H22_2 H 0.8046 0.5611 0.3930
C31_2 C 0.8979(3) 0.59052(13) 0.2457(3)
H23_2 H 0.8768 0.6001 0.1857
O8_2 O 0.6488(2) 0.56022(9) 0.08918(17)
O11_2 O 0.8485(5) 0.6982(3) 0.0705(5)
N7_2 N 0.6279(2) 0.64792(9) 0.1971(2)
O16_2 O 0.60476(19) 0.54885(8) 0.27744(19)
C16 C 0.0629(3) 0.00520(13) 0.4158(3)
H11 H 0.0241 0.0308 0.3955
C17 C 0.1694(3) 0.00755(13) 0.4654(3)
H12 H 0.2012 0.0351 0.4772
S1 S 0.77319(13) 0.19025(6) 0.27424(13)
P1 P 0.50608(6) 0.04820(3) 0.21738(6)
C1 C 0.6498(4) 0.16572(14) 0.2127(3)
C2 C 0.5746(5) 0.18882(15) 0.1455(4)
H1 H 0.5892 0.2170 0.1305
C3 C 0.4774(4) 0.16998(15) 0.1003(4)
H2 H 0.4262 0.1856 0.0552
C4 C 0.4561(3) 0.12756(13) 0.1222(3)
H3 H 0.3900 0.1153 0.0926
C5 C 0.5329(3) 0.10340(11) 0.1880(2)
C6 C 0.6301(3) 0.12281(13) 0.2335(3)
H4 H 0.6821 0.1071 0.2779
H15 H 0.7138 0.0068 0.1773
H16 H 0.8898 0.0139 0.2623
O3 O 0.50987(18) 0.01759(7) 0.14173(15)
O4 O 0.8351(5) 0.1856(3) 0.2198(6)
O5 O 0.8138(6) 0.1686(3) 0.3579(5)
O6 O 0.7502(6) 0.2347(2) 0.2870(7)
Zn1 Zn 0.52430(3) 0.949275(12) 0.14052(3)
N2 N 0.6850(2) 0.95354(10) 0.2354(2)
N3 N 0.3650(2) 0.94426(9) 0.0461(2)
N5 N 0.5397(2) 0.87702(10) 0.1398(2)
C18 C 0.8994(3) 0.96122(12) 0.3427(3)
C19 C 0.8369(3) 0.92746(13) 0.3573(3)
H13 H 0.8659 0.9068 0.4027
C20 C 0.7309(3) 0.92536(12) 0.3030(3)
H14 H 0.6898 0.9032 0.3143
C21 C 0.7450(3) 0.98630(12) 0.2226(3)
C22 C 0.8511(3) 0.99090(13) 0.2740(3)
C23 C 0.2895(3) 0.96823(13) 0.0607(3)
H17 H 0.3090 0.9889 0.1072
C24 C 0.1837(3) 0.96350(13) 0.0095(3)
H18 H 0.1339 0.9808 0.0220
C33 C 0.4641(3) 0.85003(12) 0.1465(3)
H25 H 0.4013 0.8625 0.1462
C34 C 0.4741(3) 0.80474(13) 0.1538(3)
H26 H 0.4190 0.7874 0.1571
C35 C 0.5684(3) 0.78578(11) 0.1562(3)
C36 C 0.6469(3) 0.81330(13) 0.1479(3)
H27 H 0.7108 0.8017 0.1487
C37 C 0.6284(3) 0.85786(12) 0.1385(3)
H28 H 0.6803 0.8757 0.1307
C38 C 0.5876(3) 0.73789(12) 0.1707(3)
C39 C 0.5087(3) 0.70685(12) 0.1328(3)
H29 H 0.4409 0.7158 0.0979
C40 C 0.5322(3) 0.66273(12) 0.1477(3)
H30 H 0.4787 0.6424 0.1220
C41 C 0.7034(3) 0.67771(13) 0.2342(3)
H31 H 0.7703 0.6678 0.2691
C42 C 0.6872(3) 0.72243(13) 0.2233(3)
H32 H 0.7420 0.7420 0.2507
O13 O 0.5849(2) 0.95485(9) 0.03295(17)
O14 O 0.4636(2) 0.94045(10) 0.24923(18)
H33 H 0.623343 0.983108 0.0386347
H35 H 0.494813 0.913569 0.284099
H36 H 0.385683 0.937374 0.223418
S2_2 S 0.21429(15) 0.28431(6) 0.01121(16)
C7_2 C 0.4358(3) 0.37720(12) 0.0385(2)
C8_2 C 0.5265(4) 0.35521(14) 0.0921(3)
H5_2 H 0.5918 0.3689 0.1068
C9_2 C 0.5204(5) 0.31317(16) 0.1239(4)
H6_2 H 0.5810 0.2992 0.1615
C10_2 C 0.4241(5) 0.29218(16) 0.0996(4)
H7_2 H 0.4200 0.2638 0.1200
C11_2 C 0.3361(4) 0.31278(15) 0.0463(3)
C12_2 C 0.3402(4) 0.35564(14) 0.0152(3)
O10_2 O 0.1716(7) 0.2946(5) 0.0738(8)
O12_2 O 0.2290(13) 0.2439(5) 0.0510(13)
Zn1_2 Zn 0.47570(3) 0.449275(12) 0.35948(3)
S1_2 S 0.22681(13) 0.69025(6) 0.22576(13)
P1_2 P 0.49392(6) 0.54820(3) 0.28262(6)
N2_2 N 0.3150(2) 0.45354(10) 0.2646(2)
N3_2 N 0.6350(2) 0.44426(9) 0.4539(2)
N5_2 N 0.4603(2) 0.37702(10) 0.3602(2)
C1_2 C 0.3502(4) 0.66572(14) 0.2873(3)
C2_2 C 0.4254(5) 0.68882(15) 0.3545(4)
H1_2 H 0.4108 0.7170 0.3695
C3_2 C 0.5226(4) 0.66998(15) 0.3997(4)
H2_2 H 0.5738 0.6856 0.4448
C4_2 C 0.5439(3) 0.62756(13) 0.3778(3)
H3_2 H 0.6100 0.6153 0.4074
C5_2 C 0.4671(3) 0.60340(11) 0.3120(2)
C6_2 C 0.3699(3) 0.62281(13) 0.2665(3)
H4_2 H 0.3179 0.6071 0.2221
C18_2 C 0.1006(3) 0.46122(12) 0.1573(3)
C19_2 C 0.1631(3) 0.42746(13) 0.1427(3)
H13_2 H 0.1341 0.4068 0.0973
C20_2 C 0.2691(3) 0.42536(12) 0.1970(3)
H14_2 H 0.3102 0.4032 0.1857
C21_2 C 0.2550(3) 0.48630(12) 0.2774(3)
H15_2 H 0.2862 0.5068 0.3227
C22_2 C 0.1489(3) 0.49090(13) 0.2260(3)
H16_2 H 0.1102 0.5139 0.2377
C23_2 C 0.7105(3) 0.46823(13) 0.4393(3)
H17_2 H 0.6910 0.4889 0.3928
C24_2 C 0.8163(3) 0.46350(13) 0.4905(3)
H18_2 H 0.8661 0.4808 0.4780
C25 C 0.8483(3) 0.43305(12) 0.5605(2)
C26 C 0.7695(3) 0.40884(13) 0.5776(3)
H19 H 0.7868 0.3885 0.6248
C27 C 0.6654(3) 0.41560(13) 0.5231(3)
H20 H 0.6136 0.3994 0.5352
C28 C 0.9621(3) 0.42715(12) 0.6156(2)
C32 C 0.9950(3) 0.41253(13) 0.7047(3)
H24 H 0.9458 0.4048 0.7310
C33_2 C 0.5359(3) 0.35003(12) 0.3535(3)
H25_2 H 0.5987 0.3625 0.3538
C34_2 C 0.5259(3) 0.30474(13) 0.3462(3)
H26_2 H 0.5810 0.2874 0.3429
C35_2 C 0.4316(3) 0.28578(11) 0.3438(3)
C36_2 C 0.3531(3) 0.31330(13) 0.3521(3)
H27_2 H 0.2892 0.3017 0.3513
C37_2 C 0.3716(3) 0.35786(12) 0.3615(3)
H28_2 H 0.3197 0.3757 0.3693
C38_2 C 0.4124(3) 0.23789(12) 0.3293(3)
C39_2 C 0.4913(3) 0.20685(12) 0.3672(3)
H29_2 H 0.5591 0.2158 0.4021
C40_2 C 0.4678(3) 0.16273(12) 0.3523(3)
H30_2 H 0.5213 0.1424 0.3780
C41_2 C 0.2966(3) 0.17771(13) 0.2658(3)
H31_2 H 0.2297 0.1678 0.2309
C42_2 C 0.3128(3) 0.22243(13) 0.2767(3)
H32_2 H 0.2580 0.2420 0.2493
O3_2 O 0.49013(18) 0.51759(7) 0.35827(15)
O4_2 O 0.1649(5) 0.6856(3) 0.2802(6)
O5_2 O 0.1862(6) 0.6686(3) 0.1421(5)
O6_2 O 0.2498(6) 0.7347(2) 0.2130(7)
O13_2 O 0.4151(2) 0.45485(9) 0.46705(17)
O14_2 O 0.5364(2) 0.44045(10) 0.25077(18)
H33_2 H 0.376657 0.483108 0.461365
H34 H 0.474277 0.453951 0.526263
H35_2 H 0.505187 0.413569 0.215901
H36_2 H 0.614317 0.437374 0.276582
Zn8 Zn 0.38628(3) 0.976760(13) 0.56956(3)
Zn1_3 Zn 0.47570(3) 0.050725(12) 0.85948(3)
N2_3 N 0.3150(2) 0.04646(10) 0.7646(2)
N3_3 N 0.6350(2) 0.05574(9) 0.9539(2)
N5_3 N 0.4603(2) 0.12298(10) 0.8602(2)
N6 N 0.3721(2) 0.35208(9) 0.8029(2)
C18_3 C 0.1006(3) 0.03878(12) 0.6573(3)
C19_3 C 0.1631(3) 0.07254(13) 0.6427(3)
H13_3 H 0.1341 0.0932 0.5973
C20_3 C 0.2691(3) 0.07464(12) 0.6970(3)
H14_3 H 0.3102 0.0968 0.6857
C21_3 C 0.2550(3) 0.01370(12) 0.7774(3)
C22_3 C 0.1489(3) 0.00910(13) 0.7260(3)
C23_3 C 0.7105(3) 0.03177(13) 0.9393(3)
H17_3 H 0.6910 0.0111 0.8928
C24_3 C 0.8163(3) 0.03650(13) 0.9905(3)
H18_3 H 0.8661 0.0192 0.9780
C33_3 C 0.5359(3) 0.14997(12) 0.8535(3)
H25_3 H 0.5987 0.1375 0.8538
C34_3 C 0.5259(3) 0.19526(13) 0.8462(3)
H26_3 H 0.5810 0.2126 0.8429
C35_3 C 0.4316(3) 0.21422(11) 0.8438(3)
C36_3 C 0.3531(3) 0.18670(13) 0.8521(3)
H27_3 H 0.2892 0.1983 0.8513
C37_3 C 0.3716(3) 0.14214(12) 0.8615(3)
H28_3 H 0.3197 0.1243 0.8693
C38_3 C 0.4124(3) 0.26211(12) 0.8293(3)
C39_3 C 0.4913(3) 0.29315(12) 0.8672(3)
H29_3 H 0.5591 0.2842 0.9021
C40_3 C 0.4678(3) 0.33727(12) 0.8523(3)
H30_3 H 0.5213 0.3576 0.8780
C41_3 C 0.2966(3) 0.32229(13) 0.7658(3)
H31_3 H 0.2297 0.3322 0.7309
C42_3 C 0.3128(3) 0.27757(13) 0.7767(3)
H32_3 H 0.2580 0.2580 0.7493
O13_3 O 0.4151(2) 0.04515(9) 0.96705(17)
O14_3 O 0.5364(2) 0.05955(10) 0.75077(18)
Zn4 Zn 0.33333(3) 0.417060(12) 0.79189(3)
H33_3 H 0.376657 0.0168925 0.961365
H35_3 H 0.505187 0.086431 0.715901
H36_3 H 0.614317 0.0626256 0.776582
S1_3 S 0.22681(13) 0.80975(6) 0.72576(13)
P1_3 P 0.49392(6) 0.95180(3) 0.78262(6)
C1_3 C 0.3502(4) 0.83428(14) 0.7873(3)
C2_3 C 0.4254(5) 0.81118(15) 0.8545(4)
H1_3 H 0.4108 0.7830 0.8695
C3_3 C 0.5226(4) 0.83002(15) 0.8997(4)
H2_3 H 0.5738 0.8144 0.9448
C4_3 C 0.5439(3) 0.87244(13) 0.8778(3)
H3_3 H 0.6100 0.8847 0.9074
C5_3 C 0.4671(3) 0.89660(11) 0.8120(2)
C6_3 C 0.3699(3) 0.87719(13) 0.7665(3)
H4_3 H 0.3179 0.8929 0.7221
H15_3 H 0.2862 0.9932 0.8227
H16_3 H 0.1102 0.9861 0.7377
O1 O 0.4076(2) 0.96162(10) 0.69240(17)
O2 O 0.60476(19) 0.95115(8) 0.77744(19)
O3_3 O 0.49013(18) 0.98241(7) 0.85827(15)
O4_3 O 0.1649(5) 0.8144(3) 0.7802(6)
O5_3 O 0.1862(6) 0.8314(3) 0.6421(5)
O6_3 O 0.2498(6) 0.7653(2) 0.7130(7)
Zn5 Zn 0.66667(3) 0.917060(12) 0.70811(3)
C16_2 C 0.9371(3) 0.99480(13) 0.5842(3)
H11_2 H 0.9759 0.9692 0.6045
C17_2 C 0.8306(3) 0.99245(13) 0.5346(3)
H12_2 H 0.7988 0.9649 0.5228
O18_2 O 0.5689(2) 0.96269(9) 0.42747(18)
Zn1_4 Zn 0.52430(3) 0.550725(12) 0.64052(3)
S1_4 S 0.77319(13) 0.30975(6) 0.77424(13)
P1_4 P 0.50608(6) 0.45180(3) 0.71738(6)
N2_4 N 0.6850(2) 0.54646(10) 0.7354(2)
N3_4 N 0.3650(2) 0.55574(9) 0.5461(2)
N5_4 N 0.5397(2) 0.62298(10) 0.6398(2)
N6_2 N 0.6279(2) 0.85208(9) 0.6971(2)
C1_4 C 0.6498(4) 0.33428(14) 0.7127(3)
C2_4 C 0.5746(5) 0.31118(15) 0.6455(4)
H1_4 H 0.5892 0.2830 0.6305
C3_4 C 0.4774(4) 0.33002(15) 0.6003(4)
H2_4 H 0.4262 0.3144 0.5552
C4_4 C 0.4561(3) 0.37244(13) 0.6222(3)
H3_4 H 0.3900 0.3847 0.5926
C5_4 C 0.5329(3) 0.39660(11) 0.6880(2)
C6_4 C 0.6301(3) 0.37719(13) 0.7335(3)
H4_4 H 0.6821 0.3929 0.7779
C18_4 C 0.8994(3) 0.53878(12) 0.8427(3)
C19_4 C 0.8369(3) 0.57254(13) 0.8573(3)
H13_4 H 0.8659 0.5932 0.9027
C20_4 C 0.7309(3) 0.57464(12) 0.8030(3)
H14_4 H 0.6898 0.5968 0.8143
C21_4 C 0.7450(3) 0.51370(12) 0.7226(3)
H15_4 H 0.7138 0.4932 0.6773
C22_4 C 0.8511(3) 0.50910(13) 0.7740(3)
H16_4 H 0.8898 0.4861 0.7623
C23_4 C 0.2895(3) 0.53177(13) 0.5607(3)
H17_4 H 0.3090 0.5111 0.6072
C24_4 C 0.1837(3) 0.53650(13) 0.5095(3)
H18_4 H 0.1339 0.5192 0.5220
C25_2 C 0.1517(3) 0.56695(12) 0.4395(2)
C26_2 C 0.2305(3) 0.59116(13) 0.4224(3)
H19_2 H 0.2132 0.6115 0.3752
C27_2 C 0.3346(3) 0.58440(13) 0.4769(3)
H20_2 H 0.3864 0.6006 0.4648
C28_2 C 0.0379(3) 0.57285(12) 0.3844(2)
C32_2 C 0.0050(3) 0.58747(13) 0.2953(3)
H24_2 H 0.0542 0.5952 0.2690
C33_4 C 0.4641(3) 0.64997(12) 0.6465(3)
H25_4 H 0.4013 0.6375 0.6462
C34_4 C 0.4741(3) 0.69526(13) 0.6538(3)
H26_4 H 0.4190 0.7126 0.6571
C35_4 C 0.5684(3) 0.71422(11) 0.6562(3)
C36_4 C 0.6469(3) 0.68670(13) 0.6479(3)
H27_4 H 0.7108 0.6983 0.6487
C37_4 C 0.6284(3) 0.64214(12) 0.6385(3)
H28_4 H 0.6803 0.6243 0.6307
C38_4 C 0.5876(3) 0.76211(12) 0.6707(3)
C39_4 C 0.5087(3) 0.79315(12) 0.6328(3)
H29_4 H 0.4409 0.7842 0.5979
C40_4 C 0.5322(3) 0.83727(12) 0.6477(3)
H30_4 H 0.4787 0.8576 0.6220
C41_4 C 0.7034(3) 0.82229(13) 0.7342(3)
H31_4 H 0.7703 0.8322 0.7691
C42_4 C 0.6872(3) 0.77757(13) 0.7233(3)
H32_4 H 0.7420 0.7580 0.7507
O1_2 O 0.5924(2) 0.46162(10) 0.80760(17)
O2_2 O 0.39524(19) 0.45115(8) 0.72256(19)
O3_4 O 0.50987(18) 0.48241(7) 0.64173(15)
O4_4 O 0.8351(5) 0.3144(3) 0.7198(6)
O5_4 O 0.8138(6) 0.3314(3) 0.8579(5)
O6_4 O 0.7502(6) 0.2653(2) 0.7870(7)
O13_4 O 0.5849(2) 0.54515(9) 0.53295(17)
O14_4 O 0.4636(2) 0.55955(10) 0.74923(18)
Zn6 Zn 0.61372(3) 0.476760(13) 0.93044(3)
H33_4 H 0.623343 0.516892 0.538635
H34_2 H 0.525723 0.546049 0.473737
H35_4 H 0.494813 0.586431 0.784099
H36_4 H 0.385683 0.562626 0.723418
S2_3 S 0.78571(15) 0.71569(6) 0.98879(16)
C7_3 C 0.5642(3) 0.62280(12) 0.9615(2)
C8_3 C 0.4735(4) 0.64479(14) 0.9079(3)
H5_3 H 0.4082 0.6311 0.8932
C9_3 C 0.4796(5) 0.68683(16) 0.8761(4)
H6_3 H 0.4190 0.7008 0.8385
C10_3 C 0.5759(5) 0.70782(16) 0.9004(4)
H7_3 H 0.5800 0.7362 0.8800
C11_3 C 0.6639(4) 0.68722(15) 0.9537(3)
C12_3 C 0.6598(4) 0.64436(14) 0.9848(3)
O9_2 O 0.5689(2) 0.53731(9) 0.92747(18)
O10_3 O 0.8284(7) 0.7054(5) 0.9262(8)
O12_3 O 0.7710(13) 0.7561(5) 0.9490(13)
N1_2 N 0.2290(2) 0.97180(11) 0.4973(2)
C13_2 C 0.1816(3) 0.93273(15) 0.4790(4)
H9_3 H 0.2221 0.9077 0.5001
C14_2 C 0.0751(3) 0.92767(15) 0.4301(4)
H10_2 H 0.0448 0.8998 0.4201
C15_2 C 0.0142(3) 0.96464(13) 0.3964(3)
O17_2 O 0.4502(2) 0.93582(10) 0.5108(2)
S2_4 S 0.78571(15) 0.78431(6) 0.48879(16)
P2_3 P 0.55694(7) 0.93248(3) 0.50061(6)
N4_3 N 0.8238(2) 0.91972(10) 0.7805(2)
C7_4 C 0.5642(3) 0.87720(12) 0.4615(2)
C8_4 C 0.4735(4) 0.85521(14) 0.4079(3)
H5_4 H 0.4082 0.8689 0.3932
C9_4 C 0.4796(5) 0.81317(16) 0.3761(4)
H6_4 H 0.4190 0.7992 0.3385
C10_4 C 0.5759(5) 0.79218(16) 0.4004(4)
H7_4 H 0.5800 0.7638 0.3800
C11_4 C 0.6639(4) 0.81278(15) 0.4537(3)
C12_4 C 0.6598(4) 0.85564(14) 0.4848(3)
H8_3 H 0.7214 0.8695 0.5211
C29_3 C 0.9605(3) 0.93632(14) 0.9214(3)
H21_3 H 0.9794 0.9450 0.9817
C30_3 C 0.8555(3) 0.93241(14) 0.8677(3)
H22_3 H 0.8046 0.9389 0.8930
C31_3 C 0.8979(3) 0.90948(13) 0.7457(3)
H23_3 H 0.8768 0.8999 0.6857
O8_3 O 0.6488(2) 0.93978(9) 0.58918(17)
O10_4 O 0.8284(7) 0.7946(5) 0.4262(8)
O11_3 O 0.8485(5) 0.8018(3) 0.5705(5)
O12_4 O 0.7710(13) 0.7439(5) 0.4490(13)
P2_4 P 0.44306(7) 0.43248(3) 0.99939(6)
N4_4 N 0.1762(2) 0.41972(10) 0.7195(2)
H8_4 H 0.2786 0.3695 0.9789
C29_4 C 0.0395(3) 0.43632(14) 0.5786(3)
H21_4 H 0.0206 0.4450 0.5183
C30_4 C 0.1445(3) 0.43241(14) 0.6323(3)
H22_4 H 0.1954 0.4389 0.6070
C31_4 C 0.1021(3) 0.40948(13) 0.7543(3)
H23_4 H 0.1232 0.3999 0.8143
O7_2 O 0.5498(2) 0.43582(10) 0.9892(2)
O8_4 O 0.3512(2) 0.43978(9) 0.91082(17)
O11_4 O 0.1515(5) 0.3018(3) 0.9295(5)
H9_4 H 0.7779 0.4077 0.9999
C25_3 C 0.8483(3) 0.06695(12) 0.0605(2)
C26_3 C 0.7695(3) 0.09116(13) 0.0776(3)
H19_3 H 0.7868 0.1115 0.1248
C27_3 C 0.6654(3) 0.08440(13) 0.0231(3)
H20_3 H 0.6136 0.1006 0.0352
C28_3 C 0.9621(3) 0.07285(12) 0.1156(2)
C32_3 C 0.9950(3) 0.08747(13) 0.2047(3)
H24_3 H 0.9458 0.0952 0.2310
H34_3 H 0.474277 0.0460489 0.0262625
N1_3 N 0.2290(2) 0.52820(11) 0.9973(2)
C13_3 C 0.1816(3) 0.56727(15) 0.9790(4)
C14_3 C 0.0751(3) 0.57233(15) 0.9301(4)
H10_3 H 0.0448 0.6002 0.9201
C15_3 C 0.0142(3) 0.53536(13) 0.8964(3)
C16_3 C 0.0629(3) 0.49480(13) 0.9158(3)
H11_3 H 0.0241 0.4692 0.8955
C17_3 C 0.1694(3) 0.49245(13) 0.9654(3)
H12_3 H 0.2012 0.4649 0.9772
C25_4 C 0.1517(3) 0.93305(12) 0.9395(2)
C26_4 C 0.2305(3) 0.90884(13) 0.9224(3)
H19_4 H 0.2132 0.8885 0.8752
C27_4 C 0.3346(3) 0.91560(13) 0.9769(3)
H20_4 H 0.3864 0.8994 0.9648
C28_4 C 0.0379(3) 0.92715(12) 0.8844(2)
C32_4 C 0.0050(3) 0.91253(13) 0.7953(3)
H24_4 H 0.0542 0.9048 0.7690
H34_4 H 0.525723 0.953951 0.973737
N1_4 N 0.7710(2) 0.47180(11) 0.0027(2)
C13_4 C 0.8184(3) 0.43273(15) 0.0210(4)
C14_4 C 0.9249(3) 0.42767(15) 0.0699(4)
H10_4 H 0.9552 0.3998 0.0799
C15_4 C 0.9858(3) 0.46464(13) 0.1036(3)
C16_4 C 0.9371(3) 0.50520(13) 0.0842(3)
H11_4 H 0.9759 0.5308 0.1045
C17_4 C 0.8306(3) 0.50755(13) 0.0346(3)
H12_4 H 0.7988 0.5351 0.0228
loop_
_geom_bond_atom_site_label_1
_geom_bond_atom_site_label_2
_geom_bond_site_symmetry_1
_geom_bond_site_symmetry_2
Zn2 N4 1_555 1_555
S2 C11 1_555 1_555
P2 C7 1_555 1_555
N4 C30 1_555 1_555
C7 C8 1_555 1_555
C8 H5 1_555 1_555
C9 C8 1_555 1_555
H6 C9 1_555 1_555
C10 C9 1_555 1_555
H7 C10 1_555 1_555
C11 C10 1_555 1_555
C12 C7 1_555 1_555
H8 C12 1_555 1_555
H21 C29 1_555 1_555
C30 C29 1_555 1_555
H22 C30 1_555 1_555
C31 N4 1_555 1_555
H23 C31 1_555 1_555
O7 P2 1_555 1_555
O8 Zn2 1_555 1_555
O9 P2 1_555 1_555
O10 S2 1_555 1_555
O11 S2 1_555 1_555
O12 S2 1_555 1_555
Zn7 O7 1_555 1_555
N7 Zn2 1_555 1_555
O16 Zn2 1_555 1_555
P2 O8 1_555 1_555
C11 C12 1_555 1_555
Zn7 N1 1_555 1_555
N1 C13 1_555 1_555
C13 H9 1_555 1_555
C14 C13 1_555 1_555
H10 C14 1_555 1_555
C15 C14 1_555 1_555
O15 Zn7 1_555 1_555
O15_2 Zn3 1_555 1_555
O17 Zn3 1_555 1_555
O18 Zn3 1_555 1_555
Zn2_2 N4_2 1_555 1_555
N4_2 C30_2 1_555 1_555
H21_2 C29_2 1_555 1_555
C30_2 C29_2 1_555 1_555
H22_2 C30_2 1_555 1_555
C31_2 N4_2 1_555 1_555
H23_2 C31_2 1_555 1_555
O17 P2_2 1_555 1_555
O8_2 Zn2_2 1_555 1_555
N7_2 Zn2_2 1_555 1_555
O16_2 Zn2_2 1_555 1_555
P2_2 O8_2 1_555 1_555
H11 C16 1_555 1_555
H12 C17 1_555 1_555
C16 C17 1_555 1_555
S1 C1 1_555 1_555
P1 C5 1_555 1_555
C1 C2 1_555 1_555
C2 H1 1_555 1_555
C3 C2 1_555 1_555
H2 C3 1_555 1_555
C4 C3 1_555 1_555
H3 C4 1_555 1_555
C5 C4 1_555 1_555
C6 C1 1_555 1_555
H4 C6 1_555 1_555
O15 P1 1_555 1_555
O16 P1 1_555 1_555
O4 S1 1_555 1_555
O5 S1 1_555 1_555
O6 S1 1_555 1_555
P1 O3 1_555 1_555
C5 C6 1_555 1_555
Zn1 N2 1_555 1_555
N2 C20 1_555 1_555
N3 Zn1 1_555 1_555
N5 Zn1 1_555 1_555
N7_2 C40 1_555 1_555
C19 C18 1_555 1_555
H13 C19 1_555 1_555
C20 C19 1_555 1_555
H14 C20 1_555 1_555
C21 N2 1_555 1_555
C22 C18 1_555 1_555
C23 N3 1_555 1_555
H17 C23 1_555 1_555
C24 C23 1_555 1_555
H18 C24 1_555 1_555
C33 N5 1_555 1_555
H25 C33 1_555 1_555
C34 C33 1_555 1_555
H26 C34 1_555 1_555
C35 C34 1_555 1_555
C36 C35 1_555 1_555
H27 C36 1_555 1_555
C37 N5 1_555 1_555
H28 C37 1_555 1_555
C38 C35 1_555 1_555
C39 C38 1_555 1_555
H29 C39 1_555 1_555
C40 C39 1_555 1_555
H30 C40 1_555 1_555
C41 N7_2 1_555 1_555
H31 C41 1_555 1_555
C42 C38 1_555 1_555
H32 C42 1_555 1_555
O13 Zn1 1_555 1_555
O14 Zn1 1_555 1_555
C21 C22 1_555 1_555
C36 C37 1_555 1_555
C41 C42 1_555 1_555
O13 H33 1_555 1_555
O14 H35 1_555 1_555
O14 H36 1_555 1_555
S2_2 C11_2 1_555 1_555
C7_2 C8_2 1_555 1_555
C8_2 H5_2 1_555 1_555
C9_2 C8_2 1_555 1_555
H6_2 C9_2 1_555 1_555
C10_2 C9_2 1_555 1_555
H7_2 C10_2 1_555 1_555
C11_2 C10_2 1_555 1_555
C12_2 C7_2 1_555 1_555
O10_2 S2_2 1_555 1_555
O12_2 S2_2 1_555 1_555
C11_2 C12_2 1_555 1_555
Zn1_2 N2_2 1_555 1_555
S1_2 C1_2 1_555 1_555
P1_2 C5_2 1_555 1_555
N2_2 C20_2 1_555 1_555
N3_2 Zn1_2 1_555 1_555
N5_2 Zn1_2 1_555 1_555
N7 C40_2 1_555 1_555
C1_2 C2_2 1_555 1_555
C2_2 H1_2 1_555 1_555
C3_2 C2_2 1_555 1_555
H2_2 C3_2 1_555 1_555
C4_2 C3_2 1_555 1_555
H3_2 C4_2 1_555 1_555
C5_2 C4_2 1_555 1_555
C6_2 C1_2 1_555 1_555
H4_2 C6_2 1_555 1_555
C19_2 C18_2 1_555 1_555
H13_2 C19_2 1_555 1_555
C20_2 C19_2 1_555 1_555
H14_2 C20_2 1_555 1_555
C21_2 N2_2 1_555 1_555
H15_2 C21_2 1_555 1_555
C22_2 C18_2 1_555 1_555
H16_2 C22_2 1_555 1_555
C23_2 N3_2 1_555 1_555
H17_2 C23_2 1_555 1_555
C24_2 C23_2 1_555 1_555
H18_2 C24_2 1_555 1_555
C25 C24_2 1_555 1_555
C26 C25 1_555 1_555
H19 C26 1_555 1_555
C27 N3_2 1_555 1_555
H20 C27 1_555 1_555
C28 C25 1_555 1_555
C32 C28 1_555 1_555
H24 C32 1_555 1_555
C33_2 N5_2 1_555 1_555
H25_2 C33_2 1_555 1_555
C34_2 C33_2 1_555 1_555
H26_2 C34_2 1_555 1_555
C35_2 C34_2 1_555 1_555
C36_2 C35_2 1_555 1_555
H27_2 C36_2 1_555 1_555
C37_2 N5_2 1_555 1_555
H28_2 C37_2 1_555 1_555
C38_2 C35_2 1_555 1_555
C39_2 C38_2 1_555 1_555
H29_2 C39_2 1_555 1_555
C40_2 C39_2 1_555 1_555
H30_2 C40_2 1_555 1_555
C41_2 N7 1_555 1_555
H31_2 C41_2 1_555 1_555
C42_2 C38_2 1_555 1_555
H32_2 C42_2 1_555 1_555
O15_2 P1_2 1_555 1_555
O16_2 P1_2 1_555 1_555
O3_2 Zn1_2 1_555 1_555
O4_2 S1_2 1_555 1_555
O5_2 S1_2 1_555 1_555
O6_2 S1_2 1_555 1_555
O13_2 Zn1_2 1_555 1_555
O14_2 Zn1_2 1_555 1_555
P1_2 O3_2 1_555 1_555
C5_2 C6_2 1_555 1_555
C21_2 C22_2 1_555 1_555
C26 C27 1_555 1_555
C36_2 C37_2 1_555 1_555
C41_2 C42_2 1_555 1_555
O13_2 H33_2 1_555 1_555
O13_2 H34 1_555 1_555
O14_2 H35_2 1_555 1_555
O14_2 H36_2 1_555 1_555
Zn1_3 N2_3 1_555 1_555
N2_3 C20_3 1_555 1_555
N3_3 Zn1_3 1_555 1_555
N5_3 Zn1_3 1_555 1_555
N6 C40_3 1_555 1_555
C19_3 C18_3 1_555 1_555
H13_3 C19_3 1_555 1_555
C20_3 C19_3 1_555 1_555
H14_3 C20_3 1_555 1_555
C21_3 N2_3 1_555 1_555
C22_3 C18_3 1_555 1_555
C23_3 N3_3 1_555 1_555
H17_3 C23_3 1_555 1_555
C24_3 C23_3 1_555 1_555
H18_3 C24_3 1_555 1_555
C33_3 N5_3 1_555 1_555
H25_3 C33_3 1_555 1_555
C34_3 C33_3 1_555 1_555
H26_3 C34_3 1_555 1_555
C35_3 C34_3 1_555 1_555
C36_3 C35_3 1_555 1_555
H27_3 C36_3 1_555 1_555
C37_3 N5_3 1_555 1_555
H28_3 C37_3 1_555 1_555
C38_3 C35_3 1_555 1_555
C39_3 C38_3 1_555 1_555
H29_3 C39_3 1_555 1_555
C40_3 C39_3 1_555 1_555
H30_3 C40_3 1_555 1_555
C41_3 N6 1_555 1_555
H31_3 C41_3 1_555 1_555
C42_3 C38_3 1_555 1_555
H32_3 C42_3 1_555 1_555
O13_3 Zn1_3 1_555 1_555
O14_3 Zn1_3 1_555 1_555
Zn4 N6 1_555 1_555
C21_3 C22_3 1_555 1_555
C36_3 C37_3 1_555 1_555
C41_3 C42_3 1_555 1_555
O13_3 H33_3 1_555 1_555
O14_3 H35_3 1_555 1_555
O14_3 H36_3 1_555 1_555
S1_3 C1_3 1_555 1_555
P1_3 C5_3 1_555 1_555
C1_3 C2_3 1_555 1_555
C2_3 H1_3 1_555 1_555
C3_3 C2_3 1_555 1_555
H2_3 C3_3 1_555 1_555
C4_3 C3_3 1_555 1_555
H3_3 C4_3 1_555 1_555
C5_3 C4_3 1_555 1_555
C6_3 C1_3 1_555 1_555
H4_3 C6_3 1_555 1_555
O1 P1_3 1_555 1_555
O2 P1_3 1_555 1_555
O4_3 S1_3 1_555 1_555
O5_3 S1_3 1_555 1_555
O6_3 S1_3 1_555 1_555
Zn5 O2 1_555 1_555
Zn8 O1 1_555 1_555
P1_3 O3_3 1_555 1_555
C5_3 C6_3 1_555 1_555
H11_2 C16_2 1_555 1_555
H12_2 C17_2 1_555 1_555
C16_2 C17_2 1_555 1_555
Zn1_4 N2_4 1_555 1_555
S1_4 C1_4 1_555 1_555
P1_4 C5_4 1_555 1_555
N2_4 C20_4 1_555 1_555
N3_4 Zn1_4 1_555 1_555
N5_4 Zn1_4 1_555 1_555
N6_2 C40_4 1_555 1_555
C1_4 C2_4 1_555 1_555
C2_4 H1_4 1_555 1_555
C3_4 C2_4 1_555 1_555
H2_4 C3_4 1_555 1_555
C4_4 C3_4 1_555 1_555
H3_4 C4_4 1_555 1_555
C5_4 C4_4 1_555 1_555
C6_4 C1_4 1_555 1_555
H4_4 C6_4 1_555 1_555
C19_4 C18_4 1_555 1_555
H13_4 C19_4 1_555 1_555
C20_4 C19_4 1_555 1_555
H14_4 C20_4 1_555 1_555
C21_4 N2_4 1_555 1_555
H15_4 C21_4 1_555 1_555
C22_4 C18_4 1_555 1_555
H16_4 C22_4 1_555 1_555
C23_4 N3_4 1_555 1_555
H17_4 C23_4 1_555 1_555
C24_4 C23_4 1_555 1_555
H18_4 C24_4 1_555 1_555
C25_2 C24_4 1_555 1_555
C26_2 C25_2 1_555 1_555
H19_2 C26_2 1_555 1_555
C27_2 N3_4 1_555 1_555
H20_2 C27_2 1_555 1_555
C28_2 C25_2 1_555 1_555
C32_2 C28_2 1_555 1_555
H24_2 C32_2 1_555 1_555
C33_4 N5_4 1_555 1_555
H25_4 C33_4 1_555 1_555
C34_4 C33_4 1_555 1_555
H26_4 C34_4 1_555 1_555
C35_4 C34_4 1_555 1_555
C36_4 C35_4 1_555 1_555
H27_4 C36_4 1_555 1_555
C37_4 N5_4 1_555 1_555
H28_4 C37_4 1_555 1_555
C38_4 C35_4 1_555 1_555
C39_4 C38_4 1_555 1_555
H29_4 C39_4 1_555 1_555
C40_4 C39_4 1_555 1_555
H30_4 C40_4 1_555 1_555
C41_4 N6_2 1_555 1_555
H31_4 C41_4 1_555 1_555
C42_4 C38_4 1_555 1_555
H32_4 C42_4 1_555 1_555
O1_2 P1_4 1_555 1_555
O2_2 P1_4 1_555 1_555
O3_4 Zn1_4 1_555 1_555
O4_4 S1_4 1_555 1_555
O5_4 S1_4 1_555 1_555
O6_4 S1_4 1_555 1_555
O13_4 Zn1_4 1_555 1_555
O14_4 Zn1_4 1_555 1_555
Zn5 N6_2 1_555 1_555
Zn4 O2_2 1_555 1_555
Zn6 O1_2 1_555 1_555
P1_4 O3_4 1_555 1_555
C5_4 C6_4 1_555 1_555
C21_4 C22_4 1_555 1_555
C26_2 C27_2 1_555 1_555
C36_4 C37_4 1_555 1_555
C41_4 C42_4 1_555 1_555
O13_4 H33_4 1_555 1_555
O13_4 H34_2 1_555 1_555
O14_4 H35_4 1_555 1_555
O14_4 H36_4 1_555 1_555
S2_3 C11_3 1_555 1_555
C7_3 C8_3 1_555 1_555
C8_3 H5_3 1_555 1_555
C9_3 C8_3 1_555 1_555
H6_3 C9_3 1_555 1_555
C10_3 C9_3 1_555 1_555
H7_3 C10_3 1_555 1_555
C11_3 C10_3 1_555 1_555
C12_3 C7_3 1_555 1_555
O10_3 S2_3 1_555 1_555
O12_3 S2_3 1_555 1_555
Zn6 O9_2 1_555 1_555
C11_3 C12_3 1_555 1_555
Zn8 N1_2 1_555 1_555
N1_2 C13_2 1_555 1_555
C13_2 H9_3 1_555 1_555
C14_2 C13_2 1_555 1_555
H10_2 C14_2 1_555 1_555
C15_2 C14_2 1_555 1_555
O17_2 Zn8 1_555 1_555
Zn5 N4_3 1_555 1_555
S2_4 C11_4 1_555 1_555
P2_3 C7_4 1_555 1_555
N4_3 C30_3 1_555 1_555
C7_4 C8_4 1_555 1_555
C8_4 H5_4 1_555 1_555
C9_4 C8_4 1_555 1_555
H6_4 C9_4 1_555 1_555
C10_4 C9_4 1_555 1_555
H7_4 C10_4 1_555 1_555
C11_4 C10_4 1_555 1_555
C12_4 C7_4 1_555 1_555
H8_3 C12_4 1_555 1_555
H21_3 C29_3 1_555 1_555
C30_3 C29_3 1_555 1_555
H22_3 C30_3 1_555 1_555
C31_3 N4_3 1_555 1_555
H23_3 C31_3 1_555 1_555
O17_2 P2_3 1_555 1_555
O8_3 Zn5 1_555 1_555
O18_2 P2_3 1_555 1_555
O10_4 S2_4 1_555 1_555
O11_3 S2_4 1_555 1_555
O12_4 S2_4 1_555 1_555
P2_3 O8_3 1_555 1_555
C11_4 C12_4 1_555 1_555
Zn4 N4_4 1_555 1_555
N4_4 C30_4 1_555 1_555
H21_4 C29_4 1_555 1_555
C30_4 C29_4 1_555 1_555
H22_4 C30_4 1_555 1_555
C31_4 N4_4 1_555 1_555
H23_4 C31_4 1_555 1_555
O7_2 P2_4 1_555 1_555
O8_4 Zn4 1_555 1_555
Zn6 O7_2 1_555 1_555
P2_4 O8_4 1_555 1_555
C26_3 C25_3 1_555 1_555
H19_3 C26_3 1_555 1_555
H20_3 C27_3 1_555 1_555
C28_3 C25_3 1_555 1_555
C32_3 C28_3 1_555 1_555
H24_3 C32_3 1_555 1_555
C26_3 C27_3 1_555 1_555
N1_3 C13_3 1_555 1_555
C14_3 C13_3 1_555 1_555
H10_3 C14_3 1_555 1_555
C15_3 C14_3 1_555 1_555
C16_3 C15_3 1_555 1_555
H11_3 C16_3 1_555 1_555
C17_3 N1_3 1_555 1_555
H12_3 C17_3 1_555 1_555
C16_3 C17_3 1_555 1_555
C26_4 C25_4 1_555 1_555
H19_4 C26_4 1_555 1_555
H20_4 C27_4 1_555 1_555
C28_4 C25_4 1_555 1_555
C32_4 C28_4 1_555 1_555
H24_4 C32_4 1_555 1_555
C26_4 C27_4 1_555 1_555
N1_4 C13_4 1_555 1_555
C14_4 C13_4 1_555 1_555
H10_4 C14_4 1_555 1_555
C15_4 C14_4 1_555 1_555
C16_4 C15_4 1_555 1_555
H11_4 C16_4 1_555 1_555
C17_4 N1_4 1_555 1_555
H12_4 C17_4 1_555 1_555
C16_4 C17_4 1_555 1_555

#END
