
###############################################################################
#
# This file contains modified crystal structure data generated from the
# MOF subset of the Cambridge Structural Database (CSD) v543 
# hosted by the Cambridge Crystallographic Data Centre (CCDC).
#
# This work is licensed under the Creative Commons
# Attribution-NonCommercial-ShareAlike 4.0 International License.
# To view a copy of this license, visit
# http://creativecommons.org/licenses/by-nc-sa/4.0/
# or send a letter to
# Creative Commons, PO Box 1866, Mountain View, CA 94042, USA.
#
# CIF created using the CSD Python API on 29 September 2022
# The structure has been converted into the P1 space group
# The structure has a 3D framework
# The original CSD entry VEMTAJ01 is in the orthorhombic crystal system
# The framework has been calculated to contain at least 10.0% void space
# The void calculation uses a probe of radius 1.32A, grid spacing 0.4
# The framework is charged, counterions have been retained in the structure
#
###############################################################################

data_VEMTAJ01
_chemical_formula_moiety         '(C88 H48 Co22 O60 8-)n'
_symmetry_cell_setting           triclinic
_symmetry_space_group_name_H-M   'P 1'
_symmetry_Int_Tables_number      1
_space_group_name_Hall           'P 1'
loop_
_symmetry_equiv_pos_site_id
_symmetry_equiv_pos_as_xyz
1 x,y,z
_cell_length_a                   14.2616(4)
_cell_length_b                   16.1525(5)
_cell_length_c                   16.4867(5)
_cell_angle_alpha                90
_cell_angle_beta                 90
_cell_angle_gamma                90
_cell_volume                     3797.88
loop_
_atom_site_label
_atom_site_type_symbol
_atom_site_fract_x
_atom_site_fract_y
_atom_site_fract_z
Co4 Co 0.0000 0.0000 0.0000
Co4_2 Co 0.0000 0.0000 1.0000
Co4_3 Co 0.0000 1.0000 0.0000
Co8 Co 0.021983(17) 0.819424(15) 0.109317(15)
Co4_4 Co -0.0000 1.0000 1.0000
Co1 Co 0.5000 0.0000 0.5000
Co2 Co 0.478017(17) 0.180576(15) 0.609317(15)
C1 C 0.25588(13) 0.00323(11) 0.65704(12)
C2 C 0.21356(13) 0.04475(11) 0.72163(11)
H1 H 0.2336 0.0988 0.7362
C3 C 0.14173(13) 0.00622(11) 0.76461(11)
C7 C 0.34072(13) 0.03968(11) 0.61636(11)
C8 C 0.09400(12) 0.04751(11) 0.83540(11)
C10 C 0.54800(14) 0.19182(12) 0.46913(12)
C11 C 0.57907(18) 0.19411(14) 0.38223(13)
H4 H 0.6176 0.2435 0.3730
H5 H 0.5239 0.1959 0.3468
H6 H 0.6160 0.1444 0.3701
O1 O 0.36775(9) 0.00469(8) 0.55185(8)
O2 O 0.37804(10) 0.10134(8) 0.65041(9)
O3 O 0.09043(9) 0.12568(8) 0.83581(8)
O7 O 0.49656(10) 0.13162(9) 0.49365(8)
O8 O 0.56694(11) 0.24871(9) 0.51732(9)
Co4_5 Co 1.0000 0.0000 0.0000
Co9 Co 0.978017(17) 0.319424(15) 0.390683(15)
C15 C 0.88812(13) 0.07272(11) 0.25729(12)
H8 H 0.9342 0.1002 0.2255
C16 C 0.85111(13) 0.11165(11) 0.32518(12)
C17 C 0.77825(13) 0.07329(11) 0.36811(12)
H9 H 0.7521 0.0996 0.4144
C20 C 0.89098(13) 0.19257(11) 0.35313(12)
O12 O 0.59043(9) 0.12568(8) 0.66419(8)
O14 O 0.93950(10) 0.00049(8) 0.11238(8)
O16 O 0.43950(10) 0.00049(8) 0.38762(8)
O17 O 0.95577(10) 0.22480(8) 0.31051(9)
O18 O 0.45577(10) 0.27520(8) 0.68949(9)
O20 O 0.86284(11) 0.22539(9) 0.41729(9)
O21 O 0.36284(11) 0.27461(9) 0.58271(9)
Co4_6 Co 1.0000 0.0000 1.0000
Co1_2 Co 0.5000 1.0000 0.5000
C4 C 0.11188(13) 0.92728(11) 0.74271(12)
H2 H 0.0658 0.8998 0.7745
C5 C 0.14889(13) 0.88835(11) 0.67482(12)
C6 C 0.22175(13) 0.92671(11) 0.63189(12)
H3 H 0.2479 0.9004 0.5856
C9 C 0.10902(13) 0.80743(11) 0.64687(12)
O4 O 0.06050(10) 0.99951(8) 0.88762(8)
O5 O 0.04423(10) 0.77520(8) 0.68949(9)
O6 O 0.13716(11) 0.77461(9) 0.58271(9)
Co4_7 Co 1.0000 1.0000 0.0000
Co5 Co 0.521983(17) 0.819424(15) 0.390683(15)
Co7 Co 0.021983(17) 0.680576(15) 0.609317(15)
C12 C 0.74412(13) 0.99677(11) 0.34296(12)
C13 C 0.78644(13) 0.95525(11) 0.27837(11)
H7 H 0.7664 0.9012 0.2638
C14 C 0.85827(13) 0.99378(11) 0.23539(11)
C18 C 0.65928(13) 0.96032(11) 0.38364(11)
C19 C 0.90600(12) 0.95249(11) 0.16460(11)
C21 C 0.45200(14) 0.80818(12) 0.53087(12)
C22 C 0.42093(18) 0.80589(14) 0.61777(13)
H10 H 0.3824 0.7565 0.6270
H11 H 0.4761 0.8041 0.6532
H12 H 0.3840 0.8556 0.6299
O9 O 0.63225(9) 0.99531(8) 0.44815(8)
O10 O 0.62196(10) 0.89866(8) 0.34959(9)
O11 O 0.90957(9) 0.87432(8) 0.16419(8)
O13 O 0.40957(9) 0.87432(8) 0.33581(8)
O15 O 0.56050(10) 0.99951(8) 0.61238(8)
O19 O 0.54423(10) 0.72480(8) 0.31051(9)
O22 O 0.63716(11) 0.72539(9) 0.41729(9)
O23 O 0.50344(10) 0.86838(9) 0.50635(8)
O24 O 0.43306(11) 0.75129(9) 0.48268(9)
Co4_8 Co 1.0000 1.0000 1.0000
Co6 Co 0.978017(17) 0.180576(15) 0.890683(15)
C4_2 C 0.38812(13) 0.07272(11) 0.24271(12)
H2_2 H 0.4342 0.1002 0.2745
C5_2 C 0.35111(13) 0.11165(11) 0.17482(12)
C6_2 C 0.27825(13) 0.07329(11) 0.13189(12)
H3_2 H 0.2521 0.0996 0.0856
C9_2 C 0.39098(13) 0.19257(11) 0.14687(12)
O5_2 O 0.45577(10) 0.22480(8) 0.18949(9)
O6_2 O 0.36284(11) 0.22539(9) 0.08271(9)
Co7_2 Co 0.478017(17) 0.319424(15) 0.109317(15)
C21_2 C 0.04800(14) 0.19182(12) 0.03087(12)
C22_2 C 0.07907(18) 0.19411(14) 0.11777(13)
H10_2 H 0.1176 0.2435 0.1270
H11_2 H 0.0239 0.1959 0.1532
H12_2 H 0.1160 0.1444 0.1299
O24_2 O 0.06694(11) 0.24871(9) 0.98268(9)
C1_2 C 0.24412(13) 0.99677(11) 0.15704(12)
C2_2 C 0.28644(13) 0.95525(11) 0.22163(11)
H1_2 H 0.2664 0.9012 0.2362
C3_2 C 0.35827(13) 0.99378(11) 0.26461(11)
C7_2 C 0.15928(13) 0.96032(11) 0.11636(11)
C8_2 C 0.40600(12) 0.95249(11) 0.33540(11)
O1_2 O 0.13225(9) 0.99531(8) 0.05185(8)
O2_2 O 0.12196(10) 0.89866(8) 0.15041(9)
O18_2 O 0.04423(10) 0.72480(8) 0.18949(9)
O21_2 O 0.13716(11) 0.72539(9) 0.08271(9)
O7_2 O 0.00344(10) 0.86838(9) 0.99365(8)
O23_2 O 0.99656(10) 0.13162(9) 0.00635(8)
C12_2 C 0.75588(13) 0.00323(11) 0.84296(12)
C13_2 C 0.71356(13) 0.04475(11) 0.77837(11)
H7_2 H 0.7336 0.0988 0.7638
C14_2 C 0.64173(13) 0.00622(11) 0.73539(11)
C18_2 C 0.84072(13) 0.03968(11) 0.88364(11)
C19_2 C 0.59400(12) 0.04751(11) 0.66460(11)
O9_2 O 0.86775(9) 0.00469(8) 0.94815(8)
O10_2 O 0.87804(10) 0.10134(8) 0.84959(9)
O19_2 O 0.95577(10) 0.27520(8) 0.81051(9)
O22_2 O 0.86284(11) 0.27461(9) 0.91729(9)
O8_2 O 0.93306(11) 0.75129(9) 0.01732(9)
C10_2 C 0.95200(14) 0.80818(12) 0.96913(12)
C11_2 C 0.92093(18) 0.80589(14) 0.88223(13)
H4_2 H 0.8824 0.7565 0.8730
H5_2 H 0.9761 0.8041 0.8468
H6_2 H 0.8840 0.8556 0.8701
Co9_2 Co 0.521983(17) 0.680576(15) 0.890683(15)
C15_2 C 0.61188(13) 0.92728(11) 0.75729(12)
H8_2 H 0.5658 0.8998 0.7255
C16_2 C 0.64889(13) 0.88835(11) 0.82518(12)
C17_2 C 0.72175(13) 0.92671(11) 0.86811(12)
H9_2 H 0.7479 0.9004 0.9144
C20_2 C 0.60902(13) 0.80743(11) 0.85313(12)
O17_2 O 0.54423(10) 0.77520(8) 0.81051(9)
O20_2 O 0.63716(11) 0.77461(9) 0.91729(9)
Co3 Co -0.0000 0.5000 0.5000
Co1_3 Co 0.5000 0.5000 0.0000
C10_3 C 0.45200(14) 0.69182(12) 0.03087(12)
C11_3 C 0.42093(18) 0.69411(14) 0.11777(13)
H4_3 H 0.3824 0.7435 0.1270
H5_3 H 0.4761 0.6959 0.1532
H6_3 H 0.3840 0.6444 0.1299
O7_3 O 0.50344(10) 0.63162(9) 0.00635(8)
C12_3 C 0.25588(13) 0.49677(11) 0.15704(12)
C13_3 C 0.21356(13) 0.45525(11) 0.22163(11)
H7_3 H 0.2336 0.4012 0.2362
C14_3 C 0.14173(13) 0.49378(11) 0.26461(11)
C15_3 C 0.11188(13) 0.57272(11) 0.24271(12)
H8_3 H 0.0658 0.6002 0.2745
C16_3 C 0.14889(13) 0.61165(11) 0.17482(12)
C17_3 C 0.22175(13) 0.57329(11) 0.13189(12)
H9_3 H 0.2479 0.5996 0.0856
C18_3 C 0.34072(13) 0.46032(11) 0.11636(11)
C19_3 C 0.09400(12) 0.45249(11) 0.33540(11)
C20_3 C 0.10902(13) 0.69257(11) 0.14687(12)
O9_3 O 0.36775(9) 0.49531(8) 0.05185(8)
O10_3 O 0.37804(10) 0.39866(8) 0.15041(9)
O11_2 O 0.09043(9) 0.37432(8) 0.33581(8)
O13_2 O 0.59043(9) 0.37432(8) 0.16419(8)
O14_2 O 0.06050(10) 0.50049(8) 0.38762(8)
O16_2 O 0.56050(10) 0.50049(8) 0.11238(8)
O24_3 O 0.56694(11) 0.25129(9) 0.01732(9)
Co1_4 Co 0.5000 0.5000 1.0000
C1_3 C 0.74412(13) 0.50323(11) 0.84296(12)
C2_3 C 0.78644(13) 0.54475(11) 0.77837(11)
H1_3 H 0.7664 0.5988 0.7638
C3_3 C 0.85827(13) 0.50622(11) 0.73539(11)
C4_3 C 0.88812(13) 0.42728(11) 0.75729(12)
H2_3 H 0.9342 0.3998 0.7255
C5_3 C 0.85111(13) 0.38835(11) 0.82518(12)
C6_3 C 0.77825(13) 0.42671(11) 0.86811(12)
H3_3 H 0.7521 0.4004 0.9144
C7_3 C 0.65928(13) 0.53968(11) 0.88364(11)
C8_3 C 0.90600(12) 0.54751(11) 0.66460(11)
C9_3 C 0.89098(13) 0.30743(11) 0.85313(12)
O1_3 O 0.63225(9) 0.50469(8) 0.94815(8)
O2_3 O 0.62196(10) 0.60134(8) 0.84959(9)
O3_2 O 0.90957(9) 0.62568(8) 0.66419(8)
O4_2 O 0.93950(10) 0.49951(8) 0.61238(8)
O8_3 O 0.43306(11) 0.74871(9) 0.98268(9)
Co3_2 Co 1.0000 0.5000 0.5000
C21_3 C 0.54800(14) 0.30818(12) 0.96913(12)
C22_3 C 0.57907(18) 0.30589(14) 0.88223(13)
H10_3 H 0.6176 0.2565 0.8730
H11_3 H 0.5239 0.3041 0.8468
H12_3 H 0.6160 0.3556 0.8701
O12_2 O 0.40957(9) 0.62568(8) 0.83581(8)
O15_2 O 0.43950(10) 0.49951(8) 0.88762(8)
O23_3 O 0.49656(10) 0.36838(9) 0.99365(8)
C10_4 C 0.04800(14) 0.30818(12) 0.53087(12)
C11_4 C 0.07907(18) 0.30589(14) 0.61777(13)
H4_4 H 0.1176 0.2565 0.6270
H5_4 H 0.0239 0.3041 0.6532
H6_4 H 0.1160 0.3556 0.6299
O8_4 O 0.06694(11) 0.25129(9) 0.48268(9)
C12_4 C 0.24412(13) 0.50323(11) 0.65704(12)
C13_4 C 0.28644(13) 0.54475(11) 0.72163(11)
H7_4 H 0.2664 0.5988 0.7362
C14_4 C 0.35827(13) 0.50622(11) 0.76461(11)
C15_4 C 0.38812(13) 0.42728(11) 0.74271(12)
H8_4 H 0.4342 0.3998 0.7745
C16_4 C 0.35111(13) 0.38835(11) 0.67482(12)
C17_4 C 0.27825(13) 0.42671(11) 0.63189(12)
H9_4 H 0.2521 0.4004 0.5856
C18_4 C 0.15928(13) 0.53968(11) 0.61636(11)
C19_4 C 0.40600(12) 0.54751(11) 0.83540(11)
C20_4 C 0.39098(13) 0.30743(11) 0.64687(12)
O9_4 O 0.13225(9) 0.50469(8) 0.55185(8)
O10_4 O 0.12196(10) 0.60134(8) 0.65041(9)
O23_4 O 0.00344(10) 0.63162(9) 0.49365(8)
C1_4 C 0.75588(13) 0.49677(11) 0.34296(12)
C2_4 C 0.71356(13) 0.45525(11) 0.27837(11)
H1_4 H 0.7336 0.4012 0.2638
C3_4 C 0.64173(13) 0.49378(11) 0.23539(11)
C4_4 C 0.61188(13) 0.57272(11) 0.25729(12)
H2_4 H 0.5658 0.6002 0.2255
C5_4 C 0.64889(13) 0.61165(11) 0.32518(12)
C6_4 C 0.72175(13) 0.57329(11) 0.36811(12)
H3_4 H 0.7479 0.5996 0.4144
C7_4 C 0.84072(13) 0.46032(11) 0.38364(11)
C8_4 C 0.59400(12) 0.45249(11) 0.16460(11)
C9_4 C 0.60902(13) 0.69257(11) 0.35313(12)
O1_4 O 0.86775(9) 0.49531(8) 0.44815(8)
O2_4 O 0.87804(10) 0.39866(8) 0.34959(9)
O7_4 O 0.99656(10) 0.36838(9) 0.50635(8)
C21_4 C 0.95200(14) 0.69182(12) 0.46913(12)
C22_4 C 0.92093(18) 0.69411(14) 0.38223(13)
H10_4 H 0.8824 0.7435 0.3730
H11_4 H 0.9761 0.6959 0.3468
H12_4 H 0.8840 0.6444 0.3701
O24_4 O 0.93306(11) 0.74871(9) 0.51732(9)
loop_
_geom_bond_atom_site_label_1
_geom_bond_atom_site_label_2
_geom_bond_site_symmetry_1
_geom_bond_site_symmetry_2
Co1 O1 1_555 1_555
Co2 O2 1_555 1_555
C1 C2 1_555 1_555
C2 H1 1_555 1_555
C3 C2 1_555 1_555
C7 C1 1_555 1_555
C8 C3 1_555 1_555
C10 C11 1_555 1_555
C11 H4 1_555 1_555
H5 C11 1_555 1_555
H6 C11 1_555 1_555
O1 C7 1_555 1_555
O2 C7 1_555 1_555
O3 C8 1_555 1_555
O7 Co1 1_555 1_555
O8 Co2 1_555 1_555
Co4_5 O14 1_555 1_555
Co9 O17 1_555 1_555
H8 C15 1_555 1_555
C16 C15 1_555 1_555
H9 C17 1_555 1_555
C20 C16 1_555 1_555
O12 Co2 1_555 1_555
O16 Co1 1_555 1_555
O17 C20 1_555 1_555
O18 Co2 1_555 1_555
O20 Co9 1_555 1_555
O21 Co2 1_555 1_555
Co2 O7 1_555 1_555
C10 O7 1_555 1_555
C10 O8 1_555 1_555
C16 C17 1_555 1_555
C20 O20 1_555 1_555
H2 C4 1_555 1_555
C5 C4 1_555 1_555
H3 C6 1_555 1_555
C9 C5 1_555 1_555
O5 C9 1_555 1_555
O6 C9 1_555 1_555
Co4_4 O4 1_555 1_555
Co5 O10 1_555 1_555
Co7 O5 1_555 1_555
C12 C13 1_555 1_555
C13 H7 1_555 1_555
C14 C13 1_555 1_555
C18 C12 1_555 1_555
C19 C14 1_555 1_555
C21 C22 1_555 1_555
C22 H10 1_555 1_555
H11 C22 1_555 1_555
H12 C22 1_555 1_555
O9 Co1_2 1_555 1_555
O10 C18 1_555 1_555
O11 C19 1_555 1_555
O13 Co5 1_555 1_555
O15 Co1_2 1_555 1_555
O19 Co5 1_555 1_555
O22 Co5 1_555 1_555
O23 Co1_2 1_555 1_555
O24 Co5 1_555 1_555
C5 C6 1_555 1_555
O6 Co7 1_555 1_555
Co5 O23 1_555 1_555
C18 O9 1_555 1_555
C21 O23 1_555 1_555
C21 O24 1_555 1_555
H2_2 C4_2 1_555 1_555
C5_2 C4_2 1_555 1_555
H3_2 C6_2 1_555 1_555
C9_2 C5_2 1_555 1_555
O5_2 C9_2 1_555 1_555
O6_2 C9_2 1_555 1_555
Co7_2 O5_2 1_555 1_555
C21_2 C22_2 1_555 1_555
C22_2 H10_2 1_555 1_555
H11_2 C22_2 1_555 1_555
H12_2 C22_2 1_555 1_555
C5_2 C6_2 1_555 1_555
O6_2 Co7_2 1_555 1_555
Co4_3 O1_2 1_555 1_555
Co8 O2_2 1_555 1_555
C1_2 C2_2 1_555 1_555
C2_2 H1_2 1_555 1_555
C3_2 C2_2 1_555 1_555
C7_2 C1_2 1_555 1_555
C8_2 C3_2 1_555 1_555
O1_2 C7_2 1_555 1_555
O2_2 C7_2 1_555 1_555
O13 C8_2 1_555 1_555
O18_2 Co8 1_555 1_555
O21_2 Co8 1_555 1_555
O7_2 Co4_4 1_555 1_555
O23_2 Co4_5 1_555 1_555
Co6 O10_2 1_555 1_555
C12_2 C13_2 1_555 1_555
C13_2 H7_2 1_555 1_555
C14_2 C13_2 1_555 1_555
C18_2 C12_2 1_555 1_555
C19_2 C14_2 1_555 1_555
O9_2 Co4_6 1_555 1_555
O10_2 C18_2 1_555 1_555
O12 C19_2 1_555 1_555
O19_2 Co6 1_555 1_555
O22_2 Co6 1_555 1_555
C18_2 O9_2 1_555 1_555
C10_2 C11_2 1_555 1_555
C11_2 H4_2 1_555 1_555
H5_2 C11_2 1_555 1_555
H6_2 C11_2 1_555 1_555
Co9_2 O17_2 1_555 1_555
H8_2 C15_2 1_555 1_555
C16_2 C15_2 1_555 1_555
H9_2 C17_2 1_555 1_555
C20_2 C16_2 1_555 1_555
O17_2 C20_2 1_555 1_555
O20_2 Co9_2 1_555 1_555
C16_2 C17_2 1_555 1_555
C20_2 O20_2 1_555 1_555
C10_3 C11_3 1_555 1_555
C11_3 H4_3 1_555 1_555
H5_3 C11_3 1_555 1_555
H6_3 C11_3 1_555 1_555
O7_3 Co1_3 1_555 1_555
Co3 O14_2 1_555 1_555
Co7_2 O10_3 1_555 1_555
C12_3 C13_3 1_555 1_555
C13_3 H7_3 1_555 1_555
C14_3 C13_3 1_555 1_555
C15_3 C14_3 1_555 1_555
H8_3 C15_3 1_555 1_555
C16_3 C15_3 1_555 1_555
C17_3 C12_3 1_555 1_555
H9_3 C17_3 1_555 1_555
C18_3 C12_3 1_555 1_555
C19_3 C14_3 1_555 1_555
C20_3 C16_3 1_555 1_555
O9_3 Co1_3 1_555 1_555
O10_3 C18_3 1_555 1_555
O11_2 C19_3 1_555 1_555
O13_2 Co7_2 1_555 1_555
O14_2 C19_3 1_555 1_555
O16_2 Co1_3 1_555 1_555
O18_2 C20_3 1_555 1_555
O24_3 Co7_2 1_555 1_555
C10_3 O7_3 1_555 1_555
C16_3 C17_3 1_555 1_555
C18_3 O9_3 1_555 1_555
C20_3 O21_2 1_555 1_555
Co1_4 O1_3 1_555 1_555
Co9_2 O2_3 1_555 1_555
C1_3 C2_3 1_555 1_555
C2_3 H1_3 1_555 1_555
C3_3 C2_3 1_555 1_555
C4_3 C3_3 1_555 1_555
H2_3 C4_3 1_555 1_555
C5_3 C4_3 1_555 1_555
C6_3 C1_3 1_555 1_555
H3_3 C6_3 1_555 1_555
C7_3 C1_3 1_555 1_555
C8_3 C3_3 1_555 1_555
C9_3 C5_3 1_555 1_555
O1_3 C7_3 1_555 1_555
O2_3 C7_3 1_555 1_555
O3_2 C8_3 1_555 1_555
O4_2 C8_3 1_555 1_555
O19_2 C9_3 1_555 1_555
O22_2 C9_3 1_555 1_555
O8_3 Co9_2 1_555 1_555
Co3_2 O4_2 1_555 1_555
C21_3 C22_3 1_555 1_555
C22_3 H10_3 1_555 1_555
H11_3 C22_3 1_555 1_555
H12_3 C22_3 1_555 1_555
O12_2 Co9_2 1_555 1_555
O15_2 Co1_4 1_555 1_555
O23_3 Co1_4 1_555 1_555
C5_3 C6_3 1_555 1_555
C21_3 O23_3 1_555 1_555
C10_4 C11_4 1_555 1_555
C11_4 H4_4 1_555 1_555
H5_4 C11_4 1_555 1_555
H6_4 C11_4 1_555 1_555
Co7 O10_4 1_555 1_555
C12_4 C13_4 1_555 1_555
C13_4 H7_4 1_555 1_555
C14_4 C13_4 1_555 1_555
C15_4 C14_4 1_555 1_555
H8_4 C15_4 1_555 1_555
C16_4 C15_4 1_555 1_555
C17_4 C12_4 1_555 1_555
H9_4 C17_4 1_555 1_555
C18_4 C12_4 1_555 1_555
C19_4 C14_4 1_555 1_555
C20_4 C16_4 1_555 1_555
O9_4 Co3 1_555 1_555
O10_4 C18_4 1_555 1_555
O12_2 C19_4 1_555 1_555
O15_2 C19_4 1_555 1_555
O18 C20_4 1_555 1_555
O23_4 Co3 1_555 1_555
C10_4 O8_4 1_555 1_555
Co7 O23_4 1_555 1_555
C16_4 C17_4 1_555 1_555
C18_4 O9_4 1_555 1_555
C20_4 O21 1_555 1_555
Co3_2 O1_4 1_555 1_555
Co9 O2_4 1_555 1_555
C1_4 C2_4 1_555 1_555
C2_4 H1_4 1_555 1_555
C3_4 C2_4 1_555 1_555
C4_4 C3_4 1_555 1_555
H2_4 C4_4 1_555 1_555
C5_4 C4_4 1_555 1_555
C6_4 C1_4 1_555 1_555
H3_4 C6_4 1_555 1_555
C7_4 C1_4 1_555 1_555
C8_4 C3_4 1_555 1_555
C9_4 C5_4 1_555 1_555
O1_4 C7_4 1_555 1_555
O2_4 C7_4 1_555 1_555
O13_2 C8_4 1_555 1_555
O16_2 C8_4 1_555 1_555
O19 C9_4 1_555 1_555
O22 C9_4 1_555 1_555
O7_4 Co3_2 1_555 1_555
C21_4 C22_4 1_555 1_555
C22_4 H10_4 1_555 1_555
H11_4 C22_4 1_555 1_555
H12_4 C22_4 1_555 1_555
Co9 O7_4 1_555 1_555
C5_4 C6_4 1_555 1_555
C21_4 O24_4 1_555 1_555

#END
