
###############################################################################
#
# This file contains modified crystal structure data generated from the
# MOF subset of the Cambridge Structural Database (CSD) v543 
# hosted by the Cambridge Crystallographic Data Centre (CCDC).
#
# This work is licensed under the Creative Commons
# Attribution-NonCommercial-ShareAlike 4.0 International License.
# To view a copy of this license, visit
# http://creativecommons.org/licenses/by-nc-sa/4.0/
# or send a letter to
# Creative Commons, PO Box 1866, Mountain View, CA 94042, USA.
#
# CIF created using the CSD Python API on 29 September 2022
# The structure has been converted into the P1 space group
# The structure has a 3D framework
# The original CSD entry VENGAZ is in the tetragonal crystal system
# The original CSD entry VENGAZ is in a Sohncke space group
# The framework has been calculated to contain at least 10.0% void space
# The void calculation uses a probe of radius 1.32A, grid spacing 0.4
# The framework is charged, counterions have been retained in the structure
# H atom positions have been added when not included in the experimental data
# Generated hydrogen atom positions removed from atoms on special positions
#
###############################################################################

data_VENGAZ
_chemical_formula_moiety         '(C192 H152 Cd13 N48 O64 5-)n'
_symmetry_cell_setting           triclinic
_symmetry_space_group_name_H-M   'P 1'
_symmetry_Int_Tables_number      1
_space_group_name_Hall           'P 1'
loop_
_symmetry_equiv_pos_site_id
_symmetry_equiv_pos_as_xyz
1 x,y,z
_cell_length_a                   19.7330(4)
_cell_length_b                   19.7330(4)
_cell_length_c                   50.1723(16)
_cell_angle_alpha                90
_cell_angle_beta                 90
_cell_angle_gamma                90
_cell_volume                     19536.7
loop_
_atom_site_label
_atom_site_type_symbol
_atom_site_fract_x
_atom_site_fract_y
_atom_site_fract_z
Cd5 Cd 0.07088(3) 0.03320(3) 0.03308(2)
Cd11 Cd 0.05912(3) 0.05912(3) 0.500000
Cd1 Cd 0.53320(3) 0.42912(3) 0.28308(2)
Cd2 Cd 0.44088(3) 0.55912(3) 0.250000
O1 O 0.3551(2) 0.6449(2) 0.250000
O2 O 0.8305(4) 0.9711(4) 0.51344(16)
O3 O 0.5582(4) 0.3699(4) 0.32100(16)
O4 O 0.5150(3) 0.4850(3) 0.250000
O5 O 0.5450(4) 0.5191(4) 0.30698(14)
O6 O 0.0698(4) 0.9227(4) 0.45470(17)
O7 O 0.4736(4) 0.5920(4) 0.29001(19)
O8 O 0.1319(4) 0.9896(4) 0.48175(17)
O9 O 0.8603(3) 0.9275(4) 0.47398(18)
C1 C 0.1876(5) 0.9247(6) 0.4497(2)
N1 N 0.5411(5) 0.9082(6) 0.4606(2)
H1 H 0.512384 0.929113 0.470529
C2 C 0.5278(6) 0.6241(6) 0.3288(2)
C3 C 0.6915(5) 0.9612(6) 0.4987(3)
H2 H 0.699630 0.985885 0.514117
N2 N 0.4494(5) 0.8750(7) 0.4376(3)
C4 C 0.7446(5) 0.9382(6) 0.4837(3)
N3 N 0.5566(5) 0.8277(7) 0.4269(3)
C5 C 0.4900(6) 0.6821(6) 0.3318(3)
H3 H 0.456610 0.692990 0.319409
C6 C 0.5129(6) 0.5735(6) 0.3049(3)
C7 C 0.6110(5) 0.9170(8) 0.4672(3)
N4 N 0.4627(5) 0.7950(7) 0.4018(3)
C8 C 0.1248(5) 0.9457(6) 0.4627(3)
C9 C 0.5018(6) 0.7228(7) 0.3527(3)
H4 H 0.476184 0.761964 0.354993
C10 C 0.8172(5) 0.9456(5) 0.4918(3)
C11 C 0.6246(6) 0.9476(7) 0.4907(3)
H5 H 0.588908 0.960031 0.501748
C12 C 0.2477(6) 0.9427(7) 0.4559(3)
H6 H 0.252086 0.976291 0.468810
C13 C 0.1844(6) 0.8741(9) 0.4293(3)
H7 H 0.141876 0.862647 0.422717
C14 C 0.5143(6) 0.8693(8) 0.4398(3)
N5 N 0.5687(5) 0.7527(7) 0.3930(2)
H8 H 0.614260 0.750001 0.399601
C15 C 0.3037(6) 0.8650(8) 0.4266(3)
C16 C 0.3089(7) 0.9158(9) 0.4449(3)
H9 H 0.350958 0.932413 0.450051
C17 C 0.5526(7) 0.7063(8) 0.3711(3)
C18 C 0.5245(7) 0.7967(10) 0.4078(3)
C19 C 0.7297(6) 0.9075(9) 0.4602(3)
H10 H 0.765773 0.891440 0.450068
C20 C 0.5796(8) 0.6109(8) 0.3473(3)
H11 H 0.606066 0.572198 0.345277
N6 N 0.3569(5) 0.8358(7) 0.4136(3)
H12 H 0.345700 0.813390 0.399611
C21 C 0.5922(7) 0.6539(8) 0.3683(3)
H13 H 0.627678 0.645952 0.380144
C22 C 0.2388(6) 0.8415(9) 0.4191(3)
H14 H 0.233670 0.804940 0.407537
C23 C 0.6641(6) 0.8984(10) 0.4500(3)
H15 H 0.656259 0.881170 0.432987
C24 C 0.4221(7) 0.8354(9) 0.4187(3)
Cd3 Cd 0.57088(3) 0.46680(3) 0.21692(2)
O11 O 0.6301(4) 0.4418(4) 0.17900(16)
O12 O 0.4809(4) 0.4550(4) 0.19302(14)
O13 O 0.0773(4) 0.9302(4) 0.04530(17)
O14 O 0.4080(4) 0.5264(4) 0.20999(19)
O15 O 0.0104(4) 0.8681(4) 0.01825(17)
O16 O 0.0725(4) 0.1397(3) 0.02602(18)
C25 C 0.0753(6) 0.8124(5) 0.0503(2)
N7 N 0.0918(6) 0.4589(5) 0.0394(2)
H16 H 0.070887 0.487616 0.029471
C26 C 0.3759(6) 0.4722(6) 0.1712(2)
C27 C 0.0388(6) 0.3085(5) 0.0013(3)
N8 N 0.1250(7) 0.5506(5) 0.0624(3)
C28 C 0.0618(6) 0.2554(5) 0.0163(3)
N9 N 0.1723(7) 0.4434(5) 0.0731(3)
C29 C 0.3179(6) 0.5100(6) 0.1682(3)
H18 H 0.307010 0.543390 0.180591
C30 C 0.4265(6) 0.4871(6) 0.1951(3)
C31 C 0.0830(8) 0.3890(5) 0.0328(3)
N10 N 0.2050(7) 0.5373(5) 0.0982(3)
C32 C 0.0543(6) 0.8752(5) 0.0373(3)
C33 C 0.2772(7) 0.4982(6) 0.1473(3)
H19 H 0.238036 0.523816 0.145007
C34 C 0.0544(5) 0.1828(5) 0.0082(3)
C35 C 0.0524(7) 0.3754(6) 0.0093(3)
C36 C 0.0573(7) 0.7523(6) 0.0441(3)
H21 H 0.023709 0.747914 0.031190
C37 C 0.1259(9) 0.8156(6) 0.0707(3)
H22 H 0.137353 0.858124 0.077283
C38 C 0.1307(8) 0.4857(6) 0.0602(3)
N11 N 0.2473(7) 0.4313(5) 0.1070(2)
H23 H 0.249999 0.385740 0.100399
C39 C 0.1350(8) 0.6963(6) 0.0734(3)
C40 C 0.0842(9) 0.6911(7) 0.0551(3)
H24 H 0.067587 0.649042 0.049949
C41 C 0.2937(8) 0.4474(7) 0.1289(3)
C42 C 0.2033(10) 0.4755(7) 0.0922(3)
C43 C 0.0925(9) 0.2703(6) 0.0398(3)
H25 H 0.108560 0.234227 0.049932
C44 C 0.3891(8) 0.4204(8) 0.1527(3)
H26 H 0.427802 0.393934 0.154723
N12 N 0.1642(7) 0.6431(5) 0.0864(3)
H27 H 0.186610 0.654300 0.100389
C45 C 0.3461(8) 0.4078(7) 0.1317(3)
H28 H 0.354048 0.372322 0.119856
C46 C 0.1585(9) 0.7612(6) 0.0809(3)
H29 H 0.195060 0.766330 0.092463
C47 C 0.1016(10) 0.3359(6) 0.0500(3)
H30 H 0.118830 0.343741 0.067013
C48 C 0.1646(9) 0.5779(7) 0.0813(3)
Cd6 Cd 0.92912(3) 0.96680(3) 0.53308(2)
Cd8 Cd 0.96680(3) 0.92912(3) 0.46692(2)
O17 O 0.5289(4) 0.3305(4) 0.26344(16)
O18 O 0.6695(4) 0.4711(4) 0.23656(16)
O19 O 0.5773(4) 0.5698(4) 0.20470(17)
O20 O 0.4302(4) 0.4227(4) 0.29530(17)
O21 O 0.5104(4) 0.6319(4) 0.23175(17)
O22 O 0.3681(4) 0.4896(4) 0.26825(17)
O23 O 0.5725(4) 0.3603(3) 0.22398(18)
O24 O 0.6397(3) 0.4275(4) 0.27602(18)
H31 H 0.552233 0.399771 0.336754
H32 H 0.52736 0.330322 0.322513
H35 H 0.600229 0.447767 0.163246
H36 H 0.669678 0.47264 0.177487
O10 O 0.0289(4) 0.1695(4) 0.98656(16)
H17 H 0.014115 0.300370 0.985883
H20 H 0.039969 0.411092 0.998252
Cd9 Cd 0.03320(3) 0.07088(3) 0.96692(2)
Cd10 Cd 0.94088(3) 0.94088(3) 0.000000
Cd10_2 Cd 0.94088(3) 0.94088(3) 1.000000
O2_2 O 0.1695(4) 0.0289(4) 0.01344(16)
H2_2 H 0.300370 0.014115 0.014117
H5_2 H 0.411092 0.039969 0.001748
Cd1_2 Cd 0.46680(3) 0.57088(3) 0.78308(2)
Cd2_2 Cd 0.55912(3) 0.44088(3) 0.750000
O1_2 O 0.6449(2) 0.3551(2) 0.750000
O3_2 O 0.4418(4) 0.6301(4) 0.82100(16)
O4_2 O 0.4850(3) 0.5150(3) 0.750000
O5_2 O 0.4550(4) 0.4809(4) 0.80698(14)
O6_2 O 0.9302(4) 0.0773(4) 0.95470(17)
O7_2 O 0.5264(4) 0.4080(4) 0.79001(19)
O8_2 O 0.8681(4) 0.0104(4) 0.98175(17)
O9_2 O 0.1397(3) 0.0725(4) 0.97398(18)
C1_2 C 0.8124(5) 0.0753(6) 0.9497(2)
N1_2 N 0.4589(5) 0.0918(6) 0.9606(2)
H1_2 H 0.487616 0.070887 0.970529
C2_2 C 0.4722(6) 0.3759(6) 0.8288(2)
C3_2 C 0.3085(5) 0.0388(6) 0.9987(3)
N2_2 N 0.5506(5) 0.1250(7) 0.9376(3)
C4_2 C 0.2554(5) 0.0618(6) 0.9837(3)
N3_2 N 0.4434(5) 0.1723(7) 0.9269(3)
C5_2 C 0.5100(6) 0.3179(6) 0.8318(3)
H3_2 H 0.543390 0.307010 0.819409
C6_2 C 0.4871(6) 0.4265(6) 0.8049(3)
C7_2 C 0.3890(5) 0.0830(8) 0.9672(3)
N4_2 N 0.5373(5) 0.2050(7) 0.9018(3)
C8_2 C 0.8752(5) 0.0543(6) 0.9627(3)
C9_2 C 0.4982(6) 0.2772(7) 0.8527(3)
H4_2 H 0.523816 0.238036 0.854993
C10_2 C 0.1828(5) 0.0544(5) 0.9918(3)
C11_2 C 0.3754(6) 0.0524(7) 0.9907(3)
C12_2 C 0.7523(6) 0.0573(7) 0.9559(3)
H6_2 H 0.747914 0.023709 0.968810
C13_2 C 0.8156(6) 0.1259(9) 0.9293(3)
H7_2 H 0.858124 0.137353 0.922717
C14_2 C 0.4857(6) 0.1307(8) 0.9398(3)
N5_2 N 0.4313(5) 0.2473(7) 0.8930(2)
H8_2 H 0.385740 0.249999 0.899601
C15_2 C 0.6963(6) 0.1350(8) 0.9266(3)
C16_2 C 0.6911(7) 0.0842(9) 0.9449(3)
H9_2 H 0.649042 0.067587 0.950051
C17_2 C 0.4474(7) 0.2937(8) 0.8711(3)
C18_2 C 0.4755(7) 0.2033(10) 0.9078(3)
C19_2 C 0.2703(6) 0.0925(9) 0.9602(3)
H10_2 H 0.234227 0.108560 0.950068
C20_2 C 0.4204(8) 0.3891(8) 0.8473(3)
H11_2 H 0.393934 0.427802 0.845277
N6_2 N 0.6431(5) 0.1642(7) 0.9136(3)
H12_2 H 0.654300 0.186610 0.899611
C21_2 C 0.4078(7) 0.3461(8) 0.8683(3)
H13_2 H 0.372322 0.354048 0.880144
C22_2 C 0.7612(6) 0.1585(9) 0.9191(3)
H14_2 H 0.766330 0.195060 0.907537
C23_2 C 0.3359(6) 0.1016(10) 0.9500(3)
H15_2 H 0.343741 0.118830 0.932987
C24_2 C 0.5779(7) 0.1646(9) 0.9187(3)
Cd3_2 Cd 0.42912(3) 0.53320(3) 0.71692(2)
O10_2 O 0.9711(4) 0.8305(4) 0.48656(16)
O11_2 O 0.3699(4) 0.5582(4) 0.67900(16)
O12_2 O 0.5191(4) 0.5450(4) 0.69302(14)
O13_2 O 0.9227(4) 0.0698(4) 0.54530(17)
O14_2 O 0.5920(4) 0.4736(4) 0.70999(19)
O15_2 O 0.9896(4) 0.1319(4) 0.51825(17)
O16_2 O 0.9275(4) 0.8603(3) 0.52602(18)
C25_2 C 0.9247(6) 0.1876(5) 0.5503(2)
N7_2 N 0.9082(6) 0.5411(5) 0.5394(2)
H16_2 H 0.929113 0.512384 0.529471
C26_2 C 0.6241(6) 0.5278(6) 0.6712(2)
C27_2 C 0.9612(6) 0.6915(5) 0.5013(3)
H17_2 H 0.985885 0.699630 0.485883
N8_2 N 0.8750(7) 0.4494(5) 0.5624(3)
C28_2 C 0.9382(6) 0.7446(5) 0.5163(3)
N9_2 N 0.8277(7) 0.5566(5) 0.5731(3)
C29_2 C 0.6821(6) 0.4900(6) 0.6682(3)
H18_2 H 0.692990 0.456610 0.680591
C30_2 C 0.5735(6) 0.5129(6) 0.6951(3)
C31_2 C 0.9170(8) 0.6110(5) 0.5328(3)
N10_2 N 0.7950(7) 0.4627(5) 0.5982(3)
C32_2 C 0.9457(6) 0.1248(5) 0.5373(3)
C33_2 C 0.7228(7) 0.5018(6) 0.6473(3)
H19_2 H 0.761964 0.476184 0.645007
C34_2 C 0.9456(5) 0.8172(5) 0.5082(3)
C35_2 C 0.9476(7) 0.6246(6) 0.5093(3)
H20_2 H 0.960031 0.588908 0.498252
C36_2 C 0.9427(7) 0.2477(6) 0.5441(3)
H21_2 H 0.976291 0.252086 0.531190
C37_2 C 0.8741(9) 0.1844(6) 0.5707(3)
H22_2 H 0.862647 0.141876 0.577283
C38_2 C 0.8693(8) 0.5143(6) 0.5602(3)
N11_2 N 0.7527(7) 0.5687(5) 0.6070(2)
H23_2 H 0.750001 0.614260 0.600399
C39_2 C 0.8650(8) 0.3037(6) 0.5734(3)
C40_2 C 0.9158(9) 0.3089(7) 0.5551(3)
H24_2 H 0.932413 0.350958 0.549949
C41_2 C 0.7063(8) 0.5526(7) 0.6289(3)
C42_2 C 0.7967(10) 0.5245(7) 0.5922(3)
C43_2 C 0.9075(9) 0.7297(6) 0.5398(3)
H25_2 H 0.891440 0.765773 0.549932
C44_2 C 0.6109(8) 0.5796(8) 0.6527(3)
H26_2 H 0.572198 0.606066 0.654723
N12_2 N 0.8358(7) 0.3569(5) 0.5864(3)
H27_2 H 0.813390 0.345700 0.600389
C45_2 C 0.6539(8) 0.5922(7) 0.6317(3)
H28_2 H 0.645952 0.627678 0.619856
C46_2 C 0.8415(9) 0.2388(6) 0.5809(3)
H29_2 H 0.804940 0.233670 0.592463
C47_2 C 0.8984(10) 0.6641(6) 0.5500(3)
H30_2 H 0.881170 0.656259 0.567013
C48_2 C 0.8354(9) 0.4221(7) 0.5813(3)
O17_2 O 0.4711(4) 0.6695(4) 0.76344(16)
O18_2 O 0.3305(4) 0.5289(4) 0.73656(16)
O19_2 O 0.4227(4) 0.4302(4) 0.70470(17)
O20_2 O 0.5698(4) 0.5773(4) 0.79530(17)
O21_2 O 0.4896(4) 0.3681(4) 0.73175(17)
O22_2 O 0.6319(4) 0.5104(4) 0.76825(17)
O23_2 O 0.4275(4) 0.6397(3) 0.72398(18)
O24_2 O 0.3603(3) 0.5725(4) 0.77602(18)
H31_2 H 0.447767 0.600229 0.836754
H32_2 H 0.47264 0.669678 0.822513
H35_2 H 0.399771 0.552233 0.663246
H36_2 H 0.330322 0.52736 0.677487
O3_3 O 0.1301(4) 0.0582(4) 0.07100(16)
O4_3 O 0.0150(3) 0.0150(3) 0.000000
H31_3 H 0.100229 0.0522327 0.0867538
H32_3 H 0.169678 0.0273604 0.0725131
O4_4 O 0.0150(3) 0.0150(3) 1.000000
O11_3 O 0.0582(4) 0.1301(4) 0.92900(16)
H35_3 H 0.0522327 0.100229 0.913246
H36_3 H 0.0273604 0.169678 0.927487
O12_3 O 0.0450(4) 0.9809(4) 0.94302(14)
N7_3 N 0.0411(5) 0.5918(6) 0.7894(2)
H16_3 H 0.012384 0.570887 0.779471
C26_3 C 0.0278(6) 0.8759(6) 0.9212(2)
C27_3 C 0.1915(5) 0.5388(6) 0.7513(3)
H17_3 H 0.199630 0.514115 0.735883
C28_3 C 0.2446(5) 0.5618(6) 0.7663(3)
N9_3 N 0.0566(5) 0.6723(7) 0.8231(3)
C30_3 C 0.0129(6) 0.9265(6) 0.9451(3)
C31_3 C 0.1110(5) 0.5830(8) 0.7828(3)
C33_3 C 0.0018(6) 0.7772(7) 0.8973(3)
C34_3 C 0.3172(5) 0.5544(5) 0.7582(3)
C35_3 C 0.1246(6) 0.5524(7) 0.7593(3)
H20_3 H 0.088908 0.539969 0.748252
C38_3 C 0.0143(6) 0.6307(8) 0.8102(3)
N11_3 N 0.0687(5) 0.7473(7) 0.8570(2)
H23_3 H 0.114260 0.749999 0.850399
C41_3 C 0.0526(7) 0.7937(8) 0.8789(3)
C42_3 C 0.0245(7) 0.7033(10) 0.8422(3)
C43_3 C 0.2297(6) 0.5925(9) 0.7898(3)
H25_3 H 0.265773 0.608560 0.799932
C44_3 C 0.0796(8) 0.8891(8) 0.9027(3)
H26_3 H 0.106066 0.927802 0.904723
C45_3 C 0.0922(7) 0.8461(8) 0.8817(3)
H28_3 H 0.127678 0.854048 0.869856
C47_3 C 0.1641(6) 0.6016(10) 0.8000(3)
H30_3 H 0.156259 0.618830 0.817013
O5_3 O 0.9809(4) 0.0450(4) 0.05698(14)
N1_3 N 0.5918(6) 0.0411(5) 0.2106(2)
H1_3 H 0.570887 0.012384 0.220529
C2_3 C 0.8759(6) 0.0278(6) 0.0788(2)
C3_3 C 0.5388(6) 0.1915(5) 0.2487(3)
H2_3 H 0.514115 0.199630 0.264117
C4_3 C 0.5618(6) 0.2446(5) 0.2337(3)
N3_3 N 0.6723(7) 0.0566(5) 0.1769(3)
C6_3 C 0.9265(6) 0.0129(6) 0.0549(3)
C7_3 C 0.5830(8) 0.1110(5) 0.2172(3)
C9_3 C 0.7772(7) 0.0018(6) 0.1027(3)
C10_3 C 0.5544(5) 0.3172(5) 0.2418(3)
C11_3 C 0.5524(7) 0.1246(6) 0.2407(3)
H5_3 H 0.539969 0.088908 0.251748
C14_3 C 0.6307(8) 0.0143(6) 0.1898(3)
N5_3 N 0.7473(7) 0.0687(5) 0.1430(2)
H8_3 H 0.749999 0.114260 0.149601
C17_3 C 0.7937(8) 0.0526(7) 0.1211(3)
C18_3 C 0.7033(10) 0.0245(7) 0.1578(3)
C19_3 C 0.5925(9) 0.2297(6) 0.2102(3)
H10_3 H 0.608560 0.265773 0.200068
C20_3 C 0.8891(8) 0.0796(8) 0.0973(3)
H11_3 H 0.927802 0.106066 0.095277
C21_3 C 0.8461(8) 0.0922(7) 0.1183(3)
H13_3 H 0.854048 0.127678 0.130144
C23_3 C 0.6016(10) 0.1641(6) 0.2000(3)
H15_3 H 0.618830 0.156259 0.182987
O1_3 O 0.8551(2) 0.8551(2) 0.000000
O7_3 O 0.9080(4) 0.9736(4) 0.04001(19)
C1_3 C 0.5753(6) 0.6876(5) 0.1997(2)
N2_3 N 0.6250(7) 0.9494(5) 0.1876(3)
C5_3 C 0.8179(6) 0.9900(6) 0.0818(3)
H3_3 H 0.807010 0.956610 0.069409
N4_3 N 0.7050(7) 0.9627(5) 0.1518(3)
C8_3 C 0.5543(6) 0.6248(5) 0.2127(3)
H4_3 H 0.738036 0.976184 0.104993
C12_3 C 0.5573(7) 0.7477(6) 0.2059(3)
H6_3 H 0.523709 0.752086 0.218810
C13_3 C 0.6259(9) 0.6844(6) 0.1793(3)
H7_3 H 0.637353 0.641876 0.172717
C15_3 C 0.6350(8) 0.8037(6) 0.1766(3)
C16_3 C 0.5842(9) 0.8089(7) 0.1949(3)
H9_3 H 0.567587 0.850958 0.200051
N6_3 N 0.6642(7) 0.8569(5) 0.1636(3)
H12_3 H 0.686610 0.845700 0.149611
C22_3 C 0.6585(9) 0.7388(6) 0.1691(3)
H14_3 H 0.695060 0.733670 0.157537
C24_3 C 0.6646(9) 0.9221(7) 0.1687(3)
H33 H 0.809845 0.876633 0.00178451
O1_4 O 0.8551(2) 0.8551(2) 1.000000
O14_3 O 0.9736(4) 0.9080(4) 0.95999(19)
C25_3 C 0.6876(5) 0.5753(6) 0.8003(2)
N8_3 N 0.9494(5) 0.6250(7) 0.8124(3)
C29_3 C 0.9900(6) 0.8179(6) 0.9182(3)
H18_3 H 0.956610 0.807010 0.930591
N10_3 N 0.9627(5) 0.7050(7) 0.8482(3)
C32_3 C 0.6248(5) 0.5543(6) 0.7873(3)
H19_3 H 0.976184 0.738036 0.895007
C36_3 C 0.7477(6) 0.5573(7) 0.7941(3)
H21_3 H 0.752086 0.523709 0.781190
C37_3 C 0.6844(6) 0.6259(9) 0.8207(3)
H22_3 H 0.641876 0.637353 0.827283
C39_3 C 0.8037(6) 0.6350(8) 0.8234(3)
C40_3 C 0.8089(7) 0.5842(9) 0.8051(3)
H24_3 H 0.850958 0.567587 0.799949
N12_3 N 0.8569(5) 0.6642(7) 0.8364(3)
H27_3 H 0.845700 0.686610 0.850389
C46_3 C 0.7388(6) 0.6585(9) 0.8309(3)
H29_3 H 0.733670 0.695060 0.842463
C48_3 C 0.9221(7) 0.6646(9) 0.8313(3)
H34 H 0.857158 0.82932 0.983022
O1_5 O 0.1449(2) 0.1449(2) 0.500000
O7_4 O 0.0920(4) 0.0264(4) 0.54001(19)
C1_4 C 0.4247(6) 0.3124(5) 0.6997(2)
N2_4 N 0.3750(7) 0.0506(5) 0.6876(3)
C5_4 C 0.1821(6) 0.0100(6) 0.5818(3)
H3_4 H 0.192990 0.043390 0.569409
N4_4 N 0.2950(7) 0.0373(5) 0.6518(3)
C8_4 C 0.4457(6) 0.3752(5) 0.7127(3)
H4_4 H 0.261964 0.023816 0.604993
C12_4 C 0.4427(7) 0.2523(6) 0.7059(3)
H6_4 H 0.476291 0.247914 0.718810
C13_4 C 0.3741(9) 0.3156(6) 0.6793(3)
H7_4 H 0.362647 0.358124 0.672717
C15_4 C 0.3650(8) 0.1963(6) 0.6766(3)
C16_4 C 0.4158(9) 0.1911(7) 0.6949(3)
H9_4 H 0.432413 0.149042 0.700051
N6_4 N 0.3358(7) 0.1431(5) 0.6636(3)
H12_4 H 0.313390 0.154300 0.649611
C22_4 C 0.3415(9) 0.2612(6) 0.6691(3)
H14_4 H 0.304940 0.266330 0.657537
C24_4 C 0.3354(9) 0.0779(7) 0.6687(3)
O14_4 O 0.0264(4) 0.0920(4) 0.45999(19)
C25_4 C 0.3124(5) 0.4247(6) 0.3003(2)
N8_4 N 0.0506(5) 0.3750(7) 0.3124(3)
C29_4 C 0.0100(6) 0.1821(6) 0.4182(3)
H18_4 H 0.043390 0.192990 0.430591
N10_4 N 0.0373(5) 0.2950(7) 0.3482(3)
C32_4 C 0.3752(5) 0.4457(6) 0.2873(3)
H19_4 H 0.023816 0.261964 0.395007
C36_4 C 0.2523(6) 0.4427(7) 0.2941(3)
H21_4 H 0.247914 0.476291 0.281190
C37_4 C 0.3156(6) 0.3741(9) 0.3207(3)
H22_4 H 0.358124 0.362647 0.327283
C39_4 C 0.1963(6) 0.3650(8) 0.3234(3)
C40_4 C 0.1911(7) 0.4158(9) 0.3051(3)
H24_4 H 0.149042 0.432413 0.299949
N12_4 N 0.1431(5) 0.3358(7) 0.3364(3)
H27_4 H 0.154300 0.313390 0.350389
C46_4 C 0.2612(6) 0.3415(9) 0.3309(3)
H29_4 H 0.266330 0.304940 0.342463
C48_4 C 0.0779(7) 0.3354(9) 0.3313(3)
O5_4 O 0.0191(4) 0.9550(4) 0.55698(14)
N1_4 N 0.4082(6) 0.9589(5) 0.7106(2)
H1_4 H 0.429113 0.987616 0.720529
C2_4 C 0.1241(6) 0.9722(6) 0.5788(2)
C3_4 C 0.4612(6) 0.8085(5) 0.7487(3)
H2_4 H 0.485885 0.800370 0.764117
C4_4 C 0.4382(6) 0.7554(5) 0.7337(3)
N3_4 N 0.3277(7) 0.9434(5) 0.6769(3)
C6_4 C 0.0735(6) 0.9871(6) 0.5549(3)
C7_4 C 0.4170(8) 0.8890(5) 0.7172(3)
C9_4 C 0.2228(7) 0.9982(6) 0.6027(3)
C10_4 C 0.4456(5) 0.6828(5) 0.7418(3)
C11_4 C 0.4476(7) 0.8754(6) 0.7407(3)
H5_4 H 0.460031 0.911092 0.751748
C14_4 C 0.3693(8) 0.9857(6) 0.6898(3)
N5_4 N 0.2527(7) 0.9313(5) 0.6430(2)
H8_4 H 0.250001 0.885740 0.649601
C17_4 C 0.2063(8) 0.9474(7) 0.6211(3)
C18_4 C 0.2967(10) 0.9755(7) 0.6578(3)
C19_4 C 0.4075(9) 0.7703(6) 0.7102(3)
H10_4 H 0.391440 0.734227 0.700068
C20_4 C 0.1109(8) 0.9204(8) 0.5973(3)
H11_4 H 0.072198 0.893934 0.595277
C21_4 C 0.1539(8) 0.9078(7) 0.6183(3)
H13_4 H 0.145952 0.872322 0.630144
C23_4 C 0.3984(10) 0.8359(6) 0.7000(3)
H15_4 H 0.381170 0.843741 0.682987
O12_4 O 0.9550(4) 0.0191(4) 0.44302(14)
N7_4 N 0.9589(5) 0.4082(6) 0.2894(2)
H16_4 H 0.987616 0.429113 0.279471
C26_4 C 0.9722(6) 0.1241(6) 0.4212(2)
C27_4 C 0.8085(5) 0.4612(6) 0.2513(3)
H17_4 H 0.800370 0.485885 0.235883
C28_4 C 0.7554(5) 0.4382(6) 0.2663(3)
N9_4 N 0.9434(5) 0.3277(7) 0.3231(3)
C30_4 C 0.9871(6) 0.0735(6) 0.4451(3)
C31_4 C 0.8890(5) 0.4170(8) 0.2828(3)
C33_4 C 0.9982(6) 0.2228(7) 0.3973(3)
C34_4 C 0.6828(5) 0.4456(5) 0.2582(3)
C35_4 C 0.8754(6) 0.4476(7) 0.2593(3)
H20_4 H 0.911092 0.460031 0.248252
C38_4 C 0.9857(6) 0.3693(8) 0.3102(3)
N11_4 N 0.9313(5) 0.2527(7) 0.3570(2)
H23_4 H 0.885740 0.250001 0.350399
C41_4 C 0.9474(7) 0.2063(8) 0.3789(3)
C42_4 C 0.9755(7) 0.2967(10) 0.3422(3)
C43_4 C 0.7703(6) 0.4075(9) 0.2898(3)
H25_4 H 0.734227 0.391440 0.299932
C44_4 C 0.9204(8) 0.1109(8) 0.4027(3)
H26_4 H 0.893934 0.072198 0.404723
C45_4 C 0.9078(7) 0.1539(8) 0.3817(3)
H28_4 H 0.872322 0.145952 0.369856
C47_4 C 0.8359(6) 0.3984(10) 0.3000(3)
H30_4 H 0.843741 0.381170 0.317013
O3_4 O 0.8699(4) 0.9418(4) 0.57100(16)
O4_5 O 0.9850(3) 0.9850(3) 0.500000
O11_4 O 0.9418(4) 0.8699(4) 0.42900(16)
H31_4 H 0.899771 0.947767 0.586754
H32_4 H 0.830322 0.97264 0.572513
H35_4 H 0.947767 0.899771 0.413246
H36_4 H 0.97264 0.830322 0.427487
H34_2 H 0.82932 0.857158 0.0169781
H33_2 H 0.876633 0.809845 0.998215
loop_
_geom_bond_atom_site_label_1
_geom_bond_atom_site_label_2
_geom_bond_site_symmetry_1
_geom_bond_site_symmetry_2
Cd1 O3 1_555 1_555
Cd2 O1 1_555 1_555
O2 C10 1_555 1_555
O4 Cd1 1_555 1_555
O5 Cd1 1_555 1_555
O6 C8 1_555 1_555
O7 Cd2 1_555 1_555
O8 C8 1_555 1_555
O9 C10 1_555 1_555
C1 C8 1_555 1_555
N1 H1 1_555 1_555
C2 C5 1_555 1_555
C3 H2 1_555 1_555
N2 C14 1_555 1_555
C4 C3 1_555 1_555
N3 C14 1_555 1_555
C5 H3 1_555 1_555
C6 O5 1_555 1_555
C7 N1 1_555 1_555
N4 C18 1_555 1_555
C9 C5 1_555 1_555
H4 C9 1_555 1_555
C10 C4 1_555 1_555
C11 C3 1_555 1_555
H5 C11 1_555 1_555
C12 C1 1_555 1_555
H6 C12 1_555 1_555
C13 C1 1_555 1_555
H7 C13 1_555 1_555
C14 N1 1_555 1_555
N5 H8 1_555 1_555
C15 C16 1_555 1_555
C16 C12 1_555 1_555
H9 C16 1_555 1_555
C17 C9 1_555 1_555
C18 N3 1_555 1_555
C19 C4 1_555 1_555
H10 C19 1_555 1_555
C20 C2 1_555 1_555
H11 C20 1_555 1_555
N6 C15 1_555 1_555
H12 N6 1_555 1_555
C21 C17 1_555 1_555
H13 C21 1_555 1_555
C22 C13 1_555 1_555
H14 C22 1_555 1_555
C23 C7 1_555 1_555
H15 C23 1_555 1_555
C24 N2 1_555 1_555
Cd3 O4 1_555 1_555
O11 Cd3 1_555 1_555
O12 Cd3 1_555 1_555
O13 C32 1_555 1_555
O14 Cd2 1_555 1_555
O15 C32 1_555 1_555
O16 C34 1_555 1_555
C25 C32 1_555 1_555
N7 H16 1_555 1_555
C26 C29 1_555 1_555
N8 C38 1_555 1_555
C28 C27 1_555 1_555
N9 C38 1_555 1_555
C29 H18 1_555 1_555
C30 O12 1_555 1_555
C31 N7 1_555 1_555
N10 C42 1_555 1_555
C33 C29 1_555 1_555
H19 C33 1_555 1_555
C34 C28 1_555 1_555
C35 C27 1_555 1_555
C36 C25 1_555 1_555
H21 C36 1_555 1_555
C37 C25 1_555 1_555
H22 C37 1_555 1_555
C38 N7 1_555 1_555
N11 H23 1_555 1_555
C39 C40 1_555 1_555
C40 C36 1_555 1_555
H24 C40 1_555 1_555
C41 C33 1_555 1_555
C42 N9 1_555 1_555
C43 C28 1_555 1_555
H25 C43 1_555 1_555
C44 C26 1_555 1_555
H26 C44 1_555 1_555
N12 C39 1_555 1_555
H27 N12 1_555 1_555
C45 C41 1_555 1_555
H28 C45 1_555 1_555
C46 C37 1_555 1_555
H29 C46 1_555 1_555
C47 C31 1_555 1_555
H30 C47 1_555 1_555
C48 N8 1_555 1_555
Cd5 O16 1_555 1_555
Cd6 O2 1_555 1_555
Cd8 O9 1_555 1_555
O17 Cd1 1_555 1_555
O18 Cd3 1_555 1_555
O19 Cd3 1_555 1_555
O20 Cd1 1_555 1_555
O21 Cd2 1_555 1_555
O22 Cd2 1_555 1_555
O23 Cd3 1_555 1_555
O24 Cd1 1_555 1_555
Cd2 O4 1_555 1_555
O7 C6 1_555 1_555
C2 C6 1_555 1_555
C7 C11 1_555 1_555
N4 C24 1_555 1_555
N5 C17 1_555 1_555
N5 C18 1_555 1_555
C15 C22 1_555 1_555
C19 C23 1_555 1_555
C20 C21 1_555 1_555
N6 C24 1_555 1_555
O14 C30 1_555 1_555
C26 C30 1_555 1_555
C31 C35 1_555 1_555
N10 C48 1_555 1_555
N11 C41 1_555 1_555
N11 C42 1_555 1_555
C39 C46 1_555 1_555
C43 C47 1_555 1_555
C44 C45 1_555 1_555
N12 C48 1_555 1_555
O3 H31 1_555 1_555
O3 H32 1_555 1_555
O11 H35 1_555 1_555
O11 H36 1_555 1_555
Cd9 O10 1_555 1_555
Cd5 O2_2 1_555 1_555
Cd1_2 O3_2 1_555 1_555
Cd2_2 O1_2 1_555 1_555
O4_2 Cd1_2 1_555 1_555
O5_2 Cd1_2 1_555 1_555
O6_2 C8_2 1_555 1_555
O7_2 Cd2_2 1_555 1_555
O8_2 C8_2 1_555 1_555
O9_2 C10_2 1_555 1_555
C1_2 C8_2 1_555 1_555
N1_2 H1_2 1_555 1_555
C2_2 C5_2 1_555 1_555
N2_2 C14_2 1_555 1_555
C4_2 C3_2 1_555 1_555
N3_2 C14_2 1_555 1_555
C5_2 H3_2 1_555 1_555
C6_2 O5_2 1_555 1_555
C7_2 N1_2 1_555 1_555
N4_2 C18_2 1_555 1_555
C9_2 C5_2 1_555 1_555
H4_2 C9_2 1_555 1_555
C10_2 C4_2 1_555 1_555
C11_2 C3_2 1_555 1_555
C12_2 C1_2 1_555 1_555
H6_2 C12_2 1_555 1_555
C13_2 C1_2 1_555 1_555
H7_2 C13_2 1_555 1_555
C14_2 N1_2 1_555 1_555
N5_2 H8_2 1_555 1_555
C15_2 C16_2 1_555 1_555
C16_2 C12_2 1_555 1_555
H9_2 C16_2 1_555 1_555
C17_2 C9_2 1_555 1_555
C18_2 N3_2 1_555 1_555
C19_2 C4_2 1_555 1_555
H10_2 C19_2 1_555 1_555
C20_2 C2_2 1_555 1_555
H11_2 C20_2 1_555 1_555
N6_2 C15_2 1_555 1_555
H12_2 N6_2 1_555 1_555
C21_2 C17_2 1_555 1_555
H13_2 C21_2 1_555 1_555
C22_2 C13_2 1_555 1_555
H14_2 C22_2 1_555 1_555
C23_2 C7_2 1_555 1_555
H15_2 C23_2 1_555 1_555
C24_2 N2_2 1_555 1_555
Cd3_2 O4_2 1_555 1_555
O10_2 C34_2 1_555 1_555
O11_2 Cd3_2 1_555 1_555
O12_2 Cd3_2 1_555 1_555
O13_2 C32_2 1_555 1_555
O14_2 Cd2_2 1_555 1_555
O15_2 C32_2 1_555 1_555
O16_2 C34_2 1_555 1_555
C25_2 C32_2 1_555 1_555
N7_2 H16_2 1_555 1_555
C26_2 C29_2 1_555 1_555
C27_2 H17_2 1_555 1_555
N8_2 C38_2 1_555 1_555
C28_2 C27_2 1_555 1_555
N9_2 C38_2 1_555 1_555
C29_2 H18_2 1_555 1_555
C30_2 O12_2 1_555 1_555
C31_2 N7_2 1_555 1_555
N10_2 C42_2 1_555 1_555
C33_2 C29_2 1_555 1_555
H19_2 C33_2 1_555 1_555
C34_2 C28_2 1_555 1_555
C35_2 C27_2 1_555 1_555
H20_2 C35_2 1_555 1_555
C36_2 C25_2 1_555 1_555
H21_2 C36_2 1_555 1_555
C37_2 C25_2 1_555 1_555
H22_2 C37_2 1_555 1_555
C38_2 N7_2 1_555 1_555
N11_2 H23_2 1_555 1_555
C39_2 C40_2 1_555 1_555
C40_2 C36_2 1_555 1_555
H24_2 C40_2 1_555 1_555
C41_2 C33_2 1_555 1_555
C42_2 N9_2 1_555 1_555
C43_2 C28_2 1_555 1_555
H25_2 C43_2 1_555 1_555
C44_2 C26_2 1_555 1_555
H26_2 C44_2 1_555 1_555
N12_2 C39_2 1_555 1_555
H27_2 N12_2 1_555 1_555
C45_2 C41_2 1_555 1_555
H28_2 C45_2 1_555 1_555
C46_2 C37_2 1_555 1_555
H29_2 C46_2 1_555 1_555
C47_2 C31_2 1_555 1_555
H30_2 C47_2 1_555 1_555
C48_2 N8_2 1_555 1_555
Cd6 O16_2 1_555 1_555
Cd9 O9_2 1_555 1_555
Cd8 O10_2 1_555 1_555
O17_2 Cd1_2 1_555 1_555
O18_2 Cd3_2 1_555 1_555
O19_2 Cd3_2 1_555 1_555
O20_2 Cd1_2 1_555 1_555
O21_2 Cd2_2 1_555 1_555
O22_2 Cd2_2 1_555 1_555
O23_2 Cd3_2 1_555 1_555
O24_2 Cd1_2 1_555 1_555
Cd2_2 O4_2 1_555 1_555
O7_2 C6_2 1_555 1_555
C2_2 C6_2 1_555 1_555
C7_2 C11_2 1_555 1_555
N4_2 C24_2 1_555 1_555
N5_2 C17_2 1_555 1_555
N5_2 C18_2 1_555 1_555
C15_2 C22_2 1_555 1_555
C19_2 C23_2 1_555 1_555
C20_2 C21_2 1_555 1_555
N6_2 C24_2 1_555 1_555
O14_2 C30_2 1_555 1_555
C26_2 C30_2 1_555 1_555
C31_2 C35_2 1_555 1_555
N10_2 C48_2 1_555 1_555
N11_2 C41_2 1_555 1_555
N11_2 C42_2 1_555 1_555
C39_2 C46_2 1_555 1_555
C43_2 C47_2 1_555 1_555
C44_2 C45_2 1_555 1_555
N12_2 C48_2 1_555 1_555
O3_2 H31_2 1_555 1_555
O3_2 H32_2 1_555 1_555
O11_2 H35_2 1_555 1_555
O11_2 H36_2 1_555 1_555
Cd5 O3_3 1_555 1_555
O4_3 Cd5 1_555 1_555
O3_3 H31_3 1_555 1_555
O3_3 H32_3 1_555 1_555
Cd9 O4_4 1_555 1_555
O11_3 Cd9 1_555 1_555
O11_3 H35_3 1_555 1_555
O11_3 H36_3 1_555 1_555
O18_2 C34_3 1_555 1_555
O24_2 C34_3 1_555 1_555
N7_3 H16_3 1_555 1_555
C27_3 H17_3 1_555 1_555
C28_3 C27_3 1_555 1_555
N9_3 C38_3 1_555 1_555
C30_3 O12_3 1_555 1_555
C31_3 N7_3 1_555 1_555
C34_3 C28_3 1_555 1_555
C35_3 C27_3 1_555 1_555
H20_3 C35_3 1_555 1_555
C38_3 N7_3 1_555 1_555
N11_3 H23_3 1_555 1_555
C41_3 C33_3 1_555 1_555
C42_3 N9_3 1_555 1_555
C43_3 C28_3 1_555 1_555
H25_3 C43_3 1_555 1_555
C44_3 C26_3 1_555 1_555
H26_3 C44_3 1_555 1_555
C45_3 C41_3 1_555 1_555
H28_3 C45_3 1_555 1_555
C47_3 C31_3 1_555 1_555
H30_3 C47_3 1_555 1_555
C26_3 C30_3 1_555 1_555
C31_3 C35_3 1_555 1_555
N11_3 C41_3 1_555 1_555
N11_3 C42_3 1_555 1_555
C43_3 C47_3 1_555 1_555
C44_3 C45_3 1_555 1_555
O17 C10_3 1_555 1_555
O23 C10_3 1_555 1_555
N1_3 H1_3 1_555 1_555
C3_3 H2_3 1_555 1_555
C4_3 C3_3 1_555 1_555
N3_3 C14_3 1_555 1_555
C6_3 O5_3 1_555 1_555
C7_3 N1_3 1_555 1_555
C10_3 C4_3 1_555 1_555
C11_3 C3_3 1_555 1_555
H5_3 C11_3 1_555 1_555
C14_3 N1_3 1_555 1_555
N5_3 H8_3 1_555 1_555
C17_3 C9_3 1_555 1_555
C18_3 N3_3 1_555 1_555
C19_3 C4_3 1_555 1_555
H10_3 C19_3 1_555 1_555
C20_3 C2_3 1_555 1_555
H11_3 C20_3 1_555 1_555
C21_3 C17_3 1_555 1_555
H13_3 C21_3 1_555 1_555
C23_3 C7_3 1_555 1_555
H15_3 C23_3 1_555 1_555
C2_3 C6_3 1_555 1_555
C7_3 C11_3 1_555 1_555
N5_3 C17_3 1_555 1_555
N5_3 C18_3 1_555 1_555
C19_3 C23_3 1_555 1_555
C20_3 C21_3 1_555 1_555
Cd10 O1_3 1_555 1_555
O19 C8_3 1_555 1_555
O7_3 Cd10 1_555 1_555
O21 C8_3 1_555 1_555
C1_3 C8_3 1_555 1_555
C5_3 H3_3 1_555 1_555
C12_3 C1_3 1_555 1_555
H6_3 C12_3 1_555 1_555
C13_3 C1_3 1_555 1_555
H7_3 C13_3 1_555 1_555
C15_3 C16_3 1_555 1_555
C16_3 C12_3 1_555 1_555
H9_3 C16_3 1_555 1_555
N6_3 C15_3 1_555 1_555
H12_3 N6_3 1_555 1_555
C22_3 C13_3 1_555 1_555
H14_3 C22_3 1_555 1_555
C24_3 N2_3 1_555 1_555
N4_3 C24_3 1_555 1_555
C15_3 C22_3 1_555 1_555
N6_3 C24_3 1_555 1_555
O1_3 H33 1_555 1_555
Cd10_2 O1_4 1_555 1_555
O20_2 C32_3 1_555 1_555
O14_3 Cd10_2 1_555 1_555
O22_2 C32_3 1_555 1_555
C25_3 C32_3 1_555 1_555
C29_3 H18_3 1_555 1_555
C36_3 C25_3 1_555 1_555
H21_3 C36_3 1_555 1_555
C37_3 C25_3 1_555 1_555
H22_3 C37_3 1_555 1_555
C39_3 C40_3 1_555 1_555
C40_3 C36_3 1_555 1_555
H24_3 C40_3 1_555 1_555
N12_3 C39_3 1_555 1_555
H27_3 N12_3 1_555 1_555
C46_3 C37_3 1_555 1_555
H29_3 C46_3 1_555 1_555
C48_3 N8_3 1_555 1_555
N10_3 C48_3 1_555 1_555
C39_3 C46_3 1_555 1_555
N12_3 C48_3 1_555 1_555
O1_4 H34 1_555 1_555
Cd11 O1_5 1_555 1_555
O19_2 C8_4 1_555 1_555
O7_4 Cd11 1_555 1_555
O21_2 C8_4 1_555 1_555
C1_4 C8_4 1_555 1_555
C5_4 H3_4 1_555 1_555
C12_4 C1_4 1_555 1_555
H6_4 C12_4 1_555 1_555
C13_4 C1_4 1_555 1_555
H7_4 C13_4 1_555 1_555
C15_4 C16_4 1_555 1_555
C16_4 C12_4 1_555 1_555
H9_4 C16_4 1_555 1_555
N6_4 C15_4 1_555 1_555
H12_4 N6_4 1_555 1_555
C22_4 C13_4 1_555 1_555
H14_4 C22_4 1_555 1_555
C24_4 N2_4 1_555 1_555
O20 C32_4 1_555 1_555
O14_4 Cd11 1_555 1_555
O22 C32_4 1_555 1_555
C25_4 C32_4 1_555 1_555
C29_4 H18_4 1_555 1_555
C36_4 C25_4 1_555 1_555
H21_4 C36_4 1_555 1_555
C37_4 C25_4 1_555 1_555
H22_4 C37_4 1_555 1_555
C39_4 C40_4 1_555 1_555
C40_4 C36_4 1_555 1_555
H24_4 C40_4 1_555 1_555
N12_4 C39_4 1_555 1_555
H27_4 N12_4 1_555 1_555
C46_4 C37_4 1_555 1_555
H29_4 C46_4 1_555 1_555
C48_4 N8_4 1_555 1_555
N4_4 C24_4 1_555 1_555
C15_4 C22_4 1_555 1_555
N6_4 C24_4 1_555 1_555
N10_4 C48_4 1_555 1_555
C39_4 C46_4 1_555 1_555
N12_4 C48_4 1_555 1_555
O17_2 C10_4 1_555 1_555
O23_2 C10_4 1_555 1_555
N1_4 H1_4 1_555 1_555
C3_4 H2_4 1_555 1_555
C4_4 C3_4 1_555 1_555
N3_4 C14_4 1_555 1_555
C6_4 O5_4 1_555 1_555
C7_4 N1_4 1_555 1_555
C10_4 C4_4 1_555 1_555
C11_4 C3_4 1_555 1_555
H5_4 C11_4 1_555 1_555
C14_4 N1_4 1_555 1_555
N5_4 H8_4 1_555 1_555
C17_4 C9_4 1_555 1_555
C18_4 N3_4 1_555 1_555
C19_4 C4_4 1_555 1_555
H10_4 C19_4 1_555 1_555
C20_4 C2_4 1_555 1_555
H11_4 C20_4 1_555 1_555
C21_4 C17_4 1_555 1_555
H13_4 C21_4 1_555 1_555
C23_4 C7_4 1_555 1_555
H15_4 C23_4 1_555 1_555
C2_4 C6_4 1_555 1_555
C7_4 C11_4 1_555 1_555
N5_4 C17_4 1_555 1_555
N5_4 C18_4 1_555 1_555
C19_4 C23_4 1_555 1_555
C20_4 C21_4 1_555 1_555
O18 C34_4 1_555 1_555
O24 C34_4 1_555 1_555
N7_4 H16_4 1_555 1_555
C27_4 H17_4 1_555 1_555
C28_4 C27_4 1_555 1_555
N9_4 C38_4 1_555 1_555
C30_4 O12_4 1_555 1_555
C31_4 N7_4 1_555 1_555
C34_4 C28_4 1_555 1_555
C35_4 C27_4 1_555 1_555
H20_4 C35_4 1_555 1_555
C38_4 N7_4 1_555 1_555
N11_4 H23_4 1_555 1_555
C41_4 C33_4 1_555 1_555
C42_4 N9_4 1_555 1_555
C43_4 C28_4 1_555 1_555
H25_4 C43_4 1_555 1_555
C44_4 C26_4 1_555 1_555
H26_4 C44_4 1_555 1_555
C45_4 C41_4 1_555 1_555
H28_4 C45_4 1_555 1_555
C47_4 C31_4 1_555 1_555
H30_4 C47_4 1_555 1_555
C26_4 C30_4 1_555 1_555
C31_4 C35_4 1_555 1_555
N11_4 C41_4 1_555 1_555
N11_4 C42_4 1_555 1_555
C43_4 C47_4 1_555 1_555
C44_4 C45_4 1_555 1_555
Cd6 O3_4 1_555 1_555
O4_5 Cd6 1_555 1_555
Cd8 O4_5 1_555 1_555
O11_4 Cd8 1_555 1_555
O3_4 H31_4 1_555 1_555
O3_4 H32_4 1_555 1_555
O11_4 H35_4 1_555 1_555
O11_4 H36_4 1_555 1_555
O1_3 H34_2 1_555 1_555
O1_4 H33_2 1_555 1_555

#END
