
###############################################################################
#
# This file contains modified crystal structure data generated from the
# MOF subset of the Cambridge Structural Database (CSD) v543 
# hosted by the Cambridge Crystallographic Data Centre (CCDC).
#
# This work is licensed under the Creative Commons
# Attribution-NonCommercial-ShareAlike 4.0 International License.
# To view a copy of this license, visit
# http://creativecommons.org/licenses/by-nc-sa/4.0/
# or send a letter to
# Creative Commons, PO Box 1866, Mountain View, CA 94042, USA.
#
# CIF created using the CSD Python API on 29 September 2022
# The structure has been converted into the P1 space group
# The structure has a 3D framework
# The original CSD entry VEPBOK is in the orthorhombic crystal system
# The framework has been calculated to contain at least 10.0% void space
# The void calculation uses a probe of radius 1.32A, grid spacing 0.4
#
###############################################################################

data_VEPBOK
_chemical_formula_moiety         '(C108 H76 N128 O64 Zn26)n'
_symmetry_cell_setting           triclinic
_symmetry_space_group_name_H-M   'P 1'
_symmetry_Int_Tables_number      1
_space_group_name_Hall           'P 1'
loop_
_symmetry_equiv_pos_site_id
_symmetry_equiv_pos_as_xyz
1 x,y,z
_cell_length_a                   11.0060(19)
_cell_length_b                   22.801(4)
_cell_length_c                   24.571(4)
_cell_angle_alpha                90
_cell_angle_beta                 90
_cell_angle_gamma                90
_cell_volume                     6166.04
loop_
_atom_site_label
_atom_site_type_symbol
_atom_site_fract_x
_atom_site_fract_y
_atom_site_fract_z
Zn1 Zn 0.22308(4) 0.19602(2) 0.37430(2)
Zn2 Zn 0.0000 -0.0000 0.2500
N1 N 0.2527(4) 0.19162(19) 0.45576(15)
N2 N 0.3900(3) 0.21909(16) 0.34845(13)
N3 N 0.2045(3) 0.11150(17) 0.35080(15)
N4 N 0.1517(3) 0.12946(16) 0.25701(13)
N5 N 0.4160(3) 0.30993(17) 0.39698(18)
O1 O 0.1892(4) 0.17993(16) 0.26089(14)
N6 N 0.5793(3) 0.25536(17) 0.35462(13)
C1 C 0.4614(3) 0.26129(19) 0.36647(15)
N7 N 0.1156(4) 0.03797(16) 0.30395(15)
O2 O 0.1109(4) 0.10805(15) 0.21455(13)
O3 O 0.4892(3) 0.34564(17) 0.41484(18)
O4 O 0.3056(3) 0.31315(18) 0.4032(2)
C2 C 0.1898(8) 0.1929(4) 0.5000
H1 H 0.1035 0.1947 0.5000
C3 C 0.4668(4) 0.1831(2) 0.3216(2)
H2 H 0.4444 0.1481 0.3031
C4 C 0.1964(5) 0.0631(2) 0.3834(2)
H3 H 0.2238 0.0608 0.4200
C5 C 0.5821(4) 0.2052(2) 0.3255(2)
H4 H 0.6528 0.1879 0.3101
C6 C 0.1561(4) 0.09295(18) 0.30422(16)
C7 C 0.1426(5) 0.0186(2) 0.3551(2)
N8 N 0.3642(6) 0.1901(7) 0.4738(2)
N9 N 0.2527(4) 0.19162(19) 0.54424(15)
N10 N 0.3642(6) 0.1901(7) 0.5262(2)
H14 H 0.1266 0.0196 0.1313
Zn7 Zn 0.22308(4) 0.19602(2) 0.62570(2)
Zn11 Zn 0.72308(4) 0.30398(2) 0.37430(2)
N38 N 0.0793(3) 0.24464(17) 0.35462(13)
Zn2_2 Zn 0.0000 1.0000 0.2500
H5 H 0.1266 0.9804 0.3687
Zn4 Zn 0.22308(4) 0.80398(2) 0.12570(2)
N21 N 0.3900(3) 0.78091(16) 0.15155(13)
N22 N 0.2045(3) 0.88850(17) 0.14920(15)
N23 N 0.1517(3) 0.87054(16) 0.24299(13)
N24 N 0.4160(3) 0.69007(17) 0.10302(18)
O9 O 0.1892(4) 0.82007(16) 0.23911(14)
N25 N 0.5793(3) 0.74464(17) 0.14538(13)
C15 C 0.4614(3) 0.73871(19) 0.13353(15)
N26 N 0.1156(4) 0.96203(16) 0.19605(15)
O10 O 0.1109(4) 0.89195(15) 0.28545(13)
O11 O 0.4892(3) 0.65436(17) 0.08516(18)
O12 O 0.3056(3) 0.68685(18) 0.0968(2)
C16 C 0.4668(4) 0.8169(2) 0.1784(2)
H11 H 0.4444 0.8519 0.1969
C17 C 0.1964(5) 0.9369(2) 0.1166(2)
H12 H 0.2238 0.9392 0.0800
C18 C 0.5821(4) 0.7948(2) 0.1745(2)
H13 H 0.6528 0.8121 0.1899
C19 C 0.1561(4) 0.90705(18) 0.19578(16)
C20 C 0.1426(5) 0.9814(2) 0.1449(2)
Zn9 Zn 0.72308(4) 0.69602(2) 0.12570(2)
N33 N 0.2527(4) 0.80838(19) 0.04424(15)
N36 N 0.0793(3) 0.75536(17) 0.14538(13)
Zn2_3 Zn 1.0000 -0.0000 0.2500
H10 H 0.8734 0.0196 0.3687
Zn5 Zn 0.77692(4) 0.19602(2) 0.12570(2)
N27 N 0.6100(3) 0.21909(16) 0.15155(13)
N28 N 0.7955(3) 0.11150(17) 0.14920(15)
N29 N 0.8483(3) 0.12946(16) 0.24299(13)
N30 N 0.5840(3) 0.30993(17) 0.10302(18)
O13 O 0.8108(4) 0.17993(16) 0.23911(14)
N31 N 0.4207(3) 0.25536(17) 0.14538(13)
C21 C 0.5386(3) 0.26129(19) 0.13353(15)
N32 N 0.8844(4) 0.03797(16) 0.19605(15)
O14 O 0.8891(4) 0.10805(15) 0.28545(13)
O15 O 0.5108(3) 0.34564(17) 0.08516(18)
O16 O 0.6944(3) 0.31315(18) 0.0968(2)
C22 C 0.5332(4) 0.1831(2) 0.1784(2)
H15 H 0.5556 0.1481 0.1969
C23 C 0.8036(5) 0.0631(2) 0.1166(2)
H16 H 0.7762 0.0608 0.0800
C24 C 0.4179(4) 0.2052(2) 0.1745(2)
H17 H 0.3472 0.1879 0.1899
C25 C 0.8439(4) 0.09295(18) 0.19578(16)
C26 C 0.8574(5) 0.0186(2) 0.1449(2)
Zn8 Zn 0.27692(4) 0.30398(2) 0.12570(2)
N34 N 0.7473(4) 0.19162(19) 0.04424(15)
N35 N 0.9207(3) 0.24464(17) 0.14538(13)
Zn2_4 Zn 1.0000 1.0000 0.2500
Zn3 Zn 0.77692(4) 0.80398(2) 0.37430(2)
N11 N 0.7473(4) 0.80838(19) 0.45576(15)
N12 N 0.6100(3) 0.78091(16) 0.34845(13)
N13 N 0.7955(3) 0.88850(17) 0.35080(15)
N14 N 0.8483(3) 0.87054(16) 0.25701(13)
N15 N 0.5840(3) 0.69007(17) 0.39698(18)
O5 O 0.8108(4) 0.82007(16) 0.26089(14)
N16 N 0.4207(3) 0.74464(17) 0.35462(13)
C8 C 0.5386(3) 0.73871(19) 0.36647(15)
N17 N 0.8844(4) 0.96203(16) 0.30395(15)
O6 O 0.8891(4) 0.89195(15) 0.21455(13)
O7 O 0.5108(3) 0.65436(17) 0.41484(18)
O8 O 0.6944(3) 0.68685(18) 0.4032(2)
C9 C 0.8102(8) 0.8071(4) 0.5000
H6 H 0.8965 0.8053 0.5000
C10 C 0.5332(4) 0.8169(2) 0.3216(2)
H7 H 0.5556 0.8519 0.3031
C11 C 0.8036(5) 0.9369(2) 0.3834(2)
H8 H 0.7762 0.9392 0.4200
C12 C 0.4179(4) 0.7948(2) 0.3255(2)
H9 H 0.3472 0.8121 0.3101
C13 C 0.8439(4) 0.90705(18) 0.30422(16)
C14 C 0.8574(5) 0.9814(2) 0.3551(2)
N18 N 0.6358(6) 0.8099(7) 0.4738(2)
N19 N 0.7473(4) 0.80838(19) 0.54424(15)
N20 N 0.6358(6) 0.8099(7) 0.5262(2)
H18 H 0.8734 0.9804 0.1313
Zn6 Zn 0.77692(4) 0.80398(2) 0.62570(2)
Zn10 Zn 0.27692(4) 0.69602(2) 0.37430(2)
N37 N 0.9207(3) 0.75536(17) 0.35462(13)
C2_2 C 0.1898(8) 0.8071(4) 0.0000
H1_2 H 0.1035 0.8053 0.0000
N8_2 N 0.3642(6) 0.8099(7) 0.0262(2)
C2_3 C 0.1898(8) 0.8071(4) 1.0000
H1_3 H 0.1035 0.8053 1.0000
N9_2 N 0.2527(4) 0.80838(19) 0.95576(15)
N10_2 N 0.3642(6) 0.8099(7) 0.9738(2)
Zn7_2 Zn 0.22308(4) 0.80398(2) 0.87430(2)
C9_2 C 0.8102(8) 0.1929(4) 0.0000
H6_2 H 0.8965 0.1947 0.0000
N18_2 N 0.6358(6) 0.1901(7) 0.0262(2)
C9_3 C 0.8102(8) 0.1929(4) 1.0000
H6_3 H 0.8965 0.1947 1.0000
N19_2 N 0.7473(4) 0.19162(19) 0.95576(15)
N20_2 N 0.6358(6) 0.1901(7) 0.9738(2)
Zn6_2 Zn 0.77692(4) 0.19602(2) 0.87430(2)
N6_2 N 0.0793(3) 0.75536(17) 0.85462(13)
C5_2 C 0.0821(4) 0.7052(2) 0.8255(2)
H4_2 H 0.1528 0.6879 0.8101
N25_2 N 0.0793(3) 0.24464(17) 0.64538(13)
C18_2 C 0.0821(4) 0.2948(2) 0.6745(2)
H13_2 H 0.1528 0.3121 0.6899
C2_4 C 0.6898(8) 0.6929(4) -0.0000
H1_4 H 0.6035 0.6947 -0.0000
N9_3 N 0.7527(4) 0.69162(19) 0.04424(15)
N10_3 N 0.8642(6) 0.6901(7) 0.0262(2)
C9_4 C 0.3102(8) 0.3071(4) -0.0000
H6_4 H 0.3965 0.3053 -0.0000
N19_3 N 0.2473(4) 0.30838(19) 0.04424(15)
N20_3 N 0.1358(6) 0.3099(7) 0.0262(2)
Zn1_2 Zn 0.72308(4) 0.69602(2) 0.87430(2)
Zn2_5 Zn 0.5000 0.5000 0.7500
N1_2 N 0.7527(4) 0.69162(19) 0.95576(15)
N2_2 N 0.8900(3) 0.71909(16) 0.84845(13)
N3_2 N 0.7045(3) 0.61150(17) 0.85080(15)
N4_2 N 0.6517(3) 0.62946(16) 0.75701(13)
N5_2 N 0.9160(3) 0.80993(17) 0.89698(18)
O1_2 O 0.6892(4) 0.67993(16) 0.76089(14)
C1_2 C 0.9614(3) 0.76129(19) 0.86647(15)
N7_2 N 0.6156(4) 0.53797(16) 0.80395(15)
O2_2 O 0.6109(4) 0.60805(15) 0.71455(13)
O3_2 O 0.9892(3) 0.84564(17) 0.91484(18)
O4_2 O 0.8056(3) 0.81315(18) 0.9032(2)
C2_5 C 0.6898(8) 0.6929(4) 1.0000
H1_5 H 0.6035 0.6947 1.0000
C3_2 C 0.9668(4) 0.6831(2) 0.8216(2)
H2_2 H 0.9444 0.6481 0.8031
C4_2 C 0.6964(5) 0.5631(2) 0.8834(2)
H3_2 H 0.7238 0.5608 0.9200
C6_2 C 0.6561(4) 0.59295(18) 0.80422(16)
C7_2 C 0.6426(5) 0.5186(2) 0.8551(2)
H5_2 H 0.6266 0.4804 0.8687
N8_3 N 0.8642(6) 0.6901(7) 0.9738(2)
Zn3_2 Zn 0.27692(4) 0.30398(2) 0.87430(2)
N11_2 N 0.2473(4) 0.30838(19) 0.95576(15)
N12_2 N 0.1100(3) 0.28091(16) 0.84845(13)
N13_2 N 0.2955(3) 0.38850(17) 0.85080(15)
N14_2 N 0.3483(3) 0.37054(16) 0.75701(13)
N15_2 N 0.0840(3) 0.19007(17) 0.89698(18)
O5_2 O 0.3108(4) 0.32007(16) 0.76089(14)
C8_2 C 0.0386(3) 0.23871(19) 0.86647(15)
N17_2 N 0.3844(4) 0.46203(16) 0.80395(15)
O6_2 O 0.3891(4) 0.39195(15) 0.71455(13)
O7_2 O 0.0108(3) 0.15436(17) 0.91484(18)
O8_2 O 0.1944(3) 0.18685(18) 0.9032(2)
C9_5 C 0.3102(8) 0.3071(4) 1.0000
H6_5 H 0.3965 0.3053 1.0000
C10_2 C 0.0332(4) 0.3169(2) 0.8216(2)
H7_2 H 0.0556 0.3519 0.8031
C11_2 C 0.3036(5) 0.4369(2) 0.8834(2)
H8_2 H 0.2762 0.4392 0.9200
C13_2 C 0.3439(4) 0.40705(18) 0.80422(16)
C14_2 C 0.3574(5) 0.4814(2) 0.8551(2)
H10_2 H 0.3734 0.5196 0.8687
N18_3 N 0.1358(6) 0.3099(7) 0.9738(2)
Zn4_2 Zn 0.72308(4) 0.30398(2) 0.62570(2)
N21_2 N 0.8900(3) 0.28091(16) 0.65155(13)
N22_2 N 0.7045(3) 0.38850(17) 0.64920(15)
N23_2 N 0.6517(3) 0.37054(16) 0.74299(13)
N24_2 N 0.9160(3) 0.19007(17) 0.60302(18)
O9_2 O 0.6892(4) 0.32007(16) 0.73911(14)
C15_2 C 0.9614(3) 0.23871(19) 0.63353(15)
N26_2 N 0.6156(4) 0.46203(16) 0.69605(15)
O10_2 O 0.6109(4) 0.39195(15) 0.78545(13)
O11_2 O 0.9892(3) 0.15436(17) 0.58516(18)
O12_2 O 0.8056(3) 0.18685(18) 0.5968(2)
C16_2 C 0.9668(4) 0.3169(2) 0.6784(2)
H11_2 H 0.9444 0.3519 0.6969
C17_2 C 0.6964(5) 0.4369(2) 0.6166(2)
H12_2 H 0.7238 0.4392 0.5800
C19_2 C 0.6561(4) 0.40705(18) 0.69578(16)
C20_2 C 0.6426(5) 0.4814(2) 0.6449(2)
H14_2 H 0.6266 0.5196 0.6313
Zn5_2 Zn 0.27692(4) 0.69602(2) 0.62570(2)
N27_2 N 0.1100(3) 0.71909(16) 0.65155(13)
N28_2 N 0.2955(3) 0.61150(17) 0.64920(15)
N29_2 N 0.3483(3) 0.62946(16) 0.74299(13)
N30_2 N 0.0840(3) 0.80993(17) 0.60302(18)
O13_2 O 0.3108(4) 0.67993(16) 0.73911(14)
C21_2 C 0.0386(3) 0.76129(19) 0.63353(15)
N32_2 N 0.3844(4) 0.53797(16) 0.69605(15)
O14_2 O 0.3891(4) 0.60805(15) 0.78545(13)
O15_2 O 0.0108(3) 0.84564(17) 0.58516(18)
O16_2 O 0.1944(3) 0.81315(18) 0.5968(2)
C22_2 C 0.0332(4) 0.6831(2) 0.6784(2)
H15_2 H 0.0556 0.6481 0.6969
C23_2 C 0.3036(5) 0.5631(2) 0.6166(2)
H16_2 H 0.2762 0.5608 0.5800
C25_2 C 0.3439(4) 0.59295(18) 0.69578(16)
C26_2 C 0.3574(5) 0.5186(2) 0.6449(2)
H18_2 H 0.3734 0.4804 0.6313
N33_2 N 0.7527(4) 0.30838(19) 0.54424(15)
N34_2 N 0.2473(4) 0.69162(19) 0.54424(15)
N35_2 N 0.4207(3) 0.74464(17) 0.64538(13)
N36_2 N 0.5793(3) 0.25536(17) 0.64538(13)
N37_2 N 0.4207(3) 0.25536(17) 0.85462(13)
N38_2 N 0.5793(3) 0.74464(17) 0.85462(13)
N16_2 N 0.9207(3) 0.24464(17) 0.85462(13)
C12_2 C 0.9179(4) 0.2948(2) 0.8255(2)
H9_2 H 0.8472 0.3121 0.8101
N31_2 N 0.9207(3) 0.75536(17) 0.64538(13)
C24_2 C 0.9179(4) 0.7052(2) 0.6745(2)
H17_2 H 0.8472 0.6879 0.6899
C2_6 C 0.6898(8) 0.3071(4) 0.5000
H1_6 H 0.6035 0.3053 0.5000
N8_4 N 0.8642(6) 0.3099(7) 0.5262(2)
N9_4 N 0.7527(4) 0.30838(19) 0.45576(15)
N10_4 N 0.8642(6) 0.3099(7) 0.4738(2)
C9_6 C 0.3102(8) 0.6929(4) 0.5000
H6_6 H 0.3965 0.6947 0.5000
N18_4 N 0.1358(6) 0.6901(7) 0.5262(2)
N19_4 N 0.2473(4) 0.69162(19) 0.45576(15)
N20_4 N 0.1358(6) 0.6901(7) 0.4738(2)
Zn2_6 Zn -0.0000 -0.0000 0.7500
N12_3 N 0.3900(3) 0.21909(16) 0.65155(13)
N13_3 N 0.2045(3) 0.11150(17) 0.64920(15)
N14_3 N 0.1517(3) 0.12946(16) 0.74299(13)
N15_3 N 0.4160(3) 0.30993(17) 0.60302(18)
O5_3 O 0.1892(4) 0.17993(16) 0.73911(14)
C8_3 C 0.4614(3) 0.26129(19) 0.63353(15)
N17_3 N 0.1156(4) 0.03797(16) 0.69605(15)
O6_3 O 0.1109(4) 0.10805(15) 0.78545(13)
O7_3 O 0.4892(3) 0.34564(17) 0.58516(18)
O8_3 O 0.3056(3) 0.31315(18) 0.5968(2)
C10_3 C 0.4668(4) 0.1831(2) 0.6784(2)
H7_3 H 0.4444 0.1481 0.6969
C11_3 C 0.1964(5) 0.0631(2) 0.6166(2)
H8_3 H 0.2238 0.0608 0.5800
C12_3 C 0.5821(4) 0.2052(2) 0.6745(2)
H9_3 H 0.6528 0.1879 0.6899
C13_3 C 0.1561(4) 0.09295(18) 0.69578(16)
C14_3 C 0.1426(5) 0.0186(2) 0.6449(2)
H18_3 H 0.1266 0.0196 0.8687
Zn2_7 Zn 0.0000 1.0000 0.7500
H10_3 H 0.1266 0.9804 0.6313
N27_3 N 0.3900(3) 0.78091(16) 0.84845(13)
N28_3 N 0.2045(3) 0.88850(17) 0.85080(15)
N29_3 N 0.1517(3) 0.87054(16) 0.75701(13)
N30_3 N 0.4160(3) 0.69007(17) 0.89698(18)
O13_3 O 0.1892(4) 0.82007(16) 0.76089(14)
C21_3 C 0.4614(3) 0.73871(19) 0.86647(15)
N32_3 N 0.1156(4) 0.96203(16) 0.80395(15)
O14_3 O 0.1109(4) 0.89195(15) 0.71455(13)
O15_3 O 0.4892(3) 0.65436(17) 0.91484(18)
O16_3 O 0.3056(3) 0.68685(18) 0.9032(2)
C22_3 C 0.4668(4) 0.8169(2) 0.8216(2)
H15_3 H 0.4444 0.8519 0.8031
C23_3 C 0.1964(5) 0.9369(2) 0.8834(2)
H16_3 H 0.2238 0.9392 0.9200
C24_3 C 0.5821(4) 0.7948(2) 0.8255(2)
H17_3 H 0.6528 0.8121 0.8101
C25_3 C 0.1561(4) 0.90705(18) 0.80422(16)
C26_3 C 0.1426(5) 0.9814(2) 0.8551(2)
Zn2_8 Zn 1.0000 -0.0000 0.7500
H5_3 H 0.8734 0.0196 0.6313
N21_3 N 0.6100(3) 0.21909(16) 0.84845(13)
N22_3 N 0.7955(3) 0.11150(17) 0.85080(15)
N23_3 N 0.8483(3) 0.12946(16) 0.75701(13)
N24_3 N 0.5840(3) 0.30993(17) 0.89698(18)
O9_3 O 0.8108(4) 0.17993(16) 0.76089(14)
C15_3 C 0.5386(3) 0.26129(19) 0.86647(15)
N26_3 N 0.8844(4) 0.03797(16) 0.80395(15)
O10_3 O 0.8891(4) 0.10805(15) 0.71455(13)
O11_3 O 0.5108(3) 0.34564(17) 0.91484(18)
O12_3 O 0.6944(3) 0.31315(18) 0.9032(2)
C16_3 C 0.5332(4) 0.1831(2) 0.8216(2)
H11_3 H 0.5556 0.1481 0.8031
C17_3 C 0.8036(5) 0.0631(2) 0.8834(2)
H12_3 H 0.7762 0.0608 0.9200
C18_3 C 0.4179(4) 0.2052(2) 0.8255(2)
H13_3 H 0.3472 0.1879 0.8101
C19_3 C 0.8439(4) 0.09295(18) 0.80422(16)
C20_3 C 0.8574(5) 0.0186(2) 0.8551(2)
Zn2_9 Zn 1.0000 1.0000 0.7500
N2_3 N 0.6100(3) 0.78091(16) 0.65155(13)
N3_3 N 0.7955(3) 0.88850(17) 0.64920(15)
N4_3 N 0.8483(3) 0.87054(16) 0.74299(13)
N5_3 N 0.5840(3) 0.69007(17) 0.60302(18)
O1_3 O 0.8108(4) 0.82007(16) 0.73911(14)
C1_3 C 0.5386(3) 0.73871(19) 0.63353(15)
N7_3 N 0.8844(4) 0.96203(16) 0.69605(15)
O2_3 O 0.8891(4) 0.89195(15) 0.78545(13)
O3_3 O 0.5108(3) 0.65436(17) 0.58516(18)
O4_3 O 0.6944(3) 0.68685(18) 0.5968(2)
C3_3 C 0.5332(4) 0.8169(2) 0.6784(2)
H2_3 H 0.5556 0.8519 0.6969
C4_3 C 0.8036(5) 0.9369(2) 0.6166(2)
H3_3 H 0.7762 0.9392 0.5800
C5_3 C 0.4179(4) 0.7948(2) 0.6745(2)
H4_3 H 0.3472 0.8121 0.6899
C6_3 C 0.8439(4) 0.90705(18) 0.69578(16)
C7_3 C 0.8574(5) 0.9814(2) 0.6449(2)
H14_3 H 0.8734 0.9804 0.8687
C12_4 C 0.0821(4) 0.7052(2) 0.1745(2)
H9_4 H 0.1528 0.6879 0.1899
C24_4 C 0.0821(4) 0.2948(2) 0.3255(2)
H17_4 H 0.1528 0.3121 0.3101
Zn2_10 Zn 0.5000 0.5000 0.2500
N2_4 N 0.1100(3) 0.28091(16) 0.15155(13)
N3_4 N 0.2955(3) 0.38850(17) 0.14920(15)
N4_4 N 0.3483(3) 0.37054(16) 0.24299(13)
N5_4 N 0.0840(3) 0.19007(17) 0.10302(18)
O1_4 O 0.3108(4) 0.32007(16) 0.23911(14)
C1_4 C 0.0386(3) 0.23871(19) 0.13353(15)
N7_4 N 0.3844(4) 0.46203(16) 0.19605(15)
O2_4 O 0.3891(4) 0.39195(15) 0.28545(13)
O3_4 O 0.0108(3) 0.15436(17) 0.08516(18)
O4_4 O 0.1944(3) 0.18685(18) 0.0968(2)
C3_4 C 0.0332(4) 0.3169(2) 0.1784(2)
H2_4 H 0.0556 0.3519 0.1969
C4_4 C 0.3036(5) 0.4369(2) 0.1166(2)
H3_4 H 0.2762 0.4392 0.0800
C6_4 C 0.3439(4) 0.40705(18) 0.19578(16)
C7_4 C 0.3574(5) 0.4814(2) 0.1449(2)
H5_4 H 0.3734 0.5196 0.1313
N12_4 N 0.8900(3) 0.71909(16) 0.15155(13)
N13_4 N 0.7045(3) 0.61150(17) 0.14920(15)
N14_4 N 0.6517(3) 0.62946(16) 0.24299(13)
N15_4 N 0.9160(3) 0.80993(17) 0.10302(18)
O5_4 O 0.6892(4) 0.67993(16) 0.23911(14)
C8_4 C 0.9614(3) 0.76129(19) 0.13353(15)
N17_4 N 0.6156(4) 0.53797(16) 0.19605(15)
O6_4 O 0.6109(4) 0.60805(15) 0.28545(13)
O7_4 O 0.9892(3) 0.84564(17) 0.08516(18)
O8_4 O 0.8056(3) 0.81315(18) 0.0968(2)
C10_4 C 0.9668(4) 0.6831(2) 0.1784(2)
H7_4 H 0.9444 0.6481 0.1969
C11_4 C 0.6964(5) 0.5631(2) 0.1166(2)
H8_4 H 0.7238 0.5608 0.0800
C13_4 C 0.6561(4) 0.59295(18) 0.19578(16)
C14_4 C 0.6426(5) 0.5186(2) 0.1449(2)
H10_4 H 0.6266 0.4804 0.1313
N21_4 N 0.1100(3) 0.71909(16) 0.34845(13)
N22_4 N 0.2955(3) 0.61150(17) 0.35080(15)
N23_4 N 0.3483(3) 0.62946(16) 0.25701(13)
N24_4 N 0.0840(3) 0.80993(17) 0.39698(18)
O9_4 O 0.3108(4) 0.67993(16) 0.26089(14)
C15_4 C 0.0386(3) 0.76129(19) 0.36647(15)
N26_4 N 0.3844(4) 0.53797(16) 0.30395(15)
O10_4 O 0.3891(4) 0.60805(15) 0.21455(13)
O11_4 O 0.0108(3) 0.84564(17) 0.41484(18)
O12_4 O 0.1944(3) 0.81315(18) 0.4032(2)
C16_4 C 0.0332(4) 0.6831(2) 0.3216(2)
H11_4 H 0.0556 0.6481 0.3031
C17_4 C 0.3036(5) 0.5631(2) 0.3834(2)
H12_4 H 0.2762 0.5608 0.4200
C19_4 C 0.3439(4) 0.59295(18) 0.30422(16)
C20_4 C 0.3574(5) 0.5186(2) 0.3551(2)
H14_4 H 0.3734 0.4804 0.3687
N27_4 N 0.8900(3) 0.28091(16) 0.34845(13)
N28_4 N 0.7045(3) 0.38850(17) 0.35080(15)
N29_4 N 0.6517(3) 0.37054(16) 0.25701(13)
N30_4 N 0.9160(3) 0.19007(17) 0.39698(18)
O13_4 O 0.6892(4) 0.32007(16) 0.26089(14)
C21_4 C 0.9614(3) 0.23871(19) 0.36647(15)
N32_4 N 0.6156(4) 0.46203(16) 0.30395(15)
O14_4 O 0.6109(4) 0.39195(15) 0.21455(13)
O15_4 O 0.9892(3) 0.15436(17) 0.41484(18)
O16_4 O 0.8056(3) 0.18685(18) 0.4032(2)
C22_4 C 0.9668(4) 0.3169(2) 0.3216(2)
H15_4 H 0.9444 0.3519 0.3031
C23_4 C 0.6964(5) 0.4369(2) 0.3834(2)
H16_4 H 0.7238 0.4392 0.4200
C25_4 C 0.6561(4) 0.40705(18) 0.30422(16)
C26_4 C 0.6426(5) 0.4814(2) 0.3551(2)
H18_4 H 0.6266 0.5196 0.3687
C5_4 C 0.9179(4) 0.2948(2) 0.1745(2)
H4_4 H 0.8472 0.3121 0.1899
C18_4 C 0.9179(4) 0.7052(2) 0.3255(2)
H13_4 H 0.8472 0.6879 0.3101
loop_
_geom_bond_atom_site_label_1
_geom_bond_atom_site_label_2
_geom_bond_site_symmetry_1
_geom_bond_site_symmetry_2
Zn1 N1 1_555 1_555
Zn2 N7 1_555 1_555
N1 C2 1_555 1_555
N2 Zn1 1_555 1_555
N3 Zn1 1_555 1_555
N4 O1 1_555 1_555
N5 C1 1_555 1_555
N6 C1 1_555 1_555
C1 N2 1_555 1_555
N7 C6 1_555 1_555
O2 N4 1_555 1_555
O3 N5 1_555 1_555
O4 N5 1_555 1_555
C2 H1 1_555 1_555
C3 N2 1_555 1_555
H2 C3 1_555 1_555
C4 N3 1_555 1_555
H3 C4 1_555 1_555
C5 N6 1_555 1_555
H4 C5 1_555 1_555
C6 N3 1_555 1_555
C7 N7 1_555 1_555
N8 N1 1_555 1_555
N9 C2 1_555 1_555
N10 N8 1_555 1_555
Zn7 N9 1_555 1_555
Zn11 N6 1_555 1_555
N38 Zn1 1_555 1_555
N4 C6 1_555 1_555
C3 C5 1_555 1_555
C4 C7 1_555 1_555
N9 N10 1_555 1_555
Zn4 N21 1_555 1_555
N21 C15 1_555 1_555
N22 Zn4 1_555 1_555
N23 O9 1_555 1_555
N24 C15 1_555 1_555
N25 C15 1_555 1_555
N26 Zn2_2 1_555 1_555
O10 N23 1_555 1_555
O11 N24 1_555 1_555
O12 N24 1_555 1_555
C16 N21 1_555 1_555
H11 C16 1_555 1_555
C17 N22 1_555 1_555
H12 C17 1_555 1_555
C18 N25 1_555 1_555
H13 C18 1_555 1_555
C19 N22 1_555 1_555
C20 N26 1_555 1_555
Zn9 N25 1_555 1_555
N33 Zn4 1_555 1_555
N36 Zn4 1_555 1_555
N23 C19 1_555 1_555
N26 C19 1_555 1_555
C16 C18 1_555 1_555
C17 C20 1_555 1_555
Zn5 N27 1_555 1_555
N27 C21 1_555 1_555
N28 Zn5 1_555 1_555
N29 O13 1_555 1_555
N30 C21 1_555 1_555
N31 C21 1_555 1_555
N32 Zn2_3 1_555 1_555
O14 N29 1_555 1_555
O15 N30 1_555 1_555
O16 N30 1_555 1_555
C22 N27 1_555 1_555
H15 C22 1_555 1_555
C23 N28 1_555 1_555
H16 C23 1_555 1_555
C24 N31 1_555 1_555
H17 C24 1_555 1_555
C25 N28 1_555 1_555
C26 N32 1_555 1_555
Zn8 N31 1_555 1_555
N34 Zn5 1_555 1_555
N35 Zn5 1_555 1_555
N29 C25 1_555 1_555
N32 C25 1_555 1_555
C22 C24 1_555 1_555
C23 C26 1_555 1_555
Zn3 N11 1_555 1_555
N11 C9 1_555 1_555
N12 Zn3 1_555 1_555
N13 Zn3 1_555 1_555
N14 O5 1_555 1_555
N15 C8 1_555 1_555
N16 C8 1_555 1_555
C8 N12 1_555 1_555
N17 Zn2_4 1_555 1_555
O6 N14 1_555 1_555
O7 N15 1_555 1_555
O8 N15 1_555 1_555
C9 H6 1_555 1_555
C10 N12 1_555 1_555
H7 C10 1_555 1_555
C11 N13 1_555 1_555
H8 C11 1_555 1_555
C12 N16 1_555 1_555
H9 C12 1_555 1_555
C13 N13 1_555 1_555
C14 N17 1_555 1_555
N18 N11 1_555 1_555
N19 C9 1_555 1_555
N20 N18 1_555 1_555
Zn6 N19 1_555 1_555
Zn10 N16 1_555 1_555
N37 Zn3 1_555 1_555
N14 C13 1_555 1_555
N17 C13 1_555 1_555
C10 C12 1_555 1_555
C11 C14 1_555 1_555
N19 N20 1_555 1_555
N33 C2_2 1_555 1_555
C2_2 H1_2 1_555 1_555
N8_2 N33 1_555 1_555
C2_3 H1_3 1_555 1_555
N9_2 C2_3 1_555 1_555
Zn7_2 N9_2 1_555 1_555
N9_2 N10_2 1_555 1_555
N34 C9_2 1_555 1_555
C9_2 H6_2 1_555 1_555
N18_2 N34 1_555 1_555
C9_3 H6_3 1_555 1_555
N19_2 C9_3 1_555 1_555
Zn6_2 N19_2 1_555 1_555
N19_2 N20_2 1_555 1_555
C5_2 N6_2 1_555 1_555
H4_2 C5_2 1_555 1_555
C18_2 N25_2 1_555 1_555
H13_2 C18_2 1_555 1_555
Zn7 N25_2 1_555 1_555
Zn7_2 N6_2 1_555 1_555
C2_4 H1_4 1_555 1_555
N9_3 C2_4 1_555 1_555
C9_4 H6_4 1_555 1_555
N19_3 C9_4 1_555 1_555
Zn8 N19_3 1_555 1_555
Zn9 N9_3 1_555 1_555
N9_3 N10_3 1_555 1_555
N19_3 N20_3 1_555 1_555
Zn1_2 N1_2 1_555 1_555
Zn2_5 N7_2 1_555 1_555
N1_2 C2_5 1_555 1_555
N2_2 Zn1_2 1_555 1_555
N3_2 Zn1_2 1_555 1_555
N4_2 O1_2 1_555 1_555
N5_2 C1_2 1_555 1_555
C1_2 N2_2 1_555 1_555
N7_2 C6_2 1_555 1_555
O2_2 N4_2 1_555 1_555
O3_2 N5_2 1_555 1_555
O4_2 N5_2 1_555 1_555
C2_5 H1_5 1_555 1_555
C3_2 N2_2 1_555 1_555
H2_2 C3_2 1_555 1_555
C4_2 N3_2 1_555 1_555
H3_2 C4_2 1_555 1_555
C6_2 N3_2 1_555 1_555
C7_2 N7_2 1_555 1_555
H5_2 C7_2 1_555 1_555
N8_3 N1_2 1_555 1_555
Zn3_2 N11_2 1_555 1_555
N11_2 C9_5 1_555 1_555
N12_2 Zn3_2 1_555 1_555
N13_2 Zn3_2 1_555 1_555
N14_2 O5_2 1_555 1_555
N15_2 C8_2 1_555 1_555
C8_2 N12_2 1_555 1_555
N17_2 Zn2_5 1_555 1_555
O6_2 N14_2 1_555 1_555
O7_2 N15_2 1_555 1_555
O8_2 N15_2 1_555 1_555
C9_5 H6_5 1_555 1_555
C10_2 N12_2 1_555 1_555
H7_2 C10_2 1_555 1_555
C11_2 N13_2 1_555 1_555
H8_2 C11_2 1_555 1_555
C13_2 N13_2 1_555 1_555
C14_2 N17_2 1_555 1_555
H10_2 C14_2 1_555 1_555
N18_3 N11_2 1_555 1_555
Zn4_2 N21_2 1_555 1_555
N21_2 C15_2 1_555 1_555
N22_2 Zn4_2 1_555 1_555
N23_2 O9_2 1_555 1_555
N24_2 C15_2 1_555 1_555
N26_2 Zn2_5 1_555 1_555
O10_2 N23_2 1_555 1_555
O11_2 N24_2 1_555 1_555
O12_2 N24_2 1_555 1_555
C16_2 N21_2 1_555 1_555
H11_2 C16_2 1_555 1_555
C17_2 N22_2 1_555 1_555
H12_2 C17_2 1_555 1_555
C19_2 N22_2 1_555 1_555
C20_2 N26_2 1_555 1_555
H14_2 C20_2 1_555 1_555
Zn5_2 N27_2 1_555 1_555
N27_2 C21_2 1_555 1_555
N28_2 Zn5_2 1_555 1_555
N29_2 O13_2 1_555 1_555
N30_2 C21_2 1_555 1_555
N32_2 Zn2_5 1_555 1_555
O14_2 N29_2 1_555 1_555
O15_2 N30_2 1_555 1_555
O16_2 N30_2 1_555 1_555
C22_2 N27_2 1_555 1_555
H15_2 C22_2 1_555 1_555
C23_2 N28_2 1_555 1_555
H16_2 C23_2 1_555 1_555
C25_2 N28_2 1_555 1_555
C26_2 N32_2 1_555 1_555
H18_2 C26_2 1_555 1_555
N33_2 Zn4_2 1_555 1_555
N34_2 Zn5_2 1_555 1_555
N35_2 Zn5_2 1_555 1_555
N36_2 Zn4_2 1_555 1_555
N37_2 Zn3_2 1_555 1_555
N38_2 Zn1_2 1_555 1_555
N4_2 C6_2 1_555 1_555
C4_2 C7_2 1_555 1_555
N14_2 C13_2 1_555 1_555
N17_2 C13_2 1_555 1_555
C11_2 C14_2 1_555 1_555
N23_2 C19_2 1_555 1_555
N26_2 C19_2 1_555 1_555
C17_2 C20_2 1_555 1_555
N29_2 C25_2 1_555 1_555
N32_2 C25_2 1_555 1_555
C23_2 C26_2 1_555 1_555
C12_2 N16_2 1_555 1_555
H9_2 C12_2 1_555 1_555
C24_2 N31_2 1_555 1_555
H17_2 C24_2 1_555 1_555
Zn6 N31_2 1_555 1_555
Zn6_2 N16_2 1_555 1_555
N33_2 C2_6 1_555 1_555
C2_6 H1_6 1_555 1_555
N8_4 N33_2 1_555 1_555
N9_4 C2_6 1_555 1_555
N10_4 N8_4 1_555 1_555
N34_2 C9_6 1_555 1_555
C9_6 H6_6 1_555 1_555
N18_4 N34_2 1_555 1_555
N19_4 C9_6 1_555 1_555
N20_4 N18_4 1_555 1_555
Zn10 N19_4 1_555 1_555
Zn11 N9_4 1_555 1_555
N9_4 N10_4 1_555 1_555
N19_4 N20_4 1_555 1_555
N12_3 Zn7 1_555 1_555
N13_3 Zn7 1_555 1_555
N14_3 O5_3 1_555 1_555
N15_3 C8_3 1_555 1_555
N36_2 C8_3 1_555 1_555
C8_3 N12_3 1_555 1_555
N17_3 Zn2_6 1_555 1_555
O6_3 N14_3 1_555 1_555
O7_3 N15_3 1_555 1_555
O8_3 N15_3 1_555 1_555
C10_3 N12_3 1_555 1_555
H7_3 C10_3 1_555 1_555
C11_3 N13_3 1_555 1_555
H8_3 C11_3 1_555 1_555
C12_3 N36_2 1_555 1_555
H9_3 C12_3 1_555 1_555
C13_3 N13_3 1_555 1_555
C14_3 N17_3 1_555 1_555
N14_3 C13_3 1_555 1_555
N17_3 C13_3 1_555 1_555
C10_3 C12_3 1_555 1_555
C11_3 C14_3 1_555 1_555
Zn7_2 N27_3 1_555 1_555
N27_3 C21_3 1_555 1_555
N28_3 Zn7_2 1_555 1_555
N29_3 O13_3 1_555 1_555
N30_3 C21_3 1_555 1_555
N38_2 C21_3 1_555 1_555
N32_3 Zn2_7 1_555 1_555
O14_3 N29_3 1_555 1_555
O15_3 N30_3 1_555 1_555
O16_3 N30_3 1_555 1_555
C22_3 N27_3 1_555 1_555
H15_3 C22_3 1_555 1_555
C23_3 N28_3 1_555 1_555
H16_3 C23_3 1_555 1_555
C24_3 N38_2 1_555 1_555
H17_3 C24_3 1_555 1_555
C25_3 N28_3 1_555 1_555
C26_3 N32_3 1_555 1_555
N29_3 C25_3 1_555 1_555
N32_3 C25_3 1_555 1_555
C22_3 C24_3 1_555 1_555
C23_3 C26_3 1_555 1_555
Zn6_2 N21_3 1_555 1_555
N21_3 C15_3 1_555 1_555
N22_3 Zn6_2 1_555 1_555
N23_3 O9_3 1_555 1_555
N24_3 C15_3 1_555 1_555
N37_2 C15_3 1_555 1_555
N26_3 Zn2_8 1_555 1_555
O10_3 N23_3 1_555 1_555
O11_3 N24_3 1_555 1_555
O12_3 N24_3 1_555 1_555
C16_3 N21_3 1_555 1_555
H11_3 C16_3 1_555 1_555
C17_3 N22_3 1_555 1_555
H12_3 C17_3 1_555 1_555
C18_3 N37_2 1_555 1_555
H13_3 C18_3 1_555 1_555
C19_3 N22_3 1_555 1_555
C20_3 N26_3 1_555 1_555
N23_3 C19_3 1_555 1_555
N26_3 C19_3 1_555 1_555
C16_3 C18_3 1_555 1_555
C17_3 C20_3 1_555 1_555
Zn2_9 N7_3 1_555 1_555
N2_3 Zn6 1_555 1_555
N3_3 Zn6 1_555 1_555
N4_3 O1_3 1_555 1_555
N5_3 C1_3 1_555 1_555
N35_2 C1_3 1_555 1_555
C1_3 N2_3 1_555 1_555
N7_3 C6_3 1_555 1_555
O2_3 N4_3 1_555 1_555
O3_3 N5_3 1_555 1_555
O4_3 N5_3 1_555 1_555
C3_3 N2_3 1_555 1_555
H2_3 C3_3 1_555 1_555
C4_3 N3_3 1_555 1_555
H3_3 C4_3 1_555 1_555
C5_3 N35_2 1_555 1_555
H4_3 C5_3 1_555 1_555
C6_3 N3_3 1_555 1_555
C7_3 N7_3 1_555 1_555
N4_3 C6_3 1_555 1_555
C3_3 C5_3 1_555 1_555
C4_3 C7_3 1_555 1_555
C12_4 N36 1_555 1_555
H9_4 C12_4 1_555 1_555
C24_4 N38 1_555 1_555
H17_4 C24_4 1_555 1_555
Zn2_10 N7_4 1_555 1_555
N2_4 Zn8 1_555 1_555
N3_4 Zn8 1_555 1_555
N4_4 O1_4 1_555 1_555
N5_4 C1_4 1_555 1_555
C1_4 N2_4 1_555 1_555
N7_4 C6_4 1_555 1_555
O2_4 N4_4 1_555 1_555
O3_4 N5_4 1_555 1_555
O4_4 N5_4 1_555 1_555
C3_4 N2_4 1_555 1_555
H2_4 C3_4 1_555 1_555
C4_4 N3_4 1_555 1_555
H3_4 C4_4 1_555 1_555
C6_4 N3_4 1_555 1_555
C7_4 N7_4 1_555 1_555
H5_4 C7_4 1_555 1_555
N12_4 Zn9 1_555 1_555
N13_4 Zn9 1_555 1_555
N14_4 O5_4 1_555 1_555
N15_4 C8_4 1_555 1_555
C8_4 N12_4 1_555 1_555
N17_4 Zn2_10 1_555 1_555
O6_4 N14_4 1_555 1_555
O7_4 N15_4 1_555 1_555
O8_4 N15_4 1_555 1_555
C10_4 N12_4 1_555 1_555
H7_4 C10_4 1_555 1_555
C11_4 N13_4 1_555 1_555
H8_4 C11_4 1_555 1_555
C13_4 N13_4 1_555 1_555
C14_4 N17_4 1_555 1_555
H10_4 C14_4 1_555 1_555
Zn10 N21_4 1_555 1_555
N21_4 C15_4 1_555 1_555
N22_4 Zn10 1_555 1_555
N23_4 O9_4 1_555 1_555
N24_4 C15_4 1_555 1_555
N26_4 Zn2_10 1_555 1_555
O10_4 N23_4 1_555 1_555
O11_4 N24_4 1_555 1_555
O12_4 N24_4 1_555 1_555
C16_4 N21_4 1_555 1_555
H11_4 C16_4 1_555 1_555
C17_4 N22_4 1_555 1_555
H12_4 C17_4 1_555 1_555
C19_4 N22_4 1_555 1_555
C20_4 N26_4 1_555 1_555
H14_4 C20_4 1_555 1_555
Zn11 N27_4 1_555 1_555
N27_4 C21_4 1_555 1_555
N28_4 Zn11 1_555 1_555
N29_4 O13_4 1_555 1_555
N30_4 C21_4 1_555 1_555
N32_4 Zn2_10 1_555 1_555
O14_4 N29_4 1_555 1_555
O15_4 N30_4 1_555 1_555
O16_4 N30_4 1_555 1_555
C22_4 N27_4 1_555 1_555
H15_4 C22_4 1_555 1_555
C23_4 N28_4 1_555 1_555
H16_4 C23_4 1_555 1_555
C25_4 N28_4 1_555 1_555
C26_4 N32_4 1_555 1_555
H18_4 C26_4 1_555 1_555
N4_4 C6_4 1_555 1_555
C4_4 C7_4 1_555 1_555
N14_4 C13_4 1_555 1_555
N17_4 C13_4 1_555 1_555
C11_4 C14_4 1_555 1_555
N23_4 C19_4 1_555 1_555
N26_4 C19_4 1_555 1_555
C17_4 C20_4 1_555 1_555
N29_4 C25_4 1_555 1_555
N32_4 C25_4 1_555 1_555
C23_4 C26_4 1_555 1_555
C5_4 N35 1_555 1_555
H4_4 C5_4 1_555 1_555
C18_4 N37 1_555 1_555
H13_4 C18_4 1_555 1_555

#END
