
###############################################################################
#
# This file contains modified crystal structure data generated from the
# MOF subset of the Cambridge Structural Database (CSD) v543 
# hosted by the Cambridge Crystallographic Data Centre (CCDC).
#
# This work is licensed under the Creative Commons
# Attribution-NonCommercial-ShareAlike 4.0 International License.
# To view a copy of this license, visit
# http://creativecommons.org/licenses/by-nc-sa/4.0/
# or send a letter to
# Creative Commons, PO Box 1866, Mountain View, CA 94042, USA.
#
# CIF created using the CSD Python API on 29 September 2022
# The structure has been converted into the P1 space group
# The structure has a 3D framework
# The original CSD entry VERGEH is in the monoclinic crystal system
# The framework has been calculated to contain at least 10.0% void space
# The void calculation uses a probe of radius 1.32A, grid spacing 0.4
#
###############################################################################

data_VERGEH
_chemical_formula_moiety         '(C280 H168 N16 O44 Zn15)n'
_symmetry_cell_setting           triclinic
_symmetry_space_group_name_H-M   'P 1'
_symmetry_Int_Tables_number      1
_space_group_name_Hall           'P 1'
loop_
_symmetry_equiv_pos_site_id
_symmetry_equiv_pos_as_xyz
1 x,y,z
_cell_length_a                   30.643(3)
_cell_length_b                   10.5532(10)
_cell_length_c                   31.782(4)
_cell_angle_alpha                90
_cell_angle_beta                 116.594(2)
_cell_angle_gamma                90
_cell_volume                     9190.35
loop_
_atom_site_label
_atom_site_type_symbol
_atom_site_fract_x
_atom_site_fract_y
_atom_site_fract_z
C38 C 0.38372(10) 0.0036(3) 0.51579(11)
H24 H 0.3590 0.0637 0.5073
N3 N 0.42958(8) 0.0292(2) 0.52688(9)
Zn11 Zn 0.455793(12) 0.18855(3) 0.512352(13)
C28 C 0.04607(11) 0.5852(3) 0.46244(11)
H16 H 0.0128 0.5958 0.4528
C29 C 0.07788(11) 0.6791(3) 0.46808(12)
H17 H 0.0710 0.7653 0.4638
C30 C 0.11628(10) 0.4964(3) 0.48421(11)
H18 H 0.1410 0.4363 0.4927
C31 C 0.16790(10) 0.6851(3) 0.49135(11)
C32 C 0.20081(11) 0.6280(3) 0.47986(11)
H19 H 0.1941 0.5485 0.4658
C33 C 0.24535(11) 0.6891(3) 0.48923(11)
C34 C 0.21925(12) 0.8661(3) 0.52190(12)
H20 H 0.2248 0.9460 0.5357
C35 C 0.17632(11) 0.8032(3) 0.51256(12)
H21 H 0.1533 0.8397 0.5204
N1 N 0.07042(8) 0.4708(2) 0.47312(9)
N2 N 0.12247(8) 0.6227(2) 0.48145(9)
Zn1 Zn 0.0000 0.0000 0.5000
Zn2 Zn 0.044207(12) 0.31145(3) 0.487648(13)
C36 C 0.45393(11) 0.9148(3) 0.53756(11)
H22 H 0.4872 0.9042 0.5472
C37 C 0.42212(11) 0.8209(3) 0.53192(12)
H23 H 0.4290 0.7347 0.5362
C39 C 0.33210(10) 0.8149(3) 0.50865(11)
C40 C 0.29919(11) 0.8720(3) 0.52014(11)
H25 H 0.3059 0.9515 0.5342
C41 C 0.25465(11) 0.8109(3) 0.51077(11)
C42 C 0.28075(12) 0.6339(3) 0.47810(12)
H26 H 0.2752 0.5540 0.4643
C43 C 0.32368(11) 0.6968(3) 0.48744(12)
H27 H 0.3467 0.6603 0.4796
N4 N 0.37753(8) 0.8773(2) 0.51855(9)
O14 O 0.07098(8) 0.32700(19) 0.55621(7)
O16 O 0.03072(8) 0.14839(19) 0.54841(7)
O17 O 0.07973(8) 0.1871(2) 0.47201(9)
Zn7 Zn 0.5000 0.5000 0.0000
Zn9 Zn 0.455793(12) 0.81145(3) 0.012352(13)
Zn1_2 Zn 0.0000 1.0000 0.5000
C44 C 0.05348(10) 0.7668(3) 0.56193(10)
C45 C 0.10686(10) 0.7406(3) 0.58828(11)
C46 C 0.13912(10) 0.8372(3) 0.61322(11)
H28 H 0.1272 0.9175 0.6144
C47 C 0.18851(11) 0.8143(3) 0.63618(12)
H29 H 0.2097 0.8781 0.6539
C48 C 0.20710(11) 0.6946(3) 0.63297(11)
C49 C 0.17485(11) 0.6003(3) 0.60784(11)
H30 H 0.1869 0.5213 0.6053
C50 C 0.12517(11) 0.6205(3) 0.58644(11)
H31 H 0.1039 0.5545 0.5709
C51 C 0.26084(11) 0.6721(3) 0.65613(12)
C52 C 0.28833(11) 0.6974(3) 0.70307(12)
H32 H 0.2736 0.7344 0.7200
C53 C 0.33838(12) 0.6683(3) 0.72614(11)
C54 C 0.35973(12) 0.6187(3) 0.69897(12)
H33 H 0.3928 0.5985 0.7135
C55 C 0.33325(11) 0.5986(3) 0.65107(12)
C56 C 0.28312(11) 0.6221(3) 0.63012(11)
H34 H 0.2644 0.6041 0.5984
C57 C 0.36670(11) 0.6882(3) 0.77678(11)
C58 C 0.39932(11) 0.5967(3) 0.80516(12)
H35 H 0.4049 0.5246 0.7915
C59 C 0.42330(11) 0.6117(3) 0.85313(12)
H36 H 0.4450 0.5497 0.8716
C60 C 0.41547(10) 0.7184(3) 0.87420(11)
C61 C 0.38371(12) 0.8106(3) 0.84655(12)
H37 H 0.3786 0.8828 0.8605
C62 C 0.35940(12) 0.7968(3) 0.79838(12)
H38 H 0.3381 0.8596 0.7801
C63 C 0.43964(11) 0.7307(3) 0.92650(11)
C64 C 0.35722(11) 0.5536(3) 0.62210(12)
C65 C 0.33584(12) 0.4602(3) 0.58817(12)
H39 H 0.3062 0.4249 0.5834
C66 C 0.35822(11) 0.4198(3) 0.56157(12)
H40 H 0.3444 0.3545 0.5400
C67 C 0.40136(11) 0.4755(3) 0.56658(12)
C68 C 0.42327(11) 0.5670(3) 0.60028(11)
H41 H 0.4528 0.6025 0.6046
C69 C 0.40089(11) 0.6063(3) 0.62809(12)
H42 H 0.4156 0.6686 0.6508
C70 C 0.42511(11) 0.4311(3) 0.53718(11)
O7 O 0.02543(7) 0.67015(18) 0.54919(7)
O8 O 0.03984(7) 0.87961(19) 0.55531(7)
O9 O 0.42902(8) 0.82700(19) 0.94379(7)
O10 O 0.46928(8) 0.64839(19) 0.95159(7)
O11 O 0.42027(8) 0.3129(2) 0.52799(9)
O12 O 0.44632(7) 0.50926(19) 0.52397(8)
O19 O 0.05368(7) 0.99074(19) 0.47603(8)
Zn5 Zn 0.5000 0.5000 0.5000
Zn7_2 Zn 0.5000 0.5000 1.0000
C1 C 0.94652(10) 0.2332(3) 0.43807(10)
C2 C 0.89314(10) 0.2594(3) 0.41172(11)
C3 C 0.86088(10) 0.1628(3) 0.38678(11)
H1 H 0.8728 0.0825 0.3856
C4 C 0.81149(11) 0.1857(3) 0.36382(12)
H2 H 0.7903 0.1219 0.3461
C5 C 0.79290(11) 0.3054(3) 0.36703(11)
C6 C 0.82515(11) 0.3997(3) 0.39216(11)
H3 H 0.8131 0.4787 0.3947
C7 C 0.87483(11) 0.3795(3) 0.41356(11)
H4 H 0.8961 0.4455 0.4291
C8 C 0.73916(11) 0.3279(3) 0.34387(12)
C9 C 0.71167(11) 0.3026(3) 0.29693(12)
H5 H 0.7264 0.2656 0.2800
C10 C 0.66162(12) 0.3317(3) 0.27386(11)
C11 C 0.64027(12) 0.3813(3) 0.30103(12)
H6 H 0.6072 0.4015 0.2865
C12 C 0.66675(11) 0.4014(3) 0.34893(12)
C13 C 0.71688(11) 0.3779(3) 0.36988(11)
H7 H 0.7356 0.3959 0.4016
C14 C 0.63330(11) 0.3118(3) 0.22322(11)
C15 C 0.60068(11) 0.4033(3) 0.19484(12)
H8 H 0.5951 0.4754 0.2085
C16 C 0.57670(11) 0.3883(3) 0.14687(12)
H9 H 0.5550 0.4503 0.1284
C17 C 0.58453(10) 0.2816(3) 0.12580(11)
C18 C 0.61629(12) 0.1894(3) 0.15345(12)
H10 H 0.6214 0.1172 0.1395
C19 C 0.64060(12) 0.2032(3) 0.20162(12)
H11 H 0.6619 0.1404 0.2199
C20 C 0.56036(11) 0.2693(3) 0.07350(11)
C21 C 0.64278(11) 0.4464(3) 0.37790(12)
C22 C 0.66416(12) 0.5398(3) 0.41183(12)
H12 H 0.6938 0.5751 0.4166
C23 C 0.64178(11) 0.5802(3) 0.43843(12)
H13 H 0.6556 0.6455 0.4600
C24 C 0.59864(11) 0.5245(3) 0.43342(12)
C25 C 0.57673(11) 0.4330(3) 0.39972(11)
H14 H 0.5472 0.3975 0.3954
C26 C 0.59911(11) 0.3937(3) 0.37191(12)
H15 H 0.5844 0.3314 0.3492
C27 C 0.57489(11) 0.5689(3) 0.46282(11)
O1 O 0.97457(7) 0.32985(18) 0.45081(7)
O2 O 0.96016(7) 0.12039(19) 0.44469(7)
O3 O 0.57098(8) 0.17300(19) 0.05621(7)
O4 O 0.53072(8) 0.35161(19) 0.04841(7)
O5 O 0.57973(8) 0.6871(2) 0.47201(9)
O6 O 0.55368(7) 0.49074(19) 0.47603(8)
Zn1_3 Zn 1.0000 0.0000 0.5000
O20 O 0.94632(7) 0.00926(19) 0.52397(8)
Zn8 Zn 0.544207(12) 0.81145(3) 0.487648(13)
Zn12 Zn 0.544207(12) 0.18855(3) 0.987648(13)
Zn1_4 Zn 1.0000 1.0000 0.5000
Zn3 Zn 0.955793(12) 0.68855(3) 0.512352(13)
N5 N 0.92958(8) 0.5292(2) 0.52688(9)
O13 O 0.92902(8) 0.67300(19) 0.44379(7)
O15 O 0.96928(8) 0.85161(19) 0.45159(7)
O18 O 0.92027(8) 0.8129(2) 0.52799(9)
C1_2 C 0.05348(10) 0.2332(3) 0.06193(10)
C2_2 C 0.10686(10) 0.2594(3) 0.08828(11)
C3_2 C 0.13912(10) 0.1628(3) 0.11322(11)
H1_2 H 0.1272 0.0825 0.1144
C4_2 C 0.18851(11) 0.1857(3) 0.13618(12)
H2_2 H 0.2097 0.1219 0.1539
C5_2 C 0.20710(11) 0.3054(3) 0.13297(11)
C6_2 C 0.17485(11) 0.3997(3) 0.10784(11)
H3_2 H 0.1869 0.4787 0.1053
C7_2 C 0.12517(11) 0.3795(3) 0.08644(11)
H4_2 H 0.1039 0.4455 0.0709
C8_2 C 0.26084(11) 0.3279(3) 0.15613(12)
C9_2 C 0.28833(11) 0.3026(3) 0.20307(12)
H5_2 H 0.2736 0.2656 0.2200
C10_2 C 0.33838(12) 0.3317(3) 0.22614(11)
C11_2 C 0.35973(12) 0.3813(3) 0.19897(12)
H6_2 H 0.3928 0.4015 0.2135
C12_2 C 0.33325(11) 0.4014(3) 0.15107(12)
C13_2 C 0.28312(11) 0.3779(3) 0.13012(11)
H7_2 H 0.2644 0.3959 0.0984
C14_2 C 0.36670(11) 0.3118(3) 0.27678(11)
C15_2 C 0.39932(11) 0.4033(3) 0.30516(12)
H8_2 H 0.4049 0.4754 0.2915
C16_2 C 0.42330(11) 0.3883(3) 0.35313(12)
H9_2 H 0.4450 0.4503 0.3716
C17_2 C 0.41547(10) 0.2816(3) 0.37420(11)
C18_2 C 0.38371(12) 0.1894(3) 0.34655(12)
H10_2 H 0.3786 0.1172 0.3605
C19_2 C 0.35940(12) 0.2032(3) 0.29838(12)
H11_2 H 0.3381 0.1404 0.2801
C20_2 C 0.43964(11) 0.2693(3) 0.42650(11)
C21_2 C 0.35722(11) 0.4464(3) 0.12210(12)
C22_2 C 0.33584(12) 0.5398(3) 0.08817(12)
H12_2 H 0.3062 0.5751 0.0834
C23_2 C 0.35822(11) 0.5802(3) 0.06157(12)
H13_2 H 0.3444 0.6455 0.0400
C24_2 C 0.40136(11) 0.5245(3) 0.06658(12)
C25_2 C 0.42327(11) 0.4330(3) 0.10028(11)
H14_2 H 0.4528 0.3975 0.1046
C26_2 C 0.40089(11) 0.3937(3) 0.12809(12)
H15_2 H 0.4156 0.3314 0.1508
C27_2 C 0.42511(11) 0.5689(3) 0.03718(11)
O1_2 O 0.02543(7) 0.32985(18) 0.04919(7)
O2_2 O 0.03984(7) 0.12039(19) 0.05531(7)
O3_2 O 0.42902(8) 0.17300(19) 0.44379(7)
O4_2 O 0.46928(8) 0.35161(19) 0.45159(7)
O5_2 O 0.42027(8) 0.6871(2) 0.02799(9)
O6_2 O 0.44632(7) 0.49074(19) 0.02397(8)
Zn1_5 Zn -0.0000 0.0000 -0.0000
Zn1_6 Zn 0.0000 0.0000 1.0000
O20_2 O 0.05368(7) 0.00926(19) 0.97603(8)
Zn1_7 Zn -0.0000 1.0000 -0.0000
O13_2 O 0.07098(8) 0.67300(19) 0.05621(7)
O15_2 O 0.03072(8) 0.85161(19) 0.04841(7)
Zn1_8 Zn 0.0000 1.0000 1.0000
Zn3_2 Zn 0.044207(12) 0.68855(3) 0.987648(13)
N5_2 N 0.07042(8) 0.5292(2) 0.97312(9)
O18_2 O 0.07973(8) 0.8129(2) 0.97201(9)
C38_2 C 0.61628(10) 0.0036(3) 0.98421(11)
H24_2 H 0.6410 0.0637 0.9927
N3_2 N 0.57042(8) 0.0292(2) 0.97312(9)
C28_2 C 0.95393(11) 0.5852(3) 0.03756(11)
H16_2 H 0.9872 0.5958 0.0472
C29_2 C 0.92212(11) 0.6791(3) 0.03192(12)
H17_2 H 0.9290 0.7653 0.0362
C30_2 C 0.88372(10) 0.4964(3) 0.01579(11)
H18_2 H 0.8590 0.4363 0.0073
C31_2 C 0.83210(10) 0.6851(3) 0.00865(11)
C32_2 C 0.79919(11) 0.6280(3) 0.02014(11)
H19_2 H 0.8059 0.5485 0.0342
C33_2 C 0.75465(11) 0.6891(3) 0.01077(11)
N1_2 N 0.92958(8) 0.4708(2) 0.02688(9)
N2_2 N 0.87753(8) 0.6227(2) 0.01855(9)
Zn1_9 Zn 1.0000 0.0000 -0.0000
Zn2_2 Zn 0.955793(12) 0.31145(3) 0.012352(13)
C42_2 C 0.71925(12) 0.6339(3) 0.02190(12)
H26_2 H 0.7248 0.5540 0.0357
C43_2 C 0.67632(11) 0.6968(3) 0.01256(12)
H27_2 H 0.6533 0.6603 0.0204
O17_2 O 0.92027(8) 0.1871(2) 0.02799(9)
C34_2 C 0.78075(12) 0.8661(3) 0.97810(12)
H20_2 H 0.7752 0.9460 0.9643
C35_2 C 0.82368(11) 0.8032(3) 0.98744(12)
H21_2 H 0.8467 0.8397 0.9796
Zn1_10 Zn 1.0000 0.0000 1.0000
C36_2 C 0.54607(11) 0.9148(3) 0.96244(11)
H22_2 H 0.5128 0.9042 0.9528
C37_2 C 0.57788(11) 0.8209(3) 0.96808(12)
H23_2 H 0.5710 0.7347 0.9638
C39_2 C 0.66790(10) 0.8149(3) 0.99135(11)
C40_2 C 0.70081(11) 0.8720(3) 0.97986(11)
H25_2 H 0.6941 0.9515 0.9658
C41_2 C 0.74535(11) 0.8109(3) 0.98923(11)
N4_2 N 0.62247(8) 0.8773(2) 0.98145(9)
O14_2 O 0.92902(8) 0.32700(19) 0.94379(7)
O16_2 O 0.96928(8) 0.14839(19) 0.95159(7)
Zn1_11 Zn 1.0000 1.0000 -0.0000
O19_2 O 0.94632(7) 0.99074(19) 0.02397(8)
Zn1_12 Zn 1.0000 1.0000 1.0000
C44_2 C 0.94652(10) 0.7668(3) 0.93807(10)
C45_2 C 0.89314(10) 0.7406(3) 0.91172(11)
C46_2 C 0.86088(10) 0.8372(3) 0.88678(11)
H28_2 H 0.8728 0.9175 0.8856
C47_2 C 0.81149(11) 0.8143(3) 0.86382(12)
H29_2 H 0.7903 0.8781 0.8461
C48_2 C 0.79290(11) 0.6946(3) 0.86703(11)
C49_2 C 0.82515(11) 0.6003(3) 0.89216(11)
H30_2 H 0.8131 0.5213 0.8947
C50_2 C 0.87483(11) 0.6205(3) 0.91356(11)
H31_2 H 0.8961 0.5545 0.9291
C51_2 C 0.73916(11) 0.6721(3) 0.84387(12)
C52_2 C 0.71167(11) 0.6974(3) 0.79693(12)
H32_2 H 0.7264 0.7344 0.7800
C53_2 C 0.66162(12) 0.6683(3) 0.77386(11)
C54_2 C 0.64027(12) 0.6187(3) 0.80103(12)
H33_2 H 0.6072 0.5985 0.7865
C55_2 C 0.66675(11) 0.5986(3) 0.84893(12)
C56_2 C 0.71688(11) 0.6221(3) 0.86988(11)
H34_2 H 0.7356 0.6041 0.9016
C57_2 C 0.63330(11) 0.6882(3) 0.72322(11)
C58_2 C 0.60068(11) 0.5967(3) 0.69484(12)
H35_2 H 0.5951 0.5246 0.7085
C59_2 C 0.57670(11) 0.6117(3) 0.64687(12)
H36_2 H 0.5550 0.5497 0.6284
C60_2 C 0.58453(10) 0.7184(3) 0.62580(11)
C61_2 C 0.61629(12) 0.8106(3) 0.65345(12)
H37_2 H 0.6214 0.8828 0.6395
C62_2 C 0.64060(12) 0.7968(3) 0.70162(12)
H38_2 H 0.6619 0.8596 0.7199
C63_2 C 0.56036(11) 0.7307(3) 0.57350(11)
C64_2 C 0.64278(11) 0.5536(3) 0.87790(12)
C65_2 C 0.66416(12) 0.4602(3) 0.91183(12)
H39_2 H 0.6938 0.4249 0.9166
C66_2 C 0.64178(11) 0.4198(3) 0.93843(12)
H40_2 H 0.6556 0.3545 0.9600
C67_2 C 0.59864(11) 0.4755(3) 0.93342(12)
C68_2 C 0.57673(11) 0.5670(3) 0.89972(11)
H41_2 H 0.5472 0.6025 0.8954
C69_2 C 0.59911(11) 0.6063(3) 0.87191(12)
H42_2 H 0.5844 0.6686 0.8492
C70_2 C 0.57489(11) 0.4311(3) 0.96282(11)
O7_2 O 0.97457(7) 0.67015(18) 0.95081(7)
O8_2 O 0.96016(7) 0.87961(19) 0.94469(7)
O9_2 O 0.57098(8) 0.82700(19) 0.55621(7)
O10_2 O 0.53072(8) 0.64839(19) 0.54841(7)
O11_2 O 0.57973(8) 0.3129(2) 0.97201(9)
O12_2 O 0.55368(7) 0.50926(19) 0.97603(8)
C22_3 C 0.16416(12) 0.0398(3) 0.41183(12)
H12_3 H 0.1938 0.0751 0.4166
C23_3 C 0.14178(11) 0.0802(3) 0.43843(12)
H13_3 H 0.1556 0.1455 0.4600
C24_3 C 0.09864(11) 0.0245(3) 0.43342(12)
C27_3 C 0.07489(11) 0.0689(3) 0.46282(11)
C28_3 C 0.54607(11) 0.0852(3) 0.46244(11)
H16_3 H 0.5128 0.0958 0.4528
C29_3 C 0.57788(11) 0.1791(3) 0.46808(12)
H17_3 H 0.5710 0.2653 0.4638
C31_3 C 0.66790(10) 0.1851(3) 0.49135(11)
C32_3 C 0.70081(11) 0.1280(3) 0.47986(11)
H19_3 H 0.6941 0.0485 0.4658
C33_3 C 0.74535(11) 0.1891(3) 0.48923(11)
C34_3 C 0.71925(12) 0.3661(3) 0.52190(12)
H20_3 H 0.7248 0.4460 0.5357
C35_3 C 0.67632(11) 0.3032(3) 0.51256(12)
H21_3 H 0.6533 0.3397 0.5204
N2_3 N 0.62247(8) 0.1227(2) 0.48145(9)
C36_3 C 0.95393(11) 0.4148(3) 0.53756(11)
H22_3 H 0.9872 0.4042 0.5472
C37_3 C 0.92212(11) 0.3209(3) 0.53192(12)
H23_3 H 0.9290 0.2347 0.5362
C38_3 C 0.88372(10) 0.5036(3) 0.51579(11)
H24_3 H 0.8590 0.5637 0.5073
C39_3 C 0.83210(10) 0.3149(3) 0.50865(11)
C40_3 C 0.79919(11) 0.3720(3) 0.52014(11)
H25_3 H 0.8059 0.4515 0.5342
C41_3 C 0.75465(11) 0.3109(3) 0.51077(11)
C42_3 C 0.78075(12) 0.1339(3) 0.47810(12)
H26_3 H 0.7752 0.0540 0.4643
C43_3 C 0.82368(11) 0.1968(3) 0.48744(12)
H27_3 H 0.8467 0.1603 0.4796
N4_3 N 0.87753(8) 0.3773(2) 0.51855(9)
C1_3 C 0.44652(10) 0.7332(3) 0.43807(10)
C2_3 C 0.39314(10) 0.7594(3) 0.41172(11)
C3_3 C 0.36088(10) 0.6628(3) 0.38678(11)
H1_3 H 0.3728 0.5825 0.3856
C4_3 C 0.31149(11) 0.6857(3) 0.36382(12)
H2_3 H 0.2903 0.6219 0.3461
C5_3 C 0.29290(11) 0.8054(3) 0.36703(11)
C6_3 C 0.32515(11) 0.8997(3) 0.39216(11)
H3_3 H 0.3131 0.9787 0.3947
C7_3 C 0.37483(11) 0.8795(3) 0.41356(11)
H4_3 H 0.3961 0.9455 0.4291
C8_3 C 0.23916(11) 0.8279(3) 0.34387(12)
C9_3 C 0.21167(11) 0.8026(3) 0.29693(12)
H5_3 H 0.2264 0.7656 0.2800
C10_3 C 0.16162(12) 0.8317(3) 0.27386(11)
C11_3 C 0.14027(12) 0.8813(3) 0.30103(12)
H6_3 H 0.1072 0.9015 0.2865
C12_3 C 0.16675(11) 0.9014(3) 0.34893(12)
C13_3 C 0.21688(11) 0.8779(3) 0.36988(11)
H7_3 H 0.2356 0.8959 0.4016
C14_3 C 0.13330(11) 0.8118(3) 0.22322(11)
C15_3 C 0.10068(11) 0.9033(3) 0.19484(12)
H8_3 H 0.0951 0.9754 0.2085
C16_3 C 0.07670(11) 0.8883(3) 0.14687(12)
H9_3 H 0.0550 0.9503 0.1284
C17_3 C 0.08453(10) 0.7816(3) 0.12580(11)
C18_3 C 0.11629(12) 0.6894(3) 0.15345(12)
H10_3 H 0.1214 0.6172 0.1395
C19_3 C 0.14060(12) 0.7032(3) 0.20162(12)
H11_3 H 0.1619 0.6404 0.2199
C20_3 C 0.06036(11) 0.7693(3) 0.07350(11)
C21_3 C 0.14278(11) 0.9464(3) 0.37790(12)
C25_3 C 0.07673(11) 0.9330(3) 0.39972(11)
H14_3 H 0.0472 0.8975 0.3954
C26_3 C 0.09911(11) 0.8937(3) 0.37191(12)
H15_3 H 0.0844 0.8314 0.3492
C30_3 C 0.61628(10) 0.9964(3) 0.48421(11)
H18_3 H 0.6410 0.9363 0.4927
N1_3 N 0.57042(8) 0.9708(2) 0.47312(9)
O1_3 O 0.47457(7) 0.82985(18) 0.45081(7)
O2_3 O 0.46016(7) 0.62039(19) 0.44469(7)
C44_3 C 0.55348(10) 0.2668(3) 0.56193(10)
C45_3 C 0.60686(10) 0.2406(3) 0.58828(11)
C46_3 C 0.63912(10) 0.3372(3) 0.61322(11)
H28_3 H 0.6272 0.4175 0.6144
C47_3 C 0.68851(11) 0.3143(3) 0.63618(12)
H29_3 H 0.7097 0.3781 0.6539
C48_3 C 0.70710(11) 0.1946(3) 0.63297(11)
C49_3 C 0.67485(11) 0.1003(3) 0.60784(11)
H30_3 H 0.6869 0.0213 0.6053
C50_3 C 0.62517(11) 0.1205(3) 0.58644(11)
H31_3 H 0.6039 0.0545 0.5709
C51_3 C 0.76084(11) 0.1721(3) 0.65613(12)
C52_3 C 0.78833(11) 0.1974(3) 0.70307(12)
H32_3 H 0.7736 0.2344 0.7200
C53_3 C 0.83838(12) 0.1683(3) 0.72614(11)
C54_3 C 0.85973(12) 0.1187(3) 0.69897(12)
H33_3 H 0.8928 0.0985 0.7135
C55_3 C 0.83325(11) 0.0986(3) 0.65107(12)
C56_3 C 0.78312(11) 0.1221(3) 0.63012(11)
H34_3 H 0.7644 0.1041 0.5984
C57_3 C 0.86670(11) 0.1882(3) 0.77678(11)
C58_3 C 0.89932(11) 0.0967(3) 0.80516(12)
H35_3 H 0.9049 0.0246 0.7915
C59_3 C 0.92330(11) 0.1117(3) 0.85313(12)
H36_3 H 0.9450 0.0497 0.8716
C60_3 C 0.91547(10) 0.2184(3) 0.87420(11)
C61_3 C 0.88371(12) 0.3106(3) 0.84655(12)
H37_3 H 0.8786 0.3828 0.8605
C62_3 C 0.85940(12) 0.2968(3) 0.79838(12)
H38_3 H 0.8381 0.3596 0.7801
C63_3 C 0.93964(11) 0.2307(3) 0.92650(11)
C64_3 C 0.85722(11) 0.0536(3) 0.62210(12)
C68_3 C 0.92327(11) 0.0670(3) 0.60028(11)
H41_3 H 0.9528 0.1025 0.6046
C69_3 C 0.90089(11) 0.1063(3) 0.62809(12)
H42_3 H 0.9156 0.1686 0.6508
O7_3 O 0.52543(7) 0.17015(18) 0.54919(7)
O8_3 O 0.53984(7) 0.37961(19) 0.55531(7)
C65_3 C 0.83584(12) 0.9602(3) 0.58817(12)
H39_3 H 0.8062 0.9249 0.5834
C66_3 C 0.85822(11) 0.9198(3) 0.56157(12)
H40_3 H 0.8444 0.8545 0.5400
C67_3 C 0.90136(11) 0.9755(3) 0.56658(12)
C70_3 C 0.92511(11) 0.9311(3) 0.53718(11)
C22_4 C 0.83584(12) 0.0398(3) 0.08817(12)
H12_4 H 0.8062 0.0751 0.0834
C23_4 C 0.85822(11) 0.0802(3) 0.06157(12)
H13_4 H 0.8444 0.1455 0.0400
C24_4 C 0.90136(11) 0.0245(3) 0.06658(12)
C27_4 C 0.92511(11) 0.0689(3) 0.03718(11)
C28_4 C 0.45393(11) 0.0852(3) 0.03756(11)
H16_4 H 0.4872 0.0958 0.0472
C29_4 C 0.42212(11) 0.1791(3) 0.03192(12)
H17_4 H 0.4290 0.2653 0.0362
C31_4 C 0.33210(10) 0.1851(3) 0.00865(11)
C32_4 C 0.29919(11) 0.1280(3) 0.02014(11)
H19_4 H 0.3059 0.0485 0.0342
C33_4 C 0.25465(11) 0.1891(3) 0.01077(11)
N2_4 N 0.37753(8) 0.1227(2) 0.01855(9)
C42_4 C 0.21925(12) 0.1339(3) 0.02190(12)
H26_4 H 0.2248 0.0540 0.0357
C43_4 C 0.17632(11) 0.1968(3) 0.01256(12)
H27_4 H 0.1533 0.1603 0.0204
C34_4 C 0.28075(12) 0.3661(3) 0.97810(12)
H20_4 H 0.2752 0.4460 0.9643
C35_4 C 0.32368(11) 0.3032(3) 0.98744(12)
H21_4 H 0.3467 0.3397 0.9796
C36_4 C 0.04607(11) 0.4148(3) 0.96244(11)
H22_4 H 0.0128 0.4042 0.9528
C37_4 C 0.07788(11) 0.3209(3) 0.96808(12)
H23_4 H 0.0710 0.2347 0.9638
C38_4 C 0.11628(10) 0.5036(3) 0.98421(11)
H24_4 H 0.1410 0.5637 0.9927
C39_4 C 0.16790(10) 0.3149(3) 0.99135(11)
C40_4 C 0.20081(11) 0.3720(3) 0.97986(11)
H25_4 H 0.1941 0.4515 0.9658
C41_4 C 0.24535(11) 0.3109(3) 0.98923(11)
N4_4 N 0.12247(8) 0.3773(2) 0.98145(9)
C1_4 C 0.55348(10) 0.7332(3) 0.06193(10)
C2_4 C 0.60686(10) 0.7594(3) 0.08828(11)
C3_4 C 0.63912(10) 0.6628(3) 0.11322(11)
H1_4 H 0.6272 0.5825 0.1144
C4_4 C 0.68851(11) 0.6857(3) 0.13618(12)
H2_4 H 0.7097 0.6219 0.1539
C5_4 C 0.70710(11) 0.8054(3) 0.13297(11)
C6_4 C 0.67485(11) 0.8997(3) 0.10784(11)
H3_4 H 0.6869 0.9787 0.1053
C7_4 C 0.62517(11) 0.8795(3) 0.08644(11)
H4_4 H 0.6039 0.9455 0.0709
C8_4 C 0.76084(11) 0.8279(3) 0.15613(12)
C9_4 C 0.78833(11) 0.8026(3) 0.20307(12)
H5_4 H 0.7736 0.7656 0.2200
C10_4 C 0.83838(12) 0.8317(3) 0.22614(11)
C11_4 C 0.85973(12) 0.8813(3) 0.19897(12)
H6_4 H 0.8928 0.9015 0.2135
C12_4 C 0.83325(11) 0.9014(3) 0.15107(12)
C13_4 C 0.78312(11) 0.8779(3) 0.13012(11)
H7_4 H 0.7644 0.8959 0.0984
C14_4 C 0.86670(11) 0.8118(3) 0.27678(11)
C15_4 C 0.89932(11) 0.9033(3) 0.30516(12)
H8_4 H 0.9049 0.9754 0.2915
C16_4 C 0.92330(11) 0.8883(3) 0.35313(12)
H9_4 H 0.9450 0.9503 0.3716
C17_4 C 0.91547(10) 0.7816(3) 0.37420(11)
C18_4 C 0.88371(12) 0.6894(3) 0.34655(12)
H10_4 H 0.8786 0.6172 0.3605
C19_4 C 0.85940(12) 0.7032(3) 0.29838(12)
H11_4 H 0.8381 0.6404 0.2801
C20_4 C 0.93964(11) 0.7693(3) 0.42650(11)
C21_4 C 0.85722(11) 0.9464(3) 0.12210(12)
C25_4 C 0.92327(11) 0.9330(3) 0.10028(11)
H14_4 H 0.9528 0.8975 0.1046
C26_4 C 0.90089(11) 0.8937(3) 0.12809(12)
H15_4 H 0.9156 0.8314 0.1508
C30_4 C 0.38372(10) 0.9964(3) 0.01579(11)
H18_4 H 0.3590 0.9363 0.0073
N1_4 N 0.42958(8) 0.9708(2) 0.02688(9)
O1_4 O 0.52543(7) 0.82985(18) 0.04919(7)
O2_4 O 0.53984(7) 0.62039(19) 0.05531(7)
C44_4 C 0.44652(10) 0.2668(3) 0.93807(10)
C45_4 C 0.39314(10) 0.2406(3) 0.91172(11)
C46_4 C 0.36088(10) 0.3372(3) 0.88678(11)
H28_4 H 0.3728 0.4175 0.8856
C47_4 C 0.31149(11) 0.3143(3) 0.86382(12)
H29_4 H 0.2903 0.3781 0.8461
C48_4 C 0.29290(11) 0.1946(3) 0.86703(11)
C49_4 C 0.32515(11) 0.1003(3) 0.89216(11)
H30_4 H 0.3131 0.0213 0.8947
C50_4 C 0.37483(11) 0.1205(3) 0.91356(11)
H31_4 H 0.3961 0.0545 0.9291
C51_4 C 0.23916(11) 0.1721(3) 0.84387(12)
C52_4 C 0.21167(11) 0.1974(3) 0.79693(12)
H32_4 H 0.2264 0.2344 0.7800
C53_4 C 0.16162(12) 0.1683(3) 0.77386(11)
C54_4 C 0.14027(12) 0.1187(3) 0.80103(12)
H33_4 H 0.1072 0.0985 0.7865
C55_4 C 0.16675(11) 0.0986(3) 0.84893(12)
C56_4 C 0.21688(11) 0.1221(3) 0.86988(11)
H34_4 H 0.2356 0.1041 0.9016
C57_4 C 0.13330(11) 0.1882(3) 0.72322(11)
C58_4 C 0.10068(11) 0.0967(3) 0.69484(12)
H35_4 H 0.0951 0.0246 0.7085
C59_4 C 0.07670(11) 0.1117(3) 0.64687(12)
H36_4 H 0.0550 0.0497 0.6284
C60_4 C 0.08453(10) 0.2184(3) 0.62580(11)
C61_4 C 0.11629(12) 0.3106(3) 0.65345(12)
H37_4 H 0.1214 0.3828 0.6395
C62_4 C 0.14060(12) 0.2968(3) 0.70162(12)
H38_4 H 0.1619 0.3596 0.7199
C63_4 C 0.06036(11) 0.2307(3) 0.57350(11)
C64_4 C 0.14278(11) 0.0536(3) 0.87790(12)
C68_4 C 0.07673(11) 0.0670(3) 0.89972(11)
H41_4 H 0.0472 0.1025 0.8954
C69_4 C 0.09911(11) 0.1063(3) 0.87191(12)
H42_4 H 0.0844 0.1686 0.8492
O7_4 O 0.47457(7) 0.17015(18) 0.95081(7)
O8_4 O 0.46016(7) 0.37961(19) 0.94469(7)
C65_4 C 0.16416(12) 0.9602(3) 0.91183(12)
H39_4 H 0.1938 0.9249 0.9166
C66_4 C 0.14178(11) 0.9198(3) 0.93843(12)
H40_4 H 0.1556 0.8545 0.9600
C67_4 C 0.09864(11) 0.9755(3) 0.93342(12)
C70_4 C 0.07489(11) 0.9311(3) 0.96282(11)
loop_
_geom_bond_atom_site_label_1
_geom_bond_atom_site_label_2
_geom_bond_site_symmetry_1
_geom_bond_site_symmetry_2
C38 H24 1_555 1_555
Zn11 N3 1_555 1_555
C38 N3 1_555 1_555
C28 H16 1_555 1_555
C29 C28 1_555 1_555
H17 C29 1_555 1_555
C30 H18 1_555 1_555
C31 C32 1_555 1_555
C32 H19 1_555 1_555
C33 C32 1_555 1_555
C34 H20 1_555 1_555
C35 C31 1_555 1_555
H21 C35 1_555 1_555
N1 C28 1_555 1_555
N2 C29 1_555 1_555
Zn2 N1 1_555 1_555
C36 H22 1_555 1_555
C37 C36 1_555 1_555
H23 C37 1_555 1_555
C39 C40 1_555 1_555
C40 H25 1_555 1_555
C41 C33 1_555 1_555
C42 C33 1_555 1_555
H26 C42 1_555 1_555
C43 C39 1_555 1_555
H27 C43 1_555 1_555
N4 C37 1_555 1_555
O14 Zn2 1_555 1_555
O16 Zn1 1_555 1_555
O17 Zn2 1_555 1_555
C30 N1 1_555 1_555
C30 N2 1_555 1_555
C31 N2 1_555 1_555
C34 C35 1_555 1_555
C34 C41 1_555 1_555
C39 N4 1_555 1_555
C40 C41 1_555 1_555
C42 C43 1_555 1_555
C44 C45 1_555 1_555
C45 C46 1_555 1_555
C46 H28 1_555 1_555
C47 C46 1_555 1_555
H29 C47 1_555 1_555
C48 C47 1_555 1_555
C49 C48 1_555 1_555
H30 C49 1_555 1_555
C50 C45 1_555 1_555
H31 C50 1_555 1_555
C51 C48 1_555 1_555
C52 C51 1_555 1_555
H32 C52 1_555 1_555
C53 C52 1_555 1_555
C54 C53 1_555 1_555
H33 C54 1_555 1_555
C55 C54 1_555 1_555
C56 C51 1_555 1_555
H34 C56 1_555 1_555
C57 C53 1_555 1_555
C58 C57 1_555 1_555
H35 C58 1_555 1_555
C59 C58 1_555 1_555
H36 C59 1_555 1_555
C60 C59 1_555 1_555
C61 C60 1_555 1_555
H37 C61 1_555 1_555
C62 C57 1_555 1_555
H38 C62 1_555 1_555
C63 C60 1_555 1_555
C64 C55 1_555 1_555
C65 C64 1_555 1_555
H39 C65 1_555 1_555
C66 C65 1_555 1_555
H40 C66 1_555 1_555
C67 C66 1_555 1_555
C68 C67 1_555 1_555
H41 C68 1_555 1_555
C69 C64 1_555 1_555
H42 C69 1_555 1_555
C70 C67 1_555 1_555
O7 C44 1_555 1_555
O8 Zn1_2 1_555 1_555
O9 C63 1_555 1_555
O10 C63 1_555 1_555
O11 C70 1_555 1_555
O12 C70 1_555 1_555
O19 Zn1_2 1_555 1_555
Zn5 O12 1_555 1_555
Zn7_2 O10 1_555 1_555
Zn11 O11 1_555 1_555
C44 O8 1_555 1_555
C49 C50 1_555 1_555
C55 C56 1_555 1_555
C61 C62 1_555 1_555
C68 C69 1_555 1_555
C1 C2 1_555 1_555
C2 C3 1_555 1_555
C3 H1 1_555 1_555
C4 C3 1_555 1_555
H2 C4 1_555 1_555
C5 C4 1_555 1_555
C6 C5 1_555 1_555
H3 C6 1_555 1_555
C7 C2 1_555 1_555
H4 C7 1_555 1_555
C8 C5 1_555 1_555
C9 C8 1_555 1_555
H5 C9 1_555 1_555
C10 C9 1_555 1_555
C11 C10 1_555 1_555
H6 C11 1_555 1_555
C12 C11 1_555 1_555
C13 C8 1_555 1_555
H7 C13 1_555 1_555
C14 C10 1_555 1_555
C15 C14 1_555 1_555
H8 C15 1_555 1_555
C16 C15 1_555 1_555
H9 C16 1_555 1_555
C17 C16 1_555 1_555
C18 C17 1_555 1_555
H10 C18 1_555 1_555
C19 C14 1_555 1_555
H11 C19 1_555 1_555
C20 C17 1_555 1_555
C21 C12 1_555 1_555
C22 C21 1_555 1_555
H12 C22 1_555 1_555
C23 C22 1_555 1_555
H13 C23 1_555 1_555
C24 C23 1_555 1_555
C25 C24 1_555 1_555
H14 C25 1_555 1_555
C26 C21 1_555 1_555
H15 C26 1_555 1_555
C27 C24 1_555 1_555
O1 C1 1_555 1_555
O2 C1 1_555 1_555
O3 C20 1_555 1_555
O4 C20 1_555 1_555
O5 C27 1_555 1_555
O6 C27 1_555 1_555
Zn1_3 O2 1_555 1_555
O20 Zn1_3 1_555 1_555
Zn5 O6 1_555 1_555
Zn7 O4 1_555 1_555
Zn8 O5 1_555 1_555
C6 C7 1_555 1_555
C12 C13 1_555 1_555
C18 C19 1_555 1_555
C25 C26 1_555 1_555
N5 Zn3 1_555 1_555
O13 Zn3 1_555 1_555
O15 Zn1_4 1_555 1_555
O18 Zn3 1_555 1_555
C1_2 C2_2 1_555 1_555
C2_2 C3_2 1_555 1_555
C3_2 H1_2 1_555 1_555
C4_2 C3_2 1_555 1_555
H2_2 C4_2 1_555 1_555
C5_2 C4_2 1_555 1_555
C6_2 C5_2 1_555 1_555
H3_2 C6_2 1_555 1_555
C7_2 C2_2 1_555 1_555
H4_2 C7_2 1_555 1_555
C8_2 C5_2 1_555 1_555
C9_2 C8_2 1_555 1_555
H5_2 C9_2 1_555 1_555
C10_2 C9_2 1_555 1_555
C11_2 C10_2 1_555 1_555
H6_2 C11_2 1_555 1_555
C12_2 C11_2 1_555 1_555
C13_2 C8_2 1_555 1_555
H7_2 C13_2 1_555 1_555
C14_2 C10_2 1_555 1_555
C15_2 C14_2 1_555 1_555
H8_2 C15_2 1_555 1_555
C16_2 C15_2 1_555 1_555
H9_2 C16_2 1_555 1_555
C17_2 C16_2 1_555 1_555
C18_2 C17_2 1_555 1_555
H10_2 C18_2 1_555 1_555
C19_2 C14_2 1_555 1_555
H11_2 C19_2 1_555 1_555
C20_2 C17_2 1_555 1_555
C21_2 C12_2 1_555 1_555
C22_2 C21_2 1_555 1_555
H12_2 C22_2 1_555 1_555
C23_2 C22_2 1_555 1_555
H13_2 C23_2 1_555 1_555
C24_2 C23_2 1_555 1_555
C25_2 C24_2 1_555 1_555
H14_2 C25_2 1_555 1_555
C26_2 C21_2 1_555 1_555
H15_2 C26_2 1_555 1_555
C27_2 C24_2 1_555 1_555
O1_2 C1_2 1_555 1_555
O2_2 C1_2 1_555 1_555
O3_2 C20_2 1_555 1_555
O4_2 C20_2 1_555 1_555
O5_2 C27_2 1_555 1_555
O6_2 C27_2 1_555 1_555
Zn1_5 O2_2 1_555 1_555
Zn7 O6_2 1_555 1_555
Zn5 O4_2 1_555 1_555
Zn9 O5_2 1_555 1_555
Zn11 O3_2 1_555 1_555
C6_2 C7_2 1_555 1_555
C12_2 C13_2 1_555 1_555
C18_2 C19_2 1_555 1_555
C25_2 C26_2 1_555 1_555
O20_2 Zn1_6 1_555 1_555
O15_2 Zn1_7 1_555 1_555
N5_2 Zn3_2 1_555 1_555
O18_2 Zn3_2 1_555 1_555
C38_2 H24_2 1_555 1_555
Zn12 N3_2 1_555 1_555
C38_2 N3_2 1_555 1_555
C28_2 H16_2 1_555 1_555
C29_2 C28_2 1_555 1_555
H17_2 C29_2 1_555 1_555
C30_2 H18_2 1_555 1_555
C31_2 C32_2 1_555 1_555
C32_2 H19_2 1_555 1_555
C33_2 C32_2 1_555 1_555
N1_2 C28_2 1_555 1_555
N2_2 C29_2 1_555 1_555
Zn2_2 N1_2 1_555 1_555
C42_2 C33_2 1_555 1_555
H26_2 C42_2 1_555 1_555
H27_2 C43_2 1_555 1_555
O17_2 Zn2_2 1_555 1_555
C30_2 N1_2 1_555 1_555
C30_2 N2_2 1_555 1_555
C31_2 N2_2 1_555 1_555
C42_2 C43_2 1_555 1_555
C34_2 H20_2 1_555 1_555
H21_2 C35_2 1_555 1_555
C36_2 H22_2 1_555 1_555
C37_2 C36_2 1_555 1_555
H23_2 C37_2 1_555 1_555
C39_2 C40_2 1_555 1_555
C40_2 H25_2 1_555 1_555
N4_2 C37_2 1_555 1_555
O16_2 Zn1_10 1_555 1_555
C34_2 C35_2 1_555 1_555
C34_2 C41_2 1_555 1_555
C39_2 N4_2 1_555 1_555
C40_2 C41_2 1_555 1_555
O19_2 Zn1_11 1_555 1_555
C44_2 C45_2 1_555 1_555
C45_2 C46_2 1_555 1_555
C46_2 H28_2 1_555 1_555
C47_2 C46_2 1_555 1_555
H29_2 C47_2 1_555 1_555
C48_2 C47_2 1_555 1_555
C49_2 C48_2 1_555 1_555
H30_2 C49_2 1_555 1_555
C50_2 C45_2 1_555 1_555
H31_2 C50_2 1_555 1_555
C51_2 C48_2 1_555 1_555
C52_2 C51_2 1_555 1_555
H32_2 C52_2 1_555 1_555
C53_2 C52_2 1_555 1_555
C54_2 C53_2 1_555 1_555
H33_2 C54_2 1_555 1_555
C55_2 C54_2 1_555 1_555
C56_2 C51_2 1_555 1_555
H34_2 C56_2 1_555 1_555
C57_2 C53_2 1_555 1_555
C58_2 C57_2 1_555 1_555
H35_2 C58_2 1_555 1_555
C59_2 C58_2 1_555 1_555
H36_2 C59_2 1_555 1_555
C60_2 C59_2 1_555 1_555
C61_2 C60_2 1_555 1_555
H37_2 C61_2 1_555 1_555
C62_2 C57_2 1_555 1_555
H38_2 C62_2 1_555 1_555
C63_2 C60_2 1_555 1_555
C64_2 C55_2 1_555 1_555
C65_2 C64_2 1_555 1_555
H39_2 C65_2 1_555 1_555
C66_2 C65_2 1_555 1_555
H40_2 C66_2 1_555 1_555
C67_2 C66_2 1_555 1_555
C68_2 C67_2 1_555 1_555
H41_2 C68_2 1_555 1_555
C69_2 C64_2 1_555 1_555
H42_2 C69_2 1_555 1_555
C70_2 C67_2 1_555 1_555
O7_2 C44_2 1_555 1_555
O8_2 Zn1_12 1_555 1_555
O9_2 C63_2 1_555 1_555
O10_2 C63_2 1_555 1_555
O11_2 C70_2 1_555 1_555
O12_2 C70_2 1_555 1_555
Zn7_2 O12_2 1_555 1_555
Zn5 O10_2 1_555 1_555
Zn8 O9_2 1_555 1_555
Zn12 O11_2 1_555 1_555
C44_2 O8_2 1_555 1_555
C49_2 C50_2 1_555 1_555
C55_2 C56_2 1_555 1_555
C61_2 C62_2 1_555 1_555
C68_2 C69_2 1_555 1_555
H12_3 C22_3 1_555 1_555
C23_3 C22_3 1_555 1_555
H13_3 C23_3 1_555 1_555
C24_3 C23_3 1_555 1_555
C27_3 C24_3 1_555 1_555
C28_3 H16_3 1_555 1_555
C29_3 C28_3 1_555 1_555
H17_3 C29_3 1_555 1_555
C31_3 C32_3 1_555 1_555
C32_3 H19_3 1_555 1_555
C33_3 C32_3 1_555 1_555
C34_3 H20_3 1_555 1_555
C35_3 C31_3 1_555 1_555
H21_3 C35_3 1_555 1_555
N2_3 C29_3 1_555 1_555
O17 C27_3 1_555 1_555
C36_3 H22_3 1_555 1_555
C37_3 C36_3 1_555 1_555
H23_3 C37_3 1_555 1_555
C38_3 H24_3 1_555 1_555
C39_3 C40_3 1_555 1_555
C40_3 H25_3 1_555 1_555
C41_3 C33_3 1_555 1_555
C42_3 C33_3 1_555 1_555
H26_3 C42_3 1_555 1_555
C43_3 C39_3 1_555 1_555
H27_3 C43_3 1_555 1_555
N5 C36_3 1_555 1_555
N4_3 C37_3 1_555 1_555
C31_3 N2_3 1_555 1_555
C34_3 C35_3 1_555 1_555
C34_3 C41_3 1_555 1_555
C38_3 N5 1_555 1_555
C38_3 N4_3 1_555 1_555
C39_3 N4_3 1_555 1_555
C40_3 C41_3 1_555 1_555
C42_3 C43_3 1_555 1_555
C1_3 C2_3 1_555 1_555
C2_3 C3_3 1_555 1_555
C3_3 H1_3 1_555 1_555
C4_3 C3_3 1_555 1_555
H2_3 C4_3 1_555 1_555
C5_3 C4_3 1_555 1_555
C6_3 C5_3 1_555 1_555
H3_3 C6_3 1_555 1_555
C7_3 C2_3 1_555 1_555
H4_3 C7_3 1_555 1_555
C8_3 C5_3 1_555 1_555
C9_3 C8_3 1_555 1_555
H5_3 C9_3 1_555 1_555
C10_3 C9_3 1_555 1_555
C11_3 C10_3 1_555 1_555
H6_3 C11_3 1_555 1_555
C12_3 C11_3 1_555 1_555
C13_3 C8_3 1_555 1_555
H7_3 C13_3 1_555 1_555
C14_3 C10_3 1_555 1_555
C15_3 C14_3 1_555 1_555
H8_3 C15_3 1_555 1_555
C16_3 C15_3 1_555 1_555
H9_3 C16_3 1_555 1_555
C17_3 C16_3 1_555 1_555
C18_3 C17_3 1_555 1_555
H10_3 C18_3 1_555 1_555
C19_3 C14_3 1_555 1_555
H11_3 C19_3 1_555 1_555
C20_3 C17_3 1_555 1_555
C21_3 C12_3 1_555 1_555
H14_3 C25_3 1_555 1_555
C26_3 C21_3 1_555 1_555
H15_3 C26_3 1_555 1_555
C30_3 H18_3 1_555 1_555
O1_3 C1_3 1_555 1_555
O2_3 C1_3 1_555 1_555
O13_2 C20_3 1_555 1_555
O15_2 C20_3 1_555 1_555
Zn5 O2_3 1_555 1_555
Zn8 N1_3 1_555 1_555
C44_3 C45_3 1_555 1_555
C45_3 C46_3 1_555 1_555
C46_3 H28_3 1_555 1_555
C47_3 C46_3 1_555 1_555
H29_3 C47_3 1_555 1_555
C48_3 C47_3 1_555 1_555
C49_3 C48_3 1_555 1_555
H30_3 C49_3 1_555 1_555
C50_3 C45_3 1_555 1_555
H31_3 C50_3 1_555 1_555
C51_3 C48_3 1_555 1_555
C52_3 C51_3 1_555 1_555
H32_3 C52_3 1_555 1_555
C53_3 C52_3 1_555 1_555
C54_3 C53_3 1_555 1_555
H33_3 C54_3 1_555 1_555
C55_3 C54_3 1_555 1_555
C56_3 C51_3 1_555 1_555
H34_3 C56_3 1_555 1_555
C57_3 C53_3 1_555 1_555
C58_3 C57_3 1_555 1_555
H35_3 C58_3 1_555 1_555
C59_3 C58_3 1_555 1_555
H36_3 C59_3 1_555 1_555
C60_3 C59_3 1_555 1_555
C61_3 C60_3 1_555 1_555
H37_3 C61_3 1_555 1_555
C62_3 C57_3 1_555 1_555
H38_3 C62_3 1_555 1_555
C63_3 C60_3 1_555 1_555
C64_3 C55_3 1_555 1_555
H41_3 C68_3 1_555 1_555
C69_3 C64_3 1_555 1_555
H42_3 C69_3 1_555 1_555
O7_3 C44_3 1_555 1_555
O8_3 Zn5 1_555 1_555
O14_2 C63_3 1_555 1_555
O16_2 C63_3 1_555 1_555
Zn11 O7_3 1_555 1_555
C6_3 C7_3 1_555 1_555
C12_3 C13_3 1_555 1_555
C18_3 C19_3 1_555 1_555
C25_3 C26_3 1_555 1_555
C30_3 N1_3 1_555 1_555
O1_3 Zn8 1_555 1_555
C44_3 O8_3 1_555 1_555
C49_3 C50_3 1_555 1_555
C55_3 C56_3 1_555 1_555
C61_3 C62_3 1_555 1_555
C68_3 C69_3 1_555 1_555
H39_3 C65_3 1_555 1_555
C66_3 C65_3 1_555 1_555
H40_3 C66_3 1_555 1_555
C67_3 C66_3 1_555 1_555
C70_3 C67_3 1_555 1_555
O18 C70_3 1_555 1_555
H12_4 C22_4 1_555 1_555
C23_4 C22_4 1_555 1_555
H13_4 C23_4 1_555 1_555
C24_4 C23_4 1_555 1_555
C27_4 C24_4 1_555 1_555
C28_4 H16_4 1_555 1_555
C29_4 C28_4 1_555 1_555
H17_4 C29_4 1_555 1_555
C31_4 C32_4 1_555 1_555
C32_4 H19_4 1_555 1_555
C33_4 C32_4 1_555 1_555
N2_4 C29_4 1_555 1_555
O17_2 C27_4 1_555 1_555
C42_4 C33_4 1_555 1_555
H26_4 C42_4 1_555 1_555
H27_4 C43_4 1_555 1_555
C31_4 N2_4 1_555 1_555
C42_4 C43_4 1_555 1_555
C34_4 H20_4 1_555 1_555
H21_4 C35_4 1_555 1_555
C36_4 H22_4 1_555 1_555
C37_4 C36_4 1_555 1_555
H23_4 C37_4 1_555 1_555
C38_4 H24_4 1_555 1_555
C39_4 C40_4 1_555 1_555
C40_4 H25_4 1_555 1_555
N5_2 C36_4 1_555 1_555
N4_4 C37_4 1_555 1_555
C34_4 C35_4 1_555 1_555
C34_4 C41_4 1_555 1_555
C38_4 N5_2 1_555 1_555
C38_4 N4_4 1_555 1_555
C39_4 N4_4 1_555 1_555
C40_4 C41_4 1_555 1_555
C1_4 C2_4 1_555 1_555
C2_4 C3_4 1_555 1_555
C3_4 H1_4 1_555 1_555
C4_4 C3_4 1_555 1_555
H2_4 C4_4 1_555 1_555
C5_4 C4_4 1_555 1_555
C6_4 C5_4 1_555 1_555
H3_4 C6_4 1_555 1_555
C7_4 C2_4 1_555 1_555
H4_4 C7_4 1_555 1_555
C8_4 C5_4 1_555 1_555
C9_4 C8_4 1_555 1_555
H5_4 C9_4 1_555 1_555
C10_4 C9_4 1_555 1_555
C11_4 C10_4 1_555 1_555
H6_4 C11_4 1_555 1_555
C12_4 C11_4 1_555 1_555
C13_4 C8_4 1_555 1_555
H7_4 C13_4 1_555 1_555
C14_4 C10_4 1_555 1_555
C15_4 C14_4 1_555 1_555
H8_4 C15_4 1_555 1_555
C16_4 C15_4 1_555 1_555
H9_4 C16_4 1_555 1_555
C17_4 C16_4 1_555 1_555
C18_4 C17_4 1_555 1_555
H10_4 C18_4 1_555 1_555
C19_4 C14_4 1_555 1_555
H11_4 C19_4 1_555 1_555
C20_4 C17_4 1_555 1_555
C21_4 C12_4 1_555 1_555
H14_4 C25_4 1_555 1_555
C26_4 C21_4 1_555 1_555
H15_4 C26_4 1_555 1_555
C30_4 H18_4 1_555 1_555
O1_4 C1_4 1_555 1_555
O2_4 C1_4 1_555 1_555
O13 C20_4 1_555 1_555
O15 C20_4 1_555 1_555
Zn7 O2_4 1_555 1_555
Zn9 N1_4 1_555 1_555
C6_4 C7_4 1_555 1_555
C12_4 C13_4 1_555 1_555
C18_4 C19_4 1_555 1_555
C25_4 C26_4 1_555 1_555
C30_4 N1_4 1_555 1_555
O1_4 Zn9 1_555 1_555
C44_4 C45_4 1_555 1_555
C45_4 C46_4 1_555 1_555
C46_4 H28_4 1_555 1_555
C47_4 C46_4 1_555 1_555
H29_4 C47_4 1_555 1_555
C48_4 C47_4 1_555 1_555
C49_4 C48_4 1_555 1_555
H30_4 C49_4 1_555 1_555
C50_4 C45_4 1_555 1_555
H31_4 C50_4 1_555 1_555
C51_4 C48_4 1_555 1_555
C52_4 C51_4 1_555 1_555
H32_4 C52_4 1_555 1_555
C53_4 C52_4 1_555 1_555
C54_4 C53_4 1_555 1_555
H33_4 C54_4 1_555 1_555
C55_4 C54_4 1_555 1_555
C56_4 C51_4 1_555 1_555
H34_4 C56_4 1_555 1_555
C57_4 C53_4 1_555 1_555
C58_4 C57_4 1_555 1_555
H35_4 C58_4 1_555 1_555
C59_4 C58_4 1_555 1_555
H36_4 C59_4 1_555 1_555
C60_4 C59_4 1_555 1_555
C61_4 C60_4 1_555 1_555
H37_4 C61_4 1_555 1_555
C62_4 C57_4 1_555 1_555
H38_4 C62_4 1_555 1_555
C63_4 C60_4 1_555 1_555
C64_4 C55_4 1_555 1_555
H41_4 C68_4 1_555 1_555
C69_4 C64_4 1_555 1_555
H42_4 C69_4 1_555 1_555
O7_4 C44_4 1_555 1_555
O8_4 Zn7_2 1_555 1_555
O14 C63_4 1_555 1_555
O16 C63_4 1_555 1_555
Zn12 O7_4 1_555 1_555
C44_4 O8_4 1_555 1_555
C49_4 C50_4 1_555 1_555
C55_4 C56_4 1_555 1_555
C61_4 C62_4 1_555 1_555
C68_4 C69_4 1_555 1_555
H39_4 C65_4 1_555 1_555
C66_4 C65_4 1_555 1_555
H40_4 C66_4 1_555 1_555
C67_4 C66_4 1_555 1_555
C70_4 C67_4 1_555 1_555
O18_2 C70_4 1_555 1_555

#END
