
###############################################################################
#
# This file contains modified crystal structure data generated from the
# MOF subset of the Cambridge Structural Database (CSD) v543 
# hosted by the Cambridge Crystallographic Data Centre (CCDC).
#
# This work is licensed under the Creative Commons
# Attribution-NonCommercial-ShareAlike 4.0 International License.
# To view a copy of this license, visit
# http://creativecommons.org/licenses/by-nc-sa/4.0/
# or send a letter to
# Creative Commons, PO Box 1866, Mountain View, CA 94042, USA.
#
# CIF created using the CSD Python API on 29 September 2022
# The structure has been converted into the P1 space group
# The structure has a 3D framework
# The original CSD entry VERMAJ is in the monoclinic crystal system
# The framework has been calculated to contain at least 10.0% void space
# The void calculation uses a probe of radius 1.32A, grid spacing 0.4
#
###############################################################################

data_VERMAJ
_chemical_formula_moiety         '(C192 H176 Cu14 N40 O56)n'
_symmetry_cell_setting           triclinic
_symmetry_space_group_name_H-M   'P 1'
_symmetry_Int_Tables_number      1
_space_group_name_Hall           'P 1'
loop_
_symmetry_equiv_pos_site_id
_symmetry_equiv_pos_as_xyz
1 x,y,z
_cell_length_a                   23.9912(3)
_cell_length_b                   16.7220(3)
_cell_length_c                   21.1676(3)
_cell_angle_alpha                90
_cell_angle_beta                 93.6518(13)
_cell_angle_gamma                90
_cell_volume                     8474.79
loop_
_atom_site_label
_atom_site_type_symbol
_atom_site_fract_x
_atom_site_fract_y
_atom_site_fract_z
Cu1 Cu 0.24437(2) 0.18252(2) 0.46618(2)
Cu2 Cu 0.7500 0.2500 0.5000
O1 O 0.33524(8) 0.28762(13) 0.53521(10)
O2 O 0.26370(10) 0.37018(11) 0.45182(8)
O3 O 0.32572(8) 0.17488(12) 0.47938(10)
N1 N 0.28650(10) 0.49968(13) 0.17174(9)
O4 O 0.25417(10) 0.25780(10) 0.39654(8)
O5 O 0.77598(9) 0.23950(13) 0.59127(10)
N2 N 0.27249(9) 0.58000(12) 0.09048(9)
N3 N 0.67857(9) 0.20328(17) 0.52091(12)
N4 N 0.58974(10) 0.18414(17) 0.53138(13)
C1 C 0.26858(10) 0.37623(14) 0.34153(10)
N5 N 0.76415(12) 0.30475(15) 0.61579(12)
C2 C 0.25467(10) 0.56059(13) 0.14636(10)
C3 C 0.26147(9) 0.33165(13) 0.40157(10)
C4 C 0.35374(10) 0.22612(15) 0.50965(11)
C5 C 0.27343(12) 0.45964(14) 0.34241(11)
H1 H 0.2724 0.4873 0.3804
C6 C 0.27024(12) 0.33524(14) 0.28456(11)
H2 H 0.2674 0.2798 0.2842
C7 C 0.20484(11) 0.59499(15) 0.17432(11)
H3 H 0.1962 0.6462 0.1546
H4 H 0.2134 0.6043 0.2191
C8 C 0.28015(11) 0.45857(14) 0.23007(10)
C9 C 0.41576(10) 0.21465(17) 0.51666(12)
C10 C 0.27977(12) 0.50093(15) 0.28645(11)
H5 H 0.2837 0.5563 0.2867
C11 C 0.31681(14) 0.53073(17) 0.08013(13)
H6 H 0.3375 0.5321 0.0445
O6 O 0.73964(16) 0.35656(17) 0.58024(15)
C12 C 0.32594(14) 0.48004(18) 0.12927(13)
H7 H 0.3530 0.4403 0.1337
C13 C 0.53008(11) 0.1943(2) 0.52731(15)
O7 O 0.7739(2) 0.3155(2) 0.67256(15)
C14 C 0.27597(12) 0.37538(15) 0.22889(11)
H8 H 0.2771 0.3476 0.1909
C15 C 0.50664(12) 0.2574(2) 0.55874(16)
H9 H 0.5291 0.2920 0.5835
C16 C 0.62846(12) 0.2346(2) 0.51046(15)
C17 C 0.44015(12) 0.1506(2) 0.48685(16)
H10 H 0.4178 0.1145 0.4634
C18 C 0.44891(12) 0.2680(2) 0.55261(14)
H11 H 0.4326 0.3108 0.5726
C19 C 0.67169(12) 0.1307(2) 0.54900(17)
H12 H 0.7003 0.0958 0.5619
C20 C 0.61688(13) 0.1177(2) 0.55501(18)
H13 H 0.6007 0.0726 0.5719
C21 C 0.49727(13) 0.1403(2) 0.49189(18)
H14 H 0.5136 0.0976 0.4718
C22 C 0.15438(16) 0.5415(2) 0.1661(2)
H15 H 0.1443 0.5347 0.1219
H16 H 0.1238 0.5654 0.1864
H17 H 0.1629 0.4904 0.1850
C23 C 0.61428(15) 0.3121(3) 0.4788(2)
H18 H 0.6480 0.3435 0.4757
H19 H 0.5890 0.3420 0.5040
C24 C 0.5863(3) 0.2978(4) 0.4113(3)
H20 H 0.5799 0.3482 0.3905
H21 H 0.5513 0.2707 0.4146
H22 H 0.6104 0.2656 0.3872
Cu3 Cu 0.25563(2) 0.31748(2) 0.53382(2)
O8 O 0.16476(8) 0.21238(13) 0.46479(10)
O9 O 0.23630(10) 0.12982(11) 0.54818(8)
O10 O 0.17428(8) 0.32512(12) 0.52062(10)
N6 N 0.21350(10) 0.00032(13) 0.82826(9)
O11 O 0.24583(10) 0.24220(10) 0.60346(8)
C25 C 0.23142(10) 0.12377(14) 0.65847(10)
C27 C 0.23853(9) 0.16835(13) 0.59843(10)
C28 C 0.14626(10) 0.27388(15) 0.49035(11)
C29 C 0.22657(12) 0.04036(14) 0.65759(11)
H23 H 0.2276 0.0127 0.6196
C30 C 0.22976(12) 0.16476(14) 0.71544(11)
H24 H 0.2326 0.2202 0.7158
C32 C 0.21985(11) 0.04143(14) 0.76993(10)
C33 C 0.08424(10) 0.28535(17) 0.48334(12)
C36 C 0.17406(14) 0.01996(18) 0.87073(13)
H29 H 0.1470 0.0597 0.8663
C38 C 0.22403(12) 0.12462(15) 0.77111(11)
H30 H 0.2229 0.1524 0.8091
C41 C 0.05985(12) 0.3494(2) 0.51315(16)
H32 H 0.0822 0.3855 0.5366
C42 C 0.05109(12) 0.2320(2) 0.44739(14)
H33 H 0.0674 0.1892 0.4274
C45 C 0.00273(13) 0.3597(2) 0.50811(18)
H39 H 0.3371 0.0096 0.8150
O12 O 0.72402(9) 0.26050(13) 0.40873(10)
N10 N 0.73585(12) 0.19525(15) 0.38421(12)
O13 O 0.76036(16) 0.14344(17) 0.41976(15)
O14 O 0.7261(2) 0.1845(2) 0.32744(15)
Cu4 Cu 0.25563(2) 0.68252(2) 0.03382(2)
N11 N 0.22751(9) 0.08000(12) 0.40952(9)
N12 N 0.27249(9) 0.42000(12) 0.59048(9)
N13 N 0.82143(9) 0.29672(17) 0.47909(12)
N7 N 0.22751(9) 0.92000(12) 0.90952(9)
C26 C 0.24533(10) 0.93941(13) 0.85364(10)
C31 C 0.29516(11) 0.90501(15) 0.82568(11)
H25 H 0.3038 0.8538 0.8454
H26 H 0.2866 0.8957 0.7809
C34 C 0.22023(12) 0.99907(15) 0.71355(11)
H27 H 0.2163 0.9437 0.7133
C35 C 0.18319(14) 0.96927(17) 0.91987(13)
H28 H 0.1625 0.9679 0.9555
C46 C 0.34562(16) 0.9585(2) 0.8339(2)
H37 H 0.3557 0.9653 0.8781
H38 H 0.3762 0.9346 0.8136
Cu5 Cu 0.24437(2) 0.81748(2) 0.96618(2)
N9 N 0.91026(10) 0.31586(17) 0.46862(13)
C37 C 0.96992(11) 0.3057(2) 0.47269(15)
C39 C 0.99336(12) 0.2426(2) 0.44126(16)
H31 H 0.9709 0.2080 0.4165
C40 C 0.87154(12) 0.2654(2) 0.48954(15)
C43 C 0.82831(12) 0.3693(2) 0.45100(17)
H34 H 0.7997 0.4042 0.4381
C44 C 0.88312(13) 0.3823(2) 0.44499(18)
H35 H 0.8993 0.4274 0.4281
H36 H 0.9864 0.4024 0.5282
C47 C 0.88572(15) 0.1879(3) 0.5212(2)
H40 H 0.8520 0.1565 0.5243
H41 H 0.9110 0.1580 0.4960
C48 C 0.9137(3) 0.2022(4) 0.5887(3)
H42 H 0.9201 0.1518 0.6095
H43 H 0.9487 0.2293 0.5854
H44 H 0.8896 0.2344 0.6128
C2_2 C 0.24533(10) 0.06059(13) 0.35364(10)
C7_2 C 0.29516(11) 0.09499(15) 0.32568(11)
H3_2 H 0.3038 0.1462 0.3454
H4_2 H 0.2866 0.1043 0.2809
C10_2 C 0.22023(12) 0.00093(15) 0.21355(11)
H5_2 H 0.2163 0.0563 0.2133
C11_2 C 0.18319(14) 0.03073(17) 0.41987(13)
H6_2 H 0.1625 0.0321 0.4555
C22_2 C 0.34562(16) 0.0415(2) 0.3339(2)
H15_2 H 0.3557 0.0347 0.3781
H16_2 H 0.3762 0.0654 0.3136
O2_2 O 0.23630(10) 0.87018(11) 0.04818(8)
O3_2 O 0.17428(8) 0.67488(12) 0.02062(10)
N1_2 N 0.21350(10) 0.99968(13) 0.32826(9)
O4_2 O 0.24583(10) 0.75780(10) 0.10346(8)
C1_2 C 0.23142(10) 0.87623(14) 0.15847(10)
C3_2 C 0.23853(9) 0.83165(13) 0.09843(10)
C5_2 C 0.22657(12) 0.95964(14) 0.15759(11)
H1_2 H 0.2276 0.9873 0.1196
C6_2 C 0.22976(12) 0.83524(14) 0.21544(11)
H2_2 H 0.2326 0.7798 0.2158
C8_2 C 0.21985(11) 0.95857(14) 0.26993(10)
C12_2 C 0.17406(14) 0.98004(18) 0.37073(13)
H7_2 H 0.1470 0.9403 0.3663
C14_2 C 0.22403(12) 0.87538(15) 0.27111(11)
H8_2 H 0.2229 0.8476 0.3091
C17_2 C 0.05985(12) 0.6506(2) 0.01315(16)
H10_2 H 0.0822 0.6145 0.0366
C21_2 C 0.00273(13) 0.6403(2) 0.00811(18)
H17_2 H 0.3371 0.9904 0.3150
O8_2 O 0.33524(8) 0.71238(13) 0.03521(10)
N8 N 0.67857(9) 0.79672(17) 0.02091(12)
N9_2 N 0.58974(10) 0.81586(17) 0.03138(13)
C28_2 C 0.35374(10) 0.77388(15) 0.00965(11)
C33_2 C 0.41576(10) 0.78535(17) 0.01666(12)
C37_2 C 0.53008(11) 0.8057(2) 0.02731(15)
C39_2 C 0.50664(12) 0.7426(2) 0.05874(16)
H31_2 H 0.5291 0.7080 0.0835
C40_2 C 0.62846(12) 0.7654(2) 0.01046(15)
C42_2 C 0.44891(12) 0.7320(2) 0.05261(14)
H33_2 H 0.4326 0.6892 0.0726
C43_2 C 0.67169(12) 0.8693(2) 0.04900(17)
H34_2 H 0.7003 0.9042 0.0619
C44_2 C 0.61688(13) 0.8823(2) 0.05501(18)
H35_2 H 0.6007 0.9274 0.0719
H41_2 H 0.5890 0.6580 0.0040
Cu6 Cu 0.7500 0.7500 0.0000
O1_2 O 0.16476(8) 0.78762(13) 0.96479(10)
C4_2 C 0.14626(10) 0.72612(15) 0.99035(11)
C9_2 C 0.08424(10) 0.71465(17) 0.98334(12)
C18_2 C 0.05109(12) 0.7680(2) 0.94739(14)
H11_2 H 0.0674 0.8108 0.9274
O9_2 O 0.26370(10) 0.62982(11) 0.95182(8)
O10_2 O 0.32572(8) 0.82512(12) 0.97938(10)
N6_2 N 0.28650(10) 0.50032(13) 0.67174(9)
O11_2 O 0.25417(10) 0.74220(10) 0.89654(8)
C25_2 C 0.26858(10) 0.62377(14) 0.84153(10)
C26_2 C 0.25467(10) 0.43941(13) 0.64636(10)
C27_2 C 0.26147(9) 0.66835(13) 0.90157(10)
C29_2 C 0.27343(12) 0.54036(14) 0.84241(11)
H23_2 H 0.2724 0.5127 0.8804
C30_2 C 0.27024(12) 0.66476(14) 0.78456(11)
H24_2 H 0.2674 0.7202 0.7842
C31_2 C 0.20484(11) 0.40501(15) 0.67432(11)
H25_2 H 0.1962 0.3538 0.6546
H26_2 H 0.2134 0.3957 0.7191
C32_2 C 0.28015(11) 0.54143(14) 0.73007(10)
C34_2 C 0.27977(12) 0.49907(15) 0.78645(11)
H27_2 H 0.2837 0.4437 0.7867
C35_2 C 0.31681(14) 0.46927(17) 0.58013(13)
H28_2 H 0.3375 0.4679 0.5445
C36_2 C 0.32594(14) 0.51996(18) 0.62927(13)
H29_2 H 0.3530 0.5597 0.6337
C38_2 C 0.27597(12) 0.62462(15) 0.72889(11)
H30_2 H 0.2771 0.6524 0.6909
C41_2 C 0.44015(12) 0.8494(2) 0.98685(16)
H32_2 H 0.4178 0.8855 0.9634
C45_2 C 0.49727(13) 0.8597(2) 0.99189(18)
H36_2 H 0.5136 0.9024 0.9718
C46_2 C 0.15438(16) 0.4585(2) 0.6661(2)
H37_2 H 0.1443 0.4653 0.6219
H38_2 H 0.1238 0.4346 0.6864
H39_2 H 0.1629 0.5096 0.6850
C47_2 C 0.61428(15) 0.6879(3) 0.9788(2)
H40_2 H 0.6480 0.6565 0.9757
C48_2 C 0.5863(3) 0.7022(4) 0.9113(3)
H42_2 H 0.5799 0.6518 0.8905
H43_2 H 0.5513 0.7293 0.9146
H44_2 H 0.6104 0.7344 0.8872
Cu6_2 Cu 0.7500 0.7500 1.0000
H14_2 H 0.9864 0.5976 0.0282
C23_2 C 0.88572(15) 0.8121(3) 0.0212(2)
H18_2 H 0.8520 0.8435 0.0243
C24_2 C 0.9137(3) 0.7978(4) 0.0887(3)
H20_2 H 0.9201 0.8482 0.1095
H21_2 H 0.9487 0.7707 0.0854
H22_2 H 0.8896 0.7656 0.1128
O12_2 O 0.77598(9) 0.76050(13) 0.09127(10)
N10_2 N 0.76415(12) 0.69525(15) 0.11579(12)
O13_2 O 0.73964(16) 0.64344(17) 0.08024(15)
O14_2 O 0.7739(2) 0.6845(2) 0.17256(15)
O5_2 O 0.72402(9) 0.73950(13) 0.90873(10)
N3_2 N 0.82143(9) 0.70328(17) 0.97909(12)
N4_2 N 0.91026(10) 0.68414(17) 0.96862(13)
N5_2 N 0.73585(12) 0.80475(15) 0.88421(12)
O6_2 O 0.76036(16) 0.85656(17) 0.91976(15)
C13_2 C 0.96992(11) 0.6943(2) 0.97269(15)
O7_2 O 0.7261(2) 0.8155(2) 0.82744(15)
C15_2 C 0.99336(12) 0.7574(2) 0.94126(16)
H9_2 H 0.9709 0.7920 0.9165
C16_2 C 0.87154(12) 0.7346(2) 0.98954(15)
C19_2 C 0.82831(12) 0.6307(2) 0.95100(17)
H12_2 H 0.7997 0.5958 0.9381
C20_2 C 0.88312(13) 0.6177(2) 0.94499(18)
H13_2 H 0.8993 0.5726 0.9281
H19_2 H 0.9110 0.8420 0.9960
N8_2 N 0.17857(9) 0.29672(17) 0.02091(12)
N9_3 N 0.08974(10) 0.31586(17) 0.03138(13)
C37_3 C 0.03008(11) 0.3057(2) 0.02731(15)
C39_3 C 0.00664(12) 0.2426(2) 0.05874(16)
H31_3 H 0.0291 0.2080 0.0835
C40_3 C 0.12846(12) 0.2654(2) 0.01046(15)
C43_3 C 0.17169(12) 0.3693(2) 0.04900(17)
H34_3 H 0.2003 0.4042 0.0619
C44_3 C 0.11688(13) 0.3823(2) 0.05501(18)
H35_3 H 0.1007 0.4274 0.0719
H41_3 H 0.0890 0.1580 0.0040
Cu6_3 Cu 0.2500 0.2500 0.0000
H36_3 H 0.0136 0.4024 0.9718
C47_3 C 0.11428(15) 0.1879(3) 0.9788(2)
H40_3 H 0.1480 0.1565 0.9757
C48_3 C 0.0863(3) 0.2022(4) 0.9113(3)
H42_3 H 0.0799 0.1518 0.8905
H43_3 H 0.0513 0.2293 0.9146
H44_3 H 0.1104 0.2344 0.8872
Cu6_4 Cu 0.2500 0.2500 1.0000
Cu1_2 Cu 0.75563(2) 0.18252(2) 0.03382(2)
O2_3 O 0.73630(10) 0.37018(11) 0.04818(8)
O3_3 O 0.67428(8) 0.17488(12) 0.02062(10)
N1_3 N 0.71350(10) 0.49968(13) 0.32826(9)
O4_3 O 0.74583(10) 0.25780(10) 0.10346(8)
N2_2 N 0.72751(9) 0.58000(12) 0.40952(9)
C1_3 C 0.73142(10) 0.37623(14) 0.15847(10)
C2_3 C 0.74533(10) 0.56059(13) 0.35364(10)
C3_3 C 0.73853(9) 0.33165(13) 0.09843(10)
C5_3 C 0.72657(12) 0.45964(14) 0.15759(11)
H1_3 H 0.7276 0.4873 0.1196
C6_3 C 0.72976(12) 0.33524(14) 0.21544(11)
H2_3 H 0.7326 0.2798 0.2158
C7_3 C 0.79516(11) 0.59499(15) 0.32568(11)
H3_3 H 0.8038 0.6462 0.3454
H4_3 H 0.7866 0.6043 0.2809
C8_3 C 0.71985(11) 0.45857(14) 0.26993(10)
C10_3 C 0.72023(12) 0.50093(15) 0.21355(11)
H5_3 H 0.7163 0.5563 0.2133
C11_3 C 0.68319(14) 0.53073(17) 0.41987(13)
H6_3 H 0.6625 0.5321 0.4555
C12_3 C 0.67406(14) 0.48004(18) 0.37073(13)
H7_3 H 0.6470 0.4403 0.3663
C14_3 C 0.72403(12) 0.37538(15) 0.27111(11)
H8_3 H 0.7229 0.3476 0.3091
C17_3 C 0.55985(12) 0.1506(2) 0.01315(16)
H10_3 H 0.5822 0.1145 0.0366
C21_3 C 0.50273(13) 0.1403(2) 0.00811(18)
H14_3 H 0.4864 0.0976 0.0282
C22_3 C 0.84562(16) 0.5415(2) 0.3339(2)
H15_3 H 0.8557 0.5347 0.3781
H16_3 H 0.8762 0.5654 0.3136
H17_3 H 0.8371 0.4904 0.3150
C23_3 C 0.38572(15) 0.3121(3) 0.0212(2)
H18_3 H 0.3520 0.3435 0.0243
C24_3 C 0.4137(3) 0.2978(4) 0.0887(3)
H20_3 H 0.4201 0.3482 0.1095
H21_3 H 0.4487 0.2707 0.0854
H22_3 H 0.3896 0.2656 0.1128
O8_3 O 0.83524(8) 0.21238(13) 0.03521(10)
C28_3 C 0.85374(10) 0.27388(15) 0.00965(11)
C33_3 C 0.91576(10) 0.28535(17) 0.01666(12)
C42_3 C 0.94891(12) 0.2320(2) 0.05261(14)
H33_3 H 0.9326 0.1892 0.0726
O12_3 O 0.27598(9) 0.26050(13) 0.09127(10)
N10_3 N 0.26415(12) 0.19525(15) 0.11579(12)
O13_3 O 0.23964(16) 0.14344(17) 0.08024(15)
O14_3 O 0.2739(2) 0.1845(2) 0.17256(15)
Cu4_2 Cu 0.74437(2) 0.68252(2) 0.46618(2)
N11_2 N 0.77249(9) 0.08000(12) 0.09048(9)
O1_3 O 0.66476(8) 0.28762(13) 0.96479(10)
O5_3 O 0.22402(9) 0.23950(13) 0.90873(10)
N3_3 N 0.32143(9) 0.20328(17) 0.97909(12)
N4_3 N 0.41026(10) 0.18414(17) 0.96862(13)
N5_3 N 0.23585(12) 0.30475(15) 0.88421(12)
C4_3 C 0.64626(10) 0.22612(15) 0.99035(11)
C9_3 C 0.58424(10) 0.21465(17) 0.98334(12)
O6_3 O 0.26036(16) 0.35656(17) 0.91976(15)
C13_3 C 0.46992(11) 0.1943(2) 0.97269(15)
O7_3 O 0.2261(2) 0.3155(2) 0.82744(15)
C15_3 C 0.49336(12) 0.2574(2) 0.94126(16)
H9_3 H 0.4709 0.2920 0.9165
C16_3 C 0.37154(12) 0.2346(2) 0.98954(15)
C18_3 C 0.55109(12) 0.2680(2) 0.94739(14)
H11_3 H 0.5674 0.3108 0.9274
C19_3 C 0.32831(12) 0.1307(2) 0.95100(17)
H12_3 H 0.2997 0.0958 0.9381
C20_3 C 0.38312(13) 0.1177(2) 0.94499(18)
H13_3 H 0.3993 0.0726 0.9281
H19_3 H 0.4110 0.3420 0.9960
Cu3_2 Cu 0.74437(2) 0.31748(2) 0.96618(2)
O9_3 O 0.76370(10) 0.12982(11) 0.95182(8)
O10_3 O 0.82572(8) 0.32512(12) 0.97938(10)
N6_3 N 0.78650(10) 0.00032(13) 0.67174(9)
O11_3 O 0.75417(10) 0.24220(10) 0.89654(8)
C25_3 C 0.76858(10) 0.12377(14) 0.84153(10)
C27_3 C 0.76147(9) 0.16835(13) 0.90157(10)
C29_3 C 0.77343(12) 0.04036(14) 0.84241(11)
H23_3 H 0.7724 0.0127 0.8804
C30_3 C 0.77024(12) 0.16476(14) 0.78456(11)
H24_3 H 0.7674 0.2202 0.7842
C32_3 C 0.78015(11) 0.04143(14) 0.73007(10)
C36_3 C 0.82594(14) 0.01996(18) 0.62927(13)
H29_3 H 0.8530 0.0597 0.6337
C38_3 C 0.77597(12) 0.12462(15) 0.72889(11)
H30_3 H 0.7771 0.1524 0.6909
C41_3 C 0.94015(12) 0.3494(2) 0.98685(16)
H32_3 H 0.9178 0.3855 0.9634
C45_3 C 0.99727(13) 0.3597(2) 0.99189(18)
H39_3 H 0.6629 0.0096 0.6850
N12_2 N 0.72751(9) 0.42000(12) 0.90952(9)
N7_2 N 0.77249(9) 0.92000(12) 0.59048(9)
C26_3 C 0.75467(10) 0.93941(13) 0.64636(10)
C31_3 C 0.70484(11) 0.90501(15) 0.67432(11)
H25_3 H 0.6962 0.8538 0.6546
H26_3 H 0.7134 0.8957 0.7191
C34_3 C 0.77977(12) 0.99907(15) 0.78645(11)
H27_3 H 0.7837 0.9437 0.7867
C35_3 C 0.81681(14) 0.96927(17) 0.58013(13)
H28_3 H 0.8375 0.9679 0.5445
C46_3 C 0.65438(16) 0.9585(2) 0.6661(2)
H37_3 H 0.6443 0.9653 0.6219
H38_3 H 0.6238 0.9346 0.6864
Cu5_2 Cu 0.75563(2) 0.81748(2) 0.53382(2)
Cu2_2 Cu 0.2500 0.7500 0.5000
O5_4 O 0.27598(9) 0.73950(13) 0.59127(10)
N3_4 N 0.17857(9) 0.70328(17) 0.52091(12)
N4_4 N 0.08974(10) 0.68414(17) 0.53138(13)
N5_4 N 0.26415(12) 0.80475(15) 0.61579(12)
O6_4 O 0.23964(16) 0.85656(17) 0.58024(15)
C13_4 C 0.03008(11) 0.6943(2) 0.52731(15)
O7_4 O 0.2739(2) 0.8155(2) 0.67256(15)
C15_4 C 0.00664(12) 0.7574(2) 0.55874(16)
H9_4 H 0.0291 0.7920 0.5835
C16_4 C 0.12846(12) 0.7346(2) 0.51046(15)
C19_4 C 0.17169(12) 0.6307(2) 0.54900(17)
H12_4 H 0.2003 0.5958 0.5619
C20_4 C 0.11688(13) 0.6177(2) 0.55501(18)
H13_4 H 0.1007 0.5726 0.5719
H14_4 H 0.0136 0.5976 0.4718
C23_4 C 0.11428(15) 0.8121(3) 0.4788(2)
H18_4 H 0.1480 0.8435 0.4757
H19_4 H 0.0890 0.8420 0.5040
C24_4 C 0.0863(3) 0.7978(4) 0.4113(3)
H20_4 H 0.0799 0.8482 0.3905
H21_4 H 0.0513 0.7707 0.4146
H22_4 H 0.1104 0.7656 0.3872
O12_4 O 0.22402(9) 0.76050(13) 0.40873(10)
N10_4 N 0.23585(12) 0.69525(15) 0.38421(12)
O13_4 O 0.26036(16) 0.64344(17) 0.41976(15)
O14_4 O 0.2261(2) 0.6845(2) 0.32744(15)
N13_2 N 0.32143(9) 0.79672(17) 0.47909(12)
C2_4 C 0.75467(10) 0.06059(13) 0.14636(10)
C7_4 C 0.70484(11) 0.09499(15) 0.17432(11)
H3_4 H 0.6962 0.1462 0.1546
H4_4 H 0.7134 0.1043 0.2191
C10_4 C 0.77977(12) 0.00093(15) 0.28645(11)
H5_4 H 0.7837 0.0563 0.2867
C11_4 C 0.81681(14) 0.03073(17) 0.08013(13)
H6_4 H 0.8375 0.0321 0.0445
C22_4 C 0.65438(16) 0.0415(2) 0.1661(2)
H15_4 H 0.6443 0.0347 0.1219
H16_4 H 0.6238 0.0654 0.1864
O1_4 O 0.83524(8) 0.78762(13) 0.53521(10)
O2_4 O 0.76370(10) 0.87018(11) 0.45182(8)
O3_4 O 0.82572(8) 0.67488(12) 0.47938(10)
N1_4 N 0.78650(10) 0.99968(13) 0.17174(9)
O4_4 O 0.75417(10) 0.75780(10) 0.39654(8)
C1_4 C 0.76858(10) 0.87623(14) 0.34153(10)
C3_4 C 0.76147(9) 0.83165(13) 0.40157(10)
C4_4 C 0.85374(10) 0.72612(15) 0.50965(11)
C5_4 C 0.77343(12) 0.95964(14) 0.34241(11)
H1_4 H 0.7724 0.9873 0.3804
C6_4 C 0.77024(12) 0.83524(14) 0.28456(11)
H2_4 H 0.7674 0.7798 0.2842
C8_4 C 0.78015(11) 0.95857(14) 0.23007(10)
C9_4 C 0.91576(10) 0.71465(17) 0.51666(12)
C12_4 C 0.82594(14) 0.98004(18) 0.12927(13)
H7_4 H 0.8530 0.9403 0.1337
C14_4 C 0.77597(12) 0.87538(15) 0.22889(11)
H8_4 H 0.7771 0.8476 0.1909
C17_4 C 0.94015(12) 0.6506(2) 0.48685(16)
H10_4 H 0.9178 0.6145 0.4634
C18_4 C 0.94891(12) 0.7680(2) 0.55261(14)
H11_4 H 0.9326 0.8108 0.5726
C21_4 C 0.99727(13) 0.6403(2) 0.49189(18)
H17_4 H 0.6629 0.9904 0.1850
O8_4 O 0.66476(8) 0.71238(13) 0.46479(10)
O9_4 O 0.73630(10) 0.62982(11) 0.54818(8)
O10_4 O 0.67428(8) 0.82512(12) 0.52062(10)
N6_4 N 0.71350(10) 0.50032(13) 0.82826(9)
O11_4 O 0.74583(10) 0.74220(10) 0.60346(8)
N9_4 N 0.41026(10) 0.81586(17) 0.46862(13)
C25_4 C 0.73142(10) 0.62377(14) 0.65847(10)
C26_4 C 0.74533(10) 0.43941(13) 0.85364(10)
C27_4 C 0.73853(9) 0.66835(13) 0.59843(10)
C28_4 C 0.64626(10) 0.77388(15) 0.49035(11)
C29_4 C 0.72657(12) 0.54036(14) 0.65759(11)
H23_4 H 0.7276 0.5127 0.6196
C30_4 C 0.72976(12) 0.66476(14) 0.71544(11)
H24_4 H 0.7326 0.7202 0.7158
C31_4 C 0.79516(11) 0.40501(15) 0.82568(11)
H25_4 H 0.8038 0.3538 0.8454
H26_4 H 0.7866 0.3957 0.7809
C32_4 C 0.71985(11) 0.54143(14) 0.76993(10)
C33_4 C 0.58424(10) 0.78535(17) 0.48334(12)
C34_4 C 0.72023(12) 0.49907(15) 0.71355(11)
H27_4 H 0.7163 0.4437 0.7133
C35_4 C 0.68319(14) 0.46927(17) 0.91987(13)
H28_4 H 0.6625 0.4679 0.9555
C36_4 C 0.67406(14) 0.51996(18) 0.87073(13)
H29_4 H 0.6470 0.5597 0.8663
C37_4 C 0.46992(11) 0.8057(2) 0.47269(15)
C38_4 C 0.72403(12) 0.62462(15) 0.77111(11)
H30_4 H 0.7229 0.6524 0.8091
C39_4 C 0.49336(12) 0.7426(2) 0.44126(16)
H31_4 H 0.4709 0.7080 0.4165
C40_4 C 0.37154(12) 0.7654(2) 0.48954(15)
C41_4 C 0.55985(12) 0.8494(2) 0.51315(16)
H32_4 H 0.5822 0.8855 0.5366
C42_4 C 0.55109(12) 0.7320(2) 0.44739(14)
H33_4 H 0.5674 0.6892 0.4274
C43_4 C 0.32831(12) 0.8693(2) 0.45100(17)
H34_4 H 0.2997 0.9042 0.4381
C44_4 C 0.38312(13) 0.8823(2) 0.44499(18)
H35_4 H 0.3993 0.9274 0.4281
C45_4 C 0.50273(13) 0.8597(2) 0.50811(18)
H36_4 H 0.4864 0.9024 0.5282
C46_4 C 0.84562(16) 0.4585(2) 0.8339(2)
H37_4 H 0.8557 0.4653 0.8781
H38_4 H 0.8762 0.4346 0.8136
H39_4 H 0.8371 0.5096 0.8150
C47_4 C 0.38572(15) 0.6879(3) 0.5212(2)
H40_4 H 0.3520 0.6565 0.5243
H41_4 H 0.4110 0.6580 0.4960
C48_4 C 0.4137(3) 0.7022(4) 0.5887(3)
H42_4 H 0.4201 0.6518 0.6095
H43_4 H 0.4487 0.7293 0.5854
H44_4 H 0.3896 0.7344 0.6128
loop_
_geom_bond_atom_site_label_1
_geom_bond_atom_site_label_2
_geom_bond_site_symmetry_1
_geom_bond_site_symmetry_2
Cu1 O3 1_555 1_555
Cu2 O5 1_555 1_555
O1 C4 1_555 1_555
O2 C3 1_555 1_555
O3 C4 1_555 1_555
N1 C2 1_555 1_555
O4 Cu1 1_555 1_555
O5 N5 1_555 1_555
N2 C2 1_555 1_555
N3 Cu2 1_555 1_555
N4 C13 1_555 1_555
C1 C3 1_555 1_555
N5 O6 1_555 1_555
C2 C7 1_555 1_555
C3 O4 1_555 1_555
C4 C9 1_555 1_555
C5 C1 1_555 1_555
H1 C5 1_555 1_555
C6 C1 1_555 1_555
H2 C6 1_555 1_555
C7 H3 1_555 1_555
H4 C7 1_555 1_555
C8 N1 1_555 1_555
C9 C17 1_555 1_555
C10 C5 1_555 1_555
H5 C10 1_555 1_555
C11 N2 1_555 1_555
H6 C11 1_555 1_555
O6 Cu2 1_555 1_555
C12 N1 1_555 1_555
H7 C12 1_555 1_555
C13 C15 1_555 1_555
O7 N5 1_555 1_555
C14 C6 1_555 1_555
H8 C14 1_555 1_555
C15 H9 1_555 1_555
C16 N3 1_555 1_555
C17 H10 1_555 1_555
C18 C9 1_555 1_555
H11 C18 1_555 1_555
C19 N3 1_555 1_555
H12 C19 1_555 1_555
C20 N4 1_555 1_555
H13 C20 1_555 1_555
C21 C13 1_555 1_555
H14 C21 1_555 1_555
C22 C7 1_555 1_555
H15 C22 1_555 1_555
H16 C22 1_555 1_555
H17 C22 1_555 1_555
C23 C16 1_555 1_555
H18 C23 1_555 1_555
H19 C23 1_555 1_555
C24 C23 1_555 1_555
H20 C24 1_555 1_555
H21 C24 1_555 1_555
H22 C24 1_555 1_555
Cu3 O1 1_555 1_555
O8 Cu1 1_555 1_555
O9 Cu1 1_555 1_555
O10 Cu3 1_555 1_555
O11 Cu3 1_555 1_555
C25 C27 1_555 1_555
C27 O9 1_555 1_555
C28 O8 1_555 1_555
C29 C25 1_555 1_555
H23 C29 1_555 1_555
C30 C25 1_555 1_555
H24 C30 1_555 1_555
C32 N6 1_555 1_555
C33 C28 1_555 1_555
C36 N6 1_555 1_555
H29 C36 1_555 1_555
C38 C30 1_555 1_555
H30 C38 1_555 1_555
C41 C33 1_555 1_555
H32 C41 1_555 1_555
C42 C33 1_555 1_555
H33 C42 1_555 1_555
O12 Cu2 1_555 1_555
N10 O12 1_555 1_555
O13 Cu2 1_555 1_555
O14 N10 1_555 1_555
Cu4 N2 1_555 1_555
N11 Cu1 1_555 1_555
N12 Cu3 1_555 1_555
N13 Cu2 1_555 1_555
O2 Cu3 1_555 1_555
N4 C16 1_555 1_555
C8 C10 1_555 1_555
C8 C14 1_555 1_555
C11 C12 1_555 1_555
C15 C18 1_555 1_555
C17 C21 1_555 1_555
C19 C20 1_555 1_555
O10 C28 1_555 1_555
O11 C27 1_555 1_555
C32 C38 1_555 1_555
C41 C45 1_555 1_555
N10 O13 1_555 1_555
N7 C26 1_555 1_555
C26 C31 1_555 1_555
C31 H25 1_555 1_555
H26 C31 1_555 1_555
H27 C34 1_555 1_555
C35 N7 1_555 1_555
H28 C35 1_555 1_555
C46 C31 1_555 1_555
H37 C46 1_555 1_555
H38 C46 1_555 1_555
Cu5 N7 1_555 1_555
N13 C40 1_555 1_555
N9 C37 1_555 1_555
C37 C39 1_555 1_555
C39 H31 1_555 1_555
C40 N9 1_555 1_555
C43 N13 1_555 1_555
H34 C43 1_555 1_555
C44 N9 1_555 1_555
H35 C44 1_555 1_555
C47 C40 1_555 1_555
H40 C47 1_555 1_555
H41 C47 1_555 1_555
C48 C47 1_555 1_555
H42 C48 1_555 1_555
H43 C48 1_555 1_555
H44 C48 1_555 1_555
C43 C44 1_555 1_555
N11 C2_2 1_555 1_555
C2_2 C7_2 1_555 1_555
C7_2 H3_2 1_555 1_555
H4_2 C7_2 1_555 1_555
H5_2 C10_2 1_555 1_555
C11_2 N11 1_555 1_555
H6_2 C11_2 1_555 1_555
C22_2 C7_2 1_555 1_555
H15_2 C22_2 1_555 1_555
H16_2 C22_2 1_555 1_555
Cu4 O3_2 1_555 1_555
O2_2 C3_2 1_555 1_555
O4_2 Cu4 1_555 1_555
C1_2 C3_2 1_555 1_555
C3_2 O4_2 1_555 1_555
C5_2 C1_2 1_555 1_555
H1_2 C5_2 1_555 1_555
C6_2 C1_2 1_555 1_555
H2_2 C6_2 1_555 1_555
C8_2 N1_2 1_555 1_555
C12_2 N1_2 1_555 1_555
H7_2 C12_2 1_555 1_555
C14_2 C6_2 1_555 1_555
H8_2 C14_2 1_555 1_555
C17_2 H10_2 1_555 1_555
O8_2 Cu4 1_555 1_555
N8 C40_2 1_555 1_555
N9_2 C37_2 1_555 1_555
C28_2 O8_2 1_555 1_555
C33_2 C28_2 1_555 1_555
C37_2 C39_2 1_555 1_555
C39_2 H31_2 1_555 1_555
C40_2 N9_2 1_555 1_555
C42_2 C33_2 1_555 1_555
H33_2 C42_2 1_555 1_555
C43_2 N8 1_555 1_555
H34_2 C43_2 1_555 1_555
C44_2 N9_2 1_555 1_555
H35_2 C44_2 1_555 1_555
Cu6 N8 1_555 1_555
C8_2 C14_2 1_555 1_555
C17_2 C21_2 1_555 1_555
C39_2 C42_2 1_555 1_555
C43_2 C44_2 1_555 1_555
O1_2 C4_2 1_555 1_555
C4_2 C9_2 1_555 1_555
C18_2 C9_2 1_555 1_555
H11_2 C18_2 1_555 1_555
Cu5 O1_2 1_555 1_555
O10_2 Cu5 1_555 1_555
N6_2 C26_2 1_555 1_555
O11_2 Cu5 1_555 1_555
N12 C26_2 1_555 1_555
C25_2 C27_2 1_555 1_555
C26_2 C31_2 1_555 1_555
C27_2 O9_2 1_555 1_555
C29_2 C25_2 1_555 1_555
H23_2 C29_2 1_555 1_555
C30_2 C25_2 1_555 1_555
H24_2 C30_2 1_555 1_555
C31_2 H25_2 1_555 1_555
H26_2 C31_2 1_555 1_555
C32_2 N6_2 1_555 1_555
C34_2 C29_2 1_555 1_555
H27_2 C34_2 1_555 1_555
C35_2 N12 1_555 1_555
H28_2 C35_2 1_555 1_555
C36_2 N6_2 1_555 1_555
H29_2 C36_2 1_555 1_555
C38_2 C30_2 1_555 1_555
H30_2 C38_2 1_555 1_555
H32_2 C41_2 1_555 1_555
H36_2 C45_2 1_555 1_555
C46_2 C31_2 1_555 1_555
H37_2 C46_2 1_555 1_555
H38_2 C46_2 1_555 1_555
H39_2 C46_2 1_555 1_555
H40_2 C47_2 1_555 1_555
C48_2 C47_2 1_555 1_555
H42_2 C48_2 1_555 1_555
H43_2 C48_2 1_555 1_555
H44_2 C48_2 1_555 1_555
O11_2 C27_2 1_555 1_555
C32_2 C34_2 1_555 1_555
C32_2 C38_2 1_555 1_555
C35_2 C36_2 1_555 1_555
C41_2 C45_2 1_555 1_555
H18_2 C23_2 1_555 1_555
C24_2 C23_2 1_555 1_555
H20_2 C24_2 1_555 1_555
H21_2 C24_2 1_555 1_555
H22_2 C24_2 1_555 1_555
O12_2 Cu6 1_555 1_555
N10_2 O12_2 1_555 1_555
O13_2 Cu6 1_555 1_555
O14_2 N10_2 1_555 1_555
N10_2 O13_2 1_555 1_555
Cu6_2 O5_2 1_555 1_555
O5_2 N5_2 1_555 1_555
N3_2 Cu6_2 1_555 1_555
N4_2 C13_2 1_555 1_555
N5_2 O6_2 1_555 1_555
O6_2 Cu6_2 1_555 1_555
C13_2 C15_2 1_555 1_555
O7_2 N5_2 1_555 1_555
C15_2 H9_2 1_555 1_555
C16_2 N3_2 1_555 1_555
C19_2 N3_2 1_555 1_555
H12_2 C19_2 1_555 1_555
C20_2 N4_2 1_555 1_555
H13_2 C20_2 1_555 1_555
N4_2 C16_2 1_555 1_555
C19_2 C20_2 1_555 1_555
N8_2 C40_3 1_555 1_555
N9_3 C37_3 1_555 1_555
C37_3 C39_3 1_555 1_555
C39_3 H31_3 1_555 1_555
C40_3 N9_3 1_555 1_555
C43_3 N8_2 1_555 1_555
H34_3 C43_3 1_555 1_555
C44_3 N9_3 1_555 1_555
H35_3 C44_3 1_555 1_555
Cu6_3 N8_2 1_555 1_555
C43_3 C44_3 1_555 1_555
H40_3 C47_3 1_555 1_555
C48_3 C47_3 1_555 1_555
H42_3 C48_3 1_555 1_555
H43_3 C48_3 1_555 1_555
H44_3 C48_3 1_555 1_555
Cu1_2 O3_3 1_555 1_555
O2_3 C3_3 1_555 1_555
N1_3 C2_3 1_555 1_555
O4_3 Cu1_2 1_555 1_555
N2_2 C2_3 1_555 1_555
C1_3 C3_3 1_555 1_555
C2_3 C7_3 1_555 1_555
C3_3 O4_3 1_555 1_555
C5_3 C1_3 1_555 1_555
H1_3 C5_3 1_555 1_555
C6_3 C1_3 1_555 1_555
H2_3 C6_3 1_555 1_555
C7_3 H3_3 1_555 1_555
H4_3 C7_3 1_555 1_555
C8_3 N1_3 1_555 1_555
C10_3 C5_3 1_555 1_555
H5_3 C10_3 1_555 1_555
C11_3 N2_2 1_555 1_555
H6_3 C11_3 1_555 1_555
C12_3 N1_3 1_555 1_555
H7_3 C12_3 1_555 1_555
C14_3 C6_3 1_555 1_555
H8_3 C14_3 1_555 1_555
C17_3 H10_3 1_555 1_555
H14_3 C21_3 1_555 1_555
C22_3 C7_3 1_555 1_555
H15_3 C22_3 1_555 1_555
H16_3 C22_3 1_555 1_555
H17_3 C22_3 1_555 1_555
H18_3 C23_3 1_555 1_555
C24_3 C23_3 1_555 1_555
H20_3 C24_3 1_555 1_555
H21_3 C24_3 1_555 1_555
H22_3 C24_3 1_555 1_555
O8_3 Cu1_2 1_555 1_555
C28_3 O8_3 1_555 1_555
C33_3 C28_3 1_555 1_555
C42_3 C33_3 1_555 1_555
H33_3 C42_3 1_555 1_555
O12_3 Cu6_3 1_555 1_555
N10_3 O12_3 1_555 1_555
O13_3 Cu6_3 1_555 1_555
O14_3 N10_3 1_555 1_555
Cu4_2 N2_2 1_555 1_555
N11_2 Cu1_2 1_555 1_555
C8_3 C10_3 1_555 1_555
C8_3 C14_3 1_555 1_555
C11_3 C12_3 1_555 1_555
C17_3 C21_3 1_555 1_555
N10_3 O13_3 1_555 1_555
Cu6_4 O5_3 1_555 1_555
O1_3 C4_3 1_555 1_555
O5_3 N5_3 1_555 1_555
N3_3 Cu6_4 1_555 1_555
N4_3 C13_3 1_555 1_555
N5_3 O6_3 1_555 1_555
C4_3 C9_3 1_555 1_555
O6_3 Cu6_4 1_555 1_555
C13_3 C15_3 1_555 1_555
O7_3 N5_3 1_555 1_555
C15_3 H9_3 1_555 1_555
C16_3 N3_3 1_555 1_555
C18_3 C9_3 1_555 1_555
H11_3 C18_3 1_555 1_555
C19_3 N3_3 1_555 1_555
H12_3 C19_3 1_555 1_555
C20_3 N4_3 1_555 1_555
H13_3 C20_3 1_555 1_555
Cu3_2 O1_3 1_555 1_555
O10_3 Cu3_2 1_555 1_555
O11_3 Cu3_2 1_555 1_555
C25_3 C27_3 1_555 1_555
C27_3 O9_3 1_555 1_555
C29_3 C25_3 1_555 1_555
H23_3 C29_3 1_555 1_555
C30_3 C25_3 1_555 1_555
H24_3 C30_3 1_555 1_555
C32_3 N6_3 1_555 1_555
C36_3 N6_3 1_555 1_555
H29_3 C36_3 1_555 1_555
C38_3 C30_3 1_555 1_555
H30_3 C38_3 1_555 1_555
H32_3 C41_3 1_555 1_555
N12_2 Cu3_2 1_555 1_555
N4_3 C16_3 1_555 1_555
C15_3 C18_3 1_555 1_555
C19_3 C20_3 1_555 1_555
O11_3 C27_3 1_555 1_555
C32_3 C38_3 1_555 1_555
C41_3 C45_3 1_555 1_555
N7_2 C26_3 1_555 1_555
C26_3 C31_3 1_555 1_555
C31_3 H25_3 1_555 1_555
H26_3 C31_3 1_555 1_555
H27_3 C34_3 1_555 1_555
C35_3 N7_2 1_555 1_555
H28_3 C35_3 1_555 1_555
C46_3 C31_3 1_555 1_555
H37_3 C46_3 1_555 1_555
H38_3 C46_3 1_555 1_555
Cu5_2 N7_2 1_555 1_555
Cu2_2 O5_4 1_555 1_555
O5_4 N5_4 1_555 1_555
N3_4 Cu2_2 1_555 1_555
N4_4 C13_4 1_555 1_555
N5_4 O6_4 1_555 1_555
O6_4 Cu2_2 1_555 1_555
C13_4 C15_4 1_555 1_555
O7_4 N5_4 1_555 1_555
C15_4 H9_4 1_555 1_555
C16_4 N3_4 1_555 1_555
C19_4 N3_4 1_555 1_555
H12_4 C19_4 1_555 1_555
C20_4 N4_4 1_555 1_555
H13_4 C20_4 1_555 1_555
C23_4 C16_4 1_555 1_555
H18_4 C23_4 1_555 1_555
H19_4 C23_4 1_555 1_555
C24_4 C23_4 1_555 1_555
H20_4 C24_4 1_555 1_555
H21_4 C24_4 1_555 1_555
H22_4 C24_4 1_555 1_555
O12_4 Cu2_2 1_555 1_555
N10_4 O12_4 1_555 1_555
O13_4 Cu2_2 1_555 1_555
O14_4 N10_4 1_555 1_555
N13_2 Cu2_2 1_555 1_555
N4_4 C16_4 1_555 1_555
C19_4 C20_4 1_555 1_555
N10_4 O13_4 1_555 1_555
N11_2 C2_4 1_555 1_555
C2_4 C7_4 1_555 1_555
C7_4 H3_4 1_555 1_555
H4_4 C7_4 1_555 1_555
H5_4 C10_4 1_555 1_555
C11_4 N11_2 1_555 1_555
H6_4 C11_4 1_555 1_555
C22_4 C7_4 1_555 1_555
H15_4 C22_4 1_555 1_555
H16_4 C22_4 1_555 1_555
Cu4_2 O3_4 1_555 1_555
O1_4 C4_4 1_555 1_555
O2_4 C3_4 1_555 1_555
O3_4 C4_4 1_555 1_555
O4_4 Cu4_2 1_555 1_555
C1_4 C3_4 1_555 1_555
C3_4 O4_4 1_555 1_555
C4_4 C9_4 1_555 1_555
C5_4 C1_4 1_555 1_555
H1_4 C5_4 1_555 1_555
C6_4 C1_4 1_555 1_555
H2_4 C6_4 1_555 1_555
C8_4 N1_4 1_555 1_555
C9_4 C17_4 1_555 1_555
C12_4 N1_4 1_555 1_555
H7_4 C12_4 1_555 1_555
C14_4 C6_4 1_555 1_555
H8_4 C14_4 1_555 1_555
C17_4 H10_4 1_555 1_555
C18_4 C9_4 1_555 1_555
H11_4 C18_4 1_555 1_555
Cu5_2 O1_4 1_555 1_555
O8_4 Cu4_2 1_555 1_555
O9_4 Cu4_2 1_555 1_555
O10_4 Cu5_2 1_555 1_555
N6_4 C26_4 1_555 1_555
O11_4 Cu5_2 1_555 1_555
N12_2 C26_4 1_555 1_555
N13_2 C40_4 1_555 1_555
N9_4 C37_4 1_555 1_555
C25_4 C27_4 1_555 1_555
C26_4 C31_4 1_555 1_555
C27_4 O9_4 1_555 1_555
C28_4 O8_4 1_555 1_555
C29_4 C25_4 1_555 1_555
H23_4 C29_4 1_555 1_555
C30_4 C25_4 1_555 1_555
H24_4 C30_4 1_555 1_555
C31_4 H25_4 1_555 1_555
H26_4 C31_4 1_555 1_555
C32_4 N6_4 1_555 1_555
C33_4 C28_4 1_555 1_555
C34_4 C29_4 1_555 1_555
H27_4 C34_4 1_555 1_555
C35_4 N12_2 1_555 1_555
H28_4 C35_4 1_555 1_555
C36_4 N6_4 1_555 1_555
H29_4 C36_4 1_555 1_555
C37_4 C39_4 1_555 1_555
C38_4 C30_4 1_555 1_555
H30_4 C38_4 1_555 1_555
C39_4 H31_4 1_555 1_555
C40_4 N9_4 1_555 1_555
C41_4 C33_4 1_555 1_555
H32_4 C41_4 1_555 1_555
C42_4 C33_4 1_555 1_555
H33_4 C42_4 1_555 1_555
C43_4 N13_2 1_555 1_555
H34_4 C43_4 1_555 1_555
C44_4 N9_4 1_555 1_555
H35_4 C44_4 1_555 1_555
C45_4 C37_4 1_555 1_555
H36_4 C45_4 1_555 1_555
C46_4 C31_4 1_555 1_555
H37_4 C46_4 1_555 1_555
H38_4 C46_4 1_555 1_555
H39_4 C46_4 1_555 1_555
C47_4 C40_4 1_555 1_555
H40_4 C47_4 1_555 1_555
H41_4 C47_4 1_555 1_555
C48_4 C47_4 1_555 1_555
H42_4 C48_4 1_555 1_555
H43_4 C48_4 1_555 1_555
H44_4 C48_4 1_555 1_555
O2_4 Cu5_2 1_555 1_555
C8_4 C14_4 1_555 1_555
C17_4 C21_4 1_555 1_555
O10_4 C28_4 1_555 1_555
O11_4 C27_4 1_555 1_555
C32_4 C34_4 1_555 1_555
C32_4 C38_4 1_555 1_555
C35_4 C36_4 1_555 1_555
C39_4 C42_4 1_555 1_555
C41_4 C45_4 1_555 1_555
C43_4 C44_4 1_555 1_555

#END
