
###############################################################################
#
# This file contains modified crystal structure data generated from the
# MOF subset of the Cambridge Structural Database (CSD) v543 
# hosted by the Cambridge Crystallographic Data Centre (CCDC).
#
# This work is licensed under the Creative Commons
# Attribution-NonCommercial-ShareAlike 4.0 International License.
# To view a copy of this license, visit
# http://creativecommons.org/licenses/by-nc-sa/4.0/
# or send a letter to
# Creative Commons, PO Box 1866, Mountain View, CA 94042, USA.
#
# CIF created using the CSD Python API on 29 September 2022
# The structure has been converted into the P1 space group
# The structure has a 3D framework
# The original CSD entry VESKIQ is in the triclinic crystal system
# The framework has been calculated to contain at least 10.0% void space
# The void calculation uses a probe of radius 1.32A, grid spacing 0.4
#
###############################################################################

data_VESKIQ
_chemical_formula_moiety         '(C146 H96 Cd5 N12 O28 S10)n'
_symmetry_cell_setting           triclinic
_symmetry_space_group_name_H-M   'P 1'
_symmetry_Int_Tables_number      1
_space_group_name_Hall           'P 1'
loop_
_symmetry_equiv_pos_site_id
_symmetry_equiv_pos_as_xyz
1 x,y,z
_cell_length_a                   14.444(4)
_cell_length_b                   17.342(4)
_cell_length_c                   19.351(5)
_cell_angle_alpha                68.318(4)
_cell_angle_beta                 70.484(3)
_cell_angle_gamma                75.994(3)
_cell_volume                     4206.37
loop_
_atom_site_label
_atom_site_type_symbol
_atom_site_fract_x
_atom_site_fract_y
_atom_site_fract_z
_atom_site_U_iso_or_equiv
_atom_site_thermal_displace_type
Cd10 Cd 0.11300(2) 0.06434(2) 0.96156(2) 0.0530 Uani
O30 O 0.09071(19) 0.92210(18) 0.01456(15) 0.0633 Uani
O32 O 0.0053(2) 0.82032(17) 0.05139(16) 0.0663 Uani
C24 C 0.9136(3) 0.1541(3) 0.9682(2) 0.0536 Uani
C25 C 0.82258(16) 0.21773(15) 0.96618(16) 0.0616 Uani
C26 C 0.73042(19) 0.19288(14) 0.98461(15) 0.0640 Uani
C27 C 0.64717(15) 0.25261(19) 0.97900(16) 0.0719 Uani
H16 H 0.585507 0.235983 0.991329 0.0860 Uiso
C28 C 0.65608(18) 0.33721(17) 0.95494(17) 0.0734 Uani
C29 C 0.7482(2) 0.36206(13) 0.93651(17) 0.0834 Uani
H17 H 0.754207 0.418661 0.920418 0.1000 Uiso
C30 C 0.83150(17) 0.30233(17) 0.94213(17) 0.0715 Uani
H18 H 0.893160 0.318960 0.929792 0.0860 Uiso
C31 C 0.5597(2) 0.42883(18) 0.87618(13) 0.0747 Uani
C32 C 0.62026(16) 0.40739(16) 0.81133(16) 0.0742 Uani
H19 H 0.680026 0.372556 0.813498 0.0890 Uiso
C33 C 0.59151(18) 0.43801(17) 0.74325(13) 0.0600 Uani
H20 H 0.632035 0.423670 0.699863 0.0720 Uiso
C34 C 0.5022(2) 0.49008(17) 0.74001(13) 0.0700 Uani
C35 C 0.44161(17) 0.51152(18) 0.80486(17) 0.0889 Uani
H21 H 0.381851 0.546351 0.802694 0.1060 Uiso
C36 C 0.4704(2) 0.4809(2) 0.87294(14) 0.0860 Uani
H22 H 0.429840 0.495238 0.916331 0.1030 Uiso
C37 C 0.4693(3) 0.5184(3) 0.6669(3) 0.0731 Uani
Cd3 Cd 0.500000 0.500000 0.500000 0.0630 Uani
O6 O 0.90929(19) 0.07790(18) 0.98544(15) 0.0633 Uani
O7 O 0.9947(2) 0.17968(17) 0.94861(16) 0.0663 Uani
O8 O 0.5755(2) 0.3992(2) 0.94597(18) 0.0914 Uani
O9 O 0.3839(3) 0.5599(2) 0.6638(2) 0.1086 Uani
O10 O 0.5294(2) 0.50238(17) 0.60838(17) 0.0674 Uani
O14 O 0.3304(2) 0.54442(17) 0.55255(17) 0.0751 Uani
H47 H 0.299624 0.558041 0.518288 0.0900 Uiso
H48 H 0.303614 0.503741 0.588658 0.0900 Uiso
O28 O 0.6696(2) 0.45558(17) 0.44745(17) 0.0751 Uani
H95 H 0.700376 0.441959 0.481712 0.0900 Uiso
H96 H 0.696386 0.496259 0.411342 0.0900 Uiso
N16 N 0.4783(2) 0.3592(2) 0.5692(2) 0.0641 Uani
N17 N 0.5217(2) 0.6408(2) 0.4308(2) 0.0641 Uani
O33 O 0.4706(2) 0.49762(17) 0.39162(17) 0.0674 Uani
Cd8 Cd 0.88700(2) 0.93566(2) 0.03844(2) 0.0530 Uani
C1 C 0.1727(3) 0.3099(3) 0.5878(3) 0.0697 Uani
H1 H 0.118577 0.298747 0.631010 0.0840 Uiso
C2 C 0.2410(3) 0.2423(2) 0.5720(2) 0.0635 Uani
H2 H 0.232975 0.187933 0.604590 0.0760 Uiso
C3 C 0.3229(3) 0.2576(2) 0.5055(2) 0.0577 Uani
C4 C 0.3343(3) 0.3433(3) 0.4625(2) 0.0589 Uani
H3 H 0.388911 0.357331 0.420226 0.0710 Uiso
C5 C 0.2625(3) 0.4050(2) 0.4851(2) 0.0564 Uani
H4 H 0.272296 0.460325 0.457156 0.0680 Uiso
C6 C 0.3967(3) 0.1882(2) 0.4854(2) 0.0557 Uani
C7 C 0.4834(3) 0.1887(3) 0.4297(2) 0.0666 Uani
H5 H 0.506970 0.237340 0.393229 0.0800 Uiso
C8 C 0.5342(3) 0.1079(3) 0.4328(3) 0.0637 Uani
H6 H 0.595358 0.097585 0.399003 0.0770 Uiso
C9 C 0.4855(3) 0.0470(2) 0.4895(2) 0.0575 Uani
C10 C 0.1166(3) 0.6133(2) 0.4425(2) 0.0505 Uani
C11 C 0.1633(3) 0.6769(2) 0.3698(2) 0.0534 Uani
C12 C 0.1345(3) 0.6988(2) 0.3033(2) 0.0526 Uani
H7 H 0.083414 0.675028 0.303188 0.0630 Uiso
C13 C 0.1812(3) 0.7559(2) 0.2374(2) 0.0589 Uani
H8 H 0.162901 0.768936 0.192168 0.0710 Uiso
C14 C 0.2548(3) 0.7942(3) 0.2368(2) 0.0611 Uani
C15 C 0.2865(3) 0.7740(3) 0.3035(2) 0.0718 Uani
H9 H 0.337840 0.798250 0.302719 0.0860 Uiso
C16 C 0.2378(3) 0.7155(2) 0.3719(2) 0.0631 Uani
H10 H 0.254478 0.702616 0.417753 0.0760 Uiso
C17 C 0.3946(3) 0.8657(3) 0.1505(2) 0.0655 Uani
C18 C 0.4150(3) 0.9443(3) 0.1182(3) 0.0754 Uani
H11 H 0.363829 0.988223 0.110809 0.0900 Uiso
C19 C 0.5159(3) 0.9622(3) 0.0943(2) 0.0632 Uani
C20 C 0.5884(3) 0.8952(3) 0.1030(2) 0.0563 Uani
C21 C 0.5692(3) 0.8113(3) 0.1327(2) 0.0691 Uani
H13 H 0.620438 0.766832 0.135572 0.0830 Uiso
C22 C 0.4698(3) 0.7978(3) 0.1576(2) 0.0701 Uani
H14 H 0.454011 0.743422 0.178867 0.0840 Uiso
C23 C 0.6940(3) 0.9138(3) 0.0800(2) 0.0539 Uani
C38 C 0.9252(3) 0.8780(3) 0.2057(2) 0.0607 Uani
H23 H 0.950666 0.828563 0.193531 0.0730 Uiso
C39 C 0.9266(3) 0.8844(3) 0.2767(2) 0.0639 Uani
H24 H 0.954448 0.838880 0.311144 0.0760 Uiso
C40 C 0.8866(3) 0.9578(3) 0.2948(2) 0.0594 Uani
C43 C 0.8784(3) 0.9700(3) 0.3677(2) 0.0709 Uani
C46 C 0.8919(3) 0.9483(3) 0.4985(2) 0.0654 Uani
C47 C 0.9027(3) 0.9237(3) 0.5745(3) 0.0730 Uani
C48 C 0.9520(4) 0.8460(4) 0.6073(3) 0.0926 Uani
H29 H 0.979215 0.804554 0.583698 0.1110 Uiso
C49 C 0.9550(4) 0.8391(4) 0.6805(3) 0.1055 Uani
H30 H 0.985244 0.790340 0.710139 0.1260 Uiso
C50 C 0.9136(4) 0.9034(4) 0.7074(3) 0.0857 Uani
C51 C 0.8682(3) 0.9946(3) 0.8652(2) 0.0666 Uani
C52 C 0.8706(3) 0.9916(3) 0.7929(3) 0.0769 Uani
C53 C 0.9053(4) 0.9202(4) 0.7809(2) 0.0768 Uani
C54 C 0.9473(3) 0.8462(3) 0.8319(3) 0.0806 Uani
H33 H 0.972567 0.796852 0.819561 0.0970 Uiso
C55 C 0.9476(3) 0.8538(3) 0.9013(2) 0.0739 Uani
H34 H 0.974855 0.809518 0.936986 0.0890 Uiso
Cd1 Cd 0.05591(2) 0.48612(2) 0.58585(2) 0.0543 Uani
N1 N 0.1804(2) 0.39163(19) 0.54364(19) 0.0605 Uani
N2 N 0.8857(2) 0.9463(2) 0.15616(17) 0.0544 Uani
N3 N 0.9069(2) 0.9279(2) 0.91515(18) 0.0610 Uani
N6 N 0.0909(3) 0.4257(3) 0.7277(2) 0.0852 Uani
O1 O 0.0487(2) 0.57931(16) 0.44411(15) 0.0646 Uani
O2 O 0.14331(19) 0.59383(16) 0.50247(16) 0.0629 Uani
O3 O 0.2961(2) 0.85451(19) 0.16965(17) 0.0841 Uani
O4 O 0.71609(19) 0.98527(18) 0.04817(16) 0.0644 Uani
O5 O 0.7569(2) 0.84938(18) 0.09609(15) 0.0664 Uani
O11 O 0.0342(2) 0.39058(18) 0.71479(17) 0.0712 Uani
O12 O 0.1250(2) 0.4899(2) 0.67895(17) 0.0789 Uani
O13 O 0.1019(3) 0.4039(2) 0.7981(2) 0.1009 Uani
S1 S 0.37485(7) 0.08554(6) 0.54143(6) 0.0605 Uani
S2 S 0.92693(9) 0.89127(8) 0.43688(6) 0.0734 Uani
S3 S 0.86383(9) 0.97931(8) 0.63851(6) 0.0793 Uani
C136 C 0.5885(3) 0.0302(3) 0.2275(2) 0.0650 Uani
H88 H 0.631771 0.065819 0.188857 0.0780 Uiso
C137 C 0.4960(3) 0.0575(2) 0.2677(2) 0.0596 Uani
C138 C 0.4517(3) 0.1431(3) 0.2611(2) 0.0624 Uani
C139 C 0.4898(3) 0.2190(3) 0.2201(3) 0.0808 Uani
H89 H 0.554229 0.221372 0.188168 0.0970 Uiso
C140 C 0.4255(3) 0.2917(3) 0.2298(3) 0.0907 Uani
H90 H 0.440732 0.345928 0.203449 0.1090 Uiso
C141 C 0.3374(3) 0.2718(2) 0.2830(2) 0.0626 Uani
C142 C 0.1617(3) 0.4619(3) 0.3077(2) 0.0744 Uani
H91 H 0.156947 0.519583 0.283766 0.0900 Uiso
C143 C 0.2443(3) 0.4135(3) 0.2761(2) 0.0714 Uani
H92 H 0.292896 0.438139 0.232799 0.0860 Uiso
C144 C 0.2529(3) 0.3265(2) 0.3108(2) 0.0589 Uani
C145 C 0.1797(3) 0.2944(3) 0.3783(3) 0.0699 Uani
H93 H 0.184067 0.237155 0.404379 0.0830 Uiso
C146 C 0.0969(3) 0.3512(3) 0.4070(3) 0.0709 Uani
H94 H 0.048969 0.330161 0.452434 0.0850 Uiso
N11 N 0.0885(2) 0.4332(2) 0.3693(2) 0.0643 Uani
S10 S 0.33477(7) 0.16406(6) 0.31851(6) 0.0609 Uani
C74 C 0.8273(3) 0.6901(3) 0.4122(3) 0.0697 Uani
H49 H 0.881423 0.701253 0.368990 0.0840 Uiso
C75 C 0.7590(3) 0.7577(2) 0.4280(2) 0.0635 Uani
H50 H 0.767025 0.812067 0.395410 0.0760 Uiso
C76 C 0.6771(3) 0.7424(2) 0.4945(2) 0.0577 Uani
C77 C 0.6657(3) 0.6567(3) 0.5375(2) 0.0589 Uani
H51 H 0.611089 0.642669 0.579774 0.0710 Uiso
C78 C 0.7375(3) 0.5950(2) 0.5149(2) 0.0564 Uani
H52 H 0.727704 0.539675 0.542844 0.0680 Uiso
C79 C 0.6033(3) 0.8118(2) 0.5146(2) 0.0557 Uani
C80 C 0.5166(3) 0.8113(3) 0.5703(2) 0.0666 Uani
H53 H 0.493030 0.762660 0.606771 0.0800 Uiso
C81 C 0.4658(3) 0.8921(3) 0.5672(3) 0.0637 Uani
H54 H 0.404642 0.902415 0.600997 0.0770 Uiso
C82 C 0.5145(3) 0.9530(2) 0.5105(2) 0.0575 Uani
N7 N 0.8196(2) 0.60837(19) 0.45636(19) 0.0605 Uani
S6 S 0.62515(7) 0.91446(6) 0.45857(6) 0.0605 Uani
C129 C 0.4515(3) 0.6976(3) 0.4603(3) 0.0661 Uani
H83 H 0.402906 0.678963 0.506061 0.0800 Uiso
C130 C 0.4524(3) 0.7847(3) 0.4216(2) 0.0637 Uani
H84 H 0.405351 0.823582 0.441802 0.0760 Uiso
C131 C 0.5287(3) 0.8122(2) 0.3493(2) 0.0567 Uani
C132 C 0.6005(3) 0.7486(3) 0.3227(2) 0.0653 Uani
H85 H 0.652375 0.763293 0.278396 0.0780 Uiso
C133 C 0.5916(3) 0.6663(3) 0.3633(3) 0.0664 Uani
H86 H 0.635715 0.625787 0.343608 0.0800 Uiso
C134 C 0.5349(3) 0.9019(3) 0.3088(2) 0.0591 Uani
C135 C 0.6107(3) 0.9416(3) 0.2516(2) 0.0619 Uani
H87 H 0.670767 0.913181 0.230653 0.0740 Uiso
S9 S 0.43655(8) 0.97493(7) 0.33438(6) 0.0641 Uani
Cd6 Cd 0.94409(2) 0.51388(2) 0.41415(2) 0.0543 Uani
C56 C 0.5485(3) 0.3024(3) 0.5397(3) 0.0661 Uani
H35 H 0.597094 0.321037 0.493939 0.0800 Uiso
C57 C 0.5476(3) 0.2153(3) 0.5784(2) 0.0637 Uani
H36 H 0.594649 0.176418 0.558198 0.0760 Uiso
C58 C 0.4713(3) 0.1878(2) 0.6507(2) 0.0567 Uani
C59 C 0.3995(3) 0.2514(3) 0.6773(2) 0.0653 Uani
H37 H 0.347625 0.236707 0.721604 0.0780 Uiso
C60 C 0.4084(3) 0.3337(3) 0.6367(3) 0.0664 Uani
H38 H 0.364285 0.374213 0.656392 0.0800 Uiso
C61 C 0.4651(3) 0.0981(3) 0.6912(2) 0.0591 Uani
C62 C 0.3893(3) 0.0584(3) 0.7484(2) 0.0619 Uani
H39 H 0.329233 0.086819 0.769347 0.0740 Uiso
S4 S 0.56345(8) 0.02507(7) 0.66562(6) 0.0641 Uani
N15 N 0.0931(2) 0.0721(2) 0.08485(18) 0.0610 Uani
C63 C 0.4115(3) 0.9698(3) 0.7725(2) 0.0650 Uani
H40 H 0.368229 0.934181 0.811143 0.0780 Uiso
C64 C 0.5040(3) 0.9425(2) 0.7323(2) 0.0596 Uani
C65 C 0.5483(3) 0.8569(3) 0.7389(2) 0.0624 Uani
C66 C 0.5102(3) 0.7810(3) 0.7799(3) 0.0808 Uani
H41 H 0.445771 0.778628 0.811832 0.0970 Uiso
C67 C 0.5745(3) 0.7083(3) 0.7702(3) 0.0907 Uani
H42 H 0.559268 0.654072 0.796551 0.1090 Uiso
C68 C 0.6626(3) 0.7282(2) 0.7170(2) 0.0626 Uani
C69 C 0.8383(3) 0.5381(3) 0.6923(2) 0.0744 Uani
H43 H 0.843053 0.480417 0.716234 0.0900 Uiso
C70 C 0.7557(3) 0.5865(3) 0.7239(2) 0.0714 Uani
H44 H 0.707104 0.561861 0.767201 0.0860 Uiso
C71 C 0.7471(3) 0.6735(2) 0.6892(2) 0.0589 Uani
C72 C 0.8203(3) 0.7056(3) 0.6217(3) 0.0699 Uani
H45 H 0.815933 0.762845 0.595621 0.0830 Uiso
C73 C 0.9031(3) 0.6488(3) 0.5930(3) 0.0709 Uani
H46 H 0.951031 0.669839 0.547566 0.0850 Uiso
N5 N 0.9115(2) 0.5668(2) 0.6307(2) 0.0643 Uani
S5 S 0.66523(7) 0.83594(6) 0.68149(6) 0.0609 Uani
C83 C 0.8834(3) 0.3867(2) 0.5575(2) 0.0505 Uani
C84 C 0.8367(3) 0.3231(2) 0.6302(2) 0.0534 Uani
C85 C 0.8655(3) 0.3012(2) 0.6967(2) 0.0526 Uani
H55 H 0.916586 0.324972 0.696812 0.0630 Uiso
C86 C 0.8188(3) 0.2441(2) 0.7626(2) 0.0589 Uani
H56 H 0.837099 0.231064 0.807832 0.0710 Uiso
C87 C 0.7452(3) 0.2058(3) 0.7632(2) 0.0611 Uani
C88 C 0.7135(3) 0.2260(3) 0.6965(2) 0.0718 Uani
H57 H 0.662160 0.201750 0.697281 0.0860 Uiso
C89 C 0.7622(3) 0.2845(2) 0.6281(2) 0.0631 Uani
H58 H 0.745522 0.297384 0.582247 0.0760 Uiso
C90 C 0.6054(3) 0.1343(3) 0.8495(2) 0.0655 Uani
C91 C 0.5850(3) 0.0557(3) 0.8818(3) 0.0754 Uani
H59 H 0.636171 0.011777 0.889191 0.0900 Uiso
C92 C 0.4841(3) 0.0378(3) 0.9057(2) 0.0632 Uani
C93 C 0.4116(3) 0.1048(3) 0.8970(2) 0.0563 Uani
C94 C 0.4308(3) 0.1887(3) 0.8673(2) 0.0691 Uani
H61 H 0.379562 0.233168 0.864428 0.0830 Uiso
C95 C 0.5302(3) 0.2022(3) 0.8424(2) 0.0701 Uani
H62 H 0.545989 0.256578 0.821133 0.0840 Uiso
C96 C 0.3060(3) 0.0862(3) 0.9200(2) 0.0539 Uani
C111 C 0.0748(3) 0.1220(3) 0.7943(2) 0.0607 Uani
H71 H 0.049334 0.171437 0.806469 0.0730 Uiso
C112 C 0.0734(3) 0.1156(3) 0.7233(2) 0.0639 Uani
H72 H 0.045552 0.161120 0.688856 0.0760 Uiso
C113 C 0.1134(3) 0.0422(3) 0.7052(2) 0.0594 Uani
C116 C 0.1216(3) 0.0300(3) 0.6323(2) 0.0709 Uani
C119 C 0.1081(3) 0.0517(3) 0.5015(2) 0.0654 Uani
C120 C 0.0973(3) 0.0763(3) 0.4255(3) 0.0730 Uani
C121 C 0.0480(4) 0.1540(4) 0.3927(3) 0.0926 Uani
H77 H 0.020785 0.195446 0.416302 0.1110 Uiso
C122 C 0.0450(4) 0.1609(4) 0.3195(3) 0.1055 Uani
H78 H 0.014756 0.209660 0.289861 0.1260 Uiso
C123 C 0.0864(4) 0.0966(4) 0.2926(3) 0.0857 Uani
C124 C 0.1318(3) 0.0054(3) 0.1348(2) 0.0666 Uani
C125 C 0.1294(3) 0.0084(3) 0.2071(3) 0.0769 Uani
C126 C 0.0947(4) 0.0798(4) 0.2191(2) 0.0768 Uani
C127 C 0.0527(3) 0.1538(3) 0.1681(3) 0.0806 Uani
H81 H 0.027433 0.203148 0.180439 0.0970 Uiso
C128 C 0.0524(3) 0.1462(3) 0.0987(2) 0.0739 Uani
H82 H 0.025145 0.190482 0.063014 0.0890 Uiso
N8 N 0.1143(2) 0.0537(2) 0.84384(17) 0.0544 Uani
N12 N 0.9091(3) 0.5743(3) 0.2723(2) 0.0852 Uani
O15 O 0.9513(2) 0.42069(16) 0.55589(15) 0.0646 Uani
O16 O 0.85669(19) 0.40617(16) 0.49753(16) 0.0629 Uani
O17 O 0.7039(2) 0.14549(19) 0.83035(17) 0.0841 Uani
O18 O 0.28391(19) 0.01473(18) 0.95183(16) 0.0644 Uani
O19 O 0.2431(2) 0.15062(18) 0.90391(15) 0.0664 Uani
O25 O 0.9658(2) 0.60942(18) 0.28521(17) 0.0712 Uani
O26 O 0.8750(2) 0.5101(2) 0.32105(17) 0.0789 Uani
O27 O 0.8981(3) 0.5961(2) 0.2019(2) 0.1009 Uani
S7 S 0.07307(9) 0.10873(8) 0.56312(6) 0.0734 Uani
S8 S 0.13617(9) 0.02069(8) 0.36149(6) 0.0793 Uani
C97 C 0.0864(3) 0.8459(3) 0.0318(2) 0.0536 Uani
C98 C 0.17742(16) 0.78227(15) 0.03382(16) 0.0616 Uani
C99 C 0.26958(19) 0.80712(14) 0.01539(15) 0.0640 Uani
C100 C 0.35283(15) 0.74739(19) 0.02100(16) 0.0719 Uani
H64 H 0.414493 0.764017 0.008671 0.0860 Uiso
C101 C 0.34392(18) 0.66279(17) 0.04506(17) 0.0734 Uani
C102 C 0.2518(2) 0.63794(13) 0.06349(17) 0.0834 Uani
H65 H 0.245793 0.581339 0.079582 0.1000 Uiso
C103 C 0.16850(17) 0.69767(17) 0.05787(17) 0.0715 Uani
H66 H 0.106840 0.681040 0.070208 0.0860 Uiso
C104 C 0.4403(2) 0.57117(18) 0.12382(13) 0.0747 Uani
C105 C 0.37974(16) 0.59261(16) 0.18867(16) 0.0742 Uani
H67 H 0.319974 0.627444 0.186502 0.0890 Uiso
C106 C 0.40849(18) 0.56199(17) 0.25675(13) 0.0600 Uani
H68 H 0.367965 0.576330 0.300137 0.0720 Uiso
C107 C 0.4978(2) 0.50992(17) 0.25999(13) 0.0700 Uani
C108 C 0.55839(17) 0.48848(18) 0.19514(17) 0.0889 Uani
H69 H 0.618149 0.453649 0.197306 0.1060 Uiso
C109 C 0.5296(2) 0.5191(2) 0.12706(14) 0.0860 Uani
H70 H 0.570160 0.504762 0.083669 0.1030 Uiso
C110 C 0.5307(3) 0.4816(3) 0.3331(3) 0.0731 Uani
O22 O 0.4245(2) 0.6008(2) 0.05403(18) 0.0914 Uani
O23 O 0.6161(3) 0.4401(2) 0.3362(2) 0.1086 Uani
H12 H 0.530564 0.016892 0.074069 0.0760 Uiso
H15 H 0.724458 0.136281 0.000704 0.0760 Uiso
C41 C 0.8457(3) 0.0255(3) 0.2416(2) 0.0639 Uani
H25 H 0.815691 0.074930 0.252907 0.0770 Uiso
C42 C 0.8511(3) 0.0172(3) 0.1727(2) 0.0642 Uani
H26 H 0.829255 0.063690 0.135621 0.0770 Uiso
C44 C 0.8384(3) 0.0328(4) 0.3950(3) 0.0943 Uani
H27 H 0.806933 0.081054 0.365788 0.1130 Uiso
C45 C 0.8424(3) 0.0279(3) 0.4650(3) 0.0826 Uani
H28 H 0.816746 0.070089 0.487801 0.0990 Uiso
H31 H 0.839657 0.043085 0.878483 0.0800 Uiso
H32 H 0.848582 0.038196 0.755936 0.0920 Uiso
H60 H 0.469436 0.983108 0.925931 0.0760 Uiso
H63 H 0.275542 0.863719 0.999296 0.0760 Uiso
C114 C 0.1543(3) 0.9745(3) 0.7584(2) 0.0639 Uani
H73 H 0.184309 0.925070 0.747093 0.0770 Uiso
C115 C 0.1489(3) 0.9828(3) 0.8273(2) 0.0642 Uani
H74 H 0.170745 0.936310 0.864379 0.0770 Uiso
C117 C 0.1616(3) 0.9672(4) 0.6050(3) 0.0943 Uani
H75 H 0.193067 0.918946 0.634212 0.1130 Uiso
C118 C 0.1576(3) 0.9721(3) 0.5350(3) 0.0826 Uani
H76 H 0.183254 0.929911 0.512199 0.0990 Uiso
H79 H 0.160343 0.956915 0.121517 0.0800 Uiso
H80 H 0.151418 0.961804 0.244064 0.0920 Uiso
loop_
_atom_site_aniso_label
_atom_site_aniso_U_11
_atom_site_aniso_U_22
_atom_site_aniso_U_33
_atom_site_aniso_U_23
_atom_site_aniso_U_13
_atom_site_aniso_U_12
Cd10 0.04654 0.0747 0.04245 -0.01781 -0.01361 -0.01533
O30 0.054 0.069 0.0574 -0.0128 -0.0074 -0.0137
O32 0.0568 0.0748 0.0696 -0.021 -0.0204 -0.0111
C24 0.058 0.068 0.033 -0.0037 -0.0192 -0.015
C25 0.056 0.067 0.055 -0.013 -0.018 -0.002
C26 0.056 0.073 0.055 -0.008 -0.018 -0.01
C27 0.051 0.093 0.062 -0.012 -0.015 -0.013
C28 0.067 0.068 0.068 -0.018 -0.019 0.017
C29 0.078 0.068 0.083 -0.012 -0.024 0.012
C30 0.07 0.06 0.084 -0.016 -0.025 -0.013
C31 0.081 0.073 0.062 -0.005 -0.025 -0.014
C32 0.06 0.075 0.065 -0.016 -0.018 0.023
C33 0.049 0.065 0.066 -0.023 -0.011 -0.0108
C34 0.069 0.065 0.076 -0.017 -0.029 -0.004
C35 0.068 0.098 0.088 -0.036 -0.029 0.033
C36 0.073 0.102 0.074 -0.037 -0.027 0.029
C37 0.068 0.071 0.081 -0.028 -0.031 0.011
Cd3 0.055 0.0588 0.0784 -0.0176 -0.0264 -0.0083
O6 0.054 0.069 0.0574 -0.0128 -0.0074 -0.0137
O7 0.0568 0.0748 0.0696 -0.021 -0.0204 -0.0111
O8 0.079 0.105 0.078 -0.0293 -0.0324 0.0255
O9 0.087 0.132 0.099 -0.046 -0.042 0.038
O10 0.0612 0.0731 0.0719 -0.0188 -0.0202 -0.0198
O14 0.0625 0.073 0.091 -0.0185 -0.0319 -0.0073
O28 0.0625 0.073 0.091 -0.0185 -0.0319 -0.0073
N16 0.059 0.068 0.067 -0.017 -0.0242 -0.0083
N17 0.059 0.068 0.067 -0.017 -0.0242 -0.0083
O33 0.0612 0.0731 0.0719 -0.0188 -0.0202 -0.0198
Cd8 0.04654 0.0747 0.04245 -0.01781 -0.01361 -0.01533
C1 0.06 0.065 0.077 -0.021 -0.008 -0.013
C2 0.051 0.051 0.074 -0.012 -0.01 -0.0034
C3 0.048 0.054 0.073 -0.021 -0.022 -0.0007
C4 0.048 0.07 0.058 -0.02 -0.0087 -0.015
C5 0.051 0.059 0.056 -0.015 -0.011 -0.0117
C6 0.047 0.058 0.07 -0.025 -0.019 -0.009
C7 0.057 0.073 0.063 -0.018 -0.01 -0.011
C8 0.055 0.059 0.076 -0.027 -0.016 0.001
C9 0.053 0.063 0.059 -0.02 -0.016 -0.01
C10 0.044 0.053 0.055 -0.0217 -0.0058 -0.0109
C11 0.039 0.055 0.058 -0.0134 -0.0046 -0.011
C12 0.041 0.065 0.053 -0.0127 -0.0158 -0.0146
C13 0.049 0.078 0.053 -0.013 -0.0221 -0.015
C14 0.055 0.07 0.055 0.001 -0.024 -0.023
C15 0.062 0.083 0.073 -0.005 -0.025 -0.036
C16 0.062 0.068 0.068 -0.011 -0.031 -0.022
C17 0.053 0.075 0.06 0.001 -0.016 -0.028
C18 0.054 0.091 0.075 -0.003 -0.025 -0.025
C19 0.051 0.07 0.058 -0.005 -0.011 -0.019
C20 0.051 0.064 0.056 -0.009 -0.0177 -0.023
C21 0.055 0.076 0.072 -0.009 -0.021 -0.019
C22 0.061 0.067 0.075 -0.005 -0.021 -0.02
C23 0.052 0.067 0.051 -0.02 -0.0195 -0.013
C38 0.063 0.072 0.049 -0.015 -0.018 -0.015
C39 0.063 0.074 0.051 -0.005 -0.022 -0.017
C40 0.058 0.078 0.049 -0.018 -0.0141 -0.025
C43 0.069 0.1 0.052 -0.016 -0.015 -0.041
C46 0.075 0.086 0.046 -0.016 -0.017 -0.037
C47 0.077 0.092 0.062 -0.022 -0.029 -0.022
C48 0.097 0.126 0.069 -0.036 -0.035 -0.014
C49 0.09 0.171 0.099 -0.084 -0.003 -0.061
C50 0.087 0.133 0.062 -0.033 -0.02 -0.056
C51 0.069 0.083 0.051 -0.016 -0.022 -0.016
C52 0.076 0.098 0.062 -0.019 -0.026 -0.021
C53 0.079 0.109 0.051 -0.014 -0.017 -0.047
C54 0.078 0.099 0.075 -0.039 -0.01 -0.027
C55 0.086 0.081 0.063 -0.033 -0.034 0.01
Cd1 0.04828 0.05492 0.05647 -0.015 -0.01139 -0.00917
N1 0.053 0.048 0.075 -0.0133 -0.0144 -0.0108
N2 0.0489 0.073 0.0479 -0.0175 -0.0188 -0.0144
N3 0.058 0.08 0.05 -0.0205 -0.0147 -0.0182
N6 0.093 0.103 0.063 -0.015 -0.029 -0.026
O1 0.0607 0.061 0.0709 -0.0188 -0.0149 -0.0137
O2 0.0618 0.0597 0.0572 -0.0098 -0.0092 -0.0142
O3 0.0599 0.098 0.068 0.0258 -0.0289 -0.0305
O4 0.0528 0.072 0.0687 -0.0186 -0.0129 -0.0199
O5 0.0551 0.078 0.0645 -0.0125 -0.0152 -0.0235
O11 0.0649 0.073 0.078 -0.0175 -0.0238 -0.0173
O12 0.082 0.092 0.064 -0.0041 -0.0268 -0.037
O13 0.097 0.113 0.098 -0.034 -0.019 -0.033
S1 0.0528 0.0564 0.07 -0.0205 -0.0139 -0.0063
S2 0.0842 0.0907 0.056 -0.023 -0.0218 -0.0274
S3 0.0816 0.1113 0.0554 -0.0233 -0.0209 -0.0332
C136 0.06 0.067 0.066 -0.02 -0.012 -0.014
C137 0.058 0.057 0.064 -0.023 -0.013 -0.007
C138 0.052 0.062 0.068 -0.021 -0.007 -0.011
C139 0.064 0.072 0.081 -0.014 0.007 -0.018
C140 0.069 0.057 0.101 -0.02 0.017 0.007
C141 0.059 0.055 0.067 -0.02 -0.014 0.001
C142 0.072 0.062 0.06 -0.014 0.017 -0.015
C143 0.069 0.064 0.063 -0.015 -0.003 -0.006
C144 0.052 0.058 0.063 -0.019 -0.005 -0.0159
C145 0.058 0.059 0.081 -0.016 -0.009 -0.011
C146 0.064 0.063 0.072 -0.019 0 -0.014
N11 0.062 0.065 0.061 -0.0179 -0.0079 -0.0157
S10 0.0545 0.0565 0.0671 -0.0193 -0.0082 -0.0113
C74 0.06 0.065 0.077 -0.021 -0.008 -0.013
C75 0.051 0.051 0.074 -0.012 -0.01 -0.0034
C76 0.048 0.054 0.073 -0.021 -0.022 -0.0007
C77 0.048 0.07 0.058 -0.02 -0.0087 -0.015
C78 0.051 0.059 0.056 -0.015 -0.011 -0.0117
C79 0.047 0.058 0.07 -0.025 -0.019 -0.009
C80 0.057 0.073 0.063 -0.018 -0.01 -0.011
C81 0.055 0.059 0.076 -0.027 -0.016 0.001
C82 0.053 0.063 0.059 -0.02 -0.016 -0.01
N7 0.053 0.048 0.075 -0.0133 -0.0144 -0.0108
S6 0.0528 0.0564 0.07 -0.0205 -0.0139 -0.0063
C129 0.059 0.061 0.083 -0.03 -0.027 0.006
C130 0.058 0.07 0.072 -0.029 -0.021 -0.009
C131 0.056 0.064 0.06 -0.024 -0.024 -0.007
C132 0.056 0.056 0.073 -0.019 -0.015 0.006
C133 0.055 0.064 0.081 -0.022 -0.024 -0.003
C134 0.062 0.06 0.054 -0.023 -0.022 0.011
C135 0.059 0.069 0.058 -0.025 -0.012 -0.007
S9 0.0538 0.0595 0.0708 -0.0195 -0.0089 -0.0062
Cd6 0.04828 0.05492 0.05647 -0.015 -0.01139 -0.00917
C56 0.059 0.061 0.083 -0.03 -0.027 0.006
C57 0.058 0.07 0.072 -0.029 -0.021 -0.009
C58 0.056 0.064 0.06 -0.024 -0.024 -0.007
C59 0.056 0.056 0.073 -0.019 -0.015 0.006
C60 0.055 0.064 0.081 -0.022 -0.024 -0.003
C61 0.062 0.06 0.054 -0.023 -0.022 0.011
C62 0.059 0.069 0.058 -0.025 -0.012 -0.007
S4 0.0538 0.0595 0.0708 -0.0195 -0.0089 -0.0062
N15 0.058 0.08 0.05 -0.0205 -0.0147 -0.0182
C63 0.06 0.067 0.066 -0.02 -0.012 -0.014
C64 0.058 0.057 0.064 -0.023 -0.013 -0.007
C65 0.052 0.062 0.068 -0.021 -0.007 -0.011
C66 0.064 0.072 0.081 -0.014 0.007 -0.018
C67 0.069 0.057 0.101 -0.02 0.017 0.007
C68 0.059 0.055 0.067 -0.02 -0.014 0.001
C69 0.072 0.062 0.06 -0.014 0.017 -0.015
C70 0.069 0.064 0.063 -0.015 -0.003 -0.006
C71 0.052 0.058 0.063 -0.019 -0.005 -0.0159
C72 0.058 0.059 0.081 -0.016 -0.009 -0.011
C73 0.064 0.063 0.072 -0.019 0 -0.014
N5 0.062 0.065 0.061 -0.0179 -0.0079 -0.0157
S5 0.0545 0.0565 0.0671 -0.0193 -0.0082 -0.0113
C83 0.044 0.053 0.055 -0.0217 -0.0058 -0.0109
C84 0.039 0.055 0.058 -0.0134 -0.0046 -0.011
C85 0.041 0.065 0.053 -0.0127 -0.0158 -0.0146
C86 0.049 0.078 0.053 -0.013 -0.0221 -0.015
C87 0.055 0.07 0.055 0.001 -0.024 -0.023
C88 0.062 0.083 0.073 -0.005 -0.025 -0.036
C89 0.062 0.068 0.068 -0.011 -0.031 -0.022
C90 0.053 0.075 0.06 0.001 -0.016 -0.028
C91 0.054 0.091 0.075 -0.003 -0.025 -0.025
C92 0.051 0.07 0.058 -0.005 -0.011 -0.019
C93 0.051 0.064 0.056 -0.009 -0.0177 -0.023
C94 0.055 0.076 0.072 -0.009 -0.021 -0.019
C95 0.061 0.067 0.075 -0.005 -0.021 -0.02
C96 0.052 0.067 0.051 -0.02 -0.0195 -0.013
C111 0.063 0.072 0.049 -0.015 -0.018 -0.015
C112 0.063 0.074 0.051 -0.005 -0.022 -0.017
C113 0.058 0.078 0.049 -0.018 -0.0141 -0.025
C116 0.069 0.1 0.052 -0.016 -0.015 -0.041
C119 0.075 0.086 0.046 -0.016 -0.017 -0.037
C120 0.077 0.092 0.062 -0.022 -0.029 -0.022
C121 0.097 0.126 0.069 -0.036 -0.035 -0.014
C122 0.09 0.171 0.099 -0.084 -0.003 -0.061
C123 0.087 0.133 0.062 -0.033 -0.02 -0.056
C124 0.069 0.083 0.051 -0.016 -0.022 -0.016
C125 0.076 0.098 0.062 -0.019 -0.026 -0.021
C126 0.079 0.109 0.051 -0.014 -0.017 -0.047
C127 0.078 0.099 0.075 -0.039 -0.01 -0.027
C128 0.086 0.081 0.063 -0.033 -0.034 0.01
N8 0.0489 0.073 0.0479 -0.0175 -0.0188 -0.0144
N12 0.093 0.103 0.063 -0.015 -0.029 -0.026
O15 0.0607 0.061 0.0709 -0.0188 -0.0149 -0.0137
O16 0.0618 0.0597 0.0572 -0.0098 -0.0092 -0.0142
O17 0.0599 0.098 0.068 0.0258 -0.0289 -0.0305
O18 0.0528 0.072 0.0687 -0.0186 -0.0129 -0.0199
O19 0.0551 0.078 0.0645 -0.0125 -0.0152 -0.0235
O25 0.0649 0.073 0.078 -0.0175 -0.0238 -0.0173
O26 0.082 0.092 0.064 -0.0041 -0.0268 -0.037
O27 0.097 0.113 0.098 -0.034 -0.019 -0.033
S7 0.0842 0.0907 0.056 -0.023 -0.0218 -0.0274
S8 0.0816 0.1113 0.0554 -0.0233 -0.0209 -0.0332
C97 0.058 0.068 0.033 -0.0037 -0.0192 -0.015
C98 0.056 0.067 0.055 -0.013 -0.018 -0.002
C99 0.056 0.073 0.055 -0.008 -0.018 -0.01
C100 0.051 0.093 0.062 -0.012 -0.015 -0.013
C101 0.067 0.068 0.068 -0.018 -0.019 0.017
C102 0.078 0.068 0.083 -0.012 -0.024 0.012
C103 0.07 0.06 0.084 -0.016 -0.025 -0.013
C104 0.081 0.073 0.062 -0.005 -0.025 -0.014
C105 0.06 0.075 0.065 -0.016 -0.018 0.023
C106 0.049 0.065 0.066 -0.023 -0.011 -0.0108
C107 0.069 0.065 0.076 -0.017 -0.029 -0.004
C108 0.068 0.098 0.088 -0.036 -0.029 0.033
C109 0.073 0.102 0.074 -0.037 -0.027 0.029
C110 0.068 0.071 0.081 -0.028 -0.031 0.011
O22 0.079 0.105 0.078 -0.0293 -0.0324 0.0255
O23 0.087 0.132 0.099 -0.046 -0.042 0.038
C41 0.062 0.085 0.052 -0.031 -0.009 -0.017
C42 0.065 0.073 0.052 -0.017 -0.016 -0.009
C44 0.083 0.156 0.073 -0.084 0.025 -0.057
C45 0.08 0.108 0.064 -0.028 -0.02 -0.018
C114 0.062 0.085 0.052 -0.031 -0.009 -0.017
C115 0.065 0.073 0.052 -0.017 -0.016 -0.009
C117 0.083 0.156 0.073 -0.084 0.025 -0.057
C118 0.08 0.108 0.064 -0.028 -0.02 -0.018
loop_
_geom_bond_atom_site_label_1
_geom_bond_atom_site_label_2
_geom_bond_site_symmetry_1
_geom_bond_site_symmetry_2
C24 C25 1_555 1_555
C25 C26 1_555 1_555
C27 C26 1_555 1_555
H16 C27 1_555 1_555
C28 C27 1_555 1_555
C29 C28 1_555 1_555
H17 C29 1_555 1_555
C30 C25 1_555 1_555
H18 C30 1_555 1_555
C31 C32 1_555 1_555
C32 H19 1_555 1_555
C33 C32 1_555 1_555
H20 C33 1_555 1_555
C34 C33 1_555 1_555
C35 C34 1_555 1_555
H21 C35 1_555 1_555
C36 C31 1_555 1_555
H22 C36 1_555 1_555
C37 C34 1_555 1_555
Cd3 O10 1_555 1_555
O6 C24 1_555 1_555
O7 C24 1_555 1_555
O8 C28 1_555 1_555
O9 C37 1_555 1_555
O10 C37 1_555 1_555
O14 Cd3 1_555 1_555
H47 O14 1_555 1_555
H48 O14 1_555 1_555
O28 Cd3 1_555 1_555
H95 O28 1_555 1_555
H96 O28 1_555 1_555
N16 Cd3 1_555 1_555
N17 Cd3 1_555 1_555
O33 Cd3 1_555 1_555
C29 C30 1_555 1_555
C31 O8 1_555 1_555
C35 C36 1_555 1_555
C1 H1 1_555 1_555
C2 C1 1_555 1_555
H2 C2 1_555 1_555
C3 C2 1_555 1_555
C4 C3 1_555 1_555
H3 C4 1_555 1_555
C5 C4 1_555 1_555
H4 C5 1_555 1_555
C6 C3 1_555 1_555
C7 C6 1_555 1_555
H5 C7 1_555 1_555
C8 C7 1_555 1_555
H6 C8 1_555 1_555
C9 C8 1_555 1_555
C10 C11 1_555 1_555
C11 C12 1_555 1_555
C12 H7 1_555 1_555
C13 C12 1_555 1_555
H8 C13 1_555 1_555
C14 C13 1_555 1_555
C15 C14 1_555 1_555
H9 C15 1_555 1_555
C16 C11 1_555 1_555
H10 C16 1_555 1_555
C17 C18 1_555 1_555
C18 H11 1_555 1_555
C19 C18 1_555 1_555
C20 C19 1_555 1_555
C21 C20 1_555 1_555
H13 C21 1_555 1_555
C22 C17 1_555 1_555
H14 C22 1_555 1_555
C23 C20 1_555 1_555
C38 H23 1_555 1_555
C39 C38 1_555 1_555
H24 C39 1_555 1_555
C40 C39 1_555 1_555
C43 C40 1_555 1_555
C47 C46 1_555 1_555
C48 C47 1_555 1_555
H29 C48 1_555 1_555
C49 C48 1_555 1_555
H30 C49 1_555 1_555
C50 C49 1_555 1_555
C52 C51 1_555 1_555
C53 C50 1_555 1_555
C54 C53 1_555 1_555
H33 C54 1_555 1_555
C55 C54 1_555 1_555
H34 C55 1_555 1_555
Cd1 N1 1_555 1_555
Cd8 N2 1_555 1_555
N1 C1 1_555 1_555
N2 C38 1_555 1_555
N3 C51 1_555 1_555
N6 O11 1_555 1_555
O1 C10 1_555 1_555
O2 C10 1_555 1_555
O3 C14 1_555 1_555
O4 C23 1_555 1_555
O5 C23 1_555 1_555
O11 Cd1 1_555 1_555
O12 Cd1 1_555 1_555
O13 N6 1_555 1_555
S1 C6 1_555 1_555
S2 C43 1_555 1_555
S3 C47 1_555 1_555
H88 C136 1_555 1_555
C137 C136 1_555 1_555
C138 C137 1_555 1_555
C139 C138 1_555 1_555
H89 C139 1_555 1_555
C140 C139 1_555 1_555
H90 C140 1_555 1_555
C141 C140 1_555 1_555
C142 H91 1_555 1_555
C143 C142 1_555 1_555
H92 C143 1_555 1_555
C144 C141 1_555 1_555
C145 C144 1_555 1_555
H93 C145 1_555 1_555
C146 C145 1_555 1_555
H94 C146 1_555 1_555
N11 C142 1_555 1_555
S10 C138 1_555 1_555
C5 N1 1_555 1_555
C9 S1 1_555 1_555
C15 C16 1_555 1_555
C17 O3 1_555 1_555
C21 C22 1_555 1_555
C46 S2 1_555 1_555
C50 S3 1_555 1_555
C52 C53 1_555 1_555
C55 N3 1_555 1_555
Cd1 O1 1_555 1_555
Cd1 O2 1_555 1_555
Cd8 O4 1_555 1_555
Cd8 O5 1_555 1_555
N6 O12 1_555 1_555
C141 S10 1_555 1_555
C143 C144 1_555 1_555
C146 N11 1_555 1_555
C74 H49 1_555 1_555
C75 C74 1_555 1_555
H50 C75 1_555 1_555
C76 C75 1_555 1_555
C77 C76 1_555 1_555
H51 C77 1_555 1_555
C78 C77 1_555 1_555
H52 C78 1_555 1_555
C79 C76 1_555 1_555
C80 C79 1_555 1_555
H53 C80 1_555 1_555
C81 C80 1_555 1_555
H54 C81 1_555 1_555
N7 C74 1_555 1_555
S6 C79 1_555 1_555
C129 H83 1_555 1_555
C130 C129 1_555 1_555
H84 C130 1_555 1_555
C131 C130 1_555 1_555
C132 C131 1_555 1_555
H85 C132 1_555 1_555
C133 C132 1_555 1_555
H86 C133 1_555 1_555
C134 C131 1_555 1_555
C135 C134 1_555 1_555
H87 C135 1_555 1_555
N17 C129 1_555 1_555
S9 C134 1_555 1_555
Cd6 N7 1_555 1_555
C78 N7 1_555 1_555
C81 C82 1_555 1_555
C82 S6 1_555 1_555
C133 N17 1_555 1_555
C56 H35 1_555 1_555
C57 C56 1_555 1_555
H36 C57 1_555 1_555
C58 C57 1_555 1_555
C59 C58 1_555 1_555
H37 C59 1_555 1_555
C60 C59 1_555 1_555
H38 C60 1_555 1_555
C61 C58 1_555 1_555
C62 C61 1_555 1_555
H39 C62 1_555 1_555
N16 C56 1_555 1_555
S4 C61 1_555 1_555
C60 N16 1_555 1_555
H40 C63 1_555 1_555
C64 C63 1_555 1_555
C65 C64 1_555 1_555
C66 C65 1_555 1_555
H41 C66 1_555 1_555
C67 C66 1_555 1_555
H42 C67 1_555 1_555
C68 C67 1_555 1_555
C69 H43 1_555 1_555
C70 C69 1_555 1_555
H44 C70 1_555 1_555
C71 C68 1_555 1_555
C72 C71 1_555 1_555
H45 C72 1_555 1_555
C73 C72 1_555 1_555
H46 C73 1_555 1_555
N5 C69 1_555 1_555
S5 C65 1_555 1_555
C83 C84 1_555 1_555
C84 C85 1_555 1_555
C85 H55 1_555 1_555
C86 C85 1_555 1_555
H56 C86 1_555 1_555
C87 C86 1_555 1_555
C88 C87 1_555 1_555
H57 C88 1_555 1_555
C89 C84 1_555 1_555
H58 C89 1_555 1_555
C90 C91 1_555 1_555
C91 H59 1_555 1_555
C92 C91 1_555 1_555
C93 C92 1_555 1_555
C94 C93 1_555 1_555
H61 C94 1_555 1_555
C95 C90 1_555 1_555
H62 C95 1_555 1_555
C96 C93 1_555 1_555
C111 H71 1_555 1_555
C112 C111 1_555 1_555
H72 C112 1_555 1_555
C113 C112 1_555 1_555
C116 C113 1_555 1_555
C120 C119 1_555 1_555
C121 C120 1_555 1_555
H77 C121 1_555 1_555
C122 C121 1_555 1_555
H78 C122 1_555 1_555
C123 C122 1_555 1_555
C125 C124 1_555 1_555
C126 C123 1_555 1_555
C127 C126 1_555 1_555
H81 C127 1_555 1_555
C128 C127 1_555 1_555
H82 C128 1_555 1_555
Cd10 N8 1_555 1_555
N8 C111 1_555 1_555
N15 C124 1_555 1_555
N12 O25 1_555 1_555
O16 C83 1_555 1_555
O17 C87 1_555 1_555
O18 C96 1_555 1_555
O19 C96 1_555 1_555
O25 Cd6 1_555 1_555
O26 Cd6 1_555 1_555
O27 N12 1_555 1_555
S7 C116 1_555 1_555
S8 C120 1_555 1_555
C68 S5 1_555 1_555
C70 C71 1_555 1_555
C73 N5 1_555 1_555
C83 O15 1_555 1_555
C88 C89 1_555 1_555
C90 O17 1_555 1_555
C94 C95 1_555 1_555
C119 S7 1_555 1_555
C123 S8 1_555 1_555
C125 C126 1_555 1_555
C128 N15 1_555 1_555
Cd6 O15 1_555 1_555
Cd6 O16 1_555 1_555
Cd10 O18 1_555 1_555
Cd10 O19 1_555 1_555
N12 O26 1_555 1_555
C97 C98 1_555 1_555
C98 C99 1_555 1_555
C100 C99 1_555 1_555
H64 C100 1_555 1_555
C101 C100 1_555 1_555
C102 C101 1_555 1_555
H65 C102 1_555 1_555
C103 C98 1_555 1_555
H66 C103 1_555 1_555
C104 C105 1_555 1_555
C105 H67 1_555 1_555
C106 C105 1_555 1_555
H68 C106 1_555 1_555
C107 C106 1_555 1_555
C108 C107 1_555 1_555
H69 C108 1_555 1_555
C109 C104 1_555 1_555
H70 C109 1_555 1_555
C110 C107 1_555 1_555
O30 C97 1_555 1_555
O32 C97 1_555 1_555
O22 C101 1_555 1_555
O23 C110 1_555 1_555
O33 C110 1_555 1_555
C102 C103 1_555 1_555
C104 O22 1_555 1_555
C108 C109 1_555 1_555
H25 C41 1_555 1_555
C42 C41 1_555 1_555
H26 C42 1_555 1_555
H27 C44 1_555 1_555
C45 C44 1_555 1_555
H28 C45 1_555 1_555
H73 C114 1_555 1_555
C115 C114 1_555 1_555
H74 C115 1_555 1_555
H75 C117 1_555 1_555
C118 C117 1_555 1_555
H76 C118 1_555 1_555

#END
