
###############################################################################
#
# This file contains modified crystal structure data generated from the
# MOF subset of the Cambridge Structural Database (CSD) v543 
# hosted by the Cambridge Crystallographic Data Centre (CCDC).
#
# This work is licensed under the Creative Commons
# Attribution-NonCommercial-ShareAlike 4.0 International License.
# To view a copy of this license, visit
# http://creativecommons.org/licenses/by-nc-sa/4.0/
# or send a letter to
# Creative Commons, PO Box 1866, Mountain View, CA 94042, USA.
#
# CIF created using the CSD Python API on 29 September 2022
# The structure has been converted into the P1 space group
# The structure has a 3D framework
# The original CSD entry VETMIS is in the hexagonal crystal system
# The original CSD entry VETMIS is in a Sohncke space group
# The framework has been calculated to contain at least 10.0% void space
# The void calculation uses a probe of radius 1.32A, grid spacing 0.4
# H atom positions have been added when not included in the experimental data
#
###############################################################################

data_VETMIS
_chemical_formula_moiety         '(C360 H228 Cu12 N12 O52)n'
_symmetry_cell_setting           triclinic
_symmetry_space_group_name_H-M   'P 1'
_symmetry_Int_Tables_number      1
_space_group_name_Hall           'P 1'
loop_
_symmetry_equiv_pos_site_id
_symmetry_equiv_pos_as_xyz
1 x,y,z
_cell_length_a                   43.252(10)
_cell_length_b                   43.252(10)
_cell_length_c                   20.463(6)
_cell_angle_alpha                90
_cell_angle_beta                 90
_cell_angle_gamma                120
_cell_volume                     33152.2
loop_
_atom_site_label
_atom_site_type_symbol
_atom_site_fract_x
_atom_site_fract_y
_atom_site_fract_z
Cu8 Cu 0.02737(11) 0.68087(8) 0.0487(2)
Cu10 Cu 0.02737(11) 0.34650(8) 0.4513(2)
Cu1 Cu 0.31913(8) 0.34650(8) 0.0487(2)
C1 C 0.4197(5) 0.3715(4) 0.1107(10)
C2 C 0.4505(7) 0.3724(4) 0.0886(7)
H1 H 0.4508 0.3633 0.0476
C3 C 0.4808(5) 0.3869(4) 0.1277(10)
C4 C 0.4803(4) 0.4005(4) 0.1890(10)
C5 C 0.4495(5) 0.3996(4) 0.2111(8)
H2 H 0.4492 0.4087 0.2522
C6 C 0.4192(4) 0.3851(4) 0.1720(11)
H3 H 0.3986 0.3845 0.1869
C7 C 0.5098(8) 0.3858(8) 0.1070(13)
H4 H 0.5112 0.3756 0.0679
C8 C 0.5408(5) 0.4040(6) 0.1580(14)
H5 H 0.5634 0.4084 0.1465
C9 C 0.5888(7) 0.4112(7) 0.2500
C10 C 0.6262(6) 0.4255(6) 0.2308(10)
H6 H 0.6385 0.4482 0.2126
C11 C 0.6436(5) 0.4066(6) 0.2387(9)
H7 H 0.6684 0.4200 0.2361
C12 C 0.6296(5) 0.3704(5) 0.2500
C13 C 0.6498(5) 0.3502(5) 0.2500
C14 C 0.6877(3) 0.3754(7) 0.2500
H8 H 0.7001 0.4002 0.2500
C24 C 0.3892(5) 0.3545(4) 0.0617(11)
N1 N 0.5708(4) 0.4292(4) 0.2500
O3 O 0.2990(5) 0.3669(5) 0.1252(10)
O4 O 0.3637(4) 0.3615(2) 0.0955(6)
O5 O 0.3884(4) 0.3424(4) 0.0008(12)
C26 C 0.5079(5) 0.4121(6) 0.2437(14)
H14 H 0.5064 0.4175 0.2872
C27 C 0.5364(8) 0.4123(5) 0.2098(13)
Cu11 Cu 0.97263(11) 0.31913(8) 0.5487(2)
Cu15 Cu 0.34650(8) 0.02737(11) 0.5487(2)
Cu16 Cu 0.65350(8) 0.68087(8) 0.4513(2)
Cu17 Cu 0.68087(8) 0.65350(8) 0.5487(2)
C35 C 0.9518(6) 0.5803(5) 0.1107(10)
C36 C 0.9518(6) 0.3715(4) 0.3893(10)
C37 C 0.6285(4) 0.0482(6) 0.1107(10)
C38 C 0.4197(5) 0.0482(6) 0.3893(10)
C39 C 0.6285(4) 0.5803(5) 0.3893(10)
C40 C 0.9219(8) 0.5495(7) 0.0886(7)
C41 C 0.9219(8) 0.3724(4) 0.4114(7)
C42 C 0.6276(4) 0.0781(8) 0.0886(7)
C43 C 0.4505(7) 0.0781(8) 0.4114(7)
C44 C 0.6276(4) 0.5495(7) 0.4114(7)
H19 H 0.9125 0.5492 0.0476
H20 H 0.9125 0.3633 0.4524
H21 H 0.6367 0.0875 0.0476
H22 H 0.4508 0.0875 0.4524
H23 H 0.6367 0.5492 0.4524
C45 C 0.9061(6) 0.5192(5) 0.1277(10)
C46 C 0.9061(6) 0.3869(4) 0.3723(10)
C47 C 0.6131(4) 0.0939(6) 0.1277(10)
C48 C 0.4808(5) 0.0939(6) 0.3723(10)
C49 C 0.6131(4) 0.5192(5) 0.3723(10)
C50 C 0.9202(6) 0.5197(4) 0.1890(10)
C51 C 0.9202(6) 0.4005(4) 0.3110(10)
C52 C 0.5995(4) 0.0798(6) 0.1890(10)
C53 C 0.4803(4) 0.0798(6) 0.3110(10)
C54 C 0.5995(4) 0.5197(4) 0.3110(10)
C55 C 0.9501(6) 0.5505(5) 0.2111(8)
C56 C 0.9501(6) 0.3996(4) 0.2889(8)
C57 C 0.6004(4) 0.0499(6) 0.2111(8)
C58 C 0.4495(5) 0.0499(6) 0.2889(8)
C59 C 0.6004(4) 0.5505(5) 0.2889(8)
H24 H 0.9595 0.5508 0.2522
H25 H 0.9595 0.4087 0.2478
H26 H 0.5913 0.0405 0.2522
H27 H 0.4492 0.0405 0.2478
H28 H 0.5913 0.5508 0.2478
C60 C 0.9659(6) 0.5808(4) 0.1720(11)
C61 C 0.9659(6) 0.3851(4) 0.3280(11)
C62 C 0.6149(4) 0.0341(6) 0.1720(11)
C63 C 0.4192(4) 0.0341(6) 0.3280(11)
C64 C 0.6149(4) 0.5808(4) 0.3280(11)
H29 H 0.9859 0.6014 0.1869
H30 H 0.9859 0.3845 0.3131
H31 H 0.6155 0.0141 0.1869
H32 H 0.3986 0.0141 0.3131
H33 H 0.6155 0.6014 0.3131
C65 C 0.8760(11) 0.4902(8) 0.1070(13)
C66 C 0.8760(11) 0.3858(8) 0.3930(13)
C67 C 0.6142(8) 0.1240(11) 0.1070(13)
C68 C 0.5098(8) 0.1240(11) 0.3930(13)
C69 C 0.6142(8) 0.4902(8) 0.3930(13)
H34 H 0.8644 0.4888 0.0679
H35 H 0.8644 0.3756 0.4321
H36 H 0.6244 0.1356 0.0679
H37 H 0.5112 0.1356 0.4321
H38 H 0.6244 0.4888 0.4321
C70 C 0.8632(8) 0.4592(5) 0.1580(14)
C71 C 0.8632(8) 0.4040(6) 0.3420(14)
C72 C 0.5960(6) 0.1368(8) 0.1580(14)
C73 C 0.5408(5) 0.1368(8) 0.3420(14)
C74 C 0.5960(6) 0.4592(5) 0.3420(14)
H39 H 0.8450 0.4366 0.1465
H40 H 0.8450 0.4084 0.3535
H41 H 0.5916 0.1550 0.1465
H42 H 0.5634 0.1550 0.3535
H43 H 0.5916 0.4366 0.3535
C75 C 0.8224(10) 0.4112(7) 0.2500
C76 C 0.5888(7) 0.1776(10) 0.2500
C77 C 0.5745(6) 0.3738(6) 0.2692(10)
C78 C 0.7993(8) 0.3738(6) 0.2308(10)
C79 C 0.7993(8) 0.4255(6) 0.2692(10)
C80 C 0.5745(6) 0.2007(8) 0.2308(10)
C81 C 0.6262(6) 0.2007(8) 0.2692(10)
H44 H 0.5518 0.3615 0.2874
H45 H 0.8097 0.4482 0.2874
H46 H 0.8097 0.3615 0.2126
H47 H 0.6385 0.1903 0.2874
H48 H 0.5518 0.1903 0.2126
C82 C 0.5934(6) 0.3564(5) 0.2613(9)
C83 C 0.7630(8) 0.3564(5) 0.2387(9)
C84 C 0.7630(8) 0.4066(6) 0.2613(9)
C85 C 0.5934(6) 0.2370(8) 0.2387(9)
C86 C 0.6436(5) 0.2370(8) 0.2613(9)
H49 H 0.5800 0.3316 0.2639
H50 H 0.7516 0.4200 0.2639
H51 H 0.7516 0.3316 0.2361
H52 H 0.6684 0.2484 0.2639
H53 H 0.5800 0.2484 0.2361
C87 C 0.7408(7) 0.3704(5) 0.2500
C88 C 0.6296(5) 0.2592(7) 0.2500
C89 C 0.7004(7) 0.3502(5) 0.2500
C90 C 0.6498(5) 0.2996(7) 0.2500
C91 C 0.6877(8) 0.3123(3) 0.2500
C92 C 0.6246(7) 0.3123(8) 0.2500
H54 H 0.5998 0.2999 0.2500
H55 H 0.7001 0.2999 0.2500
C138 C 0.9653(6) 0.6108(5) 0.0617(11)
C139 C 0.9653(6) 0.3545(4) 0.4383(11)
C140 C 0.6455(4) 0.0347(6) 0.0617(11)
C141 C 0.3892(5) 0.0347(6) 0.4383(11)
C142 C 0.6455(4) 0.6108(5) 0.4383(11)
N3 N 0.8584(6) 0.4292(4) 0.2500
N4 N 0.5708(4) 0.1416(6) 0.2500
O16 O 0.2977(4) 0.3027(3) 0.0984(7)
O27 O 0.9978(4) 0.6363(4) 0.0955(6)
O28 O 0.9978(4) 0.3615(2) 0.4045(6)
O29 O 0.6385(2) 0.0022(4) 0.0955(6)
O30 O 0.3637(4) 0.0022(4) 0.4045(6)
O31 O 0.6385(2) 0.6363(4) 0.4045(6)
O37 O 0.9540(6) 0.6116(4) 0.0008(12)
O38 O 0.9540(6) 0.3424(4) 0.4992(12)
O39 O 0.6576(4) 0.0460(6) 0.0008(12)
O40 O 0.3884(4) 0.0460(6) 0.4992(12)
O41 O 0.6576(4) 0.6116(4) 0.4992(12)
C148 C 0.9042(8) 0.4921(5) 0.2437(14)
C149 C 0.9042(8) 0.4121(6) 0.2563(14)
C150 C 0.5879(6) 0.0958(8) 0.2437(14)
C151 C 0.5079(5) 0.0958(8) 0.2563(14)
C152 C 0.5879(6) 0.4921(5) 0.2563(14)
H81 H 0.9111 0.4936 0.2872
H82 H 0.9111 0.4175 0.2128
H83 H 0.5825 0.0889 0.2872
H84 H 0.5064 0.0889 0.2128
H85 H 0.5825 0.4936 0.2128
C153 C 0.8759(9) 0.4636(8) 0.2098(13)
C154 C 0.8759(9) 0.4123(5) 0.2902(13)
C155 C 0.5877(5) 0.1241(9) 0.2098(13)
C156 C 0.5364(8) 0.1241(9) 0.2902(13)
C157 C 0.5877(5) 0.4636(8) 0.2902(13)
H103 H 0.277363 0.346783 0.145199
H104 H 0.317627 0.378983 0.159229
C15 C 0.2804(4) 0.3058(4) 0.9305(11)
C16 C 0.1908(5) 0.2238(5) 0.7832(10)
H9 H 0.2095 0.2208 0.7689
C17 C 0.1314(5) 0.2121(5) 0.7819(11)
C18 C 0.1968(3) 0.2477(6) 0.8309(6)
C19 C 0.2318(4) 0.2641(5) 0.8534(8)
H10 H 0.2483 0.2593 0.8337
C20 C 0.2422(4) 0.2879(3) 0.9055(8)
C21 C 0.2175(3) 0.2952(6) 0.9350(5)
H11 H 0.2245 0.3111 0.9699
C22 C 0.1826(5) 0.2787(5) 0.9125(9)
H12 H 0.1661 0.2836 0.9322
C23 C 0.1722(4) 0.2549(3) 0.8604(9)
O1 O 0.2770(3) 0.3230(3) 0.9847(8)
O2 O 0.3027(3) 0.2977(4) 0.9016(7)
C25 C 0.1566(4) 0.2030(6) 0.7543(9)
H13 H 0.1511 0.1858 0.7220
C28 C 0.1349(6) 0.2341(6) 0.8334(12)
H15 H 0.1159 0.2360 0.8500
N2 N 0.0951(10) 0.1902(5) 0.7500
C29 C 0.0399(9) 0.0798(5) 0.7500
C30 C 0.0199(10) 0.0397(5) 0.7500
C32 C 0.0331(6) 0.0962(5) 0.6938(12)
H17 H 0.0165 0.0830 0.6616
C33 C 0.0544(8) 0.1350(6) 0.6923(15)
H18 H 0.0547 0.1486 0.6571
C34 C 0.0750(10) 0.1500(5) 0.7500
Cu7 Cu 0.34650(8) 0.31913(8) 0.9513(2)
Cu9 Cu 0.97263(11) 0.65350(8) 0.9513(2)
Cu13 Cu 0.68087(8) 0.02737(11) 0.9513(2)
C93 C 0.0254(6) 0.3058(4) 0.5695(11)
C98 C 0.0330(7) 0.2238(5) 0.7168(10)
H56 H 0.0113 0.2208 0.7311
C103 C 0.0807(7) 0.2121(5) 0.7181(11)
C108 C 0.0509(7) 0.2477(6) 0.6691(6)
C113 C 0.0323(6) 0.2641(5) 0.6466(8)
H61 H 0.0110 0.2593 0.6663
C118 C 0.0457(5) 0.2879(3) 0.5945(8)
C123 C 0.0777(7) 0.2952(6) 0.5650(5)
H66 H 0.0866 0.3111 0.5301
C128 C 0.0961(7) 0.2787(5) 0.5875(9)
H71 H 0.1175 0.2836 0.5678
C133 C 0.0827(5) 0.2549(3) 0.6396(9)
O6 O 0.0460(4) 0.3230(3) 0.5153(8)
O15 O 0.3027(3) 0.0050(5) 0.5984(7)
O17 O 0.0050(5) 0.3027(3) 0.4016(7)
O22 O 0.0679(7) 0.3669(5) 0.3748(10)
O42 O 0.3424(4) 0.3884(4) 0.9992(12)
O43 O 0.0460(6) 0.3884(4) 0.5008(12)
C143 C 0.0464(7) 0.2030(6) 0.7457(9)
H76 H 0.0347 0.1858 0.7780
C158 C 0.0992(8) 0.2341(6) 0.6666(12)
H86 H 0.1201 0.2360 0.6500
C168 C 0.0384(6) 0.0192(4) 0.7500
H91 H 0.0632 0.0316 0.7500
C173 C 0.0631(8) 0.0962(5) 0.8062(12)
H97 H 0.0665 0.0830 0.8384
C178 C 0.0806(10) 0.1350(6) 0.8077(15)
H102 H 0.0939 0.1486 0.8429
H113 H 0.0694201 0.346783 0.354801
H114 H 0.0613561 0.378983 0.340771
Cu12 Cu 0.65350(8) 0.97263(11) 0.0487(2)
Cu14 Cu 0.31913(8) 0.97263(11) 0.4513(2)
O20 O 0.0050(5) 0.7023(4) 0.0984(7)
O25 O 0.0679(7) 0.7010(5) 0.1252(10)
H105 H 0.0694201 0.722637 0.145199
H106 H 0.0613561 0.682373 0.159229
C96 C 0.0254(6) 0.7196(4) 0.9305(11)
C97 C 0.2804(4) 0.9746(6) 0.5695(11)
C101 C 0.0330(7) 0.8092(5) 0.7832(10)
C102 C 0.1908(5) 0.9670(7) 0.7168(10)
H59 H 0.0113 0.7905 0.7689
H60 H 0.2095 0.9887 0.7311
C106 C 0.0807(7) 0.8686(5) 0.7819(11)
C107 C 0.1314(5) 0.9193(7) 0.7181(11)
C111 C 0.0509(7) 0.8032(3) 0.8309(6)
C112 C 0.1968(3) 0.9491(7) 0.6691(6)
C116 C 0.0323(6) 0.7682(4) 0.8534(8)
C117 C 0.2318(4) 0.9677(6) 0.6466(8)
H64 H 0.0110 0.7517 0.8337
H65 H 0.2483 0.9890 0.6663
C121 C 0.0457(5) 0.7578(4) 0.9055(8)
C122 C 0.2422(4) 0.9543(5) 0.5945(8)
C126 C 0.0777(7) 0.7825(3) 0.9350(5)
C127 C 0.2175(3) 0.9223(7) 0.5650(5)
H69 H 0.0866 0.7755 0.9699
H70 H 0.2245 0.9134 0.5301
C131 C 0.0961(7) 0.8174(5) 0.9125(9)
C132 C 0.1826(5) 0.9039(7) 0.5875(9)
H74 H 0.1175 0.8339 0.9322
H75 H 0.1661 0.8825 0.5678
C136 C 0.0827(5) 0.8278(4) 0.8604(9)
C137 C 0.1722(4) 0.9173(5) 0.6396(9)
O9 O 0.0460(4) 0.7230(3) 0.9847(8)
O10 O 0.2770(3) 0.9540(4) 0.5153(8)
O21 O 0.2977(4) 0.9950(5) 0.4016(7)
O26 O 0.2990(5) 0.9321(7) 0.3748(10)
O46 O 0.0460(6) 0.6576(4) 0.9992(12)
O47 O 0.3424(4) 0.9540(6) 0.5008(12)
C146 C 0.0464(7) 0.8434(4) 0.7543(9)
C147 C 0.1566(4) 0.9536(7) 0.7457(9)
H79 H 0.0347 0.8489 0.7220
H80 H 0.1511 0.9653 0.7780
C161 C 0.0992(8) 0.8651(6) 0.8334(12)
C162 C 0.1349(6) 0.9008(8) 0.6666(12)
H89 H 0.1201 0.8841 0.8500
H90 H 0.1159 0.8799 0.6500
N6 N 0.0951(11) 0.9049(10) 0.7500
C164 C 0.0399(10) 0.9601(9) 0.7500
C166 C 0.0198(11) 0.9801(10) 0.7500
C171 C 0.0631(8) 0.9669(6) 0.6938(12)
C172 C 0.0331(6) 0.9369(8) 0.8062(12)
H95 H 0.0165 0.9335 0.8384
H96 H 0.0665 0.9835 0.6616
C176 C 0.0806(10) 0.9456(8) 0.6923(15)
C177 C 0.0544(8) 0.9194(10) 0.8077(15)
H100 H 0.0547 0.9061 0.8429
H101 H 0.0939 0.9453 0.6571
C180 C 0.0750(11) 0.9250(10) 0.7500
H107 H 0.277363 0.93058 0.354801
H108 H 0.317627 0.938644 0.340771
C31 C 0.9808(4) 0.0192(4) 0.7500
H16 H 0.9684 0.0316 0.7500
O11 O 0.9950(5) 0.2977(4) 0.5984(7)
O12 O 0.7023(4) 0.0050(5) 0.9016(7)
O18 O 0.6973(3) 0.9950(5) 0.0984(7)
O23 O 0.6331(5) 0.9321(7) 0.1252(10)
H111 H 0.653217 0.93058 0.145199
H112 H 0.621017 0.938644 0.159229
C94 C 0.6942(4) 0.9746(6) 0.9305(11)
C95 C 0.6942(4) 0.7196(4) 0.5695(11)
C99 C 0.7762(5) 0.9670(7) 0.7832(10)
C100 C 0.7762(5) 0.8092(5) 0.7168(10)
H57 H 0.7792 0.9887 0.7689
H58 H 0.7792 0.7905 0.7311
C104 C 0.7879(5) 0.9193(7) 0.7819(11)
C105 C 0.7879(5) 0.8686(5) 0.7181(11)
C109 C 0.7523(6) 0.9491(7) 0.8309(6)
C110 C 0.7523(6) 0.8032(3) 0.6691(6)
C114 C 0.7359(5) 0.9677(6) 0.8534(8)
C115 C 0.7359(5) 0.7682(4) 0.6466(8)
H62 H 0.7407 0.9890 0.8337
H63 H 0.7407 0.7517 0.6663
C119 C 0.7121(3) 0.9543(5) 0.9055(8)
C120 C 0.7121(3) 0.7578(4) 0.5945(8)
C124 C 0.7048(6) 0.9223(7) 0.9350(5)
C125 C 0.7048(6) 0.7825(3) 0.5650(5)
H67 H 0.6889 0.9134 0.9699
H68 H 0.6889 0.7755 0.5301
C129 C 0.7213(5) 0.9039(7) 0.9125(9)
C130 C 0.7213(5) 0.8174(5) 0.5875(9)
H72 H 0.7164 0.8825 0.9322
H73 H 0.7164 0.8339 0.5678
C134 C 0.7451(3) 0.9173(5) 0.8604(9)
C135 C 0.7451(3) 0.8278(4) 0.6396(9)
O7 O 0.6770(3) 0.9540(4) 0.9847(8)
O8 O 0.6770(3) 0.7230(3) 0.5153(8)
O13 O 0.7023(4) 0.6973(3) 0.5984(7)
O14 O 0.9950(5) 0.6973(3) 0.9016(7)
O19 O 0.6973(3) 0.7023(4) 0.4016(7)
O24 O 0.6331(5) 0.7010(5) 0.3748(10)
O44 O 0.6116(4) 0.9540(6) 0.9992(12)
O45 O 0.6116(4) 0.6576(4) 0.5008(12)
C144 C 0.7970(6) 0.9536(7) 0.7543(9)
C145 C 0.7970(6) 0.8434(4) 0.7457(9)
H77 H 0.8142 0.9653 0.7220
H78 H 0.8142 0.8489 0.7780
C159 C 0.7659(6) 0.9008(8) 0.8334(12)
C160 C 0.7659(6) 0.8651(6) 0.6666(12)
H87 H 0.7640 0.8799 0.8500
H88 H 0.7640 0.8841 0.6500
N5 N 0.8098(5) 0.9049(11) 0.7500
C163 C 0.9202(5) 0.9601(10) 0.7500
C165 C 0.9603(5) 0.9802(11) 0.7500
C167 C 0.9808(4) 0.9616(6) 0.7500
H92 H 0.9684 0.9368 0.7500
C169 C 0.9038(5) 0.9369(8) 0.6938(12)
C170 C 0.9038(5) 0.9669(6) 0.8062(12)
H93 H 0.9170 0.9835 0.8384
H94 H 0.9170 0.9335 0.6616
C174 C 0.8650(6) 0.9194(10) 0.6923(15)
C175 C 0.8650(6) 0.9456(8) 0.8077(15)
H98 H 0.8514 0.9453 0.8429
H99 H 0.8514 0.9061 0.6571
C179 C 0.8500(5) 0.9250(11) 0.7500
H109 H 0.653217 0.722637 0.354801
H110 H 0.621017 0.682373 0.340771
C1_2 C 0.0482(6) 0.4197(5) 0.6107(10)
C2_2 C 0.0781(8) 0.4505(7) 0.5886(7)
H1_2 H 0.0875 0.4508 0.5476
C3_2 C 0.0939(6) 0.4808(5) 0.6277(10)
C4_2 C 0.0798(6) 0.4803(4) 0.6890(10)
C5_2 C 0.0499(6) 0.4495(5) 0.7111(8)
H2_2 H 0.0405 0.4492 0.7522
C6_2 C 0.0341(6) 0.4192(4) 0.6720(11)
H3_2 H 0.0141 0.3986 0.6869
C7_2 C 0.1240(11) 0.5098(8) 0.6070(13)
H4_2 H 0.1356 0.5112 0.5679
C8_2 C 0.1368(8) 0.5408(5) 0.6580(14)
H5_2 H 0.1550 0.5634 0.6465
C9_2 C 0.1776(10) 0.5888(7) 0.7500
C10_2 C 0.2007(8) 0.6262(6) 0.7308(10)
H6_2 H 0.1903 0.6385 0.7126
C11_2 C 0.2370(8) 0.6436(5) 0.7387(9)
H7_2 H 0.2484 0.6684 0.7361
C12_2 C 0.2592(7) 0.6296(5) 0.7500
C13_2 C 0.2996(7) 0.6498(5) 0.7500
C14_2 C 0.3123(8) 0.6877(3) 0.7500
H8_2 H 0.2999 0.7001 0.7500
C24_2 C 0.0347(6) 0.3892(5) 0.5617(11)
N1_2 N 0.1416(6) 0.5708(4) 0.7500
O4_2 O 0.0022(4) 0.3637(4) 0.5955(6)
C26_2 C 0.0958(8) 0.5079(5) 0.7437(14)
H14_2 H 0.0889 0.5064 0.7872
C27_2 C 0.1241(9) 0.5364(8) 0.7098(13)
C35_2 C 0.3715(8) 0.9518(6) 0.6107(10)
C36_2 C 0.5803(7) 0.9518(6) 0.8893(10)
C37_2 C 0.5803(7) 0.6285(4) 0.6107(10)
C38_2 C 0.3715(8) 0.4197(5) 0.8893(10)
C39_2 C 0.0482(6) 0.6285(4) 0.8893(10)
C40_2 C 0.3724(11) 0.9219(8) 0.5886(7)
C41_2 C 0.5495(9) 0.9219(8) 0.9114(7)
C42_2 C 0.5495(9) 0.6276(4) 0.5886(7)
C43_2 C 0.3724(11) 0.4505(7) 0.9114(7)
C44_2 C 0.0781(8) 0.6276(4) 0.9114(7)
H19_2 H 0.3633 0.9125 0.5476
H20_2 H 0.5492 0.9125 0.9524
H21_2 H 0.5492 0.6367 0.5476
H22_2 H 0.3633 0.4508 0.9524
H23_2 H 0.0875 0.6367 0.9524
C45_2 C 0.3869(8) 0.9061(6) 0.6277(10)
C46_2 C 0.5192(7) 0.9061(6) 0.8723(10)
C47_2 C 0.5192(7) 0.6131(4) 0.6277(10)
C48_2 C 0.3869(8) 0.4808(5) 0.8723(10)
C49_2 C 0.0939(6) 0.6131(4) 0.8723(10)
C50_2 C 0.4005(7) 0.9202(6) 0.6890(10)
C51_2 C 0.5197(7) 0.9202(6) 0.8110(10)
C52_2 C 0.5197(7) 0.5995(4) 0.6890(10)
C53_2 C 0.4005(7) 0.4803(4) 0.8110(10)
C54_2 C 0.0798(6) 0.5995(4) 0.8110(10)
C55_2 C 0.3996(8) 0.9501(6) 0.7111(8)
C56_2 C 0.5505(7) 0.9501(6) 0.7889(8)
C57_2 C 0.5505(7) 0.6004(4) 0.7111(8)
C58_2 C 0.3996(8) 0.4495(5) 0.7889(8)
C59_2 C 0.0499(6) 0.6004(4) 0.7889(8)
H24_2 H 0.4087 0.9595 0.7522
H25_2 H 0.5508 0.9595 0.7478
H26_2 H 0.5508 0.5913 0.7522
H27_2 H 0.4087 0.4492 0.7478
H28_2 H 0.0405 0.5913 0.7478
C60_2 C 0.3851(7) 0.9659(6) 0.6720(11)
C61_2 C 0.5808(7) 0.9659(6) 0.8280(11)
C62_2 C 0.5808(7) 0.6149(4) 0.6720(11)
C63_2 C 0.3851(7) 0.4192(4) 0.8280(11)
C64_2 C 0.0341(6) 0.6149(4) 0.8280(11)
H29_2 H 0.3845 0.9859 0.6869
H30_2 H 0.6014 0.9859 0.8131
H31_2 H 0.6014 0.6155 0.6869
H32_2 H 0.3845 0.3986 0.8131
H33_2 H 0.0141 0.6155 0.8131
C65_2 C 0.3858(14) 0.8760(11) 0.6070(13)
C66_2 C 0.4902(14) 0.8760(11) 0.8930(13)
C67_2 C 0.4902(14) 0.6142(8) 0.6070(13)
C68_2 C 0.3858(14) 0.5098(8) 0.8930(13)
C69_2 C 0.1240(11) 0.6142(8) 0.8930(13)
H34_2 H 0.3756 0.8644 0.5679
H35_2 H 0.4888 0.8644 0.9321
H36_2 H 0.4888 0.6244 0.5679
H37_2 H 0.3756 0.5112 0.9321
H38_2 H 0.1356 0.6244 0.9321
C70_2 C 0.4040(9) 0.8632(8) 0.6580(14)
C71_2 C 0.4592(10) 0.8632(8) 0.8420(14)
C72_2 C 0.4592(10) 0.5960(6) 0.6580(14)
C73_2 C 0.4040(9) 0.5408(5) 0.8420(14)
C74_2 C 0.1368(8) 0.5960(6) 0.8420(14)
H39_2 H 0.4084 0.8450 0.6465
H40_2 H 0.4366 0.8450 0.8535
H41_2 H 0.4366 0.5916 0.6465
H42_2 H 0.4084 0.5634 0.8535
H43_2 H 0.1550 0.5916 0.8535
C75_2 C 0.4112(12) 0.8224(10) 0.7500
C76_2 C 0.4112(12) 0.5888(7) 0.7500
C77_2 C 0.2007(8) 0.5745(6) 0.7692(10)
C78_2 C 0.4255(10) 0.7993(8) 0.7308(10)
C79_2 C 0.3738(10) 0.7993(8) 0.7692(10)
C80_2 C 0.3738(10) 0.5745(6) 0.7308(10)
C81_2 C 0.4255(10) 0.6262(6) 0.7692(10)
H44_2 H 0.1903 0.5518 0.7874
H45_2 H 0.3615 0.8097 0.7874
H46_2 H 0.4482 0.8097 0.7126
H47_2 H 0.4482 0.6385 0.7874
H48_2 H 0.3615 0.5518 0.7126
C82_2 C 0.2370(8) 0.5934(6) 0.7613(9)
C83_2 C 0.4066(9) 0.7630(8) 0.7387(9)
C84_2 C 0.3564(10) 0.7630(8) 0.7613(9)
C85_2 C 0.3564(10) 0.5934(6) 0.7387(9)
C86_2 C 0.4066(9) 0.6436(5) 0.7613(9)
H49_2 H 0.2484 0.5800 0.7639
H50_2 H 0.3316 0.7516 0.7639
H51_2 H 0.4200 0.7516 0.7361
H52_2 H 0.4200 0.6684 0.7639
H53_2 H 0.3316 0.5800 0.7361
C87_2 C 0.3704(9) 0.7408(7) 0.7500
C88_2 C 0.3704(9) 0.6296(5) 0.7500
C89_2 C 0.3502(9) 0.7004(7) 0.7500
C90_2 C 0.3502(9) 0.6498(5) 0.7500
C91_2 C 0.3754(9) 0.6877(8) 0.7500
C92_2 C 0.3123(11) 0.6246(7) 0.7500
H54_2 H 0.2999 0.5998 0.7500
H55_2 H 0.4002 0.7001 0.7500
C96_2 C 0.3058(7) 0.0254(6) 0.4305(11)
C97_2 C 0.3058(7) 0.2804(4) 0.0695(11)
C101_2 C 0.2238(9) 0.0330(7) 0.2832(10)
C102_2 C 0.2238(9) 0.1908(5) 0.2168(10)
H59_2 H 0.2208 0.0113 0.2689
H60_2 H 0.2208 0.2095 0.2311
C106_2 C 0.2121(9) 0.0807(7) 0.2819(11)
C107_2 C 0.2121(9) 0.1314(5) 0.2181(11)
C111_2 C 0.2477(8) 0.0509(7) 0.3309(6)
C112_2 C 0.2477(8) 0.1968(3) 0.1691(6)
C116_2 C 0.2641(7) 0.0323(6) 0.3534(8)
C117_2 C 0.2641(7) 0.2318(4) 0.1466(8)
H64_2 H 0.2593 0.0110 0.3337
H65_2 H 0.2593 0.2483 0.1663
C121_2 C 0.2879(6) 0.0457(5) 0.4055(8)
C122_2 C 0.2879(6) 0.2422(4) 0.0945(8)
C126_2 C 0.2952(8) 0.0777(7) 0.4350(5)
C127_2 C 0.2952(8) 0.2175(3) 0.0650(5)
H69_2 H 0.3111 0.0866 0.4699
H70_2 H 0.3111 0.2245 0.0301
C131_2 C 0.2787(9) 0.0961(7) 0.4125(9)
C132_2 C 0.2787(9) 0.1826(5) 0.0875(9)
H74_2 H 0.2836 0.1175 0.4322
H75_2 H 0.2836 0.1661 0.0678
C136_2 C 0.2549(6) 0.0827(5) 0.3604(9)
C137_2 C 0.2549(6) 0.1722(4) 0.1396(9)
C138_2 C 0.3545(8) 0.9653(6) 0.5617(11)
C139_2 C 0.6108(7) 0.9653(6) 0.9383(11)
C140_2 C 0.6108(7) 0.6455(4) 0.5617(11)
C141_2 C 0.3545(8) 0.3892(5) 0.9383(11)
C142_2 C 0.0347(6) 0.6455(4) 0.9383(11)
N3_2 N 0.4292(7) 0.8584(6) 0.7500
N4_2 N 0.4292(7) 0.5708(4) 0.7500
O9_2 O 0.3230(5) 0.0460(4) 0.4847(8)
O10_2 O 0.3230(5) 0.2770(3) 0.0153(8)
O25_2 O 0.3669(9) 0.0679(7) 0.6252(10)
O27_2 O 0.3615(6) 0.9978(4) 0.5955(6)
O28_2 O 0.6363(4) 0.9978(4) 0.9045(6)
O29_2 O 0.6363(4) 0.6385(2) 0.5955(6)
O30_2 O 0.3615(6) 0.3637(4) 0.9045(6)
O31_2 O 0.0022(4) 0.6385(2) 0.9045(6)
C146_2 C 0.2030(8) 0.0464(7) 0.2543(9)
C147_2 C 0.2030(8) 0.1566(4) 0.2457(9)
H79_2 H 0.1858 0.0347 0.2220
H80_2 H 0.1858 0.1511 0.2780
C148_2 C 0.4121(9) 0.9042(8) 0.7437(14)
C149_2 C 0.4921(10) 0.9042(8) 0.7563(14)
C150_2 C 0.4921(10) 0.5879(6) 0.7437(14)
C151_2 C 0.4121(9) 0.5079(5) 0.7563(14)
C152_2 C 0.0958(8) 0.5879(6) 0.7563(14)
H81_2 H 0.4175 0.9111 0.7872
H82_2 H 0.4936 0.9111 0.7128
H83_2 H 0.4936 0.5825 0.7872
H84_2 H 0.4175 0.5064 0.7128
H85_2 H 0.0889 0.5825 0.7128
C153_2 C 0.4123(12) 0.8759(9) 0.7098(13)
C154_2 C 0.4636(10) 0.8759(9) 0.7902(13)
C155_2 C 0.4636(10) 0.5877(5) 0.7098(13)
C156_2 C 0.4123(12) 0.5364(8) 0.7902(13)
C157_2 C 0.1241(9) 0.5877(5) 0.7902(13)
C161_2 C 0.2341(10) 0.0992(8) 0.3334(12)
C162_2 C 0.2341(10) 0.1349(6) 0.1666(12)
H89_2 H 0.2360 0.1201 0.3500
H90_2 H 0.2360 0.1159 0.1500
N6_2 N 0.1902(15) 0.0951(11) 0.2500
C164_2 C 0.0798(13) 0.0399(10) 0.2500
C166_2 C 0.0397(15) 0.0198(11) 0.2500
C168_2 C 0.0192(7) 0.0384(6) 0.2500
H91_2 H 0.0316 0.0632 0.2500
C171_2 C 0.0962(10) 0.0631(8) 0.1938(12)
C172_2 C 0.0962(10) 0.0331(6) 0.3062(12)
H95_2 H 0.0830 0.0165 0.3384
H96_2 H 0.0830 0.0665 0.1616
C176_2 C 0.1350(13) 0.0806(10) 0.1923(15)
C177_2 C 0.1350(13) 0.0544(8) 0.3077(15)
H100_2 H 0.1486 0.0547 0.3429
H101_2 H 0.1486 0.0939 0.1571
C180_2 C 0.1500(15) 0.0750(11) 0.2500
H105_2 H 0.346783 0.0694201 0.645199
H106_2 H 0.378983 0.0613561 0.659229
O26_2 O 0.3669(9) 0.2990(5) 0.8748(10)
H107_2 H 0.346783 0.277363 0.854801
H108_2 H 0.378983 0.317627 0.840771
C167_2 C 0.0192(7) 0.9808(4) 0.2500
H92_2 H 0.0316 0.9684 0.2500
C15_2 C 0.9746(6) 0.2804(4) 0.4305(11)
C16_2 C 0.9670(7) 0.1908(5) 0.2832(10)
H9_2 H 0.9887 0.2095 0.2689
C17_2 C 0.9193(7) 0.1314(5) 0.2819(11)
C18_2 C 0.9491(7) 0.1968(3) 0.3309(6)
C19_2 C 0.9677(6) 0.2318(4) 0.3534(8)
H10_2 H 0.9890 0.2483 0.3337
C20_2 C 0.9543(5) 0.2422(4) 0.4055(8)
C21_2 C 0.9223(7) 0.2175(3) 0.4350(5)
H11_2 H 0.9134 0.2245 0.4699
C22_2 C 0.9039(7) 0.1826(5) 0.4125(9)
H12_2 H 0.8825 0.1661 0.4322
C23_2 C 0.9173(5) 0.1722(4) 0.3604(9)
O1_2 O 0.9540(4) 0.2770(3) 0.4847(8)
O3_2 O 0.9321(7) 0.2990(5) 0.6252(10)
C25_2 C 0.9536(7) 0.1566(4) 0.2543(9)
H13_2 H 0.9653 0.1511 0.2220
C28_2 C 0.9008(8) 0.1349(6) 0.3334(12)
H15_2 H 0.8799 0.1159 0.3500
N2_2 N 0.9049(11) 0.0951(10) 0.2500
C29_2 C 0.9601(10) 0.0399(9) 0.2500
C30_2 C 0.9802(11) 0.0199(10) 0.2500
C32_2 C 0.9369(8) 0.0331(6) 0.1938(12)
H17_2 H 0.9335 0.0165 0.1616
C33_2 C 0.9194(10) 0.0544(8) 0.1923(15)
H18_2 H 0.9061 0.0547 0.1571
C34_2 C 0.9250(11) 0.0750(10) 0.2500
C93_2 C 0.7196(7) 0.0254(6) 0.0695(11)
C98_2 C 0.8092(9) 0.0330(7) 0.2168(10)
H56_2 H 0.7905 0.0113 0.2311
C103_2 C 0.8686(9) 0.0807(7) 0.2181(11)
C108_2 C 0.8032(9) 0.0509(7) 0.1691(6)
C113_2 C 0.7682(8) 0.0323(6) 0.1466(8)
H61_2 H 0.7517 0.0110 0.1663
C118_2 C 0.7578(6) 0.0457(5) 0.0945(8)
C123_2 C 0.7825(9) 0.0777(7) 0.0650(5)
H66_2 H 0.7755 0.0866 0.0301
C128_2 C 0.8174(9) 0.0961(7) 0.0875(9)
H71_2 H 0.8339 0.1175 0.0678
C133_2 C 0.8278(6) 0.0827(5) 0.1396(9)
O6_2 O 0.7230(5) 0.0460(4) 0.0153(8)
C143_2 C 0.8434(9) 0.0464(7) 0.2457(9)
H76_2 H 0.8489 0.0347 0.2780
C158_2 C 0.8651(10) 0.0992(8) 0.1666(12)
H86_2 H 0.8841 0.1201 0.1500
C173_2 C 0.9669(9) 0.0631(8) 0.3062(12)
H97_2 H 0.9835 0.0665 0.3384
C178_2 C 0.9456(12) 0.0806(10) 0.3077(15)
H102_2 H 0.9453 0.0939 0.3429
H103_2 H 0.93058 0.277363 0.645199
H104_2 H 0.938644 0.317627 0.659229
O22_2 O 0.7010(9) 0.0679(7) 0.8748(10)
H113_2 H 0.722637 0.0694201 0.854801
H114_2 H 0.682373 0.0613561 0.840771
C31_2 C 0.9616(6) 0.9808(4) 0.2500
H16_2 H 0.9368 0.9684 0.2500
C94_2 C 0.7196(7) 0.6942(4) 0.4305(11)
C95_2 C 0.9746(6) 0.6942(4) 0.0695(11)
C99_2 C 0.8092(9) 0.7762(5) 0.2832(10)
C100_2 C 0.9670(7) 0.7762(5) 0.2168(10)
H57_2 H 0.7905 0.7792 0.2689
H58_2 H 0.9887 0.7792 0.2311
C104_2 C 0.8686(9) 0.7879(5) 0.2819(11)
C105_2 C 0.9193(7) 0.7879(5) 0.2181(11)
C109_2 C 0.8032(9) 0.7523(6) 0.3309(6)
C110_2 C 0.9491(7) 0.7523(6) 0.1691(6)
C114_2 C 0.7682(8) 0.7359(5) 0.3534(8)
C115_2 C 0.9677(6) 0.7359(5) 0.1466(8)
H62_2 H 0.7517 0.7407 0.3337
H63_2 H 0.9890 0.7407 0.1663
C119_2 C 0.7578(6) 0.7121(3) 0.4055(8)
C120_2 C 0.9543(5) 0.7121(3) 0.0945(8)
C124_2 C 0.7825(9) 0.7048(6) 0.4350(5)
C125_2 C 0.9223(7) 0.7048(6) 0.0650(5)
H67_2 H 0.7755 0.6889 0.4699
H68_2 H 0.9134 0.6889 0.0301
C129_2 C 0.8174(9) 0.7213(5) 0.4125(9)
C130_2 C 0.9039(7) 0.7213(5) 0.0875(9)
H72_2 H 0.8339 0.7164 0.4322
H73_2 H 0.8825 0.7164 0.0678
C134_2 C 0.8278(6) 0.7451(3) 0.3604(9)
C135_2 C 0.9173(5) 0.7451(3) 0.1396(9)
O7_2 O 0.7230(5) 0.6770(3) 0.4847(8)
O8_2 O 0.9540(4) 0.6770(3) 0.0153(8)
O23_2 O 0.7010(9) 0.6331(5) 0.6252(10)
C144_2 C 0.8434(9) 0.7970(6) 0.2543(9)
C145_2 C 0.9536(7) 0.7970(6) 0.2457(9)
H77_2 H 0.8489 0.8142 0.2220
H78_2 H 0.9653 0.8142 0.2780
C159_2 C 0.8651(10) 0.7659(6) 0.3334(12)
C160_2 C 0.9008(8) 0.7659(6) 0.1666(12)
H87_2 H 0.8841 0.7640 0.3500
H88_2 H 0.8799 0.7640 0.1500
N5_2 N 0.9049(12) 0.8098(5) 0.2500
C163_2 C 0.9601(11) 0.9202(5) 0.2500
C165_2 C 0.9801(12) 0.9603(5) 0.2500
C169_2 C 0.9669(9) 0.9038(5) 0.1938(12)
C170_2 C 0.9369(8) 0.9038(5) 0.3062(12)
H93_2 H 0.9335 0.9170 0.3384
H94_2 H 0.9835 0.9170 0.1616
C174_2 C 0.9456(12) 0.8650(6) 0.1923(15)
C175_2 C 0.9194(10) 0.8650(6) 0.3077(15)
H98_2 H 0.9061 0.8514 0.3429
H99_2 H 0.9453 0.8514 0.1571
C179_2 C 0.9250(12) 0.8500(5) 0.2500
H111_2 H 0.722637 0.653217 0.645199
H112_2 H 0.682373 0.621017 0.659229
O24_2 O 0.9321(7) 0.6331(5) 0.8748(10)
H109_2 H 0.93058 0.653217 0.854801
H110_2 H 0.938644 0.621017 0.840771
loop_
_geom_bond_atom_site_label_1
_geom_bond_atom_site_label_2
_geom_bond_site_symmetry_1
_geom_bond_site_symmetry_2
C1 C2 1_555 1_555
C2 H1 1_555 1_555
C3 C2 1_555 1_555
C4 C3 1_555 1_555
C5 C4 1_555 1_555
H2 C5 1_555 1_555
C6 C1 1_555 1_555
H3 C6 1_555 1_555
C7 C3 1_555 1_555
H4 C7 1_555 1_555
C8 C7 1_555 1_555
H5 C8 1_555 1_555
C9 C10 1_555 1_555
C10 H6 1_555 1_555
C11 C10 1_555 1_555
H7 C11 1_555 1_555
C12 C11 1_555 1_555
C13 C12 1_555 1_555
C14 C13 1_555 1_555
H8 C14 1_555 1_555
C24 C1 1_555 1_555
N1 C9 1_555 1_555
O3 Cu1 1_555 1_555
O4 Cu1 1_555 1_555
O5 C24 1_555 1_555
C26 C4 1_555 1_555
H14 C26 1_555 1_555
C27 C8 1_555 1_555
Cu11 O38 1_555 1_555
Cu15 O40 1_555 1_555
Cu16 O31 1_555 1_555
Cu17 O41 1_555 1_555
C35 C40 1_555 1_555
C36 C41 1_555 1_555
C37 C42 1_555 1_555
C38 C43 1_555 1_555
C39 C44 1_555 1_555
C40 H19 1_555 1_555
C41 H20 1_555 1_555
C42 H21 1_555 1_555
C43 H22 1_555 1_555
C44 H23 1_555 1_555
C45 C40 1_555 1_555
C46 C41 1_555 1_555
C47 C42 1_555 1_555
C48 C43 1_555 1_555
C49 C44 1_555 1_555
C50 C45 1_555 1_555
C51 C46 1_555 1_555
C52 C47 1_555 1_555
C53 C48 1_555 1_555
C54 C49 1_555 1_555
C55 C50 1_555 1_555
C56 C51 1_555 1_555
C57 C52 1_555 1_555
C58 C53 1_555 1_555
C59 C54 1_555 1_555
H24 C55 1_555 1_555
H25 C56 1_555 1_555
H26 C57 1_555 1_555
H27 C58 1_555 1_555
H28 C59 1_555 1_555
C60 C35 1_555 1_555
C61 C36 1_555 1_555
C62 C37 1_555 1_555
C63 C38 1_555 1_555
C64 C39 1_555 1_555
H29 C60 1_555 1_555
H30 C61 1_555 1_555
H31 C62 1_555 1_555
H32 C63 1_555 1_555
H33 C64 1_555 1_555
C65 C45 1_555 1_555
C66 C46 1_555 1_555
C67 C47 1_555 1_555
C68 C48 1_555 1_555
C69 C49 1_555 1_555
H34 C65 1_555 1_555
H35 C66 1_555 1_555
H36 C67 1_555 1_555
H37 C68 1_555 1_555
H38 C69 1_555 1_555
C70 C65 1_555 1_555
C71 C66 1_555 1_555
C72 C67 1_555 1_555
C73 C68 1_555 1_555
C74 C69 1_555 1_555
H39 C70 1_555 1_555
H40 C71 1_555 1_555
H41 C72 1_555 1_555
H42 C73 1_555 1_555
H43 C74 1_555 1_555
C75 C78 1_555 1_555
C76 C80 1_555 1_555
C77 C9 1_555 1_555
C78 H46 1_555 1_555
C79 C75 1_555 1_555
C80 H48 1_555 1_555
C81 C76 1_555 1_555
H44 C77 1_555 1_555
H45 C79 1_555 1_555
H47 C81 1_555 1_555
C82 C12 1_555 1_555
C83 C78 1_555 1_555
C84 C79 1_555 1_555
C85 C80 1_555 1_555
C86 C81 1_555 1_555
H49 C82 1_555 1_555
H50 C84 1_555 1_555
H51 C83 1_555 1_555
H52 C86 1_555 1_555
H53 C85 1_555 1_555
C87 C83 1_555 1_555
C88 C85 1_555 1_555
C89 C14 1_555 1_555
C90 C88 1_555 1_555
C91 C89 1_555 1_555
C92 C13 1_555 1_555
H54 C92 1_555 1_555
H55 C91 1_555 1_555
C138 C35 1_555 1_555
C139 C36 1_555 1_555
C140 C37 1_555 1_555
C141 C38 1_555 1_555
C142 C39 1_555 1_555
N3 C75 1_555 1_555
N4 C76 1_555 1_555
O16 Cu1 1_555 1_555
O27 C138 1_555 1_555
O28 C139 1_555 1_555
O29 C140 1_555 1_555
O30 C141 1_555 1_555
O31 C142 1_555 1_555
O37 C138 1_555 1_555
O38 C139 1_555 1_555
O39 C140 1_555 1_555
O40 C141 1_555 1_555
O41 C142 1_555 1_555
C148 C50 1_555 1_555
C149 C51 1_555 1_555
C150 C52 1_555 1_555
C151 C53 1_555 1_555
C152 C54 1_555 1_555
H81 C148 1_555 1_555
H82 C149 1_555 1_555
H83 C150 1_555 1_555
H84 C151 1_555 1_555
H85 C152 1_555 1_555
C153 C70 1_555 1_555
C154 C71 1_555 1_555
C155 C72 1_555 1_555
C156 C73 1_555 1_555
C157 N1 1_555 1_555
C5 C6 1_555 1_555
C24 O4 1_555 1_555
N1 C27 1_555 1_555
C26 C27 1_555 1_555
C55 C60 1_555 1_555
C56 C61 1_555 1_555
C57 C62 1_555 1_555
C58 C63 1_555 1_555
C59 C64 1_555 1_555
C74 C157 1_555 1_555
C77 C82 1_555 1_555
C84 C87 1_555 1_555
C86 C88 1_555 1_555
C87 C89 1_555 1_555
C90 C91 1_555 1_555
C90 C92 1_555 1_555
N3 C153 1_555 1_555
N3 C154 1_555 1_555
N4 C155 1_555 1_555
N4 C156 1_555 1_555
C148 C153 1_555 1_555
C149 C154 1_555 1_555
C150 C155 1_555 1_555
C151 C156 1_555 1_555
C152 C157 1_555 1_555
O3 H103 1_555 1_555
O3 H104 1_555 1_555
C15 C20 1_555 1_555
C16 H9 1_555 1_555
C17 C25 1_555 1_555
C18 C16 1_555 1_555
C19 C18 1_555 1_555
H10 C19 1_555 1_555
C20 C19 1_555 1_555
C21 C20 1_555 1_555
H11 C21 1_555 1_555
C22 C21 1_555 1_555
H12 C22 1_555 1_555
C23 C18 1_555 1_555
O1 C15 1_555 1_555
O2 C15 1_555 1_555
C25 C16 1_555 1_555
H13 C25 1_555 1_555
C28 C17 1_555 1_555
H15 C28 1_555 1_555
N2 C17 1_555 1_555
C29 C30 1_555 1_555
C32 C29 1_555 1_555
H17 C32 1_555 1_555
C33 C32 1_555 1_555
H18 C33 1_555 1_555
C34 N2 1_555 1_555
Cu10 O6 1_555 1_555
Cu7 O2 1_555 1_555
Cu15 O15 1_555 1_555
C93 C118 1_555 1_555
C98 H56 1_555 1_555
C103 N2 1_555 1_555
C108 C98 1_555 1_555
C113 C108 1_555 1_555
H61 C113 1_555 1_555
C118 C113 1_555 1_555
C123 C118 1_555 1_555
H66 C123 1_555 1_555
C128 C123 1_555 1_555
H71 C128 1_555 1_555
C133 C108 1_555 1_555
O6 C93 1_555 1_555
O17 Cu10 1_555 1_555
O22 Cu10 1_555 1_555
O43 Cu10 1_555 1_555
C143 C98 1_555 1_555
H76 C143 1_555 1_555
C158 C103 1_555 1_555
H86 C158 1_555 1_555
C168 C30 1_555 1_555
H91 C168 1_555 1_555
C173 C29 1_555 1_555
H97 C173 1_555 1_555
C178 C34 1_555 1_555
H102 C178 1_555 1_555
C22 C23 1_555 1_555
C23 C28 1_555 1_555
C33 C34 1_555 1_555
C103 C143 1_555 1_555
C128 C133 1_555 1_555
C133 C158 1_555 1_555
C173 C178 1_555 1_555
O22 H113 1_555 1_555
O22 H114 1_555 1_555
O20 Cu8 1_555 1_555
O25 Cu8 1_555 1_555
O25 H105 1_555 1_555
O25 H106 1_555 1_555
Cu14 O10 1_555 1_555
C96 C121 1_555 1_555
C97 C122 1_555 1_555
C101 H59 1_555 1_555
C102 H60 1_555 1_555
C106 C146 1_555 1_555
C107 C147 1_555 1_555
C111 C101 1_555 1_555
C112 C102 1_555 1_555
C116 C111 1_555 1_555
C117 C112 1_555 1_555
H64 C116 1_555 1_555
H65 C117 1_555 1_555
C121 C116 1_555 1_555
C122 C117 1_555 1_555
C126 C121 1_555 1_555
C127 C122 1_555 1_555
H69 C126 1_555 1_555
H70 C127 1_555 1_555
C131 C126 1_555 1_555
C132 C127 1_555 1_555
H74 C131 1_555 1_555
H75 C132 1_555 1_555
C136 C111 1_555 1_555
C137 C112 1_555 1_555
O9 C96 1_555 1_555
O10 C97 1_555 1_555
O21 Cu14 1_555 1_555
O26 Cu14 1_555 1_555
O47 Cu14 1_555 1_555
C146 C101 1_555 1_555
C147 C102 1_555 1_555
H79 C146 1_555 1_555
H80 C147 1_555 1_555
C161 C106 1_555 1_555
C162 C107 1_555 1_555
H89 C161 1_555 1_555
H90 C162 1_555 1_555
N6 C106 1_555 1_555
C164 C166 1_555 1_555
C171 C164 1_555 1_555
C172 C164 1_555 1_555
H95 C172 1_555 1_555
H96 C171 1_555 1_555
C176 C171 1_555 1_555
C177 C172 1_555 1_555
H100 C177 1_555 1_555
H101 C176 1_555 1_555
C180 N6 1_555 1_555
C107 N6 1_555 1_555
C131 C136 1_555 1_555
C132 C137 1_555 1_555
C136 C161 1_555 1_555
C137 C162 1_555 1_555
C176 C180 1_555 1_555
C177 C180 1_555 1_555
O26 H107 1_555 1_555
O26 H108 1_555 1_555
C31 H16 1_555 1_555
Cu11 O11 1_555 1_555
Cu13 O12 1_555 1_555
O18 Cu12 1_555 1_555
O23 Cu12 1_555 1_555
O23 H111 1_555 1_555
O23 H112 1_555 1_555
Cu16 O8 1_555 1_555
Cu17 O13 1_555 1_555
Cu9 O14 1_555 1_555
C94 C119 1_555 1_555
C95 C120 1_555 1_555
C99 H57 1_555 1_555
C100 H58 1_555 1_555
C104 C144 1_555 1_555
C105 C145 1_555 1_555
C109 C99 1_555 1_555
C110 C100 1_555 1_555
C114 C109 1_555 1_555
C115 C110 1_555 1_555
H62 C114 1_555 1_555
H63 C115 1_555 1_555
C119 C114 1_555 1_555
C120 C115 1_555 1_555
C124 C119 1_555 1_555
C125 C120 1_555 1_555
H67 C124 1_555 1_555
H68 C125 1_555 1_555
C129 C124 1_555 1_555
C130 C125 1_555 1_555
H72 C129 1_555 1_555
H73 C130 1_555 1_555
C134 C109 1_555 1_555
C135 C110 1_555 1_555
O7 C94 1_555 1_555
O8 C95 1_555 1_555
O13 C95 1_555 1_555
O19 Cu16 1_555 1_555
O24 Cu16 1_555 1_555
O45 Cu16 1_555 1_555
C144 C99 1_555 1_555
C145 C100 1_555 1_555
H77 C144 1_555 1_555
H78 C145 1_555 1_555
C159 C104 1_555 1_555
C160 C105 1_555 1_555
H87 C159 1_555 1_555
H88 C160 1_555 1_555
N5 C104 1_555 1_555
C163 C165 1_555 1_555
C167 C165 1_555 1_555
H92 C167 1_555 1_555
C169 C163 1_555 1_555
C170 C163 1_555 1_555
H93 C170 1_555 1_555
H94 C169 1_555 1_555
C174 C169 1_555 1_555
C175 C170 1_555 1_555
H98 C175 1_555 1_555
H99 C174 1_555 1_555
C179 N5 1_555 1_555
C105 N5 1_555 1_555
C129 C134 1_555 1_555
C130 C135 1_555 1_555
C134 C159 1_555 1_555
C135 C160 1_555 1_555
C174 C179 1_555 1_555
C175 C179 1_555 1_555
O24 H109 1_555 1_555
O24 H110 1_555 1_555
C1_2 C2_2 1_555 1_555
C2_2 H1_2 1_555 1_555
C3_2 C2_2 1_555 1_555
C4_2 C3_2 1_555 1_555
C5_2 C4_2 1_555 1_555
H2_2 C5_2 1_555 1_555
C6_2 C1_2 1_555 1_555
H3_2 C6_2 1_555 1_555
C7_2 C3_2 1_555 1_555
H4_2 C7_2 1_555 1_555
C8_2 C7_2 1_555 1_555
H5_2 C8_2 1_555 1_555
C9_2 C10_2 1_555 1_555
C10_2 H6_2 1_555 1_555
C11_2 C10_2 1_555 1_555
H7_2 C11_2 1_555 1_555
C12_2 C11_2 1_555 1_555
C13_2 C12_2 1_555 1_555
C14_2 C13_2 1_555 1_555
H8_2 C14_2 1_555 1_555
C24_2 C1_2 1_555 1_555
N1_2 C9_2 1_555 1_555
O43 C24_2 1_555 1_555
C26_2 C4_2 1_555 1_555
H14_2 C26_2 1_555 1_555
C27_2 C8_2 1_555 1_555
Cu15 O9_2 1_555 1_555
Cu17 O29_2 1_555 1_555
Cu7 O30_2 1_555 1_555
C35_2 C40_2 1_555 1_555
C36_2 C41_2 1_555 1_555
C37_2 C42_2 1_555 1_555
C38_2 C43_2 1_555 1_555
C39_2 C44_2 1_555 1_555
C40_2 H19_2 1_555 1_555
C41_2 H20_2 1_555 1_555
C42_2 H21_2 1_555 1_555
C43_2 H22_2 1_555 1_555
C44_2 H23_2 1_555 1_555
C45_2 C40_2 1_555 1_555
C46_2 C41_2 1_555 1_555
C47_2 C42_2 1_555 1_555
C48_2 C43_2 1_555 1_555
C49_2 C44_2 1_555 1_555
C50_2 C45_2 1_555 1_555
C51_2 C46_2 1_555 1_555
C52_2 C47_2 1_555 1_555
C53_2 C48_2 1_555 1_555
C54_2 C49_2 1_555 1_555
C55_2 C50_2 1_555 1_555
C56_2 C51_2 1_555 1_555
C57_2 C52_2 1_555 1_555
C58_2 C53_2 1_555 1_555
C59_2 C54_2 1_555 1_555
H24_2 C55_2 1_555 1_555
H25_2 C56_2 1_555 1_555
H26_2 C57_2 1_555 1_555
H27_2 C58_2 1_555 1_555
H28_2 C59_2 1_555 1_555
C60_2 C35_2 1_555 1_555
C61_2 C36_2 1_555 1_555
C62_2 C37_2 1_555 1_555
C63_2 C38_2 1_555 1_555
C64_2 C39_2 1_555 1_555
H29_2 C60_2 1_555 1_555
H30_2 C61_2 1_555 1_555
H31_2 C62_2 1_555 1_555
H32_2 C63_2 1_555 1_555
H33_2 C64_2 1_555 1_555
C65_2 C45_2 1_555 1_555
C66_2 C46_2 1_555 1_555
C67_2 C47_2 1_555 1_555
C68_2 C48_2 1_555 1_555
C69_2 C49_2 1_555 1_555
H34_2 C65_2 1_555 1_555
H35_2 C66_2 1_555 1_555
H36_2 C67_2 1_555 1_555
H37_2 C68_2 1_555 1_555
H38_2 C69_2 1_555 1_555
C70_2 C65_2 1_555 1_555
C71_2 C66_2 1_555 1_555
C72_2 C67_2 1_555 1_555
C73_2 C68_2 1_555 1_555
C74_2 C69_2 1_555 1_555
H39_2 C70_2 1_555 1_555
H40_2 C71_2 1_555 1_555
H41_2 C72_2 1_555 1_555
H42_2 C73_2 1_555 1_555
H43_2 C74_2 1_555 1_555
C75_2 C78_2 1_555 1_555
C76_2 C80_2 1_555 1_555
C77_2 C9_2 1_555 1_555
C78_2 H46_2 1_555 1_555
C79_2 C75_2 1_555 1_555
C80_2 H48_2 1_555 1_555
C81_2 C76_2 1_555 1_555
H44_2 C77_2 1_555 1_555
H45_2 C79_2 1_555 1_555
H47_2 C81_2 1_555 1_555
C82_2 C12_2 1_555 1_555
C83_2 C78_2 1_555 1_555
C84_2 C79_2 1_555 1_555
C85_2 C80_2 1_555 1_555
C86_2 C81_2 1_555 1_555
H49_2 C82_2 1_555 1_555
H50_2 C84_2 1_555 1_555
H51_2 C83_2 1_555 1_555
H52_2 C86_2 1_555 1_555
H53_2 C85_2 1_555 1_555
C87_2 C83_2 1_555 1_555
C88_2 C85_2 1_555 1_555
C89_2 C14_2 1_555 1_555
C90_2 C88_2 1_555 1_555
C91_2 C89_2 1_555 1_555
C92_2 C13_2 1_555 1_555
H54_2 C92_2 1_555 1_555
H55_2 C91_2 1_555 1_555
C96_2 C121_2 1_555 1_555
C97_2 C122_2 1_555 1_555
C101_2 H59_2 1_555 1_555
C102_2 H60_2 1_555 1_555
C106_2 C146_2 1_555 1_555
C107_2 C147_2 1_555 1_555
C111_2 C101_2 1_555 1_555
C112_2 C102_2 1_555 1_555
C116_2 C111_2 1_555 1_555
C117_2 C112_2 1_555 1_555
H64_2 C116_2 1_555 1_555
H65_2 C117_2 1_555 1_555
C121_2 C116_2 1_555 1_555
C122_2 C117_2 1_555 1_555
C126_2 C121_2 1_555 1_555
C127_2 C122_2 1_555 1_555
H69_2 C126_2 1_555 1_555
H70_2 C127_2 1_555 1_555
C131_2 C126_2 1_555 1_555
C132_2 C127_2 1_555 1_555
H74_2 C131_2 1_555 1_555
H75_2 C132_2 1_555 1_555
C136_2 C111_2 1_555 1_555
C137_2 C112_2 1_555 1_555
C138_2 C35_2 1_555 1_555
C139_2 C36_2 1_555 1_555
C140_2 C37_2 1_555 1_555
C141_2 C38_2 1_555 1_555
C142_2 C39_2 1_555 1_555
N3_2 C75_2 1_555 1_555
N4_2 C76_2 1_555 1_555
O9_2 C96_2 1_555 1_555
O10_2 C97_2 1_555 1_555
O16 C97_2 1_555 1_555
O25_2 Cu15 1_555 1_555
O27_2 C138_2 1_555 1_555
O28_2 C139_2 1_555 1_555
O29_2 C140_2 1_555 1_555
O30_2 C141_2 1_555 1_555
O31_2 C142_2 1_555 1_555
O47 C138_2 1_555 1_555
O44 C139_2 1_555 1_555
O45 C140_2 1_555 1_555
O42 C141_2 1_555 1_555
O46 C142_2 1_555 1_555
C146_2 C101_2 1_555 1_555
C147_2 C102_2 1_555 1_555
H79_2 C146_2 1_555 1_555
H80_2 C147_2 1_555 1_555
C148_2 C50_2 1_555 1_555
C149_2 C51_2 1_555 1_555
C150_2 C52_2 1_555 1_555
C151_2 C53_2 1_555 1_555
C152_2 C54_2 1_555 1_555
H81_2 C148_2 1_555 1_555
H82_2 C149_2 1_555 1_555
H83_2 C150_2 1_555 1_555
H84_2 C151_2 1_555 1_555
H85_2 C152_2 1_555 1_555
C153_2 C70_2 1_555 1_555
C154_2 C71_2 1_555 1_555
C155_2 C72_2 1_555 1_555
C156_2 C73_2 1_555 1_555
C157_2 N1_2 1_555 1_555
C161_2 C106_2 1_555 1_555
C162_2 C107_2 1_555 1_555
H89_2 C161_2 1_555 1_555
H90_2 C162_2 1_555 1_555
N6_2 C106_2 1_555 1_555
C164_2 C166_2 1_555 1_555
H91_2 C168_2 1_555 1_555
C171_2 C164_2 1_555 1_555
C172_2 C164_2 1_555 1_555
H95_2 C172_2 1_555 1_555
H96_2 C171_2 1_555 1_555
C176_2 C171_2 1_555 1_555
C177_2 C172_2 1_555 1_555
H100_2 C177_2 1_555 1_555
H101_2 C176_2 1_555 1_555
C180_2 N6_2 1_555 1_555
C5_2 C6_2 1_555 1_555
C24_2 O4_2 1_555 1_555
N1_2 C27_2 1_555 1_555
C26_2 C27_2 1_555 1_555
C55_2 C60_2 1_555 1_555
C56_2 C61_2 1_555 1_555
C57_2 C62_2 1_555 1_555
C58_2 C63_2 1_555 1_555
C59_2 C64_2 1_555 1_555
C74_2 C157_2 1_555 1_555
C77_2 C82_2 1_555 1_555
C84_2 C87_2 1_555 1_555
C86_2 C88_2 1_555 1_555
C87_2 C89_2 1_555 1_555
C90_2 C91_2 1_555 1_555
C90_2 C92_2 1_555 1_555
C107_2 N6_2 1_555 1_555
C131_2 C136_2 1_555 1_555
C132_2 C137_2 1_555 1_555
C136_2 C161_2 1_555 1_555
C137_2 C162_2 1_555 1_555
N3_2 C153_2 1_555 1_555
N3_2 C154_2 1_555 1_555
N4_2 C155_2 1_555 1_555
N4_2 C156_2 1_555 1_555
C148_2 C153_2 1_555 1_555
C149_2 C154_2 1_555 1_555
C150_2 C155_2 1_555 1_555
C151_2 C156_2 1_555 1_555
C152_2 C157_2 1_555 1_555
C166_2 C168_2 1_555 1_555
C176_2 C180_2 1_555 1_555
C177_2 C180_2 1_555 1_555
O25_2 H105_2 1_555 1_555
O25_2 H106_2 1_555 1_555
O26_2 Cu7 1_555 1_555
O26_2 H107_2 1_555 1_555
O26_2 H108_2 1_555 1_555
H92_2 C167_2 1_555 1_555
Cu11 O1_2 1_555 1_555
C15_2 C20_2 1_555 1_555
C16_2 H9_2 1_555 1_555
C17_2 C25_2 1_555 1_555
C18_2 C16_2 1_555 1_555
C19_2 C18_2 1_555 1_555
H10_2 C19_2 1_555 1_555
C20_2 C19_2 1_555 1_555
C21_2 C20_2 1_555 1_555
H11_2 C21_2 1_555 1_555
C22_2 C21_2 1_555 1_555
H12_2 C22_2 1_555 1_555
C23_2 C18_2 1_555 1_555
O1_2 C15_2 1_555 1_555
O3_2 Cu11 1_555 1_555
C25_2 C16_2 1_555 1_555
H13_2 C25_2 1_555 1_555
C28_2 C17_2 1_555 1_555
H15_2 C28_2 1_555 1_555
N2_2 C17_2 1_555 1_555
C29_2 C30_2 1_555 1_555
C32_2 C29_2 1_555 1_555
H17_2 C32_2 1_555 1_555
C33_2 C32_2 1_555 1_555
H18_2 C33_2 1_555 1_555
C34_2 N2_2 1_555 1_555
C93_2 C118_2 1_555 1_555
C98_2 H56_2 1_555 1_555
C103_2 N2_2 1_555 1_555
C108_2 C98_2 1_555 1_555
C113_2 C108_2 1_555 1_555
H61_2 C113_2 1_555 1_555
C118_2 C113_2 1_555 1_555
C123_2 C118_2 1_555 1_555
H66_2 C123_2 1_555 1_555
C128_2 C123_2 1_555 1_555
H71_2 C128_2 1_555 1_555
C133_2 C108_2 1_555 1_555
O6_2 C93_2 1_555 1_555
C143_2 C98_2 1_555 1_555
H76_2 C143_2 1_555 1_555
C158_2 C103_2 1_555 1_555
H86_2 C158_2 1_555 1_555
C173_2 C29_2 1_555 1_555
H97_2 C173_2 1_555 1_555
C178_2 C34_2 1_555 1_555
H102_2 C178_2 1_555 1_555
C22_2 C23_2 1_555 1_555
C23_2 C28_2 1_555 1_555
C33_2 C34_2 1_555 1_555
C103_2 C143_2 1_555 1_555
C128_2 C133_2 1_555 1_555
C133_2 C158_2 1_555 1_555
C173_2 C178_2 1_555 1_555
O3_2 H103_2 1_555 1_555
O3_2 H104_2 1_555 1_555
O22_2 Cu13 1_555 1_555
O22_2 H113_2 1_555 1_555
O22_2 H114_2 1_555 1_555
C31_2 H16_2 1_555 1_555
Cu17 O7_2 1_555 1_555
C94_2 C119_2 1_555 1_555
C95_2 C120_2 1_555 1_555
C99_2 H57_2 1_555 1_555
C100_2 H58_2 1_555 1_555
C104_2 C144_2 1_555 1_555
C105_2 C145_2 1_555 1_555
C109_2 C99_2 1_555 1_555
C110_2 C100_2 1_555 1_555
C114_2 C109_2 1_555 1_555
C115_2 C110_2 1_555 1_555
H62_2 C114_2 1_555 1_555
H63_2 C115_2 1_555 1_555
C119_2 C114_2 1_555 1_555
C120_2 C115_2 1_555 1_555
C124_2 C119_2 1_555 1_555
C125_2 C120_2 1_555 1_555
H67_2 C124_2 1_555 1_555
H68_2 C125_2 1_555 1_555
C129_2 C124_2 1_555 1_555
C130_2 C125_2 1_555 1_555
H72_2 C129_2 1_555 1_555
H73_2 C130_2 1_555 1_555
C134_2 C109_2 1_555 1_555
C135_2 C110_2 1_555 1_555
O7_2 C94_2 1_555 1_555
O8_2 C95_2 1_555 1_555
O19 C94_2 1_555 1_555
O23_2 Cu17 1_555 1_555
C144_2 C99_2 1_555 1_555
C145_2 C100_2 1_555 1_555
H77_2 C144_2 1_555 1_555
H78_2 C145_2 1_555 1_555
C159_2 C104_2 1_555 1_555
C160_2 C105_2 1_555 1_555
H87_2 C159_2 1_555 1_555
H88_2 C160_2 1_555 1_555
N5_2 C104_2 1_555 1_555
C163_2 C165_2 1_555 1_555
C165_2 C31_2 1_555 1_555
C169_2 C163_2 1_555 1_555
C170_2 C163_2 1_555 1_555
H93_2 C170_2 1_555 1_555
H94_2 C169_2 1_555 1_555
C174_2 C169_2 1_555 1_555
C175_2 C170_2 1_555 1_555
H98_2 C175_2 1_555 1_555
H99_2 C174_2 1_555 1_555
C179_2 N5_2 1_555 1_555
C105_2 N5_2 1_555 1_555
C129_2 C134_2 1_555 1_555
C130_2 C135_2 1_555 1_555
C134_2 C159_2 1_555 1_555
C135_2 C160_2 1_555 1_555
C174_2 C179_2 1_555 1_555
C175_2 C179_2 1_555 1_555
O23_2 H111_2 1_555 1_555
O23_2 H112_2 1_555 1_555
O24_2 Cu9 1_555 1_555
O24_2 H109_2 1_555 1_555
O24_2 H110_2 1_555 1_555

#END
