
###############################################################################
#
# This file contains modified crystal structure data generated from the
# MOF subset of the Cambridge Structural Database (CSD) v543 
# hosted by the Cambridge Crystallographic Data Centre (CCDC).
#
# This work is licensed under the Creative Commons
# Attribution-NonCommercial-ShareAlike 4.0 International License.
# To view a copy of this license, visit
# http://creativecommons.org/licenses/by-nc-sa/4.0/
# or send a letter to
# Creative Commons, PO Box 1866, Mountain View, CA 94042, USA.
#
# CIF created using the CSD Python API on 29 September 2022
# The structure has been converted into the P1 space group
# The structure has a 3D framework
# The original CSD entry VETTUK is in the monoclinic crystal system
# The framework has been calculated to contain at least 10.0% void space
# The void calculation uses a probe of radius 1.32A, grid spacing 0.4
#
###############################################################################

data_VETTUK
_chemical_formula_moiety         '(C616 H376 Cl14 Dy16 N56 O120)n'
_symmetry_cell_setting           triclinic
_symmetry_space_group_name_H-M   'P 1'
_symmetry_Int_Tables_number      1
_space_group_name_Hall           'P 1'
loop_
_symmetry_equiv_pos_site_id
_symmetry_equiv_pos_as_xyz
1 x,y,z
_cell_length_a                   21.6561(4)
_cell_length_b                   23.9803(5)
_cell_length_c                   30.9598(9)
_cell_angle_alpha                90
_cell_angle_beta                 106.264(2)
_cell_angle_gamma                90
_cell_volume                     15434.6
loop_
_atom_site_label
_atom_site_type_symbol
_atom_site_fract_x
_atom_site_fract_y
_atom_site_fract_z
C38 C 0.1714(4) 0.0139(3) 0.4223(3)
H19 H 0.0947 0.0066 0.4477
C41 C 0.1744(5) 0.0764(3) 0.4190(3)
O5 O 0.1959(3) 0.09888(19) 0.3901(2)
O6 O 0.1530(4) 0.1048(2) 0.4467(2)
Dy14 Dy 0.176920(13) 0.191220(11) 0.412650(9)
Dy1 Dy 0.086634(12) 0.273079(11) 0.301161(8)
C1 C 0.1369(3) 0.6451(2) 0.51125(19)
C2 C 0.1190(3) 0.5936(3) 0.5281(2)
H1 H 0.1060 0.5891 0.5548
C3 C 0.1238(3) 0.5533(3) 0.4999(2)
H2 H 0.1149 0.5148 0.5024
C4 C 0.1451(3) 0.5792(3) 0.4645(2)
C5 C 0.1618(3) 0.5502(2) 0.4296(2)
C6 C 0.1825(3) 0.5768(2) 0.39592(19)
C7 C 0.2028(3) 0.5474(3) 0.3614(2)
H3 H 0.2083 0.5083 0.3594
C8 C 0.2123(3) 0.5864(2) 0.3328(2)
H4 H 0.2262 0.5797 0.3067
C9 C 0.1978(3) 0.6400(2) 0.34852(18)
C10 C 0.1923(2) 0.6896(2) 0.32433(18)
C11 C 0.1726(2) 0.7407(2) 0.33963(19)
C12 C 0.1599(3) 0.7906(3) 0.3149(2)
H5 H 0.1574 0.7948 0.2840
C13 C 0.1517(3) 0.8314(3) 0.3428(2)
H6 H 0.1411 0.8692 0.3352
C14 C 0.1622(3) 0.8060(2) 0.3866(2)
C15 C 0.1700(3) 0.8350(3) 0.4270(2)
C16 C 0.1767(3) 0.8081(2) 0.46862(19)
C17 C 0.1855(3) 0.8358(3) 0.5113(2)
H7 H 0.1954 0.8741 0.5172
C18 C 0.1773(3) 0.7977(2) 0.5413(2)
H8 H 0.1795 0.8040 0.5720
C19 C 0.1643(3) 0.7450(2) 0.51701(19)
C20 C 0.1445(3) 0.6958(2) 0.53383(19)
N1 N 0.1507(2) 0.63526(19) 0.47115(16)
N2 N 0.1807(2) 0.63260(19) 0.38792(15)
N3 N 0.1703(2) 0.74970(19) 0.38283(15)
N4 N 0.1677(2) 0.75147(18) 0.47342(16)
C21 C 0.1593(3) 0.4882(2) 0.4282(2)
C22 C 0.2125(3) 0.4566(3) 0.4488(2)
H9 H 0.2490 0.4745 0.4681
C23 C 0.2148(3) 0.4007(2) 0.44247(18)
H10 H 0.2526 0.3803 0.4568
C24 C 0.1609(3) 0.3730(3) 0.41466(17)
C25 C 0.1060(3) 0.4044(3) 0.3956(2)
H11 H 0.0687 0.3864 0.3773
C26 C 0.1045(3) 0.4611(3) 0.4025(2)
H12 H 0.0662 0.4815 0.3897
C27 C 0.1636(3) 0.3122(3) 0.40719(19)
O1 O 0.2106(2) 0.28521(18) 0.42767(15)
O2 O 0.11473(19) 0.28891(16) 0.37883(13)
C28 C 0.2101(3) 0.6893(2) 0.28147(19)
C29 C 0.1663(3) 0.6987(3) 0.2398(2)
H13 H 0.1223 0.7044 0.2382
C30 C 0.1846(3) 0.7001(3) 0.2003(2)
H14 H 0.1537 0.7060 0.1721
C31 C 0.2484(3) 0.6926(2) 0.20268(18)
C32 C 0.2926(3) 0.6792(2) 0.2429(2)
H15 H 0.3357 0.6706 0.2436
C33 C 0.2737(3) 0.6783(2) 0.2823(2)
H16 H 0.3045 0.6701 0.3102
C34 C 0.2716(3) 0.7000(2) 0.16154(18)
O3 O 0.23246(19) 0.69788(17) 0.12289(13)
O4 O 0.33136(17) 0.70771(16) 0.16624(12)
C35 C 0.1705(3) 0.8972(3) 0.4257(2)
C36 C 0.2145(3) 0.9247(3) 0.4094(3)
H17 H 0.2453 0.9035 0.3998
C37 C 0.2161(4) 0.9819(3) 0.4065(3)
H18 H 0.2464 0.9998 0.3941
C39 C 0.1259(4) 0.9862(3) 0.4379(3)
C40 C 0.1260(3) 0.9281(3) 0.4391(2)
H20 H 0.0943 0.9094 0.4495
C42 C 0.1282(3) 0.6995(2) 0.57723(19)
C43 C 0.0637(3) 0.6997(3) 0.5769(2)
H21 H 0.0311 0.6963 0.5491
C44 C 0.0463(3) 0.7050(3) 0.6172(2)
H22 H 0.0023 0.7044 0.6168
C45 C 0.0935(3) 0.7111(2) 0.65694(19)
C46 C 0.1581(3) 0.7079(3) 0.65773(19)
H23 H 0.1906 0.7092 0.6856
C47 C 0.1748(3) 0.7028(2) 0.6186(2)
H24 H 0.2190 0.7016 0.6195
C48 C 0.0749(3) 0.7204(2) 0.6991(2)
O7 O 0.01550(19) 0.72482(16) 0.69709(14)
O8 O 0.1182(2) 0.72319(16) 0.73621(13)
Cl1 Cl 0.16686(7) 0.69224(6) 0.42849(5)
C61 C 0.0513(3) 0.0109(2) 0.2762(2)
C62 C 0.0523(3) 0.0695(2) 0.2766(2)
H30 H 0.0887 0.0886 0.2950
C63 C 0.0000 0.0998(3) 0.2500
C64 C 0.0000 0.1607(3) 0.2500
O9 O 0.04884(19) 0.18588(15) 0.27388(15)
O13 O 0.18416(19) 0.32628(17) 0.31908(13)
C77 C 0.2202(3) 0.3385(3) 0.2960(2)
H37 H 0.2091 0.3249 0.2660
N7 N 0.2728(3) 0.3689(3) 0.3096(2)
C78 C 0.2945(4) 0.3903(4) 0.3544(3)
H38 H 0.2698 0.4238 0.3569
H39 H 0.3403 0.3997 0.3613
H40 H 0.2882 0.3620 0.3756
C79 C 0.3148(4) 0.3795(4) 0.2803(3)
H41 H 0.2966 0.3613 0.2511
H42 H 0.3578 0.3644 0.2944
H43 H 0.3179 0.4197 0.2758
O14 O 0.2692(3) 0.1875(3) 0.4747(2)
H44 H 0.2564 0.1871 0.5020
H45 H 0.2943 0.2204 0.4740
O15 O 0.0696(3) 0.1745(3) 0.37109(19)
H46 H 0.0472 0.2094 0.3654
H47 H 0.0691 0.1572 0.3430
Dy4 Dy 0.413366(12) 0.773079(11) 0.198839(8)
Dy6 Dy 0.086634(12) 0.726921(11) 0.801161(8)
Dy13 Dy 0.323080(13) 0.691220(11) 0.087350(9)
C82 C 0.3762(3) 0.0533(3) 0.0001(2)
C83 C 0.3549(3) 0.0792(3) 0.0355(2)
C84 C 0.3382(3) 0.0502(2) 0.0704(2)
C85 C 0.3175(3) 0.0768(2) 0.10408(19)
C86 C 0.2972(3) 0.0474(3) 0.1386(2)
H50 H 0.2917 0.0083 0.1406
C87 C 0.2877(3) 0.0864(2) 0.1672(2)
H51 H 0.2738 0.0797 0.1933
C88 C 0.3022(3) 0.1400(2) 0.15148(18)
C89 C 0.3077(2) 0.1896(2) 0.17567(18)
C90 C 0.3274(2) 0.2407(2) 0.16037(19)
C91 C 0.3401(3) 0.2906(3) 0.1851(2)
H52 H 0.3426 0.2948 0.2160
C92 C 0.3483(3) 0.3314(3) 0.1572(2)
H53 H 0.3589 0.3692 0.1648
C93 C 0.3378(3) 0.3060(2) 0.1134(2)
C94 C 0.3300(3) 0.3350(3) 0.0730(2)
C95 C 0.3233(3) 0.3081(2) 0.03138(19)
N8 N 0.3493(2) 0.13526(19) 0.02885(16)
N9 N 0.3193(2) 0.13260(19) 0.11208(15)
N10 N 0.3297(2) 0.24970(19) 0.11717(15)
N11 N 0.3323(2) 0.25147(18) 0.02658(16)
C107 C 0.2899(3) 0.1893(2) 0.21853(19)
C108 C 0.3337(3) 0.1987(3) 0.2602(2)
H60 H 0.3777 0.2044 0.2618
C109 C 0.3154(3) 0.2001(3) 0.2997(2)
H61 H 0.3463 0.2060 0.3279
C110 C 0.2516(3) 0.1926(2) 0.29732(18)
C111 C 0.2074(3) 0.1792(2) 0.2571(2)
H62 H 0.1643 0.1706 0.2564
C112 C 0.2263(3) 0.1783(2) 0.2177(2)
H63 H 0.1955 0.1701 0.1898
C113 C 0.2284(3) 0.2000(2) 0.33846(18)
O18 O 0.26754(19) 0.19788(17) 0.37711(13)
O20 O 0.16864(17) 0.20771(16) 0.33376(12)
C114 C 0.3295(3) 0.3972(3) 0.0743(2)
C115 C 0.2855(3) 0.4247(3) 0.0906(3)
H64 H 0.2547 0.4035 0.1002
C116 C 0.2839(4) 0.4819(3) 0.0935(3)
H65 H 0.2536 0.4998 0.1059
C117 C 0.3286(4) 0.5139(3) 0.0777(3)
C118 C 0.3741(4) 0.4862(3) 0.0621(3)
H66 H 0.4053 0.5066 0.0523
C119 C 0.3740(3) 0.4281(3) 0.0609(2)
H67 H 0.4057 0.4094 0.0505
C120 C 0.3256(5) 0.5764(3) 0.0810(3)
O22 O 0.3041(3) 0.59888(19) 0.1099(2)
O25 O 0.3470(4) 0.6048(2) 0.0533(2)
O32 O 0.1182(2) 0.27681(16) 0.23621(13)
Cl3 Cl 0.33314(7) 0.19224(6) 0.07151(5)
O38 O 0.1290(2) 0.21777(18) 0.46722(16)
O41 O 0.04917(19) 0.36121(16) 0.27454(14)
Dy10 Dy 0.586634(12) 0.226921(11) 0.801161(8)
Dy11 Dy 0.413366(12) 0.226921(11) 0.698839(8)
C80 C 0.3631(3) 0.1451(2) 0.98875(19)
C81 C 0.3810(3) 0.0936(3) 0.9719(2)
H48 H 0.3940 0.0891 0.9452
H49 H 0.3851 0.0148 0.9976
C96 C 0.3145(3) 0.3358(3) 0.9887(2)
H54 H 0.3046 0.3741 0.9828
C97 C 0.3227(3) 0.2977(2) 0.9587(2)
H55 H 0.3205 0.3040 0.9280
C98 C 0.3357(3) 0.2450(2) 0.98299(19)
C99 C 0.3555(3) 0.1958(2) 0.96617(19)
C121 C 0.3718(3) 0.1995(2) 0.92277(19)
C122 C 0.4363(3) 0.1997(3) 0.9231(2)
H68 H 0.4689 0.1963 0.9509
C123 C 0.4537(3) 0.2050(3) 0.8828(2)
H69 H 0.4977 0.2044 0.8832
C124 C 0.4065(3) 0.2111(2) 0.84306(19)
C125 C 0.3419(3) 0.2079(3) 0.84227(19)
H70 H 0.3094 0.2092 0.8144
C126 C 0.3252(3) 0.2028(2) 0.8814(2)
H71 H 0.2810 0.2016 0.8805
C127 C 0.4251(3) 0.2204(2) 0.8009(2)
O28 O 0.48450(19) 0.22482(16) 0.80291(14)
O31 O 0.3818(2) 0.22319(16) 0.76379(13)
C49 C 0.0000 0.9186(3) 0.2500
C59 C 0.0000 0.6288(3) 0.2500
C60 C -0.0000 0.9815(3) 0.2500
H29 H 0.0871 0.9911 0.2945
C66 C 0.0118(3) 0.7797(4) 0.4388(2)
H31 H 0.0551 0.7781 0.4374
C67 C 0.0005(3) 0.7859(5) 0.4797(2)
H32 H 0.0358 0.7896 0.5059
C72 C 0.0000 0.5674(3) 0.2500
C73 C 0.0512(3) 0.5364(2) 0.2772(2)
H35 H 0.0872 0.5557 0.2958
C74 C 0.0512(3) 0.4792(2) 0.2778(2)
H36 H 0.0862 0.4598 0.2974
C75 C -0.0000 0.4491(3) 0.2500
C76 C -0.0000 0.3859(3) 0.2500
Cl2 Cl -0.0000 0.77507(11) 0.2500
C100 C 0.3407(3) 0.9882(2) 0.0718(2)
C101 C 0.2875(3) 0.9566(3) 0.0512(2)
H56 H 0.2510 0.9745 0.0319
C102 C 0.2852(3) 0.9007(2) 0.05753(18)
H57 H 0.2474 0.8803 0.0432
C103 C 0.3391(3) 0.8730(3) 0.08534(17)
C104 C 0.3940(3) 0.9044(3) 0.1044(2)
H58 H 0.4313 0.8864 0.1227
C105 C 0.3955(3) 0.9611(3) 0.0975(2)
H59 H 0.4338 0.9815 0.1103
C106 C 0.3364(3) 0.8122(3) 0.09281(19)
O16 O 0.2894(2) 0.78521(18) 0.07233(15)
O17 O 0.38527(19) 0.78891(16) 0.12117(13)
O30 O 0.51550(19) 0.77518(16) 0.19709(14)
O33 O 0.3818(2) 0.77681(16) 0.26379(13)
C128 C 0.0074(2) 0.8914(2) 0.21198(19)
C129 C 0.0158(3) 0.9194(2) 0.1723(2)
H72 H 0.0168 0.9586 0.1677
C130 C 0.0220(3) 0.8796(2) 0.14363(19)
H73 H 0.0274 0.8852 0.1145
C131 C 0.0189(3) 0.8261(2) 0.16486(19)
C132 C 0.0212(3) 0.7745(2) 0.14442(19)
C133 C 0.0113(2) 0.7228(2) 0.16229(19)
C134 C 0.0116(3) 0.6702(2) 0.1405(2)
H74 H 0.0160 0.6649 0.1111
C135 C 0.0046(3) 0.6292(3) 0.1688(2)
H75 H 0.0026 0.5902 0.1631
C136 C 0.0007(3) 0.6570(2) 0.21030(19)
N12 N 0.0094(2) 0.83448(19) 0.20667(15)
N13 N 0.0037(2) 0.71421(19) 0.20455(16)
O35 O 0.45116(19) 0.68588(15) 0.22612(15)
C139 C 0.0360(3) 0.7756(2) 0.0998(2)
C142 C 0.0622(3) 0.7869(3) 0.0164(2)
C143 C 0.1118(3) 0.7815(3) 0.0556(3)
H80 H 0.1551 0.7804 0.0542
C144 C 0.0987(3) 0.7774(3) 0.0973(3)
H81 H 0.1333 0.7759 0.1241
O39 O 0.3710(2) 0.71777(18) 0.03278(16)
O42 O 0.45083(19) 0.86121(16) 0.22546(14)
O43 O 0.31584(19) 0.82628(17) 0.18092(13)
C148 C 0.2798(3) 0.8385(3) 0.2040(2)
H84 H 0.2909 0.8249 0.2340
N14 N 0.2272(3) 0.8689(3) 0.1904(2)
C149 C 0.2055(4) 0.8903(4) 0.1456(3)
H85 H 0.2302 0.9238 0.1431
H86 H 0.1597 0.8997 0.1387
H87 H 0.2118 0.8620 0.1244
C150 C 0.1852(4) 0.8795(4) 0.2197(3)
H88 H 0.2034 0.8613 0.2489
H89 H 0.1422 0.8644 0.2056
H90 H 0.1821 0.9197 0.2242
O44 O 0.2308(3) 0.6875(3) 0.0253(2)
H92 H 0.2057 0.7204 0.0260
O45 O 0.4304(3) 0.6745(3) 0.12891(19)
H93 H 0.4528 0.7094 0.1346
H94 H 0.4309 0.6572 0.1570
Dy16 Dy 0.176920(13) 0.808780(11) 0.912650(9)
C145 C 0.0738(4) 0.7940(3) 0.9705(3)
O36 O 0.0281(3) 0.8116(4) 0.93950(19)
O37 O 0.1290(2) 0.78223(18) 0.96722(16)
H91 H 0.2436 0.6871 0.9980
C63_2 C 1.0000 0.0998(3) 0.2500
C64_2 C 1.0000 0.1607(3) 0.2500
Dy5 Dy 0.913366(12) 0.726921(11) 0.698839(8)
Dy8 Dy 0.913366(12) 0.273079(11) 0.198839(8)
O29 O 0.98450(19) 0.27518(16) 0.30291(14)
C137 C 0.9487(3) 0.0109(2) 0.2238(2)
C138 C 0.9477(3) 0.0695(2) 0.2234(2)
H77 H 0.9113 0.0886 0.2050
O34 O 0.95116(19) 0.18588(15) 0.22612(15)
C49_2 C 1.0000 0.9186(3) 0.2500
C50 C 0.9926(2) 0.8914(2) 0.28802(19)
C51 C 0.9842(3) 0.9194(2) 0.3277(2)
H25 H 0.9832 0.9586 0.3323
C52 C 0.9780(3) 0.8796(2) 0.35637(19)
H26 H 0.9726 0.8852 0.3855
C53 C 0.9811(3) 0.8261(2) 0.33514(19)
C54 C 0.9788(3) 0.7745(2) 0.35558(19)
C55 C 0.9887(2) 0.7228(2) 0.33771(19)
C56 C 0.9884(3) 0.6702(2) 0.3595(2)
H27 H 0.9840 0.6649 0.3889
C57 C 0.9954(3) 0.6292(3) 0.3312(2)
H28 H 0.9974 0.5902 0.3369
C58 C 0.9993(3) 0.6570(2) 0.28970(19)
C59_2 C 1.0000 0.6288(3) 0.2500
N5 N 0.9906(2) 0.83448(19) 0.29333(15)
N6 N 0.9963(2) 0.71421(19) 0.29545(16)
C60_2 C 1.0000 0.9815(3) 0.2500
C65 C 0.9640(3) 0.7756(2) 0.4002(2)
C68 C 0.9378(3) 0.7869(3) 0.4836(2)
C69 C 0.8882(3) 0.7815(3) 0.4444(3)
H33 H 0.8449 0.7804 0.4458
C70 C 0.9013(3) 0.7774(3) 0.4027(3)
H34 H 0.8667 0.7759 0.3759
C71 C 0.9262(4) 0.7940(3) 0.5295(3)
O10 O 0.9719(3) 0.8116(4) 0.56050(19)
O11 O 0.8710(2) 0.78223(18) 0.53278(16)
C72_2 C 1.0000 0.5674(3) 0.2500
C75_2 C 1.0000 0.4491(3) 0.2500
C76_2 C 1.0000 0.3859(3) 0.2500
Cl2_2 Cl 1.0000 0.77507(11) 0.2500
Dy15 Dy 0.823080(13) 0.808780(11) 0.587350(9)
H76 H 0.9129 0.9911 0.2055
C140 C 0.9882(3) 0.7797(4) 0.0612(2)
H78 H 0.9449 0.7781 0.0626
C141 C 0.9995(3) 0.7859(5) 0.0203(2)
C146 C 0.9488(3) 0.5364(2) 0.2228(2)
H82 H 0.9128 0.5557 0.2042
C147 C 0.9488(3) 0.4792(2) 0.2222(2)
H83 H 0.9138 0.4598 0.2026
O40 O 0.95083(19) 0.36121(16) 0.22546(14)
O30_2 O 0.01550(19) 0.27518(16) 0.19709(14)
C1_2 C 0.6369(3) 0.1451(2) 0.51125(19)
C2_2 C 0.6190(3) 0.0936(3) 0.5281(2)
H1_2 H 0.6060 0.0891 0.5548
C3_2 C 0.6238(3) 0.0533(3) 0.4999(2)
H2_2 H 0.6149 0.0148 0.5024
C4_2 C 0.6451(3) 0.0792(3) 0.4645(2)
C5_2 C 0.6618(3) 0.0502(2) 0.4296(2)
C6_2 C 0.6825(3) 0.0768(2) 0.39592(19)
C7_2 C 0.7028(3) 0.0474(3) 0.3614(2)
H3_2 H 0.7083 0.0083 0.3594
C8_2 C 0.7123(3) 0.0864(2) 0.3328(2)
H4_2 H 0.7262 0.0797 0.3067
C9_2 C 0.6978(3) 0.1400(2) 0.34852(18)
C10_2 C 0.6923(2) 0.1896(2) 0.32433(18)
C11_2 C 0.6726(2) 0.2407(2) 0.33963(19)
C12_2 C 0.6599(3) 0.2906(3) 0.3149(2)
H5_2 H 0.6574 0.2948 0.2840
C13_2 C 0.6517(3) 0.3314(3) 0.3428(2)
H6_2 H 0.6411 0.3692 0.3352
C14_2 C 0.6622(3) 0.3060(2) 0.3866(2)
C15_2 C 0.6700(3) 0.3350(3) 0.4270(2)
C16_2 C 0.6767(3) 0.3081(2) 0.46862(19)
C17_2 C 0.6855(3) 0.3358(3) 0.5113(2)
H7_2 H 0.6954 0.3741 0.5172
C18_2 C 0.6773(3) 0.2977(2) 0.5413(2)
H8_2 H 0.6795 0.3040 0.5720
C19_2 C 0.6643(3) 0.2450(2) 0.51701(19)
C20_2 C 0.6445(3) 0.1958(2) 0.53383(19)
N1_2 N 0.6507(2) 0.13526(19) 0.47115(16)
N2_2 N 0.6807(2) 0.13260(19) 0.38792(15)
N3_2 N 0.6703(2) 0.24970(19) 0.38283(15)
N4_2 N 0.6677(2) 0.25147(18) 0.47342(16)
C28_2 C 0.7101(3) 0.1893(2) 0.28147(19)
C29_2 C 0.6663(3) 0.1987(3) 0.2398(2)
H13_2 H 0.6223 0.2044 0.2382
C30_2 C 0.6846(3) 0.2001(3) 0.2003(2)
H14_2 H 0.6537 0.2060 0.1721
C31_2 C 0.7484(3) 0.1926(2) 0.20268(18)
C32_2 C 0.7926(3) 0.1792(2) 0.2429(2)
H15_2 H 0.8357 0.1706 0.2436
C33_2 C 0.7737(3) 0.1783(2) 0.2823(2)
H16_2 H 0.8045 0.1701 0.3102
C34_2 C 0.7716(3) 0.2000(2) 0.16154(18)
O3_2 O 0.73246(19) 0.19788(17) 0.12289(13)
O4_2 O 0.83136(17) 0.20771(16) 0.16624(12)
C35_2 C 0.6705(3) 0.3972(3) 0.4257(2)
C36_2 C 0.7145(3) 0.4247(3) 0.4094(3)
H17_2 H 0.7453 0.4035 0.3998
C37_2 C 0.7161(4) 0.4819(3) 0.4065(3)
H18_2 H 0.7464 0.4998 0.3941
C38_2 C 0.6714(4) 0.5139(3) 0.4223(3)
C39_2 C 0.6259(4) 0.4862(3) 0.4379(3)
H19_2 H 0.5947 0.5066 0.4477
C40_2 C 0.6260(3) 0.4281(3) 0.4391(2)
H20_2 H 0.5943 0.4094 0.4495
C41_2 C 0.6744(5) 0.5764(3) 0.4190(3)
O5_2 O 0.6959(3) 0.59888(19) 0.3901(2)
O6_2 O 0.6530(4) 0.6048(2) 0.4467(2)
C42_2 C 0.6282(3) 0.1995(2) 0.57723(19)
C43_2 C 0.5637(3) 0.1997(3) 0.5769(2)
H21_2 H 0.5311 0.1963 0.5491
C44_2 C 0.5463(3) 0.2050(3) 0.6172(2)
H22_2 H 0.5023 0.2044 0.6168
C45_2 C 0.5935(3) 0.2111(2) 0.65694(19)
C46_2 C 0.6581(3) 0.2079(3) 0.65773(19)
H23_2 H 0.6906 0.2092 0.6856
C47_2 C 0.6748(3) 0.2028(2) 0.6186(2)
H24_2 H 0.7190 0.2016 0.6195
C48_2 C 0.5749(3) 0.2204(2) 0.6991(2)
O7_2 O 0.51550(19) 0.22482(16) 0.69709(14)
O8_2 O 0.6182(2) 0.22319(16) 0.73621(13)
Cl1_2 Cl 0.66686(7) 0.19224(6) 0.42849(5)
Dy13_2 Dy 0.823080(13) 0.191220(11) 0.087350(9)
Dy14_2 Dy 0.676920(13) 0.691220(11) 0.412650(9)
C117_2 C 0.8286(4) 0.0139(3) 0.0777(3)
H66_2 H 0.9053 0.0066 0.0523
C120_2 C 0.8256(5) 0.0764(3) 0.0810(3)
O22_2 O 0.8041(3) 0.09888(19) 0.1099(2)
O25_2 O 0.8470(4) 0.1048(2) 0.0533(2)
Dy1_2 Dy 0.586634(12) 0.773079(11) 0.301161(8)
C21_2 C 0.6593(3) 0.9882(2) 0.4282(2)
C22_2 C 0.7125(3) 0.9566(3) 0.4488(2)
H9_2 H 0.7490 0.9745 0.4681
C23_2 C 0.7148(3) 0.9007(2) 0.44247(18)
H10_2 H 0.7526 0.8803 0.4568
C24_2 C 0.6609(3) 0.8730(3) 0.41466(17)
C25_2 C 0.6060(3) 0.9044(3) 0.3956(2)
H11_2 H 0.5687 0.8864 0.3773
C26_2 C 0.6045(3) 0.9611(3) 0.4025(2)
H12_2 H 0.5662 0.9815 0.3897
C27_2 C 0.6636(3) 0.8122(3) 0.40719(19)
O1_2 O 0.7106(2) 0.78521(18) 0.42767(15)
O2_2 O 0.61473(19) 0.78891(16) 0.37883(13)
C49_3 C 0.5000 0.4186(3) 0.2500
C50_2 C 0.4926(2) 0.3914(2) 0.28802(19)
C51_2 C 0.4842(3) 0.4194(2) 0.3277(2)
H25_2 H 0.4832 0.4586 0.3323
C52_2 C 0.4780(3) 0.3796(2) 0.35637(19)
H26_2 H 0.4726 0.3852 0.3855
C53_2 C 0.4811(3) 0.3261(2) 0.33514(19)
C54_2 C 0.4788(3) 0.2745(2) 0.35558(19)
C55_2 C 0.4887(2) 0.2228(2) 0.33771(19)
C56_2 C 0.4884(3) 0.1702(2) 0.3595(2)
H27_2 H 0.4840 0.1649 0.3889
C57_2 C 0.4954(3) 0.1292(3) 0.3312(2)
H28_2 H 0.4974 0.0902 0.3369
C58_2 C 0.4993(3) 0.1570(2) 0.28970(19)
C59_3 C 0.5000 0.1288(3) 0.2500
N5_2 N 0.4906(2) 0.33448(19) 0.29333(15)
N6_2 N 0.4963(2) 0.21421(19) 0.29545(16)
C60_3 C 0.5000 0.4815(3) 0.2500
C61_2 C 0.5513(3) 0.5109(2) 0.2762(2)
H29_2 H 0.5871 0.4911 0.2945
C62_2 C 0.5523(3) 0.5695(2) 0.2766(2)
H30_2 H 0.5887 0.5886 0.2950
C63_3 C 0.5000 0.5998(3) 0.2500
C64_3 C 0.5000 0.6607(3) 0.2500
O9_2 O 0.54884(19) 0.68588(15) 0.27388(15)
C65_2 C 0.4640(3) 0.2756(2) 0.4002(2)
C66_2 C 0.5118(3) 0.2797(4) 0.4388(2)
H31_2 H 0.5551 0.2781 0.4374
C67_2 C 0.5005(3) 0.2859(5) 0.4797(2)
H32_2 H 0.5358 0.2896 0.5059
C68_2 C 0.4378(3) 0.2869(3) 0.4836(2)
C69_2 C 0.3882(3) 0.2815(3) 0.4444(3)
H33_2 H 0.3449 0.2804 0.4458
C70_2 C 0.4013(3) 0.2774(3) 0.4027(3)
H34_2 H 0.3667 0.2759 0.3759
C71_2 C 0.4262(4) 0.2940(3) 0.5295(3)
O10_2 O 0.4719(3) 0.3116(4) 0.56050(19)
O11_2 O 0.3710(2) 0.28223(18) 0.53278(16)
C72_3 C 0.5000 0.0674(3) 0.2500
C73_2 C 0.5512(3) 0.0364(2) 0.2772(2)
H35_2 H 0.5872 0.0557 0.2958
Cl2_3 Cl 0.5000 0.27507(11) 0.2500
O13_2 O 0.68416(19) 0.82628(17) 0.31908(13)
C77_2 C 0.7202(3) 0.8385(3) 0.2960(2)
H37_2 H 0.7091 0.8249 0.2660
N7_2 N 0.7728(3) 0.8689(3) 0.3096(2)
C78_2 C 0.7945(4) 0.8903(4) 0.3544(3)
H38_2 H 0.7698 0.9238 0.3569
H39_2 H 0.8403 0.8997 0.3613
H40_2 H 0.7882 0.8620 0.3756
C79_2 C 0.8148(4) 0.8795(4) 0.2803(3)
H41_2 H 0.7966 0.8613 0.2511
H42_2 H 0.8578 0.8644 0.2944
H43_2 H 0.8179 0.9197 0.2758
O14_2 O 0.7692(3) 0.6875(3) 0.4747(2)
H44_2 H 0.7564 0.6871 0.5020
H45_2 H 0.7943 0.7204 0.4740
O15_2 O 0.5696(3) 0.6745(3) 0.37109(19)
H46_2 H 0.5472 0.7094 0.3654
H47_2 H 0.5691 0.6572 0.3430
Dy15_2 Dy 0.323080(13) 0.308780(11) 0.587350(9)
C82_2 C 0.8762(3) 0.5533(3) 0.0001(2)
C83_2 C 0.8549(3) 0.5792(3) 0.0355(2)
C84_2 C 0.8382(3) 0.5502(2) 0.0704(2)
C85_2 C 0.8175(3) 0.5768(2) 0.10408(19)
C86_2 C 0.7972(3) 0.5474(3) 0.1386(2)
H50_2 H 0.7917 0.5083 0.1406
C87_2 C 0.7877(3) 0.5864(2) 0.1672(2)
H51_2 H 0.7738 0.5797 0.1933
C88_2 C 0.8022(3) 0.6400(2) 0.15148(18)
C89_2 C 0.8077(2) 0.6896(2) 0.17567(18)
C90_2 C 0.8274(2) 0.7407(2) 0.16037(19)
C91_2 C 0.8401(3) 0.7906(3) 0.1851(2)
H52_2 H 0.8426 0.7948 0.2160
C92_2 C 0.8483(3) 0.8314(3) 0.1572(2)
H53_2 H 0.8589 0.8692 0.1648
C93_2 C 0.8378(3) 0.8060(2) 0.1134(2)
C94_2 C 0.8300(3) 0.8350(3) 0.0730(2)
C95_2 C 0.8233(3) 0.8081(2) 0.03138(19)
N8_2 N 0.8493(2) 0.63526(19) 0.02885(16)
N9_2 N 0.8193(2) 0.63260(19) 0.11208(15)
N10_2 N 0.8297(2) 0.74970(19) 0.11717(15)
N11_2 N 0.8323(2) 0.75147(18) 0.02658(16)
C100_2 C 0.8407(3) 0.4882(2) 0.0718(2)
C101_2 C 0.7875(3) 0.4566(3) 0.0512(2)
H56_2 H 0.7510 0.4745 0.0319
C102_2 C 0.7852(3) 0.4007(2) 0.05753(18)
H57_2 H 0.7474 0.3803 0.0432
C103_2 C 0.8391(3) 0.3730(3) 0.08534(17)
C104_2 C 0.8940(3) 0.4044(3) 0.1044(2)
H58_2 H 0.9313 0.3864 0.1227
C105_2 C 0.8955(3) 0.4611(3) 0.0975(2)
H59_2 H 0.9338 0.4815 0.1103
C106_2 C 0.8364(3) 0.3122(3) 0.09281(19)
O16_2 O 0.7894(2) 0.28521(18) 0.07233(15)
O17_2 O 0.88527(19) 0.28891(16) 0.12117(13)
C107_2 C 0.7899(3) 0.6893(2) 0.21853(19)
C108_2 C 0.8337(3) 0.6987(3) 0.2602(2)
H60_2 H 0.8777 0.7044 0.2618
C109_2 C 0.8154(3) 0.7001(3) 0.2997(2)
H61_2 H 0.8463 0.7060 0.3279
C110_2 C 0.7516(3) 0.6926(2) 0.29732(18)
C111_2 C 0.7074(3) 0.6792(2) 0.2571(2)
H62_2 H 0.6643 0.6706 0.2564
C112_2 C 0.7263(3) 0.6783(2) 0.2177(2)
H63_2 H 0.6955 0.6701 0.1898
C113_2 C 0.7284(3) 0.7000(2) 0.33846(18)
O18_2 O 0.76754(19) 0.69788(17) 0.37711(13)
O20_2 O 0.66864(17) 0.70771(16) 0.33376(12)
C114_2 C 0.8295(3) 0.8972(3) 0.0743(2)
C115_2 C 0.7855(3) 0.9247(3) 0.0906(3)
H64_2 H 0.7547 0.9035 0.1002
C116_2 C 0.7839(4) 0.9819(3) 0.0935(3)
H65_2 H 0.7536 0.9998 0.1059
C118_2 C 0.8741(4) 0.9862(3) 0.0621(3)
C119_2 C 0.8740(3) 0.9281(3) 0.0609(2)
H67_2 H 0.9057 0.9094 0.0505
O29_2 O 0.48450(19) 0.77518(16) 0.30291(14)
O32_2 O 0.6182(2) 0.77681(16) 0.23621(13)
O33_2 O 0.8818(2) 0.27681(16) 0.26379(13)
Cl3_2 Cl 0.83314(7) 0.69224(6) 0.07151(5)
C128_2 C 0.5074(2) 0.3914(2) 0.21198(19)
C129_2 C 0.5158(3) 0.4194(2) 0.1723(2)
H72_2 H 0.5168 0.4586 0.1677
C130_2 C 0.5220(3) 0.3796(2) 0.14363(19)
H73_2 H 0.5274 0.3852 0.1145
C131_2 C 0.5189(3) 0.3261(2) 0.16486(19)
C132_2 C 0.5212(3) 0.2745(2) 0.14442(19)
C133_2 C 0.5113(2) 0.2228(2) 0.16229(19)
C134_2 C 0.5116(3) 0.1702(2) 0.1405(2)
H74_2 H 0.5160 0.1649 0.1111
C135_2 C 0.5046(3) 0.1292(3) 0.1688(2)
H75_2 H 0.5026 0.0902 0.1631
C136_2 C 0.5007(3) 0.1570(2) 0.21030(19)
N12_2 N 0.5094(2) 0.33448(19) 0.20667(15)
N13_2 N 0.5037(2) 0.21421(19) 0.20455(16)
C137_2 C 0.4487(3) 0.5109(2) 0.2238(2)
H76_2 H 0.4129 0.4911 0.2055
C138_2 C 0.4477(3) 0.5695(2) 0.2234(2)
H77_2 H 0.4113 0.5886 0.2050
C139_2 C 0.5360(3) 0.2756(2) 0.0998(2)
C140_2 C 0.4882(3) 0.2797(4) 0.0612(2)
H78_2 H 0.4449 0.2781 0.0626
C141_2 C 0.4995(3) 0.2859(5) 0.0203(2)
C142_2 C 0.5622(3) 0.2869(3) 0.0164(2)
C143_2 C 0.6118(3) 0.2815(3) 0.0556(3)
H80_2 H 0.6551 0.2804 0.0542
C144_2 C 0.5987(3) 0.2774(3) 0.0973(3)
H81_2 H 0.6333 0.2759 0.1241
O38_2 O 0.6290(2) 0.71777(18) 0.46722(16)
O39_2 O 0.8710(2) 0.21777(18) 0.03278(16)
C146_2 C 0.4488(3) 0.0364(2) 0.2228(2)
H82_2 H 0.4128 0.0557 0.2042
O41_2 O 0.54917(19) 0.86121(16) 0.27454(14)
O43_2 O 0.81584(19) 0.32628(17) 0.18092(13)
C148_2 C 0.7798(3) 0.3385(3) 0.2040(2)
H84_2 H 0.7909 0.3249 0.2340
N14_2 N 0.7272(3) 0.3689(3) 0.1904(2)
C149_2 C 0.7055(4) 0.3903(4) 0.1456(3)
H85_2 H 0.7302 0.4238 0.1431
H86_2 H 0.6597 0.3997 0.1387
H87_2 H 0.7118 0.3620 0.1244
C150_2 C 0.6852(4) 0.3795(4) 0.2197(3)
H88_2 H 0.7034 0.3613 0.2489
H89_2 H 0.6422 0.3644 0.2056
H90_2 H 0.6821 0.4197 0.2242
O44_2 O 0.7308(3) 0.1875(3) 0.0253(2)
H92_2 H 0.7057 0.2204 0.0260
O45_2 O 0.9304(3) 0.1745(3) 0.12891(19)
H93_2 H 0.9528 0.2094 0.1346
H94_2 H 0.9309 0.1572 0.1570
Dy16_2 Dy 0.676920(13) 0.308780(11) 0.912650(9)
C80_2 C 0.8631(3) 0.6451(2) 0.98875(19)
C81_2 C 0.8810(3) 0.5936(3) 0.9719(2)
H48_2 H 0.8940 0.5891 0.9452
H49_2 H 0.8851 0.5148 0.9976
C96_2 C 0.8145(3) 0.8358(3) 0.9887(2)
H54_2 H 0.8046 0.8741 0.9828
C97_2 C 0.8227(3) 0.7977(2) 0.9587(2)
H55_2 H 0.8205 0.8040 0.9280
C98_2 C 0.8357(3) 0.7450(2) 0.98299(19)
C99_2 C 0.8555(3) 0.6958(2) 0.96617(19)
C121_2 C 0.8718(3) 0.6995(2) 0.92277(19)
C122_2 C 0.9363(3) 0.6997(3) 0.9231(2)
H68_2 H 0.9689 0.6963 0.9509
C123_2 C 0.9537(3) 0.7050(3) 0.8828(2)
H69_2 H 0.9977 0.7044 0.8832
C124_2 C 0.9065(3) 0.7111(2) 0.84306(19)
C125_2 C 0.8419(3) 0.7079(3) 0.84227(19)
H70_2 H 0.8094 0.7092 0.8144
C126_2 C 0.8252(3) 0.7028(2) 0.8814(2)
H71_2 H 0.7810 0.7016 0.8805
C127_2 C 0.9251(3) 0.7204(2) 0.8009(2)
O28_2 O 0.98450(19) 0.72482(16) 0.80291(14)
O31_2 O 0.8818(2) 0.72319(16) 0.76379(13)
H79 H 0.4642 0.2896 0.9941
C145_2 C 0.5738(4) 0.2940(3) 0.9705(3)
O36_2 O 0.5281(3) 0.3116(4) 0.93950(19)
O37_2 O 0.6290(2) 0.28223(18) 0.96722(16)
H91_2 H 0.7436 0.1871 0.9980
C74_2 C 0.5512(3) 0.9792(2) 0.2778(2)
H36_2 H 0.5862 0.9598 0.2974
C75_3 C 0.5000 0.9491(3) 0.2500
C76_3 C 0.5000 0.8859(3) 0.2500
C147_2 C 0.4488(3) 0.9792(2) 0.2222(2)
H83_2 H 0.4138 0.9598 0.2026
C49_4 C 0.0000 0.0814(3) 0.7500
C50_3 C 0.0074(2) 0.1086(2) 0.71198(19)
C51_3 C 0.0158(3) 0.0806(2) 0.6723(2)
H25_3 H 0.0168 0.0414 0.6677
C52_3 C 0.0220(3) 0.1204(2) 0.64363(19)
H26_3 H 0.0274 0.1148 0.6145
C53_3 C 0.0189(3) 0.1739(2) 0.66486(19)
C54_3 C 0.0212(3) 0.2255(2) 0.64442(19)
C55_3 C 0.0113(2) 0.2772(2) 0.66229(19)
C56_3 C 0.0116(3) 0.3298(2) 0.6405(2)
H27_3 H 0.0160 0.3351 0.6111
C57_3 C 0.0046(3) 0.3708(3) 0.6688(2)
H28_3 H 0.0026 0.4098 0.6631
C58_3 C 0.0007(3) 0.3430(2) 0.71030(19)
C59_4 C 0.0000 0.3712(3) 0.7500
N5_3 N 0.0094(2) 0.16552(19) 0.70667(15)
N6_3 N 0.0037(2) 0.28579(19) 0.70455(16)
C60_4 C 0.0000 0.0185(3) 0.7500
C65_3 C 0.0360(3) 0.2244(2) 0.5998(2)
C68_3 C 0.0622(3) 0.2131(3) 0.5164(2)
C69_3 C 0.1118(3) 0.2185(3) 0.5556(3)
H33_3 H 0.1551 0.2196 0.5542
C70_3 C 0.0987(3) 0.2226(3) 0.5973(3)
H34_3 H 0.1333 0.2241 0.6241
C71_3 C 0.0738(4) 0.2060(3) 0.4705(3)
O10_3 O 0.0281(3) 0.1884(4) 0.43950(19)
C72_4 C -0.0000 0.4326(3) 0.7500
C75_4 C -0.0000 0.5509(3) 0.7500
C76_4 C -0.0000 0.6141(3) 0.7500
Cl2_4 Cl 0.0000 0.22493(11) 0.7500
H76_3 H 0.0871 0.0089 0.7945
C140_3 C 0.0118(3) 0.2203(4) 0.9388(2)
H78_3 H 0.0551 0.2219 0.9374
C141_3 C 0.0005(3) 0.2141(5) 0.9797(2)
C146_3 C 0.0512(3) 0.4636(2) 0.7772(2)
H82_3 H 0.0872 0.4443 0.7958
C147_3 C 0.0512(3) 0.5208(2) 0.7778(2)
H83_3 H 0.0862 0.5402 0.7974
O40_2 O 0.04917(19) 0.63879(16) 0.77454(14)
C63_4 C -0.0000 0.9002(3) 0.7500
C64_4 C -0.0000 0.8393(3) 0.7500
C137_3 C 0.0513(3) 0.9891(2) 0.7762(2)
C138_3 C 0.0523(3) 0.9305(2) 0.7766(2)
H77_3 H 0.0887 0.9114 0.7950
O34_2 O 0.04884(19) 0.81412(15) 0.77388(15)
C145_3 C 0.9262(4) 0.2060(3) 0.0295(3)
O36_3 O 0.9719(3) 0.1884(4) 0.06050(19)
H91_3 H 0.7564 0.3129 0.0020
C49_5 C 1.0000 0.0814(3) 0.7500
C59_5 C 1.0000 0.3712(3) 0.7500
C60_5 C 1.0000 0.0185(3) 0.7500
H29_3 H 0.9129 0.0089 0.7055
C66_3 C 0.9882(3) 0.2203(4) 0.5612(2)
H31_3 H 0.9449 0.2219 0.5626
C67_3 C 0.9995(3) 0.2141(5) 0.5203(2)
H32_3 H 0.9642 0.2104 0.4941
C72_5 C 1.0000 0.4326(3) 0.7500
C73_3 C 0.9488(3) 0.4636(2) 0.7228(2)
H35_3 H 0.9128 0.4443 0.7042
C74_3 C 0.9488(3) 0.5208(2) 0.7222(2)
H36_3 H 0.9138 0.5402 0.7026
C75_5 C 1.0000 0.5509(3) 0.7500
C76_5 C 1.0000 0.6141(3) 0.7500
O12 O 0.95083(19) 0.63879(16) 0.72546(14)
Cl2_5 Cl 1.0000 0.22493(11) 0.7500
C100_3 C 0.6593(3) 0.0118(2) 0.9282(2)
C101_3 C 0.7125(3) 0.0434(3) 0.9488(2)
H56_3 H 0.7490 0.0255 0.9681
C102_3 C 0.7148(3) 0.0993(2) 0.94247(18)
H57_3 H 0.7526 0.1197 0.9568
C103_3 C 0.6609(3) 0.1270(3) 0.91466(17)
C104_3 C 0.6060(3) 0.0956(3) 0.8956(2)
H58_3 H 0.5687 0.1136 0.8773
C105_3 C 0.6045(3) 0.0389(3) 0.9025(2)
H59_3 H 0.5662 0.0185 0.8897
C106_3 C 0.6636(3) 0.1878(3) 0.90719(19)
O16_3 O 0.7106(2) 0.21479(18) 0.92767(15)
O17_3 O 0.61473(19) 0.21109(16) 0.87883(13)
O19 O 0.76754(19) 0.30212(17) 0.87711(13)
O21 O 0.66864(17) 0.29229(16) 0.83376(12)
O24 O 0.6959(3) 0.40112(19) 0.8901(2)
O27 O 0.6530(4) 0.3952(2) 0.9467(2)
C128_3 C 0.9926(2) 0.1086(2) 0.78802(19)
C129_3 C 0.9842(3) 0.0806(2) 0.8277(2)
H72_3 H 0.9832 0.0414 0.8323
C130_3 C 0.9780(3) 0.1204(2) 0.85637(19)
H73_3 H 0.9726 0.1148 0.8855
C131_3 C 0.9811(3) 0.1739(2) 0.83514(19)
C132_3 C 0.9788(3) 0.2255(2) 0.85558(19)
C133_3 C 0.9887(2) 0.2772(2) 0.83771(19)
C134_3 C 0.9884(3) 0.3298(2) 0.8595(2)
H74_3 H 0.9840 0.3351 0.8889
C135_3 C 0.9954(3) 0.3708(3) 0.8312(2)
H75_3 H 0.9974 0.4098 0.8369
C136_3 C 0.9993(3) 0.3430(2) 0.78970(19)
N12_3 N 0.9906(2) 0.16552(19) 0.79333(15)
N13_3 N 0.9963(2) 0.28579(19) 0.79545(16)
O35_2 O 0.54884(19) 0.31412(15) 0.77388(15)
C139_3 C 0.9640(3) 0.2244(2) 0.9002(2)
C142_3 C 0.9378(3) 0.2131(3) 0.9836(2)
C143_3 C 0.8882(3) 0.2185(3) 0.9444(3)
H80_3 H 0.8449 0.2196 0.9458
C144_3 C 0.9013(3) 0.2226(3) 0.9027(3)
H81_3 H 0.8667 0.2241 0.8759
O42_2 O 0.54917(19) 0.13879(16) 0.77454(14)
O43_3 O 0.68416(19) 0.17372(17) 0.81908(13)
C148_3 C 0.7202(3) 0.1615(3) 0.7960(2)
H84_3 H 0.7091 0.1751 0.7660
N14_3 N 0.7728(3) 0.1311(3) 0.8096(2)
C149_3 C 0.7945(4) 0.1097(4) 0.8544(3)
H85_3 H 0.7698 0.0762 0.8569
H86_3 H 0.8403 0.1003 0.8613
H87_3 H 0.7882 0.1380 0.8756
C150_3 C 0.8148(4) 0.1205(4) 0.7803(3)
H88_3 H 0.7966 0.1387 0.7511
H89_3 H 0.8578 0.1356 0.7944
H90_3 H 0.8179 0.0803 0.7758
O44_3 O 0.7692(3) 0.3125(3) 0.9747(2)
H92_3 H 0.7943 0.2796 0.9740
O45_3 O 0.5696(3) 0.3255(3) 0.87109(19)
H93_3 H 0.5472 0.2906 0.8654
H94_3 H 0.5691 0.3428 0.8430
C80_3 C 0.6369(3) 0.8549(2) 0.01125(19)
C81_3 C 0.6190(3) 0.9064(3) 0.0281(2)
H48_3 H 0.6060 0.9109 0.0548
H49_3 H 0.6149 0.9852 0.0024
C96_3 C 0.6855(3) 0.6642(3) 0.0113(2)
H54_3 H 0.6954 0.6259 0.0172
C97_3 C 0.6773(3) 0.7023(2) 0.0413(2)
H55_3 H 0.6795 0.6960 0.0720
C98_3 C 0.6643(3) 0.7550(2) 0.01701(19)
C99_3 C 0.6445(3) 0.8042(2) 0.03383(19)
C121_3 C 0.6282(3) 0.8005(2) 0.07723(19)
C122_3 C 0.5637(3) 0.8003(3) 0.0769(2)
H68_3 H 0.5311 0.8037 0.0491
C123_3 C 0.5463(3) 0.7950(3) 0.1172(2)
H69_3 H 0.5023 0.7956 0.1168
C124_3 C 0.5935(3) 0.7889(2) 0.15694(19)
C125_3 C 0.6581(3) 0.7921(3) 0.15773(19)
H70_3 H 0.6906 0.7908 0.1856
C126_3 C 0.6748(3) 0.7972(2) 0.1186(2)
H71_3 H 0.7190 0.7984 0.1195
C127_3 C 0.5749(3) 0.7796(2) 0.1991(2)
C1_3 C 0.8631(3) 0.3549(2) 0.48875(19)
C2_3 C 0.8810(3) 0.4064(3) 0.4719(2)
H1_3 H 0.8940 0.4109 0.4452
C3_3 C 0.8762(3) 0.4467(3) 0.5001(2)
H2_3 H 0.8851 0.4852 0.4976
C4_3 C 0.8549(3) 0.4208(3) 0.5355(2)
C5_3 C 0.8382(3) 0.4498(2) 0.5704(2)
C6_3 C 0.8175(3) 0.4232(2) 0.60408(19)
C7_3 C 0.7972(3) 0.4526(3) 0.6386(2)
H3_3 H 0.7917 0.4917 0.6406
C8_3 C 0.7877(3) 0.4136(2) 0.6672(2)
H4_3 H 0.7738 0.4203 0.6933
C9_3 C 0.8022(3) 0.3600(2) 0.65148(18)
C10_3 C 0.8077(2) 0.3104(2) 0.67567(18)
C11_3 C 0.8274(2) 0.2593(2) 0.66037(19)
C12_3 C 0.8401(3) 0.2094(3) 0.6851(2)
H5_3 H 0.8426 0.2052 0.7160
C13_3 C 0.8483(3) 0.1686(3) 0.6572(2)
H6_3 H 0.8589 0.1308 0.6648
C14_3 C 0.8378(3) 0.1940(2) 0.6134(2)
C15_3 C 0.8300(3) 0.1650(3) 0.5730(2)
C16_3 C 0.8233(3) 0.1919(2) 0.53138(19)
C17_3 C 0.8145(3) 0.1642(3) 0.4887(2)
H7_3 H 0.8046 0.1259 0.4828
C18_3 C 0.8227(3) 0.2023(2) 0.4587(2)
H8_3 H 0.8205 0.1960 0.4280
C19_3 C 0.8357(3) 0.2550(2) 0.48299(19)
C20_3 C 0.8555(3) 0.3042(2) 0.46617(19)
N1_3 N 0.8493(2) 0.36474(19) 0.52885(16)
N2_3 N 0.8193(2) 0.36740(19) 0.61208(15)
N3_3 N 0.8297(2) 0.25030(19) 0.61717(15)
N4_3 N 0.8323(2) 0.24853(18) 0.52658(16)
C21_3 C 0.8407(3) 0.5118(2) 0.5718(2)
C22_3 C 0.7875(3) 0.5434(3) 0.5512(2)
H9_3 H 0.7510 0.5255 0.5319
C23_3 C 0.7852(3) 0.5993(2) 0.55753(18)
H10_3 H 0.7474 0.6197 0.5432
C24_3 C 0.8391(3) 0.6270(3) 0.58534(17)
C25_3 C 0.8940(3) 0.5956(3) 0.6044(2)
H11_3 H 0.9313 0.6136 0.6227
C26_3 C 0.8955(3) 0.5389(3) 0.5975(2)
H12_3 H 0.9338 0.5185 0.6103
C27_3 C 0.8364(3) 0.6878(3) 0.59281(19)
O1_3 O 0.7894(2) 0.71479(18) 0.57233(15)
O2_3 O 0.88527(19) 0.71109(16) 0.62117(13)
C28_3 C 0.7899(3) 0.3107(2) 0.71853(19)
C29_3 C 0.8337(3) 0.3013(3) 0.7602(2)
H13_3 H 0.8777 0.2956 0.7618
C30_3 C 0.8154(3) 0.2999(3) 0.7997(2)
H14_3 H 0.8463 0.2940 0.8279
C31_3 C 0.7516(3) 0.3074(2) 0.79732(18)
C32_3 C 0.7074(3) 0.3208(2) 0.7571(2)
H15_3 H 0.6643 0.3294 0.7564
C33_3 C 0.7263(3) 0.3217(2) 0.7177(2)
H16_3 H 0.6955 0.3299 0.6898
C34_3 C 0.7284(3) 0.3000(2) 0.83846(18)
C35_3 C 0.8295(3) 0.1028(3) 0.5743(2)
C36_3 C 0.7855(3) 0.0753(3) 0.5906(3)
H17_3 H 0.7547 0.0965 0.6002
C37_3 C 0.7839(4) 0.0181(3) 0.5935(3)
H18_3 H 0.7536 0.0002 0.6059
C39_3 C 0.8741(4) 0.0138(3) 0.5621(3)
C40_3 C 0.8740(3) 0.0719(3) 0.5609(2)
H20_3 H 0.9057 0.0906 0.5505
C42_3 C 0.8718(3) 0.3005(2) 0.42277(19)
C43_3 C 0.9363(3) 0.3003(3) 0.4231(2)
H21_3 H 0.9689 0.3037 0.4509
C44_3 C 0.9537(3) 0.2950(3) 0.3828(2)
H22_3 H 0.9977 0.2956 0.3832
C45_3 C 0.9065(3) 0.2889(2) 0.34306(19)
C46_3 C 0.8419(3) 0.2921(3) 0.34227(19)
H23_3 H 0.8094 0.2908 0.3144
C47_3 C 0.8252(3) 0.2972(2) 0.3814(2)
H24_3 H 0.7810 0.2984 0.3805
C48_3 C 0.9251(3) 0.2796(2) 0.3009(2)
Cl1_3 Cl 0.83314(7) 0.30776(6) 0.57151(5)
C61_3 C 0.9487(3) 0.9891(2) 0.7238(2)
C62_3 C 0.9477(3) 0.9305(2) 0.7234(2)
H30_3 H 0.9113 0.9114 0.7050
C63_5 C 1.0000 0.9002(3) 0.7500
C64_5 C 1.0000 0.8393(3) 0.7500
O9_3 O 0.95116(19) 0.81412(15) 0.72612(15)
O13_3 O 0.81584(19) 0.67372(17) 0.68092(13)
C77_3 C 0.7798(3) 0.6615(3) 0.7040(2)
H37_3 H 0.7909 0.6751 0.7340
N7_3 N 0.7272(3) 0.6311(3) 0.6904(2)
C78_3 C 0.7055(4) 0.6097(4) 0.6456(3)
H38_3 H 0.7302 0.5762 0.6431
H39_3 H 0.6597 0.6003 0.6387
H40_3 H 0.7118 0.6380 0.6244
C79_3 C 0.6852(4) 0.6205(4) 0.7197(3)
H41_3 H 0.7034 0.6387 0.7489
H42_3 H 0.6422 0.6356 0.7056
H43_3 H 0.6821 0.5803 0.7242
O14_3 O 0.7308(3) 0.8125(3) 0.5253(2)
H44_3 H 0.7436 0.8129 0.4980
H45_3 H 0.7057 0.7796 0.5260
O15_3 O 0.9304(3) 0.8255(3) 0.62891(19)
H46_3 H 0.9528 0.7906 0.6346
H47_3 H 0.9309 0.8428 0.6570
C82_3 C 0.6238(3) 0.9467(3) 0.9999(2)
C83_3 C 0.6451(3) 0.9208(3) 0.9645(2)
C84_3 C 0.6618(3) 0.9498(2) 0.9296(2)
C85_3 C 0.6825(3) 0.9232(2) 0.89592(19)
C86_3 C 0.7028(3) 0.9526(3) 0.8614(2)
H50_3 H 0.7083 0.9917 0.8594
C87_3 C 0.7123(3) 0.9136(2) 0.8328(2)
H51_3 H 0.7262 0.9203 0.8067
C88_3 C 0.6978(3) 0.8600(2) 0.84852(18)
C89_3 C 0.6923(2) 0.8104(2) 0.82433(18)
C90_3 C 0.6726(2) 0.7593(2) 0.83963(19)
C91_3 C 0.6599(3) 0.7094(3) 0.8149(2)
H52_3 H 0.6574 0.7052 0.7840
C92_3 C 0.6517(3) 0.6686(3) 0.8428(2)
H53_3 H 0.6411 0.6308 0.8352
C93_3 C 0.6622(3) 0.6940(2) 0.8866(2)
C94_3 C 0.6700(3) 0.6650(3) 0.9270(2)
C95_3 C 0.6767(3) 0.6919(2) 0.96862(19)
N8_3 N 0.6507(2) 0.86474(19) 0.97115(16)
N9_3 N 0.6807(2) 0.86740(19) 0.88792(15)
N10_3 N 0.6703(2) 0.75030(19) 0.88283(15)
N11_3 N 0.6677(2) 0.74853(18) 0.97342(16)
C107_3 C 0.7101(3) 0.8107(2) 0.78147(19)
C108_3 C 0.6663(3) 0.8013(3) 0.7398(2)
H60_3 H 0.6223 0.7956 0.7382
C109_3 C 0.6846(3) 0.7999(3) 0.7003(2)
H61_3 H 0.6537 0.7940 0.6721
C110_3 C 0.7484(3) 0.8074(2) 0.70268(18)
C111_3 C 0.7926(3) 0.8208(2) 0.7429(2)
H62_3 H 0.8357 0.8294 0.7436
C112_3 C 0.7737(3) 0.8217(2) 0.7823(2)
H63_3 H 0.8045 0.8299 0.8102
C113_3 C 0.7716(3) 0.8000(2) 0.66154(18)
O18_3 O 0.73246(19) 0.80212(17) 0.62289(13)
O20_3 O 0.83136(17) 0.79229(16) 0.66624(12)
C114_3 C 0.6705(3) 0.6028(3) 0.9257(2)
C115_3 C 0.7145(3) 0.5753(3) 0.9094(3)
H64_3 H 0.7453 0.5965 0.8998
C116_3 C 0.7161(4) 0.5181(3) 0.9065(3)
H65_3 H 0.7464 0.5002 0.8941
C117_3 C 0.6714(4) 0.4861(3) 0.9223(3)
C118_3 C 0.6259(4) 0.5138(3) 0.9379(3)
H66_3 H 0.5947 0.4934 0.9477
C119_3 C 0.6260(3) 0.5719(3) 0.9391(2)
H67_3 H 0.5943 0.5906 0.9495
C120_3 C 0.6744(5) 0.4236(3) 0.9190(3)
O23 O 0.8041(3) 0.90112(19) 0.6099(2)
O26 O 0.8470(4) 0.8952(2) 0.5533(2)
Cl3_3 Cl 0.66686(7) 0.80776(6) 0.92849(5)
C38_3 C 0.8286(4) 0.9861(3) 0.5777(3)
H19_3 H 0.9053 0.9934 0.5523
C41_3 C 0.8256(5) 0.9236(3) 0.5810(3)
C74_4 C 0.4488(3) 0.0208(2) 0.7222(2)
H36_4 H 0.4138 0.0402 0.7026
C75_6 C 0.5000 0.0509(3) 0.7500
C76_6 C 0.5000 0.1141(3) 0.7500
O12_2 O 0.45083(19) 0.13879(16) 0.72546(14)
C147_4 C 0.5512(3) 0.0208(2) 0.7778(2)
H83_4 H 0.5862 0.0402 0.7974
C80_4 C 0.1369(3) 0.3549(2) 0.01125(19)
C81_4 C 0.1190(3) 0.4064(3) 0.0281(2)
H48_4 H 0.1060 0.4109 0.0548
H49_4 H 0.1149 0.4852 0.0024
C96_4 C 0.1855(3) 0.1642(3) 0.0113(2)
H54_4 H 0.1954 0.1259 0.0172
C97_4 C 0.1773(3) 0.2023(2) 0.0413(2)
H55_4 H 0.1795 0.1960 0.0720
C98_4 C 0.1643(3) 0.2550(2) 0.01701(19)
C99_4 C 0.1445(3) 0.3042(2) 0.03383(19)
C121_4 C 0.1282(3) 0.3005(2) 0.07723(19)
C122_4 C 0.0637(3) 0.3003(3) 0.0769(2)
H68_4 H 0.0311 0.3037 0.0491
C123_4 C 0.0463(3) 0.2950(3) 0.1172(2)
H69_4 H 0.0023 0.2956 0.1168
C124_4 C 0.0935(3) 0.2889(2) 0.15694(19)
C125_4 C 0.1581(3) 0.2921(3) 0.15773(19)
H70_4 H 0.1906 0.2908 0.1856
C126_4 C 0.1748(3) 0.2972(2) 0.1186(2)
H71_4 H 0.2190 0.2984 0.1195
C127_4 C 0.0749(3) 0.2796(2) 0.1991(2)
H79_2 H 0.5358 0.7104 0.0059
C145_4 C 0.4262(4) 0.7060(3) 0.0295(3)
O36_4 O 0.4719(3) 0.6884(4) 0.06050(19)
H91_4 H 0.2564 0.8129 0.0020
C21_4 C 0.3407(3) 0.0118(2) 0.5718(2)
C22_4 C 0.2875(3) 0.0434(3) 0.5512(2)
H9_4 H 0.2510 0.0255 0.5319
C23_4 C 0.2852(3) 0.0993(2) 0.55753(18)
H10_4 H 0.2474 0.1197 0.5432
C24_4 C 0.3391(3) 0.1270(3) 0.58534(17)
C25_4 C 0.3940(3) 0.0956(3) 0.6044(2)
H11_4 H 0.4313 0.1136 0.6227
C26_4 C 0.3955(3) 0.0389(3) 0.5975(2)
H12_4 H 0.4338 0.0185 0.6103
C27_4 C 0.3364(3) 0.1878(3) 0.59281(19)
O1_4 O 0.2894(2) 0.21479(18) 0.57233(15)
O2_4 O 0.38527(19) 0.21109(16) 0.62117(13)
C49_6 C 0.5000 0.5814(3) 0.7500
C50_4 C 0.5074(2) 0.6086(2) 0.71198(19)
C51_4 C 0.5158(3) 0.5806(2) 0.6723(2)
H25_4 H 0.5168 0.5414 0.6677
C52_4 C 0.5220(3) 0.6204(2) 0.64363(19)
H26_4 H 0.5274 0.6148 0.6145
C53_4 C 0.5189(3) 0.6739(2) 0.66486(19)
C54_4 C 0.5212(3) 0.7255(2) 0.64442(19)
C55_4 C 0.5113(2) 0.7772(2) 0.66229(19)
C56_4 C 0.5116(3) 0.8298(2) 0.6405(2)
H27_4 H 0.5160 0.8351 0.6111
C57_4 C 0.5046(3) 0.8708(3) 0.6688(2)
H28_4 H 0.5026 0.9098 0.6631
C58_4 C 0.5007(3) 0.8430(2) 0.71030(19)
C59_6 C 0.5000 0.8712(3) 0.7500
N5_4 N 0.5094(2) 0.66552(19) 0.70667(15)
N6_4 N 0.5037(2) 0.78579(19) 0.70455(16)
C60_6 C 0.5000 0.5185(3) 0.7500
C61_4 C 0.4487(3) 0.4891(2) 0.7238(2)
H29_4 H 0.4129 0.5089 0.7055
C62_4 C 0.4477(3) 0.4305(2) 0.7234(2)
H30_4 H 0.4113 0.4114 0.7050
C63_6 C 0.5000 0.4002(3) 0.7500
C64_6 C 0.5000 0.3393(3) 0.7500
O9_4 O 0.45116(19) 0.31412(15) 0.72612(15)
C65_4 C 0.5360(3) 0.7244(2) 0.5998(2)
C66_4 C 0.4882(3) 0.7203(4) 0.5612(2)
H31_4 H 0.4449 0.7219 0.5626
C67_4 C 0.4995(3) 0.7141(5) 0.5203(2)
H32_4 H 0.4642 0.7104 0.4941
C68_4 C 0.5622(3) 0.7131(3) 0.5164(2)
C69_4 C 0.6118(3) 0.7185(3) 0.5556(3)
H33_4 H 0.6551 0.7196 0.5542
C70_4 C 0.5987(3) 0.7226(3) 0.5973(3)
H34_4 H 0.6333 0.7241 0.6241
C71_4 C 0.5738(4) 0.7060(3) 0.4705(3)
O10_4 O 0.5281(3) 0.6884(4) 0.43950(19)
C72_6 C 0.5000 0.9326(3) 0.7500
C73_4 C 0.4488(3) 0.9636(2) 0.7228(2)
H35_4 H 0.4128 0.9443 0.7042
Cl2_6 Cl 0.5000 0.72493(11) 0.7500
O13_4 O 0.31584(19) 0.17372(17) 0.68092(13)
C77_4 C 0.2798(3) 0.1615(3) 0.7040(2)
H37_4 H 0.2909 0.1751 0.7340
N7_4 N 0.2272(3) 0.1311(3) 0.6904(2)
C78_4 C 0.2055(4) 0.1097(4) 0.6456(3)
H38_4 H 0.2302 0.0762 0.6431
H39_4 H 0.1597 0.1003 0.6387
H40_4 H 0.2118 0.1380 0.6244
C79_4 C 0.1852(4) 0.1205(4) 0.7197(3)
H41_4 H 0.2034 0.1387 0.7489
H42_4 H 0.1422 0.1356 0.7056
H43_4 H 0.1821 0.0803 0.7242
O14_4 O 0.2308(3) 0.3125(3) 0.5253(2)
H44_4 H 0.2436 0.3129 0.4980
H45_4 H 0.2057 0.2796 0.5260
O15_4 O 0.4304(3) 0.3255(3) 0.62891(19)
H46_4 H 0.4528 0.2906 0.6346
H47_4 H 0.4309 0.3428 0.6570
C82_4 C 0.1238(3) 0.4467(3) 0.9999(2)
C83_4 C 0.1451(3) 0.4208(3) 0.9645(2)
C84_4 C 0.1618(3) 0.4498(2) 0.9296(2)
C85_4 C 0.1825(3) 0.4232(2) 0.89592(19)
C86_4 C 0.2028(3) 0.4526(3) 0.8614(2)
H50_4 H 0.2083 0.4917 0.8594
C87_4 C 0.2123(3) 0.4136(2) 0.8328(2)
H51_4 H 0.2262 0.4203 0.8067
C88_4 C 0.1978(3) 0.3600(2) 0.84852(18)
C89_4 C 0.1923(2) 0.3104(2) 0.82433(18)
C90_4 C 0.1726(2) 0.2593(2) 0.83963(19)
C91_4 C 0.1599(3) 0.2094(3) 0.8149(2)
H52_4 H 0.1574 0.2052 0.7840
C92_4 C 0.1517(3) 0.1686(3) 0.8428(2)
H53_4 H 0.1411 0.1308 0.8352
C93_4 C 0.1622(3) 0.1940(2) 0.8866(2)
C94_4 C 0.1700(3) 0.1650(3) 0.9270(2)
C95_4 C 0.1767(3) 0.1919(2) 0.96862(19)
N8_4 N 0.1507(2) 0.36474(19) 0.97115(16)
N9_4 N 0.1807(2) 0.36740(19) 0.88792(15)
N10_4 N 0.1703(2) 0.25030(19) 0.88283(15)
N11_4 N 0.1677(2) 0.24853(18) 0.97342(16)
C100_4 C 0.1593(3) 0.5118(2) 0.9282(2)
C101_4 C 0.2125(3) 0.5434(3) 0.9488(2)
H56_4 H 0.2490 0.5255 0.9681
C102_4 C 0.2148(3) 0.5993(2) 0.94247(18)
H57_4 H 0.2526 0.6197 0.9568
C103_4 C 0.1609(3) 0.6270(3) 0.91466(17)
C104_4 C 0.1060(3) 0.5956(3) 0.8956(2)
H58_4 H 0.0687 0.6136 0.8773
C105_4 C 0.1045(3) 0.5389(3) 0.9025(2)
H59_4 H 0.0662 0.5185 0.8897
C106_4 C 0.1636(3) 0.6878(3) 0.90719(19)
O16_4 O 0.2106(2) 0.71479(18) 0.92767(15)
O17_4 O 0.11473(19) 0.71109(16) 0.87883(13)
C107_4 C 0.2101(3) 0.3107(2) 0.78147(19)
C108_4 C 0.1663(3) 0.3013(3) 0.7398(2)
H60_4 H 0.1223 0.2956 0.7382
C109_4 C 0.1846(3) 0.2999(3) 0.7003(2)
H61_4 H 0.1537 0.2940 0.6721
C110_4 C 0.2484(3) 0.3074(2) 0.70268(18)
C111_4 C 0.2926(3) 0.3208(2) 0.7429(2)
H62_4 H 0.3357 0.3294 0.7436
C112_4 C 0.2737(3) 0.3217(2) 0.7823(2)
H63_4 H 0.3045 0.3299 0.8102
C113_4 C 0.2716(3) 0.3000(2) 0.66154(18)
O18_4 O 0.23246(19) 0.30212(17) 0.62289(13)
O19_2 O 0.26754(19) 0.80212(17) 0.87711(13)
O20_4 O 0.33136(17) 0.29229(16) 0.66624(12)
O21_2 O 0.16864(17) 0.79229(16) 0.83376(12)
C114_4 C 0.1705(3) 0.1028(3) 0.9257(2)
C115_4 C 0.2145(3) 0.0753(3) 0.9094(3)
H64_4 H 0.2453 0.0965 0.8998
C116_4 C 0.2161(4) 0.0181(3) 0.9065(3)
H65_4 H 0.2464 0.0002 0.8941
C118_4 C 0.1259(4) 0.0138(3) 0.9379(3)
C119_4 C 0.1260(3) 0.0719(3) 0.9391(2)
H67_4 H 0.0943 0.0906 0.9495
O23_2 O 0.3041(3) 0.40112(19) 0.6099(2)
O24_2 O 0.1959(3) 0.90112(19) 0.8901(2)
O26_2 O 0.3470(4) 0.3952(2) 0.5533(2)
O27_2 O 0.1530(4) 0.8952(2) 0.9467(2)
Cl3_4 Cl 0.16686(7) 0.30776(6) 0.92849(5)
C128_4 C 0.4926(2) 0.6086(2) 0.78802(19)
C129_4 C 0.4842(3) 0.5806(2) 0.8277(2)
H72_4 H 0.4832 0.5414 0.8323
C130_4 C 0.4780(3) 0.6204(2) 0.85637(19)
H73_4 H 0.4726 0.6148 0.8855
C131_4 C 0.4811(3) 0.6739(2) 0.83514(19)
C132_4 C 0.4788(3) 0.7255(2) 0.85558(19)
C133_4 C 0.4887(2) 0.7772(2) 0.83771(19)
C134_4 C 0.4884(3) 0.8298(2) 0.8595(2)
H74_4 H 0.4840 0.8351 0.8889
C135_4 C 0.4954(3) 0.8708(3) 0.8312(2)
H75_4 H 0.4974 0.9098 0.8369
C136_4 C 0.4993(3) 0.8430(2) 0.78970(19)
N12_4 N 0.4906(2) 0.66552(19) 0.79333(15)
N13_4 N 0.4963(2) 0.78579(19) 0.79545(16)
C137_4 C 0.5513(3) 0.4891(2) 0.7762(2)
H76_4 H 0.5871 0.5089 0.7945
C138_4 C 0.5523(3) 0.4305(2) 0.7766(2)
H77_4 H 0.5887 0.4114 0.7950
C139_4 C 0.4640(3) 0.7244(2) 0.9002(2)
C140_4 C 0.5118(3) 0.7203(4) 0.9388(2)
H78_4 H 0.5551 0.7219 0.9374
C141_4 C 0.5005(3) 0.7141(5) 0.9797(2)
C142_4 C 0.4378(3) 0.7131(3) 0.9836(2)
C143_4 C 0.3882(3) 0.7185(3) 0.9444(3)
H80_4 H 0.3449 0.7196 0.9458
C144_4 C 0.4013(3) 0.7226(3) 0.9027(3)
H81_4 H 0.3667 0.7241 0.8759
C146_4 C 0.5512(3) 0.9636(2) 0.7772(2)
H82_4 H 0.5872 0.9443 0.7958
O43_4 O 0.18416(19) 0.67372(17) 0.81908(13)
C148_4 C 0.2202(3) 0.6615(3) 0.7960(2)
H84_4 H 0.2091 0.6751 0.7660
N14_4 N 0.2728(3) 0.6311(3) 0.8096(2)
C149_4 C 0.2945(4) 0.6097(4) 0.8544(3)
H85_4 H 0.2698 0.5762 0.8569
H86_4 H 0.3403 0.6003 0.8613
H87_4 H 0.2882 0.6380 0.8756
C150_4 C 0.3148(4) 0.6205(4) 0.7803(3)
H88_4 H 0.2966 0.6387 0.7511
H89_4 H 0.3578 0.6356 0.7944
H90_4 H 0.3179 0.5803 0.7758
O44_4 O 0.2692(3) 0.8125(3) 0.9747(2)
H92_4 H 0.2943 0.7796 0.9740
O45_4 O 0.0696(3) 0.8255(3) 0.87109(19)
H93_4 H 0.0472 0.7906 0.8654
H94_4 H 0.0691 0.8428 0.8430
C1_4 C 0.3631(3) 0.8549(2) 0.48875(19)
C2_4 C 0.3810(3) 0.9064(3) 0.4719(2)
H1_4 H 0.3940 0.9109 0.4452
C3_4 C 0.3762(3) 0.9467(3) 0.5001(2)
H2_4 H 0.3851 0.9852 0.4976
C4_4 C 0.3549(3) 0.9208(3) 0.5355(2)
C5_4 C 0.3382(3) 0.9498(2) 0.5704(2)
C6_4 C 0.3175(3) 0.9232(2) 0.60408(19)
C7_4 C 0.2972(3) 0.9526(3) 0.6386(2)
H3_4 H 0.2917 0.9917 0.6406
C8_4 C 0.2877(3) 0.9136(2) 0.6672(2)
H4_4 H 0.2738 0.9203 0.6933
C9_4 C 0.3022(3) 0.8600(2) 0.65148(18)
C10_4 C 0.3077(2) 0.8104(2) 0.67567(18)
C11_4 C 0.3274(2) 0.7593(2) 0.66037(19)
C12_4 C 0.3401(3) 0.7094(3) 0.6851(2)
H5_4 H 0.3426 0.7052 0.7160
C13_4 C 0.3483(3) 0.6686(3) 0.6572(2)
H6_4 H 0.3589 0.6308 0.6648
C14_4 C 0.3378(3) 0.6940(2) 0.6134(2)
C15_4 C 0.3300(3) 0.6650(3) 0.5730(2)
C16_4 C 0.3233(3) 0.6919(2) 0.53138(19)
C17_4 C 0.3145(3) 0.6642(3) 0.4887(2)
H7_4 H 0.3046 0.6259 0.4828
C18_4 C 0.3227(3) 0.7023(2) 0.4587(2)
H8_4 H 0.3205 0.6960 0.4280
C19_4 C 0.3357(3) 0.7550(2) 0.48299(19)
C20_4 C 0.3555(3) 0.8042(2) 0.46617(19)
N1_4 N 0.3493(2) 0.86474(19) 0.52885(16)
N2_4 N 0.3193(2) 0.86740(19) 0.61208(15)
N3_4 N 0.3297(2) 0.75030(19) 0.61717(15)
N4_4 N 0.3323(2) 0.74853(18) 0.52658(16)
C28_4 C 0.2899(3) 0.8107(2) 0.71853(19)
C29_4 C 0.3337(3) 0.8013(3) 0.7602(2)
H13_4 H 0.3777 0.7956 0.7618
C30_4 C 0.3154(3) 0.7999(3) 0.7997(2)
H14_4 H 0.3463 0.7940 0.8279
C31_4 C 0.2516(3) 0.8074(2) 0.79732(18)
C32_4 C 0.2074(3) 0.8208(2) 0.7571(2)
H15_4 H 0.1643 0.8294 0.7564
C33_4 C 0.2263(3) 0.8217(2) 0.7177(2)
H16_4 H 0.1955 0.8299 0.6898
C34_4 C 0.2284(3) 0.8000(2) 0.83846(18)
C35_4 C 0.3295(3) 0.6028(3) 0.5743(2)
C36_4 C 0.2855(3) 0.5753(3) 0.5906(3)
H17_4 H 0.2547 0.5965 0.6002
C37_4 C 0.2839(4) 0.5181(3) 0.5935(3)
H18_4 H 0.2536 0.5002 0.6059
C38_4 C 0.3286(4) 0.4861(3) 0.5777(3)
C39_4 C 0.3741(4) 0.5138(3) 0.5621(3)
H19_4 H 0.4053 0.4934 0.5523
C40_4 C 0.3740(3) 0.5719(3) 0.5609(2)
H20_4 H 0.4057 0.5906 0.5505
C41_4 C 0.3256(5) 0.4236(3) 0.5810(3)
C42_4 C 0.3718(3) 0.8005(2) 0.42277(19)
C43_4 C 0.4363(3) 0.8003(3) 0.4231(2)
H21_4 H 0.4689 0.8037 0.4509
C44_4 C 0.4537(3) 0.7950(3) 0.3828(2)
H22_4 H 0.4977 0.7956 0.3832
C45_4 C 0.4065(3) 0.7889(2) 0.34306(19)
C46_4 C 0.3419(3) 0.7921(3) 0.34227(19)
H23_4 H 0.3094 0.7908 0.3144
C47_4 C 0.3252(3) 0.7972(2) 0.3814(2)
H24_4 H 0.2810 0.7984 0.3805
C48_4 C 0.4251(3) 0.7796(2) 0.3009(2)
Cl1_4 Cl 0.33314(7) 0.80776(6) 0.57151(5)
C117_4 C 0.1714(4) 0.9861(3) 0.9223(3)
H66_4 H 0.0947 0.9934 0.9477
C120_4 C 0.1744(5) 0.9236(3) 0.9190(3)
H79_3 H 0.9642 0.7896 0.9941
H79_4 H 0.0358 0.2104 0.0059
loop_
_geom_bond_atom_site_label_1
_geom_bond_atom_site_label_2
_geom_bond_site_symmetry_1
_geom_bond_site_symmetry_2
C41 C38 1_555 1_555
O5 C41 1_555 1_555
O6 C41 1_555 1_555
Dy14 O5 1_555 1_555
O6 Dy14 1_555 1_555
Dy1 O2 1_555 1_555
Dy14 O1 1_555 1_555
C1 C2 1_555 1_555
C2 H1 1_555 1_555
C3 C2 1_555 1_555
H2 C3 1_555 1_555
C4 C3 1_555 1_555
C5 C4 1_555 1_555
C6 C5 1_555 1_555
C7 C6 1_555 1_555
H3 C7 1_555 1_555
C8 C7 1_555 1_555
H4 C8 1_555 1_555
C9 C8 1_555 1_555
C10 C9 1_555 1_555
C11 C10 1_555 1_555
C12 C11 1_555 1_555
H5 C12 1_555 1_555
C13 C12 1_555 1_555
H6 C13 1_555 1_555
C14 C13 1_555 1_555
C15 C14 1_555 1_555
C16 C15 1_555 1_555
C17 C16 1_555 1_555
H7 C17 1_555 1_555
C18 C17 1_555 1_555
H8 C18 1_555 1_555
C19 C18 1_555 1_555
C20 C1 1_555 1_555
N1 C1 1_555 1_555
N2 C6 1_555 1_555
N3 C11 1_555 1_555
N4 C16 1_555 1_555
C21 C5 1_555 1_555
C22 C21 1_555 1_555
H9 C22 1_555 1_555
C23 C22 1_555 1_555
H10 C23 1_555 1_555
C24 C23 1_555 1_555
C25 C24 1_555 1_555
H11 C25 1_555 1_555
C26 C21 1_555 1_555
H12 C26 1_555 1_555
C27 C24 1_555 1_555
O1 C27 1_555 1_555
O2 C27 1_555 1_555
C28 C10 1_555 1_555
C29 C28 1_555 1_555
H13 C29 1_555 1_555
C30 C29 1_555 1_555
H14 C30 1_555 1_555
C31 C30 1_555 1_555
C32 C31 1_555 1_555
H15 C32 1_555 1_555
C33 C28 1_555 1_555
H16 C33 1_555 1_555
C34 C31 1_555 1_555
O3 C34 1_555 1_555
O4 C34 1_555 1_555
C35 C15 1_555 1_555
C36 C35 1_555 1_555
H17 C36 1_555 1_555
C37 C36 1_555 1_555
H18 C37 1_555 1_555
C40 C35 1_555 1_555
H20 C40 1_555 1_555
C42 C20 1_555 1_555
C43 C42 1_555 1_555
H21 C43 1_555 1_555
C44 C43 1_555 1_555
H22 C44 1_555 1_555
C45 C44 1_555 1_555
C46 C45 1_555 1_555
H23 C46 1_555 1_555
C47 C42 1_555 1_555
H24 C47 1_555 1_555
C48 C45 1_555 1_555
O7 C48 1_555 1_555
O8 C48 1_555 1_555
Cl1 N1 1_555 1_555
C62 C61 1_555 1_555
H30 C62 1_555 1_555
C63 C62 1_555 1_555
C64 C63 1_555 1_555
O9 Dy1 1_555 1_555
O13 Dy1 1_555 1_555
C77 O13 1_555 1_555
H37 C77 1_555 1_555
N7 C77 1_555 1_555
C78 N7 1_555 1_555
H38 C78 1_555 1_555
H39 C78 1_555 1_555
H40 C78 1_555 1_555
C79 N7 1_555 1_555
H41 C79 1_555 1_555
H42 C79 1_555 1_555
H43 C79 1_555 1_555
O14 Dy14 1_555 1_555
H44 O14 1_555 1_555
H45 O14 1_555 1_555
O15 Dy14 1_555 1_555
H46 O15 1_555 1_555
H47 O15 1_555 1_555
Dy4 O4 1_555 1_555
Dy6 O8 1_555 1_555
Dy13 O3 1_555 1_555
C83 C82 1_555 1_555
C84 C83 1_555 1_555
C85 C84 1_555 1_555
C86 C85 1_555 1_555
H50 C86 1_555 1_555
C87 C86 1_555 1_555
H51 C87 1_555 1_555
C88 C87 1_555 1_555
C89 C88 1_555 1_555
C90 C89 1_555 1_555
C91 C90 1_555 1_555
H52 C91 1_555 1_555
C92 C91 1_555 1_555
H53 C92 1_555 1_555
C93 C92 1_555 1_555
C94 C93 1_555 1_555
C95 C94 1_555 1_555
N9 C85 1_555 1_555
N10 C90 1_555 1_555
N11 C95 1_555 1_555
C107 C89 1_555 1_555
C108 C107 1_555 1_555
H60 C108 1_555 1_555
C109 C108 1_555 1_555
H61 C109 1_555 1_555
C110 C109 1_555 1_555
C111 C110 1_555 1_555
H62 C111 1_555 1_555
C112 C107 1_555 1_555
H63 C112 1_555 1_555
C113 C110 1_555 1_555
O18 Dy14 1_555 1_555
O20 Dy1 1_555 1_555
C114 C94 1_555 1_555
C115 C114 1_555 1_555
H64 C115 1_555 1_555
C116 C115 1_555 1_555
H65 C116 1_555 1_555
C117 C116 1_555 1_555
C118 C117 1_555 1_555
H66 C118 1_555 1_555
C119 C114 1_555 1_555
H67 C119 1_555 1_555
C120 C117 1_555 1_555
O22 Dy13 1_555 1_555
O25 Dy13 1_555 1_555
O32 Dy1 1_555 1_555
Cl3 N8 1_555 1_555
O38 Dy14 1_555 1_555
O41 Dy1 1_555 1_555
Dy14 O20 1_555 1_555
C4 N1 1_555 1_555
C9 N2 1_555 1_555
C14 N3 1_555 1_555
C19 C20 1_555 1_555
C19 N4 1_555 1_555
N2 Cl1 1_555 1_555
N3 Cl1 1_555 1_555
N4 Cl1 1_555 1_555
C25 C26 1_555 1_555
C32 C33 1_555 1_555
O4 Dy13 1_555 1_555
C39 C40 1_555 1_555
C46 C47 1_555 1_555
C64 O9 1_555 1_555
C83 N8 1_555 1_555
C88 N9 1_555 1_555
C93 N10 1_555 1_555
N9 Cl3 1_555 1_555
N10 Cl3 1_555 1_555
N11 Cl3 1_555 1_555
C111 C112 1_555 1_555
C113 O18 1_555 1_555
C113 O20 1_555 1_555
C118 C119 1_555 1_555
C120 O22 1_555 1_555
C120 O25 1_555 1_555
Dy10 O28 1_555 1_555
Dy11 O31 1_555 1_555
C80 C81 1_555 1_555
C81 H48 1_555 1_555
H54 C96 1_555 1_555
C97 C96 1_555 1_555
H55 C97 1_555 1_555
C98 C97 1_555 1_555
C99 C80 1_555 1_555
C121 C99 1_555 1_555
C122 C121 1_555 1_555
H68 C122 1_555 1_555
C123 C122 1_555 1_555
H69 C123 1_555 1_555
C124 C123 1_555 1_555
C125 C124 1_555 1_555
H70 C125 1_555 1_555
C126 C121 1_555 1_555
H71 C126 1_555 1_555
C127 C124 1_555 1_555
O28 C127 1_555 1_555
O31 C127 1_555 1_555
C98 C99 1_555 1_555
C125 C126 1_555 1_555
C60 C49 1_555 1_555
H31 C66 1_555 1_555
C67 C66 1_555 1_555
H32 C67 1_555 1_555
C72 C59 1_555 1_555
C73 C72 1_555 1_555
H35 C73 1_555 1_555
C74 C73 1_555 1_555
H36 C74 1_555 1_555
C75 C74 1_555 1_555
C76 C75 1_555 1_555
O41 C76 1_555 1_555
Dy4 O17 1_555 1_555
Dy13 O16 1_555 1_555
C101 C100 1_555 1_555
H56 C101 1_555 1_555
C102 C101 1_555 1_555
H57 C102 1_555 1_555
C103 C102 1_555 1_555
C104 C103 1_555 1_555
H58 C104 1_555 1_555
C105 C100 1_555 1_555
H59 C105 1_555 1_555
C106 C103 1_555 1_555
O16 C106 1_555 1_555
O17 C106 1_555 1_555
O30 Dy4 1_555 1_555
O33 Dy4 1_555 1_555
C128 C49 1_555 1_555
C129 C128 1_555 1_555
H72 C129 1_555 1_555
C130 C129 1_555 1_555
H73 C130 1_555 1_555
C131 C130 1_555 1_555
C132 C131 1_555 1_555
C133 C132 1_555 1_555
C134 C133 1_555 1_555
H74 C134 1_555 1_555
C135 C134 1_555 1_555
H75 C135 1_555 1_555
C136 C59 1_555 1_555
N12 Cl2 1_555 1_555
N13 Cl2 1_555 1_555
O35 Dy4 1_555 1_555
C139 C132 1_555 1_555
C143 C142 1_555 1_555
H80 C143 1_555 1_555
C144 C139 1_555 1_555
H81 C144 1_555 1_555
O39 Dy13 1_555 1_555
O42 Dy4 1_555 1_555
O43 Dy4 1_555 1_555
C148 O43 1_555 1_555
H84 C148 1_555 1_555
N14 C148 1_555 1_555
C149 N14 1_555 1_555
H85 C149 1_555 1_555
H86 C149 1_555 1_555
H87 C149 1_555 1_555
C150 N14 1_555 1_555
H88 C150 1_555 1_555
H89 C150 1_555 1_555
H90 C150 1_555 1_555
O44 Dy13 1_555 1_555
H92 O44 1_555 1_555
O45 Dy13 1_555 1_555
H93 O45 1_555 1_555
H94 O45 1_555 1_555
C104 C105 1_555 1_555
C128 N12 1_555 1_555
C131 N12 1_555 1_555
C133 N13 1_555 1_555
C135 C136 1_555 1_555
C136 N13 1_555 1_555
C143 C144 1_555 1_555
Dy16 O37 1_555 1_555
O36 C145 1_555 1_555
O37 C145 1_555 1_555
C64_2 C63_2 1_555 1_555
Dy8 O34 1_555 1_555
C138 C63_2 1_555 1_555
H77 C138 1_555 1_555
O34 C64_2 1_555 1_555
C137 C138 1_555 1_555
C49_2 C50 1_555 1_555
C50 C51 1_555 1_555
C51 H25 1_555 1_555
C52 C51 1_555 1_555
H26 C52 1_555 1_555
C53 C52 1_555 1_555
C54 C53 1_555 1_555
C55 C54 1_555 1_555
C56 C55 1_555 1_555
H27 C56 1_555 1_555
C57 C56 1_555 1_555
H28 C57 1_555 1_555
C58 C57 1_555 1_555
C59_2 C58 1_555 1_555
N5 C50 1_555 1_555
N6 C55 1_555 1_555
C60_2 C49_2 1_555 1_555
C65 C54 1_555 1_555
C69 C68 1_555 1_555
H33 C69 1_555 1_555
C70 C65 1_555 1_555
H34 C70 1_555 1_555
C71 C68 1_555 1_555
O10 C71 1_555 1_555
O11 C71 1_555 1_555
C72_2 C59_2 1_555 1_555
C76_2 C75_2 1_555 1_555
Cl2_2 N5 1_555 1_555
Dy8 O40 1_555 1_555
Dy15 O11 1_555 1_555
H78 C140 1_555 1_555
C141 C140 1_555 1_555
C146 C72_2 1_555 1_555
H82 C146 1_555 1_555
C147 C75_2 1_555 1_555
H83 C147 1_555 1_555
O40 C76_2 1_555 1_555
C53 N5 1_555 1_555
C58 N6 1_555 1_555
N6 Cl2_2 1_555 1_555
C69 C70 1_555 1_555
C146 C147 1_555 1_555
C1_2 C2_2 1_555 1_555
C2_2 H1_2 1_555 1_555
C3_2 C2_2 1_555 1_555
H2_2 C3_2 1_555 1_555
C4_2 C3_2 1_555 1_555
C5_2 C4_2 1_555 1_555
C6_2 C5_2 1_555 1_555
C7_2 C6_2 1_555 1_555
H3_2 C7_2 1_555 1_555
C8_2 C7_2 1_555 1_555
H4_2 C8_2 1_555 1_555
C9_2 C8_2 1_555 1_555
C10_2 C9_2 1_555 1_555
C11_2 C10_2 1_555 1_555
C12_2 C11_2 1_555 1_555
H5_2 C12_2 1_555 1_555
C13_2 C12_2 1_555 1_555
H6_2 C13_2 1_555 1_555
C14_2 C13_2 1_555 1_555
C15_2 C14_2 1_555 1_555
C16_2 C15_2 1_555 1_555
C17_2 C16_2 1_555 1_555
H7_2 C17_2 1_555 1_555
C18_2 C17_2 1_555 1_555
H8_2 C18_2 1_555 1_555
C19_2 C18_2 1_555 1_555
C20_2 C1_2 1_555 1_555
N1_2 C1_2 1_555 1_555
N2_2 C6_2 1_555 1_555
N3_2 C11_2 1_555 1_555
N4_2 C16_2 1_555 1_555
C28_2 C10_2 1_555 1_555
C29_2 C28_2 1_555 1_555
H13_2 C29_2 1_555 1_555
C30_2 C29_2 1_555 1_555
H14_2 C30_2 1_555 1_555
C31_2 C30_2 1_555 1_555
C32_2 C31_2 1_555 1_555
H15_2 C32_2 1_555 1_555
C33_2 C28_2 1_555 1_555
H16_2 C33_2 1_555 1_555
C34_2 C31_2 1_555 1_555
O3_2 C34_2 1_555 1_555
O4_2 C34_2 1_555 1_555
C35_2 C15_2 1_555 1_555
C36_2 C35_2 1_555 1_555
H17_2 C36_2 1_555 1_555
C37_2 C36_2 1_555 1_555
H18_2 C37_2 1_555 1_555
C38_2 C37_2 1_555 1_555
C39_2 C38_2 1_555 1_555
H19_2 C39_2 1_555 1_555
C40_2 C35_2 1_555 1_555
H20_2 C40_2 1_555 1_555
C41_2 C38_2 1_555 1_555
O5_2 C41_2 1_555 1_555
O6_2 C41_2 1_555 1_555
C42_2 C20_2 1_555 1_555
C43_2 C42_2 1_555 1_555
H21_2 C43_2 1_555 1_555
C44_2 C43_2 1_555 1_555
H22_2 C44_2 1_555 1_555
C45_2 C44_2 1_555 1_555
C46_2 C45_2 1_555 1_555
H23_2 C46_2 1_555 1_555
C47_2 C42_2 1_555 1_555
H24_2 C47_2 1_555 1_555
C48_2 C45_2 1_555 1_555
O7_2 C48_2 1_555 1_555
O8_2 C48_2 1_555 1_555
Cl1_2 N1_2 1_555 1_555
Dy8 O4_2 1_555 1_555
Dy11 O7_2 1_555 1_555
Dy10 O8_2 1_555 1_555
Dy13_2 O3_2 1_555 1_555
Dy14_2 O5_2 1_555 1_555
C120_2 C117_2 1_555 1_555
O22_2 Dy13_2 1_555 1_555
O25_2 Dy13_2 1_555 1_555
C4_2 N1_2 1_555 1_555
C9_2 N2_2 1_555 1_555
C14_2 N3_2 1_555 1_555
C19_2 C20_2 1_555 1_555
C19_2 N4_2 1_555 1_555
N2_2 Cl1_2 1_555 1_555
N3_2 Cl1_2 1_555 1_555
N4_2 Cl1_2 1_555 1_555
C32_2 C33_2 1_555 1_555
O4_2 Dy13_2 1_555 1_555
C39_2 C40_2 1_555 1_555
O6_2 Dy14_2 1_555 1_555
C46_2 C47_2 1_555 1_555
C120_2 O22_2 1_555 1_555
C120_2 O25_2 1_555 1_555
Dy1_2 O2_2 1_555 1_555
Dy14_2 O1_2 1_555 1_555
C22_2 C21_2 1_555 1_555
H9_2 C22_2 1_555 1_555
C23_2 C22_2 1_555 1_555
H10_2 C23_2 1_555 1_555
C24_2 C23_2 1_555 1_555
C25_2 C24_2 1_555 1_555
H11_2 C25_2 1_555 1_555
C26_2 C21_2 1_555 1_555
H12_2 C26_2 1_555 1_555
C27_2 C24_2 1_555 1_555
O1_2 C27_2 1_555 1_555
O2_2 C27_2 1_555 1_555
C49_3 C50_2 1_555 1_555
C50_2 C51_2 1_555 1_555
C51_2 H25_2 1_555 1_555
C52_2 C51_2 1_555 1_555
H26_2 C52_2 1_555 1_555
C53_2 C52_2 1_555 1_555
C54_2 C53_2 1_555 1_555
C55_2 C54_2 1_555 1_555
C56_2 C55_2 1_555 1_555
H27_2 C56_2 1_555 1_555
C57_2 C56_2 1_555 1_555
H28_2 C57_2 1_555 1_555
C58_2 C57_2 1_555 1_555
C59_3 C58_2 1_555 1_555
N5_2 C50_2 1_555 1_555
N6_2 C55_2 1_555 1_555
C60_3 C49_3 1_555 1_555
C61_2 C60_3 1_555 1_555
H29_2 C61_2 1_555 1_555
C62_2 C61_2 1_555 1_555
H30_2 C62_2 1_555 1_555
C63_3 C62_2 1_555 1_555
C64_3 C63_3 1_555 1_555
O9_2 Dy1_2 1_555 1_555
C65_2 C54_2 1_555 1_555
C66_2 C65_2 1_555 1_555
H31_2 C66_2 1_555 1_555
C67_2 C66_2 1_555 1_555
H32_2 C67_2 1_555 1_555
C68_2 C67_2 1_555 1_555
C69_2 C68_2 1_555 1_555
H33_2 C69_2 1_555 1_555
C70_2 C65_2 1_555 1_555
H34_2 C70_2 1_555 1_555
C71_2 C68_2 1_555 1_555
O10_2 C71_2 1_555 1_555
O11_2 C71_2 1_555 1_555
C72_3 C59_3 1_555 1_555
C73_2 C72_3 1_555 1_555
H35_2 C73_2 1_555 1_555
Cl2_3 N5_2 1_555 1_555
O13_2 Dy1_2 1_555 1_555
C77_2 O13_2 1_555 1_555
H37_2 C77_2 1_555 1_555
N7_2 C77_2 1_555 1_555
C78_2 N7_2 1_555 1_555
H38_2 C78_2 1_555 1_555
H39_2 C78_2 1_555 1_555
H40_2 C78_2 1_555 1_555
C79_2 N7_2 1_555 1_555
H41_2 C79_2 1_555 1_555
H42_2 C79_2 1_555 1_555
H43_2 C79_2 1_555 1_555
O14_2 Dy14_2 1_555 1_555
H44_2 O14_2 1_555 1_555
H45_2 O14_2 1_555 1_555
O15_2 Dy14_2 1_555 1_555
H46_2 O15_2 1_555 1_555
H47_2 O15_2 1_555 1_555
Dy8 O17_2 1_555 1_555
Dy13_2 O16_2 1_555 1_555
Dy15_2 O11_2 1_555 1_555
C83_2 C82_2 1_555 1_555
C84_2 C83_2 1_555 1_555
C85_2 C84_2 1_555 1_555
C86_2 C85_2 1_555 1_555
H50_2 C86_2 1_555 1_555
C87_2 C86_2 1_555 1_555
H51_2 C87_2 1_555 1_555
C88_2 C87_2 1_555 1_555
C89_2 C88_2 1_555 1_555
C90_2 C89_2 1_555 1_555
C91_2 C90_2 1_555 1_555
H52_2 C91_2 1_555 1_555
C92_2 C91_2 1_555 1_555
H53_2 C92_2 1_555 1_555
C93_2 C92_2 1_555 1_555
C94_2 C93_2 1_555 1_555
C95_2 C94_2 1_555 1_555
N9_2 C85_2 1_555 1_555
N10_2 C90_2 1_555 1_555
N11_2 C95_2 1_555 1_555
C100_2 C84_2 1_555 1_555
C101_2 C100_2 1_555 1_555
H56_2 C101_2 1_555 1_555
C102_2 C101_2 1_555 1_555
H57_2 C102_2 1_555 1_555
C103_2 C102_2 1_555 1_555
C104_2 C103_2 1_555 1_555
H58_2 C104_2 1_555 1_555
C105_2 C100_2 1_555 1_555
H59_2 C105_2 1_555 1_555
C106_2 C103_2 1_555 1_555
O16_2 C106_2 1_555 1_555
O17_2 C106_2 1_555 1_555
C107_2 C89_2 1_555 1_555
C108_2 C107_2 1_555 1_555
H60_2 C108_2 1_555 1_555
C109_2 C108_2 1_555 1_555
H61_2 C109_2 1_555 1_555
C110_2 C109_2 1_555 1_555
C111_2 C110_2 1_555 1_555
H62_2 C111_2 1_555 1_555
C112_2 C107_2 1_555 1_555
H63_2 C112_2 1_555 1_555
C113_2 C110_2 1_555 1_555
O18_2 Dy14_2 1_555 1_555
O20_2 Dy1_2 1_555 1_555
C114_2 C94_2 1_555 1_555
C115_2 C114_2 1_555 1_555
H64_2 C115_2 1_555 1_555
C116_2 C115_2 1_555 1_555
H65_2 C116_2 1_555 1_555
C119_2 C114_2 1_555 1_555
H67_2 C119_2 1_555 1_555
O29_2 Dy1_2 1_555 1_555
O32_2 Dy1_2 1_555 1_555
O33_2 Dy8 1_555 1_555
Cl3_2 N8_2 1_555 1_555
C128_2 C49_3 1_555 1_555
C129_2 C128_2 1_555 1_555
H72_2 C129_2 1_555 1_555
C130_2 C129_2 1_555 1_555
H73_2 C130_2 1_555 1_555
C131_2 C130_2 1_555 1_555
C132_2 C131_2 1_555 1_555
C133_2 C132_2 1_555 1_555
C134_2 C133_2 1_555 1_555
H74_2 C134_2 1_555 1_555
C135_2 C134_2 1_555 1_555
H75_2 C135_2 1_555 1_555
C136_2 C59_3 1_555 1_555
N12_2 Cl2_3 1_555 1_555
N13_2 Cl2_3 1_555 1_555
C137_2 C60_3 1_555 1_555
H76_2 C137_2 1_555 1_555
C138_2 C63_3 1_555 1_555
H77_2 C138_2 1_555 1_555
O35 C64_3 1_555 1_555
C139_2 C132_2 1_555 1_555
C140_2 C139_2 1_555 1_555
H78_2 C140_2 1_555 1_555
C141_2 C140_2 1_555 1_555
C142_2 C141_2 1_555 1_555
C143_2 C142_2 1_555 1_555
H80_2 C143_2 1_555 1_555
C144_2 C139_2 1_555 1_555
H81_2 C144_2 1_555 1_555
O38_2 Dy14_2 1_555 1_555
O39_2 Dy13_2 1_555 1_555
C146_2 C72_3 1_555 1_555
H82_2 C146_2 1_555 1_555
O41_2 Dy1_2 1_555 1_555
O43_2 Dy8 1_555 1_555
C148_2 O43_2 1_555 1_555
H84_2 C148_2 1_555 1_555
N14_2 C148_2 1_555 1_555
C149_2 N14_2 1_555 1_555
H85_2 C149_2 1_555 1_555
H86_2 C149_2 1_555 1_555
H87_2 C149_2 1_555 1_555
C150_2 N14_2 1_555 1_555
H88_2 C150_2 1_555 1_555
H89_2 C150_2 1_555 1_555
H90_2 C150_2 1_555 1_555
O44_2 Dy13_2 1_555 1_555
H92_2 O44_2 1_555 1_555
O45_2 Dy13_2 1_555 1_555
H93_2 O45_2 1_555 1_555
H94_2 O45_2 1_555 1_555
Dy14_2 O20_2 1_555 1_555
C25_2 C26_2 1_555 1_555
C53_2 N5_2 1_555 1_555
C58_2 N6_2 1_555 1_555
N6_2 Cl2_3 1_555 1_555
C64_3 O9_2 1_555 1_555
C69_2 C70_2 1_555 1_555
C83_2 N8_2 1_555 1_555
C88_2 N9_2 1_555 1_555
C93_2 N10_2 1_555 1_555
N9_2 Cl3_2 1_555 1_555
N10_2 Cl3_2 1_555 1_555
N11_2 Cl3_2 1_555 1_555
C104_2 C105_2 1_555 1_555
C111_2 C112_2 1_555 1_555
C113_2 O18_2 1_555 1_555
C113_2 O20_2 1_555 1_555
C118_2 C119_2 1_555 1_555
C128_2 N12_2 1_555 1_555
C131_2 N12_2 1_555 1_555
C133_2 N13_2 1_555 1_555
C135_2 C136_2 1_555 1_555
C136_2 N13_2 1_555 1_555
C137_2 C138_2 1_555 1_555
C143_2 C144_2 1_555 1_555
Dy5 O31_2 1_555 1_555
Dy16_2 O37_2 1_555 1_555
C80_2 C81_2 1_555 1_555
C81_2 H48_2 1_555 1_555
H54_2 C96_2 1_555 1_555
C97_2 C96_2 1_555 1_555
H55_2 C97_2 1_555 1_555
C98_2 C97_2 1_555 1_555
C99_2 C80_2 1_555 1_555
C121_2 C99_2 1_555 1_555
C122_2 C121_2 1_555 1_555
H68_2 C122_2 1_555 1_555
C123_2 C122_2 1_555 1_555
H69_2 C123_2 1_555 1_555
C124_2 C123_2 1_555 1_555
C125_2 C124_2 1_555 1_555
H70_2 C125_2 1_555 1_555
C126_2 C121_2 1_555 1_555
H71_2 C126_2 1_555 1_555
C127_2 C124_2 1_555 1_555
O28_2 C127_2 1_555 1_555
O31_2 C127_2 1_555 1_555
O36_2 C145_2 1_555 1_555
O37_2 C145_2 1_555 1_555
C98_2 C99_2 1_555 1_555
C125_2 C126_2 1_555 1_555
H36_2 C74_2 1_555 1_555
C75_3 C74_2 1_555 1_555
C76_3 C75_3 1_555 1_555
O41_2 C76_3 1_555 1_555
C147_2 C75_3 1_555 1_555
H83_2 C147_2 1_555 1_555
O42 C76_3 1_555 1_555
C49_4 C50_3 1_555 1_555
C50_3 C51_3 1_555 1_555
C51_3 H25_3 1_555 1_555
C52_3 C51_3 1_555 1_555
H26_3 C52_3 1_555 1_555
C53_3 C52_3 1_555 1_555
C54_3 C53_3 1_555 1_555
C55_3 C54_3 1_555 1_555
C56_3 C55_3 1_555 1_555
H27_3 C56_3 1_555 1_555
C57_3 C56_3 1_555 1_555
H28_3 C57_3 1_555 1_555
C58_3 C57_3 1_555 1_555
C59_4 C58_3 1_555 1_555
N5_3 C50_3 1_555 1_555
N6_3 C55_3 1_555 1_555
C60_4 C49_4 1_555 1_555
C65_3 C54_3 1_555 1_555
C69_3 C68_3 1_555 1_555
H33_3 C69_3 1_555 1_555
C70_3 C65_3 1_555 1_555
H34_3 C70_3 1_555 1_555
C71_3 C68_3 1_555 1_555
O10_3 C71_3 1_555 1_555
O38 C71_3 1_555 1_555
C72_4 C59_4 1_555 1_555
C76_4 C75_4 1_555 1_555
Cl2_4 N5_3 1_555 1_555
Dy6 O40_2 1_555 1_555
H78_3 C140_3 1_555 1_555
C141_3 C140_3 1_555 1_555
C146_3 C72_4 1_555 1_555
H82_3 C146_3 1_555 1_555
C147_3 C75_4 1_555 1_555
H83_3 C147_3 1_555 1_555
O40_2 C76_4 1_555 1_555
C53_3 N5_3 1_555 1_555
C58_3 N6_3 1_555 1_555
N6_3 Cl2_4 1_555 1_555
C69_3 C70_3 1_555 1_555
C146_3 C147_3 1_555 1_555
C64_4 C63_4 1_555 1_555
Dy6 O34_2 1_555 1_555
C138_3 C63_4 1_555 1_555
H77_3 C138_3 1_555 1_555
O34_2 C64_4 1_555 1_555
C137_3 C138_3 1_555 1_555
O36_3 C145_3 1_555 1_555
O39_2 C145_3 1_555 1_555
C60_5 C49_5 1_555 1_555
H31_3 C66_3 1_555 1_555
C67_3 C66_3 1_555 1_555
H32_3 C67_3 1_555 1_555
C72_5 C59_5 1_555 1_555
C73_3 C72_5 1_555 1_555
H35_3 C73_3 1_555 1_555
C74_3 C73_3 1_555 1_555
H36_3 C74_3 1_555 1_555
C75_5 C74_3 1_555 1_555
C76_5 C75_5 1_555 1_555
O12 C76_5 1_555 1_555
Dy10 O17_3 1_555 1_555
Dy5 O12 1_555 1_555
Dy16_2 O16_3 1_555 1_555
C101_3 C100_3 1_555 1_555
H56_3 C101_3 1_555 1_555
C102_3 C101_3 1_555 1_555
H57_3 C102_3 1_555 1_555
C103_3 C102_3 1_555 1_555
C104_3 C103_3 1_555 1_555
H58_3 C104_3 1_555 1_555
C105_3 C100_3 1_555 1_555
H59_3 C105_3 1_555 1_555
C106_3 C103_3 1_555 1_555
O16_3 C106_3 1_555 1_555
O17_3 C106_3 1_555 1_555
O19 Dy16_2 1_555 1_555
O21 Dy10 1_555 1_555
O24 Dy16_2 1_555 1_555
O27 Dy16_2 1_555 1_555
C128_3 C49_5 1_555 1_555
C129_3 C128_3 1_555 1_555
H72_3 C129_3 1_555 1_555
C130_3 C129_3 1_555 1_555
H73_3 C130_3 1_555 1_555
C131_3 C130_3 1_555 1_555
C132_3 C131_3 1_555 1_555
C133_3 C132_3 1_555 1_555
C134_3 C133_3 1_555 1_555
H74_3 C134_3 1_555 1_555
C135_3 C134_3 1_555 1_555
H75_3 C135_3 1_555 1_555
C136_3 C59_5 1_555 1_555
N12_3 Cl2_5 1_555 1_555
N13_3 Cl2_5 1_555 1_555
O35_2 Dy10 1_555 1_555
C139_3 C132_3 1_555 1_555
C143_3 C142_3 1_555 1_555
H80_3 C143_3 1_555 1_555
C144_3 C139_3 1_555 1_555
H81_3 C144_3 1_555 1_555
O42_2 Dy10 1_555 1_555
O43_3 Dy10 1_555 1_555
C148_3 O43_3 1_555 1_555
H84_3 C148_3 1_555 1_555
N14_3 C148_3 1_555 1_555
C149_3 N14_3 1_555 1_555
H85_3 C149_3 1_555 1_555
H86_3 C149_3 1_555 1_555
H87_3 C149_3 1_555 1_555
C150_3 N14_3 1_555 1_555
H88_3 C150_3 1_555 1_555
H89_3 C150_3 1_555 1_555
H90_3 C150_3 1_555 1_555
O44_3 Dy16_2 1_555 1_555
H92_3 O44_3 1_555 1_555
O45_3 Dy16_2 1_555 1_555
H93_3 O45_3 1_555 1_555
H94_3 O45_3 1_555 1_555
Dy16_2 O21 1_555 1_555
C104_3 C105_3 1_555 1_555
C128_3 N12_3 1_555 1_555
C131_3 N12_3 1_555 1_555
C133_3 N13_3 1_555 1_555
C135_3 C136_3 1_555 1_555
C136_3 N13_3 1_555 1_555
C143_3 C144_3 1_555 1_555
C80_3 C81_3 1_555 1_555
C81_3 H48_3 1_555 1_555
H54_3 C96_3 1_555 1_555
C97_3 C96_3 1_555 1_555
H55_3 C97_3 1_555 1_555
C98_3 C97_3 1_555 1_555
C99_3 C80_3 1_555 1_555
C121_3 C99_3 1_555 1_555
C122_3 C121_3 1_555 1_555
H68_3 C122_3 1_555 1_555
C123_3 C122_3 1_555 1_555
H69_3 C123_3 1_555 1_555
C124_3 C123_3 1_555 1_555
C125_3 C124_3 1_555 1_555
H70_3 C125_3 1_555 1_555
C126_3 C121_3 1_555 1_555
H71_3 C126_3 1_555 1_555
C127_3 C124_3 1_555 1_555
O30 C127_3 1_555 1_555
O32_2 C127_3 1_555 1_555
C98_3 C99_3 1_555 1_555
C125_3 C126_3 1_555 1_555
Dy5 O2_3 1_555 1_555
Dy15 O1_3 1_555 1_555
C1_3 C2_3 1_555 1_555
C2_3 H1_3 1_555 1_555
C3_3 C2_3 1_555 1_555
H2_3 C3_3 1_555 1_555
C4_3 C3_3 1_555 1_555
C5_3 C4_3 1_555 1_555
C6_3 C5_3 1_555 1_555
C7_3 C6_3 1_555 1_555
H3_3 C7_3 1_555 1_555
C8_3 C7_3 1_555 1_555
H4_3 C8_3 1_555 1_555
C9_3 C8_3 1_555 1_555
C10_3 C9_3 1_555 1_555
C11_3 C10_3 1_555 1_555
C12_3 C11_3 1_555 1_555
H5_3 C12_3 1_555 1_555
C13_3 C12_3 1_555 1_555
H6_3 C13_3 1_555 1_555
C14_3 C13_3 1_555 1_555
C15_3 C14_3 1_555 1_555
C16_3 C15_3 1_555 1_555
C17_3 C16_3 1_555 1_555
H7_3 C17_3 1_555 1_555
C18_3 C17_3 1_555 1_555
H8_3 C18_3 1_555 1_555
C19_3 C18_3 1_555 1_555
C20_3 C1_3 1_555 1_555
N1_3 C1_3 1_555 1_555
N2_3 C6_3 1_555 1_555
N3_3 C11_3 1_555 1_555
N4_3 C16_3 1_555 1_555
C21_3 C5_3 1_555 1_555
C22_3 C21_3 1_555 1_555
H9_3 C22_3 1_555 1_555
C23_3 C22_3 1_555 1_555
H10_3 C23_3 1_555 1_555
C24_3 C23_3 1_555 1_555
C25_3 C24_3 1_555 1_555
H11_3 C25_3 1_555 1_555
C26_3 C21_3 1_555 1_555
H12_3 C26_3 1_555 1_555
C27_3 C24_3 1_555 1_555
O1_3 C27_3 1_555 1_555
O2_3 C27_3 1_555 1_555
C28_3 C10_3 1_555 1_555
C29_3 C28_3 1_555 1_555
H13_3 C29_3 1_555 1_555
C30_3 C29_3 1_555 1_555
H14_3 C30_3 1_555 1_555
C31_3 C30_3 1_555 1_555
C32_3 C31_3 1_555 1_555
H15_3 C32_3 1_555 1_555
C33_3 C28_3 1_555 1_555
H16_3 C33_3 1_555 1_555
C34_3 C31_3 1_555 1_555
O19 C34_3 1_555 1_555
O21 C34_3 1_555 1_555
C35_3 C15_3 1_555 1_555
C36_3 C35_3 1_555 1_555
H17_3 C36_3 1_555 1_555
C37_3 C36_3 1_555 1_555
H18_3 C37_3 1_555 1_555
C40_3 C35_3 1_555 1_555
H20_3 C40_3 1_555 1_555
C42_3 C20_3 1_555 1_555
C43_3 C42_3 1_555 1_555
H21_3 C43_3 1_555 1_555
C44_3 C43_3 1_555 1_555
H22_3 C44_3 1_555 1_555
C45_3 C44_3 1_555 1_555
C46_3 C45_3 1_555 1_555
H23_3 C46_3 1_555 1_555
C47_3 C42_3 1_555 1_555
H24_3 C47_3 1_555 1_555
C48_3 C45_3 1_555 1_555
O29 C48_3 1_555 1_555
O33_2 C48_3 1_555 1_555
Cl1_3 N1_3 1_555 1_555
C62_3 C61_3 1_555 1_555
H30_3 C62_3 1_555 1_555
C63_5 C62_3 1_555 1_555
C64_5 C63_5 1_555 1_555
O9_3 Dy5 1_555 1_555
O13_3 Dy5 1_555 1_555
C77_3 O13_3 1_555 1_555
H37_3 C77_3 1_555 1_555
N7_3 C77_3 1_555 1_555
C78_3 N7_3 1_555 1_555
H38_3 C78_3 1_555 1_555
H39_3 C78_3 1_555 1_555
H40_3 C78_3 1_555 1_555
C79_3 N7_3 1_555 1_555
H41_3 C79_3 1_555 1_555
H42_3 C79_3 1_555 1_555
H43_3 C79_3 1_555 1_555
O14_3 Dy15 1_555 1_555
H44_3 O14_3 1_555 1_555
H45_3 O14_3 1_555 1_555
O15_3 Dy15 1_555 1_555
H46_3 O15_3 1_555 1_555
H47_3 O15_3 1_555 1_555
C83_3 C82_3 1_555 1_555
C84_3 C83_3 1_555 1_555
C85_3 C84_3 1_555 1_555
C86_3 C85_3 1_555 1_555
H50_3 C86_3 1_555 1_555
C87_3 C86_3 1_555 1_555
H51_3 C87_3 1_555 1_555
C88_3 C87_3 1_555 1_555
C89_3 C88_3 1_555 1_555
C90_3 C89_3 1_555 1_555
C91_3 C90_3 1_555 1_555
H52_3 C91_3 1_555 1_555
C92_3 C91_3 1_555 1_555
H53_3 C92_3 1_555 1_555
C93_3 C92_3 1_555 1_555
C94_3 C93_3 1_555 1_555
C95_3 C94_3 1_555 1_555
N9_3 C85_3 1_555 1_555
N10_3 C90_3 1_555 1_555
N11_3 C95_3 1_555 1_555
C107_3 C89_3 1_555 1_555
C108_3 C107_3 1_555 1_555
H60_3 C108_3 1_555 1_555
C109_3 C108_3 1_555 1_555
H61_3 C109_3 1_555 1_555
C110_3 C109_3 1_555 1_555
C111_3 C110_3 1_555 1_555
H62_3 C111_3 1_555 1_555
C112_3 C107_3 1_555 1_555
H63_3 C112_3 1_555 1_555
C113_3 C110_3 1_555 1_555
O18_3 Dy15 1_555 1_555
O20_3 Dy5 1_555 1_555
C114_3 C94_3 1_555 1_555
C115_3 C114_3 1_555 1_555
H64_3 C115_3 1_555 1_555
C116_3 C115_3 1_555 1_555
H65_3 C116_3 1_555 1_555
C117_3 C116_3 1_555 1_555
C118_3 C117_3 1_555 1_555
H66_3 C118_3 1_555 1_555
C119_3 C114_3 1_555 1_555
H67_3 C119_3 1_555 1_555
C120_3 C117_3 1_555 1_555
O23 Dy15 1_555 1_555
O26 Dy15 1_555 1_555
Cl3_3 N8_3 1_555 1_555
Dy15 O20_3 1_555 1_555
C4_3 N1_3 1_555 1_555
C9_3 N2_3 1_555 1_555
C14_3 N3_3 1_555 1_555
C19_3 C20_3 1_555 1_555
C19_3 N4_3 1_555 1_555
N2_3 Cl1_3 1_555 1_555
N3_3 Cl1_3 1_555 1_555
N4_3 Cl1_3 1_555 1_555
C25_3 C26_3 1_555 1_555
C32_3 C33_3 1_555 1_555
C39_3 C40_3 1_555 1_555
C46_3 C47_3 1_555 1_555
C64_5 O9_3 1_555 1_555
C83_3 N8_3 1_555 1_555
C88_3 N9_3 1_555 1_555
C93_3 N10_3 1_555 1_555
N9_3 Cl3_3 1_555 1_555
N10_3 Cl3_3 1_555 1_555
N11_3 Cl3_3 1_555 1_555
C111_3 C112_3 1_555 1_555
C113_3 O18_3 1_555 1_555
C113_3 O20_3 1_555 1_555
C118_3 C119_3 1_555 1_555
C120_3 O24 1_555 1_555
C120_3 O27 1_555 1_555
C41_3 C38_3 1_555 1_555
O23 C41_3 1_555 1_555
O26 C41_3 1_555 1_555
H36_4 C74_4 1_555 1_555
C75_6 C74_4 1_555 1_555
C76_6 C75_6 1_555 1_555
O12_2 C76_6 1_555 1_555
Dy11 O12_2 1_555 1_555
C147_4 C75_6 1_555 1_555
H83_4 C147_4 1_555 1_555
O42_2 C76_6 1_555 1_555
C80_4 C81_4 1_555 1_555
C81_4 H48_4 1_555 1_555
H54_4 C96_4 1_555 1_555
C97_4 C96_4 1_555 1_555
H55_4 C97_4 1_555 1_555
C98_4 C97_4 1_555 1_555
C99_4 C80_4 1_555 1_555
C121_4 C99_4 1_555 1_555
C122_4 C121_4 1_555 1_555
H68_4 C122_4 1_555 1_555
C123_4 C122_4 1_555 1_555
H69_4 C123_4 1_555 1_555
C124_4 C123_4 1_555 1_555
C125_4 C124_4 1_555 1_555
H70_4 C125_4 1_555 1_555
C126_4 C121_4 1_555 1_555
H71_4 C126_4 1_555 1_555
C127_4 C124_4 1_555 1_555
O30_2 C127_4 1_555 1_555
O32 C127_4 1_555 1_555
O36_4 C145_4 1_555 1_555
O39 C145_4 1_555 1_555
C98_4 C99_4 1_555 1_555
C125_4 C126_4 1_555 1_555
Dy11 O2_4 1_555 1_555
Dy15_2 O1_4 1_555 1_555
C22_4 C21_4 1_555 1_555
H9_4 C22_4 1_555 1_555
C23_4 C22_4 1_555 1_555
H10_4 C23_4 1_555 1_555
C24_4 C23_4 1_555 1_555
C25_4 C24_4 1_555 1_555
H11_4 C25_4 1_555 1_555
C26_4 C21_4 1_555 1_555
H12_4 C26_4 1_555 1_555
C27_4 C24_4 1_555 1_555
O1_4 C27_4 1_555 1_555
O2_4 C27_4 1_555 1_555
C49_6 C50_4 1_555 1_555
C50_4 C51_4 1_555 1_555
C51_4 H25_4 1_555 1_555
C52_4 C51_4 1_555 1_555
H26_4 C52_4 1_555 1_555
C53_4 C52_4 1_555 1_555
C54_4 C53_4 1_555 1_555
C55_4 C54_4 1_555 1_555
C56_4 C55_4 1_555 1_555
H27_4 C56_4 1_555 1_555
C57_4 C56_4 1_555 1_555
H28_4 C57_4 1_555 1_555
C58_4 C57_4 1_555 1_555
C59_6 C58_4 1_555 1_555
N5_4 C50_4 1_555 1_555
N6_4 C55_4 1_555 1_555
C60_6 C49_6 1_555 1_555
C61_4 C60_6 1_555 1_555
H29_4 C61_4 1_555 1_555
C62_4 C61_4 1_555 1_555
H30_4 C62_4 1_555 1_555
C63_6 C62_4 1_555 1_555
C64_6 C63_6 1_555 1_555
O9_4 Dy11 1_555 1_555
C65_4 C54_4 1_555 1_555
C66_4 C65_4 1_555 1_555
H31_4 C66_4 1_555 1_555
C67_4 C66_4 1_555 1_555
H32_4 C67_4 1_555 1_555
C68_4 C67_4 1_555 1_555
C69_4 C68_4 1_555 1_555
H33_4 C69_4 1_555 1_555
C70_4 C65_4 1_555 1_555
H34_4 C70_4 1_555 1_555
C71_4 C68_4 1_555 1_555
O10_4 C71_4 1_555 1_555
O38_2 C71_4 1_555 1_555
C72_6 C59_6 1_555 1_555
C73_4 C72_6 1_555 1_555
H35_4 C73_4 1_555 1_555
Cl2_6 N5_4 1_555 1_555
O13_4 Dy11 1_555 1_555
C77_4 O13_4 1_555 1_555
H37_4 C77_4 1_555 1_555
N7_4 C77_4 1_555 1_555
C78_4 N7_4 1_555 1_555
H38_4 C78_4 1_555 1_555
H39_4 C78_4 1_555 1_555
H40_4 C78_4 1_555 1_555
C79_4 N7_4 1_555 1_555
H41_4 C79_4 1_555 1_555
H42_4 C79_4 1_555 1_555
H43_4 C79_4 1_555 1_555
O14_4 Dy15_2 1_555 1_555
H44_4 O14_4 1_555 1_555
H45_4 O14_4 1_555 1_555
O15_4 Dy15_2 1_555 1_555
H46_4 O15_4 1_555 1_555
H47_4 O15_4 1_555 1_555
Dy6 O17_4 1_555 1_555
Dy16 O16_4 1_555 1_555
C83_4 C82_4 1_555 1_555
C84_4 C83_4 1_555 1_555
C85_4 C84_4 1_555 1_555
C86_4 C85_4 1_555 1_555
H50_4 C86_4 1_555 1_555
C87_4 C86_4 1_555 1_555
H51_4 C87_4 1_555 1_555
C88_4 C87_4 1_555 1_555
C89_4 C88_4 1_555 1_555
C90_4 C89_4 1_555 1_555
C91_4 C90_4 1_555 1_555
H52_4 C91_4 1_555 1_555
C92_4 C91_4 1_555 1_555
H53_4 C92_4 1_555 1_555
C93_4 C92_4 1_555 1_555
C94_4 C93_4 1_555 1_555
C95_4 C94_4 1_555 1_555
N9_4 C85_4 1_555 1_555
N10_4 C90_4 1_555 1_555
N11_4 C95_4 1_555 1_555
C100_4 C84_4 1_555 1_555
C101_4 C100_4 1_555 1_555
H56_4 C101_4 1_555 1_555
C102_4 C101_4 1_555 1_555
H57_4 C102_4 1_555 1_555
C103_4 C102_4 1_555 1_555
C104_4 C103_4 1_555 1_555
H58_4 C104_4 1_555 1_555
C105_4 C100_4 1_555 1_555
H59_4 C105_4 1_555 1_555
C106_4 C103_4 1_555 1_555
O16_4 C106_4 1_555 1_555
O17_4 C106_4 1_555 1_555
C107_4 C89_4 1_555 1_555
C108_4 C107_4 1_555 1_555
H60_4 C108_4 1_555 1_555
C109_4 C108_4 1_555 1_555
H61_4 C109_4 1_555 1_555
C110_4 C109_4 1_555 1_555
C111_4 C110_4 1_555 1_555
H62_4 C111_4 1_555 1_555
C112_4 C107_4 1_555 1_555
H63_4 C112_4 1_555 1_555
C113_4 C110_4 1_555 1_555
O18_4 Dy15_2 1_555 1_555
O19_2 Dy16 1_555 1_555
O20_4 Dy11 1_555 1_555
O21_2 Dy6 1_555 1_555
C114_4 C94_4 1_555 1_555
C115_4 C114_4 1_555 1_555
H64_4 C115_4 1_555 1_555
C116_4 C115_4 1_555 1_555
H65_4 C116_4 1_555 1_555
C119_4 C114_4 1_555 1_555
H67_4 C119_4 1_555 1_555
O23_2 Dy15_2 1_555 1_555
O24_2 Dy16 1_555 1_555
O26_2 Dy15_2 1_555 1_555
O27_2 Dy16 1_555 1_555
Cl3_4 N8_4 1_555 1_555
C128_4 C49_6 1_555 1_555
C129_4 C128_4 1_555 1_555
H72_4 C129_4 1_555 1_555
C130_4 C129_4 1_555 1_555
H73_4 C130_4 1_555 1_555
C131_4 C130_4 1_555 1_555
C132_4 C131_4 1_555 1_555
C133_4 C132_4 1_555 1_555
C134_4 C133_4 1_555 1_555
H74_4 C134_4 1_555 1_555
C135_4 C134_4 1_555 1_555
H75_4 C135_4 1_555 1_555
C136_4 C59_6 1_555 1_555
N12_4 Cl2_6 1_555 1_555
N13_4 Cl2_6 1_555 1_555
C137_4 C60_6 1_555 1_555
H76_4 C137_4 1_555 1_555
C138_4 C63_6 1_555 1_555
H77_4 C138_4 1_555 1_555
O35_2 C64_6 1_555 1_555
C139_4 C132_4 1_555 1_555
C140_4 C139_4 1_555 1_555
H78_4 C140_4 1_555 1_555
C141_4 C140_4 1_555 1_555
C142_4 C141_4 1_555 1_555
C143_4 C142_4 1_555 1_555
H80_4 C143_4 1_555 1_555
C144_4 C139_4 1_555 1_555
H81_4 C144_4 1_555 1_555
C146_4 C72_6 1_555 1_555
H82_4 C146_4 1_555 1_555
O43_4 Dy6 1_555 1_555
C148_4 O43_4 1_555 1_555
H84_4 C148_4 1_555 1_555
N14_4 C148_4 1_555 1_555
C149_4 N14_4 1_555 1_555
H85_4 C149_4 1_555 1_555
H86_4 C149_4 1_555 1_555
H87_4 C149_4 1_555 1_555
C150_4 N14_4 1_555 1_555
H88_4 C150_4 1_555 1_555
H89_4 C150_4 1_555 1_555
H90_4 C150_4 1_555 1_555
O44_4 Dy16 1_555 1_555
H92_4 O44_4 1_555 1_555
O45_4 Dy16 1_555 1_555
H93_4 O45_4 1_555 1_555
H94_4 O45_4 1_555 1_555
Dy15_2 O20_4 1_555 1_555
C25_4 C26_4 1_555 1_555
C53_4 N5_4 1_555 1_555
C58_4 N6_4 1_555 1_555
N6_4 Cl2_6 1_555 1_555
C64_6 O9_4 1_555 1_555
C69_4 C70_4 1_555 1_555
Dy16 O21_2 1_555 1_555
C83_4 N8_4 1_555 1_555
C88_4 N9_4 1_555 1_555
C93_4 N10_4 1_555 1_555
N9_4 Cl3_4 1_555 1_555
N10_4 Cl3_4 1_555 1_555
N11_4 Cl3_4 1_555 1_555
C104_4 C105_4 1_555 1_555
C111_4 C112_4 1_555 1_555
C113_4 O18_4 1_555 1_555
C113_4 O20_4 1_555 1_555
C118_4 C119_4 1_555 1_555
C128_4 N12_4 1_555 1_555
C131_4 N12_4 1_555 1_555
C133_4 N13_4 1_555 1_555
C135_4 C136_4 1_555 1_555
C136_4 N13_4 1_555 1_555
C137_4 C138_4 1_555 1_555
C143_4 C144_4 1_555 1_555
C1_4 C2_4 1_555 1_555
C2_4 H1_4 1_555 1_555
C3_4 C2_4 1_555 1_555
H2_4 C3_4 1_555 1_555
C4_4 C3_4 1_555 1_555
C5_4 C4_4 1_555 1_555
C6_4 C5_4 1_555 1_555
C7_4 C6_4 1_555 1_555
H3_4 C7_4 1_555 1_555
C8_4 C7_4 1_555 1_555
H4_4 C8_4 1_555 1_555
C9_4 C8_4 1_555 1_555
C10_4 C9_4 1_555 1_555
C11_4 C10_4 1_555 1_555
C12_4 C11_4 1_555 1_555
H5_4 C12_4 1_555 1_555
C13_4 C12_4 1_555 1_555
H6_4 C13_4 1_555 1_555
C14_4 C13_4 1_555 1_555
C15_4 C14_4 1_555 1_555
C16_4 C15_4 1_555 1_555
C17_4 C16_4 1_555 1_555
H7_4 C17_4 1_555 1_555
C18_4 C17_4 1_555 1_555
H8_4 C18_4 1_555 1_555
C19_4 C18_4 1_555 1_555
C20_4 C1_4 1_555 1_555
N1_4 C1_4 1_555 1_555
N2_4 C6_4 1_555 1_555
N3_4 C11_4 1_555 1_555
N4_4 C16_4 1_555 1_555
C28_4 C10_4 1_555 1_555
C29_4 C28_4 1_555 1_555
H13_4 C29_4 1_555 1_555
C30_4 C29_4 1_555 1_555
H14_4 C30_4 1_555 1_555
C31_4 C30_4 1_555 1_555
C32_4 C31_4 1_555 1_555
H15_4 C32_4 1_555 1_555
C33_4 C28_4 1_555 1_555
H16_4 C33_4 1_555 1_555
C34_4 C31_4 1_555 1_555
O19_2 C34_4 1_555 1_555
O21_2 C34_4 1_555 1_555
C35_4 C15_4 1_555 1_555
C36_4 C35_4 1_555 1_555
H17_4 C36_4 1_555 1_555
C37_4 C36_4 1_555 1_555
H18_4 C37_4 1_555 1_555
C38_4 C37_4 1_555 1_555
C39_4 C38_4 1_555 1_555
H19_4 C39_4 1_555 1_555
C40_4 C35_4 1_555 1_555
H20_4 C40_4 1_555 1_555
C41_4 C38_4 1_555 1_555
O23_2 C41_4 1_555 1_555
O26_2 C41_4 1_555 1_555
C42_4 C20_4 1_555 1_555
C43_4 C42_4 1_555 1_555
H21_4 C43_4 1_555 1_555
C44_4 C43_4 1_555 1_555
H22_4 C44_4 1_555 1_555
C45_4 C44_4 1_555 1_555
C46_4 C45_4 1_555 1_555
H23_4 C46_4 1_555 1_555
C47_4 C42_4 1_555 1_555
H24_4 C47_4 1_555 1_555
C48_4 C45_4 1_555 1_555
O29_2 C48_4 1_555 1_555
O33 C48_4 1_555 1_555
Cl1_4 N1_4 1_555 1_555
C120_4 C117_4 1_555 1_555
C4_4 N1_4 1_555 1_555
C9_4 N2_4 1_555 1_555
C14_4 N3_4 1_555 1_555
C19_4 C20_4 1_555 1_555
C19_4 N4_4 1_555 1_555
N2_4 Cl1_4 1_555 1_555
N3_4 Cl1_4 1_555 1_555
N4_4 Cl1_4 1_555 1_555
C32_4 C33_4 1_555 1_555
C39_4 C40_4 1_555 1_555
C46_4 C47_4 1_555 1_555
C120_4 O24_2 1_555 1_555
C120_4 O27_2 1_555 1_555

#END
