
###############################################################################
#
# This file contains modified crystal structure data generated from the
# MOF subset of the Cambridge Structural Database (CSD) v543 
# hosted by the Cambridge Crystallographic Data Centre (CCDC).
#
# This work is licensed under the Creative Commons
# Attribution-NonCommercial-ShareAlike 4.0 International License.
# To view a copy of this license, visit
# http://creativecommons.org/licenses/by-nc-sa/4.0/
# or send a letter to
# Creative Commons, PO Box 1866, Mountain View, CA 94042, USA.
#
# CIF created using the CSD Python API on 29 September 2022
# The structure has been converted into the P1 space group
# The structure has a 3D framework
# The original CSD entry VETTOE is in the triclinic crystal system
# The framework has been calculated to contain at least 10.0% void space
# The void calculation uses a probe of radius 1.32A, grid spacing 0.4
#
###############################################################################

data_VETTOE
_chemical_formula_moiety         '(C50 H34 N4 O16 Pr2)n'
_symmetry_cell_setting           triclinic
_symmetry_space_group_name_H-M   'P 1'
_symmetry_Int_Tables_number      1
_space_group_name_Hall           'P 1'
loop_
_symmetry_equiv_pos_site_id
_symmetry_equiv_pos_as_xyz
1 x,y,z
_cell_length_a                   9.4902(7)
_cell_length_b                   13.9123(13)
_cell_length_c                   16.7437(14)
_cell_angle_alpha                83.044(3)
_cell_angle_beta                 75.802(5)
_cell_angle_gamma                88.309(5)
_cell_volume                     2127.38
loop_
_atom_site_label
_atom_site_type_symbol
_atom_site_fract_x
_atom_site_fract_y
_atom_site_fract_z
_atom_site_U_iso_or_equiv
_atom_site_thermal_displace_type
C1 C 0.1830(6) 0.3269(4) 0.0502(3) 0.0488 Uani
C2 C 0.2688(7) 0.2481(5) 0.0162(4) 0.0613 Uani
H1 H 0.3151 0.1994 0.0456 0.0740 Uiso
C10 C 0.1529(6) 0.3444(4) 0.1328(3) 0.0436 Uani
C11 C 0.2165(6) 0.2772(4) 0.1910(3) 0.0457 Uani
C12 C 0.1294(6) 0.2135(5) 0.2514(4) 0.0559 Uani
H6 H 0.0282 0.2107 0.2549 0.0670 Uiso
C13 C 0.1890(7) 0.1532(5) 0.3075(4) 0.0573 Uani
H7 H 0.1276 0.1095 0.3484 0.0690 Uiso
C14 C 0.3335(5) 0.1556(4) 0.3047(3) 0.0439 Uani
C15 C 0.4221(6) 0.2187(5) 0.2438(4) 0.0642 Uani
H8 H 0.5228 0.2225 0.2416 0.0770 Uiso
C16 C 0.3638(6) 0.2763(5) 0.1859(4) 0.0668 Uani
H9 H 0.4266 0.3157 0.1421 0.0800 Uiso
C17 C 0.3956(6) 0.0944(4) 0.3692(3) 0.0452 Uani
O1 O 0.3145(4) 0.0307(3) 0.4161(2) 0.0457 Uani
O2 O 0.5247(4) 0.1139(3) 0.3707(2) 0.0531 Uani
H14 H 0.1273 0.0124 0.7093 0.0930 Uiso
Pr3 Pr 0.70540(3) 0.06130(2) 0.446731(16) 0.0397 Uani
C33 C 0.0362(8) 0.4396(5) 0.2516(4) 0.0678 Uani
H21 H 0.0710 0.4033 0.2946 0.0810 Uiso
C34 C 0.0669(6) 0.4204(4) 0.1663(3) 0.0501 Uani
O14 O 0.4224(4) 0.0855(3) 0.5550(2) 0.0498 Uani
O23 O 0.0853(4) 0.0536(3) 0.5648(2) 0.0504 Uani
C3 C 0.2715(7) 0.2560(5) 0.9353(4) 0.0589 Uani
H2 H 0.3205 0.2140 0.8968 0.0710 Uiso
C4 C 0.1867(6) 0.3397(4) 0.9171(3) 0.0508 Uani
C5 C 0.1610(6) 0.3697(4) 0.8389(3) 0.0488 Uani
C6 C 0.0735(6) 0.4490(4) 0.8209(3) 0.0496 Uani
C7 C 0.0500(7) 0.4825(5) 0.7406(4) 0.0667 Uani
H3 H 0.0888 0.4544 0.6908 0.0800 Uiso
N1 N 0.1337(5) 0.3818(3) 0.9881(3) 0.0463 Uani
N2 N 0.0029(5) 0.5106(3) 0.8752(3) 0.0464 Uani
H5 H 0.0024 0.5066 0.9281 0.0560 Uiso
C18 C 0.2368(6) 0.3171(4) 0.7688(3) 0.0499 Uani
C19 C 0.3847(8) 0.3339(6) 0.7342(5) 0.0749 Uani
H10 H 0.4340 0.3815 0.7533 0.0900 Uiso
C20 C 0.4599(7) 0.2813(6) 0.6717(5) 0.0726 Uani
H11 H 0.5611 0.2923 0.6497 0.0870 Uiso
C21 C 0.3911(6) 0.2133(4) 0.6410(3) 0.0446 Uani
C22 C 0.2445(6) 0.1979(5) 0.6739(4) 0.0605 Uani
H12 H 0.1946 0.1521 0.6532 0.0730 Uiso
C23 C 0.1696(7) 0.2496(5) 0.7374(4) 0.0633 Uani
H13 H 0.0687 0.2378 0.7597 0.0760 Uiso
C24 C 0.4794(6) 0.1572(4) 0.5760(3) 0.0468 Uani
O4 O 0.6059(4) 0.1835(3) 0.5432(2) 0.0540 Uani
Pr1 Pr 0.29460(3) 0.93870(2) 0.553269(16) 0.0397 Uani
O5 O 0.0879(4) 0.8886(3) 0.4973(2) 0.0453 Uani
C25 C 0.0005(5) 0.9529(4) 0.4800(3) 0.0421 Uani
O7 O 0.1794(5) 0.9524(3) 0.7043(3) 0.0617 Uiso
H15 H 0.2537 0.9505 0.7344 0.0930 Uiso
O8 O 0.2117(5) 0.7735(3) 0.6253(3) 0.0608 Uiso
H16 H 0.1581 0.7432 0.5935 0.0910 Uiso
H17 H 0.2951 0.7348 0.6304 0.0910 Uiso
O11 O 0.4753(4) 0.8861(3) 0.6293(2) 0.0531 Uani
O15 O 0.5776(4) 0.9145(3) 0.4450(2) 0.0498 Uani
O19 O 0.3941(4) 0.8165(3) 0.4568(2) 0.0540 Uani
O22 O 0.9121(4) 0.1114(3) 0.5027(2) 0.0453 Uani
O25 O 0.8206(5) 0.0476(3) 0.2957(3) 0.0617 Uiso
H32 H 0.7463 0.0495 0.2656 0.0930 Uiso
O26 O 0.7883(5) 0.2265(3) 0.3747(3) 0.0608 Uiso
H33 H 0.8419 0.2568 0.4065 0.0910 Uiso
H34 H 0.7049 0.2652 0.3696 0.0910 Uiso
C28 C 0.7285(7) 0.7440(5) 0.0647(4) 0.0589 Uani
H19 H 0.6795 0.7860 0.1032 0.0710 Uiso
C29 C 0.8133(6) 0.6603(4) 0.0829(3) 0.0508 Uani
C30 C 0.8390(6) 0.6303(4) 0.1611(3) 0.0488 Uani
C31 C 0.9265(6) 0.5510(4) 0.1791(3) 0.0496 Uani
C32 C 0.9500(7) 0.5175(5) 0.2594(4) 0.0667 Uani
H20 H 0.9112 0.5456 0.3092 0.0800 Uiso
N3 N 0.8663(5) 0.6182(3) 0.0119(3) 0.0463 Uani
N4 N 0.9971(5) 0.4894(3) 0.1248(3) 0.0464 Uani
H22 H 0.9976 0.4934 0.0719 0.0560 Uiso
C43 C 0.7632(6) 0.6829(4) 0.2312(3) 0.0499 Uani
C44 C 0.6153(8) 0.6661(6) 0.2658(5) 0.0749 Uani
H27 H 0.5660 0.6185 0.2467 0.0900 Uiso
C45 C 0.5401(7) 0.7187(6) 0.3283(5) 0.0726 Uani
H28 H 0.4389 0.7077 0.3503 0.0870 Uiso
C46 C 0.6089(6) 0.7867(4) 0.3590(3) 0.0446 Uani
C47 C 0.7555(6) 0.8021(5) 0.3261(4) 0.0605 Uani
H29 H 0.8054 0.8479 0.3468 0.0730 Uiso
C48 C 0.8304(7) 0.7504(5) 0.2626(4) 0.0633 Uani
H30 H 0.9313 0.7622 0.2403 0.0760 Uiso
C49 C 0.5206(6) 0.8428(4) 0.4240(3) 0.0468 Uani
C50 C 0.9995(5) 0.0471(4) 0.5200(3) 0.0421 Uani
C8 C 0.9638(8) 0.5604(5) 0.7484(4) 0.0678 Uani
H4 H 0.9290 0.5967 0.7054 0.0810 Uiso
C9 C 0.9331(6) 0.5796(4) 0.8337(3) 0.0501 Uani
C26 C 0.8170(6) 0.6731(4) 0.9498(3) 0.0488 Uani
C27 C 0.7312(7) 0.7519(5) 0.9838(4) 0.0613 Uani
H18 H 0.6849 0.8006 0.9544 0.0740 Uiso
C35 C 0.8471(6) 0.6556(4) 0.8672(3) 0.0436 Uani
C36 C 0.7835(6) 0.7228(4) 0.8090(3) 0.0457 Uani
C37 C 0.8706(6) 0.7865(5) 0.7486(4) 0.0559 Uani
H23 H 0.9718 0.7893 0.7451 0.0670 Uiso
C38 C 0.8110(7) 0.8468(5) 0.6925(4) 0.0573 Uani
H24 H 0.8724 0.8905 0.6516 0.0690 Uiso
C39 C 0.6665(5) 0.8444(4) 0.6953(3) 0.0439 Uani
C40 C 0.5779(6) 0.7813(5) 0.7562(4) 0.0642 Uani
H25 H 0.4772 0.7775 0.7584 0.0770 Uiso
C41 C 0.6362(6) 0.7237(5) 0.8141(4) 0.0668 Uani
H26 H 0.5734 0.6843 0.8579 0.0800 Uiso
C42 C 0.6044(6) 0.9056(4) 0.6308(3) 0.0452 Uani
O9 O 0.6855(4) 0.9693(3) 0.5839(2) 0.0457 Uani
O24 O 0.9147(4) 0.9464(3) 0.4352(2) 0.0504 Uani
H31 H 0.8727 0.9876 0.2907 0.0930 Uiso
loop_
_atom_site_aniso_label
_atom_site_aniso_U_11
_atom_site_aniso_U_22
_atom_site_aniso_U_33
_atom_site_aniso_U_23
_atom_site_aniso_U_13
_atom_site_aniso_U_12
C1 0.049 0.06 0.038 -0.002 -0.017 0.028
C2 0.071 0.068 0.045 -0.004 -0.021 0.046
C10 0.045 0.049 0.038 0.001 -0.018 0.021
C11 0.053 0.058 0.028 -0.003 -0.017 0.023
C12 0.034 0.078 0.053 0.022 -0.021 0.011
C13 0.055 0.065 0.053 0.019 -0.028 0.004
C14 0.035 0.06 0.036 0.005 -0.015 0.02
C15 0.038 0.083 0.068 0.027 -0.024 0.005
C16 0.042 0.094 0.055 0.028 -0.013 0.01
C17 0.046 0.059 0.033 -0.004 -0.018 0.027
O1 0.0435 0.058 0.0346 0.0091 -0.0166 0.0164
O2 0.039 0.072 0.049 0.01 -0.0224 0.0164
Pr3 0.03492 0.0515 0.03323 -0.00044 -0.01375 0.01999
C33 0.089 0.082 0.035 -0.007 -0.026 0.05
C34 0.052 0.064 0.035 0 -0.018 0.027
O14 0.054 0.054 0.05 -0.0155 -0.0274 0.0253
O23 0.046 0.059 0.055 -0.0203 -0.0259 0.0299
C3 0.065 0.067 0.045 -0.01 -0.017 0.04
C4 0.062 0.051 0.039 0 -0.017 0.027
C5 0.053 0.057 0.036 -0.003 -0.014 0.024
C6 0.057 0.059 0.037 -0.011 -0.02 0.027
C7 0.077 0.097 0.032 -0.015 -0.027 0.05
N1 0.054 0.051 0.035 -0.001 -0.018 0.027
N2 0.051 0.058 0.033 -0.005 -0.0192 0.028
C18 0.053 0.062 0.037 -0.01 -0.016 0.025
C19 0.061 0.08 0.086 -0.045 -0.006 0.005
C20 0.052 0.09 0.077 -0.038 -0.004 -0.001
C21 0.042 0.058 0.036 -0.011 -0.014 0.024
C22 0.049 0.068 0.069 -0.027 -0.016 0.02
C23 0.044 0.079 0.066 -0.021 -0.008 0.02
C24 0.054 0.049 0.039 -0.001 -0.019 0.021
O4 0.051 0.057 0.051 -0.0072 -0.0078 0.0152
Pr1 0.03492 0.0515 0.03323 -0.00044 -0.01375 0.01999
O5 0.0383 0.051 0.051 -0.0104 -0.0196 0.0199
C25 0.033 0.06 0.035 -0.006 -0.014 0.021
O11 0.039 0.072 0.049 0.01 -0.0224 0.0164
O15 0.054 0.054 0.05 -0.0155 -0.0274 0.0253
O19 0.051 0.057 0.051 -0.0072 -0.0078 0.0152
O22 0.0383 0.051 0.051 -0.0104 -0.0196 0.0199
C28 0.065 0.067 0.045 -0.01 -0.017 0.04
C29 0.062 0.051 0.039 0 -0.017 0.027
C30 0.053 0.057 0.036 -0.003 -0.014 0.024
C31 0.057 0.059 0.037 -0.011 -0.02 0.027
C32 0.077 0.097 0.032 -0.015 -0.027 0.05
N3 0.054 0.051 0.035 -0.001 -0.018 0.027
N4 0.051 0.058 0.033 -0.005 -0.0192 0.028
C43 0.053 0.062 0.037 -0.01 -0.016 0.025
C44 0.061 0.08 0.086 -0.045 -0.006 0.005
C45 0.052 0.09 0.077 -0.038 -0.004 -0.001
C46 0.042 0.058 0.036 -0.011 -0.014 0.024
C47 0.049 0.068 0.069 -0.027 -0.016 0.02
C48 0.044 0.079 0.066 -0.021 -0.008 0.02
C49 0.054 0.049 0.039 -0.001 -0.019 0.021
C50 0.033 0.06 0.035 -0.006 -0.014 0.021
C8 0.089 0.082 0.035 -0.007 -0.026 0.05
C9 0.052 0.064 0.035 0 -0.018 0.027
C26 0.049 0.06 0.038 -0.002 -0.017 0.028
C27 0.071 0.068 0.045 -0.004 -0.021 0.046
C35 0.045 0.049 0.038 0.001 -0.018 0.021
C36 0.053 0.058 0.028 -0.003 -0.017 0.023
C37 0.034 0.078 0.053 0.022 -0.021 0.011
C38 0.055 0.065 0.053 0.019 -0.028 0.004
C39 0.035 0.06 0.036 0.005 -0.015 0.02
C40 0.038 0.083 0.068 0.027 -0.024 0.005
C41 0.042 0.094 0.055 0.028 -0.013 0.01
C42 0.046 0.059 0.033 -0.004 -0.018 0.027
O9 0.0435 0.058 0.0346 0.0091 -0.0166 0.0164
O24 0.046 0.059 0.055 -0.0203 -0.0259 0.0299
loop_
_geom_bond_atom_site_label_1
_geom_bond_atom_site_label_2
_geom_bond_site_symmetry_1
_geom_bond_site_symmetry_2
C1 C2 1_555 1_555
C2 H1 1_555 1_555
C10 C1 1_555 1_555
C11 C10 1_555 1_555
C12 C11 1_555 1_555
H6 C12 1_555 1_555
C13 C12 1_555 1_555
H7 C13 1_555 1_555
C14 C13 1_555 1_555
C15 C14 1_555 1_555
H8 C15 1_555 1_555
C16 C11 1_555 1_555
H9 C16 1_555 1_555
C17 C14 1_555 1_555
O1 C17 1_555 1_555
O2 C17 1_555 1_555
Pr3 O2 1_555 1_555
H21 C33 1_555 1_555
C34 C10 1_555 1_555
C15 C16 1_555 1_555
Pr3 O14 1_555 1_555
C33 C34 1_555 1_555
H2 C3 1_555 1_555
C4 C3 1_555 1_555
C5 C4 1_555 1_555
C6 C5 1_555 1_555
C7 C6 1_555 1_555
H3 C7 1_555 1_555
N2 C6 1_555 1_555
H5 N2 1_555 1_555
C18 C5 1_555 1_555
C19 C18 1_555 1_555
H10 C19 1_555 1_555
C20 C19 1_555 1_555
H11 C20 1_555 1_555
C21 C20 1_555 1_555
C22 C21 1_555 1_555
H12 C22 1_555 1_555
C23 C18 1_555 1_555
H13 C23 1_555 1_555
C24 C21 1_555 1_555
O14 C24 1_555 1_555
O4 C24 1_555 1_555
C4 N1 1_555 1_555
C22 C23 1_555 1_555
O4 Pr3 1_555 1_555
O5 Pr1 1_555 1_555
C25 O5 1_555 1_555
O7 Pr1 1_555 1_555
H15 O7 1_555 1_555
O8 Pr1 1_555 1_555
H16 O8 1_555 1_555
H17 O8 1_555 1_555
O11 Pr1 1_555 1_555
O15 Pr1 1_555 1_555
O19 Pr1 1_555 1_555
O22 Pr3 1_555 1_555
O25 Pr3 1_555 1_555
H32 O25 1_555 1_555
O26 Pr3 1_555 1_555
H33 O26 1_555 1_555
H34 O26 1_555 1_555
H19 C28 1_555 1_555
C29 C28 1_555 1_555
C30 C29 1_555 1_555
C31 C30 1_555 1_555
C32 C31 1_555 1_555
H20 C32 1_555 1_555
N4 C31 1_555 1_555
H22 N4 1_555 1_555
C43 C30 1_555 1_555
C44 C43 1_555 1_555
H27 C44 1_555 1_555
C45 C44 1_555 1_555
H28 C45 1_555 1_555
C46 C45 1_555 1_555
C47 C46 1_555 1_555
H29 C47 1_555 1_555
C48 C43 1_555 1_555
H30 C48 1_555 1_555
C49 C46 1_555 1_555
O15 C49 1_555 1_555
C29 N3 1_555 1_555
C47 C48 1_555 1_555
C49 O19 1_555 1_555
O22 C50 1_555 1_555
H4 C8 1_555 1_555
C9 C8 1_555 1_555
C26 C27 1_555 1_555
C27 H18 1_555 1_555
C35 C9 1_555 1_555
C36 C35 1_555 1_555
C37 C36 1_555 1_555
H23 C37 1_555 1_555
C38 C37 1_555 1_555
H24 C38 1_555 1_555
C39 C38 1_555 1_555
C40 C39 1_555 1_555
H25 C40 1_555 1_555
C41 C36 1_555 1_555
H26 C41 1_555 1_555
C42 C39 1_555 1_555
O9 C42 1_555 1_555
O11 C42 1_555 1_555
C26 C35 1_555 1_555
C40 C41 1_555 1_555

#END
