
###############################################################################
#
# This file contains modified crystal structure data generated from the
# MOF subset of the Cambridge Structural Database (CSD) v543 
# hosted by the Cambridge Crystallographic Data Centre (CCDC).
#
# This work is licensed under the Creative Commons
# Attribution-NonCommercial-ShareAlike 4.0 International License.
# To view a copy of this license, visit
# http://creativecommons.org/licenses/by-nc-sa/4.0/
# or send a letter to
# Creative Commons, PO Box 1866, Mountain View, CA 94042, USA.
#
# CIF created using the CSD Python API on 29 September 2022
# The structure has been converted into the P1 space group
# The structure has a 3D framework
# The original CSD entry VETVAS is in the triclinic crystal system
# The framework has been calculated to contain at least 10.0% void space
# The void calculation uses a probe of radius 1.32A, grid spacing 0.4
#
###############################################################################

data_VETVAS
_chemical_formula_moiety         '(C302 H200 N28 Nd8 O60)n'
_symmetry_cell_setting           triclinic
_symmetry_space_group_name_H-M   'P 1'
_symmetry_Int_Tables_number      1
_space_group_name_Hall           'P 1'
loop_
_symmetry_equiv_pos_site_id
_symmetry_equiv_pos_as_xyz
1 x,y,z
_cell_length_a                   16.1530(6)
_cell_length_b                   16.1512(6)
_cell_length_c                   31.2991(10)
_cell_angle_alpha                99.842(2)
_cell_angle_beta                 99.877(2)
_cell_angle_gamma                96.6724(18)
_cell_volume                     7836.64
loop_
_atom_site_label
_atom_site_type_symbol
_atom_site_fract_x
_atom_site_fract_y
_atom_site_fract_z
C91 C 0.1212(8) 0.4904(8) 0.2724(4)
H49 H 0.1780 0.5083 0.2881
C92 C 0.0619(8) 0.5473(7) 0.2714(4)
H50 H 0.0795 0.6050 0.2858
C93 C 0.0941(7) 0.4055(7) 0.2495(3)
C94 C 0.0089(7) 0.3793(7) 0.2282(4)
C96 C 0.1569(8) 0.3432(8) 0.2496(4)
O15 O 0.2313(5) 0.3693(5) 0.2701(2)
O16 O 0.1290(5) 0.2683(5) 0.2291(2)
Nd6 Nd 0.18569(4) 0.14286(4) 0.199710(19)
Nd10 Nd 0.35685(4) 0.31423(4) 0.300270(19)
Nd15 Nd 0.02035(4) 0.14115(4) 0.086370(19)
H17 H 0.3217 0.0478 0.1217
C34 C 0.1513(8) 0.0265(7) 0.0928(4)
O3 O 0.1758(5) 0.0947(4) 0.1205(2)
O4 O 0.0771(6) 0.0047(6) 0.0739(3)
C77 C 0.5838(8) 0.0130(7) 0.2785(4)
H41 H 0.6364 0.0273 0.2990
C78 C 0.5282(7) 0.0718(7) 0.2785(4)
H42 H 0.5437 0.1261 0.2974
C79 C 0.4487(8) 0.0502(7) 0.2502(3)
C82 C 0.3899(8) 0.1134(8) 0.2506(4)
O11 O 0.3154(5) 0.0892(5) 0.2253(2)
O12 O 0.4106(5) 0.1843(5) 0.2743(2)
H64 H 0.0073 0.1655 0.2428
O17 O 0.0352(5) 0.1265(5) 0.1664(2)
O27 O 0.1166(7) 0.2596(6) 0.1391(3)
H93 H 0.1277 0.3067 0.1249
H94 H 0.1688 0.2393 0.1486
O31 O 0.2969(5) 0.2498(5) 0.2025(2)
O35 O 0.0515(12) 0.1283(10) 0.0120(5)
O43 O 0.1498(5) 0.0938(5) 0.2642(3)
Nd3 Nd 0.35878(4) 0.47966(4) 0.413620(19)
C1 C 0.6433(7) 0.5333(7) 0.1138(3)
C2 C 0.6733(8) 0.5150(8) 0.1558(4)
H1 H 0.7185 0.4837 0.1626
C3 C 0.6270(7) 0.5496(7) 0.1850(4)
H2 H 0.6343 0.5476 0.2156
C4 C 0.5650(7) 0.5894(7) 0.1604(3)
C5 C 0.4948(7) 0.6222(7) 0.1750(3)
C6 C 0.4420(7) 0.6674(6) 0.1517(4)
C7 C 0.3733(7) 0.7061(7) 0.1671(3)
H3 H 0.3525 0.6986 0.1930
C8 C 0.3431(7) 0.7555(7) 0.1382(3)
H4 H 0.2989 0.7892 0.1399
C9 C 0.3952(7) 0.7444(7) 0.1039(3)
C10 C 0.3865(7) 0.7894(7) 0.0682(3)
C11 C 0.4268(7) 0.7771(7) 0.0331(3)
C19 C 0.6347(8) 0.5213(7) 0.0331(4)
C20 C 0.6656(7) 0.5006(7) 0.0740(4)
N1 N 0.5778(5) 0.5821(5) 0.1183(3)
H9 H 0.5498 0.6041 0.0974
N2 N 0.4513(6) 0.6901(5) 0.1112(3)
N3 N 0.4806(6) 0.7155(6) 0.0258(3)
H10 H 0.4957 0.6808 0.0436
N4 N 0.5853(5) 0.5856(5) 0.0265(3)
C21 C 0.4756(7) 0.6054(7) 0.2186(3)
C22 C 0.5304(7) 0.6386(7) 0.2581(3)
H11 H 0.5813 0.6754 0.2589
C23 C 0.5109(8) 0.6179(7) 0.2971(4)
H12 H 0.5478 0.6423 0.3246
C24 C 0.4382(7) 0.5621(6) 0.2961(3)
C25 C 0.3830(7) 0.5304(7) 0.2571(3)
H13 H 0.3330 0.4924 0.2562
C26 C 0.4005(7) 0.5539(7) 0.2190(3)
H14 H 0.3601 0.5344 0.1922
C27 C 0.4245(8) 0.5333(8) 0.3378(4)
O1 O 0.3725(5) 0.4640(5) 0.3332(2)
O2 O 0.4602(5) 0.5745(5) 0.3748(2)
C28 C 0.3289(8) 0.8536(8) 0.0705(3)
C29 C 0.2439(8) 0.8333(8) 0.0491(4)
H15 H 0.2239 0.7798 0.0299
C30 C 0.1890(7) 0.8914(7) 0.0560(4)
H16 H 0.1313 0.8779 0.0411
C31 C 0.2174(8) 0.9707(7) 0.0850(3)
C32 C 0.3015(7) 0.9928(8) 0.1041(4)
C33 C 0.3587(8) 0.9336(8) 0.0978(4)
H18 H 0.4168 0.9480 0.1119
C42 C 0.7268(7) 0.4372(7) 0.0755(4)
C43 C 0.7101(9) 0.3636(8) 0.0902(5)
H23 H 0.6573 0.3511 0.0990
C44 C 0.7664(9) 0.3072(9) 0.0927(5)
H24 H 0.7531 0.2566 0.1034
C45 C 0.8442(8) 0.3243(9) 0.0794(5)
C46 C 0.8608(9) 0.3957(8) 0.0612(4)
H25 H 0.9111 0.4058 0.0499
C47 C 0.8011(9) 0.4527(9) 0.0599(5)
H26 H 0.8120 0.5025 0.0482
C48 C 0.9053(9) 0.2615(10) 0.0821(5)
O7 O 0.9037(7) 0.2123(7) 0.1081(4)
O8 O 0.9602(6) 0.2589(6) 0.0565(3)
C49 C 0.8947(7) 0.6149(7) 0.2106(3)
C50 C 0.9234(7) 0.5913(7) 0.1702(3)
H27 H 0.9587 0.5494 0.1640
C51 C 0.8913(8) 0.6395(7) 0.1427(4)
H28 H 0.9020 0.6396 0.1138
C52 C 0.8388(7) 0.6905(7) 0.1637(3)
C53 C 0.7908(7) 0.7461(7) 0.1455(4)
C54 C 0.7311(7) 0.7904(7) 0.1626(3)
C55 C 0.6838(7) 0.8488(7) 0.1425(4)
H29 H 0.6870 0.8633 0.1146
C56 C 0.6341(8) 0.8794(7) 0.1701(3)
H30 H 0.5929 0.9157 0.1644
C57 C 0.6553(7) 0.8469(6) 0.2096(3)
C58 C 0.6268(7) 0.8725(7) 0.2493(4)
C59 C 0.6526(7) 0.8452(7) 0.2898(3)
C60 C 0.6209(7) 0.8637(7) 0.3298(4)
H31 H 0.5830 0.9032 0.3353
C61 C 0.6527(7) 0.8171(7) 0.3581(3)
H32 H 0.6403 0.8161 0.3866
C62 C 0.7093(7) 0.7686(7) 0.3374(3)
C63 C 0.7550(7) 0.7093(7) 0.3555(3)
C64 C 0.8097(7) 0.6615(7) 0.3353(3)
C65 C 0.8600(7) 0.6067(7) 0.3570(3)
H33 H 0.8597 0.5958 0.3859
C66 C 0.9074(8) 0.5737(8) 0.3287(4)
H34 H 0.9482 0.5368 0.3339
C67 C 0.8838(6) 0.6058(7) 0.2890(3)
C68 C 0.9159(7) 0.5831(7) 0.2503(4)
N5 N 0.8407(6) 0.6727(6) 0.2052(3)
H35 H 0.8122 0.6946 0.2247
N6 N 0.7135(5) 0.7906(5) 0.2043(3)
N7 N 0.7075(5) 0.7856(5) 0.2958(3)
H36 H 0.7359 0.7630 0.2763
N8 N 0.8260(5) 0.6607(6) 0.2941(3)
C69 C 0.8139(8) 0.7649(8) 0.1021(4)
C70 C 0.8848(9) 0.8251(8) 0.1039(4)
H37 H 0.9166 0.8556 0.1316
C71 C 0.9080(9) 0.8396(8) 0.0656(5)
H38 H 0.9569 0.8796 0.0671
C72 C 0.8628(10) 0.7982(9) 0.0255(5)
C73 C 0.7902(9) 0.7372(9) 0.0226(4)
C74 C 0.7664(9) 0.7219(9) 0.0621(4)
H40 H 0.7177 0.6819 0.0611
C76 C 0.5673(7) 0.9334(8) 0.2502(4)
C80 C 0.4299(7) 0.9724(7) 0.2215(4)
H43 H 0.3764 0.9567 0.2019
C81 C 0.4898(8) 0.9176(7) 0.2216(4)
H44 H 0.4766 0.8657 0.2005
C83 C 0.7352(7) 0.6878(7) 0.3980(4)
C84 C 0.6769(9) 0.6151(9) 0.3964(4)
H45 H 0.6489 0.5820 0.3685
C85 C 0.6595(8) 0.5909(9) 0.4342(4)
H46 H 0.6173 0.5436 0.4326
C86 C 0.7043(10) 0.6361(10) 0.4750(5)
C87 C 0.7604(9) 0.7081(9) 0.4766(4)
H47 H 0.7867 0.7413 0.5048
C88 C 0.7811(9) 0.7355(8) 0.4385(4)
H48 H 0.8232 0.7829 0.4403
C89 C 0.6888(12) 0.6148(12) 0.5186(7)
O13 O 0.6305(12) 0.5523(12) 0.5134(5)
O14 O 0.7288(12) 0.6442(9) 0.5525(4)
C90 C 0.9764(8) 0.5205(7) 0.2494(4)
H51 H 0.9896 0.3217 0.2141
C95 C 0.9527(8) 0.4387(7) 0.2279(4)
H52 H 0.8960 0.4212 0.2120
H53 H 0.0136 0.7788 0.3354
C114 C 0.0164(7) 0.8472(8) 0.5095(4)
H60 H 0.0649 0.8196 0.5151
C116 C 0.0000(7) 0.8362(7) 0.4269(4)
C138 C 0.0623(8) 0.7730(7) 0.4255(4)
C139 C 0.1341(9) 0.7904(9) 0.4096(5)
H75 H 0.1457 0.8429 0.4004
C140 C 0.1897(10) 0.7336(8) 0.4067(5)
H76 H 0.2387 0.7468 0.3947
C141 C 0.1774(8) 0.6581(8) 0.4205(4)
C142 C 0.1046(10) 0.6385(10) 0.4387(5)
H77 H 0.0953 0.5873 0.4494
C143 C 0.0455(9) 0.6981(8) 0.4404(4)
C144 C 0.2397(10) 0.5944(9) 0.4177(5)
O23 O 0.2409(7) 0.5407(7) 0.4445(4)
O24 O 0.2872(7) 0.5957(7) 0.3911(3)
O25 O 0.5138(5) 0.3607(5) 0.3203(2)
C145 C 0.5660(9) 0.3868(8) 0.2993(4)
H79 H 0.5439 0.3940 0.2702
N13 N 0.6469(7) 0.4053(7) 0.3125(3)
C146 C 0.6890(9) 0.3945(11) 0.3551(5)
H80 H 0.7378 0.4395 0.3666
H81 H 0.7085 0.3390 0.3523
H82 H 0.6492 0.3977 0.3755
C147 C 0.7041(9) 0.4403(9) 0.2834(4)
H83 H 0.7510 0.4071 0.2818
H84 H 0.7271 0.4999 0.2962
H85 H 0.6709 0.4362 0.2536
O26 O 0.1396(5) 0.9865(5) 0.1794(2)
C148 C 0.1130(8) 0.9359(10) 0.2005(4)
H86 H 0.1049 0.9588 0.2293
N14 N 0.0946(7) 0.8536(6) 0.1875(3)
C149 C 0.0599(11) 0.7955(10) 0.2164(5)
H87 H 0.0018 0.7688 0.2023
H88 H 0.0960 0.7514 0.2198
H89 H 0.0597 0.8292 0.2455
C150 C 0.1040(10) 0.8116(9) 0.1452(5)
H90 H 0.0997 0.8510 0.1247
H91 H 0.1596 0.7923 0.1477
H92 H 0.0591 0.7625 0.1343
O28 O 0.2411(6) 0.3827(6) 0.3606(3)
H95 H 0.1916 0.3768 0.3736
H96 H 0.2589 0.3282 0.3536
O30 O 0.4593(7) 0.5942(7) 0.4679(3)
H99 H 0.4281 0.6373 0.4792
H100 H 0.4870 0.5712 0.4919
Nd13 Nd 0.64122(4) 0.52034(4) 0.586380(19)
O32 O 0.4070(5) 0.3507(5) 0.2358(2)
O37 O 0.3695(12) 0.4477(12) 0.4866(5)
O40 O 0.4033(5) 0.3230(5) 0.3786(2)
O41 O 0.4961(6) 0.4227(6) 0.4268(3)
O42 O 0.2502(5) 0.2025(5) 0.2971(2)
C12 C 0.4211(7) 0.8207(8) 0.9965(4)
H5 H 0.3898 0.8661 0.9927
C13 C 0.4687(7) 0.7853(7) 0.9682(4)
H6 H 0.4760 0.8019 0.9412
C14 C 0.5060(7) 0.7188(7) 0.9859(3)
C15 C 0.5507(7) 0.6624(6) 0.9658(3)
C16 C 0.5840(7) 0.5955(7) 0.9833(3)
C17 C 0.6228(7) 0.5316(7) 0.9608(4)
H7 H 0.6270 0.5237 0.9305
C18 C 0.6528(8) 0.4836(8) 0.9898(4)
H8 H 0.6802 0.4352 0.9836
C35 C 0.5718(7) 0.6744(8) 0.9222(4)
C36 C 0.5279(7) 0.6213(7) 0.8840(4)
H19 H 0.4830 0.5787 0.8851
C37 C 0.5495(8) 0.6302(7) 0.8435(4)
H20 H 0.5188 0.5936 0.8171
C38 C 0.6149(7) 0.6913(8) 0.8414(4)
C39 C 0.6577(8) 0.7474(8) 0.8797(4)
H21 H 0.7012 0.7913 0.8784
C40 C 0.6358(8) 0.7383(8) 0.9198(4)
H22 H 0.6649 0.7763 0.9461
C41 C 0.6376(8) 0.6963(7) 0.7976(4)
O5 O 0.7031(5) 0.7502(5) 0.7975(2)
O6 O 0.5930(5) 0.6493(5) 0.7642(2)
H39 H 0.7585 0.7075 0.9946
C75 C 0.8878(12) 0.8107(12) 0.9839(6)
O9 O 0.8580(8) 0.7773(10) 0.9495(4)
O10 O 0.9485(12) 0.8717(10) 0.9880(5)
Nd5 Nd 0.81431(4) 0.85714(4) 0.800290(19)
Nd8 Nd 0.64315(4) 0.68577(4) 0.699730(19)
Nd16 Nd 0.97965(4) 0.85885(4) 0.913630(19)
C101 C 0.8778(7) 0.0047(7) 0.3246(3)
C102 C 0.8336(7) 0.0583(7) 0.3491(4)
C103 C 0.7924(7) 0.1269(7) 0.3322(4)
H55 H 0.7988 0.1467 0.3058
C104 C 0.7433(7) 0.1566(7) 0.3615(3)
H56 H 0.7093 0.2006 0.3598
C105 C 0.7551(7) 0.1050(6) 0.3964(3)
C106 C 0.7130(7) 0.1144(7) 0.4315(3)
C107 C 0.7255(8) 0.0728(7) 0.4678(4)
C108 C 0.6805(7) 0.0780(8) 0.5034(4)
H57 H 0.6349 0.1093 0.5068
C109 C 0.7144(8) 0.0305(8) 0.5314(4)
H58 H 0.6969 0.0231 0.5581
N10 N 0.8085(5) 0.0483(5) 0.3886(3)
N11 N 0.7827(6) 0.0192(5) 0.4745(3)
H62 H 0.8161 0.0031 0.4562
C117 C 0.8939(7) 0.0246(7) 0.2812(3)
C118 C 0.9470(7) 0.0999(7) 0.2819(3)
H63 H 0.9676 0.1398 0.3088
C119 C 0.9694(6) 0.1157(7) 0.2424(3)
C120 C 0.9370(7) 0.0597(7) 0.2029(4)
C123 C 0.9660(8) 0.0766(8) 0.1623(4)
O18 O 0.9246(5) 0.0388(5) 0.1246(3)
C124 C 0.6460(7) 0.1702(7) 0.4291(3)
C125 C 0.6679(9) 0.2562(7) 0.4508(4)
H67 H 0.7216 0.2753 0.4698
C126 C 0.6100(7) 0.3135(7) 0.4441(3)
H68 H 0.6244 0.3713 0.4587
C127 C 0.5316(7) 0.2852(7) 0.4161(3)
C128 C 0.5072(8) 0.2001(8) 0.3962(4)
H69 H 0.4520 0.1808 0.3787
C129 C 0.5662(7) 0.1423(7) 0.4025(4)
H70 H 0.5509 0.0842 0.3885
C130 C 0.4716(8) 0.3494(8) 0.4069(4)
H71 H 0.9233 0.0147 0.6142
O29 O 0.9044(7) 0.0409(7) 0.0316(4)
H98 H 0.9250 0.0209 0.0054
C97 C 0.9667(7) 0.8591(7) 0.3864(4)
C98 C 0.9841(8) 0.8252(8) 0.3428(4)
C99 C 0.9496(7) 0.8735(7) 0.3153(4)
H54 H 0.9507 0.8668 0.2847
C100 C 0.9111(7) 0.9365(7) 0.3398(4)
C110 C 0.7809(7) 0.9932(7) 0.5143(3)
C111 C 0.8388(7) 0.9501(7) 0.5348(4)
C112 C 0.9063(7) 0.9160(7) 0.5160(4)
C113 C 0.9699(7) 0.8756(7) 0.5387(4)
H59 H 0.9775 0.8701 0.5688
C115 C 0.9787(8) 0.8663(8) 0.4679(4)
C116_2 C 1.0000(7) 0.8362(7) 0.4269(4)
N9 N 0.9179(5) 0.9222(5) 0.3822(3)
H61 H 0.8950 0.9490 0.4030
N12 N 0.9148(6) 0.9145(6) 0.4729(3)
C121 C 0.8816(8) 0.9875(8) 0.2026(4)
H65 H 0.8585 0.9494 0.1754
C122 C 0.8593(7) 0.9696(7) 0.2414(4)
H66 H 0.8205 0.9202 0.2406
C131 C 0.8264(7) 0.9306(7) 0.5781(3)
C132 C 0.8794(8) 0.9713(8) 0.6156(4)
C133 C 0.8718(7) 0.9515(8) 0.6572(4)
H72 H 0.9088 0.9821 0.6835
C134 C 0.8085(7) 0.8857(7) 0.6588(3)
C135 C 0.7539(7) 0.8435(7) 0.6192(4)
H73 H 0.7102 0.7993 0.6199
C136 C 0.7628(7) 0.8651(8) 0.5799(4)
H74 H 0.7255 0.8356 0.5535
C137 C 0.8009(7) 0.8613(8) 0.7009(4)
O21 O 0.7498(5) 0.7975(5) 0.7029(2)
O22 O 0.8502(5) 0.9062(5) 0.7358(3)
H78 H 0.9953 0.6863 0.4516
H97 H 0.8870 0.9937 0.0445
C97_2 C 0.0333(7) 0.1409(7) 0.6136(4)
C98_2 C 0.0159(8) 0.1748(8) 0.6572(4)
C99_2 C 0.0504(7) 0.1265(7) 0.6847(4)
H54_2 H 0.0493 0.1332 0.7153
C100_2 C 0.0889(7) 0.0635(7) 0.6602(4)
C110_2 C 0.2191(7) 0.0068(7) 0.4857(3)
C111_2 C 0.1612(7) 0.0499(7) 0.4652(4)
C112_2 C 0.0937(7) 0.0840(7) 0.4840(4)
C113_2 C 0.0301(7) 0.1244(7) 0.4613(4)
H59_2 H 0.0225 0.1299 0.4312
C115_2 C 0.0213(8) 0.1337(8) 0.5321(4)
C116_3 C 0.0000(7) 0.1638(7) 0.5731(4)
N9_2 N 0.0821(5) 0.0778(5) 0.6178(3)
H61_2 H 0.1050 0.0510 0.5970
N12_2 N 0.0852(6) 0.0855(6) 0.5271(3)
C121_2 C 0.1184(8) 0.0125(8) 0.7974(4)
H65_2 H 0.1415 0.0506 0.8246
C122_2 C 0.1407(7) 0.0304(7) 0.7586(4)
H66_2 H 0.1795 0.0798 0.7594
C131_2 C 0.1736(7) 0.0694(7) 0.4219(3)
C132_2 C 0.1206(8) 0.0287(8) 0.3844(4)
C133_2 C 0.1282(7) 0.0485(8) 0.3428(4)
H72_2 H 0.0912 0.0179 0.3165
C134_2 C 0.1915(7) 0.1143(7) 0.3412(3)
C135_2 C 0.2461(7) 0.1565(7) 0.3808(4)
H73_2 H 0.2898 0.2007 0.3801
C136_2 C 0.2372(7) 0.1349(8) 0.4201(4)
H74_2 H 0.2745 0.1644 0.4465
C137_2 C 0.1991(7) 0.1387(8) 0.2991(4)
H78_2 H 0.0047 0.3137 0.5484
H97_2 H 0.1130 0.0063 0.9555
C101_2 C 0.1222(7) 0.9953(7) 0.6754(3)
C102_2 C 0.1664(7) 0.9417(7) 0.6509(4)
C103_2 C 0.2076(7) 0.8731(7) 0.6678(4)
H55_2 H 0.2012 0.8533 0.6942
C104_2 C 0.2567(7) 0.8434(7) 0.6385(3)
H56_2 H 0.2907 0.7994 0.6402
C105_2 C 0.2449(7) 0.8950(6) 0.6036(3)
C106_2 C 0.2870(7) 0.8856(7) 0.5685(3)
C107_2 C 0.2745(8) 0.9272(7) 0.5322(4)
C108_2 C 0.3195(7) 0.9220(8) 0.4966(4)
H57_2 H 0.3651 0.8907 0.4932
C109_2 C 0.2856(8) 0.9695(8) 0.4686(4)
H58_2 H 0.3031 0.9769 0.4419
N10_2 N 0.1915(5) 0.9517(5) 0.6114(3)
N11_2 N 0.2173(6) 0.9808(5) 0.5255(3)
H62_2 H 0.1839 0.9969 0.5438
C117_2 C 0.1061(7) 0.9754(7) 0.7188(3)
C118_2 C 0.0530(7) 0.9001(7) 0.7181(3)
H63_2 H 0.0324 0.8602 0.6912
C119_2 C 0.0306(6) 0.8843(7) 0.7576(3)
C120_2 C 0.0630(7) 0.9403(7) 0.7971(4)
C123_2 C 0.0340(8) 0.9234(8) 0.8377(4)
O18_2 O 0.0754(5) 0.9612(5) 0.8754(3)
C124_2 C 0.3540(7) 0.8298(7) 0.5709(3)
C125_2 C 0.3321(9) 0.7438(7) 0.5492(4)
H67_2 H 0.2784 0.7247 0.5302
C126_2 C 0.3900(7) 0.6865(7) 0.5559(3)
H68_2 H 0.3756 0.6287 0.5413
C127_2 C 0.4684(7) 0.7148(7) 0.5839(3)
C128_2 C 0.4928(8) 0.7999(8) 0.6038(4)
H69_2 H 0.5480 0.8192 0.6213
C129_2 C 0.4338(7) 0.8577(7) 0.5975(4)
H70_2 H 0.4491 0.9158 0.6115
C130_2 C 0.5284(8) 0.6506(8) 0.5931(4)
O19 O 0.5967(5) 0.6770(5) 0.6214(2)
O20 O 0.5039(6) 0.5773(6) 0.5732(3)
H71_2 H 0.0767 0.9853 0.3858
O29_2 O 0.0956(7) 0.9591(7) 0.9684(4)
H98_2 H 0.0750 0.9791 0.9946
O33 O 0.0963(7) 0.7877(7) 0.8919(4)
O34 O 0.0398(6) 0.7411(6) 0.9435(3)
C12_2 C 0.5789(7) 0.1793(8) 0.0035(4)
H5_2 H 0.6102 0.1339 0.0073
C13_2 C 0.5313(7) 0.2147(7) 0.0318(4)
H6_2 H 0.5240 0.1981 0.0588
C14_2 C 0.4940(7) 0.2812(7) 0.0141(3)
C15_2 C 0.4493(7) 0.3376(6) 0.0342(3)
C16_2 C 0.4160(7) 0.4045(7) 0.0167(3)
C17_2 C 0.3772(7) 0.4684(7) 0.0392(4)
H7_2 H 0.3730 0.4763 0.0695
C18_2 C 0.3472(8) 0.5164(8) 0.0102(4)
H8_2 H 0.3198 0.5648 0.0164
C35_2 C 0.4282(7) 0.3256(8) 0.0778(4)
C36_2 C 0.4721(7) 0.3787(7) 0.1160(4)
H19_2 H 0.5170 0.4213 0.1149
C37_2 C 0.4505(8) 0.3698(7) 0.1565(4)
H20_2 H 0.4812 0.4064 0.1829
C38_2 C 0.3851(7) 0.3087(8) 0.1586(4)
C39_2 C 0.3423(8) 0.2526(8) 0.1203(4)
H21_2 H 0.2988 0.2087 0.1216
C40_2 C 0.3642(8) 0.2617(8) 0.0802(4)
H22_2 H 0.3351 0.2237 0.0539
C41_2 C 0.3624(8) 0.3037(7) 0.2024(4)
H39_2 H 0.2415 0.2925 0.0054
C75_2 C 0.1122(12) 0.1893(12) 0.0161(6)
O9_2 O 0.1420(8) 0.2227(10) 0.0505(4)
C1_2 C 0.3567(7) 0.4667(7) 0.8862(3)
C2_2 C 0.3267(8) 0.4850(8) 0.8442(4)
H1_2 H 0.2815 0.5163 0.8374
C3_2 C 0.3730(7) 0.4504(7) 0.8150(4)
H2_2 H 0.3657 0.4524 0.7844
C4_2 C 0.4350(7) 0.4106(7) 0.8396(3)
C5_2 C 0.5052(7) 0.3778(7) 0.8250(3)
C6_2 C 0.5580(7) 0.3326(6) 0.8483(4)
C7_2 C 0.6267(7) 0.2939(7) 0.8329(3)
H3_2 H 0.6475 0.3014 0.8070
C8_2 C 0.6569(7) 0.2445(7) 0.8618(3)
H4_2 H 0.7011 0.2108 0.8601
C9_2 C 0.6048(7) 0.2556(7) 0.8961(3)
C10_2 C 0.6135(7) 0.2106(7) 0.9318(3)
C11_2 C 0.5732(7) 0.2229(7) 0.9669(3)
C19_2 C 0.3653(8) 0.4787(7) 0.9669(4)
C20_2 C 0.3344(7) 0.4994(7) 0.9260(4)
N1_2 N 0.4222(5) 0.4179(5) 0.8817(3)
H9_2 H 0.4502 0.3959 0.9026
N2_2 N 0.5487(6) 0.3099(5) 0.8888(3)
N3_2 N 0.5194(6) 0.2845(6) 0.9742(3)
H10_2 H 0.5043 0.3192 0.9564
N4_2 N 0.4147(5) 0.4144(5) 0.9735(3)
C21_2 C 0.5244(7) 0.3946(7) 0.7814(3)
C22_2 C 0.4696(7) 0.3614(7) 0.7419(3)
H11_2 H 0.4187 0.3246 0.7411
C23_2 C 0.4891(8) 0.3821(7) 0.7029(4)
H12_2 H 0.4522 0.3577 0.6754
C24_2 C 0.5618(7) 0.4379(6) 0.7039(3)
C25_2 C 0.6170(7) 0.4696(7) 0.7429(3)
H13_2 H 0.6670 0.5076 0.7438
C26_2 C 0.5995(7) 0.4461(7) 0.7810(3)
H14_2 H 0.6399 0.4656 0.8078
C27_2 C 0.5755(8) 0.4667(8) 0.6622(4)
O1_2 O 0.6275(5) 0.5360(5) 0.6668(2)
O2_2 O 0.5398(5) 0.4255(5) 0.6252(2)
C28_2 C 0.6711(8) 0.1464(8) 0.9295(3)
C29_2 C 0.7561(8) 0.1667(8) 0.9509(4)
H15_2 H 0.7761 0.2202 0.9701
C30_2 C 0.8110(7) 0.1086(7) 0.9440(4)
H16_2 H 0.8687 0.1221 0.9589
C31_2 C 0.7826(8) 0.0293(7) 0.9150(3)
C32_2 C 0.6985(7) 0.0072(8) 0.8959(4)
C33_2 C 0.6413(8) 0.0664(8) 0.9022(4)
H18_2 H 0.5832 0.0520 0.8881
C42_2 C 0.2732(7) 0.5628(7) 0.9245(4)
C43_2 C 0.2899(9) 0.6364(8) 0.9098(5)
H23_2 H 0.3427 0.6489 0.9010
C44_2 C 0.2336(9) 0.6928(9) 0.9073(5)
H24_2 H 0.2469 0.7434 0.8966
C45_2 C 0.1558(8) 0.6757(9) 0.9206(5)
C46_2 C 0.1392(9) 0.6043(8) 0.9388(4)
H25_2 H 0.0889 0.5942 0.9501
C47_2 C 0.1989(9) 0.5473(9) 0.9401(5)
H26_2 H 0.1880 0.4975 0.9518
C48_2 C 0.0947(9) 0.7385(10) 0.9179(5)
C49_2 C 0.1053(7) 0.3851(7) 0.7894(3)
C50_2 C 0.0766(7) 0.4087(7) 0.8298(3)
H27_2 H 0.0413 0.4506 0.8360
C51_2 C 0.1087(8) 0.3605(7) 0.8573(4)
H28_2 H 0.0980 0.3604 0.8862
C52_2 C 0.1612(7) 0.3095(7) 0.8363(3)
C53_2 C 0.2092(7) 0.2539(7) 0.8545(4)
C54_2 C 0.2689(7) 0.2096(7) 0.8374(3)
C55_2 C 0.3162(7) 0.1512(7) 0.8575(4)
H29_2 H 0.3130 0.1367 0.8854
C56_2 C 0.3659(8) 0.1206(7) 0.8299(3)
H30_2 H 0.4071 0.0843 0.8356
C57_2 C 0.3447(7) 0.1531(6) 0.7904(3)
C58_2 C 0.3732(7) 0.1275(7) 0.7507(4)
C59_2 C 0.3474(7) 0.1548(7) 0.7102(3)
C60_2 C 0.3791(7) 0.1363(7) 0.6702(4)
H31_2 H 0.4170 0.0968 0.6647
C61_2 C 0.3473(7) 0.1829(7) 0.6419(3)
H32_2 H 0.3597 0.1839 0.6134
C62_2 C 0.2907(7) 0.2314(7) 0.6626(3)
C63_2 C 0.2450(7) 0.2907(7) 0.6445(3)
C64_2 C 0.1903(7) 0.3385(7) 0.6647(3)
C65_2 C 0.1400(7) 0.3933(7) 0.6430(3)
H33_2 H 0.1403 0.4042 0.6141
C66_2 C 0.0926(8) 0.4263(8) 0.6713(4)
H34_2 H 0.0518 0.4632 0.6661
C67_2 C 0.1162(6) 0.3942(7) 0.7110(3)
C68_2 C 0.0841(7) 0.4169(7) 0.7497(4)
N5_2 N 0.1593(6) 0.3273(6) 0.7948(3)
H35_2 H 0.1878 0.3054 0.7753
N6_2 N 0.2865(5) 0.2094(5) 0.7957(3)
N7_2 N 0.2925(5) 0.2144(5) 0.7042(3)
H36_2 H 0.2641 0.2370 0.7237
N8_2 N 0.1740(5) 0.3393(6) 0.7059(3)
C69_2 C 0.1861(8) 0.2351(8) 0.8979(4)
C70_2 C 0.1152(9) 0.1749(8) 0.8961(4)
H37_2 H 0.0834 0.1444 0.8684
C71_2 C 0.0920(9) 0.1604(8) 0.9344(5)
H38_2 H 0.0431 0.1204 0.9329
C72_2 C 0.1372(10) 0.2018(9) 0.9745(5)
C73_2 C 0.2098(9) 0.2628(9) 0.9774(4)
C74_2 C 0.2336(9) 0.2781(9) 0.9379(4)
H40_2 H 0.2823 0.3181 0.9389
C76_2 C 0.4327(7) 0.0666(8) 0.7498(4)
C80_2 C 0.5701(7) 0.0276(7) 0.7785(4)
H43_2 H 0.6236 0.0433 0.7981
C81_2 C 0.5102(8) 0.0824(7) 0.7784(4)
H44_2 H 0.5234 0.1343 0.7995
C83_2 C 0.2648(7) 0.3122(7) 0.6020(4)
C84_2 C 0.3231(9) 0.3849(9) 0.6036(4)
H45_2 H 0.3511 0.4180 0.6315
C85_2 C 0.3405(8) 0.4091(9) 0.5658(4)
H46_2 H 0.3827 0.4564 0.5674
C86_2 C 0.2957(10) 0.3639(10) 0.5250(5)
C87_2 C 0.2396(9) 0.2919(9) 0.5234(4)
H47_2 H 0.2133 0.2587 0.4952
C88_2 C 0.2189(9) 0.2645(8) 0.5615(4)
H48_2 H 0.1768 0.2171 0.5597
C89_2 C 0.3112(12) 0.3852(12) 0.4814(7)
O14_2 O 0.2712(12) 0.3558(9) 0.4475(4)
C90_2 C 0.0236(8) 0.4795(7) 0.7506(4)
H51_2 H 0.0104 0.6783 0.7859
C95_2 C 0.0473(8) 0.5613(7) 0.7721(4)
H52_2 H 0.1040 0.5788 0.7880
H53_2 H 0.9864 0.2212 0.6646
C114_2 C 0.9836(7) 0.1528(8) 0.4905(4)
H60_2 H 0.9351 0.1804 0.4849
C116_4 C 1.0000(7) 0.1638(7) 0.5731(4)
C138_2 C 0.9377(8) 0.2270(7) 0.5745(4)
C139_2 C 0.8659(9) 0.2096(9) 0.5904(5)
H75_2 H 0.8543 0.1571 0.5996
C140_2 C 0.8103(10) 0.2664(8) 0.5933(5)
H76_2 H 0.7613 0.2532 0.6053
C141_2 C 0.8226(8) 0.3419(8) 0.5795(4)
C142_2 C 0.8954(10) 0.3615(10) 0.5613(5)
H77_2 H 0.9047 0.4127 0.5506
C143_2 C 0.9545(9) 0.3019(8) 0.5596(4)
C144_2 C 0.7603(10) 0.4056(9) 0.5823(5)
O23_2 O 0.7591(7) 0.4593(7) 0.5555(4)
O24_2 O 0.7128(7) 0.4043(7) 0.6089(3)
O25_2 O 0.4862(5) 0.6393(5) 0.6797(2)
C145_2 C 0.4340(9) 0.6132(8) 0.7007(4)
H79_2 H 0.4561 0.6060 0.7298
N13_2 N 0.3531(7) 0.5947(7) 0.6875(3)
C146_2 C 0.3110(9) 0.6055(11) 0.6449(5)
H80_2 H 0.2622 0.5605 0.6334
H81_2 H 0.2915 0.6610 0.6477
H82_2 H 0.3508 0.6023 0.6245
C147_2 C 0.2959(9) 0.5597(9) 0.7166(4)
H83_2 H 0.2490 0.5929 0.7182
H84_2 H 0.2729 0.5001 0.7038
H85_2 H 0.3291 0.5638 0.7464
O26_2 O 0.8604(5) 0.0135(5) 0.8206(2)
C148_2 C 0.8870(8) 0.0641(10) 0.7995(4)
H86_2 H 0.8951 0.0412 0.7707
N14_2 N 0.9054(7) 0.1464(6) 0.8125(3)
C149_2 C 0.9401(11) 0.2045(10) 0.7836(5)
H87_2 H 0.9982 0.2312 0.7977
H88_2 H 0.9040 0.2486 0.7802
H89_2 H 0.9403 0.1708 0.7545
C150_2 C 0.8960(10) 0.1884(9) 0.8548(5)
H90_2 H 0.9003 0.1490 0.8753
H91_2 H 0.8404 0.2077 0.8523
H92_2 H 0.9409 0.2375 0.8657
O28_2 O 0.7589(6) 0.6173(6) 0.6394(3)
H95_2 H 0.8084 0.6232 0.6264
H96_2 H 0.7411 0.6718 0.6464
O30_2 O 0.5407(7) 0.4058(7) 0.5321(3)
H99_2 H 0.5719 0.3627 0.5208
H100_2 H 0.5130 0.4288 0.5081
O36 O 0.5894(5) 0.8157(5) 0.7257(2)
O38 O 0.7687(5) 0.6307(5) 0.7299(2)
H17_2 H 0.6783 0.9522 0.8783
C34_2 C 0.8487(8) 0.9735(7) 0.9072(4)
O3_2 O 0.8242(5) 0.9053(4) 0.8795(2)
O4_2 O 0.9229(6) 0.9953(6) 0.9261(3)
C77_2 C 0.4162(8) 0.9870(7) 0.7215(4)
H41_2 H 0.3636 0.9727 0.7010
C78_2 C 0.4718(7) 0.9282(7) 0.7215(4)
H42_2 H 0.4563 0.8739 0.7026
C79_2 C 0.5513(8) 0.9498(7) 0.7498(3)
C82_2 C 0.6101(8) 0.8866(8) 0.7494(4)
O11_2 O 0.6846(5) 0.9108(5) 0.7747(2)
H64_2 H 0.9927 0.8345 0.7572
O17_2 O 0.9648(5) 0.8735(5) 0.8336(2)
O27_2 O 0.8834(7) 0.7404(6) 0.8609(3)
H93_2 H 0.8723 0.6933 0.8751
H94_2 H 0.8312 0.7607 0.8514
O39 O 0.8710(5) 0.7317(5) 0.7709(2)
C91_2 C 0.8788(8) 0.5096(8) 0.7276(4)
H49_2 H 0.8220 0.4917 0.7119
C92_2 C 0.9381(8) 0.4527(7) 0.7286(4)
H50_2 H 0.9205 0.3950 0.7142
C93_2 C 0.9059(7) 0.5945(7) 0.7505(3)
C94_2 C 0.9911(7) 0.6207(7) 0.7718(4)
C96_2 C 0.8431(8) 0.6568(8) 0.7504(4)
loop_
_geom_bond_atom_site_label_1
_geom_bond_atom_site_label_2
_geom_bond_site_symmetry_1
_geom_bond_site_symmetry_2
C91 H49 1_555 1_555
H50 C92 1_555 1_555
C93 C91 1_555 1_555
C94 C93 1_555 1_555
C96 C93 1_555 1_555
O15 C96 1_555 1_555
O16 C96 1_555 1_555
Nd6 O16 1_555 1_555
Nd10 O15 1_555 1_555
C91 C92 1_555 1_555
Nd6 O3 1_555 1_555
Nd15 O4 1_555 1_555
O3 C34 1_555 1_555
O4 C34 1_555 1_555
H41 C77 1_555 1_555
C78 C77 1_555 1_555
H42 C78 1_555 1_555
C79 C78 1_555 1_555
C82 C79 1_555 1_555
O11 Nd6 1_555 1_555
O12 C82 1_555 1_555
O17 Nd6 1_555 1_555
O27 Nd15 1_555 1_555
H93 O27 1_555 1_555
H94 O27 1_555 1_555
Nd10 O12 1_555 1_555
O31 Nd6 1_555 1_555
O35 Nd15 1_555 1_555
O43 Nd6 1_555 1_555
Nd15 O17 1_555 1_555
C82 O11 1_555 1_555
Nd10 O1 1_555 1_555
Nd3 O1 1_555 1_555
C1 C2 1_555 1_555
C2 H1 1_555 1_555
C3 C2 1_555 1_555
H2 C3 1_555 1_555
C4 C3 1_555 1_555
C5 C4 1_555 1_555
C6 C5 1_555 1_555
C7 C6 1_555 1_555
H3 C7 1_555 1_555
C8 C7 1_555 1_555
H4 C8 1_555 1_555
C9 C8 1_555 1_555
C10 C9 1_555 1_555
C11 C10 1_555 1_555
C20 C1 1_555 1_555
N1 C1 1_555 1_555
H9 N1 1_555 1_555
N2 C6 1_555 1_555
N3 C11 1_555 1_555
H10 N3 1_555 1_555
C21 C5 1_555 1_555
C22 C21 1_555 1_555
H11 C22 1_555 1_555
C23 C22 1_555 1_555
H12 C23 1_555 1_555
C24 C23 1_555 1_555
C25 C24 1_555 1_555
H13 C25 1_555 1_555
C26 C21 1_555 1_555
H14 C26 1_555 1_555
C27 C24 1_555 1_555
O1 C27 1_555 1_555
O2 Nd3 1_555 1_555
C28 C10 1_555 1_555
C29 C28 1_555 1_555
H15 C29 1_555 1_555
C30 C29 1_555 1_555
H16 C30 1_555 1_555
C31 C30 1_555 1_555
C32 C31 1_555 1_555
C33 C28 1_555 1_555
H18 C33 1_555 1_555
C42 C20 1_555 1_555
C43 C42 1_555 1_555
H23 C43 1_555 1_555
C44 C43 1_555 1_555
H24 C44 1_555 1_555
C45 C44 1_555 1_555
C46 C45 1_555 1_555
H25 C46 1_555 1_555
C47 C42 1_555 1_555
H26 C47 1_555 1_555
C48 C45 1_555 1_555
O7 C48 1_555 1_555
O8 C48 1_555 1_555
C49 C50 1_555 1_555
C50 H27 1_555 1_555
C51 C50 1_555 1_555
H28 C51 1_555 1_555
C52 C51 1_555 1_555
C53 C52 1_555 1_555
C54 C53 1_555 1_555
C55 C54 1_555 1_555
H29 C55 1_555 1_555
C56 C55 1_555 1_555
H30 C56 1_555 1_555
C57 C56 1_555 1_555
C58 C57 1_555 1_555
C59 C58 1_555 1_555
C60 C59 1_555 1_555
H31 C60 1_555 1_555
C61 C60 1_555 1_555
H32 C61 1_555 1_555
C62 C61 1_555 1_555
C63 C62 1_555 1_555
C64 C63 1_555 1_555
C65 C64 1_555 1_555
H33 C65 1_555 1_555
C66 C65 1_555 1_555
H34 C66 1_555 1_555
C67 C66 1_555 1_555
C68 C49 1_555 1_555
N5 C49 1_555 1_555
H35 N5 1_555 1_555
N6 C54 1_555 1_555
N7 C59 1_555 1_555
H36 N7 1_555 1_555
N8 C64 1_555 1_555
C69 C53 1_555 1_555
C70 C69 1_555 1_555
H37 C70 1_555 1_555
C71 C70 1_555 1_555
H38 C71 1_555 1_555
C72 C71 1_555 1_555
C73 C72 1_555 1_555
C74 C69 1_555 1_555
H40 C74 1_555 1_555
C76 C58 1_555 1_555
H43 C80 1_555 1_555
C81 C76 1_555 1_555
H44 C81 1_555 1_555
C83 C63 1_555 1_555
C84 C83 1_555 1_555
H45 C84 1_555 1_555
C85 C84 1_555 1_555
H46 C85 1_555 1_555
C86 C85 1_555 1_555
C87 C86 1_555 1_555
H47 C87 1_555 1_555
C88 C83 1_555 1_555
H48 C88 1_555 1_555
C89 C86 1_555 1_555
O13 C89 1_555 1_555
O14 C89 1_555 1_555
C90 C68 1_555 1_555
C95 C90 1_555 1_555
H52 C95 1_555 1_555
H60 C114 1_555 1_555
C138 C116 1_555 1_555
C139 C138 1_555 1_555
H75 C139 1_555 1_555
C140 C139 1_555 1_555
H76 C140 1_555 1_555
C141 C140 1_555 1_555
C142 C141 1_555 1_555
H77 C142 1_555 1_555
C143 C138 1_555 1_555
C144 C141 1_555 1_555
O23 Nd3 1_555 1_555
O24 Nd3 1_555 1_555
O25 Nd10 1_555 1_555
C145 O25 1_555 1_555
H79 C145 1_555 1_555
N13 C145 1_555 1_555
C146 N13 1_555 1_555
H80 C146 1_555 1_555
H81 C146 1_555 1_555
H82 C146 1_555 1_555
C147 N13 1_555 1_555
H83 C147 1_555 1_555
H84 C147 1_555 1_555
H85 C147 1_555 1_555
C148 O26 1_555 1_555
H86 C148 1_555 1_555
N14 C148 1_555 1_555
C149 N14 1_555 1_555
H87 C149 1_555 1_555
H88 C149 1_555 1_555
H89 C149 1_555 1_555
C150 N14 1_555 1_555
H90 C150 1_555 1_555
H91 C150 1_555 1_555
H92 C150 1_555 1_555
O28 Nd3 1_555 1_555
H95 O28 1_555 1_555
H96 O28 1_555 1_555
O30 Nd3 1_555 1_555
H99 O30 1_555 1_555
H100 O30 1_555 1_555
Nd13 O13 1_555 1_555
O32 Nd10 1_555 1_555
O37 Nd3 1_555 1_555
O40 Nd10 1_555 1_555
O41 Nd3 1_555 1_555
O42 Nd10 1_555 1_555
C4 N1 1_555 1_555
C9 N2 1_555 1_555
C19 C20 1_555 1_555
C19 N4 1_555 1_555
C25 C26 1_555 1_555
C27 O2 1_555 1_555
C32 C33 1_555 1_555
C46 C47 1_555 1_555
C52 N5 1_555 1_555
C57 N6 1_555 1_555
C62 N7 1_555 1_555
C67 C68 1_555 1_555
C67 N8 1_555 1_555
C73 C74 1_555 1_555
C80 C81 1_555 1_555
C87 C88 1_555 1_555
C142 C143 1_555 1_555
C144 O23 1_555 1_555
C144 O24 1_555 1_555
H5 C12 1_555 1_555
C13 C12 1_555 1_555
H6 C13 1_555 1_555
C14 C13 1_555 1_555
C15 C14 1_555 1_555
C16 C15 1_555 1_555
C17 C16 1_555 1_555
H7 C17 1_555 1_555
C18 C17 1_555 1_555
H8 C18 1_555 1_555
C35 C15 1_555 1_555
C36 C35 1_555 1_555
H19 C36 1_555 1_555
C37 C36 1_555 1_555
H20 C37 1_555 1_555
C38 C37 1_555 1_555
C39 C38 1_555 1_555
H21 C39 1_555 1_555
C40 C35 1_555 1_555
H22 C40 1_555 1_555
C41 C38 1_555 1_555
O5 C41 1_555 1_555
O6 C41 1_555 1_555
O9 C75 1_555 1_555
O10 C75 1_555 1_555
Nd5 O5 1_555 1_555
Nd8 O6 1_555 1_555
Nd16 O10 1_555 1_555
C39 C40 1_555 1_555
C102 C101 1_555 1_555
C103 C102 1_555 1_555
H55 C103 1_555 1_555
C104 C103 1_555 1_555
H56 C104 1_555 1_555
C105 C104 1_555 1_555
C106 C105 1_555 1_555
C107 C106 1_555 1_555
C108 C107 1_555 1_555
H57 C108 1_555 1_555
C109 C108 1_555 1_555
H58 C109 1_555 1_555
N10 C102 1_555 1_555
N11 C107 1_555 1_555
H62 N11 1_555 1_555
C117 C101 1_555 1_555
C118 C117 1_555 1_555
H63 C118 1_555 1_555
C119 C118 1_555 1_555
C120 C119 1_555 1_555
C123 C120 1_555 1_555
C124 C106 1_555 1_555
C125 C124 1_555 1_555
H67 C125 1_555 1_555
C126 C125 1_555 1_555
H68 C126 1_555 1_555
C127 C126 1_555 1_555
C128 C127 1_555 1_555
H69 C128 1_555 1_555
C129 C124 1_555 1_555
H70 C129 1_555 1_555
C130 C127 1_555 1_555
O40 C130 1_555 1_555
O41 C130 1_555 1_555
H98 O29 1_555 1_555
C105 N10 1_555 1_555
C123 O18 1_555 1_555
C128 C129 1_555 1_555
C97 C98 1_555 1_555
C99 C98 1_555 1_555
H54 C99 1_555 1_555
C100 C99 1_555 1_555
C111 C110 1_555 1_555
C112 C111 1_555 1_555
C113 C112 1_555 1_555
H59 C113 1_555 1_555
C116_2 C97 1_555 1_555
N9 C97 1_555 1_555
H61 N9 1_555 1_555
N12 C112 1_555 1_555
H65 C121 1_555 1_555
H66 C122 1_555 1_555
C131 C111 1_555 1_555
C132 C131 1_555 1_555
C133 C132 1_555 1_555
H72 C133 1_555 1_555
C134 C133 1_555 1_555
C135 C134 1_555 1_555
H73 C135 1_555 1_555
C136 C131 1_555 1_555
H74 C136 1_555 1_555
C137 C134 1_555 1_555
O21 C137 1_555 1_555
O22 C137 1_555 1_555
Nd5 O22 1_555 1_555
Nd8 O21 1_555 1_555
C100 N9 1_555 1_555
C115 C116_2 1_555 1_555
C115 N12 1_555 1_555
C121 C122 1_555 1_555
C135 C136 1_555 1_555
C97_2 C98_2 1_555 1_555
C99_2 C98_2 1_555 1_555
H54_2 C99_2 1_555 1_555
C100_2 C99_2 1_555 1_555
C111_2 C110_2 1_555 1_555
C112_2 C111_2 1_555 1_555
C113_2 C112_2 1_555 1_555
H59_2 C113_2 1_555 1_555
C116_3 C97_2 1_555 1_555
N9_2 C97_2 1_555 1_555
H61_2 N9_2 1_555 1_555
N12_2 C112_2 1_555 1_555
H65_2 C121_2 1_555 1_555
H66_2 C122_2 1_555 1_555
C131_2 C111_2 1_555 1_555
C132_2 C131_2 1_555 1_555
C133_2 C132_2 1_555 1_555
H72_2 C133_2 1_555 1_555
C134_2 C133_2 1_555 1_555
C135_2 C134_2 1_555 1_555
H73_2 C135_2 1_555 1_555
C136_2 C131_2 1_555 1_555
H74_2 C136_2 1_555 1_555
C137_2 C134_2 1_555 1_555
O42 C137_2 1_555 1_555
O43 C137_2 1_555 1_555
C100_2 N9_2 1_555 1_555
C115_2 C116_3 1_555 1_555
C115_2 N12_2 1_555 1_555
C121_2 C122_2 1_555 1_555
C135_2 C136_2 1_555 1_555
C102_2 C101_2 1_555 1_555
C103_2 C102_2 1_555 1_555
H55_2 C103_2 1_555 1_555
C104_2 C103_2 1_555 1_555
H56_2 C104_2 1_555 1_555
C105_2 C104_2 1_555 1_555
C106_2 C105_2 1_555 1_555
C107_2 C106_2 1_555 1_555
C108_2 C107_2 1_555 1_555
H57_2 C108_2 1_555 1_555
C109_2 C108_2 1_555 1_555
H58_2 C109_2 1_555 1_555
N10_2 C102_2 1_555 1_555
N11_2 C107_2 1_555 1_555
H62_2 N11_2 1_555 1_555
C117_2 C101_2 1_555 1_555
C118_2 C117_2 1_555 1_555
H63_2 C118_2 1_555 1_555
C119_2 C118_2 1_555 1_555
C120_2 C119_2 1_555 1_555
C123_2 C120_2 1_555 1_555
C124_2 C106_2 1_555 1_555
C125_2 C124_2 1_555 1_555
H67_2 C125_2 1_555 1_555
C126_2 C125_2 1_555 1_555
H68_2 C126_2 1_555 1_555
C127_2 C126_2 1_555 1_555
C128_2 C127_2 1_555 1_555
H69_2 C128_2 1_555 1_555
C129_2 C124_2 1_555 1_555
H70_2 C129_2 1_555 1_555
C130_2 C127_2 1_555 1_555
O19 C130_2 1_555 1_555
O20 C130_2 1_555 1_555
H98_2 O29_2 1_555 1_555
Nd8 O19 1_555 1_555
Nd13 O20 1_555 1_555
C105_2 N10_2 1_555 1_555
C123_2 O18_2 1_555 1_555
C128_2 C129_2 1_555 1_555
H5_2 C12_2 1_555 1_555
C13_2 C12_2 1_555 1_555
H6_2 C13_2 1_555 1_555
C14_2 C13_2 1_555 1_555
C15_2 C14_2 1_555 1_555
C16_2 C15_2 1_555 1_555
C17_2 C16_2 1_555 1_555
H7_2 C17_2 1_555 1_555
C18_2 C17_2 1_555 1_555
H8_2 C18_2 1_555 1_555
C35_2 C15_2 1_555 1_555
C36_2 C35_2 1_555 1_555
H19_2 C36_2 1_555 1_555
C37_2 C36_2 1_555 1_555
H20_2 C37_2 1_555 1_555
C38_2 C37_2 1_555 1_555
C39_2 C38_2 1_555 1_555
H21_2 C39_2 1_555 1_555
C40_2 C35_2 1_555 1_555
H22_2 C40_2 1_555 1_555
C41_2 C38_2 1_555 1_555
O31 C41_2 1_555 1_555
O32 C41_2 1_555 1_555
O9_2 C75_2 1_555 1_555
O35 C75_2 1_555 1_555
C39_2 C40_2 1_555 1_555
Nd8 O1_2 1_555 1_555
Nd13 O1_2 1_555 1_555
C1_2 C2_2 1_555 1_555
C2_2 H1_2 1_555 1_555
C3_2 C2_2 1_555 1_555
H2_2 C3_2 1_555 1_555
C4_2 C3_2 1_555 1_555
C5_2 C4_2 1_555 1_555
C6_2 C5_2 1_555 1_555
C7_2 C6_2 1_555 1_555
H3_2 C7_2 1_555 1_555
C8_2 C7_2 1_555 1_555
H4_2 C8_2 1_555 1_555
C9_2 C8_2 1_555 1_555
C10_2 C9_2 1_555 1_555
C11_2 C10_2 1_555 1_555
C20_2 C1_2 1_555 1_555
N1_2 C1_2 1_555 1_555
H9_2 N1_2 1_555 1_555
N2_2 C6_2 1_555 1_555
N3_2 C11_2 1_555 1_555
H10_2 N3_2 1_555 1_555
C21_2 C5_2 1_555 1_555
C22_2 C21_2 1_555 1_555
H11_2 C22_2 1_555 1_555
C23_2 C22_2 1_555 1_555
H12_2 C23_2 1_555 1_555
C24_2 C23_2 1_555 1_555
C25_2 C24_2 1_555 1_555
H13_2 C25_2 1_555 1_555
C26_2 C21_2 1_555 1_555
H14_2 C26_2 1_555 1_555
C27_2 C24_2 1_555 1_555
O1_2 C27_2 1_555 1_555
O2_2 Nd13 1_555 1_555
C28_2 C10_2 1_555 1_555
C29_2 C28_2 1_555 1_555
H15_2 C29_2 1_555 1_555
C30_2 C29_2 1_555 1_555
H16_2 C30_2 1_555 1_555
C31_2 C30_2 1_555 1_555
C32_2 C31_2 1_555 1_555
C33_2 C28_2 1_555 1_555
H18_2 C33_2 1_555 1_555
C42_2 C20_2 1_555 1_555
C43_2 C42_2 1_555 1_555
H23_2 C43_2 1_555 1_555
C44_2 C43_2 1_555 1_555
H24_2 C44_2 1_555 1_555
C45_2 C44_2 1_555 1_555
C46_2 C45_2 1_555 1_555
H25_2 C46_2 1_555 1_555
C47_2 C42_2 1_555 1_555
H26_2 C47_2 1_555 1_555
C48_2 C45_2 1_555 1_555
O33 C48_2 1_555 1_555
O34 C48_2 1_555 1_555
C49_2 C50_2 1_555 1_555
C50_2 H27_2 1_555 1_555
C51_2 C50_2 1_555 1_555
H28_2 C51_2 1_555 1_555
C52_2 C51_2 1_555 1_555
C53_2 C52_2 1_555 1_555
C54_2 C53_2 1_555 1_555
C55_2 C54_2 1_555 1_555
H29_2 C55_2 1_555 1_555
C56_2 C55_2 1_555 1_555
H30_2 C56_2 1_555 1_555
C57_2 C56_2 1_555 1_555
C58_2 C57_2 1_555 1_555
C59_2 C58_2 1_555 1_555
C60_2 C59_2 1_555 1_555
H31_2 C60_2 1_555 1_555
C61_2 C60_2 1_555 1_555
H32_2 C61_2 1_555 1_555
C62_2 C61_2 1_555 1_555
C63_2 C62_2 1_555 1_555
C64_2 C63_2 1_555 1_555
C65_2 C64_2 1_555 1_555
H33_2 C65_2 1_555 1_555
C66_2 C65_2 1_555 1_555
H34_2 C66_2 1_555 1_555
C67_2 C66_2 1_555 1_555
C68_2 C49_2 1_555 1_555
N5_2 C49_2 1_555 1_555
H35_2 N5_2 1_555 1_555
N6_2 C54_2 1_555 1_555
N7_2 C59_2 1_555 1_555
H36_2 N7_2 1_555 1_555
N8_2 C64_2 1_555 1_555
C69_2 C53_2 1_555 1_555
C70_2 C69_2 1_555 1_555
H37_2 C70_2 1_555 1_555
C71_2 C70_2 1_555 1_555
H38_2 C71_2 1_555 1_555
C72_2 C71_2 1_555 1_555
C73_2 C72_2 1_555 1_555
C74_2 C69_2 1_555 1_555
H40_2 C74_2 1_555 1_555
C76_2 C58_2 1_555 1_555
H43_2 C80_2 1_555 1_555
C81_2 C76_2 1_555 1_555
H44_2 C81_2 1_555 1_555
C83_2 C63_2 1_555 1_555
C84_2 C83_2 1_555 1_555
H45_2 C84_2 1_555 1_555
C85_2 C84_2 1_555 1_555
H46_2 C85_2 1_555 1_555
C86_2 C85_2 1_555 1_555
C87_2 C86_2 1_555 1_555
H47_2 C87_2 1_555 1_555
C88_2 C83_2 1_555 1_555
H48_2 C88_2 1_555 1_555
C89_2 C86_2 1_555 1_555
O37 C89_2 1_555 1_555
O14_2 C89_2 1_555 1_555
C90_2 C68_2 1_555 1_555
C95_2 C90_2 1_555 1_555
H52_2 C95_2 1_555 1_555
H60_2 C114_2 1_555 1_555
C138_2 C116_4 1_555 1_555
C139_2 C138_2 1_555 1_555
H75_2 C139_2 1_555 1_555
C140_2 C139_2 1_555 1_555
H76_2 C140_2 1_555 1_555
C141_2 C140_2 1_555 1_555
C142_2 C141_2 1_555 1_555
H77_2 C142_2 1_555 1_555
C143_2 C138_2 1_555 1_555
C144_2 C141_2 1_555 1_555
O23_2 Nd13 1_555 1_555
O24_2 Nd13 1_555 1_555
O25_2 Nd8 1_555 1_555
C145_2 O25_2 1_555 1_555
H79_2 C145_2 1_555 1_555
N13_2 C145_2 1_555 1_555
C146_2 N13_2 1_555 1_555
H80_2 C146_2 1_555 1_555
H81_2 C146_2 1_555 1_555
H82_2 C146_2 1_555 1_555
C147_2 N13_2 1_555 1_555
H83_2 C147_2 1_555 1_555
H84_2 C147_2 1_555 1_555
H85_2 C147_2 1_555 1_555
C148_2 O26_2 1_555 1_555
H86_2 C148_2 1_555 1_555
N14_2 C148_2 1_555 1_555
C149_2 N14_2 1_555 1_555
H87_2 C149_2 1_555 1_555
H88_2 C149_2 1_555 1_555
H89_2 C149_2 1_555 1_555
C150_2 N14_2 1_555 1_555
H90_2 C150_2 1_555 1_555
H91_2 C150_2 1_555 1_555
H92_2 C150_2 1_555 1_555
O28_2 Nd13 1_555 1_555
H95_2 O28_2 1_555 1_555
H96_2 O28_2 1_555 1_555
O30_2 Nd13 1_555 1_555
H99_2 O30_2 1_555 1_555
H100_2 O30_2 1_555 1_555
O36 Nd8 1_555 1_555
O38 Nd8 1_555 1_555
C4_2 N1_2 1_555 1_555
C9_2 N2_2 1_555 1_555
C19_2 C20_2 1_555 1_555
C19_2 N4_2 1_555 1_555
C25_2 C26_2 1_555 1_555
C27_2 O2_2 1_555 1_555
C32_2 C33_2 1_555 1_555
C46_2 C47_2 1_555 1_555
C52_2 N5_2 1_555 1_555
C57_2 N6_2 1_555 1_555
C62_2 N7_2 1_555 1_555
C67_2 C68_2 1_555 1_555
C67_2 N8_2 1_555 1_555
C73_2 C74_2 1_555 1_555
C80_2 C81_2 1_555 1_555
C87_2 C88_2 1_555 1_555
C142_2 C143_2 1_555 1_555
C144_2 O23_2 1_555 1_555
C144_2 O24_2 1_555 1_555
Nd5 O3_2 1_555 1_555
Nd16 O4_2 1_555 1_555
O3_2 C34_2 1_555 1_555
O4_2 C34_2 1_555 1_555
H41_2 C77_2 1_555 1_555
C78_2 C77_2 1_555 1_555
H42_2 C78_2 1_555 1_555
C79_2 C78_2 1_555 1_555
C82_2 C79_2 1_555 1_555
O11_2 Nd5 1_555 1_555
O36 C82_2 1_555 1_555
O17_2 Nd5 1_555 1_555
O27_2 Nd16 1_555 1_555
H93_2 O27_2 1_555 1_555
H94_2 O27_2 1_555 1_555
O39 Nd5 1_555 1_555
Nd16 O17_2 1_555 1_555
C82_2 O11_2 1_555 1_555
C91_2 H49_2 1_555 1_555
H50_2 C92_2 1_555 1_555
C93_2 C91_2 1_555 1_555
C94_2 C93_2 1_555 1_555
C96_2 C93_2 1_555 1_555
O38 C96_2 1_555 1_555
O39 C96_2 1_555 1_555
C91_2 C92_2 1_555 1_555

#END
