
###############################################################################
#
# This file contains modified crystal structure data generated from the
# MOF subset of the Cambridge Structural Database (CSD) v543 
# hosted by the Cambridge Crystallographic Data Centre (CCDC).
#
# This work is licensed under the Creative Commons
# Attribution-NonCommercial-ShareAlike 4.0 International License.
# To view a copy of this license, visit
# http://creativecommons.org/licenses/by-nc-sa/4.0/
# or send a letter to
# Creative Commons, PO Box 1866, Mountain View, CA 94042, USA.
#
# CIF created using the CSD Python API on 29 September 2022
# The structure has been converted into the P1 space group
# The structure has a 3D framework
# The original CSD entry VEVHIQ is in the monoclinic crystal system
# The framework has been calculated to contain at least 10.0% void space
# The void calculation uses a probe of radius 1.32A, grid spacing 0.4
#
###############################################################################

data_VEVHIQ
_chemical_formula_moiety         '(C156 H128 Cd10 Ir4 N16 O36)n'
_symmetry_cell_setting           triclinic
_symmetry_space_group_name_H-M   'P 1'
_symmetry_Int_Tables_number      1
_space_group_name_Hall           'P 1'
loop_
_symmetry_equiv_pos_site_id
_symmetry_equiv_pos_as_xyz
1 x,y,z
_cell_length_a                   14.2240(7)
_cell_length_b                   14.4669(7)
_cell_length_c                   21.1188(11)
_cell_angle_alpha                90
_cell_angle_beta                 100.9633(16)
_cell_angle_gamma                90
_cell_volume                     4266.45
loop_
_atom_site_label
_atom_site_type_symbol
_atom_site_fract_x
_atom_site_fract_y
_atom_site_fract_z
Cd2 Cd 0.24225(7) 0.11597(6) 0.46162(5)
H10 H 0.0509 0.3850 0.4224
C20 C 0.0160(9) 0.5689(9) 0.4162(7)
H11 H 0.0737 0.5341 0.4248
C21 C 0.0185(9) 0.6650(9) 0.4115(7)
H12 H 0.0781 0.6963 0.4159
C24 C 0.0552(10) 0.2023(8) 0.4371(6)
O3 O 0.0387(7) 0.1169(6) 0.4396(5)
O4 O 0.1373(6) 0.2328(6) 0.4378(5)
O8 O 0.1716(11) 0.0486(12) 0.3605(8)
H29 H 0.2152 0.0371 0.3391
Cd5 Cd -0.0000 -0.0000 0.5000
O19 O 0.3414(8) 0.1799(8) 0.3917(7)
O21 O 0.3955(10) 0.1977(8) 0.4947(7)
O26 O 0.2452(7) 0.1272(6) 0.5667(4)
H30 H 0.1433 0.9986 0.3669
O9 O 0.3231(9) 0.9759(7) 0.4738(6)
H31 H 0.3612 0.9749 0.5101
H32 H 0.3549 0.9704 0.4438
Cd5_2 Cd -0.0000 1.0000 0.5000
Ir1 Ir 0.71784(3) 0.49359(3) 0.38625(2)
Cd1 Cd 0.5000 0.5000 0.0000
C1 C 0.6097(10) 0.4076(8) 0.3910(8)
C2 C 0.5540(10) 0.3557(9) 0.3430(8)
H1 H 0.5614 0.3630 0.2995
C3 C 0.4853(11) 0.2911(10) 0.3580(8)
H2 H 0.4481 0.2556 0.3245
C4 C 0.4727(11) 0.2797(11) 0.4209(8)
C5 C 0.5253(11) 0.3314(10) 0.4700(8)
H3 H 0.5179 0.3222 0.5133
C6 C 0.5897(10) 0.3975(9) 0.4555(8)
C7 C 0.6409(12) 0.4578(10) 0.5043(8)
C8 C 0.6276(14) 0.4612(12) 0.5695(8)
H4 H 0.5834 0.4212 0.5844
C9 C 0.6804(15) 0.5237(12) 0.6098(9)
H5 H 0.6756 0.5241 0.6541
C10 C 0.7390(13) 0.5846(11) 0.5888(8)
H6 H 0.7733 0.6293 0.6172
C11 C 0.7479(12) 0.5806(10) 0.5258(7)
H7 H 0.7895 0.6232 0.5107
C12 C 0.3949(16) 0.2138(12) 0.4347(10)
C13 C 0.8176(8) 0.3956(8) 0.4140(5)
C14 C 0.8052(9) 0.3010(8) 0.4238(6)
H8 H 0.7431 0.2789 0.4261
C15 C 0.8800(9) 0.2386(7) 0.4302(6)
H9 H 0.8675 0.1747 0.4344
C16 C 0.9734(9) 0.2680(8) 0.4305(6)
C17 C 0.9881(9) 0.3629(8) 0.4227(6)
C18 C 0.9131(8) 0.4248(7) 0.4154(5)
C19 C 0.9268(8) 0.5248(8) 0.4080(6)
C22 C 0.9337(10) 0.7146(8) 0.4003(8)
H13 H 0.9340 0.7801 0.3975
C23 C 0.8506(10) 0.6675(8) 0.3934(7)
H14 H 0.7926 0.7019 0.3860
C25 C 0.7190(8) 0.4675(7) 0.2942(6)
C26 C 0.7707(7) 0.4004(7) 0.2657(6)
H15 H 0.8132 0.3609 0.2936
C27 C 0.7632(8) 0.3892(8) 0.2011(6)
H16 H 0.7992 0.3420 0.1854
C28 C 0.7026(8) 0.4467(8) 0.1569(6)
C29 C 0.6503(8) 0.5149(8) 0.1818(6)
H17 H 0.6098 0.5550 0.1531
C30 C 0.6567(8) 0.5248(8) 0.2483(6)
C31 C 0.6073(8) 0.5979(8) 0.2759(7)
C32 C 0.5468(11) 0.6641(10) 0.2409(8)
H18 H 0.5338 0.6615 0.1951
C33 C 0.5070(12) 0.7312(12) 0.2708(10)
H19 H 0.4660 0.7758 0.2467
C34 C 0.5270(11) 0.7343(10) 0.3384(9)
H20 H 0.5005 0.7812 0.3611
C35 C 0.5864(9) 0.6671(9) 0.3712(8)
H21 H 0.6006 0.6691 0.4169
C36 C 0.6996(9) 0.4376(8) 0.0877(7)
C37 C 0.3727(14) 0.3735(14) 0.0716(11)
H22 H 0.3331 0.3727 0.0299
C38 C 0.399(2) 0.329(2) 0.1871(13)
H23 H 0.4504 0.2842 0.1884
H24 H 0.3587 0.3115 0.2181
H25 H 0.4262 0.3907 0.1983
C39 C 0.2474(19) 0.288(2) 0.0901(17)
H26 H 0.2465 0.2796 0.0440
H27 H 0.1939 0.3277 0.0959
H28 H 0.2414 0.2277 0.1101
N1 N 0.6993(9) 0.5173(7) 0.4830(6)
N2 N 0.8445(7) 0.5747(6) 0.3964(5)
N3 N 0.6247(7) 0.5995(6) 0.3411(5)
N4 N 0.3391(14) 0.3319(14) 0.1210(9)
O5 O 0.7452(7) 0.3728(6) 0.0667(4)
O6 O 0.6548(7) 0.4976(7) 0.0491(5)
O7 O 0.4498(8) 0.4112(7) 0.0777(6)
Cd5_3 Cd 1.0000 -0.0000 0.5000
Cd7 Cd 0.25775(7) 0.61597(6) 0.03838(5)
O23 O 0.4613(7) 0.6169(6) 0.0604(5)
Cd1_2 Cd 0.5000 0.5000 1.0000
Ir2 Ir 0.28216(3) 0.50641(3) 0.61375(2)
C40 C 0.3903(10) 0.5924(8) 0.6090(8)
C41 C 0.4460(10) 0.6443(9) 0.6570(8)
H33 H 0.4386 0.6370 0.7005
C42 C 0.5147(11) 0.7089(10) 0.6420(8)
H34 H 0.5519 0.7444 0.6755
C43 C 0.5273(11) 0.7203(11) 0.5791(8)
C44 C 0.4747(11) 0.6686(10) 0.5300(8)
H35 H 0.4821 0.6778 0.4867
C45 C 0.4103(10) 0.6025(9) 0.5445(8)
C46 C 0.3591(12) 0.5422(10) 0.4957(8)
C47 C 0.3724(14) 0.5388(12) 0.4305(8)
H36 H 0.4166 0.5788 0.4156
C48 C 0.3196(15) 0.4763(12) 0.3902(9)
H37 H 0.3244 0.4759 0.3459
C49 C 0.2610(13) 0.4154(11) 0.4112(8)
H38 H 0.2267 0.3707 0.3828
C50 C 0.2521(12) 0.4194(10) 0.4742(7)
H39 H 0.2105 0.3768 0.4893
C51 C 0.6051(16) 0.7862(12) 0.5653(10)
C52 C 0.1824(8) 0.6044(8) 0.5860(5)
C53 C 0.1948(9) 0.6990(8) 0.5762(6)
H40 H 0.2569 0.7211 0.5739
C54 C 0.1200(9) 0.7614(7) 0.5698(6)
H41 H 0.1325 0.8253 0.5656
C55 C 0.0266(9) 0.7320(8) 0.5695(6)
C56 C 0.0119(9) 0.6371(8) 0.5773(6)
C57 C 0.0869(8) 0.5752(7) 0.5846(5)
C58 C 0.0732(8) 0.4752(8) 0.5920(6)
C61 C 0.0663(10) 0.2854(8) 0.5997(8)
H45 H 0.0660 0.2199 0.6025
C62 C 0.1494(10) 0.3325(8) 0.6066(7)
H46 H 0.2074 0.2981 0.6140
C64 C 0.2810(8) 0.5325(7) 0.7058(6)
C65 C 0.2293(7) 0.5996(7) 0.7343(6)
H47 H 0.1868 0.6391 0.7064
C66 C 0.2368(8) 0.6108(8) 0.7989(6)
H48 H 0.2008 0.6580 0.8146
C67 C 0.2974(8) 0.5533(8) 0.8431(6)
C68 C 0.3497(8) 0.4851(8) 0.8182(6)
H49 H 0.3902 0.4450 0.8469
C69 C 0.3433(8) 0.4752(8) 0.7517(6)
C70 C 0.3927(8) 0.4021(8) 0.7241(7)
C71 C 0.4532(11) 0.3359(10) 0.7591(8)
H50 H 0.4662 0.3385 0.8049
C72 C 0.4930(12) 0.2688(12) 0.7292(10)
H51 H 0.5340 0.2242 0.7533
C73 C 0.4730(11) 0.2657(10) 0.6616(9)
H52 H 0.4995 0.2188 0.6389
C74 C 0.4136(9) 0.3329(9) 0.6288(8)
H53 H 0.3994 0.3309 0.5831
C75 C 0.3004(9) 0.5624(8) 0.9123(7)
C76 C 0.6273(14) 0.6265(14) 0.9284(11)
H54 H 0.6669 0.6273 0.9701
C77 C 0.601(2) 0.671(2) 0.8129(13)
H55 H 0.5496 0.7158 0.8116
H56 H 0.6413 0.6885 0.7819
H57 H 0.5738 0.6093 0.8017
C78 C 0.7526(19) 0.712(2) 0.9099(17)
H58 H 0.7535 0.7204 0.9560
H59 H 0.8061 0.6723 0.9041
H60 H 0.7586 0.7723 0.8899
N5 N 0.3007(9) 0.4827(7) 0.5170(6)
N6 N 0.1555(7) 0.4253(6) 0.6036(5)
N7 N 0.3753(7) 0.4005(6) 0.6589(5)
N8 N 0.6609(14) 0.6681(14) 0.8790(9)
O10 O 0.6586(8) 0.8201(8) 0.6083(7)
O11 O 0.6045(10) 0.8023(8) 0.5053(7)
O14 O 0.2548(7) 0.6272(6) 0.9333(4)
O15 O 0.3452(7) 0.5024(7) 0.9509(5)
O16 O 0.5502(8) 0.5888(7) 0.9223(6)
Cd8 Cd 0.75775(7) 0.88403(6) 0.53838(5)
Cd9 Cd 0.74225(7) 0.38403(6) 0.96162(5)
O24 O 0.5387(7) 0.3831(6) 0.9396(5)
Cd5_4 Cd 1.0000 1.0000 0.5000
H62 H 0.8567 0.0014 0.6331
O18 O 0.6769(9) 0.0241(7) 0.5262(6)
H63 H 0.6388 0.0251 0.4899
H64 H 0.6451 0.0296 0.5562
H42 H 0.9491 0.6150 0.5776
C59 C 0.9840(9) 0.4311(9) 0.5838(7)
H43 H 0.9263 0.4659 0.5752
C60 C 0.9815(9) 0.3350(9) 0.5885(7)
H44 H 0.9219 0.3037 0.5841
C63 C 0.9448(10) 0.7977(8) 0.5629(6)
O12 O 0.9613(7) 0.8831(6) 0.5604(5)
O13 O 0.8627(6) 0.7672(6) 0.5622(5)
O17 O 0.8284(11) 0.9514(12) 0.6395(8)
H61 H 0.7848 0.9629 0.6609
O25 O 0.7548(7) 0.8728(6) 0.4333(4)
H35_2 H 0.0179 0.1778 0.0133
C46_2 C 0.1409(12) 0.0422(10) 0.0043(8)
C47_2 C 0.1276(14) 0.0388(12) 0.0695(8)
H36_2 H 0.0834 0.0788 0.0844
H63_2 H 0.8612 0.5251 0.0101
H19_2 H 0.0340 0.2758 0.2533
Ir2_2 Ir 0.21784(3) 0.00641(3) 0.88625(2)
C40_2 C 0.1097(10) 0.0924(8) 0.8910(8)
C41_2 C 0.0540(10) 0.1443(9) 0.8430(8)
H33_2 H 0.0614 0.1370 0.7995
C44_2 C 0.0253(11) 0.1686(10) 0.9700(8)
C45_2 C 0.0897(10) 0.1025(9) 0.9555(8)
C52_2 C 0.3176(8) 0.1044(8) 0.9140(5)
C53_2 C 0.3052(9) 0.1990(8) 0.9238(6)
H40_2 H 0.2431 0.2211 0.9261
C54_2 C 0.3800(9) 0.2614(7) 0.9302(6)
H41_2 H 0.3675 0.3253 0.9344
C55_2 C 0.4734(9) 0.2320(8) 0.9305(6)
C56_2 C 0.4881(9) 0.1371(8) 0.9227(6)
H42_2 H 0.5509 0.1150 0.9224
C57_2 C 0.4131(8) 0.0752(7) 0.9154(5)
C63_2 C 0.5552(10) 0.2977(8) 0.9371(6)
C64_2 C 0.2190(8) 0.0325(7) 0.7942(6)
C65_2 C 0.2707(7) 0.0996(7) 0.7657(6)
H47_2 H 0.3132 0.1391 0.7936
C66_2 C 0.2632(8) 0.1108(8) 0.7011(6)
H48_2 H 0.2992 0.1580 0.6854
C67_2 C 0.2026(8) 0.0533(8) 0.6569(6)
C75_2 C 0.1996(9) 0.0624(8) 0.5877(7)
O13_2 O 0.6373(6) 0.2672(6) 0.9378(5)
O15_2 O 0.1548(7) 0.0024(7) 0.5491(5)
O17_2 O 0.6716(11) 0.4514(12) 0.8605(8)
H61_2 H 0.7152 0.4629 0.8391
H62_2 H 0.6433 0.5014 0.8669
O18_2 O 0.8231(9) 0.5241(7) 0.9738(6)
H64_2 H 0.8549 0.5296 0.9438
O20 O 0.8414(8) 0.3201(8) 0.8917(7)
O22 O 0.8955(10) 0.3023(8) 0.9947(7)
C3_2 C 0.0147(11) 0.7911(10) 0.1420(8)
H2_2 H 0.0519 0.7556 0.1755
C4_2 C 0.0273(11) 0.7797(11) 0.0791(8)
C12_2 C 0.1051(16) 0.7138(12) 0.0653(10)
C37_2 C 0.1273(14) 0.8735(14) 0.4284(11)
H22_2 H 0.1669 0.8727 0.4701
C38_2 C 0.101(2) 0.829(2) 0.3129(13)
H23_2 H 0.0496 0.7842 0.3116
H24_2 H 0.1413 0.8115 0.2819
H25_2 H 0.0738 0.8907 0.3017
C39_2 C 0.2526(19) 0.788(2) 0.4099(17)
H26_2 H 0.2535 0.7796 0.4560
H27_2 H 0.3061 0.8277 0.4041
H28_2 H 0.2586 0.7277 0.3899
N4_2 N 0.1609(14) 0.8319(14) 0.3790(9)
O1 O 0.1586(8) 0.6799(8) 0.1083(7)
O2 O 0.1045(10) 0.6977(8) 0.0053(7)
O7_2 O 0.0502(8) 0.9112(7) 0.4223(6)
C58_2 C 0.4268(8) 0.9752(8) 0.9080(6)
C59_2 C 0.5160(9) 0.9311(9) 0.9162(7)
H43_2 H 0.5737 0.9659 0.9248
C60_2 C 0.5185(9) 0.8350(9) 0.9115(7)
H44_2 H 0.5781 0.8037 0.9159
C61_2 C 0.4337(10) 0.7854(8) 0.9003(8)
H45_2 H 0.4340 0.7199 0.8975
C62_2 C 0.3506(10) 0.8325(8) 0.8934(7)
H46_2 H 0.2926 0.7981 0.8860
C68_2 C 0.1503(8) 0.9851(8) 0.6818(6)
H49_2 H 0.1098 0.9450 0.6531
C69_2 C 0.1567(8) 0.9752(8) 0.7483(6)
C70_2 C 0.1073(8) 0.9021(8) 0.7759(7)
C71_2 C 0.0468(11) 0.8359(10) 0.7409(8)
H50_2 H 0.0338 0.8385 0.6951
C72_2 C 0.0070(12) 0.7688(12) 0.7708(10)
C73_2 C 0.0270(11) 0.7657(10) 0.8384(9)
H52_2 H 0.0005 0.7188 0.8611
C74_2 C 0.0864(9) 0.8329(9) 0.8712(8)
H53_2 H 0.1006 0.8309 0.9169
N5_2 N 0.1993(9) 0.9827(7) 0.9830(6)
N6_2 N 0.3445(7) 0.9253(6) 0.8964(5)
N7_2 N 0.1247(7) 0.9005(6) 0.8411(5)
C19_2 C 0.5732(8) 0.0248(8) 0.0920(6)
C20_2 C 0.4840(9) 0.0689(9) 0.0838(7)
H11_2 H 0.4263 0.0341 0.0752
C21_2 C 0.4815(9) 0.1650(9) 0.0885(7)
H12_2 H 0.4219 0.1963 0.0841
C22_2 C 0.5663(10) 0.2146(8) 0.0997(8)
H13_2 H 0.5660 0.2801 0.1025
C23_2 C 0.6494(10) 0.1675(8) 0.1066(7)
H14_2 H 0.7074 0.2019 0.1140
C29_2 C 0.8497(8) 0.0149(8) 0.3182(6)
H17_2 H 0.8902 0.0550 0.3469
C30_2 C 0.8433(8) 0.0248(8) 0.2517(6)
C31_2 C 0.8927(8) 0.0979(8) 0.2241(7)
C32_2 C 0.9532(11) 0.1641(10) 0.2591(8)
H18_2 H 0.9662 0.1615 0.3049
C33_2 C 0.9930(12) 0.2312(12) 0.2292(10)
C34_2 C 0.9730(11) 0.2343(10) 0.1616(9)
H20_2 H 0.9995 0.2812 0.1389
C35_2 C 0.9136(9) 0.1671(9) 0.1288(8)
H21_2 H 0.8994 0.1691 0.0831
N1_2 N 0.8007(9) 0.0173(7) 0.0170(6)
N2_2 N 0.6555(7) 0.0747(6) 0.1036(5)
N3_2 N 0.8753(7) 0.0995(6) 0.1589(5)
C42_2 C 0.9853(11) 0.2089(10) 0.8580(8)
H34_2 H 0.9481 0.2444 0.8245
C43_2 C 0.9727(11) 0.2203(11) 0.9209(8)
C51_2 C 0.8949(16) 0.2862(12) 0.9347(10)
C76_2 C 0.8727(14) 0.1265(14) 0.5716(11)
H54_2 H 0.8331 0.1273 0.5299
C77_2 C 0.899(2) 0.171(2) 0.6871(13)
H55_2 H 0.9504 0.2158 0.6884
H56_2 H 0.8587 0.1885 0.7181
H57_2 H 0.9262 0.1093 0.6983
C78_2 C 0.7474(19) 0.212(2) 0.5901(17)
H58_2 H 0.7465 0.2204 0.5440
H59_2 H 0.6939 0.1723 0.5959
H60_2 H 0.7414 0.2723 0.6101
N8_2 N 0.8391(14) 0.1681(14) 0.6210(9)
O16_2 O 0.9498(8) 0.0888(7) 0.5777(6)
Ir1_2 Ir 0.78216(3) 0.99359(3) 0.11375(2)
C1_2 C 0.8903(10) 0.9076(8) 0.1090(8)
C2_2 C 0.9460(10) 0.8557(9) 0.1570(8)
H1_2 H 0.9386 0.8630 0.2005
C5_2 C 0.9747(11) 0.8314(10) 0.0300(8)
C6_2 C 0.9103(10) 0.8975(9) 0.0445(8)
C13_2 C 0.6824(8) 0.8956(8) 0.0860(5)
C14_2 C 0.6948(9) 0.8010(8) 0.0762(6)
H8_2 H 0.7569 0.7789 0.0739
C15_2 C 0.6200(9) 0.7386(7) 0.0698(6)
H9_2 H 0.6325 0.6747 0.0656
C16_2 C 0.5266(9) 0.7680(8) 0.0695(6)
C17_2 C 0.5119(9) 0.8629(8) 0.0773(6)
H10_2 H 0.4491 0.8850 0.0776
C18_2 C 0.5869(8) 0.9248(7) 0.0846(5)
C24_2 C 0.4448(10) 0.7023(8) 0.0629(6)
C25_2 C 0.7810(8) 0.9675(7) 0.2058(6)
C26_2 C 0.7293(7) 0.9004(7) 0.2343(6)
H15_2 H 0.6868 0.8609 0.2064
C27_2 C 0.7368(8) 0.8892(8) 0.2989(6)
H16_2 H 0.7008 0.8420 0.3146
C28_2 C 0.7974(8) 0.9467(8) 0.3431(6)
C36_2 C 0.8004(9) 0.9376(8) 0.4123(7)
O4_2 O 0.3627(6) 0.7328(6) 0.0622(5)
O6_2 O 0.8452(7) 0.9976(7) 0.4509(5)
O8_2 O 0.3284(11) 0.5486(12) 0.1395(8)
H29_2 H 0.2848 0.5371 0.1609
H30_2 H 0.3567 0.4986 0.1331
O9_2 O 0.1769(9) 0.4759(7) 0.0262(6)
H32_2 H 0.1451 0.4704 0.0562
H51_2 H 0.9660 0.7242 0.7467
H3_2 H 0.9821 0.8222 0.9867
C7_2 C 0.8591(12) 0.9578(10) 0.9957(8)
C8_2 C 0.8724(14) 0.9612(12) 0.9305(8)
H4_2 H 0.9166 0.9212 0.9156
H31_2 H 0.1388 0.4749 0.9899
C48_2 C 0.1804(15) 0.9763(12) 0.1098(9)
H37_2 H 0.1756 0.9759 0.1541
C49_2 C 0.2390(13) 0.9154(11) 0.0888(8)
H38_2 H 0.2733 0.8707 0.1172
C50_2 C 0.2479(12) 0.9194(10) 0.0258(7)
H39_2 H 0.2895 0.8768 0.0107
C9_2 C 0.8196(15) 0.0237(12) 0.8902(9)
H5_2 H 0.8244 0.0241 0.8459
C10_2 C 0.7610(13) 0.0846(11) 0.9112(8)
H6_2 H 0.7267 0.1293 0.8828
C11_2 C 0.7521(12) 0.0806(10) 0.9742(7)
H7_2 H 0.7105 0.1232 0.9893
loop_
_geom_bond_atom_site_label_1
_geom_bond_atom_site_label_2
_geom_bond_site_symmetry_1
_geom_bond_site_symmetry_2
Cd2 O4 1_555 1_555
H11 C20 1_555 1_555
C21 C20 1_555 1_555
H12 C21 1_555 1_555
O3 C24 1_555 1_555
O4 C24 1_555 1_555
O8 Cd2 1_555 1_555
H29 O8 1_555 1_555
Cd5 O3 1_555 1_555
O19 Cd2 1_555 1_555
O21 Cd2 1_555 1_555
O26 Cd2 1_555 1_555
H31 O9 1_555 1_555
H32 O9 1_555 1_555
Ir1 C1 1_555 1_555
Cd1 O6 1_555 1_555
C1 C2 1_555 1_555
C2 H1 1_555 1_555
C3 C2 1_555 1_555
H2 C3 1_555 1_555
C4 C3 1_555 1_555
C5 C4 1_555 1_555
H3 C5 1_555 1_555
C6 C1 1_555 1_555
C7 C6 1_555 1_555
C8 C7 1_555 1_555
H4 C8 1_555 1_555
C9 C8 1_555 1_555
H5 C9 1_555 1_555
C10 C9 1_555 1_555
H6 C10 1_555 1_555
C11 C10 1_555 1_555
H7 C11 1_555 1_555
C12 C4 1_555 1_555
C13 Ir1 1_555 1_555
C14 C13 1_555 1_555
H8 C14 1_555 1_555
C15 C14 1_555 1_555
H9 C15 1_555 1_555
C16 C15 1_555 1_555
C17 C16 1_555 1_555
C18 C13 1_555 1_555
C19 C18 1_555 1_555
H13 C22 1_555 1_555
C23 C22 1_555 1_555
H14 C23 1_555 1_555
C25 Ir1 1_555 1_555
C26 C25 1_555 1_555
H15 C26 1_555 1_555
C27 C26 1_555 1_555
H16 C27 1_555 1_555
C28 C27 1_555 1_555
C29 C28 1_555 1_555
H17 C29 1_555 1_555
C30 C25 1_555 1_555
C31 C30 1_555 1_555
C32 C31 1_555 1_555
H18 C32 1_555 1_555
C33 C32 1_555 1_555
H19 C33 1_555 1_555
C34 C33 1_555 1_555
H20 C34 1_555 1_555
C35 C34 1_555 1_555
H21 C35 1_555 1_555
C36 C28 1_555 1_555
C37 H22 1_555 1_555
C38 H23 1_555 1_555
H24 C38 1_555 1_555
H25 C38 1_555 1_555
C39 H26 1_555 1_555
H27 C39 1_555 1_555
H28 C39 1_555 1_555
N1 Ir1 1_555 1_555
N2 Ir1 1_555 1_555
N3 Ir1 1_555 1_555
N4 C37 1_555 1_555
O19 C12 1_555 1_555
O21 C12 1_555 1_555
O5 C36 1_555 1_555
O6 C36 1_555 1_555
O7 Cd1 1_555 1_555
O23 Cd1 1_555 1_555
C5 C6 1_555 1_555
C7 N1 1_555 1_555
C11 N1 1_555 1_555
C17 C18 1_555 1_555
C19 N2 1_555 1_555
C23 N2 1_555 1_555
C29 C30 1_555 1_555
C31 N3 1_555 1_555
C35 N3 1_555 1_555
C37 O7 1_555 1_555
C38 N4 1_555 1_555
C39 N4 1_555 1_555
Ir2 C40 1_555 1_555
C40 C41 1_555 1_555
C41 H33 1_555 1_555
C42 C41 1_555 1_555
H34 C42 1_555 1_555
C43 C42 1_555 1_555
C44 C43 1_555 1_555
H35 C44 1_555 1_555
C45 C40 1_555 1_555
C46 C45 1_555 1_555
C47 C46 1_555 1_555
H36 C47 1_555 1_555
C48 C47 1_555 1_555
H37 C48 1_555 1_555
C49 C48 1_555 1_555
H38 C49 1_555 1_555
C50 C49 1_555 1_555
H39 C50 1_555 1_555
C51 C43 1_555 1_555
C52 Ir2 1_555 1_555
C53 C52 1_555 1_555
H40 C53 1_555 1_555
C54 C53 1_555 1_555
H41 C54 1_555 1_555
C55 C54 1_555 1_555
C56 C55 1_555 1_555
C57 C52 1_555 1_555
C58 C57 1_555 1_555
H45 C61 1_555 1_555
C62 C61 1_555 1_555
H46 C62 1_555 1_555
C64 Ir2 1_555 1_555
C65 C64 1_555 1_555
H47 C65 1_555 1_555
C66 C65 1_555 1_555
H48 C66 1_555 1_555
C67 C66 1_555 1_555
C68 C67 1_555 1_555
H49 C68 1_555 1_555
C69 C64 1_555 1_555
C70 C69 1_555 1_555
C71 C70 1_555 1_555
H50 C71 1_555 1_555
C72 C71 1_555 1_555
H51 C72 1_555 1_555
C73 C72 1_555 1_555
H52 C73 1_555 1_555
C74 C73 1_555 1_555
H53 C74 1_555 1_555
C75 C67 1_555 1_555
C76 H54 1_555 1_555
C77 H55 1_555 1_555
H56 C77 1_555 1_555
H57 C77 1_555 1_555
C78 H58 1_555 1_555
H59 C78 1_555 1_555
H60 C78 1_555 1_555
N5 Ir2 1_555 1_555
N6 Ir2 1_555 1_555
N7 Ir2 1_555 1_555
N8 C76 1_555 1_555
O10 C51 1_555 1_555
O11 C51 1_555 1_555
O14 C75 1_555 1_555
O15 Cd1_2 1_555 1_555
O16 Cd1_2 1_555 1_555
Cd8 O10 1_555 1_555
O24 Cd1_2 1_555 1_555
C44 C45 1_555 1_555
C46 N5 1_555 1_555
C50 N5 1_555 1_555
C56 C57 1_555 1_555
C58 N6 1_555 1_555
C62 N6 1_555 1_555
C68 C69 1_555 1_555
C70 N7 1_555 1_555
C74 N7 1_555 1_555
C75 O15 1_555 1_555
C76 O16 1_555 1_555
C77 N8 1_555 1_555
C78 N8 1_555 1_555
O11 Cd8 1_555 1_555
H63 O18 1_555 1_555
H64 O18 1_555 1_555
Cd8 O13 1_555 1_555
H43 C59 1_555 1_555
C60 C59 1_555 1_555
H44 C60 1_555 1_555
O12 C63 1_555 1_555
O13 C63 1_555 1_555
O17 Cd8 1_555 1_555
H61 O17 1_555 1_555
Cd5_4 O12 1_555 1_555
O25 Cd8 1_555 1_555
C47_2 C46_2 1_555 1_555
H36_2 C47_2 1_555 1_555
Ir2_2 C40_2 1_555 1_555
Cd9 O13_2 1_555 1_555
C40_2 C41_2 1_555 1_555
C41_2 H33_2 1_555 1_555
C45_2 C40_2 1_555 1_555
C52_2 Ir2_2 1_555 1_555
C53_2 C52_2 1_555 1_555
H40_2 C53_2 1_555 1_555
C54_2 C53_2 1_555 1_555
H41_2 C54_2 1_555 1_555
C55_2 C54_2 1_555 1_555
C56_2 C55_2 1_555 1_555
H42_2 C56_2 1_555 1_555
C57_2 C52_2 1_555 1_555
C63_2 C55_2 1_555 1_555
C64_2 Ir2_2 1_555 1_555
C65_2 C64_2 1_555 1_555
H47_2 C65_2 1_555 1_555
C66_2 C65_2 1_555 1_555
H48_2 C66_2 1_555 1_555
C67_2 C66_2 1_555 1_555
C75_2 C67_2 1_555 1_555
O24 C63_2 1_555 1_555
O13_2 C63_2 1_555 1_555
O26 C75_2 1_555 1_555
O15_2 Cd5 1_555 1_555
O17_2 Cd9 1_555 1_555
H61_2 O17_2 1_555 1_555
H62_2 O17_2 1_555 1_555
O18_2 Cd9 1_555 1_555
H64_2 O18_2 1_555 1_555
O20 Cd9 1_555 1_555
O22 Cd9 1_555 1_555
C44_2 C45_2 1_555 1_555
C56_2 C57_2 1_555 1_555
C75_2 O15_2 1_555 1_555
H2_2 C3_2 1_555 1_555
C4_2 C3_2 1_555 1_555
C12_2 C4_2 1_555 1_555
C37_2 H22_2 1_555 1_555
C38_2 H23_2 1_555 1_555
H24_2 C38_2 1_555 1_555
H25_2 C38_2 1_555 1_555
C39_2 H26_2 1_555 1_555
H27_2 C39_2 1_555 1_555
H28_2 C39_2 1_555 1_555
N4_2 C37_2 1_555 1_555
O1 C12_2 1_555 1_555
O2 C12_2 1_555 1_555
O7_2 Cd5_2 1_555 1_555
C59_2 C58_2 1_555 1_555
H43_2 C59_2 1_555 1_555
C60_2 C59_2 1_555 1_555
H44_2 C60_2 1_555 1_555
C61_2 C60_2 1_555 1_555
H45_2 C61_2 1_555 1_555
C62_2 C61_2 1_555 1_555
H46_2 C62_2 1_555 1_555
H49_2 C68_2 1_555 1_555
C70_2 C69_2 1_555 1_555
C71_2 C70_2 1_555 1_555
H50_2 C71_2 1_555 1_555
C72_2 C71_2 1_555 1_555
C73_2 C72_2 1_555 1_555
H52_2 C73_2 1_555 1_555
C74_2 C73_2 1_555 1_555
H53_2 C74_2 1_555 1_555
Cd7 O1 1_555 1_555
C37_2 O7_2 1_555 1_555
C38_2 N4_2 1_555 1_555
C39_2 N4_2 1_555 1_555
O2 Cd7 1_555 1_555
C58_2 N6_2 1_555 1_555
C62_2 N6_2 1_555 1_555
C68_2 C69_2 1_555 1_555
C70_2 N7_2 1_555 1_555
C74_2 N7_2 1_555 1_555
C20_2 C19_2 1_555 1_555
H11_2 C20_2 1_555 1_555
C21_2 C20_2 1_555 1_555
H12_2 C21_2 1_555 1_555
C22_2 C21_2 1_555 1_555
H13_2 C22_2 1_555 1_555
C23_2 C22_2 1_555 1_555
H14_2 C23_2 1_555 1_555
H17_2 C29_2 1_555 1_555
C31_2 C30_2 1_555 1_555
C32_2 C31_2 1_555 1_555
H18_2 C32_2 1_555 1_555
C33_2 C32_2 1_555 1_555
C34_2 C33_2 1_555 1_555
H20_2 C34_2 1_555 1_555
C35_2 C34_2 1_555 1_555
H21_2 C35_2 1_555 1_555
H34_2 C42_2 1_555 1_555
C43_2 C42_2 1_555 1_555
C51_2 C43_2 1_555 1_555
C76_2 H54_2 1_555 1_555
C77_2 H55_2 1_555 1_555
H56_2 C77_2 1_555 1_555
H57_2 C77_2 1_555 1_555
C78_2 H58_2 1_555 1_555
H59_2 C78_2 1_555 1_555
H60_2 C78_2 1_555 1_555
N8_2 C76_2 1_555 1_555
O20 C51_2 1_555 1_555
O22 C51_2 1_555 1_555
O16_2 Cd5_3 1_555 1_555
C19_2 N2_2 1_555 1_555
C23_2 N2_2 1_555 1_555
C29_2 C30_2 1_555 1_555
C31_2 N3_2 1_555 1_555
C35_2 N3_2 1_555 1_555
C76_2 O16_2 1_555 1_555
C77_2 N8_2 1_555 1_555
C78_2 N8_2 1_555 1_555
Ir1_2 C1_2 1_555 1_555
Cd5_4 O6_2 1_555 1_555
Cd7 O4_2 1_555 1_555
C1_2 C2_2 1_555 1_555
C2_2 H1_2 1_555 1_555
C6_2 C1_2 1_555 1_555
C13_2 Ir1_2 1_555 1_555
C14_2 C13_2 1_555 1_555
H8_2 C14_2 1_555 1_555
C15_2 C14_2 1_555 1_555
H9_2 C15_2 1_555 1_555
C16_2 C15_2 1_555 1_555
C17_2 C16_2 1_555 1_555
H10_2 C17_2 1_555 1_555
C18_2 C13_2 1_555 1_555
C24_2 C16_2 1_555 1_555
C25_2 Ir1_2 1_555 1_555
C26_2 C25_2 1_555 1_555
H15_2 C26_2 1_555 1_555
C27_2 C26_2 1_555 1_555
H16_2 C27_2 1_555 1_555
C28_2 C27_2 1_555 1_555
C36_2 C28_2 1_555 1_555
O23 C24_2 1_555 1_555
O4_2 C24_2 1_555 1_555
O25 C36_2 1_555 1_555
O6_2 C36_2 1_555 1_555
O8_2 Cd7 1_555 1_555
H29_2 O8_2 1_555 1_555
H30_2 O8_2 1_555 1_555
O9_2 Cd7 1_555 1_555
H32_2 O9_2 1_555 1_555
C5_2 C6_2 1_555 1_555
C17_2 C18_2 1_555 1_555
C8_2 C7_2 1_555 1_555
H4_2 C8_2 1_555 1_555
H37_2 C48_2 1_555 1_555
C49_2 C48_2 1_555 1_555
H38_2 C49_2 1_555 1_555
C50_2 C49_2 1_555 1_555
H39_2 C50_2 1_555 1_555
H5_2 C9_2 1_555 1_555
C10_2 C9_2 1_555 1_555
H6_2 C10_2 1_555 1_555
C11_2 C10_2 1_555 1_555
H7_2 C11_2 1_555 1_555

#END
