
###############################################################################
#
# This file contains modified crystal structure data generated from the
# MOF subset of the Cambridge Structural Database (CSD) v543 
# hosted by the Cambridge Crystallographic Data Centre (CCDC).
#
# This work is licensed under the Creative Commons
# Attribution-NonCommercial-ShareAlike 4.0 International License.
# To view a copy of this license, visit
# http://creativecommons.org/licenses/by-nc-sa/4.0/
# or send a letter to
# Creative Commons, PO Box 1866, Mountain View, CA 94042, USA.
#
# CIF created using the CSD Python API on 29 September 2022
# The structure has been converted into the P1 space group
# The structure has a 3D framework
# The original CSD entry VEVHOW is in the monoclinic crystal system
# The framework has been calculated to contain at least 10.0% void space
# The void calculation uses a probe of radius 1.32A, grid spacing 0.4
#
###############################################################################

data_VEVHOW
_chemical_formula_moiety         '(C164 H136 Cd10 Ir4 N16 O34)n'
_symmetry_cell_setting           triclinic
_symmetry_space_group_name_H-M   'P 1'
_symmetry_Int_Tables_number      1
_space_group_name_Hall           'P 1'
loop_
_symmetry_equiv_pos_site_id
_symmetry_equiv_pos_as_xyz
1 x,y,z
_cell_length_a                   14.0958(12)
_cell_length_b                   14.6981(13)
_cell_length_c                   21.3773(19)
_cell_angle_alpha                90
_cell_angle_beta                 101.1300(10)
_cell_angle_gamma                90
_cell_volume                     4345.68
loop_
_atom_site_label
_atom_site_type_symbol
_atom_site_fract_x
_atom_site_fract_y
_atom_site_fract_z
O16 O 0.8006(4) 0.0159(3) 0.4689(2)
H67 H 0.8523 0.0219 0.4966
H68 H 0.8122 0.0268 0.4321
Cd5 Cd 0.5000 0.0000 0.5000
Cd1 Cd 0.0000 0.5000 0.0000
Cd3 Cd 0.74587(3) 0.87299(3) 0.47188(2)
Ir2 Ir 0.21714(2) 0.50848(2) 0.38903(2)
C42 C 0.0894(4) 0.3330(4) 0.3760(2)
H35 H 0.1048 0.3315 0.4212
C43 C 0.0313(4) 0.2655(4) 0.3446(3)
H36 H 0.0072 0.2183 0.3676
C44 C 0.0089(5) 0.2681(5) 0.2790(3)
C45 C 0.0470(4) 0.3359(4) 0.2467(3)
H38 H 0.0329 0.3375 0.2014
C46 C 0.1069(3) 0.4026(4) 0.2810(2)
C47 C 0.1544(4) 0.4760(3) 0.2521(2)
C48 C 0.1452(3) 0.4860(3) 0.1863(2)
H39 H 0.1040 0.4464 0.1582
C49 C 0.1965(4) 0.5540(4) 0.1621(2)
C50 C 0.2552(4) 0.6120(4) 0.2043(2)
H40 H 0.2895 0.6592 0.1880
C51 C 0.2646(4) 0.6024(4) 0.2693(2)
H41 H 0.3059 0.6428 0.2967
C52 C 0.2146(3) 0.5344(4) 0.2965(2)
C53 C 0.1923(3) 0.5628(4) 0.0921(2)
C54 C 0.2482(4) 0.4193(4) 0.5253(2)
H42 H 0.2901 0.3780 0.5097
C55 C 0.2377(4) 0.4112(4) 0.5875(2)
H43 H 0.2717 0.3656 0.6144
C56 C 0.1767(5) 0.4706(4) 0.6103(3)
H44 H 0.1682 0.4664 0.6533
C57 C 0.1277(4) 0.5366(4) 0.5701(2)
H45 H 0.0859 0.5782 0.5854
C58 C 0.1404(4) 0.5413(4) 0.5067(2)
C59 C 0.0879(3) 0.6033(4) 0.4576(2)
C60 C 0.1069(3) 0.5915(4) 0.3950(2)
C61 C 0.0486(4) 0.6433(4) 0.3472(2)
H46 H 0.0562 0.6359 0.3043
C64 C 0.0223(4) 0.6674(4) 0.4713(2)
H48 H 0.0146 0.6759 0.5141
C66 C 0.3532(4) 0.3394(4) 0.3965(3)
H49 H 0.2951 0.3049 0.3877
C67 C 0.4401(4) 0.2940(4) 0.4065(3)
H50 H 0.4424 0.2295 0.4051
C68 C 0.5245(4) 0.3451(4) 0.4187(3)
H51 H 0.5857 0.3156 0.4254
C69 C 0.5195(4) 0.4389(4) 0.4211(3)
H52 H 0.5770 0.4743 0.4295
C70 C 0.4291(4) 0.4812(3) 0.4110(2)
C71 C 0.4136(4) 0.5799(3) 0.4162(2)
C72 C 0.3158(3) 0.6071(3) 0.4141(2)
C73 C 0.3022(4) 0.7012(4) 0.4227(2)
H53 H 0.2392 0.7226 0.4244
C74 C 0.3775(4) 0.7639(4) 0.4287(2)
H54 H 0.3649 0.8268 0.4334
C75 C 0.4717(4) 0.7347(3) 0.4279(2)
C76 C 0.4888(3) 0.6421(3) 0.4220(2)
H55 H 0.5526 0.6213 0.4219
C77 C 0.5557(4) 0.7993(3) 0.4361(2)
N5 N 0.1253(3) 0.4009(3) 0.34557(19)
N6 N 0.2018(3) 0.4833(3) 0.4848(2)
N7 N 0.3468(3) 0.4309(3) 0.39872(18)
O9 O 0.2324(3) 0.6313(3) 0.07332(17)
O10 O 0.1528(3) 0.5000(3) 0.05506(17)
O13 O 0.6391(3) 0.7657(3) 0.4374(2)
O14 O 0.5434(3) 0.8836(3) 0.44075(18)
Cd5_2 Cd 0.5000 1.0000 0.5000
O17 O 0.7324(3) 0.8687(3) 0.57332(17)
O20 O 0.8909(3) 0.7961(3) 0.49647(19)
O22 O 0.8361(3) 0.8216(3) 0.39432(18)
Cd1_2 Cd 0.0000 0.5000 1.0000
H3 H 0.0326 0.7766 0.7439
C21 C 0.0199(4) 0.2950(4) 0.6397(2)
H13 H 0.0586 0.2621 0.6735
C22 C 0.0319(4) 0.2812(4) 0.5769(2)
C24 C 0.1057(4) 0.2167(4) 0.5618(2)
C37 C 0.1248(4) 0.3710(4) 0.9215(3)
H22 H 0.1638 0.3499 0.9601
C38 C 0.2483(4) 0.3117(5) 0.8678(3)
H23 H 0.2788 0.2967 0.9123
H24 H 0.2916 0.3546 0.8512
C39 C 0.2397(7) 0.2274(6) 0.8292(5)
H25 H 0.2015 0.1825 0.8476
H26 H 0.3043 0.2027 0.8293
H27 H 0.2077 0.2411 0.7854
C40 C 0.1057(6) 0.4007(6) 0.8098(3)
H28 H 0.0355 0.4001 0.8096
H29 H 0.1167 0.3648 0.7726
C41 C 0.1359(9) 0.4950(7) 0.8021(5)
H30 H 0.1258 0.5312 0.8387
H31 H 0.0976 0.5205 0.7629
H32 H 0.2046 0.4961 0.7996
N4 N 0.1560(3) 0.3567(3) 0.8678(2)
O3 O 0.1091(3) 0.2039(3) 0.50353(19)
O4 O 0.1639(3) 0.1784(3) 0.60568(18)
O7 O 0.0482(3) 0.4101(3) 0.9247(2)
Cd6 Cd 0.25413(3) 0.12701(3) 0.52812(2)
Cd7 Cd 0.24587(3) 0.62701(3) 0.97188(2)
O23 O 0.0434(3) 0.6164(3) 0.94075(18)
Cd1_3 Cd 1.0000 0.5000 0.0000
H37 H 0.9674 0.2234 0.2561
C62 C 0.9801(4) 0.7050(4) 0.3603(2)
H47 H 0.9414 0.7379 0.3265
C63 C 0.9681(4) 0.7188(4) 0.4231(2)
C65 C 0.8943(4) 0.7833(4) 0.4382(2)
C78 C 0.8752(4) 0.6290(4) 0.0785(3)
H56 H 0.8362 0.6501 0.0399
C79 C 0.7517(4) 0.6883(5) 0.1322(3)
H57 H 0.7212 0.7033 0.0877
H58 H 0.7084 0.6454 0.1488
C80 C 0.7603(7) 0.7726(6) 0.1708(5)
H59 H 0.7985 0.8175 0.1524
H60 H 0.6957 0.7973 0.1707
H61 H 0.7923 0.7589 0.2146
C81 C 0.8943(6) 0.5993(6) 0.1902(3)
H62 H 0.9645 0.5999 0.1904
H63 H 0.8833 0.6352 0.2274
C82 C 0.8641(9) 0.5050(7) 0.1979(5)
H64 H 0.8742 0.4688 0.1613
H65 H 0.9024 0.4795 0.2371
H66 H 0.7954 0.5039 0.2004
N8 N 0.8440(3) 0.6433(3) 0.1322(2)
O15 O 0.9518(3) 0.5899(3) 0.0753(2)
Cd9 Cd 0.75413(3) 0.37299(3) 0.02812(2)
O24 O 0.9566(3) 0.3836(3) 0.05925(18)
Cd1_4 Cd 1.0000 0.5000 1.0000
Ir1 Ir 0.78286(2) 0.49152(2) 0.61097(2)
C1 C 0.9106(4) 0.6670(4) 0.6240(2)
H1 H 0.8952 0.6685 0.5788
C2 C 0.9687(4) 0.7345(4) 0.6554(3)
H2 H 0.9928 0.7817 0.6324
C3 C 0.9911(5) 0.7319(5) 0.7210(3)
C4 C 0.9530(4) 0.6641(4) 0.7533(3)
H4 H 0.9671 0.6625 0.7986
C5 C 0.8931(3) 0.5974(4) 0.7190(2)
C6 C 0.8456(4) 0.5240(3) 0.7479(2)
C7 C 0.8548(3) 0.5140(3) 0.8137(2)
H5 H 0.8960 0.5536 0.8418
C8 C 0.8035(4) 0.4460(4) 0.8379(2)
C9 C 0.7448(4) 0.3880(4) 0.7957(2)
H6 H 0.7105 0.3408 0.8120
C10 C 0.7354(4) 0.3976(4) 0.7307(2)
H7 H 0.6941 0.3572 0.7033
C11 C 0.7854(3) 0.4656(4) 0.7035(2)
C12 C 0.8077(3) 0.4372(4) 0.9079(2)
C13 C 0.7518(4) 0.5807(4) 0.4747(2)
H8 H 0.7099 0.6220 0.4903
C14 C 0.7623(4) 0.5888(4) 0.4125(2)
H9 H 0.7283 0.6344 0.3856
C15 C 0.8233(5) 0.5294(4) 0.3897(3)
H10 H 0.8318 0.5336 0.3467
C16 C 0.8723(4) 0.4634(4) 0.4299(2)
H11 H 0.9141 0.4218 0.4146
C17 C 0.8596(4) 0.4587(4) 0.4933(2)
C18 C 0.9121(3) 0.3967(4) 0.5424(2)
C19 C 0.8931(3) 0.4085(4) 0.6050(2)
C20 C 0.9514(4) 0.3567(4) 0.6528(2)
H12 H 0.9438 0.3641 0.6957
C23 C 0.9777(4) 0.3326(4) 0.5287(2)
H14 H 0.9854 0.3241 0.4859
C25 C 0.6468(4) 0.6606(4) 0.6035(3)
H15 H 0.7049 0.6951 0.6123
C26 C 0.5599(4) 0.7060(4) 0.5935(3)
H16 H 0.5576 0.7705 0.5949
C27 C 0.4755(4) 0.6549(4) 0.5813(3)
H17 H 0.4143 0.6844 0.5746
C28 C 0.4805(4) 0.5611(4) 0.5789(3)
H18 H 0.4230 0.5257 0.5705
C29 C 0.5709(4) 0.5188(3) 0.5890(2)
C30 C 0.5864(4) 0.4201(3) 0.5838(2)
C31 C 0.6842(3) 0.3929(3) 0.5859(2)
C32 C 0.6978(4) 0.2988(4) 0.5773(2)
H19 H 0.7608 0.2774 0.5756
C33 C 0.6225(4) 0.2361(4) 0.5713(2)
H20 H 0.6351 0.1732 0.5666
C34 C 0.5283(4) 0.2653(3) 0.5721(2)
C35 C 0.5112(3) 0.3579(3) 0.5780(2)
H21 H 0.4474 0.3787 0.5781
C36 C 0.4443(4) 0.2007(3) 0.5639(2)
N1 N 0.8747(3) 0.5991(3) 0.65443(19)
N2 N 0.7982(3) 0.5167(3) 0.5152(2)
N3 N 0.6532(3) 0.5691(3) 0.60128(18)
O1 O 0.7676(3) 0.3687(3) 0.92668(17)
O2 O 0.8472(3) 0.5000(3) 0.94494(17)
O5 O 0.3609(3) 0.2343(3) 0.5626(2)
O6 O 0.4566(3) 0.1164(3) 0.55925(18)
O18 O 0.2676(3) 0.1313(3) 0.42668(17)
O8 O 0.1994(4) 0.9841(3) 0.5311(2)
H33 H 0.1477 0.9781 0.5034
H34 H 0.1878 0.9732 0.5679
H21_2 H 0.0526 0.8787 0.9219
C36_2 C 0.0557(4) 0.7007(3) 0.9361(2)
O5_2 O 0.1391(3) 0.7343(3) 0.9374(2)
O8_2 O 0.3006(4) 0.4841(3) 0.9689(2)
H33_2 H 0.3523 0.4781 0.9966
H34_2 H 0.3122 0.4732 0.9321
O19 O 0.3909(3) 0.7039(3) 0.99647(19)
O21 O 0.3361(3) 0.6784(3) 0.89432(18)
C1_2 C 0.5894(4) 0.1670(4) 0.8760(2)
H1_2 H 0.6048 0.1685 0.9212
C2_2 C 0.5313(4) 0.2345(4) 0.8446(3)
H2_2 H 0.5072 0.2817 0.8676
C3_2 C 0.5089(5) 0.2319(5) 0.7790(3)
H3_2 H 0.4674 0.2766 0.7561
C4_2 C 0.5470(4) 0.1641(4) 0.7467(3)
H4_2 H 0.5329 0.1625 0.7014
C5_2 C 0.6069(3) 0.0974(4) 0.7810(2)
C6_2 C 0.6544(4) 0.0240(3) 0.7521(2)
C7_2 C 0.6452(3) 0.0140(3) 0.6863(2)
H5_2 H 0.6040 0.0536 0.6582
C25_2 C 0.8532(4) 0.1606(4) 0.8965(3)
H15_2 H 0.7951 0.1951 0.8877
C26_2 C 0.9401(4) 0.2060(4) 0.9065(3)
H16_2 H 0.9424 0.2705 0.9051
C29_2 C 0.9291(4) 0.0188(3) 0.9110(2)
H30_2 H 0.3742 0.0312 0.6613
H31_2 H 0.4024 0.0205 0.7371
N1_2 N 0.6253(3) 0.0991(3) 0.84557(19)
N2_2 N 0.7018(3) 0.0167(3) 0.9848(2)
N3_2 N 0.8468(3) 0.0691(3) 0.89872(18)
O2_2 O 0.6528(3) -0.0000(3) 0.55506(17)
Ir2_2 Ir 0.28286(2) 0.00848(2) 0.11097(2)
C49_2 C 0.3035(4) 0.0540(4) 0.3379(2)
C50_2 C 0.2448(4) 0.1120(4) 0.2957(2)
H40_2 H 0.2105 0.1592 0.3120
C51_2 C 0.2354(4) 0.1024(4) 0.2307(2)
H41_2 H 0.1941 0.1428 0.2033
C52_2 C 0.2854(3) 0.0344(4) 0.2035(2)
C53_2 C 0.3077(3) 0.0628(4) 0.4079(2)
C59_2 C 0.4121(3) 0.1033(4) 0.0424(2)
C60_2 C 0.3931(3) 0.0915(4) 0.1050(2)
C61_2 C 0.4514(4) 0.1433(4) 0.1528(2)
H46_2 H 0.4438 0.1359 0.1957
C62_2 C 0.5199(4) 0.2050(4) 0.1397(2)
H47_2 H 0.5586 0.2379 0.1735
C63_2 C 0.5319(4) 0.2188(4) 0.0769(2)
C64_2 C 0.4777(4) 0.1674(4) 0.0287(2)
C65_2 C 0.6057(4) 0.2833(4) 0.0618(2)
C71_2 C 0.0864(4) 0.0799(3) 0.0838(2)
C72_2 C 0.1842(3) 0.1071(3) 0.0859(2)
C73_2 C 0.1978(4) 0.2012(4) 0.0773(2)
H53_2 H 0.2608 0.2226 0.0756
C74_2 C 0.1225(4) 0.2639(4) 0.0713(2)
H54_2 H 0.1351 0.3268 0.0666
C75_2 C 0.0283(4) 0.2347(3) 0.0721(2)
C76_2 C 0.0112(3) 0.1421(3) 0.0780(2)
C78_2 C 0.6248(4) 0.1290(4) 0.4215(3)
H56_2 H 0.6638 0.1501 0.4601
C79_2 C 0.7483(4) 0.1883(5) 0.3678(3)
H57_2 H 0.7788 0.2033 0.4123
H58_2 H 0.7916 0.1454 0.3512
C80_2 C 0.7397(7) 0.2726(6) 0.3292(5)
H59_2 H 0.7015 0.3175 0.3476
H60_2 H 0.8043 0.2973 0.3293
H61_2 H 0.7077 0.2589 0.2854
C81_2 C 0.6057(6) 0.0993(6) 0.3098(3)
H62_2 H 0.5355 0.0999 0.3096
H63_2 H 0.6167 0.1352 0.2726
C82_2 C 0.6359(9) 0.0050(7) 0.3021(5)
H66_2 H 0.7046 0.0039 0.2996
N8_2 N 0.6560(3) 0.1433(3) 0.3678(2)
O10_2 O 0.3472(3) 0.0000(3) 0.44494(17)
O11 O 0.6091(3) 0.2961(3) 0.00353(19)
O12 O 0.6639(3) 0.3216(3) 0.10568(18)
O15_2 O 0.5482(3) 0.0899(3) 0.4247(2)
C57_2 C 0.3723(4) 0.0366(4) 0.9299(2)
H45_2 H 0.4141 0.0782 0.9146
C58_2 C 0.3596(4) 0.0413(4) 0.9933(2)
H48_2 H 0.4854 0.1759 0.9859
C16_2 C 0.6277(4) 0.9634(4) 0.0701(2)
H11_2 H 0.5859 0.9218 0.0854
C17_2 C 0.6404(4) 0.9587(4) 0.0067(2)
H14_2 H 0.5146 0.8241 0.0141
Ir1_2 Ir 0.71714(2) 0.99152(2) 0.88903(2)
C8_2 C 0.6965(4) 0.9460(4) 0.6621(2)
C9_2 C 0.7552(4) 0.8880(4) 0.7043(2)
H6_2 H 0.7895 0.8408 0.6880
C10_2 C 0.7646(4) 0.8976(4) 0.7693(2)
H7_2 H 0.8059 0.8572 0.7967
C11_2 C 0.7146(3) 0.9656(4) 0.7965(2)
C12_2 C 0.6923(3) 0.9372(4) 0.5921(2)
C18_2 C 0.5879(3) 0.8967(4) 0.9576(2)
C19_2 C 0.6069(3) 0.9085(4) 0.8950(2)
C20_2 C 0.5486(4) 0.8567(4) 0.8472(2)
H12_2 H 0.5562 0.8641 0.8043
C21_2 C 0.4801(4) 0.7950(4) 0.8603(2)
H13_2 H 0.4414 0.7621 0.8265
C22_2 C 0.4681(4) 0.7812(4) 0.9231(2)
C23_2 C 0.5223(4) 0.8326(4) 0.9713(2)
C24_2 C 0.3943(4) 0.7167(4) 0.9382(2)
C30_2 C 0.9136(4) 0.9201(3) 0.9162(2)
C31_2 C 0.8158(3) 0.8929(3) 0.9141(2)
C32_2 C 0.8022(4) 0.7988(4) 0.9227(2)
H19_2 H 0.7392 0.7774 0.9244
C33_2 C 0.8775(4) 0.7361(4) 0.9287(2)
H20_2 H 0.8649 0.6732 0.9334
C34_2 C 0.9717(4) 0.7653(3) 0.9279(2)
C35_2 C 0.9888(3) 0.8579(3) 0.9220(2)
C37_2 C 0.3752(4) 0.8710(4) 0.5785(3)
H22_2 H 0.3362 0.8499 0.5399
C38_2 C 0.2517(4) 0.8117(5) 0.6322(3)
H23_2 H 0.2212 0.7967 0.5877
H24_2 H 0.2084 0.8546 0.6488
C39_2 C 0.2603(7) 0.7274(6) 0.6708(5)
H25_2 H 0.2985 0.6825 0.6524
H26_2 H 0.1957 0.7027 0.6707
H27_2 H 0.2923 0.7411 0.7146
C40_2 C 0.3943(6) 0.9007(6) 0.6902(3)
H28_2 H 0.4645 0.9001 0.6904
H29_2 H 0.3833 0.8648 0.7274
C41_2 C 0.3641(9) 0.9950(7) 0.6979(5)
H32_2 H 0.2954 0.9961 0.7004
N4_2 N 0.3440(3) 0.8567(3) 0.6322(2)
O2_3 O 0.6528(3) 1.0000(3) 0.55506(17)
O7_2 O 0.4518(3) 0.9101(3) 0.5753(2)
C42_2 C 0.4106(4) 0.8330(4) 0.1240(2)
H35_2 H 0.3952 0.8315 0.0788
C43_2 C 0.4687(4) 0.7655(4) 0.1554(3)
H36_2 H 0.4928 0.7183 0.1324
C44_2 C 0.4911(5) 0.7681(5) 0.2210(3)
H37_2 H 0.5326 0.7234 0.2439
C45_2 C 0.4530(4) 0.8359(4) 0.2533(3)
H38_2 H 0.4671 0.8375 0.2986
C46_2 C 0.3931(3) 0.9026(4) 0.2190(2)
C47_2 C 0.3456(4) 0.9760(3) 0.2479(2)
C48_2 C 0.3548(3) 0.9860(3) 0.3137(2)
H39_2 H 0.3960 0.9464 0.3418
C66_2 C 0.1468(4) 0.8394(4) 0.1035(3)
H49_2 H 0.2049 0.8049 0.1123
C67_2 C 0.0599(4) 0.7940(4) 0.0935(3)
H50_2 H 0.0576 0.7295 0.0949
C70_2 C 0.0709(4) 0.9812(3) 0.0890(2)
H64_2 H 0.6258 0.9688 0.3387
H65_2 H 0.5976 0.9795 0.2629
N5_2 N 0.3747(3) 0.9009(3) 0.15443(19)
N6_2 N 0.2982(3) 0.9833(3) 0.0152(2)
N7_2 N 0.1532(3) 0.9309(3) 0.10128(18)
O10_3 O 0.3472(3) 1.0000(3) 0.44494(17)
H55_2 H 0.9474 0.1213 0.0781
C77_2 C 0.9443(4) 0.2993(3) 0.0639(2)
O13_2 O 0.8609(3) 0.2657(3) 0.0626(2)
O16_2 O 0.6994(4) 0.5159(3) 0.0311(2)
H67_2 H 0.6477 0.5219 0.0034
H68_2 H 0.6878 0.5268 0.0679
C27_2 C 0.0245(4) 0.1549(4) 0.9187(3)
H17_2 H 0.0857 0.1844 0.9254
C28_2 C 0.0195(4) 0.0611(4) 0.9211(3)
H18_2 H 0.0770 0.0257 0.9295
C13_2 C 0.7482(4) 0.0807(4) 0.0253(2)
H8_2 H 0.7901 0.1220 0.0097
C14_2 C 0.7377(4) 0.0888(4) 0.0875(2)
H9_2 H 0.7717 0.1344 0.1144
C15_2 C 0.6767(5) 0.0294(4) 0.1103(3)
H10_2 H 0.6682 0.0336 0.1533
C54_2 C 0.2518(4) 0.9193(4) 0.9747(2)
H42_2 H 0.2099 0.8780 0.9903
C55_2 C 0.2623(4) 0.9112(4) 0.9125(2)
H43_2 H 0.2283 0.8656 0.8856
C56_2 C 0.3233(5) 0.9706(4) 0.8897(3)
H44_2 H 0.3318 0.9664 0.8467
C68_2 C 0.9755(4) 0.8451(4) 0.0813(3)
H51_2 H 0.9143 0.8156 0.0746
C69_2 C 0.9805(4) 0.9389(4) 0.0789(3)
H52_2 H 0.9230 0.9743 0.0705
loop_
_geom_bond_atom_site_label_1
_geom_bond_atom_site_label_2
_geom_bond_site_symmetry_1
_geom_bond_site_symmetry_2
H67 O16 1_555 1_555
H68 O16 1_555 1_555
Cd3 O13 1_555 1_555
Ir2 C52 1_555 1_555
C42 H35 1_555 1_555
C43 C42 1_555 1_555
H36 C43 1_555 1_555
C44 C43 1_555 1_555
C45 C44 1_555 1_555
H38 C45 1_555 1_555
C46 C45 1_555 1_555
C47 C46 1_555 1_555
C48 C47 1_555 1_555
H39 C48 1_555 1_555
C49 C48 1_555 1_555
C50 C49 1_555 1_555
H40 C50 1_555 1_555
C51 C50 1_555 1_555
H41 C51 1_555 1_555
C52 C47 1_555 1_555
C53 C49 1_555 1_555
C54 H42 1_555 1_555
C55 C54 1_555 1_555
H43 C55 1_555 1_555
C56 C55 1_555 1_555
H44 C56 1_555 1_555
C57 C56 1_555 1_555
H45 C57 1_555 1_555
C58 C57 1_555 1_555
C59 C58 1_555 1_555
C60 Ir2 1_555 1_555
C61 C60 1_555 1_555
H46 C61 1_555 1_555
C64 C59 1_555 1_555
H48 C64 1_555 1_555
C66 H49 1_555 1_555
C67 C66 1_555 1_555
H50 C67 1_555 1_555
C68 C67 1_555 1_555
H51 C68 1_555 1_555
C69 C68 1_555 1_555
H52 C69 1_555 1_555
C70 C69 1_555 1_555
C71 C70 1_555 1_555
C72 Ir2 1_555 1_555
C73 C72 1_555 1_555
H53 C73 1_555 1_555
C74 C73 1_555 1_555
H54 C74 1_555 1_555
C75 C74 1_555 1_555
C76 C71 1_555 1_555
H55 C76 1_555 1_555
C77 C75 1_555 1_555
N5 Ir2 1_555 1_555
N6 Ir2 1_555 1_555
N7 Ir2 1_555 1_555
O9 C53 1_555 1_555
O10 Cd1 1_555 1_555
O13 C77 1_555 1_555
O14 Cd3 1_555 1_555
Cd5_2 O14 1_555 1_555
O17 Cd3 1_555 1_555
O20 Cd3 1_555 1_555
O22 Cd3 1_555 1_555
C42 N5 1_555 1_555
C46 N5 1_555 1_555
C51 C52 1_555 1_555
C53 O10 1_555 1_555
C54 N6 1_555 1_555
C58 N6 1_555 1_555
C59 C60 1_555 1_555
C66 N7 1_555 1_555
C70 N7 1_555 1_555
C71 C72 1_555 1_555
C75 C76 1_555 1_555
C77 O14 1_555 1_555
H13 C21 1_555 1_555
C22 C21 1_555 1_555
C24 C22 1_555 1_555
C37 H22 1_555 1_555
C38 H23 1_555 1_555
H24 C38 1_555 1_555
C39 C38 1_555 1_555
H25 C39 1_555 1_555
H26 C39 1_555 1_555
H27 C39 1_555 1_555
C40 H28 1_555 1_555
H29 C40 1_555 1_555
C41 C40 1_555 1_555
H30 C41 1_555 1_555
H31 C41 1_555 1_555
H32 C41 1_555 1_555
N4 C37 1_555 1_555
O3 C24 1_555 1_555
O4 C24 1_555 1_555
O7 Cd1_2 1_555 1_555
Cd6 O3 1_555 1_555
O23 Cd1_2 1_555 1_555
C37 O7 1_555 1_555
C38 N4 1_555 1_555
C40 N4 1_555 1_555
O4 Cd6 1_555 1_555
Cd7 O23 1_555 1_555
H47 C62 1_555 1_555
C63 C62 1_555 1_555
C65 C63 1_555 1_555
C78 H56 1_555 1_555
C79 H57 1_555 1_555
H58 C79 1_555 1_555
C80 C79 1_555 1_555
H59 C80 1_555 1_555
H60 C80 1_555 1_555
H61 C80 1_555 1_555
C81 H62 1_555 1_555
H63 C81 1_555 1_555
C82 C81 1_555 1_555
H64 C82 1_555 1_555
H65 C82 1_555 1_555
H66 C82 1_555 1_555
N8 C78 1_555 1_555
O20 C65 1_555 1_555
O22 C65 1_555 1_555
O15 Cd1_3 1_555 1_555
O24 Cd1_3 1_555 1_555
C78 O15 1_555 1_555
C79 N8 1_555 1_555
C81 N8 1_555 1_555
Cd9 O24 1_555 1_555
Cd1_4 O2 1_555 1_555
Cd6 O5 1_555 1_555
Ir1 C11 1_555 1_555
C1 H1 1_555 1_555
C2 C1 1_555 1_555
H2 C2 1_555 1_555
C3 C2 1_555 1_555
C4 C3 1_555 1_555
H4 C4 1_555 1_555
C5 C4 1_555 1_555
C6 C5 1_555 1_555
C7 C6 1_555 1_555
H5 C7 1_555 1_555
C8 C7 1_555 1_555
C9 C8 1_555 1_555
H6 C9 1_555 1_555
C10 C9 1_555 1_555
H7 C10 1_555 1_555
C11 C6 1_555 1_555
C12 C8 1_555 1_555
C13 H8 1_555 1_555
C14 C13 1_555 1_555
H9 C14 1_555 1_555
C15 C14 1_555 1_555
H10 C15 1_555 1_555
C16 C15 1_555 1_555
H11 C16 1_555 1_555
C17 C16 1_555 1_555
C18 C17 1_555 1_555
C19 Ir1 1_555 1_555
C20 C19 1_555 1_555
H12 C20 1_555 1_555
C23 C18 1_555 1_555
H14 C23 1_555 1_555
C25 H15 1_555 1_555
C26 C25 1_555 1_555
H16 C26 1_555 1_555
C27 C26 1_555 1_555
H17 C27 1_555 1_555
C28 C27 1_555 1_555
H18 C28 1_555 1_555
C29 C28 1_555 1_555
C30 C29 1_555 1_555
C31 Ir1 1_555 1_555
C32 C31 1_555 1_555
H19 C32 1_555 1_555
C33 C32 1_555 1_555
H20 C33 1_555 1_555
C34 C33 1_555 1_555
C35 C30 1_555 1_555
H21 C35 1_555 1_555
C36 C34 1_555 1_555
N1 Ir1 1_555 1_555
N2 Ir1 1_555 1_555
N3 Ir1 1_555 1_555
O1 C12 1_555 1_555
O2 C12 1_555 1_555
O5 C36 1_555 1_555
O6 Cd6 1_555 1_555
Cd5 O6 1_555 1_555
O18 Cd6 1_555 1_555
C1 N1 1_555 1_555
C5 N1 1_555 1_555
C10 C11 1_555 1_555
C13 N2 1_555 1_555
C17 N2 1_555 1_555
C18 C19 1_555 1_555
C25 N3 1_555 1_555
C29 N3 1_555 1_555
C30 C31 1_555 1_555
C34 C35 1_555 1_555
C36 O6 1_555 1_555
H33 O8 1_555 1_555
H34 O8 1_555 1_555
Cd7 O5_2 1_555 1_555
O5_2 C36_2 1_555 1_555
O8_2 Cd7 1_555 1_555
H33_2 O8_2 1_555 1_555
H34_2 O8_2 1_555 1_555
O19 Cd7 1_555 1_555
O21 Cd7 1_555 1_555
C36_2 O23 1_555 1_555
Cd5 O2_2 1_555 1_555
C1_2 H1_2 1_555 1_555
C2_2 C1_2 1_555 1_555
H2_2 C2_2 1_555 1_555
C3_2 C2_2 1_555 1_555
H3_2 C3_2 1_555 1_555
C4_2 C3_2 1_555 1_555
H4_2 C4_2 1_555 1_555
C5_2 C4_2 1_555 1_555
C6_2 C5_2 1_555 1_555
C7_2 C6_2 1_555 1_555
H5_2 C7_2 1_555 1_555
C25_2 H15_2 1_555 1_555
C26_2 C25_2 1_555 1_555
H16_2 C26_2 1_555 1_555
Ir2_2 C52_2 1_555 1_555
C50_2 C49_2 1_555 1_555
H40_2 C50_2 1_555 1_555
C51_2 C50_2 1_555 1_555
H41_2 C51_2 1_555 1_555
C53_2 C49_2 1_555 1_555
C60_2 Ir2_2 1_555 1_555
C61_2 C60_2 1_555 1_555
H46_2 C61_2 1_555 1_555
C62_2 C61_2 1_555 1_555
H47_2 C62_2 1_555 1_555
C63_2 C62_2 1_555 1_555
C64_2 C59_2 1_555 1_555
C65_2 C63_2 1_555 1_555
C72_2 Ir2_2 1_555 1_555
C73_2 C72_2 1_555 1_555
H53_2 C73_2 1_555 1_555
C74_2 C73_2 1_555 1_555
H54_2 C74_2 1_555 1_555
C75_2 C74_2 1_555 1_555
C76_2 C71_2 1_555 1_555
C78_2 H56_2 1_555 1_555
C79_2 H57_2 1_555 1_555
H58_2 C79_2 1_555 1_555
C80_2 C79_2 1_555 1_555
H59_2 C80_2 1_555 1_555
H60_2 C80_2 1_555 1_555
H61_2 C80_2 1_555 1_555
C81_2 H62_2 1_555 1_555
H63_2 C81_2 1_555 1_555
C82_2 C81_2 1_555 1_555
H66_2 C82_2 1_555 1_555
N8_2 C78_2 1_555 1_555
O18 C53_2 1_555 1_555
O10_2 Cd5 1_555 1_555
O11 C65_2 1_555 1_555
O12 C65_2 1_555 1_555
O15_2 Cd5 1_555 1_555
Cd9 O11 1_555 1_555
C1_2 N1_2 1_555 1_555
C5_2 N1_2 1_555 1_555
C25_2 N3_2 1_555 1_555
C29_2 N3_2 1_555 1_555
C51_2 C52_2 1_555 1_555
C53_2 O10_2 1_555 1_555
C59_2 C60_2 1_555 1_555
C63_2 C64_2 1_555 1_555
C71_2 C72_2 1_555 1_555
C75_2 C76_2 1_555 1_555
C78_2 O15_2 1_555 1_555
C79_2 N8_2 1_555 1_555
C81_2 N8_2 1_555 1_555
O12 Cd9 1_555 1_555
H45_2 C57_2 1_555 1_555
C58_2 C57_2 1_555 1_555
H11_2 C16_2 1_555 1_555
C17_2 C16_2 1_555 1_555
Cd5_2 O2_3 1_555 1_555
Ir1_2 C11_2 1_555 1_555
C9_2 C8_2 1_555 1_555
H6_2 C9_2 1_555 1_555
C10_2 C9_2 1_555 1_555
H7_2 C10_2 1_555 1_555
C12_2 C8_2 1_555 1_555
C19_2 Ir1_2 1_555 1_555
C20_2 C19_2 1_555 1_555
H12_2 C20_2 1_555 1_555
C21_2 C20_2 1_555 1_555
H13_2 C21_2 1_555 1_555
C22_2 C21_2 1_555 1_555
C23_2 C18_2 1_555 1_555
C24_2 C22_2 1_555 1_555
C31_2 Ir1_2 1_555 1_555
C32_2 C31_2 1_555 1_555
H19_2 C32_2 1_555 1_555
C33_2 C32_2 1_555 1_555
H20_2 C33_2 1_555 1_555
C34_2 C33_2 1_555 1_555
C35_2 C30_2 1_555 1_555
C37_2 H22_2 1_555 1_555
C38_2 H23_2 1_555 1_555
H24_2 C38_2 1_555 1_555
C39_2 C38_2 1_555 1_555
H25_2 C39_2 1_555 1_555
H26_2 C39_2 1_555 1_555
H27_2 C39_2 1_555 1_555
C40_2 H28_2 1_555 1_555
H29_2 C40_2 1_555 1_555
C41_2 C40_2 1_555 1_555
H32_2 C41_2 1_555 1_555
N4_2 C37_2 1_555 1_555
O17 C12_2 1_555 1_555
O2_3 C12_2 1_555 1_555
O19 C24_2 1_555 1_555
O21 C24_2 1_555 1_555
O7_2 Cd5_2 1_555 1_555
C42_2 H35_2 1_555 1_555
C43_2 C42_2 1_555 1_555
H36_2 C43_2 1_555 1_555
C44_2 C43_2 1_555 1_555
H37_2 C44_2 1_555 1_555
C45_2 C44_2 1_555 1_555
H38_2 C45_2 1_555 1_555
C46_2 C45_2 1_555 1_555
C47_2 C46_2 1_555 1_555
C48_2 C47_2 1_555 1_555
H39_2 C48_2 1_555 1_555
C66_2 H49_2 1_555 1_555
C67_2 C66_2 1_555 1_555
H50_2 C67_2 1_555 1_555
O10_3 Cd5_2 1_555 1_555
C10_2 C11_2 1_555 1_555
C18_2 C19_2 1_555 1_555
C22_2 C23_2 1_555 1_555
C30_2 C31_2 1_555 1_555
C34_2 C35_2 1_555 1_555
C37_2 O7_2 1_555 1_555
C38_2 N4_2 1_555 1_555
C40_2 N4_2 1_555 1_555
C42_2 N5_2 1_555 1_555
C46_2 N5_2 1_555 1_555
C66_2 N7_2 1_555 1_555
C70_2 N7_2 1_555 1_555
Cd9 O13_2 1_555 1_555
O13_2 C77_2 1_555 1_555
O16_2 Cd9 1_555 1_555
H67_2 O16_2 1_555 1_555
H68_2 O16_2 1_555 1_555
C77_2 O24 1_555 1_555
H17_2 C27_2 1_555 1_555
C28_2 C27_2 1_555 1_555
H18_2 C28_2 1_555 1_555
C13_2 H8_2 1_555 1_555
C14_2 C13_2 1_555 1_555
H9_2 C14_2 1_555 1_555
C15_2 C14_2 1_555 1_555
H10_2 C15_2 1_555 1_555
C54_2 H42_2 1_555 1_555
C55_2 C54_2 1_555 1_555
H43_2 C55_2 1_555 1_555
C56_2 C55_2 1_555 1_555
H44_2 C56_2 1_555 1_555
H51_2 C68_2 1_555 1_555
C69_2 C68_2 1_555 1_555
H52_2 C69_2 1_555 1_555

#END
