
###############################################################################
#
# This file contains modified crystal structure data generated from the
# MOF subset of the Cambridge Structural Database (CSD) v543 
# hosted by the Cambridge Crystallographic Data Centre (CCDC).
#
# This work is licensed under the Creative Commons
# Attribution-NonCommercial-ShareAlike 4.0 International License.
# To view a copy of this license, visit
# http://creativecommons.org/licenses/by-nc-sa/4.0/
# or send a letter to
# Creative Commons, PO Box 1866, Mountain View, CA 94042, USA.
#
# CIF created using the CSD Python API on 29 September 2022
# The structure has been converted into the P1 space group
# The structure has a 3D framework
# The original CSD entry VEVHUC is in the monoclinic crystal system
# The framework has been calculated to contain at least 10.0% void space
# The void calculation uses a probe of radius 1.32A, grid spacing 0.4
#
###############################################################################

data_VEVHUC
_chemical_formula_moiety         '(C160 H128 Cd10 Ir4 N16 O32)n'
_symmetry_cell_setting           triclinic
_symmetry_space_group_name_H-M   'P 1'
_symmetry_Int_Tables_number      1
_space_group_name_Hall           'P 1'
loop_
_symmetry_equiv_pos_site_id
_symmetry_equiv_pos_as_xyz
1 x,y,z
_cell_length_a                   14.3245(8)
_cell_length_b                   14.2690(9)
_cell_length_c                   21.2590(12)
_cell_angle_alpha                90
_cell_angle_beta                 97.545(2)
_cell_angle_gamma                90
_cell_volume                     4307.64
loop_
_atom_site_label
_atom_site_type_symbol
_atom_site_fract_x
_atom_site_fract_y
_atom_site_fract_z
Cd2 Cd 0.23894(6) 0.12617(6) 0.46441(4)
H10 H 0.0531 0.3884 0.4215
C20 C 0.0126(8) 0.5752(8) 0.4192(6)
H11 H 0.0686 0.5401 0.4310
C21 C 0.0189(9) 0.6726(8) 0.4132(6)
H12 H 0.0776 0.7045 0.4194
C24 C 0.0554(8) 0.2065(7) 0.4353(5)
O3 O 0.0438(6) 0.1202(5) 0.4418(4)
O4 O 0.1369(5) 0.2391(5) 0.4351(4)
Cd5 Cd 0.0000 0.0000 0.5000
O17 O 0.3390(6) 0.1842(7) 0.3860(5)
O19 O 0.3771(7) 0.2069(7) 0.4873(5)
O24 O 0.2409(5) 0.1215(6) 0.5673(3)
O8 O 0.2730(13) 0.9836(8) 0.4481(8)
H31 H 0.2278 0.9496 0.4569
H32 H 0.2802 0.9759 0.4094
Cd5_2 Cd 0.0000 1.0000 0.5000
Ir1 Ir 0.72191(3) 0.49687(3) 0.38584(2)
Cd1 Cd 0.5000 0.5000 0.0000
C1 C 0.6123(7) 0.4121(8) 0.3921(5)
C2 C 0.5594(8) 0.3594(8) 0.3426(6)
H1 H 0.5743 0.3645 0.3005
C3 C 0.4874(8) 0.3014(9) 0.3549(6)
H2 H 0.4512 0.2704 0.3204
C4 C 0.4660(8) 0.2866(8) 0.4149(6)
C5 C 0.5169(7) 0.3354(8) 0.4642(6)
H3 H 0.5045 0.3249 0.5065
C6 C 0.5865(7) 0.4001(7) 0.4528(5)
C7 C 0.6383(8) 0.4551(8) 0.5027(5)
C8 C 0.6222(9) 0.4550(9) 0.5657(5)
H4 H 0.5764 0.4141 0.5792
C9 C 0.6737(10) 0.5157(8) 0.6095(6)
H5 H 0.6655 0.5144 0.6531
C10 C 0.7368(9) 0.5776(8) 0.5872(5)
H6 H 0.7705 0.6214 0.6152
C11 C 0.7497(8) 0.5746(8) 0.5256(5)
H7 H 0.7942 0.6165 0.5115
C12 C 0.3877(9) 0.2215(9) 0.4302(7)
C13 C 0.8200(7) 0.3968(6) 0.4094(4)
C14 C 0.8078(8) 0.2989(7) 0.4175(5)
H8 H 0.7459 0.2747 0.4163
C15 C 0.8818(7) 0.2386(7) 0.4268(5)
H9 H 0.8701 0.1739 0.4325
C16 C 0.9732(7) 0.2689(7) 0.4281(4)
C17 C 0.9906(7) 0.3658(7) 0.4211(5)
C18 C 0.9143(7) 0.4277(7) 0.4133(4)
C19 C 0.9302(8) 0.5301(7) 0.4090(5)
C22 C 0.9328(9) 0.7208(8) 0.3972(6)
H13 H 0.9322 0.7869 0.3919
C23 C 0.8522(9) 0.6725(7) 0.3896(6)
H14 H 0.7951 0.7067 0.3802
C25 C 0.7244(7) 0.4741(7) 0.2937(5)
C26 C 0.7721(6) 0.4032(7) 0.2631(4)
H15 H 0.8127 0.3615 0.2886
C27 C 0.7617(7) 0.3927(7) 0.1994(5)
H16 H 0.7954 0.3445 0.1813
C28 C 0.7019(7) 0.4520(7) 0.1593(5)
C29 C 0.6531(7) 0.5225(7) 0.1868(5)
H17 H 0.6131 0.5633 0.1602
C30 C 0.6618(7) 0.5340(7) 0.2519(5)
C31 C 0.6143(7) 0.6087(7) 0.2821(5)
C32 C 0.5565(8) 0.6769(8) 0.2514(6)
H18 H 0.5437 0.6771 0.2064
C33 C 0.5178(9) 0.7443(9) 0.2862(6)
H19 H 0.4768 0.7904 0.2655
C34 C 0.5386(8) 0.7448(8) 0.3517(6)
H20 H 0.5139 0.7922 0.3761
C35 C 0.5960(7) 0.6754(7) 0.3810(6)
H21 H 0.6107 0.6753 0.4258
C36 C 0.6952(8) 0.4407(8) 0.0896(5)
C37 C 0.4311(17) 0.434(2) 0.1782(11)
H22 H 0.4339 0.3915 0.2148
H23 H 0.3969 0.4907 0.1867
H24 H 0.4951 0.4498 0.1706
C38 C 0.3797(18) 0.3843(19) 0.1192(8)
C39 C 0.2325(17) 0.2867(19) 0.0715(12)
H25 H 0.1780 0.3280 0.0610
H26 H 0.2110 0.2249 0.0836
H27 H 0.2663 0.2805 0.0345
C40 C 0.2664(19) 0.305(2) 0.1904(11)
H28 H 0.2389 0.2421 0.1890
H29 H 0.2193 0.3509 0.2001
H30 H 0.3210 0.3074 0.2233
N1 N 0.7028(7) 0.5153(6) 0.4824(4)
N2 N 0.8463(6) 0.5793(6) 0.3942(4)
N3 N 0.6316(6) 0.6071(6) 0.3460(4)
N4 N 0.2974(16) 0.3280(16) 0.1261(7)
O5 O 0.7409(5) 0.3785(6) 0.0673(3)
O6 O 0.6420(9) 0.4972(7) 0.0544(4)
O7 O 0.4225(13) 0.4007(13) 0.0680(8)
Cd5_3 Cd 1.0000 0.0000 0.5000
Cd7 Cd 0.26106(6) 0.62617(6) 0.03559(4)
O21 O 0.4562(6) 0.6202(5) 0.0582(4)
Cd1_2 Cd 0.5000 0.5000 1.0000
Ir2 Ir 0.27809(3) 0.50313(3) 0.61416(2)
C41 C 0.3877(7) 0.5879(8) 0.6079(5)
C42 C 0.4406(8) 0.6406(8) 0.6574(6)
H33 H 0.4257 0.6355 0.6995
C43 C 0.5126(8) 0.6986(9) 0.6451(6)
H34 H 0.5488 0.7296 0.6796
C44 C 0.5340(8) 0.7134(8) 0.5851(6)
C45 C 0.4831(7) 0.6646(8) 0.5358(6)
H35 H 0.4955 0.6751 0.4935
C46 C 0.4135(7) 0.5999(7) 0.5472(5)
C47 C 0.3617(8) 0.5449(8) 0.4973(5)
C48 C 0.3778(9) 0.5450(9) 0.4343(5)
H36 H 0.4236 0.5859 0.4208
C49 C 0.3263(10) 0.4843(8) 0.3905(6)
H37 H 0.3345 0.4856 0.3469
C50 C 0.2632(9) 0.4224(8) 0.4128(5)
H38 H 0.2295 0.3786 0.3848
C51 C 0.2503(8) 0.4254(8) 0.4744(5)
H39 H 0.2058 0.3835 0.4885
C52 C 0.6123(9) 0.7785(9) 0.5698(7)
C53 C 0.1800(7) 0.6032(6) 0.5906(4)
C54 C 0.1922(8) 0.7011(7) 0.5825(5)
H40 H 0.2541 0.7253 0.5837
C55 C 0.1182(7) 0.7614(7) 0.5732(5)
H41 H 0.1299 0.8261 0.5675
C56 C 0.0268(7) 0.7311(7) 0.5719(4)
C57 C 0.0094(7) 0.6342(7) 0.5789(5)
C58 C 0.0857(7) 0.5723(7) 0.5867(4)
C59 C 0.0698(8) 0.4699(7) 0.5910(5)
C62 C 0.0672(9) 0.2792(8) 0.6028(6)
H45 H 0.0678 0.2131 0.6081
C63 C 0.1478(9) 0.3275(7) 0.6104(6)
H46 H 0.2049 0.2933 0.6198
C65 C 0.2756(7) 0.5259(7) 0.7063(5)
C66 C 0.2279(6) 0.5968(7) 0.7369(4)
H47 H 0.1873 0.6385 0.7114
C67 C 0.2383(7) 0.6073(7) 0.8006(5)
H48 H 0.2046 0.6555 0.8187
C68 C 0.2981(7) 0.5480(7) 0.8407(5)
C69 C 0.3469(7) 0.4775(7) 0.8132(5)
H49 H 0.3869 0.4367 0.8398
C70 C 0.3382(7) 0.4660(7) 0.7481(5)
C71 C 0.3857(7) 0.3913(7) 0.7179(5)
C72 C 0.4435(8) 0.3231(8) 0.7486(6)
H50 H 0.4563 0.3229 0.7936
C73 C 0.4822(9) 0.2557(9) 0.7138(6)
H51 H 0.5232 0.2096 0.7345
C74 C 0.4614(8) 0.2552(8) 0.6483(6)
H52 H 0.4861 0.2078 0.6239
C75 C 0.4040(7) 0.3246(7) 0.6190(6)
H53 H 0.3893 0.3247 0.5742
C76 C 0.3048(8) 0.5593(8) 0.9104(5)
C77 C 0.5689(17) 0.566(2) 0.8218(11)
H54 H 0.5661 0.6085 0.7852
H55 H 0.6031 0.5093 0.8133
H56 H 0.5049 0.5502 0.8294
C78 C 0.6203(18) 0.6157(19) 0.8808(8)
C79 C 0.7675(17) 0.7133(19) 0.9285(12)
H57 H 0.8220 0.6720 0.9390
H58 H 0.7890 0.7751 0.9164
H59 H 0.7337 0.7195 0.9655
C80 C 0.7336(19) 0.695(2) 0.8096(11)
H60 H 0.7611 0.7579 0.8110
H61 H 0.7807 0.6491 0.7999
H62 H 0.6790 0.6926 0.7767
N5 N 0.2972(7) 0.4847(6) 0.5176(4)
N6 N 0.1537(6) 0.4207(6) 0.6058(4)
N7 N 0.3684(6) 0.3929(6) 0.6540(4)
N8 N 0.7026(16) 0.6720(16) 0.8739(7)
O9 O 0.6610(6) 0.8158(7) 0.6140(5)
O10 O 0.6229(7) 0.7931(7) 0.5127(5)
O13 O 0.2591(5) 0.6215(6) 0.9327(3)
O14 O 0.3580(9) 0.5028(7) 0.9456(4)
O15 O 0.5775(13) 0.5993(13) 0.9320(8)
Cd8 Cd 0.76106(6) 0.87383(6) 0.53559(4)
Cd9 Cd 0.73894(6) 0.37383(6) 0.96441(4)
O22 O 0.5438(6) 0.3798(5) 0.9418(4)
Cd5_4 Cd 1.0000 1.0000 0.5000
O16 O 0.7270(13) 0.0164(8) 0.5519(8)
H63 H 0.7722 0.0504 0.5431
H64 H 0.7198 0.0241 0.5906
H42 H 0.9469 0.6116 0.5785
C60 C 0.9874(8) 0.4248(8) 0.5808(6)
H43 H 0.9314 0.4599 0.5690
C61 C 0.9811(9) 0.3274(8) 0.5868(6)
H44 H 0.9224 0.2955 0.5806
C64 C 0.9446(8) 0.7935(7) 0.5647(5)
O11 O 0.9562(6) 0.8798(5) 0.5582(4)
O12 O 0.8631(5) 0.7609(5) 0.5649(4)
O23 O 0.7591(5) 0.8785(6) 0.4327(3)
H35_2 H 0.0045 0.1751 0.0065
C47_2 C 0.1383(8) 0.0449(8) 0.0027(5)
C48_2 C 0.1222(9) 0.0450(9) 0.0657(5)
H36_2 H 0.0764 0.0859 0.0792
H19_2 H 0.0232 0.2904 0.2345
Ir2_2 Ir 0.22191(3) 0.00313(3) 0.88584(2)
C41_2 C 0.1123(7) 0.0879(8) 0.8921(5)
C42_2 C 0.0594(8) 0.1406(8) 0.8426(6)
H33_2 H 0.0743 0.1355 0.8005
C45_2 C 0.0169(7) 0.1646(8) 0.9642(6)
C46_2 C 0.0865(7) 0.0999(7) 0.9528(5)
C53_2 C 0.3200(7) 0.1032(6) 0.9094(4)
C54_2 C 0.3078(8) 0.2011(7) 0.9175(5)
H40_2 H 0.2459 0.2253 0.9163
C55_2 C 0.3818(7) 0.2614(7) 0.9268(5)
H41_2 H 0.3701 0.3261 0.9325
C56_2 C 0.4732(7) 0.2311(7) 0.9281(4)
C57_2 C 0.4906(7) 0.1342(7) 0.9211(5)
H42_2 H 0.5531 0.1116 0.9215
C58_2 C 0.4143(7) 0.0723(7) 0.9133(4)
C64_2 C 0.5554(8) 0.2935(7) 0.9353(5)
C65_2 C 0.2244(7) 0.0259(7) 0.7937(5)
C66_2 C 0.2721(6) 0.0968(7) 0.7631(4)
H47_2 H 0.3127 0.1385 0.7886
C67_2 C 0.2617(7) 0.1073(7) 0.6994(5)
H48_2 H 0.2954 0.1555 0.6813
C68_2 C 0.2019(7) 0.0480(7) 0.6593(5)
C76_2 C 0.1952(8) 0.0593(8) 0.5896(5)
O12_2 O 0.6369(5) 0.2609(5) 0.9351(4)
O14_2 O 0.1420(9) 0.0028(7) 0.5544(4)
O16_2 O 0.7730(13) 0.5164(8) 0.9481(8)
H63_2 H 0.7278 0.5504 0.9569
H64_2 H 0.7802 0.5241 0.9094
O18 O 0.8390(6) 0.3158(7) 0.8860(5)
O20 O 0.8771(7) 0.2931(7) 0.9873(5)
C3_2 C 0.0126(8) 0.8014(9) 0.1451(6)
H2_2 H 0.0488 0.7704 0.1796
C4_2 C 0.0340(8) 0.7866(8) 0.0851(6)
C12_2 C 0.1123(9) 0.7215(9) 0.0698(7)
C37_2 C 0.0689(17) 0.934(2) 0.3218(11)
H22_2 H 0.0661 0.8915 0.2852
H23_2 H 0.1031 0.9907 0.3133
H24_2 H 0.0049 0.9498 0.3294
C38_2 C 0.1203(18) 0.8843(19) 0.3808(8)
C39_2 C 0.2675(17) 0.7867(19) 0.4285(12)
H25_2 H 0.3220 0.8280 0.4390
H26_2 H 0.2890 0.7249 0.4164
H27_2 H 0.2337 0.7805 0.4655
C40_2 C 0.2336(19) 0.805(2) 0.3096(11)
H28_2 H 0.2611 0.7421 0.3110
H29_2 H 0.2807 0.8509 0.2999
H30_2 H 0.1790 0.8074 0.2767
N4_2 N 0.2026(16) 0.8280(16) 0.3739(7)
O1 O 0.1610(6) 0.6842(7) 0.1140(5)
O2 O 0.1229(7) 0.7069(7) 0.0127(5)
O7_2 O 0.0775(13) 0.9007(13) 0.4320(8)
C59_2 C 0.4302(8) 0.9699(7) 0.9090(5)
C60_2 C 0.5126(8) 0.9248(8) 0.9192(6)
H43_2 H 0.5686 0.9599 0.9310
C61_2 C 0.5189(9) 0.8274(8) 0.9132(6)
H44_2 H 0.5776 0.7955 0.9194
C62_2 C 0.4328(9) 0.7792(8) 0.8972(6)
H45_2 H 0.4322 0.7131 0.8919
C63_2 C 0.3522(9) 0.8275(7) 0.8896(6)
H46_2 H 0.2951 0.7933 0.8802
C69_2 C 0.1531(7) 0.9775(7) 0.6868(5)
H49_2 H 0.1131 0.9367 0.6602
C70_2 C 0.1618(7) 0.9660(7) 0.7519(5)
C71_2 C 0.1143(7) 0.8913(7) 0.7821(5)
C72_2 C 0.0565(8) 0.8231(8) 0.7514(6)
H50_2 H 0.0437 0.8229 0.7064
C73_2 C 0.0178(9) 0.7557(9) 0.7862(6)
C74_2 C 0.0386(8) 0.7552(8) 0.8517(6)
H52_2 H 0.0139 0.7078 0.8761
C75_2 C 0.0960(7) 0.8246(7) 0.8810(6)
H53_2 H 0.1107 0.8247 0.9258
N5_2 N 0.2028(7) 0.9847(6) 0.9824(4)
N6_2 N 0.3463(6) 0.9207(6) 0.8942(4)
N7_2 N 0.1316(6) 0.8929(6) 0.8460(4)
C19_2 C 0.5698(8) 0.0301(7) 0.0910(5)
C20_2 C 0.4874(8) 0.0752(8) 0.0808(6)
H11_2 H 0.4314 0.0401 0.0690
C21_2 C 0.4811(9) 0.1726(8) 0.0868(6)
H12_2 H 0.4224 0.2045 0.0806
C22_2 C 0.5672(9) 0.2208(8) 0.1028(6)
H13_2 H 0.5678 0.2869 0.1081
C23_2 C 0.6478(9) 0.1725(7) 0.1104(6)
H14_2 H 0.7049 0.2067 0.1198
C29_2 C 0.8469(7) 0.0225(7) 0.3132(5)
H17_2 H 0.8869 0.0633 0.3398
C30_2 C 0.8382(7) 0.0340(7) 0.2481(5)
C31_2 C 0.8857(7) 0.1087(7) 0.2179(5)
C32_2 C 0.9435(8) 0.1769(8) 0.2486(6)
H18_2 H 0.9563 0.1771 0.2936
C33_2 C 0.9822(9) 0.2443(9) 0.2138(6)
C34_2 C 0.9614(8) 0.2448(8) 0.1483(6)
H20_2 H 0.9861 0.2922 0.1239
C35_2 C 0.9040(7) 0.1754(7) 0.1190(6)
H21_2 H 0.8893 0.1753 0.0742
N1_2 N 0.7972(7) 0.0153(6) 0.0176(4)
N2_2 N 0.6537(6) 0.0793(6) 0.1058(4)
N3_2 N 0.8684(6) 0.1071(6) 0.1540(4)
C43_2 C 0.9874(8) 0.1986(9) 0.8549(6)
H34_2 H 0.9512 0.2296 0.8204
C44_2 C 0.9660(8) 0.2134(8) 0.9149(6)
C52_2 C 0.8877(9) 0.2785(9) 0.9302(7)
C77_2 C 0.9311(17) 0.066(2) 0.6782(11)
H54_2 H 0.9339 0.1085 0.7148
H55_2 H 0.8969 0.0093 0.6867
H56_2 H 0.9951 0.0502 0.6706
C78_2 C 0.8797(18) 0.1157(19) 0.6192(8)
C79_2 C 0.7325(17) 0.2133(19) 0.5715(12)
H57_2 H 0.6780 0.1720 0.5610
H58_2 H 0.7110 0.2751 0.5836
H59_2 H 0.7663 0.2195 0.5345
C80_2 C 0.7664(19) 0.195(2) 0.6904(11)
H60_2 H 0.7389 0.2579 0.6890
H61_2 H 0.7193 0.1491 0.7001
H62_2 H 0.8210 0.1926 0.7233
N8_2 N 0.7974(16) 0.1720(16) 0.6261(7)
O15_2 O 0.9225(13) 0.0993(13) 0.5680(8)
Ir1_2 Ir 0.77809(3) 0.99687(3) 0.11416(2)
C1_2 C 0.8877(7) 0.9121(8) 0.1079(5)
C2_2 C 0.9406(8) 0.8594(8) 0.1574(6)
H1_2 H 0.9257 0.8645 0.1995
C5_2 C 0.9831(7) 0.8354(8) 0.0358(6)
C6_2 C 0.9135(7) 0.9001(7) 0.0472(5)
C13_2 C 0.6800(7) 0.8968(6) 0.0906(4)
C14_2 C 0.6922(8) 0.7989(7) 0.0825(5)
H8_2 H 0.7541 0.7747 0.0837
C15_2 C 0.6182(7) 0.7386(7) 0.0732(5)
H9_2 H 0.6299 0.6739 0.0675
C16_2 C 0.5268(7) 0.7689(7) 0.0719(4)
C17_2 C 0.5094(7) 0.8658(7) 0.0789(5)
H10_2 H 0.4469 0.8884 0.0785
C18_2 C 0.5857(7) 0.9277(7) 0.0867(4)
C24_2 C 0.4446(8) 0.7065(7) 0.0647(5)
C25_2 C 0.7756(7) 0.9741(7) 0.2063(5)
C26_2 C 0.7279(6) 0.9032(7) 0.2369(4)
H15_2 H 0.6873 0.8615 0.2114
C27_2 C 0.7383(7) 0.8927(7) 0.3006(5)
H16_2 H 0.7046 0.8445 0.3187
C28_2 C 0.7981(7) 0.9520(7) 0.3407(5)
C36_2 C 0.8048(8) 0.9407(8) 0.4104(5)
O4_2 O 0.3631(5) 0.7391(5) 0.0649(4)
O6_2 O 0.8580(9) 0.9972(7) 0.4456(4)
O8_2 O 0.2270(13) 0.4836(8) 0.0519(8)
H31_2 H 0.2722 0.4496 0.0431
H32_2 H 0.2198 0.4759 0.0906
H51_2 H 0.9768 0.7096 0.7655
H3_2 H 0.9955 0.8249 0.9935
C7_2 C 0.8617(8) 0.9551(8) 0.9973(5)
C8_2 C 0.8778(9) 0.9550(9) 0.9343(5)
H4_2 H 0.9236 0.9141 0.9208
C49_2 C 0.1737(10) 0.9843(8) 0.1095(6)
H37_2 H 0.1655 0.9856 0.1531
C50_2 C 0.2368(9) 0.9224(8) 0.0872(5)
H38_2 H 0.2705 0.8786 0.1152
C51_2 C 0.2497(8) 0.9254(8) 0.0256(5)
H39_2 H 0.2942 0.8835 0.0115
C9_2 C 0.8263(10) 0.0157(8) 0.8905(6)
H5_2 H 0.8345 0.0144 0.8469
C10_2 C 0.7632(9) 0.0776(8) 0.9128(5)
H6_2 H 0.7295 0.1214 0.8848
C11_2 C 0.7503(8) 0.0746(8) 0.9744(5)
H7_2 H 0.7058 0.1165 0.9885
loop_
_geom_bond_atom_site_label_1
_geom_bond_atom_site_label_2
_geom_bond_site_symmetry_1
_geom_bond_site_symmetry_2
Cd2 O3 1_555 1_555
H11 C20 1_555 1_555
C21 C20 1_555 1_555
H12 C21 1_555 1_555
O3 C24 1_555 1_555
O4 Cd2 1_555 1_555
Cd5 O3 1_555 1_555
O17 Cd2 1_555 1_555
O19 Cd2 1_555 1_555
O24 Cd2 1_555 1_555
C24 O4 1_555 1_555
H31 O8 1_555 1_555
H32 O8 1_555 1_555
Ir1 C1 1_555 1_555
Cd1 O6 1_555 1_555
C1 C2 1_555 1_555
C2 H1 1_555 1_555
C3 C2 1_555 1_555
H2 C3 1_555 1_555
C4 C3 1_555 1_555
C5 C4 1_555 1_555
H3 C5 1_555 1_555
C6 C1 1_555 1_555
C7 C6 1_555 1_555
C8 C7 1_555 1_555
H4 C8 1_555 1_555
C9 C8 1_555 1_555
H5 C9 1_555 1_555
C10 C9 1_555 1_555
H6 C10 1_555 1_555
C11 C10 1_555 1_555
H7 C11 1_555 1_555
C12 C4 1_555 1_555
C13 Ir1 1_555 1_555
C14 C13 1_555 1_555
H8 C14 1_555 1_555
C15 C14 1_555 1_555
H9 C15 1_555 1_555
C16 C15 1_555 1_555
C17 C16 1_555 1_555
C18 C13 1_555 1_555
C19 C18 1_555 1_555
H13 C22 1_555 1_555
C23 C22 1_555 1_555
H14 C23 1_555 1_555
C25 Ir1 1_555 1_555
C26 C25 1_555 1_555
H15 C26 1_555 1_555
C27 C26 1_555 1_555
H16 C27 1_555 1_555
C28 C27 1_555 1_555
C29 C28 1_555 1_555
H17 C29 1_555 1_555
C30 C25 1_555 1_555
C31 C30 1_555 1_555
C32 C31 1_555 1_555
H18 C32 1_555 1_555
C33 C32 1_555 1_555
H19 C33 1_555 1_555
C34 C33 1_555 1_555
H20 C34 1_555 1_555
C35 C34 1_555 1_555
H21 C35 1_555 1_555
C36 C28 1_555 1_555
C37 H22 1_555 1_555
H23 C37 1_555 1_555
H24 C37 1_555 1_555
C38 C37 1_555 1_555
C39 H25 1_555 1_555
H26 C39 1_555 1_555
H27 C39 1_555 1_555
C40 H28 1_555 1_555
H29 C40 1_555 1_555
H30 C40 1_555 1_555
N1 Ir1 1_555 1_555
N2 Ir1 1_555 1_555
N3 Ir1 1_555 1_555
N4 C38 1_555 1_555
O17 C12 1_555 1_555
O19 C12 1_555 1_555
O5 C36 1_555 1_555
O6 C36 1_555 1_555
O7 Cd1 1_555 1_555
O21 Cd1 1_555 1_555
C5 C6 1_555 1_555
C7 N1 1_555 1_555
C11 N1 1_555 1_555
C17 C18 1_555 1_555
C19 N2 1_555 1_555
C23 N2 1_555 1_555
C29 C30 1_555 1_555
C31 N3 1_555 1_555
C35 N3 1_555 1_555
C38 O7 1_555 1_555
C39 N4 1_555 1_555
C40 N4 1_555 1_555
Cd7 O21 1_555 1_555
Ir2 C41 1_555 1_555
C41 C42 1_555 1_555
C42 H33 1_555 1_555
C43 C42 1_555 1_555
H34 C43 1_555 1_555
C44 C43 1_555 1_555
C45 C44 1_555 1_555
H35 C45 1_555 1_555
C46 C41 1_555 1_555
C47 C46 1_555 1_555
C48 C47 1_555 1_555
H36 C48 1_555 1_555
C49 C48 1_555 1_555
H37 C49 1_555 1_555
C50 C49 1_555 1_555
H38 C50 1_555 1_555
C51 C50 1_555 1_555
H39 C51 1_555 1_555
C52 C44 1_555 1_555
C53 Ir2 1_555 1_555
C54 C53 1_555 1_555
H40 C54 1_555 1_555
C55 C54 1_555 1_555
H41 C55 1_555 1_555
C56 C55 1_555 1_555
C57 C56 1_555 1_555
C58 C53 1_555 1_555
C59 C58 1_555 1_555
H45 C62 1_555 1_555
C63 C62 1_555 1_555
H46 C63 1_555 1_555
C65 Ir2 1_555 1_555
C66 C65 1_555 1_555
H47 C66 1_555 1_555
C67 C66 1_555 1_555
H48 C67 1_555 1_555
C68 C67 1_555 1_555
C69 C68 1_555 1_555
H49 C69 1_555 1_555
C70 C65 1_555 1_555
C71 C70 1_555 1_555
C72 C71 1_555 1_555
H50 C72 1_555 1_555
C73 C72 1_555 1_555
H51 C73 1_555 1_555
C74 C73 1_555 1_555
H52 C74 1_555 1_555
C75 C74 1_555 1_555
H53 C75 1_555 1_555
C76 C68 1_555 1_555
C77 H54 1_555 1_555
H55 C77 1_555 1_555
H56 C77 1_555 1_555
C78 C77 1_555 1_555
C79 H57 1_555 1_555
H58 C79 1_555 1_555
H59 C79 1_555 1_555
C80 H60 1_555 1_555
H61 C80 1_555 1_555
H62 C80 1_555 1_555
N5 Ir2 1_555 1_555
N6 Ir2 1_555 1_555
N7 Ir2 1_555 1_555
N8 C78 1_555 1_555
O9 C52 1_555 1_555
O10 C52 1_555 1_555
O13 C76 1_555 1_555
O14 Cd1_2 1_555 1_555
O15 Cd1_2 1_555 1_555
Cd8 O9 1_555 1_555
O22 Cd1_2 1_555 1_555
C45 C46 1_555 1_555
C47 N5 1_555 1_555
C51 N5 1_555 1_555
C57 C58 1_555 1_555
C59 N6 1_555 1_555
C63 N6 1_555 1_555
C69 C70 1_555 1_555
C71 N7 1_555 1_555
C75 N7 1_555 1_555
C76 O14 1_555 1_555
C78 O15 1_555 1_555
C79 N8 1_555 1_555
C80 N8 1_555 1_555
O10 Cd8 1_555 1_555
Cd9 O22 1_555 1_555
H63 O16 1_555 1_555
H64 O16 1_555 1_555
Cd8 O11 1_555 1_555
H43 C60 1_555 1_555
C61 C60 1_555 1_555
H44 C61 1_555 1_555
O11 C64 1_555 1_555
O12 Cd8 1_555 1_555
Cd5_4 O11 1_555 1_555
O23 Cd8 1_555 1_555
C64 O12 1_555 1_555
C48_2 C47_2 1_555 1_555
H36_2 C48_2 1_555 1_555
Ir2_2 C41_2 1_555 1_555
C41_2 C42_2 1_555 1_555
C42_2 H33_2 1_555 1_555
C46_2 C41_2 1_555 1_555
C53_2 Ir2_2 1_555 1_555
C54_2 C53_2 1_555 1_555
H40_2 C54_2 1_555 1_555
C55_2 C54_2 1_555 1_555
H41_2 C55_2 1_555 1_555
C56_2 C55_2 1_555 1_555
C57_2 C56_2 1_555 1_555
H42_2 C57_2 1_555 1_555
C58_2 C53_2 1_555 1_555
C64_2 C56_2 1_555 1_555
C65_2 Ir2_2 1_555 1_555
C66_2 C65_2 1_555 1_555
H47_2 C66_2 1_555 1_555
C67_2 C66_2 1_555 1_555
H48_2 C67_2 1_555 1_555
C68_2 C67_2 1_555 1_555
C76_2 C68_2 1_555 1_555
O22 C64_2 1_555 1_555
O12_2 Cd9 1_555 1_555
O24 C76_2 1_555 1_555
O14_2 Cd5 1_555 1_555
O16_2 Cd9 1_555 1_555
H63_2 O16_2 1_555 1_555
H64_2 O16_2 1_555 1_555
O18 Cd9 1_555 1_555
O20 Cd9 1_555 1_555
C45_2 C46_2 1_555 1_555
C57_2 C58_2 1_555 1_555
C64_2 O12_2 1_555 1_555
C76_2 O14_2 1_555 1_555
H2_2 C3_2 1_555 1_555
C4_2 C3_2 1_555 1_555
C12_2 C4_2 1_555 1_555
C37_2 H22_2 1_555 1_555
H23_2 C37_2 1_555 1_555
H24_2 C37_2 1_555 1_555
C38_2 C37_2 1_555 1_555
C39_2 H25_2 1_555 1_555
H26_2 C39_2 1_555 1_555
H27_2 C39_2 1_555 1_555
C40_2 H28_2 1_555 1_555
H29_2 C40_2 1_555 1_555
H30_2 C40_2 1_555 1_555
N4_2 C38_2 1_555 1_555
O1 C12_2 1_555 1_555
O2 C12_2 1_555 1_555
O7_2 Cd5_2 1_555 1_555
C60_2 C59_2 1_555 1_555
H43_2 C60_2 1_555 1_555
C61_2 C60_2 1_555 1_555
H44_2 C61_2 1_555 1_555
C62_2 C61_2 1_555 1_555
H45_2 C62_2 1_555 1_555
C63_2 C62_2 1_555 1_555
H46_2 C63_2 1_555 1_555
H49_2 C69_2 1_555 1_555
C71_2 C70_2 1_555 1_555
C72_2 C71_2 1_555 1_555
H50_2 C72_2 1_555 1_555
C73_2 C72_2 1_555 1_555
C74_2 C73_2 1_555 1_555
H52_2 C74_2 1_555 1_555
C75_2 C74_2 1_555 1_555
H53_2 C75_2 1_555 1_555
Cd7 O1 1_555 1_555
C38_2 O7_2 1_555 1_555
C39_2 N4_2 1_555 1_555
C40_2 N4_2 1_555 1_555
O2 Cd7 1_555 1_555
C59_2 N6_2 1_555 1_555
C63_2 N6_2 1_555 1_555
C69_2 C70_2 1_555 1_555
C71_2 N7_2 1_555 1_555
C75_2 N7_2 1_555 1_555
C20_2 C19_2 1_555 1_555
H11_2 C20_2 1_555 1_555
C21_2 C20_2 1_555 1_555
H12_2 C21_2 1_555 1_555
C22_2 C21_2 1_555 1_555
H13_2 C22_2 1_555 1_555
C23_2 C22_2 1_555 1_555
H14_2 C23_2 1_555 1_555
H17_2 C29_2 1_555 1_555
C31_2 C30_2 1_555 1_555
C32_2 C31_2 1_555 1_555
H18_2 C32_2 1_555 1_555
C33_2 C32_2 1_555 1_555
C34_2 C33_2 1_555 1_555
H20_2 C34_2 1_555 1_555
C35_2 C34_2 1_555 1_555
H21_2 C35_2 1_555 1_555
H34_2 C43_2 1_555 1_555
C44_2 C43_2 1_555 1_555
C52_2 C44_2 1_555 1_555
C77_2 H54_2 1_555 1_555
H55_2 C77_2 1_555 1_555
H56_2 C77_2 1_555 1_555
C78_2 C77_2 1_555 1_555
C79_2 H57_2 1_555 1_555
H58_2 C79_2 1_555 1_555
H59_2 C79_2 1_555 1_555
C80_2 H60_2 1_555 1_555
H61_2 C80_2 1_555 1_555
H62_2 C80_2 1_555 1_555
N8_2 C78_2 1_555 1_555
O18 C52_2 1_555 1_555
O20 C52_2 1_555 1_555
O15_2 Cd5_3 1_555 1_555
C19_2 N2_2 1_555 1_555
C23_2 N2_2 1_555 1_555
C29_2 C30_2 1_555 1_555
C31_2 N3_2 1_555 1_555
C35_2 N3_2 1_555 1_555
C78_2 O15_2 1_555 1_555
C79_2 N8_2 1_555 1_555
C80_2 N8_2 1_555 1_555
Ir1_2 C1_2 1_555 1_555
Cd5_4 O6_2 1_555 1_555
C1_2 C2_2 1_555 1_555
C2_2 H1_2 1_555 1_555
C6_2 C1_2 1_555 1_555
C13_2 Ir1_2 1_555 1_555
C14_2 C13_2 1_555 1_555
H8_2 C14_2 1_555 1_555
C15_2 C14_2 1_555 1_555
H9_2 C15_2 1_555 1_555
C16_2 C15_2 1_555 1_555
C17_2 C16_2 1_555 1_555
H10_2 C17_2 1_555 1_555
C18_2 C13_2 1_555 1_555
C24_2 C16_2 1_555 1_555
C25_2 Ir1_2 1_555 1_555
C26_2 C25_2 1_555 1_555
H15_2 C26_2 1_555 1_555
C27_2 C26_2 1_555 1_555
H16_2 C27_2 1_555 1_555
C28_2 C27_2 1_555 1_555
C36_2 C28_2 1_555 1_555
O21 C24_2 1_555 1_555
O4_2 Cd7 1_555 1_555
O23 C36_2 1_555 1_555
O6_2 C36_2 1_555 1_555
O8_2 Cd7 1_555 1_555
H31_2 O8_2 1_555 1_555
H32_2 O8_2 1_555 1_555
C5_2 C6_2 1_555 1_555
C17_2 C18_2 1_555 1_555
C24_2 O4_2 1_555 1_555
C8_2 C7_2 1_555 1_555
H4_2 C8_2 1_555 1_555
H37_2 C49_2 1_555 1_555
C50_2 C49_2 1_555 1_555
H38_2 C50_2 1_555 1_555
C51_2 C50_2 1_555 1_555
H39_2 C51_2 1_555 1_555
H5_2 C9_2 1_555 1_555
C10_2 C9_2 1_555 1_555
H6_2 C10_2 1_555 1_555
C11_2 C10_2 1_555 1_555
H7_2 C11_2 1_555 1_555

#END
