
###############################################################################
#
# This file contains modified crystal structure data generated from the
# MOF subset of the Cambridge Structural Database (CSD) v543 
# hosted by the Cambridge Crystallographic Data Centre (CCDC).
#
# This work is licensed under the Creative Commons
# Attribution-NonCommercial-ShareAlike 4.0 International License.
# To view a copy of this license, visit
# http://creativecommons.org/licenses/by-nc-sa/4.0/
# or send a letter to
# Creative Commons, PO Box 1866, Mountain View, CA 94042, USA.
#
# CIF created using the CSD Python API on 29 September 2022
# The structure has been converted into the P1 space group
# The structure has a 3D framework
# The original CSD entry VEVJUD is in the cubic crystal system
# The framework has been calculated to contain at least 10.0% void space
# The void calculation uses a probe of radius 1.32A, grid spacing 0.4
#
###############################################################################

data_VEVJUD
_chemical_formula_moiety         '(C672 H480 Cu168 I36 N384 S96)n'
_symmetry_cell_setting           triclinic
_symmetry_space_group_name_H-M   'P 1'
_symmetry_Int_Tables_number      1
_space_group_name_Hall           'P 1'
loop_
_symmetry_equiv_pos_site_id
_symmetry_equiv_pos_as_xyz
1 x,y,z
_cell_length_a                   41.856(3)
_cell_length_b                   41.856(3)
_cell_length_c                   41.856(3)
_cell_angle_alpha                90
_cell_angle_beta                 90
_cell_angle_gamma                90
_cell_volume                     73328.6
loop_
_atom_site_label
_atom_site_type_symbol
_atom_site_fract_x
_atom_site_fract_y
_atom_site_fract_z
I1 I 0.802052(15) 0.661963(16) 0.016083(15)
Cu1 Cu 0.73887(2) 0.73740(2) 0.19622(2)
Cu2 Cu 0.73892(3) 0.64831(3) 0.02981(2)
S1 S 0.78601(4) 0.68833(4) 0.23944(4)
C1 C 0.7452(3) 0.6710(3) 0.0952(2)
H1 H 0.7589 0.6529 0.0962
C2 C 0.7418(3) 0.6899(3) 0.1227(3)
C3 C 0.7107(4) 0.7022(3) 0.0675(3)
H2 H 0.6982 0.7057 0.0489
C4 C 0.7217(4) 0.7155(3) 0.1213(3)
H3 H 0.7174 0.7279 0.1398
C5 C 0.7080(4) 0.7227(3) 0.0926(3)
H4 H 0.6966 0.7422 0.0901
N1 N 0.7306(2) 0.67683(19) 0.06849(17)
N2 N 0.75885(16) 0.69773(15) 0.18014(15)
N3 N 0.7796(3) 0.6564(3) 0.1527(2)
H5 H 0.7852 0.6438 0.1368
C6 C 0.7590(3) 0.6814(2) 0.1529(2)
N4 N 0.7895(3) 0.6561(3) 0.1841(2)
C7 C 0.7780(2) 0.68047(19) 0.20050(18)
I3 I 0.733917(15) 0.588037(16) 0.052052(15)
Cu3 Cu 0.73740(2) 0.69622(2) 0.26113(2)
Cu4 Cu 0.80378(2) 0.73887(2) 0.23740(2)
Cu6 Cu 0.77981(2) 0.60169(3) 0.01108(3)
S2 S 0.68833(4) 0.73944(4) 0.21399(4)
S3 S 0.76056(4) 0.78601(4) 0.18833(4)
I2 I 0.697948(15) 0.661963(16) 0.983917(15)
Cu5 Cu 0.76108(3) 0.64831(3) 0.97019(2)
I1_2 I 0.588037(16) 0.552052(15) 0.266083(15)
Cu1_2 Cu 0.51260(2) 0.48887(2) 0.44622(2)
Cu2_2 Cu 0.60169(3) 0.48892(3) 0.27981(2)
S1_2 S 0.56167(4) 0.53601(4) 0.48944(4)
C1_2 C 0.5790(3) 0.4952(3) 0.3452(2)
H1_2 H 0.5971 0.5089 0.3462
C2_2 C 0.5601(3) 0.4918(3) 0.3727(3)
C3_2 C 0.5478(3) 0.4607(4) 0.3175(3)
H2_2 H 0.5443 0.4482 0.2989
C4_2 C 0.5345(3) 0.4717(4) 0.3713(3)
H3_2 H 0.5221 0.4674 0.3898
C5_2 C 0.5273(3) 0.4580(4) 0.3426(3)
H4_2 H 0.5078 0.4466 0.3401
N1_2 N 0.57317(19) 0.4806(2) 0.31849(17)
N2_2 N 0.55227(15) 0.50885(16) 0.43014(15)
N3_2 N 0.5936(3) 0.5296(3) 0.4027(2)
H5_2 H 0.6062 0.5352 0.3868
C6_2 C 0.5686(2) 0.5090(3) 0.4029(2)
N4_2 N 0.5939(3) 0.5395(3) 0.4341(2)
C7_2 C 0.56953(19) 0.5280(2) 0.45050(18)
I2_2 I 0.588037(16) 0.447948(15) 0.233917(15)
I3_2 I 0.661963(16) 0.483917(15) 0.302052(15)
Cu3_2 Cu 0.55378(2) 0.48740(2) 0.51113(2)
Cu4_2 Cu 0.51113(2) 0.55378(2) 0.48740(2)
Cu5_2 Cu 0.60169(3) 0.51108(3) 0.22019(2)
Cu6_2 Cu 0.64831(3) 0.52981(2) 0.26108(3)
S2_2 S 0.51056(4) 0.43833(4) 0.46399(4)
S3_2 S 0.46399(4) 0.51056(4) 0.43833(4)
I1_3 I 0.197948(15) 0.838037(16) 0.016083(15)
Cu1_3 Cu 0.26113(2) 0.76260(2) 0.19622(2)
Cu2_3 Cu 0.26108(3) 0.85169(3) 0.02981(2)
S1_3 S 0.21399(4) 0.81167(4) 0.23944(4)
C1_3 C 0.2548(3) 0.8290(3) 0.0952(2)
H1_3 H 0.2411 0.8471 0.0962
C2_3 C 0.2582(3) 0.8101(3) 0.1227(3)
C3_3 C 0.2893(4) 0.7978(3) 0.0675(3)
H2_3 H 0.3018 0.7943 0.0489
C4_3 C 0.2783(4) 0.7845(3) 0.1213(3)
H3_3 H 0.2826 0.7721 0.1398
C5_3 C 0.2920(4) 0.7773(3) 0.0926(3)
H4_3 H 0.3034 0.7578 0.0901
N1_3 N 0.2694(2) 0.82317(19) 0.06849(17)
N2_3 N 0.24115(16) 0.80227(15) 0.18014(15)
N3_3 N 0.2204(3) 0.8436(3) 0.1527(2)
H5_3 H 0.2148 0.8562 0.1368
C6_3 C 0.2410(3) 0.8186(2) 0.1529(2)
N4_3 N 0.2105(3) 0.8439(3) 0.1841(2)
C7_3 C 0.2220(2) 0.81953(19) 0.20050(18)
I3_3 I 0.266083(15) 0.911963(16) 0.052052(15)
Cu3_3 Cu 0.26260(2) 0.80378(2) 0.26113(2)
Cu4_3 Cu 0.19622(2) 0.76113(2) 0.23740(2)
Cu6_3 Cu 0.22019(2) 0.89831(3) 0.01108(3)
S2_3 S 0.31167(4) 0.76056(4) 0.21399(4)
S3_3 S 0.23944(4) 0.71399(4) 0.18833(4)
I2_3 I 0.302052(15) 0.838037(16) 0.983917(15)
Cu5_3 Cu 0.23892(3) 0.85169(3) 0.97019(2)
S3_4 S 0.03601(4) 0.48944(4) 0.93833(4)
Cu3_4 Cu 0.94622(2) 0.51260(2) 0.01113(2)
I1_4 I 0.911963(16) 0.447948(15) 0.766083(15)
Cu1_4 Cu 0.98740(2) 0.51113(2) 0.94622(2)
Cu2_4 Cu 0.89831(3) 0.51108(3) 0.77981(2)
S1_4 S 0.93833(4) 0.46399(4) 0.98944(4)
C1_4 C 0.9210(3) 0.5048(3) 0.8452(2)
H1_4 H 0.9029 0.4911 0.8462
C2_4 C 0.9399(3) 0.5082(3) 0.8727(3)
C3_4 C 0.9522(3) 0.5393(4) 0.8175(3)
H2_4 H 0.9557 0.5518 0.7989
C4_4 C 0.9655(3) 0.5283(4) 0.8713(3)
H3_4 H 0.9779 0.5326 0.8898
C5_4 C 0.9727(3) 0.5420(4) 0.8426(3)
H4_4 H 0.9922 0.5534 0.8401
N1_4 N 0.92683(19) 0.5194(2) 0.81849(17)
N2_4 N 0.94773(15) 0.49115(16) 0.93014(15)
N3_4 N 0.9064(3) 0.4704(3) 0.9027(2)
H5_4 H 0.8938 0.4648 0.8868
C6_4 C 0.9314(2) 0.4910(3) 0.9029(2)
N4_4 N 0.9061(3) 0.4605(3) 0.9341(2)
C7_4 C 0.93047(19) 0.4720(2) 0.95050(18)
I2_4 I 0.911963(16) 0.552052(15) 0.733917(15)
I3_4 I 0.838037(16) 0.516083(15) 0.802052(15)
Cu4_4 Cu 0.98887(2) 0.44622(2) 0.98740(2)
Cu5_4 Cu 0.89831(3) 0.48892(3) 0.72019(2)
Cu6_4 Cu 0.85169(3) 0.47019(2) 0.76108(3)
S2_4 S 0.98944(4) 0.56167(4) 0.96399(4)
I1_5 I 0.052052(15) 0.233917(15) 0.411963(16)
S1_5 S 0.03601(4) 0.01056(4) 0.43833(4)
H1_5 H 0.0089 0.1538 0.4029
N2_5 N 0.00885(16) 0.06986(15) 0.44773(15)
N3_5 N 0.0296(3) 0.0973(2) 0.4064(3)
H5_5 H 0.0352 0.1132 0.3938
C6_5 C 0.0090(3) 0.0971(2) 0.4314(2)
N4_5 N 0.0395(3) 0.0659(2) 0.4061(3)
C7_5 C 0.0280(2) 0.04950(18) 0.43047(19)
Cu4_5 Cu 0.05378(2) 0.01260(2) 0.48887(2)
Cu5_5 Cu 0.01108(3) 0.27981(2) 0.39831(3)
Cu6_5 Cu 0.02981(2) 0.23892(3) 0.35169(3)
S3_5 S 0.01056(4) 0.06167(4) 0.53601(4)
Cu1_5 Cu 0.98887(2) 0.05378(2) 0.48740(2)
Cu2_5 Cu 0.98892(3) 0.22019(2) 0.39831(3)
C1_5 C 0.9952(3) 0.1548(2) 0.4210(3)
C2_5 C 0.9918(3) 0.1273(3) 0.4399(3)
C3_5 C 0.9607(4) 0.1825(3) 0.4522(3)
H2_5 H 0.9482 0.2011 0.4557
C4_5 C 0.9717(4) 0.1287(3) 0.4655(3)
H3_5 H 0.9674 0.1102 0.4779
C5_5 C 0.9580(4) 0.1574(3) 0.4727(3)
H4_5 H 0.9466 0.1599 0.4922
N1_5 N 0.9806(2) 0.18151(17) 0.42683(19)
I2_5 I 0.947948(15) 0.266083(15) 0.411963(16)
I3_5 I 0.983917(15) 0.197948(15) 0.338037(16)
S2_5 S 0.93833(4) 0.03601(4) 0.48944(4)
Cu3_5 Cu 0.98740(2) 0.98887(2) 0.44622(2)
I1_6 I 0.802052(15) 0.338037(16) 0.483917(15)
Cu1_6 Cu 0.73887(2) 0.26260(2) 0.30378(2)
Cu2_6 Cu 0.73892(3) 0.35169(3) 0.47019(2)
S1_6 S 0.78601(4) 0.31167(4) 0.26056(4)
C1_6 C 0.7452(3) 0.3290(3) 0.4048(2)
H1_6 H 0.7589 0.3471 0.4038
C2_6 C 0.7418(3) 0.3101(3) 0.3773(3)
C3_6 C 0.7107(4) 0.2978(3) 0.4325(3)
H2_6 H 0.6982 0.2943 0.4511
C4_6 C 0.7217(4) 0.2845(3) 0.3787(3)
H3_6 H 0.7174 0.2721 0.3602
C5_6 C 0.7080(4) 0.2773(3) 0.4074(3)
H4_6 H 0.6966 0.2578 0.4099
N1_6 N 0.7306(2) 0.32317(19) 0.43151(17)
N2_6 N 0.75885(16) 0.30227(15) 0.31986(15)
N3_6 N 0.7796(3) 0.3436(3) 0.3473(2)
H5_6 H 0.7852 0.3562 0.3632
C6_6 C 0.7590(3) 0.3186(2) 0.3471(2)
N4_6 N 0.7895(3) 0.3439(3) 0.3159(2)
C7_6 C 0.7780(2) 0.31953(19) 0.29950(18)
I2_6 I 0.697948(15) 0.338037(16) 0.516083(15)
I3_6 I 0.733917(15) 0.411963(16) 0.447948(15)
Cu3_6 Cu 0.73740(2) 0.30378(2) 0.23887(2)
Cu4_6 Cu 0.80378(2) 0.26113(2) 0.26260(2)
Cu5_6 Cu 0.76108(3) 0.35169(3) 0.52981(2)
Cu6_6 Cu 0.77981(2) 0.39831(3) 0.48892(3)
S2_6 S 0.68833(4) 0.26056(4) 0.28601(4)
S3_6 S 0.76056(4) 0.21399(4) 0.31167(4)
I1_7 I 0.552052(15) 0.266083(15) 0.588037(16)
Cu1_7 Cu 0.48887(2) 0.44622(2) 0.51260(2)
Cu2_7 Cu 0.48892(3) 0.27981(2) 0.60169(3)
S1_7 S 0.53601(4) 0.48944(4) 0.56167(4)
C1_7 C 0.4952(3) 0.3452(2) 0.5790(3)
H1_7 H 0.5089 0.3462 0.5971
C2_7 C 0.4918(3) 0.3727(3) 0.5601(3)
C3_7 C 0.4607(4) 0.3175(3) 0.5478(3)
H2_7 H 0.4482 0.2989 0.5443
C4_7 C 0.4717(4) 0.3713(3) 0.5345(3)
H3_7 H 0.4674 0.3898 0.5221
C5_7 C 0.4580(4) 0.3426(3) 0.5273(3)
H4_7 H 0.4466 0.3401 0.5078
N1_7 N 0.4806(2) 0.31849(17) 0.57317(19)
N2_7 N 0.50885(16) 0.43014(15) 0.55227(15)
N3_7 N 0.5296(3) 0.4027(2) 0.5936(3)
H5_7 H 0.5352 0.3868 0.6062
C6_7 C 0.5090(3) 0.4029(2) 0.5686(2)
N4_7 N 0.5395(3) 0.4341(2) 0.5939(3)
C7_7 C 0.5280(2) 0.45050(18) 0.56953(19)
I2_7 I 0.447948(15) 0.233917(15) 0.588037(16)
I3_7 I 0.483917(15) 0.302052(15) 0.661963(16)
Cu3_7 Cu 0.48740(2) 0.51113(2) 0.55378(2)
Cu5_7 Cu 0.51108(3) 0.22019(2) 0.60169(3)
Cu6_7 Cu 0.52981(2) 0.26108(3) 0.64831(3)
S2_7 S 0.43833(4) 0.46399(4) 0.51056(4)
Cu3_8 Cu 0.01113(2) 0.94622(2) 0.51260(2)
I1_8 I 0.766083(15) 0.911963(16) 0.447948(15)
Cu1_8 Cu 0.94622(2) 0.98740(2) 0.51113(2)
Cu2_8 Cu 0.77981(2) 0.89831(3) 0.51108(3)
S1_8 S 0.98944(4) 0.93833(4) 0.46399(4)
C1_8 C 0.8452(2) 0.9210(3) 0.5048(3)
H1_8 H 0.8462 0.9029 0.4911
C2_8 C 0.8727(3) 0.9399(3) 0.5082(3)
C3_8 C 0.8175(3) 0.9522(3) 0.5393(4)
H2_8 H 0.7989 0.9557 0.5518
C4_8 C 0.8713(3) 0.9655(3) 0.5283(4)
H3_8 H 0.8898 0.9779 0.5326
C5_8 C 0.8426(3) 0.9727(3) 0.5420(4)
H4_8 H 0.8401 0.9922 0.5534
N1_8 N 0.81849(17) 0.92683(19) 0.5194(2)
N2_8 N 0.93014(15) 0.94773(15) 0.49115(16)
N3_8 N 0.9027(2) 0.9064(3) 0.4704(3)
H5_8 H 0.8868 0.8938 0.4648
C6_8 C 0.9029(2) 0.9314(2) 0.4910(3)
N4_8 N 0.9341(2) 0.9061(3) 0.4605(3)
C7_8 C 0.95050(18) 0.93047(19) 0.4720(2)
I2_8 I 0.733917(15) 0.911963(16) 0.552052(15)
I3_8 I 0.802052(15) 0.838037(16) 0.516083(15)
Cu5_8 Cu 0.72019(2) 0.89831(3) 0.48892(3)
Cu6_8 Cu 0.76108(3) 0.85169(3) 0.47019(2)
S2_8 S 0.96399(4) 0.98944(4) 0.56167(4)
Cu1_9 Cu 0.76113(2) 0.73740(2) 0.80378(2)
S1_9 S 0.71399(4) 0.68833(4) 0.76056(4)
C1_9 C 0.7548(3) 0.6710(3) 0.9048(2)
H1_9 H 0.7411 0.6529 0.9038
C2_9 C 0.7582(3) 0.6899(3) 0.8773(3)
C3_9 C 0.7893(4) 0.7022(3) 0.9325(3)
H2_9 H 0.8018 0.7057 0.9511
C4_9 C 0.7783(4) 0.7155(3) 0.8787(3)
H3_9 H 0.7826 0.7279 0.8602
C5_9 C 0.7920(4) 0.7227(3) 0.9074(3)
H4_9 H 0.8034 0.7422 0.9099
N1_9 N 0.7694(2) 0.67683(19) 0.93151(17)
N2_9 N 0.74115(16) 0.69773(15) 0.81986(15)
N3_9 N 0.7204(3) 0.6564(3) 0.8473(2)
H5_9 H 0.7148 0.6438 0.8632
C6_9 C 0.7410(3) 0.6814(2) 0.8471(2)
N4_9 N 0.7105(3) 0.6561(3) 0.8159(2)
C7_9 C 0.7220(2) 0.68047(19) 0.79950(18)
I3_9 I 0.766083(15) 0.588037(16) 0.947948(15)
Cu3_9 Cu 0.76260(2) 0.69622(2) 0.73887(2)
Cu4_7 Cu 0.69622(2) 0.73887(2) 0.76260(2)
Cu6_9 Cu 0.72019(2) 0.60169(3) 0.98892(3)
S2_9 S 0.81167(4) 0.73944(4) 0.78601(4)
S3_7 S 0.73944(4) 0.78601(4) 0.81167(4)
I1_9 I 0.233917(15) 0.411963(16) 0.052052(15)
S1_10 S 0.01056(4) 0.43833(4) 0.03601(4)
H1_10 H 0.1538 0.4029 0.0089
N2_10 N 0.06986(15) 0.44773(15) 0.00885(16)
N3_10 N 0.0973(2) 0.4064(3) 0.0296(3)
H5_10 H 0.1132 0.3938 0.0352
C6_10 C 0.0971(2) 0.4314(2) 0.0090(3)
N4_10 N 0.0659(2) 0.4061(3) 0.0395(3)
C7_10 C 0.04950(18) 0.43047(19) 0.0280(2)
Cu4_8 Cu 0.01260(2) 0.48887(2) 0.05378(2)
Cu5_9 Cu 0.27981(2) 0.39831(3) 0.01108(3)
Cu6_10 Cu 0.23892(3) 0.35169(3) 0.02981(2)
S3_8 S 0.06167(4) 0.53601(4) 0.01056(4)
Cu1_10 Cu 0.05378(2) 0.48740(2) 0.98887(2)
Cu2_9 Cu 0.22019(2) 0.39831(3) 0.98892(3)
C1_10 C 0.1548(2) 0.4210(3) 0.9952(3)
C2_10 C 0.1273(3) 0.4399(3) 0.9918(3)
C3_10 C 0.1825(3) 0.4522(3) 0.9607(4)
H2_10 H 0.2011 0.4557 0.9482
C4_10 C 0.1287(3) 0.4655(3) 0.9717(4)
H3_10 H 0.1102 0.4779 0.9674
C5_10 C 0.1574(3) 0.4727(3) 0.9580(4)
H4_10 H 0.1599 0.4922 0.9466
N1_10 N 0.18151(17) 0.42683(19) 0.9806(2)
I2_9 I 0.266083(15) 0.411963(16) 0.947948(15)
I3_10 I 0.197948(15) 0.338037(16) 0.983917(15)
I1_10 I 0.016083(15) 0.802052(15) 0.661963(16)
Cu1_11 Cu 0.19622(2) 0.73887(2) 0.73740(2)
Cu2_10 Cu 0.02981(2) 0.73892(3) 0.64831(3)
S1_11 S 0.23944(4) 0.78601(4) 0.68833(4)
C1_11 C 0.0952(2) 0.7452(3) 0.6710(3)
H1_11 H 0.0962 0.7589 0.6529
C2_11 C 0.1227(3) 0.7418(3) 0.6899(3)
C3_11 C 0.0675(3) 0.7107(4) 0.7022(3)
H2_11 H 0.0489 0.6982 0.7057
C4_11 C 0.1213(3) 0.7217(4) 0.7155(3)
H3_11 H 0.1398 0.7174 0.7279
C5_11 C 0.0926(3) 0.7080(4) 0.7227(3)
H4_11 H 0.0901 0.6966 0.7422
N1_11 N 0.06849(17) 0.7306(2) 0.67683(19)
N2_11 N 0.18014(15) 0.75885(16) 0.69773(15)
N3_11 N 0.1527(2) 0.7796(3) 0.6564(3)
H5_11 H 0.1368 0.7852 0.6438
C6_11 C 0.1529(2) 0.7590(3) 0.6814(2)
N4_11 N 0.1841(2) 0.7895(3) 0.6561(3)
C7_11 C 0.20050(18) 0.7780(2) 0.68047(19)
I3_11 I 0.052052(15) 0.733917(15) 0.588037(16)
Cu3_10 Cu 0.26113(2) 0.73740(2) 0.69622(2)
Cu4_9 Cu 0.23740(2) 0.80378(2) 0.73887(2)
Cu6_11 Cu 0.01108(3) 0.77981(2) 0.60169(3)
S2_10 S 0.21399(4) 0.68833(4) 0.73944(4)
S3_9 S 0.18833(4) 0.76056(4) 0.78601(4)
I2_10 I 0.983917(15) 0.697948(15) 0.661963(16)
Cu5_10 Cu 0.97019(2) 0.76108(3) 0.64831(3)
I1_11 I 0.661963(16) 0.016083(15) 0.802052(15)
Cu1_12 Cu 0.73740(2) 0.19622(2) 0.73887(2)
Cu2_11 Cu 0.64831(3) 0.02981(2) 0.73892(3)
S1_12 S 0.68833(4) 0.23944(4) 0.78601(4)
C1_12 C 0.6710(3) 0.0952(2) 0.7452(3)
H1_12 H 0.6529 0.0962 0.7589
C2_12 C 0.6899(3) 0.1227(3) 0.7418(3)
C3_12 C 0.7022(3) 0.0675(3) 0.7107(4)
H2_12 H 0.7057 0.0489 0.6982
C4_12 C 0.7155(3) 0.1213(3) 0.7217(4)
H3_12 H 0.7279 0.1398 0.7174
C5_12 C 0.7227(3) 0.0926(3) 0.7080(4)
H4_12 H 0.7422 0.0901 0.6966
N1_12 N 0.67683(19) 0.06849(17) 0.7306(2)
N2_12 N 0.69773(15) 0.18014(15) 0.75885(16)
N3_12 N 0.6564(3) 0.1527(2) 0.7796(3)
H5_12 H 0.6438 0.1368 0.7852
C6_12 C 0.6814(2) 0.1529(2) 0.7590(3)
N4_12 N 0.6561(3) 0.1841(2) 0.7895(3)
C7_12 C 0.68047(19) 0.20050(18) 0.7780(2)
I3_12 I 0.588037(16) 0.052052(15) 0.733917(15)
Cu3_11 Cu 0.69622(2) 0.26113(2) 0.73740(2)
Cu4_10 Cu 0.73887(2) 0.23740(2) 0.80378(2)
Cu6_12 Cu 0.60169(3) 0.01108(3) 0.77981(2)
S2_11 S 0.73944(4) 0.21399(4) 0.68833(4)
S3_10 S 0.78601(4) 0.18833(4) 0.76056(4)
I2_11 I 0.661963(16) 0.983917(15) 0.697948(15)
Cu5_11 Cu 0.64831(3) 0.97019(2) 0.76108(3)
I1_12 I 0.338037(16) 0.483917(15) 0.802052(15)
Cu1_13 Cu 0.26260(2) 0.30378(2) 0.73887(2)
Cu2_12 Cu 0.35169(3) 0.47019(2) 0.73892(3)
S1_13 S 0.31167(4) 0.26056(4) 0.78601(4)
C1_13 C 0.3290(3) 0.4048(2) 0.7452(3)
H1_13 H 0.3471 0.4038 0.7589
C2_13 C 0.3101(3) 0.3773(3) 0.7418(3)
C3_13 C 0.2978(3) 0.4325(3) 0.7107(4)
H2_13 H 0.2943 0.4511 0.6982
C4_13 C 0.2845(3) 0.3787(3) 0.7217(4)
H3_13 H 0.2721 0.3602 0.7174
C5_13 C 0.2773(3) 0.4074(3) 0.7080(4)
H4_13 H 0.2578 0.4099 0.6966
N1_13 N 0.32317(19) 0.43151(17) 0.7306(2)
N2_13 N 0.30227(15) 0.31986(15) 0.75885(16)
N3_13 N 0.3436(3) 0.3473(2) 0.7796(3)
H5_13 H 0.3562 0.3632 0.7852
C6_13 C 0.3186(2) 0.3471(2) 0.7590(3)
N4_13 N 0.3439(3) 0.3159(2) 0.7895(3)
C7_13 C 0.31953(19) 0.29950(18) 0.7780(2)
I2_12 I 0.338037(16) 0.516083(15) 0.697948(15)
I3_13 I 0.411963(16) 0.447948(15) 0.733917(15)
Cu3_12 Cu 0.30378(2) 0.23887(2) 0.73740(2)
Cu4_11 Cu 0.26113(2) 0.26260(2) 0.80378(2)
Cu5_12 Cu 0.35169(3) 0.52981(2) 0.76108(3)
Cu6_13 Cu 0.39831(3) 0.48892(3) 0.77981(2)
S2_12 S 0.26056(4) 0.28601(4) 0.68833(4)
S3_11 S 0.21399(4) 0.31167(4) 0.76056(4)
I1_13 I 0.016083(15) 0.197948(15) 0.838037(16)
Cu1_14 Cu 0.19622(2) 0.26113(2) 0.76260(2)
Cu2_13 Cu 0.02981(2) 0.26108(3) 0.85169(3)
S1_14 S 0.23944(4) 0.21399(4) 0.81167(4)
C1_14 C 0.0952(2) 0.2548(3) 0.8290(3)
H1_14 H 0.0962 0.2411 0.8471
C2_14 C 0.1227(3) 0.2582(3) 0.8101(3)
C3_14 C 0.0675(3) 0.2893(4) 0.7978(3)
H2_14 H 0.0489 0.3018 0.7943
C4_14 C 0.1213(3) 0.2783(4) 0.7845(3)
H3_14 H 0.1398 0.2826 0.7721
C5_14 C 0.0926(3) 0.2920(4) 0.7773(3)
H4_14 H 0.0901 0.3034 0.7578
N1_14 N 0.06849(17) 0.2694(2) 0.82317(19)
N2_14 N 0.18014(15) 0.24115(16) 0.80227(15)
N3_14 N 0.1527(2) 0.2204(3) 0.8436(3)
H5_14 H 0.1368 0.2148 0.8562
C6_14 C 0.1529(2) 0.2410(3) 0.8186(2)
N4_14 N 0.1841(2) 0.2105(3) 0.8439(3)
C7_14 C 0.20050(18) 0.2220(2) 0.81953(19)
I3_14 I 0.052052(15) 0.266083(15) 0.911963(16)
Cu4_12 Cu 0.23740(2) 0.19622(2) 0.76113(2)
Cu6_14 Cu 0.01108(3) 0.22019(2) 0.89831(3)
S3_12 S 0.18833(4) 0.23944(4) 0.71399(4)
I2_13 I 0.983917(15) 0.302052(15) 0.838037(16)
Cu5_13 Cu 0.97019(2) 0.23892(3) 0.85169(3)
I1_14 I 0.838037(16) 0.016083(15) 0.197948(15)
Cu1_15 Cu 0.76260(2) 0.19622(2) 0.26113(2)
Cu2_14 Cu 0.85169(3) 0.02981(2) 0.26108(3)
S1_15 S 0.81167(4) 0.23944(4) 0.21399(4)
C1_15 C 0.8290(3) 0.0952(2) 0.2548(3)
H1_15 H 0.8471 0.0962 0.2411
C2_15 C 0.8101(3) 0.1227(3) 0.2582(3)
C3_15 C 0.7978(3) 0.0675(3) 0.2893(4)
H2_15 H 0.7943 0.0489 0.3018
C4_15 C 0.7845(3) 0.1213(3) 0.2783(4)
H3_15 H 0.7721 0.1398 0.2826
C5_15 C 0.7773(3) 0.0926(3) 0.2920(4)
H4_15 H 0.7578 0.0901 0.3034
N1_15 N 0.82317(19) 0.06849(17) 0.2694(2)
N2_15 N 0.80227(15) 0.18014(15) 0.24115(16)
N3_15 N 0.8436(3) 0.1527(2) 0.2204(3)
H5_15 H 0.8562 0.1368 0.2148
C6_15 C 0.8186(2) 0.1529(2) 0.2410(3)
N4_15 N 0.8439(3) 0.1841(2) 0.2105(3)
C7_15 C 0.81953(19) 0.20050(18) 0.2220(2)
I3_15 I 0.911963(16) 0.052052(15) 0.266083(15)
Cu4_13 Cu 0.76113(2) 0.23740(2) 0.19622(2)
Cu6_15 Cu 0.89831(3) 0.01108(3) 0.22019(2)
S3_13 S 0.71399(4) 0.18833(4) 0.23944(4)
I2_14 I 0.838037(16) 0.983917(15) 0.302052(15)
Cu5_14 Cu 0.85169(3) 0.97019(2) 0.23892(3)
Cu1_16 Cu 0.80378(2) 0.76113(2) 0.73740(2)
S1_16 S 0.76056(4) 0.71399(4) 0.68833(4)
C1_16 C 0.9048(2) 0.7548(3) 0.6710(3)
H1_16 H 0.9038 0.7411 0.6529
C2_16 C 0.8773(3) 0.7582(3) 0.6899(3)
C3_16 C 0.9325(3) 0.7893(4) 0.7022(3)
H2_16 H 0.9511 0.8018 0.7057
C4_16 C 0.8787(3) 0.7783(4) 0.7155(3)
H3_16 H 0.8602 0.7826 0.7279
C5_16 C 0.9074(3) 0.7920(4) 0.7227(3)
H4_16 H 0.9099 0.8034 0.7422
N1_16 N 0.93151(17) 0.7694(2) 0.67683(19)
N2_16 N 0.81986(15) 0.74115(16) 0.69773(15)
N3_16 N 0.8473(2) 0.7204(3) 0.6564(3)
H5_16 H 0.8632 0.7148 0.6438
C6_16 C 0.8471(2) 0.7410(3) 0.6814(2)
N4_16 N 0.8159(2) 0.7105(3) 0.6561(3)
C7_16 C 0.79950(18) 0.7220(2) 0.68047(19)
I3_16 I 0.947948(15) 0.766083(15) 0.588037(16)
Cu3_13 Cu 0.73887(2) 0.76260(2) 0.69622(2)
Cu6_16 Cu 0.98892(3) 0.72019(2) 0.60169(3)
S2_13 S 0.78601(4) 0.81167(4) 0.73944(4)
I1_15 I 0.483917(15) 0.802052(15) 0.338037(16)
Cu1_17 Cu 0.30378(2) 0.73887(2) 0.26260(2)
Cu2_15 Cu 0.47019(2) 0.73892(3) 0.35169(3)
S1_17 S 0.26056(4) 0.78601(4) 0.31167(4)
C1_17 C 0.4048(2) 0.7452(3) 0.3290(3)
H1_17 H 0.4038 0.7589 0.3471
C2_17 C 0.3773(3) 0.7418(3) 0.3101(3)
C3_17 C 0.4325(3) 0.7107(4) 0.2978(3)
H2_17 H 0.4511 0.6982 0.2943
C4_17 C 0.3787(3) 0.7217(4) 0.2845(3)
H3_17 H 0.3602 0.7174 0.2721
C5_17 C 0.4074(3) 0.7080(4) 0.2773(3)
H4_17 H 0.4099 0.6966 0.2578
N1_17 N 0.43151(17) 0.7306(2) 0.32317(19)
N2_17 N 0.31986(15) 0.75885(16) 0.30227(15)
N3_17 N 0.3473(2) 0.7796(3) 0.3436(3)
H5_17 H 0.3632 0.7852 0.3562
C6_17 C 0.3471(2) 0.7590(3) 0.3186(2)
N4_17 N 0.3159(2) 0.7895(3) 0.3439(3)
C7_17 C 0.29950(18) 0.7780(2) 0.31953(19)
I2_15 I 0.516083(15) 0.697948(15) 0.338037(16)
I3_17 I 0.447948(15) 0.733917(15) 0.411963(16)
Cu3_14 Cu 0.23887(2) 0.73740(2) 0.30378(2)
Cu5_15 Cu 0.52981(2) 0.76108(3) 0.35169(3)
Cu6_17 Cu 0.48892(3) 0.77981(2) 0.39831(3)
S2_14 S 0.28601(4) 0.68833(4) 0.26056(4)
Cu1_18 Cu 0.73740(2) 0.80378(2) 0.76113(2)
S1_18 S 0.68833(4) 0.76056(4) 0.71399(4)
C1_18 C 0.6710(3) 0.9048(2) 0.7548(3)
H1_18 H 0.6529 0.9038 0.7411
C2_18 C 0.6899(3) 0.8773(3) 0.7582(3)
C3_18 C 0.7022(3) 0.9325(3) 0.7893(4)
H2_18 H 0.7057 0.9511 0.8018
C4_18 C 0.7155(3) 0.8787(3) 0.7783(4)
H3_18 H 0.7279 0.8602 0.7826
C5_18 C 0.7227(3) 0.9074(3) 0.7920(4)
H4_18 H 0.7422 0.9099 0.8034
N1_18 N 0.67683(19) 0.93151(17) 0.7694(2)
N2_18 N 0.69773(15) 0.81986(15) 0.74115(16)
N3_18 N 0.6564(3) 0.8473(2) 0.7204(3)
H5_18 H 0.6438 0.8632 0.7148
C6_18 C 0.6814(2) 0.8471(2) 0.7410(3)
N4_18 N 0.6561(3) 0.8159(2) 0.7105(3)
C7_18 C 0.68047(19) 0.79950(18) 0.7220(2)
I3_18 I 0.588037(16) 0.947948(15) 0.766083(15)
Cu6_18 Cu 0.60169(3) 0.98892(3) 0.72019(2)
I1_16 I 0.411963(16) 0.052052(15) 0.233917(15)
S1_19 S 0.43833(4) 0.03601(4) 0.01056(4)
H1_19 H 0.4029 0.0089 0.1538
N2_19 N 0.44773(15) 0.00885(16) 0.06986(15)
N3_19 N 0.4064(3) 0.0296(3) 0.0973(2)
H5_19 H 0.3938 0.0352 0.1132
C6_19 C 0.4314(2) 0.0090(3) 0.0971(2)
N4_19 N 0.4061(3) 0.0395(3) 0.0659(2)
C7_19 C 0.43047(19) 0.0280(2) 0.04950(18)
Cu4_14 Cu 0.48887(2) 0.05378(2) 0.01260(2)
Cu5_16 Cu 0.39831(3) 0.01108(3) 0.27981(2)
Cu6_19 Cu 0.35169(3) 0.02981(2) 0.23892(3)
S3_14 S 0.53601(4) 0.01056(4) 0.06167(4)
Cu1_19 Cu 0.48740(2) 0.98887(2) 0.05378(2)
Cu2_16 Cu 0.39831(3) 0.98892(3) 0.22019(2)
C1_19 C 0.4210(3) 0.9952(3) 0.1548(2)
C2_19 C 0.4399(3) 0.9918(3) 0.1273(3)
C3_19 C 0.4522(3) 0.9607(4) 0.1825(3)
H2_19 H 0.4557 0.9482 0.2011
C4_19 C 0.4655(3) 0.9717(4) 0.1287(3)
H3_19 H 0.4779 0.9674 0.1102
C5_19 C 0.4727(3) 0.9580(4) 0.1574(3)
H4_19 H 0.4922 0.9466 0.1599
N1_19 N 0.42683(19) 0.9806(2) 0.18151(17)
I2_16 I 0.411963(16) 0.947948(15) 0.266083(15)
I3_19 I 0.338037(16) 0.983917(15) 0.197948(15)
S2_15 S 0.48944(4) 0.93833(4) 0.03601(4)
Cu3_15 Cu 0.44622(2) 0.98740(2) 0.98887(2)
Cu1_20 Cu 0.51260(2) 0.51113(2) 0.05378(2)
S1_20 S 0.56167(4) 0.46399(4) 0.01056(4)
C1_20 C 0.5790(3) 0.5048(3) 0.1548(2)
H1_20 H 0.5971 0.4911 0.1538
C2_20 C 0.5601(3) 0.5082(3) 0.1273(3)
C3_20 C 0.5478(3) 0.5393(4) 0.1825(3)
H2_20 H 0.5443 0.5518 0.2011
C4_20 C 0.5345(3) 0.5283(4) 0.1287(3)
H3_20 H 0.5221 0.5326 0.1102
C5_20 C 0.5273(3) 0.5420(4) 0.1574(3)
H4_20 H 0.5078 0.5534 0.1599
N1_20 N 0.57317(19) 0.5194(2) 0.18151(17)
N2_20 N 0.55227(15) 0.49115(16) 0.06986(15)
N3_20 N 0.5936(3) 0.4704(3) 0.0973(2)
H5_20 H 0.6062 0.4648 0.1132
C6_20 C 0.5686(2) 0.4910(3) 0.0971(2)
N4_20 N 0.5939(3) 0.4605(3) 0.0659(2)
C7_20 C 0.56953(19) 0.4720(2) 0.04950(18)
I3_20 I 0.661963(16) 0.516083(15) 0.197948(15)
Cu4_15 Cu 0.51113(2) 0.44622(2) 0.01260(2)
Cu6_20 Cu 0.64831(3) 0.47019(2) 0.23892(3)
S2_16 S 0.51056(4) 0.56167(4) 0.03601(4)
S3_15 S 0.46399(4) 0.48944(4) 0.06167(4)
Cu3_16 Cu 0.55378(2) 0.51260(2) 0.98887(2)
Cu3_17 Cu 0.51260(2) 0.01113(2) 0.94622(2)
I1_17 I 0.447948(15) 0.766083(15) 0.911963(16)
Cu1_21 Cu 0.51113(2) 0.94622(2) 0.98740(2)
Cu2_17 Cu 0.51108(3) 0.77981(2) 0.89831(3)
S1_21 S 0.46399(4) 0.98944(4) 0.93833(4)
C1_21 C 0.5048(3) 0.8452(2) 0.9210(3)
H1_21 H 0.4911 0.8462 0.9029
C2_21 C 0.5082(3) 0.8727(3) 0.9399(3)
C3_21 C 0.5393(4) 0.8175(3) 0.9522(3)
H2_21 H 0.5518 0.7989 0.9557
C4_21 C 0.5283(4) 0.8713(3) 0.9655(3)
H3_21 H 0.5326 0.8898 0.9779
C5_21 C 0.5420(4) 0.8426(3) 0.9727(3)
H4_21 H 0.5534 0.8401 0.9922
N1_21 N 0.5194(2) 0.81849(17) 0.92683(19)
N2_21 N 0.49115(16) 0.93014(15) 0.94773(15)
N3_21 N 0.4704(3) 0.9027(2) 0.9064(3)
H5_21 H 0.4648 0.8868 0.8938
C6_21 C 0.4910(3) 0.9029(2) 0.9314(2)
N4_21 N 0.4605(3) 0.9341(2) 0.9061(3)
C7_21 C 0.4720(2) 0.95050(18) 0.93047(19)
I2_17 I 0.552052(15) 0.733917(15) 0.911963(16)
I3_21 I 0.516083(15) 0.802052(15) 0.838037(16)
Cu5_17 Cu 0.48892(3) 0.72019(2) 0.89831(3)
Cu6_21 Cu 0.47019(2) 0.76108(3) 0.85169(3)
S2_17 S 0.56167(4) 0.96399(4) 0.98944(4)
Cu1_22 Cu 0.51113(2) 0.05378(2) 0.51260(2)
S1_22 S 0.46399(4) 0.01056(4) 0.56167(4)
C1_22 C 0.5048(3) 0.1548(2) 0.5790(3)
H1_22 H 0.4911 0.1538 0.5971
C2_22 C 0.5082(3) 0.1273(3) 0.5601(3)
C3_22 C 0.5393(4) 0.1825(3) 0.5478(3)
H2_22 H 0.5518 0.2011 0.5443
C4_22 C 0.5283(4) 0.1287(3) 0.5345(3)
H3_22 H 0.5326 0.1102 0.5221
C5_22 C 0.5420(4) 0.1574(3) 0.5273(3)
H4_22 H 0.5534 0.1599 0.5078
N1_22 N 0.5194(2) 0.18151(17) 0.57317(19)
N2_22 N 0.49115(16) 0.06986(15) 0.55227(15)
N3_22 N 0.4704(3) 0.0973(2) 0.5936(3)
H5_22 H 0.4648 0.1132 0.6062
C6_22 C 0.4910(3) 0.0971(2) 0.5686(2)
N4_22 N 0.4605(3) 0.0659(2) 0.5939(3)
C7_22 C 0.4720(2) 0.04950(18) 0.56953(19)
I3_22 I 0.516083(15) 0.197948(15) 0.661963(16)
Cu4_16 Cu 0.44622(2) 0.01260(2) 0.51113(2)
Cu6_22 Cu 0.47019(2) 0.23892(3) 0.64831(3)
S2_18 S 0.56167(4) 0.03601(4) 0.51056(4)
S3_16 S 0.48944(4) 0.06167(4) 0.46399(4)
Cu3_18 Cu 0.51260(2) 0.98887(2) 0.55378(2)
I1_18 I 0.266083(15) 0.588037(16) 0.552052(15)
Cu1_23 Cu 0.44622(2) 0.51260(2) 0.48887(2)
Cu2_18 Cu 0.27981(2) 0.60169(3) 0.48892(3)
S1_23 S 0.48944(4) 0.56167(4) 0.53601(4)
C1_23 C 0.3452(2) 0.5790(3) 0.4952(3)
H1_23 H 0.3462 0.5971 0.5089
C2_23 C 0.3727(3) 0.5601(3) 0.4918(3)
C3_23 C 0.3175(3) 0.5478(3) 0.4607(4)
H2_23 H 0.2989 0.5443 0.4482
C4_23 C 0.3713(3) 0.5345(3) 0.4717(4)
H3_23 H 0.3898 0.5221 0.4674
C5_23 C 0.3426(3) 0.5273(3) 0.4580(4)
H4_23 H 0.3401 0.5078 0.4466
N1_23 N 0.31849(17) 0.57317(19) 0.4806(2)
N2_23 N 0.43014(15) 0.55227(15) 0.50885(16)
N3_23 N 0.4027(2) 0.5936(3) 0.5296(3)
H5_23 H 0.3868 0.6062 0.5352
C6_23 C 0.4029(2) 0.5686(2) 0.5090(3)
N4_23 N 0.4341(2) 0.5939(3) 0.5395(3)
C7_23 C 0.45050(18) 0.56953(19) 0.5280(2)
I2_18 I 0.233917(15) 0.588037(16) 0.447948(15)
I3_23 I 0.302052(15) 0.661963(16) 0.483917(15)
Cu5_18 Cu 0.22019(2) 0.60169(3) 0.51108(3)
Cu6_23 Cu 0.26108(3) 0.64831(3) 0.52981(2)
Cu1_24 Cu 0.05378(2) 0.51260(2) 0.51113(2)
S1_24 S 0.01056(4) 0.56167(4) 0.46399(4)
C1_24 C 0.1548(2) 0.5790(3) 0.5048(3)
H1_24 H 0.1538 0.5971 0.4911
C2_24 C 0.1273(3) 0.5601(3) 0.5082(3)
C3_24 C 0.1825(3) 0.5478(3) 0.5393(4)
H2_24 H 0.2011 0.5443 0.5518
C4_24 C 0.1287(3) 0.5345(3) 0.5283(4)
H3_24 H 0.1102 0.5221 0.5326
C5_24 C 0.1574(3) 0.5273(3) 0.5420(4)
H4_24 H 0.1599 0.5078 0.5534
N1_24 N 0.18151(17) 0.57317(19) 0.5194(2)
N2_24 N 0.06986(15) 0.55227(15) 0.49115(16)
N3_24 N 0.0973(2) 0.5936(3) 0.4704(3)
H5_24 H 0.1132 0.6062 0.4648
C6_24 C 0.0971(2) 0.5686(2) 0.4910(3)
N4_24 N 0.0659(2) 0.5939(3) 0.4605(3)
C7_24 C 0.04950(18) 0.56953(19) 0.4720(2)
I3_24 I 0.197948(15) 0.661963(16) 0.516083(15)
Cu4_17 Cu 0.01260(2) 0.51113(2) 0.44622(2)
Cu6_24 Cu 0.23892(3) 0.64831(3) 0.47019(2)
S2_19 S 0.03601(4) 0.51056(4) 0.56167(4)
S3_17 S 0.06167(4) 0.46399(4) 0.48944(4)
Cu3_19 Cu 0.98887(2) 0.55378(2) 0.51260(2)
I1_19 I 0.302052(15) 0.161963(16) 0.516083(15)
Cu1_25 Cu 0.23887(2) 0.23740(2) 0.69622(2)
Cu2_19 Cu 0.23892(3) 0.14831(3) 0.52981(2)
S1_25 S 0.28601(4) 0.18833(4) 0.73944(4)
C1_25 C 0.2452(3) 0.1710(3) 0.5952(2)
H1_25 H 0.2589 0.1529 0.5962
C2_25 C 0.2418(3) 0.1899(3) 0.6227(3)
C3_25 C 0.2107(4) 0.2022(3) 0.5675(3)
H2_25 H 0.1982 0.2057 0.5489
C4_25 C 0.2217(4) 0.2155(3) 0.6213(3)
H3_25 H 0.2174 0.2279 0.6398
C5_25 C 0.2080(4) 0.2227(3) 0.5926(3)
H4_25 H 0.1966 0.2422 0.5901
N1_25 N 0.2306(2) 0.17683(19) 0.56849(17)
N2_25 N 0.25885(16) 0.19773(15) 0.68014(15)
N3_25 N 0.2796(3) 0.1564(3) 0.6527(2)
H5_25 H 0.2852 0.1438 0.6368
C6_25 C 0.2590(3) 0.1814(2) 0.6529(2)
N4_25 N 0.2895(3) 0.1561(3) 0.6841(2)
C7_25 C 0.2780(2) 0.18047(19) 0.70050(18)
I2_19 I 0.197948(15) 0.161963(16) 0.483917(15)
I3_25 I 0.233917(15) 0.088037(16) 0.552052(15)
Cu5_19 Cu 0.26108(3) 0.14831(3) 0.47019(2)
Cu6_25 Cu 0.27981(2) 0.10169(3) 0.51108(3)
I1_20 I 0.088037(16) 0.052052(15) 0.766083(15)
S1_26 S 0.06167(4) 0.03601(4) 0.98944(4)
H1_26 H 0.0971 0.0089 0.8462
N2_26 N 0.05227(15) 0.00885(16) 0.93014(15)
N3_26 N 0.0936(3) 0.0296(3) 0.9027(2)
H5_26 H 0.1062 0.0352 0.8868
C6_26 C 0.0686(2) 0.0090(3) 0.9029(2)
N4_26 N 0.0939(3) 0.0395(3) 0.9341(2)
C7_26 C 0.06953(19) 0.0280(2) 0.95050(18)
Cu4_18 Cu 0.01113(2) 0.05378(2) 0.98740(2)
Cu5_20 Cu 0.10169(3) 0.01108(3) 0.72019(2)
Cu6_26 Cu 0.14831(3) 0.02981(2) 0.76108(3)
Cu3_20 Cu 0.05378(2) 0.98740(2) 0.01113(2)
Cu1_26 Cu 0.01260(2) 0.98887(2) 0.94622(2)
Cu2_20 Cu 0.10169(3) 0.98892(3) 0.77981(2)
C1_26 C 0.0790(3) 0.9952(3) 0.8452(2)
C2_26 C 0.0601(3) 0.9918(3) 0.8727(3)
C3_26 C 0.0478(3) 0.9607(4) 0.8175(3)
H2_26 H 0.0443 0.9482 0.7989
C4_26 C 0.0345(3) 0.9717(4) 0.8713(3)
H3_26 H 0.0221 0.9674 0.8898
C5_26 C 0.0273(3) 0.9580(4) 0.8426(3)
H4_26 H 0.0078 0.9466 0.8401
N1_26 N 0.07317(19) 0.9806(2) 0.81849(17)
I2_20 I 0.088037(16) 0.947948(15) 0.733917(15)
I3_26 I 0.161963(16) 0.983917(15) 0.802052(15)
S2_20 S 0.01056(4) 0.93833(4) 0.96399(4)
S3_18 S 0.96399(4) 0.01056(4) 0.93833(4)
Cu1_27 Cu 0.76113(2) 0.26260(2) 0.69622(2)
S1_27 S 0.71399(4) 0.31167(4) 0.73944(4)
C1_27 C 0.7548(3) 0.3290(3) 0.5952(2)
H1_27 H 0.7411 0.3471 0.5962
C2_27 C 0.7582(3) 0.3101(3) 0.6227(3)
C3_27 C 0.7893(4) 0.2978(3) 0.5675(3)
H2_27 H 0.8018 0.2943 0.5489
C4_27 C 0.7783(4) 0.2845(3) 0.6213(3)
H3_27 H 0.7826 0.2721 0.6398
C5_27 C 0.7920(4) 0.2773(3) 0.5926(3)
H4_27 H 0.8034 0.2578 0.5901
N1_27 N 0.7694(2) 0.32317(19) 0.56849(17)
N2_27 N 0.74115(16) 0.30227(15) 0.68014(15)
N3_27 N 0.7204(3) 0.3436(3) 0.6527(2)
H5_27 H 0.7148 0.3562 0.6368
C6_27 C 0.7410(3) 0.3186(2) 0.6529(2)
N4_27 N 0.7105(3) 0.3439(3) 0.6841(2)
C7_27 C 0.7220(2) 0.31953(19) 0.70050(18)
I3_27 I 0.766083(15) 0.411963(16) 0.552052(15)
Cu3_21 Cu 0.76260(2) 0.30378(2) 0.76113(2)
Cu6_27 Cu 0.72019(2) 0.39831(3) 0.51108(3)
S2_21 S 0.81167(4) 0.26056(4) 0.71399(4)
Cu1_28 Cu 0.48740(2) 0.01113(2) 0.44622(2)
C1_28 C 0.4210(3) 0.0048(3) 0.3452(2)
C2_28 C 0.4399(3) 0.0082(3) 0.3727(3)
C3_28 C 0.4522(3) 0.0393(4) 0.3175(3)
H2_28 H 0.4557 0.0518 0.2989
C4_28 C 0.4655(3) 0.0283(4) 0.3713(3)
H3_28 H 0.4779 0.0326 0.3898
C5_28 C 0.4727(3) 0.0420(4) 0.3426(3)
H4_28 H 0.4922 0.0534 0.3401
N1_28 N 0.42683(19) 0.0194(2) 0.31849(17)
I3_28 I 0.338037(16) 0.016083(15) 0.302052(15)
S1_28 S 0.43833(4) 0.96399(4) 0.48944(4)
H1_28 H 0.4029 0.9911 0.3462
N2_28 N 0.44773(15) 0.99115(16) 0.43014(15)
N3_28 N 0.4064(3) 0.9704(3) 0.4027(2)
H5_28 H 0.3938 0.9648 0.3868
C6_28 C 0.4314(2) 0.9910(3) 0.4029(2)
N4_28 N 0.4061(3) 0.9605(3) 0.4341(2)
C7_28 C 0.43047(19) 0.9720(2) 0.45050(18)
Cu4_19 Cu 0.48887(2) 0.94622(2) 0.48740(2)
Cu6_28 Cu 0.35169(3) 0.97019(2) 0.26108(3)
S3_19 S 0.53601(4) 0.98944(4) 0.43833(4)
Cu1_29 Cu 0.48887(2) 0.55378(2) 0.98740(2)
S1_29 S 0.53601(4) 0.51056(4) 0.93833(4)
C1_29 C 0.4952(3) 0.6548(2) 0.9210(3)
H1_29 H 0.5089 0.6538 0.9029
C2_29 C 0.4918(3) 0.6273(3) 0.9399(3)
C3_29 C 0.4607(4) 0.6825(3) 0.9522(3)
H2_29 H 0.4482 0.7011 0.9557
C4_29 C 0.4717(4) 0.6287(3) 0.9655(3)
H3_29 H 0.4674 0.6102 0.9779
C5_29 C 0.4580(4) 0.6574(3) 0.9727(3)
H4_29 H 0.4466 0.6599 0.9922
N1_29 N 0.4806(2) 0.68151(17) 0.92683(19)
N2_29 N 0.50885(16) 0.56986(15) 0.94773(15)
N3_29 N 0.5296(3) 0.5973(2) 0.9064(3)
H5_29 H 0.5352 0.6132 0.8938
C6_29 C 0.5090(3) 0.5971(2) 0.9314(2)
N4_29 N 0.5395(3) 0.5659(2) 0.9061(3)
C7_29 C 0.5280(2) 0.54950(18) 0.93047(19)
I3_29 I 0.483917(15) 0.697948(15) 0.838037(16)
Cu3_22 Cu 0.48740(2) 0.48887(2) 0.94622(2)
Cu6_29 Cu 0.52981(2) 0.73892(3) 0.85169(3)
S2_22 S 0.43833(4) 0.53601(4) 0.98944(4)
Cu1_30 Cu 0.23887(2) 0.76260(2) 0.80378(2)
S1_30 S 0.28601(4) 0.81167(4) 0.76056(4)
C1_30 C 0.2452(3) 0.8290(3) 0.9048(2)
H1_30 H 0.2589 0.8471 0.9038
C2_30 C 0.2418(3) 0.8101(3) 0.8773(3)
C3_30 C 0.2107(4) 0.7978(3) 0.9325(3)
H2_30 H 0.1982 0.7943 0.9511
C4_30 C 0.2217(4) 0.7845(3) 0.8787(3)
H3_30 H 0.2174 0.7721 0.8602
C5_30 C 0.2080(4) 0.7773(3) 0.9074(3)
H4_30 H 0.1966 0.7578 0.9099
N1_30 N 0.2306(2) 0.82317(19) 0.93151(17)
N2_30 N 0.25885(16) 0.80227(15) 0.81986(15)
N3_30 N 0.2796(3) 0.8436(3) 0.8473(2)
H5_30 H 0.2852 0.8562 0.8632
C6_30 C 0.2590(3) 0.8186(2) 0.8471(2)
N4_30 N 0.2895(3) 0.8439(3) 0.8159(2)
C7_30 C 0.2780(2) 0.81953(19) 0.79950(18)
I3_30 I 0.233917(15) 0.911963(16) 0.947948(15)
Cu4_20 Cu 0.30378(2) 0.76113(2) 0.76260(2)
Cu6_30 Cu 0.27981(2) 0.89831(3) 0.98892(3)
S3_20 S 0.26056(4) 0.71399(4) 0.81167(4)
I1_21 I 0.052052(15) 0.766083(15) 0.088037(16)
S1_31 S 0.03601(4) 0.98944(4) 0.06167(4)
H1_31 H 0.0089 0.8462 0.0971
N2_31 N 0.00885(16) 0.93014(15) 0.05227(15)
N3_31 N 0.0296(3) 0.9027(2) 0.0936(3)
H5_31 H 0.0352 0.8868 0.1062
C6_31 C 0.0090(3) 0.9029(2) 0.0686(2)
N4_31 N 0.0395(3) 0.9341(2) 0.0939(3)
C7_31 C 0.0280(2) 0.95050(18) 0.06953(19)
Cu5_21 Cu 0.01108(3) 0.72019(2) 0.10169(3)
Cu6_31 Cu 0.02981(2) 0.76108(3) 0.14831(3)
Cu3_23 Cu 0.98740(2) 0.01113(2) 0.05378(2)
Cu1_31 Cu 0.98887(2) 0.94622(2) 0.01260(2)
Cu2_21 Cu 0.98892(3) 0.77981(2) 0.10169(3)
C1_31 C 0.9952(3) 0.8452(2) 0.0790(3)
C2_31 C 0.9918(3) 0.8727(3) 0.0601(3)
C3_31 C 0.9607(4) 0.8175(3) 0.0478(3)
H2_31 H 0.9482 0.7989 0.0443
C4_31 C 0.9717(4) 0.8713(3) 0.0345(3)
H3_31 H 0.9674 0.8898 0.0221
C5_31 C 0.9580(4) 0.8426(3) 0.0273(3)
H4_31 H 0.9466 0.8401 0.0078
N1_31 N 0.9806(2) 0.81849(17) 0.07317(19)
I2_21 I 0.947948(15) 0.733917(15) 0.088037(16)
I3_31 I 0.983917(15) 0.802052(15) 0.161963(16)
S2_23 S 0.93833(4) 0.96399(4) 0.01056(4)
Cu1_32 Cu 0.44622(2) 0.48740(2) 0.01113(2)
C1_32 C 0.3452(2) 0.4210(3) 0.0048(3)
C2_32 C 0.3727(3) 0.4399(3) 0.0082(3)
C3_32 C 0.3175(3) 0.4522(3) 0.0393(4)
H2_32 H 0.2989 0.4557 0.0518
C4_32 C 0.3713(3) 0.4655(3) 0.0283(4)
H3_32 H 0.3898 0.4779 0.0326
C5_32 C 0.3426(3) 0.4727(3) 0.0420(4)
H4_32 H 0.3401 0.4922 0.0534
N1_32 N 0.31849(17) 0.42683(19) 0.0194(2)
I3_32 I 0.302052(15) 0.338037(16) 0.016083(15)
S1_32 S 0.48944(4) 0.43833(4) 0.96399(4)
H1_32 H 0.3462 0.4029 0.9911
N2_32 N 0.43014(15) 0.44773(15) 0.99115(16)
N3_32 N 0.4027(2) 0.4064(3) 0.9704(3)
H5_32 H 0.3868 0.3938 0.9648
C6_32 C 0.4029(2) 0.4314(2) 0.9910(3)
N4_32 N 0.4341(2) 0.4061(3) 0.9605(3)
C7_32 C 0.45050(18) 0.43047(19) 0.9720(2)
Cu6_32 Cu 0.26108(3) 0.35169(3) 0.97019(2)
Cu1_33 Cu 0.26113(2) 0.23740(2) 0.30378(2)
S1_33 S 0.21399(4) 0.18833(4) 0.26056(4)
C1_33 C 0.2548(3) 0.1710(3) 0.4048(2)
H1_33 H 0.2411 0.1529 0.4038
C2_33 C 0.2582(3) 0.1899(3) 0.3773(3)
C3_33 C 0.2893(4) 0.2022(3) 0.4325(3)
H2_33 H 0.3018 0.2057 0.4511
C4_33 C 0.2783(4) 0.2155(3) 0.3787(3)
H3_33 H 0.2826 0.2279 0.3602
C5_33 C 0.2920(4) 0.2227(3) 0.4074(3)
H4_33 H 0.3034 0.2422 0.4099
N1_33 N 0.2694(2) 0.17683(19) 0.43151(17)
N2_33 N 0.24115(16) 0.19773(15) 0.31986(15)
N3_33 N 0.2204(3) 0.1564(3) 0.3473(2)
H5_33 H 0.2148 0.1438 0.3632
C6_33 C 0.2410(3) 0.1814(2) 0.3471(2)
N4_33 N 0.2105(3) 0.1561(3) 0.3159(2)
C7_33 C 0.2220(2) 0.18047(19) 0.29950(18)
I3_33 I 0.266083(15) 0.088037(16) 0.447948(15)
Cu3_24 Cu 0.26260(2) 0.19622(2) 0.23887(2)
Cu4_21 Cu 0.19622(2) 0.23887(2) 0.26260(2)
Cu6_33 Cu 0.22019(2) 0.10169(3) 0.48892(3)
S2_24 S 0.31167(4) 0.23944(4) 0.28601(4)
S3_21 S 0.23944(4) 0.28601(4) 0.31167(4)
Cu1_34 Cu 0.55378(2) 0.98740(2) 0.48887(2)
S1_34 S 0.51056(4) 0.93833(4) 0.53601(4)
C1_34 C 0.6548(2) 0.9210(3) 0.4952(3)
H1_34 H 0.6538 0.9029 0.5089
C2_34 C 0.6273(3) 0.9399(3) 0.4918(3)
C3_34 C 0.6825(3) 0.9522(3) 0.4607(4)
H2_34 H 0.7011 0.9557 0.4482
C4_34 C 0.6287(3) 0.9655(3) 0.4717(4)
H3_34 H 0.6102 0.9779 0.4674
C5_34 C 0.6574(3) 0.9727(3) 0.4580(4)
H4_34 H 0.6599 0.9922 0.4466
N1_34 N 0.68151(17) 0.92683(19) 0.4806(2)
N2_34 N 0.56986(15) 0.94773(15) 0.50885(16)
N3_34 N 0.5973(2) 0.9064(3) 0.5296(3)
H5_34 H 0.6132 0.8938 0.5352
C6_34 C 0.5971(2) 0.9314(2) 0.5090(3)
N4_34 N 0.5659(2) 0.9061(3) 0.5395(3)
C7_34 C 0.54950(18) 0.93047(19) 0.5280(2)
I3_34 I 0.697948(15) 0.838037(16) 0.483917(15)
Cu6_34 Cu 0.73892(3) 0.85169(3) 0.52981(2)
I1_22 I 0.516083(15) 0.302052(15) 0.161963(16)
Cu1_35 Cu 0.69622(2) 0.23887(2) 0.23740(2)
Cu2_22 Cu 0.52981(2) 0.23892(3) 0.14831(3)
S1_35 S 0.73944(4) 0.28601(4) 0.18833(4)
C1_35 C 0.5952(2) 0.2452(3) 0.1710(3)
H1_35 H 0.5962 0.2589 0.1529
C2_35 C 0.6227(3) 0.2418(3) 0.1899(3)
C3_35 C 0.5675(3) 0.2107(4) 0.2022(3)
H2_35 H 0.5489 0.1982 0.2057
C4_35 C 0.6213(3) 0.2217(4) 0.2155(3)
H3_35 H 0.6398 0.2174 0.2279
C5_35 C 0.5926(3) 0.2080(4) 0.2227(3)
H4_35 H 0.5901 0.1966 0.2422
N1_35 N 0.56849(17) 0.2306(2) 0.17683(19)
N2_35 N 0.68014(15) 0.25885(16) 0.19773(15)
N3_35 N 0.6527(2) 0.2796(3) 0.1564(3)
H5_35 H 0.6368 0.2852 0.1438
C6_35 C 0.6529(2) 0.2590(3) 0.1814(2)
N4_35 N 0.6841(2) 0.2895(3) 0.1561(3)
C7_35 C 0.70050(18) 0.2780(2) 0.18047(19)
I2_22 I 0.483917(15) 0.197948(15) 0.161963(16)
I3_35 I 0.552052(15) 0.233917(15) 0.088037(16)
Cu5_22 Cu 0.47019(2) 0.26108(3) 0.14831(3)
Cu6_35 Cu 0.51108(3) 0.27981(2) 0.10169(3)
I1_23 I 0.161963(16) 0.516083(15) 0.302052(15)
Cu1_36 Cu 0.23740(2) 0.69622(2) 0.23887(2)
Cu2_23 Cu 0.14831(3) 0.52981(2) 0.23892(3)
S1_36 S 0.18833(4) 0.73944(4) 0.28601(4)
C1_36 C 0.1710(3) 0.5952(2) 0.2452(3)
H1_36 H 0.1529 0.5962 0.2589
C2_36 C 0.1899(3) 0.6227(3) 0.2418(3)
C3_36 C 0.2022(3) 0.5675(3) 0.2107(4)
H2_36 H 0.2057 0.5489 0.1982
C4_36 C 0.2155(3) 0.6213(3) 0.2217(4)
H3_36 H 0.2279 0.6398 0.2174
C5_36 C 0.2227(3) 0.5926(3) 0.2080(4)
H4_36 H 0.2422 0.5901 0.1966
N1_36 N 0.17683(19) 0.56849(17) 0.2306(2)
N2_36 N 0.19773(15) 0.68014(15) 0.25885(16)
N3_36 N 0.1564(3) 0.6527(2) 0.2796(3)
H5_36 H 0.1438 0.6368 0.2852
C6_36 C 0.1814(2) 0.6529(2) 0.2590(3)
N4_36 N 0.1561(3) 0.6841(2) 0.2895(3)
C7_36 C 0.18047(19) 0.70050(18) 0.2780(2)
I2_23 I 0.161963(16) 0.483917(15) 0.197948(15)
I3_36 I 0.088037(16) 0.552052(15) 0.233917(15)
Cu5_23 Cu 0.14831(3) 0.47019(2) 0.26108(3)
Cu6_36 Cu 0.10169(3) 0.51108(3) 0.27981(2)
Cu1_37 Cu 0.76260(2) 0.80378(2) 0.23887(2)
S1_37 S 0.81167(4) 0.76056(4) 0.28601(4)
C1_37 C 0.8290(3) 0.9048(2) 0.2452(3)
H1_37 H 0.8471 0.9038 0.2589
C2_37 C 0.8101(3) 0.8773(3) 0.2418(3)
C3_37 C 0.7978(3) 0.9325(3) 0.2107(4)
H2_37 H 0.7943 0.9511 0.1982
C4_37 C 0.7845(3) 0.8787(3) 0.2217(4)
H3_37 H 0.7721 0.8602 0.2174
C5_37 C 0.7773(3) 0.9074(3) 0.2080(4)
H4_37 H 0.7578 0.9099 0.1966
N1_37 N 0.82317(19) 0.93151(17) 0.2306(2)
N2_37 N 0.80227(15) 0.81986(15) 0.25885(16)
N3_37 N 0.8436(3) 0.8473(2) 0.2796(3)
H5_37 H 0.8562 0.8632 0.2852
C6_37 C 0.8186(2) 0.8471(2) 0.2590(3)
N4_37 N 0.8439(3) 0.8159(2) 0.2895(3)
C7_37 C 0.81953(19) 0.79950(18) 0.2780(2)
I3_37 I 0.911963(16) 0.947948(15) 0.233917(15)
Cu4_22 Cu 0.76113(2) 0.76260(2) 0.30378(2)
Cu6_37 Cu 0.89831(3) 0.98892(3) 0.27981(2)
S3_22 S 0.71399(4) 0.81167(4) 0.26056(4)
Cu1_38 Cu 0.69622(2) 0.76113(2) 0.26260(2)
S1_38 S 0.73944(4) 0.71399(4) 0.31167(4)
C1_38 C 0.5952(2) 0.7548(3) 0.3290(3)
H1_38 H 0.5962 0.7411 0.3471
C2_38 C 0.6227(3) 0.7582(3) 0.3101(3)
C3_38 C 0.5675(3) 0.7893(4) 0.2978(3)
H2_38 H 0.5489 0.8018 0.2943
C4_38 C 0.6213(3) 0.7783(4) 0.2845(3)
H3_38 H 0.6398 0.7826 0.2721
C5_38 C 0.5926(3) 0.7920(4) 0.2773(3)
H4_38 H 0.5901 0.8034 0.2578
N1_38 N 0.56849(17) 0.7694(2) 0.32317(19)
N2_38 N 0.68014(15) 0.74115(16) 0.30227(15)
N3_38 N 0.6527(2) 0.7204(3) 0.3436(3)
H5_38 H 0.6368 0.7148 0.3562
C6_38 C 0.6529(2) 0.7410(3) 0.3186(2)
N4_38 N 0.6841(2) 0.7105(3) 0.3439(3)
C7_38 C 0.70050(18) 0.7220(2) 0.31953(19)
I3_38 I 0.552052(15) 0.766083(15) 0.411963(16)
Cu6_38 Cu 0.51108(3) 0.72019(2) 0.39831(3)
Cu1_39 Cu 0.26260(2) 0.69622(2) 0.76113(2)
S1_39 S 0.31167(4) 0.73944(4) 0.71399(4)
C1_39 C 0.3290(3) 0.5952(2) 0.7548(3)
H1_39 H 0.3471 0.5962 0.7411
C2_39 C 0.3101(3) 0.6227(3) 0.7582(3)
C3_39 C 0.2978(3) 0.5675(3) 0.7893(4)
H2_39 H 0.2943 0.5489 0.8018
C4_39 C 0.2845(3) 0.6213(3) 0.7783(4)
H3_39 H 0.2721 0.6398 0.7826
C5_39 C 0.2773(3) 0.5926(3) 0.7920(4)
H4_39 H 0.2578 0.5901 0.8034
N1_39 N 0.32317(19) 0.56849(17) 0.7694(2)
N2_39 N 0.30227(15) 0.68014(15) 0.74115(16)
N3_39 N 0.3436(3) 0.6527(2) 0.7204(3)
H5_39 H 0.3562 0.6368 0.7148
C6_39 C 0.3186(2) 0.6529(2) 0.7410(3)
N4_39 N 0.3439(3) 0.6841(2) 0.7105(3)
C7_39 C 0.31953(19) 0.70050(18) 0.7220(2)
I3_39 I 0.411963(16) 0.552052(15) 0.766083(15)
Cu6_39 Cu 0.39831(3) 0.51108(3) 0.72019(2)
Cu1_40 Cu 0.30378(2) 0.26113(2) 0.23740(2)
S1_40 S 0.26056(4) 0.21399(4) 0.18833(4)
C1_40 C 0.4048(2) 0.2548(3) 0.1710(3)
H1_40 H 0.4038 0.2411 0.1529
C2_40 C 0.3773(3) 0.2582(3) 0.1899(3)
C3_40 C 0.4325(3) 0.2893(4) 0.2022(3)
H2_40 H 0.4511 0.3018 0.2057
C4_40 C 0.3787(3) 0.2783(4) 0.2155(3)
H3_40 H 0.3602 0.2826 0.2279
C5_40 C 0.4074(3) 0.2920(4) 0.2227(3)
H4_40 H 0.4099 0.3034 0.2422
N1_40 N 0.43151(17) 0.2694(2) 0.17683(19)
N2_40 N 0.31986(15) 0.24115(16) 0.19773(15)
N3_40 N 0.3473(2) 0.2204(3) 0.1564(3)
H5_40 H 0.3632 0.2148 0.1438
C6_40 C 0.3471(2) 0.2410(3) 0.1814(2)
N4_40 N 0.3159(2) 0.2105(3) 0.1561(3)
C7_40 C 0.29950(18) 0.2220(2) 0.18047(19)
I3_40 I 0.447948(15) 0.266083(15) 0.088037(16)
Cu3_25 Cu 0.23887(2) 0.26260(2) 0.19622(2)
Cu6_40 Cu 0.48892(3) 0.22019(2) 0.10169(3)
S2_25 S 0.28601(4) 0.31167(4) 0.23944(4)
Cu1_41 Cu 0.80378(2) 0.23887(2) 0.76260(2)
S1_41 S 0.76056(4) 0.28601(4) 0.81167(4)
C1_41 C 0.9048(2) 0.2452(3) 0.8290(3)
H1_41 H 0.9038 0.2589 0.8471
C2_41 C 0.8773(3) 0.2418(3) 0.8101(3)
C3_41 C 0.9325(3) 0.2107(4) 0.7978(3)
H2_41 H 0.9511 0.1982 0.7943
C4_41 C 0.8787(3) 0.2217(4) 0.7845(3)
H3_41 H 0.8602 0.2174 0.7721
C5_41 C 0.9074(3) 0.2080(4) 0.7773(3)
H4_41 H 0.9099 0.1966 0.7578
N1_41 N 0.93151(17) 0.2306(2) 0.82317(19)
N2_41 N 0.81986(15) 0.25885(16) 0.80227(15)
N3_41 N 0.8473(2) 0.2796(3) 0.8436(3)
H5_41 H 0.8632 0.2852 0.8562
C6_41 C 0.8471(2) 0.2590(3) 0.8186(2)
N4_41 N 0.8159(2) 0.2895(3) 0.8439(3)
C7_41 C 0.79950(18) 0.2780(2) 0.81953(19)
I3_41 I 0.947948(15) 0.233917(15) 0.911963(16)
Cu6_41 Cu 0.98892(3) 0.27981(2) 0.89831(3)
Cu1_42 Cu 0.23740(2) 0.30378(2) 0.26113(2)
S1_42 S 0.18833(4) 0.26056(4) 0.21399(4)
C1_42 C 0.1710(3) 0.4048(2) 0.2548(3)
H1_42 H 0.1529 0.4038 0.2411
C2_42 C 0.1899(3) 0.3773(3) 0.2582(3)
C3_42 C 0.2022(3) 0.4325(3) 0.2893(4)
H2_42 H 0.2057 0.4511 0.3018
C4_42 C 0.2155(3) 0.3787(3) 0.2783(4)
H3_42 H 0.2279 0.3602 0.2826
C5_42 C 0.2227(3) 0.4074(3) 0.2920(4)
H4_42 H 0.2422 0.4099 0.3034
N1_42 N 0.17683(19) 0.43151(17) 0.2694(2)
N2_42 N 0.19773(15) 0.31986(15) 0.24115(16)
N3_42 N 0.1564(3) 0.3473(2) 0.2204(3)
H5_42 H 0.1438 0.3632 0.2148
C6_42 C 0.1814(2) 0.3471(2) 0.2410(3)
N4_42 N 0.1561(3) 0.3159(2) 0.2105(3)
C7_42 C 0.18047(19) 0.29950(18) 0.2220(2)
I3_42 I 0.088037(16) 0.447948(15) 0.266083(15)
Cu6_42 Cu 0.10169(3) 0.48892(3) 0.22019(2)
Cu1_43 Cu 0.98740(2) 0.48887(2) 0.55378(2)
S1_43 S 0.93833(4) 0.53601(4) 0.51056(4)
C1_43 C 0.9210(3) 0.4952(3) 0.6548(2)
H1_43 H 0.9029 0.5089 0.6538
C2_43 C 0.9399(3) 0.4918(3) 0.6273(3)
C3_43 C 0.9522(3) 0.4607(4) 0.6825(3)
H2_43 H 0.9557 0.4482 0.7011
C4_43 C 0.9655(3) 0.4717(4) 0.6287(3)
H3_43 H 0.9779 0.4674 0.6102
C5_43 C 0.9727(3) 0.4580(4) 0.6574(3)
H4_43 H 0.9922 0.4466 0.6599
N1_43 N 0.92683(19) 0.4806(2) 0.68151(17)
N2_43 N 0.94773(15) 0.50885(16) 0.56986(15)
N3_43 N 0.9064(3) 0.5296(3) 0.5973(2)
H5_43 H 0.8938 0.5352 0.6132
C6_43 C 0.9314(2) 0.5090(3) 0.5971(2)
N4_43 N 0.9061(3) 0.5395(3) 0.5659(2)
C7_43 C 0.93047(19) 0.5280(2) 0.54950(18)
I3_43 I 0.838037(16) 0.483917(15) 0.697948(15)
Cu3_26 Cu 0.94622(2) 0.48740(2) 0.48887(2)
Cu6_43 Cu 0.85169(3) 0.52981(2) 0.73892(3)
S2_26 S 0.98944(4) 0.43833(4) 0.53601(4)
Cu1_44 Cu 0.01260(2) 0.01113(2) 0.55378(2)
C1_44 C 0.0790(3) 0.0048(3) 0.6548(2)
C2_44 C 0.0601(3) 0.0082(3) 0.6273(3)
C3_44 C 0.0478(3) 0.0393(4) 0.6825(3)
H2_44 H 0.0443 0.0518 0.7011
C4_44 C 0.0345(3) 0.0283(4) 0.6287(3)
H3_44 H 0.0221 0.0326 0.6102
C5_44 C 0.0273(3) 0.0420(4) 0.6574(3)
H4_44 H 0.0078 0.0534 0.6599
N1_44 N 0.07317(19) 0.0194(2) 0.68151(17)
I3_44 I 0.161963(16) 0.016083(15) 0.697948(15)
S1_44 S 0.06167(4) 0.96399(4) 0.51056(4)
H1_44 H 0.0971 0.9911 0.6538
N2_44 N 0.05227(15) 0.99115(16) 0.56986(15)
N3_44 N 0.0936(3) 0.9704(3) 0.5973(2)
H5_44 H 0.1062 0.9648 0.6132
C6_44 C 0.0686(2) 0.9910(3) 0.5971(2)
N4_44 N 0.0939(3) 0.9605(3) 0.5659(2)
C7_44 C 0.06953(19) 0.9720(2) 0.54950(18)
Cu6_44 Cu 0.14831(3) 0.97019(2) 0.73892(3)
Cu1_45 Cu 0.01113(2) 0.44622(2) 0.48740(2)
C1_45 C 0.0048(3) 0.3452(2) 0.4210(3)
C2_45 C 0.0082(3) 0.3727(3) 0.4399(3)
C3_45 C 0.0393(4) 0.3175(3) 0.4522(3)
H2_45 H 0.0518 0.2989 0.4557
C4_45 C 0.0283(4) 0.3713(3) 0.4655(3)
H3_45 H 0.0326 0.3898 0.4779
C5_45 C 0.0420(4) 0.3426(3) 0.4727(3)
H4_45 H 0.0534 0.3401 0.4922
N1_45 N 0.0194(2) 0.31849(17) 0.42683(19)
I3_45 I 0.016083(15) 0.302052(15) 0.338037(16)
S1_45 S 0.96399(4) 0.48944(4) 0.43833(4)
H1_45 H 0.9911 0.3462 0.4029
N2_45 N 0.99115(16) 0.43014(15) 0.44773(15)
N3_45 N 0.9704(3) 0.4027(2) 0.4064(3)
H5_45 H 0.9648 0.3868 0.3938
C6_45 C 0.9910(3) 0.4029(2) 0.4314(2)
N4_45 N 0.9605(3) 0.4341(2) 0.4061(3)
C7_45 C 0.9720(2) 0.45050(18) 0.43047(19)
Cu6_45 Cu 0.97019(2) 0.26108(3) 0.35169(3)
Cu1_46 Cu 0.01113(2) 0.55378(2) 0.01260(2)
C1_46 C 0.0048(3) 0.6548(2) 0.0790(3)
C2_46 C 0.0082(3) 0.6273(3) 0.0601(3)
C3_46 C 0.0393(4) 0.6825(3) 0.0478(3)
H2_46 H 0.0518 0.7011 0.0443
C4_46 C 0.0283(4) 0.6287(3) 0.0345(3)
H3_46 H 0.0326 0.6102 0.0221
C5_46 C 0.0420(4) 0.6574(3) 0.0273(3)
H4_46 H 0.0534 0.6599 0.0078
N1_46 N 0.0194(2) 0.68151(17) 0.07317(19)
I3_46 I 0.016083(15) 0.697948(15) 0.161963(16)
S1_46 S 0.96399(4) 0.51056(4) 0.06167(4)
H1_46 H 0.9911 0.6538 0.0971
N2_46 N 0.99115(16) 0.56986(15) 0.05227(15)
N3_46 N 0.9704(3) 0.5973(2) 0.0936(3)
H5_46 H 0.9648 0.6132 0.1062
C6_46 C 0.9910(3) 0.5971(2) 0.0686(2)
N4_46 N 0.9605(3) 0.5659(2) 0.0939(3)
C7_46 C 0.9720(2) 0.54950(18) 0.06953(19)
Cu6_46 Cu 0.97019(2) 0.73892(3) 0.14831(3)
I1_24 I 0.766083(15) 0.088037(16) 0.052052(15)
S1_47 S 0.98944(4) 0.06167(4) 0.03601(4)
H1_47 H 0.8462 0.0971 0.0089
N2_47 N 0.93014(15) 0.05227(15) 0.00885(16)
N3_47 N 0.9027(2) 0.0936(3) 0.0296(3)
H5_47 H 0.8868 0.1062 0.0352
C6_47 C 0.9029(2) 0.0686(2) 0.0090(3)
N4_47 N 0.9341(2) 0.0939(3) 0.0395(3)
C7_47 C 0.95050(18) 0.06953(19) 0.0280(2)
Cu5_24 Cu 0.72019(2) 0.10169(3) 0.01108(3)
Cu6_47 Cu 0.76108(3) 0.14831(3) 0.02981(2)
Cu1_47 Cu 0.94622(2) 0.01260(2) 0.98887(2)
Cu2_24 Cu 0.77981(2) 0.10169(3) 0.98892(3)
C1_47 C 0.8452(2) 0.0790(3) 0.9952(3)
C2_47 C 0.8727(3) 0.0601(3) 0.9918(3)
C3_47 C 0.8175(3) 0.0478(3) 0.9607(4)
H2_47 H 0.7989 0.0443 0.9482
C4_47 C 0.8713(3) 0.0345(3) 0.9717(4)
H3_47 H 0.8898 0.0221 0.9674
C5_47 C 0.8426(3) 0.0273(3) 0.9580(4)
H4_47 H 0.8401 0.0078 0.9466
N1_47 N 0.81849(17) 0.07317(19) 0.9806(2)
I2_24 I 0.733917(15) 0.088037(16) 0.947948(15)
I3_47 I 0.802052(15) 0.161963(16) 0.983917(15)
Cu1_48 Cu 0.55378(2) 0.01260(2) 0.01113(2)
C1_48 C 0.6548(2) 0.0790(3) 0.0048(3)
C2_48 C 0.6273(3) 0.0601(3) 0.0082(3)
C3_48 C 0.6825(3) 0.0478(3) 0.0393(4)
H2_48 H 0.7011 0.0443 0.0518
C4_48 C 0.6287(3) 0.0345(3) 0.0283(4)
H3_48 H 0.6102 0.0221 0.0326
C5_48 C 0.6574(3) 0.0273(3) 0.0420(4)
H4_48 H 0.6599 0.0078 0.0534
N1_48 N 0.68151(17) 0.07317(19) 0.0194(2)
I3_48 I 0.697948(15) 0.161963(16) 0.016083(15)
S1_48 S 0.51056(4) 0.06167(4) 0.96399(4)
H1_48 H 0.6538 0.0971 0.9911
N2_48 N 0.56986(15) 0.05227(15) 0.99115(16)
N3_48 N 0.5973(2) 0.0936(3) 0.9704(3)
H5_48 H 0.6132 0.1062 0.9648
C6_48 C 0.5971(2) 0.0686(2) 0.9910(3)
N4_48 N 0.5659(2) 0.0939(3) 0.9605(3)
C7_48 C 0.54950(18) 0.06953(19) 0.9720(2)
Cu6_48 Cu 0.73892(3) 0.14831(3) 0.97019(2)
C1_49 C 0.2548(3) 0.3290(3) 0.9048(2)
H1_49 H 0.2411 0.3471 0.9038
C2_49 C 0.2582(3) 0.3101(3) 0.8773(3)
C3_49 C 0.2893(4) 0.2978(3) 0.9325(3)
H2_49 H 0.3018 0.2943 0.9511
C4_49 C 0.2783(4) 0.2845(3) 0.8787(3)
H3_49 H 0.2826 0.2721 0.8602
C5_49 C 0.2920(4) 0.2773(3) 0.9074(3)
H4_49 H 0.3034 0.2578 0.9099
N1_49 N 0.2694(2) 0.32317(19) 0.93151(17)
N2_49 N 0.24115(16) 0.30227(15) 0.81986(15)
N3_49 N 0.2204(3) 0.3436(3) 0.8473(2)
H5_49 H 0.2148 0.3562 0.8632
C6_49 C 0.2410(3) 0.3186(2) 0.8471(2)
N4_49 N 0.2105(3) 0.3439(3) 0.8159(2)
C7_49 C 0.2220(2) 0.31953(19) 0.79950(18)
C1_50 C 0.4210(3) 0.5048(3) 0.6548(2)
H1_50 H 0.4029 0.4911 0.6538
C2_50 C 0.4399(3) 0.5082(3) 0.6273(3)
C3_50 C 0.4522(3) 0.5393(4) 0.6825(3)
H2_50 H 0.4557 0.5518 0.7011
C4_50 C 0.4655(3) 0.5283(4) 0.6287(3)
H3_50 H 0.4779 0.5326 0.6102
C5_50 C 0.4727(3) 0.5420(4) 0.6574(3)
H4_50 H 0.4922 0.5534 0.6599
N1_50 N 0.42683(19) 0.5194(2) 0.68151(17)
N2_50 N 0.44773(15) 0.49115(16) 0.56986(15)
N3_50 N 0.4064(3) 0.4704(3) 0.5973(2)
H5_50 H 0.3938 0.4648 0.6132
C6_50 C 0.4314(2) 0.4910(3) 0.5971(2)
N4_50 N 0.4061(3) 0.4605(3) 0.5659(2)
C7_50 C 0.43047(19) 0.4720(2) 0.54950(18)
C1_51 C 0.7452(3) 0.1710(3) 0.9048(2)
H1_51 H 0.7589 0.1529 0.9038
C2_51 C 0.7418(3) 0.1899(3) 0.8773(3)
C3_51 C 0.7107(4) 0.2022(3) 0.9325(3)
H2_51 H 0.6982 0.2057 0.9511
C4_51 C 0.7217(4) 0.2155(3) 0.8787(3)
H3_51 H 0.7174 0.2279 0.8602
C5_51 C 0.7080(4) 0.2227(3) 0.9074(3)
H4_51 H 0.6966 0.2422 0.9099
N1_51 N 0.7306(2) 0.17683(19) 0.93151(17)
N2_51 N 0.75885(16) 0.19773(15) 0.81986(15)
N3_51 N 0.7796(3) 0.1564(3) 0.8473(2)
H5_51 H 0.7852 0.1438 0.8632
C6_51 C 0.7590(3) 0.1814(2) 0.8471(2)
N4_51 N 0.7895(3) 0.1561(3) 0.8159(2)
C7_51 C 0.7780(2) 0.18047(19) 0.79950(18)
C1_52 C 0.0790(3) 0.4952(3) 0.1548(2)
H1_52 H 0.0971 0.5089 0.1538
C2_52 C 0.0601(3) 0.4918(3) 0.1273(3)
C3_52 C 0.0478(3) 0.4607(4) 0.1825(3)
H2_52 H 0.0443 0.4482 0.2011
C4_52 C 0.0345(3) 0.4717(4) 0.1287(3)
H3_52 H 0.0221 0.4674 0.1102
C5_52 C 0.0273(3) 0.4580(4) 0.1574(3)
H4_52 H 0.0078 0.4466 0.1599
N1_52 N 0.07317(19) 0.4806(2) 0.18151(17)
N2_52 N 0.05227(15) 0.50885(16) 0.06986(15)
N3_52 N 0.0936(3) 0.5296(3) 0.0973(2)
H5_52 H 0.1062 0.5352 0.1132
C6_52 C 0.0686(2) 0.5090(3) 0.0971(2)
N4_52 N 0.0939(3) 0.5395(3) 0.0659(2)
C7_52 C 0.06953(19) 0.5280(2) 0.04950(18)
C1_53 C 0.0048(3) 0.8452(2) 0.5790(3)
C2_53 C 0.0082(3) 0.8727(3) 0.5601(3)
C3_53 C 0.0393(4) 0.8175(3) 0.5478(3)
H2_53 H 0.0518 0.7989 0.5443
C4_53 C 0.0283(4) 0.8713(3) 0.5345(3)
H3_53 H 0.0326 0.8898 0.5221
C5_53 C 0.0420(4) 0.8426(3) 0.5273(3)
H4_53 H 0.0534 0.8401 0.5078
N1_53 N 0.0194(2) 0.81849(17) 0.57317(19)
H1_53 H 0.9911 0.8462 0.5971
N2_53 N 0.99115(16) 0.93014(15) 0.55227(15)
N3_53 N 0.9704(3) 0.9027(2) 0.5936(3)
H5_53 H 0.9648 0.8868 0.6062
C6_53 C 0.9910(3) 0.9029(2) 0.5686(2)
N4_53 N 0.9605(3) 0.9341(2) 0.5939(3)
C7_53 C 0.9720(2) 0.95050(18) 0.56953(19)
C1_54 C 0.2548(3) 0.6710(3) 0.5952(2)
H1_54 H 0.2411 0.6529 0.5962
C2_54 C 0.2582(3) 0.6899(3) 0.6227(3)
C3_54 C 0.2893(4) 0.7022(3) 0.5675(3)
H2_54 H 0.3018 0.7057 0.5489
C4_54 C 0.2783(4) 0.7155(3) 0.6213(3)
H3_54 H 0.2826 0.7279 0.6398
C5_54 C 0.2920(4) 0.7227(3) 0.5926(3)
H4_54 H 0.3034 0.7422 0.5901
N1_54 N 0.2694(2) 0.67683(19) 0.56849(17)
N2_54 N 0.24115(16) 0.69773(15) 0.68014(15)
N3_54 N 0.2204(3) 0.6564(3) 0.6527(2)
H5_54 H 0.2148 0.6438 0.6368
C6_54 C 0.2410(3) 0.6814(2) 0.6529(2)
N4_54 N 0.2105(3) 0.6561(3) 0.6841(2)
C7_54 C 0.2220(2) 0.68047(19) 0.70050(18)
C1_55 C 0.5048(3) 0.6548(2) 0.4210(3)
H1_55 H 0.4911 0.6538 0.4029
C2_55 C 0.5082(3) 0.6273(3) 0.4399(3)
C3_55 C 0.5393(4) 0.6825(3) 0.4522(3)
H2_55 H 0.5518 0.7011 0.4557
C4_55 C 0.5283(4) 0.6287(3) 0.4655(3)
H3_55 H 0.5326 0.6102 0.4779
C5_55 C 0.5420(4) 0.6574(3) 0.4727(3)
H4_55 H 0.5534 0.6599 0.4922
N1_55 N 0.5194(2) 0.68151(17) 0.42683(19)
N2_55 N 0.49115(16) 0.56986(15) 0.44773(15)
N3_55 N 0.4704(3) 0.5973(2) 0.4064(3)
H5_55 H 0.4648 0.6132 0.3938
C6_55 C 0.4910(3) 0.5971(2) 0.4314(2)
N4_55 N 0.4605(3) 0.5659(2) 0.4061(3)
C7_55 C 0.4720(2) 0.54950(18) 0.43047(19)
C1_56 C 0.1548(2) 0.0790(3) 0.4952(3)
H1_56 H 0.1538 0.0971 0.5089
C2_56 C 0.1273(3) 0.0601(3) 0.4918(3)
C3_56 C 0.1825(3) 0.0478(3) 0.4607(4)
H2_56 H 0.2011 0.0443 0.4482
C4_56 C 0.1287(3) 0.0345(3) 0.4717(4)
H3_56 H 0.1102 0.0221 0.4674
C5_56 C 0.1574(3) 0.0273(3) 0.4580(4)
H4_56 H 0.1599 0.0078 0.4466
N1_56 N 0.18151(17) 0.07317(19) 0.4806(2)
N2_56 N 0.06986(15) 0.05227(15) 0.50885(16)
N3_56 N 0.0973(2) 0.0936(3) 0.5296(3)
H5_56 H 0.1132 0.1062 0.5352
C6_56 C 0.0971(2) 0.0686(2) 0.5090(3)
N4_56 N 0.0659(2) 0.0939(3) 0.5395(3)
C7_56 C 0.04950(18) 0.06953(19) 0.5280(2)
C1_57 C 0.2452(3) 0.3290(3) 0.0952(2)
H1_57 H 0.2589 0.3471 0.0962
C2_57 C 0.2418(3) 0.3101(3) 0.1227(3)
C3_57 C 0.2107(4) 0.2978(3) 0.0675(3)
H2_57 H 0.1982 0.2943 0.0489
C4_57 C 0.2217(4) 0.2845(3) 0.1213(3)
H3_57 H 0.2174 0.2721 0.1398
C5_57 C 0.2080(4) 0.2773(3) 0.0926(3)
H4_57 H 0.1966 0.2578 0.0901
N1_57 N 0.2306(2) 0.32317(19) 0.06849(17)
N2_57 N 0.25885(16) 0.30227(15) 0.18014(15)
N3_57 N 0.2796(3) 0.3436(3) 0.1527(2)
H5_57 H 0.2852 0.3562 0.1368
C6_57 C 0.2590(3) 0.3186(2) 0.1529(2)
N4_57 N 0.2895(3) 0.3439(3) 0.1841(2)
C7_57 C 0.2780(2) 0.31953(19) 0.20050(18)
C1_58 C 0.8452(2) 0.5790(3) 0.0048(3)
C2_58 C 0.8727(3) 0.5601(3) 0.0082(3)
C3_58 C 0.8175(3) 0.5478(3) 0.0393(4)
H2_58 H 0.7989 0.5443 0.0518
C4_58 C 0.8713(3) 0.5345(3) 0.0283(4)
H3_58 H 0.8898 0.5221 0.0326
C5_58 C 0.8426(3) 0.5273(3) 0.0420(4)
H4_58 H 0.8401 0.5078 0.0534
N1_58 N 0.81849(17) 0.57317(19) 0.0194(2)
H1_58 H 0.8462 0.5971 0.9911
N2_58 N 0.93014(15) 0.55227(15) 0.99115(16)
N3_58 N 0.9027(2) 0.5936(3) 0.9704(3)
H5_58 H 0.8868 0.6062 0.9648
C6_58 C 0.9029(2) 0.5686(2) 0.9910(3)
N4_58 N 0.9341(2) 0.5939(3) 0.9605(3)
C7_58 C 0.95050(18) 0.56953(19) 0.9720(2)
C1_59 C 0.9048(2) 0.2548(3) 0.3290(3)
H1_59 H 0.9038 0.2411 0.3471
C2_59 C 0.8773(3) 0.2582(3) 0.3101(3)
C3_59 C 0.9325(3) 0.2893(4) 0.2978(3)
H2_59 H 0.9511 0.3018 0.2943
C4_59 C 0.8787(3) 0.2783(4) 0.2845(3)
H3_59 H 0.8602 0.2826 0.2721
C5_59 C 0.9074(3) 0.2920(4) 0.2773(3)
H4_59 H 0.9099 0.3034 0.2578
N1_59 N 0.93151(17) 0.2694(2) 0.32317(19)
N2_59 N 0.81986(15) 0.24115(16) 0.30227(15)
N3_59 N 0.8473(2) 0.2204(3) 0.3436(3)
H5_59 H 0.8632 0.2148 0.3562
C6_59 C 0.8471(2) 0.2410(3) 0.3186(2)
N4_59 N 0.8159(2) 0.2105(3) 0.3439(3)
C7_59 C 0.79950(18) 0.2220(2) 0.31953(19)
C1_60 C 0.3290(3) 0.9048(2) 0.2548(3)
H1_60 H 0.3471 0.9038 0.2411
C2_60 C 0.3101(3) 0.8773(3) 0.2582(3)
C3_60 C 0.2978(3) 0.9325(3) 0.2893(4)
H2_60 H 0.2943 0.9511 0.3018
C4_60 C 0.2845(3) 0.8787(3) 0.2783(4)
H3_60 H 0.2721 0.8602 0.2826
C5_60 C 0.2773(3) 0.9074(3) 0.2920(4)
H4_60 H 0.2578 0.9099 0.3034
N1_60 N 0.32317(19) 0.93151(17) 0.2694(2)
N2_60 N 0.30227(15) 0.81986(15) 0.24115(16)
N3_60 N 0.3436(3) 0.8473(2) 0.2204(3)
H5_60 H 0.3562 0.8632 0.2148
C6_60 C 0.3186(2) 0.8471(2) 0.2410(3)
N4_60 N 0.3439(3) 0.8159(2) 0.2105(3)
C7_60 C 0.31953(19) 0.79950(18) 0.2220(2)
C1_61 C 0.6710(3) 0.5952(2) 0.2548(3)
H1_61 H 0.6529 0.5962 0.2411
C2_61 C 0.6899(3) 0.6227(3) 0.2582(3)
C3_61 C 0.7022(3) 0.5675(3) 0.2893(4)
H2_61 H 0.7057 0.5489 0.3018
C4_61 C 0.7155(3) 0.6213(3) 0.2783(4)
H3_61 H 0.7279 0.6398 0.2826
C5_61 C 0.7227(3) 0.5926(3) 0.2920(4)
H4_61 H 0.7422 0.5901 0.3034
N1_61 N 0.67683(19) 0.56849(17) 0.2694(2)
N2_61 N 0.69773(15) 0.68014(15) 0.24115(16)
N3_61 N 0.6564(3) 0.6527(2) 0.2204(3)
H5_61 H 0.6438 0.6368 0.2148
C6_61 C 0.6814(2) 0.6529(2) 0.2410(3)
N4_61 N 0.6561(3) 0.6841(2) 0.2105(3)
C7_61 C 0.68047(19) 0.70050(18) 0.2220(2)
C1_62 C 0.9048(2) 0.7452(3) 0.1710(3)
H1_62 H 0.9038 0.7589 0.1529
C2_62 C 0.8773(3) 0.7418(3) 0.1899(3)
C3_62 C 0.9325(3) 0.7107(4) 0.2022(3)
H2_62 H 0.9511 0.6982 0.2057
C4_62 C 0.8787(3) 0.7217(4) 0.2155(3)
H3_62 H 0.8602 0.7174 0.2279
C5_62 C 0.9074(3) 0.7080(4) 0.2227(3)
H4_62 H 0.9099 0.6966 0.2422
N1_62 N 0.93151(17) 0.7306(2) 0.17683(19)
N2_62 N 0.81986(15) 0.75885(16) 0.19773(15)
N3_62 N 0.8473(2) 0.7796(3) 0.1564(3)
H5_62 H 0.8632 0.7852 0.1438
C6_62 C 0.8471(2) 0.7590(3) 0.1814(2)
N4_62 N 0.8159(2) 0.7895(3) 0.1561(3)
C7_62 C 0.79950(18) 0.7780(2) 0.18047(19)
C1_63 C 0.1710(3) 0.9048(2) 0.7452(3)
H1_63 H 0.1529 0.9038 0.7589
C2_63 C 0.1899(3) 0.8773(3) 0.7418(3)
C3_63 C 0.2022(3) 0.9325(3) 0.7107(4)
H2_63 H 0.2057 0.9511 0.6982
C4_63 C 0.2155(3) 0.8787(3) 0.7217(4)
H3_63 H 0.2279 0.8602 0.7174
C5_63 C 0.2227(3) 0.9074(3) 0.7080(4)
H4_63 H 0.2422 0.9099 0.6966
N1_63 N 0.17683(19) 0.93151(17) 0.7306(2)
N2_63 N 0.19773(15) 0.81986(15) 0.75885(16)
N3_63 N 0.1564(3) 0.8473(2) 0.7796(3)
H5_63 H 0.1438 0.8632 0.7852
C6_63 C 0.1814(2) 0.8471(2) 0.7590(3)
N4_63 N 0.1561(3) 0.8159(2) 0.7895(3)
C7_63 C 0.18047(19) 0.79950(18) 0.7780(2)
C1_64 C 0.0952(2) 0.2452(3) 0.3290(3)
H1_64 H 0.0962 0.2589 0.3471
C2_64 C 0.1227(3) 0.2418(3) 0.3101(3)
C3_64 C 0.0675(3) 0.2107(4) 0.2978(3)
H2_64 H 0.0489 0.1982 0.2943
C4_64 C 0.1213(3) 0.2217(4) 0.2845(3)
H3_64 H 0.1398 0.2174 0.2721
C5_64 C 0.0926(3) 0.2080(4) 0.2773(3)
H4_64 H 0.0901 0.1966 0.2578
N1_64 N 0.06849(17) 0.2306(2) 0.32317(19)
N2_64 N 0.18014(15) 0.25885(16) 0.30227(15)
N3_64 N 0.1527(2) 0.2796(3) 0.3436(3)
H5_64 H 0.1368 0.2852 0.3562
C6_64 C 0.1529(2) 0.2590(3) 0.3186(2)
N4_64 N 0.1841(2) 0.2895(3) 0.3439(3)
C7_64 C 0.20050(18) 0.2780(2) 0.31953(19)
C1_65 C 0.5952(2) 0.2548(3) 0.6710(3)
H1_65 H 0.5962 0.2411 0.6529
C2_65 C 0.6227(3) 0.2582(3) 0.6899(3)
C3_65 C 0.5675(3) 0.2893(4) 0.7022(3)
H2_65 H 0.5489 0.3018 0.7057
C4_65 C 0.6213(3) 0.2783(4) 0.7155(3)
H3_65 H 0.6398 0.2826 0.7279
C5_65 C 0.5926(3) 0.2920(4) 0.7227(3)
H4_65 H 0.5901 0.3034 0.7422
N1_65 N 0.56849(17) 0.2694(2) 0.67683(19)
N2_65 N 0.68014(15) 0.24115(16) 0.69773(15)
N3_65 N 0.6527(2) 0.2204(3) 0.6564(3)
H5_65 H 0.6368 0.2148 0.6438
C6_65 C 0.6529(2) 0.2410(3) 0.6814(2)
N4_65 N 0.6841(2) 0.2105(3) 0.6561(3)
C7_65 C 0.70050(18) 0.2220(2) 0.68047(19)
C1_66 C 0.3290(3) 0.0952(2) 0.2452(3)
H1_66 H 0.3471 0.0962 0.2589
C2_66 C 0.3101(3) 0.1227(3) 0.2418(3)
C3_66 C 0.2978(3) 0.0675(3) 0.2107(4)
H2_66 H 0.2943 0.0489 0.1982
C4_66 C 0.2845(3) 0.1213(3) 0.2217(4)
H3_66 H 0.2721 0.1398 0.2174
C5_66 C 0.2773(3) 0.0926(3) 0.2080(4)
H4_66 H 0.2578 0.0901 0.1966
N1_66 N 0.32317(19) 0.06849(17) 0.2306(2)
N2_66 N 0.30227(15) 0.18014(15) 0.25885(16)
N3_66 N 0.3436(3) 0.1527(2) 0.2796(3)
H5_66 H 0.3562 0.1368 0.2852
C6_66 C 0.3186(2) 0.1529(2) 0.2590(3)
N4_66 N 0.3439(3) 0.1841(2) 0.2895(3)
C7_66 C 0.31953(19) 0.20050(18) 0.2780(2)
C1_67 C 0.5790(3) 0.0048(3) 0.8452(2)
C2_67 C 0.5601(3) 0.0082(3) 0.8727(3)
C3_67 C 0.5478(3) 0.0393(4) 0.8175(3)
H2_67 H 0.5443 0.0518 0.7989
C4_67 C 0.5345(3) 0.0283(4) 0.8713(3)
H3_67 H 0.5221 0.0326 0.8898
C5_67 C 0.5273(3) 0.0420(4) 0.8426(3)
H4_67 H 0.5078 0.0534 0.8401
N1_67 N 0.57317(19) 0.0194(2) 0.81849(17)
H1_67 H 0.5971 0.9911 0.8462
N2_67 N 0.55227(15) 0.99115(16) 0.93014(15)
N3_67 N 0.5936(3) 0.9704(3) 0.9027(2)
H5_67 H 0.6062 0.9648 0.8868
C6_67 C 0.5686(2) 0.9910(3) 0.9029(2)
N4_67 N 0.5939(3) 0.9605(3) 0.9341(2)
C7_67 C 0.56953(19) 0.9720(2) 0.95050(18)
C1_68 C 0.4210(3) 0.4952(3) 0.8452(2)
H1_68 H 0.4029 0.5089 0.8462
C2_68 C 0.4399(3) 0.4918(3) 0.8727(3)
C3_68 C 0.4522(3) 0.4607(4) 0.8175(3)
H2_68 H 0.4557 0.4482 0.7989
C4_68 C 0.4655(3) 0.4717(4) 0.8713(3)
H3_68 H 0.4779 0.4674 0.8898
C5_68 C 0.4727(3) 0.4580(4) 0.8426(3)
H4_68 H 0.4922 0.4466 0.8401
N1_68 N 0.42683(19) 0.4806(2) 0.81849(17)
N2_68 N 0.44773(15) 0.50885(16) 0.93014(15)
N3_68 N 0.4064(3) 0.5296(3) 0.9027(2)
H5_68 H 0.3938 0.5352 0.8868
C6_68 C 0.4314(2) 0.5090(3) 0.9029(2)
N4_68 N 0.4061(3) 0.5395(3) 0.9341(2)
C7_68 C 0.43047(19) 0.5280(2) 0.95050(18)
C1_69 C 0.4952(3) 0.1548(2) 0.0790(3)
H1_69 H 0.5089 0.1538 0.0971
C2_69 C 0.4918(3) 0.1273(3) 0.0601(3)
C3_69 C 0.4607(4) 0.1825(3) 0.0478(3)
H2_69 H 0.4482 0.2011 0.0443
C4_69 C 0.4717(4) 0.1287(3) 0.0345(3)
H3_69 H 0.4674 0.1102 0.0221
C5_69 C 0.4580(4) 0.1574(3) 0.0273(3)
H4_69 H 0.4466 0.1599 0.0078
N1_69 N 0.4806(2) 0.18151(17) 0.07317(19)
N2_69 N 0.50885(16) 0.06986(15) 0.05227(15)
N3_69 N 0.5296(3) 0.0973(2) 0.0936(3)
H5_69 H 0.5352 0.1132 0.1062
C6_69 C 0.5090(3) 0.0971(2) 0.0686(2)
N4_69 N 0.5395(3) 0.0659(2) 0.0939(3)
C7_69 C 0.5280(2) 0.04950(18) 0.06953(19)
C1_70 C 0.4952(3) 0.8452(2) 0.4210(3)
H1_70 H 0.5089 0.8462 0.4029
C2_70 C 0.4918(3) 0.8727(3) 0.4399(3)
C3_70 C 0.4607(4) 0.8175(3) 0.4522(3)
H2_70 H 0.4482 0.7989 0.4557
C4_70 C 0.4717(4) 0.8713(3) 0.4655(3)
H3_70 H 0.4674 0.8898 0.4779
C5_70 C 0.4580(4) 0.8426(3) 0.4727(3)
H4_70 H 0.4466 0.8401 0.4922
N1_70 N 0.4806(2) 0.81849(17) 0.42683(19)
N2_70 N 0.50885(16) 0.93014(15) 0.44773(15)
N3_70 N 0.5296(3) 0.9027(2) 0.4064(3)
H5_70 H 0.5352 0.8868 0.3938
C6_70 C 0.5090(3) 0.9029(2) 0.4314(2)
N4_70 N 0.5395(3) 0.9341(2) 0.4061(3)
C7_70 C 0.5280(2) 0.95050(18) 0.43047(19)
C1_71 C 0.6548(2) 0.4210(3) 0.5048(3)
H1_71 H 0.6538 0.4029 0.4911
C2_71 C 0.6273(3) 0.4399(3) 0.5082(3)
C3_71 C 0.6825(3) 0.4522(3) 0.5393(4)
H2_71 H 0.7011 0.4557 0.5518
C4_71 C 0.6287(3) 0.4655(3) 0.5283(4)
H3_71 H 0.6102 0.4779 0.5326
C5_71 C 0.6574(3) 0.4727(3) 0.5420(4)
H4_71 H 0.6599 0.4922 0.5534
N1_71 N 0.68151(17) 0.42683(19) 0.5194(2)
N2_71 N 0.56986(15) 0.44773(15) 0.49115(16)
N3_71 N 0.5973(2) 0.4064(3) 0.4704(3)
H5_71 H 0.6132 0.3938 0.4648
C6_71 C 0.5971(2) 0.4314(2) 0.4910(3)
N4_71 N 0.5659(2) 0.4061(3) 0.4605(3)
C7_71 C 0.54950(18) 0.43047(19) 0.4720(2)
C1_72 C 0.8452(2) 0.4210(3) 0.4952(3)
H1_72 H 0.8462 0.4029 0.5089
C2_72 C 0.8727(3) 0.4399(3) 0.4918(3)
C3_72 C 0.8175(3) 0.4522(3) 0.4607(4)
H2_72 H 0.7989 0.4557 0.4482
C4_72 C 0.8713(3) 0.4655(3) 0.4717(4)
H3_72 H 0.8898 0.4779 0.4674
C5_72 C 0.8426(3) 0.4727(3) 0.4580(4)
H4_72 H 0.8401 0.4922 0.4466
N1_72 N 0.81849(17) 0.42683(19) 0.4806(2)
N2_72 N 0.93014(15) 0.44773(15) 0.50885(16)
N3_72 N 0.9027(2) 0.4064(3) 0.5296(3)
H5_72 H 0.8868 0.3938 0.5352
C6_72 C 0.9029(2) 0.4314(2) 0.5090(3)
N4_72 N 0.9341(2) 0.4061(3) 0.5395(3)
C7_72 C 0.95050(18) 0.43047(19) 0.5280(2)
C1_73 C 0.7548(3) 0.8290(3) 0.4048(2)
H1_73 H 0.7411 0.8471 0.4038
C2_73 C 0.7582(3) 0.8101(3) 0.3773(3)
C3_73 C 0.7893(4) 0.7978(3) 0.4325(3)
H2_73 H 0.8018 0.7943 0.4511
C4_73 C 0.7783(4) 0.7845(3) 0.3787(3)
H3_73 H 0.7826 0.7721 0.3602
C5_73 C 0.7920(4) 0.7773(3) 0.4074(3)
H4_73 H 0.8034 0.7578 0.4099
N1_73 N 0.7694(2) 0.82317(19) 0.43151(17)
N2_73 N 0.74115(16) 0.80227(15) 0.31986(15)
N3_73 N 0.7204(3) 0.8436(3) 0.3473(2)
H5_73 H 0.7148 0.8562 0.3632
C6_73 C 0.7410(3) 0.8186(2) 0.3471(2)
N4_73 N 0.7105(3) 0.8439(3) 0.3159(2)
C7_73 C 0.7220(2) 0.81953(19) 0.29950(18)
C1_74 C 0.9210(3) 0.0048(3) 0.1548(2)
C2_74 C 0.9399(3) 0.0082(3) 0.1273(3)
C3_74 C 0.9522(3) 0.0393(4) 0.1825(3)
H2_74 H 0.9557 0.0518 0.2011
C4_74 C 0.9655(3) 0.0283(4) 0.1287(3)
H3_74 H 0.9779 0.0326 0.1102
C5_74 C 0.9727(3) 0.0420(4) 0.1574(3)
H4_74 H 0.9922 0.0534 0.1599
N1_74 N 0.92683(19) 0.0194(2) 0.18151(17)
H1_74 H 0.9029 0.9911 0.1538
N2_74 N 0.94773(15) 0.99115(16) 0.06986(15)
N3_74 N 0.9064(3) 0.9704(3) 0.0973(2)
H5_74 H 0.8938 0.9648 0.1132
C6_74 C 0.9314(2) 0.9910(3) 0.0971(2)
N4_74 N 0.9061(3) 0.9605(3) 0.0659(2)
C7_74 C 0.93047(19) 0.9720(2) 0.04950(18)
C1_75 C 0.2452(3) 0.6710(3) 0.4048(2)
H1_75 H 0.2589 0.6529 0.4038
C2_75 C 0.2418(3) 0.6899(3) 0.3773(3)
C3_75 C 0.2107(4) 0.7022(3) 0.4325(3)
H2_75 H 0.1982 0.7057 0.4511
C4_75 C 0.2217(4) 0.7155(3) 0.3787(3)
H3_75 H 0.2174 0.7279 0.3602
C5_75 C 0.2080(4) 0.7227(3) 0.4074(3)
H4_75 H 0.1966 0.7422 0.4099
N1_75 N 0.2306(2) 0.67683(19) 0.43151(17)
N2_75 N 0.25885(16) 0.69773(15) 0.31986(15)
N3_75 N 0.2796(3) 0.6564(3) 0.3473(2)
H5_75 H 0.2852 0.6438 0.3632
C6_75 C 0.2590(3) 0.6814(2) 0.3471(2)
N4_75 N 0.2895(3) 0.6561(3) 0.3159(2)
C7_75 C 0.2780(2) 0.68047(19) 0.29950(18)
H1_76 H 0.5971 0.0089 0.6538
N2_76 N 0.55227(15) 0.00885(16) 0.56986(15)
N3_76 N 0.5936(3) 0.0296(3) 0.5973(2)
H5_76 H 0.6062 0.0352 0.6132
C6_76 C 0.5686(2) 0.0090(3) 0.5971(2)
N4_76 N 0.5939(3) 0.0395(3) 0.5659(2)
C7_76 C 0.56953(19) 0.0280(2) 0.54950(18)
C1_76 C 0.5790(3) 0.9952(3) 0.6548(2)
C2_76 C 0.5601(3) 0.9918(3) 0.6273(3)
C3_76 C 0.5478(3) 0.9607(4) 0.6825(3)
H2_76 H 0.5443 0.9482 0.7011
C4_76 C 0.5345(3) 0.9717(4) 0.6287(3)
H3_76 H 0.5221 0.9674 0.6102
C5_76 C 0.5273(3) 0.9580(4) 0.6574(3)
H4_76 H 0.5078 0.9466 0.6599
N1_76 N 0.57317(19) 0.9806(2) 0.68151(17)
C1_77 C 0.5048(3) 0.3452(2) 0.0790(3)
H1_77 H 0.4911 0.3462 0.0971
C2_77 C 0.5082(3) 0.3727(3) 0.0601(3)
C3_77 C 0.5393(4) 0.3175(3) 0.0478(3)
H2_77 H 0.5518 0.2989 0.0443
C4_77 C 0.5283(4) 0.3713(3) 0.0345(3)
H3_77 H 0.5326 0.3898 0.0221
C5_77 C 0.5420(4) 0.3426(3) 0.0273(3)
H4_77 H 0.5534 0.3401 0.0078
N1_77 N 0.5194(2) 0.31849(17) 0.07317(19)
N2_77 N 0.49115(16) 0.43014(15) 0.05227(15)
N3_77 N 0.4704(3) 0.4027(2) 0.0936(3)
H5_77 H 0.4648 0.3868 0.1062
C6_77 C 0.4910(3) 0.4029(2) 0.0686(2)
N4_77 N 0.4605(3) 0.4341(2) 0.0939(3)
C7_77 C 0.4720(2) 0.45050(18) 0.06953(19)
C1_78 C 0.7548(3) 0.1710(3) 0.0952(2)
H1_78 H 0.7411 0.1529 0.0962
C2_78 C 0.7582(3) 0.1899(3) 0.1227(3)
C3_78 C 0.7893(4) 0.2022(3) 0.0675(3)
H2_78 H 0.8018 0.2057 0.0489
C4_78 C 0.7783(4) 0.2155(3) 0.1213(3)
H3_78 H 0.7826 0.2279 0.1398
C5_78 C 0.7920(4) 0.2227(3) 0.0926(3)
H4_78 H 0.8034 0.2422 0.0901
N1_78 N 0.7694(2) 0.17683(19) 0.06849(17)
N2_78 N 0.74115(16) 0.19773(15) 0.18014(15)
N3_78 N 0.7204(3) 0.1564(3) 0.1527(2)
H5_78 H 0.7148 0.1438 0.1368
C6_78 C 0.7410(3) 0.1814(2) 0.1529(2)
N4_78 N 0.7105(3) 0.1561(3) 0.1841(2)
C7_78 C 0.7220(2) 0.18047(19) 0.20050(18)
C1_79 C 0.0048(3) 0.1548(2) 0.9210(3)
C2_79 C 0.0082(3) 0.1273(3) 0.9399(3)
C3_79 C 0.0393(4) 0.1825(3) 0.9522(3)
H2_79 H 0.0518 0.2011 0.9557
C4_79 C 0.0283(4) 0.1287(3) 0.9655(3)
H3_79 H 0.0326 0.1102 0.9779
C5_79 C 0.0420(4) 0.1574(3) 0.9727(3)
H4_79 H 0.0534 0.1599 0.9922
N1_79 N 0.0194(2) 0.18151(17) 0.92683(19)
H1_79 H 0.9911 0.1538 0.9029
N2_79 N 0.99115(16) 0.06986(15) 0.94773(15)
N3_79 N 0.9704(3) 0.0973(2) 0.9064(3)
H5_79 H 0.9648 0.1132 0.8938
C6_79 C 0.9910(3) 0.0971(2) 0.9314(2)
N4_79 N 0.9605(3) 0.0659(2) 0.9061(3)
C7_79 C 0.9720(2) 0.04950(18) 0.93047(19)
H1_80 H 0.6538 0.5971 0.0089
N2_80 N 0.56986(15) 0.55227(15) 0.00885(16)
N3_80 N 0.5973(2) 0.5936(3) 0.0296(3)
H5_80 H 0.6132 0.6062 0.0352
C6_80 C 0.5971(2) 0.5686(2) 0.0090(3)
N4_80 N 0.5659(2) 0.5939(3) 0.0395(3)
C7_80 C 0.54950(18) 0.56953(19) 0.0280(2)
C1_80 C 0.6548(2) 0.5790(3) 0.9952(3)
C2_80 C 0.6273(3) 0.5601(3) 0.9918(3)
C3_80 C 0.6825(3) 0.5478(3) 0.9607(4)
H2_80 H 0.7011 0.5443 0.9482
C4_80 C 0.6287(3) 0.5345(3) 0.9717(4)
H3_80 H 0.6102 0.5221 0.9674
C5_80 C 0.6574(3) 0.5273(3) 0.9580(4)
H4_80 H 0.6599 0.5078 0.9466
N1_80 N 0.68151(17) 0.57317(19) 0.9806(2)
C1_81 C 0.7452(3) 0.8290(3) 0.5952(2)
H1_81 H 0.7589 0.8471 0.5962
C2_81 C 0.7418(3) 0.8101(3) 0.6227(3)
C3_81 C 0.7107(4) 0.7978(3) 0.5675(3)
H2_81 H 0.6982 0.7943 0.5489
C4_81 C 0.7217(4) 0.7845(3) 0.6213(3)
H3_81 H 0.7174 0.7721 0.6398
C5_81 C 0.7080(4) 0.7773(3) 0.5926(3)
H4_81 H 0.6966 0.7578 0.5901
N1_81 N 0.7306(2) 0.82317(19) 0.56849(17)
N2_81 N 0.75885(16) 0.80227(15) 0.68014(15)
N3_81 N 0.7796(3) 0.8436(3) 0.6527(2)
H5_81 H 0.7852 0.8562 0.6368
C6_81 C 0.7590(3) 0.8186(2) 0.6529(2)
N4_81 N 0.7895(3) 0.8439(3) 0.6841(2)
C7_81 C 0.7780(2) 0.81953(19) 0.70050(18)
C1_82 C 0.3452(2) 0.0790(3) 0.5048(3)
H1_82 H 0.3462 0.0971 0.4911
C2_82 C 0.3727(3) 0.0601(3) 0.5082(3)
C3_82 C 0.3175(3) 0.0478(3) 0.5393(4)
H2_82 H 0.2989 0.0443 0.5518
C4_82 C 0.3713(3) 0.0345(3) 0.5283(4)
H3_82 H 0.3898 0.0221 0.5326
C5_82 C 0.3426(3) 0.0273(3) 0.5420(4)
H4_82 H 0.3401 0.0078 0.5534
N1_82 N 0.31849(17) 0.07317(19) 0.5194(2)
N2_82 N 0.43014(15) 0.05227(15) 0.49115(16)
N3_82 N 0.4027(2) 0.0936(3) 0.4704(3)
H5_82 H 0.3868 0.1062 0.4648
C6_82 C 0.4029(2) 0.0686(2) 0.4910(3)
N4_82 N 0.4341(2) 0.0939(3) 0.4605(3)
C7_82 C 0.45050(18) 0.06953(19) 0.4720(2)
C1_83 C 0.4048(2) 0.7548(3) 0.8290(3)
H1_83 H 0.4038 0.7411 0.8471
C2_83 C 0.3773(3) 0.7582(3) 0.8101(3)
C3_83 C 0.4325(3) 0.7893(4) 0.7978(3)
H2_83 H 0.4511 0.8018 0.7943
C4_83 C 0.3787(3) 0.7783(4) 0.7845(3)
H3_83 H 0.3602 0.7826 0.7721
C5_83 C 0.4074(3) 0.7920(4) 0.7773(3)
H4_83 H 0.4099 0.8034 0.7578
N1_83 N 0.43151(17) 0.7694(2) 0.82317(19)
N2_83 N 0.31986(15) 0.74115(16) 0.80227(15)
N3_83 N 0.3473(2) 0.7204(3) 0.8436(3)
H5_83 H 0.3632 0.7148 0.8562
C6_83 C 0.3471(2) 0.7410(3) 0.8186(2)
N4_83 N 0.3159(2) 0.7105(3) 0.8439(3)
C7_83 C 0.29950(18) 0.7220(2) 0.81953(19)
C1_84 C 0.8290(3) 0.4048(2) 0.7548(3)
H1_84 H 0.8471 0.4038 0.7411
C2_84 C 0.8101(3) 0.3773(3) 0.7582(3)
C3_84 C 0.7978(3) 0.4325(3) 0.7893(4)
H2_84 H 0.7943 0.4511 0.8018
C4_84 C 0.7845(3) 0.3787(3) 0.7783(4)
H3_84 H 0.7721 0.3602 0.7826
C5_84 C 0.7773(3) 0.4074(3) 0.7920(4)
H4_84 H 0.7578 0.4099 0.8034
N1_84 N 0.82317(19) 0.43151(17) 0.7694(2)
N2_84 N 0.80227(15) 0.31986(15) 0.74115(16)
N3_84 N 0.8436(3) 0.3473(2) 0.7204(3)
H5_84 H 0.8562 0.3632 0.7148
C6_84 C 0.8186(2) 0.3471(2) 0.7410(3)
N4_84 N 0.8439(3) 0.3159(2) 0.7105(3)
C7_84 C 0.81953(19) 0.29950(18) 0.7220(2)
C1_85 C 0.1710(3) 0.0952(2) 0.7548(3)
H1_85 H 0.1529 0.0962 0.7411
C2_85 C 0.1899(3) 0.1227(3) 0.7582(3)
C3_85 C 0.2022(3) 0.0675(3) 0.7893(4)
H2_85 H 0.2057 0.0489 0.8018
C4_85 C 0.2155(3) 0.1213(3) 0.7783(4)
H3_85 H 0.2279 0.1398 0.7826
C5_85 C 0.2227(3) 0.0926(3) 0.7920(4)
H4_85 H 0.2422 0.0901 0.8034
N1_85 N 0.17683(19) 0.06849(17) 0.7694(2)
N2_85 N 0.19773(15) 0.18014(15) 0.74115(16)
N3_85 N 0.1564(3) 0.1527(2) 0.7204(3)
H5_85 H 0.1438 0.1368 0.7148
C6_85 C 0.1814(2) 0.1529(2) 0.7410(3)
N4_85 N 0.1561(3) 0.1841(2) 0.7105(3)
C7_85 C 0.18047(19) 0.20050(18) 0.7220(2)
C1_86 C 0.4048(2) 0.2452(3) 0.6710(3)
H1_86 H 0.4038 0.2589 0.6529
C2_86 C 0.3773(3) 0.2418(3) 0.6899(3)
C3_86 C 0.4325(3) 0.2107(4) 0.7022(3)
H2_86 H 0.4511 0.1982 0.7057
C4_86 C 0.3787(3) 0.2217(4) 0.7155(3)
H3_86 H 0.3602 0.2174 0.7279
C5_86 C 0.4074(3) 0.2080(4) 0.7227(3)
H4_86 H 0.4099 0.1966 0.7422
N1_86 N 0.43151(17) 0.2306(2) 0.67683(19)
N2_86 N 0.31986(15) 0.25885(16) 0.69773(15)
N3_86 N 0.3473(2) 0.2796(3) 0.6564(3)
H5_86 H 0.3632 0.2852 0.6438
C6_86 C 0.3471(2) 0.2590(3) 0.6814(2)
N4_86 N 0.3159(2) 0.2895(3) 0.6561(3)
C7_86 C 0.29950(18) 0.2780(2) 0.68047(19)
C1_87 C 0.6710(3) 0.4048(2) 0.2452(3)
H1_87 H 0.6529 0.4038 0.2589
C2_87 C 0.6899(3) 0.3773(3) 0.2418(3)
C3_87 C 0.7022(3) 0.4325(3) 0.2107(4)
H2_87 H 0.7057 0.4511 0.1982
C4_87 C 0.7155(3) 0.3787(3) 0.2217(4)
H3_87 H 0.7279 0.3602 0.2174
C5_87 C 0.7227(3) 0.4074(3) 0.2080(4)
H4_87 H 0.7422 0.4099 0.1966
N1_87 N 0.67683(19) 0.43151(17) 0.2306(2)
N2_87 N 0.69773(15) 0.31986(15) 0.25885(16)
N3_87 N 0.6564(3) 0.3473(2) 0.2796(3)
H5_87 H 0.6438 0.3632 0.2852
C6_87 C 0.6814(2) 0.3471(2) 0.2590(3)
N4_87 N 0.6561(3) 0.3159(2) 0.2895(3)
C7_87 C 0.68047(19) 0.29950(18) 0.2780(2)
C1_88 C 0.5952(2) 0.7452(3) 0.8290(3)
H1_88 H 0.5962 0.7589 0.8471
C2_88 C 0.6227(3) 0.7418(3) 0.8101(3)
C3_88 C 0.5675(3) 0.7107(4) 0.7978(3)
H2_88 H 0.5489 0.6982 0.7943
C4_88 C 0.6213(3) 0.7217(4) 0.7845(3)
H3_88 H 0.6398 0.7174 0.7721
C5_88 C 0.5926(3) 0.7080(4) 0.7773(3)
H4_88 H 0.5901 0.6966 0.7578
N1_88 N 0.56849(17) 0.7306(2) 0.82317(19)
N2_88 N 0.68014(15) 0.75885(16) 0.80227(15)
N3_88 N 0.6527(2) 0.7796(3) 0.8436(3)
H5_88 H 0.6368 0.7852 0.8562
C6_88 C 0.6529(2) 0.7590(3) 0.8186(2)
N4_88 N 0.6841(2) 0.7895(3) 0.8439(3)
C7_88 C 0.70050(18) 0.7780(2) 0.81953(19)
C1_89 C 0.0952(2) 0.7548(3) 0.1710(3)
H1_89 H 0.0962 0.7411 0.1529
C2_89 C 0.1227(3) 0.7582(3) 0.1899(3)
C3_89 C 0.0675(3) 0.7893(4) 0.2022(3)
H2_89 H 0.0489 0.8018 0.2057
C4_89 C 0.1213(3) 0.7783(4) 0.2155(3)
H3_89 H 0.1398 0.7826 0.2279
C5_89 C 0.0926(3) 0.7920(4) 0.2227(3)
H4_89 H 0.0901 0.8034 0.2422
N1_89 N 0.06849(17) 0.7694(2) 0.17683(19)
N2_89 N 0.18014(15) 0.74115(16) 0.19773(15)
N3_89 N 0.1527(2) 0.7204(3) 0.1564(3)
H5_89 H 0.1368 0.7148 0.1438
C6_89 C 0.1529(2) 0.7410(3) 0.1814(2)
N4_89 N 0.1841(2) 0.7105(3) 0.1561(3)
C7_89 C 0.20050(18) 0.7220(2) 0.18047(19)
C1_90 C 0.8290(3) 0.5952(2) 0.7452(3)
H1_90 H 0.8471 0.5962 0.7589
C2_90 C 0.8101(3) 0.6227(3) 0.7418(3)
C3_90 C 0.7978(3) 0.5675(3) 0.7107(4)
H2_90 H 0.7943 0.5489 0.6982
C4_90 C 0.7845(3) 0.6213(3) 0.7217(4)
H3_90 H 0.7721 0.6398 0.7174
C5_90 C 0.7773(3) 0.5926(3) 0.7080(4)
H4_90 H 0.7578 0.5901 0.6966
N1_90 N 0.82317(19) 0.56849(17) 0.7306(2)
N2_90 N 0.80227(15) 0.68014(15) 0.75885(16)
N3_90 N 0.8436(3) 0.6527(2) 0.7796(3)
H5_90 H 0.8562 0.6368 0.7852
C6_90 C 0.8186(2) 0.6529(2) 0.7590(3)
N4_90 N 0.8439(3) 0.6841(2) 0.7895(3)
C7_90 C 0.81953(19) 0.70050(18) 0.7780(2)
C1_91 C 0.0790(3) 0.5048(3) 0.3452(2)
H1_91 H 0.0971 0.4911 0.3462
C2_91 C 0.0601(3) 0.5082(3) 0.3727(3)
C3_91 C 0.0478(3) 0.5393(4) 0.3175(3)
H2_91 H 0.0443 0.5518 0.2989
C4_91 C 0.0345(3) 0.5283(4) 0.3713(3)
H3_91 H 0.0221 0.5326 0.3898
C5_91 C 0.0273(3) 0.5420(4) 0.3426(3)
H4_91 H 0.0078 0.5534 0.3401
N1_91 N 0.07317(19) 0.5194(2) 0.31849(17)
N2_91 N 0.05227(15) 0.49115(16) 0.43014(15)
N3_91 N 0.0936(3) 0.4704(3) 0.4027(2)
H5_91 H 0.1062 0.4648 0.3868
C6_91 C 0.0686(2) 0.4910(3) 0.4029(2)
N4_91 N 0.0939(3) 0.4605(3) 0.4341(2)
C7_91 C 0.06953(19) 0.4720(2) 0.45050(18)
H1_92 H 0.9029 0.0089 0.3462
N2_92 N 0.94773(15) 0.00885(16) 0.43014(15)
N3_92 N 0.9064(3) 0.0296(3) 0.4027(2)
H5_92 H 0.8938 0.0352 0.3868
C6_92 C 0.9314(2) 0.0090(3) 0.4029(2)
N4_92 N 0.9061(3) 0.0395(3) 0.4341(2)
C7_92 C 0.93047(19) 0.0280(2) 0.45050(18)
C1_92 C 0.9210(3) 0.9952(3) 0.3452(2)
C2_92 C 0.9399(3) 0.9918(3) 0.3727(3)
C3_92 C 0.9522(3) 0.9607(4) 0.3175(3)
H2_92 H 0.9557 0.9482 0.2989
C4_92 C 0.9655(3) 0.9717(4) 0.3713(3)
H3_92 H 0.9779 0.9674 0.3898
C5_92 C 0.9727(3) 0.9580(4) 0.3426(3)
H4_92 H 0.9922 0.9466 0.3401
N1_92 N 0.92683(19) 0.9806(2) 0.31849(17)
H1_93 H 0.0089 0.6538 0.5971
N2_93 N 0.00885(16) 0.56986(15) 0.55227(15)
N3_93 N 0.0296(3) 0.5973(2) 0.5936(3)
H5_93 H 0.0352 0.6132 0.6062
C6_93 C 0.0090(3) 0.5971(2) 0.5686(2)
N4_93 N 0.0395(3) 0.5659(2) 0.5939(3)
C7_93 C 0.0280(2) 0.54950(18) 0.56953(19)
C1_93 C 0.9952(3) 0.6548(2) 0.5790(3)
C2_93 C 0.9918(3) 0.6273(3) 0.5601(3)
C3_93 C 0.9607(4) 0.6825(3) 0.5478(3)
H2_93 H 0.9482 0.7011 0.5443
C4_93 C 0.9717(4) 0.6287(3) 0.5345(3)
H3_93 H 0.9674 0.6102 0.5221
C5_93 C 0.9580(4) 0.6574(3) 0.5273(3)
H4_93 H 0.9466 0.6599 0.5078
N1_93 N 0.9806(2) 0.68151(17) 0.57317(19)
H1_94 H 0.0089 0.3462 0.9029
N2_94 N 0.00885(16) 0.43014(15) 0.94773(15)
N3_94 N 0.0296(3) 0.4027(2) 0.9064(3)
H5_94 H 0.0352 0.3868 0.8938
C6_94 C 0.0090(3) 0.4029(2) 0.9314(2)
N4_94 N 0.0395(3) 0.4341(2) 0.9061(3)
C7_94 C 0.0280(2) 0.45050(18) 0.93047(19)
C1_94 C 0.9952(3) 0.3452(2) 0.9210(3)
C2_94 C 0.9918(3) 0.3727(3) 0.9399(3)
C3_94 C 0.9607(4) 0.3175(3) 0.9522(3)
H2_94 H 0.9482 0.2989 0.9557
C4_94 C 0.9717(4) 0.3713(3) 0.9655(3)
H3_94 H 0.9674 0.3898 0.9779
C5_94 C 0.9580(4) 0.3426(3) 0.9727(3)
H4_94 H 0.9466 0.3401 0.9922
N1_94 N 0.9806(2) 0.31849(17) 0.92683(19)
C1_95 C 0.1548(2) 0.9210(3) 0.0048(3)
C2_95 C 0.1273(3) 0.9399(3) 0.0082(3)
C3_95 C 0.1825(3) 0.9522(3) 0.0393(4)
H2_95 H 0.2011 0.9557 0.0518
C4_95 C 0.1287(3) 0.9655(3) 0.0283(4)
H3_95 H 0.1102 0.9779 0.0326
C5_95 C 0.1574(3) 0.9727(3) 0.0420(4)
H4_95 H 0.1599 0.9922 0.0534
N1_95 N 0.18151(17) 0.92683(19) 0.0194(2)
H1_95 H 0.1538 0.9029 0.9911
N2_95 N 0.06986(15) 0.94773(15) 0.99115(16)
N3_95 N 0.0973(2) 0.9064(3) 0.9704(3)
H5_95 H 0.1132 0.8938 0.9648
C6_95 C 0.0971(2) 0.9314(2) 0.9910(3)
N4_95 N 0.0659(2) 0.9061(3) 0.9605(3)
C7_95 C 0.04950(18) 0.93047(19) 0.9720(2)
H1_96 H 0.3462 0.9029 0.0089
N2_96 N 0.43014(15) 0.94773(15) 0.00885(16)
N3_96 N 0.4027(2) 0.9064(3) 0.0296(3)
H5_96 H 0.3868 0.8938 0.0352
C6_96 C 0.4029(2) 0.9314(2) 0.0090(3)
N4_96 N 0.4341(2) 0.9061(3) 0.0395(3)
C7_96 C 0.45050(18) 0.93047(19) 0.0280(2)
C1_96 C 0.3452(2) 0.9210(3) 0.9952(3)
C2_96 C 0.3727(3) 0.9399(3) 0.9918(3)
C3_96 C 0.3175(3) 0.9522(3) 0.9607(4)
H2_96 H 0.2989 0.9557 0.9482
C4_96 C 0.3713(3) 0.9655(3) 0.9717(4)
H3_96 H 0.3898 0.9779 0.9674
C5_96 C 0.3426(3) 0.9727(3) 0.9580(4)
H4_96 H 0.3401 0.9922 0.9466
N1_96 N 0.31849(17) 0.92683(19) 0.9806(2)
loop_
_geom_bond_atom_site_label_1
_geom_bond_atom_site_label_2
_geom_bond_site_symmetry_1
_geom_bond_site_symmetry_2
I1 Cu2 1_555 1_555
Cu1 N2 1_555 1_555
Cu2 N1 1_555 1_555
S1 C7 1_555 1_555
C1 H1 1_555 1_555
C2 C1 1_555 1_555
C3 H2 1_555 1_555
C4 C2 1_555 1_555
H3 C4 1_555 1_555
C5 C3 1_555 1_555
H4 C5 1_555 1_555
N1 C1 1_555 1_555
N2 C6 1_555 1_555
N3 H5 1_555 1_555
C6 C2 1_555 1_555
N4 N3 1_555 1_555
C7 N2 1_555 1_555
I3 Cu2 1_555 1_555
Cu3 S1 1_555 1_555
Cu4 S1 1_555 1_555
Cu6 I1 1_555 1_555
S2 Cu1 1_555 1_555
S3 Cu1 1_555 1_555
C3 N1 1_555 1_555
C4 C5 1_555 1_555
N3 C6 1_555 1_555
N4 C7 1_555 1_555
I3 Cu6 1_555 1_555
I2 Cu5 1_555 1_555
I1_2 Cu2_2 1_555 1_555
Cu1_2 N2_2 1_555 1_555
Cu2_2 N1_2 1_555 1_555
S1_2 C7_2 1_555 1_555
C1_2 H1_2 1_555 1_555
C2_2 C1_2 1_555 1_555
C3_2 H2_2 1_555 1_555
C4_2 C2_2 1_555 1_555
H3_2 C4_2 1_555 1_555
C5_2 C3_2 1_555 1_555
H4_2 C5_2 1_555 1_555
N1_2 C1_2 1_555 1_555
N2_2 C6_2 1_555 1_555
N3_2 H5_2 1_555 1_555
C6_2 C2_2 1_555 1_555
N4_2 N3_2 1_555 1_555
C7_2 N2_2 1_555 1_555
I2_2 Cu2_2 1_555 1_555
I3_2 Cu2_2 1_555 1_555
Cu3_2 S1_2 1_555 1_555
Cu4_2 S1_2 1_555 1_555
Cu5_2 I1_2 1_555 1_555
Cu6_2 I1_2 1_555 1_555
S2_2 Cu1_2 1_555 1_555
S3_2 Cu1_2 1_555 1_555
C3_2 N1_2 1_555 1_555
C4_2 C5_2 1_555 1_555
N3_2 C6_2 1_555 1_555
N4_2 C7_2 1_555 1_555
I2_2 Cu5_2 1_555 1_555
I3_2 Cu6_2 1_555 1_555
I1_3 Cu2_3 1_555 1_555
Cu1_3 N2_3 1_555 1_555
Cu2_3 N1_3 1_555 1_555
S1_3 C7_3 1_555 1_555
C1_3 H1_3 1_555 1_555
C2_3 C1_3 1_555 1_555
C3_3 H2_3 1_555 1_555
C4_3 C2_3 1_555 1_555
H3_3 C4_3 1_555 1_555
C5_3 C3_3 1_555 1_555
H4_3 C5_3 1_555 1_555
N1_3 C1_3 1_555 1_555
N2_3 C6_3 1_555 1_555
N3_3 H5_3 1_555 1_555
C6_3 C2_3 1_555 1_555
N4_3 N3_3 1_555 1_555
C7_3 N2_3 1_555 1_555
I3_3 Cu2_3 1_555 1_555
Cu3_3 S1_3 1_555 1_555
Cu4_3 S1_3 1_555 1_555
Cu6_3 I1_3 1_555 1_555
S2_3 Cu1_3 1_555 1_555
S3_3 Cu1_3 1_555 1_555
C3_3 N1_3 1_555 1_555
C4_3 C5_3 1_555 1_555
N3_3 C6_3 1_555 1_555
N4_3 C7_3 1_555 1_555
I3_3 Cu6_3 1_555 1_555
I2_3 Cu5_3 1_555 1_555
I1_4 Cu2_4 1_555 1_555
Cu1_4 N2_4 1_555 1_555
Cu2_4 N1_4 1_555 1_555
S1_4 C7_4 1_555 1_555
C1_4 H1_4 1_555 1_555
C2_4 C1_4 1_555 1_555
C3_4 H2_4 1_555 1_555
C4_4 C2_4 1_555 1_555
H3_4 C4_4 1_555 1_555
C5_4 C3_4 1_555 1_555
H4_4 C5_4 1_555 1_555
N1_4 C1_4 1_555 1_555
N2_4 C6_4 1_555 1_555
N3_4 H5_4 1_555 1_555
C6_4 C2_4 1_555 1_555
N4_4 N3_4 1_555 1_555
C7_4 N2_4 1_555 1_555
I2_4 Cu2_4 1_555 1_555
I3_4 Cu2_4 1_555 1_555
Cu4_4 S1_4 1_555 1_555
Cu5_4 I1_4 1_555 1_555
Cu6_4 I1_4 1_555 1_555
S2_4 Cu1_4 1_555 1_555
C3_4 N1_4 1_555 1_555
C4_4 C5_4 1_555 1_555
N3_4 C6_4 1_555 1_555
N4_4 C7_4 1_555 1_555
I2_4 Cu5_4 1_555 1_555
I3_4 Cu6_4 1_555 1_555
S1_5 C7_5 1_555 1_555
N2_5 C6_5 1_555 1_555
N3_5 H5_5 1_555 1_555
N4_5 N3_5 1_555 1_555
C7_5 N2_5 1_555 1_555
Cu4_5 S1_5 1_555 1_555
Cu5_5 I1_5 1_555 1_555
Cu6_5 I1_5 1_555 1_555
N3_5 C6_5 1_555 1_555
N4_5 C7_5 1_555 1_555
Cu2_5 N1_5 1_555 1_555
C2_5 C1_5 1_555 1_555
C3_5 H2_5 1_555 1_555
C4_5 C2_5 1_555 1_555
H3_5 C4_5 1_555 1_555
C5_5 C3_5 1_555 1_555
H4_5 C5_5 1_555 1_555
N1_5 C1_5 1_555 1_555
I2_5 Cu2_5 1_555 1_555
I3_5 Cu2_5 1_555 1_555
S2_5 Cu1_5 1_555 1_555
C3_5 N1_5 1_555 1_555
C4_5 C5_5 1_555 1_555
I1_6 Cu2_6 1_555 1_555
Cu1_6 N2_6 1_555 1_555
Cu2_6 N1_6 1_555 1_555
S1_6 C7_6 1_555 1_555
C1_6 H1_6 1_555 1_555
C2_6 C1_6 1_555 1_555
C3_6 H2_6 1_555 1_555
C4_6 C2_6 1_555 1_555
H3_6 C4_6 1_555 1_555
C5_6 C3_6 1_555 1_555
H4_6 C5_6 1_555 1_555
N1_6 C1_6 1_555 1_555
N2_6 C6_6 1_555 1_555
N3_6 H5_6 1_555 1_555
C6_6 C2_6 1_555 1_555
N4_6 N3_6 1_555 1_555
C7_6 N2_6 1_555 1_555
I2_6 Cu2_6 1_555 1_555
I3_6 Cu2_6 1_555 1_555
Cu3_6 S1_6 1_555 1_555
Cu4_6 S1_6 1_555 1_555
Cu5_6 I1_6 1_555 1_555
Cu6_6 I1_6 1_555 1_555
S2_6 Cu1_6 1_555 1_555
S3_6 Cu1_6 1_555 1_555
C3_6 N1_6 1_555 1_555
C4_6 C5_6 1_555 1_555
N3_6 C6_6 1_555 1_555
N4_6 C7_6 1_555 1_555
I2_6 Cu5_6 1_555 1_555
I3_6 Cu6_6 1_555 1_555
I1_7 Cu2_7 1_555 1_555
Cu1_7 N2_7 1_555 1_555
Cu2_7 N1_7 1_555 1_555
S1_7 C7_7 1_555 1_555
C1_7 H1_7 1_555 1_555
C2_7 C1_7 1_555 1_555
C3_7 H2_7 1_555 1_555
C4_7 C2_7 1_555 1_555
H3_7 C4_7 1_555 1_555
C5_7 C3_7 1_555 1_555
H4_7 C5_7 1_555 1_555
N1_7 C1_7 1_555 1_555
N2_7 C6_7 1_555 1_555
N3_7 H5_7 1_555 1_555
C6_7 C2_7 1_555 1_555
N4_7 N3_7 1_555 1_555
C7_7 N2_7 1_555 1_555
I2_7 Cu2_7 1_555 1_555
I3_7 Cu2_7 1_555 1_555
Cu3_7 S1_7 1_555 1_555
Cu3_2 S1_7 1_555 1_555
Cu5_7 I1_7 1_555 1_555
Cu6_7 I1_7 1_555 1_555
S2_7 Cu1_7 1_555 1_555
S2_2 Cu1_7 1_555 1_555
C3_7 N1_7 1_555 1_555
C4_7 C5_7 1_555 1_555
N3_7 C6_7 1_555 1_555
N4_7 C7_7 1_555 1_555
I2_7 Cu5_7 1_555 1_555
I3_7 Cu6_7 1_555 1_555
I1_8 Cu2_8 1_555 1_555
Cu1_8 N2_8 1_555 1_555
Cu2_8 N1_8 1_555 1_555
S1_8 C7_8 1_555 1_555
C1_8 H1_8 1_555 1_555
C2_8 C1_8 1_555 1_555
C3_8 H2_8 1_555 1_555
C4_8 C2_8 1_555 1_555
H3_8 C4_8 1_555 1_555
C5_8 C3_8 1_555 1_555
H4_8 C5_8 1_555 1_555
N1_8 C1_8 1_555 1_555
N2_8 C6_8 1_555 1_555
N3_8 H5_8 1_555 1_555
C6_8 C2_8 1_555 1_555
N4_8 N3_8 1_555 1_555
C7_8 N2_8 1_555 1_555
I2_8 Cu2_8 1_555 1_555
I3_8 Cu2_8 1_555 1_555
Cu3_5 S1_8 1_555 1_555
Cu5_8 I1_8 1_555 1_555
Cu6_8 I1_8 1_555 1_555
S2_8 Cu1_8 1_555 1_555
C3_8 N1_8 1_555 1_555
C4_8 C5_8 1_555 1_555
N3_8 C6_8 1_555 1_555
N4_8 C7_8 1_555 1_555
I2_8 Cu5_8 1_555 1_555
I3_8 Cu6_8 1_555 1_555
Cu1_9 N2_9 1_555 1_555
Cu5 N1_9 1_555 1_555
S1_9 C7_9 1_555 1_555
C1_9 H1_9 1_555 1_555
C2_9 C1_9 1_555 1_555
C3_9 H2_9 1_555 1_555
C4_9 C2_9 1_555 1_555
H3_9 C4_9 1_555 1_555
C5_9 C3_9 1_555 1_555
H4_9 C5_9 1_555 1_555
N1_9 C1_9 1_555 1_555
N2_9 C6_9 1_555 1_555
N3_9 H5_9 1_555 1_555
C6_9 C2_9 1_555 1_555
N4_9 N3_9 1_555 1_555
C7_9 N2_9 1_555 1_555
I3_9 Cu5 1_555 1_555
Cu3_9 S1_9 1_555 1_555
Cu4_7 S1_9 1_555 1_555
Cu6_9 I2 1_555 1_555
S2_9 Cu1_9 1_555 1_555
S3_7 Cu1_9 1_555 1_555
C3_9 N1_9 1_555 1_555
C4_9 C5_9 1_555 1_555
N3_9 C6_9 1_555 1_555
N4_9 C7_9 1_555 1_555
I3_9 Cu6_9 1_555 1_555
S1_10 C7_10 1_555 1_555
N2_10 C6_10 1_555 1_555
N3_10 H5_10 1_555 1_555
N4_10 N3_10 1_555 1_555
C7_10 N2_10 1_555 1_555
Cu4_8 S1_10 1_555 1_555
Cu5_9 I1_9 1_555 1_555
Cu6_10 I1_9 1_555 1_555
N3_10 C6_10 1_555 1_555
N4_10 C7_10 1_555 1_555
Cu2_9 N1_10 1_555 1_555
C2_10 C1_10 1_555 1_555
C3_10 H2_10 1_555 1_555
C4_10 C2_10 1_555 1_555
H3_10 C4_10 1_555 1_555
C5_10 C3_10 1_555 1_555
H4_10 C5_10 1_555 1_555
N1_10 C1_10 1_555 1_555
I2_9 Cu2_9 1_555 1_555
I3_10 Cu2_9 1_555 1_555
S3_4 Cu1_10 1_555 1_555
C3_10 N1_10 1_555 1_555
C4_10 C5_10 1_555 1_555
I1_10 Cu2_10 1_555 1_555
Cu1_11 N2_11 1_555 1_555
Cu2_10 N1_11 1_555 1_555
S1_11 C7_11 1_555 1_555
C1_11 H1_11 1_555 1_555
C2_11 C1_11 1_555 1_555
C3_11 H2_11 1_555 1_555
C4_11 C2_11 1_555 1_555
H3_11 C4_11 1_555 1_555
C5_11 C3_11 1_555 1_555
H4_11 C5_11 1_555 1_555
N1_11 C1_11 1_555 1_555
N2_11 C6_11 1_555 1_555
N3_11 H5_11 1_555 1_555
C6_11 C2_11 1_555 1_555
N4_11 N3_11 1_555 1_555
C7_11 N2_11 1_555 1_555
I3_11 Cu2_10 1_555 1_555
Cu3_10 S1_11 1_555 1_555
Cu4_9 S1_11 1_555 1_555
Cu6_11 I1_10 1_555 1_555
S2_10 Cu1_11 1_555 1_555
S3_9 Cu1_11 1_555 1_555
C3_11 N1_11 1_555 1_555
C4_11 C5_11 1_555 1_555
N3_11 C6_11 1_555 1_555
N4_11 C7_11 1_555 1_555
I3_11 Cu6_11 1_555 1_555
I2_10 Cu5_10 1_555 1_555
I1_11 Cu2_11 1_555 1_555
Cu1_12 N2_12 1_555 1_555
Cu2_11 N1_12 1_555 1_555
S1_12 C7_12 1_555 1_555
C1_12 H1_12 1_555 1_555
C2_12 C1_12 1_555 1_555
C3_12 H2_12 1_555 1_555
C4_12 C2_12 1_555 1_555
H3_12 C4_12 1_555 1_555
C5_12 C3_12 1_555 1_555
H4_12 C5_12 1_555 1_555
N1_12 C1_12 1_555 1_555
N2_12 C6_12 1_555 1_555
N3_12 H5_12 1_555 1_555
C6_12 C2_12 1_555 1_555
N4_12 N3_12 1_555 1_555
C7_12 N2_12 1_555 1_555
I3_12 Cu2_11 1_555 1_555
Cu3_11 S1_12 1_555 1_555
Cu4_10 S1_12 1_555 1_555
Cu6_12 I1_11 1_555 1_555
S2_11 Cu1_12 1_555 1_555
S3_10 Cu1_12 1_555 1_555
C3_12 N1_12 1_555 1_555
C4_12 C5_12 1_555 1_555
N3_12 C6_12 1_555 1_555
N4_12 C7_12 1_555 1_555
I3_12 Cu6_12 1_555 1_555
I2_11 Cu5_11 1_555 1_555
I1_12 Cu2_12 1_555 1_555
Cu1_13 N2_13 1_555 1_555
Cu2_12 N1_13 1_555 1_555
S1_13 C7_13 1_555 1_555
C1_13 H1_13 1_555 1_555
C2_13 C1_13 1_555 1_555
C3_13 H2_13 1_555 1_555
C4_13 C2_13 1_555 1_555
H3_13 C4_13 1_555 1_555
C5_13 C3_13 1_555 1_555
H4_13 C5_13 1_555 1_555
N1_13 C1_13 1_555 1_555
N2_13 C6_13 1_555 1_555
N3_13 H5_13 1_555 1_555
C6_13 C2_13 1_555 1_555
N4_13 N3_13 1_555 1_555
C7_13 N2_13 1_555 1_555
I2_12 Cu2_12 1_555 1_555
I3_13 Cu2_12 1_555 1_555
Cu3_12 S1_13 1_555 1_555
Cu4_11 S1_13 1_555 1_555
Cu5_12 I1_12 1_555 1_555
Cu6_13 I1_12 1_555 1_555
S2_12 Cu1_13 1_555 1_555
S3_11 Cu1_13 1_555 1_555
C3_13 N1_13 1_555 1_555
C4_13 C5_13 1_555 1_555
N3_13 C6_13 1_555 1_555
N4_13 C7_13 1_555 1_555
I2_12 Cu5_12 1_555 1_555
I3_13 Cu6_13 1_555 1_555
I1_13 Cu2_13 1_555 1_555
Cu1_14 N2_14 1_555 1_555
Cu2_13 N1_14 1_555 1_555
S1_14 C7_14 1_555 1_555
C1_14 H1_14 1_555 1_555
C2_14 C1_14 1_555 1_555
C3_14 H2_14 1_555 1_555
C4_14 C2_14 1_555 1_555
H3_14 C4_14 1_555 1_555
C5_14 C3_14 1_555 1_555
H4_14 C5_14 1_555 1_555
N1_14 C1_14 1_555 1_555
N2_14 C6_14 1_555 1_555
N3_14 H5_14 1_555 1_555
C6_14 C2_14 1_555 1_555
N4_14 N3_14 1_555 1_555
C7_14 N2_14 1_555 1_555
I3_14 Cu2_13 1_555 1_555
Cu4_11 S1_14 1_555 1_555
Cu4_12 S1_14 1_555 1_555
Cu6_14 I1_13 1_555 1_555
S3_11 Cu1_14 1_555 1_555
S3_12 Cu1_14 1_555 1_555
C3_14 N1_14 1_555 1_555
C4_14 C5_14 1_555 1_555
N3_14 C6_14 1_555 1_555
N4_14 C7_14 1_555 1_555
I3_14 Cu6_14 1_555 1_555
I2_13 Cu5_13 1_555 1_555
I1_14 Cu2_14 1_555 1_555
Cu1_15 N2_15 1_555 1_555
Cu2_14 N1_15 1_555 1_555
S1_15 C7_15 1_555 1_555
C1_15 H1_15 1_555 1_555
C2_15 C1_15 1_555 1_555
C3_15 H2_15 1_555 1_555
C4_15 C2_15 1_555 1_555
H3_15 C4_15 1_555 1_555
C5_15 C3_15 1_555 1_555
H4_15 C5_15 1_555 1_555
N1_15 C1_15 1_555 1_555
N2_15 C6_15 1_555 1_555
N3_15 H5_15 1_555 1_555
C6_15 C2_15 1_555 1_555
N4_15 N3_15 1_555 1_555
C7_15 N2_15 1_555 1_555
I3_15 Cu2_14 1_555 1_555
Cu4_6 S1_15 1_555 1_555
Cu4_13 S1_15 1_555 1_555
Cu6_15 I1_14 1_555 1_555
S3_6 Cu1_15 1_555 1_555
S3_13 Cu1_15 1_555 1_555
C3_15 N1_15 1_555 1_555
C4_15 C5_15 1_555 1_555
N3_15 C6_15 1_555 1_555
N4_15 C7_15 1_555 1_555
I3_15 Cu6_15 1_555 1_555
I2_14 Cu5_14 1_555 1_555
Cu1_16 N2_16 1_555 1_555
Cu5_10 N1_16 1_555 1_555
S1_16 C7_16 1_555 1_555
C1_16 H1_16 1_555 1_555
C2_16 C1_16 1_555 1_555
C3_16 H2_16 1_555 1_555
C4_16 C2_16 1_555 1_555
H3_16 C4_16 1_555 1_555
C5_16 C3_16 1_555 1_555
H4_16 C5_16 1_555 1_555
N1_16 C1_16 1_555 1_555
N2_16 C6_16 1_555 1_555
N3_16 H5_16 1_555 1_555
C6_16 C2_16 1_555 1_555
N4_16 N3_16 1_555 1_555
C7_16 N2_16 1_555 1_555
I3_16 Cu5_10 1_555 1_555
Cu3_13 S1_16 1_555 1_555
Cu3_9 S1_16 1_555 1_555
Cu6_16 I2_10 1_555 1_555
S2_13 Cu1_16 1_555 1_555
S2_9 Cu1_16 1_555 1_555
C3_16 N1_16 1_555 1_555
C4_16 C5_16 1_555 1_555
N3_16 C6_16 1_555 1_555
N4_16 C7_16 1_555 1_555
I3_16 Cu6_16 1_555 1_555
I1_15 Cu2_15 1_555 1_555
Cu1_17 N2_17 1_555 1_555
Cu2_15 N1_17 1_555 1_555
S1_17 C7_17 1_555 1_555
C1_17 H1_17 1_555 1_555
C2_17 C1_17 1_555 1_555
C3_17 H2_17 1_555 1_555
C4_17 C2_17 1_555 1_555
H3_17 C4_17 1_555 1_555
C5_17 C3_17 1_555 1_555
H4_17 C5_17 1_555 1_555
N1_17 C1_17 1_555 1_555
N2_17 C6_17 1_555 1_555
N3_17 H5_17 1_555 1_555
C6_17 C2_17 1_555 1_555
N4_17 N3_17 1_555 1_555
C7_17 N2_17 1_555 1_555
I2_15 Cu2_15 1_555 1_555
I3_17 Cu2_15 1_555 1_555
Cu3_14 S1_17 1_555 1_555
Cu3_3 S1_17 1_555 1_555
Cu5_15 I1_15 1_555 1_555
Cu6_17 I1_15 1_555 1_555
S2_14 Cu1_17 1_555 1_555
S2_3 Cu1_17 1_555 1_555
C3_17 N1_17 1_555 1_555
C4_17 C5_17 1_555 1_555
N3_17 C6_17 1_555 1_555
N4_17 C7_17 1_555 1_555
I2_15 Cu5_15 1_555 1_555
I3_17 Cu6_17 1_555 1_555
Cu1_18 N2_18 1_555 1_555
Cu5_11 N1_18 1_555 1_555
S1_18 C7_18 1_555 1_555
C1_18 H1_18 1_555 1_555
C2_18 C1_18 1_555 1_555
C3_18 H2_18 1_555 1_555
C4_18 C2_18 1_555 1_555
H3_18 C4_18 1_555 1_555
C5_18 C3_18 1_555 1_555
H4_18 C5_18 1_555 1_555
N1_18 C1_18 1_555 1_555
N2_18 C6_18 1_555 1_555
N3_18 H5_18 1_555 1_555
C6_18 C2_18 1_555 1_555
N4_18 N3_18 1_555 1_555
C7_18 N2_18 1_555 1_555
I3_18 Cu5_11 1_555 1_555
Cu4_7 S1_18 1_555 1_555
Cu3_13 S1_18 1_555 1_555
Cu6_18 I2_11 1_555 1_555
S3_7 Cu1_18 1_555 1_555
S2_13 Cu1_18 1_555 1_555
C3_18 N1_18 1_555 1_555
C4_18 C5_18 1_555 1_555
N3_18 C6_18 1_555 1_555
N4_18 C7_18 1_555 1_555
I3_18 Cu6_18 1_555 1_555
S1_19 C7_19 1_555 1_555
N2_19 C6_19 1_555 1_555
N3_19 H5_19 1_555 1_555
N4_19 N3_19 1_555 1_555
C7_19 N2_19 1_555 1_555
Cu4_14 S1_19 1_555 1_555
Cu5_16 I1_16 1_555 1_555
Cu6_19 I1_16 1_555 1_555
N3_19 C6_19 1_555 1_555
N4_19 C7_19 1_555 1_555
Cu2_16 N1_19 1_555 1_555
C2_19 C1_19 1_555 1_555
C3_19 H2_19 1_555 1_555
C4_19 C2_19 1_555 1_555
H3_19 C4_19 1_555 1_555
C5_19 C3_19 1_555 1_555
H4_19 C5_19 1_555 1_555
N1_19 C1_19 1_555 1_555
I2_16 Cu2_16 1_555 1_555
I3_19 Cu2_16 1_555 1_555
S2_15 Cu1_19 1_555 1_555
C3_19 N1_19 1_555 1_555
C4_19 C5_19 1_555 1_555
Cu1_20 N2_20 1_555 1_555
Cu5_2 N1_20 1_555 1_555
S1_20 C7_20 1_555 1_555
C1_20 H1_20 1_555 1_555
C2_20 C1_20 1_555 1_555
C3_20 H2_20 1_555 1_555
C4_20 C2_20 1_555 1_555
H3_20 C4_20 1_555 1_555
C5_20 C3_20 1_555 1_555
H4_20 C5_20 1_555 1_555
N1_20 C1_20 1_555 1_555
N2_20 C6_20 1_555 1_555
N3_20 H5_20 1_555 1_555
C6_20 C2_20 1_555 1_555
N4_20 N3_20 1_555 1_555
C7_20 N2_20 1_555 1_555
I3_20 Cu5_2 1_555 1_555
Cu4_15 S1_20 1_555 1_555
Cu6_20 I2_2 1_555 1_555
S2_16 Cu1_20 1_555 1_555
S3_15 Cu1_20 1_555 1_555
C3_20 N1_20 1_555 1_555
C4_20 C5_20 1_555 1_555
N3_20 C6_20 1_555 1_555
N4_20 C7_20 1_555 1_555
I3_20 Cu6_20 1_555 1_555
I1_17 Cu2_17 1_555 1_555
Cu1_21 N2_21 1_555 1_555
Cu2_17 N1_21 1_555 1_555
S1_21 C7_21 1_555 1_555
C1_21 H1_21 1_555 1_555
C2_21 C1_21 1_555 1_555
C3_21 H2_21 1_555 1_555
C4_21 C2_21 1_555 1_555
H3_21 C4_21 1_555 1_555
C5_21 C3_21 1_555 1_555
H4_21 C5_21 1_555 1_555
N1_21 C1_21 1_555 1_555
N2_21 C6_21 1_555 1_555
N3_21 H5_21 1_555 1_555
C6_21 C2_21 1_555 1_555
N4_21 N3_21 1_555 1_555
C7_21 N2_21 1_555 1_555
I2_17 Cu2_17 1_555 1_555
I3_21 Cu2_17 1_555 1_555
Cu3_15 S1_21 1_555 1_555
Cu5_17 I1_17 1_555 1_555
Cu6_21 I1_17 1_555 1_555
S2_17 Cu1_21 1_555 1_555
C3_21 N1_21 1_555 1_555
C4_21 C5_21 1_555 1_555
N3_21 C6_21 1_555 1_555
N4_21 C7_21 1_555 1_555
I2_17 Cu5_17 1_555 1_555
I3_21 Cu6_21 1_555 1_555
Cu1_22 N2_22 1_555 1_555
Cu5_7 N1_22 1_555 1_555
S1_22 C7_22 1_555 1_555
C1_22 H1_22 1_555 1_555
C2_22 C1_22 1_555 1_555
C3_22 H2_22 1_555 1_555
C4_22 C2_22 1_555 1_555
H3_22 C4_22 1_555 1_555
C5_22 C3_22 1_555 1_555
H4_22 C5_22 1_555 1_555
N1_22 C1_22 1_555 1_555
N2_22 C6_22 1_555 1_555
N3_22 H5_22 1_555 1_555
C6_22 C2_22 1_555 1_555
N4_22 N3_22 1_555 1_555
C7_22 N2_22 1_555 1_555
I3_22 Cu5_7 1_555 1_555
Cu4_16 S1_22 1_555 1_555
Cu6_22 I2_7 1_555 1_555
S2_18 Cu1_22 1_555 1_555
S3_16 Cu1_22 1_555 1_555
C3_22 N1_22 1_555 1_555
C4_22 C5_22 1_555 1_555
N3_22 C6_22 1_555 1_555
N4_22 C7_22 1_555 1_555
I3_22 Cu6_22 1_555 1_555
I1_18 Cu2_18 1_555 1_555
Cu1_23 N2_23 1_555 1_555
Cu2_18 N1_23 1_555 1_555
S1_23 C7_23 1_555 1_555
C1_23 H1_23 1_555 1_555
C2_23 C1_23 1_555 1_555
C3_23 H2_23 1_555 1_555
C4_23 C2_23 1_555 1_555
H3_23 C4_23 1_555 1_555
C5_23 C3_23 1_555 1_555
H4_23 C5_23 1_555 1_555
N1_23 C1_23 1_555 1_555
N2_23 C6_23 1_555 1_555
N3_23 H5_23 1_555 1_555
C6_23 C2_23 1_555 1_555
N4_23 N3_23 1_555 1_555
C7_23 N2_23 1_555 1_555
I2_18 Cu2_18 1_555 1_555
I3_23 Cu2_18 1_555 1_555
Cu4_2 S1_23 1_555 1_555
Cu3_7 S1_23 1_555 1_555
Cu5_18 I1_18 1_555 1_555
Cu6_23 I1_18 1_555 1_555
S3_2 Cu1_23 1_555 1_555
S2_7 Cu1_23 1_555 1_555
C3_23 N1_23 1_555 1_555
C4_23 C5_23 1_555 1_555
N3_23 C6_23 1_555 1_555
N4_23 C7_23 1_555 1_555
I2_18 Cu5_18 1_555 1_555
I3_23 Cu6_23 1_555 1_555
Cu1_24 N2_24 1_555 1_555
Cu5_18 N1_24 1_555 1_555
S1_24 C7_24 1_555 1_555
C1_24 H1_24 1_555 1_555
C2_24 C1_24 1_555 1_555
C3_24 H2_24 1_555 1_555
C4_24 C2_24 1_555 1_555
H3_24 C4_24 1_555 1_555
C5_24 C3_24 1_555 1_555
H4_24 C5_24 1_555 1_555
N1_24 C1_24 1_555 1_555
N2_24 C6_24 1_555 1_555
N3_24 H5_24 1_555 1_555
C6_24 C2_24 1_555 1_555
N4_24 N3_24 1_555 1_555
C7_24 N2_24 1_555 1_555
I3_24 Cu5_18 1_555 1_555
Cu4_17 S1_24 1_555 1_555
Cu6_24 I2_18 1_555 1_555
S2_19 Cu1_24 1_555 1_555
S3_17 Cu1_24 1_555 1_555
C3_24 N1_24 1_555 1_555
C4_24 C5_24 1_555 1_555
N3_24 C6_24 1_555 1_555
N4_24 C7_24 1_555 1_555
I3_24 Cu6_24 1_555 1_555
I1_19 Cu2_19 1_555 1_555
Cu1_25 N2_25 1_555 1_555
Cu2_19 N1_25 1_555 1_555
S1_25 C7_25 1_555 1_555
C1_25 H1_25 1_555 1_555
C2_25 C1_25 1_555 1_555
C3_25 H2_25 1_555 1_555
C4_25 C2_25 1_555 1_555
H3_25 C4_25 1_555 1_555
C5_25 C3_25 1_555 1_555
H4_25 C5_25 1_555 1_555
N1_25 C1_25 1_555 1_555
N2_25 C6_25 1_555 1_555
N3_25 H5_25 1_555 1_555
C6_25 C2_25 1_555 1_555
N4_25 N3_25 1_555 1_555
C7_25 N2_25 1_555 1_555
I2_19 Cu2_19 1_555 1_555
I3_25 Cu2_19 1_555 1_555
Cu4_12 S1_25 1_555 1_555
Cu3_12 S1_25 1_555 1_555
Cu5_19 I1_19 1_555 1_555
Cu6_25 I1_19 1_555 1_555
S3_12 Cu1_25 1_555 1_555
S2_12 Cu1_25 1_555 1_555
C3_25 N1_25 1_555 1_555
C4_25 C5_25 1_555 1_555
N3_25 C6_25 1_555 1_555
N4_25 C7_25 1_555 1_555
I2_19 Cu5_19 1_555 1_555
I3_25 Cu6_25 1_555 1_555
S1_26 C7_26 1_555 1_555
N2_26 C6_26 1_555 1_555
N3_26 H5_26 1_555 1_555
N4_26 N3_26 1_555 1_555
C7_26 N2_26 1_555 1_555
Cu4_18 S1_26 1_555 1_555
Cu5_20 I1_20 1_555 1_555
Cu6_26 I1_20 1_555 1_555
N3_26 C6_26 1_555 1_555
N4_26 C7_26 1_555 1_555
Cu2_20 N1_26 1_555 1_555
C2_26 C1_26 1_555 1_555
C3_26 H2_26 1_555 1_555
C4_26 C2_26 1_555 1_555
H3_26 C4_26 1_555 1_555
C5_26 C3_26 1_555 1_555
H4_26 C5_26 1_555 1_555
N1_26 C1_26 1_555 1_555
I2_20 Cu2_20 1_555 1_555
I3_26 Cu2_20 1_555 1_555
S2_20 Cu1_26 1_555 1_555
C3_26 N1_26 1_555 1_555
C4_26 C5_26 1_555 1_555
Cu1_27 N2_27 1_555 1_555
Cu5_6 N1_27 1_555 1_555
S1_27 C7_27 1_555 1_555
C1_27 H1_27 1_555 1_555
C2_27 C1_27 1_555 1_555
C3_27 H2_27 1_555 1_555
C4_27 C2_27 1_555 1_555
H3_27 C4_27 1_555 1_555
C5_27 C3_27 1_555 1_555
H4_27 C5_27 1_555 1_555
N1_27 C1_27 1_555 1_555
N2_27 C6_27 1_555 1_555
N3_27 H5_27 1_555 1_555
C6_27 C2_27 1_555 1_555
N4_27 N3_27 1_555 1_555
C7_27 N2_27 1_555 1_555
I3_27 Cu5_6 1_555 1_555
Cu3_21 S1_27 1_555 1_555
Cu3_11 S1_27 1_555 1_555
Cu6_27 I2_6 1_555 1_555
S2_21 Cu1_27 1_555 1_555
S2_11 Cu1_27 1_555 1_555
C3_27 N1_27 1_555 1_555
C4_27 C5_27 1_555 1_555
N3_27 C6_27 1_555 1_555
N4_27 C7_27 1_555 1_555
I3_27 Cu6_27 1_555 1_555
Cu5_16 N1_28 1_555 1_555
C2_28 C1_28 1_555 1_555
C3_28 H2_28 1_555 1_555
C4_28 C2_28 1_555 1_555
H3_28 C4_28 1_555 1_555
C5_28 C3_28 1_555 1_555
H4_28 C5_28 1_555 1_555
N1_28 C1_28 1_555 1_555
I3_28 Cu5_16 1_555 1_555
S3_16 Cu1_28 1_555 1_555
C3_28 N1_28 1_555 1_555
C4_28 C5_28 1_555 1_555
S1_28 C7_28 1_555 1_555
N2_28 C6_28 1_555 1_555
N3_28 H5_28 1_555 1_555
N4_28 N3_28 1_555 1_555
C7_28 N2_28 1_555 1_555
Cu4_19 S1_28 1_555 1_555
Cu6_28 I2_16 1_555 1_555
N3_28 C6_28 1_555 1_555
N4_28 C7_28 1_555 1_555
Cu1_29 N2_29 1_555 1_555
Cu5_17 N1_29 1_555 1_555
S1_29 C7_29 1_555 1_555
C1_29 H1_29 1_555 1_555
C2_29 C1_29 1_555 1_555
C3_29 H2_29 1_555 1_555
C4_29 C2_29 1_555 1_555
H3_29 C4_29 1_555 1_555
C5_29 C3_29 1_555 1_555
H4_29 C5_29 1_555 1_555
N1_29 C1_29 1_555 1_555
N2_29 C6_29 1_555 1_555
N3_29 H5_29 1_555 1_555
C6_29 C2_29 1_555 1_555
N4_29 N3_29 1_555 1_555
C7_29 N2_29 1_555 1_555
I3_29 Cu5_17 1_555 1_555
Cu3_22 S1_29 1_555 1_555
Cu3_16 S1_29 1_555 1_555
Cu6_29 I2_17 1_555 1_555
S2_22 Cu1_29 1_555 1_555
C3_29 N1_29 1_555 1_555
C4_29 C5_29 1_555 1_555
N3_29 C6_29 1_555 1_555
N4_29 C7_29 1_555 1_555
I3_29 Cu6_29 1_555 1_555
Cu1_30 N2_30 1_555 1_555
Cu5_3 N1_30 1_555 1_555
S1_30 C7_30 1_555 1_555
C1_30 H1_30 1_555 1_555
C2_30 C1_30 1_555 1_555
C3_30 H2_30 1_555 1_555
C4_30 C2_30 1_555 1_555
H3_30 C4_30 1_555 1_555
C5_30 C3_30 1_555 1_555
H4_30 C5_30 1_555 1_555
N1_30 C1_30 1_555 1_555
N2_30 C6_30 1_555 1_555
N3_30 H5_30 1_555 1_555
C6_30 C2_30 1_555 1_555
N4_30 N3_30 1_555 1_555
C7_30 N2_30 1_555 1_555
I3_30 Cu5_3 1_555 1_555
Cu4_9 S1_30 1_555 1_555
Cu4_20 S1_30 1_555 1_555
Cu6_30 I2_3 1_555 1_555
S3_9 Cu1_30 1_555 1_555
S3_20 Cu1_30 1_555 1_555
C3_30 N1_30 1_555 1_555
C4_30 C5_30 1_555 1_555
N3_30 C6_30 1_555 1_555
N4_30 C7_30 1_555 1_555
I3_30 Cu6_30 1_555 1_555
S1_31 C7_31 1_555 1_555
N2_31 C6_31 1_555 1_555
N3_31 H5_31 1_555 1_555
N4_31 N3_31 1_555 1_555
C7_31 N2_31 1_555 1_555
Cu3_20 S1_31 1_555 1_555
Cu5_21 I1_21 1_555 1_555
Cu6_31 I1_21 1_555 1_555
N3_31 C6_31 1_555 1_555
N4_31 C7_31 1_555 1_555
Cu2_21 N1_31 1_555 1_555
C2_31 C1_31 1_555 1_555
C3_31 H2_31 1_555 1_555
C4_31 C2_31 1_555 1_555
H3_31 C4_31 1_555 1_555
C5_31 C3_31 1_555 1_555
H4_31 C5_31 1_555 1_555
N1_31 C1_31 1_555 1_555
I2_21 Cu2_21 1_555 1_555
I3_31 Cu2_21 1_555 1_555
S2_23 Cu1_31 1_555 1_555
C3_31 N1_31 1_555 1_555
C4_31 C5_31 1_555 1_555
Cu5_9 N1_32 1_555 1_555
C2_32 C1_32 1_555 1_555
C3_32 H2_32 1_555 1_555
C4_32 C2_32 1_555 1_555
H3_32 C4_32 1_555 1_555
C5_32 C3_32 1_555 1_555
H4_32 C5_32 1_555 1_555
N1_32 C1_32 1_555 1_555
I3_32 Cu5_9 1_555 1_555
S3_15 Cu1_32 1_555 1_555
C3_32 N1_32 1_555 1_555
C4_32 C5_32 1_555 1_555
S1_32 C7_32 1_555 1_555
N2_32 C6_32 1_555 1_555
N3_32 H5_32 1_555 1_555
N4_32 N3_32 1_555 1_555
C7_32 N2_32 1_555 1_555
Cu3_22 S1_32 1_555 1_555
Cu6_32 I2_9 1_555 1_555
N3_32 C6_32 1_555 1_555
N4_32 C7_32 1_555 1_555
Cu1_33 N2_33 1_555 1_555
Cu5_19 N1_33 1_555 1_555
S1_33 C7_33 1_555 1_555
C1_33 H1_33 1_555 1_555
C2_33 C1_33 1_555 1_555
C3_33 H2_33 1_555 1_555
C4_33 C2_33 1_555 1_555
H3_33 C4_33 1_555 1_555
C5_33 C3_33 1_555 1_555
H4_33 C5_33 1_555 1_555
N1_33 C1_33 1_555 1_555
N2_33 C6_33 1_555 1_555
N3_33 H5_33 1_555 1_555
C6_33 C2_33 1_555 1_555
N4_33 N3_33 1_555 1_555
C7_33 N2_33 1_555 1_555
I3_33 Cu5_19 1_555 1_555
Cu3_24 S1_33 1_555 1_555
Cu4_21 S1_33 1_555 1_555
Cu6_33 I2_19 1_555 1_555
S2_24 Cu1_33 1_555 1_555
S3_21 Cu1_33 1_555 1_555
C3_33 N1_33 1_555 1_555
C4_33 C5_33 1_555 1_555
N3_33 C6_33 1_555 1_555
N4_33 C7_33 1_555 1_555
I3_33 Cu6_33 1_555 1_555
Cu1_34 N2_34 1_555 1_555
Cu5_8 N1_34 1_555 1_555
S1_34 C7_34 1_555 1_555
C1_34 H1_34 1_555 1_555
C2_34 C1_34 1_555 1_555
C3_34 H2_34 1_555 1_555
C4_34 C2_34 1_555 1_555
H3_34 C4_34 1_555 1_555
C5_34 C3_34 1_555 1_555
H4_34 C5_34 1_555 1_555
N1_34 C1_34 1_555 1_555
N2_34 C6_34 1_555 1_555
N3_34 H5_34 1_555 1_555
C6_34 C2_34 1_555 1_555
N4_34 N3_34 1_555 1_555
C7_34 N2_34 1_555 1_555
I3_34 Cu5_8 1_555 1_555
Cu4_19 S1_34 1_555 1_555
Cu3_18 S1_34 1_555 1_555
Cu6_34 I2_8 1_555 1_555
S3_19 Cu1_34 1_555 1_555
C3_34 N1_34 1_555 1_555
C4_34 C5_34 1_555 1_555
N3_34 C6_34 1_555 1_555
N4_34 C7_34 1_555 1_555
I3_34 Cu6_34 1_555 1_555
I1_22 Cu2_22 1_555 1_555
Cu1_35 N2_35 1_555 1_555
Cu2_22 N1_35 1_555 1_555
S1_35 C7_35 1_555 1_555
C1_35 H1_35 1_555 1_555
C2_35 C1_35 1_555 1_555
C3_35 H2_35 1_555 1_555
C4_35 C2_35 1_555 1_555
H3_35 C4_35 1_555 1_555
C5_35 C3_35 1_555 1_555
H4_35 C5_35 1_555 1_555
N1_35 C1_35 1_555 1_555
N2_35 C6_35 1_555 1_555
N3_35 H5_35 1_555 1_555
C6_35 C2_35 1_555 1_555
N4_35 N3_35 1_555 1_555
C7_35 N2_35 1_555 1_555
I2_22 Cu2_22 1_555 1_555
I3_35 Cu2_22 1_555 1_555
Cu4_13 S1_35 1_555 1_555
Cu3_6 S1_35 1_555 1_555
Cu5_22 I1_22 1_555 1_555
Cu6_35 I1_22 1_555 1_555
S3_13 Cu1_35 1_555 1_555
S2_6 Cu1_35 1_555 1_555
C3_35 N1_35 1_555 1_555
C4_35 C5_35 1_555 1_555
N3_35 C6_35 1_555 1_555
N4_35 C7_35 1_555 1_555
I2_22 Cu5_22 1_555 1_555
I3_35 Cu6_35 1_555 1_555
I1_23 Cu2_23 1_555 1_555
Cu1_36 N2_36 1_555 1_555
Cu2_23 N1_36 1_555 1_555
S1_36 C7_36 1_555 1_555
C1_36 H1_36 1_555 1_555
C2_36 C1_36 1_555 1_555
C3_36 H2_36 1_555 1_555
C4_36 C2_36 1_555 1_555
H3_36 C4_36 1_555 1_555
C5_36 C3_36 1_555 1_555
H4_36 C5_36 1_555 1_555
N1_36 C1_36 1_555 1_555
N2_36 C6_36 1_555 1_555
N3_36 H5_36 1_555 1_555
C6_36 C2_36 1_555 1_555
N4_36 N3_36 1_555 1_555
C7_36 N2_36 1_555 1_555
I2_23 Cu2_23 1_555 1_555
I3_36 Cu2_23 1_555 1_555
Cu4_3 S1_36 1_555 1_555
Cu3_14 S1_36 1_555 1_555
Cu5_23 I1_23 1_555 1_555
Cu6_36 I1_23 1_555 1_555
S3_3 Cu1_36 1_555 1_555
S2_14 Cu1_36 1_555 1_555
C3_36 N1_36 1_555 1_555
C4_36 C5_36 1_555 1_555
N3_36 C6_36 1_555 1_555
N4_36 C7_36 1_555 1_555
I2_23 Cu5_23 1_555 1_555
I3_36 Cu6_36 1_555 1_555
Cu1_37 N2_37 1_555 1_555
Cu5_14 N1_37 1_555 1_555
S1_37 C7_37 1_555 1_555
C1_37 H1_37 1_555 1_555
C2_37 C1_37 1_555 1_555
C3_37 H2_37 1_555 1_555
C4_37 C2_37 1_555 1_555
H3_37 C4_37 1_555 1_555
C5_37 C3_37 1_555 1_555
H4_37 C5_37 1_555 1_555
N1_37 C1_37 1_555 1_555
N2_37 C6_37 1_555 1_555
N3_37 H5_37 1_555 1_555
C6_37 C2_37 1_555 1_555
N4_37 N3_37 1_555 1_555
C7_37 N2_37 1_555 1_555
I3_37 Cu5_14 1_555 1_555
Cu4 S1_37 1_555 1_555
Cu4_22 S1_37 1_555 1_555
Cu6_37 I2_14 1_555 1_555
S3 Cu1_37 1_555 1_555
S3_22 Cu1_37 1_555 1_555
C3_37 N1_37 1_555 1_555
C4_37 C5_37 1_555 1_555
N3_37 C6_37 1_555 1_555
N4_37 C7_37 1_555 1_555
I3_37 Cu6_37 1_555 1_555
Cu1_38 N2_38 1_555 1_555
Cu5_15 N1_38 1_555 1_555
S1_38 C7_38 1_555 1_555
C1_38 H1_38 1_555 1_555
C2_38 C1_38 1_555 1_555
C3_38 H2_38 1_555 1_555
C4_38 C2_38 1_555 1_555
H3_38 C4_38 1_555 1_555
C5_38 C3_38 1_555 1_555
H4_38 C5_38 1_555 1_555
N1_38 C1_38 1_555 1_555
N2_38 C6_38 1_555 1_555
N3_38 H5_38 1_555 1_555
C6_38 C2_38 1_555 1_555
N4_38 N3_38 1_555 1_555
C7_38 N2_38 1_555 1_555
I3_38 Cu5_15 1_555 1_555
Cu4_22 S1_38 1_555 1_555
Cu3 S1_38 1_555 1_555
Cu6_38 I2_15 1_555 1_555
S3_22 Cu1_38 1_555 1_555
S2 Cu1_38 1_555 1_555
C3_38 N1_38 1_555 1_555
C4_38 C5_38 1_555 1_555
N3_38 C6_38 1_555 1_555
N4_38 C7_38 1_555 1_555
I3_38 Cu6_38 1_555 1_555
Cu1_39 N2_39 1_555 1_555
Cu5_12 N1_39 1_555 1_555
S1_39 C7_39 1_555 1_555
C1_39 H1_39 1_555 1_555
C2_39 C1_39 1_555 1_555
C3_39 H2_39 1_555 1_555
C4_39 C2_39 1_555 1_555
H3_39 C4_39 1_555 1_555
C5_39 C3_39 1_555 1_555
H4_39 C5_39 1_555 1_555
N1_39 C1_39 1_555 1_555
N2_39 C6_39 1_555 1_555
N3_39 H5_39 1_555 1_555
C6_39 C2_39 1_555 1_555
N4_39 N3_39 1_555 1_555
C7_39 N2_39 1_555 1_555
I3_39 Cu5_12 1_555 1_555
Cu4_20 S1_39 1_555 1_555
Cu3_10 S1_39 1_555 1_555
Cu6_39 I2_12 1_555 1_555
S3_20 Cu1_39 1_555 1_555
S2_10 Cu1_39 1_555 1_555
C3_39 N1_39 1_555 1_555
C4_39 C5_39 1_555 1_555
N3_39 C6_39 1_555 1_555
N4_39 C7_39 1_555 1_555
I3_39 Cu6_39 1_555 1_555
Cu1_40 N2_40 1_555 1_555
Cu5_22 N1_40 1_555 1_555
S1_40 C7_40 1_555 1_555
C1_40 H1_40 1_555 1_555
C2_40 C1_40 1_555 1_555
C3_40 H2_40 1_555 1_555
C4_40 C2_40 1_555 1_555
H3_40 C4_40 1_555 1_555
C5_40 C3_40 1_555 1_555
H4_40 C5_40 1_555 1_555
N1_40 C1_40 1_555 1_555
N2_40 C6_40 1_555 1_555
N3_40 H5_40 1_555 1_555
C6_40 C2_40 1_555 1_555
N4_40 N3_40 1_555 1_555
C7_40 N2_40 1_555 1_555
I3_40 Cu5_22 1_555 1_555
Cu3_25 S1_40 1_555 1_555
Cu3_24 S1_40 1_555 1_555
Cu6_40 I2_22 1_555 1_555
S2_25 Cu1_40 1_555 1_555
S2_24 Cu1_40 1_555 1_555
C3_40 N1_40 1_555 1_555
C4_40 C5_40 1_555 1_555
N3_40 C6_40 1_555 1_555
N4_40 C7_40 1_555 1_555
I3_40 Cu6_40 1_555 1_555
Cu1_41 N2_41 1_555 1_555
Cu5_13 N1_41 1_555 1_555
S1_41 C7_41 1_555 1_555
C1_41 H1_41 1_555 1_555
C2_41 C1_41 1_555 1_555
C3_41 H2_41 1_555 1_555
C4_41 C2_41 1_555 1_555
H3_41 C4_41 1_555 1_555
C5_41 C3_41 1_555 1_555
H4_41 C5_41 1_555 1_555
N1_41 C1_41 1_555 1_555
N2_41 C6_41 1_555 1_555
N3_41 H5_41 1_555 1_555
C6_41 C2_41 1_555 1_555
N4_41 N3_41 1_555 1_555
C7_41 N2_41 1_555 1_555
I3_41 Cu5_13 1_555 1_555
Cu4_10 S1_41 1_555 1_555
Cu3_21 S1_41 1_555 1_555
Cu6_41 I2_13 1_555 1_555
S3_10 Cu1_41 1_555 1_555
S2_21 Cu1_41 1_555 1_555
C3_41 N1_41 1_555 1_555
C4_41 C5_41 1_555 1_555
N3_41 C6_41 1_555 1_555
N4_41 C7_41 1_555 1_555
I3_41 Cu6_41 1_555 1_555
Cu1_42 N2_42 1_555 1_555
Cu5_23 N1_42 1_555 1_555
S1_42 C7_42 1_555 1_555
C1_42 H1_42 1_555 1_555
C2_42 C1_42 1_555 1_555
C3_42 H2_42 1_555 1_555
C4_42 C2_42 1_555 1_555
H3_42 C4_42 1_555 1_555
C5_42 C3_42 1_555 1_555
H4_42 C5_42 1_555 1_555
N1_42 C1_42 1_555 1_555
N2_42 C6_42 1_555 1_555
N3_42 H5_42 1_555 1_555
C6_42 C2_42 1_555 1_555
N4_42 N3_42 1_555 1_555
C7_42 N2_42 1_555 1_555
I3_42 Cu5_23 1_555 1_555
Cu4_21 S1_42 1_555 1_555
Cu3_25 S1_42 1_555 1_555
Cu6_42 I2_23 1_555 1_555
S3_21 Cu1_42 1_555 1_555
S2_25 Cu1_42 1_555 1_555
C3_42 N1_42 1_555 1_555
C4_42 C5_42 1_555 1_555
N3_42 C6_42 1_555 1_555
N4_42 C7_42 1_555 1_555
I3_42 Cu6_42 1_555 1_555
Cu1_43 N2_43 1_555 1_555
Cu5_4 N1_43 1_555 1_555
S1_43 C7_43 1_555 1_555
C1_43 H1_43 1_555 1_555
C2_43 C1_43 1_555 1_555
C3_43 H2_43 1_555 1_555
C4_43 C2_43 1_555 1_555
H3_43 C4_43 1_555 1_555
C5_43 C3_43 1_555 1_555
H4_43 C5_43 1_555 1_555
N1_43 C1_43 1_555 1_555
N2_43 C6_43 1_555 1_555
N3_43 H5_43 1_555 1_555
C6_43 C2_43 1_555 1_555
N4_43 N3_43 1_555 1_555
C7_43 N2_43 1_555 1_555
I3_43 Cu5_4 1_555 1_555
Cu3_26 S1_43 1_555 1_555
Cu3_19 S1_43 1_555 1_555
Cu6_43 I2_4 1_555 1_555
S2_26 Cu1_43 1_555 1_555
C3_43 N1_43 1_555 1_555
C4_43 C5_43 1_555 1_555
N3_43 C6_43 1_555 1_555
N4_43 C7_43 1_555 1_555
I3_43 Cu6_43 1_555 1_555
Cu5_20 N1_44 1_555 1_555
C2_44 C1_44 1_555 1_555
C3_44 H2_44 1_555 1_555
C4_44 C2_44 1_555 1_555
H3_44 C4_44 1_555 1_555
C5_44 C3_44 1_555 1_555
H4_44 C5_44 1_555 1_555
N1_44 C1_44 1_555 1_555
I3_44 Cu5_20 1_555 1_555
S3_5 Cu1_44 1_555 1_555
C3_44 N1_44 1_555 1_555
C4_44 C5_44 1_555 1_555
S1_44 C7_44 1_555 1_555
N2_44 C6_44 1_555 1_555
N3_44 H5_44 1_555 1_555
N4_44 N3_44 1_555 1_555
C7_44 N2_44 1_555 1_555
Cu3_8 S1_44 1_555 1_555
Cu6_44 I2_20 1_555 1_555
N3_44 C6_44 1_555 1_555
N4_44 C7_44 1_555 1_555
Cu5_5 N1_45 1_555 1_555
C2_45 C1_45 1_555 1_555
C3_45 H2_45 1_555 1_555
C4_45 C2_45 1_555 1_555
H3_45 C4_45 1_555 1_555
C5_45 C3_45 1_555 1_555
H4_45 C5_45 1_555 1_555
N1_45 C1_45 1_555 1_555
I3_45 Cu5_5 1_555 1_555
S3_17 Cu1_45 1_555 1_555
C3_45 N1_45 1_555 1_555
C4_45 C5_45 1_555 1_555
S1_45 C7_45 1_555 1_555
N2_45 C6_45 1_555 1_555
N3_45 H5_45 1_555 1_555
N4_45 N3_45 1_555 1_555
C7_45 N2_45 1_555 1_555
Cu3_26 S1_45 1_555 1_555
Cu6_45 I2_5 1_555 1_555
N3_45 C6_45 1_555 1_555
N4_45 C7_45 1_555 1_555
Cu5_21 N1_46 1_555 1_555
C2_46 C1_46 1_555 1_555
C3_46 H2_46 1_555 1_555
C4_46 C2_46 1_555 1_555
H3_46 C4_46 1_555 1_555
C5_46 C3_46 1_555 1_555
H4_46 C5_46 1_555 1_555
N1_46 C1_46 1_555 1_555
I3_46 Cu5_21 1_555 1_555
S3_8 Cu1_46 1_555 1_555
C3_46 N1_46 1_555 1_555
C4_46 C5_46 1_555 1_555
S1_46 C7_46 1_555 1_555
N2_46 C6_46 1_555 1_555
N3_46 H5_46 1_555 1_555
N4_46 N3_46 1_555 1_555
C7_46 N2_46 1_555 1_555
Cu3_4 S1_46 1_555 1_555
Cu6_46 I2_21 1_555 1_555
N3_46 C6_46 1_555 1_555
N4_46 C7_46 1_555 1_555
S1_47 C7_47 1_555 1_555
N2_47 C6_47 1_555 1_555
N3_47 H5_47 1_555 1_555
N4_47 N3_47 1_555 1_555
C7_47 N2_47 1_555 1_555
Cu3_23 S1_47 1_555 1_555
Cu5_24 I1_24 1_555 1_555
Cu6_47 I1_24 1_555 1_555
N3_47 C6_47 1_555 1_555
N4_47 C7_47 1_555 1_555
Cu2_24 N1_47 1_555 1_555
C2_47 C1_47 1_555 1_555
C3_47 H2_47 1_555 1_555
C4_47 C2_47 1_555 1_555
H3_47 C4_47 1_555 1_555
C5_47 C3_47 1_555 1_555
H4_47 C5_47 1_555 1_555
N1_47 C1_47 1_555 1_555
I2_24 Cu2_24 1_555 1_555
I3_47 Cu2_24 1_555 1_555
S3_18 Cu1_47 1_555 1_555
C3_47 N1_47 1_555 1_555
C4_47 C5_47 1_555 1_555
Cu5_24 N1_48 1_555 1_555
C2_48 C1_48 1_555 1_555
C3_48 H2_48 1_555 1_555
C4_48 C2_48 1_555 1_555
H3_48 C4_48 1_555 1_555
C5_48 C3_48 1_555 1_555
H4_48 C5_48 1_555 1_555
N1_48 C1_48 1_555 1_555
I3_48 Cu5_24 1_555 1_555
S3_14 Cu1_48 1_555 1_555
C3_48 N1_48 1_555 1_555
C4_48 C5_48 1_555 1_555
S1_48 C7_48 1_555 1_555
N2_48 C6_48 1_555 1_555
N3_48 H5_48 1_555 1_555
N4_48 N3_48 1_555 1_555
C7_48 N2_48 1_555 1_555
Cu3_17 S1_48 1_555 1_555
Cu6_48 I2_24 1_555 1_555
N3_48 C6_48 1_555 1_555
N4_48 C7_48 1_555 1_555
I3_32 Cu6_10 1_555 1_555
I3_10 Cu6_32 1_555 1_555
Cu4_11 N2_49 1_555 1_555
Cu6_32 N1_49 1_555 1_555
S3_11 C7_49 1_555 1_555
C1_49 H1_49 1_555 1_555
C2_49 C1_49 1_555 1_555
C3_49 H2_49 1_555 1_555
C4_49 C2_49 1_555 1_555
H3_49 C4_49 1_555 1_555
C5_49 C3_49 1_555 1_555
H4_49 C5_49 1_555 1_555
N1_49 C1_49 1_555 1_555
N2_49 C6_49 1_555 1_555
N3_49 H5_49 1_555 1_555
C6_49 C2_49 1_555 1_555
N4_49 N3_49 1_555 1_555
C7_49 N2_49 1_555 1_555
C3_49 N1_49 1_555 1_555
C4_49 C5_49 1_555 1_555
N3_49 C6_49 1_555 1_555
N4_49 C7_49 1_555 1_555
I3_13 Cu6_39 1_555 1_555
Cu3_7 N2_50 1_555 1_555
Cu6_39 N1_50 1_555 1_555
S2_7 C7_50 1_555 1_555
C1_50 H1_50 1_555 1_555
C2_50 C1_50 1_555 1_555
C3_50 H2_50 1_555 1_555
C4_50 C2_50 1_555 1_555
H3_50 C4_50 1_555 1_555
C5_50 C3_50 1_555 1_555
H4_50 C5_50 1_555 1_555
N1_50 C1_50 1_555 1_555
N2_50 C6_50 1_555 1_555
N3_50 H5_50 1_555 1_555
C6_50 C2_50 1_555 1_555
N4_50 N3_50 1_555 1_555
C7_50 N2_50 1_555 1_555
C3_50 N1_50 1_555 1_555
C4_50 C5_50 1_555 1_555
N3_50 C6_50 1_555 1_555
N4_50 C7_50 1_555 1_555
I3_39 Cu6_13 1_555 1_555
I3_48 Cu6_47 1_555 1_555
I3_47 Cu6_48 1_555 1_555
Cu4_10 N2_51 1_555 1_555
Cu6_48 N1_51 1_555 1_555
S3_10 C7_51 1_555 1_555
C1_51 H1_51 1_555 1_555
C2_51 C1_51 1_555 1_555
C3_51 H2_51 1_555 1_555
C4_51 C2_51 1_555 1_555
H3_51 C4_51 1_555 1_555
C5_51 C3_51 1_555 1_555
H4_51 C5_51 1_555 1_555
N1_51 C1_51 1_555 1_555
N2_51 C6_51 1_555 1_555
N3_51 H5_51 1_555 1_555
C6_51 C2_51 1_555 1_555
N4_51 N3_51 1_555 1_555
C7_51 N2_51 1_555 1_555
C3_51 N1_51 1_555 1_555
C4_51 C5_51 1_555 1_555
N3_51 C6_51 1_555 1_555
N4_51 C7_51 1_555 1_555
I3_36 Cu6_42 1_555 1_555
Cu4_8 N2_52 1_555 1_555
Cu6_42 N1_52 1_555 1_555
S3_8 C7_52 1_555 1_555
C1_52 H1_52 1_555 1_555
C2_52 C1_52 1_555 1_555
C3_52 H2_52 1_555 1_555
C4_52 C2_52 1_555 1_555
H3_52 C4_52 1_555 1_555
C5_52 C3_52 1_555 1_555
H4_52 C5_52 1_555 1_555
N1_52 C1_52 1_555 1_555
N2_52 C6_52 1_555 1_555
N3_52 H5_52 1_555 1_555
C6_52 C2_52 1_555 1_555
N4_52 N3_52 1_555 1_555
C7_52 N2_52 1_555 1_555
C3_52 N1_52 1_555 1_555
C4_52 C5_52 1_555 1_555
N3_52 C6_52 1_555 1_555
N4_52 C7_52 1_555 1_555
I3_42 Cu6_36 1_555 1_555
Cu6_11 N1_53 1_555 1_555
C2_53 C1_53 1_555 1_555
C3_53 H2_53 1_555 1_555
C4_53 C2_53 1_555 1_555
H3_53 C4_53 1_555 1_555
C5_53 C3_53 1_555 1_555
H4_53 C5_53 1_555 1_555
N1_53 C1_53 1_555 1_555
C3_53 N1_53 1_555 1_555
C4_53 C5_53 1_555 1_555
S2_8 C7_53 1_555 1_555
N2_53 C6_53 1_555 1_555
N3_53 H5_53 1_555 1_555
N4_53 N3_53 1_555 1_555
C7_53 N2_53 1_555 1_555
N3_53 C6_53 1_555 1_555
N4_53 C7_53 1_555 1_555
I3_24 Cu6_23 1_555 1_555
Cu3_10 N2_54 1_555 1_555
Cu6_23 N1_54 1_555 1_555
S2_10 C7_54 1_555 1_555
C1_54 H1_54 1_555 1_555
C2_54 C1_54 1_555 1_555
C3_54 H2_54 1_555 1_555
C4_54 C2_54 1_555 1_555
H3_54 C4_54 1_555 1_555
C5_54 C3_54 1_555 1_555
H4_54 C5_54 1_555 1_555
N1_54 C1_54 1_555 1_555
N2_54 C6_54 1_555 1_555
N3_54 H5_54 1_555 1_555
C6_54 C2_54 1_555 1_555
N4_54 N3_54 1_555 1_555
C7_54 N2_54 1_555 1_555
C3_54 N1_54 1_555 1_555
C4_54 C5_54 1_555 1_555
N3_54 C6_54 1_555 1_555
N4_54 C7_54 1_555 1_555
I3_23 Cu6_24 1_555 1_555
I3_17 Cu6_38 1_555 1_555
Cu4_2 N2_55 1_555 1_555
Cu6_38 N1_55 1_555 1_555
S3_2 C7_55 1_555 1_555
C1_55 H1_55 1_555 1_555
C2_55 C1_55 1_555 1_555
C3_55 H2_55 1_555 1_555
C4_55 C2_55 1_555 1_555
H3_55 C4_55 1_555 1_555
C5_55 C3_55 1_555 1_555
H4_55 C5_55 1_555 1_555
N1_55 C1_55 1_555 1_555
N2_55 C6_55 1_555 1_555
N3_55 H5_55 1_555 1_555
C6_55 C2_55 1_555 1_555
N4_55 N3_55 1_555 1_555
C7_55 N2_55 1_555 1_555
C3_55 N1_55 1_555 1_555
C4_55 C5_55 1_555 1_555
N3_55 C6_55 1_555 1_555
N4_55 C7_55 1_555 1_555
I3_38 Cu6_17 1_555 1_555
I3_25 Cu6_33 1_555 1_555
Cu4_5 N2_56 1_555 1_555
Cu6_33 N1_56 1_555 1_555
S3_5 C7_56 1_555 1_555
C1_56 H1_56 1_555 1_555
C2_56 C1_56 1_555 1_555
C3_56 H2_56 1_555 1_555
C4_56 C2_56 1_555 1_555
H3_56 C4_56 1_555 1_555
C5_56 C3_56 1_555 1_555
H4_56 C5_56 1_555 1_555
N1_56 C1_56 1_555 1_555
N2_56 C6_56 1_555 1_555
N3_56 H5_56 1_555 1_555
C6_56 C2_56 1_555 1_555
N4_56 N3_56 1_555 1_555
C7_56 N2_56 1_555 1_555
C3_56 N1_56 1_555 1_555
C4_56 C5_56 1_555 1_555
N3_56 C6_56 1_555 1_555
N4_56 C7_56 1_555 1_555
I3_33 Cu6_25 1_555 1_555
Cu3_25 N2_57 1_555 1_555
Cu6_10 N1_57 1_555 1_555
S2_25 C7_57 1_555 1_555
C1_57 H1_57 1_555 1_555
C2_57 C1_57 1_555 1_555
C3_57 H2_57 1_555 1_555
C4_57 C2_57 1_555 1_555
H3_57 C4_57 1_555 1_555
C5_57 C3_57 1_555 1_555
H4_57 C5_57 1_555 1_555
N1_57 C1_57 1_555 1_555
N2_57 C6_57 1_555 1_555
N3_57 H5_57 1_555 1_555
C6_57 C2_57 1_555 1_555
N4_57 N3_57 1_555 1_555
C7_57 N2_57 1_555 1_555
C3_57 N1_57 1_555 1_555
C4_57 C5_57 1_555 1_555
N3_57 C6_57 1_555 1_555
N4_57 C7_57 1_555 1_555
Cu6 N1_58 1_555 1_555
C2_58 C1_58 1_555 1_555
C3_58 H2_58 1_555 1_555
C4_58 C2_58 1_555 1_555
H3_58 C4_58 1_555 1_555
C5_58 C3_58 1_555 1_555
H4_58 C5_58 1_555 1_555
N1_58 C1_58 1_555 1_555
C3_58 N1_58 1_555 1_555
C4_58 C5_58 1_555 1_555
S2_4 C7_58 1_555 1_555
N2_58 C6_58 1_555 1_555
N3_58 H5_58 1_555 1_555
N4_58 N3_58 1_555 1_555
C7_58 N2_58 1_555 1_555
N3_58 C6_58 1_555 1_555
N4_58 C7_58 1_555 1_555
I3_45 Cu6_5 1_555 1_555
I3_5 Cu6_45 1_555 1_555
Cu4_6 N2_59 1_555 1_555
Cu6_45 N1_59 1_555 1_555
S3_6 C7_59 1_555 1_555
C1_59 H1_59 1_555 1_555
C2_59 C1_59 1_555 1_555
C3_59 H2_59 1_555 1_555
C4_59 C2_59 1_555 1_555
H3_59 C4_59 1_555 1_555
C5_59 C3_59 1_555 1_555
H4_59 C5_59 1_555 1_555
N1_59 C1_59 1_555 1_555
N2_59 C6_59 1_555 1_555
N3_59 H5_59 1_555 1_555
C6_59 C2_59 1_555 1_555
N4_59 N3_59 1_555 1_555
C7_59 N2_59 1_555 1_555
C3_59 N1_59 1_555 1_555
C4_59 C5_59 1_555 1_555
N3_59 C6_59 1_555 1_555
N4_59 C7_59 1_555 1_555
I3_28 Cu6_19 1_555 1_555
I3_19 Cu6_28 1_555 1_555
Cu3_3 N2_60 1_555 1_555
Cu6_28 N1_60 1_555 1_555
S2_3 C7_60 1_555 1_555
C1_60 H1_60 1_555 1_555
C2_60 C1_60 1_555 1_555
C3_60 H2_60 1_555 1_555
C4_60 C2_60 1_555 1_555
H3_60 C4_60 1_555 1_555
C5_60 C3_60 1_555 1_555
H4_60 C5_60 1_555 1_555
N1_60 C1_60 1_555 1_555
N2_60 C6_60 1_555 1_555
N3_60 H5_60 1_555 1_555
C6_60 C2_60 1_555 1_555
N4_60 N3_60 1_555 1_555
C7_60 N2_60 1_555 1_555
C3_60 N1_60 1_555 1_555
C4_60 C5_60 1_555 1_555
N3_60 C6_60 1_555 1_555
N4_60 C7_60 1_555 1_555
I3_20 Cu6_2 1_555 1_555
Cu3 N2_61 1_555 1_555
Cu6_2 N1_61 1_555 1_555
S2 C7_61 1_555 1_555
C1_61 H1_61 1_555 1_555
C2_61 C1_61 1_555 1_555
C3_61 H2_61 1_555 1_555
C4_61 C2_61 1_555 1_555
H3_61 C4_61 1_555 1_555
C5_61 C3_61 1_555 1_555
H4_61 C5_61 1_555 1_555
N1_61 C1_61 1_555 1_555
N2_61 C6_61 1_555 1_555
N3_61 H5_61 1_555 1_555
C6_61 C2_61 1_555 1_555
N4_61 N3_61 1_555 1_555
C7_61 N2_61 1_555 1_555
C3_61 N1_61 1_555 1_555
C4_61 C5_61 1_555 1_555
N3_61 C6_61 1_555 1_555
N4_61 C7_61 1_555 1_555
I3_2 Cu6_20 1_555 1_555
I3_46 Cu6_31 1_555 1_555
I3_31 Cu6_46 1_555 1_555
Cu4 N2_62 1_555 1_555
Cu6_46 N1_62 1_555 1_555
S3 C7_62 1_555 1_555
C1_62 H1_62 1_555 1_555
C2_62 C1_62 1_555 1_555
C3_62 H2_62 1_555 1_555
C4_62 C2_62 1_555 1_555
H3_62 C4_62 1_555 1_555
C5_62 C3_62 1_555 1_555
H4_62 C5_62 1_555 1_555
N1_62 C1_62 1_555 1_555
N2_62 C6_62 1_555 1_555
N3_62 H5_62 1_555 1_555
C6_62 C2_62 1_555 1_555
N4_62 N3_62 1_555 1_555
C7_62 N2_62 1_555 1_555
C3_62 N1_62 1_555 1_555
C4_62 C5_62 1_555 1_555
N3_62 C6_62 1_555 1_555
N4_62 C7_62 1_555 1_555
I3_44 Cu6_26 1_555 1_555
I3_26 Cu6_44 1_555 1_555
Cu4_9 N2_63 1_555 1_555
Cu6_44 N1_63 1_555 1_555
S3_9 C7_63 1_555 1_555
C1_63 H1_63 1_555 1_555
C2_63 C1_63 1_555 1_555
C3_63 H2_63 1_555 1_555
C4_63 C2_63 1_555 1_555
H3_63 C4_63 1_555 1_555
C5_63 C3_63 1_555 1_555
H4_63 C5_63 1_555 1_555
N1_63 C1_63 1_555 1_555
N2_63 C6_63 1_555 1_555
N3_63 H5_63 1_555 1_555
C6_63 C2_63 1_555 1_555
N4_63 N3_63 1_555 1_555
C7_63 N2_63 1_555 1_555
C3_63 N1_63 1_555 1_555
C4_63 C5_63 1_555 1_555
N3_63 C6_63 1_555 1_555
N4_63 C7_63 1_555 1_555
Cu4_21 N2_64 1_555 1_555
Cu6_5 N1_64 1_555 1_555
S3_21 C7_64 1_555 1_555
C1_64 H1_64 1_555 1_555
C2_64 C1_64 1_555 1_555
C3_64 H2_64 1_555 1_555
C4_64 C2_64 1_555 1_555
H3_64 C4_64 1_555 1_555
C5_64 C3_64 1_555 1_555
H4_64 C5_64 1_555 1_555
N1_64 C1_64 1_555 1_555
N2_64 C6_64 1_555 1_555
N3_64 H5_64 1_555 1_555
C6_64 C2_64 1_555 1_555
N4_64 N3_64 1_555 1_555
C7_64 N2_64 1_555 1_555
C3_64 N1_64 1_555 1_555
C4_64 C5_64 1_555 1_555
N3_64 C6_64 1_555 1_555
N4_64 C7_64 1_555 1_555
I3_22 Cu6_7 1_555 1_555
Cu3_11 N2_65 1_555 1_555
Cu6_7 N1_65 1_555 1_555
S2_11 C7_65 1_555 1_555
C1_65 H1_65 1_555 1_555
C2_65 C1_65 1_555 1_555
C3_65 H2_65 1_555 1_555
C4_65 C2_65 1_555 1_555
H3_65 C4_65 1_555 1_555
C5_65 C3_65 1_555 1_555
H4_65 C5_65 1_555 1_555
N1_65 C1_65 1_555 1_555
N2_65 C6_65 1_555 1_555
N3_65 H5_65 1_555 1_555
C6_65 C2_65 1_555 1_555
N4_65 N3_65 1_555 1_555
C7_65 N2_65 1_555 1_555
C3_65 N1_65 1_555 1_555
C4_65 C5_65 1_555 1_555
N3_65 C6_65 1_555 1_555
N4_65 C7_65 1_555 1_555
I3_7 Cu6_22 1_555 1_555
Cu3_24 N2_66 1_555 1_555
Cu6_19 N1_66 1_555 1_555
S2_24 C7_66 1_555 1_555
C1_66 H1_66 1_555 1_555
C2_66 C1_66 1_555 1_555
C3_66 H2_66 1_555 1_555
C4_66 C2_66 1_555 1_555
H3_66 C4_66 1_555 1_555
C5_66 C3_66 1_555 1_555
H4_66 C5_66 1_555 1_555
N1_66 C1_66 1_555 1_555
N2_66 C6_66 1_555 1_555
N3_66 H5_66 1_555 1_555
C6_66 C2_66 1_555 1_555
N4_66 N3_66 1_555 1_555
C7_66 N2_66 1_555 1_555
C3_66 N1_66 1_555 1_555
C4_66 C5_66 1_555 1_555
N3_66 C6_66 1_555 1_555
N4_66 C7_66 1_555 1_555
Cu6_12 N1_67 1_555 1_555
C2_67 C1_67 1_555 1_555
C3_67 H2_67 1_555 1_555
C4_67 C2_67 1_555 1_555
H3_67 C4_67 1_555 1_555
C5_67 C3_67 1_555 1_555
H4_67 C5_67 1_555 1_555
N1_67 C1_67 1_555 1_555
C3_67 N1_67 1_555 1_555
C4_67 C5_67 1_555 1_555
S2_17 C7_67 1_555 1_555
N2_67 C6_67 1_555 1_555
N3_67 H5_67 1_555 1_555
N4_67 N3_67 1_555 1_555
C7_67 N2_67 1_555 1_555
N3_67 C6_67 1_555 1_555
N4_67 C7_67 1_555 1_555
Cu3_22 N2_68 1_555 1_555
Cu6_13 N1_68 1_555 1_555
S2_22 C7_68 1_555 1_555
C1_68 H1_68 1_555 1_555
C2_68 C1_68 1_555 1_555
C3_68 H2_68 1_555 1_555
C4_68 C2_68 1_555 1_555
H3_68 C4_68 1_555 1_555
C5_68 C3_68 1_555 1_555
H4_68 C5_68 1_555 1_555
N1_68 C1_68 1_555 1_555
N2_68 C6_68 1_555 1_555
N3_68 H5_68 1_555 1_555
C6_68 C2_68 1_555 1_555
N4_68 N3_68 1_555 1_555
C7_68 N2_68 1_555 1_555
C3_68 N1_68 1_555 1_555
C4_68 C5_68 1_555 1_555
N3_68 C6_68 1_555 1_555
N4_68 C7_68 1_555 1_555
I3_35 Cu6_40 1_555 1_555
Cu4_14 N2_69 1_555 1_555
Cu6_40 N1_69 1_555 1_555
S3_14 C7_69 1_555 1_555
C1_69 H1_69 1_555 1_555
C2_69 C1_69 1_555 1_555
C3_69 H2_69 1_555 1_555
C4_69 C2_69 1_555 1_555
H3_69 C4_69 1_555 1_555
C5_69 C3_69 1_555 1_555
H4_69 C5_69 1_555 1_555
N1_69 C1_69 1_555 1_555
N2_69 C6_69 1_555 1_555
N3_69 H5_69 1_555 1_555
C6_69 C2_69 1_555 1_555
N4_69 N3_69 1_555 1_555
C7_69 N2_69 1_555 1_555
C3_69 N1_69 1_555 1_555
C4_69 C5_69 1_555 1_555
N3_69 C6_69 1_555 1_555
N4_69 C7_69 1_555 1_555
I3_40 Cu6_35 1_555 1_555
Cu4_19 N2_70 1_555 1_555
Cu6_17 N1_70 1_555 1_555
S3_19 C7_70 1_555 1_555
C1_70 H1_70 1_555 1_555
C2_70 C1_70 1_555 1_555
C3_70 H2_70 1_555 1_555
C4_70 C2_70 1_555 1_555
H3_70 C4_70 1_555 1_555
C5_70 C3_70 1_555 1_555
H4_70 C5_70 1_555 1_555
N1_70 C1_70 1_555 1_555
N2_70 C6_70 1_555 1_555
N3_70 H5_70 1_555 1_555
C6_70 C2_70 1_555 1_555
N4_70 N3_70 1_555 1_555
C7_70 N2_70 1_555 1_555
C3_70 N1_70 1_555 1_555
C4_70 C5_70 1_555 1_555
N3_70 C6_70 1_555 1_555
N4_70 C7_70 1_555 1_555
I3_6 Cu6_27 1_555 1_555
Cu3_2 N2_71 1_555 1_555
Cu6_27 N1_71 1_555 1_555
S2_2 C7_71 1_555 1_555
C1_71 H1_71 1_555 1_555
C2_71 C1_71 1_555 1_555
C3_71 H2_71 1_555 1_555
C4_71 C2_71 1_555 1_555
H3_71 C4_71 1_555 1_555
C5_71 C3_71 1_555 1_555
H4_71 C5_71 1_555 1_555
N1_71 C1_71 1_555 1_555
N2_71 C6_71 1_555 1_555
N3_71 H5_71 1_555 1_555
C6_71 C2_71 1_555 1_555
N4_71 N3_71 1_555 1_555
C7_71 N2_71 1_555 1_555
C3_71 N1_71 1_555 1_555
C4_71 C5_71 1_555 1_555
N3_71 C6_71 1_555 1_555
N4_71 C7_71 1_555 1_555
I3_27 Cu6_6 1_555 1_555
Cu3_26 N2_72 1_555 1_555
Cu6_6 N1_72 1_555 1_555
S2_26 C7_72 1_555 1_555
C1_72 H1_72 1_555 1_555
C2_72 C1_72 1_555 1_555
C3_72 H2_72 1_555 1_555
C4_72 C2_72 1_555 1_555
H3_72 C4_72 1_555 1_555
C5_72 C3_72 1_555 1_555
H4_72 C5_72 1_555 1_555
N1_72 C1_72 1_555 1_555
N2_72 C6_72 1_555 1_555
N3_72 H5_72 1_555 1_555
C6_72 C2_72 1_555 1_555
N4_72 N3_72 1_555 1_555
C7_72 N2_72 1_555 1_555
C3_72 N1_72 1_555 1_555
C4_72 C5_72 1_555 1_555
N3_72 C6_72 1_555 1_555
N4_72 C7_72 1_555 1_555
I3_34 Cu6_8 1_555 1_555
Cu4_22 N2_73 1_555 1_555
Cu6_8 N1_73 1_555 1_555
S3_22 C7_73 1_555 1_555
C1_73 H1_73 1_555 1_555
C2_73 C1_73 1_555 1_555
C3_73 H2_73 1_555 1_555
C4_73 C2_73 1_555 1_555
H3_73 C4_73 1_555 1_555
C5_73 C3_73 1_555 1_555
H4_73 C5_73 1_555 1_555
N1_73 C1_73 1_555 1_555
N2_73 C6_73 1_555 1_555
N3_73 H5_73 1_555 1_555
C6_73 C2_73 1_555 1_555
N4_73 N3_73 1_555 1_555
C7_73 N2_73 1_555 1_555
C3_73 N1_73 1_555 1_555
C4_73 C5_73 1_555 1_555
N3_73 C6_73 1_555 1_555
N4_73 C7_73 1_555 1_555
I3_8 Cu6_34 1_555 1_555
Cu6_15 N1_74 1_555 1_555
C2_74 C1_74 1_555 1_555
C3_74 H2_74 1_555 1_555
C4_74 C2_74 1_555 1_555
H3_74 C4_74 1_555 1_555
C5_74 C3_74 1_555 1_555
H4_74 C5_74 1_555 1_555
N1_74 C1_74 1_555 1_555
C3_74 N1_74 1_555 1_555
C4_74 C5_74 1_555 1_555
S2_23 C7_74 1_555 1_555
N2_74 C6_74 1_555 1_555
N3_74 H5_74 1_555 1_555
N4_74 N3_74 1_555 1_555
C7_74 N2_74 1_555 1_555
N3_74 C6_74 1_555 1_555
N4_74 C7_74 1_555 1_555
Cu3_14 N2_75 1_555 1_555
Cu6_24 N1_75 1_555 1_555
S2_14 C7_75 1_555 1_555
C1_75 H1_75 1_555 1_555
C2_75 C1_75 1_555 1_555
C3_75 H2_75 1_555 1_555
C4_75 C2_75 1_555 1_555
H3_75 C4_75 1_555 1_555
C5_75 C3_75 1_555 1_555
H4_75 C5_75 1_555 1_555
N1_75 C1_75 1_555 1_555
N2_75 C6_75 1_555 1_555
N3_75 H5_75 1_555 1_555
C6_75 C2_75 1_555 1_555
N4_75 N3_75 1_555 1_555
C7_75 N2_75 1_555 1_555
C3_75 N1_75 1_555 1_555
C4_75 C5_75 1_555 1_555
N3_75 C6_75 1_555 1_555
N4_75 C7_75 1_555 1_555
S2_18 C7_76 1_555 1_555
N2_76 C6_76 1_555 1_555
N3_76 H5_76 1_555 1_555
N4_76 N3_76 1_555 1_555
C7_76 N2_76 1_555 1_555
N3_76 C6_76 1_555 1_555
N4_76 C7_76 1_555 1_555
Cu6_18 N1_76 1_555 1_555
C2_76 C1_76 1_555 1_555
C3_76 H2_76 1_555 1_555
C4_76 C2_76 1_555 1_555
H3_76 C4_76 1_555 1_555
C5_76 C3_76 1_555 1_555
H4_76 C5_76 1_555 1_555
N1_76 C1_76 1_555 1_555
C3_76 N1_76 1_555 1_555
C4_76 C5_76 1_555 1_555
Cu4_15 N2_77 1_555 1_555
Cu6_35 N1_77 1_555 1_555
S3_15 C7_77 1_555 1_555
C1_77 H1_77 1_555 1_555
C2_77 C1_77 1_555 1_555
C3_77 H2_77 1_555 1_555
C4_77 C2_77 1_555 1_555
H3_77 C4_77 1_555 1_555
C5_77 C3_77 1_555 1_555
H4_77 C5_77 1_555 1_555
N1_77 C1_77 1_555 1_555
N2_77 C6_77 1_555 1_555
N3_77 H5_77 1_555 1_555
C6_77 C2_77 1_555 1_555
N4_77 N3_77 1_555 1_555
C7_77 N2_77 1_555 1_555
C3_77 N1_77 1_555 1_555
C4_77 C5_77 1_555 1_555
N3_77 C6_77 1_555 1_555
N4_77 C7_77 1_555 1_555
Cu4_13 N2_78 1_555 1_555
Cu6_47 N1_78 1_555 1_555
S3_13 C7_78 1_555 1_555
C1_78 H1_78 1_555 1_555
C2_78 C1_78 1_555 1_555
C3_78 H2_78 1_555 1_555
C4_78 C2_78 1_555 1_555
H3_78 C4_78 1_555 1_555
C5_78 C3_78 1_555 1_555
H4_78 C5_78 1_555 1_555
N1_78 C1_78 1_555 1_555
N2_78 C6_78 1_555 1_555
N3_78 H5_78 1_555 1_555
C6_78 C2_78 1_555 1_555
N4_78 N3_78 1_555 1_555
C7_78 N2_78 1_555 1_555
C3_78 N1_78 1_555 1_555
C4_78 C5_78 1_555 1_555
N3_78 C6_78 1_555 1_555
N4_78 C7_78 1_555 1_555
Cu6_14 N1_79 1_555 1_555
C2_79 C1_79 1_555 1_555
C3_79 H2_79 1_555 1_555
C4_79 C2_79 1_555 1_555
H3_79 C4_79 1_555 1_555
C5_79 C3_79 1_555 1_555
H4_79 C5_79 1_555 1_555
N1_79 C1_79 1_555 1_555
C3_79 N1_79 1_555 1_555
C4_79 C5_79 1_555 1_555
S3_18 C7_79 1_555 1_555
N2_79 C6_79 1_555 1_555
N3_79 H5_79 1_555 1_555
N4_79 N3_79 1_555 1_555
C7_79 N2_79 1_555 1_555
N3_79 C6_79 1_555 1_555
N4_79 C7_79 1_555 1_555
S2_16 C7_80 1_555 1_555
N2_80 C6_80 1_555 1_555
N3_80 H5_80 1_555 1_555
N4_80 N3_80 1_555 1_555
C7_80 N2_80 1_555 1_555
N3_80 C6_80 1_555 1_555
N4_80 C7_80 1_555 1_555
Cu6_9 N1_80 1_555 1_555
C2_80 C1_80 1_555 1_555
C3_80 H2_80 1_555 1_555
C4_80 C2_80 1_555 1_555
H3_80 C4_80 1_555 1_555
C5_80 C3_80 1_555 1_555
H4_80 C5_80 1_555 1_555
N1_80 C1_80 1_555 1_555
C3_80 N1_80 1_555 1_555
C4_80 C5_80 1_555 1_555
Cu3_13 N2_81 1_555 1_555
Cu6_34 N1_81 1_555 1_555
S2_13 C7_81 1_555 1_555
C1_81 H1_81 1_555 1_555
C2_81 C1_81 1_555 1_555
C3_81 H2_81 1_555 1_555
C4_81 C2_81 1_555 1_555
H3_81 C4_81 1_555 1_555
C5_81 C3_81 1_555 1_555
H4_81 C5_81 1_555 1_555
N1_81 C1_81 1_555 1_555
N2_81 C6_81 1_555 1_555
N3_81 H5_81 1_555 1_555
C6_81 C2_81 1_555 1_555
N4_81 N3_81 1_555 1_555
C7_81 N2_81 1_555 1_555
C3_81 N1_81 1_555 1_555
C4_81 C5_81 1_555 1_555
N3_81 C6_81 1_555 1_555
N4_81 C7_81 1_555 1_555
Cu4_16 N2_82 1_555 1_555
Cu6_25 N1_82 1_555 1_555
S3_16 C7_82 1_555 1_555
C1_82 H1_82 1_555 1_555
C2_82 C1_82 1_555 1_555
C3_82 H2_82 1_555 1_555
C4_82 C2_82 1_555 1_555
H3_82 C4_82 1_555 1_555
C5_82 C3_82 1_555 1_555
H4_82 C5_82 1_555 1_555
N1_82 C1_82 1_555 1_555
N2_82 C6_82 1_555 1_555
N3_82 H5_82 1_555 1_555
C6_82 C2_82 1_555 1_555
N4_82 N3_82 1_555 1_555
C7_82 N2_82 1_555 1_555
C3_82 N1_82 1_555 1_555
C4_82 C5_82 1_555 1_555
N3_82 C6_82 1_555 1_555
N4_82 C7_82 1_555 1_555
I3_29 Cu6_21 1_555 1_555
Cu4_20 N2_83 1_555 1_555
Cu6_21 N1_83 1_555 1_555
S3_20 C7_83 1_555 1_555
C1_83 H1_83 1_555 1_555
C2_83 C1_83 1_555 1_555
C3_83 H2_83 1_555 1_555
C4_83 C2_83 1_555 1_555
H3_83 C4_83 1_555 1_555
C5_83 C3_83 1_555 1_555
H4_83 C5_83 1_555 1_555
N1_83 C1_83 1_555 1_555
N2_83 C6_83 1_555 1_555
N3_83 H5_83 1_555 1_555
C6_83 C2_83 1_555 1_555
N4_83 N3_83 1_555 1_555
C7_83 N2_83 1_555 1_555
C3_83 N1_83 1_555 1_555
C4_83 C5_83 1_555 1_555
N3_83 C6_83 1_555 1_555
N4_83 C7_83 1_555 1_555
I3_21 Cu6_29 1_555 1_555
I3_43 Cu6_4 1_555 1_555
Cu3_21 N2_84 1_555 1_555
Cu6_4 N1_84 1_555 1_555
S2_21 C7_84 1_555 1_555
C1_84 H1_84 1_555 1_555
C2_84 C1_84 1_555 1_555
C3_84 H2_84 1_555 1_555
C4_84 C2_84 1_555 1_555
H3_84 C4_84 1_555 1_555
C5_84 C3_84 1_555 1_555
H4_84 C5_84 1_555 1_555
N1_84 C1_84 1_555 1_555
N2_84 C6_84 1_555 1_555
N3_84 H5_84 1_555 1_555
C6_84 C2_84 1_555 1_555
N4_84 N3_84 1_555 1_555
C7_84 N2_84 1_555 1_555
C3_84 N1_84 1_555 1_555
C4_84 C5_84 1_555 1_555
N3_84 C6_84 1_555 1_555
N4_84 C7_84 1_555 1_555
I3_4 Cu6_43 1_555 1_555
Cu4_12 N2_85 1_555 1_555
Cu6_26 N1_85 1_555 1_555
S3_12 C7_85 1_555 1_555
C1_85 H1_85 1_555 1_555
C2_85 C1_85 1_555 1_555
C3_85 H2_85 1_555 1_555
C4_85 C2_85 1_555 1_555
H3_85 C4_85 1_555 1_555
C5_85 C3_85 1_555 1_555
H4_85 C5_85 1_555 1_555
N1_85 C1_85 1_555 1_555
N2_85 C6_85 1_555 1_555
N3_85 H5_85 1_555 1_555
C6_85 C2_85 1_555 1_555
N4_85 N3_85 1_555 1_555
C7_85 N2_85 1_555 1_555
C3_85 N1_85 1_555 1_555
C4_85 C5_85 1_555 1_555
N3_85 C6_85 1_555 1_555
N4_85 C7_85 1_555 1_555
Cu3_12 N2_86 1_555 1_555
Cu6_22 N1_86 1_555 1_555
S2_12 C7_86 1_555 1_555
C1_86 H1_86 1_555 1_555
C2_86 C1_86 1_555 1_555
C3_86 H2_86 1_555 1_555
C4_86 C2_86 1_555 1_555
H3_86 C4_86 1_555 1_555
C5_86 C3_86 1_555 1_555
H4_86 C5_86 1_555 1_555
N1_86 C1_86 1_555 1_555
N2_86 C6_86 1_555 1_555
N3_86 H5_86 1_555 1_555
C6_86 C2_86 1_555 1_555
N4_86 N3_86 1_555 1_555
C7_86 N2_86 1_555 1_555
C3_86 N1_86 1_555 1_555
C4_86 C5_86 1_555 1_555
N3_86 C6_86 1_555 1_555
N4_86 C7_86 1_555 1_555
Cu3_6 N2_87 1_555 1_555
Cu6_20 N1_87 1_555 1_555
S2_6 C7_87 1_555 1_555
C1_87 H1_87 1_555 1_555
C2_87 C1_87 1_555 1_555
C3_87 H2_87 1_555 1_555
C4_87 C2_87 1_555 1_555
H3_87 C4_87 1_555 1_555
C5_87 C3_87 1_555 1_555
H4_87 C5_87 1_555 1_555
N1_87 C1_87 1_555 1_555
N2_87 C6_87 1_555 1_555
N3_87 H5_87 1_555 1_555
C6_87 C2_87 1_555 1_555
N4_87 N3_87 1_555 1_555
C7_87 N2_87 1_555 1_555
C3_87 N1_87 1_555 1_555
C4_87 C5_87 1_555 1_555
N3_87 C6_87 1_555 1_555
N4_87 C7_87 1_555 1_555
Cu4_7 N2_88 1_555 1_555
Cu6_29 N1_88 1_555 1_555
S3_7 C7_88 1_555 1_555
C1_88 H1_88 1_555 1_555
C2_88 C1_88 1_555 1_555
C3_88 H2_88 1_555 1_555
C4_88 C2_88 1_555 1_555
H3_88 C4_88 1_555 1_555
C5_88 C3_88 1_555 1_555
H4_88 C5_88 1_555 1_555
N1_88 C1_88 1_555 1_555
N2_88 C6_88 1_555 1_555
N3_88 H5_88 1_555 1_555
C6_88 C2_88 1_555 1_555
N4_88 N3_88 1_555 1_555
C7_88 N2_88 1_555 1_555
C3_88 N1_88 1_555 1_555
C4_88 C5_88 1_555 1_555
N3_88 C6_88 1_555 1_555
N4_88 C7_88 1_555 1_555
Cu4_3 N2_89 1_555 1_555
Cu6_31 N1_89 1_555 1_555
S3_3 C7_89 1_555 1_555
C1_89 H1_89 1_555 1_555
C2_89 C1_89 1_555 1_555
C3_89 H2_89 1_555 1_555
C4_89 C2_89 1_555 1_555
H3_89 C4_89 1_555 1_555
C5_89 C3_89 1_555 1_555
H4_89 C5_89 1_555 1_555
N1_89 C1_89 1_555 1_555
N2_89 C6_89 1_555 1_555
N3_89 H5_89 1_555 1_555
C6_89 C2_89 1_555 1_555
N4_89 N3_89 1_555 1_555
C7_89 N2_89 1_555 1_555
C3_89 N1_89 1_555 1_555
C4_89 C5_89 1_555 1_555
N3_89 C6_89 1_555 1_555
N4_89 C7_89 1_555 1_555
Cu3_9 N2_90 1_555 1_555
Cu6_43 N1_90 1_555 1_555
S2_9 C7_90 1_555 1_555
C1_90 H1_90 1_555 1_555
C2_90 C1_90 1_555 1_555
C3_90 H2_90 1_555 1_555
C4_90 C2_90 1_555 1_555
H3_90 C4_90 1_555 1_555
C5_90 C3_90 1_555 1_555
H4_90 C5_90 1_555 1_555
N1_90 C1_90 1_555 1_555
N2_90 C6_90 1_555 1_555
N3_90 H5_90 1_555 1_555
C6_90 C2_90 1_555 1_555
N4_90 N3_90 1_555 1_555
C7_90 N2_90 1_555 1_555
C3_90 N1_90 1_555 1_555
C4_90 C5_90 1_555 1_555
N3_90 C6_90 1_555 1_555
N4_90 C7_90 1_555 1_555
Cu4_17 N2_91 1_555 1_555
Cu6_36 N1_91 1_555 1_555
S3_17 C7_91 1_555 1_555
C1_91 H1_91 1_555 1_555
C2_91 C1_91 1_555 1_555
C3_91 H2_91 1_555 1_555
C4_91 C2_91 1_555 1_555
H3_91 C4_91 1_555 1_555
C5_91 C3_91 1_555 1_555
H4_91 C5_91 1_555 1_555
N1_91 C1_91 1_555 1_555
N2_91 C6_91 1_555 1_555
N3_91 H5_91 1_555 1_555
C6_91 C2_91 1_555 1_555
N4_91 N3_91 1_555 1_555
C7_91 N2_91 1_555 1_555
C3_91 N1_91 1_555 1_555
C4_91 C5_91 1_555 1_555
N3_91 C6_91 1_555 1_555
N4_91 C7_91 1_555 1_555
S2_5 C7_92 1_555 1_555
N2_92 C6_92 1_555 1_555
N3_92 H5_92 1_555 1_555
N4_92 N3_92 1_555 1_555
C7_92 N2_92 1_555 1_555
N3_92 C6_92 1_555 1_555
N4_92 C7_92 1_555 1_555
Cu6_37 N1_92 1_555 1_555
C2_92 C1_92 1_555 1_555
C3_92 H2_92 1_555 1_555
C4_92 C2_92 1_555 1_555
H3_92 C4_92 1_555 1_555
C5_92 C3_92 1_555 1_555
H4_92 C5_92 1_555 1_555
N1_92 C1_92 1_555 1_555
C3_92 N1_92 1_555 1_555
C4_92 C5_92 1_555 1_555
S2_19 C7_93 1_555 1_555
N2_93 C6_93 1_555 1_555
N3_93 H5_93 1_555 1_555
N4_93 N3_93 1_555 1_555
C7_93 N2_93 1_555 1_555
N3_93 C6_93 1_555 1_555
N4_93 C7_93 1_555 1_555
Cu6_16 N1_93 1_555 1_555
C2_93 C1_93 1_555 1_555
C3_93 H2_93 1_555 1_555
C4_93 C2_93 1_555 1_555
H3_93 C4_93 1_555 1_555
C5_93 C3_93 1_555 1_555
H4_93 C5_93 1_555 1_555
N1_93 C1_93 1_555 1_555
C3_93 N1_93 1_555 1_555
C4_93 C5_93 1_555 1_555
S3_4 C7_94 1_555 1_555
N2_94 C6_94 1_555 1_555
N3_94 H5_94 1_555 1_555
N4_94 N3_94 1_555 1_555
C7_94 N2_94 1_555 1_555
N3_94 C6_94 1_555 1_555
N4_94 C7_94 1_555 1_555
Cu6_41 N1_94 1_555 1_555
C2_94 C1_94 1_555 1_555
C3_94 H2_94 1_555 1_555
C4_94 C2_94 1_555 1_555
H3_94 C4_94 1_555 1_555
C5_94 C3_94 1_555 1_555
H4_94 C5_94 1_555 1_555
N1_94 C1_94 1_555 1_555
C3_94 N1_94 1_555 1_555
C4_94 C5_94 1_555 1_555
Cu6_3 N1_95 1_555 1_555
C2_95 C1_95 1_555 1_555
C3_95 H2_95 1_555 1_555
C4_95 C2_95 1_555 1_555
H3_95 C4_95 1_555 1_555
C5_95 C3_95 1_555 1_555
H4_95 C5_95 1_555 1_555
N1_95 C1_95 1_555 1_555
C3_95 N1_95 1_555 1_555
C4_95 C5_95 1_555 1_555
S2_20 C7_95 1_555 1_555
N2_95 C6_95 1_555 1_555
N3_95 H5_95 1_555 1_555
N4_95 N3_95 1_555 1_555
C7_95 N2_95 1_555 1_555
N3_95 C6_95 1_555 1_555
N4_95 C7_95 1_555 1_555
S2_15 C7_96 1_555 1_555
N2_96 C6_96 1_555 1_555
N3_96 H5_96 1_555 1_555
N4_96 N3_96 1_555 1_555
C7_96 N2_96 1_555 1_555
N3_96 C6_96 1_555 1_555
N4_96 C7_96 1_555 1_555
Cu6_30 N1_96 1_555 1_555
C2_96 C1_96 1_555 1_555
C3_96 H2_96 1_555 1_555
C4_96 C2_96 1_555 1_555
H3_96 C4_96 1_555 1_555
C5_96 C3_96 1_555 1_555
H4_96 C5_96 1_555 1_555
N1_96 C1_96 1_555 1_555
C3_96 N1_96 1_555 1_555
C4_96 C5_96 1_555 1_555

#END
